
#######################################################################
#
#                 Cambridge Crystallographic Data Centre
#                                CCDC 
#
#######################################################################
#
# If this CIF has been generated from an entry in the Cambridge 
# Structural Database, then it will include bibliographic, chemical, 
# crystal, experimental, refinement or atomic coordinate data resulting 
# from the CCDC's data processing and validation procedures.
#
#######################################################################

data_SOHMEI
_chemical_formula_moiety         '(C73 H51 I6 N15 O7 Zn3)n'
_symmetry_cell_setting           orthorhombic
_symmetry_space_group_name_H-M   'P b c a'
_symmetry_Int_Tables_number      61
_space_group_name_Hall           '-P 2ac 2ab'
loop_
_symmetry_equiv_pos_site_id
_symmetry_equiv_pos_as_xyz
1 x,y,z
2 1/2-x,-y,1/2+z
3 -x,1/2+y,1/2-z
4 1/2+x,1/2-y,-z
5 -x,-y,-z
6 1/2+x,y,1/2-z
7 x,1/2-y,1/2+z
8 1/2-x,1/2+y,z
_cell_length_a                   28.1745(4)
_cell_length_b                   13.8238(2)
_cell_length_c                   45.1995(8)
_cell_angle_alpha                90
_cell_angle_beta                 90
_cell_angle_gamma                90
_cell_volume                     17604.2
loop_
_atom_site_label
_atom_site_type_symbol
_atom_site_fract_x
_atom_site_fract_y
_atom_site_fract_z
_atom_site_U_iso_or_equiv
_atom_site_thermal_displace_type
Zn1 Zn 0.55258(5) -0.14466(11) 0.42112(3) 0.0873 Uani
Zn2 Zn 0.76140(5) 0.16584(8) 0.18444(3) 0.0802 Uani
Zn3 Zn 1.02205(5) -0.12742(9) 0.41337(3) 0.0836 Uani
I1 I 0.56118(5) -0.32587(7) 0.42633(3) 0.1308 Uani
I2 I 0.48776(4) -0.05362(11) 0.39343(3) 0.1449 Uani
I3 I 0.80493(3) 0.32694(5) 0.19090(2) 0.1013 Uani
I4 I 0.67434(4) 0.16771(7) 0.16952(3) 0.1188 Uani
I5 I 1.00595(3) -0.20327(6) 0.46404(2) 0.1076 Uani
I6 I 1.06958(4) -0.21186(7) 0.37358(3) 0.1225 Uani
C1 C 0.7452(4) -0.0448(6) 0.3550(3) 0.0720 Uani
C2 C 0.7817(4) -0.0079(6) 0.3119(2) 0.0627 Uani
C3 C 0.8239(4) -0.0433(6) 0.3520(2) 0.0690 Uani
C4 C 0.6995(3) -0.0611(6) 0.3720(2) 0.0623 Uani
C5 C 0.7001(4) -0.0863(7) 0.4005(3) 0.0800 Uani
H1 H 0.7285 -0.0904 0.4110 0.0960 Uiso
C6 C 0.6555(4) -0.1067(8) 0.4145(2) 0.0773 Uani
H2 H 0.6559 -0.1258 0.4342 0.0930 Uiso
C7 C 0.6149(4) -0.0726(7) 0.3739(2) 0.0753 Uani
H3 H 0.5857 -0.0675 0.3644 0.0900 Uiso
C8 C 0.6564(4) -0.0502(7) 0.3578(2) 0.0770 Uani
H4 H 0.6548 -0.0287 0.3384 0.0930 Uiso
C9 C 0.7768(3) 0.0208(6) 0.2817(2) 0.0650 Uani
C10 C 0.7342(4) 0.0255(6) 0.2674(3) 0.0767 Uani
H5 H 0.7066 0.0070 0.2772 0.0920 Uiso
C11 C 0.7315(4) 0.0582(7) 0.2380(2) 0.0740 Uani
H6 H 0.7022 0.0572 0.2284 0.0890 Uiso
C12 C 0.8099(4) 0.0852(8) 0.2368(3) 0.0867 Uani
H7 H 0.8366 0.1052 0.2264 0.1040 Uiso
C13 C 0.8152(4) 0.0533(8) 0.2645(3) 0.0870 Uani
H8 H 0.8455 0.0526 0.2728 0.1040 Uiso
C14 C 0.8703(4) -0.0576(7) 0.3666(2) 0.0737 Uani
C15 C 0.9121(4) -0.0524(8) 0.3506(3) 0.0860 Uani
H9 H 0.9118 -0.0370 0.3305 0.1030 Uiso
C16 C 0.9551(4) -0.0711(9) 0.3654(3) 0.0897 Uani
H10 H 0.9829 -0.0673 0.3544 0.1080 Uiso
C17 C 0.9159(5) -0.0992(8) 0.4095(3) 0.0873 Uani
H11 H 0.9169 -0.1176 0.4293 0.1050 Uiso
C18 C 0.8718(4) -0.0789(7) 0.3973(3) 0.0790 Uani
H12 H 0.8444 -0.0792 0.4088 0.0940 Uiso
C19 C 0.5975(5) 0.0679(7) 0.5405(2) 0.0813 Uani
C20 C 0.6345(4) 0.0709(7) 0.5854(2) 0.0770 Uani
C21 C 0.6006(4) 0.2059(7) 0.5676(2) 0.0780 Uani
C22 C 0.5819(4) 0.0153(7) 0.5138(2) 0.0797 Uani
C23 C 0.5601(4) 0.0641(8) 0.4908(3) 0.0847 Uani
H13 H 0.5531 0.1296 0.4924 0.1020 Uiso
C24 C 0.5489(4) 0.0136(9) 0.4650(3) 0.0940 Uani
H14 H 0.5343 0.0463 0.4495 0.1130 Uiso
C25 C 0.5773(5) -0.1294(8) 0.4846(3) 0.0957 Uani
H15 H 0.5819 -0.1959 0.4831 0.1150 Uiso
C26 C 0.5901(5) -0.0834(8) 0.5103(3) 0.1030 Uani
H16 H 0.6042 -0.1184 0.5256 0.1240 Uiso
C27 C 0.6579(4) 0.0176(7) 0.6094(2) 0.0783 Uani
C28 C 0.6587(5) -0.0814(8) 0.6106(3) 0.0973 Uani
H17 H 0.6443 -0.1162 0.5954 0.1160 Uiso
C29 C 0.6792(5) -0.1294(8) 0.6326(3) 0.0930 Uani
H18 H 0.6783 -0.1966 0.6326 0.1120 Uiso
C30 C 0.7035(5) 0.0118(7) 0.6536(3) 0.0940 Uani
H19 H 0.7209 0.0444 0.6680 0.1130 Uiso
C31 C 0.6809(5) 0.0629(8) 0.6321(3) 0.0997 Uani
H20 H 0.6811 0.1301 0.6328 0.1200 Uiso
C32 C 0.5869(4) 0.3081(7) 0.5710(2) 0.0760 Uani
C33 C 0.5927(5) 0.3554(8) 0.5977(3) 0.0927 Uani
H21 H 0.6069 0.3236 0.6135 0.1110 Uiso
C34 C 0.5776(5) 0.4492(9) 0.6009(3) 0.0993 Uani
H22 H 0.5842 0.4814 0.6185 0.1190 Uiso
C35 C 0.5476(5) 0.4525(9) 0.5527(3) 0.1080 Uani
H23 H 0.5324 0.4852 0.5374 0.1300 Uiso
C36 C 0.5649(5) 0.3556(9) 0.5483(3) 0.1000 Uani
H24 H 0.5612 0.3254 0.5300 0.1200 Uiso
N1 N 0.7400(3) -0.0213(5) 0.32642(18) 0.0693 Uani
N2 N 0.8231(3) -0.0179(6) 0.3236(2) 0.0713 Uani
N3 N 0.7848(3) -0.0591(5) 0.36918(18) 0.0670 Uani
N4 N 0.6157(3) -0.1006(6) 0.4019(2) 0.0727 Uani
N5 N 0.7679(3) 0.0894(6) 0.22386(19) 0.0737 Uani
N6 N 0.9587(3) -0.0940(6) 0.3942(2) 0.0800 Uani
N7 N 0.6208(3) 0.0198(6) 0.5612(2) 0.0857 Uani
N8 N 0.6269(3) 0.1660(6) 0.5888(2) 0.0780 Uani
N9 N 0.5864(4) 0.1628(6) 0.5422(2) 0.0867 Uani
N10 N 0.5589(3) -0.0831(7) 0.4619(2) 0.0863 Uani
N11 N 0.7010(3) -0.0842(6) 0.6544(2) 0.0847 Uani
N12 N 0.5537(3) 0.4960(6) 0.5796(2) 0.0803 Uani
Zn2A Zn 0.73860(5) -0.16584(8) 0.68444(3) 0.0802 Uani
Zn3C Zn 0.52205(5) 0.62742(9) 0.58663(3) 0.0836 Uani
N11A N 0.7990(3) 0.0842(6) 0.1544(2) 0.0847 Uani
N12C N 1.0537(3) 0.0040(6) 0.4204(2) 0.0803 Uani
C37 C 0.7697(7) 0.7304(4) 0.3232(4) 0.1153 Uani
C38 C 0.7466(8) 0.7541(4) 0.2966(5) 0.1237 Uani
H25 H 0.7136 0.7543 0.2966 0.1480 Uiso
C39 C 0.7692(9) 0.7771(5) 0.2705(5) 0.1310 Uani
H26 H 0.7519 0.7923 0.2535 0.1570 Uiso
C40 C 0.8189(8) 0.7771(5) 0.2702(5) 0.1350 Uani
C41 C 0.8416(9) 0.7536(5) 0.2965(5) 0.1360 Uani
H27 H 0.8746 0.7533 0.2965 0.1630 Uiso
C42 C 0.8189(7) 0.7305(4) 0.3227(4) 0.1203 Uani
C43 C 0.8455(7) 0.7073(4) 0.3486(4) 0.1243 Uani
C44 C 0.8954(8) 0.7066(6) 0.3491(6) 0.1387 Uani
H28 H 0.9124 0.7215 0.3321 0.1670 Uiso
C45 C 0.9191(9) 0.6836(6) 0.3749(6) 0.1370 Uani
H29 H 0.9521 0.6831 0.3751 0.1640 Uiso
C46 C 0.8940(9) 0.6611(6) 0.4005(6) 0.1337 Uani
H30 H 0.9103 0.6457 0.4177 0.1600 Uiso
C47 C 0.8454(9) 0.6615(5) 0.4004(5) 0.1320 Uani
H31 H 0.8290 0.6464 0.4176 0.1590 Uiso
C48 C 0.8202(7) 0.6845(4) 0.3747(5) 0.1207 Uani
C49 C 0.7701(7) 0.6842(4) 0.3754(4) 0.1163 Uani
C50 C 0.7449(9) 0.6613(5) 0.4014(5) 0.1223 Uani
H32 H 0.7611 0.6459 0.4187 0.1470 Uiso
C51 C 0.6954(9) 0.6622(6) 0.4008(6) 0.1303 Uani
H33 H 0.6787 0.6472 0.4179 0.1560 Uiso
C52 C 0.6707(9) 0.6849(6) 0.3753(6) 0.1257 Uani
H34 H 0.6377 0.6850 0.3755 0.1510 Uiso
C53 C 0.6953(7) 0.7078(5) 0.3494(5) 0.1183 Uani
H35 H 0.6787 0.7231 0.3322 0.1420 Uiso
C54 C 0.7449(7) 0.7075(4) 0.3493(4) 0.1130 Uani
C55 C 0.8535(11) 0.7983(6) 0.2459(6) 0.1643 Uani
H36 H 0.8458 0.7893 0.2261 0.1970 Uiso
O1 O 0.8938(10) 0.829(3) 0.2538(10) 0.2367 Uani
C56 C 0.8173(7) 0.819(2) 0.4758(3) 0.3267 Uani
C57 C 0.7809(7) 0.882(2) 0.4683(3) 0.3067 Uani
H37 H 0.7507 0.8580 0.4641 0.3720 Uiso
C58 C 0.7895(10) 0.981(2) 0.4669(3) 0.2967 Uani
H38 H 0.7651 1.0231 0.4619 0.3580 Uiso
C59 C 0.8345(12) 1.016(2) 0.4731(3) 0.2880 Uani
H39 H 0.8403 1.0827 0.4722 0.3450 Uiso
C60 C 0.8709(9) 0.953(2) 0.4807(3) 0.2840 Uani
H40 H 0.9011 0.9772 0.4848 0.3390 Uiso
C61 C 0.8623(6) 0.854(2) 0.4820(3) 0.2837 Uani
H41 H 0.8867 0.8121 0.4871 0.3430 Uiso
N13 N 0.8082(10) 0.714(2) 0.4773(3) 0.4167 Uani
O2 O 0.8416(13) 0.663(2) 0.4840(3) 0.5500 Uani
O3 O 0.7699(12) 0.680(2) 0.4721(4) 0.4833 Uani
C62 C 0.9247(6) 0.975(2) 0.2359(4) 0.3067 Uani
C63 C 0.9055(11) 1.058(3) 0.2234(5) 0.3400 Uani
H42 H 0.9025 1.1142 0.2346 0.4100 Uiso
C64 C 0.8907(12) 1.058(3) 0.1941(6) 0.3633 Uani
H43 H 0.8778 1.1131 0.1857 0.4380 Uiso
C65 C 0.8951(11) 0.974(3) 0.1773(5) 0.3567 Uani
H44 H 0.8852 0.9733 0.1576 0.4250 Uiso
C66 C 0.9144(13) 0.891(3) 0.1898(5) 0.3167 Uani
H45 H 0.9173 0.8347 0.1785 0.3800 Uiso
C67 C 0.9292(11) 0.891(2) 0.2191(5) 0.3167 Uani
H46 H 0.9420 0.8359 0.2275 0.3800 Uiso
N14 N 0.9405(8) 0.975(2) 0.2670(5) 0.2833 Uani
O4 O 0.9372(13) 1.046(2) 0.2820(5) 0.3067 Uani
O5 O 0.9565(12) 0.902(2) 0.2764(5) 0.3033 Uani
C68 C 0.9344(14) 0.555(2) 0.2780(5) 0.5467 Uani
C69 C 0.9226(16) 0.478(3) 0.2965(6) 0.5633 Uani
H47 H 0.9413 0.4646 0.3130 0.6750 Uiso
C70 C 0.8830(17) 0.422(3) 0.2904(8) 0.5933 Uani
H48 H 0.8752 0.3703 0.3028 0.7160 Uiso
C71 C 0.8552(16) 0.442(3) 0.2658(8) 0.6100 Uani
H49 H 0.8287 0.4038 0.2617 0.7340 Uiso
C72 C 0.8669(15) 0.518(3) 0.2473(7) 0.5967 Uani
H50 H 0.8482 0.5318 0.2308 0.7190 Uiso
C73 C 0.9065(15) 0.575(3) 0.2534(6) 0.5600 Uani
H51 H 0.9143 0.6261 0.2410 0.6720 Uiso
N15 N 0.9757(15) 0.613(3) 0.2844(6) 0.5500 Uani
O6 O 1.0012(16) 0.599(3) 0.3055(6) 0.5933 Uani
O7 O 0.9839(17) 0.677(3) 0.2680(8) 0.5900 Uani
loop_
_atom_site_aniso_label
_atom_site_aniso_U_11
_atom_site_aniso_U_22
_atom_site_aniso_U_33
_atom_site_aniso_U_23
_atom_site_aniso_U_13
_atom_site_aniso_U_12
Zn1 0.0921(9) 0.0942(9) 0.0757(8) -0.0119(7) 0.0029(7) -0.0136(7)
Zn2 0.0996(9) 0.0634(7) 0.0775(8) -0.0023(6) 0.0011(7) 0.0076(6)
Zn3 0.0886(9) 0.0620(7) 0.1002(10) -0.0007(6) -0.0093(7) -0.0078(6)
I1 0.1631(10) 0.0847(6) 0.1447(10) -0.0295(6) 0.0215(7) -0.0346(6)
I2 0.0927(7) 0.2217(14) 0.1204(9) 0.0314(8) -0.0045(6) -0.0144(7)
I3 0.1241(7) 0.0637(5) 0.1162(7) -0.0130(4) 0.0031(5) 0.0023(4)
I4 0.1125(7) 0.1118(7) 0.1322(9) 0.0294(6) -0.0293(6) -0.0026(5)
I5 0.1194(7) 0.0840(5) 0.1195(8) 0.0318(5) -0.0128(5) -0.0153(5)
I6 0.1243(8) 0.0884(6) 0.1547(10) -0.0207(6) 0.0143(6) 0.0185(5)
C1 0.082(7) 0.047(5) 0.087(8) -0.022(5) 0.000(6) -0.001(5)
C2 0.069(6) 0.055(5) 0.064(6) -0.015(4) 0.010(5) 0.001(4)
C3 0.085(7) 0.052(5) 0.070(7) -0.016(4) -0.002(6) 0.008(5)
C4 0.080(7) 0.054(5) 0.053(6) -0.011(4) -0.002(5) 0.003(4)
C5 0.095(8) 0.071(6) 0.074(7) -0.019(5) -0.005(6) 0.000(5)
C6 0.096(8) 0.082(7) 0.054(6) -0.013(5) 0.006(6) 0.004(6)
C7 0.101(8) 0.067(6) 0.058(7) -0.019(5) -0.007(6) 0.009(5)
C8 0.096(8) 0.066(6) 0.069(7) -0.013(5) 0.010(6) 0.005(5)
C9 0.070(6) 0.056(5) 0.069(6) -0.018(4) 0.010(5) -0.002(4)
C10 0.092(8) 0.048(5) 0.090(8) -0.008(5) 0.010(6) -0.002(5)
C11 0.093(7) 0.055(5) 0.074(7) -0.013(5) -0.004(6) 0.000(5)
C12 0.090(8) 0.082(7) 0.088(9) 0.010(6) 0.001(7) -0.001(6)
C13 0.095(8) 0.078(7) 0.088(9) -0.004(6) -0.002(7) 0.013(6)
C14 0.097(8) 0.055(5) 0.069(7) -0.015(4) -0.010(6) -0.003(5)
C15 0.097(8) 0.078(7) 0.083(8) 0.001(6) 0.002(7) 0.007(6)
C16 0.074(7) 0.101(9) 0.094(9) -0.001(7) 0.007(7) -0.010(6)
C17 0.117(10) 0.063(6) 0.082(8) -0.011(5) -0.019(8) 0.005(6)
C18 0.093(8) 0.069(6) 0.075(7) -0.010(5) -0.002(6) 0.000(5)
C19 0.131(9) 0.058(6) 0.055(6) -0.006(5) 0.015(6) 0.015(6)
C20 0.100(8) 0.061(6) 0.070(7) -0.002(5) 0.004(6) 0.015(5)
C21 0.105(8) 0.064(6) 0.065(7) -0.006(5) 0.010(6) 0.005(6)
C22 0.108(8) 0.060(6) 0.071(7) 0.003(5) 0.004(6) 0.014(5)
C23 0.100(8) 0.078(7) 0.076(7) -0.007(6) -0.016(6) 0.009(6)
C24 0.112(9) 0.082(8) 0.088(8) -0.003(6) -0.001(7) 0.023(7)
C25 0.151(11) 0.074(7) 0.062(7) 0.008(6) -0.007(7) 0.028(7)
C26 0.173(12) 0.071(7) 0.065(7) 0.002(6) 0.016(8) 0.021(7)
C27 0.101(8) 0.061(6) 0.073(7) -0.005(5) 0.002(6) -0.007(5)
C28 0.135(10) 0.066(7) 0.091(9) 0.010(6) -0.029(8) 0.001(6)
C29 0.131(10) 0.055(6) 0.093(9) 0.008(6) -0.020(8) -0.012(6)
C30 0.136(10) 0.052(6) 0.094(8) 0.001(5) -0.033(7) 0.009(6)
C31 0.149(11) 0.054(6) 0.096(9) -0.010(6) -0.012(8) 0.008(7)
C32 0.093(7) 0.062(6) 0.073(7) 0.006(5) 0.003(6) 0.012(5)
C33 0.127(10) 0.071(7) 0.080(8) -0.008(6) -0.028(7) 0.020(6)
C34 0.138(11) 0.080(8) 0.080(8) -0.018(6) -0.024(8) 0.023(7)
C35 0.163(12) 0.089(8) 0.072(8) -0.013(6) -0.011(8) 0.037(8)
C36 0.142(11) 0.086(8) 0.072(7) -0.016(6) 0.004(7) 0.040(7)
N1 0.099(6) 0.045(4) 0.064(5) -0.013(3) -0.004(5) -0.001(4)
N2 0.085(6) 0.056(4) 0.073(6) -0.012(4) 0.005(5) -0.003(4)
N3 0.074(5) 0.058(4) 0.069(5) -0.022(4) -0.011(5) 0.008(4)
N4 0.080(6) 0.067(5) 0.071(6) -0.023(4) -0.005(5) 0.008(4)
N5 0.080(6) 0.072(5) 0.069(5) -0.013(4) 0.005(5) 0.005(4)
N6 0.095(7) 0.062(5) 0.083(7) -0.012(4) -0.004(5) -0.004(4)
N7 0.124(7) 0.067(5) 0.066(5) 0.004(4) 0.010(5) 0.023(5)
N8 0.094(6) 0.063(5) 0.077(6) 0.003(4) -0.002(5) 0.010(4)
N9 0.120(7) 0.073(6) 0.067(6) 0.001(4) 0.018(5) 0.021(5)
N10 0.098(6) 0.082(6) 0.079(6) -0.005(5) 0.017(5) 0.010(5)
N11 0.106(7) 0.067(6) 0.081(6) 0.001(5) -0.006(5) 0.002(5)
N12 0.096(6) 0.062(5) 0.083(6) -0.006(4) 0.003(5) -0.004(4)
Zn2A 0.0996 0.0634 0.0775 0.0023 -0.0011 0.0076
Zn3C 0.0886 0.062 0.1002 -0.0007 0.0093 0.0078
N11A 0.106 0.067 0.081 -0.001 0.006 0.002
N12C 0.096 0.062 0.083 -0.006 -0.003 0.004
C37 0.143(9) 0.047(9) 0.156(10) -0.046(9) -0.004(8) -0.005(10)
C38 0.155(11) 0.065(10) 0.151(11) -0.050(11) -0.001(8) -0.003(10)
C39 0.166(11) 0.064(10) 0.163(11) -0.036(11) 0.003(10) -0.009(11)
C40 0.166(11) 0.069(10) 0.170(11) -0.045(10) 0.007(10) -0.033(11)
C41 0.158(11) 0.068(11) 0.182(12) -0.028(12) 0.010(9) -0.006(11)
C42 0.141(9) 0.050(9) 0.170(10) -0.037(10) 0.009(8) -0.004(10)
C43 0.135(9) 0.057(10) 0.181(11) -0.037(10) 0.006(8) 0.001(10)
C44 0.137(9) 0.077(12) 0.202(14) -0.046(13) -0.009(9) -0.008(12)
C45 0.151(13) 0.047(11) 0.213(17) -0.031(13) -0.014(10) 0.006(12)
C46 0.144(12) 0.033(9) 0.224(15) -0.014(12) -0.015(12) -0.001(11)
C47 0.151(11) 0.057(10) 0.188(12) -0.026(11) -0.029(10) -0.028(11)
C48 0.142(9) 0.039(9) 0.181(11) -0.009(10) -0.003(8) 0.007(10)
C49 0.140(9) 0.044(9) 0.165(11) -0.025(10) 0.007(8) 0.001(10)
C50 0.151(10) 0.059(11) 0.157(11) -0.041(10) 0.013(10) 0.011(11)
C51 0.151(11) 0.069(12) 0.171(13) -0.031(12) 0.025(11) 0.022(12)
C52 0.139(11) 0.058(10) 0.180(14) -0.039(11) 0.018(9) 0.015(10)
C53 0.143(9) 0.057(9) 0.155(12) -0.065(10) 0.006(9) 0.010(10)
C54 0.134(9) 0.048(9) 0.157(10) -0.042(9) 0.006(8) 0.015(9)
C55 0.191(14) 0.119(14) 0.183(13) -0.044(14) 0.027(12) -0.037(15)
O1 0.150(17) 0.25(3) 0.31(4) 0.00(3) 0.029(18) -0.033(18)
C56 0.34(3) 0.41(3) 0.23(3) 0.00(3) 0.04(3) -0.04(2)
C57 0.31(2) 0.42(3) 0.19(3) 0.01(3) 0.06(3) -0.05(3)
C58 0.28(2) 0.42(3) 0.19(2) 0.01(3) 0.07(2) -0.05(3)
C59 0.28(2) 0.42(3) 0.164(19) 0.02(2) 0.05(2) -0.04(2)
C60 0.29(2) 0.43(3) 0.132(17) 0.05(2) 0.068(19) -0.04(2)
C61 0.31(2) 0.42(3) 0.121(19) 0.03(3) 0.08(2) -0.03(2)
N13 0.42(4) 0.42(3) 0.41(4) 0.03(4) 0.02(4) -0.06(3)
O2 0.60(6) 0.45(4) 0.60(7) 0.04(6) -0.11(7) 0.03(4)
O3 0.41(4) 0.52(5) 0.52(6) 0.01(5) 0.18(4) -0.15(4)
C62 0.44(4) 0.32(4) 0.16(2) 0.05(2) -0.02(3) -0.01(4)
C63 0.46(4) 0.36(4) 0.20(3) 0.08(3) 0.00(4) 0.03(4)
C64 0.47(5) 0.39(4) 0.23(3) 0.07(3) -0.06(4) 0.07(4)
C65 0.43(5) 0.40(5) 0.24(3) 0.05(3) -0.06(4) 0.05(5)
C66 0.41(5) 0.36(4) 0.18(3) 0.04(3) -0.07(4) 0.00(4)
C67 0.43(4) 0.35(4) 0.17(3) 0.02(2) -0.05(4) -0.01(4)
N14 0.45(4) 0.27(3) 0.13(2) 0.061(18) 0.02(3) -0.09(4)
O4 0.49(5) 0.29(3) 0.14(2) 0.05(2) 0.12(3) -0.10(4)
O5 0.55(6) 0.25(3) 0.11(2) 0.07(2) -0.02(3) -0.12(3)
C68 1.07(8) 0.36(5) 0.21(3) -0.12(3) 0.01(4) 0.47(6)
C69 1.10(9) 0.42(5) 0.17(3) -0.13(3) 0.03(4) 0.41(6)
C70 1.13(9) 0.47(5) 0.18(4) -0.09(4) -0.02(5) 0.37(6)
C71 1.15(9) 0.46(6) 0.22(4) -0.06(4) -0.04(5) 0.37(6)
C72 1.14(9) 0.40(5) 0.25(4) -0.08(4) -0.04(5) 0.38(6)
C73 1.13(9) 0.33(5) 0.22(4) -0.14(3) -0.03(4) 0.43(6)
N15 1.01(8) 0.41(5) 0.23(4) -0.05(4) 0.00(4) 0.47(6)
O6 1.14(10) 0.56(6) 0.08(2) -0.10(3) 0.02(4) 0.36(7)
O7 0.88(9) 0.45(5) 0.44(6) 0.08(4) 0.00(6) 0.55(5)
loop_
_geom_bond_atom_site_label_1
_geom_bond_atom_site_label_2
_geom_bond_site_symmetry_1
_geom_bond_site_symmetry_2
Zn1 I1 1_555 1_555
Zn2 I3 1_555 1_555
Zn3 I5 1_555 1_555
I2 Zn1 1_555 1_555
I4 Zn2 1_555 1_555
I6 Zn3 1_555 1_555
C1 C4 1_555 1_555
C2 C9 1_555 1_555
C3 C14 1_555 1_555
C4 C5 1_555 1_555
C5 H1 1_555 1_555
C6 C5 1_555 1_555
H2 C6 1_555 1_555
C7 H3 1_555 1_555
C8 C4 1_555 1_555
H4 C8 1_555 1_555
C9 C10 1_555 1_555
C10 H5 1_555 1_555
C11 C10 1_555 1_555
H6 C11 1_555 1_555
C12 H7 1_555 1_555
C13 C9 1_555 1_555
H8 C13 1_555 1_555
C14 C15 1_555 1_555
C15 H9 1_555 1_555
C16 C15 1_555 1_555
H10 C16 1_555 1_555
C17 H11 1_555 1_555
C18 C14 1_555 1_555
H12 C18 1_555 1_555
C19 C22 1_555 1_555
C20 C27 1_555 1_555
C21 C32 1_555 1_555
C22 C23 1_555 1_555
C23 H13 1_555 1_555
C24 C23 1_555 1_555
H14 C24 1_555 1_555
C25 H15 1_555 1_555
C26 C22 1_555 1_555
H16 C26 1_555 1_555
C27 C28 1_555 1_555
C28 H17 1_555 1_555
C29 C28 1_555 1_555
H18 C29 1_555 1_555
C30 H19 1_555 1_555
C31 C27 1_555 1_555
H20 C31 1_555 1_555
C32 C33 1_555 1_555
C33 H21 1_555 1_555
C34 C33 1_555 1_555
H22 C34 1_555 1_555
C35 H23 1_555 1_555
C36 C32 1_555 1_555
H24 C36 1_555 1_555
N1 C1 1_555 1_555
N2 C2 1_555 1_555
N3 C1 1_555 1_555
N4 Zn1 1_555 1_555
N5 Zn2 1_555 1_555
N6 Zn3 1_555 1_555
N7 C19 1_555 1_555
N8 C20 1_555 1_555
N9 C19 1_555 1_555
N10 Zn1 1_555 1_555
N11 C29 1_555 1_555
N12 C34 1_555 1_555
C37 C38 1_555 1_555
C38 H25 1_555 1_555
C39 C38 1_555 1_555
H26 C39 1_555 1_555
C40 C39 1_555 1_555
C41 C40 1_555 1_555
H27 C41 1_555 1_555
C42 C37 1_555 1_555
C43 C42 1_555 1_555
C44 C43 1_555 1_555
H28 C44 1_555 1_555
C45 C44 1_555 1_555
H29 C45 1_555 1_555
C46 C45 1_555 1_555
H30 C46 1_555 1_555
C47 C46 1_555 1_555
H31 C47 1_555 1_555
C48 C43 1_555 1_555
C49 C48 1_555 1_555
C50 C49 1_555 1_555
H32 C50 1_555 1_555
C51 C50 1_555 1_555
H33 C51 1_555 1_555
C52 C51 1_555 1_555
H34 C52 1_555 1_555
C53 C52 1_555 1_555
H35 C53 1_555 1_555
C54 C37 1_555 1_555
C55 C40 1_555 1_555
H36 C55 1_555 1_555
O1 C55 1_555 1_555
C56 C57 1_555 1_555
C57 H37 1_555 1_555
C58 C57 1_555 1_555
H38 C58 1_555 1_555
C59 C58 1_555 1_555
H39 C59 1_555 1_555
C60 C59 1_555 1_555
H40 C60 1_555 1_555
C61 C56 1_555 1_555
H41 C61 1_555 1_555
N13 C56 1_555 1_555
O2 N13 1_555 1_555
O3 N13 1_555 1_555
C62 C63 1_555 1_555
C63 H42 1_555 1_555
C64 C63 1_555 1_555
H43 C64 1_555 1_555
C65 C64 1_555 1_555
H44 C65 1_555 1_555
C66 C65 1_555 1_555
H45 C66 1_555 1_555
C67 C62 1_555 1_555
H46 C67 1_555 1_555
N14 C62 1_555 1_555
O4 N14 1_555 1_555
O5 N14 1_555 1_555
C68 C69 1_555 1_555
C69 H47 1_555 1_555
C70 C69 1_555 1_555
H48 C70 1_555 1_555
C71 C70 1_555 1_555
H49 C71 1_555 1_555
C72 C71 1_555 1_555
H50 C72 1_555 1_555
C73 C68 1_555 1_555
H51 C73 1_555 1_555
N15 C68 1_555 1_555
O6 N15 1_555 1_555
O7 N15 1_555 1_555
Zn2A N11 1_555 1_555
Zn3C N12 1_555 1_555
N11A Zn2 1_555 1_555
N12C Zn3 1_555 1_555
C2 N1 1_555 1_555
C3 N2 1_555 1_555
C3 N3 1_555 1_555
C6 N4 1_555 1_555
C7 C8 1_555 1_555
C7 N4 1_555 1_555
C11 N5 1_555 1_555
C12 C13 1_555 1_555
C12 N5 1_555 1_555
C16 N6 1_555 1_555
C17 C18 1_555 1_555
C17 N6 1_555 1_555
C20 N7 1_555 1_555
C21 N8 1_555 1_555
C21 N9 1_555 1_555
C24 N10 1_555 1_555
C25 C26 1_555 1_555
C25 N10 1_555 1_555
C30 C31 1_555 1_555
C30 N11 1_555 1_555
C35 C36 1_555 1_555
C35 N12 1_555 1_555
C41 C42 1_555 1_555
C47 C48 1_555 1_555
C49 C54 1_555 1_555
C53 C54 1_555 1_555
C60 C61 1_555 1_555
C66 C67 1_555 1_555
C72 C73 1_555 1_555

#END
