
#######################################################################
#
#                 Cambridge Crystallographic Data Centre
#                                CCDC 
#
#######################################################################
#
# If this CIF has been generated from an entry in the Cambridge 
# Structural Database, then it will include bibliographic, chemical, 
# crystal, experimental, refinement or atomic coordinate data resulting 
# from the CCDC's data processing and validation procedures.
#
#######################################################################

data_RONZOJ
_chemical_formula_moiety         '(C20 H16 Ag2 Cd1 N6)n'
_symmetry_cell_setting           tetragonal
_symmetry_space_group_name_H-M   'I 41 2 2'
_symmetry_Int_Tables_number      98
_space_group_name_Hall           'I 4bw 2bw'
loop_
_symmetry_equiv_pos_site_id
_symmetry_equiv_pos_as_xyz
1 x,y,z
2 -y,1/2+x,1/4+z
3 x,1/2-y,1/4-z
4 1/2-x,1/2-y,1/2+z
5 1/2+y,1/2+x,1/2-z
6 1/2+y,-x,3/4+z
7 1/2-x,y,3/4-z
8 -y,-x,-z
9 1/2+x,1/2+y,1/2+z
10 1/2-y,x,3/4+z
11 1/2+x,-y,3/4-z
12 -x,-y,z
13 y,x,-z
14 y,1/2-x,1/4+z
15 -x,1/2+y,1/4-z
16 1/2-y,1/2-x,1/2-z
_cell_length_a                   12.7816(8)
_cell_length_b                   12.7816(8)
_cell_length_c                   13.062(1)
_cell_angle_alpha                90
_cell_angle_beta                 90
_cell_angle_gamma                90
_cell_volume                     2133.93
loop_
_atom_site_label
_atom_site_type_symbol
_atom_site_fract_x
_atom_site_fract_y
_atom_site_fract_z
Cd1 Cd -0.00000 0.50000 0.2500
N1 N 0.1019(4) 0.5851(4) 0.1204(3)
C1 C 0.1574(4) 0.6355(4) 0.0716(4)
N2 N 0.1267(3) 0.3733(3) 0.2500
C2 C 0.2291(4) 0.4005(5) 0.2525(5)
C3 C 0.3077(5) 0.3252(7) 0.2517(6)
C4 C 0.2796(6) 0.2204(6) 0.2500
Ag1 Ag 0.25855(4) 0.74145(4) 0.0000
C3O C 0.1748(7) 0.1923(5) 0.2483(6)
C2O C 0.0995(5) 0.2709(4) 0.2475(5)
N1D N 0.0851(4) 0.6019(4) 0.3796(3)
C1D C 0.1355(4) 0.6574(4) 0.4284(4)
N1K N -0.1019(4) 0.4149(4) 0.1204(3)
C1K C -0.1574(4) 0.3645(4) 0.0716(4)
N1O N -0.0851(4) 0.3981(4) 0.3796(3)
C1O C -0.1355(4) 0.3426(4) 0.4284(4)
N2D N -0.1267(3) 0.6267(3) 0.2500
C2D C -0.0995(5) 0.7291(4) 0.2475(5)
C3D C -0.1748(7) 0.8077(5) 0.2483(6)
C4D C -0.2796(6) 0.7796(6) 0.2500
C3K C -0.3077(5) 0.6748(7) 0.2517(6)
C2K C -0.2291(4) 0.5995(5) 0.2525(5)
Ag1D Ag 0.24145(4) 0.75855(4) 0.5000
C1G C 0.3645(4) 0.8426(4) -0.0716(4)
Ag1K Ag -0.25855(4) 0.25855(4) 0.0000
Ag1H Ag -0.24145(4) 0.24145(4) 0.5000
C1C C 0.3426(4) 0.8645(4) 0.5716(4)
C5 C -0.00000 0.50000 -0.1446(7)
C6 C 0.086(1) 0.530(2) -0.196(2)
C6D C 0.030(2) 0.586(1) -0.304(2)
C5D C -0.00000 0.50000 -0.3554(7)
C6O C -0.030(2) 0.414(1) -0.304(2)
C6K C -0.086(1) 0.470(2) -0.196(2)
loop_
_geom_bond_atom_site_label_1
_geom_bond_atom_site_label_2
_geom_bond_site_symmetry_1
_geom_bond_site_symmetry_2
Cd1 N1 1_555 1_555
N1 C1 1_555 1_555
C1 Ag1 1_555 1_555
N2 Cd1 1_555 1_555
C2 N2 1_555 1_555
C3 C2 1_555 1_555
C4 C3 1_555 1_555
Ag1 C1G 1_555 1_555
C5 C6 1_555 1_555
C6 C6D 1_555 1_555
C3O C4 1_555 1_555
C2O N2 1_555 1_555
C6D C5D 1_555 1_555
C5D C6O 1_555 1_555
C6O C6K 1_555 1_555
C6K C5 1_555 1_555
N1D Cd1 1_555 1_555
C1D N1D 1_555 1_555
N1K Cd1 1_555 1_555
C1K N1K 1_555 1_555
N1O Cd1 1_555 1_555
C1O N1O 1_555 1_555
N2D Cd1 1_555 1_555
C2D N2D 1_555 1_555
C3D C2D 1_555 1_555
C4D C3D 1_555 1_555
C3K C4D 1_555 1_555
C2K N2D 1_555 1_555
Ag1D C1D 1_555 1_555
Ag1K C1K 1_555 1_555
Ag1H C1O 1_555 1_555
C1C Ag1D 1_555 1_555
C3O C2O 1_555 1_555
C3K C2K 1_555 1_555

#END
