
#######################################################################
#
#                 Cambridge Crystallographic Data Centre
#                                CCDC 
#
#######################################################################
#
# If this CIF has been generated from an entry in the Cambridge 
# Structural Database, then it will include bibliographic, chemical, 
# crystal, experimental, refinement or atomic coordinate data resulting 
# from the CCDC's data processing and validation procedures.
#
#######################################################################

data_GUFQIJ
_chemical_formula_moiety         '(C72 H64 Co3 N4 O14)n'
_symmetry_cell_setting           monoclinic
_symmetry_space_group_name_H-M   'C 2/c'
_symmetry_Int_Tables_number      15
_space_group_name_Hall           '-C 2yc'
loop_
_symmetry_equiv_pos_site_id
_symmetry_equiv_pos_as_xyz
1 x,y,z
2 -x,y,1/2-z
3 1/2+x,1/2+y,z
4 1/2-x,1/2+y,1/2-z
5 -x,-y,-z
6 x,-y,1/2+z
7 1/2-x,1/2-y,-z
8 1/2+x,1/2-y,1/2+z
_cell_length_a                   26.758(9)
_cell_length_b                   10.635(4)
_cell_length_c                   29.565(8)
_cell_angle_alpha                90
_cell_angle_beta                 116.906(11)
_cell_angle_gamma                90
_cell_volume                     7502.61
loop_
_atom_site_label
_atom_site_type_symbol
_atom_site_fract_x
_atom_site_fract_y
_atom_site_fract_z
_atom_site_U_iso_or_equiv
_atom_site_thermal_displace_type
C1 C 0.4654(3) 0.4772(7) 0.0851(3) 0.0457 Uani
C2 C 0.4558(3) 0.5558(7) 0.1230(3) 0.0458 Uani
C3 C 0.4622(3) 0.6844(7) 0.1226(3) 0.0520 Uani
H1 H 0.4745 0.7211 0.1009 0.0630 Uiso
C4 C 0.4391(3) 0.5013(8) 0.1560(3) 0.0648 Uani
H2 H 0.4357 0.4144 0.1570 0.0780 Uiso
C5 C 0.4272(3) 0.5795(9) 0.1884(3) 0.0719 Uani
H3 H 0.4153 0.5436 0.2106 0.0860 Uiso
C6 C 0.4503(3) 0.7570(7) 0.1546(3) 0.0576 Uani
H4 H 0.4542 0.8437 0.1536 0.0690 Uiso
C7 C 0.4328(3) 0.7087(8) 0.1878(3) 0.0542 Uani
C8 C 0.4168(3) 0.7891(7) 0.2211(2) 0.0579 Uani
H5 H 0.4370 0.7601 0.2559 0.0700 Uiso
H6 H 0.4281 0.8752 0.2199 0.0700 Uiso
C9 C 0.3443(3) 0.8710(7) 0.2381(2) 0.0579 Uani
H7 H 0.3040 0.8753 0.2254 0.0700 Uiso
H8 H 0.3574 0.9546 0.2357 0.0700 Uiso
C10 C 0.3704(3) 0.8327(7) 0.2931(3) 0.0493 Uani
C11 C 0.3928(3) 0.9227(6) 0.3304(3) 0.0508 Uani
H9 H 0.3935 1.0066 0.3217 0.0610 Uiso
C12 C 0.3685(3) 0.7113(8) 0.3063(3) 0.0670 Uani
H10 H 0.3522 0.6508 0.2811 0.0800 Uiso
C13 C 0.3904(3) 0.6762(6) 0.3568(3) 0.0566 Uani
H11 H 0.3899 0.5923 0.3654 0.0680 Uiso
C14 C 0.4141(3) 0.8882(7) 0.3798(3) 0.0527 Uani
H12 H 0.4300 0.9498 0.4046 0.0640 Uiso
C15 C 0.4132(3) 0.7674(6) 0.3947(2) 0.0411 Uani
C16 C 0.4371(3) 0.7305(8) 0.4487(3) 0.0476 Uani
C17 C 0.3241(2) 0.8247(7) 0.1531(2) 0.0609 Uani
H13 H 0.3355 0.7745 0.1320 0.0730 Uiso
H14 H 0.3327 0.9118 0.1498 0.0730 Uiso
C18 C 0.2617(3) 0.8117(8) 0.1338(2) 0.0497 Uani
C19 C 0.2260(3) 0.9053(7) 0.1064(3) 0.0613 Uani
H15 H 0.2406 0.9789 0.1001 0.0730 Uiso
C20 C 0.1683(3) 0.8932(7) 0.0877(3) 0.0630 Uani
H16 H 0.1448 0.9579 0.0686 0.0750 Uiso
C21 C 0.2386(3) 0.7059(8) 0.1423(3) 0.0684 Uani
H17 H 0.2620 0.6402 0.1603 0.0820 Uiso
C22 C 0.1813(3) 0.6925(7) 0.1249(3) 0.0652 Uani
H18 H 0.1669 0.6197 0.1321 0.0780 Uiso
C23 C 0.1459(3) 0.7868(6) 0.0972(2) 0.0378 Uani
C24 C 0.0842(3) 0.7740(7) 0.0779(2) 0.0421 Uani
C25 C 0.3947(3) 0.1035(7) 0.0726(3) 0.0614 Uani
H19 H 0.3970 0.1759 0.0911 0.0740 Uiso
C26 C 0.3508(3) 0.0259(7) 0.0616(3) 0.0630 Uani
H20 H 0.3242 0.0457 0.0726 0.0750 Uiso
C27 C 0.4307(3) -0.0235(7) 0.0347(3) 0.0588 Uani
H21 H 0.4588 -0.0428 0.0256 0.0700 Uiso
C28 C 0.3871(3) -0.1107(7) 0.0217(2) 0.0581 Uani
H22 H 0.3867 -0.1853 0.0051 0.0700 Uiso
C29 C 0.3451(3) -0.0815(7) 0.0343(3) 0.0517 Uani
C30 C 0.2960(3) -0.1691(7) 0.0176(3) 0.0516 Uani
C31 C 0.2422(3) -0.1265(7) -0.0031(3) 0.0683 Uani
C32 C 0.3036(3) -0.2942(7) 0.0202(3) 0.0658 Uani
H23 H 0.3396 -0.3274 0.0336 0.0790 Uiso
C33 C 0.1879 0.0568 -0.0453 0.2676 Uani
H24 H 0.1725 0.1235 -0.0330 0.3210 Uiso
H25 H 0.1590 -0.0059 -0.0620 0.3210 Uiso
C34 C 0.2086 0.1100 -0.0823 0.3268 Uani
H26 H 0.1988 0.0446 -0.1078 0.3920 Uiso
H27 H 0.1826 0.1782 -0.0990 0.3920 Uiso
C35 C 0.2637 0.1596 -0.0778 0.3351 Uani
H28 H 0.2902 0.0905 -0.0659 0.4020 Uiso
H29 H 0.2769 0.2221 -0.0510 0.4020 Uiso
C36 C 0.2685 0.2183 -0.1230 0.4495 Uani
H30 H 0.3065 0.2440 -0.1127 0.5400 Uiso
H31 H 0.2443 0.2902 -0.1348 0.5400 Uiso
H32 H 0.2577 0.1577 -0.1498 0.5400 Uiso
O1 O 0.2353 0.0016 -0.0042 0.1351 Uani
Co1 Co 0.48354(4) 0.22742(8) 0.05279(3) 0.0406 Uani
Co2 Co 0.5000 0.5000 0.0000 0.0347 Uani
N1 N 0.4352(2) 0.0832(5) 0.0587(2) 0.0483 Uani
N2 N 0.3568(2) 0.7862(5) 0.20585(19) 0.0530 Uani
O2 O 0.46339(18) 0.3587(4) 0.08874(16) 0.0519 Uani
O3 O 0.47245(18) 0.5360(4) 0.05179(16) 0.0508 Uani
O4 O 0.43404(17) 0.6189(5) 0.46028(17) 0.0572 Uani
O5 O 0.4590(2) 0.8158(4) 0.48122(16) 0.0618 Uani
O6 O 0.06411(17) 0.6835(4) 0.09217(16) 0.0500 Uani
O7 O 0.05150(17) 0.8528(4) 0.04751(16) 0.0552 Uani
C25F C 0.1053(3) -0.6035(7) -0.0726(3) 0.0614 Uani
H19F H 0.1030 -0.6759 -0.0911 0.0740 Uiso
C26F C 0.1492(3) -0.5259(7) -0.0616(3) 0.0630 Uani
H20F H 0.1758 -0.5457 -0.0726 0.0750 Uiso
C27F C 0.0693(3) -0.4765(7) -0.0347(3) 0.0588 Uani
H21F H 0.0412 -0.4572 -0.0256 0.0700 Uiso
C28F C 0.1129(3) -0.3893(7) -0.0217(2) 0.0581 Uani
H22F H 0.1133 -0.3147 -0.0051 0.0700 Uiso
C29F C 0.1549(3) -0.4185(7) -0.0343(3) 0.0517 Uani
C30F C 0.2040(3) -0.3309(7) -0.0176(3) 0.0516 Uani
C31F C 0.2578(3) -0.3735(7) 0.0031(3) 0.0683 Uani
C32F C 0.1964(3) -0.2058(7) -0.0202(3) 0.0658 Uani
H23F H 0.1604 -0.1726 -0.0336 0.0790 Uiso
C33F C 0.3121 -0.5568 0.0453 0.2676 Uani
H24F H 0.3275 -0.6235 0.0330 0.3210 Uiso
H25F H 0.3410 -0.4941 0.0620 0.3210 Uiso
C34F C 0.2914 -0.6100 0.0823 0.3268 Uani
H26F H 0.3012 -0.5446 0.1078 0.3920 Uiso
H27F H 0.3174 -0.6782 0.0990 0.3920 Uiso
C35F C 0.2363 -0.6596 0.0778 0.3351 Uani
H28F H 0.2098 -0.5905 0.0659 0.4020 Uiso
H29F H 0.2231 -0.7221 0.0510 0.4020 Uiso
C36F C 0.2315 -0.7183 0.1230 0.4495 Uani
H30F H 0.1935 -0.7440 0.1127 0.5400 Uiso
H31F H 0.2557 -0.7902 0.1348 0.5400 Uiso
H32F H 0.2423 -0.6577 0.1498 0.5400 Uiso
O1F O 0.2647 -0.5016 0.0042 0.1351 Uani
N1F N 0.0648(2) -0.5832(5) -0.0587(2) 0.0483 Uani
C1A C 0.5346(3) 0.4772(7) 0.4149(3) 0.0457 Uani
C2A C 0.5442(3) 0.5558(7) 0.3770(3) 0.0458 Uani
C3A C 0.5378(3) 0.6844(7) 0.3774(3) 0.0520 Uani
H1A H 0.5255 0.7211 0.3991 0.0630 Uiso
C4A C 0.5609(3) 0.5013(8) 0.3440(3) 0.0648 Uani
H2A H 0.5643 0.4144 0.3430 0.0780 Uiso
C5A C 0.5728(3) 0.5795(9) 0.3116(3) 0.0719 Uani
H3A H 0.5847 0.5436 0.2894 0.0860 Uiso
C6A C 0.5497(3) 0.7570(7) 0.3454(3) 0.0576 Uani
H4A H 0.5458 0.8437 0.3464 0.0690 Uiso
C7A C 0.5672(3) 0.7087(8) 0.3122(3) 0.0542 Uani
C8A C 0.5832(3) 0.7891(7) 0.2789(2) 0.0579 Uani
H5A H 0.5630 0.7601 0.2441 0.0700 Uiso
H6A H 0.5719 0.8752 0.2801 0.0700 Uiso
C9A C 0.6557(3) 0.8710(7) 0.2619(2) 0.0579 Uani
H7A H 0.6960 0.8753 0.2746 0.0700 Uiso
H8A H 0.6426 0.9546 0.2643 0.0700 Uiso
C10A C 0.6296(3) 0.8327(7) 0.2069(3) 0.0493 Uani
C11A C 0.6072(3) 0.9227(6) 0.1696(3) 0.0508 Uani
H9A H 0.6065 1.0066 0.1783 0.0610 Uiso
C12A C 0.6315(3) 0.7113(8) 0.1937(3) 0.0670 Uani
H10A H 0.6478 0.6508 0.2189 0.0800 Uiso
C13A C 0.6096(3) 0.6762(6) 0.1432(3) 0.0566 Uani
H11A H 0.6101 0.5923 0.1346 0.0680 Uiso
C14A C 0.5859(3) 0.8882(7) 0.1202(3) 0.0527 Uani
H12A H 0.5700 0.9498 0.0954 0.0640 Uiso
C15A C 0.5868(3) 0.7674(6) 0.1053(2) 0.0411 Uani
C16A C 0.5629(3) 0.7305(8) 0.0513(3) 0.0476 Uani
C17A C 0.6759(2) 0.8247(7) 0.3469(2) 0.0609 Uani
H13A H 0.6645 0.7745 0.3680 0.0730 Uiso
H14A H 0.6673 0.9118 0.3502 0.0730 Uiso
C18A C 0.7383(3) 0.8117(8) 0.3662(2) 0.0497 Uani
C19A C 0.7740(3) 0.9053(7) 0.3936(3) 0.0613 Uani
H15A H 0.7594 0.9789 0.3999 0.0730 Uiso
C20A C 0.8317(3) 0.8932(7) 0.4123(3) 0.0630 Uani
H16A H 0.8552 0.9579 0.4314 0.0750 Uiso
C21A C 0.7614(3) 0.7059(8) 0.3577(3) 0.0684 Uani
H17A H 0.7380 0.6402 0.3397 0.0820 Uiso
C22A C 0.8187(3) 0.6925(7) 0.3751(3) 0.0652 Uani
H18A H 0.8331 0.6197 0.3679 0.0780 Uiso
C23A C 0.8541(3) 0.7868(6) 0.4028(2) 0.0378 Uani
C24A C 0.9158(3) 0.7740(7) 0.4221(2) 0.0421 Uani
Co1A Co 0.51646(4) 0.22742(8) 0.44721(3) 0.0406 Uani
N2A N 0.6432(2) 0.7862(5) 0.29415(19) 0.0530 Uani
O2A O 0.53661(18) 0.3587(4) 0.41126(16) 0.0519 Uani
O3A O 0.52755(18) 0.5360(4) 0.44821(16) 0.0508 Uani
O4A O 0.56596(17) 0.6189(5) 0.03972(17) 0.0572 Uani
O5A O 0.5410(2) 0.8158(4) 0.01878(16) 0.0618 Uani
O6A O 0.93589(17) 0.6835(4) 0.40783(16) 0.0500 Uani
O7A O 0.94850(17) 0.8528(4) 0.45249(16) 0.0552 Uani
Co1B Co -0.01646(4) 0.72742(8) 0.05279(3) 0.0406 Uani
Co1C Co 1.01646(4) 0.72742(8) 0.44721(3) 0.0406 Uani
Co1D Co 0.51646(4) 0.77258(8) -0.05279(3) 0.0406 Uani
Co1E Co 0.48354(4) 0.77258(8) 0.55279(3) 0.0406 Uani
Co1F Co 0.01646(4) -0.72742(8) -0.05279(3) 0.0406 Uani
Co2A Co 0.5000 0.5000 0.5000 0.0347 Uani
Co2B Co -0.0000 1.0000 0.0000 0.0347 Uani
Co2C Co 1.0000 1.0000 0.5000 0.0347 Uani
N1A N 0.5648(2) 0.0832(5) 0.4413(2) 0.0483 Uani
O3D O 0.52755(18) 0.4640(4) -0.05179(16) 0.0508 Uani
O4E O 0.43404(17) 0.3811(5) -0.03972(17) 0.0572 Uani
O5D O 0.5410(2) 0.1842(4) 0.51878(16) 0.0618 Uani
O5E O 0.4590(2) 0.1842(4) -0.01878(16) 0.0618 Uani
O6B O 0.56411(17) 0.1835(4) 0.09217(16) 0.0500 Uani
O6C O 0.43589(17) 0.1835(4) 0.40783(16) 0.0500 Uani
O7B O 0.55150(17) 0.3528(4) 0.04751(16) 0.0552 Uani
O7C O 0.44850(17) 0.3528(4) 0.45249(16) 0.0552 Uani
O7F O 0.44850(17) 0.6472(4) -0.04751(16) 0.0552 Uani
loop_
_atom_site_aniso_label
_atom_site_aniso_U_11
_atom_site_aniso_U_22
_atom_site_aniso_U_33
_atom_site_aniso_U_23
_atom_site_aniso_U_13
_atom_site_aniso_U_12
C1 0.036(4) 0.058(6) 0.045(5) -0.010(4) 0.020(4) -0.007(4)
C2 0.050(4) 0.049(5) 0.051(5) -0.003(4) 0.034(4) -0.002(4)
C3 0.058(5) 0.059(5) 0.058(5) -0.014(4) 0.043(4) -0.011(4)
C4 0.087(6) 0.059(5) 0.064(5) -0.007(4) 0.048(4) -0.003(5)
C5 0.077(6) 0.094(7) 0.065(5) -0.010(5) 0.050(4) -0.004(5)
C6 0.052(5) 0.052(5) 0.074(6) -0.015(4) 0.033(4) -0.005(4)
C7 0.039(4) 0.070(6) 0.051(5) -0.014(4) 0.018(3) -0.006(4)
C8 0.039(4) 0.087(6) 0.048(5) -0.017(4) 0.020(4) 0.000(4)
C9 0.057(5) 0.074(6) 0.045(5) -0.010(4) 0.025(4) 0.010(4)
C10 0.051(4) 0.059(5) 0.036(4) 0.000(4) 0.018(3) 0.004(4)
C11 0.071(5) 0.043(5) 0.035(4) 0.000(4) 0.021(4) 0.000(4)
C12 0.081(5) 0.061(6) 0.052(5) -0.016(4) 0.024(4) -0.003(5)
C13 0.069(5) 0.036(5) 0.060(5) -0.011(4) 0.025(4) 0.001(4)
C14 0.072(5) 0.038(5) 0.037(4) -0.013(4) 0.015(4) -0.005(4)
C15 0.055(4) 0.031(4) 0.042(4) -0.006(4) 0.026(3) 0.008(4)
C16 0.049(5) 0.056(5) 0.050(5) 0.002(5) 0.033(4) 0.021(4)
C17 0.036(4) 0.107(7) 0.036(5) -0.017(4) 0.013(3) -0.004(4)
C18 0.039(4) 0.076(6) 0.030(4) 0.000(4) 0.012(3) -0.004(4)
C19 0.045(5) 0.052(5) 0.079(6) 0.008(4) 0.021(4) -0.008(4)
C20 0.036(4) 0.050(5) 0.088(6) 0.012(4) 0.015(4) 0.002(4)
C21 0.046(5) 0.074(6) 0.071(5) 0.024(4) 0.014(4) 0.016(5)
C22 0.042(5) 0.053(5) 0.085(6) 0.025(4) 0.015(4) -0.004(4)
C23 0.030(4) 0.031(4) 0.049(4) 0.002(3) 0.015(3) 0.001(3)
C24 0.041(4) 0.032(4) 0.052(5) -0.007(4) 0.020(4) 0.002(4)
C25 0.062(5) 0.062(6) 0.076(6) -0.031(4) 0.045(4) -0.024(5)
C26 0.059(5) 0.063(6) 0.082(6) -0.026(4) 0.045(4) -0.022(4)
C27 0.060(5) 0.068(6) 0.067(5) -0.008(4) 0.045(4) -0.011(4)
C28 0.066(5) 0.055(5) 0.057(5) -0.019(4) 0.031(4) -0.031(4)
C29 0.044(5) 0.057(5) 0.053(5) -0.004(4) 0.021(4) -0.020(4)
C30 0.042(4) 0.055(5) 0.060(5) -0.009(4) 0.025(4) -0.014(4)
C31 0.064(6) 0.045(5) 0.084(6) -0.006(4) 0.023(5) -0.015(5)
C32 0.042(5) 0.052(6) 0.079(6) -0.005(4) 0.006(4) -0.011(4)
C33 0.250 0.220 0.275 0.026 0.068 -0.022
C34 0.315 0.345 0.317 0.005 0.140 -0.017
C35 0.335 0.367 0.320 0.031 0.163 -0.001
C36 0.446 0.449 0.453 0.017 0.203 0.005
O1 0.073 0.084 0.197 0.013 0.016 -0.020
Co1 0.0403(5) 0.0398(6) 0.0413(6) 0.0007(5) 0.0180(4) -0.0029(5)
Co2 0.0390(8) 0.0258(8) 0.0395(8) 0.0018(6) 0.0180(6) -0.0025(6)
N1 0.050(4) 0.041(4) 0.058(4) -0.011(3) 0.028(3) -0.012(3)
N2 0.039(4) 0.084(5) 0.037(4) -0.017(3) 0.018(3) 0.006(3)
O2 0.068(3) 0.035(3) 0.065(3) -0.002(3) 0.041(3) -0.009(3)
O3 0.070(4) 0.048(3) 0.052(3) 0.001(3) 0.043(3) 0.001(3)
O4 0.049(3) 0.043(3) 0.075(4) 0.021(3) 0.024(3) 0.007(3)
O5 0.098(4) 0.038(3) 0.041(3) 0.006(2) 0.024(3) 0.023(3)
O6 0.044(3) 0.042(3) 0.061(3) 0.016(2) 0.021(2) -0.003(2)
O7 0.039(3) 0.048(3) 0.069(4) 0.017(3) 0.016(2) 0.011(2)
C25F 0.062 0.062 0.076 -0.031 0.045 -0.024
C26F 0.059 0.063 0.082 -0.026 0.045 -0.022
C27F 0.06 0.068 0.067 -0.008 0.045 -0.011
C28F 0.066 0.055 0.057 -0.019 0.031 -0.031
C29F 0.044 0.057 0.053 -0.004 0.021 -0.02
C30F 0.042 0.055 0.06 -0.009 0.025 -0.014
C31F 0.064 0.045 0.084 -0.006 0.023 -0.015
C32F 0.042 0.052 0.079 -0.005 0.006 -0.011
C33F 0.25 0.22 0.275 0.026 0.068 -0.022
C34F 0.315 0.345 0.317 0.005 0.14 -0.017
C35F 0.335 0.367 0.32 0.031 0.163 -0.001
C36F 0.446 0.449 0.453 0.017 0.203 0.005
O1F 0.073 0.084 0.197 0.013 0.016 -0.02
N1F 0.05 0.041 0.058 -0.011 0.028 -0.012
C1A 0.036 0.058 0.045 0.01 0.02 0.007
C2A 0.05 0.049 0.051 0.003 0.034 0.002
C3A 0.058 0.059 0.058 0.014 0.043 0.011
C4A 0.087 0.059 0.064 0.007 0.048 0.003
C5A 0.077 0.094 0.065 0.01 0.05 0.004
C6A 0.052 0.052 0.074 0.015 0.033 0.005
C7A 0.039 0.07 0.051 0.014 0.018 0.006
C8A 0.039 0.087 0.048 0.017 0.02 0
C9A 0.057 0.074 0.045 0.01 0.025 -0.01
C10A 0.051 0.059 0.036 0 0.018 -0.004
C11A 0.071 0.043 0.035 0 0.021 0
C12A 0.081 0.061 0.052 0.016 0.024 0.003
C13A 0.069 0.036 0.06 0.011 0.025 -0.001
C14A 0.072 0.038 0.037 0.013 0.015 0.005
C15A 0.055 0.031 0.042 0.006 0.026 -0.008
C16A 0.049 0.056 0.05 -0.002 0.033 -0.021
C17A 0.036 0.107 0.036 0.017 0.013 0.004
C18A 0.039 0.076 0.03 0 0.012 0.004
C19A 0.045 0.052 0.079 -0.008 0.021 0.008
C20A 0.036 0.05 0.088 -0.012 0.015 -0.002
C21A 0.046 0.074 0.071 -0.024 0.014 -0.016
C22A 0.042 0.053 0.085 -0.025 0.015 0.004
C23A 0.03 0.031 0.049 -0.002 0.015 -0.001
C24A 0.041 0.032 0.052 0.007 0.02 -0.002
Co1A 0.0403 0.0398 0.0413 -0.0007 0.018 0.0029
N2A 0.039 0.084 0.037 0.017 0.018 -0.006
O2A 0.068 0.035 0.065 0.002 0.041 0.009
O3A 0.07 0.048 0.052 -0.001 0.043 -0.001
O4A 0.049 0.043 0.075 -0.021 0.024 -0.007
O5A 0.098 0.038 0.041 -0.006 0.024 -0.023
O6A 0.044 0.042 0.061 -0.016 0.021 0.003
O7A 0.039 0.048 0.069 -0.017 0.016 -0.011
Co1B 0.0403 0.0398 0.0413 0.0007 0.018 -0.0029
Co1C 0.0403 0.0398 0.0413 -0.0007 0.018 0.0029
Co1D 0.0403 0.0398 0.0413 0.0007 0.018 -0.0029
Co1E 0.0403 0.0398 0.0413 -0.0007 0.018 0.0029
Co1F 0.0403 0.0398 0.0413 0.0007 0.018 -0.0029
Co2A 0.039 0.0258 0.0395 -0.0018 0.018 0.0025
Co2B 0.039 0.0258 0.0395 0.0018 0.018 -0.0025
Co2C 0.039 0.0258 0.0395 -0.0018 0.018 0.0025
N1A 0.05 0.041 0.058 0.011 0.028 0.012
O3D 0.07 0.048 0.052 0.001 0.043 0.001
O4E 0.049 0.043 0.075 -0.021 0.024 -0.007
O5D 0.098 0.038 0.041 0.006 0.024 0.023
O5E 0.098 0.038 0.041 -0.006 0.024 -0.023
O6B 0.044 0.042 0.061 0.016 0.021 -0.003
O6C 0.044 0.042 0.061 -0.016 0.021 0.003
O7B 0.039 0.048 0.069 0.017 0.016 0.011
O7C 0.039 0.048 0.069 -0.017 0.016 -0.011
O7F 0.039 0.048 0.069 0.017 0.016 0.011
loop_
_geom_bond_atom_site_label_1
_geom_bond_atom_site_label_2
_geom_bond_site_symmetry_1
_geom_bond_site_symmetry_2
C1 C2 1_555 1_555
C2 C3 1_555 1_555
C3 H1 1_555 1_555
C4 C2 1_555 1_555
H2 C4 1_555 1_555
C5 C4 1_555 1_555
H3 C5 1_555 1_555
C6 C3 1_555 1_555
H4 C6 1_555 1_555
C7 C5 1_555 1_555
C8 C7 1_555 1_555
H5 C8 1_555 1_555
H6 C8 1_555 1_555
C9 H7 1_555 1_555
H8 C9 1_555 1_555
C10 C9 1_555 1_555
C11 C10 1_555 1_555
H9 C11 1_555 1_555
C12 C10 1_555 1_555
H10 C12 1_555 1_555
C13 C12 1_555 1_555
H11 C13 1_555 1_555
C14 C11 1_555 1_555
H12 C14 1_555 1_555
C15 C13 1_555 1_555
C16 C15 1_555 1_555
C17 H13 1_555 1_555
H14 C17 1_555 1_555
C18 C17 1_555 1_555
C19 C18 1_555 1_555
H15 C19 1_555 1_555
C20 C19 1_555 1_555
H16 C20 1_555 1_555
C21 C18 1_555 1_555
H17 C21 1_555 1_555
C22 C21 1_555 1_555
H18 C22 1_555 1_555
C23 C20 1_555 1_555
C24 C23 1_555 1_555
C25 H19 1_555 1_555
C26 C25 1_555 1_555
H20 C26 1_555 1_555
C27 H21 1_555 1_555
C28 C27 1_555 1_555
H22 C28 1_555 1_555
C29 C26 1_555 1_555
C30 C29 1_555 1_555
C31 C30 1_555 1_555
C32 C30 1_555 1_555
H23 C32 1_555 1_555
C33 H24 1_555 1_555
H25 C33 1_555 1_555
C34 C33 1_555 1_555
H26 C34 1_555 1_555
H27 C34 1_555 1_555
C35 C34 1_555 1_555
H28 C35 1_555 1_555
H29 C35 1_555 1_555
C36 C35 1_555 1_555
H30 C36 1_555 1_555
H31 C36 1_555 1_555
H32 C36 1_555 1_555
O1 C31 1_555 1_555
Co1 N1 1_555 1_555
Co2 O3 1_555 1_555
N1 C25 1_555 1_555
N2 C8 1_555 1_555
O2 C1 1_555 1_555
O3 C1 1_555 1_555
O4 C16 1_555 1_555
O5 C16 1_555 1_555
O6 C24 1_555 1_555
O7 C24 1_555 1_555
C25F H19F 1_555 1_555
C26F C25F 1_555 1_555
H20F C26F 1_555 1_555
C27F H21F 1_555 1_555
C28F C27F 1_555 1_555
H22F C28F 1_555 1_555
C29F C26F 1_555 1_555
C30F C29F 1_555 1_555
C31F C32 1_555 1_555
C32F C31 1_555 1_555
H23F C32F 1_555 1_555
C33F H24F 1_555 1_555
H25F C33F 1_555 1_555
C34F C33F 1_555 1_555
H26F C34F 1_555 1_555
H27F C34F 1_555 1_555
C35F C34F 1_555 1_555
H28F C35F 1_555 1_555
H29F C35F 1_555 1_555
C36F C35F 1_555 1_555
H30F C36F 1_555 1_555
H31F C36F 1_555 1_555
H32F C36F 1_555 1_555
O1F C31F 1_555 1_555
N1F C25F 1_555 1_555
C1A C2A 1_555 1_555
C2A C3A 1_555 1_555
C3A H1A 1_555 1_555
C4A C2A 1_555 1_555
H2A C4A 1_555 1_555
C5A C4A 1_555 1_555
H3A C5A 1_555 1_555
C6A C3A 1_555 1_555
H4A C6A 1_555 1_555
C7A C5A 1_555 1_555
C8A C7A 1_555 1_555
H5A C8A 1_555 1_555
H6A C8A 1_555 1_555
C9A H7A 1_555 1_555
H8A C9A 1_555 1_555
C10A C9A 1_555 1_555
C11A C10A 1_555 1_555
H9A C11A 1_555 1_555
C12A C10A 1_555 1_555
H10A C12A 1_555 1_555
C13A C12A 1_555 1_555
H11A C13A 1_555 1_555
C14A C11A 1_555 1_555
H12A C14A 1_555 1_555
C15A C13A 1_555 1_555
C16A C15A 1_555 1_555
C17A H13A 1_555 1_555
H14A C17A 1_555 1_555
C18A C17A 1_555 1_555
C19A C18A 1_555 1_555
H15A C19A 1_555 1_555
C20A C19A 1_555 1_555
H16A C20A 1_555 1_555
C21A C18A 1_555 1_555
H17A C21A 1_555 1_555
C22A C21A 1_555 1_555
H18A C22A 1_555 1_555
C23A C20A 1_555 1_555
C24A C23A 1_555 1_555
Co1A O2A 1_555 1_555
N2A C8A 1_555 1_555
O2A C1A 1_555 1_555
O3A C1A 1_555 1_555
O4A Co2 1_555 1_555
O5A C16A 1_555 1_555
O6A C24A 1_555 1_555
O7A C24A 1_555 1_555
Co1B O6 1_555 1_555
Co1C O6A 1_555 1_555
Co1D O5A 1_555 1_555
Co1E O5 1_555 1_555
Co1F N1F 1_555 1_555
Co2A O4 1_555 1_555
Co2B O7 1_555 1_555
Co2C O7A 1_555 1_555
N1A Co1A 1_555 1_555
O3D Co2 1_555 1_555
O4E Co2 1_555 1_555
O5D Co1A 1_555 1_555
O5E Co1 1_555 1_555
O6B Co1 1_555 1_555
O6C Co1A 1_555 1_555
O7B Co1 1_555 1_555
O7C Co1A 1_555 1_555
O7F Co2 1_555 1_555
C6 C7 1_555 1_555
C9 N2 1_555 1_555
C14 C15 1_555 1_555
C17 N2 1_555 1_555
C22 C23 1_555 1_555
C27 N1 1_555 1_555
C28 C29 1_555 1_555
C33 O1 1_555 1_555
Co1 O2 1_555 1_555
Co2 O7B 1_555 1_555
O7 Co1B 1_555 1_555
C27F N1F 1_555 1_555
C28F C29F 1_555 1_555
C30F C31F 1_555 1_555
C30F C32F 1_555 1_555
C33F O1F 1_555 1_555
C6A C7A 1_555 1_555
C9A N2A 1_555 1_555
C14A C15A 1_555 1_555
C16A O4A 1_555 1_555
C17A N2A 1_555 1_555
C22A C23A 1_555 1_555
O3A Co2A 1_555 1_555
O7A Co1C 1_555 1_555
Co1D O7F 1_555 1_555
Co2A O7C 1_555 1_555

#END
