
#######################################################################
#
#                 Cambridge Crystallographic Data Centre
#                                CCDC 
#
#######################################################################
#
# If this CIF has been generated from an entry in the Cambridge 
# Structural Database, then it will include bibliographic, chemical, 
# crystal, experimental, refinement or atomic coordinate data resulting 
# from the CCDC's data processing and validation procedures.
#
#######################################################################

data_TUVDIX
_chemical_formula_moiety         '(C42 H34 Mn3 N6 O32 Pr2)n'
_symmetry_cell_setting           hexagonal
_symmetry_space_group_name_H-M   'P 6/m c c'
_symmetry_Int_Tables_number      192
_space_group_name_Hall           '-P 6 2c'
loop_
_symmetry_equiv_pos_site_id
_symmetry_equiv_pos_as_xyz
1 x,y,z
2 -y,x-y,z
3 -x+y,-x,z
4 y,-x+y,z
5 x-y,x,z
6 y,x,1/2-z
7 -x+y,y,1/2-z
8 x,x-y,1/2-z
9 x,y,-z
10 -x+y,y,1/2+z
11 x,x-y,1/2+z
12 y,x,1/2+z
13 -x,-y,-z
14 y,-x+y,-z
15 x-y,x,-z
16 -y,x-y,-z
17 -x+y,-x,-z
18 -y,-x,1/2+z
19 x-y,-y,1/2+z
20 -x,-x+y,1/2+z
21 -x,-y,z
22 x-y,-y,1/2-z
23 -x,-x+y,1/2-z
24 -y,-x,1/2-z
_cell_length_a                   15.512(2)
_cell_length_b                   15.512(2)
_cell_length_c                   15.645(3)
_cell_angle_alpha                90
_cell_angle_beta                 90
_cell_angle_gamma                120
_cell_volume                     3260.18
loop_
_atom_site_label
_atom_site_type_symbol
_atom_site_fract_x
_atom_site_fract_y
_atom_site_fract_z
Pr1 Pr 0.6667 0.3333 0.2500
Mn1 Mn 0.5000 0.0000 0.0000
O1 O 0.6168(3) 0.0609(3) 0.0951(3)
O2 O 0.6161(3) 0.1968(3) 0.1427(2)
O3 O 0.4924(4) 0.1419(4) 0.0000
C1 C 0.7367(4) 0.1603(4) 0.1966(4)
N1 N 0.7628(2) 0.2372(4) 0.2500
C2 C 0.6488(4) 0.1363(4) 0.1394(4)
C3 C 0.7867(5) 0.1071(4) 0.1956(5)
H1 H 0.7672 0.0535 0.1586
C4 C 0.8650(3) 0.1349(6) 0.2500
H2 H 0.8996 0.1003 0.2500
C1W C 0.8397(4) 0.2633(4) 0.3034(4)
C2W C 0.8637(4) 0.3512(4) 0.3606(4)
O1W O 0.9391(3) 0.3832(3) 0.4049(3)
O2W O 0.8032(3) 0.3839(3) 0.3573(2)
C3W C 0.8929(4) 0.2133(5) 0.3044(5)
H1W H 0.9465 0.2328 0.3414
O1A O 0.9391(3) 0.5559(4) 0.0951(3)
O2A O 0.8032(3) 0.4193(4) 0.1427(2)
C1A C 0.8397(4) 0.5764(6) 0.1966(4)
N1A N 0.7628(4) 0.5256(4) 0.2500
C2A C 0.8637(4) 0.5125(6) 0.1394(4)
C3A C 0.8929(4) 0.6796(6) 0.1956(5)
H1A H 0.9465 0.7137 0.1586
C4A C 0.8651(6) 0.7301(7) 0.2500
H2A H 0.8997 0.7993 0.2500
C1G C 0.7367(4) 0.5764(6) 0.3034(4)
C2G C 0.6488(4) 0.5125(6) 0.3606(4)
O1G O 0.6168(3) 0.5559(4) 0.4049(3)
O2G O 0.6161(3) 0.4193(4) 0.3573(2)
C3G C 0.7867(5) 0.6796(6) 0.3044(5)
H1G H 0.7672 0.7137 0.3414
O1B O 0.4441(4) 0.3832(3) 0.0951(3)
O2B O 0.5807(4) 0.3839(3) 0.1427(2)
C1B C 0.4236(6) 0.2633(4) 0.1966(4)
N1B N 0.4744(4) 0.2372(2) 0.2500
C2B C 0.4875(6) 0.3512(4) 0.1394(4)
C3B C 0.3204(6) 0.2133(5) 0.1956(5)
H1B H 0.2863 0.2328 0.1586
C4B C 0.2699(7) 0.1350(3) 0.2500
H2B H 0.2007 0.1004 0.2500
C1F C 0.4236(6) 0.1603(4) 0.3034(4)
C2F C 0.4875(6) 0.1363(4) 0.3606(4)
O1F O 0.4441(4) 0.0609(3) 0.4049(3)
O2F O 0.5807(4) 0.1968(3) 0.3573(2)
C3F C 0.3204(6) 0.1071(4) 0.3044(5)
H1F H 0.2863 0.0535 0.3414
Mn1W Mn 1.0000 0.5000 0.5000
Mn1A Mn 1.0000 0.5000 0.0000
Mn1G Mn 0.5000 0.5000 0.5000
Mn1B Mn 0.5000 0.5000 0.0000
Mn1F Mn 0.5000 -0.0000 0.5000
O1H O 0.6168(3) 0.0609(3) -0.0951(3)
O2H O 0.6161(3) 0.1968(3) -0.1427(2)
C1H C 0.7367(4) 0.1603(4) -0.1966(4)
N1H N 0.7628(2) 0.2372(4) -0.2500
C2H C 0.6488(4) 0.1363(4) -0.1394(4)
C3H C 0.7867(5) 0.1071(4) -0.1956(5)
H1H H 0.7672 0.0535 -0.1586
C4H C 0.8650(3) 0.1349(6) -0.2500
H2H H 0.8996 0.1003 -0.2500
C1Q C 0.8397(4) 0.2633(4) -0.3034(4)
C2Q C 0.8637(4) 0.3512(4) -0.3606(4)
O1Q O 0.9391(3) 0.3832(3) -0.4049(3)
O2Q O 0.8032(3) 0.3839(3) -0.3573(2)
C3Q C 0.8929(4) 0.2133(5) -0.3044(5)
H1Q H 0.9465 0.2328 -0.3414
O1L O 0.3832(3) -0.0609(3) -0.0951(3)
O1T O 0.3832(3) -0.0609(3) 0.0951(3)
O3L O 0.5076(4) -0.1419(4) 0.0000
O1Q_2 O 0.9391(3) 0.3832(3) 0.5951(3)
O1K O 1.0609(3) 0.6168(3) 0.5951(3)
O1E O 1.0609(3) 0.6168(3) 0.4049(3)
O3W O 0.8581(4) 0.5076(4) 0.5000
O3K O 1.1419(4) 0.4924(4) 0.5000
O1O O 0.9391(3) 0.5559(4) -0.0951(3)
O2O O 0.8032(3) 0.4193(4) -0.1427(2)
C1O C 0.8397(4) 0.5764(6) -0.1966(4)
N1O N 0.7628(4) 0.5256(4) -0.2500
C2O C 0.8637(4) 0.5125(6) -0.1394(4)
C3O C 0.8929(4) 0.6796(6) -0.1956(5)
H1O H 0.9465 0.7137 -0.1586
C4O C 0.8651(6) 0.7301(7) -0.2500
H2O H 0.8997 0.7993 -0.2500
C1J C 0.7367(4) 0.5764(6) -0.3034(4)
C2J C 0.6488(4) 0.5125(6) -0.3606(4)
O1J O 0.6168(3) 0.5559(4) -0.4049(3)
O2J O 0.6161(3) 0.4193(4) -0.3573(2)
C3J C 0.7867(5) 0.6796(6) -0.3044(5)
H1J H 0.7672 0.7137 -0.3414
O1M O 1.0609(3) 0.4441(4) -0.0951(3)
O2M O 1.1968(3) 0.5807(4) -0.1427(2)
C1M C 1.1603(4) 0.4236(6) -0.1966(4)
N1M N 1.2372(4) 0.4744(4) -0.2500
C2M C 1.1363(4) 0.4875(6) -0.1394(4)
C3M C 1.1071(4) 0.3204(6) -0.1956(5)
H1M H 1.0535 0.2863 -0.1586
C4M C 1.1349(6) 0.2699(7) -0.2500
H2M H 1.1003 0.2007 -0.2500
C1S C 1.2633(4) 0.4236(6) -0.3034(4)
C2S C 1.3512(4) 0.4875(6) -0.3606(4)
O1S O 1.3832(3) 0.4441(4) -0.4049(3)
O2S O 1.3839(3) 0.5807(4) -0.3573(2)
C3S C 1.2133(5) 0.3204(6) -0.3044(5)
H1S H 1.2328 0.2863 -0.3414
O1C O 1.0609(3) 0.4441(4) 0.0951(3)
O3A O 0.8581(4) 0.3505(6) 0.0000
O3M O 1.1419(4) 0.6495(6) 0.0000
Pr1H Pr 0.6667 0.3333 -0.2500
Mn1E Mn 1.0000 0.5000 -0.5000
Mn1G_2 Mn 0.5000 0.5000 -0.5000
Pr1K Pr 1.3333 0.6667 -0.2500
Mn1G_3 Mn 1.5000 0.5000 -0.5000
O2I O 0.5807(4) 0.1968(3) -0.3573(2)
O2P O 0.5807(4) 0.3839(3) -0.1427(2)
N1I N 0.4744(4) 0.2372(4) -0.2500
O4 O 0.2730(15) 0.059(2) 0.0000
O5 O 0.0000 -0.0000 0.167(4)
loop_
_geom_bond_atom_site_label_1
_geom_bond_atom_site_label_2
_geom_bond_site_symmetry_1
_geom_bond_site_symmetry_2
Pr1 O2 1_555 1_555
Mn1 O1 1_555 1_555
O1 C2 1_555 1_555
O2 C2 1_555 1_555
O3 Mn1 1_555 1_555
C1 N1 1_555 1_555
N1 Pr1 1_555 1_555
C2 C1 1_555 1_555
C3 C1 1_555 1_555
H1 C3 1_555 1_555
C4 C3 1_555 1_555
H2 C4 1_555 1_555
C1W N1 1_555 1_555
C2W C1W 1_555 1_555
O1W C2W 1_555 1_555
O2W Pr1 1_555 1_555
C3W C4 1_555 1_555
H1W C3W 1_555 1_555
O1A C2A 1_555 1_555
O2A Pr1 1_555 1_555
C1A N1A 1_555 1_555
N1A Pr1 1_555 1_555
C2A O2A 1_555 1_555
C3A C1A 1_555 1_555
H1A C3A 1_555 1_555
C4A C3A 1_555 1_555
H2A C4A 1_555 1_555
C1G N1A 1_555 1_555
C2G C1G 1_555 1_555
O1G C2G 1_555 1_555
O2G Pr1 1_555 1_555
C3G C4A 1_555 1_555
H1G C3G 1_555 1_555
O1B C2B 1_555 1_555
O2B Pr1 1_555 1_555
C1B N1B 1_555 1_555
N1B Pr1 1_555 1_555
C2B O2B 1_555 1_555
C3B C1B 1_555 1_555
H1B C3B 1_555 1_555
C4B C3B 1_555 1_555
H2B C4B 1_555 1_555
C1F N1B 1_555 1_555
C2F C1F 1_555 1_555
O1F C2F 1_555 1_555
O2F Pr1 1_555 1_555
C3F C4B 1_555 1_555
H1F C3F 1_555 1_555
Mn1W O1W 1_555 1_555
Mn1A O1A 1_555 1_555
Mn1G O1G 1_555 1_555
Mn1B O1B 1_555 1_555
Mn1F O1F 1_555 1_555
O1H Mn1 1_555 1_555
O2H C2H 1_555 1_555
C1H N1H 1_555 1_555
N1H C1Q 1_555 1_555
C2H O1H 1_555 1_555
C3H C1H 1_555 1_555
H1H C3H 1_555 1_555
C4H C3H 1_555 1_555
H2H C4H 1_555 1_555
C1Q C2Q 1_555 1_555
C2Q O1Q 1_555 1_555
O1Q Mn1E 1_555 1_555
O2Q C2Q 1_555 1_555
C3Q C4H 1_555 1_555
H1Q C3Q 1_555 1_555
O1L Mn1 1_555 1_555
O1T Mn1 1_555 1_555
O3L Mn1 1_555 1_555
O1Q_2 Mn1W 1_555 1_555
O1K Mn1W 1_555 1_555
O1E Mn1W 1_555 1_555
O3W Mn1W 1_555 1_555
O3K Mn1W 1_555 1_555
O1O Mn1A 1_555 1_555
O2O C2O 1_555 1_555
C1O N1O 1_555 1_555
N1O C1J 1_555 1_555
C2O O1O 1_555 1_555
C3O C1O 1_555 1_555
H1O C3O 1_555 1_555
C4O C3O 1_555 1_555
H2O C4O 1_555 1_555
C1J C2J 1_555 1_555
C2J O1J 1_555 1_555
O1J Mn1G_2 1_555 1_555
O2J C2J 1_555 1_555
C3J C4O 1_555 1_555
H1J C3J 1_555 1_555
O1M Mn1A 1_555 1_555
O2M C2M 1_555 1_555
C1M N1M 1_555 1_555
N1M C1S 1_555 1_555
C2M O1M 1_555 1_555
C3M C1M 1_555 1_555
H1M C3M 1_555 1_555
C4M C3M 1_555 1_555
H2M C4M 1_555 1_555
C1S C2S 1_555 1_555
C2S O1S 1_555 1_555
O1S Mn1G_3 1_555 1_555
O2S C2S 1_555 1_555
C3S C4M 1_555 1_555
H1S C3S 1_555 1_555
O1C Mn1A 1_555 1_555
O3A Mn1A 1_555 1_555
O3M Mn1A 1_555 1_555
Pr1H O2H 1_555 1_555
Pr1K O2M 1_555 1_555
O2I Pr1H 1_555 1_555
O2P Pr1H 1_555 1_555
N1I Pr1H 1_555 1_555
C1W C3W 1_555 1_555
C2W O2W 1_555 1_555
C1A C2A 1_555 1_555
C1G C3G 1_555 1_555
C2G O2G 1_555 1_555
C1B C2B 1_555 1_555
C1F C3F 1_555 1_555
C2F O2F 1_555 1_555
C1H C2H 1_555 1_555
N1H Pr1H 1_555 1_555
C1Q C3Q 1_555 1_555
O2Q Pr1H 1_555 1_555
O2O Pr1H 1_555 1_555
C1O C2O 1_555 1_555
N1O Pr1H 1_555 1_555
C1J C3J 1_555 1_555
O2J Pr1H 1_555 1_555
C1M C2M 1_555 1_555
N1M Pr1K 1_555 1_555
C1S C3S 1_555 1_555
O2S Pr1K 1_555 1_555

#END
