
#######################################################################
#
#                 Cambridge Crystallographic Data Centre
#                                CCDC 
#
#######################################################################
#
# If this CIF has been generated from an entry in the Cambridge 
# Structural Database, then it will include bibliographic, chemical, 
# crystal, experimental, refinement or atomic coordinate data resulting 
# from the CCDC's data processing and validation procedures.
#
#######################################################################

data_SUJNUH
_chemical_formula_moiety         '(C12 H14 Cu1 O8)n'
_symmetry_cell_setting           tetragonal
_symmetry_space_group_name_H-M   'P 42/n'
_symmetry_Int_Tables_number      86
_space_group_name_Hall           '-P 4bc'
loop_
_symmetry_equiv_pos_site_id
_symmetry_equiv_pos_as_xyz
1 x,y,z
2 1/2-x,1/2-y,z
3 -y,1/2+x,1/2+z
4 1/2+y,-x,1/2+z
5 -x,-y,-z
6 1/2+x,1/2+y,-z
7 y,1/2-x,1/2-z
8 1/2-y,x,1/2-z
_cell_length_a                   20.539(2)
_cell_length_b                   20.539(2)
_cell_length_c                   6.9994(10)
_cell_angle_alpha                90
_cell_angle_beta                 90
_cell_angle_gamma                90
_cell_volume                     2952.7
loop_
_atom_site_label
_atom_site_type_symbol
_atom_site_fract_x
_atom_site_fract_y
_atom_site_fract_z
_atom_site_U_iso_or_equiv
_atom_site_thermal_displace_type
C1 C 0.81400(13) 0.01568(13) 0.6776(4) 0.0128 Uani
C2 C 0.79628(14) -0.00976(15) 0.8507(4) 0.0177 Uani
H1 H 0.8283 -0.0280 0.9328 0.0210 Uiso
C3 C 0.73034(13) -0.00884(14) 0.9065(4) 0.0175 Uani
H2 H 0.7181 -0.0282 1.0244 0.0210 Uiso
C4 C 0.68323(13) 0.01958(13) 0.7939(4) 0.0122 Uani
C5 C 0.65772(13) 0.08979(14) 0.5065(4) 0.0169 Uani
H3 H 0.6133 0.0930 0.5435 0.0200 Uiso
C6 C 0.67831(15) 0.12122(17) 0.3457(5) 0.0239 Uani
H4 H 0.6482 0.1460 0.2728 0.0290 Uiso
C7 C 0.74390(15) 0.11735(17) 0.2863(5) 0.0251 Uani
H5 H 0.7577 0.1394 0.1741 0.0300 Uiso
C8 C 0.78736(14) 0.08191(15) 0.3904(4) 0.0191 Uani
H6 H 0.8313 0.0791 0.3490 0.0230 Uiso
C9 C 0.76798(13) 0.04902(13) 0.5601(4) 0.0130 Uani
C10 C 0.70121(13) 0.05233(13) 0.6200(4) 0.0120 Uani
C11 C 0.88381(13) 0.00810(12) 0.6169(4) 0.0119 Uani
C12 C 0.61429(13) 0.01263(13) 0.8652(4) 0.0112 Uani
O1 O 0.89410(9) -0.01488(10) 0.4516(3) 0.0159 Uani
O2 O 0.92656(9) 0.02481(10) 0.7345(3) 0.0155 Uani
O4 O 0.56749(9) 0.02382(10) 0.7508(3) 0.0148 Uani
O6 O 0.60741(9) -0.00537(10) 1.0347(3) 0.0176 Uani
O9 O 0.94535(9) -0.06851(9) 0.0830(3) 0.0153 Uani
Cu1 Cu 0.981028(15) -0.023909(15) 0.33626(4) 0.0081 Uani
O2D O 1.07344(9) -0.02481(10) 0.2655(3) 0.0155 Uani
O4B O 0.97618(10) 0.06749(9) 0.2508(3) 0.0148 Uani
O6F O 0.99463(10) -0.10741(9) 0.4653(3) 0.0176 Uani
Cu1D Cu 1.018972(15) 0.023909(15) 0.66374(4) 0.0081 Uani
Cu1C Cu 0.476091(15) 0.018972(15) 0.83626(4) 0.0081 Uani
Cu1G Cu 0.523909(15) -0.018972(15) 1.16374(4) 0.0081 Uani
O3 O 0.87697(12) -0.18228(12) 0.0794(4) 0.0326 Uiso
O5 O 0.8130(3) -0.1186(3) 0.3660(8) 0.0355 Uiso
O8 O 0.8161(3) -0.1821(3) -0.2751(9) 0.0474 Uiso
loop_
_atom_site_aniso_label
_atom_site_aniso_U_11
_atom_site_aniso_U_22
_atom_site_aniso_U_33
_atom_site_aniso_U_23
_atom_site_aniso_U_13
_atom_site_aniso_U_12
C1 0.0102(13) 0.0125(13) 0.0156(14) -0.0011(10) 0.0023(10) -0.0009(10)
C2 0.0120(14) 0.0228(15) 0.0183(15) 0.0052(11) 0.0015(11) 0.0043(11)
C3 0.0124(13) 0.0241(15) 0.0161(14) 0.0050(12) 0.0035(11) 0.0018(11)
C4 0.0088(12) 0.0141(13) 0.0138(13) -0.0023(11) 0.0023(10) -0.0007(10)
C5 0.0098(13) 0.0196(14) 0.0214(15) 0.0033(11) 0.0003(11) -0.0001(11)
C6 0.0154(15) 0.0302(17) 0.0261(17) 0.0123(13) -0.0017(12) 0.0029(13)
C7 0.0187(15) 0.0342(18) 0.0223(15) 0.0138(14) 0.0033(13) -0.0011(13)
C8 0.0112(13) 0.0260(15) 0.0202(15) 0.0053(12) 0.0041(11) -0.0003(11)
C9 0.0111(13) 0.0124(13) 0.0154(13) -0.0007(10) 0.0021(10) -0.0014(10)
C10 0.0111(13) 0.0110(12) 0.0139(13) -0.0023(10) 0.0000(10) -0.0018(10)
C11 0.0118(13) 0.0082(12) 0.0156(13) 0.0046(10) 0.0017(11) 0.0005(9)
C12 0.0104(13) 0.0100(12) 0.0132(13) -0.0030(10) 0.0025(10) -0.0011(10)
O1 0.0092(9) 0.0224(10) 0.0162(10) -0.0038(8) 0.0035(7) -0.0010(8)
O2 0.0078(9) 0.0237(10) 0.0150(10) -0.0009(8) 0.0017(8) 0.0014(8)
O4 0.0070(9) 0.0231(10) 0.0143(10) 0.0024(8) 0.0020(7) -0.0006(7)
O6 0.0097(9) 0.0285(11) 0.0146(10) 0.0035(8) 0.0027(8) -0.0014(8)
O9 0.0178(10) 0.0159(9) 0.0122(10) -0.0002(8) 0.0008(8) -0.0020(8)
Cu1 0.00738(19) 0.00711(19) 0.0097(2) 0.00172(11) 0.00163(11) 0.00051(10)
O2D 0.0078 0.0237 0.015 -0.0009 0.0017 0.0014
O4B 0.0231 0.007 0.0143 0.002 -0.0024 0.0006
O6F 0.0285 0.0097 0.0146 0.0027 -0.0035 0.0014
Cu1D 0.00738 0.00711 0.0097 0.00172 0.00163 0.00051
Cu1C 0.00711 0.00738 0.0097 -0.00163 0.00172 -0.00051
Cu1G 0.00711 0.00738 0.0097 -0.00163 0.00172 -0.00051
loop_
_geom_bond_atom_site_label_1
_geom_bond_atom_site_label_2
_geom_bond_site_symmetry_1
_geom_bond_site_symmetry_2
C1 C2 1_555 1_555
C2 H1 1_555 1_555
C3 C2 1_555 1_555
H2 C3 1_555 1_555
C4 C3 1_555 1_555
C5 H3 1_555 1_555
C6 C5 1_555 1_555
H4 C6 1_555 1_555
C7 C6 1_555 1_555
H5 C7 1_555 1_555
C8 C7 1_555 1_555
H6 C8 1_555 1_555
C9 C1 1_555 1_555
C10 C4 1_555 1_555
C11 C1 1_555 1_555
C12 C4 1_555 1_555
O1 C11 1_555 1_555
O2 C11 1_555 1_555
O4 C12 1_555 1_555
O6 C12 1_555 1_555
O9 Cu1 1_555 1_555
Cu1 O1 1_555 1_555
O2D Cu1 1_555 1_555
O4B Cu1 1_555 1_555
O6F Cu1 1_555 1_555
Cu1D O2 1_555 1_555
Cu1C O4 1_555 1_555
Cu1G O6 1_555 1_555
C5 C10 1_555 1_555
C8 C9 1_555 1_555
C9 C10 1_555 1_555
Cu1 Cu1D 1_555 1_555
Cu1C Cu1G 1_555 1_555

#END
