
#######################################################################
#
#                 Cambridge Crystallographic Data Centre
#                                CCDC 
#
#######################################################################
#
# If this CIF has been generated from an entry in the Cambridge 
# Structural Database, then it will include bibliographic, chemical, 
# crystal, experimental, refinement or atomic coordinate data resulting 
# from the CCDC's data processing and validation procedures.
#
#######################################################################

data_FAKLOU
_chemical_formula_moiety         '(C72 H24 Cd5 N24 4-)n'
_symmetry_cell_setting           trigonal
_symmetry_space_group_name_H-M   'P -3 1 m'
_symmetry_Int_Tables_number      162
_space_group_name_Hall           '-P 3 2'
loop_
_symmetry_equiv_pos_site_id
_symmetry_equiv_pos_as_xyz
1 x,y,z
2 -y,x-y,z
3 -y,-x,-z
4 -x+y,-x,z
5 x,x-y,-z
6 -x+y,y,-z
7 -x,-y,-z
8 y,-x+y,-z
9 y,x,z
10 x-y,x,-z
11 -x,-x+y,z
12 x-y,-y,z
_cell_length_a                   12.9515(4)
_cell_length_b                   12.9515(4)
_cell_length_c                   10.8818(2)
_cell_angle_alpha                90
_cell_angle_beta                 90
_cell_angle_gamma                120
_cell_volume                     1580.78
loop_
_atom_site_label
_atom_site_type_symbol
_atom_site_fract_x
_atom_site_fract_y
_atom_site_fract_z
Cd2 Cd 0.3333 0.6667 0.5000
N1 N 0.4820(4) 0.6740(4) 0.3758(3)
C1 C 0.5581(4) 0.5581(4) 0.2564(3)
C2 C 0.5287(4) 0.5287(4) 0.1258(3)
C3 C 0.4614(4) 0.5663(4) 0.0615(3)
H1 H 0.4334 0.6123 0.1027
C4 C 0.5156(4) 0.6217(4) 0.3220(3)
Cd2_2 Cd 0.3333 0.6667 -0.5000
Cd2F Cd 0.6667 0.3333 -0.5000
Cd2F_2 Cd 0.6667 0.3333 0.5000
Cd2G Cd 0.6667 1.3334 -0.5000
Cd2G_2 Cd 0.6667 1.3334 0.5000
Cd2_3 Cd 0.3333 0.6667 1.5000
Cd2F_3 Cd 0.6667 0.3333 1.5000
Cd2I Cd -0.3334 0.3333 -0.5000
Cd2I_2 Cd -0.3334 0.3333 0.5000
Cd2G_3 Cd 0.6667 1.3334 1.5000
Cd2I_3 Cd -0.3334 0.3333 1.5000
N1B N 0.3260(4) 0.5180(4) -0.3758(3)
N1F N 0.5180(4) 0.3260(4) -0.3758(3)
N1H N 0.6740(4) 0.4820(4) 0.3758(3)
N1A N 0.3260(4) 0.8080(6) 0.3758(3)
N1D N 0.4820(4) 0.8080(6) -0.3758(3)
N1G N 0.6740(4) 1.1920(6) -0.3758(3)
N1J N 0.5180(4) 1.1920(6) 0.3758(3)
N1B_2 N 0.3260(4) 0.5180(4) 0.6242(3)
N1_2 N 0.4820(4) 0.6740(4) 1.3758(3)
N1H_2 N 0.6740(4) 0.4820(4) 1.3758(3)
N1F_2 N 0.5180(4) 0.3260(4) 0.6242(3)
N1C N 0.1920(6) 0.5180(4) 0.3758(3)
N1E N 0.1920(6) 0.6740(4) -0.3758(3)
N1I N -0.1920(6) 0.4820(4) -0.3758(3)
N1K N -0.1920(6) 0.3260(4) 0.3758(3)
N1D_2 N 0.4820(4) 0.8080(6) 0.6242(3)
N1A_2 N 0.3260(4) 0.8080(6) 1.3758(3)
N1J_2 N 0.5180(4) 1.1920(6) 1.3758(3)
N1G_2 N 0.6740(4) 1.1920(6) 0.6242(3)
N1E_2 N 0.1920(6) 0.6740(4) 0.6242(3)
N1C_2 N 0.1920(6) 0.5180(4) 1.3758(3)
N1K_2 N -0.1920(6) 0.3260(4) 1.3758(3)
N1I_2 N -0.1920(6) 0.4820(4) 0.6242(3)
N1_3 N 0.4820(4) 0.6740(4) -0.6242(3)
N1C_3 N 0.1920(6) 0.5180(4) -0.6242(3)
N1A_3 N 0.3260(4) 0.8080(6) -0.6242(3)
N1G_3 N 0.6740(4) 0.1920(6) -0.3758(3)
N1H_3 N 0.6740(4) 0.4820(4) -0.6242(3)
N1I_3 N 0.8080(6) 0.4820(4) -0.3758(3)
N1J_3 N 0.5180(4) 0.1920(6) -0.6242(3)
N1K_3 N 0.8080(6) 0.3260(4) -0.6242(3)
N1K_4 N 0.8080(6) 0.3260(4) 0.3758(3)
N1J_4 N 0.5180(4) 0.1920(6) 0.3758(3)
N1I_4 N 0.8080(6) 0.4820(4) 0.6242(3)
N1G_4 N 0.6740(4) 0.1920(6) 0.6242(3)
C1B C 0.4419(4) 0.4419(4) -0.2564(3)
C1A C 0.4419(4) 1.0000(6) 0.2564(3)
C1D C 0.5581(4) 1.0000(6) -0.2564(3)
C1B_2 C 0.4419(4) 0.4419(4) 0.7436(3)
C1_2 C 0.5581(4) 0.5581(4) 1.2564(3)
C1C C 0.0000(6) 0.4419(4) 0.2564(3)
C1E C 0.0000(6) 0.5581(4) -0.2564(3)
C1D_2 C 0.5581(4) 1.0000(6) 0.7436(3)
C1A_2 C 0.4419(4) 1.0000(6) 1.2564(3)
C1E_2 C -0.0000(6) 0.5581(4) 0.7436(3)
C1C_2 C 0.0000(6) 0.4419(4) 1.2564(3)
C2B C 0.4713(4) 0.4713(4) -0.1258(3)
C2A C 0.4713(4) 1.0000(6) 0.1258(3)
C2D C 0.5287(4) 1.0000(6) -0.1258(3)
C2B_2 C 0.4713(4) 0.4713(4) 0.8742(3)
C2_2 C 0.5287(4) 0.5287(4) 1.1258(3)
C2C C 0.0000(6) 0.4713(4) 0.1258(3)
C2E C 0.0000(6) 0.5287(4) -0.1258(3)
C2D_2 C 0.5287(4) 1.0000(6) 0.8742(3)
C2A_2 C 0.4713(4) 1.0000(6) 1.1258(3)
C2E_2 C -0.0000(6) 0.5287(4) 0.8742(3)
C2C_2 C -0.0000(6) 0.4713(4) 1.1258(3)
C3B C 0.4337(4) 0.5386(4) -0.0615(3)
C3F C 0.5386(4) 0.4337(4) -0.0615(3)
C3H C 0.5663(4) 0.4614(4) 0.0615(3)
C3A C 0.4337(4) 0.8951(6) 0.0615(3)
C3D C 0.4614(4) 0.8951(6) -0.0615(3)
C3G C 0.5663(4) 1.1049(6) -0.0615(3)
C3J C 0.5386(4) 1.1049(6) 0.0615(3)
C3B_2 C 0.4337(4) 0.5386(4) 0.9385(3)
C3_2 C 0.4614(4) 0.5663(4) 1.0615(3)
C3H_2 C 0.5663(4) 0.4614(4) 1.0615(3)
C3F_2 C 0.5386(4) 0.4337(4) 0.9385(3)
C3C C 0.1049(6) 0.5386(4) 0.0615(3)
C3E C 0.1049(6) 0.5663(4) -0.0615(3)
C3I C -0.1049(6) 0.4614(4) -0.0615(3)
C3K C -0.1049(6) 0.4337(4) 0.0615(3)
C3D_2 C 0.4614(4) 0.8951(6) 0.9385(3)
C3A_2 C 0.4337(4) 0.8951(6) 1.0615(3)
C3J_2 C 0.5386(4) 1.1049(6) 1.0615(3)
C3G_2 C 0.5663(4) 1.1049(6) 0.9385(3)
C3E_2 C 0.1049(6) 0.5663(4) 0.9385(3)
C3C_2 C 0.1049(6) 0.5386(4) 1.0615(3)
C3K_2 C -0.1049(6) 0.4337(4) 1.0615(3)
C3I_2 C -0.1049(6) 0.4614(4) 0.9385(3)
H1H H 0.6123 0.4334 0.1027
H1F H 0.5666 0.3877 -0.1027
H1B H 0.3877 0.5666 -0.1027
H1A H 0.3877 0.8211 0.1027
H1J H 0.5666 1.1789 0.1027
H1G H 0.6123 1.1789 -0.1027
H1D H 0.4334 0.8211 -0.1027
H1B_2 H 0.3877 0.5666 0.8973
H1F_2 H 0.5666 0.3877 0.8973
H1H_2 H 0.6123 0.4334 1.1027
H1_2 H 0.4334 0.6123 1.1027
H1C H 0.1789 0.5666 0.1027
H1K H -0.1789 0.3877 0.1027
H1I H -0.1789 0.4334 -0.1027
H1E H 0.1789 0.6123 -0.1027
H1D_2 H 0.4334 0.8211 0.8973
H1G_2 H 0.6123 1.1789 0.8973
H1J_2 H 0.5666 1.1789 1.1027
H1A_2 H 0.3877 0.8211 1.1027
H1E_2 H 0.1789 0.6123 0.8973
H1I_2 H -0.1789 0.4334 0.8973
H1K_2 H -0.1789 0.3877 1.1027
H1C_2 H 0.1789 0.5666 1.1027
C4B C 0.3783(4) 0.4844(4) -0.3220(3)
C4F C 0.4844(4) 0.3783(4) -0.3220(3)
C4H C 0.6217(4) 0.5156(4) 0.3220(3)
C4A C 0.3783(4) 0.8939(6) 0.3220(3)
C4D C 0.5156(4) 0.8939(6) -0.3220(3)
C4G C 0.6217(4) 1.1061(6) -0.3220(3)
C4J C 0.4844(4) 1.1061(6) 0.3220(3)
C4B_2 C 0.3783(4) 0.4844(4) 0.6780(3)
C4_2 C 0.5156(4) 0.6217(4) 1.3220(3)
C4H_2 C 0.6217(4) 0.5156(4) 1.3220(3)
C4F_2 C 0.4844(4) 0.3783(4) 0.6780(3)
C4C C 0.1061(6) 0.4844(4) 0.3220(3)
C4E C 0.1061(6) 0.6217(4) -0.3220(3)
C4I C -0.1061(6) 0.5156(4) -0.3220(3)
C4K C -0.1061(6) 0.3783(4) 0.3220(3)
C4D_2 C 0.5156(4) 0.8939(6) 0.6780(3)
C4A_2 C 0.3783(4) 0.8939(6) 1.3220(3)
C4J_2 C 0.4844(4) 1.1061(6) 1.3220(3)
C4G_2 C 0.6217(4) 1.1061(6) 0.6780(3)
C4E_2 C 0.1061(6) 0.6217(4) 0.6780(3)
C4C_2 C 0.1061(6) 0.4844(4) 1.3220(3)
C4K_2 C -0.1061(6) 0.3783(4) 1.3220(3)
C4I_2 C -0.1061(6) 0.5156(4) 0.6780(3)
Cd1 Cd 0.0000 -0.0000 0.5000
loop_
_geom_bond_atom_site_label_1
_geom_bond_atom_site_label_2
_geom_bond_site_symmetry_1
_geom_bond_site_symmetry_2
Cd2 N1 1_555 1_555
N1 C4 1_555 1_555
C1 C2 1_555 1_555
C2 C3 1_555 1_555
C3 H1 1_555 1_555
C4 C1 1_555 1_555
Cd2_2 N1B 1_555 1_555
Cd2F N1F 1_555 1_555
Cd2F_2 N1H 1_555 1_555
Cd2G N1G 1_555 1_555
Cd2G_2 N1J 1_555 1_555
Cd2_3 N1_2 1_555 1_555
Cd2F_3 N1H_2 1_555 1_555
Cd2I N1I 1_555 1_555
Cd2I_2 N1K 1_555 1_555
Cd2G_3 N1J_2 1_555 1_555
Cd2I_3 N1K_2 1_555 1_555
N1B C4B 1_555 1_555
N1F C4F 1_555 1_555
N1H C4H 1_555 1_555
N1A Cd2 1_555 1_555
N1D Cd2_2 1_555 1_555
N1G C4G 1_555 1_555
N1J C4J 1_555 1_555
N1B_2 Cd2 1_555 1_555
N1_2 C4_2 1_555 1_555
N1H_2 C4H_2 1_555 1_555
N1F_2 Cd2F_2 1_555 1_555
N1C Cd2 1_555 1_555
N1E Cd2_2 1_555 1_555
N1I C4I 1_555 1_555
N1K C4K 1_555 1_555
N1D_2 Cd2 1_555 1_555
N1A_2 Cd2_3 1_555 1_555
N1J_2 C4J_2 1_555 1_555
N1G_2 Cd2G_2 1_555 1_555
N1E_2 Cd2 1_555 1_555
N1C_2 Cd2_3 1_555 1_555
N1K_2 C4K_2 1_555 1_555
N1I_2 Cd2I_2 1_555 1_555
N1_3 Cd2_2 1_555 1_555
N1C_3 Cd2_2 1_555 1_555
N1A_3 Cd2_2 1_555 1_555
N1G_3 Cd2F 1_555 1_555
N1H_3 Cd2F 1_555 1_555
N1I_3 Cd2F 1_555 1_555
N1J_3 Cd2F 1_555 1_555
N1K_3 Cd2F 1_555 1_555
N1K_4 Cd2F_2 1_555 1_555
N1J_4 Cd2F_2 1_555 1_555
N1I_4 Cd2F_2 1_555 1_555
N1G_4 Cd2F_2 1_555 1_555
C1B C2B 1_555 1_555
C1A C2A 1_555 1_555
C1D C2D 1_555 1_555
C1B_2 C2B_2 1_555 1_555
C1_2 C2_2 1_555 1_555
C1C C2C 1_555 1_555
C1E C2E 1_555 1_555
C1D_2 C2D_2 1_555 1_555
C1A_2 C2A_2 1_555 1_555
C1E_2 C2E_2 1_555 1_555
C1C_2 C2C_2 1_555 1_555
C2B C3B 1_555 1_555
C2A C3A 1_555 1_555
C2D C3D 1_555 1_555
C2B_2 C3B_2 1_555 1_555
C2_2 C3_2 1_555 1_555
C2C C3C 1_555 1_555
C2E C3E 1_555 1_555
C2D_2 C3D_2 1_555 1_555
C2A_2 C3A_2 1_555 1_555
C2E_2 C3E_2 1_555 1_555
C2C_2 C3C_2 1_555 1_555
C3B C3 1_555 1_555
C3F C2B 1_555 1_555
C3H C2 1_555 1_555
C3A C3D 1_555 1_555
C3D H1D 1_555 1_555
C3G C2D 1_555 1_555
C3J C2A 1_555 1_555
C3B_2 C3_2 1_555 1_555
C3_2 H1_2 1_555 1_555
C3H_2 C2_2 1_555 1_555
C3F_2 C2B_2 1_555 1_555
C3C C3E 1_555 1_555
C3E H1E 1_555 1_555
C3I C2E 1_555 1_555
C3K C2C 1_555 1_555
C3D_2 C3A_2 1_555 1_555
C3A_2 H1A_2 1_555 1_555
C3J_2 C2A_2 1_555 1_555
C3G_2 C2D_2 1_555 1_555
C3E_2 C3C_2 1_555 1_555
C3C_2 H1C_2 1_555 1_555
C3K_2 C2C_2 1_555 1_555
C3I_2 C2E_2 1_555 1_555
H1H C3H 1_555 1_555
H1F C3F 1_555 1_555
H1B C3B 1_555 1_555
H1A C3A 1_555 1_555
H1J C3J 1_555 1_555
H1G C3G 1_555 1_555
H1B_2 C3B_2 1_555 1_555
H1F_2 C3F_2 1_555 1_555
H1H_2 C3H_2 1_555 1_555
H1C C3C 1_555 1_555
H1K C3K 1_555 1_555
H1I C3I 1_555 1_555
H1D_2 C3D_2 1_555 1_555
H1G_2 C3G_2 1_555 1_555
H1J_2 C3J_2 1_555 1_555
H1E_2 C3E_2 1_555 1_555
H1I_2 C3I_2 1_555 1_555
H1K_2 C3K_2 1_555 1_555
C4B C1B 1_555 1_555
C4F C1B 1_555 1_555
C4H C1 1_555 1_555
C4A N1A 1_555 1_555
C4D N1D 1_555 1_555
C4G C1D 1_555 1_555
C4J C1A 1_555 1_555
C4B_2 N1B_2 1_555 1_555
C4_2 C1_2 1_555 1_555
C4H_2 C1_2 1_555 1_555
C4F_2 N1F_2 1_555 1_555
C4C N1C 1_555 1_555
C4E N1E 1_555 1_555
C4I C1E 1_555 1_555
C4K C1C 1_555 1_555
C4D_2 N1D_2 1_555 1_555
C4A_2 N1A_2 1_555 1_555
C4J_2 C1A_2 1_555 1_555
C4G_2 N1G_2 1_555 1_555
C4E_2 N1E_2 1_555 1_555
C4C_2 N1C_2 1_555 1_555
C4K_2 C1C_2 1_555 1_555
C4I_2 N1I_2 1_555 1_555
C1A C4A 1_555 1_555
C1D C4D 1_555 1_555
C1B_2 C4B_2 1_555 1_555
C1B_2 C4F_2 1_555 1_555
C1C C4C 1_555 1_555
C1E C4E 1_555 1_555
C1D_2 C4D_2 1_555 1_555
C1D_2 C4G_2 1_555 1_555
C1A_2 C4A_2 1_555 1_555
C1E_2 C4E_2 1_555 1_555
C1E_2 C4I_2 1_555 1_555
C1C_2 C4C_2 1_555 1_555
C3F C3H 1_555 1_555
C3G C3J 1_555 1_555
C3H_2 C3F_2 1_555 1_555
C3I C3K 1_555 1_555
C3J_2 C3G_2 1_555 1_555
C3K_2 C3I_2 1_555 1_555

#END
