
#######################################################################
#
#                 Cambridge Crystallographic Data Centre
#                                CCDC 
#
#######################################################################
#
# If this CIF has been generated from an entry in the Cambridge 
# Structural Database, then it will include bibliographic, chemical, 
# crystal, experimental, refinement or atomic coordinate data resulting 
# from the CCDC's data processing and validation procedures.
#
#######################################################################

data_FAKLUA
_chemical_formula_moiety         '(C36 H12 N12 Zn3 2-)n'
_symmetry_cell_setting           trigonal
_symmetry_space_group_name_H-M   'P -3 1 m'
_symmetry_Int_Tables_number      162
_space_group_name_Hall           '-P 3 2'
loop_
_symmetry_equiv_pos_site_id
_symmetry_equiv_pos_as_xyz
1 x,y,z
2 -y,x-y,z
3 -y,-x,-z
4 -x+y,-x,z
5 x,x-y,-z
6 -x+y,y,-z
7 -x,-y,-z
8 y,-x+y,-z
9 y,x,z
10 x-y,x,-z
11 -x,-x+y,z
12 x-y,-y,z
_cell_length_a                   12.7447(4)
_cell_length_b                   12.7447(4)
_cell_length_c                   10.7107(3)
_cell_angle_alpha                90
_cell_angle_beta                 90
_cell_angle_gamma                120
_cell_volume                     1506.63
loop_
_atom_site_label
_atom_site_type_symbol
_atom_site_fract_x
_atom_site_fract_y
_atom_site_fract_z
Zn2 Zn 0.0000 0.0000 0.0000
Zn1 Zn 0.3333 0.6667 0.0000
N1 N 0.4684(5) 0.6648(5) 0.1155(4)
C1 C 0.5526(6) 0.5526(6) 0.2374(5)
C2 C 0.5255(6) 0.5255(6) 0.3718(5)
C3 C 0.4588(5) 0.5664(5) 0.4358(4)
H1 H 0.4296 0.6120 0.3930
C4 C 0.5071(5) 0.6143(6) 0.1699(4)
Zn1_2 Zn 0.3333 0.6667 1.0000
Zn1F Zn 0.6667 0.3333 1.0000
Zn1F_2 Zn 0.6667 0.3333 0.0000
Zn1G Zn 0.6667 1.3334 1.0000
Zn1G_2 Zn 0.6667 1.3334 0.0000
Zn1_3 Zn 0.3333 0.6667 -1.0000
Zn1F_3 Zn 0.6667 0.3333 -1.0000
N1B N 0.3352(5) 0.5316(5) 0.8845(4)
N1F N 0.5316(5) 0.3352(5) 0.8845(4)
N1H N 0.6648(5) 0.4684(5) 0.1155(4)
N1A N 0.3352(5) 0.8036(7) 0.1155(4)
N1D N 0.4684(5) 0.8036(7) 0.8845(4)
N1G N 0.6648(5) 1.1964(7) 0.8845(4)
N1J N 0.5316(5) 1.1964(7) 0.1155(4)
N1B_2 N 0.3352(5) 0.5316(5) -0.1155(4)
N1_2 N 0.4684(5) 0.6648(5) -0.8845(4)
N1H_2 N 0.6648(5) 0.4684(5) -0.8845(4)
N1F_2 N 0.5316(5) 0.3352(5) -0.1155(4)
N1C N 0.1964(7) 0.5316(5) 0.1155(4)
N1D_2 N 0.4684(5) 0.8036(7) -0.1155(4)
N1E N 0.1964(7) 0.6648(5) -0.1155(4)
N1E_2 N 0.1964(7) 0.6648(5) 0.8845(4)
N1_3 N 0.4684(5) 0.6648(5) 1.1155(4)
N1C_2 N 0.1964(7) 0.5316(5) 1.1155(4)
N1A_2 N 0.3352(5) 0.8036(7) 1.1155(4)
C1B C 0.4474(6) 0.4474(6) 0.7626(5)
C1A C 0.4474(6) 1.0000(8) 0.2374(5)
C1D C 0.5526(6) 1.0000(8) 0.7626(5)
C1B_2 C 0.4474(6) 0.4474(6) -0.2374(5)
C1_2 C 0.5526(6) 0.5526(6) -0.7626(5)
C2B C 0.4745(6) 0.4745(6) 0.6282(5)
C2A C 0.4745(6) 1.0000(8) 0.3718(5)
C2D C 0.5255(6) 1.0000(8) 0.6282(5)
C2B_2 C 0.4745(6) 0.4745(6) -0.3718(5)
C2_2 C 0.5255(6) 0.5255(6) -0.6282(5)
C3B C 0.4336(5) 0.5412(5) 0.5642(4)
C3F C 0.5412(5) 0.4336(5) 0.5642(4)
C3H C 0.5664(5) 0.4588(5) 0.4358(4)
C3A C 0.4336(5) 0.8924(7) 0.4358(4)
C3D C 0.4588(5) 0.8924(7) 0.5642(4)
C3G C 0.5664(5) 1.1076(7) 0.5642(4)
C3J C 0.5412(5) 1.1076(7) 0.4358(4)
C3B_2 C 0.4336(5) 0.5412(5) -0.4358(4)
C3_2 C 0.4588(5) 0.5664(5) -0.5642(4)
C3H_2 C 0.5664(5) 0.4588(5) -0.5642(4)
C3F_2 C 0.5412(5) 0.4336(5) -0.4358(4)
H1H H 0.6120 0.4296 0.3930
H1F H 0.5704 0.3880 0.6070
H1B H 0.3880 0.5704 0.6070
H1A H 0.3880 0.8176 0.3930
H1J H 0.5704 1.1824 0.3930
H1G H 0.6120 1.1824 0.6070
H1D H 0.4296 0.8176 0.6070
H1B_2 H 0.3880 0.5704 -0.3930
H1F_2 H 0.5704 0.3880 -0.3930
H1H_2 H 0.6120 0.4296 -0.6070
H1_2 H 0.4296 0.6120 -0.6070
C4B C 0.3857(6) 0.4929(5) 0.8301(4)
C4F C 0.4929(5) 0.3857(6) 0.8301(4)
C4H C 0.6143(6) 0.5071(5) 0.1699(4)
C4A C 0.3857(6) 0.8928(8) 0.1699(4)
C4D C 0.5071(5) 0.8928(8) 0.8301(4)
C4G C 0.6143(6) 1.1072(8) 0.8301(4)
C4J C 0.4929(5) 1.1072(8) 0.1699(4)
C4B_2 C 0.3857(6) 0.4929(5) -0.1699(4)
C4_2 C 0.5071(5) 0.6143(6) -0.8301(4)
C4H_2 C 0.6143(6) 0.5071(5) -0.8301(4)
C4F_2 C 0.4929(5) 0.3857(6) -0.1699(4)
loop_
_geom_bond_atom_site_label_1
_geom_bond_atom_site_label_2
_geom_bond_site_symmetry_1
_geom_bond_site_symmetry_2
Zn1 N1 1_555 1_555
N1 C4 1_555 1_555
C1 C2 1_555 1_555
C2 C3 1_555 1_555
C3 H1 1_555 1_555
C4 C1 1_555 1_555
Zn1_2 N1B 1_555 1_555
Zn1F N1F 1_555 1_555
Zn1F_2 N1H 1_555 1_555
Zn1G N1G 1_555 1_555
Zn1G_2 N1J 1_555 1_555
Zn1_3 N1_2 1_555 1_555
Zn1F_3 N1H_2 1_555 1_555
N1B C4B 1_555 1_555
N1F C4F 1_555 1_555
N1H C4H 1_555 1_555
N1A Zn1 1_555 1_555
N1D Zn1_2 1_555 1_555
N1G C4G 1_555 1_555
N1J C4J 1_555 1_555
N1B_2 Zn1 1_555 1_555
N1_2 C4_2 1_555 1_555
N1H_2 C4H_2 1_555 1_555
N1F_2 Zn1F_2 1_555 1_555
N1C Zn1 1_555 1_555
N1D_2 Zn1 1_555 1_555
N1E Zn1 1_555 1_555
N1E_2 Zn1_2 1_555 1_555
N1_3 Zn1_2 1_555 1_555
N1C_2 Zn1_2 1_555 1_555
N1A_2 Zn1_2 1_555 1_555
C1B C2B 1_555 1_555
C1A C2A 1_555 1_555
C1D C2D 1_555 1_555
C1B_2 C2B_2 1_555 1_555
C1_2 C2_2 1_555 1_555
C2B C3B 1_555 1_555
C2A C3A 1_555 1_555
C2D C3D 1_555 1_555
C2B_2 C3B_2 1_555 1_555
C2_2 C3_2 1_555 1_555
C3B C3 1_555 1_555
C3F C2B 1_555 1_555
C3H C2 1_555 1_555
C3A C3D 1_555 1_555
C3D H1D 1_555 1_555
C3G C2D 1_555 1_555
C3J C2A 1_555 1_555
C3B_2 C3_2 1_555 1_555
C3_2 H1_2 1_555 1_555
C3H_2 C2_2 1_555 1_555
C3F_2 C2B_2 1_555 1_555
H1H C3H 1_555 1_555
H1F C3F 1_555 1_555
H1B C3B 1_555 1_555
H1A C3A 1_555 1_555
H1J C3J 1_555 1_555
H1G C3G 1_555 1_555
H1B_2 C3B_2 1_555 1_555
H1F_2 C3F_2 1_555 1_555
H1H_2 C3H_2 1_555 1_555
C4B C1B 1_555 1_555
C4F C1B 1_555 1_555
C4H C1 1_555 1_555
C4A N1A 1_555 1_555
C4D N1D 1_555 1_555
C4G C1D 1_555 1_555
C4J C1A 1_555 1_555
C4B_2 N1B_2 1_555 1_555
C4_2 C1_2 1_555 1_555
C4H_2 C1_2 1_555 1_555
C4F_2 N1F_2 1_555 1_555
C1A C4A 1_555 1_555
C1D C4D 1_555 1_555
C1B_2 C4B_2 1_555 1_555
C1B_2 C4F_2 1_555 1_555
C3F C3H 1_555 1_555
C3G C3J 1_555 1_555
C3H_2 C3F_2 1_555 1_555

#END
