
#######################################################################
#
#                 Cambridge Crystallographic Data Centre
#                                CCDC 
#
#######################################################################
#
# If this CIF has been generated from an entry in the Cambridge 
# Structural Database, then it will include bibliographic, chemical, 
# crystal, experimental, refinement or atomic coordinate data resulting 
# from the CCDC's data processing and validation procedures.
#
#######################################################################

data_FAKLIO
_chemical_formula_moiety         '(C72 H24 Mn5 N24 4-)n'
_symmetry_cell_setting           trigonal
_symmetry_space_group_name_H-M   'P -3 1 m'
_symmetry_Int_Tables_number      162
_space_group_name_Hall           '-P 3 2'
loop_
_symmetry_equiv_pos_site_id
_symmetry_equiv_pos_as_xyz
1 x,y,z
2 -y,x-y,z
3 -x+y,-x,z
4 -y,-x,-z
5 x,x-y,-z
6 -x+y,y,-z
7 -x,-y,-z
8 y,-x+y,-z
9 x-y,x,-z
10 y,x,z
11 -x,-x+y,z
12 x-y,-y,z
_cell_length_a                   13.0158(9)
_cell_length_b                   13.0158(9)
_cell_length_c                   10.8532(4)
_cell_angle_alpha                90
_cell_angle_beta                 90
_cell_angle_gamma                120
_cell_volume                     1592.32
loop_
_atom_site_label
_atom_site_type_symbol
_atom_site_fract_x
_atom_site_fract_y
_atom_site_fract_z
Mn2 Mn 0.6667 0.3333 0.0000
N1 N 0.5324(4) 0.3394(4) 0.1200(3)
C1 C 0.4965(5) 0.3915(5) 0.1742(3)
C2 C 0.4540(6) 0.4540(6) 0.2395(5)
C3 C 0.4777(6) 0.4777(6) 0.3736(5)
C4 C 0.4350(5) 0.5420(5) 0.4377(4)
H1 H 0.3900 0.5702 0.3954
Mn2F Mn 0.3333 0.6667 0.0000
Mn2_2 Mn 0.6667 0.3333 1.0000
Mn2F_2 Mn 0.3333 0.6667 1.0000
Mn2G Mn 0.3333 -0.3334 0.0000
Mn2G_2 Mn 0.3333 -0.3334 1.0000
Mn2H Mn 1.3334 0.6667 0.0000
Mn2H_2 Mn 1.3334 0.6667 1.0000
Mn2_3 Mn 0.6667 0.3333 -1.0000
Mn2F_3 Mn 0.3333 0.6667 -1.0000
Mn2G_3 Mn 0.3333 -0.3334 -1.0000
Mn2H_3 Mn 1.3334 0.6667 -1.0000
N1I N 0.3394(4) 0.5324(4) 0.1200(3)
N1C N 0.6606(4) 0.4676(4) 0.8800(3)
N1F N 0.4676(4) 0.6606(4) 0.8800(3)
N1A N 0.6606(4) 0.1930(6) 0.1200(3)
N1J N 0.4676(4) -0.1930(6) 0.1200(3)
N1D N 0.5324(4) 0.1930(6) 0.8800(3)
N1G N 0.3394(4) -0.1930(6) 0.8800(3)
N1B N 0.8070(6) 0.4676(4) 0.1200(3)
N1K N 1.1930(6) 0.6606(4) 0.1200(3)
N1E N 0.8070(6) 0.3394(4) 0.8800(3)
N1H N 1.1930(6) 0.5324(4) 0.8800(3)
N1C_2 N 0.6606(4) 0.4676(4) -0.1200(3)
N1F_2 N 0.4676(4) 0.6606(4) -0.1200(3)
N1_2 N 0.5324(4) 0.3394(4) -0.8800(3)
N1I_2 N 0.3394(4) 0.5324(4) -0.8800(3)
N1D_2 N 0.5324(4) 0.1930(6) -0.1200(3)
N1G_2 N 0.3394(4) -0.1930(6) -0.1200(3)
N1A_2 N 0.6606(4) 0.1930(6) -0.8800(3)
N1J_2 N 0.4676(4) -0.1930(6) -0.8800(3)
N1E_2 N 0.8070(6) 0.3394(4) -0.1200(3)
N1H_2 N 1.1930(6) 0.5324(4) -0.1200(3)
N1B_2 N 0.8070(6) 0.4676(4) -0.8800(3)
N1K_2 N 1.1930(6) 0.6606(4) -0.8800(3)
N1K_3 N 0.1930(6) 0.6606(4) 0.1200(3)
N1J_3 N 0.4676(4) 0.8070(6) 0.1200(3)
N1H_3 N 0.1930(6) 0.5324(4) -0.1200(3)
N1G_3 N 0.3394(4) 0.8070(6) -0.1200(3)
N1_3 N 0.5324(4) 0.3394(4) 1.1200(3)
N1B_3 N 0.8070(6) 0.4676(4) 1.1200(3)
N1A_3 N 0.6606(4) 0.1930(6) 1.1200(3)
N1G_4 N 0.3394(4) 0.8070(6) 0.8800(3)
N1H_4 N 0.1930(6) 0.5324(4) 0.8800(3)
N1I_3 N 0.3394(4) 0.5324(4) 1.1200(3)
N1J_4 N 0.4676(4) 0.8070(6) 1.1200(3)
N1K_4 N 0.1930(6) 0.6606(4) 1.1200(3)
C1I C 0.3915(5) 0.4965(5) 0.1742(3)
C1C C 0.6085(5) 0.5035(5) 0.8258(3)
C1F C 0.5035(5) 0.6085(5) 0.8258(3)
C1A C 0.6085(5) 0.1050(7) 0.1742(3)
C1J C 0.5035(5) -0.1050(7) 0.1742(3)
C1D C 0.4965(5) 0.1050(7) 0.8258(3)
C1G C 0.3915(5) -0.1050(7) 0.8258(3)
C1B C 0.8950(7) 0.5035(5) 0.1742(3)
C1K C 1.1050(7) 0.6085(5) 0.1742(3)
C1E C 0.8950(7) 0.3915(5) 0.8258(3)
C1H C 1.1050(7) 0.4965(5) 0.8258(3)
C1C_2 C 0.6085(5) 0.5035(5) -0.1742(3)
C1F_2 C 0.5035(5) 0.6085(5) -0.1742(3)
C1_2 C 0.4965(5) 0.3915(5) -0.8258(3)
C1I_2 C 0.3915(5) 0.4965(5) -0.8258(3)
C1D_2 C 0.4965(5) 0.1050(7) -0.1742(3)
C1G_2 C 0.3915(5) -0.1050(7) -0.1742(3)
C1A_2 C 0.6085(5) 0.1050(7) -0.8258(3)
C1J_2 C 0.5035(5) -0.1050(7) -0.8258(3)
C1E_2 C 0.8950(7) 0.3915(5) -0.1742(3)
C1H_2 C 1.1050(7) 0.4965(5) -0.1742(3)
C1B_2 C 0.8950(7) 0.5035(5) -0.8258(3)
C1K_2 C 1.1050(7) 0.6085(5) -0.8258(3)
C2C C 0.5460(6) 0.5460(6) 0.7605(5)
C2A C 0.5460(6) 0.0000(8) 0.2395(5)
C2D C 0.4540(6) 0.0000(8) 0.7605(5)
C2B C 1.0000(8) 0.5460(6) 0.2395(5)
C2E C 1.0000(8) 0.4540(6) 0.7605(5)
C2C_2 C 0.5460(6) 0.5460(6) -0.2395(5)
C2_2 C 0.4540(6) 0.4540(6) -0.7605(5)
C2D_2 C 0.4540(6) 0.0000(8) -0.2395(5)
C2A_2 C 0.5460(6) 0.0000(8) -0.7605(5)
C2E_2 C 1.0000(8) 0.4540(6) -0.2395(5)
C2B_2 C 1.0000(8) 0.5460(6) -0.7605(5)
C3C C 0.5223(6) 0.5223(6) 0.6264(5)
C3A C 0.5223(6) 0.0000(8) 0.3736(5)
C3D C 0.4777(6) -0.0000(8) 0.6264(5)
C3B C 1.0000(8) 0.5223(6) 0.3736(5)
C3E C 1.0000(8) 0.4777(6) 0.6264(5)
C3C_2 C 0.5223(6) 0.5223(6) -0.3736(5)
C3_2 C 0.4777(6) 0.4777(6) -0.6264(5)
C3D_2 C 0.4777(6) 0.0000(8) -0.3736(5)
C3A_2 C 0.5223(6) 0.0000(8) -0.6264(5)
C3E_2 C 1.0000(8) 0.4777(6) -0.3736(5)
C3B_2 C 1.0000(8) 0.5223(6) -0.6264(5)
C4C C 0.4580(5) 0.5650(5) 0.5623(4)
C4F C 0.5650(5) 0.4580(5) 0.5623(4)
C4I C 0.5420(5) 0.4350(5) 0.4377(4)
C4A C 0.4580(5) -0.1070(7) 0.4377(4)
C4D C 0.4350(5) -0.1070(7) 0.5623(4)
C4G C 0.5420(5) 0.1070(7) 0.5623(4)
C4J C 0.5650(5) 0.1070(7) 0.4377(4)
C4B C 1.1070(7) 0.5650(5) 0.4377(4)
C4E C 1.1070(7) 0.5420(5) 0.5623(4)
C4H C 0.8930(7) 0.4350(5) 0.5623(4)
C4K C 0.8930(7) 0.4580(5) 0.4377(4)
C4C_2 C 0.4580(5) 0.5650(5) -0.4377(4)
C4_2 C 0.4350(5) 0.5420(5) -0.5623(4)
C4I_2 C 0.5420(5) 0.4350(5) -0.5623(4)
C4F_2 C 0.5650(5) 0.4580(5) -0.4377(4)
C4D_2 C 0.4350(5) -0.1070(7) -0.4377(4)
C4A_2 C 0.4580(5) -0.1070(7) -0.5623(4)
C4J_2 C 0.5650(5) 0.1070(7) -0.5623(4)
C4G_2 C 0.5420(5) 0.1070(7) -0.4377(4)
C4E_2 C 1.1070(7) 0.5420(5) -0.4377(4)
C4B_2 C 1.1070(7) 0.5650(5) -0.5623(4)
C4K_2 C 0.8930(7) 0.4580(5) -0.5623(4)
C4H_2 C 0.8930(7) 0.4350(5) -0.4377(4)
H1I H 0.5702 0.3900 0.3954
H1F H 0.6100 0.4298 0.6046
H1C H 0.4298 0.6100 0.6046
H1A H 0.4298 -0.1802 0.3954
H1J H 0.6100 0.1802 0.3954
H1G H 0.5702 0.1802 0.6046
H1D H 0.3900 -0.1802 0.6046
H1B H 1.1802 0.6100 0.3954
H1K H 0.8198 0.4298 0.3954
H1H H 0.8198 0.3900 0.6046
H1E H 1.1802 0.5702 0.6046
H1C_2 H 0.4298 0.6100 -0.3954
H1F_2 H 0.6100 0.4298 -0.3954
H1I_2 H 0.5702 0.3900 -0.6046
H1_2 H 0.3900 0.5702 -0.6046
H1D_2 H 0.3900 -0.1802 -0.3954
H1G_2 H 0.5702 0.1802 -0.3954
H1J_2 H 0.6100 0.1802 -0.6046
H1A_2 H 0.4298 -0.1802 -0.6046
H1E_2 H 1.1802 0.5702 -0.3954
H1H_2 H 0.8198 0.3900 -0.3954
H1K_2 H 0.8198 0.4298 -0.6046
H1B_2 H 1.1802 0.6100 -0.6046
Mn1 Mn 0.0000 0.0000 0.0000
loop_
_geom_bond_atom_site_label_1
_geom_bond_atom_site_label_2
_geom_bond_site_symmetry_1
_geom_bond_site_symmetry_2
Mn2 N1 1_555 1_555
N1 C1 1_555 1_555
C1 C2 1_555 1_555
C2 C3 1_555 1_555
C3 C4 1_555 1_555
C4 H1 1_555 1_555
Mn2F N1I 1_555 1_555
Mn2_2 N1C 1_555 1_555
Mn2F_2 N1F 1_555 1_555
Mn2G N1J 1_555 1_555
Mn2G_2 N1G 1_555 1_555
Mn2H N1K 1_555 1_555
Mn2H_2 N1H 1_555 1_555
Mn2_3 N1_2 1_555 1_555
Mn2F_3 N1I_2 1_555 1_555
Mn2G_3 N1J_2 1_555 1_555
Mn2H_3 N1K_2 1_555 1_555
N1I C1I 1_555 1_555
N1C C1C 1_555 1_555
N1F C1F 1_555 1_555
N1A Mn2 1_555 1_555
N1J C1J 1_555 1_555
N1D Mn2_2 1_555 1_555
N1G C1G 1_555 1_555
N1B Mn2 1_555 1_555
N1K C1K 1_555 1_555
N1E Mn2_2 1_555 1_555
N1H C1H 1_555 1_555
N1C_2 Mn2 1_555 1_555
N1F_2 Mn2F 1_555 1_555
N1_2 C1_2 1_555 1_555
N1I_2 C1I_2 1_555 1_555
N1D_2 Mn2 1_555 1_555
N1G_2 Mn2G 1_555 1_555
N1A_2 Mn2_3 1_555 1_555
N1J_2 C1J_2 1_555 1_555
N1E_2 Mn2 1_555 1_555
N1H_2 Mn2H 1_555 1_555
N1B_2 Mn2_3 1_555 1_555
N1K_2 C1K_2 1_555 1_555
N1K_3 Mn2F 1_555 1_555
N1J_3 Mn2F 1_555 1_555
N1H_3 Mn2F 1_555 1_555
N1G_3 Mn2F 1_555 1_555
N1_3 Mn2_2 1_555 1_555
N1B_3 Mn2_2 1_555 1_555
N1A_3 Mn2_2 1_555 1_555
N1G_4 Mn2F_2 1_555 1_555
N1H_4 Mn2F_2 1_555 1_555
N1I_3 Mn2F_2 1_555 1_555
N1J_4 Mn2F_2 1_555 1_555
N1K_4 Mn2F_2 1_555 1_555
C1I C2 1_555 1_555
C1C C2C 1_555 1_555
C1F C2C 1_555 1_555
C1A N1A 1_555 1_555
C1J C2A 1_555 1_555
C1D N1D 1_555 1_555
C1G C2D 1_555 1_555
C1B N1B 1_555 1_555
C1K C2B 1_555 1_555
C1E N1E 1_555 1_555
C1H C2E 1_555 1_555
C1C_2 N1C_2 1_555 1_555
C1F_2 N1F_2 1_555 1_555
C1_2 C2_2 1_555 1_555
C1I_2 C2_2 1_555 1_555
C1D_2 N1D_2 1_555 1_555
C1G_2 N1G_2 1_555 1_555
C1A_2 N1A_2 1_555 1_555
C1J_2 C2A_2 1_555 1_555
C1E_2 N1E_2 1_555 1_555
C1H_2 N1H_2 1_555 1_555
C1B_2 N1B_2 1_555 1_555
C1K_2 C2B_2 1_555 1_555
C2C C3C 1_555 1_555
C2A C1A 1_555 1_555
C2D C1D 1_555 1_555
C2B C1B 1_555 1_555
C2E C1E 1_555 1_555
C2C_2 C1C_2 1_555 1_555
C2_2 C3_2 1_555 1_555
C2D_2 C1D_2 1_555 1_555
C2A_2 C1A_2 1_555 1_555
C2E_2 C1E_2 1_555 1_555
C2B_2 C1B_2 1_555 1_555
C3C C4C 1_555 1_555
C3A C2A 1_555 1_555
C3D C2D 1_555 1_555
C3B C2B 1_555 1_555
C3E C2E 1_555 1_555
C3C_2 C2C_2 1_555 1_555
C3_2 C4_2 1_555 1_555
C3D_2 C2D_2 1_555 1_555
C3A_2 C2A_2 1_555 1_555
C3E_2 C2E_2 1_555 1_555
C3B_2 C2B_2 1_555 1_555
C4C C4 1_555 1_555
C4F C3C 1_555 1_555
C4I C3 1_555 1_555
C4A C3A 1_555 1_555
C4D C3D 1_555 1_555
C4G C3D 1_555 1_555
C4J C3A 1_555 1_555
C4B C3B 1_555 1_555
C4E C3E 1_555 1_555
C4H C3E 1_555 1_555
C4K C3B 1_555 1_555
C4C_2 C3C_2 1_555 1_555
C4_2 C4C_2 1_555 1_555
C4I_2 C3_2 1_555 1_555
C4F_2 C3C_2 1_555 1_555
C4D_2 C3D_2 1_555 1_555
C4A_2 C3A_2 1_555 1_555
C4J_2 C3A_2 1_555 1_555
C4G_2 C3D_2 1_555 1_555
C4E_2 C3E_2 1_555 1_555
C4B_2 C3B_2 1_555 1_555
C4K_2 C3B_2 1_555 1_555
C4H_2 C3E_2 1_555 1_555
H1I C4I 1_555 1_555
H1F C4F 1_555 1_555
H1C C4C 1_555 1_555
H1A C4A 1_555 1_555
H1J C4J 1_555 1_555
H1G C4G 1_555 1_555
H1D C4D 1_555 1_555
H1B C4B 1_555 1_555
H1K C4K 1_555 1_555
H1H C4H 1_555 1_555
H1E C4E 1_555 1_555
H1C_2 C4C_2 1_555 1_555
H1F_2 C4F_2 1_555 1_555
H1I_2 C4I_2 1_555 1_555
H1_2 C4_2 1_555 1_555
H1D_2 C4D_2 1_555 1_555
H1G_2 C4G_2 1_555 1_555
H1J_2 C4J_2 1_555 1_555
H1A_2 C4A_2 1_555 1_555
H1E_2 C4E_2 1_555 1_555
H1H_2 C4H_2 1_555 1_555
H1K_2 C4K_2 1_555 1_555
H1B_2 C4B_2 1_555 1_555
C1F_2 C2C_2 1_555 1_555
C1G_2 C2D_2 1_555 1_555
C1H_2 C2E_2 1_555 1_555
C4F C4I 1_555 1_555
C4A C4D 1_555 1_555
C4G C4J 1_555 1_555
C4B C4E 1_555 1_555
C4H C4K 1_555 1_555
C4I_2 C4F_2 1_555 1_555
C4D_2 C4A_2 1_555 1_555
C4J_2 C4G_2 1_555 1_555
C4E_2 C4B_2 1_555 1_555
C4K_2 C4H_2 1_555 1_555

#END
