
#######################################################################
#
#                 Cambridge Crystallographic Data Centre
#                                CCDC 
#
#######################################################################
#
# If this CIF has been generated from an entry in the Cambridge 
# Structural Database, then it will include bibliographic, chemical, 
# crystal, experimental, refinement or atomic coordinate data resulting 
# from the CCDC's data processing and validation procedures.
#
#######################################################################

data_FAKMAH
_chemical_formula_moiety         '(C72 H24 Mn4 N24 4-)n'
_symmetry_cell_setting           hexagonal
_symmetry_space_group_name_H-M   'P 63/m c m'
_symmetry_Int_Tables_number      193
_space_group_name_Hall           '-P 6c 2'
loop_
_symmetry_equiv_pos_site_id
_symmetry_equiv_pos_as_xyz
1 x,y,z
2 x-y,x,1/2+z
3 -y,x-y,z
4 -x,-y,1/2+z
5 -x+y,-x,z
6 y,-x+y,1/2+z
7 -y,-x,-z
8 x-y,-y,1/2-z
9 x,x-y,-z
10 y,x,1/2-z
11 -x+y,y,-z
12 -x,-x+y,1/2-z
13 -x,-y,-z
14 -x+y,-x,1/2-z
15 y,-x+y,-z
16 x,y,1/2-z
17 x-y,x,-z
18 -y,x-y,1/2-z
19 y,x,z
20 -x+y,y,1/2+z
21 -x,-x+y,z
22 -y,-x,1/2+z
23 x-y,-y,z
24 x,x-y,1/2+z
_cell_length_a                   12.8814(3)
_cell_length_b                   12.8814(3)
_cell_length_c                   22.0591(4)
_cell_angle_alpha                90
_cell_angle_beta                 90
_cell_angle_gamma                120
_cell_volume                     3169.89
loop_
_atom_site_label
_atom_site_type_symbol
_atom_site_fract_x
_atom_site_fract_y
_atom_site_fract_z
Mn1 Mn 0.6666 0.3333 0.5000
N1 N 0.6660(3) 0.4730(4) 0.55824(12)
C1 C 0.5674(4) 0.5674(4) 0.68588(19)
C2 C 0.6252(3) 0.5177(3) 0.58583(12)
C3 C 0.5711(4) 0.5711(4) 0.6193(2)
C4 C 0.5130(4) 0.6197(4) 0.71835(13)
H1 H 0.4753 0.6561 0.6972
Mn1O Mn 0.6666 0.3333 1.0000
Mn1A Mn 0.3333 0.6666 1.0000
Mn1P Mn 0.3333 0.6666 0.5000
Mn1C Mn 0.3334 -0.3333 1.0000
Mn1L Mn 0.3334 -0.3333 0.5000
Mn1E Mn 1.3333 0.6667 1.0000
Mn1N Mn 1.3333 0.6667 0.5000
Mn1M Mn 0.6667 0.3334 0.0000
Mn1C_2 Mn 0.3334 0.6667 0.0000
Mn1E_2 Mn 0.3333 -0.3333 0.0000
Mn1A_2 Mn 1.3333 0.6666 0.0000
N1O N 0.6660(3) 0.4730(4) 0.94176(12)
N1I N 0.4730(4) 0.6660(3) 0.94176(12)
N1R N 0.4730(4) 0.6660(3) 0.55824(12)
N1B N 0.5270(4) 0.1930(5) 0.55824(12)
N1Q N 0.5270(4) 0.1930(5) 0.94176(12)
N1K N 0.3340(3) -0.1930(5) 0.94176(12)
N1T N 0.3340(3) -0.1930(5) 0.55824(12)
N1D N 0.8070(5) 0.3340(3) 0.55824(12)
N1M N 0.8070(5) 0.3340(3) 0.94176(12)
N1G N 1.1930(5) 0.5270(4) 0.94176(12)
N1V N 1.1930(5) 0.5270(4) 0.55824(12)
N1F N 0.5270(4) 0.3340(3) 0.44176(12)
N1U N 0.5270(4) 0.3340(3) 0.05824(12)
N1C N 0.3340(3) 0.5270(4) 0.05824(12)
N1L N 0.3340(3) 0.5270(4) 0.44176(12)
N1H N 0.6660(3) 0.1930(5) 0.44176(12)
N1W N 0.6660(3) 0.1930(5) 0.05824(12)
N1E N 0.4730(4) -0.1930(5) 0.05824(12)
N1N N 0.4730(4) -0.1930(5) 0.44176(12)
N1J N 0.8070(5) 0.4730(4) 0.44176(12)
N1S N 0.8070(5) 0.4730(4) 0.05824(12)
N1A N 1.1930(5) 0.6660(3) 0.05824(12)
N1P N 1.1930(5) 0.6660(3) 0.44176(12)
N1U_2 N 0.5270(4) 0.3340(3) 1.05824(12)
N1W_2 N 0.6660(3) 0.1930(5) 1.05824(12)
N1S_2 N 0.8070(5) 0.4730(4) 1.05824(12)
N1G_2 N 0.1930(5) 0.5270(4) 0.94176(12)
N1K_2 N 0.3340(3) 0.8070(5) 0.94176(12)
N1C_2 N 0.3340(3) 0.5270(4) 1.05824(12)
N1A_2 N 0.1930(5) 0.6660(3) 1.05824(12)
N1E_2 N 0.4730(4) 0.8070(5) 1.05824(12)
N1V_2 N 0.1930(5) 0.5270(4) 0.55824(12)
N1T_2 N 0.3340(3) 0.8070(5) 0.55824(12)
N1P_2 N 0.1930(5) 0.6660(3) 0.44176(12)
N1N_2 N 0.4730(4) 0.8070(5) 0.44176(12)
C1I C 0.5674(4) 0.5674(4) 0.81412(19)
C1B C 0.4326(4) -0.0000(6) 0.68588(19)
C1K C 0.4326(4) -0.0000(6) 0.81412(19)
C1D C 1.0000(6) 0.4326(4) 0.68588(19)
C1G C 1.0000(6) 0.4326(4) 0.81412(19)
C1F C 0.4326(4) 0.4326(4) 0.31412(19)
C1C C 0.4326(4) 0.4326(4) 0.18588(19)
C1H C 0.5674(4) -0.0000(6) 0.31412(19)
C1E C 0.5674(4) -0.0000(6) 0.18588(19)
C1J C 1.0000(6) 0.5674(4) 0.31412(19)
C1A C 1.0000(6) 0.5674(4) 0.18588(19)
C2O C 0.6252(3) 0.5177(3) 0.91417(12)
C2I C 0.5177(3) 0.6252(3) 0.91417(12)
C2R C 0.5177(3) 0.6252(3) 0.58583(12)
C2B C 0.4823(3) 0.1075(4) 0.58583(12)
C2Q C 0.4823(3) 0.1075(4) 0.91417(12)
C2K C 0.3748(3) -0.1075(4) 0.91417(12)
C2T C 0.3748(3) -0.1075(4) 0.58583(12)
C2D C 0.8925(4) 0.3748(3) 0.58583(12)
C2M C 0.8925(4) 0.3748(3) 0.91417(12)
C2G C 1.1075(4) 0.4823(3) 0.91417(12)
C2V C 1.1075(4) 0.4823(3) 0.58583(12)
C2F C 0.4823(3) 0.3748(3) 0.41417(12)
C2U C 0.4823(3) 0.3748(3) 0.08583(12)
C2C C 0.3748(3) 0.4823(3) 0.08583(12)
C2L C 0.3748(3) 0.4823(3) 0.41417(12)
C2H C 0.6252(3) 0.1075(4) 0.41417(12)
C2W C 0.6252(3) 0.1075(4) 0.08583(12)
C2E C 0.5177(3) -0.1075(4) 0.08583(12)
C2N C 0.5177(3) -0.1075(4) 0.41417(12)
C2J C 0.8925(4) 0.5177(3) 0.41417(12)
C2S C 0.8925(4) 0.5177(3) 0.08583(12)
C2A C 1.1075(4) 0.6252(3) 0.08583(12)
C2P C 1.1075(4) 0.6252(3) 0.41417(12)
C3I C 0.5711(4) 0.5711(4) 0.8807(2)
C3B C 0.4289(4) -0.0000(6) 0.6193(2)
C3K C 0.4289(4) -0.0000(6) 0.8807(2)
C3D C 1.0000(6) 0.4289(4) 0.6193(2)
C3G C 1.0000(6) 0.4289(4) 0.8807(2)
C3F C 0.4289(4) 0.4289(4) 0.3807(2)
C3C C 0.4289(4) 0.4289(4) 0.1193(2)
C3H C 0.5711(4) 0.0000(6) 0.3807(2)
C3E C 0.5711(4) -0.0000(6) 0.1193(2)
C3J C 1.0000(6) 0.5711(4) 0.3807(2)
C3A C 1.0000(6) 0.5711(4) 0.1193(2)
C4O C 0.5130(4) 0.6197(4) 0.78165(13)
C4I C 0.6197(4) 0.5130(4) 0.78165(13)
C4R C 0.6197(4) 0.5130(4) 0.71835(13)
C4B C 0.3803(4) -0.1067(6) 0.71835(13)
C4Q C 0.3803(4) -0.1067(6) 0.78165(13)
C4K C 0.4870(4) 0.1067(6) 0.78165(13)
C4T C 0.4870(4) 0.1067(6) 0.71835(13)
C4D C 1.1067(6) 0.4870(4) 0.71835(13)
C4M C 1.1067(6) 0.4870(4) 0.78165(13)
C4G C 0.8933(6) 0.3803(4) 0.78165(13)
C4V C 0.8933(6) 0.3803(4) 0.71835(13)
C4F C 0.3803(4) 0.4870(4) 0.28165(13)
C4U C 0.3803(4) 0.4870(4) 0.21835(13)
C4C C 0.4870(4) 0.3803(4) 0.21835(13)
C4L C 0.4870(4) 0.3803(4) 0.28165(13)
C4H C 0.5130(4) -0.1067(6) 0.28165(13)
C4W C 0.5130(4) -0.1067(6) 0.21835(13)
C4E C 0.6197(4) 0.1067(6) 0.21835(13)
C4N C 0.6197(4) 0.1067(6) 0.28165(13)
C4J C 1.1067(6) 0.6197(4) 0.28165(13)
C4S C 1.1067(6) 0.6197(4) 0.21835(13)
C4A C 0.8933(6) 0.5130(4) 0.21835(13)
C4P C 0.8933(6) 0.5130(4) 0.28165(13)
H1R H 0.6561 0.4753 0.6972
H1I H 0.6561 0.4753 0.8028
H1O H 0.4753 0.6561 0.8028
H1B H 0.3439 -0.1808 0.6972
H1T H 0.5247 0.1808 0.6972
H1K H 0.5247 0.1808 0.8028
H1Q H 0.3439 -0.1808 0.8028
H1D H 1.1808 0.5247 0.6972
H1V H 0.8192 0.3439 0.6972
H1G H 0.8192 0.3439 0.8028
H1M H 1.1808 0.5247 0.8028
H1F H 0.3439 0.5247 0.3028
H1L H 0.5247 0.3439 0.3028
H1C H 0.5247 0.3439 0.1972
H1U H 0.3439 0.5247 0.1972
H1H H 0.4753 -0.1808 0.3028
H1N H 0.6561 0.1808 0.3028
H1E H 0.6561 0.1808 0.1972
H1W H 0.4753 -0.1808 0.1972
H1J H 1.1808 0.6561 0.3028
H1P H 0.8192 0.4753 0.3028
H1A H 0.8192 0.4753 0.1972
H1S H 1.1808 0.6561 0.1972
loop_
_geom_bond_atom_site_label_1
_geom_bond_atom_site_label_2
_geom_bond_site_symmetry_1
_geom_bond_site_symmetry_2
Mn1 N1 1_555 1_555
N1 C2 1_555 1_555
C1 C3 1_555 1_555
C2 C3 1_555 1_555
C3 C2R 1_555 1_555
C4 C1 1_555 1_555
H1 C4 1_555 1_555
Mn1O N1O 1_555 1_555
Mn1A N1I 1_555 1_555
Mn1P N1R 1_555 1_555
Mn1C N1K 1_555 1_555
Mn1L N1T 1_555 1_555
Mn1E N1G 1_555 1_555
Mn1N N1V 1_555 1_555
Mn1M N1U 1_555 1_555
Mn1C_2 N1C 1_555 1_555
Mn1E_2 N1E 1_555 1_555
Mn1A_2 N1A 1_555 1_555
N1O C2O 1_555 1_555
N1I C2I 1_555 1_555
N1R C2R 1_555 1_555
N1B Mn1 1_555 1_555
N1Q Mn1O 1_555 1_555
N1K C2K 1_555 1_555
N1T C2T 1_555 1_555
N1D Mn1 1_555 1_555
N1M Mn1O 1_555 1_555
N1G C2G 1_555 1_555
N1V C2V 1_555 1_555
N1F Mn1 1_555 1_555
N1U C2U 1_555 1_555
N1C C2C 1_555 1_555
N1L Mn1P 1_555 1_555
N1H Mn1 1_555 1_555
N1W Mn1M 1_555 1_555
N1E C2E 1_555 1_555
N1N Mn1L 1_555 1_555
N1J Mn1 1_555 1_555
N1S Mn1M 1_555 1_555
N1A C2A 1_555 1_555
N1P Mn1N 1_555 1_555
N1U_2 Mn1O 1_555 1_555
N1W_2 Mn1O 1_555 1_555
N1S_2 Mn1O 1_555 1_555
N1G_2 Mn1A 1_555 1_555
N1K_2 Mn1A 1_555 1_555
N1C_2 Mn1A 1_555 1_555
N1A_2 Mn1A 1_555 1_555
N1E_2 Mn1A 1_555 1_555
N1V_2 Mn1P 1_555 1_555
N1T_2 Mn1P 1_555 1_555
N1P_2 Mn1P 1_555 1_555
N1N_2 Mn1P 1_555 1_555
C1I C3I 1_555 1_555
C1B C3B 1_555 1_555
C1K C3K 1_555 1_555
C1D C3D 1_555 1_555
C1G C3G 1_555 1_555
C1F C3F 1_555 1_555
C1C C3C 1_555 1_555
C1H C3H 1_555 1_555
C1E C3E 1_555 1_555
C1J C3J 1_555 1_555
C1A C3A 1_555 1_555
C2O C3I 1_555 1_555
C2I C3I 1_555 1_555
C2B N1B 1_555 1_555
C2Q N1Q 1_555 1_555
C2K C3K 1_555 1_555
C2T C3B 1_555 1_555
C2D N1D 1_555 1_555
C2M N1M 1_555 1_555
C2G C3G 1_555 1_555
C2V C3D 1_555 1_555
C2F N1F 1_555 1_555
C2U C3C 1_555 1_555
C2C C3C 1_555 1_555
C2L N1L 1_555 1_555
C2H N1H 1_555 1_555
C2W N1W 1_555 1_555
C2E C3E 1_555 1_555
C2N N1N 1_555 1_555
C2J N1J 1_555 1_555
C2S N1S 1_555 1_555
C2A C3A 1_555 1_555
C2P N1P 1_555 1_555
C3B C2B 1_555 1_555
C3K C2Q 1_555 1_555
C3D C2D 1_555 1_555
C3G C2M 1_555 1_555
C3F C2F 1_555 1_555
C3H C2H 1_555 1_555
C3E C2W 1_555 1_555
C3J C2J 1_555 1_555
C3A C2S 1_555 1_555
C4O C4 1_555 1_555
C4I C1I 1_555 1_555
C4R C1 1_555 1_555
C4B C1B 1_555 1_555
C4Q C1K 1_555 1_555
C4K C1K 1_555 1_555
C4T C1B 1_555 1_555
C4D C1D 1_555 1_555
C4M C1G 1_555 1_555
C4G C1G 1_555 1_555
C4V C1D 1_555 1_555
C4F C1F 1_555 1_555
C4U C1C 1_555 1_555
C4C C1C 1_555 1_555
C4L C1F 1_555 1_555
C4H C1H 1_555 1_555
C4W C1E 1_555 1_555
C4E C1E 1_555 1_555
C4N C1H 1_555 1_555
C4J C1J 1_555 1_555
C4S C1A 1_555 1_555
C4A C1A 1_555 1_555
C4P C1J 1_555 1_555
H1R C4R 1_555 1_555
H1I C4I 1_555 1_555
H1O C4O 1_555 1_555
H1B C4B 1_555 1_555
H1T C4T 1_555 1_555
H1K C4K 1_555 1_555
H1Q C4Q 1_555 1_555
H1D C4D 1_555 1_555
H1V C4V 1_555 1_555
H1G C4G 1_555 1_555
H1M C4M 1_555 1_555
H1F C4F 1_555 1_555
H1L C4L 1_555 1_555
H1C C4C 1_555 1_555
H1U C4U 1_555 1_555
H1H C4H 1_555 1_555
H1N C4N 1_555 1_555
H1E C4E 1_555 1_555
H1W C4W 1_555 1_555
H1J C4J 1_555 1_555
H1P C4P 1_555 1_555
H1A C4A 1_555 1_555
H1S C4S 1_555 1_555
C1I C4O 1_555 1_555
C2L C3F 1_555 1_555
C2N C3H 1_555 1_555
C2P C3J 1_555 1_555
C4I C4R 1_555 1_555
C4B C4Q 1_555 1_555
C4K C4T 1_555 1_555
C4D C4M 1_555 1_555
C4G C4V 1_555 1_555
C4F C4U 1_555 1_555
C4C C4L 1_555 1_555
C4H C4W 1_555 1_555
C4E C4N 1_555 1_555
C4J C4S 1_555 1_555
C4A C4P 1_555 1_555

#END
