
#######################################################################
#
#                 Cambridge Crystallographic Data Centre
#                                CCDC 
#
#######################################################################
#
# If this CIF has been generated from an entry in the Cambridge 
# Structural Database, then it will include bibliographic, chemical, 
# crystal, experimental, refinement or atomic coordinate data resulting 
# from the CCDC's data processing and validation procedures.
#
#######################################################################

data_DANWOF
_chemical_formula_moiety         'C11 H5 Cl3 Fe4 N1 O8'
_symmetry_cell_setting           hexagonal
_symmetry_space_group_name_H-M   'P -6 2 c'
_symmetry_Int_Tables_number      190
_space_group_name_Hall           'P -6c -2c'
loop_
_symmetry_equiv_pos_site_id
_symmetry_equiv_pos_as_xyz
1 x,y,z
2 -y,x-y,z
3 -x+y,-x,z
4 x,y,1/2-z
5 -y,x-y,1/2-z
6 -x+y,-x,1/2-z
7 y,x,-z
8 x-y,-y,-z
9 -x,-x+y,-z
10 y,x,1/2+z
11 x-y,-y,1/2+z
12 -x,-x+y,1/2+z
_cell_length_a                   12.531(3)
_cell_length_b                   12.531(3)
_cell_length_c                   18.476(11)
_cell_angle_alpha                90
_cell_angle_beta                 90
_cell_angle_gamma                120
_cell_volume                     2512.52
loop_
_atom_site_label
_atom_site_type_symbol
_atom_site_fract_x
_atom_site_fract_y
_atom_site_fract_z
_atom_site_U_iso_or_equiv
_atom_site_thermal_displace_type
O5 O 0.3333 0.6667 0.594(6) 0.2167 Uani
Fe2 Fe 0.0000 1.0000 0.5000 0.0998 Uani
Cl1 Cl -0.1618(12) 1.0000 0.5000 0.0517 Uani
Cl1A Cl 0.0000 0.8382(12) 0.5000 0.0517 Uani
Cl1B Cl 0.1618(12) 1.1618(12) 0.5000 0.0517 Uani
Fe1 Fe 0.7270(2) 1.2195(2) 0.7500 0.0233 Uani
O1 O 0.6667 1.3333 0.7500 0.0186 Uani
O2 O 0.8499(8) 1.3019(7) 0.6692(4) 0.0341 Uani
O3 O 0.7800(11) 1.0882(12) 0.7500 0.0474 Uani
O4 O 0.6106(8) 1.1159(8) 0.6719(5) 0.0420 Uani
C1 C 0.716(3) 0.982(3) 0.7500 0.2116 Uani
H1 H 0.6321 0.9569 0.7500 0.2550 Uiso
N1 N 0.738(2) 0.893(2) 0.7500 0.1184 Uani
C2 C 0.8890(11) 1.4050(13) 0.6423(8) 0.0467 Uani
C3 C 0.9760(13) 1.5440(18) 0.5353(7) 0.0638 Uani
H2 H 0.9629 1.6013 0.5598 0.0300 Uiso
C4 C 0.9479(12) 1.4314(13) 0.5685(7) 0.0462 Uani
C5 C 0.9741(11) 1.3495(11) 0.5325(6) 0.0410 Uani
H3 H 0.9548 1.2752 0.5545 0.0500 Uiso
C6 C 0.805(6) 0.896(5) 0.692(3) 0.1700 Uani
C7 C 0.643(5) 0.767(3) 0.7500 0.2989 Uani
Fe1B Fe 0.4925(3) 1.2730(2) 0.7500 0.0233 Uani
Fe1A Fe 0.7805(2) 1.5075(3) 0.7500 0.0233 Uani
O2C O 0.8499(8) 1.3019(7) 0.8308(4) 0.0341 Uani
O4C O 0.6106(8) 1.1159(8) 0.8281(5) 0.0420 Uani
O4A O 0.8841(8) 1.4947(11) 0.6719(5) 0.0420 Uani
C2B C 0.5160(17) 1.1110(11) 0.6423(8) 0.0467 Uani
C3H C 1.0240(13) 1.5680(22) 0.4647(7) 0.0638 Uani
C5H C 1.0259(11) 1.3754(16) 0.4675(6) 0.0410 Uani
C6C C 0.805(6) 0.896(5) 0.808(3) 0.1700 Uani
loop_
_atom_site_aniso_label
_atom_site_aniso_U_11
_atom_site_aniso_U_22
_atom_site_aniso_U_33
_atom_site_aniso_U_23
_atom_site_aniso_U_13
_atom_site_aniso_U_12
O5 0.13(4) 0.13(4) 0.39(12) 0.000 0.000 0.065(18)
Fe2 0.097(4) 0.097(4) 0.105(5) 0.000 0.000 0.0483(19)
Cl1 0.020(5) 0.050(9) 0.095(12) -0.004(9) -0.002(5) 0.025(4)
Cl1A 0.05 0.02 0.095 0.002 0.004 0.025
Cl1B 0.02 0.02 0.095 0.002 -0.002 -0.005
Fe1 0.0169(11) 0.0207(12) 0.0349(10) 0.000 0.000 0.0114(10)
O1 0.001(5) 0.001(5) 0.053(11) 0.000 0.000 0.000(2)
O2 0.04 0.03 0.041 0.012 0.018 0.024
O3 0.041(8) 0.033(8) 0.069(9) 0.000 0.000 0.019(6)
O4 0.041(6) 0.037(5) 0.054(5) -0.017(4) -0.010(4) 0.024(4)
C1 0.042(16) 0.032(17) 0.56(10) 0.000 0.000 0.018(14)
N1 0.11(2) 0.053(14) 0.23(3) 0.000 0.000 0.069(15)
C2 0.032 0.033 0.072 -0.001 0.017 0.014
C3 0.116 0.063 0.038 0.017 0.038 0.064
C4 0.042 0.051 0.052 0.011 0.011 0.028
C5 0.054 0.038 0.047 -0.003 0 0.035
C6 0.31(8) 0.17(5) 0.15(4) 0.06(4) 0.13(5) 0.21(7)
C7 0.21(6) 0.06(3) 0.63(14) 0.000 0.000 0.07(4)
Fe1B 0.0148 0.0169 0.0349 0 0 0.0055
Fe1A 0.0207 0.0148 0.0349 0 0 0.0093
O2C 0.04 0.03 0.041 -0.012 -0.018 0.024
O4C 0.041 0.037 0.054 0.017 0.01 0.024
O4A 0.037 0.03 0.054 0.007 0.017 0.013
C2B 0.037(8) 0.032(8) 0.072(9) -0.017(7) -0.018(6) 0.018(7)
C3H 0.116 0.051 0.038 0.021 0.038 0.052
C5H 0.054 0.022 0.047 0.003 0 0.019
C6C 0.31 0.17 0.15 -0.06 -0.13 0.21
loop_
_geom_bond_atom_site_label_1
_geom_bond_atom_site_label_2
_geom_bond_site_symmetry_1
_geom_bond_site_symmetry_2
Fe1 O1 1_555 1_555
O1 Fe1B 1_555 1_555
O2 Fe1 1_555 1_555
O3 Fe1 1_555 1_555
O4 Fe1 1_555 1_555
C1 O3 1_555 1_555
H1 C1 1_555 1_555
N1 C1 1_555 1_555
C2 O2 1_555 1_555
C3 H2 1_555 1_555
C4 C2 1_555 1_555
C5 C4 1_555 1_555
H3 C5 1_555 1_555
C6 N1 1_555 1_555
C7 N1 1_555 1_555
Fe2 Cl1 1_555 1_555
Fe1A O1 1_555 1_555
O2C Fe1 1_555 1_555
O4C Fe1 1_555 1_555
O4A C2 1_555 1_555
C2B O4 1_555 1_555
C3H C3 1_555 1_555
C5H C5 1_555 1_555
C6C N1 1_555 1_555
Cl1A Fe2 1_555 1_555
Cl1B Fe2 1_555 1_555
C3 C4 1_555 1_555
Fe1A O4A 1_555 1_555

#END
