
#######################################################################
#
#                 Cambridge Crystallographic Data Centre
#                                CCDC 
#
#######################################################################
#
# If this CIF has been generated from an entry in the Cambridge 
# Structural Database, then it will include bibliographic, chemical, 
# crystal, experimental, refinement or atomic coordinate data resulting 
# from the CCDC's data processing and validation procedures.
#
#######################################################################

data_KUTBAE
_chemical_formula_moiety         'Co6 F1 O26 P8'
_symmetry_cell_setting           tetragonal
_symmetry_space_group_name_H-M   'P -4 n 2'
_symmetry_Int_Tables_number      118
_space_group_name_Hall           'P -4 -2n'
loop_
_symmetry_equiv_pos_site_id
_symmetry_equiv_pos_as_xyz
1 x,y,z
2 -x,-y,z
3 y,-x,-z
4 -y,x,-z
5 1/2+x,1/2-y,1/2+z
6 1/2-x,1/2+y,1/2+z
7 1/2+y,1/2+x,1/2-z
8 1/2-y,1/2-x,1/2-z
_cell_length_a                   12.9197(3)
_cell_length_b                   12.9197(3)
_cell_length_c                   9.8491(4)
_cell_angle_alpha                90
_cell_angle_beta                 90
_cell_angle_gamma                90
_cell_volume                     1644
loop_
_atom_site_label
_atom_site_type_symbol
_atom_site_fract_x
_atom_site_fract_y
_atom_site_fract_z
_atom_site_U_iso_or_equiv
_atom_site_thermal_displace_type
O1 O 0.6099(11) 0.8889(10) 0.9307(15) 0.0420 Uani
P1 P 0.6371(8) 0.8663(8) 0.7787(6) 0.0270 Uani
Co1 Co 0.86409(9) 0.94522(9) 0.63135(15) 0.0246 Uani
P2 P 0.82401(19) 0.92776(19) 0.3162(3) 0.0270 Uani
O2 O 0.7883(5) 0.9137(5) 0.4631(8) 0.0337 Uani
O3 O 0.8449(5) 1.0417(5) 0.2850(7) 0.0330 Uani
O4 O 0.9186(6) 0.8606(6) 0.2852(8) 0.0450 Uani
F1 F 1.0000 1.0000 0.5000 0.0237 Uani
O5 O 0.7448(7) 0.8892(9) 0.7518(10) 0.0700 Uani
O6 O 0.7346(5) 0.8949(5) 0.2198(7) 0.0353 Uani
O1G O 0.6111(10) 0.8901(11) 0.5693(15) 0.0420 Uani
P1G P 0.6337(8) 0.8629(8) 0.7213(6) 0.0270 Uani
O5G O 0.6108(9) 0.7552(7) 0.7482(10) 0.0700 Uani
O1A O 1.3901(11) 1.1111(10) 0.9307(15) 0.0420 Uani
P1A P 1.3629(8) 1.1337(8) 0.7787(6) 0.0270 Uani
Co1A Co 1.13591(9) 1.05478(9) 0.63135(15) 0.0246 Uani
P2A P 1.17599(19) 1.07224(19) 0.3162(3) 0.0270 Uani
O2A O 1.2117(5) 1.0863(5) 0.4631(8) 0.0337 Uani
O3A O 1.1551(5) 0.9583(5) 0.2850(7) 0.0330 Uani
O4A O 1.0814(6) 1.1394(6) 0.2852(8) 0.0450 Uani
O5A O 1.2552(7) 1.1108(9) 0.7518(10) 0.0700 Uani
O6A O 1.2654(5) 1.1051(5) 0.2198(7) 0.0353 Uani
O1F O 1.3889(10) 1.1099(11) 0.5693(15) 0.0420 Uani
P1F P 1.3663(8) 1.1371(8) 0.7213(6) 0.0270 Uani
O5F O 1.3892(9) 1.2448(7) 0.7482(10) 0.0700 Uani
Co1B Co 0.94522(9) 1.13591(9) 0.36865(15) 0.0246 Uani
P2B P 0.92776(19) 1.17599(19) 0.6838(3) 0.0270 Uani
O2B O 0.9137(5) 1.2117(5) 0.5369(8) 0.0337 Uani
O3B O 1.0417(5) 1.1551(5) 0.7150(7) 0.0330 Uani
O4B O 0.8606(6) 1.0814(6) 0.7148(8) 0.0450 Uani
O6B O 0.8949(5) 1.2654(5) 0.7802(7) 0.0353 Uani
Co1C Co 1.05478(9) 0.86409(9) 0.36865(15) 0.0246 Uani
P2C P 1.07224(19) 0.82401(19) 0.6838(3) 0.0270 Uani
O2C O 1.0863(5) 0.7883(5) 0.5369(8) 0.0337 Uani
O3C O 0.9583(5) 0.8449(5) 0.7150(7) 0.0330 Uani
O4C O 1.1394(6) 0.9186(6) 0.7148(8) 0.0450 Uani
O6C O 1.1051(5) 0.7346(5) 0.7802(7) 0.0353 Uani
Co1F Co 1.44522(9) 1.36409(9) 0.86865(15) 0.0246 Uani
Co1G Co 0.55478(9) 0.63591(9) 0.86865(15) 0.0246 Uani
O5B O 0.8892(9) 1.2552(7) 0.2482(10) 0.0700 Uani
O5C O 1.1108(9) 0.7448(7) 0.2482(10) 0.0700 Uani
loop_
_atom_site_aniso_label
_atom_site_aniso_U_11
_atom_site_aniso_U_22
_atom_site_aniso_U_33
_atom_site_aniso_U_23
_atom_site_aniso_U_13
_atom_site_aniso_U_12
O1 0.045(10) 0.029(8) 0.052(11) 0.011(7) 0.031(8) 0.014(6)
P1 0.029(3) 0.020(3) 0.032(7) 0.000(4) -0.003(4) -0.0071(17)
Co1 0.0249(6) 0.0223(6) 0.0266(6) -0.0021(6) 0.0006(6) -0.0032(4)
P2 0.0248(12) 0.0264(12) 0.0299(13) 0.0007(10) -0.0074(10) 0.0003(9)
O2 0.031(4) 0.036(4) 0.034(4) 0.007(3) -0.012(3) -0.010(3)
O3 0.032 0.028 0.039 0.007 -0.01 0
O4 0.04 0.043 0.052 -0.018 -0.02 0.013
F1 0.023(3) 0.023(3) 0.025(6) 0.000 0.000 0.000
O5 0.048(5) 0.118(9) 0.044(5) 0.009(5) 0.004(5) -0.045(6)
O6 0.031(4) 0.034(4) 0.041(4) 0.004(3) -0.015(3) -0.005(3)
O1G 0.029 0.045 0.052 0.031 0.011 0.014
P1G 0.02 0.029 0.032 -0.003 0 -0.0071
O5G 0.118 0.048 0.044 0.004 0.009 -0.045
O1A 0.045 0.029 0.052 -0.011 -0.031 0.014
P1A 0.029 0.02 0.032 0 0.003 -0.0071
Co1A 0.0249 0.0223 0.0266 0.0021 -0.0006 -0.0032
P2A 0.0248 0.0264 0.0299 -0.0007 0.0074 0.0003
O2A 0.031 0.036 0.034 -0.007 0.012 -0.01
O3A 0.032 0.028 0.039 -0.007 0.01 0
O4A 0.04 0.043 0.052 0.018 0.02 0.013
O5A 0.048 0.118 0.044 -0.009 -0.004 -0.045
O6A 0.031 0.034 0.041 -0.004 0.015 -0.005
O1F 0.029 0.045 0.052 -0.031 -0.011 0.014
P1F 0.02 0.029 0.032 0.003 0 -0.0071
O5F 0.118 0.048 0.044 -0.004 -0.009 -0.045
Co1B 0.0223 0.0249 0.0266 0.0006 0.0021 0.0032
P2B 0.0264 0.0248 0.0299 -0.0074 -0.0007 -0.0003
O2B 0.036 0.031 0.034 -0.012 -0.007 0.01
O3B 0.028 0.032 0.039 -0.01 -0.007 0
O4B 0.043 0.04 0.052 -0.02 0.018 -0.013
O6B 0.034 0.031 0.041 -0.015 -0.004 0.005
Co1C 0.0223 0.0249 0.0266 -0.0006 -0.0021 0.0032
P2C 0.0264 0.0248 0.0299 0.0074 0.0007 -0.0003
O2C 0.036 0.031 0.034 0.012 0.007 0.01
O3C 0.028 0.032 0.039 0.01 0.007 0
O4C 0.043 0.04 0.052 0.02 -0.018 -0.013
O6C 0.034 0.031 0.041 0.015 0.004 0.005
Co1F 0.0223 0.0249 0.0266 -0.0006 0.0021 -0.0032
Co1G 0.0223 0.0249 0.0266 0.0006 -0.0021 -0.0032
O5B 0.118 0.048 0.044 0.004 -0.009 0.045
O5C 0.118 0.048 0.044 -0.004 0.009 0.045
loop_
_geom_bond_atom_site_label_1
_geom_bond_atom_site_label_2
_geom_bond_site_symmetry_1
_geom_bond_site_symmetry_2
O1 P1 1_555 1_555
P1 O5 1_555 1_555
Co1 O2 1_555 1_555
P2 O2 1_555 1_555
O3 P2 1_555 1_555
O4 P2 1_555 1_555
F1 Co1 1_555 1_555
O5 Co1 1_555 1_555
O6 P2 1_555 1_555
O1G P1 1_555 1_555
P1G O1 1_555 1_555
O5G P1 1_555 1_555
O1A P1A 1_555 1_555
P1A O5A 1_555 1_555
Co1A F1 1_555 1_555
P2A O2A 1_555 1_555
O2A Co1A 1_555 1_555
O3A P2A 1_555 1_555
O4A P2A 1_555 1_555
O5A Co1A 1_555 1_555
O6A P2A 1_555 1_555
O1F P1A 1_555 1_555
P1F O1A 1_555 1_555
O5F P1A 1_555 1_555
Co1B O3 1_555 1_555
P2B O2B 1_555 1_555
O2B Co1B 1_555 1_555
O3B Co1A 1_555 1_555
O4B Co1 1_555 1_555
O6B P2B 1_555 1_555
Co1C O4 1_555 1_555
P2C O2C 1_555 1_555
O2C Co1C 1_555 1_555
O3C Co1 1_555 1_555
O4C Co1A 1_555 1_555
O6C P2C 1_555 1_555
Co1F O5F 1_555 1_555
Co1G O5G 1_555 1_555
O5B Co1B 1_555 1_555
O5C Co1C 1_555 1_555
P1 P1G 1_555 1_555
F1 Co1B 1_555 1_555
F1 Co1C 1_555 1_555
O5 P1G 1_555 1_555
O1G P1G 1_555 1_555
P1G O5G 1_555 1_555
P1A P1F 1_555 1_555
O3A Co1C 1_555 1_555
O4A Co1B 1_555 1_555
O5A P1F 1_555 1_555
O1F P1F 1_555 1_555
P1F O5F 1_555 1_555
P2B O3B 1_555 1_555
P2B O4B 1_555 1_555
P2C O3C 1_555 1_555
P2C O4C 1_555 1_555

#END
