
#######################################################################
#
#                 Cambridge Crystallographic Data Centre
#                                CCDC 
#
#######################################################################
#
# If this CIF has been generated from an entry in the Cambridge 
# Structural Database, then it will include bibliographic, chemical, 
# crystal, experimental, refinement or atomic coordinate data resulting 
# from the CCDC's data processing and validation procedures.
#
#######################################################################

data_LAWFEX
_chemical_formula_moiety         '(C34 H20 Li2 N2 O12 Zn2)n'
_symmetry_cell_setting           monoclinic
_symmetry_space_group_name_H-M   'C 2/c'
_symmetry_Int_Tables_number      15
_space_group_name_Hall           '-C 2yc'
loop_
_symmetry_equiv_pos_site_id
_symmetry_equiv_pos_as_xyz
1 x,y,z
2 -x,y,1/2-z
3 1/2+x,1/2+y,z
4 1/2-x,1/2+y,1/2-z
5 -x,-y,-z
6 x,-y,1/2+z
7 1/2-x,1/2-y,-z
8 1/2+x,1/2-y,1/2+z
_cell_length_a                   17.0602(9)
_cell_length_b                   18.8603(9)
_cell_length_c                   16.9468(11)
_cell_angle_alpha                90
_cell_angle_beta                 113.193(7)
_cell_angle_gamma                90
_cell_volume                     5012.13
loop_
_atom_site_label
_atom_site_type_symbol
_atom_site_fract_x
_atom_site_fract_y
_atom_site_fract_z
Zn1 Zn 0.25031(2) 0.37429(2) 0.41858(2)
Li1 Li 0.0802(3) 0.3836(2) 0.2478(3)
O1 O 0.15730(12) 0.40125(12) 0.45297(12)
O2 O 0.03434(11) 0.38547(9) 0.34013(11)
C1 C 0.07830(16) 0.41057(13) 0.41282(15)
C2 C 0.03727(15) 0.45603(14) 0.45792(15)
C3 C 0.08414(17) 0.51023(16) 0.51241(17)
H1 H 0.1420 0.5173 0.5209
C4 C -0.04749(16) 0.44645(15) 0.44596(17)
H2 H -0.0803 0.4100 0.4090
O3 O 0.25173(14) 0.28411(11) 0.36914(13)
O4 O 0.13896(12) 0.29879(10) 0.24451(13)
C5 C 0.20049(17) 0.26408(14) 0.29438(17)
C6 C 0.21949(18) 0.19285(15) 0.26681(18)
C7 C 0.2871(2) 0.15232(17) 0.32199(18)
H3 H 0.3213 0.1697 0.3776
C8 C 0.3045(2) 0.08691(16) 0.29595(19)
H4 H 0.3510 0.0597 0.3336
C9 C 0.25429(19) 0.06063(15) 0.21484(19)
C10 C 0.18584(19) 0.10002(17) 0.16054(19)
H5 H 0.1500 0.0815 0.1061
C11 C 0.16952(19) 0.16632(17) 0.18542(19)
H6 H 0.1240 0.1940 0.1469
C12 C 0.27534(18) -0.01071(15) 0.18784(18)
O5 O 0.21854(13) -0.03771(11) 0.12071(14)
O6 O 0.34472(14) -0.03852(11) 0.23093(14)
N1 N 0.34203(14) 0.36586(12) 0.53933(14)
C13 C 0.35711(19) 0.42347(15) 0.58991(19)
H7 H 0.3239 0.4649 0.5680
C14 C 0.4187(2) 0.42488(15) 0.6721(2)
H8 H 0.4284 0.4669 0.7055
C15 C 0.46668(16) 0.36429(14) 0.70591(17)
C16 C 0.45032(16) 0.30436(14) 0.65370(17)
H9 H 0.4818 0.2620 0.6744
C17 C 0.38791(16) 0.30732(14) 0.57162(17)
H10 H 0.3771 0.2662 0.5366
O1D O -0.15730(12) 0.59875(12) 0.54703(12)
O2D O -0.03434(11) 0.61453(9) 0.65987(11)
C1D C -0.07830(16) 0.58943(13) 0.58718(15)
C2D C -0.03727(15) 0.54397(14) 0.54208(15)
C3D C -0.08414(17) 0.48977(16) 0.48759(17)
H1D H -0.1420 0.4827 0.4791
C4D C 0.04749(16) 0.55355(15) 0.55404(17)
H2D H 0.0803 0.5900 0.5910
N1A N 0.65797(14) 0.36586(12) 0.96067(14)
C13A C 0.64289(19) 0.42347(15) 0.91009(19)
H7A H 0.6761 0.4649 0.9320
C14A C 0.5813(2) 0.42488(15) 0.8279(2)
H8A H 0.5716 0.4669 0.7945
C15A C 0.53332(16) 0.36429(14) 0.79409(17)
C16A C 0.54968(16) 0.30436(14) 0.84630(17)
H9A H 0.5182 0.2620 0.8256
C17A C 0.61209(16) 0.30732(14) 0.92838(17)
H10A H 0.6229 0.2662 0.9634
Zn1A Zn -0.25031(2) 0.37429(2) 0.08142(2)
Li1A Li -0.0802(3) 0.3836(2) 0.2522(3)
O3A O -0.25173(14) 0.28411(11) 0.13086(13)
O4A O -0.13896(12) 0.29879(10) 0.25549(13)
C5A C -0.20049(17) 0.26408(14) 0.20562(17)
C6A C -0.21949(18) 0.19285(15) 0.23319(18)
C7A C -0.2871(2) 0.15232(17) 0.17801(18)
H3A H -0.3213 0.1697 0.1224
C8A C -0.3045(2) 0.08691(16) 0.20405(19)
H4A H -0.3510 0.0597 0.1664
C9A C -0.25429(19) 0.06063(15) 0.28516(19)
C10A C -0.18584(19) 0.10002(17) 0.33946(19)
H5A H -0.1500 0.0815 0.3939
C11A C -0.16952(19) 0.16632(17) 0.31458(19)
H6A H -0.1240 0.1940 0.3531
C12A C -0.27534(18) -0.01071(15) 0.31216(18)
O5A O -0.21854(13) -0.03771(11) 0.37929(14)
O6A O -0.34472(14) -0.03852(11) 0.26907(14)
Zn1A_2 Zn 0.74969(2) 0.37429(2) 1.08142(2)
Zn1B Zn -0.24969(2) -0.12571(2) 0.41858(2)
Zn1C Zn 0.24969(2) -0.12571(2) 0.08142(2)
Zn1D Zn -0.25031(2) 0.62571(2) 0.58142(2)
Li1B Li -0.4198(3) -0.1164(2) 0.2478(3)
Li1C Li 0.4198(3) -0.1164(2) 0.2522(3)
Li1D Li -0.0802(3) 0.6164(2) 0.7522(3)
Li1E Li 0.0802(3) 0.6164(2) 0.7478(3)
O1A O -0.15730(12) 0.40125(12) 0.04703(12)
O2A O -0.03434(11) 0.38547(9) 0.15987(11)
O5B O -0.28146(13) 0.46229(11) 0.12071(14)
O5C O 0.28146(13) 0.46229(11) 0.37929(14)
O6B O -0.15528(14) 0.46148(11) 0.23093(14)
O6C O 0.15528(14) 0.46148(11) 0.26907(14)
N1A_2 N -0.34203(14) 0.36586(12) -0.03933(14)
loop_
_geom_bond_atom_site_label_1
_geom_bond_atom_site_label_2
_geom_bond_site_symmetry_1
_geom_bond_site_symmetry_2
Zn1 O1 1_555 1_555
Li1 O2 1_555 1_555
O1 C1 1_555 1_555
O2 C1 1_555 1_555
C1 C2 1_555 1_555
C2 C3 1_555 1_555
C3 H1 1_555 1_555
C4 C2 1_555 1_555
H2 C4 1_555 1_555
O3 Zn1 1_555 1_555
O4 Li1 1_555 1_555
C5 O3 1_555 1_555
C6 C5 1_555 1_555
C7 C6 1_555 1_555
H3 C7 1_555 1_555
C8 C7 1_555 1_555
H4 C8 1_555 1_555
C9 C8 1_555 1_555
C10 C9 1_555 1_555
H5 C10 1_555 1_555
C11 C6 1_555 1_555
H6 C11 1_555 1_555
C12 C9 1_555 1_555
O5 C12 1_555 1_555
O6 C12 1_555 1_555
N1 Zn1 1_555 1_555
C13 N1 1_555 1_555
H7 C13 1_555 1_555
C14 C13 1_555 1_555
H8 C14 1_555 1_555
C15 C14 1_555 1_555
C16 C15 1_555 1_555
H9 C16 1_555 1_555
C17 N1 1_555 1_555
H10 C17 1_555 1_555
O1D C1D 1_555 1_555
O2D C1D 1_555 1_555
C1D C2D 1_555 1_555
C2D C3D 1_555 1_555
C3D C4 1_555 1_555
H1D C3D 1_555 1_555
C4D C3 1_555 1_555
H2D C4D 1_555 1_555
N1A C13A 1_555 1_555
C13A H7A 1_555 1_555
C14A C13A 1_555 1_555
H8A C14A 1_555 1_555
C15A C15 1_555 1_555
C16A C15A 1_555 1_555
H9A C16A 1_555 1_555
C17A N1A 1_555 1_555
H10A C17A 1_555 1_555
Zn1A O3A 1_555 1_555
Li1A O2 1_555 1_555
O3A C5A 1_555 1_555
O4A Li1A 1_555 1_555
C5A O4A 1_555 1_555
C6A C5A 1_555 1_555
C7A C6A 1_555 1_555
H3A C7A 1_555 1_555
C8A C7A 1_555 1_555
H4A C8A 1_555 1_555
C9A C8A 1_555 1_555
C10A C9A 1_555 1_555
H5A C10A 1_555 1_555
C11A C6A 1_555 1_555
H6A C11A 1_555 1_555
C12A C9A 1_555 1_555
O5A C12A 1_555 1_555
O6A C12A 1_555 1_555
Zn1A_2 N1A 1_555 1_555
Zn1B O5A 1_555 1_555
Zn1C O5 1_555 1_555
Zn1D O1D 1_555 1_555
Li1B O6A 1_555 1_555
Li1C O6 1_555 1_555
Li1D O2D 1_555 1_555
Li1E O2D 1_555 1_555
O1A Zn1A 1_555 1_555
O2A Li1 1_555 1_555
O5B Zn1A 1_555 1_555
O5C Zn1 1_555 1_555
O6B Li1A 1_555 1_555
O6C Li1 1_555 1_555
N1A_2 Zn1A 1_555 1_555
O4 C5 1_555 1_555
C10 C11 1_555 1_555
C16 C17 1_555 1_555
C2D C4D 1_555 1_555
C14A C15A 1_555 1_555
C16A C17A 1_555 1_555
Li1A O2A 1_555 1_555
C10A C11A 1_555 1_555

#END
