
#######################################################################
#
#                 Cambridge Crystallographic Data Centre
#                                CCDC 
#
#######################################################################
#
# If this CIF has been generated from an entry in the Cambridge 
# Structural Database, then it will include bibliographic, chemical, 
# crystal, experimental, refinement or atomic coordinate data resulting 
# from the CCDC's data processing and validation procedures.
#
#######################################################################

data_PUZJOL
_chemical_formula_moiety         '(C28 H24 Mg3 N2 O16 S4)n'
_symmetry_cell_setting           triclinic
_symmetry_space_group_name_H-M   'P -1'
_symmetry_Int_Tables_number      2
_space_group_name_Hall           '-P 1'
loop_
_symmetry_equiv_pos_site_id
_symmetry_equiv_pos_as_xyz
1 x,y,z
2 -x,-y,-z
_cell_length_a                   9.6615(3)
_cell_length_b                   10.4900(3)
_cell_length_c                   11.9404(3)
_cell_angle_alpha                110.2950(10)
_cell_angle_beta                 91.8750(10)
_cell_angle_gamma                114.8600(10)
_cell_volume                     1006.93
loop_
_atom_site_label
_atom_site_type_symbol
_atom_site_fract_x
_atom_site_fract_y
_atom_site_fract_z
S1 S 0.02389(7) 0.05301(9) 0.24333(6)
S2 S -0.49028(10) 0.54185(8) 0.36569(6)
Mg1 Mg -0.47138(9) 0.08436(9) 0.32661(7)
Mg2 Mg -0.5000 0.0000 0.0000
O1 O -0.5446(3) 0.8841(2) 0.35015(18)
O2 O -0.2383(2) 0.1072(2) 0.33026(17)
O3 O -0.5595(3) 0.7941(2) 0.49545(17)
O4 O -0.4080(3) 0.2850(2) 0.30318(17)
O5 O 0.3068(2) 0.0156(3) 0.25045(18)
O6 O 0.2848(2) -0.0792(2) 0.04735(17)
O7 O -0.40257(19) -0.0144(2) 0.15410(15)
O8 O -0.4536(2) 0.2219(2) 0.10122(16)
C1 C -0.5373(3) 0.7943(3) 0.3924(2)
C2 C -0.4364(3) 0.3066(3) 0.2101(2)
C3 C -0.2725(3) 0.0265(3) 0.2172(2)
C4 C -0.1619(3) -0.0257(3) 0.1609(2)
C5 C 0.0709(3) -0.0616(3) 0.1266(2)
C6 C 0.2348(3) -0.0407(3) 0.1417(2)
C7 C -0.1854(3) -0.1362(3) 0.0493(2)
H1 H -0.2796 -0.1923 -0.0074
C8 C -0.0512(3) -0.1561(3) 0.0289(2)
H2 H -0.0467 -0.2257 -0.0429
C9 C -0.4540(3) 0.4474(3) 0.2307(2)
C10 C -0.5037(3) 0.6697(3) 0.3128(2)
C11 C -0.4797(4) 0.6411(3) 0.1969(2)
H3 H -0.4815 0.6995 0.1539
C12 C -0.4516(4) 0.5127(3) 0.1491(2)
H4 H -0.4336 0.4767 0.0710
S1A S -1.02389(7) -0.05301(9) -0.24333(6)
S2A S -0.50972(10) -0.54185(8) -0.36569(6)
Mg1A Mg -0.52862(9) -0.08436(9) -0.32661(7)
O1A O -0.4554(3) -0.8841(2) -0.35015(18)
O2A O -0.7617(2) -0.1072(2) -0.33026(17)
O3A O -0.4405(3) -0.7941(2) -0.49545(17)
O4A O -0.5920(3) -0.2850(2) -0.30318(17)
O5A O -1.3068(2) -0.0156(3) -0.25045(18)
O6A O -1.2848(2) 0.0792(2) -0.04735(17)
O7A O -0.59743(19) 0.0144(2) -0.15410(15)
O8A O -0.5464(2) -0.2219(2) -0.10122(16)
C1A C -0.4627(3) -0.7943(3) -0.3924(2)
C2A C -0.5636(3) -0.3066(3) -0.2101(2)
C3A C -0.7275(3) -0.0265(3) -0.2172(2)
C4A C -0.8381(3) 0.0257(3) -0.1609(2)
C5A C -1.0709(3) 0.0616(3) -0.1266(2)
C6A C -1.2348(3) 0.0407(3) -0.1417(2)
C7A C -0.8146(3) 0.1362(3) -0.0493(2)
H1A H -0.7204 0.1923 0.0074
C8A C -0.9488(3) 0.1561(3) -0.0289(2)
H2A H -0.9533 0.2257 0.0429
C9A C -0.5460(3) -0.4474(3) -0.2307(2)
C10A C -0.4963(3) -0.6697(3) -0.3128(2)
C11A C -0.5203(4) -0.6411(3) -0.1969(2)
H3A H -0.5185 -0.6995 -0.1539
C12A C -0.5484(4) -0.5127(3) -0.1491(2)
H4A H -0.5664 -0.4767 -0.0710
Mg1_2 Mg -0.47138(9) -0.91564(9) -0.67339(7)
Mg1_3 Mg -0.47138(9) 1.08436(9) 0.32661(7)
Mg1_4 Mg 0.52862(9) 0.08436(9) 0.32661(7)
Mg1A_2 Mg -1.52862(9) -0.08436(9) -0.32661(7)
Mg1A_3 Mg -0.52862(9) -1.08436(9) -0.32661(7)
Mg1A_4 Mg -0.52862(9) 0.91564(9) 0.67339(7)
Mg2_2 Mg -1.5000 0.0000 0.0000
Mg2_3 Mg 0.5000 0.0000 0.0000
O1_2 O -0.5446(3) -0.1159(2) 0.35015(18)
O1A_2 O -0.4554(3) 0.1159(2) -0.35015(18)
O3_2 O -0.5595(3) -0.2059(2) -0.50455(17)
O3A_2 O -0.4405(3) 0.2059(2) 0.50455(17)
O5_2 O -0.6932(2) 0.0156(3) 0.25045(18)
O5A_2 O -0.3068(2) -0.0156(3) -0.25045(18)
O6_2 O -0.7152(2) -0.0792(2) 0.04735(17)
O6A_2 O -0.2848(2) 0.0792(2) -0.04735(17)
N1 N 0.8509(10) 0.1052(15) 0.5635(9)
C13 C 0.8378(15) -0.035(4) 0.501(2)
C14 C 0.982(4) 0.2026(19) 0.6038(15)
N2 N 0.0000 -0.5000 0.0000
C15 C 0.1458(12) -0.4268(13) 0.0537(18)
C15A C -0.1458(12) -0.5732(13) -0.0537(18)
loop_
_geom_bond_atom_site_label_1
_geom_bond_atom_site_label_2
_geom_bond_site_symmetry_1
_geom_bond_site_symmetry_2
S1 C4 1_555 1_555
S2 C9 1_555 1_555
Mg1 O2 1_555 1_555
Mg2 O7 1_555 1_555
O1 C1 1_555 1_555
O2 C3 1_555 1_555
O3 C1 1_555 1_555
O4 Mg1 1_555 1_555
O5 C6 1_555 1_555
O6 C6 1_555 1_555
O7 Mg1 1_555 1_555
O8 Mg2 1_555 1_555
C1 C10 1_555 1_555
C2 O4 1_555 1_555
C3 O7 1_555 1_555
C4 C3 1_555 1_555
C5 S1 1_555 1_555
C6 C5 1_555 1_555
C7 C4 1_555 1_555
H1 C7 1_555 1_555
C8 C5 1_555 1_555
H2 C8 1_555 1_555
C9 C2 1_555 1_555
C10 S2 1_555 1_555
C11 C10 1_555 1_555
H3 C11 1_555 1_555
C12 C9 1_555 1_555
H4 C12 1_555 1_555
N1 C13 1_555 1_555
C14 N1 1_555 1_555
N2 C15 1_555 1_555
S1A C4A 1_555 1_555
S2A C9A 1_555 1_555
Mg1A O2A 1_555 1_555
O1A C1A 1_555 1_555
O2A C3A 1_555 1_555
O3A C1A 1_555 1_555
O4A Mg1A 1_555 1_555
O5A C6A 1_555 1_555
O6A C6A 1_555 1_555
O7A Mg2 1_555 1_555
O8A Mg2 1_555 1_555
C1A C10A 1_555 1_555
C2A O4A 1_555 1_555
C3A O7A 1_555 1_555
C4A C3A 1_555 1_555
C5A S1A 1_555 1_555
C6A C5A 1_555 1_555
C7A C4A 1_555 1_555
H1A C7A 1_555 1_555
C8A C5A 1_555 1_555
H2A C8A 1_555 1_555
C9A C2A 1_555 1_555
C10A S2A 1_555 1_555
C11A C10A 1_555 1_555
H3A C11A 1_555 1_555
C12A C9A 1_555 1_555
H4A C12A 1_555 1_555
Mg1_2 O3A 1_555 1_555
Mg1_3 O1 1_555 1_555
Mg1_4 O5 1_555 1_555
Mg1A_2 O5A 1_555 1_555
Mg1A_3 O1A 1_555 1_555
Mg1A_4 O3 1_555 1_555
Mg2_2 O6A 1_555 1_555
Mg2_3 O6 1_555 1_555
O1_2 Mg1 1_555 1_555
O1A_2 Mg1A 1_555 1_555
O3_2 Mg1A 1_555 1_555
O3A_2 Mg1 1_555 1_555
O5_2 Mg1 1_555 1_555
O5A_2 Mg1A 1_555 1_555
O6_2 Mg2 1_555 1_555
O6A_2 Mg2 1_555 1_555
C15A N2 1_555 1_555
O8 C2 1_555 1_555
C7 C8 1_555 1_555
C11 C12 1_555 1_555
Mg1A O7A 1_555 1_555
O8A C2A 1_555 1_555
C7A C8A 1_555 1_555
C11A C12A 1_555 1_555

#END
