
#######################################################################
#
#                 Cambridge Crystallographic Data Centre
#                                CCDC 
#
#######################################################################
#
# If this CIF has been generated from an entry in the Cambridge 
# Structural Database, then it will include bibliographic, chemical, 
# crystal, experimental, refinement or atomic coordinate data resulting 
# from the CCDC's data processing and validation procedures.
#
#######################################################################

data_PUZLAZ
_chemical_formula_moiety         '(C14 H12 In1 N1 O8 S2)n'
_symmetry_cell_setting           tetragonal
_symmetry_space_group_name_H-M   'P 43 2 2'
_symmetry_Int_Tables_number      95
_space_group_name_Hall           'P 4cw 2c'
loop_
_symmetry_equiv_pos_site_id
_symmetry_equiv_pos_as_xyz
1 x,y,z
2 -x,-y,1/2+z
3 x,-y,1/2-z
4 -x,y,-z
5 -y,-x,3/4-z
6 y,x,1/4-z
7 y,-x,1/4+z
8 -y,x,3/4+z
_cell_length_a                   13.5642(13)
_cell_length_b                   13.5642(13)
_cell_length_c                   15.6425(12)
_cell_angle_alpha                90
_cell_angle_beta                 90
_cell_angle_gamma                90
_cell_volume                     2878.02
loop_
_atom_site_label
_atom_site_type_symbol
_atom_site_fract_x
_atom_site_fract_y
_atom_site_fract_z
_atom_site_U_iso_or_equiv
_atom_site_thermal_displace_type
In1 In 0.5000 0.0766 0.0000 0.0363 Uani
S1 S 0.7236 -0.2153 -0.1079 0.0607 Uani
O1 O 0.6210 -0.0487 -0.0145 0.0673 Uani
O2 O 0.5272 -0.0030 -0.1214 0.0570 Uani
O3 O 0.8074 -0.3934 -0.2915 0.0623 Uani
O4 O 0.8523 -0.3857 -0.1578 0.0590 Uani
C1 C 0.7989 -0.3555 -0.2176 0.0543 Uani
C2 C 0.5938 -0.0579 -0.0900 0.0557 Uani
C3 C 0.6368 -0.1352 -0.1457 0.0577 Uani
C4 C 0.7309 -0.2730 -0.2051 0.0563 Uani
C5 C 0.6678 -0.2342 -0.2628 0.0840 Uani
H1 H 0.6598 -0.2579 -0.3182 0.1010 Uiso
C6 C 0.6155 -0.1529 -0.2287 0.0800 Uani
H2 H 0.5709 -0.1155 -0.2602 0.0960 Uiso
S1C S 0.2764 -0.2153 0.1079 0.0607 Uani
O1C O 0.3790 -0.0487 0.0145 0.0673 Uani
O2C O 0.4728 -0.0030 0.1214 0.0570 Uani
O3C O 0.1926 -0.3934 0.2915 0.0623 Uani
O4C O 0.1477 -0.3857 0.1578 0.0590 Uani
C1C C 0.2011 -0.3555 0.2176 0.0543 Uani
C2C C 0.4062 -0.0579 0.0900 0.0557 Uani
C3C C 0.3632 -0.1352 0.1457 0.0577 Uani
C4C C 0.2691 -0.2730 0.2051 0.0563 Uani
C5C C 0.3322 -0.2342 0.2628 0.0840 Uani
H1C H 0.3402 -0.2579 0.3182 0.1010 Uiso
C6C C 0.3845 -0.1529 0.2287 0.0800 Uani
H2C H 0.4291 -0.1155 0.2602 0.0960 Uiso
In1D In 0.9234 -0.5000 -0.2500 0.0363 Uani
In1E In 0.0766 -0.5000 0.2500 0.0363 Uani
O3D O 0.3934 0.1926 0.0415 0.0623 Uani
O3F O 0.6066 0.1926 -0.0415 0.0623 Uani
O4D O 0.3857 0.1477 -0.0922 0.0590 Uani
O4F O 0.6143 0.1477 0.0922 0.0590 Uani
N1 N 0.6797 0.0000 0.2500 0.3280 Uani
C7 C 0.6859 -0.0826 0.1863 0.4200 Uani
C7B C 0.6859 0.0826 0.3137 0.4200 Uani
loop_
_atom_site_aniso_label
_atom_site_aniso_U_11
_atom_site_aniso_U_22
_atom_site_aniso_U_33
_atom_site_aniso_U_23
_atom_site_aniso_U_13
_atom_site_aniso_U_12
In1 0.033 0.037 0.039 0.000 0.001 0.000
S1 0.071 0.059 0.052 -0.007 -0.006 0.028
O1 0.078 0.068 0.056 -0.010 0.005 0.021
O2 0.061 0.047 0.063 0.002 0.014 0.016
O3 0.077 0.059 0.051 -0.001 0.003 0.025
O4 0.065 0.054 0.058 -0.007 -0.012 0.02
C1 0.06 0.049 0.054 -0.003 0.006 0.013
C2 0.062 0.047 0.058 0.000 0.020 0.006
C3 0.067 0.053 0.053 0.006 0.007 0.029
C4 0.066 0.056 0.047 -0.003 0.003 0.027
C5 0.115 0.094 0.043 0.001 0.002 0.061
C6 0.098 0.087 0.055 0.000 0.000 0.056
S1C 0.071 0.059 0.052 0.007 -0.006 -0.028
O1C 0.078 0.068 0.056 0.01 0.005 -0.021
O2C 0.061 0.047 0.063 -0.002 0.014 -0.016
O3C 0.077 0.059 0.051 0.001 0.003 -0.025
O4C 0.065 0.054 0.058 0.007 -0.012 -0.02
C1C 0.06 0.049 0.054 0.003 0.006 -0.013
C2C 0.062 0.047 0.058 0 0.02 -0.006
C3C 0.067 0.053 0.053 -0.006 0.007 -0.029
C4C 0.066 0.056 0.047 0.003 0.003 -0.027
C5C 0.115 0.094 0.043 -0.001 0.002 -0.061
C6C 0.098 0.087 0.055 0 0 -0.056
In1D 0.037 0.033 0.039 0.001 0 0
In1E 0.037 0.033 0.039 -0.001 0 0
O3D 0.059 0.077 0.051 0.003 -0.001 0.025
O3F 0.059 0.077 0.051 -0.003 -0.001 -0.025
O4D 0.054 0.065 0.058 -0.012 -0.007 0.02
O4F 0.054 0.065 0.058 0.012 -0.007 -0.02
N1 0.328 0.328 0.328 0.000 0.000 0.000
C7 0.420 0.420 0.420 0.000 0.000 0.000
C7B 0.42 0.42 0.42 0 0 0
loop_
_geom_bond_atom_site_label_1
_geom_bond_atom_site_label_2
_geom_bond_site_symmetry_1
_geom_bond_site_symmetry_2
In1 O1 1_555 1_555
S1 C3 1_555 1_555
O1 C2 1_555 1_555
O2 In1 1_555 1_555
O3 C1 1_555 1_555
O4 C1 1_555 1_555
C1 C4 1_555 1_555
C2 O2 1_555 1_555
C3 C2 1_555 1_555
C4 S1 1_555 1_555
C5 C4 1_555 1_555
H1 C5 1_555 1_555
C6 C3 1_555 1_555
H2 C6 1_555 1_555
N1 C7 1_555 1_555
S1C C3C 1_555 1_555
O1C In1 1_555 1_555
O2C In1 1_555 1_555
O3C C1C 1_555 1_555
O4C C1C 1_555 1_555
C1C C4C 1_555 1_555
C2C O1C 1_555 1_555
C3C C2C 1_555 1_555
C4C S1C 1_555 1_555
C5C C4C 1_555 1_555
H1C C5C 1_555 1_555
C6C C3C 1_555 1_555
H2C C6C 1_555 1_555
In1D O3 1_555 1_555
In1E O3C 1_555 1_555
O3D In1 1_555 1_555
O3F In1 1_555 1_555
O4D In1 1_555 1_555
O4F In1 1_555 1_555
C7B N1 1_555 1_555
O4 In1D 1_555 1_555
C5 C6 1_555 1_555
O2C C2C 1_555 1_555
O4C In1E 1_555 1_555
C5C C6C 1_555 1_555

#END
