
#######################################################################
#
#                 Cambridge Crystallographic Data Centre
#                                CCDC 
#
#######################################################################
#
# If this CIF has been generated from an entry in the Cambridge 
# Structural Database, then it will include bibliographic, chemical, 
# crystal, experimental, refinement or atomic coordinate data resulting 
# from the CCDC's data processing and validation procedures.
#
#######################################################################

data_FENROG
_chemical_formula_moiety         '(C4 H12 Cl1 Er1 O8)n'
_symmetry_cell_setting           monoclinic
_symmetry_space_group_name_H-M   'C 2/c'
_symmetry_Int_Tables_number      15
_space_group_name_Hall           '-C 2yc'
loop_
_symmetry_equiv_pos_site_id
_symmetry_equiv_pos_as_xyz
1 x,y,z
2 1/2+x,1/2+y,z
3 -x,y,1/2-z
4 1/2-x,1/2+y,1/2-z
5 -x,-y,-z
6 1/2-x,1/2-y,-z
7 x,-y,1/2+z
8 1/2+x,1/2-y,1/2+z
_cell_length_a                   13.047(2)
_cell_length_b                   11.6893(14)
_cell_length_c                   7.8244(12)
_cell_angle_alpha                90
_cell_angle_beta                 109.954(17)
_cell_angle_gamma                90
_cell_volume                     1121.66
loop_
_atom_site_label
_atom_site_type_symbol
_atom_site_fract_x
_atom_site_fract_y
_atom_site_fract_z
_atom_site_U_iso_or_equiv
_atom_site_thermal_displace_type
Er1 Er 1.0000 0.055401(19) 0.7500 0.0101 Uani
C1 C 1.1357(3) -0.1338(3) 0.9504(5) 0.0117 Uani
O1 O 1.1311(2) -0.0985(2) 0.7967(4) 0.0190 Uani
O2 O 1.0729(2) -0.0890(2) 1.0270(4) 0.0168 Uani
C2 C 1.2164(3) -0.2242(3) 1.0525(5) 0.0161 Uani
H1 H 1.1768 -0.2851 1.0869 0.0420 Uiso
H2 H 1.2656 -0.1905 1.1636 0.0420 Uiso
O3 O 1.0000 0.2559(4) 0.7500 0.0295 Uani
O4 O 0.8403(3) 0.1303(3) 0.5313(4) 0.0209 Uani
H3 H 1.047(3) 0.298(4) 0.815(6) 0.0190 Uiso
H6 H 0.831(5) 0.126(6) 0.423(3) 0.0400 Uiso
H7 H 0.780(2) 0.116(4) 0.532(7) 0.0180 Uiso
Er1F Er 1.0000 -0.055401(19) 1.2500 0.0101 Uani
Er1G Er 1.5000 -0.555401(19) 1.2500 0.0101 Uani
Er1A Er 1.5000 -0.444599(19) 0.7500 0.0101 Uani
C1E C 1.3643(3) -0.3662(3) 1.0496(5) 0.0117 Uani
O1E O 1.3689(2) -0.4015(2) 1.2033(4) 0.0190 Uani
O1B O 0.8689(2) -0.0985(2) 0.7033(4) 0.0190 Uani
O2E O 1.4271(2) -0.4110(2) 0.9730(4) 0.0168 Uani
O2F O 1.0729(2) 0.0890(2) 0.5270(4) 0.0168 Uani
O2D O 0.9271(2) 0.0890(2) 0.9730(4) 0.0168 Uani
O2B O 0.9271(2) -0.0890(2) 0.4730(4) 0.0168 Uani
C2E C 1.2836(3) -0.2758(3) 0.9475(5) 0.0161 Uani
H1E H 1.3232 -0.2149 0.9131 0.0420 Uiso
H2E H 1.2344 -0.3095 0.8364 0.0420 Uiso
O4B O 1.1597(3) 0.1303(3) 0.9687(4) 0.0209 Uani
H3B H 0.953(3) 0.298(4) 0.685(6) 0.0190 Uiso
H6B H 1.169(5) 0.126(6) 1.077(3) 0.0400 Uiso
H7B H 1.220(2) 0.116(4) 0.968(7) 0.0180 Uiso
O5 O 0.6308(3) 0.0783(4) 0.4887(6) 0.0393 Uani
H4 H 0.605(6) 0.085(6) 0.570(8) 0.0500 Uiso
H5 H 0.602(6) 0.021(4) 0.433(10) 0.0600 Uiso
Cl1 Cl 1.0000 -0.37771(16) 0.7500 0.0386 Uani
loop_
_atom_site_aniso_label
_atom_site_aniso_U_11
_atom_site_aniso_U_22
_atom_site_aniso_U_33
_atom_site_aniso_U_23
_atom_site_aniso_U_13
_atom_site_aniso_U_12
Er1 0.01051(13) 0.01088(13) 0.01024(14) 0.000 0.00511(8) 0.000
C1 0.0109(17) 0.0129(15) 0.0122(18) 0.0001(12) 0.0050(14) 0.0037(12)
O1 0.0229(15) 0.0229(13) 0.0131(14) 0.0035(11) 0.0087(11) 0.0069(11)
O2 0.0162(14) 0.0175(12) 0.0189(15) 0.0001(10) 0.0088(11) 0.0059(10)
C2 0.0162(18) 0.0189(17) 0.0140(19) 0.0046(14) 0.0062(15) 0.0089(14)
O3 0.029(2) 0.018(2) 0.030(3) 0.000 -0.005(2) 0.000
O4 0.0182(15) 0.0269(14) 0.0179(16) -0.0003(11) 0.0067(12) 0.0030(12)
Er1F 0.01051 0.01088 0.01024 0 0.00511 0
Er1G 0.01051 0.01088 0.01024 0 0.00511 0
Er1A 0.01051 0.01088 0.01024 0 0.00511 0
C1E 0.0109 0.0129 0.0122 0.0001 0.005 0.0037
O1E 0.0229 0.0229 0.0131 0.0035 0.0087 0.0069
O1B 0.0229 0.0229 0.0131 -0.0035 0.0087 -0.0069
O2E 0.0162 0.0175 0.0189 0.0001 0.0088 0.0059
O2F 0.0162 0.0175 0.0189 -0.0001 0.0088 -0.0059
O2D 0.0162 0.0175 0.0189 0.0001 0.0088 0.0059
O2B 0.0162 0.0175 0.0189 -0.0001 0.0088 -0.0059
C2E 0.0162 0.0189 0.014 0.0046 0.0062 0.0089
O4B 0.0182 0.0269 0.0179 0.0003 0.0067 -0.003
O5 0.0268(19) 0.047(2) 0.044(2) -0.0029(18) 0.0120(17) -0.0086(16)
Cl1 0.0345(9) 0.0371(9) 0.0430(11) 0.000 0.0117(8) 0.000
loop_
_geom_bond_atom_site_label_1
_geom_bond_atom_site_label_2
_geom_bond_site_symmetry_1
_geom_bond_site_symmetry_2
Er1 O1 1_555 1_555
C1 O1 1_555 1_555
O2 Er1 1_555 1_555
C2 C1 1_555 1_555
H1 C2 1_555 1_555
H2 C2 1_555 1_555
O3 Er1 1_555 1_555
O4 Er1 1_555 1_555
O5 H4 1_555 1_555
H3 O3 1_555 1_555
H5 O5 1_555 1_555
H6 O4 1_555 1_555
H7 O4 1_555 1_555
Er1F O2 1_555 1_555
Er1G O1E 1_555 1_555
Er1A O2E 1_555 1_555
C1E O1E 1_555 1_555
O1B Er1 1_555 1_555
O2E Er1G 1_555 1_555
O2F Er1 1_555 1_555
O2D Er1 1_555 1_555
O2B Er1 1_555 1_555
C2E C2 1_555 1_555
H1E C2E 1_555 1_555
H2E C2E 1_555 1_555
O4B Er1 1_555 1_555
H3B O3 1_555 1_555
H6B O4B 1_555 1_555
H7B O4B 1_555 1_555
C1 O2 1_555 1_555
Er1F O2D 1_555 1_555
C1E O2E 1_555 1_555
C1E C2E 1_555 1_555

#END
