
#######################################################################
#
#                 Cambridge Crystallographic Data Centre
#                                CCDC 
#
#######################################################################
#
# If this CIF has been generated from an entry in the Cambridge 
# Structural Database, then it will include bibliographic, chemical, 
# crystal, experimental, refinement or atomic coordinate data resulting 
# from the CCDC's data processing and validation procedures.
#
#######################################################################

data_ONUJUE
_chemical_formula_moiety         'C48 H36 Fe9 O22'
_symmetry_cell_setting           hexagonal
_symmetry_space_group_name_H-M   'P 63/m m c'
_symmetry_Int_Tables_number      194
_space_group_name_Hall           '-P 6c 2c'
loop_
_symmetry_equiv_pos_site_id
_symmetry_equiv_pos_as_xyz
1 x,y,z
2 -y,x-y,z
3 -x+y,-x,z
4 -x,-y,1/2+z
5 y,-x+y,1/2+z
6 x-y,x,1/2+z
7 y,x,-z
8 x-y,-y,-z
9 -x,-x+y,-z
10 -y,-x,1/2-z
11 -x+y,y,1/2-z
12 x,x-y,1/2-z
13 -x,-y,-z
14 y,-x+y,-z
15 x-y,x,-z
16 x,y,1/2-z
17 -y,x-y,1/2-z
18 -x+y,-x,1/2-z
19 -y,-x,z
20 -x+y,y,z
21 x,x-y,z
22 y,x,1/2+z
23 x-y,-y,1/2+z
24 -x,-x+y,1/2+z
_cell_length_a                   14.741(2)
_cell_length_b                   14.741(2)
_cell_length_c                   17.135(3)
_cell_angle_alpha                90
_cell_angle_beta                 90
_cell_angle_gamma                120
_cell_volume                     3224.55
loop_
_atom_site_label
_atom_site_type_symbol
_atom_site_fract_x
_atom_site_fract_y
_atom_site_fract_z
Fe1 Fe 0.5166(4) 0.25828(19) 0.2500
O1 O 0.5034(9) 0.1572(10) 0.1662(8)
O2 O 0.6667 0.3333 0.2500
O3 O 0.3511(19) 0.1755(10) 0.2500
C1 C 0.5655(10) 0.1309(19) 0.1392(14)
C2 C 0.5314(11) 0.063(2) 0.0657(13)
C3 C 0.374(3) -0.071(3) 0.143(2)
H1 H 0.3715 -0.1335 0.1605
H2 H 0.3038 -0.0844 0.1335
H3 H 0.4062 -0.0173 0.1821
C4 C 0.5905(19) 0.097(2) -0.0017(15)
C5 C 0.438(2) -0.033(2) 0.0668(16)
O1L O 0.4966(9) -0.1572(10) -0.1662(8)
C1G C 0.4346(21) -0.1309(19) -0.1392(14)
C2G C 0.4684(23) -0.063(2) -0.0657(13)
C3L C 0.626(3) 0.071(3) -0.143(2)
H1L H 0.6285 0.1335 -0.1605
H2L H 0.6962 0.0844 -0.1335
H3L H 0.5938 0.0173 -0.1821
C4L C 0.4095(19) -0.097(2) 0.0017(15)
C5L C 0.562(2) 0.033(2) -0.0668(16)
O1S O 0.6538(13) 0.1572(10) 0.1662(8)
C3S C 0.555(4) -0.071(3) 0.143(2)
H1S H 0.4950 -0.1335 0.1605
H2S H 0.6118 -0.0844 0.1335
H3S H 0.5765 -0.0173 0.1821
C4S C 0.5065(28) 0.097(2) -0.0017(15)
C5S C 0.529(3) -0.033(2) 0.0668(16)
O1G O 0.3462(13) -0.1572(10) -0.1662(8)
C3G C 0.445(4) 0.071(3) -0.143(2)
H1G H 0.5050 0.1335 -0.1605
H2G H 0.3882 0.0844 -0.1335
H3G H 0.4235 0.0173 -0.1821
C4G C 0.4935(28) -0.097(2) 0.0017(15)
C5G C 0.471(3) 0.033(2) -0.0668(16)
Fe1A Fe 0.74172(19) 0.25832(44) 0.2500
O1A O 0.8428(10) 0.3462(13) 0.1662(8)
O3A O 0.8245(10) 0.1756(21) 0.2500
C1A C 0.8691(19) 0.4346(21) 0.1392(14)
C2A C 0.937(2) 0.4684(23) 0.0657(13)
C3A C 1.071(3) 0.445(4) 0.143(2)
H1A H 1.1335 0.5050 0.1605
H2A H 1.0844 0.3882 0.1335
H3A H 1.0173 0.4235 0.1821
C4A C 0.903(2) 0.4935(28) -0.0017(15)
C5A C 1.033(2) 0.471(3) 0.0668(16)
O1M O 1.1572(10) 0.6538(13) -0.1662(8)
C1F C 1.1309(19) 0.5655(10) -0.1392(14)
C2F C 1.063(2) 0.5314(11) -0.0657(13)
C3M C 0.929(3) 0.555(4) -0.143(2)
H1M H 0.8665 0.4950 -0.1605
H2M H 0.9156 0.6118 -0.1335
H3M H 0.9827 0.5765 -0.1821
C4M C 1.097(2) 0.5065(28) 0.0017(15)
C5M C 0.967(2) 0.529(3) -0.0668(16)
O1R O 0.8428(10) 0.4966(9) 0.1662(8)
C3R C 1.071(3) 0.626(3) 0.143(2)
H1R H 1.1335 0.6285 0.1605
H2R H 1.0844 0.6962 0.1335
H3R H 1.0173 0.5938 0.1821
C4R C 0.903(2) 0.4095(19) -0.0017(15)
C5R C 1.033(2) 0.562(2) 0.0668(16)
O1F O 1.1572(10) 0.5034(9) -0.1662(8)
C3F C 0.929(3) 0.374(3) -0.143(2)
H1F H 0.8665 0.3715 -0.1605
H2F H 0.9156 0.3038 -0.1335
H3F H 0.9827 0.4062 -0.1821
C4F C 1.097(2) 0.5905(19) 0.0017(15)
C5F C 0.967(2) 0.438(2) -0.0668(16)
Fe1B Fe 0.74168(44) 0.4834(4) 0.2500
O1B O 0.6538(13) 0.4966(9) 0.1662(8)
O3B O 0.8244(21) 0.6489(19) 0.2500
C1B C 0.5654(21) 0.4345(10) 0.1392(14)
C2B C 0.5316(23) 0.4686(11) 0.0657(13)
C3B C 0.555(4) 0.626(3) 0.143(2)
H1B H 0.4950 0.6285 0.1605
H2B H 0.6118 0.6962 0.1335
H3B H 0.5765 0.5938 0.1821
C4B C 0.5065(28) 0.4095(19) -0.0017(15)
C5B C 0.529(3) 0.562(2) 0.0668(16)
O1N O 0.3462(13) 0.5034(9) -0.1662(8)
C1H C 0.4345(10) 0.5654(21) -0.1392(14)
C2H C 0.4686(11) 0.5316(23) -0.0657(13)
C3N C 0.445(4) 0.374(3) -0.143(2)
H1N H 0.5050 0.3715 -0.1605
H2N H 0.3882 0.3038 -0.1335
H3N H 0.4235 0.4062 -0.1821
C4N C 0.4935(28) 0.5905(19) 0.0017(15)
C5N C 0.471(3) 0.438(2) -0.0668(16)
O1T O 0.5034(9) 0.3462(13) 0.1662(8)
C3T C 0.374(3) 0.445(4) 0.143(2)
H1T H 0.3715 0.5050 0.1605
H2T H 0.3038 0.3882 0.1335
H3T H 0.4062 0.4235 0.1821
C4T C 0.5905(19) 0.4935(28) -0.0017(15)
C5T C 0.438(2) 0.471(3) 0.0668(16)
O1H O 0.4966(9) 0.6538(13) -0.1662(8)
C3H C 0.626(3) 0.555(4) -0.143(2)
H1H H 0.6285 0.4950 -0.1605
H2H H 0.6962 0.6118 -0.1335
H3H H 0.5938 0.5765 -0.1821
C4H C 0.4095(19) 0.5065(28) 0.0017(15)
C5H C 0.562(2) 0.529(3) -0.0668(16)
Fe1C Fe 0.4834(4) -0.25828(19) -0.2500
Fe1C_2 Fe 0.4834(4) 0.74172(19) -0.2500
Fe1D Fe 0.25828(19) -0.25832(44) -0.2500
Fe1D_2 Fe 1.25828(19) 0.74168(44) -0.2500
Fe1E Fe 0.25832(44) 0.5166(4) -0.2500
Fe1E_2 Fe 1.25832(44) 0.5166(4) -0.2500
O1I O 0.8428(10) 0.4966(9) 0.3338(8)
O1J O 0.6538(13) 0.1572(10) 0.3338(8)
O1K O 0.5034(9) 0.3462(13) 0.3338(8)
O1O O 0.5034(9) 0.1572(10) 0.3338(8)
O1P O 0.8428(10) 0.3462(13) 0.3338(8)
O1Q O 0.6538(13) 0.4966(9) 0.3338(8)
loop_
_geom_bond_atom_site_label_1
_geom_bond_atom_site_label_2
_geom_bond_site_symmetry_1
_geom_bond_site_symmetry_2
Fe1 O1 1_555 1_555
O1 C1 1_555 1_555
O2 Fe1 1_555 1_555
O3 Fe1 1_555 1_555
C1 C2 1_555 1_555
C2 C4 1_555 1_555
C3 H1 1_555 1_555
H2 C3 1_555 1_555
H3 C3 1_555 1_555
C4 C5L 1_555 1_555
C5 C2 1_555 1_555
O1L C1G 1_555 1_555
C1G C2G 1_555 1_555
C2G C4L 1_555 1_555
C3L H1L 1_555 1_555
H2L C3L 1_555 1_555
H3L C3L 1_555 1_555
C4L C5 1_555 1_555
C5L C2G 1_555 1_555
O1S C1 1_555 1_555
C3S H1S 1_555 1_555
H2S C3S 1_555 1_555
H3S C3S 1_555 1_555
C4S C2 1_555 1_555
C5S C2 1_555 1_555
O1G C1G 1_555 1_555
C3G H1G 1_555 1_555
H2G C3G 1_555 1_555
H3G C3G 1_555 1_555
C4G C2G 1_555 1_555
C5G C2G 1_555 1_555
Fe1A O2 1_555 1_555
O1A Fe1A 1_555 1_555
O3A Fe1A 1_555 1_555
C1A O1A 1_555 1_555
C2A C1A 1_555 1_555
C3A H1A 1_555 1_555
H2A C3A 1_555 1_555
H3A C3A 1_555 1_555
C4A C2A 1_555 1_555
C5A C2A 1_555 1_555
O1M C1F 1_555 1_555
C1F C2F 1_555 1_555
C2F C4M 1_555 1_555
C3M H1M 1_555 1_555
H2M C3M 1_555 1_555
H3M C3M 1_555 1_555
C4M C5A 1_555 1_555
C5M C4A 1_555 1_555
O1R C1A 1_555 1_555
C3R H1R 1_555 1_555
H2R C3R 1_555 1_555
H3R C3R 1_555 1_555
C4R C2A 1_555 1_555
C5R C2A 1_555 1_555
O1F C1F 1_555 1_555
C3F H1F 1_555 1_555
H2F C3F 1_555 1_555
H3F C3F 1_555 1_555
C4F C2F 1_555 1_555
C5F C2F 1_555 1_555
Fe1B O2 1_555 1_555
O1B Fe1B 1_555 1_555
O3B Fe1B 1_555 1_555
C1B O1B 1_555 1_555
C2B C1B 1_555 1_555
C3B H1B 1_555 1_555
H2B C3B 1_555 1_555
H3B C3B 1_555 1_555
C4B C2B 1_555 1_555
C5B C2B 1_555 1_555
O1N C1H 1_555 1_555
C1H C2H 1_555 1_555
C2H C4N 1_555 1_555
C3N H1N 1_555 1_555
H2N C3N 1_555 1_555
H3N C3N 1_555 1_555
C4N C5B 1_555 1_555
C5N C4B 1_555 1_555
O1T Fe1 1_555 1_555
C3T H1T 1_555 1_555
H2T C3T 1_555 1_555
H3T C3T 1_555 1_555
C4T C2B 1_555 1_555
C5T C2B 1_555 1_555
O1H C1H 1_555 1_555
C3H H1H 1_555 1_555
H2H C3H 1_555 1_555
H3H C3H 1_555 1_555
C4H C2H 1_555 1_555
C5H C2H 1_555 1_555
Fe1C O1L 1_555 1_555
Fe1C_2 O1H 1_555 1_555
Fe1D O1G 1_555 1_555
Fe1D_2 O1M 1_555 1_555
Fe1E O1N 1_555 1_555
Fe1E_2 O1F 1_555 1_555
O1I Fe1B 1_555 1_555
O1J Fe1A 1_555 1_555
O1K Fe1 1_555 1_555
O1O Fe1 1_555 1_555
O1P Fe1A 1_555 1_555
O1Q Fe1B 1_555 1_555
C3 C5 1_555 1_555
C4 C4S 1_555 1_555
C5 C5S 1_555 1_555
C3L C5L 1_555 1_555
C4L C4G 1_555 1_555
C5L C5G 1_555 1_555
O1S Fe1A 1_555 1_555
C3S C5S 1_555 1_555
C4S C5G 1_555 1_555
C5S C4G 1_555 1_555
C3G C5G 1_555 1_555
C3A C5A 1_555 1_555
C4A C4R 1_555 1_555
C5A C5R 1_555 1_555
C2F C5M 1_555 1_555
C3M C5M 1_555 1_555
C4M C4F 1_555 1_555
C5M C5F 1_555 1_555
O1R Fe1B 1_555 1_555
C3R C5R 1_555 1_555
C4R C5F 1_555 1_555
C5R C4F 1_555 1_555
C3F C5F 1_555 1_555
C1B O1T 1_555 1_555
C3B C5B 1_555 1_555
C4B C4T 1_555 1_555
C5B C5T 1_555 1_555
C2H C5N 1_555 1_555
C3N C5N 1_555 1_555
C4N C4H 1_555 1_555
C5N C5H 1_555 1_555
C3T C5T 1_555 1_555
C4T C5H 1_555 1_555
C5T C4H 1_555 1_555
C3H C5H 1_555 1_555

#END
