
#######################################################################
#
#                 Cambridge Crystallographic Data Centre
#                                CCDC 
#
#######################################################################
#
# If this CIF has been generated from an entry in the Cambridge 
# Structural Database, then it will include bibliographic, chemical, 
# crystal, experimental, refinement or atomic coordinate data resulting 
# from the CCDC's data processing and validation procedures.
#
#######################################################################

data_VAQLEG
_chemical_formula_moiety         '(C10 H16 Cd1 N2 O7)n'
_symmetry_cell_setting           tetragonal
_symmetry_space_group_name_H-M   'I -4 2 d'
_symmetry_Int_Tables_number      122
_space_group_name_Hall           'I -4 2bw'
loop_
_symmetry_equiv_pos_site_id
_symmetry_equiv_pos_as_xyz
1 x,y,z
2 y,-x,-z
3 -x,-y,z
4 -y,x,-z
5 1/2-x,y,3/4-z
6 1/2-y,-x,3/4+z
7 1/2+x,-y,3/4-z
8 1/2+y,x,3/4+z
9 1/2+x,1/2+y,1/2+z
10 1/2+y,1/2-x,1/2-z
11 1/2-x,1/2-y,1/2+z
12 1/2-y,1/2+x,1/2-z
13 -x,1/2+y,1/4-z
14 -y,1/2-x,1/4+z
15 x,1/2-y,1/4-z
16 y,1/2+x,1/4+z
_cell_length_a                   13.415(2)
_cell_length_b                   13.415(2)
_cell_length_c                   33.719(5)
_cell_angle_alpha                90
_cell_angle_beta                 90
_cell_angle_gamma                90
_cell_volume                     6068.15
loop_
_atom_site_label
_atom_site_type_symbol
_atom_site_fract_x
_atom_site_fract_y
_atom_site_fract_z
_atom_site_U_iso_or_equiv
_atom_site_thermal_displace_type
Cd1 Cd 0.30021(2) 0.47674(2) 0.255183(8) 0.0353 Uani
O1 O 0.1842(4) 0.5519(3) 0.29239(16) 0.0777 Uani
O2 O 0.1478(4) 0.6819(4) 0.25649(14) 0.0823 Uani
O3 O 0.0956(3) 0.9244(3) 0.28057(11) 0.0528 Uani
O4 O 0.1352(5) 0.9835(5) 0.33934(16) 0.0947 Uani
O5 O 0.4016(3) 0.6116(3) 0.25898(16) 0.0637 Uani
N1 N 0.0131(3) 0.7516(3) 0.31297(11) 0.0408 Uani
N2 N -0.1457(3) 0.6046(3) 0.43894(11) 0.0386 Uani
C1 C 0.0469(5) 0.6428(5) 0.3110(2) 0.0653 Uani
H1 H -0.0083 0.6014 0.3006 0.0790 Uiso
H2 H 0.0626 0.6192 0.3381 0.0790 Uiso
C2 C 0.1369(4) 0.6295(4) 0.28507(18) 0.0517 Uani
C3 C 0.0838(6) 0.8076(5) 0.3353(2) 0.0683 Uani
H3 H 0.0600 0.8144 0.3629 0.0820 Uiso
H4 H 0.1480 0.7713 0.3358 0.0820 Uiso
C4 C 0.1009(5) 0.9159(4) 0.31677(18) 0.0573 Uani
C5 C -0.0907(6) 0.7490(4) 0.32615(15) 0.0543 Uani
H5 H -0.1158 0.8183 0.3277 0.0650 Uiso
H6 H -0.1307 0.7138 0.3058 0.0650 Uiso
C6 C -0.1350(5) 0.7026(5) 0.43601(15) 0.0537 Uani
H7 H -0.1416 0.7416 0.4594 0.0640 Uiso
C7 C -0.1149(4) 0.7508(5) 0.40085(16) 0.0540 Uani
H8 H -0.1057 0.8211 0.4008 0.0650 Uiso
C8 C -0.1081(4) 0.6988(4) 0.36600(13) 0.0445 Uani
C9 C -0.1252(5) 0.6000(6) 0.36845(15) 0.0673 Uani
H9 H -0.1265 0.5609 0.3450 0.0810 Uiso
C10 C -0.1412(5) 0.5541(6) 0.40556(17) 0.0653 Uani
H10 H -0.1491 0.4838 0.4065 0.0780 Uiso
Cd1K Cd 0.02326(2) 0.80021(2) 0.244817(8) 0.0353 Uani
Cd1F Cd -0.19979(2) 0.52326(2) 0.494817(8) 0.0353 Uani
O2I O 0.1819(4) 0.3522(4) 0.24351(14) 0.0823 Uani
O3I O 0.4244(3) 0.4044(3) 0.21943(11) 0.0528 Uani
N1I N 0.2516(3) 0.4869(3) 0.18703(11) 0.0408 Uani
N2F N 0.3543(3) 0.3954(3) 0.31106(11) 0.0386 Uani
O6 O 0.4806(9) 0.1632(10) 0.1685(3) 0.1633 Uani
O7 O 0.3002(9) 0.3628(11) 0.0295(5) 0.2210 Uani
loop_
_atom_site_aniso_label
_atom_site_aniso_U_11
_atom_site_aniso_U_22
_atom_site_aniso_U_33
_atom_site_aniso_U_23
_atom_site_aniso_U_13
_atom_site_aniso_U_12
Cd1 0.03420(16) 0.0478(2) 0.02377(14) 0.00822(11) -0.00868(11) -0.00147(13)
O1 0.062 0.075 0.096 0.051 0.039 0.039
O2 0.101 0.099 0.047 0.035 0.033 0.06
O3 0.076 0.0397 0.0427 0.0074 -0.0116 -0.0047
O4 0.103 0.117 0.064 -0.028 -0.021 -0.034
O5 0.050(2) 0.064(2) 0.077(3) -0.009(2) 0.011(2) -0.0123(18)
N1 0.0408 0.052 0.0297 0.0162 0.0098 0.0062
N2 0.0404 0.052 0.0234 0.0042 0.0071 -0.0118
C1 0.069 0.068 0.059 0.027 0.024 0.023
C2 0.042 0.055 0.058 0.023 0.021 0.015
C3 0.07 0.087 0.048 0.022 -0.006 -0.021
C4 0.047 0.076 0.049 -0.005 -0.006 -0.018
C5 0.05 0.087 0.026 0.017 0.008 -0.014
C6 0.077 0.055 0.029 -0.001 0.02 -0.003
C7 0.076 0.047 0.039 0.007 0.024 0.009
C8 0.042 0.066 0.0255 0.004 0.0037 -0.016
C9 0.114 0.061 0.027 -0.015 0.024 -0.043
C10 0.1 0.056 0.04 -0.009 0.027 -0.037
Cd1K 0.0478 0.0342 0.02377 0.00868 0.00822 0.00147
Cd1F 0.0342 0.0478 0.02377 0.00822 0.00868 0.00147
O2I 0.099(3) 0.101(3) 0.047(2) 0.033(2) -0.035(2) -0.060(3)
O3I 0.0397(17) 0.076(3) 0.0427(18) -0.0116(18) -0.0074(15) 0.0047(17)
N1I 0.052(2) 0.0408(19) 0.0297(17) 0.0098(16) -0.0162(17) -0.0062(19)
N2F 0.0404 0.052 0.0234 0.0042 -0.0071 0.0118
O6 0.181(10) 0.182(10) 0.127(7) -0.045(7) 0.002(7) 0.040(8)
O7 0.147(8) 0.244(12) 0.272(14) -0.049(10) -0.096(9) 0.045(9)
loop_
_geom_bond_atom_site_label_1
_geom_bond_atom_site_label_2
_geom_bond_site_symmetry_1
_geom_bond_site_symmetry_2
Cd1 O1 1_555 1_555
O1 C2 1_555 1_555
O2 C2 1_555 1_555
O3 C4 1_555 1_555
O4 C4 1_555 1_555
O5 Cd1 1_555 1_555
N1 C1 1_555 1_555
N2 C6 1_555 1_555
C1 H1 1_555 1_555
H2 C1 1_555 1_555
C2 C1 1_555 1_555
C3 N1 1_555 1_555
H3 C3 1_555 1_555
H4 C3 1_555 1_555
C4 C3 1_555 1_555
C5 N1 1_555 1_555
H5 C5 1_555 1_555
H6 C5 1_555 1_555
C6 H7 1_555 1_555
C7 C6 1_555 1_555
H8 C7 1_555 1_555
C8 C5 1_555 1_555
C9 C8 1_555 1_555
H9 C9 1_555 1_555
C10 N2 1_555 1_555
H10 C10 1_555 1_555
Cd1K O2 1_555 1_555
Cd1F N2 1_555 1_555
O2I Cd1 1_555 1_555
O3I Cd1 1_555 1_555
N1I Cd1 1_555 1_555
N2F Cd1 1_555 1_555
O3 Cd1K 1_555 1_555
N1 Cd1K 1_555 1_555
C7 C8 1_555 1_555
C9 C10 1_555 1_555

#END
