
#######################################################################
#
#                 Cambridge Crystallographic Data Centre
#                                CCDC 
#
#######################################################################
#
# If this CIF has been generated from an entry in the Cambridge 
# Structural Database, then it will include bibliographic, chemical, 
# crystal, experimental, refinement or atomic coordinate data resulting 
# from the CCDC's data processing and validation procedures.
#
#######################################################################

data_VAQLAC
_chemical_formula_moiety         '(C10 H16 Cd1 N2 O7)n'
_symmetry_cell_setting           orthorhombic
_symmetry_space_group_name_H-M   'P n a 21'
_symmetry_Int_Tables_number      33
_space_group_name_Hall           'P 2c -2n'
loop_
_symmetry_equiv_pos_site_id
_symmetry_equiv_pos_as_xyz
1 x,y,z
2 1/2-x,1/2+y,1/2+z
3 1/2+x,1/2-y,z
4 -x,-y,1/2+z
_cell_length_a                   8.395(3)
_cell_length_b                   9.562(2)
_cell_length_c                   16.475(6)
_cell_angle_alpha                90
_cell_angle_beta                 90
_cell_angle_gamma                90
_cell_volume                     1322.5
loop_
_atom_site_label
_atom_site_type_symbol
_atom_site_fract_x
_atom_site_fract_y
_atom_site_fract_z
_atom_site_U_iso_or_equiv
_atom_site_thermal_displace_type
Cd1 Cd 0.385488(14) 0.895485(11) 0.061408(16) 0.0161 Uani
O1 O 0.1150(2) 0.62038(19) 0.60359(14) 0.0254 Uani
O2 O 0.2000(2) 0.83603(17) 0.58124(12) 0.0337 Uani
O3 O 0.38818(16) 0.32931(17) 0.55498(18) 0.0223 Uani
O4 O 0.59494(19) 0.29476(17) 0.47520(12) 0.0238 Uani
O5 O 0.6262(2) 0.9691(2) 0.01004(13) 0.0260 Uani
H1 H 0.688(4) 0.904(3) 0.003(2) 0.0310 Uiso
H2 H 0.675(4) 1.024(3) 0.0355(16) 0.0310 Uiso
N1 N 0.2614(2) 0.53367(17) 0.45818(10) 0.0165 Uani
N2 N 0.3532(2) 0.7895(2) 0.18538(12) 0.0212 Uani
C1 C 0.3224(3) 0.6530(2) 0.50570(14) 0.0200 Uani
H3 H 0.3520 0.7294 0.4680 0.0240 Uiso
H4 H 0.4201 0.6237 0.5348 0.0240 Uiso
C2 C 0.2024(2) 0.70834(18) 0.5670(2) 0.0217 Uani
C3 C 0.3926(2) 0.4480(3) 0.42697(15) 0.0208 Uani
H5 H 0.4776 0.5102 0.4061 0.0250 Uiso
H6 H 0.3535 0.3907 0.3811 0.0250 Uiso
C4 C 0.4624(2) 0.3519(2) 0.49152(13) 0.0185 Uani
C5 C 0.1507(3) 0.5768(3) 0.39268(14) 0.0198 Uani
H7 H 0.0682 0.6382 0.4167 0.0240 Uiso
H8 H 0.0961 0.4922 0.3720 0.0240 Uiso
C6 C 0.3417(3) 0.6497(3) 0.18820(14) 0.0242 Uani
H9 H 0.3790 0.5972 0.1431 0.0290 Uiso
C7 C 0.2777(3) 0.5781(2) 0.25386(14) 0.0236 Uani
H10 H 0.2701 0.4790 0.2530 0.0280 Uiso
C8 C 0.2251(3) 0.6530(2) 0.32082(14) 0.0198 Uani
C9 C 0.2411(3) 0.7974(2) 0.31889(15) 0.0268 Uani
H11 H 0.2096 0.8524 0.3642 0.0320 Uiso
C10 C 0.3037(3) 0.8609(3) 0.25006(15) 0.0262 Uani
H12 H 0.3115 0.9600 0.2491 0.0320 Uiso
Cd1A Cd 0.114512(14) 0.395485(11) 0.561408(16) 0.0161 Uani
Cd1C Cd 0.614512(14) 0.104515(11) 0.561408(16) 0.0161 Uani
O1A O 0.3850(2) 1.12038(19) 0.10359(14) 0.0254 Uani
O3A O 0.11182(16) 0.82931(17) 0.05498(18) 0.0223 Uani
O4C O 0.40506(19) 0.70524(17) -0.02480(12) 0.0238 Uani
N1A N 0.2386(2) 1.03367(17) -0.04182(10) 0.0165 Uani
O6 O 0.5187(7) 0.2081(4) 0.2509(2) 0.0848 Uani
O7 O 0.2252(7) 0.1751(5) 0.3205(3) 0.0903 Uani
loop_
_atom_site_aniso_label
_atom_site_aniso_U_11
_atom_site_aniso_U_22
_atom_site_aniso_U_33
_atom_site_aniso_U_23
_atom_site_aniso_U_13
_atom_site_aniso_U_12
Cd1 0.01986(9) 0.01376(9) 0.01471(8) 0.00202(7) 0.00059(11) 0.00097(4)
O1 0.0330(12) 0.0183(9) 0.0249(11) -0.0039(7) 0.0072(7) -0.0059(6)
O2 0.0361(10) 0.0165(7) 0.0485(13) -0.0053(7) 0.0088(8) -0.0021(7)
O3 0.0203(7) 0.0253(7) 0.0214(9) 0.0082(8) -0.0027(7) 0.0002(4)
O4 0.0187(8) 0.0222(8) 0.0305(9) 0.0056(7) -0.0014(6) 0.0026(6)
O5 0.0195(8) 0.0194(8) 0.0391(11) -0.0032(7) 0.0004(7) -0.0001(6)
N1 0.0172(8) 0.0155(7) 0.0168(8) 0.0037(6) -0.0008(6) 0.0013(6)
N2 0.0236(9) 0.0226(10) 0.0173(9) 0.0052(7) -0.0004(7) 0.0010(8)
C1 0.0190(10) 0.0156(10) 0.0255(10) 0.0023(8) 0.0005(8) -0.0027(8)
C2 0.0217(9) 0.0176(8) 0.0258(10) -0.0002(10) -0.0039(13) -0.0015(6)
C3 0.0227(12) 0.0198(12) 0.0200(11) 0.0045(9) 0.0024(8) 0.0044(8)
C4 0.0166(10) 0.0147(9) 0.0241(10) 0.0013(8) -0.0043(8) -0.0024(7)
C5 0.0178(10) 0.0236(10) 0.0179(10) 0.0063(9) -0.0001(8) 0.0022(9)
C6 0.0356(13) 0.0205(11) 0.0166(10) -0.0001(9) 0.0025(10) 0.0037(11)
C7 0.0324(13) 0.0195(9) 0.0190(10) 0.0044(9) 0.0002(9) -0.0001(9)
C8 0.0177(10) 0.0222(11) 0.0196(11) 0.0049(9) -0.0031(9) 0.0036(9)
C9 0.0389(14) 0.0219(11) 0.0196(10) 0.0032(8) 0.0071(10) 0.0062(10)
C10 0.0385(14) 0.0163(9) 0.0239(11) 0.0034(9) 0.0034(9) 0.0036(9)
Cd1A 0.01986 0.01376 0.01471 0.00202 -0.00059 -0.00097
Cd1C 0.01986 0.01376 0.01471 -0.00202 -0.00059 0.00097
O1A 0.033 0.0183 0.0249 -0.0039 -0.0072 0.0059
O3A 0.0203 0.0253 0.0214 0.0082 0.0027 -0.0002
O4C 0.0187 0.0222 0.0305 -0.0056 0.0014 0.0026
N1A 0.0172 0.0155 0.0168 0.0037 0.0008 -0.0013
O6 0.128(5) 0.085(3) 0.0415(17) -0.0167(16) -0.009(2) 0.021(3)
O7 0.131(5) 0.087(3) 0.053(2) -0.021(2) 0.033(3) -0.036(3)
loop_
_geom_bond_atom_site_label_1
_geom_bond_atom_site_label_2
_geom_bond_site_symmetry_1
_geom_bond_site_symmetry_2
Cd1 O5 1_555 1_555
O1 C2 1_555 1_555
O2 C2 1_555 1_555
O3 C4 1_555 1_555
O4 C4 1_555 1_555
O5 H1 1_555 1_555
H2 O5 1_555 1_555
N1 C1 1_555 1_555
N2 Cd1 1_555 1_555
C1 H3 1_555 1_555
H4 C1 1_555 1_555
C2 C1 1_555 1_555
C3 N1 1_555 1_555
H5 C3 1_555 1_555
H6 C3 1_555 1_555
C4 C3 1_555 1_555
C5 N1 1_555 1_555
H7 C5 1_555 1_555
H8 C5 1_555 1_555
C6 N2 1_555 1_555
H9 C6 1_555 1_555
C7 C6 1_555 1_555
H10 C7 1_555 1_555
C8 C5 1_555 1_555
C9 C8 1_555 1_555
H11 C9 1_555 1_555
C10 N2 1_555 1_555
H12 C10 1_555 1_555
Cd1A O1 1_555 1_555
Cd1C O4 1_555 1_555
O1A Cd1 1_555 1_555
O3A Cd1 1_555 1_555
O4C Cd1 1_555 1_555
N1A Cd1 1_555 1_555
O3 Cd1A 1_555 1_555
N1 Cd1A 1_555 1_555
C7 C8 1_555 1_555
C9 C10 1_555 1_555

#END
