
#######################################################################
#
#                 Cambridge Crystallographic Data Centre
#                                CCDC 
#
#######################################################################
#
# If this CIF has been generated from an entry in the Cambridge 
# Structural Database, then it will include bibliographic, chemical, 
# crystal, experimental, refinement or atomic coordinate data resulting 
# from the CCDC's data processing and validation procedures.
#
#######################################################################

data_IJENOB
_chemical_formula_moiety         '(C108 H134 Eu8 O53 S36)n'
_symmetry_cell_setting           trigonal
_symmetry_space_group_name_H-M   'P -3'
_symmetry_Int_Tables_number      147
_space_group_name_Hall           '-P 3'
loop_
_symmetry_equiv_pos_site_id
_symmetry_equiv_pos_as_xyz
1 x,y,z
2 -y,x-y,z
3 -x+y,-x,z
4 -x,-y,-z
5 y,-x+y,-z
6 x-y,x,-z
_cell_length_a                   19.7524(12)
_cell_length_b                   19.7524(12)
_cell_length_c                   15.346(2)
_cell_angle_alpha                90
_cell_angle_beta                 90
_cell_angle_gamma                120
_cell_volume                     5185.2
loop_
_atom_site_label
_atom_site_type_symbol
_atom_site_fract_x
_atom_site_fract_y
_atom_site_fract_z
C1 C 1.1453(4) 0.6078(3) -0.0866(4)
C2 C 1.0695(5) 0.5509(4) -0.0402(3)
C3 C 1.0295(4) 0.5815(3) 0.0071(4)
C4 C 1.0416(5) 0.4716(4) -0.0464(3)
C5 C 1.1536(6) 0.4289(5) -0.0226(5)
H1 H 1.1188 0.3911 0.0208
H2 H 1.1874 0.4108 -0.0475
H3 H 1.1857 0.4798 0.0052
C6 C 1.1238(12) 0.7039(7) 0.1099(7)
H4 H 1.1631 0.6878 0.1034
H5 H 1.1498 0.7600 0.1223
H6 H 1.0885 0.6748 0.1581
C7 C 0.8146(3) 0.4953(4) -0.5855(4)
O1 O 1.0950(4) 0.6397(2) -0.3403(3)
O2 O 1.0510(13) 0.7149(17) -0.2724(17)
C8 C 0.8682(4) 0.5427(6) -0.5144(4)
C9 C 0.9261(4) 0.6200(6) -0.5272(3)
C10 C 0.9811(3) 0.6596(4) -0.4623(4)
C11 C 0.9782(3) 0.6220(4) -0.3847(3)
C12 C 0.9202(3) 0.5447(4) -0.3719(3)
C13 C 0.8652(3) 0.5050(4) -0.4368(4)
C14 C 1.0471(6) 0.6617(8) -0.3232(6)
C15 C 0.9968(11) 0.6637(14) -0.6873(9)
H9 H 1.0426 0.6782 -0.6506
H10 H 1.0117 0.7000 -0.7366
H11 H 0.9764 0.6104 -0.7092
C16 C 1.0156(10) 0.8128(14) -0.4435(17)
H12 H 0.9895 0.8217 -0.4928
H13 H 1.0562 0.8631 -0.4203
H14 H 0.9772 0.7839 -0.3978
C17 C 0.9241(13) 0.5538(22) -0.1892(11)
H15 H 0.9150 0.5253 -0.1342
H16 H 0.8857 0.5711 -0.1954
H17 H 0.9769 0.5994 -0.1892
C18 C 0.8477(11) 0.3592(16) -0.4406(10)
H18 H 0.8726 0.3719 -0.4982
H19 H 0.8141 0.3024 -0.4354
H20 H 0.8881 0.3780 -0.3954
S1 S 0.9232(4) 0.6685(6) -0.6247(4)
S2 S 1.05930(18) 0.75727(27) -0.4793(2)
S3 S 0.9146(2) 0.4933(3) -0.2746(2)
S4 S 0.7900(2) 0.4054(3) -0.4277(2)
Eu1 Eu 1.217498(21) 0.660665(15) -0.288890(16)
Eu2 Eu 1.3333 0.6667 -0.08632(3)
O5 O 1.1378(4) 0.6217(3) -0.1635(3)
O6 O 1.2072(4) 0.6327(3) -0.0433(3)
O7 O 0.7527(2) 0.4967(3) -0.5968(2)
O8 O 0.8384(3) 0.4579(4) -0.6295(3)
O9 O 1.4173(2) 0.6742(3) -0.2005(2)
H34 H 1.4663 0.6772 -0.1782
O10 O 1.3334 0.6667 -0.3502(4)
H35 H 1.3334 0.6667 -0.4154
O11 O 1.3334 0.6667 0.0722(5)
O12 O 1.2030(2) 0.7753(3) -0.2357(3)
H37 H 1.155(3) 0.759(5) -0.237(5)
H38 H 1.226(4) 0.810(5) -0.273(3)
S9 S 1.09589(13) 0.43790(9) -0.10787(10)
S10 S 1.06904(16) 0.68372(11) 0.01185(16)
C1C C 0.8547(4) 0.3922(3) 0.0866(4)
C1A C 1.3922(3) 0.5375(5) -0.0866(4)
C1D C 1.6078(3) 0.4625(5) 0.0866(4)
C1B C 1.4625(5) 0.8547(4) -0.0866(4)
C1E C 1.5375(5) 1.1453(4) 0.0866(4)
C2C C 0.9305(5) 0.4491(4) 0.0402(3)
C2A C 1.4491(4) 0.5186(6) -0.0402(3)
C2D C 1.5509(4) 0.4814(6) 0.0402(3)
C2B C 1.4814(6) 0.9305(5) -0.0402(3)
C2E C 1.5186(6) 1.0695(5) 0.0402(3)
C3C C 0.9705(4) 0.4185(3) -0.0071(4)
C3A C 1.4185(3) 0.4480(5) 0.0071(4)
C3D C 1.5815(3) 0.5520(5) -0.0071(4)
C3B C 1.5520(5) 0.9705(4) 0.0071(4)
C3E C 1.4480(5) 1.0295(4) -0.0071(4)
C4C C 0.9584(5) 0.5284(4) 0.0464(3)
C4A C 1.5284(4) 0.5700(6) -0.0464(3)
C4D C 1.4716(4) 0.4300(6) 0.0464(3)
C4B C 1.4300(6) 0.9584(5) -0.0464(3)
C4E C 1.5700(6) 1.0416(5) 0.0464(3)
C5C C 0.8464(6) 0.5711(5) 0.0226(5)
C5A C 1.5711(5) 0.7247(8) -0.0226(5)
C5D C 1.4289(5) 0.2753(8) 0.0226(5)
C5B C 1.2753(8) 0.8464(6) -0.0226(5)
C5E C 1.7247(8) 1.1536(6) 0.0226(5)
H1C H 0.8812 0.6089 -0.0208
H1A H 1.6089 0.7277 0.0208
H1D H 1.3911 0.2723 -0.0208
H1B H 1.2723 0.8812 0.0208
H1E H 1.7277 1.1188 -0.0208
H2C H 0.8126 0.5892 0.0475
H2A H 1.5892 0.7766 -0.0475
H2D H 1.4108 0.2234 0.0475
H2B H 1.2234 0.8126 -0.0475
H2E H 1.7766 1.1874 0.0475
H3C H 0.8143 0.5202 -0.0052
H3A H 1.5202 0.7059 0.0052
H3D H 1.4798 0.2941 -0.0052
H3B H 1.2941 0.8143 0.0052
H3E H 1.7059 1.1857 -0.0052
C6C C 0.8762(12) 0.2961(7) -0.1099(7)
C6A C 1.2961(7) 0.4199(14) 0.1099(7)
C6D C 1.7039(7) 0.5801(14) -0.1099(7)
C6B C 1.5801(14) 0.8762(12) 0.1099(7)
C6E C 1.4199(14) 1.1238(12) -0.1099(7)
H4C H 0.8369 0.3122 -0.1034
H4A H 1.3122 0.4753 0.1034
H4D H 1.6878 0.5247 -0.1034
H4B H 1.5247 0.8369 0.1034
H4E H 1.4753 1.1631 -0.1034
H5C H 0.8502 0.2400 -0.1223
H5A H 1.2400 0.3898 0.1223
H5D H 1.7600 0.6102 -0.1223
H5B H 1.6102 0.8502 0.1223
H5E H 1.3898 1.1498 -0.1223
H6C H 0.9115 0.3252 -0.1581
H6A H 1.3252 0.4137 0.1581
H6D H 1.6748 0.5863 -0.1581
H6B H 1.5863 0.9115 0.1581
H6E H 1.4137 1.0885 -0.1581
C7E C 1.3193(5) 0.8146(3) -0.4145(4)
C7C C 1.1854(3) 0.5047(4) -0.4145(4)
C7C_2 C 1.1854(3) 0.5047(4) 0.5855(4)
C7B C 0.6807(5) 0.1854(3) 0.4145(4)
C7_2 C 0.8146(3) 0.4953(4) 0.4145(4)
O1E O 1.4553(4) 1.0950(4) -0.6597(3)
O1C O 0.9050(4) 0.3603(2) -0.6597(3)
O1C_2 O 0.9050(4) 0.3603(2) 0.3403(3)
O1B O 0.5447(4) -0.0950(4) 0.6597(3)
O1_2 O 1.0950(4) 0.6397(2) 0.6597(3)
O1A O 1.3603(2) 0.4553(4) -0.3403(3)
O1D O 1.6397(2) 0.5447(4) 0.3403(3)
O1B_2 O 1.5447(4) 0.9050(4) -0.3403(3)
O1E_2 O 1.4553(4) 1.0950(4) 0.3403(3)
O2E O 1.3361(21) 1.0510(13) -0.7276(17)
O2C O 0.9490(13) 0.2851(17) -0.7276(17)
O2C_2 O 0.9490(13) 0.2851(17) 0.2724(17)
O2B O 0.6639(21) -0.0510(13) 0.7276(17)
O2_2 O 1.0510(13) 0.7149(17) 0.7276(17)
C8E C 1.3255(7) 0.8682(4) -0.4856(4)
C8C C 1.1318(4) 0.4573(6) -0.4856(4)
C8C_2 C 1.1318(4) 0.4573(6) 0.5144(4)
C8B C 0.6745(7) 0.1318(4) 0.4856(4)
C8_2 C 0.8682(4) 0.5427(6) 0.4856(4)
C9E C 1.3061(7) 0.9261(4) -0.4728(3)
C9C C 1.0739(4) 0.3800(6) -0.4728(3)
C9C_2 C 1.0739(4) 0.3800(6) 0.5272(3)
C9B C 0.6939(7) 0.0739(4) 0.4728(3)
C9_2 C 0.9261(4) 0.6200(6) 0.4728(3)
C10E C 1.3215(5) 0.9811(3) -0.5377(4)
C10C C 1.0189(3) 0.3404(4) -0.5377(4)
C10C_2 C 1.0189(3) 0.3404(4) 0.4623(4)
C10B C 0.6785(5) 0.0189(3) 0.5377(4)
C10_2 C 0.9811(3) 0.6596(4) 0.5377(4)
C11E C 1.3562(5) 0.9782(3) -0.6153(3)
C11C C 1.0218(3) 0.3780(4) -0.6153(3)
C11C_2 C 1.0218(3) 0.3780(4) 0.3847(3)
C11B C 0.6438(5) 0.0218(3) 0.6153(3)
C11_2 C 0.9782(3) 0.6220(4) 0.6153(3)
C12E C 1.3755(5) 0.9202(3) -0.6281(3)
C12C C 1.0798(3) 0.4553(4) -0.6281(3)
C12C_2 C 1.0798(3) 0.4553(4) 0.3719(3)
C12B C 0.6245(5) 0.0798(3) 0.6281(3)
C12_2 C 0.9202(3) 0.5447(4) 0.6281(3)
C13E C 1.3602(5) 0.8652(3) -0.5632(4)
C13C C 1.1348(3) 0.4950(4) -0.5632(4)
C13C_2 C 1.1348(3) 0.4950(4) 0.4368(4)
C13B C 0.6398(5) 0.1348(3) 0.5632(4)
C13_2 C 0.8652(3) 0.5050(4) 0.5632(4)
C14E C 1.3854(10) 1.0471(6) -0.6768(6)
C14C C 0.9529(6) 0.3383(8) -0.6768(6)
C14C_2 C 0.9529(6) 0.3383(8) 0.3232(6)
C14B C 0.6146(10) -0.0471(6) 0.6768(6)
C14_2 C 1.0471(6) 0.6617(8) 0.6768(6)
C15E C 1.3331(18) 0.9968(11) -0.3127(9)
C15C C 1.0032(11) 0.3363(14) -0.3127(9)
C15C_2 C 1.0032(11) 0.3363(14) 0.6873(9)
C15B C 0.6669(18) 0.0032(11) 0.3127(9)
C15_2 C 0.9968(11) 0.6637(14) 0.3127(9)
H9E H 1.3644 1.0426 -0.3494
H9C H 0.9574 0.3218 -0.3494
H9C_2 H 0.9574 0.3218 0.6506
H9B H 0.6356 -0.0426 0.3494
H9_2 H 1.0426 0.6782 0.3494
H10E H 1.3117 1.0117 -0.2634
H10C H 0.9883 0.3000 -0.2634
H10C_2 H 0.9883 0.3000 0.7366
H10B H 0.6883 -0.0117 0.2634
H10_2 H 1.0117 0.7000 0.2634
H11E H 1.3660 0.9764 -0.2908
H11C H 1.0236 0.3896 -0.2908
H11C_2 H 1.0236 0.3896 0.7092
H11B H 0.6340 0.0236 0.2908
H11_2 H 0.9764 0.6104 0.2908
C16E C 1.2028(17) 1.0156(10) -0.5565(17)
C16C C 0.9844(10) 0.1872(14) -0.5565(17)
C16C_2 C 0.9844(10) 0.1872(14) 0.4435(17)
C16B C 0.7972(17) -0.0156(10) 0.5565(17)
C16_2 C 1.0156(10) 0.8128(14) 0.5565(17)
H12E H 1.1678 0.9895 -0.5072
H12C H 1.0105 0.1783 -0.5072
H12C_2 H 1.0105 0.1783 0.4928
H12B H 0.8322 0.0105 0.5072
H12_2 H 0.9895 0.8217 0.5072
H13E H 1.1931 1.0562 -0.5797
H13C H 0.9438 0.1369 -0.5797
H13C_2 H 0.9438 0.1369 0.4203
H13B H 0.8069 -0.0562 0.5797
H13_2 H 1.0562 0.8631 0.5797
H14E H 1.1933 0.9772 -0.6022
H14C H 1.0228 0.2161 -0.6022
H14C_2 H 1.0228 0.2161 0.3978
H14B H 0.8067 0.0228 0.6022
H14_2 H 0.9772 0.7839 0.6022
C17E C 1.3703(26) 0.9241(13) -0.8108(11)
C17C C 1.0759(13) 0.4462(22) -0.8108(11)
C17C_2 C 1.0759(13) 0.4462(22) 0.1892(11)
C17B C 0.6297(26) 0.0759(13) 0.8108(11)
C17_2 C 0.9241(13) 0.5538(22) 0.8108(11)
H15E H 1.3897 0.9150 -0.8658
H15C H 1.0850 0.4747 -0.8658
H15C_2 H 1.0850 0.4747 0.1342
H15B H 0.6103 0.0850 0.8658
H15_2 H 0.9150 0.5253 0.8658
H16E H 1.3146 0.8857 -0.8046
H16C H 1.1143 0.4289 -0.8046
H16C_2 H 1.1143 0.4289 0.1954
H16B H 0.6854 0.1143 0.8046
H16_2 H 0.8857 0.5711 0.8046
H17E H 1.3775 0.9769 -0.8108
H17C H 1.0231 0.4006 -0.8108
H17C_2 H 1.0231 0.4006 0.1892
H17B H 0.6225 0.0231 0.8108
H17_2 H 0.9769 0.5994 0.8108
C18E C 1.4885(19) 0.8477(11) -0.5594(10)
C18C C 1.1523(11) 0.6408(16) -0.5594(10)
C18C_2 C 1.1523(11) 0.6408(16) 0.4406(10)
C18B C 0.5115(19) 0.1523(11) 0.5594(10)
C18_2 C 0.8477(11) 0.3592(16) 0.5594(10)
H18E H 1.5007 0.8726 -0.5018
H18C H 1.1274 0.6281 -0.5018
H18C_2 H 1.1274 0.6281 0.4982
H18B H 0.4993 0.1274 0.5018
H18_2 H 0.8726 0.3719 0.5018
H19E H 1.5117 0.8141 -0.5646
H19C H 1.1859 0.6976 -0.5646
H19C_2 H 1.1859 0.6976 0.4354
H19B H 0.4883 0.1859 0.5646
H19_2 H 0.8141 0.3024 0.5646
H20E H 1.5101 0.8881 -0.6046
H20C H 1.1119 0.6220 -0.6046
H20C_2 H 1.1119 0.6220 0.3954
H20B H 0.4899 0.1119 0.6046
H20_2 H 0.8881 0.3780 0.6046
S1E S 1.2547(7) 0.9232(4) -0.3753(4)
S1C S 1.0768(4) 0.3315(6) -0.3753(4)
S1C_2 S 1.0768(4) 0.3315(6) 0.6247(4)
S1B S 0.7453(7) 0.0768(4) 0.3753(4)
S1_2 S 0.9232(4) 0.6685(6) 0.3753(4)
S2E S 1.30203(32) 1.05930(18) -0.5207(2)
S2C S 0.94070(18) 0.24273(27) -0.5207(2)
S2C_2 S 0.94070(18) 0.24273(27) 0.4793(2)
S2B S 0.69797(32) -0.05930(18) 0.5207(2)
S2_2 S 1.05930(18) 0.75727(27) 0.5207(2)
S3E S 1.4213(4) 0.9146(2) -0.7254(2)
S3C S 1.0854(2) 0.5067(3) -0.7254(2)
S3C_2 S 1.0854(2) 0.5067(3) 0.2746(2)
S3B S 0.5787(4) 0.0854(2) 0.7254(2)
S3_2 S 0.9146(2) 0.4933(3) 0.7254(2)
S4E S 1.3846(4) 0.7900(2) -0.5723(2)
S4C S 1.2100(2) 0.5946(3) -0.5723(2)
S4C_2 S 1.2100(2) 0.5946(3) 0.4277(2)
S4B S 0.6154(4) 0.2100(2) 0.5723(2)
S4_2 S 0.7900(2) 0.4054(3) 0.5723(2)
Eu1C Eu 0.782502(21) 0.339335(15) 0.288890(16)
Eu1A Eu 1.339335(15) 0.556833(26) -0.288890(16)
Eu1D Eu 1.660665(15) 0.443167(26) 0.288890(16)
Eu1B Eu 1.443167(26) 0.782502(21) -0.288890(16)
Eu1E Eu 1.556833(26) 1.217498(21) 0.288890(16)
Eu1D_2 Eu 0.660665(15) 0.443167(26) -0.711110(16)
Eu1C_2 Eu 0.782502(21) 0.339335(15) -0.711110(16)
Eu1E_2 Eu 1.556833(26) 1.217498(21) -0.711110(16)
Eu1E_3 Eu 0.556833(26) 0.217498(21) 0.288890(16)
Eu1D_3 Eu 0.660665(15) 0.443167(26) 0.288890(16)
Eu1A_2 Eu 1.339335(15) 0.556833(26) 0.711110(16)
Eu1_2 Eu 1.217498(21) 0.660665(15) 0.711110(16)
Eu1B_2 Eu 0.443167(26) -0.217498(21) 0.711110(16)
Eu2C Eu 0.6667 0.3333 0.08632(3)
Eu2D Eu 1.6667 0.3334 0.08632(3)
Eu2E Eu 1.6666 1.3333 0.08632(3)
O5C O 0.8622(4) 0.3783(3) 0.1635(3)
O5A O 1.3783(3) 0.5161(5) -0.1635(3)
O5D O 1.6217(3) 0.4839(5) 0.1635(3)
O5B O 1.4839(5) 0.8622(4) -0.1635(3)
O5E O 1.5161(5) 1.1378(4) 0.1635(3)
O6C O 0.7928(4) 0.3673(3) 0.0433(3)
O6A O 1.3673(3) 0.5745(5) -0.0433(3)
O6D O 1.6327(3) 0.4255(5) 0.0433(3)
O6B O 1.4255(5) 0.7928(4) -0.0433(3)
O6E O 1.5745(5) 1.2072(4) 0.0433(3)
O6D_2 O 0.6327(3) 0.4255(5) 0.0433(3)
O6E_2 O 0.5745(5) 0.2072(4) 0.0433(3)
O7E O 1.2560(4) 0.7527(2) -0.4032(2)
O7C O 1.2473(2) 0.5033(3) -0.4032(2)
O7C_2 O 1.2473(2) 0.5033(3) 0.5968(2)
O7B O 0.7440(4) 0.2473(2) 0.4032(2)
O7_2 O 0.7527(2) 0.4967(3) 0.4032(2)
O7_3 O 1.7527(2) 0.4967(3) 0.4032(2)
O7D O 1.4967(3) 0.7440(4) -0.4032(2)
O7A O 1.5033(3) 1.2560(4) 0.4032(2)
O8E O 1.3805(5) 0.8384(3) -0.3705(3)
O8C O 1.1616(3) 0.5421(4) -0.3705(3)
O8C_2 O 1.1616(3) 0.5421(4) 0.6295(3)
O8B O 0.6195(5) 0.1616(3) 0.3705(3)
O8_2 O 0.8384(3) 0.4579(4) 0.3705(3)
O8D O 1.4579(4) 0.6195(5) -0.3705(3)
O8A O 1.5421(4) 0.3805(5) 0.3705(3)
O8B_2 O 1.6195(5) 1.1616(3) 0.3705(3)
O9A O 1.3258(3) 0.7431(4) -0.2005(2)
O9B O 1.2569(4) 0.5827(2) -0.2005(2)
O9C O 0.5827(2) 0.3258(3) 0.2005(2)
O9D O 0.6742(3) 0.2569(4) 0.2005(2)
O9E O 0.7431(4) 0.4173(2) 0.2005(2)
O9E_2 O 1.7431(4) 0.4173(2) 0.2005(2)
O9C_2 O 1.5827(2) 0.3258(3) 0.2005(2)
O9C_3 O 1.5827(2) 1.3258(3) 0.2005(2)
O9D_2 O 1.6742(3) 1.2569(4) 0.2005(2)
H34A H 1.3228 0.7891 -0.1782
H34B H 1.2109 0.5337 -0.1782
H34C H 0.5337 0.3228 0.1782
H34D H 0.6772 0.2109 0.1782
H34E H 0.7891 0.4663 0.1782
H34E_2 H 1.7891 0.4663 0.1782
H34C_2 H 1.5337 0.3228 0.1782
H34C_3 H 1.5337 1.3228 0.1782
H34D_2 H 1.6772 1.2109 0.1782
O10C O 0.6666 0.3333 0.3502(4)
O10D O 1.6667 0.3333 0.3502(4)
O10E O 1.6667 1.3334 0.3502(4)
H35C H 0.6666 0.3333 0.4154
H35D H 1.6667 0.3333 0.4154
H35E H 1.6667 1.3334 0.4154
O11C O 0.6666 0.3333 -0.0722(5)
O12C O 0.7970(2) 0.2247(3) 0.2357(3)
O12A O 1.2247(3) 0.4277(4) -0.2357(3)
O12D O 1.7753(3) 0.5723(4) 0.2357(3)
O12B O 1.5723(4) 0.7970(2) -0.2357(3)
O12E O 1.4277(4) 1.2030(2) 0.2357(3)
H37C H 0.845(3) 0.241(5) 0.237(5)
H37A H 1.241(5) 0.396(6) -0.237(5)
H37D H 1.759(5) 0.604(6) 0.237(5)
H37B H 1.604(6) 0.845(3) -0.237(5)
H37E H 1.396(6) 1.155(3) 0.237(5)
H38C H 0.774(4) 0.190(5) 0.273(3)
H38A H 1.190(5) 0.416(6) -0.273(3)
H38D H 1.810(5) 0.584(6) 0.273(3)
H38B H 1.584(6) 0.774(4) -0.273(3)
H38E H 1.416(6) 1.226(4) 0.273(3)
S9C S 0.90411(13) 0.56210(9) 0.10787(10)
S9A S 1.56210(9) 0.65799(16) -0.10787(10)
S9D S 1.43790(9) 0.34201(16) 0.10787(10)
S9B S 1.34201(16) 0.90411(13) -0.10787(10)
S9E S 1.65799(16) 1.09589(13) 0.10787(10)
S10C S 0.93096(16) 0.31628(11) -0.01185(16)
S10A S 1.31628(11) 0.38532(19) 0.01185(16)
S10D S 1.68372(11) 0.61468(19) -0.01185(16)
S10B S 1.61468(19) 0.93096(16) 0.01185(16)
S10E S 1.38532(19) 1.06904(16) -0.01185(16)
O13 O 0.9739(4) 0.8778(3) 0.8002(4)
H39 H 0.9457 0.8967 0.8156
H40 H 1.0151 0.9012 0.8300
loop_
_geom_bond_atom_site_label_1
_geom_bond_atom_site_label_2
_geom_bond_site_symmetry_1
_geom_bond_site_symmetry_2
C1 C2 1_555 1_555
C2 C3 1_555 1_555
C3 S10 1_555 1_555
C4 C2 1_555 1_555
C5 H1 1_555 1_555
H2 C5 1_555 1_555
H3 C5 1_555 1_555
C6 H4 1_555 1_555
H5 C6 1_555 1_555
H6 C6 1_555 1_555
C7 C8 1_555 1_555
O1 C14 1_555 1_555
O2 C14 1_555 1_555
C8 C9 1_555 1_555
C9 C10 1_555 1_555
C10 C11 1_555 1_555
C11 C12 1_555 1_555
C12 C13 1_555 1_555
C13 C8 1_555 1_555
C14 C11 1_555 1_555
C15 H9 1_555 1_555
H10 C15 1_555 1_555
H11 C15 1_555 1_555
C16 H12 1_555 1_555
H13 C16 1_555 1_555
H14 C16 1_555 1_555
C17 H15 1_555 1_555
H16 C17 1_555 1_555
H17 C17 1_555 1_555
C18 H18 1_555 1_555
H19 C18 1_555 1_555
H20 C18 1_555 1_555
S1 C9 1_555 1_555
S2 C10 1_555 1_555
S3 C12 1_555 1_555
S4 C13 1_555 1_555
Eu1 O1 1_555 1_555
Eu2 O6 1_555 1_555
O5 C1 1_555 1_555
O6 C1 1_555 1_555
O7 C7 1_555 1_555
O8 C7 1_555 1_555
O9 Eu2 1_555 1_555
H34 O9 1_555 1_555
O10 Eu1 1_555 1_555
H35 O10 1_555 1_555
O11 Eu2 1_555 1_555
O12 Eu1 1_555 1_555
H37 O12 1_555 1_555
H38 O12 1_555 1_555
O13 H39 1_555 1_555
H40 O13 1_555 1_555
S9 C4 1_555 1_555
S10 C6 1_555 1_555
C1C C2C 1_555 1_555
C1A C2A 1_555 1_555
C1D C2D 1_555 1_555
C1B C2B 1_555 1_555
C1E C2E 1_555 1_555
C2C C3C 1_555 1_555
C2A C3A 1_555 1_555
C2D C3D 1_555 1_555
C2B C3B 1_555 1_555
C2E C3E 1_555 1_555
C3C C4 1_555 1_555
C3A C4D 1_555 1_555
C3D C4A 1_555 1_555
C3B C4E 1_555 1_555
C3E C4B 1_555 1_555
C4C C3 1_555 1_555
C4A C2A 1_555 1_555
C4D C2D 1_555 1_555
C4B C2B 1_555 1_555
C4E C2E 1_555 1_555
C5C H1C 1_555 1_555
C5A H1A 1_555 1_555
C5D H1D 1_555 1_555
C5B H1B 1_555 1_555
C5E H1E 1_555 1_555
H2C C5C 1_555 1_555
H2A C5A 1_555 1_555
H2D C5D 1_555 1_555
H2B C5B 1_555 1_555
H2E C5E 1_555 1_555
H3C C5C 1_555 1_555
H3A C5A 1_555 1_555
H3D C5D 1_555 1_555
H3B C5B 1_555 1_555
H3E C5E 1_555 1_555
C6C H4C 1_555 1_555
C6A H4A 1_555 1_555
C6D H4D 1_555 1_555
C6B H4B 1_555 1_555
C6E H4E 1_555 1_555
H5C C6C 1_555 1_555
H5A C6A 1_555 1_555
H5D C6D 1_555 1_555
H5B C6B 1_555 1_555
H5E C6E 1_555 1_555
H6C C6C 1_555 1_555
H6A C6A 1_555 1_555
H6D C6D 1_555 1_555
H6B C6B 1_555 1_555
H6E C6E 1_555 1_555
C7E C8E 1_555 1_555
C7C C8C 1_555 1_555
C7C_2 C8C_2 1_555 1_555
C7B C8B 1_555 1_555
C7_2 C8_2 1_555 1_555
O1E C14E 1_555 1_555
O1C C14C 1_555 1_555
O1C_2 C14C_2 1_555 1_555
O1B C14B 1_555 1_555
O1_2 C14_2 1_555 1_555
O1A Eu1A 1_555 1_555
O1D Eu1D 1_555 1_555
O1B_2 Eu1B 1_555 1_555
O1E_2 Eu1E 1_555 1_555
O2E C14E 1_555 1_555
O2C C14C 1_555 1_555
O2C_2 C14C_2 1_555 1_555
O2B C14B 1_555 1_555
O2_2 C14_2 1_555 1_555
C8E C9E 1_555 1_555
C8C C9C 1_555 1_555
C8C_2 C9C_2 1_555 1_555
C8B C9B 1_555 1_555
C8_2 C9_2 1_555 1_555
C9E C10E 1_555 1_555
C9C C10C 1_555 1_555
C9C_2 C10C_2 1_555 1_555
C9B C10B 1_555 1_555
C9_2 C10_2 1_555 1_555
C10E C11E 1_555 1_555
C10C C11C 1_555 1_555
C10C_2 C11C_2 1_555 1_555
C10B C11B 1_555 1_555
C10_2 C11_2 1_555 1_555
C11E C12E 1_555 1_555
C11C C12C 1_555 1_555
C11C_2 C12C_2 1_555 1_555
C11B C12B 1_555 1_555
C11_2 C12_2 1_555 1_555
C12E C13E 1_555 1_555
C12C C13C 1_555 1_555
C12C_2 C13C_2 1_555 1_555
C12B C13B 1_555 1_555
C12_2 C13_2 1_555 1_555
C13E C8E 1_555 1_555
C13C C8C 1_555 1_555
C13C_2 C8C_2 1_555 1_555
C13B C8B 1_555 1_555
C13_2 C8_2 1_555 1_555
C14E C11E 1_555 1_555
C14C C11C 1_555 1_555
C14C_2 C11C_2 1_555 1_555
C14B C11B 1_555 1_555
C14_2 C11_2 1_555 1_555
C15E H9E 1_555 1_555
C15C H9C 1_555 1_555
C15C_2 H9C_2 1_555 1_555
C15B H9B 1_555 1_555
C15_2 H9_2 1_555 1_555
H10E C15E 1_555 1_555
H10C C15C 1_555 1_555
H10C_2 C15C_2 1_555 1_555
H10B C15B 1_555 1_555
H10_2 C15_2 1_555 1_555
H11E C15E 1_555 1_555
H11C C15C 1_555 1_555
H11C_2 C15C_2 1_555 1_555
H11B C15B 1_555 1_555
H11_2 C15_2 1_555 1_555
C16E H12E 1_555 1_555
C16C H12C 1_555 1_555
C16C_2 H12C_2 1_555 1_555
C16B H12B 1_555 1_555
C16_2 H12_2 1_555 1_555
H13E C16E 1_555 1_555
H13C C16C 1_555 1_555
H13C_2 C16C_2 1_555 1_555
H13B C16B 1_555 1_555
H13_2 C16_2 1_555 1_555
H14E C16E 1_555 1_555
H14C C16C 1_555 1_555
H14C_2 C16C_2 1_555 1_555
H14B C16B 1_555 1_555
H14_2 C16_2 1_555 1_555
C17E H15E 1_555 1_555
C17C H15C 1_555 1_555
C17C_2 H15C_2 1_555 1_555
C17B H15B 1_555 1_555
C17_2 H15_2 1_555 1_555
H16E C17E 1_555 1_555
H16C C17C 1_555 1_555
H16C_2 C17C_2 1_555 1_555
H16B C17B 1_555 1_555
H16_2 C17_2 1_555 1_555
H17E C17E 1_555 1_555
H17C C17C 1_555 1_555
H17C_2 C17C_2 1_555 1_555
H17B C17B 1_555 1_555
H17_2 C17_2 1_555 1_555
C18E H18E 1_555 1_555
C18C H18C 1_555 1_555
C18C_2 H18C_2 1_555 1_555
C18B H18B 1_555 1_555
C18_2 H18_2 1_555 1_555
H19E C18E 1_555 1_555
H19C C18C 1_555 1_555
H19C_2 C18C_2 1_555 1_555
H19B C18B 1_555 1_555
H19_2 C18_2 1_555 1_555
H20E C18E 1_555 1_555
H20C C18C 1_555 1_555
H20C_2 C18C_2 1_555 1_555
H20B C18B 1_555 1_555
H20_2 C18_2 1_555 1_555
S1E C9E 1_555 1_555
S1C C9C 1_555 1_555
S1C_2 C9C_2 1_555 1_555
S1B C9B 1_555 1_555
S1_2 C9_2 1_555 1_555
S2E C10E 1_555 1_555
S2C C10C 1_555 1_555
S2C_2 C10C_2 1_555 1_555
S2B C10B 1_555 1_555
S2_2 C10_2 1_555 1_555
S3E C12E 1_555 1_555
S3C C12C 1_555 1_555
S3C_2 C12C_2 1_555 1_555
S3B C12B 1_555 1_555
S3_2 C12_2 1_555 1_555
S4E C13E 1_555 1_555
S4C C13C 1_555 1_555
S4C_2 C13C_2 1_555 1_555
S4B C13B 1_555 1_555
S4_2 C13_2 1_555 1_555
Eu1C O1C_2 1_555 1_555
Eu1A O9 1_555 1_555
Eu1D O5D 1_555 1_555
Eu1B O9 1_555 1_555
Eu1E O5E 1_555 1_555
Eu1D_2 O7 1_555 1_555
Eu1C_2 O8 1_555 1_555
Eu1E_2 O1E 1_555 1_555
Eu1E_3 O8B 1_555 1_555
Eu1D_3 O7_2 1_555 1_555
Eu1A_2 O7C_2 1_555 1_555
Eu1_2 O1_2 1_555 1_555
Eu1B_2 O1B 1_555 1_555
Eu2C O6C 1_555 1_555
Eu2D O6D 1_555 1_555
Eu2E O6E 1_555 1_555
O5C C1C 1_555 1_555
O5A C1A 1_555 1_555
O5D C1D 1_555 1_555
O5B C1B 1_555 1_555
O5E C1E 1_555 1_555
O6C C1C 1_555 1_555
O6A Eu2 1_555 1_555
O6D C1D 1_555 1_555
O6B Eu2 1_555 1_555
O6E C1E 1_555 1_555
O6D_2 Eu2C 1_555 1_555
O6E_2 Eu2C 1_555 1_555
O7E Eu1 1_555 1_555
O7C C7C 1_555 1_555
O7C_2 C7C_2 1_555 1_555
O7B C7B 1_555 1_555
O7_2 C7_2 1_555 1_555
O7_3 Eu1D 1_555 1_555
O7D Eu1B 1_555 1_555
O7A Eu1E 1_555 1_555
O8E C7E 1_555 1_555
O8C Eu1 1_555 1_555
O8C_2 C7C_2 1_555 1_555
O8B C7B 1_555 1_555
O8_2 C7_2 1_555 1_555
O8D Eu1A 1_555 1_555
O8A Eu1D 1_555 1_555
O8B_2 Eu1E 1_555 1_555
O9A Eu1 1_555 1_555
O9B Eu1 1_555 1_555
O9C Eu1E_3 1_555 1_555
O9D Eu1C 1_555 1_555
O9E Eu1C 1_555 1_555
O9E_2 Eu1D 1_555 1_555
O9C_2 Eu1D 1_555 1_555
O9C_3 Eu1E 1_555 1_555
O9D_2 Eu1E 1_555 1_555
H34A O9A 1_555 1_555
H34B O9B 1_555 1_555
H34C O9C 1_555 1_555
H34D O9D 1_555 1_555
H34E O9E 1_555 1_555
H34E_2 O9E_2 1_555 1_555
H34C_2 O9C_2 1_555 1_555
H34C_3 O9C_3 1_555 1_555
H34D_2 O9D_2 1_555 1_555
O10C Eu1C 1_555 1_555
O10D Eu1D 1_555 1_555
O10E Eu1E 1_555 1_555
H35C O10C 1_555 1_555
H35D O10D 1_555 1_555
H35E O10E 1_555 1_555
O11C Eu2C 1_555 1_555
O12C Eu1C 1_555 1_555
O12A Eu1A 1_555 1_555
O12D Eu1D 1_555 1_555
O12B Eu1B 1_555 1_555
O12E Eu1E 1_555 1_555
H37C O12C 1_555 1_555
H37A O12A 1_555 1_555
H37D O12D 1_555 1_555
H37B O12B 1_555 1_555
H37E O12E 1_555 1_555
H38C O12C 1_555 1_555
H38A O12A 1_555 1_555
H38D O12D 1_555 1_555
H38B O12B 1_555 1_555
H38E O12E 1_555 1_555
S9C C4C 1_555 1_555
S9A C4A 1_555 1_555
S9D C4D 1_555 1_555
S9B C4B 1_555 1_555
S9E C4E 1_555 1_555
S10C C3C 1_555 1_555
S10A C3A 1_555 1_555
S10D C3D 1_555 1_555
S10B C3B 1_555 1_555
S10E C3E 1_555 1_555
C5 S9 1_555 1_555
C15 S1 1_555 1_555
C16 S2 1_555 1_555
C17 S3 1_555 1_555
C18 S4 1_555 1_555
Eu1 O5 1_555 1_555
Eu2 O9A 1_555 1_555
Eu2 O9B 1_555 1_555
O10 Eu1A 1_555 1_555
O10 Eu1B 1_555 1_555
C1A O6A 1_555 1_555
C1B O6B 1_555 1_555
C2C C4C 1_555 1_555
C5C S9C 1_555 1_555
C5A S9A 1_555 1_555
C5D S9D 1_555 1_555
C5B S9B 1_555 1_555
C5E S9E 1_555 1_555
C6C S10C 1_555 1_555
C6A S10A 1_555 1_555
C6D S10D 1_555 1_555
C6B S10B 1_555 1_555
C6E S10E 1_555 1_555
C7E O7E 1_555 1_555
C7C O8C 1_555 1_555
O1C Eu1C_2 1_555 1_555
C15E S1E 1_555 1_555
C15C S1C 1_555 1_555
C15C_2 S1C_2 1_555 1_555
C15B S1B 1_555 1_555
C15_2 S1_2 1_555 1_555
C16E S2E 1_555 1_555
C16C S2C 1_555 1_555
C16C_2 S2C_2 1_555 1_555
C16B S2B 1_555 1_555
C16_2 S2_2 1_555 1_555
C17E S3E 1_555 1_555
C17C S3C 1_555 1_555
C17C_2 S3C_2 1_555 1_555
C17B S3B 1_555 1_555
C17_2 S3_2 1_555 1_555
C18E S4E 1_555 1_555
C18C S4C 1_555 1_555
C18C_2 S4C_2 1_555 1_555
C18B S4B 1_555 1_555
C18_2 S4_2 1_555 1_555
Eu1C O5C 1_555 1_555
Eu1C O7B 1_555 1_555
Eu1C O8_2 1_555 1_555
Eu1A O5A 1_555 1_555
Eu1A O7C 1_555 1_555
Eu1A O9B 1_555 1_555
Eu1B O5B 1_555 1_555
Eu1B O8E 1_555 1_555
Eu1B O9A 1_555 1_555
Eu1E_3 O9D 1_555 1_555
Eu1E_3 O10C 1_555 1_555
Eu1D_3 O9C 1_555 1_555
Eu1D_3 O9E 1_555 1_555
Eu1D_3 O10C 1_555 1_555
Eu1_2 O8C_2 1_555 1_555
Eu2C O9C 1_555 1_555
Eu2C O9D 1_555 1_555
Eu2C O9E 1_555 1_555
Eu2D O9E_2 1_555 1_555
Eu2D O9C_2 1_555 1_555
Eu2E O9C_3 1_555 1_555
Eu2E O9D_2 1_555 1_555

#END
