
#######################################################################
#
#                 Cambridge Crystallographic Data Centre
#                                CCDC 
#
#######################################################################
#
# If this CIF has been generated from an entry in the Cambridge 
# Structural Database, then it will include bibliographic, chemical, 
# crystal, experimental, refinement or atomic coordinate data resulting 
# from the CCDC's data processing and validation procedures.
#
#######################################################################

data_IJENIV
_chemical_formula_moiety         '(C108 H132 Ag6 Cl6 Eu8 O52 S36)n'
_symmetry_cell_setting           trigonal
_symmetry_space_group_name_H-M   'P -3'
_symmetry_Int_Tables_number      147
_space_group_name_Hall           '-P 3'
loop_
_symmetry_equiv_pos_site_id
_symmetry_equiv_pos_as_xyz
1 x,y,z
2 -y,x-y,z
3 -x+y,-x,z
4 -x,-y,-z
5 y,-x+y,-z
6 x-y,x,-z
_cell_length_a                   19.5856(6)
_cell_length_b                   19.5856(6)
_cell_length_c                   15.7843(9)
_cell_angle_alpha                90
_cell_angle_beta                 90
_cell_angle_gamma                120
_cell_volume                     5243.6
loop_
_atom_site_label
_atom_site_type_symbol
_atom_site_fract_x
_atom_site_fract_y
_atom_site_fract_z
Ag1 Ag 0.39810(5) 0.76914(4) -0.22365(3)
Cl1 Cl 0.28526(16) 0.75629(19) -0.30036(16)
C1 C 0.4645(2) 0.6073(2) 0.4097(3)
C2 C 0.4270(2) 0.4721(3) 0.4605(3)
C3 C 0.4833(2) 0.5520(2) 0.4582(2)
C4 C 0.5569(2) 0.5808(2) 0.4966(3)
C5 C 0.2750(3) 0.4396(4) 0.4930(4)
H1 H 0.2231 0.4270 0.4713
H2 H 0.3003 0.4918 0.5196
H3 H 0.2687 0.4000 0.5350
C6 C 0.6293(7) 0.7189(5) 0.5881(5)
H4 H 0.6549 0.7765 0.5862
H5 H 0.6585 0.7033 0.6264
H6 H 0.5751 0.6970 0.6085
C7 C 0.4948(2) 0.8172(2) 0.0955(3)
C8 C 0.5429(3) 0.8736(3) 0.0253(3)
C9 C 0.6213(3) 0.9304(3) 0.0394(3)
C10 C 0.6631(3) 0.9860(3) -0.0248(3)
C11 C 0.6261(3) 0.9834(3) -0.1009(3)
C12 C 0.5479(3) 0.9241(3) -0.1162(3)
C13 C 0.5067(3) 0.8691(3) -0.0524(3)
C14 C 0.6683(3) 1.0508(3) -0.1639(3)
S1 S 0.66835(19) 0.92378(12) 0.13022(17)
S2 S 0.7605(4) 1.0602(4) -0.0138(4)
S3 S 0.4906(2) 0.92351(19) -0.20674(15)
C15 C 0.6629(8) 0.9968(8) 0.1911(7)
H7 H 0.6904 1.0474 0.1613
H8 H 0.6878 1.0017 0.2463
H9 H 0.6075 0.9817 0.1992
C16 C 0.8162(14) 1.0203(11) -0.0624(14)
H10 H 0.7934 0.9980 -0.1178
H11 H 0.8145 0.9788 -0.0262
H12 H 0.8711 1.0624 -0.0698
C17 C 0.5519(7) 0.9398(7) -0.2975(5)
H13 H 0.5882 0.9965 -0.3044
H14 H 0.5188 0.9191 -0.3481
H15 H 0.5822 0.9129 -0.2895
C18 C 0.3553(3) 0.8470(3) -0.0485(4)
H18 H 0.3663 0.8705 0.0082
H19 H 0.2985 0.8113 -0.0548
H20 H 0.3734 0.8887 -0.0913
Eu1 Eu 0.444827(10) 0.663089(10) 0.215981(11)
Eu2 Eu 0.3333 0.6667 0.409175(19)
O2 O 0.48433(17) 0.61834(18) 0.33317(18)
O3 O 0.42926(18) 0.63680(18) 0.44930(19)
O4 O 0.32680(15) 0.58262(16) 0.30034(17)
H21 H 0.3247 0.5337 0.3223
O5 O 0.3333 0.6666 0.1579(3)
H22 H 0.3333 0.6666 0.0945
O6 O 0.57340(17) 0.77637(18) 0.2683(2)
H23 H 0.605(2) 0.760(3) 0.260(3)
H24 H 0.589(3) 0.8182(19) 0.243(3)
O7 O 0.3333 0.6667 0.5606(4)
O8 O 0.49741(17) 0.75518(17) 0.10397(19)
O9 O 0.45589(18) 0.83895(18) 0.1403(2)
O10 O 0.7192(2) 1.0519(2) -0.2126(3)
O11 O 0.64498(17) 1.09990(18) -0.16042(19)
S4 S 0.33562(7) 0.43953(7) 0.40645(8)
S5 S 0.62806(7) 0.68260(7) 0.48596(10)
S6 S 0.40672(8) 0.79220(7) -0.06244(8)
Ag1B Ag 0.37104(6) 0.60190(5) -0.22365(3)
Ag1E Ag 0.62896(6) 0.39810(5) 0.22365(3)
Ag1C Ag 0.60190(5) 0.23086(4) 1.22365(3)
Ag1E_2 Ag 0.62896(6) 0.39810(5) 1.22365(3)
Ag1B_2 Ag 0.37104(6) 0.60190(5) 0.77635(3)
Ag1A Ag 0.23086(4) 0.62896(6) -0.22365(3)
Ag1C_2 Ag 0.60190(5) 0.23086(4) 0.22365(3)
Ag1D Ag 0.76914(4) 0.37104(6) 0.22365(3)
Ag1D_2 Ag 0.76914(4) 0.37104(6) 1.22365(3)
Cl1B Cl 0.47103(25) 0.71474(16) -0.30036(16)
Cl1A Cl 0.24371(19) 0.52897(25) -0.30036(16)
Cl1E Cl 0.52897(25) 0.28526(16) 0.30036(16)
Cl1D Cl 0.75629(19) 0.47103(25) 0.30036(16)
Cl1C Cl 0.71474(16) 0.24371(19) 1.30036(16)
Cl1E_2 Cl 0.52897(25) 0.28526(16) 1.30036(16)
Cl1D_2 Cl 0.75629(19) 0.47103(25) 1.30036(16)
Cl1B_2 Cl 0.47103(25) 0.71474(16) 0.69964(16)
Cl1A_2 Cl 0.24371(19) 0.52897(25) 0.69964(16)
C1C C 0.5355(2) 0.3927(2) 0.5903(3)
C1A C 0.3927(2) 0.8572(3) 0.4097(3)
C1D C 0.6073(2) 1.1428(3) 0.5903(3)
C1B C 0.1428(3) 0.5355(2) 0.4097(3)
C1E C -0.1428(3) 0.4645(2) 0.5903(3)
C2C C 0.5730(2) 0.5279(3) 0.5395(3)
C2A C 0.5279(3) 0.9549(4) 0.4605(3)
C2D C 0.4721(3) 1.0451(4) 0.5395(3)
C2B C 0.0451(4) 0.5730(2) 0.4605(3)
C2E C -0.0451(4) 0.4270(2) 0.5395(3)
C3C C 0.5167(2) 0.4480(2) 0.5418(2)
C3A C 0.4480(2) 0.9313(3) 0.4582(2)
C3D C 0.5520(2) 1.0687(3) 0.5418(2)
C3B C 0.0687(3) 0.5167(2) 0.4582(2)
C3E C -0.0687(3) 0.4833(2) 0.5418(2)
C4C C 0.4431(2) 0.4192(2) 0.5034(3)
C4A C 0.4192(2) 0.9761(3) 0.4966(3)
C4D C 0.5808(2) 1.0239(3) 0.5034(3)
C4B C 0.0239(3) 0.4431(2) 0.4966(3)
C4E C -0.0239(3) 0.5569(2) 0.5034(3)
C5C C 0.7250(3) 0.5604(4) 0.5070(4)
C5A C 0.5604(4) 0.8354(5) 0.4930(4)
C5D C 0.4396(4) 1.1646(5) 0.5070(4)
C5B C 0.1646(5) 0.7250(3) 0.4930(4)
C5E C -0.1646(5) 0.2750(3) 0.5070(4)
H1C H 0.7769 0.5730 0.5287
H1A H 0.5730 0.7961 0.4713
H1D H 0.4270 1.2039 0.5287
H1B H 0.2039 0.7769 0.4713
H1E H -0.2039 0.2231 0.5287
H2C H 0.6997 0.5082 0.4804
H2A H 0.5082 0.8085 0.5196
H2D H 0.4918 1.1915 0.4804
H2B H 0.1915 0.6997 0.5196
H2E H -0.1915 0.3003 0.4804
H3C H 0.7313 0.6000 0.4650
H3A H 0.6000 0.8687 0.5350
H3D H 0.4000 1.1313 0.4650
H3B H 0.1313 0.7313 0.5350
H3E H -0.1313 0.2687 0.4650
C6C C 0.3707(7) 0.2811(5) 0.4119(5)
C6A C 0.2811(5) 0.9104(9) 0.5881(5)
C6D C 0.7189(5) 1.0896(9) 0.4119(5)
C6B C 0.0896(9) 0.3707(7) 0.5881(5)
C6E C -0.0896(9) 0.6293(7) 0.4119(5)
H4C H 0.3451 0.2235 0.4138
H4A H 0.2235 0.8784 0.5862
H4D H 0.7765 1.1216 0.4138
H4B H 0.1216 0.3451 0.5862
H4E H -0.1216 0.6549 0.4138
H5C H 0.3415 0.2967 0.3736
H5A H 0.2967 0.9552 0.6264
H5D H 0.7033 1.0448 0.3736
H5B H 0.0448 0.3415 0.6264
H5E H -0.0448 0.6585 0.3736
H6C H 0.4249 0.3030 0.3915
H6A H 0.3030 0.8781 0.6085
H6D H 0.6970 1.1219 0.3915
H6B H 0.1219 0.4249 0.6085
H6E H -0.1219 0.5751 0.3915
C7B C 0.3224(3) 0.5052(2) 0.0955(3)
C7E C 0.6776(3) 0.4948(2) -0.0955(3)
C7C C 0.5052(2) 0.1828(2) 0.9045(3)
C7E_2 C 0.6776(3) 0.4948(2) 0.9045(3)
C7B_2 C 0.3224(3) 0.5052(2) 1.0955(3)
C8B C 0.3307(4) 0.4571(3) 0.0253(3)
C8E C 0.6693(4) 0.5429(3) -0.0253(3)
C8C C 0.4571(3) 0.1264(3) 0.9747(3)
C8E_2 C 0.6693(4) 0.5429(3) 0.9747(3)
C8B_2 C 0.3307(4) 0.4571(3) 1.0253(3)
C9B C 0.3091(4) 0.3787(3) 0.0394(3)
C9E C 0.6909(4) 0.6213(3) -0.0394(3)
C9C C 0.3787(3) 0.0696(3) 0.9606(3)
C9E_2 C 0.6909(4) 0.6213(3) 0.9606(3)
C9B_2 C 0.3091(4) 0.3787(3) 1.0394(3)
C10B C 0.3229(4) 0.3369(3) -0.0248(3)
C10E C 0.6771(4) 0.6631(3) 0.0248(3)
C10C C 0.3369(3) 0.0140(3) 1.0248(3)
C10E_2 C 0.6771(4) 0.6631(3) 1.0248(3)
C10B_2 C 0.3229(4) 0.3369(3) 0.9752(3)
C11B C 0.3573(4) 0.3739(3) -0.1009(3)
C11E C 0.6427(4) 0.6261(3) 0.1009(3)
C11C C 0.3739(3) 0.0166(3) 1.1009(3)
C11E_2 C 0.6427(4) 0.6261(3) 1.1009(3)
C11B_2 C 0.3573(4) 0.3739(3) 0.8991(3)
C12B C 0.3762(4) 0.4521(3) -0.1162(3)
C12E C 0.6238(4) 0.5479(3) 0.1162(3)
C12C C 0.4521(3) 0.0759(3) 1.1162(3)
C12E_2 C 0.6238(4) 0.5479(3) 1.1162(3)
C12B_2 C 0.3762(4) 0.4521(3) 0.8838(3)
C13B C 0.3624(4) 0.4933(3) -0.0524(3)
C13E C 0.6376(4) 0.5067(3) 0.0524(3)
C13C C 0.4933(3) 0.1309(3) 1.0524(3)
C13E_2 C 0.6376(4) 0.5067(3) 1.0524(3)
C13B_2 C 0.3624(4) 0.4933(3) 0.9476(3)
C14B C 0.3825(4) 0.3317(3) -0.1639(3)
C14E C 0.6175(4) 0.6683(3) 0.1639(3)
C14C C 0.3317(3) -0.0508(3) 1.1639(3)
C14E_2 C 0.6175(4) 0.6683(3) 1.1639(3)
C14B_2 C 0.3825(4) 0.3317(3) 0.8361(3)
S1B S 0.25543(22) 0.33165(19) 0.13022(17)
S1E S 0.74457(22) 0.66835(19) -0.13022(17)
S1C S 0.33165(19) 0.07622(12) 0.86978(17)
S1E_2 S 0.74457(22) 0.66835(19) 0.86978(17)
S1B_2 S 0.25543(22) 0.33165(19) 1.13022(17)
S2B S 0.2997(6) 0.2395(4) -0.0138(4)
S2E S 0.7003(6) 0.7605(4) 0.0138(4)
S2C S 0.2395(4) -0.0602(4) 1.0138(4)
S2E_2 S 0.7003(6) 0.7605(4) 1.0138(4)
S2B_2 S 0.2997(6) 0.2395(4) 0.9862(4)
S3B S 0.43291(28) 0.5094(2) -0.20674(15)
S3E S 0.56709(28) 0.4906(2) 0.20674(15)
S3C S 0.5094(2) 0.07649(19) 1.20674(15)
S3E_2 S 0.56709(28) 0.4906(2) 1.20674(15)
S3B_2 S 0.43291(28) 0.5094(2) 0.79326(15)
C15B C 0.3339(11) 0.3371(8) 0.1911(7)
C15E C 0.6661(11) 0.6629(8) -0.1911(7)
C15C C 0.3371(8) 0.0032(8) 0.8089(7)
C15E_2 C 0.6661(11) 0.6629(8) 0.8089(7)
C15B_2 C 0.3339(11) 0.3371(8) 1.1911(7)
H7B H 0.3570 0.3096 0.1613
H7E H 0.6430 0.6904 -0.1613
H7C H 0.3096 -0.0474 0.8387
H7E_2 H 0.6430 0.6904 0.8387
H7B_2 H 0.3570 0.3096 1.1613
H8B H 0.3139 0.3122 0.2463
H8E H 0.6861 0.6878 -0.2463
H8C H 0.3122 -0.0017 0.7537
H8E_2 H 0.6861 0.6878 0.7537
H8B_2 H 0.3139 0.3122 1.2463
H9B H 0.3742 0.3925 0.1992
H9E H 0.6258 0.6075 -0.1992
H9C H 0.3925 0.0183 0.8008
H9E_2 H 0.6258 0.6075 0.8008
H9B_2 H 0.3742 0.3925 1.1992
C16B C 0.2041(18) 0.1838(14) -0.0624(14)
C16E C 0.7959(18) 0.8162(14) 0.0624(14)
C16C C 0.1838(14) -0.0203(11) 1.0624(14)
C16E_2 C 0.7959(18) 0.8162(14) 1.0624(14)
C16B_2 C 0.2041(18) 0.1838(14) 0.9376(14)
H10B H 0.2046 0.2066 -0.1178
H10E H 0.7954 0.7934 0.1178
H10C H 0.2066 0.0020 1.1178
H10E_2 H 0.7954 0.7934 1.1178
H10B_2 H 0.2046 0.2066 0.8822
H11B H 0.1643 0.1855 -0.0262
H11E H 0.8357 0.8145 0.0262
H11C H 0.1855 0.0212 1.0262
H11E_2 H 0.8357 0.8145 1.0262
H11B_2 H 0.1643 0.1855 0.9738
H12B H 0.1913 0.1289 -0.0698
H12E H 0.8087 0.8711 0.0698
H12C H 0.1289 -0.0624 1.0698
H12E_2 H 0.8087 0.8711 1.0698
H12B_2 H 0.1913 0.1289 0.9302
C17B C 0.3879(10) 0.4481(7) -0.2975(5)
C17E C 0.6121(10) 0.5519(7) 0.2975(5)
C17C C 0.4481(7) 0.0602(7) 1.2975(5)
C17E_2 C 0.6121(10) 0.5519(7) 1.2975(5)
C17B_2 C 0.3879(10) 0.4481(7) 0.7025(5)
H13B H 0.4083 0.4118 -0.3044
H13E H 0.5917 0.5882 0.3044
H13C H 0.4118 0.0035 1.3044
H13E_2 H 0.5917 0.5882 1.3044
H13B_2 H 0.4083 0.4118 0.6956
H14B H 0.4003 0.4812 -0.3481
H14E H 0.5997 0.5188 0.3481
H14C H 0.4812 0.0809 1.3481
H14E_2 H 0.5997 0.5188 1.3481
H14B_2 H 0.4003 0.4812 0.6519
H15B H 0.3307 0.4178 -0.2895
H15E H 0.6693 0.5822 0.2895
H15C H 0.4178 0.0871 1.2895
H15E_2 H 0.6693 0.5822 1.2895
H15B_2 H 0.3307 0.4178 0.7105
C18B C 0.4917(4) 0.6447(3) -0.0485(4)
C18E C 0.5083(4) 0.3553(3) 0.0485(4)
C18C C 0.6447(3) 0.1530(3) 1.0485(4)
C18E_2 C 0.5083(4) 0.3553(3) 1.0485(4)
C18B_2 C 0.4917(4) 0.6447(3) 0.9515(4)
H18B H 0.5042 0.6337 0.0082
H18E H 0.4958 0.3663 -0.0082
H18C H 0.6337 0.1295 0.9918
H18E_2 H 0.4958 0.3663 0.9918
H18B_2 H 0.5042 0.6337 1.0082
H19B H 0.5128 0.7015 -0.0548
H19E H 0.4872 0.2985 0.0548
H19C H 0.7015 0.1887 1.0548
H19E_2 H 0.4872 0.2985 1.0548
H19B_2 H 0.5128 0.7015 0.9452
H20B H 0.5153 0.6266 -0.0913
H20E H 0.4847 0.3734 0.0913
H20C H 0.6266 0.1113 1.0913
H20E_2 H 0.4847 0.3734 1.0913
H20B_2 H 0.5153 0.6266 0.9087
Eu1C Eu 0.555173(10) 0.336911(10) 0.784019(11)
Eu1A Eu 0.336911(10) 0.781738(14) 0.215981(11)
Eu1D Eu 0.663089(10) 1.218262(14) 0.784019(11)
Eu1B Eu 0.218262(14) 0.555173(10) 0.215981(11)
Eu1E Eu -0.218262(14) 0.444827(10) 0.784019(11)
Eu1D_2 Eu 0.663089(10) 1.218262(14) -0.215981(11)
Eu1C_2 Eu 0.555173(10) 0.336911(10) -0.215981(11)
Eu1E_2 Eu 0.781738(14) 0.444827(10) -0.215981(11)
Eu1E_3 Eu 0.781738(14) 0.444827(10) 0.784019(11)
Eu1D_3 Eu 0.663089(10) 0.218262(14) 0.784019(11)
Eu1A_2 Eu 0.336911(10) -0.218262(14) 1.215981(11)
Eu1_2 Eu 0.444827(10) 0.663089(10) 1.215981(11)
Eu1B_2 Eu 0.218262(14) 0.555173(10) 1.215981(11)
Eu2C Eu 0.6667 0.3333 0.590825(19)
Eu2D Eu 0.6667 1.3334 0.590825(19)
Eu2E Eu -0.3334 0.3333 0.590825(19)
O2C O 0.51567(17) 0.38166(18) 0.66683(18)
O2A O 0.38166(18) 0.86599(25) 0.33317(18)
O2D O 0.61834(18) 1.13401(25) 0.66683(18)
O2B O 0.13401(25) 0.51567(17) 0.33317(18)
O2E O -0.13401(25) 0.48433(17) 0.66683(18)
O3C O 0.57074(18) 0.36320(18) 0.55070(19)
O3A O 0.36320(18) 0.79246(25) 0.44930(19)
O3D O 0.63680(18) 1.20754(25) 0.55070(19)
O3B O 0.20754(25) 0.57074(18) 0.44930(19)
O3E O -0.20754(25) 0.42926(18) 0.55070(19)
O3D_2 O 0.63680(18) 0.20754(25) 0.55070(19)
O3E_2 O 0.79246(25) 0.42926(18) 0.55070(19)
O4A O 0.41738(16) 0.74418(22) 0.30034(17)
O4B O 0.25582(22) 0.67320(15) 0.30034(17)
O4C O 0.67320(15) 0.41738(16) 0.69966(17)
O4D O 0.58262(16) 0.25582(22) 0.69966(17)
O4E O 0.74418(22) 0.32680(15) 0.69966(17)
O4D_2 O 0.58262(16) 1.25582(22) 0.69966(17)
O4E_2 O 0.74418(22) 1.32680(15) 0.69966(17)
O4E_3 O -0.25582(22) 0.32680(15) 0.69966(17)
O4C_2 O -0.32680(15) 0.41738(16) 0.69966(17)
H21A H 0.4663 0.7910 0.3223
H21B H 0.2090 0.6753 0.3223
H21C H 0.6753 0.4663 0.6777
H21D H 0.5337 0.2090 0.6777
H21E H 0.7910 0.3247 0.6777
H21D_2 H 0.5337 1.2090 0.6777
H21E_2 H 0.7910 1.3247 0.6777
H21E_3 H -0.2090 0.3247 0.6777
H21C_2 H -0.3247 0.4663 0.6777
O5C O 0.6667 0.3334 0.8421(3)
O5D O 0.6666 1.3333 0.8421(3)
O5E O -0.3333 0.3333 0.8421(3)
H22C H 0.6667 0.3334 0.9055
H22D H 0.6666 1.3333 0.9055
H22E H -0.3333 0.3333 0.9055
O6C O 0.42660(17) 0.22363(18) 0.7317(2)
O6A O 0.22363(18) 0.79703(25) 0.2683(2)
O6D O 0.77637(18) 1.20297(25) 0.7317(2)
O6B O 0.20297(25) 0.42660(17) 0.2683(2)
O6E O -0.20297(25) 0.57340(17) 0.7317(2)
H23C H 0.395(2) 0.240(3) 0.740(3)
H23A H 0.240(3) 0.845(4) 0.260(3)
H23D H 0.760(3) 1.155(4) 0.740(3)
H23B H 0.155(4) 0.395(2) 0.260(3)
H23E H -0.155(4) 0.605(2) 0.740(3)
H24C H 0.411(3) 0.1818(19) 0.757(3)
H24A H 0.1818(19) 0.7708(36) 0.243(3)
H24D H 0.8182(19) 1.2292(36) 0.757(3)
H24B H 0.2292(36) 0.411(3) 0.243(3)
H24E H -0.2292(36) 0.589(3) 0.757(3)
O7C O 0.6667 0.3333 0.4394(4)
O8B O 0.25777(24) 0.50259(17) 0.10397(19)
O8E O 0.74223(24) 0.49741(17) -0.10397(19)
O8C O 0.50259(17) 0.24482(17) 0.89603(19)
O8E_2 O 0.74223(24) 0.49741(17) 0.89603(19)
O8B_2 O 0.25777(24) 0.50259(17) 1.10397(19)
O8A O 0.24482(17) 0.74223(24) 0.10397(19)
O8D O 0.75518(17) 1.25777(24) 0.89603(19)
O8E_3 O -0.25777(24) 0.49741(17) 0.89603(19)
O9B O 0.38306(25) 0.54411(18) 0.1403(2)
O9E O 0.61694(25) 0.45589(18) -0.1403(2)
O9C O 0.54411(18) 0.16105(18) 0.8597(2)
O9E_2 O 0.61694(25) 0.45589(18) 0.8597(2)
O9B_2 O 0.38306(25) 0.54411(18) 1.1403(2)
O9C_2 O 0.54411(18) 1.16105(18) 0.8597(2)
O9A O 0.16105(18) 0.61694(25) 0.1403(2)
O9D O -0.16105(18) 0.38306(25) 0.8597(2)
O10B O 0.3327(3) 0.2808(2) -0.2126(3)
O10E O 0.6673(3) 0.7192(2) 0.2126(3)
O10C O 0.2808(2) -0.0519(2) 1.2126(3)
O10E_2 O 0.6673(3) 0.7192(2) 1.2126(3)
O10B_2 O 0.3327(3) 0.2808(2) 0.7874(3)
O11B O 0.45492(25) 0.35502(17) -0.16042(19)
O11E O 0.54508(25) 0.64498(17) 0.16042(19)
O11C O 0.35502(17) -0.09990(18) 1.16042(19)
O11E_2 O 0.54508(25) 0.64498(17) 1.16042(19)
O11B_2 O 0.45492(25) 0.35502(17) 0.83958(19)
O11C_2 O 0.35502(17) 0.90010(18) 0.16042(19)
O11_2 O 0.64498(17) 1.09990(18) 0.83958(19)
O11D O 0.09990(18) 0.45492(25) 0.16042(19)
O11A O -0.09990(18) 0.54508(25) 0.83958(19)
S4C S 0.66438(7) 0.56047(7) 0.59355(8)
S4A S 0.56047(7) 0.89609(10) 0.40645(8)
S4D S 0.43953(7) 1.10391(10) 0.59355(8)
S4B S 0.10391(10) 0.66438(7) 0.40645(8)
S4E S -0.10391(10) 0.33562(7) 0.59355(8)
S5C S 0.37194(7) 0.31740(7) 0.51404(10)
S5A S 0.31740(7) 0.94546(10) 0.48596(10)
S5D S 0.68260(7) 1.05454(10) 0.51404(10)
S5B S 0.05454(10) 0.37194(7) 0.48596(10)
S5E S -0.05454(10) 0.62806(7) 0.51404(10)
S6B S 0.38548(11) 0.59328(8) -0.06244(8)
S6E S 0.61452(11) 0.40672(8) 0.06244(8)
S6C S 0.59328(8) 0.20780(7) 1.06244(8)
S6E_2 S 0.61452(11) 0.40672(8) 1.06244(8)
S6B_2 S 0.38548(11) 0.59328(8) 0.93756(8)
loop_
_geom_bond_atom_site_label_1
_geom_bond_atom_site_label_2
_geom_bond_site_symmetry_1
_geom_bond_site_symmetry_2
Ag1 Cl1 1_555 1_555
Cl1 Ag1A 1_555 1_555
C1 C3 1_555 1_555
C2 C3 1_555 1_555
C3 C4 1_555 1_555
C4 S5 1_555 1_555
C5 H1 1_555 1_555
H2 C5 1_555 1_555
H3 C5 1_555 1_555
C6 H4 1_555 1_555
H5 C6 1_555 1_555
H6 C6 1_555 1_555
C7 C8 1_555 1_555
C8 C9 1_555 1_555
C9 C10 1_555 1_555
C10 C11 1_555 1_555
C11 C12 1_555 1_555
C12 C13 1_555 1_555
C13 C8 1_555 1_555
C14 C11 1_555 1_555
S1 C9 1_555 1_555
S2 C10 1_555 1_555
S3 Ag1 1_555 1_555
C15 S1 1_555 1_555
H7 C15 1_555 1_555
H8 C15 1_555 1_555
H9 C15 1_555 1_555
C16 S2 1_555 1_555
H10 C16 1_555 1_555
H11 C16 1_555 1_555
H12 C16 1_555 1_555
C17 S3 1_555 1_555
H13 C17 1_555 1_555
H14 C17 1_555 1_555
H15 C17 1_555 1_555
C18 H18 1_555 1_555
H19 C18 1_555 1_555
H20 C18 1_555 1_555
Eu1 O2 1_555 1_555
Eu2 O3 1_555 1_555
O2 C1 1_555 1_555
O3 C1 1_555 1_555
O4 Eu1 1_555 1_555
H21 O4 1_555 1_555
O5 Eu1 1_555 1_555
H22 O5 1_555 1_555
O6 Eu1 1_555 1_555
H23 O6 1_555 1_555
H24 O6 1_555 1_555
O7 Eu2 1_555 1_555
O8 C7 1_555 1_555
O9 C7 1_555 1_555
O10 C14 1_555 1_555
O11 C14 1_555 1_555
S4 C2 1_555 1_555
S5 C6 1_555 1_555
S6 Ag1 1_555 1_555
Ag1B Cl1B 1_555 1_555
Ag1E Cl1E 1_555 1_555
Ag1C Cl1C 1_555 1_555
Ag1E_2 Cl1E_2 1_555 1_555
Ag1B_2 Cl1B_2 1_555 1_555
Ag1A Cl1A 1_555 1_555
Ag1C_2 Cl1E 1_555 1_555
Ag1D Cl1D 1_555 1_555
Ag1D_2 Cl1C 1_555 1_555
Cl1B Ag1 1_555 1_555
Cl1A Ag1B 1_555 1_555
Cl1D Ag1E 1_555 1_555
Cl1E_2 Ag1C 1_555 1_555
Cl1D_2 Ag1E_2 1_555 1_555
Cl1A_2 Ag1B_2 1_555 1_555
C1C C3C 1_555 1_555
C1A C3A 1_555 1_555
C1D C3D 1_555 1_555
C1B C3B 1_555 1_555
C1E C3E 1_555 1_555
C2C C4 1_555 1_555
C2A C3A 1_555 1_555
C2D C3D 1_555 1_555
C2B C3B 1_555 1_555
C2E C3E 1_555 1_555
C3C C2C 1_555 1_555
C3A C4A 1_555 1_555
C3D C4D 1_555 1_555
C3B C4B 1_555 1_555
C3E C4E 1_555 1_555
C4C C2 1_555 1_555
C4A C2D 1_555 1_555
C4D C2A 1_555 1_555
C4B C2E 1_555 1_555
C4E C2B 1_555 1_555
C5C H1C 1_555 1_555
C5A H1A 1_555 1_555
C5D H1D 1_555 1_555
C5B H1B 1_555 1_555
C5E H1E 1_555 1_555
H2C C5C 1_555 1_555
H2A C5A 1_555 1_555
H2D C5D 1_555 1_555
H2B C5B 1_555 1_555
H2E C5E 1_555 1_555
H3C C5C 1_555 1_555
H3A C5A 1_555 1_555
H3D C5D 1_555 1_555
H3B C5B 1_555 1_555
H3E C5E 1_555 1_555
C6C H4C 1_555 1_555
C6A H4A 1_555 1_555
C6D H4D 1_555 1_555
C6B H4B 1_555 1_555
C6E H4E 1_555 1_555
H5C C6C 1_555 1_555
H5A C6A 1_555 1_555
H5D C6D 1_555 1_555
H5B C6B 1_555 1_555
H5E C6E 1_555 1_555
H6C C6C 1_555 1_555
H6A C6A 1_555 1_555
H6D C6D 1_555 1_555
H6B C6B 1_555 1_555
H6E C6E 1_555 1_555
C7B C8B 1_555 1_555
C7E C8E 1_555 1_555
C7C C8C 1_555 1_555
C7E_2 C8E_2 1_555 1_555
C7B_2 C8B_2 1_555 1_555
C8B C9B 1_555 1_555
C8E C9E 1_555 1_555
C8C C9C 1_555 1_555
C8E_2 C9E_2 1_555 1_555
C8B_2 C9B_2 1_555 1_555
C9B C10B 1_555 1_555
C9E C10E 1_555 1_555
C9C C10C 1_555 1_555
C9E_2 C10E_2 1_555 1_555
C9B_2 C10B_2 1_555 1_555
C10B C11B 1_555 1_555
C10E C11E 1_555 1_555
C10C C11C 1_555 1_555
C10E_2 C11E_2 1_555 1_555
C10B_2 C11B_2 1_555 1_555
C11B C12B 1_555 1_555
C11E C12E 1_555 1_555
C11C C12C 1_555 1_555
C11E_2 C12E_2 1_555 1_555
C11B_2 C12B_2 1_555 1_555
C12B C13B 1_555 1_555
C12E C13E 1_555 1_555
C12C C13C 1_555 1_555
C12E_2 C13E_2 1_555 1_555
C12B_2 C13B_2 1_555 1_555
C13B C8B 1_555 1_555
C13E C8E 1_555 1_555
C13C C8C 1_555 1_555
C13E_2 C8E_2 1_555 1_555
C13B_2 C8B_2 1_555 1_555
C14B C11B 1_555 1_555
C14E C11E 1_555 1_555
C14C C11C 1_555 1_555
C14E_2 C11E_2 1_555 1_555
C14B_2 C11B_2 1_555 1_555
S1B C9B 1_555 1_555
S1E C9E 1_555 1_555
S1C C9C 1_555 1_555
S1E_2 C9E_2 1_555 1_555
S1B_2 C9B_2 1_555 1_555
S2B C10B 1_555 1_555
S2E C10E 1_555 1_555
S2C C10C 1_555 1_555
S2E_2 C10E_2 1_555 1_555
S2B_2 C10B_2 1_555 1_555
S3B Ag1B 1_555 1_555
S3E Ag1E 1_555 1_555
S3C Ag1C 1_555 1_555
S3E_2 Ag1E_2 1_555 1_555
S3B_2 Ag1B_2 1_555 1_555
C15B S1B 1_555 1_555
C15E S1E 1_555 1_555
C15C S1C 1_555 1_555
C15E_2 S1E_2 1_555 1_555
C15B_2 S1B_2 1_555 1_555
H7B C15B 1_555 1_555
H7E C15E 1_555 1_555
H7C C15C 1_555 1_555
H7E_2 C15E_2 1_555 1_555
H7B_2 C15B_2 1_555 1_555
H8B C15B 1_555 1_555
H8E C15E 1_555 1_555
H8C C15C 1_555 1_555
H8E_2 C15E_2 1_555 1_555
H8B_2 C15B_2 1_555 1_555
H9B C15B 1_555 1_555
H9E C15E 1_555 1_555
H9C C15C 1_555 1_555
H9E_2 C15E_2 1_555 1_555
H9B_2 C15B_2 1_555 1_555
C16B S2B 1_555 1_555
C16E S2E 1_555 1_555
C16C S2C 1_555 1_555
C16E_2 S2E_2 1_555 1_555
C16B_2 S2B_2 1_555 1_555
H10B C16B 1_555 1_555
H10E C16E 1_555 1_555
H10C C16C 1_555 1_555
H10E_2 C16E_2 1_555 1_555
H10B_2 C16B_2 1_555 1_555
H11B C16B 1_555 1_555
H11E C16E 1_555 1_555
H11C C16C 1_555 1_555
H11E_2 C16E_2 1_555 1_555
H11B_2 C16B_2 1_555 1_555
H12B C16B 1_555 1_555
H12E C16E 1_555 1_555
H12C C16C 1_555 1_555
H12E_2 C16E_2 1_555 1_555
H12B_2 C16B_2 1_555 1_555
C17B S3B 1_555 1_555
C17E S3E 1_555 1_555
C17C S3C 1_555 1_555
C17E_2 S3E_2 1_555 1_555
C17B_2 S3B_2 1_555 1_555
H13B C17B 1_555 1_555
H13E C17E 1_555 1_555
H13C C17C 1_555 1_555
H13E_2 C17E_2 1_555 1_555
H13B_2 C17B_2 1_555 1_555
H14B C17B 1_555 1_555
H14E C17E 1_555 1_555
H14C C17C 1_555 1_555
H14E_2 C17E_2 1_555 1_555
H14B_2 C17B_2 1_555 1_555
H15B C17B 1_555 1_555
H15E C17E 1_555 1_555
H15C C17C 1_555 1_555
H15E_2 C17E_2 1_555 1_555
H15B_2 C17B_2 1_555 1_555
C18B H18B 1_555 1_555
C18E H18E 1_555 1_555
C18C H18C 1_555 1_555
C18E_2 H18E_2 1_555 1_555
C18B_2 H18B_2 1_555 1_555
H19B C18B 1_555 1_555
H19E C18E 1_555 1_555
H19C C18C 1_555 1_555
H19E_2 C18E_2 1_555 1_555
H19B_2 C18B_2 1_555 1_555
H20B C18B 1_555 1_555
H20E C18E 1_555 1_555
H20C C18C 1_555 1_555
H20E_2 C18E_2 1_555 1_555
H20B_2 C18B_2 1_555 1_555
Eu1C O2C 1_555 1_555
Eu1A O5 1_555 1_555
Eu1D O2D 1_555 1_555
Eu1B O4 1_555 1_555
Eu1E O2E 1_555 1_555
Eu1D_2 O11 1_555 1_555
Eu1C_2 O9E 1_555 1_555
Eu1E_2 O8E 1_555 1_555
Eu1E_3 O4C 1_555 1_555
Eu1D_3 O4D 1_555 1_555
Eu1A_2 O11C 1_555 1_555
Eu1_2 O9B_2 1_555 1_555
Eu1B_2 O8B_2 1_555 1_555
Eu2C O3C 1_555 1_555
Eu2D O3D 1_555 1_555
Eu2E O3E 1_555 1_555
O2C C1C 1_555 1_555
O2A C1A 1_555 1_555
O2D C1D 1_555 1_555
O2B C1B 1_555 1_555
O2E C1E 1_555 1_555
O3C C1C 1_555 1_555
O3A Eu2 1_555 1_555
O3D C1D 1_555 1_555
O3B Eu2 1_555 1_555
O3E C1E 1_555 1_555
O3D_2 Eu2C 1_555 1_555
O3E_2 Eu2C 1_555 1_555
O4A Eu1 1_555 1_555
O4B Eu2 1_555 1_555
O4C Eu1C 1_555 1_555
O4D Eu1C 1_555 1_555
O4E Eu1E_3 1_555 1_555
O4D_2 Eu1D 1_555 1_555
O4E_2 Eu1D 1_555 1_555
O4E_3 Eu1E 1_555 1_555
O4C_2 Eu1E 1_555 1_555
H21A O4A 1_555 1_555
H21B O4B 1_555 1_555
H21C O4C 1_555 1_555
H21D O4D 1_555 1_555
H21E O4E 1_555 1_555
H21D_2 O4D_2 1_555 1_555
H21E_2 O4E_2 1_555 1_555
H21E_3 O4E_3 1_555 1_555
H21C_2 O4C_2 1_555 1_555
O5C Eu1C 1_555 1_555
O5D Eu1D 1_555 1_555
O5E Eu1E 1_555 1_555
H22C O5C 1_555 1_555
H22D O5D 1_555 1_555
H22E O5E 1_555 1_555
O6C Eu1C 1_555 1_555
O6A Eu1A 1_555 1_555
O6D Eu1D 1_555 1_555
O6B Eu1B 1_555 1_555
O6E Eu1E 1_555 1_555
H23C O6C 1_555 1_555
H23A O6A 1_555 1_555
H23D O6D 1_555 1_555
H23B O6B 1_555 1_555
H23E O6E 1_555 1_555
H24C O6C 1_555 1_555
H24A O6A 1_555 1_555
H24D O6D 1_555 1_555
H24B O6B 1_555 1_555
H24E O6E 1_555 1_555
O7C Eu2C 1_555 1_555
O8B C7B 1_555 1_555
O8E C7E 1_555 1_555
O8C C7C 1_555 1_555
O8E_2 C7E_2 1_555 1_555
O8B_2 C7B_2 1_555 1_555
O8A Eu1A 1_555 1_555
O8D Eu1D 1_555 1_555
O8E_3 Eu1E 1_555 1_555
O9B Eu1 1_555 1_555
O9E C7E 1_555 1_555
O9C C7C 1_555 1_555
O9E_2 C7E_2 1_555 1_555
O9B_2 C7B_2 1_555 1_555
O9C_2 Eu1D 1_555 1_555
O9A Eu1B 1_555 1_555
O9D Eu1E 1_555 1_555
O10B C14B 1_555 1_555
O10E C14E 1_555 1_555
O10C C14C 1_555 1_555
O10E_2 C14E_2 1_555 1_555
O10B_2 C14B_2 1_555 1_555
O11B C14B 1_555 1_555
O11E Eu1 1_555 1_555
O11C C14C 1_555 1_555
O11E_2 C14E_2 1_555 1_555
O11B_2 C14B_2 1_555 1_555
O11C_2 Eu1A 1_555 1_555
O11_2 Eu1D 1_555 1_555
O11D Eu1B 1_555 1_555
O11A Eu1E 1_555 1_555
S4C C2C 1_555 1_555
S4A C2A 1_555 1_555
S4D C2D 1_555 1_555
S4B C2B 1_555 1_555
S4E C2E 1_555 1_555
S5C C4C 1_555 1_555
S5A C4A 1_555 1_555
S5D C4D 1_555 1_555
S5B C4B 1_555 1_555
S5E C4E 1_555 1_555
S6B Ag1B 1_555 1_555
S6E Ag1E 1_555 1_555
S6C Ag1C 1_555 1_555
S6E_2 Ag1E_2 1_555 1_555
S6B_2 Ag1B_2 1_555 1_555
C5 S4 1_555 1_555
C12 S3 1_555 1_555
C13 S6 1_555 1_555
C18 S6 1_555 1_555
Eu1 O8 1_555 1_555
Eu2 O4 1_555 1_555
Eu2 O4A 1_555 1_555
O5 Eu1B 1_555 1_555
O9 Eu1A 1_555 1_555
Ag1D_2 Cl1D_2 1_555 1_555
C1A O3A 1_555 1_555
C1B O3B 1_555 1_555
C3C C4C 1_555 1_555
C5C S4C 1_555 1_555
C5A S4A 1_555 1_555
C5D S4D 1_555 1_555
C5B S4B 1_555 1_555
C5E S4E 1_555 1_555
C6C S5C 1_555 1_555
C6A S5A 1_555 1_555
C6D S5D 1_555 1_555
C6B S5B 1_555 1_555
C6E S5E 1_555 1_555
C7B O9B 1_555 1_555
C12B S3B 1_555 1_555
C12E S3E 1_555 1_555
C12C S3C 1_555 1_555
C12E_2 S3E_2 1_555 1_555
C12B_2 S3B_2 1_555 1_555
C13B S6B 1_555 1_555
C13E S6E 1_555 1_555
C13C S6C 1_555 1_555
C13E_2 S6E_2 1_555 1_555
C13B_2 S6B_2 1_555 1_555
C14E O11E 1_555 1_555
C18B S6B 1_555 1_555
C18E S6E 1_555 1_555
C18C S6C 1_555 1_555
C18E_2 S6E_2 1_555 1_555
C18B_2 S6B_2 1_555 1_555
Eu1C O8C 1_555 1_555
Eu1C O9E_2 1_555 1_555
Eu1C O11B_2 1_555 1_555
Eu1A O2A 1_555 1_555
Eu1A O4A 1_555 1_555
Eu1A O4B 1_555 1_555
Eu1B O2B 1_555 1_555
Eu1B O4B 1_555 1_555
Eu1B O8B 1_555 1_555
Eu1C_2 O11B 1_555 1_555
Eu1E_3 O5C 1_555 1_555
Eu1E_3 O8E_2 1_555 1_555
Eu1D_3 O4E 1_555 1_555
Eu1D_3 O5C 1_555 1_555
Eu1D_3 O9C 1_555 1_555
Eu1_2 O11E_2 1_555 1_555
Eu2C O4C 1_555 1_555
Eu2C O4D 1_555 1_555
Eu2C O4E 1_555 1_555
Eu2D O4D_2 1_555 1_555
Eu2D O4E_2 1_555 1_555
Eu2E O4E_3 1_555 1_555
Eu2E O4C_2 1_555 1_555

#END
