
#######################################################################
#
#                 Cambridge Crystallographic Data Centre
#                                CCDC 
#
#######################################################################
#
# If this CIF has been generated from an entry in the Cambridge 
# Structural Database, then it will include bibliographic, chemical, 
# crystal, experimental, refinement or atomic coordinate data resulting 
# from the CCDC's data processing and validation procedures.
#
#######################################################################

data_CUQTAL
_chemical_formula_moiety         '(C154 H200 B4 Cu2 F16 N20 O36)n'
_symmetry_cell_setting           monoclinic
_symmetry_space_group_name_H-M   'P 21/c'
_symmetry_Int_Tables_number      14
_space_group_name_Hall           '-P 2ybc'
loop_
_symmetry_equiv_pos_site_id
_symmetry_equiv_pos_as_xyz
1 x,y,z
2 -x,1/2+y,1/2-z
3 -x,-y,-z
4 x,1/2-y,1/2+z
_cell_length_a                   28.9123(10)
_cell_length_b                   20.7706(8)
_cell_length_c                   29.7284(13)
_cell_angle_alpha                90
_cell_angle_beta                 101.224(4)
_cell_angle_gamma                90
_cell_volume                     17511.2
loop_
_atom_site_label
_atom_site_type_symbol
_atom_site_fract_x
_atom_site_fract_y
_atom_site_fract_z
Cu1 Cu 0.74012(4) 0.50369(6) 0.56474(4)
O1 O 0.3421(3) 0.8301(6) 0.2593(3)
N1 N 0.2833(2) 0.6005(3) 0.12047(19)
C1 C 0.4570(3) 0.9143(4) 0.2840(3)
Cu2 Cu 1.23860(3) 0.54932(5) 1.07284(3)
O2 O 0.6087(3) 0.6698(3) 0.3020(2)
N2 N 0.7711(2) 0.4307(3) 0.6024(2)
O3 O 0.5745(2) 0.6442(3) 0.3912(2)
O4 O 1.12420(15) 0.3570(2) 0.89600(15)
O5 O 0.3887(3) 0.7639(4) 0.2050(2)
N3 N 0.7017(2) 0.5504(3) 0.5122(2)
C2 C 0.4091(3) 0.9002(5) 0.2836(3)
H1 H 0.3916 0.9273 0.2999
O6 O 0.3858(2) 0.6929(4) 0.2619(2)
N4 N 0.2861(2) 0.9430(3) 0.5307(2)
C3 C 0.3874(4) 0.8474(6) 0.2600(3)
C4 C 0.4127(4) 0.8106(5) 0.2352(3)
O7 O 0.63808(19) 0.7065(3) 0.39049(19)
N5 N 1.19461(19) 0.4990(3) 1.02431(19)
C5 C 0.4591(3) 0.8221(4) 0.2347(3)
H2 H 0.4757 0.7953 0.2173
N6 N 0.7949(2) -0.0016(3) 1.0316(2)
C6 C 0.4824(3) 0.8747(4) 0.2603(3)
O8 O 0.50614(18) 0.9082(3) 0.50098(18)
N7 N 0.7948(6) 0.6652(8) 0.6589(6)
C7 C 0.5353(3) 0.8811(4) 0.2615(3)
H3 H 0.5419 0.8705 0.2309
H4 H 0.5450 0.9263 0.2686
O9 O 0.42469(17) 0.9586(2) 0.45713(19)
C8 C 0.5636(3) 0.8371(4) 0.2970(3)
O10 O 0.3938(4) 0.8661(5) 0.4306(5)
C9 C 0.5725(3) 0.7754(4) 0.2827(3)
H5 H 0.5619 0.7638 0.2515
O11 O 0.8281(2) 0.1937(3) 0.7477(2)
C10 C 0.5968(3) 0.7305(4) 0.3131(3)
O12 O 0.87315(19) 0.2800(3) 0.70475(18)
C11 C 0.6108(3) 0.7493(4) 0.3584(3)
O13 O 0.8448(2) 0.2147(3) 0.6458(2)
C12 C 0.6037(2) 0.8100(4) 0.3731(2)
H6 H 0.6147 0.8211 0.4044
O14 O 1.0826(2) 0.4006(2) 0.81200(17)
C13 C 0.5804(2) 0.8560(3) 0.3425(2)
C14 C 0.5751(2) 0.9244(4) 0.3604(2)
H7 H 0.6046 0.9362 0.3818
H8 H 0.5711 0.9547 0.3342
O15 O 1.05921(18) 0.3932(3) 0.9189(2)
C15 C 0.5339(2) 0.9332(3) 0.3849(2)
O16 O 0.99029(16) 0.1450(2) 0.99601(17)
C16 C 0.5404(2) 0.9170(3) 0.4317(2)
H9 H 0.5701 0.9009 0.4469
O17 O 0.91304(17) 0.0855(2) 0.94940(19)
C17 C 0.5044(2) 0.9241(3) 0.4563(2)
O18 O 0.9456(2) -0.0104(2) 0.9723(2)
C18 C 0.4610(3) 0.9494(4) 0.4322(3)
O19 O 0.6846(2) 0.4908(3) 0.5923(2)
C19 C 0.4546(3) 0.9667(4) 0.3877(3)
H10 H 0.4254 0.9849 0.3731
O20 O 0.7695(2) 0.5832(3) 0.6083(2)
C20 C 0.4905(2) 0.9581(3) 0.3623(3)
C21 C 0.4784(3) 0.9720(4) 0.3115(3)
H11 H 0.5073 0.9853 0.3008
H12 H 0.4557 1.0083 0.3061
C22 C 0.3172(4) 0.8653(9) 0.2868(5)
H13 H 0.3356 0.8674 0.3181
H14 H 0.2869 0.8442 0.2870
H15 H 0.3116 0.9090 0.2745
C23 C 0.3749(3) 0.7088(5) 0.2218(3)
C24 C 0.3441(3) 0.6703(4) 0.1855(3)
C25 C 0.3298(3) 0.6107(4) 0.1964(3)
H16 H 0.3407 0.5927 0.2259
C26 C 0.2985(3) 0.5769(4) 0.1624(3)
H17 H 0.2877 0.5356 0.1696
C27 C 0.2998(3) 0.6574(4) 0.1105(3)
H18 H 0.2905 0.6733 0.0801
C28 C 0.3296(3) 0.6950(4) 0.1421(3)
H19 H 0.3398 0.7362 0.1341
C29 C 0.6020(6) 0.6554(6) 0.2535(4)
H20 H 0.5684 0.6584 0.2397
H21 H 0.6133 0.6117 0.2494
H22 H 0.6198 0.6863 0.2387
C30 C 0.6152(3) 0.6569(4) 0.4049(3)
C31 C 0.6471(3) 0.6196(4) 0.4413(3)
C32 C 0.6306(3) 0.5607(4) 0.4557(3)
H23 H 0.6010 0.5436 0.4410
C33 C 0.6585(3) 0.5287(4) 0.4913(3)
H24 H 0.6471 0.4898 0.5019
O21 O 1.19471(17) 0.5399(2) 1.11689(16)
C34 C 0.7175(3) 0.6050(4) 0.4971(3)
H25 H 0.7481 0.6197 0.5109
C35 C 0.6913(3) 0.6413(4) 0.4623(3)
H26 H 0.7035 0.6805 0.4529
C36 C 0.5491(3) 0.8804(4) 0.5245(3)
H27 H 0.5552 0.8404 0.5092
H28 H 0.5467 0.8710 0.5563
H29 H 0.5751 0.9107 0.5243
C37 C 0.3921(4) 0.9130(5) 0.4529(4)
C38 C 0.3553(3) 0.9256(4) 0.4800(3)
C39 C 0.3178(4) 0.8845(6) 0.4753(4)
H30 H 0.3157 0.8486 0.4552
C40 C 0.2827(3) 0.8962(5) 0.5003(3)
H31 H 0.2555 0.8696 0.4953
C41 C 0.3233(3) 0.9824(4) 0.5359(3)
H32 H 0.3254 1.0166 0.5574
C42 C 0.3586(3) 0.9751(4) 0.5113(3)
H33 H 0.3848 1.0036 0.5159
C43 C 0.9737(3) 0.1795(3) 0.7580(2)
C44 C 0.9469(3) 0.2272(3) 0.7317(2)
H34 H 0.9618 0.2585 0.7161
C45 C 0.8991(3) 0.2284(4) 0.7285(3)
C46 C 0.8758(3) 0.1848(4) 0.7509(3)
C47 C 0.9020(3) 0.1362(4) 0.7752(3)
H35 H 0.8864 0.1042 0.7895
C48 C 0.9510(3) 0.1330(3) 0.7793(2)
C49 C 0.9766(3) 0.0789(3) 0.8086(3)
H36 H 0.9579 0.0388 0.8027
H37 H 1.0075 0.0713 0.8000
C50 C 0.9839(3) 0.0956(3) 0.8592(3)
C51 C 0.9472(3) 0.0827(3) 0.8821(3)
H38 H 0.9193 0.0624 0.8664
C52 C 0.9513(2) 0.0992(3) 0.9270(3)
C53 C 0.9915(2) 0.1300(3) 0.9515(3)
C54 C 1.0280(2) 0.1415(3) 0.9292(2)
H39 H 1.0558 0.1616 0.9454
C55 C 1.0252(2) 0.1242(3) 0.8831(2)
C56 C 1.0677(3) 0.1372(3) 0.8618(3)
H40 H 1.0667 0.1077 0.8355
H41 H 1.0966 0.1273 0.8846
C57 C 1.0708(2) 0.2070(3) 0.8450(2)
C58 C 1.0935(2) 0.2512(3) 0.8765(2)
H42 H 1.1068 0.2377 0.9067
C59 C 1.0972(2) 0.3153(3) 0.8643(2)
C60 C 1.0777(2) 0.3371(3) 0.8207(2)
C61 C 1.0554(2) 0.2915(3) 0.7889(2)
H43 H 1.0423 0.3051 0.7586
C62 C 1.0519(2) 0.2274(3) 0.8003(2)
C63 C 1.0273(3) 0.1833(4) 0.7620(2)
H44 H 1.0407 0.1395 0.7674
H45 H 1.0342 0.1988 0.7325
C64 C 0.8063(4) 0.1589(7) 0.7803(5)
H46 H 0.8027 0.1136 0.7713
H47 H 0.7753 0.1776 0.7809
H48 H 0.8263 0.1622 0.8109
C65 C 0.8465(3) 0.2665(4) 0.6641(3)
C66 C 0.8201(3) 0.3241(4) 0.6432(2)
C67 C 0.7825(3) 0.3161(4) 0.6072(3)
H49 H 0.7729 0.2744 0.5960
C68 C 0.7590(3) 0.3706(4) 0.5878(3)
H50 H 0.7331 0.3652 0.5631
C69 C 0.8075(3) 0.4375(4) 0.6374(3)
H51 H 0.8166 0.4797 0.6478
C70 C 0.8324(3) 0.3856(4) 0.6592(3)
H52 H 0.8575 0.3920 0.6847
C71 C 1.0568(4) 0.4246(5) 0.7687(3)
H53 H 1.0709 0.4076 0.7437
H54 H 1.0583 0.4718 0.7685
H55 H 1.0239 0.4108 0.7645
C72 C 1.1016(2) 0.3917(3) 0.9229(2)
C73 C 1.1348(2) 0.4281(3) 0.9581(2)
C74 C 1.1184(3) 0.4822(4) 0.9778(2)
H56 H 1.0865 0.4958 0.9687
C75 C 1.1497(2) 0.5161(4) 1.0111(2)
H57 H 1.1385 0.5527 1.0249
C76 C 1.2104(3) 0.4467(3) 1.0051(2)
H58 H 1.2425 0.4345 1.0146
C77 C 1.1817(3) 0.4100(3) 0.9720(2)
H59 H 1.1938 0.3733 0.9590
C78 C 1.0332(3) 0.1719(4) 1.0221(3)
H60 H 1.0592 0.1417 1.0223
H61 H 1.0293 0.1798 1.0537
H62 H 1.0401 0.2126 1.0081
C79 C 0.9142(2) 0.0275(3) 0.9706(2)
C80 C 0.8718(2) 0.0180(3) 0.9910(2)
C81 C 0.8740(3) -0.0242(4) 1.0266(3)
H63 H 0.9022 -0.0476 1.0375
C82 C 0.8357(3) -0.0326(4) 1.0464(3)
H64 H 0.8380 -0.0613 1.0716
C83 C 0.7923(3) 0.0386(4) 0.9958(3)
H65 H 0.7634 0.0602 0.9846
C84 C 0.8298(3) 0.0498(3) 0.9749(3)
H66 H 0.8270 0.0788 0.9499
C85 C 0.7735(4) 0.6356(5) 0.6246(4)
C86 C 0.7442(9) 0.6923(12) 0.5938(9)
H67 H 0.7477 0.6897 0.5614
H68 H 0.7103 0.6911 0.5953
C87 C 0.7891(6) 0.7326(8) 0.6661(6)
H69 H 0.8195 0.7552 0.6761
H70 H 0.7677 0.7418 0.6875
C88 C 0.8242(8) 0.6268(10) 0.6911(8)
H71 H 0.8050 0.6005 0.7077
H72 H 0.8452 0.6544 0.7128
H73 H 0.8431 0.5987 0.6753
C89 C 0.7663(13) 0.7468(14) 0.6154(11)
H74 H 0.7429 0.7818 0.6142
H75 H 0.7910 0.7615 0.5988
N8 N 1.1521(2) 0.7221(4) 1.0173(3)
O22 O 1.20272(18) 0.6427(2) 1.04450(18)
C90 C 1.1822(3) 0.6915(4) 1.0483(3)
C91 C 1.1878(3) 0.7320(4) 1.0924(3)
H76 H 1.2192 0.7528 1.0992
H77 H 1.1841 0.7048 1.1188
C92 C 1.1496(3) 0.7813(4) 1.0826(3)
H78 H 1.1225 0.7687 1.0966
H79 H 1.1613 0.8238 1.0948
C93 C 1.1345(3) 0.7837(4) 1.0289(4)
H80 H 1.1499 0.8198 1.0157
H81 H 1.0999 0.7869 1.0189
C94 C 1.1438(4) 0.6995(6) 0.9690(3)
H82 H 1.1598 0.6582 0.9674
H83 H 1.1099 0.6941 0.9575
H84 H 1.1563 0.7313 0.9501
N9 N 1.2873(3) 0.3695(4) 1.1615(3)
O23 O 1.27730(19) 0.4483(2) 1.10863(18)
C95 C 1.2723(3) 0.3941(4) 1.1213(3)
C96 C 1.2487(4) 0.3365(5) 1.0900(4)
H85 H 1.2685 0.3242 1.0677
H86 H 1.2171 0.3491 1.0730
C97 C 1.2450(5) 0.2828(5) 1.1210(4)
H87 H 1.2118 0.2767 1.1244
H88 H 1.2562 0.2423 1.1092
C98 C 1.2763(4) 0.3012(5) 1.1675(4)
H89 H 1.3054 0.2749 1.1738
H90 H 1.2592 0.2955 1.1930
C99 C 1.3150(5) 0.4062(7) 1.1972(4)
H91 H 1.2943 0.4307 1.2133
H92 H 1.3347 0.3771 1.2189
H93 H 1.3352 0.4359 1.1841
Cu1C Cu 0.74012(4) -0.00369(6) 1.06474(4)
N1_2 N 1.2833(2) 0.6005(3) 1.12047(19)
Cu2_2 Cu 0.23860(3) 0.54932(5) 0.07284(3)
Cu2C Cu 0.23860(3) 0.95068(5) 0.57284(3)
N4C N 1.2861(2) 0.5570(3) 1.0307(2)
N6C N 0.7949(2) 0.5016(3) 0.5316(2)
F1 F 0.0783(5) 0.5712(4) 0.2605(4)
B1 B 0.0873(4) 0.5097(5) 0.2677(4)
F2 F 0.0563(5) 0.4700(5) 0.2456(3)
F3 F 0.1274(5) 0.5179(8) 0.2504(5)
F4 F 0.1000(3) 0.4961(3) 0.3130(2)
B2 B 0.2871(4) 0.6882(5) 0.5290(4)
F5 F 0.2705(4) 0.7299(3) 0.4929(3)
F6 F 0.2507(3) 0.6735(4) 0.5484(4)
F7 F 0.3209(2) 0.7197(3) 0.5575(3)
F8 F 0.30420(17) 0.6323(2) 0.51223(18)
B3 B 0.6713(4) 0.8336(6) 0.5116(4)
F9 F 0.6519(2) 0.8753(3) 0.4788(2)
F10 F 0.6548(2) 0.8418(4) 0.5522(2)
F11 F 0.6568(4) 0.7729(4) 0.4958(4)
F12 F 0.7197(2) 0.8373(5) 0.5200(3)
B4 B 0.8336(5) 0.7089(7) 0.5006(7)
F13 F 0.8495(5) 0.7684(4) 0.5137(3)
F14 F 0.8623(4) 0.6733(5) 0.5124(5)
F15 F 0.7913(2) 0.7082(4) 0.4781(2)
F16 F 0.8224(5) 0.6773(6) 0.5478(5)
N10 N -0.0002(4) 0.9548(5) 0.4027(3)
O24 O 0.0307(4) 0.8701(6) 0.4443(3)
C100 C 0.0231(5) 0.9038(7) 0.4095(4)
C101 C 0.0382(7) 0.8862(11) 0.3670(5)
H94 H 0.0185 0.8510 0.3510
H95 H 0.0717 0.8724 0.3731
C102 C 0.0319(7) 0.9457(9) 0.3398(6)
H96 H 0.0216 0.9364 0.3067
H97 H 0.0612 0.9714 0.3445
C103 C -0.0071(6) 0.9805(8) 0.3592(5)
H98 H -0.0026 1.0278 0.3599
H99 H -0.0389 0.9703 0.3413
C104 C -0.0253(5) 0.9824(9) 0.4336(7)
H100 H -0.0248 0.9532 0.4595
H101 H -0.0580 0.9900 0.4181
H102 H -0.0106 1.0234 0.4447
N11 N 0.0415(5) 0.6654(5) 0.3807(5)
O25 O -0.0240(2) 0.6893(3) 0.32605(19)
C105 C 0.0014(3) 0.6541(4) 0.3518(3)
C106 C -0.0033(6) 0.5923(10) 0.3634(6)
H103 H -0.0065 0.5664 0.3350
H104 H -0.0336 0.5886 0.3740
C107 C 0.0316(5) 0.5622(6) 0.3970(4)
H105 H 0.0468 0.5259 0.3838
H106 H 0.0183 0.5466 0.4232
C108 C 0.0648(3) 0.6155(5) 0.4105(3)
H107 H 0.0676 0.6268 0.4432
H108 H 0.0964 0.6056 0.4041
C109 C 0.0440(6) 0.7337(7) 0.3975(5)
H109 H 0.0207 0.7599 0.3770
H110 H 0.0756 0.7509 0.3980
H111 H 0.0372 0.7350 0.4286
N12 N 0.4541(4) 0.7832(5) 0.6051(3)
O26 O 0.5086(4) 0.7800(4) 0.6736(3)
C110 C 0.4833(5) 0.8076(6) 0.6427(4)
C111 C 0.4778(5) 0.8796(6) 0.6387(4)
H112 H 0.4683 0.8975 0.6664
H113 H 0.5078 0.8999 0.6352
C112 C 0.4412(6) 0.8919(7) 0.5980(4)
H114 H 0.4124 0.9088 0.6073
H115 H 0.4524 0.9241 0.5781
C113 C 0.4308(4) 0.8326(6) 0.5738(4)
H116 H 0.4433 0.8329 0.5451
H117 H 0.3963 0.8251 0.5662
C114 C 0.4496(8) 0.7157(7) 0.5981(6)
H118 H 0.4793 0.6946 0.6120
H119 H 0.4424 0.7065 0.5652
H120 H 0.4241 0.6994 0.6124
N13 N 0.1094(4) 0.3412(4) 0.1084(4)
O27 O 0.1548(3) 0.4263(4) 0.1033(3)
C115 C 0.1390(4) 0.3873(4) 0.1265(4)
C116 C 0.1480(5) 0.3823(8) 0.1759(5)
H121 H 0.1411 0.4237 0.1898
H122 H 0.1814 0.3708 0.1878
C117 C 0.1162(8) 0.3311(13) 0.1864(8)
H123 H 0.0903 0.3497 0.1995
H124 H 0.1338 0.3001 0.2087
C118 C 0.0957(6) 0.2958(7) 0.1379(8)
H125 H 0.1107 0.2534 0.1356
H126 H 0.0610 0.2907 0.1326
C119 C 0.0945(7) 0.3292(10) 0.0619(7)
H127 H 0.1083 0.3613 0.0442
H128 H 0.0600 0.3319 0.0539
H129 H 0.1047 0.2861 0.0547
N14 N 0.4642(5) 0.5810(6) 0.2998(4)
O28 O 0.4277(3) 0.5437(4) 0.2281(3)
C120 C 0.4333(4) 0.5467(6) 0.2689(5)
C121 C 0.4055(5) 0.5072(7) 0.3000(5)
H130 H 0.3731 0.5244 0.2970
H131 H 0.4034 0.4615 0.2904
C122 C 0.4302(10) 0.5124(13) 0.3472(7)
H132 H 0.4495 0.4735 0.3566
H133 H 0.4078 0.5182 0.3681
C123 C 0.4644(7) 0.5772(9) 0.3478(6)
H134 H 0.4503 0.6158 0.3592
H135 H 0.4965 0.5701 0.3661
C124 C 0.4937(6) 0.6296(7) 0.2840(6)
H136 H 0.4963 0.6204 0.2523
H137 H 0.5252 0.6291 0.3036
H138 H 0.4794 0.6722 0.2855
N15 N 0.4179(5) 0.7253(7) 0.4151(4)
O29 O 0.4632(6) 0.7168(14) 0.4836(4)
C125 C 0.4569(6) 0.7320(11) 0.4456(5)
C126 C 0.4922(5) 0.7518(7) 0.4199(7)
H139 H 0.5109 0.7879 0.4358
H140 H 0.5139 0.7155 0.4178
C127 C 0.4697(7) 0.7718(8) 0.3743(6)
H141 H 0.4832 0.7492 0.3505
H142 H 0.4725 0.8189 0.3703
C128 C 0.4181(6) 0.7519(7) 0.3726(5)
H143 H 0.3969 0.7897 0.3672
H144 H 0.4077 0.7200 0.3479
C129 C 0.3707(6) 0.7111(12) 0.4279(9)
H145 H 0.3752 0.7036 0.4610
H146 H 0.3568 0.6727 0.4115
H147 H 0.3495 0.7479 0.4196
N16 N 0.7648(6) 0.6283(9) 0.2626(6)
O30 O 0.7991(8) 0.7187(11) 0.2915(8)
C130 C 0.7991(8) 0.6663(12) 0.2696(9)
C131 C 0.8415(8) 0.6433(12) 0.2545(9)
H148 H 0.8695 0.6415 0.2796
H149 H 0.8487 0.6678 0.2281
C132 C 0.7693(11) 0.5749(16) 0.2352(12)
H150 H 0.7535 0.5818 0.2029
H151 H 0.7570 0.5352 0.2471
C133 C 0.7184(10) 0.6438(14) 0.2700(10)
H152 H 0.7206 0.6786 0.2926
H153 H 0.7044 0.6057 0.2814
H154 H 0.6986 0.6578 0.2410
C134 C 0.8194(11) 0.5739(15) 0.2404(12)
H155 H 0.8280 0.5602 0.2112
H156 H 0.8327 0.5422 0.2643
N17 N 0.9474(2) 0.1704(3) 0.4050(2)
O31 O 0.88357(18) 0.1075(3) 0.41025(19)
C135 C 0.9088(3) 0.1363(3) 0.3880(3)
C136 C 0.9006(3) 0.1407(5) 0.3366(3)
H157 H 0.8745 0.1707 0.3247
H158 H 0.8931 0.0979 0.3223
C137 C 0.9469(3) 0.1657(6) 0.3274(3)
H159 H 0.9418 0.1943 0.3002
H160 H 0.9678 0.1298 0.3223
C138 C 0.9679(3) 0.2031(4) 0.3711(3)
H161 H 1.0027 0.2001 0.3780
H162 H 0.9585 0.2490 0.3685
C139 C 0.9646(3) 0.1799(5) 0.4534(3)
H163 H 0.9458 0.1539 0.4708
H164 H 0.9618 0.2255 0.4609
H165 H 0.9977 0.1667 0.4613
O32 O 0.6170(4) 0.5765(6) 0.5743(5)
C140 C 0.6203(8) 0.6279(11) 0.5999(8)
N18 N 0.5912(11) 0.6860(15) 0.5725(12)
C141 C 0.5720(10) 0.6826(14) 0.5251(10)
H166 H 0.5962 0.6943 0.5076
H167 H 0.5454 0.7125 0.5177
H168 H 0.5611 0.6387 0.5171
C142 C 0.6314(14) 0.7048(18) 0.6633(13)
H169 H 0.6109 0.6983 0.6860
H170 H 0.6580 0.7334 0.6762
C143 C 0.6036(16) 0.729(2) 0.6165(15)
H171 H 0.6212 0.7666 0.6080
H172 H 0.5732 0.7459 0.6223
C144 C 0.6486(17) 0.638(2) 0.6450(14)
H173 H 0.6824 0.6409 0.6434
H174 H 0.6441 0.6027 0.6658
O33 O 0.6473(6) 0.5287(7) 0.1870(6)
N19 N 0.7613(9) 0.4990(7) 0.1202(7)
O34 O 0.6952(10) 0.4455(11) 0.1349(9)
C145 C 0.7436(11) 0.4566(19) 0.1356(10)
C146 C 0.8066(12) 0.4875(10) 0.1161(14)
H175 H 0.8270 0.5254 0.1252
H176 H 0.8085 0.4749 0.0844
C147 C 0.7378(15) 0.5522(16) 0.0984(13)
H177 H 0.7037 0.5447 0.0931
H178 H 0.7475 0.5590 0.0689
H179 H 0.7456 0.5904 0.1177
C148 C 0.7732(12) 0.3949(15) 0.1446(14)
H180 H 0.7700 0.3727 0.1733
H181 H 0.7676 0.3645 0.1184
C149 C 0.8195(11) 0.4331(12) 0.1487(14)
H182 H 0.8305 0.4490 0.1804
H183 H 0.8446 0.4063 0.1398
O35 O 0.8425(7) 0.4831(9) 0.3317(7)
O36 O 0.3251(5) 0.9976(7) 0.2192(5)
C150 C 0.4088(7) 0.9515(10) 0.1518(7)
H184 H 0.4229 0.9724 0.1277
H185 H 0.4323 0.9220 0.1698
C151 C 0.3925(6) 0.9996(8) 0.1816(6)
H186 H 0.4160 1.0045 0.2105
H187 H 0.3883 1.0419 0.1660
N20 N 0.3334(6) 0.9262(8) 0.1613(6)
C152 C 0.3655(7) 0.9173(11) 0.1319(8)
H188 H 0.3522 0.9347 0.1011
H189 H 0.3721 0.8709 0.1289
C153 C 0.3485(7) 0.9772(10) 0.1910(7)
C154 C 0.2923(10) 0.8892(15) 0.1592(11)
H190 H 0.2701 0.8988 0.1306
H191 H 0.2777 0.8997 0.1854
H192 H 0.3005 0.8434 0.1601
loop_
_geom_bond_atom_site_label_1
_geom_bond_atom_site_label_2
_geom_bond_site_symmetry_1
_geom_bond_site_symmetry_2
Cu1 N2 1_555 1_555
O1 C3 1_555 1_555
N1 C26 1_555 1_555
C1 C2 1_555 1_555
Cu2 N5 1_555 1_555
O2 C10 1_555 1_555
N2 C68 1_555 1_555
O3 C30 1_555 1_555
O4 C59 1_555 1_555
O5 C4 1_555 1_555
N3 Cu1 1_555 1_555
C2 H1 1_555 1_555
O6 C23 1_555 1_555
N4 C40 1_555 1_555
C3 C2 1_555 1_555
C4 C3 1_555 1_555
O7 C11 1_555 1_555
N5 C75 1_555 1_555
C5 C4 1_555 1_555
H2 C5 1_555 1_555
N6 C82 1_555 1_555
C6 C1 1_555 1_555
O8 C17 1_555 1_555
N7 C85 1_555 1_555
C7 C6 1_555 1_555
H3 C7 1_555 1_555
H4 C7 1_555 1_555
O9 C18 1_555 1_555
C8 C7 1_555 1_555
O10 C37 1_555 1_555
C9 C8 1_555 1_555
H5 C9 1_555 1_555
O11 C46 1_555 1_555
C10 C9 1_555 1_555
O12 C45 1_555 1_555
C11 C10 1_555 1_555
O13 C65 1_555 1_555
C12 C11 1_555 1_555
H6 C12 1_555 1_555
O14 C60 1_555 1_555
C13 C8 1_555 1_555
C14 C13 1_555 1_555
H7 C14 1_555 1_555
H8 C14 1_555 1_555
O15 C72 1_555 1_555
C15 C14 1_555 1_555
O16 C53 1_555 1_555
C16 C15 1_555 1_555
H9 C16 1_555 1_555
O17 C52 1_555 1_555
C17 C16 1_555 1_555
O18 C79 1_555 1_555
C18 C17 1_555 1_555
O19 Cu1 1_555 1_555
C19 C18 1_555 1_555
H10 C19 1_555 1_555
O20 Cu1 1_555 1_555
C20 C15 1_555 1_555
C21 C1 1_555 1_555
H11 C21 1_555 1_555
H12 C21 1_555 1_555
C22 O1 1_555 1_555
H13 C22 1_555 1_555
H14 C22 1_555 1_555
H15 C22 1_555 1_555
C23 O5 1_555 1_555
C24 C23 1_555 1_555
C25 C24 1_555 1_555
H16 C25 1_555 1_555
C26 C25 1_555 1_555
H17 C26 1_555 1_555
C27 N1 1_555 1_555
H18 C27 1_555 1_555
C28 C24 1_555 1_555
H19 C28 1_555 1_555
C29 O2 1_555 1_555
H20 C29 1_555 1_555
H21 C29 1_555 1_555
H22 C29 1_555 1_555
C30 O7 1_555 1_555
C31 C30 1_555 1_555
C32 C31 1_555 1_555
H23 C32 1_555 1_555
C33 N3 1_555 1_555
H24 C33 1_555 1_555
O21 Cu2 1_555 1_555
C34 N3 1_555 1_555
H25 C34 1_555 1_555
C35 C31 1_555 1_555
H26 C35 1_555 1_555
C36 O8 1_555 1_555
H27 C36 1_555 1_555
H28 C36 1_555 1_555
H29 C36 1_555 1_555
C37 O9 1_555 1_555
C38 C37 1_555 1_555
C39 C38 1_555 1_555
H30 C39 1_555 1_555
C40 C39 1_555 1_555
H31 C40 1_555 1_555
C41 N4 1_555 1_555
H32 C41 1_555 1_555
C42 C38 1_555 1_555
H33 C42 1_555 1_555
C43 C44 1_555 1_555
C44 H34 1_555 1_555
C45 C44 1_555 1_555
C46 C45 1_555 1_555
C47 C46 1_555 1_555
H35 C47 1_555 1_555
C48 C43 1_555 1_555
C49 C48 1_555 1_555
H36 C49 1_555 1_555
H37 C49 1_555 1_555
C50 C49 1_555 1_555
C51 C50 1_555 1_555
H38 C51 1_555 1_555
C52 C51 1_555 1_555
C53 C52 1_555 1_555
C54 C53 1_555 1_555
H39 C54 1_555 1_555
C55 C50 1_555 1_555
C56 C55 1_555 1_555
H40 C56 1_555 1_555
H41 C56 1_555 1_555
C57 C56 1_555 1_555
C58 C57 1_555 1_555
H42 C58 1_555 1_555
C59 C58 1_555 1_555
C60 C59 1_555 1_555
C61 C60 1_555 1_555
H43 C61 1_555 1_555
C62 C57 1_555 1_555
C63 C43 1_555 1_555
H44 C63 1_555 1_555
H45 C63 1_555 1_555
C64 O11 1_555 1_555
H46 C64 1_555 1_555
H47 C64 1_555 1_555
H48 C64 1_555 1_555
C65 O12 1_555 1_555
C66 C65 1_555 1_555
C67 C66 1_555 1_555
H49 C67 1_555 1_555
C68 C67 1_555 1_555
H50 C68 1_555 1_555
C69 N2 1_555 1_555
H51 C69 1_555 1_555
C70 C66 1_555 1_555
H52 C70 1_555 1_555
C71 O14 1_555 1_555
H53 C71 1_555 1_555
H54 C71 1_555 1_555
H55 C71 1_555 1_555
C72 O4 1_555 1_555
C73 C72 1_555 1_555
C74 C73 1_555 1_555
H56 C74 1_555 1_555
C75 C74 1_555 1_555
H57 C75 1_555 1_555
C76 N5 1_555 1_555
H58 C76 1_555 1_555
C77 C73 1_555 1_555
H59 C77 1_555 1_555
C78 O16 1_555 1_555
H60 C78 1_555 1_555
H61 C78 1_555 1_555
H62 C78 1_555 1_555
C79 O17 1_555 1_555
C80 C79 1_555 1_555
C81 C80 1_555 1_555
H63 C81 1_555 1_555
C82 C81 1_555 1_555
H64 C82 1_555 1_555
C83 N6 1_555 1_555
H65 C83 1_555 1_555
C84 C80 1_555 1_555
H66 C84 1_555 1_555
C85 O20 1_555 1_555
C86 C85 1_555 1_555
H67 C86 1_555 1_555
H68 C86 1_555 1_555
C87 N7 1_555 1_555
H69 C87 1_555 1_555
H70 C87 1_555 1_555
C88 N7 1_555 1_555
H71 C88 1_555 1_555
H72 C88 1_555 1_555
H73 C88 1_555 1_555
C89 C86 1_555 1_555
H74 C89 1_555 1_555
H75 C89 1_555 1_555
N8 C90 1_555 1_555
O22 Cu2 1_555 1_555
C90 O22 1_555 1_555
C91 C90 1_555 1_555
H76 C91 1_555 1_555
H77 C91 1_555 1_555
C92 C91 1_555 1_555
H78 C92 1_555 1_555
H79 C92 1_555 1_555
C93 N8 1_555 1_555
H80 C93 1_555 1_555
H81 C93 1_555 1_555
C94 N8 1_555 1_555
H82 C94 1_555 1_555
H83 C94 1_555 1_555
H84 C94 1_555 1_555
N9 C95 1_555 1_555
O23 Cu2 1_555 1_555
C95 O23 1_555 1_555
C96 C95 1_555 1_555
H85 C96 1_555 1_555
H86 C96 1_555 1_555
C97 C96 1_555 1_555
H87 C97 1_555 1_555
H88 C97 1_555 1_555
C98 N9 1_555 1_555
H89 C98 1_555 1_555
H90 C98 1_555 1_555
C99 N9 1_555 1_555
H91 C99 1_555 1_555
H92 C99 1_555 1_555
H93 C99 1_555 1_555
F1 B1 1_555 1_555
B1 F2 1_555 1_555
F3 B1 1_555 1_555
F4 B1 1_555 1_555
B2 F5 1_555 1_555
F6 B2 1_555 1_555
F7 B2 1_555 1_555
F8 B2 1_555 1_555
B3 F9 1_555 1_555
F10 B3 1_555 1_555
F11 B3 1_555 1_555
F12 B3 1_555 1_555
B4 F13 1_555 1_555
F14 B4 1_555 1_555
F15 B4 1_555 1_555
F16 B4 1_555 1_555
N10 C100 1_555 1_555
O24 C100 1_555 1_555
C100 C101 1_555 1_555
C101 H94 1_555 1_555
H95 C101 1_555 1_555
C102 C101 1_555 1_555
H96 C102 1_555 1_555
H97 C102 1_555 1_555
C103 N10 1_555 1_555
H98 C103 1_555 1_555
H99 C103 1_555 1_555
C104 N10 1_555 1_555
H100 C104 1_555 1_555
H101 C104 1_555 1_555
H102 C104 1_555 1_555
N11 C105 1_555 1_555
O25 C105 1_555 1_555
C105 C106 1_555 1_555
C106 H103 1_555 1_555
H104 C106 1_555 1_555
C107 C106 1_555 1_555
H105 C107 1_555 1_555
H106 C107 1_555 1_555
C108 N11 1_555 1_555
H107 C108 1_555 1_555
H108 C108 1_555 1_555
C109 N11 1_555 1_555
H109 C109 1_555 1_555
H110 C109 1_555 1_555
H111 C109 1_555 1_555
N12 C110 1_555 1_555
O26 C110 1_555 1_555
C110 C111 1_555 1_555
C111 H112 1_555 1_555
H113 C111 1_555 1_555
C112 C111 1_555 1_555
H114 C112 1_555 1_555
H115 C112 1_555 1_555
C113 N12 1_555 1_555
H116 C113 1_555 1_555
H117 C113 1_555 1_555
C114 N12 1_555 1_555
H118 C114 1_555 1_555
H119 C114 1_555 1_555
H120 C114 1_555 1_555
N13 C115 1_555 1_555
O27 C115 1_555 1_555
C115 C116 1_555 1_555
C116 H121 1_555 1_555
H122 C116 1_555 1_555
C117 C116 1_555 1_555
H123 C117 1_555 1_555
H124 C117 1_555 1_555
C118 N13 1_555 1_555
H125 C118 1_555 1_555
H126 C118 1_555 1_555
C119 N13 1_555 1_555
H127 C119 1_555 1_555
H128 C119 1_555 1_555
H129 C119 1_555 1_555
N14 C120 1_555 1_555
O28 C120 1_555 1_555
C120 C121 1_555 1_555
C121 H130 1_555 1_555
H131 C121 1_555 1_555
C122 C121 1_555 1_555
H132 C122 1_555 1_555
H133 C122 1_555 1_555
C123 N14 1_555 1_555
H134 C123 1_555 1_555
H135 C123 1_555 1_555
C124 N14 1_555 1_555
H136 C124 1_555 1_555
H137 C124 1_555 1_555
H138 C124 1_555 1_555
N15 C125 1_555 1_555
O29 C125 1_555 1_555
C125 C126 1_555 1_555
C126 H139 1_555 1_555
H140 C126 1_555 1_555
C127 C126 1_555 1_555
H141 C127 1_555 1_555
H142 C127 1_555 1_555
C128 N15 1_555 1_555
H143 C128 1_555 1_555
H144 C128 1_555 1_555
C129 N15 1_555 1_555
H145 C129 1_555 1_555
H146 C129 1_555 1_555
H147 C129 1_555 1_555
N16 C130 1_555 1_555
O30 C130 1_555 1_555
C130 C131 1_555 1_555
C131 H148 1_555 1_555
H149 C131 1_555 1_555
C132 N16 1_555 1_555
H150 C132 1_555 1_555
H151 C132 1_555 1_555
C133 N16 1_555 1_555
H152 C133 1_555 1_555
H153 C133 1_555 1_555
H154 C133 1_555 1_555
C134 C131 1_555 1_555
H155 C134 1_555 1_555
H156 C134 1_555 1_555
N17 C135 1_555 1_555
O31 C135 1_555 1_555
C135 C136 1_555 1_555
C136 H157 1_555 1_555
H158 C136 1_555 1_555
C137 C136 1_555 1_555
H159 C137 1_555 1_555
H160 C137 1_555 1_555
C138 N17 1_555 1_555
H161 C138 1_555 1_555
H162 C138 1_555 1_555
C139 N17 1_555 1_555
H163 C139 1_555 1_555
H164 C139 1_555 1_555
H165 C139 1_555 1_555
O32 C140 1_555 1_555
C140 N18 1_555 1_555
N18 C141 1_555 1_555
C141 H166 1_555 1_555
H167 C141 1_555 1_555
H168 C141 1_555 1_555
C142 H169 1_555 1_555
H170 C142 1_555 1_555
C143 N18 1_555 1_555
H171 C143 1_555 1_555
H172 C143 1_555 1_555
C144 C140 1_555 1_555
H173 C144 1_555 1_555
H174 C144 1_555 1_555
N19 C145 1_555 1_555
O34 C145 1_555 1_555
C145 C148 1_555 1_555
C146 N19 1_555 1_555
H175 C146 1_555 1_555
H176 C146 1_555 1_555
C147 N19 1_555 1_555
H177 C147 1_555 1_555
H178 C147 1_555 1_555
H179 C147 1_555 1_555
C148 H180 1_555 1_555
H181 C148 1_555 1_555
C149 C146 1_555 1_555
H182 C149 1_555 1_555
H183 C149 1_555 1_555
O36 C153 1_555 1_555
C150 H184 1_555 1_555
H185 C150 1_555 1_555
C151 C150 1_555 1_555
H186 C151 1_555 1_555
H187 C151 1_555 1_555
N20 C152 1_555 1_555
C152 C150 1_555 1_555
H188 C152 1_555 1_555
H189 C152 1_555 1_555
C153 C151 1_555 1_555
C154 N20 1_555 1_555
H190 C154 1_555 1_555
H191 C154 1_555 1_555
H192 C154 1_555 1_555
Cu1C N6 1_555 1_555
N1_2 Cu2 1_555 1_555
Cu2_2 N1 1_555 1_555
Cu2C N4 1_555 1_555
N4C Cu2 1_555 1_555
N6C Cu1 1_555 1_555
C5 C6 1_555 1_555
C12 C13 1_555 1_555
C19 C20 1_555 1_555
C20 C21 1_555 1_555
C27 C28 1_555 1_555
C32 C33 1_555 1_555
C34 C35 1_555 1_555
C41 C42 1_555 1_555
C47 C48 1_555 1_555
C54 C55 1_555 1_555
C61 C62 1_555 1_555
C62 C63 1_555 1_555
C69 C70 1_555 1_555
C76 C77 1_555 1_555
C83 C84 1_555 1_555
C87 C89 1_555 1_555
C92 C93 1_555 1_555
C97 C98 1_555 1_555
C102 C103 1_555 1_555
C107 C108 1_555 1_555
C112 C113 1_555 1_555
C117 C118 1_555 1_555
C122 C123 1_555 1_555
C127 C128 1_555 1_555
C132 C134 1_555 1_555
C137 C138 1_555 1_555
C142 C143 1_555 1_555
C142 C144 1_555 1_555
C148 C149 1_555 1_555
N20 C153 1_555 1_555

#END
