
#######################################################################
#
#                 Cambridge Crystallographic Data Centre
#                                CCDC 
#
#######################################################################
#
# If this CIF has been generated from an entry in the Cambridge 
# Structural Database, then it will include bibliographic, chemical, 
# crystal, experimental, refinement or atomic coordinate data resulting 
# from the CCDC's data processing and validation procedures.
#
#######################################################################

data_PIQQEN
_chemical_formula_moiety         '(C62 H50 Cd3 O22)n'
_symmetry_cell_setting           monoclinic
_symmetry_space_group_name_H-M   'P 2/c'
_symmetry_Int_Tables_number      13
_space_group_name_Hall           '-P 2yc'
loop_
_symmetry_equiv_pos_site_id
_symmetry_equiv_pos_as_xyz
1 x,y,z
2 -x,y,1/2-z
3 -x,-y,-z
4 x,-y,1/2+z
_cell_length_a                   15.4481(10)
_cell_length_b                   11.4391(7)
_cell_length_c                   19.1156(13)
_cell_angle_alpha                90
_cell_angle_beta                 94.6250(10)
_cell_angle_gamma                90
_cell_volume                     3366.96
loop_
_atom_site_label
_atom_site_type_symbol
_atom_site_fract_x
_atom_site_fract_y
_atom_site_fract_z
C1 C 0.38031(19) 0.3251(3) 0.13364(15)
C2 C 0.31776(19) 0.2255(3) 0.11949(16)
C3 C 0.2708(2) 0.2150(4) 0.05520(18)
H1 H 0.2799 0.2680 0.0196
C4 C 0.2104(3) 0.1262(4) 0.0431(2)
H2 H 0.1790 0.1194 -0.0002
C5 C 0.1977(2) 0.0486(3) 0.0958(2)
C6 C 0.2446(3) 0.0559(3) 0.1600(2)
H3 H 0.2363 0.0014 0.1949
C7 C 0.3042(3) 0.1454(3) 0.17178(19)
C8 C 0.0563(2) -0.0220(3) 0.10762(18)
C9 C 0.0305(2) 0.0853(3) 0.1322(2)
C10 C -0.0520(2) 0.0945(3) 0.15476(19)
C11 C -0.1082(2) 0.0006(3) 0.15442(18)
H4 H -0.1634 0.0081 0.1701
C12 C -0.0792(2) -0.1055(3) 0.12976(16)
C13 C 0.0019(2) -0.1187(3) 0.10562(16)
H5 H 0.0196 -0.1902 0.0885
C14 C -0.1868(2) -0.2258(3) 0.17703(16)
C15 C -0.2702(2) -0.2602(3) 0.15619(17)
H6 H -0.2893 -0.2618 0.1088
C16 C -0.3254(2) -0.2924(3) 0.20650(17)
H7 H -0.3821 -0.3148 0.1927
C17 C -0.29705(19) -0.2916(3) 0.27697(15)
C18 C -0.2135(2) -0.2545(3) 0.29734(17)
C19 C -0.1578(2) -0.2209(4) 0.24753(17)
H8 H -0.1018 -0.1956 0.2612
C20 C -0.1519(2) 0.2535(3) 0.15919(19)
C21 C -0.1861(2) 0.2507(4) 0.09011(19)
H9 H -0.1587 0.2082 0.0568
C22 C -0.2618(2) 0.3124(3) 0.07124(17)
H10 H -0.2852 0.3115 0.0249
C23 C -0.30269(19) 0.3755(3) 0.12108(15)
C24 C -0.38566(18) 0.4401(3) 0.10186(15)
C25 C -0.2667(2) 0.3779(3) 0.18975(17)
H11 H -0.2935 0.4209 0.2232
C26 C -0.1912(2) 0.3167(4) 0.20910(18)
H12 H -0.1672 0.3183 0.2553
C27 C -0.35538(19) -0.3342(3) 0.32990(15)
O1 O 0.39701(15) 0.3864(2) 0.08157(11)
O2 O 0.41077(16) 0.3394(2) 0.19562(12)
O3 O -0.42756(14) -0.3807(2) 0.30835(11)
O4 O 0.54435(17) 0.7086(2) 0.04058(13)
O5 O -0.33432(15) -0.3253(2) 0.39422(11)
O6 O 0.13711(16) -0.0406(2) 0.08354(16)
O7 O -0.13306(16) -0.2026(2) 0.12399(12)
O8 O -0.07395(16) 0.2014(2) 0.18264(16)
O9 O -0.41373(15) 0.4517(2) 0.03904(11)
O10 O -0.42575(13) 0.4846(2) 0.15022(11)
Cd1 Cd 0.5000 0.46801(3) 0.2500
Cd2 Cd 0.456658(13) 0.566368(18) 0.077100(10)
H13 H 0.067(3) 0.150(4) 0.133(2)
H14 H 0.336(3) 0.156(4) 0.214(2)
H15 H -0.194(3) -0.257(4) 0.344(2)
C1A C -0.38031(19) 0.3251(3) 0.36636(15)
C2A C -0.31776(19) 0.2255(3) 0.38051(16)
C3A C -0.2708(2) 0.2150(4) 0.44480(18)
H1A H -0.2799 0.2680 0.4804
C4A C -0.2104(3) 0.1262(4) 0.4569(2)
H2A H -0.1790 0.1194 0.5002
C5A C -0.1977(2) 0.0486(3) 0.4042(2)
C6A C -0.2446(3) 0.0559(3) 0.3400(2)
H3A H -0.2363 0.0014 0.3051
C7A C -0.3042(3) 0.1454(3) 0.32822(19)
C8A C -0.0563(2) -0.0220(3) 0.39238(18)
C9A C -0.0305(2) 0.0853(3) 0.3678(2)
C10A C 0.0520(2) 0.0945(3) 0.34524(19)
C11A C 0.1082(2) 0.0006(3) 0.34558(18)
H4A H 0.1634 0.0081 0.3299
C12A C 0.0792(2) -0.1055(3) 0.37024(16)
C13A C -0.0019(2) -0.1187(3) 0.39438(16)
H5A H -0.0196 -0.1902 0.4115
C14A C 0.1868(2) -0.2258(3) 0.32297(16)
C15A C 0.2702(2) -0.2602(3) 0.34381(17)
H6A H 0.2893 -0.2618 0.3912
C16A C 0.3254(2) -0.2924(3) 0.29350(17)
H7A H 0.3821 -0.3148 0.3073
C17A C 0.29705(19) -0.2916(3) 0.22303(15)
C18A C 0.2135(2) -0.2545(3) 0.20266(17)
C19A C 0.1578(2) -0.2209(4) 0.25247(17)
H8A H 0.1018 -0.1956 0.2388
C20A C 0.1519(2) 0.2535(3) 0.34081(19)
C21A C 0.1861(2) 0.2507(4) 0.40989(19)
H9A H 0.1587 0.2082 0.4432
C22A C 0.2618(2) 0.3124(3) 0.42876(17)
H10A H 0.2852 0.3115 0.4751
C23A C 0.30269(19) 0.3755(3) 0.37892(15)
C24A C 0.38566(18) 0.4401(3) 0.39814(15)
C25A C 0.2667(2) 0.3779(3) 0.31025(17)
H11A H 0.2935 0.4209 0.2768
C26A C 0.1912(2) 0.3167(4) 0.29090(18)
H12A H 0.1672 0.3183 0.2447
C27A C 0.35538(19) -0.3342(3) 0.17010(15)
O1A O -0.39701(15) 0.3864(2) 0.41843(11)
O2A O -0.41077(16) 0.3394(2) 0.30438(12)
O3A O 0.42756(14) -0.3807(2) 0.19165(11)
O4A O -0.54435(17) 0.7086(2) 0.45942(13)
O5A O 0.33432(15) -0.3253(2) 0.10578(11)
O6A O -0.13711(16) -0.0406(2) 0.41646(16)
O7A O 0.13306(16) -0.2026(2) 0.37601(12)
O8A O 0.07395(16) 0.2014(2) 0.31736(16)
O9A O 0.41373(15) 0.4517(2) 0.46096(11)
O10A O 0.42575(13) 0.4846(2) 0.34978(11)
Cd2A Cd -0.456658(13) 0.566368(18) 0.422900(10)
H13A H -0.067(3) 0.150(4) 0.367(2)
H14A H -0.336(3) 0.156(4) 0.286(2)
H15A H 0.194(3) -0.257(4) 0.156(2)
O2A_2 O 0.58923(16) 0.3394(2) 0.30438(12)
O3_2 O -0.42756(14) 0.6193(2) 0.30835(11)
O3_3 O 0.57244(14) 0.6193(2) 0.30835(11)
O3A_2 O 0.42756(14) 0.6193(2) 0.19165(11)
O5_2 O -0.33432(15) 0.6747(2) 0.39422(11)
O5A_2 O 0.33432(15) 0.6747(2) 0.10578(11)
O9_2 O 0.58627(15) 0.4517(2) 0.03904(11)
O9A_2 O -0.58627(15) 0.4517(2) 0.46096(11)
O9B O 0.41373(15) 0.5483(2) -0.03904(11)
O9C O -0.41373(15) 0.5483(2) 0.53904(11)
O10_2 O 0.57425(13) 0.4846(2) 0.15022(11)
O10A_2 O -0.57425(13) 0.4846(2) 0.34978(11)
Cd1_2 Cd -0.5000 -0.53199(3) 0.2500
Cd1_3 Cd -0.5000 0.46801(3) 0.2500
Cd1_4 Cd 0.5000 -0.53199(3) 0.2500
Cd2_2 Cd -0.543342(13) 0.566368(18) 0.077100(10)
Cd2_3 Cd 0.456658(13) -0.433632(18) 0.077100(10)
Cd2A_2 Cd -0.456658(13) -0.433632(18) 0.422900(10)
Cd2A_3 Cd 0.543342(13) 0.566368(18) 0.422900(10)
Cd2B Cd -0.456658(13) 0.433632(18) -0.077100(10)
Cd2C Cd 0.456658(13) 0.433632(18) 0.577100(10)
C28 C 0.1184(6) 0.5292(8) 0.0628(4)
H16 H 0.1733 0.5706 0.0680
H17 H 0.1101 0.4993 0.0153
C29 C 0.1188(8) 0.4340(11) 0.1125(7)
H18 H 0.1142 0.3591 0.0887
H19 H 0.1712 0.4349 0.1440
C30 C 0.0433(8) 0.4567(11) 0.1497(9)
H20 H 0.0041 0.3905 0.1444
H21 H 0.0607 0.4659 0.1993
C31 C 0.0021(7) 0.5528(7) 0.1259(6)
H22 H -0.0042 0.6069 0.1643
H23 H -0.0553 0.5329 0.1050
O11 O 0.0511(5) 0.6040(4) 0.0758(3)
C32 C 0.3729(4) 0.0550(7) 0.3594(4)
H24 H 0.3416 -0.0072 0.3339
H25 H 0.3414 0.1276 0.3508
C33 C 0.4584(5) 0.0648(12) 0.3378(7)
H26 H 0.4591 0.0428 0.2888
H27 H 0.4787 0.1448 0.3431
C34 C 0.5131(4) -0.0109(12) 0.3804(7)
H28 H 0.5590 0.0336 0.4057
H29 H 0.5395 -0.0684 0.3515
C35 C 0.4614(5) -0.0674(5) 0.4284(4)
H30 H 0.4383 -0.1407 0.4094
H31 H 0.4946 -0.0825 0.4728
O12 O 0.3825(11) 0.0277(14) 0.4382(8)
loop_
_geom_bond_atom_site_label_1
_geom_bond_atom_site_label_2
_geom_bond_site_symmetry_1
_geom_bond_site_symmetry_2
C1 C2 1_555 1_555
C2 C3 1_555 1_555
C3 H1 1_555 1_555
C4 C3 1_555 1_555
H2 C4 1_555 1_555
C5 C4 1_555 1_555
C6 C5 1_555 1_555
H3 C6 1_555 1_555
C7 C2 1_555 1_555
C8 C9 1_555 1_555
C9 C10 1_555 1_555
C10 C11 1_555 1_555
C11 H4 1_555 1_555
C12 C11 1_555 1_555
C13 C8 1_555 1_555
H5 C13 1_555 1_555
C14 C15 1_555 1_555
C15 H6 1_555 1_555
C16 C15 1_555 1_555
H7 C16 1_555 1_555
C17 C16 1_555 1_555
C18 C17 1_555 1_555
C19 C14 1_555 1_555
H8 C19 1_555 1_555
C20 C21 1_555 1_555
C21 H9 1_555 1_555
C22 C21 1_555 1_555
H10 C22 1_555 1_555
C23 C22 1_555 1_555
C24 C23 1_555 1_555
C25 C23 1_555 1_555
H11 C25 1_555 1_555
C26 C20 1_555 1_555
H12 C26 1_555 1_555
C27 C17 1_555 1_555
O1 C1 1_555 1_555
O2 C1 1_555 1_555
O3 C27 1_555 1_555
O4 Cd2 1_555 1_555
O5 C27 1_555 1_555
O6 C5 1_555 1_555
O7 C12 1_555 1_555
O8 C10 1_555 1_555
O9 C24 1_555 1_555
O10 C24 1_555 1_555
Cd1 O2 1_555 1_555
Cd2 O1 1_555 1_555
H13 C9 1_555 1_555
H14 C7 1_555 1_555
H15 C18 1_555 1_555
C28 H16 1_555 1_555
H17 C28 1_555 1_555
C29 C28 1_555 1_555
H18 C29 1_555 1_555
H19 C29 1_555 1_555
C30 C29 1_555 1_555
H20 C30 1_555 1_555
H21 C30 1_555 1_555
C31 C30 1_555 1_555
H22 C31 1_555 1_555
H23 C31 1_555 1_555
O11 C28 1_555 1_555
C32 H24 1_555 1_555
H25 C32 1_555 1_555
C33 C32 1_555 1_555
H26 C33 1_555 1_555
H27 C33 1_555 1_555
C34 C33 1_555 1_555
H28 C34 1_555 1_555
H29 C34 1_555 1_555
C35 C34 1_555 1_555
H30 C35 1_555 1_555
H31 C35 1_555 1_555
O12 C32 1_555 1_555
C1A C2A 1_555 1_555
C2A C3A 1_555 1_555
C3A H1A 1_555 1_555
C4A C3A 1_555 1_555
H2A C4A 1_555 1_555
C5A C4A 1_555 1_555
C6A C5A 1_555 1_555
H3A C6A 1_555 1_555
C7A C2A 1_555 1_555
C8A C9A 1_555 1_555
C9A C10A 1_555 1_555
C10A C11A 1_555 1_555
C11A H4A 1_555 1_555
C12A C11A 1_555 1_555
C13A C8A 1_555 1_555
H5A C13A 1_555 1_555
C14A C15A 1_555 1_555
C15A H6A 1_555 1_555
C16A C15A 1_555 1_555
H7A C16A 1_555 1_555
C17A C16A 1_555 1_555
C18A C17A 1_555 1_555
C19A C14A 1_555 1_555
H8A C19A 1_555 1_555
C20A C21A 1_555 1_555
C21A H9A 1_555 1_555
C22A C21A 1_555 1_555
H10A C22A 1_555 1_555
C23A C22A 1_555 1_555
C24A C23A 1_555 1_555
C25A C23A 1_555 1_555
H11A C25A 1_555 1_555
C26A C20A 1_555 1_555
H12A C26A 1_555 1_555
C27A C17A 1_555 1_555
O1A C1A 1_555 1_555
O2A C1A 1_555 1_555
O3A C27A 1_555 1_555
O4A Cd2A 1_555 1_555
O5A C27A 1_555 1_555
O6A C5A 1_555 1_555
O7A C12A 1_555 1_555
O8A C10A 1_555 1_555
O9A C24A 1_555 1_555
O10A Cd1 1_555 1_555
Cd2A O1A 1_555 1_555
H13A C9A 1_555 1_555
H14A C7A 1_555 1_555
H15A C18A 1_555 1_555
O2A_2 Cd1 1_555 1_555
O3_2 Cd2A 1_555 1_555
O3_3 Cd1 1_555 1_555
O3A_2 Cd1 1_555 1_555
O5_2 Cd2A 1_555 1_555
O5A_2 Cd2 1_555 1_555
O9_2 Cd2 1_555 1_555
O9A_2 Cd2A 1_555 1_555
O9B Cd2 1_555 1_555
O9C Cd2A 1_555 1_555
O10_2 Cd1 1_555 1_555
O10A_2 Cd2A 1_555 1_555
Cd1_2 O3 1_555 1_555
Cd1_3 O10 1_555 1_555
Cd1_4 O3A 1_555 1_555
Cd2_2 O9 1_555 1_555
Cd2_3 O3A 1_555 1_555
Cd2A_2 O3 1_555 1_555
Cd2A_3 O9A 1_555 1_555
Cd2B O9 1_555 1_555
Cd2C O9A 1_555 1_555
C6 C7 1_555 1_555
C8 O6 1_555 1_555
C12 C13 1_555 1_555
C14 O7 1_555 1_555
C18 C19 1_555 1_555
C20 O8 1_555 1_555
C25 C26 1_555 1_555
O5 Cd2A_2 1_555 1_555
O10 Cd2_2 1_555 1_555
Cd2 O3A_2 1_555 1_555
Cd2 O10_2 1_555 1_555
C31 O11 1_555 1_555
C35 O12 1_555 1_555
C6A C7A 1_555 1_555
C8A O6A 1_555 1_555
C12A C13A 1_555 1_555
C14A O7A 1_555 1_555
C18A C19A 1_555 1_555
C20A O8A 1_555 1_555
C24A O10A 1_555 1_555
C25A C26A 1_555 1_555
O2A Cd1_3 1_555 1_555
O5A Cd2_3 1_555 1_555
O10A Cd2A_3 1_555 1_555
O3_2 Cd1_3 1_555 1_555
O3_3 Cd2A_3 1_555 1_555
O10A_2 Cd1_3 1_555 1_555

#END
