
#######################################################################
#
#                 Cambridge Crystallographic Data Centre
#                                CCDC 
#
#######################################################################
#
# If this CIF has been generated from an entry in the Cambridge 
# Structural Database, then it will include bibliographic, chemical, 
# crystal, experimental, refinement or atomic coordinate data resulting 
# from the CCDC's data processing and validation procedures.
#
#######################################################################

data_PIQQAJ
_chemical_formula_moiety         '(C66 H60 Cd3 O21)n'
_symmetry_cell_setting           monoclinic
_symmetry_space_group_name_H-M   'P 2/c'
_symmetry_Int_Tables_number      13
_space_group_name_Hall           '-P 2yc'
loop_
_symmetry_equiv_pos_site_id
_symmetry_equiv_pos_as_xyz
1 x,y,z
2 -x,y,1/2-z
3 -x,-y,-z
4 x,-y,1/2+z
_cell_length_a                   15.438(5)
_cell_length_b                   11.075(3)
_cell_length_c                   19.180(5)
_cell_angle_alpha                90
_cell_angle_beta                 95.796(8)
_cell_angle_gamma                90
_cell_volume                     3262.55
loop_
_atom_site_label
_atom_site_type_symbol
_atom_site_fract_x
_atom_site_fract_y
_atom_site_fract_z
C1 C 1.3829(6) 0.3060(9) 0.1289(5)
C2 C 1.3210(6) 0.1998(9) 0.1128(5)
C3 C 1.2804(7) 0.1834(11) 0.0463(6)
H1 H 1.2939 0.2335 0.0100
C4 C 1.2192(7) 0.0917(12) 0.0333(6)
H2 H 1.1925 0.0792 -0.0118
C5 C 1.1988(6) 0.0203(10) 0.0871(5)
C6 C 1.2395(8) 0.0354(11) 0.1540(6)
H3 H 1.2261 -0.0151 0.1901
C7 C 1.3003(7) 0.1261(10) 0.1667(5)
H4 H 1.3275 0.1376 0.2117
C8 C 1.0567(6) -0.0507(10) 0.0999(5)
C9 C 1.0040(5) -0.1530(9) 0.1012(5)
H5 H 1.0215 -0.2274 0.0850
C10 C 0.9248(6) -0.1386(11) 0.1275(5)
C11 C 0.8961(6) -0.0287(10) 0.1512(5)
H6 H 0.8420 -0.0210 0.1680
C12 C 0.9513(6) 0.0683(9) 0.1487(5)
C13 C 1.0315(6) 0.0616(9) 0.1241(5)
H7 H 1.0676 0.1288 0.1235
C14 C 0.8184(6) -0.2592(11) 0.1773(5)
C15 C 0.7318(6) -0.2863(10) 0.1568(5)
H8 H 0.7109 -0.2870 0.1096
C16 C 0.6772(6) -0.3123(10) 0.2076(5)
H9 H 0.6189 -0.3291 0.1942
C17 C 0.7074(6) -0.3137(9) 0.2778(5)
C18 C 0.7942(6) -0.2831(12) 0.2972(5)
H10 H 0.8154 -0.2813 0.3444
C19 C 0.8491(7) -0.2553(14) 0.2467(6)
H11 H 0.9067 -0.2339 0.2599
C20 C 0.6485(6) -0.3522(9) 0.3306(5)
C21 C 0.8498(6) 0.2299(9) 0.1557(5)
C22 C 0.8102(7) 0.2899(11) 0.2075(5)
H12 H 0.8342 0.2869 0.2539
C23 C 0.7339(6) 0.3548(11) 0.1890(5)
H13 H 0.7073 0.3958 0.2234
C24 C 0.6970(6) 0.3590(9) 0.1197(4)
C25 C 0.7377(6) 0.2958(9) 0.0689(5)
H14 H 0.7131 0.2959 0.0226
C26 C 0.8148(6) 0.2326(11) 0.0871(6)
H15 H 0.8424 0.1925 0.0529
C27 C 0.6150(5) 0.4279(8) 0.1026(4)
C28 C 0.5071(17) -0.1727(19) 0.4676(12)
H16 H 0.5656 -0.1925 0.4875
H17 H 0.4792 -0.1301 0.5035
C29 C 0.514(3) -0.092(2) 0.4123(14)
H18 H 0.5390 -0.1363 0.3754
H19 H 0.5564 -0.0310 0.4289
C30 C 0.443(5) -0.034(4) 0.382(3)
H20 H 0.4144 -0.1033 0.3597
H21 H 0.4139 -0.0241 0.4246
C31 C 0.396(3) 0.055(3) 0.3422(15)
H22 H 0.3429 0.0721 0.3620
H23 H 0.3834 0.0267 0.2950
H24 H 0.4305 0.1275 0.3421
O1 O 1.4084(4) 0.3266(6) 0.1916(3)
O2 O 1.4019(4) 0.3681(6) 0.0760(3)
O3 O 1.1363(4) -0.0695(7) 0.0732(4)
O4 O 0.9302(5) 0.1804(7) 0.1763(4)
O5 O 0.8719(5) -0.2398(8) 0.1243(4)
O6 O 0.5734(4) 0.4674(5) 0.1513(3)
O7 O 0.5868(4) 0.4476(6) 0.0398(3)
O8 O 0.6723(5) -0.3485(8) 0.3946(3)
O9 O 0.5728(4) -0.3892(6) 0.3090(3)
O10 O 0.4603(4) -0.2858(6) 0.4536(4)
Cd1 Cd 1.5000 0.45496(9) 0.2500
Cd2 Cd 0.54395(4) -0.44237(6) 0.42226(3)
C1A C 0.6171(6) 0.3060(9) 0.3711(5)
C2A C 0.6790(6) 0.1998(9) 0.3872(5)
C3A C 0.7196(7) 0.1834(11) 0.4537(6)
H1A H 0.7061 0.2335 0.4900
C4A C 0.7808(7) 0.0917(12) 0.4667(6)
H2A H 0.8075 0.0792 0.5118
C5A C 0.8012(6) 0.0203(10) 0.4129(5)
C6A C 0.7605(8) 0.0354(11) 0.3460(6)
H3A H 0.7739 -0.0151 0.3099
C7A C 0.6997(7) 0.1261(10) 0.3333(5)
H4A H 0.6725 0.1376 0.2883
C8A C 0.9433(6) -0.0507(10) 0.4001(5)
C9A C 0.9960(5) -0.1530(9) 0.3988(5)
H5A H 0.9785 -0.2274 0.4150
C10A C 1.0752(6) -0.1386(11) 0.3725(5)
C11A C 1.1039(6) -0.0287(10) 0.3488(5)
H6A H 1.1580 -0.0210 0.3320
C12A C 1.0487(6) 0.0683(9) 0.3513(5)
C13A C 0.9685(6) 0.0616(9) 0.3759(5)
H7A H 0.9324 0.1288 0.3765
C14A C 1.1816(6) -0.2592(11) 0.3227(5)
C15A C 1.2682(6) -0.2863(10) 0.3432(5)
H8A H 1.2891 -0.2870 0.3904
C16A C 1.3228(6) -0.3123(10) 0.2924(5)
H9A H 1.3811 -0.3291 0.3058
C17A C 1.2926(6) -0.3137(9) 0.2222(5)
C18A C 1.2058(6) -0.2831(12) 0.2028(5)
H10A H 1.1846 -0.2813 0.1556
C19A C 1.1509(7) -0.2553(14) 0.2533(6)
H11A H 1.0933 -0.2339 0.2401
C20A C 1.3515(6) -0.3522(9) 0.1694(5)
C21A C 1.1502(6) 0.2299(9) 0.3443(5)
C22A C 1.1898(7) 0.2899(11) 0.2925(5)
H12A H 1.1658 0.2869 0.2461
C23A C 1.2661(6) 0.3548(11) 0.3110(5)
H13A H 1.2927 0.3958 0.2766
C24A C 1.3030(6) 0.3590(9) 0.3803(4)
C25A C 1.2623(6) 0.2958(9) 0.4311(5)
H14A H 1.2869 0.2959 0.4774
C26A C 1.1852(6) 0.2326(11) 0.4129(6)
H15A H 1.1576 0.1925 0.4471
C27A C 1.3850(5) 0.4279(8) 0.3974(4)
C28A C 1.4929(17) -0.1727(19) 0.0324(12)
H16A H 1.4344 -0.1925 0.0125
H17A H 1.5208 -0.1301 -0.0035
C29A C 1.486(3) -0.092(2) 0.0877(14)
H18A H 1.4610 -0.1363 0.1246
H19A H 1.4436 -0.0310 0.0711
C30A C 1.557(5) -0.034(4) 0.118(3)
H20A H 1.5856 -0.1033 0.1403
H21A H 1.5861 -0.0241 0.0754
C31A C 1.604(3) 0.055(3) 0.1578(15)
H22A H 1.6571 0.0721 0.1380
H23A H 1.6166 0.0267 0.2050
H24A H 1.5695 0.1275 0.1579
O1A O 0.5916(4) 0.3266(6) 0.3084(3)
O2A O 0.5981(4) 0.3681(6) 0.4240(3)
O3A O 0.8637(4) -0.0695(7) 0.4268(4)
O4A O 1.0698(5) 0.1804(7) 0.3237(4)
O5A O 1.1281(5) -0.2398(8) 0.3757(4)
O6A O 1.4266(4) 0.4674(5) 0.3487(3)
O7A O 1.4132(4) 0.4476(6) 0.4602(3)
O8A O 1.3277(5) -0.3485(8) 0.1054(3)
O9A O 1.4272(4) -0.3892(6) 0.1910(3)
O10A O 1.5397(4) -0.2858(6) 0.0464(4)
Cd2A Cd 1.45605(4) -0.44237(6) 0.07774(3)
O1A_2 O 1.5916(4) 0.3266(6) 0.3084(3)
O2_2 O 1.4019(4) -0.6319(6) 0.0760(3)
O2A_2 O 0.5981(4) -0.6319(6) 0.4240(3)
O6_2 O 1.5734(4) -0.5326(5) 0.1513(3)
O6_3 O 1.5734(4) 0.4674(5) 0.1513(3)
O6A_2 O 0.4266(4) -0.5326(5) 0.3487(3)
O7_2 O 1.5868(4) -0.5524(6) 0.0398(3)
O7A_2 O 0.4132(4) -0.5524(6) 0.4602(3)
O7B O 1.4132(4) -0.4476(6) -0.0398(3)
O7C O 0.5868(4) -0.4476(6) 0.5398(3)
O9_2 O 1.5728(4) 0.6108(6) 0.3090(3)
O9A_2 O 1.4272(4) 0.6108(6) 0.1910(3)
Cd1_2 Cd 0.5000 -0.54504(9) 0.2500
Cd1_3 Cd 0.5000 0.45496(9) 0.2500
Cd1_4 Cd 1.5000 -0.54504(9) 0.2500
Cd2_2 Cd 0.54395(4) 0.55763(6) 0.42226(3)
Cd2_3 Cd 1.54395(4) 0.55763(6) 0.42226(3)
Cd2A_2 Cd 0.45605(4) 0.55763(6) 0.07774(3)
Cd2A_3 Cd 1.45605(4) 0.55763(6) 0.07774(3)
Cd2B Cd 1.45605(4) 0.44237(6) 0.57774(3)
Cd2C Cd 0.54395(4) 0.44237(6) -0.07774(3)
C32 C 1.058(4) -0.494(15) -0.088(8)
H25 H 1.0789 -0.4239 -0.0604
H26 H 1.1033 -0.5497 -0.0978
C33 C 0.968(2) -0.469(4) -0.157(2)
H27 H 0.9566 -0.5423 -0.1841
H28 H 0.9832 -0.4054 -0.1886
C34 C 0.871(2) -0.425(3) -0.1143(16)
H29 H 0.8739 -0.3401 -0.1030
H30 H 0.8192 -0.4395 -0.1461
C35 C 0.8662(16) -0.499(2) -0.0467(13)
H31 H 0.8744 -0.4531 -0.0036
H32 H 0.8165 -0.5532 -0.0474
O11 O 0.951(3) -0.559(4) -0.070(2)
loop_
_geom_bond_atom_site_label_1
_geom_bond_atom_site_label_2
_geom_bond_site_symmetry_1
_geom_bond_site_symmetry_2
C1 C2 1_555 1_555
C2 C3 1_555 1_555
C3 H1 1_555 1_555
C4 C3 1_555 1_555
H2 C4 1_555 1_555
C5 C4 1_555 1_555
C6 C5 1_555 1_555
H3 C6 1_555 1_555
C7 C2 1_555 1_555
H4 C7 1_555 1_555
C8 C9 1_555 1_555
C9 H5 1_555 1_555
C10 C9 1_555 1_555
C11 C10 1_555 1_555
H6 C11 1_555 1_555
C12 C11 1_555 1_555
C13 C8 1_555 1_555
H7 C13 1_555 1_555
C14 C15 1_555 1_555
C15 H8 1_555 1_555
C16 C15 1_555 1_555
H9 C16 1_555 1_555
C17 C16 1_555 1_555
C18 C17 1_555 1_555
H10 C18 1_555 1_555
C19 C14 1_555 1_555
H11 C19 1_555 1_555
C20 C17 1_555 1_555
C21 C22 1_555 1_555
C22 H12 1_555 1_555
C23 C22 1_555 1_555
H13 C23 1_555 1_555
C24 C23 1_555 1_555
C25 C24 1_555 1_555
H14 C25 1_555 1_555
C26 C21 1_555 1_555
H15 C26 1_555 1_555
C27 C24 1_555 1_555
C28 H16 1_555 1_555
H17 C28 1_555 1_555
C29 C28 1_555 1_555
H18 C29 1_555 1_555
H19 C29 1_555 1_555
C30 C29 1_555 1_555
H20 C30 1_555 1_555
H21 C30 1_555 1_555
C31 C30 1_555 1_555
H22 C31 1_555 1_555
H23 C31 1_555 1_555
H24 C31 1_555 1_555
O1 C1 1_555 1_555
O2 C1 1_555 1_555
O3 C5 1_555 1_555
O4 C12 1_555 1_555
O5 C10 1_555 1_555
O6 C27 1_555 1_555
O7 C27 1_555 1_555
O8 C20 1_555 1_555
O9 C20 1_555 1_555
O10 C28 1_555 1_555
Cd1 O1 1_555 1_555
Cd2 O8 1_555 1_555
C32 H25 1_555 1_555
H26 C32 1_555 1_555
C33 C32 1_555 1_555
H27 C33 1_555 1_555
H28 C33 1_555 1_555
C34 C33 1_555 1_555
H29 C34 1_555 1_555
H30 C34 1_555 1_555
C35 C34 1_555 1_555
H31 C35 1_555 1_555
H32 C35 1_555 1_555
O11 C35 1_555 1_555
C1A C2A 1_555 1_555
C2A C3A 1_555 1_555
C3A H1A 1_555 1_555
C4A C3A 1_555 1_555
H2A C4A 1_555 1_555
C5A C4A 1_555 1_555
C6A C5A 1_555 1_555
H3A C6A 1_555 1_555
C7A C2A 1_555 1_555
H4A C7A 1_555 1_555
C8A C9A 1_555 1_555
C9A H5A 1_555 1_555
C10A C9A 1_555 1_555
C11A C10A 1_555 1_555
H6A C11A 1_555 1_555
C12A C11A 1_555 1_555
C13A C8A 1_555 1_555
H7A C13A 1_555 1_555
C14A C15A 1_555 1_555
C15A H8A 1_555 1_555
C16A C15A 1_555 1_555
H9A C16A 1_555 1_555
C17A C16A 1_555 1_555
C18A C17A 1_555 1_555
H10A C18A 1_555 1_555
C19A C14A 1_555 1_555
H11A C19A 1_555 1_555
C20A C17A 1_555 1_555
C21A C22A 1_555 1_555
C22A H12A 1_555 1_555
C23A C22A 1_555 1_555
H13A C23A 1_555 1_555
C24A C23A 1_555 1_555
C25A C24A 1_555 1_555
H14A C25A 1_555 1_555
C26A C21A 1_555 1_555
H15A C26A 1_555 1_555
C27A C24A 1_555 1_555
C28A H16A 1_555 1_555
H17A C28A 1_555 1_555
C29A C28A 1_555 1_555
H18A C29A 1_555 1_555
H19A C29A 1_555 1_555
C30A C29A 1_555 1_555
H20A C30A 1_555 1_555
H21A C30A 1_555 1_555
C31A C30A 1_555 1_555
H22A C31A 1_555 1_555
H23A C31A 1_555 1_555
H24A C31A 1_555 1_555
O1A C1A 1_555 1_555
O2A C1A 1_555 1_555
O3A C5A 1_555 1_555
O4A C12A 1_555 1_555
O5A C10A 1_555 1_555
O6A Cd1 1_555 1_555
O7A C27A 1_555 1_555
O8A C20A 1_555 1_555
O9A C20A 1_555 1_555
O10A C28A 1_555 1_555
Cd2A O8A 1_555 1_555
O1A_2 Cd1 1_555 1_555
O2_2 Cd2A 1_555 1_555
O2A_2 Cd2 1_555 1_555
O6_2 Cd2A 1_555 1_555
O6_3 Cd1 1_555 1_555
O6A_2 Cd2 1_555 1_555
O7_2 Cd2A 1_555 1_555
O7A_2 Cd2 1_555 1_555
O7B Cd2A 1_555 1_555
O7C Cd2 1_555 1_555
O9_2 Cd1 1_555 1_555
O9A_2 Cd1 1_555 1_555
Cd1_2 O9 1_555 1_555
Cd1_3 O6 1_555 1_555
Cd1_4 O9A 1_555 1_555
Cd2_2 O2A 1_555 1_555
Cd2_3 O6A 1_555 1_555
Cd2A_2 O6 1_555 1_555
Cd2A_3 O2 1_555 1_555
Cd2B O7A 1_555 1_555
Cd2C O7 1_555 1_555
C6 C7 1_555 1_555
C8 O3 1_555 1_555
C12 C13 1_555 1_555
C14 O5 1_555 1_555
C18 C19 1_555 1_555
C21 O4 1_555 1_555
C25 C26 1_555 1_555
O7 Cd2A_2 1_555 1_555
O9 Cd2 1_555 1_555
O10 Cd2 1_555 1_555
C6A C7A 1_555 1_555
C8A O3A 1_555 1_555
C12A C13A 1_555 1_555
C14A O5A 1_555 1_555
C18A C19A 1_555 1_555
C21A O4A 1_555 1_555
C25A C26A 1_555 1_555
C27A O6A 1_555 1_555
O1A Cd1_3 1_555 1_555
O7A Cd2_3 1_555 1_555
O9A Cd2A 1_555 1_555
O10A Cd2A 1_555 1_555
O6_2 Cd1_4 1_555 1_555
O6_3 Cd2A_3 1_555 1_555
O6A_2 Cd1_2 1_555 1_555
O9_2 Cd2_3 1_555 1_555
O9A_2 Cd2A_3 1_555 1_555

#END
