
#######################################################################
#
#                 Cambridge Crystallographic Data Centre
#                                CCDC 
#
#######################################################################
#
# If this CIF has been generated from an entry in the Cambridge 
# Structural Database, then it will include bibliographic, chemical, 
# crystal, experimental, refinement or atomic coordinate data resulting 
# from the CCDC's data processing and validation procedures.
#
#######################################################################

data_MOYYEF
_chemical_formula_moiety         '(C14 H10 Cu1 O5)n'
_symmetry_cell_setting           tetragonal
_symmetry_space_group_name_H-M   'I 41'
_symmetry_Int_Tables_number      80
_space_group_name_Hall           'I 4bw'
loop_
_symmetry_equiv_pos_site_id
_symmetry_equiv_pos_as_xyz
1 x,y,z
2 1/2-x,1/2-y,1/2+z
3 -y,1/2+x,1/4+z
4 1/2+y,-x,3/4+z
5 1/2+x,1/2+y,1/2+z
6 -x,-y,z
7 1/2-y,x,3/4+z
8 y,1/2-x,1/4+z
_cell_length_a                   18.119(5)
_cell_length_b                   18.119(5)
_cell_length_c                   12.935(5)
_cell_angle_alpha                90
_cell_angle_beta                 90
_cell_angle_gamma                90
_cell_volume                     4246.54
loop_
_atom_site_label
_atom_site_type_symbol
_atom_site_fract_x
_atom_site_fract_y
_atom_site_fract_z
_atom_site_U_iso_or_equiv
_atom_site_thermal_displace_type
Cu1 Cu 1.03859(5) 0.56162(5) 1.09725(7) 0.0357 Uani
O1 O 1.0954(5) 0.6650(5) 1.0975(12) 0.0937 Uani
O2 O 0.9579(4) 0.5899(3) 0.9986(5) 0.0457 Uani
O3 O 0.9074(4) 0.4809(4) 0.9835(5) 0.0500 Uani
O4 O 0.5888(3) 0.5242(3) 0.4662(5) 0.0433 Uani
O5 O 0.4974(3) 0.6030(3) 0.4425(5) 0.0423 Uani
C1 C 0.9122(5) 0.5494(5) 0.9592(7) 0.0383 Uani
C2 C 0.8567(5) 0.5758(5) 0.8896(8) 0.0470 Uani
C3 C 0.7925(5) 0.5358(5) 0.8698(7) 0.0500 Uani
H1 H 0.7862 0.4903 0.9018 0.0600 Uiso
C4 C 0.7375(6) 0.5616(6) 0.8038(8) 0.0583 Uani
H2 H 0.6955 0.5330 0.7932 0.0700 Uiso
C5 C 0.7439(5) 0.6284(5) 0.7537(7) 0.0443 Uani
C6 C 0.8096(5) 0.6713(5) 0.7744(7) 0.0443 Uani
H3 H 0.8161 0.7168 0.7424 0.0530 Uiso
C7 C 0.8624(5) 0.6449(5) 0.8415(9) 0.0503 Uani
H4 H 0.9035 0.6741 0.8554 0.0600 Uiso
C8 C 0.6903(5) 0.6582(5) 0.6803(7) 0.0407 Uani
C9 C 0.6698(5) 0.7306(5) 0.6787(7) 0.0427 Uani
H5 H 0.6935 0.7627 0.7239 0.0510 Uiso
C10 C 0.6160(5) 0.7594(5) 0.6144(8) 0.0520 Uani
H6 H 0.6060 0.8097 0.6128 0.0620 Uiso
C11 C 0.5782(5) 0.7106(5) 0.5531(7) 0.0420 Uani
H7 H 0.5403 0.7271 0.5104 0.0500 Uiso
C12 C 0.5965(4) 0.6378(5) 0.5552(7) 0.0390 Uani
C13 C 0.6501(5) 0.6102(5) 0.6206(6) 0.0407 Uani
H8 H 0.6589 0.5597 0.6241 0.0490 Uiso
C14 C 0.5576(5) 0.5830(5) 0.4796(7) 0.0357 Uani
H9 H 1.104(6) 0.7115(14) 1.098(18) 0.1400 Uiso
H10 H 1.139(3) 0.646(5) 1.100(14) 0.0800 Uiso
Cu1E Cu 0.96141(5) 0.43838(5) 1.09725(7) 0.0357 Uani
Cu1G Cu 0.56162(5) 0.46141(5) 0.34725(7) 0.0357 Uani
Cu1B Cu 0.43838(5) 0.53859(5) 0.34725(7) 0.0357 Uani
O3E O 1.0926(4) 0.5191(4) 0.9835(5) 0.0500 Uani
O4F O 0.9758(3) 0.5888(3) 1.2162(5) 0.0433 Uani
O5C O 1.1030(3) 0.5026(3) 1.1925(5) 0.0423 Uani
loop_
_atom_site_aniso_label
_atom_site_aniso_U_11
_atom_site_aniso_U_22
_atom_site_aniso_U_33
_atom_site_aniso_U_23
_atom_site_aniso_U_13
_atom_site_aniso_U_12
Cu1 0.0349(5) 0.0361(5) 0.0362(5) 0.0004(4) 0.0006(4) 0.0024(4)
O1 0.087(6) 0.065(5) 0.129(8) -0.005(7) 0.001(8) -0.009(4)
O2 0.050(4) 0.040(3) 0.047(3) -0.005(3) -0.003(3) 0.004(3)
O3 0.058(4) 0.049(4) 0.043(4) -0.007(3) -0.003(3) 0.006(3)
O4 0.045(3) 0.044(3) 0.041(3) -0.006(3) -0.007(3) 0.005(3)
O5 0.043(3) 0.043(3) 0.041(3) -0.002(3) -0.008(3) 0.003(3)
C1 0.038(4) 0.038(5) 0.039(5) -0.004(4) 0.007(4) 0.008(4)
C2 0.051(5) 0.039(5) 0.051(5) -0.005(4) 0.000(4) -0.001(4)
C3 0.059(5) 0.046(5) 0.045(6) 0.011(4) -0.016(4) -0.001(4)
C4 0.050(5) 0.063(6) 0.062(6) 0.001(5) -0.011(5) -0.011(5)
C5 0.052(5) 0.038(5) 0.043(5) -0.002(4) -0.019(4) -0.003(4)
C6 0.045(5) 0.042(5) 0.046(5) 0.002(4) -0.010(4) -0.003(4)
C7 0.045(4) 0.060(5) 0.046(5) 0.003(5) 0.009(5) -0.013(4)
C8 0.038(4) 0.042(5) 0.042(5) -0.006(4) 0.002(3) 0.001(4)
C9 0.044(5) 0.040(4) 0.044(5) 0.001(4) -0.008(4) -0.007(4)
C10 0.056(5) 0.046(5) 0.054(6) -0.001(4) -0.003(4) 0.010(4)
C11 0.038(4) 0.042(5) 0.046(5) -0.005(4) -0.008(4) 0.009(4)
C12 0.032(4) 0.043(4) 0.042(4) -0.003(4) -0.004(3) 0.001(3)
C13 0.045(4) 0.038(4) 0.039(5) -0.006(3) -0.004(4) 0.001(3)
C14 0.044(5) 0.032(4) 0.031(4) 0.002(3) -0.002(3) -0.014(4)
Cu1E 0.0349 0.0361 0.0362 -0.0004 -0.0006 0.0024
Cu1G 0.0361 0.0349 0.0362 -0.0006 0.0004 -0.0024
Cu1B 0.0361 0.0349 0.0362 0.0006 -0.0004 -0.0024
O3E 0.058 0.049 0.043 0.007 0.003 0.006
O4F 0.044 0.045 0.041 -0.007 0.006 -0.005
O5C 0.043 0.043 0.041 0.008 -0.002 -0.003
loop_
_geom_bond_atom_site_label_1
_geom_bond_atom_site_label_2
_geom_bond_site_symmetry_1
_geom_bond_site_symmetry_2
Cu1 O1 1_555 1_555
O1 H9 1_555 1_555
O2 Cu1 1_555 1_555
O3 C1 1_555 1_555
O4 C14 1_555 1_555
O5 C14 1_555 1_555
C1 O2 1_555 1_555
C2 C1 1_555 1_555
C3 C2 1_555 1_555
H1 C3 1_555 1_555
C4 C3 1_555 1_555
H2 C4 1_555 1_555
C5 C4 1_555 1_555
C6 C5 1_555 1_555
H3 C6 1_555 1_555
C7 C2 1_555 1_555
H4 C7 1_555 1_555
C8 C5 1_555 1_555
C9 C8 1_555 1_555
H5 C9 1_555 1_555
C10 C9 1_555 1_555
H6 C10 1_555 1_555
C11 C10 1_555 1_555
H7 C11 1_555 1_555
C12 C11 1_555 1_555
C13 C8 1_555 1_555
H8 C13 1_555 1_555
C14 C12 1_555 1_555
H10 O1 1_555 1_555
Cu1E O3 1_555 1_555
Cu1G O4 1_555 1_555
Cu1B O5 1_555 1_555
O3E Cu1 1_555 1_555
O4F Cu1 1_555 1_555
O5C Cu1 1_555 1_555
C6 C7 1_555 1_555
C12 C13 1_555 1_555

#END
