
#######################################################################
#
#                 Cambridge Crystallographic Data Centre
#                                CCDC 
#
#######################################################################
#
# If this CIF has been generated from an entry in the Cambridge 
# Structural Database, then it will include bibliographic, chemical, 
# crystal, experimental, refinement or atomic coordinate data resulting 
# from the CCDC's data processing and validation procedures.
#
#######################################################################

data_GUPCUQ01
_chemical_formula_moiety         '(C6 H4 Cd1 N6 O4)n'
_symmetry_cell_setting           cubic
_symmetry_space_group_name_H-M   'I -4 3 m'
_symmetry_Int_Tables_number      217
_space_group_name_Hall           'I -4 2 3'
loop_
_symmetry_equiv_pos_site_id
_symmetry_equiv_pos_as_xyz
1 x,y,z
2 -x,-y,z
3 -x,y,-z
4 x,-y,-z
5 z,x,y
6 z,-x,-y
7 -z,-x,y
8 -z,x,-y
9 y,z,x
10 -y,z,-x
11 y,-z,-x
12 -y,-z,x
13 y,x,z
14 -y,-x,z
15 y,-x,-z
16 -y,x,-z
17 x,z,y
18 -x,z,-y
19 -x,-z,y
20 x,-z,-y
21 z,y,x
22 z,-y,-x
23 -z,y,-x
24 -z,-y,x
25 1/2+x,1/2+y,1/2+z
26 1/2-x,1/2-y,1/2+z
27 1/2-x,1/2+y,1/2-z
28 1/2+x,1/2-y,1/2-z
29 1/2+z,1/2+x,1/2+y
30 1/2+z,1/2-x,1/2-y
31 1/2-z,1/2-x,1/2+y
32 1/2-z,1/2+x,1/2-y
33 1/2+y,1/2+z,1/2+x
34 1/2-y,1/2+z,1/2-x
35 1/2+y,1/2-z,1/2-x
36 1/2-y,1/2-z,1/2+x
37 1/2+y,1/2+x,1/2+z
38 1/2-y,1/2-x,1/2+z
39 1/2+y,1/2-x,1/2-z
40 1/2-y,1/2+x,1/2-z
41 1/2+x,1/2+z,1/2+y
42 1/2-x,1/2+z,1/2-y
43 1/2-x,1/2-z,1/2+y
44 1/2+x,1/2-z,1/2-y
45 1/2+z,1/2+y,1/2+x
46 1/2+z,1/2-y,1/2-x
47 1/2-z,1/2+y,1/2-x
48 1/2-z,1/2-y,1/2+x
_cell_length_a                   18.0772(6)
_cell_length_b                   18.0772(6)
_cell_length_c                   18.0772(6)
_cell_angle_alpha                90
_cell_angle_beta                 90
_cell_angle_gamma                90
_cell_volume                     5907.36
loop_
_atom_site_label
_atom_site_type_symbol
_atom_site_fract_x
_atom_site_fract_y
_atom_site_fract_z
_atom_site_U_iso_or_equiv
_atom_site_thermal_displace_type
Cd1 Cd 0.0000 0.2500 0.5000 0.0645 Uani
N1 N -0.0213(2) 0.3014(2) 0.3889(3) 0.0760 Uani
N2 N 0.0560(4) 0.4069(3) 0.4069(3) 0.0703 Uani
C1 C 0.0039(7) 0.3659(2) 0.3659(2) 0.0618 Uani
C2 C -0.0683(5) 0.2817(4) 0.3344(4) 0.1087 Uani
H1 H -0.0963 0.2386 0.3334 0.1310 Uiso
O1 O 0.0773(3) 0.4663(2) 0.3810(2) 0.0900 Uani
Cd1P Cd 0.0000 0.5000 0.2500 0.0645 Uani
Cd1Q Cd 0.0000 0.5000 0.7500 0.0645 Uani
N1P N -0.0213(2) 0.3889(3) 0.3014(2) 0.0760 Uani
N1B N 0.0213(2) 0.3014(2) 0.6111(3) 0.0760 Uani
N1Q N 0.0213(2) 0.3889(3) 0.6986(2) 0.0760 Uani
N1SA N -0.1111(3) 0.1986(2) 0.5213(2) 0.0760 Uani
N1UA N 0.1111(3) 0.1986(2) 0.4787(2) 0.0760 Uani
N2B N -0.0560(4) 0.4069(3) 0.5931(3) 0.0703 Uani
C1B C -0.0039(7) 0.3659(2) 0.6341(2) 0.0618 Uani
C2P C -0.0683(5) 0.3344(4) 0.2817(4) 0.1087 Uani
C2B C 0.0683(5) 0.2817(4) 0.6656(4) 0.1087 Uani
C2Q C 0.0683(5) 0.3344(4) 0.7183(4) 0.1087 Uani
H1P H -0.0963 0.3334 0.2386 0.1310 Uiso
H1B H 0.0963 0.2386 0.6666 0.1310 Uiso
H1Q H 0.0963 0.3334 0.7614 0.1310 Uiso
O1P O 0.0773(3) 0.3810(2) 0.4663(2) 0.0900 Uani
O1B O -0.0773(3) 0.4663(2) 0.6190(2) 0.0900 Uani
O1Q O -0.0773(3) 0.3810(2) 0.5337(2) 0.0900 Uani
loop_
_atom_site_aniso_label
_atom_site_aniso_U_11
_atom_site_aniso_U_22
_atom_site_aniso_U_33
_atom_site_aniso_U_23
_atom_site_aniso_U_13
_atom_site_aniso_U_12
Cd1 0.0681(3) 0.0574(4) 0.0681(3) 0.000 0.000 0.000
N1 0.092(4) 0.062(2) 0.074(2) 0.0039(18) -0.009(2) -0.0099(18)
N2 0.071(4) 0.070(2) 0.070(2) 0.005(3) -0.006(2) -0.006(2)
C1 0.063(3) 0.0612(17) 0.0612(17) 0.002(2) 0.000(4) 0.000(4)
C2 0.139(6) 0.087(4) 0.100(5) 0.015(3) -0.039(5) -0.042(4)
O1 0.096(3) 0.084(2) 0.090(3) 0.0151(19) -0.013(2) -0.031(2)
Cd1P 0.0681 0.0681 0.0574 0 0 0
Cd1Q 0.0681 0.0681 0.0574 0 0 0
N1P 0.092 0.074 0.062 0.0039 -0.0099 -0.009
N1B 0.092 0.062 0.074 -0.0039 -0.009 0.0099
N1Q 0.092 0.074 0.062 -0.0039 -0.0099 0.009
N1SA 0.074 0.062 0.092 -0.0099 0.009 -0.0039
N1UA 0.074 0.062 0.092 0.0099 0.009 0.0039
N2B 0.071 0.07 0.07 -0.005 -0.006 0.006
C1B 0.063 0.0612 0.0612 -0.002 0 0
C2P 0.139 0.1 0.087 0.015 -0.042 -0.039
C2B 0.139 0.087 0.1 -0.015 -0.039 0.042
C2Q 0.139 0.1 0.087 -0.015 -0.042 0.039
O1P 0.096 0.09 0.084 0.0151 -0.031 -0.013
O1B 0.096 0.084 0.09 -0.0151 -0.013 0.031
O1Q 0.096 0.09 0.084 -0.0151 -0.031 0.013
loop_
_geom_bond_atom_site_label_1
_geom_bond_atom_site_label_2
_geom_bond_site_symmetry_1
_geom_bond_site_symmetry_2
Cd1 N1 1_555 1_555
N1 C1 1_555 1_555
N2 C1 1_555 1_555
C1 N1P 1_555 1_555
C2 N1 1_555 1_555
H1 C2 1_555 1_555
O1 N2 1_555 1_555
Cd1P N1P 1_555 1_555
Cd1Q N1Q 1_555 1_555
N1P C2P 1_555 1_555
N1B Cd1 1_555 1_555
N1Q C1B 1_555 1_555
N1SA Cd1 1_555 1_555
N1UA Cd1 1_555 1_555
N2B C1B 1_555 1_555
C1B N1B 1_555 1_555
C2P C2 1_555 1_555
C2B N1B 1_555 1_555
C2Q N1Q 1_555 1_555
H1P C2P 1_555 1_555
H1B C2B 1_555 1_555
H1Q C2Q 1_555 1_555
O1P N2 1_555 1_555
O1B N2B 1_555 1_555
O1Q N2B 1_555 1_555
C2B C2Q 1_555 1_555

#END
