
#######################################################################
#
#                 Cambridge Crystallographic Data Centre
#                                CCDC 
#
#######################################################################
#
# If this CIF has been generated from an entry in the Cambridge 
# Structural Database, then it will include bibliographic, chemical, 
# crystal, experimental, refinement or atomic coordinate data resulting 
# from the CCDC's data processing and validation procedures.
#
#######################################################################

data_PUPYAA
_chemical_formula_moiety         '(C2 H14 F2 Fe3 N2 O13 P3)n'
_symmetry_cell_setting           monoclinic
_symmetry_space_group_name_H-M   'P 21/n'
_symmetry_Int_Tables_number      14
_space_group_name_Hall           '-P 2yn'
loop_
_symmetry_equiv_pos_site_id
_symmetry_equiv_pos_as_xyz
1 x,y,z
2 1/2-x,1/2+y,1/2-z
3 -x,-y,-z
4 1/2+x,1/2-y,1/2+z
_cell_length_a                   8.8494(1)
_cell_length_b                   10.3728(1)
_cell_length_c                   16.9471(1)
_cell_angle_alpha                90
_cell_angle_beta                 92.869(1)
_cell_angle_gamma                90
_cell_volume                     1553.68
loop_
_atom_site_label
_atom_site_type_symbol
_atom_site_fract_x
_atom_site_fract_y
_atom_site_fract_z
O1 O -0.4952(1) 0.1829(1) 0.3078(1)
O2 O -0.0377(2) 0.3655(1) 0.1684(1)
O3 O -0.2851(2) 0.3420(1) 0.2355(1)
O4 O -0.0367(2) 0.2974(1) 0.5036(1)
O5 O -0.1692(2) 0.5023(1) 0.4559(1)
O6 O -0.2710(2) 0.2932(1) 0.0890(1)
O7 O -0.5739(2) 0.1948(1) 0.1609(1)
O8 O -0.2397(2) 0.2861(1) 0.3972(1)
O9 O 0.0132(2) 0.3971(2) 0.3707(1)
O10 O -0.6766(2) 0.0170(1) 0.2458(1)
O11 O -0.2533(2) 0.5210(1) 0.1370(1)
O12 O -0.7544(2) 0.2484(1) 0.2638(1)
Fe1 Fe -0.2715(1) 0.1823(1) 0.3015(1)
Fe2 Fe 0.0707(1) 0.3492(1) 0.2685(1)
Fe3 Fe -0.4092(1) 0.1510(1) 0.0961(1)
P1 P -0.6228(1) 0.1584(1) 0.2443(1)
P2 P -0.2126(1) 0.3808(1) 0.1586(1)
P3 P -0.1083(1) 0.3688(1) 0.4316(1)
F1 F -0.0487(1) 0.1830(1) 0.2844(1)
F2 F -0.2945(1) 0.0894(1) 0.1972(1)
O11A O -0.2467(2) 0.0210(1) 0.3630(1)
Fe1A Fe -0.2285(1) 0.6823(1) 0.1985(1)
Fe2A Fe -0.5707(1) -0.1508(1) 0.2315(1)
Fe2_2 Fe -0.9293(1) 0.3492(1) 0.2685(1)
Fe3A Fe -0.0908(1) 0.6510(1) 0.4039(1)
Fe3C Fe 0.0908(1) 0.3490(1) 0.5961(1)
O10A O 0.1766(2) 0.5170(1) 0.2542(1)
O12_2 O 0.2456(2) 0.2484(1) 0.2638(1)
O4C O -0.5367(2) 0.2026(1) 0.0036(1)
O5A O -0.3308(2) 0.0023(1) 0.0441(1)
O13 O -0.5389(4) 0.1519(5) 0.4753(2)
N1 N -0.2475(3) 0.0936(3) 0.5450(2)
C1 C -0.1434(4) -0.0012(4) 0.5796(2)
H1 H -0.342(1) 0.065(2) 0.548(2)
H2 H -0.227(3) 0.106(3) 0.495(1)
H3 H -0.237(3) 0.168(1) 0.571(2)
H4 H -0.042(1) 0.032(2) 0.579(2)
H5 H -0.169(3) -0.018(3) 0.633(1)
H6 H -0.150(3) -0.079(1) 0.549(1)
N2 N -0.9877(2) -0.0220(2) 0.1778(1)
C2 C -0.9490(5) 0.0271(5) 0.1006(2)
H7 H -0.999(4) -0.107(1) 0.175(1)
H8 H -1.073(3) 0.014(3) 0.192(1)
H9 H -0.914(2) -0.003(4) 0.213(1)
H10 H -0.870(3) -0.025(2) 0.080(1)
H11 H -0.915(4) 0.115(1) 0.106(1)
H12 H -1.037(1) 0.024(4) 0.065(1)
loop_
_geom_bond_atom_site_label_1
_geom_bond_atom_site_label_2
_geom_bond_site_symmetry_1
_geom_bond_site_symmetry_2
O1 Fe1 1_555 1_555
O2 Fe2 1_555 1_555
O3 Fe1 1_555 1_555
O4 P3 1_555 1_555
O5 P3 1_555 1_555
O6 Fe3 1_555 1_555
O7 Fe3 1_555 1_555
O8 Fe1 1_555 1_555
O9 Fe2 1_555 1_555
O10 P1 1_555 1_555
O11 P2 1_555 1_555
O12 P1 1_555 1_555
Fe1 F1 1_555 1_555
Fe2 F1 1_555 1_555
Fe3 F2 1_555 1_555
P1 O1 1_555 1_555
P2 O2 1_555 1_555
P3 O8 1_555 1_555
F2 Fe1 1_555 1_555
N1 C1 1_555 1_555
C1 H4 1_555 1_555
H1 N1 1_555 1_555
H2 N1 1_555 1_555
H3 N1 1_555 1_555
H5 C1 1_555 1_555
H6 C1 1_555 1_555
N2 C2 1_555 1_555
C2 H10 1_555 1_555
H7 N2 1_555 1_555
H8 N2 1_555 1_555
H9 N2 1_555 1_555
H11 C2 1_555 1_555
H12 C2 1_555 1_555
O11A Fe1 1_555 1_555
Fe1A O11 1_555 1_555
Fe2A O10 1_555 1_555
Fe2_2 O12 1_555 1_555
Fe3A O5 1_555 1_555
Fe3C O4 1_555 1_555
O10A Fe2 1_555 1_555
O12_2 Fe2 1_555 1_555
O4C Fe3 1_555 1_555
O5A Fe3 1_555 1_555
O3 P2 1_555 1_555
O6 P2 1_555 1_555
O7 P1 1_555 1_555
O9 P3 1_555 1_555

#END
