
#######################################################################
#
#                 Cambridge Crystallographic Data Centre
#                                CCDC 
#
#######################################################################
#
# If this CIF has been generated from an entry in the Cambridge 
# Structural Database, then it will include bibliographic, chemical, 
# crystal, experimental, refinement or atomic coordinate data resulting 
# from the CCDC's data processing and validation procedures.
#
#######################################################################

data_PAGFUZ
_chemical_formula_moiety         '(C4 H20 N2 O14 P4 Zn3)n'
_symmetry_cell_setting           monoclinic
_symmetry_space_group_name_H-M   'P 21/c'
_symmetry_Int_Tables_number      14
_space_group_name_Hall           '-P 2ybc'
loop_
_symmetry_equiv_pos_site_id
_symmetry_equiv_pos_as_xyz
1 x,y,z
2 x,1/2-y,1/2+z
3 -x,-y,-z
4 -x,1/2+y,1/2-z
_cell_length_a                   7.2338(2)
_cell_length_b                   15.0238(5)
_cell_length_c                   9.2153(3)
_cell_angle_alpha                90
_cell_angle_beta                 107.741(2)
_cell_angle_gamma                90
_cell_volume                     953.883
loop_
_atom_site_label
_atom_site_type_symbol
_atom_site_fract_x
_atom_site_fract_y
_atom_site_fract_z
Zn1 Zn 0.48795(7) 0.23994(3) 0.02498(6)
Zn2 Zn 0.0000 0.5000 -0.5000
P1 P 0.23097(18) 0.34172(8) -0.27480(14)
H1 H 0.111(6) 0.281(3) -0.339(5)
P2 P -0.23333(17) 0.31754(8) -0.66470(13)
H2 H -0.154(6) 0.234(3) -0.612(5)
O1 O 0.3134(6) 0.3223(3) -0.1061(4)
O2 O -0.3137(5) 0.3142(3) -0.8387(4)
O3 O 0.3845(5) 0.3421(2) -0.3584(4)
O4 O -0.3926(5) 0.3368(2) -0.5912(4)
O5 O 0.1199(5) 0.4287(2) -0.2963(3)
O6 O -0.0662(4) 0.3812(2) -0.6178(3)
O7 O 0.2745(6) 0.4968(3) -0.5432(5)
H3 H 0.317(7) 0.539(4) -0.518(5)
H4 H 0.315(8) 0.464(4) -0.501(6)
P1B P -0.23097(18) 0.65828(8) -0.72520(14)
H1B H -0.111(6) 0.719(3) -0.661(5)
O1B O -0.3134(6) 0.6777(3) -0.8939(4)
O3B O -0.3845(5) 0.6579(2) -0.6416(4)
O5B O -0.1199(5) 0.5713(2) -0.7037(3)
P2B P 0.23333(17) 0.68246(8) -0.33530(13)
H2B H 0.154(6) 0.766(3) -0.388(5)
O2B O 0.3137(5) 0.6858(3) -0.1613(4)
O4B O 0.3926(5) 0.6632(2) -0.4088(4)
O6B O 0.0662(4) 0.6188(2) -0.3822(3)
O7B O -0.2745(6) 0.5032(3) -0.4568(5)
H3B H -0.317(7) 0.461(4) -0.482(5)
H4B H -0.315(8) 0.536(4) -0.499(6)
Zn1B Zn -0.48795(7) 0.76006(3) -1.02498(6)
O2_2 O 0.6863(5) 0.3142(3) 0.1613(4)
O3A O 0.3845(5) 0.1579(2) 0.1416(4)
O4A O 0.6074(5) 0.1632(2) -0.0912(4)
Zn1_2 Zn -0.51205(7) 0.23994(3) -0.97502(6)
Zn1A Zn 0.48795(7) 0.26006(3) -0.47502(6)
Zn1A_2 Zn -0.51205(7) 0.26006(3) -0.47502(6)
Zn1C Zn -0.48795(7) 0.73994(3) -0.52498(6)
Zn1B_2 Zn 0.51205(7) 0.76006(3) -0.02498(6)
Zn1C_2 Zn 0.51205(7) 0.73994(3) -0.52498(6)
O2B_2 O -0.6863(5) 0.6858(3) -1.1613(4)
O3C O -0.3845(5) 0.8421(2) -1.1416(4)
O4C O -0.6074(5) 0.8368(2) -0.9088(4)
N1 N 0.1177(6) 0.5459(3) -0.0741(4)
H5 H 0.1862 0.5941 -0.0847
H6 H 0.1246 0.5057 -0.1446
C1 C -0.0885(8) 0.5718(3) -0.1009(6)
H7 H -0.1416 0.5950 -0.2034
H8 H -0.0960 0.6182 -0.0298
C2 C 0.2051(8) 0.5074(4) 0.0806(6)
H9 H 0.3378 0.4895 0.0931
H10 H 0.2068 0.5519 0.1573
C2B C -0.2051(8) 0.4926(4) -0.0806(6)
N1B N -0.1177(6) 0.4541(3) 0.0741(4)
H5B H -0.1862 0.4059 0.0847
H6B H -0.1246 0.4943 0.1446
C1B C 0.0885(8) 0.4282(3) 0.1009(6)
H7B H 0.1416 0.4050 0.2034
H8B H 0.0960 0.3818 0.0298
H9B H -0.3378 0.5105 -0.0931
H10B H -0.2068 0.4481 -0.1573
loop_
_geom_bond_atom_site_label_1
_geom_bond_atom_site_label_2
_geom_bond_site_symmetry_1
_geom_bond_site_symmetry_2
Zn1 O1 1_555 1_555
Zn2 O5 1_555 1_555
P1 H1 1_555 1_555
P2 H2 1_555 1_555
O1 P1 1_555 1_555
O2 P2 1_555 1_555
O3 P1 1_555 1_555
O4 P2 1_555 1_555
O5 P1 1_555 1_555
O6 Zn2 1_555 1_555
O7 Zn2 1_555 1_555
H3 O7 1_555 1_555
H4 O7 1_555 1_555
N1 H5 1_555 1_555
H6 N1 1_555 1_555
C1 N1 1_555 1_555
H7 C1 1_555 1_555
H8 C1 1_555 1_555
C2 N1 1_555 1_555
H9 C2 1_555 1_555
H10 C2 1_555 1_555
C2B C1 1_555 1_555
N1B C2B 1_555 1_555
H5B N1B 1_555 1_555
H6B N1B 1_555 1_555
C1B C2 1_555 1_555
H7B C1B 1_555 1_555
H8B C1B 1_555 1_555
H9B C2B 1_555 1_555
H10B C2B 1_555 1_555
P1B H1B 1_555 1_555
O1B P1B 1_555 1_555
O3B P1B 1_555 1_555
O5B Zn2 1_555 1_555
P2B H2B 1_555 1_555
O2B P2B 1_555 1_555
O4B P2B 1_555 1_555
O6B Zn2 1_555 1_555
O7B Zn2 1_555 1_555
H3B O7B 1_555 1_555
H4B O7B 1_555 1_555
Zn1B O1B 1_555 1_555
O2_2 Zn1 1_555 1_555
O3A Zn1 1_555 1_555
O4A Zn1 1_555 1_555
Zn1_2 O2 1_555 1_555
Zn1A O3 1_555 1_555
Zn1A_2 O4 1_555 1_555
Zn1C O3B 1_555 1_555
Zn1B_2 O2B 1_555 1_555
Zn1C_2 O4B 1_555 1_555
O2B_2 Zn1B 1_555 1_555
O3C Zn1B 1_555 1_555
O4C Zn1B 1_555 1_555
P2 O6 1_555 1_555
N1B C1B 1_555 1_555
P1B O5B 1_555 1_555
P2B O6B 1_555 1_555

#END
