
#######################################################################
#
#                 Cambridge Crystallographic Data Centre
#                                CCDC 
#
#######################################################################
#
# If this CIF has been generated from an entry in the Cambridge 
# Structural Database, then it will include bibliographic, chemical, 
# crystal, experimental, refinement or atomic coordinate data resulting 
# from the CCDC's data processing and validation procedures.
#
#######################################################################

data_UMUTOM
_chemical_formula_moiety         '(C40 H34 Eu5 N5 O42)n'
_symmetry_cell_setting           triclinic
_symmetry_space_group_name_H-M   'P -1'
_symmetry_Int_Tables_number      2
_space_group_name_Hall           '-P 1'
loop_
_symmetry_equiv_pos_site_id
_symmetry_equiv_pos_as_xyz
1 x,y,z
2 -x,-y,-z
_cell_length_a                   9.3669(5)
_cell_length_b                   14.1543(8)
_cell_length_c                   21.7897(13)
_cell_angle_alpha                95.0750(10)
_cell_angle_beta                 94.3150(10)
_cell_angle_gamma                104.7230(10)
_cell_volume                     2768.76
loop_
_atom_site_label
_atom_site_type_symbol
_atom_site_fract_x
_atom_site_fract_y
_atom_site_fract_z
Eu1 Eu 1.56814(4) 1.28786(3) 0.096816(15)
Eu2 Eu 1.15073(4) 0.93115(3) 0.220717(15)
Eu3 Eu 1.76143(4) 1.17086(2) 0.381880(14)
Eu4 Eu 2.21148(4) 1.61275(3) 0.439870(15)
Eu5 Eu 1.92311(4) 1.69149(3) 0.062920(16)
O1 O 1.3748(6) 1.1441(4) 0.1214(2)
O2 O 1.3059(6) 0.9858(4) 0.1381(2)
O3 O 1.5808(6) 0.7738(4) -0.0007(2)
O4 O 1.8128(6) 0.8251(4) 0.0435(3)
O5 O 1.9357(6) 1.2040(4) 0.0001(3)
O6 O 1.8050(6) 1.2838(4) 0.0569(3)
O7 O 1.6649(6) 1.2303(4) 0.1900(2)
O8 O 1.6536(6) 1.2020(4) 0.2880(2)
O9 O 1.4682(8) 1.4581(5) 0.4203(3)
O10 O 1.3499(7) 1.5502(5) 0.3702(3)
O11 O 1.2524(8) 1.4765(6) 0.1323(3)
O12 O 1.3924(6) 1.3861(4) 0.0918(2)
O13 O 1.1206(5) 0.7864(4) 0.1447(2)
O14 O 1.2090(6) 0.6853(4) 0.0847(2)
O15 O 1.7773(6) 0.7149(4) 0.1447(2)
O16 O 1.8903(6) 0.8310(4) 0.2198(3)
O17 O 1.5870(5) 1.0205(4) 0.3377(2)
O18 O 1.3694(6) 1.0156(4) 0.2864(2)
O19 O 0.8921(5) 1.0828(4) 0.3176(2)
O20 O 1.0691(6) 1.0057(4) 0.3072(2)
O21 O 1.5654(6) 1.2130(4) 0.4238(2)
O22 O 1.5520(5) 1.2888(4) 0.5167(2)
O23 O 1.0440(5) 1.3652(4) 0.5457(2)
O24 O 0.8574(5) 1.2688(4) 0.4830(2)
O25 O 2.2272(6) 1.7500(4) 0.3797(2)
O26 O 2.1548(6) 1.8159(4) 0.2976(2)
O27 O 1.9103(6) 1.5545(4) 0.1130(2)
O28 O 1.7422(6) 1.4296(4) 0.1432(2)
O29 O 1.9001(6) 1.3266(4) 0.3546(2)
O30 O 2.0568(6) 1.4472(4) 0.4182(2)
O31 O 1.6288(6) 1.3944(4) 0.0064(2)
O32 O 1.1874(8) 1.1182(5) 0.2162(3)
O33 O 0.9866(7) 0.9709(5) 0.1372(3)
O34 O 1.7440(8) 1.0483(5) 0.4536(3)
O35 O 2.2593(6) 1.5340(4) 0.5291(3)
O36 O 1.6760(5) 1.5965(4) 0.0229(2)
O37 O 1.9415(6) 1.5814(5) -0.0263(3)
N1 N 1.6142(6) 1.1202(4) 0.0722(3)
N2 N 1.4804(7) 1.3412(5) 0.1980(3)
N3 N 1.3718(6) 0.8578(4) 0.2143(3)
N4 N 1.0290(6) 1.1868(4) 0.4197(3)
N5 N 2.0612(6) 1.5745(4) 0.3381(2)
C1 C 1.5184(7) 1.0393(5) 0.0852(3)
C2 C 1.5386(8) 0.9459(6) 0.0705(3)
H1 H 1.4676 0.8901 0.0779
C3 C 1.6650(8) 0.9376(5) 0.0449(3)
C4 C 1.7655(8) 1.0221(5) 0.0325(3)
H2 H 1.8524 1.0189 0.0153
C5 C 1.7342(8) 1.1111(5) 0.0461(3)
C6 C 1.3872(8) 1.0574(5) 0.1177(3)
C7 C 1.6882(8) 0.8370(5) 0.0280(3)
C8 C 1.8347(8) 1.2072(6) 0.0332(3)
C9 C 1.5324(8) 1.3173(6) 0.2512(3)
C10 C 1.5124(9) 1.3593(6) 0.3090(3)
H3 H 1.5491 1.3397 0.3452
C11 C 1.4352(9) 1.4320(6) 0.3109(3)
C12 C 1.3764(10) 1.4544(7) 0.2554(3)
H4 H 1.3215 1.5007 0.2552
C13 C 1.4000(10) 1.4075(6) 0.2004(3)
C14 C 1.6239(7) 1.2428(5) 0.2433(3)
C15 C 1.4169(9) 1.4827(7) 0.3729(4)
C16 C 1.3421(11) 1.4275(7) 0.1368(4)
C17 C 1.3710(8) 0.7843(5) 0.1718(3)
C18 C 1.4986(8) 0.7522(5) 0.1626(3)
H5 H 1.4951 0.7003 0.1327
C19 C 1.6308(8) 0.7994(6) 0.1990(3)
C20 C 1.6281(8) 0.8751(5) 0.2445(3)
H6 H 1.7135 0.9078 0.2701
C21 C 1.4955(8) 0.9008(5) 0.2509(3)
C22 C 1.2248(7) 0.7479(5) 0.1309(3)
C23 C 1.7780(8) 0.7801(6) 0.1870(3)
C24 C 1.4826(7) 0.9863(5) 0.2955(3)
C25 C 1.1084(7) 1.1390(5) 0.3872(3)
C26 C 1.2594(8) 1.1536(6) 0.3999(3)
H7 H 1.3122 1.1199 0.3757
C27 C 1.3296(7) 1.2204(6) 0.4503(3)
C28 C 1.2485(8) 1.2703(5) 0.4855(3)
H8 H 1.2943 1.3153 0.5194
C29 C 1.0981(7) 1.2510(5) 0.4688(3)
C30 C 1.0178(8) 1.0708(5) 0.3330(3)
C31 C 1.4961(8) 1.2427(5) 0.4652(3)
C32 C 0.9960(8) 1.2987(5) 0.5018(3)
C33 C 2.0693(7) 1.6435(5) 0.2993(3)
C34 C 2.0024(8) 1.6227(5) 0.2394(3)
H9 H 2.0084 1.6721 0.2135
C35 C 1.9255(8) 1.5257(5) 0.2185(3)
C36 C 1.9142(8) 1.4543(5) 0.2585(3)
H10 H 1.8613 1.3895 0.2460
C37 C 1.9845(8) 1.4827(5) 0.3181(3)
C38 C 2.1573(7) 1.7451(5) 0.3270(3)
C39 C 1.8540(8) 1.5010(5) 0.1523(3)
C40 C 1.9794(8) 1.4119(5) 0.3675(3)
Eu1A Eu 1.43186(4) 0.71214(3) -0.096816(15)
Eu2_2 Eu 2.15073(4) 0.93115(3) 0.220717(15)
Eu2_3 Eu 2.15073(4) 1.93115(3) 0.220717(15)
Eu3_2 Eu 0.76143(4) 1.17086(2) 0.381880(14)
Eu4_2 Eu 1.21148(4) 1.61275(3) 0.439870(15)
Eu4A Eu 1.78852(4) 1.38725(3) 0.560130(15)
Eu4A_2 Eu 0.78852(4) 1.38725(3) 0.560130(15)
Eu5_2 Eu 1.92311(4) 0.69149(3) 0.062920(16)
Eu5A Eu 2.07689(4) 1.30851(3) -0.062920(16)
Eu5_3 Eu 0.92311(4) 0.69149(3) 0.062920(16)
O3A O 1.4192(6) 1.2262(4) 0.0007(2)
O4_2 O 1.8128(6) 1.8251(4) 0.0435(3)
O5A O 2.0643(6) 1.7960(4) -0.0001(3)
O10_2 O 2.3499(7) 1.5502(5) 0.3702(3)
O13_2 O 2.1206(5) 1.7864(4) 0.1447(2)
O14_2 O 2.2090(6) 1.6853(4) 0.0847(2)
O15_2 O 1.7773(6) 1.7149(4) 0.1447(2)
O16_2 O 0.8903(6) 0.8310(4) 0.2198(3)
O19_2 O 1.8921(5) 1.0828(4) 0.3176(2)
O22A O 2.4480(5) 1.7112(4) 0.4833(2)
O23A O 1.9560(5) 1.6348(4) 0.4543(2)
O24_2 O 1.8574(5) 1.2688(4) 0.4830(2)
O24A O 2.1426(5) 1.7312(4) 0.5170(2)
O26_2 O 1.1548(6) 0.8159(4) 0.2976(2)
N4_2 N 2.0290(6) 1.1868(4) 0.4197(3)
O38 O 1.8391(10) 1.0936(7) 0.1914(4)
O39 O 0.4006(19) 0.9314(12) 0.4417(7)
O40 O 1.126(3) 1.1894(17) 0.6348(10)
O41 O 1.385(2) 1.1618(15) 0.6039(9)
O42 O 0.979(5) 0.940(3) 0.4480(18)
loop_
_geom_bond_atom_site_label_1
_geom_bond_atom_site_label_2
_geom_bond_site_symmetry_1
_geom_bond_site_symmetry_2
Eu1 O1 1_555 1_555
Eu2 O2 1_555 1_555
Eu3 O8 1_555 1_555
Eu4 O25 1_555 1_555
Eu5 O27 1_555 1_555
O1 C6 1_555 1_555
O2 C6 1_555 1_555
O3 C7 1_555 1_555
O4 C7 1_555 1_555
O5 C8 1_555 1_555
O6 Eu1 1_555 1_555
O7 Eu1 1_555 1_555
O8 C14 1_555 1_555
O9 C15 1_555 1_555
O10 C15 1_555 1_555
O11 C16 1_555 1_555
O12 Eu1 1_555 1_555
O13 Eu2 1_555 1_555
O14 C22 1_555 1_555
O15 C23 1_555 1_555
O16 C23 1_555 1_555
O17 Eu3 1_555 1_555
O18 Eu2 1_555 1_555
O19 C30 1_555 1_555
O20 Eu2 1_555 1_555
O21 Eu3 1_555 1_555
O22 C31 1_555 1_555
O23 C32 1_555 1_555
O24 C32 1_555 1_555
O25 C38 1_555 1_555
O26 C38 1_555 1_555
O27 C39 1_555 1_555
O28 Eu1 1_555 1_555
O29 Eu3 1_555 1_555
O30 Eu4 1_555 1_555
O31 Eu1 1_555 1_555
O32 Eu2 1_555 1_555
O33 Eu2 1_555 1_555
O34 Eu3 1_555 1_555
O35 Eu4 1_555 1_555
O36 Eu5 1_555 1_555
O37 Eu5 1_555 1_555
N1 Eu1 1_555 1_555
N2 Eu1 1_555 1_555
N3 Eu2 1_555 1_555
N4 C25 1_555 1_555
N5 Eu4 1_555 1_555
C1 N1 1_555 1_555
C2 C1 1_555 1_555
H1 C2 1_555 1_555
C3 C2 1_555 1_555
C4 C3 1_555 1_555
H2 C4 1_555 1_555
C5 N1 1_555 1_555
C6 C1 1_555 1_555
C7 C3 1_555 1_555
C8 O6 1_555 1_555
C9 N2 1_555 1_555
C10 C9 1_555 1_555
H3 C10 1_555 1_555
C11 C10 1_555 1_555
C12 C11 1_555 1_555
H4 C12 1_555 1_555
C13 N2 1_555 1_555
C14 O7 1_555 1_555
C15 C11 1_555 1_555
C16 O12 1_555 1_555
C17 N3 1_555 1_555
C18 C17 1_555 1_555
H5 C18 1_555 1_555
C19 C18 1_555 1_555
C20 C19 1_555 1_555
H6 C20 1_555 1_555
C21 N3 1_555 1_555
C22 O13 1_555 1_555
C23 C19 1_555 1_555
C24 O17 1_555 1_555
C25 C26 1_555 1_555
C26 H7 1_555 1_555
C27 C26 1_555 1_555
C28 C27 1_555 1_555
H8 C28 1_555 1_555
C29 N4 1_555 1_555
C30 O20 1_555 1_555
C31 O21 1_555 1_555
C32 C29 1_555 1_555
C33 N5 1_555 1_555
C34 C33 1_555 1_555
H9 C34 1_555 1_555
C35 C34 1_555 1_555
C36 C35 1_555 1_555
H10 C36 1_555 1_555
C37 N5 1_555 1_555
C38 C33 1_555 1_555
C39 O28 1_555 1_555
C40 O29 1_555 1_555
Eu1A O3 1_555 1_555
Eu2_2 O16 1_555 1_555
Eu2_3 O26 1_555 1_555
Eu3_2 O19 1_555 1_555
Eu4_2 O10 1_555 1_555
Eu4A O22 1_555 1_555
Eu4A_2 O23 1_555 1_555
Eu5_2 O4 1_555 1_555
Eu5A O5 1_555 1_555
Eu5_3 O13 1_555 1_555
O3A Eu1 1_555 1_555
O4_2 Eu5 1_555 1_555
O5A Eu5 1_555 1_555
O10_2 Eu4 1_555 1_555
O13_2 Eu5 1_555 1_555
O14_2 Eu5 1_555 1_555
O15_2 Eu5 1_555 1_555
O16_2 Eu2 1_555 1_555
O19_2 Eu3 1_555 1_555
O22A Eu4 1_555 1_555
O23A Eu4 1_555 1_555
O24_2 Eu3 1_555 1_555
O24A Eu4 1_555 1_555
O26_2 Eu2 1_555 1_555
N4_2 Eu3 1_555 1_555
O14 Eu5_3 1_555 1_555
O15 Eu5_2 1_555 1_555
O18 C24 1_555 1_555
O24 Eu3_2 1_555 1_555
O24 Eu4A_2 1_555 1_555
O30 C40 1_555 1_555
N4 Eu3_2 1_555 1_555
C4 C5 1_555 1_555
C5 C8 1_555 1_555
C9 C14 1_555 1_555
C12 C13 1_555 1_555
C13 C16 1_555 1_555
C17 C22 1_555 1_555
C20 C21 1_555 1_555
C21 C24 1_555 1_555
C25 C30 1_555 1_555
C27 C31 1_555 1_555
C28 C29 1_555 1_555
C35 C39 1_555 1_555
C36 C37 1_555 1_555
C37 C40 1_555 1_555
Eu2_3 O13_2 1_555 1_555
Eu4A O24_2 1_555 1_555

#END
