
#######################################################################
#
#                 Cambridge Crystallographic Data Centre
#                                CCDC 
#
#######################################################################
#
# If this CIF has been generated from an entry in the Cambridge 
# Structural Database, then it will include bibliographic, chemical, 
# crystal, experimental, refinement or atomic coordinate data resulting 
# from the CCDC's data processing and validation procedures.
#
#######################################################################

data_PUPXII
_chemical_formula_moiety         '(C10 H11 Mn1 N3 O7)n'
_symmetry_cell_setting           monoclinic
_symmetry_space_group_name_H-M   'C c'
_symmetry_Int_Tables_number      9
_space_group_name_Hall           'C -2yc'
loop_
_symmetry_equiv_pos_site_id
_symmetry_equiv_pos_as_xyz
1 x,y,z
2 x,-y,1/2+z
3 1/2+x,1/2+y,z
4 1/2+x,1/2-y,1/2+z
_cell_length_a                   16.269(3)
_cell_length_b                   10.545(2)
_cell_length_c                   7.7563(16)
_cell_angle_alpha                90
_cell_angle_beta                 101.11(3)
_cell_angle_gamma                90
_cell_volume                     1305.71
loop_
_atom_site_label
_atom_site_type_symbol
_atom_site_fract_x
_atom_site_fract_y
_atom_site_fract_z
_atom_site_U_iso_or_equiv
_atom_site_thermal_displace_type
C1 C 0.1915(3) 0.5139(4) 0.7037(6) 0.0228 Uani
C2 C 0.1164(3) 0.5529(4) 0.5678(6) 0.0204 Uani
C3 C 0.1006(4) 0.8070(5) 0.5794(6) 0.0263 Uani
C4 C 0.0803(3) 0.6718(5) 0.5181(6) 0.0243 Uani
C5 C -0.1304(3) 0.5195(5) 0.1428(7) 0.0324 Uani
H1 H -0.1275 0.6072 0.1324 0.0390 Uiso
C6 C -0.1999(4) 0.4515(6) 0.0527(8) 0.0383 Uani
H2 H -0.2429 0.4965 -0.0174 0.0460 Uiso
C7 C -0.1425(4) 0.2609(6) 0.1617(8) 0.0363 Uani
H3 H -0.1459 0.1729 0.1660 0.0440 Uiso
C8 C -0.0717(3) 0.3187(5) 0.2565(7) 0.0306 Uani
H4 H -0.0294 0.2707 0.3238 0.0370 Uiso
C9 C -0.0650(3) 0.4515(5) 0.2493(7) 0.0260 Uani
C10 C 0.0074(3) 0.5170(5) 0.3612(6) 0.0228 Uani
Mn1 Mn 0.16670(6) 0.27884(6) 0.47499(8) 0.0228 Uani
N1 N 0.0705(3) 0.4575(4) 0.4655(5) 0.0239 Uani
N2 N 0.0116(3) 0.6464(4) 0.3888(5) 0.0244 Uani
H5 H -0.0229 0.7017 0.3345 0.0290 Uiso
N3 N -0.2075(3) 0.3246(5) 0.0626(7) 0.0347 Uani
O1 O 0.2121(2) 0.3991(3) 0.7025(5) 0.0328 Uani
O2 O 0.2292(2) 0.5970(3) 0.8088(5) 0.0292 Uani
O3 O 0.1256(3) 0.8285(3) 0.7409(5) 0.0342 Uani
O4 O 0.0881(3) 0.8902(4) 0.4595(5) 0.0501 Uani
O5 O 0.0994(3) 0.1381(3) 0.6010(5) 0.0406 Uani
H6 H 0.1305 0.0602 0.6142 0.0610 Uiso
H7 H 0.0934 0.1687 0.7145 0.0610 Uiso
Mn1C Mn -0.33330(6) 0.22116(6) -0.02501(8) 0.0228 Uani
Mn1A Mn 0.16670(6) 0.72116(6) 0.97499(8) 0.0228 Uani
N3C N 0.2925(3) 0.1754(5) 0.5626(7) 0.0347 Uani
O2A O 0.2292(2) 0.4030(3) 0.3088(5) 0.0292 Uani
O3A O 0.1256(3) 0.1715(3) 0.2409(5) 0.0342 Uani
O6 O 0.8969(6) 0.9709(10) 0.9652(14) 0.1215 Uani
H8 H 0.8944 1.0552 0.9813 0.1460 Uiso
H9 H 0.9469 0.9316 0.9811 0.1460 Uiso
O7 O 0.8919(5) 0.8243(7) 0.2374(13) 0.1085 Uani
H10 H 0.8946 0.9088 0.2230 0.1300 Uiso
H11 H 0.9373 0.7759 0.2359 0.1300 Uiso
loop_
_atom_site_aniso_label
_atom_site_aniso_U_11
_atom_site_aniso_U_22
_atom_site_aniso_U_33
_atom_site_aniso_U_23
_atom_site_aniso_U_13
_atom_site_aniso_U_12
C1 0.020(2) 0.024(2) 0.025(2) -0.0042(19) 0.0059(19) -0.0002(18)
C2 0.021(2) 0.022(2) 0.020(2) -0.0024(17) 0.0088(19) -0.0008(17)
C3 0.039(3) 0.019(2) 0.021(2) 0.0036(18) 0.006(2) 0.000(2)
C4 0.033(3) 0.021(2) 0.020(2) -0.0015(19) 0.008(2) -0.005(2)
C5 0.036(3) 0.025(3) 0.033(3) 0.003(2) -0.001(2) -0.004(2)
C6 0.036(3) 0.038(3) 0.035(3) 0.002(2) -0.008(2) -0.006(2)
C7 0.034(3) 0.030(3) 0.044(3) -0.008(2) 0.005(3) -0.007(2)
C8 0.026(3) 0.026(3) 0.039(3) -0.004(2) 0.004(2) 0.001(2)
C9 0.025(2) 0.032(3) 0.022(2) -0.006(2) 0.007(2) -0.005(2)
C10 0.020(2) 0.024(2) 0.025(2) -0.0035(19) 0.0055(19) -0.0021(18)
Mn1 0.0283(3) 0.0189(3) 0.0196(3) 0.0007(3) 0.0008(2) 0.0027(3)
N1 0.024(2) 0.022(2) 0.026(2) -0.0023(16) 0.0058(17) -0.0002(16)
N2 0.027(2) 0.019(2) 0.025(2) 0.0042(16) -0.0006(17) 0.0037(16)
N3 0.032(2) 0.031(2) 0.038(3) -0.003(2) -0.001(2) -0.0078(19)
O1 0.042(2) 0.0267(18) 0.0245(18) -0.0056(15) -0.0064(16) 0.0097(17)
O2 0.0258(18) 0.0294(18) 0.0305(19) -0.0075(15) 0.0005(15) -0.0024(15)
O3 0.057(2) 0.0172(18) 0.0244(18) -0.0010(14) -0.0025(17) -0.0023(17)
O4 0.108(4) 0.0150(19) 0.0247(19) 0.0016(15) 0.006(2) -0.003(2)
O5 0.065(3) 0.0217(18) 0.039(2) 0.0010(16) 0.020(2) -0.0068(18)
Mn1C 0.0283 0.0189 0.0196 -0.0007 0.0008 -0.0027
Mn1A 0.0283 0.0189 0.0196 -0.0007 0.0008 -0.0027
N3C 0.032 0.031 0.038 0.003 -0.001 0.0078
O2A 0.0258 0.0294 0.0305 0.0075 0.0005 0.0024
O3A 0.057 0.0172 0.0244 0.001 -0.0025 0.0023
O6 0.113(7) 0.114(6) 0.135(7) 0.005(6) 0.018(6) 0.003(6)
O7 0.081(5) 0.083(5) 0.161(7) 0.063(5) 0.022(5) 0.043(4)
loop_
_geom_bond_atom_site_label_1
_geom_bond_atom_site_label_2
_geom_bond_site_symmetry_1
_geom_bond_site_symmetry_2
C1 C2 1_555 1_555
C2 C4 1_555 1_555
C3 C4 1_555 1_555
C4 N2 1_555 1_555
C5 H1 1_555 1_555
C6 C5 1_555 1_555
H2 C6 1_555 1_555
C7 H3 1_555 1_555
C8 C7 1_555 1_555
H4 C8 1_555 1_555
C9 C5 1_555 1_555
C10 C9 1_555 1_555
Mn1 N1 1_555 1_555
N1 C2 1_555 1_555
N2 C10 1_555 1_555
H5 N2 1_555 1_555
N3 C6 1_555 1_555
O1 C1 1_555 1_555
O2 C1 1_555 1_555
O3 C3 1_555 1_555
O4 C3 1_555 1_555
O5 Mn1 1_555 1_555
H6 O5 1_555 1_555
H7 O5 1_555 1_555
O6 H8 1_555 1_555
H9 O6 1_555 1_555
O7 H10 1_555 1_555
H11 O7 1_555 1_555
Mn1C N3 1_555 1_555
Mn1A O2 1_555 1_555
N3C Mn1 1_555 1_555
O2A Mn1 1_555 1_555
O3A Mn1 1_555 1_555
C7 N3 1_555 1_555
C8 C9 1_555 1_555
C10 N1 1_555 1_555
Mn1 O1 1_555 1_555
O3 Mn1A 1_555 1_555

#END
