
#######################################################################
#
#                 Cambridge Crystallographic Data Centre
#                                CCDC 
#
#######################################################################
#
# If this CIF has been generated from an entry in the Cambridge 
# Structural Database, then it will include bibliographic, chemical, 
# crystal, experimental, refinement or atomic coordinate data resulting 
# from the CCDC's data processing and validation procedures.
#
#######################################################################

data_COQGAS
_chemical_formula_moiety         '(C52 H44 N6 O12 Zn2)n'
_symmetry_cell_setting           monoclinic
_symmetry_space_group_name_H-M   'C 2/c'
_symmetry_Int_Tables_number      15
_space_group_name_Hall           '-C 2yc'
loop_
_symmetry_equiv_pos_site_id
_symmetry_equiv_pos_as_xyz
1 x,y,z
2 -x,y,1/2-z
3 1/2+x,1/2+y,z
4 1/2-x,1/2+y,1/2-z
5 -x,-y,-z
6 x,-y,1/2+z
7 1/2-x,1/2-y,-z
8 1/2+x,1/2-y,1/2+z
_cell_length_a                   14.900(4)
_cell_length_b                   24.324(6)
_cell_length_c                   16.253(6)
_cell_angle_alpha                90
_cell_angle_beta                 113.233(4)
_cell_angle_gamma                90
_cell_volume                     5412.86
loop_
_atom_site_label
_atom_site_type_symbol
_atom_site_fract_x
_atom_site_fract_y
_atom_site_fract_z
_atom_site_U_iso_or_equiv
_atom_site_thermal_displace_type
Zn1 Zn 0.41865(3) 0.013454(19) 0.63776(4) 0.0276 Uani
O1 O 0.4048(2) -0.32009(12) 0.6314(2) 0.0349 Uani
O2 O 0.4768(2) -0.06168(11) 0.6429(2) 0.0331 Uani
O3 O 0.3299(2) -0.06232(12) 0.6447(2) 0.0348 Uani
O4 O 0.0343(2) -0.44166(12) 0.6461(2) 0.0334 Uani
O5 O 0.1375(2) -0.44491(13) 0.7904(2) 0.0365 Uani
N1 N 0.3320(2) 0.02875(14) 0.5067(3) 0.0266 Uani
N2 N 0.0887(3) 0.00793(15) 0.1884(3) 0.0328 Uani
C1 C 0.4036(3) -0.14930(17) 0.6431(3) 0.0305 Uani
C2 C 0.4770(3) -0.17764(17) 0.6286(4) 0.0350 Uani
H1 H 0.5285 -0.1577 0.6218 0.0420 Uiso
C3 C 0.4762(3) -0.23436(18) 0.6241(4) 0.0358 Uani
H2 H 0.5259 -0.2535 0.6129 0.0430 Uiso
C4 C 0.4012(3) -0.26317(17) 0.6363(3) 0.0310 Uani
C5 C 0.3270(3) -0.23553(18) 0.6511(4) 0.0371 Uani
H3 H 0.2760 -0.2554 0.6588 0.0440 Uiso
C6 C 0.3288(3) -0.17824(18) 0.6544(3) 0.0343 Uani
H4 H 0.2787 -0.1589 0.6645 0.0410 Uiso
C7 C 0.4022(3) -0.08827(17) 0.6442(3) 0.0299 Uani
C8 C 0.3340(3) -0.34841(16) 0.6510(3) 0.0338 Uani
C9 C 0.3527(3) -0.36286(19) 0.7391(4) 0.0381 Uani
H5 H 0.4131 -0.3536 0.7861 0.0460 Uiso
C10 C 0.2820(3) -0.39078(19) 0.7568(4) 0.0378 Uani
H6 H 0.2946 -0.4019 0.8164 0.0450 Uiso
C11 C 0.1918(3) -0.40299(15) 0.6884(3) 0.0288 Uani
C12 C 0.1752(3) -0.38961(19) 0.6005(3) 0.0364 Uani
H7 H 0.1151 -0.3992 0.5533 0.0430 Uiso
C13 C 0.2466(3) -0.3622(2) 0.5818(4) 0.0386 Uani
H8 H 0.2357 -0.3529 0.5218 0.0460 Uiso
C14 C 0.1153(3) -0.43221(15) 0.7102(3) 0.0279 Uani
C15 C 0.3690(3) 0.04884(16) 0.4498(3) 0.0295 Uani
H9 H 0.4347 0.0614 0.4741 0.0350 Uiso
C16 C 0.3185(3) 0.05240(18) 0.3595(3) 0.0311 Uani
H10 H 0.3485 0.0669 0.3223 0.0370 Uiso
C17 C 0.2221(3) 0.03434(17) 0.3230(3) 0.0307 Uani
C18 C 0.1812(3) 0.01413(18) 0.3798(3) 0.0329 Uani
H11 H 0.1154 0.0017 0.3566 0.0390 Uiso
C19 C 0.2371(3) 0.01222(18) 0.4707(3) 0.0319 Uani
H12 H 0.2082 -0.0011 0.5095 0.0380 Uiso
C20 C 0.1698(3) 0.03223(18) 0.2239(3) 0.0319 Uani
H13 H 0.1977 0.0494 0.1870 0.0380 Uiso
C21 C 0.0449(3) 0.00599(18) 0.0932(3) 0.0299 Uani
C22 C 0.0002(3) -0.04431(19) 0.0541(3) 0.0335 Uani
H14 H 0.0002 -0.0744 0.0914 0.0400 Uiso
C23 C 0.0434(3) 0.04976(18) 0.0382(3) 0.0351 Uani
H15 H 0.0725 0.0837 0.0639 0.0420 Uiso
N1D N -0.3320(2) -0.02875(14) -0.5067(3) 0.0266 Uani
N2D N -0.0887(3) -0.00793(15) -0.1884(3) 0.0328 Uani
C15D C -0.3690(3) -0.04884(16) -0.4498(3) 0.0295 Uani
H9D H -0.4347 -0.0614 -0.4741 0.0350 Uiso
C16D C -0.3185(3) -0.05240(18) -0.3595(3) 0.0311 Uani
H10D H -0.3485 -0.0669 -0.3223 0.0370 Uiso
C17D C -0.2221(3) -0.03434(17) -0.3230(3) 0.0307 Uani
C18D C -0.1812(3) -0.01413(18) -0.3798(3) 0.0329 Uani
H11D H -0.1154 -0.0017 -0.3566 0.0390 Uiso
C19D C -0.2371(3) -0.01222(18) -0.4707(3) 0.0319 Uani
H12D H -0.2082 0.0011 -0.5095 0.0380 Uiso
C20D C -0.1698(3) -0.03223(18) -0.2239(3) 0.0319 Uani
H13D H -0.1977 -0.0494 -0.1870 0.0380 Uiso
C21D C -0.0449(3) -0.00599(18) -0.0932(3) 0.0299 Uani
C22D C -0.0002(3) 0.04431(19) -0.0541(3) 0.0335 Uani
H14D H -0.0002 0.0744 -0.0914 0.0400 Uiso
C23D C -0.0434(3) -0.04976(18) -0.0382(3) 0.0351 Uani
H15D H -0.0725 -0.0837 -0.0639 0.0420 Uiso
Zn1D Zn -0.41865(3) -0.013454(19) -0.63776(4) 0.0276 Uani
O1D O -0.4048(2) 0.32009(12) -0.6314(2) 0.0349 Uani
O2D O -0.4768(2) 0.06168(11) -0.6429(2) 0.0331 Uani
O3D O -0.3299(2) 0.06232(12) -0.6447(2) 0.0348 Uani
O4D O -0.0343(2) 0.44166(12) -0.6461(2) 0.0334 Uani
O5D O -0.1375(2) 0.44491(13) -0.7904(2) 0.0365 Uani
C1D C -0.4036(3) 0.14930(17) -0.6431(3) 0.0305 Uani
C2D C -0.4770(3) 0.17764(17) -0.6286(4) 0.0350 Uani
H1D H -0.5285 0.1577 -0.6218 0.0420 Uiso
C3D C -0.4762(3) 0.23436(18) -0.6241(4) 0.0358 Uani
H2D H -0.5259 0.2535 -0.6129 0.0430 Uiso
C4D C -0.4012(3) 0.26317(17) -0.6363(3) 0.0310 Uani
C5D C -0.3270(3) 0.23553(18) -0.6511(4) 0.0371 Uani
H3D H -0.2760 0.2554 -0.6588 0.0440 Uiso
C6D C -0.3288(3) 0.17824(18) -0.6544(3) 0.0343 Uani
H4D H -0.2787 0.1589 -0.6645 0.0410 Uiso
C7D C -0.4022(3) 0.08827(17) -0.6442(3) 0.0299 Uani
C8D C -0.3340(3) 0.34841(16) -0.6510(3) 0.0338 Uani
C9D C -0.3527(3) 0.36286(19) -0.7391(4) 0.0381 Uani
H5D H -0.4131 0.3536 -0.7861 0.0460 Uiso
C10D C -0.2820(3) 0.39078(19) -0.7568(4) 0.0378 Uani
H6D H -0.2946 0.4019 -0.8164 0.0450 Uiso
C11D C -0.1918(3) 0.40299(15) -0.6884(3) 0.0288 Uani
C12D C -0.1752(3) 0.38961(19) -0.6005(3) 0.0364 Uani
H7D H -0.1151 0.3992 -0.5533 0.0430 Uiso
C13D C -0.2466(3) 0.3622(2) -0.5818(4) 0.0386 Uani
H8D H -0.2357 0.3529 -0.5218 0.0460 Uiso
C14D C -0.1153(3) 0.43221(15) -0.7102(3) 0.0279 Uani
Zn1B Zn -0.08135(3) -0.486546(19) 0.63776(4) 0.0276 Uani
Zn1C Zn 0.08135(3) -0.486546(19) 0.86224(4) 0.0276 Uani
Zn1F Zn 0.08135(3) 0.486546(19) -0.63776(4) 0.0276 Uani
Zn1G Zn -0.08135(3) 0.486546(19) -0.86224(4) 0.0276 Uani
O4B O 0.5343(2) 0.05834(12) 0.6461(2) 0.0334 Uani
O4F O -0.5343(2) -0.05834(12) -0.6461(2) 0.0334 Uani
O5C O 0.3625(2) 0.05509(13) 0.7096(2) 0.0365 Uani
O5G O -0.3625(2) -0.05509(13) -0.7096(2) 0.0365 Uani
O6 O 0.0347(13) -0.1589(7) 0.6914(12) 0.1330 Uiso
N3 N 0.1405(11) -0.1716(6) 0.8420(9) 0.0880 Uiso
C24 C 0.0601(16) -0.1482(9) 0.7728(15) 0.1070 Uiso
H16 H 0.0221 -0.1217 0.7889 0.1280 Uiso
C25 C 0.1580(14) -0.1592(8) 0.9352(9) 0.0890 Uiso
H17 H 0.2171 -0.1783 0.9750 0.1330 Uiso
H18 H 0.1021 -0.1715 0.9477 0.1330 Uiso
H19 H 0.1667 -0.1195 0.9452 0.1330 Uiso
C26 C 0.2064(16) -0.2060(9) 0.8162(16) 0.1120 Uiso
H20 H 0.2592 -0.2200 0.8702 0.1690 Uiso
H21 H 0.2342 -0.1839 0.7816 0.1690 Uiso
H22 H 0.1698 -0.2369 0.7797 0.1690 Uiso
O6A O -0.0347(13) -0.1589(7) 0.8086(12) 0.1330 Uiso
N3A N -0.1405(11) -0.1716(6) 0.6580(9) 0.0880 Uiso
C24A C -0.0601(16) -0.1482(9) 0.7272(15) 0.1070 Uiso
H16A H -0.0221 -0.1217 0.7111 0.1280 Uiso
C25A C -0.1580(14) -0.1592(8) 0.5648(9) 0.0890 Uiso
H17A H -0.2171 -0.1783 0.5250 0.1330 Uiso
H18A H -0.1021 -0.1715 0.5523 0.1330 Uiso
H19A H -0.1667 -0.1195 0.5548 0.1330 Uiso
C26A C -0.2064(16) -0.2060(9) 0.6838(16) 0.1120 Uiso
H20A H -0.2592 -0.2200 0.6298 0.1690 Uiso
H21A H -0.2342 -0.1839 0.7184 0.1690 Uiso
H22A H -0.1698 -0.2369 0.7203 0.1690 Uiso
loop_
_atom_site_aniso_label
_atom_site_aniso_U_11
_atom_site_aniso_U_22
_atom_site_aniso_U_33
_atom_site_aniso_U_23
_atom_site_aniso_U_13
_atom_site_aniso_U_12
Zn1 0.0205(3) 0.0225(3) 0.0444(3) -0.00205(19) 0.0177(2) -0.00277(17)
O1 0.0280(15) 0.0233(14) 0.060(2) 0.0065(13) 0.0243(15) -0.0023(11)
O2 0.0220(14) 0.0214(13) 0.055(2) -0.0001(13) 0.0143(14) -0.0078(11)
O3 0.0294(15) 0.0275(14) 0.059(2) 0.0025(14) 0.0299(15) -0.0004(12)
O4 0.0255(15) 0.0290(15) 0.0487(19) -0.0029(13) 0.0178(14) -0.0070(12)
O5 0.0298(16) 0.0369(16) 0.048(2) 0.0065(14) 0.0209(15) -0.0025(13)
N1 0.0196(15) 0.0242(15) 0.042(2) -0.0028(14) 0.0186(14) -0.0033(12)
N2 0.0235(17) 0.0328(18) 0.046(2) -0.0006(16) 0.0179(16) 0.0020(14)
C1 0.0237(19) 0.0232(19) 0.047(3) 0.0011(17) 0.0165(18) -0.0040(15)
C2 0.0207(19) 0.027(2) 0.064(3) 0.0018(19) 0.024(2) -0.0039(15)
C3 0.025(2) 0.027(2) 0.061(3) 0.0032(19) 0.023(2) -0.0025(16)
C4 0.0240(19) 0.0244(19) 0.049(3) 0.0023(17) 0.0190(19) -0.0032(15)
C5 0.029(2) 0.028(2) 0.065(3) 0.005(2) 0.030(2) -0.0049(17)
C6 0.027(2) 0.029(2) 0.056(3) 0.0031(19) 0.026(2) -0.0002(16)
C7 0.0230(19) 0.0236(18) 0.049(3) -0.0005(17) 0.0206(18) -0.0018(15)
C8 0.0244(19) 0.0212(18) 0.059(3) 0.0025(18) 0.020(2) -0.0042(15)
C9 0.029(2) 0.032(2) 0.050(3) 0.005(2) 0.012(2) -0.0113(18)
C10 0.031(2) 0.031(2) 0.048(3) 0.0052(19) 0.012(2) -0.0081(18)
C11 0.0261(19) 0.0158(16) 0.048(3) 0.0019(16) 0.0185(19) -0.0055(14)
C12 0.031(2) 0.033(2) 0.046(3) 0.0011(19) 0.016(2) -0.0063(18)
C13 0.028(2) 0.043(3) 0.050(3) 0.005(2) 0.021(2) -0.0097(19)
C14 0.0233(19) 0.0175(16) 0.047(3) 0.0019(16) 0.0184(18) -0.0019(14)
C15 0.0175(17) 0.0253(18) 0.052(3) -0.0002(17) 0.0204(18) -0.0036(14)
C16 0.0224(19) 0.033(2) 0.044(3) 0.0007(18) 0.0196(18) -0.0056(16)
C17 0.0211(18) 0.0266(18) 0.049(3) -0.0006(18) 0.0186(18) -0.0008(15)
C18 0.0152(17) 0.039(2) 0.048(3) 0.0000(19) 0.0163(18) -0.0017(16)
C19 0.0170(17) 0.039(2) 0.045(3) 0.0009(19) 0.0178(17) -0.0059(16)
C20 0.0235(19) 0.033(2) 0.045(3) 0.0025(19) 0.0196(18) 0.0028(16)
C21 0.0183(18) 0.036(2) 0.041(2) -0.0002(18) 0.0176(17) 0.0044(15)
C22 0.0217(19) 0.034(2) 0.049(3) 0.0028(19) 0.0186(19) 0.0009(16)
C23 0.025(2) 0.030(2) 0.052(3) 0.0008(19) 0.017(2) 0.0000(16)
N1D 0.0196 0.0242 0.042 -0.0028 0.0186 -0.0033
N2D 0.0235 0.0328 0.046 -0.0006 0.0179 0.002
C15D 0.0175 0.0253 0.052 -0.0002 0.0204 -0.0036
C16D 0.0224 0.033 0.044 0.0007 0.0196 -0.0056
C17D 0.0211 0.0266 0.049 -0.0006 0.0186 -0.0008
C18D 0.0152 0.039 0.048 0 0.0163 -0.0017
C19D 0.017 0.039 0.045 0.0009 0.0178 -0.0059
C20D 0.0235 0.033 0.045 0.0025 0.0196 0.0028
C21D 0.0183 0.036 0.041 -0.0002 0.0176 0.0044
C22D 0.0217 0.034 0.049 0.0028 0.0186 0.0009
C23D 0.025 0.03 0.052 0.0008 0.017 0
Zn1D 0.0205 0.0225 0.0444 -0.00205 0.0177 -0.00277
O1D 0.028 0.0233 0.06 0.0065 0.0243 -0.0023
O2D 0.022 0.0214 0.055 -0.0001 0.0143 -0.0078
O3D 0.0294 0.0275 0.059 0.0025 0.0299 -0.0004
O4D 0.0255 0.029 0.0487 -0.0029 0.0178 -0.007
O5D 0.0298 0.0369 0.048 0.0065 0.0209 -0.0025
C1D 0.0237 0.0232 0.047 0.0011 0.0165 -0.004
C2D 0.0207 0.027 0.064 0.0018 0.024 -0.0039
C3D 0.025 0.027 0.061 0.0032 0.023 -0.0025
C4D 0.024 0.0244 0.049 0.0023 0.019 -0.0032
C5D 0.029 0.028 0.065 0.005 0.03 -0.0049
C6D 0.027 0.029 0.056 0.0031 0.026 -0.0002
C7D 0.023 0.0236 0.049 -0.0005 0.0206 -0.0018
C8D 0.0244 0.0212 0.059 0.0025 0.02 -0.0042
C9D 0.029 0.032 0.05 0.005 0.012 -0.0113
C10D 0.031 0.031 0.048 0.0052 0.012 -0.0081
C11D 0.0261 0.0158 0.048 0.0019 0.0185 -0.0055
C12D 0.031 0.033 0.046 0.0011 0.016 -0.0063
C13D 0.028 0.043 0.05 0.005 0.021 -0.0097
C14D 0.0233 0.0175 0.047 0.0019 0.0184 -0.0019
Zn1B 0.0205 0.0225 0.0444 -0.00205 0.0177 -0.00277
Zn1C 0.0205 0.0225 0.0444 0.00205 0.0177 0.00277
Zn1F 0.0205 0.0225 0.0444 -0.00205 0.0177 -0.00277
Zn1G 0.0205 0.0225 0.0444 0.00205 0.0177 0.00277
O4B 0.0255 0.029 0.0487 -0.0029 0.0178 -0.007
O4F 0.0255 0.029 0.0487 -0.0029 0.0178 -0.007
O5C 0.0298 0.0369 0.048 -0.0065 0.0209 0.0025
O5G 0.0298 0.0369 0.048 -0.0065 0.0209 0.0025
loop_
_geom_bond_atom_site_label_1
_geom_bond_atom_site_label_2
_geom_bond_site_symmetry_1
_geom_bond_site_symmetry_2
Zn1 O2 1_555 1_555
O1 C4 1_555 1_555
O2 C7 1_555 1_555
O3 Zn1 1_555 1_555
O4 C14 1_555 1_555
O5 C14 1_555 1_555
N1 Zn1 1_555 1_555
N2 C20 1_555 1_555
C1 C2 1_555 1_555
C2 H1 1_555 1_555
C3 C2 1_555 1_555
H2 C3 1_555 1_555
C4 C3 1_555 1_555
C5 C4 1_555 1_555
H3 C5 1_555 1_555
C6 C1 1_555 1_555
H4 C6 1_555 1_555
C7 O3 1_555 1_555
C8 O1 1_555 1_555
C9 C8 1_555 1_555
H5 C9 1_555 1_555
C10 C9 1_555 1_555
H6 C10 1_555 1_555
C11 C10 1_555 1_555
C12 C11 1_555 1_555
H7 C12 1_555 1_555
C13 C8 1_555 1_555
H8 C13 1_555 1_555
C14 C11 1_555 1_555
C15 N1 1_555 1_555
H9 C15 1_555 1_555
C16 C15 1_555 1_555
H10 C16 1_555 1_555
C17 C16 1_555 1_555
C18 C17 1_555 1_555
H11 C18 1_555 1_555
C19 N1 1_555 1_555
H12 C19 1_555 1_555
C20 C17 1_555 1_555
H13 C20 1_555 1_555
C21 N2 1_555 1_555
C22 C21 1_555 1_555
H14 C22 1_555 1_555
C23 C21 1_555 1_555
H15 C23 1_555 1_555
O6 C24 1_555 1_555
N3 C24 1_555 1_555
C24 H16 1_555 1_555
C25 N3 1_555 1_555
H17 C25 1_555 1_555
H18 C25 1_555 1_555
H19 C25 1_555 1_555
C26 N3 1_555 1_555
H20 C26 1_555 1_555
H21 C26 1_555 1_555
H22 C26 1_555 1_555
N1D C15D 1_555 1_555
N2D C20D 1_555 1_555
C15D H9D 1_555 1_555
C16D C15D 1_555 1_555
H10D C16D 1_555 1_555
C17D C16D 1_555 1_555
C18D C17D 1_555 1_555
H11D C18D 1_555 1_555
C19D N1D 1_555 1_555
H12D C19D 1_555 1_555
C20D C17D 1_555 1_555
H13D C20D 1_555 1_555
C21D N2D 1_555 1_555
C22D C23 1_555 1_555
H14D C22D 1_555 1_555
C23D C22 1_555 1_555
H15D C23D 1_555 1_555
Zn1D N1D 1_555 1_555
O1D C4D 1_555 1_555
O2D Zn1D 1_555 1_555
O3D Zn1D 1_555 1_555
O4D C14D 1_555 1_555
O5D C14D 1_555 1_555
C1D C2D 1_555 1_555
C2D H1D 1_555 1_555
C3D C2D 1_555 1_555
H2D C3D 1_555 1_555
C4D C3D 1_555 1_555
C5D C4D 1_555 1_555
H3D C5D 1_555 1_555
C6D C1D 1_555 1_555
H4D C6D 1_555 1_555
C7D O2D 1_555 1_555
C8D O1D 1_555 1_555
C9D C8D 1_555 1_555
H5D C9D 1_555 1_555
C10D C9D 1_555 1_555
H6D C10D 1_555 1_555
C11D C10D 1_555 1_555
C12D C11D 1_555 1_555
H7D C12D 1_555 1_555
C13D C8D 1_555 1_555
H8D C13D 1_555 1_555
C14D C11D 1_555 1_555
Zn1B O4 1_555 1_555
Zn1C O5 1_555 1_555
Zn1F O4D 1_555 1_555
Zn1G O5D 1_555 1_555
O4B Zn1 1_555 1_555
O4F Zn1D 1_555 1_555
O5C Zn1 1_555 1_555
O5G Zn1D 1_555 1_555
O6A C24A 1_555 1_555
N3A C24A 1_555 1_555
C24A H16A 1_555 1_555
C25A N3A 1_555 1_555
H17A C25A 1_555 1_555
H18A C25A 1_555 1_555
H19A C25A 1_555 1_555
C26A N3A 1_555 1_555
H20A C26A 1_555 1_555
H21A C26A 1_555 1_555
H22A C26A 1_555 1_555
C1 C7 1_555 1_555
C5 C6 1_555 1_555
C12 C13 1_555 1_555
C18 C19 1_555 1_555
C18D C19D 1_555 1_555
C21D C22D 1_555 1_555
C21D C23D 1_555 1_555
O3D C7D 1_555 1_555
C1D C7D 1_555 1_555
C5D C6D 1_555 1_555
C12D C13D 1_555 1_555

#END
