
#######################################################################
#
#                 Cambridge Crystallographic Data Centre
#                                CCDC 
#
#######################################################################
#
# If this CIF has been generated from an entry in the Cambridge 
# Structural Database, then it will include bibliographic, chemical, 
# crystal, experimental, refinement or atomic coordinate data resulting 
# from the CCDC's data processing and validation procedures.
#
#######################################################################

data_ACIBIY
_chemical_formula_moiety         'C60 H74 Co55 O203'
_symmetry_cell_setting           triclinic
_symmetry_space_group_name_H-M   'P -1'
_symmetry_Int_Tables_number      2
_space_group_name_Hall           '-P 1'
loop_
_symmetry_equiv_pos_site_id
_symmetry_equiv_pos_as_xyz
1 x,y,z
2 -x,-y,-z
_cell_length_a                   15.205(3)
_cell_length_b                   18.005(4)
_cell_length_c                   21.500(4)
_cell_angle_alpha                71.21(3)
_cell_angle_beta                 84.47(3)
_cell_angle_gamma                67.15(3)
_cell_volume                     5132.21
loop_
_atom_site_label
_atom_site_type_symbol
_atom_site_fract_x
_atom_site_fract_y
_atom_site_fract_z
O2 O -1.0549(17) 0.3882(18) 0.2754(13)
O3 O -0.2755(16) 0.2735(16) 0.0636(13)
O4 O -0.158(2) 0.318(2) 0.0210(18)
O5 O -0.234(2) 0.3140(15) 0.5223(13)
O6 O -0.569(6) -0.037(3) 0.384(2)
O7 O -0.575(3) -0.109(3) -0.0509(17)
O8 O 0.9867(9) -0.4203(7) 0.5550(6)
O9 O 0.6886(9) 0.0933(7) 0.2716(6)
O10 O 0.6456(10) 0.2376(8) 0.3980(7)
O11 O 0.6695(10) -0.4519(8) 0.3403(7)
O12 O 0.0030(9) -0.1181(8) 0.0060(6)
O13 O 0.3208(10) -0.0873(9) 0.2209(7)
O14 O 0.6631(10) -0.2145(8) 0.3245(6)
O15 O 0.3476(8) -0.2489(7) 0.1117(6)
O16 O 0.0515(8) 0.5799(7) -0.0703(6)
O17 O 0.0240(8) 0.4278(8) -0.0619(6)
O18 O 0.6111(8) 0.0864(7) 0.4032(6)
O19 O 0.2501(9) 0.3704(8) 0.2423(7)
O20 O 1.0870(9) -0.0371(9) 0.4249(6)
O21 O 0.2506(9) -0.2233(8) 0.2329(6)
O22 O 0.4179(9) 0.2981(7) 0.0918(6)
O23 O 0.7189(9) 0.2448(7) 0.2622(6)
O24 O 0.9172(9) -0.5554(8) 0.5650(7)
O25 O 0.6538(8) -0.2952(6) 0.5438(5)
O26 O 0.4144(8) -0.1112(8) 0.1013(7)
O27 O 0.3285(9) 0.4962(7) -0.1335(6)
O28 O 0.1481(9) -0.0463(7) 0.0026(6)
O29 O 0.1096(8) -0.1215(7) 0.2363(6)
O30 O 0.6615(8) -0.1692(7) 0.5343(6)
O31 O 0.2509(8) 0.4463(7) 0.0980(6)
O32 O 0.3103(8) 0.1420(7) -0.0068(6)
O33 O 0.4135(10) 0.2196(9) 0.2369(7)
O34 O -0.0150(9) 0.0378(7) 0.2094(6)
O35 O 0.7516(9) -0.2484(8) 0.1420(6)
O36 O 0.9190(9) 0.1110(7) 0.4322(6)
O37 O 0.3194(9) 0.3708(8) -0.1222(6)
O38 O 0.4887(10) 0.4901(7) 0.1176(6)
O39 O 0.9786(9) -0.1928(7) 0.3292(6)
O40 O -0.0042(11) 0.1635(8) 0.2004(8)
O41 O 0.8143(8) -0.3799(8) 0.3360(6)
O42 O 0.8306(8) -0.0108(7) 0.2969(6)
O43 O 0.5183(10) -0.2874(9) 0.3294(7)
O44 O 0.1662(9) 0.3217(7) -0.0341(6)
O45 O 0.5012(8) 0.3447(7) 0.3674(5)
O46 O 0.7747(8) -0.4540(7) 0.5693(6)
O47 O 0.5822(9) -0.4174(8) 0.5247(6)
O48 O 0.1797(9) 0.1774(7) 0.2147(6)
O49 O 0.5566(9) -0.2126(7) 0.0985(5)
O50 O -0.0851(9) -0.0840(7) 0.1905(6)
O51 O 0.8450(8) -0.1560(7) 0.5481(5)
O52 O 0.9048(8) -0.0582(7) 0.4915(5)
O53 O 0.3569(10) 0.5241(7) 0.3380(6)
O54 O 0.2095(8) -0.0792(7) 0.1032(6)
O55 O 0.8520(8) -0.3098(7) 0.5206(5)
O56 O 0.2406(7) 0.2723(6) 0.1581(6)
O57 O 0.3288(8) 0.2866(7) 0.0211(6)
O58 O 0.4275(8) 0.3941(7) 0.1740(5)
O59 O 0.8896(8) -0.1622(6) 0.4138(6)
O60 O -0.0684(8) -0.1064(6) -0.0854(5)
O61 O 0.9926(8) -0.0485(7) 0.3554(5)
O62 O 0.6065(10) 0.3783(7) 0.2363(6)
O63 O 0.7324(9) -0.2235(7) 0.4159(6)
O64 O 0.6714(8) -0.2971(7) 0.2299(5)
O65 O 0.3404(8) 0.3804(7) 0.3118(6)
O66 O 0.8068(8) 0.0973(7) 0.3791(5)
O67 O 0.4832(9) -0.3591(7) 0.1469(6)
O68 O 0.6617(8) -0.3692(7) 0.4378(5)
O69 O 0.1838(8) 0.0270(6) 0.1875(6)
O70 O 0.8770(8) -0.4152(7) 0.4359(6)
O71 O 0.1394(8) 0.4330(7) 0.0453(6)
O72 O 0.4557(8) -0.2520(7) 0.2282(6)
O73 O 0.7253(8) -0.0423(7) 0.4283(5)
O74 O 0.4423(8) 0.4956(7) 0.2533(5)
O75 O -0.0039(8) -0.0358(7) 0.1050(6)
O76 O 0.5273(8) 0.2338(7) 0.2887(6)
O77 O -0.0591(8) 0.7088(6) -0.0957(6)
O78 O 0.5996(8) -0.4421(7) 0.2489(5)
O79 O 0.2239(9) 0.1718(7) 0.0810(6)
C1 C 0.2611(19) 0.3806(13) 0.2944(10)
H1 H 0.2103 0.3889 0.3226
C2 C 0.4420(14) 0.4448(12) 0.1211(8)
H2 H 0.4162 0.4486 0.0822
C3 C 0.2253(14) 0.2212(11) 0.2104(10)
H3 H 0.2516 0.2169 0.2493
C4 C 0.4071(14) -0.3218(11) 0.1158(11)
H4 H 0.3917 -0.3508 0.0925
C5 C 0.8455(13) 0.1401(11) 0.3958(9)
H5 H 0.8163 0.1988 0.3792
C6 C 0.5746(16) 0.2996(14) 0.4053(10)
H6 H 0.5761 0.3142 0.4429
C7 C 0.6390(15) -0.4808(11) 0.3056(11)
H7 H 0.6458 -0.5372 0.3234
C8 C 0.2659(14) -0.0185(13) 0.2175(9)
H8 H 0.2856 0.0082 0.2408
C9 C 0.0202(15) 0.6597(13) -0.0947(10)
H9 H 0.0650 0.6826 -0.1143
C10 C 0.4835(14) 0.1960(10) 0.2684(11)
H10 H 0.5147 0.1373 0.2818
C11 C 0.4037(12) 0.2850(10) 0.0404(9)
H11 H 0.4558 0.2727 0.0137
C12 C 0.1811(12) 0.4764(10) 0.0585(8)
H12 H 0.1577 0.5345 0.0372
C13 C 0.6932(14) -0.1862(12) 0.3591(10)
H13 H 0.6862 -0.1297 0.3411
C14 C 0.4515(12) -0.2560(11) 0.2877(10)
H14 H 0.3906 -0.2325 0.3027
C15 C 0.2938(14) 0.4383(15) -0.1092(10)
H15 H 0.2454 0.4479 -0.0793
C16 C 0.6407(12) 0.0096(11) 0.4333(7)
H16 H 0.5994 -0.0117 0.4610
C17 C 0.1749(14) -0.1968(11) 0.2564(10)
H17 H 0.1613 -0.2346 0.2933
C18 C 0.7548(11) 0.0390(11) 0.2596(10)
H18 H 0.7526 0.0308 0.2193
C19 C 0.2737(13) 0.1195(10) 0.0488(8)
H19 H 0.2831 0.0626 0.0674
C20 C 0.2171(14) -0.0796(13) 0.0426(10)
H20 H 0.2774 -0.1062 0.0283
C21 C 0.3951(13) 0.5435(9) 0.2858(9)
H21 H 0.3881 0.6001 0.2684
C22 C 0.8827(13) -0.4124(11) 0.3752(9)
H22 H 0.9431 -0.4367 0.3599
C23 C 0.8385(12) -0.5268(11) 0.5862(8)
H23 H 0.8230 -0.5657 0.6211
C24 C -0.0376(13) 0.1076(15) 0.2209(10)
H24 H -0.0875 0.1186 0.2495
C25 C 0.4899(17) -0.1364(14) 0.0787(11)
H25 H 0.5037 -0.0978 0.0426
C26 C 0.9412(14) -0.2126(15) 0.3835(11)
H26 H 0.9525 -0.2698 0.4032
C27 C 0.0951(17) 0.3667(13) -0.0728(8)
H27 H 0.0943 0.3547 -0.1117
C28 C 0.6914(13) 0.3203(11) 0.2379(10)
H28 H 0.7377 0.3405 0.2169
C29 C 0.6220(13) -0.2239(8) 0.5548(8)
H29 H 0.5671 -0.2107 0.5790
C30 C -0.0275(16) -0.1488(12) -0.0265(10)
H30 H -0.0213 -0.2051 -0.0085
C31 C -0.0706(14) -0.0622(12) 0.1309(9)
H31 H -0.1109 -0.0653 0.1027
C32 C 0.7352(13) -0.2679(12) 0.2010(10)
H32 H 0.7735 -0.2608 0.2282
C33 C 0.6003(15) -0.4000(12) 0.4670(10)
H33 H 0.5648 -0.4103 0.4402
C34 C 0.8946(13) -0.1129(13) 0.5439(10)
H34 H 0.9266 -0.1215 0.5819
C35 C 0.9327(14) -0.3454(13) 0.5504(10)
H35 H 0.9527 -0.3148 0.5695
C36 C 1.0698(13) -0.0460(13) 0.3750(10)
H36 H 1.1193 -0.0520 0.3457
Co1 Co 0.47537(17) 0.36423(14) 0.26952(12)
Co2 Co 0.76219(17) -0.34905(15) 0.48310(12)
Co3 Co 0.85818(17) -0.03117(14) 0.39695(12)
Co4 Co 0.78037(18) -0.17517(14) 0.47923(12)
Co5 Co 0.36328(17) 0.40740(14) 0.39626(12)
Co6 Co 0.09523(17) -0.01579(14) 0.14970(12)
Co7 Co 0.30316(18) 0.25971(14) -0.06311(12)
Co8 Co 0.19118(17) 0.30223(14) 0.06365(12)
Co9 Co 0.55307(18) 0.50913(14) 0.18772(12)
Co10 Co 0.11390(18) 0.15775(14) 0.14563(12)
Co11 Co 0.97018(17) -0.07364(15) 0.27023(12)
Co12 Co 0.42883(17) 0.31752(14) -0.18358(12)
Co13 Co 0.0000 0.0000 0.0000
Co14 Co 0.0000 0.5000 0.0000
Co15 Co 1.0000 0.0000 0.5000
Co16 Co 1.0000 -0.5000 0.5000
Co17 Co 0.6663(2) -0.33328(17) 0.33336(14)
Co18 Co 0.6665(2) 0.16660(17) 0.33310(15)
Co19 Co 0.3333(2) 0.33337(17) 0.16684(14)
Co20 Co 0.3336(2) -0.16668(17) 0.16658(14)
O12A O -0.0030(9) 0.1181(8) -0.0060(6)
O28A O -0.1481(9) 0.0463(7) -0.0026(6)
O75A O 0.0039(8) 0.0358(7) -0.1050(6)
O16A O -0.0515(8) 0.4201(7) 0.0703(6)
O17A O -0.0240(8) 0.5722(8) 0.0619(6)
O71A O -0.1394(8) 0.5670(7) -0.0453(6)
O20A O 0.9130(9) 0.0371(9) 0.5751(6)
O36A O 1.0810(9) -0.1110(7) 0.5678(6)
O52A O 1.0952(8) 0.0582(7) 0.5085(5)
O8A O 1.0133(9) -0.5797(7) 0.4450(6)
O24A O 1.0828(9) -0.4446(8) 0.4350(7)
O70A O 1.1230(8) -0.5848(7) 0.5641(6)
Co3A Co 1.14182(17) 0.03117(14) 0.60305(12)
Co8A Co -0.19118(17) 0.69777(14) -0.06365(12)
Co10A Co -0.11390(18) 0.84225(14) -0.14563(12)
O25A O 0.3462(8) 0.2952(6) 0.4562(5)
O30A O 0.3385(8) 0.1692(7) 0.4657(6)
C29A C 0.3780(13) 0.2239(8) 0.4452(8)
H29A H 0.4329 0.2107 0.4210
O27A O 0.6715(9) 0.5038(7) 0.1335(6)
O37A O 0.6806(9) 0.6292(8) 0.1222(6)
C15A C 0.7062(14) 0.5617(15) 0.1092(10)
H15A H 0.7546 0.5521 0.0793
O34_2 O 0.9850(9) 0.0378(7) 0.2094(6)
O40_2 O 0.9958(11) 0.1635(8) 0.2004(8)
C24_2 C 0.9624(13) 0.1076(15) 0.2209(10)
H24_2 H 0.9125 0.1186 0.2495
O39A O 1.0214(9) 0.1928(7) 0.6708(6)
O59A O 1.1104(8) 0.1622(6) 0.5862(6)
C26A C 1.0588(14) 0.2126(15) 0.6165(11)
H26A H 1.0475 0.2698 0.5968
O32A O -0.3103(8) 0.8580(7) 0.0068(6)
O79A O -0.2239(9) 0.8282(7) -0.0810(6)
C19A C -0.2737(13) 0.8805(10) -0.0488(8)
H19A H -0.2831 0.9374 -0.0674
O34A O 0.0150(9) 0.9622(7) -0.2094(6)
O40A O 0.0042(11) 0.8365(8) -0.2004(8)
C24A C 0.0376(13) 0.8924(15) -0.2209(10)
H24A H 0.0875 0.8814 -0.2495
Co2A Co 0.23781(17) 0.34905(15) 0.51690(12)
Co2A_2 Co 1.23781(17) -0.65095(15) 0.51690(12)
Co4A Co 0.21963(18) 0.17517(14) 0.52077(12)
Co4A_2 Co 1.21963(18) 0.17517(14) 0.52077(12)
Co5A Co 0.63672(17) -0.40740(14) 0.60374(12)
Co6_2 Co 1.09523(17) -0.01579(14) 0.14970(12)
Co6A Co -0.09523(17) 1.01579(14) -0.14970(12)
Co7A Co -0.30316(18) 0.74029(14) 0.06311(12)
Co7A_2 Co 0.69684(18) -0.25971(14) 0.06311(12)
Co9A Co 0.44693(18) 0.49087(14) -0.18772(12)
Co9_2 Co 0.55307(18) -0.49087(14) 0.18772(12)
Co10_2 Co 1.11390(18) 0.15775(14) 0.14563(12)
Co11A Co 1.02982(17) 0.07364(15) 0.72977(12)
Co11_2 Co -0.02982(17) -0.07364(15) 0.27023(12)
Co12A Co 0.57117(17) 0.68248(14) 0.18358(12)
Co12A_2 Co 0.57117(17) -0.31752(14) 0.18358(12)
O25A_2 O 1.3462(8) -0.7048(6) 0.4562(5)
O30A_2 O 1.3385(8) -0.8308(7) 0.4657(6)
C29A_2 C 1.3780(13) -0.7761(8) 0.4452(8)
H29A_2 H 1.4329 -0.7893 0.4210
O39A_2 O 0.0214(9) 0.1928(7) 0.6708(6)
O59A_2 O 0.1104(8) 0.1622(6) 0.5862(6)
C26A_2 C 0.0588(14) 0.2126(15) 0.6165(11)
H26A_2 H 0.0475 0.2698 0.5968
O53A O 0.6431(10) -0.5241(7) 0.6620(6)
O74A O 0.5577(8) -0.4956(7) 0.7467(5)
C21A C 0.6049(13) -0.5435(9) 0.7142(9)
H21A H 0.6119 -0.6001 0.7316
O27A_2 O -0.3285(9) 0.5038(7) 0.1335(6)
O37A_2 O -0.3194(9) 0.6292(8) 0.1222(6)
C15A_2 C -0.2938(14) 0.5617(15) 0.1092(10)
H15A_2 H -0.2454 0.5521 0.0793
O32A_2 O 0.6897(8) -0.1420(7) 0.0068(6)
O79A_2 O 0.7761(9) -0.1718(7) -0.0810(6)
C19A_2 C 0.7263(13) -0.1195(10) -0.0488(8)
H19A_2 H 0.7169 -0.0626 -0.0674
O53A_2 O 0.6431(10) 0.4759(7) -0.3380(6)
O74A_2 O 0.5577(8) 0.5044(7) -0.2533(5)
C21A_2 C 0.6049(13) 0.4565(9) -0.2858(9)
H21A_2 H 0.6119 0.3999 -0.2684
Co1A Co 0.52463(17) -0.36423(14) 0.73048(12)
Co1A_2 Co 0.52463(17) 0.63577(14) -0.26952(12)
Co3A_2 Co 0.14182(17) 0.03117(14) 0.60305(12)
Co5_2 Co 1.36328(17) -0.59260(14) 0.39626(12)
Co8A_2 Co 0.80882(17) -0.30223(14) -0.06365(12)
Co6A_2 Co -0.09523(17) 0.01579(14) -0.14970(12)
Co10A_2 Co -0.11390(18) -0.15775(14) -0.14563(12)
O46A O 0.2253(8) 0.4540(7) 0.4307(6)
O47A O 0.4178(9) 0.4174(8) 0.4753(6)
O60A O 0.0684(8) 0.1064(6) 0.0854(5)
O35A O 0.2484(9) 0.2484(8) -0.1420(6)
O49A O 0.4434(9) 0.2126(7) -0.0985(5)
O77A O 0.0591(8) 0.2912(6) 0.0957(6)
O67_2 O 0.4832(9) 0.6409(7) 0.1469(6)
O78_2 O 0.5996(8) 0.5579(7) 0.2489(5)
O29_2 O 1.1096(8) -0.1215(7) 0.2363(6)
O50_2 O 0.9149(9) -0.0840(7) 0.1905(6)
O64A O 0.3286(8) 0.2971(7) -0.2299(5)
O67A O 0.5168(9) 0.3591(7) -0.1469(6)
O72A O 0.5443(8) 0.2520(7) -0.2282(6)
O78A O 0.4004(8) 0.4421(7) -0.2489(5)
C30A C 0.0275(16) 0.1488(12) 0.0265(10)
C20A C -0.2171(14) 0.0796(13) -0.0426(10)
C31A C 0.0706(14) 0.0622(12) -0.1309(9)
C9A C -0.0202(15) 0.3403(13) 0.0947(10)
C27A C -0.0951(17) 0.6333(13) 0.0728(8)
C12A C -0.1811(12) 0.5236(10) -0.0585(8)
C36A C 0.9302(13) 0.0460(13) 0.6250(10)
C5A C 1.1545(13) -0.1401(11) 0.6042(9)
C34A C 1.1054(13) 0.1129(13) 0.4561(10)
C35A C 1.0673(14) -0.6546(13) 0.4496(10)
C23A C 1.1615(12) -0.4732(11) 0.4138(8)
C22A C 1.1173(13) -0.5876(11) 0.6248(9)
O42A O 1.1694(8) 0.0108(7) 0.7031(6)
O61A O 1.0074(8) 0.0485(7) 0.6446(5)
O66A O 1.1932(8) -0.0973(7) 0.6209(5)
O73A O 1.2747(8) 0.0423(7) 0.5717(5)
O44A O -0.1662(9) 0.6783(7) 0.0341(6)
O56A O -0.2406(7) 0.7277(6) -0.1581(6)
O57A O -0.3288(8) 0.7134(7) -0.0211(6)
O48A O -0.1797(9) 0.8226(7) -0.2147(6)
O60_2 O -0.0684(8) 0.8936(6) -0.0854(5)
O69A O -0.1838(8) 0.9730(6) -0.1875(6)
Co7A_3 Co 0.69684(18) 0.74029(14) 0.06311(12)
Co11A_2 Co 0.02982(17) 1.07364(15) -0.27023(12)
O55A O 0.1480(8) 0.3098(7) 0.4794(5)
O63A O 0.2676(9) 0.2235(7) 0.5841(6)
O68A O 0.3383(8) 0.3692(7) 0.5622(5)
O70A_2 O 0.1230(8) 0.4152(7) 0.5641(6)
O46A_2 O 1.2253(8) -0.5460(7) 0.4307(6)
O55A_2 O 1.1480(8) -0.6902(7) 0.4794(5)
O63A_2 O 1.2676(9) -0.7765(7) 0.5841(6)
O68A_2 O 1.3383(8) -0.6308(7) 0.5622(5)
O51A O 0.1550(8) 0.1560(7) 0.4519(5)
O73A_2 O 0.2747(8) 0.0423(7) 0.5717(5)
O30A_3 O 1.3385(8) 0.1692(7) 0.4657(6)
O51A_2 O 1.1550(8) 0.1560(7) 0.4519(5)
O55A_3 O 1.1480(8) 0.3098(7) 0.4794(5)
O63A_3 O 1.2676(9) 0.2235(7) 0.5841(6)
O45A O 0.4988(8) -0.3447(7) 0.6326(5)
O65A O 0.6596(8) -0.3804(7) 0.6882(6)
O54_2 O 1.2095(8) -0.0792(7) 0.1032(6)
O60A_2 O 1.0684(8) 0.1064(6) 0.0854(5)
O69_2 O 1.1838(8) 0.0270(6) 0.1875(6)
O75_2 O 0.9961(8) -0.0358(7) 0.1050(6)
O29A O -0.1096(8) 1.1215(7) -0.2363(6)
O54A O -0.2095(8) 1.0792(7) -0.1032(6)
O75A_2 O 0.0039(8) 1.0358(7) -0.1050(6)
O35_2 O -0.2484(9) 0.7516(8) 0.1420(6)
O49_2 O -0.4434(9) 0.7874(7) 0.0985(5)
O37A_3 O 0.6806(9) -0.3708(8) 0.1222(6)
O44A_2 O 0.8338(9) -0.3217(7) 0.0341(6)
O57A_2 O 0.6712(8) -0.2866(7) -0.0211(6)
O38A O 0.5113(10) 0.5099(7) -0.1176(6)
O62A O 0.3935(10) 0.6217(7) -0.2363(6)
O27A_3 O 0.6715(9) -0.4962(7) 0.1335(6)
O38_2 O 0.4887(10) -0.5099(7) 0.1176(6)
O62_2 O 0.6065(10) -0.6217(7) 0.2363(6)
O74_2 O 0.4423(8) -0.5044(7) 0.2533(5)
O48_2 O 1.1797(9) 0.1774(7) 0.2147(6)
O77A_2 O 1.0591(8) 0.2912(6) 0.0957(6)
O79_2 O 1.2239(9) 0.1718(7) 0.0810(6)
O29A_2 O 0.8904(8) 0.1215(7) 0.7637(6)
O34A_2 O 1.0150(9) -0.0378(7) 0.7906(6)
O50A O 1.0851(9) 0.0840(7) 0.8095(6)
O39_2 O -0.0214(9) -0.1928(7) 0.3292(6)
O42_2 O -0.1694(8) -0.0108(7) 0.2969(6)
O61_2 O -0.0074(8) -0.0485(7) 0.3554(5)
O49_3 O 0.5566(9) 0.7874(7) 0.0985(5)
O64_2 O 0.6714(8) 0.7029(7) 0.2299(5)
O72_2 O 0.4557(8) 0.7480(7) 0.2282(6)
Co4A_3 Co 1.21963(18) -0.82483(14) 0.52077(12)
Co11A_3 Co 0.02982(17) 0.07364(15) 0.72977(12)
Co9A_2 Co 0.44693(18) -0.50913(14) 0.81228(12)
Co9_3 Co -0.44693(18) 0.50913(14) 0.18772(12)
Co12A_3 Co -0.42883(17) 0.68248(14) 0.18358(12)
Co10A_3 Co 0.88610(18) -0.15775(14) -0.14563(12)
Co5A_2 Co 0.63672(17) 0.59260(14) -0.39626(12)
O58A O 0.5725(8) -0.3941(7) 0.8260(5)
O62A_2 O 0.3935(10) -0.3783(7) 0.7637(6)
O76A O 0.4727(8) -0.2338(7) 0.7113(6)
O45A_2 O 0.4988(8) 0.6553(7) -0.3674(5)
O58A_2 O 0.5725(8) 0.6059(7) -0.1740(5)
O65A_2 O 0.6596(8) 0.6196(7) -0.3118(6)
O76A_2 O 0.4727(8) 0.7662(7) -0.2887(6)
O42A_2 O 0.1694(8) 0.0108(7) 0.7031(6)
O52A_2 O 0.0952(8) 0.0582(7) 0.5085(5)
O61A_2 O 0.0074(8) 0.0485(7) 0.6446(5)
O66A_2 O 0.1932(8) -0.0973(7) 0.6209(5)
O45_2 O 1.5012(8) -0.6553(7) 0.3674(5)
O47A_2 O 1.4178(9) -0.5826(8) 0.4753(6)
O53_2 O 1.3569(10) -0.4759(7) 0.3380(6)
O65_2 O 1.3404(8) -0.6196(7) 0.3118(6)
O56A_2 O 0.7594(7) -0.2723(6) -0.1581(6)
O71A_2 O 0.8606(8) -0.4330(7) -0.0453(6)
O77_2 O 0.9409(8) -0.2912(6) -0.0957(6)
H30A H 0.0213 0.2051 0.0085
H20A H -0.2774 0.1062 -0.0283
H31A H 0.1109 0.0653 -0.1027
H9A H -0.0650 0.3174 0.1143
H27A H -0.0943 0.6453 0.1117
H12A H -0.1577 0.4655 -0.0372
H36A H 0.8807 0.0520 0.6543
H5A H 1.1837 -0.1988 0.6208
H34A H 1.0734 0.1215 0.4181
H35A H 1.0473 -0.6852 0.4305
H23A H 1.1770 -0.4343 0.3789
H22A H 1.0569 -0.5633 0.6401
O1 O -0.5717(17) -0.0127(13) -0.1471(11)
loop_
_geom_bond_atom_site_label_1
_geom_bond_atom_site_label_2
_geom_bond_site_symmetry_1
_geom_bond_site_symmetry_2
O8 C35 1_555 1_555
O9 C18 1_555 1_555
O10 C6 1_555 1_555
O11 C7 1_555 1_555
O12 C30 1_555 1_555
O13 C8 1_555 1_555
O14 C13 1_555 1_555
O15 C4 1_555 1_555
O16 C9 1_555 1_555
O17 C27 1_555 1_555
O18 C16 1_555 1_555
O19 C1 1_555 1_555
O20 C36 1_555 1_555
O21 C17 1_555 1_555
O22 C11 1_555 1_555
O23 C28 1_555 1_555
O24 C23 1_555 1_555
O25 C29 1_555 1_555
O26 C25 1_555 1_555
O27 C15 1_555 1_555
O28 C20 1_555 1_555
O29 C17 1_555 1_555
O30 C29 1_555 1_555
O31 C12 1_555 1_555
O32 C19 1_555 1_555
O33 C10 1_555 1_555
O34 C24 1_555 1_555
O35 C32 1_555 1_555
O36 C5 1_555 1_555
O37 C15 1_555 1_555
O38 C2 1_555 1_555
O39 C26 1_555 1_555
O40 C24 1_555 1_555
O41 C22 1_555 1_555
O42 C18 1_555 1_555
O43 C14 1_555 1_555
O44 C27 1_555 1_555
O45 C6 1_555 1_555
O46 C23 1_555 1_555
O47 C33 1_555 1_555
O48 C3 1_555 1_555
O49 C25 1_555 1_555
O50 C31 1_555 1_555
O51 C34 1_555 1_555
O52 C34 1_555 1_555
O53 C21 1_555 1_555
O54 C20 1_555 1_555
O55 C35 1_555 1_555
O56 C3 1_555 1_555
O57 C11 1_555 1_555
O58 C2 1_555 1_555
O59 C26 1_555 1_555
O60 C30 1_555 1_555
O61 C36 1_555 1_555
O62 C28 1_555 1_555
O63 C13 1_555 1_555
O64 C32 1_555 1_555
O65 C1 1_555 1_555
O66 C5 1_555 1_555
O67 C4 1_555 1_555
O68 C33 1_555 1_555
O69 C8 1_555 1_555
O70 C22 1_555 1_555
O71 C12 1_555 1_555
O72 C14 1_555 1_555
O73 C16 1_555 1_555
O74 C21 1_555 1_555
O75 C31 1_555 1_555
O76 C10 1_555 1_555
O77 C9 1_555 1_555
O78 C7 1_555 1_555
O79 C19 1_555 1_555
C1 H1 1_555 1_555
C2 H2 1_555 1_555
C3 H3 1_555 1_555
C4 H4 1_555 1_555
C5 H5 1_555 1_555
C6 H6 1_555 1_555
C7 H7 1_555 1_555
C8 H8 1_555 1_555
C9 H9 1_555 1_555
C10 H10 1_555 1_555
C11 H11 1_555 1_555
C12 H12 1_555 1_555
C13 H13 1_555 1_555
C14 H14 1_555 1_555
C15 H15 1_555 1_555
C16 H16 1_555 1_555
C17 H17 1_555 1_555
C18 H18 1_555 1_555
C19 H19 1_555 1_555
C20 H20 1_555 1_555
C21 H21 1_555 1_555
C22 H22 1_555 1_555
C23 H23 1_555 1_555
C24 H24 1_555 1_555
C25 H25 1_555 1_555
C26 H26 1_555 1_555
C27 H27 1_555 1_555
C28 H28 1_555 1_555
C29 H29 1_555 1_555
C30 H30 1_555 1_555
C31 H31 1_555 1_555
C32 H32 1_555 1_555
C33 H33 1_555 1_555
C34 H34 1_555 1_555
C35 H35 1_555 1_555
C36 H36 1_555 1_555
Co1 O45 1_555 1_555
Co2 O25 1_555 1_555
Co3 O42 1_555 1_555
Co4 O30 1_555 1_555
Co5 O45 1_555 1_555
Co6 O29 1_555 1_555
Co7 O32 1_555 1_555
Co8 O44 1_555 1_555
Co9 O38 1_555 1_555
Co10 O40 1_555 1_555
Co11 O39 1_555 1_555
Co12 O37 1_555 1_555
Co13 O12 1_555 1_555
Co14 O16 1_555 1_555
Co15 O20 1_555 1_555
Co16 O8 1_555 1_555
Co17 O11 1_555 1_555
Co18 O9 1_555 1_555
Co19 O19 1_555 1_555
Co20 O13 1_555 1_555
O12A Co13 1_555 1_555
O28A Co13 1_555 1_555
O75A Co13 1_555 1_555
O16A Co14 1_555 1_555
O17A Co14 1_555 1_555
O71A Co14 1_555 1_555
O20A Co15 1_555 1_555
O36A Co15 1_555 1_555
O52A Co15 1_555 1_555
O8A Co16 1_555 1_555
O24A Co16 1_555 1_555
O70A Co16 1_555 1_555
Co3A O52A 1_555 1_555
Co8A O77 1_555 1_555
Co10A O77 1_555 1_555
O25A Co5 1_555 1_555
O30A C29A 1_555 1_555
C29A O25A 1_555 1_555
H29A C29A 1_555 1_555
O27A Co9 1_555 1_555
O37A C15A 1_555 1_555
C15A O27A 1_555 1_555
H15A C15A 1_555 1_555
O34_2 Co11 1_555 1_555
O40_2 C24_2 1_555 1_555
C24_2 O34_2 1_555 1_555
H24_2 C24_2 1_555 1_555
O39A C26A 1_555 1_555
O59A Co3A 1_555 1_555
C26A O59A 1_555 1_555
H26A C26A 1_555 1_555
O32A C19A 1_555 1_555
O79A Co8A 1_555 1_555
C19A O79A 1_555 1_555
H19A C19A 1_555 1_555
O34A C24A 1_555 1_555
O40A Co10A 1_555 1_555
C24A O40A 1_555 1_555
H24A C24A 1_555 1_555
Co2A O25A 1_555 1_555
Co2A_2 O70A 1_555 1_555
Co4A O30A 1_555 1_555
Co4A_2 O59A 1_555 1_555
Co5A O25 1_555 1_555
Co6_2 O34_2 1_555 1_555
Co6A O34A 1_555 1_555
Co7A O32A 1_555 1_555
Co7A_2 O35 1_555 1_555
Co9A O27 1_555 1_555
Co9_2 O67 1_555 1_555
Co10_2 O40_2 1_555 1_555
Co11A O39A 1_555 1_555
Co11_2 O29 1_555 1_555
Co12A O37A 1_555 1_555
Co12A_2 O49 1_555 1_555
O25A_2 Co2A_2 1_555 1_555
O30A_2 C29A_2 1_555 1_555
C29A_2 O25A_2 1_555 1_555
H29A_2 C29A_2 1_555 1_555
O39A_2 C26A_2 1_555 1_555
O59A_2 Co4A 1_555 1_555
C26A_2 O59A_2 1_555 1_555
H26A_2 C26A_2 1_555 1_555
O53A Co5A 1_555 1_555
O74A C21A 1_555 1_555
C21A O53A 1_555 1_555
H21A C21A 1_555 1_555
O27A_2 C15A_2 1_555 1_555
O37A_2 Co7A 1_555 1_555
C15A_2 O37A_2 1_555 1_555
H15A_2 C15A_2 1_555 1_555
O32A_2 Co7A_2 1_555 1_555
O79A_2 C19A_2 1_555 1_555
C19A_2 O32A_2 1_555 1_555
H19A_2 C19A_2 1_555 1_555
O53A_2 C21A_2 1_555 1_555
O74A_2 Co9A 1_555 1_555
C21A_2 O74A_2 1_555 1_555
H21A_2 C21A_2 1_555 1_555
Co1A O74A 1_555 1_555
Co1A_2 O74A_2 1_555 1_555
Co3A_2 O59A_2 1_555 1_555
Co5_2 O25A_2 1_555 1_555
Co8A_2 O79A_2 1_555 1_555
Co6A_2 O60 1_555 1_555
Co10A_2 O60 1_555 1_555
O46A Co5 1_555 1_555
O47A Co5 1_555 1_555
O60A Co6 1_555 1_555
O35A Co7 1_555 1_555
O49A Co7 1_555 1_555
O77A Co8 1_555 1_555
O67_2 Co9 1_555 1_555
O78_2 Co9 1_555 1_555
O29_2 Co11 1_555 1_555
O50_2 Co11 1_555 1_555
O64A Co12 1_555 1_555
O67A Co12 1_555 1_555
O72A Co12 1_555 1_555
O78A Co12 1_555 1_555
C30A O12A 1_555 1_555
C20A O28A 1_555 1_555
C31A O75A 1_555 1_555
C9A O16A 1_555 1_555
C27A O17A 1_555 1_555
C12A O71A 1_555 1_555
C36A O20A 1_555 1_555
C5A O36A 1_555 1_555
C34A O52A 1_555 1_555
C35A O8A 1_555 1_555
C23A O24A 1_555 1_555
C22A O70A 1_555 1_555
O42A Co3A 1_555 1_555
O61A Co3A 1_555 1_555
O66A Co3A 1_555 1_555
O73A Co3A 1_555 1_555
O44A Co8A 1_555 1_555
O56A Co8A 1_555 1_555
O57A Co8A 1_555 1_555
O48A Co10A 1_555 1_555
O60_2 Co10A 1_555 1_555
O69A Co10A 1_555 1_555
Co7A_3 O37A 1_555 1_555
Co11A_2 O34A 1_555 1_555
O55A Co2A 1_555 1_555
O63A Co2A 1_555 1_555
O68A Co2A 1_555 1_555
O70A_2 Co2A 1_555 1_555
O46A_2 Co2A_2 1_555 1_555
O55A_2 Co2A_2 1_555 1_555
O63A_2 Co2A_2 1_555 1_555
O68A_2 Co2A_2 1_555 1_555
O51A Co4A 1_555 1_555
O73A_2 Co4A 1_555 1_555
O30A_3 Co4A_2 1_555 1_555
O51A_2 Co4A_2 1_555 1_555
O55A_3 Co4A_2 1_555 1_555
O63A_3 Co4A_2 1_555 1_555
O45A Co5A 1_555 1_555
O65A Co5A 1_555 1_555
O54_2 Co6_2 1_555 1_555
O60A_2 Co6_2 1_555 1_555
O69_2 Co6_2 1_555 1_555
O75_2 Co6_2 1_555 1_555
O29A Co6A 1_555 1_555
O54A Co6A 1_555 1_555
O75A_2 Co6A 1_555 1_555
O35_2 Co7A 1_555 1_555
O49_2 Co7A 1_555 1_555
O37A_3 Co7A_2 1_555 1_555
O44A_2 Co7A_2 1_555 1_555
O57A_2 Co7A_2 1_555 1_555
O38A Co9A 1_555 1_555
O62A Co9A 1_555 1_555
O27A_3 Co9_2 1_555 1_555
O38_2 Co9_2 1_555 1_555
O62_2 Co9_2 1_555 1_555
O74_2 Co9_2 1_555 1_555
O48_2 Co10_2 1_555 1_555
O77A_2 Co10_2 1_555 1_555
O79_2 Co10_2 1_555 1_555
O29A_2 Co11A 1_555 1_555
O34A_2 Co11A 1_555 1_555
O50A Co11A 1_555 1_555
O39_2 Co11_2 1_555 1_555
O42_2 Co11_2 1_555 1_555
O61_2 Co11_2 1_555 1_555
O49_3 Co12A 1_555 1_555
O64_2 Co12A 1_555 1_555
O72_2 Co12A 1_555 1_555
Co4A_3 O30A_2 1_555 1_555
Co11A_3 O39A_2 1_555 1_555
Co9A_2 O74A 1_555 1_555
Co9_3 O27A_2 1_555 1_555
Co12A_3 O37A_2 1_555 1_555
Co10A_3 O79A_2 1_555 1_555
Co5A_2 O53A_2 1_555 1_555
O58A Co1A 1_555 1_555
O62A_2 Co1A 1_555 1_555
O76A Co1A 1_555 1_555
O45A_2 Co1A_2 1_555 1_555
O58A_2 Co1A_2 1_555 1_555
O65A_2 Co1A_2 1_555 1_555
O76A_2 Co1A_2 1_555 1_555
O42A_2 Co3A_2 1_555 1_555
O52A_2 Co3A_2 1_555 1_555
O61A_2 Co3A_2 1_555 1_555
O66A_2 Co3A_2 1_555 1_555
O45_2 Co5_2 1_555 1_555
O47A_2 Co5_2 1_555 1_555
O53_2 Co5_2 1_555 1_555
O65_2 Co5_2 1_555 1_555
O56A_2 Co8A_2 1_555 1_555
O71A_2 Co8A_2 1_555 1_555
O77_2 Co8A_2 1_555 1_555
H30A C30A 1_555 1_555
H20A C20A 1_555 1_555
H31A C31A 1_555 1_555
H9A C9A 1_555 1_555
H27A C27A 1_555 1_555
H12A C12A 1_555 1_555
H36A C36A 1_555 1_555
H5A C5A 1_555 1_555
H34A C34A 1_555 1_555
H35A C35A 1_555 1_555
H23A C23A 1_555 1_555
H22A C22A 1_555 1_555
O10 Co18 1_555 1_555
O14 Co17 1_555 1_555
O15 Co20 1_555 1_555
O17 Co14 1_555 1_555
O18 Co18 1_555 1_555
O21 Co20 1_555 1_555
O22 Co19 1_555 1_555
O23 Co18 1_555 1_555
O24 Co16 1_555 1_555
O26 Co20 1_555 1_555
O28 Co13 1_555 1_555
O31 Co19 1_555 1_555
O33 Co19 1_555 1_555
O34 Co6 1_555 1_555
O34 Co11_2 1_555 1_555
O36 Co15 1_555 1_555
O37 Co7 1_555 1_555
O41 Co17 1_555 1_555
O42 Co11 1_555 1_555
O43 Co17 1_555 1_555
O44 Co7 1_555 1_555
O46 Co2 1_555 1_555
O46 Co5A 1_555 1_555
O47 Co5A 1_555 1_555
O48 Co10 1_555 1_555
O49 Co7A_2 1_555 1_555
O50 Co11_2 1_555 1_555
O51 Co4 1_555 1_555
O52 Co3 1_555 1_555
O52 Co15 1_555 1_555
O53 Co5 1_555 1_555
O54 Co6 1_555 1_555
O54 Co20 1_555 1_555
O55 Co2 1_555 1_555
O55 Co4 1_555 1_555
O56 Co8 1_555 1_555
O56 Co19 1_555 1_555
O57 Co7 1_555 1_555
O57 Co8 1_555 1_555
O58 Co1 1_555 1_555
O58 Co19 1_555 1_555
O59 Co3 1_555 1_555
O59 Co4 1_555 1_555
O61 Co3 1_555 1_555
O61 Co11 1_555 1_555
O62 Co1 1_555 1_555
O62 Co9 1_555 1_555
O63 Co2 1_555 1_555
O63 Co4 1_555 1_555
O64 Co17 1_555 1_555
O64 Co12A_2 1_555 1_555
O65 Co1 1_555 1_555
O65 Co5 1_555 1_555
O66 Co3 1_555 1_555
O66 Co18 1_555 1_555
O67 Co12A_2 1_555 1_555
O68 Co2 1_555 1_555
O68 Co17 1_555 1_555
O69 Co6 1_555 1_555
O69 Co10 1_555 1_555
O70 Co2 1_555 1_555
O70 Co16 1_555 1_555
O71 Co8 1_555 1_555
O71 Co14 1_555 1_555
O72 Co20 1_555 1_555
O72 Co12A_2 1_555 1_555
O73 Co3 1_555 1_555
O73 Co4 1_555 1_555
O74 Co1 1_555 1_555
O74 Co9 1_555 1_555
O75 Co6 1_555 1_555
O75 Co13 1_555 1_555
O76 Co1 1_555 1_555
O76 Co18 1_555 1_555
O78 Co9_2 1_555 1_555
O78 Co12A_2 1_555 1_555
O79 Co8 1_555 1_555
O79 Co10 1_555 1_555
Co10 O60A 1_555 1_555
Co10 O77A 1_555 1_555
Co12 O49A 1_555 1_555
O75A Co6A_2 1_555 1_555
O71A Co8A 1_555 1_555
Co10A O79A 1_555 1_555
Co2A O46A 1_555 1_555
Co4A O55A 1_555 1_555
Co4A O63A 1_555 1_555
Co4A_2 O73A 1_555 1_555
Co6_2 O29_2 1_555 1_555
Co6A O60_2 1_555 1_555
Co6A O69A 1_555 1_555
Co7A O44A 1_555 1_555
Co7A O57A 1_555 1_555
Co9A O67A 1_555 1_555
Co9A O78A 1_555 1_555
Co10_2 O60A_2 1_555 1_555
Co10_2 O69_2 1_555 1_555
Co11A O42A 1_555 1_555
Co11A O61A 1_555 1_555
Co12A O67_2 1_555 1_555
Co12A O78_2 1_555 1_555
Co12A_2 O37A_3 1_555 1_555
Co1A O45A 1_555 1_555
Co1A O65A 1_555 1_555
Co1A_2 O62A 1_555 1_555
Co3A_2 O73A_2 1_555 1_555
Co5_2 O46A_2 1_555 1_555
Co8A_2 O44A_2 1_555 1_555
Co8A_2 O57A_2 1_555 1_555
O60A C30A 1_555 1_555
O77A C9A 1_555 1_555
C27A O44A 1_555 1_555
C36A O61A 1_555 1_555
C5A O66A 1_555 1_555
C34A O51A_2 1_555 1_555
C35A O55A_2 1_555 1_555
C23A O46A_2 1_555 1_555
Co7A_3 O49_3 1_555 1_555
Co11A_2 O29A 1_555 1_555
O55A_2 Co4A_3 1_555 1_555
O63A_2 Co4A_3 1_555 1_555
O49_2 Co12A_3 1_555 1_555
Co11A_3 O42A_2 1_555 1_555
Co11A_3 O61A_2 1_555 1_555
Co9A_2 O62A_2 1_555 1_555
Co10A_3 O77_2 1_555 1_555
Co5A_2 O45A_2 1_555 1_555
Co5A_2 O65A_2 1_555 1_555

#END
