
#######################################################################
#
#                 Cambridge Crystallographic Data Centre
#                                CCDC 
#
#######################################################################
#
# If this CIF has been generated from an entry in the Cambridge 
# Structural Database, then it will include bibliographic, chemical, 
# crystal, experimental, refinement or atomic coordinate data resulting 
# from the CCDC's data processing and validation procedures.
#
#######################################################################

data_RAVFEB
_chemical_formula_moiety         'C25 H18 N3 O14 Tm1 1+'
_symmetry_cell_setting           orthorhombic
_symmetry_space_group_name_H-M   'P b c n'
_symmetry_Int_Tables_number      60
_space_group_name_Hall           '-P 2n 2ab'
loop_
_symmetry_equiv_pos_site_id
_symmetry_equiv_pos_as_xyz
1 x,y,z
2 1/2-x,1/2-y,1/2+z
3 -x,y,1/2-z
4 1/2+x,1/2-y,-z
5 -x,-y,-z
6 1/2+x,1/2+y,1/2-z
7 x,-y,1/2+z
8 1/2-x,1/2+y,z
_cell_length_a                   15.6958(5)
_cell_length_b                   10.6984(3)
_cell_length_c                   23.2644(7)
_cell_angle_alpha                90
_cell_angle_beta                 90
_cell_angle_gamma                90
_cell_volume                     3906.56
loop_
_atom_site_label
_atom_site_type_symbol
_atom_site_fract_x
_atom_site_fract_y
_atom_site_fract_z
C18 C 0.1084(3) 0.0404(5) 0.4023(2)
H9 H 0.1362 0.0206 0.3657
H10 H 0.0649 0.1047 0.3960
H11 H 0.0815 -0.0351 0.4178
C19 C 0.1335(2) 0.1192(4) 0.49939(15)
H12 H 0.1776 0.1494 0.5258
H13 H 0.1063 0.0448 0.5157
H14 H 0.0906 0.1847 0.4938
N1 N 0.1727(2) 0.0873(3) 0.44353(14)
H15 H 0.2001(14) 0.1553(19) 0.4284(5)
H16 H 0.2167(10) 0.034(2) 0.4474(7)
C20 C 0.5000 -0.1204(8) 0.2500
N2 N 0.5716(8) -0.1498(11) 0.2623(5)
N2B N 0.4284(8) -0.1498(11) 0.2377(5)
Tm1 Tm 0.547839(8) 0.030629(12) 0.084134(5)
C1 C 0.40597(19) 0.2501(3) 0.20308(13)
C2 C 0.38275(18) 0.2029(3) 0.25600(13)
H1 H 0.4003 0.1214 0.2670
C3 C 0.33362(19) 0.2749(3) 0.29325(12)
C4 C 0.30754(19) 0.3929(3) 0.27620(13)
H2 H 0.2715 0.4402 0.3008
C5 C 0.33299(19) 0.4438(3) 0.22371(13)
C6 C 0.38220(19) 0.3713(3) 0.18731(13)
H3 H 0.4000 0.4041 0.1513
C7 C 0.3096(2) 0.5779(3) 0.20910(13)
H4 H 0.2534 0.5965 0.2265
H5 H 0.3518 0.6339 0.2274
C8 C 0.30529(19) 0.6098(3) 0.14590(13)
C9 C 0.23550(19) 0.5729(3) 0.11281(13)
H6 H 0.1908 0.5264 0.1302
C10 C 0.23047(18) 0.6031(3) 0.05457(13)
C11 C 0.29650(18) 0.6713(3) 0.02919(13)
H7 H 0.2945 0.6899 -0.0107
C12 C 0.36495(19) 0.7117(3) 0.06201(13)
C13 C 0.36922(19) 0.6806(3) 0.12003(13)
H8 H 0.4164 0.7079 0.1423
C14 C 0.45715(19) 0.1742(3) 0.16140(13)
C15 C 0.3077(2) 0.2219(3) 0.35073(13)
C16 C 0.15502(19) 0.5667(3) 0.01886(13)
C17 C 0.43058(19) 0.7953(3) 0.03476(13)
O1 O 0.49112(14) 0.2262(2) 0.11940(9)
O2 O 0.46495(13) 0.0563(2) 0.16900(9)
O3 O 0.65783(13) 0.1227(2) 0.13257(9)
O4 O 0.25138(18) 0.2770(3) 0.37920(11)
O5 O 0.41593(13) 0.0542(2) 0.04274(10)
O6 O 0.66683(13) -0.0514(2) 0.03448(9)
O7 O 0.57971(13) 0.1790(2) 0.01735(9)
O8 O 0.49058(13) -0.1657(2) 0.06598(9)
O9 O 0.60484(14) -0.1173(2) 0.14948(10)
H17 H 0.593(3) -0.124(5) 0.1862(7)
H18 H 0.6550(17) -0.153(5) 0.1440(18)
C15B C 0.6923(2) 0.2219(3) 0.14927(13)
C16G C 0.34498(19) 0.0667(3) 0.01886(13)
C16C C 0.65502(19) -0.0667(3) -0.01886(13)
C17D C 0.56942(19) 0.2047(3) -0.03476(13)
C17_2 C 0.43058(19) -0.2047(3) 0.03476(13)
O3B O 0.34217(13) 0.1227(2) 0.36743(9)
O5G O 0.08407(13) 0.5542(2) 0.04274(10)
O6C O 0.16683(13) 0.5514(2) -0.03448(9)
O7D O 0.42029(13) 0.8210(2) -0.01735(9)
O8_2 O 0.49058(13) 0.8343(2) 0.06598(9)
loop_
_geom_bond_atom_site_label_1
_geom_bond_atom_site_label_2
_geom_bond_site_symmetry_1
_geom_bond_site_symmetry_2
Tm1 O1 1_555 1_555
C1 C2 1_555 1_555
C2 H1 1_555 1_555
C3 C2 1_555 1_555
C4 C3 1_555 1_555
H2 C4 1_555 1_555
C5 C4 1_555 1_555
C6 C1 1_555 1_555
H3 C6 1_555 1_555
C7 C5 1_555 1_555
H4 C7 1_555 1_555
H5 C7 1_555 1_555
C8 C7 1_555 1_555
C9 C8 1_555 1_555
H6 C9 1_555 1_555
C10 C9 1_555 1_555
C11 C10 1_555 1_555
H7 C11 1_555 1_555
C12 C11 1_555 1_555
C13 C8 1_555 1_555
H8 C13 1_555 1_555
C14 C1 1_555 1_555
C15 C3 1_555 1_555
C16 C10 1_555 1_555
C17 C12 1_555 1_555
C18 H9 1_555 1_555
H10 C18 1_555 1_555
H11 C18 1_555 1_555
C19 H12 1_555 1_555
H13 C19 1_555 1_555
H14 C19 1_555 1_555
N1 C18 1_555 1_555
O1 C14 1_555 1_555
O2 Tm1 1_555 1_555
O3 Tm1 1_555 1_555
O4 C15 1_555 1_555
O5 Tm1 1_555 1_555
O6 Tm1 1_555 1_555
O7 Tm1 1_555 1_555
O8 Tm1 1_555 1_555
O9 Tm1 1_555 1_555
C20 N2 1_555 1_555
H15 N1 1_555 1_555
H16 N1 1_555 1_555
H17 O9 1_555 1_555
H18 O9 1_555 1_555
C15B O3 1_555 1_555
C16G O5 1_555 1_555
C16C O6 1_555 1_555
C17D O7 1_555 1_555
C17_2 O8 1_555 1_555
O3B C15 1_555 1_555
O5G C16 1_555 1_555
O6C C16 1_555 1_555
O7D C17 1_555 1_555
O8_2 C17 1_555 1_555
N2B C20 1_555 1_555
C5 C6 1_555 1_555
C12 C13 1_555 1_555
C14 O2 1_555 1_555
C19 N1 1_555 1_555

#END
