
#######################################################################
#
#                 Cambridge Crystallographic Data Centre
#                                CCDC 
#
#######################################################################
#
# If this CIF has been generated from an entry in the Cambridge 
# Structural Database, then it will include bibliographic, chemical, 
# crystal, experimental, refinement or atomic coordinate data resulting 
# from the CCDC's data processing and validation procedures.
#
#######################################################################

data_RAVFIF
_chemical_formula_moiety         '(C21 H25 N2 O9 Yb1)n'
_symmetry_cell_setting           orthorhombic
_symmetry_space_group_name_H-M   'P b c n'
_symmetry_Int_Tables_number      60
_space_group_name_Hall           '-P 2n 2ab'
loop_
_symmetry_equiv_pos_site_id
_symmetry_equiv_pos_as_xyz
1 x,y,z
2 1/2-x,1/2-y,1/2+z
3 -x,y,1/2-z
4 1/2+x,1/2-y,-z
5 -x,-y,-z
6 1/2+x,1/2+y,1/2-z
7 x,-y,1/2+z
8 1/2-x,1/2+y,z
_cell_length_a                   15.6733(5)
_cell_length_b                   10.7028(3)
_cell_length_c                   23.2631(7)
_cell_angle_alpha                90
_cell_angle_beta                 90
_cell_angle_gamma                90
_cell_volume                     3902.34
loop_
_atom_site_label
_atom_site_type_symbol
_atom_site_fract_x
_atom_site_fract_y
_atom_site_fract_z
Yb1 Yb 0.951891(7) 0.030478(11) 0.084343(5)
C1 C 1.09356(18) 0.2498(3) 0.20281(13)
C2 C 1.11692(17) 0.2022(3) 0.25598(12)
H1 H 1.0994 0.1206 0.2670
C3 C 1.16623(18) 0.2744(3) 0.29340(12)
C4 C 1.19227(19) 0.3937(3) 0.27624(12)
H2 H 1.2281 0.4413 0.3008
C5 C 1.16660(19) 0.4440(3) 0.22374(13)
C6 C 1.11707(19) 0.3713(3) 0.18740(13)
H3 H 1.0989 0.4044 0.1516
C7 C 1.1896(2) 0.5781(3) 0.20925(12)
H4 H 1.1473 0.6338 0.2277
H5 H 1.2459 0.5969 0.2266
C8 C 1.19361(19) 0.6100(3) 0.14593(12)
C9 C 1.26393(19) 0.5732(3) 0.11280(13)
H6 H 1.3087 0.5269 0.1302
C10 C 1.26902(18) 0.6033(3) 0.05481(12)
C11 C 1.20360(18) 0.6713(3) 0.02914(12)
H7 H 1.2060 0.6898 -0.0108
C12 C 1.13464(18) 0.7124(3) 0.06186(12)
C13 C 1.13053(19) 0.6809(3) 0.11979(12)
H8 H 1.0833 0.7086 0.1420
C14 C 1.04249(18) 0.1741(3) 0.16149(13)
C15 C 1.19254(19) 0.2217(3) 0.35098(13)
C16 C 1.34528(18) 0.5675(3) 0.01936(13)
C17 C 1.06924(18) 0.7963(3) 0.03468(13)
O1 O 1.00803(14) 0.22655(19) 0.11944(9)
O2 O 1.03422(13) 0.05608(19) 0.16900(9)
O3 O 1.15772(13) 0.1221(2) 0.36745(9)
O4 O 1.24835(17) 0.2771(3) 0.37966(10)
O5 O 1.41612(13) 0.55481(19) 0.04336(9)
O6 O 1.33394(13) 0.55204(19) -0.03424(9)
O7 O 1.08014(13) 0.82205(19) -0.01756(8)
O8 O 1.00914(13) 0.83522(19) 0.06570(9)
O9 O 0.89533(14) -0.1173(2) 0.14920(9)
H17 H 0.9095(18) -0.128(3) 0.1852(6)
H18 H 0.8433(11) -0.146(3) 0.1442(12)
Yb1B Yb 1.048109(7) 0.030478(11) 0.415657(5)
Yb1G Yb 1.548109(7) 0.530478(11) 0.084343(5)
Yb1C Yb 1.451891(7) 0.469522(11) -0.084343(5)
Yb1D Yb 1.048109(7) 0.969522(11) -0.084343(5)
Yb1_2 Yb 0.951891(7) 1.030478(11) 0.084343(5)
O3B O 0.84228(13) 0.1221(2) 0.13255(9)
O5G O 1.08388(13) 0.05481(19) 0.04336(9)
O6C O 0.83394(13) -0.05204(19) 0.03424(9)
O7D O 0.91986(13) 0.17795(19) 0.01756(8)
O8_2 O 1.00914(13) -0.16478(19) 0.06570(9)
C18 C 1.3910(3) 0.0404(5) 0.4025(2)
H9 H 1.3626 0.0172 0.3665
H10 H 1.4197 -0.0330 0.4187
H11 H 1.4332 0.1059 0.3949
C19 C 1.3666(2) 0.1188(3) 0.49961(15)
H12 H 1.3225 0.1498 0.5259
H13 H 1.4099 0.1836 0.4939
H14 H 1.3933 0.0441 0.5160
N1 N 1.3272(2) 0.0871(3) 0.44368(14)
H15 H 1.2989(13) 0.1546(19) 0.4290(5)
H16 H 1.2828(9) 0.034(2) 0.4477(7)
N2 N 1.0000 -0.1232(9) 0.2500
C20 C 1.1148(6) -0.1142(11) 0.2298(5)
C20B C 0.8852(6) -0.1142(11) 0.2702(5)
loop_
_geom_bond_atom_site_label_1
_geom_bond_atom_site_label_2
_geom_bond_site_symmetry_1
_geom_bond_site_symmetry_2
Yb1 O1 1_555 1_555
C1 C2 1_555 1_555
C2 H1 1_555 1_555
C3 C2 1_555 1_555
C4 C3 1_555 1_555
H2 C4 1_555 1_555
C5 C4 1_555 1_555
C6 C1 1_555 1_555
H3 C6 1_555 1_555
C7 C5 1_555 1_555
H4 C7 1_555 1_555
H5 C7 1_555 1_555
C8 C7 1_555 1_555
C9 C8 1_555 1_555
H6 C9 1_555 1_555
C10 C9 1_555 1_555
C11 C10 1_555 1_555
H7 C11 1_555 1_555
C12 C11 1_555 1_555
C13 C8 1_555 1_555
H8 C13 1_555 1_555
C14 C1 1_555 1_555
C15 C3 1_555 1_555
C16 C10 1_555 1_555
C17 C12 1_555 1_555
C18 H9 1_555 1_555
H10 C18 1_555 1_555
H11 C18 1_555 1_555
C19 H12 1_555 1_555
H13 C19 1_555 1_555
H14 C19 1_555 1_555
N1 C18 1_555 1_555
H15 N1 1_555 1_555
H16 N1 1_555 1_555
O1 C14 1_555 1_555
O2 Yb1 1_555 1_555
O3 C15 1_555 1_555
O4 C15 1_555 1_555
O5 C16 1_555 1_555
O6 C16 1_555 1_555
O7 C17 1_555 1_555
O8 C17 1_555 1_555
O9 Yb1 1_555 1_555
H17 O9 1_555 1_555
H18 O9 1_555 1_555
N2 C20 1_555 1_555
Yb1B O3 1_555 1_555
Yb1G O5 1_555 1_555
Yb1C O6 1_555 1_555
Yb1D O7 1_555 1_555
Yb1_2 O8 1_555 1_555
O3B Yb1 1_555 1_555
O5G Yb1 1_555 1_555
O6C Yb1 1_555 1_555
O7D Yb1 1_555 1_555
O8_2 Yb1 1_555 1_555
C20B N2 1_555 1_555
C5 C6 1_555 1_555
C12 C13 1_555 1_555
C14 O2 1_555 1_555
C19 N1 1_555 1_555

#END
