
#######################################################################
#
#                 Cambridge Crystallographic Data Centre
#                                CCDC 
#
#######################################################################
#
# If this CIF has been generated from an entry in the Cambridge 
# Structural Database, then it will include bibliographic, chemical, 
# crystal, experimental, refinement or atomic coordinate data resulting 
# from the CCDC's data processing and validation procedures.
#
#######################################################################

data_LUPCOQ
_chemical_formula_moiety         '(C24 H14 Cl4 N4 O9 Zn2)n'
_symmetry_cell_setting           monoclinic
_symmetry_space_group_name_H-M   'C 2/c'
_symmetry_Int_Tables_number      15
_space_group_name_Hall           '-C 2yc'
loop_
_symmetry_equiv_pos_site_id
_symmetry_equiv_pos_as_xyz
1 x,y,z
2 -x,y,1/2-z
3 1/2+x,1/2+y,z
4 1/2-x,1/2+y,1/2-z
5 -x,-y,-z
6 x,-y,1/2+z
7 1/2-x,1/2-y,-z
8 1/2+x,1/2-y,1/2+z
_cell_length_a                   14.8972(5)
_cell_length_b                   16.8530(4)
_cell_length_c                   14.5964(5)
_cell_angle_alpha                90
_cell_angle_beta                 119.614(5)
_cell_angle_gamma                90
_cell_volume                     3185.92
loop_
_atom_site_label
_atom_site_type_symbol
_atom_site_fract_x
_atom_site_fract_y
_atom_site_fract_z
_atom_site_U_iso_or_equiv
_atom_site_thermal_displace_type
Zn1 Zn 0.40533(3) 0.12229(2) 0.29006(3) 0.0236 Uani
N1 N 0.32422(18) -0.04368(15) -0.16101(19) 0.0260 Uani
N2 N 0.78017(19) 0.29172(15) 0.7410(2) 0.0273 Uani
O1 O 0.33172(15) 0.07818(13) 0.13640(16) 0.0267 Uani
O2 O 0.47658(15) 0.03702(13) 0.13967(17) 0.0307 Uani
O3 O 0.48605(17) 0.17723(14) 0.44656(17) 0.0321 Uani
O4 O 0.5899(2) 0.26319(15) 0.42656(19) 0.0424 Uani
O5 O 0.5000 0.19262(17) 0.2500 0.0244 Uani
H1 H 0.5290 0.2198 0.3064 0.0370 Uiso
C1 C 0.3816(2) 0.04924(17) 0.0953(2) 0.0245 Uani
C2 C 0.3224(2) 0.02913(18) -0.0208(2) 0.0249 Uani
C3 C 0.2338(2) 0.06873(18) -0.0916(2) 0.0274 Uani
H2 H 0.2017 0.1048 -0.0689 0.0330 Uiso
C4 C 0.1947(2) 0.05270(19) -0.1972(2) 0.0285 Uani
C5 C 0.2401(2) -0.00345(19) -0.2304(2) 0.0287 Uani
H3 H 0.2119 -0.0135 -0.3021 0.0350 Uiso
C6 C 0.3651(2) -0.02641(18) -0.0585(2) 0.0262 Uani
H4 H 0.4248 -0.0528 -0.0104 0.0310 Uiso
C7 C 0.5624(2) 0.22364(18) 0.4807(2) 0.0274 Uani
C8 C 0.6298(2) 0.23106(18) 0.5990(2) 0.0257 Uani
C9 C 0.6111(2) 0.1901(2) 0.6695(3) 0.0323 Uani
H5 H 0.5549 0.1561 0.6464 0.0390 Uiso
C10 C 0.6786(3) 0.2013(2) 0.7758(3) 0.0347 Uani
C11 C 0.7617(3) 0.25293(19) 0.8096(3) 0.0325 Uani
H6 H 0.8052 0.2606 0.8815 0.0390 Uiso
C12 C 0.7157(2) 0.28051(19) 0.6379(2) 0.0270 Uani
H7 H 0.7290 0.3070 0.5900 0.0320 Uiso
Cl1 Cl 0.08811(6) 0.10563(6) -0.29348(6) 0.0396 Uani
Cl2 Cl 0.66130(8) 0.15075(7) 0.87079(8) 0.0604 Uani
H1A H 0.4710 0.2198 0.1936 0.0370 Uiso
Zn1A Zn 0.59467(3) 0.12229(2) 0.20994(3) 0.0236 Uani
N1A N 0.67578(18) -0.04368(15) 0.66101(19) 0.0260 Uani
N2A N 0.21983(19) 0.29172(15) -0.2410(2) 0.0273 Uani
O1A O 0.66828(15) 0.07818(13) 0.36360(16) 0.0267 Uani
O2A O 0.52342(15) 0.03702(13) 0.36033(17) 0.0307 Uani
O3A O 0.51395(17) 0.17723(14) 0.05344(17) 0.0321 Uani
O4A O 0.4101(2) 0.26319(15) 0.07344(19) 0.0424 Uani
C1A C 0.6184(2) 0.04924(17) 0.4047(2) 0.0245 Uani
C2A C 0.6776(2) 0.02913(18) 0.5208(2) 0.0249 Uani
C3A C 0.7662(2) 0.06873(18) 0.5916(2) 0.0274 Uani
H2A H 0.7983 0.1048 0.5689 0.0330 Uiso
C4A C 0.8053(2) 0.05270(19) 0.6972(2) 0.0285 Uani
C5A C 0.7599(2) -0.00345(19) 0.7304(2) 0.0287 Uani
H3A H 0.7881 -0.0135 0.8021 0.0350 Uiso
C6A C 0.6349(2) -0.02641(18) 0.5585(2) 0.0262 Uani
H4A H 0.5752 -0.0528 0.5104 0.0310 Uiso
C7A C 0.4376(2) 0.22364(18) 0.0193(2) 0.0274 Uani
C8A C 0.3702(2) 0.23106(18) -0.0990(2) 0.0257 Uani
C9A C 0.3889(2) 0.1901(2) -0.1695(3) 0.0323 Uani
H5A H 0.4451 0.1561 -0.1464 0.0390 Uiso
C10A C 0.3214(3) 0.2013(2) -0.2758(3) 0.0347 Uani
C11A C 0.2383(3) 0.25293(19) -0.3096(3) 0.0325 Uani
H6A H 0.1948 0.2606 -0.3815 0.0390 Uiso
C12A C 0.2843(2) 0.28051(19) -0.1379(2) 0.0270 Uani
H7A H 0.2710 0.3070 -0.0900 0.0320 Uiso
Cl1A Cl 0.91189(6) 0.10563(6) 0.79348(6) 0.0396 Uani
Cl2A Cl 0.33870(8) 0.15075(7) -0.37079(8) 0.0604 Uani
Zn1D Zn 0.59467(3) -0.12229(2) 0.70994(3) 0.0236 Uani
Zn1E Zn 0.40533(3) -0.12229(2) -0.20994(3) 0.0236 Uani
Zn1F Zn 0.09467(3) 0.37771(2) -0.29006(3) 0.0236 Uani
Zn1G Zn 0.90533(3) 0.37771(2) 0.79006(3) 0.0236 Uani
N1D N 0.67578(18) 0.04368(15) 0.16101(19) 0.0260 Uani
N1E N 0.32422(18) 0.04368(15) 0.33899(19) 0.0260 Uani
N2F N 0.71983(19) 0.20828(15) 0.2590(2) 0.0273 Uani
N2G N 0.28017(19) 0.20828(15) 0.2410(2) 0.0273 Uani
loop_
_atom_site_aniso_label
_atom_site_aniso_U_11
_atom_site_aniso_U_22
_atom_site_aniso_U_33
_atom_site_aniso_U_23
_atom_site_aniso_U_13
_atom_site_aniso_U_12
Zn1 0.0221(2) 0.0279(2) 0.0195(2) 0.00238(14) 0.00925(18) 0.00073(14)
N1 0.0235(12) 0.0310(13) 0.0237(12) -0.0031(10) 0.0118(10) 0.0003(10)
N2 0.0262(12) 0.0303(13) 0.0223(12) -0.0028(10) 0.0097(10) -0.0049(10)
O1 0.0267(10) 0.0315(11) 0.0209(10) -0.0016(8) 0.0111(9) 0.0037(8)
O2 0.0234(10) 0.0382(12) 0.0263(11) -0.0087(9) 0.0091(9) -0.0007(9)
O3 0.0298(11) 0.0391(12) 0.0223(11) -0.0046(9) 0.0089(9) -0.0100(9)
O4 0.0483(15) 0.0493(15) 0.0239(12) -0.0050(10) 0.0134(12) -0.0221(12)
O5 0.0247(14) 0.0292(15) 0.0168(13) 0.000 0.0083(12) 0.000
C1 0.0292(14) 0.0235(14) 0.0209(14) -0.0019(11) 0.0125(12) -0.0016(11)
C2 0.0254(13) 0.0277(14) 0.0225(14) 0.0000(11) 0.0125(12) -0.0017(11)
C3 0.0249(14) 0.0294(15) 0.0287(15) -0.0020(12) 0.0138(12) 0.0018(11)
C4 0.0225(13) 0.0349(16) 0.0268(15) -0.0001(12) 0.0111(12) 0.0036(12)
C5 0.0266(14) 0.0374(16) 0.0197(14) -0.0045(12) 0.0095(12) -0.0012(12)
C6 0.0243(14) 0.0278(14) 0.0245(15) -0.0014(11) 0.0105(12) 0.0002(11)
C7 0.0276(14) 0.0283(15) 0.0240(15) -0.0036(12) 0.0109(13) -0.0014(12)
C8 0.0239(14) 0.0276(15) 0.0223(15) -0.0033(11) 0.0089(13) -0.0017(11)
C9 0.0278(15) 0.0359(17) 0.0304(17) -0.0006(13) 0.0122(14) -0.0071(12)
C10 0.0361(17) 0.0422(19) 0.0265(16) 0.0035(13) 0.0159(14) -0.0090(14)
C11 0.0310(17) 0.0401(17) 0.0199(15) 0.0005(12) 0.0077(14) -0.0042(13)
C12 0.0290(14) 0.0295(15) 0.0213(15) -0.0024(12) 0.0115(13) -0.0064(12)
Cl1 0.0323(4) 0.0497(5) 0.0298(4) 0.0064(3) 0.0100(4) 0.0159(3)
Cl2 0.0612(6) 0.0826(8) 0.0342(5) 0.0121(5) 0.0212(5) -0.0304(6)
Zn1A 0.0221 0.0279 0.0195 -0.00238 0.00925 -0.00073
N1A 0.0235 0.031 0.0237 0.0031 0.0118 -0.0003
N2A 0.0262 0.0303 0.0223 0.0028 0.0097 0.0049
O1A 0.0267 0.0315 0.0209 0.0016 0.0111 -0.0037
O2A 0.0234 0.0382 0.0263 0.0087 0.0091 0.0007
O3A 0.0298 0.0391 0.0223 0.0046 0.0089 0.01
O4A 0.0483 0.0493 0.0239 0.005 0.0134 0.0221
C1A 0.0292 0.0235 0.0209 0.0019 0.0125 0.0016
C2A 0.0254 0.0277 0.0225 0 0.0125 0.0017
C3A 0.0249 0.0294 0.0287 0.002 0.0138 -0.0018
C4A 0.0225 0.0349 0.0268 0.0001 0.0111 -0.0036
C5A 0.0266 0.0374 0.0197 0.0045 0.0095 0.0012
C6A 0.0243 0.0278 0.0245 0.0014 0.0105 -0.0002
C7A 0.0276 0.0283 0.024 0.0036 0.0109 0.0014
C8A 0.0239 0.0276 0.0223 0.0033 0.0089 0.0017
C9A 0.0278 0.0359 0.0304 0.0006 0.0122 0.0071
C10A 0.0361 0.0422 0.0265 -0.0035 0.0159 0.009
C11A 0.031 0.0401 0.0199 -0.0005 0.0077 0.0042
C12A 0.029 0.0295 0.0213 0.0024 0.0115 0.0064
Cl1A 0.0323 0.0497 0.0298 -0.0064 0.01 -0.0159
Cl2A 0.0612 0.0826 0.0342 -0.0121 0.0212 0.0304
Zn1D 0.0221 0.0279 0.0195 0.00238 0.00925 0.00073
Zn1E 0.0221 0.0279 0.0195 -0.00238 0.00925 -0.00073
Zn1F 0.0221 0.0279 0.0195 0.00238 0.00925 0.00073
Zn1G 0.0221 0.0279 0.0195 -0.00238 0.00925 -0.00073
N1D 0.0235 0.031 0.0237 -0.0031 0.0118 0.0003
N1E 0.0235 0.031 0.0237 0.0031 0.0118 -0.0003
N2F 0.0262 0.0303 0.0223 -0.0028 0.0097 -0.0049
N2G 0.0262 0.0303 0.0223 0.0028 0.0097 0.0049
loop_
_geom_bond_atom_site_label_1
_geom_bond_atom_site_label_2
_geom_bond_site_symmetry_1
_geom_bond_site_symmetry_2
Zn1 O1 1_555 1_555
N1 C5 1_555 1_555
N2 C11 1_555 1_555
O1 C1 1_555 1_555
O2 C1 1_555 1_555
O3 Zn1 1_555 1_555
O4 C7 1_555 1_555
O5 Zn1 1_555 1_555
H1 O5 1_555 1_555
C1 C2 1_555 1_555
C2 C3 1_555 1_555
C3 H2 1_555 1_555
C4 C3 1_555 1_555
C5 C4 1_555 1_555
H3 C5 1_555 1_555
C6 N1 1_555 1_555
H4 C6 1_555 1_555
C7 O3 1_555 1_555
C8 C7 1_555 1_555
C9 C8 1_555 1_555
H5 C9 1_555 1_555
C10 C9 1_555 1_555
C11 C10 1_555 1_555
H6 C11 1_555 1_555
C12 N2 1_555 1_555
H7 C12 1_555 1_555
Cl1 C4 1_555 1_555
Cl2 C10 1_555 1_555
H1A O5 1_555 1_555
Zn1A O2 1_555 1_555
N1A C5A 1_555 1_555
N2A C11A 1_555 1_555
O1A Zn1A 1_555 1_555
O2A Zn1 1_555 1_555
O3A Zn1A 1_555 1_555
O4A C7A 1_555 1_555
C1A O1A 1_555 1_555
C2A C1A 1_555 1_555
C3A C2A 1_555 1_555
H2A C3A 1_555 1_555
C4A C3A 1_555 1_555
C5A C4A 1_555 1_555
H3A C5A 1_555 1_555
C6A N1A 1_555 1_555
H4A C6A 1_555 1_555
C7A O3A 1_555 1_555
C8A C7A 1_555 1_555
C9A C8A 1_555 1_555
H5A C9A 1_555 1_555
C10A C9A 1_555 1_555
C11A C10A 1_555 1_555
H6A C11A 1_555 1_555
C12A N2A 1_555 1_555
H7A C12A 1_555 1_555
Cl1A C4A 1_555 1_555
Cl2A C10A 1_555 1_555
Zn1D N1A 1_555 1_555
Zn1E N1 1_555 1_555
Zn1F N2A 1_555 1_555
Zn1G N2 1_555 1_555
N1D Zn1A 1_555 1_555
N1E Zn1 1_555 1_555
N2F Zn1A 1_555 1_555
N2G Zn1 1_555 1_555
O5 Zn1A 1_555 1_555
C2 C6 1_555 1_555
C8 C12 1_555 1_555
O2A C1A 1_555 1_555
C2A C6A 1_555 1_555
C8A C12A 1_555 1_555

#END
