
#######################################################################
#
#                 Cambridge Crystallographic Data Centre
#                                CCDC 
#
#######################################################################
#
# If this CIF has been generated from an entry in the Cambridge 
# Structural Database, then it will include bibliographic, chemical, 
# crystal, experimental, refinement or atomic coordinate data resulting 
# from the CCDC's data processing and validation procedures.
#
#######################################################################

data_EMODOZ
_chemical_formula_moiety         '(O18 P4 Zn4 4-)n'
_symmetry_cell_setting           monoclinic
_symmetry_space_group_name_H-M   'C 2/c'
_symmetry_Int_Tables_number      15
_space_group_name_Hall           '-C 2yc'
loop_
_symmetry_equiv_pos_site_id
_symmetry_equiv_pos_as_xyz
1 x,y,z
2 -x,y,1/2-z
3 1/2+x,1/2+y,z
4 1/2-x,1/2+y,1/2-z
5 -x,-y,-z
6 x,-y,1/2+z
7 1/2-x,1/2-y,-z
8 1/2+x,1/2-y,1/2+z
_cell_length_a                   14.2241(4)
_cell_length_b                   13.4911(1)
_cell_length_c                   13.9998(4)
_cell_angle_alpha                90
_cell_angle_beta                 90.169(1)
_cell_angle_gamma                90
_cell_volume                     2686.53
loop_
_atom_site_label
_atom_site_type_symbol
_atom_site_fract_x
_atom_site_fract_y
_atom_site_fract_z
O11 O 0.0407(2) -0.0010(2) 0.4980(2)
O11D O -0.0407(2) 0.0010(2) 0.5020(2)
Zn1 Zn -0.0224(1) 0.2349(1) 0.1259(1)
Zn2 Zn -0.1250(1) -0.3674(1) 0.2214(1)
Zn3 Zn 0.0000 -0.0653(2) 0.2500
P1 P -0.0272(2) -0.2469(2) 0.3924(2)
P2 P -0.1428(2) 0.1149(3) 0.2772(3)
P3 P 0.0000 0.4335(3) 0.2500
O1 O -0.0794(7) 0.1416(8) 0.3605(7)
O2 O -0.1328(7) 0.1906(9) 0.1969(7)
O3 O -0.0667(7) -0.2422(8) 0.4938(7)
O4 O 0.0047(9) 0.3708(8) 0.1597(8)
O5 O 0.0535(7) -0.3228(7) 0.3886(7)
O6 O 0.0881(7) 0.4980(8) 0.2511(9)
O7 O -0.1071(7) -0.2767(8) 0.3272(7)
O8 O -0.2449(6) 0.1144(8) 0.3107(7)
O9 O 0.1161(7) 0.0107(8) 0.2565(9)
O10 O 0.0095(8) -0.1446(7) 0.3659(7)
O4A O -0.0047(9) 0.3708(8) 0.3403(8)
O6A O -0.0881(7) 0.4980(8) 0.2489(9)
P2A P 0.1428(2) 0.1149(3) 0.2228(3)
O1A O 0.0794(7) 0.1416(8) 0.1395(7)
O2A O 0.1328(7) 0.1906(9) 0.3031(7)
O8A O 0.2449(6) 0.1144(8) 0.1893(7)
O9A O -0.1161(7) 0.0107(8) 0.2435(9)
P1A P 0.0272(2) -0.2469(2) 0.1076(2)
O3A O 0.0667(7) -0.2422(8) 0.0062(7)
O5A O -0.0535(7) -0.3228(7) 0.1114(7)
O7A O 0.1071(7) -0.2767(8) 0.1728(7)
O10A O -0.0095(8) -0.1446(7) 0.1341(7)
Zn1A Zn 0.0224(1) 0.2349(1) 0.3741(1)
Zn2A Zn 0.1250(1) -0.3674(1) 0.2786(1)
O3E O -0.0667(7) 0.2422(8) -0.0062(7)
O6_2 O 0.0881(7) -0.5020(8) 0.2511(9)
O8B O 0.2551(6) -0.3856(8) 0.3107(7)
Zn1E Zn -0.0224(1) -0.2349(1) 0.6259(1)
Zn2A_2 Zn 0.1250(1) 0.6326(1) 0.2786(1)
Zn2B Zn 0.3750(1) 0.1326(1) 0.2214(1)
Zn2_2 Zn -0.1250(1) 0.6326(1) 0.2214(1)
Zn2C Zn -0.3750(1) 0.1326(1) 0.2786(1)
Zn1D Zn 0.0224(1) -0.2349(1) -0.1259(1)
O3D O 0.0667(7) 0.2422(8) 0.5062(7)
O6A_2 O -0.0881(7) -0.5020(8) 0.2489(9)
O8C O -0.2551(6) -0.3856(8) 0.1893(7)
loop_
_geom_bond_atom_site_label_1
_geom_bond_atom_site_label_2
_geom_bond_site_symmetry_1
_geom_bond_site_symmetry_2
Zn1 O2 1_555 1_555
Zn2 O7 1_555 1_555
Zn3 O9 1_555 1_555
P1 O3 1_555 1_555
P2 O1 1_555 1_555
P3 O4 1_555 1_555
O1 Zn1A 1_555 1_555
O2 P2 1_555 1_555
O3 Zn1E 1_555 1_555
O4 Zn1 1_555 1_555
O5 P1 1_555 1_555
O6 P3 1_555 1_555
O7 P1 1_555 1_555
O8 P2 1_555 1_555
O9 P2A 1_555 1_555
O10 Zn3 1_555 1_555
O11 O11D 1_555 1_555
O4A P3 1_555 1_555
O6A P3 1_555 1_555
P2A O1A 1_555 1_555
O1A Zn1 1_555 1_555
O2A P2A 1_555 1_555
O8A P2A 1_555 1_555
O9A Zn3 1_555 1_555
P1A O3A 1_555 1_555
O3A Zn1D 1_555 1_555
O5A Zn2 1_555 1_555
O7A P1A 1_555 1_555
O10A Zn3 1_555 1_555
Zn1A O4A 1_555 1_555
Zn2A O5 1_555 1_555
O3E Zn1 1_555 1_555
O6_2 Zn2A 1_555 1_555
O8B Zn2A 1_555 1_555
Zn2A_2 O6 1_555 1_555
Zn2B O8A 1_555 1_555
Zn2_2 O6A 1_555 1_555
Zn2C O8 1_555 1_555
O3D Zn1A 1_555 1_555
O6A_2 Zn2 1_555 1_555
O8C Zn2 1_555 1_555
P1 O10 1_555 1_555
P2 O9A 1_555 1_555
O2A Zn1A 1_555 1_555
P1A O5A 1_555 1_555
P1A O10A 1_555 1_555
O7A Zn2A 1_555 1_555

#END
