
#######################################################################
#
#                 Cambridge Crystallographic Data Centre
#                                CCDC 
#
#######################################################################
#
# If this CIF has been generated from an entry in the Cambridge 
# Structural Database, then it will include bibliographic, chemical, 
# crystal, experimental, refinement or atomic coordinate data resulting 
# from the CCDC's data processing and validation procedures.
#
#######################################################################

data_PUFVUJ
_chemical_formula_moiety         '(C15 H11 Cd1 Cl1 N4 O2)n'
_symmetry_cell_setting           monoclinic
_symmetry_space_group_name_H-M   'C 2/c'
_symmetry_Int_Tables_number      15
_space_group_name_Hall           '-C 2yc'
loop_
_symmetry_equiv_pos_site_id
_symmetry_equiv_pos_as_xyz
1 x,y,z
2 -x,y,1/2-z
3 1/2+x,1/2+y,z
4 1/2-x,1/2+y,1/2-z
5 -x,-y,-z
6 x,-y,1/2+z
7 1/2-x,1/2-y,-z
8 1/2+x,1/2-y,1/2+z
_cell_length_a                   22.691(2)
_cell_length_b                   6.7093(4)
_cell_length_c                   22.587(2)
_cell_angle_alpha                90
_cell_angle_beta                 96.580(8)
_cell_angle_gamma                90
_cell_volume                     3416.01
loop_
_atom_site_label
_atom_site_type_symbol
_atom_site_fract_x
_atom_site_fract_y
_atom_site_fract_z
_atom_site_U_iso_or_equiv
_atom_site_thermal_displace_type
C1 C 0.40798(9) 0.1991(4) 0.84954(8) 0.0265 Uani
C2 C 0.40020(9) 0.2780(4) 0.78586(9) 0.0276 Uani
C3 C 0.42059(10) 0.1699(4) 0.73999(9) 0.0306 Uani
H1 H 0.4387 0.0453 0.7480 0.0370 Uiso
C4 C 0.41444(10) 0.2454(4) 0.68180(9) 0.0320 Uani
H2 H 0.4290 0.1740 0.6508 0.0380 Uiso
C5 C 0.38660(8) 0.4265(3) 0.67090(9) 0.0242 Uani
C6 C 0.36611(14) 0.5358(5) 0.71603(11) 0.0449 Uani
H3 H 0.3473 0.6592 0.7078 0.0540 Uiso
C7 C 0.37348(14) 0.4616(5) 0.77380(11) 0.0472 Uani
H4 H 0.3603 0.5363 0.8049 0.0570 Uiso
C8 C 0.48070(9) 0.6727(4) 0.61818(10) 0.0360 Uani
H5 H 0.5074 0.5739 0.6047 0.0540 Uiso
H6 H 0.4812 0.6634 0.6611 0.0540 Uiso
H7 H 0.4934 0.8048 0.6077 0.0540 Uiso
C9 C 0.41943(9) 0.6358(3) 0.58911(9) 0.0236 Uani
C10 C 0.32932(8) 0.5172(3) 0.57134(9) 0.0234 Uani
C11 C 0.27408(9) 0.4065(3) 0.57600(9) 0.0247 Uani
C12 C 0.27245(9) 0.2089(4) 0.59428(10) 0.0315 Uani
H8 H 0.3077 0.1391 0.6064 0.0380 Uiso
C13 C 0.21753(10) 0.1163(4) 0.59435(11) 0.0332 Uani
H9 H 0.2151 -0.0164 0.6072 0.0400 Uiso
C14 C 0.16665(9) 0.2219(4) 0.57526(10) 0.0295 Uani
H10 H 0.1298 0.1577 0.5751 0.0350 Uiso
C15 C 0.22040(9) 0.5031(4) 0.55745(9) 0.0256 Uani
H11 H 0.2214 0.6365 0.5449 0.0310 Uiso
Cd1 Cd 0.075718(6) 0.58832(2) 0.534749(6) 0.0214 Uani
Cl1 Cl 0.03553(2) 0.28538(9) 0.47377(2) 0.0286 Uani
N1 N 0.37977(7) 0.5120(3) 0.61173(7) 0.0225 Uani
N2 N 0.39449(7) 0.7121(3) 0.53866(7) 0.0255 Uani
N3 N 0.33728(7) 0.6364(3) 0.52708(8) 0.0265 Uani
N4 N 0.16746(7) 0.4120(3) 0.55688(8) 0.0266 Uani
O1 O 0.39126(8) 0.3085(3) 0.88939(7) 0.0362 Uani
O2 O 0.43101(7) 0.0313(3) 0.85918(7) 0.0357 Uani
Cd1C Cd 0.424282(6) 0.08832(2) 0.965251(6) 0.0214 Uani
Cd1D Cd -0.075718(6) 0.41168(2) 0.465251(6) 0.0214 Uani
Cd1F Cd 0.424282(6) 0.91168(2) 0.465251(6) 0.0214 Uani
Cl1D Cl -0.03553(2) 0.71462(9) 0.52623(2) 0.0286 Uani
N2F N 0.10551(7) 0.7879(3) 0.46134(7) 0.0255 Uani
O1C O 0.10874(8) 0.8085(3) 0.61061(7) 0.0362 Uani
O2C O 0.06899(7) 0.5313(3) 0.64082(7) 0.0357 Uani
loop_
_atom_site_aniso_label
_atom_site_aniso_U_11
_atom_site_aniso_U_22
_atom_site_aniso_U_33
_atom_site_aniso_U_23
_atom_site_aniso_U_13
_atom_site_aniso_U_12
C1 0.0236(9) 0.0356(13) 0.0199(9) 0.0066(8) 0.0008(7) 0.0060(9)
C2 0.0271(9) 0.0347(13) 0.0206(9) 0.0060(9) 0.0014(7) 0.0056(9)
C3 0.0340(11) 0.0314(13) 0.0266(10) 0.0062(9) 0.0037(8) 0.0119(9)
C4 0.0366(11) 0.0368(14) 0.0232(10) 0.0025(9) 0.0066(8) 0.0090(10)
C5 0.0210(9) 0.0308(12) 0.0206(9) 0.0066(8) 0.0010(7) -0.0024(8)
C6 0.0672(17) 0.0385(16) 0.0292(11) 0.0078(11) 0.0066(11) 0.0255(13)
C7 0.0732(19) 0.0462(18) 0.0238(11) 0.0054(10) 0.0121(11) 0.0297(14)
C8 0.0234(10) 0.0479(16) 0.0349(11) 0.0065(11) -0.0041(8) -0.0131(10)
C9 0.0210(9) 0.0268(12) 0.0229(9) 0.0021(8) 0.0021(7) -0.0059(8)
C10 0.0192(9) 0.0268(11) 0.0234(9) 0.0032(8) -0.0004(7) -0.0031(8)
C11 0.0205(9) 0.0292(12) 0.0237(9) 0.0040(8) -0.0004(7) -0.0054(8)
C12 0.0244(10) 0.0299(13) 0.0391(11) 0.0063(9) -0.0015(8) -0.0020(9)
C13 0.0311(11) 0.0253(13) 0.0424(12) 0.0072(10) 0.0006(9) -0.0060(9)
C14 0.0234(9) 0.0328(13) 0.0319(10) 0.0043(9) 0.0010(8) -0.0089(9)
C15 0.0226(9) 0.0263(12) 0.0272(10) 0.0058(9) -0.0005(7) -0.0039(8)
Cd1 0.01865(8) 0.02712(9) 0.01809(8) -0.00034(6) 0.00096(5) -0.00682(6)
Cl1 0.0207(2) 0.0304(3) 0.0340(2) -0.0117(2) 0.00024(18) -0.00181(19)
N1 0.0190(7) 0.0280(10) 0.0199(8) 0.0046(7) 0.0002(6) -0.0042(7)
N2 0.0200(7) 0.0308(11) 0.0253(8) 0.0050(7) 0.0008(6) -0.0071(7)
N3 0.0203(8) 0.0332(11) 0.0253(8) 0.0070(7) -0.0006(6) -0.0064(7)
N4 0.0200(8) 0.0312(11) 0.0280(8) 0.0038(7) 0.0007(6) -0.0049(7)
O1 0.0483(9) 0.0379(11) 0.0221(7) 0.0032(7) 0.0033(6) 0.0140(8)
O2 0.0424(9) 0.0400(11) 0.0251(7) 0.0079(7) 0.0052(6) 0.0187(8)
Cd1C 0.01865 0.02712 0.01809 0.00034 0.00096 0.00682
Cd1D 0.01865 0.02712 0.01809 -0.00034 0.00096 -0.00682
Cd1F 0.01865 0.02712 0.01809 -0.00034 0.00096 -0.00682
Cl1D 0.0207 0.0304 0.034 -0.0117 0.00024 -0.00181
N2F 0.02 0.0308 0.0253 0.005 0.0008 -0.0071
O1C 0.0483 0.0379 0.0221 -0.0032 0.0033 -0.014
O2C 0.0424 0.04 0.0251 -0.0079 0.0052 -0.0187
loop_
_geom_bond_atom_site_label_1
_geom_bond_atom_site_label_2
_geom_bond_site_symmetry_1
_geom_bond_site_symmetry_2
C1 C2 1_555 1_555
C2 C3 1_555 1_555
C3 H1 1_555 1_555
C4 C3 1_555 1_555
H2 C4 1_555 1_555
C5 C4 1_555 1_555
C6 C5 1_555 1_555
H3 C6 1_555 1_555
C7 C2 1_555 1_555
H4 C7 1_555 1_555
C8 H5 1_555 1_555
H6 C8 1_555 1_555
H7 C8 1_555 1_555
C9 C8 1_555 1_555
C10 C11 1_555 1_555
C11 C12 1_555 1_555
C12 H8 1_555 1_555
C13 C12 1_555 1_555
H9 C13 1_555 1_555
C14 C13 1_555 1_555
H10 C14 1_555 1_555
C15 C11 1_555 1_555
H11 C15 1_555 1_555
Cd1 Cl1 1_555 1_555
Cl1 Cd1D 1_555 1_555
N1 C5 1_555 1_555
N2 C9 1_555 1_555
N3 C10 1_555 1_555
N4 C14 1_555 1_555
O1 C1 1_555 1_555
O2 C1 1_555 1_555
Cd1C O1 1_555 1_555
Cd1D Cl1D 1_555 1_555
Cd1F N2 1_555 1_555
Cl1D Cd1 1_555 1_555
N2F Cd1 1_555 1_555
O1C Cd1 1_555 1_555
O2C Cd1 1_555 1_555
C6 C7 1_555 1_555
C9 N1 1_555 1_555
C10 N1 1_555 1_555
C15 N4 1_555 1_555
Cd1 N4 1_555 1_555
N2 N3 1_555 1_555
O2 Cd1C 1_555 1_555

#END
