
#######################################################################
#
#                 Cambridge Crystallographic Data Centre
#                                CCDC 
#
#######################################################################
#
# If this CIF has been generated from an entry in the Cambridge 
# Structural Database, then it will include bibliographic, chemical, 
# crystal, experimental, refinement or atomic coordinate data resulting 
# from the CCDC's data processing and validation procedures.
#
#######################################################################

data_ZOTTIN
_chemical_formula_moiety         '(C28 H18 Cd1 N8 O4)n'
_symmetry_cell_setting           orthorhombic
_symmetry_space_group_name_H-M   'F d d d'
_symmetry_Int_Tables_number      70
_space_group_name_Hall           '-F 2uv 2vw'
loop_
_symmetry_equiv_pos_site_id
_symmetry_equiv_pos_as_xyz
1 x,y,z
2 1/4-x,1/4-y,z
3 x,1/4-y,1/4-z
4 1/4-x,y,1/4-z
5 x,1/2+y,1/2+z
6 1/4-x,3/4-y,1/2+z
7 x,3/4-y,3/4-z
8 1/4-x,1/2+y,3/4-z
9 1/2+x,y,1/2+z
10 3/4-x,1/4-y,1/2+z
11 1/2+x,1/4-y,3/4-z
12 3/4-x,y,3/4-z
13 1/2+x,1/2+y,z
14 3/4-x,3/4-y,z
15 1/2+x,3/4-y,1/4-z
16 3/4-x,1/2+y,1/4-z
17 -x,-y,-z
18 3/4+x,3/4+y,-z
19 -x,3/4+y,3/4+z
20 3/4+x,-y,3/4+z
21 -x,1/2-y,1/2-z
22 3/4+x,1/4+y,1/2-z
23 -x,1/4+y,1/4+z
24 3/4+x,1/2-y,1/4+z
25 1/2-x,-y,1/2-z
26 1/4+x,3/4+y,1/2-z
27 1/2-x,3/4+y,1/4+z
28 1/4+x,-y,1/4+z
29 1/2-x,1/2-y,-z
30 1/4+x,1/4+y,-z
31 1/2-x,1/4+y,3/4+z
32 1/4+x,1/2-y,3/4+z
_cell_length_a                   16.5421(15)
_cell_length_b                   23.4933(16)
_cell_length_c                   40.781(2)
_cell_angle_alpha                90
_cell_angle_beta                 90
_cell_angle_gamma                90
_cell_volume                     15848.7
loop_
_atom_site_label
_atom_site_type_symbol
_atom_site_fract_x
_atom_site_fract_y
_atom_site_fract_z
_atom_site_U_iso_or_equiv
_atom_site_thermal_displace_type
C1 C 0.2932(2) 0.30915(17) 0.12169(8) 0.0667 Uani
C2 C 0.24505(19) 0.28580(13) 0.15048(7) 0.0601 Uani
C3 C 0.2697(2) 0.23656(16) 0.16596(10) 0.0800 Uani
H1 H 0.3177 0.2179 0.1589 0.0960 Uiso
C4 C 0.2252(2) 0.21402(15) 0.19164(10) 0.0810 Uani
H2 H 0.2418 0.1799 0.2021 0.0970 Uiso
C5 C 0.15627(19) 0.24217(13) 0.20172(7) 0.0573 Uani
C6 C 0.13215(19) 0.29232(15) 0.18729(9) 0.0647 Uani
H3 H 0.0855 0.3120 0.1948 0.0780 Uiso
C7 C 0.1778(2) 0.31347(14) 0.16141(8) 0.0653 Uani
H4 H 0.1617 0.3479 0.1511 0.0780 Uiso
C8 C 0.03486(18) 0.19328(13) 0.22495(8) 0.0611 Uani
H5 H 0.0041 0.1932 0.2053 0.0730 Uiso
C9 C 0.13047(16) 0.20830(11) 0.26040(7) 0.0498 Uani
C10 C 0.20447(17) 0.22652(12) 0.27717(7) 0.0544 Uani
C11 C 0.2504(3) 0.27283(16) 0.26793(10) 0.0863 Uani
H6 H 0.2357 0.2952 0.2495 0.1030 Uiso
C12 C 0.3184(3) 0.2860(2) 0.28618(14) 0.1137 Uani
H7 H 0.3522 0.3169 0.2800 0.1360 Uiso
C13 C 0.3361(3) 0.2543(2) 0.31312(13) 0.1020 Uani
H8 H 0.3822 0.2631 0.3261 0.1220 Uiso
C14 C 0.2869(2) 0.20929(17) 0.32146(9) 0.0743 Uani
H9 H 0.2997 0.1877 0.3405 0.0890 Uiso
Cd1 Cd 0.3750 0.3750 0.072699(6) 0.0419 Uani
N1 N 0.07226(14) 0.17977(9) 0.27498(6) 0.0504 Uani
N2 N 0.01165(15) 0.16963(11) 0.25251(6) 0.0575 Uani
N3 N 0.10873(15) 0.21789(10) 0.22823(6) 0.0544 Uani
N4 N 0.22198(14) 0.19473(10) 0.30396(6) 0.0528 Uani
O1 O 0.27669(16) 0.35726(11) 0.11152(6) 0.0767 Uani
O2 O 0.3481(2) 0.27996(14) 0.10958(8) 0.1053 Uani
C1M C 0.4568(2) 0.44085(17) 0.12169(8) 0.0667 Uani
C2M C 0.50495(19) 0.46420(13) 0.15048(7) 0.0601 Uani
C3M C 0.4803(2) 0.51344(16) 0.16596(10) 0.0800 Uani
H1M H 0.4323 0.5321 0.1589 0.0960 Uiso
C4M C 0.5248(2) 0.53598(15) 0.19164(10) 0.0810 Uani
H2M H 0.5082 0.5701 0.2021 0.0970 Uiso
C5M C 0.59373(19) 0.50783(13) 0.20172(7) 0.0573 Uani
C6M C 0.61785(19) 0.45768(15) 0.18729(9) 0.0647 Uani
H3M H 0.6645 0.4380 0.1948 0.0780 Uiso
C7M C 0.5722(2) 0.43653(14) 0.16141(8) 0.0653 Uani
H4M H 0.5883 0.4021 0.1511 0.0780 Uiso
C8M C 0.71514(18) 0.55672(13) 0.22495(8) 0.0611 Uani
H5M H 0.7459 0.5568 0.2053 0.0730 Uiso
C9M C 0.61953(16) 0.54170(11) 0.26040(7) 0.0498 Uani
C10M C 0.54553(17) 0.52348(12) 0.27717(7) 0.0544 Uani
C11M C 0.4996(3) 0.47717(16) 0.26793(10) 0.0863 Uani
H6M H 0.5143 0.4548 0.2495 0.1030 Uiso
C12M C 0.4316(3) 0.4640(2) 0.28618(14) 0.1137 Uani
H7M H 0.3978 0.4331 0.2800 0.1360 Uiso
C13M C 0.4139(3) 0.4957(2) 0.31312(13) 0.1020 Uani
H8M H 0.3678 0.4869 0.3261 0.1220 Uiso
C14M C 0.4631(2) 0.54071(17) 0.32146(9) 0.0743 Uani
H9M H 0.4503 0.5623 0.3405 0.0890 Uiso
N1M N 0.67774(14) 0.57023(9) 0.27498(6) 0.0504 Uani
N2M N 0.73835(15) 0.58037(11) 0.25251(6) 0.0575 Uani
N3M N 0.64127(15) 0.53211(10) 0.22823(6) 0.0544 Uani
N4M N 0.52802(14) 0.55527(10) 0.30396(6) 0.0528 Uani
O1M O 0.47331(16) 0.39274(11) 0.11152(6) 0.0767 Uani
O2M O 0.4019(2) 0.47004(14) 0.10958(8) 0.1053 Uani
Cd1V Cd 0.6250 0.6250 0.322699(6) 0.0419 Uani
Cd1W Cd 0.1250 0.1250 0.322699(6) 0.0419 Uani
N1DA N 0.42774(14) 0.42977(9) 0.02498(6) 0.0504 Uani
N1EA N 0.32226(14) 0.32023(9) 0.02498(6) 0.0504 Uani
N4DA N 0.27802(14) 0.44473(10) 0.05396(6) 0.0528 Uani
N4EA N 0.47198(14) 0.30527(10) 0.05396(6) 0.0528 Uani
loop_
_atom_site_aniso_label
_atom_site_aniso_U_11
_atom_site_aniso_U_22
_atom_site_aniso_U_33
_atom_site_aniso_U_23
_atom_site_aniso_U_13
_atom_site_aniso_U_12
C1 0.075(2) 0.085(2) 0.0400(18) 0.0105(15) 0.0113(14) -0.0087(17)
C2 0.0694(18) 0.0672(17) 0.0438(17) 0.0152(13) 0.0120(13) 0.0021(14)
C3 0.085(2) 0.083(2) 0.072(2) 0.0240(18) 0.0340(19) 0.0263(18)
C4 0.099(3) 0.072(2) 0.072(2) 0.0299(18) 0.035(2) 0.0303(19)
C5 0.0670(16) 0.0647(16) 0.0402(16) 0.0169(12) 0.0140(13) 0.0078(14)
C6 0.0690(19) 0.0751(19) 0.0500(19) 0.0223(16) 0.0147(14) 0.0212(15)
C7 0.077(2) 0.0721(18) 0.0469(18) 0.0251(14) 0.0103(14) 0.0168(15)
C8 0.0629(17) 0.0716(18) 0.0488(18) 0.0113(14) 0.0046(13) 0.0109(14)
C9 0.0623(16) 0.0470(13) 0.0402(16) 0.0110(11) 0.0114(11) 0.0079(11)
C10 0.0636(16) 0.0505(14) 0.0491(17) 0.0061(12) 0.0118(13) 0.0007(12)
C11 0.107(3) 0.074(2) 0.078(3) 0.0230(19) 0.001(2) -0.025(2)
C12 0.118(4) 0.105(3) 0.118(4) 0.030(3) -0.012(3) -0.057(3)
C13 0.092(3) 0.108(3) 0.106(4) 0.011(3) -0.020(3) -0.038(3)
C14 0.076(2) 0.080(2) 0.067(2) 0.0093(17) -0.0120(17) -0.0127(17)
Cd1 0.0537(2) 0.04355(19) 0.0285(2) 0.000 0.000 -0.00183(9)
N1 0.0579(13) 0.0526(12) 0.0408(13) 0.0095(9) 0.0083(10) 0.0062(9)
N2 0.0607(14) 0.0663(14) 0.0454(14) 0.0123(11) 0.0068(11) 0.0028(11)
N3 0.0638(14) 0.0604(13) 0.0390(13) 0.0144(11) 0.0112(10) 0.0053(11)
N4 0.0611(13) 0.0540(12) 0.0434(14) 0.0034(10) 0.0019(10) -0.0004(10)
O1 0.0924(17) 0.0853(15) 0.0523(14) 0.0272(13) 0.0141(12) -0.0096(13)
O2 0.117(2) 0.113(2) 0.086(2) 0.0229(18) 0.057(2) 0.0128(19)
C1M 0.075 0.085 0.04 -0.0105 -0.0113 -0.0087
C2M 0.0694 0.0672 0.0438 -0.0152 -0.012 0.0021
C3M 0.085 0.083 0.072 -0.024 -0.034 0.0263
C4M 0.099 0.072 0.072 -0.0299 -0.035 0.0303
C5M 0.067 0.0647 0.0402 -0.0169 -0.014 0.0078
C6M 0.069 0.0751 0.05 -0.0223 -0.0147 0.0212
C7M 0.077 0.0721 0.0469 -0.0251 -0.0103 0.0168
C8M 0.0629 0.0716 0.0488 -0.0113 -0.0046 0.0109
C9M 0.0623 0.047 0.0402 -0.011 -0.0114 0.0079
C10M 0.0636 0.0505 0.0491 -0.0061 -0.0118 0.0007
C11M 0.107 0.074 0.078 -0.023 -0.001 -0.025
C12M 0.118 0.105 0.118 -0.03 0.012 -0.057
C13M 0.092 0.108 0.106 -0.011 0.02 -0.038
C14M 0.076 0.08 0.067 -0.0093 0.012 -0.0127
N1M 0.0579 0.0526 0.0408 -0.0095 -0.0083 0.0062
N2M 0.0607 0.0663 0.0454 -0.0123 -0.0068 0.0028
N3M 0.0638 0.0604 0.039 -0.0144 -0.0112 0.0053
N4M 0.0611 0.054 0.0434 -0.0034 -0.0019 -0.0004
O1M 0.0924 0.0853 0.0523 -0.0272 -0.0141 -0.0096
O2M 0.117 0.113 0.086 -0.0229 -0.057 0.0128
Cd1V 0.0537 0.04355 0.0285 0 0 0.00183
Cd1W 0.0537 0.04355 0.0285 0 0 0.00183
N1DA 0.0579 0.0526 0.0408 0.0095 -0.0083 -0.0062
N1EA 0.0579 0.0526 0.0408 -0.0095 0.0083 -0.0062
N4DA 0.0611 0.054 0.0434 0.0034 -0.0019 0.0004
N4EA 0.0611 0.054 0.0434 -0.0034 0.0019 0.0004
loop_
_geom_bond_atom_site_label_1
_geom_bond_atom_site_label_2
_geom_bond_site_symmetry_1
_geom_bond_site_symmetry_2
C1 C2 1_555 1_555
C2 C3 1_555 1_555
C3 H1 1_555 1_555
C4 C3 1_555 1_555
H2 C4 1_555 1_555
C5 C4 1_555 1_555
C6 C5 1_555 1_555
H3 C6 1_555 1_555
C7 C2 1_555 1_555
H4 C7 1_555 1_555
C8 H5 1_555 1_555
C9 C10 1_555 1_555
C10 C11 1_555 1_555
C11 H6 1_555 1_555
C12 C11 1_555 1_555
H7 C12 1_555 1_555
C13 C12 1_555 1_555
H8 C13 1_555 1_555
C14 C13 1_555 1_555
H9 C14 1_555 1_555
Cd1 O1 1_555 1_555
N1 C9 1_555 1_555
N2 C8 1_555 1_555
N3 C5 1_555 1_555
N4 C10 1_555 1_555
O1 C1 1_555 1_555
O2 C1 1_555 1_555
C1M C2M 1_555 1_555
C2M C3M 1_555 1_555
C3M H1M 1_555 1_555
C4M C3M 1_555 1_555
H2M C4M 1_555 1_555
C5M C4M 1_555 1_555
C6M C5M 1_555 1_555
H3M C6M 1_555 1_555
C7M C2M 1_555 1_555
H4M C7M 1_555 1_555
C8M H5M 1_555 1_555
C9M C10M 1_555 1_555
C10M C11M 1_555 1_555
C11M H6M 1_555 1_555
C12M C11M 1_555 1_555
H7M C12M 1_555 1_555
C13M C12M 1_555 1_555
H8M C13M 1_555 1_555
C14M C13M 1_555 1_555
H9M C14M 1_555 1_555
N1M C9M 1_555 1_555
N2M C8M 1_555 1_555
N3M C5M 1_555 1_555
N4M C10M 1_555 1_555
O1M Cd1 1_555 1_555
O2M Cd1 1_555 1_555
Cd1V N1M 1_555 1_555
Cd1W N1 1_555 1_555
N1DA Cd1 1_555 1_555
N1EA Cd1 1_555 1_555
N4DA Cd1 1_555 1_555
N4EA Cd1 1_555 1_555
C6 C7 1_555 1_555
C8 N3 1_555 1_555
C9 N3 1_555 1_555
C14 N4 1_555 1_555
Cd1 O2 1_555 1_555
N1 N2 1_555 1_555
N4 Cd1W 1_555 1_555
C1M O1M 1_555 1_555
C1M O2M 1_555 1_555
C6M C7M 1_555 1_555
C8M N3M 1_555 1_555
C9M N3M 1_555 1_555
C14M N4M 1_555 1_555
N1M N2M 1_555 1_555
N4M Cd1V 1_555 1_555

#END
