
#######################################################################
#
#                 Cambridge Crystallographic Data Centre
#                                CCDC 
#
#######################################################################
#
# If this CIF has been generated from an entry in the Cambridge 
# Structural Database, then it will include bibliographic, chemical, 
# crystal, experimental, refinement or atomic coordinate data resulting 
# from the CCDC's data processing and validation procedures.
#
#######################################################################

data_IXODUV
_chemical_formula_moiety         '(C14 H12 O5 V1)n'
_symmetry_cell_setting           orthorhombic
_symmetry_space_group_name_H-M   'P 21 21 21'
_symmetry_Int_Tables_number      19
_space_group_name_Hall           'P 2ac 2ab'
loop_
_symmetry_equiv_pos_site_id
_symmetry_equiv_pos_as_xyz
1 x,y,z
2 1/2-x,-y,1/2+z
3 -x,1/2+y,1/2-z
4 1/2+x,1/2-y,-z
_cell_length_a                   6.8050(3)
_cell_length_b                   13.9793(7)
_cell_length_c                   15.9447(8)
_cell_angle_alpha                90
_cell_angle_beta                 90
_cell_angle_gamma                90
_cell_volume                     1516.81
loop_
_atom_site_label
_atom_site_type_symbol
_atom_site_fract_x
_atom_site_fract_y
_atom_site_fract_z
C1 C 0.7243(3) 1.11905(13) 0.89809(11)
C2 C 0.7381(3) 1.04426(15) 0.83133(12)
C3 C 0.9184(3) 1.0197(2) 0.79869(16)
H1 H 1.0322 1.0468 0.8206
C4 C 0.5704(3) 1.00149(18) 0.80034(15)
H2 H 0.4487 1.0165 0.8233
C5 C 0.7755(3) 0.84904(13) 0.62674(10)
C6 C 0.7631(3) 0.91411(15) 0.70089(11)
C7 C 0.9309(3) 0.9548(2) 0.73353(16)
H3 H 1.0531 0.9385 0.7116
C8 C 0.5826(3) 0.93637(18) 0.73527(15)
H4 H 0.4692 0.9076 0.7147
O1 O 1.28306(15) 0.80870(7) 0.50722(8)
O2 O 0.5558(2) 1.14114(10) 0.92392(9)
O3 O 0.9437(2) 0.83166(11) 0.59804(9)
O4 O 0.8837(2) 1.15493(11) 0.92276(9)
O5 O 0.6161(2) 0.81703(11) 0.59807(8)
V1 V 1.06503(3) 0.763892(16) 0.501199(19)
O1C O 0.78306(15) 0.69130(7) 0.49278(8)
O2A O 0.9442(2) 0.85886(10) 0.42392(9)
O4B O 1.1163(2) 0.65493(11) 0.57724(9)
O5C O 1.1161(2) 0.68297(11) 0.40193(8)
V1C V 1.56503(3) 0.736108(16) 0.498801(19)
V1A V 0.43497(3) 1.236108(16) 1.001199(19)
V1B V 0.93497(3) 1.263892(16) 0.998801(19)
V1C_2 V 0.56503(3) 0.736108(16) 0.498801(19)
C9 C 0.359(4) 0.0657(9) 0.5272(10)
H5 H 0.3865 0.0075 0.5015
C10 C 0.168(3) 0.0826(12) 0.5448(10)
H6 H 0.0713 0.0452 0.5199
C11 C 0.113(3) 0.1584(14) 0.6019(14)
H7 H -0.0148 0.1710 0.6190
C12 C 0.270(4) 0.2076(11) 0.6268(12)
H8 H 0.2579 0.2704 0.6453
C13 C 0.455(4) 0.1627(18) 0.6244(14)
H9 H 0.4514 0.1090 0.6630
H10 H 0.5514 0.2076 0.6459
C14 C 0.527(4) 0.127(2) 0.5435(16)
H11 H 0.5406 0.1777 0.5022
H12 H 0.6488 0.0918 0.5486
loop_
_geom_bond_atom_site_label_1
_geom_bond_atom_site_label_2
_geom_bond_site_symmetry_1
_geom_bond_site_symmetry_2
C1 C2 1_555 1_555
C2 C3 1_555 1_555
C3 H1 1_555 1_555
C4 C2 1_555 1_555
H2 C4 1_555 1_555
C5 C6 1_555 1_555
C6 C7 1_555 1_555
C7 C3 1_555 1_555
H3 C7 1_555 1_555
C8 C4 1_555 1_555
H4 C8 1_555 1_555
C9 H5 1_555 1_555
C10 C9 1_555 1_555
H6 C10 1_555 1_555
C11 C10 1_555 1_555
H7 C11 1_555 1_555
C12 C11 1_555 1_555
H8 C12 1_555 1_555
C13 C12 1_555 1_555
H9 C13 1_555 1_555
H10 C13 1_555 1_555
C14 C9 1_555 1_555
H11 C14 1_555 1_555
H12 C14 1_555 1_555
O1 V1 1_555 1_555
O2 C1 1_555 1_555
O3 C5 1_555 1_555
O4 C1 1_555 1_555
O5 C5 1_555 1_555
V1 O3 1_555 1_555
O1C V1 1_555 1_555
O2A V1 1_555 1_555
O4B V1 1_555 1_555
O5C V1 1_555 1_555
V1C O1 1_555 1_555
V1A O2 1_555 1_555
V1B O4 1_555 1_555
V1C_2 O5 1_555 1_555
C6 C8 1_555 1_555
C13 C14 1_555 1_555
O1C V1C_2 1_555 1_555

#END
