
#######################################################################
#
#                 Cambridge Crystallographic Data Centre
#                                CCDC 
#
#######################################################################
#
# If this CIF has been generated from an entry in the Cambridge 
# Structural Database, then it will include bibliographic, chemical, 
# crystal, experimental, refinement or atomic coordinate data resulting 
# from the CCDC's data processing and validation procedures.
#
#######################################################################

data_IXOFAD
_chemical_formula_moiety         '(C14 H12 O5 V1)n'
_symmetry_cell_setting           orthorhombic
_symmetry_space_group_name_H-M   'P 21 21 21'
_symmetry_Int_Tables_number      19
_space_group_name_Hall           'P 2ac 2ab'
loop_
_symmetry_equiv_pos_site_id
_symmetry_equiv_pos_as_xyz
1 x,y,z
2 1/2-x,-y,1/2+z
3 -x,1/2+y,1/2-z
4 1/2+x,1/2-y,-z
_cell_length_a                   6.8023(14)
_cell_length_b                   13.912(3)
_cell_length_c                   16.052(3)
_cell_angle_alpha                90
_cell_angle_beta                 90
_cell_angle_gamma                90
_cell_volume                     1519.06
loop_
_atom_site_label
_atom_site_type_symbol
_atom_site_fract_x
_atom_site_fract_y
_atom_site_fract_z
C1 C 0.198(6) 0.190(3) 0.138(2)
H1 H 0.1207 0.2242 0.1758
C2 C 0.405(5) 0.214(3) 0.121(3)
H2 H 0.4719 0.2109 0.1738
H3 H 0.4050 0.2807 0.1041
C3 C 0.540(6) 0.163(3) 0.060(3)
H4 H 0.6753 0.1703 0.0627
C4 C 0.454(5) 0.108(3) 0.000(3)
H5 H 0.5095 0.0954 -0.0522
C5 C 0.262(5) 0.069(2) 0.0276(18)
H6 H 0.2874 0.0037 0.0450
H7 H 0.1816 0.0652 -0.0220
C6 C 0.133(5) 0.112(2) 0.094(2)
H8 H 0.0093 0.0863 0.1048
C13 C 0.7254(4) -0.1432(2) 0.12137(15)
C14 C 0.7377(4) -0.0769(2) 0.19357(17)
C15 C 0.5687(5) -0.0374(3) 0.2280(2)
H17 H 0.4460 -0.0544 0.2071
C16 C 0.5820(5) 0.0265(3) 0.2929(2)
H18 H 0.4681 0.0523 0.3158
C17 C 0.9190(5) -0.0535(3) 0.2267(2)
H19 H 1.0329 -0.0809 0.2053
C18 C 0.9298(6) 0.0118(3) 0.2926(2)
H20 H 1.0514 0.0276 0.3153
C19 C 0.7620(5) 0.0527(2) 0.32422(18)
C20 C 0.7759(5) 0.1247(2) 0.39290(16)
O1 O 0.21776(19) -0.19061(10) 0.00390(12)
O2 O 0.5575(4) -0.16221(17) 0.09359(13)
O3 O 0.9437(3) 0.14545(17) 0.41985(14)
O4 O 0.8833(3) -0.17671(17) 0.09351(13)
O5 O 0.6143(3) 0.15965(18) 0.41804(14)
V1 V 0.43550(4) -0.23606(2) 0.00079(3)
O1C O 0.71776(19) -0.30939(10) -0.00390(12)
O3A O 0.5563(3) -0.14545(17) -0.08015(14)
O4C O 0.3833(3) -0.32329(17) -0.09351(13)
O5B O 0.3857(3) -0.34035(18) 0.08196(14)
V1C V -0.06450(4) -0.26394(2) -0.00079(3)
V1A V 1.06450(4) 0.23606(2) 0.50079(3)
V1C_2 V 0.93550(4) -0.26394(2) -0.00079(3)
V1B V 0.56450(4) 0.26394(2) 0.49921(3)
loop_
_geom_bond_atom_site_label_1
_geom_bond_atom_site_label_2
_geom_bond_site_symmetry_1
_geom_bond_site_symmetry_2
C1 H1 1_555 1_555
C2 C1 1_555 1_555
H2 C2 1_555 1_555
H3 C2 1_555 1_555
C3 C2 1_555 1_555
H4 C3 1_555 1_555
C4 C3 1_555 1_555
H5 C4 1_555 1_555
C5 C4 1_555 1_555
H6 C5 1_555 1_555
H7 C5 1_555 1_555
C6 C1 1_555 1_555
H8 C6 1_555 1_555
C13 C14 1_555 1_555
C14 C15 1_555 1_555
C15 H17 1_555 1_555
C16 C15 1_555 1_555
H18 C16 1_555 1_555
C17 C14 1_555 1_555
H19 C17 1_555 1_555
C18 C17 1_555 1_555
H20 C18 1_555 1_555
C19 C16 1_555 1_555
C20 C19 1_555 1_555
O1 V1 1_555 1_555
O2 C13 1_555 1_555
O3 C20 1_555 1_555
O4 C13 1_555 1_555
O5 C20 1_555 1_555
V1 O2 1_555 1_555
O1C V1 1_555 1_555
O3A V1 1_555 1_555
O4C V1 1_555 1_555
O5B V1 1_555 1_555
V1C O1 1_555 1_555
V1A O3 1_555 1_555
V1C_2 O4 1_555 1_555
V1B O5 1_555 1_555
C5 C6 1_555 1_555
C18 C19 1_555 1_555
O1C V1C_2 1_555 1_555

#END
