
#######################################################################
#
#                 Cambridge Crystallographic Data Centre
#                                CCDC 
#
#######################################################################
#
# If this CIF has been generated from an entry in the Cambridge 
# Structural Database, then it will include bibliographic, chemical, 
# crystal, experimental, refinement or atomic coordinate data resulting 
# from the CCDC's data processing and validation procedures.
#
#######################################################################

data_IXOFEH
_chemical_formula_moiety         '(C14 H10 O5 V1)n'
_symmetry_cell_setting           orthorhombic
_symmetry_space_group_name_H-M   'P 21 21 21'
_symmetry_Int_Tables_number      19
_space_group_name_Hall           'P 2ac 2ab'
loop_
_symmetry_equiv_pos_site_id
_symmetry_equiv_pos_as_xyz
1 x,y,z
2 1/2-x,-y,1/2+z
3 -x,1/2+y,1/2-z
4 1/2+x,1/2-y,-z
_cell_length_a                   6.7884(7)
_cell_length_b                   13.2305(13)
_cell_length_c                   16.6357(16)
_cell_angle_alpha                90
_cell_angle_beta                 90
_cell_angle_gamma                90
_cell_volume                     1494.12
loop_
_atom_site_label
_atom_site_type_symbol
_atom_site_fract_x
_atom_site_fract_y
_atom_site_fract_z
_atom_site_U_iso_or_equiv
_atom_site_thermal_displace_type
C1 C 0.7272(4) 1.1220(2) 0.10668(15) 0.0180 Uani
C2 C 0.7394(4) 1.0511(2) 0.17590(15) 0.0224 Uani
C3 C 0.5715(5) 1.0055(2) 0.20587(19) 0.0360 Uani
H1 H 0.4505 1.0167 0.1812 0.0430 Uiso
C4 C 0.5829(5) 0.9435(3) 0.27208(18) 0.0352 Uani
H2 H 0.4693 0.9130 0.2918 0.0420 Uiso
C5 C 0.9198(5) 1.0340(3) 0.21286(19) 0.0374 Uani
H3 H 1.0331 1.0644 0.1928 0.0450 Uiso
C6 C 0.9309(5) 0.9719(3) 0.27946(19) 0.0371 Uani
H4 H 1.0517 0.9607 0.3043 0.0450 Uiso
C7 C 0.7616(4) 0.9260(2) 0.30959(15) 0.0217 Uani
C8 C 0.7731(4) 0.8616(2) 0.38247(14) 0.0176 Uani
O1 O 0.78031(16) 0.68808(9) 0.50309(11) 0.0139 Uani
O2 O 0.6123(3) 0.82882(15) 0.41019(11) 0.0219 Uani
O3 O 0.5579(3) 1.14215(14) 0.07933(12) 0.0224 Uani
O4 O 0.9403(3) 0.84363(14) 0.41084(11) 0.0216 Uani
O5 O 0.8878(3) 1.15727(15) 0.08038(12) 0.0225 Uani
V1 V 0.56123(4) 0.735390(19) 0.50055(3) 0.0102 Uani
O1C O 0.28031(16) 0.81192(9) 0.49691(11) 0.0139 Uani
O3B O 0.4421(3) 0.64215(14) 0.42067(12) 0.0224 Uani
O4C O 0.4403(3) 0.65637(14) 0.58916(11) 0.0216 Uani
O5A O 0.6122(3) 0.84273(15) 0.58038(12) 0.0225 Uani
V1C V 1.06123(4) 0.764610(19) 0.49945(3) 0.0102 Uani
V1B V 0.43877(4) 1.235390(19) -0.00055(3) 0.0102 Uani
V1A V 0.93877(4) 1.264610(19) 0.00055(3) 0.0102 Uani
C9 C 0.642(2) 0.2719(6) 0.6310(4) 0.1913 Uani
H5 H 0.6230 0.2190 0.6670 0.2280 Uiso
C10 C 0.8197(17) 0.3242(11) 0.6305(5) 0.1993 Uani
H6 H 0.9193 0.3064 0.6662 0.2390 Uiso
C11 C 0.8483(14) 0.4033(9) 0.5767(8) 0.2050 Uani
H7 H 0.9671 0.4383 0.5764 0.2460 Uiso
C12 C 0.699(2) 0.4300(4) 0.5234(6) 0.1773 Uani
H8 H 0.7186 0.4828 0.4874 0.2130 Uiso
C13 C 0.5219(16) 0.3776(9) 0.5239(4) 0.1697 Uani
H9 H 0.4223 0.3955 0.4883 0.2040 Uiso
C14 C 0.4933(14) 0.2985(8) 0.5777(6) 0.1797 Uani
H10 H 0.3745 0.2635 0.5780 0.2150 Uiso
loop_
_atom_site_aniso_label
_atom_site_aniso_U_11
_atom_site_aniso_U_22
_atom_site_aniso_U_33
_atom_site_aniso_U_23
_atom_site_aniso_U_13
_atom_site_aniso_U_12
C1 0.0139(12) 0.0231(12) 0.0169(11) 0.0084(10) 0.0003(9) 0.0005(10)
C2 0.0140(12) 0.0290(13) 0.0241(12) 0.0133(10) -0.0012(10) -0.0004(10)
C3 0.0135(13) 0.0560(19) 0.0385(16) 0.0305(15) -0.0053(12) -0.0047(13)
C4 0.0130(13) 0.055(2) 0.0376(16) 0.0291(14) -0.0033(12) -0.0045(12)
C5 0.0116(13) 0.0601(18) 0.0405(16) 0.0329(15) 0.0019(11) -0.0048(13)
C6 0.0120(13) 0.0588(18) 0.0405(17) 0.0325(15) -0.0068(12) -0.0013(14)
C7 0.0131(12) 0.0308(13) 0.0211(11) 0.0133(10) -0.0007(9) 0.0003(10)
C8 0.0125(12) 0.0220(11) 0.0184(11) 0.0047(9) -0.0008(9) 0.0001(9)
O1 0.0099 0.0161 0.0157 -0.0006 0.0002 -0.0012
O2 0.0109 0.0335 0.0213 0.0137 0.0029 0.0015
O3 0.0126 0.0285 0.0261 0.014 -0.0044 -0.0006
O4 0.0136(9) 0.0302(9) 0.0211(9) 0.0138(7) -0.0033(7) -0.0028(8)
O5 0.014 0.0296 0.0239 0.0161 0.001 0.0029
V1 0.00715 0.01396 0.00954 -0.0002 0 -0.00049
O1C 0.0099 0.0161 0.0157 -0.0006 -0.0002 0.0012
O3B 0.0126 0.0285 0.0261 -0.014 -0.0044 0.0006
O4C 0.0136 0.0302 0.0211 0.0138 0.0033 0.0028
O5A 0.014 0.0296 0.0239 -0.0161 -0.001 0.0029
V1C 0.00715(13) 0.01396(15) 0.00954(14) -0.0002(2) 0.0000(2) 0.00049(9)
V1B 0.00715 0.01396 0.00954 0.0002 0 0.00049
V1A 0.00715 0.01396 0.00954 0.0002 0 -0.00049
C9 0.37(3) 0.096(7) 0.108(9) 0.015(6) -0.020(11) 0.061(12)
C10 0.31(2) 0.194(17) 0.094(8) -0.035(9) -0.048(11) 0.073(17)
C11 0.197(13) 0.169(13) 0.249(19) -0.161(14) -0.059(13) 0.028(12)
C12 0.274(16) 0.043(4) 0.215(16) -0.022(6) 0.065(14) 0.007(6)
C13 0.290(17) 0.136(9) 0.083(7) 0.000(5) -0.031(8) 0.086(11)
C14 0.238(15) 0.141(10) 0.160(11) -0.052(9) 0.005(11) -0.038(11)
loop_
_geom_bond_atom_site_label_1
_geom_bond_atom_site_label_2
_geom_bond_site_symmetry_1
_geom_bond_site_symmetry_2
C1 C2 1_555 1_555
C2 C3 1_555 1_555
C3 H1 1_555 1_555
C4 C3 1_555 1_555
H2 C4 1_555 1_555
C5 C2 1_555 1_555
H3 C5 1_555 1_555
C6 C5 1_555 1_555
H4 C6 1_555 1_555
C7 C4 1_555 1_555
C8 C7 1_555 1_555
O1 V1 1_555 1_555
O2 C8 1_555 1_555
O3 C1 1_555 1_555
O4 C8 1_555 1_555
O5 C1 1_555 1_555
V1 O2 1_555 1_555
C9 H5 1_555 1_555
C10 C9 1_555 1_555
H6 C10 1_555 1_555
C11 C10 1_555 1_555
H7 C11 1_555 1_555
C12 C11 1_555 1_555
H8 C12 1_555 1_555
C13 C12 1_555 1_555
H9 C13 1_555 1_555
C14 C9 1_555 1_555
H10 C14 1_555 1_555
O1C V1 1_555 1_555
O3B V1 1_555 1_555
O4C V1 1_555 1_555
O5A V1 1_555 1_555
V1C O1 1_555 1_555
V1B O3 1_555 1_555
V1A O5 1_555 1_555
C6 C7 1_555 1_555
O4 V1C 1_555 1_555
C13 C14 1_555 1_555

#END
