
#######################################################################
#
#                 Cambridge Crystallographic Data Centre
#                                CCDC 
#
#######################################################################
#
# If this CIF has been generated from an entry in the Cambridge 
# Structural Database, then it will include bibliographic, chemical, 
# crystal, experimental, refinement or atomic coordinate data resulting 
# from the CCDC's data processing and validation procedures.
#
#######################################################################

data_IXOFIL
_chemical_formula_moiety         '(C14 H10 O5 V1)n'
_symmetry_cell_setting           orthorhombic
_symmetry_space_group_name_H-M   'P 21 21 21'
_symmetry_Int_Tables_number      19
_space_group_name_Hall           'P 2ac 2ab'
loop_
_symmetry_equiv_pos_site_id
_symmetry_equiv_pos_as_xyz
1 x,y,z
2 1/2-x,-y,1/2+z
3 -x,1/2+y,1/2-z
4 1/2+x,1/2-y,-z
_cell_length_a                   6.8018(4)
_cell_length_b                   13.5344(9)
_cell_length_c                   16.4156(10)
_cell_angle_alpha                90
_cell_angle_beta                 90
_cell_angle_gamma                90
_cell_volume                     1511.19
loop_
_atom_site_label
_atom_site_type_symbol
_atom_site_fract_x
_atom_site_fract_y
_atom_site_fract_z
C1 C 0.3071(17) 0.0683(7) 0.4817(6)
H1 H 0.3002 0.0174 0.5197
C2 C 0.4786(13) 0.1232(8) 0.4739(6)
H2 H 0.5866 0.1091 0.5066
C3 C 0.4888(14) 0.1993(8) 0.4171(7)
H3 H 0.6036 0.2360 0.4119
C4 C 0.327(2) 0.2203(8) 0.3682(6)
H4 H 0.3343 0.2712 0.3302
C5 C 0.1558(17) 0.1654(10) 0.3760(7)
H5 H 0.0479 0.1795 0.3432
C6 C 0.1457(14) 0.0893(9) 0.4327(8)
H6 H 0.0308 0.0526 0.4380
C7 C 0.7741(4) 0.1211(2) 0.10597(16)
C8 C 0.7614(4) 0.0509(2) 0.17416(17)
C9 C 0.5804(4) 0.0276(3) 0.2097(2)
H7 H 0.4662 0.0554 0.1886
C10 C 0.5677(4) -0.0341(3) 0.2739(2)
H8 H 0.4453 -0.0483 0.2963
C11 C 0.7378(4) -0.0772(2) 0.30736(16)
C12 C 0.9169(4) -0.0561(3) 0.2711(2)
H9 H 1.0309 -0.0849 0.2914
C13 C 0.9283(4) 0.0070(3) 0.20576(19)
H10 H 1.0500 0.0203 0.1824
C14 C 0.7255(4) -0.1416(2) 0.37953(15)
O1 O 1.28111(16) 0.18868(10) -0.00422(11)
O2 O 0.9430(3) 0.14257(16) 0.07867(12)
O3 O 0.5585(3) -0.16017(16) 0.40836(12)
O4 O 0.6140(3) 0.15673(17) 0.07945(13)
O5 O 0.8859(3) -0.17534(15) 0.40766(12)
V1 V 1.06289(3) 0.23560(2) -0.00072(3)
O1C O 0.78111(16) 0.31132(10) 0.00422(11)
O3A O 0.9415(3) 0.16017(16) -0.09164(12)
O4C O 1.1140(3) 0.34327(17) -0.07945(13)
O5B O 1.1141(3) 0.32466(15) 0.09234(12)
V1C V 1.56289(3) 0.26440(2) 0.00072(3)
V1A V 0.43711(3) -0.23560(2) 0.49928(3)
V1C_2 V 0.56289(3) 0.26440(2) 0.00072(3)
V1B V 0.93711(3) -0.26440(2) 0.50072(3)
loop_
_geom_bond_atom_site_label_1
_geom_bond_atom_site_label_2
_geom_bond_site_symmetry_1
_geom_bond_site_symmetry_2
C1 H1 1_555 1_555
C2 C1 1_555 1_555
H2 C2 1_555 1_555
C3 C2 1_555 1_555
H3 C3 1_555 1_555
C4 C3 1_555 1_555
H4 C4 1_555 1_555
C5 C4 1_555 1_555
H5 C5 1_555 1_555
C6 C1 1_555 1_555
H6 C6 1_555 1_555
C7 C8 1_555 1_555
C8 C9 1_555 1_555
C9 H7 1_555 1_555
C10 C9 1_555 1_555
H8 C10 1_555 1_555
C11 C10 1_555 1_555
C12 C11 1_555 1_555
H9 C12 1_555 1_555
C13 C8 1_555 1_555
H10 C13 1_555 1_555
C14 C11 1_555 1_555
O1 V1 1_555 1_555
O2 C7 1_555 1_555
O3 C14 1_555 1_555
O4 C7 1_555 1_555
O5 C14 1_555 1_555
V1 O2 1_555 1_555
O1C V1 1_555 1_555
O3A V1 1_555 1_555
O4C V1 1_555 1_555
O5B V1 1_555 1_555
V1C O1 1_555 1_555
V1A O3 1_555 1_555
V1C_2 O4 1_555 1_555
V1B O5 1_555 1_555
C5 C6 1_555 1_555
C12 C13 1_555 1_555
O1C V1C_2 1_555 1_555

#END
