
#######################################################################
#
#                 Cambridge Crystallographic Data Centre
#                                CCDC 
#
#######################################################################
#
# If this CIF has been generated from an entry in the Cambridge 
# Structural Database, then it will include bibliographic, chemical, 
# crystal, experimental, refinement or atomic coordinate data resulting 
# from the CCDC's data processing and validation procedures.
#
#######################################################################

data_CUHPUR
_chemical_formula_moiety         '(C18 H12 Cd1 N2 O4)n'
_symmetry_cell_setting           orthorhombic
_symmetry_space_group_name_H-M   'P b a m'
_symmetry_Int_Tables_number      55
_space_group_name_Hall           '-P 2 2ab'
loop_
_symmetry_equiv_pos_site_id
_symmetry_equiv_pos_as_xyz
1 x,y,z
2 -x,-y,z
3 1/2+x,1/2-y,-z
4 1/2-x,1/2+y,-z
5 -x,-y,-z
6 x,y,-z
7 1/2-x,1/2+y,z
8 1/2+x,1/2-y,z
_cell_length_a                   12.9491(5)
_cell_length_b                   21.2900(6)
_cell_length_c                   11.6829(5)
_cell_angle_alpha                90
_cell_angle_beta                 90
_cell_angle_gamma                90
_cell_volume                     3220.82
loop_
_atom_site_label
_atom_site_type_symbol
_atom_site_fract_x
_atom_site_fract_y
_atom_site_fract_z
Cd1 Cd 0.61047(3) 0.060220(14) 1.0000
C1 C 0.6698(4) -0.0645(2) 1.0000
C2 C 0.7059(4) -0.1310(2) 1.0000
C3 C 0.8087(4) -0.1452(2) 1.0000
H1 H 0.8572 -0.1117 1.0000
C4 C 0.8446(4) -0.2052(3) 1.0000
H2 H 0.9167 -0.2134 1.0000
C5 C 0.7713(4) -0.2565(2) 1.0000
C6 C 0.6690(4) -0.2417(2) 1.0000
H3 H 0.6190 -0.2743 1.0000
C7 C 0.6369(4) -0.1792(3) 1.0000
H4 H 0.5651 -0.1701 1.0000
C8 C 0.8087(4) -0.3216(2) 1.0000
C9 C 0.5318(5) 0.0877(3) 0.7445(5)
H5 H 0.4771 0.1072 0.7854
C10 C 0.5293(5) 0.0897(3) 0.6265(5)
H6 H 0.4734 0.1100 0.5889
C11 C 0.6053(3) 0.06325(18) 0.5634(4)
C12 C 0.6819(5) 0.0342(4) 0.6258(5)
H7 H 0.7377 0.0143 0.5876
C13 C 0.6777(5) 0.0342(4) 0.7432(5)
H8 H 0.7314 0.0135 0.7837
N1 N 0.6044(2) 0.06074(14) 0.8024(3)
O1 O 0.7352(3) -0.02116(14) 1.0000
O2 O 0.5742(3) -0.05211(14) 1.0000
O3 O 0.9026(3) -0.33188(17) 1.0000
O4 O 0.7457(3) -0.36662(15) 1.0000
Cd1A Cd 0.38953(3) -0.060220(14) 1.0000
Cd1C Cd 0.88953(3) -0.439780(14) 1.0000
Cd1_2 Cd 0.61047(3) 0.060220(14) 0.0000
C9E C 0.5318(5) 0.0877(3) 0.2555(5)
H5E H 0.4771 0.1072 0.2146
C10E C 0.5293(5) 0.0897(3) 0.3735(5)
H6E H 0.4734 0.1100 0.4111
C11E C 0.6053(3) 0.06325(18) 0.4366(4)
C12E C 0.6819(5) 0.0342(4) 0.3742(5)
H7E H 0.7377 0.0143 0.4124
C13E C 0.6777(5) 0.0342(4) 0.2568(5)
H8E H 0.7314 0.0135 0.2163
N1E N 0.6044(2) 0.06074(14) 0.1976(3)
N1E_2 N 0.6044(2) 0.06074(14) 1.1976(3)
O2A O 0.4258(3) 0.05211(14) 1.0000
O3C O 0.5974(3) 0.16812(17) 1.0000
O4C O 0.7543(3) 0.13338(15) 1.0000
loop_
_geom_bond_atom_site_label_1
_geom_bond_atom_site_label_2
_geom_bond_site_symmetry_1
_geom_bond_site_symmetry_2
Cd1 N1 1_555 1_555
C1 C2 1_555 1_555
C2 C3 1_555 1_555
C3 H1 1_555 1_555
C4 C3 1_555 1_555
H2 C4 1_555 1_555
C5 C4 1_555 1_555
C6 C5 1_555 1_555
H3 C6 1_555 1_555
C7 C2 1_555 1_555
H4 C7 1_555 1_555
C8 C5 1_555 1_555
C9 H5 1_555 1_555
C10 C9 1_555 1_555
H6 C10 1_555 1_555
C11 C10 1_555 1_555
C12 C11 1_555 1_555
H7 C12 1_555 1_555
C13 C12 1_555 1_555
H8 C13 1_555 1_555
N1 C9 1_555 1_555
O1 Cd1 1_555 1_555
O2 Cd1 1_555 1_555
O3 C8 1_555 1_555
O4 C8 1_555 1_555
Cd1A O2 1_555 1_555
Cd1C O3 1_555 1_555
Cd1_2 N1E 1_555 1_555
C9E H5E 1_555 1_555
C10E C9E 1_555 1_555
H6E C10E 1_555 1_555
C11E C11 1_555 1_555
C12E C11E 1_555 1_555
H7E C12E 1_555 1_555
C13E C12E 1_555 1_555
H8E C13E 1_555 1_555
N1E C9E 1_555 1_555
N1E_2 Cd1 1_555 1_555
O2A Cd1 1_555 1_555
O3C Cd1 1_555 1_555
O4C Cd1 1_555 1_555
C1 O1 1_555 1_555
C1 O2 1_555 1_555
C6 C7 1_555 1_555
C13 N1 1_555 1_555
O4 Cd1C 1_555 1_555
Cd1A O2A 1_555 1_555
C10E C11E 1_555 1_555
C13E N1E 1_555 1_555

#END
