
#######################################################################
#
#                 Cambridge Crystallographic Data Centre
#                                CCDC 
#
#######################################################################
#
# If this CIF has been generated from an entry in the Cambridge 
# Structural Database, then it will include bibliographic, chemical, 
# crystal, experimental, refinement or atomic coordinate data resulting 
# from the CCDC's data processing and validation procedures.
#
#######################################################################

data_NOHLAZ
_chemical_formula_moiety         'C8 H10 N2 Na4 O21 Sm4'
_symmetry_cell_setting           orthorhombic
_symmetry_space_group_name_H-M   'P n m a'
_symmetry_Int_Tables_number      62
_space_group_name_Hall           '-P 2ac 2n'
loop_
_symmetry_equiv_pos_site_id
_symmetry_equiv_pos_as_xyz
1 x,y,z
2 1/2-x,-y,1/2+z
3 1/2+x,1/2-y,1/2-z
4 -x,1/2+y,-z
5 -x,-y,-z
6 1/2+x,y,1/2-z
7 1/2-x,1/2+y,1/2+z
8 x,1/2-y,z
_cell_length_a                   15.569(3)
_cell_length_b                   6.8533(13)
_cell_length_c                   14.397(3)
_cell_angle_alpha                90
_cell_angle_beta                 90
_cell_angle_gamma                90
_cell_volume                     1536.15
loop_
_atom_site_label
_atom_site_type_symbol
_atom_site_fract_x
_atom_site_fract_y
_atom_site_fract_z
O9 O -0.086(2) -0.2500 0.1639(13)
H5 H -0.1346 -0.2500 0.1373
H6 H -0.0463 -0.2500 0.1233
Sm1 Sm -0.19819(4) -0.2500 0.62143(5)
Na1 Na 0.2595(4) 0.2500 0.6921(3)
O1 O -0.1460(5) -0.2500 0.4591(6)
O2 O -0.0445(8) -0.2500 0.3499(6)
O3 O 0.1474(6) -0.4107(9) 0.3615(6)
O4 O 0.2064(6) -0.0910(12) 0.7497(8)
O5 O 0.0283(12) -0.2500 0.8265(9)
O6 O -0.0988(10) -0.2500 0.7591(7)
O7 O -0.3019(9) -0.024(3) 0.5396(16)
H1 H -0.3155 0.0313 0.5904
H2 H -0.3364 -0.1172 0.5286
N1 N -0.0319(5) -0.2500 0.5934(5)
N2 N 0.1422(6) -0.2500 0.5617(10)
C1 C -0.0012(6) -0.2500 0.5066(7)
C2 C 0.0874(7) -0.2500 0.4910(8)
C3 C 0.1109(9) -0.2500 0.6474(11)
C4 C 0.0223(8) -0.2500 0.6635(8)
C5 C -0.0693(7) -0.2500 0.4310(6)
C6 C 0.1292(9) -0.2500 0.3960(11)
C7 C 0.1789(12) -0.2500 0.7225(14)
C8 C -0.0183(13) -0.2500 0.7582(10)
O8 O 0.378(2) 0.026(6) 0.601(2)
H3 H 0.4026 -0.0406 0.6431
H4 H 0.3308 -0.0297 0.5872
O3G O 0.1474(6) -0.0893(9) 0.3615(6)
O4G O 0.2064(6) -0.4090(12) 0.7497(8)
O7G O -0.3019(9) -0.476(3) 0.5396(16)
H1G H -0.3155 -0.5313 0.5904
H2G H -0.3364 -0.3828 0.5286
O8G O 0.378(2) 0.474(6) 0.601(2)
H3G H 0.4026 0.5406 0.6431
H4G H 0.3308 0.5297 0.5872
Sm1B Sm 0.30181(4) -0.2500 0.87857(5)
Sm1C Sm 0.19819(4) -0.7500 0.37857(5)
Sm1C_2 Sm 0.19819(4) 0.2500 0.37857(5)
Na1_2 Na 0.2595(4) -0.7500 0.6921(3)
Na1A Na 0.2405(4) -0.2500 0.1921(3)
Na1C Na -0.2595(4) -0.2500 0.3079(3)
O1C O 0.1460(5) 0.2500 0.5409(6)
O3A O 0.3526(6) 0.4107(9) 0.8615(6)
O3C O -0.1474(6) 0.0893(9) 0.6385(6)
O3D O -0.1474(6) -0.5893(9) 0.6385(6)
O3F O 0.3526(6) 0.0893(9) 0.8615(6)
O4B O -0.2936(6) -0.4090(12) 0.7503(8)
O4E O -0.2936(6) -0.0910(12) 0.7503(8)
O4G_2 O 0.2064(6) 0.5910(12) 0.7497(8)
loop_
_geom_bond_atom_site_label_1
_geom_bond_atom_site_label_2
_geom_bond_site_symmetry_1
_geom_bond_site_symmetry_2
Sm1 O1 1_555 1_555
Na1 O4 1_555 1_555
O1 C5 1_555 1_555
O2 C5 1_555 1_555
O3 C6 1_555 1_555
O4 C7 1_555 1_555
O5 C8 1_555 1_555
O6 Sm1 1_555 1_555
O7 Sm1 1_555 1_555
H1 O7 1_555 1_555
H2 O7 1_555 1_555
N1 Sm1 1_555 1_555
N2 C2 1_555 1_555
C1 N1 1_555 1_555
C2 C1 1_555 1_555
C3 N2 1_555 1_555
C4 N1 1_555 1_555
C5 C1 1_555 1_555
C6 C2 1_555 1_555
C7 C3 1_555 1_555
C8 O6 1_555 1_555
O8 Na1 1_555 1_555
H3 O8 1_555 1_555
H4 O8 1_555 1_555
O9 H5 1_555 1_555
H6 O9 1_555 1_555
O3G C6 1_555 1_555
O4G C7 1_555 1_555
O7G Sm1 1_555 1_555
H1G O7G 1_555 1_555
H2G O7G 1_555 1_555
O8G Na1 1_555 1_555
H3G O8G 1_555 1_555
H4G O8G 1_555 1_555
Sm1B O4 1_555 1_555
Sm1C O3 1_555 1_555
Sm1C_2 O3G 1_555 1_555
Na1_2 O4G 1_555 1_555
Na1A O3 1_555 1_555
Na1C O1 1_555 1_555
O1C Na1 1_555 1_555
O3A Na1 1_555 1_555
O3C Sm1 1_555 1_555
O3D Sm1 1_555 1_555
O3F Na1 1_555 1_555
O4B Sm1 1_555 1_555
O4E Sm1 1_555 1_555
O4G_2 Na1 1_555 1_555
C3 C4 1_555 1_555
C4 C8 1_555 1_555
O3G Na1A 1_555 1_555
O4G Sm1B 1_555 1_555
Sm1B O3F 1_555 1_555
Sm1C_2 O1C 1_555 1_555

#END
