
#######################################################################
#
#                 Cambridge Crystallographic Data Centre
#                                CCDC 
#
#######################################################################
#
# If this CIF has been generated from an entry in the Cambridge 
# Structural Database, then it will include bibliographic, chemical, 
# crystal, experimental, refinement or atomic coordinate data resulting 
# from the CCDC's data processing and validation procedures.
#
#######################################################################

data_NUCBIY
_chemical_formula_moiety         '(C76 H84 N12 O17 Zn3)n'
_symmetry_cell_setting           orthorhombic
_symmetry_space_group_name_H-M   'F d d 2'
_symmetry_Int_Tables_number      43
_space_group_name_Hall           'F 2 -2d'
loop_
_symmetry_equiv_pos_site_id
_symmetry_equiv_pos_as_xyz
1 x,y,z
2 -x,-y,z
3 1/4-x,1/4+y,1/4+z
4 1/4+x,1/4-y,1/4+z
5 x,1/2+y,1/2+z
6 -x,1/2-y,1/2+z
7 1/4-x,3/4+y,3/4+z
8 1/4+x,3/4-y,3/4+z
9 1/2+x,y,1/2+z
10 1/2-x,-y,1/2+z
11 3/4-x,1/4+y,3/4+z
12 3/4+x,1/4-y,3/4+z
13 1/2+x,1/2+y,z
14 1/2-x,1/2-y,z
15 3/4-x,3/4+y,1/4+z
16 3/4+x,3/4-y,1/4+z
_cell_length_a                   22.3458(7)
_cell_length_b                   29.7691(11)
_cell_length_c                   33.3734(11)
_cell_angle_alpha                90
_cell_angle_beta                 90
_cell_angle_gamma                90
_cell_volume                     22200.5
loop_
_atom_site_label
_atom_site_type_symbol
_atom_site_fract_x
_atom_site_fract_y
_atom_site_fract_z
_atom_site_U_iso_or_equiv
_atom_site_thermal_displace_type
Zn1 Zn 1.0000 0.5000 0.38346(5) 0.0304 Uani
O1 O 0.8571(3) 0.3223(2) 0.6375(2) 0.0493 Uani
O2 O 0.7902(3) 0.2909(2) 0.59717(19) 0.0393 Uani
N1 N 0.9015(3) 0.5025(2) 0.4404(2) 0.0360 Uani
H1 H 0.8953 0.5292 0.4317 0.0430 Uiso
N2 N 0.9407(3) 0.4728(3) 0.4233(2) 0.0370 Uani
C1 C 0.8508(4) 0.3491(3) 0.5709(3) 0.0337 Uani
C2 C 0.8350(4) 0.3398(3) 0.5317(3) 0.0410 Uani
H2 H 0.8134 0.3140 0.5256 0.0490 Uiso
C3 C 0.9389(4) 0.4362(3) 0.4464(3) 0.0360 Uani
C4 C 0.8518(4) 0.3697(3) 0.5011(3) 0.0430 Uani
H3 H 0.8423 0.3629 0.4747 0.0510 Uiso
C5 C 0.8981(4) 0.4414(3) 0.4771(3) 0.0333 Uani
C6 C 0.8824(4) 0.4092(3) 0.5097(3) 0.0357 Uani
C7 C 0.8744(4) 0.4850(3) 0.4719(3) 0.0400 Uani
C8 C 0.8978(4) 0.4181(3) 0.5494(3) 0.0383 Uani
H4 H 0.9180 0.4445 0.5558 0.0460 Uiso
C9 C 0.8833(4) 0.3881(3) 0.5790(3) 0.0403 Uani
H5 H 0.8954 0.3938 0.6052 0.0490 Uiso
C10 C 0.8322(4) 0.3185(3) 0.6050(3) 0.0380 Uani
C11 C 0.9781(4) 0.3965(3) 0.4382(3) 0.0433 Uani
H6 H 0.9784 0.3905 0.4099 0.0650 Uiso
H7 H 0.9628 0.3708 0.4522 0.0650 Uiso
H8 H 1.0180 0.4028 0.4471 0.0650 Uiso
C12 C 0.8282(5) 0.5101(4) 0.4953(3) 0.0460 Uani
H9 H 0.8472 0.5330 0.5109 0.0690 Uiso
H10 H 0.8075 0.4897 0.5127 0.0690 Uiso
H11 H 0.8002 0.5237 0.4771 0.0690 Uiso
O1A O 1.1429(3) 0.6777(2) 0.6375(2) 0.0493 Uani
O2A O 1.2098(3) 0.7091(2) 0.59717(19) 0.0393 Uani
N1A N 1.0985(3) 0.4975(2) 0.4404(2) 0.0360 Uani
H1A H 1.1047 0.4708 0.4317 0.0430 Uiso
N2A N 1.0593(3) 0.5272(3) 0.4233(2) 0.0370 Uani
C1A C 1.1492(4) 0.6509(3) 0.5709(3) 0.0337 Uani
C2A C 1.1650(4) 0.6602(3) 0.5317(3) 0.0410 Uani
H2A H 1.1866 0.6860 0.5256 0.0490 Uiso
C3A C 1.0611(4) 0.5638(3) 0.4464(3) 0.0360 Uani
C4A C 1.1482(4) 0.6303(3) 0.5011(3) 0.0430 Uani
H3A H 1.1577 0.6371 0.4747 0.0510 Uiso
C5A C 1.1019(4) 0.5586(3) 0.4771(3) 0.0333 Uani
C6A C 1.1176(4) 0.5908(3) 0.5097(3) 0.0357 Uani
C7A C 1.1256(4) 0.5150(3) 0.4719(3) 0.0400 Uani
C8A C 1.1022(4) 0.5819(3) 0.5494(3) 0.0383 Uani
H4A H 1.0820 0.5555 0.5558 0.0460 Uiso
C9A C 1.1167(4) 0.6119(3) 0.5790(3) 0.0403 Uani
H5A H 1.1046 0.6062 0.6052 0.0490 Uiso
C10A C 1.1678(4) 0.6815(3) 0.6050(3) 0.0380 Uani
C11A C 1.0219(4) 0.6035(3) 0.4382(3) 0.0433 Uani
H6A H 1.0216 0.6095 0.4099 0.0650 Uiso
H7A H 1.0372 0.6292 0.4522 0.0650 Uiso
H8A H 0.9820 0.5972 0.4471 0.0650 Uiso
C12A C 1.1718(5) 0.4899(4) 0.4953(3) 0.0460 Uani
H9A H 1.1528 0.4670 0.5109 0.0690 Uiso
H10A H 1.1925 0.5103 0.5127 0.0690 Uiso
H11A H 1.1998 0.4763 0.4771 0.0690 Uiso
Zn1B Zn 1.2500 0.7500 0.63346(5) 0.0304 Uani
Zn1N Zn 0.7500 0.2500 0.63346(5) 0.0304 Uani
O2G O 1.0402(3) 0.4591(2) 0.34717(19) 0.0393 Uani
O2J O 0.9598(3) 0.5409(2) 0.34717(19) 0.0393 Uani
Zn2 Zn 0.5000 0.5000 0.50050(5) 0.0316 Uani
O3 O 0.2939(3) 0.7088(3) 0.2853(2) 0.0483 Uani
O4 O 0.3852(3) 0.7385(3) 0.2903(2) 0.0493 Uani
N3 N 0.3862(3) 0.5400(3) 0.4779(2) 0.0383 Uani
H12 H 0.3701 0.5253 0.4973 0.0460 Uiso
N4 N 0.4449(3) 0.5369(2) 0.4679(2) 0.0327 Uani
C13 C 0.3604(4) 0.6771(3) 0.3319(3) 0.0330 Uani
C14 C 0.3243(4) 0.6400(3) 0.3380(3) 0.0447 Uani
H13 H 0.2916 0.6352 0.3214 0.0530 Uiso
C15 C 0.4523(4) 0.5648(3) 0.4371(3) 0.0353 Uani
C16 C 0.3364(4) 0.6099(4) 0.3686(3) 0.0450 Uani
H14 H 0.3114 0.5853 0.3725 0.0540 Uiso
C17 C 0.3981(4) 0.5850(3) 0.4265(3) 0.0373 Uani
C18 C 0.3857(4) 0.6163(3) 0.3936(3) 0.0347 Uani
C19 C 0.3562(4) 0.5685(3) 0.4544(3) 0.0393 Uani
C20 C 0.4224(4) 0.6527(3) 0.3862(3) 0.0370 Uani
H15 H 0.4558 0.6572 0.4023 0.0440 Uiso
C21 C 0.4109(4) 0.6824(3) 0.3557(3) 0.0373 Uani
H16 H 0.4370 0.7061 0.3509 0.0440 Uiso
C22 C 0.3463(4) 0.7111(3) 0.3003(3) 0.0367 Uani
C23 C 0.5123(4) 0.5703(4) 0.4176(3) 0.0507 Uani
H17 H 0.5173 0.6009 0.4093 0.0760 Uiso
H18 H 0.5149 0.5508 0.3948 0.0760 Uiso
H19 H 0.5432 0.5626 0.4365 0.0760 Uiso
C24 C 0.2919(4) 0.5793(4) 0.4604(4) 0.0573 Uani
H20 H 0.2680 0.5607 0.4432 0.0860 Uiso
H21 H 0.2850 0.6103 0.4541 0.0860 Uiso
H22 H 0.2811 0.5737 0.4878 0.0860 Uiso
O3A O 0.7061(3) 0.2912(3) 0.2853(2) 0.0483 Uani
O4A O 0.6148(3) 0.2615(3) 0.2903(2) 0.0493 Uani
N3A N 0.6138(3) 0.4600(3) 0.4779(2) 0.0383 Uani
H12A H 0.6299 0.4747 0.4973 0.0460 Uiso
N4A N 0.5551(3) 0.4631(2) 0.4679(2) 0.0327 Uani
C13A C 0.6396(4) 0.3229(3) 0.3319(3) 0.0330 Uani
C14A C 0.6757(4) 0.3600(3) 0.3380(3) 0.0447 Uani
H13A H 0.7084 0.3648 0.3214 0.0530 Uiso
C15A C 0.5477(4) 0.4352(3) 0.4371(3) 0.0353 Uani
C16A C 0.6636(4) 0.3901(4) 0.3686(3) 0.0450 Uani
H14A H 0.6886 0.4147 0.3725 0.0540 Uiso
C17A C 0.6019(4) 0.4150(3) 0.4265(3) 0.0373 Uani
C18A C 0.6143(4) 0.3837(3) 0.3936(3) 0.0347 Uani
C19A C 0.6438(4) 0.4315(3) 0.4544(3) 0.0393 Uani
C20A C 0.5776(4) 0.3473(3) 0.3862(3) 0.0370 Uani
H15A H 0.5442 0.3428 0.4023 0.0440 Uiso
C21A C 0.5891(4) 0.3176(3) 0.3557(3) 0.0373 Uani
H16A H 0.5630 0.2939 0.3509 0.0440 Uiso
C22A C 0.6537(4) 0.2889(3) 0.3003(3) 0.0367 Uani
C23A C 0.4877(4) 0.4297(4) 0.4176(3) 0.0507 Uani
H17A H 0.4827 0.3991 0.4093 0.0760 Uiso
H18A H 0.4851 0.4492 0.3948 0.0760 Uiso
H19A H 0.4568 0.4374 0.4365 0.0760 Uiso
C24A C 0.7081(4) 0.4207(4) 0.4604(4) 0.0573 Uani
H20A H 0.7320 0.4393 0.4432 0.0860 Uiso
H21A H 0.7150 0.3897 0.4541 0.0860 Uiso
H22A H 0.7189 0.4263 0.4878 0.0860 Uiso
Zn2F Zn 0.7500 0.2500 0.25050(5) 0.0316 Uani
Zn2J Zn 0.2500 0.7500 0.25050(5) 0.0316 Uani
O3C O 0.5439(3) 0.5412(3) 0.5353(2) 0.0483 Uani
O3N O 0.4561(3) 0.4588(3) 0.5353(2) 0.0483 Uani
Zn3 Zn 0.75206(5) 0.50489(4) 0.68707(3) 0.0315 Uani
O5 O 0.9496(3) 0.2900(2) 0.90002(18) 0.0360 Uani
O6 O 0.6244(3) 0.2651(3) 0.4815(2) 0.0500 Uani
O7 O 0.8674(3) 0.2488(2) 0.8861(2) 0.0467 Uani
O8 O 0.5349(3) 0.2982(2) 0.47273(19) 0.0390 Uani
N5 N 0.8546(4) 0.4467(3) 0.6987(3) 0.0470 Uani
H23 H 0.8679 0.4567 0.6762 0.0560 Uiso
N6 N 0.6351(3) 0.4676(3) 0.6657(2) 0.0393 Uani
H24 H 0.6203 0.4809 0.6863 0.0470 Uiso
N7 N 0.8043(3) 0.4617(3) 0.7167(2) 0.0377 Uani
N8 N 0.6938(3) 0.4708(3) 0.6539(2) 0.0370 Uani
C25 C 0.8861(4) 0.3148(3) 0.8487(3) 0.0360 Uani
C26 C 0.6018(4) 0.3308(3) 0.5188(3) 0.0343 Uani
C27 C 0.9289(4) 0.3459(3) 0.8353(3) 0.0387 Uani
H25 H 0.9668 0.3461 0.8468 0.0470 Uiso
C28 C 0.5654(4) 0.3672(3) 0.5263(3) 0.0367 Uani
H26 H 0.5308 0.3706 0.5111 0.0440 Uiso
C29 C 0.7983(4) 0.4373(3) 0.7503(3) 0.0373 Uani
C30 C 0.6988(4) 0.4454(3) 0.6214(3) 0.0417 Uani
C31 C 0.9155(4) 0.3761(3) 0.8054(3) 0.0420 Uani
H27 H 0.9439 0.3971 0.7976 0.0500 Uiso
C32 C 0.5782(4) 0.3986(3) 0.5552(3) 0.0360 Uani
H28 H 0.5526 0.4228 0.5591 0.0430 Uiso
C33 C 0.8455(4) 0.4075(3) 0.7532(3) 0.0437 Uani
C34 C 0.6423(4) 0.4253(3) 0.6111(3) 0.0387 Uani
C35 C 0.8597(4) 0.3755(3) 0.7866(3) 0.0380 Uani
C36 C 0.6304(4) 0.3941(3) 0.5793(3) 0.0383 Uani
C37 C 0.8812(4) 0.4144(4) 0.7199(3) 0.0460 Uani
C38 C 0.6035(4) 0.4409(3) 0.6410(3) 0.0407 Uani
C39 C 0.8173(4) 0.3444(4) 0.7996(3) 0.0447 Uani
H29 H 0.7798 0.3436 0.7875 0.0540 Uiso
C40 C 0.6677(5) 0.3579(4) 0.5714(3) 0.0470 Uani
H30 H 0.7027 0.3548 0.5862 0.0570 Uiso
C41 C 0.8305(4) 0.3147(3) 0.8303(3) 0.0413 Uani
H31 H 0.8015 0.2944 0.8388 0.0500 Uiso
C42 C 0.6547(4) 0.3260(3) 0.5422(3) 0.0443 Uani
H32 H 0.6803 0.3018 0.5380 0.0530 Uiso
C43 C 0.9011(4) 0.2821(3) 0.8806(3) 0.0360 Uani
C44 C 0.5865(4) 0.2956(3) 0.4888(3) 0.0393 Uani
C45 C 0.7466(4) 0.4440(4) 0.7781(3) 0.0430 Uani
H33 H 0.7612 0.4527 0.8040 0.0640 Uiso
H34 H 0.7245 0.4165 0.7804 0.0640 Uiso
H35 H 0.7210 0.4672 0.7678 0.0640 Uiso
C46 C 0.7557(5) 0.4433(5) 0.5992(4) 0.0593 Uani
H36 H 0.7827 0.4233 0.6126 0.0890 Uiso
H37 H 0.7731 0.4728 0.5979 0.0890 Uiso
H38 H 0.7483 0.4326 0.5725 0.0890 Uiso
C47 C 0.9371(5) 0.3913(5) 0.7049(4) 0.0607 Uani
H39 H 0.9684 0.4131 0.7014 0.0910 Uiso
H40 H 0.9289 0.3771 0.6797 0.0910 Uiso
H41 H 0.9496 0.3691 0.7240 0.0910 Uiso
C48 C 0.5390(5) 0.4321(4) 0.6479(4) 0.0553 Uani
H42 H 0.5159 0.4457 0.6269 0.0830 Uiso
H43 H 0.5273 0.4447 0.6732 0.0830 Uiso
H44 H 0.5320 0.4003 0.6481 0.0830 Uiso
Zn3F Zn 0.49794(5) 0.25489(4) 0.43707(3) 0.0315 Uani
Zn3N Zn 0.99794(5) 0.25489(4) 0.93707(3) 0.0315 Uani
O5J O 0.8004(3) 0.5400(2) 0.65002(18) 0.0360 Uani
O8B O 0.7151(3) 0.5482(2) 0.72273(19) 0.0390 Uani
O9 O 0.7073(8) 0.5761(7) 0.4976(6) 0.0707 Uani
H45 H 0.6784 0.5903 0.4869 0.1060 Uiso
H46 H 0.7101 0.5503 0.4870 0.1060 Uiso
O10 O 0.3431(18) 0.5109(13) 0.3140(10) 0.1533 Uani
H47 H 0.3276 0.5337 0.3231 0.2250 Uiso
C49 C 0.4081(13) 0.5019(7) 0.3353(9) 0.0633 Uani
H48 H 0.4384 0.5182 0.3211 0.0950 Uiso
H49 H 0.4173 0.4704 0.3348 0.0950 Uiso
H50 H 0.4066 0.5120 0.3626 0.0950 Uiso
O11 O 0.2528(11) 0.5156(8) 0.3775(10) 0.1413 Uani
H51 H 0.2499 0.4904 0.3871 0.2120 Uiso
C50 C 0.1963(7) 0.5301(6) 0.3641(5) 0.0377 Uani
H52 H 0.1817 0.5105 0.3434 0.0570 Uiso
H53 H 0.1994 0.5601 0.3538 0.0570 Uiso
H54 H 0.1693 0.5297 0.3864 0.0570 Uiso
O12 O 0.6683(13) 0.6616(10) 0.5097(12) 0.1363 Uani
H55 H 0.6686 0.6355 0.5177 0.2040 Uiso
C51 C 0.6185(12) 0.6697(12) 0.4922(9) 0.0800 Uani
H56 H 0.6154 0.6522 0.4681 0.1180 Uiso
H57 H 0.6162 0.7010 0.4857 0.1180 Uiso
H58 H 0.5864 0.6619 0.5100 0.1180 Uiso
O13 O 0.7096(16) 0.5548(8) 0.4180(8) 0.1173 Uani
H59 H 0.7008 0.5622 0.4409 0.1750 Uiso
C52 C 0.7000(17) 0.5897(10) 0.3928(8) 0.0827 Uani
H60 H 0.6709 0.5811 0.3731 0.1240 Uiso
H61 H 0.7370 0.5970 0.3797 0.1240 Uiso
H62 H 0.6858 0.6155 0.4072 0.1240 Uiso
loop_
_atom_site_aniso_label
_atom_site_aniso_U_11
_atom_site_aniso_U_22
_atom_site_aniso_U_33
_atom_site_aniso_U_23
_atom_site_aniso_U_13
_atom_site_aniso_U_12
Zn1 0.0338(8) 0.0338(8) 0.0237(8) 0.000 0.000 0.0004(6)
O1 0.060(4) 0.050(4) 0.038(4) 0.017(3) -0.002(3) -0.006(3)
O2 0.045(3) 0.042(3) 0.031(3) 0.011(3) 0.004(3) -0.002(3)
N1 0.040(4) 0.040(4) 0.028(4) 0.005(3) 0.000(3) 0.006(3)
N2 0.043(4) 0.040(4) 0.028(4) 0.004(3) -0.002(3) 0.000(3)
C1 0.033(4) 0.038(4) 0.030(4) 0.005(4) 0.002(3) 0.004(3)
C2 0.047(5) 0.041(5) 0.035(5) -0.001(4) -0.004(4) -0.006(4)
C3 0.034(4) 0.040(4) 0.034(4) 0.000(4) -0.001(4) 0.001(3)
C4 0.051(5) 0.046(5) 0.032(5) -0.003(4) -0.001(4) -0.004(4)
C5 0.039(4) 0.036(4) 0.025(4) -0.001(3) 0.000(3) 0.000(3)
C6 0.036(4) 0.041(4) 0.030(4) -0.005(4) -0.002(3) 0.003(3)
C7 0.047(5) 0.042(5) 0.031(4) 0.005(4) 0.001(4) -0.001(4)
C8 0.044(5) 0.040(4) 0.031(4) 0.001(4) 0.002(4) -0.002(4)
C9 0.047(5) 0.041(4) 0.033(5) 0.002(4) -0.001(4) 0.002(4)
C10 0.040(4) 0.042(4) 0.032(4) 0.003(4) 0.006(4) 0.009(4)
C11 0.054(5) 0.041(5) 0.035(5) 0.005(4) 0.006(4) 0.007(4)
C12 0.050(5) 0.053(5) 0.035(5) 0.005(4) 0.005(4) 0.006(4)
O1A 0.06 0.05 0.038 -0.017 0.002 -0.006
O2A 0.045 0.042 0.031 -0.011 -0.004 -0.002
N1A 0.04 0.04 0.028 -0.005 0 0.006
N2A 0.043 0.04 0.028 -0.004 0.002 0
C1A 0.033 0.038 0.03 -0.005 -0.002 0.004
C2A 0.047 0.041 0.035 0.001 0.004 -0.006
C3A 0.034 0.04 0.034 0 0.001 0.001
C4A 0.051 0.046 0.032 0.003 0.001 -0.004
C5A 0.039 0.036 0.025 0.001 0 0
C6A 0.036 0.041 0.03 0.005 0.002 0.003
C7A 0.047 0.042 0.031 -0.005 -0.001 -0.001
C8A 0.044 0.04 0.031 -0.001 -0.002 -0.002
C9A 0.047 0.041 0.033 -0.002 0.001 0.002
C10A 0.04 0.042 0.032 -0.003 -0.006 0.009
C11A 0.054 0.041 0.035 -0.005 -0.006 0.007
C12A 0.05 0.053 0.035 -0.005 -0.005 0.006
Zn1B 0.0338 0.0338 0.0237 0 0 -0.0004
Zn1N 0.0338 0.0338 0.0237 0 0 -0.0004
O2G 0.045 0.042 0.031 -0.011 0.004 0.002
O2J 0.045 0.042 0.031 0.011 -0.004 0.002
Zn2 0.0312(8) 0.0381(8) 0.0256(8) 0.000 0.000 0.0025(6)
O3 0.041(3) 0.057(4) 0.047(4) 0.021(3) -0.012(3) -0.008(3)
O4 0.045(3) 0.058(4) 0.045(4) 0.020(3) -0.013(3) -0.009(3)
N3 0.032(3) 0.046(4) 0.037(4) 0.007(3) -0.001(3) -0.005(3)
N4 0.029(3) 0.039(4) 0.030(4) 0.001(3) -0.001(3) 0.003(3)
C13 0.038(4) 0.033(4) 0.028(4) 0.001(3) 0.000(3) -0.001(3)
C14 0.036(4) 0.051(5) 0.047(5) 0.009(4) -0.008(4) -0.001(4)
C15 0.037(4) 0.038(4) 0.031(4) 0.001(4) -0.002(4) 0.000(3)
C16 0.046(5) 0.048(5) 0.041(5) 0.010(4) -0.003(4) -0.006(4)
C17 0.036(4) 0.043(5) 0.033(5) -0.003(4) 0.004(3) -0.001(4)
C18 0.038(4) 0.035(4) 0.031(4) 0.002(3) 0.007(3) 0.003(3)
C19 0.038(4) 0.045(5) 0.035(5) 0.012(4) 0.001(4) 0.000(4)
C20 0.038(4) 0.044(5) 0.029(4) -0.002(4) -0.003(4) 0.005(4)
C21 0.038(4) 0.039(4) 0.035(5) 0.001(4) 0.007(4) -0.002(3)
C22 0.044(5) 0.037(4) 0.029(4) 0.000(4) 0.001(4) -0.001(4)
C23 0.045(5) 0.062(6) 0.045(6) 0.026(5) 0.004(4) 0.009(5)
C24 0.041(5) 0.076(7) 0.055(6) 0.033(6) 0.012(5) 0.008(5)
O3A 0.041 0.057 0.047 -0.021 0.012 -0.008
O4A 0.045 0.058 0.045 -0.02 0.013 -0.009
N3A 0.032 0.046 0.037 -0.007 0.001 -0.005
N4A 0.029 0.039 0.03 -0.001 0.001 0.003
C13A 0.038 0.033 0.028 -0.001 0 -0.001
C14A 0.036 0.051 0.047 -0.009 0.008 -0.001
C15A 0.037 0.038 0.031 -0.001 0.002 0
C16A 0.046 0.048 0.041 -0.01 0.003 -0.006
C17A 0.036 0.043 0.033 0.003 -0.004 -0.001
C18A 0.038 0.035 0.031 -0.002 -0.007 0.003
C19A 0.038 0.045 0.035 -0.012 -0.001 0
C20A 0.038 0.044 0.029 0.002 0.003 0.005
C21A 0.038 0.039 0.035 -0.001 -0.007 -0.002
C22A 0.044 0.037 0.029 0 -0.001 -0.001
C23A 0.045 0.062 0.045 -0.026 -0.004 0.009
C24A 0.041 0.076 0.055 -0.033 -0.012 0.008
Zn2F 0.0312 0.0381 0.0256 0 0 -0.0025
Zn2J 0.0312 0.0381 0.0256 0 0 -0.0025
O3C 0.041 0.057 0.047 -0.021 -0.012 0.008
O3N 0.041 0.057 0.047 0.021 0.012 0.008
Zn3 0.0332(5) 0.0369(6) 0.0243(6) 0.0018(5) 0.0012(4) -0.0005(4)
O5 0.038(3) 0.039(3) 0.031(3) 0.014(3) -0.004(3) -0.001(2)
O6 0.051(4) 0.057(4) 0.042(4) -0.017(3) -0.010(3) 0.011(3)
O7 0.042(4) 0.059(4) 0.039(4) 0.017(3) -0.008(3) -0.005(3)
O8 0.042(3) 0.043(3) 0.032(3) -0.002(3) -0.004(3) -0.002(3)
N5 0.045(4) 0.056(5) 0.040(4) 0.021(4) 0.011(3) 0.008(4)
N6 0.040(4) 0.045(4) 0.033(4) -0.007(3) -0.002(3) 0.004(3)
N7 0.034(3) 0.047(4) 0.032(4) 0.011(3) -0.001(3) 0.000(3)
N8 0.039(4) 0.041(4) 0.031(4) -0.003(3) -0.004(3) -0.002(3)
C25 0.040(4) 0.042(4) 0.026(4) 0.000(4) 0.001(3) -0.001(4)
C26 0.037(4) 0.039(4) 0.027(4) 0.000(3) -0.003(3) 0.002(3)
C27 0.037(4) 0.044(5) 0.035(5) 0.001(4) -0.001(4) 0.000(4)
C28 0.035(4) 0.045(5) 0.030(4) 0.007(4) 0.000(3) -0.002(4)
C29 0.036(4) 0.049(5) 0.027(4) 0.009(4) -0.003(3) -0.004(4)
C30 0.042(5) 0.043(5) 0.040(5) -0.006(4) -0.004(4) 0.006(4)
C31 0.039(4) 0.048(5) 0.039(5) 0.009(4) 0.007(4) -0.007(4)
C32 0.034(4) 0.045(5) 0.029(4) 0.000(4) 0.001(3) 0.001(3)
C33 0.043(5) 0.047(5) 0.041(5) 0.012(4) 0.003(4) 0.000(4)
C34 0.044(5) 0.040(5) 0.032(5) 0.002(4) -0.002(4) 0.006(4)
C35 0.042(4) 0.039(4) 0.033(4) 0.013(4) 0.002(4) 0.005(4)
C36 0.040(4) 0.040(4) 0.035(5) -0.007(4) -0.005(4) 0.004(3)
C37 0.048(5) 0.050(5) 0.040(5) 0.014(4) 0.006(4) 0.003(4)
C38 0.046(5) 0.042(4) 0.034(5) -0.007(4) 0.000(4) -0.002(4)
C39 0.038(4) 0.058(6) 0.038(5) 0.006(4) -0.007(4) -0.007(4)
C40 0.043(5) 0.055(6) 0.043(5) -0.013(5) -0.012(4) 0.008(4)
C41 0.043(5) 0.046(5) 0.035(5) 0.013(4) 0.000(4) -0.003(4)
C42 0.046(5) 0.047(5) 0.040(5) -0.011(4) -0.003(4) 0.013(4)
C43 0.034(4) 0.043(5) 0.031(4) 0.001(4) 0.007(3) 0.001(4)
C44 0.048(5) 0.040(5) 0.030(4) 0.002(4) -0.001(4) -0.002(4)
C45 0.047(5) 0.052(5) 0.030(5) 0.009(4) 0.002(4) 0.000(4)
C46 0.047(5) 0.078(8) 0.053(7) -0.041(6) 0.003(5) 0.001(5)
C47 0.055(6) 0.071(7) 0.056(7) 0.013(6) 0.014(5) 0.014(5)
C48 0.050(5) 0.066(7) 0.050(6) -0.017(5) 0.008(5) -0.003(5)
Zn3F 0.0332 0.0369 0.0243 0.0018 -0.0012 0.0005
Zn3N 0.0332 0.0369 0.0243 0.0018 -0.0012 0.0005
O5J 0.038 0.039 0.031 0.014 0.004 0.001
O8B 0.042 0.043 0.032 -0.002 0.004 0.002
O9 0.065(11) 0.079(12) 0.068(12) 0.014(10) 0.018(9) -0.001(9)
O10 0.17(3) 0.16(3) 0.13(3) 0.02(2) -0.05(2) -0.04(2)
C49 0.083(17) 0.040(10) 0.067(16) -0.018(10) -0.017(14) -0.008(10)
O11 0.13(2) 0.074(14) 0.22(3) 0.055(17) -0.14(2) -0.046(13)
C50 0.031(8) 0.048(10) 0.034(9) 0.016(8) -0.012(7) -0.010(7)
O12 0.101(18) 0.098(19) 0.21(3) 0.01(2) 0.06(2) 0.027(15)
C51 0.056(14) 0.11(2) 0.074(18) 0.013(16) -0.008(13) 0.032(15)
O13 0.20(3) 0.078(15) 0.074(15) -0.005(12) -0.006(17) 0.021(17)
C52 0.13(3) 0.076(17) 0.042(13) -0.004(12) -0.042(15) 0.025(17)
loop_
_geom_bond_atom_site_label_1
_geom_bond_atom_site_label_2
_geom_bond_site_symmetry_1
_geom_bond_site_symmetry_2
Zn1 N2 1_555 1_555
O1 C10 1_555 1_555
O2 C10 1_555 1_555
N1 H1 1_555 1_555
N2 N1 1_555 1_555
C1 C2 1_555 1_555
C2 H2 1_555 1_555
C3 N2 1_555 1_555
C4 C2 1_555 1_555
H3 C4 1_555 1_555
C5 C3 1_555 1_555
C6 C4 1_555 1_555
C7 N1 1_555 1_555
C8 C6 1_555 1_555
H4 C8 1_555 1_555
C9 C1 1_555 1_555
H5 C9 1_555 1_555
C10 C1 1_555 1_555
C11 C3 1_555 1_555
H6 C11 1_555 1_555
H7 C11 1_555 1_555
H8 C11 1_555 1_555
C12 C7 1_555 1_555
H9 C12 1_555 1_555
H10 C12 1_555 1_555
H11 C12 1_555 1_555
Zn2 N4 1_555 1_555
O3 C22 1_555 1_555
O4 C22 1_555 1_555
N3 H12 1_555 1_555
N4 N3 1_555 1_555
C13 C14 1_555 1_555
C14 H13 1_555 1_555
C15 N4 1_555 1_555
C16 C14 1_555 1_555
H14 C16 1_555 1_555
C17 C15 1_555 1_555
C18 C16 1_555 1_555
C19 N3 1_555 1_555
C20 C18 1_555 1_555
H15 C20 1_555 1_555
C21 C13 1_555 1_555
H16 C21 1_555 1_555
C22 C13 1_555 1_555
C23 C15 1_555 1_555
H17 C23 1_555 1_555
H18 C23 1_555 1_555
H19 C23 1_555 1_555
C24 C19 1_555 1_555
H20 C24 1_555 1_555
H21 C24 1_555 1_555
H22 C24 1_555 1_555
Zn3 N7 1_555 1_555
O5 C43 1_555 1_555
O6 C44 1_555 1_555
O7 C43 1_555 1_555
O8 C44 1_555 1_555
N5 H23 1_555 1_555
N6 H24 1_555 1_555
N7 N5 1_555 1_555
N8 Zn3 1_555 1_555
C25 C27 1_555 1_555
C26 C28 1_555 1_555
C27 H25 1_555 1_555
C28 H26 1_555 1_555
C29 N7 1_555 1_555
C30 N8 1_555 1_555
C31 C27 1_555 1_555
H27 C31 1_555 1_555
C32 C28 1_555 1_555
H28 C32 1_555 1_555
C33 C29 1_555 1_555
C34 C30 1_555 1_555
C35 C31 1_555 1_555
C36 C32 1_555 1_555
C37 N5 1_555 1_555
C38 N6 1_555 1_555
C39 C35 1_555 1_555
H29 C39 1_555 1_555
C40 C36 1_555 1_555
H30 C40 1_555 1_555
C41 C25 1_555 1_555
H31 C41 1_555 1_555
C42 C26 1_555 1_555
H32 C42 1_555 1_555
C43 C25 1_555 1_555
C44 C26 1_555 1_555
C45 C29 1_555 1_555
H33 C45 1_555 1_555
H34 C45 1_555 1_555
H35 C45 1_555 1_555
C46 C30 1_555 1_555
H36 C46 1_555 1_555
H37 C46 1_555 1_555
H38 C46 1_555 1_555
C47 C37 1_555 1_555
H39 C47 1_555 1_555
H40 C47 1_555 1_555
H41 C47 1_555 1_555
C48 C38 1_555 1_555
H42 C48 1_555 1_555
H43 C48 1_555 1_555
H44 C48 1_555 1_555
O9 H45 1_555 1_555
H46 O9 1_555 1_555
O10 H47 1_555 1_555
C49 O10 1_555 1_555
H48 C49 1_555 1_555
H49 C49 1_555 1_555
H50 C49 1_555 1_555
O11 H51 1_555 1_555
C50 O11 1_555 1_555
H52 C50 1_555 1_555
H53 C50 1_555 1_555
H54 C50 1_555 1_555
O12 H55 1_555 1_555
C51 O12 1_555 1_555
H56 C51 1_555 1_555
H57 C51 1_555 1_555
H58 C51 1_555 1_555
O13 H59 1_555 1_555
C52 O13 1_555 1_555
H60 C52 1_555 1_555
H61 C52 1_555 1_555
H62 C52 1_555 1_555
O1A C10A 1_555 1_555
O2A C10A 1_555 1_555
N1A H1A 1_555 1_555
N2A Zn1 1_555 1_555
C1A C2A 1_555 1_555
C2A H2A 1_555 1_555
C3A N2A 1_555 1_555
C4A C2A 1_555 1_555
H3A C4A 1_555 1_555
C5A C3A 1_555 1_555
C6A C4A 1_555 1_555
C7A N1A 1_555 1_555
C8A C6A 1_555 1_555
H4A C8A 1_555 1_555
C9A C1A 1_555 1_555
H5A C9A 1_555 1_555
C10A C1A 1_555 1_555
C11A C3A 1_555 1_555
H6A C11A 1_555 1_555
H7A C11A 1_555 1_555
H8A C11A 1_555 1_555
C12A C7A 1_555 1_555
H9A C12A 1_555 1_555
H10A C12A 1_555 1_555
H11A C12A 1_555 1_555
Zn1B O2A 1_555 1_555
Zn1N O2 1_555 1_555
O2G Zn1 1_555 1_555
O2J Zn1 1_555 1_555
O3A C22A 1_555 1_555
O4A C22A 1_555 1_555
N3A H12A 1_555 1_555
N4A Zn2 1_555 1_555
C13A C14A 1_555 1_555
C14A H13A 1_555 1_555
C15A N4A 1_555 1_555
C16A C14A 1_555 1_555
H14A C16A 1_555 1_555
C17A C15A 1_555 1_555
C18A C16A 1_555 1_555
C19A N3A 1_555 1_555
C20A C18A 1_555 1_555
H15A C20A 1_555 1_555
C21A C13A 1_555 1_555
H16A C21A 1_555 1_555
C22A C13A 1_555 1_555
C23A C15A 1_555 1_555
H17A C23A 1_555 1_555
H18A C23A 1_555 1_555
H19A C23A 1_555 1_555
C24A C19A 1_555 1_555
H20A C24A 1_555 1_555
H21A C24A 1_555 1_555
H22A C24A 1_555 1_555
Zn2F O3A 1_555 1_555
Zn2J O3 1_555 1_555
O3C Zn2 1_555 1_555
O3N Zn2 1_555 1_555
Zn3F O8 1_555 1_555
Zn3N O5 1_555 1_555
O5J Zn3 1_555 1_555
O8B Zn3 1_555 1_555
C5 C6 1_555 1_555
C5 C7 1_555 1_555
C8 C9 1_555 1_555
C17 C18 1_555 1_555
C17 C19 1_555 1_555
C20 C21 1_555 1_555
N6 N8 1_555 1_555
C33 C35 1_555 1_555
C33 C37 1_555 1_555
C34 C36 1_555 1_555
C34 C38 1_555 1_555
C39 C41 1_555 1_555
C40 C42 1_555 1_555
N1A N2A 1_555 1_555
C5A C6A 1_555 1_555
C5A C7A 1_555 1_555
C8A C9A 1_555 1_555
N3A N4A 1_555 1_555
C17A C18A 1_555 1_555
C17A C19A 1_555 1_555
C20A C21A 1_555 1_555

#END
