
#######################################################################
#
#                 Cambridge Crystallographic Data Centre
#                                CCDC 
#
#######################################################################
#
# If this CIF has been generated from an entry in the Cambridge 
# Structural Database, then it will include bibliographic, chemical, 
# crystal, experimental, refinement or atomic coordinate data resulting 
# from the CCDC's data processing and validation procedures.
#
#######################################################################

data_MURCAD
_chemical_formula_moiety         '(C16 H30 Cu2 N4 O16)n'
_symmetry_cell_setting           monoclinic
_symmetry_space_group_name_H-M   'C 2/c'
_symmetry_Int_Tables_number      15
_space_group_name_Hall           '-C 2yc'
loop_
_symmetry_equiv_pos_site_id
_symmetry_equiv_pos_as_xyz
1 x,y,z
2 1/2+x,1/2+y,z
3 -x,y,1/2-z
4 1/2-x,1/2+y,1/2-z
5 -x,-y,-z
6 1/2-x,1/2-y,-z
7 x,-y,1/2+z
8 1/2+x,1/2-y,1/2+z
_cell_length_a                   14.7908(4)
_cell_length_b                   13.9157(3)
_cell_length_c                   15.5121(4)
_cell_angle_alpha                90
_cell_angle_beta                 114.9870(10)
_cell_angle_gamma                90
_cell_volume                     2893.94
loop_
_atom_site_label
_atom_site_type_symbol
_atom_site_fract_x
_atom_site_fract_y
_atom_site_fract_z
_atom_site_U_iso_or_equiv
_atom_site_thermal_displace_type
Cu1 Cu 0.21900(4) 0.77299(4) 0.31352(4) 0.0233 Uani
N1 N 0.0918(3) 0.6889(3) 0.2786(3) 0.0206 Uani
N2 N 0.0090(3) 0.5660(3) 0.3313(4) 0.0362 Uani
O1 O 0.1423(3) 0.8461(3) 0.1991(3) 0.0343 Uani
O2 O 0.2513(3) 0.9377(4) 0.1731(3) 0.0545 Uani
O3 O 0.1951(2) 1.1814(2) 0.0892(2) 0.0252 Uani
O4 O 0.1767(3) 1.1229(3) 0.2131(3) 0.0502 Uani
O5 O 0.1831(3) 0.8642(3) 0.4109(3) 0.0465 Uani
O6 O 0.3409(3) 0.8486(4) 0.3341(3) 0.0539 Uani
C1 C 0.0793(4) 0.9589(4) 0.0767(3) 0.0245 Uani
C2 C 0.0771(4) 1.0579(4) 0.0611(3) 0.0236 Uani
C3 C 0.0018(4) 0.9037(4) 0.0159(4) 0.0274 Uani
H1 H 0.004(4) 0.842(4) 0.026(4) 0.0240 Uiso
C4 C 0.1652(4) 0.9123(4) 0.1563(4) 0.0271 Uani
C5 C 0.1556(4) 1.1239(4) 0.1285(4) 0.0277 Uani
C6 C 0.0000 0.7491(5) 0.2500 0.0238 Uani
H2 H 0.012(4) 0.788(4) 0.311(4) 0.0330 Uiso
C7 C 0.0976(4) 0.6261(4) 0.3588(4) 0.0327 Uani
H3 H 0.157(4) 0.586(3) 0.374(3) 0.0110 Uiso
H4 H 0.098(4) 0.670(4) 0.406(4) 0.0310 Uiso
C8 C 0.0788(4) 0.6258(4) 0.1964(4) 0.0300 Uani
H5 H 0.142(5) 0.580(4) 0.217(4) 0.0390 Uiso
H6 H 0.077(5) 0.674(6) 0.154(5) 0.0600 Uiso
C9 C 0.0000 0.5058(6) 0.2500 0.0442 Uani
H7 H 0.057(5) 0.459(5) 0.273(5) 0.0500 Uiso
N1B N -0.0918(3) 0.6889(3) 0.2214(3) 0.0206 Uani
C7B C -0.0976(4) 0.6261(4) 0.1412(4) 0.0327 Uani
N2B N -0.0090(3) 0.5660(3) 0.1687(4) 0.0362 Uani
C8B C -0.0788(4) 0.6258(4) 0.3036(4) 0.0300 Uani
H5B H -0.142(5) 0.580(4) 0.283(4) 0.0390 Uiso
H6B H -0.077(5) 0.674(6) 0.346(5) 0.0600 Uiso
H7B H -0.057(5) 0.459(5) 0.227(5) 0.0500 Uiso
H3B H -0.157(4) 0.586(3) 0.126(3) 0.0110 Uiso
H4B H -0.098(4) 0.670(4) 0.094(4) 0.0310 Uiso
H2B H -0.012(4) 0.788(4) 0.189(4) 0.0330 Uiso
C3D C -0.0018(4) 1.0963(4) -0.0159(4) 0.0274 Uani
C1D C -0.0793(4) 1.0411(4) -0.0767(3) 0.0245 Uani
C2D C -0.0771(4) 0.9421(4) -0.0611(3) 0.0236 Uani
C5D C -0.1556(4) 0.8761(4) -0.1285(4) 0.0277 Uani
O3D O -0.1951(2) 0.8186(2) -0.0892(2) 0.0252 Uani
O4D O -0.1767(3) 0.8771(3) -0.2131(3) 0.0502 Uani
C4D C -0.1652(4) 1.0877(4) -0.1563(4) 0.0271 Uani
O1D O -0.1423(3) 1.1539(3) -0.1991(3) 0.0343 Uani
O2D O -0.2513(3) 1.0623(4) -0.1731(3) 0.0545 Uani
H1D H -0.004(4) 1.158(4) -0.026(4) 0.0240 Uiso
Cu1B Cu -0.21900(4) 0.77299(4) 0.18648(4) 0.0233 Uani
O5B O -0.1831(3) 0.8642(3) 0.0891(3) 0.0465 Uani
O6B O -0.3409(3) 0.8486(4) 0.1659(3) 0.0539 Uani
O3C O 0.3049(2) 0.6814(2) 0.4108(2) 0.0252 Uani
Cu1C Cu 0.28100(4) 1.27299(4) 0.18648(4) 0.0233 Uani
Cu1G Cu -0.28100(4) 0.72701(4) -0.18648(4) 0.0233 Uani
Cu1D Cu -0.21900(4) 1.22701(4) -0.31352(4) 0.0233 Uani
O1B O -0.1423(3) 0.8461(3) 0.3009(3) 0.0343 Uani
O3A O -0.3049(2) 0.6814(2) 0.0892(2) 0.0252 Uani
O7 O 0.1955(14) 0.341(2) 0.4708(16) 0.3812 Uani
O8 O 0.5221(10) 0.7633(13) 0.3615(19) 0.3835 Uani
O9 O 0.3865(9) 0.5434(6) 0.1614(8) 0.1660 Uani
O10 O 0.061(2) 0.528(2) 0.5299(9) 0.5392 Uani
loop_
_atom_site_aniso_label
_atom_site_aniso_U_11
_atom_site_aniso_U_22
_atom_site_aniso_U_33
_atom_site_aniso_U_23
_atom_site_aniso_U_13
_atom_site_aniso_U_12
Cu1 0.0174(4) 0.0227(4) 0.0225(4) 0.0069(2) 0.0013(3) 0.0019(2)
N1 0.020(2) 0.017(2) 0.021(2) 0.0022(16) 0.0051(17) -0.0004(17)
N2 0.023 0.034 0.05 0.014 0.014 0.001
O1 0.0206 0.039 0.0318 0.0177 -0.0002 -0.0055
O2 0.021 0.07 0.055 0.037 -0.001 -0.009
O3 0.0217 0.0218 0.0253 -0.0035 0.0033 -0.0077
O4 0.051 0.067 0.021 -0.002 0.0038 -0.025
O5 0.059(3) 0.044(3) 0.033(2) -0.0022(19) 0.016(2) 0.010(2)
O6 0.024(2) 0.063(3) 0.055(3) 0.032(2) -0.0025(19) -0.011(2)
C1 0.02 0.026 0.024 0.004 0.006 -0.004
C2 0.022 0.026 0.018 0.003 0.0038 -0.005
C3 0.028 0.022 0.024 0.008 0.003 -0.001
C4 0.022 0.026 0.026 0.001 0.003 -0.005
C5 0.02 0.026 0.027 -0.001 0 -0.003
C6 0.017(3) 0.022(4) 0.027(4) 0.000 0.004(3) 0.000
C7 0.022(3) 0.034(3) 0.034(3) 0.011(3) 0.004(2) 0.002(3)
C8 0.026(3) 0.028(3) 0.035(3) -0.004(2) 0.012(2) 0.002(2)
C9 0.035(5) 0.019(4) 0.076(7) 0.000 0.021(5) 0.000
N1B 0.02 0.017 0.021 -0.0022 0.0051 0.0004
C7B 0.022 0.034 0.034 -0.011 0.004 -0.002
N2B 0.023(2) 0.034(3) 0.050(3) -0.014(2) 0.014(2) -0.001(2)
C8B 0.026 0.028 0.035 0.004 0.012 -0.002
C3D 0.028 0.022 0.024 0.008 0.003 -0.001
C1D 0.02 0.026 0.024 0.004 0.006 -0.004
C2D 0.022 0.026 0.018 0.003 0.0038 -0.005
C5D 0.02 0.026 0.027 -0.001 0 -0.003
O3D 0.0217 0.0218 0.0253 -0.0035 0.0033 -0.0077
O4D 0.051 0.067 0.021 -0.002 0.0038 -0.025
C4D 0.022 0.026 0.026 0.001 0.003 -0.005
O1D 0.0206 0.039 0.0318 0.0177 -0.0002 -0.0055
O2D 0.021 0.07 0.055 0.037 -0.001 -0.009
Cu1B 0.0174 0.0227 0.0225 -0.0069 0.0013 -0.0019
O5B 0.059 0.044 0.033 0.0022 0.016 -0.01
O6B 0.024 0.063 0.055 -0.032 -0.0025 0.011
O3C 0.0217(18) 0.0218(18) 0.0253(17) 0.0035(15) 0.0033(14) 0.0077(15)
Cu1C 0.0174 0.0227 0.0225 -0.0069 0.0013 -0.0019
Cu1G 0.0174 0.0227 0.0225 -0.0069 0.0013 -0.0019
Cu1D 0.0174 0.0227 0.0225 0.0069 0.0013 0.0019
O1B 0.0206 0.039 0.0318 -0.0177 -0.0002 0.0055
O3A 0.0217 0.0218 0.0253 -0.0035 0.0033 -0.0077
O7 0.25(2) 0.59(4) 0.34(2) 0.22(3) 0.16(2) 0.17(3)
O8 0.116(11) 0.303(19) 0.63(4) 0.30(2) 0.059(18) 0.003(12)
O9 0.291(13) 0.097(6) 0.215(10) -0.075(6) 0.209(10) -0.080(7)
O10 0.75(3) 0.61(3) 0.088(9) 0.042(15) 0.012(16) -0.514
loop_
_geom_bond_atom_site_label_1
_geom_bond_atom_site_label_2
_geom_bond_site_symmetry_1
_geom_bond_site_symmetry_2
Cu1 N1 1_555 1_555
N1 C6 1_555 1_555
N2 C7 1_555 1_555
O1 Cu1 1_555 1_555
O2 C4 1_555 1_555
O3 C5 1_555 1_555
O4 C5 1_555 1_555
O5 Cu1 1_555 1_555
O6 Cu1 1_555 1_555
C1 C2 1_555 1_555
C2 C5 1_555 1_555
C3 C1 1_555 1_555
H1 C3 1_555 1_555
C4 O1 1_555 1_555
C6 H2 1_555 1_555
C7 N1 1_555 1_555
H3 C7 1_555 1_555
H4 C7 1_555 1_555
C8 N1 1_555 1_555
H5 C8 1_555 1_555
H6 C8 1_555 1_555
C9 N2 1_555 1_555
H7 C9 1_555 1_555
N1B C6 1_555 1_555
C7B N1B 1_555 1_555
N2B C8 1_555 1_555
C8B N2 1_555 1_555
H5B C8B 1_555 1_555
H6B C8B 1_555 1_555
H7B C9 1_555 1_555
H3B C7B 1_555 1_555
H4B C7B 1_555 1_555
H2B C6 1_555 1_555
C3D C2 1_555 1_555
C1D C3D 1_555 1_555
C2D C3 1_555 1_555
C5D C2D 1_555 1_555
O3D C5D 1_555 1_555
O4D C5D 1_555 1_555
C4D C1D 1_555 1_555
O1D C4D 1_555 1_555
O2D C4D 1_555 1_555
H1D C3D 1_555 1_555
Cu1B N1B 1_555 1_555
O5B Cu1B 1_555 1_555
O6B Cu1B 1_555 1_555
O3C Cu1 1_555 1_555
Cu1C O3 1_555 1_555
Cu1G O3D 1_555 1_555
Cu1D O1D 1_555 1_555
O1B Cu1B 1_555 1_555
O3A Cu1B 1_555 1_555
C1 C4 1_555 1_555
C9 N2B 1_555 1_555
N1B C8B 1_555 1_555
C7B N2B 1_555 1_555
C1D C2D 1_555 1_555

#END
