
#######################################################################
#
#                 Cambridge Crystallographic Data Centre
#                                CCDC 
#
#######################################################################
#
# If this CIF has been generated from an entry in the Cambridge 
# Structural Database, then it will include bibliographic, chemical, 
# crystal, experimental, refinement or atomic coordinate data resulting 
# from the CCDC's data processing and validation procedures.
#
#######################################################################

data_GUXZIJ
_chemical_formula_moiety         '(C34 H28 N2 O37 P8 U6 2-)n'
_symmetry_cell_setting           triclinic
_symmetry_space_group_name_H-M   'P -1'
_symmetry_Int_Tables_number      2
_space_group_name_Hall           '-P 1'
loop_
_symmetry_equiv_pos_site_id
_symmetry_equiv_pos_as_xyz
1 x,y,z
2 -x,-y,-z
_cell_length_a                   9.7932(10)
_cell_length_b                   10.6592(11)
_cell_length_c                   17.5643(17)
_cell_angle_alpha                83.846(2)
_cell_angle_beta                 86.318(2)
_cell_angle_gamma                65.184(2)
_cell_volume                     1654.23
loop_
_atom_site_label
_atom_site_type_symbol
_atom_site_fract_x
_atom_site_fract_y
_atom_site_fract_z
U1 U 0.94280(3) 0.18545(3) 0.751103(18)
U2 U 0.31303(3) 0.28899(3) 0.749610(18)
U3 U 0.62490(4) -0.26083(3) 0.75104(2)
P1 P 0.6863(2) 0.0206(2) 0.81288(13)
P2 P 1.0065(2) 0.5038(2) 0.68074(13)
P3 P 0.7547(2) 0.0266(2) 1.17183(13)
P4 P 0.5755(2) 0.4517(2) 0.67835(13)
O1 O 0.7939(7) 0.0676(6) 0.7657(4)
O2 O 0.7221(7) -0.1309(7) 0.8043(4)
O3 O 0.5235(7) 0.1123(7) 0.7933(4)
O4 O 1.0353(6) 0.3589(7) 0.7203(4)
O5 O 1.1454(7) 0.5239(6) 0.6994(4)
O6 O 0.8621(7) 0.6173(7) 0.7050(4)
O7 O 0.7874(7) -0.1221(6) 1.2092(4)
O8 O 0.8983(7) 0.0427(6) 1.1864(3)
O9 O 0.6127(7) 0.1383(7) 1.2024(4)
O10 O 0.7405(7) 0.3519(7) 0.6884(4)
O11 O 0.4718(7) 0.3990(7) 0.7249(4)
O12 O 0.5467(7) 0.5981(7) 0.6988(4)
O13 O 1.0178(7) 0.1179(7) 0.6620(3)
O14 O 0.8717(7) 0.2550(7) 0.8412(4)
O15 O 0.2742(7) 0.3496(7) 0.8425(4)
O16 O 0.3509(7) 0.2311(7) 0.6564(4)
O17 O 0.6698(8) -0.3738(7) 0.8375(4)
O18 O 0.5834(7) -0.1504(7) 0.6646(4)
C1 C 0.5879(14) 0.1092(15) 0.9575(7)
H1 H 0.4930 0.1638 0.9349
C2 C 0.7054(10) 0.0319(10) 0.9124(5)
C3 C 0.8397(14) -0.045(2) 0.9485(7)
H2 H 0.9265 -0.0955 0.9190
C4 C 0.9289(11) 0.6224(10) 0.5332(6)
H3 H 0.8800 0.7075 0.5560
C5 C 0.9993(10) 0.4997(9) 0.5811(5)
C6 C 1.0727(10) 0.3752(10) 0.5454(5)
H4 H 1.1230 0.2899 0.5754
C7 C 0.8506(13) -0.049(2) 1.0260(8)
H5 H 0.9434 -0.1087 1.0491
C8 C 0.7360(10) 0.0282(10) 1.0714(5)
C9 C 0.6028(15) 0.1103(16) 1.0343(8)
H6 H 0.5193 0.1692 1.0631
C10 C 0.3880(10) 0.5101(10) 0.5541(5)
H7 H 0.3104 0.5178 0.5911
C12 C 0.5349(10) 0.4712(9) 0.5791(5)
C14 C 0.6472(10) 0.4626(10) 0.5228(5)
H9 H 0.7474 0.4379 0.5377
U1A U 1.05720(3) -0.18545(3) 1.248897(18)
U1A_2 U 1.05720(3) 0.81455(3) 0.248897(18)
U1A_3 U 0.05720(3) 0.81455(3) 0.248897(18)
U2A U 1.68697(3) -0.28899(3) 1.250390(18)
U2_2 U 1.31303(3) 0.28899(3) 0.749610(18)
U2A_2 U 0.68697(3) -0.28899(3) 1.250390(18)
U2A_3 U 0.68697(3) 0.71101(3) 0.250390(18)
U3A U 1.37510(4) 0.26083(3) 1.24896(2)
U3_2 U 0.62490(4) 0.73917(3) 0.75104(2)
U3A_2 U 0.37510(4) 0.26083(3) 1.24896(2)
U3A_3 U 1.37510(4) 0.26083(3) 0.24896(2)
U3A_4 U 0.37510(4) 0.26083(3) 0.24896(2)
U3_3 U 1.62490(4) -0.26083(3) 0.75104(2)
P1A P 1.3137(2) -0.0206(2) 1.18712(13)
P2A P 0.9935(2) 0.4962(2) 0.31926(13)
P3A P 1.2453(2) -0.0266(2) 0.82817(13)
P4A P 0.4245(2) 0.5483(2) 0.32165(13)
O1A O 1.2061(7) -0.0676(6) 1.2343(4)
O2A O 1.2779(7) 0.1309(7) 1.1957(4)
O3A O 1.4765(7) -0.1123(7) 1.2067(4)
O4A O 0.9647(6) 0.6411(7) 0.2797(4)
O4A_2 O 0.9647(6) -0.3589(7) 1.2797(4)
O5A O 0.8546(7) 0.4761(6) 0.3006(4)
O5_2 O 0.1454(7) 0.5239(6) 0.6994(4)
O5A_2 O 1.8546(7) -0.5239(6) 1.3006(4)
O6A O 1.1379(7) 0.3827(7) 0.2950(4)
O6_2 O 0.8621(7) -0.3827(7) 0.7050(4)
O6A_2 O 1.1379(7) 0.3827(7) 1.2950(4)
O7A O 1.2126(7) 0.1221(6) 0.7908(4)
O7A_2 O 0.2126(7) 0.1221(6) 0.7908(4)
O7_2 O 1.7874(7) -0.1221(6) 1.2092(4)
O8A O 1.1017(7) -0.0427(6) 0.8136(3)
O9A O 1.3873(7) -0.1383(7) 0.7976(4)
O9A_2 O 0.3873(7) -0.1383(7) 0.7976(4)
O9_2 O 1.6127(7) 0.1383(7) 1.2024(4)
O10A O 0.2595(7) 0.6481(7) 0.3116(4)
O10A_2 O 1.2595(7) -0.3519(7) 1.3116(4)
O11A O 0.5282(7) 0.6010(7) 0.2751(4)
O11A_2 O 1.5282(7) -0.3990(7) 1.2751(4)
O12A O 0.4533(7) 0.4019(7) 0.3012(4)
O12_2 O 0.5467(7) -0.4019(7) 0.6988(4)
O12A_2 O 1.4533(7) 0.4019(7) 1.3012(4)
O13A O 0.9822(7) -0.1179(7) 1.3380(3)
O14A O 1.1283(7) -0.2550(7) 1.1588(4)
O15A O 1.7258(7) -0.3496(7) 1.1575(4)
O16A O 1.6491(7) -0.2311(7) 1.3436(4)
O17A O 1.3302(8) 0.3738(7) 1.1625(4)
O18A O 1.4166(7) 0.1504(7) 1.3354(4)
C1A C 1.4121(14) -0.1092(15) 1.0425(7)
H1A H 1.5070 -0.1638 1.0651
C2A C 1.2946(10) -0.0319(10) 1.0876(5)
C3A C 1.1603(14) 0.045(2) 1.0515(7)
H2A H 1.0735 0.0955 1.0810
C4A C 1.0711(11) 0.3776(10) 0.4668(6)
H3A H 1.1200 0.2925 0.4440
C5A C 1.0007(10) 0.5003(9) 0.4189(5)
C6A C 0.9273(10) 0.6248(10) 0.4546(5)
H4A H 0.8770 0.7101 0.4246
C7A C 1.1494(13) 0.049(2) 0.9740(8)
H5A H 1.0566 0.1087 0.9509
C8A C 1.2640(10) -0.0282(10) 0.9286(5)
C9A C 1.3972(15) -0.1103(16) 0.9657(8)
H6A H 1.4807 -0.1692 0.9369
C10A C 0.6120(10) 0.4899(10) 0.4459(5)
H7A H 0.6896 0.4822 0.4089
C12A C 0.4651(10) 0.5288(9) 0.4209(5)
C14A C 0.3528(10) 0.5374(10) 0.4772(5)
H9A H 0.2526 0.5621 0.4623
O19 O 0.8983(9) -0.7994(8) 0.3078(4)
C11 C -0.0832(10) 0.0290(10) 0.5046(6)
C13 C -0.1608(11) 0.0088(10) 0.5709(6)
H8 H -0.1069 -0.0452 0.6147
C15 C -0.3183(11) 0.0685(11) 0.5726(6)
H10 H -0.3711 0.0586 0.6186
C16 C -0.3981(12) 0.1417(11) 0.5080(6)
H11 H -0.5050 0.1805 0.5081
C17 C -0.3157(11) 0.1561(11) 0.4436(6)
H12 H -0.3673 0.2050 0.3983
N1 N -0.1653(9) 0.1031(8) 0.4430(4)
H18 H -0.1178 0.1169 0.4009
C11A C 0.0832(10) -0.0290(10) 0.4954(6)
C13A C 0.1608(11) -0.0088(10) 0.4291(6)
H8A H 0.1069 0.0452 0.3853
C15A C 0.3183(11) -0.0685(11) 0.4274(6)
H10A H 0.3711 -0.0586 0.3814
C16A C 0.3981(12) -0.1417(11) 0.4920(6)
H11A H 0.5050 -0.1805 0.4919
C17A C 0.3157(11) -0.1561(11) 0.5564(6)
H12A H 0.3673 -0.2050 0.6017
N1A N 0.1653(9) -0.1031(8) 0.5570(4)
H18A H 0.1178 -0.1169 0.5991
loop_
_geom_bond_atom_site_label_1
_geom_bond_atom_site_label_2
_geom_bond_site_symmetry_1
_geom_bond_site_symmetry_2
U1 O1 1_555 1_555
U2 O3 1_555 1_555
U3 O2 1_555 1_555
P1 O1 1_555 1_555
P2 O4 1_555 1_555
P3 O7 1_555 1_555
P4 O10 1_555 1_555
O2 P1 1_555 1_555
O3 P1 1_555 1_555
O4 U1 1_555 1_555
O5 P2 1_555 1_555
O6 P2 1_555 1_555
O7 U1A 1_555 1_555
O8 P3 1_555 1_555
O9 P3 1_555 1_555
O10 U1 1_555 1_555
O11 U2 1_555 1_555
O12 P4 1_555 1_555
O13 U1 1_555 1_555
O14 U1 1_555 1_555
O15 U2 1_555 1_555
O16 U2 1_555 1_555
O17 U3 1_555 1_555
O18 U3 1_555 1_555
C1 H1 1_555 1_555
C2 P1 1_555 1_555
C3 C2 1_555 1_555
H2 C3 1_555 1_555
C4 H3 1_555 1_555
C5 P2 1_555 1_555
C6 C5 1_555 1_555
H4 C6 1_555 1_555
C7 C3 1_555 1_555
H5 C7 1_555 1_555
C8 P3 1_555 1_555
C9 C1 1_555 1_555
H6 C9 1_555 1_555
C10 H7 1_555 1_555
C11 C13 1_555 1_555
C12 P4 1_555 1_555
C13 H8 1_555 1_555
C14 C12 1_555 1_555
H9 C14 1_555 1_555
C15 C13 1_555 1_555
H10 C15 1_555 1_555
C16 C15 1_555 1_555
H11 C16 1_555 1_555
C17 C16 1_555 1_555
H12 C17 1_555 1_555
N1 C11 1_555 1_555
H18 N1 1_555 1_555
U1A O8 1_555 1_555
U1A_2 O4A 1_555 1_555
U1A_3 O10A 1_555 1_555
U2A O3A 1_555 1_555
U2_2 O5 1_555 1_555
U2A_2 O7 1_555 1_555
U2A_3 O5A 1_555 1_555
U3A O2A 1_555 1_555
U3_2 O6 1_555 1_555
U3A_2 O9 1_555 1_555
U3A_3 O6A 1_555 1_555
U3A_4 O12A 1_555 1_555
U3_3 O9A 1_555 1_555
P1A O1A 1_555 1_555
P2A O4A 1_555 1_555
P3A O7A 1_555 1_555
P4A O10A 1_555 1_555
O1A U1A 1_555 1_555
O2A P1A 1_555 1_555
O3A P1A 1_555 1_555
O4A_2 U1A 1_555 1_555
O5A P2A 1_555 1_555
O5_2 U2 1_555 1_555
O5A_2 U2A 1_555 1_555
O6A P2A 1_555 1_555
O6_2 U3 1_555 1_555
O6A_2 U3A 1_555 1_555
O7A U1 1_555 1_555
O7A_2 U2 1_555 1_555
O7_2 U2A 1_555 1_555
O8A U1 1_555 1_555
O9A P3A 1_555 1_555
O9A_2 U3 1_555 1_555
O9_2 U3A 1_555 1_555
O10A_2 U1A 1_555 1_555
O11A U2A_3 1_555 1_555
O11A_2 U2A 1_555 1_555
O12A P4A 1_555 1_555
O12_2 U3 1_555 1_555
O12A_2 U3A 1_555 1_555
O13A U1A 1_555 1_555
O14A U1A 1_555 1_555
O15A U2A 1_555 1_555
O16A U2A 1_555 1_555
O17A U3A 1_555 1_555
O18A U3A 1_555 1_555
C1A H1A 1_555 1_555
C2A P1A 1_555 1_555
C3A C2A 1_555 1_555
H2A C3A 1_555 1_555
C4A C6 1_555 1_555
H3A C4A 1_555 1_555
C5A P2A 1_555 1_555
C6A C4 1_555 1_555
H4A C6A 1_555 1_555
C7A C3A 1_555 1_555
H5A C7A 1_555 1_555
C8A P3A 1_555 1_555
C9A C1A 1_555 1_555
H6A C9A 1_555 1_555
C10A C14 1_555 1_555
H7A C10A 1_555 1_555
C11A C11 1_555 1_555
C12A P4A 1_555 1_555
C13A C11A 1_555 1_555
H8A C13A 1_555 1_555
C14A C10 1_555 1_555
H9A C14A 1_555 1_555
C15A C13A 1_555 1_555
H10A C15A 1_555 1_555
C16A C15A 1_555 1_555
H11A C16A 1_555 1_555
C17A C16A 1_555 1_555
H12A C17A 1_555 1_555
N1A C11A 1_555 1_555
H18A N1A 1_555 1_555
P4 O11 1_555 1_555
O12 U3_2 1_555 1_555
C1 C2 1_555 1_555
C4 C5 1_555 1_555
C7 C8 1_555 1_555
C8 C9 1_555 1_555
C10 C12 1_555 1_555
C17 N1 1_555 1_555
U2_2 O7A 1_555 1_555
P3A O8A 1_555 1_555
P4A O11A 1_555 1_555
C1A C2A 1_555 1_555
C4A C5A 1_555 1_555
C5A C6A 1_555 1_555
C7A C8A 1_555 1_555
C8A C9A 1_555 1_555
C10A C12A 1_555 1_555
C12A C14A 1_555 1_555
C17A N1A 1_555 1_555

#END
