
#######################################################################
#
#                 Cambridge Crystallographic Data Centre
#                                CCDC 
#
#######################################################################
#
# If this CIF has been generated from an entry in the Cambridge 
# Structural Database, then it will include bibliographic, chemical, 
# crystal, experimental, refinement or atomic coordinate data resulting 
# from the CCDC's data processing and validation procedures.
#
#######################################################################

data_OTIPAK
_chemical_formula_moiety         '(C21 H12 Cd1 N4 O6)n'
_symmetry_cell_setting           orthorhombic
_symmetry_space_group_name_H-M   'P n n a'
_symmetry_Int_Tables_number      52
_space_group_name_Hall           '-P 2a 2bc'
loop_
_symmetry_equiv_pos_site_id
_symmetry_equiv_pos_as_xyz
1 x,y,z
2 1/2-x,-y,z
3 x,1/2-y,1/2-z
4 1/2-x,1/2+y,1/2-z
5 -x,-y,-z
6 1/2+x,y,-z
7 -x,1/2+y,1/2+z
8 1/2+x,1/2-y,1/2+z
_cell_length_a                   13.209(3)
_cell_length_b                   13.926(3)
_cell_length_c                   12.243(3)
_cell_angle_alpha                90
_cell_angle_beta                 90
_cell_angle_gamma                90
_cell_volume                     2252.08
loop_
_atom_site_label
_atom_site_type_symbol
_atom_site_fract_x
_atom_site_fract_y
_atom_site_fract_z
C9 C 0.7500 0.0000 0.125(16)
N2 N 0.7933(19) 0.090(2) 0.174(2)
N2A N 0.7067(19) -0.090(2) 0.174(2)
O3 O 0.831(2) 0.141(2) 0.359(3)
C10 C 0.9169(18) 0.0966(19) 0.276(2)
C11 C 0.869(2) 0.208(3) 0.232(3)
O3B O 0.831(2) 0.359(2) 0.141(3)
C10B C 0.9169(18) 0.4034(19) 0.224(2)
C11B C 0.869(2) 0.292(3) 0.268(3)
C1 C 0.4006(3) 0.0734(2) 1.1573(3)
C2 C 0.4769(3) 0.1247(2) 1.0900(3)
H1 H 0.5163 0.0899 1.0410
C3 C 0.4903(3) 0.2178(2) 1.0978(3)
H2 H 0.4520 0.2495 1.1503
C4 C 0.5592(3) 0.2770(2) 1.0326(3)
C5 C 0.6237(3) 0.2414(2) 0.9529(3)
H3 H 0.6274 0.1757 0.9399
C6 C 0.6821(3) 0.3041(2) 0.8932(3)
H4 H 0.7255 0.2788 0.8407
C7 C 0.6225(3) 0.4332(2) 0.9877(3)
H5 H 0.6235 0.4988 1.0018
C8 C 0.5623(3) 0.3755(2) 1.0511(3)
H6 H 0.5234 0.4023 1.1066
Cd1 Cd 0.2500 0.0000 1.27918(2)
N1 N 0.6800(2) 0.39918(17) 0.9066(2)
O1 O 0.3546(2) 0.11981(17) 1.2300(2)
O2 O 0.3821(3) -0.01245(16) 1.1391(3)
C1A C 0.0994(3) -0.0734(2) 1.1573(3)
C2A C 0.0231(3) -0.1247(2) 1.0900(3)
H1A H -0.0163 -0.0899 1.0410
C3A C 0.0097(3) -0.2178(2) 1.0978(3)
H2A H 0.0480 -0.2495 1.1503
C4A C -0.0592(3) -0.2770(2) 1.0326(3)
C5A C -0.1237(3) -0.2414(2) 0.9529(3)
H3A H -0.1274 -0.1757 0.9399
C6A C -0.1821(3) -0.3041(2) 0.8932(3)
H4A H -0.2255 -0.2788 0.8407
C7A C -0.1225(3) -0.4332(2) 0.9877(3)
H5A H -0.1235 -0.4988 1.0018
C8A C -0.0623(3) -0.3755(2) 1.0511(3)
H6A H -0.0234 -0.4023 1.1066
N1A N -0.1800(2) -0.39918(17) 0.9066(2)
O1A O 0.1454(2) -0.11981(17) 1.2300(2)
O2A O 0.1179(3) 0.01245(16) 1.1391(3)
Cd1F Cd -0.2500 -0.5000 0.77918(2)
Cd1F_2 Cd 0.7500 0.5000 0.77918(2)
N1F N 0.3200(2) -0.10082(17) 1.4066(2)
N1G N 0.1800(2) 0.10082(17) 1.4066(2)
loop_
_geom_bond_atom_site_label_1
_geom_bond_atom_site_label_2
_geom_bond_site_symmetry_1
_geom_bond_site_symmetry_2
C1 C2 1_555 1_555
C2 H1 1_555 1_555
C3 C2 1_555 1_555
H2 C3 1_555 1_555
C4 C3 1_555 1_555
C5 C4 1_555 1_555
H3 C5 1_555 1_555
C6 C5 1_555 1_555
H4 C6 1_555 1_555
C7 H5 1_555 1_555
C8 C4 1_555 1_555
H6 C8 1_555 1_555
Cd1 O1 1_555 1_555
N1 C6 1_555 1_555
O1 C1 1_555 1_555
O2 C1 1_555 1_555
C9 N2 1_555 1_555
O3 C10 1_555 1_555
C10 C11 1_555 1_555
C11 C11B 1_555 1_555
C1A C2A 1_555 1_555
C2A H1A 1_555 1_555
C3A C2A 1_555 1_555
H2A C3A 1_555 1_555
C4A C3A 1_555 1_555
C5A C4A 1_555 1_555
H3A C5A 1_555 1_555
C6A C5A 1_555 1_555
H4A C6A 1_555 1_555
C7A H5A 1_555 1_555
C8A C4A 1_555 1_555
H6A C8A 1_555 1_555
N1A C6A 1_555 1_555
O1A Cd1 1_555 1_555
O2A Cd1 1_555 1_555
Cd1F N1A 1_555 1_555
Cd1F_2 N1 1_555 1_555
N1F Cd1 1_555 1_555
N1G Cd1 1_555 1_555
N2A C9 1_555 1_555
O3B C10B 1_555 1_555
C10B C11B 1_555 1_555
C7 C8 1_555 1_555
C7 N1 1_555 1_555
Cd1 O2 1_555 1_555
C1A O1A 1_555 1_555
C1A O2A 1_555 1_555
C7A C8A 1_555 1_555
C7A N1A 1_555 1_555

#END
