
#######################################################################
#
#                 Cambridge Crystallographic Data Centre
#                                CCDC 
#
#######################################################################
#
# If this CIF has been generated from an entry in the Cambridge 
# Structural Database, then it will include bibliographic, chemical, 
# crystal, experimental, refinement or atomic coordinate data resulting 
# from the CCDC's data processing and validation procedures.
#
#######################################################################

data_OTIPUE
_chemical_formula_moiety         '(C52 H39 F8 Mn3 N7 O14)n'
_symmetry_cell_setting           monoclinic
_symmetry_space_group_name_H-M   'P 21/c'
_symmetry_Int_Tables_number      14
_space_group_name_Hall           '-P 2ybc'
loop_
_symmetry_equiv_pos_site_id
_symmetry_equiv_pos_as_xyz
1 x,y,z
2 -x,1/2+y,1/2-z
3 -x,-y,-z
4 x,1/2-y,1/2+z
_cell_length_a                   10.8336(6)
_cell_length_b                   18.2867(5)
_cell_length_c                   15.1258(16)
_cell_angle_alpha                90
_cell_angle_beta                 111.208(7)
_cell_angle_gamma                90
_cell_volume                     2793.64
loop_
_atom_site_label
_atom_site_type_symbol
_atom_site_fract_x
_atom_site_fract_y
_atom_site_fract_z
Mn1 Mn 1.17170(4) 0.01142(2) 0.16771(3)
Mn2 Mn 1.5000 0.5000 0.0000
O1 O 1.1651(2) 0.02534(10) 0.02401(14)
O2 O 1.4819(2) 0.01778(10) 0.35589(15)
O3 O 1.1804(2) 0.00278(9) 0.31144(15)
O4 O 1.0108(2) 0.04998(10) -0.11742(15)
O5 O 1.3549(2) 0.07248(10) 0.22139(14)
O6 O 1.3016(2) -0.04864(10) 0.45013(14)
F1 F 1.5435(2) 0.20697(9) 0.09785(16)
C1 C 1.2079(3) -0.04854(13) 0.3713(2)
N1 N 1.7193(3) 0.40126(12) 0.32496(18)
N2 N 0.9384(3) -0.37960(11) 0.34799(18)
C2 C 1.1084(3) 0.06669(13) -0.0455(2)
N3 N 1.4203(3) 0.38400(12) 0.00865(18)
C3 C 1.4500(3) 0.07114(14) 0.2989(2)
C4 C 1.5769(4) 0.26917(15) 0.3028(2)
C5 C 1.0685(3) -0.24282(14) 0.3782(2)
C6 C 1.1187(3) -0.11393(14) 0.3447(2)
H1 H 1.0447 -0.1126 0.2890
C7 C 1.0592(3) -0.37149(15) 0.4131(2)
H2 H 1.1000 -0.4118 0.4493
C8 C 0.9430(3) -0.25346(15) 0.3110(2)
C9 C 1.1419(3) -0.17383(14) 0.3981(2)
H3 H 1.2136 -0.1716 0.4552
F2 F 0.8776(3) -0.19891(12) 0.2557(2)
C10 C 1.3223(3) 0.24136(14) 0.0131(2)
C11 C 1.2400(4) 0.29953(15) -0.0317(2)
H4 H 1.1494 0.2919 -0.0610
C12 C 1.4537(3) 0.25947(14) 0.0543(2)
C13 C 1.7769(3) 0.33622(15) 0.3309(2)
H5 H 1.8674 0.3351 0.3431
C14 C 1.4977(4) 0.20167(16) 0.2851(2)
H6 H 1.4118 0.2044 0.2409
C15 C 1.7107(3) 0.27035(15) 0.3200(2)
H7 H 1.7565 0.2267 0.3243
C16 C 1.5369(3) 0.13794(14) 0.3257(2)
H8 H 1.6207 0.1340 0.3724
C17 C 0.8814(3) -0.32073(15) 0.2969(2)
H9 H 0.7975 -0.3253 0.2505
C18 C 1.1269(3) -0.30543(15) 0.4293(2)
C19 C 1.1614(3) 0.14205(14) -0.0464(2)
H10 H 1.1122 0.1736 -0.0945
F3 F 1.3893(2) 0.34100(12) 0.2826(3)
C20 C 1.5001(3) 0.32927(15) 0.0535(2)
H11 H 1.5897 0.3387 0.0851
C21 C 1.2725(3) 0.16692(14) 0.0158(2)
H12 H 1.3223 0.1358 0.0642
C22 C 1.2922(4) 0.36825(15) -0.0327(2)
H13 H 1.2347 0.4056 -0.0641
C23 C 1.5902(4) 0.40089(16) 0.3092(3)
H14 H 1.5465 0.4452 0.3055
C24 C 1.5194(4) 0.33694(18) 0.2982(3)
F4 F 1.2513(8) -0.3050(3) 0.4827(5)
Mn1B Mn 0.82830(4) -0.01142(2) -0.16771(3)
O1B O 0.8349(2) -0.02534(10) -0.02401(14)
O2B O 0.5181(2) -0.01778(10) -0.35589(15)
O3B O 0.8196(2) -0.00278(9) -0.31144(15)
O4B O 0.9892(2) -0.04998(10) 0.11742(15)
O5B O 0.6451(2) -0.07248(10) -0.22139(14)
O6B O 0.6984(2) 0.04864(10) -0.45013(14)
F1B F 0.4565(2) -0.20697(9) -0.09785(16)
C1B C 0.7921(3) 0.04854(13) -0.3713(2)
N1B N 0.2807(3) -0.40126(12) -0.32496(18)
N2B N 1.0616(3) 0.37960(11) -0.34799(18)
C2B C 0.8916(3) -0.06669(13) 0.0455(2)
N3B N 0.5797(3) -0.38400(12) -0.00865(18)
C3B C 0.5500(3) -0.07114(14) -0.2989(2)
C4B C 0.4231(4) -0.26917(15) -0.3028(2)
C5B C 0.9315(3) 0.24282(14) -0.3782(2)
C6B C 0.8813(3) 0.11393(14) -0.3447(2)
H1B H 0.9553 0.1126 -0.2890
C7B C 0.9408(3) 0.37149(15) -0.4131(2)
H2B H 0.9000 0.4118 -0.4493
C8B C 1.0570(3) 0.25346(15) -0.3110(2)
C9B C 0.8581(3) 0.17383(14) -0.3981(2)
H3B H 0.7864 0.1716 -0.4552
F2B F 1.1224(3) 0.19891(12) -0.2557(2)
C10B C 0.6777(3) -0.24136(14) -0.0131(2)
C11B C 0.7600(4) -0.29953(15) 0.0317(2)
H4B H 0.8506 -0.2919 0.0610
C12B C 0.5463(3) -0.25947(14) -0.0543(2)
C13B C 0.2231(3) -0.33622(15) -0.3309(2)
H5B H 0.1326 -0.3351 -0.3431
C14B C 0.5023(4) -0.20167(16) -0.2851(2)
H6B H 0.5882 -0.2044 -0.2409
C15B C 0.2893(3) -0.27035(15) -0.3200(2)
H7B H 0.2435 -0.2267 -0.3243
C16B C 0.4631(3) -0.13794(14) -0.3257(2)
H8B H 0.3793 -0.1340 -0.3724
C17B C 1.1186(3) 0.32073(15) -0.2969(2)
H9B H 1.2025 0.3253 -0.2505
C18B C 0.8731(3) 0.30543(15) -0.4293(2)
C19B C 0.8386(3) -0.14205(14) 0.0464(2)
H10B H 0.8878 -0.1736 0.0945
F3B F 0.6107(2) -0.34100(12) -0.2826(3)
C20B C 0.4999(3) -0.32927(15) -0.0535(2)
H11B H 0.4103 -0.3387 -0.0851
C21B C 0.7275(3) -0.16692(14) -0.0158(2)
H12B H 0.6777 -0.1358 -0.0642
C22B C 0.7078(4) -0.36825(15) 0.0327(2)
H13B H 0.7653 -0.4056 0.0641
C23B C 0.4098(4) -0.40089(16) -0.3092(3)
H14B H 0.4535 -0.4452 -0.3055
C24B C 0.4806(4) -0.33694(18) -0.2982(3)
F4B F 0.7487(8) 0.3050(3) -0.4827(5)
Mn1A Mn 0.82830(4) -0.48858(2) 0.33229(3)
Mn1A_2 Mn 1.82830(4) 0.51142(2) 0.33229(3)
Mn1C Mn 0.17170(4) -0.51142(2) -0.33229(3)
Mn1C_2 Mn 1.17170(4) 0.48858(2) -0.33229(3)
Mn2_2 Mn 0.5000 -0.5000 0.0000
Mn2A Mn 0.5000 0.0000 -0.5000
Mn2A_2 Mn 1.5000 0.0000 0.5000
O2A O 1.5181(2) 0.51778(10) 0.14411(15)
O2C O 1.4819(2) 0.48222(10) -0.14411(15)
O6A O 1.6984(2) 0.45136(10) 0.04987(14)
O6C O 1.3016(2) 0.54864(10) -0.04987(14)
N1A N 1.2807(3) -0.09874(12) 0.17504(18)
N1C N 0.7193(3) 0.09874(12) -0.17504(18)
N2A N 1.0616(3) 0.12040(11) 0.15201(18)
N2C N 0.9384(3) -0.12040(11) -0.15201(18)
N3B_2 N 1.5797(3) 0.61600(12) -0.00865(18)
N4 N 0.8450(4) 0.0376(2) 0.3416(3)
C25 C 0.8002(6) -0.0312(3) 0.3630(5)
H15 H 0.8302 -0.0374 0.4305
H16 H 0.8350 -0.0698 0.3359
H17 H 0.7052 -0.0326 0.3370
O7 O 0.9406(4) 0.1439(2) 0.3981(5)
C26 C 0.9050(6) 0.0847(3) 0.4102(5)
H18 H 0.9202 0.0704 0.4723
C27 C 0.8171(10) 0.0560(5) 0.2474(5)
H19 H 0.8542 0.0199 0.2182
H20 H 0.8548 0.1029 0.2440
H21 H 0.7229 0.0580 0.2148
C28 C 1.6334(11) 0.0583(5) 0.0148(8)
O8 O 1.5422(11) 0.0208(7) 0.0326(10)
loop_
_geom_bond_atom_site_label_1
_geom_bond_atom_site_label_2
_geom_bond_site_symmetry_1
_geom_bond_site_symmetry_2
Mn1 O1 1_555 1_555
Mn2 N3 1_555 1_555
O1 C2 1_555 1_555
O2 C3 1_555 1_555
O3 Mn1 1_555 1_555
O4 C2 1_555 1_555
O5 Mn1 1_555 1_555
O6 C1 1_555 1_555
F1 C12 1_555 1_555
C1 O3 1_555 1_555
N1 C13 1_555 1_555
N2 C7 1_555 1_555
C2 C19 1_555 1_555
N3 C20 1_555 1_555
C3 O5 1_555 1_555
C4 C14 1_555 1_555
C5 C8 1_555 1_555
C6 C1 1_555 1_555
H1 C6 1_555 1_555
C7 H2 1_555 1_555
C8 F2 1_555 1_555
C9 C5 1_555 1_555
H3 C9 1_555 1_555
C10 C11 1_555 1_555
C11 H4 1_555 1_555
C12 C10 1_555 1_555
C13 H5 1_555 1_555
C14 H6 1_555 1_555
C15 C4 1_555 1_555
H7 C15 1_555 1_555
C16 C3 1_555 1_555
H8 C16 1_555 1_555
C17 N2 1_555 1_555
H9 C17 1_555 1_555
C18 C5 1_555 1_555
C19 H10 1_555 1_555
F3 C24 1_555 1_555
C20 C12 1_555 1_555
H11 C20 1_555 1_555
C21 C10 1_555 1_555
H12 C21 1_555 1_555
C22 N3 1_555 1_555
H13 C22 1_555 1_555
C23 N1 1_555 1_555
H14 C23 1_555 1_555
C24 C4 1_555 1_555
F4 C18 1_555 1_555
N4 C25 1_555 1_555
C25 H15 1_555 1_555
H16 C25 1_555 1_555
H17 C25 1_555 1_555
O7 C26 1_555 1_555
C26 N4 1_555 1_555
H18 C26 1_555 1_555
C27 N4 1_555 1_555
H19 C27 1_555 1_555
H20 C27 1_555 1_555
H21 C27 1_555 1_555
C28 O8 1_555 1_555
Mn1B O4 1_555 1_555
O1B Mn1B 1_555 1_555
O2B C3B 1_555 1_555
O3B Mn1B 1_555 1_555
O4B Mn1 1_555 1_555
O5B Mn1B 1_555 1_555
O6B C1B 1_555 1_555
F1B C12B 1_555 1_555
C1B O3B 1_555 1_555
N1B C13B 1_555 1_555
N2B C7B 1_555 1_555
C2B O1B 1_555 1_555
N3B C20B 1_555 1_555
C3B O5B 1_555 1_555
C4B C14B 1_555 1_555
C5B C8B 1_555 1_555
C6B C1B 1_555 1_555
H1B C6B 1_555 1_555
C7B H2B 1_555 1_555
C8B F2B 1_555 1_555
C9B C5B 1_555 1_555
H3B C9B 1_555 1_555
C10B C11B 1_555 1_555
C11B H4B 1_555 1_555
C12B C10B 1_555 1_555
C13B H5B 1_555 1_555
C14B H6B 1_555 1_555
C15B C4B 1_555 1_555
H7B C15B 1_555 1_555
C16B C3B 1_555 1_555
H8B C16B 1_555 1_555
C17B N2B 1_555 1_555
H9B C17B 1_555 1_555
C18B C5B 1_555 1_555
C19B C2B 1_555 1_555
H10B C19B 1_555 1_555
F3B C24B 1_555 1_555
C20B C12B 1_555 1_555
H11B C20B 1_555 1_555
C21B C10B 1_555 1_555
H12B C21B 1_555 1_555
C22B N3B 1_555 1_555
H13B C22B 1_555 1_555
C23B N1B 1_555 1_555
H14B C23B 1_555 1_555
C24B C4B 1_555 1_555
F4B C18B 1_555 1_555
Mn1A N2 1_555 1_555
Mn1A_2 N1 1_555 1_555
Mn1C N1B 1_555 1_555
Mn1C_2 N2B 1_555 1_555
Mn2_2 N3B 1_555 1_555
Mn2A O2B 1_555 1_555
Mn2A_2 O2 1_555 1_555
O2A Mn2 1_555 1_555
O2C Mn2 1_555 1_555
O6A Mn2 1_555 1_555
O6C Mn2 1_555 1_555
N1A Mn1 1_555 1_555
N1C Mn1B 1_555 1_555
N2A Mn1 1_555 1_555
N2C Mn1B 1_555 1_555
N3B_2 Mn2 1_555 1_555
O6 Mn2A_2 1_555 1_555
C6 C9 1_555 1_555
C7 C18 1_555 1_555
C8 C17 1_555 1_555
C11 C22 1_555 1_555
C13 C15 1_555 1_555
C14 C16 1_555 1_555
C19 C21 1_555 1_555
C23 C24 1_555 1_555
O4B C2B 1_555 1_555
O6B Mn2A 1_555 1_555
C6B C9B 1_555 1_555
C7B C18B 1_555 1_555
C8B C17B 1_555 1_555
C11B C22B 1_555 1_555
C13B C15B 1_555 1_555
C14B C16B 1_555 1_555
C19B C21B 1_555 1_555
C23B C24B 1_555 1_555

#END
