
#######################################################################
#
#                 Cambridge Crystallographic Data Centre
#                                CCDC 
#
#######################################################################
#
# If this CIF has been generated from an entry in the Cambridge 
# Structural Database, then it will include bibliographic, chemical, 
# crystal, experimental, refinement or atomic coordinate data resulting 
# from the CCDC's data processing and validation procedures.
#
#######################################################################

data_OTIQAL
_chemical_formula_moiety         '(C19 H19 Mn1 N3 O5)n'
_symmetry_cell_setting           monoclinic
_symmetry_space_group_name_H-M   'P 21/c'
_symmetry_Int_Tables_number      14
_space_group_name_Hall           '-P 2ybc'
loop_
_symmetry_equiv_pos_site_id
_symmetry_equiv_pos_as_xyz
1 x,y,z
2 -x,1/2+y,1/2-z
3 -x,-y,-z
4 x,1/2-y,1/2+z
_cell_length_a                   10.0269(2)
_cell_length_b                   16.4397(3)
_cell_length_c                   12.7548(2)
_cell_angle_alpha                90
_cell_angle_beta                 90.645(2)
_cell_angle_gamma                90
_cell_volume                     2102.36
loop_
_atom_site_label
_atom_site_type_symbol
_atom_site_fract_x
_atom_site_fract_y
_atom_site_fract_z
Mn1 Mn 0.75160(5) 0.00013(3) 0.49823(4)
C1 C 0.7605(4) -0.1940(2) 0.4516(3)
H1 H 0.7270 -0.1970 0.5192
C2 C 0.5888(4) 0.1341(2) 0.6193(3)
H2 H 0.5196 0.0988 0.6015
C3 C 0.5605(4) 0.2005(2) 0.6804(3)
H3 H 0.4741 0.2090 0.7036
O1 O 0.3792(3) 0.43302(16) 0.9024(2)
O2 O 0.5916(3) 0.47215(15) 0.8883(2)
C4 C 0.7831(4) -0.2657(2) 0.3980(3)
H4 H 0.7647 -0.3153 0.4296
O3 O 0.9132(3) -0.48169(16) 0.1097(2)
C5 C 0.8644(4) -0.3398(2) 0.2403(3)
H5 H 0.8153 -0.3860 0.2565
O4 O 1.1197(3) -0.43119(16) 0.1014(2)
C6 C 0.9568(4) -0.3465(2) 0.1683(3)
H6 H 0.9990 -0.2994 0.1454
C7 C 0.5204(4) 0.3489(2) 0.8091(3)
H7 H 0.4480 0.3151 0.7951
C8 C 0.7872(4) 0.2387(2) 0.6694(4)
H8 H 0.8576 0.2739 0.6843
C9 C 0.8082(4) 0.1699(2) 0.6093(3)
H9 H 0.8938 0.1597 0.5853
C10 C 0.8550(5) -0.1873(2) 0.2547(3)
H10 H 0.8866 -0.1824 0.1867
C11 C 0.8331(4) -0.2638(2) 0.2974(3)
N1 N 0.7846(3) -0.12041(18) 0.4109(3)
C12 C 0.8299(5) -0.1188(2) 0.3129(3)
H11 H 0.8454 -0.0684 0.2823
N2 N 0.7119(3) 0.11752(18) 0.5842(3)
C13 C 0.6608(4) 0.2551(2) 0.7074(3)
C14 C 0.6375(4) 0.3277(2) 0.7717(3)
H12 H 0.7102 0.3610 0.7871
C15 C 0.9975(4) -0.4264(2) 0.1215(3)
C16 C 0.4968(4) 0.4238(2) 0.8728(3)
Mn1A Mn 0.24840(5) 0.50013(3) 1.00177(4)
Mn1A_2 Mn 1.24840(5) -0.49987(3) 0.00177(4)
Mn1C Mn 0.75160(5) -0.50013(3) -0.00177(4)
Mn1C_2 Mn 0.75160(5) 0.49987(3) 0.99823(4)
O1A O 0.6208(3) -0.06698(16) 0.5976(2)
O2C O 0.5916(3) 0.02785(15) 0.3883(2)
O3C O 0.9132(3) -0.01831(16) 0.6097(2)
O4A O 0.8803(3) 0.06881(16) 0.3986(2)
N3 N 0.5500(6) 0.0773(3) 0.9029(3)
O5 O 0.3288(7) 0.0915(4) 0.9252(4)
C17 C 0.4232(8) 0.0607(5) 0.8833(5)
H13 H 0.4053 0.0215 0.8324
C18 C 0.6585(8) 0.0344(5) 0.8511(5)
H14 H 0.6221 -0.0056 0.8040
H15 H 0.7136 0.0079 0.9029
H16 H 0.7112 0.0725 0.8125
C19 C 0.5873(11) 0.1377(5) 0.9808(6)
H17 H 0.5124 0.1723 0.9943
H18 H 0.6599 0.1698 0.9551
H19 H 0.6142 0.1109 1.0444
loop_
_geom_bond_atom_site_label_1
_geom_bond_atom_site_label_2
_geom_bond_site_symmetry_1
_geom_bond_site_symmetry_2
Mn1 N1 1_555 1_555
C1 H1 1_555 1_555
C2 H2 1_555 1_555
C3 C2 1_555 1_555
H3 C3 1_555 1_555
O1 C16 1_555 1_555
O2 C16 1_555 1_555
C4 C1 1_555 1_555
H4 C4 1_555 1_555
O3 C15 1_555 1_555
C5 H5 1_555 1_555
O4 C15 1_555 1_555
C6 C5 1_555 1_555
H6 C6 1_555 1_555
C7 H7 1_555 1_555
C8 H8 1_555 1_555
C9 C8 1_555 1_555
H9 C9 1_555 1_555
C10 H10 1_555 1_555
C11 C4 1_555 1_555
N1 C1 1_555 1_555
C12 C10 1_555 1_555
H11 C12 1_555 1_555
N2 Mn1 1_555 1_555
C13 C3 1_555 1_555
C14 C7 1_555 1_555
H12 C14 1_555 1_555
C15 C6 1_555 1_555
C16 C7 1_555 1_555
N3 C17 1_555 1_555
O5 C17 1_555 1_555
C17 H13 1_555 1_555
C18 N3 1_555 1_555
H14 C18 1_555 1_555
H15 C18 1_555 1_555
H16 C18 1_555 1_555
C19 N3 1_555 1_555
H17 C19 1_555 1_555
H18 C19 1_555 1_555
H19 C19 1_555 1_555
Mn1A O1 1_555 1_555
Mn1A_2 O4 1_555 1_555
Mn1C O3 1_555 1_555
Mn1C_2 O2 1_555 1_555
O1A Mn1 1_555 1_555
O2C Mn1 1_555 1_555
O3C Mn1 1_555 1_555
O4A Mn1 1_555 1_555
C2 N2 1_555 1_555
C5 C11 1_555 1_555
C8 C13 1_555 1_555
C9 N2 1_555 1_555
C10 C11 1_555 1_555
N1 C12 1_555 1_555
C13 C14 1_555 1_555

#END
