
#######################################################################
#
#                 Cambridge Crystallographic Data Centre
#                                CCDC 
#
#######################################################################
#
# If this CIF has been generated from an entry in the Cambridge 
# Structural Database, then it will include bibliographic, chemical, 
# crystal, experimental, refinement or atomic coordinate data resulting 
# from the CCDC's data processing and validation procedures.
#
#######################################################################

data_OTIQEP
_chemical_formula_moiety         '(C27 H23 Mn2 N5 O9)n'
_symmetry_cell_setting           monoclinic
_symmetry_space_group_name_H-M   'P 21'
_symmetry_Int_Tables_number      4
_space_group_name_Hall           'P 2yb'
loop_
_symmetry_equiv_pos_site_id
_symmetry_equiv_pos_as_xyz
1 x,y,z
2 -x,1/2+y,-z
_cell_length_a                   9.9545(3)
_cell_length_b                   13.1364(4)
_cell_length_c                   11.0094(3)
_cell_angle_alpha                90
_cell_angle_beta                 101.703(3)
_cell_angle_gamma                90
_cell_volume                     1409.73
loop_
_atom_site_label
_atom_site_type_symbol
_atom_site_fract_x
_atom_site_fract_y
_atom_site_fract_z
C1 C 0.4015(5) 0.5047(4) -0.0117(3)
C2 C 0.1506(4) 0.3825(4) 0.4810(4)
C3 C 0.1642(4) 0.4787(4) 0.4360(3)
H1 H 0.1789 0.4880 0.3560
C4 C 0.1306(4) 0.3721(4) 0.6002(3)
H2 H 0.1178 0.3081 0.6320
C5 C 0.1298(4) 0.4569(4) 0.6713(3)
H3 H 0.1202 0.4486 0.7530
C6 C 0.4655(4) -0.0998(3) 0.4651(3)
H4 H 0.5428 -0.1407 0.4875
C7 C 0.1558(4) 0.5614(4) 0.5116(3)
H5 H 0.1598 0.6266 0.4796
C8 C 0.5088(3) 0.3627(4) 0.1076(3)
H6 H 0.5878 0.3252 0.1379
C9 C 0.4672(4) -0.0161(4) 0.3893(3)
H7 H 0.5474 -0.0014 0.3617
C10 C 0.1557(4) 0.2909(5) 0.3972(4)
C11 C 0.2346(3) -0.0599(4) 0.4701(3)
H8 H 0.1532 -0.0729 0.4964
C12 C 0.2436(3) 0.0223(3) 0.3928(3)
H9 H 0.1667 0.0631 0.3673
C13 C 0.2816(4) 0.4771(4) 0.0253(3)
H10 H 0.2023 0.5156 0.0005
C14 C 0.5174(3) 0.4461(4) 0.0321(3)
H11 H 0.6005 0.4627 0.0109
C15 C 0.2804(4) 0.3930(4) 0.0985(3)
H12 H 0.1986 0.3757 0.1217
C16 C 0.4098(4) 0.5959(4) -0.0930(3)
C17 C 0.0900(4) 0.0965(4) 0.0969(3)
C18 C 0.1014(5) 0.0041(4) 0.0193(3)
C19 C 0.0990(4) -0.0946(4) 0.0631(3)
H13 H 0.0928 -0.1058 0.1452
C20 C 0.1117(4) -0.0722(4) -0.1771(3)
H14 H 0.1146 -0.0632 -0.2603
C21 C 0.1079(4) 0.0136(4) -0.1043(3)
H15 H 0.1097 0.0780 -0.1390
C22 C 0.3460(4) -0.1218(4) 0.5074(4)
C23 C 0.1058(4) -0.1769(4) -0.0143(3)
H16 H 0.1063 -0.2421 0.0187
C24 C 0.3424(4) -0.2093(5) 0.5988(4)
Mn1 Mn -0.12629(7) 0.19264(7) 0.25222(6)
Mn2 Mn 0.37558(8) 0.19159(7) 0.24664(6)
N1 N 0.1419(4) 0.5507(4) 0.6301(3)
N2 N 0.3903(4) 0.3341(3) 0.1385(3)
N3 N 0.3581(4) 0.0448(3) 0.3540(3)
N4 N 0.1115(4) -0.1672(3) -0.1335(3)
O1 O 0.2614(3) 0.2838(3) 0.3559(3)
O2 O 0.0581(3) 0.2285(3) 0.3889(2)
O3 O 0.1841(3) 0.1590(3) 0.1147(3)
O4 O -0.0141(3) 0.0990(3) 0.1457(3)
O5 O 0.5183(3) 0.6069(3) -0.1310(3)
O6 O 0.4404(3) -0.2702(3) 0.6157(2)
O7 O 0.2335(3) -0.2135(3) 0.6379(3)
O8 O 0.3055(3) 0.6500(3) -0.1222(3)
Mn1A Mn 0.12629(7) -0.30736(7) -0.25222(6)
Mn1A_2 Mn 0.12629(7) -0.30736(7) 0.74778(6)
Mn1A_3 Mn 0.12629(7) 0.69264(7) -0.25222(6)
Mn1A_4 Mn 0.12629(7) 0.69264(7) 0.74778(6)
Mn2A Mn 0.62442(8) -0.30841(7) 0.75336(6)
Mn2A_2 Mn 0.62442(8) 0.69159(7) -0.24664(6)
N1A N -0.1419(4) 0.0507(4) 0.3699(3)
N4A N -0.1115(4) 0.3328(3) 0.1335(3)
O5A O 0.4817(3) 0.1069(3) 0.1310(3)
O6A O 0.5596(3) 0.2298(3) 0.3843(2)
O7A O -0.2335(3) 0.2865(3) 0.3621(3)
O8A O -0.3055(3) 0.1500(3) 0.1222(3)
N5 N 0.5324(6) 0.1828(4) 0.7483(4)
O9 O 0.7666(8) 0.1833(12) 0.7558(12)
C25 C 0.683(3) 0.1680(15) 0.7107(13)
C26 C 0.4055(19) 0.1298(13) 0.6781(15)
C27 C 0.4269(15) 0.2218(15) 0.8034(14)
loop_
_geom_bond_atom_site_label_1
_geom_bond_atom_site_label_2
_geom_bond_site_symmetry_1
_geom_bond_site_symmetry_2
C1 C13 1_555 1_555
C2 C3 1_555 1_555
C3 H1 1_555 1_555
C4 C2 1_555 1_555
H2 C4 1_555 1_555
C5 C4 1_555 1_555
H3 C5 1_555 1_555
C6 H4 1_555 1_555
C7 C3 1_555 1_555
H5 C7 1_555 1_555
C8 H6 1_555 1_555
C9 C6 1_555 1_555
H7 C9 1_555 1_555
C10 C2 1_555 1_555
C11 H8 1_555 1_555
C12 C11 1_555 1_555
H9 C12 1_555 1_555
C13 H10 1_555 1_555
C14 C1 1_555 1_555
H11 C14 1_555 1_555
C15 C13 1_555 1_555
H12 C15 1_555 1_555
C16 C1 1_555 1_555
C17 C18 1_555 1_555
C18 C19 1_555 1_555
C19 H13 1_555 1_555
C20 H14 1_555 1_555
C21 C18 1_555 1_555
H15 C21 1_555 1_555
C22 C6 1_555 1_555
C23 C19 1_555 1_555
H16 C23 1_555 1_555
C24 C22 1_555 1_555
Mn1 O2 1_555 1_555
Mn2 N2 1_555 1_555
N1 C5 1_555 1_555
N2 C8 1_555 1_555
N3 C9 1_555 1_555
N4 C20 1_555 1_555
O1 C10 1_555 1_555
O2 C10 1_555 1_555
O3 C17 1_555 1_555
O4 C17 1_555 1_555
O5 C16 1_555 1_555
O6 C24 1_555 1_555
O7 C24 1_555 1_555
O8 C16 1_555 1_555
N5 C25 1_555 1_555
O9 C25 1_555 1_555
C26 N5 1_555 1_555
C27 N5 1_555 1_555
Mn1A N4 1_555 1_555
Mn1A_2 O7 1_555 1_555
Mn1A_3 O8 1_555 1_555
Mn1A_4 N1 1_555 1_555
Mn2A O6 1_555 1_555
Mn2A_2 O5 1_555 1_555
N1A Mn1 1_555 1_555
N4A Mn1 1_555 1_555
O5A Mn2 1_555 1_555
O6A Mn2 1_555 1_555
O7A Mn1 1_555 1_555
O8A Mn1 1_555 1_555
C7 N1 1_555 1_555
C8 C14 1_555 1_555
C11 C22 1_555 1_555
C12 N3 1_555 1_555
C15 N2 1_555 1_555
C20 C21 1_555 1_555
C23 N4 1_555 1_555
Mn1 O4 1_555 1_555
Mn2 N3 1_555 1_555
Mn2 O1 1_555 1_555
Mn2 O3 1_555 1_555

#END
