
#######################################################################
#
#                 Cambridge Crystallographic Data Centre
#                                CCDC 
#
#######################################################################
#
# If this CIF has been generated from an entry in the Cambridge 
# Structural Database, then it will include bibliographic, chemical, 
# crystal, experimental, refinement or atomic coordinate data resulting 
# from the CCDC's data processing and validation procedures.
#
#######################################################################

data_OTOVAW
_chemical_formula_moiety         '(C51 H37 Cd3 F6 N7 O13)n'
_symmetry_cell_setting           monoclinic
_symmetry_space_group_name_H-M   'P 21/c'
_symmetry_Int_Tables_number      14
_space_group_name_Hall           '-P 2ybc'
loop_
_symmetry_equiv_pos_site_id
_symmetry_equiv_pos_as_xyz
1 x,y,z
2 -x,1/2+y,1/2-z
3 -x,-y,-z
4 x,1/2-y,1/2+z
_cell_length_a                   10.6945(12)
_cell_length_b                   18.576(2)
_cell_length_c                   14.9208(17)
_cell_angle_alpha                90
_cell_angle_beta                 107.758(2)
_cell_angle_gamma                90
_cell_volume                     2822.95
loop_
_atom_site_label
_atom_site_type_symbol
_atom_site_fract_x
_atom_site_fract_y
_atom_site_fract_z
Cd1 Cd 0.67055(3) 0.011331(17) 0.67012(2)
Cd2 Cd 1.0000 0.0000 1.0000
O1 O 0.6787(3) 0.00245(17) 0.8253(3)
O2 O 0.6647(3) 0.47467(18) 1.0136(3)
O3 O 0.9806(3) 0.01926(18) 0.8450(3)
F1 F 1.0388(3) 0.29147(16) 1.0946(3)
C1 C 0.7046(4) -0.0505(2) 0.8811(4)
O4 O 0.8555(3) 0.07884(18) 0.7199(2)
C2 C 1.0741(5) 0.2711(3) 0.8053(4)
C3 C 0.6117(4) 0.4313(2) 0.9483(3)
F2 F 0.3850(4) -0.2003(2) 0.7600(3)
N1 N 0.9176(4) 0.1165(2) 1.0115(3)
O5 O 0.7955(3) -0.05319(18) 0.9576(2)
C4 C 0.5693(5) -0.2444(2) 0.8798(3)
C5 C 0.9494(4) 0.0749(2) 0.7942(3)
C6 C 0.6400(5) -0.1758(2) 0.9025(4)
H1 H 0.7079 -0.1743 0.9590
N2 N 0.4430(4) -0.3799(2) 0.8459(3)
C7 C 0.9507(5) 0.2398(2) 1.0537(4)
C8 C 1.0336(5) 0.1399(3) 0.8241(4)
H2 H 1.1151 0.1353 0.8694
C9 C 0.6186(4) -0.1154(2) 0.8516(4)
H3 H 0.5485 -0.1135 0.7965
C10 C 0.9944(5) 0.2048(3) 0.7869(4)
H4 H 0.9094 0.2084 0.7460
C11 C 0.6631(5) 0.3563(3) 0.9525(4)
H5 H 0.6144 0.3237 0.9081
C12 C 0.9967(5) 0.1701(3) 1.0538(4)
H6 H 1.0849 0.1604 1.0840
C13 C 0.7720(5) 0.3321(2) 1.0139(4)
H7 H 0.8204 0.3634 1.0602
C14 C 0.6244(5) -0.3065(3) 0.9293(4)
C15 C 0.7399(5) 0.2006(3) 0.9707(4)
H8 H 0.6506 0.2083 0.9425
C16 C 0.8205(5) 0.2579(2) 1.0126(4)
C17 C 1.2096(5) 0.2727(3) 0.8219(4)
H9 H 1.2556 0.2297 0.8262
C18 C 0.4478(5) -0.2543(3) 0.8138(4)
C19 C 0.7912(5) 0.1323(3) 0.9704(4)
H10 H 0.7350 0.0956 0.9402
N3 N 1.2166(4) 0.4015(2) 0.8254(3)
C20 C 1.2760(5) 0.3373(3) 0.8321(4)
H11 H 1.3666 0.3363 0.8443
C21 C 0.5590(5) -0.3721(3) 0.9106(4)
H12 H 0.5982 -0.4123 0.9449
C22 C 0.3881(5) -0.3216(3) 0.7962(4)
H13 H 0.3084 -0.3263 0.7489
C23 C 1.0172(5) 0.3385(3) 0.8009(5)
O6 O 0.5175(3) 0.44485(18) 0.8760(3)
F3 F 0.8856(4) 0.3423(2) 0.7848(5)
C24 C 1.0866(6) 0.4013(3) 0.8104(5)
H14 H 1.0426 0.4449 0.8063
Cd1B Cd 1.32945(3) -0.011331(17) 1.32988(2)
O1B O 1.3213(3) -0.00245(17) 1.1747(3)
O2B O 1.3353(3) -0.47467(18) 0.9864(3)
O3B O 1.0194(3) -0.01926(18) 1.1550(3)
F1B F 0.9612(3) -0.29147(16) 0.9054(3)
C1B C 1.2954(4) 0.0505(2) 1.1189(4)
O4B O 1.1445(3) -0.07884(18) 1.2801(2)
C2B C 0.9259(5) -0.2711(3) 1.1947(4)
C3B C 1.3883(4) -0.4313(2) 1.0517(3)
F2B F 1.6150(4) 0.2003(2) 1.2400(3)
N1B N 1.0824(4) -0.1165(2) 0.9885(3)
O5B O 1.2045(3) 0.05319(18) 1.0424(2)
C4B C 1.4307(5) 0.2444(2) 1.1202(3)
C5B C 1.0506(4) -0.0749(2) 1.2058(3)
C6B C 1.3600(5) 0.1758(2) 1.0975(4)
H1B H 1.2921 0.1743 1.0410
N2B N 1.5570(4) 0.3799(2) 1.1541(3)
C7B C 1.0493(5) -0.2398(2) 0.9463(4)
C8B C 0.9664(5) -0.1399(3) 1.1759(4)
H2B H 0.8849 -0.1353 1.1306
C9B C 1.3814(4) 0.1154(2) 1.1484(4)
H3B H 1.4515 0.1135 1.2035
C10B C 1.0056(5) -0.2048(3) 1.2131(4)
H4B H 1.0906 -0.2084 1.2540
C11B C 1.3369(5) -0.3563(3) 1.0475(4)
H5B H 1.3856 -0.3237 1.0919
C12B C 1.0033(5) -0.1701(3) 0.9462(4)
H6B H 0.9151 -0.1604 0.9160
C13B C 1.2280(5) -0.3321(2) 0.9861(4)
H7B H 1.1796 -0.3634 0.9398
C14B C 1.3756(5) 0.3065(3) 1.0707(4)
C15B C 1.2601(5) -0.2006(3) 1.0293(4)
H8B H 1.3494 -0.2083 1.0575
C16B C 1.1795(5) -0.2579(2) 0.9874(4)
C17B C 0.7904(5) -0.2727(3) 1.1781(4)
H9B H 0.7444 -0.2297 1.1738
C18B C 1.5522(5) 0.2543(3) 1.1862(4)
C19B C 1.2088(5) -0.1323(3) 1.0296(4)
H10B H 1.2650 -0.0956 1.0598
N3B N 0.7834(4) -0.4015(2) 1.1746(3)
C20B C 0.7240(5) -0.3373(3) 1.1679(4)
H11B H 0.6334 -0.3363 1.1557
C21B C 1.4410(5) 0.3721(3) 1.0894(4)
H12B H 1.4018 0.4123 1.0551
C22B C 1.6119(5) 0.3216(3) 1.2038(4)
H13B H 1.6916 0.3263 1.2511
C23B C 0.9828(5) -0.3385(3) 1.1991(5)
O6B O 1.4825(3) -0.44485(18) 1.1240(3)
F3B F 1.1144(4) -0.3423(2) 1.2152(5)
C24B C 0.9134(6) -0.4013(3) 1.1896(5)
H14B H 0.9574 -0.4449 1.1937
Cd1A Cd 0.32945(3) -0.488669(17) 0.82988(2)
Cd1A_2 Cd 0.32945(3) 0.511331(17) 0.82988(2)
Cd1A_3 Cd 1.32945(3) -0.488669(17) 0.82988(2)
Cd1A_4 Cd 1.32945(3) 0.511331(17) 0.82988(2)
Cd1C Cd 0.67055(3) -0.511331(17) 1.17012(2)
Cd1C_2 Cd 0.67055(3) 0.488669(17) 1.17012(2)
Cd1C_3 Cd 1.67055(3) -0.511331(17) 1.17012(2)
Cd1C_4 Cd 1.67055(3) 0.488669(17) 1.17012(2)
O2A O 1.3353(3) -0.02533(18) 1.4864(3)
O2C O 0.6647(3) 0.02533(18) 0.5136(3)
N2A N 0.5570(4) 0.1201(2) 0.6541(3)
N2C N 1.4430(4) -0.1201(2) 1.3459(3)
N3A N 0.7834(4) -0.0985(2) 0.6746(3)
N3C N 1.2166(4) 0.0985(2) 1.3254(3)
O6A O 0.4825(3) -0.05515(18) 0.6240(3)
O6C O 1.5175(3) 0.05515(18) 1.3760(3)
N4 N 0.3347(6) 0.0418(4) 0.8308(5)
O7 O 0.4343(6) 0.1490(4) 0.8689(7)
C25 C 0.3069(9) -0.0281(5) 0.8608(9)
H15 H 0.3551 -0.0347 0.9260
H16 H 0.3324 -0.0643 0.8238
H17 H 0.2146 -0.0321 0.8525
C26 C 0.4082(8) 0.0887(5) 0.8873(9)
H18 H 0.4450 0.0741 0.9494
C27 C 0.2742(13) 0.0587(7) 0.7333(8)
H19 H 0.3082 0.0273 0.6951
H20 H 0.2930 0.1078 0.7219
H21 H 0.1809 0.0522 0.7176
loop_
_geom_bond_atom_site_label_1
_geom_bond_atom_site_label_2
_geom_bond_site_symmetry_1
_geom_bond_site_symmetry_2
Cd1 O1 1_555 1_555
Cd2 O3 1_555 1_555
O1 C1 1_555 1_555
O2 C3 1_555 1_555
O3 C5 1_555 1_555
F1 C7 1_555 1_555
C1 O5 1_555 1_555
O4 Cd1 1_555 1_555
C2 C10 1_555 1_555
C3 C11 1_555 1_555
F2 C18 1_555 1_555
N1 Cd2 1_555 1_555
O5 Cd2 1_555 1_555
C4 C6 1_555 1_555
C5 O4 1_555 1_555
C6 H1 1_555 1_555
N2 C21 1_555 1_555
C7 C12 1_555 1_555
C8 C5 1_555 1_555
H2 C8 1_555 1_555
C9 C1 1_555 1_555
H3 C9 1_555 1_555
C10 C8 1_555 1_555
H4 C10 1_555 1_555
C11 H5 1_555 1_555
C12 N1 1_555 1_555
H6 C12 1_555 1_555
C13 C11 1_555 1_555
H7 C13 1_555 1_555
C14 C4 1_555 1_555
C15 H8 1_555 1_555
C16 C7 1_555 1_555
C17 C2 1_555 1_555
H9 C17 1_555 1_555
C18 C4 1_555 1_555
C19 N1 1_555 1_555
H10 C19 1_555 1_555
N3 C20 1_555 1_555
C20 C17 1_555 1_555
H11 C20 1_555 1_555
C21 C14 1_555 1_555
H12 C21 1_555 1_555
C22 N2 1_555 1_555
H13 C22 1_555 1_555
C23 C2 1_555 1_555
O6 C3 1_555 1_555
F3 C23 1_555 1_555
C24 N3 1_555 1_555
H14 C24 1_555 1_555
N4 C25 1_555 1_555
O7 C26 1_555 1_555
C25 H15 1_555 1_555
H16 C25 1_555 1_555
H17 C25 1_555 1_555
C26 N4 1_555 1_555
H18 C26 1_555 1_555
C27 N4 1_555 1_555
H19 C27 1_555 1_555
H20 C27 1_555 1_555
H21 C27 1_555 1_555
Cd1B O1B 1_555 1_555
O1B C1B 1_555 1_555
O2B C3B 1_555 1_555
O3B Cd2 1_555 1_555
F1B C7B 1_555 1_555
C1B O5B 1_555 1_555
O4B Cd1B 1_555 1_555
C2B C10B 1_555 1_555
C3B C11B 1_555 1_555
F2B C18B 1_555 1_555
N1B Cd2 1_555 1_555
O5B Cd2 1_555 1_555
C4B C6B 1_555 1_555
C5B O3B 1_555 1_555
C6B H1B 1_555 1_555
N2B C21B 1_555 1_555
C7B C12B 1_555 1_555
C8B C5B 1_555 1_555
H2B C8B 1_555 1_555
C9B C1B 1_555 1_555
H3B C9B 1_555 1_555
C10B C8B 1_555 1_555
H4B C10B 1_555 1_555
C11B H5B 1_555 1_555
C12B N1B 1_555 1_555
H6B C12B 1_555 1_555
C13B C11B 1_555 1_555
H7B C13B 1_555 1_555
C14B C4B 1_555 1_555
C15B H8B 1_555 1_555
C16B C7B 1_555 1_555
C17B C2B 1_555 1_555
H9B C17B 1_555 1_555
C18B C4B 1_555 1_555
C19B N1B 1_555 1_555
H10B C19B 1_555 1_555
N3B C20B 1_555 1_555
C20B C17B 1_555 1_555
H11B C20B 1_555 1_555
C21B C14B 1_555 1_555
H12B C21B 1_555 1_555
C22B N2B 1_555 1_555
H13B C22B 1_555 1_555
C23B C2B 1_555 1_555
O6B C3B 1_555 1_555
F3B C23B 1_555 1_555
C24B N3B 1_555 1_555
H14B C24B 1_555 1_555
Cd1A N2 1_555 1_555
Cd1A_2 O6 1_555 1_555
Cd1A_3 O2B 1_555 1_555
Cd1A_4 N3 1_555 1_555
Cd1C N3B 1_555 1_555
Cd1C_2 O2 1_555 1_555
Cd1C_3 O6B 1_555 1_555
Cd1C_4 N2B 1_555 1_555
O2A Cd1B 1_555 1_555
O2C Cd1 1_555 1_555
N2A Cd1 1_555 1_555
N2C Cd1B 1_555 1_555
N3A Cd1 1_555 1_555
N3C Cd1B 1_555 1_555
O6A Cd1 1_555 1_555
O6C Cd1B 1_555 1_555
C6 C9 1_555 1_555
C13 C16 1_555 1_555
C15 C16 1_555 1_555
C15 C19 1_555 1_555
C18 C22 1_555 1_555
C23 C24 1_555 1_555
O4B C5B 1_555 1_555
C6B C9B 1_555 1_555
C13B C16B 1_555 1_555
C15B C16B 1_555 1_555
C15B C19B 1_555 1_555
C18B C22B 1_555 1_555
C23B C24B 1_555 1_555

#END
