
#######################################################################
#
#                 Cambridge Crystallographic Data Centre
#                                CCDC 
#
#######################################################################
#
# If this CIF has been generated from an entry in the Cambridge 
# Structural Database, then it will include bibliographic, chemical, 
# crystal, experimental, refinement or atomic coordinate data resulting 
# from the CCDC's data processing and validation procedures.
#
#######################################################################

data_QIVYUR
_chemical_formula_moiety         '(C18 H18 N2 O6 Zn1)n'
_symmetry_cell_setting           monoclinic
_symmetry_space_group_name_H-M   'C 2/c'
_symmetry_Int_Tables_number      15
_space_group_name_Hall           '-C 2yc'
loop_
_symmetry_equiv_pos_site_id
_symmetry_equiv_pos_as_xyz
1 x,y,z
2 -x,y,1/2-z
3 1/2+x,1/2+y,z
4 1/2-x,1/2+y,1/2-z
5 -x,-y,-z
6 x,-y,1/2+z
7 1/2-x,1/2-y,-z
8 1/2+x,1/2-y,1/2+z
_cell_length_a                   22.2190(13)
_cell_length_b                   5.5243(3)
_cell_length_c                   18.4719(10)
_cell_angle_alpha                90
_cell_angle_beta                 115.962(2)
_cell_angle_gamma                90
_cell_volume                     2038.51
loop_
_atom_site_label
_atom_site_type_symbol
_atom_site_fract_x
_atom_site_fract_y
_atom_site_fract_z
_atom_site_U_iso_or_equiv
_atom_site_thermal_displace_type
Zn1 Zn 0.5000 0.03681(3) 0.2500 0.0123 Uani
C1 C 0.64490(6) 0.6073(2) 0.33038(7) 0.0181 Uani
H1 H 0.6546 0.7372 0.3052 0.0220 Uiso
O1 O 0.49831(4) -0.18198(16) 0.16494(5) 0.0177 Uani
O2 O 0.56339(6) 0.0993(2) 0.15187(6) 0.0315 Uani
C2 C 0.61380(6) 0.2205(2) 0.39869(7) 0.0168 Uani
H2 H 0.6034 0.0878 0.4221 0.0200 Uiso
N1 N 0.57894(5) 0.25422(18) 0.31851(6) 0.0146 Uani
C3 C 0.53356(6) -0.0965(2) 0.13172(7) 0.0172 Uani
C4 C 0.68058(6) 0.5756(2) 0.41339(7) 0.0162 Uani
C5 C 0.66403(6) 0.3745(2) 0.44723(7) 0.0184 Uani
H3 H 0.6869 0.3450 0.5022 0.0220 Uiso
C6 C 0.59504(6) 0.4449(2) 0.28554(7) 0.0174 Uani
H4 H 0.5718 0.4689 0.2303 0.0210 Uiso
C7 C 0.49965(7) -0.4330(2) 0.03358(7) 0.0184 Uani
C8 C 0.53677(7) -0.2373(2) 0.06509(7) 0.0198 Uani
C9 C 0.73244(6) 0.7518(2) 0.45995(7) 0.0184 Uani
H5 H 0.5656(8) -0.178(3) 0.0440(10) 0.0240 Uiso
H6 H 0.7404(9) 0.875(3) 0.4308(11) 0.0280 Uiso
H7 H 0.4703(9) -0.488(3) 0.0554(10) 0.0220 Uiso
C1F C 0.85510(6) 0.8927(2) 0.66962(7) 0.0181 Uani
H1F H 0.8454 0.7628 0.6948 0.0220 Uiso
C2F C 0.88620(6) 1.2795(2) 0.60131(7) 0.0168 Uani
H2F H 0.8966 1.4122 0.5779 0.0200 Uiso
N1F N 0.92106(5) 1.24578(18) 0.68149(6) 0.0146 Uani
C4F C 0.81942(6) 0.9244(2) 0.58661(7) 0.0162 Uani
C5F C 0.83597(6) 1.1255(2) 0.55277(7) 0.0184 Uani
H3F H 0.8131 1.1550 0.4978 0.0220 Uiso
C6F C 0.90496(6) 1.0551(2) 0.71446(7) 0.0174 Uani
H4F H 0.9282 1.0311 0.7697 0.0210 Uiso
C9F C 0.76756(6) 0.7482(2) 0.54005(7) 0.0184 Uani
H6F H 0.7596(9) 0.625(3) 0.5692(11) 0.0280 Uiso
O1D O 0.50169(4) -0.81802(16) -0.16494(5) 0.0177 Uani
O2D O 0.43661(6) -1.0993(2) -0.15187(6) 0.0315 Uani
C3D C 0.46644(6) -0.9035(2) -0.13172(7) 0.0172 Uani
C7D C 0.50035(7) -0.5670(2) -0.03358(7) 0.0184 Uani
C8D C 0.46323(7) -0.7627(2) -0.06509(7) 0.0198 Uani
H5D H 0.4344(8) -0.822(3) -0.0440(10) 0.0240 Uiso
H7D H 0.5297(9) -0.512(3) -0.0554(10) 0.0220 Uiso
Zn1D Zn 0.5000 -1.03681(3) -0.2500 0.0123 Uani
Zn1F Zn 1.0000 1.46319(3) 0.7500 0.0123 Uani
O1A O 0.50169(4) -0.18198(16) 0.33506(5) 0.0177 Uani
N1A N 0.42106(5) 0.25422(18) 0.18149(6) 0.0146 Uani
O3 O 0.76940(8) 0.1752(3) 0.33423(9) 0.0411 Uani
H8 H 0.7425(12) 0.176(4) 0.2873(15) 0.0510 Uiso
H9 H 0.7861(14) 0.306(6) 0.3395(16) 0.0700 Uiso
O4 O 0.68736(7) 0.1841(3) 0.16381(8) 0.0406 Uani
H10 H 0.6459(13) 0.171(5) 0.1567(14) 0.0610 Uiso
H11 H 0.6915(13) 0.328(5) 0.1526(15) 0.0630 Uiso
loop_
_atom_site_aniso_label
_atom_site_aniso_U_11
_atom_site_aniso_U_22
_atom_site_aniso_U_33
_atom_site_aniso_U_23
_atom_site_aniso_U_13
_atom_site_aniso_U_12
Zn1 0.01416(10) 0.01213(10) 0.00954(10) 0.000 0.00417(7) 0.000
C1 0.0212(6) 0.0147(5) 0.0173(5) -0.0004(4) 0.0074(5) -0.0017(4)
O1 0.0235(4) 0.0176(4) 0.0145(4) -0.0015(3) 0.0105(3) 0.0005(3)
O2 0.0465(6) 0.0260(5) 0.0307(5) -0.0144(4) 0.0250(5) -0.0162(5)
C2 0.0180(5) 0.0181(5) 0.0141(5) 0.0000(4) 0.0069(4) -0.0004(4)
N1 0.0152(4) 0.0142(4) 0.0130(4) -0.0015(4) 0.0049(4) 0.0007(4)
C3 0.0216(6) 0.0171(5) 0.0130(5) -0.0007(4) 0.0076(5) 0.0015(4)
C4 0.0152(5) 0.0168(5) 0.0164(5) -0.0043(4) 0.0067(4) -0.0003(4)
C5 0.0185(5) 0.0228(6) 0.0121(5) -0.0012(4) 0.0049(4) -0.0015(5)
C6 0.0205(6) 0.0146(5) 0.0137(5) -0.0005(4) 0.0043(5) 0.0007(4)
C7 0.0246(6) 0.0186(6) 0.0160(6) -0.0024(5) 0.0126(5) -0.0016(5)
C8 0.0269(6) 0.0199(6) 0.0180(6) -0.0036(5) 0.0148(5) -0.0033(5)
C9 0.0179(5) 0.0185(5) 0.0183(6) -0.0033(4) 0.0076(5) -0.0025(4)
C1F 0.0212 0.0147 0.0173 -0.0004 0.0074 -0.0017
C2F 0.018 0.0181 0.0141 0 0.0069 -0.0004
N1F 0.0152 0.0142 0.013 -0.0015 0.0049 0.0007
C4F 0.0152 0.0168 0.0164 -0.0043 0.0067 -0.0003
C5F 0.0185 0.0228 0.0121 -0.0012 0.0049 -0.0015
C6F 0.0205 0.0146 0.0137 -0.0005 0.0043 0.0007
C9F 0.0179 0.0185 0.0183 -0.0033 0.0076 -0.0025
O1D 0.0235 0.0176 0.0145 -0.0015 0.0105 0.0005
O2D 0.0465 0.026 0.0307 -0.0144 0.025 -0.0162
C3D 0.0216 0.0171 0.013 -0.0007 0.0076 0.0015
C7D 0.0246 0.0186 0.016 -0.0024 0.0126 -0.0016
C8D 0.0269 0.0199 0.018 -0.0036 0.0148 -0.0033
Zn1D 0.01416 0.01213 0.00954 0 0.00417 0
Zn1F 0.01416 0.01213 0.00954 0 0.00417 0
O1A 0.0235 0.0176 0.0145 0.0015 0.0105 -0.0005
N1A 0.0152 0.0142 0.013 0.0015 0.0049 -0.0007
O3 0.0493(8) 0.0341(7) 0.0403(7) 0.0066(6) 0.0200(6) 0.0082(6)
O4 0.0387(7) 0.0369(7) 0.0502(7) 0.0021(6) 0.0232(6) -0.0049(5)
loop_
_geom_bond_atom_site_label_1
_geom_bond_atom_site_label_2
_geom_bond_site_symmetry_1
_geom_bond_site_symmetry_2
Zn1 O1 1_555 1_555
C1 H1 1_555 1_555
O1 C3 1_555 1_555
O2 C3 1_555 1_555
C2 H2 1_555 1_555
N1 Zn1 1_555 1_555
C3 C8 1_555 1_555
C4 C1 1_555 1_555
C5 C2 1_555 1_555
H3 C5 1_555 1_555
C6 C1 1_555 1_555
H4 C6 1_555 1_555
C7 C8 1_555 1_555
C8 H5 1_555 1_555
C9 C4 1_555 1_555
H6 C9 1_555 1_555
H7 C7 1_555 1_555
O3 H8 1_555 1_555
H9 O3 1_555 1_555
O4 H10 1_555 1_555
H11 O4 1_555 1_555
C1F H1F 1_555 1_555
C2F H2F 1_555 1_555
N1F C2F 1_555 1_555
C4F C1F 1_555 1_555
C5F C2F 1_555 1_555
H3F C5F 1_555 1_555
C6F C1F 1_555 1_555
H4F C6F 1_555 1_555
C9F C9 1_555 1_555
H6F C9F 1_555 1_555
O1D C3D 1_555 1_555
O2D C3D 1_555 1_555
C3D C8D 1_555 1_555
C7D C7 1_555 1_555
C8D C7D 1_555 1_555
H5D C8D 1_555 1_555
H7D C7D 1_555 1_555
Zn1D O1D 1_555 1_555
Zn1F N1F 1_555 1_555
O1A Zn1 1_555 1_555
N1A Zn1 1_555 1_555
C2 N1 1_555 1_555
N1 C6 1_555 1_555
C4 C5 1_555 1_555
N1F C6F 1_555 1_555
C4F C5F 1_555 1_555
C4F C9F 1_555 1_555

#END
