
#######################################################################
#
#                 Cambridge Crystallographic Data Centre
#                                CCDC 
#
#######################################################################
#
# If this CIF has been generated from an entry in the Cambridge 
# Structural Database, then it will include bibliographic, chemical, 
# crystal, experimental, refinement or atomic coordinate data resulting 
# from the CCDC's data processing and validation procedures.
#
#######################################################################

data_ERAMUH
_chemical_formula_moiety         'C110 H68 O54 Zr16'
_symmetry_cell_setting           tetragonal
_symmetry_space_group_name_H-M   'P 42/m m c'
_symmetry_Int_Tables_number      131
_space_group_name_Hall           '-P 4c 2'
loop_
_symmetry_equiv_pos_site_id
_symmetry_equiv_pos_as_xyz
1 x,y,z
2 -y,x,1/2+z
3 -x,-y,z
4 y,-x,1/2+z
5 x,-y,-z
6 -x,y,-z
7 y,x,1/2-z
8 -y,-x,1/2-z
9 -x,-y,-z
10 y,-x,1/2-z
11 x,y,-z
12 -y,x,1/2-z
13 -x,y,z
14 x,-y,z
15 -y,-x,1/2+z
16 y,x,1/2+z
_cell_length_a                   23.679(8)
_cell_length_b                   23.679
_cell_length_c                   16.816(6)
_cell_angle_alpha                90
_cell_angle_beta                 90
_cell_angle_gamma                90
_cell_volume                     9428.65
loop_
_atom_site_label
_atom_site_type_symbol
_atom_site_fract_x
_atom_site_fract_y
_atom_site_fract_z
Zr1 Zr 1.0000 0.42651(2) 0.60484(3)
Zr2 Zr 0.89626(2) 0.5000 0.5000
O1 O 0.94965(18) 0.4254(2) 0.5000
O2 O 0.94876(16) 0.5000 0.6019(3)
O3 O 0.84902(10) 0.44324(10) 0.57914(15)
O4 O 0.91613(11) 0.39730(13) 0.64920(19)
O5 O 1.0000 0.33391(18) 0.5980(3)
C1 C 0.86588(15) 0.40727(17) 0.6295(2)
C2 C 0.82152(16) 0.37037(19) 0.6673(3)
C3 C 0.76711(19) 0.3717(2) 0.6402(3)
H1 H 0.7572 0.3970 0.5986
C4 C 0.7263(2) 0.3369(2) 0.6726(4)
C5 C 0.7418(2) 0.2999(2) 0.7326(4)
C6 C 0.7958(2) 0.2991(3) 0.7607(4)
H2 H 0.8057 0.2751 0.8038
C7 C 0.8366(2) 0.3339(2) 0.7253(4)
H3 H 0.8748 0.3318 0.7421
C8 C 0.6671(3) 0.3361(5) 0.6368(7)
H4 H 0.6645 0.3647 0.5948
H5 H 0.6393 0.3444 0.6784
H6 H 0.6595 0.2987 0.6142
C9 C 1.0000 0.5000 0.7668(3)
C10 C 1.0000 0.4901(2) 0.8554(3)
C11 C 1.0000 0.4378(2) 0.8931(3)
H7 H 1.0000 0.4029 0.8641
C12 C 1.0000 0.4349(2) 0.9756(3)
H8 H 1.0000 0.3996 0.9999
C13 C 1.0000 0.4841(3) 1.0205(3)
C14 C 1.0000 0.5364(3) 0.9829(3)
C15 C 1.0000 0.5394(2) 0.9003(3)
H9 H 1.0000 0.5747 0.8722
C16 C 1.0000 0.4812(4) 1.1031(3)
H10 H 1.0000 0.4459 1.1312
C17 C 1.0000 0.5304(4) 1.1480(3)
C18 C 1.0000 0.5827(4) 1.1104(4)
H11 H 1.0000 0.6177 1.1393
C19 C 1.0000 0.5857(3) 1.0278(4)
H12 H 1.0000 0.6210 1.0000
C20 C 1.0000 0.5202(5) 1.2366(3)
O6 O 1.0000 0.4564(2) 0.7213(3)
O7 O 1.0000 0.5632(7) 1.2830(5)
O8 O 1.0000 0.4692(6) 1.2622(5)
O3G O 0.55676(10) 0.15098(10) 0.92086(15)
O4G O 0.60270(13) 0.08387(11) 0.85080(19)
C1G C 0.59273(17) 0.13412(15) 0.8705(2)
C2G C 0.62963(19) 0.17848(16) 0.8327(3)
C3G C 0.6283(2) 0.23289(19) 0.8598(3)
H1G H 0.6030 0.2428 0.9014
C4G C 0.6631(2) 0.2737(2) 0.8274(4)
C5G C 0.7001(2) 0.2582(2) 0.7674(4)
C6G C 0.7009(3) 0.2042(2) 0.7393(4)
H2G H 0.7249 0.1943 0.6962
C7G C 0.6661(2) 0.1634(2) 0.7747(4)
H3G H 0.6682 0.1252 0.7579
C8G C 0.6639(5) 0.3329(3) 0.8632(7)
H4G H 0.6353 0.3355 0.9052
H5G H 0.6556 0.3607 0.8216
H6G H 0.7013 0.3405 0.8858
C10B C 1.0000 0.5099(2) 0.8554(3)
C11B C 1.0000 0.5622(2) 0.8931(3)
H7B H 1.0000 0.5971 0.8641
C12B C 1.0000 0.5651(2) 0.9756(3)
H8B H 1.0000 0.6004 0.9999
C13B C 1.0000 0.5159(3) 1.0205(3)
C14B C 1.0000 0.4636(3) 0.9829(3)
C15B C 1.0000 0.4606(2) 0.9003(3)
H9B H 1.0000 0.4253 0.8722
C16B C 1.0000 0.5188(4) 1.1031(3)
H10B H 1.0000 0.5541 1.1312
C17B C 1.0000 0.4696(4) 1.1480(3)
C18B C 1.0000 0.4173(4) 1.1104(4)
H11B H 1.0000 0.3823 1.1393
C19B C 1.0000 0.4143(3) 1.0278(4)
H12B H 1.0000 0.3790 1.0000
C20B C 1.0000 0.4798(5) 1.2366(3)
O6B O 1.0000 0.5436(2) 0.7213(3)
O7B O 1.0000 0.4368(7) 1.2830(5)
O8B O 1.0000 0.5308(6) 1.2622(5)
C9D C 1.0000 0.5000 1.2332(3)
C10D C 1.0000 0.5099(2) 1.1446(3)
C11D C 1.0000 0.5622(2) 1.1069(3)
H7D H 1.0000 0.5971 1.1359
C12D C 1.0000 0.5651(2) 1.0244(3)
C13D C 1.0000 0.5159(3) 0.9795(3)
C14D C 1.0000 0.4636(3) 1.0171(3)
C15D C 1.0000 0.4606(2) 1.0997(3)
H9D H 1.0000 0.4253 1.1278
C16D C 1.0000 0.5188(4) 0.8969(3)
H10D H 1.0000 0.5541 0.8688
C17D C 1.0000 0.4696(4) 0.8520(3)
C18D C 1.0000 0.4173(4) 0.8896(4)
H11D H 1.0000 0.3823 0.8607
C19D C 1.0000 0.4143(3) 0.9722(4)
C20D C 1.0000 0.4798(5) 0.7634(3)
O6D O 1.0000 0.5436(2) 1.2787(3)
O7D O 1.0000 0.4368(7) 0.7170(5)
O8D O 1.0000 0.5308(6) 0.7378(5)
C10E C 1.0000 0.4901(2) 1.1446(3)
C11E C 1.0000 0.4378(2) 1.1069(3)
H7E H 1.0000 0.4029 1.1359
C12E C 1.0000 0.4349(2) 1.0244(3)
C13E C 1.0000 0.4841(3) 0.9795(3)
C14E C 1.0000 0.5364(3) 1.0171(3)
C15E C 1.0000 0.5394(2) 1.0997(3)
H9E H 1.0000 0.5747 1.1278
C16E C 1.0000 0.4812(4) 0.8969(3)
H10E H 1.0000 0.4459 0.8688
C17E C 1.0000 0.5304(4) 0.8520(3)
C18E C 1.0000 0.5827(4) 0.8896(4)
H11E H 1.0000 0.6177 0.8607
C19E C 1.0000 0.5857(3) 0.9722(4)
C20E C 1.0000 0.5202(5) 0.7634(3)
O6E O 1.0000 0.4564(2) 1.2787(3)
O7E O 1.0000 0.5632(7) 0.7170(5)
O8E O 1.0000 0.4692(6) 0.7378(5)
Zr1B Zr 1.0000 0.57349(2) 0.60484(3)
Zr2B Zr 1.10374(2) 0.5000 0.5000
O1B O 1.05035(18) 0.5746(2) 0.5000
O2B O 1.05124(16) 0.5000 0.6019(3)
O3B O 1.15098(10) 0.55676(10) 0.57914(15)
O4B O 1.08387(11) 0.60270(13) 0.64920(19)
O5B O 1.0000 0.66609(18) 0.5980(3)
C1B C 1.13412(15) 0.59273(17) 0.6295(2)
C2B C 1.17848(16) 0.62963(19) 0.6673(3)
C3B C 1.23289(19) 0.6283(2) 0.6402(3)
H1B H 1.2428 0.6030 0.5986
C4B C 1.2737(2) 0.6631(2) 0.6726(4)
C5B C 1.2582(2) 0.7001(2) 0.7326(4)
C6B C 1.2042(2) 0.7009(3) 0.7607(4)
H2B H 1.1943 0.7249 0.8038
C7B C 1.1634(2) 0.6661(2) 0.7253(4)
H3B H 1.1252 0.6682 0.7421
C8B C 1.3329(3) 0.6639(5) 0.6368(7)
H4B H 1.3355 0.6353 0.5948
H5B H 1.3607 0.6556 0.6784
H6B H 1.3405 0.7013 0.6142
O3F O 1.44324(10) 0.84902(10) 0.92086(15)
O4F O 1.39730(13) 0.91613(11) 0.85080(19)
C1F C 1.40727(17) 0.86588(15) 0.8705(2)
C2F C 1.37037(19) 0.82152(16) 0.8327(3)
C3F C 1.3717(2) 0.76711(19) 0.8598(3)
H1F H 1.3970 0.7572 0.9014
C4F C 1.3369(2) 0.7263(2) 0.8274(4)
C5F C 1.2999(2) 0.7418(2) 0.7674(4)
C6F C 1.2991(3) 0.7958(2) 0.7393(4)
H2F H 1.2751 0.8057 0.6962
C7F C 1.3339(2) 0.8366(2) 0.7747(4)
H3F H 1.3318 0.8748 0.7579
C8F C 1.3361(5) 0.6671(3) 0.8632(7)
H4F H 1.3647 0.6645 0.9052
H5F H 1.3444 0.6393 0.8216
H6F H 1.2987 0.6595 0.8858
Zr1D Zr 1.0000 0.57349(2) 0.39516(3)
O1D O 0.94965(18) 0.5746(2) 0.5000
O2D O 0.94876(16) 0.5000 0.3981(3)
O5D O 1.0000 0.66609(18) 0.4020(3)
Zr1E Zr 1.0000 0.42651(2) 0.39516(3)
O1E O 1.05035(18) 0.4254(2) 0.5000
O2E O 1.05124(16) 0.5000 0.3981(3)
O5E O 1.0000 0.33391(18) 0.4020(3)
O3L O 1.15098(10) 0.44324(10) 0.57914(15)
O4L O 1.08387(11) 0.39730(13) 0.64920(19)
C1L C 1.13412(15) 0.40727(17) 0.6295(2)
C2L C 1.17848(16) 0.37037(19) 0.6673(3)
C3L C 1.23289(19) 0.3717(2) 0.6402(3)
H1L H 1.2428 0.3970 0.5986
C4L C 1.2737(2) 0.3369(2) 0.6726(4)
C5L C 1.2582(2) 0.2999(2) 0.7326(4)
C6L C 1.2042(2) 0.2991(3) 0.7607(4)
H2L H 1.1943 0.2751 0.8038
C7L C 1.1634(2) 0.3339(2) 0.7253(4)
H3L H 1.1252 0.3318 0.7421
C8L C 1.3329(3) 0.3361(5) 0.6368(7)
H4L H 1.3355 0.3647 0.5948
H5L H 1.3607 0.3444 0.6784
H6L H 1.3405 0.2987 0.6142
O3I O 1.44324(10) 0.15098(10) 0.92086(15)
O4I O 1.39730(13) 0.08387(11) 0.85080(19)
C1I C 1.40727(17) 0.13412(15) 0.8705(2)
C2I C 1.37037(19) 0.17848(16) 0.8327(3)
C3I C 1.3717(2) 0.23289(19) 0.8598(3)
H1I H 1.3970 0.2428 0.9014
C4I C 1.3369(2) 0.2737(2) 0.8274(4)
C5I C 1.2999(2) 0.2582(2) 0.7674(4)
C6I C 1.2991(3) 0.2042(2) 0.7393(4)
H2I H 1.2751 0.1943 0.6962
C7I C 1.3339(2) 0.1634(2) 0.7747(4)
H3I H 1.3318 0.1252 0.7579
C8I C 1.3361(5) 0.3329(3) 0.8632(7)
H4I H 1.3647 0.3355 0.9052
H5I H 1.3444 0.3607 0.8216
H6I H 1.2987 0.3405 0.8858
O3M O 0.84902(10) 0.55676(10) 0.57914(15)
O4M O 0.91613(11) 0.60270(13) 0.64920(19)
C1M C 0.86588(15) 0.59273(17) 0.6295(2)
C2M C 0.82152(16) 0.62963(19) 0.6673(3)
C3M C 0.76711(19) 0.6283(2) 0.6402(3)
H1M H 0.7572 0.6030 0.5986
C4M C 0.7263(2) 0.6631(2) 0.6726(4)
C5M C 0.7418(2) 0.7001(2) 0.7326(4)
C6M C 0.7958(2) 0.7009(3) 0.7607(4)
H2M H 0.8057 0.7249 0.8038
C7M C 0.8366(2) 0.6661(2) 0.7253(4)
H3M H 0.8748 0.6682 0.7421
C8M C 0.6671(3) 0.6639(5) 0.6368(7)
H4M H 0.6645 0.6353 0.5948
H5M H 0.6393 0.6556 0.6784
H6M H 0.6595 0.7013 0.6142
O3K O 0.55676(10) 0.84902(10) 0.92086(15)
O4K O 0.60270(13) 0.91613(11) 0.85080(19)
C1K C 0.59273(17) 0.86588(15) 0.8705(2)
C2K C 0.62963(19) 0.82152(16) 0.8327(3)
C3K C 0.6283(2) 0.76711(19) 0.8598(3)
H1K H 0.6030 0.7572 0.9014
C4K C 0.6631(2) 0.7263(2) 0.8274(4)
C5K C 0.7001(2) 0.7418(2) 0.7674(4)
C6K C 0.7009(3) 0.7958(2) 0.7393(4)
H2K H 0.7249 0.8057 0.6962
C7K C 0.6661(2) 0.8366(2) 0.7747(4)
H3K H 0.6682 0.8748 0.7579
C8K C 0.6639(5) 0.6671(3) 0.8632(7)
H4K H 0.6353 0.6645 0.9052
H5K H 0.6556 0.6393 0.8216
H6K H 0.7013 0.6595 0.8858
Zr1D_2 Zr 1.0000 0.57349(2) 1.39516(3)
Zr1E_2 Zr 1.0000 0.42651(2) 1.39516(3)
Zr1F Zr 1.42651(2) 0.0000 0.89516(3)
Zr1F_2 Zr 1.42651(2) 1.0000 0.89516(3)
Zr1G Zr 0.57349(2) 0.0000 0.89516(3)
Zr1G_2 Zr 0.57349(2) 1.0000 0.89516(3)
Zr2A Zr 0.5000 0.89626(2) 1.0000
Zr2A_2 Zr 1.5000 0.89626(2) 1.0000
Zr2C Zr 0.5000 0.10374(2) 1.0000
Zr2C_2 Zr 1.5000 0.10374(2) 1.0000
O3D O 0.84902(10) 0.55676(10) 0.42086(15)
O3E O 1.15098(10) 0.44324(10) 0.42086(15)
O3H O 1.15098(10) 0.55676(10) 0.42086(15)
O3J O 0.84902(10) 0.44324(10) 0.42086(15)
O4D O 0.91613(11) 0.60270(13) 0.35080(19)
O4E O 1.08387(11) 0.39730(13) 0.35080(19)
O4H O 1.08387(11) 0.60270(13) 0.35080(19)
O4J O 0.91613(11) 0.39730(13) 0.35080(19)
O6D_2 O 1.0000 0.5436(2) 0.2787(3)
O6E_2 O 1.0000 0.4564(2) 0.2787(3)
O7_2 O 1.0000 0.5632(7) 0.2830(5)
O7B_2 O 1.0000 0.4368(7) 0.2830(5)
O8_2 O 1.0000 0.4692(6) 0.2622(5)
O8B_2 O 1.0000 0.5308(6) 0.2622(5)
loop_
_geom_bond_atom_site_label_1
_geom_bond_atom_site_label_2
_geom_bond_site_symmetry_1
_geom_bond_site_symmetry_2
Zr1 O1 1_555 1_555
Zr2 O1 1_555 1_555
O1 Zr1E 1_555 1_555
O2 Zr1 1_555 1_555
O3 Zr2 1_555 1_555
O4 Zr1 1_555 1_555
O5 Zr1 1_555 1_555
C1 O3 1_555 1_555
C2 C1 1_555 1_555
C3 C2 1_555 1_555
H1 C3 1_555 1_555
C4 C3 1_555 1_555
C5 C4 1_555 1_555
C6 C5 1_555 1_555
H2 C6 1_555 1_555
C7 C2 1_555 1_555
H3 C7 1_555 1_555
C8 C4 1_555 1_555
H4 C8 1_555 1_555
H5 C8 1_555 1_555
H6 C8 1_555 1_555
C9 C10 1_555 1_555
C10 C11 1_555 1_555
C11 H7 1_555 1_555
C12 C11 1_555 1_555
H8 C12 1_555 1_555
C13 C19B 1_555 1_555
C14 C15 1_555 1_555
C15 H9 1_555 1_555
H9 C17E 1_555 1_555
C16 H10 1_555 1_555
H10 C17B 1_555 1_555
C17 C18 1_555 1_555
C18 H11 1_555 1_555
C19 C18 1_555 1_555
H12 C19 1_555 1_555
C20 C17 1_555 1_555
O6 Zr1 1_555 1_555
O7 C20 1_555 1_555
O8 C20 1_555 1_555
O3G C1G 1_555 1_555
O4G C1G 1_555 1_555
C1G C2G 1_555 1_555
C2G C3G 1_555 1_555
C3G H1G 1_555 1_555
C4G C3G 1_555 1_555
C5G C5 1_555 1_555
C6G C5G 1_555 1_555
H2G C6G 1_555 1_555
C7G C2G 1_555 1_555
H3G C7G 1_555 1_555
C8G C4G 1_555 1_555
H4G C8G 1_555 1_555
H5G C8G 1_555 1_555
H6G C8G 1_555 1_555
C10B C9 1_555 1_555
C11B C15 1_555 1_555
H7B C11B 1_555 1_555
C12B C15 1_555 1_555
H8B C19 1_555 1_555
C13B C19 1_555 1_555
C14B C14 1_555 1_555
C15B C11 1_555 1_555
H9B C15B 1_555 1_555
C16B C16 1_555 1_555
H10B C17 1_555 1_555
C17B C17 1_555 1_555
C18B C16 1_555 1_555
H11B C18B 1_555 1_555
C19B C12 1_555 1_555
H12B C19B 1_555 1_555
C20B C20 1_555 1_555
O6B C9 1_555 1_555
O7B C20B 1_555 1_555
O8B C20B 1_555 1_555
C9D C17 1_555 1_555
C10D C16 1_555 1_555
C11D C17 1_555 1_555
H7D C11D 1_555 1_555
C12D C18 1_555 1_555
C13D C15 1_555 1_555
C14D C16 1_555 1_555
C15D C13 1_555 1_555
H9D C17B 1_555 1_555
C16D C10 1_555 1_555
H10D C15 1_555 1_555
C17D C9 1_555 1_555
C18D C12 1_555 1_555
H11D C18D 1_555 1_555
C19D C11 1_555 1_555
C20D O6 1_555 1_555
O6D C20 1_555 1_555
O7D Zr1 1_555 1_555
O8D C9 1_555 1_555
C10E C16 1_555 1_555
C11E C16 1_555 1_555
H7E C11E 1_555 1_555
C12E C12 1_555 1_555
C13E C15B 1_555 1_555
C14E C14 1_555 1_555
C15E C16 1_555 1_555
H9E C17 1_555 1_555
C16E C10 1_555 1_555
H10E C10 1_555 1_555
C17E C9 1_555 1_555
C18E C15 1_555 1_555
H11E C18E 1_555 1_555
C19E C19 1_555 1_555
C20E O6 1_555 1_555
O6E C20 1_555 1_555
O7E C9 1_555 1_555
O8E Zr1 1_555 1_555
Zr1B O2 1_555 1_555
Zr2B O1B 1_555 1_555
O1B Zr1B 1_555 1_555
O2B Zr1 1_555 1_555
O3B Zr2B 1_555 1_555
O4B Zr1B 1_555 1_555
O5B Zr1B 1_555 1_555
C1B O3B 1_555 1_555
C2B C1B 1_555 1_555
C3B C2B 1_555 1_555
H1B C3B 1_555 1_555
C4B C3B 1_555 1_555
C5B C4B 1_555 1_555
C6B C5B 1_555 1_555
H2B C6B 1_555 1_555
C7B C2B 1_555 1_555
H3B C7B 1_555 1_555
C8B C4B 1_555 1_555
H4B C8B 1_555 1_555
H5B C8B 1_555 1_555
H6B C8B 1_555 1_555
O3F C1F 1_555 1_555
O4F C1F 1_555 1_555
C1F C2F 1_555 1_555
C2F C3F 1_555 1_555
C3F H1F 1_555 1_555
C4F C3F 1_555 1_555
C5F C5B 1_555 1_555
C6F C5F 1_555 1_555
H2F C6F 1_555 1_555
C7F C2F 1_555 1_555
H3F C7F 1_555 1_555
C8F C4F 1_555 1_555
H4F C8F 1_555 1_555
H5F C8F 1_555 1_555
H6F C8F 1_555 1_555
Zr1D O1B 1_555 1_555
O1D Zr2 1_555 1_555
O2D Zr2 1_555 1_555
O5D Zr1D 1_555 1_555
Zr1E O2D 1_555 1_555
O1E Zr1 1_555 1_555
O2E Zr2B 1_555 1_555
O5E Zr1E 1_555 1_555
O3L Zr2B 1_555 1_555
O4L Zr1 1_555 1_555
C1L O3L 1_555 1_555
C2L C1L 1_555 1_555
C3L C2L 1_555 1_555
H1L C3L 1_555 1_555
C4L C3L 1_555 1_555
C5L C4L 1_555 1_555
C6L C5L 1_555 1_555
H2L C6L 1_555 1_555
C7L C2L 1_555 1_555
H3L C7L 1_555 1_555
C8L C4L 1_555 1_555
H4L C8L 1_555 1_555
H5L C8L 1_555 1_555
H6L C8L 1_555 1_555
O3I C1I 1_555 1_555
O4I C1I 1_555 1_555
C1I C2I 1_555 1_555
C2I C3I 1_555 1_555
C3I H1I 1_555 1_555
C4I C3I 1_555 1_555
C5I C5L 1_555 1_555
C6I C5I 1_555 1_555
H2I C6I 1_555 1_555
C7I C2I 1_555 1_555
H3I C7I 1_555 1_555
C8I C4I 1_555 1_555
H4I C8I 1_555 1_555
H5I C8I 1_555 1_555
H6I C8I 1_555 1_555
O3M Zr2 1_555 1_555
O4M Zr1B 1_555 1_555
C1M O3M 1_555 1_555
C2M C1M 1_555 1_555
C3M C2M 1_555 1_555
H1M C3M 1_555 1_555
C4M C3M 1_555 1_555
C5M C4M 1_555 1_555
C6M C5M 1_555 1_555
H2M C6M 1_555 1_555
C7M C2M 1_555 1_555
H3M C7M 1_555 1_555
C8M C4M 1_555 1_555
H4M C8M 1_555 1_555
H5M C8M 1_555 1_555
H6M C8M 1_555 1_555
O3K C1K 1_555 1_555
O4K C1K 1_555 1_555
C1K C2K 1_555 1_555
C2K C3K 1_555 1_555
C3K H1K 1_555 1_555
C4K C3K 1_555 1_555
C5K C5M 1_555 1_555
C6K C5K 1_555 1_555
H2K C6K 1_555 1_555
C7K C2K 1_555 1_555
H3K C7K 1_555 1_555
C8K C4K 1_555 1_555
H4K C8K 1_555 1_555
H5K C8K 1_555 1_555
H6K C8K 1_555 1_555
Zr1D_2 O7 1_555 1_555
Zr1E_2 O8 1_555 1_555
Zr1F O4I 1_555 1_555
Zr1F_2 O4F 1_555 1_555
Zr1G O4G 1_555 1_555
Zr1G_2 O4K 1_555 1_555
Zr2A O3K 1_555 1_555
Zr2A_2 O3F 1_555 1_555
Zr2C O3G 1_555 1_555
Zr2C_2 O3I 1_555 1_555
O3D Zr2 1_555 1_555
O3E Zr2B 1_555 1_555
O3H Zr2B 1_555 1_555
O3J Zr2 1_555 1_555
O4D Zr1D 1_555 1_555
O4E Zr1E 1_555 1_555
O4H Zr1D 1_555 1_555
O4J Zr1E 1_555 1_555
O6D_2 Zr1D 1_555 1_555
O6E_2 Zr1E 1_555 1_555
O7_2 Zr1D 1_555 1_555
O7B_2 Zr1E 1_555 1_555
O8_2 Zr1E 1_555 1_555
O8B_2 Zr1D 1_555 1_555
Zr2 O2 1_555 1_555
O4 C1 1_555 1_555
C6 C7 1_555 1_555
C9 O6 1_555 1_555
C9 O7D 1_555 1_555
C9 O8E 1_555 1_555
C10 C17E 1_555 1_555
C11 C17D 1_555 1_555
C11 C16E 1_555 1_555
C12 C15B 1_555 1_555
H8 C19B 1_555 1_555
H8 C19D 1_555 1_555
H8 C12E 1_555 1_555
C14 C16D 1_555 1_555
C15 C16E 1_555 1_555
C15 C17E 1_555 1_555
H10 C18B 1_555 1_555
H10 C15D 1_555 1_555
H10 C10E 1_555 1_555
C17 C10E 1_555 1_555
C17 C15E 1_555 1_555
C18 C16B 1_555 1_555
C18 H10B 1_555 1_555
C18 C15E 1_555 1_555
C19 C12B 1_555 1_555
C19 C11D 1_555 1_555
H12 C19E 1_555 1_555
O7 C9D 1_555 1_555
O8 C9D 1_555 1_555
C4G C5G 1_555 1_555
C6G C7G 1_555 1_555
C10B C11B 1_555 1_555
C10B C16D 1_555 1_555
C10B H10D 1_555 1_555
C10B C17D 1_555 1_555
C10B C16E 1_555 1_555
C11B C12B 1_555 1_555
C11B C16D 1_555 1_555
C11B C17E 1_555 1_555
C11B C19E 1_555 1_555
C12B H8B 1_555 1_555
C12B C12D 1_555 1_555
C12B C18E 1_555 1_555
H8B C12D 1_555 1_555
H8B C19E 1_555 1_555
C13B C15E 1_555 1_555
C14B C15B 1_555 1_555
C14B C14D 1_555 1_555
C14B C16E 1_555 1_555
C15B C16D 1_555 1_555
C15B C17D 1_555 1_555
C15B C18D 1_555 1_555
C15B H10E 1_555 1_555
H9B C17D 1_555 1_555
C16B H10B 1_555 1_555
C16B C10D 1_555 1_555
C16B C11D 1_555 1_555
C16B C15D 1_555 1_555
C16B C10E 1_555 1_555
C16B C14E 1_555 1_555
H10B C10D 1_555 1_555
H10B C15E 1_555 1_555
C17B C18B 1_555 1_555
C17B C20B 1_555 1_555
C17B C9D 1_555 1_555
C17B C10D 1_555 1_555
C17B C15D 1_555 1_555
C17B C11E 1_555 1_555
C18B C19B 1_555 1_555
C18B C15D 1_555 1_555
C18B C12E 1_555 1_555
C19B C19D 1_555 1_555
C19B C11E 1_555 1_555
H12B C19D 1_555 1_555
C20B O6D 1_555 1_555
C20B O6E 1_555 1_555
O6B C20D 1_555 1_555
O6B C20E 1_555 1_555
O6B Zr1B 1_555 1_555
O7B C9D 1_555 1_555
O7B Zr1E_2 1_555 1_555
O8B C9D 1_555 1_555
O8B Zr1D_2 1_555 1_555
C9D C10D 1_555 1_555
C9D O6D 1_555 1_555
C9D C10E 1_555 1_555
C9D O6E 1_555 1_555
C10D C11D 1_555 1_555
C11D C12D 1_555 1_555
C11D C15E 1_555 1_555
C12D C15E 1_555 1_555
C12D C19E 1_555 1_555
C13D C19E 1_555 1_555
C14D C15D 1_555 1_555
C14D C14E 1_555 1_555
C15D H9D 1_555 1_555
C15D C11E 1_555 1_555
C15D C12E 1_555 1_555
C16D H10D 1_555 1_555
C16D C16E 1_555 1_555
C16D C18E 1_555 1_555
H10D C17E 1_555 1_555
H10D C18E 1_555 1_555
C17D C18D 1_555 1_555
C17D C20D 1_555 1_555
C17D H10E 1_555 1_555
C17D C17E 1_555 1_555
C18D C19D 1_555 1_555
C18D C16E 1_555 1_555
C18D H10E 1_555 1_555
C19D C12E 1_555 1_555
C19D C13E 1_555 1_555
C20D O7D 1_555 1_555
C20D O8D 1_555 1_555
C20D C20E 1_555 1_555
O6D Zr1D_2 1_555 1_555
O8D Zr1B 1_555 1_555
C10E C11E 1_555 1_555
C11E C12E 1_555 1_555
C14E C15E 1_555 1_555
C15E H9E 1_555 1_555
C16E H10E 1_555 1_555
C17E C18E 1_555 1_555
C17E C20E 1_555 1_555
C18E C19E 1_555 1_555
C20E O7E 1_555 1_555
C20E O8E 1_555 1_555
O6E Zr1E_2 1_555 1_555
O7E Zr1B 1_555 1_555
Zr1B O2B 1_555 1_555
Zr1B O1D 1_555 1_555
Zr2B O2B 1_555 1_555
Zr2B O1E 1_555 1_555
O4B C1B 1_555 1_555
C6B C7B 1_555 1_555
C4F C5F 1_555 1_555
C6F C7F 1_555 1_555
Zr1D O1D 1_555 1_555
Zr1D O2D 1_555 1_555
Zr1D O2E 1_555 1_555
Zr1E O1E 1_555 1_555
Zr1E O2E 1_555 1_555
O4L C1L 1_555 1_555
C6L C7L 1_555 1_555
C4I C5I 1_555 1_555
C6I C7I 1_555 1_555
O4M C1M 1_555 1_555
C6M C7M 1_555 1_555
C4K C5K 1_555 1_555
C6K C7K 1_555 1_555

#END
