
#######################################################################
#
#                 Cambridge Crystallographic Data Centre
#                                CCDC 
#
#######################################################################
#
# If this CIF has been generated from an entry in the Cambridge 
# Structural Database, then it will include bibliographic, chemical, 
# crystal, experimental, refinement or atomic coordinate data resulting 
# from the CCDC's data processing and validation procedures.
#
#######################################################################

data_ERAMAN
_chemical_formula_moiety         '(C28 H16 N8 O32 Zr3)n'
_symmetry_cell_setting           tetragonal
_symmetry_space_group_name_H-M   'P 42/m m c'
_symmetry_Int_Tables_number      131
_space_group_name_Hall           '-P 4c 2'
loop_
_symmetry_equiv_pos_site_id
_symmetry_equiv_pos_as_xyz
1 x,y,z
2 -y,x,1/2+z
3 -x,-y,z
4 y,-x,1/2+z
5 x,-y,-z
6 -x,y,-z
7 y,x,1/2-z
8 -y,-x,1/2-z
9 -x,-y,-z
10 y,-x,1/2-z
11 x,y,-z
12 -y,x,1/2-z
13 -x,y,z
14 x,-y,z
15 -y,-x,1/2+z
16 y,x,1/2+z
_cell_length_a                   23.024(2)
_cell_length_b                   23.024(2)
_cell_length_c                   18.6484(19)
_cell_angle_alpha                90
_cell_angle_beta                 90
_cell_angle_gamma                90
_cell_volume                     9885.6
loop_
_atom_site_label
_atom_site_type_symbol
_atom_site_fract_x
_atom_site_fract_y
_atom_site_fract_z
Zr1 Zr 0.5000 0.10670(5) 0.0000
O1 O 0.5000 0.0520(3) 0.0920(5)
O2 O 0.4225(4) 0.0530(4) 0.0000
O3 O 0.4425(2) 0.1573(2) 0.0689(3)
Zr2 Zr 0.42387(6) -0.0000 0.09248(7)
C1 C 0.4048(5) 0.1393(3) 0.1130(6)
O4 O 0.3942(4) 0.0877(2) 0.1294(4)
O5 O 0.4282(7) -0.0000 0.2075(6)
O6 O 0.3273(5) -0.0000 0.0853(9)
C2 C 0.3729(3) 0.1839(2) 0.1558(4)
C3 C 0.3716(2) 0.2418(2) 0.1349(3)
C4 C 0.3409(3) 0.16568(17) 0.2148(4)
H1 H 0.3935 0.2543 0.0946
C5 C 0.3384(2) 0.28158(17) 0.1732(3)
C6 C 0.3076(2) 0.2054(2) 0.2531(3)
H2 H 0.3417 0.1261 0.2291
C7 C 0.3063(2) 0.2634(2) 0.2322(3)
N1 N 0.3414(4) 0.3411(3) 0.1447(4)
N2 N 0.2759(4) 0.1798(4) 0.3146(5)
O7 O 0.3875(6) 0.3604(7) 0.1233(14)
O8 O 0.2941(6) 0.3676(7) 0.1450(15)
O9 O 0.3008(7) 0.1445(9) 0.3524(10)
O10 O 0.2251(5) 0.1967(10) 0.3230(11)
O3L O 0.5575(2) 0.1573(2) 0.0689(3)
O1E O 0.5000 0.0520(3) -0.0920(5)
O2E O 0.5775(4) 0.0530(4) 0.0000
O3E O 0.5575(2) 0.1573(2) -0.0689(3)
O3J O 0.4425(2) 0.1573(2) -0.0689(3)
Zr2B Zr 0.57613(6) -0.0000 0.09248(7)
Zr2D Zr 0.42387(6) 0.0000 -0.09248(7)
C1L C 0.5952(5) 0.1393(3) 0.1130(6)
Zr2E Zr 0.57613(6) 0.0000 -0.09248(7)
O1B O 0.5000 -0.0520(3) 0.0920(5)
O2D O 0.4225(4) -0.0530(4) 0.0000
O4M O 0.3942(4) -0.0877(2) 0.1294(4)
O2B O 0.5775(4) -0.0530(4) 0.0000
O5B O 0.5718(7) -0.0000 0.2075(6)
O6B O 0.6727(5) -0.0000 0.0853(9)
O4L O 0.6058(4) 0.0877(2) 0.1294(4)
O4B O 0.6058(4) -0.0877(2) 0.1294(4)
C2L C 0.6271(3) 0.1839(2) 0.1558(4)
Zr1B Zr 0.5000 -0.10670(5) 0.0000
C3L C 0.6284(2) 0.2418(2) 0.1349(3)
C4L C 0.6591(3) 0.16568(17) 0.2148(4)
H1L H 0.6065 0.2543 0.0946
C5L C 0.6616(2) 0.28158(17) 0.1732(3)
C6L C 0.6924(2) 0.2054(2) 0.2531(3)
H2L H 0.6583 0.1261 0.2291
C7L C 0.6937(2) 0.2634(2) 0.2322(3)
N1L N 0.6586(4) 0.3411(3) 0.1447(4)
N2L N 0.7241(4) 0.1798(4) 0.3146(5)
C7F C 0.2634(2) 0.3063(2) 0.2678(3)
C7K C 0.7366(2) 0.3063(2) 0.2678(3)
O7L O 0.6125(6) 0.3604(7) 0.1233(14)
O8L O 0.7059(6) 0.3676(7) 0.1450(15)
O9L O 0.6992(7) 0.1445(9) 0.3524(10)
O10L O 0.7749(5) 0.1967(10) 0.3230(11)
C5F C 0.28158(17) 0.3384(2) 0.3268(3)
C6F C 0.2054(2) 0.3076(2) 0.2469(3)
C5K C 0.71842(17) 0.3384(2) 0.3268(3)
C6K C 0.7946(2) 0.3076(2) 0.2469(3)
C3F C 0.2418(2) 0.3716(2) 0.3651(3)
N1F N 0.3411(3) 0.3414(4) 0.3553(4)
C4F C 0.16568(17) 0.3409(3) 0.2852(4)
N2F N 0.1798(4) 0.2759(4) 0.1854(5)
C3K C 0.7582(2) 0.3716(2) 0.3651(3)
N1K N 0.6589(3) 0.3414(4) 0.3553(4)
C4K C 0.83432(17) 0.3409(3) 0.2852(4)
N2K N 0.8202(4) 0.2759(4) 0.1854(5)
H1F H 0.2543 0.3935 0.4054
C2F C 0.1839(2) 0.3729(3) 0.3442(4)
O7F O 0.3604(7) 0.3875(6) 0.3767(14)
O8F O 0.3676(7) 0.2941(6) 0.3550(15)
H2F H 0.1261 0.3417 0.2709
O9F O 0.1445(9) 0.3008(7) 0.1476(10)
O10F O 0.1967(10) 0.2251(5) 0.1770(11)
H1K H 0.7457 0.3935 0.4054
C2K C 0.8161(2) 0.3729(3) 0.3442(4)
O7K O 0.6396(7) 0.3875(6) 0.3767(14)
O8K O 0.6324(7) 0.2941(6) 0.3550(15)
H2K H 0.8739 0.3417 0.2709
O9K O 0.8555(9) 0.3008(7) 0.1476(10)
O10K O 0.8033(10) 0.2251(5) 0.1770(11)
C1F C 0.1393(3) 0.4048(5) 0.3870(6)
C1K C 0.8607(3) 0.4048(5) 0.3870(6)
O4F O 0.0877(2) 0.3942(4) 0.3706(4)
O3F O 0.1573(2) 0.4425(2) 0.4311(3)
O4K O 0.9123(2) 0.3942(4) 0.3706(4)
O3K O 0.8427(2) 0.4425(2) 0.4311(3)
Zr2F Zr -0.0000 0.42387(6) 0.40752(7)
Zr1C Zr 0.10670(5) 0.5000 0.5000
Zr2F_2 Zr 1.0000 0.42387(6) 0.40752(7)
Zr1A Zr 0.89330(5) 0.5000 0.5000
loop_
_geom_bond_atom_site_label_1
_geom_bond_atom_site_label_2
_geom_bond_site_symmetry_1
_geom_bond_site_symmetry_2
Zr1 O1 1_555 1_555
O1 Zr2 1_555 1_555
O2 Zr1 1_555 1_555
O3 Zr1 1_555 1_555
Zr2 O2 1_555 1_555
C1 O3 1_555 1_555
O4 Zr2 1_555 1_555
O5 Zr2 1_555 1_555
O6 Zr2 1_555 1_555
C2 C1 1_555 1_555
C3 C2 1_555 1_555
C4 C2 1_555 1_555
H1 C3 1_555 1_555
C5 C3 1_555 1_555
C6 C4 1_555 1_555
H2 C4 1_555 1_555
C7 C5 1_555 1_555
N1 C5 1_555 1_555
N2 C6 1_555 1_555
O7 N1 1_555 1_555
O8 N1 1_555 1_555
O9 N2 1_555 1_555
O10 N2 1_555 1_555
O3L Zr1 1_555 1_555
O1E Zr1 1_555 1_555
O2E Zr1 1_555 1_555
O3E Zr1 1_555 1_555
O3J Zr1 1_555 1_555
Zr2B O1 1_555 1_555
Zr2D O2 1_555 1_555
C1L O3L 1_555 1_555
Zr2E O1E 1_555 1_555
O1B Zr2 1_555 1_555
O2D Zr2 1_555 1_555
O4M Zr2 1_555 1_555
O2B Zr2B 1_555 1_555
O5B Zr2B 1_555 1_555
O6B Zr2B 1_555 1_555
O4L Zr2B 1_555 1_555
O4B Zr2B 1_555 1_555
C2L C1L 1_555 1_555
Zr1B O1B 1_555 1_555
C3L C2L 1_555 1_555
C4L C2L 1_555 1_555
H1L C3L 1_555 1_555
C5L C3L 1_555 1_555
C6L C4L 1_555 1_555
H2L C4L 1_555 1_555
C7L C5L 1_555 1_555
N1L C5L 1_555 1_555
N2L C6L 1_555 1_555
C7F C7 1_555 1_555
C7K C7L 1_555 1_555
O7L N1L 1_555 1_555
O8L N1L 1_555 1_555
O9L N2L 1_555 1_555
O10L N2L 1_555 1_555
C5F C7F 1_555 1_555
C6F C7F 1_555 1_555
C5K C7K 1_555 1_555
C6K C7K 1_555 1_555
C3F C5F 1_555 1_555
N1F C5F 1_555 1_555
C4F C6F 1_555 1_555
N2F C6F 1_555 1_555
C3K C5K 1_555 1_555
N1K C5K 1_555 1_555
C4K C6K 1_555 1_555
N2K C6K 1_555 1_555
H1F C3F 1_555 1_555
C2F C3F 1_555 1_555
O7F N1F 1_555 1_555
O8F N1F 1_555 1_555
H2F C4F 1_555 1_555
O9F N2F 1_555 1_555
O10F N2F 1_555 1_555
H1K C3K 1_555 1_555
C2K C3K 1_555 1_555
O7K N1K 1_555 1_555
O8K N1K 1_555 1_555
H2K C4K 1_555 1_555
O9K N2K 1_555 1_555
O10K N2K 1_555 1_555
C1F C2F 1_555 1_555
C1K C2K 1_555 1_555
O4F C1F 1_555 1_555
O3F C1F 1_555 1_555
O4K C1K 1_555 1_555
O3K C1K 1_555 1_555
Zr2F O4F 1_555 1_555
Zr1C O3F 1_555 1_555
Zr2F_2 O4K 1_555 1_555
Zr1A O3K 1_555 1_555
C1 O4 1_555 1_555
C6 C7 1_555 1_555
O1E Zr2D 1_555 1_555
O2E Zr2B 1_555 1_555
O2E Zr2E 1_555 1_555
Zr2B O1B 1_555 1_555
Zr2D O2D 1_555 1_555
C1L O4L 1_555 1_555
Zr2E O2B 1_555 1_555
O2D Zr1B 1_555 1_555
O2B Zr1B 1_555 1_555
C6L C7L 1_555 1_555
C4F C2F 1_555 1_555
C4K C2K 1_555 1_555

#END
