
#######################################################################
#
#                 Cambridge Crystallographic Data Centre
#                                CCDC 
#
#######################################################################
#
# If this CIF has been generated from an entry in the Cambridge 
# Structural Database, then it will include bibliographic, chemical, 
# crystal, experimental, refinement or atomic coordinate data resulting 
# from the CCDC's data processing and validation procedures.
#
#######################################################################

data_ERAMER
_chemical_formula_moiety         '(C36 H40 O16 Zr3)n'
_symmetry_cell_setting           tetragonal
_symmetry_space_group_name_H-M   'P 42/m m c'
_symmetry_Int_Tables_number      131
_space_group_name_Hall           '-P 4c 2'
loop_
_symmetry_equiv_pos_site_id
_symmetry_equiv_pos_as_xyz
1 x,y,z
2 -y,x,1/2+z
3 -x,-y,z
4 y,-x,1/2+z
5 x,-y,-z
6 -x,y,-z
7 y,x,1/2-z
8 -y,-x,1/2-z
9 -x,-y,-z
10 y,-x,1/2-z
11 x,y,-z
12 -y,x,1/2-z
13 -x,y,z
14 x,-y,z
15 -y,-x,1/2+z
16 y,x,1/2+z
_cell_length_a                   24.218(10)
_cell_length_b                   24.218
_cell_length_c                   15.359(6)
_cell_angle_alpha                90
_cell_angle_beta                 90
_cell_angle_gamma                90
_cell_volume                     9008.23
loop_
_atom_site_label
_atom_site_type_symbol
_atom_site_fract_x
_atom_site_fract_y
_atom_site_fract_z
Zr1 Zr 0.0000 0.39854(3) 0.5000
Zr2 Zr -0.07271(2) 0.5000 0.61488(5)
O1 O 0.0000 0.44984(17) 0.6132(4)
O2 O 0.05458(13) 0.35140(11) 0.5851(2)
O3 O 0.10225(15) 0.41728(14) 0.6612(3)
O4 O 0.0731(2) 0.45085(17) 0.5000
O5 O -0.16352(18) 0.5000 0.6058(4)
O6 O -0.0610(3) 0.5000 0.7579(4)
C1 C 0.16817(17) 0.23248(12) 0.6663(3)
C2 C 0.13176(13) 0.27219(16) 0.6348(2)
H1 H 0.1074 0.2634 0.5884
C3 C 0.13112(11) 0.32467(14) 0.6714(3)
C4 C 0.20312(16) 0.2979(2) 0.7707(3)
C5 C 0.20383(15) 0.24539(17) 0.7342(3)
C6 C 0.16675(17) 0.33758(15) 0.7393(3)
H2 H 0.1663 0.3735 0.7643
C7 C 0.1700(3) 0.17511(18) 0.6282(5)
H3 H 0.1415 0.1522 0.6555
H4 H 0.2064 0.1588 0.6390
H5 H 0.1634 0.1770 0.5653
C8 C 0.09181(17) 0.3680(2) 0.6378(4)
C9 C 0.2429(3) 0.3091(3) 0.8442(4)
H6 H 0.2388 0.2806 0.8890
H7 H 0.2350 0.3454 0.8695
H8 H 0.2808 0.3086 0.8218
O2F O 0.35140(11) 0.05458(13) 0.9149(2)
O3F O 0.41728(14) 0.10225(15) 0.8388(3)
C1F C 0.23248(12) 0.16817(17) 0.8337(3)
C2F C 0.27219(16) 0.13176(13) 0.8652(2)
H1F H 0.2634 0.1074 0.9116
C3F C 0.32467(14) 0.13112(11) 0.8286(3)
C4F C 0.2979(2) 0.20312(16) 0.7293(3)
C5F C 0.24539(17) 0.20383(15) 0.7658(3)
C6F C 0.33758(15) 0.16675(17) 0.7607(3)
H2F H 0.3735 0.1663 0.7357
C7F C 0.17511(18) 0.1700(3) 0.8718(5)
H3F H 0.1522 0.1415 0.8445
H4F H 0.1588 0.2064 0.8610
H5F H 0.1770 0.1634 0.9347
C8F C 0.3680(2) 0.09181(17) 0.8622(4)
C9F C 0.3091(3) 0.2429(3) 0.6558(4)
H6F H 0.2806 0.2388 0.6110
H7F H 0.3454 0.2350 0.6305
H8F H 0.3086 0.2808 0.6782
Zr2B Zr 0.07271(2) 0.5000 0.61488(5)
O1B O 0.0000 0.55016(17) 0.6132(4)
O4B O -0.0731(2) 0.54915(17) 0.5000
O5B O 0.16352(18) 0.5000 0.6058(4)
O6B O 0.0610(3) 0.5000 0.7579(4)
O2L O -0.05458(13) 0.35140(11) 0.5851(2)
O3L O -0.10225(15) 0.41728(14) 0.6612(3)
C1L C -0.16817(17) 0.23248(12) 0.6663(3)
C2L C -0.13176(13) 0.27219(16) 0.6348(2)
H1L H -0.1074 0.2634 0.5884
C3L C -0.13112(11) 0.32467(14) 0.6714(3)
C4L C -0.20312(16) 0.2979(2) 0.7707(3)
C5L C -0.20383(15) 0.24539(17) 0.7342(3)
C6L C -0.16675(17) 0.33758(15) 0.7393(3)
H2L H -0.1663 0.3735 0.7643
C7L C -0.1700(3) 0.17511(18) 0.6282(5)
H3L H -0.1415 0.1522 0.6555
H4L H -0.2064 0.1588 0.6390
H5L H -0.1634 0.1770 0.5653
C8L C -0.09181(17) 0.3680(2) 0.6378(4)
C9L C -0.2429(3) 0.3091(3) 0.8442(4)
H6L H -0.2388 0.2806 0.8890
H7L H -0.2350 0.3454 0.8695
H8L H -0.2808 0.3086 0.8218
O2K O -0.35140(11) 0.05458(13) 0.9149(2)
O3K O -0.41728(14) 0.10225(15) 0.8388(3)
C1K C -0.23248(12) 0.16817(17) 0.8337(3)
C2K C -0.27219(16) 0.13176(13) 0.8652(2)
H1K H -0.2634 0.1074 0.9116
C3K C -0.32467(14) 0.13112(11) 0.8286(3)
C4K C -0.2979(2) 0.20312(16) 0.7293(3)
C5K C -0.24539(17) 0.20383(15) 0.7658(3)
C6K C -0.33758(15) 0.16675(17) 0.7607(3)
H2K H -0.3735 0.1663 0.7357
C7K C -0.17511(18) 0.1700(3) 0.8718(5)
H3K H -0.1522 0.1415 0.8445
H4K H -0.1588 0.2064 0.8610
H5K H -0.1770 0.1634 0.9347
C8K C -0.3680(2) 0.09181(17) 0.8622(4)
C9K C -0.3091(3) 0.2429(3) 0.6558(4)
H6K H -0.2806 0.2388 0.6110
H7K H -0.3454 0.2350 0.6305
H8K H -0.3086 0.2808 0.6782
Zr1A Zr -0.39854(3) 0.0000 1.0000
Zr1B Zr 0.0000 0.60146(3) 0.5000
Zr1C Zr 0.39854(3) 0.0000 1.0000
Zr2D Zr -0.07271(2) 0.5000 0.38512(5)
Zr2E Zr 0.07271(2) 0.5000 0.38512(5)
Zr2G Zr -0.5000 0.07271(2) 0.88512(5)
Zr2G_2 Zr 0.5000 0.07271(2) 0.88512(5)
O1E O 0.0000 0.44984(17) 0.3868(4)
O2E O -0.05458(13) 0.35140(11) 0.4149(2)
O2J O 0.05458(13) 0.35140(11) 0.4149(2)
O3B O -0.10225(15) 0.58272(14) 0.6612(3)
O3M O 0.10225(15) 0.58272(14) 0.6612(3)
O4D O 0.0731(2) 0.54915(17) 0.5000
O4E O -0.0731(2) 0.45085(17) 0.5000
loop_
_geom_bond_atom_site_label_1
_geom_bond_atom_site_label_2
_geom_bond_site_symmetry_1
_geom_bond_site_symmetry_2
Zr1 O1 1_555 1_555
Zr2 O1 1_555 1_555
O1 Zr2B 1_555 1_555
O2 Zr1 1_555 1_555
O3 C8 1_555 1_555
O4 Zr1 1_555 1_555
O5 Zr2 1_555 1_555
O6 Zr2 1_555 1_555
C1 C2 1_555 1_555
C2 H1 1_555 1_555
C3 C2 1_555 1_555
C4 C5 1_555 1_555
C5 C1 1_555 1_555
C6 C3 1_555 1_555
H2 C6 1_555 1_555
C7 C1 1_555 1_555
H3 C7 1_555 1_555
H4 C7 1_555 1_555
H5 C7 1_555 1_555
C8 O2 1_555 1_555
C9 C4 1_555 1_555
H6 C9 1_555 1_555
H7 C9 1_555 1_555
H8 C9 1_555 1_555
O2F C8F 1_555 1_555
O3F C8F 1_555 1_555
C1F C2F 1_555 1_555
C2F H1F 1_555 1_555
C3F C2F 1_555 1_555
C4F C5F 1_555 1_555
C5F C5 1_555 1_555
C6F C3F 1_555 1_555
H2F C6F 1_555 1_555
C7F C1F 1_555 1_555
H3F C7F 1_555 1_555
H4F C7F 1_555 1_555
H5F C7F 1_555 1_555
C8F C3F 1_555 1_555
C9F C4F 1_555 1_555
H6F C9F 1_555 1_555
H7F C9F 1_555 1_555
H8F C9F 1_555 1_555
Zr2B O3 1_555 1_555
O1B Zr2 1_555 1_555
O4B Zr2 1_555 1_555
O5B Zr2B 1_555 1_555
O6B Zr2B 1_555 1_555
O2L Zr1 1_555 1_555
O3L Zr2 1_555 1_555
C1L C2L 1_555 1_555
C2L H1L 1_555 1_555
C3L C2L 1_555 1_555
C4L C5L 1_555 1_555
C5L C1L 1_555 1_555
C6L C3L 1_555 1_555
H2L C6L 1_555 1_555
C7L C1L 1_555 1_555
H3L C7L 1_555 1_555
H4L C7L 1_555 1_555
H5L C7L 1_555 1_555
C8L O2L 1_555 1_555
C9L C4L 1_555 1_555
H6L C9L 1_555 1_555
H7L C9L 1_555 1_555
H8L C9L 1_555 1_555
O2K C8K 1_555 1_555
O3K C8K 1_555 1_555
C1K C2K 1_555 1_555
C2K H1K 1_555 1_555
C3K C2K 1_555 1_555
C4K C5K 1_555 1_555
C5K C5L 1_555 1_555
C6K C3K 1_555 1_555
H2K C6K 1_555 1_555
C7K C1K 1_555 1_555
H3K C7K 1_555 1_555
H4K C7K 1_555 1_555
H5K C7K 1_555 1_555
C8K C3K 1_555 1_555
C9K C4K 1_555 1_555
H6K C9K 1_555 1_555
H7K C9K 1_555 1_555
H8K C9K 1_555 1_555
Zr1A O2K 1_555 1_555
Zr1B O1B 1_555 1_555
Zr1C O2F 1_555 1_555
Zr2D O4B 1_555 1_555
Zr2E O4 1_555 1_555
Zr2G O3K 1_555 1_555
Zr2G_2 O3F 1_555 1_555
O1E Zr1 1_555 1_555
O2E Zr1 1_555 1_555
O2J Zr1 1_555 1_555
O3B Zr2 1_555 1_555
O3M Zr2B 1_555 1_555
O4D Zr2B 1_555 1_555
O4E Zr1 1_555 1_555
Zr2 O4E 1_555 1_555
O4 Zr2B 1_555 1_555
C3 C8 1_555 1_555
C4 C6 1_555 1_555
C1F C5F 1_555 1_555
C4F C6F 1_555 1_555
Zr2B O1B 1_555 1_555
O4B Zr1B 1_555 1_555
O3L C8L 1_555 1_555
C3L C8L 1_555 1_555
C4L C6L 1_555 1_555
C1K C5K 1_555 1_555
C4K C6K 1_555 1_555
Zr1B O4D 1_555 1_555
Zr2D O1E 1_555 1_555
Zr2D O4E 1_555 1_555
Zr2E O1E 1_555 1_555
Zr2E O4D 1_555 1_555

#END
