
#######################################################################
#
#                 Cambridge Crystallographic Data Centre
#                                CCDC 
#
#######################################################################
#
# If this CIF has been generated from an entry in the Cambridge 
# Structural Database, then it will include bibliographic, chemical, 
# crystal, experimental, refinement or atomic coordinate data resulting 
# from the CCDC's data processing and validation procedures.
#
#######################################################################

data_ERANAO
_chemical_formula_moiety         'C70 H40 O42 Zr16'
_symmetry_cell_setting           tetragonal
_symmetry_space_group_name_H-M   'P 42/m m c'
_symmetry_Int_Tables_number      131
_space_group_name_Hall           '-P 4c 2'
loop_
_symmetry_equiv_pos_site_id
_symmetry_equiv_pos_as_xyz
1 x,y,z
2 -y,x,1/2+z
3 -x,-y,z
4 y,-x,1/2+z
5 x,-y,-z
6 -x,y,-z
7 y,x,1/2-z
8 -y,-x,1/2-z
9 -x,-y,-z
10 y,-x,1/2-z
11 x,y,-z
12 -y,x,1/2-z
13 -x,y,z
14 x,-y,z
15 -y,-x,1/2+z
16 y,x,1/2+z
_cell_length_a                   23.07(3)
_cell_length_b                   23.075
_cell_length_c                   19.16(2)
_cell_angle_alpha                90
_cell_angle_beta                 90
_cell_angle_gamma                90
_cell_volume                     10199.6
loop_
_atom_site_label
_atom_site_type_symbol
_atom_site_fract_x
_atom_site_fract_y
_atom_site_fract_z
Zr1 Zr 0.5000 0.92371(6) 0.59281(7)
Zr2 Zr 0.60867(8) 1.0000 0.5000
O1 O 0.5827(4) 0.8909(4) 0.6326(4)
O2 O 0.5000 0.9502(4) 0.7037(5)
O3 O 0.6588(3) 0.9413(3) 0.5734(4)
O4 O 0.5562(5) 1.0000 0.5931(6)
C1 C 0.5000 1.0000 0.7368(5)
C2 C 0.6321(7) 0.9060(6) 0.6290(9)
C3 C 0.6812(4) 0.8707(4) 0.6606(5)
O5 O 0.5000 0.8247(4) 0.5814(6)
O6 O 0.5514(5) 0.9183(4) 0.5000
C4 C 0.5000 1.0000 0.8155(5)
C5 C 0.7408(4) 0.8774(4) 0.6531(5)
H1 H 0.7557 0.9070 0.6238
C6 C 0.7785(3) 0.8408(5) 0.6886(5)
H2 H 0.8192 0.8454 0.6834
C7 C 0.7567(3) 0.7974(5) 0.7316(3)
C8 C 0.6972(3) 0.7906(4) 0.7391(6)
H3 H 0.6823 0.7610 0.7685
C9 C 0.6594(3) 0.8272(5) 0.7037(6)
H4 H 0.6187 0.8225 0.7089
C10 C 0.5000 1.0000 0.9608(5)
C11 C 0.5000 1.05211(8) 0.8519(5)
H5 H 0.5000 1.0878 0.8271
C12 C 0.5000 1.05213(8) 0.9244(5)
H6 H 0.5000 1.0878 0.9492
O1F O 0.8909(4) 0.5827(4) 0.8674(4)
O3F O 0.9413(3) 0.6588(3) 0.9266(4)
C2F C 0.9060(6) 0.6321(7) 0.8710(9)
C3F C 0.8707(4) 0.6812(4) 0.8394(5)
C5F C 0.8774(4) 0.7408(4) 0.8469(5)
H1F H 0.9070 0.7557 0.8762
C6F C 0.8408(5) 0.7785(3) 0.8114(5)
H2F H 0.8454 0.8192 0.8166
C7F C 0.7974(5) 0.7567(3) 0.7684(3)
C8F C 0.7906(4) 0.6972(3) 0.7609(6)
H3F H 0.7610 0.6823 0.7315
C9F C 0.8272(5) 0.6594(3) 0.7963(6)
H4F H 0.8225 0.6187 0.7911
O2B O 0.5000 1.0498(4) 0.7037(5)
C11B C 0.5000 0.94789(8) 0.8519(5)
H5B H 0.5000 0.9122 0.8271
C12B C 0.5000 0.94787(8) 0.9244(5)
H6B H 0.5000 0.9122 0.9492
O2D O 0.5000 1.0498(4) 1.2963(5)
C1D C 0.5000 1.0000 1.2632(5)
C4D C 0.5000 1.0000 1.1845(5)
C10D C 0.5000 1.0000 1.0392(5)
C11D C 0.5000 0.94789(8) 1.1481(5)
H5D H 0.5000 0.9122 1.1729
C12D C 0.5000 0.94787(8) 1.0756(5)
H6D H 0.5000 0.9122 1.0508
O2E O 0.5000 0.9502(4) 1.2963(5)
C11E C 0.5000 1.05211(8) 1.1481(5)
H5E H 0.5000 1.0878 1.1729
C12E C 0.5000 1.05213(8) 1.0756(5)
H6E H 0.5000 1.0878 1.0508
Zr1B Zr 0.5000 1.07629(6) 0.59281(7)
Zr2B Zr 0.39133(8) 1.0000 0.5000
O1B O 0.4173(4) 1.1091(4) 0.6326(4)
O3B O 0.3412(3) 1.0587(3) 0.5734(4)
O4B O 0.4438(5) 1.0000 0.5931(6)
C2B C 0.3679(7) 1.0940(6) 0.6290(9)
C3B C 0.3188(4) 1.1293(4) 0.6606(5)
O5B O 0.5000 1.1753(4) 0.5814(6)
O6B O 0.4486(5) 1.0817(4) 0.5000
C5B C 0.2592(4) 1.1226(4) 0.6531(5)
H1B H 0.2443 1.0930 0.6238
C6B C 0.2215(3) 1.1592(5) 0.6886(5)
H2B H 0.1808 1.1546 0.6834
C7B C 0.2433(3) 1.2026(5) 0.7316(3)
C8B C 0.3028(3) 1.2094(4) 0.7391(6)
H3B H 0.3177 1.2390 0.7685
C9B C 0.3406(3) 1.1728(5) 0.7037(6)
H4B H 0.3813 1.1775 0.7089
O1G O 0.1091(4) 1.4173(4) 0.8674(4)
O3G O 0.0587(3) 1.3412(3) 0.9266(4)
C2G C 0.0940(6) 1.3679(7) 0.8710(9)
C3G C 0.1293(4) 1.3188(4) 0.8394(5)
C5G C 0.1226(4) 1.2592(4) 0.8469(5)
H1G H 0.0930 1.2443 0.8762
C6G C 0.1592(5) 1.2215(3) 0.8114(5)
H2G H 0.1546 1.1808 0.8166
C7G C 0.2026(5) 1.2433(3) 0.7684(3)
C8G C 0.2094(4) 1.3028(3) 0.7609(6)
H3G H 0.2390 1.3177 0.7315
C9G C 0.1728(5) 1.3406(3) 0.7963(6)
H4G H 0.1775 1.3813 0.7911
Zr1D Zr 0.5000 1.07629(6) 0.40719(7)
O4D O 0.5562(5) 1.0000 0.4069(6)
O5D O 0.5000 1.1753(4) 0.4186(6)
O6D O 0.5514(5) 1.0817(4) 0.5000
Zr1E Zr 0.5000 0.92371(6) 0.40719(7)
O4E O 0.4438(5) 1.0000 0.4069(6)
O5E O 0.5000 0.8247(4) 0.4186(6)
O6E O 0.4486(5) 0.9183(4) 0.5000
O1L O 0.4173(4) 0.8909(4) 0.6326(4)
O3L O 0.3412(3) 0.9413(3) 0.5734(4)
C2L C 0.3679(7) 0.9060(6) 0.6290(9)
C3L C 0.3188(4) 0.8707(4) 0.6606(5)
C5L C 0.2592(4) 0.8774(4) 0.6531(5)
H1L H 0.2443 0.9070 0.6238
C6L C 0.2215(3) 0.8408(5) 0.6886(5)
H2L H 0.1808 0.8454 0.6834
C7L C 0.2433(3) 0.7974(5) 0.7316(3)
C8L C 0.3028(3) 0.7906(4) 0.7391(6)
H3L H 0.3177 0.7610 0.7685
C9L C 0.3406(3) 0.8272(5) 0.7037(6)
H4L H 0.3813 0.8225 0.7089
O1K O 0.1091(4) 0.5827(4) 0.8674(4)
O3K O 0.0587(3) 0.6588(3) 0.9266(4)
C2K C 0.0940(6) 0.6321(7) 0.8710(9)
C3K C 0.1293(4) 0.6812(4) 0.8394(5)
C5K C 0.1226(4) 0.7408(4) 0.8469(5)
H1K H 0.0930 0.7557 0.8762
C6K C 0.1592(5) 0.7785(3) 0.8114(5)
H2K H 0.1546 0.8192 0.8166
C7K C 0.2026(5) 0.7567(3) 0.7684(3)
C8K C 0.2094(4) 0.6972(3) 0.7609(6)
H3K H 0.2390 0.6823 0.7315
C9K C 0.1728(5) 0.6594(3) 0.7963(6)
H4K H 0.1775 0.6187 0.7911
O1M O 0.5827(4) 1.1091(4) 0.6326(4)
O3M O 0.6588(3) 1.0587(3) 0.5734(4)
C2M C 0.6321(7) 1.0940(6) 0.6290(9)
C3M C 0.6812(4) 1.1293(4) 0.6606(5)
C5M C 0.7408(4) 1.1226(4) 0.6531(5)
H1M H 0.7557 1.0930 0.6238
C6M C 0.7785(3) 1.1592(5) 0.6886(5)
H2M H 0.8192 1.1546 0.6834
C7M C 0.7567(3) 1.2026(5) 0.7316(3)
C8M C 0.6972(3) 1.2094(4) 0.7391(6)
H3M H 0.6823 1.2390 0.7685
C9M C 0.6594(3) 1.1728(5) 0.7037(6)
H4M H 0.6187 1.1775 0.7089
O1I O 0.8909(4) 1.4173(4) 0.8674(4)
O3I O 0.9413(3) 1.3412(3) 0.9266(4)
C2I C 0.9060(6) 1.3679(7) 0.8710(9)
C3I C 0.8707(4) 1.3188(4) 0.8394(5)
C5I C 0.8774(4) 1.2592(4) 0.8469(5)
H1I H 0.9070 1.2443 0.8762
C6I C 0.8408(5) 1.2215(3) 0.8114(5)
H2I H 0.8454 1.1808 0.8166
C7I C 0.7974(5) 1.2433(3) 0.7684(3)
C8I C 0.7906(4) 1.3028(3) 0.7609(6)
H3I H 0.7610 1.3177 0.7315
C9I C 0.8272(5) 1.3406(3) 0.7963(6)
H4I H 0.8225 1.3813 0.7911
Zr1D_2 Zr 0.5000 1.07629(6) 1.40719(7)
Zr1E_2 Zr 0.5000 0.92371(6) 1.40719(7)
Zr1F Zr 0.92371(6) 0.5000 0.90719(7)
Zr1F_2 Zr 0.92371(6) 1.5000 0.90719(7)
Zr1G Zr 0.07629(6) 0.5000 0.90719(7)
Zr1G_2 Zr 0.07629(6) 1.5000 0.90719(7)
Zr2A Zr -0.0000 0.60867(8) 1.0000
Zr2A_2 Zr 1.0000 0.60867(8) 1.0000
Zr2C Zr -0.0000 1.39133(8) 1.0000
Zr2C_2 Zr 1.0000 1.39133(8) 1.0000
O1D O 0.5827(4) 1.1091(4) 0.3674(4)
O1E O 0.4173(4) 0.8909(4) 0.3674(4)
O1H O 0.4173(4) 1.1091(4) 0.3674(4)
O1J O 0.5827(4) 0.8909(4) 0.3674(4)
O2D_2 O 0.5000 1.0498(4) 0.2963(5)
O2E_2 O 0.5000 0.9502(4) 0.2963(5)
O3D O 0.6588(3) 1.0587(3) 0.4266(4)
O3E O 0.3412(3) 0.9413(3) 0.4266(4)
O3H O 0.3412(3) 1.0587(3) 0.4266(4)
O3J O 0.6588(3) 0.9413(3) 0.4266(4)
loop_
_geom_bond_atom_site_label_1
_geom_bond_atom_site_label_2
_geom_bond_site_symmetry_1
_geom_bond_site_symmetry_2
Zr1 O1 1_555 1_555
Zr2 O3 1_555 1_555
O1 C2 1_555 1_555
O2 Zr1 1_555 1_555
O3 C2 1_555 1_555
O4 Zr1 1_555 1_555
C1 O2 1_555 1_555
C2 C3 1_555 1_555
C3 C5 1_555 1_555
O5 Zr1 1_555 1_555
O6 Zr1 1_555 1_555
C4 C1 1_555 1_555
C5 H1 1_555 1_555
C6 C5 1_555 1_555
H2 C6 1_555 1_555
C7 C6 1_555 1_555
C8 C7 1_555 1_555
H3 C8 1_555 1_555
C9 C3 1_555 1_555
H4 C9 1_555 1_555
C10 C12 1_555 1_555
C11 C4 1_555 1_555
H5 C11 1_555 1_555
C12 C11 1_555 1_555
H6 C12 1_555 1_555
O1F C2F 1_555 1_555
O3F C2F 1_555 1_555
C2F C3F 1_555 1_555
C3F C5F 1_555 1_555
C5F H1F 1_555 1_555
C6F C5F 1_555 1_555
H2F C6F 1_555 1_555
C7F C7 1_555 1_555
C8F C7F 1_555 1_555
H3F C8F 1_555 1_555
C9F C3F 1_555 1_555
H4F C9F 1_555 1_555
O2B C1 1_555 1_555
C11B C4 1_555 1_555
H5B C11B 1_555 1_555
C12B C10 1_555 1_555
H6B C12B 1_555 1_555
O2D C1D 1_555 1_555
C1D C4D 1_555 1_555
C4D C11D 1_555 1_555
C10D C10 1_555 1_555
C11D H5D 1_555 1_555
C12D C10D 1_555 1_555
H6D C12D 1_555 1_555
O2E C1D 1_555 1_555
C11E C4D 1_555 1_555
H5E C11E 1_555 1_555
C12E C10D 1_555 1_555
H6E C12E 1_555 1_555
Zr1B O4 1_555 1_555
Zr2B O3B 1_555 1_555
O1B Zr1B 1_555 1_555
O3B C2B 1_555 1_555
O4B Zr1 1_555 1_555
C2B O1B 1_555 1_555
C3B C2B 1_555 1_555
O5B Zr1B 1_555 1_555
O6B Zr1B 1_555 1_555
C5B C3B 1_555 1_555
H1B C5B 1_555 1_555
C6B C5B 1_555 1_555
H2B C6B 1_555 1_555
C7B C6B 1_555 1_555
C8B C7B 1_555 1_555
H3B C8B 1_555 1_555
C9B C3B 1_555 1_555
H4B C9B 1_555 1_555
O1G C2G 1_555 1_555
O3G C2G 1_555 1_555
C2G C3G 1_555 1_555
C3G C5G 1_555 1_555
C5G H1G 1_555 1_555
C6G C5G 1_555 1_555
H2G C6G 1_555 1_555
C7G C7B 1_555 1_555
C8G C7G 1_555 1_555
H3G C8G 1_555 1_555
C9G C3G 1_555 1_555
H4G C9G 1_555 1_555
Zr1D O6B 1_555 1_555
O4D Zr2 1_555 1_555
O5D Zr1D 1_555 1_555
O6D Zr2 1_555 1_555
Zr1E O6 1_555 1_555
O4E Zr2B 1_555 1_555
O5E Zr1E 1_555 1_555
O6E Zr1 1_555 1_555
O1L Zr1 1_555 1_555
O3L Zr2B 1_555 1_555
C2L O1L 1_555 1_555
C3L C2L 1_555 1_555
C5L C3L 1_555 1_555
H1L C5L 1_555 1_555
C6L C5L 1_555 1_555
H2L C6L 1_555 1_555
C7L C6L 1_555 1_555
C8L C7L 1_555 1_555
H3L C8L 1_555 1_555
C9L C3L 1_555 1_555
H4L C9L 1_555 1_555
O1K C2K 1_555 1_555
O3K C2K 1_555 1_555
C2K C3K 1_555 1_555
C3K C5K 1_555 1_555
C5K H1K 1_555 1_555
C6K C5K 1_555 1_555
H2K C6K 1_555 1_555
C7K C7L 1_555 1_555
C8K C7K 1_555 1_555
H3K C8K 1_555 1_555
C9K C3K 1_555 1_555
H4K C9K 1_555 1_555
O1M Zr1B 1_555 1_555
O3M Zr2 1_555 1_555
C2M O1M 1_555 1_555
C3M C2M 1_555 1_555
C5M C3M 1_555 1_555
H1M C5M 1_555 1_555
C6M C5M 1_555 1_555
H2M C6M 1_555 1_555
C7M C6M 1_555 1_555
C8M C7M 1_555 1_555
H3M C8M 1_555 1_555
C9M C3M 1_555 1_555
H4M C9M 1_555 1_555
O1I C2I 1_555 1_555
O3I C2I 1_555 1_555
C2I C3I 1_555 1_555
C3I C5I 1_555 1_555
C5I H1I 1_555 1_555
C6I C5I 1_555 1_555
H2I C6I 1_555 1_555
C7I C7M 1_555 1_555
C8I C7I 1_555 1_555
H3I C8I 1_555 1_555
C9I C3I 1_555 1_555
H4I C9I 1_555 1_555
Zr1D_2 O2D 1_555 1_555
Zr1E_2 O2E 1_555 1_555
Zr1F O1F 1_555 1_555
Zr1F_2 O1I 1_555 1_555
Zr1G O1K 1_555 1_555
Zr1G_2 O1G 1_555 1_555
Zr2A O3K 1_555 1_555
Zr2A_2 O3F 1_555 1_555
Zr2C O3G 1_555 1_555
Zr2C_2 O3I 1_555 1_555
O1D Zr1D 1_555 1_555
O1E Zr1E 1_555 1_555
O1H Zr1D 1_555 1_555
O1J Zr1E 1_555 1_555
O2D_2 Zr1D 1_555 1_555
O2E_2 Zr1E 1_555 1_555
O3D Zr2 1_555 1_555
O3E Zr2B 1_555 1_555
O3H Zr2B 1_555 1_555
O3J Zr2 1_555 1_555
Zr2 O4 1_555 1_555
Zr2 O6 1_555 1_555
C8 C9 1_555 1_555
C6F C7F 1_555 1_555
C8F C9F 1_555 1_555
O2B Zr1B 1_555 1_555
C11B C12B 1_555 1_555
C11D C12D 1_555 1_555
C11E C12E 1_555 1_555
Zr1B O4B 1_555 1_555
Zr1B O6D 1_555 1_555
Zr2B O4B 1_555 1_555
Zr2B O6B 1_555 1_555
Zr2B O6E 1_555 1_555
C8B C9B 1_555 1_555
C6G C7G 1_555 1_555
C8G C9G 1_555 1_555
Zr1D O4D 1_555 1_555
Zr1D O6D 1_555 1_555
Zr1D O4E 1_555 1_555
O4D Zr1E 1_555 1_555
Zr1E O4E 1_555 1_555
Zr1E O6E 1_555 1_555
O3L C2L 1_555 1_555
C8L C9L 1_555 1_555
C6K C7K 1_555 1_555
C8K C9K 1_555 1_555
O3M C2M 1_555 1_555
C8M C9M 1_555 1_555
C6I C7I 1_555 1_555
C8I C9I 1_555 1_555

#END
