
#######################################################################
#
#                 Cambridge Crystallographic Data Centre
#                                CCDC 
#
#######################################################################
#
# If this CIF has been generated from an entry in the Cambridge 
# Structural Database, then it will include bibliographic, chemical, 
# crystal, experimental, refinement or atomic coordinate data resulting 
# from the CCDC's data processing and validation procedures.
#
#######################################################################

data_ERANUI
_chemical_formula_moiety         'C148 H64 O72 Zr18'
_symmetry_cell_setting           tetragonal
_symmetry_space_group_name_H-M   'P 42/m m c'
_symmetry_Int_Tables_number      131
_space_group_name_Hall           '-P 4c 2'
loop_
_symmetry_equiv_pos_site_id
_symmetry_equiv_pos_as_xyz
1 x,y,z
2 -y,x,1/2+z
3 -x,-y,z
4 y,-x,1/2+z
5 x,-y,-z
6 -x,y,-z
7 y,x,1/2-z
8 -y,-x,1/2-z
9 -x,-y,-z
10 y,-x,1/2-z
11 x,y,-z
12 -y,x,1/2-z
13 -x,y,z
14 x,-y,z
15 -y,-x,1/2+z
16 y,x,1/2+z
_cell_length_a                   23.900(3)
_cell_length_b                   23.900
_cell_length_c                   16.817(2)
_cell_angle_alpha                90
_cell_angle_beta                 90
_cell_angle_gamma                90
_cell_volume                     9606.04
loop_
_atom_site_label
_atom_site_type_symbol
_atom_site_fract_x
_atom_site_fract_y
_atom_site_fract_z
Zr1 Zr 0.10524(8) 0.5000 0.0000
Zr2 Zr 0.0000 0.42713(6) 0.10381(8)
O1 O 0.0534(5) 0.5000 0.1068(9)
O2 O 0.0530(6) 0.4276(6) 0.0000
O3 O 0.1508(4) 0.4409(4) 0.0812(5)
O4 O 0.0801(4) 0.3905(4) 0.1503(7)
C1 C 0.1295(4) 0.4029(6) 0.1262(9)
C2 C 0.1742(6) 0.3662(5) 0.1627(9)
C3 C 0.1598(5) 0.3297(6) 0.2226(11)
H1 H 0.1220 0.3280 0.2398
C4 C 0.1990(5) 0.2952(6) 0.2582(9)
H2 H 0.1879 0.2704 0.2995
C5 C 0.2548(5) 0.2966(5) 0.2338(5)
C6 C 0.2698(5) 0.3334(6) 0.1731(7)
C7 C 0.2297(6) 0.3674(5) 0.1389(9)
H3 H 0.2405 0.3923 0.0977
C8 C 0.3300(6) 0.3362(9) 0.1456(12)
H4 H 0.3335 0.3639 0.1029
H5 H 0.3416 0.2994 0.1258
H6 H 0.3540 0.3471 0.1903
O5 O -0.0000 0.4487(6) 0.2271(11)
O6 O 0.0000 0.5452(7) 0.2072(9)
O7 O 0.0000 0.5493(6) 0.7473(12)
O8 O 0.0000 0.4561(8) 0.7645(9)
C9 C 0.0000 0.5000 0.2477(5)
C10 C 0.0000 0.5094(3) 0.33663(8)
C11 C 0.0000 0.5636(3) 0.36652(11)
C12 C -0.0000 0.5725(2) 0.44822(13)
C13 C -0.0000 0.5272(2) 0.5000
C14 C -0.0000 0.4729(2) 0.47011(13)
C15 C 0.0000 0.4640(3) 0.38841(16)
C16 C 0.0000 0.4276(3) 0.5219(2)
C17 C -0.0000 0.4365(3) 0.6036(2)
C18 C 0.0000 0.4907(3) 0.63350(10)
C19 C -0.0000 0.5361(3) 0.58170(6)
C20 C 0.0000 0.5000 0.7222(6)
O9 O 0.0000 0.3378(7) 0.0645(14)
C21 C 0.0000 0.3130(7) 0.0000
C22 C 0.0174(5) 0.2524(6) 0.0000
C23 C 0.0286(8) 0.2254(6) 0.07151(9)
C24 C 0.0495(14) 0.1407(7) 0.0000
C25 C 0.0621(13) 0.0789(7) 0.0000
C26 C 0.072(2) 0.0298(8) 0.0000
C27 C 0.0446(10) 0.1694(6) 0.07158(3)
C28 C 0.052(2) 0.1388(9) 0.1491(6)
H7 H 0.0578 0.1659 0.1920
H8 H 0.0842 0.1138 0.1455
O3F O 0.4409(4) 0.1508(4) 0.4188(5)
O4F O 0.3905(4) 0.0801(4) 0.3497(7)
C1F C 0.4029(6) 0.1295(4) 0.3738(9)
C2F C 0.3662(5) 0.1742(6) 0.3373(9)
C3F C 0.3297(6) 0.1598(5) 0.2774(11)
H1F H 0.3280 0.1220 0.2602
C4F C 0.2952(6) 0.1990(5) 0.2418(9)
H2F H 0.2704 0.1879 0.2005
C5F C 0.2966(5) 0.2548(5) 0.2662(5)
C6F C 0.3334(6) 0.2698(5) 0.3269(7)
C7F C 0.3674(5) 0.2297(6) 0.3611(9)
H3F H 0.3923 0.2405 0.4023
C8F C 0.3362(9) 0.3300(6) 0.3544(12)
H4F H 0.3639 0.3335 0.3971
H5F H 0.2994 0.3416 0.3742
H6F H 0.3471 0.3540 0.3097
O5B O -0.0000 0.5513(6) 0.2271(11)
O6B O -0.0000 0.4548(7) 0.2072(9)
O7B O 0.0000 0.4507(6) 0.7473(12)
O8B O 0.0000 0.5439(8) 0.7645(9)
C10B C -0.0000 0.4906(3) 0.33663(8)
C11B C 0.0000 0.4364(3) 0.36652(11)
C12B C 0.0000 0.4275(2) 0.44822(13)
C13B C 0.0000 0.4728(2) 0.5000
C14B C 0.0000 0.5271(2) 0.47011(13)
C15B C 0.0000 0.5360(3) 0.38841(16)
C16B C 0.0000 0.5724(3) 0.5219(2)
C17B C 0.0000 0.5635(3) 0.6036(2)
C18B C -0.0000 0.5093(3) 0.63350(10)
C19B C -0.0000 0.4639(3) 0.58170(6)
O5D O -0.0000 0.5513(6) 0.7729(11)
O6D O -0.0000 0.4548(7) 0.7928(9)
O7D O -0.0000 0.4507(6) 0.2527(12)
O8D O -0.0000 0.5439(8) 0.2355(9)
C9D C 0.0000 0.5000 0.7523(5)
C10D C -0.0000 0.4906(3) 0.66337(8)
C11D C 0.0000 0.4364(3) 0.63348(11)
C12D C 0.0000 0.4275(2) 0.55178(13)
C14D C 0.0000 0.5271(2) 0.52989(13)
C15D C 0.0000 0.5360(3) 0.61159(16)
C16D C -0.0000 0.5724(3) 0.4781(2)
C17D C 0.0000 0.5635(3) 0.3964(2)
C18D C 0.0000 0.5093(3) 0.36650(10)
C19D C 0.0000 0.4639(3) 0.41830(6)
C20D C 0.0000 0.5000 0.2778(6)
O5E O -0.0000 0.4487(6) 0.7729(11)
O6E O 0.0000 0.5452(7) 0.7928(9)
O7E O -0.0000 0.5493(6) 0.2527(12)
O8E O 0.0000 0.4561(8) 0.2355(9)
C10E C 0.0000 0.5094(3) 0.66337(8)
C11E C -0.0000 0.5636(3) 0.63348(11)
C12E C -0.0000 0.5725(2) 0.55178(13)
C14E C -0.0000 0.4729(2) 0.52989(13)
C15E C 0.0000 0.4640(3) 0.61159(16)
C16E C -0.0000 0.4276(3) 0.4781(2)
C17E C -0.0000 0.4365(3) 0.3964(2)
C18E C 0.0000 0.4907(3) 0.36650(10)
C19E C -0.0000 0.5361(3) 0.41830(6)
O9D O -0.0000 -0.3378(7) -0.0645(14)
C21B C 0.0000 -0.3130(7) 0.0000
C22D C 0.0174(5) -0.2524(6) 0.0000
C23D C 0.0286(8) -0.2254(6) -0.07151(9)
C24D C 0.0495(14) -0.1407(7) 0.0000
C25D C 0.0621(13) -0.0789(7) 0.0000
C26D C 0.072(2) -0.0298(8) 0.0000
C27D C 0.0446(10) -0.1694(6) -0.07158(3)
C28D C 0.052(2) -0.1388(9) -0.1491(6)
H7D H 0.0578 -0.1659 -0.1920
H8D H 0.0842 -0.1138 -0.1455
O9E O 0.0000 0.3378(7) -0.0645(14)
C22E C -0.0174(5) 0.2524(6) 0.0000
C23E C -0.0286(8) 0.2254(6) -0.07151(9)
C24E C -0.0495(14) 0.1407(7) 0.0000
C25E C -0.0621(13) 0.0789(7) 0.0000
C26E C -0.072(2) 0.0298(8) 0.0000
C27E C -0.0446(10) 0.1694(6) -0.07158(3)
C28E C -0.052(2) 0.1388(9) -0.1491(6)
H7E H -0.0578 0.1659 -0.1920
H8E H -0.0842 0.1138 -0.1455
C22B C -0.0174(5) -0.2524(6) 0.0000
C23H C -0.0286(8) -0.2254(6) -0.07151(9)
C24B C -0.0495(14) -0.1407(7) 0.0000
C25B C -0.0621(13) -0.0789(7) 0.0000
C26B C -0.072(2) -0.0298(8) 0.0000
C27H C -0.0446(10) -0.1694(6) -0.07158(3)
C28H C -0.052(2) -0.1388(9) -0.1491(6)
H7H H -0.0578 -0.1659 -0.1920
H8H H -0.0842 -0.1138 -0.1455
C23J C 0.0286(8) 0.2254(6) -0.07151(9)
C27J C 0.0446(10) 0.1694(6) -0.07158(3)
C28J C 0.052(2) 0.1388(9) -0.1491(6)
H7J H 0.0578 0.1659 -0.1920
H8J H 0.0842 0.1138 -0.1455
C23L C -0.0286(8) 0.2254(6) 0.07151(9)
C27L C -0.0446(10) 0.1694(6) 0.07158(3)
C28L C -0.052(2) 0.1388(9) 0.1491(6)
H7L H -0.0578 0.1659 0.1920
H8L H -0.0842 0.1138 0.1455
O9B O -0.0000 -0.3378(7) 0.0645(14)
C23M C 0.0286(8) -0.2254(6) 0.07151(9)
C27M C 0.0446(10) -0.1694(6) 0.07158(3)
C28M C 0.052(2) -0.1388(9) 0.1491(6)
H7M H 0.0578 -0.1659 0.1920
H8M H 0.0842 -0.1138 0.1455
C23B C -0.0286(8) -0.2254(6) 0.07151(9)
C27B C -0.0446(10) -0.1694(6) 0.07158(3)
C28B C -0.052(2) -0.1388(9) 0.1491(6)
H7B H -0.0578 -0.1659 0.1920
H8B H -0.0842 -0.1138 0.1455
Zr2B Zr 0.0000 -0.42713(6) 0.10381(8)
O2B O -0.0530(6) -0.4276(6) 0.0000
O3B O -0.1508(4) -0.4409(4) 0.0812(5)
O4B O -0.0801(4) -0.3905(4) 0.1503(7)
C1B C -0.1295(4) -0.4029(6) 0.1262(9)
C2B C -0.1742(6) -0.3662(5) 0.1627(9)
C3B C -0.1598(5) -0.3297(6) 0.2226(11)
H1B H -0.1220 -0.3280 0.2398
C4B C -0.1990(5) -0.2952(6) 0.2582(9)
H2B H -0.1879 -0.2704 0.2995
C5B C -0.2548(5) -0.2966(5) 0.2338(5)
C6B C -0.2698(5) -0.3334(6) 0.1731(7)
C7B C -0.2297(6) -0.3674(5) 0.1389(9)
H3B H -0.2405 -0.3923 0.0977
C8B C -0.3300(6) -0.3362(9) 0.1456(12)
H4B H -0.3335 -0.3639 0.1029
H5B H -0.3416 -0.2994 0.1258
H6B H -0.3540 -0.3471 0.1903
O3G O -0.4409(4) -0.1508(4) 0.4188(5)
O4G O -0.3905(4) -0.0801(4) 0.3497(7)
C1G C -0.4029(6) -0.1295(4) 0.3738(9)
C2G C -0.3662(5) -0.1742(6) 0.3373(9)
C3G C -0.3297(6) -0.1598(5) 0.2774(11)
H1G H -0.3280 -0.1220 0.2602
C4G C -0.2952(6) -0.1990(5) 0.2418(9)
H2G H -0.2704 -0.1879 0.2005
C5G C -0.2966(5) -0.2548(5) 0.2662(5)
C6G C -0.3334(6) -0.2698(5) 0.3269(7)
C7G C -0.3674(5) -0.2297(6) 0.3611(9)
H3G H -0.3923 -0.2405 0.4023
C8G C -0.3362(9) -0.3300(6) 0.3544(12)
H4G H -0.3639 -0.3335 0.3971
H5G H -0.2994 -0.3416 0.3742
H6G H -0.3471 -0.3540 0.3097
Zr2D Zr -0.0000 -0.42713(6) -0.10381(8)
O2D O 0.0530(6) -0.4276(6) 0.0000
Zr1B Zr -0.10524(8) 0.5000 0.0000
Zr2E Zr -0.0000 0.42713(6) -0.10381(8)
O1E O -0.0534(5) 0.5000 -0.1068(9)
O2E O -0.0530(6) 0.4276(6) 0.0000
O1D O 0.0534(5) 0.5000 -0.1068(9)
O1B O -0.0534(5) 0.5000 0.1068(9)
O3L O -0.1508(4) 0.4409(4) 0.0812(5)
O4L O -0.0801(4) 0.3905(4) 0.1503(7)
C1L C -0.1295(4) 0.4029(6) 0.1262(9)
C2L C -0.1742(6) 0.3662(5) 0.1627(9)
C3L C -0.1598(5) 0.3297(6) 0.2226(11)
H1L H -0.1220 0.3280 0.2398
C4L C -0.1990(5) 0.2952(6) 0.2582(9)
H2L H -0.1879 0.2704 0.2995
C5L C -0.2548(5) 0.2966(5) 0.2338(5)
C6L C -0.2698(5) 0.3334(6) 0.1731(7)
C7L C -0.2297(6) 0.3674(5) 0.1389(9)
H3L H -0.2405 0.3923 0.0977
C8L C -0.3300(6) 0.3362(9) 0.1456(12)
H4L H -0.3335 0.3639 0.1029
H5L H -0.3416 0.2994 0.1258
H6L H -0.3540 0.3471 0.1903
O3K O -0.4409(4) 0.1508(4) 0.4188(5)
O4K O -0.3905(4) 0.0801(4) 0.3497(7)
C1K C -0.4029(6) 0.1295(4) 0.3738(9)
C2K C -0.3662(5) 0.1742(6) 0.3373(9)
C3K C -0.3297(6) 0.1598(5) 0.2774(11)
H1K H -0.3280 0.1220 0.2602
C4K C -0.2952(6) 0.1990(5) 0.2418(9)
H2K H -0.2704 0.1879 0.2005
C5K C -0.2966(5) 0.2548(5) 0.2662(5)
C6K C -0.3334(6) 0.2698(5) 0.3269(7)
C7K C -0.3674(5) 0.2297(6) 0.3611(9)
H3K H -0.3923 0.2405 0.4023
C8K C -0.3362(9) 0.3300(6) 0.3544(12)
H4K H -0.3639 0.3335 0.3971
H5K H -0.2994 0.3416 0.3742
H6K H -0.3471 0.3540 0.3097
O3M O 0.1508(4) -0.4409(4) 0.0812(5)
O4M O 0.0801(4) -0.3905(4) 0.1503(7)
C1M C 0.1295(4) -0.4029(6) 0.1262(9)
C2M C 0.1742(6) -0.3662(5) 0.1627(9)
C3M C 0.1598(5) -0.3297(6) 0.2226(11)
H1M H 0.1220 -0.3280 0.2398
C4M C 0.1990(5) -0.2952(6) 0.2582(9)
H2M H 0.1879 -0.2704 0.2995
C5M C 0.2548(5) -0.2966(5) 0.2338(5)
C6M C 0.2698(5) -0.3334(6) 0.1731(7)
C7M C 0.2297(6) -0.3674(5) 0.1389(9)
H3M H 0.2405 -0.3923 0.0977
C8M C 0.3300(6) -0.3362(9) 0.1456(12)
H4M H 0.3335 -0.3639 0.1029
H5M H 0.3416 -0.2994 0.1258
H6M H 0.3540 -0.3471 0.1903
O3I O 0.4409(4) -0.1508(4) 0.4188(5)
O4I O 0.3905(4) -0.0801(4) 0.3497(7)
C1I C 0.4029(6) -0.1295(4) 0.3738(9)
C2I C 0.3662(5) -0.1742(6) 0.3373(9)
C3I C 0.3297(6) -0.1598(5) 0.2774(11)
H1I H 0.3280 -0.1220 0.2602
C4I C 0.2952(6) -0.1990(5) 0.2418(9)
H2I H 0.2704 -0.1879 0.2005
C5I C 0.2966(5) -0.2548(5) 0.2662(5)
C6I C 0.3334(6) -0.2698(5) 0.3269(7)
C7I C 0.3674(5) -0.2297(6) 0.3611(9)
H3I H 0.3923 -0.2405 0.4023
C8I C 0.3362(9) -0.3300(6) 0.3544(12)
H4I H 0.3639 -0.3335 0.3971
H5I H 0.2994 -0.3416 0.3742
H6I H 0.3471 -0.3540 0.3097
Zr1_2 Zr 0.10524(8) -0.5000 0.0000
Zr1A Zr -0.5000 0.10524(8) 0.5000
Zr1A_2 Zr 0.5000 0.10524(8) 0.5000
Zr1B_2 Zr -0.10524(8) -0.5000 0.0000
Zr1C Zr -0.5000 -0.10524(8) 0.5000
Zr1C_2 Zr 0.5000 -0.10524(8) 0.5000
Zr2B_2 Zr 0.0000 0.57287(6) 0.10381(8)
Zr2D_2 Zr 0.0000 0.57287(6) -0.10381(8)
Zr2D_3 Zr 0.0000 0.57287(6) 0.89619(8)
Zr2E_2 Zr 0.0000 0.42713(6) 0.89619(8)
Zr2F Zr 0.42713(6) 0.0000 0.39619(8)
Zr2G Zr -0.42713(6) 0.0000 0.39619(8)
O1_2 O 0.0534(5) -0.5000 0.1068(9)
O1B_2 O -0.0534(5) -0.5000 0.1068(9)
O1D_2 O 0.0534(5) -0.5000 -0.1068(9)
O1E_2 O -0.0534(5) -0.5000 -0.1068(9)
O2B_2 O -0.0530(6) 0.5724(6) 0.0000
O2D_2 O 0.0530(6) 0.5724(6) 0.0000
O3B_2 O -0.1508(4) 0.5591(4) 0.0812(5)
O3D O 0.1508(4) 0.5591(4) -0.0812(5)
O3E O -0.1508(4) 0.4409(4) -0.0812(5)
O3H O -0.1508(4) 0.5591(4) -0.0812(5)
O3J O 0.1508(4) 0.4409(4) -0.0812(5)
O3M_2 O 0.1508(4) 0.5591(4) 0.0812(5)
O4D O 0.0801(4) -0.3905(4) -0.1503(7)
O4E O -0.0801(4) 0.3905(4) -0.1503(7)
O4H O -0.0801(4) -0.3905(4) -0.1503(7)
O4J O 0.0801(4) 0.3905(4) -0.1503(7)
O5B_2 O 0.0000 -0.4487(6) 0.2271(11)
O5D_2 O 0.0000 -0.4487(6) -0.2271(11)
O5E_2 O -0.0000 0.4487(6) -0.2271(11)
O6_2 O 0.0000 -0.4548(7) 0.2072(9)
O6D_2 O -0.0000 0.4548(7) -0.2072(9)
O6E_2 O 0.0000 -0.4548(7) -0.2072(9)
O7_2 O 0.0000 -0.4507(6) -0.2527(12)
O7B_2 O 0.0000 0.4507(6) -0.2527(12)
O7E_2 O -0.0000 -0.4507(6) 0.2527(12)
O8_2 O 0.0000 0.4561(8) -0.2355(9)
O8B_2 O -0.0000 -0.4561(8) -0.2355(9)
O8D_2 O -0.0000 -0.4561(8) 0.2355(9)
loop_
_geom_bond_atom_site_label_1
_geom_bond_atom_site_label_2
_geom_bond_site_symmetry_1
_geom_bond_site_symmetry_2
Zr1 O1 1_555 1_555
Zr2 O1 1_555 1_555
O1 Zr2B_2 1_555 1_555
O2 Zr1 1_555 1_555
O3 Zr1 1_555 1_555
O4 Zr2 1_555 1_555
C1 O3 1_555 1_555
C2 C1 1_555 1_555
C3 C2 1_555 1_555
H1 C3 1_555 1_555
C4 C3 1_555 1_555
H2 C4 1_555 1_555
C5 C4 1_555 1_555
C6 C5 1_555 1_555
C7 C2 1_555 1_555
H3 C7 1_555 1_555
C8 C6 1_555 1_555
H4 C8 1_555 1_555
H5 C8 1_555 1_555
H6 C8 1_555 1_555
O5 Zr2 1_555 1_555
O6 C9 1_555 1_555
O7 C20 1_555 1_555
O8 C20 1_555 1_555
C9 O5 1_555 1_555
C10 C9 1_555 1_555
C11 C10 1_555 1_555
C12 C11 1_555 1_555
C13 C12 1_555 1_555
C14 C13 1_555 1_555
C15 C10 1_555 1_555
C16 C14 1_555 1_555
C17 C16 1_555 1_555
C18 C17 1_555 1_555
C19 C13 1_555 1_555
C20 C18 1_555 1_555
O9 Zr2 1_555 1_555
C21 O9 1_555 1_555
C22 C21 1_555 1_555
C23 C22 1_555 1_555
C24 C25 1_555 1_555
C25 C26 1_555 1_555
C26 C26D 1_555 1_555
C27 C23 1_555 1_555
C28 C27 1_555 1_555
H7 C28 1_555 1_555
H8 C28 1_555 1_555
O3F C1F 1_555 1_555
O4F C1F 1_555 1_555
C1F C2F 1_555 1_555
C2F C3F 1_555 1_555
C3F H1F 1_555 1_555
C4F C3F 1_555 1_555
H2F C4F 1_555 1_555
C5F C5 1_555 1_555
C6F C5F 1_555 1_555
C7F C2F 1_555 1_555
H3F C7F 1_555 1_555
C8F C6F 1_555 1_555
H4F C8F 1_555 1_555
H5F C8F 1_555 1_555
H6F C8F 1_555 1_555
O5B C9 1_555 1_555
O6B Zr2 1_555 1_555
O7B C20 1_555 1_555
O8B C20 1_555 1_555
C10B C9 1_555 1_555
C11B C15 1_555 1_555
C12B C14 1_555 1_555
C13B C13 1_555 1_555
C14B C12 1_555 1_555
C15B C10 1_555 1_555
C16B C12 1_555 1_555
C17B C19 1_555 1_555
C18B C19 1_555 1_555
C19B C16 1_555 1_555
O5D C20 1_555 1_555
O6D C20 1_555 1_555
O7D Zr2 1_555 1_555
O8D C9 1_555 1_555
C9D O7 1_555 1_555
C10D C17 1_555 1_555
C11D C18 1_555 1_555
C12D C14 1_555 1_555
C14D C12 1_555 1_555
C15D C18 1_555 1_555
C16D C13 1_555 1_555
C17D C10 1_555 1_555
C18D C11 1_555 1_555
C19D C10 1_555 1_555
C20D O5 1_555 1_555
O5E C20 1_555 1_555
O6E C20 1_555 1_555
O7E C9 1_555 1_555
O8E Zr2 1_555 1_555
C10E O7 1_555 1_555
C11E C18 1_555 1_555
C12E C12 1_555 1_555
C14E C13 1_555 1_555
C15E C16 1_555 1_555
C16E C14 1_555 1_555
C17E C14 1_555 1_555
C18E C10 1_555 1_555
C19E C10 1_555 1_555
O9D C21B 1_555 1_555
C21B C22D 1_555 1_555
C22D C23D 1_555 1_555
C23D C27D 1_555 1_555
C24D C25D 1_555 1_555
C25D C26D 1_555 1_555
C27D C24D 1_555 1_555
C28D C27D 1_555 1_555
H7D C28D 1_555 1_555
H8D C28D 1_555 1_555
O9E C21 1_555 1_555
C22E C21 1_555 1_555
C23E C22 1_555 1_555
C24E C25E 1_555 1_555
C25E C26E 1_555 1_555
C26E C26B 1_555 1_555
C27E C23E 1_555 1_555
C28E C27E 1_555 1_555
H7E C28E 1_555 1_555
H8E C28E 1_555 1_555
C22B C21B 1_555 1_555
C23H C22D 1_555 1_555
C24B C25B 1_555 1_555
C25B C26B 1_555 1_555
C27H C23H 1_555 1_555
C28H C27H 1_555 1_555
H7H C28H 1_555 1_555
H8H C28H 1_555 1_555
C23J C22 1_555 1_555
C27J C24 1_555 1_555
C28J C27J 1_555 1_555
H7J C28J 1_555 1_555
H8J C28J 1_555 1_555
C23L C22 1_555 1_555
C27L C24E 1_555 1_555
C28L C27L 1_555 1_555
H7L C28L 1_555 1_555
H8L C28L 1_555 1_555
O9B C21B 1_555 1_555
C23M C22D 1_555 1_555
C27M C24D 1_555 1_555
C28M C27M 1_555 1_555
H7M C28M 1_555 1_555
H8M C28M 1_555 1_555
C23B C22D 1_555 1_555
C27B C24B 1_555 1_555
C28B C27B 1_555 1_555
H7B C28B 1_555 1_555
H8B C28B 1_555 1_555
Zr2B O9B 1_555 1_555
O2B Zr2B 1_555 1_555
O3B C1B 1_555 1_555
O4B Zr2B 1_555 1_555
C1B O4B 1_555 1_555
C2B C1B 1_555 1_555
C3B C2B 1_555 1_555
H1B C3B 1_555 1_555
C4B C3B 1_555 1_555
H2B C4B 1_555 1_555
C5B C4B 1_555 1_555
C6B C5B 1_555 1_555
C7B C2B 1_555 1_555
H3B C7B 1_555 1_555
C8B C6B 1_555 1_555
H4B C8B 1_555 1_555
H5B C8B 1_555 1_555
H6B C8B 1_555 1_555
O3G C1G 1_555 1_555
O4G C1G 1_555 1_555
C1G C2G 1_555 1_555
C2G C3G 1_555 1_555
C3G H1G 1_555 1_555
C4G C3G 1_555 1_555
H2G C4G 1_555 1_555
C5G C5B 1_555 1_555
C6G C5G 1_555 1_555
C7G C2G 1_555 1_555
H3G C7G 1_555 1_555
C8G C6G 1_555 1_555
H4G C8G 1_555 1_555
H5G C8G 1_555 1_555
H6G C8G 1_555 1_555
Zr2D O9D 1_555 1_555
O2D Zr2B 1_555 1_555
Zr1B O1E 1_555 1_555
Zr2E O2 1_555 1_555
O1E Zr2E 1_555 1_555
O2E Zr2 1_555 1_555
O1D Zr1 1_555 1_555
O1B Zr2 1_555 1_555
O3L Zr1B 1_555 1_555
O4L Zr2 1_555 1_555
C1L O3L 1_555 1_555
C2L C1L 1_555 1_555
C3L C2L 1_555 1_555
H1L C3L 1_555 1_555
C4L C3L 1_555 1_555
H2L C4L 1_555 1_555
C5L C4L 1_555 1_555
C6L C5L 1_555 1_555
C7L C2L 1_555 1_555
H3L C7L 1_555 1_555
C8L C6L 1_555 1_555
H4L C8L 1_555 1_555
H5L C8L 1_555 1_555
H6L C8L 1_555 1_555
O3K C1K 1_555 1_555
O4K C1K 1_555 1_555
C1K C2K 1_555 1_555
C2K C3K 1_555 1_555
C3K H1K 1_555 1_555
C4K C3K 1_555 1_555
H2K C4K 1_555 1_555
C5K C5L 1_555 1_555
C6K C5K 1_555 1_555
C7K C2K 1_555 1_555
H3K C7K 1_555 1_555
C8K C6K 1_555 1_555
H4K C8K 1_555 1_555
H5K C8K 1_555 1_555
H6K C8K 1_555 1_555
O3M C1M 1_555 1_555
O4M Zr2B 1_555 1_555
C1M O4M 1_555 1_555
C2M C1M 1_555 1_555
C3M C2M 1_555 1_555
H1M C3M 1_555 1_555
C4M C3M 1_555 1_555
H2M C4M 1_555 1_555
C5M C4M 1_555 1_555
C6M C5M 1_555 1_555
C7M C2M 1_555 1_555
H3M C7M 1_555 1_555
C8M C6M 1_555 1_555
H4M C8M 1_555 1_555
H5M C8M 1_555 1_555
H6M C8M 1_555 1_555
O3I C1I 1_555 1_555
O4I C1I 1_555 1_555
C1I C2I 1_555 1_555
C2I C3I 1_555 1_555
C3I H1I 1_555 1_555
C4I C3I 1_555 1_555
H2I C4I 1_555 1_555
C5I C5M 1_555 1_555
C6I C5I 1_555 1_555
C7I C2I 1_555 1_555
H3I C7I 1_555 1_555
C8I C6I 1_555 1_555
H4I C8I 1_555 1_555
H5I C8I 1_555 1_555
H6I C8I 1_555 1_555
Zr1_2 O2D 1_555 1_555
Zr1A O3K 1_555 1_555
Zr1A_2 O3F 1_555 1_555
Zr1B_2 O2B 1_555 1_555
Zr1C O3G 1_555 1_555
Zr1C_2 O3I 1_555 1_555
Zr2B_2 O6 1_555 1_555
Zr2D_2 O1E 1_555 1_555
Zr2D_3 O7 1_555 1_555
Zr2E_2 O8 1_555 1_555
Zr2F O4F 1_555 1_555
Zr2G O4G 1_555 1_555
O1_2 Zr2B 1_555 1_555
O1B_2 Zr2B 1_555 1_555
O1D_2 Zr2D 1_555 1_555
O1E_2 Zr2D 1_555 1_555
O2B_2 Zr1B 1_555 1_555
O2D_2 Zr1 1_555 1_555
O3B_2 Zr1B 1_555 1_555
O3D Zr1 1_555 1_555
O3E Zr1B 1_555 1_555
O3H Zr1B 1_555 1_555
O3J Zr1 1_555 1_555
O3M_2 Zr1 1_555 1_555
O4D Zr2D 1_555 1_555
O4E Zr2E 1_555 1_555
O4H Zr2D 1_555 1_555
O4J Zr2E 1_555 1_555
O5B_2 Zr2B 1_555 1_555
O5D_2 Zr2D 1_555 1_555
O5E_2 Zr2E 1_555 1_555
O6_2 Zr2B 1_555 1_555
O6D_2 Zr2E 1_555 1_555
O6E_2 Zr2D 1_555 1_555
O7_2 Zr2D 1_555 1_555
O7B_2 Zr2E 1_555 1_555
O7E_2 Zr2B 1_555 1_555
O8_2 Zr2E 1_555 1_555
O8B_2 Zr2D 1_555 1_555
O8D_2 Zr2B 1_555 1_555
Zr2 O2 1_555 1_555
O4 C1 1_555 1_555
C6 C7 1_555 1_555
O6 C20D 1_555 1_555
O8 C9D 1_555 1_555
C9 O6B 1_555 1_555
C9 O7D 1_555 1_555
C9 O8E 1_555 1_555
C10 C20D 1_555 1_555
C10 O7E 1_555 1_555
C11 C15B 1_555 1_555
C11 C18E 1_555 1_555
C11 C19E 1_555 1_555
C12 C15B 1_555 1_555
C12 C17D 1_555 1_555
C12 C19E 1_555 1_555
C13 C16B 1_555 1_555
C13 C12E 1_555 1_555
C13 C19E 1_555 1_555
C14 C15 1_555 1_555
C14 C14B 1_555 1_555
C14 C14D 1_555 1_555
C14 C19D 1_555 1_555
C14 C14E 1_555 1_555
C14 C18E 1_555 1_555
C14 C19E 1_555 1_555
C15 C10B 1_555 1_555
C15 C12B 1_555 1_555
C15 C15B 1_555 1_555
C15 C18D 1_555 1_555
C15 C16E 1_555 1_555
C15 C17E 1_555 1_555
C15 C18E 1_555 1_555
C15 C19E 1_555 1_555
C16 C12B 1_555 1_555
C16 C13B 1_555 1_555
C16 C14E 1_555 1_555
C16 C16E 1_555 1_555
C17 C19B 1_555 1_555
C17 C12D 1_555 1_555
C17 C14E 1_555 1_555
C17 C15E 1_555 1_555
C18 C19 1_555 1_555
C18 C19B 1_555 1_555
C18 C10E 1_555 1_555
C18 C14E 1_555 1_555
C18 C15E 1_555 1_555
C19 C16B 1_555 1_555
C19 C19B 1_555 1_555
C19 C10D 1_555 1_555
C19 C14D 1_555 1_555
C19 C10E 1_555 1_555
C19 C11E 1_555 1_555
C19 C12E 1_555 1_555
C19 C14E 1_555 1_555
C19 C15E 1_555 1_555
C20 C18B 1_555 1_555
C20 C10D 1_555 1_555
C20 C10E 1_555 1_555
C22 C22E 1_555 1_555
C23 C22E 1_555 1_555
C23 C23L 1_555 1_555
C24 C27 1_555 1_555
C4F C5F 1_555 1_555
C6F C7F 1_555 1_555
O5B C20D 1_555 1_555
O5B Zr2B_2 1_555 1_555
O6B C20D 1_555 1_555
O7B C9D 1_555 1_555
O7B C10D 1_555 1_555
O7B Zr2E_2 1_555 1_555
O8B C9D 1_555 1_555
O8B Zr2D_3 1_555 1_555
C10B C11B 1_555 1_555
C10B C15B 1_555 1_555
C10B O7D 1_555 1_555
C10B C18D 1_555 1_555
C10B C19D 1_555 1_555
C10B C20D 1_555 1_555
C10B C17E 1_555 1_555
C10B C19E 1_555 1_555
C11B C12B 1_555 1_555
C11B C18D 1_555 1_555
C11B C19D 1_555 1_555
C11B C18E 1_555 1_555
C12B C13B 1_555 1_555
C12B C12D 1_555 1_555
C12B C19D 1_555 1_555
C12B C14E 1_555 1_555
C12B C17E 1_555 1_555
C13B C14B 1_555 1_555
C13B C19B 1_555 1_555
C13B C12D 1_555 1_555
C13B C14D 1_555 1_555
C13B C19D 1_555 1_555
C13B C16E 1_555 1_555
C14B C15B 1_555 1_555
C14B C16B 1_555 1_555
C14B C14D 1_555 1_555
C14B C16D 1_555 1_555
C14B C17D 1_555 1_555
C14B C18D 1_555 1_555
C14B C19D 1_555 1_555
C14B C12E 1_555 1_555
C14B C14E 1_555 1_555
C14B C19E 1_555 1_555
C15B C16D 1_555 1_555
C15B C17D 1_555 1_555
C15B C18D 1_555 1_555
C15B C19D 1_555 1_555
C15B C18E 1_555 1_555
C16B C17B 1_555 1_555
C16B C14D 1_555 1_555
C16B C15D 1_555 1_555
C16B C16D 1_555 1_555
C17B C18B 1_555 1_555
C17B C14D 1_555 1_555
C17B C15D 1_555 1_555
C17B C10E 1_555 1_555
C17B C12E 1_555 1_555
C18B C19B 1_555 1_555
C18B C10D 1_555 1_555
C18B C11D 1_555 1_555
C18B C14D 1_555 1_555
C18B C15D 1_555 1_555
C18B C11E 1_555 1_555
C18B C15E 1_555 1_555
C19B C10D 1_555 1_555
C19B C11D 1_555 1_555
C19B C12D 1_555 1_555
C19B C14D 1_555 1_555
C19B C15D 1_555 1_555
C19B C10E 1_555 1_555
C19B C14E 1_555 1_555
O5D C9D 1_555 1_555
O5D Zr2D_3 1_555 1_555
O6D C9D 1_555 1_555
O6D Zr2E_2 1_555 1_555
O7D C20D 1_555 1_555
O8D C20D 1_555 1_555
O8D Zr2B_2 1_555 1_555
C9D C10D 1_555 1_555
C9D O5E 1_555 1_555
C9D O6E 1_555 1_555
C9D C10E 1_555 1_555
C10D C11D 1_555 1_555
C10D C15D 1_555 1_555
C10D C15E 1_555 1_555
C11D C12D 1_555 1_555
C11D C15E 1_555 1_555
C12D C14E 1_555 1_555
C12D C15E 1_555 1_555
C12D C16E 1_555 1_555
C14D C15D 1_555 1_555
C14D C16D 1_555 1_555
C14D C12E 1_555 1_555
C14D C14E 1_555 1_555
C15D C10E 1_555 1_555
C15D C11E 1_555 1_555
C15D C12E 1_555 1_555
C15D C15E 1_555 1_555
C16D C17D 1_555 1_555
C16D C12E 1_555 1_555
C16D C19E 1_555 1_555
C17D C18D 1_555 1_555
C17D C19E 1_555 1_555
C18D C19D 1_555 1_555
C18D C20D 1_555 1_555
C18D C19E 1_555 1_555
C19D C16E 1_555 1_555
C19D C17E 1_555 1_555
C19D C18E 1_555 1_555
C19D C19E 1_555 1_555
C20D O7E 1_555 1_555
C20D O8E 1_555 1_555
C20D C18E 1_555 1_555
O5E Zr2E_2 1_555 1_555
O6E Zr2D_3 1_555 1_555
O7E Zr2B_2 1_555 1_555
C10E C11E 1_555 1_555
C10E C15E 1_555 1_555
C11E C12E 1_555 1_555
C14E C15E 1_555 1_555
C14E C16E 1_555 1_555
C16E C17E 1_555 1_555
C17E C18E 1_555 1_555
C18E C19E 1_555 1_555
C22D C22B 1_555 1_555
C23D C22B 1_555 1_555
C23D C23H 1_555 1_555
O9E Zr2E 1_555 1_555
C22E C23E 1_555 1_555
C22E C23J 1_555 1_555
C22E C23L 1_555 1_555
C23E C23J 1_555 1_555
C24E C27E 1_555 1_555
C22B C23H 1_555 1_555
C22B C23M 1_555 1_555
C22B C23B 1_555 1_555
C24B C27H 1_555 1_555
C23J C27J 1_555 1_555
C23L C27L 1_555 1_555
C23M C27M 1_555 1_555
C23M C23B 1_555 1_555
C23B C27B 1_555 1_555
O2B Zr2D 1_555 1_555
O3B Zr1B_2 1_555 1_555
C6B C7B 1_555 1_555
C4G C5G 1_555 1_555
C6G C7G 1_555 1_555
Zr2D O2D 1_555 1_555
Zr1B O2E 1_555 1_555
Zr1B O1B 1_555 1_555
Zr2E O2E 1_555 1_555
Zr2E O1D 1_555 1_555
O1D Zr2D_2 1_555 1_555
O1B Zr2B_2 1_555 1_555
O4L C1L 1_555 1_555
C6L C7L 1_555 1_555
O4K Zr2G 1_555 1_555
C4K C5K 1_555 1_555
C6K C7K 1_555 1_555
O3M Zr1_2 1_555 1_555
C6M C7M 1_555 1_555
O4I Zr2F 1_555 1_555
C4I C5I 1_555 1_555
C6I C7I 1_555 1_555
Zr1_2 O1_2 1_555 1_555
Zr1_2 O1D_2 1_555 1_555
Zr1B_2 O1B_2 1_555 1_555
Zr1B_2 O1E_2 1_555 1_555
Zr2B_2 O2B_2 1_555 1_555
Zr2B_2 O2D_2 1_555 1_555
Zr2D_2 O2B_2 1_555 1_555
Zr2D_2 O2D_2 1_555 1_555

#END
