
#######################################################################
#
#                 Cambridge Crystallographic Data Centre
#                                CCDC 
#
#######################################################################
#
# If this CIF has been generated from an entry in the Cambridge 
# Structural Database, then it will include bibliographic, chemical, 
# crystal, experimental, refinement or atomic coordinate data resulting 
# from the CCDC's data processing and validation procedures.
#
#######################################################################

data_ERANES
_chemical_formula_moiety         'C86 H52 O48 Zr16'
_symmetry_cell_setting           tetragonal
_symmetry_space_group_name_H-M   'P 42/m m c'
_symmetry_Int_Tables_number      131
_space_group_name_Hall           '-P 4c 2'
loop_
_symmetry_equiv_pos_site_id
_symmetry_equiv_pos_as_xyz
1 x,y,z
2 -y,x,1/2+z
3 -x,-y,z
4 y,-x,1/2+z
5 x,-y,-z
6 -x,y,-z
7 y,x,1/2-z
8 -y,-x,1/2-z
9 -x,-y,-z
10 y,-x,1/2-z
11 x,y,-z
12 -y,x,1/2-z
13 -x,y,z
14 x,-y,z
15 -y,-x,1/2+z
16 y,x,1/2+z
_cell_length_a                   24.378(10)
_cell_length_b                   24.378
_cell_length_c                   15.017(6)
_cell_angle_alpha                90
_cell_angle_beta                 90
_cell_angle_gamma                90
_cell_volume                     8924.41
loop_
_atom_site_label
_atom_site_type_symbol
_atom_site_fract_x
_atom_site_fract_y
_atom_site_fract_z
Zr1 Zr 0.89903(5) 0.5000 0.5000
Zr2 Zr 1.0000 0.42703(4) 0.61706(8)
O1 O 1.0495(3) 0.5000 0.6197(6)
O2 O 0.9499(3) 0.4281(4) 0.5000
O3 O 0.85281(19) 0.4455(2) 0.5889(4)
O4 O 0.9180(2) 0.3962(2) 0.6629(4)
O5 O 1.0000 0.4309(4) 0.7656(6)
C1 C 0.8681(3) 0.4080(3) 0.6400(6)
C2 C 0.8263(3) 0.3674(3) 0.6732(5)
C3 C 0.7739(3) 0.3716(3) 0.6421(5)
H1 H 0.7644 0.3994 0.6005
C4 C 0.7334(3) 0.3336(3) 0.6726(5)
C5 C 0.7466(3) 0.2942(3) 0.7325(4)
C6 C 0.8021(3) 0.2895(4) 0.7633(7)
H2 H 0.8122 0.2613 0.8037
C7 C 0.8405(3) 0.3267(3) 0.7330(7)
H3 H 0.8773 0.3242 0.7536
C8 C 0.6760(3) 0.3395(4) 0.6350(7)
H4 H 0.6749 0.3705 0.5934
H5 H 0.6500 0.3460 0.6837
H6 H 0.6658 0.3057 0.6035
O6 O 1.0000 0.3352(7) 0.5776(4)
C9 C 1.0000 0.3145(6) 0.5000
C10 C 1.0000 0.2534(6) 0.5000
C11 C 1.0000 0.2245(6) 0.5812(12)
H7 H 1.0000 0.2440 0.6360
C12 C 1.0000 0.1676(7) 0.5791(11)
C13 C 1.0000 0.1385(6) 0.5000
C14 C 1.0000 0.1369(8) 0.6658(11)
C15 C 1.0000 0.0776(6) 0.5000
C16 C 1.0000 0.0287(6) 0.5000
O3G O 0.5545(2) 0.14719(19) 0.9111(4)
O4G O 0.6038(2) 0.0820(2) 0.8371(4)
C1G C 0.5920(3) 0.1319(3) 0.8600(6)
C2G C 0.6326(3) 0.1737(3) 0.8268(5)
C3G C 0.6284(3) 0.2261(3) 0.8579(5)
H1G H 0.6006 0.2356 0.8995
C4G C 0.6664(3) 0.2666(3) 0.8274(5)
C5G C 0.7058(3) 0.2534(3) 0.7675(4)
C6G C 0.7105(4) 0.1979(3) 0.7367(7)
H2G H 0.7387 0.1878 0.6963
C7G C 0.6733(3) 0.1595(3) 0.7670(7)
H3G H 0.6758 0.1227 0.7464
C8G C 0.6605(4) 0.3240(3) 0.8650(7)
H4G H 0.6295 0.3251 0.9066
H5G H 0.6540 0.3500 0.8163
H6G H 0.6943 0.3342 0.8965
O6B O 1.0000 -0.3352(7) 0.5776(4)
C9B C 1.0000 -0.3145(6) 0.5000
C10B C 1.0000 -0.2534(6) 0.5000
C11B C 1.0000 -0.2245(6) 0.5812(12)
H7B H 1.0000 -0.2440 0.6360
C12B C 1.0000 -0.1676(7) 0.5791(11)
C13B C 1.0000 -0.1385(6) 0.5000
C14B C 1.0000 -0.1369(8) 0.6658(11)
C15B C 1.0000 -0.0776(6) 0.5000
C16B C 1.0000 -0.0287(6) 0.5000
O6D O 1.0000 -0.3352(7) 0.4224(4)
C11D C 1.0000 -0.2245(6) 0.4188(12)
H7D H 1.0000 -0.2440 0.3640
C12D C 1.0000 -0.1676(7) 0.4209(11)
C14D C 1.0000 -0.1369(8) 0.3342(11)
O6E O 1.0000 0.3352(7) 0.4224(4)
C11E C 1.0000 0.2245(6) 0.4188(12)
H7E H 1.0000 0.2440 0.3640
C12E C 1.0000 0.1676(7) 0.4209(11)
C14E C 1.0000 0.1369(8) 0.3342(11)
Zr2B Zr 1.0000 -0.42703(4) 0.61706(8)
O2B O 1.0501(3) -0.4281(4) 0.5000
O3B O 1.14719(19) -0.4455(2) 0.5889(4)
O4B O 1.0820(2) -0.3962(2) 0.6629(4)
O5B O 1.0000 -0.4309(4) 0.7656(6)
C1B C 1.1319(3) -0.4080(3) 0.6400(6)
C2B C 1.1737(3) -0.3674(3) 0.6732(5)
C3B C 1.2261(3) -0.3716(3) 0.6421(5)
H1B H 1.2356 -0.3994 0.6005
C4B C 1.2666(3) -0.3336(3) 0.6726(5)
C5B C 1.2534(3) -0.2942(3) 0.7325(4)
C6B C 1.1979(3) -0.2895(4) 0.7633(7)
H2B H 1.1878 -0.2613 0.8037
C7B C 1.1595(3) -0.3267(3) 0.7330(7)
H3B H 1.1227 -0.3242 0.7536
C8B C 1.3240(3) -0.3395(4) 0.6350(7)
H4B H 1.3251 -0.3705 0.5934
H5B H 1.3500 -0.3460 0.6837
H6B H 1.3342 -0.3057 0.6035
O3F O 1.4455(2) -0.14719(19) 0.9111(4)
O4F O 1.3962(2) -0.0820(2) 0.8371(4)
C1F C 1.4080(3) -0.1319(3) 0.8600(6)
C2F C 1.3674(3) -0.1737(3) 0.8268(5)
C3F C 1.3716(3) -0.2261(3) 0.8579(5)
H1F H 1.3994 -0.2356 0.8995
C4F C 1.3336(3) -0.2666(3) 0.8274(5)
C5F C 1.2942(3) -0.2534(3) 0.7675(4)
C6F C 1.2895(4) -0.1979(3) 0.7367(7)
H2F H 1.2613 -0.1878 0.6963
C7F C 1.3267(3) -0.1595(3) 0.7670(7)
H3F H 1.3242 -0.1227 0.7464
C8F C 1.3395(4) -0.3240(3) 0.8650(7)
H4F H 1.3705 -0.3251 0.9066
H5F H 1.3460 -0.3500 0.8163
H6F H 1.3057 -0.3342 0.8965
Zr2D Zr 1.0000 -0.42703(4) 0.38294(8)
O2D O 0.9499(3) -0.4281(4) 0.5000
O5D O 1.0000 -0.4309(4) 0.2344(6)
Zr1B Zr 1.10097(5) 0.5000 0.5000
Zr2E Zr 1.0000 0.42703(4) 0.38294(8)
O1E O 0.9505(3) 0.5000 0.3803(6)
O2E O 1.0501(3) 0.4281(4) 0.5000
O5E O 1.0000 0.4309(4) 0.2344(6)
O1D O 1.0495(3) 0.5000 0.3803(6)
O1B O 0.9505(3) 0.5000 0.6197(6)
O3L O 1.14719(19) 0.4455(2) 0.5889(4)
O4L O 1.0820(2) 0.3962(2) 0.6629(4)
C1L C 1.1319(3) 0.4080(3) 0.6400(6)
C2L C 1.1737(3) 0.3674(3) 0.6732(5)
C3L C 1.2261(3) 0.3716(3) 0.6421(5)
H1L H 1.2356 0.3994 0.6005
C4L C 1.2666(3) 0.3336(3) 0.6726(5)
C5L C 1.2534(3) 0.2942(3) 0.7325(4)
C6L C 1.1979(3) 0.2895(4) 0.7633(7)
H2L H 1.1878 0.2613 0.8037
C7L C 1.1595(3) 0.3267(3) 0.7330(7)
H3L H 1.1227 0.3242 0.7536
C8L C 1.3240(3) 0.3395(4) 0.6350(7)
H4L H 1.3251 0.3705 0.5934
H5L H 1.3500 0.3460 0.6837
H6L H 1.3342 0.3057 0.6035
O3I O 1.4455(2) 0.14719(19) 0.9111(4)
O4I O 1.3962(2) 0.0820(2) 0.8371(4)
C1I C 1.4080(3) 0.1319(3) 0.8600(6)
C2I C 1.3674(3) 0.1737(3) 0.8268(5)
C3I C 1.3716(3) 0.2261(3) 0.8579(5)
H1I H 1.3994 0.2356 0.8995
C4I C 1.3336(3) 0.2666(3) 0.8274(5)
C5I C 1.2942(3) 0.2534(3) 0.7675(4)
C6I C 1.2895(4) 0.1979(3) 0.7367(7)
H2I H 1.2613 0.1878 0.6963
C7I C 1.3267(3) 0.1595(3) 0.7670(7)
H3I H 1.3242 0.1227 0.7464
C8I C 1.3395(4) 0.3240(3) 0.8650(7)
H4I H 1.3705 0.3251 0.9066
H5I H 1.3460 0.3500 0.8163
H6I H 1.3057 0.3342 0.8965
O3M O 0.85281(19) -0.4455(2) 0.5889(4)
O4M O 0.9180(2) -0.3962(2) 0.6629(4)
C1M C 0.8681(3) -0.4080(3) 0.6400(6)
C2M C 0.8263(3) -0.3674(3) 0.6732(5)
C3M C 0.7739(3) -0.3716(3) 0.6421(5)
H1M H 0.7644 -0.3994 0.6005
C4M C 0.7334(3) -0.3336(3) 0.6726(5)
C5M C 0.7466(3) -0.2942(3) 0.7325(4)
C6M C 0.8021(3) -0.2895(4) 0.7633(7)
H2M H 0.8122 -0.2613 0.8037
C7M C 0.8405(3) -0.3267(3) 0.7330(7)
H3M H 0.8773 -0.3242 0.7536
C8M C 0.6760(3) -0.3395(4) 0.6350(7)
H4M H 0.6749 -0.3705 0.5934
H5M H 0.6500 -0.3460 0.6837
H6M H 0.6658 -0.3057 0.6035
O3K O 0.5545(2) -0.14719(19) 0.9111(4)
O4K O 0.6038(2) -0.0820(2) 0.8371(4)
C1K C 0.5920(3) -0.1319(3) 0.8600(6)
C2K C 0.6326(3) -0.1737(3) 0.8268(5)
C3K C 0.6284(3) -0.2261(3) 0.8579(5)
H1K H 0.6006 -0.2356 0.8995
C4K C 0.6664(3) -0.2666(3) 0.8274(5)
C5K C 0.7058(3) -0.2534(3) 0.7675(4)
C6K C 0.7105(4) -0.1979(3) 0.7367(7)
H2K H 0.7387 -0.1878 0.6963
C7K C 0.6733(3) -0.1595(3) 0.7670(7)
H3K H 0.6758 -0.1227 0.7464
C8K C 0.6605(4) -0.3240(3) 0.8650(7)
H4K H 0.6295 -0.3251 0.9066
H5K H 0.6540 -0.3500 0.8163
H6K H 0.6943 -0.3342 0.8965
Zr1_2 Zr 0.89903(5) -0.5000 0.5000
Zr1A Zr 0.5000 -0.10097(5) 1.0000
Zr1A_2 Zr 1.5000 -0.10097(5) 1.0000
Zr1B_2 Zr 1.10097(5) -0.5000 0.5000
Zr1C Zr 0.5000 0.10097(5) 1.0000
Zr1C_2 Zr 1.5000 0.10097(5) 1.0000
Zr2B_2 Zr 1.0000 0.57297(4) 0.61706(8)
Zr2D_2 Zr 1.0000 0.57297(4) 0.38294(8)
Zr2F Zr 1.42703(4) 0.0000 0.88294(8)
Zr2G Zr 0.57297(4) 0.0000 0.88294(8)
O1_2 O 1.0495(3) -0.5000 0.6197(6)
O1B_2 O 0.9505(3) -0.5000 0.6197(6)
O1D_2 O 1.0495(3) -0.5000 0.3803(6)
O1E_2 O 0.9505(3) -0.5000 0.3803(6)
O2B_2 O 1.0501(3) 0.5719(4) 0.5000
O2D_2 O 0.9499(3) 0.5719(4) 0.5000
O3B_2 O 1.14719(19) 0.5545(2) 0.5889(4)
O3D O 0.85281(19) 0.5545(2) 0.4111(4)
O3E O 1.14719(19) 0.4455(2) 0.4111(4)
O3H O 1.14719(19) 0.5545(2) 0.4111(4)
O3J O 0.85281(19) 0.4455(2) 0.4111(4)
O3M_2 O 0.85281(19) 0.5545(2) 0.5889(4)
O4D O 0.9180(2) -0.3962(2) 0.3371(4)
O4E O 1.0820(2) 0.3962(2) 0.3371(4)
O4H O 1.0820(2) -0.3962(2) 0.3371(4)
O4J O 0.9180(2) 0.3962(2) 0.3371(4)
loop_
_geom_bond_atom_site_label_1
_geom_bond_atom_site_label_2
_geom_bond_site_symmetry_1
_geom_bond_site_symmetry_2
Zr1 O2 1_555 1_555
Zr2 O1 1_555 1_555
O1 Zr1B 1_555 1_555
O2 Zr2 1_555 1_555
O3 Zr1 1_555 1_555
O4 Zr2 1_555 1_555
O5 Zr2 1_555 1_555
C1 O3 1_555 1_555
C2 C1 1_555 1_555
C3 C2 1_555 1_555
H1 C3 1_555 1_555
C4 C3 1_555 1_555
C5 C4 1_555 1_555
C6 C5 1_555 1_555
H2 C6 1_555 1_555
C7 C2 1_555 1_555
H3 C7 1_555 1_555
C8 C4 1_555 1_555
H4 C8 1_555 1_555
H5 C8 1_555 1_555
H6 C8 1_555 1_555
O6 Zr2 1_555 1_555
C9 O6 1_555 1_555
C10 C9 1_555 1_555
C11 C10 1_555 1_555
H7 C11 1_555 1_555
C12 C11 1_555 1_555
C13 C12 1_555 1_555
C14 C12 1_555 1_555
C15 C13 1_555 1_555
C16 C15 1_555 1_555
O3G C1G 1_555 1_555
O4G C1G 1_555 1_555
C1G C2G 1_555 1_555
C2G C3G 1_555 1_555
C3G H1G 1_555 1_555
C4G C3G 1_555 1_555
C5G C5 1_555 1_555
C6G C5G 1_555 1_555
H2G C6G 1_555 1_555
C7G C2G 1_555 1_555
H3G C7G 1_555 1_555
C8G C4G 1_555 1_555
H4G C8G 1_555 1_555
H5G C8G 1_555 1_555
H6G C8G 1_555 1_555
O6B C9B 1_555 1_555
C9B C10B 1_555 1_555
C10B C11B 1_555 1_555
C11B H7B 1_555 1_555
C12B C11B 1_555 1_555
C13B C12B 1_555 1_555
C14B C12B 1_555 1_555
C15B C13B 1_555 1_555
C16B C16 1_555 1_555
O6D C9B 1_555 1_555
C11D C10B 1_555 1_555
H7D C11D 1_555 1_555
C12D C13B 1_555 1_555
C14D C12D 1_555 1_555
O6E C9 1_555 1_555
C11E C10 1_555 1_555
H7E C11E 1_555 1_555
C12E C13 1_555 1_555
C14E C12E 1_555 1_555
Zr2B O6B 1_555 1_555
O2B Zr2B 1_555 1_555
O3B C1B 1_555 1_555
O4B Zr2B 1_555 1_555
O5B Zr2B 1_555 1_555
C1B O4B 1_555 1_555
C2B C1B 1_555 1_555
C3B C2B 1_555 1_555
H1B C3B 1_555 1_555
C4B C3B 1_555 1_555
C5B C4B 1_555 1_555
C6B C5B 1_555 1_555
H2B C6B 1_555 1_555
C7B C2B 1_555 1_555
H3B C7B 1_555 1_555
C8B C4B 1_555 1_555
H4B C8B 1_555 1_555
H5B C8B 1_555 1_555
H6B C8B 1_555 1_555
O3F C1F 1_555 1_555
O4F C1F 1_555 1_555
C1F C2F 1_555 1_555
C2F C3F 1_555 1_555
C3F H1F 1_555 1_555
C4F C3F 1_555 1_555
C5F C5B 1_555 1_555
C6F C5F 1_555 1_555
H2F C6F 1_555 1_555
C7F C2F 1_555 1_555
H3F C7F 1_555 1_555
C8F C4F 1_555 1_555
H4F C8F 1_555 1_555
H5F C8F 1_555 1_555
H6F C8F 1_555 1_555
Zr2D O6D 1_555 1_555
O2D Zr2B 1_555 1_555
O5D Zr2D 1_555 1_555
Zr1B O2E 1_555 1_555
Zr2E O2 1_555 1_555
O1E Zr1 1_555 1_555
O2E Zr2 1_555 1_555
O5E Zr2E 1_555 1_555
O1D Zr1B 1_555 1_555
O1B Zr1 1_555 1_555
O3L Zr1B 1_555 1_555
O4L Zr2 1_555 1_555
C1L O3L 1_555 1_555
C2L C1L 1_555 1_555
C3L C2L 1_555 1_555
H1L C3L 1_555 1_555
C4L C3L 1_555 1_555
C5L C4L 1_555 1_555
C6L C5L 1_555 1_555
H2L C6L 1_555 1_555
C7L C2L 1_555 1_555
H3L C7L 1_555 1_555
C8L C4L 1_555 1_555
H4L C8L 1_555 1_555
H5L C8L 1_555 1_555
H6L C8L 1_555 1_555
O3I C1I 1_555 1_555
O4I C1I 1_555 1_555
C1I C2I 1_555 1_555
C2I C3I 1_555 1_555
C3I H1I 1_555 1_555
C4I C3I 1_555 1_555
C5I C5L 1_555 1_555
C6I C5I 1_555 1_555
H2I C6I 1_555 1_555
C7I C2I 1_555 1_555
H3I C7I 1_555 1_555
C8I C4I 1_555 1_555
H4I C8I 1_555 1_555
H5I C8I 1_555 1_555
H6I C8I 1_555 1_555
O3M C1M 1_555 1_555
O4M Zr2B 1_555 1_555
C1M O4M 1_555 1_555
C2M C1M 1_555 1_555
C3M C2M 1_555 1_555
H1M C3M 1_555 1_555
C4M C3M 1_555 1_555
C5M C4M 1_555 1_555
C6M C5M 1_555 1_555
H2M C6M 1_555 1_555
C7M C2M 1_555 1_555
H3M C7M 1_555 1_555
C8M C4M 1_555 1_555
H4M C8M 1_555 1_555
H5M C8M 1_555 1_555
H6M C8M 1_555 1_555
O3K C1K 1_555 1_555
O4K C1K 1_555 1_555
C1K C2K 1_555 1_555
C2K C3K 1_555 1_555
C3K H1K 1_555 1_555
C4K C3K 1_555 1_555
C5K C5M 1_555 1_555
C6K C5K 1_555 1_555
H2K C6K 1_555 1_555
C7K C2K 1_555 1_555
H3K C7K 1_555 1_555
C8K C4K 1_555 1_555
H4K C8K 1_555 1_555
H5K C8K 1_555 1_555
H6K C8K 1_555 1_555
Zr1_2 O2D 1_555 1_555
Zr1A O3K 1_555 1_555
Zr1A_2 O3F 1_555 1_555
Zr1B_2 O2B 1_555 1_555
Zr1C O3G 1_555 1_555
Zr1C_2 O3I 1_555 1_555
Zr2B_2 O1 1_555 1_555
Zr2D_2 O1E 1_555 1_555
Zr2F O4F 1_555 1_555
Zr2G O4G 1_555 1_555
O1_2 Zr2B 1_555 1_555
O1B_2 Zr2B 1_555 1_555
O1D_2 Zr2D 1_555 1_555
O1E_2 Zr2D 1_555 1_555
O2B_2 Zr1B 1_555 1_555
O2D_2 Zr1 1_555 1_555
O3B_2 Zr1B 1_555 1_555
O3D Zr1 1_555 1_555
O3E Zr1B 1_555 1_555
O3H Zr1B 1_555 1_555
O3J Zr1 1_555 1_555
O3M_2 Zr1 1_555 1_555
O4D Zr2D 1_555 1_555
O4E Zr2E 1_555 1_555
O4H Zr2D 1_555 1_555
O4J Zr2E 1_555 1_555
Zr2 O1B 1_555 1_555
O4 C1 1_555 1_555
C6 C7 1_555 1_555
C4G C5G 1_555 1_555
C6G C7G 1_555 1_555
C15B C16B 1_555 1_555
C11D C12D 1_555 1_555
O6E Zr2E 1_555 1_555
C11E C12E 1_555 1_555
O2B Zr2D 1_555 1_555
O3B Zr1B_2 1_555 1_555
C6B C7B 1_555 1_555
C4F C5F 1_555 1_555
C6F C7F 1_555 1_555
Zr2D O2D 1_555 1_555
Zr2E O1E 1_555 1_555
Zr2E O2E 1_555 1_555
Zr2E O1D 1_555 1_555
O1D Zr2D_2 1_555 1_555
O1B Zr2B_2 1_555 1_555
O4L C1L 1_555 1_555
C6L C7L 1_555 1_555
O4I Zr2F 1_555 1_555
C4I C5I 1_555 1_555
C6I C7I 1_555 1_555
O3M Zr1_2 1_555 1_555
C6M C7M 1_555 1_555
O4K Zr2G 1_555 1_555
C4K C5K 1_555 1_555
C6K C7K 1_555 1_555
Zr1_2 O1B_2 1_555 1_555
Zr1_2 O1E_2 1_555 1_555
Zr1B_2 O1_2 1_555 1_555
Zr1B_2 O1D_2 1_555 1_555
Zr2B_2 O2B_2 1_555 1_555
Zr2B_2 O2D_2 1_555 1_555
Zr2D_2 O2B_2 1_555 1_555
Zr2D_2 O2D_2 1_555 1_555

#END
