
#######################################################################
#
#                 Cambridge Crystallographic Data Centre
#                                CCDC 
#
#######################################################################
#
# If this CIF has been generated from an entry in the Cambridge 
# Structural Database, then it will include bibliographic, chemical, 
# crystal, experimental, refinement or atomic coordinate data resulting 
# from the CCDC's data processing and validation procedures.
#
#######################################################################

data_ERANOC
_chemical_formula_moiety         'C200 H138 O96 Zr32'
_symmetry_cell_setting           tetragonal
_symmetry_space_group_name_H-M   'P 42/m n m'
_symmetry_Int_Tables_number      136
_space_group_name_Hall           '-P 4n 2n'
loop_
_symmetry_equiv_pos_site_id
_symmetry_equiv_pos_as_xyz
1 x,y,z
2 1/2-y,1/2+x,1/2+z
3 -x,-y,z
4 1/2+y,1/2-x,1/2+z
5 1/2+x,1/2-y,1/2-z
6 1/2-x,1/2+y,1/2-z
7 y,x,-z
8 -y,-x,-z
9 -x,-y,-z
10 1/2+y,1/2-x,1/2-z
11 x,y,-z
12 1/2-y,1/2+x,1/2-z
13 1/2-x,1/2+y,1/2+z
14 1/2+x,1/2-y,1/2+z
15 -y,-x,z
16 y,x,z
_cell_length_a                   33.505(13)
_cell_length_b                   33.505
_cell_length_c                   16.824(7)
_cell_angle_alpha                90
_cell_angle_beta                 90
_cell_angle_gamma                90
_cell_volume                     18886.4
loop_
_atom_site_label
_atom_site_type_symbol
_atom_site_fract_x
_atom_site_fract_y
_atom_site_fract_z
Zr1 Zr 0.69361(3) 0.79805(3) 0.0000
Zr2 Zr 0.78212(2) 0.78212(2) 0.10437(7)
Zr3 Zr 0.70871(2) 0.70871(2) 0.10389(7)
O1 O 0.71759(18) 0.7679(2) 0.1035(4)
O2 O 0.6987(3) 0.8495(2) 0.0778(5)
O3 O 0.7578(3) 0.8388(2) 0.1475(5)
O4 O 0.7520(3) 0.8050(3) 0.0000
O5 O 0.7069(3) 1.1416(2) 0.4203(5)
O6 O 0.7667(3) 1.1516(2) 0.3498(5)
O7 O 0.8285(2) 0.8285(2) 0.0790(11)
C1 C 0.7256(3) 0.8585(2) 0.1295(6)
O8 O 0.6842(3) 0.7355(3) 0.0000
C2 C 0.72435(17) 0.89954(14) 0.1642(4)
C3 C 0.75141(19) 0.91050(17) 0.2229(4)
H1 H 0.7707 0.8919 0.2411
C4 C 0.75012(19) 0.94874(19) 0.2550(4)
H2 H 0.7686 0.9563 0.2951
C5 C 0.72179(18) 0.97592(13) 0.2282(3)
C6 C 0.6948(2) 0.96490(17) 0.1695(4)
C7 C 0.6960(2) 0.92669(18) 0.1375(4)
H3 H 0.6775 0.9192 0.0973
C8 C 0.6660(8) 0.9953(4) 0.1364(17)
H4 H 0.6696 1.0207 0.1642
H5 H 0.6386 0.9858 0.1440
H6 H 0.6712 0.9990 0.0796
C9 C 0.7348(4) 1.1326(3) 0.3684(8)
C10 C 0.72987(17) 1.09260(16) 0.3287(5)
C11 C 0.75552(18) 1.08019(17) 0.2687(5)
H7 H 0.7752 1.0979 0.2486
C12 C 0.7523(2) 1.04181(19) 0.2379(4)
H8 H 0.7699 1.0333 0.1968
C13 C 0.7235(2) 1.01586(15) 0.2672(4)
C14 C 0.6979(2) 1.02827(17) 0.3273(4)
C15 C 0.70105(19) 1.06665(19) 0.3580(4)
H9 H 0.6835 1.0751 0.3991
C16 C 0.6665(4) 1.0003(3) 0.3595(8)
H10 H 0.6684 0.9745 0.3323
H11 H 0.6399 1.0118 0.3506
H12 H 0.6707 0.9965 0.4166
O9 O 0.6631(3) 0.6631(3) 0.0693(4)
C17 C 0.6525(2) 0.6525(2) 0.0000
C18 C 0.6206(2) 0.6206(2) 0.0000
C19 C 0.60592(19) 0.60592(19) 0.07153(11)
H13 H 0.6159 0.6159 0.1204
C20 C 0.57658(19) 0.57658(19) 0.07153(11)
H14 H 0.5666 0.5666 0.1204
C21 C 0.56190(19) 0.56190(19) 0.0000
C22 C 0.5301(2) 0.5301(2) 0.0000
C23 C 0.5843(3) 0.4783(3) 0.0000
H15 H 0.6006 0.5020 0.0000
H16 H 0.5901 0.4628 0.0466
C24 C 0.5394(2) 0.4885(2) 0.0000
C25 C 0.7402(3) 0.7402(3) 0.2629(7)
C26 C 0.7375(2) 0.7375(2) 0.3524(4)
C27 C 0.7615(2) 0.7615(2) 0.4000(5)
H17 H 0.7799 0.7797 0.3763
C28 C 0.75887(17) 0.75887(17) 0.4823(4)
C29 C 0.73225(17) 0.73225(17) 0.5171(4)
C30 C 0.70826(17) 0.70826(17) 0.4694(5)
H18 H 0.6898 0.6896 0.4932
C31 C 0.7109(2) 0.7109(2) 0.3872(5)
H19 H 0.6944 0.6941 0.3542
C32 C 0.7296(2) 0.7296(2) 0.5993(5)
H20 H 0.7112 0.7109 0.6232
C33 C 0.7536(2) 0.7536(2) 0.6469(4)
C34 C 0.7802(2) 0.7802(2) 0.6122(5)
H21 H 0.7967 0.7964 0.6452
C35 C 0.78285(17) 0.78285(17) 0.5299(5)
H22 H 0.8013 0.8010 0.4998
C36 C 0.7509(3) 0.7509(3) 0.7361(7)
O10 O 0.7164(4) 0.7164(4) 0.2287(9)
O11 O 0.7654(4) 0.7654(4) 0.2387(9)
O12 O 0.7258(4) 0.7258(4) 0.7608(9)
O13 O 0.7743(4) 0.7743(4) 0.7715(9)
O9F O 0.6631(3) 0.6631(3) -0.0693(4)
C19F C 0.60592(19) 0.60592(19) -0.07153(11)
H13F H 0.6159 0.6159 -0.1204
C20F C 0.57658(19) 0.57658(19) -0.07153(11)
H14F H 0.5666 0.5666 -0.1204
C23F C 0.4783(3) 0.5843(3) 0.0000
H15F H 0.5020 0.6006 0.0000
H16F H 0.4628 0.5901 -0.0466
C24F C 0.4885(2) 0.5394(2) 0.0000
O9G O 0.3369(3) 0.3369(3) -0.0693(4)
C17B C 0.3475(2) 0.3475(2) 0.0000
C18B C 0.3794(2) 0.3794(2) 0.0000
C19G C 0.39408(19) 0.39408(19) -0.07153(11)
H13G H 0.3841 0.3841 -0.1204
C20G C 0.42342(19) 0.42342(19) -0.07153(11)
H14G H 0.4334 0.4334 -0.1204
C21B C 0.43810(19) 0.43810(19) 0.0000
C22B C 0.4699(2) 0.4699(2) 0.0000
C23G C 0.5217(3) 0.4157(3) 0.0000
H15G H 0.4980 0.3994 0.0000
H16G H 0.5372 0.4099 -0.0466
C24G C 0.5115(2) 0.4606(2) 0.0000
H16J H 0.5901 0.4628 -0.0466
O9B O 0.3369(3) 0.3369(3) 0.0693(4)
C19B C 0.39408(19) 0.39408(19) 0.07153(11)
H13B H 0.3841 0.3841 0.1204
C20B C 0.42342(19) 0.42342(19) 0.07153(11)
H14B H 0.4334 0.4334 0.1204
H16N H 0.5372 0.4099 0.0466
H16O H 0.4628 0.5901 0.0466
C23B C 0.4157(3) 0.5217(3) 0.0000
H15B H 0.3994 0.4980 0.0000
H16B H 0.4099 0.5372 0.0466
C24B C 0.4606(2) 0.5115(2) 0.0000
H16H H 0.4099 0.5372 -0.0466
C25F C 0.7402(3) 0.7402(3) 0.7371(7)
C26F C 0.7375(2) 0.7375(2) 0.6476(4)
C27F C 0.7615(2) 0.7615(2) 0.6000(5)
H17F H 0.7797 0.7799 0.6237
C28F C 0.75887(17) 0.75887(17) 0.5177(4)
C29F C 0.73225(17) 0.73225(17) 0.4829(4)
C30F C 0.70826(17) 0.70826(17) 0.5306(5)
H18F H 0.6896 0.6898 0.5068
C31F C 0.7109(2) 0.7109(2) 0.6128(5)
H19F H 0.6941 0.6944 0.6458
C32F C 0.7296(2) 0.7296(2) 0.4007(5)
H20F H 0.7109 0.7112 0.3768
C33F C 0.7536(2) 0.7536(2) 0.3531(4)
C34F C 0.7802(2) 0.7802(2) 0.3878(5)
H21F H 0.7964 0.7967 0.3548
C35F C 0.78285(17) 0.78285(17) 0.4701(5)
C36F C 0.7509(3) 0.7509(3) 0.2639(7)
O10F O 0.7164(4) 0.7164(4) 0.7713(9)
O11F O 0.7654(4) 0.7654(4) 0.7613(9)
O12F O 0.7258(4) 0.7258(4) 0.2392(9)
O13F O 0.7743(4) 0.7743(4) 0.2285(9)
Zr1B Zr 0.30639(3) 0.20195(3) 0.0000
Zr2B Zr 0.21788(2) 0.21788(2) 0.10437(7)
Zr3B Zr 0.29129(2) 0.29129(2) 0.10389(7)
O1B O 0.28241(18) 0.2321(2) 0.1035(4)
O2B O 0.3013(3) 0.1505(2) 0.0778(5)
O3B O 0.2422(3) 0.1612(2) 0.1475(5)
O4B O 0.2480(3) 0.1950(3) 0.0000
O5B O 0.2931(3) -0.1416(2) 0.4203(5)
O6B O 0.2333(3) -0.1516(2) 0.3498(5)
O7B O 0.1715(2) 0.1715(2) 0.0790(11)
C1B C 0.2744(3) 0.1415(2) 0.1295(6)
O8B O 0.3158(3) 0.2645(3) 0.0000
C2B C 0.27565(17) 0.10046(14) 0.1642(4)
C3B C 0.24859(19) 0.08950(17) 0.2229(4)
H1B H 0.2293 0.1081 0.2411
C4B C 0.24988(19) 0.05126(19) 0.2550(4)
H2B H 0.2314 0.0437 0.2951
C5B C 0.27821(18) 0.02408(13) 0.2282(3)
C6B C 0.3052(2) 0.03510(17) 0.1695(4)
C7B C 0.3040(2) 0.07331(18) 0.1375(4)
H3B H 0.3225 0.0808 0.0973
C8B C 0.3340(8) 0.0047(4) 0.1364(17)
H4B H 0.3304 -0.0207 0.1642
H5B H 0.3614 0.0142 0.1440
H6B H 0.3288 0.0010 0.0796
C9B C 0.2652(4) -0.1326(3) 0.3684(8)
C10B C 0.27013(17) -0.09260(16) 0.3287(5)
C11B C 0.24448(18) -0.08019(17) 0.2687(5)
H7B H 0.2248 -0.0979 0.2486
C12B C 0.2477(2) -0.04181(19) 0.2379(4)
H8B H 0.2301 -0.0333 0.1968
C13B C 0.2765(2) -0.01586(15) 0.2672(4)
C14B C 0.3021(2) -0.02827(17) 0.3273(4)
C15B C 0.29895(19) -0.06665(19) 0.3580(4)
H9B H 0.3165 -0.0751 0.3991
C16B C 0.3335(4) -0.0003(3) 0.3595(8)
H10B H 0.3316 0.0255 0.3323
H11B H 0.3601 -0.0118 0.3506
H12B H 0.3293 0.0035 0.4166
C25B C 0.2598(3) 0.2598(3) 0.2629(7)
C26B C 0.2625(2) 0.2625(2) 0.3524(4)
C27B C 0.2385(2) 0.2385(2) 0.4000(5)
H17B H 0.2201 0.2203 0.3763
C28B C 0.24113(17) 0.24113(17) 0.4823(4)
C29B C 0.26775(17) 0.26775(17) 0.5171(4)
C30B C 0.29174(17) 0.29174(17) 0.4694(5)
H18B H 0.3102 0.3104 0.4932
C31B C 0.2891(2) 0.2891(2) 0.3872(5)
H19B H 0.3056 0.3059 0.3542
C32B C 0.2704(2) 0.2704(2) 0.5993(5)
H20B H 0.2888 0.2891 0.6232
C33B C 0.2464(2) 0.2464(2) 0.6469(4)
C34B C 0.2198(2) 0.2198(2) 0.6122(5)
H21B H 0.2033 0.2036 0.6452
C35B C 0.21715(17) 0.21715(17) 0.5299(5)
H22B H 0.1987 0.1990 0.4998
C36B C 0.2491(3) 0.2491(3) 0.7361(7)
O10B O 0.2836(4) 0.2836(4) 0.2287(9)
O11B O 0.2346(4) 0.2346(4) 0.2387(9)
O12B O 0.2742(4) 0.2742(4) 0.7608(9)
O13B O 0.2257(4) 0.2257(4) 0.7715(9)
C25G C 0.2598(3) 0.2598(3) 0.7371(7)
C26G C 0.2625(2) 0.2625(2) 0.6476(4)
C27G C 0.2385(2) 0.2385(2) 0.6000(5)
H17G H 0.2203 0.2201 0.6237
C28G C 0.24113(17) 0.24113(17) 0.5177(4)
C29G C 0.26775(17) 0.26775(17) 0.4829(4)
C30G C 0.29174(17) 0.29174(17) 0.5306(5)
H18G H 0.3104 0.3102 0.5068
C31G C 0.2891(2) 0.2891(2) 0.6128(5)
H19G H 0.3059 0.3056 0.6458
C32G C 0.2704(2) 0.2704(2) 0.4007(5)
H20G H 0.2891 0.2888 0.3768
C33G C 0.2464(2) 0.2464(2) 0.3531(4)
C34G C 0.2198(2) 0.2198(2) 0.3878(5)
H21G H 0.2036 0.2033 0.3548
C35G C 0.21715(17) 0.21715(17) 0.4701(5)
C36G C 0.2491(3) 0.2491(3) 0.2639(7)
O10G O 0.2836(4) 0.2836(4) 0.7713(9)
O11G O 0.2346(4) 0.2346(4) 0.7613(9)
O12G O 0.2742(4) 0.2742(4) 0.2392(9)
O13G O 0.2257(4) 0.2257(4) 0.2285(9)
Zr1F Zr 0.79805(3) 0.69361(3) 0.0000
Zr2F Zr 0.78212(2) 0.78212(2) -0.10437(7)
Zr3F Zr 0.70871(2) 0.70871(2) -0.10389(7)
O1F O 0.7679(2) 0.71759(18) -0.1035(4)
O2F O 0.8495(2) 0.6987(3) -0.0778(5)
O3F O 0.8388(2) 0.7578(3) -0.1475(5)
O4F O 0.8050(3) 0.7520(3) 0.0000
O5F O 1.1416(2) 0.7069(3) -0.4203(5)
O6F O 1.1516(2) 0.7667(3) -0.3498(5)
O7F O 0.8285(2) 0.8285(2) -0.0790(11)
C1F C 0.8585(2) 0.7256(3) -0.1295(6)
O8F O 0.7355(3) 0.6842(3) 0.0000
C2F C 0.89954(14) 0.72435(17) -0.1642(4)
C3F C 0.91050(17) 0.75141(19) -0.2229(4)
H1F H 0.8919 0.7707 -0.2411
C4F C 0.94874(19) 0.75012(19) -0.2550(4)
H2F H 0.9563 0.7686 -0.2951
C5F C 0.97592(13) 0.72179(18) -0.2282(3)
C6F C 0.96490(17) 0.6948(2) -0.1695(4)
C7F C 0.92669(18) 0.6960(2) -0.1375(4)
H3F H 0.9192 0.6775 -0.0973
C8F C 0.9953(4) 0.6660(8) -0.1364(17)
H4F H 1.0207 0.6696 -0.1642
H5F H 0.9858 0.6386 -0.1440
H6F H 0.9990 0.6712 -0.0796
C9F C 1.1326(3) 0.7348(4) -0.3684(8)
C10F C 1.09260(16) 0.72987(17) -0.3287(5)
C11F C 1.08019(17) 0.75552(18) -0.2687(5)
H7F H 1.0979 0.7752 -0.2486
C12F C 1.04181(19) 0.7523(2) -0.2379(4)
H8F H 1.0333 0.7699 -0.1968
C13F C 1.01586(15) 0.7235(2) -0.2672(4)
C14F C 1.02827(17) 0.6979(2) -0.3273(4)
C15F C 1.06665(19) 0.70105(19) -0.3580(4)
H9F H 1.0751 0.6835 -0.3991
C16F C 1.0003(3) 0.6665(4) -0.3595(8)
H10F H 0.9745 0.6684 -0.3323
H11F H 1.0118 0.6399 -0.3506
H12F H 0.9965 0.6707 -0.4166
Zr1G Zr 0.20195(3) 0.30639(3) 0.0000
Zr2G Zr 0.21788(2) 0.21788(2) -0.10437(7)
Zr3G Zr 0.29129(2) 0.29129(2) -0.10389(7)
O1G O 0.2321(2) 0.28241(18) -0.1035(4)
O2G O 0.1505(2) 0.3013(3) -0.0778(5)
O3G O 0.1612(2) 0.2422(3) -0.1475(5)
O4G O 0.1950(3) 0.2480(3) 0.0000
O5G O -0.1416(2) 0.2931(3) -0.4203(5)
O6G O -0.1516(2) 0.2333(3) -0.3498(5)
O7G O 0.1715(2) 0.1715(2) -0.0790(11)
C1G C 0.1415(2) 0.2744(3) -0.1295(6)
O8G O 0.2645(3) 0.3158(3) 0.0000
C2G C 0.10046(14) 0.27565(17) -0.1642(4)
C3G C 0.08950(17) 0.24859(19) -0.2229(4)
H1G H 0.1081 0.2293 -0.2411
C4G C 0.05126(19) 0.24988(19) -0.2550(4)
H2G H 0.0437 0.2314 -0.2951
C5G C 0.02408(13) 0.27821(18) -0.2282(3)
C6G C 0.03510(17) 0.3052(2) -0.1695(4)
C7G C 0.07331(18) 0.3040(2) -0.1375(4)
H3G H 0.0808 0.3225 -0.0973
C8G C 0.0047(4) 0.3340(8) -0.1364(17)
H4G H -0.0207 0.3304 -0.1642
H5G H 0.0142 0.3614 -0.1440
H6G H 0.0010 0.3288 -0.0796
C9G C -0.1326(3) 0.2652(4) -0.3684(8)
C10G C -0.09260(16) 0.27013(17) -0.3287(5)
C11G C -0.08019(17) 0.24448(18) -0.2687(5)
H7G H -0.0979 0.2248 -0.2486
C12G C -0.04181(19) 0.2477(2) -0.2379(4)
H8G H -0.0333 0.2301 -0.1968
C13G C -0.01586(15) 0.2765(2) -0.2672(4)
C14G C -0.02827(17) 0.3021(2) -0.3273(4)
C15G C -0.06665(19) 0.29895(19) -0.3580(4)
H9G H -0.0751 0.3165 -0.3991
C16G C -0.0003(3) 0.3335(4) -0.3595(8)
H10G H 0.0255 0.3316 -0.3323
H11G H -0.0118 0.3601 -0.3506
H12G H 0.0035 0.3293 -0.4166
O1H O 0.28241(18) 0.2321(2) -0.1035(4)
O2H O 0.3013(3) 0.1505(2) -0.0778(5)
O3H O 0.2422(3) 0.1612(2) -0.1475(5)
O5H O 0.2931(3) -0.1416(2) -0.4203(5)
O6H O 0.2333(3) -0.1516(2) -0.3498(5)
C1H C 0.2744(3) 0.1415(2) -0.1295(6)
C2H C 0.27565(17) 0.10046(14) -0.1642(4)
C3H C 0.24859(19) 0.08950(17) -0.2229(4)
H1H H 0.2293 0.1081 -0.2411
C4H C 0.24988(19) 0.05126(19) -0.2550(4)
H2H H 0.2314 0.0437 -0.2951
C5H C 0.27821(18) 0.02408(13) -0.2282(3)
C6H C 0.3052(2) 0.03510(17) -0.1695(4)
C7H C 0.3040(2) 0.07331(18) -0.1375(4)
H3H H 0.3225 0.0808 -0.0973
C8H C 0.3340(8) 0.0047(4) -0.1364(17)
H4H H 0.3304 -0.0207 -0.1642
H5H H 0.3614 0.0142 -0.1440
H6H H 0.3288 0.0010 -0.0796
C9H C 0.2652(4) -0.1326(3) -0.3684(8)
C10H C 0.27013(17) -0.09260(16) -0.3287(5)
C11H C 0.24448(18) -0.08019(17) -0.2687(5)
H7H H 0.2248 -0.0979 -0.2486
C12H C 0.2477(2) -0.04181(19) -0.2379(4)
H8H H 0.2301 -0.0333 -0.1968
C13H C 0.2765(2) -0.01586(15) -0.2672(4)
C14H C 0.3021(2) -0.02827(17) -0.3273(4)
C15H C 0.29895(19) -0.06665(19) -0.3580(4)
H9H H 0.3165 -0.0751 -0.3991
C16H C 0.3335(4) -0.0003(3) -0.3595(8)
H10H H 0.3316 0.0255 -0.3323
H11H H 0.3601 -0.0118 -0.3506
H12H H 0.3293 0.0035 -0.4166
O1J O 0.71759(18) 0.7679(2) -0.1035(4)
O2J O 0.6987(3) 0.8495(2) -0.0778(5)
O3J O 0.7578(3) 0.8388(2) -0.1475(5)
O5J O 0.7069(3) 1.1416(2) -0.4203(5)
O6J O 0.7667(3) 1.1516(2) -0.3498(5)
C1J C 0.7256(3) 0.8585(2) -0.1295(6)
C2J C 0.72435(17) 0.89954(14) -0.1642(4)
C3J C 0.75141(19) 0.91050(17) -0.2229(4)
H1J H 0.7707 0.8919 -0.2411
C4J C 0.75012(19) 0.94874(19) -0.2550(4)
H2J H 0.7686 0.9563 -0.2951
C5J C 0.72179(18) 0.97592(13) -0.2282(3)
C6J C 0.6948(2) 0.96490(17) -0.1695(4)
C7J C 0.6960(2) 0.92669(18) -0.1375(4)
H3J H 0.6775 0.9192 -0.0973
C8J C 0.6660(8) 0.9953(4) -0.1364(17)
H4J H 0.6696 1.0207 -0.1642
H5J H 0.6386 0.9858 -0.1440
H6J H 0.6712 0.9990 -0.0796
C9J C 0.7348(4) 1.1326(3) -0.3684(8)
C10J C 0.72987(17) 1.09260(16) -0.3287(5)
C11J C 0.75552(18) 1.08019(17) -0.2687(5)
H7J H 0.7752 1.0979 -0.2486
C12J C 0.7523(2) 1.04181(19) -0.2379(4)
H8J H 0.7699 1.0333 -0.1968
C13J C 0.7235(2) 1.01586(15) -0.2672(4)
C14J C 0.6979(2) 1.02827(17) -0.3273(4)
C15J C 0.70105(19) 1.06665(19) -0.3580(4)
H9J H 0.6835 1.0751 -0.3991
C16J C 0.6665(4) 1.0003(3) -0.3595(8)
H10J H 0.6684 0.9745 -0.3323
H11J H 0.6399 1.0118 -0.3506
H12J H 0.6707 0.9965 -0.4166
O1N O 0.2321(2) 0.28241(18) 0.1035(4)
O2N O 0.1505(2) 0.3013(3) 0.0778(5)
O3N O 0.1612(2) 0.2422(3) 0.1475(5)
O5N O -0.1416(2) 0.2931(3) 0.4203(5)
O6N O -0.1516(2) 0.2333(3) 0.3498(5)
C1N C 0.1415(2) 0.2744(3) 0.1295(6)
C2N C 0.10046(14) 0.27565(17) 0.1642(4)
C3N C 0.08950(17) 0.24859(19) 0.2229(4)
H1N H 0.1081 0.2293 0.2411
C4N C 0.05126(19) 0.24988(19) 0.2550(4)
H2N H 0.0437 0.2314 0.2951
C5N C 0.02408(13) 0.27821(18) 0.2282(3)
C6N C 0.03510(17) 0.3052(2) 0.1695(4)
C7N C 0.07331(18) 0.3040(2) 0.1375(4)
H3N H 0.0808 0.3225 0.0973
C8N C 0.0047(4) 0.3340(8) 0.1364(17)
H4N H -0.0207 0.3304 0.1642
H5N H 0.0142 0.3614 0.1440
H6N H 0.0010 0.3288 0.0796
C9N C -0.1326(3) 0.2652(4) 0.3684(8)
C10N C -0.09260(16) 0.27013(17) 0.3287(5)
C11N C -0.08019(17) 0.24448(18) 0.2687(5)
H7N H -0.0979 0.2248 0.2486
C12N C -0.04181(19) 0.2477(2) 0.2379(4)
H8N H -0.0333 0.2301 0.1968
C13N C -0.01586(15) 0.2765(2) 0.2672(4)
C14N C -0.02827(17) 0.3021(2) 0.3273(4)
C15N C -0.06665(19) 0.29895(19) 0.3580(4)
H9N H -0.0751 0.3165 0.3991
C16N C -0.0003(3) 0.3335(4) 0.3595(8)
H10N H 0.0255 0.3316 0.3323
H11N H -0.0118 0.3601 0.3506
H12N H 0.0035 0.3293 0.4166
O1O O 0.7679(2) 0.71759(18) 0.1035(4)
O2O O 0.8495(2) 0.6987(3) 0.0778(5)
O3O O 0.8388(2) 0.7578(3) 0.1475(5)
O5O O 1.1416(2) 0.7069(3) 0.4203(5)
O6O O 1.1516(2) 0.7667(3) 0.3498(5)
C1O C 0.8585(2) 0.7256(3) 0.1295(6)
C2O C 0.89954(14) 0.72435(17) 0.1642(4)
C3O C 0.91050(17) 0.75141(19) 0.2229(4)
H1O H 0.8919 0.7707 0.2411
C4O C 0.94874(19) 0.75012(19) 0.2550(4)
H2O H 0.9563 0.7686 0.2951
C5O C 0.97592(13) 0.72179(18) 0.2282(3)
C6O C 0.96490(17) 0.6948(2) 0.1695(4)
C7O C 0.92669(18) 0.6960(2) 0.1375(4)
H3O H 0.9192 0.6775 0.0973
C8O C 0.9953(4) 0.6660(8) 0.1364(17)
H4O H 1.0207 0.6696 0.1642
H5O H 0.9858 0.6386 0.1440
H6O H 0.9990 0.6712 0.0796
C9O C 1.1326(3) 0.7348(4) 0.3684(8)
C10O C 1.09260(16) 0.72987(17) 0.3287(5)
C11O C 1.08019(17) 0.75552(18) 0.2687(5)
H7O H 1.0979 0.7752 0.2486
C12O C 1.04181(19) 0.7523(2) 0.2379(4)
H8O H 1.0333 0.7699 0.1968
C13O C 1.01586(15) 0.7235(2) 0.2672(4)
C14O C 1.02827(17) 0.6979(2) 0.3273(4)
C15O C 1.06665(19) 0.70105(19) 0.3580(4)
H9O H 1.0751 0.6835 0.3991
C16O C 1.0003(3) 0.6665(4) 0.3595(8)
H10O H 0.9745 0.6684 0.3323
H11O H 1.0118 0.6399 0.3506
H12O H 0.9965 0.6707 0.4166
Zr1A Zr 0.70195(3) 1.19361(3) -0.5000
Zr1A_2 Zr 0.70195(3) 1.19361(3) 0.5000
Zr1C Zr 0.29805(3) -0.19361(3) -0.5000
Zr1C_2 Zr 0.29805(3) -0.19361(3) 0.5000
Zr1D Zr 1.19361(3) 0.70195(3) -0.5000
Zr1D_2 Zr 1.19361(3) 0.70195(3) 0.5000
Zr1E Zr -0.19361(3) 0.29805(3) -0.5000
Zr1E_2 Zr -0.19361(3) 0.29805(3) 0.5000
Zr2F_2 Zr 0.78212(2) 0.78212(2) 0.89563(7)
Zr2G_2 Zr 0.21788(2) 0.21788(2) 0.89563(7)
Zr3A Zr -0.20871(2) 0.20871(2) -0.39611(7)
Zr3A_2 Zr 0.79129(2) 1.20871(2) -0.39611(7)
Zr3C Zr 0.20871(2) -0.20871(2) -0.39611(7)
Zr3C_2 Zr 1.20871(2) 0.79129(2) -0.39611(7)
Zr3D Zr 0.20871(2) -0.20871(2) 0.39611(7)
Zr3D_2 Zr 1.20871(2) 0.79129(2) 0.39611(7)
Zr3E Zr -0.20871(2) 0.20871(2) 0.39611(7)
Zr3E_2 Zr 0.79129(2) 1.20871(2) 0.39611(7)
Zr3F_2 Zr 0.70871(2) 0.70871(2) 0.89611(7)
Zr3G_2 Zr 0.29129(2) 0.29129(2) 0.89611(7)
O5A O 0.3584(2) 0.2069(3) -0.0797(5)
O5C O 0.6416(2) 0.7931(3) -0.0797(5)
O5D O 0.2069(3) 0.3584(2) 0.0797(5)
O5E O 0.7931(3) 0.6416(2) 0.0797(5)
O5I O 0.6416(2) 0.7931(3) 0.0797(5)
O5K O 0.3584(2) 0.2069(3) 0.0797(5)
O5L O 0.7931(3) 0.6416(2) -0.0797(5)
O5M O 0.2069(3) 0.3584(2) -0.0797(5)
O6A O 0.3484(2) 0.2667(3) -0.1502(5)
O6C O 0.6516(2) 0.7333(3) -0.1502(5)
O6D O 0.2667(3) 0.3484(2) 0.1502(5)
O6E O 0.7333(3) 0.6516(2) 0.1502(5)
O6I O 0.6516(2) 0.7333(3) 0.1502(5)
O6K O 0.3484(2) 0.2667(3) 0.1502(5)
O6L O 0.7333(3) 0.6516(2) -0.1502(5)
O6M O 0.2667(3) 0.3484(2) -0.1502(5)
O10F_2 O 0.7164(4) 0.7164(4) -0.2287(9)
O10G_2 O 0.2836(4) 0.2836(4) -0.2287(9)
O11F_2 O 0.7654(4) 0.7654(4) -0.2387(9)
O11G_2 O 0.2346(4) 0.2346(4) -0.2387(9)
O12_2 O 0.7258(4) 0.7258(4) -0.2392(9)
O12B_2 O 0.2742(4) 0.2742(4) -0.2392(9)
O13_2 O 0.7743(4) 0.7743(4) -0.2285(9)
O13B_2 O 0.2257(4) 0.2257(4) -0.2285(9)
loop_
_geom_bond_atom_site_label_1
_geom_bond_atom_site_label_2
_geom_bond_site_symmetry_1
_geom_bond_site_symmetry_2
Zr1 O1 1_555 1_555
Zr2 O1 1_555 1_555
Zr3 O1 1_555 1_555
O2 Zr1 1_555 1_555
O3 Zr2 1_555 1_555
O4 Zr1 1_555 1_555
O5 C9 1_555 1_555
O6 C9 1_555 1_555
O7 Zr2 1_555 1_555
C1 O2 1_555 1_555
O8 Zr1 1_555 1_555
C2 C1 1_555 1_555
C3 C2 1_555 1_555
H1 C3 1_555 1_555
C4 C3 1_555 1_555
H2 C4 1_555 1_555
C5 C4 1_555 1_555
C6 C5 1_555 1_555
C7 C2 1_555 1_555
H3 C7 1_555 1_555
C8 C6 1_555 1_555
H4 C8 1_555 1_555
H5 C8 1_555 1_555
H6 C8 1_555 1_555
C9 C10 1_555 1_555
C10 C11 1_555 1_555
C11 H7 1_555 1_555
C12 C11 1_555 1_555
H8 C12 1_555 1_555
C13 C5 1_555 1_555
C14 C13 1_555 1_555
C15 C10 1_555 1_555
H9 C15 1_555 1_555
C16 C14 1_555 1_555
H10 C16 1_555 1_555
H11 C16 1_555 1_555
H12 C16 1_555 1_555
O9 Zr3 1_555 1_555
C17 O9 1_555 1_555
C18 C17 1_555 1_555
C19 C18 1_555 1_555
H13 C19 1_555 1_555
C20 C19 1_555 1_555
H14 C20 1_555 1_555
C21 C20 1_555 1_555
C22 C21 1_555 1_555
C23 H15 1_555 1_555
H16 C23 1_555 1_555
C24 C22 1_555 1_555
C25 C26 1_555 1_555
C26 C31 1_555 1_555
C27 H17 1_555 1_555
H17 C33F 1_555 1_555
C28 C27 1_555 1_555
C29 C32 1_555 1_555
C30 H18 1_555 1_555
H18 C30F 1_555 1_555
C31 C30 1_555 1_555
H19 C31 1_555 1_555
C32 H20 1_555 1_555
H20 C26F 1_555 1_555
C33 C34 1_555 1_555
C34 H21 1_555 1_555
C35 C34 1_555 1_555
H22 C35 1_555 1_555
C36 C33 1_555 1_555
O10 Zr3 1_555 1_555
O11 Zr2 1_555 1_555
O12 C36 1_555 1_555
O13 C36 1_555 1_555
O9F C17 1_555 1_555
C19F C18 1_555 1_555
H13F C19F 1_555 1_555
C20F C21 1_555 1_555
H14F C20F 1_555 1_555
C23F H15F 1_555 1_555
H16F C23F 1_555 1_555
C24F C22 1_555 1_555
O9G C17B 1_555 1_555
C17B C18B 1_555 1_555
C18B C19G 1_555 1_555
C19G H13G 1_555 1_555
C20G C19G 1_555 1_555
H14G C20G 1_555 1_555
C21B C20G 1_555 1_555
C22B C21B 1_555 1_555
C23G H15G 1_555 1_555
H16G C23G 1_555 1_555
C24G C24 1_555 1_555
H16J C23 1_555 1_555
O9B C17B 1_555 1_555
C19B C18B 1_555 1_555
H13B C19B 1_555 1_555
C20B C21B 1_555 1_555
H14B C20B 1_555 1_555
H16N C23G 1_555 1_555
H16O C23F 1_555 1_555
C23B H15B 1_555 1_555
H16B C23B 1_555 1_555
C24B C24F 1_555 1_555
H16H C23B 1_555 1_555
C25F C33 1_555 1_555
C26F C32 1_555 1_555
C27F C32 1_555 1_555
H17F C33 1_555 1_555
C28F C28 1_555 1_555
C29F C29 1_555 1_555
C30F C30 1_555 1_555
H18F C30 1_555 1_555
C31F C32 1_555 1_555
H19F C31F 1_555 1_555
C32F C26 1_555 1_555
H20F C26 1_555 1_555
C33F C25 1_555 1_555
C34F C27 1_555 1_555
H21F C34F 1_555 1_555
C35F C27 1_555 1_555
C36F C26 1_555 1_555
O10F C36 1_555 1_555
O11F C36 1_555 1_555
O12F Zr3 1_555 1_555
O13F Zr2 1_555 1_555
Zr1B O1B 1_555 1_555
Zr2B O1B 1_555 1_555
Zr3B O9B 1_555 1_555
O1B Zr3B 1_555 1_555
O2B Zr1B 1_555 1_555
O3B Zr2B 1_555 1_555
O4B Zr1B 1_555 1_555
O5B C9B 1_555 1_555
O6B C9B 1_555 1_555
O7B Zr2B 1_555 1_555
C1B O2B 1_555 1_555
O8B Zr1B 1_555 1_555
C2B C1B 1_555 1_555
C3B C2B 1_555 1_555
H1B C3B 1_555 1_555
C4B C3B 1_555 1_555
H2B C4B 1_555 1_555
C5B C4B 1_555 1_555
C6B C5B 1_555 1_555
C7B C2B 1_555 1_555
H3B C7B 1_555 1_555
C8B C6B 1_555 1_555
H4B C8B 1_555 1_555
H5B C8B 1_555 1_555
H6B C8B 1_555 1_555
C9B C10B 1_555 1_555
C10B C11B 1_555 1_555
C11B H7B 1_555 1_555
C12B C11B 1_555 1_555
H8B C12B 1_555 1_555
C13B C5B 1_555 1_555
C14B C13B 1_555 1_555
C15B C10B 1_555 1_555
H9B C15B 1_555 1_555
C16B C14B 1_555 1_555
H10B C16B 1_555 1_555
H11B C16B 1_555 1_555
H12B C16B 1_555 1_555
C25B C26B 1_555 1_555
C26B C31B 1_555 1_555
C27B H17B 1_555 1_555
H17B C33G 1_555 1_555
C28B C27B 1_555 1_555
C29B C32B 1_555 1_555
C30B H18B 1_555 1_555
H18B C30G 1_555 1_555
C31B C30B 1_555 1_555
H19B C31B 1_555 1_555
C32B H20B 1_555 1_555
H20B C26G 1_555 1_555
C33B C34B 1_555 1_555
C34B H21B 1_555 1_555
C35B C34B 1_555 1_555
H22B C35B 1_555 1_555
C36B C33B 1_555 1_555
O10B Zr3B 1_555 1_555
O11B Zr2B 1_555 1_555
O12B C36B 1_555 1_555
O13B C36B 1_555 1_555
C25G C33B 1_555 1_555
C26G C32B 1_555 1_555
C27G C32B 1_555 1_555
H17G C33B 1_555 1_555
C28G C28B 1_555 1_555
C29G C29B 1_555 1_555
C30G C30B 1_555 1_555
H18G C30B 1_555 1_555
C31G C32B 1_555 1_555
H19G C31G 1_555 1_555
C32G C26B 1_555 1_555
H20G C26B 1_555 1_555
C33G C25B 1_555 1_555
C34G C27B 1_555 1_555
H21G C34G 1_555 1_555
C35G C27B 1_555 1_555
C36G C26B 1_555 1_555
O10G C36B 1_555 1_555
O11G C36B 1_555 1_555
O12G Zr3B 1_555 1_555
O13G Zr2B 1_555 1_555
Zr1F O1F 1_555 1_555
Zr2F O4 1_555 1_555
Zr3F O8 1_555 1_555
O1F Zr2F 1_555 1_555
O2F Zr1F 1_555 1_555
O3F Zr2F 1_555 1_555
O4F Zr2 1_555 1_555
O5F C9F 1_555 1_555
O6F C9F 1_555 1_555
O7F Zr2F 1_555 1_555
C1F O2F 1_555 1_555
O8F Zr3 1_555 1_555
C2F C1F 1_555 1_555
C3F C2F 1_555 1_555
H1F C3F 1_555 1_555
C4F C3F 1_555 1_555
H2F C4F 1_555 1_555
C5F C4F 1_555 1_555
C6F C5F 1_555 1_555
C7F C2F 1_555 1_555
H3F C7F 1_555 1_555
C8F C6F 1_555 1_555
H4F C8F 1_555 1_555
H5F C8F 1_555 1_555
H6F C8F 1_555 1_555
C9F C10F 1_555 1_555
C10F C11F 1_555 1_555
C11F H7F 1_555 1_555
C12F C11F 1_555 1_555
H8F C12F 1_555 1_555
C13F C5F 1_555 1_555
C14F C13F 1_555 1_555
C15F C10F 1_555 1_555
H9F C15F 1_555 1_555
C16F C14F 1_555 1_555
H10F C16F 1_555 1_555
H11F C16F 1_555 1_555
H12F C16F 1_555 1_555
Zr1G O1G 1_555 1_555
Zr2G O4B 1_555 1_555
Zr3G O9G 1_555 1_555
O1G Zr2G 1_555 1_555
O2G Zr1G 1_555 1_555
O3G Zr2G 1_555 1_555
O4G Zr2B 1_555 1_555
O5G C9G 1_555 1_555
O6G C9G 1_555 1_555
O7G Zr2G 1_555 1_555
C1G O2G 1_555 1_555
O8G Zr3B 1_555 1_555
C2G C1G 1_555 1_555
C3G C2G 1_555 1_555
H1G C3G 1_555 1_555
C4G C3G 1_555 1_555
H2G C4G 1_555 1_555
C5G C4G 1_555 1_555
C6G C5G 1_555 1_555
C7G C2G 1_555 1_555
H3G C7G 1_555 1_555
C8G C6G 1_555 1_555
H4G C8G 1_555 1_555
H5G C8G 1_555 1_555
H6G C8G 1_555 1_555
C9G C10G 1_555 1_555
C10G C11G 1_555 1_555
C11G H7G 1_555 1_555
C12G C11G 1_555 1_555
H8G C12G 1_555 1_555
C13G C5G 1_555 1_555
C14G C13G 1_555 1_555
C15G C10G 1_555 1_555
H9G C15G 1_555 1_555
C16G C14G 1_555 1_555
H10G C16G 1_555 1_555
H11G C16G 1_555 1_555
H12G C16G 1_555 1_555
O1H Zr1B 1_555 1_555
O2H Zr1B 1_555 1_555
O3H Zr2G 1_555 1_555
O5H C9H 1_555 1_555
O6H C9H 1_555 1_555
C1H O2H 1_555 1_555
C2H C1H 1_555 1_555
C3H C2H 1_555 1_555
H1H C3H 1_555 1_555
C4H C3H 1_555 1_555
H2H C4H 1_555 1_555
C5H C4H 1_555 1_555
C6H C5H 1_555 1_555
C7H C2H 1_555 1_555
H3H C7H 1_555 1_555
C8H C6H 1_555 1_555
H4H C8H 1_555 1_555
H5H C8H 1_555 1_555
H6H C8H 1_555 1_555
C9H C10H 1_555 1_555
C10H C11H 1_555 1_555
C11H H7H 1_555 1_555
C12H C11H 1_555 1_555
H8H C12H 1_555 1_555
C13H C5H 1_555 1_555
C14H C13H 1_555 1_555
C15H C10H 1_555 1_555
H9H C15H 1_555 1_555
C16H C14H 1_555 1_555
H10H C16H 1_555 1_555
H11H C16H 1_555 1_555
H12H C16H 1_555 1_555
O1J Zr1 1_555 1_555
O2J Zr1 1_555 1_555
O3J Zr2F 1_555 1_555
O5J C9J 1_555 1_555
O6J C9J 1_555 1_555
C1J O2J 1_555 1_555
C2J C1J 1_555 1_555
C3J C2J 1_555 1_555
H1J C3J 1_555 1_555
C4J C3J 1_555 1_555
H2J C4J 1_555 1_555
C5J C4J 1_555 1_555
C6J C5J 1_555 1_555
C7J C2J 1_555 1_555
H3J C7J 1_555 1_555
C8J C6J 1_555 1_555
H4J C8J 1_555 1_555
H5J C8J 1_555 1_555
H6J C8J 1_555 1_555
C9J C10J 1_555 1_555
C10J C11J 1_555 1_555
C11J H7J 1_555 1_555
C12J C11J 1_555 1_555
H8J C12J 1_555 1_555
C13J C5J 1_555 1_555
C14J C13J 1_555 1_555
C15J C10J 1_555 1_555
H9J C15J 1_555 1_555
C16J C14J 1_555 1_555
H10J C16J 1_555 1_555
H11J C16J 1_555 1_555
H12J C16J 1_555 1_555
O1N Zr2B 1_555 1_555
O2N Zr1G 1_555 1_555
O3N Zr2B 1_555 1_555
O5N C9N 1_555 1_555
O6N C9N 1_555 1_555
C1N O2N 1_555 1_555
C2N C1N 1_555 1_555
C3N C2N 1_555 1_555
H1N C3N 1_555 1_555
C4N C3N 1_555 1_555
H2N C4N 1_555 1_555
C5N C4N 1_555 1_555
C6N C5N 1_555 1_555
C7N C2N 1_555 1_555
H3N C7N 1_555 1_555
C8N C6N 1_555 1_555
H4N C8N 1_555 1_555
H5N C8N 1_555 1_555
H6N C8N 1_555 1_555
C9N C10N 1_555 1_555
C10N C11N 1_555 1_555
C11N H7N 1_555 1_555
C12N C11N 1_555 1_555
H8N C12N 1_555 1_555
C13N C5N 1_555 1_555
C14N C13N 1_555 1_555
C15N C10N 1_555 1_555
H9N C15N 1_555 1_555
C16N C14N 1_555 1_555
H10N C16N 1_555 1_555
H11N C16N 1_555 1_555
H12N C16N 1_555 1_555
O1O Zr2 1_555 1_555
O2O Zr1F 1_555 1_555
O3O Zr2 1_555 1_555
O5O C9O 1_555 1_555
O6O C9O 1_555 1_555
C1O O2O 1_555 1_555
C2O C1O 1_555 1_555
C3O C2O 1_555 1_555
H1O C3O 1_555 1_555
C4O C3O 1_555 1_555
H2O C4O 1_555 1_555
C5O C4O 1_555 1_555
C6O C5O 1_555 1_555
C7O C2O 1_555 1_555
H3O C7O 1_555 1_555
C8O C6O 1_555 1_555
H4O C8O 1_555 1_555
H5O C8O 1_555 1_555
H6O C8O 1_555 1_555
C9O C10O 1_555 1_555
C10O C11O 1_555 1_555
C11O H7O 1_555 1_555
C12O C11O 1_555 1_555
H8O C12O 1_555 1_555
C13O C5O 1_555 1_555
C14O C13O 1_555 1_555
C15O C10O 1_555 1_555
H9O C15O 1_555 1_555
C16O C14O 1_555 1_555
H10O C16O 1_555 1_555
H11O C16O 1_555 1_555
H12O C16O 1_555 1_555
Zr1A O5J 1_555 1_555
Zr1A_2 O5 1_555 1_555
Zr1C O5H 1_555 1_555
Zr1C_2 O5B 1_555 1_555
Zr1D O5F 1_555 1_555
Zr1D_2 O5O 1_555 1_555
Zr1E O5G 1_555 1_555
Zr1E_2 O5N 1_555 1_555
Zr2F_2 O13 1_555 1_555
Zr2G_2 O13B 1_555 1_555
Zr3A O6G 1_555 1_555
Zr3A_2 O6J 1_555 1_555
Zr3C O6H 1_555 1_555
Zr3C_2 O6F 1_555 1_555
Zr3D O6B 1_555 1_555
Zr3D_2 O6O 1_555 1_555
Zr3E O6N 1_555 1_555
Zr3E_2 O6 1_555 1_555
Zr3F_2 O12 1_555 1_555
Zr3G_2 O12B 1_555 1_555
O5A Zr1B 1_555 1_555
O5C Zr1 1_555 1_555
O5D Zr1G 1_555 1_555
O5E Zr1F 1_555 1_555
O5I Zr1 1_555 1_555
O5K Zr1B 1_555 1_555
O5L Zr1F 1_555 1_555
O5M Zr1G 1_555 1_555
O6A Zr3G 1_555 1_555
O6C Zr3F 1_555 1_555
O6D Zr3B 1_555 1_555
O6E Zr3 1_555 1_555
O6I Zr3 1_555 1_555
O6K Zr3B 1_555 1_555
O6L Zr3F 1_555 1_555
O6M Zr3G 1_555 1_555
O10F_2 Zr3F 1_555 1_555
O10G_2 Zr3G 1_555 1_555
O11F_2 Zr2F 1_555 1_555
O11G_2 Zr2G 1_555 1_555
O12_2 Zr3F 1_555 1_555
O12B_2 Zr3G 1_555 1_555
O13_2 Zr2F 1_555 1_555
O13B_2 Zr2G 1_555 1_555
Zr2 O4 1_555 1_555
Zr3 O8 1_555 1_555
Zr3 O1O 1_555 1_555
O3 C1 1_555 1_555
C6 C7 1_555 1_555
C12 C13 1_555 1_555
C14 C15 1_555 1_555
C23 C24 1_555 1_555
C25 O10 1_555 1_555
C25 O11 1_555 1_555
C25 O12F 1_555 1_555
C25 O13F 1_555 1_555
C26 C33F 1_555 1_555
C27 C32F 1_555 1_555
C27 C33F 1_555 1_555
C30 C32F 1_555 1_555
C31 C32F 1_555 1_555
C32 C30F 1_555 1_555
C33 C26F 1_555 1_555
C33 C27F 1_555 1_555
C34 C27F 1_555 1_555
C35 C27F 1_555 1_555
C35 C35F 1_555 1_555
H22 C35F 1_555 1_555
C36 C26F 1_555 1_555
O10 C36F 1_555 1_555
O11 C36F 1_555 1_555
O12 C25F 1_555 1_555
O13 C25F 1_555 1_555
O9F Zr3F 1_555 1_555
C19F C20F 1_555 1_555
C23F C24F 1_555 1_555
C22B C24G 1_555 1_555
C22B C24B 1_555 1_555
C23G C24G 1_555 1_555
C19B C20B 1_555 1_555
C23B C24B 1_555 1_555
C25F C26F 1_555 1_555
C25F O10F 1_555 1_555
C25F O11F 1_555 1_555
C26F C31F 1_555 1_555
C27F H17F 1_555 1_555
C27F C28F 1_555 1_555
C29F C32F 1_555 1_555
C30F H18F 1_555 1_555
C30F C31F 1_555 1_555
C32F H20F 1_555 1_555
C33F C34F 1_555 1_555
C33F C36F 1_555 1_555
C34F C35F 1_555 1_555
C36F O12F 1_555 1_555
C36F O13F 1_555 1_555
O10F Zr3F_2 1_555 1_555
O11F Zr2F_2 1_555 1_555
Zr2B O4B 1_555 1_555
Zr3B O8B 1_555 1_555
Zr3B O1N 1_555 1_555
O3B C1B 1_555 1_555
O8B Zr3G 1_555 1_555
C6B C7B 1_555 1_555
C12B C13B 1_555 1_555
C14B C15B 1_555 1_555
C25B O10B 1_555 1_555
C25B O11B 1_555 1_555
C25B O12G 1_555 1_555
C25B O13G 1_555 1_555
C26B C33G 1_555 1_555
C27B C32G 1_555 1_555
C27B C33G 1_555 1_555
C30B C32G 1_555 1_555
C31B C32G 1_555 1_555
C32B C30G 1_555 1_555
C33B C26G 1_555 1_555
C33B C27G 1_555 1_555
C34B C27G 1_555 1_555
C35B C27G 1_555 1_555
C35B C35G 1_555 1_555
H22B C35G 1_555 1_555
C36B C26G 1_555 1_555
O10B C36G 1_555 1_555
O11B C36G 1_555 1_555
O12B C25G 1_555 1_555
O13B C25G 1_555 1_555
C25G C26G 1_555 1_555
C25G O10G 1_555 1_555
C25G O11G 1_555 1_555
C26G C31G 1_555 1_555
C27G H17G 1_555 1_555
C27G C28G 1_555 1_555
C29G C32G 1_555 1_555
C30G H18G 1_555 1_555
C30G C31G 1_555 1_555
C32G H20G 1_555 1_555
C33G C34G 1_555 1_555
C33G C36G 1_555 1_555
C34G C35G 1_555 1_555
C36G O12G 1_555 1_555
C36G O13G 1_555 1_555
O10G Zr3G_2 1_555 1_555
O11G Zr2G_2 1_555 1_555
Zr1F O4F 1_555 1_555
Zr1F O8F 1_555 1_555
Zr1F O1O 1_555 1_555
Zr2F O4F 1_555 1_555
Zr2F O1J 1_555 1_555
Zr3F O1F 1_555 1_555
Zr3F O8F 1_555 1_555
Zr3F O1J 1_555 1_555
O3F C1F 1_555 1_555
C6F C7F 1_555 1_555
C12F C13F 1_555 1_555
C14F C15F 1_555 1_555
Zr1G O4G 1_555 1_555
Zr1G O8G 1_555 1_555
Zr1G O1N 1_555 1_555
Zr2G O4G 1_555 1_555
Zr2G O1H 1_555 1_555
Zr3G O1G 1_555 1_555
Zr3G O8G 1_555 1_555
Zr3G O1H 1_555 1_555
O3G C1G 1_555 1_555
C6G C7G 1_555 1_555
C12G C13G 1_555 1_555
C14G C15G 1_555 1_555
O3H C1H 1_555 1_555
C6H C7H 1_555 1_555
C12H C13H 1_555 1_555
C14H C15H 1_555 1_555
O3J C1J 1_555 1_555
C6J C7J 1_555 1_555
C12J C13J 1_555 1_555
C14J C15J 1_555 1_555
O3N C1N 1_555 1_555
C6N C7N 1_555 1_555
C12N C13N 1_555 1_555
C14N C15N 1_555 1_555
O3O C1O 1_555 1_555
C6O C7O 1_555 1_555
C12O C13O 1_555 1_555
C14O C15O 1_555 1_555

#END
