
#######################################################################
#
#                 Cambridge Crystallographic Data Centre
#                                CCDC 
#
#######################################################################
#
# If this CIF has been generated from an entry in the Cambridge 
# Structural Database, then it will include bibliographic, chemical, 
# crystal, experimental, refinement or atomic coordinate data resulting 
# from the CCDC's data processing and validation procedures.
#
#######################################################################

data_ERANIW
_chemical_formula_moiety         'C94 H68 O44 Zr18'
_symmetry_cell_setting           tetragonal
_symmetry_space_group_name_H-M   'P 42/m m c'
_symmetry_Int_Tables_number      131
_space_group_name_Hall           '-P 4c 2'
loop_
_symmetry_equiv_pos_site_id
_symmetry_equiv_pos_as_xyz
1 x,y,z
2 -y,x,1/2+z
3 -x,-y,z
4 y,-x,1/2+z
5 x,-y,-z
6 -x,y,-z
7 y,x,1/2-z
8 -y,-x,1/2-z
9 -x,-y,-z
10 y,-x,1/2-z
11 x,y,-z
12 -y,x,1/2-z
13 -x,y,z
14 x,-y,z
15 -y,-x,1/2+z
16 y,x,1/2+z
_cell_length_a                   24.288(11)
_cell_length_b                   24.288
_cell_length_c                   14.859(7)
_cell_angle_alpha                90
_cell_angle_beta                 90
_cell_angle_gamma                90
_cell_volume                     8765.43
loop_
_atom_site_label
_atom_site_type_symbol
_atom_site_fract_x
_atom_site_fract_y
_atom_site_fract_z
Zr1 Zr 0.10133(5) 0.5000 0.5000
Zr2 Zr -0.0000 0.57232(4) 0.61821(7)
O1 O 0.0502(3) 0.5000 0.3820(6)
O2 O 0.0499(3) 0.4289(4) 0.5000
O3 O 0.1480(2) 0.5548(2) 0.5886(4)
O4 O 0.0806(3) 0.6033(2) 0.6658(5)
C1 C 0.1317(5) 0.5920(4) 0.6387(8)
C2 C 0.1564(2) 0.6772(3) 0.7305(5)
H1 H 0.1192 0.6815 0.7490
C3 C 0.1710(2) 0.6339(2) 0.6741(5)
C4 C 0.2506(2) 0.7078(2) 0.73290(15)
C5 C 0.1962(3) 0.7142(2) 0.7599(4)
H2 H 0.1862 0.7437 0.7984
C6 C 0.2254(3) 0.6276(2) 0.6471(5)
H3 H 0.2354 0.5980 0.6086
C7 C 0.2652(2) 0.6645(2) 0.6765(4)
C8 C 0.3242(3) 0.6575(4) 0.6470(7)
H4 H 0.3253 0.6378 0.5895
H5 H 0.3444 0.6363 0.6925
H6 H 0.3414 0.6938 0.6400
O5 O 0.0000 0.5496(2) 0.7743(5)
C9 C 0.0000 0.5000 0.8028(6)
C10 C -0.0000 0.5000 0.90635(15)
C11 C 0.0000 0.54957(2) 0.95321(3)
H7 H -0.0000 0.5834 0.9213
O6 O 0.0000 0.6661(14) 0.5811(9)
C12 C 0.0000 0.6826(2) 0.5000
C13 C 0.0000 0.7453(3) 0.5000
C14 C -0.0000 0.7739(3) 0.58103(3)
H8 H 0.0000 0.7543 0.6364
C15 C 0.0000 0.8311(3) 0.58103(3)
C16 C 0.0000 0.8632(15) 0.6678(15)
H9 H -0.0000 0.9020 0.6554
H10 H -0.0323 0.8538 0.7018
C17 C 0.0000 0.8597(3) 0.5000
C18 C 0.0000 0.9209(3) 0.5000
C19 C 0.0000 0.9699(3) 0.5000
O3G O 0.4452(2) 0.8520(2) 0.9114(4)
O4G O 0.3967(2) 0.9194(3) 0.8342(5)
C1G C 0.4080(4) 0.8683(5) 0.8613(8)
C2G C 0.3228(3) 0.8436(2) 0.7695(5)
H1G H 0.3185 0.8808 0.7510
C3G C 0.3661(2) 0.8290(2) 0.8259(5)
C4G C 0.2922(2) 0.7494(2) 0.76710(15)
C5G C 0.2858(2) 0.8038(3) 0.7401(4)
H2G H 0.2563 0.8138 0.7016
C6G C 0.3724(2) 0.7746(3) 0.8529(5)
H3G H 0.4020 0.7646 0.8914
C7G C 0.3355(2) 0.7348(2) 0.8235(4)
C8G C 0.3425(4) 0.6758(3) 0.8530(7)
H4G H 0.3622 0.6747 0.9105
H5G H 0.3637 0.6556 0.8075
H6G H 0.3062 0.6586 0.8600
O5B O -0.0000 0.4504(2) 0.7743(5)
C11B C 0.0000 0.45043(2) 0.95321(3)
H7B H 0.0000 0.4166 0.9213
O5D O -0.0000 0.4504(2) 1.2257(5)
C9D C -0.0000 0.5000 1.1972(6)
C10D C 0.0000 0.5000 1.09365(15)
C11D C -0.0000 0.45043(2) 1.04679(3)
H7D H 0.0000 0.4166 1.0787
O5E O 0.0000 0.5496(2) 1.2257(5)
C11E C -0.0000 0.54957(2) 1.04679(3)
H7E H -0.0000 0.5834 1.0787
O6B O -0.0000 1.3339(14) 0.5811(9)
C12B C 0.0000 1.3174(2) 0.5000
C13B C 0.0000 1.2547(3) 0.5000
C14B C -0.0000 1.2261(3) 0.58103(3)
H8B H -0.0000 1.2457 0.6364
C15B C -0.0000 1.1689(3) 0.58103(3)
C16B C 0.0000 1.1368(15) 0.6678(15)
H9B H 0.0000 1.0980 0.6554
H10B H 0.0323 1.1462 0.7018
C17B C 0.0000 1.1403(3) 0.5000
C18B C 0.0000 1.0791(3) 0.5000
C19B C 0.0000 1.0301(3) 0.5000
O6D O -0.0000 1.3339(14) 0.4189(9)
C14D C 0.0000 1.2261(3) 0.41897(3)
H8D H 0.0000 1.2457 0.3636
C15D C 0.0000 1.1689(3) 0.41897(3)
C16D C 0.0000 1.1368(15) 0.3322(15)
H9D H 0.0000 1.0980 0.3446
H10D H -0.0323 1.1462 0.2982
O6E O 0.0000 0.6661(14) 0.4189(9)
C14E C 0.0000 0.7739(3) 0.41897(3)
H8E H 0.0000 0.7543 0.3636
C15E C 0.0000 0.8311(3) 0.41897(3)
C16E C -0.0000 0.8632(15) 0.3322(15)
H9E H 0.0000 0.9020 0.3446
H10E H 0.0323 0.8538 0.2982
H10H H 0.0323 1.1462 0.2982
H10J H -0.0323 0.8538 0.2982
H10L H 0.0323 0.8538 0.7018
H10M H -0.0323 1.1462 0.7018
Zr1B Zr -0.10133(5) 0.5000 0.5000
Zr2B Zr -0.0000 0.42768(4) 0.61821(7)
O1B O -0.0502(3) 0.5000 0.3820(6)
O2B O -0.0499(3) 0.5711(4) 0.5000
O3B O -0.1480(2) 0.4452(2) 0.5886(4)
O4B O -0.0806(3) 0.3967(2) 0.6658(5)
C1B C -0.1317(5) 0.4080(4) 0.6387(8)
C2B C -0.1564(2) 0.3228(3) 0.7305(5)
H1B H -0.1192 0.3185 0.7490
C3B C -0.1710(2) 0.3661(2) 0.6741(5)
C4B C -0.2506(2) 0.2922(2) 0.73290(15)
C5B C -0.1962(3) 0.2858(2) 0.7599(4)
H2B H -0.1862 0.2563 0.7984
C6B C -0.2254(3) 0.3724(2) 0.6471(5)
H3B H -0.2354 0.4020 0.6086
C7B C -0.2652(2) 0.3355(2) 0.6765(4)
C8B C -0.3242(3) 0.3425(4) 0.6470(7)
H4B H -0.3253 0.3622 0.5895
H5B H -0.3444 0.3637 0.6925
H6B H -0.3414 0.3062 0.6400
O3F O -0.4452(2) 0.1480(2) 0.9114(4)
O4F O -0.3967(2) 0.0806(3) 0.8342(5)
C1F C -0.4080(4) 0.1317(5) 0.8613(8)
C2F C -0.3228(3) 0.1564(2) 0.7695(5)
H1F H -0.3185 0.1192 0.7510
C3F C -0.3661(2) 0.1710(2) 0.8259(5)
C4F C -0.2922(2) 0.2506(2) 0.76710(15)
C5F C -0.2858(2) 0.1962(3) 0.7401(4)
H2F H -0.2563 0.1862 0.7016
C6F C -0.3724(2) 0.2254(3) 0.8529(5)
H3F H -0.4020 0.2354 0.8914
C7F C -0.3355(2) 0.2652(2) 0.8235(4)
C8F C -0.3425(4) 0.3242(3) 0.8530(7)
H4F H -0.3622 0.3253 0.9105
H5F H -0.3637 0.3444 0.8075
H6F H -0.3062 0.3414 0.8600
Zr2D Zr 0.0000 0.42768(4) 0.38179(7)
O1D O 0.0502(3) 0.5000 0.6180(6)
O2D O 0.0499(3) 0.5711(4) 0.5000
Zr2E Zr -0.0000 0.57232(4) 0.38179(7)
O1E O -0.0502(3) 0.5000 0.6180(6)
O2E O -0.0499(3) 0.4289(4) 0.5000
O3L O -0.1480(2) 0.5548(2) 0.5886(4)
O4L O -0.0806(3) 0.6033(2) 0.6658(5)
C1L C -0.1317(5) 0.5920(4) 0.6387(8)
C2L C -0.1564(2) 0.6772(3) 0.7305(5)
H1L H -0.1192 0.6815 0.7490
C3L C -0.1710(2) 0.6339(2) 0.6741(5)
C4L C -0.2506(2) 0.7078(2) 0.73290(15)
C5L C -0.1962(3) 0.7142(2) 0.7599(4)
H2L H -0.1862 0.7437 0.7984
C6L C -0.2254(3) 0.6276(2) 0.6471(5)
H3L H -0.2354 0.5980 0.6086
C7L C -0.2652(2) 0.6645(2) 0.6765(4)
C8L C -0.3242(3) 0.6575(4) 0.6470(7)
H4L H -0.3253 0.6378 0.5895
H5L H -0.3444 0.6363 0.6925
H6L H -0.3414 0.6938 0.6400
O3I O -0.4452(2) 0.8520(2) 0.9114(4)
O4I O -0.3967(2) 0.9194(3) 0.8342(5)
C1I C -0.4080(4) 0.8683(5) 0.8613(8)
C2I C -0.3228(3) 0.8436(2) 0.7695(5)
H1I H -0.3185 0.8808 0.7510
C3I C -0.3661(2) 0.8290(2) 0.8259(5)
C4I C -0.2922(2) 0.7494(2) 0.76710(15)
C5I C -0.2858(2) 0.8038(3) 0.7401(4)
H2I H -0.2563 0.8138 0.7016
C6I C -0.3724(2) 0.7746(3) 0.8529(5)
H3I H -0.4020 0.7646 0.8914
C7I C -0.3355(2) 0.7348(2) 0.8235(4)
C8I C -0.3425(4) 0.6758(3) 0.8530(7)
H4I H -0.3622 0.6747 0.9105
H5I H -0.3637 0.6556 0.8075
H6I H -0.3062 0.6586 0.8600
O3M O 0.1480(2) 0.4452(2) 0.5886(4)
O4M O 0.0806(3) 0.3967(2) 0.6658(5)
C1M C 0.1317(5) 0.4080(4) 0.6387(8)
C2M C 0.1564(2) 0.3228(3) 0.7305(5)
H1M H 0.1192 0.3185 0.7490
C3M C 0.1710(2) 0.3661(2) 0.6741(5)
C4M C 0.2506(2) 0.2922(2) 0.73290(15)
C5M C 0.1962(3) 0.2858(2) 0.7599(4)
H2M H 0.1862 0.2563 0.7984
C6M C 0.2254(3) 0.3724(2) 0.6471(5)
H3M H 0.2354 0.4020 0.6086
C7M C 0.2652(2) 0.3355(2) 0.6765(4)
C8M C 0.3242(3) 0.3425(4) 0.6470(7)
H4M H 0.3253 0.3622 0.5895
H5M H 0.3444 0.3637 0.6925
H6M H 0.3414 0.3062 0.6400
O3K O 0.4452(2) 0.1480(2) 0.9114(4)
O4K O 0.3967(2) 0.0806(3) 0.8342(5)
C1K C 0.4080(4) 0.1317(5) 0.8613(8)
C2K C 0.3228(3) 0.1564(2) 0.7695(5)
H1K H 0.3185 0.1192 0.7510
C3K C 0.3661(2) 0.1710(2) 0.8259(5)
C4K C 0.2922(2) 0.2506(2) 0.76710(15)
C5K C 0.2858(2) 0.1962(3) 0.7401(4)
H2K H 0.2563 0.1862 0.7016
C6K C 0.3724(2) 0.2254(3) 0.8529(5)
H3K H 0.4020 0.2354 0.8914
C7K C 0.3355(2) 0.2652(2) 0.8235(4)
C8K C 0.3425(4) 0.3242(3) 0.8530(7)
H4K H 0.3622 0.3253 0.9105
H5K H 0.3637 0.3444 0.8075
H6K H 0.3062 0.3414 0.8600
Zr1A Zr -0.5000 0.10133(5) 1.0000
Zr1A_2 Zr 0.5000 0.10133(5) 1.0000
Zr1C Zr -0.5000 0.89867(5) 1.0000
Zr1C_2 Zr 0.5000 0.89867(5) 1.0000
Zr2B_2 Zr 0.0000 1.42768(4) 0.61821(7)
Zr2D_2 Zr -0.0000 0.42768(4) 1.38179(7)
Zr2D_3 Zr 0.0000 1.42768(4) 0.38179(7)
Zr2E_2 Zr 0.0000 0.57232(4) 1.38179(7)
Zr2F Zr -0.42768(4) 0.0000 0.88179(7)
Zr2F_2 Zr -0.42768(4) 1.0000 0.88179(7)
Zr2G Zr 0.42768(4) 0.0000 0.88179(7)
Zr2G_2 Zr 0.42768(4) 1.0000 0.88179(7)
O3D O 0.1480(2) 0.4452(2) 0.4114(4)
O3E O -0.1480(2) 0.5548(2) 0.4114(4)
O3H O -0.1480(2) 0.4452(2) 0.4114(4)
O3J O 0.1480(2) 0.5548(2) 0.4114(4)
O4D O 0.0806(3) 0.3967(2) 0.3342(5)
O4E O -0.0806(3) 0.6033(2) 0.3342(5)
O4H O -0.0806(3) 0.3967(2) 0.3342(5)
O4J O 0.0806(3) 0.6033(2) 0.3342(5)
O5D_2 O -0.0000 0.4504(2) 0.2257(5)
O5E_2 O -0.0000 0.5496(2) 0.2257(5)
O6B_2 O 0.0000 0.3339(14) 0.5811(9)
O6D_2 O -0.0000 0.3339(14) 0.4189(9)
loop_
_geom_bond_atom_site_label_1
_geom_bond_atom_site_label_2
_geom_bond_site_symmetry_1
_geom_bond_site_symmetry_2
Zr1 O1 1_555 1_555
Zr2 O4 1_555 1_555
O1 Zr2D 1_555 1_555
O2 Zr1 1_555 1_555
O3 Zr1 1_555 1_555
O4 C1 1_555 1_555
C1 O3 1_555 1_555
C2 H1 1_555 1_555
C3 C1 1_555 1_555
C4 C5 1_555 1_555
C5 C2 1_555 1_555
H2 C5 1_555 1_555
C6 C3 1_555 1_555
H3 C6 1_555 1_555
C7 C4 1_555 1_555
C8 C7 1_555 1_555
H4 C8 1_555 1_555
H5 C8 1_555 1_555
H6 C8 1_555 1_555
O5 Zr2 1_555 1_555
C9 O5 1_555 1_555
C10 C9 1_555 1_555
C11 C10 1_555 1_555
H7 C11 1_555 1_555
O6 Zr2 1_555 1_555
C12 O6 1_555 1_555
C13 C12 1_555 1_555
C14 C13 1_555 1_555
H8 C14 1_555 1_555
C15 C14 1_555 1_555
C16 C15 1_555 1_555
H9 C16 1_555 1_555
H10 C16 1_555 1_555
C17 C15 1_555 1_555
C18 C17 1_555 1_555
C19 C18 1_555 1_555
O3G C1G 1_555 1_555
O4G C1G 1_555 1_555
C1G C3G 1_555 1_555
C2G H1G 1_555 1_555
C3G C2G 1_555 1_555
C4G C4 1_555 1_555
C5G C2G 1_555 1_555
H2G C5G 1_555 1_555
C6G C3G 1_555 1_555
H3G C6G 1_555 1_555
C7G C4G 1_555 1_555
C8G C7G 1_555 1_555
H4G C8G 1_555 1_555
H5G C8G 1_555 1_555
H6G C8G 1_555 1_555
O5B C9 1_555 1_555
C11B C10 1_555 1_555
H7B C11B 1_555 1_555
O5D C9D 1_555 1_555
C9D C10D 1_555 1_555
C10D C11D 1_555 1_555
C11D C11B 1_555 1_555
H7D C11D 1_555 1_555
O5E C9D 1_555 1_555
C11E C11 1_555 1_555
H7E C11E 1_555 1_555
O6B C12B 1_555 1_555
C12B C13B 1_555 1_555
C13B C14B 1_555 1_555
C14B H8B 1_555 1_555
C15B C14B 1_555 1_555
C16B C15B 1_555 1_555
H9B C16B 1_555 1_555
H10B C16B 1_555 1_555
C17B C15B 1_555 1_555
C18B C17B 1_555 1_555
C19B C19 1_555 1_555
O6D C12B 1_555 1_555
C14D C13B 1_555 1_555
H8D C14D 1_555 1_555
C15D C17B 1_555 1_555
C16D C15D 1_555 1_555
H9D C16D 1_555 1_555
H10D C16D 1_555 1_555
O6E C12 1_555 1_555
C14E C13 1_555 1_555
H8E C14E 1_555 1_555
C15E C17 1_555 1_555
C16E C15E 1_555 1_555
H9E C16E 1_555 1_555
H10E C16E 1_555 1_555
H10H C16D 1_555 1_555
H10J C16E 1_555 1_555
H10L C16 1_555 1_555
H10M C16B 1_555 1_555
Zr1B O1B 1_555 1_555
Zr2B O2 1_555 1_555
O1B Zr2D 1_555 1_555
O2B Zr2 1_555 1_555
O3B Zr1B 1_555 1_555
O4B Zr2B 1_555 1_555
C1B O3B 1_555 1_555
C2B H1B 1_555 1_555
C3B C1B 1_555 1_555
C4B C5B 1_555 1_555
C5B C2B 1_555 1_555
H2B C5B 1_555 1_555
C6B C3B 1_555 1_555
H3B C6B 1_555 1_555
C7B C4B 1_555 1_555
C8B C7B 1_555 1_555
H4B C8B 1_555 1_555
H5B C8B 1_555 1_555
H6B C8B 1_555 1_555
O3F C1F 1_555 1_555
O4F C1F 1_555 1_555
C1F C3F 1_555 1_555
C2F H1F 1_555 1_555
C3F C2F 1_555 1_555
C4F C4B 1_555 1_555
C5F C2F 1_555 1_555
H2F C5F 1_555 1_555
C6F C3F 1_555 1_555
H3F C6F 1_555 1_555
C7F C4F 1_555 1_555
C8F C7F 1_555 1_555
H4F C8F 1_555 1_555
H5F C8F 1_555 1_555
H6F C8F 1_555 1_555
Zr2D O2 1_555 1_555
O1D Zr1 1_555 1_555
O2D Zr1 1_555 1_555
Zr2E O1 1_555 1_555
O1E Zr2 1_555 1_555
O2E Zr1B 1_555 1_555
O3L Zr1B 1_555 1_555
O4L Zr2 1_555 1_555
C1L O3L 1_555 1_555
C2L H1L 1_555 1_555
C3L C1L 1_555 1_555
C4L C5L 1_555 1_555
C5L C2L 1_555 1_555
H2L C5L 1_555 1_555
C6L C3L 1_555 1_555
H3L C6L 1_555 1_555
C7L C4L 1_555 1_555
C8L C7L 1_555 1_555
H4L C8L 1_555 1_555
H5L C8L 1_555 1_555
H6L C8L 1_555 1_555
O3I C1I 1_555 1_555
O4I C1I 1_555 1_555
C1I C3I 1_555 1_555
C2I H1I 1_555 1_555
C3I C2I 1_555 1_555
C4I C4L 1_555 1_555
C5I C2I 1_555 1_555
H2I C5I 1_555 1_555
C6I C3I 1_555 1_555
H3I C6I 1_555 1_555
C7I C4I 1_555 1_555
C8I C7I 1_555 1_555
H4I C8I 1_555 1_555
H5I C8I 1_555 1_555
H6I C8I 1_555 1_555
O3M Zr1 1_555 1_555
O4M Zr2B 1_555 1_555
C1M O3M 1_555 1_555
C2M H1M 1_555 1_555
C3M C1M 1_555 1_555
C4M C5M 1_555 1_555
C5M C2M 1_555 1_555
H2M C5M 1_555 1_555
C6M C3M 1_555 1_555
H3M C6M 1_555 1_555
C7M C4M 1_555 1_555
C8M C7M 1_555 1_555
H4M C8M 1_555 1_555
H5M C8M 1_555 1_555
H6M C8M 1_555 1_555
O3K C1K 1_555 1_555
O4K C1K 1_555 1_555
C1K C3K 1_555 1_555
C2K H1K 1_555 1_555
C3K C2K 1_555 1_555
C4K C4M 1_555 1_555
C5K C2K 1_555 1_555
H2K C5K 1_555 1_555
C6K C3K 1_555 1_555
H3K C6K 1_555 1_555
C7K C4K 1_555 1_555
C8K C7K 1_555 1_555
H4K C8K 1_555 1_555
H5K C8K 1_555 1_555
H6K C8K 1_555 1_555
Zr1A O3F 1_555 1_555
Zr1A_2 O3K 1_555 1_555
Zr1C O3I 1_555 1_555
Zr1C_2 O3G 1_555 1_555
Zr2B_2 O6B 1_555 1_555
Zr2D_2 O5D 1_555 1_555
Zr2D_3 O6D 1_555 1_555
Zr2E_2 O5E 1_555 1_555
Zr2F O4F 1_555 1_555
Zr2F_2 O4I 1_555 1_555
Zr2G O4K 1_555 1_555
Zr2G_2 O4G 1_555 1_555
O3D Zr1 1_555 1_555
O3E Zr1B 1_555 1_555
O3H Zr1B 1_555 1_555
O3J Zr1 1_555 1_555
O4D Zr2D 1_555 1_555
O4E Zr2E 1_555 1_555
O4H Zr2D 1_555 1_555
O4J Zr2E 1_555 1_555
O5D_2 Zr2D 1_555 1_555
O5E_2 Zr2E 1_555 1_555
O6B_2 Zr2B 1_555 1_555
O6D_2 Zr2D 1_555 1_555
Zr2 O1D 1_555 1_555
Zr2 O2D 1_555 1_555
C2 C3 1_555 1_555
C6 C7 1_555 1_555
C4G C5G 1_555 1_555
C6G C7G 1_555 1_555
O5B Zr2B 1_555 1_555
C10D C11E 1_555 1_555
C18B C19B 1_555 1_555
C14D C15D 1_555 1_555
O6E Zr2E 1_555 1_555
C14E C15E 1_555 1_555
Zr1B O2B 1_555 1_555
Zr1B O1E 1_555 1_555
Zr2B O1D 1_555 1_555
Zr2B O1E 1_555 1_555
Zr2B O2E 1_555 1_555
O1B Zr2E 1_555 1_555
O2B Zr2E 1_555 1_555
O4B C1B 1_555 1_555
C2B C3B 1_555 1_555
C6B C7B 1_555 1_555
C4F C5F 1_555 1_555
C6F C7F 1_555 1_555
Zr2D O2E 1_555 1_555
O2D Zr2E 1_555 1_555
O4L C1L 1_555 1_555
C2L C3L 1_555 1_555
C6L C7L 1_555 1_555
C4I C5I 1_555 1_555
C6I C7I 1_555 1_555
O4M C1M 1_555 1_555
C2M C3M 1_555 1_555
C6M C7M 1_555 1_555
C4K C5K 1_555 1_555
C6K C7K 1_555 1_555

#END
