
#######################################################################
#
#                 Cambridge Crystallographic Data Centre
#                                CCDC 
#
#######################################################################
#
# If this CIF has been generated from an entry in the Cambridge 
# Structural Database, then it will include bibliographic, chemical, 
# crystal, experimental, refinement or atomic coordinate data resulting 
# from the CCDC's data processing and validation procedures.
#
#######################################################################

data_QOZWAF
_chemical_formula_moiety         '(C24 H96 N16 Ni13 O91 P2 W21 4-)n'
_symmetry_cell_setting           cubic
_symmetry_space_group_name_H-M   'P 21 3'
_symmetry_Int_Tables_number      198
_space_group_name_Hall           'P 2ac 2ab 3'
loop_
_symmetry_equiv_pos_site_id
_symmetry_equiv_pos_as_xyz
1 x,y,z
2 1/2-x,-y,1/2+z
3 -x,1/2+y,1/2-z
4 1/2+x,1/2-y,-z
5 z,x,y
6 1/2+z,1/2-x,-y
7 1/2-z,-x,1/2+y
8 -z,1/2+x,1/2-y
9 y,z,x
10 -y,1/2+z,1/2-x
11 1/2+y,1/2-z,-x
12 1/2-y,-z,1/2+x
_cell_length_a                   24.9239(3)
_cell_length_b                   24.9239(3)
_cell_length_c                   24.9239(3)
_cell_angle_alpha                90
_cell_angle_beta                 90
_cell_angle_gamma                90
_cell_volume                     15482.7
loop_
_atom_site_label
_atom_site_type_symbol
_atom_site_fract_x
_atom_site_fract_y
_atom_site_fract_z
_atom_site_U_iso_or_equiv
_atom_site_thermal_displace_type
P1 P 0.05054(6) 1.05054(6) 0.05054(6) 0.0057 Uani
P2 P -0.02399(7) 1.02399(7) 0.52399(7) 0.0160 Uani
Ni1 Ni 0.08048(4) 1.08987(4) 0.17319(4) 0.0162 Uani
Ni2 Ni 0.16717(4) 1.00013(4) 0.18467(4) 0.0223 Uani
Ni3 Ni 0.12929(4) 1.07022(4) 0.43545(4) 0.0204 Uani
Ni4 Ni 0.02773(4) 1.00438(3) 0.40357(4) 0.0159 Uani
W1 W 0.146323(12) 0.945587(11) 0.053439(13) 0.0234 Uani
W2 W 0.052618(14) 0.942900(13) -0.048115(14) 0.0290 Uani
W3 W 0.154076(12) 1.037582(12) -0.046622(12) 0.0229 Uani
W4 W -0.02515(2) 1.106819(18) 0.644314(17) 0.0474 Uani
W5 W 0.089916(15) 1.099620(13) 0.568665(14) 0.0303 Uani
W6 W 0.050222(15) 0.990480(14) 0.639983(12) 0.0296 Uani
W7 W 0.105070(12) 1.049085(13) 0.299426(11) 0.0213 Uani
O1 O 0.1436(3) 1.1411(3) 0.5755(3) 0.0460 Uani
O2 O 0.1680(2) 0.9982(2) 0.0985(2) 0.0227 Uani
O3 O 0.2014(3) 1.0454(3) -0.0958(2) 0.0383 Uani
O4 O 0.10465(19) 0.99192(19) 0.42658(19) 0.0170 Uani
O5 O 0.0806(2) 1.0976(2) 0.2538(2) 0.0267 Uani
O6 O 0.1610(2) 1.08002(19) 0.16962(19) 0.0183 Uani
O7 O 0.0825(2) 1.0060(2) 0.1753(2) 0.0210 Uani
O8 O 0.0858(2) 1.0107(2) 0.0163(2) 0.0220 Uani
O9 O 0.0865(2) 0.9300(2) 0.1001(2) 0.0277 Uani
O10 O 0.0459(2) 1.08238(19) 0.4243(2) 0.0220 Uani
O11 O 0.1109(2) 1.0529(2) 0.5169(2) 0.0243 Uani
O12 O 0.1003(2) 1.0492(2) 0.6239(2) 0.0310 Uani
O13 O 0.01163(17) 0.98837(17) 0.48837(17) 0.0152 Uani
O14 O -0.0597(3) 1.1434(3) 0.5875(3) 0.0547 Uani
O15 O 0.1874(2) 0.8930(2) 0.0691(3) 0.0353 Uani
O16 O -0.0010(2) 0.9297(2) 0.0054(2) 0.0340 Uani
O17 O -0.0153(2) 0.9526(3) 0.6389(2) 0.0357 Uani
O18 O 0.0811(3) 0.9618(3) 0.6943(2) 0.0470 Uani
O19 O 0.0870(2) 1.0870(2) 0.0870(2) 0.0160 Uani
O20 O 0.1822(2) 0.9775(2) -0.0065(2) 0.0277 Uani
O21 O 0.1378(2) 1.0834(2) 0.3529(2) 0.0313 Uani
O22 O 0.0402(3) 1.1343(3) 0.6220(3) 0.0453 Uani
O23 O 0.0110(3) 1.0488(3) 0.6776(2) 0.0440 Uani
O24 O 0.1030(2) 0.9081(2) -0.0035(2) 0.0317 Uani
O25 O 0.0516(2) 1.0110(2) 0.3247(2) 0.0303 Uani
O26 O 0.1092(3) 0.9806(2) -0.0821(2) 0.0317 Uani
O27 O 0.1539(2) 1.0081(2) 0.2675(2) 0.0333 Uani
O28 O 0.0393(3) 0.8947(3) -0.0954(3) 0.0457 Uani
O29 O 0.0077(2) 1.0460(2) 0.5731(2) 0.0300 Uani
O30 O -0.0393(4) 1.1463(3) 0.6990(3) 0.0687 Uani
N1 N 0.1754(3) 0.9174(3) 0.1940(3) 0.0360 Uani
H1 H 0.1536 0.9058 0.2203 0.0430 Uiso
H2 H 0.1662 0.9006 0.1634 0.0430 Uiso
N2 N 0.2500(3) 0.9986(3) 0.1857(3) 0.0383 Uani
H3 H 0.2632 1.0206 0.1603 0.0460 Uiso
H4 H 0.2623 1.0095 0.2179 0.0460 Uiso
N3 N 0.2093(3) 1.0542(3) 0.4445(3) 0.0387 Uani
H5 H 0.2144 1.0291 0.4699 0.0470 Uiso
H6 H 0.2234 1.0423 0.4135 0.0470 Uiso
N4 N 0.1533(3) 1.1495(3) 0.4490(3) 0.0380 Uani
H7 H 0.1438 1.1703 0.4211 0.0460 Uiso
H8 H 0.1373 1.1623 0.4787 0.0460 Uiso
C1 C 0.2320(4) 0.9053(4) 0.2076(6) 0.0567 Uani
H9 H 0.2377 0.9123 0.2458 0.0680 Uiso
C2 C 0.2668(5) 0.9430(5) 0.1754(5) 0.0567 Uani
H10 H 0.3041 0.9385 0.1855 0.0680 Uiso
H11 H 0.2634 0.9351 0.1374 0.0680 Uiso
C3 C 0.2455(7) 0.8468(5) 0.1962(9) 0.0983 Uani
H12 H 0.2242 0.8241 0.2188 0.1480 Uiso
H13 H 0.2829 0.8407 0.2033 0.1480 Uiso
H14 H 0.2380 0.8389 0.1592 0.1480 Uiso
C4 C 0.2110(4) 1.1501(5) 0.4556(8) 0.0883 Uani
H15 H 0.2184 1.1533 0.4171 0.1060 Uiso
C5 C 0.2346(6) 1.1047(7) 0.4603(15) 0.2170 Uani
H16 H 0.2443 1.1011 0.4978 0.2610 Uiso
H17 H 0.2679 1.1073 0.4404 0.2610 Uiso
C6 C 0.2367(7) 1.2026(6) 0.4697(9) 0.1130 Uani
H18 H 0.2748 1.1980 0.4723 0.1690 Uiso
H19 H 0.2228 1.2150 0.5034 0.1690 Uiso
H20 H 0.2288 1.2285 0.4422 0.1690 Uiso
O8D O 0.0163(2) 1.0858(2) 0.0107(2) 0.0220 Uani
O8H O 0.0107(2) 1.0163(2) 0.0858(2) 0.0220 Uani
O29F O -0.0731(2) 0.9923(2) 0.5460(2) 0.0300 Uani
O29I O -0.0460(2) 1.0731(2) 0.4923(2) 0.0300 Uani
Ni1D Ni 0.17319(4) 1.08048(4) 0.08987(4) 0.0162 Uani
Ni2D Ni 0.18467(4) 1.16717(4) 0.00013(4) 0.0223 Uani
Ni3D Ni 0.43545(4) 1.12929(4) 0.07022(4) 0.0204 Uani
Ni4D Ni 0.40357(4) 1.02773(4) 0.00438(3) 0.0159 Uani
W1D W 0.053439(13) 1.146323(12) -0.054413(11) 0.0234 Uani
W2D W -0.048115(14) 1.052618(14) -0.057100(13) 0.0290 Uani
W3D W -0.046622(12) 1.154076(12) 0.037582(12) 0.0229 Uani
W4D W 0.644314(17) 0.97485(2) 0.106819(18) 0.0474 Uani
W5D W 0.568665(14) 1.089916(15) 0.099620(13) 0.0303 Uani
W6D W 0.639983(12) 1.050222(15) -0.009520(14) 0.0296 Uani
W7D W 0.299426(11) 1.105070(12) 0.049085(13) 0.0213 Uani
O1D O 0.5755(3) 1.1436(3) 0.1411(3) 0.0460 Uani
O2D O 0.0985(2) 1.1680(2) -0.0018(2) 0.0227 Uani
O3D O -0.0958(2) 1.2014(3) 0.0454(3) 0.0383 Uani
O4D O 0.42658(19) 1.10465(19) -0.00808(19) 0.0170 Uani
O5D O 0.2538(2) 1.0806(2) 0.0976(2) 0.0267 Uani
O6D O 0.16962(19) 1.1610(2) 0.08002(19) 0.0183 Uani
O7D O 0.1753(2) 1.0825(2) 0.0060(2) 0.0210 Uani
O9D O 0.1001(2) 1.0865(2) -0.0700(2) 0.0277 Uani
O10D O 0.4243(2) 1.0459(2) 0.08238(19) 0.0220 Uani
O11D O 0.5169(2) 1.1109(2) 0.0529(2) 0.0243 Uani
O12D O 0.6239(2) 1.1003(2) 0.0492(2) 0.0310 Uani
O14D O 0.5875(3) 0.9403(3) 0.1434(3) 0.0547 Uani
O15D O 0.0691(3) 1.1874(2) -0.1070(2) 0.0353 Uani
O16D O 0.0054(2) 0.9990(2) -0.0703(2) 0.0340 Uani
O17D O 0.6389(2) 0.9847(2) -0.0474(3) 0.0357 Uani
O18D O 0.6943(2) 1.0811(3) -0.0382(3) 0.0470 Uani
O20D O -0.0065(2) 1.1822(2) -0.0225(2) 0.0277 Uani
O21D O 0.3529(2) 1.1378(2) 0.0834(2) 0.0313 Uani
O22D O 0.6220(3) 1.0402(3) 0.1343(3) 0.0453 Uani
O23D O 0.6776(2) 1.0110(3) 0.0488(3) 0.0440 Uani
O24D O -0.0035(2) 1.1030(2) -0.0919(2) 0.0317 Uani
O25D O 0.3247(2) 1.0516(2) 0.0110(2) 0.0303 Uani
O26D O -0.0821(2) 1.1092(3) -0.0194(2) 0.0317 Uani
O27D O 0.2675(2) 1.1539(2) 0.0081(2) 0.0333 Uani
O28D O -0.0954(3) 1.0393(3) -0.1053(3) 0.0457 Uani
O30D O 0.6990(3) 0.9607(4) 0.1463(3) 0.0687 Uani
N1D N 0.1940(3) 1.1754(3) -0.0826(3) 0.0360 Uani
H1D H 0.2203 1.1536 -0.0942 0.0430 Uiso
H2D H 0.1634 1.1662 -0.0994 0.0430 Uiso
N2D N 0.1857(3) 1.2500(3) -0.0014(3) 0.0383 Uani
H3D H 0.1603 1.2632 0.0206 0.0460 Uiso
H4D H 0.2179 1.2623 0.0095 0.0460 Uiso
N3D N 0.4445(3) 1.2093(3) 0.0542(3) 0.0387 Uani
H5D H 0.4699 1.2144 0.0291 0.0470 Uiso
H6D H 0.4135 1.2234 0.0423 0.0470 Uiso
N4D N 0.4490(3) 1.1533(3) 0.1495(3) 0.0380 Uani
H7D H 0.4211 1.1438 0.1703 0.0460 Uiso
H8D H 0.4787 1.1373 0.1623 0.0460 Uiso
C1D C 0.2076(6) 1.2320(4) -0.0947(4) 0.0567 Uani
H9D H 0.2458 1.2377 -0.0877 0.0680 Uiso
C2D C 0.1754(5) 1.2668(5) -0.0570(5) 0.0567 Uani
H10D H 0.1855 1.3041 -0.0615 0.0680 Uiso
H11D H 0.1374 1.2634 -0.0649 0.0680 Uiso
C3D C 0.1962(9) 1.2455(7) -0.1532(5) 0.0983 Uani
H12D H 0.2188 1.2242 -0.1759 0.1480 Uiso
H13D H 0.2033 1.2829 -0.1593 0.1480 Uiso
H14D H 0.1592 1.2380 -0.1611 0.1480 Uiso
C4D C 0.4556(8) 1.2110(4) 0.1501(5) 0.0883 Uani
H15D H 0.4171 1.2184 0.1533 0.1060 Uiso
C5D C 0.4603(15) 1.2346(6) 0.1047(7) 0.2170 Uani
H16D H 0.4978 1.2443 0.1011 0.2610 Uiso
H17D H 0.4404 1.2679 0.1073 0.2610 Uiso
C6D C 0.4697(9) 1.2367(7) 0.2026(6) 0.1130 Uani
H18D H 0.4723 1.2748 0.1980 0.1690 Uiso
H19D H 0.5034 1.2228 0.2150 0.1690 Uiso
H20D H 0.4422 1.2288 0.2285 0.1690 Uiso
Ni1H Ni 0.08987(4) 1.17319(4) 0.08048(4) 0.0162 Uani
Ni2H Ni 0.00013(4) 1.18467(4) 0.16717(4) 0.0223 Uani
Ni3H Ni 0.07022(4) 1.43545(4) 0.12929(4) 0.0204 Uani
Ni4H Ni 0.00438(3) 1.40357(4) 0.02773(4) 0.0159 Uani
W1H W -0.054413(11) 1.053439(13) 0.146323(12) 0.0234 Uani
W2H W -0.057100(13) 0.951885(14) 0.052618(14) 0.0290 Uani
W3H W 0.037582(12) 0.953378(12) 0.154076(12) 0.0229 Uani
W4H W 0.106819(18) 1.644314(17) -0.02515(2) 0.0474 Uani
W5H W 0.099620(13) 1.568665(14) 0.089916(15) 0.0303 Uani
W6H W -0.009520(14) 1.639983(12) 0.050222(15) 0.0296 Uani
W7H W 0.049085(13) 1.299426(11) 0.105070(12) 0.0213 Uani
O1H O 0.1411(3) 1.5755(3) 0.1436(3) 0.0460 Uani
O2H O -0.0018(2) 1.0985(2) 0.1680(2) 0.0227 Uani
O3H O 0.0454(3) 0.9042(2) 0.2014(3) 0.0383 Uani
O4H O -0.00808(19) 1.42658(19) 0.10465(19) 0.0170 Uani
O5H O 0.0976(2) 1.2538(2) 0.0806(2) 0.0267 Uani
O6H O 0.08002(19) 1.16962(19) 0.1610(2) 0.0183 Uani
O7H O 0.0060(2) 1.1753(2) 0.0825(2) 0.0210 Uani
O9H O -0.0700(2) 1.1001(2) 0.0865(2) 0.0277 Uani
O10H O 0.08238(19) 1.4243(2) 0.0459(2) 0.0220 Uani
O11H O 0.0529(2) 1.5169(2) 0.1109(2) 0.0243 Uani
O12H O 0.0492(2) 1.6239(2) 0.1003(2) 0.0310 Uani
O14H O 0.1434(3) 1.5875(3) -0.0597(3) 0.0547 Uani
O15H O -0.1070(2) 1.0691(3) 0.1874(2) 0.0353 Uani
O16H O -0.0703(2) 1.0054(2) -0.0010(2) 0.0340 Uani
O17H O -0.0474(3) 1.6389(2) -0.0153(2) 0.0357 Uani
O18H O -0.0382(3) 1.6943(2) 0.0811(3) 0.0470 Uani
O20H O -0.0225(2) 0.9935(2) 0.1822(2) 0.0277 Uani
O21H O 0.0834(2) 1.3529(2) 0.1378(2) 0.0313 Uani
O22H O 0.1343(3) 1.6220(3) 0.0402(3) 0.0453 Uani
O23H O 0.0488(3) 1.6776(2) 0.0110(3) 0.0440 Uani
O24H O -0.0919(2) 0.9965(2) 0.1030(2) 0.0317 Uani
O25H O 0.0110(2) 1.3247(2) 0.0516(2) 0.0303 Uani
O26H O -0.0194(2) 0.9179(2) 0.1092(3) 0.0317 Uani
O27H O 0.0081(2) 1.2675(2) 0.1539(2) 0.0333 Uani
O28H O -0.1053(3) 0.9046(3) 0.0393(3) 0.0457 Uani
O30H O 0.1463(3) 1.6990(3) -0.0393(4) 0.0687 Uani
N1H N -0.0826(3) 1.1940(3) 0.1754(3) 0.0360 Uani
H1H H -0.0942 1.2203 0.1536 0.0430 Uiso
H2H H -0.0994 1.1634 0.1662 0.0430 Uiso
N2H N -0.0014(3) 1.1857(3) 0.2500(3) 0.0383 Uani
H3H H 0.0206 1.1603 0.2632 0.0460 Uiso
H4H H 0.0095 1.2179 0.2623 0.0460 Uiso
N3H N 0.0542(3) 1.4445(3) 0.2093(3) 0.0387 Uani
H5H H 0.0291 1.4699 0.2144 0.0470 Uiso
H6H H 0.0423 1.4135 0.2234 0.0470 Uiso
N4H N 0.1495(3) 1.4490(3) 0.1533(3) 0.0380 Uani
H7H H 0.1703 1.4211 0.1438 0.0460 Uiso
H8H H 0.1623 1.4787 0.1373 0.0460 Uiso
C1H C -0.0947(4) 1.2076(6) 0.2320(4) 0.0567 Uani
H9H H -0.0877 1.2458 0.2377 0.0680 Uiso
C2H C -0.0570(5) 1.1754(5) 0.2668(5) 0.0567 Uani
H10H H -0.0615 1.1855 0.3041 0.0680 Uiso
H11H H -0.0649 1.1374 0.2634 0.0680 Uiso
C3H C -0.1532(5) 1.1962(9) 0.2455(7) 0.0983 Uani
H12H H -0.1759 1.2188 0.2242 0.1480 Uiso
H13H H -0.1593 1.2033 0.2829 0.1480 Uiso
H14H H -0.1611 1.1592 0.2380 0.1480 Uiso
C4H C 0.1501(5) 1.4556(8) 0.2110(4) 0.0883 Uani
H15H H 0.1533 1.4171 0.2184 0.1060 Uiso
C5H C 0.1047(7) 1.4603(15) 0.2346(6) 0.2170 Uani
H16H H 0.1011 1.4978 0.2443 0.2610 Uiso
H17H H 0.1073 1.4404 0.2679 0.2610 Uiso
C6H C 0.2026(6) 1.4697(9) 0.2367(7) 0.1130 Uani
H18H H 0.1980 1.4723 0.2748 0.1690 Uiso
H19H H 0.2150 1.5034 0.2228 0.1690 Uiso
H20H H 0.2285 1.4422 0.2288 0.1690 Uiso
Ni4B Ni -0.02773(4) 1.50438(3) 0.09643(4) 0.0159 Uani
Ni4F Ni 0.09643(4) 0.97227(4) 0.50438(3) 0.0159 Uani
Ni4I Ni -0.00438(3) 0.90357(4) 0.47227(4) 0.0159 Uani
Ni4J Ni 0.50438(3) 1.09643(4) -0.02773(4) 0.0159 Uani
W4A W 0.52515(2) 0.893181(18) 0.144314(17) 0.0474 Uani
W4E W 0.144314(17) 1.52515(2) -0.106819(18) 0.0474 Uani
W4F W -0.144314(17) 1.02515(2) 0.606819(18) 0.0474 Uani
W4I W -0.106819(18) 1.144314(17) 0.52515(2) 0.0474 Uani
W5B W -0.089916(15) 1.599620(13) -0.068665(14) 0.0303 Uani
W5F W -0.068665(14) 0.910084(15) 0.599620(13) 0.0303 Uani
W5I W -0.099620(13) 1.068665(14) 0.410084(15) 0.0303 Uani
W5J W 0.599620(13) 0.931335(14) -0.089916(15) 0.0303 Uani
W6A W 0.449778(15) 1.009520(14) 0.139983(12) 0.0296 Uani
W6E W 0.139983(12) 1.449778(15) 0.009520(14) 0.0296 Uani
W6F W -0.139983(12) 0.949778(15) 0.490480(14) 0.0296 Uani
W6I W 0.009520(14) 1.139983(12) 0.449778(15) 0.0296 Uani
O4A O 0.39535(19) 1.00808(19) -0.07342(19) 0.0170 Uani
O4E O -0.07342(19) 1.39535(19) 0.00808(19) 0.0170 Uani
O4I O 0.00808(19) 0.92658(19) 0.39535(19) 0.0170 Uani
O10B O -0.0459(2) 1.58238(19) 0.0757(2) 0.0220 Uani
O10F O 0.0757(2) 0.9541(2) 0.58238(19) 0.0220 Uani
O10J O 0.58238(19) 1.0757(2) -0.0459(2) 0.0220 Uani
O11A O 0.3891(2) 0.9471(2) 0.0169(2) 0.0243 Uani
O11E O 0.0169(2) 1.3891(2) -0.0529(2) 0.0243 Uani
O11I O -0.0529(2) 1.0169(2) 0.3891(2) 0.0243 Uani
O13A O 0.48837(17) 1.01163(17) -0.01163(17) 0.0152 Uani
O13B O -0.01163(17) 1.48837(17) 0.01163(17) 0.0152 Uani
O14B O 0.0597(3) 1.6434(3) -0.0875(3) 0.0547 Uani
O14F O -0.0875(3) 1.0597(3) 0.6434(3) 0.0547 Uani
O14J O 0.6434(3) 0.9125(3) 0.0597(3) 0.0547 Uani
O17A O 0.5153(2) 1.0474(3) 0.1389(2) 0.0357 Uani
O17E O 0.1389(2) 1.5153(2) 0.0474(3) 0.0357 Uani
O17I O 0.0474(3) 1.1389(2) 0.5153(2) 0.0357 Uani
O29D O 0.5731(2) 1.0077(2) 0.0460(2) 0.0300 Uani
O29H O 0.0460(2) 1.5731(2) 0.0077(2) 0.0300 Uani
Ni5 Ni 0.02292(10) 0.79164(6) 0.01271(9) 0.0852 Uani
N5 N -0.0529(7) 0.7929(7) 0.0051(7) 0.1190 Uiso
H21 H -0.0673 0.7679 0.0269 0.1420 Uiso
H22 H -0.0652 0.8251 0.0156 0.1420 Uiso
N6 N 0.0166(6) 0.8031(6) 0.0887(6) 0.0990 Uiso
H23 H 0.0143 0.8385 0.0949 0.1180 Uiso
H24 H -0.0141 0.7879 0.1002 0.1180 Uiso
N7 N 0.0259(6) 0.7776(6) -0.0573(6) 0.1090 Uiso
H25 H 0.0448 0.8040 -0.0730 0.1310 Uiso
H26 H 0.0445 0.7470 -0.0616 0.1310 Uiso
N8 N 0.0994(5) 0.7905(5) 0.0263(5) 0.0760 Uiso
H27 H 0.1149 0.7639 0.0076 0.0920 Uiso
H28 H 0.1142 0.8218 0.0160 0.0920 Uiso
C7 C -0.1213(18) 0.776(2) -0.083(2) 0.3900 Uiso
H29 H -0.1524 0.7814 -0.0612 0.5830 Uiso
H30 H -0.1221 0.7406 -0.0982 0.5830 Uiso
H31 H -0.1211 0.8020 -0.1118 0.5830 Uiso
C8 C -0.0704(12) 0.7829(13) -0.0490(10) 0.1790 Uiso
C9 C 0.1078(8) 0.7822(10) 0.0843(7) 0.1380 Uiso
C10 C 0.0610(8) 0.7814(10) 0.1199(8) 0.1290 Uiso
H32 H 0.0531 0.7450 0.1313 0.1550 Uiso
H33 H 0.0674 0.8032 0.1514 0.1550 Uiso
C11 C -0.0251(8) 0.7721(11) -0.0867(10) 0.1400 Uiso
H34 H -0.0282 0.7361 -0.1011 0.1680 Uiso
H35 H -0.0262 0.7973 -0.1163 0.1680 Uiso
C12 C 0.1637(8) 0.7601(9) 0.0974(10) 0.1330 Uiso
H36 H 0.1680 0.7578 0.1356 0.2000 Uiso
H37 H 0.1905 0.7836 0.0829 0.2000 Uiso
H38 H 0.1676 0.7250 0.0819 0.2000 Uiso
O31 O 0.2611(6) 1.0118(6) 0.3127(6) 0.1330 Uiso
O32 O 0.0850(9) 0.8875(9) 0.3125(9) 0.0910 Uiso
O33 O 0.1277(11) 1.1995(11) 0.3313(11) 0.1110 Uiso
O34 O 0.2272(15) 1.1313(15) 0.2437(15) 0.1500 Uiso
O35 O -0.1321(16) 0.7915(16) 0.0999(16) 0.1670 Uiso
loop_
_atom_site_aniso_label
_atom_site_aniso_U_11
_atom_site_aniso_U_22
_atom_site_aniso_U_33
_atom_site_aniso_U_23
_atom_site_aniso_U_13
_atom_site_aniso_U_12
P1 0.0057(4) 0.0057(4) 0.0057(4) -0.0004(5) -0.0004(5) -0.0004(5)
P2 0.0160(6) 0.0160(6) 0.0160(6) -0.0035(6) 0.0035(6) 0.0035(6)
Ni1 0.0156(4) 0.0178(4) 0.0153(4) 0.0044(3) 0.0026(3) 0.0018(3)
Ni2 0.0207(5) 0.0214(5) 0.0248(5) 0.0073(4) 0.0009(4) 0.0043(4)
Ni3 0.0226(5) 0.0184(4) 0.0202(4) 0.0036(4) -0.0061(4) -0.0060(4)
Ni4 0.0159(4) 0.0147(4) 0.0171(4) 0.0030(3) -0.0026(3) -0.0023(3)
W1 0.02585(15) 0.01482(13) 0.02940(16) -0.00036(12) 0.00395(12) 0.00436(11)
W2 0.03471(17) 0.02318(15) 0.02909(16) -0.00846(13) 0.00122(14) -0.00174(13)
W3 0.02687(15) 0.02219(15) 0.01953(14) -0.00314(12) 0.00785(12) 0.00187(12)
W4 0.0621(3) 0.0460(2) 0.0341(2) -0.02044(18) 0.00982(19) 0.0061(2)
W5 0.0421(2) 0.02287(16) 0.02587(16) -0.00836(13) -0.00421(14) -0.00578(14)
W6 0.04003(19) 0.03508(18) 0.01354(14) -0.00343(12) -0.00085(13) -0.00419(15)
W7 0.02171(14) 0.02638(15) 0.01588(13) 0.00712(12) -0.00149(11) -0.00273(12)
O1 0.063(5) 0.031(3) 0.044(4) -0.011(3) -0.017(3) -0.008(3)
O2 0.025(3) 0.019(2) 0.024(3) 0.005(2) 0.003(2) 0.002(2)
O3 0.050(4) 0.037(3) 0.028(3) -0.011(3) 0.020(3) 0.000(3)
O4 0.017(2) 0.018(2) 0.016(2) 0.0031(19) -0.0010(19) -0.0039(19)
O5 0.028(3) 0.033(3) 0.019(3) 0.006(2) -0.001(2) -0.003(2)
O6 0.019(2) 0.019(2) 0.017(2) 0.0011(19) 0.001(2) 0.004(2)
O7 0.019(3) 0.019(2) 0.025(3) 0.005(2) 0.005(2) 0.008(2)
O8 0.020(3) 0.023(3) 0.023(3) 0.001(2) 0.004(2) 0.003(2)
O9 0.031(3) 0.016(2) 0.036(3) 0.008(2) -0.001(3) -0.004(2)
O10 0.018(2) 0.015(2) 0.033(3) 0.003(2) -0.003(2) -0.003(2)
O11 0.030(3) 0.022(3) 0.021(2) 0.002(2) -0.007(2) -0.009(2)
O12 0.039(3) 0.032(3) 0.022(3) -0.012(2) -0.012(2) -0.010(3)
O13 0.0152(16) 0.0152(16) 0.0152(16) -0.0045(17) 0.0045(17) 0.0045(17)
O14 0.065(5) 0.047(4) 0.052(4) -0.017(3) 0.007(4) 0.021(4)
O15 0.037(3) 0.022(3) 0.047(4) 0.000(3) -0.001(3) 0.007(2)
O16 0.038(3) 0.025(3) 0.039(3) 0.000(3) -0.008(3) -0.003(3)
O17 0.037(3) 0.053(4) 0.017(3) -0.002(3) 0.004(2) -0.008(3)
O18 0.069(5) 0.054(4) 0.018(3) 0.005(3) -0.008(3) -0.006(4)
O19 0.0160(17) 0.0160(17) 0.0160(17) 0.007(2) 0.007(2) 0.007(2)
O20 0.029(3) 0.023(3) 0.031(3) -0.003(2) 0.009(2) 0.005(2)
O21 0.036(3) 0.037(3) 0.021(3) 0.012(2) -0.003(2) -0.009(3)
O22 0.063(5) 0.039(4) 0.034(3) -0.020(3) -0.002(3) 0.002(3)
O23 0.054(4) 0.057(4) 0.021(3) -0.017(3) 0.005(3) -0.002(4)
O24 0.037(3) 0.023(3) 0.035(3) -0.007(2) 0.002(3) 0.002(3)
O25 0.027(3) 0.043(3) 0.021(3) 0.007(2) -0.008(2) -0.012(3)
O26 0.043(3) 0.029(3) 0.023(3) -0.007(2) 0.001(3) 0.003(3)
O27 0.038(3) 0.036(3) 0.026(3) 0.016(3) -0.006(3) 0.007(3)
O28 0.059(4) 0.038(3) 0.040(4) -0.010(3) -0.006(3) -0.008(3)
O29 0.037(3) 0.024(3) 0.029(3) -0.006(2) 0.005(2) -0.006(2)
O30 0.086(6) 0.059(5) 0.061(5) -0.030(4) 0.021(5) 0.014(5)
N1 0.038(4) 0.033(4) 0.037(4) 0.012(3) -0.003(3) 0.003(3)
N2 0.027(4) 0.043(4) 0.045(5) 0.013(4) 0.005(3) 0.011(3)
N3 0.026(4) 0.040(4) 0.050(5) 0.019(4) -0.015(3) -0.006(3)
N4 0.042(4) 0.027(4) 0.045(4) 0.008(3) -0.011(4) -0.015(3)
C1 0.045(6) 0.038(6) 0.087(9) 0.014(6) -0.018(6) 0.008(5)
C2 0.046(6) 0.063(7) 0.061(7) -0.002(6) -0.004(5) 0.018(6)
C3 0.087(11) 0.041(7) 0.167(18) -0.009(9) -0.038(11) 0.027(7)
C4 0.030(6) 0.068(9) 0.167(16) -0.054(10) 0.007(8) -0.026(6)
C5 0.050(8) 0.061(10) 0.54(6) 0.081(19) -0.150(19) -0.016(8)
C6 0.123(14) 0.060(9) 0.156(17) 0.037(10) -0.082(13) -0.058(9)
O8D 0.023 0.02 0.023 0.003 0.001 0.004
O8H 0.023 0.023 0.02 0.004 0.003 0.001
O29F 0.029 0.037 0.024 0.006 0.006 0.005
O29I 0.024 0.029 0.037 -0.005 -0.006 0.006
Ni1D 0.0153 0.0156 0.0178 0.0018 0.0044 0.0026
Ni2D 0.0248 0.0207 0.0214 0.0043 0.0073 0.0009
Ni3D 0.0202 0.0226 0.0184 -0.006 0.0036 -0.0061
Ni4D 0.0171 0.0159 0.0147 -0.0023 0.003 -0.0026
W1D 0.0294 0.02585 0.01482 0.00436 -0.00036 0.00395
W2D 0.02909 0.03471 0.02318 -0.00174 -0.00846 0.00122
W3D 0.01953 0.02687 0.02219 0.00187 -0.00314 0.00785
W4D 0.0341 0.0621 0.046 0.0061 -0.02044 0.00982
W5D 0.02587 0.0421 0.02287 -0.00578 -0.00836 -0.00421
W6D 0.01354 0.04003 0.03508 -0.00419 -0.00343 -0.00085
W7D 0.01588 0.02171 0.02638 -0.00273 0.00712 -0.00149
O1D 0.044 0.063 0.031 -0.008 -0.011 -0.017
O2D 0.024 0.025 0.019 0.002 0.005 0.003
O3D 0.028 0.05 0.037 0 -0.011 0.02
O4D 0.016 0.017 0.018 -0.0039 0.0031 -0.001
O5D 0.019 0.028 0.033 -0.003 0.006 -0.001
O6D 0.017 0.019 0.019 0.004 0.0011 0.001
O7D 0.025 0.019 0.019 0.008 0.005 0.005
O9D 0.036 0.031 0.016 -0.004 0.008 -0.001
O10D 0.033 0.018 0.015 -0.003 0.003 -0.003
O11D 0.021 0.03 0.022 -0.009 0.002 -0.007
O12D 0.022 0.039 0.032 -0.01 -0.012 -0.012
O14D 0.052 0.065 0.047 0.021 -0.017 0.007
O15D 0.047 0.037 0.022 0.007 0 -0.001
O16D 0.039 0.038 0.025 -0.003 0 -0.008
O17D 0.017 0.037 0.053 -0.008 -0.002 0.004
O18D 0.018 0.069 0.054 -0.006 0.005 -0.008
O20D 0.031 0.029 0.023 0.005 -0.003 0.009
O21D 0.021 0.036 0.037 -0.009 0.012 -0.003
O22D 0.034 0.063 0.039 0.002 -0.02 -0.002
O23D 0.021 0.054 0.057 -0.002 -0.017 0.005
O24D 0.035 0.037 0.023 0.002 -0.007 0.002
O25D 0.021 0.027 0.043 -0.012 0.007 -0.008
O26D 0.023 0.043 0.029 0.003 -0.007 0.001
O27D 0.026 0.038 0.036 0.007 0.016 -0.006
O28D 0.04 0.059 0.038 -0.008 -0.01 -0.006
O30D 0.061 0.086 0.059 0.014 -0.03 0.021
N1D 0.037 0.038 0.033 0.003 0.012 -0.003
N2D 0.045 0.027 0.043 0.011 0.013 0.005
N3D 0.05 0.026 0.04 -0.006 0.019 -0.015
N4D 0.045 0.042 0.027 -0.015 0.008 -0.011
C1D 0.087 0.045 0.038 0.008 0.014 -0.018
C2D 0.061 0.046 0.063 0.018 -0.002 -0.004
C3D 0.167 0.087 0.041 0.027 -0.009 -0.038
C4D 0.167 0.03 0.068 -0.026 -0.054 0.007
C5D 0.54 0.05 0.061 -0.016 0.081 -0.15
C6D 0.156 0.123 0.06 -0.058 0.037 -0.082
Ni1H 0.0178 0.0153 0.0156 0.0026 0.0018 0.0044
Ni2H 0.0214 0.0248 0.0207 0.0009 0.0043 0.0073
Ni3H 0.0184 0.0202 0.0226 -0.0061 -0.006 0.0036
Ni4H 0.0147 0.0171 0.0159 -0.0026 -0.0023 0.003
W1H 0.01482 0.0294 0.02585 0.00395 0.00436 -0.00036
W2H 0.02318 0.02909 0.03471 0.00122 -0.00174 -0.00846
W3H 0.02219 0.01953 0.02687 0.00785 0.00187 -0.00314
W4H 0.046 0.0341 0.0621 0.00982 0.0061 -0.02044
W5H 0.02287 0.02587 0.0421 -0.00421 -0.00578 -0.00836
W6H 0.03508 0.01354 0.04003 -0.00085 -0.00419 -0.00343
W7H 0.02638 0.01588 0.02171 -0.00149 -0.00273 0.00712
O1H 0.031 0.044 0.063 -0.017 -0.008 -0.011
O2H 0.019 0.024 0.025 0.003 0.002 0.005
O3H 0.037 0.028 0.05 0.02 0 -0.011
O4H 0.018 0.016 0.017 -0.001 -0.0039 0.0031
O5H 0.033 0.019 0.028 -0.001 -0.003 0.006
O6H 0.019 0.017 0.019 0.001 0.004 0.0011
O7H 0.019 0.025 0.019 0.005 0.008 0.005
O9H 0.016 0.036 0.031 -0.001 -0.004 0.008
O10H 0.015 0.033 0.018 -0.003 -0.003 0.003
O11H 0.022 0.021 0.03 -0.007 -0.009 0.002
O12H 0.032 0.022 0.039 -0.012 -0.01 -0.012
O14H 0.047 0.052 0.065 0.007 0.021 -0.017
O15H 0.022 0.047 0.037 -0.001 0.007 0
O16H 0.025 0.039 0.038 -0.008 -0.003 0
O17H 0.053 0.017 0.037 0.004 -0.008 -0.002
O18H 0.054 0.018 0.069 -0.008 -0.006 0.005
O20H 0.023 0.031 0.029 0.009 0.005 -0.003
O21H 0.037 0.021 0.036 -0.003 -0.009 0.012
O22H 0.039 0.034 0.063 -0.002 0.002 -0.02
O23H 0.057 0.021 0.054 0.005 -0.002 -0.017
O24H 0.023 0.035 0.037 0.002 0.002 -0.007
O25H 0.043 0.021 0.027 -0.008 -0.012 0.007
O26H 0.029 0.023 0.043 0.001 0.003 -0.007
O27H 0.036 0.026 0.038 -0.006 0.007 0.016
O28H 0.038 0.04 0.059 -0.006 -0.008 -0.01
O30H 0.059 0.061 0.086 0.021 0.014 -0.03
N1H 0.033 0.037 0.038 -0.003 0.003 0.012
N2H 0.043 0.045 0.027 0.005 0.011 0.013
N3H 0.04 0.05 0.026 -0.015 -0.006 0.019
N4H 0.027 0.045 0.042 -0.011 -0.015 0.008
C1H 0.038 0.087 0.045 -0.018 0.008 0.014
C2H 0.063 0.061 0.046 -0.004 0.018 -0.002
C3H 0.041 0.167 0.087 -0.038 0.027 -0.009
C4H 0.068 0.167 0.03 0.007 -0.026 -0.054
C5H 0.061 0.54 0.05 -0.15 -0.016 0.081
C6H 0.06 0.156 0.123 -0.082 -0.058 0.037
Ni4B 0.0159 0.0147 0.0171 -0.003 -0.0026 0.0023
Ni4F 0.0171 0.0159 0.0147 0.0023 -0.003 -0.0026
Ni4I 0.0147 0.0171 0.0159 0.0026 -0.0023 -0.003
Ni4J 0.0147 0.0171 0.0159 -0.0026 0.0023 -0.003
W4A 0.0621 0.046 0.0341 0.02044 -0.00982 0.0061
W4E 0.0341 0.0621 0.046 0.0061 0.02044 -0.00982
W4F 0.0341 0.0621 0.046 -0.0061 0.02044 0.00982
W4I 0.046 0.0341 0.0621 -0.00982 0.0061 0.02044
W5B 0.0421 0.02287 0.02587 0.00836 -0.00421 0.00578
W5F 0.02587 0.0421 0.02287 0.00578 0.00836 -0.00421
W5I 0.02287 0.02587 0.0421 0.00421 -0.00578 0.00836
W5J 0.02287 0.02587 0.0421 -0.00421 0.00578 0.00836
W6A 0.04003 0.03508 0.01354 0.00343 0.00085 -0.00419
W6E 0.01354 0.04003 0.03508 -0.00419 0.00343 0.00085
W6F 0.01354 0.04003 0.03508 0.00419 0.00343 -0.00085
W6I 0.03508 0.01354 0.04003 0.00085 -0.00419 0.00343
O4A 0.017 0.018 0.016 -0.0031 0.001 -0.0039
O4E 0.016 0.017 0.018 -0.0039 -0.0031 0.001
O4I 0.018 0.016 0.017 0.001 -0.0039 -0.0031
O10B 0.018 0.015 0.033 -0.003 -0.003 0.003
O10F 0.033 0.018 0.015 0.003 -0.003 -0.003
O10J 0.015 0.033 0.018 -0.003 0.003 -0.003
O11A 0.03 0.022 0.021 -0.002 0.007 -0.009
O11E 0.021 0.03 0.022 -0.009 -0.002 0.007
O11I 0.022 0.021 0.03 0.007 -0.009 -0.002
O13A 0.0152 0.0152 0.0152 0.0045 -0.0045 0.0045
O13B 0.0152 0.0152 0.0152 0.0045 0.0045 -0.0045
O14B 0.065 0.047 0.052 0.017 0.007 -0.021
O14F 0.052 0.065 0.047 -0.021 0.017 0.007
O14J 0.047 0.052 0.065 0.007 -0.021 0.017
O17A 0.037 0.053 0.017 0.002 -0.004 -0.008
O17E 0.017 0.037 0.053 -0.008 0.002 -0.004
O17I 0.053 0.017 0.037 -0.004 -0.008 0.002
O29D 0.029 0.037 0.024 -0.006 -0.006 0.005
O29H 0.024 0.029 0.037 0.005 -0.006 -0.006
Ni5 0.1334(18) 0.0254(7) 0.0969(14) 0.0082(8) -0.0242(13) -0.0036(9)
loop_
_geom_bond_atom_site_label_1
_geom_bond_atom_site_label_2
_geom_bond_site_symmetry_1
_geom_bond_site_symmetry_2
P1 O8 1_555 1_555
P2 O13 1_555 1_555
Ni1 O5 1_555 1_555
Ni2 O2 1_555 1_555
Ni3 O4 1_555 1_555
Ni4 O4 1_555 1_555
W1 O2 1_555 1_555
W2 O8 1_555 1_555
W3 O3 1_555 1_555
W4 O14 1_555 1_555
W5 O1 1_555 1_555
W6 O12 1_555 1_555
W7 O5 1_555 1_555
O2 Ni1D 1_555 1_555
O4 Ni4F 1_555 1_555
O6 Ni1 1_555 1_555
O7 Ni1 1_555 1_555
O8 W1 1_555 1_555
O9 W1 1_555 1_555
O10 Ni3 1_555 1_555
O11 Ni3 1_555 1_555
O12 W5 1_555 1_555
O13 Ni4 1_555 1_555
O14 W4I 1_555 1_555
O15 W1 1_555 1_555
O16 W2 1_555 1_555
O17 W6 1_555 1_555
O18 W6 1_555 1_555
O19 P1 1_555 1_555
O20 W1 1_555 1_555
O21 Ni3 1_555 1_555
O22 W4 1_555 1_555
O23 W4 1_555 1_555
O24 W1 1_555 1_555
O25 Ni4 1_555 1_555
O26 W2 1_555 1_555
O27 Ni2 1_555 1_555
O28 W2 1_555 1_555
O29 P2 1_555 1_555
O30 W4 1_555 1_555
N1 Ni2 1_555 1_555
H1 N1 1_555 1_555
H2 N1 1_555 1_555
N2 Ni2 1_555 1_555
H3 N2 1_555 1_555
H4 N2 1_555 1_555
N3 Ni3 1_555 1_555
H5 N3 1_555 1_555
H6 N3 1_555 1_555
N4 Ni3 1_555 1_555
H7 N4 1_555 1_555
H8 N4 1_555 1_555
C1 N1 1_555 1_555
H9 C1 1_555 1_555
C2 N2 1_555 1_555
H10 C2 1_555 1_555
H11 C2 1_555 1_555
C3 C1 1_555 1_555
H12 C3 1_555 1_555
H13 C3 1_555 1_555
H14 C3 1_555 1_555
C4 N4 1_555 1_555
H15 C4 1_555 1_555
C5 N3 1_555 1_555
H16 C5 1_555 1_555
H17 C5 1_555 1_555
C6 C4 1_555 1_555
H18 C6 1_555 1_555
H19 C6 1_555 1_555
H20 C6 1_555 1_555
Ni5 N5 1_555 1_555
N5 H21 1_555 1_555
H22 N5 1_555 1_555
N6 Ni5 1_555 1_555
H23 N6 1_555 1_555
H24 N6 1_555 1_555
N7 Ni5 1_555 1_555
H25 N7 1_555 1_555
H26 N7 1_555 1_555
N8 Ni5 1_555 1_555
H27 N8 1_555 1_555
H28 N8 1_555 1_555
C7 H29 1_555 1_555
H30 C7 1_555 1_555
H31 C7 1_555 1_555
C8 N5 1_555 1_555
C9 N8 1_555 1_555
C10 N6 1_555 1_555
H32 C10 1_555 1_555
H33 C10 1_555 1_555
C11 N7 1_555 1_555
H34 C11 1_555 1_555
H35 C11 1_555 1_555
C12 C9 1_555 1_555
H36 C12 1_555 1_555
H37 C12 1_555 1_555
H38 C12 1_555 1_555
O8D P1 1_555 1_555
O8H P1 1_555 1_555
O29F P2 1_555 1_555
O29I P2 1_555 1_555
Ni1D O6 1_555 1_555
Ni2D O2D 1_555 1_555
Ni3D O4D 1_555 1_555
Ni4D O4D 1_555 1_555
W1D O8D 1_555 1_555
W2D O8D 1_555 1_555
W3D O8D 1_555 1_555
W4D O14D 1_555 1_555
W5D O1D 1_555 1_555
W6D O12D 1_555 1_555
W7D O5D 1_555 1_555
O2D W1D 1_555 1_555
O3D W3D 1_555 1_555
O4D Ni4J 1_555 1_555
O5D Ni1D 1_555 1_555
O6D Ni1D 1_555 1_555
O7D W3 1_555 1_555
O9D W3 1_555 1_555
O10D Ni3D 1_555 1_555
O11D Ni3D 1_555 1_555
O12D W5D 1_555 1_555
O14D W4A 1_555 1_555
O15D W1D 1_555 1_555
O16D W2 1_555 1_555
O17D W6D 1_555 1_555
O18D W6D 1_555 1_555
O20D W1D 1_555 1_555
O21D Ni3D 1_555 1_555
O22D W4D 1_555 1_555
O23D W4D 1_555 1_555
O24D W1D 1_555 1_555
O25D Ni4D 1_555 1_555
O26D W2D 1_555 1_555
O27D Ni2D 1_555 1_555
O28D W2D 1_555 1_555
O30D W4D 1_555 1_555
N1D Ni2D 1_555 1_555
H1D N1D 1_555 1_555
H2D N1D 1_555 1_555
N2D Ni2D 1_555 1_555
H3D N2D 1_555 1_555
H4D N2D 1_555 1_555
N3D Ni3D 1_555 1_555
H5D N3D 1_555 1_555
H6D N3D 1_555 1_555
N4D Ni3D 1_555 1_555
H7D N4D 1_555 1_555
H8D N4D 1_555 1_555
C1D N1D 1_555 1_555
H9D C1D 1_555 1_555
C2D N2D 1_555 1_555
H10D C2D 1_555 1_555
H11D C2D 1_555 1_555
C3D C1D 1_555 1_555
H12D C3D 1_555 1_555
H13D C3D 1_555 1_555
H14D C3D 1_555 1_555
C4D N4D 1_555 1_555
H15D C4D 1_555 1_555
C5D N3D 1_555 1_555
H16D C5D 1_555 1_555
H17D C5D 1_555 1_555
C6D C4D 1_555 1_555
H18D C6D 1_555 1_555
H19D C6D 1_555 1_555
H20D C6D 1_555 1_555
Ni1H O19 1_555 1_555
Ni2H O2H 1_555 1_555
Ni3H O4H 1_555 1_555
Ni4H O4H 1_555 1_555
W1H O8H 1_555 1_555
W2H O16 1_555 1_555
W3H O7 1_555 1_555
W4H O14H 1_555 1_555
W5H O1H 1_555 1_555
W6H O12H 1_555 1_555
W7H O5H 1_555 1_555
O2H Ni1 1_555 1_555
O3H W3H 1_555 1_555
O4H Ni4B 1_555 1_555
O5H Ni1H 1_555 1_555
O6H Ni1 1_555 1_555
O7H W3D 1_555 1_555
O9H W3D 1_555 1_555
O10H Ni3H 1_555 1_555
O11H Ni3H 1_555 1_555
O12H W5H 1_555 1_555
O14H W4E 1_555 1_555
O15H W1H 1_555 1_555
O16H W2D 1_555 1_555
O17H W6H 1_555 1_555
O18H W6H 1_555 1_555
O20H W1H 1_555 1_555
O21H Ni3H 1_555 1_555
O22H W4H 1_555 1_555
O23H W4H 1_555 1_555
O24H W1H 1_555 1_555
O25H Ni4H 1_555 1_555
O26H W2H 1_555 1_555
O27H Ni2H 1_555 1_555
O28H W2H 1_555 1_555
O30H W4H 1_555 1_555
N1H Ni2H 1_555 1_555
H1H N1H 1_555 1_555
H2H N1H 1_555 1_555
N2H Ni2H 1_555 1_555
H3H N2H 1_555 1_555
H4H N2H 1_555 1_555
N3H Ni3H 1_555 1_555
H5H N3H 1_555 1_555
H6H N3H 1_555 1_555
N4H Ni3H 1_555 1_555
H7H N4H 1_555 1_555
H8H N4H 1_555 1_555
C1H N1H 1_555 1_555
H9H C1H 1_555 1_555
C2H N2H 1_555 1_555
H10H C2H 1_555 1_555
H11H C2H 1_555 1_555
C3H C1H 1_555 1_555
H12H C3H 1_555 1_555
H13H C3H 1_555 1_555
H14H C3H 1_555 1_555
C4H N4H 1_555 1_555
H15H C4H 1_555 1_555
C5H N3H 1_555 1_555
H16H C5H 1_555 1_555
H17H C5H 1_555 1_555
C6H C4H 1_555 1_555
H18H C6H 1_555 1_555
H19H C6H 1_555 1_555
H20H C6H 1_555 1_555
Ni4B O11H 1_555 1_555
Ni4F O11 1_555 1_555
Ni4I O13 1_555 1_555
Ni4J O11D 1_555 1_555
W4F O29F 1_555 1_555
W4I O29I 1_555 1_555
W5B O17H 1_555 1_555
W5F O17 1_555 1_555
W5I O29I 1_555 1_555
W5J O17D 1_555 1_555
W6A O10D 1_555 1_555
W6E O10H 1_555 1_555
W6F O29F 1_555 1_555
W6I O10 1_555 1_555
O4A Ni4D 1_555 1_555
O4E Ni4H 1_555 1_555
O4I Ni4 1_555 1_555
O10B W6H 1_555 1_555
O10F W6 1_555 1_555
O10J W6D 1_555 1_555
O11A Ni4D 1_555 1_555
O11E Ni4H 1_555 1_555
O11I Ni4 1_555 1_555
O13A Ni4D 1_555 1_555
O13B Ni4H 1_555 1_555
O14B W4H 1_555 1_555
O14F W4 1_555 1_555
O14J W4D 1_555 1_555
O17A W5D 1_555 1_555
O17E W5H 1_555 1_555
O17I W5 1_555 1_555
O29D W4D 1_555 1_555
O29H W4H 1_555 1_555
Ni1 O19 1_555 1_555
Ni2 O6 1_555 1_555
Ni2 O7 1_555 1_555
Ni4 O10 1_555 1_555
W2 O24 1_555 1_555
W3 O8 1_555 1_555
W3 O20 1_555 1_555
W3 O26 1_555 1_555
W4 O29 1_555 1_555
W5 O11 1_555 1_555
W5 O22 1_555 1_555
W5 O29 1_555 1_555
W6 O23 1_555 1_555
W6 O29 1_555 1_555
W7 O21 1_555 1_555
W7 O25 1_555 1_555
W7 O27 1_555 1_555
O9 W3H 1_555 1_555
O13 Ni4F 1_555 1_555
O19 Ni1D 1_555 1_555
C1 C2 1_555 1_555
C4 C5 1_555 1_555
C7 C8 1_555 1_555
C8 C11 1_555 1_555
C9 C10 1_555 1_555
O8H W2H 1_555 1_555
O8H W3H 1_555 1_555
O29F W5F 1_555 1_555
O29I W6I 1_555 1_555
Ni1D O7D 1_555 1_555
Ni2D O6D 1_555 1_555
Ni2D O7D 1_555 1_555
Ni4D O10D 1_555 1_555
W1D O9D 1_555 1_555
W2D O16D 1_555 1_555
W2D O24D 1_555 1_555
W3D O20D 1_555 1_555
W3D O26D 1_555 1_555
W5D O11D 1_555 1_555
W5D O22D 1_555 1_555
W5D O29D 1_555 1_555
W6D O23D 1_555 1_555
W6D O29D 1_555 1_555
W7D O21D 1_555 1_555
W7D O25D 1_555 1_555
W7D O27D 1_555 1_555
O2D Ni1H 1_555 1_555
O6D Ni1H 1_555 1_555
C1D C2D 1_555 1_555
C4D C5D 1_555 1_555
Ni1H O6H 1_555 1_555
Ni1H O7H 1_555 1_555
Ni2H O6H 1_555 1_555
Ni2H O7H 1_555 1_555
Ni4H O10H 1_555 1_555
W1H O2H 1_555 1_555
W1H O9H 1_555 1_555
W2H O16H 1_555 1_555
W2H O24H 1_555 1_555
W3H O20H 1_555 1_555
W3H O26H 1_555 1_555
W5H O11H 1_555 1_555
W5H O22H 1_555 1_555
W5H O29H 1_555 1_555
W6H O23H 1_555 1_555
W6H O29H 1_555 1_555
W7H O21H 1_555 1_555
W7H O25H 1_555 1_555
W7H O27H 1_555 1_555
C1H C2H 1_555 1_555
C4H C5H 1_555 1_555
Ni4B O10B 1_555 1_555
Ni4B O13B 1_555 1_555
Ni4F O10F 1_555 1_555
Ni4I O4I 1_555 1_555
Ni4J O10J 1_555 1_555
Ni4J O13A 1_555 1_555
W4F O14F 1_555 1_555
W5I O11I 1_555 1_555
W6A O17A 1_555 1_555
W6E O17E 1_555 1_555
W6I O17I 1_555 1_555

#END
