
#######################################################################
#
#                 Cambridge Crystallographic Data Centre
#                                CCDC 
#
#######################################################################
#
# If this CIF has been generated from an entry in the Cambridge 
# Structural Database, then it will include bibliographic, chemical, 
# crystal, experimental, refinement or atomic coordinate data resulting 
# from the CCDC's data processing and validation procedures.
#
#######################################################################

data_EMUTUD
_chemical_formula_moiety         '(C32 H23 Br2 Eu2 N2 O12 1-)n'
_symmetry_cell_setting           monoclinic
_symmetry_space_group_name_H-M   'P 21/c'
_symmetry_Int_Tables_number      14
_space_group_name_Hall           '-P 2ybc'
loop_
_symmetry_equiv_pos_site_id
_symmetry_equiv_pos_as_xyz
1 x,y,z
2 -x,1/2+y,1/2-z
3 -x,-y,-z
4 x,1/2-y,1/2+z
_cell_length_a                   9.9325(8)
_cell_length_b                   12.7089(11)
_cell_length_c                   16.2027(14)
_cell_angle_alpha                90
_cell_angle_beta                 96.236(5)
_cell_angle_gamma                90
_cell_volume                     2033.18
loop_
_atom_site_label
_atom_site_type_symbol
_atom_site_fract_x
_atom_site_fract_y
_atom_site_fract_z
Eu1 Eu 0.30590(3) 0.04326(3) -0.00501(2)
Br1 Br 0.2194(3) 0.25498(17) -0.0165(2)
O1 O 0.4136(6) 0.0441(5) 0.1326(3)
O2 O 0.6372(5) 0.0228(5) 0.1337(3)
O3 O 0.7333(6) 0.3581(5) 0.4770(4)
O4 O 0.5136(6) 0.3764(4) 0.4731(3)
O5 O 0.0956(5) -0.0009(5) -0.0841(3)
O6 O -0.1228(5) -0.0381(5) -0.0794(3)
C1 C 0.5544(7) 0.1070(6) 0.2492(4)
C2 C 0.4577(8) 0.1769(8) 0.2650(5)
H1 H 0.3772 0.1799 0.2299
C3 C 0.4773(8) 0.2461(8) 0.3346(5)
H2 H 0.4092 0.2930 0.3448
C4 C 0.5947(7) 0.2440(6) 0.3863(4)
C5 C 0.6961(7) 0.1663(6) 0.3746(4)
C6 C 0.8173(8) 0.1552(7) 0.4291(5)
H3 H 0.8340 0.2015 0.4734
C7 C 0.9099(10) 0.0788(8) 0.4184(6)
H4 H 0.9906 0.0754 0.4532
C8 C 0.8821(11) 0.0048(9) 0.3539(7)
H5 H 0.9421 -0.0504 0.3489
C9 C 0.7701(10) 0.0128(7) 0.2993(6)
H6 H 0.7554 -0.0356 0.2563
C10 C 0.6743(7) 0.0943(6) 0.3068(4)
C11 C 0.5335(7) 0.0516(6) 0.1661(4)
C12 C 0.6149(7) 0.3291(6) 0.4505(4)
C13 C -0.0074(7) -0.0115(6) -0.0471(4)
O5B O -0.0956(5) 0.0009(5) 0.0841(3)
O6B O 0.1228(5) 0.0381(5) 0.0794(3)
C13B C 0.0074(7) 0.0115(6) 0.0471(4)
Eu1B Eu -0.30590(3) -0.04326(3) 0.00501(2)
Br1B Br -0.2194(3) -0.25498(17) 0.0165(2)
O1B O -0.4136(6) -0.0441(5) -0.1326(3)
O2B O -0.6372(5) -0.0228(5) -0.1337(3)
O3B O -0.7333(6) -0.3581(5) -0.4770(4)
O4B O -0.5136(6) -0.3764(4) -0.4731(3)
C1B C -0.5544(7) -0.1070(6) -0.2492(4)
C2B C -0.4577(8) -0.1769(8) -0.2650(5)
H1B H -0.3772 -0.1799 -0.2299
C3B C -0.4773(8) -0.2461(8) -0.3346(5)
H2B H -0.4092 -0.2930 -0.3448
C4B C -0.5947(7) -0.2440(6) -0.3863(4)
C5B C -0.6961(7) -0.1663(6) -0.3746(4)
C6B C -0.8173(8) -0.1552(7) -0.4291(5)
H3B H -0.8340 -0.2015 -0.4734
C7B C -0.9099(10) -0.0788(8) -0.4184(6)
H4B H -0.9906 -0.0754 -0.4532
C8B C -0.8821(11) -0.0048(9) -0.3539(7)
H5B H -0.9421 0.0504 -0.3489
C9B C -0.7701(10) -0.0128(7) -0.2993(6)
H6B H -0.7554 0.0356 -0.2563
C10B C -0.6743(7) -0.0943(6) -0.3068(4)
C11B C -0.5335(7) -0.0516(6) -0.1661(4)
C12B C -0.6149(7) -0.3291(6) -0.4505(4)
Eu1_2 Eu -0.69410(3) 0.04326(3) -0.00501(2)
Eu1A Eu -0.30590(3) -0.45674(3) -0.49499(2)
Eu1A_2 Eu 0.69410(3) 0.54326(3) 0.50501(2)
Eu1B_2 Eu 0.69410(3) -0.04326(3) 0.00501(2)
Eu1C Eu -0.69410(3) -0.54326(3) -0.50501(2)
Eu1C_2 Eu 0.30590(3) 0.45674(3) 0.49499(2)
O2_2 O -0.3628(5) 0.0228(5) 0.1337(3)
O2B_2 O 0.3628(5) -0.0228(5) -0.1337(3)
O3A O 0.2667(6) -0.1419(5) 0.0230(4)
O3C O -0.2667(6) 0.1419(5) -0.0230(4)
O4A O -0.5136(6) -0.1236(4) 0.0269(3)
O4A_2 O 0.4864(6) -0.1236(4) 0.0269(3)
O4C O -0.4864(6) 0.1236(4) -0.0269(3)
O4C_2 O 0.5136(6) 0.1236(4) -0.0269(3)
C14 C 0.8296(13) 0.2539(9) 0.1738(7)
H7 H 0.8173 0.2047 0.1311
C15 C 0.9168(13) 0.3431(9) 0.2805(7)
H8 H 0.9774 0.3657 0.3248
C16 C 0.7950(14) 0.3852(10) 0.2558(7)
H9 H 0.7548 0.4419 0.2799
C17 C 0.6085(19) 0.3493(16) 0.1402(10)
H10 H 0.5851 0.2902 0.1035
H11 H 0.5398 0.3546 0.1782
C18 C 0.608(2) 0.4450(16) 0.0912(12)
H12 H 0.5201 0.4544 0.0608
H13 H 0.6750 0.4399 0.0530
H14 H 0.6280 0.5041 0.1273
C19 C 1.0537(15) 0.1935(13) 0.2312(10)
H15 H 1.0389 0.1392 0.1900
H16 H 1.0703 0.1620 0.2852
H17 H 1.1306 0.2350 0.2204
N1 N 0.7419(11) 0.3288(8) 0.1884(6)
N2 N 0.9349(10) 0.2601(7) 0.2281(6)
loop_
_geom_bond_atom_site_label_1
_geom_bond_atom_site_label_2
_geom_bond_site_symmetry_1
_geom_bond_site_symmetry_2
Eu1 Br1 1_555 1_555
O1 Eu1 1_555 1_555
O2 C11 1_555 1_555
O3 C12 1_555 1_555
O4 C12 1_555 1_555
O5 Eu1 1_555 1_555
O6 C13 1_555 1_555
C1 C2 1_555 1_555
C2 H1 1_555 1_555
C3 C2 1_555 1_555
H2 C3 1_555 1_555
C4 C3 1_555 1_555
C5 C4 1_555 1_555
C6 C5 1_555 1_555
H3 C6 1_555 1_555
C7 C6 1_555 1_555
H4 C7 1_555 1_555
C8 C7 1_555 1_555
H5 C8 1_555 1_555
C9 C8 1_555 1_555
H6 C9 1_555 1_555
C10 C1 1_555 1_555
C11 O1 1_555 1_555
C12 C4 1_555 1_555
C13 O5 1_555 1_555
C14 H7 1_555 1_555
C15 H8 1_555 1_555
C16 C15 1_555 1_555
H9 C16 1_555 1_555
C17 H10 1_555 1_555
H11 C17 1_555 1_555
C18 C17 1_555 1_555
H12 C18 1_555 1_555
H13 C18 1_555 1_555
H14 C18 1_555 1_555
C19 H15 1_555 1_555
H16 C19 1_555 1_555
H17 C19 1_555 1_555
N1 C14 1_555 1_555
N2 C14 1_555 1_555
O5B C13B 1_555 1_555
O6B Eu1 1_555 1_555
C13B C13 1_555 1_555
Eu1B O6 1_555 1_555
Br1B Eu1B 1_555 1_555
O1B Eu1B 1_555 1_555
O2B C11B 1_555 1_555
O3B C12B 1_555 1_555
O4B C12B 1_555 1_555
C1B C2B 1_555 1_555
C2B H1B 1_555 1_555
C3B C2B 1_555 1_555
H2B C3B 1_555 1_555
C4B C3B 1_555 1_555
C5B C4B 1_555 1_555
C6B C5B 1_555 1_555
H3B C6B 1_555 1_555
C7B C6B 1_555 1_555
H4B C7B 1_555 1_555
C8B C7B 1_555 1_555
H5B C8B 1_555 1_555
C9B C8B 1_555 1_555
H6B C9B 1_555 1_555
C10B C1B 1_555 1_555
C11B O1B 1_555 1_555
C12B C4B 1_555 1_555
Eu1_2 O2B 1_555 1_555
Eu1A O4B 1_555 1_555
Eu1A_2 O3 1_555 1_555
Eu1B_2 O2 1_555 1_555
Eu1C O3B 1_555 1_555
Eu1C_2 O4 1_555 1_555
O2_2 Eu1B 1_555 1_555
O2B_2 Eu1 1_555 1_555
O3A Eu1 1_555 1_555
O3C Eu1B 1_555 1_555
O4A Eu1B 1_555 1_555
O4A_2 Eu1 1_555 1_555
O4C Eu1B 1_555 1_555
O4C_2 Eu1 1_555 1_555
O4 Eu1A_2 1_555 1_555
C1 C11 1_555 1_555
C5 C10 1_555 1_555
C9 C10 1_555 1_555
C15 N2 1_555 1_555
C16 N1 1_555 1_555
C17 N1 1_555 1_555
C19 N2 1_555 1_555
O5B Eu1B 1_555 1_555
O6B C13B 1_555 1_555
O4B Eu1C 1_555 1_555
C1B C11B 1_555 1_555
C5B C10B 1_555 1_555
C9B C10B 1_555 1_555
Eu1_2 O4A 1_555 1_555
Eu1_2 O4C 1_555 1_555
Eu1B_2 O4A_2 1_555 1_555
Eu1B_2 O4C_2 1_555 1_555

#END
