
#######################################################################
#
#                 Cambridge Crystallographic Data Centre
#                                CCDC 
#
#######################################################################
#
# If this CIF has been generated from an entry in the Cambridge 
# Structural Database, then it will include bibliographic, chemical, 
# crystal, experimental, refinement or atomic coordinate data resulting 
# from the CCDC's data processing and validation procedures.
#
#######################################################################

data_EMUVAL
_chemical_formula_moiety         '(C32 H23 Br2 N2 O12 Sm2 1-)n'
_symmetry_cell_setting           monoclinic
_symmetry_space_group_name_H-M   'P 21/c'
_symmetry_Int_Tables_number      14
_space_group_name_Hall           '-P 2ybc'
loop_
_symmetry_equiv_pos_site_id
_symmetry_equiv_pos_as_xyz
1 x,y,z
2 -x,1/2+y,1/2-z
3 -x,-y,-z
4 x,1/2-y,1/2+z
_cell_length_a                   9.9524(11)
_cell_length_b                   12.6700(14)
_cell_length_c                   16.2137(17)
_cell_angle_alpha                90
_cell_angle_beta                 96.180(6)
_cell_angle_gamma                90
_cell_volume                     2032.62
loop_
_atom_site_label
_atom_site_type_symbol
_atom_site_fract_x
_atom_site_fract_y
_atom_site_fract_z
Sm1 Sm 0.30634(4) 0.04382(3) -0.00497(2)
O1 O 0.4130(7) 0.0445(5) 0.1330(4)
O2 O 0.6360(7) 0.0221(6) 0.1342(4)
O3 O 0.7355(7) 0.3582(6) 0.4775(5)
O4 O 0.5163(6) 0.3769(5) 0.4732(4)
O5 O 0.0953(6) -0.0001(6) -0.0842(4)
O6 O -0.1230(6) -0.0378(6) -0.0790(4)
C1 C 0.5547(8) 0.1064(8) 0.2500(5)
C2 C 0.4584(10) 0.1769(10) 0.2658(6)
H1 H 0.3781 0.1799 0.2308
C3 C 0.4778(9) 0.2464(9) 0.3350(6)
H2 H 0.4105 0.2940 0.3453
C4 C 0.5965(9) 0.2426(7) 0.3863(5)
C5 C 0.6970(8) 0.1658(7) 0.3745(5)
C6 C 0.8203(10) 0.1552(8) 0.4289(6)
H3 H 0.8380 0.2022 0.4728
C7 C 0.9106(12) 0.0788(10) 0.4177(7)
H4 H 0.9912 0.0751 0.4524
C8 C 0.8829(13) 0.0042(11) 0.3532(8)
H5 H 0.9428 -0.0511 0.3476
C9 C 0.7690(12) 0.0130(9) 0.2993(7)
H6 H 0.7532 -0.0356 0.2564
C10 C 0.6746(9) 0.0941(8) 0.3069(5)
C11 C 0.5338(9) 0.0514(7) 0.1667(6)
C12 C 0.6175(9) 0.3287(7) 0.4520(5)
C13 C -0.0071(8) -0.0104(7) -0.0474(5)
Br1 Br 0.2206(3) 0.25669(19) -0.0158(2)
O5B O -0.0953(6) 0.0001(6) 0.0842(4)
O6B O 0.1230(6) 0.0378(6) 0.0790(4)
C13B C 0.0071(8) 0.0104(7) 0.0474(5)
Sm1B Sm -0.30634(4) -0.04382(3) 0.00497(2)
O1B O -0.4130(7) -0.0445(5) -0.1330(4)
O2B O -0.6360(7) -0.0221(6) -0.1342(4)
O3B O -0.7355(7) -0.3582(6) -0.4775(5)
O4B O -0.5163(6) -0.3769(5) -0.4732(4)
C1B C -0.5547(8) -0.1064(8) -0.2500(5)
C2B C -0.4584(10) -0.1769(10) -0.2658(6)
H1B H -0.3781 -0.1799 -0.2308
C3B C -0.4778(9) -0.2464(9) -0.3350(6)
H2B H -0.4105 -0.2940 -0.3453
C4B C -0.5965(9) -0.2426(7) -0.3863(5)
C5B C -0.6970(8) -0.1658(7) -0.3745(5)
C6B C -0.8203(10) -0.1552(8) -0.4289(6)
H3B H -0.8380 -0.2022 -0.4728
C7B C -0.9106(12) -0.0788(10) -0.4177(7)
H4B H -0.9912 -0.0751 -0.4524
C8B C -0.8829(13) -0.0042(11) -0.3532(8)
H5B H -0.9428 0.0511 -0.3476
C9B C -0.7690(12) -0.0130(9) -0.2993(7)
H6B H -0.7532 0.0356 -0.2564
C10B C -0.6746(9) -0.0941(8) -0.3069(5)
C11B C -0.5338(9) -0.0514(7) -0.1667(6)
C12B C -0.6175(9) -0.3287(7) -0.4520(5)
Br1B Br -0.2206(3) -0.25669(19) 0.0158(2)
Sm1_2 Sm -0.69366(4) 0.04382(3) -0.00497(2)
Sm1A Sm -0.30634(4) -0.45618(3) -0.49503(2)
Sm1A_2 Sm 0.69366(4) 0.54382(3) 0.50497(2)
Sm1B_2 Sm 0.69366(4) -0.04382(3) 0.00497(2)
Sm1C Sm -0.69366(4) -0.54382(3) -0.50497(2)
Sm1C_2 Sm 0.30634(4) 0.45618(3) 0.49503(2)
O2_2 O -0.3640(7) 0.0221(6) 0.1342(4)
O2B_2 O 0.3640(7) -0.0221(6) -0.1342(4)
O3A O 0.2645(7) -0.1418(6) 0.0225(5)
O3C O -0.2645(7) 0.1418(6) -0.0225(5)
O4A O -0.5163(6) -0.1231(5) 0.0268(4)
O4A_2 O 0.4837(6) -0.1231(5) 0.0268(4)
O4C O -0.4837(6) 0.1231(5) -0.0268(4)
O4C_2 O 0.5163(6) 0.1231(5) -0.0268(4)
C14 C 0.8295(16) 0.2542(12) 0.1737(8)
H7 H 0.8170 0.2047 0.1313
C15 C 0.9145(16) 0.3429(12) 0.2804(9)
H8 H 0.9734 0.3651 0.3255
C16 C 0.7949(17) 0.3851(12) 0.2553(9)
H9 H 0.7548 0.4422 0.2791
C17 C 0.608(2) 0.3476(18) 0.1405(13)
H10 H 0.5842 0.2884 0.1038
H11 H 0.5397 0.3533 0.1788
C18 C 0.610(3) 0.445(2) 0.0914(16)
H12 H 0.5230 0.4559 0.0607
H13 H 0.6774 0.4396 0.0536
H14 H 0.6306 0.5041 0.1279
C19 C 1.0545(18) 0.1941(15) 0.2317(12)
H15 H 1.0407 0.1394 0.1907
H16 H 1.0704 0.1629 0.2859
H17 H 1.1313 0.2359 0.2213
N1 N 0.7420(14) 0.3282(10) 0.1877(8)
N2 N 0.9362(12) 0.2601(9) 0.2277(7)
loop_
_geom_bond_atom_site_label_1
_geom_bond_atom_site_label_2
_geom_bond_site_symmetry_1
_geom_bond_site_symmetry_2
Sm1 O1 1_555 1_555
O1 C11 1_555 1_555
O2 C11 1_555 1_555
O3 C12 1_555 1_555
O4 C12 1_555 1_555
O5 Sm1 1_555 1_555
O6 C13 1_555 1_555
C1 C2 1_555 1_555
C2 H1 1_555 1_555
C3 C2 1_555 1_555
H2 C3 1_555 1_555
C4 C3 1_555 1_555
C5 C4 1_555 1_555
C6 C5 1_555 1_555
H3 C6 1_555 1_555
C7 C6 1_555 1_555
H4 C7 1_555 1_555
C8 C7 1_555 1_555
H5 C8 1_555 1_555
C9 C8 1_555 1_555
H6 C9 1_555 1_555
C10 C1 1_555 1_555
C11 C1 1_555 1_555
C12 C4 1_555 1_555
C13 O5 1_555 1_555
Br1 Sm1 1_555 1_555
C14 H7 1_555 1_555
C15 H8 1_555 1_555
C16 C15 1_555 1_555
H9 C16 1_555 1_555
C17 H10 1_555 1_555
H11 C17 1_555 1_555
C18 C17 1_555 1_555
H12 C18 1_555 1_555
H13 C18 1_555 1_555
H14 C18 1_555 1_555
C19 H15 1_555 1_555
H16 C19 1_555 1_555
H17 C19 1_555 1_555
N1 C14 1_555 1_555
N2 C14 1_555 1_555
O5B C13B 1_555 1_555
O6B Sm1 1_555 1_555
C13B C13 1_555 1_555
Sm1B O6 1_555 1_555
O1B Sm1B 1_555 1_555
O2B C11B 1_555 1_555
O3B C12B 1_555 1_555
O4B C12B 1_555 1_555
C1B C2B 1_555 1_555
C2B H1B 1_555 1_555
C3B C2B 1_555 1_555
H2B C3B 1_555 1_555
C4B C3B 1_555 1_555
C5B C4B 1_555 1_555
C6B C5B 1_555 1_555
H3B C6B 1_555 1_555
C7B C6B 1_555 1_555
H4B C7B 1_555 1_555
C8B C7B 1_555 1_555
H5B C8B 1_555 1_555
C9B C8B 1_555 1_555
H6B C9B 1_555 1_555
C10B C1B 1_555 1_555
C11B O1B 1_555 1_555
C12B C4B 1_555 1_555
Br1B Sm1B 1_555 1_555
Sm1_2 O2B 1_555 1_555
Sm1A O4B 1_555 1_555
Sm1A_2 O3 1_555 1_555
Sm1B_2 O2 1_555 1_555
Sm1C O3B 1_555 1_555
Sm1C_2 O4 1_555 1_555
O2_2 Sm1B 1_555 1_555
O2B_2 Sm1 1_555 1_555
O3A Sm1 1_555 1_555
O3C Sm1B 1_555 1_555
O4A Sm1B 1_555 1_555
O4A_2 Sm1 1_555 1_555
O4C Sm1B 1_555 1_555
O4C_2 Sm1 1_555 1_555
O4 Sm1A_2 1_555 1_555
C5 C10 1_555 1_555
C9 C10 1_555 1_555
C15 N2 1_555 1_555
C16 N1 1_555 1_555
C17 N1 1_555 1_555
C19 N2 1_555 1_555
O5B Sm1B 1_555 1_555
O6B C13B 1_555 1_555
O4B Sm1C 1_555 1_555
C1B C11B 1_555 1_555
C5B C10B 1_555 1_555
C9B C10B 1_555 1_555
Sm1_2 O4A 1_555 1_555
Sm1_2 O4C 1_555 1_555
Sm1B_2 O4A_2 1_555 1_555
Sm1B_2 O4C_2 1_555 1_555

#END
