
#######################################################################
#
#                 Cambridge Crystallographic Data Centre
#                                CCDC 
#
#######################################################################
#
# If this CIF has been generated from an entry in the Cambridge 
# Structural Database, then it will include bibliographic, chemical, 
# crystal, experimental, refinement or atomic coordinate data resulting 
# from the CCDC's data processing and validation procedures.
#
#######################################################################

data_RANVUA
_chemical_formula_moiety         'C144 H48 Cl8 Mn34 O85 S48'
_symmetry_cell_setting           cubic
_symmetry_space_group_name_H-M   'P m -3 m'
_symmetry_Int_Tables_number      221
_space_group_name_Hall           '-P 4 2 3'
loop_
_symmetry_equiv_pos_site_id
_symmetry_equiv_pos_as_xyz
1 x,y,z
2 -y,x,z
3 -x,-y,z
4 y,-x,z
5 x,-z,y
6 x,-y,-z
7 x,z,-y
8 z,y,-x
9 -x,y,-z
10 -z,y,x
11 z,x,y
12 y,z,x
13 -y,-z,x
14 z,-x,-y
15 -y,z,-x
16 -z,-x,y
17 -z,x,-y
18 y,-z,-x
19 y,x,-z
20 -y,-x,-z
21 -x,z,y
22 -x,-z,-y
23 z,-y,x
24 -z,-y,-x
25 -x,-y,-z
26 y,-x,-z
27 x,y,-z
28 -y,x,-z
29 -x,z,-y
30 -x,y,z
31 -x,-z,y
32 -z,-y,x
33 x,-y,z
34 z,-y,-x
35 -z,-x,-y
36 -y,-z,-x
37 y,z,-x
38 -z,x,y
39 y,-z,x
40 z,x,-y
41 z,-x,y
42 -y,z,x
43 -y,-x,z
44 y,x,z
45 x,-z,-y
46 x,z,y
47 -z,y,-x
48 z,y,x
_cell_length_a                   20.99390(10)
_cell_length_b                   20.99390(10)
_cell_length_c                   20.99390(10)
_cell_angle_alpha                90
_cell_angle_beta                 90
_cell_angle_gamma                90
_cell_volume                     9252.93
loop_
_atom_site_label
_atom_site_type_symbol
_atom_site_fract_x
_atom_site_fract_y
_atom_site_fract_z
Mn1 Mn 0.36541(8) 0.0000 0.5000
O1 O 0.3586(2) 0.07301(19) 0.4333(2)
O2 O 0.2553(4) 0.0000 0.5000
C1 C 0.3854(2) 0.0945(3) 0.3854(2)
C2 C 0.3575(2) 0.1536(3) 0.3575(2)
S1 S 0.39548(14) 0.18604(13) 0.28850(15)
C3 C 0.3105(5) 0.1873(5) 0.3736(6)
C4 C 0.3373(2) 0.2429(2) 0.2906(2)
H1 H 0.2873 0.1765 0.4109
Cl1 Cl 0.5000 0.0000 0.5000
O1SA O 0.3586(2) 0.4333(2) 0.07301(19)
C1J C 0.3854(2) 0.3854(2) 0.0945(3)
C2J C 0.3575(2) 0.3575(2) 0.1536(3)
S1SA S 0.39548(14) 0.28850(15) 0.18604(13)
C3SA C 0.3105(5) 0.3736(6) 0.1873(5)
C4SA C 0.3373(2) 0.2906(2) 0.2429(2)
H1SA H 0.2873 0.4109 0.1765
O1UA O 0.4333(2) 0.07301(19) 0.3586(2)
S1UA S 0.28850(15) 0.18604(13) 0.39548(14)
C3UA C 0.3736(6) 0.1873(5) 0.3105(5)
C4UA C 0.2906(2) 0.2429(2) 0.3373(2)
H1UA H 0.4109 0.1765 0.2873
O1J O 0.4333(2) 0.3586(2) 0.07301(19)
S1J S 0.28850(15) 0.39548(14) 0.18604(13)
C3J C 0.3736(6) 0.3105(5) 0.1873(5)
C4J C 0.2906(2) 0.3373(2) 0.2429(2)
H1J H 0.4109 0.2873 0.1765
O1K O 0.07301(19) 0.4333(2) 0.3586(2)
C1K C 0.0945(3) 0.3854(2) 0.3854(2)
C2K C 0.1536(3) 0.3575(2) 0.3575(2)
S1K S 0.18604(13) 0.28850(15) 0.39548(14)
C3K C 0.1873(5) 0.3736(6) 0.3105(5)
C4K C 0.2429(2) 0.2906(2) 0.3373(2)
H1K H 0.1765 0.4109 0.2873
O1QA O 0.07301(19) 0.3586(2) 0.4333(2)
S1QA S 0.18604(13) 0.39548(14) 0.28850(15)
C3QA C 0.1873(5) 0.3105(5) 0.3736(6)
C4QA C 0.2429(2) 0.3373(2) 0.2906(2)
H1QA H 0.1765 0.2873 0.4109
Mn1A Mn 0.0000 0.36541(8) 0.5000
O1A O -0.07301(19) 0.3586(2) 0.4333(2)
O2A O 0.0000 0.2553(4) 0.5000
C1A C -0.0945(3) 0.3854(2) 0.3854(2)
C2A C -0.1536(3) 0.3575(2) 0.3575(2)
S1A S -0.18604(13) 0.39548(14) 0.28850(15)
C3A C -0.1873(5) 0.3105(5) 0.3736(6)
C4A C -0.2429(2) 0.3373(2) 0.2906(2)
H1A H -0.1765 0.2873 0.4109
Cl1A Cl 0.0000 0.5000 0.5000
O1KA O -0.4333(2) 0.3586(2) 0.07301(19)
C1T C -0.3854(2) 0.3854(2) 0.0945(3)
C2T C -0.3575(2) 0.3575(2) 0.1536(3)
S1KA S -0.28850(15) 0.39548(14) 0.18604(13)
C3KA C -0.3736(6) 0.3105(5) 0.1873(5)
C4KA C -0.2906(2) 0.3373(2) 0.2429(2)
H1KA H -0.4109 0.2873 0.1765
O1OA O -0.07301(19) 0.4333(2) 0.3586(2)
S1OA S -0.18604(13) 0.28850(15) 0.39548(14)
C3OA C -0.1873(5) 0.3736(6) 0.3105(5)
C4OA C -0.2429(2) 0.2906(2) 0.3373(2)
H1OA H -0.1765 0.4109 0.2873
O1T O -0.3586(2) 0.4333(2) 0.07301(19)
S1T S -0.39548(14) 0.28850(15) 0.18604(13)
C3T C -0.3105(5) 0.3736(6) 0.1873(5)
C4T C -0.3373(2) 0.2906(2) 0.2429(2)
H1T H -0.2873 0.4109 0.1765
O1I O -0.4333(2) 0.07301(19) 0.3586(2)
C1I C -0.3854(2) 0.0945(3) 0.3854(2)
C2I C -0.3575(2) 0.1536(3) 0.3575(2)
S1I S -0.28850(15) 0.18604(13) 0.39548(14)
C3I C -0.3736(6) 0.1873(5) 0.3105(5)
C4I C -0.2906(2) 0.2429(2) 0.3373(2)
H1I H -0.4109 0.1765 0.2873
O1CA O -0.3586(2) 0.07301(19) 0.4333(2)
S1CA S -0.39548(14) 0.18604(13) 0.28850(15)
C3CA C -0.3105(5) 0.1873(5) 0.3736(6)
C4CA C -0.3373(2) 0.2429(2) 0.2906(2)
H1CA H -0.2873 0.1765 0.4109
Mn1B Mn 0.63459(8) 0.0000 0.5000
O1B O 0.6414(2) -0.07301(19) 0.4333(2)
O2B O 0.7447(4) 0.0000 0.5000
C1B C 0.6146(2) -0.0945(3) 0.3854(2)
C2B C 0.6425(2) -0.1536(3) 0.3575(2)
S1B S 0.60452(14) -0.18604(13) 0.28850(15)
C3B C 0.6895(5) -0.1873(5) 0.3736(6)
C4B C 0.6627(2) -0.2429(2) 0.2906(2)
H1B H 0.7127 -0.1765 0.4109
O1DA O 0.6414(2) -0.4333(2) 0.07301(19)
C1O C 0.6146(2) -0.3854(2) 0.0945(3)
C2O C 0.6425(2) -0.3575(2) 0.1536(3)
S1DA S 0.60452(14) -0.28850(15) 0.18604(13)
C3DA C 0.6895(5) -0.3736(6) 0.1873(5)
C4DA C 0.6627(2) -0.2906(2) 0.2429(2)
H1DA H 0.7127 -0.4109 0.1765
O1EA O 0.5667(2) -0.07301(19) 0.3586(2)
S1EA S 0.71150(15) -0.18604(13) 0.39548(14)
C3EA C 0.6264(6) -0.1873(5) 0.3105(5)
C4EA C 0.7094(2) -0.2429(2) 0.3373(2)
H1EA H 0.5891 -0.1765 0.2873
O1O O 0.5667(2) -0.3586(2) 0.07301(19)
S1O S 0.71150(15) -0.39548(14) 0.18604(13)
C3O C 0.6264(6) -0.3105(5) 0.1873(5)
C4O C 0.7094(2) -0.3373(2) 0.2429(2)
H1O H 0.5891 -0.2873 0.1765
O1L O 0.92699(19) -0.4333(2) 0.3586(2)
C1L C 0.9055(3) -0.3854(2) 0.3854(2)
C2L C 0.8464(3) -0.3575(2) 0.3575(2)
S1L S 0.81396(13) -0.28850(15) 0.39548(14)
C3L C 0.8127(5) -0.3736(6) 0.3105(5)
C4L C 0.7571(2) -0.2906(2) 0.3373(2)
H1L H 0.8235 -0.4109 0.2873
O1PA O 0.92699(19) -0.3586(2) 0.4333(2)
S1PA S 0.81396(13) -0.39548(14) 0.28850(15)
C3PA C 0.8127(5) -0.3105(5) 0.3736(6)
C4PA C 0.7571(2) -0.3373(2) 0.2906(2)
H1PA H 0.8235 -0.2873 0.4109
Mn1C Mn 0.0000 -0.36541(8) 0.5000
O1C O 0.07301(19) -0.3586(2) 0.4333(2)
O2C O 0.0000 -0.2553(4) 0.5000
C1C C 0.0945(3) -0.3854(2) 0.3854(2)
C2C C 0.1536(3) -0.3575(2) 0.3575(2)
S1C S 0.18604(13) -0.39548(14) 0.28850(15)
C3C C 0.1873(5) -0.3105(5) 0.3736(6)
C4C C 0.2429(2) -0.3373(2) 0.2906(2)
H1C H 0.1765 -0.2873 0.4109
Cl1A_2 Cl 0.0000 -0.5000 0.5000
O1NA O 0.4333(2) -0.3586(2) 0.07301(19)
C1D C 0.3854(2) -0.3854(2) 0.0945(3)
C2D C 0.3575(2) -0.3575(2) 0.1536(3)
S1NA S 0.28850(15) -0.39548(14) 0.18604(13)
C3NA C 0.3736(6) -0.3105(5) 0.1873(5)
C4NA C 0.2906(2) -0.3373(2) 0.2429(2)
H1NA H 0.4109 -0.2873 0.1765
O1LA O 0.07301(19) -0.4333(2) 0.3586(2)
S1LA S 0.18604(13) -0.28850(15) 0.39548(14)
C3LA C 0.1873(5) -0.3736(6) 0.3105(5)
C4LA C 0.2429(2) -0.2906(2) 0.3373(2)
H1LA H 0.1765 -0.4109 0.2873
O1D O 0.3586(2) -0.4333(2) 0.07301(19)
S1D S 0.39548(14) -0.28850(15) 0.18604(13)
C3D C 0.3105(5) -0.3736(6) 0.1873(5)
C4D C 0.3373(2) -0.2906(2) 0.2429(2)
H1D H 0.2873 -0.4109 0.1765
O1V O 0.4333(2) -0.07301(19) 0.3586(2)
C1V C 0.3854(2) -0.0945(3) 0.3854(2)
C2V C 0.3575(2) -0.1536(3) 0.3575(2)
S1V S 0.28850(15) -0.18604(13) 0.39548(14)
C3V C 0.3736(6) -0.1873(5) 0.3105(5)
C4V C 0.2906(2) -0.2429(2) 0.3373(2)
H1V H 0.4109 -0.1765 0.2873
O1FA O 0.3586(2) -0.07301(19) 0.4333(2)
S1FA S 0.39548(14) -0.18604(13) 0.28850(15)
C3FA C 0.3105(5) -0.1873(5) 0.3736(6)
C4FA C 0.3373(2) -0.2429(2) 0.2906(2)
H1FA H 0.2873 -0.1765 0.4109
Mn1C_2 Mn 0.0000 0.63459(8) 0.5000
O1C_2 O 0.07301(19) 0.6414(2) 0.4333(2)
O2C_2 O 0.0000 0.7447(4) 0.5000
C1C_2 C 0.0945(3) 0.6146(2) 0.3854(2)
C2C_2 C 0.1536(3) 0.6425(2) 0.3575(2)
S1C_2 S 0.18604(13) 0.60452(14) 0.28850(15)
C3C_2 C 0.1873(5) 0.6895(5) 0.3736(6)
C4C_2 C 0.2429(2) 0.6627(2) 0.2906(2)
H1C_2 H 0.1765 0.7127 0.4109
O1NA_2 O 0.4333(2) 0.6414(2) 0.07301(19)
C1D_2 C 0.3854(2) 0.6146(2) 0.0945(3)
C2D_2 C 0.3575(2) 0.6425(2) 0.1536(3)
S1NA_2 S 0.28850(15) 0.60452(14) 0.18604(13)
C3NA_2 C 0.3736(6) 0.6895(5) 0.1873(5)
C4NA_2 C 0.2906(2) 0.6627(2) 0.2429(2)
H1NA_2 H 0.4109 0.7127 0.1765
O1LA_2 O 0.07301(19) 0.5667(2) 0.3586(2)
S1LA_2 S 0.18604(13) 0.71150(15) 0.39548(14)
C3LA_2 C 0.1873(5) 0.6264(6) 0.3105(5)
C4LA_2 C 0.2429(2) 0.7094(2) 0.3373(2)
H1LA_2 H 0.1765 0.5891 0.2873
O1D_2 O 0.3586(2) 0.5667(2) 0.07301(19)
S1D_2 S 0.39548(14) 0.71150(15) 0.18604(13)
C3D_2 C 0.3105(5) 0.6264(6) 0.1873(5)
C4D_2 C 0.3373(2) 0.7094(2) 0.2429(2)
H1D_2 H 0.2873 0.5891 0.1765
O1V_2 O 0.4333(2) 0.92699(19) 0.3586(2)
C1V_2 C 0.3854(2) 0.9055(3) 0.3854(2)
C2V_2 C 0.3575(2) 0.8464(3) 0.3575(2)
S1V_2 S 0.28850(15) 0.81396(13) 0.39548(14)
C3V_2 C 0.3736(6) 0.8127(5) 0.3105(5)
C4V_2 C 0.2906(2) 0.7571(2) 0.3373(2)
H1V_2 H 0.4109 0.8235 0.2873
O1FA_2 O 0.3586(2) 0.92699(19) 0.4333(2)
S1FA_2 S 0.39548(14) 0.81396(13) 0.28850(15)
C3FA_2 C 0.3105(5) 0.8127(5) 0.3736(6)
C4FA_2 C 0.3373(2) 0.7571(2) 0.2906(2)
H1FA_2 H 0.2873 0.8235 0.4109
Mn1D Mn 0.36541(8) -0.5000 0.0000
O2D O 0.2553(4) -0.5000 0.0000
Mn1D_2 Mn 0.36541(8) 0.5000 0.0000
O2D_2 O 0.2553(4) 0.5000 0.0000
Mn1_2 Mn 0.36541(8) 1.0000 0.5000
O1E O 0.3586(2) 0.92699(19) 0.5667(2)
O2_2 O 0.2553(4) 1.0000 0.5000
C1E C 0.3854(2) 0.9055(3) 0.6146(2)
C2E C 0.3575(2) 0.8464(3) 0.6425(2)
S1E S 0.39548(14) 0.81396(13) 0.71150(15)
C3E C 0.3105(5) 0.8127(5) 0.6264(6)
C4E C 0.3373(2) 0.7571(2) 0.7094(2)
H1E H 0.2873 0.8235 0.5891
O1RA O 0.3586(2) 0.5667(2) 0.92699(19)
C1M C 0.3854(2) 0.6146(2) 0.9055(3)
C2M C 0.3575(2) 0.6425(2) 0.8464(3)
S1RA S 0.39548(14) 0.71150(15) 0.81396(13)
C3RA C 0.3105(5) 0.6264(6) 0.8127(5)
C4RA C 0.3373(2) 0.7094(2) 0.7571(2)
H1RA H 0.2873 0.5891 0.8235
O1GA O 0.4333(2) 0.92699(19) 0.6414(2)
S1GA S 0.28850(15) 0.81396(13) 0.60452(14)
C3GA C 0.3736(6) 0.8127(5) 0.6895(5)
C4GA C 0.2906(2) 0.7571(2) 0.6627(2)
H1GA H 0.4109 0.8235 0.7127
O1M O 0.4333(2) 0.6414(2) 0.92699(19)
S1M S 0.28850(15) 0.60452(14) 0.81396(13)
C3M C 0.3736(6) 0.6895(5) 0.8127(5)
C4M C 0.2906(2) 0.6627(2) 0.7571(2)
H1M H 0.4109 0.7127 0.8235
O1Q O 0.07301(19) 0.5667(2) 0.6414(2)
C1Q C 0.0945(3) 0.6146(2) 0.6146(2)
C2Q C 0.1536(3) 0.6425(2) 0.6425(2)
S1Q S 0.18604(13) 0.71150(15) 0.60452(14)
C3Q C 0.1873(5) 0.6264(6) 0.6895(5)
C4Q C 0.2429(2) 0.7094(2) 0.6627(2)
H1Q H 0.1765 0.5891 0.7127
O1Y O 0.07301(19) 0.6414(2) 0.5667(2)
S1Y S 0.18604(13) 0.60452(14) 0.71150(15)
C3Y C 0.1873(5) 0.6895(5) 0.6264(6)
C4Y C 0.2429(2) 0.6627(2) 0.7094(2)
H1Y H 0.1765 0.7127 0.5891
O1F O 0.3586(2) 0.4333(2) -0.07301(19)
C1F C 0.3854(2) 0.3854(2) -0.0945(3)
C2F C 0.3575(2) 0.3575(2) -0.1536(3)
S1F S 0.39548(14) 0.28850(15) -0.18604(13)
C3F C 0.3105(5) 0.3736(6) -0.1873(5)
C4F C 0.3373(2) 0.2906(2) -0.2429(2)
H1F H 0.2873 0.4109 -0.1765
O1Z O 0.3586(2) 0.07301(19) -0.4333(2)
C1G C 0.3854(2) 0.0945(3) -0.3854(2)
C2G C 0.3575(2) 0.1536(3) -0.3575(2)
S1Z S 0.39548(14) 0.18604(13) -0.28850(15)
C3Z C 0.3105(5) 0.1873(5) -0.3736(6)
C4Z C 0.3373(2) 0.2429(2) -0.2906(2)
H1Z H 0.2873 0.1765 -0.4109
O1MA O 0.4333(2) 0.3586(2) -0.07301(19)
S1MA S 0.28850(15) 0.39548(14) -0.18604(13)
C3MA C 0.3736(6) 0.3105(5) -0.1873(5)
C4MA C 0.2906(2) 0.3373(2) -0.2429(2)
H1MA H 0.4109 0.2873 -0.1765
O1G O 0.4333(2) 0.07301(19) -0.3586(2)
S1G S 0.28850(15) 0.18604(13) -0.39548(14)
C3G C 0.3736(6) 0.1873(5) -0.3105(5)
C4G C 0.2906(2) 0.2429(2) -0.3373(2)
H1G H 0.4109 0.1765 -0.2873
O1R O 0.07301(19) 0.3586(2) -0.4333(2)
C1R C 0.0945(3) 0.3854(2) -0.3854(2)
C2R C 0.1536(3) 0.3575(2) -0.3575(2)
S1R S 0.18604(13) 0.39548(14) -0.28850(15)
C3R C 0.1873(5) 0.3105(5) -0.3736(6)
C4R C 0.2429(2) 0.3373(2) -0.2906(2)
H1R H 0.1765 0.2873 -0.4109
O1JA O 0.07301(19) 0.4333(2) -0.3586(2)
S1JA S 0.18604(13) 0.28850(15) -0.39548(14)
C3JA C 0.1873(5) 0.3736(6) -0.3105(5)
C4JA C 0.2429(2) 0.2906(2) -0.3373(2)
H1JA H 0.1765 0.4109 -0.2873
Mn1D_3 Mn 0.36541(8) 0.5000 1.0000
O1F_2 O 0.3586(2) 0.4333(2) 0.92699(19)
O2D_3 O 0.2553(4) 0.5000 1.0000
C1F_2 C 0.3854(2) 0.3854(2) 0.9055(3)
C2F_2 C 0.3575(2) 0.3575(2) 0.8464(3)
S1F_2 S 0.39548(14) 0.28850(15) 0.81396(13)
C3F_2 C 0.3105(5) 0.3736(6) 0.8127(5)
C4F_2 C 0.3373(2) 0.2906(2) 0.7571(2)
H1F_2 H 0.2873 0.4109 0.8235
O1Z_2 O 0.3586(2) 0.07301(19) 0.5667(2)
C1G_2 C 0.3854(2) 0.0945(3) 0.6146(2)
C2G_2 C 0.3575(2) 0.1536(3) 0.6425(2)
S1Z_2 S 0.39548(14) 0.18604(13) 0.71150(15)
C3Z_2 C 0.3105(5) 0.1873(5) 0.6264(6)
C4Z_2 C 0.3373(2) 0.2429(2) 0.7094(2)
H1Z_2 H 0.2873 0.1765 0.5891
O1MA_2 O 0.4333(2) 0.3586(2) 0.92699(19)
S1MA_2 S 0.28850(15) 0.39548(14) 0.81396(13)
C3MA_2 C 0.3736(6) 0.3105(5) 0.8127(5)
C4MA_2 C 0.2906(2) 0.3373(2) 0.7571(2)
H1MA_2 H 0.4109 0.2873 0.8235
O1G_2 O 0.4333(2) 0.07301(19) 0.6414(2)
S1G_2 S 0.28850(15) 0.18604(13) 0.60452(14)
C3G_2 C 0.3736(6) 0.1873(5) 0.6895(5)
C4G_2 C 0.2906(2) 0.2429(2) 0.6627(2)
H1G_2 H 0.4109 0.1765 0.7127
O1R_2 O 0.07301(19) 0.3586(2) 0.5667(2)
C1R_2 C 0.0945(3) 0.3854(2) 0.6146(2)
C2R_2 C 0.1536(3) 0.3575(2) 0.6425(2)
S1R_2 S 0.18604(13) 0.39548(14) 0.71150(15)
C3R_2 C 0.1873(5) 0.3105(5) 0.6264(6)
C4R_2 C 0.2429(2) 0.3373(2) 0.7094(2)
H1R_2 H 0.1765 0.2873 0.5891
O1JA_2 O 0.07301(19) 0.4333(2) 0.6414(2)
S1JA_2 S 0.18604(13) 0.28850(15) 0.60452(14)
C3JA_2 C 0.1873(5) 0.3736(6) 0.6895(5)
C4JA_2 C 0.2429(2) 0.2906(2) 0.6627(2)
H1JA_2 H 0.1765 0.4109 0.7127
Mn1G Mn 0.5000 -0.0000 -0.36541(8)
O2G O 0.5000 -0.0000 -0.2553(4)
Mn1I Mn 0.5000 0.0000 0.36541(8)
O2I O 0.5000 0.0000 0.2553(4)
Mn1G_2 Mn 0.5000 0.0000 0.63459(8)
O2G_2 O 0.5000 0.0000 0.7447(4)
Mn1_3 Mn 0.36541(8) 0.0000 -0.5000
Mn1A_2 Mn 0.0000 -0.63459(8) 0.5000
Mn1A_3 Mn 0.0000 0.36541(8) -0.5000
Mn1B_2 Mn -0.36541(8) 0.0000 0.5000
Mn1C_3 Mn 1.0000 -0.36541(8) 0.5000
Mn1G_3 Mn 0.5000 1.0000 0.63459(8)
Mn1I_2 Mn -0.5000 0.0000 0.36541(8)
Mn1I_3 Mn 0.5000 1.0000 0.36541(8)
Mn1J Mn -0.5000 0.36541(8) 0.0000
Mn1J_2 Mn 0.5000 0.36541(8) 0.0000
Mn1J_3 Mn 0.5000 0.36541(8) 1.0000
Mn1K Mn 0.0000 -0.5000 0.36541(8)
Mn1K_2 Mn 0.0000 0.5000 0.36541(8)
Mn1K_3 Mn 1.0000 -0.5000 0.36541(8)
Mn1M Mn 0.5000 -0.36541(8) 0.0000
Mn1M_2 Mn 0.5000 0.63459(8) 0.0000
Mn1M_3 Mn 0.5000 0.63459(8) 1.0000
Mn1N Mn 0.0000 -0.5000 0.63459(8)
Mn1N_2 Mn -0.0000 0.5000 -0.36541(8)
Mn1N_3 Mn 0.0000 0.5000 0.63459(8)
Mn1T Mn -0.36541(8) 0.5000 0.0000
Mn1T_2 Mn 0.63459(8) -0.5000 0.0000
O1_2 O 0.3586(2) 1.07301(19) 0.4333(2)
O1D_3 O 0.3586(2) 0.5667(2) 1.07301(19)
O1E_2 O 0.3586(2) -0.07301(19) 0.5667(2)
O1F_3 O 0.3586(2) -0.5667(2) -0.07301(19)
O1H O 0.6414(2) 0.07301(19) 0.5667(2)
O1I_2 O 0.5667(2) 0.07301(19) 0.3586(2)
O1S O -0.07301(19) -0.3586(2) 0.5667(2)
O1S_2 O -0.07301(19) 0.6414(2) 0.5667(2)
O1W O 0.5667(2) -0.07301(19) -0.3586(2)
O1W_2 O 0.5667(2) -0.07301(19) 0.6414(2)
O1X O 0.6414(2) -0.07301(19) 0.5667(2)
O1Y_2 O 0.07301(19) -0.3586(2) 0.5667(2)
O1Z_3 O 0.3586(2) 1.07301(19) 0.5667(2)
O1AA O -0.07301(19) 0.3586(2) 0.5667(2)
O1CA_2 O 0.6414(2) 0.07301(19) 0.4333(2)
O1GA_2 O 0.4333(2) -0.07301(19) -0.3586(2)
O1GA_3 O 0.4333(2) -0.07301(19) 0.6414(2)
O1PA_2 O -0.07301(19) -0.3586(2) 0.4333(2)
O1PA_3 O -0.07301(19) 0.6414(2) 0.4333(2)
O1RA_2 O 0.3586(2) -0.4333(2) -0.07301(19)
O1RA_3 O 0.3586(2) 0.5667(2) -0.07301(19)
O1SA_2 O 0.3586(2) -0.5667(2) 0.07301(19)
O1SA_3 O 0.3586(2) 0.4333(2) 1.07301(19)
O1TA O 0.5667(2) 0.07301(19) -0.3586(2)
O1TA_2 O 0.5667(2) 0.07301(19) 0.6414(2)
Cl1_2 Cl 0.5000 0.0000 -0.5000
Cl1_3 Cl 0.5000 1.0000 0.5000
Cl1D Cl 0.5000 -0.5000 0.0000
Cl1D_2 Cl 0.5000 0.5000 0.0000
Cl1D_3 Cl 0.5000 0.5000 1.0000
loop_
_geom_bond_atom_site_label_1
_geom_bond_atom_site_label_2
_geom_bond_site_symmetry_1
_geom_bond_site_symmetry_2
Mn1 O1 1_555 1_555
O1 C1 1_555 1_555
O2 Mn1 1_555 1_555
C1 C2 1_555 1_555
C2 S1 1_555 1_555
S1 C4 1_555 1_555
C3 C2 1_555 1_555
C4 C4SA 1_555 1_555
H1 C3 1_555 1_555
Cl1 Mn1 1_555 1_555
O1SA C1J 1_555 1_555
C1J C2J 1_555 1_555
C2J S1SA 1_555 1_555
S1SA C4SA 1_555 1_555
C3SA C2J 1_555 1_555
C4SA C3J 1_555 1_555
H1SA C3SA 1_555 1_555
O1UA C1 1_555 1_555
S1UA C2 1_555 1_555
C3UA C2 1_555 1_555
C4UA C3 1_555 1_555
H1UA C3UA 1_555 1_555
O1J C1J 1_555 1_555
S1J C2J 1_555 1_555
C3J C2J 1_555 1_555
C4J C3SA 1_555 1_555
H1J C3J 1_555 1_555
O1K C1K 1_555 1_555
C1K C2K 1_555 1_555
C2K S1K 1_555 1_555
S1K C4K 1_555 1_555
C3K C2K 1_555 1_555
C4K C4UA 1_555 1_555
H1K C3K 1_555 1_555
O1QA C1K 1_555 1_555
S1QA C2K 1_555 1_555
C3QA C2K 1_555 1_555
C4QA C4J 1_555 1_555
H1QA C3QA 1_555 1_555
Mn1A O1QA 1_555 1_555
O1A Mn1A 1_555 1_555
O2A Mn1A 1_555 1_555
C1A O1A 1_555 1_555
C2A C1A 1_555 1_555
S1A C2A 1_555 1_555
C3A C2A 1_555 1_555
C4A S1A 1_555 1_555
H1A C3A 1_555 1_555
Cl1A Mn1A 1_555 1_555
O1KA C1T 1_555 1_555
C1T C2T 1_555 1_555
C2T S1KA 1_555 1_555
S1KA C4KA 1_555 1_555
C3KA C2T 1_555 1_555
C4KA C4A 1_555 1_555
H1KA C3KA 1_555 1_555
O1OA C1A 1_555 1_555
S1OA C2A 1_555 1_555
C3OA C2A 1_555 1_555
C4OA C3A 1_555 1_555
H1OA C3OA 1_555 1_555
O1T C1T 1_555 1_555
S1T C2T 1_555 1_555
C3T C2T 1_555 1_555
C4T C3KA 1_555 1_555
H1T C3T 1_555 1_555
O1I C1I 1_555 1_555
C1I C2I 1_555 1_555
C2I S1I 1_555 1_555
S1I C4I 1_555 1_555
C3I C2I 1_555 1_555
C4I C4OA 1_555 1_555
H1I C3I 1_555 1_555
O1CA C1I 1_555 1_555
S1CA C2I 1_555 1_555
C3CA C2I 1_555 1_555
C4CA C4T 1_555 1_555
H1CA C3CA 1_555 1_555
Mn1B Cl1 1_555 1_555
O1B Mn1B 1_555 1_555
O2B Mn1B 1_555 1_555
C1B O1B 1_555 1_555
C2B C1B 1_555 1_555
S1B C2B 1_555 1_555
C3B C2B 1_555 1_555
C4B S1B 1_555 1_555
H1B C3B 1_555 1_555
O1DA C1O 1_555 1_555
C1O C2O 1_555 1_555
C2O S1DA 1_555 1_555
S1DA C4DA 1_555 1_555
C3DA C2O 1_555 1_555
C4DA C4B 1_555 1_555
H1DA C3DA 1_555 1_555
O1EA C1B 1_555 1_555
S1EA C2B 1_555 1_555
C3EA C2B 1_555 1_555
C4EA C3B 1_555 1_555
H1EA C3EA 1_555 1_555
O1O C1O 1_555 1_555
S1O C2O 1_555 1_555
C3O C2O 1_555 1_555
C4O C3DA 1_555 1_555
H1O C3O 1_555 1_555
O1L C1L 1_555 1_555
C1L C2L 1_555 1_555
C2L S1L 1_555 1_555
S1L C4L 1_555 1_555
C3L C2L 1_555 1_555
C4L C4EA 1_555 1_555
H1L C3L 1_555 1_555
O1PA C1L 1_555 1_555
S1PA C2L 1_555 1_555
C3PA C2L 1_555 1_555
C4PA C4O 1_555 1_555
H1PA C3PA 1_555 1_555
Mn1C O1C 1_555 1_555
O1C C1C 1_555 1_555
O2C Mn1C 1_555 1_555
C1C C2C 1_555 1_555
C2C S1C 1_555 1_555
S1C C4C 1_555 1_555
C3C C2C 1_555 1_555
C4C C4NA 1_555 1_555
H1C C3C 1_555 1_555
Cl1A_2 Mn1C 1_555 1_555
O1NA C1D 1_555 1_555
C1D C2D 1_555 1_555
C2D S1NA 1_555 1_555
S1NA C4NA 1_555 1_555
C3NA C2D 1_555 1_555
C4NA C3D 1_555 1_555
H1NA C3NA 1_555 1_555
O1LA C1C 1_555 1_555
S1LA C2C 1_555 1_555
C3LA C2C 1_555 1_555
C4LA C3C 1_555 1_555
H1LA C3LA 1_555 1_555
O1D C1D 1_555 1_555
S1D C2D 1_555 1_555
C3D C2D 1_555 1_555
C4D C3NA 1_555 1_555
H1D C3D 1_555 1_555
O1V C1V 1_555 1_555
C1V C2V 1_555 1_555
C2V S1V 1_555 1_555
S1V C4V 1_555 1_555
C3V C2V 1_555 1_555
C4V C4LA 1_555 1_555
H1V C3V 1_555 1_555
O1FA Mn1 1_555 1_555
S1FA C2V 1_555 1_555
C3FA C2V 1_555 1_555
C4FA C4D 1_555 1_555
H1FA C3FA 1_555 1_555
Mn1C_2 Cl1A 1_555 1_555
O1C_2 Mn1C_2 1_555 1_555
O2C_2 Mn1C_2 1_555 1_555
C1C_2 O1C_2 1_555 1_555
C2C_2 C1C_2 1_555 1_555
S1C_2 C2C_2 1_555 1_555
C3C_2 C2C_2 1_555 1_555
C4C_2 S1C_2 1_555 1_555
H1C_2 C3C_2 1_555 1_555
O1NA_2 C1D_2 1_555 1_555
C1D_2 C2D_2 1_555 1_555
C2D_2 S1NA_2 1_555 1_555
S1NA_2 C4NA_2 1_555 1_555
C3NA_2 C2D_2 1_555 1_555
C4NA_2 C4C_2 1_555 1_555
H1NA_2 C3NA_2 1_555 1_555
O1LA_2 C1C_2 1_555 1_555
S1LA_2 C2C_2 1_555 1_555
C3LA_2 C2C_2 1_555 1_555
C4LA_2 C3C_2 1_555 1_555
H1LA_2 C3LA_2 1_555 1_555
O1D_2 C1D_2 1_555 1_555
S1D_2 C2D_2 1_555 1_555
C3D_2 C2D_2 1_555 1_555
C4D_2 C3NA_2 1_555 1_555
H1D_2 C3D_2 1_555 1_555
O1V_2 C1V_2 1_555 1_555
C1V_2 C2V_2 1_555 1_555
C2V_2 S1V_2 1_555 1_555
S1V_2 C4V_2 1_555 1_555
C3V_2 C2V_2 1_555 1_555
C4V_2 C4LA_2 1_555 1_555
H1V_2 C3V_2 1_555 1_555
O1FA_2 C1V_2 1_555 1_555
S1FA_2 C2V_2 1_555 1_555
C3FA_2 C2V_2 1_555 1_555
C4FA_2 C4D_2 1_555 1_555
H1FA_2 C3FA_2 1_555 1_555
Mn1D O1D 1_555 1_555
O2D Mn1D 1_555 1_555
Mn1D_2 O1SA 1_555 1_555
O2D_2 Mn1D_2 1_555 1_555
Mn1_2 O1FA_2 1_555 1_555
O1E Mn1_2 1_555 1_555
O2_2 Mn1_2 1_555 1_555
C1E O1E 1_555 1_555
C2E C1E 1_555 1_555
S1E C2E 1_555 1_555
C3E C2E 1_555 1_555
C4E S1E 1_555 1_555
H1E C3E 1_555 1_555
O1RA C1M 1_555 1_555
C1M C2M 1_555 1_555
C2M S1RA 1_555 1_555
S1RA C4RA 1_555 1_555
C3RA C2M 1_555 1_555
C4RA C4E 1_555 1_555
H1RA C3RA 1_555 1_555
O1GA C1E 1_555 1_555
S1GA C2E 1_555 1_555
C3GA C2E 1_555 1_555
C4GA C3E 1_555 1_555
H1GA C3GA 1_555 1_555
O1M C1M 1_555 1_555
S1M C2M 1_555 1_555
C3M C2M 1_555 1_555
C4M C3RA 1_555 1_555
H1M C3M 1_555 1_555
O1Q C1Q 1_555 1_555
C1Q C2Q 1_555 1_555
C2Q S1Q 1_555 1_555
S1Q C4Q 1_555 1_555
C3Q C2Q 1_555 1_555
C4Q C4GA 1_555 1_555
H1Q C3Q 1_555 1_555
O1Y Mn1C_2 1_555 1_555
S1Y C2Q 1_555 1_555
C3Y C2Q 1_555 1_555
C4Y C4M 1_555 1_555
H1Y C3Y 1_555 1_555
O1F Mn1D_2 1_555 1_555
C1F O1F 1_555 1_555
C2F C1F 1_555 1_555
S1F C2F 1_555 1_555
C3F C2F 1_555 1_555
C4F S1F 1_555 1_555
H1F C3F 1_555 1_555
O1Z C1G 1_555 1_555
C1G C2G 1_555 1_555
C2G S1Z 1_555 1_555
S1Z C4Z 1_555 1_555
C3Z C2G 1_555 1_555
C4Z C4F 1_555 1_555
H1Z C3Z 1_555 1_555
O1MA C1F 1_555 1_555
S1MA C2F 1_555 1_555
C3MA C2F 1_555 1_555
C4MA C3F 1_555 1_555
H1MA C3MA 1_555 1_555
O1G C1G 1_555 1_555
S1G C2G 1_555 1_555
C3G C2G 1_555 1_555
C4G C3Z 1_555 1_555
H1G C3G 1_555 1_555
O1R C1R 1_555 1_555
C1R C2R 1_555 1_555
C2R S1R 1_555 1_555
S1R C4R 1_555 1_555
C3R C2R 1_555 1_555
C4R C4MA 1_555 1_555
H1R C3R 1_555 1_555
O1JA C1R 1_555 1_555
S1JA C2R 1_555 1_555
C3JA C2R 1_555 1_555
C4JA C4G 1_555 1_555
H1JA C3JA 1_555 1_555
Mn1D_3 O1RA 1_555 1_555
O1F_2 Mn1D_3 1_555 1_555
O2D_3 Mn1D_3 1_555 1_555
C1F_2 O1F_2 1_555 1_555
C2F_2 C1F_2 1_555 1_555
S1F_2 C2F_2 1_555 1_555
C3F_2 C2F_2 1_555 1_555
C4F_2 S1F_2 1_555 1_555
H1F_2 C3F_2 1_555 1_555
O1Z_2 Mn1 1_555 1_555
C1G_2 O1Z_2 1_555 1_555
C2G_2 C1G_2 1_555 1_555
S1Z_2 C2G_2 1_555 1_555
C3Z_2 C2G_2 1_555 1_555
C4Z_2 C4F_2 1_555 1_555
H1Z_2 C3Z_2 1_555 1_555
O1MA_2 C1F_2 1_555 1_555
S1MA_2 C2F_2 1_555 1_555
C3MA_2 C2F_2 1_555 1_555
C4MA_2 C3F_2 1_555 1_555
H1MA_2 C3MA_2 1_555 1_555
O1G_2 C1G_2 1_555 1_555
S1G_2 C2G_2 1_555 1_555
C3G_2 C2G_2 1_555 1_555
C4G_2 C3Z_2 1_555 1_555
H1G_2 C3G_2 1_555 1_555
O1R_2 Mn1A 1_555 1_555
C1R_2 O1R_2 1_555 1_555
C2R_2 C1R_2 1_555 1_555
S1R_2 C2R_2 1_555 1_555
C3R_2 C2R_2 1_555 1_555
C4R_2 C4MA_2 1_555 1_555
H1R_2 C3R_2 1_555 1_555
O1JA_2 C1R_2 1_555 1_555
S1JA_2 C2R_2 1_555 1_555
C3JA_2 C2R_2 1_555 1_555
C4JA_2 C4G_2 1_555 1_555
H1JA_2 C3JA_2 1_555 1_555
Mn1G O1G 1_555 1_555
O2G Mn1G 1_555 1_555
Mn1I Cl1 1_555 1_555
O2I Mn1I 1_555 1_555
Mn1G_2 Cl1 1_555 1_555
O2G_2 Mn1G_2 1_555 1_555
Mn1_3 O1Z 1_555 1_555
Mn1A_2 Cl1A_2 1_555 1_555
Mn1A_3 O1R 1_555 1_555
Mn1B_2 O1CA 1_555 1_555
Mn1C_3 O1PA 1_555 1_555
Mn1G_3 O1GA 1_555 1_555
Mn1I_2 O1I 1_555 1_555
Mn1I_3 O1V_2 1_555 1_555
Mn1J O1KA 1_555 1_555
Mn1J_2 O1J 1_555 1_555
Mn1J_3 O1MA_2 1_555 1_555
Mn1K Cl1A_2 1_555 1_555
Mn1K_2 O1K 1_555 1_555
Mn1K_3 O1L 1_555 1_555
Mn1M O1O 1_555 1_555
Mn1M_2 O1NA_2 1_555 1_555
Mn1M_3 O1M 1_555 1_555
Mn1N Cl1A_2 1_555 1_555
Mn1N_2 O1JA 1_555 1_555
Mn1N_3 Cl1A 1_555 1_555
Mn1T O1T 1_555 1_555
Mn1T_2 O1DA 1_555 1_555
O1_2 Mn1_2 1_555 1_555
O1D_3 Mn1D_3 1_555 1_555
O1E_2 Mn1 1_555 1_555
O1F_3 Mn1D 1_555 1_555
O1H Mn1B 1_555 1_555
O1I_2 Mn1I 1_555 1_555
O1S Mn1C 1_555 1_555
O1S_2 Mn1C_2 1_555 1_555
O1W Mn1G 1_555 1_555
O1W_2 Mn1G_2 1_555 1_555
O1X Mn1B 1_555 1_555
O1Y_2 Mn1C 1_555 1_555
O1Z_3 Mn1_2 1_555 1_555
O1AA Mn1A 1_555 1_555
O1CA_2 Mn1B 1_555 1_555
O1GA_2 Mn1G 1_555 1_555
O1GA_3 Mn1G_2 1_555 1_555
O1PA_2 Mn1C 1_555 1_555
O1PA_3 Mn1C_2 1_555 1_555
O1RA_2 Mn1D 1_555 1_555
O1RA_3 Mn1D_2 1_555 1_555
O1SA_2 Mn1D 1_555 1_555
O1SA_3 Mn1D_3 1_555 1_555
O1TA Mn1G 1_555 1_555
O1TA_2 Mn1G_2 1_555 1_555
Cl1_2 Mn1G 1_555 1_555
Cl1_3 Mn1_2 1_555 1_555
Cl1D Mn1D 1_555 1_555
Cl1D_2 Mn1D_2 1_555 1_555
Cl1D_3 Mn1D_3 1_555 1_555
S1 C3UA 1_555 1_555
C3 S1UA 1_555 1_555
C4 C3UA 1_555 1_555
C4 C4UA 1_555 1_555
S1SA C3J 1_555 1_555
C3SA S1J 1_555 1_555
C4SA C4J 1_555 1_555
O1UA Mn1I 1_555 1_555
S1UA C4UA 1_555 1_555
S1J C4J 1_555 1_555
S1K C3QA 1_555 1_555
C3K S1QA 1_555 1_555
C3K C4QA 1_555 1_555
C4K C3QA 1_555 1_555
C4K C4QA 1_555 1_555
S1QA C4QA 1_555 1_555
S1A C3OA 1_555 1_555
C3A S1OA 1_555 1_555
C4A C3OA 1_555 1_555
C4A C4OA 1_555 1_555
Cl1A Mn1K_2 1_555 1_555
S1KA C3T 1_555 1_555
C3KA S1T 1_555 1_555
C4KA C3T 1_555 1_555
C4KA C4T 1_555 1_555
O1OA Mn1K_2 1_555 1_555
S1OA C4OA 1_555 1_555
S1T C4T 1_555 1_555
S1I C3CA 1_555 1_555
C3I S1CA 1_555 1_555
C3I C4CA 1_555 1_555
C4I C3CA 1_555 1_555
C4I C4CA 1_555 1_555
S1CA C4CA 1_555 1_555
S1B C3EA 1_555 1_555
C3B S1EA 1_555 1_555
C4B C3EA 1_555 1_555
C4B C4EA 1_555 1_555
S1DA C3O 1_555 1_555
C3DA S1O 1_555 1_555
C4DA C3O 1_555 1_555
C4DA C4O 1_555 1_555
O1EA Mn1I 1_555 1_555
S1EA C4EA 1_555 1_555
S1O C4O 1_555 1_555
S1L C3PA 1_555 1_555
C3L S1PA 1_555 1_555
C3L C4PA 1_555 1_555
C4L C3PA 1_555 1_555
C4L C4PA 1_555 1_555
S1PA C4PA 1_555 1_555
S1C C3LA 1_555 1_555
C3C S1LA 1_555 1_555
C4C C3LA 1_555 1_555
C4C C4LA 1_555 1_555
O1NA Mn1M 1_555 1_555
S1NA C3D 1_555 1_555
C3NA S1D 1_555 1_555
C4NA C4D 1_555 1_555
O1LA Mn1K 1_555 1_555
S1LA C4LA 1_555 1_555
S1D C4D 1_555 1_555
O1V Mn1I 1_555 1_555
C1V O1FA 1_555 1_555
S1V C3FA 1_555 1_555
C3V S1FA 1_555 1_555
C3V C4FA 1_555 1_555
C4V C3FA 1_555 1_555
C4V C4FA 1_555 1_555
S1FA C4FA 1_555 1_555
S1C_2 C3LA_2 1_555 1_555
C3C_2 S1LA_2 1_555 1_555
C4C_2 C3LA_2 1_555 1_555
C4C_2 C4LA_2 1_555 1_555
S1NA_2 C3D_2 1_555 1_555
C3NA_2 S1D_2 1_555 1_555
C4NA_2 C3D_2 1_555 1_555
C4NA_2 C4D_2 1_555 1_555
O1LA_2 Mn1K_2 1_555 1_555
S1LA_2 C4LA_2 1_555 1_555
O1D_2 Mn1D_2 1_555 1_555
S1D_2 C4D_2 1_555 1_555
S1V_2 C3FA_2 1_555 1_555
C3V_2 S1FA_2 1_555 1_555
C3V_2 C4FA_2 1_555 1_555
C4V_2 C3FA_2 1_555 1_555
C4V_2 C4FA_2 1_555 1_555
S1FA_2 C4FA_2 1_555 1_555
S1E C3GA 1_555 1_555
C3E S1GA 1_555 1_555
C4E C3GA 1_555 1_555
C4E C4GA 1_555 1_555
S1RA C3M 1_555 1_555
C3RA S1M 1_555 1_555
C4RA C3M 1_555 1_555
C4RA C4M 1_555 1_555
S1GA C4GA 1_555 1_555
S1M C4M 1_555 1_555
O1Q Mn1N_3 1_555 1_555
C1Q O1Y 1_555 1_555
S1Q C3Y 1_555 1_555
C3Q S1Y 1_555 1_555
C3Q C4Y 1_555 1_555
C4Q C3Y 1_555 1_555
C4Q C4Y 1_555 1_555
S1Y C4Y 1_555 1_555
S1F C3MA 1_555 1_555
C3F S1MA 1_555 1_555
C4F C3MA 1_555 1_555
C4F C4MA 1_555 1_555
S1Z C3G 1_555 1_555
C3Z S1G 1_555 1_555
C4Z C3G 1_555 1_555
C4Z C4G 1_555 1_555
O1MA Mn1J_2 1_555 1_555
S1MA C4MA 1_555 1_555
S1G C4G 1_555 1_555
S1R C3JA 1_555 1_555
C3R S1JA 1_555 1_555
C3R C4JA 1_555 1_555
C4R C3JA 1_555 1_555
C4R C4JA 1_555 1_555
S1JA C4JA 1_555 1_555
S1F_2 C3MA_2 1_555 1_555
C3F_2 S1MA_2 1_555 1_555
C4F_2 C3MA_2 1_555 1_555
C4F_2 C4MA_2 1_555 1_555
S1Z_2 C4Z_2 1_555 1_555
S1Z_2 C3G_2 1_555 1_555
C3Z_2 S1G_2 1_555 1_555
C4Z_2 C3G_2 1_555 1_555
C4Z_2 C4G_2 1_555 1_555
S1MA_2 C4MA_2 1_555 1_555
O1G_2 Mn1G_2 1_555 1_555
S1G_2 C4G_2 1_555 1_555
S1R_2 C4R_2 1_555 1_555
S1R_2 C3JA_2 1_555 1_555
C3R_2 S1JA_2 1_555 1_555
C3R_2 C4JA_2 1_555 1_555
C4R_2 C3JA_2 1_555 1_555
C4R_2 C4JA_2 1_555 1_555
O1JA_2 Mn1N_3 1_555 1_555
S1JA_2 C4JA_2 1_555 1_555
Mn1_3 Cl1_2 1_555 1_555
Mn1G_3 Cl1_3 1_555 1_555
Mn1I_3 Cl1_3 1_555 1_555
Mn1J_2 Cl1D_2 1_555 1_555
Mn1J_3 Cl1D_3 1_555 1_555
Mn1M Cl1D 1_555 1_555
Mn1M_2 Cl1D_2 1_555 1_555
Mn1M_3 Cl1D_3 1_555 1_555
Mn1T_2 Cl1D 1_555 1_555

#END
