
#######################################################################
#
#                 Cambridge Crystallographic Data Centre
#                                CCDC 
#
#######################################################################
#
# If this CIF has been generated from an entry in the Cambridge 
# Structural Database, then it will include bibliographic, chemical, 
# crystal, experimental, refinement or atomic coordinate data resulting 
# from the CCDC's data processing and validation procedures.
#
#######################################################################

data_RANWAH
_chemical_formula_moiety         '(C120 H58 Mn13 O66 S24)n'
_symmetry_cell_setting           cubic
_symmetry_space_group_name_H-M   'F m -3 c'
_symmetry_Int_Tables_number      226
_space_group_name_Hall           '-F 4a 2 3'
loop_
_symmetry_equiv_pos_site_id
_symmetry_equiv_pos_as_xyz
1 x,y,z
2 -y,x,1/2+z
3 -x,-y,z
4 y,-x,1/2+z
5 x,-z,1/2+y
6 x,-y,-z
7 x,z,1/2-y
8 z,y,1/2-x
9 -x,y,-z
10 -z,y,1/2+x
11 z,x,y
12 y,z,x
13 -y,-z,x
14 z,-x,-y
15 -y,z,-x
16 -z,-x,y
17 -z,x,-y
18 y,-z,-x
19 y,x,1/2-z
20 -y,-x,1/2-z
21 -x,z,1/2+y
22 -x,-z,1/2-y
23 z,-y,1/2+x
24 -z,-y,1/2-x
25 x,1/2+y,1/2+z
26 -y,1/2+x,z
27 -x,1/2-y,1/2+z
28 y,1/2-x,z
29 x,1/2-z,y
30 x,1/2-y,1/2-z
31 x,1/2+z,-y
32 z,1/2+y,-x
33 -x,1/2+y,1/2-z
34 -z,1/2+y,x
35 z,1/2+x,1/2+y
36 y,1/2+z,1/2+x
37 -y,1/2-z,1/2+x
38 z,1/2-x,1/2-y
39 -y,1/2+z,1/2-x
40 -z,1/2-x,1/2+y
41 -z,1/2+x,1/2-y
42 y,1/2-z,1/2-x
43 y,1/2+x,-z
44 -y,1/2-x,-z
45 -x,1/2+z,y
46 -x,1/2-z,-y
47 z,1/2-y,x
48 -z,1/2-y,-x
49 1/2+x,y,1/2+z
50 1/2-y,x,z
51 1/2-x,-y,1/2+z
52 1/2+y,-x,z
53 1/2+x,-z,y
54 1/2+x,-y,1/2-z
55 1/2+x,z,-y
56 1/2+z,y,-x
57 1/2-x,y,1/2-z
58 1/2-z,y,x
59 1/2+z,x,1/2+y
60 1/2+y,z,1/2+x
61 1/2-y,-z,1/2+x
62 1/2+z,-x,1/2-y
63 1/2-y,z,1/2-x
64 1/2-z,-x,1/2+y
65 1/2-z,x,1/2-y
66 1/2+y,-z,1/2-x
67 1/2+y,x,-z
68 1/2-y,-x,-z
69 1/2-x,z,y
70 1/2-x,-z,-y
71 1/2+z,-y,x
72 1/2-z,-y,-x
73 1/2+x,1/2+y,z
74 1/2-y,1/2+x,1/2+z
75 1/2-x,1/2-y,z
76 1/2+y,1/2-x,1/2+z
77 1/2+x,1/2-z,1/2+y
78 1/2+x,1/2-y,-z
79 1/2+x,1/2+z,1/2-y
80 1/2+z,1/2+y,1/2-x
81 1/2-x,1/2+y,-z
82 1/2-z,1/2+y,1/2+x
83 1/2+z,1/2+x,y
84 1/2+y,1/2+z,x
85 1/2-y,1/2-z,x
86 1/2+z,1/2-x,-y
87 1/2-y,1/2+z,-x
88 1/2-z,1/2-x,y
89 1/2-z,1/2+x,-y
90 1/2+y,1/2-z,-x
91 1/2+y,1/2+x,1/2-z
92 1/2-y,1/2-x,1/2-z
93 1/2-x,1/2+z,1/2+y
94 1/2-x,1/2-z,1/2-y
95 1/2+z,1/2-y,1/2+x
96 1/2-z,1/2-y,1/2-x
97 -x,-y,-z
98 y,-x,1/2-z
99 x,y,-z
100 -y,x,1/2-z
101 -x,z,1/2-y
102 -x,y,z
103 -x,-z,1/2+y
104 -z,-y,1/2+x
105 x,-y,z
106 z,-y,1/2-x
107 -z,-x,-y
108 -y,-z,-x
109 y,z,-x
110 -z,x,y
111 y,-z,x
112 z,x,-y
113 z,-x,y
114 -y,z,x
115 -y,-x,1/2+z
116 y,x,1/2+z
117 x,-z,1/2-y
118 x,z,1/2+y
119 -z,y,1/2-x
120 z,y,1/2+x
121 -x,1/2-y,1/2-z
122 y,1/2-x,-z
123 x,1/2+y,1/2-z
124 -y,1/2+x,-z
125 -x,1/2+z,-y
126 -x,1/2+y,1/2+z
127 -x,1/2-z,y
128 -z,1/2-y,x
129 x,1/2-y,1/2+z
130 z,1/2-y,-x
131 -z,1/2-x,1/2-y
132 -y,1/2-z,1/2-x
133 y,1/2+z,1/2-x
134 -z,1/2+x,1/2+y
135 y,1/2-z,1/2+x
136 z,1/2+x,1/2-y
137 z,1/2-x,1/2+y
138 -y,1/2+z,1/2+x
139 -y,1/2-x,z
140 y,1/2+x,z
141 x,1/2-z,-y
142 x,1/2+z,y
143 -z,1/2+y,-x
144 z,1/2+y,x
145 1/2-x,-y,1/2-z
146 1/2+y,-x,-z
147 1/2+x,y,1/2-z
148 1/2-y,x,-z
149 1/2-x,z,-y
150 1/2-x,y,1/2+z
151 1/2-x,-z,y
152 1/2-z,-y,x
153 1/2+x,-y,1/2+z
154 1/2+z,-y,-x
155 1/2-z,-x,1/2-y
156 1/2-y,-z,1/2-x
157 1/2+y,z,1/2-x
158 1/2-z,x,1/2+y
159 1/2+y,-z,1/2+x
160 1/2+z,x,1/2-y
161 1/2+z,-x,1/2+y
162 1/2-y,z,1/2+x
163 1/2-y,-x,z
164 1/2+y,x,z
165 1/2+x,-z,-y
166 1/2+x,z,y
167 1/2-z,y,-x
168 1/2+z,y,x
169 1/2-x,1/2-y,-z
170 1/2+y,1/2-x,1/2-z
171 1/2+x,1/2+y,-z
172 1/2-y,1/2+x,1/2-z
173 1/2-x,1/2+z,1/2-y
174 1/2-x,1/2+y,z
175 1/2-x,1/2-z,1/2+y
176 1/2-z,1/2-y,1/2+x
177 1/2+x,1/2-y,z
178 1/2+z,1/2-y,1/2-x
179 1/2-z,1/2-x,-y
180 1/2-y,1/2-z,-x
181 1/2+y,1/2+z,-x
182 1/2-z,1/2+x,y
183 1/2+y,1/2-z,x
184 1/2+z,1/2+x,-y
185 1/2+z,1/2-x,y
186 1/2-y,1/2+z,x
187 1/2-y,1/2-x,1/2+z
188 1/2+y,1/2+x,1/2+z
189 1/2+x,1/2-z,1/2-y
190 1/2+x,1/2+z,1/2+y
191 1/2-z,1/2+y,1/2-x
192 1/2+z,1/2+y,1/2+x
_cell_length_a                   39.2006(3)
_cell_length_b                   39.2006(3)
_cell_length_c                   39.2006(3)
_cell_angle_alpha                90
_cell_angle_beta                 90
_cell_angle_gamma                90
_cell_volume                     60239.1
loop_
_atom_site_label
_atom_site_type_symbol
_atom_site_fract_x
_atom_site_fract_y
_atom_site_fract_z
_atom_site_U_iso_or_equiv
_atom_site_thermal_displace_type
Mn1 Mn 0.68386(2) 0.5000 0.77163(2) 0.0226 Uani
S1 S 0.62990(3) 0.60091(3) 0.70936(3) 0.0423 Uani
O1 O 0.64885(17) 0.5000 0.81613(12) 0.0617 Uani
O2 O 0.65596(7) 0.54092(7) 0.74589(7) 0.0397 Uani
O3 O 0.70520(8) 0.53515(7) 0.71830(7) 0.0422 Uani
C1 C 0.67652(12) 0.54892(10) 0.72254(10) 0.0359 Uani
C2 C 0.66652(12) 0.57756(10) 0.69992(9) 0.0378 Uani
C3 C 0.68545(13) 0.58877(10) 0.67043(10) 0.0429 Uani
H1 H 0.7059 0.5791 0.6618 0.0510 Uiso
C4 C 0.66670(11) 0.61814(11) 0.65646(10) 0.0390 Uani
C5 C 0.63770(11) 0.62744(10) 0.67547(11) 0.0370 Uani
S1J S 0.70936(3) 0.62990(3) 0.60091(3) 0.0423 Uani
O2J O 0.74589(7) 0.65596(7) 0.54092(7) 0.0397 Uani
O3J O 0.71830(7) 0.70520(8) 0.53515(7) 0.0422 Uani
C1J C 0.72254(10) 0.67652(12) 0.54892(10) 0.0359 Uani
C2J C 0.69992(9) 0.66652(12) 0.57756(10) 0.0378 Uani
C3J C 0.67043(10) 0.68545(13) 0.58877(10) 0.0429 Uani
H1J H 0.6618 0.7059 0.5791 0.0510 Uiso
C4J C 0.65646(10) 0.66670(11) 0.61814(11) 0.0390 Uani
C5J C 0.67547(11) 0.63770(11) 0.62744(10) 0.0370 Uani
S1K S 0.60091(3) 0.70936(3) 0.62990(3) 0.0423 Uani
O2K O 0.54092(7) 0.74589(7) 0.65596(7) 0.0397 Uani
O3K O 0.53515(7) 0.71830(7) 0.70520(8) 0.0422 Uani
C1K C 0.54892(10) 0.72254(10) 0.67652(12) 0.0359 Uani
C2K C 0.57756(10) 0.69992(9) 0.66652(12) 0.0378 Uani
C3K C 0.58877(10) 0.67043(10) 0.68545(13) 0.0429 Uani
H1K H 0.5791 0.6618 0.7059 0.0510 Uiso
C4K C 0.61814(11) 0.65646(10) 0.66670(11) 0.0390 Uani
C5K C 0.62744(10) 0.67547(11) 0.63770(11) 0.0370 Uani
S1F S 0.62990(3) 0.70936(3) 0.89909(3) 0.0423 Uani
O2F O 0.65596(7) 0.74589(7) 0.95908(7) 0.0397 Uani
O3F O 0.70520(8) 0.71830(7) 0.96485(7) 0.0422 Uani
C1F C 0.67652(12) 0.72254(10) 0.95108(10) 0.0359 Uani
C2F C 0.66652(12) 0.69992(9) 0.92244(10) 0.0378 Uani
C3F C 0.68545(13) 0.67043(10) 0.91123(10) 0.0429 Uani
H1F H 0.7059 0.6618 0.9209 0.0510 Uiso
C4F C 0.66670(11) 0.65646(10) 0.88186(11) 0.0390 Uani
C5F C 0.63770(11) 0.67547(11) 0.87256(10) 0.0370 Uani
S1G S 0.70936(3) 0.60091(3) 0.87010(3) 0.0423 Uani
O2G O 0.74589(7) 0.54092(7) 0.84404(7) 0.0397 Uani
O3G O 0.71830(7) 0.53515(7) 0.79480(8) 0.0422 Uani
C1G C 0.72254(10) 0.54892(10) 0.82348(12) 0.0359 Uani
C2G C 0.69992(9) 0.57756(10) 0.83348(12) 0.0378 Uani
C3G C 0.67043(10) 0.58877(10) 0.81455(13) 0.0429 Uani
H1G H 0.6618 0.5791 0.7941 0.0510 Uiso
C4G C 0.65646(10) 0.61814(11) 0.83330(11) 0.0390 Uani
C5G C 0.67547(11) 0.62744(10) 0.86230(11) 0.0370 Uani
S1R S 0.60091(3) 0.62990(3) 0.79064(3) 0.0423 Uani
O2R O 0.54092(7) 0.65596(7) 0.75411(7) 0.0397 Uani
O3R O 0.53515(7) 0.70520(8) 0.78170(7) 0.0422 Uani
C1R C 0.54892(10) 0.67652(12) 0.77746(10) 0.0359 Uani
C2R C 0.57756(10) 0.66652(12) 0.80008(9) 0.0378 Uani
C3R C 0.58877(10) 0.68545(13) 0.82957(10) 0.0429 Uani
H1R H 0.5791 0.7059 0.8382 0.0510 Uiso
C4R C 0.61814(11) 0.66670(11) 0.84354(10) 0.0390 Uani
C5R C 0.62744(10) 0.63770(11) 0.82453(11) 0.0370 Uani
Mn1G Mn 0.77163(2) 0.5000 0.81614(2) 0.0226 Uani
O1G O 0.81613(12) 0.5000 0.85115(17) 0.0617 Uani
Mn1J Mn 0.77163(2) 0.68386(2) 0.5000 0.0226 Uani
O1J O 0.81613(12) 0.64885(17) 0.5000 0.0617 Uani
Mn1F Mn 0.68386(2) 0.77163(2) 1.0000 0.0226 Uani
Mn1K Mn 0.5000 0.77163(2) 0.68386(2) 0.0226 Uani
Mn1R Mn 0.5000 0.68386(2) 0.72837(2) 0.0226 Uani
Mn1BA Mn 0.68386(2) 0.72837(2) 0.5000 0.0226 Uani
Mn1OA Mn 0.5000 0.72837(2) 0.81614(2) 0.0226 Uani
Mn1EB Mn 0.72837(2) 0.5000 0.68386(2) 0.0226 Uani
Mn1LB Mn 0.72837(2) 0.68386(2) 1.0000 0.0226 Uani
O2ZC O 0.65596(7) 0.45908(7) 0.74589(7) 0.0397 Uani
O2AD O 0.74589(7) 0.45908(7) 0.84404(7) 0.0397 Uani
O2GD O 0.74589(7) 0.65596(7) 0.45908(7) 0.0397 Uani
O3DB O 0.79480(8) 0.53515(7) 0.78170(7) 0.0422 Uani
O3PB O 0.79480(8) 0.71830(7) 0.53515(7) 0.0422 Uani
O3AD O 0.71830(7) 0.46485(7) 0.79480(8) 0.0422 Uani
O3NE O 0.79480(8) 0.46485(7) 0.78170(7) 0.0422 Uani
O3RE O 0.79480(8) 0.71830(7) 0.46485(7) 0.0422 Uani
Mn1YA Mn 1.0000 0.31614(2) 0.77163(2) 0.0226 Uani
O1YA O 1.0000 0.35115(17) 0.81613(12) 0.0617 Uani
O2FF O 0.95908(7) 0.34404(7) 0.74589(7) 0.0397 Uani
O3YE O 0.96485(7) 0.28170(7) 0.79480(8) 0.0422 Uani
O2YA O 1.04092(7) 0.34404(7) 0.74589(7) 0.0397 Uani
O3MB O 1.03515(7) 0.28170(7) 0.79480(8) 0.0422 Uani
S1FF S 0.89909(3) 0.37010(3) 0.70936(3) 0.0423 Uani
C2FF C 0.92244(10) 0.33348(12) 0.69992(9) 0.0378 Uani
C5FF C 0.87256(10) 0.36230(11) 0.67547(11) 0.0370 Uani
C1FF C 0.95108(10) 0.32348(12) 0.72254(10) 0.0359 Uani
O3FF O 0.96485(7) 0.29480(8) 0.71830(7) 0.0422 Uani
Mn1EC Mn 1.0000 0.27163(2) 0.68386(2) 0.0226 Uani
C3FF C 0.91123(10) 0.31455(13) 0.67043(10) 0.0429 Uani
H1FF H 0.9209 0.2941 0.6618 0.0510 Uiso
C4FF C 0.88186(11) 0.33330(11) 0.65646(10) 0.0390 Uani
C5TE C 0.86230(11) 0.32453(11) 0.62744(10) 0.0370 Uani
C4UE C 0.84354(10) 0.38186(11) 0.66670(11) 0.0390 Uani
S1TE S 0.87010(3) 0.29064(3) 0.60091(3) 0.0423 Uani
C2TE C 0.83348(12) 0.30008(9) 0.57756(10) 0.0378 Uani
O2TE O 0.84404(7) 0.25411(7) 0.54092(7) 0.0397 Uani
C1TE C 0.82348(12) 0.27746(10) 0.54892(10) 0.0359 Uani
Mn1QB Mn 0.81614(2) 0.22837(2) 0.5000 0.0226 Uani
O3TE O 0.79480(8) 0.28170(7) 0.53515(7) 0.0422 Uani
Mn1M Mn 0.77163(2) 0.31614(2) 0.5000 0.0226 Uani
C3TE C 0.81455(13) 0.32957(10) 0.58877(10) 0.0429 Uani
H1TE H 0.7941 0.3382 0.5791 0.0510 Uiso
C4TE C 0.83330(11) 0.34354(10) 0.61814(11) 0.0390 Uani
C5UE C 0.82453(11) 0.37256(10) 0.63770(11) 0.0370 Uani
S1UE S 0.79064(3) 0.39909(3) 0.62990(3) 0.0423 Uani
C2UE C 0.80008(9) 0.42244(10) 0.66652(12) 0.0378 Uani
O2UE O 0.75411(7) 0.45908(7) 0.65596(7) 0.0397 Uani
C1UE C 0.77746(10) 0.45108(10) 0.67652(12) 0.0359 Uani
O3UE O 0.78170(7) 0.46485(7) 0.70520(8) 0.0422 Uani
Mn1DB Mn 0.81614(2) 0.5000 0.72837(2) 0.0226 Uani
C3UE C 0.82957(10) 0.41123(10) 0.68545(13) 0.0429 Uani
H1UE H 0.8382 0.4209 0.7059 0.0510 Uiso
S1XE S 0.79064(3) 0.37010(3) 0.89909(3) 0.0423 Uani
C2XE C 0.80008(9) 0.33348(12) 0.92244(10) 0.0378 Uani
C5XE C 0.82453(11) 0.36230(11) 0.87256(10) 0.0370 Uani
O2XE O 0.75411(7) 0.34404(7) 0.95908(7) 0.0397 Uani
C1XE C 0.77746(10) 0.32348(12) 0.95108(10) 0.0359 Uani
Mn1KB Mn 0.72837(2) 0.31614(2) 1.0000 0.0226 Uani
O3XE O 0.78170(7) 0.29480(8) 0.96485(7) 0.0422 Uani
Mn1NC Mn 0.81614(2) 0.27163(2) 1.0000 0.0226 Uani
C3XE C 0.82957(10) 0.31455(13) 0.91123(10) 0.0429 Uani
H1XE H 0.8382 0.2941 0.9209 0.0510 Uiso
C4XE C 0.84354(10) 0.33330(11) 0.88186(11) 0.0390 Uani
C5YE C 0.87256(10) 0.32453(11) 0.86230(11) 0.0370 Uani
C4NE C 0.83330(11) 0.38186(11) 0.84354(10) 0.0390 Uani
S1YE S 0.89909(3) 0.29064(3) 0.87010(3) 0.0423 Uani
C2YE C 0.92244(10) 0.30008(9) 0.83348(12) 0.0378 Uani
O2YE O 0.95908(7) 0.25411(7) 0.84404(7) 0.0397 Uani
C1YE C 0.95108(10) 0.27746(10) 0.82348(12) 0.0359 Uani
Mn1MB Mn 1.0000 0.22837(2) 0.81614(2) 0.0226 Uani
C3YE C 0.91123(10) 0.32957(10) 0.81455(13) 0.0429 Uani
H1YE H 0.9209 0.3382 0.7941 0.0510 Uiso
C4YE C 0.88186(11) 0.34354(10) 0.83330(11) 0.0390 Uani
C5NE C 0.86230(11) 0.37256(10) 0.82453(11) 0.0370 Uani
S1NE S 0.87010(3) 0.39909(3) 0.79064(3) 0.0423 Uani
C2NE C 0.83348(12) 0.42244(10) 0.80008(9) 0.0378 Uani
O2NE O 0.84404(7) 0.45908(7) 0.75411(7) 0.0397 Uani
C1NE C 0.82348(12) 0.45108(10) 0.77746(10) 0.0359 Uani
C3NE C 0.81455(13) 0.41123(10) 0.82957(10) 0.0429 Uani
H1NE H 0.7941 0.4209 0.8382 0.0510 Uiso
O1MB O 1.0000 0.18387(12) 0.85115(17) 0.0617 Uani
O2MB O 1.04092(7) 0.25411(7) 0.84404(7) 0.0397 Uani
O3OF O 0.96485(7) 0.20520(8) 0.78170(7) 0.0422 Uani
O3LC O 1.03515(7) 0.20520(8) 0.78170(7) 0.0422 Uani
O1QB O 0.85115(17) 0.18387(12) 0.5000 0.0617 Uani
O2QB O 0.84404(7) 0.25411(7) 0.45908(7) 0.0397 Uani
O3YF O 0.78170(7) 0.20520(8) 0.53515(7) 0.0422 Uani
O3JC O 0.78170(7) 0.20520(8) 0.46485(7) 0.0422 Uani
Mn1DA Mn 0.68386(2) 0.27163(2) 0.5000 0.0226 Uani
O1DA O 0.64885(17) 0.31613(12) 0.5000 0.0617 Uani
O2KE O 0.65596(7) 0.24589(7) 0.54092(7) 0.0397 Uani
O3HD O 0.71830(7) 0.29480(8) 0.53515(7) 0.0422 Uani
O2DA O 0.65596(7) 0.24589(7) 0.45908(7) 0.0397 Uani
O3M O 0.71830(7) 0.29480(8) 0.46485(7) 0.0422 Uani
S1KE S 0.62990(3) 0.20936(3) 0.60091(3) 0.0423 Uani
C2KE C 0.66652(12) 0.19992(9) 0.57756(10) 0.0378 Uani
C5KE C 0.63770(11) 0.17547(11) 0.62744(10) 0.0370 Uani
C1KE C 0.67652(12) 0.22254(10) 0.54892(10) 0.0359 Uani
O3KE O 0.70520(8) 0.21830(7) 0.53515(7) 0.0422 Uani
Mn1JC Mn 0.72837(2) 0.18386(2) 0.5000 0.0226 Uani
C3KE C 0.68545(13) 0.17043(10) 0.58877(10) 0.0429 Uani
H1KE H 0.7059 0.1618 0.5791 0.0510 Uiso
C4KE C 0.66670(11) 0.15646(10) 0.61814(11) 0.0390 Uani
C5ME C 0.67547(11) 0.12744(10) 0.63770(11) 0.0370 Uani
C4IE C 0.61814(11) 0.16670(11) 0.65646(10) 0.0390 Uani
S1ME S 0.70936(3) 0.10091(3) 0.62990(3) 0.0423 Uani
C2ME C 0.69992(9) 0.07756(10) 0.66652(12) 0.0378 Uani
O2ME O 0.74589(7) 0.04092(7) 0.65596(7) 0.0397 Uani
C1ME C 0.72254(10) 0.04892(10) 0.67652(12) 0.0359 Uani
Mn1TA Mn 0.77163(2) -0.0000 0.68386(2) 0.0226 Uani
O3ME O 0.71830(7) 0.03515(7) 0.70520(8) 0.0422 Uani
Mn1CA Mn 0.68386(2) -0.0000 0.72837(2) 0.0226 Uani
C3ME C 0.67043(10) 0.08877(10) 0.68545(13) 0.0429 Uani
H1ME H 0.6618 0.0791 0.7059 0.0510 Uiso
C4ME C 0.65646(10) 0.11814(11) 0.66670(11) 0.0390 Uani
C5IE C 0.62744(10) 0.13770(11) 0.67547(11) 0.0370 Uani
S1IE S 0.60091(3) 0.12990(3) 0.70936(3) 0.0423 Uani
C2IE C 0.57756(10) 0.16652(12) 0.69992(9) 0.0378 Uani
O2IE O 0.54092(7) 0.15596(7) 0.74589(7) 0.0397 Uani
C1IE C 0.54892(10) 0.17652(12) 0.72254(10) 0.0359 Uani
Mn1Y Mn 0.5000 0.18386(2) 0.77163(2) 0.0226 Uani
O3IE O 0.53515(7) 0.20520(8) 0.71830(7) 0.0422 Uani
Mn1L Mn 0.5000 0.22837(2) 0.68386(2) 0.0226 Uani
C3IE C 0.58877(10) 0.18545(13) 0.67043(10) 0.0429 Uani
H1IE H 0.5791 0.2059 0.6618 0.0510 Uiso
S1ZC S 0.62990(3) 0.39909(3) 0.70936(3) 0.0423 Uani
C2ZC C 0.66652(12) 0.42244(10) 0.69992(9) 0.0378 Uani
C5ZC C 0.63770(11) 0.37256(10) 0.67547(11) 0.0370 Uani
C1ZC C 0.67652(12) 0.45108(10) 0.72254(10) 0.0359 Uani
O3ZC O 0.70520(8) 0.46485(7) 0.71830(7) 0.0422 Uani
C3ZC C 0.68545(13) 0.41123(10) 0.67043(10) 0.0429 Uani
H1ZC H 0.7059 0.4209 0.6618 0.0510 Uiso
C4ZC C 0.66670(11) 0.38186(11) 0.65646(10) 0.0390 Uani
C5HD C 0.67547(11) 0.36230(11) 0.62744(10) 0.0370 Uani
C4FD C 0.61814(11) 0.34354(10) 0.66670(11) 0.0390 Uani
S1HD S 0.70936(3) 0.37010(3) 0.60091(3) 0.0423 Uani
C2HD C 0.69992(9) 0.33348(12) 0.57756(10) 0.0378 Uani
O2HD O 0.74589(7) 0.34404(7) 0.54092(7) 0.0397 Uani
C1HD C 0.72254(10) 0.32348(12) 0.54892(10) 0.0359 Uani
C3HD C 0.67043(10) 0.31455(13) 0.58877(10) 0.0429 Uani
H1HD H 0.6618 0.2941 0.5791 0.0510 Uiso
C4HD C 0.65646(10) 0.33330(11) 0.61814(11) 0.0390 Uani
C5FD C 0.62744(10) 0.32453(11) 0.63770(11) 0.0370 Uani
S1FD S 0.60091(3) 0.29064(3) 0.62990(3) 0.0423 Uani
C2FD C 0.57756(10) 0.30008(9) 0.66652(12) 0.0378 Uani
O2FD O 0.54092(7) 0.25411(7) 0.65596(7) 0.0397 Uani
C1FD C 0.54892(10) 0.27746(10) 0.67652(12) 0.0359 Uani
O3FD O 0.53515(7) 0.28170(7) 0.70520(8) 0.0422 Uani
Mn1S Mn 0.5000 0.31614(2) 0.72837(2) 0.0226 Uani
C3FD C 0.58877(10) 0.32957(10) 0.68545(13) 0.0429 Uani
H1FD H 0.5791 0.3382 0.7059 0.0510 Uiso
O1M O 0.81613(12) 0.35115(17) 0.5000 0.0617 Uani
O2M O 0.74589(7) 0.34404(7) 0.45908(7) 0.0397 Uani
O3QB O 0.79480(8) 0.28170(7) 0.46485(7) 0.0422 Uani
O1TA O 0.81613(12) 0.0000 0.64885(17) 0.0617 Uani
O2TA O 0.74589(7) -0.04092(7) 0.65596(7) 0.0397 Uani
O3QF O 0.79480(8) 0.03515(7) 0.71830(7) 0.0422 Uani
O3VB O 0.79480(8) -0.03515(7) 0.71830(7) 0.0422 Uani
Mn1HC Mn 1.0000 0.27163(2) 0.31614(2) 0.0226 Uani
O1HC O 1.0000 0.31613(12) 0.35115(17) 0.0617 Uani
O2HC O 0.95908(7) 0.24589(7) 0.34404(7) 0.0397 Uani
O3OB O 0.96485(7) 0.29480(8) 0.28170(7) 0.0422 Uani
O2XF O 1.04092(7) 0.24589(7) 0.34404(7) 0.0397 Uani
O3OE O 1.03515(7) 0.29480(8) 0.28170(7) 0.0422 Uani
S1HC S 0.89909(3) 0.20936(3) 0.37010(3) 0.0423 Uani
C2HC C 0.92244(10) 0.19992(9) 0.33348(12) 0.0378 Uani
C5HC C 0.87256(10) 0.17547(11) 0.36230(11) 0.0370 Uani
C1HC C 0.95108(10) 0.22254(10) 0.32348(12) 0.0359 Uani
O3HC O 0.96485(7) 0.21830(7) 0.29480(8) 0.0422 Uani
Mn1UB Mn 1.0000 0.18386(2) 0.27163(2) 0.0226 Uani
C3HC C 0.91123(10) 0.17043(10) 0.31455(13) 0.0429 Uani
H1HC H 0.9209 0.1618 0.2941 0.0510 Uiso
C4HC C 0.88186(11) 0.15646(10) 0.33330(11) 0.0390 Uani
C5BC C 0.86230(11) 0.12744(10) 0.32453(11) 0.0370 Uani
C4JC C 0.84354(10) 0.16670(11) 0.38186(11) 0.0390 Uani
S1BC S 0.87010(3) 0.10091(3) 0.29064(3) 0.0423 Uani
C2BC C 0.83348(12) 0.07756(10) 0.30008(9) 0.0378 Uani
O2BC O 0.84404(7) 0.04092(7) 0.25411(7) 0.0397 Uani
C1BC C 0.82348(12) 0.04892(10) 0.27746(10) 0.0359 Uani
Mn1BC Mn 0.81614(2) 0.0000 0.22837(2) 0.0226 Uani
O3BC O 0.79480(8) 0.03515(7) 0.28170(7) 0.0422 Uani
Mn1EA Mn 0.77163(2) -0.0000 0.31614(2) 0.0226 Uani
C3BC C 0.81455(13) 0.08877(10) 0.32957(10) 0.0429 Uani
H1BC H 0.7941 0.0791 0.3382 0.0510 Uiso
C4BC C 0.83330(11) 0.11814(11) 0.34354(10) 0.0390 Uani
C5JC C 0.82453(11) 0.13770(11) 0.37256(10) 0.0370 Uani
S1JC S 0.79064(3) 0.12990(3) 0.39909(3) 0.0423 Uani
C2JC C 0.80008(9) 0.16652(12) 0.42244(10) 0.0378 Uani
O2JC O 0.75411(7) 0.15596(7) 0.45908(7) 0.0397 Uani
C1JC C 0.77746(10) 0.17652(12) 0.45108(10) 0.0359 Uani
C3JC C 0.82957(10) 0.18545(13) 0.41123(10) 0.0429 Uani
H1JC H 0.8382 0.2059 0.4209 0.0510 Uiso
S1SB S 0.79064(3) 0.39909(3) 0.37010(3) 0.0423 Uani
C2SB C 0.80008(9) 0.42244(10) 0.33348(12) 0.0378 Uani
C5SB C 0.82453(11) 0.37256(10) 0.36230(11) 0.0370 Uani
O2SB O 0.75411(7) 0.45908(7) 0.34404(7) 0.0397 Uani
C1SB C 0.77746(10) 0.45108(10) 0.32348(12) 0.0359 Uani
Mn1SB Mn 0.72837(2) 0.5000 0.31614(2) 0.0226 Uani
O3SB O 0.78170(7) 0.46485(7) 0.29480(8) 0.0422 Uani
Mn1XA Mn 0.81614(2) 0.5000 0.27163(2) 0.0226 Uani
C3SB C 0.82957(10) 0.41123(10) 0.31455(13) 0.0429 Uani
H1SB H 0.8382 0.4209 0.2941 0.0510 Uiso
C4SB C 0.84354(10) 0.38186(11) 0.33330(11) 0.0390 Uani
C5OB C 0.87256(10) 0.36230(11) 0.32453(11) 0.0370 Uani
C4QB C 0.83330(11) 0.34354(10) 0.38186(11) 0.0390 Uani
S1OB S 0.89909(3) 0.37010(3) 0.29064(3) 0.0423 Uani
C2OB C 0.92244(10) 0.33348(12) 0.30008(9) 0.0378 Uani
O2OB O 0.95908(7) 0.34404(7) 0.25411(7) 0.0397 Uani
C1OB C 0.95108(10) 0.32348(12) 0.27746(10) 0.0359 Uani
Mn1OB Mn 1.0000 0.31614(2) 0.22837(2) 0.0226 Uani
C3OB C 0.91123(10) 0.31455(13) 0.32957(10) 0.0429 Uani
H1OB H 0.9209 0.2941 0.3382 0.0510 Uiso
C4OB C 0.88186(11) 0.33330(11) 0.34354(10) 0.0390 Uani
C5QB C 0.86230(11) 0.32453(11) 0.37256(10) 0.0370 Uani
S1QB S 0.87010(3) 0.29064(3) 0.39909(3) 0.0423 Uani
C2QB C 0.83348(12) 0.30008(9) 0.42244(10) 0.0378 Uani
C1QB C 0.82348(12) 0.27746(10) 0.45108(10) 0.0359 Uani
C3QB C 0.81455(13) 0.32957(10) 0.41123(10) 0.0429 Uani
H1QB H 0.7941 0.3382 0.4209 0.0510 Uiso
O1OB O 1.0000 0.35115(17) 0.18387(12) 0.0617 Uani
O2OE O 1.04092(7) 0.34404(7) 0.25411(7) 0.0397 Uani
O3HB O 0.96485(7) 0.28170(7) 0.20520(8) 0.0422 Uani
O3BF O 1.03515(7) 0.28170(7) 0.20520(8) 0.0422 Uani
O1BC O 0.85115(17) -0.0000 0.18387(12) 0.0617 Uani
O2LF O 0.84404(7) -0.04092(7) 0.25411(7) 0.0397 Uani
O3CC O 0.78170(7) 0.03515(7) 0.20520(8) 0.0422 Uani
O3SF O 0.78170(7) -0.03515(7) 0.20520(8) 0.0422 Uani
Mn2 Mn 0.7500 0.7500 0.7500 0.0210 Uani
O4 O 0.7500 0.7500 0.8042(3) 0.2080 Uani
O4F O 0.7500 0.8042(3) 0.7500 0.2080 Uani
O4G O 0.8042(3) 0.7500 0.7500 0.2080 Uani
O4R O 0.7500 0.7500 0.6958(3) 0.2080 Uani
O4BA O 0.7500 0.6958(3) 0.7500 0.2080 Uani
O4EB O 0.6958(3) 0.7500 0.7500 0.2080 Uani
loop_
_atom_site_aniso_label
_atom_site_aniso_U_11
_atom_site_aniso_U_22
_atom_site_aniso_U_33
_atom_site_aniso_U_23
_atom_site_aniso_U_13
_atom_site_aniso_U_12
Mn1 0.0273(5) 0.0167(4) 0.0238(5) 0.000 -0.0074(3) 0.000
S1 0.0564(7) 0.0329(6) 0.0376(6) 0.0100(4) 0.0153(4) 0.0155(4)
O1 0.105(4) 0.041(3) 0.039(2) 0.000 -0.026(3) 0.000
O2 0.0550(18) 0.0310(14) 0.0332(15) 0.0144(12) -0.0017(13) 0.0063(12)
O3 0.0582(19) 0.0347(15) 0.0338(15) -0.0081(12) -0.0055(13) 0.0251(13)
C1 0.056(3) 0.0244(19) 0.0272(19) 0.0023(14) 0.0002(17) 0.0126(17)
C2 0.066(2) 0.0250(18) 0.0223(15) 0.0063(13) 0.0055(16) 0.0241(16)
C3 0.083(3) 0.0220(17) 0.0236(16) 0.0061(13) 0.0001(16) 0.0188(16)
C4 0.050(3) 0.040(2) 0.0269(19) 0.0120(16) 0.0124(17) 0.0253(18)
C5 0.044(2) 0.030(2) 0.037(2) 0.0079(16) 0.0197(17) 0.0127(17)
S1J 0.0376 0.0564 0.0329 0.0155 0.01 0.0153
O2J 0.0332 0.055 0.031 0.0063 0.0144 -0.0017
O3J 0.0338 0.0582 0.0347 0.0251 -0.0081 -0.0055
C1J 0.0272 0.056 0.0244 0.0126 0.0023 0.0002
C2J 0.0223 0.066 0.025 0.0241 0.0063 0.0055
C3J 0.0236 0.083 0.022 0.0188 0.0061 0.0001
C4J 0.0269 0.05 0.04 0.0253 0.012 0.0124
C5J 0.037 0.044 0.03 0.0127 0.0079 0.0197
S1K 0.0329 0.0376 0.0564 0.0153 0.0155 0.01
O2K 0.031 0.0332 0.055 -0.0017 0.0063 0.0144
O3K 0.0347 0.0338 0.0582 -0.0055 0.0251 -0.0081
C1K 0.0244 0.0272 0.056 0.0002 0.0126 0.0023
C2K 0.025 0.0223 0.066 0.0055 0.0241 0.0063
C3K 0.022 0.0236 0.083 0.0001 0.0188 0.0061
C4K 0.04 0.0269 0.05 0.0124 0.0253 0.012
C5K 0.03 0.037 0.044 0.0197 0.0127 0.0079
S1F 0.0564 0.0376 0.0329 -0.01 -0.0155 0.0153
O2F 0.055 0.0332 0.031 -0.0144 -0.0063 -0.0017
O3F 0.0582 0.0338 0.0347 0.0081 -0.0251 -0.0055
C1F 0.056 0.0272 0.0244 -0.0023 -0.0126 0.0002
C2F 0.066 0.0223 0.025 -0.0063 -0.0241 0.0055
C3F 0.083 0.0236 0.022 -0.0061 -0.0188 0.0001
C4F 0.05 0.0269 0.04 -0.012 -0.0253 0.0124
C5F 0.044 0.037 0.03 -0.0079 -0.0127 0.0197
S1G 0.0376 0.0329 0.0564 -0.0155 -0.0153 0.01
O2G 0.0332 0.031 0.055 -0.0063 0.0017 0.0144
O3G 0.0338 0.0347 0.0582 -0.0251 0.0055 -0.0081
C1G 0.0272 0.0244 0.056 -0.0126 -0.0002 0.0023
C2G 0.0223 0.025 0.066 -0.0241 -0.0055 0.0063
C3G 0.0236 0.022 0.083 -0.0188 -0.0001 0.0061
C4G 0.0269 0.04 0.05 -0.0253 -0.0124 0.012
C5G 0.037 0.03 0.044 -0.0127 -0.0197 0.0079
S1R 0.0329 0.0564 0.0376 -0.0153 -0.01 0.0155
O2R 0.031 0.055 0.0332 0.0017 -0.0144 0.0063
O3R 0.0347 0.0582 0.0338 0.0055 0.0081 0.0251
C1R 0.0244 0.056 0.0272 -0.0002 -0.0023 0.0126
C2R 0.025 0.066 0.0223 -0.0055 -0.0063 0.0241
C3R 0.022 0.083 0.0236 -0.0001 -0.0061 0.0188
C4R 0.04 0.05 0.0269 -0.0124 -0.012 0.0253
C5R 0.03 0.044 0.037 -0.0197 -0.0079 0.0127
Mn1G 0.0238 0.0167 0.0273 0 0.0074 0
O1G 0.039 0.041 0.105 0 0.026 0
Mn1J 0.0238 0.0273 0.0167 0 0 -0.0074
O1J 0.039 0.105 0.041 0 0 -0.026
Mn1F 0.0273 0.0238 0.0167 0 0 -0.0074
Mn1K 0.0167 0.0238 0.0273 -0.0074 0 0
Mn1R 0.0167 0.0273 0.0238 0.0074 0 0
Mn1BA 0.0273 0.0238 0.0167 0 0 0.0074
Mn1OA 0.0167 0.0238 0.0273 -0.0074 0 0
Mn1EB 0.0238 0.0167 0.0273 0 0.0074 0
Mn1LB 0.0238 0.0273 0.0167 0 0 0.0074
O2ZC 0.055 0.031 0.0332 -0.0144 -0.0017 -0.0063
O2AD 0.0332 0.031 0.055 0.0063 0.0017 -0.0144
O2GD 0.0332 0.055 0.031 -0.0063 -0.0144 -0.0017
O3DB 0.0582 0.0347 0.0338 0.0081 -0.0055 -0.0251
O3PB 0.0582 0.0338 0.0347 -0.0081 -0.0251 0.0055
O3AD 0.0338 0.0347 0.0582 0.0251 0.0055 0.0081
O3NE 0.0582 0.0347 0.0338 -0.0081 -0.0055 0.0251
O3RE 0.0582 0.0338 0.0347 0.0081 0.0251 0.0055
Mn1YA 0.0273(5) 0.0167(4) 0.0238(5) 0.000 -0.0074(3) 0.000
O1YA 0.105(4) 0.041(3) 0.039(2) 0.000 -0.026(3) 0.000
O2FF 0.0550(18) 0.0310(14) 0.0332(15) 0.0144(12) -0.0017(13) 0.0063(12)
O3YE 0.0338 0.0347 0.0582 -0.0251 0.0055 -0.0081
O2YA 0.055 0.031 0.0332 -0.0144 -0.0017 -0.0063
O3MB 0.0338 0.0347 0.0582 0.0251 0.0055 0.0081
S1FF 0.0564(7) 0.0329(6) 0.0376(6) 0.0100(4) 0.0153(4) 0.0155(4)
C2FF 0.066(2) 0.0250(18) 0.0223(15) 0.0063(13) 0.0055(16) 0.0241(16)
C5FF 0.044(2) 0.030(2) 0.037(2) 0.0079(16) 0.0197(17) 0.0127(17)
C1FF 0.056(3) 0.0244(19) 0.0272(19) 0.0023(14) 0.0002(17) 0.0126(17)
O3FF 0.0582(19) 0.0347(15) 0.0338(15) -0.0081(12) -0.0055(13) 0.0251(13)
Mn1EC 0.0238 0.0167 0.0273 0 0.0074 0
C3FF 0.083(3) 0.0220(17) 0.0236(16) 0.0061(13) 0.0001(16) 0.0188(16)
C4FF 0.050(3) 0.040(2) 0.0269(19) 0.0120(16) 0.0124(17) 0.0253(18)
C5TE 0.037 0.044 0.03 0.0127 0.0079 0.0197
C4UE 0.04 0.0269 0.05 0.0124 0.0253 0.012
S1TE 0.0376 0.0564 0.0329 0.0155 0.01 0.0153
C2TE 0.0223 0.066 0.025 0.0241 0.0063 0.0055
O2TE 0.0332 0.055 0.031 0.0063 0.0144 -0.0017
C1TE 0.0272 0.056 0.0244 0.0126 0.0023 0.0002
Mn1QB 0.0238 0.0273 0.0167 0 0 -0.0074
O3TE 0.0338 0.0582 0.0347 0.0251 -0.0081 -0.0055
Mn1M 0.0273 0.0238 0.0167 0 0 0.0074
C3TE 0.0236 0.083 0.022 0.0188 0.0061 0.0001
C4TE 0.0269 0.05 0.04 0.0253 0.012 0.0124
C5UE 0.03 0.037 0.044 0.0197 0.0127 0.0079
S1UE 0.0329 0.0376 0.0564 0.0153 0.0155 0.01
C2UE 0.025 0.0223 0.066 0.0055 0.0241 0.0063
O2UE 0.031 0.0332 0.055 -0.0017 0.0063 0.0144
C1UE 0.0244 0.0272 0.056 0.0002 0.0126 0.0023
O3UE 0.0347 0.0338 0.0582 -0.0055 0.0251 -0.0081
Mn1DB 0.0167 0.0273 0.0238 0.0074 0 0
C3UE 0.022 0.0236 0.083 0.0001 0.0188 0.0061
S1XE 0.0564 0.0376 0.0329 -0.01 -0.0155 0.0153
C2XE 0.066 0.0223 0.025 -0.0063 -0.0241 0.0055
C5XE 0.044 0.037 0.03 -0.0079 -0.0127 0.0197
O2XE 0.055 0.0332 0.031 -0.0144 -0.0063 -0.0017
C1XE 0.056 0.0272 0.0244 -0.0023 -0.0126 0.0002
Mn1KB 0.0273 0.0238 0.0167 0 0 -0.0074
O3XE 0.0582 0.0338 0.0347 0.0081 -0.0251 -0.0055
Mn1NC 0.0238 0.0273 0.0167 0 0 0.0074
C3XE 0.083 0.0236 0.022 -0.0061 -0.0188 0.0001
C4XE 0.05 0.0269 0.04 -0.012 -0.0253 0.0124
C5YE 0.037 0.03 0.044 -0.0127 -0.0197 0.0079
C4NE 0.04 0.05 0.0269 -0.0124 -0.012 0.0253
S1YE 0.0376 0.0329 0.0564 -0.0155 -0.0153 0.01
C2YE 0.0223 0.025 0.066 -0.0241 -0.0055 0.0063
O2YE 0.0332 0.031 0.055 -0.0063 0.0017 0.0144
C1YE 0.0272 0.0244 0.056 -0.0126 -0.0002 0.0023
Mn1MB 0.0238 0.0167 0.0273 0 0.0074 0
C3YE 0.0236 0.022 0.083 -0.0188 -0.0001 0.0061
C4YE 0.0269 0.04 0.05 -0.0253 -0.0124 0.012
C5NE 0.03 0.044 0.037 -0.0197 -0.0079 0.0127
S1NE 0.0329 0.0564 0.0376 -0.0153 -0.01 0.0155
C2NE 0.025 0.066 0.0223 -0.0055 -0.0063 0.0241
O2NE 0.031 0.055 0.0332 0.0017 -0.0144 0.0063
C1NE 0.0244 0.056 0.0272 -0.0002 -0.0023 0.0126
C3NE 0.022 0.083 0.0236 -0.0001 -0.0061 0.0188
O1MB 0.039 0.041 0.105 0 0.026 0
O2MB 0.0332 0.031 0.055 0.0063 0.0017 -0.0144
O3OF 0.0582 0.0347 0.0338 0.0081 -0.0055 -0.0251
O3LC 0.0582 0.0347 0.0338 -0.0081 -0.0055 0.0251
O1QB 0.039 0.105 0.041 0 0 -0.026
O2QB 0.0332 0.055 0.031 -0.0063 -0.0144 -0.0017
O3YF 0.0582 0.0338 0.0347 -0.0081 -0.0251 0.0055
O3JC 0.0582 0.0338 0.0347 0.0081 0.0251 0.0055
Mn1DA 0.0273(5) 0.0167(4) 0.0238(5) 0.000 -0.0074(3) 0.000
O1DA 0.105(4) 0.041(3) 0.039(2) 0.000 -0.026(3) 0.000
O2KE 0.0550(18) 0.0310(14) 0.0332(15) 0.0144(12) -0.0017(13) 0.0063(12)
O3HD 0.0338 0.0347 0.0582 -0.0251 0.0055 -0.0081
O2DA 0.055 0.031 0.0332 -0.0144 -0.0017 -0.0063
O3M 0.0338 0.0347 0.0582 0.0251 0.0055 0.0081
S1KE 0.0564(7) 0.0329(6) 0.0376(6) 0.0100(4) 0.0153(4) 0.0155(4)
C2KE 0.066(2) 0.0250(18) 0.0223(15) 0.0063(13) 0.0055(16) 0.0241(16)
C5KE 0.044(2) 0.030(2) 0.037(2) 0.0079(16) 0.0197(17) 0.0127(17)
C1KE 0.056(3) 0.0244(19) 0.0272(19) 0.0023(14) 0.0002(17) 0.0126(17)
O3KE 0.0582(19) 0.0347(15) 0.0338(15) -0.0081(12) -0.0055(13) 0.0251(13)
Mn1JC 0.0238 0.0167 0.0273 0 0.0074 0
C3KE 0.083(3) 0.0220(17) 0.0236(16) 0.0061(13) 0.0001(16) 0.0188(16)
C4KE 0.050(3) 0.040(2) 0.0269(19) 0.0120(16) 0.0124(17) 0.0253(18)
C5ME 0.037 0.044 0.03 0.0127 0.0079 0.0197
C4IE 0.04 0.0269 0.05 0.0124 0.0253 0.012
S1ME 0.0376 0.0564 0.0329 0.0155 0.01 0.0153
C2ME 0.0223 0.066 0.025 0.0241 0.0063 0.0055
O2ME 0.0332 0.055 0.031 0.0063 0.0144 -0.0017
C1ME 0.0272 0.056 0.0244 0.0126 0.0023 0.0002
Mn1TA 0.0238 0.0273 0.0167 0 0 -0.0074
O3ME 0.0338 0.0582 0.0347 0.0251 -0.0081 -0.0055
Mn1CA 0.0273 0.0238 0.0167 0 0 0.0074
C3ME 0.0236 0.083 0.022 0.0188 0.0061 0.0001
C4ME 0.0269 0.05 0.04 0.0253 0.012 0.0124
C5IE 0.03 0.037 0.044 0.0197 0.0127 0.0079
S1IE 0.0329 0.0376 0.0564 0.0153 0.0155 0.01
C2IE 0.025 0.0223 0.066 0.0055 0.0241 0.0063
O2IE 0.031 0.0332 0.055 -0.0017 0.0063 0.0144
C1IE 0.0244 0.0272 0.056 0.0002 0.0126 0.0023
Mn1Y 0.0167 0.0238 0.0273 -0.0074 0 0
O3IE 0.0347 0.0338 0.0582 -0.0055 0.0251 -0.0081
Mn1L 0.0167 0.0273 0.0238 0.0074 0 0
C3IE 0.022 0.0236 0.083 0.0001 0.0188 0.0061
S1ZC 0.0564 0.0376 0.0329 -0.01 -0.0155 0.0153
C2ZC 0.066 0.0223 0.025 -0.0063 -0.0241 0.0055
C5ZC 0.044 0.037 0.03 -0.0079 -0.0127 0.0197
C1ZC 0.056 0.0272 0.0244 -0.0023 -0.0126 0.0002
O3ZC 0.0582 0.0338 0.0347 0.0081 -0.0251 -0.0055
C3ZC 0.083 0.0236 0.022 -0.0061 -0.0188 0.0001
C4ZC 0.05 0.0269 0.04 -0.012 -0.0253 0.0124
C5HD 0.037 0.03 0.044 -0.0127 -0.0197 0.0079
C4FD 0.04 0.05 0.0269 -0.0124 -0.012 0.0253
S1HD 0.0376 0.0329 0.0564 -0.0155 -0.0153 0.01
C2HD 0.0223 0.025 0.066 -0.0241 -0.0055 0.0063
O2HD 0.0332 0.031 0.055 -0.0063 0.0017 0.0144
C1HD 0.0272 0.0244 0.056 -0.0126 -0.0002 0.0023
C3HD 0.0236 0.022 0.083 -0.0188 -0.0001 0.0061
C4HD 0.0269 0.04 0.05 -0.0253 -0.0124 0.012
C5FD 0.03 0.044 0.037 -0.0197 -0.0079 0.0127
S1FD 0.0329 0.0564 0.0376 -0.0153 -0.01 0.0155
C2FD 0.025 0.066 0.0223 -0.0055 -0.0063 0.0241
O2FD 0.031 0.055 0.0332 0.0017 -0.0144 0.0063
C1FD 0.0244 0.056 0.0272 -0.0002 -0.0023 0.0126
O3FD 0.0347 0.0582 0.0338 0.0055 0.0081 0.0251
Mn1S 0.0167 0.0238 0.0273 -0.0074 0 0
C3FD 0.022 0.083 0.0236 -0.0001 -0.0061 0.0188
O1M 0.039 0.041 0.105 0 0.026 0
O2M 0.0332 0.031 0.055 0.0063 0.0017 -0.0144
O3QB 0.0582 0.0347 0.0338 -0.0081 -0.0055 0.0251
O1TA 0.039 0.105 0.041 0 0 -0.026
O2TA 0.0332 0.055 0.031 -0.0063 -0.0144 -0.0017
O3QF 0.0582 0.0338 0.0347 -0.0081 -0.0251 0.0055
O3VB 0.0582 0.0338 0.0347 0.0081 0.0251 0.0055
Mn1HC 0.0273(5) 0.0167(4) 0.0238(5) 0.000 -0.0074(3) 0.000
O1HC 0.105(4) 0.041(3) 0.039(2) 0.000 -0.026(3) 0.000
O2HC 0.0550(18) 0.0310(14) 0.0332(15) 0.0144(12) -0.0017(13) 0.0063(12)
O3OB 0.0338 0.0347 0.0582 -0.0251 0.0055 -0.0081
O2XF 0.055 0.031 0.0332 -0.0144 -0.0017 -0.0063
O3OE 0.0338 0.0347 0.0582 0.0251 0.0055 0.0081
S1HC 0.0564(7) 0.0329(6) 0.0376(6) 0.0100(4) 0.0153(4) 0.0155(4)
C2HC 0.066(2) 0.0250(18) 0.0223(15) 0.0063(13) 0.0055(16) 0.0241(16)
C5HC 0.044(2) 0.030(2) 0.037(2) 0.0079(16) 0.0197(17) 0.0127(17)
C1HC 0.056(3) 0.0244(19) 0.0272(19) 0.0023(14) 0.0002(17) 0.0126(17)
O3HC 0.0582(19) 0.0347(15) 0.0338(15) -0.0081(12) -0.0055(13) 0.0251(13)
Mn1UB 0.0238 0.0167 0.0273 0 0.0074 0
C3HC 0.083(3) 0.0220(17) 0.0236(16) 0.0061(13) 0.0001(16) 0.0188(16)
C4HC 0.050(3) 0.040(2) 0.0269(19) 0.0120(16) 0.0124(17) 0.0253(18)
C5BC 0.037 0.044 0.03 0.0127 0.0079 0.0197
C4JC 0.04 0.0269 0.05 0.0124 0.0253 0.012
S1BC 0.0376 0.0564 0.0329 0.0155 0.01 0.0153
C2BC 0.0223 0.066 0.025 0.0241 0.0063 0.0055
O2BC 0.0332 0.055 0.031 0.0063 0.0144 -0.0017
C1BC 0.0272 0.056 0.0244 0.0126 0.0023 0.0002
Mn1BC 0.0238 0.0273 0.0167 0 0 -0.0074
O3BC 0.0338 0.0582 0.0347 0.0251 -0.0081 -0.0055
Mn1EA 0.0273 0.0238 0.0167 0 0 0.0074
C3BC 0.0236 0.083 0.022 0.0188 0.0061 0.0001
C4BC 0.0269 0.05 0.04 0.0253 0.012 0.0124
C5JC 0.03 0.037 0.044 0.0197 0.0127 0.0079
S1JC 0.0329 0.0376 0.0564 0.0153 0.0155 0.01
C2JC 0.025 0.0223 0.066 0.0055 0.0241 0.0063
O2JC 0.031 0.0332 0.055 -0.0017 0.0063 0.0144
C1JC 0.0244 0.0272 0.056 0.0002 0.0126 0.0023
C3JC 0.022 0.0236 0.083 0.0001 0.0188 0.0061
S1SB 0.0564 0.0376 0.0329 -0.01 -0.0155 0.0153
C2SB 0.066 0.0223 0.025 -0.0063 -0.0241 0.0055
C5SB 0.044 0.037 0.03 -0.0079 -0.0127 0.0197
O2SB 0.055 0.0332 0.031 -0.0144 -0.0063 -0.0017
C1SB 0.056 0.0272 0.0244 -0.0023 -0.0126 0.0002
Mn1SB 0.0273 0.0238 0.0167 0 0 -0.0074
O3SB 0.0582 0.0338 0.0347 0.0081 -0.0251 -0.0055
Mn1XA 0.0238 0.0273 0.0167 0 0 0.0074
C3SB 0.083 0.0236 0.022 -0.0061 -0.0188 0.0001
C4SB 0.05 0.0269 0.04 -0.012 -0.0253 0.0124
C5OB 0.037 0.03 0.044 -0.0127 -0.0197 0.0079
C4QB 0.04 0.05 0.0269 -0.0124 -0.012 0.0253
S1OB 0.0376 0.0329 0.0564 -0.0155 -0.0153 0.01
C2OB 0.0223 0.025 0.066 -0.0241 -0.0055 0.0063
O2OB 0.0332 0.031 0.055 -0.0063 0.0017 0.0144
C1OB 0.0272 0.0244 0.056 -0.0126 -0.0002 0.0023
Mn1OB 0.0238 0.0167 0.0273 0 0.0074 0
C3OB 0.0236 0.022 0.083 -0.0188 -0.0001 0.0061
C4OB 0.0269 0.04 0.05 -0.0253 -0.0124 0.012
C5QB 0.03 0.044 0.037 -0.0197 -0.0079 0.0127
S1QB 0.0329 0.0564 0.0376 -0.0153 -0.01 0.0155
C2QB 0.025 0.066 0.0223 -0.0055 -0.0063 0.0241
C1QB 0.0244 0.056 0.0272 -0.0002 -0.0023 0.0126
C3QB 0.022 0.083 0.0236 -0.0001 -0.0061 0.0188
O1OB 0.039 0.041 0.105 0 0.026 0
O2OE 0.0332 0.031 0.055 0.0063 0.0017 -0.0144
O3HB 0.0582 0.0347 0.0338 0.0081 -0.0055 -0.0251
O3BF 0.0582 0.0347 0.0338 -0.0081 -0.0055 0.0251
O1BC 0.039 0.105 0.041 0 0 -0.026
O2LF 0.0332 0.055 0.031 -0.0063 -0.0144 -0.0017
O3CC 0.0582 0.0338 0.0347 -0.0081 -0.0251 0.0055
O3SF 0.0582 0.0338 0.0347 0.0081 0.0251 0.0055
Mn2 0.0210(5) 0.0210(5) 0.0210(5) 0.000 0.000 0.000
O4 0.295(14) 0.295(14) 0.034(6) 0.000 0.000 0.000
O4F 0.295 0.034 0.295 0 0 0
O4G 0.034 0.295 0.295 0 0 0
O4R 0.295 0.295 0.034 0 0 0
O4BA 0.295 0.034 0.295 0 0 0
O4EB 0.034 0.295 0.295 0 0 0
loop_
_geom_bond_atom_site_label_1
_geom_bond_atom_site_label_2
_geom_bond_site_symmetry_1
_geom_bond_site_symmetry_2
Mn1 O1 1_555 1_555
S1 C2 1_555 1_555
O2 Mn1 1_555 1_555
O3 C1 1_555 1_555
C1 O2 1_555 1_555
C2 C1 1_555 1_555
C3 C2 1_555 1_555
H1 C3 1_555 1_555
C4 C3 1_555 1_555
C5 S1 1_555 1_555
Mn2 O4 1_555 1_555
S1J C2J 1_555 1_555
O2J C1J 1_555 1_555
O3J C1J 1_555 1_555
C1J C2J 1_555 1_555
C2J C3J 1_555 1_555
C3J H1J 1_555 1_555
C4J C3J 1_555 1_555
C5J C4 1_555 1_555
S1K C2K 1_555 1_555
O2K C1K 1_555 1_555
O3K C1K 1_555 1_555
C1K C2K 1_555 1_555
C2K C3K 1_555 1_555
C3K H1K 1_555 1_555
C4K C5 1_555 1_555
C5K C4J 1_555 1_555
S1F C2F 1_555 1_555
O2F C1F 1_555 1_555
O3F C1F 1_555 1_555
C1F C2F 1_555 1_555
C2F C3F 1_555 1_555
C3F H1F 1_555 1_555
C4F C3F 1_555 1_555
C5F S1F 1_555 1_555
S1G C2G 1_555 1_555
O2G C1G 1_555 1_555
O3G Mn1 1_555 1_555
C1G O3G 1_555 1_555
C2G C1G 1_555 1_555
C3G C2G 1_555 1_555
H1G C3G 1_555 1_555
C4G C3G 1_555 1_555
C5G C4F 1_555 1_555
S1R C2R 1_555 1_555
O2R C1R 1_555 1_555
O3R C1R 1_555 1_555
C1R C2R 1_555 1_555
C2R C3R 1_555 1_555
C3R H1R 1_555 1_555
C4R C5F 1_555 1_555
C5R C4G 1_555 1_555
Mn1G O2G 1_555 1_555
O1G Mn1G 1_555 1_555
Mn1J O2J 1_555 1_555
O1J Mn1J 1_555 1_555
Mn1F O2F 1_555 1_555
Mn1K O2K 1_555 1_555
Mn1R O3K 1_555 1_555
Mn1BA O3J 1_555 1_555
Mn1OA O3R 1_555 1_555
Mn1EB O3 1_555 1_555
Mn1LB O3F 1_555 1_555
O2ZC Mn1 1_555 1_555
O2AD Mn1G 1_555 1_555
O2GD Mn1J 1_555 1_555
O3DB Mn1G 1_555 1_555
O3PB Mn1J 1_555 1_555
O3AD Mn1 1_555 1_555
O3NE Mn1G 1_555 1_555
O3RE Mn1J 1_555 1_555
Mn1YA O1YA 1_555 1_555
O2FF Mn1YA 1_555 1_555
O3YE Mn1YA 1_555 1_555
O2YA Mn1YA 1_555 1_555
O3MB Mn1YA 1_555 1_555
S1FF C2FF 1_555 1_555
C2FF C1FF 1_555 1_555
C5FF S1FF 1_555 1_555
C1FF O2FF 1_555 1_555
O3FF C1FF 1_555 1_555
Mn1EC O3FF 1_555 1_555
C3FF C2FF 1_555 1_555
H1FF C3FF 1_555 1_555
C4FF C5FF 1_555 1_555
C5TE C4FF 1_555 1_555
C4UE C5FF 1_555 1_555
S1TE C5TE 1_555 1_555
C2TE S1TE 1_555 1_555
O2TE C1TE 1_555 1_555
C1TE C2TE 1_555 1_555
Mn1QB O2TE 1_555 1_555
O3TE C1TE 1_555 1_555
Mn1M O3TE 1_555 1_555
C3TE C2TE 1_555 1_555
H1TE C3TE 1_555 1_555
C4TE C5TE 1_555 1_555
C5UE C4UE 1_555 1_555
S1UE C5UE 1_555 1_555
C2UE S1UE 1_555 1_555
O2UE Mn1EB 1_555 1_555
C1UE C2UE 1_555 1_555
O3UE C1UE 1_555 1_555
Mn1DB O3UE 1_555 1_555
C3UE C4UE 1_555 1_555
H1UE C3UE 1_555 1_555
S1XE C2XE 1_555 1_555
C2XE C1XE 1_555 1_555
C5XE S1XE 1_555 1_555
O2XE C1XE 1_555 1_555
C1XE O3XE 1_555 1_555
Mn1KB O2XE 1_555 1_555
O3XE Mn1NC 1_555 1_555
C3XE C2XE 1_555 1_555
H1XE C3XE 1_555 1_555
C4XE C5XE 1_555 1_555
C5YE C4XE 1_555 1_555
C4NE C5XE 1_555 1_555
S1YE C5YE 1_555 1_555
C2YE S1YE 1_555 1_555
O2YE C1YE 1_555 1_555
C1YE O3YE 1_555 1_555
Mn1MB O2YE 1_555 1_555
C3YE C2YE 1_555 1_555
H1YE C3YE 1_555 1_555
C4YE C5YE 1_555 1_555
C5NE C4NE 1_555 1_555
S1NE C5NE 1_555 1_555
C2NE S1NE 1_555 1_555
O2NE Mn1DB 1_555 1_555
C1NE O3NE 1_555 1_555
C3NE C4NE 1_555 1_555
H1NE C3NE 1_555 1_555
O1MB Mn1MB 1_555 1_555
O2MB Mn1MB 1_555 1_555
O3OF Mn1MB 1_555 1_555
O3LC Mn1MB 1_555 1_555
O1QB Mn1QB 1_555 1_555
O2QB Mn1QB 1_555 1_555
O3YF Mn1QB 1_555 1_555
O3JC Mn1QB 1_555 1_555
Mn1DA O1DA 1_555 1_555
O2KE Mn1DA 1_555 1_555
O3HD Mn1DA 1_555 1_555
O2DA Mn1DA 1_555 1_555
O3M Mn1DA 1_555 1_555
S1KE C2KE 1_555 1_555
C2KE C1KE 1_555 1_555
C5KE S1KE 1_555 1_555
C1KE O2KE 1_555 1_555
O3KE C1KE 1_555 1_555
Mn1JC O3KE 1_555 1_555
C3KE C2KE 1_555 1_555
H1KE C3KE 1_555 1_555
C4KE C5KE 1_555 1_555
C5ME C4KE 1_555 1_555
C4IE C5KE 1_555 1_555
S1ME C5ME 1_555 1_555
C2ME S1ME 1_555 1_555
O2ME C1ME 1_555 1_555
C1ME C2ME 1_555 1_555
Mn1TA O2ME 1_555 1_555
O3ME C1ME 1_555 1_555
Mn1CA O3ME 1_555 1_555
C3ME C2ME 1_555 1_555
H1ME C3ME 1_555 1_555
C4ME C5ME 1_555 1_555
C5IE C4IE 1_555 1_555
S1IE C5IE 1_555 1_555
C2IE S1IE 1_555 1_555
O2IE C1IE 1_555 1_555
C1IE C2IE 1_555 1_555
Mn1Y O2IE 1_555 1_555
O3IE C1IE 1_555 1_555
Mn1L O3IE 1_555 1_555
C3IE C4IE 1_555 1_555
H1IE C3IE 1_555 1_555
S1ZC C2ZC 1_555 1_555
C2ZC C1ZC 1_555 1_555
C5ZC S1ZC 1_555 1_555
C1ZC O2ZC 1_555 1_555
O3ZC Mn1EB 1_555 1_555
C3ZC C2ZC 1_555 1_555
H1ZC C3ZC 1_555 1_555
C4ZC C5ZC 1_555 1_555
C5HD C4ZC 1_555 1_555
C4FD C5ZC 1_555 1_555
S1HD C5HD 1_555 1_555
C2HD S1HD 1_555 1_555
O2HD Mn1M 1_555 1_555
C1HD O3HD 1_555 1_555
C3HD C2HD 1_555 1_555
H1HD C3HD 1_555 1_555
C4HD C5HD 1_555 1_555
C5FD C4FD 1_555 1_555
S1FD C5FD 1_555 1_555
C2FD S1FD 1_555 1_555
O2FD Mn1L 1_555 1_555
C1FD C2FD 1_555 1_555
O3FD C1FD 1_555 1_555
Mn1S O3FD 1_555 1_555
C3FD C4FD 1_555 1_555
H1FD C3FD 1_555 1_555
O1M Mn1M 1_555 1_555
O2M Mn1M 1_555 1_555
O3QB Mn1M 1_555 1_555
O1TA Mn1TA 1_555 1_555
O2TA Mn1TA 1_555 1_555
O3QF Mn1TA 1_555 1_555
O3VB Mn1TA 1_555 1_555
Mn1HC O1HC 1_555 1_555
O2HC Mn1HC 1_555 1_555
O3OB Mn1HC 1_555 1_555
O2XF Mn1HC 1_555 1_555
O3OE Mn1HC 1_555 1_555
S1HC C2HC 1_555 1_555
C2HC C1HC 1_555 1_555
C5HC S1HC 1_555 1_555
C1HC O2HC 1_555 1_555
O3HC C1HC 1_555 1_555
Mn1UB O3HC 1_555 1_555
C3HC C2HC 1_555 1_555
H1HC C3HC 1_555 1_555
C4HC C5HC 1_555 1_555
C5BC C4HC 1_555 1_555
C4JC C5HC 1_555 1_555
S1BC C5BC 1_555 1_555
C2BC S1BC 1_555 1_555
O2BC C1BC 1_555 1_555
C1BC C2BC 1_555 1_555
Mn1BC O2BC 1_555 1_555
O3BC C1BC 1_555 1_555
Mn1EA O3BC 1_555 1_555
C3BC C2BC 1_555 1_555
H1BC C3BC 1_555 1_555
C4BC C5BC 1_555 1_555
C5JC C4JC 1_555 1_555
S1JC C5JC 1_555 1_555
C2JC S1JC 1_555 1_555
O2JC Mn1JC 1_555 1_555
C1JC O3JC 1_555 1_555
C3JC C4JC 1_555 1_555
H1JC C3JC 1_555 1_555
S1SB C2SB 1_555 1_555
C2SB C1SB 1_555 1_555
C5SB S1SB 1_555 1_555
O2SB C1SB 1_555 1_555
C1SB O3SB 1_555 1_555
Mn1SB O2SB 1_555 1_555
O3SB Mn1XA 1_555 1_555
C3SB C2SB 1_555 1_555
H1SB C3SB 1_555 1_555
C4SB C5SB 1_555 1_555
C5OB C4SB 1_555 1_555
C4QB C5SB 1_555 1_555
S1OB C5OB 1_555 1_555
C2OB S1OB 1_555 1_555
O2OB C1OB 1_555 1_555
C1OB O3OB 1_555 1_555
Mn1OB O2OB 1_555 1_555
C3OB C2OB 1_555 1_555
H1OB C3OB 1_555 1_555
C4OB C5OB 1_555 1_555
C5QB C4QB 1_555 1_555
S1QB C5QB 1_555 1_555
C2QB S1QB 1_555 1_555
C1QB O2QB 1_555 1_555
C3QB C4QB 1_555 1_555
H1QB C3QB 1_555 1_555
O1OB Mn1OB 1_555 1_555
O2OE Mn1OB 1_555 1_555
O3HB Mn1OB 1_555 1_555
O3BF Mn1OB 1_555 1_555
O1BC Mn1BC 1_555 1_555
O2LF Mn1BC 1_555 1_555
O3CC Mn1BC 1_555 1_555
O3SF Mn1BC 1_555 1_555
O4F Mn2 1_555 1_555
O4G Mn2 1_555 1_555
O4R Mn2 1_555 1_555
O4BA Mn2 1_555 1_555
O4EB Mn2 1_555 1_555
C4 C5 1_555 1_555
S1J C5J 1_555 1_555
C4J C5J 1_555 1_555
S1K C5K 1_555 1_555
C3K C4K 1_555 1_555
C4K C5K 1_555 1_555
C4F C5F 1_555 1_555
S1G C5G 1_555 1_555
C4G C5G 1_555 1_555
S1R C5R 1_555 1_555
O2R Mn1R 1_555 1_555
C3R C4R 1_555 1_555
C4R C5R 1_555 1_555
C3FF C4FF 1_555 1_555
C3TE C4TE 1_555 1_555
C4TE C5UE 1_555 1_555
C2UE C3UE 1_555 1_555
O2UE C1UE 1_555 1_555
C3XE C4XE 1_555 1_555
C2YE C1YE 1_555 1_555
C3YE C4YE 1_555 1_555
C4YE C5NE 1_555 1_555
C2NE C1NE 1_555 1_555
C2NE C3NE 1_555 1_555
O2NE C1NE 1_555 1_555
C3KE C4KE 1_555 1_555
C3ME C4ME 1_555 1_555
C4ME C5IE 1_555 1_555
C2IE C3IE 1_555 1_555
C1ZC O3ZC 1_555 1_555
C3ZC C4ZC 1_555 1_555
C2HD C1HD 1_555 1_555
O2HD C1HD 1_555 1_555
C3HD C4HD 1_555 1_555
C4HD C5FD 1_555 1_555
C2FD C3FD 1_555 1_555
O2FD C1FD 1_555 1_555
O3QB C1QB 1_555 1_555
C3HC C4HC 1_555 1_555
C3BC C4BC 1_555 1_555
C4BC C5JC 1_555 1_555
C2JC C1JC 1_555 1_555
C2JC C3JC 1_555 1_555
O2JC C1JC 1_555 1_555
C3SB C4SB 1_555 1_555
C2OB C1OB 1_555 1_555
C3OB C4OB 1_555 1_555
C4OB C5QB 1_555 1_555
C2QB C1QB 1_555 1_555
C2QB C3QB 1_555 1_555

#END
