
#######################################################################
#
#                 Cambridge Crystallographic Data Centre
#                                CCDC 
#
#######################################################################
#
# If this CIF has been generated from an entry in the Cambridge 
# Structural Database, then it will include bibliographic, chemical, 
# crystal, experimental, refinement or atomic coordinate data resulting 
# from the CCDC's data processing and validation procedures.
#
#######################################################################

data_HEFDED
_chemical_formula_moiety         '(C222 H316 Mn12 Mo6 N102 O20)n'
_symmetry_cell_setting           rhombohedral
_symmetry_space_group_name_H-M   'R -3'
_symmetry_Int_Tables_number      148
_space_group_name_Hall           '-R 3'
loop_
_symmetry_equiv_pos_site_id
_symmetry_equiv_pos_as_xyz
1 x,y,z
2 -y,x-y,z
3 -x+y,-x,z
4 1/3+x,2/3+y,2/3+z
5 1/3-y,2/3+x-y,2/3+z
6 1/3-x+y,2/3-x,2/3+z
7 2/3+x,1/3+y,1/3+z
8 2/3-y,1/3+x-y,1/3+z
9 2/3-x+y,1/3-x,1/3+z
10 -x,-y,-z
11 y,-x+y,-z
12 x-y,x,-z
13 2/3-x,1/3-y,1/3-z
14 2/3+y,1/3-x+y,1/3-z
15 2/3+x-y,1/3+x,1/3-z
16 1/3-x,2/3-y,2/3-z
17 1/3+y,2/3-x+y,2/3-z
18 1/3+x-y,2/3+x,2/3-z
_cell_length_a                   32.089(3)
_cell_length_b                   32.089(3)
_cell_length_c                   53.420(11)
_cell_angle_alpha                90
_cell_angle_beta                 90
_cell_angle_gamma                120
_cell_volume                     47637.3
loop_
_atom_site_label
_atom_site_type_symbol
_atom_site_fract_x
_atom_site_fract_y
_atom_site_fract_z
_atom_site_U_iso_or_equiv
_atom_site_thermal_displace_type
Mo1 Mo 0.86604(3) 0.17136(3) 0.054087(14) 0.0478 Uani
Mo2 Mo 0.53000(3) -0.03405(3) 0.112444(17) 0.0554 Uani
Mn1 Mn 0.88543(7) 0.34676(6) 0.05488(3) 0.0730 Uani
Mn2 Mn 0.78118(5) 0.00006(5) 0.01155(2) 0.0457 Uani
Mn3 Mn 0.71566(5) 0.10227(5) 0.11076(3) 0.0545 Uani
Mn4 Mn 0.56483(5) -0.12885(5) 0.17985(3) 0.0489 Uani
O1 O 0.8719(3) 0.4087(3) 0.0637(3) 0.1250 Uani
H1 H 0.8944 0.4339 0.0583 0.0300 Uiso
N1 N 0.7896(3) 0.0609(3) 0.03524(14) 0.0527 Uani
N2 N 0.7843(3) 0.1627(3) 0.09444(17) 0.0618 Uani
N3 N 0.8039(7) 0.1788(4) 0.0068(3) 0.1541 Uani
N4 N 0.8928(4) 0.2830(3) 0.04774(17) 0.0779 Uani
N5 N 0.9694(4) 0.2405(3) 0.08380(18) 0.0742 Uani
N6 N 0.9396(3) 0.1663(3) 0.01263(15) 0.0606 Uani
N7 N 0.8847(3) 0.0972(3) 0.09011(17) 0.0623 Uani
N8 N 0.6458(3) 0.0396(3) 0.12280(15) 0.0619 Uani
N9 N 0.5855(4) -0.0847(4) 0.0838(2) 0.0840 Uani
N10 N 0.5181(3) -0.1137(3) 0.15563(17) 0.0599 Uani
N11 N 0.4485(3) -0.1222(3) 0.07689(19) 0.0766 Uani
N12 N 0.4231(3) -0.0546(3) 0.12922(16) 0.0591 Uani
N13 N 0.5415(4) 0.0387(6) 0.1592(3) 0.1606 Uani
N14 N 0.5440(4) 0.0478(4) 0.0712(3) 0.1002 Uani
N15 N 0.8052(5) 0.2895(5) 0.0642(3) 0.1174 Uani
N16 N 0.8845(5) 0.3364(5) 0.0980(2) 0.1088 Uani
N17 N 0.9636(4) 0.3893(4) 0.0680(2) 0.0879 Uani
N18 N 0.9338(5) 0.3919(4) 0.0233(2) 0.0906 Uani
N19 N 0.8422(5) 0.3359(5) 0.0190(3) 0.1168 Uani
N20 N 0.7631(4) 0.0285(4) -0.02444(17) 0.0754 Uani
N21 N 0.8558(3) 0.0552(3) -0.00451(18) 0.0716 Uani
N22 N 0.8397(3) -0.0030(3) 0.03583(17) 0.0633 Uani
N23 N 0.7471(3) -0.0531(3) 0.04302(15) 0.0572 Uani
N24 N 0.7003(3) -0.0302(3) 0.01159(17) 0.0638 Uani
N25 N 0.6954(4) 0.1559(4) 0.1268(2) 0.0922 Uani
N26 N 0.7448(3) 0.1214(4) 0.14964(17) 0.0803 Uani
N27 N 0.7540(3) 0.0604(4) 0.1210(2) 0.0761 Uani
N28 N 0.7135(3) 0.0600(4) 0.07581(17) 0.0757 Uani
N29 N 0.6653(4) 0.1112(4) 0.0821(3) 0.0978 Uani
N30 N 0.5366(3) -0.2054(3) 0.16430(18) 0.0674 Uani
N31 N 0.6112(3) -0.1171(4) 0.14446(18) 0.0753 Uani
N32 N 0.6253(3) -0.0500(3) 0.17986(15) 0.0519 Uani
N33 N 0.5549(3) -0.0883(3) 0.21163(14) 0.0469 Uani
N34 N 0.5006(3) -0.1805(3) 0.20403(17) 0.0598 Uani
C1 C 0.8160(3) 0.0992(3) 0.04232(15) 0.0437 Uani
C2 C 0.8145(3) 0.1676(3) 0.08092(17) 0.0458 Uani
C3 C 0.8263(6) 0.1764(4) 0.0231(3) 0.0973 Uani
C4 C 0.8847(4) 0.2441(3) 0.04965(18) 0.0586 Uani
C5 C 0.9321(4) 0.2162(4) 0.0748(2) 0.0611 Uani
C6 C 0.9136(3) 0.1694(3) 0.02685(17) 0.0512 Uani
C7 C 0.8775(3) 0.1228(3) 0.07779(18) 0.0491 Uani
C8 C 0.6054(4) 0.0124(3) 0.11976(18) 0.0518 Uani
C9 C 0.5674(3) -0.0653(4) 0.0930(2) 0.0610 Uani
C10 C 0.5216(3) -0.0858(4) 0.1410(2) 0.0579 Uani
C11 C 0.4767(4) -0.0915(4) 0.0887(2) 0.0628 Uani
C12 C 0.4597(3) -0.0461(3) 0.12282(19) 0.0521 Uani
C13 C 0.5374(4) 0.0107(6) 0.1417(3) 0.0974 Uani
C14 C 0.5390(4) 0.0169(4) 0.0850(3) 0.0711 Uani
C15 C 0.7986(7) 0.2892(7) 0.0896(4) 0.1357 Uani
H2 H 0.7693 0.2598 0.0939 0.1100 Uiso
H3 H 0.7940 0.3160 0.0938 0.2100 Uiso
C16 C 0.8388(7) 0.2923(6) 0.1054(4) 0.1242 Uani
H4 H 0.8418 0.2640 0.1030 1.7000 Uiso
H5 H 0.8322 0.2941 0.1230 2.0000 Uiso
C17 C 0.9298(7) 0.3397(9) 0.1037(3) 0.1251 Uani
H6 H 0.9326 0.3384 0.1217 0.1700 Uiso
H7 H 0.9299 0.3118 0.0966 0.2000 Uiso
C18 C 0.9697(6) 0.3810(7) 0.0948(3) 0.1040 Uani
H8 H 0.9981 0.3779 0.0966 0.1000 Uiso
H9 H 0.9745 0.4084 0.1046 2.0000 Uiso
C19 C 0.9973(5) 0.4171(5) 0.0537(3) 0.0853 Uani
C20 C 1.0476(5) 0.4467(8) 0.0615(4) 0.1499 Uani
H10 H 1.0587 0.4798 0.0575 2.0000 Uiso
H11 H 1.0670 0.4362 0.0528 0.0900 Uiso
H12 H 1.0502 0.4434 0.0792 0.3100 Uiso
C21 C 0.9815(6) 0.4194(5) 0.0282(3) 0.0887 Uani
C22 C 1.0109(8) 0.4469(6) 0.0087(5) 0.1289 Uani
H13 H 1.0436 0.4671 0.0115 0.0700 Uiso
C23 C 0.9908(10) 0.4444(7) -0.0160(4) 0.1308 Uani
H14 H 1.0110 0.4621 -0.0291 0.0900 Uiso
C24 C 0.9421(9) 0.4161(7) -0.0201(4) 0.1204 Uani
H15 H 0.9280 0.4141 -0.0356 0.1300 Uiso
C25 C 0.9160(7) 0.3907(6) 0.0006(4) 0.1128 Uani
C26 C 0.8629(9) 0.3569(7) -0.0006(4) 0.1268 Uani
C27 C 0.8327(9) 0.3482(10) -0.0241(4) 0.1986 Uani
H16 H 0.8289 0.3202 -0.0326 0.1300 Uiso
H17 H 0.8486 0.3756 -0.0350 0.1800 Uiso
H18 H 0.8017 0.3434 -0.0196 2.0000 Uiso
C28 C 0.7891(8) 0.2998(8) 0.0216(5) 0.1791 Uani
H19 H 0.7703 0.3098 0.0117 0.2000 Uiso
H20 H 0.7824 0.2684 0.0157 0.1800 Uiso
C29 C 0.7764(7) 0.2971(11) 0.0480(5) 0.1828 Uani
H21 H 0.7775 0.3269 0.0526 2.0000 Uiso
H22 H 0.7435 0.2713 0.0501 0.1400 Uiso
C30 C 0.6812(4) -0.0122(4) -0.0076(2) 0.0734 Uani
H23 H 0.6568 -0.0064 -0.0005 0.0900 Uiso
H24 H 0.6663 -0.0361 -0.0208 0.0700 Uiso
C31 C 0.7214(5) 0.0339(5) -0.0185(2) 0.0844 Uani
H25 H 0.7102 0.0421 -0.0336 0.0900 Uiso
H26 H 0.7307 0.0599 -0.0066 0.1600 Uiso
C32 C 0.8059(6) 0.0699(5) -0.0332(3) 0.0986 Uani
H27 H 0.8119 0.0978 -0.0234 0.0800 Uiso
H28 H 0.8018 0.0761 -0.0505 0.1200 Uiso
C33 C 0.8491(6) 0.0615(5) -0.0309(3) 0.0999 Uani
H29 H 0.8429 0.0330 -0.0402 0.0800 Uiso
H30 H 0.8779 0.0888 -0.0376 0.1500 Uiso
C34 C 0.8891(4) 0.0389(5) -0.0002(3) 0.0888 Uani
H31 H 0.9211 0.0632 -0.0054 0.1800 Uiso
H32 H 0.8798 0.0098 -0.0097 0.1000 Uiso
C35 C 0.8885(4) 0.0290(5) 0.0277(2) 0.0860 Uani
H33 H 0.9082 0.0145 0.0310 0.0900 Uiso
H34 H 0.9019 0.0590 0.0369 2.0000 Uiso
C36 C 0.8283(5) -0.0268(5) 0.0554(2) 0.0796 Uani
C37 C 0.8617(7) -0.0290(7) 0.0749(3) 0.1143 Uani
H35 H 0.8608 -0.0592 0.0736 0.1600 Uiso
H36 H 0.8514 -0.0258 0.0913 0.4000 Uiso
H37 H 0.8939 -0.0032 0.0721 0.1400 Uiso
C38 C 0.7753(4) -0.0574(4) 0.06022(17) 0.0604 Uani
C39 C 0.7543(7) -0.0890(5) 0.0801(2) 0.0936 Uani
H38 H 0.7732 -0.0923 0.0922 0.1100 Uiso
C40 C 0.7031(7) -0.1161(5) 0.0815(3) 0.1007 Uani
H39 H 0.6882 -0.1374 0.0947 0.1800 Uiso
C41 C 0.6769(5) -0.1111(5) 0.0641(3) 0.0853 Uani
H40 H 0.6435 -0.1294 0.0647 0.1200 Uiso
C42 C 0.6996(4) -0.0778(4) 0.0444(2) 0.0650 Uani
C43 C 0.6736(4) -0.0667(4) 0.0252(2) 0.0642 Uani
C44 C 0.6198(4) -0.0964(5) 0.0231(3) 0.0923 Uani
H41 H 0.6112 -0.1065 0.0060 0.2200 Uiso
H42 H 0.6057 -0.0775 0.0282 0.1300 Uiso
H43 H 0.6083 -0.1242 0.0336 0.1900 Uiso
C45 C 0.6736(6) 0.0958(8) 0.0571(3) 0.1260 Uani
H44 H 0.6477 0.0905 0.0458 0.1100 Uiso
H45 H 0.7036 0.1209 0.0501 0.1100 Uiso
C46 C 0.6755(7) 0.0513(7) 0.0597(3) 0.1204 Uani
H46 H 0.6454 0.0260 0.0666 0.0800 Uiso
H47 H 0.6805 0.0410 0.0435 2.0000 Uiso
C47 C 0.7133(6) 0.0169(5) 0.0836(3) 0.1078 Uani
H48 H 0.7173 0.0010 0.0691 1.1000 Uiso
H49 H 0.6826 -0.0050 0.0913 0.0800 Uiso
C48 C 0.7544(5) 0.0293(5) 0.1024(3) 0.0951 Uani
H50 H 0.7502 0.0001 0.1101 0.1000 Uiso
H51 H 0.7851 0.0448 0.0937 0.0600 Uiso
C49 C 0.7765(4) 0.0702(6) 0.1423(3) 0.0912 Uani
C50 C 0.8079(6) 0.0504(9) 0.1513(4) 0.1300 Uani
H52 H 0.8018 0.0230 0.1413 0.1500 Uiso
H53 H 0.8007 0.0409 0.1685 0.3000 Uiso
H54 H 0.8411 0.0748 0.1498 2.0000 Uiso
C51 C 0.7707(4) 0.1042(5) 0.1588(2) 0.0803 Uani
C52 C 0.7910(4) 0.1186(6) 0.1841(3) 0.1076 Uani
H55 H 0.8112 0.1085 0.1909 0.0400 Uiso
C53 C 0.7787(5) 0.1473(7) 0.1966(3) 0.1087 Uani
H56 H 0.7896 0.1554 0.2130 0.1400 Uiso
C54 C 0.7512(5) 0.1654(7) 0.1870(3) 0.1089 Uani
H57 H 0.7450 0.1865 0.1961 0.0700 Uiso
C55 C 0.7334(4) 0.1505(5) 0.1634(2) 0.0824 Uani
C56 C 0.7024(5) 0.1640(6) 0.1495(3) 0.1008 Uani
C57 C 0.6821(10) 0.1902(12) 0.1665(6) 0.1889 Uani
H58 H 0.6949 0.2227 0.1609 0.2100 Uiso
H59 H 0.6915 0.1902 0.1836 2.0000 Uiso
H60 H 0.6476 0.1735 0.1654 2.0000 Uiso
C58 C 0.6650(6) 0.1669(6) 0.1107(4) 0.1079 Uani
H61 H 0.6315 0.1466 0.1154 2.0000 Uiso
H62 H 0.6734 0.2002 0.1132 0.1100 Uiso
C59 C 0.6711(6) 0.1592(7) 0.0849(4) 0.1300 Uani
H63 H 0.7029 0.1834 0.0793 0.2300 Uiso
H64 H 0.6474 0.1618 0.0748 0.1100 Uiso
C60 C 0.4917(3) -0.1654(4) 0.2245(2) 0.0586 Uani
C61 C 0.4554(5) -0.1959(5) 0.2437(2) 0.0839 Uani
H65 H 0.4400 -0.2290 0.2387 0.0900 Uiso
H66 H 0.4317 -0.1861 0.2453 0.0800 Uiso
H67 H 0.4711 -0.1921 0.2595 2.0000 Uiso
C62 C 0.5207(3) -0.1128(4) 0.22916(18) 0.0561 Uani
C63 C 0.5155(4) -0.0891(5) 0.2497(2) 0.0686 Uani
H68 H 0.4924 -0.1058 0.2619 0.0600 Uiso
C64 C 0.5448(5) -0.0412(5) 0.2512(2) 0.0788 Uani
H69 H 0.5415 -0.0247 0.2647 0.0600 Uiso
C65 C 0.5791(4) -0.0161(4) 0.2339(2) 0.0722 Uani
H70 H 0.5988 0.0171 0.2354 0.0800 Uiso
C66 C 0.5842(3) -0.0408(3) 0.21368(19) 0.0552 Uani
C67 C 0.6217(3) -0.0193(3) 0.19380(19) 0.0524 Uani
C68 C 0.6501(4) 0.0349(4) 0.1913(3) 0.0763 Uani
H71 H 0.6696 0.0485 0.2060 0.1700 Uiso
H72 H 0.6283 0.0471 0.1897 2.0000 Uiso
H73 H 0.6703 0.0436 0.1768 0.0500 Uiso
C69 C 0.6617(3) -0.0361(4) 0.16019(19) 0.0589 Uani
H74 H 0.6933 -0.0146 0.1670 0.0600 Uiso
H75 H 0.6555 -0.0191 0.1470 0.0400 Uiso
C70 C 0.6601(4) -0.0796(5) 0.1499(2) 0.0824 Uani
H76 H 0.6791 -0.0712 0.1347 0.1600 Uiso
H77 H 0.6742 -0.0916 0.1619 1.3000 Uiso
C71 C 0.6031(5) -0.1637(5) 0.1351(3) 0.0856 Uani
H78 H 0.6226 -0.1736 0.1445 0.1400 Uiso
H79 H 0.6125 -0.1607 0.1176 0.0500 Uiso
C72 C 0.5508(5) -0.2008(5) 0.1377(3) 0.0897 Uani
H80 H 0.5315 -0.1914 0.1279 0.1000 Uiso
H81 H 0.5453 -0.2316 0.1315 0.1100 Uiso
C73 C 0.4857(4) -0.2332(4) 0.1693(3) 0.0797 Uani
H82 H 0.4736 -0.2665 0.1645 0.0800 Uiso
H83 H 0.4689 -0.2208 0.1595 0.0900 Uiso
C74 C 0.4764(4) -0.2307(4) 0.1969(2) 0.0710 Uani
H84 H 0.4421 -0.2454 0.1999 0.0600 Uiso
H85 H 0.4886 -0.2478 0.2066 0.1200 Uiso
Mo1J Mo 1.17136(3) 0.30532(4) -0.054087(14) 0.0478 Uani
Mo1K Mo 0.69468(4) -0.13396(3) -0.054087(14) 0.0478 Uani
Mo2J Mo 0.96595(3) 0.43595(4) -0.112444(17) 0.0554 Uani
Mo2K Mo 0.56405(4) -0.47000(3) -0.112444(17) 0.0554 Uani
Mo2M Mo 0.63262(3) -0.23072(4) 0.220889(17) 0.0554 Uani
Mo2N Mo 0.23072(4) -0.13667(3) 0.220889(17) 0.0554 Uani
Mn1J Mn 1.34676(6) 0.46133(9) -0.05488(3) 0.0730 Uani
Mn1K Mn 0.53867(9) -0.11457(7) -0.05488(3) 0.0730 Uani
Mn2J Mn 1.00006(5) 0.21888(7) -0.01155(2) 0.0457 Uani
Mn2K Mn 0.78112(7) -0.21882(5) -0.01155(2) 0.0457 Uani
Mn2B Mn 1.21888(7) 0.21882(5) 0.01155(2) 0.0457 Uani
Mn3J Mn 1.10227(5) 0.38661(7) -0.11076(3) 0.0545 Uani
Mn3K Mn 0.61339(7) -0.28434(5) -0.11076(3) 0.0545 Uani
Mn4N Mn 0.36035(7) -0.10184(5) 0.15348(3) 0.0489 Uani
Mn4J Mn 0.87115(5) 0.30632(7) -0.17985(3) 0.0489 Uani
Mn4C Mn 0.89816(5) 0.53782(5) -0.15348(3) 0.0489 Uani
O1J O 1.4087(3) 0.5368(4) -0.0637(3) 0.1250 Uani
O1K O 0.4632(4) -0.1281(3) -0.0637(3) 0.1250 Uani
H1J H 1.4339 0.5395 -0.0583 0.0300 Uiso
H1K H 0.4605 -0.1056 -0.0583 0.0300 Uiso
N1J N 1.0609(3) 0.2713(4) -0.03524(14) 0.0527 Uani
N1K N 0.7287(4) -0.2104(3) -0.03524(14) 0.0527 Uani
N2J N 1.1627(3) 0.3784(4) -0.09444(17) 0.0618 Uani
N2K N 0.6216(4) -0.2157(3) -0.09444(17) 0.0618 Uani
N3J N 1.1788(4) 0.3749(8) -0.0068(3) 0.1541 Uani
N3K N 0.6251(8) -0.1961(7) -0.0068(3) 0.1541 Uani
N4J N 1.2830(3) 0.3902(5) -0.04774(17) 0.0779 Uani
N4K N 0.6098(5) -0.1072(4) -0.04774(17) 0.0779 Uani
N5J N 1.2405(3) 0.2711(5) -0.08380(18) 0.0742 Uani
N5K N 0.7289(5) -0.0306(4) -0.08380(18) 0.0742 Uani
N6K N 0.7733(4) -0.0604(3) -0.01263(15) 0.0606 Uani
N6J N 1.1663(3) 0.2267(4) -0.01263(15) 0.0606 Uani
N6A N 0.8337(3) -0.2267(4) 0.01263(15) 0.0606 Uani
N7J N 1.0972(3) 0.2125(4) -0.09011(17) 0.0623 Uani
N7K N 0.7875(4) -0.1153(3) -0.09011(17) 0.0623 Uani
N8J N 1.0396(3) 0.3938(4) -0.12280(15) 0.0619 Uani
N8K N 0.6062(4) -0.3542(3) -0.12280(15) 0.0619 Uani
N9J N 0.9153(4) 0.3298(6) -0.0838(2) 0.0840 Uani
N9K N 0.6702(6) -0.4145(4) -0.0838(2) 0.0840 Uani
N10N N 0.2985(4) -0.1486(3) 0.17770(17) 0.0599 Uani
N10J N 0.8863(3) 0.3682(4) -0.15563(17) 0.0599 Uani
N11J N 0.8778(3) 0.4293(4) -0.07689(19) 0.0766 Uani
N11K N 0.5707(4) -0.5515(3) -0.07689(19) 0.0766 Uani
N12M N 0.6121(3) -0.1444(4) 0.20411(16) 0.0591 Uani
N12J N 0.9454(3) 0.5223(4) -0.12922(16) 0.0591 Uani
N12E N 0.8556(4) 0.2436(3) -0.20411(16) 0.0591 Uani
N13J N 1.0387(6) 0.4972(7) -0.1592(3) 0.1606 Uani
N13K N 0.5028(7) -0.4585(4) -0.1592(3) 0.1606 Uani
N14J N 1.0478(4) 0.5038(6) -0.0712(3) 0.1002 Uani
N14K N 0.4962(6) -0.4560(4) -0.0712(3) 0.1002 Uani
N15J N 1.2895(5) 0.4843(7) -0.0642(3) 0.1174 Uani
N15K N 0.5157(7) -0.1948(5) -0.0642(3) 0.1174 Uani
N16J N 1.3364(5) 0.4519(7) -0.0980(2) 0.1088 Uani
N16K N 0.5481(7) -0.1155(5) -0.0980(2) 0.1088 Uani
N17J N 1.3893(4) 0.4257(6) -0.0680(2) 0.0879 Uani
N17K N 0.5743(6) -0.0364(4) -0.0680(2) 0.0879 Uani
N18J N 1.3919(4) 0.4581(6) -0.0233(2) 0.0906 Uani
N18K N 0.5419(6) -0.0662(5) -0.0233(2) 0.0906 Uani
N19J N 1.3359(5) 0.4937(7) -0.0190(3) 0.1168 Uani
N19K N 0.5063(7) -0.1578(5) -0.0190(3) 0.1168 Uani
N20J N 1.0285(4) 0.2654(6) 0.02444(17) 0.0754 Uani
N20K N 0.7346(6) -0.2369(4) 0.02444(17) 0.0754 Uani
N21J N 1.0552(3) 0.1994(4) 0.00451(18) 0.0716 Uani
N21K N 0.8006(4) -0.1442(3) 0.00451(18) 0.0716 Uani
N22J N 0.9970(3) 0.1573(4) -0.03583(17) 0.0633 Uani
N22K N 0.8427(4) -0.1603(3) -0.03583(17) 0.0633 Uani
N23J N 0.9469(3) 0.1998(4) -0.04302(15) 0.0572 Uani
N23K N 0.8002(4) -0.2529(3) -0.04302(15) 0.0572 Uani
N24J N 0.9698(3) 0.2695(4) -0.01159(17) 0.0638 Uani
N24K N 0.7305(4) -0.2997(3) -0.01159(17) 0.0638 Uani
N25J N 1.1559(4) 0.4605(6) -0.1268(2) 0.0922 Uani
N25K N 0.5395(6) -0.3046(4) -0.1268(2) 0.0922 Uani
N26J N 1.1214(4) 0.3766(5) -0.14964(17) 0.0803 Uani
N26K N 0.6234(5) -0.2552(3) -0.14964(17) 0.0803 Uani
N27J N 1.0604(4) 0.3064(5) -0.1210(2) 0.0761 Uani
N27K N 0.6936(5) -0.2460(3) -0.1210(2) 0.0761 Uani
N28J N 1.0600(4) 0.3465(5) -0.07581(17) 0.0757 Uani
N28K N 0.6535(5) -0.2865(3) -0.07581(17) 0.0757 Uani
N29J N 1.1112(4) 0.4459(6) -0.0821(3) 0.0978 Uani
N29K N 0.5541(6) -0.3347(4) -0.0821(3) 0.0978 Uani
N30N N 0.4087(4) -0.1301(3) 0.16903(18) 0.0674 Uani
N30J N 0.7946(3) 0.2580(4) -0.16430(18) 0.0674 Uani
N31N N 0.3950(5) -0.0555(3) 0.18887(18) 0.0753 Uani
N31J N 0.8829(4) 0.2717(5) -0.14446(18) 0.0753 Uani
N32N N 0.3420(4) -0.0414(3) 0.15347(15) 0.0519 Uani
N32J N 0.9500(3) 0.3247(4) -0.17986(15) 0.0519 Uani
N33N N 0.3099(4) -0.1118(3) 0.12170(14) 0.0469 Uani
N33J N 0.9117(3) 0.3568(4) -0.21163(14) 0.0469 Uani
N34N N 0.3478(4) -0.1661(3) 0.12930(17) 0.0598 Uani
N34J N 0.8195(3) 0.3189(4) -0.20403(17) 0.0598 Uani
C1J C 1.0992(3) 0.2832(4) -0.04232(15) 0.0437 Uani
C1K C 0.7168(4) -0.1840(3) -0.04232(15) 0.0437 Uani
C2J C 1.1676(3) 0.3531(4) -0.08092(17) 0.0458 Uani
C2K C 0.6469(4) -0.1855(3) -0.08092(17) 0.0458 Uani
C3J C 1.1764(4) 0.3501(7) -0.0231(3) 0.0973 Uani
C3K C 0.6499(7) -0.1737(6) -0.0231(3) 0.0973 Uani
C4J C 1.2441(3) 0.3594(5) -0.04965(18) 0.0586 Uani
C4K C 0.6406(5) -0.1153(4) -0.04965(18) 0.0586 Uani
C5J C 1.2162(4) 0.2841(6) -0.0748(2) 0.0611 Uani
C5K C 0.7159(6) -0.0679(4) -0.0748(2) 0.0611 Uani
C6K C 0.7442(4) -0.0864(3) -0.02685(17) 0.0512 Uani
C6J C 1.1694(3) 0.2558(4) -0.02685(17) 0.0512 Uani
C7J C 1.1228(3) 0.2453(4) -0.07779(18) 0.0491 Uani
C7K C 0.7547(4) -0.1225(3) -0.07779(18) 0.0491 Uani
C8J C 1.0124(3) 0.4070(5) -0.11976(18) 0.0518 Uani
C8K C 0.5930(5) -0.3946(4) -0.11976(18) 0.0518 Uani
C9J C 0.9347(4) 0.3673(5) -0.0930(2) 0.0610 Uani
C9K C 0.6327(5) -0.4326(3) -0.0930(2) 0.0610 Uani
C10N C 0.2741(5) -0.1451(3) 0.1923(2) 0.0579 Uani
C10J C 0.9142(4) 0.3926(5) -0.1410(2) 0.0579 Uani
C10K C 0.6074(5) -0.4784(3) -0.1410(2) 0.0579 Uani
C11J C 0.9085(4) 0.4318(6) -0.0887(2) 0.0628 Uani
C11K C 0.5682(6) -0.5233(4) -0.0887(2) 0.0628 Uani
C12M C 0.6206(3) -0.1725(4) 0.21051(19) 0.0521 Uani
C12J C 0.9539(3) 0.4942(4) -0.12282(19) 0.0521 Uani
C12K C 0.5058(4) -0.5403(3) -0.12282(19) 0.0521 Uani
C13J C 1.0107(6) 0.4733(7) -0.1417(3) 0.0974 Uani
C13K C 0.5267(7) -0.4626(4) -0.1417(3) 0.0974 Uani
C14J C 1.0169(4) 0.4779(6) -0.0850(3) 0.0711 Uani
C14K C 0.5221(6) -0.4610(4) -0.0850(3) 0.0711 Uani
C15J C 1.2892(7) 0.4906(10) -0.0896(4) 0.1357 Uani
C15K C 0.5094(10) -0.2014(7) -0.0896(4) 0.1357 Uani
H2J H 1.2598 0.4905 -0.0939 0.1100 Uiso
H2K H 0.5095 -0.2307 -0.0939 0.1100 Uiso
H3J H 1.3160 0.5220 -0.0938 0.2100 Uiso
H3K H 0.4780 -0.2060 -0.0938 0.2100 Uiso
C16J C 1.2923(6) 0.4535(9) -0.1054(4) 0.1242 Uani
C16K C 0.5465(9) -0.1612(7) -0.1054(4) 0.1242 Uani
H4J H 1.2640 0.4222 -0.1030 1.7000 Uiso
H4K H 0.5778 -0.1582 -0.1030 1.7000 Uiso
H5J H 1.2941 0.4619 -0.1230 2.0000 Uiso
H5K H 0.5381 -0.1678 -0.1230 2.0000 Uiso
C17J C 1.3397(9) 0.4099(11) -0.1037(3) 0.1251 Uani
C17K C 0.5901(11) -0.0702(7) -0.1037(3) 0.1251 Uani
H6J H 1.3384 0.4058 -0.1217 0.1700 Uiso
H6K H 0.5942 -0.0674 -0.1217 0.1700 Uiso
H7J H 1.3118 0.3819 -0.0966 0.2000 Uiso
H7K H 0.6181 -0.0701 -0.0966 0.2000 Uiso
C18J C 1.3810(7) 0.4113(9) -0.0948(3) 0.1040 Uani
C18K C 0.5887(9) -0.0303(6) -0.0948(3) 0.1040 Uani
H8J H 1.3779 0.3798 -0.0966 0.1000 Uiso
H8K H 0.6202 -0.0019 -0.0966 0.1000 Uiso
H9J H 1.4084 0.4339 -0.1046 2.0000 Uiso
H9K H 0.5661 -0.0255 -0.1046 2.0000 Uiso
C19J C 1.4171(5) 0.4198(7) -0.0537(3) 0.0853 Uani
C19K C 0.5802(7) -0.0027(5) -0.0537(3) 0.0853 Uani
C20J C 1.4467(8) 0.3991(9) -0.0615(4) 0.1499 Uani
C20K C 0.6009(9) 0.0476(5) -0.0615(4) 0.1499 Uani
H10J H 1.4798 0.4211 -0.0575 2.0000 Uiso
H10K H 0.5789 0.0587 -0.0575 2.0000 Uiso
H11J H 1.4362 0.3692 -0.0528 0.0900 Uiso
H11K H 0.6308 0.0670 -0.0528 0.0900 Uiso
H12J H 1.4434 0.3932 -0.0792 0.3100 Uiso
H12K H 0.6068 0.0502 -0.0792 0.3100 Uiso
C21J C 1.4194(5) 0.4379(8) -0.0282(3) 0.0887 Uani
C21K C 0.5621(8) -0.0185(6) -0.0282(3) 0.0887 Uani
C22J C 1.4469(6) 0.4360(10) -0.0087(5) 0.1289 Uani
C22K C 0.5640(10) 0.0109(8) -0.0087(5) 0.1289 Uani
H13J H 1.4671 0.4235 -0.0115 0.0700 Uiso
H13K H 0.5765 0.0436 -0.0115 0.0700 Uiso
C23J C 1.4444(7) 0.4536(12) 0.0160(4) 0.1308 Uani
C23K C 0.5464(12) -0.0092(10) 0.0160(4) 0.1308 Uani
H14J H 1.4621 0.4511 0.0291 0.0900 Uiso
H14K H 0.5489 0.0110 0.0291 0.0900 Uiso
C24J C 1.4161(7) 0.4740(11) 0.0201(4) 0.1204 Uani
C24K C 0.5260(11) -0.0579(9) 0.0201(4) 0.1204 Uani
H15J H 1.4141 0.4861 0.0356 0.1300 Uiso
H15K H 0.5139 -0.0720 0.0356 0.1300 Uiso
C25J C 1.3907(6) 0.4747(9) -0.0006(4) 0.1128 Uani
C25K C 0.5253(9) -0.0840(7) -0.0006(4) 0.1128 Uani
C26J C 1.3569(7) 0.4940(11) 0.0006(4) 0.1268 Uani
C26K C 0.5060(11) -0.1371(9) 0.0006(4) 0.1268 Uani
C27J C 1.3482(10) 0.5155(13) 0.0241(4) 0.1986 Uani
C27K C 0.4845(13) -0.1673(9) 0.0241(4) 0.1986 Uani
H16J H 1.3202 0.4913 0.0326 0.1300 Uiso
H16K H 0.5087 -0.1711 0.0326 0.1300 Uiso
H17J H 1.3756 0.5270 0.0350 0.1800 Uiso
H17K H 0.4730 -0.1514 0.0350 0.1800 Uiso
H18J H 1.3434 0.5417 0.0196 2.0000 Uiso
H18K H 0.4583 -0.1983 0.0196 2.0000 Uiso
C28J C 1.2998(8) 0.5107(11) -0.0216(5) 0.1791 Uani
C28K C 0.4893(11) -0.2109(8) -0.0216(5) 0.1791 Uani
H19J H 1.3098 0.5395 -0.0117 0.2000 Uiso
H19K H 0.4605 -0.2297 -0.0117 0.2000 Uiso
H20J H 1.2684 0.4860 -0.0157 0.1800 Uiso
H20K H 0.5140 -0.2176 -0.0157 0.1800 Uiso
C29J C 1.2971(11) 0.5207(13) -0.0480(5) 0.1828 Uani
C29K C 0.4793(13) -0.2236(7) -0.0480(5) 0.1828 Uani
H21J H 1.3269 0.5494 -0.0526 2.0000 Uiso
H21K H 0.4506 -0.2225 -0.0526 2.0000 Uiso
H22J H 1.2713 0.5278 -0.0501 0.1400 Uiso
H22K H 0.4722 -0.2565 -0.0501 0.1400 Uiso
C30J C 0.9878(4) 0.3066(6) 0.0076(2) 0.0734 Uani
C30K C 0.6934(6) -0.3188(4) 0.0076(2) 0.0734 Uani
H23J H 0.9936 0.3368 0.0005 0.0900 Uiso
H23K H 0.6632 -0.3432 0.0005 0.0900 Uiso
H24J H 0.9639 0.2976 0.0208 0.0700 Uiso
H24K H 0.7024 -0.3337 0.0208 0.0700 Uiso
C31J C 1.0339(5) 0.3125(7) 0.0185(2) 0.0844 Uani
C31K C 0.6875(7) -0.2786(5) 0.0185(2) 0.0844 Uani
H25J H 1.0421 0.3319 0.0336 0.0900 Uiso
H25K H 0.6681 -0.2898 0.0336 0.0900 Uiso
H26J H 1.0599 0.3292 0.0066 0.1600 Uiso
H26K H 0.6708 -0.2693 0.0066 0.1600 Uiso
C32J C 1.0699(5) 0.2640(8) 0.0332(3) 0.0986 Uani
C32K C 0.7360(8) -0.1941(6) 0.0332(3) 0.0986 Uani
H27J H 1.0978 0.2859 0.0234 0.0800 Uiso
H27K H 0.7141 -0.1881 0.0234 0.0800 Uiso
H28J H 1.0761 0.2743 0.0505 0.1200 Uiso
H28K H 0.7257 -0.1982 0.0505 0.1200 Uiso
C33J C 1.0615(5) 0.2124(8) 0.0309(3) 0.0999 Uani
C33K C 0.7876(8) -0.1509(6) 0.0309(3) 0.0999 Uani
H29J H 1.0330 0.1901 0.0402 0.0800 Uiso
H29K H 0.8099 -0.1571 0.0402 0.0800 Uiso
H30J H 1.0888 0.2109 0.0376 0.1500 Uiso
H30K H 0.7891 -0.1221 0.0376 0.1500 Uiso
C34J C 1.0389(5) 0.1498(6) 0.0002(3) 0.0888 Uani
C34K C 0.8502(6) -0.1109(4) 0.0002(3) 0.0888 Uani
H31J H 1.0632 0.1421 0.0054 0.1800 Uiso
H31K H 0.8579 -0.0789 0.0054 0.1800 Uiso
H32J H 1.0098 0.1300 0.0097 0.1000 Uiso
H32K H 0.8700 -0.1202 0.0097 0.1000 Uiso
C35J C 1.0290(5) 0.1405(6) -0.0277(2) 0.0860 Uani
C35K C 0.8595(6) -0.1115(4) -0.0277(2) 0.0860 Uani
H33J H 1.0145 0.1063 -0.0310 0.0900 Uiso
H33K H 0.8937 -0.0918 -0.0310 0.0900 Uiso
H34J H 1.0590 0.1571 -0.0369 2.0000 Uiso
H34K H 0.8429 -0.0981 -0.0369 2.0000 Uiso
C36J C 0.9732(5) 0.1449(7) -0.0554(2) 0.0796 Uani
C36K C 0.8551(7) -0.1717(5) -0.0554(2) 0.0796 Uani
C37J C 0.9710(7) 0.1093(10) -0.0749(3) 0.1143 Uani
C37K C 0.8907(10) -0.1383(7) -0.0749(3) 0.1143 Uani
H35J H 0.9408 0.0800 -0.0736 0.1600 Uiso
H35K H 0.9200 -0.1392 -0.0736 0.1600 Uiso
H36J H 0.9742 0.1228 -0.0913 0.4000 Uiso
H36K H 0.8772 -0.1486 -0.0913 0.4000 Uiso
H37J H 0.9968 0.1029 -0.0721 0.1400 Uiso
H37K H 0.8971 -0.1061 -0.0721 0.1400 Uiso
C38J C 0.9426(4) 0.1673(6) -0.06022(17) 0.0604 Uani
C38K C 0.8327(6) -0.2247(4) -0.06022(17) 0.0604 Uani
C39J C 0.9110(5) 0.1567(9) -0.0801(2) 0.0936 Uani
C39K C 0.8433(9) -0.2457(7) -0.0801(2) 0.0936 Uani
H38J H 0.9077 0.1345 -0.0922 0.1100 Uiso
H38K H 0.8655 -0.2268 -0.0922 0.1100 Uiso
C40J C 0.8839(5) 0.1808(9) -0.0815(3) 0.1007 Uani
C40K C 0.8192(9) -0.2969(7) -0.0815(3) 0.1007 Uani
H39J H 0.8626 0.1744 -0.0947 0.1800 Uiso
H39K H 0.8256 -0.3118 -0.0947 0.1800 Uiso
C41J C 0.8889(5) 0.2120(7) -0.0641(3) 0.0853 Uani
C41K C 0.7880(7) -0.3231(5) -0.0641(3) 0.0853 Uani
H40J H 0.8706 0.2271 -0.0647 0.1200 Uiso
H40K H 0.7729 -0.3565 -0.0647 0.1200 Uiso
C42J C 0.9222(4) 0.2226(6) -0.0444(2) 0.0650 Uani
C42K C 0.7774(6) -0.3004(4) -0.0444(2) 0.0650 Uani
C43J C 0.9333(4) 0.2597(6) -0.0252(2) 0.0642 Uani
C43K C 0.7403(6) -0.3264(4) -0.0252(2) 0.0642 Uani
C44J C 0.9036(5) 0.2838(6) -0.0231(3) 0.0923 Uani
C44K C 0.7162(6) -0.3802(4) -0.0231(3) 0.0923 Uani
H41J H 0.8935 0.2823 -0.0060 0.2200 Uiso
H41K H 0.7177 -0.3888 -0.0060 0.2200 Uiso
H42J H 0.9225 0.3168 -0.0282 0.1300 Uiso
H42K H 0.6832 -0.3943 -0.0282 0.1300 Uiso
H43J H 0.8758 0.2675 -0.0336 0.1900 Uiso
H43K H 0.7325 -0.3917 -0.0336 0.1900 Uiso
C45J C 1.0958(8) 0.4222(10) -0.0571(3) 0.1260 Uani
C45K C 0.5778(10) -0.3264(6) -0.0571(3) 0.1260 Uani
H44J H 1.0905 0.4428 -0.0458 0.1100 Uiso
H44K H 0.5572 -0.3523 -0.0458 0.1100 Uiso
H45J H 1.1209 0.4173 -0.0501 0.1100 Uiso
H45K H 0.5827 -0.2964 -0.0501 0.1100 Uiso
C46J C 1.0513(7) 0.3758(10) -0.0597(3) 0.1204 Uani
C46K C 0.6242(10) -0.3245(7) -0.0597(3) 0.1204 Uani
H46J H 1.0260 0.3806 -0.0666 0.0800 Uiso
H46K H 0.6194 -0.3546 -0.0666 0.0800 Uiso
H47J H 1.0410 0.3605 -0.0435 2.0000 Uiso
H47K H 0.6395 -0.3195 -0.0435 2.0000 Uiso
C47J C 1.0169(5) 0.3036(8) -0.0836(3) 0.1078 Uani
C47K C 0.6964(8) -0.2867(6) -0.0836(3) 0.1078 Uani
H48J H 1.0010 0.2837 -0.0691 1.1000 Uiso
H48K H 0.7163 -0.2827 -0.0691 1.1000 Uiso
H49J H 0.9950 0.3124 -0.0913 0.0800 Uiso
H49K H 0.6876 -0.3174 -0.0913 0.0800 Uiso
C48J C 1.0293(5) 0.2749(7) -0.1024(3) 0.0951 Uani
C48K C 0.7251(7) -0.2456(5) -0.1024(3) 0.0951 Uani
H50J H 1.0001 0.2499 -0.1101 0.1000 Uiso
H50K H 0.7501 -0.2498 -0.1101 0.1000 Uiso
H51J H 1.0448 0.2597 -0.0937 0.0600 Uiso
H51K H 0.7403 -0.2149 -0.0937 0.0600 Uiso
C49J C 1.0702(6) 0.2937(7) -0.1423(3) 0.0912 Uani
C49K C 0.7063(7) -0.2235(4) -0.1423(3) 0.0912 Uani
C50J C 1.0504(9) 0.2425(11) -0.1513(4) 0.1300 Uani
C50K C 0.7575(11) -0.1921(6) -0.1513(4) 0.1300 Uani
H52J H 1.0230 0.2212 -0.1413 0.1500 Uiso
H52K H 0.7788 -0.1982 -0.1413 0.1500 Uiso
H53J H 1.0409 0.2402 -0.1685 0.3000 Uiso
H53K H 0.7598 -0.1993 -0.1685 0.3000 Uiso
H54J H 1.0748 0.2337 -0.1498 2.0000 Uiso
H54K H 0.7663 -0.1589 -0.1498 2.0000 Uiso
C51J C 1.1042(5) 0.3335(6) -0.1588(2) 0.0803 Uani
C51K C 0.6665(6) -0.2293(4) -0.1588(2) 0.0803 Uani
C52J C 1.1186(6) 0.3276(7) -0.1841(3) 0.1076 Uani
C52K C 0.6724(7) -0.2090(4) -0.1841(3) 0.1076 Uani
H55J H 1.1085 0.2973 -0.1909 0.0400 Uiso
H55K H 0.7027 -0.1888 -0.1909 0.0400 Uiso
C53J C 1.1473(7) 0.3686(9) -0.1966(3) 0.1087 Uani
C53K C 0.6314(9) -0.2213(5) -0.1966(3) 0.1087 Uani
H56J H 1.1554 0.3658 -0.2130 0.1400 Uiso
H56K H 0.6342 -0.2104 -0.2130 0.1400 Uiso
C54J C 1.1654(7) 0.4142(9) -0.1870(3) 0.1089 Uani
C54K C 0.5858(9) -0.2488(5) -0.1870(3) 0.1089 Uani
H57J H 1.1865 0.4415 -0.1961 0.0700 Uiso
H57K H 0.5585 -0.2550 -0.1961 0.0700 Uiso
C55J C 1.1505(5) 0.4171(6) -0.1634(2) 0.0824 Uani
C55K C 0.5829(6) -0.2666(4) -0.1634(2) 0.0824 Uani
C56J C 1.1640(6) 0.4616(8) -0.1495(3) 0.1008 Uani
C56K C 0.5384(8) -0.2976(5) -0.1495(3) 0.1008 Uani
C57J C 1.1902(12) 0.5081(16) -0.1665(6) 0.1889 Uani
C57K C 0.4919(16) -0.3179(10) -0.1665(6) 0.1889 Uani
H58J H 1.2227 0.5278 -0.1609 0.2100 Uiso
H58K H 0.4722 -0.3051 -0.1609 0.2100 Uiso
H59J H 1.1902 0.4987 -0.1836 2.0000 Uiso
H59K H 0.5013 -0.3085 -0.1836 2.0000 Uiso
H60J H 1.1735 0.5259 -0.1654 2.0000 Uiso
H60K H 0.4741 -0.3524 -0.1654 2.0000 Uiso
C58J C 1.1669(6) 0.5019(8) -0.1107(4) 0.1079 Uani
C58K C 0.4981(8) -0.3350(6) -0.1107(4) 0.1079 Uani
H61J H 1.1466 0.5151 -0.1154 2.0000 Uiso
H61K H 0.4849 -0.3685 -0.1154 2.0000 Uiso
H62J H 1.2002 0.5268 -0.1132 0.1100 Uiso
H62K H 0.4732 -0.3266 -0.1132 0.1100 Uiso
C59J C 1.1592(7) 0.4881(9) -0.0849(4) 0.1300 Uani
C59K C 0.5119(9) -0.3289(6) -0.0849(4) 0.1300 Uani
H63J H 1.1834 0.4805 -0.0793 0.2300 Uiso
H63K H 0.5195 -0.2971 -0.0793 0.2300 Uiso
H64J H 1.1618 0.5144 -0.0748 0.1100 Uiso
H64K H 0.4856 -0.3526 -0.0748 0.1100 Uiso
C60N C 0.3238(5) -0.1750(3) 0.1088(2) 0.0586 Uani
C60J C 0.8346(4) 0.3429(5) -0.2245(2) 0.0586 Uani
C61N C 0.3180(7) -0.2113(5) 0.0896(2) 0.0839 Uani
C61J C 0.8041(5) 0.3487(7) -0.2437(2) 0.0839 Uani
H65N H 0.3357 -0.2267 0.0946 0.0900 Uiso
H65J H 0.7710 0.3310 -0.2387 0.0900 Uiso
H66N H 0.2845 -0.2350 0.0880 0.0800 Uiso
H66J H 0.8139 0.3822 -0.2453 0.0800 Uiso
H67N H 0.3299 -0.1956 0.0738 2.0000 Uiso
H67J H 0.8079 0.3368 -0.2595 2.0000 Uiso
C62N C 0.3002(5) -0.1460(3) 0.10417(18) 0.0561 Uani
C62J C 0.8872(4) 0.3665(5) -0.22916(18) 0.0561 Uani
C63N C 0.2713(6) -0.1512(4) 0.0836(2) 0.0686 Uani
C63J C 0.9109(5) 0.3954(6) -0.2497(2) 0.0686 Uani
H68N H 0.2649 -0.1743 0.0714 0.0600 Uiso
H68J H 0.8942 0.4018 -0.2619 0.0600 Uiso
C64N C 0.2527(7) -0.1219(5) 0.0821(2) 0.0788 Uani
C64J C 0.9588(5) 0.4140(7) -0.2512(2) 0.0788 Uani
H69N H 0.2329 -0.1252 0.0686 0.0600 Uiso
H69J H 0.9753 0.4338 -0.2647 0.0600 Uiso
C65N C 0.2619(6) -0.0876(4) 0.0994(2) 0.0722 Uani
C65J C 0.9839(4) 0.4048(6) -0.2339(2) 0.0722 Uani
H70N H 0.2484 -0.0679 0.0979 0.0800 Uiso
H70J H 1.0171 0.4183 -0.2354 0.0800 Uiso
C66N C 0.2917(4) -0.0825(3) 0.11965(19) 0.0552 Uani
C66J C 0.9592(3) 0.3750(4) -0.21368(19) 0.0552 Uani
C67N C 0.3077(4) -0.0450(3) 0.13953(19) 0.0524 Uani
C67J C 0.9807(3) 0.3590(4) -0.19380(19) 0.0524 Uani
C68N C 0.2819(6) -0.0166(4) 0.1420(3) 0.0763 Uani
C68J C 1.0349(4) 0.3848(6) -0.1913(3) 0.0763 Uani
H71N H 0.2878 0.0029 0.1273 0.1700 Uiso
H71J H 1.0485 0.3789 -0.2060 0.1700 Uiso
H72N H 0.2479 -0.0384 0.1436 2.0000 Uiso
H72J H 1.0471 0.4188 -0.1897 2.0000 Uiso
H73N H 0.2934 0.0036 0.1565 0.0500 Uiso
H73J H 1.0436 0.3733 -0.1768 0.0500 Uiso
C69N C 0.3645(5) -0.0050(3) 0.17314(19) 0.0589 Uani
C69J C 0.9639(4) 0.3022(5) -0.16019(19) 0.0589 Uani
H74N H 0.3746 0.0266 0.1663 0.0600 Uiso
H74J H 0.9854 0.2921 -0.1670 0.0600 Uiso
H75N H 0.3413 -0.0112 0.1863 0.0400 Uiso
H75J H 0.9809 0.3254 -0.1470 0.0400 Uiso
C70N C 0.4064(6) -0.0066(4) 0.1834(2) 0.0824 Uani
C70J C 0.9204(5) 0.2603(6) -0.1499(2) 0.0824 Uani
H76N H 0.4170 0.0124 0.1986 0.1600 Uiso
H76J H 0.9288 0.2497 -0.1347 0.1600 Uiso
H77N H 0.4325 0.0075 0.1714 1.3000 Uiso
H77J H 0.9084 0.2342 -0.1619 1.3000 Uiso
C71N C 0.4335(7) -0.0636(5) 0.1982(3) 0.0856 Uani
C71J C 0.8363(5) 0.2332(7) -0.1351(3) 0.0856 Uani
H78N H 0.4629 -0.0441 0.1888 0.1400 Uiso
H78J H 0.8264 0.2038 -0.1445 0.1400 Uiso
H79N H 0.4399 -0.0542 0.2157 0.0500 Uiso
H79J H 0.8393 0.2268 -0.1176 0.0500 Uiso
C72N C 0.4183(7) -0.1159(5) 0.1956(3) 0.0897 Uani
C72J C 0.7992(5) 0.2484(7) -0.1377(3) 0.0897 Uani
H80N H 0.3896 -0.1352 0.2054 0.1000 Uiso
H80J H 0.8086 0.2771 -0.1279 0.1000 Uiso
H81N H 0.4436 -0.1214 0.2018 0.1100 Uiso
H81J H 0.7684 0.2231 -0.1315 0.1100 Uiso
C73N C 0.3856(6) -0.1810(4) 0.1640(3) 0.0797 Uani
C73J C 0.7668(4) 0.2811(6) -0.1693(3) 0.0797 Uani
H82N H 0.4068 -0.1931 0.1688 0.0800 Uiso
H82J H 0.7335 0.2599 -0.1645 0.0800 Uiso
H83N H 0.3564 -0.1978 0.1738 0.0900 Uiso
H83J H 0.7792 0.3103 -0.1595 0.0900 Uiso
C74N C 0.3738(6) -0.1903(4) 0.1364(2) 0.0710 Uani
C74J C 0.7693(4) 0.2929(6) -0.1969(2) 0.0710 Uani
H84N H 0.3542 -0.2246 0.1334 0.0600 Uiso
H84J H 0.7546 0.3125 -0.1999 0.0600 Uiso
H85N H 0.4031 -0.1781 0.1267 0.1200 Uiso
H85J H 0.7522 0.2636 -0.2066 0.1200 Uiso
O2 O 0.9054(3) 0.0460(3) 0.12797(14) 0.0739 Uani
O3 O 0.5429(3) 0.8147(3) 0.07483(17) 0.0940 Uani
H86 H 0.5229 0.8347 0.0728 2.0000 Uiso
O4 O 0.7714(3) 0.8719(4) 0.13433(15) 0.0982 Uani
O5 O 0.8640(3) 0.9499(3) 0.14345(17) 0.0916 Uani
O6 O 0.9862(3) 0.1220(4) 0.07672(17) 0.0942 Uani
O7 O 0.9217(3) 0.9230(3) 0.1161(2) 0.1006 Uani
O8 O 0.5567(4) 0.7730(3) 0.03192(16) 0.1081 Uani
O9 O -0.0000 -0.0000 0.0947(4) 0.1244 Uani
O10 O 0.4470(4) 0.7869(3) 0.0844(2) 0.1173 Uani
O11 O 0.7848(4) 0.8235(4) 0.0961(2) 0.1247 Uani
O12 O 0.7709(7) 0.9029(6) 0.2100(2) 0.0816 Uani
O13 O 0.4604(7) 0.6121(5) 0.0333(3) 0.0894 Uani
O14 O 0.8667(8) 0.9564(5) 0.1955(3) 0.1036 Uani
O15 O 0.4640(8) 0.6954(5) 0.0222(3) 0.1093 Uani
O16 O 0.9446(8) 0.9479(8) 0.0472(5) 0.0547 Uani
O17 O 0.3940(8) 0.7155(7) 0.1208(5) 0.0483 Uani
O18 O 0.8808(11) 0.4721(11) 0.0174(5) 0.0672 Uani
loop_
_atom_site_aniso_label
_atom_site_aniso_U_11
_atom_site_aniso_U_22
_atom_site_aniso_U_33
_atom_site_aniso_U_23
_atom_site_aniso_U_13
_atom_site_aniso_U_12
Mo1 0.0542(5) 0.0402(5) 0.0466(5) -0.0019(3) 0.0091(4) 0.0217(4)
Mo2 0.0369(5) 0.0489(5) 0.0757(6) -0.0112(4) 0.0030(4) 0.0180(4)
Mn1 0.0839(12) 0.0560(10) 0.0888(12) -0.0334(9) -0.0304(10) 0.0423(9)
Mn2 0.0503(8) 0.0452(8) 0.0407(7) -0.0042(6) -0.0054(6) 0.0231(7)
Mn3 0.0363(8) 0.0630(9) 0.0563(9) -0.0109(7) 0.0029(6) 0.0189(7)
Mn4 0.0480(8) 0.0404(8) 0.0608(9) 0.0016(6) 0.0081(7) 0.0240(7)
O1 0.059(5) 0.055(5) 0.259(14) -0.051(7) -0.028(7) 0.027(5)
N1 0.055(5) 0.053(5) 0.046(4) -0.006(4) 0.000(4) 0.024(4)
N2 0.045(5) 0.056(5) 0.080(6) -0.012(4) 0.009(4) 0.022(4)
N3 0.250(19) 0.074(8) 0.133(11) -0.004(8) -0.096(12) 0.077(10)
N4 0.115(8) 0.060(6) 0.063(6) -0.006(4) 0.007(5) 0.047(6)
N5 0.069(6) 0.065(6) 0.076(6) -0.016(5) -0.004(5) 0.024(5)
N6 0.065(5) 0.055(5) 0.051(5) 0.001(4) 0.016(4) 0.022(4)
N7 0.053(5) 0.050(5) 0.083(6) 0.004(5) 0.001(4) 0.025(4)
N8 0.032(5) 0.084(6) 0.059(5) 0.000(4) -0.001(4) 0.021(5)
N9 0.067(6) 0.070(6) 0.116(8) -0.010(6) 0.026(6) 0.035(5)
N10 0.053(5) 0.063(6) 0.069(6) -0.003(5) 0.002(4) 0.033(5)
N11 0.059(6) 0.064(6) 0.095(7) -0.036(5) -0.013(5) 0.022(5)
N12 0.040(5) 0.056(5) 0.080(6) -0.003(4) 0.000(4) 0.023(4)
N13 0.061(7) 0.186(15) 0.211(16) -0.146(13) -0.019(8) 0.044(8)
N14 0.060(6) 0.069(7) 0.170(12) 0.002(7) -0.023(7) 0.031(6)
N15 0.102(9) 0.108(10) 0.115(10) -0.049(8) -0.040(8) 0.032(8)
N16 0.110(10) 0.136(11) 0.077(7) -0.030(7) -0.017(7) 0.059(9)
N17 0.078(7) 0.082(7) 0.121(10) -0.055(7) -0.040(7) 0.053(7)
N18 0.138(11) 0.064(6) 0.093(8) -0.024(6) -0.033(7) 0.068(7)
N19 0.139(12) 0.077(8) 0.133(12) -0.044(8) -0.085(10) 0.053(8)
N20 0.098(7) 0.080(7) 0.061(5) 0.015(5) 0.001(5) 0.054(6)
N21 0.057(5) 0.069(6) 0.080(7) -0.014(5) 0.006(5) 0.025(5)
N22 0.072(6) 0.076(6) 0.058(5) -0.017(5) -0.016(5) 0.049(5)
N23 0.069(6) 0.051(5) 0.061(5) -0.003(4) 0.001(4) 0.037(5)
N24 0.056(5) 0.056(5) 0.082(6) -0.011(5) -0.012(5) 0.030(5)
N25 0.058(6) 0.095(8) 0.110(9) -0.037(7) 0.004(6) 0.028(6)
N26 0.036(5) 0.117(8) 0.061(6) -0.023(5) 0.005(4) 0.018(5)
N27 0.048(5) 0.092(7) 0.091(7) 0.026(6) 0.023(5) 0.037(5)
N28 0.063(6) 0.073(7) 0.063(6) -0.019(5) 0.007(5) 0.013(5)
N29 0.059(6) 0.088(8) 0.128(10) 0.007(7) -0.022(6) 0.023(6)
N30 0.062(6) 0.054(5) 0.085(6) -0.011(4) 0.003(5) 0.028(5)
N31 0.061(6) 0.077(6) 0.086(6) -0.013(5) 0.019(5) 0.033(5)
N32 0.042(4) 0.055(5) 0.065(5) 0.008(4) 0.000(4) 0.029(4)
N33 0.048(4) 0.046(5) 0.054(4) 0.003(4) 0.001(4) 0.029(4)
N34 0.057(5) 0.046(5) 0.074(6) 0.009(4) 0.002(4) 0.024(4)
C1 0.048(5) 0.050(6) 0.035(5) 0.001(4) 0.006(4) 0.026(5)
C2 0.041(5) 0.041(5) 0.052(5) -0.007(4) 0.000(4) 0.018(4)
C3 0.148(13) 0.061(7) 0.084(9) 0.003(6) -0.046(9) 0.053(8)
C4 0.082(7) 0.035(5) 0.061(6) -0.006(4) 0.014(5) 0.031(5)
C5 0.068(7) 0.050(6) 0.062(6) -0.006(5) 0.003(6) 0.027(6)
C6 0.054(6) 0.040(5) 0.047(5) 0.001(4) 0.009(5) 0.014(4)
C7 0.042(5) 0.051(6) 0.054(6) -0.001(5) 0.008(4) 0.023(5)
C8 0.050(6) 0.050(5) 0.058(6) 0.005(4) 0.007(5) 0.027(5)
C9 0.041(5) 0.048(6) 0.083(7) -0.001(5) 0.016(5) 0.014(5)
C10 0.033(5) 0.059(6) 0.075(7) -0.022(6) 0.001(5) 0.018(5)
C11 0.060(7) 0.062(7) 0.071(7) -0.009(6) 0.006(6) 0.034(6)
C12 0.038(6) 0.039(5) 0.075(7) -0.012(4) -0.006(5) 0.016(4)
C13 0.046(6) 0.105(8) 0.135(9) 0.004(7) 0.001(6) 0.033(6)
C14 0.055(6) 0.048(6) 0.120(10) 0.003(6) -0.007(6) 0.033(5)
C15 0.095(13) 0.117(14) 0.163(19) -0.056(13) 0.006(12) 0.029(11)
C16 0.113(13) 0.100(12) 0.134(14) -0.039(10) -0.009(11) 0.034(11)
C17 0.128(16) 0.155(18) 0.098(13) -0.031(12) -0.044(11) 0.075(15)
C18 0.088(10) 0.151(15) 0.084(10) -0.050(10) -0.048(8) 0.068(11)
C19 0.072(9) 0.082(9) 0.112(11) -0.045(8) -0.013(8) 0.046(8)
C20 0.073(10) 0.22(2) 0.159(18) -0.087(16) -0.001(10) 0.075(13)
C21 0.107(11) 0.056(8) 0.118(12) -0.019(8) 0.004(10) 0.052(8)
C22 0.119(15) 0.069(10) 0.20(2) -0.019(12) 0.022(15) 0.048(11)
C23 0.21(3) 0.085(12) 0.119(15) 0.008(12) 0.008(17) 0.090(16)
C24 0.171(19) 0.077(11) 0.120(15) 0.010(10) -0.022(15) 0.067(13)
C25 0.148(16) 0.073(10) 0.137(15) -0.029(10) -0.056(13) 0.070(11)
C26 0.20(2) 0.096(12) 0.099(12) -0.012(10) -0.072(13) 0.085(14)
C27 0.23(3) 0.133(18) 0.157(18) -0.002(18) -0.122(19) 0.034(19)
C28 0.17(2) 0.132(17) 0.22(3) -0.056(18) -0.13(2) 0.064(16)
C29 0.080(13) 0.28(3) 0.151(19) -0.03(2) -0.047(13) 0.062(16)
C30 0.071(7) 0.066(7) 0.095(9) -0.019(7) -0.029(7) 0.043(6)
C31 0.121(11) 0.085(9) 0.076(8) -0.008(7) -0.039(8) 0.073(9)
C32 0.154(14) 0.088(10) 0.069(8) 0.021(7) 0.025(8) 0.072(10)
C33 0.134(13) 0.078(9) 0.085(9) 0.024(7) 0.054(9) 0.051(9)
C34 0.057(7) 0.093(9) 0.105(10) -0.027(8) 0.004(7) 0.029(7)
C35 0.056(7) 0.102(10) 0.098(10) -0.047(8) -0.023(6) 0.038(7)
C36 0.105(10) 0.098(9) 0.072(8) -0.042(7) -0.040(7) 0.078(9)
C37 0.153(17) 0.137(14) 0.111(12) -0.056(10) -0.080(11) 0.116(15)
C38 0.098(9) 0.076(7) 0.040(5) -0.002(5) -0.002(5) 0.068(7)
C39 0.190(17) 0.118(11) 0.042(6) 0.005(7) 0.010(8) 0.129(13)
C40 0.156(16) 0.099(10) 0.082(10) 0.029(8) 0.064(10) 0.090(12)
C41 0.093(10) 0.073(8) 0.104(10) 0.029(7) 0.047(8) 0.052(8)
C42 0.072(8) 0.054(6) 0.075(7) 0.005(5) 0.019(6) 0.036(6)
C43 0.056(6) 0.056(6) 0.082(7) -0.009(6) 0.009(6) 0.029(6)
C44 0.052(7) 0.090(10) 0.125(12) -0.008(9) 0.003(7) 0.028(7)
C45 0.082(11) 0.162(18) 0.074(10) 0.004(11) -0.023(8) 0.016(11)
C46 0.117(14) 0.107(13) 0.072(9) -0.006(9) -0.004(9) 0.007(11)
C47 0.099(11) 0.052(8) 0.122(12) -0.025(8) 0.059(10) 0.000(7)
C48 0.070(9) 0.067(8) 0.140(13) 0.014(9) 0.050(9) 0.028(7)
C49 0.033(6) 0.130(12) 0.111(11) 0.055(9) 0.026(7) 0.041(7)
C50 0.098(12) 0.20(2) 0.138(15) 0.050(16) 0.021(11) 0.109(14)
C51 0.037(6) 0.120(11) 0.065(7) 0.024(7) 0.016(5) 0.025(7)
C52 0.039(7) 0.138(14) 0.096(11) 0.011(10) 0.003(7) 0.007(8)
C53 0.064(9) 0.169(16) 0.058(8) -0.019(9) 0.013(7) 0.032(10)
C54 0.053(8) 0.155(15) 0.092(10) -0.035(10) 0.008(7) 0.032(9)
C55 0.054(7) 0.097(9) 0.062(7) -0.033(7) 0.009(6) 0.012(6)
C56 0.052(7) 0.118(12) 0.113(12) -0.017(10) 0.002(8) 0.028(8)
C57 0.16(2) 0.23(3) 0.22(3) -0.07(2) 0.052(19) 0.13(2)
C58 0.091(11) 0.104(12) 0.141(15) -0.016(11) -0.027(10) 0.058(9)
C59 0.085(12) 0.103(13) 0.19(2) 0.004(13) -0.053(12) 0.038(10)
C60 0.047(6) 0.060(6) 0.077(7) 0.018(5) 0.005(5) 0.033(5)
C61 0.080(8) 0.086(10) 0.093(9) 0.026(7) 0.028(7) 0.047(8)
C62 0.053(6) 0.072(7) 0.059(6) 0.009(5) 0.003(5) 0.043(5)
C63 0.054(6) 0.099(9) 0.063(7) -0.007(6) 0.009(5) 0.046(7)
C64 0.080(8) 0.097(10) 0.079(8) -0.024(7) 0.001(7) 0.059(8)
C65 0.067(7) 0.067(8) 0.090(8) -0.028(6) -0.008(6) 0.039(6)
C66 0.049(6) 0.054(6) 0.071(7) -0.004(5) -0.007(5) 0.032(5)
C67 0.044(5) 0.038(5) 0.068(6) -0.002(5) -0.005(5) 0.015(4)
C68 0.076(8) 0.051(6) 0.085(8) -0.005(6) -0.002(7) 0.019(6)
C69 0.041(6) 0.067(7) 0.066(6) 0.013(5) 0.006(5) 0.025(5)
C70 0.071(8) 0.093(9) 0.086(8) 0.010(7) 0.034(7) 0.043(7)
C71 0.090(9) 0.083(9) 0.094(9) -0.009(7) 0.018(8) 0.051(8)
C72 0.094(10) 0.082(9) 0.101(10) -0.030(8) -0.006(8) 0.050(8)
C73 0.072(8) 0.046(6) 0.111(10) -0.009(6) -0.006(7) 0.022(6)
C74 0.068(8) 0.043(6) 0.093(9) 0.010(6) 0.005(6) 0.021(6)
Mo1J 0.0402 0.051 0.0466 0.011 0.0019 0.0185
Mo1K 0.051 0.0542 0.0466 -0.0091 -0.011 0.0325
Mo2J 0.0489 0.0498 0.0757 0.0142 0.0112 0.0309
Mo2K 0.0498 0.0369 0.0757 -0.003 -0.0142 0.0189
Mo2M 0.0489 0.0498 0.0757 0.0142 0.0112 0.0309
Mo2N 0.0498 0.0369 0.0757 -0.003 -0.0142 0.0189
Mn1J 0.056 0.0553 0.0888 0.003 0.0334 0.0137
Mn1K 0.0553 0.0839 0.0888 0.0304 -0.003 0.0416
Mn2J 0.0452 0.0493 0.0407 -0.0012 0.0042 0.0221
Mn2K 0.0493 0.0503 0.0407 0.0054 0.0012 0.0272
Mn2B 0.0493 0.0503 0.0407 0.0054 0.0012 0.0272
Mn3J 0.063 0.0615 0.0563 0.0138 0.0109 0.0441
Mn3K 0.0615 0.0363 0.0563 -0.0029 -0.0138 0.0174
Mn4N 0.0404 0.048 0.0608 -0.0081 -0.0065 0.024
Mn4J 0.0404 0.0404 0.0608 0.0065 -0.0016 0.0164
Mn4C 0.048 0.0404 0.0608 0.0016 0.0081 0.024
O1J 0.055 0.06 0.259 0.023 0.051 0.028
O1K 0.06 0.059 0.259 0.028 -0.023 0.032
N1J 0.053 0.06 0.046 0.006 0.006 0.029
N1K 0.06 0.055 0.046 0 -0.006 0.031
N2J 0.056 0.057 0.08 0.021 0.012 0.034
N2K 0.057 0.045 0.08 -0.009 -0.021 0.023
N3J 0.074 0.17 0.133 -0.092 0.004 -0.003
N3K 0.17 0.25 0.133 0.096 0.092 0.173
N4J 0.06 0.081 0.063 0.013 0.006 0.013
N4K 0.081 0.115 0.063 -0.007 -0.013 0.068
N5J 0.065 0.086 0.076 0.012 0.016 0.041
N5K 0.086 0.069 0.076 0.004 -0.012 0.045
N6K 0.076 0.065 0.051 -0.016 -0.015 0.043
N6J 0.055 0.076 0.051 0.015 -0.001 0.033
N6A 0.055 0.076 0.051 0.015 -0.001 0.033
N7J 0.05 0.053 0.083 -0.003 -0.004 0.025
N7K 0.053 0.053 0.083 -0.001 0.003 0.028
N8J 0.084 0.074 0.059 -0.001 0 0.063
N8K 0.074 0.032 0.059 0.001 0.001 0.011
N9J 0.07 0.067 0.116 0.036 0.01 0.035
N9K 0.067 0.067 0.116 -0.026 -0.036 0.032
N10N 0.05 0.053 0.069 -0.002 -0.005 0.02
N10J 0.063 0.05 0.069 0.005 0.003 0.03
N11J 0.064 0.079 0.095 0.023 0.036 0.042
N11K 0.079 0.059 0.095 0.013 -0.023 0.037
N12M 0.056 0.05 0.08 0.003 0.003 0.033
N12J 0.056 0.05 0.08 0.003 0.003 0.033
N12E 0.05 0.04 0.08 0 -0.003 0.017
N13J 0.186 0.159 0.211 0.127 0.146 0.142
N13K 0.159 0.061 0.211 0.019 -0.127 0.017
N14J 0.069 0.067 0.17 -0.025 -0.002 0.038
N14K 0.067 0.06 0.17 0.023 0.025 0.029
N15J 0.108 0.146 0.115 0.009 0.049 0.076
N15K 0.146 0.102 0.115 0.04 -0.009 0.07
N16J 0.136 0.128 0.077 0.013 0.03 0.077
N16K 0.128 0.11 0.077 0.017 -0.013 0.051
N17J 0.082 0.054 0.121 0.015 0.055 0.029
N17K 0.054 0.078 0.121 0.04 -0.015 0.025
N18J 0.064 0.066 0.093 -0.009 0.024 -0.004
N18K 0.066 0.138 0.093 0.033 0.009 0.07
N19J 0.077 0.11 0.133 -0.041 0.044 0.024
N19K 0.11 0.139 0.133 0.085 0.041 0.086
N20J 0.08 0.07 0.061 -0.014 -0.015 0.026
N20K 0.07 0.098 0.061 -0.001 0.014 0.044
N21J 0.069 0.076 0.08 0.02 0.014 0.044
N21K 0.076 0.057 0.08 -0.006 -0.02 0.032
N22J 0.076 0.05 0.058 0.001 0.017 0.027
N22K 0.05 0.072 0.058 0.016 -0.001 0.023
N23J 0.051 0.046 0.061 0.004 0.003 0.014
N23K 0.046 0.069 0.061 -0.001 -0.004 0.032
N24J 0.056 0.052 0.082 -0.001 0.011 0.026
N24K 0.052 0.056 0.082 0.012 0.001 0.026
N25J 0.095 0.097 0.11 0.041 0.037 0.067
N25K 0.097 0.058 0.11 -0.004 -0.041 0.03
N26J 0.117 0.117 0.061 0.028 0.023 0.099
N26K 0.117 0.036 0.061 -0.005 -0.028 0.018
N27J 0.092 0.066 0.091 -0.003 -0.026 0.055
N27K 0.066 0.048 0.091 -0.023 0.003 0.011
N28J 0.073 0.11 0.063 0.026 0.019 0.06
N28K 0.11 0.063 0.063 -0.007 -0.026 0.05
N29J 0.088 0.101 0.128 -0.029 -0.007 0.065
N29K 0.101 0.059 0.128 0.022 0.029 0.036
N30N 0.06 0.062 0.085 -0.003 -0.014 0.034
N30J 0.054 0.06 0.085 0.014 0.011 0.026
N31N 0.072 0.061 0.086 -0.019 -0.032 0.028
N31J 0.077 0.072 0.086 0.032 0.013 0.044
N32N 0.039 0.042 0.065 0 0.008 0.013
N32J 0.055 0.039 0.065 -0.008 -0.008 0.026
N33N 0.036 0.048 0.054 -0.001 0.002 0.019
N33J 0.046 0.036 0.054 -0.002 -0.003 0.017
N34N 0.055 0.057 0.074 -0.002 0.007 0.033
N34J 0.046 0.055 0.074 -0.007 -0.009 0.022
C1J 0.05 0.046 0.035 0.005 -0.001 0.024
C1K 0.046 0.048 0.035 -0.006 -0.005 0.022
C2J 0.041 0.046 0.052 0.007 0.007 0.023
C2K 0.046 0.041 0.052 0 -0.007 0.023
C3J 0.061 0.103 0.084 -0.049 -0.003 0.008
C3K 0.103 0.148 0.084 0.046 0.049 0.095
C4J 0.035 0.055 0.061 0.02 0.006 0.004
C4K 0.055 0.082 0.061 -0.014 -0.02 0.051
C5J 0.05 0.064 0.062 0.009 0.006 0.023
C5K 0.064 0.068 0.062 -0.003 -0.009 0.041
C6K 0.066 0.054 0.047 -0.009 -0.008 0.04
C6J 0.04 0.066 0.047 0.008 -0.001 0.026
C7J 0.051 0.047 0.054 0.009 0.001 0.028
C7K 0.047 0.042 0.054 -0.008 -0.009 0.019
C8J 0.05 0.046 0.058 0.002 -0.005 0.023
C8K 0.046 0.05 0.058 -0.007 -0.002 0.023
C9J 0.048 0.061 0.083 0.017 0.001 0.034
C9K 0.061 0.041 0.083 -0.016 -0.017 0.027
C10N 0.056 0.033 0.075 -0.001 -0.023 0.015
C10J 0.059 0.056 0.075 0.023 0.022 0.041
C10K 0.056 0.033 0.075 -0.001 -0.023 0.015
C11J 0.062 0.054 0.071 0.015 0.009 0.028
C11K 0.054 0.06 0.071 -0.006 -0.015 0.026
C12M 0.039 0.045 0.075 0.006 0.012 0.023
C12J 0.039 0.045 0.075 0.006 0.012 0.023
C12K 0.045 0.038 0.075 0.006 -0.006 0.022
C13J 0.105 0.085 0.135 -0.003 -0.004 0.072
C13K 0.085 0.046 0.135 -0.001 0.003 0.013
C14J 0.048 0.037 0.12 -0.01 -0.003 0.015
C14K 0.037 0.055 0.12 0.007 0.01 0.022
C15J 0.117 0.154 0.163 0.062 0.056 0.088
C15K 0.154 0.095 0.163 -0.006 -0.062 0.066
C16J 0.1 0.145 0.134 0.03 0.039 0.066
C16K 0.145 0.113 0.134 0.009 -0.03 0.079
C17J 0.155 0.133 0.098 -0.013 0.031 0.08
C17K 0.133 0.128 0.098 0.044 0.013 0.053
C18J 0.151 0.103 0.084 0.002 0.05 0.083
C18K 0.103 0.088 0.084 0.048 -0.002 0.02
C19J 0.082 0.062 0.112 0.032 0.045 0.036
C19K 0.062 0.072 0.112 0.013 -0.032 0.026
C20J 0.22 0.143 0.159 0.086 0.087 0.145
C20K 0.143 0.073 0.159 0.001 -0.086 -0.002
C21J 0.056 0.059 0.118 0.023 0.019 0.004
C21K 0.059 0.107 0.118 -0.004 -0.023 0.055
C22J 0.069 0.092 0.2 0.041 0.019 0.021
C22K 0.092 0.119 0.2 -0.022 -0.041 0.071
C23J 0.085 0.115 0.119 0 -0.008 -0.005
C23K 0.115 0.21 0.119 -0.008 0 0.12
C24J 0.077 0.114 0.12 -0.032 -0.01 0.01
C24K 0.114 0.171 0.12 0.022 0.032 0.104
C25J 0.073 0.081 0.137 -0.027 0.029 0.003
C25K 0.081 0.148 0.137 0.056 0.027 0.078
C26J 0.096 0.126 0.099 -0.06 0.012 0.011
C26K 0.126 0.2 0.099 0.072 0.06 0.115
C27J 0.133 0.295 0.157 -0.12 0.002 0.099
C27K 0.295 0.23 0.157 0.122 0.12 0.196
C28J 0.132 0.174 0.22 -0.074 0.056 0.068
C28K 0.174 0.17 0.22 0.13 0.074 0.106
C29J 0.28 0.236 0.151 -0.017 0.03 0.218
C29K 0.236 0.08 0.151 0.047 0.017 0.018
C30J 0.066 0.051 0.095 -0.01 0.019 0.023
C30K 0.051 0.071 0.095 0.029 0.01 0.028
C31J 0.085 0.06 0.076 -0.031 0.008 0.012
C31K 0.06 0.121 0.076 0.039 0.031 0.048
C32J 0.088 0.098 0.069 0.004 -0.021 0.016
C32K 0.098 0.154 0.069 -0.025 -0.004 0.082
C33J 0.078 0.11 0.085 0.03 -0.024 0.027
C33K 0.11 0.134 0.085 -0.054 -0.03 0.083
C34J 0.093 0.092 0.105 0.031 0.027 0.064
C34K 0.092 0.057 0.105 -0.004 -0.031 0.028
C35J 0.102 0.082 0.098 0.024 0.047 0.064
C35K 0.082 0.056 0.098 0.023 -0.024 0.018
C36J 0.098 0.047 0.072 0.002 0.042 0.02
C36K 0.047 0.105 0.072 0.04 -0.002 0.027
C37J 0.137 0.058 0.111 -0.024 0.056 0.021
C37K 0.058 0.153 0.111 0.08 0.024 0.037
C38J 0.076 0.038 0.04 0 0.002 0.008
C38K 0.038 0.098 0.04 0.002 0 0.03
C39J 0.118 0.05 0.042 0.005 -0.005 -0.011
C39K 0.05 0.19 0.042 -0.01 -0.005 0.061
C40J 0.099 0.075 0.082 0.035 -0.029 0.009
C40K 0.075 0.156 0.082 -0.064 -0.035 0.066
C41J 0.073 0.062 0.104 0.018 -0.029 0.021
C41K 0.062 0.093 0.104 -0.047 -0.018 0.041
C42J 0.054 0.054 0.075 0.014 -0.005 0.018
C42K 0.054 0.072 0.075 -0.019 -0.014 0.036
C43J 0.056 0.054 0.082 0.018 0.009 0.027
C43K 0.054 0.056 0.082 -0.009 -0.018 0.027
C44J 0.09 0.086 0.125 0.011 0.008 0.062
C44K 0.086 0.052 0.125 -0.003 -0.011 0.024
C45J 0.162 0.212 0.074 -0.027 -0.004 0.146
C45K 0.212 0.082 0.074 0.023 0.027 0.066
C46J 0.107 0.21 0.072 0.002 0.006 0.1
C46K 0.21 0.117 0.072 0.004 -0.002 0.11
C47J 0.052 0.151 0.122 0.084 0.025 0.052
C47K 0.151 0.099 0.122 -0.059 -0.084 0.099
C48J 0.067 0.081 0.14 0.036 -0.014 0.039
C48K 0.081 0.07 0.14 -0.05 -0.036 0.042
C49J 0.13 0.081 0.111 -0.029 -0.055 0.089
C49K 0.081 0.033 0.111 -0.026 0.029 -0.008
C50J 0.2 0.08 0.138 -0.029 -0.05 0.091
C50K 0.08 0.098 0.138 -0.021 0.029 -0.011
C51J 0.12 0.107 0.065 -0.008 -0.024 0.095
C51K 0.107 0.037 0.065 -0.016 0.008 0.012
C52J 0.138 0.163 0.096 -0.008 -0.011 0.131
C52K 0.163 0.039 0.096 -0.003 0.008 0.032
C53J 0.169 0.169 0.058 0.032 0.019 0.137
C53K 0.169 0.064 0.058 -0.013 -0.032 0.032
C54J 0.155 0.144 0.092 0.043 0.035 0.123
C54K 0.144 0.053 0.092 -0.008 -0.043 0.021
C55J 0.097 0.127 0.062 0.042 0.033 0.085
C55K 0.127 0.054 0.062 -0.009 -0.042 0.042
C56J 0.118 0.114 0.113 0.019 0.017 0.09
C56K 0.114 0.052 0.113 -0.002 -0.019 0.024
C57J 0.23 0.13 0.22 0.122 0.07 0.1
C57K 0.13 0.16 0.22 -0.052 -0.122 0.03
C58J 0.104 0.079 0.141 -0.011 0.016 0.046
C58K 0.079 0.091 0.141 0.027 0.011 0.033
C59J 0.103 0.112 0.19 -0.057 -0.004 0.065
C59K 0.112 0.085 0.19 0.053 0.057 0.047
C60N 0.041 0.047 0.077 -0.005 0.013 0.014
C60J 0.06 0.041 0.077 -0.013 -0.018 0.027
C61N 0.072 0.08 0.093 -0.028 -0.002 0.033
C61J 0.086 0.072 0.093 0.002 -0.026 0.039
C62N 0.039 0.053 0.059 -0.003 0.006 0.01
C62J 0.072 0.039 0.059 -0.006 -0.009 0.029
C63N 0.061 0.054 0.063 -0.009 -0.016 0.008
C63J 0.099 0.061 0.063 0.016 0.007 0.053
C64N 0.059 0.08 0.079 -0.001 -0.025 0.021
C64J 0.097 0.059 0.079 0.025 0.024 0.038
C65N 0.056 0.067 0.09 0.008 -0.02 0.028
C65J 0.067 0.056 0.09 0.02 0.028 0.028
C66N 0.039 0.049 0.071 0.007 0.003 0.017
C66J 0.054 0.039 0.071 -0.003 0.004 0.022
C67N 0.052 0.044 0.068 0.005 0.003 0.029
C67J 0.038 0.052 0.068 -0.003 0.002 0.023
C68N 0.089 0.076 0.085 0.002 -0.003 0.057
C68J 0.051 0.089 0.085 0.003 0.005 0.032
C69N 0.058 0.041 0.066 -0.006 0.007 0.016
C69J 0.067 0.058 0.066 -0.007 -0.013 0.042
C70N 0.078 0.071 0.086 -0.034 -0.024 0.028
C70J 0.093 0.078 0.086 0.024 -0.01 0.05
C71N 0.071 0.09 0.094 -0.018 -0.027 0.039
C71J 0.083 0.071 0.094 0.027 0.009 0.032
C72N 0.076 0.094 0.101 0.006 -0.024 0.044
C72J 0.082 0.076 0.101 0.024 0.03 0.032
C73N 0.074 0.072 0.111 0.006 -0.003 0.05
C73J 0.046 0.074 0.111 0.003 0.009 0.024
C74N 0.069 0.068 0.093 -0.005 0.005 0.047
C74J 0.043 0.069 0.093 -0.005 -0.01 0.022
O2 0.086(5) 0.062(4) 0.079(5) 0.010(4) 0.013(4) 0.041(4)
O3 0.112(7) 0.076(6) 0.102(6) 0.003(5) 0.021(5) 0.053(5)
O4 0.101(7) 0.112(7) 0.072(5) 0.029(5) 0.016(5) 0.046(6)
O5 0.094(6) 0.072(5) 0.100(6) 0.012(5) 0.013(5) 0.035(5)
O6 0.069(5) 0.121(7) 0.092(6) 0.001(5) 0.002(4) 0.047(5)
O7 0.089(6) 0.068(5) 0.151(9) 0.002(5) -0.008(6) 0.044(5)
O8 0.169(10) 0.085(6) 0.083(6) 0.027(5) 0.047(6) 0.073(7)
O9 0.087(7) 0.087(7) 0.20(2) 0.000 0.000 0.044(4)
O10 0.114(8) 0.078(6) 0.160(9) 0.029(6) 0.059(7) 0.048(6)
O11 0.134(9) 0.108(8) 0.146(9) 0.016(7) 0.039(7) 0.071(7)
O12 0.145(15) 0.096(11) 0.046(8) -0.010(7) -0.001(8) 0.092(12)
O13 0.150(15) 0.046(8) 0.051(8) 0.025(7) -0.030(9) 0.033(9)
O14 0.167(18) 0.047(9) 0.056(9) -0.006(7) -0.004(10) 0.023(10)
O15 0.170(18) 0.039(8) 0.080(11) 0.028(8) -0.030(11) 0.023(10)
O16 0.040(13) 0.041(13) 0.10(2) 0.029(13) 0.046(13) 0.033(11)
O17 0.047(13) 0.028(12) 0.081(17) 0.009(11) 0.031(12) 0.027(11)
O18 0.10(2) 0.10(2) 0.055(15) 0.016(14) 0.024(15) 0.09(2)
loop_
_geom_bond_atom_site_label_1
_geom_bond_atom_site_label_2
_geom_bond_site_symmetry_1
_geom_bond_site_symmetry_2
Mo1 C1 1_555 1_555
Mo2 C8 1_555 1_555
Mn1 O1 1_555 1_555
Mn2 N1 1_555 1_555
Mn3 N2 1_555 1_555
Mn4 N10 1_555 1_555
O1 H1 1_555 1_555
N1 C1 1_555 1_555
N2 C2 1_555 1_555
N3 C3 1_555 1_555
N4 Mn1 1_555 1_555
N5 C5 1_555 1_555
N6 C6 1_555 1_555
N7 C7 1_555 1_555
N8 Mn3 1_555 1_555
N9 C9 1_555 1_555
N10 C10 1_555 1_555
N11 C11 1_555 1_555
N12 C12 1_555 1_555
N13 C13 1_555 1_555
N14 C14 1_555 1_555
N15 Mn1 1_555 1_555
N16 Mn1 1_555 1_555
N17 Mn1 1_555 1_555
N18 Mn1 1_555 1_555
N19 Mn1 1_555 1_555
N20 Mn2 1_555 1_555
N21 Mn2 1_555 1_555
N22 Mn2 1_555 1_555
N23 Mn2 1_555 1_555
N24 Mn2 1_555 1_555
N25 Mn3 1_555 1_555
N26 Mn3 1_555 1_555
N27 Mn3 1_555 1_555
N28 Mn3 1_555 1_555
N29 Mn3 1_555 1_555
N30 Mn4 1_555 1_555
N31 Mn4 1_555 1_555
N32 Mn4 1_555 1_555
N33 Mn4 1_555 1_555
N34 Mn4 1_555 1_555
C2 Mo1 1_555 1_555
C3 Mo1 1_555 1_555
C4 Mo1 1_555 1_555
C5 Mo1 1_555 1_555
C6 Mo1 1_555 1_555
C7 Mo1 1_555 1_555
C8 N8 1_555 1_555
C9 Mo2 1_555 1_555
C10 Mo2 1_555 1_555
C11 Mo2 1_555 1_555
C12 Mo2 1_555 1_555
C13 Mo2 1_555 1_555
C14 Mo2 1_555 1_555
C15 N15 1_555 1_555
H2 C15 1_555 1_555
H3 C15 1_555 1_555
C16 N16 1_555 1_555
H4 C16 1_555 1_555
H5 C16 1_555 1_555
C17 N16 1_555 1_555
H6 C17 1_555 1_555
H7 C17 1_555 1_555
C18 N17 1_555 1_555
H8 C18 1_555 1_555
H9 C18 1_555 1_555
C19 N17 1_555 1_555
C20 C19 1_555 1_555
H10 C20 1_555 1_555
H11 C20 1_555 1_555
H12 C20 1_555 1_555
C21 N18 1_555 1_555
C22 C21 1_555 1_555
H13 C22 1_555 1_555
C23 C22 1_555 1_555
H14 C23 1_555 1_555
C24 C23 1_555 1_555
H15 C24 1_555 1_555
C25 N18 1_555 1_555
C26 N19 1_555 1_555
C27 C26 1_555 1_555
H16 C27 1_555 1_555
H17 C27 1_555 1_555
H18 C27 1_555 1_555
C28 N19 1_555 1_555
H19 C28 1_555 1_555
H20 C28 1_555 1_555
C29 N15 1_555 1_555
H21 C29 1_555 1_555
H22 C29 1_555 1_555
C30 N24 1_555 1_555
H23 C30 1_555 1_555
H24 C30 1_555 1_555
C31 N20 1_555 1_555
H25 C31 1_555 1_555
H26 C31 1_555 1_555
C32 N20 1_555 1_555
H27 C32 1_555 1_555
H28 C32 1_555 1_555
C33 N21 1_555 1_555
H29 C33 1_555 1_555
H30 C33 1_555 1_555
C34 N21 1_555 1_555
H31 C34 1_555 1_555
H32 C34 1_555 1_555
C35 N22 1_555 1_555
H33 C35 1_555 1_555
H34 C35 1_555 1_555
C36 N22 1_555 1_555
C37 C36 1_555 1_555
H35 C37 1_555 1_555
H36 C37 1_555 1_555
H37 C37 1_555 1_555
C38 N23 1_555 1_555
C39 C38 1_555 1_555
H38 C39 1_555 1_555
C40 C39 1_555 1_555
H39 C40 1_555 1_555
C41 C40 1_555 1_555
H40 C41 1_555 1_555
C42 N23 1_555 1_555
C43 N24 1_555 1_555
C44 C43 1_555 1_555
H41 C44 1_555 1_555
H42 C44 1_555 1_555
H43 C44 1_555 1_555
C45 N29 1_555 1_555
H44 C45 1_555 1_555
H45 C45 1_555 1_555
C46 N28 1_555 1_555
H46 C46 1_555 1_555
H47 C46 1_555 1_555
C47 N28 1_555 1_555
H48 C47 1_555 1_555
H49 C47 1_555 1_555
C48 N27 1_555 1_555
H50 C48 1_555 1_555
H51 C48 1_555 1_555
C49 N27 1_555 1_555
C50 C49 1_555 1_555
H52 C50 1_555 1_555
H53 C50 1_555 1_555
H54 C50 1_555 1_555
C51 N26 1_555 1_555
C52 C51 1_555 1_555
H55 C52 1_555 1_555
C53 C52 1_555 1_555
H56 C53 1_555 1_555
C54 C53 1_555 1_555
H57 C54 1_555 1_555
C55 N26 1_555 1_555
C56 N25 1_555 1_555
C57 C56 1_555 1_555
H58 C57 1_555 1_555
H59 C57 1_555 1_555
H60 C57 1_555 1_555
C58 N25 1_555 1_555
H61 C58 1_555 1_555
H62 C58 1_555 1_555
C59 N29 1_555 1_555
H63 C59 1_555 1_555
H64 C59 1_555 1_555
C60 N34 1_555 1_555
C61 C60 1_555 1_555
H65 C61 1_555 1_555
H66 C61 1_555 1_555
H67 C61 1_555 1_555
C62 N33 1_555 1_555
C63 C62 1_555 1_555
H68 C63 1_555 1_555
C64 C63 1_555 1_555
H69 C64 1_555 1_555
C65 C64 1_555 1_555
H70 C65 1_555 1_555
C66 N33 1_555 1_555
C67 N32 1_555 1_555
C68 C67 1_555 1_555
H71 C68 1_555 1_555
H72 C68 1_555 1_555
H73 C68 1_555 1_555
C69 N32 1_555 1_555
H74 C69 1_555 1_555
H75 C69 1_555 1_555
C70 N31 1_555 1_555
H76 C70 1_555 1_555
H77 C70 1_555 1_555
C71 N31 1_555 1_555
H78 C71 1_555 1_555
H79 C71 1_555 1_555
C72 N30 1_555 1_555
H80 C72 1_555 1_555
H81 C72 1_555 1_555
C73 N30 1_555 1_555
H82 C73 1_555 1_555
H83 C73 1_555 1_555
C74 N34 1_555 1_555
H84 C74 1_555 1_555
H85 C74 1_555 1_555
O3 H86 1_555 1_555
Mo1J C1J 1_555 1_555
Mo1K C1K 1_555 1_555
Mo2J C8J 1_555 1_555
Mo2K C8K 1_555 1_555
Mo2M C12M 1_555 1_555
Mo2N C10N 1_555 1_555
Mn1J O1J 1_555 1_555
Mn1K O1K 1_555 1_555
Mn2J N6 1_555 1_555
Mn2K N1K 1_555 1_555
Mn2B N6J 1_555 1_555
Mn3J N2J 1_555 1_555
Mn3K N2K 1_555 1_555
Mn4N N12 1_555 1_555
Mn4J N10J 1_555 1_555
Mn4C N12J 1_555 1_555
O1J H1J 1_555 1_555
O1K H1K 1_555 1_555
N1J Mn2J 1_555 1_555
N1K C1K 1_555 1_555
N2J C2J 1_555 1_555
N2K C2K 1_555 1_555
N3J C3J 1_555 1_555
N3K C3K 1_555 1_555
N4J Mn1J 1_555 1_555
N4K Mn1K 1_555 1_555
N5J C5J 1_555 1_555
N5K C5K 1_555 1_555
N6K Mn2 1_555 1_555
N6J C6J 1_555 1_555
N6A Mn2K 1_555 1_555
N7J C7J 1_555 1_555
N7K C7K 1_555 1_555
N8J Mn3J 1_555 1_555
N8K Mn3K 1_555 1_555
N9J C9J 1_555 1_555
N9K C9K 1_555 1_555
N10N Mn4N 1_555 1_555
N10J C10J 1_555 1_555
N11J C11J 1_555 1_555
N11K C11K 1_555 1_555
N12M Mn4 1_555 1_555
N12J C12J 1_555 1_555
N12E Mn4J 1_555 1_555
N13J C13J 1_555 1_555
N13K C13K 1_555 1_555
N14J C14J 1_555 1_555
N14K C14K 1_555 1_555
N15J Mn1J 1_555 1_555
N15K Mn1K 1_555 1_555
N16J Mn1J 1_555 1_555
N16K Mn1K 1_555 1_555
N17J Mn1J 1_555 1_555
N17K Mn1K 1_555 1_555
N18J Mn1J 1_555 1_555
N18K Mn1K 1_555 1_555
N19J Mn1J 1_555 1_555
N19K Mn1K 1_555 1_555
N20J Mn2J 1_555 1_555
N20K Mn2K 1_555 1_555
N21J Mn2J 1_555 1_555
N21K Mn2K 1_555 1_555
N22J Mn2J 1_555 1_555
N22K Mn2K 1_555 1_555
N23J Mn2J 1_555 1_555
N23K Mn2K 1_555 1_555
N24J Mn2J 1_555 1_555
N24K Mn2K 1_555 1_555
N25J Mn3J 1_555 1_555
N25K Mn3K 1_555 1_555
N26J Mn3J 1_555 1_555
N26K Mn3K 1_555 1_555
N27J Mn3J 1_555 1_555
N27K Mn3K 1_555 1_555
N28J Mn3J 1_555 1_555
N28K Mn3K 1_555 1_555
N29J Mn3J 1_555 1_555
N29K Mn3K 1_555 1_555
N30N Mn4N 1_555 1_555
N30J Mn4J 1_555 1_555
N31N Mn4N 1_555 1_555
N31J Mn4J 1_555 1_555
N32N Mn4N 1_555 1_555
N32J Mn4J 1_555 1_555
N33N Mn4N 1_555 1_555
N33J Mn4J 1_555 1_555
N34N Mn4N 1_555 1_555
N34J Mn4J 1_555 1_555
C1J N1J 1_555 1_555
C2J Mo1J 1_555 1_555
C2K Mo1K 1_555 1_555
C3J Mo1J 1_555 1_555
C3K Mo1K 1_555 1_555
C4J Mo1J 1_555 1_555
C4K Mo1K 1_555 1_555
C5J Mo1J 1_555 1_555
C5K Mo1K 1_555 1_555
C6K Mo1K 1_555 1_555
C6J Mo1J 1_555 1_555
C7J Mo1J 1_555 1_555
C7K Mo1K 1_555 1_555
C8J N8J 1_555 1_555
C8K N8K 1_555 1_555
C9J Mo2J 1_555 1_555
C9K Mo2K 1_555 1_555
C10N N10N 1_555 1_555
C10J Mo2J 1_555 1_555
C10K Mo2K 1_555 1_555
C11J Mo2J 1_555 1_555
C11K Mo2K 1_555 1_555
C12M N12M 1_555 1_555
C12J Mo2J 1_555 1_555
C12K Mo2K 1_555 1_555
C13J Mo2J 1_555 1_555
C13K Mo2K 1_555 1_555
C14J Mo2J 1_555 1_555
C14K Mo2K 1_555 1_555
C15J N15J 1_555 1_555
C15K N15K 1_555 1_555
H2J C15J 1_555 1_555
H2K C15K 1_555 1_555
H3J C15J 1_555 1_555
H3K C15K 1_555 1_555
C16J N16J 1_555 1_555
C16K N16K 1_555 1_555
H4J C16J 1_555 1_555
H4K C16K 1_555 1_555
H5J C16J 1_555 1_555
H5K C16K 1_555 1_555
C17J N16J 1_555 1_555
C17K N16K 1_555 1_555
H6J C17J 1_555 1_555
H6K C17K 1_555 1_555
H7J C17J 1_555 1_555
H7K C17K 1_555 1_555
C18J N17J 1_555 1_555
C18K N17K 1_555 1_555
H8J C18J 1_555 1_555
H8K C18K 1_555 1_555
H9J C18J 1_555 1_555
H9K C18K 1_555 1_555
C19J N17J 1_555 1_555
C19K N17K 1_555 1_555
C20J C19J 1_555 1_555
C20K C19K 1_555 1_555
H10J C20J 1_555 1_555
H10K C20K 1_555 1_555
H11J C20J 1_555 1_555
H11K C20K 1_555 1_555
H12J C20J 1_555 1_555
H12K C20K 1_555 1_555
C21J N18J 1_555 1_555
C21K N18K 1_555 1_555
C22J C21J 1_555 1_555
C22K C21K 1_555 1_555
H13J C22J 1_555 1_555
H13K C22K 1_555 1_555
C23J C22J 1_555 1_555
C23K C22K 1_555 1_555
H14J C23J 1_555 1_555
H14K C23K 1_555 1_555
C24J C23J 1_555 1_555
C24K C23K 1_555 1_555
H15J C24J 1_555 1_555
H15K C24K 1_555 1_555
C25J N18J 1_555 1_555
C25K N18K 1_555 1_555
C26J N19J 1_555 1_555
C26K N19K 1_555 1_555
C27J C26J 1_555 1_555
C27K C26K 1_555 1_555
H16J C27J 1_555 1_555
H16K C27K 1_555 1_555
H17J C27J 1_555 1_555
H17K C27K 1_555 1_555
H18J C27J 1_555 1_555
H18K C27K 1_555 1_555
C28J N19J 1_555 1_555
C28K N19K 1_555 1_555
H19J C28J 1_555 1_555
H19K C28K 1_555 1_555
H20J C28J 1_555 1_555
H20K C28K 1_555 1_555
C29J N15J 1_555 1_555
C29K N15K 1_555 1_555
H21J C29J 1_555 1_555
H21K C29K 1_555 1_555
H22J C29J 1_555 1_555
H22K C29K 1_555 1_555
C30J N24J 1_555 1_555
C30K N24K 1_555 1_555
H23J C30J 1_555 1_555
H23K C30K 1_555 1_555
H24J C30J 1_555 1_555
H24K C30K 1_555 1_555
C31J N20J 1_555 1_555
C31K N20K 1_555 1_555
H25J C31J 1_555 1_555
H25K C31K 1_555 1_555
H26J C31J 1_555 1_555
H26K C31K 1_555 1_555
C32J N20J 1_555 1_555
C32K N20K 1_555 1_555
H27J C32J 1_555 1_555
H27K C32K 1_555 1_555
H28J C32J 1_555 1_555
H28K C32K 1_555 1_555
C33J N21J 1_555 1_555
C33K N21K 1_555 1_555
H29J C33J 1_555 1_555
H29K C33K 1_555 1_555
H30J C33J 1_555 1_555
H30K C33K 1_555 1_555
C34J N21J 1_555 1_555
C34K N21K 1_555 1_555
H31J C34J 1_555 1_555
H31K C34K 1_555 1_555
H32J C34J 1_555 1_555
H32K C34K 1_555 1_555
C35J N22J 1_555 1_555
C35K N22K 1_555 1_555
H33J C35J 1_555 1_555
H33K C35K 1_555 1_555
H34J C35J 1_555 1_555
H34K C35K 1_555 1_555
C36J N22J 1_555 1_555
C36K N22K 1_555 1_555
C37J C36J 1_555 1_555
C37K C36K 1_555 1_555
H35J C37J 1_555 1_555
H35K C37K 1_555 1_555
H36J C37J 1_555 1_555
H36K C37K 1_555 1_555
H37J C37J 1_555 1_555
H37K C37K 1_555 1_555
C38J N23J 1_555 1_555
C38K N23K 1_555 1_555
C39J C38J 1_555 1_555
C39K C38K 1_555 1_555
H38J C39J 1_555 1_555
H38K C39K 1_555 1_555
C40J C39J 1_555 1_555
C40K C39K 1_555 1_555
H39J C40J 1_555 1_555
H39K C40K 1_555 1_555
C41J C40J 1_555 1_555
C41K C40K 1_555 1_555
H40J C41J 1_555 1_555
H40K C41K 1_555 1_555
C42J N23J 1_555 1_555
C42K N23K 1_555 1_555
C43J N24J 1_555 1_555
C43K N24K 1_555 1_555
C44J C43J 1_555 1_555
C44K C43K 1_555 1_555
H41J C44J 1_555 1_555
H41K C44K 1_555 1_555
H42J C44J 1_555 1_555
H42K C44K 1_555 1_555
H43J C44J 1_555 1_555
H43K C44K 1_555 1_555
C45J N29J 1_555 1_555
C45K N29K 1_555 1_555
H44J C45J 1_555 1_555
H44K C45K 1_555 1_555
H45J C45J 1_555 1_555
H45K C45K 1_555 1_555
C46J N28J 1_555 1_555
C46K N28K 1_555 1_555
H46J C46J 1_555 1_555
H46K C46K 1_555 1_555
H47J C46J 1_555 1_555
H47K C46K 1_555 1_555
C47J N28J 1_555 1_555
C47K N28K 1_555 1_555
H48J C47J 1_555 1_555
H48K C47K 1_555 1_555
H49J C47J 1_555 1_555
H49K C47K 1_555 1_555
C48J N27J 1_555 1_555
C48K N27K 1_555 1_555
H50J C48J 1_555 1_555
H50K C48K 1_555 1_555
H51J C48J 1_555 1_555
H51K C48K 1_555 1_555
C49J N27J 1_555 1_555
C49K N27K 1_555 1_555
C50J C49J 1_555 1_555
C50K C49K 1_555 1_555
H52J C50J 1_555 1_555
H52K C50K 1_555 1_555
H53J C50J 1_555 1_555
H53K C50K 1_555 1_555
H54J C50J 1_555 1_555
H54K C50K 1_555 1_555
C51J N26J 1_555 1_555
C51K N26K 1_555 1_555
C52J C51J 1_555 1_555
C52K C51K 1_555 1_555
H55J C52J 1_555 1_555
H55K C52K 1_555 1_555
C53J C52J 1_555 1_555
C53K C52K 1_555 1_555
H56J C53J 1_555 1_555
H56K C53K 1_555 1_555
C54J C53J 1_555 1_555
C54K C53K 1_555 1_555
H57J C54J 1_555 1_555
H57K C54K 1_555 1_555
C55J N26J 1_555 1_555
C55K N26K 1_555 1_555
C56J N25J 1_555 1_555
C56K N25K 1_555 1_555
C57J C56J 1_555 1_555
C57K C56K 1_555 1_555
H58J C57J 1_555 1_555
H58K C57K 1_555 1_555
H59J C57J 1_555 1_555
H59K C57K 1_555 1_555
H60J C57J 1_555 1_555
H60K C57K 1_555 1_555
C58J N25J 1_555 1_555
C58K N25K 1_555 1_555
H61J C58J 1_555 1_555
H61K C58K 1_555 1_555
H62J C58J 1_555 1_555
H62K C58K 1_555 1_555
C59J N29J 1_555 1_555
C59K N29K 1_555 1_555
H63J C59J 1_555 1_555
H63K C59K 1_555 1_555
H64J C59J 1_555 1_555
H64K C59K 1_555 1_555
C60N N34N 1_555 1_555
C60J N34J 1_555 1_555
C61N C60N 1_555 1_555
C61J C60J 1_555 1_555
H65N C61N 1_555 1_555
H65J C61J 1_555 1_555
H66N C61N 1_555 1_555
H66J C61J 1_555 1_555
H67N C61N 1_555 1_555
H67J C61J 1_555 1_555
C62N N33N 1_555 1_555
C62J N33J 1_555 1_555
C63N C62N 1_555 1_555
C63J C62J 1_555 1_555
H68N C63N 1_555 1_555
H68J C63J 1_555 1_555
C64N C63N 1_555 1_555
C64J C63J 1_555 1_555
H69N C64N 1_555 1_555
H69J C64J 1_555 1_555
C65N C64N 1_555 1_555
C65J C64J 1_555 1_555
H70N C65N 1_555 1_555
H70J C65J 1_555 1_555
C66N N33N 1_555 1_555
C66J N33J 1_555 1_555
C67N N32N 1_555 1_555
C67J N32J 1_555 1_555
C68N C67N 1_555 1_555
C68J C67J 1_555 1_555
H71N C68N 1_555 1_555
H71J C68J 1_555 1_555
H72N C68N 1_555 1_555
H72J C68J 1_555 1_555
H73N C68N 1_555 1_555
H73J C68J 1_555 1_555
C69N N32N 1_555 1_555
C69J N32J 1_555 1_555
H74N C69N 1_555 1_555
H74J C69J 1_555 1_555
H75N C69N 1_555 1_555
H75J C69J 1_555 1_555
C70N N31N 1_555 1_555
C70J N31J 1_555 1_555
H76N C70N 1_555 1_555
H76J C70J 1_555 1_555
H77N C70N 1_555 1_555
H77J C70J 1_555 1_555
C71N N31N 1_555 1_555
C71J N31J 1_555 1_555
H78N C71N 1_555 1_555
H78J C71J 1_555 1_555
H79N C71N 1_555 1_555
H79J C71J 1_555 1_555
C72N N30N 1_555 1_555
C72J N30J 1_555 1_555
H80N C72N 1_555 1_555
H80J C72J 1_555 1_555
H81N C72N 1_555 1_555
H81J C72J 1_555 1_555
C73N N30N 1_555 1_555
C73J N30J 1_555 1_555
H82N C73N 1_555 1_555
H82J C73J 1_555 1_555
H83N C73N 1_555 1_555
H83J C73J 1_555 1_555
C74N N34N 1_555 1_555
C74J N34J 1_555 1_555
H84N C74N 1_555 1_555
H84J C74J 1_555 1_555
H85N C74N 1_555 1_555
H85J C74J 1_555 1_555
N4 C4 1_555 1_555
C15 C16 1_555 1_555
C17 C18 1_555 1_555
C19 C21 1_555 1_555
C24 C25 1_555 1_555
C25 C26 1_555 1_555
C28 C29 1_555 1_555
C30 C31 1_555 1_555
C32 C33 1_555 1_555
C34 C35 1_555 1_555
C36 C38 1_555 1_555
C41 C42 1_555 1_555
C42 C43 1_555 1_555
C45 C46 1_555 1_555
C47 C48 1_555 1_555
C49 C51 1_555 1_555
C54 C55 1_555 1_555
C55 C56 1_555 1_555
C58 C59 1_555 1_555
C60 C62 1_555 1_555
C65 C66 1_555 1_555
C66 C67 1_555 1_555
C69 C70 1_555 1_555
C71 C72 1_555 1_555
C73 C74 1_555 1_555
N4J C4J 1_555 1_555
N4K C4K 1_555 1_555
N6K C6K 1_555 1_555
C15J C16J 1_555 1_555
C15K C16K 1_555 1_555
C17J C18J 1_555 1_555
C17K C18K 1_555 1_555
C19J C21J 1_555 1_555
C19K C21K 1_555 1_555
C24J C25J 1_555 1_555
C24K C25K 1_555 1_555
C25J C26J 1_555 1_555
C25K C26K 1_555 1_555
C28J C29J 1_555 1_555
C28K C29K 1_555 1_555
C30J C31J 1_555 1_555
C30K C31K 1_555 1_555
C32J C33J 1_555 1_555
C32K C33K 1_555 1_555
C34J C35J 1_555 1_555
C34K C35K 1_555 1_555
C36J C38J 1_555 1_555
C36K C38K 1_555 1_555
C41J C42J 1_555 1_555
C41K C42K 1_555 1_555
C42J C43J 1_555 1_555
C42K C43K 1_555 1_555
C45J C46J 1_555 1_555
C45K C46K 1_555 1_555
C47J C48J 1_555 1_555
C47K C48K 1_555 1_555
C49J C51J 1_555 1_555
C49K C51K 1_555 1_555
C54J C55J 1_555 1_555
C54K C55K 1_555 1_555
C55J C56J 1_555 1_555
C55K C56K 1_555 1_555
C58J C59J 1_555 1_555
C58K C59K 1_555 1_555
C60N C62N 1_555 1_555
C60J C62J 1_555 1_555
C65N C66N 1_555 1_555
C65J C66J 1_555 1_555
C66N C67N 1_555 1_555
C66J C67J 1_555 1_555
C69N C70N 1_555 1_555
C69J C70J 1_555 1_555
C71N C72N 1_555 1_555
C71J C72J 1_555 1_555
C73N C74N 1_555 1_555
C73J C74J 1_555 1_555

#END
