
#######################################################################
#
#                 Cambridge Crystallographic Data Centre
#                                CCDC 
#
#######################################################################
#
# If this CIF has been generated from an entry in the Cambridge 
# Structural Database, then it will include bibliographic, chemical, 
# crystal, experimental, refinement or atomic coordinate data resulting 
# from the CCDC's data processing and validation procedures.
#
#######################################################################

data_FABGOG
_chemical_formula_moiety         '(C36 H32 Cu4 N12 O22 S1 2+)n'
_symmetry_cell_setting           hexagonal
_symmetry_space_group_name_H-M   'P 63 2 2'
_symmetry_Int_Tables_number      182
_space_group_name_Hall           'P 6c 2c'
loop_
_symmetry_equiv_pos_site_id
_symmetry_equiv_pos_as_xyz
1 x,y,z
2 x-y,x,1/2+z
3 -y,x-y,z
4 -x,-y,1/2+z
5 -x+y,-x,z
6 y,-x+y,1/2+z
7 x-y,-y,-z
8 -x,-x+y,-z
9 y,x,-z
10 -y,-x,1/2-z
11 -x+y,y,1/2-z
12 x,x-y,1/2-z
_cell_length_a                   12.7231(8)
_cell_length_b                   12.7231(8)
_cell_length_c                   16.4812(18)
_cell_angle_alpha                90
_cell_angle_beta                 90
_cell_angle_gamma                120
_cell_volume                     2310.5
loop_
_atom_site_label
_atom_site_type_symbol
_atom_site_fract_x
_atom_site_fract_y
_atom_site_fract_z
_atom_site_U_iso_or_equiv
_atom_site_thermal_displace_type
S1 S 0.0000 0.0000 0.0000 0.0676 Uani
O4 O 0.1116(5) 0.0000 0.0000 0.0640 Uani
O5 O -0.0702(10) -0.0730(10) -0.0713(3) 0.0880 Uani
O4B O 0.0000 0.1116(5) 0.0000 0.0640 Uani
O4D O -0.1116(5) -0.1116(5) 0.0000 0.0640 Uani
O5B O 0.0730(10) 0.0028(14) -0.0713(3) 0.0880 Uani
O5D O -0.0028(14) 0.0702(10) -0.0713(3) 0.0880 Uani
O5F O 0.0028(14) 0.0730(10) 0.0713(3) 0.0880 Uani
O5H O -0.0730(10) -0.0702(10) 0.0713(3) 0.0880 Uani
O5G O 0.0702(10) -0.0028(14) 0.0713(3) 0.0880 Uani
O3 O 0.0000 0.0000 -0.2500 0.5700 Uiso
Cu1 Cu 0.48886(5) -0.02229(10) 0.2500 0.0374 Uani
Cu2 Cu 0.6667 0.3333 0.2500 0.0619 Uani
O1 O 0.3770(5) -0.0068(5) 0.1722(3) 0.0469 Uani
O2 O 0.5336(7) 0.1795(6) 0.1705(4) 0.0710 Uani
N1 N 0.4348(6) 0.3707(6) -0.1600(3) 0.0417 Uani
N2 N 0.3124(6) 0.2123(6) -0.0865(4) 0.0429 Uani
H1 H 0.2470 0.1450 -0.0713 0.0520 Uiso
C1 C 0.3259(7) 0.2731(7) -0.1552(4) 0.0469 Uani
H2 H 0.2650 0.2492 -0.1957 0.0560 Uiso
C2 C 0.4941(7) 0.3716(7) -0.0891(4) 0.0447 Uani
H3 H 0.5745 0.4316 -0.0749 0.0530 Uiso
C3 C 0.4198(6) 0.2742(7) -0.0433(4) 0.0383 Uani
C4 C 0.4486(6) 0.2355(8) 0.0325(3) 0.0402 Uani
H4 H 0.5232 0.2920 0.0573 0.0480 Uiso
C5 C 0.3824(7) 0.1291(7) 0.0721(4) 0.0421 Uani
H5 H 0.3027 0.0728 0.0540 0.0510 Uiso
C6 C 0.4341(7) 0.1002(8) 0.1437(4) 0.0438 Uani
Cu1B Cu 1.02229(10) 0.51115(11) 0.2500 0.0374 Uani
Cu1D Cu 0.48885(11) 0.51114(5) 0.2500 0.0374 Uani
Cu1A Cu 0.51115(11) 0.48886(5) -0.2500 0.0374 Uani
Cu1C Cu 0.51114(5) 0.02229(10) -0.2500 0.0374 Uani
Cu1E Cu 0.97771(10) 0.48885(11) -0.2500 0.0374 Uani
Cu1G Cu 0.51114(5) 0.48885(11) 0.7500 0.0374 Uani
Cu1H Cu 0.97771(10) 0.48886(5) 0.7500 0.0374 Uani
Cu1F Cu 0.51115(11) 0.02229(10) 0.7500 0.0374 Uani
O1B O 1.0068(5) 0.3838(7) 0.1722(3) 0.0469 Uani
O1D O 0.6162(7) 0.6230(5) 0.1722(3) 0.0469 Uani
O1I O 1.0068(5) 0.6230(5) 0.3278(3) 0.0469 Uani
O1J O 0.6162(7) -0.0068(5) 0.3278(3) 0.0469 Uani
O1K O 0.3770(5) 0.3838(7) 0.3278(3) 0.0469 Uani
O2B O 0.8205(6) 0.3541(9) 0.1705(4) 0.0710 Uani
O2D O 0.6459(9) 0.4664(7) 0.1705(4) 0.0710 Uani
O2I O 0.8205(6) 0.4664(7) 0.3295(4) 0.0710 Uani
O2J O 0.6459(9) 0.1795(6) 0.3295(4) 0.0710 Uani
O2K O 0.5336(7) 0.3541(9) 0.3295(4) 0.0710 Uani
N1B N 0.6293(6) 0.0641(8) -0.1600(3) 0.0417 Uani
N1D N 0.9359(8) 0.5652(6) -0.1600(3) 0.0417 Uani
N1I N 0.6293(6) 0.5652(6) 0.6600(3) 0.0417 Uani
N1J N 0.9359(8) 0.3707(6) 0.6600(3) 0.0417 Uani
N1K N 0.4348(6) 0.0641(8) 0.6600(3) 0.0417 Uani
N1E N 0.3707(6) -0.0641(8) 0.3400(3) 0.0417 Uani
N1G N 0.5652(6) -0.0641(8) 0.1600(3) 0.0417 Uani
N1A N 1.0641(8) 0.4348(6) 0.3400(3) 0.0417 Uani
N1F N 1.0641(8) 0.6293(6) 0.1600(3) 0.0417 Uani
N1C N 0.5652(6) 0.6293(6) 0.3400(3) 0.0417 Uani
N1H N 0.3707(6) 0.4348(6) 0.1600(3) 0.0417 Uani
N2B N 0.7877(6) 0.1001(8) -0.0865(4) 0.0429 Uani
N2D N 0.8999(8) 0.6876(6) -0.0865(4) 0.0429 Uani
N2I N 0.7877(6) 0.6876(6) 0.5865(4) 0.0429 Uani
N2J N 0.8999(8) 0.2123(6) 0.5865(4) 0.0429 Uani
N2K N 0.3124(6) 0.1001(8) 0.5865(4) 0.0429 Uani
H1B H 0.8550 0.1020 -0.0713 0.0520 Uiso
H1D H 0.8980 0.7530 -0.0713 0.0520 Uiso
H1I H 0.8550 0.7530 0.5713 0.0520 Uiso
H1J H 0.8980 0.1450 0.5713 0.0520 Uiso
H1K H 0.2470 0.1020 0.5713 0.0520 Uiso
C1B C 0.7269(7) 0.0528(10) -0.1552(4) 0.0469 Uani
C1D C 0.9472(10) 0.6741(7) -0.1552(4) 0.0469 Uani
C1I C 0.7269(7) 0.6741(7) 0.6552(4) 0.0469 Uani
C1J C 0.9472(10) 0.2731(7) 0.6552(4) 0.0469 Uani
C1K C 0.3259(7) 0.0528(10) 0.6552(4) 0.0469 Uani
H2B H 0.7508 0.0158 -0.1957 0.0560 Uiso
H2D H 0.9842 0.7350 -0.1957 0.0560 Uiso
H2I H 0.7508 0.7350 0.6957 0.0560 Uiso
H2J H 0.9842 0.2492 0.6957 0.0560 Uiso
H2K H 0.2650 0.0158 0.6957 0.0560 Uiso
C2B C 0.6284(7) 0.1225(10) -0.0891(4) 0.0447 Uani
C2D C 0.8775(10) 0.5059(7) -0.0891(4) 0.0447 Uani
C2I C 0.6284(7) 0.5059(7) 0.5891(4) 0.0447 Uani
C2J C 0.8775(10) 0.3716(7) 0.5891(4) 0.0447 Uani
C2K C 0.4941(7) 0.1225(10) 0.5891(4) 0.0447 Uani
H3B H 0.5684 0.1429 -0.0749 0.0530 Uiso
H3D H 0.8571 0.4255 -0.0749 0.0530 Uiso
H3I H 0.5684 0.4255 0.5749 0.0530 Uiso
H3J H 0.8571 0.4316 0.5749 0.0530 Uiso
H3K H 0.5745 0.1429 0.5749 0.0530 Uiso
C3B C 0.7258(7) 0.1456(9) -0.0433(4) 0.0383 Uani
C3D C 0.8544(9) 0.5802(6) -0.0433(4) 0.0383 Uani
C3I C 0.7258(7) 0.5802(6) 0.5433(4) 0.0383 Uani
C3J C 0.8544(9) 0.2742(7) 0.5433(4) 0.0383 Uani
C3K C 0.4198(6) 0.1456(9) 0.5433(4) 0.0383 Uani
C4B C 0.7645(8) 0.2131(10) 0.0325(3) 0.0402 Uani
C4D C 0.7869(10) 0.5514(6) 0.0325(3) 0.0402 Uani
C4I C 0.7645(8) 0.5514(6) 0.4675(3) 0.0402 Uani
C4J C 0.7869(10) 0.2355(8) 0.4675(3) 0.0402 Uani
C4K C 0.4486(6) 0.2131(10) 0.4675(3) 0.0402 Uani
H4B H 0.7080 0.2312 0.0573 0.0480 Uiso
H4D H 0.7688 0.4768 0.0573 0.0480 Uiso
H4I H 0.7080 0.4768 0.4427 0.0480 Uiso
H4J H 0.7688 0.2920 0.4427 0.0480 Uiso
H4K H 0.5232 0.2312 0.4427 0.0480 Uiso
C5B C 0.8709(7) 0.2533(10) 0.0721(4) 0.0421 Uani
C5D C 0.7467(10) 0.6176(7) 0.0721(4) 0.0421 Uani
C5I C 0.8709(7) 0.6176(7) 0.4279(4) 0.0421 Uani
C5J C 0.7467(10) 0.1291(7) 0.4279(4) 0.0421 Uani
C5K C 0.3824(7) 0.2533(10) 0.4279(4) 0.0421 Uani
H5B H 0.9272 0.2299 0.0540 0.0510 Uiso
H5D H 0.7701 0.6973 0.0540 0.0510 Uiso
H5I H 0.9272 0.6973 0.4460 0.0510 Uiso
H5J H 0.7701 0.0728 0.4460 0.0510 Uiso
H5K H 0.3027 0.2299 0.4460 0.0510 Uiso
C6B C 0.8998(8) 0.3339(11) 0.1437(4) 0.0438 Uani
C6D C 0.6661(11) 0.5659(7) 0.1437(4) 0.0438 Uani
C6I C 0.8998(8) 0.5659(7) 0.3563(4) 0.0438 Uani
C6J C 0.6661(11) 0.1002(8) 0.3563(4) 0.0438 Uani
C6K C 0.4341(7) 0.3339(11) 0.3563(4) 0.0438 Uani
loop_
_atom_site_aniso_label
_atom_site_aniso_U_11
_atom_site_aniso_U_22
_atom_site_aniso_U_33
_atom_site_aniso_U_23
_atom_site_aniso_U_13
_atom_site_aniso_U_12
S1 0.0459(14) 0.0459(14) 0.111(4) 0.000 0.000 0.0229(7)
O4 0.029(4) 0.056(7) 0.116(12) -0.007(8) -0.003(4) 0.028(4)
O5 0.073(15) 0.059(12) 0.14(2) -0.016(15) -0.016(15) 0.039(10)
O4B 0.056 0.029 0.116 0.004 0.007 0.028
O4D 0.029 0.029 0.116 0.003 -0.004 0.001
O5B 0.059 0.054 0.14 0 0.016 0.02
O5D 0.054 0.073 0.14 0.016 0 0.034
O5F 0.054 0.059 0.14 -0.016 0 0.02
O5H 0.059 0.073 0.14 0.016 0.016 0.039
O5G 0.073 0.054 0.14 0 -0.016 0.034
Cu1 0.0450(5) 0.0418(6) 0.0242(5) 0.000 -0.0048(4) 0.0209(3)
Cu2 0.0653(9) 0.0653(9) 0.0552(13) 0.000 0.000 0.0327(5)
O1 0.043(3) 0.049(3) 0.038(2) 0.010(2) -0.001(2) 0.015(2)
O2 0.068(4) 0.058(4) 0.069(4) 0.000(3) -0.037(3) 0.018(3)
N1 0.049(4) 0.052(3) 0.025(2) 0.001(2) -0.006(2) 0.026(3)
N2 0.043(3) 0.049(3) 0.038(3) -0.002(3) -0.009(2) 0.024(3)
C1 0.045(4) 0.049(4) 0.042(3) -0.004(3) -0.017(3) 0.020(3)
C2 0.047(4) 0.049(4) 0.034(3) -0.001(3) -0.007(3) 0.021(3)
C3 0.040(3) 0.044(3) 0.031(3) -0.003(3) -0.008(3) 0.021(3)
C4 0.046(3) 0.058(5) 0.026(2) 0.002(3) -0.007(2) 0.033(4)
C5 0.038(3) 0.042(4) 0.037(3) 0.000(3) -0.012(3) 0.013(3)
C6 0.044(4) 0.057(4) 0.034(3) -0.007(3) -0.010(3) 0.028(3)
Cu1B 0.0418 0.045 0.0242 -0.0048 0 0.0209
Cu1D 0.045 0.045 0.0242 0.0048 0.0048 0.0241
Cu1A 0.045 0.045 0.0242 -0.0048 -0.0048 0.0241
Cu1C 0.045 0.0418 0.0242 0 0.0048 0.0209
Cu1E 0.0418 0.045 0.0242 0.0048 0 0.0209
Cu1G 0.045 0.045 0.0242 -0.0048 -0.0048 0.0241
Cu1H 0.0418 0.045 0.0242 0.0048 0 0.0209
Cu1F 0.045 0.0418 0.0242 0 0.0048 0.0209
O1B 0.049 0.062 0.038 -0.011 -0.01 0.034
O1D 0.062 0.043 0.038 0.001 0.011 0.028
O1I 0.049 0.043 0.038 -0.001 0.01 0.015
O1J 0.062 0.049 0.038 -0.01 -0.011 0.034
O1K 0.043 0.062 0.038 0.011 0.001 0.028
O2B 0.058 0.09 0.069 -0.037 0 0.04
O2D 0.09 0.068 0.069 0.037 0.037 0.05
O2I 0.058 0.068 0.069 -0.037 0 0.018
O2J 0.09 0.058 0.069 0 -0.037 0.04
O2K 0.068 0.09 0.069 0.037 0.037 0.05
N1B 0.052 0.049 0.025 -0.007 -0.001 0.026
N1D 0.049 0.049 0.025 0.006 0.007 0.023
N1I 0.052 0.049 0.025 -0.006 0.001 0.026
N1J 0.049 0.052 0.025 -0.001 -0.007 0.026
N1K 0.049 0.049 0.025 0.007 0.006 0.023
N1E 0.052 0.049 0.025 0.007 0.001 0.026
N1G 0.049 0.049 0.025 -0.007 -0.006 0.023
N1A 0.049 0.049 0.025 -0.006 -0.007 0.023
N1F 0.049 0.052 0.025 0.001 0.007 0.026
N1C 0.049 0.052 0.025 -0.001 0.006 0.026
N1H 0.052 0.049 0.025 0.006 -0.001 0.026
N2B 0.049 0.044 0.038 -0.007 0.002 0.025
N2D 0.044 0.043 0.038 0.009 0.007 0.019
N2I 0.049 0.043 0.038 -0.009 -0.002 0.024
N2J 0.044 0.049 0.038 0.002 -0.007 0.025
N2K 0.043 0.044 0.038 0.007 0.009 0.019
C1B 0.049 0.054 0.042 -0.013 0.004 0.029
C1D 0.054 0.045 0.042 0.017 0.013 0.025
C1I 0.049 0.045 0.042 -0.017 -0.004 0.02
C1J 0.054 0.049 0.042 0.004 -0.013 0.029
C1K 0.045 0.054 0.042 0.013 0.017 0.025
C2B 0.049 0.054 0.034 -0.006 0.001 0.028
C2D 0.054 0.047 0.034 0.007 0.006 0.026
C2I 0.049 0.047 0.034 -0.007 -0.001 0.021
C2J 0.054 0.049 0.034 0.001 -0.006 0.028
C2K 0.047 0.054 0.034 0.006 0.007 0.026
C3B 0.044 0.042 0.031 -0.005 0.003 0.023
C3D 0.042 0.04 0.031 0.008 0.005 0.019
C3I 0.044 0.04 0.031 -0.008 -0.003 0.021
C3J 0.042 0.044 0.031 0.003 -0.005 0.023
C3K 0.04 0.042 0.031 0.005 0.008 0.019
C4B 0.058 0.038 0.026 -0.009 -0.002 0.025
C4D 0.038 0.046 0.026 0.007 0.009 0.013
C4I 0.058 0.046 0.026 -0.007 0.002 0.033
C4J 0.038 0.058 0.026 -0.002 -0.009 0.025
C4K 0.046 0.038 0.026 0.009 0.007 0.013
C5B 0.042 0.054 0.037 -0.012 0 0.029
C5D 0.054 0.038 0.037 0.012 0.012 0.025
C5I 0.042 0.038 0.037 -0.012 0 0.013
C5J 0.054 0.042 0.037 0 -0.012 0.029
C5K 0.038 0.054 0.037 0.012 0.012 0.025
C6B 0.057 0.045 0.034 -0.003 0.007 0.029
C6D 0.045 0.044 0.034 0.01 0.003 0.016
C6I 0.057 0.044 0.034 -0.01 -0.007 0.028
C6J 0.045 0.057 0.034 0.007 -0.003 0.029
C6K 0.044 0.045 0.034 0.003 0.01 0.016
loop_
_geom_bond_atom_site_label_1
_geom_bond_atom_site_label_2
_geom_bond_site_symmetry_1
_geom_bond_site_symmetry_2
Cu1 O1 1_555 1_555
Cu2 O2 1_555 1_555
O1 C6 1_555 1_555
O2 C6 1_555 1_555
N1 C1 1_555 1_555
N2 H1 1_555 1_555
C1 N2 1_555 1_555
H2 C1 1_555 1_555
C2 N1 1_555 1_555
H3 C2 1_555 1_555
C3 N2 1_555 1_555
C4 C3 1_555 1_555
H4 C4 1_555 1_555
C5 C4 1_555 1_555
H5 C5 1_555 1_555
C6 C5 1_555 1_555
S1 O4 1_555 1_555
O4 O5B 1_555 1_555
O5 S1 1_555 1_555
Cu1B O1B 1_555 1_555
Cu1D O1D 1_555 1_555
Cu1A N1 1_555 1_555
Cu1C N1B 1_555 1_555
Cu1E N1D 1_555 1_555
Cu1G N1I 1_555 1_555
Cu1H N1J 1_555 1_555
Cu1F N1K 1_555 1_555
O1B C6B 1_555 1_555
O1D C6D 1_555 1_555
O1I Cu1B 1_555 1_555
O1J Cu1 1_555 1_555
O1K Cu1D 1_555 1_555
O2B Cu2 1_555 1_555
O2D Cu2 1_555 1_555
O2I Cu2 1_555 1_555
O2J Cu2 1_555 1_555
O2K Cu2 1_555 1_555
N1B C1B 1_555 1_555
N1D C1D 1_555 1_555
N1I C1I 1_555 1_555
N1J C1J 1_555 1_555
N1K C1K 1_555 1_555
N1E Cu1 1_555 1_555
N1G Cu1 1_555 1_555
N1A Cu1B 1_555 1_555
N1F Cu1B 1_555 1_555
N1C Cu1D 1_555 1_555
N1H Cu1D 1_555 1_555
N2B H1B 1_555 1_555
N2D H1D 1_555 1_555
N2I H1I 1_555 1_555
N2J H1J 1_555 1_555
N2K H1K 1_555 1_555
C1B N2B 1_555 1_555
C1D N2D 1_555 1_555
C1I N2I 1_555 1_555
C1J N2J 1_555 1_555
C1K N2K 1_555 1_555
H2B C1B 1_555 1_555
H2D C1D 1_555 1_555
H2I C1I 1_555 1_555
H2J C1J 1_555 1_555
H2K C1K 1_555 1_555
C2B N1B 1_555 1_555
C2D N1D 1_555 1_555
C2I N1I 1_555 1_555
C2J N1J 1_555 1_555
C2K N1K 1_555 1_555
H3B C2B 1_555 1_555
H3D C2D 1_555 1_555
H3I C2I 1_555 1_555
H3J C2J 1_555 1_555
H3K C2K 1_555 1_555
C3B N2B 1_555 1_555
C3D N2D 1_555 1_555
C3I N2I 1_555 1_555
C3J N2J 1_555 1_555
C3K N2K 1_555 1_555
C4B C3B 1_555 1_555
C4D C3D 1_555 1_555
C4I C3I 1_555 1_555
C4J C3J 1_555 1_555
C4K C3K 1_555 1_555
H4B C4B 1_555 1_555
H4D C4D 1_555 1_555
H4I C4I 1_555 1_555
H4J C4J 1_555 1_555
H4K C4K 1_555 1_555
C5B C4B 1_555 1_555
C5D C4D 1_555 1_555
C5I C4I 1_555 1_555
C5J C4J 1_555 1_555
C5K C4K 1_555 1_555
H5B C5B 1_555 1_555
H5D C5D 1_555 1_555
H5I C5I 1_555 1_555
H5J C5J 1_555 1_555
H5K C5K 1_555 1_555
C6B O2B 1_555 1_555
C6D O2D 1_555 1_555
C6I O1I 1_555 1_555
C6J O1J 1_555 1_555
C6K O1K 1_555 1_555
O4B S1 1_555 1_555
O4D S1 1_555 1_555
O5B S1 1_555 1_555
O5D S1 1_555 1_555
O5F S1 1_555 1_555
O5H S1 1_555 1_555
O5G S1 1_555 1_555
C2 C3 1_555 1_555
O4 O5G 1_555 1_555
O5 O4D 1_555 1_555
O5 O5B 1_555 1_555
O5 O5D 1_555 1_555
O2I C6I 1_555 1_555
O2J C6J 1_555 1_555
O2K C6K 1_555 1_555
C2B C3B 1_555 1_555
C2D C3D 1_555 1_555
C2I C3I 1_555 1_555
C2J C3J 1_555 1_555
C2K C3K 1_555 1_555
C5B C6B 1_555 1_555
C5D C6D 1_555 1_555
C5I C6I 1_555 1_555
C5J C6J 1_555 1_555
C5K C6K 1_555 1_555
O4B O5D 1_555 1_555
O4B O5F 1_555 1_555
O4D O5H 1_555 1_555
O5B O5D 1_555 1_555
O5F O5H 1_555 1_555
O5F O5G 1_555 1_555
O5H O5G 1_555 1_555

#END
