
#######################################################################
#
#                 Cambridge Crystallographic Data Centre
#                                CCDC 
#
#######################################################################
#
# If this CIF has been generated from an entry in the Cambridge 
# Structural Database, then it will include bibliographic, chemical, 
# crystal, experimental, refinement or atomic coordinate data resulting 
# from the CCDC's data processing and validation procedures.
#
#######################################################################

data_IBUBEP
_chemical_formula_moiety         '(C40 H32 Cd5 N20 O16 2-)n'
_symmetry_cell_setting           orthorhombic
_symmetry_space_group_name_H-M   'I b c a'
_symmetry_Int_Tables_number      73
_space_group_name_Hall           '-I 2b 2c'
loop_
_symmetry_equiv_pos_site_id
_symmetry_equiv_pos_as_xyz
1 x,y,z
2 1/2-x,-y,1/2+z
3 -x,1/2+y,1/2-z
4 1/2+x,1/2-y,-z
5 1/2+x,1/2+y,1/2+z
6 -x,1/2-y,z
7 1/2-x,y,-z
8 x,-y,1/2-z
9 -x,-y,-z
10 1/2+x,y,1/2-z
11 x,1/2-y,1/2+z
12 1/2-x,1/2+y,z
13 1/2-x,1/2-y,1/2-z
14 x,1/2+y,-z
15 1/2+x,-y,z
16 -x,y,1/2+z
_cell_length_a                   17.4956(8)
_cell_length_b                   29.4158(11)
_cell_length_c                   35.2708(14)
_cell_angle_alpha                90
_cell_angle_beta                 90
_cell_angle_gamma                90
_cell_volume                     18152
loop_
_atom_site_label
_atom_site_type_symbol
_atom_site_fract_x
_atom_site_fract_y
_atom_site_fract_z
_atom_site_U_iso_or_equiv
_atom_site_thermal_displace_type
Cd1 Cd 0.70141(4) 0.10061(2) 0.599126(18) 0.0372 Uani
Cd2 Cd 0.7500 0.06675(3) 0.5000 0.0337 Uani
Cd3 Cd 1.07223(4) 0.10432(2) 0.588512(18) 0.0378 Uani
C1 C 1.1453(13) 0.2144(5) 0.4877(5) 0.1680 Uani
H1 H 1.1569 0.1851 0.4795 0.2010 Uiso
C2 C 1.1584(16) 0.2504(5) 0.4634(5) 0.2217 Uani
H2 H 1.1724 0.2455 0.4383 0.2650 Uiso
C3 C 1.1498(8) 0.2941(4) 0.4778(3) 0.0777 Uani
C4 C 1.1688(8) 0.3347(4) 0.4527(3) 0.0663 Uani
C5 C 1.0984(7) 0.1786(5) 0.5460(4) 0.0660 Uani
C6 C 1.1261(6) 0.2991(3) 0.5137(3) 0.0520 Uani
H3 H 1.1230 0.3282 0.5238 0.0620 Uiso
C7 C 0.5819(8) 0.0880(5) 0.7706(3) 0.0800 Uani
H4 H 0.5393 0.0727 0.7798 0.0960 Uiso
C8 C 1.1169(8) 0.2200(4) 0.5221(3) 0.0747 Uani
C9 C 1.1062(6) 0.2631(4) 0.5360(3) 0.0577 Uani
H5 H 1.0860 0.2676 0.5601 0.0690 Uiso
C10 C 0.6971(8) 0.1268(5) 0.7808(3) 0.0867 Uani
H6 H 0.7320 0.1391 0.7978 0.1040 Uiso
C11 C 0.6229(6) 0.0007(3) 0.5934(3) 0.0497 Uani
C12 C 0.6545(5) -0.0227(3) 0.5390(3) 0.0367 Uani
C13 C 0.7126(8) 0.1277(5) 0.7421(3) 0.0873 Uani
H7 H 0.7575 0.1410 0.7334 0.1050 Uiso
C14 C 0.5959(8) 0.0907(4) 0.7311(3) 0.0783 Uani
H8 H 0.5595 0.0797 0.7142 0.0940 Uiso
C15 C 0.6805(8) 0.1092(4) 0.6756(3) 0.0573 Uani
C16 C 0.6124(8) 0.1071(4) 0.8371(3) 0.0580 Uani
C17 C 0.9144(6) 0.0801(3) 0.5431(2) 0.0393 Uani
C18 C 0.6308(7) 0.1079(4) 0.7940(3) 0.0513 Uani
C19 C 0.8869(6) 0.1019(4) 0.5975(3) 0.0487 Uani
C20 C 0.6630(7) 0.1095(3) 0.7171(3) 0.0477 Uani
N1 N 0.5973(7) 0.0027(4) 0.6292(3) 0.1140 Uani
H9 H 0.6029 0.0273 0.6422 0.1370 Uiso
H10 H 0.5752 -0.0205 0.6392 0.1370 Uiso
N2 N 0.6609(5) -0.0498(3) 0.5073(2) 0.0620 Uani
H11 H 0.6805 -0.0391 0.4868 0.0750 Uiso
H12 H 0.6453 -0.0775 0.5080 0.0750 Uiso
N3 N 0.8949(5) 0.1176(4) 0.6350(2) 0.0907 Uani
H13 H 0.8550 0.1222 0.6488 0.1090 Uiso
H14 H 0.9397 0.1227 0.6442 0.1090 Uiso
N4 N 0.9569(5) 0.0670(3) 0.5114(2) 0.0590 Uani
H15 H 0.9340 0.0568 0.4915 0.0710 Uiso
H16 H 1.0059 0.0691 0.5117 0.0710 Uiso
N5 N 0.8403(4) 0.0783(3) 0.54549(18) 0.0367 Uani
N6 N 0.9481(5) 0.0935(3) 0.5754(2) 0.0483 Uani
N7 N 0.8231(4) 0.0936(3) 0.5819(2) 0.0407 Uani
N8 N 0.6202(4) -0.0377(3) 0.5704(2) 0.0410 Uani
N9 N 0.6580(5) 0.0360(3) 0.5762(2) 0.0427 Uani
N10 N 0.6774(4) 0.0198(3) 0.53943(18) 0.0393 Uani
O1 O 1.1710(7) 0.3279(3) 0.4167(2) 0.1027 Uani
O2 O 1.1122(7) 0.1406(3) 0.5346(3) 0.1247 Uani
O3 O 0.6603(5) 0.1220(3) 0.8601(2) 0.0810 Uani
O4 O 1.0713(5) 0.1848(2) 0.5796(2) 0.0723 Uani
O5 O 0.6282(6) 0.0932(3) 0.6532(2) 0.0813 Uani
O6 O 0.5503(5) 0.0899(3) 0.8474(2) 0.0643 Uani
O7 O 0.7405(5) 0.1238(4) 0.6641(2) 0.0870 Uani
O8 O 1.1768(4) 0.3723(2) 0.46682(17) 0.0457 Uani
Cd1E Cd 1.29859(4) 0.39939(2) 0.599126(18) 0.0372 Uani
Cd3E Cd 0.92777(4) 0.39568(2) 0.588512(18) 0.0378 Uani
C1E C 0.8547(13) 0.2856(5) 0.4877(5) 0.1680 Uani
H1E H 0.8431 0.3149 0.4795 0.2010 Uiso
C2E C 0.8416(16) 0.2496(5) 0.4634(5) 0.2217 Uani
H2E H 0.8276 0.2545 0.4383 0.2650 Uiso
C3E C 0.8502(8) 0.2059(4) 0.4778(3) 0.0777 Uani
C4E C 0.8312(8) 0.1653(4) 0.4527(3) 0.0663 Uani
C5E C 0.9016(7) 0.3214(5) 0.5460(4) 0.0660 Uani
C6E C 0.8739(6) 0.2009(3) 0.5137(3) 0.0520 Uani
H3E H 0.8770 0.1718 0.5238 0.0620 Uiso
C7E C 1.4181(8) 0.4120(5) 0.7706(3) 0.0800 Uani
H4E H 1.4607 0.4273 0.7798 0.0960 Uiso
C8E C 0.8831(8) 0.2800(4) 0.5221(3) 0.0747 Uani
C9E C 0.8938(6) 0.2369(4) 0.5360(3) 0.0577 Uani
H5E H 0.9140 0.2324 0.5601 0.0690 Uiso
C10E C 1.3029(8) 0.3732(5) 0.7808(3) 0.0867 Uani
H6E H 1.2680 0.3609 0.7978 0.1040 Uiso
C11E C 1.3771(6) 0.4993(3) 0.5934(3) 0.0497 Uani
C12E C 1.3455(5) 0.5227(3) 0.5390(3) 0.0367 Uani
C13E C 1.2874(8) 0.3723(5) 0.7421(3) 0.0873 Uani
H7E H 1.2425 0.3590 0.7334 0.1050 Uiso
C14E C 1.4041(8) 0.4093(4) 0.7311(3) 0.0783 Uani
H8E H 1.4405 0.4203 0.7142 0.0940 Uiso
C15E C 1.3195(8) 0.3908(4) 0.6756(3) 0.0573 Uani
C16E C 1.3876(8) 0.3929(4) 0.8371(3) 0.0580 Uani
C17E C 1.0856(6) 0.4199(3) 0.5431(2) 0.0393 Uani
C18E C 1.3692(7) 0.3921(4) 0.7940(3) 0.0513 Uani
C19E C 1.1131(6) 0.3981(4) 0.5975(3) 0.0487 Uani
C20E C 1.3370(7) 0.3905(3) 0.7171(3) 0.0477 Uani
N1E N 1.4027(7) 0.4973(4) 0.6292(3) 0.1140 Uani
H9E H 1.3971 0.4727 0.6422 0.1370 Uiso
H10E H 1.4248 0.5205 0.6392 0.1370 Uiso
N2E N 1.3391(5) 0.5498(3) 0.5073(2) 0.0620 Uani
H11E H 1.3195 0.5391 0.4868 0.0750 Uiso
H12E H 1.3547 0.5775 0.5080 0.0750 Uiso
N3E N 1.1051(5) 0.3824(4) 0.6350(2) 0.0907 Uani
H13E H 1.1450 0.3778 0.6488 0.1090 Uiso
H14E H 1.0603 0.3773 0.6442 0.1090 Uiso
N4E N 1.0431(5) 0.4330(3) 0.5114(2) 0.0590 Uani
H15E H 1.0660 0.4432 0.4915 0.0710 Uiso
H16E H 0.9941 0.4309 0.5117 0.0710 Uiso
N5E N 1.1597(4) 0.4217(3) 0.54549(18) 0.0367 Uani
N6E N 1.0519(5) 0.4065(3) 0.5754(2) 0.0483 Uani
N7E N 1.1769(4) 0.4064(3) 0.5819(2) 0.0407 Uani
N8E N 1.3798(4) 0.5377(3) 0.5704(2) 0.0410 Uani
N9E N 1.3420(5) 0.4640(3) 0.5762(2) 0.0427 Uani
N10E N 1.3226(4) 0.4802(3) 0.53943(18) 0.0393 Uani
O1E O 0.8290(7) 0.1721(3) 0.4167(2) 0.1027 Uani
O2E O 0.8878(7) 0.3594(3) 0.5346(3) 0.1247 Uani
O3E O 1.3397(5) 0.3780(3) 0.8601(2) 0.0810 Uani
O4E O 0.9287(5) 0.3152(2) 0.5796(2) 0.0723 Uani
O5E O 1.3718(6) 0.4068(3) 0.6532(2) 0.0813 Uani
O6E O 1.4497(5) 0.4101(3) 0.8474(2) 0.0643 Uani
O7E O 1.2595(5) 0.3762(4) 0.6641(2) 0.0870 Uani
O8E O 0.8232(4) 0.1277(2) 0.46682(17) 0.0457 Uani
Cd1C Cd 1.20141(4) 0.39939(2) 0.400874(18) 0.0372 Uani
Cd1F Cd 0.79859(4) 0.10061(2) 0.400874(18) 0.0372 Uani
Cd2C Cd 1.2500 0.43325(3) 0.5000 0.0337 Uani
Cd3I Cd 0.57223(4) 0.10432(2) 0.911488(18) 0.0378 Uani
Cd3K Cd 1.42777(4) 0.60432(2) 0.588512(18) 0.0378 Uani
Cd3L Cd 1.42777(4) 0.39568(2) 0.911488(18) 0.0378 Uani
Cd3N Cd 0.57223(4) -0.10432(2) 0.588512(18) 0.0378 Uani
N5F N 0.6597(4) 0.0783(3) 0.45451(18) 0.0367 Uani
N8K N 0.8798(4) 0.4623(3) 0.5704(2) 0.0410 Uani
N8N N 1.1202(4) 0.0377(3) 0.5704(2) 0.0410 Uani
N10F N 0.8226(4) 0.0198(3) 0.46057(18) 0.0393 Uani
O1C O 0.6710(7) 0.1721(3) 0.5833(2) 0.1027 Uani
O1F O 1.3290(7) 0.3279(3) 0.5833(2) 0.1027 Uani
O3I O 1.1603(5) 0.1220(3) 0.6399(2) 0.0810 Uani
O3L O 0.8397(5) 0.3780(3) 0.6399(2) 0.0810 Uani
O6I O 1.0503(5) 0.0899(3) 0.6526(2) 0.0643 Uani
O6L O 0.9497(5) 0.4101(3) 0.6526(2) 0.0643 Uani
O8C O 0.6768(4) 0.1277(2) 0.53318(17) 0.0457 Uani
O8F O 1.3232(4) 0.3723(2) 0.53318(17) 0.0457 Uani
loop_
_atom_site_aniso_label
_atom_site_aniso_U_11
_atom_site_aniso_U_22
_atom_site_aniso_U_33
_atom_site_aniso_U_23
_atom_site_aniso_U_13
_atom_site_aniso_U_12
Cd1 0.0578(5) 0.0372(4) 0.0165(4) -0.0008(3) 0.0047(3) -0.0003(4)
Cd2 0.0501(6) 0.0379(6) 0.0131(5) 0.000 -0.0012(4) 0.000
Cd3 0.0563(5) 0.0335(4) 0.0237(4) 0.0006(3) -0.0068(3) -0.0012(4)
C1 0.37(3) 0.028(8) 0.106(13) 0.013(8) 0.107(17) 0.004(12)
C2 0.52 0.039 0.106 0.004 0.17 -0.024
C3 0.158 0.053 0.022 -0.001 0.006 -0.025
C4 0.122 0.052 0.025 0.004 0.009 -0.014
C5 0.065(8) 0.059(9) 0.074(10) 0.008(7) -0.001(7) -0.011(6)
C6 0.087 0.028 0.041 0.012 -0.002 -0.001
C7 0.11 0.09 0.04 -0.015 0.016 -0.029
C8 0.142(12) 0.039(7) 0.043(7) 0.006(6) 0.022(7) -0.011(7)
C9 0.082(8) 0.043(7) 0.048(7) 0.010(6) 0.016(6) 0.003(6)
C10 0.118(12) 0.118(12) 0.024(7) -0.027(7) 0.001(7) 0.004(10)
C11 0.08 0.033 0.036 -0.014 0.017 -0.009
C12 0.040(6) 0.036(6) 0.034(6) 0.001(5) 0.007(4) 0.005(5)
C13 0.089(10) 0.128(12) 0.045(9) 0.033(8) 0.040(7) -0.020(9)
C14 0.120(12) 0.078(9) 0.037(7) 0.008(6) 0.010(7) -0.004(8)
C15 0.087(10) 0.056(8) 0.029(7) 0.005(6) 0.007(7) 0.017(7)
C16 0.088 0.051 0.035 0.017 0.019 0.036
C17 0.044(6) 0.067(7) 0.007(5) -0.005(5) -0.002(4) 0.005(5)
C18 0.078 0.07 0.006 0.014 0.004 0.012
C19 0.049(7) 0.068(8) 0.029(6) -0.011(5) 0.009(5) -0.002(6)
C20 0.079(8) 0.050(7) 0.014(5) -0.002(5) 0.023(5) -0.001(6)
N1 0.234 0.061 0.047 -0.006 0.076 -0.044
N2 0.105(7) 0.053(6) 0.028(5) -0.028(4) 0.019(5) -0.031(5)
N3 0.066(7) 0.178(12) 0.028(5) -0.043(7) -0.002(5) 0.018(7)
N4 0.049(5) 0.089(7) 0.039(5) -0.025(5) -0.008(4) 0.014(5)
N5 0.048 0.054 0.008 -0.001 0.002 0.001
N6 0.061(6) 0.065(6) 0.019(4) -0.020(4) -0.015(4) -0.012(4)
N7 0.033(5) 0.073(6) 0.016(4) -0.011(4) -0.008(3) 0.000(4)
N8 0.068 0.032 0.023 -0.004 0.014 -0.007
N9 0.067(6) 0.041(5) 0.020(4) 0.000(4) 0.011(4) -0.007(4)
N10 0.061(5) 0.046(5) 0.011(4) -0.006(4) 0.001(3) -0.006(4)
O1 0.212 0.053 0.043 -0.005 0.027 -0.045
O2 0.224(13) 0.036(5) 0.114(8) 0.022(6) 0.096(8) 0.009(6)
O3 0.101 0.116 0.026 -0.009 0.002 -0.006
O4 0.134(7) 0.047(5) 0.036(5) 0.007(4) 0.002(5) -0.011(5)
O5 0.142(9) 0.061(6) 0.041(5) -0.005(4) 0.016(5) -0.010(5)
O6 0.084 0.075 0.034 0.015 0.019 0.01
O7 0.074(6) 0.156(9) 0.031(4) -0.001(5) 0.015(4) 0.005(6)
O8 0.081 0.028 0.028 0 0.002 -0.009
Cd1E 0.0578 0.0372 0.0165 0.0008 -0.0047 -0.0003
Cd3E 0.0563 0.0335 0.0237 -0.0006 0.0068 -0.0012
C1E 0.37 0.028 0.106 -0.013 -0.107 0.004
C2E 0.52 0.039 0.106 -0.004 -0.17 -0.024
C3E 0.158 0.053 0.022 0.001 -0.006 -0.025
C4E 0.122 0.052 0.025 -0.004 -0.009 -0.014
C5E 0.065 0.059 0.074 -0.008 0.001 -0.011
C6E 0.087 0.028 0.041 -0.012 0.002 -0.001
C7E 0.11 0.09 0.04 0.015 -0.016 -0.029
C8E 0.142 0.039 0.043 -0.006 -0.022 -0.011
C9E 0.082 0.043 0.048 -0.01 -0.016 0.003
C10E 0.118 0.118 0.024 0.027 -0.001 0.004
C11E 0.08 0.033 0.036 0.014 -0.017 -0.009
C12E 0.04 0.036 0.034 -0.001 -0.007 0.005
C13E 0.089 0.128 0.045 -0.033 -0.04 -0.02
C14E 0.12 0.078 0.037 -0.008 -0.01 -0.004
C15E 0.087 0.056 0.029 -0.005 -0.007 0.017
C16E 0.088 0.051 0.035 -0.017 -0.019 0.036
C17E 0.044 0.067 0.007 0.005 0.002 0.005
C18E 0.078 0.07 0.006 -0.014 -0.004 0.012
C19E 0.049 0.068 0.029 0.011 -0.009 -0.002
C20E 0.079 0.05 0.014 0.002 -0.023 -0.001
N1E 0.234 0.061 0.047 0.006 -0.076 -0.044
N2E 0.105 0.053 0.028 0.028 -0.019 -0.031
N3E 0.066 0.178 0.028 0.043 0.002 0.018
N4E 0.049 0.089 0.039 0.025 0.008 0.014
N5E 0.048 0.054 0.008 0.001 -0.002 0.001
N6E 0.061 0.065 0.019 0.02 0.015 -0.012
N7E 0.033 0.073 0.016 0.011 0.008 0
N8E 0.068 0.032 0.023 0.004 -0.014 -0.007
N9E 0.067 0.041 0.02 0 -0.011 -0.007
N10E 0.061 0.046 0.011 0.006 -0.001 -0.006
O1E 0.212 0.053 0.043 0.005 -0.027 -0.045
O2E 0.224 0.036 0.114 -0.022 -0.096 0.009
O3E 0.101 0.116 0.026 0.009 -0.002 -0.006
O4E 0.134 0.047 0.036 -0.007 -0.002 -0.011
O5E 0.142 0.061 0.041 0.005 -0.016 -0.01
O6E 0.084 0.075 0.034 -0.015 -0.019 0.01
O7E 0.074 0.156 0.031 0.001 -0.015 0.005
O8E 0.081 0.028 0.028 0 -0.002 -0.009
Cd1C 0.0578 0.0372 0.0165 -0.0008 -0.0047 0.0003
Cd1F 0.0578 0.0372 0.0165 0.0008 0.0047 0.0003
Cd2C 0.0501 0.0379 0.0131 0 0.0012 0
Cd3I 0.0563 0.0335 0.0237 -0.0006 0.0068 -0.0012
Cd3K 0.0563 0.0335 0.0237 0.0006 0.0068 0.0012
Cd3L 0.0563 0.0335 0.0237 0.0006 -0.0068 -0.0012
Cd3N 0.0563 0.0335 0.0237 -0.0006 -0.0068 0.0012
N5F 0.048 0.054 0.008 0.001 0.002 -0.001
N8K 0.068 0.032 0.023 -0.004 -0.014 0.007
N8N 0.068 0.032 0.023 0.004 0.014 0.007
N10F 0.061 0.046 0.011 0.006 0.001 0.006
O1C 0.212 0.053 0.043 -0.005 -0.027 0.045
O1F 0.212 0.053 0.043 0.005 0.027 0.045
O3I 0.101 0.116 0.026 0.009 -0.002 -0.006
O3L 0.101 0.116 0.026 -0.009 0.002 -0.006
O6I 0.084 0.075 0.034 -0.015 -0.019 0.01
O6L 0.084 0.075 0.034 0.015 0.019 0.01
O8C 0.081 0.028 0.028 0 -0.002 0.009
O8F 0.081 0.028 0.028 0 0.002 0.009
loop_
_geom_bond_atom_site_label_1
_geom_bond_atom_site_label_2
_geom_bond_site_symmetry_1
_geom_bond_site_symmetry_2
Cd1 N7 1_555 1_555
Cd2 N5 1_555 1_555
Cd3 N6 1_555 1_555
C1 H1 1_555 1_555
C2 C1 1_555 1_555
H2 C2 1_555 1_555
C3 C2 1_555 1_555
C4 C3 1_555 1_555
C5 C8 1_555 1_555
C6 C3 1_555 1_555
H3 C6 1_555 1_555
C7 H4 1_555 1_555
C8 C1 1_555 1_555
C9 C6 1_555 1_555
H5 C9 1_555 1_555
C10 H6 1_555 1_555
C11 N1 1_555 1_555
C12 N2 1_555 1_555
C13 C10 1_555 1_555
H7 C13 1_555 1_555
C14 C7 1_555 1_555
H8 C14 1_555 1_555
C15 C20 1_555 1_555
C16 C18 1_555 1_555
C17 N4 1_555 1_555
C18 C7 1_555 1_555
C19 N3 1_555 1_555
C20 C13 1_555 1_555
N1 H9 1_555 1_555
H10 N1 1_555 1_555
N2 H11 1_555 1_555
H12 N2 1_555 1_555
N3 H13 1_555 1_555
H14 N3 1_555 1_555
N4 H15 1_555 1_555
H16 N4 1_555 1_555
N5 C17 1_555 1_555
N6 C17 1_555 1_555
N7 C19 1_555 1_555
N8 C11 1_555 1_555
N9 Cd1 1_555 1_555
N10 Cd2 1_555 1_555
O1 C4 1_555 1_555
O2 Cd3 1_555 1_555
O3 C16 1_555 1_555
O4 Cd3 1_555 1_555
O5 Cd1 1_555 1_555
O6 C16 1_555 1_555
O7 Cd1 1_555 1_555
O8 C4 1_555 1_555
Cd1E N7E 1_555 1_555
Cd3E N6E 1_555 1_555
C1E H1E 1_555 1_555
C2E C1E 1_555 1_555
H2E C2E 1_555 1_555
C3E C2E 1_555 1_555
C4E C3E 1_555 1_555
C5E C8E 1_555 1_555
C6E C3E 1_555 1_555
H3E C6E 1_555 1_555
C7E H4E 1_555 1_555
C8E C1E 1_555 1_555
C9E C6E 1_555 1_555
H5E C9E 1_555 1_555
C10E H6E 1_555 1_555
C11E N1E 1_555 1_555
C12E N2E 1_555 1_555
C13E C10E 1_555 1_555
H7E C13E 1_555 1_555
C14E C7E 1_555 1_555
H8E C14E 1_555 1_555
C15E C20E 1_555 1_555
C16E C18E 1_555 1_555
C17E N4E 1_555 1_555
C18E C7E 1_555 1_555
C19E N3E 1_555 1_555
C20E C13E 1_555 1_555
N1E H9E 1_555 1_555
H10E N1E 1_555 1_555
N2E H11E 1_555 1_555
H12E N2E 1_555 1_555
N3E H13E 1_555 1_555
H14E N3E 1_555 1_555
N4E H15E 1_555 1_555
H16E N4E 1_555 1_555
N5E C17E 1_555 1_555
N6E C17E 1_555 1_555
N7E C19E 1_555 1_555
N8E C11E 1_555 1_555
N9E Cd1E 1_555 1_555
N10E C12E 1_555 1_555
O1E C4E 1_555 1_555
O2E Cd3E 1_555 1_555
O3E C16E 1_555 1_555
O4E Cd3E 1_555 1_555
O5E Cd1E 1_555 1_555
O6E C16E 1_555 1_555
O7E Cd1E 1_555 1_555
O8E Cd2 1_555 1_555
Cd1C O1 1_555 1_555
Cd1F O1E 1_555 1_555
Cd2C O8 1_555 1_555
Cd3I O3 1_555 1_555
Cd3K N8E 1_555 1_555
Cd3L O3E 1_555 1_555
Cd3N N8 1_555 1_555
N5F Cd2 1_555 1_555
N8K Cd3E 1_555 1_555
N8N Cd3 1_555 1_555
N10F Cd2 1_555 1_555
O1C Cd1 1_555 1_555
O1F Cd1E 1_555 1_555
O3I Cd3 1_555 1_555
O3L Cd3E 1_555 1_555
O6I Cd3 1_555 1_555
O6L Cd3E 1_555 1_555
O8C Cd1 1_555 1_555
O8F Cd1E 1_555 1_555
Cd2 O8C 1_555 1_555
C5 O2 1_555 1_555
C5 O4 1_555 1_555
C8 C9 1_555 1_555
C10 C18 1_555 1_555
C11 N9 1_555 1_555
C12 N8 1_555 1_555
C12 N10 1_555 1_555
C14 C20 1_555 1_555
C15 O5 1_555 1_555
C15 O7 1_555 1_555
C19 N6 1_555 1_555
N5 N7 1_555 1_555
N9 N10 1_555 1_555
O6 Cd3I 1_555 1_555
O8 Cd1C 1_555 1_555
C4E O8E 1_555 1_555
C5E O2E 1_555 1_555
C5E O4E 1_555 1_555
C8E C9E 1_555 1_555
C10E C18E 1_555 1_555
C11E N9E 1_555 1_555
C12E N8E 1_555 1_555
C14E C20E 1_555 1_555
C15E O5E 1_555 1_555
C15E O7E 1_555 1_555
C19E N6E 1_555 1_555
N5E N7E 1_555 1_555
N5E Cd2C 1_555 1_555
N9E N10E 1_555 1_555
N10E Cd2C 1_555 1_555
O6E Cd3L 1_555 1_555
O8E Cd1F 1_555 1_555
Cd2C O8F 1_555 1_555

#END
