
#######################################################################
#
#                 Cambridge Crystallographic Data Centre
#                                CCDC 
#
#######################################################################
#
# If this CIF has been generated from an entry in the Cambridge 
# Structural Database, then it will include bibliographic, chemical, 
# crystal, experimental, refinement or atomic coordinate data resulting 
# from the CCDC's data processing and validation procedures.
#
#######################################################################

data_IWEVAJ
_chemical_formula_moiety         '(C48 H32 Cu7 N6 O34)n'
_symmetry_cell_setting           tetragonal
_symmetry_space_group_name_H-M   'I 4/m m m'
_symmetry_Int_Tables_number      139
_space_group_name_Hall           '-I 4 2'
loop_
_symmetry_equiv_pos_site_id
_symmetry_equiv_pos_as_xyz
1 x,y,z
2 -y,x,z
3 y,-x,z
4 x,-y,-z
5 -x,y,-z
6 -x,-y,z
7 y,x,-z
8 -y,-x,-z
9 1/2+x,1/2+y,1/2+z
10 1/2-y,1/2+x,1/2+z
11 1/2+y,1/2-x,1/2+z
12 1/2+x,1/2-y,1/2-z
13 1/2-x,1/2+y,1/2-z
14 1/2-x,1/2-y,1/2+z
15 1/2+y,1/2+x,1/2-z
16 1/2-y,1/2-x,1/2-z
17 -x,-y,-z
18 y,-x,-z
19 -y,x,-z
20 -x,y,z
21 x,-y,z
22 x,y,-z
23 -y,-x,z
24 y,x,z
25 1/2-x,1/2-y,1/2-z
26 1/2+y,1/2-x,1/2-z
27 1/2-y,1/2+x,1/2-z
28 1/2-x,1/2+y,1/2+z
29 1/2+x,1/2-y,1/2+z
30 1/2+x,1/2+y,1/2-z
31 1/2-y,1/2-x,1/2+z
32 1/2+y,1/2+x,1/2+z
_cell_length_a                   26.217(2)
_cell_length_b                   26.217(2)
_cell_length_c                   44.813(5)
_cell_angle_alpha                90
_cell_angle_beta                 90
_cell_angle_gamma                90
_cell_volume                     30801.4
loop_
_atom_site_label
_atom_site_type_symbol
_atom_site_fract_x
_atom_site_fract_y
_atom_site_fract_z
_atom_site_U_iso_or_equiv
_atom_site_thermal_displace_type
Cu1 Cu 0.21324(5) 0.21324(5) 0.500 0.0951 Uani
Cu2 Cu 0.28471(5) 0.28471(5) 0.500 0.0861 Uani
Cu3 Cu 0.28455(5) 0.500 0.37413(3) 0.0855 Uani
Cu4 Cu 0.21313(5) 0.500 0.33255(3) 0.0950 Uani
O1 O 0.1818(2) 0.2556(2) 0.46936(13) 0.1067 Uani
O2 O 0.1809(2) 0.44764(19) 0.35780(14) 0.0977 Uani
O3 O 0.2425(2) 0.31565(19) 0.46983(12) 0.0953 Uani
O4 O 0.2555(2) 0.44712(18) 0.31367(12) 0.0900 Uani
O5 O 0.31614(19) 0.44636(19) 0.35010(12) 0.0920 Uani
O6 O 0.2418(2) 0.44741(19) 0.39303(12) 0.0920 Uani
C1 C 0.2040(3) 0.4317(3) 0.3802(2) 0.0750 Uani
C2 C 0.2033(3) 0.2955(3) 0.46019(16) 0.0687 Uani
N1 N 0.3033(3) 0.3033(3) 0.2436(2) 0.0940 Uani
C3 C 0.3643(3) 0.3643(3) 0.3250(3) 0.0917 Uani
C4 C 0.2937(3) 0.4308(2) 0.32683(18) 0.0730 Uani
C5 C 0.3265(3) 0.3265(3) 0.2701(2) 0.0773 Uani
C6 C 0.3030(3) 0.3669(4) 0.28420(16) 0.0867 Uani
C7 C 0.2011(3) 0.3664(3) 0.42185(18) 0.0830 Uani
C8 C 0.1299(4) 0.3029(4) 0.4232(2) 0.1183 Uani
C9 C 0.1784(3) 0.3878(3) 0.3968(2) 0.1057 Uani
C10 C 0.1294(4) 0.3684(4) 0.3838(2) 0.1247 Uani
C11 C 0.1762(3) 0.3230(3) 0.43435(19) 0.0847 Uani
C12 C 0.1074(4) 0.3257(4) 0.3973(2) 0.1357 Uani
C13 C 0.3220(3) 0.3865(3) 0.31076(19) 0.0867 Uani
Cu5 Cu 0.250 0.250 0.250 0.1034 Uani
O7 O 0.1564(3) 0.1564(3) 0.500 0.1307 Uani
O8 O 0.3423(3) 0.3423(3) 0.500 0.1600 Uani
O9 O 0.1537(3) 0.500 0.29830(17) 0.1520 Uani
O10 O 0.3440(3) 0.500 0.40816(18) 0.1967 Uani
O11 O 0.1918(5) 0.3082(5) 0.250 0.1937 Uani
O12 O 0.2461(4) 0.2461(4) 0.1960(2) 0.2143 Uani
N2 N 0.0606(4) 0.3051(5) 0.3823(3) 0.2603 Uani
O4W O 0.44712(18) 0.2555(2) 0.31367(12) 0.0900 Uani
O5W O 0.44636(19) 0.31614(19) 0.35010(12) 0.0920 Uani
C4W C 0.4308(2) 0.2937(3) 0.32683(18) 0.0730 Uani
C6W C 0.3669(4) 0.3030(3) 0.28420(16) 0.0867 Uani
C13W C 0.3865(3) 0.3220(3) 0.31076(19) 0.0867 Uani
Cu3A Cu 0.500 0.28455(5) 0.37413(3) 0.0855 Uani
Cu4A Cu 0.500 0.21313(5) 0.33255(3) 0.0950 Uani
O1A O 0.7444(2) 0.1818(2) 0.46936(13) 0.1067 Uani
O2A O 0.55236(19) 0.1809(2) 0.35780(14) 0.0977 Uani
O3A O 0.68435(19) 0.2425(2) 0.46983(12) 0.0953 Uani
O4A O 0.55288(18) 0.2555(2) 0.31367(12) 0.0900 Uani
O5A O 0.55364(19) 0.31614(19) 0.35010(12) 0.0920 Uani
O6A O 0.55259(19) 0.2418(2) 0.39303(12) 0.0920 Uani
C1A C 0.5683(3) 0.2040(3) 0.3802(2) 0.0750 Uani
C2A C 0.7045(3) 0.2033(3) 0.46019(16) 0.0687 Uani
N1A N 0.6967(3) 0.3033(3) 0.2436(2) 0.0940 Uani
C3A C 0.6357(3) 0.3643(3) 0.3250(3) 0.0917 Uani
C4A C 0.5692(2) 0.2937(3) 0.32683(18) 0.0730 Uani
C5A C 0.6735(3) 0.3265(3) 0.2701(2) 0.0773 Uani
C6A C 0.6331(4) 0.3030(3) 0.28420(16) 0.0867 Uani
C7A C 0.6336(3) 0.2011(3) 0.42185(18) 0.0830 Uani
C8A C 0.6971(4) 0.1299(4) 0.4232(2) 0.1183 Uani
C9A C 0.6122(3) 0.1784(3) 0.3968(2) 0.1057 Uani
C10A C 0.6316(4) 0.1294(4) 0.3838(2) 0.1247 Uani
C11A C 0.6770(3) 0.1762(3) 0.43435(19) 0.0847 Uani
C12A C 0.6743(4) 0.1074(4) 0.3973(2) 0.1357 Uani
C13A C 0.6135(3) 0.3220(3) 0.31076(19) 0.0867 Uani
O9A O 0.500 0.1537(3) 0.29830(17) 0.1520 Uani
O10A O 0.500 0.3440(3) 0.40816(18) 0.1967 Uani
N2A N 0.6949(5) 0.0606(4) 0.3823(3) 0.2603 Uani
O4S O 0.7445(2) 0.44712(18) 0.31367(12) 0.0900 Uani
O5S O 0.68386(19) 0.44636(19) 0.35010(12) 0.0920 Uani
C4S C 0.7063(3) 0.4308(2) 0.32683(18) 0.0730 Uani
C6S C 0.6970(3) 0.3669(4) 0.28420(16) 0.0867 Uani
C13S C 0.6780(3) 0.3865(3) 0.31076(19) 0.0867 Uani
O1F O 0.2556(2) 0.1818(2) 0.53064(13) 0.1067 Uani
O2F O 0.44764(19) 0.1809(2) 0.64220(14) 0.0977 Uani
O3F O 0.31565(19) 0.2425(2) 0.53017(12) 0.0953 Uani
O6F O 0.44741(19) 0.2418(2) 0.60697(12) 0.0920 Uani
C1F C 0.4317(3) 0.2040(3) 0.6198(2) 0.0750 Uani
C2F C 0.2955(3) 0.2033(3) 0.53981(16) 0.0687 Uani
C7F C 0.3664(3) 0.2011(3) 0.57815(18) 0.0830 Uani
C8F C 0.3029(4) 0.1299(4) 0.5768(2) 0.1183 Uani
C9F C 0.3878(3) 0.1784(3) 0.6032(2) 0.1057 Uani
C10F C 0.3684(4) 0.1294(4) 0.6162(2) 0.1247 Uani
C11F C 0.3230(3) 0.1762(3) 0.56565(19) 0.0847 Uani
C12F C 0.3257(4) 0.1074(4) 0.6027(2) 0.1357 Uani
N2F N 0.3051(5) 0.0606(4) 0.6177(3) 0.2603 Uani
O1U O 0.1818(2) 0.2556(2) 0.53064(13) 0.1067 Uani
O2U O 0.1809(2) 0.44764(19) 0.64220(14) 0.0977 Uani
O3U O 0.2425(2) 0.31565(19) 0.53017(12) 0.0953 Uani
O6U O 0.2418(2) 0.44741(19) 0.60697(12) 0.0920 Uani
C1U C 0.2040(3) 0.4317(3) 0.6198(2) 0.0750 Uani
C2U C 0.2033(3) 0.2955(3) 0.53981(16) 0.0687 Uani
C7U C 0.2011(3) 0.3664(3) 0.57815(18) 0.0830 Uani
C8U C 0.1299(4) 0.3029(4) 0.5768(2) 0.1183 Uani
C9U C 0.1784(3) 0.3878(3) 0.6032(2) 0.1057 Uani
C10U C 0.1294(4) 0.3684(4) 0.6162(2) 0.1247 Uani
C11U C 0.1762(3) 0.3230(3) 0.56565(19) 0.0847 Uani
C12U C 0.1074(4) 0.3257(4) 0.6027(2) 0.1357 Uani
N2U N 0.0606(4) 0.3051(5) 0.6177(3) 0.2603 Uani
O12O O 0.2539(4) 0.2539(4) 0.3040(2) 0.2143 Uani
O11W O 0.3082(5) 0.1918(5) 0.250 0.1937 Uani
Cu1A Cu 0.78676(5) 0.21324(5) 0.500 0.0951 Uani
Cu2A Cu 0.71529(5) 0.28471(5) 0.500 0.0861 Uani
Cu3C Cu 0.28455(5) 0.500 0.62587(3) 0.0855 Uani
Cu3E Cu 0.71545(5) 0.500 0.37413(3) 0.0855 Uani
Cu3F Cu 0.500 0.28455(5) 0.62587(3) 0.0855 Uani
Cu4C Cu 0.21313(5) 0.500 0.66745(3) 0.0950 Uani
Cu4E Cu 0.78687(5) 0.500 0.33255(3) 0.0950 Uani
Cu4F Cu 0.500 0.21313(5) 0.66745(3) 0.0950 Uani
O1W O 0.2556(2) 0.1818(2) 0.46936(13) 0.1067 Uani
O2T O 0.1809(2) 0.55236(19) 0.35780(14) 0.0977 Uani
O2W O 0.44764(19) 0.1809(2) 0.35780(14) 0.0977 Uani
O3W O 0.31565(19) 0.2425(2) 0.46983(12) 0.0953 Uani
O4T O 0.2555(2) 0.55288(18) 0.31367(12) 0.0900 Uani
O5T O 0.31614(19) 0.55364(19) 0.35010(12) 0.0920 Uani
O6T O 0.2418(2) 0.55259(19) 0.39303(12) 0.0920 Uani
O6W O 0.44741(19) 0.2418(2) 0.39303(12) 0.0920 Uani
N1O N 0.1967(3) 0.1967(3) 0.2564(2) 0.0940 Uani
Cu5A Cu 0.750 0.250 0.250 0.1034 Uani
loop_
_atom_site_aniso_label
_atom_site_aniso_U_11
_atom_site_aniso_U_22
_atom_site_aniso_U_33
_atom_site_aniso_U_23
_atom_site_aniso_U_13
_atom_site_aniso_U_12
Cu1 0.0878(10) 0.0878(10) 0.1097(19) 0.000000 0.000000 -0.0221(11)
Cu2 0.0866(10) 0.0866(10) 0.0850(16) 0.000000 0.000000 -0.0184(10)
Cu3 0.0880(11) 0.0740(10) 0.0945(12) 0.000000 -0.0268(8) 0.000000
Cu4 0.0960(11) 0.0856(11) 0.1034(14) 0.000000 -0.0337(9) 0.000000
O1 0.096(4) 0.118(5) 0.106(5) 0.017(4) -0.021(4) -0.028(4)
O2 0.095(4) 0.093(4) 0.105(5) 0.013(4) -0.040(4) -0.020(3)
O3 0.106(4) 0.085(4) 0.095(4) 0.005(3) -0.019(4) -0.036(3)
O4 0.109(4) 0.072(3) 0.089(4) -0.022(3) -0.034(4) -0.004(3)
O5 0.096(4) 0.091(4) 0.089(4) -0.011(3) -0.046(4) 0.013(3)
O6 0.095(4) 0.080(4) 0.101(5) 0.009(3) -0.033(4) -0.023(3)
C1 0.091(6) 0.050(5) 0.084(7) 0.004(5) -0.049(5) -0.005(4)
C2 0.078(5) 0.088(6) 0.040(5) 0.023(4) -0.021(4) -0.048(5)
N1 0.106(4) 0.106(4) 0.070(6) -0.007(4) -0.007(4) -0.013(5)
C3 0.089(5) 0.089(5) 0.097(9) -0.025(5) -0.025(5) -0.006(7)
C4 0.099(6) 0.042(4) 0.078(6) -0.002(4) -0.071(5) 0.007(4)
C5 0.094(5) 0.094(5) 0.044(7) -0.028(5) -0.028(5) 0.015(7)
C6 0.103(6) 0.132(7) 0.025(5) 0.002(5) -0.010(4) -0.014(6)
C7 0.091(6) 0.097(6) 0.061(6) 0.020(5) 0.008(5) 0.019(5)
C8 0.109(7) 0.125(7) 0.121(8) 0.006(6) -0.003(6) -0.017(5)
C9 0.095(7) 0.075(6) 0.147(9) -0.015(6) -0.030(7) -0.026(5)
C10 0.107(7) 0.135(7) 0.132(8) 0.018(6) 0.003(6) -0.017(5)
C11 0.066(5) 0.098(6) 0.090(7) 0.003(5) 0.002(5) -0.021(5)
C12 0.107(7) 0.167(9) 0.133(8) 0.075(6) -0.041(6) -0.044(6)
C13 0.097(6) 0.071(6) 0.092(7) 0.010(5) -0.038(6) -0.019(5)
Cu5 0.1120(12) 0.1120(12) 0.0861(17) -0.0133(9) -0.0133(9) -0.0144(13)
O7 0.096(5) 0.096(5) 0.200(13) 0.000000 0.000000 -0.013(7)
O8 0.085(5) 0.085(5) 0.31(2) 0.000000 0.000000 -0.032(7)
O9 0.105(6) 0.281(13) 0.070(5) 0.000000 -0.034(5) 0.000000
O10 0.052(5) 0.47(2) 0.068(6) 0.000000 -0.016(5) 0.000000
O11 0.160(7) 0.160(7) 0.261(14) -0.014(5) -0.014(5) -0.047(7)
O12 0.194(8) 0.194(8) 0.255(14) 0.018(5) 0.018(5) -0.088(7)
N2 0.109(7) 0.273(12) 0.399(17) 0.150(11) -0.051(9) -0.090(7)
O4W 0.072 0.109 0.089 -0.034 -0.022 -0.004
O5W 0.091 0.096 0.089 -0.046 -0.011 0.013
C4W 0.042 0.099 0.078 -0.071 -0.002 0.007
C6W 0.132 0.103 0.025 -0.01 0.002 -0.014
C13W 0.071 0.097 0.092 -0.038 0.01 -0.019
Cu3A 0.074 0.088 0.0945 -0.0268 0 0
Cu4A 0.0856 0.096 0.1034 -0.0337 0 0
O1A 0.118 0.096 0.106 -0.021 -0.017 0.028
O2A 0.093 0.095 0.105 -0.04 -0.013 0.02
O3A 0.085 0.106 0.095 -0.019 -0.005 0.036
O4A 0.072 0.109 0.089 -0.034 0.022 0.004
O5A 0.091 0.096 0.089 -0.046 0.011 -0.013
O6A 0.08 0.095 0.101 -0.033 -0.009 0.023
C1A 0.05 0.091 0.084 -0.049 -0.004 0.005
C2A 0.088 0.078 0.04 -0.021 -0.023 0.048
N1A 0.106 0.106 0.07 -0.007 0.007 0.013
C3A 0.089 0.089 0.097 -0.025 0.025 0.006
C4A 0.042 0.099 0.078 -0.071 0.002 -0.007
C5A 0.094 0.094 0.044 -0.028 0.028 -0.015
C6A 0.132 0.103 0.025 -0.01 -0.002 0.014
C7A 0.097 0.091 0.061 0.008 -0.02 -0.019
C8A 0.125 0.109 0.121 -0.003 -0.006 0.017
C9A 0.075 0.095 0.147 -0.03 0.015 0.026
C10A 0.135 0.107 0.132 0.003 -0.018 0.017
C11A 0.098 0.066 0.09 0.002 -0.003 0.021
C12A 0.167 0.107 0.133 -0.041 -0.075 0.044
C13A 0.071 0.097 0.092 -0.038 -0.01 0.019
O9A 0.281 0.105 0.07 -0.034 0 0
O10A 0.47 0.052 0.068 -0.016 0 0
N2A 0.273 0.109 0.399 -0.051 -0.15 0.09
O4S 0.109 0.072 0.089 -0.022 0.034 0.004
O5S 0.096 0.091 0.089 -0.011 0.046 -0.013
C4S 0.099 0.042 0.078 -0.002 0.071 -0.007
C6S 0.103 0.132 0.025 0.002 0.01 0.014
C13S 0.097 0.071 0.092 0.01 0.038 0.019
O1F 0.118 0.096 0.106 0.021 -0.017 -0.028
O2F 0.093 0.095 0.105 0.04 -0.013 -0.02
O3F 0.085 0.106 0.095 0.019 -0.005 -0.036
O6F 0.08 0.095 0.101 0.033 -0.009 -0.023
C1F 0.05 0.091 0.084 0.049 -0.004 -0.005
C2F 0.088 0.078 0.04 0.021 -0.023 -0.048
C7F 0.097 0.091 0.061 -0.008 -0.02 0.019
C8F 0.125 0.109 0.121 0.003 -0.006 -0.017
C9F 0.075 0.095 0.147 0.03 0.015 -0.026
C10F 0.135 0.107 0.132 -0.003 -0.018 -0.017
C11F 0.098 0.066 0.09 -0.002 -0.003 -0.021
C12F 0.167 0.107 0.133 0.041 -0.075 -0.044
N2F 0.273 0.109 0.399 0.051 -0.15 -0.09
O1U 0.096 0.118 0.106 -0.017 0.021 -0.028
O2U 0.095 0.093 0.105 -0.013 0.04 -0.02
O3U 0.106 0.085 0.095 -0.005 0.019 -0.036
O6U 0.095 0.08 0.101 -0.009 0.033 -0.023
C1U 0.091 0.05 0.084 -0.004 0.049 -0.005
C2U 0.078 0.088 0.04 -0.023 0.021 -0.048
C7U 0.091 0.097 0.061 -0.02 -0.008 0.019
C8U 0.109 0.125 0.121 -0.006 0.003 -0.017
C9U 0.095 0.075 0.147 0.015 0.03 -0.026
C10U 0.107 0.135 0.132 -0.018 -0.003 -0.017
C11U 0.066 0.098 0.09 -0.003 -0.002 -0.021
C12U 0.107 0.167 0.133 -0.075 0.041 -0.044
N2U 0.109 0.273 0.399 -0.15 0.051 -0.09
O12O 0.194 0.194 0.255 0.018 0.018 -0.088
O11W 0.16 0.16 0.261 -0.014 -0.014 -0.047
Cu1A 0.0878 0.0878 0.1097 0 0 0.0221
Cu2A 0.0866 0.0866 0.085 0 0 0.0184
Cu3C 0.088 0.074 0.0945 0 0.0268 0
Cu3E 0.088 0.074 0.0945 0 0.0268 0
Cu3F 0.074 0.088 0.0945 0.0268 0 0
Cu4C 0.096 0.0856 0.1034 0 0.0337 0
Cu4E 0.096 0.0856 0.1034 0 0.0337 0
Cu4F 0.0856 0.096 0.1034 0.0337 0 0
O1W 0.118 0.096 0.106 -0.021 0.017 -0.028
O2T 0.095 0.093 0.105 -0.013 -0.04 0.02
O2W 0.093 0.095 0.105 -0.04 0.013 -0.02
O3W 0.085 0.106 0.095 -0.019 0.005 -0.036
O4T 0.109 0.072 0.089 0.022 -0.034 0.004
O5T 0.096 0.091 0.089 0.011 -0.046 -0.013
O6T 0.095 0.08 0.101 -0.009 -0.033 0.023
O6W 0.08 0.095 0.101 -0.033 0.009 -0.023
N1O 0.106 0.106 0.07 -0.007 -0.007 -0.013
Cu5A 0.112 0.112 0.0861 -0.0133 0.0133 0.0144
loop_
_geom_bond_atom_site_label_1
_geom_bond_atom_site_label_2
_geom_bond_site_symmetry_1
_geom_bond_site_symmetry_2
Cu1 O1 1_555 1_555
Cu2 O3 1_555 1_555
Cu3 O5 1_555 1_555
Cu4 O2 1_555 1_555
O1 C2 1_555 1_555
O2 C1 1_555 1_555
O3 C2 1_555 1_555
O4 Cu4 1_555 1_555
O5 C4 1_555 1_555
O6 Cu3 1_555 1_555
C1 O6 1_555 1_555
C2 C11 1_555 1_555
N1 C5 1_555 1_555
C3 C13 1_555 1_555
C4 O4 1_555 1_555
C5 C6 1_555 1_555
C6 C13 1_555 1_555
C7 C9 1_555 1_555
C8 C11 1_555 1_555
C9 C1 1_555 1_555
C10 C9 1_555 1_555
C11 C7 1_555 1_555
C12 C8 1_555 1_555
C13 C4 1_555 1_555
Cu5 N1 1_555 1_555
O7 Cu1 1_555 1_555
O8 Cu2 1_555 1_555
O9 Cu4 1_555 1_555
O10 Cu3 1_555 1_555
O11 Cu5 1_555 1_555
O12 Cu5 1_555 1_555
N2 C12 1_555 1_555
O4W C4W 1_555 1_555
O5W C4W 1_555 1_555
C4W C13W 1_555 1_555
C6W C5 1_555 1_555
C13W C3 1_555 1_555
Cu3A O5W 1_555 1_555
Cu4A O4W 1_555 1_555
O1A C2A 1_555 1_555
O2A Cu4A 1_555 1_555
O3A C2A 1_555 1_555
O4A Cu4A 1_555 1_555
O5A Cu3A 1_555 1_555
O6A Cu3A 1_555 1_555
C1A O2A 1_555 1_555
C2A C11A 1_555 1_555
N1A C5A 1_555 1_555
C3A C13A 1_555 1_555
C4A O4A 1_555 1_555
C5A C6A 1_555 1_555
C6A C13A 1_555 1_555
C7A C9A 1_555 1_555
C8A C11A 1_555 1_555
C9A C1A 1_555 1_555
C10A C9A 1_555 1_555
C11A C7A 1_555 1_555
C12A C8A 1_555 1_555
C13A C4A 1_555 1_555
O9A Cu4A 1_555 1_555
O10A Cu3A 1_555 1_555
N2A C12A 1_555 1_555
O4S C4S 1_555 1_555
O5S C4S 1_555 1_555
C4S C13S 1_555 1_555
C6S C5A 1_555 1_555
C13S C3A 1_555 1_555
O1F Cu1 1_555 1_555
O2F C1F 1_555 1_555
O3F Cu2 1_555 1_555
O6F C1F 1_555 1_555
C1F C9F 1_555 1_555
C2F O1F 1_555 1_555
C7F C9F 1_555 1_555
C8F C11F 1_555 1_555
C9F C10F 1_555 1_555
C10F C12F 1_555 1_555
C11F C2F 1_555 1_555
C12F C8F 1_555 1_555
N2F C12F 1_555 1_555
O1U Cu1 1_555 1_555
O2U C1U 1_555 1_555
O3U Cu2 1_555 1_555
O6U C1U 1_555 1_555
C1U C9U 1_555 1_555
C2U O1U 1_555 1_555
C7U C9U 1_555 1_555
C8U C11U 1_555 1_555
C9U C10U 1_555 1_555
C10U C12U 1_555 1_555
C11U C2U 1_555 1_555
C12U C8U 1_555 1_555
N2U C12U 1_555 1_555
O12O Cu5 1_555 1_555
O11W Cu5 1_555 1_555
Cu1A O1A 1_555 1_555
Cu2A O3A 1_555 1_555
Cu3C O6U 1_555 1_555
Cu3E O5S 1_555 1_555
Cu3F O6F 1_555 1_555
Cu4C O2U 1_555 1_555
Cu4E O4S 1_555 1_555
Cu4F O2F 1_555 1_555
O1W Cu1 1_555 1_555
O2T Cu4 1_555 1_555
O2W Cu4A 1_555 1_555
O3W Cu2 1_555 1_555
O4T Cu4 1_555 1_555
O5T Cu3 1_555 1_555
O6T Cu3 1_555 1_555
O6W Cu3A 1_555 1_555
N1O Cu5 1_555 1_555
Cu5A N1A 1_555 1_555
C10 C12 1_555 1_555
C6W C13W 1_555 1_555
O5A C4A 1_555 1_555
O6A C1A 1_555 1_555
C10A C12A 1_555 1_555
C6S C13S 1_555 1_555
O3F C2F 1_555 1_555
C7F C11F 1_555 1_555
O3U C2U 1_555 1_555
C7U C11U 1_555 1_555

#END
