
#######################################################################
#
#                 Cambridge Crystallographic Data Centre
#                                CCDC 
#
#######################################################################
#
# If this CIF has been generated from an entry in the Cambridge 
# Structural Database, then it will include bibliographic, chemical, 
# crystal, experimental, refinement or atomic coordinate data resulting 
# from the CCDC's data processing and validation procedures.
#
#######################################################################

data_TAKTAD
_chemical_formula_moiety         '(C16 H10 Ga2 O11)n'
_symmetry_cell_setting           tetragonal
_symmetry_space_group_name_H-M   'I 41 2 2'
_symmetry_Int_Tables_number      98
_space_group_name_Hall           'I 4bw 2bw'
loop_
_symmetry_equiv_pos_site_id
_symmetry_equiv_pos_as_xyz
1 x,y,z
2 1/2-x,1/2-y,1/2+z
3 -y,1/2+x,1/4+z
4 1/2+y,-x,3/4+z
5 1/2-x,y,3/4-z
6 x,1/2-y,1/4-z
7 1/2+y,1/2+x,1/2-z
8 -y,-x,-z
9 1/2+x,1/2+y,1/2+z
10 -x,-y,z
11 1/2-y,x,3/4+z
12 y,1/2-x,1/4+z
13 -x,1/2+y,1/4-z
14 1/2+x,-y,3/4-z
15 y,x,-z
16 1/2-y,1/2-x,1/2-z
_cell_length_a                   15.1675(9)
_cell_length_b                   15.1675(9)
_cell_length_c                   11.9197(15)
_cell_angle_alpha                90
_cell_angle_beta                 90
_cell_angle_gamma                90
_cell_volume                     2742.16
loop_
_atom_site_label
_atom_site_type_symbol
_atom_site_fract_x
_atom_site_fract_y
_atom_site_fract_z
O4 O -0.0842(14) 0.2196(13) 0.0616(18)
Ga1 Ga 0.19430(4) 0.19430(4) 0.0000
O1 O 0.0999(2) 0.2867(2) -0.0015(3)
O2 O 0.2527(4) 0.2500 0.1250
H1 H 0.3082 0.2500 0.1250
O3 O 0.1251(3) 0.3801(3) 0.1432(3)
C1 C -0.0000 0.5000 0.0480(6)
H2 H -0.0000 0.5000 0.1260
C2 C 0.0920(4) 0.3600(4) 0.0488(4)
C3 C 0.0408(4) 0.4310(4) -0.0099(6)
C4 C -0.0000 0.5000 -0.1868(6)
C5 C 0.0390(4) 0.4310(4) -0.1284(5)
H3 H 0.0642 0.3844 -0.1677
O1F O -0.2133(2) 0.5999(2) -0.4985(3)
O3F O -0.1199(3) 0.6251(3) -0.6432(3)
C1F C -0.0000 0.5000 -0.5480(6)
H2F H -0.0000 0.5000 -0.6260
C2F C -0.1400(4) 0.5920(4) -0.5488(4)
C3F C -0.0690(4) 0.5408(4) -0.4901(6)
C4F C 0.0000 0.5000 -0.3132(6)
C5F C -0.0690(4) 0.5390(4) -0.3716(5)
H3F H -0.1156 0.5642 -0.3323
O1I O -0.0999(2) 0.7133(2) -0.0015(3)
O3I O -0.1251(3) 0.6199(3) 0.1432(3)
C2I C -0.0920(4) 0.6400(4) 0.0488(4)
C3I C -0.0408(4) 0.5690(4) -0.0099(6)
C5I C -0.0390(4) 0.5690(4) -0.1284(5)
H3I H -0.0642 0.6156 -0.1677
O1O O 0.2133(2) 0.4001(2) -0.4985(3)
O3O O 0.1199(3) 0.3749(3) -0.6432(3)
C2O C 0.1400(4) 0.4080(4) -0.5488(4)
C3O C 0.0690(4) 0.4592(4) -0.4901(6)
C5O C 0.0690(4) 0.4610(4) -0.3716(5)
H3O H 0.1156 0.4358 -0.3323
Ga1E Ga 0.19430(4) 0.30570(4) -0.7500
O2_2 O 0.2527(4) 0.2500 -0.8750
H1_2 H 0.3082 0.2500 -0.8750
Ga1_2 Ga 0.19430(4) 0.19430(4) -1.0000
Ga1A Ga 0.30570(4) 0.30570(4) -0.5000
Ga1B Ga -0.19430(4) 0.69430(4) -0.7500
Ga1B_2 Ga -0.19430(4) 0.69430(4) 0.2500
Ga1E_2 Ga 0.19430(4) 0.30570(4) 0.2500
Ga1F Ga -0.30570(4) 0.69430(4) -0.5000
Ga1G Ga -0.19430(4) 0.80570(4) 0.0000
O1E O 0.0999(2) 0.2133(2) -0.7485(3)
O1K O 0.2867(2) 0.4001(2) -0.7515(3)
O1N O 0.2867(2) 0.0999(2) 0.0015(3)
O2J O 0.2500 0.2527(4) -0.1250
O2K O 0.2500 0.2473(4) -0.6250
O3_2 O 0.1251(3) 0.3801(3) -0.8568(3)
O3E O 0.1251(3) 0.1199(3) 0.1068(3)
O3J O 0.1199(3) 0.1251(3) -0.1068(3)
loop_
_geom_bond_atom_site_label_1
_geom_bond_atom_site_label_2
_geom_bond_site_symmetry_1
_geom_bond_site_symmetry_2
Ga1 O1 1_555 1_555
O1 C2 1_555 1_555
O2 Ga1 1_555 1_555
H1 O2 1_555 1_555
O3 C2 1_555 1_555
C1 H2 1_555 1_555
C2 C3 1_555 1_555
C3 C1 1_555 1_555
C4 C5 1_555 1_555
C5 C3 1_555 1_555
H3 C5 1_555 1_555
O1F C2F 1_555 1_555
O3F C2F 1_555 1_555
C1F H2F 1_555 1_555
C2F C3F 1_555 1_555
C3F C1F 1_555 1_555
C4F C4 1_555 1_555
C5F C3F 1_555 1_555
H3F C5F 1_555 1_555
O1I C2I 1_555 1_555
O3I C2I 1_555 1_555
C2I C3I 1_555 1_555
C3I C1 1_555 1_555
C5I C4 1_555 1_555
H3I C5I 1_555 1_555
O1O C2O 1_555 1_555
O3O C2O 1_555 1_555
C2O C3O 1_555 1_555
C3O C1F 1_555 1_555
C5O C4F 1_555 1_555
H3O C5O 1_555 1_555
Ga1E O3O 1_555 1_555
O2_2 Ga1E 1_555 1_555
H1_2 O2_2 1_555 1_555
Ga1_2 O2_2 1_555 1_555
Ga1A O1O 1_555 1_555
Ga1B O3F 1_555 1_555
Ga1B_2 O3I 1_555 1_555
Ga1E_2 O2 1_555 1_555
Ga1F O1F 1_555 1_555
Ga1G O1I 1_555 1_555
O1E Ga1E 1_555 1_555
O1K Ga1E 1_555 1_555
O1N Ga1 1_555 1_555
O2J Ga1 1_555 1_555
O2K Ga1E 1_555 1_555
O3_2 Ga1E 1_555 1_555
O3E Ga1 1_555 1_555
O3J Ga1 1_555 1_555
O3 Ga1E_2 1_555 1_555
C4F C5F 1_555 1_555
C3I C5I 1_555 1_555
C3O C5O 1_555 1_555
Ga1A O2K 1_555 1_555

#END
