
#######################################################################
#
#                 Cambridge Crystallographic Data Centre
#                                CCDC 
#
#######################################################################
#
# If this CIF has been generated from an entry in the Cambridge 
# Structural Database, then it will include bibliographic, chemical, 
# crystal, experimental, refinement or atomic coordinate data resulting 
# from the CCDC's data processing and validation procedures.
#
#######################################################################

data_GAQYIH
_chemical_formula_moiety         'C102 H204 Cd47 N81 O102'
_symmetry_cell_setting           cubic
_symmetry_space_group_name_H-M   'F d -3 m'
_symmetry_Int_Tables_number      227
_space_group_name_Hall           '-F 4vw 2vw 3'
loop_
_symmetry_equiv_pos_site_id
_symmetry_equiv_pos_as_xyz
1 x,y,z
2 z,x,y
3 y,z,x
4 3/4+y,1/4+x,1/2-z
5 1/4+y,1/2-x,3/4+z
6 1/2-y,3/4+x,1/4+z
7 3/4+x,1/4+z,1/2-y
8 1/2-x,3/4+z,1/4+y
9 1/4+x,1/2-z,3/4+y
10 3/4+z,1/4+y,1/2-x
11 1/4+z,1/2-y,3/4+x
12 1/2-z,3/4+y,1/4+x
13 x,1/2+y,1/2+z
14 1/4-x,y,1/4-z
15 z,1/2+x,1/2+y
16 1/4-z,x,1/4-y
17 y,1/2+z,1/2+x
18 1/4-y,z,1/4-x
19 1/4+y,-x,1/4+z
20 1/2-y,1/4+x,3/4+z
21 1/2-x,1/4+z,3/4+y
22 1/4+x,-z,1/4+y
23 1/4+z,-y,1/4+x
24 1/2-z,1/4+y,3/4+x
25 1/2+x,y,1/2+z
26 1/4-x,1/4-y,z
27 1/2+z,x,1/2+y
28 1/4-z,1/4-x,y
29 1/2+y,z,1/2+x
30 1/4-y,1/4-z,x
31 1/4+y,1/4+x,-z
32 3/4+y,1/2-x,1/4+z
33 1/4+x,1/4+z,-y
34 3/4+x,1/2-z,1/4+y
35 1/4+z,1/4+y,-x
36 3/4+z,1/2-y,1/4+x
37 1/2+x,1/2+y,z
38 x,1/4-y,1/4-z
39 1/2+z,1/2+x,y
40 z,1/4-x,1/4-y
41 1/2+y,1/2+z,x
42 y,1/4-z,1/4-x
43 1/4+y,3/4+x,1/2-z
44 -y,1/4+x,1/4+z
45 1/4+x,3/4+z,1/2-y
46 -x,1/4+z,1/4+y
47 1/4+z,3/4+y,1/2-x
48 -z,1/4+y,1/4+x
49 3/4-x,1/4-y,1/2+z
50 1/4-x,1/2+y,3/4-z
51 1/2+x,3/4-y,1/4-z
52 1/2+z,3/4-x,1/4-y
53 3/4-z,1/4-x,1/2+y
54 1/4-z,1/2+x,3/4-y
55 1/4-y,1/2+z,3/4-x
56 1/2+y,3/4-z,1/4-x
57 3/4-y,1/4-z,1/2+x
58 -y,-x,-z
59 -x,-z,-y
60 -z,-y,-x
61 3/4-x,3/4-y,z
62 1/2+x,1/4-y,3/4-z
63 1/2+z,1/4-x,3/4-y
64 3/4-z,3/4-x,y
65 1/2+y,1/4-z,3/4-x
66 3/4-y,3/4-z,x
67 3/4+y,3/4+x,-z
68 -y,1/2-x,1/2-z
69 3/4+x,3/4+z,-y
70 -x,1/2-z,1/2-y
71 3/4+z,3/4+y,-x
72 -z,1/2-y,1/2-x
73 3/4-x,1/2+y,1/4-z
74 x,3/4-y,3/4-z
75 z,3/4-x,3/4-y
76 3/4-z,1/2+x,1/4-y
77 3/4-y,1/2+z,1/4-x
78 y,3/4-z,3/4-x
79 1/2-y,-x,1/2-z
80 -y,3/4+x,3/4+z
81 -x,3/4+z,3/4+y
82 1/2-x,-z,1/2-y
83 -z,3/4+y,3/4+x
84 1/2-z,-y,1/2-x
85 1/4-x,3/4-y,1/2+z
86 3/4-x,y,3/4-z
87 1/4-z,3/4-x,1/2+y
88 3/4-z,x,3/4-y
89 3/4-y,z,3/4-x
90 1/4-y,3/4-z,1/2+x
91 1/2-y,1/2-x,-z
92 3/4+y,-x,3/4+z
93 1/2-x,1/2-z,-y
94 3/4+x,-z,3/4+y
95 3/4+z,-y,3/4+x
96 1/2-z,1/2-y,-x
97 -x,-y,-z
98 -z,-x,-y
99 -y,-z,-x
100 1/4-y,3/4-x,1/2+z
101 3/4-y,1/2+x,1/4-z
102 1/2+y,1/4-x,3/4-z
103 1/4-x,3/4-z,1/2+y
104 1/2+x,1/4-z,3/4-y
105 3/4-x,1/2+z,1/4-y
106 1/4-z,3/4-y,1/2+x
107 3/4-z,1/2+y,1/4-x
108 1/2+z,1/4-y,3/4-x
109 -x,1/2-y,1/2-z
110 3/4+x,-y,3/4+z
111 -z,1/2-x,1/2-y
112 3/4+z,-x,3/4+y
113 -y,1/2-z,1/2-x
114 3/4+y,-z,3/4+x
115 3/4-y,x,3/4-z
116 1/2+y,3/4-x,1/4-z
117 1/2+x,3/4-z,1/4-y
118 3/4-x,z,3/4-y
119 3/4-z,y,3/4-x
120 1/2+z,3/4-y,1/4-x
121 1/2-x,-y,1/2-z
122 3/4+x,3/4+y,-z
123 1/2-z,-x,1/2-y
124 3/4+z,3/4+x,-y
125 1/2-y,-z,1/2-x
126 3/4+y,3/4+z,-x
127 3/4-y,3/4-x,z
128 1/4-y,1/2+x,3/4-z
129 3/4-x,3/4-z,y
130 1/4-x,1/2+z,3/4-y
131 3/4-z,3/4-y,x
132 1/4-z,1/2+y,3/4-x
133 1/2-x,1/2-y,-z
134 -x,3/4+y,3/4+z
135 1/2-z,1/2-x,-y
136 -z,3/4+x,3/4+y
137 1/2-y,1/2-z,-x
138 -y,3/4+z,3/4+x
139 3/4-y,1/4-x,1/2+z
140 y,3/4-x,3/4-z
141 3/4-x,1/4-z,1/2+y
142 x,3/4-z,3/4-y
143 3/4-z,1/4-y,1/2+x
144 z,3/4-y,3/4-x
145 1/4+x,3/4+y,1/2-z
146 3/4+x,1/2-y,1/4+z
147 1/2-x,1/4+y,3/4+z
148 1/2-z,1/4+x,3/4+y
149 1/4+z,3/4+x,1/2-y
150 3/4+z,1/2-x,1/4+y
151 3/4+y,1/2-z,1/4+x
152 1/2-y,1/4+z,3/4+x
153 1/4+y,3/4+z,1/2-x
154 y,x,z
155 x,z,y
156 z,y,x
157 1/4+x,1/4+y,-z
158 1/2-x,3/4+y,1/4+z
159 1/2-z,3/4+x,1/4+y
160 1/4+z,1/4+x,-y
161 1/2-y,3/4+z,1/4+x
162 1/4+y,1/4+z,-x
163 1/4-y,1/4-x,z
164 y,1/2+x,1/2+z
165 1/4-x,1/4-z,y
166 x,1/2+z,1/2+y
167 1/4-z,1/4-y,x
168 z,1/2+y,1/2+x
169 1/4+x,1/2-y,3/4+z
170 -x,1/4+y,1/4+z
171 -z,1/4+x,1/4+y
172 1/4+z,1/2-x,3/4+y
173 1/4+y,1/2-z,3/4+x
174 -y,1/4+z,1/4+x
175 1/2+y,x,1/2+z
176 y,1/4-x,1/4-z
177 x,1/4-z,1/4-y
178 1/2+x,z,1/2+y
179 z,1/4-y,1/4-x
180 1/2+z,y,1/2+x
181 3/4+x,1/4+y,1/2-z
182 1/4+x,-y,1/4+z
183 3/4+z,1/4+x,1/2-y
184 1/4+z,-x,1/4+y
185 1/4+y,-z,1/4+x
186 3/4+y,1/4+z,1/2-x
187 1/2+y,1/2+x,z
188 1/4-y,x,1/4-z
189 1/2+x,1/2+z,y
190 1/4-x,z,1/4-y
191 1/4-z,y,1/4-x
192 1/2+z,1/2+y,x
_cell_length_a                   48.9411(12)
_cell_length_b                   48.9411(12)
_cell_length_c                   48.9411(12)
_cell_angle_alpha                90
_cell_angle_beta                 90
_cell_angle_gamma                90
_cell_volume                     117225
loop_
_atom_site_label
_atom_site_type_symbol
_atom_site_fract_x
_atom_site_fract_y
_atom_site_fract_z
Cd1 Cd 0.951113(17) 0.798887(17) 0.04440(2)
Cd2 Cd 0.92133(2) 0.82867(2) -0.07867(2)
Cd3 Cd 1.0000 0.844821(15) 0.155179(15)
Cd4 Cd 0.8750 0.8750 0.12183(3)
O1 O 0.90424(11) 0.78346(14) 0.03677(10)
O2 O 0.98452(13) 0.76548(13) 0.0607(2)
O3 O 0.94190(11) 0.86954(17) -0.05810(11)
O4 O 1.0000 0.88076(9) 0.11924(9)
O5 O 1.02468(12) 0.80374(12) 0.14326(16)
O6 O 0.90533(9) 0.90533(9) 0.09611(18)
O7 O 0.8750 0.8750 0.17140(16)
N1 N 0.96104(15) 0.78896(15) -0.00355(19)
N2 N 0.93963(15) 0.81037(15) 0.09051(17)
N3 N 0.9504(2) 0.7996(2) -0.0496(2)
N4 N 0.8919(2) 0.8581(2) -0.1081(2)
N5 N 0.95769(15) 0.82753(15) 0.13532(16)
N6 N 0.91124(14) 0.83876(14) 0.12138(17)
C1 C 0.9440(2) 0.8060(2) -0.0219(3)
H1 H 0.9248 0.8024 -0.0185
C2 C 0.9549(3) 0.75849(19) -0.00849(19)
H3 H 0.9359 0.7544 -0.0044
H4 H 0.9665 0.7471 0.0029
C3 C 0.9163(2) 0.8337(2) 0.0913(3)
H5 H 0.9226 0.8502 0.0823
C4 C 0.96416(17) 0.82100(19) 0.10556(18)
H7 H 0.9707 0.8374 0.0966
H8 H 0.9786 0.8075 0.1049
C5 C 0.9350(2) 0.84918(18) 0.1339(2)
H9 H 0.9306 0.8553 0.1522
H10 H 0.9414 0.8648 0.1236
C6 C 0.94774(16) 0.80226(16) 0.14857(18)
H11 H 0.9442 0.8058 0.1677
H12 H 0.9617 0.7883 0.1474
C7 C 0.8750 0.8407(3) -0.1250
H13 H 0.8864 0.8291 -0.1364
Cd1YE Cd 1.04440(2) 0.798887(17) -0.048887(17)
Cd1KE Cd 0.951113(17) 0.70560(2) -0.048887(17)
Cd1IE Cd 0.798887(17) 0.798887(17) -0.29440(2)
Cd1XD Cd 0.798887(17) 0.70560(2) -0.201113(17)
Cd1ND Cd 0.70560(2) 0.798887(17) -0.201113(17)
Cd1WE Cd 0.798887(17) 0.951113(17) 0.04440(2)
Cd1ZD Cd 0.70560(2) 0.951113(17) -0.048887(17)
Cd1B Cd 0.798887(17) 1.04440(2) -0.048887(17)
Cd1JD Cd 0.951113(17) 0.951113(17) -0.29440(2)
Cd1XE Cd 0.951113(17) 1.04440(2) -0.201113(17)
Cd1A Cd 1.04440(2) 0.951113(17) -0.201113(17)
Cd1BG Cd 1.048887(17) 0.95560(2) 0.201113(17)
Cd2ND Cd 0.82867(2) 0.82867(2) -0.17133(2)
Cd2B Cd 0.82867(2) 0.92133(2) -0.07867(2)
Cd2A Cd 0.92133(2) 0.92133(2) -0.17133(2)
Cd3SD Cd 0.905179(15) 0.7500 0.155179(15)
Cd3YE Cd 1.155179(15) 0.844821(15) 0.0000
Cd3VB Cd 1.155179(15) 0.7500 -0.094821(15)
Cd3MB Cd 0.905179(15) 0.594821(15) 0.0000
Cd3CE Cd 1.0000 0.594821(15) -0.094821(15)
Cd3BG Cd 1.094821(15) 0.844821(15) 0.2500
Cd3WE Cd 0.844821(15) 1.0000 0.155179(15)
Cd3HB Cd 0.7500 0.905179(15) 0.155179(15)
Cd3A Cd 1.155179(15) 1.0000 -0.155179(15)
Cd3GE Cd 1.155179(15) 0.905179(15) -0.2500
Cd3QD Cd 0.7500 0.594821(15) -0.155179(15)
Cd3YB Cd 0.844821(15) 0.594821(15) -0.2500
Cd3EE Cd 0.844821(15) 0.7500 -0.405179(15)
Cd3GC Cd 0.7500 0.844821(15) -0.405179(15)
Cd3ID Cd 0.594821(15) 0.844821(15) -0.2500
Cd3KB Cd 0.594821(15) 0.7500 -0.155179(15)
Cd3UD Cd 0.594821(15) 0.905179(15) 0.0000
Cd3IC Cd 0.594821(15) 1.0000 -0.094821(15)
Cd3B Cd 0.844821(15) 1.155179(15) 0.0000
Cd3ED Cd 0.7500 1.155179(15) -0.094821(15)
Cd3GD Cd 0.905179(15) 1.0000 -0.405179(15)
Cd3UB Cd 1.0000 0.905179(15) -0.405179(15)
Cd4A Cd 1.12183(3) 0.8750 -0.1250
Cd4XD Cd 0.8750 0.62817(3) -0.1250
Cd4U Cd 1.1250 0.87817(3) 0.1250
Cd4JD Cd 0.8750 0.8750 -0.37183(3)
Cd4ND Cd 0.62817(3) 0.8750 -0.1250
Cd4B Cd 0.8750 1.12183(3) -0.1250
O1VD O 0.96654(14) 0.84576(11) 0.03677(10)
O1YE O 1.03677(10) 0.78346(14) -0.09576(11)
O1VB O 1.03677(10) 0.84576(11) -0.03346(14)
O1MB O 0.96654(14) 0.71323(10) -0.09576(11)
O1KE O 0.90424(11) 0.71323(10) -0.03346(14)
O1IE O 0.78346(14) 0.84576(11) -0.28677(10)
O1GC O 0.84576(11) 0.78346(14) -0.28677(10)
O1YB O 0.78346(14) 0.71323(10) -0.15424(11)
O1XD O 0.84576(11) 0.71323(10) -0.21654(14)
O1ND O 0.71323(10) 0.78346(14) -0.15424(11)
O1KB O 0.71323(10) 0.84576(11) -0.21654(14)
O1HB O 0.84576(11) 0.96654(14) 0.03677(10)
O1WE O 0.78346(14) 0.90424(11) 0.03677(10)
O1ZD O 0.71323(10) 0.96654(14) -0.09576(11)
O1IC O 0.71323(10) 0.90424(11) -0.03346(14)
O1B O 0.78346(14) 1.03677(10) -0.09576(11)
O1MD O 0.84576(11) 1.03677(10) -0.03346(14)
O1JD O 0.96654(14) 0.90424(11) -0.28677(10)
O1UB O 0.90424(11) 0.96654(14) -0.28677(10)
O1JC O 0.96654(14) 1.03677(10) -0.15424(11)
O1XE O 0.90424(11) 1.03677(10) -0.21654(14)
O1ME O 1.03677(10) 0.96654(14) -0.15424(11)
O1A O 1.03677(10) 0.90424(11) -0.21654(14)
O2YE O 1.0607(2) 0.76548(13) -0.01548(13)
O2KE O 0.98452(13) 0.6893(2) -0.01548(13)
O2IE O 0.76548(13) 0.76548(13) -0.3107(2)
O2XD O 0.76548(13) 0.6893(2) -0.23452(13)
O2ND O 0.6893(2) 0.76548(13) -0.23452(13)
O2WE O 0.76548(13) 0.98452(13) 0.0607(2)
O2ZD O 0.6893(2) 0.98452(13) -0.01548(13)
O2B O 0.76548(13) 1.0607(2) -0.01548(13)
O2JD O 0.98452(13) 0.98452(13) -0.3107(2)
O2XE O 0.98452(13) 1.0607(2) -0.23452(13)
O2A O 1.0607(2) 0.98452(13) -0.23452(13)
O3VD O 0.88046(17) 0.80810(11) -0.05810(11)
O3KE O 0.94190(11) 0.80810(11) -0.11954(17)
O3IE O 0.86954(17) 0.80810(11) -0.19190(11)
O3ND O 0.80810(11) 0.86954(17) -0.19190(11)
O3XD O 0.80810(11) 0.80810(11) -0.13046(17)
O3ZD O 0.80810(11) 0.88046(17) -0.05810(11)
O3B O 0.86954(17) 0.94190(11) -0.05810(11)
O3MD O 0.80810(11) 0.94190(11) -0.11954(17)
O3JD O 0.88046(17) 0.94190(11) -0.19190(11)
O3ME O 0.94190(11) 0.88046(17) -0.19190(11)
O3A O 0.94190(11) 0.94190(11) -0.13046(17)
O4SD O 0.86924(9) 0.7500 0.11924(9)
O4YE O 1.11924(9) 0.88076(9) 0.0000
O4VB O 1.11924(9) 0.7500 -0.13076(9)
O4MB O 0.86924(9) 0.63076(9) 0.0000
O4CE O 1.0000 0.63076(9) -0.13076(9)
O4BG O 1.13076(9) 0.88076(9) 0.2500
O4WE O 0.88076(9) 1.0000 0.11924(9)
O4HB O 0.7500 0.86924(9) 0.11924(9)
O4A O 1.11924(9) 1.0000 -0.11924(9)
O4GE O 1.11924(9) 0.86924(9) -0.2500
O4QD O 0.7500 0.63076(9) -0.11924(9)
O5FB O 0.97532(12) 0.85674(16) 0.19626(12)
O5VD O 0.94626(12) 0.72532(12) 0.14326(16)
O5SD O 0.89326(16) 0.77468(12) 0.19626(12)
O5YE O 1.14326(16) 0.80374(12) 0.02468(12)
O5TC O 1.19626(12) 0.85674(16) -0.02468(12)
O5VB O 1.14326(16) 0.72532(12) -0.05374(12)
O5AC O 1.19626(12) 0.77468(12) -0.10674(16)
O5MB O 0.94626(12) 0.60674(16) 0.02468(12)
O5RB O 0.89326(16) 0.55374(12) -0.02468(12)
O5KE O 1.02468(12) 0.60674(16) -0.05374(12)
O5CE O 0.97532(12) 0.55374(12) -0.10674(16)
O5BG O 1.05374(12) 0.85674(16) 0.27468(12)
O5HG O 1.10674(16) 0.80374(12) 0.22532(12)
O5WE O 0.80374(12) 1.02468(12) 0.14326(16)
O5SC O 0.85674(16) 0.97532(12) 0.19626(12)
O5HB O 0.72532(12) 0.94626(12) 0.14326(16)
O5PB O 0.77468(12) 0.89326(16) 0.19626(12)
O5A O 1.14326(16) 1.02468(12) -0.19626(12)
O5EB O 1.19626(12) 0.97532(12) -0.14326(16)
O5ME O 1.14326(16) 0.94626(12) -0.27468(12)
O5GE O 1.19626(12) 0.89326(16) -0.22532(12)
O5XD O 0.72532(12) 0.60674(16) -0.19626(12)
O5QD O 0.77468(12) 0.55374(12) -0.14326(16)
O6VD O 0.84467(9) 0.84467(9) 0.09611(18)
O6A O 1.09611(18) 0.90533(9) -0.09467(9)
O6ME O 1.09611(18) 0.84467(9) -0.15533(9)
O6XD O 0.84467(9) 0.65389(18) -0.09467(9)
O6KE O 0.90533(9) 0.65389(18) -0.15533(9)
O6TC O 1.09467(9) 0.90389(18) 0.09467(9)
O6U O 1.15533(9) 0.90389(18) 0.15533(9)
O6IE O 0.90533(9) 0.84467(9) -0.34611(18)
O6JD O 0.84467(9) 0.90533(9) -0.34611(18)
O6ND O 0.65389(18) 0.90533(9) -0.15533(9)
O6ZD O 0.65389(18) 0.84467(9) -0.09467(9)
O7A O 1.17140(16) 0.8750 -0.1250
O7XD O 0.8750 0.57860(16) -0.1250
O7U O 1.1250 0.82860(16) 0.1250
O7JD O 0.8750 0.8750 -0.42140(16)
O7ND O 0.57860(16) 0.8750 -0.1250
N1YE N 0.99645(19) 0.78896(15) -0.03896(15)
N1KE N 0.96104(15) 0.75355(19) -0.03896(15)
N1IE N 0.78896(15) 0.78896(15) -0.24645(19)
N1XD N 0.78896(15) 0.75355(19) -0.21104(15)
N1ND N 0.75355(19) 0.78896(15) -0.21104(15)
N1WE N 0.78896(15) 0.96104(15) -0.00355(19)
N1ZD N 0.75355(19) 0.96104(15) -0.03896(15)
N1B N 0.78896(15) 0.99645(19) -0.03896(15)
N1JD N 0.96104(15) 0.96104(15) -0.24645(19)
N1XE N 0.96104(15) 0.99645(19) -0.21104(15)
N1A N 0.99645(19) 0.96104(15) -0.21104(15)
N2YE N 1.09051(17) 0.81037(15) -0.06037(15)
N2KE N 0.93963(15) 0.65949(17) -0.06037(15)
N2BG N 1.06037(15) 0.90949(17) 0.18963(15)
N2WE N 0.81037(15) 0.93963(15) 0.09051(17)
N2A N 1.09051(17) 0.93963(15) -0.18963(15)
N2XD N 0.81037(15) 0.65949(17) -0.18963(15)
N2IE N 0.81037(15) 0.81037(15) -0.34051(17)
N2ND N 0.65949(17) 0.81037(15) -0.18963(15)
N2ZD N 0.65949(17) 0.93963(15) -0.06037(15)
N2B N 0.81037(15) 1.09051(17) -0.06037(15)
N2JD N 0.93963(15) 0.93963(15) -0.34051(17)
N2XE N 0.93963(15) 1.09051(17) -0.18963(15)
N3ND N 0.7996(2) 0.7996(2) -0.2004(2)
N3B N 0.7996(2) 0.9504(2) -0.0496(2)
N3A N 0.9504(2) 0.9504(2) -0.2004(2)
N4ND N 0.8581(2) 0.8581(2) -0.1419(2)
N4B N 0.8581(2) 0.8919(2) -0.1081(2)
N4A N 0.8919(2) 0.8919(2) -0.1419(2)
N5VD N 0.92247(15) 0.79231(15) 0.13532(16)
N5YE N 1.13532(16) 0.82753(15) -0.04231(15)
N5VB N 1.13532(16) 0.79231(15) -0.07753(15)
N5MB N 0.92247(15) 0.61468(16) -0.04231(15)
N5KE N 0.95769(15) 0.61468(16) -0.07753(15)
N5FB N 1.04231(15) 0.86468(16) 0.17247(15)
N5BG N 1.07753(15) 0.86468(16) 0.20769(15)
N5WE N 0.82753(15) 0.95769(15) 0.13532(16)
N5HB N 0.79231(15) 0.92247(15) 0.13532(16)
N5A N 1.13532(16) 0.95769(15) -0.17247(15)
N5ME N 1.13532(16) 0.92247(15) -0.20769(15)
N5XD N 0.79231(15) 0.61468(16) -0.17247(15)
N5YB N 0.82753(15) 0.61468(16) -0.20769(15)
N5IE N 0.82753(15) 0.79231(15) -0.38532(16)
N5GC N 0.79231(15) 0.82753(15) -0.38532(16)
N5ND N 0.61468(16) 0.82753(15) -0.20769(15)
N5KB N 0.61468(16) 0.79231(15) -0.17247(15)
N5ZD N 0.61468(16) 0.92247(15) -0.04231(15)
N5IC N 0.61468(16) 0.95769(15) -0.07753(15)
N5B N 0.82753(15) 1.13532(16) -0.04231(15)
N5MD N 0.79231(15) 1.13532(16) -0.07753(15)
N5JD N 0.92247(15) 0.95769(15) -0.38532(16)
N5UB N 0.95769(15) 0.92247(15) -0.38532(16)
N5SD N 0.88532(16) 0.70769(15) 0.17247(15)
N5TC N 1.17247(15) 0.86468(16) 0.04231(15)
N5AC N 1.17247(15) 0.70769(15) -0.11468(16)
N5RB N 0.88532(16) 0.57753(15) 0.04231(15)
N5CE N 1.04231(15) 0.57753(15) -0.11468(16)
N5HG N 1.11468(16) 0.82753(15) 0.29231(15)
N5SC N 0.86468(16) 1.04231(15) 0.17247(15)
N5PB N 0.70769(15) 0.88532(16) 0.17247(15)
N5EB N 1.17247(15) 1.04231(15) -0.13532(16)
N5GE N 1.17247(15) 0.88532(16) -0.29231(15)
N5QD N 0.70769(15) 0.57753(15) -0.13532(16)
N6YE N 1.12138(17) 0.83876(14) -0.08876(14)
N6KE N 0.91124(14) 0.62862(17) -0.08876(14)
N6BG N 1.08876(14) 0.87862(17) 0.16124(14)
N6WE N 0.83876(14) 0.91124(14) 0.12138(17)
N6A N 1.12138(17) 0.91124(14) -0.16124(14)
N6XD N 0.83876(14) 0.62862(17) -0.16124(14)
N6IE N 0.83876(14) 0.83876(14) -0.37138(17)
N6ND N 0.62862(17) 0.83876(14) -0.16124(14)
N6ZD N 0.62862(17) 0.91124(14) -0.08876(14)
N6B N 0.83876(14) 1.12138(17) -0.08876(14)
N6JD N 0.91124(14) 0.91124(14) -0.37138(17)
N6U N 1.16124(14) 0.87862(17) 0.08876(14)
C1YE C 0.9781(3) 0.8060(2) -0.0560(2)
C1KE C 0.9440(2) 0.7719(3) -0.0560(2)
C1IE C 0.8060(2) 0.8060(2) -0.2281(3)
C1XD C 0.8060(2) 0.7719(3) -0.1940(2)
C1ND C 0.7719(3) 0.8060(2) -0.1940(2)
C1WE C 0.8060(2) 0.9440(2) -0.0219(3)
C1ZD C 0.7719(3) 0.9440(2) -0.0560(2)
C1B C 0.8060(2) 0.9781(3) -0.0560(2)
C1JD C 0.9440(2) 0.9440(2) -0.2281(3)
C1XE C 0.9440(2) 0.9781(3) -0.1940(2)
C1A C 0.9781(3) 0.9440(2) -0.1940(2)
H1MB H 0.9476 0.7685 -0.0752
H1KE H 0.9248 0.7685 -0.0524
H1YE H 0.9815 0.8024 -0.0752
H1VB H 0.9815 0.8252 -0.0524
H1VD H 0.9476 0.8252 -0.0185
H1IE H 0.8024 0.8252 -0.2315
H1ND H 0.7685 0.8024 -0.1748
H1KB H 0.7685 0.8252 -0.1976
H1YB H 0.8024 0.7685 -0.1748
H1XD H 0.8252 0.7685 -0.1976
H1GC H 0.8252 0.8024 -0.2315
H1HB H 0.8252 0.9476 -0.0185
H1B H 0.8024 0.9815 -0.0752
H1MD H 0.8252 0.9815 -0.0524
H1ZD H 0.7685 0.9476 -0.0752
H1IC H 0.7685 0.9248 -0.0524
H1WE H 0.8024 0.9248 -0.0185
H1JD H 0.9476 0.9248 -0.2315
H1ME H 0.9815 0.9476 -0.1748
H1A H 0.9815 0.9248 -0.1976
H1JC H 0.9476 0.9815 -0.1748
H1XE H 0.9248 0.9815 -0.1976
H1UB H 0.9248 0.9476 -0.2315
C2YE C 0.99151(19) 0.75849(19) -0.0451(3)
C2VD C 0.99151(19) 0.7951(3) -0.00849(19)
C2IE C 0.75849(19) 0.7951(3) -0.24151(19)
C2ND C 0.75849(19) 0.75849(19) -0.2049(3)
C2XD C 0.7951(3) 0.75849(19) -0.24151(19)
C2MD C 0.7951(3) 0.99151(19) -0.00849(19)
C2B C 0.75849(19) 0.99151(19) -0.0451(3)
C2WE C 0.75849(19) 0.9549(3) -0.00849(19)
C2A C 0.99151(19) 0.9549(3) -0.24151(19)
C2ME C 0.99151(19) 0.99151(19) -0.2049(3)
C2XE C 0.9549(3) 0.99151(19) -0.24151(19)
H3VD H 0.9956 0.8141 -0.0044
H3YE H 0.9956 0.7544 -0.0641
H3IE H 0.7544 0.8141 -0.2456
H3XD H 0.8141 0.7544 -0.2456
H3ND H 0.7544 0.7544 -0.1859
H3MD H 0.8141 0.9956 -0.0044
H3WE H 0.7544 0.9359 -0.0044
H3B H 0.7544 0.9956 -0.0641
H3A H 0.9956 0.9359 -0.2456
H3XE H 0.9359 0.9956 -0.2456
H3ME H 0.9956 0.9956 -0.1859
H4VD H 1.0029 0.7835 0.0029
H4YE H 1.0029 0.7471 -0.0335
H4IE H 0.7471 0.7835 -0.2529
H4XD H 0.7835 0.7471 -0.2529
H4ND H 0.7471 0.7471 -0.2165
H4MD H 0.7835 1.0029 0.0029
H4WE H 0.7471 0.9665 0.0029
H4B H 0.7471 1.0029 -0.0335
H4A H 1.0029 0.9665 -0.2529
H4XE H 0.9665 1.0029 -0.2529
H4ME H 1.0029 1.0029 -0.2165
C3YE C 1.0913(3) 0.8337(2) -0.0837(2)
C3KE C 0.9163(2) 0.6587(3) -0.0837(2)
C3BG C 1.0837(2) 0.9087(3) 0.1663(2)
C3WE C 0.8337(2) 0.9163(2) 0.0913(3)
C3A C 1.0913(3) 0.9163(2) -0.1663(2)
C3XD C 0.8337(2) 0.6587(3) -0.1663(2)
C3IE C 0.8337(2) 0.8337(2) -0.3413(3)
C3ND C 0.6587(3) 0.8337(2) -0.1663(2)
C3ZD C 0.6587(3) 0.9163(2) -0.0837(2)
C3B C 0.8337(2) 1.0913(3) -0.0837(2)
C3JD C 0.9163(2) 0.9163(2) -0.3413(3)
H5VD H 0.8998 0.8274 0.0823
H5YE H 1.0823 0.8502 -0.0774
H5VB H 1.0823 0.8274 -0.1002
H5MB H 0.8998 0.6677 -0.0774
H5KE H 0.9226 0.6677 -0.1002
H5FB H 1.0774 0.9177 0.1498
H5BG H 1.1002 0.9177 0.1726
H5WE H 0.8502 0.9226 0.0823
H5HB H 0.8274 0.8998 0.0823
H5A H 1.0823 0.9226 -0.1498
H5ME H 1.0823 0.8998 -0.1726
H5XD H 0.8274 0.6677 -0.1498
H5YB H 0.8502 0.6677 -0.1726
H5IE H 0.8502 0.8274 -0.3323
H5GC H 0.8274 0.8502 -0.3323
H5ND H 0.6677 0.8502 -0.1726
H5KB H 0.6677 0.8274 -0.1498
H5ZD H 0.6677 0.8998 -0.0774
H5IC H 0.6677 0.9226 -0.1002
H5B H 0.8502 1.0823 -0.0774
H5MD H 0.8274 1.0823 -0.1002
H5JD H 0.8998 0.9226 -0.3323
H5UB H 0.9226 0.8998 -0.3323
C4VD C 0.92900(19) 0.78584(17) 0.10556(18)
C4YE C 1.10556(18) 0.82100(19) -0.03584(17)
C4VB C 1.10556(18) 0.78584(17) -0.07100(19)
C4MB C 0.92900(19) 0.64444(18) -0.03584(17)
C4KE C 0.96416(17) 0.64444(18) -0.07100(19)
C4FB C 1.03584(17) 0.89444(18) 0.17900(19)
C4BG C 1.07100(19) 0.89444(18) 0.21416(17)
C4WE C 0.82100(19) 0.96416(17) 0.10556(18)
C4HB C 0.78584(17) 0.92900(19) 0.10556(18)
C4A C 1.10556(18) 0.96416(17) -0.17900(19)
C4ME C 1.10556(18) 0.92900(19) -0.21416(17)
C4XD C 0.78584(17) 0.64444(18) -0.17900(19)
C4YB C 0.82100(19) 0.64444(18) -0.21416(17)
C4IE C 0.82100(19) 0.78584(17) -0.35556(18)
C4GC C 0.78584(17) 0.82100(19) -0.35556(18)
C4ND C 0.64444(18) 0.82100(19) -0.21416(17)
C4KB C 0.64444(18) 0.78584(17) -0.17900(19)
C4ZD C 0.64444(18) 0.92900(19) -0.03584(17)
C4IC C 0.64444(18) 0.96416(17) -0.07100(19)
C4B C 0.82100(19) 1.10556(18) -0.03584(17)
C4MD C 0.78584(17) 1.10556(18) -0.07100(19)
C4JD C 0.92900(19) 0.96416(17) -0.35556(18)
C4UB C 0.96416(17) 0.92900(19) -0.35556(18)
H7VD H 0.9126 0.7793 0.0966
H7YE H 1.0966 0.8374 -0.0293
H7VB H 1.0966 0.7793 -0.0874
H7MB H 0.9126 0.6534 -0.0293
H7KE H 0.9707 0.6534 -0.0874
H7FB H 1.0293 0.9034 0.1626
H7BG H 1.0874 0.9034 0.2207
H7WE H 0.8374 0.9707 0.0966
H7HB H 0.7793 0.9126 0.0966
H7A H 1.0966 0.9707 -0.1626
H7ME H 1.0966 0.9126 -0.2207
H7XD H 0.7793 0.6534 -0.1626
H7YB H 0.8374 0.6534 -0.2207
H7IE H 0.8374 0.7793 -0.3466
H7GC H 0.7793 0.8374 -0.3466
H7ND H 0.6534 0.8374 -0.2207
H7KB H 0.6534 0.7793 -0.1626
H7ZD H 0.6534 0.9126 -0.0293
H7IC H 0.6534 0.9707 -0.0874
H7B H 0.8374 1.0966 -0.0293
H7MD H 0.7793 1.0966 -0.0874
H7JD H 0.9126 0.9707 -0.3466
H7UB H 0.9707 0.9126 -0.3466
H8VD H 0.9425 0.7714 0.1049
H8YE H 1.1049 0.8075 -0.0214
H8VB H 1.1049 0.7714 -0.0575
H8MB H 0.9425 0.6451 -0.0214
H8KE H 0.9786 0.6451 -0.0575
H8FB H 1.0214 0.8951 0.1925
H8BG H 1.0575 0.8951 0.2286
H8WE H 0.8075 0.9786 0.1049
H8HB H 0.7714 0.9425 0.1049
H8A H 1.1049 0.9786 -0.1925
H8ME H 1.1049 0.9425 -0.2286
H8XD H 0.7714 0.6451 -0.1925
H8YB H 0.8075 0.6451 -0.2286
H8IE H 0.8075 0.7714 -0.3549
H8GC H 0.7714 0.8075 -0.3549
H8ND H 0.6451 0.8075 -0.2286
H8KB H 0.6451 0.7714 -0.1925
H8ZD H 0.6451 0.9425 -0.0214
H8IC H 0.6451 0.9786 -0.0575
H8B H 0.8075 1.1049 -0.0214
H8MD H 0.7714 1.1049 -0.0575
H8JD H 0.9425 0.9786 -0.3549
H8UB H 0.9786 0.9425 -0.3549
C5VD C 0.90082(18) 0.8150(2) 0.1339(2)
C5YE C 1.1339(2) 0.84918(18) -0.0650(2)
C5VB C 1.1339(2) 0.8150(2) -0.09918(18)
C5MB C 0.90082(18) 0.6161(2) -0.0650(2)
C5KE C 0.9350(2) 0.6161(2) -0.09918(18)
C5FB C 1.0650(2) 0.8661(2) 0.15082(18)
C5BG C 1.09918(18) 0.8661(2) 0.1850(2)
C5WE C 0.84918(18) 0.9350(2) 0.1339(2)
C5HB C 0.8150(2) 0.90082(18) 0.1339(2)
C5A C 1.1339(2) 0.9350(2) -0.15082(18)
C5ME C 1.1339(2) 0.90082(18) -0.1850(2)
C5XD C 0.8150(2) 0.6161(2) -0.15082(18)
C5YB C 0.84918(18) 0.6161(2) -0.1850(2)
C5IE C 0.84918(18) 0.8150(2) -0.3839(2)
C5GC C 0.8150(2) 0.84918(18) -0.3839(2)
C5ND C 0.6161(2) 0.84918(18) -0.1850(2)
C5KB C 0.6161(2) 0.8150(2) -0.15082(18)
C5ZD C 0.6161(2) 0.90082(18) -0.0650(2)
C5IC C 0.6161(2) 0.9350(2) -0.09918(18)
C5B C 0.84918(18) 1.1339(2) -0.0650(2)
C5MD C 0.8150(2) 1.1339(2) -0.09918(18)
C5JD C 0.90082(18) 0.9350(2) -0.3839(2)
C5UB C 0.9350(2) 0.90082(18) -0.3839(2)
H9VD H 0.8947 0.8194 0.1522
H9YE H 1.1522 0.8553 -0.0694
H9VB H 1.1522 0.8194 -0.1053
H9MB H 0.8947 0.5978 -0.0694
H9KE H 0.9306 0.5978 -0.1053
H9FB H 1.0694 0.8478 0.1447
H9BG H 1.1053 0.8478 0.1806
H9WE H 0.8553 0.9306 0.1522
H9HB H 0.8194 0.8947 0.1522
H9A H 1.1522 0.9306 -0.1447
H9ME H 1.1522 0.8947 -0.1806
H9XD H 0.8194 0.5978 -0.1447
H9YB H 0.8553 0.5978 -0.1806
H9IE H 0.8553 0.8194 -0.4022
H9GC H 0.8194 0.8553 -0.4022
H9ND H 0.5978 0.8553 -0.1806
H9KB H 0.5978 0.8194 -0.1447
H9ZD H 0.5978 0.8947 -0.0694
H9IC H 0.5978 0.9306 -0.1053
H9B H 0.8553 1.1522 -0.0694
H9MD H 0.8194 1.1522 -0.1053
H9JD H 0.8947 0.9306 -0.4022
H9UB H 0.9306 0.8947 -0.4022
H10VD H 0.8852 0.8086 0.1236
H10YE H 1.1236 0.8648 -0.0586
H10VB H 1.1236 0.8086 -0.1148
H10MB H 0.8852 0.6264 -0.0586
H10KE H 0.9414 0.6264 -0.1148
H10FB H 1.0586 0.8764 0.1352
H10BG H 1.1148 0.8764 0.1914
H10WE H 0.8648 0.9414 0.1236
H10HB H 0.8086 0.8852 0.1236
H10A H 1.1236 0.9414 -0.1352
H10ME H 1.1236 0.8852 -0.1914
H10XD H 0.8086 0.6264 -0.1352
H10YB H 0.8648 0.6264 -0.1914
H10IE H 0.8648 0.8086 -0.3736
H10GC H 0.8086 0.8648 -0.3736
H10ND H 0.6264 0.8648 -0.1914
H10KB H 0.6264 0.8086 -0.1352
H10ZD H 0.6264 0.8852 -0.0586
H10IC H 0.6264 0.9414 -0.1148
H10B H 0.8648 1.1236 -0.0586
H10MD H 0.8086 1.1236 -0.1148
H10JD H 0.8852 0.9414 -0.3736
H10UB H 0.9414 0.8852 -0.3736
C6YE C 1.14857(18) 0.80226(16) -0.05226(16)
C6KE C 0.94774(16) 0.60143(18) -0.05226(16)
C6BG C 1.05226(16) 0.85143(18) 0.19774(16)
C6WE C 0.80226(16) 0.94774(16) 0.14857(18)
C6A C 1.14857(18) 0.94774(16) -0.19774(16)
C6XD C 0.80226(16) 0.60143(18) -0.19774(16)
C6IE C 0.80226(16) 0.80226(16) -0.39857(18)
C6ND C 0.60143(18) 0.80226(16) -0.19774(16)
C6ZD C 0.60143(18) 0.94774(16) -0.05226(16)
C6B C 0.80226(16) 1.14857(18) -0.05226(16)
C6JD C 0.94774(16) 0.94774(16) -0.39857(18)
H11YE H 1.1677 0.8058 -0.0558
H11KE H 0.9442 0.5823 -0.0558
H11BG H 1.0558 0.8323 0.1942
H11WE H 0.8058 0.9442 0.1677
H11A H 1.1677 0.9442 -0.1942
H11XD H 0.8058 0.5823 -0.1942
H11IE H 0.8058 0.8058 -0.4177
H11ND H 0.5823 0.8058 -0.1942
H11ZD H 0.5823 0.9442 -0.0558
H11B H 0.8058 1.1677 -0.0558
H11JD H 0.9442 0.9442 -0.4177
H12YE H 1.1474 0.7883 -0.0383
H12KE H 0.9617 0.6026 -0.0383
H12BG H 1.0383 0.8526 0.2117
H12WE H 0.7883 0.9617 0.1474
H12A H 1.1474 0.9617 -0.2117
H12XD H 0.7883 0.6026 -0.2117
H12IE H 0.7883 0.7883 -0.3974
H12ND H 0.6026 0.7883 -0.2117
H12ZD H 0.6026 0.9617 -0.0383
H12B H 0.7883 1.1474 -0.0383
H12JD H 0.9617 0.9617 -0.3974
C7B C 0.8407(3) 0.8750 -0.1250
C7ZD C 0.8750 0.9093(3) -0.1250
C7JD C 0.9093(3) 0.8750 -0.1250
C7MD C 0.8750 0.8750 -0.0907(3)
C7A C 0.8750 0.8750 -0.1593(3)
H13MD H 0.8636 0.8636 -0.0791
H13KE H 0.8864 0.8864 -0.0791
H13JD H 0.9209 0.8864 -0.1136
H13VD H 0.9209 0.8636 -0.1364
H13XE H 0.8864 0.8636 -0.1709
H13A H 0.8636 0.8864 -0.1709
H13ME H 0.8636 0.9209 -0.1364
H13ZD H 0.8864 0.9209 -0.1136
H13B H 0.8291 0.8636 -0.1136
H13WE H 0.8291 0.8864 -0.1364
H13YE H 0.8636 0.8291 -0.1136
loop_
_geom_bond_atom_site_label_1
_geom_bond_atom_site_label_2
_geom_bond_site_symmetry_1
_geom_bond_site_symmetry_2
Cd1 O1 1_555 1_555
Cd2 O3 1_555 1_555
Cd3 O4 1_555 1_555
Cd4 O6 1_555 1_555
O2 Cd1 1_555 1_555
O5 Cd3 1_555 1_555
O7 Cd4 1_555 1_555
N1 Cd1 1_555 1_555
N2 Cd1 1_555 1_555
N3 Cd2 1_555 1_555
N4 Cd2 1_555 1_555
N5 Cd3 1_555 1_555
N6 Cd4 1_555 1_555
C1 N1 1_555 1_555
H1 C1 1_555 1_555
C2 N1 1_555 1_555
H3 C2 1_555 1_555
H4 C2 1_555 1_555
C3 N2 1_555 1_555
H5 C3 1_555 1_555
C4 N2 1_555 1_555
H7 C4 1_555 1_555
H8 C4 1_555 1_555
C5 N5 1_555 1_555
H9 C5 1_555 1_555
H10 C5 1_555 1_555
C6 N5 1_555 1_555
H11 C6 1_555 1_555
H12 C6 1_555 1_555
C7 N4 1_555 1_555
H13 C7 1_555 1_555
Cd1YE O1YE 1_555 1_555
Cd1KE O1MB 1_555 1_555
Cd1IE O1IE 1_555 1_555
Cd1XD O1YB 1_555 1_555
Cd1ND O1ND 1_555 1_555
Cd1WE O1HB 1_555 1_555
Cd1ZD O1ZD 1_555 1_555
Cd1B O1B 1_555 1_555
Cd1JD O1JD 1_555 1_555
Cd1XE O1JC 1_555 1_555
Cd1A O1ME 1_555 1_555
Cd1BG N2BG 1_555 1_555
Cd2ND O3IE 1_555 1_555
Cd2B O3ZD 1_555 1_555
Cd2A O3JD 1_555 1_555
Cd3SD O4SD 1_555 1_555
Cd3YE O4YE 1_555 1_555
Cd3VB O4VB 1_555 1_555
Cd3MB O4MB 1_555 1_555
Cd3CE O4CE 1_555 1_555
Cd3BG O4BG 1_555 1_555
Cd3WE O4WE 1_555 1_555
Cd3HB O4HB 1_555 1_555
Cd3A O4A 1_555 1_555
Cd3GE O4GE 1_555 1_555
Cd3QD O4QD 1_555 1_555
Cd3YB N5YB 1_555 1_555
Cd3EE N5IE 1_555 1_555
Cd3GC N5GC 1_555 1_555
Cd3ID N5ND 1_555 1_555
Cd3KB N5KB 1_555 1_555
Cd3UD N5ZD 1_555 1_555
Cd3IC N5IC 1_555 1_555
Cd3B N5B 1_555 1_555
Cd3ED N5MD 1_555 1_555
Cd3GD N5JD 1_555 1_555
Cd3UB N5UB 1_555 1_555
Cd4A O6A 1_555 1_555
Cd4XD O6XD 1_555 1_555
Cd4U O6TC 1_555 1_555
Cd4JD O6IE 1_555 1_555
Cd4ND O6ND 1_555 1_555
Cd4B N6B 1_555 1_555
O1VD Cd1 1_555 1_555
O1VB Cd1YE 1_555 1_555
O1KE Cd1KE 1_555 1_555
O1GC Cd1IE 1_555 1_555
O1XD Cd1XD 1_555 1_555
O1KB Cd1ND 1_555 1_555
O1WE Cd1WE 1_555 1_555
O1IC Cd1ZD 1_555 1_555
O1MD Cd1B 1_555 1_555
O1UB Cd1JD 1_555 1_555
O1XE Cd1XE 1_555 1_555
O1A Cd1A 1_555 1_555
O2YE Cd1YE 1_555 1_555
O2KE Cd1KE 1_555 1_555
O2IE Cd1IE 1_555 1_555
O2XD Cd1XD 1_555 1_555
O2ND Cd1ND 1_555 1_555
O2WE Cd1WE 1_555 1_555
O2ZD Cd1ZD 1_555 1_555
O2B Cd1B 1_555 1_555
O2JD Cd1JD 1_555 1_555
O2XE Cd1XE 1_555 1_555
O2A Cd1A 1_555 1_555
O3VD Cd2 1_555 1_555
O3KE Cd2 1_555 1_555
O3ND Cd2ND 1_555 1_555
O3XD Cd2ND 1_555 1_555
O3B Cd2B 1_555 1_555
O3MD Cd2B 1_555 1_555
O3ME Cd2A 1_555 1_555
O3A Cd2A 1_555 1_555
O5FB Cd3 1_555 1_555
O5VD Cd3SD 1_555 1_555
O5SD Cd3SD 1_555 1_555
O5YE Cd3YE 1_555 1_555
O5TC Cd3YE 1_555 1_555
O5VB Cd3VB 1_555 1_555
O5AC Cd3VB 1_555 1_555
O5MB Cd3MB 1_555 1_555
O5RB Cd3MB 1_555 1_555
O5KE Cd3CE 1_555 1_555
O5CE Cd3CE 1_555 1_555
O5BG Cd3BG 1_555 1_555
O5HG Cd3BG 1_555 1_555
O5WE Cd3WE 1_555 1_555
O5SC Cd3WE 1_555 1_555
O5HB Cd3HB 1_555 1_555
O5PB Cd3HB 1_555 1_555
O5A Cd3A 1_555 1_555
O5EB Cd3A 1_555 1_555
O5ME Cd3GE 1_555 1_555
O5GE Cd3GE 1_555 1_555
O5XD Cd3QD 1_555 1_555
O5QD Cd3QD 1_555 1_555
O6VD Cd4 1_555 1_555
O6ME Cd4A 1_555 1_555
O6KE Cd4XD 1_555 1_555
O6U Cd4U 1_555 1_555
O6JD Cd4JD 1_555 1_555
O6ZD Cd4ND 1_555 1_555
O7A Cd4A 1_555 1_555
O7XD Cd4XD 1_555 1_555
O7U Cd4U 1_555 1_555
O7JD Cd4JD 1_555 1_555
O7ND Cd4ND 1_555 1_555
N1YE Cd1YE 1_555 1_555
N1KE C2 1_555 1_555
N1IE Cd1IE 1_555 1_555
N1XD Cd1XD 1_555 1_555
N1ND Cd1ND 1_555 1_555
N1WE Cd1WE 1_555 1_555
N1ZD Cd1ZD 1_555 1_555
N1B Cd1B 1_555 1_555
N1JD Cd1JD 1_555 1_555
N1XE Cd1XE 1_555 1_555
N1A Cd1A 1_555 1_555
N2YE Cd1YE 1_555 1_555
N2KE Cd1KE 1_555 1_555
N2BG C3BG 1_555 1_555
N2WE Cd1WE 1_555 1_555
N2A Cd1A 1_555 1_555
N2XD Cd1XD 1_555 1_555
N2IE Cd1IE 1_555 1_555
N2ND Cd1ND 1_555 1_555
N2ZD Cd1ZD 1_555 1_555
N2B Cd1B 1_555 1_555
N2JD Cd1JD 1_555 1_555
N2XE Cd1XE 1_555 1_555
N3ND Cd2ND 1_555 1_555
N3B Cd2B 1_555 1_555
N3A Cd2A 1_555 1_555
N4ND C7 1_555 1_555
N4B Cd2B 1_555 1_555
N4A Cd2A 1_555 1_555
N5VD C6 1_555 1_555
N5YE Cd3YE 1_555 1_555
N5VB Cd3VB 1_555 1_555
N5MB Cd3MB 1_555 1_555
N5KE Cd3CE 1_555 1_555
N5FB Cd3 1_555 1_555
N5BG Cd3BG 1_555 1_555
N5WE Cd3WE 1_555 1_555
N5HB Cd3HB 1_555 1_555
N5A Cd3A 1_555 1_555
N5ME Cd3GE 1_555 1_555
N5XD Cd3QD 1_555 1_555
N5YB C4YB 1_555 1_555
N5IE C4IE 1_555 1_555
N5GC C4GC 1_555 1_555
N5ND C4ND 1_555 1_555
N5KB C4KB 1_555 1_555
N5ZD C4ZD 1_555 1_555
N5IC C4IC 1_555 1_555
N5B C4B 1_555 1_555
N5MD C4MD 1_555 1_555
N5JD C4JD 1_555 1_555
N5UB C4UB 1_555 1_555
N5SD Cd3SD 1_555 1_555
N5TC Cd3YE 1_555 1_555
N5AC Cd3VB 1_555 1_555
N5RB Cd3MB 1_555 1_555
N5CE Cd3CE 1_555 1_555
N5HG Cd3BG 1_555 1_555
N5SC Cd3WE 1_555 1_555
N5PB Cd3HB 1_555 1_555
N5EB Cd3A 1_555 1_555
N5GE Cd3GE 1_555 1_555
N5QD Cd3QD 1_555 1_555
N6YE Cd4A 1_555 1_555
N6KE Cd4XD 1_555 1_555
N6BG Cd4U 1_555 1_555
N6WE Cd4 1_555 1_555
N6A Cd4A 1_555 1_555
N6XD Cd4XD 1_555 1_555
N6IE Cd4JD 1_555 1_555
N6ND Cd4ND 1_555 1_555
N6ZD Cd4ND 1_555 1_555
N6B C3B 1_555 1_555
N6JD Cd4JD 1_555 1_555
N6U Cd4U 1_555 1_555
C1YE N3 1_555 1_555
C1KE N3 1_555 1_555
C1IE N1IE 1_555 1_555
C1XD N1XD 1_555 1_555
C1ND N1ND 1_555 1_555
C1WE N1WE 1_555 1_555
C1ZD N1ZD 1_555 1_555
C1B N1B 1_555 1_555
C1JD N1JD 1_555 1_555
C1XE N1XE 1_555 1_555
C1A N1A 1_555 1_555
H1MB C1KE 1_555 1_555
H1KE C1KE 1_555 1_555
H1YE C1YE 1_555 1_555
H1VB C1YE 1_555 1_555
H1VD C1 1_555 1_555
H1IE C1IE 1_555 1_555
H1ND C1ND 1_555 1_555
H1KB C1ND 1_555 1_555
H1YB C1XD 1_555 1_555
H1XD C1XD 1_555 1_555
H1GC C1IE 1_555 1_555
H1HB C1WE 1_555 1_555
H1B C1B 1_555 1_555
H1MD C1B 1_555 1_555
H1ZD C1ZD 1_555 1_555
H1IC C1ZD 1_555 1_555
H1WE C1WE 1_555 1_555
H1JD C1JD 1_555 1_555
H1ME C1A 1_555 1_555
H1A C1A 1_555 1_555
H1JC C1XE 1_555 1_555
H1XE C1XE 1_555 1_555
H1UB C1JD 1_555 1_555
C2YE N1YE 1_555 1_555
C2VD N1 1_555 1_555
C2IE N1IE 1_555 1_555
C2ND N1XD 1_555 1_555
C2XD N1IE 1_555 1_555
C2MD N1WE 1_555 1_555
C2B N1ZD 1_555 1_555
C2WE N1WE 1_555 1_555
C2A N1JD 1_555 1_555
C2ME N1XE 1_555 1_555
C2XE N1JD 1_555 1_555
H3VD C2VD 1_555 1_555
H3YE C2YE 1_555 1_555
H3IE C2IE 1_555 1_555
H3XD C2XD 1_555 1_555
H3ND C2ND 1_555 1_555
H3MD C2MD 1_555 1_555
H3WE C2WE 1_555 1_555
H3B C2B 1_555 1_555
H3A C2A 1_555 1_555
H3XE C2XE 1_555 1_555
H3ME C2ME 1_555 1_555
H4VD C2VD 1_555 1_555
H4YE C2YE 1_555 1_555
H4IE C2IE 1_555 1_555
H4XD C2XD 1_555 1_555
H4ND C2ND 1_555 1_555
H4MD C2MD 1_555 1_555
H4WE C2WE 1_555 1_555
H4B C2B 1_555 1_555
H4A C2A 1_555 1_555
H4XE C2XE 1_555 1_555
H4ME C2ME 1_555 1_555
C3YE N2YE 1_555 1_555
C3KE N2KE 1_555 1_555
C3BG N6BG 1_555 1_555
C3WE N2WE 1_555 1_555
C3A N2A 1_555 1_555
C3XD N2XD 1_555 1_555
C3IE N2IE 1_555 1_555
C3ND N2ND 1_555 1_555
C3ZD N2ZD 1_555 1_555
C3B N2B 1_555 1_555
C3JD N2JD 1_555 1_555
H5VD C3 1_555 1_555
H5YE C3YE 1_555 1_555
H5VB C3YE 1_555 1_555
H5MB C3KE 1_555 1_555
H5KE C3KE 1_555 1_555
H5FB C3BG 1_555 1_555
H5BG C3BG 1_555 1_555
H5WE C3WE 1_555 1_555
H5HB C3WE 1_555 1_555
H5A C3A 1_555 1_555
H5ME C3A 1_555 1_555
H5XD C3XD 1_555 1_555
H5YB C3XD 1_555 1_555
H5IE C3IE 1_555 1_555
H5GC C3IE 1_555 1_555
H5ND C3ND 1_555 1_555
H5KB C3ND 1_555 1_555
H5ZD C3ZD 1_555 1_555
H5IC C3ZD 1_555 1_555
H5B C3B 1_555 1_555
H5MD C3B 1_555 1_555
H5JD C3JD 1_555 1_555
H5UB C3JD 1_555 1_555
C4VD N2 1_555 1_555
C4YE N2YE 1_555 1_555
C4VB N2YE 1_555 1_555
C4MB N2KE 1_555 1_555
C4KE N2KE 1_555 1_555
C4FB N2BG 1_555 1_555
C4BG N2BG 1_555 1_555
C4WE N2WE 1_555 1_555
C4HB N2WE 1_555 1_555
C4A N2A 1_555 1_555
C4ME N2A 1_555 1_555
C4XD N2XD 1_555 1_555
C4YB N2XD 1_555 1_555
C4IE N2IE 1_555 1_555
C4GC N2IE 1_555 1_555
C4ND N2ND 1_555 1_555
C4KB N2ND 1_555 1_555
C4ZD N2ZD 1_555 1_555
C4IC N2ZD 1_555 1_555
C4B N2B 1_555 1_555
C4MD N2B 1_555 1_555
C4JD N2JD 1_555 1_555
C4UB N2JD 1_555 1_555
H7VD C4VD 1_555 1_555
H7YE C4YE 1_555 1_555
H7VB C4VB 1_555 1_555
H7MB C4MB 1_555 1_555
H7KE C4KE 1_555 1_555
H7FB C4FB 1_555 1_555
H7BG C4BG 1_555 1_555
H7WE C4WE 1_555 1_555
H7HB C4HB 1_555 1_555
H7A C4A 1_555 1_555
H7ME C4ME 1_555 1_555
H7XD C4XD 1_555 1_555
H7YB C4YB 1_555 1_555
H7IE C4IE 1_555 1_555
H7GC C4GC 1_555 1_555
H7ND C4ND 1_555 1_555
H7KB C4KB 1_555 1_555
H7ZD C4ZD 1_555 1_555
H7IC C4IC 1_555 1_555
H7B C4B 1_555 1_555
H7MD C4MD 1_555 1_555
H7JD C4JD 1_555 1_555
H7UB C4UB 1_555 1_555
H8VD C4VD 1_555 1_555
H8YE C4YE 1_555 1_555
H8VB C4VB 1_555 1_555
H8MB C4MB 1_555 1_555
H8KE C4KE 1_555 1_555
H8FB C4FB 1_555 1_555
H8BG C4BG 1_555 1_555
H8WE C4WE 1_555 1_555
H8HB C4HB 1_555 1_555
H8A C4A 1_555 1_555
H8ME C4ME 1_555 1_555
H8XD C4XD 1_555 1_555
H8YB C4YB 1_555 1_555
H8IE C4IE 1_555 1_555
H8GC C4GC 1_555 1_555
H8ND C4ND 1_555 1_555
H8KB C4KB 1_555 1_555
H8ZD C4ZD 1_555 1_555
H8IC C4IC 1_555 1_555
H8B C4B 1_555 1_555
H8MD C4MD 1_555 1_555
H8JD C4JD 1_555 1_555
H8UB C4UB 1_555 1_555
C5VD N6 1_555 1_555
C5YE N5YE 1_555 1_555
C5VB N5VB 1_555 1_555
C5MB N5MB 1_555 1_555
C5KE N5KE 1_555 1_555
C5FB N5FB 1_555 1_555
C5BG N5BG 1_555 1_555
C5WE N5WE 1_555 1_555
C5HB N5HB 1_555 1_555
C5A N5A 1_555 1_555
C5ME N5ME 1_555 1_555
C5XD N5XD 1_555 1_555
C5YB N5YB 1_555 1_555
C5IE N5IE 1_555 1_555
C5GC N5GC 1_555 1_555
C5ND N5ND 1_555 1_555
C5KB N5KB 1_555 1_555
C5ZD N5ZD 1_555 1_555
C5IC N5IC 1_555 1_555
C5B N5B 1_555 1_555
C5MD N5MD 1_555 1_555
C5JD N5JD 1_555 1_555
C5UB N5UB 1_555 1_555
H9VD C5VD 1_555 1_555
H9YE C5YE 1_555 1_555
H9VB C5VB 1_555 1_555
H9MB C5MB 1_555 1_555
H9KE C5KE 1_555 1_555
H9FB C5FB 1_555 1_555
H9BG C5BG 1_555 1_555
H9WE C5WE 1_555 1_555
H9HB C5HB 1_555 1_555
H9A C5A 1_555 1_555
H9ME C5ME 1_555 1_555
H9XD C5XD 1_555 1_555
H9YB C5YB 1_555 1_555
H9IE C5IE 1_555 1_555
H9GC C5GC 1_555 1_555
H9ND C5ND 1_555 1_555
H9KB C5KB 1_555 1_555
H9ZD C5ZD 1_555 1_555
H9IC C5IC 1_555 1_555
H9B C5B 1_555 1_555
H9MD C5MD 1_555 1_555
H9JD C5JD 1_555 1_555
H9UB C5UB 1_555 1_555
H10VD C5VD 1_555 1_555
H10YE C5YE 1_555 1_555
H10VB C5VB 1_555 1_555
H10MB C5MB 1_555 1_555
H10KE C5KE 1_555 1_555
H10FB C5FB 1_555 1_555
H10BG C5BG 1_555 1_555
H10WE C5WE 1_555 1_555
H10HB C5HB 1_555 1_555
H10A C5A 1_555 1_555
H10ME C5ME 1_555 1_555
H10XD C5XD 1_555 1_555
H10YB C5YB 1_555 1_555
H10IE C5IE 1_555 1_555
H10GC C5GC 1_555 1_555
H10ND C5ND 1_555 1_555
H10KB C5KB 1_555 1_555
H10ZD C5ZD 1_555 1_555
H10IC C5IC 1_555 1_555
H10B C5B 1_555 1_555
H10MD C5MD 1_555 1_555
H10JD C5JD 1_555 1_555
H10UB C5UB 1_555 1_555
C6YE N5YE 1_555 1_555
C6KE N5MB 1_555 1_555
C6BG N5FB 1_555 1_555
C6WE N5WE 1_555 1_555
C6A N5A 1_555 1_555
C6XD N5XD 1_555 1_555
C6IE N5IE 1_555 1_555
C6ND N5ND 1_555 1_555
C6ZD N5ZD 1_555 1_555
C6B N5B 1_555 1_555
C6JD N5JD 1_555 1_555
H11YE C6YE 1_555 1_555
H11KE C6KE 1_555 1_555
H11BG C6BG 1_555 1_555
H11WE C6WE 1_555 1_555
H11A C6A 1_555 1_555
H11XD C6XD 1_555 1_555
H11IE C6IE 1_555 1_555
H11ND C6ND 1_555 1_555
H11ZD C6ZD 1_555 1_555
H11B C6B 1_555 1_555
H11JD C6JD 1_555 1_555
H12YE C6YE 1_555 1_555
H12KE C6KE 1_555 1_555
H12BG C6BG 1_555 1_555
H12WE C6WE 1_555 1_555
H12A C6A 1_555 1_555
H12XD C6XD 1_555 1_555
H12IE C6IE 1_555 1_555
H12ND C6ND 1_555 1_555
H12ZD C6ZD 1_555 1_555
H12B C6B 1_555 1_555
H12JD C6JD 1_555 1_555
C7B N4ND 1_555 1_555
C7ZD N4B 1_555 1_555
C7JD N4 1_555 1_555
C7MD N4 1_555 1_555
C7A N4ND 1_555 1_555
H13MD C7MD 1_555 1_555
H13KE C7MD 1_555 1_555
H13JD C7JD 1_555 1_555
H13VD C7JD 1_555 1_555
H13XE C7A 1_555 1_555
H13A C7A 1_555 1_555
H13ME C7ZD 1_555 1_555
H13ZD C7ZD 1_555 1_555
H13B C7B 1_555 1_555
H13WE C7B 1_555 1_555
H13YE C7 1_555 1_555
N3 C1 1_555 1_555
N5 C4 1_555 1_555
N6 C3 1_555 1_555
N6 C5 1_555 1_555
Cd1KE N1KE 1_555 1_555
Cd2ND N4ND 1_555 1_555
Cd3SD N5VD 1_555 1_555
N1YE C1YE 1_555 1_555
N1YE C2VD 1_555 1_555
N1KE C1KE 1_555 1_555
N1KE C2YE 1_555 1_555
N1XD C2XD 1_555 1_555
N1ND C2IE 1_555 1_555
N1ND C2ND 1_555 1_555
N1ZD C2WE 1_555 1_555
N1B C2MD 1_555 1_555
N1B C2B 1_555 1_555
N1XE C2XE 1_555 1_555
N1A C2A 1_555 1_555
N1A C2ME 1_555 1_555
N3ND C1IE 1_555 1_555
N3ND C1XD 1_555 1_555
N3ND C1ND 1_555 1_555
N3B C1WE 1_555 1_555
N3B C1ZD 1_555 1_555
N3B C1B 1_555 1_555
N3A C1JD 1_555 1_555
N3A C1XE 1_555 1_555
N3A C1A 1_555 1_555
N4B C7B 1_555 1_555
N4B C7MD 1_555 1_555
N4A C7ZD 1_555 1_555
N4A C7JD 1_555 1_555
N4A C7A 1_555 1_555
N5VD C4VD 1_555 1_555
N5VD C5VD 1_555 1_555
N5YE C4YE 1_555 1_555
N5VB C4VB 1_555 1_555
N5VB C6YE 1_555 1_555
N5MB C4MB 1_555 1_555
N5KE C4KE 1_555 1_555
N5KE C6KE 1_555 1_555
N5FB C4FB 1_555 1_555
N5BG C4BG 1_555 1_555
N5BG C6BG 1_555 1_555
N5WE C4WE 1_555 1_555
N5HB C4HB 1_555 1_555
N5HB C6WE 1_555 1_555
N5A C4A 1_555 1_555
N5ME C4ME 1_555 1_555
N5ME C6A 1_555 1_555
N5XD C4XD 1_555 1_555
N5YB C6XD 1_555 1_555
N5GC C6IE 1_555 1_555
N5KB C6ND 1_555 1_555
N5IC C6ZD 1_555 1_555
N5MD C6B 1_555 1_555
N5UB C6JD 1_555 1_555
N6YE C3YE 1_555 1_555
N6YE C5YE 1_555 1_555
N6YE C5VB 1_555 1_555
N6KE C3KE 1_555 1_555
N6KE C5MB 1_555 1_555
N6KE C5KE 1_555 1_555
N6BG C5FB 1_555 1_555
N6BG C5BG 1_555 1_555
N6WE C3WE 1_555 1_555
N6WE C5WE 1_555 1_555
N6WE C5HB 1_555 1_555
N6A C3A 1_555 1_555
N6A C5A 1_555 1_555
N6A C5ME 1_555 1_555
N6XD C3XD 1_555 1_555
N6XD C5XD 1_555 1_555
N6XD C5YB 1_555 1_555
N6IE C3IE 1_555 1_555
N6IE C5IE 1_555 1_555
N6IE C5GC 1_555 1_555
N6ND C3ND 1_555 1_555
N6ND C5ND 1_555 1_555
N6ND C5KB 1_555 1_555
N6ZD C3ZD 1_555 1_555
N6ZD C5ZD 1_555 1_555
N6ZD C5IC 1_555 1_555
N6B C5B 1_555 1_555
N6B C5MD 1_555 1_555
N6JD C3JD 1_555 1_555
N6JD C5JD 1_555 1_555
N6JD C5UB 1_555 1_555

#END
