
#######################################################################
#
#                 Cambridge Crystallographic Data Centre
#                                CCDC 
#
#######################################################################
#
# If this CIF has been generated from an entry in the Cambridge 
# Structural Database, then it will include bibliographic, chemical, 
# crystal, experimental, refinement or atomic coordinate data resulting 
# from the CCDC's data processing and validation procedures.
#
#######################################################################

data_NULMAJ
_chemical_formula_moiety         '(C32 H66 Mo1 N16 Ni2 O5)n'
_symmetry_cell_setting           orthorhombic
_symmetry_space_group_name_H-M   'F d d d'
_symmetry_Int_Tables_number      70
_space_group_name_Hall           '-F 2uv 2vw'
loop_
_symmetry_equiv_pos_site_id
_symmetry_equiv_pos_as_xyz
1 x,y,z
2 1/4-x,1/4-y,z
3 x,1/4-y,1/4-z
4 1/4-x,y,1/4-z
5 x,1/2+y,1/2+z
6 1/4-x,3/4-y,1/2+z
7 x,3/4-y,3/4-z
8 1/4-x,1/2+y,3/4-z
9 1/2+x,y,1/2+z
10 3/4-x,1/4-y,1/2+z
11 1/2+x,1/4-y,3/4-z
12 3/4-x,y,3/4-z
13 1/2+x,1/2+y,z
14 3/4-x,3/4-y,z
15 1/2+x,3/4-y,1/4-z
16 3/4-x,1/2+y,1/4-z
17 -x,-y,-z
18 3/4+x,3/4+y,-z
19 -x,3/4+y,3/4+z
20 3/4+x,-y,3/4+z
21 -x,1/2-y,1/2-z
22 3/4+x,1/4+y,1/2-z
23 -x,1/4+y,1/4+z
24 3/4+x,1/2-y,1/4+z
25 1/2-x,-y,1/2-z
26 1/4+x,3/4+y,1/2-z
27 1/2-x,3/4+y,1/4+z
28 1/4+x,-y,1/4+z
29 1/2-x,1/2-y,-z
30 1/4+x,1/4+y,-z
31 1/2-x,1/4+y,3/4+z
32 1/4+x,1/2-y,3/4+z
_cell_length_a                   28.569(10)
_cell_length_b                   27.219(10)
_cell_length_c                   16.819(6)
_cell_angle_alpha                90
_cell_angle_beta                 90
_cell_angle_gamma                90
_cell_volume                     13078.8
loop_
_atom_site_label
_atom_site_type_symbol
_atom_site_fract_x
_atom_site_fract_y
_atom_site_fract_z
_atom_site_U_iso_or_equiv
_atom_site_thermal_displace_type
C1 C -0.07114(8) 0.32532(9) 0.33825(15) 0.0361 Uani
C2 C -0.09600(10) 0.33790(11) 0.47842(16) 0.0455 Uani
C3 C -0.04447(12) 0.27807(14) 0.0986(2) 0.0657 Uani
H1 H -0.0220 0.2599 0.0658 0.0790 Uiso
C4 C -0.08438(11) 0.28716(12) 0.04347(18) 0.0540 Uani
H2 H -0.0938 0.2563 0.0196 0.0650 Uiso
H3 H -0.1107 0.2997 0.0737 0.0650 Uiso
C5 C -0.07206(12) 0.32429(14) -0.0235(2) 0.0663 Uani
H4 H -0.1009 0.3340 -0.0496 0.0790 Uiso
H5 H -0.0529 0.3076 -0.0626 0.0790 Uiso
C6 C -0.04680(13) 0.36986(14) 0.0026(2) 0.0673 Uani
H6 H -0.0685 0.3917 0.0292 0.0800 Uiso
H7 H -0.0344 0.3868 -0.0436 0.0800 Uiso
C7 C -0.00754(11) 0.35711(13) 0.0579(2) 0.0577 Uani
H8 H 0.0041 0.3874 0.0811 0.0690 Uiso
H9 H 0.0177 0.3432 0.0265 0.0690 Uiso
C8 C -0.01798(13) 0.32295(14) 0.1227(2) 0.0670 Uani
H10 H -0.0402 0.3411 0.1560 0.0800 Uiso
Mo1 Mo -0.1250 0.3750 0.3750 0.0274 Uani
N1 N -0.04308(8) 0.29869(9) 0.31600(13) 0.0451 Uani
N2 N -0.08066(8) 0.31665(9) 0.52839(14) 0.0475 Uani
N3 N -0.05384(9) 0.24424(10) 0.16562(16) 0.0589 Uani
H11 H -0.0814 0.2519 0.1883 0.0710 Uiso
H12 H -0.0555 0.2132 0.1476 0.0710 Uiso
N4 N 0.01914(10) 0.30989(11) 0.17701(17) 0.0639 Uani
H13 H 0.0449 0.3020 0.1491 0.0770 Uiso
H14 H 0.0261 0.3360 0.2078 0.0770 Uiso
Ni1 Ni 0.0000 0.2500 0.2500 0.0512 Uani
C1F C -0.07114(8) 0.42468(9) 0.41175(15) 0.0361 Uani
C1K C -0.17886(8) 0.32532(9) 0.41175(15) 0.0361 Uani
C1M C -0.17886(8) 0.42468(9) 0.33825(15) 0.0361 Uani
C2F C -0.09600(10) 0.41210(11) 0.27158(16) 0.0455 Uani
C2K C -0.15400(10) 0.33790(11) 0.27158(16) 0.0455 Uani
C2M C -0.15400(10) 0.41210(11) 0.47842(16) 0.0455 Uani
C3T C 0.04447(12) 0.22193(14) 0.4014(2) 0.0657 Uani
C3F C -0.04447(12) 0.47193(14) 0.6514(2) 0.0657 Uani
C3V C 0.04447(12) 0.52807(14) 0.3486(2) 0.0657 Uani
H1T H 0.0220 0.2401 0.4342 0.0790 Uiso
H1F H -0.0220 0.4901 0.6842 0.0790 Uiso
H1V H 0.0220 0.5099 0.3158 0.0790 Uiso
C4T C 0.08438(11) 0.21284(12) 0.45653(18) 0.0540 Uani
C4F C -0.08438(11) 0.46284(12) 0.70653(18) 0.0540 Uani
C4V C 0.08438(11) 0.53716(12) 0.29347(18) 0.0540 Uani
H2T H 0.0938 0.2437 0.4804 0.0650 Uiso
H2F H -0.0938 0.4937 0.7304 0.0650 Uiso
H2V H 0.0938 0.5063 0.2696 0.0650 Uiso
H3T H 0.1107 0.2003 0.4263 0.0650 Uiso
H3F H -0.1107 0.4503 0.6763 0.0650 Uiso
H3V H 0.1107 0.5497 0.3237 0.0650 Uiso
C5T C 0.07206(12) 0.17571(14) 0.5235(2) 0.0663 Uani
C5F C -0.07206(12) 0.42571(14) 0.7735(2) 0.0663 Uani
C5V C 0.07206(12) 0.57429(14) 0.2265(2) 0.0663 Uani
H4T H 0.1009 0.1660 0.5496 0.0790 Uiso
H4F H -0.1009 0.4160 0.7996 0.0790 Uiso
H4V H 0.1009 0.5840 0.2004 0.0790 Uiso
H5T H 0.0529 0.1924 0.5626 0.0790 Uiso
H5F H -0.0529 0.4424 0.8126 0.0790 Uiso
H5V H 0.0529 0.5576 0.1874 0.0790 Uiso
C6T C 0.04680(13) 0.13014(14) 0.4974(2) 0.0673 Uani
C6F C -0.04680(13) 0.38014(14) 0.7474(2) 0.0673 Uani
C6V C 0.04680(13) 0.61986(14) 0.2526(2) 0.0673 Uani
H6T H 0.0685 0.1083 0.4708 0.0800 Uiso
H6F H -0.0685 0.3583 0.7208 0.0800 Uiso
H6V H 0.0685 0.6417 0.2792 0.0800 Uiso
H7T H 0.0344 0.1132 0.5436 0.0800 Uiso
H7F H -0.0344 0.3632 0.7936 0.0800 Uiso
H7V H 0.0344 0.6368 0.2064 0.0800 Uiso
C7T C 0.00754(11) 0.14289(13) 0.4421(2) 0.0577 Uani
C7F C -0.00754(11) 0.39289(13) 0.6921(2) 0.0577 Uani
C7V C 0.00754(11) 0.60711(13) 0.3079(2) 0.0577 Uani
H8T H -0.0041 0.1126 0.4189 0.0690 Uiso
H8F H 0.0041 0.3626 0.6689 0.0690 Uiso
H8V H -0.0041 0.6374 0.3311 0.0690 Uiso
H9T H -0.0177 0.1568 0.4735 0.0690 Uiso
H9F H 0.0177 0.4068 0.7235 0.0690 Uiso
H9V H -0.0177 0.5932 0.2765 0.0690 Uiso
C8T C 0.01798(13) 0.17705(14) 0.3773(2) 0.0670 Uani
C8F C -0.01798(13) 0.42705(14) 0.6273(2) 0.0670 Uani
C8V C 0.01798(13) 0.57295(14) 0.3727(2) 0.0670 Uani
H10T H 0.0402 0.1589 0.3440 0.0800 Uiso
H10F H -0.0402 0.4089 0.5940 0.0800 Uiso
H10V H 0.0402 0.5911 0.4060 0.0800 Uiso
N1F N -0.04308(8) 0.45131(9) 0.43400(13) 0.0451 Uani
N1K N -0.20692(8) 0.29869(9) 0.43400(13) 0.0451 Uani
N1M N -0.20692(8) 0.45131(9) 0.31600(13) 0.0451 Uani
N1T N 0.04308(8) 0.20131(9) 0.18400(13) 0.0451 Uani
N1V N 0.04308(8) 0.54869(9) 0.56600(13) 0.0451 Uani
N2F N -0.08066(8) 0.43335(9) 0.22161(14) 0.0475 Uani
N2K N -0.16934(8) 0.31665(9) 0.22161(14) 0.0475 Uani
N2M N -0.16934(8) 0.43335(9) 0.52839(14) 0.0475 Uani
N3T N 0.05384(9) 0.25576(10) 0.33438(16) 0.0589 Uani
N3F N -0.05384(9) 0.50576(10) 0.58438(16) 0.0589 Uani
N3V N 0.05384(9) 0.49424(10) 0.41562(16) 0.0589 Uani
H11T H 0.0814 0.2481 0.3117 0.0710 Uiso
H11F H -0.0814 0.4981 0.5617 0.0710 Uiso
H11V H 0.0814 0.5019 0.4383 0.0710 Uiso
H12T H 0.0555 0.2868 0.3524 0.0710 Uiso
H12F H -0.0555 0.5368 0.6024 0.0710 Uiso
H12V H 0.0555 0.4632 0.3976 0.0710 Uiso
N4T N -0.01914(10) 0.19011(11) 0.32299(17) 0.0639 Uani
N4F N 0.01914(10) 0.44011(11) 0.57299(17) 0.0639 Uani
N4V N -0.01914(10) 0.55989(11) 0.42701(17) 0.0639 Uani
H13T H -0.0449 0.1980 0.3509 0.0770 Uiso
H13F H 0.0449 0.4480 0.6009 0.0770 Uiso
H13V H -0.0449 0.5520 0.3991 0.0770 Uiso
H14T H -0.0261 0.1640 0.2922 0.0770 Uiso
H14F H 0.0261 0.4140 0.5422 0.0770 Uiso
H14V H -0.0261 0.5860 0.4578 0.0770 Uiso
Ni1F Ni 0.0000 0.5000 0.5000 0.0512 Uani
Ni1K Ni -0.2500 0.2500 0.5000 0.0512 Uani
Ni1M Ni -0.2500 0.5000 0.2500 0.0512 Uani
O1 O 0.79296(17) 0.24482(18) 0.1043(3) 0.0460 Uani
H15 H 0.8015 0.2653 0.0690 0.0550 Uiso
H16 H 0.8076 0.2506 0.1473 0.0550 Uiso
O2 O 0.85667(15) 0.21438(17) 0.3027(3) 0.0470 Uani
H17 H 0.8859 0.2117 0.2943 0.0560 Uiso
H18 H 0.8518 0.2372 0.3362 0.0560 Uiso
O3 O 0.97176(15) 0.09495(17) 0.2128(3) 0.0443 Uani
H19 H 0.9427 0.1014 0.2163 0.0530 Uiso
H20 H 0.9852 0.1169 0.1851 0.0530 Uiso
O4 O 0.94453(16) 0.01127(17) 0.4451(3) 0.0480 Uani
H21 H 0.9616 -0.0143 0.4466 0.0580 Uiso
H22 H 0.9510 0.0297 0.4844 0.0580 Uiso
O5 O 0.87626(17) 0.11901(19) 0.2491(3) 0.0470 Uani
H23 H 0.8882 0.1000 0.2836 0.0560 Uiso
H24 H 0.8919 0.1455 0.2471 0.0560 Uiso
loop_
_atom_site_aniso_label
_atom_site_aniso_U_11
_atom_site_aniso_U_22
_atom_site_aniso_U_33
_atom_site_aniso_U_23
_atom_site_aniso_U_13
_atom_site_aniso_U_12
C1 0.0365(12) 0.0315(11) 0.0403(12) 0.0045(9) -0.0051(10) 0.0133(10)
C2 0.0487(14) 0.0509(15) 0.0370(13) 0.0095(12) -0.0049(11) 0.0145(12)
C3 0.061 0.063 0.073 0.0122 -0.0159 0.0162
C4 0.0577 0.0548 0.0495 -0.0129 -0.0097 0.0181
C5 0.0658 0.071 0.0621 0.0137 -0.0134 0.0201
C6 0.066 0.071 0.065 0.0168 -0.0139 0.0011
C7 0.0573 0.0564 0.0594 0.0114 0.0112 0.0146
C8 0.064 0.066 0.071 0.0182 -0.0144 -0.0058
Mo1 0.0269(2) 0.0270(2) 0.0282(2) 0.000 0.000 0.000
N1 0.0437(12) 0.0466(13) 0.0450(12) -0.0054(10) 0.0038(9) 0.0134(10)
N2 0.0464(12) 0.0455(12) 0.0505(13) 0.0121(10) -0.0115(10) 0.0126(10)
N3 0.0568 0.0601 0.0598 -0.0115 -0.0041 0.0202
N4 0.0646 0.066 0.061 -0.0074 0.0032 0.0198
Ni1 0.0482(3) 0.0564(3) 0.0489(3) -0.0087(2) -0.0012(2) 0.0264(2)
C1F 0.0365 0.0315 0.0403 0.0045 0.0051 -0.0133
C1K 0.0365 0.0315 0.0403 -0.0045 -0.0051 -0.0133
C1M 0.0365 0.0315 0.0403 -0.0045 0.0051 0.0133
C2F 0.0487 0.0509 0.037 0.0095 0.0049 -0.0145
C2K 0.0487 0.0509 0.037 -0.0095 -0.0049 -0.0145
C2M 0.0487 0.0509 0.037 -0.0095 0.0049 0.0145
C3T 0.0610(18) 0.063(2) 0.073(2) 0.0122(16) -0.0159(16) 0.0162(16)
C3F 0.061 0.063 0.073 0.0122 0.0159 -0.0162
C3V 0.061 0.063 0.073 0.0122 0.0159 -0.0162
C4T 0.0577(16) 0.0548(17) 0.0495(16) -0.0129(13) -0.0097(13) 0.0181(14)
C4F 0.0577 0.0548 0.0495 -0.0129 0.0097 -0.0181
C4V 0.0577 0.0548 0.0495 -0.0129 0.0097 -0.0181
C5T 0.0658(19) 0.071(2) 0.0621(19) 0.0137(16) -0.0134(16) 0.0201(17)
C5F 0.0658 0.071 0.0621 0.0137 0.0134 -0.0201
C5V 0.0658 0.071 0.0621 0.0137 0.0134 -0.0201
C6T 0.066(2) 0.071(2) 0.065(2) 0.0168(16) -0.0139(16) 0.0011(17)
C6F 0.066 0.071 0.065 0.0168 0.0139 -0.0011
C6V 0.066 0.071 0.065 0.0168 0.0139 -0.0011
C7T 0.0573(17) 0.0564(17) 0.0594(18) 0.0114(14) 0.0112(14) 0.0146(14)
C7F 0.0573 0.0564 0.0594 0.0114 -0.0112 -0.0146
C7V 0.0573 0.0564 0.0594 0.0114 -0.0112 -0.0146
C8T 0.064(2) 0.066(2) 0.071(2) 0.0182(17) -0.0144(16) -0.0058(17)
C8F 0.064 0.066 0.071 0.0182 0.0144 0.0058
C8V 0.064 0.066 0.071 0.0182 0.0144 0.0058
N1F 0.0437 0.0466 0.045 -0.0054 -0.0038 -0.0134
N1K 0.0437 0.0466 0.045 0.0054 0.0038 -0.0134
N1M 0.0437 0.0466 0.045 0.0054 -0.0038 0.0134
N1T 0.0437 0.0466 0.045 -0.0054 0.0038 0.0134
N1V 0.0437 0.0466 0.045 -0.0054 -0.0038 -0.0134
N2F 0.0464 0.0455 0.0505 0.0121 0.0115 -0.0126
N2K 0.0464 0.0455 0.0505 -0.0121 -0.0115 -0.0126
N2M 0.0464 0.0455 0.0505 -0.0121 0.0115 0.0126
N3T 0.0568(14) 0.0601(16) 0.0598(15) -0.0115(12) -0.0041(12) 0.0202(12)
N3F 0.0568 0.0601 0.0598 -0.0115 0.0041 -0.0202
N3V 0.0568 0.0601 0.0598 -0.0115 0.0041 -0.0202
N4T 0.0646(16) 0.0660(17) 0.0610(16) -0.0074(13) 0.0032(13) 0.0198(14)
N4F 0.0646 0.066 0.061 -0.0074 -0.0032 -0.0198
N4V 0.0646 0.066 0.061 -0.0074 -0.0032 -0.0198
Ni1F 0.0482 0.0564 0.0489 -0.0087 0.0012 -0.0264
Ni1K 0.0482 0.0564 0.0489 0.0087 -0.0012 -0.0264
Ni1M 0.0482 0.0564 0.0489 0.0087 0.0012 0.0264
O1 0.048(3) 0.051(3) 0.039(3) 0.014(2) 0.014(2) 0.006(2)
O2 0.044(2) 0.045(3) 0.052(3) 0.0161(19) 0.015(2) 0.015(2)
O3 0.044(2) 0.045(3) 0.044(3) 0.0119(18) 0.0126(19) 0.0206(19)
O4 0.045(3) 0.046(3) 0.053(3) -0.008(2) -0.016(2) 0.021(2)
O5 0.045(3) 0.045(3) 0.051(3) -0.019(2) -0.016(2) 0.010(2)
loop_
_geom_bond_atom_site_label_1
_geom_bond_atom_site_label_2
_geom_bond_site_symmetry_1
_geom_bond_site_symmetry_2
C1 Mo1 1_555 1_555
C2 Mo1 1_555 1_555
C3 H1 1_555 1_555
C4 C3 1_555 1_555
H2 C4 1_555 1_555
H3 C4 1_555 1_555
C5 C4 1_555 1_555
H4 C5 1_555 1_555
H5 C5 1_555 1_555
C6 C5 1_555 1_555
H6 C6 1_555 1_555
H7 C6 1_555 1_555
C7 C6 1_555 1_555
H8 C7 1_555 1_555
H9 C7 1_555 1_555
C8 C3 1_555 1_555
H10 C8 1_555 1_555
Mo1 C1F 1_555 1_555
N1 C1 1_555 1_555
N2 C2 1_555 1_555
N3 C3 1_555 1_555
H11 N3 1_555 1_555
H12 N3 1_555 1_555
N4 C8 1_555 1_555
H13 N4 1_555 1_555
H14 N4 1_555 1_555
Ni1 N1 1_555 1_555
O1 H15 1_555 1_555
H16 O1 1_555 1_555
O2 H17 1_555 1_555
H18 O2 1_555 1_555
O3 H19 1_555 1_555
H20 O3 1_555 1_555
O4 H21 1_555 1_555
H22 O4 1_555 1_555
O5 H23 1_555 1_555
H24 O5 1_555 1_555
C1F N1F 1_555 1_555
C1K Mo1 1_555 1_555
C1M Mo1 1_555 1_555
C2F Mo1 1_555 1_555
C2K Mo1 1_555 1_555
C2M Mo1 1_555 1_555
C3T H1T 1_555 1_555
C3F H1F 1_555 1_555
C3V H1V 1_555 1_555
C4T C3T 1_555 1_555
C4F C3F 1_555 1_555
C4V C3V 1_555 1_555
H2T C4T 1_555 1_555
H2F C4F 1_555 1_555
H2V C4V 1_555 1_555
H3T C4T 1_555 1_555
H3F C4F 1_555 1_555
H3V C4V 1_555 1_555
C5T C4T 1_555 1_555
C5F C4F 1_555 1_555
C5V C4V 1_555 1_555
H4T C5T 1_555 1_555
H4F C5F 1_555 1_555
H4V C5V 1_555 1_555
H5T C5T 1_555 1_555
H5F C5F 1_555 1_555
H5V C5V 1_555 1_555
C6T C5T 1_555 1_555
C6F C5F 1_555 1_555
C6V C5V 1_555 1_555
H6T C6T 1_555 1_555
H6F C6F 1_555 1_555
H6V C6V 1_555 1_555
H7T C6T 1_555 1_555
H7F C6F 1_555 1_555
H7V C6V 1_555 1_555
C7T C6T 1_555 1_555
C7F C6F 1_555 1_555
C7V C6V 1_555 1_555
H8T C7T 1_555 1_555
H8F C7F 1_555 1_555
H8V C7V 1_555 1_555
H9T C7T 1_555 1_555
H9F C7F 1_555 1_555
H9V C7V 1_555 1_555
C8T C3T 1_555 1_555
C8F C3F 1_555 1_555
C8V C3V 1_555 1_555
H10T C8T 1_555 1_555
H10F C8F 1_555 1_555
H10V C8V 1_555 1_555
N1F Ni1F 1_555 1_555
N1K C1K 1_555 1_555
N1M C1M 1_555 1_555
N1T Ni1 1_555 1_555
N1V Ni1F 1_555 1_555
N2F C2F 1_555 1_555
N2K C2K 1_555 1_555
N2M C2M 1_555 1_555
N3T Ni1 1_555 1_555
N3F C3F 1_555 1_555
N3V C3V 1_555 1_555
H11T N3T 1_555 1_555
H11F N3F 1_555 1_555
H11V N3V 1_555 1_555
H12T N3T 1_555 1_555
H12F N3F 1_555 1_555
H12V N3V 1_555 1_555
N4T Ni1 1_555 1_555
N4F C8F 1_555 1_555
N4V C8V 1_555 1_555
H13T N4T 1_555 1_555
H13F N4F 1_555 1_555
H13V N4V 1_555 1_555
H14T N4T 1_555 1_555
H14F N4F 1_555 1_555
H14V N4V 1_555 1_555
Ni1F N3F 1_555 1_555
Ni1K N1K 1_555 1_555
Ni1M N1M 1_555 1_555
C7 C8 1_555 1_555
N3 Ni1 1_555 1_555
N4 Ni1 1_555 1_555
C3T N3T 1_555 1_555
C7T C8T 1_555 1_555
C7F C8F 1_555 1_555
C7V C8V 1_555 1_555
C8T N4T 1_555 1_555
N3V Ni1F 1_555 1_555
N4F Ni1F 1_555 1_555
N4V Ni1F 1_555 1_555

#END
