
#######################################################################
#
#                 Cambridge Crystallographic Data Centre
#                                CCDC 
#
#######################################################################
#
# If this CIF has been generated from an entry in the Cambridge 
# Structural Database, then it will include bibliographic, chemical, 
# crystal, experimental, refinement or atomic coordinate data resulting 
# from the CCDC's data processing and validation procedures.
#
#######################################################################

data_KICXAX
_chemical_formula_moiety         '(C64 H104 As4 Co4 N48 O126 W36)n'
_symmetry_cell_setting           triclinic
_symmetry_space_group_name_H-M   'P -1'
_symmetry_Int_Tables_number      2
_space_group_name_Hall           '-P 1'
loop_
_symmetry_equiv_pos_site_id
_symmetry_equiv_pos_as_xyz
1 x,y,z
2 -x,-y,-z
_cell_length_a                   14.840(2)
_cell_length_b                   14.907(2)
_cell_length_c                   22.118(3)
_cell_angle_alpha                88.767(2)
_cell_angle_beta                 87.169(2)
_cell_angle_gamma                75.796(3)
_cell_volume                     4737.34
loop_
_atom_site_label
_atom_site_type_symbol
_atom_site_fract_x
_atom_site_fract_y
_atom_site_fract_z
C1 C 0.688(4) 0.365(4) 0.901(3)
H1 H 0.7313 0.3237 0.8773
C2 C 0.594(4) 0.432(4) 0.969(3)
H2 H 0.5591 0.4439 1.0055
C3 C 0.649(4) 0.490(4) 0.822(3)
H3 H 0.5889 0.5084 0.8043
H4 H 0.6719 0.5449 0.8274
C4 C 0.565(4) 1.269(4) 0.121(3)
H5 H 0.5883 1.3088 0.1436
C5 C 0.545(4) 1.179(4) 0.055(3)
H6 H 0.5565 1.1400 0.0218
C6 C 0.402(4) 1.140(4) 0.094(3)
H7 H 0.3955 1.1168 0.1353
H8 H 0.4184 1.0875 0.0676
C7 C 0.308(4) 1.202(4) 0.077(3)
H9 H 0.3141 1.2250 0.0359
H10 H 0.2625 1.1652 0.0772
C8 C 0.812(4) 1.060(4) 0.957(3)
H11 H 0.8525 1.0433 0.9887
C9 C 0.790(2) 0.498(3) 0.5301(14)
H12 H 0.7680 0.5363 0.4974
N1 N 0.7348(18) 0.473(3) 0.5787(15)
N2 N 0.795(2) 0.414(3) 0.6187(13)
C10 C 0.888(2) 0.403(3) 0.5948(16)
H13 H 0.9414 0.3680 0.6120
N3 N 0.885(2) 0.455(3) 0.5400(15)
C11 C 0.604(4) 0.741(4) 0.6920(15)
H14 H 0.5771 0.7869 0.7224
H15 H 0.5758 0.6889 0.6977
C12 C 0.706(4) 0.710(4) 0.697(3)
H16 H 0.7319 0.6660 0.6654
H17 H 0.7192 0.6781 0.7358
C13 C 0.754(4) 0.789(4) 0.693(3)
H18 H 0.7330 0.8265 0.6577
H19 H 0.7353 0.8275 0.7283
C14 C 0.270(4) 1.285(4) 0.118(3)
H20 H 0.2654 1.2619 0.1591
H21 H 0.3154 1.3222 0.1171
C15 C 0.180(4) 1.344(4) 0.103(3)
H22 H 0.1664 1.3993 0.1279
H23 H 0.1822 1.3641 0.0610
C16 C 0.036(4) 1.296(4) 0.078(3)
H24 H 0.0268 1.3230 0.0398
C17 C 0.859(4) 0.759(4) 0.688(3)
H25 H 0.8862 0.8112 0.6939
H26 H 0.8825 0.7122 0.7189
C18 C 0.763(4) 0.383(4) 0.677(3)
H27 H 0.8155 0.3447 0.6968
H28 H 0.7194 0.3459 0.6698
C19 C 0.718(4) 0.460(4) 0.715(3)
H29 H 0.6552 0.4868 0.7030
H30 H 0.7524 0.5081 0.7123
C20 C 0.721(4) 1.035(4) 0.819(3)
H31 H 0.6589 1.0699 0.8091
H32 H 0.7203 0.9699 0.8209
C21 C 0.790(4) 1.049(4) 0.769(2)
H33 H 0.8502 1.0090 0.7767
H34 H 0.7950 1.1128 0.7700
C22 C 0.024(4) 1.218(4) 0.163(3)
H35 H 0.0058 1.1773 0.1905
C23 C 0.758(4) 1.028(4) 0.706(3)
H36 H 0.8095 0.9854 0.6852
H37 H 0.7070 0.9989 0.7116
C24 C 0.731(4) 1.109(4) 0.6717(18)
H38 H 0.7842 1.1339 0.6610
H39 H 0.6848 1.1548 0.6940
C25 C 0.717(4) 0.423(4) 0.781(3)
H40 H 0.6987 0.3644 0.7811
H41 H 0.7785 0.4114 0.7962
C26 C 0.706(4) 1.139(4) 0.904(3)
H42 H 0.6603 1.1878 0.8892
N4 N 0.669(4) 0.350(4) 0.961(2)
N5 N 0.744(4) 1.138(4) 0.956(2)
N6 N 0.939(3) 0.624(2) 0.5464(14)
C27 C 0.887(3) 0.709(2) 0.5229(11)
H43 H 0.8777 0.7235 0.4822
N7 N 0.852(3) 0.7689(19) 0.5723(15)
N8 N 0.883(3) 0.720(2) 0.6265(11)
C28 C 0.937(3) 0.631(2) 0.6105(14)
H44 H 0.9651 0.5847 0.6372
N9 N 0.601(4) 1.232(4) 0.066(2)
N10 N 0.542(3) 0.879(2) 0.5497(14)
C29 C 0.589(3) 0.791(2) 0.5264(10)
H45 H 0.5991 0.7752 0.4857
N11 N 0.617(3) 0.7304(18) 0.5762(15)
N12 N 0.588(3) 0.781(2) 0.6303(11)
C30 C 0.542(3) 0.873(2) 0.6139(13)
H46 H 0.5155 0.9206 0.6405
N13 N 0.602(2) 1.047(3) 0.5423(15)
C31 C 0.697(2) 1.014(3) 0.5234(13)
H47 H 0.7196 0.9831 0.4874
N14 N 0.7527(18) 1.035(3) 0.5691(15)
N15 N 0.692(2) 1.081(3) 0.6163(12)
C32 C 0.599(2) 1.089(3) 0.5997(15)
H48 H 0.5453 1.1166 0.6224
N16 N 0.641(4) 0.443(4) 0.883(2)
N17 N 0.580(4) 0.486(4) 0.924(2)
N18 N 0.474(4) 1.184(4) 0.092(2)
N19 N 0.487(4) 1.235(4) 0.136(2)
N20 N 0.743(4) 1.063(4) 0.876(2)
N21 N 0.105(4) 1.297(4) 0.113(2)
N22 N 0.088(4) 1.259(4) 0.166(2)
N23 N -0.014(4) 1.251(4) 0.106(2)
N24 N 0.817(4) 1.007(4) 0.907(2)
O1 O 0.927(2) 0.543(2) 0.4226(15)
O2 O 1.011(2) 1.075(2) 0.2925(15)
O3 O 0.754(2) 0.659(2) 0.0780(15)
O4 O 0.816(2) 1.115(2) 0.2972(15)
O5 O 0.708(2) 0.378(2) 0.2864(15)
O6 O 0.390(2) 0.740(2) 0.2432(15)
O7 O 1.144(2) 0.768(2) 0.2206(15)
O8 O 0.795(2) 0.813(2) 0.0896(15)
O9 O 0.724(2) 0.357(2) 0.0828(15)
O10 O 0.976(2) 0.780(2) 0.2937(15)
O11 O 0.905(2) 0.947(2) 0.3307(15)
O12 O 0.750(2) 0.656(2) 0.2959(15)
O13 O 0.718(2) 1.153(2) 0.1958(15)
O14 O 0.867(2) 0.711(2) 0.3767(15)
O15 O 0.741(2) 0.610(2) 0.4068(15)
O16 O 0.978(2) 0.818(2) 0.4172(15)
O17 O 0.856(2) 1.266(2) 0.0002(15)
O18 O 0.945(2) 0.576(2) 0.2978(15)
O19 O 0.659(2) 0.695(2) 0.1898(15)
O20 O 0.537(2) 0.587(2) 0.2358(15)
O21 O 0.853(2) 0.628(2) 0.1895(15)
O22 O 0.554(2) 0.721(2) 0.3079(15)
O23 O 0.687(2) 0.877(2) 0.1922(15)
O24 O 0.930(2) 0.443(2) 0.2301(15)
O25 O 0.581(2) 0.918(2) 0.3054(15)
O26 O 0.511(2) 0.844(2) 0.2186(15)
O27 O 0.430(2) 1.028(2) 0.2459(15)
O28 O 1.022(2) 0.808(2) 0.1283(15)
O29 O 0.840(2) 0.476(2) 0.3314(15)
O30 O 0.778(2) 0.846(2) 0.2988(15)
O31 O 0.626(2) 0.550(2) 0.3387(15)
O32 O 0.826(2) 0.491(2) 0.1076(15)
O33 O 0.631(2) 1.208(2) 0.3140(15)
O34 O 0.546(2) 0.671(2) 0.4252(15)
O35 O 0.598(2) 1.065(2) 0.2427(15)
O36 O 0.648(2) 0.547(2) 0.1118(15)
O37 O 0.615(2) 0.810(2) 0.0904(15)
O38 O 0.909(2) 0.289(2) 0.2965(15)
O39 O 0.915(2) 0.708(2) 0.0815(15)
O40 O 0.583(2) 0.670(2) 0.0232(15)
O41 O 1.103(2) 0.474(2) 0.2297(15)
O42 O 0.548(2) 0.981(2) 0.1430(15)
O43 O 0.626(2) 0.422(2) 0.1929(15)
O44 O 0.520(2) 0.428(2) 0.2965(15)
O45 O 0.883(2) 0.963(2) 0.1101(15)
O46 O 0.686(2) 1.021(2) 0.3413(15)
O47 O 0.915(2) 0.560(2) 0.0143(15)
O48 O 0.987(2) 0.535(2) 0.1304(15)
O49 O 0.507(2) 0.706(2) 0.1405(15)
O50 O 0.811(2) 0.355(2) 0.1927(15)
O51 O 0.786(2) 0.880(2) 0.4083(15)
O52 O 0.990(2) 0.917(2) 0.2316(15)
O53 O 0.903(2) 1.090(2) 0.1884(15)
O54 O 0.618(2) 0.971(2) 0.0250(15)
O55 O 0.660(2) 0.780(2) 0.3826(15)
O56 O 0.874(2) 0.810(2) 0.1863(15)
O57 O 0.694(2) 1.038(2) 0.1287(15)
O58 O 1.021(2) 0.662(2) 0.2039(15)
O59 O 0.736(2) 0.520(2) 0.2239(15)
O60 O 0.807(2) 1.155(2) 0.0855(15)
O61 O 0.798(2) 0.985(2) 0.2268(15)
O62 O 0.594(2) 0.948(2) 0.4282(15)
O63 O 0.951(2) 0.853(2) 0.0122(15)
Co1 Co 0.5000 1.0000 0.5000
Co2 Co 1.0000 0.5000 0.5000
Co3 Co 0.7227(5) 1.2475(4) 0.0196(3)
As1 As 0.7823(3) 0.8778(3) 0.2258(2)
As2 As 0.7491(3) 0.6286(3) 0.2249(2)
W1 W 0.79694(14) 1.07776(13) 0.14118(9)
W2 W 0.50457(14) 0.72302(14) 0.22543(10)
W3 W 0.87969(14) 0.59712(14) 0.08755(9)
W4 W 0.90887(15) 0.84180(14) 0.08705(10)
W5 W 0.53960(14) 0.96550(14) 0.22894(9)
W6 W 0.83765(14) 0.39157(13) 0.27073(9)
W7 W 0.60418(14) 0.47490(13) 0.26876(9)
W8 W 0.73296(14) 0.43510(13) 0.13795(9)
W9 W 0.65094(15) 0.91982(13) 0.09336(9)
W10 W 0.62174(15) 0.67567(14) 0.09203(9)
W11 W 0.92501(13) 1.02731(13) 0.26466(9)
W12 W 0.85815(14) 0.59126(13) 0.36429(9)
W13 W 0.99263(13) 0.54033(13) 0.21732(9)
W14 W 0.90018(14) 0.83063(14) 0.36292(9)
W15 W 0.69215(14) 1.11011(13) 0.27942(10)
W16 W 0.62617(14) 0.66348(14) 0.36806(9)
W17 W 0.66780(14) 0.90216(14) 0.36984(9)
W18 W 1.02612(14) 0.78291(14) 0.21353(10)
C4A C 0.435(4) 0.731(4) 0.879(3)
H5A H 0.4117 0.6912 0.8564
C5A C 0.455(4) 0.821(4) 0.945(3)
H6A H 0.4435 0.8600 0.9782
C6A C 0.598(4) 0.860(4) 0.906(3)
H7A H 0.6045 0.8832 0.8647
H8A H 0.5816 0.9125 0.9324
C7A C 0.692(4) 0.798(4) 0.923(3)
H9A H 0.6859 0.7750 0.9641
H10A H 0.7375 0.8348 0.9228
C8A C 0.188(4) 0.940(4) 0.043(3)
H11A H 0.1475 0.9567 0.0113
C11A C 0.396(4) 1.259(4) 0.3080(15)
H14A H 0.4229 1.2131 0.2776
H15A H 0.4242 1.3111 0.3023
C12A C 0.294(4) 1.290(4) 0.303(3)
H16A H 0.2681 1.3340 0.3346
H17A H 0.2808 1.3219 0.2642
C13A C 0.246(4) 1.211(4) 0.307(3)
H18A H 0.2670 1.1735 0.3423
H19A H 0.2647 1.1725 0.2717
C14A C 0.730(4) 0.715(4) 0.882(3)
H20A H 0.7346 0.7381 0.8409
H21A H 0.6846 0.6778 0.8829
C15A C 0.820(4) 0.656(4) 0.897(3)
H22A H 0.8336 0.6007 0.8721
H23A H 0.8178 0.6359 0.9390
C16A C 0.964(4) 0.704(4) 0.922(3)
H24A H 0.9732 0.6770 0.9602
C17A C 0.141(4) 1.241(4) 0.312(3)
H25A H 0.1138 1.1888 0.3061
H26A H 0.1175 1.2878 0.2811
C20A C 0.279(4) 0.965(4) 0.181(3)
H31A H 0.3411 0.9301 0.1909
H32A H 0.2797 1.0301 0.1791
C21A C 0.210(4) 0.951(4) 0.231(2)
H33A H 0.1498 0.9910 0.2233
H34A H 0.2050 0.8872 0.2300
C22A C 0.976(4) 0.782(4) 0.837(3)
H35A H 0.9942 0.8227 0.8095
C23A C 0.242(4) 0.972(4) 0.294(3)
H36A H 0.1905 1.0146 0.3148
H37A H 0.2930 1.0011 0.2884
C24A C 0.269(4) 0.891(4) 0.3283(18)
H38A H 0.2158 0.8661 0.3390
H39A H 0.3152 0.8452 0.3060
C26A C 0.294(4) 0.861(4) 0.096(3)
H42A H 0.3397 0.8122 0.1108
N5A N 0.256(4) 0.862(4) 0.044(2)
N6A N 0.061(3) 1.376(2) 0.4536(14)
C27A C 0.113(3) 1.291(2) 0.4771(11)
H43A H 0.1223 1.2765 0.5178
N7A N 0.148(3) 1.2311(19) 0.4277(15)
N8A N 0.117(3) 1.280(2) 0.3735(11)
C28A C 0.063(3) 1.369(2) 0.3895(14)
H44A H 0.0349 1.4153 0.3628
N9A N 0.399(4) 0.768(4) 0.934(2)
N10A N 0.458(3) 1.121(2) 0.4503(14)
C29A C 0.411(3) 1.209(2) 0.4736(10)
H45A H 0.4009 1.2248 0.5143
N11A N 0.383(3) 1.2696(18) 0.4238(15)
N12A N 0.412(3) 1.219(2) 0.3697(11)
C30A C 0.458(3) 1.127(2) 0.3861(13)
H46A H 0.4845 1.0794 0.3595
N13A N 0.398(2) 0.953(3) 0.4577(15)
C31A C 0.303(2) 0.986(3) 0.4766(13)
H47A H 0.2804 1.0169 0.5126
N14A N 0.2473(18) 0.965(3) 0.4309(15)
N15A N 0.308(2) 0.919(3) 0.3837(12)
C32A C 0.401(2) 0.911(3) 0.4003(15)
H48A H 0.4547 0.8834 0.3776
N18A N 0.526(4) 0.816(4) 0.908(2)
N19A N 0.513(4) 0.765(4) 0.864(2)
N20A N 0.257(4) 0.937(4) 0.124(2)
N21A N 0.895(4) 0.703(4) 0.887(2)
N22A N 0.912(4) 0.741(4) 0.834(2)
N23A N 1.014(4) 0.749(4) 0.894(2)
N24A N 0.183(4) 0.993(4) 0.093(2)
O1A O 0.073(2) 1.457(2) 0.5774(15)
O2A O -0.011(2) 0.925(2) 0.7075(15)
O3A O 0.246(2) 1.341(2) 0.9220(15)
O4A O 0.184(2) 0.885(2) 0.7028(15)
O5A O 0.292(2) 1.622(2) 0.7136(15)
O6A O 0.610(2) 1.260(2) 0.7568(15)
O7A O -0.144(2) 1.232(2) 0.7794(15)
O8A O 0.205(2) 1.187(2) 0.9104(15)
O9A O 0.276(2) 1.643(2) 0.9172(15)
O10A O 0.024(2) 1.220(2) 0.7063(15)
O11A O 0.095(2) 1.053(2) 0.6693(15)
O12A O 0.250(2) 1.344(2) 0.7041(15)
O13A O 0.282(2) 0.847(2) 0.8042(15)
O14A O 0.133(2) 1.289(2) 0.6233(15)
O15A O 0.259(2) 1.390(2) 0.5932(15)
O16A O 0.022(2) 1.182(2) 0.5828(15)
O17A O 0.144(2) 0.734(2) 0.9998(15)
O18A O 0.055(2) 1.424(2) 0.7022(15)
O19A O 0.341(2) 1.305(2) 0.8102(15)
O20A O 0.463(2) 1.413(2) 0.7642(15)
O21A O 0.147(2) 1.372(2) 0.8105(15)
O22A O 0.446(2) 1.279(2) 0.6921(15)
O23A O 0.313(2) 1.123(2) 0.8078(15)
O24A O 0.070(2) 1.557(2) 0.7699(15)
O25A O 0.419(2) 1.082(2) 0.6946(15)
O26A O 0.489(2) 1.156(2) 0.7814(15)
O27A O 0.570(2) 0.972(2) 0.7541(15)
O28A O -0.022(2) 1.192(2) 0.8717(15)
O29A O 0.160(2) 1.524(2) 0.6686(15)
O30A O 0.222(2) 1.154(2) 0.7012(15)
O31A O 0.374(2) 1.450(2) 0.6613(15)
O32A O 0.174(2) 1.509(2) 0.8924(15)
O33A O 0.369(2) 0.792(2) 0.6860(15)
O34A O 0.454(2) 1.329(2) 0.5748(15)
O35A O 0.402(2) 0.935(2) 0.7573(15)
O36A O 0.352(2) 1.453(2) 0.8882(15)
O37A O 0.385(2) 1.190(2) 0.9096(15)
O38A O 0.091(2) 1.711(2) 0.7035(15)
O39A O 0.085(2) 1.292(2) 0.9185(15)
O40A O 0.417(2) 1.330(2) 0.9768(15)
O41A O -0.103(2) 1.526(2) 0.7703(15)
O42A O 0.452(2) 1.019(2) 0.8570(15)
O43A O 0.374(2) 1.578(2) 0.8071(15)
O44A O 0.480(2) 1.572(2) 0.7035(15)
O45A O 0.117(2) 1.037(2) 0.8899(15)
O46A O 0.314(2) 0.979(2) 0.6587(15)
O47A O 0.085(2) 1.440(2) 0.9857(15)
O48A O 0.013(2) 1.465(2) 0.8696(15)
O49A O 0.493(2) 1.294(2) 0.8595(15)
O50A O 0.189(2) 1.645(2) 0.8073(15)
O51A O 0.214(2) 1.120(2) 0.5917(15)
O52A O 0.010(2) 1.083(2) 0.7684(15)
O53A O 0.097(2) 0.910(2) 0.8116(15)
O54A O 0.382(2) 1.029(2) 0.9750(15)
O55A O 0.340(2) 1.220(2) 0.6174(15)
O56A O 0.126(2) 1.190(2) 0.8137(15)
O57A O 0.306(2) 0.962(2) 0.8713(15)
O58A O -0.021(2) 1.338(2) 0.7961(15)
O59A O 0.264(2) 1.480(2) 0.7761(15)
O60A O 0.193(2) 0.845(2) 0.9145(15)
O61A O 0.202(2) 1.015(2) 0.7732(15)
O62A O 0.406(2) 1.052(2) 0.5718(15)
O63A O 0.049(2) 1.147(2) 0.9878(15)
Co3A Co 0.2773(5) 0.7525(4) 0.9804(3)
As1A As 0.2177(3) 1.1222(3) 0.7742(2)
As2A As 0.2509(3) 1.3714(3) 0.7751(2)
W1A W 0.20306(14) 0.92224(13) 0.85882(9)
W2A W 0.49543(14) 1.27698(14) 0.77457(10)
W3A W 0.12031(14) 1.40288(14) 0.91245(9)
W4A W 0.09113(15) 1.15820(14) 0.91295(10)
W5A W 0.46040(14) 1.03450(14) 0.77106(9)
W6A W 0.16235(14) 1.60843(13) 0.72927(9)
W7A W 0.39582(14) 1.52510(13) 0.73124(9)
W8A W 0.26704(14) 1.56490(13) 0.86205(9)
W9A W 0.34906(15) 1.08018(13) 0.90664(9)
W10A W 0.37826(15) 1.32433(14) 0.90797(9)
W11A W 0.07499(13) 0.97269(13) 0.73534(9)
W12A W 0.14185(14) 1.40874(13) 0.63571(9)
W13A W 0.00737(13) 1.45967(13) 0.78268(9)
W14A W 0.09982(14) 1.16937(14) 0.63708(9)
W15A W 0.30785(14) 0.88989(13) 0.72058(10)
W16A W 0.37383(14) 1.33652(14) 0.63194(9)
W17A W 0.33220(14) 1.09784(14) 0.63016(9)
W18A W -0.02612(14) 1.21709(14) 0.78647(10)
C1A C 1.312(4) 0.635(4) 0.099(3)
H1A H 1.2687 0.6763 0.1227
C2A C 1.406(4) 0.568(4) 0.031(3)
H2A H 1.4409 0.5561 -0.0055
C3A C 1.351(4) 0.510(4) 0.178(3)
H3A H 1.4111 0.4916 0.1957
H4A H 1.3281 0.4551 0.1726
C9A C 1.210(2) 0.502(3) 0.4699(14)
H12A H 1.2320 0.4637 0.5026
N1A N 1.2652(18) 0.527(3) 0.4213(15)
N2A N 1.205(2) 0.586(3) 0.3813(13)
C10A C 1.112(2) 0.597(3) 0.4052(16)
H13A H 1.0586 0.6320 0.3880
N3A N 1.115(2) 0.545(3) 0.4600(15)
C18A C 1.237(4) 0.617(4) 0.323(3)
H27A H 1.1845 0.6553 0.3032
H28A H 1.2806 0.6541 0.3302
C19A C 1.282(4) 0.540(4) 0.285(3)
H29A H 1.3448 0.5132 0.2970
H30A H 1.2476 0.4919 0.2877
C25A C 1.283(4) 0.577(4) 0.219(3)
H40A H 1.3013 0.6356 0.2189
H41A H 1.2215 0.5886 0.2038
N4A N 1.331(4) 0.650(4) 0.039(2)
N16A N 1.359(4) 0.557(4) 0.117(2)
N17A N 1.420(4) 0.514(4) 0.076(2)
N4_2 N 0.669(4) 1.350(4) -0.039(2)
N4A_2 N 0.331(4) 0.650(4) 1.039(2)
N5_2 N 0.744(4) 1.138(4) -0.044(2)
N5A_2 N 0.256(4) 0.862(4) 1.044(2)
N6A_2 N 1.061(3) 0.376(2) 0.4536(14)
O1A_2 O 1.073(2) 0.457(2) 0.5774(15)
O9_2 O 0.724(2) 1.357(2) 0.0828(15)
O9A_2 O 0.276(2) 0.643(2) 0.9172(15)
Co2_2 Co 0.0000 1.5000 0.5000
Co3_2 Co 0.7227(5) 0.2475(4) 0.0196(3)
Co3_3 Co 0.7227(5) 0.2475(4) 1.0196(3)
Co3_4 Co 0.7227(5) 1.2475(4) 1.0196(3)
Co3A_2 Co 0.2773(5) 0.7525(4) -0.0196(3)
Co3A_3 Co 0.2773(5) 1.7525(4) 0.9804(3)
Co3A_4 Co 1.2773(5) 0.7525(4) -0.0196(3)
loop_
_geom_bond_atom_site_label_1
_geom_bond_atom_site_label_2
_geom_bond_site_symmetry_1
_geom_bond_site_symmetry_2
C1 H1 1_555 1_555
C2 H2 1_555 1_555
C3 H3 1_555 1_555
H4 C3 1_555 1_555
C4 H5 1_555 1_555
C5 H6 1_555 1_555
C6 H7 1_555 1_555
H8 C6 1_555 1_555
C7 C6 1_555 1_555
H9 C7 1_555 1_555
H10 C7 1_555 1_555
C8 H11 1_555 1_555
C9 H12 1_555 1_555
N1 C9 1_555 1_555
N2 N1 1_555 1_555
C10 N2 1_555 1_555
H13 C10 1_555 1_555
N3 C9 1_555 1_555
C11 H14 1_555 1_555
H15 C11 1_555 1_555
C12 C11 1_555 1_555
H16 C12 1_555 1_555
H17 C12 1_555 1_555
C13 C12 1_555 1_555
H18 C13 1_555 1_555
H19 C13 1_555 1_555
C14 C7 1_555 1_555
H20 C14 1_555 1_555
H21 C14 1_555 1_555
C15 C14 1_555 1_555
H22 C15 1_555 1_555
H23 C15 1_555 1_555
C16 H24 1_555 1_555
C17 C13 1_555 1_555
H25 C17 1_555 1_555
H26 C17 1_555 1_555
C18 N2 1_555 1_555
H27 C18 1_555 1_555
H28 C18 1_555 1_555
C19 C18 1_555 1_555
H29 C19 1_555 1_555
H30 C19 1_555 1_555
C20 H31 1_555 1_555
H32 C20 1_555 1_555
C21 C20 1_555 1_555
H33 C21 1_555 1_555
H34 C21 1_555 1_555
C22 H35 1_555 1_555
C23 C21 1_555 1_555
H36 C23 1_555 1_555
H37 C23 1_555 1_555
C24 C23 1_555 1_555
H38 C24 1_555 1_555
H39 C24 1_555 1_555
C25 C3 1_555 1_555
H40 C25 1_555 1_555
H41 C25 1_555 1_555
C26 H42 1_555 1_555
N4 C1 1_555 1_555
N5 C8 1_555 1_555
N6 C27 1_555 1_555
C27 H43 1_555 1_555
N7 C27 1_555 1_555
N8 C17 1_555 1_555
C28 N6 1_555 1_555
H44 C28 1_555 1_555
N9 C4 1_555 1_555
N10 C29 1_555 1_555
C29 H45 1_555 1_555
N11 C29 1_555 1_555
N12 C11 1_555 1_555
C30 N10 1_555 1_555
H46 C30 1_555 1_555
N13 C31 1_555 1_555
C31 H47 1_555 1_555
N14 C31 1_555 1_555
N15 C24 1_555 1_555
C32 N13 1_555 1_555
H48 C32 1_555 1_555
N16 C1 1_555 1_555
N17 C2 1_555 1_555
N18 C5 1_555 1_555
N19 C4 1_555 1_555
N20 C20 1_555 1_555
N21 C15 1_555 1_555
N22 C22 1_555 1_555
N23 C16 1_555 1_555
N24 C8 1_555 1_555
O1 Co2 1_555 1_555
O2 W11 1_555 1_555
O3 W3 1_555 1_555
O4 W11 1_555 1_555
O5 W6 1_555 1_555
O6 W2 1_555 1_555
O7 W18 1_555 1_555
O8 W4 1_555 1_555
O9 W8 1_555 1_555
O10 W14 1_555 1_555
O11 W11 1_555 1_555
O12 As2 1_555 1_555
O13 W1 1_555 1_555
O14 W12 1_555 1_555
O15 W12 1_555 1_555
O16 W14 1_555 1_555
O17 Co3 1_555 1_555
O18 W12 1_555 1_555
O19 As2 1_555 1_555
O20 W2 1_555 1_555
O21 As2 1_555 1_555
O22 W2 1_555 1_555
O23 As1 1_555 1_555
O24 W6 1_555 1_555
O25 W5 1_555 1_555
O26 W2 1_555 1_555
O27 W5 1_555 1_555
O28 W4 1_555 1_555
O29 W6 1_555 1_555
O30 As1 1_555 1_555
O31 W7 1_555 1_555
O32 W3 1_555 1_555
O33 W15 1_555 1_555
O34 W16 1_555 1_555
O35 W5 1_555 1_555
O36 W8 1_555 1_555
O37 W9 1_555 1_555
O38 W6 1_555 1_555
O39 W3 1_555 1_555
O40 W10 1_555 1_555
O41 W13 1_555 1_555
O42 W5 1_555 1_555
O43 W7 1_555 1_555
O44 W7 1_555 1_555
O45 W1 1_555 1_555
O46 W15 1_555 1_555
O47 W3 1_555 1_555
O48 W3 1_555 1_555
O49 W2 1_555 1_555
O50 W6 1_555 1_555
O51 W14 1_555 1_555
O52 W11 1_555 1_555
O53 W1 1_555 1_555
O54 W9 1_555 1_555
O55 W16 1_555 1_555
O56 As1 1_555 1_555
O57 W1 1_555 1_555
O58 W13 1_555 1_555
O59 As2 1_555 1_555
O60 Co3 1_555 1_555
O61 As1 1_555 1_555
O62 Co1 1_555 1_555
O63 W4 1_555 1_555
Co1 N10 1_555 1_555
Co2 N3 1_555 1_555
Co3 N9 1_555 1_555
W1 O60 1_555 1_555
W2 O19 1_555 1_555
W3 O21 1_555 1_555
W4 O39 1_555 1_555
W5 O23 1_555 1_555
W6 O59 1_555 1_555
W7 O5 1_555 1_555
W8 O32 1_555 1_555
W9 O8 1_555 1_555
W10 O3 1_555 1_555
W11 O53 1_555 1_555
W12 O1 1_555 1_555
W13 O18 1_555 1_555
W14 O11 1_555 1_555
W15 O4 1_555 1_555
W16 O12 1_555 1_555
W17 O25 1_555 1_555
W18 O10 1_555 1_555
C4A H5A 1_555 1_555
C5A H6A 1_555 1_555
C6A H7A 1_555 1_555
H8A C6A 1_555 1_555
C7A C6A 1_555 1_555
H9A C7A 1_555 1_555
H10A C7A 1_555 1_555
C8A H11A 1_555 1_555
C11A H14A 1_555 1_555
H15A C11A 1_555 1_555
C12A C11A 1_555 1_555
H16A C12A 1_555 1_555
H17A C12A 1_555 1_555
C13A C12A 1_555 1_555
H18A C13A 1_555 1_555
H19A C13A 1_555 1_555
C14A C7A 1_555 1_555
H20A C14A 1_555 1_555
H21A C14A 1_555 1_555
C15A C14A 1_555 1_555
H22A C15A 1_555 1_555
H23A C15A 1_555 1_555
C16A H24A 1_555 1_555
C17A C13A 1_555 1_555
H25A C17A 1_555 1_555
H26A C17A 1_555 1_555
C20A H31A 1_555 1_555
H32A C20A 1_555 1_555
C21A C20A 1_555 1_555
H33A C21A 1_555 1_555
H34A C21A 1_555 1_555
C22A H35A 1_555 1_555
C23A C21A 1_555 1_555
H36A C23A 1_555 1_555
H37A C23A 1_555 1_555
C24A C23A 1_555 1_555
H38A C24A 1_555 1_555
H39A C24A 1_555 1_555
C26A H42A 1_555 1_555
N5A C8A 1_555 1_555
N6A C27A 1_555 1_555
C27A H43A 1_555 1_555
N7A C27A 1_555 1_555
N8A C17A 1_555 1_555
C28A N6A 1_555 1_555
H44A C28A 1_555 1_555
N9A C4A 1_555 1_555
N10A Co1 1_555 1_555
C29A N10A 1_555 1_555
H45A C29A 1_555 1_555
N11A C29A 1_555 1_555
N12A C11A 1_555 1_555
C30A N10A 1_555 1_555
H46A C30A 1_555 1_555
N13A Co1 1_555 1_555
C31A N13A 1_555 1_555
H47A C31A 1_555 1_555
N14A C31A 1_555 1_555
N15A C24A 1_555 1_555
C32A N13A 1_555 1_555
H48A C32A 1_555 1_555
N18A C5A 1_555 1_555
N19A C4A 1_555 1_555
N20A C20A 1_555 1_555
N21A C15A 1_555 1_555
N22A C22A 1_555 1_555
N23A C16A 1_555 1_555
N24A C8A 1_555 1_555
O1A W12A 1_555 1_555
O2A W11A 1_555 1_555
O3A W3A 1_555 1_555
O4A W11A 1_555 1_555
O5A W6A 1_555 1_555
O6A W2A 1_555 1_555
O7A W18A 1_555 1_555
O8A W4A 1_555 1_555
O9A W8A 1_555 1_555
O10A W14A 1_555 1_555
O11A W11A 1_555 1_555
O12A As2A 1_555 1_555
O13A W1A 1_555 1_555
O14A W12A 1_555 1_555
O15A W12A 1_555 1_555
O16A W14A 1_555 1_555
O17A Co3A 1_555 1_555
O18A W12A 1_555 1_555
O19A As2A 1_555 1_555
O20A W2A 1_555 1_555
O21A As2A 1_555 1_555
O22A W2A 1_555 1_555
O23A As1A 1_555 1_555
O24A W6A 1_555 1_555
O25A W5A 1_555 1_555
O26A W2A 1_555 1_555
O27A W5A 1_555 1_555
O28A W4A 1_555 1_555
O29A W6A 1_555 1_555
O30A As1A 1_555 1_555
O31A W7A 1_555 1_555
O32A W3A 1_555 1_555
O33A W15A 1_555 1_555
O34A W16A 1_555 1_555
O35A W5A 1_555 1_555
O36A W8A 1_555 1_555
O37A W9A 1_555 1_555
O38A W6A 1_555 1_555
O39A W3A 1_555 1_555
O40A W10A 1_555 1_555
O41A W13A 1_555 1_555
O42A W5A 1_555 1_555
O43A W7A 1_555 1_555
O44A W7A 1_555 1_555
O45A W1A 1_555 1_555
O46A W15A 1_555 1_555
O47A W3A 1_555 1_555
O48A W3A 1_555 1_555
O49A W2A 1_555 1_555
O50A W6A 1_555 1_555
O51A W14A 1_555 1_555
O52A W11A 1_555 1_555
O53A W1A 1_555 1_555
O54A W9A 1_555 1_555
O55A W16A 1_555 1_555
O56A As1A 1_555 1_555
O57A W1A 1_555 1_555
O58A W13A 1_555 1_555
O59A As2A 1_555 1_555
O60A Co3A 1_555 1_555
O61A As1A 1_555 1_555
O62A Co1 1_555 1_555
O63A W4A 1_555 1_555
Co3A N9A 1_555 1_555
W1A O60A 1_555 1_555
W2A O19A 1_555 1_555
W3A O21A 1_555 1_555
W4A O39A 1_555 1_555
W5A O23A 1_555 1_555
W6A O59A 1_555 1_555
W7A O5A 1_555 1_555
W8A O32A 1_555 1_555
W9A O8A 1_555 1_555
W10A O3A 1_555 1_555
W11A O53A 1_555 1_555
W12A O12A 1_555 1_555
W13A O18A 1_555 1_555
W14A O11A 1_555 1_555
W15A O4A 1_555 1_555
W16A O12A 1_555 1_555
W17A O25A 1_555 1_555
W18A O10A 1_555 1_555
C1A H1A 1_555 1_555
C2A H2A 1_555 1_555
C3A H3A 1_555 1_555
H4A C3A 1_555 1_555
C9A H12A 1_555 1_555
N1A C9A 1_555 1_555
N2A N1A 1_555 1_555
C10A N2A 1_555 1_555
H13A C10A 1_555 1_555
N3A Co2 1_555 1_555
C18A N2A 1_555 1_555
H27A C18A 1_555 1_555
H28A C18A 1_555 1_555
C19A C18A 1_555 1_555
H29A C19A 1_555 1_555
H30A C19A 1_555 1_555
C25A C3A 1_555 1_555
H40A C25A 1_555 1_555
H41A C25A 1_555 1_555
N4A C1A 1_555 1_555
N16A C1A 1_555 1_555
N17A C2A 1_555 1_555
N4_2 Co3 1_555 1_555
N4A_2 Co3A 1_555 1_555
N5_2 Co3 1_555 1_555
N5A_2 Co3A 1_555 1_555
N6A_2 Co2 1_555 1_555
O1A_2 Co2 1_555 1_555
O9_2 Co3 1_555 1_555
O9A_2 Co3A 1_555 1_555
Co2_2 N6A 1_555 1_555
Co3_2 O9 1_555 1_555
Co3_3 N4 1_555 1_555
Co3_4 N5 1_555 1_555
Co3A_2 N5A 1_555 1_555
Co3A_3 O9A 1_555 1_555
Co3A_4 N4A 1_555 1_555
C2 N4 1_555 1_555
C3 N16 1_555 1_555
C5 N9 1_555 1_555
C6 N18 1_555 1_555
C10 N3 1_555 1_555
C16 N21 1_555 1_555
C19 C25 1_555 1_555
C22 N23 1_555 1_555
C26 N5 1_555 1_555
C26 N20 1_555 1_555
N6 Co2 1_555 1_555
N7 N8 1_555 1_555
N8 C28 1_555 1_555
N11 N12 1_555 1_555
N12 C30 1_555 1_555
N13 Co1 1_555 1_555
N14 N15 1_555 1_555
N15 C32 1_555 1_555
N16 N17 1_555 1_555
N18 N19 1_555 1_555
N20 N24 1_555 1_555
N21 N22 1_555 1_555
O12 W12 1_555 1_555
O13 W15 1_555 1_555
O14 W14 1_555 1_555
O15 W16 1_555 1_555
O19 W10 1_555 1_555
O20 W7 1_555 1_555
O21 W13 1_555 1_555
O22 W16 1_555 1_555
O23 W9 1_555 1_555
O24 W13 1_555 1_555
O26 W5 1_555 1_555
O28 W18 1_555 1_555
O29 W12 1_555 1_555
O30 W14 1_555 1_555
O30 W17 1_555 1_555
O31 W16 1_555 1_555
O35 W15 1_555 1_555
O36 W10 1_555 1_555
O37 W10 1_555 1_555
O42 W9 1_555 1_555
O43 W8 1_555 1_555
O45 W4 1_555 1_555
O46 W17 1_555 1_555
O48 W13 1_555 1_555
O49 W10 1_555 1_555
O50 W8 1_555 1_555
O51 W17 1_555 1_555
O52 W18 1_555 1_555
O55 W17 1_555 1_555
O56 W4 1_555 1_555
O56 W18 1_555 1_555
O57 W9 1_555 1_555
O58 W18 1_555 1_555
O59 W7 1_555 1_555
O59 W8 1_555 1_555
O61 W1 1_555 1_555
O61 W11 1_555 1_555
O61 W15 1_555 1_555
O62 W17 1_555 1_555
C5A N9A 1_555 1_555
C6A N18A 1_555 1_555
C16A N21A 1_555 1_555
C22A N23A 1_555 1_555
C26A N5A 1_555 1_555
C26A N20A 1_555 1_555
N7A N8A 1_555 1_555
N8A C28A 1_555 1_555
N11A N12A 1_555 1_555
N12A C30A 1_555 1_555
N14A N15A 1_555 1_555
N15A C32A 1_555 1_555
N18A N19A 1_555 1_555
N20A N24A 1_555 1_555
N21A N22A 1_555 1_555
O1A Co2_2 1_555 1_555
O13A W15A 1_555 1_555
O14A W14A 1_555 1_555
O15A W16A 1_555 1_555
O19A W10A 1_555 1_555
O20A W7A 1_555 1_555
O21A W13A 1_555 1_555
O22A W16A 1_555 1_555
O23A W9A 1_555 1_555
O24A W13A 1_555 1_555
O26A W5A 1_555 1_555
O28A W18A 1_555 1_555
O29A W12A 1_555 1_555
O30A W14A 1_555 1_555
O30A W17A 1_555 1_555
O31A W16A 1_555 1_555
O35A W15A 1_555 1_555
O36A W10A 1_555 1_555
O37A W10A 1_555 1_555
O42A W9A 1_555 1_555
O43A W8A 1_555 1_555
O45A W4A 1_555 1_555
O46A W17A 1_555 1_555
O48A W13A 1_555 1_555
O49A W10A 1_555 1_555
O50A W8A 1_555 1_555
O51A W17A 1_555 1_555
O52A W18A 1_555 1_555
O55A W17A 1_555 1_555
O56A W4A 1_555 1_555
O56A W18A 1_555 1_555
O57A W9A 1_555 1_555
O58A W18A 1_555 1_555
O59A W7A 1_555 1_555
O59A W8A 1_555 1_555
O61A W1A 1_555 1_555
O61A W11A 1_555 1_555
O61A W15A 1_555 1_555
O62A W17A 1_555 1_555
C2A N4A 1_555 1_555
C3A N16A 1_555 1_555
C9A N3A 1_555 1_555
C10A N3A 1_555 1_555
C19A C25A 1_555 1_555
N16A N17A 1_555 1_555

#END
