
#######################################################################
#
#                 Cambridge Crystallographic Data Centre
#                                CCDC 
#
#######################################################################
#
# If this CIF has been generated from an entry in the Cambridge 
# Structural Database, then it will include bibliographic, chemical, 
# crystal, experimental, refinement or atomic coordinate data resulting 
# from the CCDC's data processing and validation procedures.
#
#######################################################################

data_NEDVUP
_chemical_formula_moiety         '(C66 H52 Cu3 Mn1 O26)n'
_symmetry_cell_setting           triclinic
_symmetry_space_group_name_H-M   'P -1'
_symmetry_Int_Tables_number      2
_space_group_name_Hall           '-P 1'
loop_
_symmetry_equiv_pos_site_id
_symmetry_equiv_pos_as_xyz
1 x,y,z
2 -x,-y,-z
_cell_length_a                   12.6583(8)
_cell_length_b                   15.5409(10)
_cell_length_c                   16.4094(10)
_cell_angle_alpha                108.446(4)
_cell_angle_beta                 98.651(3)
_cell_angle_gamma                109.526(3)
_cell_volume                     2765.11
loop_
_atom_site_label
_atom_site_type_symbol
_atom_site_fract_x
_atom_site_fract_y
_atom_site_fract_z
Cu1 Cu 0.19140(6) 0.37072(5) 0.42161(5)
O1 O -0.6510(3) -0.4658(3) -0.5364(3)
Cu2 Cu 0.0000 0.5000 0.5000
Mn1 Mn -0.5000 -0.5000 -0.5000
O2 O -0.3428(4) 0.2167(3) -0.0177(3)
O3 O 0.0754(5) 0.3591(5) 0.3241(4)
O4 O -0.5764(4) 0.3799(3) 0.3740(3)
O5 O -0.7688(4) 0.2839(3) 0.3300(3)
O6 O -0.5900(4) 0.4126(4) -0.4371(3)
O7 O -0.0071(4) 0.4687(4) 0.3729(4)
O8 O -0.7780(4) 0.3123(3) -0.4949(3)
C1 C -0.2157(7) 0.3542(6) 0.1109(5)
H1 H -0.2485 0.3923 0.0892
C2 C -0.6675(6) 0.3064(5) 0.3202(4)
C3 C 0.0143(11) 0.3929(6) 0.3170(6)
C4 C -0.6527(6) 0.2462(5) 0.2345(4)
C5 C -0.5223(5) 0.0923(4) -0.1203(4)
C6 C -0.5918(6) 0.1292(5) -0.0616(4)
H2 H -0.5493 0.2018 -0.0272
H3 H -0.6683 0.1167 -0.0997
C7 C -0.7413(7) 0.1596(7) 0.1747(5)
H4 H -0.8144 0.1352 0.1866
C8 C -0.5912(6) -0.0180(5) -0.1745(4)
H5 H -0.5920 -0.0551 -0.1353
H6 H -0.6730 -0.0320 -0.2034
C9 C -0.5051(5) 0.1486(5) -0.1828(4)
H7 H -0.4685 0.2211 -0.1471
H8 H -0.4534 0.1309 -0.2185
C10 C -0.7114(6) -0.4442(5) -0.4856(4)
C11 C -0.7527(6) 0.2040(6) -0.3917(5)
H9 H -0.8296 0.1864 -0.4263
C12 C -0.7334(6) 0.1512(6) -0.3396(5)
H10 H -0.7978 0.0973 -0.3401
C13 C -0.2520(6) 0.2549(6) 0.0596(5)
C14 C -0.1991(7) 0.1993(8) 0.0841(5)
H11 H -0.2204 0.1314 0.0478
C15 C -0.6250(5) 0.1758(5) -0.2887(4)
C16 C -0.7233(8) 0.1084(7) 0.0973(6)
H12 H -0.7863 0.0489 0.0557
O9 O -0.6172(4) 0.1210(3) -0.2404(3)
C17 C -0.1338(9) 0.3991(7) 0.1922(7)
H13 H -0.1139 0.4665 0.2290
C18 C -0.4056(6) 0.1121(5) -0.0637(4)
H14 H -0.4160 0.0804 -0.0201
H15 H -0.3618 0.0843 -0.1019
C19 C -0.5347(7) 0.2229(6) 0.1373(5)
H16 H -0.4620 0.2476 0.1251
C20 C -0.5507(7) 0.2742(6) 0.2166(5)
H17 H -0.4865 0.3315 0.2600
O10 O -0.5349(4) -0.0468(3) -0.2407(3)
O11 O -0.0494(5) 0.3575(4) 0.4828(4)
C21 C -0.7167(6) -0.3145(5) -0.3539(5)
H18 H -0.7811 -0.3632 -0.3480
C22 C -0.6603(5) 0.2809(5) -0.3925(4)
C23 C -0.0838(6) 0.3494(5) 0.2182(5)
C24 C -0.6228(6) 0.1367(5) 0.0766(5)
C25 C -0.6771(6) 0.3388(5) -0.4466(4)
C26 C -0.6723(4) -0.3453(4) -0.4220(4)
C27 C -0.5303(6) -0.1673(5) -0.3662(5)
H19 H -0.4660 -0.1177 -0.3711
O12 O -0.8052(4) -0.5064(3) -0.4862(3)
C28 C -0.5742(6) -0.2674(5) -0.4276(4)
H20 H -0.5387 -0.2841 -0.4739
C29 C -0.5837(6) -0.1421(5) -0.2972(5)
C30 C -0.5503(6) 0.3015(5) -0.3436(5)
H21 H -0.4850 0.3526 -0.3458
C31 C -0.6762(6) -0.2182(5) -0.2922(5)
H22 H -0.7118 -0.2034 -0.2456
C32 C -0.5311(6) 0.2506(5) -0.2912(4)
H23 H -0.4541 0.2672 -0.2575
O13 O -0.6105(4) 0.0806(3) -0.0010(3)
C33 C -0.1052(6) 0.2531(6) 0.1720(5)
H24 H -0.0627 0.2212 0.1942
Cu1A Cu -0.19140(6) 0.62928(5) 0.57839(5)
Cu1_2 Cu -0.80860(6) 0.37072(5) 0.42161(5)
Cu1_3 Cu -0.80860(6) 0.37072(5) -0.57839(5)
Cu1_4 Cu -0.80860(6) -0.62928(5) -0.57839(5)
Cu1A_2 Cu 0.80860(6) 0.62928(5) 0.57839(5)
Cu1A_3 Cu 0.80860(6) 0.62928(5) 1.57839(5)
Cu1A_4 Cu 0.80860(6) 1.62928(5) 1.57839(5)
O1A O 0.6510(3) 1.4658(3) 1.5364(3)
O1A_2 O -0.3490(3) -0.5342(3) -0.4636(3)
Mn1_2 Mn -0.5000 0.5000 0.5000
Mn1_3 Mn -0.5000 0.5000 -0.5000
Mn1_4 Mn 0.5000 1.5000 1.5000
Mn1_5 Mn 0.5000 0.5000 0.5000
Mn1_6 Mn 0.5000 0.5000 1.5000
O2A O 0.3428(4) 0.7833(3) 1.0177(3)
O3A O -0.0754(5) 0.6409(5) 0.6759(4)
O4A O 0.5764(4) 0.6201(3) 0.6260(3)
O4_2 O -0.5764(4) -0.6201(3) -0.6260(3)
O4A_2 O -0.4236(4) -0.3799(3) -0.3740(3)
O5A O 0.7688(4) 0.7161(3) 0.6700(3)
O5_2 O 0.2312(4) 0.2839(3) 0.3300(3)
O5A_2 O -0.2312(4) 0.7161(3) 0.6700(3)
O6A O 0.5900(4) 0.5874(4) 1.4371(3)
O6_2 O -0.5900(4) -0.5874(4) -0.4371(3)
O6A_2 O -0.4100(4) -0.4126(4) -0.5629(3)
O7A O 0.0071(4) 0.5313(4) 0.6271(4)
O8A O 0.7780(4) 0.6877(3) 1.4949(3)
O8_2 O 0.2220(4) 0.3123(3) 0.5051(3)
O8A_2 O -0.2220(4) 0.6877(3) 0.4949(3)
C1A C 0.2157(7) 0.6458(6) 0.8891(5)
H1A H 0.2485 0.6077 0.9108
C2A C 0.6675(6) 0.6936(5) 0.6798(4)
C3A C -0.0143(11) 0.6071(6) 0.6830(6)
C4A C 0.6527(6) 0.7538(5) 0.7655(4)
C5A C 0.5223(5) 0.9077(4) 1.1203(4)
C6A C 0.5918(6) 0.8708(5) 1.0616(4)
H2A H 0.5493 0.7982 1.0272
H3A H 0.6683 0.8833 1.0997
C7A C 0.7413(7) 0.8404(7) 0.8253(5)
H4A H 0.8144 0.8648 0.8134
C8A C 0.5912(6) 1.0180(5) 1.1745(4)
H5A H 0.5920 1.0551 1.1353
H6A H 0.6730 1.0320 1.2034
C9A C 0.5051(5) 0.8514(5) 1.1828(4)
H7A H 0.4685 0.7789 1.1471
H8A H 0.4534 0.8691 1.2185
C10A C 0.7114(6) 1.4442(5) 1.4856(4)
C11A C 0.7527(6) 0.7960(6) 1.3917(5)
H9A H 0.8296 0.8136 1.4263
C12A C 0.7334(6) 0.8488(6) 1.3396(5)
H10A H 0.7978 0.9027 1.3401
C13A C 0.2520(6) 0.7451(6) 0.9404(5)
C14A C 0.1991(7) 0.8007(8) 0.9159(5)
H11A H 0.2204 0.8686 0.9522
C15A C 0.6250(5) 0.8242(5) 1.2887(4)
C16A C 0.7233(8) 0.8916(7) 0.9027(6)
H12A H 0.7863 0.9511 0.9443
O9A O 0.6172(4) 0.8790(3) 1.2404(3)
C17A C 0.1338(9) 0.6009(7) 0.8078(7)
H13A H 0.1139 0.5335 0.7710
C18A C 0.4056(6) 0.8879(5) 1.0637(4)
H14A H 0.4160 0.9196 1.0201
H15A H 0.3618 0.9157 1.1019
C19A C 0.5347(7) 0.7771(6) 0.8627(5)
H16A H 0.4620 0.7524 0.8749
C20A C 0.5507(7) 0.7258(6) 0.7834(5)
H17A H 0.4865 0.6685 0.7400
O10A O 0.5349(4) 1.0468(3) 1.2407(3)
O11A O 0.0494(5) 0.6425(4) 0.5172(4)
C21A C 0.7167(6) 1.3145(5) 1.3539(5)
H18A H 0.7811 1.3632 1.3480
C22A C 0.6603(5) 0.7191(5) 1.3925(4)
C23A C 0.0838(6) 0.6506(5) 0.7818(5)
C24A C 0.6228(6) 0.8633(5) 0.9234(5)
C25A C 0.6771(6) 0.6612(5) 1.4466(4)
C26A C 0.6723(4) 1.3453(4) 1.4220(4)
C27A C 0.5303(6) 1.1673(5) 1.3662(5)
H19A H 0.4660 1.1177 1.3711
O12A O 0.8052(4) 1.5064(3) 1.4862(3)
O12_2 O 0.1948(4) 0.4936(3) 0.5138(3)
O12A_2 O -0.1948(4) 0.5064(3) 0.4862(3)
C28A C 0.5742(6) 1.2674(5) 1.4276(4)
H20A H 0.5387 1.2841 1.4739
C29A C 0.5837(6) 1.1421(5) 1.2972(5)
C30A C 0.5503(6) 0.6985(5) 1.3436(5)
H21A H 0.4850 0.6474 1.3458
C31A C 0.6762(6) 1.2182(5) 1.2922(5)
H22A H 0.7118 1.2034 1.2456
C32A C 0.5311(6) 0.7494(5) 1.2912(4)
H23A H 0.4541 0.7328 1.2575
O13A O 0.6105(4) 0.9194(3) 1.0010(3)
C33A C 0.1052(6) 0.7469(6) 0.8280(5)
H24A H 0.0627 0.7788 0.8058
loop_
_geom_bond_atom_site_label_1
_geom_bond_atom_site_label_2
_geom_bond_site_symmetry_1
_geom_bond_site_symmetry_2
Cu1 O3 1_555 1_555
O1 Mn1 1_555 1_555
Cu2 O7 1_555 1_555
Mn1 O1A_2 1_555 1_555
O2 C13 1_555 1_555
O3 C3 1_555 1_555
O4 C2 1_555 1_555
O5 C2 1_555 1_555
O6 C25 1_555 1_555
O7 C3 1_555 1_555
O8 C25 1_555 1_555
C1 H1 1_555 1_555
C2 C4 1_555 1_555
C3 C23 1_555 1_555
C4 C7 1_555 1_555
C5 C6 1_555 1_555
C6 H2 1_555 1_555
H3 C6 1_555 1_555
C7 H4 1_555 1_555
C8 C5 1_555 1_555
H5 C8 1_555 1_555
H6 C8 1_555 1_555
C9 C5 1_555 1_555
H7 C9 1_555 1_555
H8 C9 1_555 1_555
C10 O1 1_555 1_555
C11 H9 1_555 1_555
C12 C11 1_555 1_555
H10 C12 1_555 1_555
C13 C1 1_555 1_555
C14 C13 1_555 1_555
H11 C14 1_555 1_555
C15 C12 1_555 1_555
C16 C7 1_555 1_555
H12 C16 1_555 1_555
O9 C9 1_555 1_555
C17 C1 1_555 1_555
H13 C17 1_555 1_555
C18 O2 1_555 1_555
H14 C18 1_555 1_555
H15 C18 1_555 1_555
C19 H16 1_555 1_555
C20 C4 1_555 1_555
H17 C20 1_555 1_555
O10 C8 1_555 1_555
O11 Cu2 1_555 1_555
C21 H18 1_555 1_555
C22 C11 1_555 1_555
C23 C17 1_555 1_555
C24 C16 1_555 1_555
C25 C22 1_555 1_555
C26 C10 1_555 1_555
C27 H19 1_555 1_555
O12 C10 1_555 1_555
C28 C26 1_555 1_555
H20 C28 1_555 1_555
C29 O10 1_555 1_555
C30 C22 1_555 1_555
H21 C30 1_555 1_555
C31 C21 1_555 1_555
H22 C31 1_555 1_555
C32 C15 1_555 1_555
H23 C32 1_555 1_555
O13 C6 1_555 1_555
C33 C14 1_555 1_555
H24 C33 1_555 1_555
Cu1A O3A 1_555 1_555
Cu1_2 O5 1_555 1_555
Cu1_3 O8 1_555 1_555
Cu1_4 O12 1_555 1_555
Cu1A_2 O5A 1_555 1_555
Cu1A_3 O8A 1_555 1_555
Cu1A_4 O12A 1_555 1_555
O1A Mn1_4 1_555 1_555
Mn1_2 O4 1_555 1_555
Mn1_3 O6 1_555 1_555
Mn1_5 O4A 1_555 1_555
Mn1_6 O6A 1_555 1_555
O2A C13A 1_555 1_555
O3A C3A 1_555 1_555
O4A C2A 1_555 1_555
O4_2 Mn1 1_555 1_555
O4A_2 Mn1 1_555 1_555
O5A C2A 1_555 1_555
O5_2 Cu1 1_555 1_555
O5A_2 Cu1A 1_555 1_555
O6A C25A 1_555 1_555
O6_2 Mn1 1_555 1_555
O6A_2 Mn1 1_555 1_555
O7A Cu2 1_555 1_555
O8A C25A 1_555 1_555
O8_2 Cu1 1_555 1_555
O8A_2 Cu1A 1_555 1_555
C1A H1A 1_555 1_555
C2A C4A 1_555 1_555
C3A O7A 1_555 1_555
C4A C7A 1_555 1_555
C5A C6A 1_555 1_555
C6A H2A 1_555 1_555
H3A C6A 1_555 1_555
C7A H4A 1_555 1_555
C8A C5A 1_555 1_555
H5A C8A 1_555 1_555
H6A C8A 1_555 1_555
C9A C5A 1_555 1_555
H7A C9A 1_555 1_555
H8A C9A 1_555 1_555
C10A O1A 1_555 1_555
C11A H9A 1_555 1_555
C12A C11A 1_555 1_555
H10A C12A 1_555 1_555
C13A C1A 1_555 1_555
C14A C13A 1_555 1_555
H11A C14A 1_555 1_555
C15A C12A 1_555 1_555
C16A C7A 1_555 1_555
H12A C16A 1_555 1_555
O9A C9A 1_555 1_555
C17A C1A 1_555 1_555
H13A C17A 1_555 1_555
C18A O2A 1_555 1_555
H14A C18A 1_555 1_555
H15A C18A 1_555 1_555
C19A H16A 1_555 1_555
C20A C4A 1_555 1_555
H17A C20A 1_555 1_555
O10A C8A 1_555 1_555
O11A Cu2 1_555 1_555
C21A H18A 1_555 1_555
C22A C11A 1_555 1_555
C23A C3A 1_555 1_555
C24A C16A 1_555 1_555
C25A C22A 1_555 1_555
C26A C10A 1_555 1_555
C27A H19A 1_555 1_555
O12A C10A 1_555 1_555
O12_2 Cu1 1_555 1_555
O12A_2 Cu1A 1_555 1_555
C28A C26A 1_555 1_555
H20A C28A 1_555 1_555
C29A O10A 1_555 1_555
C30A C22A 1_555 1_555
H21A C30A 1_555 1_555
C31A C21A 1_555 1_555
H22A C31A 1_555 1_555
C32A C15A 1_555 1_555
H23A C32A 1_555 1_555
O13A C6A 1_555 1_555
C33A C14A 1_555 1_555
H24A C33A 1_555 1_555
C5 C18 1_555 1_555
C15 O9 1_555 1_555
C19 C20 1_555 1_555
C19 C24 1_555 1_555
C21 C26 1_555 1_555
C23 C33 1_555 1_555
C24 O13 1_555 1_555
C27 C28 1_555 1_555
C27 C29 1_555 1_555
C29 C31 1_555 1_555
C30 C32 1_555 1_555
C5A C18A 1_555 1_555
C15A O9A 1_555 1_555
C17A C23A 1_555 1_555
C19A C20A 1_555 1_555
C19A C24A 1_555 1_555
C21A C26A 1_555 1_555
C23A C33A 1_555 1_555
C24A O13A 1_555 1_555
C27A C28A 1_555 1_555
C27A C29A 1_555 1_555
C29A C31A 1_555 1_555
C30A C32A 1_555 1_555

#END
