
#######################################################################
#
#                 Cambridge Crystallographic Data Centre
#                                CCDC 
#
#######################################################################
#
# If this CIF has been generated from an entry in the Cambridge 
# Structural Database, then it will include bibliographic, chemical, 
# crystal, experimental, refinement or atomic coordinate data resulting 
# from the CCDC's data processing and validation procedures.
#
#######################################################################

data_NEDWAW
_chemical_formula_moiety         '(C66 H50 Mn3 O25)n'
_symmetry_cell_setting           triclinic
_symmetry_space_group_name_H-M   'P -1'
_symmetry_Int_Tables_number      2
_space_group_name_Hall           '-P 1'
loop_
_symmetry_equiv_pos_site_id
_symmetry_equiv_pos_as_xyz
1 x,y,z
2 -x,-y,-z
_cell_length_a                   13.4319(4)
_cell_length_b                   16.2160(4)
_cell_length_c                   16.2911(4)
_cell_angle_alpha                108.0990(10)
_cell_angle_beta                 102.652(2)
_cell_angle_gamma                106.188(2)
_cell_volume                     3052.14
loop_
_atom_site_label
_atom_site_type_symbol
_atom_site_fract_x
_atom_site_fract_y
_atom_site_fract_z
O13 O 0.8474(5) 0.4738(5) 0.7781(5)
O1 O 0.5436(2) -0.40794(18) -0.35825(16)
C1 C 0.6311(4) -0.3451(3) -0.2997(3)
Mn1 Mn 0.5000 -0.5000 -0.5000
Mn2 Mn 0.79512(5) 0.62201(4) 0.60064(4)
O2 O 0.3652(2) -0.18161(19) 0.03119(19)
C2 C 0.5960(3) -0.1203(3) 0.0854(2)
H1 H 0.6702 -0.1080 0.1254
H2 H 0.5545 -0.1888 0.0569
O3 O 0.6059(2) -0.08509(18) 0.01401(16)
C3 C 0.5250(4) -0.2823(3) -0.2048(3)
H3 H 0.4595 -0.3299 -0.2506
O4 O 0.5517(2) 0.06821(18) 0.25455(17)
C4 C 0.5181(4) -0.2184(3) -0.1264(3)
H4 H 0.4486 -0.2239 -0.1191
C5 C 0.6115(4) -0.1489(3) -0.0612(3)
O5 O 0.6223(2) -0.10607(19) 0.26574(17)
O6 O 0.8034(2) 0.50394(19) 0.49016(18)
O7 O 0.7241(2) -0.3314(2) -0.30401(18)
C6 C 0.7101(4) -0.1430(4) -0.0726(3)
H5 H 0.7759 -0.0954 -0.0272
O8 O 0.6588(2) 0.47834(17) 0.53302(15)
O9 O 0.5743(2) -0.38263(18) 0.46817(17)
C7 C 0.5332(3) -0.2143(3) 0.3260(3)
H6 H 0.4621 -0.2177 0.2961
C8 C 0.6251(3) -0.1577(3) 0.3182(3)
C9 C 0.2745(3) -0.2087(3) -0.0424(3)
C10 C 0.6741(3) 0.3485(3) 0.4255(2)
C11 C 0.7314(3) 0.3158(3) 0.3686(3)
H7 H 0.7969 0.3584 0.3694
C12 C 0.5371(3) -0.0728(2) 0.1420(2)
C13 C 0.5458(3) -0.2658(3) 0.3777(3)
H8 H 0.4823 -0.3051 0.3828
O10 O -0.0382(2) -0.2688(2) -0.31463(19)
C14 C 0.4284(3) -0.0840(3) 0.0807(3)
H9 H 0.3890 -0.0542 0.1178
H10 H 0.4402 -0.0537 0.0376
C15 C 0.5173(3) -0.1214(3) 0.2062(2)
H11 H 0.4747 -0.0954 0.2425
H12 H 0.4750 -0.1892 0.1706
O11 O -0.0842(2) -0.4028(2) -0.29838(19)
C16 C 0.6937(3) 0.2223(3) 0.3115(2)
H13 H 0.7338 0.2007 0.2741
C17 C 0.2360(3) -0.1482(3) -0.0719(2)
H14 H 0.2731 -0.0824 -0.0401
C18 C 0.5977(3) 0.1607(3) 0.3090(2)
C19 C 0.5789(3) 0.2843(3) 0.4233(2)
H15 H 0.5399 0.3048 0.4624
C20 C 0.5405(3) 0.1921(3) 0.3656(2)
H16 H 0.4747 0.1493 0.3643
C21 C 0.1431(3) -0.1854(3) -0.1482(3)
H17 H 0.1177 -0.1442 -0.1696
C22 C -0.0177(3) -0.3200(3) -0.2748(3)
C23 C 0.0863(3) -0.2799(3) -0.1940(3)
C24 C 0.6219(3) -0.2769(3) -0.2157(2)
O12 O 0.7570(2) -0.3089(2) 0.51696(19)
C25 C 0.7137(3) 0.4479(3) 0.4839(2)
C26 C 0.6600(3) -0.3227(3) 0.4737(2)
C27 C 0.6476(3) -0.2621(3) 0.4221(2)
C28 C 0.6065(3) 0.0306(3) 0.1954(2)
H18 H 0.6809 0.0394 0.2317
H19 H 0.6138 0.0626 0.1529
C29 C 0.7151(4) -0.2052(4) -0.1494(3)
H20 H 0.7845 -0.1989 -0.1571
C30 C 0.2197(4) -0.3027(3) -0.0880(3)
H21 H 0.2474 -0.3437 -0.0682
C31 C 0.1242(4) -0.3399(3) -0.1630(3)
H22 H 0.0852 -0.4057 -0.1927
C32 C 0.7273(3) -0.1497(3) 0.3651(3)
H23 H 0.7905 -0.1070 0.3629
C33 C 0.7403(3) -0.2026(3) 0.4157(3)
H24 H 0.8117 -0.1985 0.4458
O1_2 O 0.5436(2) -1.40794(18) -1.35825(16)
O1A O 0.4564(2) -0.59206(18) -0.64175(16)
C1_2 C 0.6311(4) -1.3451(3) -1.2997(3)
Mn1_2 Mn 0.5000 0.5000 0.5000
Mn1_3 Mn 0.5000 -0.5000 0.5000
Mn1_4 Mn 0.5000 -1.5000 -1.5000
Mn1_5 Mn 0.5000 -1.5000 -0.5000
Mn2_2 Mn 0.79512(5) -0.37799(4) -0.39936(4)
Mn2_3 Mn -0.20488(5) -0.37799(4) -0.39936(4)
Mn2_4 Mn 0.79512(5) -0.37799(4) 0.60064(4)
Mn2_5 Mn 0.79512(5) -1.37799(4) -1.39936(4)
Mn2_6 Mn -0.20488(5) -1.37799(4) -1.39936(4)
Mn2_7 Mn 0.79512(5) -1.37799(4) -0.39936(4)
O2_2 O 0.3652(2) -1.18161(19) -0.96881(19)
C2_2 C 0.5960(3) -1.1203(3) -0.9146(2)
H1_2 H 0.6702 -1.1080 -0.8746
H2_2 H 0.5545 -1.1888 -0.9431
O3_2 O 0.6059(2) -1.08509(18) -0.98599(16)
C3_2 C 0.5250(4) -1.2823(3) -1.2048(3)
H3_2 H 0.4595 -1.3299 -1.2506
O4_2 O 0.5517(2) -0.93179(18) -0.74545(17)
C4_2 C 0.5181(4) -1.2184(3) -1.1264(3)
H4_2 H 0.4486 -1.2239 -1.1191
C5_2 C 0.6115(4) -1.1489(3) -1.0612(3)
O5_2 O 0.6223(2) -1.10607(19) -0.73426(17)
O6_2 O 0.8034(2) -0.49606(19) -0.50984(18)
O7_2 O 0.7241(2) -1.3314(2) -1.30401(18)
O7_3 O 0.7241(2) 0.6686(2) 0.69599(18)
C6_2 C 0.7101(4) -1.1430(4) -1.0726(3)
H5_2 H 0.7759 -1.0954 -1.0272
O8_2 O 0.6588(2) -0.52166(17) -0.46698(15)
O8A O 0.3412(2) -0.47834(17) -0.53302(15)
O9_2 O 0.5743(2) -1.38263(18) -0.53183(17)
O9_3 O 0.5743(2) -0.38263(18) -0.53183(17)
O9A O 0.4257(2) -0.61737(18) -0.46817(17)
C7_2 C 0.5332(3) -1.2143(3) -0.6740(3)
H6_2 H 0.4621 -1.2177 -0.7039
C8_2 C 0.6251(3) -1.1577(3) -0.6818(3)
C9_2 C 0.2745(3) -1.2087(3) -1.0424(3)
C10_2 C 0.6741(3) -0.6515(3) -0.5745(2)
C11_2 C 0.7314(3) -0.6842(3) -0.6314(3)
H7_2 H 0.7969 -0.6416 -0.6306
C12_2 C 0.5371(3) -1.0728(2) -0.8580(2)
C13_2 C 0.5458(3) -1.2658(3) -0.6223(3)
H8_2 H 0.4823 -1.3051 -0.6172
O10_2 O -0.0382(2) -1.2688(2) -1.31463(19)
O10_3 O 0.9618(2) 0.7312(2) 0.68537(19)
O10_4 O 0.9618(2) -0.2688(2) -0.31463(19)
C14_2 C 0.4284(3) -1.0840(3) -0.9193(3)
H9_2 H 0.3890 -1.0542 -0.8822
H10_2 H 0.4402 -1.0537 -0.9624
C15_2 C 0.5173(3) -1.1214(3) -0.7938(2)
H11_2 H 0.4747 -1.0954 -0.7575
H12_2 H 0.4750 -1.1892 -0.8294
O11_2 O -0.0842(2) -1.4028(2) -1.29838(19)
O11_3 O 0.9158(2) 0.5972(2) 0.70162(19)
O11_4 O 0.9158(2) -0.4028(2) -0.29838(19)
C16_2 C 0.6937(3) -0.7777(3) -0.6885(2)
H13_2 H 0.7338 -0.7993 -0.7259
C17_2 C 0.2360(3) -1.1482(3) -1.0719(2)
H14_2 H 0.2731 -1.0824 -1.0401
C18_2 C 0.5977(3) -0.8393(3) -0.6910(2)
C19_2 C 0.5789(3) -0.7157(3) -0.5767(2)
H15_2 H 0.5399 -0.6952 -0.5376
C20_2 C 0.5405(3) -0.8079(3) -0.6344(2)
H16_2 H 0.4747 -0.8507 -0.6357
C21_2 C 0.1431(3) -1.1854(3) -1.1482(3)
H17_2 H 0.1177 -1.1442 -1.1696
C22_2 C -0.0177(3) -1.3200(3) -1.2748(3)
C23_2 C 0.0863(3) -1.2799(3) -1.1940(3)
C24_2 C 0.6219(3) -1.2769(3) -1.2157(2)
O12_2 O 0.7570(2) -1.3089(2) -0.48304(19)
O12_3 O 0.7570(2) 0.6911(2) 0.51696(19)
O12_4 O 0.7570(2) -0.3089(2) -0.48304(19)
C25_2 C 0.7137(3) -0.5521(3) -0.5161(2)
C26_2 C 0.6600(3) -1.3227(3) -0.5263(2)
C27_2 C 0.6476(3) -1.2621(3) -0.5779(2)
C28_2 C 0.6065(3) -0.9694(3) -0.8046(2)
H18_2 H 0.6809 -0.9606 -0.7683
H19_2 H 0.6138 -0.9374 -0.8471
C29_2 C 0.7151(4) -1.2052(4) -1.1494(3)
H20_2 H 0.7845 -1.1989 -1.1571
C30_2 C 0.2197(4) -1.3027(3) -1.0880(3)
H21_2 H 0.2474 -1.3437 -1.0682
C31_2 C 0.1242(4) -1.3399(3) -1.1630(3)
H22_2 H 0.0852 -1.4057 -1.1927
C32_2 C 0.7273(3) -1.1497(3) -0.6349(3)
H23_2 H 0.7905 -1.1070 -0.6371
C33_2 C 0.7403(3) -1.2026(3) -0.5843(3)
H24_2 H 0.8117 -1.1985 -0.5542
loop_
_geom_bond_atom_site_label_1
_geom_bond_atom_site_label_2
_geom_bond_site_symmetry_1
_geom_bond_site_symmetry_2
O1 C1 1_555 1_555
C1 O7 1_555 1_555
Mn1 O1 1_555 1_555
Mn2 O6 1_555 1_555
O2 C9 1_555 1_555
C2 H1 1_555 1_555
H2 C2 1_555 1_555
O3 C2 1_555 1_555
C3 H3 1_555 1_555
O4 C18 1_555 1_555
C4 C3 1_555 1_555
H4 C4 1_555 1_555
C5 O3 1_555 1_555
O5 C8 1_555 1_555
O6 C25 1_555 1_555
O7 Mn2_2 1_555 1_555
C6 C5 1_555 1_555
H5 C6 1_555 1_555
O8 Mn2 1_555 1_555
O9 C26 1_555 1_555
C7 H6 1_555 1_555
C8 C7 1_555 1_555
C9 C17 1_555 1_555
C10 C11 1_555 1_555
C11 H7 1_555 1_555
C12 C2 1_555 1_555
C13 C7 1_555 1_555
H8 C13 1_555 1_555
O10 C22 1_555 1_555
C14 O2 1_555 1_555
H9 C14 1_555 1_555
H10 C14 1_555 1_555
C15 O5 1_555 1_555
H11 C15 1_555 1_555
H12 C15 1_555 1_555
O11 C22 1_555 1_555
C16 C11 1_555 1_555
H13 C16 1_555 1_555
C17 H14 1_555 1_555
C18 C16 1_555 1_555
C19 C10 1_555 1_555
H15 C19 1_555 1_555
C20 C18 1_555 1_555
H16 C20 1_555 1_555
C21 C17 1_555 1_555
H17 C21 1_555 1_555
C22 C23 1_555 1_555
C23 C21 1_555 1_555
C24 C1 1_555 1_555
O12 C26 1_555 1_555
C25 O8 1_555 1_555
C26 C27 1_555 1_555
C27 C13 1_555 1_555
C28 O4 1_555 1_555
H18 C28 1_555 1_555
H19 C28 1_555 1_555
C29 C6 1_555 1_555
H20 C29 1_555 1_555
C30 C9 1_555 1_555
H21 C30 1_555 1_555
C31 C23 1_555 1_555
H22 C31 1_555 1_555
C32 C8 1_555 1_555
H23 C32 1_555 1_555
C33 C27 1_555 1_555
H24 C33 1_555 1_555
O1_2 C1_2 1_555 1_555
O1A Mn1 1_555 1_555
C1_2 O7_2 1_555 1_555
Mn1_2 O8 1_555 1_555
Mn1_3 O9 1_555 1_555
Mn1_4 O1_2 1_555 1_555
Mn1_5 O9_2 1_555 1_555
Mn2_2 O6_2 1_555 1_555
Mn2_3 O10 1_555 1_555
Mn2_4 O12 1_555 1_555
Mn2_5 O7_2 1_555 1_555
Mn2_6 O10_2 1_555 1_555
Mn2_7 O12_2 1_555 1_555
O2_2 C9_2 1_555 1_555
C2_2 H1_2 1_555 1_555
H2_2 C2_2 1_555 1_555
O3_2 C2_2 1_555 1_555
C3_2 H3_2 1_555 1_555
O4_2 C18_2 1_555 1_555
C4_2 C3_2 1_555 1_555
H4_2 C4_2 1_555 1_555
C5_2 O3_2 1_555 1_555
O5_2 C8_2 1_555 1_555
O6_2 C25_2 1_555 1_555
O7_3 Mn2 1_555 1_555
C6_2 C5_2 1_555 1_555
H5_2 C6_2 1_555 1_555
O8_2 Mn1 1_555 1_555
O8A Mn1 1_555 1_555
O9_2 C26_2 1_555 1_555
O9_3 Mn1 1_555 1_555
O9A Mn1 1_555 1_555
C7_2 H6_2 1_555 1_555
C8_2 C7_2 1_555 1_555
C9_2 C17_2 1_555 1_555
C10_2 C11_2 1_555 1_555
C11_2 H7_2 1_555 1_555
C12_2 C2_2 1_555 1_555
C13_2 C7_2 1_555 1_555
H8_2 C13_2 1_555 1_555
O10_2 C22_2 1_555 1_555
O10_3 Mn2 1_555 1_555
O10_4 Mn2_2 1_555 1_555
C14_2 O2_2 1_555 1_555
H9_2 C14_2 1_555 1_555
H10_2 C14_2 1_555 1_555
C15_2 O5_2 1_555 1_555
H11_2 C15_2 1_555 1_555
H12_2 C15_2 1_555 1_555
O11_2 Mn2_6 1_555 1_555
O11_3 Mn2 1_555 1_555
O11_4 Mn2_2 1_555 1_555
C16_2 C11_2 1_555 1_555
H13_2 C16_2 1_555 1_555
C17_2 H14_2 1_555 1_555
C18_2 C16_2 1_555 1_555
C19_2 C10_2 1_555 1_555
H15_2 C19_2 1_555 1_555
C20_2 C18_2 1_555 1_555
H16_2 C20_2 1_555 1_555
C21_2 C17_2 1_555 1_555
H17_2 C21_2 1_555 1_555
C22_2 O11_2 1_555 1_555
C23_2 C21_2 1_555 1_555
C24_2 C1_2 1_555 1_555
O12_2 C26_2 1_555 1_555
O12_3 Mn2 1_555 1_555
O12_4 Mn2_2 1_555 1_555
C25_2 O8_2 1_555 1_555
C26_2 C27_2 1_555 1_555
C27_2 C13_2 1_555 1_555
C28_2 O4_2 1_555 1_555
H18_2 C28_2 1_555 1_555
H19_2 C28_2 1_555 1_555
C29_2 C6_2 1_555 1_555
H20_2 C29_2 1_555 1_555
C30_2 C9_2 1_555 1_555
H21_2 C30_2 1_555 1_555
C31_2 C23_2 1_555 1_555
H22_2 C31_2 1_555 1_555
C32_2 C8_2 1_555 1_555
H23_2 C32_2 1_555 1_555
C33_2 C27_2 1_555 1_555
H24_2 C33_2 1_555 1_555
C3 C24 1_555 1_555
C4 C5 1_555 1_555
C10 C25 1_555 1_555
C12 C14 1_555 1_555
C12 C15 1_555 1_555
C12 C28 1_555 1_555
O11 Mn2_3 1_555 1_555
C19 C20 1_555 1_555
C24 C29 1_555 1_555
C30 C31 1_555 1_555
C32 C33 1_555 1_555
Mn2_2 O8_2 1_555 1_555
C3_2 C24_2 1_555 1_555
C4_2 C5_2 1_555 1_555
C10_2 C25_2 1_555 1_555
C12_2 C14_2 1_555 1_555
C12_2 C15_2 1_555 1_555
C12_2 C28_2 1_555 1_555
C19_2 C20_2 1_555 1_555
C22_2 C23_2 1_555 1_555
C24_2 C29_2 1_555 1_555
C30_2 C31_2 1_555 1_555
C32_2 C33_2 1_555 1_555

#END
