
#######################################################################
#
#                 Cambridge Crystallographic Data Centre
#                                CCDC 
#
#######################################################################
#
# If this CIF has been generated from an entry in the Cambridge 
# Structural Database, then it will include bibliographic, chemical, 
# crystal, experimental, refinement or atomic coordinate data resulting 
# from the CCDC's data processing and validation procedures.
#
#######################################################################

data_NEDWEA
_chemical_formula_moiety         '(C66 H52 Co3 Mn1 O26)n'
_symmetry_cell_setting           triclinic
_symmetry_space_group_name_H-M   'P -1'
_symmetry_Int_Tables_number      2
_space_group_name_Hall           '-P 1'
loop_
_symmetry_equiv_pos_site_id
_symmetry_equiv_pos_as_xyz
1 x,y,z
2 -x,-y,-z
_cell_length_a                   12.6594(4)
_cell_length_b                   15.0271(5)
_cell_length_c                   17.0317(6)
_cell_angle_alpha                108.009(2)
_cell_angle_beta                 101.050(2)
_cell_angle_gamma                106.050(2)
_cell_volume                     2821.74
loop_
_atom_site_label
_atom_site_type_symbol
_atom_site_fract_x
_atom_site_fract_y
_atom_site_fract_z
Co1 Co 0.78491(4) 0.62755(3) 0.58522(3)
O1 O 0.67331(18) 0.48238(17) 0.52227(15)
O2 O 0.5873(2) -0.36751(18) 0.48221(16)
Mn1 Mn 0.5000 0.5000 0.5000
O3 O 0.0073(2) -0.4524(2) -0.36718(17)
Co2 Co 0.0000 -0.5000 -0.5000
C1 C 0.6743(3) 0.3439(3) 0.4069(2)
C2 C 0.7168(3) 0.3118(3) 0.3403(2)
H1 H 0.7825 0.3573 0.3361
C3 C 0.6672(3) 0.2145(3) 0.2780(2)
H2 H 0.6987 0.1939 0.2321
C4 C 0.5250(3) 0.1793(3) 0.3506(2)
H3 H 0.4587 0.1335 0.3539
C5 C 0.5750(3) 0.2764(3) 0.4122(2)
H4 H 0.5432 0.2976 0.4577
O4 O 0.5989(2) -0.1278(2) 0.23467(18)
O5 O 0.3188(3) -0.2210(2) 0.01774(19)
O6 O -0.0621(2) -0.3299(2) -0.33283(18)
O7 O 0.7750(2) -0.3015(2) 0.50406(18)
O8 O 0.5472(2) -0.42122(18) -0.36482(15)
O9 O 0.7260(2) -0.30766(19) -0.32415(17)
O10 O 0.0637(3) -0.3501(2) -0.4927(2)
O11 O 0.82392(19) 0.50457(18) 0.47484(17)
C6 C 0.4992(3) -0.0993(3) 0.1169(2)
C7 C 0.6499(3) -0.2647(3) 0.4083(3)
C8 C 0.7413(3) -0.1985(4) 0.3965(3)
H5 H 0.8181 -0.1829 0.4298
C9 C 0.7216(4) -0.1552(4) 0.3373(3)
H6 H 0.7847 -0.1124 0.3280
C10 C 0.6101(3) -0.1744(3) 0.2915(3)
C11 C 0.4853(3) -0.1498(3) 0.1815(2)
H7 H 0.4396 -0.1235 0.2175
H8 H 0.4452 -0.2232 0.1505
C12 C 0.3801(3) -0.1139(3) 0.0635(3)
H9 H 0.3383 -0.0847 0.1018
H10 H 0.3868 -0.0806 0.0219
C13 C 0.2375(4) -0.2533(3) -0.0602(3)
C14 C 0.2105(4) -0.3524(3) -0.1128(3)
H11 H 0.2439 -0.3934 -0.0923
C15 C 0.1348(3) -0.3910(3) -0.1953(3)
H12 H 0.1198 -0.4577 -0.2329
C16 C 0.0807(3) -0.3339(3) -0.2236(3)
C17 C 0.1026(3) -0.2364(3) -0.1690(3)
H13 H 0.0628 -0.1979 -0.1877
C18 C 0.1839(4) -0.1941(3) -0.0856(3)
H14 H 0.2012 -0.1268 -0.0483
C19 C 0.5623(4) -0.1473(3) 0.0594(2)
H15 H 0.6400 -0.1359 0.0952
H16 H 0.5195 -0.2205 0.0309
O12 O 0.5731(3) -0.1059(2) -0.00461(18)
C20 C 0.5185(3) -0.2372(3) 0.3036(2)
H17 H 0.4416 -0.2493 0.2728
C21 C 0.5397(3) -0.2829(3) 0.3616(3)
H18 H 0.4764 -0.3277 0.3691
C22 C 0.6310(3) -0.3424(3) -0.3124(2)
C23 C 0.6147(3) -0.2815(3) -0.2301(2)
C24 C 0.5213(4) -0.3177(3) -0.2054(3)
H19 H 0.4651 -0.3822 -0.2408
C25 C 0.5071(4) -0.2611(3) -0.1284(3)
H20 H 0.4423 -0.2870 -0.1108
C26 C 0.5884(4) -0.1676(3) -0.0788(3)
C27 C 0.6828(4) -0.1291(3) -0.1036(3)
H21 H 0.7376 -0.0637 -0.0690
C28 C 0.6971(4) -0.1856(3) -0.1782(3)
H22 H 0.7628 -0.1600 -0.1948
C29 C 0.5720(3) 0.1488(3) 0.2837(2)
O13 O 0.5150(2) 0.05193(17) 0.22698(16)
C30 C 0.5681(3) 0.0123(3) 0.1638(2)
H23 H 0.6491 0.0236 0.1926
H24 H 0.5677 0.0459 0.1221
C31 C 0.0009(3) -0.3763(3) -0.3158(3)
C32 C 0.7269(3) 0.4471(3) 0.4705(2)
C33 C 0.6718(3) -0.3145(3) 0.4687(2)
Co1_2 Co 0.78491(4) 1.62755(3) 0.58522(3)
Co1_3 Co -0.21509(4) -0.37245(3) -0.41478(3)
Co1_4 Co 0.78491(4) -0.37245(3) 0.58522(3)
Co1_5 Co 0.78491(4) -0.37245(3) -0.41478(3)
Co1_6 Co -0.21509(4) 0.62755(3) -0.41478(3)
Co1_7 Co 0.78491(4) 0.62755(3) -0.41478(3)
O1_2 O 0.67331(18) 1.48238(17) 0.52227(15)
O1A O 0.32669(18) 0.51762(17) 0.47773(15)
O2_2 O 0.5873(2) 0.63249(18) 0.48221(16)
O2A O 0.4127(2) 0.36751(18) 0.51779(16)
Mn1_2 Mn 0.5000 -0.5000 0.5000
Mn1_3 Mn 0.5000 -0.5000 -0.5000
Mn1_4 Mn 0.5000 1.5000 0.5000
Mn1_5 Mn 0.5000 0.5000 -0.5000
O3_2 O 0.0073(2) 0.5476(2) -0.36718(17)
O3A O -0.0073(2) -0.5476(2) -0.63282(17)
Co2_2 Co 1.0000 0.5000 0.5000
Co2_3 Co -0.0000 0.5000 -0.5000
Co2_4 Co 1.0000 1.5000 0.5000
C1_2 C 0.6743(3) 1.3439(3) 0.4069(2)
C2_2 C 0.7168(3) 1.3118(3) 0.3403(2)
H1_2 H 0.7825 1.3573 0.3361
C3_2 C 0.6672(3) 1.2145(3) 0.2780(2)
H2_2 H 0.6987 1.1939 0.2321
C4_2 C 0.5250(3) 1.1793(3) 0.3506(2)
H3_2 H 0.4587 1.1335 0.3539
C5_2 C 0.5750(3) 1.2764(3) 0.4122(2)
H4_2 H 0.5432 1.2976 0.4577
O4_2 O 0.5989(2) 0.8722(2) 0.23467(18)
O5_2 O 0.3188(3) 0.7790(2) 0.01774(19)
O6_2 O -0.0621(2) 0.6701(2) -0.33283(18)
O6_3 O 0.9379(2) 0.6701(2) 0.66717(18)
O6_4 O 0.9379(2) 1.6701(2) 0.66717(18)
O7_2 O 0.7750(2) 0.6985(2) 0.50406(18)
O7_3 O 0.7750(2) 1.6985(2) 0.50406(18)
O8_2 O 0.5472(2) 0.57878(18) -0.36482(15)
O8_3 O 0.5472(2) 0.57878(18) 0.63518(15)
O8A O 0.4528(2) 0.42122(18) 0.36482(15)
O9_2 O 0.7260(2) 0.69234(19) -0.32415(17)
O9_3 O 0.7260(2) 0.69234(19) 0.67585(17)
O9_4 O 0.7260(2) 1.69234(19) 0.67585(17)
O10A O -0.0637(3) -0.6499(2) -0.5073(2)
O11_2 O 0.82392(19) 1.50457(18) 0.47484(17)
O11_3 O -0.17608(19) -0.49543(18) -0.52516(17)
O11A O 0.17608(19) -0.50457(18) -0.47484(17)
C6_2 C 0.4992(3) 0.9007(3) 0.1169(2)
C7_2 C 0.6499(3) 0.7353(3) 0.4083(3)
C8_2 C 0.7413(3) 0.8015(4) 0.3965(3)
H5_2 H 0.8181 0.8171 0.4298
C9_2 C 0.7216(4) 0.8448(4) 0.3373(3)
H6_2 H 0.7847 0.8876 0.3280
C10_2 C 0.6101(3) 0.8256(3) 0.2915(3)
C11_2 C 0.4853(3) 0.8502(3) 0.1815(2)
H7_2 H 0.4396 0.8765 0.2175
H8_2 H 0.4452 0.7768 0.1505
C12_2 C 0.3801(3) 0.8861(3) 0.0635(3)
H9_2 H 0.3383 0.9153 0.1018
H10_2 H 0.3868 0.9194 0.0219
C13_2 C 0.2375(4) 0.7467(3) -0.0602(3)
C14_2 C 0.2105(4) 0.6476(3) -0.1128(3)
H11_2 H 0.2439 0.6066 -0.0923
C15_2 C 0.1348(3) 0.6090(3) -0.1953(3)
H12_2 H 0.1198 0.5423 -0.2329
C16_2 C 0.0807(3) 0.6661(3) -0.2236(3)
C17_2 C 0.1026(3) 0.7636(3) -0.1690(3)
H13_2 H 0.0628 0.8021 -0.1877
C18_2 C 0.1839(4) 0.8059(3) -0.0856(3)
H14_2 H 0.2012 0.8732 -0.0483
C19_2 C 0.5623(4) 0.8527(3) 0.0594(2)
H15_2 H 0.6400 0.8641 0.0952
H16_2 H 0.5195 0.7795 0.0309
O12_2 O 0.5731(3) 0.8941(2) -0.00461(18)
C20_2 C 0.5185(3) 0.7628(3) 0.3036(2)
H17_2 H 0.4416 0.7507 0.2728
C21_2 C 0.5397(3) 0.7171(3) 0.3616(3)
H18_2 H 0.4764 0.6723 0.3691
C22_2 C 0.6310(3) 0.6576(3) -0.3124(2)
C23_2 C 0.6147(3) 0.7185(3) -0.2301(2)
C24_2 C 0.5213(4) 0.6823(3) -0.2054(3)
H19_2 H 0.4651 0.6178 -0.2408
C25_2 C 0.5071(4) 0.7389(3) -0.1284(3)
H20_2 H 0.4423 0.7130 -0.1108
C26_2 C 0.5884(4) 0.8324(3) -0.0788(3)
C27_2 C 0.6828(4) 0.8709(3) -0.1036(3)
H21_2 H 0.7376 0.9363 -0.0690
C28_2 C 0.6971(4) 0.8144(3) -0.1782(3)
H22_2 H 0.7628 0.8400 -0.1948
C29_2 C 0.5720(3) 1.1488(3) 0.2837(2)
O13_2 O 0.5150(2) 1.05193(17) 0.22698(16)
C30_2 C 0.5681(3) 1.0123(3) 0.1638(2)
H23_2 H 0.6491 1.0236 0.1926
H24_2 H 0.5677 1.0459 0.1221
C31_2 C 0.0009(3) 0.6237(3) -0.3158(3)
C32_2 C 0.7269(3) 1.4471(3) 0.4705(2)
C33_2 C 0.6718(3) 0.6855(3) 0.4687(2)
loop_
_geom_bond_atom_site_label_1
_geom_bond_atom_site_label_2
_geom_bond_site_symmetry_1
_geom_bond_site_symmetry_2
Co1 O1 1_555 1_555
O1 Mn1 1_555 1_555
O2 C33 1_555 1_555
Mn1 O1A 1_555 1_555
O3 Co2 1_555 1_555
Co2 O10 1_555 1_555
C1 C2 1_555 1_555
C2 H1 1_555 1_555
C3 C2 1_555 1_555
H2 C3 1_555 1_555
C4 H3 1_555 1_555
C5 C1 1_555 1_555
H4 C5 1_555 1_555
O4 C10 1_555 1_555
O5 C12 1_555 1_555
O6 C31 1_555 1_555
O7 C33 1_555 1_555
O8 C22 1_555 1_555
O9 C22 1_555 1_555
O11 C32 1_555 1_555
C6 C11 1_555 1_555
C7 C8 1_555 1_555
C8 H5 1_555 1_555
C9 C8 1_555 1_555
H6 C9 1_555 1_555
C10 C9 1_555 1_555
C11 O4 1_555 1_555
H7 C11 1_555 1_555
H8 C11 1_555 1_555
C12 C6 1_555 1_555
H9 C12 1_555 1_555
H10 C12 1_555 1_555
C13 O5 1_555 1_555
C14 C13 1_555 1_555
H11 C14 1_555 1_555
C15 C14 1_555 1_555
H12 C15 1_555 1_555
C16 C15 1_555 1_555
C17 C16 1_555 1_555
H13 C17 1_555 1_555
C18 C13 1_555 1_555
H14 C18 1_555 1_555
C19 C6 1_555 1_555
H15 C19 1_555 1_555
H16 C19 1_555 1_555
O12 C19 1_555 1_555
C20 C10 1_555 1_555
H17 C20 1_555 1_555
C21 C7 1_555 1_555
H18 C21 1_555 1_555
C22 C23 1_555 1_555
C23 C24 1_555 1_555
C24 H19 1_555 1_555
C25 C24 1_555 1_555
H20 C25 1_555 1_555
C26 O12 1_555 1_555
C27 C26 1_555 1_555
H21 C27 1_555 1_555
C28 C23 1_555 1_555
H22 C28 1_555 1_555
C29 C3 1_555 1_555
O13 C29 1_555 1_555
C30 C6 1_555 1_555
H23 C30 1_555 1_555
H24 C30 1_555 1_555
C31 O3 1_555 1_555
C32 O1 1_555 1_555
C33 C7 1_555 1_555
Co1_2 O1_2 1_555 1_555
Co1_3 O6 1_555 1_555
Co1_4 O7 1_555 1_555
Co1_5 O9 1_555 1_555
Co1_6 O6_2 1_555 1_555
Co1_7 O9_2 1_555 1_555
O1_2 Mn1_4 1_555 1_555
O2_2 Mn1 1_555 1_555
O2A Mn1 1_555 1_555
Mn1_2 O2 1_555 1_555
Mn1_3 O8 1_555 1_555
Mn1_5 O8_2 1_555 1_555
O3_2 Co2_3 1_555 1_555
O3A Co2 1_555 1_555
Co2_2 O11 1_555 1_555
Co2_4 O11_2 1_555 1_555
C1_2 C2_2 1_555 1_555
C2_2 H1_2 1_555 1_555
C3_2 C2_2 1_555 1_555
H2_2 C3_2 1_555 1_555
C4_2 H3_2 1_555 1_555
C5_2 C1_2 1_555 1_555
H4_2 C5_2 1_555 1_555
O4_2 C10_2 1_555 1_555
O5_2 C12_2 1_555 1_555
O6_2 C31_2 1_555 1_555
O6_3 Co1 1_555 1_555
O6_4 Co1_2 1_555 1_555
O7_2 Co1 1_555 1_555
O7_3 Co1_2 1_555 1_555
O8_2 C22_2 1_555 1_555
O8_3 Mn1 1_555 1_555
O8A Mn1 1_555 1_555
O9_2 C22_2 1_555 1_555
O9_3 Co1 1_555 1_555
O9_4 Co1_2 1_555 1_555
O10A Co2 1_555 1_555
O11_2 C32_2 1_555 1_555
O11_3 Co2 1_555 1_555
O11A Co2 1_555 1_555
C6_2 C11_2 1_555 1_555
C7_2 C8_2 1_555 1_555
C8_2 H5_2 1_555 1_555
C9_2 C8_2 1_555 1_555
H6_2 C9_2 1_555 1_555
C10_2 C9_2 1_555 1_555
C11_2 O4_2 1_555 1_555
H7_2 C11_2 1_555 1_555
H8_2 C11_2 1_555 1_555
C12_2 C6_2 1_555 1_555
H9_2 C12_2 1_555 1_555
H10_2 C12_2 1_555 1_555
C13_2 O5_2 1_555 1_555
C14_2 C13_2 1_555 1_555
H11_2 C14_2 1_555 1_555
C15_2 C14_2 1_555 1_555
H12_2 C15_2 1_555 1_555
C16_2 C15_2 1_555 1_555
C17_2 C16_2 1_555 1_555
H13_2 C17_2 1_555 1_555
C18_2 C13_2 1_555 1_555
H14_2 C18_2 1_555 1_555
C19_2 C6_2 1_555 1_555
H15_2 C19_2 1_555 1_555
H16_2 C19_2 1_555 1_555
O12_2 C19_2 1_555 1_555
C20_2 C10_2 1_555 1_555
H17_2 C20_2 1_555 1_555
C21_2 C7_2 1_555 1_555
H18_2 C21_2 1_555 1_555
C22_2 C23_2 1_555 1_555
C23_2 C24_2 1_555 1_555
C24_2 H19_2 1_555 1_555
C25_2 C24_2 1_555 1_555
H20_2 C25_2 1_555 1_555
C26_2 O12_2 1_555 1_555
C27_2 C26_2 1_555 1_555
H21_2 C27_2 1_555 1_555
C28_2 C23_2 1_555 1_555
H22_2 C28_2 1_555 1_555
C29_2 C3_2 1_555 1_555
O13_2 C29_2 1_555 1_555
C30_2 C6_2 1_555 1_555
H23_2 C30_2 1_555 1_555
H24_2 C30_2 1_555 1_555
C31_2 O3_2 1_555 1_555
C32_2 O1_2 1_555 1_555
C33_2 O2_2 1_555 1_555
C1 C32 1_555 1_555
C4 C5 1_555 1_555
C4 C29 1_555 1_555
C16 C31 1_555 1_555
C17 C18 1_555 1_555
C20 C21 1_555 1_555
C25 C26 1_555 1_555
C27 C28 1_555 1_555
O13 C30 1_555 1_555
C1_2 C32_2 1_555 1_555
C4_2 C5_2 1_555 1_555
C4_2 C29_2 1_555 1_555
O7_2 C33_2 1_555 1_555
C7_2 C33_2 1_555 1_555
C16_2 C31_2 1_555 1_555
C17_2 C18_2 1_555 1_555
C20_2 C21_2 1_555 1_555
C25_2 C26_2 1_555 1_555
C27_2 C28_2 1_555 1_555
O13_2 C30_2 1_555 1_555

#END
