
#######################################################################
#
#                 Cambridge Crystallographic Data Centre
#                                CCDC 
#
#######################################################################
#
# If this CIF has been generated from an entry in the Cambridge 
# Structural Database, then it will include bibliographic, chemical, 
# crystal, experimental, refinement or atomic coordinate data resulting 
# from the CCDC's data processing and validation procedures.
#
#######################################################################

data_LIDZOP
_chemical_formula_moiety         '(C14 H10 O7 S1 Sr1)n'
_symmetry_cell_setting           monoclinic
_symmetry_space_group_name_H-M   'P 21/n'
_symmetry_Int_Tables_number      14
_space_group_name_Hall           '-P 2yn'
loop_
_symmetry_equiv_pos_site_id
_symmetry_equiv_pos_as_xyz
1 x,y,z
2 1/2-x,1/2+y,1/2-z
3 -x,-y,-z
4 1/2+x,1/2-y,1/2+z
_cell_length_a                   12.1722(5)
_cell_length_b                   5.7277(2)
_cell_length_c                   22.9034(9)
_cell_angle_alpha                90
_cell_angle_beta                 98.857(2)
_cell_angle_gamma                90
_cell_volume                     1577.75
loop_
_atom_site_label
_atom_site_type_symbol
_atom_site_fract_x
_atom_site_fract_y
_atom_site_fract_z
Sr1 Sr 0.366523(19) 0.74465(4) 0.775669(10)
S1 S 0.59866(5) 0.96171(11) 0.89285(3)
O1 O 1.00441(17) 0.5179(3) 0.75922(10)
O2 O 1.03928(18) 0.8953(4) 0.75117(10)
O3 O 0.73481(16) 0.5482(3) 1.17037(8)
O4 O 0.73830(16) 0.9289(3) 1.18651(8)
O5 O 0.50781(16) 0.8057(3) 0.87108(8)
O6 O 0.58171(18) 1.2092(3) 0.88830(9)
C1 C 0.7239(2) 0.7538(4) 1.15248(12)
C2 C 0.6973(2) 0.8010(4) 1.08729(11)
C3 C 0.6448(2) 0.6325(5) 1.04927(12)
H1 H 0.6289 0.4873 1.0641
C4 C 0.6160(2) 0.6773(5) 0.98997(12)
H2 H 0.5807 0.5638 0.9647
C5 C 0.6401(2) 0.8929(4) 0.96843(11)
C6 C 0.6953(3) 1.0619(5) 1.00510(12)
H3 H 0.7132 1.2050 0.9898
C7 C 0.7235(3) 1.0149(5) 1.06480(12)
H4 H 0.7602 1.1273 1.0899
C8 C 0.7129(2) 0.8878(4) 0.85750(11)
C9 C 0.7162(2) 0.6737(5) 0.82983(12)
H5 H 0.6592 0.5659 0.8300
C10 C 0.8062(2) 0.6240(4) 0.80193(12)
H6 H 0.8097 0.4806 0.7833
C11 C 0.8916(2) 0.7845(4) 0.80118(13)
C12 C 0.8868(2) 0.9983(5) 0.82919(13)
H7 H 0.9432 1.1073 0.8284
C13 C 0.7979(2) 1.0498(4) 0.85834(12)
H8 H 0.7953 1.1910 0.8782
C14 C 0.9871(2) 0.7280(4) 0.76794(13)
Sr1A Sr 1.133477(19) 0.24465(4) 0.724331(10)
Sr1A_2 Sr 1.133477(19) 1.24465(4) 0.724331(10)
Sr1B Sr 0.633477(19) 0.25535(4) 1.224331(10)
Sr1B_2 Sr 0.633477(19) 1.25535(4) 1.224331(10)
Sr1C Sr 0.866523(19) 0.75535(4) 1.275669(10)
O1A O 0.49559(17) 1.0179(3) 0.74078(10)
O2A O 0.46072(18) 0.3953(4) 0.74883(10)
O3B O 0.26519(16) 0.4518(3) 0.82963(8)
O3C O 0.23481(16) 0.9518(3) 0.67037(8)
O4B O 0.26170(16) 1.0711(3) 0.81349(8)
O4C O 0.23830(16) 0.5711(3) 0.68651(8)
O7 O 0.975(3) 0.578(5) 0.9825(13)
H9 H 1.0321 0.6640 0.9895
H10 H 0.9380 0.6138 1.0099
loop_
_geom_bond_atom_site_label_1
_geom_bond_atom_site_label_2
_geom_bond_site_symmetry_1
_geom_bond_site_symmetry_2
Sr1 O5 1_555 1_555
S1 O5 1_555 1_555
O1 C14 1_555 1_555
O2 C14 1_555 1_555
O3 C1 1_555 1_555
O4 C1 1_555 1_555
O6 S1 1_555 1_555
C1 C2 1_555 1_555
C2 C3 1_555 1_555
C3 H1 1_555 1_555
C4 C3 1_555 1_555
H2 C4 1_555 1_555
C5 S1 1_555 1_555
C6 C5 1_555 1_555
H3 C6 1_555 1_555
C7 C2 1_555 1_555
H4 C7 1_555 1_555
C8 S1 1_555 1_555
C9 C8 1_555 1_555
H5 C9 1_555 1_555
C10 C9 1_555 1_555
H6 C10 1_555 1_555
C11 C10 1_555 1_555
C12 C11 1_555 1_555
H7 C12 1_555 1_555
C13 C8 1_555 1_555
H8 C13 1_555 1_555
C14 C11 1_555 1_555
O7 H9 1_555 1_555
H10 O7 1_555 1_555
Sr1A O1 1_555 1_555
Sr1A_2 O2 1_555 1_555
Sr1B O3 1_555 1_555
Sr1B_2 O4 1_555 1_555
Sr1C O3 1_555 1_555
O1A Sr1 1_555 1_555
O2A Sr1 1_555 1_555
O3B Sr1 1_555 1_555
O3C Sr1 1_555 1_555
O4B Sr1 1_555 1_555
O4C Sr1 1_555 1_555
O4 Sr1C 1_555 1_555
C4 C5 1_555 1_555
C6 C7 1_555 1_555
C12 C13 1_555 1_555

#END
