
#######################################################################
#
#                 Cambridge Crystallographic Data Centre
#                                CCDC 
#
#######################################################################
#
# If this CIF has been generated from an entry in the Cambridge 
# Structural Database, then it will include bibliographic, chemical, 
# crystal, experimental, refinement or atomic coordinate data resulting 
# from the CCDC's data processing and validation procedures.
#
#######################################################################

data_HOWPUF
_chemical_formula_moiety         '(C38 H51 N9 O26 Zn4)n'
_symmetry_cell_setting           orthorhombic
_symmetry_space_group_name_H-M   'P 21 21 2'
_symmetry_Int_Tables_number      18
_space_group_name_Hall           'P 2 2ab'
loop_
_symmetry_equiv_pos_site_id
_symmetry_equiv_pos_as_xyz
1 x,y,z
2 -x,-y,z
3 1/2-x,1/2+y,-z
4 1/2+x,1/2-y,-z
_cell_length_a                   13.8332(7)
_cell_length_b                   21.6436(10)
_cell_length_c                   12.1250(6)
_cell_angle_alpha                90
_cell_angle_beta                 90
_cell_angle_gamma                90
_cell_volume                     3630.23
loop_
_atom_site_label
_atom_site_type_symbol
_atom_site_fract_x
_atom_site_fract_y
_atom_site_fract_z
Zn1 Zn 0.07486(4) -0.24406(3) -0.24846(5)
Zn2 Zn 0.56766(4) -0.12579(3) -0.23379(6)
N1 N -0.0441(3) -0.2280(2) -0.3608(4)
N2 N 0.1984(3) -0.2655(2) -0.1461(4)
N3 N 0.5298(4) -0.0532(2) -0.3443(4)
N4 N 0.4166(5) -0.0184(3) -0.4866(5)
O1 O 0.4365(3) -0.1624(2) -0.2121(4)
O2 O 0.5358(3) -0.2240(2) -0.1219(4)
O3 O -0.0218(3) -0.2442(2) -0.1126(3)
O4 O -0.0064(4) -0.1500(2) -0.0391(4)
O5 O -0.2884(3) -0.1369(2) -0.2544(4)
O6 O -0.3799(3) -0.1869(2) -0.3719(4)
O7 O 0.1720(3) -0.24661(19) -0.3830(3)
O8 O 0.1907(3) -0.3489(2) -0.4001(4)
O9 O 0.0420(3) -0.34147(18) -0.2616(4)
O10 O 0.0967(3) -0.14724(19) -0.2242(4)
O11 O 0.5727(4) -0.0790(2) -0.0893(4)
C1 C 0.2812(4) -0.2374(3) -0.1707(4)
H1 H 0.2811 -0.2108 -0.2310
C2 C 0.3678(4) -0.2444(3) -0.1137(5)
C3 C 0.4538(4) -0.2095(3) -0.1503(5)
C4 C 0.3683(4) -0.2862(3) -0.0271(5)
C5 C -0.0434(4) -0.2016(3) -0.0476(5)
C6 C 0.2834(5) -0.3162(3) -0.0008(5)
H2 H 0.2818 -0.3444 0.0570
C7 C 0.1999(4) -0.3038(3) -0.0614(5)
H3 H 0.1428 -0.3235 -0.0412
C8 C -0.1265(4) -0.2046(3) -0.3248(5)
H4 H -0.1298 -0.1920 -0.2515
C9 C -0.2092(4) -0.1975(3) -0.3905(5)
C10 C -0.2984(4) -0.1720(3) -0.3372(5)
C11 C -0.2048(4) -0.2156(3) -0.4991(5)
C12 C 0.2107(4) -0.2947(3) -0.4215(5)
C13 C -0.1187(4) -0.2414(3) -0.5357(5)
H5 H -0.1136 -0.2550 -0.6083
C14 C -0.0420(4) -0.2472(3) -0.4667(5)
H6 H 0.0144 -0.2652 -0.4935
C15 C 0.4493(5) -0.0712(3) -0.4163(6)
H7 H 0.3957 -0.0855 -0.3715
H8 H 0.4696 -0.1051 -0.4633
C16 C 0.5000 0.0000 -0.5531(9)
H9 H 0.4815 0.0342 -0.6003
C17 C 0.6141(5) -0.0319(3) -0.4179(6)
H10 H 0.6679 -0.0188 -0.3722
H11 H 0.6358 -0.0660 -0.4636
C18 C 0.5000 0.0000 -0.2776(7)
H12 H 0.4467 -0.0122 -0.2305
Zn1C Zn 0.57486(4) -0.25594(3) 0.24846(5)
Zn1C_2 Zn -0.42514(4) -0.25594(3) -0.75154(5)
Zn1C_3 Zn -0.42514(4) -0.25594(3) 0.24846(5)
Zn1C_4 Zn 0.57486(4) -0.25594(3) -0.75154(5)
Zn2_2 Zn -0.43234(4) -0.12579(3) -0.23379(6)
Zn2A Zn 0.43234(4) 0.12579(3) -0.23379(6)
Zn2C Zn 0.06766(4) -0.37421(3) 0.23379(6)
Zn2C_2 Zn 0.06766(4) -0.37421(3) -0.76621(6)
N1C N 0.4559(3) -0.2720(2) -0.6392(4)
N2C N -0.3016(3) -0.2345(2) 0.1461(4)
N2C_2 N 0.6984(3) -0.2345(2) -0.8539(4)
N3A N 0.4702(4) 0.0532(2) -0.3443(4)
N3C N 0.0298(4) -0.4468(2) 0.3443(4)
N4A N 0.5834(5) 0.0184(3) -0.4866(5)
O1C O -0.0635(3) -0.3376(2) 0.2121(4)
O2C O 0.0358(3) -0.2760(2) 0.1219(4)
O3C O 0.4782(3) -0.2558(2) 0.1126(3)
O3C_2 O 0.4782(3) -0.2558(2) -0.8874(3)
O4C O 0.4936(4) -0.3500(2) 0.0391(4)
O5_2 O 0.7116(3) -0.1369(2) -0.2544(4)
O5C O 0.2116(3) -0.3631(2) -0.7456(4)
O5C_2 O 0.2116(3) -0.3631(2) 0.2544(4)
O6_2 O 0.6201(3) -0.1869(2) -0.3719(4)
O6C O 0.1201(3) -0.3131(2) -0.6281(4)
O6C_2 O 0.1201(3) -0.3131(2) 0.3719(4)
O7C O -0.3280(3) -0.25339(19) -0.6170(3)
O7C_2 O 0.6720(3) -0.25339(19) -0.6170(3)
O8C O -0.3093(3) -0.1511(2) -0.5999(4)
O9C O 0.5420(3) -0.15853(18) -0.7384(4)
O10C O 0.5967(3) -0.35276(19) -0.7758(4)
O11C O 0.0727(4) -0.4210(2) 0.0893(4)
C1C C -0.2188(4) -0.2626(3) 0.1707(4)
H1C H -0.2189 -0.2892 0.2310
C2C C -0.1322(4) -0.2556(3) 0.1137(5)
C3C C -0.0462(4) -0.2905(3) 0.1503(5)
C4C C -0.1317(4) -0.2138(3) 0.0271(5)
C5C C 0.4566(4) -0.2984(3) 0.0476(5)
C6C C -0.2166(5) -0.1838(3) 0.0008(5)
H2C H -0.2182 -0.1556 -0.0570
C7C C -0.3001(4) -0.1962(3) 0.0614(5)
H3C H -0.3572 -0.1765 0.0412
C8C C 0.3735(4) -0.2954(3) -0.6752(5)
H4C H 0.3702 -0.3080 -0.7485
C9C C 0.2908(4) -0.3025(3) -0.6095(5)
C10C C 0.2016(4) -0.3280(3) -0.6628(5)
C11C C 0.2952(4) -0.2844(3) -0.5009(5)
C12C C -0.2893(4) -0.2053(3) -0.5785(5)
C13C C 0.3813(4) -0.2586(3) -0.4643(5)
H5C H 0.3864 -0.2450 -0.3917
C14C C 0.4580(4) -0.2528(3) -0.5333(5)
H6C H 0.5144 -0.2348 -0.5065
C15A C 0.5507(5) 0.0712(3) -0.4163(6)
H7A H 0.6043 0.0855 -0.3715
H8A H 0.5304 0.1051 -0.4633
H9A H 0.5185 -0.0342 -0.6003
C17A C 0.3859(5) 0.0319(3) -0.4179(6)
H10A H 0.3321 0.0188 -0.3722
H11A H 0.3642 0.0660 -0.4636
H12A H 0.5533 0.0122 -0.2305
N5 N 0.2249(10) -0.9702(5) -0.8658(11)
O12 O 0.2979(5) -1.0038(3) -1.0122(7)
C19 C 0.1264(11) -0.9823(11) -1.0164(15)
H13 H 0.0895 -0.9505 -0.9807
H14 H 0.0927 -1.0210 -1.0105
H15 H 0.1349 -0.9720 -1.0928
C20 C 0.2250(10) -0.9878(5) -0.9609(12)
C21 C 0.3201(13) -0.9711(7) -0.8058(14)
H16 H 0.3598 -0.9377 -0.8316
H17 H 0.3523 -1.0096 -0.8194
H18 H 0.3091 -0.9665 -0.7281
C22 C 0.1363(12) -0.9406(8) -0.8087(14)
H19 H 0.1563 -0.9216 -0.7409
H20 H 0.0891 -0.9720 -0.7934
H21 H 0.1086 -0.9100 -0.8564
O14 O 0.7241(4) -0.9175(3) -0.1956(6)
O15 O 0.5538(5) -0.8801(5) -0.9492(6)
O16 O -0.0000 -1.0000 -0.508(2)
loop_
_geom_bond_atom_site_label_1
_geom_bond_atom_site_label_2
_geom_bond_site_symmetry_1
_geom_bond_site_symmetry_2
Zn1 N1 1_555 1_555
Zn2 N3 1_555 1_555
N1 C8 1_555 1_555
N2 Zn1 1_555 1_555
N3 C15 1_555 1_555
N4 C15 1_555 1_555
N5 C20 1_555 1_555
O1 Zn2 1_555 1_555
O2 C3 1_555 1_555
O3 Zn1 1_555 1_555
O4 C5 1_555 1_555
O5 C10 1_555 1_555
O6 C10 1_555 1_555
O7 Zn1 1_555 1_555
O8 C12 1_555 1_555
O9 Zn1 1_555 1_555
O10 Zn1 1_555 1_555
O11 Zn2 1_555 1_555
O12 C20 1_555 1_555
C1 N2 1_555 1_555
H1 C1 1_555 1_555
C2 C1 1_555 1_555
C3 O1 1_555 1_555
C4 C2 1_555 1_555
C5 O3 1_555 1_555
C6 C4 1_555 1_555
H2 C6 1_555 1_555
C7 N2 1_555 1_555
H3 C7 1_555 1_555
C8 H4 1_555 1_555
C9 C8 1_555 1_555
C10 C9 1_555 1_555
C11 C9 1_555 1_555
C12 O7 1_555 1_555
C13 C11 1_555 1_555
H5 C13 1_555 1_555
C14 N1 1_555 1_555
H6 C14 1_555 1_555
C15 H7 1_555 1_555
H8 C15 1_555 1_555
C16 N4 1_555 1_555
H9 C16 1_555 1_555
C17 N3 1_555 1_555
H10 C17 1_555 1_555
H11 C17 1_555 1_555
C18 N3 1_555 1_555
H12 C18 1_555 1_555
C19 H13 1_555 1_555
H14 C19 1_555 1_555
H15 C19 1_555 1_555
C20 C19 1_555 1_555
C21 N5 1_555 1_555
H16 C21 1_555 1_555
H17 C21 1_555 1_555
H18 C21 1_555 1_555
C22 N5 1_555 1_555
H19 C22 1_555 1_555
H20 C22 1_555 1_555
H21 C22 1_555 1_555
Zn1C O3C 1_555 1_555
Zn1C_2 O7C 1_555 1_555
Zn1C_3 N2C 1_555 1_555
Zn1C_4 N1C 1_555 1_555
Zn2_2 O5 1_555 1_555
Zn2A N3A 1_555 1_555
Zn2C N3C 1_555 1_555
Zn2C_2 O5C 1_555 1_555
N1C C8C 1_555 1_555
N2C C1C 1_555 1_555
N2C_2 Zn1C_4 1_555 1_555
N3A C18 1_555 1_555
N4A C16 1_555 1_555
O1C Zn2C 1_555 1_555
O2C C3C 1_555 1_555
O3C C5C 1_555 1_555
O3C_2 Zn1C_4 1_555 1_555
O4C C5C 1_555 1_555
O5_2 Zn2 1_555 1_555
O5C C10C 1_555 1_555
O5C_2 Zn2C 1_555 1_555
O6_2 Zn2 1_555 1_555
O6C Zn2C_2 1_555 1_555
O6C_2 Zn2C 1_555 1_555
O7C C12C 1_555 1_555
O7C_2 Zn1C_4 1_555 1_555
O8C C12C 1_555 1_555
O9C Zn1C_4 1_555 1_555
O10C Zn1C_4 1_555 1_555
O11C Zn2C 1_555 1_555
C1C H1C 1_555 1_555
C2C C1C 1_555 1_555
C3C O1C 1_555 1_555
C4C C5 1_555 1_555
C5C C4 1_555 1_555
C6C C4C 1_555 1_555
H2C C6C 1_555 1_555
C7C N2C 1_555 1_555
H3C C7C 1_555 1_555
C8C H4C 1_555 1_555
C9C C8C 1_555 1_555
C10C O6C 1_555 1_555
C11C C12 1_555 1_555
C12C C11 1_555 1_555
C13C C11C 1_555 1_555
H5C C13C 1_555 1_555
C14C N1C 1_555 1_555
H6C C14C 1_555 1_555
C15A N3A 1_555 1_555
H7A C15A 1_555 1_555
H8A C15A 1_555 1_555
H9A C16 1_555 1_555
C17A N4 1_555 1_555
H10A C17A 1_555 1_555
H11A C17A 1_555 1_555
H12A C18 1_555 1_555
O6 Zn2_2 1_555 1_555
C2 C3 1_555 1_555
C6 C7 1_555 1_555
C13 C14 1_555 1_555
C17 N4A 1_555 1_555
N3A C17A 1_555 1_555
N4A C15A 1_555 1_555
C2C C3C 1_555 1_555
C2C C4C 1_555 1_555
C6C C7C 1_555 1_555
C9C C10C 1_555 1_555
C9C C11C 1_555 1_555
C13C C14C 1_555 1_555

#END
