
#######################################################################
#
#                 Cambridge Crystallographic Data Centre
#                                CCDC 
#
#######################################################################
#
# If this CIF has been generated from an entry in the Cambridge 
# Structural Database, then it will include bibliographic, chemical, 
# crystal, experimental, refinement or atomic coordinate data resulting 
# from the CCDC's data processing and validation procedures.
#
#######################################################################

data_YUKMOI
_chemical_formula_moiety         'C354 H252 O111 Zn55'
_symmetry_cell_setting           cubic
_symmetry_space_group_name_H-M   'P m -3'
_symmetry_Int_Tables_number      200
_space_group_name_Hall           '-P 2 2 3'
loop_
_symmetry_equiv_pos_site_id
_symmetry_equiv_pos_as_xyz
1 x,y,z
2 -x,-y,z
3 -x,y,-z
4 x,-y,-z
5 z,x,y
6 z,-x,-y
7 -z,-x,y
8 -z,x,-y
9 y,z,x
10 -y,z,-x
11 y,-z,-x
12 -y,-z,x
13 -x,-y,-z
14 x,y,-z
15 x,-y,z
16 -x,y,z
17 -z,-x,-y
18 -z,x,y
19 z,x,-y
20 z,-x,y
21 -y,-z,-x
22 y,-z,x
23 -y,z,x
24 y,z,-x
_cell_length_a                   29.9525(3)
_cell_length_b                   29.9525(3)
_cell_length_c                   29.9525(3)
_cell_angle_alpha                90
_cell_angle_beta                 90
_cell_angle_gamma                90
_cell_volume                     26872
loop_
_atom_site_label
_atom_site_type_symbol
_atom_site_fract_x
_atom_site_fract_y
_atom_site_fract_z
Zn1 Zn 0.05332(2) 0.17736(2) 0.5000
Zn2 Zn 0.0000 0.25139(2) 0.44672(2)
O1 O 0.0000 0.21437(4) 0.5000
O2 O 0.05275(3) 0.24117(3) 0.41086(3)
O3 O 0.08913(3) 0.18763(3) 0.44736(3)
O4 O 0.03709(4) 0.11493(4) 0.5000
C1 C 0.0000 0.09604(7) 0.5000
C2 C 0.0000 0.33233(8) 0.5000
O5 O 0.0000 0.31367(4) 0.46293(5)
C3 C 0.08455(4) 0.21429(4) 0.41567(4)
C4 C 0.0000 0.04599(7) 0.5000
C5 C 0.11982(5) 0.24628(5) 0.34721(5)
H1 H 0.0976 0.2679 0.3464
C6 C 0.18649(6) 0.21346(6) 0.31527(6)
C7 C 0.03933(7) 0.02314(6) 0.5000
H2 H 0.0662 0.0386 0.5000
C8 C 0.15306(5) 0.24590(5) 0.31511(5)
C9 C 0.11991(5) 0.21426(5) 0.38049(5)
C10 C 0.15313(6) 0.18204(6) 0.38100(6)
H3 H 0.1533 0.1606 0.4034
C11 C 0.20046(5) 0.26041(6) 0.25438(6)
C12 C 0.0000 0.38223(8) 0.5000
C13 C 0.21652(6) 0.22228(6) 0.27642(5)
C14 C 0.18609(6) 0.18132(6) 0.34861(6)
H4 H 0.2080 0.1593 0.3492
C15 C 0.15846(6) 0.27862(6) 0.27712(6)
C16 C 0.11727(6) 0.27607(8) 0.24719(7)
H5 H 0.1120 0.2456 0.2389
H6 H 0.1221 0.2936 0.2208
H7 H 0.0918 0.2874 0.2630
C17 C 0.16633(8) 0.32511(6) 0.29719(7)
H8 H 0.1397 0.3349 0.3122
H9 H 0.1737 0.3457 0.2738
H10 H 0.1905 0.3237 0.3182
C18 C 0.0000 0.47509(9) 0.5000
C19 C 0.0000 0.40536(8) 0.46180(10)
H11 H 0.0000 0.3902 0.4347
C20 C 0.0000 0.45183(8) 0.46201(11)
H12 H 0.0000 0.4671 0.4350
O2D O 0.41086(3) 0.05275(3) 0.24117(3)
O3D O 0.44736(3) 0.08913(3) 0.18763(3)
C3D C 0.41567(4) 0.08455(4) 0.21429(4)
C5D C 0.34721(5) 0.11982(5) 0.24628(5)
H1D H 0.3464 0.0976 0.2679
C6D C 0.31527(6) 0.18649(6) 0.21346(6)
C8D C 0.31511(5) 0.15306(5) 0.24590(5)
C9D C 0.38049(5) 0.11991(5) 0.21426(5)
C10D C 0.38100(6) 0.15313(6) 0.18204(6)
H3D H 0.4034 0.1533 0.1606
C11D C 0.25438(6) 0.20046(5) 0.26041(6)
C13D C 0.27642(5) 0.21652(6) 0.22228(6)
C14D C 0.34861(6) 0.18609(6) 0.18132(6)
H4D H 0.3492 0.2080 0.1593
C15D C 0.27712(6) 0.15846(6) 0.27862(6)
C16D C 0.24719(7) 0.11727(6) 0.27607(8)
H5D H 0.2389 0.1120 0.2456
H6D H 0.2208 0.1221 0.2936
H7D H 0.2630 0.0918 0.2874
C17D C 0.29719(7) 0.16633(8) 0.32511(6)
H8D H 0.3122 0.1397 0.3349
H9D H 0.2738 0.1737 0.3457
H10D H 0.3182 0.1905 0.3237
O2H O 0.24117(3) 0.41086(3) 0.05275(3)
O3H O 0.18763(3) 0.44736(3) 0.08913(3)
C3H C 0.21429(4) 0.41567(4) 0.08455(4)
C5H C 0.24628(5) 0.34721(5) 0.11982(5)
H1H H 0.2679 0.3464 0.0976
C6H C 0.21346(6) 0.31527(6) 0.18649(6)
C8H C 0.24590(5) 0.31511(5) 0.15306(5)
C9H C 0.21426(5) 0.38049(5) 0.11991(5)
C10H C 0.18204(6) 0.38100(6) 0.15313(6)
H3H H 0.1606 0.4034 0.1533
C11H C 0.26041(6) 0.25438(6) 0.20046(5)
C13H C 0.22228(6) 0.27642(5) 0.21652(6)
C14H C 0.18132(6) 0.34861(6) 0.18609(6)
H4H H 0.1593 0.3492 0.2080
C15H C 0.27862(6) 0.27712(6) 0.15846(6)
C16H C 0.27607(8) 0.24719(7) 0.11727(6)
H5H H 0.2456 0.2389 0.1120
H6H H 0.2936 0.2208 0.1221
H7H H 0.2874 0.2630 0.0918
C17H C 0.32511(6) 0.29719(7) 0.16633(8)
H8H H 0.3349 0.3122 0.1397
H9H H 0.3457 0.2738 0.1737
H10H H 0.3237 0.3182 0.1905
O4B O -0.03709(4) 0.11493(4) 0.5000
C7B C -0.03933(7) 0.02314(6) 0.5000
H2B H -0.0662 0.0386 0.5000
O4C O 0.03709(4) -0.11493(4) 0.5000
C1A C 0.0000 -0.09604(7) 0.5000
C4A C 0.0000 -0.04599(7) 0.5000
C7C C 0.03933(7) -0.02314(6) 0.5000
H2C H 0.0662 -0.0386 0.5000
O4A O -0.03709(4) -0.11493(4) 0.5000
C7A C -0.03933(7) -0.02314(6) 0.5000
H2A H -0.0662 -0.0386 0.5000
C2A C 0.0000 0.66767(8) 0.5000
O5A O 0.0000 0.68633(4) 0.46293(5)
C12A C 0.0000 0.61777(8) 0.5000
C18A C 0.0000 0.52491(9) 0.5000
C19A C 0.0000 0.59464(8) 0.46180(10)
H11A H 0.0000 0.6098 0.4347
C20A C 0.0000 0.54817(8) 0.46201(11)
H12A H 0.0000 0.5329 0.4350
O5B O 0.0000 0.31367(4) 0.53707(5)
C19B C 0.0000 0.40536(8) 0.53820(10)
H11B H 0.0000 0.3902 0.5653
C20B C -0.0000 0.45183(8) 0.53799(11)
H12B H 0.0000 0.4671 0.5650
O5C O 0.0000 0.68633(4) 0.53707(5)
C19C C 0.0000 0.59464(8) 0.53820(10)
H11C H 0.0000 0.6098 0.5653
C20C C -0.0000 0.54817(8) 0.53799(11)
H12C H 0.0000 0.5329 0.5650
Zn1A Zn -0.05332(2) -0.17736(2) 0.5000
Zn2A Zn 0.0000 -0.25139(2) 0.44672(2)
O1A O 0.0000 -0.21437(4) 0.5000
O2A O -0.05275(3) -0.24117(3) 0.41086(3)
O3A O -0.08913(3) -0.18763(3) 0.44736(3)
C2A_2 C 0.0000 -0.33233(8) 0.5000
O5A_2 O 0.0000 -0.31367(4) 0.46293(5)
C3A C -0.08455(4) -0.21429(4) 0.41567(4)
C5A C -0.11982(5) -0.24628(5) 0.34721(5)
H1A H -0.0976 -0.2679 0.3464
C6A C -0.18649(6) -0.21346(6) 0.31527(6)
C8A C -0.15306(5) -0.24590(5) 0.31511(5)
C9A C -0.11991(5) -0.21426(5) 0.38049(5)
C10A C -0.15313(6) -0.18204(6) 0.38100(6)
H3A H -0.1533 -0.1606 0.4034
C11A C -0.20046(5) -0.26041(6) 0.25438(6)
C12A_2 C 0.0000 -0.38223(8) 0.5000
C13A C -0.21652(6) -0.22228(6) 0.27642(5)
C14A C -0.18609(6) -0.18132(6) 0.34861(6)
H4A H -0.2080 -0.1593 0.3492
C15A C -0.15846(6) -0.27862(6) 0.27712(6)
C16A C -0.11727(6) -0.27607(8) 0.24719(7)
H5A H -0.1120 -0.2456 0.2389
H6A H -0.1221 -0.2936 0.2208
H7A H -0.0918 -0.2874 0.2630
C17A C -0.16633(8) -0.32511(6) 0.29719(7)
H8A H -0.1397 -0.3349 0.3122
H9A H -0.1737 -0.3457 0.2738
H10A H -0.1905 -0.3237 0.3182
C18A_2 C 0.0000 -0.47509(9) 0.5000
C19A_2 C 0.0000 -0.40536(8) 0.46180(10)
H11A_2 H 0.0000 -0.3902 0.4347
C20A_2 C 0.0000 -0.45183(8) 0.46201(11)
H12A_2 H 0.0000 -0.4671 0.4350
O2F O -0.41086(3) -0.05275(3) 0.24117(3)
O3F O -0.44736(3) -0.08913(3) 0.18763(3)
C3F C -0.41567(4) -0.08455(4) 0.21429(4)
C5F C -0.34721(5) -0.11982(5) 0.24628(5)
H1F H -0.3464 -0.0976 0.2679
C6F C -0.31527(6) -0.18649(6) 0.21346(6)
C8F C -0.31511(5) -0.15306(5) 0.24590(5)
C9F C -0.38049(5) -0.11991(5) 0.21426(5)
C10F C -0.38100(6) -0.15313(6) 0.18204(6)
H3F H -0.4034 -0.1533 0.1606
C11F C -0.25438(6) -0.20046(5) 0.26041(6)
C13F C -0.27642(5) -0.21652(6) 0.22228(6)
C14F C -0.34861(6) -0.18609(6) 0.18132(6)
H4F H -0.3492 -0.2080 0.1593
C15F C -0.27712(6) -0.15846(6) 0.27862(6)
C16F C -0.24719(7) -0.11727(6) 0.27607(8)
H5F H -0.2389 -0.1120 0.2456
H6F H -0.2208 -0.1221 0.2936
H7F H -0.2630 -0.0918 0.2874
C17F C -0.29719(7) -0.16633(8) 0.32511(6)
H8F H -0.3122 -0.1397 0.3349
H9F H -0.2738 -0.1737 0.3457
H10F H -0.3182 -0.1905 0.3237
O2K O -0.24117(3) -0.41086(3) 0.05275(3)
O3K O -0.18763(3) -0.44736(3) 0.08913(3)
C3K C -0.21429(4) -0.41567(4) 0.08455(4)
C5K C -0.24628(5) -0.34721(5) 0.11982(5)
H1K H -0.2679 -0.3464 0.0976
C6K C -0.21346(6) -0.31527(6) 0.18649(6)
C8K C -0.24590(5) -0.31511(5) 0.15306(5)
C9K C -0.21426(5) -0.38049(5) 0.11991(5)
C10K C -0.18204(6) -0.38100(6) 0.15313(6)
H3K H -0.1606 -0.4034 0.1533
C11K C -0.26041(6) -0.25438(6) 0.20046(5)
C13K C -0.22228(6) -0.27642(5) 0.21652(6)
C14K C -0.18132(6) -0.34861(6) 0.18609(6)
H4K H -0.1593 -0.3492 0.2080
C15K C -0.27862(6) -0.27712(6) 0.15846(6)
C16K C -0.27607(8) -0.24719(7) 0.11727(6)
H5K H -0.2456 -0.2389 0.1120
H6K H -0.2936 -0.2208 0.1221
H7K H -0.2874 -0.2630 0.0918
C17K C -0.32511(6) -0.29719(7) 0.16633(8)
H8K H -0.3349 -0.3122 0.1397
H9K H -0.3457 -0.2738 0.1737
H10K H -0.3237 -0.3182 0.1905
C2_2 C 0.0000 -0.66767(8) 0.5000
O5_2 O 0.0000 -0.68633(4) 0.46293(5)
C12_2 C 0.0000 -0.61777(8) 0.5000
C18_2 C 0.0000 -0.52491(9) 0.5000
C19_2 C 0.0000 -0.59464(8) 0.46180(10)
H11_2 H 0.0000 -0.6098 0.4347
C20_2 C 0.0000 -0.54817(8) 0.46201(11)
H12_2 H 0.0000 -0.5329 0.4350
O5C_2 O 0.0000 -0.31367(4) 0.53707(5)
C19C_2 C 0.0000 -0.40536(8) 0.53820(10)
H11C_2 H 0.0000 -0.3902 0.5653
C20C_2 C 0.0000 -0.45183(8) 0.53799(11)
H12C_2 H 0.0000 -0.4671 0.5650
O5B_2 O 0.0000 -0.68633(4) 0.53707(5)
C19B_2 C 0.0000 -0.59464(8) 0.53820(10)
H11B_2 H 0.0000 -0.6098 0.5653
C20B_2 C 0.0000 -0.54817(8) 0.53799(11)
H12B_2 H 0.0000 -0.5329 0.5650
Zn1A_2 Zn -0.05332(2) 0.82264(2) 0.5000
Zn2A_2 Zn 0.0000 0.74861(2) 0.44672(2)
O1A_2 O 0.0000 0.78563(4) 0.5000
O4A_2 O -0.03709(4) 0.88507(4) 0.5000
C1A_2 C 0.0000 0.90396(7) 0.5000
C4A_2 C 0.0000 0.95401(7) 0.5000
C7A_2 C -0.03933(7) 0.97686(6) 0.5000
H2A_2 H -0.0662 0.9614 0.5000
O4C_2 O 0.03709(4) 0.88507(4) 0.5000
C7C_2 C 0.03933(7) 0.97686(6) 0.5000
H2C_2 H 0.0662 0.9614 0.5000
O4B_2 O -0.03709(4) 1.11493(4) 0.5000
C1_2 C 0.0000 1.09604(7) 0.5000
C4_2 C 0.0000 1.04599(7) 0.5000
C7B_2 C -0.03933(7) 1.02314(6) 0.5000
H2B_2 H -0.0662 1.0386 0.5000
O4_2 O 0.03709(4) 1.11493(4) 0.5000
C7_2 C 0.03933(7) 1.02314(6) 0.5000
H2_2 H 0.0662 1.0386 0.5000
Zn1B Zn -0.05332(2) 0.17736(2) 0.5000
Zn2B Zn 0.0000 0.25139(2) 0.55328(2)
Zn1C Zn 0.05332(2) -0.17736(2) 0.5000
Zn2C Zn 0.0000 -0.25139(2) 0.55328(2)
Zn1C_2 Zn 0.05332(2) 0.82264(2) 0.5000
Zn2C_2 Zn 0.0000 0.74861(2) 0.55328(2)
O2C O 0.05275(3) 0.75883(3) 0.58914(3)
O3C O 0.08913(3) 0.81237(3) 0.55264(3)
C3C C 0.08455(4) 0.78571(4) 0.58433(4)
C5C C 0.11982(5) 0.75372(5) 0.65279(5)
H1C H 0.0976 0.7321 0.6536
C6C C 0.18649(6) 0.78654(6) 0.68473(6)
C8C C 0.15306(5) 0.75410(5) 0.68489(5)
C9C C 0.11991(5) 0.78574(5) 0.61951(5)
C10C C 0.15313(6) 0.81796(6) 0.61900(6)
H3C H 0.1533 0.8394 0.5966
C11C C 0.20046(5) 0.73959(6) 0.74562(6)
C13C C 0.21652(6) 0.77772(6) 0.72358(5)
C14C C 0.18609(6) 0.81868(6) 0.65139(6)
H4C H 0.2080 0.8407 0.6508
C15C C 0.15846(6) 0.72138(6) 0.72288(6)
C16C C 0.11727(6) 0.72393(8) 0.75281(7)
H5C H 0.1120 0.7544 0.7611
H6C H 0.1221 0.7064 0.7792
H7C H 0.0918 0.7126 0.7370
C17C C 0.16633(8) 0.67489(6) 0.70281(7)
H8C H 0.1397 0.6651 0.6878
H9C H 0.1737 0.6543 0.7262
H10C H 0.1905 0.6763 0.6818
O2E O 0.41086(3) 0.94725(3) 0.75883(3)
O3E O 0.44736(3) 0.91087(3) 0.81237(3)
C3E C 0.41567(4) 0.91545(4) 0.78571(4)
C5E C 0.34721(5) 0.88018(5) 0.75372(5)
H1E H 0.3464 0.9024 0.7321
C6E C 0.31527(6) 0.81351(6) 0.78654(6)
C8E C 0.31511(5) 0.84694(5) 0.75410(5)
C9E C 0.38049(5) 0.88009(5) 0.78574(5)
C10E C 0.38100(6) 0.84687(6) 0.81796(6)
H3E H 0.4034 0.8467 0.8394
C11E C 0.25438(6) 0.79954(5) 0.73959(6)
C13E C 0.27642(5) 0.78348(6) 0.77772(6)
C14E C 0.34861(6) 0.81391(6) 0.81868(6)
H4E H 0.3492 0.7920 0.8407
C15E C 0.27712(6) 0.84154(6) 0.72138(6)
C16E C 0.24719(7) 0.88273(6) 0.72393(8)
H5E H 0.2389 0.8880 0.7544
H6E H 0.2208 0.8779 0.7064
H7E H 0.2630 0.9082 0.7126
C17E C 0.29719(7) 0.83367(8) 0.67489(6)
H8E H 0.3122 0.8603 0.6651
H9E H 0.2738 0.8263 0.6543
H10E H 0.3182 0.8095 0.6763
O2J O 0.24117(3) 0.58914(3) 0.94725(3)
O3J O 0.18763(3) 0.55264(3) 0.91087(3)
C3J C 0.21429(4) 0.58433(4) 0.91545(4)
C5J C 0.24628(5) 0.65279(5) 0.88018(5)
H1J H 0.2679 0.6536 0.9024
C6J C 0.21346(6) 0.68473(6) 0.81351(6)
C8J C 0.24590(5) 0.68489(5) 0.84694(5)
C9J C 0.21426(5) 0.61951(5) 0.88009(5)
C10J C 0.18204(6) 0.61900(6) 0.84687(6)
H3J H 0.1606 0.5966 0.8467
C11J C 0.26041(6) 0.74562(6) 0.79954(5)
C13J C 0.22228(6) 0.72358(5) 0.78348(6)
C14J C 0.18132(6) 0.65139(6) 0.81391(6)
H4J H 0.1593 0.6508 0.7920
C15J C 0.27862(6) 0.72288(6) 0.84154(6)
C16J C 0.27607(8) 0.75281(7) 0.88273(6)
H5J H 0.2456 0.7611 0.8880
H6J H 0.2936 0.7792 0.8779
H7J H 0.2874 0.7370 0.9082
C17J C 0.32511(6) 0.70281(7) 0.83367(8)
H8J H 0.3349 0.6878 0.8603
H9J H 0.3457 0.7262 0.8263
H10J H 0.3237 0.6818 0.8095
Zn1D Zn 0.5000 0.05332(2) 0.17736(2)
Zn2D Zn 0.44672(2) -0.0000 0.25139(2)
O1D O 0.5000 0.0000 0.21437(4)
O4D O 0.5000 0.03709(4) 0.11493(4)
C1D C 0.5000 0.0000 0.09604(7)
C2D C 0.5000 0.0000 0.33233(8)
O5D O 0.46293(5) 0.0000 0.31367(4)
C4D C 0.5000 0.0000 0.04599(7)
C7D C 0.5000 0.03933(7) 0.02314(6)
H2D H 0.5000 0.0662 0.0386
C12D C 0.5000 0.0000 0.38223(8)
C18D C 0.5000 -0.0000 0.47509(9)
C19D C 0.46180(10) 0.0000 0.40536(8)
H11D H 0.4347 0.0000 0.3902
C20D C 0.46201(11) 0.0000 0.45183(8)
H12D H 0.4350 0.0000 0.4671
O4F O 0.5000 -0.03709(4) 0.11493(4)
C7F C 0.5000 -0.03933(7) 0.02314(6)
H2F H 0.5000 -0.0662 0.0386
O4G O 0.5000 0.03709(4) -0.11493(4)
C1E C 0.5000 0.0000 -0.09604(7)
C4E C 0.5000 0.0000 -0.04599(7)
C7G C 0.5000 0.03933(7) -0.02314(6)
H2G H 0.5000 0.0662 -0.0386
O4E O 0.5000 -0.03709(4) -0.11493(4)
C7E C 0.5000 -0.03933(7) -0.02314(6)
H2E H 0.5000 -0.0662 -0.0386
C2E C 0.5000 0.0000 0.66767(8)
O5E O 0.46293(5) 0.0000 0.68633(4)
C12E C 0.5000 0.0000 0.61777(8)
C18E C 0.5000 0.0000 0.52491(9)
C19E C 0.46180(10) 0.0000 0.59464(8)
H11E H 0.4347 0.0000 0.6098
C20E C 0.46201(11) 0.0000 0.54817(8)
H12E H 0.4350 0.0000 0.5329
O5F O 0.53707(5) 0.0000 0.31367(4)
C19F C 0.53820(10) 0.0000 0.40536(8)
H11F H 0.5653 0.0000 0.3902
C20F C 0.53799(11) 0.0000 0.45183(8)
H12F H 0.5650 0.0000 0.4671
O5G O 0.53707(5) 0.0000 0.68633(4)
C19G C 0.53820(10) 0.0000 0.59464(8)
H11G H 0.5653 0.0000 0.6098
C20G C 0.53799(11) 0.0000 0.54817(8)
H12G H 0.5650 0.0000 0.5329
Zn1E Zn 0.5000 -0.05332(2) -0.17736(2)
Zn2E Zn 0.44672(2) 0.0000 -0.25139(2)
O1E O 0.5000 -0.0000 -0.21437(4)
O2E_2 O 0.41086(3) -0.05275(3) -0.24117(3)
O3E_2 O 0.44736(3) -0.08913(3) -0.18763(3)
C3E_2 C 0.41567(4) -0.08455(4) -0.21429(4)
C5E_2 C 0.34721(5) -0.11982(5) -0.24628(5)
H1E_2 H 0.3464 -0.0976 -0.2679
C6E_2 C 0.31527(6) -0.18649(6) -0.21346(6)
C8E_2 C 0.31511(5) -0.15306(5) -0.24590(5)
C9E_2 C 0.38049(5) -0.11991(5) -0.21426(5)
C10E_2 C 0.38100(6) -0.15313(6) -0.18204(6)
H3E_2 H 0.4034 -0.1533 -0.1606
C11E_2 C 0.25438(6) -0.20046(5) -0.26041(6)
C13E_2 C 0.27642(5) -0.21652(6) -0.22228(6)
C14E_2 C 0.34861(6) -0.18609(6) -0.18132(6)
H4E_2 H 0.3492 -0.2080 -0.1593
C15E_2 C 0.27712(6) -0.15846(6) -0.27862(6)
C16E_2 C 0.24719(7) -0.11727(6) -0.27607(8)
H5E_2 H 0.2389 -0.1120 -0.2456
H6E_2 H 0.2208 -0.1221 -0.2936
H7E_2 H 0.2630 -0.0918 -0.2874
C17E_2 C 0.29719(7) -0.16633(8) -0.32511(6)
H8E_2 H 0.3122 -0.1397 -0.3349
H9E_2 H 0.2738 -0.1737 -0.3457
H10E_2 H 0.3182 -0.1905 -0.3237
O2J_2 O 0.24117(3) -0.41086(3) -0.05275(3)
O3J_2 O 0.18763(3) -0.44736(3) -0.08913(3)
C3J_2 C 0.21429(4) -0.41567(4) -0.08455(4)
C5J_2 C 0.24628(5) -0.34721(5) -0.11982(5)
H1J_2 H 0.2679 -0.3464 -0.0976
C6J_2 C 0.21346(6) -0.31527(6) -0.18649(6)
C8J_2 C 0.24590(5) -0.31511(5) -0.15306(5)
C9J_2 C 0.21426(5) -0.38049(5) -0.11991(5)
C10J_2 C 0.18204(6) -0.38100(6) -0.15313(6)
H3J_2 H 0.1606 -0.4034 -0.1533
C11J_2 C 0.26041(6) -0.25438(6) -0.20046(5)
C13J_2 C 0.22228(6) -0.27642(5) -0.21652(6)
C14J_2 C 0.18132(6) -0.34861(6) -0.18609(6)
H4J_2 H 0.1593 -0.3492 -0.2080
C15J_2 C 0.27862(6) -0.27712(6) -0.15846(6)
C16J_2 C 0.27607(8) -0.24719(7) -0.11727(6)
H5J_2 H 0.2456 -0.2389 -0.1120
H6J_2 H 0.2936 -0.2208 -0.1221
H7J_2 H 0.2874 -0.2630 -0.0918
C17J_2 C 0.32511(6) -0.29719(7) -0.16633(8)
H8J_2 H 0.3349 -0.3122 -0.1397
H9J_2 H 0.3457 -0.2738 -0.1737
H10J_2 H 0.3237 -0.3182 -0.1905
O2C_2 O 0.05275(3) -0.24117(3) -0.41086(3)
O3C_2 O 0.08913(3) -0.18763(3) -0.44736(3)
C3C_2 C 0.08455(4) -0.21429(4) -0.41567(4)
C5C_2 C 0.11982(5) -0.24628(5) -0.34721(5)
H1C_2 H 0.0976 -0.2679 -0.3464
C6C_2 C 0.18649(6) -0.21346(6) -0.31527(6)
C8C_2 C 0.15306(5) -0.24590(5) -0.31511(5)
C9C_2 C 0.11991(5) -0.21426(5) -0.38049(5)
C10C_2 C 0.15313(6) -0.18204(6) -0.38100(6)
H3C_2 H 0.1533 -0.1606 -0.4034
C11C_2 C 0.20046(5) -0.26041(6) -0.25438(6)
C13C_2 C 0.21652(6) -0.22228(6) -0.27642(5)
C14C_2 C 0.18609(6) -0.18132(6) -0.34861(6)
H4C_2 H 0.2080 -0.1593 -0.3492
C15C_2 C 0.15846(6) -0.27862(6) -0.27712(6)
C16C_2 C 0.11727(6) -0.27607(8) -0.24719(7)
H5C_2 H 0.1120 -0.2456 -0.2389
H6C_2 H 0.1221 -0.2936 -0.2208
H7C_2 H 0.0918 -0.2874 -0.2630
C17C_2 C 0.16633(8) -0.32511(6) -0.29719(7)
H8C_2 H 0.1397 -0.3349 -0.3122
H9C_2 H 0.1737 -0.3457 -0.2738
H10C_2 H 0.1905 -0.3237 -0.3182
Zn1E_2 Zn 0.5000 0.94668(2) 0.82264(2)
Zn2E_2 Zn 0.44672(2) 1.0000 0.74861(2)
O1E_2 O 0.5000 1.0000 0.78563(4)
Zn1F Zn -0.5000 -0.05332(2) 0.17736(2)
Zn2F Zn -0.44672(2) -0.0000 0.25139(2)
Zn1G Zn 0.5000 0.05332(2) 0.82264(2)
Zn2G Zn 0.55328(2) 0.0000 0.74861(2)
O2G O 0.58914(3) 0.05275(3) 0.75883(3)
O3G O 0.55264(3) 0.08913(3) 0.81237(3)
C3G C 0.58433(4) 0.08455(4) 0.78571(4)
C5G C 0.65279(5) 0.11982(5) 0.75372(5)
H1G H 0.6536 0.0976 0.7321
C6G C 0.68473(6) 0.18649(6) 0.78654(6)
C8G C 0.68489(5) 0.15306(5) 0.75410(5)
C9G C 0.61951(5) 0.11991(5) 0.78574(5)
C10G C 0.61900(6) 0.15313(6) 0.81796(6)
H3G H 0.5966 0.1533 0.8394
C11G C 0.74562(6) 0.20046(5) 0.73959(6)
C13G C 0.72358(5) 0.21652(6) 0.77772(6)
C14G C 0.65139(6) 0.18609(6) 0.81868(6)
H4G H 0.6508 0.2080 0.8407
C15G C 0.72288(6) 0.15846(6) 0.72138(6)
C16G C 0.75281(7) 0.11727(6) 0.72393(8)
H5G H 0.7611 0.1120 0.7544
H6G H 0.7792 0.1221 0.7064
H7G H 0.7370 0.0918 0.7126
C17G C 0.70281(7) 0.16633(8) 0.67489(6)
H8G H 0.6878 0.1397 0.6651
H9G H 0.7262 0.1737 0.6543
H10G H 0.6818 0.1905 0.6763
O2I O 0.75883(3) 0.41086(3) 0.94725(3)
O3I O 0.81237(3) 0.44736(3) 0.91087(3)
C3I C 0.78571(4) 0.41567(4) 0.91545(4)
C5I C 0.75372(5) 0.34721(5) 0.88018(5)
H1I H 0.7321 0.3464 0.9024
C6I C 0.78654(6) 0.31527(6) 0.81351(6)
C8I C 0.75410(5) 0.31511(5) 0.84694(5)
C9I C 0.78574(5) 0.38049(5) 0.88009(5)
C10I C 0.81796(6) 0.38100(6) 0.84687(6)
H3I H 0.8394 0.4034 0.8467
C11I C 0.73959(6) 0.25438(6) 0.79954(5)
C13I C 0.77772(6) 0.27642(5) 0.78348(6)
C14I C 0.81868(6) 0.34861(6) 0.81391(6)
H4I H 0.8407 0.3492 0.7920
C15I C 0.72138(6) 0.27712(6) 0.84154(6)
C16I C 0.72393(8) 0.24719(7) 0.88273(6)
H5I H 0.7544 0.2389 0.8880
H6I H 0.7064 0.2208 0.8779
H7I H 0.7126 0.2630 0.9082
C17I C 0.67489(6) 0.29719(7) 0.83367(8)
H8I H 0.6651 0.3122 0.8603
H9I H 0.6543 0.2738 0.8263
H10I H 0.6763 0.3182 0.8095
O2B O 0.94725(3) 0.24117(3) 0.58914(3)
O3B O 0.91087(3) 0.18763(3) 0.55264(3)
C3B C 0.91545(4) 0.21429(4) 0.58433(4)
C5B C 0.88018(5) 0.24628(5) 0.65279(5)
H1B H 0.9024 0.2679 0.6536
C6B C 0.81351(6) 0.21346(6) 0.68473(6)
C8B C 0.84694(5) 0.24590(5) 0.68489(5)
C9B C 0.88009(5) 0.21426(5) 0.61951(5)
C10B C 0.84687(6) 0.18204(6) 0.61900(6)
H3B H 0.8467 0.1606 0.5966
C11B C 0.79954(5) 0.26041(6) 0.74562(6)
C13B C 0.78348(6) 0.22228(6) 0.72358(5)
C14B C 0.81391(6) 0.18132(6) 0.65139(6)
H4B H 0.7920 0.1593 0.6508
C15B C 0.84154(6) 0.27862(6) 0.72288(6)
C16B C 0.88273(6) 0.27607(8) 0.75281(7)
H5B H 0.8880 0.2456 0.7611
H6B H 0.8779 0.2936 0.7792
H7B H 0.9082 0.2874 0.7370
C17B C 0.83367(8) 0.32511(6) 0.70281(7)
H8B H 0.8603 0.3349 0.6878
H9B H 0.8263 0.3457 0.7262
H10B H 0.8095 0.3237 0.6818
Zn1H Zn 0.17736(2) 0.5000 0.05332(2)
Zn2H Zn 0.25139(2) 0.44672(2) 0.0000
O2M O 0.05275(3) 0.24117(3) 0.58914(3)
O3M O 0.08913(3) 0.18763(3) 0.55264(3)
C3M C 0.08455(4) 0.21429(4) 0.58433(4)
C5M C 0.11982(5) 0.24628(5) 0.65279(5)
H1M H 0.0976 0.2679 0.6536
C6M C 0.18649(6) 0.21346(6) 0.68473(6)
C8M C 0.15306(5) 0.24590(5) 0.68489(5)
C9M C 0.11991(5) 0.21426(5) 0.61951(5)
C10M C 0.15313(6) 0.18204(6) 0.61900(6)
H3M H 0.1533 0.1606 0.5966
C11M C 0.20046(5) 0.26041(6) 0.74562(6)
C13M C 0.21652(6) 0.22228(6) 0.72358(5)
C14M C 0.18609(6) 0.18132(6) 0.65139(6)
H4M H 0.2080 0.1593 0.6508
C15M C 0.15846(6) 0.27862(6) 0.72288(6)
C16M C 0.11727(6) 0.27607(8) 0.75281(7)
H5M H 0.1120 0.2456 0.7611
H6M H 0.1221 0.2936 0.7792
H7M H 0.0918 0.2874 0.7370
C17M C 0.16633(8) 0.32511(6) 0.70281(7)
H8M H 0.1397 0.3349 0.6878
H9M H 0.1737 0.3457 0.7262
H10M H 0.1905 0.3237 0.6818
O2R O 0.41086(3) 0.05275(3) 0.75883(3)
O3R O 0.44736(3) 0.08913(3) 0.81237(3)
C3R C 0.41567(4) 0.08455(4) 0.78571(4)
C5R C 0.34721(5) 0.11982(5) 0.75372(5)
H1R H 0.3464 0.0976 0.7321
C6R C 0.31527(6) 0.18649(6) 0.78654(6)
C8R C 0.31511(5) 0.15306(5) 0.75410(5)
C9R C 0.38049(5) 0.11991(5) 0.78574(5)
C10R C 0.38100(6) 0.15313(6) 0.81796(6)
H3R H 0.4034 0.1533 0.8394
C11R C 0.25438(6) 0.20046(5) 0.73959(6)
C13R C 0.27642(5) 0.21652(6) 0.77772(6)
C14R C 0.34861(6) 0.18609(6) 0.81868(6)
H4R H 0.3492 0.2080 0.8407
C15R C 0.27712(6) 0.15846(6) 0.72138(6)
C16R C 0.24719(7) 0.11727(6) 0.72393(8)
H5R H 0.2389 0.1120 0.7544
H6R H 0.2208 0.1221 0.7064
H7R H 0.2630 0.0918 0.7126
C17R C 0.29719(7) 0.16633(8) 0.67489(6)
H8R H 0.3122 0.1397 0.6651
H9R H 0.2738 0.1737 0.6543
H10R H 0.3182 0.1905 0.6763
O2W O 0.24117(3) 0.41086(3) 0.94725(3)
O3W O 0.18763(3) 0.44736(3) 0.91087(3)
C3W C 0.21429(4) 0.41567(4) 0.91545(4)
C5W C 0.24628(5) 0.34721(5) 0.88018(5)
H1W H 0.2679 0.3464 0.9024
C6W C 0.21346(6) 0.31527(6) 0.81351(6)
C8W C 0.24590(5) 0.31511(5) 0.84694(5)
C9W C 0.21426(5) 0.38049(5) 0.88009(5)
C10W C 0.18204(6) 0.38100(6) 0.84687(6)
H3W H 0.1606 0.4034 0.8467
C11W C 0.26041(6) 0.25438(6) 0.79954(5)
C13W C 0.22228(6) 0.27642(5) 0.78348(6)
C14W C 0.18132(6) 0.34861(6) 0.81391(6)
H4W H 0.1593 0.3492 0.7920
C15W C 0.27862(6) 0.27712(6) 0.84154(6)
C16W C 0.27607(8) 0.24719(7) 0.88273(6)
H5W H 0.2456 0.2389 0.8880
H6W H 0.2936 0.2208 0.8779
H7W H 0.2874 0.2630 0.9082
C17W C 0.32511(6) 0.29719(7) 0.83367(8)
H8W H 0.3349 0.3122 0.8603
H9W H 0.3457 0.2738 0.8263
H10W H 0.3237 0.3182 0.8095
O2O O -0.05275(3) 0.24117(3) 0.41086(3)
O3O O -0.08913(3) 0.18763(3) 0.44736(3)
C3O C -0.08455(4) 0.21429(4) 0.41567(4)
C5O C -0.11982(5) 0.24628(5) 0.34721(5)
H1O H -0.0976 0.2679 0.3464
C6O C -0.18649(6) 0.21346(6) 0.31527(6)
C8O C -0.15306(5) 0.24590(5) 0.31511(5)
C9O C -0.11991(5) 0.21426(5) 0.38049(5)
C10O C -0.15313(6) 0.18204(6) 0.38100(6)
H3O H -0.1533 0.1606 0.4034
C11O C -0.20046(5) 0.26041(6) 0.25438(6)
C13O C -0.21652(6) 0.22228(6) 0.27642(5)
C14O C -0.18609(6) 0.18132(6) 0.34861(6)
H4O H -0.2080 0.1593 0.3492
C15O C -0.15846(6) 0.27862(6) 0.27712(6)
C16O C -0.11727(6) 0.27607(8) 0.24719(7)
H5O H -0.1120 0.2456 0.2389
H6O H -0.1221 0.2936 0.2208
H7O H -0.0918 0.2874 0.2630
C17O C -0.16633(8) 0.32511(6) 0.29719(7)
H8O H -0.1397 0.3349 0.3122
H9O H -0.1737 0.3457 0.2738
H10O H -0.1905 0.3237 0.3182
O2Q O -0.41086(3) 0.05275(3) 0.24117(3)
O3Q O -0.44736(3) 0.08913(3) 0.18763(3)
C3Q C -0.41567(4) 0.08455(4) 0.21429(4)
C5Q C -0.34721(5) 0.11982(5) 0.24628(5)
H1Q H -0.3464 0.0976 0.2679
C6Q C -0.31527(6) 0.18649(6) 0.21346(6)
C8Q C -0.31511(5) 0.15306(5) 0.24590(5)
C9Q C -0.38049(5) 0.11991(5) 0.21426(5)
C10Q C -0.38100(6) 0.15313(6) 0.18204(6)
H3Q H -0.4034 0.1533 0.1606
C11Q C -0.25438(6) 0.20046(5) 0.26041(6)
C13Q C -0.27642(5) 0.21652(6) 0.22228(6)
C14Q C -0.34861(6) 0.18609(6) 0.18132(6)
H4Q H -0.3492 0.2080 0.1593
C15Q C -0.27712(6) 0.15846(6) 0.27862(6)
C16Q C -0.24719(7) 0.11727(6) 0.27607(8)
H5Q H -0.2389 0.1120 0.2456
H6Q H -0.2208 0.1221 0.2936
H7Q H -0.2630 0.0918 0.2874
C17Q C -0.29719(7) 0.16633(8) 0.32511(6)
H8Q H -0.3122 0.1397 0.3349
H9Q H -0.2738 0.1737 0.3457
H10Q H -0.3182 0.1905 0.3237
O2V O -0.24117(3) 0.41086(3) 0.05275(3)
O3V O -0.18763(3) 0.44736(3) 0.08913(3)
C3V C -0.21429(4) 0.41567(4) 0.08455(4)
C5V C -0.24628(5) 0.34721(5) 0.11982(5)
H1V H -0.2679 0.3464 0.0976
C6V C -0.21346(6) 0.31527(6) 0.18649(6)
C8V C -0.24590(5) 0.31511(5) 0.15306(5)
C9V C -0.21426(5) 0.38049(5) 0.11991(5)
C10V C -0.18204(6) 0.38100(6) 0.15313(6)
H3V H -0.1606 0.4034 0.1533
C11V C -0.26041(6) 0.25438(6) 0.20046(5)
C13V C -0.22228(6) 0.27642(5) 0.21652(6)
C14V C -0.18132(6) 0.34861(6) 0.18609(6)
H4V H -0.1593 0.3492 0.2080
C15V C -0.27862(6) 0.27712(6) 0.15846(6)
C16V C -0.27607(8) 0.24719(7) 0.11727(6)
H5V H -0.2456 0.2389 0.1120
H6V H -0.2936 0.2208 0.1221
H7V H -0.2874 0.2630 0.0918
C17V C -0.32511(6) 0.29719(7) 0.16633(8)
H8V H -0.3349 0.3122 0.1397
H9V H -0.3457 0.2738 0.1737
H10V H -0.3237 0.3182 0.1905
O2L O -0.05275(3) -0.24117(3) 0.58914(3)
O3L O -0.08913(3) -0.18763(3) 0.55264(3)
C3L C -0.08455(4) -0.21429(4) 0.58433(4)
C5L C -0.11982(5) -0.24628(5) 0.65279(5)
H1L H -0.0976 -0.2679 0.6536
C6L C -0.18649(6) -0.21346(6) 0.68473(6)
C8L C -0.15306(5) -0.24590(5) 0.68489(5)
C9L C -0.11991(5) -0.21426(5) 0.61951(5)
C10L C -0.15313(6) -0.18204(6) 0.61900(6)
H3L H -0.1533 -0.1606 0.5966
C11L C -0.20046(5) -0.26041(6) 0.74562(6)
C13L C -0.21652(6) -0.22228(6) 0.72358(5)
C14L C -0.18609(6) -0.18132(6) 0.65139(6)
H4L H -0.2080 -0.1593 0.6508
C15L C -0.15846(6) -0.27862(6) 0.72288(6)
C16L C -0.11727(6) -0.27607(8) 0.75281(7)
H5L H -0.1120 -0.2456 0.7611
H6L H -0.1221 -0.2936 0.7792
H7L H -0.0918 -0.2874 0.7370
C17L C -0.16633(8) -0.32511(6) 0.70281(7)
H8L H -0.1397 -0.3349 0.6878
H9L H -0.1737 -0.3457 0.7262
H10L H -0.1905 -0.3237 0.6818
O2P O -0.41086(3) -0.05275(3) 0.75883(3)
O3P O -0.44736(3) -0.08913(3) 0.81237(3)
C3P C -0.41567(4) -0.08455(4) 0.78571(4)
C5P C -0.34721(5) -0.11982(5) 0.75372(5)
H1P H -0.3464 -0.0976 0.7321
C6P C -0.31527(6) -0.18649(6) 0.78654(6)
C8P C -0.31511(5) -0.15306(5) 0.75410(5)
C9P C -0.38049(5) -0.11991(5) 0.78574(5)
C10P C -0.38100(6) -0.15313(6) 0.81796(6)
H3P H -0.4034 -0.1533 0.8394
C11P C -0.25438(6) -0.20046(5) 0.73959(6)
C13P C -0.27642(5) -0.21652(6) 0.77772(6)
C14P C -0.34861(6) -0.18609(6) 0.81868(6)
H4P H -0.3492 -0.2080 0.8407
C15P C -0.27712(6) -0.15846(6) 0.72138(6)
C16P C -0.24719(7) -0.11727(6) 0.72393(8)
H5P H -0.2389 -0.1120 0.7544
H6P H -0.2208 -0.1221 0.7064
H7P H -0.2630 -0.0918 0.7126
C17P C -0.29719(7) -0.16633(8) 0.67489(6)
H8P H -0.3122 -0.1397 0.6651
H9P H -0.2738 -0.1737 0.6543
H10P H -0.3182 -0.1905 0.6763
O2T O -0.24117(3) -0.41086(3) 0.94725(3)
O3T O -0.18763(3) -0.44736(3) 0.91087(3)
C3T C -0.21429(4) -0.41567(4) 0.91545(4)
C5T C -0.24628(5) -0.34721(5) 0.88018(5)
H1T H -0.2679 -0.3464 0.9024
C6T C -0.21346(6) -0.31527(6) 0.81351(6)
C8T C -0.24590(5) -0.31511(5) 0.84694(5)
C9T C -0.21426(5) -0.38049(5) 0.88009(5)
C10T C -0.18204(6) -0.38100(6) 0.84687(6)
H3T H -0.1606 -0.4034 0.8467
C11T C -0.26041(6) -0.25438(6) 0.79954(5)
C13T C -0.22228(6) -0.27642(5) 0.78348(6)
C14T C -0.18132(6) -0.34861(6) 0.81391(6)
H4T H -0.1593 -0.3492 0.7920
C15T C -0.27862(6) -0.27712(6) 0.84154(6)
C16T C -0.27607(8) -0.24719(7) 0.88273(6)
H5T H -0.2456 -0.2389 0.8880
H6T H -0.2936 -0.2208 0.8779
H7T H -0.2874 -0.2630 0.9082
C17T C -0.32511(6) -0.29719(7) 0.83367(8)
H8T H -0.3349 -0.3122 0.8603
H9T H -0.3457 -0.2738 0.8263
H10T H -0.3237 -0.3182 0.8095
Zn1_2 Zn 0.05332(2) 1.17736(2) 0.5000
Zn1B_2 Zn -0.05332(2) 1.17736(2) 0.5000
Zn1B_3 Zn 0.94668(2) 0.17736(2) 0.5000
Zn1C_3 Zn 0.05332(2) -0.17736(2) -0.5000
Zn1D_2 Zn -0.5000 0.05332(2) 0.17736(2)
Zn1E_3 Zn -0.5000 -0.05332(2) 0.82264(2)
Zn1F_2 Zn 0.5000 -0.05332(2) 0.17736(2)
Zn1G_2 Zn 0.5000 0.05332(2) -0.17736(2)
Zn1G_3 Zn 0.5000 1.05332(2) 0.82264(2)
Zn1I Zn -0.17736(2) -0.5000 0.94668(2)
Zn1I_2 Zn 0.82264(2) 0.5000 0.94668(2)
Zn1J Zn 0.17736(2) -0.5000 -0.05332(2)
Zn1J_2 Zn 0.17736(2) 0.5000 0.94668(2)
Zn1K Zn -0.17736(2) -0.5000 0.05332(2)
Zn1K_2 Zn -0.17736(2) 0.5000 0.05332(2)
Zn2_2 Zn 0.0000 -0.74861(2) 0.44672(2)
Zn2B_2 Zn 0.0000 -0.74861(2) 0.55328(2)
Zn2B_3 Zn 1.0000 0.25139(2) 0.55328(2)
Zn2C_3 Zn -0.0000 -0.25139(2) -0.44672(2)
Zn2E_3 Zn 0.44672(2) 0.0000 0.74861(2)
Zn2F_2 Zn 0.55328(2) -0.0000 0.25139(2)
Zn2G_2 Zn -0.44672(2) 0.0000 0.74861(2)
Zn2G_3 Zn 0.55328(2) 0.0000 -0.25139(2)
Zn2G_4 Zn 0.55328(2) 1.0000 0.74861(2)
Zn2H_2 Zn 0.25139(2) 0.44672(2) 1.0000
Zn2I Zn -0.25139(2) 0.44672(2) 0.0000
Zn2I_2 Zn 0.74861(2) 0.44672(2) 1.0000
Zn2J Zn 0.25139(2) -0.44672(2) 0.0000
Zn2J_2 Zn 0.25139(2) 0.55328(2) 1.0000
Zn2K Zn -0.25139(2) -0.44672(2) 0.0000
Zn2K_2 Zn -0.25139(2) -0.44672(2) 1.0000
O1D_2 O -0.5000 0.0000 0.21437(4)
O1E_3 O 0.5000 0.0000 0.78563(4)
O1H O 0.21437(4) 0.5000 0.0000
O2A_2 O -0.05275(3) 0.75883(3) 0.41086(3)
O2B_2 O -0.05275(3) 0.24117(3) 0.58914(3)
O2C_3 O 0.05275(3) -0.24117(3) 0.58914(3)
O2L_2 O -0.05275(3) 0.75883(3) 0.58914(3)
O2N O 0.05275(3) -0.24117(3) 0.41086(3)
O2N_2 O 0.05275(3) 0.75883(3) 0.41086(3)
O2P_2 O 0.58914(3) -0.05275(3) 0.75883(3)
O2R_2 O 0.41086(3) 0.05275(3) -0.24117(3)
O2R_3 O 0.41086(3) 1.05275(3) 0.75883(3)
O2S O 0.41086(3) -0.05275(3) 0.24117(3)
O2W_2 O 0.24117(3) 0.41086(3) -0.05275(3)
O3A_2 O -0.08913(3) 0.81237(3) 0.44736(3)
O3B_2 O -0.08913(3) 0.18763(3) 0.55264(3)
O3C_3 O 0.08913(3) -0.18763(3) 0.55264(3)
O3L_2 O -0.08913(3) 0.81237(3) 0.55264(3)
O3N O 0.08913(3) -0.18763(3) 0.44736(3)
O3N_2 O 0.08913(3) 0.81237(3) 0.44736(3)
O3P_2 O 0.55264(3) -0.08913(3) -0.18763(3)
O3P_3 O 0.55264(3) 0.91087(3) 0.81237(3)
O3Q_2 O 0.55264(3) 0.08913(3) 0.18763(3)
O3S O -0.55264(3) -0.08913(3) 0.18763(3)
O3U O 0.18763(3) 0.55264(3) 0.08913(3)
O4E_2 O 0.5000 0.96291(4) 0.88507(4)
O4F_2 O -0.5000 -0.03709(4) 0.11493(4)
O4G_2 O 0.5000 0.03709(4) 0.88507(4)
O4H O 0.11493(4) 0.5000 0.03709(4)
O5E_2 O 0.46293(5) -0.0000 -0.31367(4)
O5E_3 O 0.46293(5) 1.0000 0.68633(4)
O5F_2 O -0.46293(5) 0.0000 0.31367(4)
O5H O 0.31367(4) 0.46293(5) 0.0000
loop_
_geom_bond_atom_site_label_1
_geom_bond_atom_site_label_2
_geom_bond_site_symmetry_1
_geom_bond_site_symmetry_2
Zn1 O1 1_555 1_555
Zn2 O1 1_555 1_555
O1 Zn1B 1_555 1_555
O2 Zn2 1_555 1_555
O3 Zn1 1_555 1_555
O4 Zn1 1_555 1_555
C1 O4 1_555 1_555
C2 O5 1_555 1_555
O5 Zn2 1_555 1_555
C3 O2 1_555 1_555
C4 C1 1_555 1_555
C5 H1 1_555 1_555
C6 C8 1_555 1_555
C7 C4 1_555 1_555
H2 C7 1_555 1_555
C8 C5 1_555 1_555
C9 C3 1_555 1_555
C10 C9 1_555 1_555
H3 C10 1_555 1_555
C11 C13 1_555 1_555
C12 C2 1_555 1_555
C13 C6 1_555 1_555
C14 C6 1_555 1_555
H4 C14 1_555 1_555
C15 C8 1_555 1_555
C16 C15 1_555 1_555
H5 C16 1_555 1_555
H6 C16 1_555 1_555
H7 C16 1_555 1_555
C17 C15 1_555 1_555
H8 C17 1_555 1_555
H9 C17 1_555 1_555
H10 C17 1_555 1_555
C18 C20 1_555 1_555
C19 C12 1_555 1_555
H11 C19 1_555 1_555
C20 C19 1_555 1_555
H12 C20 1_555 1_555
O2D C3D 1_555 1_555
O3D C3D 1_555 1_555
C3D C9D 1_555 1_555
C5D H1D 1_555 1_555
C6D C8D 1_555 1_555
C8D C5D 1_555 1_555
C9D C5D 1_555 1_555
C10D C9D 1_555 1_555
H3D C10D 1_555 1_555
C11D C13 1_555 1_555
C13D C6D 1_555 1_555
C14D C6D 1_555 1_555
H4D C14D 1_555 1_555
C15D C8D 1_555 1_555
C16D C15D 1_555 1_555
H5D C16D 1_555 1_555
H6D C16D 1_555 1_555
H7D C16D 1_555 1_555
C17D C15D 1_555 1_555
H8D C17D 1_555 1_555
H9D C17D 1_555 1_555
H10D C17D 1_555 1_555
O2H C3H 1_555 1_555
O3H C3H 1_555 1_555
C3H C9H 1_555 1_555
C5H H1H 1_555 1_555
C6H C8H 1_555 1_555
C8H C5H 1_555 1_555
C9H C5H 1_555 1_555
C10H C9H 1_555 1_555
H3H C10H 1_555 1_555
C11H C13D 1_555 1_555
C13H C11 1_555 1_555
C14H C6H 1_555 1_555
H4H C14H 1_555 1_555
C15H C8H 1_555 1_555
C16H C15H 1_555 1_555
H5H C16H 1_555 1_555
H6H C16H 1_555 1_555
H7H C16H 1_555 1_555
C17H C15H 1_555 1_555
H8H C17H 1_555 1_555
H9H C17H 1_555 1_555
H10H C17H 1_555 1_555
O4B C1 1_555 1_555
C7B C4 1_555 1_555
H2B C7B 1_555 1_555
O4C C1A 1_555 1_555
C1A C4A 1_555 1_555
C4A C7C 1_555 1_555
C7C C7 1_555 1_555
H2C C7C 1_555 1_555
O4A C1A 1_555 1_555
C7A C7B 1_555 1_555
H2A C7A 1_555 1_555
C2A O5A 1_555 1_555
O5A Zn2A_2 1_555 1_555
C12A C2A 1_555 1_555
C18A C18 1_555 1_555
C19A C12A 1_555 1_555
H11A C19A 1_555 1_555
C20A C18A 1_555 1_555
H12A C20A 1_555 1_555
O5B C2 1_555 1_555
C19B C12 1_555 1_555
H11B C19B 1_555 1_555
C20B C18 1_555 1_555
H12B C20B 1_555 1_555
O5C C2A 1_555 1_555
C19C C12A 1_555 1_555
H11C C19C 1_555 1_555
C20C C18A 1_555 1_555
H12C C20C 1_555 1_555
Zn1A O4A 1_555 1_555
Zn2A O1A 1_555 1_555
O1A Zn1A 1_555 1_555
O2A Zn2A 1_555 1_555
O3A Zn1A 1_555 1_555
C2A_2 O5A_2 1_555 1_555
O5A_2 Zn2A 1_555 1_555
C3A O2A 1_555 1_555
C5A H1A 1_555 1_555
C6A C8A 1_555 1_555
C8A C5A 1_555 1_555
C9A C3A 1_555 1_555
C10A C9A 1_555 1_555
H3A C10A 1_555 1_555
C11A C13A 1_555 1_555
C12A_2 C2A_2 1_555 1_555
C13A C6A 1_555 1_555
C14A C6A 1_555 1_555
H4A C14A 1_555 1_555
C15A C8A 1_555 1_555
C16A C15A 1_555 1_555
H5A C16A 1_555 1_555
H6A C16A 1_555 1_555
H7A C16A 1_555 1_555
C17A C15A 1_555 1_555
H8A C17A 1_555 1_555
H9A C17A 1_555 1_555
H10A C17A 1_555 1_555
C18A_2 C20A_2 1_555 1_555
C19A_2 C12A_2 1_555 1_555
H11A_2 C19A_2 1_555 1_555
C20A_2 C19A_2 1_555 1_555
H12A_2 C20A_2 1_555 1_555
O2F C3F 1_555 1_555
O3F C3F 1_555 1_555
C3F C9F 1_555 1_555
C5F H1F 1_555 1_555
C6F C8F 1_555 1_555
C8F C5F 1_555 1_555
C9F C5F 1_555 1_555
C10F C9F 1_555 1_555
H3F C10F 1_555 1_555
C11F C13A 1_555 1_555
C13F C6F 1_555 1_555
C14F C6F 1_555 1_555
H4F C14F 1_555 1_555
C15F C8F 1_555 1_555
C16F C15F 1_555 1_555
H5F C16F 1_555 1_555
H6F C16F 1_555 1_555
H7F C16F 1_555 1_555
C17F C15F 1_555 1_555
H8F C17F 1_555 1_555
H9F C17F 1_555 1_555
H10F C17F 1_555 1_555
O2K C3K 1_555 1_555
O3K C3K 1_555 1_555
C3K C9K 1_555 1_555
C5K H1K 1_555 1_555
C6K C8K 1_555 1_555
C8K C5K 1_555 1_555
C9K C5K 1_555 1_555
C10K C9K 1_555 1_555
H3K C10K 1_555 1_555
C11K C13F 1_555 1_555
C13K C11A 1_555 1_555
C14K C6K 1_555 1_555
H4K C14K 1_555 1_555
C15K C8K 1_555 1_555
C16K C15K 1_555 1_555
H5K C16K 1_555 1_555
H6K C16K 1_555 1_555
H7K C16K 1_555 1_555
C17K C15K 1_555 1_555
H8K C17K 1_555 1_555
H9K C17K 1_555 1_555
H10K C17K 1_555 1_555
C2_2 O5_2 1_555 1_555
O5_2 Zn2_2 1_555 1_555
C12_2 C2_2 1_555 1_555
C18_2 C18A_2 1_555 1_555
C19_2 C12_2 1_555 1_555
H11_2 C19_2 1_555 1_555
C20_2 C18_2 1_555 1_555
H12_2 C20_2 1_555 1_555
O5C_2 C2A_2 1_555 1_555
C19C_2 C12A_2 1_555 1_555
H11C_2 C19C_2 1_555 1_555
C20C_2 C18A_2 1_555 1_555
H12C_2 C20C_2 1_555 1_555
O5B_2 C2_2 1_555 1_555
C19B_2 C12_2 1_555 1_555
H11B_2 C19B_2 1_555 1_555
C20B_2 C18_2 1_555 1_555
H12B_2 C20B_2 1_555 1_555
Zn1A_2 O1A_2 1_555 1_555
Zn2A_2 O1A_2 1_555 1_555
O1A_2 Zn1C_2 1_555 1_555
O4A_2 Zn1A_2 1_555 1_555
C1A_2 O4A_2 1_555 1_555
C4A_2 C1A_2 1_555 1_555
C7A_2 C4A_2 1_555 1_555
H2A_2 C7A_2 1_555 1_555
O4C_2 C1A_2 1_555 1_555
C7C_2 C4A_2 1_555 1_555
H2C_2 C7C_2 1_555 1_555
O4B_2 C1_2 1_555 1_555
C1_2 C4_2 1_555 1_555
C4_2 C7B_2 1_555 1_555
C7B_2 C7A_2 1_555 1_555
H2B_2 C7B_2 1_555 1_555
O4_2 C1_2 1_555 1_555
C7_2 C7C_2 1_555 1_555
H2_2 C7_2 1_555 1_555
Zn1B O4B 1_555 1_555
Zn2B O1 1_555 1_555
Zn1C O4C 1_555 1_555
Zn2C O1A 1_555 1_555
Zn1C_2 O4C_2 1_555 1_555
Zn2C_2 O5C 1_555 1_555
O2C Zn2C_2 1_555 1_555
O3C Zn1C_2 1_555 1_555
C3C O2C 1_555 1_555
C5C H1C 1_555 1_555
C6C C8C 1_555 1_555
C8C C5C 1_555 1_555
C9C C3C 1_555 1_555
C10C C9C 1_555 1_555
H3C C10C 1_555 1_555
C11C C13C 1_555 1_555
C13C C6C 1_555 1_555
C14C C6C 1_555 1_555
H4C C14C 1_555 1_555
C15C C8C 1_555 1_555
C16C C15C 1_555 1_555
H5C C16C 1_555 1_555
H6C C16C 1_555 1_555
H7C C16C 1_555 1_555
C17C C15C 1_555 1_555
H8C C17C 1_555 1_555
H9C C17C 1_555 1_555
H10C C17C 1_555 1_555
O2E C3E 1_555 1_555
O3E C3E 1_555 1_555
C3E C9E 1_555 1_555
C5E H1E 1_555 1_555
C6E C8E 1_555 1_555
C8E C5E 1_555 1_555
C9E C5E 1_555 1_555
C10E C9E 1_555 1_555
H3E C10E 1_555 1_555
C11E C13C 1_555 1_555
C13E C6E 1_555 1_555
C14E C6E 1_555 1_555
H4E C14E 1_555 1_555
C15E C8E 1_555 1_555
C16E C15E 1_555 1_555
H5E C16E 1_555 1_555
H6E C16E 1_555 1_555
H7E C16E 1_555 1_555
C17E C15E 1_555 1_555
H8E C17E 1_555 1_555
H9E C17E 1_555 1_555
H10E C17E 1_555 1_555
O2J C3J 1_555 1_555
O3J C3J 1_555 1_555
C3J C9J 1_555 1_555
C5J H1J 1_555 1_555
C6J C8J 1_555 1_555
C8J C5J 1_555 1_555
C9J C5J 1_555 1_555
C10J C9J 1_555 1_555
H3J C10J 1_555 1_555
C11J C13E 1_555 1_555
C13J C11C 1_555 1_555
C14J C6J 1_555 1_555
H4J C14J 1_555 1_555
C15J C8J 1_555 1_555
C16J C15J 1_555 1_555
H5J C16J 1_555 1_555
H6J C16J 1_555 1_555
H7J C16J 1_555 1_555
C17J C15J 1_555 1_555
H8J C17J 1_555 1_555
H9J C17J 1_555 1_555
H10J C17J 1_555 1_555
Zn1D O3D 1_555 1_555
Zn2D O2D 1_555 1_555
O1D Zn1D 1_555 1_555
O4D Zn1D 1_555 1_555
C1D O4D 1_555 1_555
C2D O5D 1_555 1_555
O5D Zn2D 1_555 1_555
C4D C1D 1_555 1_555
C7D C4D 1_555 1_555
H2D C7D 1_555 1_555
C12D C2D 1_555 1_555
C18D C20D 1_555 1_555
C19D C12D 1_555 1_555
H11D C19D 1_555 1_555
C20D C19D 1_555 1_555
H12D C20D 1_555 1_555
O4F C1D 1_555 1_555
C7F C4D 1_555 1_555
H2F C7F 1_555 1_555
O4G C1E 1_555 1_555
C1E C4E 1_555 1_555
C4E C7G 1_555 1_555
C7G C7D 1_555 1_555
H2G C7G 1_555 1_555
O4E C1E 1_555 1_555
C7E C7F 1_555 1_555
H2E C7E 1_555 1_555
C2E O5E 1_555 1_555
O5E Zn2E_3 1_555 1_555
C12E C2E 1_555 1_555
C18E C18D 1_555 1_555
C19E C12E 1_555 1_555
H11E C19E 1_555 1_555
C20E C18E 1_555 1_555
H12E C20E 1_555 1_555
O5F C2D 1_555 1_555
C19F C12D 1_555 1_555
H11F C19F 1_555 1_555
C20F C18D 1_555 1_555
H12F C20F 1_555 1_555
O5G C2E 1_555 1_555
C19G C12E 1_555 1_555
H11G C19G 1_555 1_555
C20G C18E 1_555 1_555
H12G C20G 1_555 1_555
Zn1E O4E 1_555 1_555
Zn2E O1E 1_555 1_555
O1E Zn1E 1_555 1_555
O2E_2 Zn2E 1_555 1_555
O3E_2 Zn1E 1_555 1_555
C3E_2 O2E_2 1_555 1_555
C5E_2 H1E_2 1_555 1_555
C6E_2 C8E_2 1_555 1_555
C8E_2 C5E_2 1_555 1_555
C9E_2 C3E_2 1_555 1_555
C10E_2 C9E_2 1_555 1_555
H3E_2 C10E_2 1_555 1_555
C11E_2 C13E_2 1_555 1_555
C13E_2 C6E_2 1_555 1_555
C14E_2 C6E_2 1_555 1_555
H4E_2 C14E_2 1_555 1_555
C15E_2 C8E_2 1_555 1_555
C16E_2 C15E_2 1_555 1_555
H5E_2 C16E_2 1_555 1_555
H6E_2 C16E_2 1_555 1_555
H7E_2 C16E_2 1_555 1_555
C17E_2 C15E_2 1_555 1_555
H8E_2 C17E_2 1_555 1_555
H9E_2 C17E_2 1_555 1_555
H10E_2 C17E_2 1_555 1_555
O2J_2 C3J_2 1_555 1_555
O3J_2 C3J_2 1_555 1_555
C3J_2 C9J_2 1_555 1_555
C5J_2 H1J_2 1_555 1_555
C6J_2 C8J_2 1_555 1_555
C8J_2 C5J_2 1_555 1_555
C9J_2 C5J_2 1_555 1_555
C10J_2 C9J_2 1_555 1_555
H3J_2 C10J_2 1_555 1_555
C11J_2 C13E_2 1_555 1_555
C13J_2 C6J_2 1_555 1_555
C14J_2 C6J_2 1_555 1_555
H4J_2 C14J_2 1_555 1_555
C15J_2 C8J_2 1_555 1_555
C16J_2 C15J_2 1_555 1_555
H5J_2 C16J_2 1_555 1_555
H6J_2 C16J_2 1_555 1_555
H7J_2 C16J_2 1_555 1_555
C17J_2 C15J_2 1_555 1_555
H8J_2 C17J_2 1_555 1_555
H9J_2 C17J_2 1_555 1_555
H10J_2 C17J_2 1_555 1_555
O2C_2 C3C_2 1_555 1_555
O3C_2 C3C_2 1_555 1_555
C3C_2 C9C_2 1_555 1_555
C5C_2 H1C_2 1_555 1_555
C6C_2 C8C_2 1_555 1_555
C8C_2 C5C_2 1_555 1_555
C9C_2 C5C_2 1_555 1_555
C10C_2 C9C_2 1_555 1_555
H3C_2 C10C_2 1_555 1_555
C11C_2 C13J_2 1_555 1_555
C13C_2 C11E_2 1_555 1_555
C14C_2 C6C_2 1_555 1_555
H4C_2 C14C_2 1_555 1_555
C15C_2 C8C_2 1_555 1_555
C16C_2 C15C_2 1_555 1_555
H5C_2 C16C_2 1_555 1_555
H6C_2 C16C_2 1_555 1_555
H7C_2 C16C_2 1_555 1_555
C17C_2 C15C_2 1_555 1_555
H8C_2 C17C_2 1_555 1_555
H9C_2 C17C_2 1_555 1_555
H10C_2 C17C_2 1_555 1_555
Zn1E_2 O3E 1_555 1_555
Zn2E_2 O2E 1_555 1_555
O1E_2 Zn1E_2 1_555 1_555
Zn1F O3F 1_555 1_555
Zn2F O2F 1_555 1_555
Zn1G O3G 1_555 1_555
Zn2G O5G 1_555 1_555
O2G Zn2G 1_555 1_555
O3G C3G 1_555 1_555
C3G O2G 1_555 1_555
C5G H1G 1_555 1_555
C6G C8G 1_555 1_555
C8G C5G 1_555 1_555
C9G C3G 1_555 1_555
C10G C9G 1_555 1_555
H3G C10G 1_555 1_555
C11G C13G 1_555 1_555
C13G C6G 1_555 1_555
C14G C6G 1_555 1_555
H4G C14G 1_555 1_555
C15G C8G 1_555 1_555
C16G C15G 1_555 1_555
H5G C16G 1_555 1_555
H6G C16G 1_555 1_555
H7G C16G 1_555 1_555
C17G C15G 1_555 1_555
H8G C17G 1_555 1_555
H9G C17G 1_555 1_555
H10G C17G 1_555 1_555
O2I C3I 1_555 1_555
O3I C3I 1_555 1_555
C3I C9I 1_555 1_555
C5I H1I 1_555 1_555
C6I C8I 1_555 1_555
C8I C5I 1_555 1_555
C9I C5I 1_555 1_555
C10I C9I 1_555 1_555
H3I C10I 1_555 1_555
C11I C13G 1_555 1_555
C13I C6I 1_555 1_555
C14I C6I 1_555 1_555
H4I C14I 1_555 1_555
C15I C8I 1_555 1_555
C16I C15I 1_555 1_555
H5I C16I 1_555 1_555
H6I C16I 1_555 1_555
H7I C16I 1_555 1_555
C17I C15I 1_555 1_555
H8I C17I 1_555 1_555
H9I C17I 1_555 1_555
H10I C17I 1_555 1_555
O2B C3B 1_555 1_555
O3B C3B 1_555 1_555
C3B C9B 1_555 1_555
C5B H1B 1_555 1_555
C6B C8B 1_555 1_555
C8B C5B 1_555 1_555
C9B C5B 1_555 1_555
C10B C9B 1_555 1_555
H3B C10B 1_555 1_555
C11B C13I 1_555 1_555
C13B C11G 1_555 1_555
C14B C6B 1_555 1_555
H4B C14B 1_555 1_555
C15B C8B 1_555 1_555
C16B C15B 1_555 1_555
H5B C16B 1_555 1_555
H6B C16B 1_555 1_555
H7B C16B 1_555 1_555
C17B C15B 1_555 1_555
H8B C17B 1_555 1_555
H9B C17B 1_555 1_555
H10B C17B 1_555 1_555
Zn1H O3H 1_555 1_555
Zn2H O2H 1_555 1_555
O2M Zn2B 1_555 1_555
O3M Zn1 1_555 1_555
C3M O2M 1_555 1_555
C5M H1M 1_555 1_555
C6M C8M 1_555 1_555
C8M C5M 1_555 1_555
C9M C3M 1_555 1_555
C10M C9M 1_555 1_555
H3M C10M 1_555 1_555
C11M C13M 1_555 1_555
C13M C6M 1_555 1_555
C14M C6M 1_555 1_555
H4M C14M 1_555 1_555
C15M C8M 1_555 1_555
C16M C15M 1_555 1_555
H5M C16M 1_555 1_555
H6M C16M 1_555 1_555
H7M C16M 1_555 1_555
C17M C15M 1_555 1_555
H8M C17M 1_555 1_555
H9M C17M 1_555 1_555
H10M C17M 1_555 1_555
O2R C3R 1_555 1_555
O3R Zn1G 1_555 1_555
C3R O3R 1_555 1_555
C5R H1R 1_555 1_555
C6R C8R 1_555 1_555
C8R C5R 1_555 1_555
C9R C3R 1_555 1_555
C10R C9R 1_555 1_555
H3R C10R 1_555 1_555
C11R C13M 1_555 1_555
C13R C6R 1_555 1_555
C14R C6R 1_555 1_555
H4R C14R 1_555 1_555
C15R C8R 1_555 1_555
C16R C15R 1_555 1_555
H5R C16R 1_555 1_555
H6R C16R 1_555 1_555
H7R C16R 1_555 1_555
C17R C15R 1_555 1_555
H8R C17R 1_555 1_555
H9R C17R 1_555 1_555
H10R C17R 1_555 1_555
O2W C3W 1_555 1_555
O3W C3W 1_555 1_555
C3W C9W 1_555 1_555
C5W H1W 1_555 1_555
C6W C8W 1_555 1_555
C8W C5W 1_555 1_555
C9W C5W 1_555 1_555
C10W C9W 1_555 1_555
H3W C10W 1_555 1_555
C11W C13R 1_555 1_555
C13W C11M 1_555 1_555
C14W C6W 1_555 1_555
H4W C14W 1_555 1_555
C15W C8W 1_555 1_555
C16W C15W 1_555 1_555
H5W C16W 1_555 1_555
H6W C16W 1_555 1_555
H7W C16W 1_555 1_555
C17W C15W 1_555 1_555
H8W C17W 1_555 1_555
H9W C17W 1_555 1_555
H10W C17W 1_555 1_555
O2O Zn2 1_555 1_555
O3O Zn1B 1_555 1_555
C3O O2O 1_555 1_555
C5O H1O 1_555 1_555
C6O C8O 1_555 1_555
C8O C5O 1_555 1_555
C9O C3O 1_555 1_555
C10O C9O 1_555 1_555
H3O C10O 1_555 1_555
C11O C13O 1_555 1_555
C13O C6O 1_555 1_555
C14O C6O 1_555 1_555
H4O C14O 1_555 1_555
C15O C8O 1_555 1_555
C16O C15O 1_555 1_555
H5O C16O 1_555 1_555
H6O C16O 1_555 1_555
H7O C16O 1_555 1_555
C17O C15O 1_555 1_555
H8O C17O 1_555 1_555
H9O C17O 1_555 1_555
H10O C17O 1_555 1_555
O2Q Zn2F 1_555 1_555
O3Q C3Q 1_555 1_555
C3Q O2Q 1_555 1_555
C5Q H1Q 1_555 1_555
C6Q C8Q 1_555 1_555
C8Q C5Q 1_555 1_555
C9Q C3Q 1_555 1_555
C10Q C9Q 1_555 1_555
H3Q C10Q 1_555 1_555
C11Q C13O 1_555 1_555
C13Q C6Q 1_555 1_555
C14Q C6Q 1_555 1_555
H4Q C14Q 1_555 1_555
C15Q C8Q 1_555 1_555
C16Q C15Q 1_555 1_555
H5Q C16Q 1_555 1_555
H6Q C16Q 1_555 1_555
H7Q C16Q 1_555 1_555
C17Q C15Q 1_555 1_555
H8Q C17Q 1_555 1_555
H9Q C17Q 1_555 1_555
H10Q C17Q 1_555 1_555
O2V C3V 1_555 1_555
O3V C3V 1_555 1_555
C3V C9V 1_555 1_555
C5V H1V 1_555 1_555
C6V C8V 1_555 1_555
C8V C5V 1_555 1_555
C9V C5V 1_555 1_555
C10V C9V 1_555 1_555
H3V C10V 1_555 1_555
C11V C13Q 1_555 1_555
C13V C11O 1_555 1_555
C14V C6V 1_555 1_555
H4V C14V 1_555 1_555
C15V C8V 1_555 1_555
C16V C15V 1_555 1_555
H5V C16V 1_555 1_555
H6V C16V 1_555 1_555
H7V C16V 1_555 1_555
C17V C15V 1_555 1_555
H8V C17V 1_555 1_555
H9V C17V 1_555 1_555
H10V C17V 1_555 1_555
O2L Zn2C 1_555 1_555
O3L Zn1A 1_555 1_555
C3L O2L 1_555 1_555
C5L H1L 1_555 1_555
C6L C8L 1_555 1_555
C8L C5L 1_555 1_555
C9L C3L 1_555 1_555
C10L C9L 1_555 1_555
H3L C10L 1_555 1_555
C11L C13L 1_555 1_555
C13L C6L 1_555 1_555
C14L C6L 1_555 1_555
H4L C14L 1_555 1_555
C15L C8L 1_555 1_555
C16L C15L 1_555 1_555
H5L C16L 1_555 1_555
H6L C16L 1_555 1_555
H7L C16L 1_555 1_555
C17L C15L 1_555 1_555
H8L C17L 1_555 1_555
H9L C17L 1_555 1_555
H10L C17L 1_555 1_555
O2P C3P 1_555 1_555
O3P C3P 1_555 1_555
C3P C9P 1_555 1_555
C5P H1P 1_555 1_555
C6P C8P 1_555 1_555
C8P C5P 1_555 1_555
C9P C5P 1_555 1_555
C10P C9P 1_555 1_555
H3P C10P 1_555 1_555
C11P C13L 1_555 1_555
C13P C6P 1_555 1_555
C14P C6P 1_555 1_555
H4P C14P 1_555 1_555
C15P C8P 1_555 1_555
C16P C15P 1_555 1_555
H5P C16P 1_555 1_555
H6P C16P 1_555 1_555
H7P C16P 1_555 1_555
C17P C15P 1_555 1_555
H8P C17P 1_555 1_555
H9P C17P 1_555 1_555
H10P C17P 1_555 1_555
O2T C3T 1_555 1_555
O3T C3T 1_555 1_555
C3T C9T 1_555 1_555
C5T H1T 1_555 1_555
C6T C8T 1_555 1_555
C8T C5T 1_555 1_555
C9T C5T 1_555 1_555
C10T C9T 1_555 1_555
H3T C10T 1_555 1_555
C11T C13P 1_555 1_555
C13T C11L 1_555 1_555
C14T C6T 1_555 1_555
H4T C14T 1_555 1_555
C15T C8T 1_555 1_555
C16T C15T 1_555 1_555
H5T C16T 1_555 1_555
H6T C16T 1_555 1_555
H7T C16T 1_555 1_555
C17T C15T 1_555 1_555
H8T C17T 1_555 1_555
H9T C17T 1_555 1_555
H10T C17T 1_555 1_555
Zn1_2 O4_2 1_555 1_555
Zn1B_2 O4B_2 1_555 1_555
Zn1B_3 O3B 1_555 1_555
Zn1C_3 O3C_2 1_555 1_555
Zn1D_2 O3Q 1_555 1_555
Zn1E_3 O3P 1_555 1_555
Zn1F_2 O1D 1_555 1_555
Zn1G_2 O4G 1_555 1_555
Zn1G_3 O1E_2 1_555 1_555
Zn1I O3T 1_555 1_555
Zn1I_2 O3I 1_555 1_555
Zn1J O3J_2 1_555 1_555
Zn1J_2 O3J 1_555 1_555
Zn1K O3K 1_555 1_555
Zn1K_2 O3V 1_555 1_555
Zn2B_2 O5B_2 1_555 1_555
Zn2B_3 O2B 1_555 1_555
Zn2C_3 O2C_2 1_555 1_555
Zn2E_3 O2R 1_555 1_555
Zn2F_2 O1D 1_555 1_555
Zn2G_2 O2P 1_555 1_555
Zn2G_3 O1E 1_555 1_555
Zn2G_4 O1E_2 1_555 1_555
Zn2H_2 O2W 1_555 1_555
Zn2I O2V 1_555 1_555
Zn2I_2 O2I 1_555 1_555
Zn2J O2J_2 1_555 1_555
Zn2J_2 O2J 1_555 1_555
Zn2K O2K 1_555 1_555
Zn2K_2 O2T 1_555 1_555
O1D_2 Zn1F 1_555 1_555
O1E_3 Zn1G 1_555 1_555
O1H Zn1H 1_555 1_555
O2A_2 Zn2A_2 1_555 1_555
O2B_2 Zn2B 1_555 1_555
O2C_3 Zn2C 1_555 1_555
O2L_2 Zn2C_2 1_555 1_555
O2N Zn2A 1_555 1_555
O2N_2 Zn2A_2 1_555 1_555
O2P_2 Zn2G 1_555 1_555
O2R_2 Zn2E 1_555 1_555
O2R_3 Zn2E_2 1_555 1_555
O2S Zn2D 1_555 1_555
O2W_2 Zn2H 1_555 1_555
O3A_2 Zn1A_2 1_555 1_555
O3B_2 Zn1B 1_555 1_555
O3C_3 Zn1C 1_555 1_555
O3L_2 Zn1A_2 1_555 1_555
O3N Zn1C 1_555 1_555
O3N_2 Zn1C_2 1_555 1_555
O3P_2 Zn1E 1_555 1_555
O3P_3 Zn1E_2 1_555 1_555
O3Q_2 Zn1D 1_555 1_555
O3S Zn1F 1_555 1_555
O3U Zn1H 1_555 1_555
O4E_2 Zn1E_2 1_555 1_555
O4F_2 Zn1F 1_555 1_555
O4G_2 Zn1G 1_555 1_555
O4H Zn1H 1_555 1_555
O5E_2 Zn2E 1_555 1_555
O5E_3 Zn2E_2 1_555 1_555
O5F_2 Zn2F 1_555 1_555
O5H Zn2H 1_555 1_555
O3 C3 1_555 1_555
C5 C9 1_555 1_555
C10 C14 1_555 1_555
C11 C15 1_555 1_555
C10D C14D 1_555 1_555
C11D C13D 1_555 1_555
C11D C15D 1_555 1_555
C6H C13H 1_555 1_555
C10H C14H 1_555 1_555
C11H C13H 1_555 1_555
C11H C15H 1_555 1_555
C4A C7A 1_555 1_555
C19A C20A 1_555 1_555
O5B Zn2B 1_555 1_555
C19B C20B 1_555 1_555
C19C C20C 1_555 1_555
O1A Zn1C 1_555 1_555
O3A C3A 1_555 1_555
C5A C9A 1_555 1_555
C10A C14A 1_555 1_555
C11A C15A 1_555 1_555
C10F C14F 1_555 1_555
C11F C13F 1_555 1_555
C11F C15F 1_555 1_555
C6K C13K 1_555 1_555
C10K C14K 1_555 1_555
C11K C13K 1_555 1_555
C11K C15K 1_555 1_555
C19_2 C20_2 1_555 1_555
O5C_2 Zn2C 1_555 1_555
C19C_2 C20C_2 1_555 1_555
C19B_2 C20B_2 1_555 1_555
O1A_2 Zn2C_2 1_555 1_555
C4_2 C7_2 1_555 1_555
O3C C3C 1_555 1_555
C5C C9C 1_555 1_555
C10C C14C 1_555 1_555
C11C C15C 1_555 1_555
C10E C14E 1_555 1_555
C11E C13E 1_555 1_555
C11E C15E 1_555 1_555
C6J C13J 1_555 1_555
C10J C14J 1_555 1_555
C11J C13J 1_555 1_555
C11J C15J 1_555 1_555
Zn2D O1D 1_555 1_555
O4F Zn1F_2 1_555 1_555
C4E C7E 1_555 1_555
C19E C20E 1_555 1_555
O5F Zn2F_2 1_555 1_555
C19F C20F 1_555 1_555
C19G C20G 1_555 1_555
O1E Zn1G_2 1_555 1_555
O3E_2 C3E_2 1_555 1_555
C5E_2 C9E_2 1_555 1_555
C10E_2 C14E_2 1_555 1_555
C11E_2 C15E_2 1_555 1_555
C10J_2 C14J_2 1_555 1_555
C11J_2 C13J_2 1_555 1_555
C11J_2 C15J_2 1_555 1_555
C6C_2 C13C_2 1_555 1_555
C10C_2 C14C_2 1_555 1_555
C11C_2 C13C_2 1_555 1_555
C11C_2 C15C_2 1_555 1_555
Zn2E_2 O1E_2 1_555 1_555
Zn2F O1D_2 1_555 1_555
Zn2G O1E_3 1_555 1_555
C5G C9G 1_555 1_555
C10G C14G 1_555 1_555
C11G C15G 1_555 1_555
C10I C14I 1_555 1_555
C11I C13I 1_555 1_555
C11I C15I 1_555 1_555
C6B C13B 1_555 1_555
C10B C14B 1_555 1_555
C11B C13B 1_555 1_555
C11B C15B 1_555 1_555
Zn2H O1H 1_555 1_555
O3M C3M 1_555 1_555
C5M C9M 1_555 1_555
C10M C14M 1_555 1_555
C11M C15M 1_555 1_555
C5R C9R 1_555 1_555
C10R C14R 1_555 1_555
C11R C13R 1_555 1_555
C11R C15R 1_555 1_555
O3W Zn1J_2 1_555 1_555
C6W C13W 1_555 1_555
C10W C14W 1_555 1_555
C11W C13W 1_555 1_555
C11W C15W 1_555 1_555
O3O C3O 1_555 1_555
C5O C9O 1_555 1_555
C10O C14O 1_555 1_555
C11O C15O 1_555 1_555
C5Q C9Q 1_555 1_555
C10Q C14Q 1_555 1_555
C11Q C13Q 1_555 1_555
C11Q C15Q 1_555 1_555
C6V C13V 1_555 1_555
C10V C14V 1_555 1_555
C11V C13V 1_555 1_555
C11V C15V 1_555 1_555
O3L C3L 1_555 1_555
C5L C9L 1_555 1_555
C10L C14L 1_555 1_555
C11L C15L 1_555 1_555
C10P C14P 1_555 1_555
C11P C13P 1_555 1_555
C11P C15P 1_555 1_555
C6T C13T 1_555 1_555
C10T C14T 1_555 1_555
C11T C13T 1_555 1_555
C11T C15T 1_555 1_555
Zn1D_2 O1D_2 1_555 1_555
Zn2E_3 O1E_3 1_555 1_555

#END
