
#######################################################################
#
#                 Cambridge Crystallographic Data Centre
#                                CCDC 
#
#######################################################################
#
# If this CIF has been generated from an entry in the Cambridge 
# Structural Database, then it will include bibliographic, chemical, 
# crystal, experimental, refinement or atomic coordinate data resulting 
# from the CCDC's data processing and validation procedures.
#
#######################################################################

data_GUQTOB
_chemical_formula_moiety         '(C5 H12 N2 O20 P4 Zn6)n'
_symmetry_cell_setting           triclinic
_symmetry_space_group_name_H-M   'P -1'
_symmetry_Int_Tables_number      2
_space_group_name_Hall           '-P 1'
loop_
_symmetry_equiv_pos_site_id
_symmetry_equiv_pos_as_xyz
1 x,y,z
2 -x,-y,-z
_cell_length_a                   5.00300(10)
_cell_length_b                   8.5434(3)
_cell_length_c                   12.4336(5)
_cell_angle_alpha                92.99
_cell_angle_beta                 97.138(2)
_cell_angle_gamma                91.465(2)
_cell_volume                     526.333
loop_
_atom_site_label
_atom_site_type_symbol
_atom_site_fract_x
_atom_site_fract_y
_atom_site_fract_z
C1 C 0.4234(54) 0.5907(35) 0.4191(19)
C3 C 0.5000 0.5000 0.5000
N1 N 0.5574(25) 0.6287(13) 0.3297(8)
C1A C 0.5766(54) 0.4093(35) 0.5809(19)
N1A N 0.4426(25) 0.3713(13) 0.6703(8)
C4 C -0.9595(22) 1.0850(14) -0.4827(8)
Zn1 Zn -0.3937(2) 1.13674(13) -0.05955(9)
Zn2 Zn -0.8862(2) 1.36276(13) 0.13950(9)
Zn3 Zn -1.1447(2) 0.96820(13) -0.29767(9)
P1 P -0.3822(5) 1.1761(3) 0.2003(2)
P2 P -0.9582(5) 1.2879(3) -0.1231(2)
O1 O -0.6609(14) 1.2750(8) -0.1233(6)
O2 O -0.4549(14) 1.0856(8) 0.0903(5)
O3 O -1.1187(14) 1.1367(8) -0.1713(5)
O4 O -1.0452(14) 1.3051(8) -0.0070(5)
O5 O -1.0519(14) 1.4262(8) -0.1901(5)
O6 O -0.5099(14) 1.3364(8) 0.1918(6)
O7 O -0.0716(13) 1.2013(8) 0.2215(5)
O8 O -0.4724(14) 1.0802(8) 0.2897(5)
O9 O -1.0101(17) 1.1368(8) -0.3901(6)
O10 O -0.8570(17) 1.1635(8) -0.5493(6)
C4A C -1.0405(22) 0.9150(14) -0.5173(8)
O9A O -0.9899(17) 0.8632(8) -0.6099(6)
O10A O -1.1430(17) 0.8365(8) -0.4507(6)
P1A P -0.6178(5) 0.8239(3) -0.2003(2)
O2A O -0.5451(14) 0.9144(8) -0.0903(5)
O6A O -0.4901(14) 0.6636(8) -0.1918(6)
O7A O -0.9284(13) 0.7987(8) -0.2215(5)
O8A O -0.5276(14) 0.9198(8) -0.2897(5)
P2_2 P 0.0418(5) 1.2879(3) -0.1231(2)
O1_2 O 0.3391(14) 1.2750(8) -0.1233(6)
O3_2 O -0.1187(14) 1.1367(8) -0.1713(5)
O4_2 O -0.0452(14) 1.3051(8) -0.0070(5)
O5_2 O -0.0519(14) 1.4262(8) -0.1901(5)
Zn1_2 Zn 0.6063(2) 1.13674(13) -0.05955(9)
Zn2_2 Zn 0.1138(2) 1.36276(13) 0.13950(9)
Zn3_2 Zn -0.1447(2) 0.96820(13) -0.29767(9)
O5A O -0.9481(14) 1.5738(8) 0.1901(5)
O7_2 O -1.0716(13) 1.2013(8) 0.2215(5)
O8A_2 O -1.5276(14) 0.9198(8) -0.2897(5)
Zn1A Zn -0.6063(2) 0.86326(13) 0.05955(9)
Zn1_3 Zn -1.3937(2) 1.13674(13) -0.05955(9)
Zn2A Zn -1.1138(2) 1.63724(13) -0.13950(9)
Zn3A Zn 0.1447(2) 1.03180(13) 0.29767(9)
Zn3A_2 Zn -0.8553(2) 1.03180(13) 0.29767(9)
Zn3A_3 Zn -0.8553(2) 1.03180(13) -0.70233(9)
Zn2A_2 Zn -0.1138(2) 0.63724(13) -0.13950(9)
Zn2A_3 Zn -1.1138(2) 0.63724(13) -0.13950(9)
Zn2A_4 Zn -0.1138(2) 1.63724(13) -0.13950(9)
O2_2 O 0.5451(14) 1.0856(8) 0.0903(5)
O2A_2 O 0.4549(14) 0.9144(8) -0.0903(5)
O3_3 O 0.8813(14) 1.1367(8) -0.1713(5)
O4_3 O 0.9548(14) 1.3051(8) -0.0070(5)
O5A_2 O 0.0519(14) 1.5738(8) 0.1901(5)
O6_2 O 0.4901(14) 1.3364(8) 0.1918(6)
O7A_2 O 0.0716(13) 0.7987(8) -0.2215(5)
O9_2 O -0.0101(17) 1.1368(8) -0.3901(6)
O10A_2 O -0.1430(17) 0.8365(8) -0.4507(6)
loop_
_geom_bond_atom_site_label_1
_geom_bond_atom_site_label_2
_geom_bond_site_symmetry_1
_geom_bond_site_symmetry_2
C1 C3 1_555 1_555
C3 C1A 1_555 1_555
C4 O9 1_555 1_555
Zn1 O1 1_555 1_555
Zn2 O4 1_555 1_555
Zn3 O3 1_555 1_555
P1 O2 1_555 1_555
P2 O1 1_555 1_555
O2 Zn1 1_555 1_555
O3 P2 1_555 1_555
O4 P2 1_555 1_555
O5 P2 1_555 1_555
O6 Zn2 1_555 1_555
O7 P1 1_555 1_555
O8 P1 1_555 1_555
O9 Zn3 1_555 1_555
O10 C4 1_555 1_555
N1 C1 1_555 1_555
C1A N1A 1_555 1_555
C4A C4 1_555 1_555
O9A C4A 1_555 1_555
O10A Zn3 1_555 1_555
P1A O2A 1_555 1_555
O2A Zn1 1_555 1_555
O6A P1A 1_555 1_555
O7A Zn3 1_555 1_555
O8A P1A 1_555 1_555
P2_2 O1_2 1_555 1_555
O1_2 Zn1_2 1_555 1_555
O3_2 Zn1 1_555 1_555
O4_2 Zn1 1_555 1_555
O5_2 P2_2 1_555 1_555
Zn1_2 O2_2 1_555 1_555
Zn2_2 O7 1_555 1_555
Zn3_2 O8A 1_555 1_555
O5A Zn2 1_555 1_555
O7_2 Zn2 1_555 1_555
O8A_2 Zn3 1_555 1_555
Zn1A O2 1_555 1_555
Zn1_3 O3 1_555 1_555
Zn2A O5 1_555 1_555
Zn3A O7 1_555 1_555
Zn3A_2 O8 1_555 1_555
Zn3A_3 O10 1_555 1_555
Zn2A_2 O6A 1_555 1_555
Zn2A_3 O7A 1_555 1_555
Zn2A_4 O5_2 1_555 1_555
O2A_2 Zn1_2 1_555 1_555
O3_3 Zn1_2 1_555 1_555
O4_3 Zn1_2 1_555 1_555
O5A_2 Zn2_2 1_555 1_555
O6_2 Zn2_2 1_555 1_555
O7A_2 Zn3_2 1_555 1_555
O9_2 Zn3_2 1_555 1_555
O10A_2 Zn3_2 1_555 1_555
P1 O6 1_555 1_555
O4 Zn1_3 1_555 1_555
C4A O10A 1_555 1_555
O9A Zn3A_3 1_555 1_555
P1A O7A 1_555 1_555
O2A Zn1A 1_555 1_555
P2_2 O3_2 1_555 1_555
P2_2 O4_2 1_555 1_555
O3_2 Zn3_2 1_555 1_555
O4_2 Zn2_2 1_555 1_555
O7_2 Zn3A_2 1_555 1_555
Zn2A_2 O7A_2 1_555 1_555

#END
