
#######################################################################
#
#                 Cambridge Crystallographic Data Centre
#                                CCDC 
#
#######################################################################
#
# If this CIF has been generated from an entry in the Cambridge 
# Structural Database, then it will include bibliographic, chemical, 
# crystal, experimental, refinement or atomic coordinate data resulting 
# from the CCDC's data processing and validation procedures.
#
#######################################################################

data_FOPTOU
_chemical_formula_moiety         'C76 H102 Fe15 K11 Li10 N14 O116'
_symmetry_cell_setting           monoclinic
_symmetry_space_group_name_H-M   'C 2/c'
_symmetry_Int_Tables_number      15
_space_group_name_Hall           '-C 2yc'
loop_
_symmetry_equiv_pos_site_id
_symmetry_equiv_pos_as_xyz
1 x,y,z
2 -x,y,1/2-z
3 1/2+x,1/2+y,z
4 1/2-x,1/2+y,1/2-z
5 -x,-y,-z
6 x,-y,1/2+z
7 1/2-x,1/2-y,-z
8 1/2+x,1/2-y,1/2+z
_cell_length_a                   23.7886(10)
_cell_length_b                   33.5635(14)
_cell_length_c                   20.5333(10)
_cell_angle_alpha                90
_cell_angle_beta                 92.438(3)
_cell_angle_gamma                90
_cell_volume                     16379.5
loop_
_atom_site_label
_atom_site_type_symbol
_atom_site_fract_x
_atom_site_fract_y
_atom_site_fract_z
_atom_site_U_iso_or_equiv
_atom_site_thermal_displace_type
O39 O 0.3292(7) 0.4340(5) 0.7996(8) 0.0930 Uiso
O44 O 0.0178(3) 0.4682(2) 0.8235(4) 0.0505 Uani
O45 O 0.2165(3) 0.1293(2) 0.0501(4) 0.0508 Uani
O46 O 0.5621(4) 0.0343(3) 0.7176(4) 0.0627 Uani
O47 O 0.9060(4) 0.6111(3) 0.7606(4) 0.0685 Uani
O49 O 0.0128(4) 0.0544(3) 0.0568(5) 0.0783 Uani
O50 O 0.0048(5) 0.4073(4) 0.1242(5) 0.0948 Uani
O54 O 0.9461(6) 0.3218(4) 0.1012(5) 0.0696 Uani
O55 O 0.9855(6) 0.5128(3) 0.5667(5) 0.0716 Uani
Fe1 Fe 0.82484(6) 0.76570(4) 0.30873(7) 0.0237 Uani
Fe2 Fe 0.91128(6) 0.78225(4) 0.07427(7) 0.0219 Uani
Fe3 Fe 0.83264(6) 0.66411(4) 0.28773(7) 0.0228 Uani
Fe4 Fe 0.91172(6) 0.68008(4) 0.04727(7) 0.0215 Uani
Fe5 Fe 0.81221(6) 0.72399(4) 0.15001(7) 0.0224 Uani
Fe6 Fe 0.92371(6) 0.72194(4) 0.20728(7) 0.0220 Uani
K1 K 0.84001(10) 0.75515(8) -0.08840(11) 0.0385 Uani
K2 K 0.94577(10) 0.72116(7) 0.40267(12) 0.0342 Uani
K3 K 0.84162(17) 1.08808(13) 0.0652(2) 0.0444 Uani
Li1 Li 0.7025(8) 1.0418(6) 0.0049(9) 0.0160 Uani
Li2 Li 0.7863(8) 0.9845(6) 0.0484(9) 0.0120 Uiso
O1 O 0.7499(3) 0.7672(2) 0.3555(3) 0.0367 Uani
O2 O 0.6810(4) 0.8035(2) 0.3939(4) 0.0531 Uani
O3 O 0.8598(3) 0.7877(2) 0.3943(3) 0.0322 Uani
O4 O 0.8951(4) 0.8393(2) 0.4498(4) 0.0610 Uani
O5 O 0.7085(3) 0.9951(2) 0.0671(4) 0.0406 Uani
O6 O 0.6319(4) 0.9930(2) 0.1246(4) 0.0484 Uani
O7 O 0.8507(3) 1.0037(3) 0.1024(4) 0.0534 Uani
O8 O 0.8896(8) 1.0147(7) 0.1997(6) 0.2455 Uani
O9 O 0.9502(3) 0.8095(2) -0.0031(3) 0.0333 Uani
O10 O 0.9620(4) 0.8654(2) -0.0596(4) 0.0515 Uani
O11 O 0.9834(3) 0.7875(2) 0.1295(3) 0.0271 Uani
O12 O 1.0395(3) 0.8261(2) 0.1930(4) 0.0404 Uani
O13 O 0.8110(3) 0.6365(2) 0.3736(3) 0.0327 Uani
O14 O 0.7708(4) 0.5835(2) 0.4167(4) 0.0496 Uani
O15 O 0.9153(3) 0.6548(2) 0.3136(3) 0.0285 Uani
O16 O 0.9863(3) 0.6121(2) 0.3269(3) 0.0351 Uani
O17 O 0.6558(4) 0.4567(3) 0.0951(4) 0.0713 Uani
O18 O 0.7144(3) 0.4662(2) 0.0156(4) 0.0417 Uani
O19 O 0.8129(5) 0.4107(3) 0.0563(4) 0.0734 Uani
O20 O 0.8739(4) 0.3922(3) 0.1336(4) 0.0623 Uani
O21 O 0.8835(3) 0.6786(2) -0.0482(3) 0.0288 Uani
O22 O 0.8509(3) 0.6433(2) -0.1341(3) 0.0373 Uani
O23 O 0.9865(3) 0.6590(2) 0.0159(3) 0.0296 Uani
O24 O 1.0469(3) 0.6082(2) 0.0157(4) 0.0461 Uani
O25 O 0.7470(3) 0.8097(2) 0.0230(4) 0.0431 Uani
O26 O 0.8373(3) 0.7905(2) 0.0310(3) 0.0260 Uani
O27 O 0.7710(3) 0.7606(2) 0.0892(3) 0.0313 Uani
O28 O 0.7539(3) 0.6599(2) 0.2550(3) 0.0272 Uani
O29 O 0.7423(3) 0.6911(2) 0.1581(3) 0.0299 Uani
O30 O 0.6811(4) 0.6472(3) 0.1889(5) 0.0855 Uani
O31 O 0.8847(3) 0.75308(19) 0.1434(3) 0.0217 Uani
O32 O 0.8570(3) 0.69260(19) 0.2166(3) 0.0218 Uani
O33 O 0.7879(3) 0.7586(2) 0.2250(3) 0.0246 Uani
O34 O 0.8361(3) 0.6890(2) 0.0754(3) 0.0243 Uani
O35 O 0.9487(3) 0.6835(2) 0.1356(3) 0.0247 Uani
O36 O 0.9357(3) 0.7345(2) 0.0266(3) 0.0252 Uani
O37 O 0.8278(3) 0.7114(2) 0.3456(3) 0.0256 Uani
O38 O 1.0000 0.7132(3) 0.2500 0.0363 Uani
O41 O 0.9013(3) 0.7587(2) 0.2787(3) 0.0256 Uani
O42 O 0.8260(3) 0.7123(2) -0.2040(4) 0.0454 Uani
O43 O 0.9602(5) 0.7431(4) -0.1074(5) 0.0970 Uani
O48 O 0.8087(3) 0.9446(2) -0.0117(4) 0.0483 Uani
O51 O 0.9387(5) 0.7712(4) 0.5200(5) 0.1094 Uani
O52 O 0.9259(6) 1.0839(4) -0.0263(8) 0.1375 Uani
O53 O 0.6097(5) 1.0391(4) 0.0174(5) 0.0500 Uiso
O56 O 0.8749(4) 0.6640(2) 0.4837(4) 0.0517 Uani
O57 O 0.9169(7) 0.8172(5) -0.1601(6) 0.0945 Uani
O58 O 0.7688(7) 1.1463(5) -0.0050(7) 0.1070 Uiso
N1 N 0.8031(3) 0.8327(2) 0.3046(4) 0.0260 Uani
N2 N 0.7706(4) 0.9534(3) 0.1571(4) 0.0290 Uani
N3 N 0.9101(3) 0.8484(2) 0.0993(4) 0.0221 Uani
N4 N 0.8403(3) 0.5976(2) 0.2660(4) 0.0213 Uani
N5 N 0.8005(4) 0.4865(3) 0.1038(4) 0.0312 Uani
N6 N 0.8940(3) 0.6127(2) 0.0321(4) 0.0230 Uani
C1 C 0.8613(4) 0.8431(3) 0.2046(5) 0.0262 Uani
H1 H 0.8921 0.8552 0.2317 0.0310 Uiso
H2 H 0.8682 0.8140 0.2023 0.0310 Uiso
C2 C 0.8045(4) 0.8509(3) 0.2358(5) 0.0253 Uani
H3 H 0.7749 0.8370 0.2082 0.0300 Uiso
C3 C 0.7899(5) 0.8953(3) 0.2349(5) 0.0284 Uani
H4 H 0.7518 0.8993 0.2514 0.0340 Uiso
H5 H 0.8171 0.9100 0.2637 0.0340 Uiso
C4 C 0.7919(4) 0.9113(3) 0.1657(5) 0.0258 Uani
H6 H 0.7658 0.8942 0.1385 0.0310 Uiso
C5 C 0.8489(4) 0.9056(3) 0.1396(5) 0.0288 Uani
H7 H 0.8777 0.9188 0.1685 0.0350 Uiso
H8 H 0.8504 0.9176 0.0956 0.0350 Uiso
C6 C 0.8604(4) 0.8608(3) 0.1363(5) 0.0263 Uani
H9 H 0.8269 0.8489 0.1125 0.0320 Uiso
C7 C 0.7452(4) 0.8365(3) 0.3276(5) 0.0254 Uani
H10 H 0.7195 0.8424 0.2897 0.0300 Uiso
H11 H 0.7440 0.8594 0.3578 0.0300 Uiso
C8 C 0.7237(5) 0.8002(3) 0.3618(5) 0.0337 Uani
C9 C 0.8443(5) 0.8528(3) 0.3513(5) 0.0309 Uani
H12 H 0.8254 0.8753 0.3723 0.0370 Uiso
H13 H 0.8757 0.8637 0.3266 0.0370 Uiso
C10 C 0.8680(5) 0.8251(4) 0.4032(5) 0.0385 Uani
C11 C 0.7092(4) 0.9561(3) 0.1634(5) 0.0308 Uani
H14 H 0.6923 0.9293 0.1575 0.0370 Uiso
H15 H 0.7012 0.9655 0.2078 0.0370 Uiso
C12 C 0.6830(5) 0.9836(3) 0.1151(5) 0.0297 Uani
C13 C 0.8024(5) 0.9819(3) 0.1949(5) 0.0358 Uani
H16 H 0.8171 0.9686 0.2351 0.0430 Uiso
H17 H 0.7763 1.0031 0.2083 0.0430 Uiso
C14 C 0.8504(6) 1.0012(5) 0.1635(7) 0.0680 Uani
C15 C 0.9091(5) 0.8686(3) 0.0363(5) 0.0324 Uani
H18 H 0.9246 0.8958 0.0420 0.0390 Uiso
H19 H 0.8697 0.8710 0.0192 0.0390 Uiso
C16 C 0.9425(5) 0.8465(4) -0.0116(5) 0.0366 Uani
C17 C 0.9653(4) 0.8575(3) 0.1356(5) 0.0303 Uani
H20 H 0.9885 0.8743 0.1076 0.0370 Uiso
H21 H 0.9575 0.8730 0.1752 0.0370 Uiso
C18 C 0.9980(4) 0.8212(3) 0.1549(5) 0.0276 Uani
C19 C 0.8719(4) 0.6036(3) 0.1515(4) 0.0249 Uani
H22 H 0.9099 0.5932 0.1633 0.0300 Uiso
H23 H 0.8724 0.6328 0.1572 0.0300 Uiso
C20 C 0.8282(4) 0.5847(3) 0.1963(4) 0.0216 Uani
H24 H 0.7905 0.5957 0.1825 0.0260 Uiso
C21 C 0.8253(5) 0.5400(3) 0.1877(5) 0.0302 Uani
H25 H 0.7965 0.5289 0.2161 0.0360 Uiso
H26 H 0.8620 0.5281 0.2009 0.0360 Uiso
C22 C 0.8101(5) 0.5292(3) 0.1157(5) 0.0313 Uani
H27 H 0.7736 0.5428 0.1043 0.0370 Uiso
C23 C 0.8530(4) 0.5466(3) 0.0710(5) 0.0266 Uani
H28 H 0.8425 0.5399 0.0252 0.0320 Uiso
H29 H 0.8905 0.5350 0.0818 0.0320 Uiso
C24 C 0.8556(4) 0.5929(3) 0.0792(5) 0.0259 Uani
H30 H 0.8168 0.6034 0.0695 0.0310 Uiso
C25 C 0.7971(4) 0.5795(3) 0.3062(5) 0.0303 Uani
H31 H 0.8063 0.5511 0.3139 0.0360 Uiso
H32 H 0.7600 0.5808 0.2824 0.0360 Uiso
C26 C 0.7935(5) 0.6005(3) 0.3705(5) 0.0349 Uani
C27 C 0.8982(4) 0.5849(3) 0.2914(5) 0.0302 Uani
H33 H 0.9166 0.5695 0.2571 0.0360 Uiso
H34 H 0.8942 0.5671 0.3294 0.0360 Uiso
C28 C 0.9359(4) 0.6202(3) 0.3116(5) 0.0238 Uani
C29 C 0.7471(5) 0.4733(3) 0.1274(5) 0.0371 Uani
H35 H 0.7324 0.4942 0.1561 0.0440 Uiso
H36 H 0.7536 0.4491 0.1542 0.0440 Uiso
C30 C 0.7038(5) 0.4644(3) 0.0754(6) 0.0389 Uani
C31 C 0.8470(5) 0.4609(3) 0.1321(5) 0.0414 Uani
H37 H 0.8449 0.4601 0.1801 0.0500 Uiso
H38 H 0.8838 0.4725 0.1215 0.0500 Uiso
C32 C 0.8423(6) 0.4178(4) 0.1043(6) 0.0456 Uani
C33 C 0.8679(5) 0.6092(3) -0.0347(5) 0.0284 Uani
H39 H 0.8876 0.5879 -0.0581 0.0340 Uiso
H40 H 0.8283 0.6007 -0.0311 0.0340 Uiso
C34 C 0.8687(4) 0.6460(3) -0.0742(5) 0.0256 Uani
C35 C 0.9503(4) 0.5935(3) 0.0351(5) 0.0284 Uani
H41 H 0.9501 0.5712 0.0035 0.0340 Uiso
H42 H 0.9573 0.5821 0.0792 0.0340 Uiso
C36 C 0.9988(5) 0.6219(4) 0.0203(5) 0.0337 Uani
C37 C 0.7845(5) 0.7871(3) 0.0478(5) 0.0271 Uani
C38 C 0.7265(5) 0.6671(4) 0.2009(6) 0.0374 Uani
Fe1A Fe 1.17516(6) 0.76570(4) 0.19127(7) 0.0237 Uani
Fe2A Fe 1.08872(6) 0.78225(4) 0.42573(7) 0.0219 Uani
Fe2F Fe 0.58872(6) 0.71775(4) -0.07427(7) 0.0219 Uani
Fe3A Fe 1.16736(6) 0.66411(4) 0.21227(7) 0.0228 Uani
Fe3F Fe 0.66736(6) 0.83589(4) -0.28773(7) 0.0228 Uani
Fe4A Fe 1.08828(6) 0.68008(4) 0.45273(7) 0.0215 Uani
Fe5A Fe 1.18779(6) 0.72399(4) 0.34999(7) 0.0224 Uani
Fe5F Fe 0.68779(6) 0.77601(4) -0.15001(7) 0.0224 Uani
Fe6A Fe 1.07629(6) 0.72194(4) 0.29272(7) 0.0220 Uani
K1A K 1.15999(10) 0.75515(8) 0.58840(11) 0.0385 Uani
K1F K 0.65999(10) 0.74485(8) 0.08840(11) 0.0385 Uani
K2A K 1.05423(10) 0.72116(7) 0.09733(12) 0.0342 Uani
K3A K 1.15838(17) 1.08808(13) 0.4348(2) 0.0444 Uani
K3C K 0.65838(17) 0.58808(13) 0.4348(2) 0.0444 Uani
K3F K 0.65838(17) 0.41192(13) -0.0652(2) 0.0444 Uani
K3B K 1.34162(17) 0.58808(13) 0.0652(2) 0.0444 Uani
K3G K 1.34162(17) 0.41192(13) 0.5652(2) 0.0444 Uani
Li1A Li 1.2975(8) 1.0418(6) 0.4951(9) 0.0160 Uani
Li1C Li 0.7975(8) 0.5418(6) 0.4951(9) 0.0160 Uani
Li1F Li 0.7975(8) 0.4582(6) -0.0049(9) 0.0160 Uani
Li1B Li 1.2025(8) 0.5418(6) 0.0049(9) 0.0160 Uani
Li1G Li 1.2025(8) 0.4582(6) 0.5049(9) 0.0160 Uani
Li2A Li 1.2137(8) 0.9845(6) 0.4516(9) 0.0120 Uiso
Li2F Li 0.7137(8) 0.5155(6) -0.0484(9) 0.0120 Uiso
Li2G Li 1.2863(8) 0.5155(6) 0.5484(9) 0.0120 Uiso
O1A O 1.2501(3) 0.7672(2) 0.1445(3) 0.0367 Uani
O2A O 1.3190(4) 0.8035(2) 0.1061(4) 0.0531 Uani
O3A O 1.1402(3) 0.7877(2) 0.1057(3) 0.0322 Uani
O4A O 1.1049(4) 0.8393(2) 0.0502(4) 0.0610 Uani
O5A O 1.2915(3) 0.9951(2) 0.4329(4) 0.0406 Uani
O6A O 1.3681(4) 0.9930(2) 0.3754(4) 0.0484 Uani
O7A O 1.1493(3) 1.0037(3) 0.3976(4) 0.0534 Uani
O8A O 1.1104(8) 1.0147(7) 0.3003(6) 0.2455 Uani
O9A O 1.0498(3) 0.8095(2) 0.5031(3) 0.0333 Uani
O10A O 1.0380(4) 0.8654(2) 0.5596(4) 0.0515 Uani
O11A O 1.0166(3) 0.7875(2) 0.3705(3) 0.0271 Uani
O12A O 0.9605(3) 0.8261(2) 0.3070(4) 0.0404 Uani
O13A O 1.1890(3) 0.6365(2) 0.1264(3) 0.0327 Uani
O14A O 1.2292(4) 0.5835(2) 0.0833(4) 0.0496 Uani
O14C O 0.7292(4) 1.0835(2) 0.0833(4) 0.0496 Uani
O14B O 1.2708(4) 1.0835(2) 0.4167(4) 0.0496 Uani
O15A O 1.0847(3) 0.6548(2) 0.1864(3) 0.0285 Uani
O16A O 1.0137(3) 0.6121(2) 0.1731(3) 0.0351 Uani
O17A O 1.3442(4) 0.4567(3) 0.4049(4) 0.0713 Uani
O18A O 1.2856(3) 0.4662(2) 0.4844(4) 0.0417 Uani
O18F O 0.7856(3) 1.0338(2) -0.0156(4) 0.0417 Uani
O18G O 1.2144(3) 1.0338(2) 0.5156(4) 0.0417 Uani
O19A O 1.1871(5) 0.4107(3) 0.4437(4) 0.0734 Uani
O19F O 0.6871(5) 1.0893(3) -0.0563(4) 0.0734 Uani
O19G O 1.3129(5) 1.0893(3) 0.5563(4) 0.0734 Uani
O20A O 1.1261(4) 0.3922(3) 0.3664(4) 0.0623 Uani
O21A O 1.1165(3) 0.6786(2) 0.5482(3) 0.0288 Uani
O22A O 1.1491(3) 0.6433(2) 0.6341(3) 0.0373 Uani
O23A O 1.0135(3) 0.6590(2) 0.4841(3) 0.0296 Uani
O24A O 0.9531(3) 0.6082(2) 0.4843(4) 0.0461 Uani
O25F O 0.7530(3) 0.6903(2) -0.0230(4) 0.0431 Uani
O26F O 0.6627(3) 0.7095(2) -0.0310(3) 0.0260 Uani
O26A O 1.1627(3) 0.7905(2) 0.4690(3) 0.0260 Uani
O27F O 0.7290(3) 0.7394(2) -0.0892(3) 0.0313 Uani
O27G O 1.2710(3) 0.7394(2) 0.5892(3) 0.0313 Uani
O27A O 1.2290(3) 0.7606(2) 0.4108(3) 0.0313 Uani
O28F O 0.7461(3) 0.8401(2) -0.2550(3) 0.0272 Uani
O28A O 1.2461(3) 0.6599(2) 0.2450(3) 0.0272 Uani
O29F O 0.7577(3) 0.8089(2) -0.1581(3) 0.0299 Uani
O29G O 1.2423(3) 0.8089(2) 0.6581(3) 0.0299 Uani
O29A O 1.2577(3) 0.6911(2) 0.3419(3) 0.0299 Uani
O30F O 0.8189(4) 0.8528(3) -0.1889(5) 0.0855 Uani
O31A O 1.1153(3) 0.75308(19) 0.3566(3) 0.0217 Uani
O32A O 1.1430(3) 0.69260(19) 0.2834(3) 0.0218 Uani
O33A O 1.2121(3) 0.7586(2) 0.2750(3) 0.0246 Uani
O34A O 1.1639(3) 0.6890(2) 0.4246(3) 0.0243 Uani
O35A O 1.0513(3) 0.6835(2) 0.3644(3) 0.0247 Uani
O36A O 1.0643(3) 0.7345(2) 0.4734(3) 0.0252 Uani
O37A O 1.1722(3) 0.7114(2) 0.1544(3) 0.0256 Uani
O41A O 1.0987(3) 0.7587(2) 0.2213(3) 0.0256 Uani
O42A O 1.1740(3) 0.7123(2) 0.7040(4) 0.0454 Uani
O43A O 1.0398(5) 0.7431(4) 0.6074(5) 0.0970 Uani
O48A O 1.1913(3) 0.9446(2) 0.5117(4) 0.0483 Uani
O51A O 1.0613(5) 0.7712(4) -0.0200(5) 0.1094 Uani
O52A O 1.0741(6) 1.0839(4) 0.5263(8) 0.1375 Uani
O53A O 1.3903(5) 1.0391(4) 0.4826(5) 0.0500 Uiso
O56A O 1.1251(4) 0.6640(2) 0.0163(4) 0.0517 Uani
O57A O 1.0831(7) 0.8172(5) 0.6601(6) 0.0945 Uani
O58A O 1.2312(7) 1.1463(5) 0.5050(7) 0.1070 Uiso
N1A N 1.1969(3) 0.8327(2) 0.1954(4) 0.0260 Uani
N2A N 1.2294(4) 0.9534(3) 0.3429(4) 0.0290 Uani
N3A N 1.0899(3) 0.8484(2) 0.4007(4) 0.0221 Uani
N4A N 1.1597(3) 0.5976(2) 0.2340(4) 0.0213 Uani
N5A N 1.1995(4) 0.4865(3) 0.3962(4) 0.0312 Uani
N5F N 0.6995(4) 1.0135(3) -0.1038(4) 0.0312 Uani
N5G N 1.3005(4) 1.0135(3) 0.6038(4) 0.0312 Uani
N6A N 1.1060(3) 0.6127(2) 0.4679(4) 0.0230 Uani
C1A C 1.1387(4) 0.8431(3) 0.2954(5) 0.0262 Uani
H1A H 1.1079 0.8552 0.2683 0.0310 Uiso
H2A H 1.1318 0.8140 0.2977 0.0310 Uiso
C2A C 1.1955(4) 0.8509(3) 0.2642(5) 0.0253 Uani
H3A H 1.2251 0.8370 0.2918 0.0300 Uiso
C3A C 1.2101(5) 0.8953(3) 0.2651(5) 0.0284 Uani
H4A H 1.2482 0.8993 0.2486 0.0340 Uiso
H5A H 1.1829 0.9100 0.2363 0.0340 Uiso
C4A C 1.2081(4) 0.9113(3) 0.3343(5) 0.0258 Uani
H6A H 1.2342 0.8942 0.3615 0.0310 Uiso
C5A C 1.1511(4) 0.9056(3) 0.3604(5) 0.0288 Uani
H7A H 1.1223 0.9188 0.3315 0.0350 Uiso
H8A H 1.1496 0.9176 0.4044 0.0350 Uiso
C6A C 1.1396(4) 0.8608(3) 0.3637(5) 0.0263 Uani
H9A H 1.1731 0.8489 0.3875 0.0320 Uiso
C7A C 1.2548(4) 0.8365(3) 0.1724(5) 0.0254 Uani
H10A H 1.2805 0.8424 0.2103 0.0300 Uiso
H11A H 1.2560 0.8594 0.1422 0.0300 Uiso
C8A C 1.2763(5) 0.8002(3) 0.1382(5) 0.0337 Uani
C9A C 1.1557(5) 0.8528(3) 0.1487(5) 0.0309 Uani
H12A H 1.1746 0.8753 0.1277 0.0370 Uiso
H13A H 1.1243 0.8637 0.1734 0.0370 Uiso
C10A C 1.1320(5) 0.8251(4) 0.0968(5) 0.0385 Uani
C11A C 1.2908(4) 0.9561(3) 0.3366(5) 0.0308 Uani
H14A H 1.3077 0.9293 0.3425 0.0370 Uiso
H15A H 1.2988 0.9655 0.2922 0.0370 Uiso
C12A C 1.3170(5) 0.9836(3) 0.3849(5) 0.0297 Uani
C13A C 1.1976(5) 0.9819(3) 0.3051(5) 0.0358 Uani
H16A H 1.1829 0.9686 0.2649 0.0430 Uiso
H17A H 1.2237 1.0031 0.2917 0.0430 Uiso
C14A C 1.1496(6) 1.0012(5) 0.3365(7) 0.0680 Uani
C15A C 1.0909(5) 0.8686(3) 0.4637(5) 0.0324 Uani
H18A H 1.0754 0.8958 0.4580 0.0390 Uiso
H19A H 1.1303 0.8710 0.4808 0.0390 Uiso
C16A C 1.0575(5) 0.8465(4) 0.5116(5) 0.0366 Uani
C17A C 1.0347(4) 0.8575(3) 0.3644(5) 0.0303 Uani
H20A H 1.0115 0.8743 0.3924 0.0370 Uiso
H21A H 1.0425 0.8730 0.3248 0.0370 Uiso
C18A C 1.0020(4) 0.8212(3) 0.3451(5) 0.0276 Uani
C19A C 1.1281(4) 0.6036(3) 0.3485(4) 0.0249 Uani
H22A H 1.0901 0.5932 0.3367 0.0300 Uiso
H23A H 1.1276 0.6328 0.3428 0.0300 Uiso
C20A C 1.1718(4) 0.5847(3) 0.3037(4) 0.0216 Uani
H24A H 1.2095 0.5957 0.3175 0.0260 Uiso
C21A C 1.1747(5) 0.5400(3) 0.3123(5) 0.0302 Uani
H25A H 1.2035 0.5289 0.2839 0.0360 Uiso
H26A H 1.1380 0.5281 0.2991 0.0360 Uiso
C22A C 1.1899(5) 0.5292(3) 0.3843(5) 0.0313 Uani
H27A H 1.2264 0.5428 0.3957 0.0370 Uiso
C23A C 1.1470(4) 0.5466(3) 0.4290(5) 0.0266 Uani
H28A H 1.1575 0.5399 0.4748 0.0320 Uiso
H29A H 1.1095 0.5350 0.4182 0.0320 Uiso
C24A C 1.1444(4) 0.5929(3) 0.4208(5) 0.0259 Uani
H30A H 1.1832 0.6034 0.4305 0.0310 Uiso
C25A C 1.2029(4) 0.5795(3) 0.1938(5) 0.0303 Uani
H31A H 1.1937 0.5511 0.1861 0.0360 Uiso
H32A H 1.2400 0.5808 0.2176 0.0360 Uiso
C26A C 1.2065(5) 0.6005(3) 0.1295(5) 0.0349 Uani
C27A C 1.1018(4) 0.5849(3) 0.2086(5) 0.0302 Uani
H33A H 1.0834 0.5695 0.2429 0.0360 Uiso
H34A H 1.1058 0.5671 0.1706 0.0360 Uiso
C28A C 1.0641(4) 0.6202(3) 0.1884(5) 0.0238 Uani
C29A C 1.2529(5) 0.4733(3) 0.3726(5) 0.0371 Uani
H35A H 1.2676 0.4942 0.3439 0.0440 Uiso
H36A H 1.2464 0.4491 0.3458 0.0440 Uiso
C30A C 1.2962(5) 0.4644(3) 0.4246(6) 0.0389 Uani
C31A C 1.1530(5) 0.4609(3) 0.3679(5) 0.0414 Uani
H37A H 1.1551 0.4601 0.3199 0.0500 Uiso
H38A H 1.1162 0.4725 0.3785 0.0500 Uiso
C32A C 1.1577(6) 0.4178(4) 0.3957(6) 0.0456 Uani
C33A C 1.1321(5) 0.6092(3) 0.5347(5) 0.0284 Uani
H39A H 1.1124 0.5879 0.5581 0.0340 Uiso
H40A H 1.1717 0.6007 0.5311 0.0340 Uiso
C34A C 1.1313(4) 0.6460(3) 0.5742(5) 0.0256 Uani
C35A C 1.0497(4) 0.5935(3) 0.4649(5) 0.0284 Uani
H41A H 1.0499 0.5712 0.4965 0.0340 Uiso
H42A H 1.0427 0.5821 0.4208 0.0340 Uiso
C36A C 1.0012(5) 0.6219(4) 0.4797(5) 0.0337 Uani
C37F C 0.7155(5) 0.7129(3) -0.0478(5) 0.0271 Uani
C38F C 0.7735(5) 0.8329(4) -0.2009(6) 0.0374 Uani
loop_
_atom_site_aniso_label
_atom_site_aniso_U_11
_atom_site_aniso_U_22
_atom_site_aniso_U_33
_atom_site_aniso_U_23
_atom_site_aniso_U_13
_atom_site_aniso_U_12
O44 0.043(5) 0.032(5) 0.075(6) 0.006(4) -0.014(4) 0.000(4)
O45 0.046(5) 0.047(6) 0.059(5) 0.004(4) -0.004(4) 0.002(4)
O46 0.062(6) 0.069(7) 0.058(6) -0.015(5) 0.013(5) -0.015(5)
O47 0.084(7) 0.052(7) 0.070(6) -0.011(5) 0.010(5) 0.012(5)
O49 0.083(7) 0.035(6) 0.120(8) 0.033(6) 0.041(6) 0.007(5)
O50 0.088(9) 0.110(10) 0.086(8) -0.019(7) -0.002(6) -0.013(7)
O54 0.096(11) 0.078(10) 0.037(7) 0.035(7) 0.029(7) 0.065(8)
O55 0.108(10) 0.038(7) 0.070(8) 0.015(6) 0.019(7) -0.006(7)
Fe1 0.0272(9) 0.0176(9) 0.0265(8) -0.0018(7) 0.0018(7) 0.0037(7)
Fe2 0.0218(9) 0.0179(9) 0.0260(8) 0.0003(6) 0.0013(6) 0.0019(6)
Fe3 0.0230(9) 0.0180(9) 0.0274(8) 0.0030(7) 0.0025(6) 0.0000(7)
Fe4 0.0206(9) 0.0180(9) 0.0259(8) -0.0007(7) 0.0015(6) 0.0011(7)
Fe5 0.0186(9) 0.0216(9) 0.0271(8) -0.0011(7) 0.0007(6) 0.0031(6)
Fe6 0.0202(9) 0.0217(9) 0.0240(8) -0.0010(7) -0.0006(6) -0.0008(6)
K1 0.0369 0.0428 0.0358 -0.0065 -0.0001 0.0013
K2 0.0293(15) 0.0287(16) 0.0441(15) 0.0029(12) -0.0036(11) -0.0003(11)
K3 0.026(2) 0.033(3) 0.075(3) -0.031(2) 0.010(2) -0.010(2)
Li1 0.019 0.014 0.015 0.005 0 0.005
O1 0.041(5) 0.024(5) 0.046(5) 0.005(4) 0.012(4) 0.009(4)
O2 0.057(6) 0.037(5) 0.068(6) 0.006(4) 0.036(5) 0.017(4)
O3 0.042(5) 0.032(5) 0.022(4) 0.000(3) -0.007(3) 0.004(4)
O4 0.103(8) 0.039(6) 0.038(5) -0.006(4) -0.033(5) -0.010(5)
O5 0.041(5) 0.037(5) 0.044(5) 0.004(4) 0.003(4) 0.001(4)
O6 0.059(6) 0.037(5) 0.049(5) 0.005(4) 0.001(4) 0.017(4)
O7 0.053(6) 0.062(7) 0.045(6) 0.007(5) -0.002(4) -0.004(5)
O8 0.235(19) 0.44(3) 0.060(8) 0.001(13) -0.012(10) -0.27(2)
O9 0.045(5) 0.023(5) 0.032(4) 0.001(4) 0.004(3) 0.001(4)
O10 0.071(6) 0.040(6) 0.045(5) 0.009(4) 0.020(5) 0.007(5)
O11 0.029(4) 0.017(4) 0.035(4) -0.002(3) -0.001(3) 0.004(3)
O12 0.034(5) 0.040(5) 0.046(5) -0.010(4) -0.011(4) 0.007(4)
O13 0.048(5) 0.020(5) 0.030(4) 0.002(3) 0.002(4) -0.009(4)
O14 0.078(7) 0.040(5) 0.032(5) 0.004(4) 0.018(4) -0.012(5)
O15 0.036(5) 0.011(4) 0.038(4) -0.002(3) -0.003(3) 0.005(4)
O16 0.030(5) 0.027(5) 0.048(5) -0.003(4) -0.002(4) -0.001(4)
O17 0.058(7) 0.097(9) 0.059(6) 0.000(6) 0.005(5) -0.024(6)
O18 0.041(5) 0.041(5) 0.043(5) -0.004(4) 0.002(4) -0.002(4)
O19 0.122(9) 0.047(7) 0.048(6) -0.012(5) -0.035(6) 0.008(6)
O20 0.086(7) 0.033(6) 0.067(6) 0.000(5) -0.009(5) 0.005(5)
O21 0.033(5) 0.025(5) 0.028(4) 0.001(4) -0.003(3) 0.000(4)
O22 0.049(5) 0.029(5) 0.034(5) -0.002(4) 0.004(4) -0.006(4)
O23 0.029(4) 0.014(5) 0.046(5) -0.003(4) 0.005(3) 0.001(3)
O24 0.021(5) 0.036(5) 0.082(6) -0.002(4) 0.012(4) 0.010(4)
O25 0.037(5) 0.050(6) 0.041(5) 0.019(4) -0.013(4) 0.001(4)
O26 0.024(4) 0.031(5) 0.023(4) 0.006(3) 0.002(3) 0.004(3)
O27 0.024(4) 0.033(5) 0.037(4) 0.011(4) 0.001(3) 0.001(3)
O28 0.018(4) 0.028(5) 0.035(4) 0.003(3) -0.007(3) 0.000(3)
O29 0.021(4) 0.035(5) 0.034(4) 0.001(4) 0.006(3) -0.006(3)
O30 0.060(7) 0.099(9) 0.095(8) 0.042(7) -0.027(6) -0.038(6)
O31 0.026(4) 0.019(4) 0.020(4) 0.002(3) 0.000(3) 0.002(3)
O32 0.024(4) 0.020(4) 0.021(4) 0.003(3) -0.002(3) 0.000(3)
O33 0.025(4) 0.020(4) 0.029(4) -0.005(3) 0.004(3) 0.005(3)
O34 0.021(4) 0.029(5) 0.023(4) -0.001(3) 0.003(3) -0.008(3)
O35 0.018(4) 0.030(4) 0.026(4) -0.001(3) 0.000(3) 0.002(3)
O36 0.024(4) 0.021(4) 0.031(4) -0.003(3) 0.005(3) 0.000(3)
O37 0.029(4) 0.017(4) 0.031(4) 0.002(3) 0.002(3) 0.002(3)
O38 0.029(6) 0.038(7) 0.041(6) 0.000 -0.009(5) 0.000
O41 0.027(4) 0.021(4) 0.029(4) 0.000(3) 0.002(3) 0.001(3)
O42 0.05 0.044 0.042 0.001 0 0.011
O43 0.087 0.134 0.071 0 0.016 -0.019
O48 0.060(6) 0.041(5) 0.044(5) -0.002(4) 0.005(4) 0.017(4)
O51 0.086(9) 0.183(14) 0.059(7) -0.007(8) -0.001(6) 0.016(8)
O52 0.098(10) 0.108(11) 0.205(15) 0.049(11) -0.010(10) 0.004(8)
O56 0.062(6) 0.037(6) 0.055(5) -0.010(4) -0.012(4) 0.012(4)
O57 0.111 0.12 0.049 -0.032 -0.038 0.048
N1 0.034(6) 0.015(5) 0.029(5) 0.006(4) 0.003(4) 0.002(4)
N2 0.032(6) 0.027(6) 0.028(5) -0.004(4) 0.002(4) 0.007(4)
N3 0.028(5) 0.011(5) 0.027(5) 0.007(4) -0.004(4) 0.005(4)
N4 0.019(5) 0.021(5) 0.024(5) 0.003(4) 0.003(4) -0.007(4)
N5 0.038(6) 0.022(6) 0.033(5) 0.003(4) -0.005(4) -0.005(4)
N6 0.027(5) 0.018(5) 0.024(5) 0.005(4) 0.000(4) 0.007(4)
C1 0.032(7) 0.018(6) 0.028(6) 0.007(5) -0.005(5) 0.001(5)
C2 0.021(6) 0.029(7) 0.026(6) -0.004(5) 0.003(5) 0.011(5)
C3 0.046(7) 0.010(6) 0.029(6) -0.001(5) 0.000(5) 0.006(5)
C4 0.031(7) 0.009(6) 0.037(6) -0.002(5) -0.004(5) 0.008(5)
C5 0.033(7) 0.020(7) 0.034(6) 0.000(5) 0.009(5) 0.010(5)
C6 0.017(6) 0.019(6) 0.043(6) 0.006(5) 0.002(5) 0.003(5)
C7 0.032(7) 0.017(6) 0.028(6) -0.001(5) 0.009(5) 0.007(5)
C8 0.046(8) 0.030(8) 0.025(6) -0.002(5) 0.002(6) 0.009(6)
C9 0.040(7) 0.025(7) 0.027(6) -0.008(5) -0.006(5) 0.008(5)
C10 0.053(8) 0.029(8) 0.034(7) -0.003(6) 0.008(6) 0.003(6)
C11 0.040(8) 0.021(7) 0.032(6) 0.001(5) 0.008(5) 0.003(5)
C12 0.028(7) 0.019(7) 0.043(7) -0.004(6) 0.013(6) 0.012(5)
C13 0.050(8) 0.022(7) 0.036(6) -0.004(5) 0.008(6) 0.009(6)
C14 0.064(10) 0.084(12) 0.056(10) 0.011(9) 0.004(8) -0.027(9)
C15 0.037(7) 0.023(7) 0.037(7) -0.001(5) 0.000(5) 0.001(5)
C16 0.036(7) 0.036(9) 0.038(7) 0.007(6) 0.005(6) -0.001(6)
C17 0.029(7) 0.018(7) 0.044(7) 0.008(5) 0.001(5) -0.006(5)
C18 0.019(6) 0.030(8) 0.034(6) 0.004(6) 0.005(5) 0.004(5)
C19 0.022(6) 0.021(6) 0.031(6) -0.009(5) -0.007(5) -0.006(5)
C20 0.025(6) 0.019(6) 0.021(5) 0.010(5) 0.003(4) -0.004(5)
C21 0.031(7) 0.028(7) 0.032(6) -0.002(5) 0.005(5) -0.009(5)
C22 0.042(7) 0.020(7) 0.032(6) -0.002(5) 0.004(5) 0.001(5)
C23 0.027(6) 0.023(7) 0.030(6) 0.000(5) 0.003(5) -0.009(5)
C24 0.024(6) 0.018(6) 0.036(6) -0.004(5) 0.004(5) -0.003(5)
C25 0.033(7) 0.027(7) 0.031(6) 0.001(5) 0.001(5) -0.001(5)
C26 0.044(8) 0.023(8) 0.038(7) 0.000(6) 0.005(6) -0.003(6)
C27 0.030(7) 0.029(7) 0.031(6) 0.010(5) -0.004(5) -0.001(5)
C28 0.020(7) 0.028(8) 0.024(6) 0.007(5) 0.007(5) -0.005(5)
C29 0.041(8) 0.029(7) 0.041(7) 0.003(6) -0.001(6) -0.017(6)
C30 0.053(9) 0.021(7) 0.044(8) -0.001(6) 0.019(7) -0.009(6)
C31 0.059(9) 0.026(7) 0.038(7) -0.003(6) -0.012(6) -0.006(6)
C32 0.061(9) 0.028(8) 0.048(8) 0.015(7) 0.006(7) 0.013(7)
C33 0.035(7) 0.024(7) 0.026(6) -0.005(5) -0.001(5) -0.003(5)
C34 0.021(6) 0.026(7) 0.030(7) -0.002(6) 0.003(5) 0.001(5)
C35 0.031(7) 0.022(7) 0.033(6) 0.001(5) 0.011(5) 0.003(5)
C36 0.041(8) 0.030(8) 0.030(6) -0.002(5) -0.001(5) -0.011(6)
C37 0.041(8) 0.023(7) 0.017(6) -0.005(5) -0.002(5) 0.003(6)
C38 0.015(7) 0.034(8) 0.063(9) -0.005(7) -0.001(6) -0.013(6)
Fe1A 0.0272 0.0176 0.0265 0.0018 0.0018 -0.0037
Fe2A 0.0218 0.0179 0.026 -0.0003 0.0013 -0.0019
Fe2F 0.0218 0.0179 0.026 0.0003 0.0013 0.0019
Fe3A 0.023 0.018 0.0274 -0.003 0.0025 0
Fe3F 0.023 0.018 0.0274 0.003 0.0025 0
Fe4A 0.0206 0.018 0.0259 0.0007 0.0015 -0.0011
Fe5A 0.0186 0.0216 0.0271 0.0011 0.0007 -0.0031
Fe5F 0.0186 0.0216 0.0271 -0.0011 0.0007 0.0031
Fe6A 0.0202 0.0217 0.024 0.001 -0.0006 0.0008
K1A 0.0369 0.0428 0.0358 0.0065 -0.0001 -0.0013
K1F 0.0369(16) 0.0428(18) 0.0358(14) -0.0065(12) -0.0001(12) 0.0013(13)
K2A 0.0293 0.0287 0.0441 -0.0029 -0.0036 0.0003
K3A 0.026 0.033 0.075 0.031 0.01 0.01
K3C 0.026 0.033 0.075 0.031 0.01 0.01
K3F 0.026 0.033 0.075 -0.031 0.01 -0.01
K3B 0.026 0.033 0.075 -0.031 0.01 -0.01
K3G 0.026 0.033 0.075 0.031 0.01 0.01
Li1A 0.019 0.014 0.015 -0.005 0 -0.005
Li1C 0.019(12) 0.014(12) 0.015(10) -0.005(9) 0.000(9) -0.005(9)
Li1F 0.019 0.014 0.015 0.005 0 0.005
Li1B 0.019 0.014 0.015 0.005 0 0.005
Li1G 0.019 0.014 0.015 -0.005 0 -0.005
O1A 0.041 0.024 0.046 -0.005 0.012 -0.009
O2A 0.057 0.037 0.068 -0.006 0.036 -0.017
O3A 0.042 0.032 0.022 0 -0.007 -0.004
O4A 0.103 0.039 0.038 0.006 -0.033 0.01
O5A 0.041 0.037 0.044 -0.004 0.003 -0.001
O6A 0.059 0.037 0.049 -0.005 0.001 -0.017
O7A 0.053 0.062 0.045 -0.007 -0.002 0.004
O8A 0.235 0.44 0.06 -0.001 -0.012 0.27
O9A 0.045 0.023 0.032 -0.001 0.004 -0.001
O10A 0.071 0.04 0.045 -0.009 0.02 -0.007
O11A 0.029 0.017 0.035 0.002 -0.001 -0.004
O12A 0.034 0.04 0.046 0.01 -0.011 -0.007
O13A 0.048 0.02 0.03 -0.002 0.002 0.009
O14A 0.078 0.04 0.032 -0.004 0.018 0.012
O14C 0.078 0.04 0.032 -0.004 0.018 0.012
O14B 0.078 0.04 0.032 0.004 0.018 -0.012
O15A 0.036 0.011 0.038 0.002 -0.003 -0.005
O16A 0.03 0.027 0.048 0.003 -0.002 0.001
O17A 0.058 0.097 0.059 0 0.005 0.024
O18A 0.041 0.041 0.043 0.004 0.002 0.002
O18F 0.041 0.041 0.043 -0.004 0.002 -0.002
O18G 0.041 0.041 0.043 0.004 0.002 0.002
O19A 0.122 0.047 0.048 0.012 -0.035 -0.008
O19F 0.122 0.047 0.048 -0.012 -0.035 0.008
O19G 0.122 0.047 0.048 0.012 -0.035 -0.008
O20A 0.086 0.033 0.067 0 -0.009 -0.005
O21A 0.033 0.025 0.028 -0.001 -0.003 0
O22A 0.049 0.029 0.034 0.002 0.004 0.006
O23A 0.029 0.014 0.046 0.003 0.005 -0.001
O24A 0.021 0.036 0.082 0.002 0.012 -0.01
O25F 0.037 0.05 0.041 0.019 -0.013 0.001
O26F 0.024 0.031 0.023 0.006 0.002 0.004
O26A 0.024 0.031 0.023 -0.006 0.002 -0.004
O27F 0.024 0.033 0.037 0.011 0.001 0.001
O27G 0.024 0.033 0.037 -0.011 0.001 -0.001
O27A 0.024 0.033 0.037 -0.011 0.001 -0.001
O28F 0.018 0.028 0.035 0.003 -0.007 0
O28A 0.018 0.028 0.035 -0.003 -0.007 0
O29F 0.021 0.035 0.034 0.001 0.006 -0.006
O29G 0.021 0.035 0.034 -0.001 0.006 0.006
O29A 0.021 0.035 0.034 -0.001 0.006 0.006
O30F 0.06 0.099 0.095 0.042 -0.027 -0.038
O31A 0.026 0.019 0.02 -0.002 0 -0.002
O32A 0.024 0.02 0.021 -0.003 -0.002 0
O33A 0.025 0.02 0.029 0.005 0.004 -0.005
O34A 0.021 0.029 0.023 0.001 0.003 0.008
O35A 0.018 0.03 0.026 0.001 0 -0.002
O36A 0.024 0.021 0.031 0.003 0.005 0
O37A 0.029 0.017 0.031 -0.002 0.002 -0.002
O41A 0.027 0.021 0.029 0 0.002 -0.001
O42A 0.05 0.044 0.042 -0.001 0 -0.011
O43A 0.087 0.134 0.071 0 0.016 0.019
O48A 0.06 0.041 0.044 0.002 0.005 -0.017
O51A 0.086 0.183 0.059 0.007 -0.001 -0.016
O52A 0.098 0.108 0.205 -0.049 -0.01 -0.004
O56A 0.062 0.037 0.055 0.01 -0.012 -0.012
O57A 0.111 0.12 0.049 0.032 -0.038 -0.048
N1A 0.034 0.015 0.029 -0.006 0.003 -0.002
N2A 0.032 0.027 0.028 0.004 0.002 -0.007
N3A 0.028 0.011 0.027 -0.007 -0.004 -0.005
N4A 0.019 0.021 0.024 -0.003 0.003 0.007
N5A 0.038 0.022 0.033 -0.003 -0.005 0.005
N5F 0.038 0.022 0.033 0.003 -0.005 -0.005
N5G 0.038 0.022 0.033 -0.003 -0.005 0.005
N6A 0.027 0.018 0.024 -0.005 0 -0.007
C1A 0.032 0.018 0.028 -0.007 -0.005 -0.001
C2A 0.021 0.029 0.026 0.004 0.003 -0.011
C3A 0.046 0.01 0.029 0.001 0 -0.006
C4A 0.031 0.009 0.037 0.002 -0.004 -0.008
C5A 0.033 0.02 0.034 0 0.009 -0.01
C6A 0.017 0.019 0.043 -0.006 0.002 -0.003
C7A 0.032 0.017 0.028 0.001 0.009 -0.007
C8A 0.046 0.03 0.025 0.002 0.002 -0.009
C9A 0.04 0.025 0.027 0.008 -0.006 -0.008
C10A 0.053 0.029 0.034 0.003 0.008 -0.003
C11A 0.04 0.021 0.032 -0.001 0.008 -0.003
C12A 0.028 0.019 0.043 0.004 0.013 -0.012
C13A 0.05 0.022 0.036 0.004 0.008 -0.009
C14A 0.064 0.084 0.056 -0.011 0.004 0.027
C15A 0.037 0.023 0.037 0.001 0 -0.001
C16A 0.036 0.036 0.038 -0.007 0.005 0.001
C17A 0.029 0.018 0.044 -0.008 0.001 0.006
C18A 0.019 0.03 0.034 -0.004 0.005 -0.004
C19A 0.022 0.021 0.031 0.009 -0.007 0.006
C20A 0.025 0.019 0.021 -0.01 0.003 0.004
C21A 0.031 0.028 0.032 0.002 0.005 0.009
C22A 0.042 0.02 0.032 0.002 0.004 -0.001
C23A 0.027 0.023 0.03 0 0.003 0.009
C24A 0.024 0.018 0.036 0.004 0.004 0.003
C25A 0.033 0.027 0.031 -0.001 0.001 0.001
C26A 0.044 0.023 0.038 0 0.005 0.003
C27A 0.03 0.029 0.031 -0.01 -0.004 0.001
C28A 0.02 0.028 0.024 -0.007 0.007 0.005
C29A 0.041 0.029 0.041 -0.003 -0.001 0.017
C30A 0.053 0.021 0.044 0.001 0.019 0.009
C31A 0.059 0.026 0.038 0.003 -0.012 0.006
C32A 0.061 0.028 0.048 -0.015 0.006 -0.013
C33A 0.035 0.024 0.026 0.005 -0.001 0.003
C34A 0.021 0.026 0.03 0.002 0.003 -0.001
C35A 0.031 0.022 0.033 -0.001 0.011 -0.003
C36A 0.041 0.03 0.03 0.002 -0.001 0.011
C37F 0.041 0.023 0.017 -0.005 -0.002 0.003
C38F 0.015 0.034 0.063 -0.005 -0.001 -0.013
loop_
_geom_bond_atom_site_label_1
_geom_bond_atom_site_label_2
_geom_bond_site_symmetry_1
_geom_bond_site_symmetry_2
Fe1 O1 1_555 1_555
Fe2 O9 1_555 1_555
Fe3 O13 1_555 1_555
Fe4 O21 1_555 1_555
Fe5 O27 1_555 1_555
Fe6 O31 1_555 1_555
K1 O21 1_555 1_555
K2 O3 1_555 1_555
K3 O7 1_555 1_555
Li1 O5 1_555 1_555
Li2 O5 1_555 1_555
O1 C8 1_555 1_555
O2 C8 1_555 1_555
O3 Fe1 1_555 1_555
O4 C10 1_555 1_555
O5 C12 1_555 1_555
O6 C12 1_555 1_555
O7 Li2 1_555 1_555
O8 C14 1_555 1_555
O9 C16 1_555 1_555
O10 C16 1_555 1_555
O11 Fe2 1_555 1_555
O12 C18 1_555 1_555
O13 C26 1_555 1_555
O14 C26 1_555 1_555
O15 Fe3 1_555 1_555
O16 C28 1_555 1_555
O17 C30 1_555 1_555
O18 C30 1_555 1_555
O19 C32 1_555 1_555
O20 C32 1_555 1_555
O21 C34 1_555 1_555
O22 C34 1_555 1_555
O23 Fe4 1_555 1_555
O24 C36 1_555 1_555
O25 C37 1_555 1_555
O26 Fe2 1_555 1_555
O27 C37 1_555 1_555
O28 Fe3 1_555 1_555
O29 Fe5 1_555 1_555
O30 C38 1_555 1_555
O31 Fe2 1_555 1_555
O32 Fe3 1_555 1_555
O33 Fe1 1_555 1_555
O34 Fe4 1_555 1_555
O35 Fe4 1_555 1_555
O36 Fe2 1_555 1_555
O37 Fe1 1_555 1_555
O38 Fe6 1_555 1_555
O41 Fe1 1_555 1_555
O42 K1 1_555 1_555
O43 K1 1_555 1_555
O48 Li2 1_555 1_555
O51 K2 1_555 1_555
O52 K3 1_555 1_555
O53 Li1 1_555 1_555
O56 K2 1_555 1_555
O57 K1 1_555 1_555
O58 K3 1_555 1_555
N1 Fe1 1_555 1_555
N2 Li2 1_555 1_555
N3 Fe2 1_555 1_555
N4 Fe3 1_555 1_555
N5 C22 1_555 1_555
N6 Fe4 1_555 1_555
C1 H1 1_555 1_555
H2 C1 1_555 1_555
C2 N1 1_555 1_555
H3 C2 1_555 1_555
C3 C2 1_555 1_555
H4 C3 1_555 1_555
H5 C3 1_555 1_555
C4 N2 1_555 1_555
H6 C4 1_555 1_555
C5 C4 1_555 1_555
H7 C5 1_555 1_555
H8 C5 1_555 1_555
C6 N3 1_555 1_555
H9 C6 1_555 1_555
C7 N1 1_555 1_555
H10 C7 1_555 1_555
H11 C7 1_555 1_555
C8 C7 1_555 1_555
C9 N1 1_555 1_555
H12 C9 1_555 1_555
H13 C9 1_555 1_555
C10 O3 1_555 1_555
C11 N2 1_555 1_555
H14 C11 1_555 1_555
H15 C11 1_555 1_555
C12 C11 1_555 1_555
C13 N2 1_555 1_555
H16 C13 1_555 1_555
H17 C13 1_555 1_555
C14 O7 1_555 1_555
C15 N3 1_555 1_555
H18 C15 1_555 1_555
H19 C15 1_555 1_555
C16 C15 1_555 1_555
C17 N3 1_555 1_555
H20 C17 1_555 1_555
H21 C17 1_555 1_555
C18 O11 1_555 1_555
C19 H22 1_555 1_555
H23 C19 1_555 1_555
C20 N4 1_555 1_555
H24 C20 1_555 1_555
C21 C20 1_555 1_555
H25 C21 1_555 1_555
H26 C21 1_555 1_555
C22 C21 1_555 1_555
H27 C22 1_555 1_555
C23 C22 1_555 1_555
H28 C23 1_555 1_555
H29 C23 1_555 1_555
C24 N6 1_555 1_555
H30 C24 1_555 1_555
C25 N4 1_555 1_555
H31 C25 1_555 1_555
H32 C25 1_555 1_555
C26 C25 1_555 1_555
C27 N4 1_555 1_555
H33 C27 1_555 1_555
H34 C27 1_555 1_555
C28 O15 1_555 1_555
C29 N5 1_555 1_555
H35 C29 1_555 1_555
H36 C29 1_555 1_555
C30 C29 1_555 1_555
C31 N5 1_555 1_555
H37 C31 1_555 1_555
H38 C31 1_555 1_555
C32 C31 1_555 1_555
C33 N6 1_555 1_555
H39 C33 1_555 1_555
H40 C33 1_555 1_555
C34 C33 1_555 1_555
C35 N6 1_555 1_555
H41 C35 1_555 1_555
H42 C35 1_555 1_555
C36 O23 1_555 1_555
C37 O26 1_555 1_555
C38 O28 1_555 1_555
Fe1A O1A 1_555 1_555
Fe2A O9A 1_555 1_555
Fe2F O26F 1_555 1_555
Fe3A O13A 1_555 1_555
Fe3F O28F 1_555 1_555
Fe4A O21A 1_555 1_555
Fe5A O27A 1_555 1_555
Fe5F O27F 1_555 1_555
Fe6A O38 1_555 1_555
K1A O21A 1_555 1_555
K1F O27 1_555 1_555
K2A O11 1_555 1_555
K3A O7A 1_555 1_555
K3C O14 1_555 1_555
K3F O18 1_555 1_555
K3B O14A 1_555 1_555
K3G O18A 1_555 1_555
Li1A O5A 1_555 1_555
Li1C O14 1_555 1_555
Li1F O18 1_555 1_555
Li1B O14A 1_555 1_555
Li1G O18A 1_555 1_555
Li2A O5A 1_555 1_555
Li2F O18 1_555 1_555
Li2G O18A 1_555 1_555
O1A C8A 1_555 1_555
O2A C8A 1_555 1_555
O3A Fe1A 1_555 1_555
O4A C10A 1_555 1_555
O5A C12A 1_555 1_555
O6A C12A 1_555 1_555
O7A Li2A 1_555 1_555
O8A C14A 1_555 1_555
O9A C16A 1_555 1_555
O10A C16A 1_555 1_555
O11A K2 1_555 1_555
O12A C18A 1_555 1_555
O13A C26A 1_555 1_555
O14A C26A 1_555 1_555
O14C K3 1_555 1_555
O14B K3A 1_555 1_555
O15A Fe3A 1_555 1_555
O16A C28A 1_555 1_555
O17A C30A 1_555 1_555
O18A C30A 1_555 1_555
O18F K3 1_555 1_555
O18G K3A 1_555 1_555
O19A Li1G 1_555 1_555
O19F Li1 1_555 1_555
O19G Li1A 1_555 1_555
O20A C32A 1_555 1_555
O21A C34A 1_555 1_555
O22A C34A 1_555 1_555
O23A K2 1_555 1_555
O24A C36A 1_555 1_555
O25F C37F 1_555 1_555
O26F K1F 1_555 1_555
O26A Fe2A 1_555 1_555
O27F K1 1_555 1_555
O27G K1A 1_555 1_555
O28F C38F 1_555 1_555
O28A Fe3A 1_555 1_555
O29F K1 1_555 1_555
O29G K1A 1_555 1_555
O29A Fe5A 1_555 1_555
O30F C38F 1_555 1_555
O31A Fe2A 1_555 1_555
O32A Fe3A 1_555 1_555
O33A Fe1A 1_555 1_555
O34A Fe4A 1_555 1_555
O35A K2 1_555 1_555
O36A K2 1_555 1_555
O37A Fe1A 1_555 1_555
O41A Fe1A 1_555 1_555
O42A K1A 1_555 1_555
O43A K1A 1_555 1_555
O48A Li2A 1_555 1_555
O51A K2A 1_555 1_555
O52A K3A 1_555 1_555
O53A Li1A 1_555 1_555
O56A K2A 1_555 1_555
O57A K1A 1_555 1_555
O58A K3A 1_555 1_555
N1A Fe1A 1_555 1_555
N2A Li2A 1_555 1_555
N3A Fe2A 1_555 1_555
N4A Fe3A 1_555 1_555
N5A Li1G 1_555 1_555
N5F Li1 1_555 1_555
N5G Li1A 1_555 1_555
N6A Fe4A 1_555 1_555
C1A H1A 1_555 1_555
H2A C1A 1_555 1_555
C2A N1A 1_555 1_555
H3A C2A 1_555 1_555
C3A C2A 1_555 1_555
H4A C3A 1_555 1_555
H5A C3A 1_555 1_555
C4A N2A 1_555 1_555
H6A C4A 1_555 1_555
C5A C4A 1_555 1_555
H7A C5A 1_555 1_555
H8A C5A 1_555 1_555
C6A N3A 1_555 1_555
H9A C6A 1_555 1_555
C7A N1A 1_555 1_555
H10A C7A 1_555 1_555
H11A C7A 1_555 1_555
C8A C7A 1_555 1_555
C9A N1A 1_555 1_555
H12A C9A 1_555 1_555
H13A C9A 1_555 1_555
C10A O3A 1_555 1_555
C11A N2A 1_555 1_555
H14A C11A 1_555 1_555
H15A C11A 1_555 1_555
C12A C11A 1_555 1_555
C13A N2A 1_555 1_555
H16A C13A 1_555 1_555
H17A C13A 1_555 1_555
C14A O7A 1_555 1_555
C15A N3A 1_555 1_555
H18A C15A 1_555 1_555
H19A C15A 1_555 1_555
C16A C15A 1_555 1_555
C17A N3A 1_555 1_555
H20A C17A 1_555 1_555
H21A C17A 1_555 1_555
C18A O11A 1_555 1_555
C19A H22A 1_555 1_555
H23A C19A 1_555 1_555
C20A N4A 1_555 1_555
H24A C20A 1_555 1_555
C21A C20A 1_555 1_555
H25A C21A 1_555 1_555
H26A C21A 1_555 1_555
C22A N5A 1_555 1_555
H27A C22A 1_555 1_555
C23A C22A 1_555 1_555
H28A C23A 1_555 1_555
H29A C23A 1_555 1_555
C24A N6A 1_555 1_555
H30A C24A 1_555 1_555
C25A N4A 1_555 1_555
H31A C25A 1_555 1_555
H32A C25A 1_555 1_555
C26A C25A 1_555 1_555
C27A N4A 1_555 1_555
H33A C27A 1_555 1_555
H34A C27A 1_555 1_555
C28A O15A 1_555 1_555
C29A N5A 1_555 1_555
H35A C29A 1_555 1_555
H36A C29A 1_555 1_555
C30A C29A 1_555 1_555
C31A N5A 1_555 1_555
H37A C31A 1_555 1_555
H38A C31A 1_555 1_555
C32A O19A 1_555 1_555
C33A N6A 1_555 1_555
H39A C33A 1_555 1_555
H40A C33A 1_555 1_555
C34A C33A 1_555 1_555
C35A N6A 1_555 1_555
H41A C35A 1_555 1_555
H42A C35A 1_555 1_555
C36A O23A 1_555 1_555
C37F O26F 1_555 1_555
C38F O29F 1_555 1_555
Fe3 O37 1_555 1_555
Fe4 O36 1_555 1_555
Fe5 O31 1_555 1_555
Fe5 O32 1_555 1_555
Fe5 O33 1_555 1_555
Fe5 O34 1_555 1_555
Fe6 O32 1_555 1_555
Fe6 O35 1_555 1_555
Fe6 O41 1_555 1_555
K1 O26 1_555 1_555
K2 O15 1_555 1_555
K2 O37 1_555 1_555
K2 O41 1_555 1_555
Li1 O14C 1_555 1_555
Li1 O18F 1_555 1_555
Li2 O18F 1_555 1_555
O19 Li1F 1_555 1_555
O23 K2A 1_555 1_555
O29 C38 1_555 1_555
O29 K1F 1_555 1_555
O35 K2A 1_555 1_555
O36 K2A 1_555 1_555
N5 Li1F 1_555 1_555
C1 C2 1_555 1_555
C1 C6 1_555 1_555
C3 C4 1_555 1_555
C5 C6 1_555 1_555
C9 C10 1_555 1_555
C13 C14 1_555 1_555
C17 C18 1_555 1_555
C19 C20 1_555 1_555
C19 C24 1_555 1_555
C23 C24 1_555 1_555
C27 C28 1_555 1_555
C35 C36 1_555 1_555
Fe2A O11A 1_555 1_555
Fe2A O36A 1_555 1_555
Fe3A O37A 1_555 1_555
Fe4A O23A 1_555 1_555
Fe4A O35A 1_555 1_555
Fe4A O36A 1_555 1_555
Fe5A O31A 1_555 1_555
Fe5A O32A 1_555 1_555
Fe5A O33A 1_555 1_555
Fe5A O34A 1_555 1_555
Fe5F O29F 1_555 1_555
Fe6A O31A 1_555 1_555
Fe6A O32A 1_555 1_555
Fe6A O35A 1_555 1_555
Fe6A O41A 1_555 1_555
K1A O26A 1_555 1_555
K2A O3A 1_555 1_555
K2A O15A 1_555 1_555
K2A O37A 1_555 1_555
K2A O41A 1_555 1_555
Li1A O14B 1_555 1_555
Li1A O18G 1_555 1_555
Li2A O18G 1_555 1_555
O27F C37F 1_555 1_555
C1A C2A 1_555 1_555
C1A C6A 1_555 1_555
C3A C4A 1_555 1_555
C5A C6A 1_555 1_555
C9A C10A 1_555 1_555
C13A C14A 1_555 1_555
C17A C18A 1_555 1_555
C19A C20A 1_555 1_555
C19A C24A 1_555 1_555
C21A C22A 1_555 1_555
C23A C24A 1_555 1_555
C27A C28A 1_555 1_555
C31A C32A 1_555 1_555
C35A C36A 1_555 1_555

#END
