
#######################################################################
#
#                 Cambridge Crystallographic Data Centre
#                                CCDC 
#
#######################################################################
#
# If this CIF has been generated from an entry in the Cambridge 
# Structural Database, then it will include bibliographic, chemical, 
# crystal, experimental, refinement or atomic coordinate data resulting 
# from the CCDC's data processing and validation procedures.
#
#######################################################################

data_MOFKUO
_chemical_formula_moiety         '(C48 H78 Cu3 N36 O65 P2 W18)n'
_symmetry_cell_setting           monoclinic
_symmetry_space_group_name_H-M   'C 2/c'
_symmetry_Int_Tables_number      15
_space_group_name_Hall           '-C 2yc'
loop_
_symmetry_equiv_pos_site_id
_symmetry_equiv_pos_as_xyz
1 x,y,z
2 1/2+x,1/2+y,z
3 -x,y,1/2-z
4 1/2-x,1/2+y,1/2-z
5 -x,-y,-z
6 1/2-x,1/2-y,-z
7 x,-y,1/2+z
8 1/2+x,1/2-y,1/2+z
_cell_length_a                   14.649(5)
_cell_length_b                   26.362(5)
_cell_length_c                   29.960(5)
_cell_angle_alpha                90
_cell_angle_beta                 95.609(5)
_cell_angle_gamma                90
_cell_volume                     11514.5
loop_
_atom_site_label
_atom_site_type_symbol
_atom_site_fract_x
_atom_site_fract_y
_atom_site_fract_z
O1 O 1.4283(11) 0.8880(5) 0.0718(5)
O2 O 1.4040(11) 0.8840(6) 0.4632(6)
O3 O 1.300(2) 0.8707(11) -0.0007(9)
P1 P 1.51770(18) 0.70770(10) 0.31640(10)
W1 W 1.75759(3) 0.701820(17) 0.310790(17)
W2 W 1.63708(3) 0.823530(17) 0.312440(17)
W3 W 1.40781(3) 0.826400(16) 0.313710(17)
W4 W 1.42983(3) 0.744680(18) 0.415003(16)
W5 W 1.63613(3) 0.593820(17) 0.310060(17)
W6 W 1.54394(3) 0.632940(18) 0.415540(16)
W7 W 1.27615(3) 0.706672(17) 0.315498(17)
W8 W 1.66012(3) 0.743890(18) 0.414900(17)
W9 W 1.38712(3) 0.595140(17) 0.316240(17)
O4 O 1.4269(5) 0.6809(3) 0.3029(3)
O5 O 1.5316(5) 0.7078(3) 0.3697(3)
O6 O 1.7505(5) 0.6305(3) 0.3176(3)
O7 O 1.6421(5) 0.7987(3) 0.3723(3)
O8 O 1.6030(5) 0.8344(3) 0.2484(2)
O9 O 1.5530(5) 0.7651(3) 0.4390(3)
O10 O 1.4617(5) 0.6792(3) 0.4410(3)
O11 O 1.6430(5) 0.5957(3) 0.2470(3)
O12 O 1.7478(5) 0.6949(3) 0.2473(3)
O13 O 1.6196(6) 0.6102(3) 0.3717(3)
O14 O 1.3385(5) 0.7146(3) 0.3762(3)
O15 O 1.7435(6) 0.7681(3) 0.4527(3)
O16 O 1.7287(5) 0.7136(3) 0.3704(3)
O17 O 1.5991(5) 0.6789(3) 0.3001(3)
O18 O 1.3689(5) 0.7699(3) 0.4556(3)
O19 O 1.8728(6) 0.7107(3) 0.3199(3)
O20 O 1.3194(5) 0.7732(3) 0.3055(3)
O21 O 1.5239(5) 0.8585(3) 0.3215(3)
O22 O 1.4298(5) 0.7991(3) 0.3740(3)
O23 O 1.2831(6) 0.6340(3) 0.3250(3)
O24 O 1.6421(5) 0.6775(3) 0.4381(3)
O25 O 1.5529(7) 0.5850(3) 0.4537(3)
O26 O 1.7142(6) 0.8715(3) 0.3206(3)
O27 O 1.4441(6) 0.6110(3) 0.3746(3)
O28 O 1.1666(6) 0.7177(4) 0.3284(3)
O29 O 1.6807(6) 0.5340(3) 0.3191(3)
O30 O 1.7124(6) 0.7698(3) 0.2990(3)
O31 O 1.5102(5) 0.5813(3) 0.3019(3)
O32 O 1.3417(5) 0.8765(3) 0.3274(3)
O33 O 1.5152(5) 0.7633(3) 0.3010(3)
O34 O 1.3479(6) 0.5364(3) 0.3273(3)
Cu1 Cu 1.2500 0.7500 0.5000
Cu2 Cu 1.23375(10) 0.54119(5) 0.67779(5)
C1 C 1.3344(9) 0.6967(6) 0.5857(5)
H1 H 1.2773 0.6912 0.5960
C2 C 1.4354(9) 0.7182(5) 0.5435(5)
H2 H 1.4656 0.7305 0.5198
C3 C 1.5739(9) 0.6883(7) 0.5913(5)
H3 H 1.5954 0.7092 0.6168
H4 H 1.6077 0.6979 0.5663
C4 C 1.5915(9) 0.6320(6) 0.6028(5)
H5 H 1.5549 0.6223 0.6267
H6 H 1.6556 0.6276 0.6137
C5 C 1.5681(10) 0.5963(7) 0.5621(5)
H7 H 1.6233 0.5893 0.5477
H8 H 1.5245 0.6129 0.5404
C6 C 1.5265(10) 0.5454(7) 0.5772(5)
H9 H 1.5241 0.5212 0.5527
H10 H 1.5658 0.5315 0.6022
C7 C 1.4042(9) 0.5484(5) 0.6309(4)
H11 H 1.4405 0.5398 0.6570
C8 C 1.2931(10) 0.5691(6) 0.5841(5)
H12 H 1.2339 0.5773 0.5721
C9 C 1.2826(9) 0.6399(5) 0.4749(5)
H13 H 1.3293 0.6354 0.4979
C10 C 1.1736(10) 0.6697(5) 0.4316(5)
H14 H 1.1292 0.6918 0.4186
C11 C 1.2889(10) 0.5532(6) 0.4406(6)
H15 H 1.3524 0.5518 0.4533
H16 H 1.2873 0.5448 0.4090
C12 C 1.2339(10) 0.5137(6) 0.4637(6)
H17 H 1.2580 0.4805 0.4573
H18 H 1.2452 0.5190 0.4958
C13 C 1.1305(11) 0.5123(6) 0.4518(6)
H19 H 1.1050 0.4842 0.4673
H20 H 1.1039 0.5434 0.4622
C14 C 1.1049(11) 0.5069(7) 0.4028(6)
H21 H 1.1309 0.4758 0.3923
H22 H 1.1299 0.5351 0.3872
C15 C 0.9538(10) 0.4695(7) 0.3697(6)
H23 H 0.9760 0.4393 0.3589
C16 C 0.8698(12) 0.5292(7) 0.3884(7)
H24 H 0.8176 0.5475 0.3934
C17 C 1.1262(12) 0.5356(7) 0.7611(5)
H25 H 1.1273 0.5707 0.7648
C18 C 1.1495(10) 0.4635(5) 0.7347(5)
H26 H 1.1672 0.4369 0.7171
C19 C 1.0742(11) 0.4114(6) 0.7939(6)
H27 H 1.0231 0.4194 0.8111
H28 H 1.1246 0.4001 0.8150
C20 C 1.0470(11) 0.3696(6) 0.7633(6)
H29 H 1.0923 0.3675 0.7418
H30 H 1.0518 0.3386 0.7807
C21 C 1.3739(9) 0.5543(6) 0.7583(4)
H31 H 1.3771 0.5196 0.7636
C22 C 1.3372(9) 0.6234(5) 0.7282(5)
H32 H 1.3109 0.6484 0.7092
C23 C 1.4236(15) 0.6831(8) 0.7833(6)
H33 H 1.3746 0.6975 0.7988
H34 H 1.4768 0.6786 0.8048
C24 C 1.446(2) 0.7174(13) 0.7479(11)
H35 H 1.4211 0.7052 0.7187
H36 H 1.4224 0.7512 0.7525
N1 N 1.3449(7) 0.7200(4) 0.5451(3)
N2 N 1.4120(8) 0.6829(5) 0.6085(4)
N3 N 1.4765(8) 0.6969(5) 0.5796(4)
N4 N 1.4341(8) 0.5528(4) 0.5908(4)
N5 N 1.3626(8) 0.5675(5) 0.5598(4)
N6 N 1.3141(7) 0.5579(4) 0.6283(3)
N7 N 1.2349(7) 0.6828(4) 0.4679(4)
N8 N 1.1843(8) 0.6218(4) 0.4169(4)
N9 N 1.2549(7) 0.6042(4) 0.4450(4)
N10 N 1.0034(9) 0.5058(6) 0.3927(5)
N11 N 0.9509(10) 0.5443(6) 0.4030(7)
N12 N 0.8652(8) 0.4856(5) 0.3655(4)
N13 N 1.1651(8) 0.5130(4) 0.7284(4)
N14 N 1.0854(10) 0.5050(5) 0.7884(4)
N15 N 1.1032(8) 0.4596(5) 0.7715(4)
N16 N 1.3219(7) 0.5750(4) 0.7229(4)
N17 N 1.4200(9) 0.5883(6) 0.7846(4)
N18 N 1.3941(7) 0.6325(5) 0.7635(4)
P1B P 1.48230(18) 0.70770(10) 0.18360(10)
W1B W 1.24241(3) 0.701820(17) 0.189210(17)
W2B W 1.36292(3) 0.823530(17) 0.187560(17)
W3B W 1.59219(3) 0.826400(16) 0.186290(17)
W4B W 1.57017(3) 0.744680(18) 0.084997(16)
W5B W 1.36387(3) 0.593820(17) 0.189940(17)
W6B W 1.45606(3) 0.632940(18) 0.084460(16)
W7B W 1.72385(3) 0.706672(17) 0.184502(17)
W8B W 1.33988(3) 0.743890(18) 0.085100(17)
W9B W 1.61288(3) 0.595140(17) 0.183760(17)
O4B O 1.5731(5) 0.6809(3) 0.1971(3)
O5B O 1.4684(5) 0.7078(3) 0.1303(3)
O6B O 1.2495(5) 0.6305(3) 0.1824(3)
O7B O 1.3579(5) 0.7987(3) 0.1277(3)
O8B O 1.3970(5) 0.8344(3) 0.2516(2)
O9B O 1.4470(5) 0.7651(3) 0.0610(3)
O10B O 1.5383(5) 0.6792(3) 0.0590(3)
O11B O 1.3570(5) 0.5957(3) 0.2530(3)
O12B O 1.2522(5) 0.6949(3) 0.2527(3)
O13B O 1.3804(6) 0.6102(3) 0.1283(3)
O14B O 1.6615(5) 0.7146(3) 0.1238(3)
O15B O 1.2565(6) 0.7681(3) 0.0473(3)
O16B O 1.2713(5) 0.7136(3) 0.1296(3)
O17B O 1.4009(5) 0.6789(3) 0.1999(3)
O19B O 1.1272(6) 0.7107(3) 0.1801(3)
O20B O 1.6806(5) 0.7732(3) 0.1945(3)
O21B O 1.4761(5) 0.8585(3) 0.1785(3)
O22B O 1.5702(5) 0.7991(3) 0.1260(3)
O23B O 1.7169(6) 0.6340(3) 0.1750(3)
O24B O 1.3579(5) 0.6775(3) 0.0619(3)
O25B O 1.4471(7) 0.5850(3) 0.0463(3)
O26B O 1.2858(6) 0.8715(3) 0.1794(3)
O27B O 1.5559(6) 0.6110(3) 0.1254(3)
O28B O 1.8334(6) 0.7177(4) 0.1716(3)
O30B O 1.2876(6) 0.7698(3) 0.2010(3)
O31B O 1.4898(5) 0.5813(3) 0.1981(3)
O32B O 1.6583(5) 0.8765(3) 0.1726(3)
O33B O 1.4848(5) 0.7633(3) 0.1990(3)
O34B O 1.6521(6) 0.5364(3) 0.1727(3)
O29B O 1.3193(6) 0.5340(3) 0.1809(3)
C1E C 1.1656(9) 0.8033(6) 0.4143(5)
H1E H 1.2227 0.8088 0.4040
C2E C 1.0646(9) 0.7818(5) 0.4565(5)
H2E H 1.0344 0.7695 0.4802
C3E C 0.9261(9) 0.8117(7) 0.4087(5)
H3E H 0.9046 0.7908 0.3832
H4E H 0.8923 0.8021 0.4337
C4E C 0.9085(9) 0.8680(6) 0.3972(5)
H5E H 0.9451 0.8777 0.3733
H6E H 0.8444 0.8724 0.3863
C5E C 0.9319(10) 0.9037(7) 0.4379(5)
H7E H 0.8767 0.9107 0.4523
H8E H 0.9755 0.8871 0.4596
C6E C 0.9735(10) 0.9546(7) 0.4228(5)
H9E H 0.9759 0.9788 0.4473
H10E H 0.9342 0.9685 0.3978
C7E C 1.0958(9) 0.9516(5) 0.3691(4)
H11E H 1.0595 0.9602 0.3430
C8E C 1.2069(10) 0.9309(6) 0.4159(5)
H12E H 1.2661 0.9227 0.4279
C9E C 1.2174(9) 0.8601(5) 0.5251(5)
H13E H 1.1707 0.8646 0.5021
C10E C 1.3264(10) 0.8303(5) 0.5684(5)
H14E H 1.3708 0.8082 0.5814
C11E C 1.2111(10) 0.9468(6) 0.5594(6)
H15E H 1.1476 0.9482 0.5467
H16E H 1.2127 0.9552 0.5910
C12E C 1.2661(10) 0.9863(6) 0.5363(6)
H17E H 1.2420 1.0195 0.5427
H18E H 1.2548 0.9810 0.5042
C13E C 1.3695(11) 0.9877(6) 0.5482(6)
H19E H 1.3950 1.0158 0.5327
H20E H 1.3961 0.9566 0.5378
C14E C 1.3951(11) 0.9931(7) 0.5972(6)
H21E H 1.3691 1.0242 0.6077
H22E H 1.3701 0.9649 0.6128
C15E C 1.5462(10) 1.0305(7) 0.6303(6)
H23E H 1.5240 1.0607 0.6411
C16E C 1.6302(12) 0.9708(7) 0.6116(7)
H24E H 1.6824 0.9525 0.6066
N1E N 1.1551(7) 0.7800(4) 0.4549(3)
N2E N 1.0880(8) 0.8171(5) 0.3915(4)
N3E N 1.0235(8) 0.8031(5) 0.4204(4)
N4E N 1.0659(8) 0.9472(4) 0.4092(4)
N5E N 1.1374(8) 0.9325(5) 0.4402(4)
N6E N 1.1859(7) 0.9421(4) 0.3717(3)
N7E N 1.2651(7) 0.8172(4) 0.5321(4)
N8E N 1.3157(8) 0.8782(4) 0.5831(4)
N9E N 1.2451(7) 0.8958(4) 0.5550(4)
N10E N 1.4966(9) 0.9942(6) 0.6073(5)
N11E N 1.5491(10) 0.9557(6) 0.5970(7)
N12E N 1.6348(8) 1.0144(5) 0.6345(4)
C17B C 0.8738(12) 0.5356(7) 0.7389(5)
H25B H 0.8727 0.5707 0.7352
C18B C 0.8505(10) 0.4635(5) 0.7653(5)
H26B H 0.8328 0.4369 0.7829
C19B C 0.9258(11) 0.4114(6) 0.7061(6)
H27B H 0.9769 0.4194 0.6889
H28B H 0.8754 0.4001 0.6850
C20B C 0.9530(11) 0.3696(6) 0.7367(6)
H29B H 0.9077 0.3675 0.7582
H30B H 0.9482 0.3386 0.7193
N13B N 0.8349(8) 0.5130(4) 0.7716(4)
N14B N 0.9146(10) 0.5050(5) 0.7116(4)
N15B N 0.8968(8) 0.4596(5) 0.7285(4)
C21B C 1.6261(9) 0.5543(6) 0.7417(4)
H31B H 1.6229 0.5196 0.7364
C22B C 1.6628(9) 0.6234(5) 0.7718(5)
H32B H 1.6891 0.6484 0.7908
C23B C 1.5764(15) 0.6831(8) 0.7167(6)
H33B H 1.6254 0.6975 0.7012
H34B H 1.5232 0.6786 0.6952
C24B C 1.554(2) 0.7174(13) 0.7521(11)
H35B H 1.5789 0.7052 0.7813
H36B H 1.5776 0.7512 0.7475
N16B N 1.6781(7) 0.5750(4) 0.7771(4)
N17B N 1.5800(9) 0.5883(6) 0.7154(4)
N18B N 1.6059(7) 0.6325(5) 0.7365(4)
Cu2B Cu 0.76625(10) 0.54119(5) 0.82221(5)
O18E O 1.1311(5) 0.7301(3) 0.5444(3)
W4E W 1.07017(3) 0.755320(18) 0.584997(16)
O18B O 1.6311(5) 0.7699(3) 0.0444(3)
O29D O 1.3193(6) 0.4660(3) 0.6809(3)
O29F O 0.6807(6) 0.4660(3) 0.8191(3)
O32E O 1.1583(5) 0.6235(3) 0.6726(3)
O32G O 0.8417(5) 0.6235(3) 0.8274(3)
Cu2A Cu 1.73375(10) 1.04119(5) 0.67779(5)
Cu2B_2 Cu 1.76625(10) 0.54119(5) 0.82221(5)
Cu2D Cu 0.76625(10) 0.45881(5) 0.32221(5)
Cu2D_2 Cu 1.76625(10) 0.45881(5) 0.32221(5)
Cu2E Cu 1.26625(10) 0.95881(5) 0.32221(5)
Cu2F Cu 1.23375(10) 0.45881(5) 0.17779(5)
Cu2G Cu 1.73375(10) 0.95881(5) 0.17779(5)
N6B N 0.6859(7) 0.5579(4) 0.8717(3)
N12D N 1.1348(8) 0.5144(5) 0.6345(4)
N12F N 0.8652(8) 0.5144(5) 0.8655(4)
N16B_2 N 0.6781(7) 0.5750(4) 0.7771(4)
loop_
_geom_bond_atom_site_label_1
_geom_bond_atom_site_label_2
_geom_bond_site_symmetry_1
_geom_bond_site_symmetry_2
P1 O4 1_555 1_555
W1 O6 1_555 1_555
W2 O7 1_555 1_555
W3 O20 1_555 1_555
W4 O5 1_555 1_555
W5 O6 1_555 1_555
W6 O5 1_555 1_555
W7 O4 1_555 1_555
W8 O5 1_555 1_555
W9 O4 1_555 1_555
O5 P1 1_555 1_555
O7 W8 1_555 1_555
O8 W2 1_555 1_555
O9 W4 1_555 1_555
O10 W4 1_555 1_555
O11 W5 1_555 1_555
O12 W1 1_555 1_555
O13 W5 1_555 1_555
O14 W4 1_555 1_555
O15 W8 1_555 1_555
O16 W1 1_555 1_555
O17 P1 1_555 1_555
O18 W4 1_555 1_555
O19 W1 1_555 1_555
O20 W7 1_555 1_555
O21 W2 1_555 1_555
O22 W3 1_555 1_555
O23 W7 1_555 1_555
O24 W6 1_555 1_555
O25 W6 1_555 1_555
O26 W2 1_555 1_555
O27 W6 1_555 1_555
O28 W7 1_555 1_555
O29 W5 1_555 1_555
O30 W1 1_555 1_555
O31 W5 1_555 1_555
O32 W3 1_555 1_555
O33 P1 1_555 1_555
O34 W9 1_555 1_555
Cu1 O18 1_555 1_555
Cu2 N6 1_555 1_555
C1 H1 1_555 1_555
C2 H2 1_555 1_555
C3 H3 1_555 1_555
H4 C3 1_555 1_555
C4 C3 1_555 1_555
H5 C4 1_555 1_555
H6 C4 1_555 1_555
C5 C4 1_555 1_555
H7 C5 1_555 1_555
H8 C5 1_555 1_555
C6 C5 1_555 1_555
H9 C6 1_555 1_555
H10 C6 1_555 1_555
C7 H11 1_555 1_555
C8 H12 1_555 1_555
C9 H13 1_555 1_555
C10 H14 1_555 1_555
C11 H15 1_555 1_555
H16 C11 1_555 1_555
C12 C11 1_555 1_555
H17 C12 1_555 1_555
H18 C12 1_555 1_555
C13 C12 1_555 1_555
H19 C13 1_555 1_555
H20 C13 1_555 1_555
C14 C13 1_555 1_555
H21 C14 1_555 1_555
H22 C14 1_555 1_555
C15 H23 1_555 1_555
C16 H24 1_555 1_555
C17 H25 1_555 1_555
C18 H26 1_555 1_555
C19 H27 1_555 1_555
H28 C19 1_555 1_555
C20 C19 1_555 1_555
H29 C20 1_555 1_555
H30 C20 1_555 1_555
C21 H31 1_555 1_555
C22 H32 1_555 1_555
C23 H33 1_555 1_555
H34 C23 1_555 1_555
C24 C23 1_555 1_555
H35 C24 1_555 1_555
H36 C24 1_555 1_555
N1 Cu1 1_555 1_555
N2 C1 1_555 1_555
N3 C2 1_555 1_555
N4 C6 1_555 1_555
N5 C8 1_555 1_555
N6 C7 1_555 1_555
N7 Cu1 1_555 1_555
N8 C10 1_555 1_555
N9 C9 1_555 1_555
N10 C14 1_555 1_555
N11 C16 1_555 1_555
N12 C15 1_555 1_555
N13 Cu2 1_555 1_555
N14 C17 1_555 1_555
N15 C18 1_555 1_555
N16 Cu2 1_555 1_555
N17 C21 1_555 1_555
N18 C22 1_555 1_555
P1B O4B 1_555 1_555
W1B O6B 1_555 1_555
W2B O7B 1_555 1_555
W3B O8 1_555 1_555
W4B O5B 1_555 1_555
W5B O6B 1_555 1_555
W6B O5B 1_555 1_555
W7B O12 1_555 1_555
W8B O5B 1_555 1_555
W9B O11 1_555 1_555
O4B W7B 1_555 1_555
O5B P1B 1_555 1_555
O7B W8B 1_555 1_555
O8B W3 1_555 1_555
O9B W4B 1_555 1_555
O10B W4B 1_555 1_555
O11B W9 1_555 1_555
O12B W7 1_555 1_555
O13B W5B 1_555 1_555
O14B W4B 1_555 1_555
O15B W8B 1_555 1_555
O16B W1B 1_555 1_555
O17B P1B 1_555 1_555
O19B W1B 1_555 1_555
O20B W3B 1_555 1_555
O21B W2B 1_555 1_555
O22B W3B 1_555 1_555
O23B W7B 1_555 1_555
O24B W6B 1_555 1_555
O25B W6B 1_555 1_555
O26B W2B 1_555 1_555
O27B W6B 1_555 1_555
O28B W7B 1_555 1_555
O30B W1B 1_555 1_555
O31B W5B 1_555 1_555
O32B W3B 1_555 1_555
O33B P1B 1_555 1_555
O34B W9B 1_555 1_555
O29B W5B 1_555 1_555
C1E H1E 1_555 1_555
C2E H2E 1_555 1_555
C3E H3E 1_555 1_555
H4E C3E 1_555 1_555
C4E C3E 1_555 1_555
H5E C4E 1_555 1_555
H6E C4E 1_555 1_555
C5E C4E 1_555 1_555
H7E C5E 1_555 1_555
H8E C5E 1_555 1_555
C6E C5E 1_555 1_555
H9E C6E 1_555 1_555
H10E C6E 1_555 1_555
C7E H11E 1_555 1_555
C8E H12E 1_555 1_555
C9E H13E 1_555 1_555
C10E H14E 1_555 1_555
C11E H15E 1_555 1_555
H16E C11E 1_555 1_555
C12E C11E 1_555 1_555
H17E C12E 1_555 1_555
H18E C12E 1_555 1_555
C13E C12E 1_555 1_555
H19E C13E 1_555 1_555
H20E C13E 1_555 1_555
C14E C13E 1_555 1_555
H21E C14E 1_555 1_555
H22E C14E 1_555 1_555
C15E H23E 1_555 1_555
C16E H24E 1_555 1_555
N1E Cu1 1_555 1_555
N2E C1E 1_555 1_555
N3E C2E 1_555 1_555
N4E C6E 1_555 1_555
N5E C8E 1_555 1_555
N6E C7E 1_555 1_555
N7E Cu1 1_555 1_555
N8E C10E 1_555 1_555
N9E C9E 1_555 1_555
N10E C14E 1_555 1_555
N11E C16E 1_555 1_555
N12E C15E 1_555 1_555
C17B H25B 1_555 1_555
C18B H26B 1_555 1_555
C19B H27B 1_555 1_555
H28B C19B 1_555 1_555
C20B C20 1_555 1_555
H29B C20B 1_555 1_555
H30B C20B 1_555 1_555
N13B C17B 1_555 1_555
N14B C17B 1_555 1_555
N15B C18B 1_555 1_555
C21B H31B 1_555 1_555
C22B H32B 1_555 1_555
C23B H33B 1_555 1_555
H34B C23B 1_555 1_555
C24B C24 1_555 1_555
H35B C24B 1_555 1_555
H36B C24B 1_555 1_555
N16B C21B 1_555 1_555
N17B C21B 1_555 1_555
N18B C22B 1_555 1_555
Cu2B N13B 1_555 1_555
O18E Cu1 1_555 1_555
W4E O18E 1_555 1_555
O18B W4B 1_555 1_555
O29D Cu2 1_555 1_555
O29F Cu2B 1_555 1_555
O32E Cu2 1_555 1_555
O32G Cu2B 1_555 1_555
Cu2A N12E 1_555 1_555
Cu2B_2 N16B 1_555 1_555
Cu2D N12 1_555 1_555
Cu2D_2 O29 1_555 1_555
Cu2E O32 1_555 1_555
Cu2F O29B 1_555 1_555
Cu2G O32B 1_555 1_555
N6B Cu2B 1_555 1_555
N12D Cu2 1_555 1_555
N12F Cu2B 1_555 1_555
N16B_2 Cu2B 1_555 1_555
W1 O17 1_555 1_555
W2 O30 1_555 1_555
W2 O33 1_555 1_555
W3 O21 1_555 1_555
W3 O33 1_555 1_555
W4 O22 1_555 1_555
W5 O17 1_555 1_555
W6 O10 1_555 1_555
W6 O13 1_555 1_555
W7 O14 1_555 1_555
W8 O9 1_555 1_555
W8 O16 1_555 1_555
W8 O24 1_555 1_555
W9 O23 1_555 1_555
W9 O27 1_555 1_555
W9 O31 1_555 1_555
C1 N1 1_555 1_555
C2 N1 1_555 1_555
C3 N3 1_555 1_555
C7 N4 1_555 1_555
C8 N6 1_555 1_555
C9 N7 1_555 1_555
C10 N7 1_555 1_555
C11 N9 1_555 1_555
C15 N10 1_555 1_555
C16 N12 1_555 1_555
C17 N13 1_555 1_555
C18 N13 1_555 1_555
C19 N15 1_555 1_555
C21 N16 1_555 1_555
C22 N16 1_555 1_555
C23 N18 1_555 1_555
N2 N3 1_555 1_555
N4 N5 1_555 1_555
N8 N9 1_555 1_555
N10 N11 1_555 1_555
N14 N15 1_555 1_555
N17 N18 1_555 1_555
W1B O12B 1_555 1_555
W1B O17B 1_555 1_555
W2B O8B 1_555 1_555
W2B O30B 1_555 1_555
W2B O33B 1_555 1_555
W3B O21B 1_555 1_555
W3B O33B 1_555 1_555
W4B O22B 1_555 1_555
W5B O11B 1_555 1_555
W5B O17B 1_555 1_555
W6B O10B 1_555 1_555
W6B O13B 1_555 1_555
W7B O14B 1_555 1_555
W7B O20B 1_555 1_555
W8B O9B 1_555 1_555
W8B O16B 1_555 1_555
W8B O24B 1_555 1_555
W9B O4B 1_555 1_555
W9B O23B 1_555 1_555
W9B O27B 1_555 1_555
W9B O31B 1_555 1_555
C1E N1E 1_555 1_555
C2E N1E 1_555 1_555
C3E N3E 1_555 1_555
C7E N4E 1_555 1_555
C8E N6E 1_555 1_555
C9E N7E 1_555 1_555
C10E N7E 1_555 1_555
C11E N9E 1_555 1_555
C15E N10E 1_555 1_555
C16E N12E 1_555 1_555
N2E N3E 1_555 1_555
N4E N5E 1_555 1_555
N6E Cu2E 1_555 1_555
N8E N9E 1_555 1_555
N10E N11E 1_555 1_555
C18B N13B 1_555 1_555
C19B C20B 1_555 1_555
C19B N15B 1_555 1_555
N14B N15B 1_555 1_555
C22B N16B 1_555 1_555
C23B C24B 1_555 1_555
C23B N18B 1_555 1_555
N17B N18B 1_555 1_555

#END
