
#######################################################################
#
#                 Cambridge Crystallographic Data Centre
#                                CCDC 
#
#######################################################################
#
# If this CIF has been generated from an entry in the Cambridge 
# Structural Database, then it will include bibliographic, chemical, 
# crystal, experimental, refinement or atomic coordinate data resulting 
# from the CCDC's data processing and validation procedures.
#
#######################################################################

data_QATPUX01
_chemical_formula_moiety         '(C8 H2 Co3 O10)n'
_symmetry_cell_setting           monoclinic
_symmetry_space_group_name_H-M   'C 2/m'
_symmetry_Int_Tables_number      12
_space_group_name_Hall           '-C 2y'
loop_
_symmetry_equiv_pos_site_id
_symmetry_equiv_pos_as_xyz
1 x,y,z
2 -x,y,-z
3 1/2+x,1/2+y,z
4 1/2-x,1/2+y,-z
5 -x,-y,-z
6 x,-y,z
7 1/2-x,1/2-y,-z
8 1/2+x,1/2-y,z
_cell_length_a                   9.2250(17)
_cell_length_b                   12.8799(33)
_cell_length_c                   5.4920(15)
_cell_angle_alpha                90
_cell_angle_beta                 90.725(17)
_cell_angle_gamma                90
_cell_volume                     652.491
loop_
_atom_site_label
_atom_site_type_symbol
_atom_site_fract_x
_atom_site_fract_y
_atom_site_fract_z
_atom_site_U_iso_or_equiv
_atom_site_thermal_displace_type
Co1 Co 0.500 0.500 0.500 0.0049 Uiso
Co2 Co 0.500 0.4232(35) 0.000 0.0056 Uiso
O1 O 0.3687(17) 0.2618(10) 0.1436(32) 0.0085 Uiso
O2 O 0.3906(22) 0.500 0.219(6) 0.0068 Uiso
H1 H 0.3279(34) 0.500 0.253(9) 0.0080 Uiso
C1 C 0.3119(22) 0.2553(14) 0.3381(30) 0.0072 Uiso
O3 O 0.3710(17) 0.3901(9) 0.636(4) 0.0075 Uiso
C2 C 0.3083(17) 0.3163(11) 0.5546(29) 0.0067 Uiso
O1F O 0.1313(17) 0.2382(10) 0.8564(32) 0.0085 Uiso
C1F C 0.1881(22) 0.2447(14) 0.6619(30) 0.0072 Uiso
O3F O 0.1290(17) 0.1099(9) 0.364(4) 0.0075 Uiso
C2F C 0.1917(17) 0.1837(11) 0.4454(29) 0.0067 Uiso
O2A O 0.6094(22) 0.500 -0.219(6) 0.0068 Uiso
H1A H 0.6721(34) 0.500 -0.253(9) 0.0080 Uiso
Co2D Co 0.500 0.5768(35) 0.000 0.0056 Uiso
O1A O 0.6313(17) 0.2618(10) 0.8564(32) 0.0085 Uiso
C1A C 0.6881(22) 0.2553(14) 0.6619(30) 0.0072 Uiso
O3A O 0.6290(17) 0.3901(9) 0.364(4) 0.0075 Uiso
C2A C 0.6917(17) 0.3163(11) 0.4454(29) 0.0067 Uiso
O1G O 0.8687(17) 0.2382(10) 0.1436(32) 0.0085 Uiso
C1G C 0.8119(22) 0.2447(14) 0.3381(30) 0.0072 Uiso
O3G O 0.8710(17) 0.1099(9) 0.636(4) 0.0075 Uiso
C2G C 0.8083(17) 0.1837(11) 0.5546(29) 0.0067 Uiso
Co1_2 Co 0.500 0.500 -0.500 0.0049 Uiso
Co1B Co 0.000 0.000 0.500 0.0049 Uiso
Co1B_2 Co 1.000 0.000 0.500 0.0049 Uiso
Co2_2 Co 0.500 0.4232(35) 1.000 0.0056 Uiso
Co2F Co -0.000 0.0768(35) 0.000 0.0056 Uiso
Co2F_2 Co 1.000 0.0768(35) 1.000 0.0056 Uiso
O2A_2 O 0.6094(22) 0.500 0.781(6) 0.0068 Uiso
O3_2 O 0.3710(17) 0.3901(9) -0.364(4) 0.0075 Uiso
O3D O 0.6290(17) 0.6099(9) 0.364(4) 0.0075 Uiso
O3E O 0.3710(17) 0.6099(9) -0.364(4) 0.0075 Uiso
O3E_2 O 0.3710(17) 0.6099(9) 0.636(4) 0.0075 Uiso
loop_
_geom_bond_atom_site_label_1
_geom_bond_atom_site_label_2
_geom_bond_site_symmetry_1
_geom_bond_site_symmetry_2
Co1 O2 1_555 1_555
Co2 O2 1_555 1_555
O1 C1 1_555 1_555
O2 H1 1_555 1_555
C1 C2 1_555 1_555
O3 Co1 1_555 1_555
C2 O3 1_555 1_555
O1F C1F 1_555 1_555
C1F C2 1_555 1_555
O3F C2F 1_555 1_555
C2F C1 1_555 1_555
O2A Co2 1_555 1_555
H1A O2A 1_555 1_555
Co2D Co2 1_555 1_555
O1A C1A 1_555 1_555
C1A C2A 1_555 1_555
O3A Co1 1_555 1_555
C2A O3A 1_555 1_555
O1G C1G 1_555 1_555
C1G C2A 1_555 1_555
O3G C2G 1_555 1_555
C2G C1A 1_555 1_555
Co1_2 O2A 1_555 1_555
Co1B O3F 1_555 1_555
Co1B_2 O3G 1_555 1_555
Co2_2 O3 1_555 1_555
Co2F O3F 1_555 1_555
Co2F_2 O3G 1_555 1_555
O2A_2 Co1 1_555 1_555
O3_2 Co2 1_555 1_555
O3D Co1 1_555 1_555
O3E Co2D 1_555 1_555
O3E_2 Co1 1_555 1_555
Co2 O3A 1_555 1_555
O2 Co2D 1_555 1_555
C1F C2F 1_555 1_555
O2A Co2D 1_555 1_555
Co2D O3D 1_555 1_555
C1G C2G 1_555 1_555
Co1_2 O3_2 1_555 1_555
Co1_2 O3E 1_555 1_555
Co2_2 O2A_2 1_555 1_555

#END
