
#######################################################################
#
#                 Cambridge Crystallographic Data Centre
#                                CCDC 
#
#######################################################################
#
# If this CIF has been generated from an entry in the Cambridge 
# Structural Database, then it will include bibliographic, chemical, 
# crystal, experimental, refinement or atomic coordinate data resulting 
# from the CCDC's data processing and validation procedures.
#
#######################################################################

data_GUANZS
_chemical_formula_moiety         '(C1 H6 N3 O8 S2 Zn1 1-)n'
_symmetry_cell_setting           tetragonal
_symmetry_space_group_name_H-M   'I -4 2 d'
_symmetry_Int_Tables_number      122
_space_group_name_Hall           'I -4 2bw'
loop_
_symmetry_equiv_pos_site_id
_symmetry_equiv_pos_as_xyz
1 x,y,z
2 1/2+x,1/2+y,1/2+z
3 -y,x,-z
4 1/2-y,1/2+x,1/2-z
5 -x,-y,z
6 1/2-x,1/2-y,1/2+z
7 y,-x,-z
8 1/2+y,1/2-x,1/2-z
9 y,1/2+x,1/4+z
10 1/2+y,x,3/4+z
11 x,1/2-y,1/4-z
12 1/2+x,-y,3/4-z
13 -y,1/2-x,1/4+z
14 1/2-y,-x,3/4+z
15 -x,1/2+y,1/4-z
16 1/2-x,y,3/4-z
_cell_length_a                   9.515(1)
_cell_length_b                   9.515(1)
_cell_length_c                   14.351(3)
_cell_angle_alpha                90
_cell_angle_beta                 90
_cell_angle_gamma                90
_cell_volume                     1299.27
loop_
_atom_site_label
_atom_site_type_symbol
_atom_site_fract_x
_atom_site_fract_y
_atom_site_fract_z
C1 C 0.25000 0.00520 0.37500
H1 H 0.29300 -0.17500 0.42300
H2 H 0.32100 0.15900 0.43500
H3 H 0.34900 0.02500 0.49100
N1 N 0.25000 -0.13330 0.37500
N2 N 0.31500 0.07340 0.44220
H1O H 0.20700 -0.17500 0.32700
N2O N 0.18500 0.07340 0.30780
H2O H 0.17900 0.15900 0.31500
H3O H 0.15100 0.02500 0.25900
O1 O 0.06470 0.16840 0.06360
O2 O -0.11680 0.15570 0.17880
S1 S -0.03060 0.25000 0.12500
Zn1 Zn 0.00000 0.00000 0.00000
O1J O 0.06470 0.33160 0.18640
O2J O -0.11680 0.34430 0.07120
O1B O -0.16840 0.06470 -0.06360
O2B O -0.15570 -0.11680 -0.17880
S1B S -0.25000 -0.03060 -0.12500
O1I O -0.33160 0.06470 -0.18640
O2I O -0.34430 -0.11680 -0.07120
O1D O -0.06470 -0.16840 0.06360
O1F O 0.16840 -0.06470 -0.06360
Zn1H Zn 0.00000 0.50000 0.25000
Zn1I Zn -0.50000 0.00000 -0.25000
loop_
_geom_bond_atom_site_label_1
_geom_bond_atom_site_label_2
_geom_bond_site_symmetry_1
_geom_bond_site_symmetry_2
C1 N1 1_555 1_555
H1 N1 1_555 1_555
H2 N2 1_555 1_555
H3 N2 1_555 1_555
N1 H1O 1_555 1_555
N2 C1 1_555 1_555
O1 S1 1_555 1_555
O2 S1 1_555 1_555
S1 O1J 1_555 1_555
Zn1 O1 1_555 1_555
N2O C1 1_555 1_555
H2O N2O 1_555 1_555
H3O N2O 1_555 1_555
O1J Zn1H 1_555 1_555
O2J S1 1_555 1_555
O1B Zn1 1_555 1_555
O2B S1B 1_555 1_555
S1B O1B 1_555 1_555
O1I S1B 1_555 1_555
O2I S1B 1_555 1_555
O1D Zn1 1_555 1_555
O1F Zn1 1_555 1_555
Zn1I O1I 1_555 1_555

#END
