
#######################################################################
#
#                 Cambridge Crystallographic Data Centre
#                                CCDC 
#
#######################################################################
#
# If this CIF has been generated from an entry in the Cambridge 
# Structural Database, then it will include bibliographic, chemical, 
# crystal, experimental, refinement or atomic coordinate data resulting 
# from the CCDC's data processing and validation procedures.
#
#######################################################################

data_FUHNIH
_chemical_formula_moiety         '(C21 H25 N2 Na1 O12 Zn1)n'
_symmetry_cell_setting           monoclinic
_symmetry_space_group_name_H-M   'C 2/c'
_symmetry_Int_Tables_number      15
_space_group_name_Hall           '-C 2yc'
loop_
_symmetry_equiv_pos_site_id
_symmetry_equiv_pos_as_xyz
1 x,y,z
2 -x,y,1/2-z
3 1/2+x,1/2+y,z
4 1/2-x,1/2+y,1/2-z
5 -x,-y,-z
6 x,-y,1/2+z
7 1/2-x,1/2-y,-z
8 1/2+x,1/2-y,1/2+z
_cell_length_a                   15.1153(5)
_cell_length_b                   14.8786(4)
_cell_length_c                   21.8613(7)
_cell_angle_alpha                90
_cell_angle_beta                 90.895(3)
_cell_angle_gamma                90
_cell_volume                     4915.89
loop_
_atom_site_label
_atom_site_type_symbol
_atom_site_fract_x
_atom_site_fract_y
_atom_site_fract_z
_atom_site_U_iso_or_equiv
_atom_site_thermal_displace_type
Zn1 Zn 0.27393(3) 1.31487(3) -0.623871(18) 0.0256 Uani
Na1 Na 0.25283(11) 1.37308(10) -0.48213(7) 0.0385 Uani
C1 C 0.4811(2) 1.2655(2) -0.49491(16) 0.0233 Uani
C2 C 0.4749(2) 1.2600(2) -0.43103(16) 0.0270 Uani
C3 C 0.5495(3) 1.2753(3) -0.39499(18) 0.0377 Uani
H1 H 0.5456 1.2709 -0.3527 0.0460 Uiso
C4 C 0.6288(3) 1.2970(3) -0.4206(2) 0.0484 Uani
H2 H 0.6778 1.3084 -0.3956 0.0580 Uiso
C5 C 0.6362(3) 1.3020(3) -0.4831(2) 0.0393 Uani
H3 H 0.6899 1.3166 -0.5007 0.0470 Uiso
C6 C 0.5626(2) 1.2849(2) -0.51943(17) 0.0282 Uani
C7 C 0.4044(2) 1.2498(3) -0.53874(16) 0.0286 Uani
C8 C 0.3898(3) 1.2356(3) -0.40002(18) 0.0332 Uani
C9 C 0.6107(2) 1.2275(2) -0.61578(16) 0.0244 Uani
C10 C 0.6362(2) 1.1455(2) -0.59152(16) 0.0262 Uani
H4 H 0.6253 1.1321 -0.5508 0.0310 Uiso
C11 C 0.6785(2) 1.0829(2) -0.62866(16) 0.0256 Uani
C12 C 0.6942(2) 1.1040(2) -0.68924(16) 0.0290 Uani
H5 H 0.7226 1.0624 -0.7140 0.0350 Uiso
C13 C 0.6683(2) 1.1862(2) -0.71358(16) 0.0281 Uani
C14 C 0.6269(2) 1.2486(2) -0.67621(17) 0.0296 Uani
H6 H 0.6103 1.3044 -0.6918 0.0350 Uiso
C15 C 0.7080(3) 0.9937(2) -0.60273(18) 0.0307 Uani
C16 C 0.6887(3) 1.2084(3) -0.77935(18) 0.0363 Uani
C17 C 0.4089(8) 1.4935(5) -0.4162(5) 0.1594 Uani
H7 H 0.4404 1.5100 -0.4507 0.1910 Uiso
C18 C 0.4015(5) 1.4613(6) -0.3094(4) 0.1260 Uani
H8 H 0.3429 1.4408 -0.3197 0.1890 Uiso
H9 H 0.3980 1.5103 -0.2810 0.1890 Uiso
H10 H 0.4346 1.4129 -0.2911 0.1890 Uiso
C19 C 0.5357(5) 1.5220(5) -0.3531(4) 0.1099 Uani
H11 H 0.5634 1.5416 -0.3900 0.1650 Uiso
H12 H 0.5688 1.4731 -0.3356 0.1650 Uiso
H13 H 0.5339 1.5708 -0.3245 0.1650 Uiso
O1 O 0.38610(18) 1.17284(18) -0.55515(13) 0.0394 Uani
O2 O 0.36543(16) 1.32183(17) -0.55658(12) 0.0335 Uani
O3 O 0.31769(16) 1.24174(16) -0.43019(12) 0.0317 Uani
O4 O 0.3925(2) 1.2095(3) -0.34619(14) 0.0616 Uani
O5 O 0.56704(17) 1.29337(17) -0.58286(12) 0.0343 Uani
O6 O 0.74778(19) 0.94266(18) -0.63918(12) 0.0402 Uani
O7 O 0.6925(3) 0.9763(2) -0.54897(14) 0.0600 Uani
O8 O 0.7125(2) 1.1484(2) -0.81406(13) 0.0555 Uani
O9 O 0.6800(2) 1.29021(19) -0.79497(13) 0.0433 Uani
O10 O 0.3252(4) 1.4723(3) -0.4231(2) 0.1184 Uani
N1 N 0.4473(3) 1.4926(3) -0.3670(3) 0.0802 Uani
Zn1A Zn 0.72607(3) 1.31487(3) -0.876129(18) 0.0256 Uani
Zn1B Zn 0.77393(3) 0.81487(3) -0.623871(18) 0.0256 Uani
Zn1F Zn 0.22607(3) 1.18513(3) -0.376129(18) 0.0256 Uani
Na1B Na 0.75283(11) 0.87308(10) -0.48213(7) 0.0385 Uani
Na1F Na 0.24717(11) 1.12692(10) -0.51787(7) 0.0385 Uani
O1F O 0.11390(18) 1.32716(18) -0.44485(13) 0.0394 Uani
O3F O 0.18231(16) 1.25826(16) -0.56981(12) 0.0317 Uani
O6B O 0.24778(19) 1.44266(18) -0.63918(12) 0.0402 Uani
O7B O 0.1925(3) 1.4763(2) -0.54897(14) 0.0600 Uani
O9A O 0.3200(2) 1.29021(19) -0.70503(13) 0.0433 Uani
C20 C 0.6089(11) 2.0405(7) -0.4228(6) 0.3298 Uani
H14 H 0.6649 2.0592 -0.4385 0.4960 Uiso
H15 H 0.5696 2.0911 -0.4215 0.4960 Uiso
H16 H 0.5839 1.9949 -0.4489 0.4960 Uiso
C21 C 0.5397(5) 1.9757(6) -0.3329(5) 0.1573 Uani
H17 H 0.5486 1.9536 -0.2921 0.2360 Uiso
H18 H 0.5141 1.9293 -0.3580 0.2360 Uiso
H19 H 0.5005 2.0265 -0.3322 0.2360 Uiso
N2 N 0.6223(3) 2.0023(4) -0.3574(3) 0.0967 Uani
H20 H 0.6589 1.9546 -0.3585 0.1160 Uiso
H21 H 0.6473 2.0444 -0.3331 0.1160 Uiso
O11 O 0.6786(5) 2.1191(6) -0.2770(4) 0.2124 Uani
O12 O 0.5000 1.1517(13) -0.2500 0.3595 Uani
loop_
_atom_site_aniso_label
_atom_site_aniso_U_11
_atom_site_aniso_U_22
_atom_site_aniso_U_33
_atom_site_aniso_U_23
_atom_site_aniso_U_13
_atom_site_aniso_U_12
Zn1 0.0303(2) 0.0248(2) 0.0218(2) 0.00124(18) 0.00704(16) 0.00311(18)
Na1 0.0450(9) 0.0324(9) 0.0381(9) 0.0073(7) 0.0048(7) 0.0055(7)
C1 0.0232(18) 0.0177(18) 0.029(2) -0.0015(15) 0.0025(15) 0.0043(14)
C2 0.0241(19) 0.029(2) 0.028(2) 0.0012(16) 0.0020(15) 0.0039(15)
C3 0.033(2) 0.051(3) 0.029(2) -0.0042(19) -0.0027(18) 0.0022(19)
C4 0.030(2) 0.065(3) 0.050(3) -0.013(2) -0.005(2) -0.007(2)
C5 0.022(2) 0.045(3) 0.051(3) -0.002(2) 0.0043(18) -0.0031(18)
C6 0.027(2) 0.0237(19) 0.034(2) 0.0002(16) 0.0063(16) 0.0045(15)
C7 0.026(2) 0.034(2) 0.026(2) 0.0004(17) 0.0049(16) -0.0001(17)
C8 0.033(2) 0.033(2) 0.034(2) -0.0008(18) 0.0107(18) 0.0005(17)
C9 0.0212(18) 0.0223(18) 0.030(2) 0.0046(16) 0.0063(15) 0.0007(14)
C10 0.0285(19) 0.0275(19) 0.0226(19) 0.0047(16) 0.0018(15) -0.0006(16)
C11 0.030(2) 0.0241(19) 0.0227(19) 0.0026(15) -0.0006(15) -0.0013(15)
C12 0.033(2) 0.026(2) 0.028(2) -0.0001(16) 0.0049(16) 0.0041(16)
C13 0.0305(19) 0.030(2) 0.0240(19) 0.0065(16) 0.0048(15) -0.0001(16)
C14 0.031(2) 0.028(2) 0.030(2) 0.0115(17) 0.0052(16) 0.0045(16)
C15 0.038(2) 0.024(2) 0.030(2) 0.0028(17) -0.0016(17) 0.0034(17)
C16 0.032(2) 0.048(3) 0.029(2) 0.010(2) 0.0065(18) 0.0061(18)
C17 0.276(15) 0.039(4) 0.159(9) -0.007(5) -0.128(10) 0.006(6)
C18 0.112(6) 0.145(8) 0.121(7) 0.009(6) 0.001(5) -0.047(5)
C19 0.084(5) 0.093(5) 0.152(7) 0.032(5) -0.019(5) -0.020(4)
O1 0.0414(16) 0.0349(17) 0.0419(17) -0.0118(13) -0.0016(13) -0.0031(12)
O2 0.0278(14) 0.0363(16) 0.0362(15) 0.0072(12) -0.0035(12) 0.0059(12)
O3 0.0228(14) 0.0322(15) 0.0403(16) 0.0065(12) 0.0059(12) 0.0026(11)
O4 0.052(2) 0.098(3) 0.0350(18) 0.0146(18) 0.0088(15) -0.0112(18)
O5 0.0392(16) 0.0324(15) 0.0316(15) 0.0060(12) 0.0131(12) 0.0140(12)
O6 0.0543(18) 0.0291(15) 0.0375(16) 0.0074(13) 0.0096(13) 0.0145(13)
O7 0.108(3) 0.0407(18) 0.0317(18) 0.0136(14) 0.0132(18) 0.0272(17)
O8 0.081(2) 0.058(2) 0.0279(16) 0.0025(15) 0.0152(16) 0.0179(18)
O9 0.0545(19) 0.0409(18) 0.0350(16) 0.0178(13) 0.0133(14) 0.0046(14)
O10 0.177(6) 0.072(3) 0.104(4) -0.004(3) -0.066(4) -0.030(3)
N1 0.066(3) 0.048(3) 0.127(5) 0.002(3) 0.015(3) -0.015(2)
Zn1A 0.0303 0.0248 0.0218 -0.00124 0.00704 -0.00311
Zn1B 0.0303 0.0248 0.0218 0.00124 0.00704 0.00311
Zn1F 0.0303 0.0248 0.0218 0.00124 0.00704 0.00311
Na1B 0.045 0.0324 0.0381 0.0073 0.0048 0.0055
Na1F 0.045 0.0324 0.0381 0.0073 0.0048 0.0055
O1F 0.0414 0.0349 0.0419 -0.0118 -0.0016 -0.0031
O3F 0.0228 0.0322 0.0403 0.0065 0.0059 0.0026
O6B 0.0543 0.0291 0.0375 0.0074 0.0096 0.0145
O7B 0.108 0.0407 0.0317 0.0136 0.0132 0.0272
O9A 0.0545 0.0409 0.035 -0.0178 0.0133 -0.0046
C20 0.57(3) 0.103(8) 0.326(17) 0.096(10) 0.31(2) 0.166(13)
C21 0.080(6) 0.173(10) 0.220(11) -0.061(8) 0.037(7) -0.015(6)
N2 0.070(3) 0.093(4) 0.128(5) 0.027(4) 0.035(3) 0.010(3)
O11 0.186(7) 0.211(8) 0.238(9) 0.031(7) -0.071(7) -0.060(6)
O12 0.50(3) 0.33(2) 0.243(17) 0.000 -0.166(19) 0.000
loop_
_geom_bond_atom_site_label_1
_geom_bond_atom_site_label_2
_geom_bond_site_symmetry_1
_geom_bond_site_symmetry_2
Zn1 O2 1_555 1_555
Na1 O2 1_555 1_555
C1 C2 1_555 1_555
C2 C3 1_555 1_555
C3 H1 1_555 1_555
C4 C3 1_555 1_555
H2 C4 1_555 1_555
C5 C4 1_555 1_555
H3 C5 1_555 1_555
C6 C1 1_555 1_555
C7 C1 1_555 1_555
C8 C2 1_555 1_555
C9 C10 1_555 1_555
C10 H4 1_555 1_555
C11 C10 1_555 1_555
C12 C11 1_555 1_555
H5 C12 1_555 1_555
C13 C12 1_555 1_555
C14 C9 1_555 1_555
H6 C14 1_555 1_555
C15 C11 1_555 1_555
C16 C13 1_555 1_555
C17 H7 1_555 1_555
C18 H8 1_555 1_555
H9 C18 1_555 1_555
H10 C18 1_555 1_555
C19 H11 1_555 1_555
H12 C19 1_555 1_555
H13 C19 1_555 1_555
O1 C7 1_555 1_555
O2 C7 1_555 1_555
O3 Na1 1_555 1_555
O4 C8 1_555 1_555
O5 C6 1_555 1_555
O6 C15 1_555 1_555
O7 C15 1_555 1_555
O8 C16 1_555 1_555
O9 C16 1_555 1_555
O10 Na1 1_555 1_555
N1 C17 1_555 1_555
C20 H14 1_555 1_555
H15 C20 1_555 1_555
H16 C20 1_555 1_555
C21 H17 1_555 1_555
H18 C21 1_555 1_555
H19 C21 1_555 1_555
N2 C20 1_555 1_555
H20 N2 1_555 1_555
H21 N2 1_555 1_555
Zn1A O9 1_555 1_555
Zn1B O6 1_555 1_555
Zn1F O3 1_555 1_555
Na1B O7 1_555 1_555
Na1F O1 1_555 1_555
O1F Na1 1_555 1_555
O3F Zn1 1_555 1_555
O6B Zn1 1_555 1_555
O7B Na1 1_555 1_555
O9A Zn1 1_555 1_555
Na1 O3F 1_555 1_555
C5 C6 1_555 1_555
C8 O3 1_555 1_555
C9 O5 1_555 1_555
C13 C14 1_555 1_555
C17 O10 1_555 1_555
C18 N1 1_555 1_555
C19 N1 1_555 1_555
O3 Na1F 1_555 1_555
C21 N2 1_555 1_555
Na1F O3F 1_555 1_555

#END
