
#######################################################################
#
#                 Cambridge Crystallographic Data Centre
#                                CCDC 
#
#######################################################################
#
# If this CIF has been generated from an entry in the Cambridge 
# Structural Database, then it will include bibliographic, chemical, 
# crystal, experimental, refinement or atomic coordinate data resulting 
# from the CCDC's data processing and validation procedures.
#
#######################################################################

data_MAGCUU
_chemical_formula_moiety         '(C84 H120 Cl8 Fe2 In2 N24 2+)n'
_symmetry_cell_setting           triclinic
_symmetry_space_group_name_H-M   'P -1'
_symmetry_Int_Tables_number      2
_space_group_name_Hall           '-P 1'
loop_
_symmetry_equiv_pos_site_id
_symmetry_equiv_pos_as_xyz
1 x,y,z
2 -x,-y,-z
_cell_length_a                   10.9464(5)
_cell_length_b                   15.9076(7)
_cell_length_c                   16.1604(7)
_cell_angle_alpha                89.592(2)
_cell_angle_beta                 89.682(2)
_cell_angle_gamma                86.288(2)
_cell_volume                     2808.01
loop_
_atom_site_label
_atom_site_type_symbol
_atom_site_fract_x
_atom_site_fract_y
_atom_site_fract_z
In1 In 1.63520(2) 0.605248(16) 0.250329(15)
Cl1 Cl 1.52004(11) 0.73175(7) 0.25747(8)
Cl2 Cl 1.55372(11) 0.50514(9) 0.33741(8)
Cl3 Cl 1.63876(12) 0.55725(8) 0.11412(6)
Cl4 Cl 1.83315(9) 0.62178(12) 0.29490(8)
In2 In 1.32984(2) 0.929854(14) 0.251505(14)
Cl5 Cl 1.20476(8) 1.05702(5) 0.24964(6)
Cl6 Cl 1.19475(8) 0.82380(5) 0.22830(5)
Cl7 Cl 1.46931(8) 0.94823(5) 0.14309(5)
Cl8 Cl 1.41520(8) 0.92263(5) 0.38469(5)
Fe1 Fe 0.97332(4) 0.27936(3) 0.24760(2)
N1 N 1.0103(2) 0.20069(16) 0.14052(16)
N2 N 0.9883(3) 0.02749(17) 0.02612(18)
N3 N 0.9394(2) 0.35747(16) 0.35440(16)
N4 N 0.9671(2) 0.48743(16) 0.52769(15)
N5 N 0.9533(2) 0.16981(16) 0.32284(16)
N6 N 0.9995(3) 0.03318(16) 0.48014(16)
N7 N 0.9993(2) 0.38767(16) 0.17369(16)
N8 N 1.0423(2) 0.52230(16) 0.00743(16)
N9 N 1.1670(2) 0.27182(15) 0.27730(15)
N10 N 1.4883(2) 0.26432(16) 0.28773(16)
N11 N 1.7796(2) 0.28212(15) 0.22095(15)
N12 N 1.4599(2) 0.26284(16) 0.21458(16)
C1 C 1.0362(3) 0.1561(2) 0.0869(2)
C2 C 1.0671(3) 0.1003(2) 0.0142(2)
C3 C 1.2038(3) 0.0736(2) 0.0138(2)
H1 H 1.2263 0.0471 0.0676
H2 H 1.2211 0.0312 -0.0300
C4 C 1.2811(3) 0.1475(2) -0.0013(2)
H3 H 1.3684 0.1272 -0.0041
H4 H 1.2708 0.1870 0.0456
C5 C 1.2460(4) 0.1939(2) -0.0813(2)
H5 H 1.2947 0.2439 -0.0873
H6 H 1.2650 0.1564 -0.1289
C6 C 1.1110(4) 0.2214(2) -0.0814(2)
H7 H 1.0895 0.2475 -0.1356
H8 H 1.0947 0.2646 -0.0383
C7 C 1.0304(3) 0.1487(2) -0.0654(2)
H9 H 1.0370 0.1097 -0.1129
H10 H 0.9440 0.1708 -0.0608
C8 C 0.9227(3) 0.38692(19) 0.4181(2)
C9 C 0.8984(3) 0.41333(19) 0.50472(18)
C10 C 0.9411(3) 0.3393(2) 0.56207(19)
H11 H 1.0270 0.3210 0.5486
H12 H 0.9382 0.3586 0.6202
C11 C 0.8613(3) 0.2649(2) 0.5531(2)
H13 H 0.8721 0.2412 0.4969
H14 H 0.8877 0.2204 0.5935
C12 C 0.7274(3) 0.2910(2) 0.5674(2)
H15 H 0.7151 0.3086 0.6256
H16 H 0.6778 0.2422 0.5577
C13 C 0.6841(3) 0.3629(2) 0.5105(2)
H17 H 0.5982 0.3808 0.5243
H18 H 0.6863 0.3428 0.4526
C14 C 0.7623(3) 0.4383(2) 0.5172(2)
H19 H 0.7498 0.4641 0.5724
H20 H 0.7356 0.4810 0.4751
C15 C 0.9428(3) 0.1089(2) 0.35874(19)
C16 C 0.9181(3) 0.0310(2) 0.40578(19)
C17 C 0.9458(3) -0.0470(2) 0.3529(2)
H21 H 0.9368 -0.0981 0.3872
H22 H 1.0316 -0.0480 0.3331
C18 C 0.8601(3) -0.0483(2) 0.2788(2)
H23 H 0.8762 -0.0010 0.2410
H24 H 0.8767 -0.1015 0.2481
C19 C 0.7272(3) -0.0409(2) 0.3057(2)
H25 H 0.7086 -0.0919 0.3376
H26 H 0.6744 -0.0378 0.2561
C20 C 0.6985(3) 0.0369(2) 0.3587(2)
H27 H 0.7066 0.0881 0.3245
H28 H 0.6127 0.0372 0.3785
C21 C 0.7834(3) 0.0391(2) 0.4327(2)
H29 H 0.7669 -0.0076 0.4711
H30 H 0.7668 0.0927 0.4626
C22 C 1.0364(3) 0.4421(2) 0.13684(18)
C23 C 1.0946(3) 0.51032(19) 0.09147(18)
C24 C 1.2317(3) 0.4862(2) 0.0838(2)
H31 H 1.2435 0.4289 0.0605
H32 H 1.2691 0.5257 0.0450
C25 C 1.2960(3) 0.4884(2) 0.1668(2)
H33 H 1.2674 0.4430 0.2028
H34 H 1.3852 0.4775 0.1581
C26 C 1.2723(3) 0.5723(2) 0.2098(2)
H35 H 1.3097 0.6169 0.1772
H36 H 1.3112 0.5696 0.2650
C27 C 1.1360(3) 0.5944(2) 0.21970(19)
H37 H 1.1233 0.6509 0.2448
H38 H 1.1005 0.5531 0.2575
C28 C 1.0705(3) 0.59405(19) 0.13666(19)
H39 H 1.0985 0.6403 0.1015
H40 H 0.9813 0.6045 0.1459
C29 C 1.2637(3) 0.26483(18) 0.30367(18)
C30 C 1.3838(3) 0.25949(19) 0.34614(19)
C31 C 1.4042(3) 0.1751(2) 0.3920(2)
H41 H 1.3943 0.1287 0.3527
H42 H 1.4892 0.1696 0.4130
C32 C 1.3163(3) 0.1666(2) 0.4638(2)
H43 H 1.3378 0.1133 0.4939
H44 H 1.2322 0.1639 0.4422
C33 C 1.3195(4) 0.2399(2) 0.5234(2)
H45 H 1.2567 0.2343 0.5670
H46 H 1.4006 0.2385 0.5504
C34 C 1.2958(3) 0.3232(2) 0.4788(2)
H47 H 1.3034 0.3697 0.5185
H48 H 1.2110 0.3272 0.4575
C35 C 1.3850(3) 0.3336(2) 0.40682(19)
H49 H 1.4688 0.3371 0.4288
H50 H 1.3624 0.3869 0.3770
C36 C 1.6830(3) 0.27394(19) 0.19701(18)
C37 C 1.5653(3) 0.25946(19) 0.15616(19)
C38 C 1.5743(3) 0.1702(2) 0.1199(2)
H51 H 1.6021 0.1295 0.1636
H52 H 1.4921 0.1557 0.1018
C39 C 1.6627(3) 0.1622(2) 0.0467(2)
H53 H 1.7472 0.1677 0.0666
H54 H 1.6591 0.1056 0.0221
C40 C 1.6326(3) 0.2289(2) -0.0193(2)
H55 H 1.6950 0.2239 -0.0638
H56 H 1.5521 0.2193 -0.0439
C41 C 1.6292(3) 0.3166(2) 0.0167(2)
H57 H 1.6055 0.3583 -0.0270
H58 H 1.7120 0.3282 0.0361
C42 C 1.5392(3) 0.3266(2) 0.0885(2)
H59 H 1.4550 0.3222 0.0676
H60 H 1.5439 0.3833 0.1127
Fe1A Fe 1.02668(4) -0.27936(3) -0.24760(2)
Fe1_2 Fe 1.97332(4) 0.27936(3) 0.24760(2)
Fe1A_2 Fe 1.02668(4) 0.72064(3) 0.75240(2)
Fe1A_3 Fe 1.02668(4) -0.27936(3) 0.75240(2)
Fe1A_4 Fe 1.02668(4) 0.72064(3) -0.24760(2)
Fe1_3 Fe -0.02668(4) 0.27936(3) 0.24760(2)
N1A N 0.9897(2) -0.20069(16) -0.14052(16)
N2A N 1.0117(3) -0.02749(17) -0.02612(18)
N3A N 1.0606(2) 0.64253(16) 0.64560(16)
N3A_2 N 1.0606(2) -0.35747(16) -0.35440(16)
N4A N 1.0329(2) 0.51257(16) 0.47231(15)
N5A N 1.0467(2) -0.16981(16) 0.67716(16)
N5A_2 N 1.0467(2) -0.16981(16) -0.32284(16)
N6A N 1.0005(3) -0.03318(16) 0.51986(16)
N7A N 1.0007(2) 0.61233(16) -0.17369(16)
N7A_2 N 1.0007(2) -0.38767(16) -0.17369(16)
N8A N 0.9577(2) 0.47770(16) -0.00743(16)
N9_2 N 0.1670(2) 0.27182(15) 0.27730(15)
N9A N 0.8330(2) -0.27182(15) -0.27730(15)
N10_2 N 0.4883(2) 0.26432(16) 0.28773(16)
N11_2 N 0.7796(2) 0.28212(15) 0.22095(15)
N11A N 1.2204(2) -0.28212(15) -0.22095(15)
N12_2 N 0.4599(2) 0.26284(16) 0.21458(16)
C1A C 0.9638(3) -0.1561(2) -0.0869(2)
C2A C 0.9329(3) -0.1003(2) -0.0142(2)
C3A C 0.7962(3) -0.0736(2) -0.0138(2)
H1A H 0.7737 -0.0471 -0.0676
H2A H 0.7789 -0.0312 0.0300
C4A C 0.7189(3) -0.1475(2) 0.0013(2)
H3A H 0.6316 -0.1272 0.0041
H4A H 0.7292 -0.1870 -0.0456
C5A C 0.7540(4) -0.1939(2) 0.0813(2)
H5A H 0.7053 -0.2439 0.0873
H6A H 0.7350 -0.1564 0.1289
C6A C 0.8890(4) -0.2214(2) 0.0814(2)
H7A H 0.9105 -0.2475 0.1356
H8A H 0.9053 -0.2646 0.0383
C7A C 0.9696(3) -0.1487(2) 0.0654(2)
H9A H 0.9630 -0.1097 0.1129
H10A H 1.0560 -0.1708 0.0608
C8A C 1.0773(3) 0.61308(19) 0.5819(2)
C9A C 1.1016(3) 0.58667(19) 0.49528(18)
C10A C 1.0589(3) 0.6607(2) 0.43793(19)
H11A H 0.9730 0.6790 0.4514
H12A H 1.0618 0.6414 0.3798
C11A C 1.1387(3) 0.7351(2) 0.4469(2)
H13A H 1.1279 0.7588 0.5031
H14A H 1.1123 0.7796 0.4065
C12A C 1.2726(3) 0.7090(2) 0.4326(2)
H15A H 1.2849 0.6914 0.3744
H16A H 1.3222 0.7578 0.4423
C13A C 1.3159(3) 0.6371(2) 0.4895(2)
H17A H 1.4018 0.6192 0.4757
H18A H 1.3137 0.6572 0.5474
C14A C 1.2377(3) 0.5617(2) 0.4828(2)
H19A H 1.2502 0.5359 0.4276
H20A H 1.2644 0.5190 0.5249
C15A C 1.0572(3) -0.1089(2) 0.64126(19)
C16A C 1.0819(3) -0.0310(2) 0.59422(19)
C17A C 1.0542(3) 0.0470(2) 0.6471(2)
H21A H 1.0632 0.0981 0.6128
H22A H 0.9684 0.0480 0.6669
C18A C 1.1399(3) 0.0483(2) 0.7212(2)
H23A H 1.1238 0.0010 0.7590
H24A H 1.1233 0.1015 0.7519
C19A C 1.2728(3) 0.0409(2) 0.6943(2)
H25A H 1.2914 0.0919 0.6624
H26A H 1.3256 0.0378 0.7439
C20A C 1.3015(3) -0.0369(2) 0.6413(2)
H27A H 1.2934 -0.0881 0.6755
H28A H 1.3873 -0.0372 0.6215
C21A C 1.2166(3) -0.0391(2) 0.5673(2)
H29A H 1.2331 0.0076 0.5289
H30A H 1.2332 -0.0927 0.5374
C22A C 0.9636(3) 0.5579(2) -0.13684(18)
C23A C 0.9054(3) 0.48968(19) -0.09147(18)
C24A C 0.7683(3) 0.5138(2) -0.0838(2)
H31A H 0.7565 0.5711 -0.0605
H32A H 0.7309 0.4743 -0.0450
C25A C 0.7040(3) 0.5116(2) -0.1668(2)
H33A H 0.7326 0.5570 -0.2028
H34A H 0.6148 0.5225 -0.1581
C26A C 0.7277(3) 0.4277(2) -0.2098(2)
H35A H 0.6903 0.3831 -0.1772
H36A H 0.6888 0.4304 -0.2650
C27A C 0.8640(3) 0.4056(2) -0.21970(19)
H37A H 0.8767 0.3491 -0.2448
H38A H 0.8995 0.4469 -0.2575
C28A C 0.9295(3) 0.40595(19) -0.13666(19)
H39A H 0.9015 0.3597 -0.1015
H40A H 1.0187 0.3955 -0.1459
C29_2 C 0.2637(3) 0.26483(18) 0.30367(18)
C30_2 C 0.3838(3) 0.25949(19) 0.34614(19)
C31_2 C 0.4042(3) 0.1751(2) 0.3920(2)
H41_2 H 0.3943 0.1287 0.3527
H42_2 H 0.4892 0.1696 0.4130
C32_2 C 0.3163(3) 0.1666(2) 0.4638(2)
H43_2 H 0.3378 0.1133 0.4939
H44_2 H 0.2322 0.1639 0.4422
C33_2 C 0.3195(4) 0.2399(2) 0.5234(2)
H45_2 H 0.2567 0.2343 0.5670
H46_2 H 0.4006 0.2385 0.5504
C34_2 C 0.2958(3) 0.3232(2) 0.4788(2)
H47_2 H 0.3034 0.3697 0.5185
H48_2 H 0.2110 0.3272 0.4575
C35_2 C 0.3850(3) 0.3336(2) 0.40682(19)
H49_2 H 0.4688 0.3371 0.4288
H50_2 H 0.3624 0.3869 0.3770
C36_2 C 0.6830(3) 0.27394(19) 0.19701(18)
C37_2 C 0.5653(3) 0.25946(19) 0.15616(19)
C38_2 C 0.5743(3) 0.1702(2) 0.1199(2)
H51_2 H 0.6021 0.1295 0.1636
H52_2 H 0.4921 0.1557 0.1018
C39_2 C 0.6627(3) 0.1622(2) 0.0467(2)
H53_2 H 0.7472 0.1677 0.0666
H54_2 H 0.6591 0.1056 0.0221
C40_2 C 0.6326(3) 0.2289(2) -0.0193(2)
H55_2 H 0.6950 0.2239 -0.0638
H56_2 H 0.5521 0.2193 -0.0439
C41_2 C 0.6292(3) 0.3166(2) 0.0167(2)
H57_2 H 0.6055 0.3583 -0.0270
H58_2 H 0.7120 0.3282 0.0361
C42_2 C 0.5392(3) 0.3266(2) 0.0885(2)
H59_2 H 0.4550 0.3222 0.0676
H60_2 H 0.5439 0.3833 0.1127
loop_
_geom_bond_atom_site_label_1
_geom_bond_atom_site_label_2
_geom_bond_site_symmetry_1
_geom_bond_site_symmetry_2
In1 Cl1 1_555 1_555
In2 Cl5 1_555 1_555
Fe1 N1 1_555 1_555
Cl2 In1 1_555 1_555
Cl3 In1 1_555 1_555
Cl4 In1 1_555 1_555
Cl6 In2 1_555 1_555
Cl7 In2 1_555 1_555
Cl8 In2 1_555 1_555
N1 C1 1_555 1_555
N2 C2 1_555 1_555
N3 Fe1 1_555 1_555
N4 C9 1_555 1_555
N5 Fe1 1_555 1_555
N6 C16 1_555 1_555
N7 Fe1 1_555 1_555
N8 C23 1_555 1_555
N9 Fe1 1_555 1_555
N10 N12 1_555 1_555
N11 C36 1_555 1_555
N12 C37 1_555 1_555
C1 C2 1_555 1_555
C2 C3 1_555 1_555
C3 H1 1_555 1_555
H2 C3 1_555 1_555
C4 C3 1_555 1_555
H3 C4 1_555 1_555
H4 C4 1_555 1_555
C5 C4 1_555 1_555
H5 C5 1_555 1_555
H6 C5 1_555 1_555
C6 C5 1_555 1_555
H7 C6 1_555 1_555
H8 C6 1_555 1_555
C7 C2 1_555 1_555
H9 C7 1_555 1_555
H10 C7 1_555 1_555
C8 N3 1_555 1_555
C9 C8 1_555 1_555
C10 C9 1_555 1_555
H11 C10 1_555 1_555
H12 C10 1_555 1_555
C11 C10 1_555 1_555
H13 C11 1_555 1_555
H14 C11 1_555 1_555
C12 C11 1_555 1_555
H15 C12 1_555 1_555
H16 C12 1_555 1_555
C13 C12 1_555 1_555
H17 C13 1_555 1_555
H18 C13 1_555 1_555
C14 C9 1_555 1_555
H19 C14 1_555 1_555
H20 C14 1_555 1_555
C15 N5 1_555 1_555
C16 C15 1_555 1_555
C17 C16 1_555 1_555
H21 C17 1_555 1_555
H22 C17 1_555 1_555
C18 C17 1_555 1_555
H23 C18 1_555 1_555
H24 C18 1_555 1_555
C19 C18 1_555 1_555
H25 C19 1_555 1_555
H26 C19 1_555 1_555
C20 C19 1_555 1_555
H27 C20 1_555 1_555
H28 C20 1_555 1_555
C21 C16 1_555 1_555
H29 C21 1_555 1_555
H30 C21 1_555 1_555
C22 N7 1_555 1_555
C23 C22 1_555 1_555
C24 C23 1_555 1_555
H31 C24 1_555 1_555
H32 C24 1_555 1_555
C25 C24 1_555 1_555
H33 C25 1_555 1_555
H34 C25 1_555 1_555
C26 C25 1_555 1_555
H35 C26 1_555 1_555
H36 C26 1_555 1_555
C27 C26 1_555 1_555
H37 C27 1_555 1_555
H38 C27 1_555 1_555
C28 C23 1_555 1_555
H39 C28 1_555 1_555
H40 C28 1_555 1_555
C29 N9 1_555 1_555
C30 N10 1_555 1_555
C31 C30 1_555 1_555
H41 C31 1_555 1_555
H42 C31 1_555 1_555
C32 C31 1_555 1_555
H43 C32 1_555 1_555
H44 C32 1_555 1_555
C33 C32 1_555 1_555
H45 C33 1_555 1_555
H46 C33 1_555 1_555
C34 C33 1_555 1_555
H47 C34 1_555 1_555
H48 C34 1_555 1_555
C35 C30 1_555 1_555
H49 C35 1_555 1_555
H50 C35 1_555 1_555
C36 C37 1_555 1_555
C37 C38 1_555 1_555
C38 H51 1_555 1_555
H52 C38 1_555 1_555
C39 C38 1_555 1_555
H53 C39 1_555 1_555
H54 C39 1_555 1_555
C40 C39 1_555 1_555
H55 C40 1_555 1_555
H56 C40 1_555 1_555
C41 C40 1_555 1_555
H57 C41 1_555 1_555
H58 C41 1_555 1_555
C42 C37 1_555 1_555
H59 C42 1_555 1_555
H60 C42 1_555 1_555
Fe1A N1A 1_555 1_555
Fe1_2 N11 1_555 1_555
Fe1A_2 N3A 1_555 1_555
Fe1A_3 N5A 1_555 1_555
Fe1A_4 N7A 1_555 1_555
Fe1_3 N9_2 1_555 1_555
N1A C1A 1_555 1_555
N2A N2 1_555 1_555
N3A C8A 1_555 1_555
N3A_2 Fe1A 1_555 1_555
N4A N4 1_555 1_555
N5A C15A 1_555 1_555
N5A_2 Fe1A 1_555 1_555
N6A N6 1_555 1_555
N7A C22A 1_555 1_555
N7A_2 Fe1A 1_555 1_555
N8A N8 1_555 1_555
N9_2 C29_2 1_555 1_555
N9A Fe1A 1_555 1_555
N10_2 N12_2 1_555 1_555
N11_2 Fe1 1_555 1_555
N11A Fe1A 1_555 1_555
N12_2 C37_2 1_555 1_555
C1A C2A 1_555 1_555
C2A N2A 1_555 1_555
C3A C2A 1_555 1_555
H1A C3A 1_555 1_555
H2A C3A 1_555 1_555
C4A C3A 1_555 1_555
H3A C4A 1_555 1_555
H4A C4A 1_555 1_555
C5A C4A 1_555 1_555
H5A C5A 1_555 1_555
H6A C5A 1_555 1_555
C6A C5A 1_555 1_555
H7A C6A 1_555 1_555
H8A C6A 1_555 1_555
C7A C2A 1_555 1_555
H9A C7A 1_555 1_555
H10A C7A 1_555 1_555
C8A C9A 1_555 1_555
C9A N4A 1_555 1_555
C10A C9A 1_555 1_555
H11A C10A 1_555 1_555
H12A C10A 1_555 1_555
C11A C10A 1_555 1_555
H13A C11A 1_555 1_555
H14A C11A 1_555 1_555
C12A C11A 1_555 1_555
H15A C12A 1_555 1_555
H16A C12A 1_555 1_555
C13A C12A 1_555 1_555
H17A C13A 1_555 1_555
H18A C13A 1_555 1_555
C14A C9A 1_555 1_555
H19A C14A 1_555 1_555
H20A C14A 1_555 1_555
C15A C16A 1_555 1_555
C16A N6A 1_555 1_555
C17A C16A 1_555 1_555
H21A C17A 1_555 1_555
H22A C17A 1_555 1_555
C18A C17A 1_555 1_555
H23A C18A 1_555 1_555
H24A C18A 1_555 1_555
C19A C18A 1_555 1_555
H25A C19A 1_555 1_555
H26A C19A 1_555 1_555
C20A C19A 1_555 1_555
H27A C20A 1_555 1_555
H28A C20A 1_555 1_555
C21A C16A 1_555 1_555
H29A C21A 1_555 1_555
H30A C21A 1_555 1_555
C22A C23A 1_555 1_555
C23A N8A 1_555 1_555
C24A C23A 1_555 1_555
H31A C24A 1_555 1_555
H32A C24A 1_555 1_555
C25A C24A 1_555 1_555
H33A C25A 1_555 1_555
H34A C25A 1_555 1_555
C26A C25A 1_555 1_555
H35A C26A 1_555 1_555
H36A C26A 1_555 1_555
C27A C26A 1_555 1_555
H37A C27A 1_555 1_555
H38A C27A 1_555 1_555
C28A C23A 1_555 1_555
H39A C28A 1_555 1_555
H40A C28A 1_555 1_555
C29_2 C30_2 1_555 1_555
C30_2 N10_2 1_555 1_555
C31_2 C30_2 1_555 1_555
H41_2 C31_2 1_555 1_555
H42_2 C31_2 1_555 1_555
C32_2 C31_2 1_555 1_555
H43_2 C32_2 1_555 1_555
H44_2 C32_2 1_555 1_555
C33_2 C32_2 1_555 1_555
H45_2 C33_2 1_555 1_555
H46_2 C33_2 1_555 1_555
C34_2 C33_2 1_555 1_555
H47_2 C34_2 1_555 1_555
H48_2 C34_2 1_555 1_555
C35_2 C30_2 1_555 1_555
H49_2 C35_2 1_555 1_555
H50_2 C35_2 1_555 1_555
C36_2 N11_2 1_555 1_555
C37_2 C36_2 1_555 1_555
C38_2 C37_2 1_555 1_555
H51_2 C38_2 1_555 1_555
H52_2 C38_2 1_555 1_555
C39_2 C38_2 1_555 1_555
H53_2 C39_2 1_555 1_555
H54_2 C39_2 1_555 1_555
C40_2 C39_2 1_555 1_555
H55_2 C40_2 1_555 1_555
H56_2 C40_2 1_555 1_555
C41_2 C40_2 1_555 1_555
H57_2 C41_2 1_555 1_555
H58_2 C41_2 1_555 1_555
C42_2 C37_2 1_555 1_555
H59_2 C42_2 1_555 1_555
H60_2 C42_2 1_555 1_555
C6 C7 1_555 1_555
C13 C14 1_555 1_555
C20 C21 1_555 1_555
C27 C28 1_555 1_555
C29 C30 1_555 1_555
C34 C35 1_555 1_555
C41 C42 1_555 1_555
C6A C7A 1_555 1_555
C13A C14A 1_555 1_555
C20A C21A 1_555 1_555
C27A C28A 1_555 1_555
C34_2 C35_2 1_555 1_555
C41_2 C42_2 1_555 1_555

#END
