
#######################################################################
#
#                 Cambridge Crystallographic Data Centre
#                                CCDC 
#
#######################################################################
#
# If this CIF has been generated from an entry in the Cambridge 
# Structural Database, then it will include bibliographic, chemical, 
# crystal, experimental, refinement or atomic coordinate data resulting 
# from the CCDC's data processing and validation procedures.
#
#######################################################################

data_GOBGAG
_chemical_formula_moiety         '(C26 H26 Cd2 N10 O15)n'
_symmetry_cell_setting           cubic
_symmetry_space_group_name_H-M   'I m -3 m'
_symmetry_Int_Tables_number      229
_space_group_name_Hall           '-I 4 2 3'
loop_
_symmetry_equiv_pos_site_id
_symmetry_equiv_pos_as_xyz
1 x,y,z
2 z,x,y
3 y,z,x
4 y,x,-z
5 y,-x,z
6 -y,x,z
7 x,z,-y
8 -x,z,y
9 x,-z,y
10 z,y,-x
11 z,-y,x
12 -z,y,x
13 1/2+x,1/2+y,1/2+z
14 1/2+z,1/2+x,1/2+y
15 1/2+y,1/2+z,1/2+x
16 1/2+y,1/2+x,1/2-z
17 1/2+y,1/2-x,1/2+z
18 1/2-y,1/2+x,1/2+z
19 1/2+x,1/2+z,1/2-y
20 1/2-x,1/2+z,1/2+y
21 1/2+x,1/2-z,1/2+y
22 1/2+z,1/2+y,1/2-x
23 1/2+z,1/2-y,1/2+x
24 1/2-z,1/2+y,1/2+x
25 -x,-y,z
26 -x,y,-z
27 x,-y,-z
28 z,-x,-y
29 -z,-x,y
30 -z,x,-y
31 -y,z,-x
32 y,-z,-x
33 -y,-z,x
34 -y,-x,-z
35 -x,-z,-y
36 -z,-y,-x
37 1/2-x,1/2-y,1/2+z
38 1/2-x,1/2+y,1/2-z
39 1/2+x,1/2-y,1/2-z
40 1/2+z,1/2-x,1/2-y
41 1/2-z,1/2-x,1/2+y
42 1/2-z,1/2+x,1/2-y
43 1/2-y,1/2+z,1/2-x
44 1/2+y,1/2-z,1/2-x
45 1/2-y,1/2-z,1/2+x
46 1/2-y,1/2-x,1/2-z
47 1/2-x,1/2-z,1/2-y
48 1/2-z,1/2-y,1/2-x
49 -x,-y,-z
50 -z,-x,-y
51 -y,-z,-x
52 -y,-x,z
53 -y,x,-z
54 y,-x,-z
55 -x,-z,y
56 x,-z,-y
57 -x,z,-y
58 -z,-y,x
59 -z,y,-x
60 z,-y,-x
61 1/2-x,1/2-y,1/2-z
62 1/2-z,1/2-x,1/2-y
63 1/2-y,1/2-z,1/2-x
64 1/2-y,1/2-x,1/2+z
65 1/2-y,1/2+x,1/2-z
66 1/2+y,1/2-x,1/2-z
67 1/2-x,1/2-z,1/2+y
68 1/2+x,1/2-z,1/2-y
69 1/2-x,1/2+z,1/2-y
70 1/2-z,1/2-y,1/2+x
71 1/2-z,1/2+y,1/2-x
72 1/2+z,1/2-y,1/2-x
73 x,y,-z
74 x,-y,z
75 -x,y,z
76 -z,x,y
77 z,x,-y
78 z,-x,y
79 y,-z,x
80 -y,z,x
81 y,z,-x
82 y,x,z
83 x,z,y
84 z,y,x
85 1/2+x,1/2+y,1/2-z
86 1/2+x,1/2-y,1/2+z
87 1/2-x,1/2+y,1/2+z
88 1/2-z,1/2+x,1/2+y
89 1/2+z,1/2+x,1/2-y
90 1/2+z,1/2-x,1/2+y
91 1/2+y,1/2-z,1/2+x
92 1/2-y,1/2+z,1/2+x
93 1/2+y,1/2+z,1/2-x
94 1/2+y,1/2+x,1/2+z
95 1/2+x,1/2+z,1/2+y
96 1/2+z,1/2+y,1/2+x
_cell_length_a                   30.070(7)
_cell_length_b                   30.070(7)
_cell_length_c                   30.070(7)
_cell_angle_alpha                90
_cell_angle_beta                 90
_cell_angle_gamma                90
_cell_volume                     27189.4
loop_
_atom_site_label
_atom_site_type_symbol
_atom_site_fract_x
_atom_site_fract_y
_atom_site_fract_z
_atom_site_U_iso_or_equiv
_atom_site_thermal_displace_type
C9 C 0.3062(11) 0.3062(11) 0.243(2) 0.1790 Uiso
N4 N 0.3124(19) 0.2599(14) 0.2599(14) 0.1790 Uiso
C11 C 0.3040(13) 0.274(2) 0.208(2) 0.1000 Uiso
C9B C 0.3062(11) 0.243(2) 0.3062(11) 0.1790 Uiso
N4A N 0.2599(14) 0.3124(19) 0.2599(14) 0.1790 Uiso
C11CC C 0.274(2) 0.3040(13) 0.208(2) 0.1000 Uiso
C11DC C 0.3040(13) 0.208(2) 0.274(2) 0.1000 Uiso
C11UA C 0.292(2) 0.226(2) 0.1960(13) 0.1000 Uiso
O3 O 0.5000 0.5000 0.2243(17) 0.0510 Uiso
O5 O 0.4660(16) 0.3730(14) 0.1620(15) 0.1520 Uiso
O11 O 0.4048(15) 0.4048(15) 0.171(3) 0.2000 Uiso
O15 O 0.353(5) 0.353(5) 0.353(5) 0.2400 Uiso
O17 O 0.358(2) 0.358(2) 0.246(3) 0.1100 Uiso
O18 O 0.5000 0.351(4) 0.264(4) 0.1700 Uiso
O19 O 0.5000 0.5000 0.5000 0.0700 Uiso
Cd1 Cd 0.39518(4) 0.2500 0.10482(4) 0.0679 Uani
O1 O 0.4633(3) 0.2882(3) 0.1244(3) 0.0763 Uani
C1 C 0.5000 0.2710(6) 0.1169(7) 0.0650 Uani
C2 C 0.5000(6) 0.2249(6) 0.0979 0.0550 Uani
N1 N 0.4102(4) 0.2939(4) 0.0392(4) 0.0707 Uani
C3 C 0.4283(5) 0.3345(5) 0.0387(5) 0.0753 Uani
H1 H 0.4351 0.3485 0.0661 0.0910 Uiso
C4 C 0.4375(6) 0.3565(7) 0.0000 0.0660 Uani
H2 H 0.4496 0.3856 0.0000 0.0790 Uiso
O2 O 0.3740(3) 0.3223(3) 0.1307(3) 0.0733 Uani
C5 C 0.3353(5) 0.3353(5) 0.1232(6) 0.0590 Uani
C6 C 0.3024(6) 0.3024(5) 0.1066(5) 0.0583 Uani
N2 N 0.4015(3) 0.2389(4) 0.1842(4) 0.0593 Uani
C7 C 0.4166(6) 0.2677(5) 0.2126(6) 0.0847 Uani
H3 H 0.4230 0.2973 0.2035 0.1010 Uiso
C8 C 0.4232(9) 0.2551(6) 0.2551(6) 0.1027 Uani
H4 H 0.4326 0.2764 0.2764 0.1210 Uiso
Cd1TB Cd 0.39518(4) 0.2500 -0.10482(4) 0.0679 Uani
Cd1DC Cd 0.39518(4) 0.10482(4) 0.2500 0.0679 Uani
Cd1CC Cd 0.2500 0.39518(4) 0.10482(4) 0.0679 Uani
Cd1VB Cd 0.60482(4) 0.2500 0.10482(4) 0.0679 Uani
O1UA O 0.3756(3) 0.2118(3) 0.0367(3) 0.0763 Uani
O1VB O 0.5367(3) 0.2882(3) 0.1244(3) 0.0763 Uani
O1QB O 0.3756(3) 0.2118(3) -0.0367(3) 0.0763 Uani
O1SB O 0.6244(3) 0.2118(3) 0.0367(3) 0.0763 Uani
C1QB C 0.3831(7) 0.2290(6) 0.0000 0.0650 Uani
C2QB C 0.4021 0.2751(6) 0.0000(6) 0.0550 Uani
N1UA N 0.4608(4) 0.2061(4) 0.0898(4) 0.0707 Uani
N1SB N 0.5392(4) 0.2061(4) 0.0898(4) 0.0707 Uani
N1TB N 0.4102(4) 0.2939(4) -0.0392(4) 0.0707 Uani
N1VB N 0.5898(4) 0.2939(4) 0.0392(4) 0.0707 Uani
C3TB C 0.4283(5) 0.3345(5) -0.0387(5) 0.0753 Uani
C3SB C 0.5387(5) 0.1655(5) 0.0717(5) 0.0753 Uani
C3UA C 0.4613(5) 0.1655(5) 0.0717(5) 0.0753 Uani
H1TB H 0.4351 0.3485 -0.0661 0.0910 Uiso
H1SB H 0.5661 0.1515 0.0649 0.0910 Uiso
H1UA H 0.4339 0.1515 0.0649 0.0910 Uiso
C4SB C 0.5000 0.1435(7) 0.0625(6) 0.0660 Uani
H2SB H 0.5000 0.1144 0.0504 0.0790 Uiso
O2UA O 0.3693(3) 0.1777(3) 0.1260(3) 0.0733 Uani
O2CC O 0.3223(3) 0.3740(3) 0.1307(3) 0.0733 Uani
O2IB O 0.3693(3) 0.1260(3) 0.1777(3) 0.0733 Uani
O2VB O 0.6260(3) 0.3223(3) 0.1307(3) 0.0733 Uani
O2SB O 0.6307(3) 0.1777(3) 0.1260(3) 0.0733 Uani
C5IB C 0.3768(6) 0.1647(5) 0.1647(5) 0.0590 Uani
C6IB C 0.3934(5) 0.1976(6) 0.1976(5) 0.0583 Uani
N2UA N 0.3158(4) 0.2611(4) 0.0985(3) 0.0593 Uani
N2JB N 0.2611(4) 0.3158(4) 0.0985(3) 0.0593 Uani
N2DC N 0.4015(3) 0.1842(4) 0.2389(4) 0.0593 Uani
N2VB N 0.5985(3) 0.2389(4) 0.1842(4) 0.0593 Uani
N2SB N 0.6842(4) 0.2611(4) 0.0985(3) 0.0593 Uani
C7DC C 0.4166(6) 0.2126(6) 0.2677(5) 0.0847 Uani
C7UA C 0.2874(6) 0.2323(5) 0.0834(6) 0.0847 Uani
C7JB C 0.2323(5) 0.2874(6) 0.0834(6) 0.0847 Uani
H3DC H 0.4230 0.2035 0.2973 0.1010 Uiso
H3UA H 0.2965 0.2027 0.0770 0.1010 Uiso
H3JB H 0.2027 0.2965 0.0770 0.1010 Uiso
C8JB C 0.2449(6) 0.2449(6) 0.0768(9) 0.1027 Uani
H4JB H 0.2236 0.2236 0.0674 0.1210 Uiso
loop_
_atom_site_aniso_label
_atom_site_aniso_U_11
_atom_site_aniso_U_22
_atom_site_aniso_U_33
_atom_site_aniso_U_23
_atom_site_aniso_U_13
_atom_site_aniso_U_12
Cd1 0.0727(9) 0.0582(10) 0.0727(9) -0.0022(5) -0.0090(9) -0.0022(5)
O1 0.069 0.069 0.091 -0.007 0.005 0.002
C1 0.08 0.034 0.081 0.005 0 0
C2 0.058 0.045 0.062 0.004 0 0
N1 0.074(8) 0.057(8) 0.081(9) -0.009(7) 0.000(7) -0.007(7)
C3 0.094(12) 0.060(11) 0.072(11) -0.004(9) -0.019(9) 0.006(9)
C4 0.069(14) 0.063(14) 0.066(15) 0.000 0.000 0.008(11)
O2 0.065 0.07 0.085 -0.015 -0.018 0.007
C5 0.061 0.061 0.055 0.006 0.006 0.005
C6 0.061 0.061 0.053 0.004 0.004 0.003
N2 0.057(7) 0.060(8) 0.061(8) -0.006(7) -0.011(6) -0.011(6)
C7 0.107(13) 0.053(10) 0.094(13) -0.003(10) -0.014(11) -0.010(9)
C8 0.12(2) 0.094(12) 0.094(12) -0.007(17) 0.004(11) 0.004(11)
Cd1TB 0.0727 0.0582 0.0727 0.0022 0.009 -0.0022
Cd1DC 0.0727 0.0727 0.0582 -0.0022 -0.0022 -0.009
Cd1CC 0.0582 0.0727 0.0727 -0.009 -0.0022 -0.0022
Cd1VB 0.0727 0.0582 0.0727 -0.0022 0.009 0.0022
O1UA 0.091 0.069 0.069 0.002 0.005 -0.007
O1VB 0.069 0.069 0.091 -0.007 -0.005 -0.002
O1QB 0.091 0.069 0.069 -0.002 -0.005 -0.007
O1SB 0.091 0.069 0.069 0.002 -0.005 0.007
C1QB 0.081 0.034 0.08 0 0 0.005
C2QB 0.062(13) 0.045(13) 0.058(14) 0.000 0.000 0.004(10)
N1UA 0.081 0.057 0.074 -0.007 0 -0.009
N1SB 0.081 0.057 0.074 -0.007 0 0.009
N1TB 0.074 0.057 0.081 0.009 0 -0.007
N1VB 0.074 0.057 0.081 -0.009 0 0.007
C3TB 0.094 0.06 0.072 0.004 0.019 0.006
C3SB 0.072 0.06 0.094 0.006 0.019 0.004
C3UA 0.072 0.06 0.094 0.006 -0.019 -0.004
C4SB 0.066 0.063 0.069 0.008 0 0
O2UA 0.085 0.07 0.065 0.007 -0.018 -0.015
O2CC 0.07 0.065 0.085 -0.018 -0.015 0.007
O2IB 0.085 0.065 0.07 0.007 -0.015 -0.018
O2VB 0.065 0.07 0.085 -0.015 0.018 -0.007
O2SB 0.085 0.07 0.065 0.007 0.018 0.015
C5IB 0.055 0.061 0.061 0.005 0.006 0.006
C6IB 0.053(12) 0.061(8) 0.061(8) 0.003(13) 0.004(8) 0.004(8)
N2UA 0.061 0.06 0.057 -0.011 -0.011 -0.006
N2JB 0.06 0.061 0.057 -0.011 -0.011 -0.006
N2DC 0.057 0.061 0.06 -0.006 -0.011 -0.011
N2VB 0.057 0.06 0.061 -0.006 0.011 0.011
N2SB 0.061 0.06 0.057 -0.011 0.011 0.006
C7DC 0.107 0.094 0.053 -0.003 -0.01 -0.014
C7UA 0.094 0.053 0.107 -0.01 -0.014 -0.003
C7JB 0.053 0.094 0.107 -0.014 -0.01 -0.003
C8JB 0.094 0.094 0.12 0.004 0.004 -0.007
loop_
_geom_bond_atom_site_label_1
_geom_bond_atom_site_label_2
_geom_bond_site_symmetry_1
_geom_bond_site_symmetry_2
Cd1 O1 1_555 1_555
O1 C1 1_555 1_555
C1 C2 1_555 1_555
C2 N1UA 1_555 1_555
N1 Cd1 1_555 1_555
C3 N1 1_555 1_555
H1 C3 1_555 1_555
C4 C3 1_555 1_555
H2 C4 1_555 1_555
O2 Cd1 1_555 1_555
C5 O2 1_555 1_555
C6 C5 1_555 1_555
N2 Cd1 1_555 1_555
C7 N2 1_555 1_555
H3 C7 1_555 1_555
C8 C7 1_555 1_555
H4 C8 1_555 1_555
C9 N4 1_555 1_555
N4 C11 1_555 1_555
C11 C9 1_555 1_555
Cd1TB O1QB 1_555 1_555
Cd1DC O2IB 1_555 1_555
Cd1CC O2CC 1_555 1_555
Cd1VB O1VB 1_555 1_555
O1UA Cd1 1_555 1_555
O1VB C1 1_555 1_555
O1QB C1QB 1_555 1_555
O1SB Cd1VB 1_555 1_555
C1QB O1UA 1_555 1_555
C2QB N1 1_555 1_555
N1UA Cd1 1_555 1_555
N1SB C2 1_555 1_555
N1TB Cd1TB 1_555 1_555
N1VB Cd1VB 1_555 1_555
C3TB C4 1_555 1_555
C3SB N1SB 1_555 1_555
C3UA N1UA 1_555 1_555
H1TB C3TB 1_555 1_555
H1SB C3SB 1_555 1_555
H1UA C3UA 1_555 1_555
C4SB C3SB 1_555 1_555
H2SB C4SB 1_555 1_555
O2UA Cd1 1_555 1_555
O2CC C5 1_555 1_555
O2IB C5IB 1_555 1_555
O2VB Cd1VB 1_555 1_555
O2SB Cd1VB 1_555 1_555
C5IB O2UA 1_555 1_555
C6IB N2 1_555 1_555
N2UA Cd1 1_555 1_555
N2JB C6 1_555 1_555
N2DC Cd1DC 1_555 1_555
N2VB Cd1VB 1_555 1_555
N2SB Cd1VB 1_555 1_555
C7DC C8 1_555 1_555
C7UA N2UA 1_555 1_555
C7JB N2JB 1_555 1_555
H3DC C7DC 1_555 1_555
H3UA C7UA 1_555 1_555
H3JB C7JB 1_555 1_555
C8JB C7UA 1_555 1_555
H4JB C8JB 1_555 1_555
C9B N4 1_555 1_555
N4A C9 1_555 1_555
C11CC C9 1_555 1_555
C11DC N4 1_555 1_555
C11UA C11 1_555 1_555
C6 N2UA 1_555 1_555
C11 C11CC 1_555 1_555
Cd1CC N2JB 1_555 1_555
Cd1VB N1SB 1_555 1_555
C1QB C2QB 1_555 1_555
C2QB N1TB 1_555 1_555
N1TB C3TB 1_555 1_555
C3UA C4SB 1_555 1_555
C5IB C6IB 1_555 1_555
C6IB N2DC 1_555 1_555
N2DC C7DC 1_555 1_555
C7JB C8JB 1_555 1_555
C9B C11DC 1_555 1_555
N4A C11CC 1_555 1_555

#END
