
#######################################################################
#
#                 Cambridge Crystallographic Data Centre
#                                CCDC 
#
#######################################################################
#
# If this CIF has been generated from an entry in the Cambridge 
# Structural Database, then it will include bibliographic, chemical, 
# crystal, experimental, refinement or atomic coordinate data resulting 
# from the CCDC's data processing and validation procedures.
#
#######################################################################

data_DEHFUR
_chemical_formula_moiety         '(C18 H48 O24 P2 Zn3)n'
_symmetry_cell_setting           hexagonal
_symmetry_space_group_name_H-M   'P 61'
_symmetry_Int_Tables_number      169
_space_group_name_Hall           'P 61'
loop_
_symmetry_equiv_pos_site_id
_symmetry_equiv_pos_as_xyz
1 x,y,z
2 -y,x-y,1/3+z
3 -x+y,-x,2/3+z
4 -x,-y,1/2+z
5 y,-x+y,5/6+z
6 x-y,x,1/6+z
_cell_length_a                   11.441(4)
_cell_length_b                   11.441(4)
_cell_length_c                   46.83(1)
_cell_angle_alpha                90
_cell_angle_beta                 90
_cell_angle_gamma                120
_cell_volume                     5308.63
loop_
_atom_site_label
_atom_site_type_symbol
_atom_site_fract_x
_atom_site_fract_y
_atom_site_fract_z
Zn1 Zn -0.0186(2) -0.0044(2) 0.0000
Zn2 Zn 0.3232(2) 0.6747(2) -0.0871(1)
P1 P -0.0206(4) -0.0056(4) 0.0519(1)
P2 P 0.3192(4) 0.6615(4) -0.0358(1)
C1 C 0.1495(16) 0.0809(18) 0.0683(4)
C2 C 0.2459(13) 0.0409(14) 0.0544(3)
C3 C 0.3795(15) 0.1098(16) 0.0703(4)
O1 O 0.4695(9) 0.2282(10) 0.0618(2)
O2 O 0.4012(10) 0.0504(12) 0.0906(2)
C4 C -0.1008(15) -0.1741(14) 0.0693(3)
C5 C -0.2316(16) -0.2779(15) 0.0531(4)
C6 C -0.2955(14) -0.4117(15) 0.0679(3)
O3 O -0.2719(10) -0.5028(9) 0.0590(2)
O4 O -0.3680(10) -0.4292(11) 0.0892(3)
C7 C -0.1094(16) 0.0754(16) 0.0682(4)
C8 C -0.0596(21) 0.2165(20) 0.0548(4)
C9 C -0.1387(18) 0.2800(15) 0.0683(4)
O5 O -0.2656(10) 0.2258(10) 0.0642(2)
O6 O -0.0745(11) 0.3849(11) 0.0829(2)
C10 C 0.2756(14) 0.4980(14) -0.0200(3)
C11 C 0.1328(14) 0.3878(15) -0.0251(3)
C12 C 0.1001(16) 0.2556(15) -0.0119(4)
O7 O -0.0113(10) 0.1513(10) -0.0198(2)
O8 O 0.1737(11) 0.2480(10) 0.0056(2)
C13 C 0.2016(16) 0.6985(16) -0.0170(5)
C14 C 0.2311(16) 0.8451(15) -0.0225(4)
C15 C 0.1295(15) 0.8732(16) -0.0088(4)
O9 O 0.1309(10) 0.9790(10) -0.0176(3)
O10 O 0.0415(10) 0.7913(10) 0.0079(2)
C16 C 0.4754(14) 0.7765(14) -0.0185(3)
C17 C 0.5863(19) 0.7458(16) -0.0259(4)
C18 C 0.7213(14) 0.8465(15) -0.0116(4)
O11 O 0.8264(10) 0.8471(10) -0.0202(2)
O12 O 0.7251(10) 0.9227(10) 0.0076(2)
O9_2 O 0.1309(10) -0.0210(10) -0.0176(3)
O11_2 O -0.1736(10) -0.1529(10) -0.0202(2)
O1D O 0.2282(10) 0.7587(13) -0.1049(2)
O3D O 0.4972(9) 0.7691(13) -0.1077(2)
O5D O 0.2258(10) 0.4914(14) -0.1025(2)
Zn2E Zn 0.6485(3) 0.3232(2) 0.0796(1)
Zn2E_2 Zn -0.3515(3) -0.6768(2) 0.0796(1)
Zn2E_3 Zn -0.3515(3) 0.3232(2) 0.0796(1)
Zn1_2 Zn -0.0186(2) 0.9956(2) 0.0000
Zn1_3 Zn 0.9814(2) 0.9956(2) 0.0000
Zn3 Zn 0.5288(3) 0.3145(2) -0.0205(1)
O13 O 0.4341(10) 0.3385(10) 0.0145(3)
O14 O 0.5767(14) 0.1712(15) -0.0160(4)
O15 O 0.5732(12) 0.4378(13) -0.0520(3)
O16 O 0.3485(11) 0.1919(11) -0.0422(2)
O17 O 0.7232(12) 0.4585(13) -0.0019(3)
H1 H 0.425 0.310 0.035
H2 H 0.350 0.350 0.015
H3 H 0.600 0.125 0.000
H4 H 0.665 0.210 -0.030
H5 H 0.630 0.540 -0.052
H6 H 0.535 0.395 -0.071
H7 H 0.260 0.110 -0.032
H8 H 0.400 0.175 -0.057
H9 H 0.765 0.550 -0.013
H10 H 0.735 0.485 0.018
O18 O 0.5693(13) 0.0341(13) 0.0267(2)
H11 H 0.635 0.075 0.045
H12 H 0.610 -0.015 0.015
O19 O 0.8306(11) 0.6376(13) -0.0480(3)
H13 H 0.900 0.630 -0.062
H14 H 0.875 0.740 -0.043
O20 O 0.7713(13) 0.1577(14) -0.0470(3)
H15 H 0.735 0.100 -0.063
H16 H 0.855 0.150 -0.042
O21 O 0.8384(29) 0.3565(24) -0.0885(6)
H17 H 0.820 0.330 -0.067
H18 H 0.935 0.395 -0.099
O22 O 0.6195(24) 0.3272(17) -0.1178(4)
H19 H 0.635 0.420 -0.110
H20 H 0.660 0.280 -0.110
O23 O 0.4307(13) 0.1047(13) -0.0872(3)
H21 H 0.525 0.175 -0.092
H22 H 0.450 0.030 -0.077
O24 O 0.6362(24) 0.5739(18) -0.1177(5)
H23 H 0.570 0.580 -0.104
H24 H 0.660 0.640 -0.135
loop_
_geom_bond_atom_site_label_1
_geom_bond_atom_site_label_2
_geom_bond_site_symmetry_1
_geom_bond_site_symmetry_2
Zn1 P1 1_555 1_555
Zn2 P2 1_555 1_555
P1 C1 1_555 1_555
P2 C10 1_555 1_555
C1 C2 1_555 1_555
C2 C3 1_555 1_555
C3 O1 1_555 1_555
O1 Zn2E 1_555 1_555
O2 C3 1_555 1_555
C4 P1 1_555 1_555
C5 C4 1_555 1_555
C6 C5 1_555 1_555
O3 C6 1_555 1_555
O4 C6 1_555 1_555
C7 P1 1_555 1_555
C8 C7 1_555 1_555
C9 C8 1_555 1_555
O5 C9 1_555 1_555
O6 C9 1_555 1_555
C10 C11 1_555 1_555
C11 C12 1_555 1_555
C12 O7 1_555 1_555
O7 Zn1 1_555 1_555
O8 C12 1_555 1_555
C13 P2 1_555 1_555
C14 C13 1_555 1_555
C15 C14 1_555 1_555
O9 C15 1_555 1_555
O10 C15 1_555 1_555
C16 P2 1_555 1_555
C17 C16 1_555 1_555
C18 C17 1_555 1_555
O11 C18 1_555 1_555
O12 C18 1_555 1_555
Zn3 O13 1_555 1_555
O13 H1 1_555 1_555
O14 Zn3 1_555 1_555
O15 Zn3 1_555 1_555
O16 Zn3 1_555 1_555
O17 Zn3 1_555 1_555
H2 O13 1_555 1_555
H3 O14 1_555 1_555
H4 O14 1_555 1_555
H5 O15 1_555 1_555
H6 O15 1_555 1_555
H7 O16 1_555 1_555
H8 O16 1_555 1_555
H9 O17 1_555 1_555
H10 O17 1_555 1_555
O18 H11 1_555 1_555
H12 O18 1_555 1_555
O19 H13 1_555 1_555
H14 O19 1_555 1_555
O20 H15 1_555 1_555
H16 O20 1_555 1_555
O21 H17 1_555 1_555
H18 O21 1_555 1_555
O22 H19 1_555 1_555
H20 O22 1_555 1_555
O23 H21 1_555 1_555
H22 O23 1_555 1_555
O24 H23 1_555 1_555
H24 O24 1_555 1_555
O9_2 Zn1 1_555 1_555
O11_2 Zn1 1_555 1_555
O1D Zn2 1_555 1_555
O3D Zn2 1_555 1_555
O5D Zn2 1_555 1_555
Zn2E_2 O3 1_555 1_555
Zn2E_3 O5 1_555 1_555
Zn1_2 O9 1_555 1_555
Zn1_3 O11 1_555 1_555

#END
