
#######################################################################
#
#                 Cambridge Crystallographic Data Centre
#                                CCDC 
#
#######################################################################
#
# If this CIF has been generated from an entry in the Cambridge 
# Structural Database, then it will include bibliographic, chemical, 
# crystal, experimental, refinement or atomic coordinate data resulting 
# from the CCDC's data processing and validation procedures.
#
#######################################################################

data_WOYWEO
_chemical_formula_moiety         '(C150 H132 Mn6 N24 O24)n'
_symmetry_cell_setting           triclinic
_symmetry_space_group_name_H-M   'P -1'
_symmetry_Int_Tables_number      2
_space_group_name_Hall           '-P 1'
loop_
_symmetry_equiv_pos_site_id
_symmetry_equiv_pos_as_xyz
1 x,y,z
2 -x,-y,-z
_cell_length_a                   12.281(3)
_cell_length_b                   12.919(3)
_cell_length_c                   30.425(6)
_cell_angle_alpha                94.65(3)
_cell_angle_beta                 93.93(3)
_cell_angle_gamma                92.40(3)
_cell_volume                     4794.51
loop_
_atom_site_label
_atom_site_type_symbol
_atom_site_fract_x
_atom_site_fract_y
_atom_site_fract_z
Mn1 Mn 0.70591(3) 0.43425(3) 0.58037(2)
Mn2 Mn 0.67004(3) 0.40532(3) -0.08370(2)
Mn3 Mn 0.5000 0.5000 0.5000
Mn4 Mn 0.5000 0.5000 0.0000
O1 O 0.51789(16) 0.41113(17) -0.13570(7)
O2 O -0.31594(17) -0.43189(15) -0.08513(8)
O3 O 0.50053(15) 0.40379(15) -0.06413(7)
O4 O 0.75401(16) 0.37300(16) -0.02543(7)
O5 O 0.62155(17) 0.40787(16) 0.47056(7)
O6 O 0.75790(17) 0.37675(17) 0.52024(7)
O7 O 0.63783(17) 0.42130(17) 0.02507(7)
O8 O 1.52900(15) 0.42500(15) 0.56318(7)
O9 O -0.40589(18) -0.38002(16) -0.02618(7)
O10 O 0.61231(18) -0.37737(16) 0.52470(7)
O11 O 1.57487(16) 0.46088(17) 0.63432(7)
O12 O 0.72964(18) -0.40251(16) 0.58213(8)
N1 N 0.86620(18) 0.43018(18) 0.61777(8)
N2 N 0.73653(19) 0.24796(18) 0.64362(8)
N3 N -0.18133(18) 0.31757(19) -0.15648(8)
N4 N -0.32618(19) 0.19482(18) -0.14776(8)
N5 N -0.35307(19) 0.23039(18) -0.10693(8)
N6 N 0.6896(2) 0.26758(18) 0.60319(8)
N7 N -0.18638(19) 0.39533(19) -0.12379(8)
N8 N 0.88110(18) 0.37891(18) 0.65490(8)
N9 N 1.0641(2) 0.1491(2) 0.20880(8)
N10 N 1.0486(2) 0.1450(2) 0.28733(9)
N11 N 1.0069(3) 0.0476(2) 0.29341(10)
N12 N 1.0541(3) 0.0554(2) 0.18523(9)
C1 C 0.4579(2) 0.4037(2) -0.10407(10)
C2 C 1.0453(2) 0.4076(2) 0.63235(10)
C3 C 1.1641(2) 0.4102(2) 0.62721(10)
C4 C 0.9646(2) 0.4481(2) 0.60370(10)
C5 C -0.3618(2) -0.3653(2) -0.06114(10)
C6 C 1.5032(2) 0.4383(2) 0.60333(10)
C7 C 0.7846(2) 0.3358(2) 0.67273(9)
H1 H 0.7305 0.3900 0.6761
H2 H 0.8043 0.3125 0.7023
C8 C 0.9887(2) 0.3637(2) 0.66461(9)
C9 C 1.3858(2) 0.4244(2) 0.61220(10)
C10 C 0.1096(2) 0.3704(2) -0.12766(10)
C11 C -0.3614(2) 0.0541(2) -0.11396(10)
C12 C -0.0756(2) 0.2958(2) -0.16375(9)
C13 C -0.4528(2) -0.0941(2) -0.07989(10)
H3 H -0.5131 -0.0527 -0.0739
C14 C -0.3761(2) 0.1459(2) -0.08611(10)
C15 C -0.2824(2) 0.2684(2) -0.17615(10)
H4 H -0.2696 0.2319 -0.2051
H5 H -0.3360 0.3220 -0.1813
C16 C 0.6794(2) -0.2316(2) 0.57192(10)
C17 C 0.3369(2) 0.3914(2) -0.11229(10)
C18 C 0.1751(2) 0.3929(2) -0.16178(10)
H6 H 0.1425 0.4009 -0.1905
C19 C 0.6629(2) 0.1756(2) 0.58211(10)
C20 C 1.1997(2) 0.3799(3) 0.58574(11)
H7 H 1.1478 0.3536 0.5625
C21 C 0.6733(2) -0.3454(2) 0.55858(10)
C22 C 1.3513(2) 0.4517(2) 0.65410(10)
H8 H 1.4035 0.4751 0.6777
C23 C -0.0107(2) 0.3620(2) -0.13430(10)
C24 C 0.2732(2) 0.3683(2) -0.07804(10)
H9 H 0.3063 0.3599 -0.0495
C25 C 1.3094(2) 0.3876(2) 0.57796(10)
H10 H 1.3324 0.3678 0.5494
C26 C 0.6942(2) 0.0946(2) 0.60852(10)
C27 C -0.3301(2) 0.0889(2) -0.15337(10)
C28 C 0.7701(2) 0.3152(2) 0.44599(10)
C29 C -0.0824(2) 0.4229(2) -0.11012(10)
C30 C 0.7116(2) 0.3712(2) 0.48172(10)
C31 C 0.2880(2) 0.4036(2) -0.15367(10)
H11 H 0.3321 0.4195 -0.1769
C32 C 0.7407(2) 0.1446(2) 0.64784(10)
C33 C 0.1601(2) 0.3575(3) -0.08610(10)
H12 H 0.1164 0.3411 -0.0628
C34 C -0.0477(2) 0.2115(2) -0.19701(10)
H13 H -0.0704 0.1439 -0.1874
H14 H 0.0314 0.2144 -0.1998
H15 H -0.0857 0.2210 -0.2257
C35 C 1.2412(2) 0.4448(3) 0.66143(10)
H16 H 1.2183 0.4637 0.6900
C36 C -0.4499(2) -0.1938(2) -0.06595(10)
H17 H -0.5064 -0.2190 -0.0492
C37 C 0.6868(3) -0.0183(2) 0.59640(10)
C38 C -0.3675(2) -0.0545(2) -0.10261(10)
C39 C 0.7221(2) 0.3783(2) 0.01327(10)
C40 C 0.7799(3) 0.1016(3) 0.68996(11)
H18 H 0.8599 0.1020 0.6921
H19 H 0.7501 0.0301 0.6903
H20 H 0.7554 0.1444 0.7151
C41 C -0.3131(3) 0.0311(2) -0.19676(10)
H21 H -0.3540 0.0629 -0.2205
H22 H -0.3389 -0.0416 -0.1964
H23 H -0.2351 0.0341 -0.2018
C42 C -0.3644(2) -0.2574(2) -0.07640(10)
C43 C -0.2825(3) -0.2198(2) -0.10062(12)
H24 H -0.2259 -0.2637 -0.1089
C44 C 0.8688(3) 0.2592(2) 0.03569(10)
H25 H 0.8832 0.2472 0.0055
C45 C 0.9452(3) 0.1675(3) 0.34296(10)
C46 C 0.9730(3) 0.1771(3) 0.14672(10)
C47 C 0.9791(3) 0.5054(3) 0.56392(11)
H26 H 0.9713 0.4564 0.5374
H27 H 1.0520 0.5401 0.5663
H28 H 0.9236 0.5574 0.5618
C48 C 1.1209(3) 0.1573(3) 0.25231(11)
H29 H 1.1603 0.2261 0.2575
H30 H 1.1759 0.1035 0.2533
C49 C 0.9093(3) 0.2269(3) 0.11174(11)
C50 C 0.7469(3) 0.3336(3) 0.40198(11)
H31 H 0.6908 0.3789 0.3945
C51 C 0.8840(3) 0.2161(3) 0.37906(11)
C52 C 0.8506(2) 0.2458(2) 0.45607(11)
H32 H 0.8676 0.2324 0.4860
C53 C 0.5907(3) -0.1729(2) 0.56070(11)
H33 H 0.5283 -0.2053 0.5441
C54 C 0.9056(3) 0.1965(3) 0.42284(11)
H34 H 0.9590 0.1484 0.4301
C55 C 1.0292(3) 0.3096(3) 0.70363(11)
C56 C -0.4097(3) 0.1557(2) -0.03994(11)
H35 H -0.3457 0.1503 -0.0193
H36 H -0.4640 0.1000 -0.0361
H37 H -0.4415 0.2233 -0.0340
C57 C 0.5934(3) -0.0666(2) 0.57379(12)
H38 H 0.5315 -0.0272 0.5673
C58 C 0.7874(2) 0.3260(2) 0.04745(10)
C59 C -0.2818(3) -0.1185(2) -0.11300(11)
H39 H -0.2233 -0.0927 -0.1285
C60 C 0.9291(3) 0.2099(2) 0.06735(10)
H40 H 0.9840 0.1644 0.0587
C61 C 0.7703(3) -0.1847(2) 0.59579(11)
H41 H 0.8298 -0.2253 0.6043
C62 C 0.9994(3) 0.0714(3) 0.14726(11)
C63 C 0.8047(3) 0.2865(3) 0.36890(11)
H42 H 0.7903 0.3022 0.3391
C64 C 1.0156(3) 0.2230(3) 0.18623(11)
C65 C 1.0125(3) 0.2189(3) 0.31672(11)
C66 C 0.6063(3) 0.1687(3) 0.53656(11)
H43 H 0.5942 0.2389 0.5278
H44 H 0.5358 0.1301 0.5366
H45 H 0.6518 0.1325 0.5156
C67 C 0.7753(3) -0.0786(2) 0.60742(11)
H46 H 0.8392 -0.0465 0.6230
C68 C 0.9446(3) 0.0611(3) 0.32769(12)
C69 C 0.7679(3) 0.3436(3) 0.09171(11)
H47 H 0.7131 0.3893 0.1003
C70 C -0.0557(3) 0.5082(3) -0.07422(12)
H48 H -0.1107 0.5608 -0.0759
H49 H 0.0165 0.5403 -0.0779
H50 H -0.0554 0.4794 -0.0454
C71 C 0.8281(3) 0.2949(3) 0.12345(11)
H51 H 0.8141 0.3078 0.1537
C72 C 1.0147(5) 0.3345(3) 0.20426(16)
H52 H 0.9647 0.3407 0.2280
H53 H 0.9905 0.3772 0.1806
H54 H 1.0886 0.3585 0.2160
C73 C 0.8848(4) -0.0276(3) 0.34417(15)
H55 H 0.8565 -0.0760 0.3191
H56 H 0.8238 -0.0023 0.3605
H57 H 0.9344 -0.0635 0.3638
C74 C 0.9746(5) -0.0169(3) 0.11222(14)
H58 H 0.9892 -0.0828 0.1248
H59 H 1.0209 -0.0082 0.0877
H60 H 0.8976 -0.0171 0.1014
C75 C 1.0496(4) 0.3315(3) 0.32046(15)
H61 H 1.1280 0.3376 0.3162
H62 H 1.0361 0.3633 0.3498
H63 H 1.0091 0.3672 0.2978
Mn1A Mn -0.70591(3) -0.43425(3) -0.58037(2)
Mn2A Mn -0.67004(3) -0.40532(3) 0.08370(2)
O1A O -0.51789(16) -0.41113(17) 0.13570(7)
O2A O 0.31594(17) 0.43189(15) 0.08513(8)
O3A O -0.50053(15) -0.40379(15) 0.06413(7)
O4A O -0.75401(16) -0.37300(16) 0.02543(7)
O5A O -0.62155(17) -0.40787(16) -0.47056(7)
O6A O -0.75790(17) -0.37675(17) -0.52024(7)
O7A O -0.63783(17) -0.42130(17) -0.02507(7)
O8A O -1.52900(15) -0.42500(15) -0.56318(7)
O9A O 0.40589(18) 0.38002(16) 0.02618(7)
O10A O -0.61231(18) 0.37737(16) -0.52470(7)
O11A O -1.57487(16) -0.46088(17) -0.63432(7)
O12A O -0.72964(18) 0.40251(16) -0.58213(8)
N1A N -0.86620(18) -0.43018(18) -0.61777(8)
N2A N -0.73653(19) -0.24796(18) -0.64362(8)
N3A N 0.18133(18) -0.31757(19) 0.15648(8)
N4A N 0.32618(19) -0.19482(18) 0.14776(8)
N5A N 0.35307(19) -0.23039(18) 0.10693(8)
N6A N -0.6896(2) -0.26758(18) -0.60319(8)
N7A N 0.18638(19) -0.39533(19) 0.12379(8)
N8A N -0.88110(18) -0.37891(18) -0.65490(8)
N9A N -1.0641(2) -0.1491(2) -0.20880(8)
N10A N -1.0486(2) -0.1450(2) -0.28733(9)
N11A N -1.0069(3) -0.0476(2) -0.29341(10)
N12A N -1.0541(3) -0.0554(2) -0.18523(9)
C1A C -0.4579(2) -0.4037(2) 0.10407(10)
C2A C -1.0453(2) -0.4076(2) -0.63235(10)
C3A C -1.1641(2) -0.4102(2) -0.62721(10)
C4A C -0.9646(2) -0.4481(2) -0.60370(10)
C5A C 0.3618(2) 0.3653(2) 0.06114(10)
C6A C -1.5032(2) -0.4383(2) -0.60333(10)
C7A C -0.7846(2) -0.3358(2) -0.67273(9)
H1A H -0.7305 -0.3900 -0.6761
H2A H -0.8043 -0.3125 -0.7023
C8A C -0.9887(2) -0.3637(2) -0.66461(9)
C9A C -1.3858(2) -0.4244(2) -0.61220(10)
C10A C -0.1096(2) -0.3704(2) 0.12766(10)
C11A C 0.3614(2) -0.0541(2) 0.11396(10)
C12A C 0.0756(2) -0.2958(2) 0.16375(9)
C13A C 0.4528(2) 0.0941(2) 0.07989(10)
H3A H 0.5131 0.0527 0.0739
C14A C 0.3761(2) -0.1459(2) 0.08611(10)
C15A C 0.2824(2) -0.2684(2) 0.17615(10)
H4A H 0.2696 -0.2319 0.2051
H5A H 0.3360 -0.3220 0.1813
C16A C -0.6794(2) 0.2316(2) -0.57192(10)
C17A C -0.3369(2) -0.3914(2) 0.11229(10)
C18A C -0.1751(2) -0.3929(2) 0.16178(10)
H6A H -0.1425 -0.4009 0.1905
C19A C -0.6629(2) -0.1756(2) -0.58211(10)
C20A C -1.1997(2) -0.3799(3) -0.58574(11)
H7A H -1.1478 -0.3536 -0.5625
C21A C -0.6733(2) 0.3454(2) -0.55858(10)
C22A C -1.3513(2) -0.4517(2) -0.65410(10)
H8A H -1.4035 -0.4751 -0.6777
C23A C 0.0107(2) -0.3620(2) 0.13430(10)
C24A C -0.2732(2) -0.3683(2) 0.07804(10)
H9A H -0.3063 -0.3599 0.0495
C25A C -1.3094(2) -0.3876(2) -0.57796(10)
H10A H -1.3324 -0.3678 -0.5494
C26A C -0.6942(2) -0.0946(2) -0.60852(10)
C27A C 0.3301(2) -0.0889(2) 0.15337(10)
C28A C -0.7701(2) -0.3152(2) -0.44599(10)
C29A C 0.0824(2) -0.4229(2) 0.11012(10)
C30A C -0.7116(2) -0.3712(2) -0.48172(10)
C31A C -0.2880(2) -0.4036(2) 0.15367(10)
H11A H -0.3321 -0.4195 0.1769
C32A C -0.7407(2) -0.1446(2) -0.64784(10)
C33A C -0.1601(2) -0.3575(3) 0.08610(10)
H12A H -0.1164 -0.3411 0.0628
C34A C 0.0477(2) -0.2115(2) 0.19701(10)
H13A H 0.0704 -0.1439 0.1874
H14A H -0.0314 -0.2144 0.1998
H15A H 0.0857 -0.2210 0.2257
C35A C -1.2412(2) -0.4448(3) -0.66143(10)
H16A H -1.2183 -0.4637 -0.6900
C36A C 0.4499(2) 0.1938(2) 0.06595(10)
H17A H 0.5064 0.2190 0.0492
C37A C -0.6868(3) 0.0183(2) -0.59640(10)
C38A C 0.3675(2) 0.0545(2) 0.10261(10)
C39A C -0.7221(2) -0.3783(2) -0.01327(10)
C40A C -0.7799(3) -0.1016(3) -0.68996(11)
H18A H -0.8599 -0.1020 -0.6921
H19A H -0.7501 -0.0301 -0.6903
H20A H -0.7554 -0.1444 -0.7151
C41A C 0.3131(3) -0.0311(2) 0.19676(10)
H21A H 0.3540 -0.0629 0.2205
H22A H 0.3389 0.0416 0.1964
H23A H 0.2351 -0.0341 0.2018
C42A C 0.3644(2) 0.2574(2) 0.07640(10)
C43A C 0.2825(3) 0.2198(2) 0.10062(12)
H24A H 0.2259 0.2637 0.1089
C44A C -0.8688(3) -0.2592(2) -0.03569(10)
H25A H -0.8832 -0.2472 -0.0055
C45A C -0.9452(3) -0.1675(3) -0.34296(10)
C46A C -0.9730(3) -0.1771(3) -0.14672(10)
C47A C -0.9791(3) -0.5054(3) -0.56392(11)
H26A H -0.9713 -0.4564 -0.5374
H27A H -1.0520 -0.5401 -0.5663
H28A H -0.9236 -0.5574 -0.5618
C48A C -1.1209(3) -0.1573(3) -0.25231(11)
H29A H -1.1603 -0.2261 -0.2575
H30A H -1.1759 -0.1035 -0.2533
C49A C -0.9093(3) -0.2269(3) -0.11174(11)
C50A C -0.7469(3) -0.3336(3) -0.40198(11)
H31A H -0.6908 -0.3789 -0.3945
C51A C -0.8840(3) -0.2161(3) -0.37906(11)
C52A C -0.8506(2) -0.2458(2) -0.45607(11)
H32A H -0.8676 -0.2324 -0.4860
C53A C -0.5907(3) 0.1729(2) -0.56070(11)
H33A H -0.5283 0.2053 -0.5441
C54A C -0.9056(3) -0.1965(3) -0.42284(11)
H34A H -0.9590 -0.1484 -0.4301
C55A C -1.0292(3) -0.3096(3) -0.70363(11)
C56A C 0.4097(3) -0.1557(2) 0.03994(11)
H35A H 0.3457 -0.1503 0.0193
H36A H 0.4640 -0.1000 0.0361
H37A H 0.4415 -0.2233 0.0340
C57A C -0.5934(3) 0.0666(2) -0.57379(12)
H38A H -0.5315 0.0272 -0.5673
C58A C -0.7874(2) -0.3260(2) -0.04745(10)
C59A C 0.2818(3) 0.1185(2) 0.11300(11)
H39A H 0.2233 0.0927 0.1285
C60A C -0.9291(3) -0.2099(2) -0.06735(10)
H40A H -0.9840 -0.1644 -0.0587
C61A C -0.7703(3) 0.1847(2) -0.59579(11)
H41A H -0.8298 0.2253 -0.6043
C62A C -0.9994(3) -0.0714(3) -0.14726(11)
C63A C -0.8047(3) -0.2865(3) -0.36890(11)
H42A H -0.7903 -0.3022 -0.3391
C64A C -1.0156(3) -0.2230(3) -0.18623(11)
C65A C -1.0125(3) -0.2189(3) -0.31672(11)
C66A C -0.6063(3) -0.1687(3) -0.53656(11)
H43A H -0.5942 -0.2389 -0.5278
H44A H -0.5358 -0.1301 -0.5366
H45A H -0.6518 -0.1325 -0.5156
C67A C -0.7753(3) 0.0786(2) -0.60742(11)
H46A H -0.8392 0.0465 -0.6230
C68A C -0.9446(3) -0.0611(3) -0.32769(12)
C69A C -0.7679(3) -0.3436(3) -0.09171(11)
H47A H -0.7131 -0.3893 -0.1003
C70A C 0.0557(3) -0.5082(3) 0.07422(12)
H48A H 0.1107 -0.5608 0.0759
H49A H -0.0165 -0.5403 0.0779
H50A H 0.0554 -0.4794 0.0454
C71A C -0.8281(3) -0.2949(3) -0.12345(11)
H51A H -0.8141 -0.3078 -0.1537
C72A C -1.0147(5) -0.3345(3) -0.20426(16)
H52A H -0.9647 -0.3407 -0.2280
H53A H -0.9905 -0.3772 -0.1806
H54A H -1.0886 -0.3585 -0.2160
C73A C -0.8848(4) 0.0276(3) -0.34417(15)
H55A H -0.8565 0.0760 -0.3191
H56A H -0.8238 0.0023 -0.3605
H57A H -0.9344 0.0635 -0.3638
C74A C -0.9746(5) 0.0169(3) -0.11222(14)
H58A H -0.9892 0.0828 -0.1248
H59A H -1.0209 0.0082 -0.0877
H60A H -0.8976 0.0171 -0.1014
C75A C -1.0496(4) -0.3315(3) -0.32046(15)
H61A H -1.1280 -0.3376 -0.3162
H62A H -1.0361 -0.3633 -0.3498
H63A H -1.0091 -0.3672 -0.2978
Mn1_2 Mn 0.70591(3) -0.56575(3) 0.58037(2)
Mn1_3 Mn 1.70591(3) 0.43425(3) 0.58037(2)
Mn1A_2 Mn -1.70591(3) -0.43425(3) -0.58037(2)
Mn1A_3 Mn -0.70591(3) 0.56575(3) -0.58037(2)
Mn2_2 Mn -0.32996(3) -0.59468(3) -0.08370(2)
Mn2_3 Mn -0.32996(3) 0.40532(3) -0.08370(2)
Mn2A_2 Mn 0.32996(3) -0.40532(3) 0.08370(2)
Mn2A_3 Mn 0.32996(3) 0.59468(3) 0.08370(2)
Mn3_2 Mn -1.5000 -0.5000 -0.5000
Mn3_3 Mn -0.5000 -0.5000 -0.5000
Mn3_4 Mn -0.5000 0.5000 -0.5000
Mn3_5 Mn 0.5000 -0.5000 0.5000
Mn3_6 Mn 1.5000 0.5000 0.5000
Mn4_2 Mn -0.5000 -0.5000 0.0000
O2_2 O 0.68406(17) 0.56811(15) -0.08513(8)
O2A_2 O -0.68406(17) -0.56811(15) 0.08513(8)
O3A_2 O 0.49947(15) 0.59621(15) 0.06413(7)
O5A_2 O 0.37845(17) 0.59213(16) 0.52944(7)
O7A_2 O 0.36217(17) 0.57870(17) -0.02507(7)
O8_2 O 0.52900(15) 0.42500(15) 0.56318(7)
O8A_2 O -0.52900(15) -0.42500(15) -0.56318(7)
O8A_3 O 0.47100(15) 0.57500(15) 0.43682(7)
O9_2 O 0.59411(18) 0.61998(16) -0.02618(7)
O10_2 O 0.61231(18) 0.62263(16) 0.52470(7)
O10A_2 O 0.38769(18) 0.37737(16) 0.47530(7)
O11_2 O 0.57487(16) 0.46088(17) 0.63432(7)
O11A_2 O -0.57487(16) -0.46088(17) -0.63432(7)
O12_2 O 0.72964(18) 0.59749(16) 0.58213(8)
O12A_2 O -0.72964(18) -0.59749(16) -0.58213(8)
N5_2 N 0.64693(19) 0.23039(18) -0.10693(8)
N5A_2 N -0.64693(19) -0.23039(18) 0.10693(8)
N7_2 N 0.81362(19) 0.39533(19) -0.12379(8)
N7A_2 N -0.81362(19) -0.39533(19) 0.12379(8)
loop_
_geom_bond_atom_site_label_1
_geom_bond_atom_site_label_2
_geom_bond_site_symmetry_1
_geom_bond_site_symmetry_2
Mn1 O6 1_555 1_555
Mn2 O1 1_555 1_555
Mn3 O5 1_555 1_555
Mn4 O3 1_555 1_555
O1 C1 1_555 1_555
O2 C5 1_555 1_555
O3 Mn2 1_555 1_555
O4 Mn2 1_555 1_555
O5 C30 1_555 1_555
O6 C30 1_555 1_555
O7 Mn4 1_555 1_555
O8 C6 1_555 1_555
O9 C5 1_555 1_555
O10 C21 1_555 1_555
O11 C6 1_555 1_555
O12 C21 1_555 1_555
N1 Mn1 1_555 1_555
N2 N6 1_555 1_555
N3 N7 1_555 1_555
N4 N5 1_555 1_555
N5 C14 1_555 1_555
N6 Mn1 1_555 1_555
N7 C29 1_555 1_555
N8 N1 1_555 1_555
N9 N12 1_555 1_555
N10 N11 1_555 1_555
N11 C68 1_555 1_555
N12 C62 1_555 1_555
C1 O3 1_555 1_555
C2 C3 1_555 1_555
C3 C20 1_555 1_555
C4 N1 1_555 1_555
C5 C42 1_555 1_555
C6 C9 1_555 1_555
C7 N2 1_555 1_555
H1 C7 1_555 1_555
H2 C7 1_555 1_555
C8 N8 1_555 1_555
C9 C22 1_555 1_555
C10 C18 1_555 1_555
C11 C14 1_555 1_555
C12 N3 1_555 1_555
C13 H3 1_555 1_555
C14 C56 1_555 1_555
C15 N3 1_555 1_555
H4 C15 1_555 1_555
H5 C15 1_555 1_555
C16 C21 1_555 1_555
C17 C1 1_555 1_555
C18 H6 1_555 1_555
C19 N6 1_555 1_555
C20 H7 1_555 1_555
C22 H8 1_555 1_555
C23 C10 1_555 1_555
C24 C17 1_555 1_555
H9 C24 1_555 1_555
C25 C9 1_555 1_555
H10 C25 1_555 1_555
C26 C19 1_555 1_555
C27 N4 1_555 1_555
C28 C30 1_555 1_555
C29 C23 1_555 1_555
C31 C17 1_555 1_555
H11 C31 1_555 1_555
C32 N2 1_555 1_555
C33 C10 1_555 1_555
H12 C33 1_555 1_555
C34 C12 1_555 1_555
H13 C34 1_555 1_555
H14 C34 1_555 1_555
H15 C34 1_555 1_555
C35 C3 1_555 1_555
H16 C35 1_555 1_555
C36 C13 1_555 1_555
H17 C36 1_555 1_555
C37 C26 1_555 1_555
C38 C11 1_555 1_555
C39 O4 1_555 1_555
C40 C32 1_555 1_555
H18 C40 1_555 1_555
H19 C40 1_555 1_555
H20 C40 1_555 1_555
C41 C27 1_555 1_555
H21 C41 1_555 1_555
H22 C41 1_555 1_555
H23 C41 1_555 1_555
C42 C36 1_555 1_555
C43 C42 1_555 1_555
H24 C43 1_555 1_555
C44 H25 1_555 1_555
C45 C51 1_555 1_555
C46 C49 1_555 1_555
C47 C4 1_555 1_555
H26 C47 1_555 1_555
H27 C47 1_555 1_555
H28 C47 1_555 1_555
C48 N9 1_555 1_555
H29 C48 1_555 1_555
H30 C48 1_555 1_555
C49 C60 1_555 1_555
C50 C28 1_555 1_555
H31 C50 1_555 1_555
C51 C54 1_555 1_555
C52 C28 1_555 1_555
H32 C52 1_555 1_555
C53 C16 1_555 1_555
H33 C53 1_555 1_555
C54 C52 1_555 1_555
H34 C54 1_555 1_555
C55 C8 1_555 1_555
C56 H35 1_555 1_555
H36 C56 1_555 1_555
H37 C56 1_555 1_555
C57 C37 1_555 1_555
H38 C57 1_555 1_555
C58 C39 1_555 1_555
C59 C38 1_555 1_555
H39 C59 1_555 1_555
C60 C44 1_555 1_555
H40 C60 1_555 1_555
C61 C16 1_555 1_555
H41 C61 1_555 1_555
C62 C46 1_555 1_555
C63 C50 1_555 1_555
H42 C63 1_555 1_555
C64 N9 1_555 1_555
C65 N10 1_555 1_555
C66 C19 1_555 1_555
H43 C66 1_555 1_555
H44 C66 1_555 1_555
H45 C66 1_555 1_555
C67 C37 1_555 1_555
H46 C67 1_555 1_555
C68 C45 1_555 1_555
C69 C58 1_555 1_555
H47 C69 1_555 1_555
C70 C29 1_555 1_555
H48 C70 1_555 1_555
H49 C70 1_555 1_555
H50 C70 1_555 1_555
C71 C49 1_555 1_555
H51 C71 1_555 1_555
C72 C64 1_555 1_555
H52 C72 1_555 1_555
H53 C72 1_555 1_555
H54 C72 1_555 1_555
C73 C68 1_555 1_555
H55 C73 1_555 1_555
H56 C73 1_555 1_555
H57 C73 1_555 1_555
C74 C62 1_555 1_555
H58 C74 1_555 1_555
H59 C74 1_555 1_555
H60 C74 1_555 1_555
C75 C65 1_555 1_555
H61 C75 1_555 1_555
H62 C75 1_555 1_555
H63 C75 1_555 1_555
Mn1A O6A 1_555 1_555
Mn2A O1A 1_555 1_555
O1A C1A 1_555 1_555
O2A C5A 1_555 1_555
O3A Mn2A 1_555 1_555
O4A Mn2A 1_555 1_555
O5A C30A 1_555 1_555
O6A C30A 1_555 1_555
O7A C39A 1_555 1_555
O8A C6A 1_555 1_555
O9A Mn4 1_555 1_555
O10A C21A 1_555 1_555
O11A C6A 1_555 1_555
O12A C21A 1_555 1_555
N1A Mn1A 1_555 1_555
N2A N6A 1_555 1_555
N3A N7A 1_555 1_555
N4A N5A 1_555 1_555
N5A C14A 1_555 1_555
N6A Mn1A 1_555 1_555
N7A C29A 1_555 1_555
N8A N1A 1_555 1_555
N9A N12A 1_555 1_555
N10A N11A 1_555 1_555
N11A C68A 1_555 1_555
N12A C62A 1_555 1_555
C1A O3A 1_555 1_555
C2A C3A 1_555 1_555
C3A C20A 1_555 1_555
C4A N1A 1_555 1_555
C5A O9A 1_555 1_555
C6A C9A 1_555 1_555
C7A N2A 1_555 1_555
H1A C7A 1_555 1_555
H2A C7A 1_555 1_555
C8A N8A 1_555 1_555
C9A C22A 1_555 1_555
C10A C18A 1_555 1_555
C11A C14A 1_555 1_555
C12A N3A 1_555 1_555
C13A H3A 1_555 1_555
C14A C56A 1_555 1_555
C15A N3A 1_555 1_555
H4A C15A 1_555 1_555
H5A C15A 1_555 1_555
C16A C21A 1_555 1_555
C17A C1A 1_555 1_555
C18A H6A 1_555 1_555
C19A N6A 1_555 1_555
C20A H7A 1_555 1_555
C22A H8A 1_555 1_555
C23A C10A 1_555 1_555
C24A C17A 1_555 1_555
H9A C24A 1_555 1_555
C25A C9A 1_555 1_555
H10A C25A 1_555 1_555
C26A C19A 1_555 1_555
C27A N4A 1_555 1_555
C28A C30A 1_555 1_555
C29A C23A 1_555 1_555
C31A C17A 1_555 1_555
H11A C31A 1_555 1_555
C32A N2A 1_555 1_555
C33A C10A 1_555 1_555
H12A C33A 1_555 1_555
C34A C12A 1_555 1_555
H13A C34A 1_555 1_555
H14A C34A 1_555 1_555
H15A C34A 1_555 1_555
C35A C3A 1_555 1_555
H16A C35A 1_555 1_555
C36A C13A 1_555 1_555
H17A C36A 1_555 1_555
C37A C26A 1_555 1_555
C38A C11A 1_555 1_555
C39A O4A 1_555 1_555
C40A C32A 1_555 1_555
H18A C40A 1_555 1_555
H19A C40A 1_555 1_555
H20A C40A 1_555 1_555
C41A C27A 1_555 1_555
H21A C41A 1_555 1_555
H22A C41A 1_555 1_555
H23A C41A 1_555 1_555
C42A C5A 1_555 1_555
C43A C42A 1_555 1_555
H24A C43A 1_555 1_555
C44A H25A 1_555 1_555
C45A C51A 1_555 1_555
C46A C49A 1_555 1_555
C47A C4A 1_555 1_555
H26A C47A 1_555 1_555
H27A C47A 1_555 1_555
H28A C47A 1_555 1_555
C48A N9A 1_555 1_555
H29A C48A 1_555 1_555
H30A C48A 1_555 1_555
C49A C60A 1_555 1_555
C50A C28A 1_555 1_555
H31A C50A 1_555 1_555
C51A C54A 1_555 1_555
C52A C28A 1_555 1_555
H32A C52A 1_555 1_555
C53A C16A 1_555 1_555
H33A C53A 1_555 1_555
C54A C52A 1_555 1_555
H34A C54A 1_555 1_555
C55A C8A 1_555 1_555
C56A H35A 1_555 1_555
H36A C56A 1_555 1_555
H37A C56A 1_555 1_555
C57A C37A 1_555 1_555
H38A C57A 1_555 1_555
C58A C39A 1_555 1_555
C59A C38A 1_555 1_555
H39A C59A 1_555 1_555
C60A C44A 1_555 1_555
H40A C60A 1_555 1_555
C61A C16A 1_555 1_555
H41A C61A 1_555 1_555
C62A C46A 1_555 1_555
C63A C50A 1_555 1_555
H42A C63A 1_555 1_555
C64A N9A 1_555 1_555
C65A N10A 1_555 1_555
C66A C19A 1_555 1_555
H43A C66A 1_555 1_555
H44A C66A 1_555 1_555
H45A C66A 1_555 1_555
C67A C37A 1_555 1_555
H46A C67A 1_555 1_555
C68A C45A 1_555 1_555
C69A C58A 1_555 1_555
H47A C69A 1_555 1_555
C70A C29A 1_555 1_555
H48A C70A 1_555 1_555
H49A C70A 1_555 1_555
H50A C70A 1_555 1_555
C71A C49A 1_555 1_555
H51A C71A 1_555 1_555
C72A C64A 1_555 1_555
H52A C72A 1_555 1_555
H53A C72A 1_555 1_555
H54A C72A 1_555 1_555
C73A C68A 1_555 1_555
H55A C73A 1_555 1_555
H56A C73A 1_555 1_555
H57A C73A 1_555 1_555
C74A C62A 1_555 1_555
H58A C74A 1_555 1_555
H59A C74A 1_555 1_555
H60A C74A 1_555 1_555
C75A C65A 1_555 1_555
H61A C75A 1_555 1_555
H62A C75A 1_555 1_555
H63A C75A 1_555 1_555
Mn1_2 O12 1_555 1_555
Mn1_3 O8 1_555 1_555
Mn1A_2 O8A 1_555 1_555
Mn1A_3 O12A 1_555 1_555
Mn2_2 O2 1_555 1_555
Mn2_3 N5 1_555 1_555
Mn2A_2 N5A 1_555 1_555
Mn2A_3 O2A 1_555 1_555
Mn3_2 O8A 1_555 1_555
Mn3_3 O5A 1_555 1_555
Mn3_4 O10A 1_555 1_555
Mn3_5 O10 1_555 1_555
Mn3_6 O8 1_555 1_555
Mn4_2 O9 1_555 1_555
O2_2 Mn2 1_555 1_555
O2A_2 Mn2A 1_555 1_555
O3A_2 Mn4 1_555 1_555
O5A_2 Mn3 1_555 1_555
O7A_2 Mn4 1_555 1_555
O8_2 Mn1 1_555 1_555
O8A_2 Mn1A 1_555 1_555
O8A_3 Mn3 1_555 1_555
O9_2 Mn4 1_555 1_555
O10_2 Mn3 1_555 1_555
O10A_2 Mn3 1_555 1_555
O11_2 Mn1 1_555 1_555
O11A_2 Mn1A 1_555 1_555
O12_2 Mn1 1_555 1_555
O12A_2 Mn1A 1_555 1_555
N5_2 Mn2 1_555 1_555
N5A_2 Mn2A 1_555 1_555
N7_2 Mn2 1_555 1_555
N7A_2 Mn2A 1_555 1_555
Mn3 O8_2 1_555 1_555
O7 C39 1_555 1_555
O11 Mn1_3 1_555 1_555
N4 C15 1_555 1_555
N7 Mn2_3 1_555 1_555
N8 C7 1_555 1_555
N10 C48 1_555 1_555
C2 C4 1_555 1_555
C2 C8 1_555 1_555
C11 C27 1_555 1_555
C12 C23 1_555 1_555
C13 C38 1_555 1_555
C18 C31 1_555 1_555
C20 C25 1_555 1_555
C22 C35 1_555 1_555
C24 C33 1_555 1_555
C26 C32 1_555 1_555
C43 C59 1_555 1_555
C44 C58 1_555 1_555
C45 C65 1_555 1_555
C46 C64 1_555 1_555
C51 C63 1_555 1_555
C53 C57 1_555 1_555
C61 C67 1_555 1_555
C69 C71 1_555 1_555
O3A Mn4_2 1_555 1_555
O7A Mn4_2 1_555 1_555
O11A Mn1A_2 1_555 1_555
N4A C15A 1_555 1_555
N7A Mn2A_2 1_555 1_555
N8A C7A 1_555 1_555
N10A C48A 1_555 1_555
C2A C4A 1_555 1_555
C2A C8A 1_555 1_555
C11A C27A 1_555 1_555
C12A C23A 1_555 1_555
C13A C38A 1_555 1_555
C18A C31A 1_555 1_555
C20A C25A 1_555 1_555
C22A C35A 1_555 1_555
C24A C33A 1_555 1_555
C26A C32A 1_555 1_555
C36A C42A 1_555 1_555
C43A C59A 1_555 1_555
C44A C58A 1_555 1_555
C45A C65A 1_555 1_555
C46A C64A 1_555 1_555
C51A C63A 1_555 1_555
C53A C57A 1_555 1_555
C61A C67A 1_555 1_555
C69A C71A 1_555 1_555
Mn2A_3 O3A_2 1_555 1_555
Mn3_3 O8A_2 1_555 1_555

#END
