
#######################################################################
#
#                 Cambridge Crystallographic Data Centre
#                                CCDC 
#
#######################################################################
#
# If this CIF has been generated from an entry in the Cambridge 
# Structural Database, then it will include bibliographic, chemical, 
# crystal, experimental, refinement or atomic coordinate data resulting 
# from the CCDC's data processing and validation procedures.
#
#######################################################################

data_FALTUK
_chemical_formula_moiety         '(C48 H22 Cu4 N4 O20)n'
_symmetry_cell_setting           tetragonal
_symmetry_space_group_name_H-M   'P 4/m n c'
_symmetry_Int_Tables_number      128
_space_group_name_Hall           '-P 4 2n'
loop_
_symmetry_equiv_pos_site_id
_symmetry_equiv_pos_as_xyz
1 x,y,z
2 -x,-y,z
3 1/2-x,1/2+y,1/2-z
4 -y,x,z
5 1/2-y,1/2-x,1/2-z
6 y,-x,z
7 1/2+y,1/2+x,1/2-z
8 1/2+x,1/2-y,1/2-z
9 -x,-y,-z
10 x,y,-z
11 1/2+x,1/2-y,1/2+z
12 y,-x,-z
13 1/2+y,1/2+x,1/2+z
14 -y,x,-z
15 1/2-y,1/2-x,1/2+z
16 1/2-x,1/2+y,1/2+z
_cell_length_a                   18.7721(4)
_cell_length_b                   18.7721(4)
_cell_length_c                   34.7704(14)
_cell_angle_alpha                90
_cell_angle_beta                 90
_cell_angle_gamma                90
_cell_volume                     12252.8
loop_
_atom_site_label
_atom_site_type_symbol
_atom_site_fract_x
_atom_site_fract_y
_atom_site_fract_z
_atom_site_U_iso_or_equiv
_atom_site_thermal_displace_type
C1 C 0.0087(7) 0.4620(4) 0.000 0.0456 Uiso
C2 C 0.0215(5) 0.4269(3) 0.03493(12) 0.0456 Uiso
C3 C 0.0471(5) 0.3567(3) 0.03493(12) 0.0456 Uiso
C4 C 0.0599(7) 0.3217(4) 0.000 0.0456 Uiso
H1 H 0.0130(6) 0.4502(3) 0.05809(12) 0.0684 Uiso
H2 H 0.0769(11) 0.2751(5) 0.000 0.0684 Uiso
C5 C 0.0590(6) 0.3170(7) 0.07186(18) 0.0184 Uiso
O1 O 0.116(4) 0.280(7) 0.0783(9) 0.0184 Uiso
N1 N 0.012(3) 0.334(5) 0.0986(7) 0.0184 Uiso
H3 H -0.019(6) 0.365(9) 0.0923(13) 0.0279 Uiso
C6 C 0.0123(4) 0.3070(3) 0.13817(14) 0.0184 Uiso
C7 C -0.0517(4) 0.3014(6) 0.15857(16) 0.0184 Uiso
C8 C -0.0511(5) 0.2810(7) 0.1973(2) 0.0184 Uiso
C9 C 0.0137(5) 0.2662(5) 0.2157(2) 0.0184 Uiso
C10 C 0.0778(5) 0.2719(5) 0.1953(2) 0.0184 Uiso
C11 C 0.0771(4) 0.2923(5) 0.15652(16) 0.0184 Uiso
H4 H -0.0947(4) 0.3112(7) 0.14638(19) 0.0279 Uiso
H5 H 0.0141(6) 0.2527(6) 0.2414(2) 0.0279 Uiso
H6 H 0.1197(4) 0.2960(7) 0.14298(19) 0.0279 Uiso
C12 C -0.1185(7) 0.2750(11) 0.2188(3) 0.0184 Uiso
O2 O -0.1764(9) 0.2999(15) 0.2030(5) 0.0184 Uiso
O3 O -0.1175(11) 0.2451(14) 0.2526(4) 0.0184 Uiso
C13 C 0.1459(7) 0.2563(7) 0.2146(3) 0.0184 Uiso
O4 O 0.2049(9) 0.2732(12) 0.1970(5) 0.0184 Uiso
O5 O 0.1443(11) 0.2264(10) 0.2484(4) 0.0184 Uiso
Cu1 Cu -0.2604(7) 0.2959(6) 0.2230(4) 0.0184 Uiso
C1A C -0.0087(7) 0.5380(4) 0.000 0.0456 Uiso
C2A C -0.0215(5) 0.5731(3) 0.03493(12) 0.0456 Uiso
C3A C -0.0471(5) 0.6433(3) 0.03493(12) 0.0456 Uiso
C4A C -0.0599(7) 0.6783(4) 0.000 0.0456 Uiso
H1A H -0.0130(6) 0.5498(3) 0.05809(12) 0.0684 Uiso
H2A H -0.0769(11) 0.7249(5) 0.000 0.0684 Uiso
C5A C -0.0590(6) 0.6830(7) 0.07186(18) 0.0184 Uiso
O1A O -0.116(4) 0.720(7) 0.0783(9) 0.0184 Uiso
N1A N -0.012(3) 0.666(5) 0.0986(7) 0.0184 Uiso
H3A H 0.019(6) 0.635(9) 0.0923(13) 0.0279 Uiso
C6A C -0.0123(4) 0.6930(3) 0.13817(14) 0.0184 Uiso
C7A C 0.0517(4) 0.6986(6) 0.15857(16) 0.0184 Uiso
C8A C 0.0511(5) 0.7190(7) 0.1973(2) 0.0184 Uiso
C9A C -0.0137(5) 0.7338(5) 0.2157(2) 0.0184 Uiso
C10A C -0.0778(5) 0.7281(5) 0.1953(2) 0.0184 Uiso
C11A C -0.0771(4) 0.7077(5) 0.15652(16) 0.0184 Uiso
H4A H 0.0947(4) 0.6888(7) 0.14638(19) 0.0279 Uiso
H5A H -0.0141(6) 0.7473(6) 0.2414(2) 0.0279 Uiso
H6A H -0.1197(4) 0.7040(7) 0.14298(19) 0.0279 Uiso
C12A C 0.1185(7) 0.7250(11) 0.2188(3) 0.0184 Uiso
O2A O 0.1764(9) 0.7001(15) 0.2030(5) 0.0184 Uiso
O3A O 0.1175(11) 0.7549(14) 0.2526(4) 0.0184 Uiso
C13A C -0.1459(7) 0.7437(7) 0.2146(3) 0.0184 Uiso
O4A O -0.2049(9) 0.7268(12) 0.1970(5) 0.0184 Uiso
O5A O -0.1443(11) 0.7736(10) 0.2484(4) 0.0184 Uiso
C2I C 0.0215(5) 0.4269(3) -0.03493(12) 0.0456 Uiso
C3I C 0.0471(5) 0.3567(3) -0.03493(12) 0.0456 Uiso
H1I H 0.0130(6) 0.4502(3) -0.05809(12) 0.0684 Uiso
C5I C 0.0590(6) 0.3170(7) -0.07186(18) 0.0184 Uiso
O1I O 0.116(4) 0.280(7) -0.0783(9) 0.0184 Uiso
N1I N 0.012(3) 0.334(5) -0.0986(7) 0.0184 Uiso
H3I H -0.019(6) 0.365(9) -0.0923(13) 0.0279 Uiso
C6I C 0.0123(4) 0.3070(3) -0.13817(14) 0.0184 Uiso
C7I C -0.0517(4) 0.3014(6) -0.15857(16) 0.0184 Uiso
C8I C -0.0511(5) 0.2810(7) -0.1973(2) 0.0184 Uiso
C9I C 0.0137(5) 0.2662(5) -0.2157(2) 0.0184 Uiso
C10I C 0.0778(5) 0.2719(5) -0.1953(2) 0.0184 Uiso
C11I C 0.0771(4) 0.2923(5) -0.15652(16) 0.0184 Uiso
H4I H -0.0947(4) 0.3112(7) -0.14638(19) 0.0279 Uiso
H5I H 0.0141(6) 0.2527(6) -0.2414(2) 0.0279 Uiso
H6I H 0.1197(4) 0.2960(7) -0.14298(19) 0.0279 Uiso
C12I C -0.1185(7) 0.2750(11) -0.2188(3) 0.0184 Uiso
O2I O -0.1764(9) 0.2999(15) -0.2030(5) 0.0184 Uiso
O3I O -0.1175(11) 0.2451(14) -0.2526(4) 0.0184 Uiso
C13I C 0.1459(7) 0.2563(7) -0.2146(3) 0.0184 Uiso
O4I O 0.2049(9) 0.2732(12) -0.1970(5) 0.0184 Uiso
O5I O 0.1443(11) 0.2264(10) -0.2484(4) 0.0184 Uiso
C2H C -0.0215(5) 0.5731(3) -0.03493(12) 0.0456 Uiso
C3H C -0.0471(5) 0.6433(3) -0.03493(12) 0.0456 Uiso
H1H H -0.0130(6) 0.5498(3) -0.05809(12) 0.0684 Uiso
C5H C -0.0590(6) 0.6830(7) -0.07186(18) 0.0184 Uiso
O1H O -0.116(4) 0.720(7) -0.0783(9) 0.0184 Uiso
N1H N -0.012(3) 0.666(5) -0.0986(7) 0.0184 Uiso
H3H H 0.019(6) 0.635(9) -0.0923(13) 0.0279 Uiso
C6H C -0.0123(4) 0.6930(3) -0.13817(14) 0.0184 Uiso
C7H C 0.0517(4) 0.6986(6) -0.15857(16) 0.0184 Uiso
C8H C 0.0511(5) 0.7190(7) -0.1973(2) 0.0184 Uiso
C9H C -0.0137(5) 0.7338(5) -0.2157(2) 0.0184 Uiso
C10H C -0.0778(5) 0.7281(5) -0.1953(2) 0.0184 Uiso
C11H C -0.0771(4) 0.7077(5) -0.15652(16) 0.0184 Uiso
H4H H 0.0947(4) 0.6888(7) -0.14638(19) 0.0279 Uiso
H5H H -0.0141(6) 0.7473(6) -0.2414(2) 0.0279 Uiso
H6H H -0.1197(4) 0.7040(7) -0.14298(19) 0.0279 Uiso
C12H C 0.1185(7) 0.7250(11) -0.2188(3) 0.0184 Uiso
O2H O 0.1764(9) 0.7001(15) -0.2030(5) 0.0184 Uiso
O3H O 0.1175(11) 0.7549(14) -0.2526(4) 0.0184 Uiso
C13H C -0.1459(7) 0.7437(7) -0.2146(3) 0.0184 Uiso
O4H O -0.2049(9) 0.7268(12) -0.1970(5) 0.0184 Uiso
O5H O -0.1443(11) 0.7736(10) -0.2484(4) 0.0184 Uiso
Cu1A Cu 0.2604(7) 0.7041(6) 0.2230(4) 0.0184 Uiso
Cu1F Cu -0.2041(6) 0.2396(7) 0.2770(4) 0.0184 Uiso
Cu1E Cu 0.2959(6) 0.2604(7) 0.2230(4) 0.0184 Uiso
O2E O 0.2999(15) 0.1764(9) 0.2030(5) 0.0184 Uiso
O2F O -0.2001(15) 0.3236(9) 0.2970(5) 0.0184 Uiso
O3D O 0.2549(14) 0.6175(11) 0.2474(4) 0.0184 Uiso
O3F O -0.2549(14) 0.3825(11) 0.2474(4) 0.0184 Uiso
O3G O 0.3825(11) 0.2549(14) 0.2474(4) 0.0184 Uiso
O4C O -0.2732(12) 0.2049(9) 0.1970(5) 0.0184 Uiso
O4E O 0.2732(12) 0.7951(9) 0.1970(5) 0.0184 Uiso
O4G O -0.2951(9) 0.2268(12) 0.3030(5) 0.0184 Uiso
O5B O 0.3557(11) 0.7264(10) 0.2516(4) 0.0184 Uiso
O5C O -0.2264(10) 0.1443(11) 0.2484(4) 0.0184 Uiso
O5D O 0.2736(10) 0.3557(11) 0.2516(4) 0.0184 Uiso
O5G O -0.3557(11) 0.2736(10) 0.2516(4) 0.0184 Uiso
Cu1B Cu -0.2396(7) 0.7959(6) 0.2770(4) 0.0184 Uiso
Cu1O Cu -0.2396(7) 0.7959(6) -0.2770(4) 0.0184 Uiso
Cu1M Cu -0.2959(6) 0.7396(7) -0.2230(4) 0.0184 Uiso
Cu1C Cu -0.2959(6) 0.7396(7) 0.2230(4) 0.0184 Uiso
Cu1D Cu 0.2041(6) 0.7604(7) 0.2770(4) 0.0184 Uiso
Cu1N Cu 0.2041(6) 0.7604(7) -0.2770(4) 0.0184 Uiso
Cu1K Cu 0.2959(6) 0.2604(7) -0.2230(4) 0.0184 Uiso
Cu1L Cu -0.2041(6) 0.2396(7) -0.2770(4) 0.0184 Uiso
Cu1I Cu -0.2604(7) 0.2959(6) -0.2230(4) 0.0184 Uiso
Cu1H Cu 0.2604(7) 0.7041(6) -0.2230(4) 0.0184 Uiso
Cu1G Cu 0.2396(7) 0.2041(6) 0.2770(4) 0.0184 Uiso
Cu1J Cu 0.2396(7) 0.2041(6) -0.2770(4) 0.0184 Uiso
loop_
_geom_bond_atom_site_label_1
_geom_bond_atom_site_label_2
_geom_bond_site_symmetry_1
_geom_bond_site_symmetry_2
C1 C2 1_555 1_555
C2 C3 1_555 1_555
C3 C4 1_555 1_555
C4 H2 1_555 1_555
H1 C2 1_555 1_555
C5 C3 1_555 1_555
O1 C5 1_555 1_555
N1 C5 1_555 1_555
H3 N1 1_555 1_555
C6 N1 1_555 1_555
C7 C6 1_555 1_555
C8 C7 1_555 1_555
C9 C8 1_555 1_555
C10 C9 1_555 1_555
C11 C6 1_555 1_555
H4 C7 1_555 1_555
H5 C9 1_555 1_555
H6 C11 1_555 1_555
C12 C8 1_555 1_555
O2 C12 1_555 1_555
O3 C12 1_555 1_555
C13 C10 1_555 1_555
O4 C13 1_555 1_555
O5 C13 1_555 1_555
Cu1 O2 1_555 1_555
C1A C1 1_555 1_555
C2A C1A 1_555 1_555
C3A C2A 1_555 1_555
C4A C3A 1_555 1_555
H1A C2A 1_555 1_555
H2A C4A 1_555 1_555
C5A C3A 1_555 1_555
O1A C5A 1_555 1_555
N1A C5A 1_555 1_555
H3A N1A 1_555 1_555
C6A N1A 1_555 1_555
C7A C6A 1_555 1_555
C8A C7A 1_555 1_555
C9A C8A 1_555 1_555
C10A C9A 1_555 1_555
C11A C6A 1_555 1_555
H4A C7A 1_555 1_555
H5A C9A 1_555 1_555
H6A C11A 1_555 1_555
C12A C8A 1_555 1_555
O2A C12A 1_555 1_555
O3A C12A 1_555 1_555
C13A C10A 1_555 1_555
O4A C13A 1_555 1_555
O5A C13A 1_555 1_555
C2I C1 1_555 1_555
C3I C4 1_555 1_555
H1I C2I 1_555 1_555
C5I C3I 1_555 1_555
O1I C5I 1_555 1_555
N1I C5I 1_555 1_555
H3I N1I 1_555 1_555
C6I N1I 1_555 1_555
C7I C6I 1_555 1_555
C8I C7I 1_555 1_555
C9I C8I 1_555 1_555
C10I C9I 1_555 1_555
C11I C6I 1_555 1_555
H4I C7I 1_555 1_555
H5I C9I 1_555 1_555
H6I C11I 1_555 1_555
C12I C8I 1_555 1_555
O2I C12I 1_555 1_555
O3I C12I 1_555 1_555
C13I C10I 1_555 1_555
O4I C13I 1_555 1_555
O5I C13I 1_555 1_555
C2H C1A 1_555 1_555
C3H C4A 1_555 1_555
H1H C2H 1_555 1_555
C5H C3H 1_555 1_555
O1H C5H 1_555 1_555
N1H C5H 1_555 1_555
H3H N1H 1_555 1_555
C6H N1H 1_555 1_555
C7H C6H 1_555 1_555
C8H C7H 1_555 1_555
C9H C8H 1_555 1_555
C10H C9H 1_555 1_555
C11H C6H 1_555 1_555
H4H C7H 1_555 1_555
H5H C9H 1_555 1_555
H6H C11H 1_555 1_555
C12H C8H 1_555 1_555
O2H C12H 1_555 1_555
O3H C12H 1_555 1_555
C13H C10H 1_555 1_555
O4H C13H 1_555 1_555
O5H C13H 1_555 1_555
Cu1A O2A 1_555 1_555
Cu1F O3 1_555 1_555
Cu1E O4 1_555 1_555
O2E Cu1E 1_555 1_555
O2F Cu1F 1_555 1_555
O3D Cu1A 1_555 1_555
O3F Cu1 1_555 1_555
O3G Cu1E 1_555 1_555
O4C Cu1 1_555 1_555
O4E Cu1A 1_555 1_555
O4G Cu1F 1_555 1_555
O5B Cu1A 1_555 1_555
O5C Cu1F 1_555 1_555
O5D Cu1E 1_555 1_555
O5G Cu1 1_555 1_555
Cu1B O5A 1_555 1_555
Cu1O O5H 1_555 1_555
Cu1M O4H 1_555 1_555
Cu1C O4A 1_555 1_555
Cu1D O3A 1_555 1_555
Cu1N O3H 1_555 1_555
Cu1K O4I 1_555 1_555
Cu1L O3I 1_555 1_555
Cu1I O2I 1_555 1_555
Cu1H O2H 1_555 1_555
Cu1G O5 1_555 1_555
Cu1J O5I 1_555 1_555
C10 C11 1_555 1_555
Cu1 Cu1F 1_555 1_555
C10A C11A 1_555 1_555
C2I C3I 1_555 1_555
C10I C11I 1_555 1_555
C2H C3H 1_555 1_555
C10H C11H 1_555 1_555
Cu1A Cu1D 1_555 1_555
Cu1E Cu1G 1_555 1_555
Cu1B Cu1C 1_555 1_555
Cu1O Cu1M 1_555 1_555
Cu1N Cu1H 1_555 1_555
Cu1K Cu1J 1_555 1_555
Cu1L Cu1I 1_555 1_555

#END
