
#######################################################################
#
#                 Cambridge Crystallographic Data Centre
#                                CCDC 
#
#######################################################################
#
# If this CIF has been generated from an entry in the Cambridge 
# Structural Database, then it will include bibliographic, chemical, 
# crystal, experimental, refinement or atomic coordinate data resulting 
# from the CCDC's data processing and validation procedures.
#
#######################################################################

data_FAMQAO
_chemical_formula_moiety         '(C53 H22 Cu4 N4 O30)n'
_symmetry_cell_setting           tetragonal
_symmetry_space_group_name_H-M   'P 4/m n c'
_symmetry_Int_Tables_number      128
_space_group_name_Hall           '-P 4 2n'
loop_
_symmetry_equiv_pos_site_id
_symmetry_equiv_pos_as_xyz
1 x,y,z
2 -x,-y,z
3 1/2-x,1/2+y,1/2-z
4 -y,x,z
5 1/2-y,1/2-x,1/2-z
6 y,-x,z
7 1/2+y,1/2+x,1/2-z
8 1/2+x,1/2-y,1/2-z
9 -x,-y,-z
10 x,y,-z
11 1/2+x,1/2-y,1/2+z
12 y,-x,-z
13 1/2+y,1/2+x,1/2+z
14 -y,x,-z
15 1/2-y,1/2-x,1/2+z
16 1/2-x,1/2+y,1/2+z
_cell_length_a                   18.7471(5)
_cell_length_b                   18.7471(5)
_cell_length_c                   34.8339(18)
_cell_angle_alpha                90
_cell_angle_beta                 90
_cell_angle_gamma                90
_cell_volume                     12242.5
loop_
_atom_site_label
_atom_site_type_symbol
_atom_site_fract_x
_atom_site_fract_y
_atom_site_fract_z
_atom_site_U_iso_or_equiv
_atom_site_thermal_displace_type
C1 C 0.6200(18) 0.8557(14) 0.0764(11) 0.3166 Uiso
O1 O 0.6660(18) 0.8674(14) 0.0978(11) 0.3166 Uiso
O2 O 0.5740(18) 0.8440(14) 0.0550(11) 0.3166 Uiso
C2 C 0.439(5) 0.438(5) 0.4072(10) 0.3166 Uiso
O3 O 0.447(5) 0.447(5) 0.4398(10) 0.3166 Uiso
O4 O 0.430(5) 0.428(5) 0.3746(10) 0.3166 Uiso
C3 C 0.158(2) 0.026(3) 0.4229(13) 0.3166 Uiso
O5 O 0.200(2) 0.024(3) 0.4472(13) 0.3166 Uiso
O6 O 0.116(2) 0.028(3) 0.3985(13) 0.3166 Uiso
C4 C -0.389(3) 0.241(2) 0.9218(18) 0.3166 Uiso
O7 O -0.414(3) 0.249(2) 0.9520(18) 0.3166 Uiso
O8 O -0.363(3) 0.234(2) 0.8917(18) 0.3166 Uiso
C5 C 0.0092(10) 0.4651(7) 0.000000 0.0621 Uiso
C6 C 0.0230(7) 0.4313(5) 0.0340(2) 0.0621 Uiso
C7 C 0.0508(7) 0.3637(5) 0.0340(2) 0.0621 Uiso
C8 C 0.0646(10) 0.3300(7) 0.000000 0.0621 Uiso
H1 H 0.0136(9) 0.4543(5) 0.0572(2) 0.0925 Uiso
H2 H 0.0835(14) 0.2841(8) 0.000000 0.0925 Uiso
C9 C 0.0562(8) 0.3151(8) 0.0700(3) 0.0228 Uiso
O9 O 0.111(5) 0.279(8) 0.0758(11) 0.0228 Uiso
N1 N 0.009(3) 0.331(6) 0.0968(9) 0.0228 Uiso
H3 H -0.018(8) 0.367(10) 0.0922(16) 0.0342 Uiso
C10 C 0.0139(5) 0.3038(4) 0.1402(2) 0.0228 Uiso
C11 C -0.0515(6) 0.2988(7) 0.1608(2) 0.0228 Uiso
C12 C -0.0511(7) 0.2787(9) 0.2003(3) 0.0228 Uiso
C13 C 0.0147(7) 0.2637(7) 0.2191(3) 0.0228 Uiso
C14 C 0.0801(7) 0.2687(6) 0.1984(3) 0.0228 Uiso
C15 C 0.0797(6) 0.2888(6) 0.1590(2) 0.0228 Uiso
H4 H -0.0944(6) 0.3086(10) 0.1486(3) 0.0342 Uiso
H5 H 0.0149(8) 0.2505(8) 0.2448(3) 0.0342 Uiso
H6 H 0.1224(6) 0.2922(9) 0.1455(3) 0.0342 Uiso
C16 C -0.1149(10) 0.2737(14) 0.2204(4) 0.0228 Uiso
O10 O -0.1719(12) 0.295(2) 0.2058(7) 0.0228 Uiso
O11 O -0.1164(16) 0.2477(19) 0.2534(6) 0.0228 Uiso
C17 C 0.1443(10) 0.2541(10) 0.2168(4) 0.0228 Uiso
O12 O 0.2023(12) 0.2693(16) 0.2012(7) 0.0228 Uiso
O13 O 0.1450(16) 0.2255(13) 0.2492(6) 0.0228 Uiso
Cu1 Cu -0.2052(8) 0.2419(9) 0.2740(5) 0.0228 Uiso
C5A C -0.0092(10) 0.5349(7) 0.000000 0.0621 Uiso
C6A C -0.0230(7) 0.5687(5) 0.0340(2) 0.0621 Uiso
C7A C -0.0508(7) 0.6363(5) 0.0340(2) 0.0621 Uiso
C8A C -0.0646(10) 0.6700(7) 0.000000 0.0621 Uiso
H1A H -0.0136(9) 0.5457(5) 0.0572(2) 0.0925 Uiso
H2A H -0.0835(14) 0.7159(8) 0.000000 0.0925 Uiso
C9A C -0.0562(8) 0.6849(8) 0.0700(3) 0.0228 Uiso
O9A O -0.111(5) 0.721(8) 0.0758(11) 0.0228 Uiso
N1A N -0.009(3) 0.669(6) 0.0968(9) 0.0228 Uiso
H3A H 0.018(8) 0.633(10) 0.0922(16) 0.0342 Uiso
C10A C -0.0139(5) 0.6962(4) 0.1402(2) 0.0228 Uiso
C11A C 0.0515(6) 0.7012(7) 0.1608(2) 0.0228 Uiso
C12A C 0.0511(7) 0.7213(9) 0.2003(3) 0.0228 Uiso
C13A C -0.0147(7) 0.7363(7) 0.2191(3) 0.0228 Uiso
C14A C -0.0801(7) 0.7313(6) 0.1984(3) 0.0228 Uiso
C15A C -0.0797(6) 0.7112(6) 0.1590(2) 0.0228 Uiso
H4A H 0.0944(6) 0.6914(10) 0.1486(3) 0.0342 Uiso
H5A H -0.0149(8) 0.7495(8) 0.2448(3) 0.0342 Uiso
H6A H -0.1224(6) 0.7078(9) 0.1455(3) 0.0342 Uiso
C16A C 0.1149(10) 0.7263(14) 0.2204(4) 0.0228 Uiso
O10A O 0.1719(12) 0.705(2) 0.2058(7) 0.0228 Uiso
O11A O 0.1164(16) 0.7523(19) 0.2534(6) 0.0228 Uiso
C17A C -0.1443(10) 0.7459(10) 0.2168(4) 0.0228 Uiso
O12A O -0.2023(12) 0.7307(16) 0.2012(7) 0.0228 Uiso
O13A O -0.1450(16) 0.7745(13) 0.2492(6) 0.0228 Uiso
C6I C 0.0230(7) 0.4313(5) -0.0340(2) 0.0621 Uiso
C7I C 0.0508(7) 0.3637(5) -0.0340(2) 0.0621 Uiso
H1I H 0.0136(9) 0.4543(5) -0.0572(2) 0.0925 Uiso
C9I C 0.0562(8) 0.3151(8) -0.0700(3) 0.0228 Uiso
O9I O 0.111(5) 0.279(8) -0.0758(11) 0.0228 Uiso
N1I N 0.009(3) 0.331(6) -0.0968(9) 0.0228 Uiso
H3I H -0.018(8) 0.367(10) -0.0922(16) 0.0342 Uiso
C10I C 0.0139(5) 0.3038(4) -0.1402(2) 0.0228 Uiso
C11I C -0.0515(6) 0.2988(7) -0.1608(2) 0.0228 Uiso
C12I C -0.0511(7) 0.2787(9) -0.2003(3) 0.0228 Uiso
C13I C 0.0147(7) 0.2637(7) -0.2191(3) 0.0228 Uiso
C14I C 0.0801(7) 0.2687(6) -0.1984(3) 0.0228 Uiso
C15I C 0.0797(6) 0.2888(6) -0.1590(2) 0.0228 Uiso
H4I H -0.0944(6) 0.3086(10) -0.1486(3) 0.0342 Uiso
H5I H 0.0149(8) 0.2505(8) -0.2448(3) 0.0342 Uiso
H6I H 0.1224(6) 0.2922(9) -0.1455(3) 0.0342 Uiso
C16I C -0.1149(10) 0.2737(14) -0.2204(4) 0.0228 Uiso
O10I O -0.1719(12) 0.295(2) -0.2058(7) 0.0228 Uiso
O11I O -0.1164(16) 0.2477(19) -0.2534(6) 0.0228 Uiso
C17I C 0.1443(10) 0.2541(10) -0.2168(4) 0.0228 Uiso
O12I O 0.2023(12) 0.2693(16) -0.2012(7) 0.0228 Uiso
O13I O 0.1450(16) 0.2255(13) -0.2492(6) 0.0228 Uiso
C6H C -0.0230(7) 0.5687(5) -0.0340(2) 0.0621 Uiso
C7H C -0.0508(7) 0.6363(5) -0.0340(2) 0.0621 Uiso
H1H H -0.0136(9) 0.5457(5) -0.0572(2) 0.0925 Uiso
C9H C -0.0562(8) 0.6849(8) -0.0700(3) 0.0228 Uiso
O9H O -0.111(5) 0.721(8) -0.0758(11) 0.0228 Uiso
N1H N -0.009(3) 0.669(6) -0.0968(9) 0.0228 Uiso
H3H H 0.018(8) 0.633(10) -0.0922(16) 0.0342 Uiso
C10H C -0.0139(5) 0.6962(4) -0.1402(2) 0.0228 Uiso
C11H C 0.0515(6) 0.7012(7) -0.1608(2) 0.0228 Uiso
C12H C 0.0511(7) 0.7213(9) -0.2003(3) 0.0228 Uiso
C13H C -0.0147(7) 0.7363(7) -0.2191(3) 0.0228 Uiso
C14H C -0.0801(7) 0.7313(6) -0.1984(3) 0.0228 Uiso
C15H C -0.0797(6) 0.7112(6) -0.1590(2) 0.0228 Uiso
H4H H 0.0944(6) 0.6914(10) -0.1486(3) 0.0342 Uiso
H5H H -0.0149(8) 0.7495(8) -0.2448(3) 0.0342 Uiso
H6H H -0.1224(6) 0.7078(9) -0.1455(3) 0.0342 Uiso
C16H C 0.1149(10) 0.7263(14) -0.2204(4) 0.0228 Uiso
O10H O 0.1719(12) 0.705(2) -0.2058(7) 0.0228 Uiso
O11H O 0.1164(16) 0.7523(19) -0.2534(6) 0.0228 Uiso
C17H C -0.1443(10) 0.7459(10) -0.2168(4) 0.0228 Uiso
O12H O -0.2023(12) 0.7307(16) -0.2012(7) 0.0228 Uiso
O13H O -0.1450(16) 0.7745(13) -0.2492(6) 0.0228 Uiso
Cu1A Cu 0.2052(8) 0.7581(9) 0.2740(5) 0.0228 Uiso
Cu1F Cu -0.2581(9) 0.2948(8) 0.2260(5) 0.0228 Uiso
Cu1G Cu 0.2948(8) 0.2581(9) 0.2260(5) 0.0228 Uiso
O10D O 0.205(2) 0.6719(12) 0.2942(7) 0.0228 Uiso
O10E O 0.295(2) 0.1719(12) 0.2058(7) 0.0228 Uiso
O10F O -0.205(2) 0.3281(12) 0.2942(7) 0.0228 Uiso
O11F O -0.2523(19) 0.3836(16) 0.2466(6) 0.0228 Uiso
O11G O 0.3836(16) 0.2523(19) 0.2466(6) 0.0228 Uiso
O12B O 0.2977(12) 0.7693(16) 0.2988(7) 0.0228 Uiso
O12C O -0.2693(16) 0.2023(12) 0.2012(7) 0.0228 Uiso
O12G O -0.2977(12) 0.2307(16) 0.2988(7) 0.0228 Uiso
O13C O -0.2255(13) 0.1450(16) 0.2492(6) 0.0228 Uiso
O13D O 0.2745(13) 0.3550(16) 0.2508(6) 0.0228 Uiso
O13E O 0.2255(13) 0.8550(16) 0.2492(6) 0.0228 Uiso
O13G O -0.3550(16) 0.2745(13) 0.2508(6) 0.0228 Uiso
Cu1B Cu -0.2948(8) 0.7419(9) 0.2260(5) 0.0228 Uiso
Cu1O Cu -0.2948(8) 0.7419(9) -0.2260(5) 0.0228 Uiso
Cu1M Cu -0.2419(9) 0.7948(8) -0.2740(5) 0.0228 Uiso
Cu1C Cu -0.2419(9) 0.7948(8) 0.2740(5) 0.0228 Uiso
Cu1D Cu 0.2581(9) 0.7052(8) 0.2260(5) 0.0228 Uiso
Cu1N Cu 0.2581(9) 0.7052(8) -0.2260(5) 0.0228 Uiso
Cu1K Cu 0.2419(9) 0.2052(8) -0.2740(5) 0.0228 Uiso
Cu1E Cu 0.2419(9) 0.2052(8) 0.2740(5) 0.0228 Uiso
Cu1L Cu -0.2581(9) 0.2948(8) -0.2260(5) 0.0228 Uiso
Cu1I Cu -0.2052(8) 0.2419(9) -0.2740(5) 0.0228 Uiso
Cu1H Cu 0.2052(8) 0.7581(9) -0.2740(5) 0.0228 Uiso
Cu1J Cu 0.2948(8) 0.2581(9) -0.2260(5) 0.0228 Uiso
C18 C -0.1220(15) 0.1947(13) 0.3178(9) 0.3166 Uiso
O14 O -0.0887(15) 0.1540(13) 0.3003(9) 0.3166 Uiso
O15 O -0.1553(15) 0.2354(13) 0.3354(9) 0.3166 Uiso
loop_
_geom_bond_atom_site_label_1
_geom_bond_atom_site_label_2
_geom_bond_site_symmetry_1
_geom_bond_site_symmetry_2
C1 O1 1_555 1_555
O2 C1 1_555 1_555
C2 O3 1_555 1_555
O4 C2 1_555 1_555
C3 O5 1_555 1_555
O6 C3 1_555 1_555
C4 O7 1_555 1_555
O8 C4 1_555 1_555
C5 C6 1_555 1_555
C6 C7 1_555 1_555
C7 C8 1_555 1_555
C8 H2 1_555 1_555
H1 C6 1_555 1_555
C9 C7 1_555 1_555
O9 C9 1_555 1_555
N1 C9 1_555 1_555
H3 N1 1_555 1_555
C10 N1 1_555 1_555
C11 C10 1_555 1_555
C12 C11 1_555 1_555
C13 C12 1_555 1_555
C14 C13 1_555 1_555
C15 C10 1_555 1_555
H4 C11 1_555 1_555
H5 C13 1_555 1_555
H6 C15 1_555 1_555
C16 C12 1_555 1_555
O10 C16 1_555 1_555
O11 C16 1_555 1_555
C17 C14 1_555 1_555
O12 C17 1_555 1_555
O13 C17 1_555 1_555
Cu1 O11 1_555 1_555
C18 O14 1_555 1_555
O15 C18 1_555 1_555
C5A C5 1_555 1_555
C6A C5A 1_555 1_555
C7A C6A 1_555 1_555
C8A C7A 1_555 1_555
H1A C6A 1_555 1_555
H2A C8A 1_555 1_555
C9A C7A 1_555 1_555
O9A C9A 1_555 1_555
N1A C9A 1_555 1_555
H3A N1A 1_555 1_555
C10A N1A 1_555 1_555
C11A C10A 1_555 1_555
C12A C11A 1_555 1_555
C13A C12A 1_555 1_555
C14A C13A 1_555 1_555
C15A C10A 1_555 1_555
H4A C11A 1_555 1_555
H5A C13A 1_555 1_555
H6A C15A 1_555 1_555
C16A C12A 1_555 1_555
O10A C16A 1_555 1_555
O11A C16A 1_555 1_555
C17A C14A 1_555 1_555
O12A C17A 1_555 1_555
O13A C17A 1_555 1_555
C6I C5 1_555 1_555
C7I C8 1_555 1_555
H1I C6I 1_555 1_555
C9I C7I 1_555 1_555
O9I C9I 1_555 1_555
N1I C9I 1_555 1_555
H3I N1I 1_555 1_555
C10I N1I 1_555 1_555
C11I C10I 1_555 1_555
C12I C11I 1_555 1_555
C13I C12I 1_555 1_555
C14I C13I 1_555 1_555
C15I C10I 1_555 1_555
H4I C11I 1_555 1_555
H5I C13I 1_555 1_555
H6I C15I 1_555 1_555
C16I C12I 1_555 1_555
O10I C16I 1_555 1_555
O11I C16I 1_555 1_555
C17I C14I 1_555 1_555
O12I C17I 1_555 1_555
O13I C17I 1_555 1_555
C6H C5A 1_555 1_555
C7H C8A 1_555 1_555
H1H C6H 1_555 1_555
C9H C7H 1_555 1_555
O9H C9H 1_555 1_555
N1H C9H 1_555 1_555
H3H N1H 1_555 1_555
C10H N1H 1_555 1_555
C11H C10H 1_555 1_555
C12H C11H 1_555 1_555
C13H C12H 1_555 1_555
C14H C13H 1_555 1_555
C15H C10H 1_555 1_555
H4H C11H 1_555 1_555
H5H C13H 1_555 1_555
H6H C15H 1_555 1_555
C16H C12H 1_555 1_555
O10H C16H 1_555 1_555
O11H C16H 1_555 1_555
C17H C14H 1_555 1_555
O12H C17H 1_555 1_555
O13H C17H 1_555 1_555
Cu1A O11A 1_555 1_555
Cu1F O10 1_555 1_555
Cu1G O12 1_555 1_555
O10D Cu1A 1_555 1_555
O10E Cu1G 1_555 1_555
O10F Cu1 1_555 1_555
O11F Cu1F 1_555 1_555
O11G Cu1G 1_555 1_555
O12B Cu1A 1_555 1_555
O12C Cu1F 1_555 1_555
O12G Cu1 1_555 1_555
O13C Cu1 1_555 1_555
O13D Cu1G 1_555 1_555
O13E Cu1A 1_555 1_555
O13G Cu1F 1_555 1_555
Cu1B O12A 1_555 1_555
Cu1O O12H 1_555 1_555
Cu1M O13H 1_555 1_555
Cu1C O13A 1_555 1_555
Cu1D O10A 1_555 1_555
Cu1N O10H 1_555 1_555
Cu1K O13I 1_555 1_555
Cu1E O13 1_555 1_555
Cu1L O10I 1_555 1_555
Cu1I O11I 1_555 1_555
Cu1H O11H 1_555 1_555
Cu1J O12I 1_555 1_555
C14 C15 1_555 1_555
C14A C15A 1_555 1_555
C6I C7I 1_555 1_555
C14I C15I 1_555 1_555
C6H C7H 1_555 1_555
C14H C15H 1_555 1_555

#END
