
#######################################################################
#
#                 Cambridge Crystallographic Data Centre
#                                CCDC 
#
#######################################################################
#
# If this CIF has been generated from an entry in the Cambridge 
# Structural Database, then it will include bibliographic, chemical, 
# crystal, experimental, refinement or atomic coordinate data resulting 
# from the CCDC's data processing and validation procedures.
#
#######################################################################

data_TONBII
_chemical_formula_moiety         '(C12 H6 Fe1 O4)n'
_symmetry_cell_setting           monoclinic
_symmetry_space_group_name_H-M   'C 2/c'
_symmetry_Int_Tables_number      15
_space_group_name_Hall           '-C 2yc'
loop_
_symmetry_equiv_pos_site_id
_symmetry_equiv_pos_as_xyz
1 x,y,z
2 1/2+x,1/2+y,z
3 -x,y,1/2-z
4 1/2-x,1/2+y,1/2-z
5 -x,-y,-z
6 1/2-x,1/2-y,-z
7 x,-y,1/2+z
8 1/2+x,1/2-y,1/2+z
_cell_length_a                   21.1466(8)
_cell_length_b                   11.1836(4)
_cell_length_c                   4.7297(2)
_cell_angle_alpha                90
_cell_angle_beta                 92.8883(16)
_cell_angle_gamma                90
_cell_volume                     1117.13
loop_
_atom_site_label
_atom_site_type_symbol
_atom_site_fract_x
_atom_site_fract_y
_atom_site_fract_z
Fe1 Fe 0.5000 0.08222(5) 0.7500
O1 O 0.55964(8) 0.06906(17) 1.1300(4)
C1 C 0.58418(12) 0.1495(2) 1.2934(5)
O2 O 0.56285(9) 0.18020(18) 1.5253(4)
C2 C 0.64464(12) 0.2057(2) 1.2061(5)
C3 C 0.66658(13) 0.3135(3) 1.3344(6)
C4 C 0.72307(13) 0.3613(3) 1.2630(6)
C5 C 0.76095(12) 0.3042(2) 1.0642(5)
C6 C 0.67977(12) 0.1490(3) 1.0085(5)
H1 H 0.6437 0.3523 1.4683
H2 H 0.7361 0.4338 1.3448
H3 H 0.6635 0.0804 0.9202
Fe1D Fe 0.5000 -0.08222(5) 1.2500
Fe1_2 Fe 0.5000 0.08222(5) 1.7500
Fe1E Fe 1.0000 0.41778(5) 1.2500
Fe1A Fe 1.0000 0.58222(5) 0.7500
Fe1E_2 Fe 1.0000 0.41778(5) 0.2500
O1E O 0.94036(8) 0.43094(17) 0.8700(4)
O1B O 0.44036(8) 0.06906(17) 0.3700(4)
O1D O 0.44036(8) -0.06906(17) 0.8700(4)
O1F O 0.55964(8) -0.06906(17) 0.6300(4)
C1E C 0.91582(12) 0.3505(2) 0.7066(5)
O2E O 0.93715(9) 0.31980(18) 0.4747(4)
O2_2 O 0.56285(9) 0.18020(18) 0.5253(4)
O2B O 0.43715(9) 0.18020(18) 0.9747(4)
C2E C 0.85536(12) 0.2943(2) 0.7939(5)
C3E C 0.83342(13) 0.1865(3) 0.6656(6)
C4E C 0.77693(13) 0.1387(3) 0.7370(6)
C5E C 0.73905(12) 0.1958(2) 0.9358(5)
C6E C 0.82023(12) 0.3510(3) 0.9915(5)
H1E H 0.8563 0.1477 0.5317
H2E H 0.7639 0.0662 0.6552
H3E H 0.8365 0.4196 1.0798
loop_
_geom_bond_atom_site_label_1
_geom_bond_atom_site_label_2
_geom_bond_site_symmetry_1
_geom_bond_site_symmetry_2
Fe1 O1 1_555 1_555
O1 C1 1_555 1_555
C1 O2 1_555 1_555
O2 Fe1_2 1_555 1_555
C2 C1 1_555 1_555
C3 C2 1_555 1_555
C4 C3 1_555 1_555
C5 C4 1_555 1_555
C6 C2 1_555 1_555
H1 C3 1_555 1_555
H2 C4 1_555 1_555
H3 C6 1_555 1_555
Fe1D O1 1_555 1_555
Fe1E O1E 1_555 1_555
Fe1A O1E 1_555 1_555
Fe1E_2 O2E 1_555 1_555
O1E C1E 1_555 1_555
O1B Fe1 1_555 1_555
O1D Fe1 1_555 1_555
O1F Fe1 1_555 1_555
C1E O2E 1_555 1_555
O2_2 Fe1 1_555 1_555
O2B Fe1 1_555 1_555
C2E C1E 1_555 1_555
C3E C2E 1_555 1_555
C4E C3E 1_555 1_555
C5E C5 1_555 1_555
C6E C5 1_555 1_555
H1E C3E 1_555 1_555
H2E C4E 1_555 1_555
H3E C6E 1_555 1_555
C6 C5E 1_555 1_555
Fe1D O1D 1_555 1_555
C2E C6E 1_555 1_555
C4E C5E 1_555 1_555

#END
