
#######################################################################
#
#                 Cambridge Crystallographic Data Centre
#                                CCDC 
#
#######################################################################
#
# If this CIF has been generated from an entry in the Cambridge 
# Structural Database, then it will include bibliographic, chemical, 
# crystal, experimental, refinement or atomic coordinate data resulting 
# from the CCDC's data processing and validation procedures.
#
#######################################################################

data_ESIGES01
_chemical_formula_moiety         '(C21 H22 N2 O12 P2 Zn2)n'
_symmetry_cell_setting           orthorhombic
_symmetry_space_group_name_H-M   'P n a 21'
_symmetry_Int_Tables_number      33
_space_group_name_Hall           'P 2c -2n'
loop_
_symmetry_equiv_pos_site_id
_symmetry_equiv_pos_as_xyz
1 x,y,z
2 -x,-y,1/2+z
3 1/2+x,1/2-y,z
4 1/2-x,1/2+y,1/2+z
_cell_length_a                   9.9740(5)
_cell_length_b                   9.1804(5)
_cell_length_c                   27.5385(17)
_cell_angle_alpha                90
_cell_angle_beta                 90
_cell_angle_gamma                90
_cell_volume                     2521.57
loop_
_atom_site_label
_atom_site_type_symbol
_atom_site_fract_x
_atom_site_fract_y
_atom_site_fract_z
_atom_site_U_iso_or_equiv
_atom_site_thermal_displace_type
Zn1 Zn 0.62128(7) 0.32750(7) 0.05796(2) 0.0201 Uani
Zn2 Zn 0.43416(7) 0.67979(7) -0.03946(2) 0.0212 Uani
P1 P 0.72228(16) 0.57882(18) -0.01527(6) 0.0198 Uani
P2 P 0.32699(15) 0.41845(19) 0.03494(6) 0.0211 Uani
O1 O 0.6216(4) 0.6998(4) -0.02519(16) 0.0237 Uani
O2 O 0.6992(4) 0.5025(4) 0.03279(15) 0.0300 Uani
O3 O 0.8648(4) 0.6338(5) -0.01594(16) 0.0263 Uani
O4 O 0.7069(4) 0.4594(5) -0.05581(16) 0.0340 Uani
H1 H 0.6647 0.4933 -0.0788 0.0510 Uiso
O5 O 0.4383(4) 0.3056(4) 0.04014(19) 0.0327 Uani
O6 O 0.1914(4) 0.3513(4) 0.02861(15) 0.0260 Uani
O7 O 0.3496(5) 0.5213(5) -0.00686(18) 0.0407 Uani
O8 O 0.3247(5) 0.5130(5) 0.08314(17) 0.0390 Uani
H2 H 0.3126 0.4595 0.1066 0.0590 Uiso
O9 O 0.6323(5) 0.3605(5) 0.12794(17) 0.0400 Uani
O10 O 0.6059(5) 0.3450(6) 0.39213(18) 0.0437 Uani
O11 O 0.7798(6) 0.1966(6) 0.1526(2) 0.0590 Uani
O12 O 0.4238(6) 0.4585(6) 0.36508(18) 0.0560 Uani
C1 C 0.6955(7) 0.2953(8) 0.1601(2) 0.0330 Uani
C2 C 0.6632(7) 0.3349(8) 0.2121(2) 0.0337 Uani
C3 C 0.7297(8) 0.2706(8) 0.2501(3) 0.0453 Uani
H5 H 0.8004 0.2076 0.2435 0.0540 Uiso
C4 C 0.6947(8) 0.2966(8) 0.2974(3) 0.0450 Uani
H6 H 0.7445 0.2558 0.3226 0.0540 Uiso
C5 C 0.5859(7) 0.3834(8) 0.3077(2) 0.0293 Uani
C6 C 0.5184(7) 0.4519(8) 0.2698(2) 0.0357 Uani
H7 H 0.4470 0.5139 0.2765 0.0430 Uiso
C7 C 0.5576(6) 0.4279(8) 0.2227(2) 0.0340 Uani
H8 H 0.5126 0.4746 0.1975 0.0410 Uiso
C8 C 0.5339(7) 0.3989(8) 0.3589(2) 0.0333 Uani
Zn1B Zn 0.12128(7) 0.17250(7) 0.05796(2) 0.0201 Uani
Zn2A Zn 0.56584(7) 0.32021(7) 0.46054(2) 0.0212 Uani
Zn2B Zn 0.93416(7) 0.82021(7) -0.03946(2) 0.0212 Uani
O3B O 0.3648(4) 0.8662(5) -0.01594(16) 0.0263 Uani
O6B O 0.6914(4) 0.1487(4) 0.02861(15) 0.0260 Uani
O10A O 0.3941(5) 0.6550(6) -0.10787(18) 0.0437 Uani
N1 N 0.5250(6) 0.1131(7) -0.4226(2) 0.0400 Uani
H3 H 0.5580 0.1071 -0.4514 0.0480 Uiso
N2 N 0.5725(8) 0.1047(10) -0.0614(3) 0.0620 Uani
H4 H 0.6128 0.1007 -0.0338 0.0740 Uiso
C9 C 0.5448(8) 0.0018(9) -0.3914(3) 0.0423 Uani
H9 H 0.5951 -0.0788 -0.4008 0.0510 Uiso
C10 C 0.4916(7) 0.0082(8) -0.3468(3) 0.0417 Uani
H10 H 0.5053 -0.0682 -0.3252 0.0500 Uiso
C11 C 0.4138(7) 0.1315(9) -0.3322(3) 0.0383 Uani
C12 C 0.4008(7) 0.2407(9) -0.3655(3) 0.0397 Uani
H11 H 0.3528 0.3241 -0.3574 0.0470 Uiso
C13 C 0.4576(8) 0.2292(8) -0.4107(3) 0.0417 Uani
H12 H 0.4479 0.3047 -0.4329 0.0500 Uiso
C14 C 0.3467(9) 0.1347(10) -0.2835(3) 0.0553 Uani
H13 H 0.2804 0.0576 -0.2824 0.0670 Uiso
H14 H 0.2996 0.2266 -0.2801 0.0670 Uiso
C15 C 0.4399(8) 0.1172(8) -0.2408(3) 0.0477 Uani
H15 H 0.5075 0.1931 -0.2415 0.0570 Uiso
H16 H 0.4850 0.0238 -0.2428 0.0570 Uiso
C16 C 0.3607(9) 0.1262(9) -0.1930(3) 0.0543 Uani
H17 H 0.3107 0.2169 -0.1930 0.0650 Uiso
H18 H 0.2959 0.0475 -0.1927 0.0650 Uiso
C17 C 0.4389(8) 0.1191(8) -0.1474(3) 0.0370 Uani
C18 C 0.5262(9) 0.0035(10) -0.1366(3) 0.0577 Uani
H19 H 0.5383 -0.0704 -0.1593 0.0690 Uiso
C19 C 0.5939(9) -0.0028(11) -0.0936(4) 0.0633 Uani
H20 H 0.6527 -0.0788 -0.0868 0.0760 Uiso
C20 C 0.4931(11) 0.2150(14) -0.0700(4) 0.0767 Uani
H21 H 0.4836 0.2888 -0.0471 0.0920 Uiso
C21 C 0.4248(9) 0.2215(11) -0.1125(3) 0.0527 Uani
H22 H 0.3664 0.2988 -0.1179 0.0630 Uiso
loop_
_atom_site_aniso_label
_atom_site_aniso_U_11
_atom_site_aniso_U_22
_atom_site_aniso_U_33
_atom_site_aniso_U_23
_atom_site_aniso_U_13
_atom_site_aniso_U_12
Zn1 0.0209(4) 0.0245(4) 0.0150(3) 0.0016(4) 0.0004(3) 0.0012(3)
Zn2 0.0219(4) 0.0270(4) 0.0148(3) 0.0011(4) 0.0007(3) 0.0012(3)
P1 0.0181(9) 0.0224(9) 0.0189(8) 0.0022(7) -0.0014(7) -0.0002(7)
P2 0.0162(8) 0.0259(9) 0.0213(9) 0.0035(7) 0.0013(7) -0.0005(7)
O1 0.025(3) 0.015(2) 0.031(3) 0.0033(19) -0.0033(17) 0.0059(17)
O2 0.035(3) 0.029(3) 0.026(2) 0.010(2) 0.003(2) -0.010(2)
O3 0.014 0.035 0.03 0.01 0.005 0.0008
O4 0.040(3) 0.033(3) 0.029(3) -0.010(2) -0.013(2) 0.005(2)
O5 0.042(3) 0.027(3) 0.029(3) 0.005(2) 0.023(2) 0.013(2)
O6 0.017 0.038 0.023 0.008 -0.0012 -0.001
O7 0.040(3) 0.038(3) 0.044(3) 0.020(2) 0.003(2) -0.007(2)
O8 0.049(3) 0.035(3) 0.033(3) -0.014(2) 0.003(2) -0.004(2)
O9 0.057(4) 0.052(3) 0.011(3) -0.002(2) -0.003(2) -0.001(3)
O10 0.046 0.067 0.018 0 -0.006 0.001
O11 0.066(4) 0.077(4) 0.034(3) -0.013(3) 0.003(3) 0.029(3)
O12 0.064 0.078 0.026 0.009 0.012 0.023
C1 0.031(4) 0.054(5) 0.014(3) 0.002(3) 0.003(3) -0.007(4)
C2 0.035(4) 0.046(5) 0.020(3) -0.003(3) 0.004(3) 0.001(4)
C3 0.049(6) 0.059(5) 0.028(5) -0.001(4) 0.004(3) 0.019(4)
C4 0.041(5) 0.067(6) 0.027(4) 0.010(4) -0.006(3) 0.010(4)
C5 0.033(4) 0.045(4) 0.010(3) -0.004(3) 0.002(3) -0.002(3)
C6 0.037(5) 0.050(4) 0.020(4) 0.000(3) -0.005(3) 0.007(3)
C7 0.034(4) 0.050(5) 0.018(3) 0.012(3) 0.002(3) 0.001(3)
C8 0.037 0.043 0.02 0.003 0.004 -0.002
Zn1B 0.0209 0.0245 0.015 -0.0016 0.0004 -0.0012
Zn2A 0.0219 0.027 0.0148 -0.0011 -0.0007 0.0012
Zn2B 0.0219 0.027 0.0148 -0.0011 0.0007 -0.0012
O3B 0.014 0.035 0.03 -0.01 0.005 -0.0008
O6B 0.017 0.038 0.023 -0.008 -0.0012 0.001
O10A 0.046 0.067 0.018 0 0.006 0.001
N1 0.047(4) 0.056(4) 0.017(3) 0.003(3) 0.007(3) -0.005(3)
N2 0.057(5) 0.100(7) 0.029(4) 0.011(5) -0.011(4) -0.037(5)
C9 0.041(5) 0.040(5) 0.046(5) -0.013(4) 0.006(4) 0.008(4)
C10 0.043(5) 0.043(5) 0.039(5) 0.013(4) 0.000(3) 0.005(4)
C11 0.036(4) 0.050(5) 0.029(4) -0.009(4) 0.001(3) -0.001(3)
C12 0.052(5) 0.028(4) 0.039(5) 0.000(4) -0.007(4) 0.009(4)
C13 0.060(5) 0.035(4) 0.030(4) 0.010(3) 0.005(4) -0.003(4)
C14 0.062(6) 0.080(6) 0.024(4) -0.003(4) 0.007(4) 0.009(5)
C15 0.065(7) 0.058(4) 0.020(3) -0.003(5) 0.005(4) -0.002(4)
C16 0.070(6) 0.069(6) 0.024(4) 0.003(4) 0.001(4) 0.020(5)
C17 0.050(5) 0.038(5) 0.023(4) 0.001(4) -0.002(3) -0.007(4)
C18 0.075(7) 0.051(5) 0.047(5) -0.015(4) -0.022(5) 0.007(5)
C19 0.047(6) 0.056(6) 0.087(8) 0.026(6) -0.018(5) -0.003(5)
C20 0.072(7) 0.119(10) 0.039(6) -0.039(6) 0.007(5) -0.034(7)
C21 0.050(5) 0.063(6) 0.045(6) 0.000(5) 0.002(4) 0.001(4)
loop_
_geom_bond_atom_site_label_1
_geom_bond_atom_site_label_2
_geom_bond_site_symmetry_1
_geom_bond_site_symmetry_2
Zn1 O2 1_555 1_555
Zn2 O1 1_555 1_555
P1 O1 1_555 1_555
P2 O5 1_555 1_555
O2 P1 1_555 1_555
O3 P1 1_555 1_555
O4 P1 1_555 1_555
H1 O4 1_555 1_555
O5 Zn1 1_555 1_555
O6 P2 1_555 1_555
O7 Zn2 1_555 1_555
O8 P2 1_555 1_555
H2 O8 1_555 1_555
O9 Zn1 1_555 1_555
O10 C8 1_555 1_555
O11 C1 1_555 1_555
O12 C8 1_555 1_555
N1 H3 1_555 1_555
N2 H4 1_555 1_555
C1 O9 1_555 1_555
C2 C1 1_555 1_555
C3 C2 1_555 1_555
H5 C3 1_555 1_555
C4 C3 1_555 1_555
H6 C4 1_555 1_555
C5 C4 1_555 1_555
C6 C5 1_555 1_555
H7 C6 1_555 1_555
C7 C2 1_555 1_555
H8 C7 1_555 1_555
C8 C5 1_555 1_555
C9 N1 1_555 1_555
H9 C9 1_555 1_555
C10 C9 1_555 1_555
H10 C10 1_555 1_555
C11 C10 1_555 1_555
C12 C11 1_555 1_555
H11 C12 1_555 1_555
C13 N1 1_555 1_555
H12 C13 1_555 1_555
C14 C11 1_555 1_555
H13 C14 1_555 1_555
H14 C14 1_555 1_555
C15 C14 1_555 1_555
H15 C15 1_555 1_555
H16 C15 1_555 1_555
C16 C15 1_555 1_555
H17 C16 1_555 1_555
H18 C16 1_555 1_555
C17 C16 1_555 1_555
C18 C17 1_555 1_555
H19 C18 1_555 1_555
C19 N2 1_555 1_555
H20 C19 1_555 1_555
C20 N2 1_555 1_555
H21 C20 1_555 1_555
C21 C17 1_555 1_555
H22 C21 1_555 1_555
Zn1B O6 1_555 1_555
Zn2A O10 1_555 1_555
Zn2B O3 1_555 1_555
O3B Zn2 1_555 1_555
O6B Zn1 1_555 1_555
O10A Zn2 1_555 1_555
P2 O7 1_555 1_555
C6 C7 1_555 1_555
C12 C13 1_555 1_555
C18 C19 1_555 1_555
C20 C21 1_555 1_555

#END
