
#######################################################################
#
#                 Cambridge Crystallographic Data Centre
#                                CCDC 
#
#######################################################################
#
# If this CIF has been generated from an entry in the Cambridge 
# Structural Database, then it will include bibliographic, chemical, 
# crystal, experimental, refinement or atomic coordinate data resulting 
# from the CCDC's data processing and validation procedures.
#
#######################################################################

data_ITOSEQ
_chemical_formula_moiety         '(C21 H34 N2 O12 P2 Zn2)n'
_symmetry_cell_setting           monoclinic
_symmetry_space_group_name_H-M   'P 21/c'
_symmetry_Int_Tables_number      14
_space_group_name_Hall           '-P 2ybc'
loop_
_symmetry_equiv_pos_site_id
_symmetry_equiv_pos_as_xyz
1 x,y,z
2 -x,1/2+y,1/2-z
3 -x,-y,-z
4 x,1/2-y,1/2+z
_cell_length_a                   10.8928(2)
_cell_length_b                   8.79170(10)
_cell_length_c                   27.7665(4)
_cell_angle_alpha                90
_cell_angle_beta                 101.0510(10)
_cell_angle_gamma                90
_cell_volume                     2609.79
loop_
_atom_site_label
_atom_site_type_symbol
_atom_site_fract_x
_atom_site_fract_y
_atom_site_fract_z
_atom_site_U_iso_or_equiv
_atom_site_thermal_displace_type
Zn1 Zn 0.62956(3) -0.96692(4) -0.199058(11) 0.0172 Uani
Zn2 Zn 0.87284(3) -0.76219(4) -0.295995(11) 0.0164 Uani
P1 P 0.88172(7) -1.04710(8) -0.23217(3) 0.0160 Uani
P2 P 0.61328(7) -0.69500(8) -0.27101(3) 0.0160 Uani
O1 O 0.8878(2) -0.9796(2) -0.28177(7) 0.0249 Uani
O2 O 0.95466(18) -1.1955(2) -0.22300(8) 0.0224 Uani
O3 O 0.74679(18) -1.0796(2) -0.22810(8) 0.0238 Uani
O4 O 0.9396(2) -0.9247(2) -0.19322(7) 0.0278 Uani
O5 O 0.75207(18) -0.6523(2) -0.26639(7) 0.0206 Uani
O6 O 0.5880(2) -0.7607(2) -0.22339(7) 0.0229 Uani
O7 O 0.5844(2) -0.8247(2) -0.31067(7) 0.0267 Uani
O8 O 0.6680(2) -0.9354(3) -0.12854(8) 0.0341 Uani
O9 O 0.8365(2) -0.7622(3) 0.13210(8) 0.0351 Uani
O10 O 0.8769(2) -0.9420(3) -0.10832(8) 0.0438 Uani
O11 O 0.6284(2) -0.7848(3) 0.11091(8) 0.0432 Uani
C14 C 0.7720(3) -0.9270(4) -0.09831(11) 0.0253 Uani
C15 C 0.7632(3) -0.8973(3) -0.04570(10) 0.0229 Uani
C16 C 0.6477(3) -0.8963(4) -0.03191(11) 0.0301 Uani
C17 C 0.6392(3) -0.8605(4) 0.01566(11) 0.0305 Uani
C18 C 0.7468(3) -0.8308(4) 0.05056(10) 0.0241 Uani
C19 C 0.8623(3) -0.8378(4) 0.03730(11) 0.0320 Uani
C20 C 0.8709(3) -0.8695(4) -0.01092(12) 0.0328 Uani
C21 C 0.7355(3) -0.7904(4) 0.10215(11) 0.0268 Uani
H1 H 0.9243 -0.9437 -0.1615 0.0800 Uiso
H2 H 0.6011 -0.7895 -0.3379 0.0800 Uiso
H7 H 0.5764 -0.9179 -0.0548 0.0800 Uiso
H8 H 0.5614 -0.8581 0.0243 0.0800 Uiso
H9 H 0.9345 -0.8236 0.0608 0.0800 Uiso
H10 H 0.9484 -0.8710 -0.0196 0.0800 Uiso
O12 O 0.5337(2) -0.5580(3) -0.28629(9) 0.0314 Uani
Zn1A Zn 0.37044(3) -0.46692(4) -0.300942(11) 0.0172 Uani
Zn2A Zn 1.12716(3) -1.26219(4) -0.204005(11) 0.0164 Uani
Zn2C Zn 0.87284(3) -0.73781(4) 0.204005(11) 0.0164 Uani
O2A O 1.04534(18) -0.6955(2) -0.27700(8) 0.0224 Uani
O9C O 0.8365(2) -0.7378(3) -0.36790(8) 0.0351 Uani
O12A O 0.4663(2) -1.0580(3) -0.21371(9) 0.0314 Uani
N1 N 0.8225(2) -0.4519(3) -0.19068(9) 0.0252 Uani
N2 N 0.6137(3) -0.3218(3) 0.17196(10) 0.0353 Uani
C1 C 0.7042(3) -0.3977(4) -0.17658(12) 0.0276 Uani
C2 C 0.8884(3) -0.5653(4) -0.15522(12) 0.0328 Uani
C3 C 0.7310(3) -0.3314(4) -0.12548(12) 0.0288 Uani
C4 C 0.9137(3) -0.5022(5) -0.10349(12) 0.0375 Uani
C5 C 0.7960(3) -0.4446(4) -0.08754(11) 0.0299 Uani
C6 C 0.8308(3) -0.3783(5) -0.03566(12) 0.0449 Uani
C7 C 0.7253(3) -0.3470(4) -0.00833(12) 0.0364 Uani
C8 C 0.7822(3) -0.2979(5) 0.04390(12) 0.0395 Uani
C9 C 0.6947(3) -0.2626(4) 0.07883(11) 0.0257 Uani
C10 C 0.6138(3) -0.3978(4) 0.08614(12) 0.0342 Uani
C11 C 0.7722(3) -0.2165(4) 0.12876(12) 0.0337 Uani
C12 C 0.5356(3) -0.3696(4) 0.12420(12) 0.0358 Uani
C13 C 0.6929(4) -0.1856(4) 0.16635(13) 0.0409 Uani
H3 H 0.8764 -0.3808 -0.1909 0.0800 Uiso
H4 H 0.7984 -0.5058 -0.2220 0.0800 Uiso
H5 H 0.6631 -0.4001 0.1861 0.0800 Uiso
H6 H 0.5696 -0.2922 0.1971 0.0800 Uiso
H11 H 0.6528 -0.2990 -0.1169 0.0800 Uiso
H12 H 0.7832 -0.2412 -0.1252 0.0800 Uiso
H13 H 0.7402 -0.5301 -0.0866 0.0800 Uiso
H14 H 0.9731 -0.4194 -0.1015 0.0800 Uiso
H15 H 0.9512 -0.5808 -0.0808 0.0800 Uiso
H16 H 0.9668 -0.5932 -0.1641 0.0800 Uiso
H17 H 0.8375 -0.6571 -0.1563 0.0800 Uiso
H18 H 0.8895 -0.4454 -0.0159 0.0800 Uiso
H19 H 0.8738 -0.2816 -0.0379 0.0800 Uiso
H20 H 0.6761 -0.4378 -0.0079 0.0800 Uiso
H21 H 0.6716 -0.2669 -0.0248 0.0800 Uiso
H22 H 0.8322 -0.2084 0.0419 0.0800 Uiso
H23 H 0.8380 -0.3781 0.0586 0.0800 Uiso
H24 H 0.6402 -0.1776 0.0654 0.0800 Uiso
H25 H 0.5578 -0.4217 0.0554 0.0800 Uiso
H26 H 0.6663 -0.4851 0.0962 0.0800 Uiso
H27 H 0.4746 -0.2902 0.1125 0.0800 Uiso
H28 H 0.4905 -0.4609 0.1290 0.0800 Uiso
H29 H 0.7457 -0.1623 0.1975 0.0800 Uiso
H30 H 0.6382 -0.0991 0.1561 0.0800 Uiso
H31 H 0.8312 -0.2954 0.1407 0.0800 Uiso
H32 H 0.8183 -0.1242 0.1247 0.0800 Uiso
H33 H 0.6464 -0.4823 -0.1775 0.0800 Uiso
H34 H 0.6698 -0.3312 -0.2005 0.0800 Uiso
loop_
_atom_site_aniso_label
_atom_site_aniso_U_11
_atom_site_aniso_U_22
_atom_site_aniso_U_33
_atom_site_aniso_U_23
_atom_site_aniso_U_13
_atom_site_aniso_U_12
Zn1 0.01460(17) 0.02166(19) 0.01606(16) -0.00139(13) 0.00505(12) -0.00112(13)
Zn2 0.01435(17) 0.01940(18) 0.01675(17) 0.00043(13) 0.00595(13) 0.00035(13)
P1 0.0153(4) 0.0167(4) 0.0170(3) -0.0007(3) 0.0057(3) 0.0003(3)
P2 0.0133(4) 0.0191(4) 0.0169(3) 0.0016(3) 0.0059(3) 0.0005(3)
O1 0.0373(13) 0.0210(11) 0.0190(10) 0.0022(8) 0.0119(9) 0.0019(9)
O2 0.0153(11) 0.0196(11) 0.0329(12) 0.0045(9) 0.0061(9) 0.0036(8)
O3 0.0146(11) 0.0267(11) 0.0319(12) -0.0062(9) 0.0091(9) 0.0002(9)
O4 0.0357(13) 0.0276(12) 0.0216(11) -0.0060(9) 0.0092(9) -0.0110(10)
O5 0.0153(10) 0.0236(11) 0.0239(10) -0.0044(8) 0.0065(8) -0.0001(8)
O6 0.0301(12) 0.0225(11) 0.0192(10) 0.0018(8) 0.0124(9) 0.0018(9)
O7 0.0295(12) 0.0315(12) 0.0203(11) -0.0061(9) 0.0078(9) -0.0123(10)
O8 0.0343(14) 0.0511(15) 0.0152(10) -0.0036(10) 0.0003(9) 0.0077(11)
O9 0.0377(14) 0.0520(16) 0.0165(11) -0.0074(10) 0.0072(10) -0.0046(12)
O10 0.0351(15) 0.077(2) 0.0217(12) -0.0102(12) 0.0112(11) -0.0022(13)
O11 0.0369(15) 0.074(2) 0.0221(12) -0.0072(12) 0.0141(11) 0.0002(13)
C14 0.0316(18) 0.0276(17) 0.0180(15) -0.0035(12) 0.0080(13) -0.0001(14)
C15 0.0263(17) 0.0252(16) 0.0177(14) -0.0009(12) 0.0052(12) 0.0020(13)
C16 0.0266(17) 0.043(2) 0.0208(15) 0.0008(14) 0.0047(13) -0.0002(15)
C17 0.0244(17) 0.046(2) 0.0228(16) 0.0003(14) 0.0089(13) -0.0003(15)
C18 0.0315(18) 0.0263(16) 0.0161(14) -0.0011(12) 0.0087(12) 0.0007(13)
C19 0.0285(18) 0.050(2) 0.0182(15) -0.0078(15) 0.0066(13) -0.0059(16)
C20 0.0243(17) 0.053(2) 0.0224(16) -0.0071(15) 0.0080(13) -0.0046(16)
C21 0.038(2) 0.0261(17) 0.0184(15) 0.0018(12) 0.0104(14) 0.0006(14)
O12 0.0198(12) 0.0301(13) 0.0465(14) 0.0136(11) 0.0122(10) 0.0108(9)
Zn1A 0.0146 0.02166 0.01606 0.00139 0.00505 0.00112
Zn2A 0.01435 0.0194 0.01675 -0.00043 0.00595 -0.00035
Zn2C 0.01435 0.0194 0.01675 -0.00043 0.00595 -0.00035
O2A 0.0153 0.0196 0.0329 -0.0045 0.0061 -0.0036
O9C 0.0377 0.052 0.0165 0.0074 0.0072 0.0046
O12A 0.0198 0.0301 0.0465 -0.0136 0.0122 -0.0108
N1 0.0276(15) 0.0264(14) 0.0238(13) -0.0034(11) 0.0103(11) -0.0070(11)
N2 0.0429(18) 0.0442(18) 0.0215(14) 0.0071(12) 0.0133(12) 0.0076(14)
C1 0.0259(17) 0.0284(17) 0.0300(17) 0.0015(14) 0.0091(14) 0.0043(14)
C2 0.0309(19) 0.038(2) 0.0314(18) -0.0022(15) 0.0105(14) 0.0103(15)
C3 0.0320(18) 0.0276(17) 0.0292(17) -0.0061(14) 0.0118(14) 0.0023(14)
C4 0.0286(19) 0.056(2) 0.0280(18) -0.0027(16) 0.0057(14) 0.0096(17)
C5 0.0234(17) 0.044(2) 0.0234(16) -0.0030(14) 0.0070(13) 0.0024(15)
C6 0.0283(19) 0.085(3) 0.0233(18) -0.0121(18) 0.0096(15) 0.002(2)
C7 0.0296(19) 0.057(2) 0.0251(17) -0.0044(16) 0.0119(14) 0.0001(17)
C8 0.0259(19) 0.068(3) 0.0272(18) -0.0094(17) 0.0116(14) 0.0001(18)
C9 0.0248(17) 0.0323(18) 0.0219(15) -0.0017(13) 0.0090(13) 0.0007(13)
C10 0.037(2) 0.039(2) 0.0288(18) -0.0038(15) 0.0118(15) -0.0079(16)
C11 0.0309(19) 0.045(2) 0.0261(17) -0.0069(15) 0.0078(14) -0.0067(16)
C12 0.0337(19) 0.048(2) 0.0268(17) 0.0085(16) 0.0082(14) -0.0008(16)
C13 0.055(3) 0.040(2) 0.0310(19) -0.0085(16) 0.0165(17) -0.0031(18)
loop_
_geom_bond_atom_site_label_1
_geom_bond_atom_site_label_2
_geom_bond_site_symmetry_1
_geom_bond_site_symmetry_2
Zn1 O3 1_555 1_555
Zn2 O1 1_555 1_555
P1 O1 1_555 1_555
P2 O5 1_555 1_555
O2 P1 1_555 1_555
O3 P1 1_555 1_555
O4 P1 1_555 1_555
O5 Zn2 1_555 1_555
O6 Zn1 1_555 1_555
O7 P2 1_555 1_555
O8 Zn1 1_555 1_555
O9 C21 1_555 1_555
O10 C14 1_555 1_555
O11 C21 1_555 1_555
N1 C1 1_555 1_555
N2 C12 1_555 1_555
C1 C3 1_555 1_555
C2 N1 1_555 1_555
C3 C5 1_555 1_555
C4 C2 1_555 1_555
C5 C4 1_555 1_555
C6 C5 1_555 1_555
C7 C6 1_555 1_555
C8 C7 1_555 1_555
C9 C8 1_555 1_555
C10 C9 1_555 1_555
C11 C9 1_555 1_555
C12 C10 1_555 1_555
C13 N2 1_555 1_555
C14 O8 1_555 1_555
C15 C14 1_555 1_555
C16 C15 1_555 1_555
C17 C16 1_555 1_555
C18 C17 1_555 1_555
C19 C18 1_555 1_555
C20 C15 1_555 1_555
C21 C18 1_555 1_555
H1 O4 1_555 1_555
H2 O7 1_555 1_555
H3 N1 1_555 1_555
H4 N1 1_555 1_555
H5 N2 1_555 1_555
H6 N2 1_555 1_555
H7 C16 1_555 1_555
H8 C17 1_555 1_555
H9 C19 1_555 1_555
H10 C20 1_555 1_555
H11 C3 1_555 1_555
H12 C3 1_555 1_555
H13 C5 1_555 1_555
H14 C4 1_555 1_555
H15 C4 1_555 1_555
H16 C2 1_555 1_555
H17 C2 1_555 1_555
H18 C6 1_555 1_555
H19 C6 1_555 1_555
H20 C7 1_555 1_555
H21 C7 1_555 1_555
H22 C8 1_555 1_555
H23 C8 1_555 1_555
H24 C9 1_555 1_555
H25 C10 1_555 1_555
H26 C10 1_555 1_555
H27 C12 1_555 1_555
H28 C12 1_555 1_555
H29 C13 1_555 1_555
H30 C13 1_555 1_555
H31 C11 1_555 1_555
H32 C11 1_555 1_555
H33 C1 1_555 1_555
H34 C1 1_555 1_555
O12 P2 1_555 1_555
Zn1A O12 1_555 1_555
Zn2A O2 1_555 1_555
Zn2C O9 1_555 1_555
O2A Zn2 1_555 1_555
O9C Zn2 1_555 1_555
O12A Zn1 1_555 1_555
P2 O6 1_555 1_555
C11 C13 1_555 1_555
C19 C20 1_555 1_555

#END
