
#######################################################################
#
#                 Cambridge Crystallographic Data Centre
#                                CCDC 
#
#######################################################################
#
# If this CIF has been generated from an entry in the Cambridge 
# Structural Database, then it will include bibliographic, chemical, 
# crystal, experimental, refinement or atomic coordinate data resulting 
# from the CCDC's data processing and validation procedures.
#
#######################################################################

data_PUNSIB
_chemical_formula_moiety         '(C14 H22 Cl1 La1 N4 O16)n'
_symmetry_cell_setting           monoclinic
_symmetry_space_group_name_H-M   'C 2/m'
_symmetry_Int_Tables_number      12
_space_group_name_Hall           '-C 2y'
loop_
_symmetry_equiv_pos_site_id
_symmetry_equiv_pos_as_xyz
1 x,y,z
2 -x,y,-z
3 1/2+x,1/2+y,z
4 1/2-x,1/2+y,-z
5 -x,-y,-z
6 x,-y,z
7 1/2-x,1/2-y,-z
8 1/2+x,1/2-y,z
_cell_length_a                   9.0154(18)
_cell_length_b                   25.441(5)
_cell_length_c                   11.390(2)
_cell_angle_alpha                90
_cell_angle_beta                 104.41(3)
_cell_angle_gamma                90
_cell_volume                     2530.23
loop_
_atom_site_label
_atom_site_type_symbol
_atom_site_fract_x
_atom_site_fract_y
_atom_site_fract_z
La1 La 0.5000 0.234724(7) 0.5000
O1 O 0.3395(3) 0.15355(9) 0.4374(2)
O2 O 0.2931(4) 0.06853(11) 0.4527(3)
O3 O 0.2416(3) 0.26738(7) 0.3844(2)
O4 O 0.0120(2) 0.29082(9) 0.27838(19)
O5 O 0.5333(3) 0.31810(9) 0.3808(2)
H1 H 0.482(4) 0.3450(12) 0.382(4)
H2 H 0.627(2) 0.3262(16) 0.395(4)
N1 N 0.3960(4) 0.04233(10) 0.2567(3)
N2 N 0.1008(3) 0.31043(12) 0.0747(2)
C1 C 0.3415(4) 0.10601(12) 0.4055(3)
C2 C 0.4164(5) 0.09654(12) 0.3009(3)
H3 H 0.3712 0.1208 0.2336
H4 H 0.5272 0.1044 0.3284
C3 C 0.4551(6) 0.0000 0.3186(4)
H5 H 0.5279 0.0000 0.3949
C4 C 0.2976(5) 0.02619(16) 0.1502(4)
H6 H 0.2402 0.0483 0.0881
C5 C 0.1502(3) 0.28291(11) 0.2875(2)
C6 C 0.2168(4) 0.29099(17) 0.1784(3)
H7 H 0.3023 0.3165 0.1995
H8 H 0.2581 0.2572 0.1570
C7 C -0.0000 0.2800(2) 0.0000
H9 H -0.0000 0.2427 0.0000
C8 C 0.0623(4) 0.36199(15) 0.0470(3)
H10 H 0.1141 0.3920 0.0868
La1F La 0.0000 0.265276(7) 0.5000
La1D La 0.5000 -0.234724(7) 0.5000
La1_2 La -0.5000 0.234724(7) -0.5000
La1F_2 La -0.0000 0.265276(7) -0.5000
O1E O 0.3395(3) -0.15355(9) 0.4374(2)
O1A O 0.6605(3) 0.15355(9) 0.5626(2)
O2E O 0.2931(4) -0.06853(11) 0.4527(3)
O3A O -0.2416(3) 0.26738(7) -0.3844(2)
O3A_2 O 0.7584(3) 0.26738(7) 0.6156(2)
O3F O 0.2584(3) 0.23262(7) 0.6156(2)
O3G O 0.7416(3) 0.23262(7) 0.3844(2)
O4A O -0.0120(2) 0.29082(9) -0.27838(19)
O4F O 0.4880(2) 0.20918(9) 0.72162(19)
O4G O 0.5120(2) 0.20918(9) 0.27838(19)
O5A O 0.4667(3) 0.31810(9) 0.6192(2)
H1A H 0.518(4) 0.3450(12) 0.618(4)
H2A H 0.373(2) 0.3262(16) 0.605(4)
N1E N 0.3960(4) -0.04233(10) 0.2567(3)
N2A N -0.1008(3) 0.31043(12) -0.0747(2)
C1E C 0.3415(4) -0.10601(12) 0.4055(3)
C2E C 0.4164(5) -0.09654(12) 0.3009(3)
H3E H 0.3712 -0.1208 0.2336
H4E H 0.5272 -0.1044 0.3284
C4E C 0.2976(5) -0.02619(16) 0.1502(4)
H6E H 0.2402 -0.0483 0.0881
C5A C -0.1502(3) 0.28291(11) -0.2875(2)
C6A C -0.2168(4) 0.29099(17) -0.1784(3)
H7A H -0.3023 0.3165 -0.1995
H8A H -0.2581 0.2572 -0.1570
C8A C -0.0623(4) 0.36199(15) -0.0470(3)
H10A H -0.1141 0.3920 -0.0868
Cl1 Cl 0.0000 0.12929(6) 1.0000
O6 O 0.0553(6) 0.0965(2) 0.9210(5)
O7 O 0.1225(4) 0.16154(18) 1.0629(5)
O6A O -0.0553(6) 0.0965(2) 1.0790(5)
O7A O -0.1225(4) 0.16154(18) 0.9371(5)
O8 O 0.3337(5) 0.40472(13) 0.3518(4)
H11 H 0.378(7) 0.4337(16) 0.337(5)
H12 H 0.306(8) 0.410(2) 0.416(4)
O9 O 0.5082(12) 0.5000 0.3148(13)
H13 H 0.413(6) 0.5000 0.278(13)
H14 H 0.513(19) 0.5000 0.391(3)
loop_
_geom_bond_atom_site_label_1
_geom_bond_atom_site_label_2
_geom_bond_site_symmetry_1
_geom_bond_site_symmetry_2
La1 O1 1_555 1_555
O1 C1 1_555 1_555
O2 C1 1_555 1_555
O3 La1 1_555 1_555
O4 C5 1_555 1_555
O5 La1 1_555 1_555
H1 O5 1_555 1_555
H2 O5 1_555 1_555
N1 C2 1_555 1_555
N2 C6 1_555 1_555
C1 C2 1_555 1_555
C2 H3 1_555 1_555
H4 C2 1_555 1_555
C3 N1 1_555 1_555
H5 C3 1_555 1_555
C4 N1 1_555 1_555
H6 C4 1_555 1_555
C5 O3 1_555 1_555
C6 C5 1_555 1_555
H7 C6 1_555 1_555
H8 C6 1_555 1_555
C7 N2 1_555 1_555
H9 C7 1_555 1_555
C8 N2 1_555 1_555
H10 C8 1_555 1_555
Cl1 O6 1_555 1_555
O7 Cl1 1_555 1_555
O8 H11 1_555 1_555
H12 O8 1_555 1_555
O9 H13 1_555 1_555
H14 O9 1_555 1_555
La1F O3 1_555 1_555
La1D O1E 1_555 1_555
La1_2 O3A 1_555 1_555
La1F_2 O3A 1_555 1_555
O1E C1E 1_555 1_555
O1A La1 1_555 1_555
O2E C1E 1_555 1_555
O3A C5A 1_555 1_555
O3A_2 La1 1_555 1_555
O3F La1 1_555 1_555
O3G La1 1_555 1_555
O4A La1F_2 1_555 1_555
O4F La1 1_555 1_555
O4G La1 1_555 1_555
O5A La1 1_555 1_555
H1A O5A 1_555 1_555
H2A O5A 1_555 1_555
N1E C3 1_555 1_555
N2A C7 1_555 1_555
C1E C2E 1_555 1_555
C2E N1E 1_555 1_555
H3E C2E 1_555 1_555
H4E C2E 1_555 1_555
C4E C4 1_555 1_555
H6E C4E 1_555 1_555
C5A O4A 1_555 1_555
C6A N2A 1_555 1_555
H7A C6A 1_555 1_555
H8A C6A 1_555 1_555
C8A C8 1_555 1_555
H10A C8A 1_555 1_555
O6A Cl1 1_555 1_555
O7A Cl1 1_555 1_555
O4 La1F 1_555 1_555
La1F O3F 1_555 1_555
N1E C4E 1_555 1_555
N2A C8A 1_555 1_555
C5A C6A 1_555 1_555

#END
