
#######################################################################
#
#                 Cambridge Crystallographic Data Centre
#                                CCDC 
#
#######################################################################
#
# If this CIF has been generated from an entry in the Cambridge 
# Structural Database, then it will include bibliographic, chemical, 
# crystal, experimental, refinement or atomic coordinate data resulting 
# from the CCDC's data processing and validation procedures.
#
#######################################################################

data_PUNSOH
_chemical_formula_moiety         'C22 H34 La8 N6 O32 4-'
_symmetry_cell_setting           monoclinic
_symmetry_space_group_name_H-M   'P 21/c'
_symmetry_Int_Tables_number      14
_space_group_name_Hall           '-P 2ybc'
loop_
_symmetry_equiv_pos_site_id
_symmetry_equiv_pos_as_xyz
1 x,y,z
2 -x,1/2+y,1/2-z
3 -x,-y,-z
4 x,1/2-y,1/2+z
_cell_length_a                   11.507(5)
_cell_length_b                   20.988(6)
_cell_length_c                   8.821(3)
_cell_angle_alpha                90
_cell_angle_beta                 102.307(15)
_cell_angle_gamma                90
_cell_volume                     2081.39
loop_
_atom_site_label
_atom_site_type_symbol
_atom_site_fract_x
_atom_site_fract_y
_atom_site_fract_z
O2 O 0.6341(4) 0.95364(17) 0.6915(5)
H3 H 0.589(4) 0.939(4) 0.738(8)
H4 H 0.7036(18) 0.949(4) 0.715(8)
O3 O 0.5232(14) 0.6397(8) 0.5657(18)
H5 H 0.460(13) 0.656(12) 0.51(3)
O4 O 0.9466(7) 0.5749(4) 0.5922(9)
H6 H 1.021(3) 0.583(6) 0.600(14)
O5 O 0.7873(10) 1.0143(6) 0.9684(14)
O6 O 0.6590(13) 0.5288(7) 0.8469(17)
La1 La 0.167989(19) 0.262175(11) 0.11443(2)
O7 O 0.0553(3) 0.21901(16) -0.1413(3)
O8 O -0.0522(3) 0.2069(2) -0.3778(4)
O9 O -0.6172(3) 0.1997(2) -0.3924(4)
O10 O -0.7091(3) 0.23452(17) -0.6211(4)
O11 O 0.1042(4) 0.35419(17) -0.0667(4)
O12 O 0.0681(4) 0.33934(18) -0.3224(4)
O13 O 0.2919(4) 0.1620(2) 0.0854(4)
H7 H 0.324(6) 0.155(3) 0.011(6)
H8 H 0.284(7) 0.129(2) 0.135(7)
O14 O 0.2121(5) 0.36988(19) 0.2526(5)
H9 H 0.242(6) 0.398(3) 0.205(8)
H10 H 0.149(4) 0.382(3) 0.276(9)
N1 N -0.2571(3) 0.1870(3) -0.2790(5)
N2 N -0.4059(4) 0.1849(3) -0.4725(5)
N3 N 0.0007(6) 0.4712(2) -0.1002(6)
C1 C -0.0430(4) 0.2109(2) -0.2360(5)
C2 C -0.1530(4) 0.2084(4) -0.1669(6)
H11 H -0.1685 0.2513 -0.1291
H12 H -0.1383 0.1791 -0.0769
C3 C -0.2882(6) 0.1238(3) -0.3050(9)
H13 H -0.2511 0.0880 -0.2488
C4 C -0.3820(6) 0.1232(3) -0.4264(9)
H14 H -0.4239 0.0865 -0.4716
C5 C -0.3290(4) 0.2214(3) -0.3811(6)
H15 H -0.3261 0.2665 -0.3882
C6 C -0.5063(4) 0.2066(4) -0.5923(6)
H16 H -0.4863 0.2481 -0.6337
H17 H -0.5209 0.1755 -0.6788
C7 C -0.6178(4) 0.2136(2) -0.5290(5)
C8 C 0.0651(5) 0.3699(2) -0.2016(5)
C9 C 0.0126(8) 0.4362(4) -0.2301(10)
H18 H -0.0671 0.4323 -0.2992
H19 H 0.0629 0.4610 -0.2868
C10 C 0.101(2) 0.5112(11) -0.089(3)
C11 C -0.111(2) 0.4565(11) -0.042(3)
La1C La 0.167989(19) 0.237825(11) 0.61443(2)
La1C_2 La 0.167989(19) 0.237825(11) -0.38557(2)
La1C_3 La -0.832011(19) 0.237825(11) -0.38557(2)
La1_2 La -0.832011(19) 0.262175(11) -0.88557(2)
La1B La -0.167989(19) 0.737825(11) -0.11443(2)
La1A La -0.167989(19) 0.762175(11) 0.38557(2)
La1_3 La -0.832011(19) 0.262175(11) 0.11443(2)
O7C O 0.0553(3) 0.28099(16) 0.3587(3)
O7_2 O 0.0553(3) 0.21901(16) 0.8587(3)
O8C O -0.0522(3) 0.2931(2) 0.1222(4)
O8_2 O -0.0522(3) 0.2069(2) 0.6222(4)
O9C O -0.6172(3) 0.3003(2) 0.1076(4)
O9C_2 O 0.3828(3) 0.3003(2) 0.1076(4)
O9_2 O 0.3828(3) 0.1997(2) 0.6076(4)
O10C O -0.7091(3) 0.26548(17) -0.1211(4)
O10_2 O 0.2909(3) 0.23452(17) 0.3789(4)
O10C_2 O 0.2909(3) 0.26548(17) -0.1211(4)
O10C_3 O 0.2909(3) 0.26548(17) 0.8789(4)
O11B O -0.1042(4) 0.64581(17) 0.0667(4)
O11C O 0.1042(4) 0.14581(17) 0.4333(4)
O12B O -0.0681(4) 0.66066(18) 0.3224(4)
O12C O 0.0681(4) 0.16066(18) 0.1776(4)
O12_2 O 0.0681(4) 0.33934(18) 0.6776(4)
O13C O 0.2919(4) 0.3380(2) 0.5854(4)
H7C H 0.324(6) 0.345(3) 0.511(6)
H8C H 0.284(7) 0.371(2) 0.635(7)
O14C O 0.2121(5) 0.13012(19) 0.7526(5)
H9C H 0.242(6) 0.102(3) 0.705(8)
H10C H 0.149(4) 0.118(3) 0.776(9)
N1C N -0.2571(3) 0.3130(3) 0.2210(5)
N2C N -0.4059(4) 0.3151(3) 0.0275(5)
N3B N -0.0007(6) 0.5288(2) 0.1002(6)
C1C C -0.0430(4) 0.2891(2) 0.2640(5)
C2C C -0.1530(4) 0.2916(4) 0.3331(6)
H11C H -0.1685 0.2487 0.3709
H12C H -0.1383 0.3209 0.4231
C3C C -0.2882(6) 0.3762(3) 0.1950(9)
H13C H -0.2511 0.4120 0.2512
C4C C -0.3820(6) 0.3768(3) 0.0736(9)
H14C H -0.4239 0.4135 0.0284
C5C C -0.3290(4) 0.2786(3) 0.1189(6)
H15C H -0.3261 0.2335 0.1118
C6C C -0.5063(4) 0.2934(4) -0.0923(6)
H16C H -0.4863 0.2519 -0.1337
H17C H -0.5209 0.3245 -0.1788
C7C C -0.6178(4) 0.2864(2) -0.0290(5)
C8B C -0.0651(5) 0.6301(2) 0.2016(5)
C9B C -0.0126(8) 0.5638(4) 0.2301(10)
H18B H 0.0671 0.5677 0.2992
H19B H -0.0629 0.5390 0.2868
C10B C -0.101(2) 0.4888(11) 0.089(3)
C11B C 0.111(2) 0.5435(11) 0.042(3)
O1 O 0.2971(6) 0.6189(3) 0.3270(11)
H1 H 0.332(9) 0.617(7) 0.254(9)
H2 H 0.344(8) 0.633(6) 0.407(8)
loop_
_geom_bond_atom_site_label_1
_geom_bond_atom_site_label_2
_geom_bond_site_symmetry_1
_geom_bond_site_symmetry_2
O1 H1 1_555 1_555
H2 O1 1_555 1_555
O2 H3 1_555 1_555
H4 O2 1_555 1_555
O3 H5 1_555 1_555
O4 H6 1_555 1_555
La1 O7 1_555 1_555
O7 C1 1_555 1_555
O8 C1 1_555 1_555
O9 C7 1_555 1_555
O10 C7 1_555 1_555
O11 La1 1_555 1_555
O12 C8 1_555 1_555
O13 La1 1_555 1_555
H7 O13 1_555 1_555
H8 O13 1_555 1_555
O14 La1 1_555 1_555
H9 O14 1_555 1_555
H10 O14 1_555 1_555
N1 C2 1_555 1_555
N2 C4 1_555 1_555
N3 C9 1_555 1_555
C1 C2 1_555 1_555
C2 H11 1_555 1_555
H12 C2 1_555 1_555
C3 N1 1_555 1_555
H13 C3 1_555 1_555
C4 C3 1_555 1_555
H14 C4 1_555 1_555
C5 N1 1_555 1_555
H15 C5 1_555 1_555
C6 N2 1_555 1_555
H16 C6 1_555 1_555
H17 C6 1_555 1_555
C7 C6 1_555 1_555
C8 O11 1_555 1_555
C9 C8 1_555 1_555
H18 C9 1_555 1_555
H19 C9 1_555 1_555
C10 N3 1_555 1_555
C11 N3 1_555 1_555
La1C O7C 1_555 1_555
La1C_2 O7 1_555 1_555
La1C_3 O9 1_555 1_555
La1_2 O10 1_555 1_555
La1B O11B 1_555 1_555
La1A O12B 1_555 1_555
La1_3 O9C 1_555 1_555
O7C La1 1_555 1_555
O7_2 La1C 1_555 1_555
O8C La1 1_555 1_555
O8_2 La1C 1_555 1_555
O9C C7C 1_555 1_555
O9C_2 La1 1_555 1_555
O9_2 La1C 1_555 1_555
O10C La1C_3 1_555 1_555
O10_2 La1 1_555 1_555
O10C_2 La1 1_555 1_555
O10C_3 La1C 1_555 1_555
O11B C8B 1_555 1_555
O11C La1C 1_555 1_555
O12B C8B 1_555 1_555
O12C La1 1_555 1_555
O12_2 La1C 1_555 1_555
O13C La1C 1_555 1_555
H7C O13C 1_555 1_555
H8C O13C 1_555 1_555
O14C La1C 1_555 1_555
H9C O14C 1_555 1_555
H10C O14C 1_555 1_555
N1C C2C 1_555 1_555
N2C C4C 1_555 1_555
N3B C9B 1_555 1_555
C1C O7C 1_555 1_555
C2C C1C 1_555 1_555
H11C C2C 1_555 1_555
H12C C2C 1_555 1_555
C3C N1C 1_555 1_555
H13C C3C 1_555 1_555
C4C C3C 1_555 1_555
H14C C4C 1_555 1_555
C5C N1C 1_555 1_555
H15C C5C 1_555 1_555
C6C N2C 1_555 1_555
H16C C6C 1_555 1_555
H17C C6C 1_555 1_555
C7C O10C 1_555 1_555
C8B C9B 1_555 1_555
C9B H18B 1_555 1_555
H19B C9B 1_555 1_555
C10B C11 1_555 1_555
C11B C10 1_555 1_555
O8 La1C_2 1_555 1_555
O10 La1C_3 1_555 1_555
O12 La1C_2 1_555 1_555
N2 C5 1_555 1_555
La1C O10_2 1_555 1_555
La1C_2 O10C_2 1_555 1_555
La1_3 O10C 1_555 1_555
O8C C1C 1_555 1_555
N2C C5C 1_555 1_555
N3B C10B 1_555 1_555
N3B C11B 1_555 1_555
C6C C7C 1_555 1_555

#END
