
#######################################################################
#
#                 Cambridge Crystallographic Data Centre
#                                CCDC 
#
#######################################################################
#
# If this CIF has been generated from an entry in the Cambridge 
# Structural Database, then it will include bibliographic, chemical, 
# crystal, experimental, refinement or atomic coordinate data resulting 
# from the CCDC's data processing and validation procedures.
#
#######################################################################

data_HAHPOW
_chemical_formula_moiety         '(C42 H30 Ag4 B1 F3 N9 1+)n'
_symmetry_cell_setting           hexagonal
_symmetry_space_group_name_H-M   'P 63 2 2'
_symmetry_Int_Tables_number      182
_space_group_name_Hall           'P 6c 2c'
loop_
_symmetry_equiv_pos_site_id
_symmetry_equiv_pos_as_xyz
1 x,y,z
2 -y,x-y,z
3 -x+y,-x,z
4 -x,-y,1/2+z
5 y,-x+y,1/2+z
6 x-y,x,1/2+z
7 y,x,-z
8 x-y,-y,-z
9 -x,-x+y,-z
10 -y,-x,1/2-z
11 -x+y,y,1/2-z
12 x,x-y,1/2-z
_cell_length_a                   21.599(3)
_cell_length_b                   21.599(3)
_cell_length_c                   12.196(2)
_cell_angle_alpha                90
_cell_angle_beta                 90
_cell_angle_gamma                120
_cell_volume                     4927.37
loop_
_atom_site_label
_atom_site_type_symbol
_atom_site_fract_x
_atom_site_fract_y
_atom_site_fract_z
B1 B 0.3333 -0.3333 -0.7500
F2 F 0.3696(7) -0.2608(13) -0.7500
F2A F 0.2608(13) -0.3696(15) -0.7500
F2B F 0.3696(15) -0.3696(7) -0.7500
Ag1 Ag 0.3333 -0.3333 -0.39870(9)
Ag2 Ag 0.25981(2) -0.48038(4) -0.2500
Ag3 Ag 0.5012 -0.49878(8) 0.0000
C1 C 0.1176(5) -0.5008(5) -0.3656(8)
C2 C 0.1580(5) -0.3973(5) -0.4321(8)
C3 C 0.0703(5) -0.5745(6) -0.3333(9)
C4 C 0.0013(6) -0.5973(6) -0.2908(10)
H1 H -0.0155 -0.5652 -0.2873
C5 C -0.0410(6) -0.6657(6) -0.2548(17)
H2 H -0.0853 -0.6793 -0.2238
C6 C -0.0189(8) -0.7125(7) -0.2641(16)
H3 H -0.0511 -0.7600 -0.2478
C7 C 0.0474(10) -0.6954(8) -0.2958(14)
H4 H 0.0636 -0.7279 -0.2917
C8 C 0.0919(7) -0.6239(6) -0.3364(11)
H5 H 0.1365 -0.6110 -0.3655
C9 C 0.1627(5) -0.3326(6) -0.4835(8)
C10 C 0.1087(6) -0.3152(7) -0.4596(9)
H6 H 0.0692 -0.3464 -0.4181
C11 C 0.1147(9) -0.2524(8) -0.4978(12)
H7 H 0.0806 -0.2397 -0.4804
C12 C 0.1774(10) -0.2055(8) -0.5679(11)
H8 H 0.1825 -0.1632 -0.5961
C13 C 0.2256(10) -0.2242(9) -0.5897(9)
H9 H 0.2643 -0.1947 -0.6342
C14 C 0.2204(6) -0.2867(6) -0.5483(9)
H10 H 0.2559 -0.2978 -0.5642
N1 N 0.2140(3) -0.3973(6) -0.3927(5)
N2 N 0.1878(4) -0.4659(4) -0.3499(7)
N3 N 0.0972(3) -0.4566(5) -0.4171(5)
C1J C 0.3816(7) -0.5008(5) -0.1344(8)
C2J C 0.4447(7) -0.3973(5) -0.0679(8)
C3J C 0.3552(8) -0.5745(6) -0.1667(9)
C4J C 0.4014(8) -0.5973(6) -0.2092(10)
H1J H 0.4503 -0.5652 -0.2127
C5J C 0.3753(8) -0.6657(6) -0.2452(17)
H2J H 0.4060 -0.6793 -0.2762
C6J C 0.3064(11) -0.7125(7) -0.2359(16)
H3J H 0.2911 -0.7600 -0.2522
C7J C 0.2572(13) -0.6954(8) -0.2042(14)
H4J H 0.2085 -0.7279 -0.2083
C8J C 0.2842(9) -0.6239(6) -0.1636(11)
H5J H 0.2525 -0.6110 -0.1345
C9J C 0.5047(8) -0.3326(6) -0.0165(8)
C10J C 0.5761(9) -0.3152(7) -0.0404(9)
H6J H 0.5844 -0.3464 -0.0819
C11J C 0.6329(12) -0.2524(8) -0.0022(12)
H7J H 0.6797 -0.2397 -0.0196
C12J C 0.6171(13) -0.2055(8) 0.0679(11)
H8J H 0.6543 -0.1632 0.0961
C13J C 0.5502(13) -0.2242(9) 0.0897(9)
H9J H 0.5410 -0.1947 0.1342
C14J C 0.4929(8) -0.2867(6) 0.0483(9)
H10J H 0.4463 -0.2978 0.0642
N1J N 0.3887(7) -0.3973(6) -0.1073(5)
N2J N 0.3463(6) -0.4659(4) -0.1501(7)
N3J N 0.4462(6) -0.4566(5) -0.0829(5)
Ag3E Ag -0.00002(8) -0.4988 -0.5000
Ag1I Ag 0.3333 -0.3333 -0.10130(9)
C1A C 0.5008(5) -0.3816(7) -0.3656(8)
C2A C 0.3973(5) -0.4447(7) -0.4321(8)
C3A C 0.5745(6) -0.3552(8) -0.3333(9)
C4A C 0.5973(6) -0.4014(8) -0.2908(10)
H1A H 0.5652 -0.4503 -0.2873
C5A C 0.6657(6) -0.3753(8) -0.2548(17)
H2A H 0.6793 -0.4060 -0.2238
C6A C 0.7125(7) -0.3064(11) -0.2641(16)
H3A H 0.7600 -0.2911 -0.2478
C7A C 0.6954(8) -0.2572(13) -0.2958(14)
H4A H 0.7279 -0.2085 -0.2917
C8A C 0.6239(6) -0.2842(9) -0.3364(11)
H5A H 0.6110 -0.2525 -0.3655
C9A C 0.3326(6) -0.5047(8) -0.4835(8)
C10A C 0.3152(7) -0.5761(9) -0.4596(9)
H6A H 0.3464 -0.5844 -0.4181
C11A C 0.2524(8) -0.6329(12) -0.4978(12)
H7A H 0.2397 -0.6797 -0.4804
C12A C 0.2055(8) -0.6171(13) -0.5679(11)
H8A H 0.1632 -0.6543 -0.5961
C13A C 0.2242(9) -0.5502(13) -0.5897(9)
H9A H 0.1947 -0.5410 -0.6342
C14A C 0.2867(6) -0.4929(8) -0.5483(9)
H10A H 0.2978 -0.4463 -0.5642
N1A N 0.3973(6) -0.3887(7) -0.3927(5)
N2A N 0.4659(4) -0.3463(6) -0.3499(7)
N3A N 0.4566(5) -0.4462(6) -0.4171(5)
N1B N 0.3887(7) -0.2140(3) -0.3927(5)
N3D N 0.5434(5) -0.5538(6) 0.0829(5)
Ag2A Ag 0.48038(4) -0.25981(4) -0.2500
Ag3C Ag 0.4988 -0.50122(8) -0.5000
N1I N 0.3973(6) -0.2140(3) -0.1073(5)
N1K N 0.2140(3) -0.3887(7) -0.1073(5)
loop_
_geom_bond_atom_site_label_1
_geom_bond_atom_site_label_2
_geom_bond_site_symmetry_1
_geom_bond_site_symmetry_2
Ag1 N1 1_555 1_555
Ag2 N2 1_555 1_555
Ag3 N3J 1_555 1_555
B1 F2 1_555 1_555
C1 C3 1_555 1_555
C2 C9 1_555 1_555
C3 C4 1_555 1_555
C4 H1 1_555 1_555
C5 C4 1_555 1_555
H2 C5 1_555 1_555
C6 C5 1_555 1_555
H3 C6 1_555 1_555
C7 C6 1_555 1_555
H4 C7 1_555 1_555
C8 C3 1_555 1_555
H5 C8 1_555 1_555
C9 C10 1_555 1_555
C10 H6 1_555 1_555
C11 C10 1_555 1_555
H7 C11 1_555 1_555
C12 C11 1_555 1_555
H8 C12 1_555 1_555
C13 C12 1_555 1_555
H9 C13 1_555 1_555
C14 C9 1_555 1_555
H10 C14 1_555 1_555
N1 C2 1_555 1_555
N2 C1 1_555 1_555
N3 C1 1_555 1_555
F2A B1 1_555 1_555
F2B B1 1_555 1_555
C1J C3J 1_555 1_555
C2J C9J 1_555 1_555
C3J C4J 1_555 1_555
C4J H1J 1_555 1_555
C5J C4J 1_555 1_555
H2J C5J 1_555 1_555
C6J C5J 1_555 1_555
H3J C6J 1_555 1_555
C7J C6J 1_555 1_555
H4J C7J 1_555 1_555
C8J C3J 1_555 1_555
H5J C8J 1_555 1_555
C9J C10J 1_555 1_555
C10J H6J 1_555 1_555
C11J C10J 1_555 1_555
H7J C11J 1_555 1_555
C12J C11J 1_555 1_555
H8J C12J 1_555 1_555
C13J C12J 1_555 1_555
H9J C13J 1_555 1_555
C14J C9J 1_555 1_555
H10J C14J 1_555 1_555
N1J C2J 1_555 1_555
N2J Ag2 1_555 1_555
N3J C1J 1_555 1_555
Ag3E N3 1_555 1_555
Ag1I N1J 1_555 1_555
C1A C3A 1_555 1_555
C2A C9A 1_555 1_555
C3A C4A 1_555 1_555
C4A H1A 1_555 1_555
C5A C4A 1_555 1_555
H2A C5A 1_555 1_555
C6A C5A 1_555 1_555
H3A C6A 1_555 1_555
C7A C6A 1_555 1_555
H4A C7A 1_555 1_555
C8A C3A 1_555 1_555
H5A C8A 1_555 1_555
C9A C10A 1_555 1_555
C10A H6A 1_555 1_555
C11A C10A 1_555 1_555
H7A C11A 1_555 1_555
C12A C11A 1_555 1_555
H8A C12A 1_555 1_555
C13A C12A 1_555 1_555
H9A C13A 1_555 1_555
C14A C9A 1_555 1_555
H10A C14A 1_555 1_555
N1A Ag1 1_555 1_555
N2A C1A 1_555 1_555
N3A C1A 1_555 1_555
N1B Ag1 1_555 1_555
N3D Ag3 1_555 1_555
Ag2A N2A 1_555 1_555
Ag3C N3A 1_555 1_555
N1I Ag1I 1_555 1_555
N1K Ag1I 1_555 1_555
C2 N3 1_555 1_555
C7 C8 1_555 1_555
C13 C14 1_555 1_555
N1 N2 1_555 1_555
C1J N2J 1_555 1_555
C2J N3J 1_555 1_555
C7J C8J 1_555 1_555
C13J C14J 1_555 1_555
N1J N2J 1_555 1_555
C2A N1A 1_555 1_555
C2A N3A 1_555 1_555
C7A C8A 1_555 1_555
C13A C14A 1_555 1_555
N1A N2A 1_555 1_555

#END
