
#######################################################################
#
#                 Cambridge Crystallographic Data Centre
#                                CCDC 
#
#######################################################################
#
# If this CIF has been generated from an entry in the Cambridge 
# Structural Database, then it will include bibliographic, chemical, 
# crystal, experimental, refinement or atomic coordinate data resulting 
# from the CCDC's data processing and validation procedures.
#
#######################################################################

data_ACOGEF
_chemical_formula_moiety         '(C34 H42 Cd1 I2 N12 O5 S1)n'
_symmetry_cell_setting           monoclinic
_symmetry_space_group_name_H-M   'C 2/c'
_symmetry_Int_Tables_number      15
_space_group_name_Hall           '-C 2yc'
loop_
_symmetry_equiv_pos_site_id
_symmetry_equiv_pos_as_xyz
1 x,y,z
2 1/2+x,1/2+y,z
3 -x,y,1/2-z
4 1/2-x,1/2+y,1/2-z
5 -x,-y,-z
6 1/2-x,1/2-y,-z
7 x,-y,1/2+z
8 1/2+x,1/2-y,1/2+z
_cell_length_a                   33.074(3)
_cell_length_b                   9.8463(7)
_cell_length_c                   16.8512(12)
_cell_angle_alpha                90
_cell_angle_beta                 101.712(2)
_cell_angle_gamma                90
_cell_volume                     5373.45
loop_
_atom_site_label
_atom_site_type_symbol
_atom_site_fract_x
_atom_site_fract_y
_atom_site_fract_z
_atom_site_U_iso_or_equiv
_atom_site_thermal_displace_type
Cd1 Cd 1.0000 0.0000 0.5000 0.0383 Uani
I1 I 1.046806(11) 0.25904(3) 0.46969(2) 0.0493 Uani
O1 O 0.82753(12) -0.0660(4) 0.1408(2) 0.0537 Uani
O2 O 0.80437(11) 0.6678(4) -0.0422(2) 0.0544 Uani
N1 N 0.81837(11) 0.0942(4) 0.0432(2) 0.0371 Uani
N2 N 0.79596(12) 0.4635(4) 0.0122(2) 0.0388 Uani
N3 N 0.87610(12) 0.0993(5) 0.1475(3) 0.0471 Uani
H1 H 0.8831 0.1693 0.1230 0.0560 Uiso
N4 N 0.95874(14) 0.0047(5) 0.3638(3) 0.0536 Uani
N5 N 0.85691(12) 0.5846(4) 0.0550(3) 0.0412 Uani
H2 H 0.8634 0.5234 0.0918 0.0490 Uiso
N6 N 0.94948(11) 0.8678(4) 0.0391(3) 0.0442 Uani
C1 C 0.82615(14) 0.2309(5) 0.0151(3) 0.0374 Uani
H3 H 0.8131 0.2391 -0.0416 0.0450 Uiso
H4 H 0.8556 0.2424 0.0194 0.0450 Uiso
C2 C 0.81014(14) 0.3454(5) 0.0630(3) 0.0389 Uani
H5 H 0.7875 0.3111 0.0859 0.0460 Uiso
H6 H 0.8321 0.3732 0.1074 0.0460 Uiso
C3 C 0.78022(14) 0.0271(5) 0.0029(3) 0.0410 Uani
H7 H 0.7850 -0.0701 0.0023 0.0490 Uiso
H8 H 0.7731 0.0578 -0.0529 0.0490 Uiso
C4 C 0.75599(13) 0.4455(5) -0.0436(3) 0.0383 Uani
H9 H 0.7545 0.5067 -0.0892 0.0460 Uiso
H10 H 0.7541 0.3533 -0.0643 0.0460 Uiso
C5 C 0.83958(14) 0.0357(5) 0.1123(3) 0.0393 Uani
C6 C 0.9268(3) -0.0709(8) 0.3351(6) 0.1258 Uani
H11 H 0.9230 -0.1475 0.3650 0.1510 Uiso
C7 C 0.8983(3) -0.0486(8) 0.2652(5) 0.1073 Uani
H12 H 0.8763 -0.1081 0.2497 0.1290 Uiso
C8 C 0.90248(15) 0.0605(6) 0.2188(3) 0.0441 Uani
C9 C 0.9365(2) 0.1342(12) 0.2446(5) 0.1225 Uani
H13 H 0.9421 0.2088 0.2148 0.1470 Uiso
C10 C 0.9636(2) 0.0995(13) 0.3162(5) 0.1227 Uani
H14 H 0.9876 0.1510 0.3303 0.1470 Uiso
C11 C 0.81802(13) 0.5781(4) 0.0053(3) 0.0356 Uani
C12 C 0.91014(16) 0.8939(5) 0.0059(4) 0.0555 Uani
H15 H 0.9041 0.9759 -0.0213 0.0660 Uiso
C13 C 0.87771(15) 0.8065(5) 0.0094(4) 0.0495 Uani
H16 H 0.8508 0.8299 -0.0146 0.0590 Uiso
C14 C 0.88623(13) 0.6836(5) 0.0492(3) 0.0361 Uani
C15 C 0.92703(15) 0.6567(6) 0.0853(3) 0.0498 Uani
H17 H 0.9340 0.5765 0.1140 0.0600 Uiso
C16 C 0.95670(16) 0.7493(5) 0.0782(4) 0.0513 Uani
H18 H 0.9839 0.7286 0.1021 0.0620 Uiso
O1E O 0.67247(12) 0.5660(4) -0.1408(2) 0.0537 Uani
O2E O 0.69563(11) -0.1678(4) 0.0422(2) 0.0544 Uani
N1E N 0.68163(11) 0.4058(4) -0.0432(2) 0.0371 Uani
N2E N 0.70404(12) 0.0365(4) -0.0122(2) 0.0388 Uani
N3E N 0.62390(12) 0.4007(5) -0.1475(3) 0.0471 Uani
H1E H 0.6169 0.3307 -0.1230 0.0560 Uiso
N4E N 0.54126(14) 0.4953(5) -0.3638(3) 0.0536 Uani
N5E N 0.64309(12) -0.0846(4) -0.0550(3) 0.0412 Uani
H2E H 0.6366 -0.0234 -0.0918 0.0490 Uiso
N6E N 0.55052(11) -0.3678(4) -0.0391(3) 0.0442 Uani
C1E C 0.67385(14) 0.2691(5) -0.0151(3) 0.0374 Uani
H3E H 0.6869 0.2609 0.0416 0.0450 Uiso
H4E H 0.6444 0.2576 -0.0194 0.0450 Uiso
C2E C 0.68986(14) 0.1546(5) -0.0630(3) 0.0389 Uani
H5E H 0.7125 0.1889 -0.0859 0.0460 Uiso
H6E H 0.6679 0.1268 -0.1074 0.0460 Uiso
C3E C 0.71978(14) 0.4729(5) -0.0029(3) 0.0410 Uani
H7E H 0.7150 0.5701 -0.0023 0.0490 Uiso
H8E H 0.7269 0.4422 0.0529 0.0490 Uiso
C4E C 0.74401(13) 0.0545(5) 0.0436(3) 0.0383 Uani
H9E H 0.7455 -0.0067 0.0892 0.0460 Uiso
H10E H 0.7459 0.1467 0.0643 0.0460 Uiso
C5E C 0.66042(14) 0.4643(5) -0.1123(3) 0.0393 Uani
C6E C 0.5732(3) 0.5709(8) -0.3351(6) 0.1258 Uani
H11E H 0.5770 0.6475 -0.3650 0.1510 Uiso
C7E C 0.6017(3) 0.5486(8) -0.2652(5) 0.1073 Uani
H12E H 0.6237 0.6081 -0.2497 0.1290 Uiso
C8E C 0.59752(15) 0.4395(6) -0.2188(3) 0.0441 Uani
C9E C 0.5635(2) 0.3658(12) -0.2446(5) 0.1225 Uani
H13E H 0.5579 0.2912 -0.2148 0.1470 Uiso
C10E C 0.5364(2) 0.4005(13) -0.3162(5) 0.1227 Uani
H14E H 0.5124 0.3490 -0.3303 0.1470 Uiso
C11E C 0.68198(13) -0.0781(4) -0.0053(3) 0.0356 Uani
C12E C 0.58986(16) -0.3939(5) -0.0059(4) 0.0555 Uani
H15E H 0.5959 -0.4759 0.0213 0.0660 Uiso
C13E C 0.62229(15) -0.3065(5) -0.0094(4) 0.0495 Uani
H16E H 0.6492 -0.3299 0.0146 0.0590 Uiso
C14E C 0.61377(13) -0.1836(5) -0.0492(3) 0.0361 Uani
C15E C 0.57297(15) -0.1567(6) -0.0853(3) 0.0498 Uani
H17E H 0.5660 -0.0765 -0.1140 0.0600 Uiso
C16E C 0.54330(16) -0.2493(5) -0.0782(4) 0.0513 Uani
H18E H 0.5161 -0.2286 -0.1021 0.0620 Uiso
I1D I 0.953194(11) -0.25904(3) 0.53031(2) 0.0493 Uani
Cd1A Cd 0.5000 0.5000 -0.5000 0.0383 Uani
Cd1B Cd 1.0000 1.0000 0.0000 0.0383 Uani
Cd1C Cd 0.5000 -0.5000 0.0000 0.0383 Uani
N4D N 1.04126(14) -0.0047(5) 0.6362(3) 0.0536 Uani
N6B N 1.05052(11) -0.1322(4) 0.4609(3) 0.0442 Uani
N6F N 0.94948(11) 0.1322(4) 0.5391(3) 0.0442 Uani
S1 S 0.25193(7) 0.79459(19) 0.26701(10) 0.0736 Uani
O3 O 0.2302(2) 0.7907(8) 0.1811(3) 0.1092 Uani
C17 C 0.2967(3) 0.6946(12) 0.2735(5) 0.1011 Uani
H19 H 0.2889 0.6018 0.2615 0.1520 Uiso
H20 H 0.3131 0.7005 0.3273 0.1520 Uiso
H21 H 0.3124 0.7271 0.2353 0.1520 Uiso
C18 C 0.2264(2) 0.6846(7) 0.3215(5) 0.0767 Uani
H22 H 0.2004 0.7236 0.3263 0.1150 Uiso
H23 H 0.2430 0.6704 0.3746 0.1150 Uiso
H24 H 0.2217 0.5992 0.2936 0.1150 Uiso
loop_
_atom_site_aniso_label
_atom_site_aniso_U_11
_atom_site_aniso_U_22
_atom_site_aniso_U_33
_atom_site_aniso_U_23
_atom_site_aniso_U_13
_atom_site_aniso_U_12
Cd1 0.0278(2) 0.0496(3) 0.0334(2) -0.00622(19) -0.00323(16) 0.01863(18)
I1 0.0450(2) 0.0478(2) 0.0541(2) -0.00294(14) 0.00802(16) 0.00365(13)
O1 0.044(2) 0.047(2) 0.063(2) 0.0193(17) -0.0056(17) -0.0102(16)
O2 0.0419(19) 0.0431(19) 0.068(2) 0.0207(17) -0.0129(17) -0.0139(15)
N1 0.0288(18) 0.0385(19) 0.039(2) 0.0053(16) -0.0048(15) -0.0033(15)
N2 0.0297(18) 0.0368(19) 0.044(2) 0.0086(16) -0.0064(15) -0.0125(15)
N3 0.034(2) 0.052(2) 0.047(2) 0.0133(19) -0.0115(17) -0.0085(18)
N4 0.039(2) 0.071(3) 0.043(2) 0.005(2) -0.0101(18) 0.007(2)
N5 0.0331(19) 0.039(2) 0.047(2) 0.0091(17) -0.0022(16) -0.0131(16)
N6 0.0293(19) 0.041(2) 0.061(3) 0.0068(18) 0.0062(18) -0.0143(16)
C1 0.027(2) 0.044(2) 0.038(2) 0.0125(19) -0.0008(17) -0.0047(17)
C2 0.038(2) 0.038(2) 0.036(2) 0.0073(18) -0.0036(18) -0.0148(18)
C3 0.034(2) 0.040(2) 0.043(2) -0.0011(19) -0.0065(19) -0.0040(19)
C4 0.031 0.04 0.039 0.0051 -0.0045 -0.0114
C5 0.030(2) 0.042(2) 0.042(2) 0.0055(19) -0.0020(18) -0.0024(18)
C6 0.148(9) 0.069(5) 0.112(7) 0.039(5) -0.088(7) -0.035(5)
C7 0.119(7) 0.077(5) 0.087(5) 0.038(4) -0.071(5) -0.043(5)
C8 0.034(2) 0.058(3) 0.035(2) 0.004(2) -0.0055(18) 0.000(2)
C9 0.077(5) 0.199(11) 0.068(4) 0.070(6) -0.041(4) -0.084(6)
C10 0.059(4) 0.226(12) 0.065(4) 0.064(6) -0.030(4) -0.070(6)
C11 0.029(2) 0.033(2) 0.042(2) 0.0028(18) 0.0007(17) -0.0100(16)
C12 0.040(3) 0.035(2) 0.090(4) 0.009(3) 0.010(3) -0.007(2)
C13 0.028(2) 0.037(2) 0.081(4) 0.006(2) 0.005(2) -0.0066(19)
C14 0.031(2) 0.035(2) 0.042(2) -0.0044(18) 0.0066(17) -0.0095(17)
C15 0.033(2) 0.052(3) 0.060(3) 0.016(2) -0.001(2) -0.011(2)
C16 0.031(2) 0.057(3) 0.062(3) 0.017(2) 0.000(2) -0.012(2)
O1E 0.044 0.047 0.063 0.0193 -0.0056 -0.0102
O2E 0.0419 0.0431 0.068 0.0207 -0.0129 -0.0139
N1E 0.0288 0.0385 0.039 0.0053 -0.0048 -0.0033
N2E 0.0297 0.0368 0.044 0.0086 -0.0064 -0.0125
N3E 0.034 0.052 0.047 0.0133 -0.0115 -0.0085
N4E 0.039 0.071 0.043 0.005 -0.0101 0.007
N5E 0.0331 0.039 0.047 0.0091 -0.0022 -0.0131
N6E 0.0293 0.041 0.061 0.0068 0.0062 -0.0143
C1E 0.027 0.044 0.038 0.0125 -0.0008 -0.0047
C2E 0.038 0.038 0.036 0.0073 -0.0036 -0.0148
C3E 0.034 0.04 0.043 -0.0011 -0.0065 -0.004
C4E 0.031(2) 0.040(2) 0.039(2) 0.0051(18) -0.0045(18) -0.0114(18)
C5E 0.03 0.042 0.042 0.0055 -0.002 -0.0024
C6E 0.148 0.069 0.112 0.039 -0.088 -0.035
C7E 0.119 0.077 0.087 0.038 -0.071 -0.043
C8E 0.034 0.058 0.035 0.004 -0.0055 0
C9E 0.077 0.199 0.068 0.07 -0.041 -0.084
C10E 0.059 0.226 0.065 0.064 -0.03 -0.07
C11E 0.029 0.033 0.042 0.0028 0.0007 -0.01
C12E 0.04 0.035 0.09 0.009 0.01 -0.007
C13E 0.028 0.037 0.081 0.006 0.005 -0.0066
C14E 0.031 0.035 0.042 -0.0044 0.0066 -0.0095
C15E 0.033 0.052 0.06 0.016 -0.001 -0.011
C16E 0.031 0.057 0.062 0.017 0 -0.012
I1D 0.045 0.0478 0.0541 -0.00294 0.00802 0.00365
Cd1A 0.0278 0.0496 0.0334 -0.00622 -0.00323 0.01863
Cd1B 0.0278 0.0496 0.0334 0.00622 -0.00323 -0.01863
Cd1C 0.0278 0.0496 0.0334 0.00622 -0.00323 -0.01863
N4D 0.039 0.071 0.043 0.005 -0.0101 0.007
N6B 0.0293 0.041 0.061 -0.0068 0.0062 0.0143
N6F 0.0293 0.041 0.061 -0.0068 0.0062 0.0143
S1 0.1076(14) 0.0641(9) 0.0475(8) 0.0012(7) 0.0120(8) 0.0086(10)
O3 0.132(6) 0.141(5) 0.048(3) 0.004(3) 0.003(3) 0.029(4)
C17 0.097(6) 0.135(8) 0.070(5) -0.013(5) 0.014(4) 0.015(6)
C18 0.083(5) 0.060(4) 0.087(5) 0.003(4) 0.017(4) 0.006(4)
loop_
_geom_bond_atom_site_label_1
_geom_bond_atom_site_label_2
_geom_bond_site_symmetry_1
_geom_bond_site_symmetry_2
Cd1 I1 1_555 1_555
O1 C5 1_555 1_555
O2 C11 1_555 1_555
N1 C1 1_555 1_555
N2 C2 1_555 1_555
N3 H1 1_555 1_555
N4 Cd1 1_555 1_555
N5 H2 1_555 1_555
N6 C12 1_555 1_555
C1 H3 1_555 1_555
H4 C1 1_555 1_555
C2 C1 1_555 1_555
H5 C2 1_555 1_555
H6 C2 1_555 1_555
C3 N1 1_555 1_555
H7 C3 1_555 1_555
H8 C3 1_555 1_555
C4 N2 1_555 1_555
H9 C4 1_555 1_555
H10 C4 1_555 1_555
C5 N1 1_555 1_555
C6 N4 1_555 1_555
H11 C6 1_555 1_555
C7 C6 1_555 1_555
H12 C7 1_555 1_555
C8 N3 1_555 1_555
C9 C8 1_555 1_555
H13 C9 1_555 1_555
C10 N4 1_555 1_555
H14 C10 1_555 1_555
C11 N2 1_555 1_555
C12 H15 1_555 1_555
C13 C12 1_555 1_555
H16 C13 1_555 1_555
C14 N5 1_555 1_555
C15 C14 1_555 1_555
H17 C15 1_555 1_555
C16 N6 1_555 1_555
H18 C16 1_555 1_555
S1 O3 1_555 1_555
C17 S1 1_555 1_555
H19 C17 1_555 1_555
H20 C17 1_555 1_555
H21 C17 1_555 1_555
C18 S1 1_555 1_555
H22 C18 1_555 1_555
H23 C18 1_555 1_555
H24 C18 1_555 1_555
O1E C5E 1_555 1_555
O2E C11E 1_555 1_555
N1E C1E 1_555 1_555
N2E C2E 1_555 1_555
N3E H1E 1_555 1_555
N4E C6E 1_555 1_555
N5E H2E 1_555 1_555
N6E C12E 1_555 1_555
C1E H3E 1_555 1_555
H4E C1E 1_555 1_555
C2E C1E 1_555 1_555
H5E C2E 1_555 1_555
H6E C2E 1_555 1_555
C3E C4 1_555 1_555
H7E C3E 1_555 1_555
H8E C3E 1_555 1_555
C4E C3 1_555 1_555
H9E C4E 1_555 1_555
H10E C4E 1_555 1_555
C5E N1E 1_555 1_555
C6E H11E 1_555 1_555
C7E C6E 1_555 1_555
H12E C7E 1_555 1_555
C8E N3E 1_555 1_555
C9E C8E 1_555 1_555
H13E C9E 1_555 1_555
C10E N4E 1_555 1_555
H14E C10E 1_555 1_555
C11E N2E 1_555 1_555
C12E H15E 1_555 1_555
C13E C12E 1_555 1_555
H16E C13E 1_555 1_555
C14E N5E 1_555 1_555
C15E C14E 1_555 1_555
H17E C15E 1_555 1_555
C16E N6E 1_555 1_555
H18E C16E 1_555 1_555
I1D Cd1 1_555 1_555
Cd1A N4E 1_555 1_555
Cd1B N6 1_555 1_555
Cd1C N6E 1_555 1_555
N4D Cd1 1_555 1_555
N6B Cd1 1_555 1_555
N6F Cd1 1_555 1_555
N3 C5 1_555 1_555
N5 C11 1_555 1_555
C7 C8 1_555 1_555
C9 C10 1_555 1_555
C13 C14 1_555 1_555
C15 C16 1_555 1_555
N1E C3E 1_555 1_555
N2E C4E 1_555 1_555
N3E C5E 1_555 1_555
N5E C11E 1_555 1_555
C7E C8E 1_555 1_555
C9E C10E 1_555 1_555
C13E C14E 1_555 1_555
C15E C16E 1_555 1_555

#END
