
#######################################################################
#
#                 Cambridge Crystallographic Data Centre
#                                CCDC 
#
#######################################################################
#
# If this CIF has been generated from an entry in the Cambridge 
# Structural Database, then it will include bibliographic, chemical, 
# crystal, experimental, refinement or atomic coordinate data resulting 
# from the CCDC's data processing and validation procedures.
#
#######################################################################

data_KECRAL
_chemical_formula_moiety         'C14 Cd8 N10 O4'
_symmetry_cell_setting           orthorhombic
_symmetry_space_group_name_H-M   'A m m 2'
_symmetry_Int_Tables_number      38
_space_group_name_Hall           'A 2 -2'
loop_
_symmetry_equiv_pos_site_id
_symmetry_equiv_pos_as_xyz
1 x,y,z
2 x,1/2+y,1/2+z
3 -x,y,z
4 -x,1/2+y,1/2+z
5 x,-y,z
6 x,1/2-y,1/2+z
7 -x,-y,z
8 -x,1/2-y,1/2+z
_cell_length_a                   8.695(1)
_cell_length_b                   8.548(1)
_cell_length_c                   21.092(4)
_cell_angle_alpha                90
_cell_angle_beta                 90
_cell_angle_gamma                90
_cell_volume                     1567.66
loop_
_atom_site_label
_atom_site_type_symbol
_atom_site_fract_x
_atom_site_fract_y
_atom_site_fract_z
Cd1 Cd 0.0000 0.0000 0.0000
Cd2 Cd 0.5000 0.0000 -0.1648(1)
Cd3 Cd 0.5000 0.0000 0.1675(1)
C1 C 0.2942(6) 0.0000 -0.1074(4)
N1 N 0.1895(6) 0.0000 -0.0748(4)
C2 C 0.1729(7) -0.0000 0.0742(5)
N2 N 0.2745(7) 0.0000 0.1082(5)
C3 C 0.5000 -0.2060(7) -0.2249(5)
N3 N 0.5000 -0.3038(7) -0.2618(4)
O1 O 0.0000 -0.2724(6) 0.0038(7)
C1B C -0.2942(6) 0.0000 -0.1074(4)
N1B N -0.1895(6) 0.0000 -0.0748(4)
C2B C -0.1729(7) -0.0000 0.0742(5)
N2B N -0.2745(7) 0.0000 0.1082(5)
O1D O -0.0000 0.2724(6) 0.0038(7)
C3D C 0.5000 0.2060(7) -0.2249(5)
N3D N 0.5000 0.3038(7) -0.2618(4)
C1B_2 C 0.7058(6) 0.0000 -0.1074(4)
N2B_2 N 0.7255(7) 0.0000 0.1082(5)
N3A N 0.5000 0.1962(7) 0.2382(4)
N3E N 0.5000 -0.1962(7) 0.2382(4)
Cd3A Cd 0.5000 -0.5000 -0.3325(1)
Cd2_2 Cd -0.5000 0.0000 -0.1648(1)
Cd3_2 Cd -0.5000 0.0000 0.1675(1)
Cd3A_2 Cd 0.5000 0.5000 -0.3325(1)
N1B_2 N 0.8105(6) 0.0000 -0.0748(4)
Cd1_2 Cd 1.0000 0.0000 0.0000
C4 C 0.0000 -0.5 -0.1486(7)
O2 O 0.0596(8) -0.5 -0.0877(7)
C5 C -0.1160(8) -0.3814(8) -0.1763(7)
C6 C 0.1521(8) -0.5 -0.1718(8)
O2B O -0.0596(8) -0.5 -0.0877(7)
C6B C -0.1521(8) -0.5 -0.1718(8)
C5B C 0.1160(8) -0.3814(8) -0.1763(7)
C5D C -0.1160(8) -0.6186(8) -0.1763(7)
C5F C 0.1160(8) -0.6186(8) -0.1763(7)
loop_
_geom_bond_atom_site_label_1
_geom_bond_atom_site_label_2
_geom_bond_site_symmetry_1
_geom_bond_site_symmetry_2
Cd1 N1 1_555 1_555
Cd2 C1 1_555 1_555
Cd3 N2 1_555 1_555
C1 N1 1_555 1_555
C2 Cd1 1_555 1_555
N2 C2 1_555 1_555
C3 Cd2 1_555 1_555
N3 C3 1_555 1_555
O1 Cd1 1_555 1_555
C4 O2 1_555 1_555
O2 O2B 1_555 1_555
C5 C4 1_555 1_555
C6 C4 1_555 1_555
C1B N1B 1_555 1_555
N1B Cd1 1_555 1_555
C2B Cd1 1_555 1_555
N2B C2B 1_555 1_555
O1D Cd1 1_555 1_555
C3D Cd2 1_555 1_555
N3D C3D 1_555 1_555
C1B_2 Cd2 1_555 1_555
N2B_2 Cd3 1_555 1_555
N3A Cd3 1_555 1_555
N3E Cd3 1_555 1_555
Cd3A N3 1_555 1_555
Cd2_2 C1B 1_555 1_555
Cd3_2 N2B 1_555 1_555
Cd3A_2 N3D 1_555 1_555
N1B_2 C1B_2 1_555 1_555
Cd1_2 N1B_2 1_555 1_555
O2B C4 1_555 1_555
C6B C4 1_555 1_555
C5B C4 1_555 1_555
C5D C4 1_555 1_555
C5F C4 1_555 1_555
C5 C6B 1_555 1_555
C6 C5B 1_555 1_555
C6 C5F 1_555 1_555
C6B C5D 1_555 1_555

#END
