
#######################################################################
#
#                 Cambridge Crystallographic Data Centre
#                                CCDC 
#
#######################################################################
#
# If this CIF has been generated from an entry in the Cambridge 
# Structural Database, then it will include bibliographic, chemical, 
# crystal, experimental, refinement or atomic coordinate data resulting 
# from the CCDC's data processing and validation procedures.
#
#######################################################################

data_SEFSOM
_chemical_formula_moiety         '(C72 H74 Cd3 N16 O20 S2)n'
_symmetry_cell_setting           triclinic
_symmetry_space_group_name_H-M   'P -1'
_symmetry_Int_Tables_number      2
_space_group_name_Hall           '-P 1'
loop_
_symmetry_equiv_pos_site_id
_symmetry_equiv_pos_as_xyz
1 x,y,z
2 -x,-y,-z
_cell_length_a                   10.080(2)
_cell_length_b                   13.063(3)
_cell_length_c                   17.815(4)
_cell_angle_alpha                79.029(4)
_cell_angle_beta                 86.325(4)
_cell_angle_gamma                78.211(4)
_cell_volume                     2253.57
loop_
_atom_site_label
_atom_site_type_symbol
_atom_site_fract_x
_atom_site_fract_y
_atom_site_fract_z
C1 C 0.1610(3) -0.4318(2) 0.49702(16)
H1 H 0.1486 -0.4995 0.5198
C2 C 0.0585(3) -0.3499(2) 0.46684(17)
H2 H -0.0332 -0.3510 0.4650
C3 C 0.2522(3) -0.2994(2) 0.45380(16)
H3 H 0.3172 -0.2573 0.4405
C4 C 0.0554(4) -0.1609(2) 0.40317(19)
H4 H -0.0303 -0.1665 0.3841
H5 H 0.1106 -0.1362 0.3595
C5 C 0.0287(3) -0.0786(2) 0.45511(16)
C6 C -0.0155(3) 0.0257(2) 0.42356(18)
H6 H -0.0267 0.0448 0.3710
C7 C 0.0438(4) -0.1035(3) 0.53131(19)
H7 H 0.0738 -0.1741 0.5541
C8 C 0.4036(3) -0.6854(2) 0.43711(19)
H8 H 0.3686 -0.7073 0.4858
C9 C 0.4621(3) -0.6819(2) 0.31688(19)
H9 H 0.4765 -0.6974 0.2678
C10 C 0.4940(3) -0.5952(3) 0.34267(17)
H10 H 0.5346 -0.5427 0.3131
C11 C 0.3584(3) -0.8382(2) 0.38258(18)
H11 H 0.2622 -0.8270 0.3955
H12 H 0.3717 -0.8612 0.3335
C12 C 0.4326(3) -0.9213(2) 0.44151(16)
C13 C 0.5723(3) -0.9455(2) 0.44597(16)
H13 H 0.6233 -0.9095 0.4086
C14 C 0.3627(3) -0.9778(2) 0.49873(17)
H14 H 0.2685 -0.9641 0.4982
C15 C 0.6129(3) -0.1987(2) 0.30419(17)
C16 C 0.4762(3) -0.1502(2) 0.28920(16)
H15 H 0.4068 -0.1876 0.3038
C17 C 0.4488(3) -0.0451(2) 0.25199(18)
C18 C 0.3055(3) 0.0101(3) 0.23183(19)
C19 C 0.5511(3) 0.0111(2) 0.23342(19)
H16 H 0.5292 0.0823 0.2104
C20 C 0.6878(3) -0.0354(2) 0.24803(17)
C21 C 0.7954(3) 0.0245(2) 0.22789(18)
C22 C 0.7143(3) -0.1432(3) 0.28444(19)
H17 H 0.8033 -0.1771 0.2952
C23 C -0.1322(3) 0.2876(3) 0.27866(18)
H18 H -0.2131 0.2645 0.2768
C24 C -0.1183(4) 0.3740(3) 0.30813(19)
H19 H -0.1862 0.4214 0.3285
C25 C 0.0785(3) 0.2964(3) 0.26790(18)
H20 H 0.1710 0.2811 0.2566
C26 C 0.0835(3) 0.45266(19) 0.32679(14)
H21 H 0.1757 0.4185 0.3405
H22 H 0.0358 0.4725 0.3725
C27 C 0.0843(3) 0.55246(19) 0.26822(14)
C28 C -0.0061(3) 0.58742(19) 0.20872(14)
H23 H -0.0726 0.5492 0.2040
C29 C 0.0029(4) 0.6794(3) 0.1563(2)
H24 H -0.0606 0.7039 0.1180
C30 C 0.1040(11) 0.7350(8) 0.1599(9)
C31 C 0.1947(4) 0.6999(3) 0.2226(2)
H25 H 0.2607 0.7382 0.2279
C32 C 0.1839(5) 0.6086(4) 0.2753(3)
H26 H 0.2436 0.5853 0.3155
C33 C 0.1227(3) 0.8334(3) 0.1071(2)
H27 H 0.1082 0.8930 0.1339
H28 H 0.2152 0.8237 0.0870
C34 C -0.1018(3) 0.8902(2) 0.04621(19)
H29 H -0.1538 0.9006 0.0901
C35 C -0.1476(3) 0.9051(2) -0.02437(17)
H30 H -0.2377 0.9300 -0.0377
C36 C 0.0625(3) 0.8520(3) -0.03011(19)
H31 H 0.1505 0.8313 -0.0485
Cd1 Cd 0.5000 -0.5000 0.5000
Cd2 Cd 0.04291(2) 0.096561(19) 0.199011(14)
N1 N 0.2805(3) -0.4012(2) 0.48925(16)
N2 N 0.1229(3) -0.26561(19) 0.43996(15)
N3 N 0.4567(3) -0.5999(2) 0.41649(17)
N4 N 0.4067(3) -0.7376(2) 0.37715(17)
N5 N -0.0065(3) 0.2398(2) 0.25183(17)
N6 N 0.0215(3) 0.37552(19) 0.30102(16)
N7 N 0.0318(3) 0.8576(2) 0.04225(15)
N8 N -0.0448(3) 0.8789(2) -0.07355(16)
O1 O 0.5421(2) -0.35669(17) 0.39939(12)
O2 O 0.6749(2) -0.39309(17) 0.29018(12)
O3 O 0.7723(2) -0.34037(16) 0.39112(12)
O4 O 0.2127(2) -0.04222(18) 0.24743(12)
O5 O 0.2815(2) 0.10453(16) 0.20342(11)
O6 O 0.7687(2) 0.11818(17) 0.19456(12)
O7 O 0.9158(2) -0.02237(17) 0.24254(12)
S1 S 0.65503(14) -0.33415(11) 0.34923(9)
C1A C -0.1610(3) 0.4318(2) 0.50298(16)
H1A H -0.1486 0.4995 0.4802
C2A C -0.0585(3) 0.3499(2) 0.53316(17)
H2A H 0.0332 0.3510 0.5350
C3A C -0.2522(3) 0.2994(2) 0.54620(16)
H3A H -0.3172 0.2573 0.5595
C4A C -0.0554(4) 0.1609(2) 0.59683(19)
H4A H 0.0303 0.1665 0.6159
H5A H -0.1106 0.1362 0.6405
C5A C -0.0287(3) 0.0786(2) 0.54489(16)
C6A C 0.0155(3) -0.0257(2) 0.57644(18)
H6A H 0.0267 -0.0448 0.6290
C7A C -0.0438(4) 0.1035(3) 0.46869(19)
H7A H -0.0738 0.1741 0.4459
C8A C 0.5964(3) -1.3146(2) 0.56289(19)
H8A H 0.6314 -1.2927 0.5142
C9A C 0.5379(3) -1.3181(2) 0.68312(19)
H9A H 0.5235 -1.3026 0.7322
C10A C 0.5060(3) -1.4048(3) 0.65733(17)
H10A H 0.4654 -1.4573 0.6869
C11A C 0.6416(3) -1.1618(2) 0.61742(18)
H11A H 0.7378 -1.1730 0.6045
H12A H 0.6283 -1.1388 0.6665
C12A C 0.5674(3) -1.0787(2) 0.55849(16)
C13A C 0.4277(3) -1.0545(2) 0.55403(16)
H13A H 0.3767 -1.0905 0.5914
C14A C 0.6373(3) -1.0222(2) 0.50127(17)
H14A H 0.7315 -1.0359 0.5018
C15A C 0.3871(3) -0.8013(2) 0.69581(17)
C16A C 0.5238(3) -0.8498(2) 0.71080(16)
H15A H 0.5932 -0.8124 0.6962
C17A C 0.5512(3) -0.9549(2) 0.74801(18)
C18A C 0.6945(3) -1.0101(3) 0.76817(19)
C19A C 0.4489(3) -1.0111(2) 0.76658(19)
H16A H 0.4708 -1.0823 0.7896
C20A C 0.3122(3) -0.9646(2) 0.75197(17)
C21A C 0.2046(3) -1.0245(2) 0.77211(18)
C22A C 0.2857(3) -0.8568(3) 0.71556(19)
H17A H 0.1967 -0.8229 0.7048
C23A C 0.1322(3) 0.7124(3) -0.27866(18)
H18A H 0.2131 0.7355 -0.2768
C24A C 0.1183(4) 0.6260(3) -0.30813(19)
H19A H 0.1862 0.5786 -0.3285
C25A C -0.0785(3) 0.7036(3) -0.26790(18)
H20A H -0.1710 0.7189 -0.2566
C26A C -0.0835(3) 0.54734(19) -0.32679(14)
H21A H -0.1757 0.5815 -0.3405
H22A H -0.0358 0.5275 -0.3725
C27A C -0.0843(3) 0.44754(19) -0.26822(14)
C28A C 0.0061(3) 0.41258(19) -0.20872(14)
H23A H 0.0726 0.4508 -0.2040
C29A C -0.0029(4) 0.3206(3) -0.1563(2)
H24A H 0.0606 0.2961 -0.1180
C30A C -0.1040(11) 0.2650(8) -0.1599(9)
C31A C -0.1947(4) 0.3001(3) -0.2226(2)
H25A H -0.2607 0.2618 -0.2279
C32A C -0.1839(5) 0.3914(4) -0.2753(3)
H26A H -0.2436 0.4147 -0.3155
C33A C -0.1227(3) 0.1666(3) -0.1071(2)
H27A H -0.1082 0.1070 -0.1339
H28A H -0.2152 0.1763 -0.0870
C34A C 0.1018(3) 0.1098(2) -0.04621(19)
H29A H 0.1538 0.0994 -0.0901
C35A C 0.1476(3) 0.0949(2) 0.02437(17)
H30A H 0.2377 0.0700 0.0377
C36A C -0.0625(3) 0.1480(3) 0.03011(19)
H31A H -0.1505 0.1687 0.0485
Cd1_2 Cd -0.5000 0.5000 0.5000
Cd1_3 Cd 0.5000 -1.5000 0.5000
Cd2A Cd 0.95709(2) -1.096561(19) 0.800989(14)
Cd2A_2 Cd -0.04291(2) 0.903439(19) -0.199011(14)
Cd2_2 Cd 1.04291(2) 0.096561(19) 0.199011(14)
Cd2A_3 Cd -0.04291(2) -1.096561(19) 0.800989(14)
N1A N -0.2805(3) 0.4012(2) 0.51075(16)
N1A_2 N 0.7195(3) -0.5988(2) 0.51075(16)
N2A N -0.1229(3) 0.26561(19) 0.56004(15)
N3A N 0.5433(3) -1.4001(2) 0.58351(17)
N3A_2 N 0.5433(3) -0.4001(2) 0.58351(17)
N4A N 0.5933(3) -1.2624(2) 0.62285(17)
N5A N 0.0065(3) 0.7602(2) -0.25183(17)
N5A_2 N 1.0065(3) -1.2398(2) 0.74817(17)
N6A N -0.0215(3) 0.62448(19) -0.30102(16)
N7A N -0.0318(3) 0.1424(2) -0.04225(15)
N8A N 0.0448(3) 0.1211(2) 0.07355(16)
N8_2 N 0.9552(3) -1.1211(2) 0.92645(16)
O1A O 0.4579(2) -0.64331(17) 0.60061(12)
O2A O 0.3251(2) -0.60691(17) 0.70982(12)
O3A O 0.2277(2) -0.65963(16) 0.60888(12)
O4A O 0.7873(2) -0.95778(18) 0.75257(12)
O5A O 0.7185(2) -1.10453(16) 0.79658(11)
O6A O 0.2313(2) -1.11818(17) 0.80544(12)
O7A O 0.0842(2) -0.97763(17) 0.75746(12)
O7_2 O -0.0842(2) -0.02237(17) 0.24254(12)
O7A_2 O 1.0842(2) -0.97763(17) 0.75746(12)
S1A S 0.34497(14) -0.66585(11) 0.65077(9)
O8 O 0.3762(4) 0.4799(3) 0.8369(2)
H36 H 0.3640 0.4280 0.8176
H37 H 0.3060 0.5017 0.8629
O10 O 0.2855(4) 0.3479(3) 0.0887(2)
H40 H 0.3323 0.3882 0.1023
H41 H 0.2625 0.3063 0.1279
O11 O 0.3267(4) 0.6759(3) 0.8931(2)
H42 H 0.3245 0.6582 0.8497
H43 H 0.3297 0.7415 0.8869
O12 O 0.4856(4) 0.9312(3) 1.0048(2)
H45 H 0.4112 0.9315 0.9848
O13 O 0.2849(2) 0.40860(16) 0.95322(11)
H46 H 0.2765 0.3443 0.9578
H47 H 0.3539 0.4114 0.9773
O14 O 0.5315(4) 0.7631(3) 0.0671(2)
H48 H 0.5182 0.7440 0.1149
H49 H 0.5866 0.8056 0.0598
loop_
_geom_bond_atom_site_label_1
_geom_bond_atom_site_label_2
_geom_bond_site_symmetry_1
_geom_bond_site_symmetry_2
C1 H1 1_555 1_555
C2 C1 1_555 1_555
H2 C2 1_555 1_555
C3 H3 1_555 1_555
C4 H4 1_555 1_555
H5 C4 1_555 1_555
C5 C4 1_555 1_555
C6 C5 1_555 1_555
H6 C6 1_555 1_555
C7 C5 1_555 1_555
H7 C7 1_555 1_555
C8 H8 1_555 1_555
C9 H9 1_555 1_555
C10 C9 1_555 1_555
H10 C10 1_555 1_555
C11 H11 1_555 1_555
H12 C11 1_555 1_555
C12 C11 1_555 1_555
C13 C12 1_555 1_555
H13 C13 1_555 1_555
C14 C12 1_555 1_555
H14 C14 1_555 1_555
C15 C16 1_555 1_555
C16 H15 1_555 1_555
C17 C16 1_555 1_555
C18 C17 1_555 1_555
C19 C17 1_555 1_555
H16 C19 1_555 1_555
C20 C19 1_555 1_555
C21 C20 1_555 1_555
C22 C15 1_555 1_555
H17 C22 1_555 1_555
C23 H18 1_555 1_555
C24 C23 1_555 1_555
H19 C24 1_555 1_555
C25 H20 1_555 1_555
C26 H21 1_555 1_555
H22 C26 1_555 1_555
C27 C26 1_555 1_555
C28 C27 1_555 1_555
H23 C28 1_555 1_555
C29 C28 1_555 1_555
H24 C29 1_555 1_555
C30 C29 1_555 1_555
C31 C30 1_555 1_555
H25 C31 1_555 1_555
C32 C27 1_555 1_555
H26 C32 1_555 1_555
C33 C30 1_555 1_555
H27 C33 1_555 1_555
H28 C33 1_555 1_555
C34 H29 1_555 1_555
C35 C34 1_555 1_555
H30 C35 1_555 1_555
C36 H31 1_555 1_555
Cd1 N1 1_555 1_555
Cd2 N5 1_555 1_555
N1 C1 1_555 1_555
N2 C2 1_555 1_555
N3 C8 1_555 1_555
N4 C8 1_555 1_555
N5 C23 1_555 1_555
N6 C24 1_555 1_555
N7 C33 1_555 1_555
N8 C35 1_555 1_555
O1 Cd1 1_555 1_555
O2 S1 1_555 1_555
O3 S1 1_555 1_555
O4 C18 1_555 1_555
O5 C18 1_555 1_555
O6 C21 1_555 1_555
O7 C21 1_555 1_555
O8 H36 1_555 1_555
H37 O8 1_555 1_555
O10 H40 1_555 1_555
H41 O10 1_555 1_555
O11 H42 1_555 1_555
H43 O11 1_555 1_555
O12 H45 1_555 1_555
O13 H46 1_555 1_555
H47 O13 1_555 1_555
O14 H48 1_555 1_555
H49 O14 1_555 1_555
S1 C15 1_555 1_555
C1A H1A 1_555 1_555
C2A C1A 1_555 1_555
H2A C2A 1_555 1_555
C3A H3A 1_555 1_555
C4A H4A 1_555 1_555
H5A C4A 1_555 1_555
C5A C4A 1_555 1_555
C6A C7 1_555 1_555
H6A C6A 1_555 1_555
C7A C6 1_555 1_555
H7A C7A 1_555 1_555
C8A H8A 1_555 1_555
C9A H9A 1_555 1_555
C10A C9A 1_555 1_555
H10A C10A 1_555 1_555
C11A H11A 1_555 1_555
H12A C11A 1_555 1_555
C12A C11A 1_555 1_555
C13A C14 1_555 1_555
H13A C13A 1_555 1_555
C14A C13 1_555 1_555
H14A C14A 1_555 1_555
C15A C16A 1_555 1_555
C16A H15A 1_555 1_555
C17A C16A 1_555 1_555
C18A C17A 1_555 1_555
C19A C17A 1_555 1_555
H16A C19A 1_555 1_555
C20A C19A 1_555 1_555
C21A C20A 1_555 1_555
C22A C15A 1_555 1_555
H17A C22A 1_555 1_555
C23A H18A 1_555 1_555
C24A C23A 1_555 1_555
H19A C24A 1_555 1_555
C25A H20A 1_555 1_555
C26A H21A 1_555 1_555
H22A C26A 1_555 1_555
C27A C26A 1_555 1_555
C28A C27A 1_555 1_555
H23A C28A 1_555 1_555
C29A C28A 1_555 1_555
H24A C29A 1_555 1_555
C30A C29A 1_555 1_555
C31A C30A 1_555 1_555
H25A C31A 1_555 1_555
C32A C27A 1_555 1_555
H26A C32A 1_555 1_555
C33A C30A 1_555 1_555
H27A C33A 1_555 1_555
H28A C33A 1_555 1_555
C34A H29A 1_555 1_555
C35A C34A 1_555 1_555
H30A C35A 1_555 1_555
C36A H31A 1_555 1_555
Cd1_2 N1A 1_555 1_555
Cd1_3 N3A 1_555 1_555
Cd2A N5A_2 1_555 1_555
Cd2A_2 N8 1_555 1_555
Cd2_2 O7 1_555 1_555
Cd2A_3 O7A 1_555 1_555
N1A C1A 1_555 1_555
N1A_2 Cd1 1_555 1_555
N2A C2A 1_555 1_555
N3A C8A 1_555 1_555
N3A_2 Cd1 1_555 1_555
N4A C8A 1_555 1_555
N5A C23A 1_555 1_555
N6A C24A 1_555 1_555
N7A C33A 1_555 1_555
N8A Cd2 1_555 1_555
N8_2 Cd2A 1_555 1_555
O1A Cd1 1_555 1_555
O2A S1A 1_555 1_555
O3A S1A 1_555 1_555
O4A C18A 1_555 1_555
O5A C18A 1_555 1_555
O6A C21A 1_555 1_555
O7A C21A 1_555 1_555
O7_2 Cd2 1_555 1_555
O7A_2 Cd2A 1_555 1_555
S1A C15A 1_555 1_555
C3 N1 1_555 1_555
C3 N2 1_555 1_555
C4 N2 1_555 1_555
C9 N4 1_555 1_555
C10 N3 1_555 1_555
C11 N4 1_555 1_555
C20 C22 1_555 1_555
C25 N5 1_555 1_555
C25 N6 1_555 1_555
C26 N6 1_555 1_555
C31 C32 1_555 1_555
C34 N7 1_555 1_555
C36 N7 1_555 1_555
C36 N8 1_555 1_555
Cd1 N3 1_555 1_555
Cd2 O4 1_555 1_555
Cd2 O5 1_555 1_555
O1 S1 1_555 1_555
C3A N1A 1_555 1_555
C3A N2A 1_555 1_555
C4A N2A 1_555 1_555
C5A C6A 1_555 1_555
C5A C7A 1_555 1_555
C9A N4A 1_555 1_555
C10A N3A 1_555 1_555
C11A N4A 1_555 1_555
C12A C13A 1_555 1_555
C12A C14A 1_555 1_555
C20A C22A 1_555 1_555
C25A N5A 1_555 1_555
C25A N6A 1_555 1_555
C26A N6A 1_555 1_555
C31A C32A 1_555 1_555
C34A N7A 1_555 1_555
C35A N8A 1_555 1_555
C36A N7A 1_555 1_555
C36A N8A 1_555 1_555
Cd2A O4A 1_555 1_555
Cd2A O5A 1_555 1_555
Cd2A_2 N5A 1_555 1_555
O1A S1A 1_555 1_555

#END
