
#######################################################################
#
#                 Cambridge Crystallographic Data Centre
#                                CCDC 
#
#######################################################################
#
# If this CIF has been generated from an entry in the Cambridge 
# Structural Database, then it will include bibliographic, chemical, 
# crystal, experimental, refinement or atomic coordinate data resulting 
# from the CCDC's data processing and validation procedures.
#
#######################################################################

data_OXALOP
_chemical_formula_moiety         'C84 H68 N6 O46 Y12'
_symmetry_cell_setting           orthorhombic
_symmetry_space_group_name_H-M   'P b c m'
_symmetry_Int_Tables_number      57
_space_group_name_Hall           '-P 2c 2b'
loop_
_symmetry_equiv_pos_site_id
_symmetry_equiv_pos_as_xyz
1 x,y,z
2 -x,-y,1/2+z
3 x,1/2-y,-z
4 -x,1/2+y,1/2-z
5 -x,-y,-z
6 x,y,1/2-z
7 -x,1/2+y,z
8 x,1/2-y,1/2+z
_cell_length_a                   10.6762(16)
_cell_length_b                   28.242(5)
_cell_length_c                   34.079(6)
_cell_angle_alpha                90
_cell_angle_beta                 90
_cell_angle_gamma                90
_cell_volume                     10275.4
loop_
_atom_site_label
_atom_site_type_symbol
_atom_site_fract_x
_atom_site_fract_y
_atom_site_fract_z
N3 N 1.756(3) 0.5161(9) 0.1593(9)
O21 O 1.6979(15) 0.4927(7) 0.1041(4)
C40 C 1.758(2) 0.5464(9) 0.1978(8)
C41 C 1.657(3) 0.5132(10) 0.1313(11)
C49 C 1.8792(18) 0.4948(9) 0.1532(7)
C50 C 1.5387(14) 0.5365(8) 0.1424(8)
N6 N 1.0672(11) 0.4218(5) 0.0024(4)
O19 O 1.1815(6) 0.4895(2) 0.0103(2)
C42 C 1.1340(9) 0.4177(4) -0.0360(3)
C43 C 0.9746(11) 0.3886(5) 0.0183(3)
C44 C 1.0238(9) 0.4659(4) 0.0627(3)
C45 C 1.0956(19) 0.4604(7) 0.0242(6)
O22 O 1.5945(7) 0.4963(2) 0.0284(3)
Y1 Y 0.94871(5) 0.19161(2) 0.2500
O1 O 0.6564(4) 0.35741(13) 0.05666(10)
N1 N 0.5443(9) 0.1672(4) 0.2639(3)
C1 C 0.5286(4) 0.35850(17) -0.00108(12)
Y2 Y 1.12830(5) 0.32601(2) 0.2500
O2 O 0.8561(4) 0.24089(14) 0.20445(10)
N2 N 1.5181(11) 0.3250(5) 0.2500
C2 C 0.5866(5) 0.32768(18) 0.03081(13)
H1 H 0.5201 0.3110 0.0455
H2 H 0.6425 0.3037 0.0188
Y3 Y 0.83207(8) 0.49018(2) -0.2500
O3 O 0.9661(4) 0.30789(14) 0.20935(11)
C3 C 0.6249(5) 0.38927(18) -0.02211(14)
H3 H 0.5835 0.4082 -0.0428
H4 H 0.6645 0.4113 -0.0032
O4 O 0.7179(3) 0.35930(13) -0.03918(10)
N4 N 0.5926(7) 0.4595(2) -0.2500
C4 C 0.4673(5) 0.32415(18) -0.03013(13)
H5 H 0.5320 0.3038 -0.0424
H6 H 0.4068 0.3035 -0.0163
O5 O 0.9642(4) 0.36847(14) -0.20618(10)
C5 C 0.4361(5) 0.39332(19) 0.01704(13)
H7 H 0.4802 0.4143 0.0358
H8 H 0.3987 0.4133 -0.0037
O6 O 0.8950(6) 0.44203(16) -0.20260(12)
C6 C 0.7078(5) 0.33658(18) 0.08959(13)
O7 O 0.4041(4) 0.35121(13) -0.05962(10)
C7 C 0.6904(5) 0.28978(18) 0.10037(14)
H9 H 0.6403 0.2694 0.0847
O8 O 0.1092(4) 0.28770(16) -0.21048(12)
C8 C 0.7466(5) 0.27319(18) 0.13414(14)
H10 H 0.7326 0.2413 0.1420
O9 O 0.2232(4) 0.22283(13) -0.20371(10)
C9 C 0.8227(4) 0.30178(18) 0.15683(13)
O10 O 0.3400(4) 0.36759(14) 0.03691(11)
C10 C 0.8405(5) 0.34845(19) 0.14564(14)
H11 H 0.8935 0.3683 0.1609
O11 O 0.2008(6) 0.45826(15) 0.20172(13)
C11 C 0.7825(6) 0.36663(19) 0.11272(15)
H12 H 0.7929 0.3990 0.1058
O12 O 0.1167(4) 0.38687(14) 0.20677(11)
C12 C 0.8860(5) 0.28153(19) 0.19295(13)
O13 O 0.7441(5) 0.1653(2) 0.2500
C13 C 0.7693(5) 0.37329(18) -0.07403(13)
O14 O 1.3321(5) 0.3531(2) 0.2500
C14 C 0.8277(5) 0.33752(19) -0.09502(15)
H13 H 0.8330 0.3064 -0.0845
O15 O 1.0332(9) 0.5162(4) -0.2500
C15 C 0.8786(6) 0.34773(19) -0.13174(15)
H14 H 0.9198 0.3235 -0.1461
O16 O 0.6111(16) 0.4892(6) -0.2705(6)
C16 C 0.8698(5) 0.39243(18) -0.14739(14)
O17 O 0.6627(12) 0.4453(5) -0.2258(4)
C17 C 0.8177(6) 0.42827(19) -0.12522(16)
H15 H 0.8161 0.4596 -0.1353
O18 O 0.4753(14) 0.4473(7) -0.2500
C18 C 0.7674(6) 0.41931(19) -0.08824(16)
H16 H 0.7324 0.4442 -0.0731
C19 C 0.9114(6) 0.40173(18) -0.18875(14)
C20 C 0.3567(5) 0.32735(17) -0.09121(13)
C21 C 0.3766(5) 0.27977(18) -0.09906(14)
H17 H 0.4252 0.2610 -0.0816
C22 C 0.3249(5) 0.25978(18) -0.13263(14)
H18 H 0.3414 0.2275 -0.1384
C23 C 0.2505(4) 0.28554(18) -0.15773(13)
C24 C 0.2281(5) 0.33312(19) -0.14879(14)
H19 H 0.1751 0.3513 -0.1654
C25 C 0.2816(5) 0.35401(19) -0.11647(15)
H20 H 0.2675 0.3866 -0.1113
C26 C 0.1903(5) 0.26338(19) -0.19303(13)
C27 C 0.3016(5) 0.38338(18) 0.07275(14)
C28 C 0.2268(5) 0.35187(19) 0.09324(15)
H21 H 0.2046 0.3224 0.0817
C29 C 0.1843(6) 0.36295(19) 0.13034(15)
H22 H 0.1325 0.3413 0.1441
C30 C 0.2173(5) 0.40588(18) 0.14763(14)
C31 C 0.2895(7) 0.43768(19) 0.12647(17)
H23 H 0.3105 0.4674 0.1378
C32 C 0.3319(6) 0.4269(2) 0.08880(17)
H24 H 0.3807 0.4490 0.0744
C33 C 0.1746(6) 0.41779(17) 0.18841(15)
C34 C 0.6322(11) 0.1669(4) 0.2377(4)
C35 C 0.4088(10) 0.1679(8) 0.2500
C36 C 0.5875(9) 0.1657(3) 0.3056(3)
C37 C 1.4390(11) 0.3381(5) 0.2364(4)
C38 C 1.4799(11) 0.3339(7) 0.1940(3)
C39 C 1.6386(13) 0.3016(7) 0.2500
Y1B Y 0.94871(5) 0.30839(2) -0.2500
Y1B_2 Y -0.05129(5) 0.30839(2) -0.2500
Y1B_3 Y 0.94871(5) 0.30839(2) 0.7500
Y1B_4 Y -0.05129(5) 0.30839(2) 0.7500
O1E O 0.6564(4) 0.35741(13) 0.44334(10)
N1E N 0.5443(9) 0.1672(4) 0.2361(3)
C1E C 0.5286(4) 0.35850(17) 0.50108(12)
Y2B Y 0.12830(5) 0.17399(2) -0.2500
Y2_2 Y 0.12830(5) 0.32601(2) 0.2500
Y2B_2 Y 0.12830(5) 0.17399(2) 0.7500
O2E O 0.8561(4) 0.24089(14) 0.29555(10)
C2E C 0.5866(5) 0.32768(18) 0.46919(13)
H1E H 0.5201 0.3110 0.4545
H2E H 0.6425 0.3037 0.4812
Y3A Y 0.16793(8) 0.50982(2) 0.2500
Y3_2 Y 0.83207(8) 0.49018(2) 0.7500
O3E O 0.9661(4) 0.30789(14) 0.29065(11)
C3E C 0.6249(5) 0.38927(18) 0.52211(14)
H3E H 0.5835 0.4082 0.5428
H4E H 0.6645 0.4113 0.5032
O4E O 0.7179(3) 0.35930(13) 0.53918(10)
C4E C 0.4673(5) 0.32415(18) 0.53013(13)
H5E H 0.5320 0.3038 0.5424
H6E H 0.4068 0.3035 0.5163
O5E O 0.9642(4) 0.36847(14) 0.70618(10)
O5B O 0.9642(4) 0.13153(14) 0.20618(10)
O5G O 0.9642(4) 0.13153(14) 0.29382(10)
C5E C 0.4361(5) 0.39332(19) 0.48296(13)
H7E H 0.4802 0.4143 0.4642
H8E H 0.3987 0.4133 0.5037
O6E O 0.8950(6) 0.44203(16) 0.70260(12)
O6E_2 O 0.8950(6) 0.44203(16) -0.29740(12)
C6E C 0.7078(5) 0.33658(18) 0.41041(13)
O7E O 0.4041(4) 0.35121(13) 0.55962(10)
C7E C 0.6904(5) 0.28978(18) 0.39963(14)
H9E H 0.6403 0.2694 0.4153
O8E O 0.1092(4) 0.28770(16) 0.71048(12)
O8B O 1.1092(4) 0.21230(16) 0.21048(12)
O8G O 1.1092(4) 0.21230(16) 0.28952(12)
C8E C 0.7466(5) 0.27319(18) 0.36586(14)
H10E H 0.7326 0.2413 0.3580
O9E O 0.2232(4) 0.22283(13) 0.70371(10)
O9B O 1.2232(4) 0.27717(13) 0.20371(10)
O9G O 1.2232(4) 0.27717(13) 0.29629(10)
C9E C 0.8227(4) 0.30178(18) 0.34317(13)
O10E O 0.3400(4) 0.36759(14) 0.46309(11)
C10E C 0.8405(5) 0.34845(19) 0.35436(14)
H11E H 0.8935 0.3683 0.3391
O11E O 0.2008(6) 0.45826(15) 0.29828(13)
O11A O 0.7992(6) 0.54174(15) -0.29828(13)
O11D O 0.7992(6) 0.54174(15) -0.20172(13)
C11E C 0.7825(6) 0.36663(19) 0.38728(15)
H12E H 0.7929 0.3990 0.3942
O12E O 0.1167(4) 0.38687(14) 0.29323(11)
O12_2 O 1.1167(4) 0.38687(14) 0.20677(11)
O12E_2 O 1.1167(4) 0.38687(14) 0.29323(11)
C12E C 0.8860(5) 0.28153(19) 0.30705(13)
C13E C 0.7693(5) 0.37329(18) 0.57403(13)
C14E C 0.8277(5) 0.33752(19) 0.59502(15)
H13E H 0.8330 0.3064 0.5845
C15E C 0.8786(6) 0.34773(19) 0.63174(15)
H14E H 0.9198 0.3235 0.6461
O16E O 0.6111(16) 0.4892(6) -0.2295(6)
C16E C 0.8698(5) 0.39243(18) 0.64739(14)
O17E O 0.6627(12) 0.4453(5) -0.2742(4)
C17E C 0.8177(6) 0.42827(19) 0.62522(16)
H15E H 0.8161 0.4596 0.6353
C18E C 0.7674(6) 0.41931(19) 0.58824(16)
H16E H 0.7324 0.4442 0.5731
C19E C 0.9114(6) 0.40173(18) 0.68875(14)
C20E C 0.3567(5) 0.32735(17) 0.59121(13)
C21E C 0.3766(5) 0.27977(18) 0.59906(14)
H17E H 0.4252 0.2610 0.5816
C22E C 0.3249(5) 0.25978(18) 0.63263(14)
H18E H 0.3414 0.2275 0.6384
C23E C 0.2505(4) 0.28554(18) 0.65773(13)
C24E C 0.2281(5) 0.33312(19) 0.64879(14)
H19E H 0.1751 0.3513 0.6654
C25E C 0.2816(5) 0.35401(19) 0.61647(15)
H20E H 0.2675 0.3866 0.6113
C26E C 0.1903(5) 0.26338(19) 0.69303(13)
C27E C 0.3016(5) 0.38338(18) 0.42725(14)
C28E C 0.2268(5) 0.35187(19) 0.40676(15)
H21E H 0.2046 0.3224 0.4183
C29E C 0.1843(6) 0.36295(19) 0.36966(15)
H22E H 0.1325 0.3413 0.3559
C30E C 0.2173(5) 0.40588(18) 0.35237(14)
C31E C 0.2895(7) 0.43768(19) 0.37353(17)
H23E H 0.3105 0.4674 0.3622
C32E C 0.3319(6) 0.4269(2) 0.41120(17)
H24E H 0.3807 0.4490 0.4256
C33E C 0.1746(6) 0.41779(17) 0.31159(15)
C34E C 0.6322(11) 0.1669(4) 0.2623(4)
C36E C 0.5875(9) 0.1657(3) 0.1944(3)
C37E C 1.4390(11) 0.3381(5) 0.2636(4)
C38E C 1.4799(11) 0.3339(7) 0.3060(3)
loop_
_geom_bond_atom_site_label_1
_geom_bond_atom_site_label_2
_geom_bond_site_symmetry_1
_geom_bond_site_symmetry_2
Y1 O2 1_555 1_555
O1 C2 1_555 1_555
N1 C34 1_555 1_555
C1 C2 1_555 1_555
Y2 O3 1_555 1_555
O2 C12 1_555 1_555
N2 C37 1_555 1_555
C2 H1 1_555 1_555
H2 C2 1_555 1_555
Y3 O6 1_555 1_555
O3 C12 1_555 1_555
N3 C40 1_555 1_555
C3 C1 1_555 1_555
H3 C3 1_555 1_555
H4 C3 1_555 1_555
O4 C3 1_555 1_555
N4 O16 1_555 1_555
C4 C1 1_555 1_555
H5 C4 1_555 1_555
H6 C4 1_555 1_555
O5 C19 1_555 1_555
C5 C1 1_555 1_555
H7 C5 1_555 1_555
H8 C5 1_555 1_555
O6 C19 1_555 1_555
C6 O1 1_555 1_555
O7 C4 1_555 1_555
C7 C6 1_555 1_555
H9 C7 1_555 1_555
O8 C26 1_555 1_555
N6 C42 1_555 1_555
C8 C7 1_555 1_555
H10 C8 1_555 1_555
O9 C26 1_555 1_555
C9 C8 1_555 1_555
O10 C5 1_555 1_555
C10 C9 1_555 1_555
H11 C10 1_555 1_555
O11 C33 1_555 1_555
C11 C6 1_555 1_555
H12 C11 1_555 1_555
O12 C33 1_555 1_555
C12 C9 1_555 1_555
O13 Y1 1_555 1_555
C13 O4 1_555 1_555
O14 Y2 1_555 1_555
C14 C13 1_555 1_555
H13 C14 1_555 1_555
O15 Y3 1_555 1_555
C15 C14 1_555 1_555
H14 C15 1_555 1_555
O16 Y3 1_555 1_555
C16 C15 1_555 1_555
O17 Y3 1_555 1_555
C17 C16 1_555 1_555
H15 C17 1_555 1_555
O18 N4 1_555 1_555
C18 C13 1_555 1_555
H16 C18 1_555 1_555
O19 C45 1_555 1_555
C19 C16 1_555 1_555
C20 O7 1_555 1_555
O21 C41 1_555 1_555
C21 C20 1_555 1_555
H17 C21 1_555 1_555
C22 C21 1_555 1_555
H18 C22 1_555 1_555
C23 C22 1_555 1_555
C24 C23 1_555 1_555
H19 C24 1_555 1_555
C25 C20 1_555 1_555
H20 C25 1_555 1_555
C26 C23 1_555 1_555
C27 O10 1_555 1_555
C28 C27 1_555 1_555
H21 C28 1_555 1_555
C29 C28 1_555 1_555
H22 C29 1_555 1_555
C30 C29 1_555 1_555
C31 C30 1_555 1_555
H23 C31 1_555 1_555
C32 C27 1_555 1_555
H24 C32 1_555 1_555
C33 C30 1_555 1_555
C34 O13 1_555 1_555
C35 N1 1_555 1_555
C36 N1 1_555 1_555
C37 O14 1_555 1_555
C38 C37 1_555 1_555
C39 N2 1_555 1_555
C41 N3 1_555 1_555
C43 N6 1_555 1_555
C44 C45 1_555 1_555
C45 N6 1_555 1_555
C49 N3 1_555 1_555
C50 C41 1_555 1_555
Y1B O5 1_555 1_555
Y1B_2 O8 1_555 1_555
Y1B_3 O5E 1_555 1_555
Y1B_4 O8E 1_555 1_555
O1E C2E 1_555 1_555
N1E N1 1_555 1_555
C1E C2E 1_555 1_555
Y2B O9 1_555 1_555
Y2_2 O12 1_555 1_555
Y2B_2 O9E 1_555 1_555
O2E Y1 1_555 1_555
C2E H1E 1_555 1_555
H2E C2E 1_555 1_555
Y3A O11 1_555 1_555
Y3_2 O6E 1_555 1_555
O3E Y2 1_555 1_555
C3E C1E 1_555 1_555
H3E C3E 1_555 1_555
H4E C3E 1_555 1_555
O4E C3E 1_555 1_555
C4E C1E 1_555 1_555
H5E C4E 1_555 1_555
H6E C4E 1_555 1_555
O5E C19E 1_555 1_555
O5B Y1 1_555 1_555
O5G Y1 1_555 1_555
C5E C1E 1_555 1_555
H7E C5E 1_555 1_555
H8E C5E 1_555 1_555
O6E C19E 1_555 1_555
O6E_2 Y3 1_555 1_555
C6E O1E 1_555 1_555
O7E C4E 1_555 1_555
C7E C6E 1_555 1_555
H9E C7E 1_555 1_555
O8E C26E 1_555 1_555
O8B Y1 1_555 1_555
O8G Y1 1_555 1_555
C8E C7E 1_555 1_555
H10E C8E 1_555 1_555
O9E C26E 1_555 1_555
O9B Y2 1_555 1_555
O9G Y2 1_555 1_555
C9E C8E 1_555 1_555
O10E C5E 1_555 1_555
C10E C9E 1_555 1_555
H11E C10E 1_555 1_555
O11E Y3A 1_555 1_555
O11A Y3 1_555 1_555
O11D Y3 1_555 1_555
C11E C6E 1_555 1_555
H12E C11E 1_555 1_555
O12E Y2_2 1_555 1_555
O12_2 Y2 1_555 1_555
O12E_2 Y2 1_555 1_555
C12E O2E 1_555 1_555
C13E O4E 1_555 1_555
C14E C13E 1_555 1_555
H13E C14E 1_555 1_555
C15E C14E 1_555 1_555
H14E C15E 1_555 1_555
O16E Y3 1_555 1_555
C16E C15E 1_555 1_555
O17E Y3 1_555 1_555
C17E C16E 1_555 1_555
H15E C17E 1_555 1_555
C18E C13E 1_555 1_555
H16E C18E 1_555 1_555
C19E C16E 1_555 1_555
C20E O7E 1_555 1_555
C21E C20E 1_555 1_555
H17E C21E 1_555 1_555
C22E C21E 1_555 1_555
H18E C22E 1_555 1_555
C23E C22E 1_555 1_555
C24E C23E 1_555 1_555
H19E C24E 1_555 1_555
C25E C20E 1_555 1_555
H20E C25E 1_555 1_555
C26E C23E 1_555 1_555
C27E O10E 1_555 1_555
C28E C27E 1_555 1_555
H21E C28E 1_555 1_555
C29E C28E 1_555 1_555
H22E C29E 1_555 1_555
C30E C29E 1_555 1_555
C31E C30E 1_555 1_555
H23E C31E 1_555 1_555
C32E C27E 1_555 1_555
H24E C32E 1_555 1_555
C33E O11E 1_555 1_555
C34E N1 1_555 1_555
C36E C34 1_555 1_555
C37E N2 1_555 1_555
C38E C37E 1_555 1_555
N4 O17 1_555 1_555
N4 O16E 1_555 1_555
N4 O17E 1_555 1_555
C10 C11 1_555 1_555
O13 C34E 1_555 1_555
O14 C37E 1_555 1_555
O16 O16E 1_555 1_555
O16 O17E 1_555 1_555
O17 O16E 1_555 1_555
O17 O17E 1_555 1_555
C17 C18 1_555 1_555
C24 C25 1_555 1_555
C31 C32 1_555 1_555
C34 N1E 1_555 1_555
C34 C34E 1_555 1_555
C35 N1E 1_555 1_555
C36 C34E 1_555 1_555
C37 C37E 1_555 1_555
N1E C34E 1_555 1_555
N1E C36E 1_555 1_555
O3E C12E 1_555 1_555
C9E C12E 1_555 1_555
C10E C11E 1_555 1_555
O12E C33E 1_555 1_555
C17E C18E 1_555 1_555
C24E C25E 1_555 1_555
C30E C33E 1_555 1_555
C31E C32E 1_555 1_555

#END
