
#######################################################################
#
#                 Cambridge Crystallographic Data Centre
#                                CCDC 
#
#######################################################################
#
# If this CIF has been generated from an entry in the Cambridge 
# Structural Database, then it will include bibliographic, chemical, 
# crystal, experimental, refinement or atomic coordinate data resulting 
# from the CCDC's data processing and validation procedures.
#
#######################################################################

data_OXALEF
_chemical_formula_moiety         '(C84 H92 Mn3 N5 O28 1-)n'
_symmetry_cell_setting           triclinic
_symmetry_space_group_name_H-M   'P -1'
_symmetry_Int_Tables_number      2
_space_group_name_Hall           '-P 1'
loop_
_symmetry_equiv_pos_site_id
_symmetry_equiv_pos_as_xyz
1 x,y,z
2 -x,-y,-z
_cell_length_a                   11.775(3)
_cell_length_b                   16.113(5)
_cell_length_c                   16.346(5)
_cell_angle_alpha                108.244(2)
_cell_angle_beta                 101.663(4)
_cell_angle_gamma                102.559(2)
_cell_volume                     2750.1
loop_
_atom_site_label
_atom_site_type_symbol
_atom_site_fract_x
_atom_site_fract_y
_atom_site_fract_z
Mn1 Mn 0.18914(3) 0.895251(18) 0.390359(18)
O1 O 0.4850(2) 0.48812(15) 0.1618(2)
C1 C 0.4564(2) 0.33966(13) 0.05618(14)
Mn2 Mn 0.5000 1.0000 0.5000
O2 O 0.47283(14) 0.86937(10) 0.41177(10)
C2 C 0.3980(2) 0.41305(16) 0.09817(19)
H1 H 0.3544 0.4303 0.0507
H2 H 0.3382 0.3879 0.1257
O3 O 0.27732(15) 0.81304(11) 0.32933(12)
C3 C 0.4513(3) 0.56513(18) 0.1988(2)
O4 O 0.67441(18) 0.40528(12) 0.12362(15)
C4 C 0.5466(3) 0.6389(2) 0.2584(3)
H3 H 0.6274 0.6352 0.2683
O5 O 1.02853(16) 0.81445(11) 0.28002(14)
O6 O 1.06102(19) 0.77904(15) 0.39942(14)
C5 C 0.4073(2) 0.72468(14) 0.29357(15)
O7 O 0.41267(16) 0.20664(11) -0.07427(10)
C6 C 0.3118(2) 0.65030(16) 0.23233(18)
H4 H 0.2310 0.6538 0.2233
O8 O 0.31788(14) -0.04230(10) -0.48136(9)
C7 C 0.3332(3) 0.57033(18) 0.1838(2)
H5 H 0.2676 0.5198 0.1408
O9 O 0.14208(15) -0.01659(12) -0.49202(10)
C8 C 0.3849(2) 0.81021(13) 0.34962(14)
O10 O 0.35888(15) 0.23414(11) 0.11532(11)
C9 C 0.5783(2) 0.38177(17) 0.04456(18)
H6 H 0.5927 0.3375 -0.0069
H7 H 0.5764 0.4373 0.0311
O11 O 0.22539(16) -0.00161(11) 0.34592(12)
C10 C 0.7511(2) 0.49254(15) 0.16713(18)
O12 O 0.42798(15) 0.04001(11) 0.39641(10)
C11 C 0.7857(2) 0.55092(15) 0.12457(17)
H8 H 0.7538 0.5318 0.0612
C12 C 0.8666(2) 0.63703(16) 0.17378(17)
H9 H 0.8893 0.6772 0.1440
C13 C 0.9152(2) 0.66578(16) 0.26591(16)
C14 C 0.8826(3) 0.60589(19) 0.30788(19)
H10 H 0.9167 0.6240 0.3710
C15 C 0.8006(3) 0.51951(19) 0.2584(2)
H11 H 0.7785 0.4787 0.2878
C16 C 1.0059(2) 0.75844(17) 0.31817(18)
C17 C 0.3673(2) 0.28085(14) -0.03660(14)
H12 H 0.2852 0.2573 -0.0314
H13 H 0.3622 0.3173 -0.0752
C18 C 0.3641(2) 0.15509(15) -0.16403(14)
C19 C 0.4325(2) 0.10170(16) -0.20149(15)
H14 H 0.5057 0.1013 -0.1646
C20 C 0.3938(2) 0.04945(16) -0.29232(15)
H15 H 0.4412 0.0138 -0.3182
C21 C 0.2859(2) 0.04870(14) -0.34617(14)
C22 C 0.2160(2) 0.09967(16) -0.30738(15)
H16 H 0.1404 0.0973 -0.3437
C23 C 0.2550(2) 0.15402(16) -0.21632(15)
H17 H 0.2078 0.1898 -0.1903
C24 C 0.2468(2) -0.00549(14) -0.44456(14)
C25 C 0.4745(2) 0.28245(16) 0.11355(15)
H18 H 0.5169 0.2384 0.0880
H19 H 0.5251 0.3228 0.1756
C26 C 0.3586(2) 0.18661(16) 0.17142(16)
C27 C 0.2458(2) 0.14092(18) 0.17276(19)
H20 H 0.1744 0.1429 0.1351
C28 C 0.2363(2) 0.09262(18) 0.22814(18)
H21 H 0.1580 0.0607 0.2277
C29 C 0.3395(2) 0.08960(15) 0.28500(15)
C30 C 0.4510(2) 0.13523(18) 0.28256(17)
H22 H 0.5224 0.1334 0.3204
C31 C 0.4628(2) 0.18390(18) 0.22667(18)
H23 H 0.5410 0.2149 0.2262
C32 C 0.3311(2) 0.03895(14) 0.34763(14)
C50 C 0.5240(3) 0.71879(18) 0.3039(3)
H24 H 0.5905 0.7708 0.3433
Mn1A Mn 0.81086(3) 1.104749(18) 0.609641(18)
Mn1_2 Mn 1.18914(3) 0.895251(18) 0.390359(18)
Mn1_3 Mn 0.18914(3) -0.104749(18) -0.609641(18)
Mn1_4 Mn 0.18914(3) -0.104749(18) 0.390359(18)
Mn1A_2 Mn -0.18914(3) 1.104749(18) 0.609641(18)
Mn1A_3 Mn 0.81086(3) 2.104749(18) 1.609641(18)
Mn1A_4 Mn 0.81086(3) 2.104749(18) 0.609641(18)
O1A O 0.5150(2) 1.51188(15) 0.8382(2)
C1A C 0.5436(2) 1.66034(13) 0.94382(14)
Mn2_2 Mn 0.5000 -0.0000 -0.5000
Mn2_3 Mn 0.5000 0.0000 0.5000
Mn2_4 Mn 0.5000 2.0000 1.5000
Mn2_5 Mn 0.5000 2.0000 0.5000
O2A O 0.52717(14) 1.13063(10) 0.58823(10)
C2A C 0.6020(2) 1.58695(16) 0.90183(19)
H1A H 0.6456 1.5697 0.9493
H2A H 0.6618 1.6121 0.8743
O3A O 0.72268(15) 1.18696(11) 0.67067(12)
C3A C 0.5487(3) 1.43487(18) 0.8012(2)
O4A O 0.32559(18) 1.59472(12) 0.87638(15)
C4A C 0.4534(3) 1.3611(2) 0.7416(3)
H3A H 0.3726 1.3648 0.7317
O5A O -0.02853(16) 1.18555(11) 0.71998(14)
O5_2 O 0.02853(16) 0.81445(11) 0.28002(14)
O5A_2 O 0.97147(16) 1.18555(11) 0.71998(14)
O6A O -0.06102(19) 1.22096(15) 0.60058(14)
O6_2 O 0.06102(19) 0.77904(15) 0.39942(14)
O6A_2 O 0.93898(19) 1.22096(15) 0.60058(14)
C5A C 0.5927(2) 1.27532(14) 0.70643(15)
O7A O 0.58733(16) 1.79336(11) 1.07427(10)
C6A C 0.6882(2) 1.34970(16) 0.76767(18)
H4A H 0.7690 1.3462 0.7767
O8A O 0.68212(14) 2.04230(10) 1.48136(9)
O8_2 O 0.31788(14) 0.95770(10) 0.51864(9)
O8A_2 O 0.68212(14) 1.04230(10) 0.48136(9)
C7A C 0.6668(3) 1.42967(18) 0.8162(2)
H5A H 0.7324 1.4802 0.8592
O9A O 0.85792(15) 2.01659(12) 1.49202(10)
O9_2 O 0.14208(15) 0.98341(12) 0.50798(10)
O9A_2 O 0.85792(15) 1.01659(12) 0.49202(10)
C8A C 0.6151(2) 1.18979(13) 0.65038(14)
O10A O 0.64112(15) 1.76586(11) 0.88468(11)
C9A C 0.4217(2) 1.61823(17) 0.95544(18)
H6A H 0.4073 1.6625 1.0069
H7A H 0.4236 1.5627 0.9689
O11A O 0.77461(16) 2.00161(11) 0.65408(12)
O11_2 O 0.22539(16) 0.99839(11) 0.34592(12)
O11A_2 O 0.77461(16) 1.00161(11) 0.65408(12)
C10A C 0.2489(2) 1.50746(15) 0.83287(18)
O12A O 0.57202(15) 1.95999(11) 0.60359(10)
O12_2 O 0.42798(15) 1.04001(11) 0.39641(10)
O12A_2 O 0.57202(15) 0.95999(11) 0.60359(10)
C11A C 0.2143(2) 1.44908(15) 0.87543(17)
H8A H 0.2462 1.4682 0.9388
C12A C 0.1334(2) 1.36297(16) 0.82622(17)
H9A H 0.1107 1.3228 0.8560
C13A C 0.0848(2) 1.33422(16) 0.73409(16)
C14A C 0.1174(3) 1.39411(19) 0.69212(19)
H10A H 0.0833 1.3760 0.6290
C15A C 0.1994(3) 1.48049(19) 0.7416(2)
H11A H 0.2215 1.5213 0.7122
C16A C -0.0059(2) 1.24156(17) 0.68183(18)
C17A C 0.6327(2) 1.71915(14) 1.03660(14)
H12A H 0.7148 1.7427 1.0314
H13A H 0.6378 1.6827 1.0752
C18A C 0.6359(2) 1.84491(15) 1.16403(14)
C19A C 0.5675(2) 1.89830(16) 1.20149(15)
H14A H 0.4943 1.8987 1.1646
C20A C 0.6062(2) 1.95055(16) 1.29232(15)
H15A H 0.5588 1.9862 1.3182
C21A C 0.7141(2) 1.95130(14) 1.34617(14)
C22A C 0.7840(2) 1.90033(16) 1.30738(15)
H16A H 0.8596 1.9027 1.3437
C23A C 0.7450(2) 1.84598(16) 1.21632(15)
H17A H 0.7922 1.8102 1.1903
C24A C 0.7532(2) 2.00549(14) 1.44456(14)
C25A C 0.5255(2) 1.71755(16) 0.88645(15)
H18A H 0.4831 1.7616 0.9120
H19A H 0.4749 1.6772 0.8244
C26A C 0.6414(2) 1.81339(16) 0.82858(16)
C27A C 0.7542(2) 1.85908(18) 0.82724(19)
H20A H 0.8256 1.8571 0.8649
C28A C 0.7637(2) 1.90738(18) 0.77186(18)
H21A H 0.8420 1.9393 0.7723
C29A C 0.6605(2) 1.91040(15) 0.71500(15)
C30A C 0.5490(2) 1.86477(18) 0.71744(17)
H22A H 0.4776 1.8666 0.6796
C31A C 0.5372(2) 1.81610(18) 0.77333(18)
H23A H 0.4590 1.7851 0.7738
C32A C 0.6689(2) 1.96105(14) 0.65237(14)
C50A C 0.4760(3) 1.28121(18) 0.6961(3)
H24A H 0.4095 1.2292 0.6567
N1 N 0.0707(4) 0.1350(4) 0.4643(4)
C33 C 0.1908(5) 0.1977(3) 0.5106(4)
C34 C 0.0085(6) 0.1232(4) 0.3765(4)
N2 N 0.1109(12) 0.4338(11) 0.3516(9)
O13 O 0.2005(8) 0.3428(4) 0.4113(4)
C35 C 0.2414(6) 0.3723(6) 0.2718(4)
C36 C 0.1905(12) 0.3798(8) 0.3474(8)
C37 C 0.0641(8) 0.4342(9) 0.4360(6)
C38 C 0.0990(8) 0.4722(6) 0.2836(7)
N3 N 0.6492(8) 0.3356(5) 0.4609(5)
O14 O 0.7386(4) 0.3604(3) 0.3631(3)
C39 C 0.6661(8) 0.3741(6) 0.4089(5)
C40 C 0.5832(6) 0.4318(4) 0.3982(4)
C41 C 0.5551(10) 0.3368(7) 0.5087(5)
C42 C 0.7273(8) 0.2715(5) 0.4776(6)
N4 N 0.0893(9) 0.7308(10) 0.0407(7)
O15 O -0.0991(3) 0.6632(3) -0.0342(2)
C43 C -0.0072(5) 0.8421(4) 0.0622(5)
C44 C 0.0867(5) 0.6216(4) -0.0028(5)
C45 C 0.1988(5) 0.8069(4) 0.1091(4)
C46 C 0.0063(12) 0.7599(13) 0.0347(9)
N5 N 0.2112(8) 0.9193(5) -0.0968(4)
O16 O 0.0447(7) 0.8377(9) -0.1737(6)
C47 C 0.2116(9) 0.7728(6) -0.1455(9)
C48 C 0.1682(14) 1.0043(7) -0.0769(9)
C49 C 0.3387(9) 0.9591(13) -0.0412(9)
C51 C 0.1678(10) 0.8482(7) -0.1393(7)
loop_
_geom_bond_atom_site_label_1
_geom_bond_atom_site_label_2
_geom_bond_site_symmetry_1
_geom_bond_site_symmetry_2
Mn1 O3 1_555 1_555
O1 C2 1_555 1_555
N1 C33 1_555 1_555
C1 C2 1_555 1_555
Mn2 O2 1_555 1_555
O2 C8 1_555 1_555
N2 C36 1_555 1_555
C2 H1 1_555 1_555
H2 C2 1_555 1_555
O3 C8 1_555 1_555
C3 O1 1_555 1_555
O4 C9 1_555 1_555
N3 C39 1_555 1_555
C4 C3 1_555 1_555
H3 C4 1_555 1_555
O5 C16 1_555 1_555
O6 C16 1_555 1_555
N4 C44 1_555 1_555
C5 C6 1_555 1_555
O7 C17 1_555 1_555
C6 H4 1_555 1_555
O8 C24 1_555 1_555
N5 C48 1_555 1_555
C7 C3 1_555 1_555
H5 C7 1_555 1_555
O9 C24 1_555 1_555
C8 C5 1_555 1_555
O10 C25 1_555 1_555
C9 C1 1_555 1_555
H6 C9 1_555 1_555
H7 C9 1_555 1_555
O11 C32 1_555 1_555
C10 O4 1_555 1_555
O12 C32 1_555 1_555
C11 C10 1_555 1_555
H8 C11 1_555 1_555
O13 C36 1_555 1_555
C12 C11 1_555 1_555
H9 C12 1_555 1_555
O14 C39 1_555 1_555
C13 C12 1_555 1_555
O15 C46 1_555 1_555
C14 C13 1_555 1_555
H10 C14 1_555 1_555
O16 C51 1_555 1_555
C15 C10 1_555 1_555
H11 C15 1_555 1_555
C16 C13 1_555 1_555
C17 C1 1_555 1_555
H12 C17 1_555 1_555
H13 C17 1_555 1_555
C18 O7 1_555 1_555
C19 C18 1_555 1_555
H14 C19 1_555 1_555
C20 C19 1_555 1_555
H15 C20 1_555 1_555
C21 C20 1_555 1_555
C22 C21 1_555 1_555
H16 C22 1_555 1_555
C23 C18 1_555 1_555
H17 C23 1_555 1_555
C24 C21 1_555 1_555
C25 C1 1_555 1_555
H18 C25 1_555 1_555
H19 C25 1_555 1_555
C26 O10 1_555 1_555
C27 C26 1_555 1_555
H20 C27 1_555 1_555
C28 C27 1_555 1_555
H21 C28 1_555 1_555
C29 C28 1_555 1_555
C30 C29 1_555 1_555
H22 C30 1_555 1_555
C31 C26 1_555 1_555
H23 C31 1_555 1_555
C32 C29 1_555 1_555
C34 N1 1_555 1_555
C35 C36 1_555 1_555
C37 N2 1_555 1_555
C38 N2 1_555 1_555
C39 C40 1_555 1_555
C41 N3 1_555 1_555
C42 N3 1_555 1_555
C43 C46 1_555 1_555
C45 N4 1_555 1_555
C46 N4 1_555 1_555
C47 C51 1_555 1_555
C49 N5 1_555 1_555
C50 C4 1_555 1_555
H24 C50 1_555 1_555
C51 N5 1_555 1_555
Mn1A O3A 1_555 1_555
Mn1_2 O5 1_555 1_555
Mn1_3 O8 1_555 1_555
Mn1_4 O11 1_555 1_555
Mn1A_2 O5A 1_555 1_555
Mn1A_3 O8A 1_555 1_555
Mn1A_4 O11A 1_555 1_555
O1A C2A 1_555 1_555
C1A C2A 1_555 1_555
Mn2_2 O8 1_555 1_555
Mn2_3 O12 1_555 1_555
Mn2_4 O8A 1_555 1_555
Mn2_5 O12A 1_555 1_555
O2A Mn2 1_555 1_555
C2A H1A 1_555 1_555
H2A C2A 1_555 1_555
O3A C8A 1_555 1_555
C3A O1A 1_555 1_555
O4A C9A 1_555 1_555
C4A C3A 1_555 1_555
H3A C4A 1_555 1_555
O5A C16A 1_555 1_555
O5_2 Mn1 1_555 1_555
O5A_2 Mn1A 1_555 1_555
O6A Mn1A_2 1_555 1_555
O6_2 Mn1 1_555 1_555
O6A_2 Mn1A 1_555 1_555
C5A C6A 1_555 1_555
O7A C17A 1_555 1_555
C6A H4A 1_555 1_555
O8A C24A 1_555 1_555
O8_2 Mn1 1_555 1_555
O8A_2 Mn2 1_555 1_555
C7A C3A 1_555 1_555
H5A C7A 1_555 1_555
O9A Mn1A_3 1_555 1_555
O9_2 Mn1 1_555 1_555
O9A_2 Mn1A 1_555 1_555
C8A O2A 1_555 1_555
O10A C25A 1_555 1_555
C9A C1A 1_555 1_555
H6A C9A 1_555 1_555
H7A C9A 1_555 1_555
O11A C32A 1_555 1_555
O11_2 Mn1 1_555 1_555
O11A_2 Mn1A 1_555 1_555
C10A O4A 1_555 1_555
O12A C32A 1_555 1_555
O12_2 Mn2 1_555 1_555
O12A_2 Mn2 1_555 1_555
C11A C10A 1_555 1_555
H8A C11A 1_555 1_555
C12A C11A 1_555 1_555
H9A C12A 1_555 1_555
C13A C12A 1_555 1_555
C14A C13A 1_555 1_555
H10A C14A 1_555 1_555
C15A C10A 1_555 1_555
H11A C15A 1_555 1_555
C16A O6A 1_555 1_555
C17A C1A 1_555 1_555
H12A C17A 1_555 1_555
H13A C17A 1_555 1_555
C18A O7A 1_555 1_555
C19A C18A 1_555 1_555
H14A C19A 1_555 1_555
C20A C19A 1_555 1_555
H15A C20A 1_555 1_555
C21A C20A 1_555 1_555
C22A C21A 1_555 1_555
H16A C22A 1_555 1_555
C23A C18A 1_555 1_555
H17A C23A 1_555 1_555
C24A O9A 1_555 1_555
C25A C1A 1_555 1_555
H18A C25A 1_555 1_555
H19A C25A 1_555 1_555
C26A O10A 1_555 1_555
C27A C26A 1_555 1_555
H20A C27A 1_555 1_555
C28A C27A 1_555 1_555
H21A C28A 1_555 1_555
C29A C28A 1_555 1_555
C30A C29A 1_555 1_555
H22A C30A 1_555 1_555
C31A C26A 1_555 1_555
H23A C31A 1_555 1_555
C32A C29A 1_555 1_555
C50A C4A 1_555 1_555
H24A C50A 1_555 1_555
Mn2 O8_2 1_555 1_555
O6 Mn1_2 1_555 1_555
C5 C50 1_555 1_555
C6 C7 1_555 1_555
O9 Mn1_3 1_555 1_555
C14 C15 1_555 1_555
C22 C23 1_555 1_555
C30 C31 1_555 1_555
Mn1A O8A_2 1_555 1_555
C5A C8A 1_555 1_555
C5A C50A 1_555 1_555
C6A C7A 1_555 1_555
C13A C16A 1_555 1_555
C14A C15A 1_555 1_555
C21A C24A 1_555 1_555
C22A C23A 1_555 1_555
C30A C31A 1_555 1_555

#END
