
#######################################################################
#
#                 Cambridge Crystallographic Data Centre
#                                CCDC 
#
#######################################################################
#
# If this CIF has been generated from an entry in the Cambridge 
# Structural Database, then it will include bibliographic, chemical, 
# crystal, experimental, refinement or atomic coordinate data resulting 
# from the CCDC's data processing and validation procedures.
#
#######################################################################

data_HAWWEK
_chemical_formula_moiety         '(C8 H8 Cu1 I5 N4)n'
_symmetry_cell_setting           orthorhombic
_symmetry_space_group_name_H-M   'F d d 2'
_symmetry_Int_Tables_number      43
_space_group_name_Hall           'F 2 -2d'
loop_
_symmetry_equiv_pos_site_id
_symmetry_equiv_pos_as_xyz
1 x,y,z
2 -x,-y,z
3 1/4-x,1/4+y,1/4+z
4 1/4+x,1/4-y,1/4+z
5 x,1/2+y,1/2+z
6 -x,1/2-y,1/2+z
7 1/4-x,3/4+y,3/4+z
8 1/4+x,3/4-y,3/4+z
9 1/2+x,y,1/2+z
10 1/2-x,-y,1/2+z
11 3/4-x,1/4+y,3/4+z
12 3/4+x,1/4-y,3/4+z
13 1/2+x,1/2+y,z
14 1/2-x,1/2-y,z
15 3/4-x,3/4+y,1/4+z
16 3/4+x,3/4-y,1/4+z
_cell_length_a                   18.9011(8)
_cell_length_b                   14.8488(7)
_cell_length_c                   12.9302(6)
_cell_angle_alpha                90
_cell_angle_beta                 90
_cell_angle_gamma                90
_cell_volume                     3628.97
loop_
_atom_site_label
_atom_site_type_symbol
_atom_site_fract_x
_atom_site_fract_y
_atom_site_fract_z
_atom_site_U_iso_or_equiv
_atom_site_thermal_displace_type
Cu1 Cu 0.5000 0.5000 0.7240(2) 0.0425 Uani
N1 N 0.5711(5) 0.4240(7) 0.6461(8) 0.0340 Uani
N2 N 0.6807(5) 0.3281(7) 0.5531(8) 0.0360 Uani
C1 C 0.5999(7) 0.4491(10) 0.5550(11) 0.0450 Uani
H1 H 0.5829 0.5003 0.5218 0.0540 Uiso
C2 C 0.6530(6) 0.4016(9) 0.5111(11) 0.0383 Uani
H2 H 0.6710 0.4215 0.4481 0.0460 Uiso
C3 C 0.6514(7) 0.3025(10) 0.6440(11) 0.0393 Uani
H3 H 0.6681 0.2510 0.6769 0.0470 Uiso
C4 C 0.5979(7) 0.3503(9) 0.6883(11) 0.0433 Uani
H4 H 0.5794 0.3303 0.7509 0.0520 Uiso
N1A N 0.4289(5) 0.5760(7) 0.6461(8) 0.0340 Uani
N2A N 0.3193(5) 0.6719(7) 0.5531(8) 0.0360 Uani
C1A C 0.4001(7) 0.5509(10) 0.5550(11) 0.0450 Uani
H1A H 0.4171 0.4997 0.5218 0.0540 Uiso
C2A C 0.3470(6) 0.5984(9) 0.5111(11) 0.0383 Uani
H2A H 0.3290 0.5785 0.4481 0.0460 Uiso
C3A C 0.3486(7) 0.6975(10) 0.6440(11) 0.0393 Uani
H3A H 0.3319 0.7490 0.6769 0.0470 Uiso
C4A C 0.4021(7) 0.6497(9) 0.6883(11) 0.0433 Uani
H4A H 0.4206 0.6697 0.7509 0.0520 Uiso
Cu1F Cu 0.7500 0.2500 0.4740(2) 0.0425 Uani
Cu1J Cu 0.2500 0.7500 0.4740(2) 0.0425 Uani
N2B N 0.5693(5) 0.5781(7) 0.8031(8) 0.0360 Uani
N2O N 0.4307(5) 0.4219(7) 0.8031(8) 0.0360 Uani
I1 I 0.72166(6) 0.48062(8) 0.20970(8) 0.0618 Uani
I2 I 0.73230(6) 0.61005(8) 0.36792(8) 0.0557 Uani
I3 I 0.7500 0.7500 0.54186(12) 0.0694 Uani
I1M I 0.77834(6) 1.01938(8) 0.20970(8) 0.0618 Uani
I2M I 0.76770(6) 0.88995(8) 0.36792(8) 0.0557 Uani
loop_
_atom_site_aniso_label
_atom_site_aniso_U_11
_atom_site_aniso_U_22
_atom_site_aniso_U_33
_atom_site_aniso_U_23
_atom_site_aniso_U_13
_atom_site_aniso_U_12
Cu1 0.0292(11) 0.0467(15) 0.0517(15) 0.000 0.000 0.0002(10)
N1 0.027(5) 0.038(6) 0.037(6) -0.004(5) 0.000(5) -0.003(4)
N2 0.032(5) 0.046(7) 0.030(6) 0.003(6) -0.001(5) -0.004(5)
C1 0.050(9) 0.045(9) 0.040(8) 0.003(7) -0.004(7) 0.000(7)
C2 0.038(8) 0.039(8) 0.038(7) 0.017(7) 0.011(6) -0.003(6)
C3 0.029(6) 0.045(9) 0.044(8) 0.005(7) -0.001(6) -0.002(6)
C4 0.050(8) 0.045(9) 0.035(8) 0.000(7) 0.010(7) 0.009(7)
N1A 0.027 0.038 0.037 0.004 0 -0.003
N2A 0.032 0.046 0.03 -0.003 0.001 -0.004
C1A 0.05 0.045 0.04 -0.003 0.004 0
C2A 0.038 0.039 0.038 -0.017 -0.011 -0.003
C3A 0.029 0.045 0.044 -0.005 0.001 -0.002
C4A 0.05 0.045 0.035 0 -0.01 0.009
Cu1F 0.0292 0.0467 0.0517 0 0 -0.0002
Cu1J 0.0292 0.0467 0.0517 0 0 -0.0002
N2B 0.032 0.046 0.03 0.003 0.001 0.004
N2O 0.032 0.046 0.03 -0.003 -0.001 0.004
I1 0.0662(7) 0.0655(7) 0.0538(7) 0.0092(6) 0.0032(6) 0.0039(5)
I2 0.0562(6) 0.0519(6) 0.0589(6) 0.0171(5) 0.0102(5) 0.0030(5)
I3 0.0774(11) 0.0803(12) 0.0505(10) 0.000 0.000 -0.0083(9)
I1M 0.0662 0.0655 0.0538 -0.0092 -0.0032 0.0039
I2M 0.0562 0.0519 0.0589 -0.0171 -0.0102 0.003
loop_
_geom_bond_atom_site_label_1
_geom_bond_atom_site_label_2
_geom_bond_site_symmetry_1
_geom_bond_site_symmetry_2
Cu1 N1 1_555 1_555
N1 C1 1_555 1_555
N2 C2 1_555 1_555
C1 H1 1_555 1_555
C2 C1 1_555 1_555
H2 C2 1_555 1_555
C3 N2 1_555 1_555
H3 C3 1_555 1_555
C4 N1 1_555 1_555
H4 C4 1_555 1_555
I1 I2 1_555 1_555
I2 I3 1_555 1_555
I3 I2M 1_555 1_555
N1A Cu1 1_555 1_555
N2A C2A 1_555 1_555
C1A N1A 1_555 1_555
H1A C1A 1_555 1_555
C2A C1A 1_555 1_555
H2A C2A 1_555 1_555
C3A N2A 1_555 1_555
H3A C3A 1_555 1_555
C4A N1A 1_555 1_555
H4A C4A 1_555 1_555
Cu1F N2 1_555 1_555
Cu1J N2A 1_555 1_555
N2B Cu1 1_555 1_555
N2O Cu1 1_555 1_555
I1M I2M 1_555 1_555
C3 C4 1_555 1_555
C3A C4A 1_555 1_555

#END
