
#######################################################################
#
#                 Cambridge Crystallographic Data Centre
#                                CCDC 
#
#######################################################################
#
# If this CIF has been generated from an entry in the Cambridge 
# Structural Database, then it will include bibliographic, chemical, 
# crystal, experimental, refinement or atomic coordinate data resulting 
# from the CCDC's data processing and validation procedures.
#
#######################################################################

data_QAPQEE
_chemical_formula_moiety         '(C13 H14 Ag1 F6 N6 O1 P1)n'
_symmetry_cell_setting           monoclinic
_symmetry_space_group_name_H-M   'C 2/c'
_symmetry_Int_Tables_number      15
_space_group_name_Hall           '-C 2yc'
loop_
_symmetry_equiv_pos_site_id
_symmetry_equiv_pos_as_xyz
1 x,y,z
2 1/2+x,1/2+y,z
3 -x,y,1/2-z
4 1/2-x,1/2+y,1/2-z
5 -x,-y,-z
6 1/2-x,1/2-y,-z
7 x,-y,1/2+z
8 1/2+x,1/2-y,1/2+z
_cell_length_a                   15.2035(10)
_cell_length_b                   16.5919(11)
_cell_length_c                   16.1240(10)
_cell_angle_alpha                90
_cell_angle_beta                 116.8490(10)
_cell_angle_gamma                90
_cell_volume                     3628.9
loop_
_atom_site_label
_atom_site_type_symbol
_atom_site_fract_x
_atom_site_fract_y
_atom_site_fract_z
_atom_site_U_iso_or_equiv
_atom_site_thermal_displace_type
Ag1 Ag 0.070275(14) 0.411062(11) 0.395584(13) 0.0253 Uani
C1 C 0.16677(18) 0.26358(15) 0.55504(16) 0.0218 Uani
H1 H 0.1890 0.3055 0.6001 0.0260 Uiso
C2 C 0.20316(17) 0.18656(14) 0.58266(16) 0.0195 Uani
C3 C 0.17143(19) 0.12508(15) 0.51683(17) 0.0248 Uani
H2 H 0.1957 0.0717 0.5335 0.0300 Uiso
C4 C 0.1037(2) 0.14335(16) 0.42644(18) 0.0281 Uani
H3 H 0.0806 0.1028 0.3798 0.0340 Uiso
C5 C 0.07047(18) 0.22158(17) 0.40574(17) 0.0270 Uani
H4 H 0.0228 0.2334 0.3440 0.0320 Uiso
C6 C 0.3896(3) 0.09724(18) 1.0986(2) 0.0406 Uani
H5 H 0.4002 0.0855 1.1601 0.0490 Uiso
C7 C 0.3674(3) 0.1752(2) 1.0673(2) 0.0568 Uani
H6 H 0.3637 0.2162 1.1067 0.0680 Uiso
C8 C 0.3505(3) 0.19315(18) 0.9771(2) 0.0447 Uani
H7 H 0.3342 0.2464 0.9534 0.0540 Uiso
C9 C 0.35782(19) 0.13167(15) 0.92283(17) 0.0244 Uani
C10 C 0.38134(18) 0.05481(15) 0.96051(16) 0.0219 Uani
H8 H 0.3867 0.0128 0.9230 0.0260 Uiso
C11 C 0.27620(18) 0.16705(13) 0.67845(16) 0.0191 Uani
C12 C 0.34293(18) 0.14270(14) 0.82700(16) 0.0214 Uani
N1 N 0.10146(15) 0.28183(13) 0.46741(14) 0.0246 Uani
N2 N 0.39687(16) 0.03704(13) 1.04698(14) 0.0256 Uani
N3 N 0.40322(15) 0.11563(12) 0.79582(13) 0.0207 Uani
N4 N 0.36062(15) 0.13110(12) 0.70120(13) 0.0210 Uani
N5 N 0.26295(15) 0.17698(12) 0.75621(13) 0.0215 Uani
N6 N 0.18221(19) 0.20960(16) 0.76514(16) 0.0308 Uani
H9 H 0.132(2) 0.1817(19) 0.728(2) 0.0330 Uiso
H10 H 0.182(2) 0.263(2) 0.750(2) 0.0460 Uiso
Ag1C Ag 0.429725(14) -0.088938(11) 1.104416(13) 0.0253 Uani
Ag1G Ag 0.570275(14) 0.088938(11) 0.895584(13) 0.0253 Uani
Ag1E Ag 0.429725(14) 0.088938(11) 0.604416(13) 0.0253 Uani
N2C N 0.10313(16) 0.53704(13) 0.45302(14) 0.0256 Uani
N3G N -0.09678(15) 0.38437(12) 0.29582(13) 0.0207 Uani
N4E N 0.13938(15) 0.36890(12) 0.29880(13) 0.0210 Uani
P1 P 0.3005(3) 0.4211(2) 0.7878(3) 0.0309 Uani
F1 F 0.3432(9) 0.3511(6) 0.7463(8) 0.0660 Uani
F2 F 0.2588(3) 0.4891(2) 0.8275(3) 0.0736 Uani
F3 F 0.3024(3) 0.4822(3) 0.7129(4) 0.0796 Uani
F4 F 0.1912(8) 0.3945(7) 0.7183(5) 0.0491 Uani
F5 F 0.2999(3) 0.3591(2) 0.8616(2) 0.0598 Uani
F6 F 0.4109(2) 0.4468(2) 0.8594(3) 0.0587 Uani
O1 O -0.0117(4) 0.0915(3) 0.8291(4) 0.0456 Uani
H11 H -0.037(7) 0.048(3) 0.826(7) 0.0900 Uiso
C13 C 0.0784(12) 0.0920(8) 0.9064(10) 0.0515 Uani
H12 H 0.1165 0.1388 0.9039 0.0780 Uiso
H13 H 0.1142 0.0424 0.9080 0.0780 Uiso
H14 H 0.0687 0.0951 0.9625 0.0780 Uiso
loop_
_atom_site_aniso_label
_atom_site_aniso_U_11
_atom_site_aniso_U_22
_atom_site_aniso_U_33
_atom_site_aniso_U_23
_atom_site_aniso_U_13
_atom_site_aniso_U_12
Ag1 0.02855(13) 0.02572(12) 0.02132(12) -0.00429(7) 0.01087(9) 0.00038(7)
C1 0.0263(13) 0.0231(12) 0.0155(11) -0.0004(9) 0.0089(10) -0.0033(10)
C2 0.0203(12) 0.0222(12) 0.0172(12) -0.0001(9) 0.0094(10) -0.0023(9)
C3 0.0267(13) 0.0216(12) 0.0257(13) 0.0002(10) 0.0116(11) -0.0018(10)
C4 0.0305(14) 0.0294(14) 0.0207(13) -0.0065(10) 0.0084(11) -0.0081(11)
C5 0.0266(13) 0.0319(14) 0.0164(12) 0.0010(10) 0.0044(10) -0.0032(11)
C6 0.063(2) 0.0435(17) 0.0202(14) 0.0076(12) 0.0230(14) 0.0228(15)
C7 0.105(3) 0.0435(19) 0.0263(16) 0.0031(14) 0.0336(18) 0.0338(19)
C8 0.077(2) 0.0292(15) 0.0249(15) 0.0044(12) 0.0203(15) 0.0221(15)
C9 0.0303(13) 0.0240(13) 0.0177(12) 0.0022(10) 0.0099(10) 0.0054(10)
C10 0.0249(12) 0.0234(12) 0.0180(12) -0.0002(10) 0.0102(10) 0.0020(10)
C11 0.0250(12) 0.0152(11) 0.0178(12) -0.0005(9) 0.0103(10) -0.0032(9)
C12 0.0274(13) 0.0170(11) 0.0192(12) 0.0007(9) 0.0100(10) -0.0007(10)
N1 0.0272(11) 0.0259(11) 0.0179(10) 0.0026(8) 0.0077(9) -0.0007(9)
N2 0.0313(12) 0.0285(12) 0.0185(11) 0.0036(8) 0.0126(9) 0.0062(9)
N3 0.0237(11) 0.0213(10) 0.0157(10) 0.0019(8) 0.0076(8) -0.0016(8)
N4 0.0236(10) 0.0229(10) 0.0153(10) 0.0006(8) 0.0077(8) -0.0001(8)
N5 0.0279(11) 0.0193(10) 0.0189(10) 0.0030(8) 0.0120(9) 0.0061(8)
N6 0.0370(14) 0.0349(14) 0.0252(12) 0.0038(11) 0.0182(11) 0.0135(11)
Ag1C 0.02855 0.02572 0.02132 0.00429 0.01087 -0.00038
Ag1G 0.02855 0.02572 0.02132 0.00429 0.01087 -0.00038
Ag1E 0.02855 0.02572 0.02132 -0.00429 0.01087 0.00038
N2C 0.0313 0.0285 0.0185 -0.0036 0.0126 -0.0062
N3G 0.0237 0.0213 0.0157 -0.0019 0.0076 0.0016
N4E 0.0236 0.0229 0.0153 0.0006 0.0077 -0.0001
P1 0.0341(15) 0.0225(8) 0.0316(15) -0.0005(8) 0.0108(8) 0.0064(8)
F1 0.070(5) 0.088(7) 0.050(4) -0.012(4) 0.036(3) 0.021(4)
F2 0.055(2) 0.060(2) 0.082(3) -0.045(2) 0.010(2) 0.0170(18)
F3 0.063(2) 0.076(3) 0.082(4) 0.051(3) 0.017(2) 0.000(2)
F4 0.045(3) 0.041(2) 0.045(3) -0.012(2) 0.006(2) 0.0030(17)
F5 0.071(2) 0.061(2) 0.0403(19) 0.0138(16) 0.0190(16) -0.0081(18)
F6 0.0376(19) 0.044(2) 0.071(3) 0.0077(17) 0.0038(17) 0.0002(14)
O1 0.049(3) 0.041(3) 0.038(3) 0.010(2) 0.012(2) -0.001(2)
C13 0.072(9) 0.033(5) 0.032(6) -0.001(4) 0.008(5) -0.008(4)
loop_
_geom_bond_atom_site_label_1
_geom_bond_atom_site_label_2
_geom_bond_site_symmetry_1
_geom_bond_site_symmetry_2
Ag1 N1 1_555 1_555
C1 H1 1_555 1_555
C2 C1 1_555 1_555
C3 C2 1_555 1_555
H2 C3 1_555 1_555
C4 C3 1_555 1_555
H3 C4 1_555 1_555
C5 C4 1_555 1_555
H4 C5 1_555 1_555
C6 H5 1_555 1_555
C7 C6 1_555 1_555
H6 C7 1_555 1_555
C8 C7 1_555 1_555
H7 C8 1_555 1_555
C9 C8 1_555 1_555
C10 C9 1_555 1_555
H8 C10 1_555 1_555
C11 C2 1_555 1_555
C12 C9 1_555 1_555
N1 C1 1_555 1_555
N2 C6 1_555 1_555
N3 C12 1_555 1_555
N4 C11 1_555 1_555
N5 C11 1_555 1_555
N6 N5 1_555 1_555
H9 N6 1_555 1_555
H10 N6 1_555 1_555
P1 F1 1_555 1_555
F2 P1 1_555 1_555
F3 P1 1_555 1_555
F4 P1 1_555 1_555
F5 P1 1_555 1_555
F6 P1 1_555 1_555
O1 H11 1_555 1_555
C13 O1 1_555 1_555
H12 C13 1_555 1_555
H13 C13 1_555 1_555
H14 C13 1_555 1_555
Ag1C N2 1_555 1_555
Ag1G N3 1_555 1_555
Ag1E N4 1_555 1_555
N2C Ag1 1_555 1_555
N3G Ag1 1_555 1_555
N4E Ag1 1_555 1_555
C5 N1 1_555 1_555
C10 N2 1_555 1_555
C12 N5 1_555 1_555
N3 N4 1_555 1_555

#END
