
#######################################################################
#
#                 Cambridge Crystallographic Data Centre
#                                CCDC 
#
#######################################################################
#
# If this CIF has been generated from an entry in the Cambridge 
# Structural Database, then it will include bibliographic, chemical, 
# crystal, experimental, refinement or atomic coordinate data resulting 
# from the CCDC's data processing and validation procedures.
#
#######################################################################

data_OTEBEW
_chemical_formula_moiety         'C156 H132 Al19 O56'
_symmetry_cell_setting           tetragonal
_symmetry_space_group_name_H-M   'P 42 21 2'
_symmetry_Int_Tables_number      94
_space_group_name_Hall           'P 4n 2n'
loop_
_symmetry_equiv_pos_site_id
_symmetry_equiv_pos_as_xyz
1 x,y,z
2 1/2-y,1/2+x,1/2+z
3 -x,-y,z
4 1/2+y,1/2-x,1/2+z
5 1/2+x,1/2-y,1/2-z
6 1/2-x,1/2+y,1/2-z
7 y,x,-z
8 -y,-x,-z
_cell_length_a                   18.5251(7)
_cell_length_b                   18.5251(7)
_cell_length_c                   37.4577(15)
_cell_angle_alpha                90
_cell_angle_beta                 90
_cell_angle_gamma                90
_cell_volume                     12854.7
loop_
_atom_site_label
_atom_site_type_symbol
_atom_site_fract_x
_atom_site_fract_y
_atom_site_fract_z
Al1 Al 0.33662(3) 0.66338(3) 0.5000
Al2 Al 0.40938(3) 0.63523(4) 0.57916(2)
Al3 Al 0.5000 0.5000 0.61422(2)
O1 O 0.37504(8) 0.60585(8) 0.53524(4)
H1 H 0.3775 0.5556 0.5303
O2 O 0.26762(9) 0.70213(10) 0.53268(4)
O3 O 0.33598(9) 0.70573(9) 0.58196(4)
O4 O 0.48241(8) 0.56893(8) 0.57995(4)
H2 H 0.5151 0.5702 0.5604
C1 C 0.21023(13) 0.70967(14) 0.58900(6)
C2 C -0.04030(12) 0.86685(14) 0.84829(6)
C3 C 0.27566(12) 0.70673(13) 0.56608(6)
C4 C -0.34494(12) 0.49263(13) 0.61533(5)
C5 C 0.14151(15) 0.7043(2) 0.57439(7)
H3 H 0.1356 0.7044 0.5492
C6 C -0.27856(13) 0.52778(15) 0.62945(7)
C7 C 0.15807(14) 0.70520(17) 0.64809(6)
H4 H 0.1636 0.7063 0.6733
C8 C -0.03867(14) 0.82835(15) 0.81352(6)
C9 C -0.28714(14) 0.59197(17) 0.64889(8)
H5 H -0.3341 0.6107 0.6532
C10 C 0.09027(14) 0.69912(17) 0.63337(7)
C11 C -0.07376(15) 0.76244(17) 0.80918(7)
H6 H -0.0982 0.7414 0.8289
C12 C -0.21051(14) 0.49826(18) 0.62431(7)
H7 H -0.2053 0.4541 0.6117
C13 C 0.02285(15) 0.72577(19) 0.68985(7)
H8 H 0.0626 0.7546 0.6972
C14 C -0.00261(18) 0.8227(2) 0.75162(7)
H9 H 0.0222 0.8435 0.7320
C15 C -0.00263(17) 0.85786(17) 0.78388(7)
H10 H 0.0220 0.9026 0.7862
C16 C 0.02534(14) 0.69062(19) 0.65677(7)
C17 C -0.03804(15) 0.75777(19) 0.74720(7)
C18 C -0.15784(14) 0.59928(18) 0.65599(7)
C19 C -0.03714(15) 0.71912(19) 0.71218(7)
C20 C 0.21870(14) 0.70972(17) 0.62619(7)
H11 H 0.2655 0.7128 0.6364
C21 C -0.22647(15) 0.62809(19) 0.66182(9)
H12 H -0.2318 0.6721 0.6745
C22 C -0.03282(15) 0.6484(2) 0.64636(7)
H13 H -0.0314 0.6240 0.6240
C23 C -0.07361(16) 0.72702(17) 0.77662(7)
H14 H -0.0975 0.6819 0.7742
C24 C -0.09346(15) 0.64112(19) 0.66826(8)
C25 C 0.08184(16) 0.6990(2) 0.59626(8)
H15 H 0.0350 0.6952 0.5861
C26 C -0.14995(15) 0.53356(18) 0.63766(8)
H16 H -0.1033 0.5133 0.6344
C27 C -0.09629(15) 0.67756(19) 0.70100(8)
H17 H -0.1381 0.6741 0.7156
O5 O -0.34033(8) 0.42925(9) 0.60277(4)
O6 O 0.47066(9) 0.70673(10) 0.55889(4)
O7 O 0.40569(10) 0.73845(9) 0.51044(4)
O8 O -0.40274(9) 0.52884(9) 0.61751(5)
O9 O -0.06295(9) 0.83127(10) 0.87481(4)
O10 O -0.01901(10) 0.93217(10) 0.84862(4)
C28 C 0.45654(16) 0.74718(15) 0.53257(7)
C29 C 0.5028(7) 0.8150(7) 0.5293(3)
H18 H 0.5537 0.8032 0.5349
H19 H 0.4860 0.8517 0.5467
C30 C 0.4971(8) 0.8474(7) 0.4886(4)
H20 H 0.4835 0.8089 0.4711
C31 C 0.4377(10) 0.8936(8) 0.4961(5)
H21 H 0.4428 0.9200 0.5190
H22 H 0.3904 0.8687 0.4950
C32 C 0.5315(10) 0.9525(9) 0.4578(4)
C33 C 0.5640(8) 0.8867(8) 0.4769(4)
H23 H 0.5837 0.9073 0.4996
C34 C 0.4545(9) 0.9442(10) 0.4606(4)
H24 H 0.4353 0.9207 0.4389
C35 C 0.6319(8) 0.8662(8) 0.4555(4)
H25 H 0.6329 0.8940 0.4329
H26 H 0.6755 0.8792 0.4694
C36 C 0.6333(8) 0.7874(8) 0.4473(4)
H27 H 0.5901 0.7616 0.4521
C37 C 0.6884(10) 0.7486(9) 0.4340(4)
H28 H 0.6927 0.7004 0.4424
C38 C 0.7453(9) 0.7732(10) 0.4065(5)
H29 H 0.7206 0.7960 0.3859
H30 H 0.7771 0.8098 0.4176
C39 C 0.7906(11) 0.7110(11) 0.3933(6)
H31 H 0.8041 0.7194 0.3684
H32 H 0.7628 0.6662 0.3951
H33 H 0.8343 0.7072 0.4079
Al2B Al -0.40938(3) 0.36477(4) 0.57916(2)
O1B O -0.37504(8) 0.39415(8) 0.53524(4)
H1B H -0.3775 0.4444 0.5303
O2B O -0.26762(9) 0.29787(10) 0.53268(4)
O3B O -0.33598(9) 0.29427(9) 0.58196(4)
O4B O -0.48241(8) 0.43107(8) 0.57995(4)
H2B H -0.5151 0.4298 0.5604
C1B C -0.21023(13) 0.29033(14) 0.58900(6)
C2B C 0.04030(12) 0.13315(14) 0.84829(6)
C3B C -0.27566(12) 0.29327(13) 0.56608(6)
C4B C 0.34494(12) 0.50737(13) 0.61533(5)
C5B C -0.14151(15) 0.2957(2) 0.57439(7)
H3B H -0.1356 0.2956 0.5492
C6B C 0.27856(13) 0.47222(15) 0.62945(7)
C7B C -0.15807(14) 0.29480(17) 0.64809(6)
H4B H -0.1636 0.2937 0.6733
C8B C 0.03867(14) 0.17165(15) 0.81352(6)
C9B C 0.28714(14) 0.40803(17) 0.64889(8)
H5B H 0.3341 0.3893 0.6532
C10B C -0.09027(14) 0.30088(17) 0.63337(7)
C11B C 0.07376(15) 0.23756(17) 0.80918(7)
H6B H 0.0982 0.2586 0.8289
C12B C 0.21051(14) 0.50174(18) 0.62431(7)
H7B H 0.2053 0.5459 0.6117
C13B C -0.02285(15) 0.27423(19) 0.68985(7)
H8B H -0.0626 0.2454 0.6972
C14B C 0.00261(18) 0.1773(2) 0.75162(7)
H9B H -0.0222 0.1565 0.7320
C15B C 0.00263(17) 0.14214(17) 0.78388(7)
H10B H -0.0220 0.0974 0.7862
C16B C -0.02534(14) 0.30938(19) 0.65677(7)
C17B C 0.03804(15) 0.24223(19) 0.74720(7)
C18B C 0.15784(14) 0.40072(18) 0.65599(7)
C19B C 0.03714(15) 0.28088(19) 0.71218(7)
C20B C -0.21870(14) 0.29028(17) 0.62619(7)
H11B H -0.2655 0.2872 0.6364
C21B C 0.22647(15) 0.37191(19) 0.66182(9)
H12B H 0.2318 0.3279 0.6745
C22B C 0.03282(15) 0.3516(2) 0.64636(7)
H13B H 0.0314 0.3760 0.6240
C23B C 0.07361(16) 0.27298(17) 0.77662(7)
H14B H 0.0975 0.3181 0.7742
C24B C 0.09346(15) 0.35888(19) 0.66826(8)
C25B C -0.08184(16) 0.3010(2) 0.59626(8)
H15B H -0.0350 0.3048 0.5861
C26B C 0.14995(15) 0.46644(18) 0.63766(8)
H16B H 0.1033 0.4867 0.6344
C27B C 0.09629(15) 0.32244(19) 0.70100(8)
H17B H 0.1381 0.3259 0.7156
O5B O 0.34033(8) 0.57075(9) 0.60277(4)
O6B O -0.47066(9) 0.29327(10) 0.55889(4)
O7B O -0.40569(10) 0.26155(9) 0.51044(4)
O8B O 0.40274(9) 0.47116(9) 0.61751(5)
O9B O 0.06295(9) 0.16873(10) 0.87481(4)
O10B O 0.01901(10) 0.06783(10) 0.84862(4)
C28B C -0.45654(16) 0.25282(15) 0.53257(7)
C29B C -0.5028(7) 0.1850(7) 0.5293(3)
H18B H -0.5537 0.1968 0.5349
H19B H -0.4860 0.1483 0.5467
C30B C -0.4971(8) 0.1526(7) 0.4886(4)
H20B H -0.4835 0.1911 0.4711
C31B C -0.4377(10) 0.1064(8) 0.4961(5)
H21B H -0.4428 0.0800 0.5190
H22B H -0.3904 0.1313 0.4950
C32B C -0.5315(10) 0.0475(9) 0.4578(4)
C33B C -0.5640(8) 0.1133(8) 0.4769(4)
H23B H -0.5837 0.0927 0.4996
C34B C -0.4545(9) 0.0558(10) 0.4606(4)
H24B H -0.4353 0.0793 0.4389
C35B C -0.6319(8) 0.1338(8) 0.4555(4)
H25B H -0.6329 0.1060 0.4329
H26B H -0.6755 0.1208 0.4694
C36B C -0.6333(8) 0.2126(8) 0.4473(4)
H27B H -0.5901 0.2384 0.4521
C37B C -0.6884(10) 0.2514(9) 0.4340(4)
H28B H -0.6927 0.2996 0.4424
C38B C -0.7453(9) 0.2268(10) 0.4065(5)
H29B H -0.7206 0.2040 0.3859
H30B H -0.7771 0.1902 0.4176
C39B C -0.7906(11) 0.2890(11) 0.3933(6)
H31B H -0.8041 0.2806 0.3684
H32B H -0.7628 0.3338 0.3951
H33B H -0.8343 0.2928 0.4079
Al1B Al -0.33662(3) 0.33662(3) 0.5000
Al2D Al -0.09062(3) 0.86477(4) 0.92084(2)
Al2E Al 0.09062(3) 0.13523(4) 0.92084(2)
Al3_2 Al -0.5000 0.5000 0.61422(2)
Al3D Al -0.0000 0.0000 0.88578(2)
Al3D_2 Al -0.0000 1.0000 0.88578(2)
O1G O 0.39415(8) 0.62496(8) 0.46476(4)
O2G O 0.29787(10) 0.73238(9) 0.46732(4)
O4B_2 O 0.51759(8) 0.43107(8) 0.57995(4)
O7G O 0.26155(9) 0.59431(10) 0.48956(4)
O8_2 O 0.59726(9) 0.52884(9) 0.61751(5)
O9D O 0.43705(9) 0.66873(10) 0.62519(4)
O9E O -0.43705(9) 0.33127(10) 0.62519(4)
O10D O 0.48099(10) 0.56783(10) 0.65138(4)
O10E O 0.51901(10) 0.43217(10) 0.65138(4)
Al1_2 Al -0.66338(3) 0.66338(3) 0.5000
O1_2 O -0.62496(8) 0.60585(8) 0.53524(4)
O2_2 O -0.73238(9) 0.70213(10) 0.53268(4)
O7_2 O -0.59431(10) 0.73845(9) 0.51044(4)
O1G_2 O -0.60585(8) 0.62496(8) 0.46476(4)
O2G_2 O -0.70213(10) 0.73238(9) 0.46732(4)
O7G_2 O -0.73845(9) 0.59431(10) 0.48956(4)
Al2_2 Al -0.59062(3) 0.63523(4) 0.57916(2)
O3_2 O -0.66402(9) 0.70573(9) 0.58196(4)
O4_2 O -0.51759(8) 0.56893(8) 0.57995(4)
O6_2 O -0.52934(9) 0.70673(10) 0.55889(4)
O5B_2 O -0.65967(8) 0.57075(9) 0.60277(4)
O9D_2 O -0.56295(9) 0.66873(10) 0.62519(4)
O8B_2 O -0.59726(9) 0.47116(9) 0.61751(5)
O10D_2 O -0.51901(10) 0.56783(10) 0.65138(4)
O10E_2 O -0.48099(10) 0.43217(10) 0.65138(4)
H1_2 H -0.6225 0.5556 0.5303
C3_2 C -0.72434(12) 0.70673(13) 0.56608(6)
H2_2 H -0.4849 0.5702 0.5604
C1_2 C -0.78977(13) 0.70967(14) 0.58900(6)
C5_2 C -0.85849(15) 0.7043(2) 0.57439(7)
C20_2 C -0.78130(14) 0.70972(17) 0.62619(7)
C2_2 C -1.04030(12) 0.86685(14) 0.84829(6)
C8_2 C -1.03867(14) 0.82835(15) 0.81352(6)
O9_2 O -1.06295(9) 0.83127(10) 0.87481(4)
O10_2 O -1.01901(10) 0.93217(10) 0.84862(4)
C4_2 C -1.34494(12) 0.49263(13) 0.61533(5)
C6_2 C -1.27856(13) 0.52778(15) 0.62945(7)
O5_2 O -1.34033(8) 0.42925(9) 0.60277(4)
O8_3 O -1.40274(9) 0.52884(9) 0.61751(5)
H3_2 H -0.8644 0.7044 0.5492
C25_2 C -0.91816(16) 0.6990(2) 0.59626(8)
C9_2 C -1.28714(14) 0.59197(17) 0.64889(8)
C12_2 C -1.21051(14) 0.49826(18) 0.62431(7)
C7_2 C -0.84193(14) 0.70520(17) 0.64809(6)
H4_2 H -0.8364 0.7063 0.6733
C10_2 C -0.90973(14) 0.69912(17) 0.63337(7)
C11_2 C -1.07376(15) 0.76244(17) 0.80918(7)
C15_2 C -1.00263(17) 0.85786(17) 0.78388(7)
H5_2 H -1.3341 0.6107 0.6532
C21_2 C -1.22647(15) 0.62809(19) 0.66182(9)
C16_2 C -0.97466(14) 0.69062(19) 0.65677(7)
H6_2 H -1.0982 0.7414 0.8289
C23_2 C -1.07361(16) 0.72702(17) 0.77662(7)
H7_2 H -1.2053 0.4541 0.6117
C26_2 C -1.14995(15) 0.53356(18) 0.63766(8)
C13_2 C -0.97715(15) 0.72577(19) 0.68985(7)
H8_2 H -0.9374 0.7546 0.6972
C19_2 C -1.03714(15) 0.71912(19) 0.71218(7)
C14_2 C -1.00261(18) 0.8227(2) 0.75162(7)
H9_2 H -0.9778 0.8435 0.7320
C17_2 C -1.03804(15) 0.75777(19) 0.74720(7)
H10_2 H -0.9780 0.9026 0.7862
C22_2 C -1.03282(15) 0.6484(2) 0.64636(7)
C18_2 C -1.15784(14) 0.59928(18) 0.65599(7)
C24_2 C -1.09346(15) 0.64112(19) 0.66826(8)
C27_2 C -1.09629(15) 0.67756(19) 0.70100(8)
H11_2 H -0.7345 0.7128 0.6364
H12_2 H -1.2318 0.6721 0.6745
H13_2 H -1.0314 0.6240 0.6240
H14_2 H -1.0975 0.6819 0.7742
H15_2 H -0.9650 0.6952 0.5861
H16_2 H -1.1033 0.5133 0.6344
H17_2 H -1.1381 0.6741 0.7156
Al2B_2 Al -1.40938(3) 0.36477(4) 0.57916(2)
C28_2 C -0.54346(16) 0.74718(15) 0.53257(7)
Al3_3 Al -1.5000 0.5000 0.61422(2)
Al2D_2 Al -1.09062(3) 0.86477(4) 0.92084(2)
Al3D_3 Al -1.0000 1.0000 0.88578(2)
C29_2 C -0.4972(7) 0.8150(7) 0.5293(3)
H18_2 H -0.4463 0.8032 0.5349
H19_2 H -0.5140 0.8517 0.5467
C30_2 C -0.5029(8) 0.8474(7) 0.4886(4)
H20_2 H -0.5165 0.8089 0.4711
C31_2 C -0.5623(10) 0.8936(8) 0.4961(5)
C33_2 C -0.4360(8) 0.8867(8) 0.4769(4)
H21_2 H -0.5572 0.9200 0.5190
H22_2 H -0.6096 0.8687 0.4950
C34_2 C -0.5455(9) 0.9442(10) 0.4606(4)
C32_2 C -0.4685(10) 0.9525(9) 0.4578(4)
H23_2 H -0.4163 0.9073 0.4996
C35_2 C -0.3681(8) 0.8662(8) 0.4555(4)
H24_2 H -0.5647 0.9207 0.4389
H25_2 H -0.3671 0.8940 0.4329
H26_2 H -0.3245 0.8792 0.4694
C36_2 C -0.3667(8) 0.7874(8) 0.4473(4)
H27_2 H -0.4099 0.7616 0.4521
C37_2 C -0.3116(10) 0.7486(9) 0.4340(4)
H28_2 H -0.3073 0.7004 0.4424
C38_2 C -0.2547(9) 0.7732(10) 0.4065(5)
H29_2 H -0.2794 0.7960 0.3859
H30_2 H -0.2229 0.8098 0.4176
C39_2 C -0.2094(11) 0.7110(11) 0.3933(6)
H31_2 H -0.1959 0.7194 0.3684
H32_2 H -0.2372 0.6662 0.3951
H33_2 H -0.1657 0.7072 0.4079
O1B_2 O -1.37504(8) 0.39415(8) 0.53524(4)
O3B_2 O -1.33598(9) 0.29427(9) 0.58196(4)
O4B_3 O -1.48241(8) 0.43107(8) 0.57995(4)
O6B_2 O -1.47066(9) 0.29327(10) 0.55889(4)
O9E_2 O -1.43705(9) 0.33127(10) 0.62519(4)
H1B_2 H -1.3775 0.4444 0.5303
Al1B_2 Al -1.33662(3) 0.33662(3) 0.5000
O2B_2 O -1.26762(9) 0.29787(10) 0.53268(4)
C3B_2 C -1.27566(12) 0.29327(13) 0.56608(6)
H2B_2 H -1.5151 0.4298 0.5604
C1B_2 C -1.21023(13) 0.29033(14) 0.58900(6)
C5B_2 C -1.14151(15) 0.2957(2) 0.57439(7)
C20B_2 C -1.21870(14) 0.29028(17) 0.62619(7)
C2B_2 C -0.95970(12) 0.13315(14) 0.84829(6)
C8B_2 C -0.96133(14) 0.17165(15) 0.81352(6)
O9B_2 O -0.93705(9) 0.16873(10) 0.87481(4)
O10B_2 O -0.98099(10) 0.06783(10) 0.84862(4)
C4B_2 C -0.65506(12) 0.50737(13) 0.61533(5)
C6B_2 C -0.72144(13) 0.47222(15) 0.62945(7)
H3B_2 H -1.1356 0.2956 0.5492
C25B_2 C -1.08184(16) 0.3010(2) 0.59626(8)
C9B_2 C -0.71286(14) 0.40803(17) 0.64889(8)
C12B_2 C -0.78949(14) 0.50174(18) 0.62431(7)
C7B_2 C -1.15807(14) 0.29480(17) 0.64809(6)
H4B_2 H -1.1636 0.2937 0.6733
C10B_2 C -1.09027(14) 0.30088(17) 0.63337(7)
C11B_2 C -0.92624(15) 0.23756(17) 0.80918(7)
C15B_2 C -0.99737(17) 0.14214(17) 0.78388(7)
H5B_2 H -0.6659 0.3893 0.6532
C21B_2 C -0.77353(15) 0.37191(19) 0.66182(9)
C16B_2 C -1.02534(14) 0.30938(19) 0.65677(7)
H6B_2 H -0.9018 0.2586 0.8289
C23B_2 C -0.92639(16) 0.27298(17) 0.77662(7)
H7B_2 H -0.7947 0.5459 0.6117
C26B_2 C -0.85005(15) 0.46644(18) 0.63766(8)
C13B_2 C -1.02285(15) 0.27423(19) 0.68985(7)
H8B_2 H -1.0626 0.2454 0.6972
C19B_2 C -0.96286(15) 0.28088(19) 0.71218(7)
C14B_2 C -0.99739(18) 0.1773(2) 0.75162(7)
H9B_2 H -1.0222 0.1565 0.7320
C17B_2 C -0.96196(15) 0.24223(19) 0.74720(7)
H10B_2 H -1.0220 0.0974 0.7862
C22B_2 C -0.96718(15) 0.3516(2) 0.64636(7)
C18B_2 C -0.84216(14) 0.40072(18) 0.65599(7)
C24B_2 C -0.90654(15) 0.35888(19) 0.66826(8)
C27B_2 C -0.90371(15) 0.32244(19) 0.70100(8)
H11B_2 H -1.2655 0.2872 0.6364
H12B_2 H -0.7682 0.3279 0.6745
H13B_2 H -0.9686 0.3760 0.6240
H14B_2 H -0.9025 0.3181 0.7742
H15B_2 H -1.0350 0.3048 0.5861
H16B_2 H -0.8967 0.4867 0.6344
H17B_2 H -0.8619 0.3259 0.7156
C28B_2 C -1.45654(16) 0.25282(15) 0.53257(7)
O7B_2 O -1.40569(10) 0.26155(9) 0.51044(4)
Al2E_2 Al -0.90938(3) 0.13523(4) 0.92084(2)
Al3D_4 Al -1.0000 0.0000 0.88578(2)
C29B_2 C -1.5028(7) 0.1850(7) 0.5293(3)
H18B_2 H -1.5537 0.1968 0.5349
H19B_2 H -1.4860 0.1483 0.5467
C30B_2 C -1.4971(8) 0.1526(7) 0.4886(4)
H20B_2 H -1.4835 0.1911 0.4711
C31B_2 C -1.4377(10) 0.1064(8) 0.4961(5)
C33B_2 C -1.5640(8) 0.1133(8) 0.4769(4)
H21B_2 H -1.4428 0.0800 0.5190
H22B_2 H -1.3904 0.1313 0.4950
C34B_2 C -1.4545(9) 0.0558(10) 0.4606(4)
C32B_2 C -1.5315(10) 0.0475(9) 0.4578(4)
H23B_2 H -1.5837 0.0927 0.4996
C35B_2 C -1.6319(8) 0.1338(8) 0.4555(4)
H24B_2 H -1.4353 0.0793 0.4389
H25B_2 H -1.6329 0.1060 0.4329
H26B_2 H -1.6755 0.1208 0.4694
C36B_2 C -1.6333(8) 0.2126(8) 0.4473(4)
H27B_2 H -1.5901 0.2384 0.4521
C37B_2 C -1.6884(10) 0.2514(9) 0.4340(4)
H28B_2 H -1.6927 0.2996 0.4424
C38B_2 C -1.7453(9) 0.2268(10) 0.4065(5)
H29B_2 H -1.7206 0.2040 0.3859
H30B_2 H -1.7771 0.1902 0.4176
C39B_2 C -1.7906(11) 0.2890(11) 0.3933(6)
H31B_2 H -1.8041 0.2806 0.3684
H32B_2 H -1.7628 0.3338 0.3951
H33B_2 H -1.8343 0.2928 0.4079
loop_
_geom_bond_atom_site_label_1
_geom_bond_atom_site_label_2
_geom_bond_site_symmetry_1
_geom_bond_site_symmetry_2
Al1 O1 1_555 1_555
Al2 O1 1_555 1_555
Al3 O4 1_555 1_555
O1 H1 1_555 1_555
O2 Al1 1_555 1_555
O3 Al2 1_555 1_555
O4 Al2 1_555 1_555
H2 O4 1_555 1_555
C1 C3 1_555 1_555
C2 C8 1_555 1_555
C3 O2 1_555 1_555
C4 C6 1_555 1_555
C5 C1 1_555 1_555
H3 C5 1_555 1_555
C6 C9 1_555 1_555
C7 H4 1_555 1_555
C8 C11 1_555 1_555
C9 H5 1_555 1_555
C10 C7 1_555 1_555
C11 H6 1_555 1_555
C12 C6 1_555 1_555
H7 C12 1_555 1_555
C13 H8 1_555 1_555
C14 H9 1_555 1_555
C15 C8 1_555 1_555
H10 C15 1_555 1_555
C16 C10 1_555 1_555
C17 C14 1_555 1_555
C18 C21 1_555 1_555
C19 C13 1_555 1_555
C20 C1 1_555 1_555
H11 C20 1_555 1_555
C21 C9 1_555 1_555
H12 C21 1_555 1_555
C22 C16 1_555 1_555
H13 C22 1_555 1_555
C23 C11 1_555 1_555
H14 C23 1_555 1_555
C24 C18 1_555 1_555
C25 C5 1_555 1_555
H15 C25 1_555 1_555
C26 C12 1_555 1_555
H16 C26 1_555 1_555
C27 C19 1_555 1_555
H17 C27 1_555 1_555
O5 C4 1_555 1_555
O6 Al2 1_555 1_555
O7 Al1 1_555 1_555
O8 C4 1_555 1_555
O9 C2 1_555 1_555
O10 C2 1_555 1_555
C28 O6 1_555 1_555
C29 C28 1_555 1_555
H18 C29 1_555 1_555
H19 C29 1_555 1_555
C30 C29 1_555 1_555
H20 C30 1_555 1_555
C31 C30 1_555 1_555
H21 C31 1_555 1_555
H22 C31 1_555 1_555
C32 C33 1_555 1_555
C33 C30 1_555 1_555
H23 C33 1_555 1_555
C34 C31 1_555 1_555
H24 C34 1_555 1_555
C35 C33 1_555 1_555
H25 C35 1_555 1_555
H26 C35 1_555 1_555
C36 C35 1_555 1_555
H27 C36 1_555 1_555
C37 C36 1_555 1_555
H28 C37 1_555 1_555
C38 C37 1_555 1_555
H29 C38 1_555 1_555
H30 C38 1_555 1_555
C39 C38 1_555 1_555
H31 C39 1_555 1_555
H32 C39 1_555 1_555
H33 C39 1_555 1_555
Al2B O5 1_555 1_555
O1B Al2B 1_555 1_555
H1B O1B 1_555 1_555
O2B C3B 1_555 1_555
O3B Al2B 1_555 1_555
O4B Al2B 1_555 1_555
H2B O4B 1_555 1_555
C1B C3B 1_555 1_555
C2B C8B 1_555 1_555
C3B O3B 1_555 1_555
C4B C6B 1_555 1_555
C5B C1B 1_555 1_555
H3B C5B 1_555 1_555
C6B C9B 1_555 1_555
C7B H4B 1_555 1_555
C8B C11B 1_555 1_555
C9B H5B 1_555 1_555
C10B C7B 1_555 1_555
C11B H6B 1_555 1_555
C12B C6B 1_555 1_555
H7B C12B 1_555 1_555
C13B H8B 1_555 1_555
C14B H9B 1_555 1_555
C15B C8B 1_555 1_555
H10B C15B 1_555 1_555
C16B C10B 1_555 1_555
C17B C14B 1_555 1_555
C18B C21B 1_555 1_555
C19B C13B 1_555 1_555
C20B C1B 1_555 1_555
H11B C20B 1_555 1_555
C21B C9B 1_555 1_555
H12B C21B 1_555 1_555
C22B C16B 1_555 1_555
H13B C22B 1_555 1_555
C23B C11B 1_555 1_555
H14B C23B 1_555 1_555
C24B C18B 1_555 1_555
C25B C5B 1_555 1_555
H15B C25B 1_555 1_555
C26B C12B 1_555 1_555
H16B C26B 1_555 1_555
C27B C19B 1_555 1_555
H17B C27B 1_555 1_555
O5B Al2 1_555 1_555
O6B Al2B 1_555 1_555
O7B C28B 1_555 1_555
O8B Al3 1_555 1_555
O9B C2B 1_555 1_555
O10B C2B 1_555 1_555
C28B O6B 1_555 1_555
C29B C28B 1_555 1_555
H18B C29B 1_555 1_555
H19B C29B 1_555 1_555
C30B C29B 1_555 1_555
H20B C30B 1_555 1_555
C31B C30B 1_555 1_555
H21B C31B 1_555 1_555
H22B C31B 1_555 1_555
C32B C33B 1_555 1_555
C33B C30B 1_555 1_555
H23B C33B 1_555 1_555
C34B C31B 1_555 1_555
H24B C34B 1_555 1_555
C35B C33B 1_555 1_555
H25B C35B 1_555 1_555
H26B C35B 1_555 1_555
C36B C35B 1_555 1_555
H27B C36B 1_555 1_555
C37B C36B 1_555 1_555
H28B C37B 1_555 1_555
C38B C37B 1_555 1_555
H29B C38B 1_555 1_555
H30B C38B 1_555 1_555
C39B C38B 1_555 1_555
H31B C39B 1_555 1_555
H32B C39B 1_555 1_555
H33B C39B 1_555 1_555
Al1B O1B 1_555 1_555
Al2D O9 1_555 1_555
Al2E O9B 1_555 1_555
Al3_2 O8 1_555 1_555
Al3D O10B 1_555 1_555
Al3D_2 O10 1_555 1_555
O1G Al1 1_555 1_555
O2G Al1 1_555 1_555
O4B_2 Al3 1_555 1_555
O7G Al1 1_555 1_555
O8_2 Al3 1_555 1_555
O9D Al2 1_555 1_555
O9E Al2B 1_555 1_555
O10D Al3 1_555 1_555
O10E Al3 1_555 1_555
Al1_2 O1_2 1_555 1_555
O1_2 Al2_2 1_555 1_555
O2_2 Al1_2 1_555 1_555
O7_2 Al1_2 1_555 1_555
O1G_2 Al1_2 1_555 1_555
O2G_2 Al1_2 1_555 1_555
O7G_2 Al1_2 1_555 1_555
Al2_2 O3_2 1_555 1_555
O3_2 C3_2 1_555 1_555
O4_2 Al3_2 1_555 1_555
O6_2 Al2_2 1_555 1_555
O5B_2 Al2_2 1_555 1_555
O9D_2 Al2_2 1_555 1_555
O8B_2 Al3_2 1_555 1_555
O10D_2 Al3_2 1_555 1_555
O10E_2 Al3_2 1_555 1_555
H1_2 O1_2 1_555 1_555
C3_2 O2_2 1_555 1_555
H2_2 O4_2 1_555 1_555
C1_2 C3_2 1_555 1_555
C5_2 C1_2 1_555 1_555
C20_2 C1_2 1_555 1_555
C2_2 C8_2 1_555 1_555
C8_2 C11_2 1_555 1_555
O9_2 C2_2 1_555 1_555
O10_2 C2_2 1_555 1_555
C4_2 C6_2 1_555 1_555
C6_2 C9_2 1_555 1_555
O5_2 C4_2 1_555 1_555
O8_3 C4_2 1_555 1_555
H3_2 C5_2 1_555 1_555
C25_2 C5_2 1_555 1_555
C9_2 H5_2 1_555 1_555
C12_2 C6_2 1_555 1_555
C7_2 C20_2 1_555 1_555
H4_2 C7_2 1_555 1_555
C10_2 C25_2 1_555 1_555
C11_2 H6_2 1_555 1_555
C15_2 C8_2 1_555 1_555
C21_2 C9_2 1_555 1_555
C16_2 C10_2 1_555 1_555
C23_2 C11_2 1_555 1_555
H7_2 C12_2 1_555 1_555
C26_2 C12_2 1_555 1_555
C13_2 C16_2 1_555 1_555
H8_2 C13_2 1_555 1_555
C19_2 C13_2 1_555 1_555
C14_2 C15_2 1_555 1_555
H9_2 C14_2 1_555 1_555
C17_2 C23_2 1_555 1_555
H10_2 C15_2 1_555 1_555
C22_2 C16_2 1_555 1_555
C18_2 C21_2 1_555 1_555
C24_2 C22_2 1_555 1_555
C27_2 C19_2 1_555 1_555
H11_2 C20_2 1_555 1_555
H12_2 C21_2 1_555 1_555
H13_2 C22_2 1_555 1_555
H14_2 C23_2 1_555 1_555
H15_2 C25_2 1_555 1_555
H16_2 C26_2 1_555 1_555
H17_2 C27_2 1_555 1_555
Al2B_2 O5_2 1_555 1_555
C28_2 O7_2 1_555 1_555
Al3_3 O8_3 1_555 1_555
Al2D_2 O9_2 1_555 1_555
Al3D_3 O10_2 1_555 1_555
C29_2 C28_2 1_555 1_555
H18_2 C29_2 1_555 1_555
H19_2 C29_2 1_555 1_555
C30_2 C29_2 1_555 1_555
H20_2 C30_2 1_555 1_555
C31_2 C30_2 1_555 1_555
C33_2 C30_2 1_555 1_555
H21_2 C31_2 1_555 1_555
H22_2 C31_2 1_555 1_555
C34_2 C31_2 1_555 1_555
C32_2 C33_2 1_555 1_555
H23_2 C33_2 1_555 1_555
C35_2 C33_2 1_555 1_555
H24_2 C34_2 1_555 1_555
H25_2 C35_2 1_555 1_555
H26_2 C35_2 1_555 1_555
C36_2 C35_2 1_555 1_555
H27_2 C36_2 1_555 1_555
C37_2 C36_2 1_555 1_555
H28_2 C37_2 1_555 1_555
C38_2 C37_2 1_555 1_555
H29_2 C38_2 1_555 1_555
H30_2 C38_2 1_555 1_555
C39_2 C38_2 1_555 1_555
H31_2 C39_2 1_555 1_555
H32_2 C39_2 1_555 1_555
H33_2 C39_2 1_555 1_555
O1B_2 Al2B_2 1_555 1_555
O3B_2 Al2B_2 1_555 1_555
O4B_3 Al2B_2 1_555 1_555
O6B_2 Al2B_2 1_555 1_555
O9E_2 Al2B_2 1_555 1_555
H1B_2 O1B_2 1_555 1_555
Al1B_2 O1B_2 1_555 1_555
O2B_2 Al1B_2 1_555 1_555
C3B_2 O3B_2 1_555 1_555
H2B_2 O4B_3 1_555 1_555
C1B_2 C3B_2 1_555 1_555
C5B_2 C1B_2 1_555 1_555
C20B_2 C1B_2 1_555 1_555
C2B_2 C8B_2 1_555 1_555
C8B_2 C11B_2 1_555 1_555
O9B_2 C2B_2 1_555 1_555
O10B_2 C2B_2 1_555 1_555
C4B_2 O5B_2 1_555 1_555
C6B_2 C4B_2 1_555 1_555
H3B_2 C5B_2 1_555 1_555
C25B_2 C5B_2 1_555 1_555
C9B_2 C6B_2 1_555 1_555
C12B_2 C6B_2 1_555 1_555
C7B_2 C20B_2 1_555 1_555
H4B_2 C7B_2 1_555 1_555
C10B_2 C25B_2 1_555 1_555
C11B_2 H6B_2 1_555 1_555
C15B_2 C8B_2 1_555 1_555
H5B_2 C9B_2 1_555 1_555
C21B_2 C9B_2 1_555 1_555
C16B_2 C10B_2 1_555 1_555
C23B_2 C11B_2 1_555 1_555
H7B_2 C12B_2 1_555 1_555
C26B_2 C12B_2 1_555 1_555
C13B_2 C16B_2 1_555 1_555
H8B_2 C13B_2 1_555 1_555
C19B_2 C13B_2 1_555 1_555
C14B_2 C15B_2 1_555 1_555
H9B_2 C14B_2 1_555 1_555
C17B_2 C23B_2 1_555 1_555
H10B_2 C15B_2 1_555 1_555
C22B_2 C16B_2 1_555 1_555
C18B_2 C21B_2 1_555 1_555
C24B_2 C22B_2 1_555 1_555
C27B_2 C19B_2 1_555 1_555
H11B_2 C20B_2 1_555 1_555
H12B_2 C21B_2 1_555 1_555
H13B_2 C22B_2 1_555 1_555
H14B_2 C23B_2 1_555 1_555
H15B_2 C25B_2 1_555 1_555
H16B_2 C26B_2 1_555 1_555
H17B_2 C27B_2 1_555 1_555
C28B_2 O6B_2 1_555 1_555
O7B_2 Al1B_2 1_555 1_555
Al2E_2 O9B_2 1_555 1_555
Al3D_4 O10B_2 1_555 1_555
C29B_2 C28B_2 1_555 1_555
H18B_2 C29B_2 1_555 1_555
H19B_2 C29B_2 1_555 1_555
C30B_2 C29B_2 1_555 1_555
H20B_2 C30B_2 1_555 1_555
C31B_2 C30B_2 1_555 1_555
C33B_2 C30B_2 1_555 1_555
H21B_2 C31B_2 1_555 1_555
H22B_2 C31B_2 1_555 1_555
C34B_2 C31B_2 1_555 1_555
C32B_2 C33B_2 1_555 1_555
H23B_2 C33B_2 1_555 1_555
C35B_2 C33B_2 1_555 1_555
H24B_2 C34B_2 1_555 1_555
H25B_2 C35B_2 1_555 1_555
H26B_2 C35B_2 1_555 1_555
C36B_2 C35B_2 1_555 1_555
H27B_2 C36B_2 1_555 1_555
C37B_2 C36B_2 1_555 1_555
H28B_2 C37B_2 1_555 1_555
C38B_2 C37B_2 1_555 1_555
H29B_2 C38B_2 1_555 1_555
H30B_2 C38B_2 1_555 1_555
C39B_2 C38B_2 1_555 1_555
H31B_2 C39B_2 1_555 1_555
H32B_2 C39B_2 1_555 1_555
H33B_2 C39B_2 1_555 1_555
O3 C3 1_555 1_555
C7 C20 1_555 1_555
C10 C25 1_555 1_555
C13 C16 1_555 1_555
C14 C15 1_555 1_555
C17 C19 1_555 1_555
C17 C23 1_555 1_555
C18 C26 1_555 1_555
C22 C24 1_555 1_555
C24 C27 1_555 1_555
O7 C28 1_555 1_555
C32 C34 1_555 1_555
O2B Al1B 1_555 1_555
O4B Al3_2 1_555 1_555
C4B O5B 1_555 1_555
C4B O8B 1_555 1_555
C7B C20B 1_555 1_555
C10B C25B 1_555 1_555
C13B C16B 1_555 1_555
C14B C15B 1_555 1_555
C17B C19B 1_555 1_555
C17B C23B 1_555 1_555
C18B C26B 1_555 1_555
C22B C24B 1_555 1_555
C24B C27B 1_555 1_555
O7B Al1B 1_555 1_555
C32B C34B 1_555 1_555
Al2_2 O4_2 1_555 1_555
O6_2 C28_2 1_555 1_555
O8B_2 C4B_2 1_555 1_555
C7_2 C10_2 1_555 1_555
C26_2 C18_2 1_555 1_555
C19_2 C17_2 1_555 1_555
C14_2 C17_2 1_555 1_555
C18_2 C24_2 1_555 1_555
C24_2 C27_2 1_555 1_555
Al3_3 O4B_3 1_555 1_555
C34_2 C32_2 1_555 1_555
O2B_2 C3B_2 1_555 1_555
C7B_2 C10B_2 1_555 1_555
C26B_2 C18B_2 1_555 1_555
C19B_2 C17B_2 1_555 1_555
C14B_2 C17B_2 1_555 1_555
C18B_2 C24B_2 1_555 1_555
C24B_2 C27B_2 1_555 1_555
C28B_2 O7B_2 1_555 1_555
C34B_2 C32B_2 1_555 1_555

#END
