
#######################################################################
#
#                 Cambridge Crystallographic Data Centre
#                                CCDC 
#
#######################################################################
#
# If this CIF has been generated from an entry in the Cambridge 
# Structural Database, then it will include bibliographic, chemical, 
# crystal, experimental, refinement or atomic coordinate data resulting 
# from the CCDC's data processing and validation procedures.
#
#######################################################################

data_OTECOH
_chemical_formula_moiety         'C192 H160 Al28 O76'
_symmetry_cell_setting           tetragonal
_symmetry_space_group_name_H-M   'P 42 21 2'
_symmetry_Int_Tables_number      94
_space_group_name_Hall           'P 4n 2n'
loop_
_symmetry_equiv_pos_site_id
_symmetry_equiv_pos_as_xyz
1 x,y,z
2 1/2-y,1/2+x,1/2+z
3 -x,-y,z
4 1/2+y,1/2-x,1/2+z
5 1/2+x,1/2-y,1/2-z
6 1/2-x,1/2+y,1/2-z
7 y,x,-z
8 -y,-x,-z
_cell_length_a                   18.6064(8)
_cell_length_b                   18.6064(8)
_cell_length_c                   37.2099(18)
_cell_angle_alpha                90
_cell_angle_beta                 90
_cell_angle_gamma                90
_cell_volume                     12882
loop_
_atom_site_label
_atom_site_type_symbol
_atom_site_fract_x
_atom_site_fract_y
_atom_site_fract_z
Al1 Al 0.63391(5) 0.59718(5) 0.42012(2)
Al2 Al 0.5000 0.5000 0.38845(3)
Al3 Al 0.66767(5) 0.66767(5) 0.5000
O1 O 0.56979(12) 0.52165(10) 0.42213(5)
O2 O 0.60667(11) 0.63229(10) 0.46491(4)
O3 O 0.70464(13) 0.73668(12) 0.46690(5)
O4 O 0.70191(12) 0.67184(11) 0.41650(5)
C1 C 0.7119(2) 0.79618(17) 0.41082(7)
C2 C 0.8710(2) 1.04506(16) 0.15166(8)
C3 C 0.7102(3) 0.86397(19) 0.42692(9)
H1 H 0.7096 0.8684 0.4524
C4 C 0.5358(2) 1.28266(17) 0.37213(8)
C5 C 0.4977(2) 1.34617(16) 0.38626(7)
C6 C 0.70644(18) 0.73088(17) 0.43324(7)
C7 C 0.7111(2) 0.85035(19) 0.35291(9)
H2 H 0.7135 0.8453 0.3275
C8 C 0.7307(3) 1.0458(2) 0.28938(10)
C9 C 0.7116(2) 0.78992(19) 0.37397(8)
H3 H 0.7117 0.7437 0.3631
C10 C 0.8366(2) 1.04493(18) 0.18773(8)
C11 C 0.7702(2) 1.0793(2) 0.19245(9)
H4 H 0.7477 1.1020 0.1725
C12 C 0.7682(3) 1.0463(2) 0.25442(9)
C13 C 0.7073(3) 0.91828(19) 0.36761(9)
C14 C 0.6599(3) 1.0407(2) 0.35548(11)
H5 H 0.6353 1.0389 0.3778
C15 C 0.7013(3) 0.9831(2) 0.34478(10)
C16 C 0.6101(3) 1.1648(2) 0.34607(11)
C17 C 0.5067(3) 1.2140(2) 0.37558(10)
H6 H 0.4613 1.2073 0.3868
C18 C 0.7377(3) 1.0805(2) 0.22504(10)
H7 H 0.6933 1.1052 0.2278
C19 C 0.8341(3) 1.0120(2) 0.24951(10)
H8 H 0.8563 0.9885 0.2693
C20 C 0.8676(2) 1.0115(2) 0.21638(8)
H9 H 0.9124 0.9878 0.2136
C21 C 0.7368(3) 0.9848(2) 0.31174(10)
H10 H 0.7650 0.9449 0.3043
C22 C 0.5440(3) 1.1564(2) 0.36276(11)
H11 H 0.5243 1.1096 0.3653
C23 C 0.6539(3) 1.1023(2) 0.33362(12)
C24 C 0.7094(3) 0.9245(2) 0.40539(10)
H12 H 0.7102 0.9707 0.4161
C25 C 0.5990(2) 1.29235(19) 0.35455(11)
H13 H 0.6183 1.3393 0.3517
C26 C 0.6351(3) 1.2332(2) 0.34087(12)
H14 H 0.6782 1.2403 0.3276
C27 C 0.6903(3) 1.1025(2) 0.30074(11)
H15 H 0.6868 1.1438 0.2858
O5 O 0.43352(13) 1.33862(10) 0.39753(5)
O6 O 0.70860(14) 0.53746(12) 0.43937(6)
O7 O 0.74154(12) 0.60076(13) 0.48784(5)
O8 O 0.53244(13) 1.40500(11) 0.38604(6)
O9 O 0.83511(15) 1.06952(13) 0.12600(5)
O10 O 0.93479(14) 1.02112(12) 0.14970(5)
C28 C 0.7508(2) 0.5534(2) 0.46446(10)
C29 C 0.5499(4) 0.5172(4) 0.46308(17)
H16 H 0.5885 0.4933 0.4769
H17 H 0.5045 0.4904 0.4666
C30 C 0.5411(4) 0.5990(5) 0.47512(18)
H18 H 0.4998 0.6216 0.4627
H19 H 0.5336 0.6025 0.5014
C31 C 0.8317(7) 0.5282(7) 0.4602(4)
H20 H 0.8361 0.4950 0.4392
C32 C 0.8632(9) 0.4956(10) 0.4915(4)
C33 C 0.8078(8) 0.4590(7) 0.5209(4)
H21 H 0.7895 0.4952 0.5381
H22 H 0.7666 0.4356 0.5087
C34 C 0.8547(10) 0.4050(10) 0.5392(4)
C35 C 0.9277(10) 0.4012(10) 0.5236(5)
C36 C 0.9148(11) 0.4328(10) 0.4835(4)
H23 H 0.9602 0.4498 0.4726
H24 H 0.8923 0.3966 0.4676
C37 C 0.9414(9) 0.5944(10) 0.4827(4)
C38 C 0.8791(7) 0.5969(8) 0.4539(4)
H25 H 0.8486 0.6395 0.4596
O11 O 0.9657(6) 0.3376(7) 0.5179(3)
H26 H 1.0099 0.3454 0.5204
C39 C 0.8453(10) 0.3619(8) 0.5644(5)
H27 H 0.8832 0.3310 0.5717
H28 H 0.8002 0.3600 0.5763
C40 C 0.9104(9) 0.5469(8) 0.5086(5)
H29 H 0.8755 0.5792 0.5210
C41 C 0.9470(12) 0.6968(10) 0.4288(5)
H30 H 0.9897 0.7030 0.4127
O12 O 0.8944(6) 0.7412(7) 0.4100(4)
H31 H 0.8882 0.7252 0.3892
C42 C 0.9239(9) 0.6161(11) 0.4188(6)
O13 O 0.9931(7) 0.5476(7) 0.4579(4)
O14 O 1.0239(7) 0.5335(7) 0.3990(3)
C43 C 0.9812(12) 0.5505(14) 0.4202(6)
C44 C 0.9780(8) 0.6632(10) 0.4889(5)
H32 H 1.0008 0.6715 0.5114
C45 C 0.9799(10) 0.7130(11) 0.4645(6)
H33 H 1.0016 0.7583 0.4692
C46 C 0.8847(8) 0.6078(10) 0.3847(4)
H34 H 0.8886 0.5579 0.3764
H35 H 0.9055 0.6399 0.3666
H36 H 0.8340 0.6200 0.3883
C47 C 0.9601(11) 0.5268(8) 0.5386(5)
H37 H 0.9347 0.5326 0.5618
H38 H 1.0018 0.5598 0.5386
C48 C 0.9865(11) 0.4506(9) 0.5354(5)
H39 H 1.0264 0.4487 0.5178
H40 H 1.0052 0.4345 0.5590
O1B O 0.43021(12) 0.47835(10) 0.42213(5)
O2B O 0.39333(11) 0.36771(10) 0.46491(4)
C29B C 0.4501(4) 0.4828(4) 0.46308(17)
H16B H 0.4115 0.5067 0.4769
H17B H 0.4955 0.5096 0.4666
C30B C 0.4589(4) 0.4010(5) 0.47512(18)
H18B H 0.5002 0.3784 0.4627
H19B H 0.4664 0.3975 0.5014
O1F O 0.52165(10) 0.56979(12) 0.57787(5)
O2F O 0.63229(10) 0.60667(11) 0.53509(4)
C29F C 0.5172(4) 0.5499(4) 0.53692(17)
H16F H 0.4933 0.5885 0.5231
H17F H 0.4904 0.5045 0.5334
C30F C 0.5990(5) 0.5411(4) 0.52488(18)
H18F H 0.6216 0.4998 0.5373
H19F H 0.6025 0.5336 0.4986
O1G O 0.47835(10) 0.43021(12) 0.57787(5)
O2G O 0.36771(10) 0.39333(11) 0.53509(4)
C29G C 0.4828(4) 0.4501(4) 0.53692(17)
H16G H 0.5067 0.4115 0.5231
H17G H 0.5096 0.4955 0.5334
C30G C 0.4010(5) 0.4589(4) 0.52488(18)
H18G H 0.3784 0.5002 0.5373
H19G H 0.3975 0.4664 0.4986
O6B O 1.29140(14) 0.46254(12) 0.43937(6)
O7B O 1.25846(12) 0.39924(13) 0.48784(5)
C28B C 1.2492(2) 0.4466(2) 0.46446(10)
C31B C 1.1683(7) 0.4718(7) 0.4602(4)
H20B H 1.1639 0.5050 0.4392
C32B C 1.1368(9) 0.5044(10) 0.4915(4)
C33B C 1.1922(8) 0.5410(7) 0.5209(4)
H21B H 1.2105 0.5048 0.5381
H22B H 1.2334 0.5644 0.5087
C34B C 1.1453(10) 0.5950(10) 0.5392(4)
C35B C 1.0723(10) 0.5988(10) 0.5236(5)
C36B C 1.0852(11) 0.5672(10) 0.4835(4)
H23B H 1.0398 0.5502 0.4726
H24B H 1.1077 0.6034 0.4676
C37B C 1.0586(9) 0.4056(10) 0.4827(4)
C38B C 1.1209(7) 0.4031(8) 0.4539(4)
H25B H 1.1514 0.3605 0.4596
O11B O 1.0343(6) 0.6624(7) 0.5179(3)
H26B H 0.9901 0.6546 0.5204
C39B C 1.1547(10) 0.6381(8) 0.5644(5)
H27B H 1.1168 0.6690 0.5717
H28B H 1.1998 0.6400 0.5763
C40B C 1.0896(9) 0.4531(8) 0.5086(5)
H29B H 1.1245 0.4208 0.5210
C41B C 1.0530(12) 0.3032(10) 0.4288(5)
H30B H 1.0103 0.2970 0.4127
O12B O 1.1056(6) 0.2588(7) 0.4100(4)
H31B H 1.1118 0.2748 0.3892
C42B C 1.0761(9) 0.3839(11) 0.4188(6)
O13B O 1.0069(7) 0.4524(7) 0.4579(4)
O14B O 0.9761(7) 0.4665(7) 0.3990(3)
C43B C 1.0188(12) 0.4495(14) 0.4202(6)
C44B C 1.0220(8) 0.3368(10) 0.4889(5)
H32B H 0.9992 0.3285 0.5114
C45B C 1.0201(10) 0.2870(11) 0.4645(6)
H33B H 0.9984 0.2417 0.4692
C46B C 1.1153(8) 0.3922(10) 0.3847(4)
H34B H 1.1114 0.4421 0.3764
H35B H 1.0945 0.3601 0.3666
H36B H 1.1660 0.3800 0.3883
C47B C 1.0399(11) 0.4732(8) 0.5386(5)
H37B H 1.0653 0.4674 0.5618
H38B H 0.9982 0.4402 0.5386
C48B C 1.0135(11) 0.5494(9) 0.5354(5)
H39B H 0.9736 0.5513 0.5178
H40B H 0.9948 0.5655 0.5590
Al1B Al 0.36609(5) 0.40282(5) 0.42012(2)
Al3B Al 0.33233(5) 0.33233(5) 0.5000
O3B O 0.29536(13) 0.26332(12) 0.46690(5)
O4B O 0.29809(12) 0.32816(11) 0.41650(5)
C1B C 0.2881(2) 0.20382(17) 0.41082(7)
C2B C 0.1290(2) -0.04506(16) 0.15166(8)
C3B C 0.2898(3) 0.13603(19) 0.42692(9)
H1B H 0.2904 0.1316 0.4524
C4B C 0.4642(2) -0.28266(17) 0.37213(8)
C5B C 0.5023(2) -0.34617(16) 0.38626(7)
C6B C 0.29356(18) 0.26912(17) 0.43324(7)
C7B C 0.2889(2) 0.14965(19) 0.35291(9)
H2B H 0.2865 0.1547 0.3275
C8B C 0.2693(3) -0.0458(2) 0.28938(10)
C9B C 0.2884(2) 0.21008(19) 0.37397(8)
H3B H 0.2883 0.2563 0.3631
C10B C 0.1634(2) -0.04493(18) 0.18773(8)
C11B C 0.2298(2) -0.0793(2) 0.19245(9)
H4B H 0.2523 -0.1020 0.1725
C12B C 0.2318(3) -0.0463(2) 0.25442(9)
C13B C 0.2927(3) 0.08172(19) 0.36761(9)
C14B C 0.3401(3) -0.0407(2) 0.35548(11)
H5B H 0.3647 -0.0389 0.3778
C15B C 0.2987(3) 0.0169(2) 0.34478(10)
C16B C 0.3899(3) -0.1648(2) 0.34607(11)
C17B C 0.4933(3) -0.2140(2) 0.37558(10)
H6B H 0.5387 -0.2073 0.3868
C18B C 0.2623(3) -0.0805(2) 0.22504(10)
H7B H 0.3067 -0.1052 0.2278
C19B C 0.1659(3) -0.0120(2) 0.24951(10)
H8B H 0.1437 0.0115 0.2693
C20B C 0.1324(2) -0.0115(2) 0.21638(8)
H9B H 0.0876 0.0122 0.2136
C21B C 0.2632(3) 0.0152(2) 0.31174(10)
H10B H 0.2350 0.0551 0.3043
C22B C 0.4560(3) -0.1564(2) 0.36276(11)
H11B H 0.4757 -0.1096 0.3653
C23B C 0.3461(3) -0.1023(2) 0.33362(12)
C24B C 0.2906(3) 0.0755(2) 0.40539(10)
H12B H 0.2898 0.0293 0.4161
C25B C 0.4010(2) -0.29235(19) 0.35455(11)
H13B H 0.3817 -0.3393 0.3517
C26B C 0.3649(3) -0.2332(2) 0.34087(12)
H14B H 0.3218 -0.2403 0.3276
C27B C 0.3097(3) -0.1025(2) 0.30074(11)
H15B H 0.3132 -0.1438 0.2858
O5B O 0.56648(13) -0.33862(10) 0.39753(5)
O6B_2 O 0.29140(14) 0.46254(12) 0.43937(6)
O7B_2 O 0.25846(12) 0.39924(13) 0.48784(5)
O8B O 0.46756(13) -0.40500(11) 0.38604(6)
O9B O 0.16489(15) -0.06952(13) 0.12600(5)
O10B O 0.06521(14) -0.02112(12) 0.14970(5)
C28B_2 C 0.2492(2) 0.4466(2) 0.46446(10)
C31B_2 C 0.1683(7) 0.4718(7) 0.4602(4)
H20B_2 H 0.1639 0.5050 0.4392
C32B_2 C 0.1368(9) 0.5044(10) 0.4915(4)
C33B_2 C 0.1922(8) 0.5410(7) 0.5209(4)
H21B_2 H 0.2105 0.5048 0.5381
H22B_2 H 0.2334 0.5644 0.5087
C34B_2 C 0.1453(10) 0.5950(10) 0.5392(4)
C35B_2 C 0.0723(10) 0.5988(10) 0.5236(5)
C36B_2 C 0.0852(11) 0.5672(10) 0.4835(4)
H23B_2 H 0.0398 0.5502 0.4726
H24B_2 H 0.1077 0.6034 0.4676
C37B_2 C 0.0586(9) 0.4056(10) 0.4827(4)
C38B_2 C 0.1209(7) 0.4031(8) 0.4539(4)
H25B_2 H 0.1514 0.3605 0.4596
O11B_2 O 0.0343(6) 0.6624(7) 0.5179(3)
H26B_2 H -0.0099 0.6546 0.5204
C39B_2 C 0.1547(10) 0.6381(8) 0.5644(5)
H27B_2 H 0.1168 0.6690 0.5717
H28B_2 H 0.1998 0.6400 0.5763
C40B_2 C 0.0896(9) 0.4531(8) 0.5086(5)
H29B_2 H 0.1245 0.4208 0.5210
C41B_2 C 0.0530(12) 0.3032(10) 0.4288(5)
H30B_2 H 0.0103 0.2970 0.4127
O12B_2 O 0.1056(6) 0.2588(7) 0.4100(4)
H31B_2 H 0.1118 0.2748 0.3892
C42B_2 C 0.0761(9) 0.3839(11) 0.4188(6)
O13B_2 O 0.0069(7) 0.4524(7) 0.4579(4)
O14B_2 O -0.0239(7) 0.4665(7) 0.3990(3)
C43B_2 C 0.0188(12) 0.4495(14) 0.4202(6)
C44B_2 C 0.0220(8) 0.3368(10) 0.4889(5)
H32B_2 H -0.0008 0.3285 0.5114
C45B_2 C 0.0201(10) 0.2870(11) 0.4645(6)
H33B_2 H -0.0016 0.2417 0.4692
C46B_2 C 0.1153(8) 0.3922(10) 0.3847(4)
H34B_2 H 0.1114 0.4421 0.3764
H35B_2 H 0.0945 0.3601 0.3666
H36B_2 H 0.1660 0.3800 0.3883
C47B_2 C 0.0399(11) 0.4732(8) 0.5386(5)
H37B_2 H 0.0653 0.4674 0.5618
H38B_2 H -0.0018 0.4402 0.5386
C48B_2 C 0.0135(11) 0.5494(9) 0.5354(5)
H39B_2 H -0.0264 0.5513 0.5178
H40B_2 H -0.0052 0.5655 0.5590
O6_2 O -0.29140(14) 0.53746(12) 0.43937(6)
O7_2 O -0.25846(12) 0.60076(13) 0.48784(5)
C28_2 C -0.2492(2) 0.5534(2) 0.46446(10)
C31_2 C -0.1683(7) 0.5282(7) 0.4602(4)
H20_2 H -0.1639 0.4950 0.4392
C32_2 C -0.1368(9) 0.4956(10) 0.4915(4)
C33_2 C -0.1922(8) 0.4590(7) 0.5209(4)
H21_2 H -0.2105 0.4952 0.5381
H22_2 H -0.2334 0.4356 0.5087
C34_2 C -0.1453(10) 0.4050(10) 0.5392(4)
C35_2 C -0.0723(10) 0.4012(10) 0.5236(5)
C36_2 C -0.0852(11) 0.4328(10) 0.4835(4)
H23_2 H -0.0398 0.4498 0.4726
H24_2 H -0.1077 0.3966 0.4676
C37_2 C -0.0586(9) 0.5944(10) 0.4827(4)
C38_2 C -0.1209(7) 0.5969(8) 0.4539(4)
H25_2 H -0.1514 0.6395 0.4596
O11_2 O -0.0343(6) 0.3376(7) 0.5179(3)
H26_2 H 0.0099 0.3454 0.5204
C39_2 C -0.1547(10) 0.3619(8) 0.5644(5)
H27_2 H -0.1168 0.3310 0.5717
H28_2 H -0.1998 0.3600 0.5763
C40_2 C -0.0896(9) 0.5469(8) 0.5086(5)
H29_2 H -0.1245 0.5792 0.5210
C41_2 C -0.0530(12) 0.6968(10) 0.4288(5)
H30_2 H -0.0103 0.7030 0.4127
O12_2 O -0.1056(6) 0.7412(7) 0.4100(4)
H31_2 H -0.1118 0.7252 0.3892
C42_2 C -0.0761(9) 0.6161(11) 0.4188(6)
O13_2 O -0.0069(7) 0.5476(7) 0.4579(4)
O14_2 O 0.0239(7) 0.5335(7) 0.3990(3)
C43_2 C -0.0188(12) 0.5505(14) 0.4202(6)
C44_2 C -0.0220(8) 0.6632(10) 0.4889(5)
H32_2 H 0.0008 0.6715 0.5114
C45_2 C -0.0201(10) 0.7130(11) 0.4645(6)
H33_2 H 0.0016 0.7583 0.4692
C46_2 C -0.1153(8) 0.6078(10) 0.3847(4)
H34_2 H -0.1114 0.5579 0.3764
H35_2 H -0.0945 0.6399 0.3666
H36_2 H -0.1660 0.6200 0.3883
C47_2 C -0.0399(11) 0.5268(8) 0.5386(5)
H37_2 H -0.0653 0.5326 0.5618
H38_2 H 0.0018 0.5598 0.5386
C48_2 C -0.0135(11) 0.4506(9) 0.5354(5)
H39_2 H 0.0264 0.4487 0.5178
H40_2 H 0.0052 0.4345 0.5590
Al1F Al 0.59718(5) 0.63391(5) 0.57988(2)
Al2F Al 0.5000 0.5000 0.61155(3)
O3F O 0.73668(12) 0.70464(13) 0.53310(5)
O4F O 0.67184(11) 0.70191(12) 0.58350(5)
C1F C 0.79618(17) 0.7119(2) 0.58918(7)
C2F C 1.04506(16) 0.8710(2) 0.84834(8)
C3F C 0.86397(19) 0.7102(3) 0.57308(9)
H1F H 0.8684 0.7096 0.5476
C4F C 1.28266(17) 0.5358(2) 0.62787(8)
C5F C 1.34617(16) 0.4977(2) 0.61374(7)
C6F C 0.73088(17) 0.70644(18) 0.56676(7)
C7F C 0.85035(19) 0.7111(2) 0.64709(9)
H2F H 0.8453 0.7135 0.6725
C8F C 1.0458(2) 0.7307(3) 0.71062(10)
C9F C 0.78992(19) 0.7116(2) 0.62603(8)
H3F H 0.7437 0.7117 0.6369
C10F C 1.04493(18) 0.8366(2) 0.81227(8)
C11F C 1.0793(2) 0.7702(2) 0.80755(9)
H4F H 1.1020 0.7477 0.8275
C12F C 1.0463(2) 0.7682(3) 0.74558(9)
C13F C 0.91828(19) 0.7073(3) 0.63239(9)
C14F C 1.0407(2) 0.6599(3) 0.64452(11)
H5F H 1.0389 0.6353 0.6222
C15F C 0.9831(2) 0.7013(3) 0.65522(10)
C16F C 1.1648(2) 0.6101(3) 0.65393(11)
C17F C 1.2140(2) 0.5067(3) 0.62442(10)
H6F H 1.2073 0.4613 0.6132
C18F C 1.0805(2) 0.7377(3) 0.77496(10)
H7F H 1.1052 0.6933 0.7722
C19F C 1.0120(2) 0.8341(3) 0.75049(10)
H8F H 0.9885 0.8563 0.7307
C20F C 1.0115(2) 0.8676(2) 0.78362(8)
H9F H 0.9878 0.9124 0.7864
C21F C 0.9848(2) 0.7368(3) 0.68826(10)
H10F H 0.9449 0.7650 0.6957
C22F C 1.1564(2) 0.5440(3) 0.63724(11)
H11F H 1.1096 0.5243 0.6347
C23F C 1.1023(2) 0.6539(3) 0.66638(12)
C24F C 0.9245(2) 0.7094(3) 0.59461(10)
H12F H 0.9707 0.7102 0.5839
C25F C 1.29235(19) 0.5990(2) 0.64545(11)
H13F H 1.3393 0.6183 0.6483
C26F C 1.2332(2) 0.6351(3) 0.65913(12)
H14F H 1.2403 0.6782 0.6724
C27F C 1.1025(2) 0.6903(3) 0.69926(11)
H15F H 1.1438 0.6868 0.7142
O5F O 1.33862(10) 0.43352(13) 0.60247(5)
O8F O 1.40500(11) 0.53244(13) 0.61396(6)
O9F O 1.06952(13) 0.83511(15) 0.87400(5)
O10F O 1.02112(12) 0.93479(14) 0.85030(5)
Al1G Al 0.40282(5) 0.36609(5) 0.57988(2)
O3G O 0.26332(12) 0.29536(13) 0.53310(5)
O4G O 0.32816(11) 0.29809(12) 0.58350(5)
C1G C 0.20382(17) 0.2881(2) 0.58918(7)
C2G C -0.04506(16) 0.1290(2) 0.84834(8)
C3G C 0.13603(19) 0.2898(3) 0.57308(9)
H1G H 0.1316 0.2904 0.5476
C4G C -0.28266(17) 0.4642(2) 0.62787(8)
C5G C -0.34617(16) 0.5023(2) 0.61374(7)
C6G C 0.26912(17) 0.29356(18) 0.56676(7)
C7G C 0.14965(19) 0.2889(2) 0.64709(9)
H2G H 0.1547 0.2865 0.6725
C8G C -0.0458(2) 0.2693(3) 0.71062(10)
C9G C 0.21008(19) 0.2884(2) 0.62603(8)
H3G H 0.2563 0.2883 0.6369
C10G C -0.04493(18) 0.1634(2) 0.81227(8)
C11G C -0.0793(2) 0.2298(2) 0.80755(9)
H4G H -0.1020 0.2523 0.8275
C12G C -0.0463(2) 0.2318(3) 0.74558(9)
C13G C 0.08172(19) 0.2927(3) 0.63239(9)
C14G C -0.0407(2) 0.3401(3) 0.64452(11)
H5G H -0.0389 0.3647 0.6222
C15G C 0.0169(2) 0.2987(3) 0.65522(10)
C16G C -0.1648(2) 0.3899(3) 0.65393(11)
C17G C -0.2140(2) 0.4933(3) 0.62442(10)
H6G H -0.2073 0.5387 0.6132
C18G C -0.0805(2) 0.2623(3) 0.77496(10)
H7G H -0.1052 0.3067 0.7722
C19G C -0.0120(2) 0.1659(3) 0.75049(10)
H8G H 0.0115 0.1437 0.7307
C20G C -0.0115(2) 0.1324(2) 0.78362(8)
H9G H 0.0122 0.0876 0.7864
C21G C 0.0152(2) 0.2632(3) 0.68826(10)
H10G H 0.0551 0.2350 0.6957
C22G C -0.1564(2) 0.4560(3) 0.63724(11)
H11G H -0.1096 0.4757 0.6347
C23G C -0.1023(2) 0.3461(3) 0.66638(12)
C24G C 0.0755(2) 0.2906(3) 0.59461(10)
H12G H 0.0293 0.2898 0.5839
C25G C -0.29235(19) 0.4010(2) 0.64545(11)
H13G H -0.3393 0.3817 0.6483
C26G C -0.2332(2) 0.3649(3) 0.65913(12)
H14G H -0.2403 0.3218 0.6724
C27G C -0.1025(2) 0.3097(3) 0.69926(11)
H15G H -0.1438 0.3132 0.7142
O5G O -0.33862(10) 0.56648(13) 0.60247(5)
O8G O -0.40500(11) 0.46756(13) 0.61396(6)
O9G O -0.06952(13) 0.16489(15) 0.87400(5)
O10G O -0.02112(12) 0.06521(14) 0.85030(5)
Al1_2 Al -0.36609(5) 0.59718(5) 0.42012(2)
Al1_3 Al 0.63391(5) -0.40282(5) 0.42012(2)
Al1A Al -0.09718(5) 0.13391(5) 0.92012(2)
Al1B_2 Al 0.36609(5) 1.40282(5) 0.42012(2)
Al1B_3 Al 1.36609(5) 0.40282(5) 0.42012(2)
Al1C Al 1.09718(5) 0.86609(5) 0.92012(2)
Al1D Al 0.13391(5) -0.09718(5) 0.07988(2)
Al1E Al 0.86609(5) 1.09718(5) 0.07988(2)
Al1F_2 Al -0.40282(5) 0.63391(5) 0.57988(2)
Al1G_2 Al 1.40282(5) 0.36609(5) 0.57988(2)
Al2_2 Al 0.5000 -0.5000 0.38845(3)
Al2_3 Al 0.5000 1.5000 0.38845(3)
Al2A Al -0.0000 0.0000 0.88845(3)
Al2A_2 Al 1.0000 1.0000 0.88845(3)
Al2D Al 0.0000 0.0000 0.11155(3)
Al2D_2 Al 1.0000 1.0000 0.11155(3)
Al2F_2 Al -0.5000 0.5000 0.61155(3)
Al2F_3 Al 1.5000 0.5000 0.61155(3)
Al3_2 Al -0.33233(5) 0.66767(5) 0.5000
Al3B_2 Al 1.33233(5) 0.33233(5) 0.5000
O5_2 O 0.43352(13) 0.33862(10) 0.39753(5)
O5B_2 O 0.56648(13) 0.66138(10) 0.39753(5)
O5F_2 O 0.33862(10) 0.43352(13) 0.60247(5)
O5G_2 O 0.66138(10) 0.56648(13) 0.60247(5)
O6F O 0.53746(12) 0.70860(14) 0.56063(6)
O6G O 0.46254(12) 0.29140(14) 0.56063(6)
O7F O 0.60076(13) 0.74154(12) 0.51216(5)
O7G O 0.39924(13) 0.25846(12) 0.51216(5)
O8_2 O 0.53244(13) 0.40500(11) 0.38604(6)
O8B_2 O 0.46756(13) 0.59500(11) 0.38604(6)
O8F_2 O 0.40500(11) 0.53244(13) 0.61396(6)
O8G_2 O 0.59500(11) 0.46756(13) 0.61396(6)
O9A O 0.43048(13) 0.33511(15) 0.62600(5)
O9C O 0.56952(13) 0.66489(15) 0.62600(5)
O9D O 0.33511(15) 0.43048(13) 0.37400(5)
O9E O 0.66489(15) 0.56952(13) 0.37400(5)
O10A O 0.47888(12) 0.43479(14) 0.64970(5)
O10C O 0.52112(12) 0.56521(14) 0.64970(5)
O10D O 0.43479(14) 0.47888(12) 0.35030(5)
O10E O 0.56521(14) 0.52112(12) 0.35030(5)
loop_
_geom_bond_atom_site_label_1
_geom_bond_atom_site_label_2
_geom_bond_site_symmetry_1
_geom_bond_site_symmetry_2
Al1 O1 1_555 1_555
Al2 O1 1_555 1_555
Al3 O2 1_555 1_555
O1 C29 1_555 1_555
O2 Al1 1_555 1_555
O3 Al3 1_555 1_555
O4 Al1 1_555 1_555
C1 C3 1_555 1_555
C2 C10 1_555 1_555
C3 H1 1_555 1_555
C4 C5 1_555 1_555
C5 O5 1_555 1_555
C6 O3 1_555 1_555
C7 H2 1_555 1_555
C8 C12 1_555 1_555
C9 C1 1_555 1_555
H3 C9 1_555 1_555
C10 C11 1_555 1_555
C11 H4 1_555 1_555
C12 C18 1_555 1_555
C13 C7 1_555 1_555
C14 H5 1_555 1_555
C15 C13 1_555 1_555
C16 C22 1_555 1_555
C17 C4 1_555 1_555
H6 C17 1_555 1_555
C18 C11 1_555 1_555
H7 C18 1_555 1_555
C19 C12 1_555 1_555
H8 C19 1_555 1_555
C20 C10 1_555 1_555
H9 C20 1_555 1_555
C21 C8 1_555 1_555
H10 C21 1_555 1_555
C22 C17 1_555 1_555
H11 C22 1_555 1_555
C23 C14 1_555 1_555
C24 C3 1_555 1_555
H12 C24 1_555 1_555
C25 C4 1_555 1_555
H13 C25 1_555 1_555
C26 C16 1_555 1_555
H14 C26 1_555 1_555
C27 C8 1_555 1_555
H15 C27 1_555 1_555
O5 Al1B_2 1_555 1_555
O6 Al1 1_555 1_555
O7 Al3 1_555 1_555
O8 C5 1_555 1_555
O9 C2 1_555 1_555
O10 C2 1_555 1_555
C28 O6 1_555 1_555
C29 H16 1_555 1_555
H17 C29 1_555 1_555
C30 O2 1_555 1_555
H18 C30 1_555 1_555
H19 C30 1_555 1_555
C31 C28 1_555 1_555
H20 C31 1_555 1_555
C32 C31 1_555 1_555
C33 C32 1_555 1_555
H21 C33 1_555 1_555
H22 C33 1_555 1_555
C34 C33 1_555 1_555
C35 C34 1_555 1_555
C36 C32 1_555 1_555
H23 C36 1_555 1_555
H24 C36 1_555 1_555
C37 C38 1_555 1_555
C38 C31 1_555 1_555
H25 C38 1_555 1_555
O11 C35 1_555 1_555
H26 O11 1_555 1_555
C39 C34 1_555 1_555
H27 C39 1_555 1_555
H28 C39 1_555 1_555
C40 C32 1_555 1_555
H29 C40 1_555 1_555
C41 H30 1_555 1_555
O12 C41 1_555 1_555
H31 O12 1_555 1_555
C42 C38 1_555 1_555
O13 C37 1_555 1_555
O14 C43 1_555 1_555
C43 C42 1_555 1_555
C44 C37 1_555 1_555
H32 C44 1_555 1_555
C45 C41 1_555 1_555
H33 C45 1_555 1_555
C46 C42 1_555 1_555
H34 C46 1_555 1_555
H35 C46 1_555 1_555
H36 C46 1_555 1_555
C47 C40 1_555 1_555
H37 C47 1_555 1_555
H38 C47 1_555 1_555
C48 C35 1_555 1_555
H39 C48 1_555 1_555
H40 C48 1_555 1_555
O1B Al2 1_555 1_555
O2B C30B 1_555 1_555
C29B H17 1_555 1_555
H16B C29B 1_555 1_555
H17B C29 1_555 1_555
C30B C29B 1_555 1_555
H18B C30B 1_555 1_555
H19B C30B 1_555 1_555
O1F C29F 1_555 1_555
O2F Al3 1_555 1_555
C29F H16F 1_555 1_555
H17F C29F 1_555 1_555
C30F O2F 1_555 1_555
H18F C30F 1_555 1_555
H19F C30F 1_555 1_555
O1G C29G 1_555 1_555
O2G C30G 1_555 1_555
C29G H17F 1_555 1_555
H16G C29G 1_555 1_555
H17G C29F 1_555 1_555
C30G C29G 1_555 1_555
H18G C30G 1_555 1_555
H19G C30G 1_555 1_555
O6B C28B 1_555 1_555
O7B C28B 1_555 1_555
C28B C31B 1_555 1_555
C31B H20B 1_555 1_555
C32B C31B 1_555 1_555
C33B C32B 1_555 1_555
H21B C33B 1_555 1_555
H22B C33B 1_555 1_555
C34B C33B 1_555 1_555
C35B C34B 1_555 1_555
C36B C32B 1_555 1_555
H23B O13 1_555 1_555
H24B C36B 1_555 1_555
C37B C38B 1_555 1_555
C38B C31B 1_555 1_555
H25B C38B 1_555 1_555
O11B C44 1_555 1_555
H26B C44 1_555 1_555
C39B C34B 1_555 1_555
H27B C39B 1_555 1_555
H28B C39B 1_555 1_555
C40B H39 1_555 1_555
H29B C40B 1_555 1_555
C41B H30B 1_555 1_555
O12B C41B 1_555 1_555
H31B O12B 1_555 1_555
C42B C38B 1_555 1_555
O13B H23 1_555 1_555
O14B O14 1_555 1_555
C43B O14 1_555 1_555
C44B O11 1_555 1_555
H32B O11 1_555 1_555
C45B C41B 1_555 1_555
H33B C45B 1_555 1_555
C46B C42B 1_555 1_555
H34B C46B 1_555 1_555
H35B C46B 1_555 1_555
H36B C46B 1_555 1_555
C47B C48 1_555 1_555
H37B C47B 1_555 1_555
H38B C47B 1_555 1_555
C48B C47 1_555 1_555
H39B C40 1_555 1_555
H40B C47 1_555 1_555
Al1B O1B 1_555 1_555
Al3B O2B 1_555 1_555
O3B Al3B 1_555 1_555
O4B Al1B 1_555 1_555
C1B C3B 1_555 1_555
C2B C10B 1_555 1_555
C3B H1B 1_555 1_555
C4B C5B 1_555 1_555
C5B O5B 1_555 1_555
C6B O3B 1_555 1_555
C7B H2B 1_555 1_555
C8B C12B 1_555 1_555
C9B C1B 1_555 1_555
H3B C9B 1_555 1_555
C10B C11B 1_555 1_555
C11B H4B 1_555 1_555
C12B C18B 1_555 1_555
C13B C7B 1_555 1_555
C14B H5B 1_555 1_555
C15B C13B 1_555 1_555
C16B C22B 1_555 1_555
C17B C4B 1_555 1_555
H6B C17B 1_555 1_555
C18B C11B 1_555 1_555
H7B C18B 1_555 1_555
C19B C12B 1_555 1_555
H8B C19B 1_555 1_555
C20B C10B 1_555 1_555
H9B C20B 1_555 1_555
C21B C8B 1_555 1_555
H10B C21B 1_555 1_555
C22B C17B 1_555 1_555
H11B C22B 1_555 1_555
C23B C14B 1_555 1_555
C24B C3B 1_555 1_555
H12B C24B 1_555 1_555
C25B C4B 1_555 1_555
H13B C25B 1_555 1_555
C26B C16B 1_555 1_555
H14B C26B 1_555 1_555
C27B C8B 1_555 1_555
H15B C27B 1_555 1_555
O5B Al1_3 1_555 1_555
O6B_2 Al1B 1_555 1_555
O7B_2 Al3B 1_555 1_555
O8B C5B 1_555 1_555
O9B C2B 1_555 1_555
O10B C2B 1_555 1_555
C28B_2 O6B_2 1_555 1_555
C31B_2 C28B_2 1_555 1_555
H20B_2 C31B_2 1_555 1_555
C32B_2 C31B_2 1_555 1_555
C33B_2 C32B_2 1_555 1_555
H21B_2 C33B_2 1_555 1_555
H22B_2 C33B_2 1_555 1_555
C34B_2 C33B_2 1_555 1_555
C35B_2 C34B_2 1_555 1_555
C36B_2 C32B_2 1_555 1_555
H23B_2 C36B_2 1_555 1_555
H24B_2 C36B_2 1_555 1_555
C37B_2 C38B_2 1_555 1_555
C38B_2 C31B_2 1_555 1_555
H25B_2 C38B_2 1_555 1_555
O11B_2 C35B_2 1_555 1_555
H26B_2 O11B_2 1_555 1_555
C39B_2 C34B_2 1_555 1_555
H27B_2 C39B_2 1_555 1_555
H28B_2 C39B_2 1_555 1_555
C40B_2 C32B_2 1_555 1_555
H29B_2 C40B_2 1_555 1_555
C41B_2 H30B_2 1_555 1_555
O12B_2 C41B_2 1_555 1_555
H31B_2 O12B_2 1_555 1_555
C42B_2 C38B_2 1_555 1_555
O13B_2 C37B_2 1_555 1_555
O14B_2 C43B_2 1_555 1_555
C43B_2 C42B_2 1_555 1_555
C44B_2 C37B_2 1_555 1_555
H32B_2 C44B_2 1_555 1_555
C45B_2 C41B_2 1_555 1_555
H33B_2 C45B_2 1_555 1_555
C46B_2 C42B_2 1_555 1_555
H34B_2 C46B_2 1_555 1_555
H35B_2 C46B_2 1_555 1_555
H36B_2 C46B_2 1_555 1_555
C47B_2 C40B_2 1_555 1_555
H37B_2 C47B_2 1_555 1_555
H38B_2 C47B_2 1_555 1_555
C48B_2 C35B_2 1_555 1_555
H39B_2 C48B_2 1_555 1_555
H40B_2 C48B_2 1_555 1_555
O6_2 C28_2 1_555 1_555
O7_2 C28_2 1_555 1_555
C28_2 C31_2 1_555 1_555
C31_2 H20_2 1_555 1_555
C32_2 C31_2 1_555 1_555
C33_2 C32_2 1_555 1_555
H21_2 C33_2 1_555 1_555
H22_2 C33_2 1_555 1_555
C34_2 C33_2 1_555 1_555
C35_2 C34_2 1_555 1_555
C36_2 C32_2 1_555 1_555
H23_2 O13B_2 1_555 1_555
H24_2 C36_2 1_555 1_555
C37_2 C38_2 1_555 1_555
C38_2 C31_2 1_555 1_555
H25_2 C38_2 1_555 1_555
O11_2 C44B_2 1_555 1_555
H26_2 C44B_2 1_555 1_555
C39_2 C34_2 1_555 1_555
H27_2 C39_2 1_555 1_555
H28_2 C39_2 1_555 1_555
C40_2 H39B_2 1_555 1_555
H29_2 C40_2 1_555 1_555
C41_2 H30_2 1_555 1_555
O12_2 C41_2 1_555 1_555
H31_2 O12_2 1_555 1_555
C42_2 C38_2 1_555 1_555
O13_2 H23B_2 1_555 1_555
O14_2 O14B_2 1_555 1_555
C43_2 O14B_2 1_555 1_555
C44_2 O11B_2 1_555 1_555
H32_2 O11B_2 1_555 1_555
C45_2 C41_2 1_555 1_555
H33_2 C45_2 1_555 1_555
C46_2 C42_2 1_555 1_555
H34_2 C46_2 1_555 1_555
H35_2 C46_2 1_555 1_555
H36_2 C46_2 1_555 1_555
C47_2 C48B_2 1_555 1_555
H37_2 C47_2 1_555 1_555
H38_2 C47_2 1_555 1_555
C48_2 C47B_2 1_555 1_555
H39_2 C40B_2 1_555 1_555
H40_2 C47B_2 1_555 1_555
Al1F O1F 1_555 1_555
Al2F O1F 1_555 1_555
O3F Al3 1_555 1_555
O4F Al1F 1_555 1_555
C1F C3F 1_555 1_555
C2F C10F 1_555 1_555
C3F H1F 1_555 1_555
C4F C5F 1_555 1_555
C5F O5F 1_555 1_555
C6F O3F 1_555 1_555
C7F H2F 1_555 1_555
C8F C12F 1_555 1_555
C9F C1F 1_555 1_555
H3F C9F 1_555 1_555
C10F C11F 1_555 1_555
C11F H4F 1_555 1_555
C12F C18F 1_555 1_555
C13F C7F 1_555 1_555
C14F H5F 1_555 1_555
C15F C13F 1_555 1_555
C16F C22F 1_555 1_555
C17F C4F 1_555 1_555
H6F C17F 1_555 1_555
C18F C11F 1_555 1_555
H7F C18F 1_555 1_555
C19F C12F 1_555 1_555
H8F C19F 1_555 1_555
C20F C10F 1_555 1_555
H9F C20F 1_555 1_555
C21F C8F 1_555 1_555
H10F C21F 1_555 1_555
C22F C17F 1_555 1_555
H11F C22F 1_555 1_555
C23F C14F 1_555 1_555
C24F C3F 1_555 1_555
H12F C24F 1_555 1_555
C25F C4F 1_555 1_555
H13F C25F 1_555 1_555
C26F C16F 1_555 1_555
H14F C26F 1_555 1_555
C27F C8F 1_555 1_555
H15F C27F 1_555 1_555
O5F Al1G_2 1_555 1_555
O8F C5F 1_555 1_555
O9F C2F 1_555 1_555
O10F C2F 1_555 1_555
Al1G O1G 1_555 1_555
O3G Al3B 1_555 1_555
O4G Al1G 1_555 1_555
C1G C3G 1_555 1_555
C2G C10G 1_555 1_555
C3G H1G 1_555 1_555
C4G C5G 1_555 1_555
C5G O5G 1_555 1_555
C6G O3G 1_555 1_555
C7G H2G 1_555 1_555
C8G C12G 1_555 1_555
C9G C1G 1_555 1_555
H3G C9G 1_555 1_555
C10G C11G 1_555 1_555
C11G H4G 1_555 1_555
C12G C18G 1_555 1_555
C13G C7G 1_555 1_555
C14G H5G 1_555 1_555
C15G C13G 1_555 1_555
C16G C22G 1_555 1_555
C17G C4G 1_555 1_555
H6G C17G 1_555 1_555
C18G C11G 1_555 1_555
H7G C18G 1_555 1_555
C19G C12G 1_555 1_555
H8G C19G 1_555 1_555
C20G C10G 1_555 1_555
H9G C20G 1_555 1_555
C21G C8G 1_555 1_555
H10G C21G 1_555 1_555
C22G C17G 1_555 1_555
H11G C22G 1_555 1_555
C23G C14G 1_555 1_555
C24G C3G 1_555 1_555
H12G C24G 1_555 1_555
C25G C4G 1_555 1_555
H13G C25G 1_555 1_555
C26G C16G 1_555 1_555
H14G C26G 1_555 1_555
C27G C8G 1_555 1_555
H15G C27G 1_555 1_555
O5G Al1F_2 1_555 1_555
O8G C5G 1_555 1_555
O9G C2G 1_555 1_555
O10G C2G 1_555 1_555
Al1_2 O6_2 1_555 1_555
Al1A O9G 1_555 1_555
Al1B_3 O6B 1_555 1_555
Al1C O9F 1_555 1_555
Al1D O9B 1_555 1_555
Al1E O9 1_555 1_555
Al2_2 O8B 1_555 1_555
Al2_3 O8 1_555 1_555
Al2A O10G 1_555 1_555
Al2A_2 O10F 1_555 1_555
Al2D O10B 1_555 1_555
Al2D_2 O10 1_555 1_555
Al2F_2 O8G 1_555 1_555
Al2F_3 O8F 1_555 1_555
Al3_2 O7_2 1_555 1_555
Al3B_2 O7B 1_555 1_555
O5_2 Al1B 1_555 1_555
O5B_2 Al1 1_555 1_555
O5F_2 Al1G 1_555 1_555
O5G_2 Al1F 1_555 1_555
O6F Al1F 1_555 1_555
O6G Al1G 1_555 1_555
O7F Al3 1_555 1_555
O7G Al3B 1_555 1_555
O8_2 Al2 1_555 1_555
O8B_2 Al2 1_555 1_555
O8F_2 Al2F 1_555 1_555
O8G_2 Al2F 1_555 1_555
O9A Al1G 1_555 1_555
O9C Al1F 1_555 1_555
O9D Al1B 1_555 1_555
O9E Al1 1_555 1_555
O10A Al2F 1_555 1_555
O10C Al2F 1_555 1_555
O10D Al2 1_555 1_555
O10E Al2 1_555 1_555
O4 C6 1_555 1_555
C1 C6 1_555 1_555
C7 C9 1_555 1_555
C13 C24 1_555 1_555
C14 C15 1_555 1_555
C15 C21 1_555 1_555
C16 C23 1_555 1_555
C19 C20 1_555 1_555
C23 C27 1_555 1_555
C25 C26 1_555 1_555
O7 C28 1_555 1_555
C29 C30 1_555 1_555
C35 C36 1_555 1_555
C37 C40 1_555 1_555
H26 C44B 1_555 1_555
C41 C42 1_555 1_555
O13 C43 1_555 1_555
O13 O13B 1_555 1_555
C43 O14B 1_555 1_555
C44 C45 1_555 1_555
H32 O11B 1_555 1_555
C47 C48 1_555 1_555
C47 H39B 1_555 1_555
H39 C47B 1_555 1_555
H40 C47B 1_555 1_555
O1B C29B 1_555 1_555
O2B Al1B 1_555 1_555
C29B H17B 1_555 1_555
O2F Al1F 1_555 1_555
C29F C30F 1_555 1_555
O1G Al2F 1_555 1_555
O2G Al3B 1_555 1_555
O2G Al1G 1_555 1_555
C29G H17G 1_555 1_555
C32B C40B 1_555 1_555
C35B C36B 1_555 1_555
C35B O11B 1_555 1_555
C35B C48B 1_555 1_555
C36B H23B 1_555 1_555
C37B C40B 1_555 1_555
C37B O13B 1_555 1_555
C37B C44B 1_555 1_555
O11B H26B 1_555 1_555
C40B C47B 1_555 1_555
C41B C42B 1_555 1_555
C42B C43B 1_555 1_555
O13B C43B 1_555 1_555
O14B C43B 1_555 1_555
C44B H32B 1_555 1_555
C44B C45B 1_555 1_555
C47B C48B 1_555 1_555
C48B H39B 1_555 1_555
C48B H40B 1_555 1_555
O4B C6B 1_555 1_555
C1B C6B 1_555 1_555
C7B C9B 1_555 1_555
C13B C24B 1_555 1_555
C14B C15B 1_555 1_555
C15B C21B 1_555 1_555
C16B C23B 1_555 1_555
C19B C20B 1_555 1_555
C23B C27B 1_555 1_555
C25B C26B 1_555 1_555
O7B_2 C28B_2 1_555 1_555
C35B_2 C36B_2 1_555 1_555
C37B_2 C40B_2 1_555 1_555
H26B_2 C44_2 1_555 1_555
C41B_2 C42B_2 1_555 1_555
O13B_2 C43B_2 1_555 1_555
O13B_2 O13_2 1_555 1_555
C43B_2 O14_2 1_555 1_555
C44B_2 C45B_2 1_555 1_555
H32B_2 O11_2 1_555 1_555
C47B_2 C48B_2 1_555 1_555
C47B_2 H39_2 1_555 1_555
H39B_2 C47_2 1_555 1_555
H40B_2 C47_2 1_555 1_555
C32_2 C40_2 1_555 1_555
C35_2 C36_2 1_555 1_555
C35_2 O11_2 1_555 1_555
C35_2 C48_2 1_555 1_555
C36_2 H23_2 1_555 1_555
C37_2 C40_2 1_555 1_555
C37_2 O13_2 1_555 1_555
C37_2 C44_2 1_555 1_555
O11_2 H26_2 1_555 1_555
C40_2 C47_2 1_555 1_555
C41_2 C42_2 1_555 1_555
C42_2 C43_2 1_555 1_555
O13_2 C43_2 1_555 1_555
O14_2 C43_2 1_555 1_555
C44_2 H32_2 1_555 1_555
C44_2 C45_2 1_555 1_555
C47_2 C48_2 1_555 1_555
C48_2 H39_2 1_555 1_555
C48_2 H40_2 1_555 1_555
O4F C6F 1_555 1_555
C1F C6F 1_555 1_555
C7F C9F 1_555 1_555
C13F C24F 1_555 1_555
C14F C15F 1_555 1_555
C15F C21F 1_555 1_555
C16F C23F 1_555 1_555
C19F C20F 1_555 1_555
C23F C27F 1_555 1_555
C25F C26F 1_555 1_555
O4G C6G 1_555 1_555
C1G C6G 1_555 1_555
C7G C9G 1_555 1_555
C13G C24G 1_555 1_555
C14G C15G 1_555 1_555
C15G C21G 1_555 1_555
C16G C23G 1_555 1_555
C19G C20G 1_555 1_555
C23G C27G 1_555 1_555
C25G C26G 1_555 1_555

#END
