
#######################################################################
#
#                 Cambridge Crystallographic Data Centre
#                                CCDC 
#
#######################################################################
#
# If this CIF has been generated from an entry in the Cambridge 
# Structural Database, then it will include bibliographic, chemical, 
# crystal, experimental, refinement or atomic coordinate data resulting 
# from the CCDC's data processing and validation procedures.
#
#######################################################################

data_OTEDIC
_chemical_formula_moiety         'C184 H160 Al21 O75'
_symmetry_cell_setting           tetragonal
_symmetry_space_group_name_H-M   'P 42 21 2'
_symmetry_Int_Tables_number      94
_space_group_name_Hall           'P 4n 2n'
loop_
_symmetry_equiv_pos_site_id
_symmetry_equiv_pos_as_xyz
1 x,y,z
2 1/2-y,1/2+x,1/2+z
3 -x,-y,z
4 1/2+y,1/2-x,1/2+z
5 1/2+x,1/2-y,1/2-z
6 1/2-x,1/2+y,1/2-z
7 y,x,-z
8 -y,-x,-z
_cell_length_a                   18.0631(8)
_cell_length_b                   18.0631(8)
_cell_length_c                   37.9654(16)
_cell_angle_alpha                90
_cell_angle_beta                 90
_cell_angle_gamma                90
_cell_volume                     12387.2
loop_
_atom_site_label
_atom_site_type_symbol
_atom_site_fract_x
_atom_site_fract_y
_atom_site_fract_z
Al1 Al 0.67011(4) 0.32989(4) 0.5000
Al2 Al 0.64113(4) 0.40867(3) 0.57743(2)
Al3 Al 0.5000 0.5000 0.61037(2)
O1 O 0.61022(9) 0.37009(8) 0.53474(3)
H1 H 0.5585 0.3710 0.5302
O2 O 0.71218(10) 0.26185(10) 0.53316(4)
O3 O 0.71571(9) 0.33609(8) 0.58011(3)
O4 O 0.57129(9) 0.48308(7) 0.57651(3)
H2 H 0.5721 0.5156 0.5569
C1 C 0.72015(13) 0.20853(12) 0.58974(5)
C2 C 0.86291(15) -0.03670(12) 0.85206(5)
C3 C 0.71690(13) 0.27288(13) 0.56592(5)
C4 C 0.48772(14) -0.34304(12) 0.61396(5)
C5 C 0.71351(18) 0.13652(13) 0.57688(6)
H3 H 0.7144 0.1275 0.5522
C6 C 0.52086(15) -0.27679(13) 0.63085(6)
C7 C 0.71596(18) 0.16093(14) 0.64920(6)
H4 H 0.7179 0.1692 0.6739
C8 C 0.82485(16) -0.03501(13) 0.81730(5)
C9 C 0.58539(18) -0.28669(14) 0.65088(7)
H5 H 0.6055 -0.3349 0.6539
C10 C 0.70568(18) 0.09023(14) 0.63664(6)
C11 C 0.75562(17) -0.06727(16) 0.81298(6)
H6 H 0.7320 -0.0899 0.8326
C12 C 0.49040(17) -0.20683(14) 0.62723(6)
H7 H 0.4452 -0.2005 0.6148
C13 C 0.7271(2) 0.02640(16) 0.69380(6)
H8 H 0.7582 0.0664 0.7007
C14 C 0.8246(2) -0.00165(17) 0.75592(6)
H9 H 0.8487 0.0200 0.7362
C15 C 0.85903(17) -0.00138(17) 0.78825(6)
H10 H 0.9060 0.0216 0.7909
C16 C 0.69283(19) 0.02761(14) 0.66086(6)
C17 C 0.75364(19) -0.03380(15) 0.75167(6)
C18 C 0.59236(18) -0.15539(14) 0.66107(7)
C19 C 0.71615(19) -0.03362(15) 0.71698(6)
C20 C 0.72354(16) 0.22085(13) 0.62614(5)
H11 H 0.7309 0.2694 0.6351
C21 C 0.6197(2) -0.22635(16) 0.66632(8)
H12 H 0.6623 -0.2336 0.6806
C22 C 0.6460(2) -0.03026(14) 0.65126(7)
H13 H 0.6211 -0.0290 0.6292
C23 C 0.72070(18) -0.06691(16) 0.78057(6)
H14 H 0.6736 -0.0896 0.7781
C24 C 0.6354(2) -0.09119(14) 0.67442(7)
C25 C 0.7055(2) 0.07806(15) 0.60039(6)
H15 H 0.6999 0.0291 0.5916
C26 C 0.52591(19) -0.14610(14) 0.64169(7)
H16 H 0.5057 -0.0980 0.6386
C27 C 0.6714(2) -0.09141(15) 0.70653(7)
H17 H 0.6652 -0.1326 0.7218
O5 O 0.42285(9) -0.33887(8) 0.60186(3)
O6 O 0.71260(10) 0.47216(10) 0.55589(4)
O7 O 0.74692(10) 0.40113(11) 0.50913(4)
O8 O 0.52740(10) -0.40000(9) 0.61336(5)
O9 O 0.82474(10) -0.05912(9) 0.87797(4)
O10 O 0.93032(11) -0.01771(10) 0.85282(4)
C28 C 0.7553(2) 0.4536(2) 0.53099(8)
C29 C 0.8381(8) 0.4758(8) 0.5359(3)
H18 H 0.8433 0.5136 0.5550
C30 C 0.8768(7) 0.4997(10) 0.5042(3)
C31 C 0.9243(9) 0.4429(9) 0.4863(4)
H19 H 0.8880 0.4112 0.4734
C32 C 0.8932(8) 0.4053(9) 0.5433(3)
H20 H 0.8604 0.3610 0.5408
C33 C 0.8191(8) 0.5392(9) 0.4760(3)
H21 H 0.8000 0.5020 0.4591
H22 H 0.7766 0.5613 0.4887
C34 C 0.8622(8) 0.5987(8) 0.4567(3)
C35 C 0.9435(9) 0.6036(10) 0.4750(4)
O11 O 0.9723(7) 0.6737(7) 0.4752(3)
H23 H 0.9827 0.6864 0.4545
C36 C 0.8508(9) 0.6310(9) 0.4310(4)
H24 H 0.8070 0.6215 0.4179
H25 H 0.8852 0.6670 0.4230
H26 H 1.0642 0.3168 0.5475
H27 H 1.0218 0.2401 0.5416
C37 C 0.9188(8) 0.5763(9) 0.5117(4)
H28 H 0.8850 0.6125 0.5230
H29 H 0.9620 0.5684 0.5273
C38 C 0.8860(8) 0.3983(10) 0.6108(3)
H30 H 0.8583 0.4450 0.6100
H31 H 0.9173 0.3974 0.6319
H32 H 0.8513 0.3567 0.6115
C39 C 0.9346(8) 0.3921(8) 0.5780(4)
C40 C 1.0051(9) 0.5493(11) 0.4599(4)
H33 H 1.0229 0.5671 0.4367
H34 H 1.0478 0.5467 0.4762
C41 C 0.9719(12) 0.4786(12) 0.4564(6)
H35 H 1.0123 0.4433 0.4510
H36 H 0.9401 0.4807 0.4351
C42 C 0.9503(9) 0.3955(11) 0.5148(4)
O12 O 1.0156(5) 0.4438(6) 0.5305(3)
C43 C 1.0000(9) 0.4501(11) 0.5696(4)
O13 O 1.0312(6) 0.4811(8) 0.5920(4)
C44 C 0.9608(11) 0.3134(11) 0.5760(5)
H37 H 0.9919 0.3061 0.5975
O14 O 0.9140(7) 0.2491(8) 0.5743(3)
H38 H 0.9141 0.2275 0.5939
C45 C 1.0151(9) 0.2944(11) 0.5430(5)
H39 H 0.9481 0.2884 0.4969
C46 C 0.9850(9) 0.3232(9) 0.5068(5)
H40 H 1.0258 0.3292 0.4897
O6B O 1.28740(10) 0.52784(10) 0.55589(4)
O7B O 1.25308(10) 0.59887(11) 0.50913(4)
C28B C 1.2447(2) 0.5464(2) 0.53099(8)
C29B C 1.1619(8) 0.5242(8) 0.5359(3)
H18B H 1.1567 0.4864 0.5550
C30B C 1.1232(7) 0.5003(10) 0.5042(3)
C31B C 1.0757(9) 0.5571(9) 0.4863(4)
H19B H 1.1120 0.5888 0.4734
C32B C 1.1068(8) 0.5947(9) 0.5433(3)
H20B H 1.1396 0.6390 0.5408
C33B C 1.1809(8) 0.4608(9) 0.4760(3)
H21B H 1.2000 0.4980 0.4591
H22B H 1.2234 0.4387 0.4887
C34B C 1.1378(8) 0.4013(8) 0.4567(3)
C35B C 1.0565(9) 0.3964(10) 0.4750(4)
O11B O 1.0277(7) 0.3263(7) 0.4752(3)
H23B H 1.0173 0.3136 0.4545
C36B C 1.1492(9) 0.3690(9) 0.4310(4)
H24B H 1.1930 0.3785 0.4179
H25B H 1.1148 0.3330 0.4230
H26B H 0.9358 0.6832 0.5475
H27B H 0.9782 0.7599 0.5416
C37B C 1.0812(8) 0.4237(9) 0.5117(4)
H28B H 1.1150 0.3875 0.5230
H29B H 1.0380 0.4316 0.5273
C38B C 1.1140(8) 0.6017(10) 0.6108(3)
H30B H 1.1417 0.5550 0.6100
H31B H 1.0827 0.6026 0.6319
H32B H 1.1487 0.6433 0.6115
C39B C 1.0654(8) 0.6079(8) 0.5780(4)
C40B C 0.9949(9) 0.4507(11) 0.4599(4)
H33B H 0.9771 0.4329 0.4367
H34B H 0.9522 0.4533 0.4762
C41B C 1.0281(12) 0.5214(12) 0.4564(6)
H35B H 0.9877 0.5567 0.4510
H36B H 1.0599 0.5193 0.4351
C42B C 1.0497(9) 0.6045(11) 0.5148(4)
O12B O 0.9844(5) 0.5562(6) 0.5305(3)
C43B C 1.0000(9) 0.5499(11) 0.5696(4)
O13B O 0.9688(6) 0.5189(8) 0.5920(4)
C44B C 1.0392(11) 0.6866(11) 0.5760(5)
H37B H 1.0081 0.6939 0.5975
O14B O 1.0860(7) 0.7509(8) 0.5743(3)
H38B H 1.0859 0.7725 0.5939
C45B C 0.9849(9) 0.7056(11) 0.5430(5)
H39B H 1.0519 0.7116 0.4969
C46B C 1.0150(9) 0.6768(9) 0.5068(5)
H40B H 0.9742 0.6708 0.4897
Al2B Al 0.35887(4) -0.40867(3) 0.57743(2)
O1B O 0.38978(9) -0.37009(8) 0.53474(3)
H1B H 0.4415 -0.3710 0.5302
O2B O 0.28782(10) -0.26185(10) 0.53316(4)
O3B O 0.28429(9) -0.33609(8) 0.58011(3)
O4B O 0.42871(9) -0.48308(7) 0.57651(3)
H2B H 0.4279 -0.5156 0.5569
C1B C 0.27985(13) -0.20853(12) 0.58974(5)
C2B C 0.13709(15) 0.03670(12) 0.85206(5)
C3B C 0.28310(13) -0.27288(13) 0.56592(5)
C4B C 0.51228(14) 0.34304(12) 0.61396(5)
C5B C 0.28649(18) -0.13652(13) 0.57688(6)
H3B H 0.2856 -0.1275 0.5522
C6B C 0.47914(15) 0.27679(13) 0.63085(6)
C7B C 0.28404(18) -0.16093(14) 0.64920(6)
H4B H 0.2821 -0.1692 0.6739
C8B C 0.17515(16) 0.03501(13) 0.81730(5)
C9B C 0.41461(18) 0.28669(14) 0.65088(7)
H5B H 0.3945 0.3349 0.6539
C10B C 0.29432(18) -0.09023(14) 0.63664(6)
C11B C 0.24438(17) 0.06727(16) 0.81298(6)
H6B H 0.2680 0.0899 0.8326
C12B C 0.50960(17) 0.20683(14) 0.62723(6)
H7B H 0.5548 0.2005 0.6148
C13B C 0.2729(2) -0.02640(16) 0.69380(6)
H8B H 0.2418 -0.0664 0.7007
C14B C 0.1754(2) 0.00165(17) 0.75592(6)
H9B H 0.1513 -0.0200 0.7362
C15B C 0.14097(17) 0.00138(17) 0.78825(6)
H10B H 0.0940 -0.0216 0.7909
C16B C 0.30717(19) -0.02761(14) 0.66086(6)
C17B C 0.24636(19) 0.03380(15) 0.75167(6)
C18B C 0.40764(18) 0.15539(14) 0.66107(7)
C19B C 0.28385(19) 0.03362(15) 0.71698(6)
C20B C 0.27646(16) -0.22085(13) 0.62614(5)
H11B H 0.2691 -0.2694 0.6351
C21B C 0.3803(2) 0.22635(16) 0.66632(8)
H12B H 0.3377 0.2336 0.6806
C22B C 0.3540(2) 0.03026(14) 0.65126(7)
H13B H 0.3789 0.0290 0.6292
C23B C 0.27930(18) 0.06691(16) 0.78057(6)
H14B H 0.3264 0.0896 0.7781
C24B C 0.3646(2) 0.09119(14) 0.67442(7)
C25B C 0.2945(2) -0.07806(15) 0.60039(6)
H15B H 0.3001 -0.0291 0.5916
C26B C 0.47409(19) 0.14610(14) 0.64169(7)
H16B H 0.4943 0.0980 0.6386
C27B C 0.3286(2) 0.09141(15) 0.70653(7)
H17B H 0.3348 0.1326 0.7218
O5B O 0.57715(9) 0.33887(8) 0.60186(3)
O8B O 0.47260(10) 0.40000(9) 0.61336(5)
O9B O 0.17526(10) 0.05912(9) 0.87797(4)
O10B O 0.06968(11) 0.01771(10) 0.85282(4)
Al1B Al 0.32989(4) -0.32989(4) 0.5000
Al1B_2 Al 1.32989(4) 0.67011(4) 0.5000
Al2B_2 Al 1.35887(4) 0.59133(3) 0.57743(2)
Al2D Al 0.14113(4) 0.09133(3) 0.92257(2)
Al2E Al 0.85887(4) -0.09133(3) 0.92257(2)
Al3_2 Al 0.5000 -0.5000 0.61037(2)
Al3D Al 0.0000 0.0000 0.88963(2)
Al3D_2 Al 1.0000 0.0000 0.88963(2)
O1G O 0.62991(8) 0.38978(9) 0.46526(3)
O2G O 0.73815(10) 0.28782(10) 0.46684(4)
O4B_2 O 0.42871(9) 0.51692(7) 0.57651(3)
O6B_2 O 0.28740(10) -0.47216(10) 0.55589(4)
O7G O 0.59887(11) 0.25308(10) 0.49087(4)
O8_2 O 0.52740(10) 0.60000(9) 0.61336(5)
O9D O 0.32474(10) -0.44088(9) 0.62203(4)
O9E O 0.67526(10) 0.44088(9) 0.62203(4)
O10D O 0.43032(11) 0.51771(10) 0.64718(4)
O10E O 0.56968(11) 0.48229(10) 0.64718(4)
Al1A Al 0.17011(4) -0.82989(4) 1.0000
O1D O 0.11022(9) -0.87009(8) 0.96526(3)
O2D O 0.21218(10) -0.76185(10) 0.96684(4)
O7D O 0.24692(10) -0.90113(11) 0.99087(4)
O1A O 0.12991(8) -0.88978(9) 1.03474(3)
O2A O 0.23815(10) -0.78782(10) 1.03316(4)
O7A O 0.09887(11) -0.75308(10) 1.00913(4)
Al2D_2 Al 0.14113(4) -0.90867(3) 0.92257(2)
O3D O 0.21571(9) -0.83609(8) 0.91989(3)
O4D O 0.07129(9) -0.98308(7) 0.92349(3)
O6D O 0.21260(10) -0.97216(10) 0.94411(4)
O5E O 0.07715(9) -0.83887(8) 0.89814(3)
O9B_2 O 0.17526(10) -0.94088(9) 0.87797(4)
Al3D_3 Al -0.0000 -1.0000 0.88963(2)
O8E O -0.02740(10) -0.90000(9) 0.88664(5)
O4E O -0.07129(9) -1.01692(7) 0.92349(3)
O8D O 0.02740(10) -1.10000(9) 0.88664(5)
O10_2 O -0.06968(11) -1.01771(10) 0.85282(4)
O10B_2 O 0.06968(11) -0.98229(10) 0.85282(4)
H1D H 0.0585 -0.8710 0.9698
C3D C 0.21690(13) -0.77288(13) 0.93408(5)
H2D H 0.0721 -1.0156 0.9431
C1D C 0.22015(13) -0.70853(12) 0.91026(5)
C5D C 0.21351(18) -0.63652(13) 0.92312(6)
C20D C 0.22354(16) -0.72085(13) 0.87386(5)
C2D C 0.36291(15) -0.46330(12) 0.64794(5)
C8D C 0.32485(16) -0.46499(13) 0.68270(5)
O10D_2 O 0.43032(11) -0.48229(10) 0.64718(4)
C4D C -0.01228(14) -0.15696(12) 0.88604(5)
C6D C 0.02086(15) -0.22321(13) 0.86915(6)
O5D O -0.07715(9) -0.16113(8) 0.89814(3)
O8D_2 O 0.02740(10) -0.10000(9) 0.88664(5)
H3D H 0.2144 -0.6275 0.9478
C25D C 0.2055(2) -0.57806(15) 0.89961(6)
C9D C 0.08539(18) -0.21331(14) 0.84912(7)
C12D C -0.00960(17) -0.29317(14) 0.87277(6)
C7D C 0.21596(18) -0.66093(14) 0.85080(6)
H4D H 0.2179 -0.6692 0.8261
C10D C 0.20568(18) -0.59023(14) 0.86336(6)
C11D C 0.25562(17) -0.43273(16) 0.68702(6)
C15D C 0.35903(17) -0.49862(17) 0.71175(6)
H5D H 0.1055 -0.1651 0.8461
C21D C 0.1197(2) -0.27365(16) 0.83368(8)
C16D C 0.19283(19) -0.52761(14) 0.83914(6)
H6D H 0.2320 -0.4101 0.6674
C23D C 0.22070(18) -0.43309(16) 0.71943(6)
H7D H -0.0548 -0.2995 0.8852
C26D C 0.02591(19) -0.35390(14) 0.85831(7)
C13D C 0.2271(2) -0.52640(16) 0.80620(6)
H8D H 0.2582 -0.5664 0.7993
C19D C 0.21615(19) -0.46638(15) 0.78302(6)
C14D C 0.3246(2) -0.49835(17) 0.74408(6)
H9D H 0.3487 -0.5200 0.7638
C17D C 0.25364(19) -0.46620(15) 0.74833(6)
H10D H 0.4060 -0.5216 0.7091
C22D C 0.1460(2) -0.46974(14) 0.84874(7)
C18D C 0.09236(18) -0.34461(14) 0.83893(7)
C24D C 0.1354(2) -0.40881(14) 0.82558(7)
C27D C 0.1714(2) -0.40859(15) 0.79347(7)
H11D H 0.2309 -0.7694 0.8649
H12D H 0.1623 -0.2664 0.8194
H13D H 0.1211 -0.4710 0.8708
H14D H 0.1736 -0.4104 0.7219
H15D H 0.1999 -0.5291 0.9084
H16D H 0.0057 -0.4020 0.8614
H17D H 0.1652 -0.3674 0.7782
Al2E_2 Al -0.14113(4) -0.09133(3) 0.92257(2)
C28D C 0.2553(2) -0.9536(2) 0.96901(8)
C29D C 0.3381(8) -0.9758(8) 0.9641(3)
H18D H 0.3433 -1.0136 0.9450
C30D C 0.3768(7) -0.9997(10) 0.9958(3)
C32D C 0.3932(8) -0.9053(9) 0.9567(3)
C31D C 0.4243(9) -0.9429(9) 1.0137(4)
C33D C 0.3191(8) -1.0392(9) 1.0240(3)
C37D C 0.4188(8) -1.0763(9) 0.9883(4)
H19D H 0.3880 -0.9112 1.0266
C41D C 0.4719(12) -0.9786(12) 1.0436(6)
C42D C 0.4503(9) -0.8955(11) 0.9852(4)
C40E C 0.4949(9) -0.9507(11) 1.0401(4)
H34E H 0.4522 -0.9533 1.0238
H20D H 0.3604 -0.8610 0.9592
C39D C 0.4346(8) -0.8921(8) 0.9220(4)
H21D H 0.3000 -1.0020 1.0409
H22D H 0.2766 -1.0613 1.0113
C34D C 0.3622(8) -1.0987(8) 1.0433(3)
C35D C 0.4435(9) -1.1036(10) 1.0250(4)
C36D C 0.3508(9) -1.1310(9) 1.0690(4)
O11D O 0.4723(7) -1.1737(7) 1.0248(3)
C40D C 0.5051(9) -1.0493(11) 1.0401(4)
H23D H 0.4827 -1.1864 1.0455
C46E C 0.5150(9) -1.1768(9) 0.9932(5)
H40E H 0.4742 -1.1708 1.0103
H24D H 0.3070 -1.1215 1.0821
H25D H 0.3852 -1.1670 1.0770
H26D H 0.5642 -0.8168 0.9525
C45D C 0.5151(9) -0.7944(11) 0.9570(5)
H27D H 0.5218 -0.7401 0.9584
H28D H 0.3850 -1.1125 0.9770
H29D H 0.4620 -1.0684 0.9727
O12E O 0.4844(5) -1.0562(6) 0.9695(3)
C38D C 0.3860(8) -0.8983(10) 0.8892(3)
H30D H 0.3583 -0.9450 0.8900
H31D H 0.4173 -0.8974 0.8681
H32D H 0.3513 -0.8567 0.8885
C43D C 0.5000(9) -0.9501(11) 0.9304(4)
C44D C 0.4608(11) -0.8134(11) 0.9240(5)
H33D H 0.5229 -1.0671 1.0633
H34D H 0.5478 -1.0467 1.0238
C31E C 0.5757(9) -1.0571(9) 1.0137(4)
C41E C 0.5281(12) -1.0214(12) 1.0436(6)
H35D H 0.5123 -0.9433 1.0490
H36D H 0.4401 -0.9807 1.0649
H33E H 0.4771 -0.9329 1.0633
O12D O 0.5156(5) -0.9438(6) 0.9695(3)
C46D C 0.4850(9) -0.8232(9) 0.9932(5)
C37E C 0.5812(8) -0.9237(9) 0.9883(4)
O13D O 0.5312(6) -0.9811(8) 0.9080(4)
C43E C 0.5000(9) -1.0499(11) 0.9304(4)
O13E O 0.4688(6) -1.0189(8) 0.9080(4)
H37D H 0.4919 -0.8061 0.9025
O14D O 0.4140(7) -0.7491(8) 0.9257(3)
H38D H 0.4141 -0.7275 0.9061
H39D H 0.4481 -0.7884 1.0031
H40D H 0.5258 -0.8292 1.0103
O11E O 0.5277(7) -0.8263(7) 1.0248(3)
O6E O 0.78740(10) -1.02784(10) 0.94411(4)
C28E C 0.7447(2) -1.0464(2) 0.96901(8)
Al2E_3 Al 0.85887(4) -1.09133(3) 0.92257(2)
O7E O 0.75308(10) -1.09887(11) 0.99087(4)
Al1C Al 0.82989(4) -1.17011(4) 1.0000
C29E C 0.6619(8) -1.0242(8) 0.9641(3)
H18E H 0.6567 -0.9864 0.9450
C30E C 0.6232(7) -1.0003(10) 0.9958(3)
C32E C 0.6068(8) -1.0947(9) 0.9567(3)
C33E C 0.6809(8) -0.9608(9) 1.0240(3)
H19E H 0.6120 -1.0888 1.0266
C42E C 0.5497(9) -1.1045(11) 0.9852(4)
H20E H 0.6396 -1.1390 0.9592
C39E C 0.5654(8) -1.1079(8) 0.9220(4)
H21E H 0.7000 -0.9980 1.0409
H22E H 0.7234 -0.9387 1.0113
C34E C 0.6378(8) -0.9013(8) 1.0433(3)
C35E C 0.5565(9) -0.8964(10) 1.0250(4)
C36E C 0.6492(9) -0.8690(9) 1.0690(4)
H23E H 0.5173 -0.8136 1.0455
H24E H 0.6930 -0.8785 1.0821
H25E H 0.6148 -0.8330 1.0770
H26E H 0.4358 -1.1832 0.9525
C45E C 0.4849(9) -1.2056(11) 0.9570(5)
H27E H 0.4782 -1.2599 0.9584
H28E H 0.6150 -0.8875 0.9770
H29E H 0.5380 -0.9316 0.9727
C38E C 0.6140(8) -1.1017(10) 0.8892(3)
H30E H 0.6417 -1.0550 0.8900
H31E H 0.5827 -1.1026 0.8681
H32E H 0.6487 -1.1433 0.8885
C44E C 0.5392(11) -1.1866(11) 0.9240(5)
H35E H 0.4877 -1.0567 1.0490
H36E H 0.5599 -1.0193 1.0649
H37E H 0.5081 -1.1939 0.9025
O14E O 0.5860(7) -1.2509(8) 0.9257(3)
H38E H 0.5859 -1.2725 0.9061
H39E H 0.5519 -1.2116 1.0031
O1E O -0.11022(9) -0.12991(8) 0.96526(3)
O3E O -0.21571(9) -0.16391(8) 0.91989(3)
O4E_2 O -0.07129(9) -0.01692(7) 0.92349(3)
O6E_2 O -0.21260(10) -0.02784(10) 0.94411(4)
O9_2 O -0.17526(10) -0.05912(9) 0.87797(4)
H1E H -0.0585 -0.1290 0.9698
Al1C_2 Al -0.17011(4) -0.17011(4) 1.0000
O2E O -0.21218(10) -0.23815(10) 0.96684(4)
C3E C -0.21690(13) -0.22712(13) 0.93408(5)
H2E H -0.0721 0.0156 0.9431
C1E C -0.22015(13) -0.29147(12) 0.91026(5)
C5E C -0.21351(18) -0.36348(13) 0.92312(6)
C20E C -0.22354(16) -0.27915(13) 0.87386(5)
C2E C -0.36291(15) -0.53670(12) 0.64794(5)
C8E C -0.32485(16) -0.53501(13) 0.68270(5)
O9E_2 O -0.32474(10) -0.55912(9) 0.62203(4)
O10E_2 O -0.43032(11) -0.51771(10) 0.64718(4)
C4E C 0.01228(14) -0.84304(12) 0.88604(5)
C6E C -0.02086(15) -0.77679(13) 0.86915(6)
H3E H -0.2144 -0.3725 0.9478
C25E C -0.2055(2) -0.42194(15) 0.89961(6)
C9E C -0.08539(18) -0.78669(14) 0.84912(7)
C12E C 0.00960(17) -0.70683(14) 0.87277(6)
C7E C -0.21596(18) -0.33907(14) 0.85080(6)
H4E H -0.2179 -0.3308 0.8261
C10E C -0.20568(18) -0.40977(14) 0.86336(6)
C11E C -0.25562(17) -0.56727(16) 0.68702(6)
C15E C -0.35903(17) -0.50138(17) 0.71175(6)
H5E H -0.1055 -0.8349 0.8461
C21E C -0.1197(2) -0.72635(16) 0.83368(8)
C16E C -0.19283(19) -0.47239(14) 0.83914(6)
H6E H -0.2320 -0.5899 0.6674
C23E C -0.22070(18) -0.56691(16) 0.71943(6)
H7E H 0.0548 -0.7005 0.8852
C26E C -0.02591(19) -0.64610(14) 0.85831(7)
C13E C -0.2271(2) -0.47360(16) 0.80620(6)
H8E H -0.2582 -0.4336 0.7993
C19E C -0.21615(19) -0.53362(15) 0.78302(6)
C14E C -0.3246(2) -0.50165(17) 0.74408(6)
H9E H -0.3487 -0.4800 0.7638
C17E C -0.25364(19) -0.53380(15) 0.74833(6)
H10E H -0.4060 -0.4784 0.7091
C22E C -0.1460(2) -0.53026(14) 0.84874(7)
C18E C -0.09236(18) -0.65539(14) 0.83893(7)
C24E C -0.1354(2) -0.59119(14) 0.82558(7)
C27E C -0.1714(2) -0.59141(15) 0.79347(7)
H11E H -0.2309 -0.2306 0.8649
H12E H -0.1623 -0.7336 0.8194
H13E H -0.1211 -0.5290 0.8708
H14E H -0.1736 -0.5896 0.7219
H15E H -0.1999 -0.4709 0.9084
H16E H -0.0057 -0.5980 0.8614
H17E H -0.1652 -0.6326 0.7782
Al2_2 Al -0.35887(4) -0.59133(3) 0.57743(2)
Al3_3 Al -0.5000 -0.5000 0.61037(2)
loop_
_geom_bond_atom_site_label_1
_geom_bond_atom_site_label_2
_geom_bond_site_symmetry_1
_geom_bond_site_symmetry_2
Al1 O1 1_555 1_555
Al2 O1 1_555 1_555
Al3 O4 1_555 1_555
O1 H1 1_555 1_555
O2 Al1 1_555 1_555
O3 Al2 1_555 1_555
O4 Al2 1_555 1_555
H2 O4 1_555 1_555
C1 C3 1_555 1_555
C2 C8 1_555 1_555
C3 O2 1_555 1_555
C4 C6 1_555 1_555
C5 C1 1_555 1_555
H3 C5 1_555 1_555
C6 C9 1_555 1_555
C7 H4 1_555 1_555
C8 C11 1_555 1_555
C9 H5 1_555 1_555
C10 C7 1_555 1_555
C11 H6 1_555 1_555
C12 C6 1_555 1_555
H7 C12 1_555 1_555
C13 H8 1_555 1_555
C14 H9 1_555 1_555
C15 C8 1_555 1_555
H10 C15 1_555 1_555
C16 C10 1_555 1_555
C17 C14 1_555 1_555
C18 C21 1_555 1_555
C19 C13 1_555 1_555
C20 C1 1_555 1_555
H11 C20 1_555 1_555
C21 C9 1_555 1_555
H12 C21 1_555 1_555
C22 C16 1_555 1_555
H13 C22 1_555 1_555
C23 C11 1_555 1_555
H14 C23 1_555 1_555
C24 C18 1_555 1_555
C25 C5 1_555 1_555
H15 C25 1_555 1_555
C26 C12 1_555 1_555
H16 C26 1_555 1_555
C27 C19 1_555 1_555
H17 C27 1_555 1_555
O5 C4 1_555 1_555
O6 Al2 1_555 1_555
O7 Al1 1_555 1_555
O8 C4 1_555 1_555
O9 C2 1_555 1_555
O10 C2 1_555 1_555
C28 O6 1_555 1_555
C29 C28 1_555 1_555
H18 C29 1_555 1_555
C30 C29 1_555 1_555
C31 C30 1_555 1_555
H19 C31 1_555 1_555
C32 C29 1_555 1_555
H20 C32 1_555 1_555
C33 C30 1_555 1_555
H21 C33 1_555 1_555
H22 C33 1_555 1_555
C34 C33 1_555 1_555
C35 C34 1_555 1_555
O11 C35 1_555 1_555
H23 O11 1_555 1_555
C36 C34 1_555 1_555
H24 C36 1_555 1_555
H25 C36 1_555 1_555
H26 C45 1_555 1_555
H27 C45 1_555 1_555
C37 C30 1_555 1_555
H28 C37 1_555 1_555
H29 C37 1_555 1_555
C38 H30 1_555 1_555
H31 C38 1_555 1_555
H32 C38 1_555 1_555
C39 C32 1_555 1_555
C40 C35 1_555 1_555
H33 C40 1_555 1_555
H34 C40 1_555 1_555
C41 C31 1_555 1_555
H35 C41 1_555 1_555
H36 C41 1_555 1_555
C42 C31 1_555 1_555
O12 C42 1_555 1_555
C43 C39 1_555 1_555
O13 C43 1_555 1_555
C44 C39 1_555 1_555
H37 C44 1_555 1_555
O14 C44 1_555 1_555
H38 O14 1_555 1_555
C45 C44 1_555 1_555
H39 C46 1_555 1_555
C46 C42 1_555 1_555
H40 C46 1_555 1_555
O6B C28B 1_555 1_555
O7B C28B 1_555 1_555
C28B C29B 1_555 1_555
C29B H18B 1_555 1_555
C30B C29B 1_555 1_555
C31B C40 1_555 1_555
H19B C31B 1_555 1_555
C32B C29B 1_555 1_555
H20B C32B 1_555 1_555
C33B C30B 1_555 1_555
H21B C33B 1_555 1_555
H22B C33B 1_555 1_555
C34B C33B 1_555 1_555
C35B C34B 1_555 1_555
O11B C46 1_555 1_555
H23B O11B 1_555 1_555
C36B C34B 1_555 1_555
H24B C36B 1_555 1_555
H25B C36B 1_555 1_555
H26B C45B 1_555 1_555
H27B C45B 1_555 1_555
C37B O12 1_555 1_555
H28B C37B 1_555 1_555
H29B C37B 1_555 1_555
C38B H30B 1_555 1_555
H31B C38B 1_555 1_555
H32B C38B 1_555 1_555
C39B C32B 1_555 1_555
C40B C31 1_555 1_555
H33B C41 1_555 1_555
H34B C31 1_555 1_555
C41B C40 1_555 1_555
H35B C41B 1_555 1_555
H36B C41B 1_555 1_555
C42B C31B 1_555 1_555
O12B C37 1_555 1_555
C43B C43 1_555 1_555
O13B C43 1_555 1_555
C44B C39B 1_555 1_555
H37B C44B 1_555 1_555
O14B C44B 1_555 1_555
H38B O14B 1_555 1_555
C45B C44B 1_555 1_555
H39B C46B 1_555 1_555
C46B O11 1_555 1_555
H40B O11 1_555 1_555
Al2B O5 1_555 1_555
O1B Al2B 1_555 1_555
H1B O1B 1_555 1_555
O2B C3B 1_555 1_555
O3B Al2B 1_555 1_555
O4B Al2B 1_555 1_555
H2B O4B 1_555 1_555
C1B C3B 1_555 1_555
C2B C8B 1_555 1_555
C3B O3B 1_555 1_555
C4B C6B 1_555 1_555
C5B C1B 1_555 1_555
H3B C5B 1_555 1_555
C6B C9B 1_555 1_555
C7B H4B 1_555 1_555
C8B C11B 1_555 1_555
C9B H5B 1_555 1_555
C10B C7B 1_555 1_555
C11B H6B 1_555 1_555
C12B C6B 1_555 1_555
H7B C12B 1_555 1_555
C13B H8B 1_555 1_555
C14B H9B 1_555 1_555
C15B C8B 1_555 1_555
H10B C15B 1_555 1_555
C16B C10B 1_555 1_555
C17B C14B 1_555 1_555
C18B C21B 1_555 1_555
C19B C13B 1_555 1_555
C20B C1B 1_555 1_555
H11B C20B 1_555 1_555
C21B C9B 1_555 1_555
H12B C21B 1_555 1_555
C22B C16B 1_555 1_555
H13B C22B 1_555 1_555
C23B C11B 1_555 1_555
H14B C23B 1_555 1_555
C24B C18B 1_555 1_555
C25B C5B 1_555 1_555
H15B C25B 1_555 1_555
C26B C12B 1_555 1_555
H16B C26B 1_555 1_555
C27B C19B 1_555 1_555
H17B C27B 1_555 1_555
O5B Al2 1_555 1_555
O8B Al3 1_555 1_555
O9B C2B 1_555 1_555
O10B C2B 1_555 1_555
Al1B O1B 1_555 1_555
Al1B_2 O7B 1_555 1_555
Al2B_2 O6B 1_555 1_555
Al2D O9B 1_555 1_555
Al2E O9 1_555 1_555
Al3_2 O8 1_555 1_555
Al3D O10B 1_555 1_555
Al3D_2 O10 1_555 1_555
O1G Al1 1_555 1_555
O2G Al1 1_555 1_555
O4B_2 Al3 1_555 1_555
O6B_2 Al2B 1_555 1_555
O7G Al1 1_555 1_555
O8_2 Al3 1_555 1_555
O9D Al2B 1_555 1_555
O9E Al2 1_555 1_555
O10D Al3 1_555 1_555
O10E Al3 1_555 1_555
Al1A O1D 1_555 1_555
O1D Al2D_2 1_555 1_555
O2D Al1A 1_555 1_555
O7D Al1A 1_555 1_555
O1A Al1A 1_555 1_555
O2A Al1A 1_555 1_555
O7A Al1A 1_555 1_555
Al2D_2 O3D 1_555 1_555
O3D C3D 1_555 1_555
O4D Al2D_2 1_555 1_555
O6D Al2D_2 1_555 1_555
O5E Al2D_2 1_555 1_555
O9B_2 Al2D_2 1_555 1_555
Al3D_3 O4D 1_555 1_555
O8E Al3D_3 1_555 1_555
O4E Al3D_3 1_555 1_555
O8D Al3D_3 1_555 1_555
O10_2 Al3D_3 1_555 1_555
O10B_2 Al3D_3 1_555 1_555
H1D O1D 1_555 1_555
C3D O2D 1_555 1_555
H2D O4D 1_555 1_555
C1D C3D 1_555 1_555
C5D C1D 1_555 1_555
C20D C1D 1_555 1_555
C2D O9D 1_555 1_555
C8D C2D 1_555 1_555
O10D_2 Al3_2 1_555 1_555
C4D C6D 1_555 1_555
C6D C9D 1_555 1_555
O5D C4D 1_555 1_555
O8D_2 Al3D 1_555 1_555
H3D C5D 1_555 1_555
C25D C5D 1_555 1_555
C9D H5D 1_555 1_555
C12D C6D 1_555 1_555
C7D C20D 1_555 1_555
H4D C7D 1_555 1_555
C10D C25D 1_555 1_555
C11D C8D 1_555 1_555
C15D C8D 1_555 1_555
C21D C9D 1_555 1_555
C16D C10D 1_555 1_555
H6D C11D 1_555 1_555
C23D C11D 1_555 1_555
H7D C12D 1_555 1_555
C26D C12D 1_555 1_555
C13D C16D 1_555 1_555
H8D C13D 1_555 1_555
C19D C13D 1_555 1_555
C14D C15D 1_555 1_555
H9D C14D 1_555 1_555
C17D C23D 1_555 1_555
H10D C15D 1_555 1_555
C22D C16D 1_555 1_555
C18D C21D 1_555 1_555
C24D C22D 1_555 1_555
C27D C19D 1_555 1_555
H11D C20D 1_555 1_555
H12D C21D 1_555 1_555
H13D C22D 1_555 1_555
H14D C23D 1_555 1_555
H15D C25D 1_555 1_555
H16D C26D 1_555 1_555
H17D C27D 1_555 1_555
Al2E_2 O5D 1_555 1_555
C28D O7D 1_555 1_555
C29D C28D 1_555 1_555
H18D C29D 1_555 1_555
C30D C29D 1_555 1_555
C32D C29D 1_555 1_555
C31D C30D 1_555 1_555
C33D C30D 1_555 1_555
C37D C30D 1_555 1_555
H19D C31D 1_555 1_555
C41D C31D 1_555 1_555
C42D C32D 1_555 1_555
C40E C31D 1_555 1_555
H34E C31D 1_555 1_555
H20D C32D 1_555 1_555
C39D C32D 1_555 1_555
H21D C33D 1_555 1_555
H22D C33D 1_555 1_555
C34D C33D 1_555 1_555
C35D C37D 1_555 1_555
C36D C34D 1_555 1_555
O11D C35D 1_555 1_555
C40D C41D 1_555 1_555
H23D O11D 1_555 1_555
C46E O11D 1_555 1_555
H40E O11D 1_555 1_555
H24D C36D 1_555 1_555
H25D C36D 1_555 1_555
H26D C45D 1_555 1_555
C45D H27D 1_555 1_555
H28D C37D 1_555 1_555
H29D C37D 1_555 1_555
O12E C37D 1_555 1_555
C38D C39D 1_555 1_555
H30D C38D 1_555 1_555
H31D C38D 1_555 1_555
H32D C38D 1_555 1_555
C43D C39D 1_555 1_555
C44D C39D 1_555 1_555
H33D C40D 1_555 1_555
H34D C40D 1_555 1_555
C31E C40D 1_555 1_555
C41E C41D 1_555 1_555
H35D C41D 1_555 1_555
H36D C41D 1_555 1_555
H33E C41D 1_555 1_555
O12D C42D 1_555 1_555
C46D C42D 1_555 1_555
C37E O12D 1_555 1_555
O13D C43D 1_555 1_555
C43E O12E 1_555 1_555
O13E C43D 1_555 1_555
H37D C44D 1_555 1_555
O14D C44D 1_555 1_555
H38D O14D 1_555 1_555
H39D C46D 1_555 1_555
H40D C46D 1_555 1_555
O11E C46D 1_555 1_555
O6E C28E 1_555 1_555
C28E O7E 1_555 1_555
Al2E_3 O6E 1_555 1_555
O7E Al1C 1_555 1_555
C29E C28E 1_555 1_555
H18E C29E 1_555 1_555
C30E C31E 1_555 1_555
C32E C29E 1_555 1_555
C33E C30E 1_555 1_555
H19E C31E 1_555 1_555
C42E C46E 1_555 1_555
H20E C32E 1_555 1_555
C39E C43E 1_555 1_555
H21E C33E 1_555 1_555
H22E C33E 1_555 1_555
C34E C33E 1_555 1_555
C35E C40E 1_555 1_555
C36E C34E 1_555 1_555
H23E O11E 1_555 1_555
H24E C36E 1_555 1_555
H25E C36E 1_555 1_555
H26E C45E 1_555 1_555
C45E C46E 1_555 1_555
H27E C45E 1_555 1_555
H28E C37E 1_555 1_555
H29E C37E 1_555 1_555
C38E C39E 1_555 1_555
H30E C38E 1_555 1_555
H31E C38E 1_555 1_555
H32E C38E 1_555 1_555
C44E C39E 1_555 1_555
H35E C41E 1_555 1_555
H36E C41E 1_555 1_555
H37E C44E 1_555 1_555
O14E C44E 1_555 1_555
H38E O14E 1_555 1_555
H39E C46E 1_555 1_555
O1E Al2E_2 1_555 1_555
O3E Al2E_2 1_555 1_555
O4E_2 Al3D 1_555 1_555
O6E_2 Al2E_2 1_555 1_555
O9_2 Al2E_2 1_555 1_555
H1E O1E 1_555 1_555
Al1C_2 O1E 1_555 1_555
O2E Al1C_2 1_555 1_555
C3E O3E 1_555 1_555
H2E O4E_2 1_555 1_555
C1E C3E 1_555 1_555
C5E C1E 1_555 1_555
C20E C1E 1_555 1_555
C2E C8E 1_555 1_555
C8E C11E 1_555 1_555
O9E_2 C2E 1_555 1_555
O10E_2 C2E 1_555 1_555
C4E O5E 1_555 1_555
C6E C4E 1_555 1_555
H3E C5E 1_555 1_555
C25E C5E 1_555 1_555
C9E C6E 1_555 1_555
C12E C6E 1_555 1_555
C7E C20E 1_555 1_555
H4E C7E 1_555 1_555
C10E C25E 1_555 1_555
C11E H6E 1_555 1_555
C15E C8E 1_555 1_555
H5E C9E 1_555 1_555
C21E C9E 1_555 1_555
C16E C10E 1_555 1_555
C23E C11E 1_555 1_555
H7E C12E 1_555 1_555
C26E C12E 1_555 1_555
C13E C16E 1_555 1_555
H8E C13E 1_555 1_555
C19E C13E 1_555 1_555
C14E C15E 1_555 1_555
H9E C14E 1_555 1_555
C17E C23E 1_555 1_555
H10E C15E 1_555 1_555
C22E C16E 1_555 1_555
C18E C21E 1_555 1_555
C24E C22E 1_555 1_555
C27E C19E 1_555 1_555
H11E C20E 1_555 1_555
H12E C21E 1_555 1_555
H13E C22E 1_555 1_555
H14E C23E 1_555 1_555
H15E C25E 1_555 1_555
H16E C26E 1_555 1_555
H17E C27E 1_555 1_555
Al2_2 O9E_2 1_555 1_555
Al3_3 O10E_2 1_555 1_555
O3 C3 1_555 1_555
C7 C20 1_555 1_555
C10 C25 1_555 1_555
C13 C16 1_555 1_555
C14 C15 1_555 1_555
C17 C19 1_555 1_555
C17 C23 1_555 1_555
C18 C26 1_555 1_555
C22 C24 1_555 1_555
C24 C27 1_555 1_555
O7 C28 1_555 1_555
C32 C42 1_555 1_555
C35 C37 1_555 1_555
C38 C39 1_555 1_555
C40 C41 1_555 1_555
C40 C40B 1_555 1_555
H33 C41B 1_555 1_555
H34 C31B 1_555 1_555
H34 C41B 1_555 1_555
C41 C40B 1_555 1_555
C41 H34B 1_555 1_555
C41 C41B 1_555 1_555
O12 C43 1_555 1_555
O13 C43B 1_555 1_555
O13 O13B 1_555 1_555
C45 C46 1_555 1_555
H40 O11B 1_555 1_555
C30B C31B 1_555 1_555
C30B C37B 1_555 1_555
C31B C41B 1_555 1_555
C32B C42B 1_555 1_555
C35B O11B 1_555 1_555
C35B C37B 1_555 1_555
C35B C40B 1_555 1_555
C38B C39B 1_555 1_555
C39B C43B 1_555 1_555
C40B H33B 1_555 1_555
C40B H34B 1_555 1_555
C40B C41B 1_555 1_555
C42B O12B 1_555 1_555
C42B C46B 1_555 1_555
O12B C43B 1_555 1_555
C43B O13B 1_555 1_555
C45B C46B 1_555 1_555
C46B H40B 1_555 1_555
O2B Al1B 1_555 1_555
O4B Al3_2 1_555 1_555
C4B O5B 1_555 1_555
C4B O8B 1_555 1_555
C7B C20B 1_555 1_555
C10B C25B 1_555 1_555
C13B C16B 1_555 1_555
C14B C15B 1_555 1_555
C17B C19B 1_555 1_555
C17B C23B 1_555 1_555
C18B C26B 1_555 1_555
C22B C24B 1_555 1_555
C24B C27B 1_555 1_555
O6D C28D 1_555 1_555
O8E C4E 1_555 1_555
C2D O10D_2 1_555 1_555
C4D O8D_2 1_555 1_555
C7D C10D 1_555 1_555
C26D C18D 1_555 1_555
C19D C17D 1_555 1_555
C14D C17D 1_555 1_555
C18D C24D 1_555 1_555
C24D C27D 1_555 1_555
Al2E_2 O4E_2 1_555 1_555
C31D C42D 1_555 1_555
C41D C40E 1_555 1_555
C41D H34E 1_555 1_555
C40E H34E 1_555 1_555
C40E C40D 1_555 1_555
C40E C41E 1_555 1_555
C40E H33E 1_555 1_555
C34D C35D 1_555 1_555
C35D C40D 1_555 1_555
C40D C41E 1_555 1_555
C46E H40E 1_555 1_555
C45D C44D 1_555 1_555
C45D C46D 1_555 1_555
O12E C42E 1_555 1_555
C43D O12D 1_555 1_555
C43D C43E 1_555 1_555
H33D C41E 1_555 1_555
H34D C31E 1_555 1_555
H34D C41E 1_555 1_555
C31E C41E 1_555 1_555
C31E C42E 1_555 1_555
C37E C30E 1_555 1_555
C37E C35E 1_555 1_555
O13D C43E 1_555 1_555
O13D O13E 1_555 1_555
C43E O13E 1_555 1_555
H40D O11E 1_555 1_555
O11E C35E 1_555 1_555
C29E C30E 1_555 1_555
C32E C42E 1_555 1_555
C32E C39E 1_555 1_555
C34E C35E 1_555 1_555
C45E C44E 1_555 1_555
O2E C3E 1_555 1_555
C7E C10E 1_555 1_555
C26E C18E 1_555 1_555
C19E C17E 1_555 1_555
C14E C17E 1_555 1_555
C18E C24E 1_555 1_555
C24E C27E 1_555 1_555

#END
