
#######################################################################
#
#                 Cambridge Crystallographic Data Centre
#                                CCDC 
#
#######################################################################
#
# If this CIF has been generated from an entry in the Cambridge 
# Structural Database, then it will include bibliographic, chemical, 
# crystal, experimental, refinement or atomic coordinate data resulting 
# from the CCDC's data processing and validation procedures.
#
#######################################################################

data_OTEDEY
_chemical_formula_moiety         '(C140 H124 Al8 N4 O44)n'
_symmetry_cell_setting           tetragonal
_symmetry_space_group_name_H-M   'P 42 21 2'
_symmetry_Int_Tables_number      94
_space_group_name_Hall           'P 4n 2n'
loop_
_symmetry_equiv_pos_site_id
_symmetry_equiv_pos_as_xyz
1 x,y,z
2 1/2-y,1/2+x,1/2+z
3 -x,-y,z
4 1/2+y,1/2-x,1/2+z
5 1/2+x,1/2-y,1/2-z
6 1/2-x,1/2+y,1/2-z
7 y,x,-z
8 -y,-x,-z
_cell_length_a                   19.5071(9)
_cell_length_b                   19.5071(9)
_cell_length_c                   34.2595(18)
_cell_angle_alpha                90
_cell_angle_beta                 90
_cell_angle_gamma                90
_cell_volume                     13036.7
loop_
_atom_site_label
_atom_site_type_symbol
_atom_site_fract_x
_atom_site_fract_y
_atom_site_fract_z
Al1 Al 0.5000 0.5000 0.39337(6)
Al2 Al 0.65714(7) 0.65714(7) 0.5000
Al3 Al 0.60648(8) 0.61824(7) 0.42421(4)
O1 O 0.55568(19) 0.53250(16) 0.35197(9)
O2 O 0.68326(17) 0.60075(17) 0.45700(10)
O3 O 0.56039(15) 0.53697(14) 0.43019(8)
H1 H 0.5669 0.5146 0.4511
O4 O 0.64661(19) 0.58823(18) 0.37754(11)
C1 C 0.6433(3) 0.5624(3) 0.30922(17)
C2 C 0.8104(3) 0.3145(3) 0.08137(15)
C3 C 0.9457(3) 0.7315(3) 0.10872(17)
H2 H 0.9900 0.7236 0.0980
C4 C 0.7802(3) 0.4397(3) 0.11827(16)
C5 C 0.6122(3) 0.5606(3) 0.34868(17)
C6 C 0.7945(3) 0.3837(3) 0.13967(17)
H3 H 0.7938 0.3867 0.1673
C7 C 0.8011(3) 0.5649(3) 0.12373(18)
H4 H 0.8256 0.5631 0.0998
C8 C 0.9698(3) 0.8571(3) 0.10822(14)
C9 C 0.7959(3) 0.6295(3) 0.14426(19)
C10 C 0.8557(3) 0.8096(3) 0.12948(15)
H5 H 0.8399 0.8551 0.1335
C11 C 0.9044(3) 0.6778(3) 0.11729(17)
H6 H 0.9206 0.6325 0.1131
C12 C 0.8375(4) 0.6877(3) 0.13229(17)
C13 C 0.8109(3) 0.3196(3) 0.12144(17)
H7 H 0.8220 0.2808 0.1369
C14 C 0.9229(3) 0.7995(3) 0.11578(15)
C15 C 0.8123(3) 0.7559(3) 0.13719(18)
H8 H 0.7666 0.7639 0.1456
C16 C 0.6156(3) 0.5262(3) 0.28012(16)
H9 H 0.5766 0.4983 0.2848
C17 C 0.7620(3) 0.6286(3) 0.18000(19)
H10 H 0.7592 0.6699 0.1946
C18 C 0.7961(3) 0.3710(3) 0.05927(17)
H11 H 0.7981 0.3676 0.0316
C19 C 0.7029(3) 0.6038(3) 0.30291(18)
H12 H 0.7237 0.6285 0.3236
C20 C 0.7784(3) 0.4342(3) 0.0766(2)
H13 H 0.7656 0.4723 0.0609
C21 C 0.7712(3) 0.5058(3) 0.13804(17)
C22 C 0.7006(3) 0.5683(3) 0.23542(18)
C23 C 0.8301(3) 0.2480(3) 0.06367(16)
C24 C 0.7365(3) 0.5087(3) 0.17401(18)
H14 H 0.7159 0.4683 0.1841
C25 C 0.7288(4) 0.6062(3) 0.2654(2)
H15 H 0.7671 0.6348 0.2601
C26 C 0.6443(4) 0.5295(3) 0.24243(19)
H16 H 0.6240 0.5042 0.2217
C27 C 0.7318(3) 0.5696(3) 0.19524(18)
O5 O 1.03166(19) 0.84233(17) 0.10197(9)
O6 O 0.82329(19) 0.24086(17) 0.02615(11)
O7 O 0.84966(18) 0.20306(18) 0.08620(10)
O8 O 0.94634(16) 0.91792(16) 0.10919(9)
C28 C 0.7779(6) 0.5191(6) 0.4543(3)
H17 H 0.8100 0.5571 0.4600
H18 H 0.7954 0.4769 0.4669
C29 C 0.7079(5) 0.5359(5) 0.4693(3)
H19 H 0.6767 0.5016 0.4568
N1 N 0.7714(5) 0.5089(5) 0.4114(2)
H20 H 0.7314 0.4906 0.4057
O9 O 0.8155(4) 0.4780(4) 0.3564(2)
O10 O 0.8694(4) 0.4383(4) 0.4128(2)
C30 C 0.8264(7) 0.4716(8) 0.3936(4)
C31 C 0.8599(6) 0.4359(6) 0.3282(4)
C32 C 0.6977(5) 0.5265(5) 0.5136(3)
H21 H 0.6805 0.4796 0.5189
H22 H 0.7422 0.5320 0.5271
O11 O 0.65130(17) 0.57435(17) 0.52764(9)
C33 C 0.8206(6) 0.4388(7) 0.2911(3)
H23 H 0.7754 0.4180 0.2949
H24 H 0.8455 0.4137 0.2707
H25 H 0.8150 0.4868 0.2831
C34 C 0.8735(7) 0.3618(7) 0.3411(4)
H26 H 0.9164 0.3600 0.3560
H27 H 0.8773 0.3323 0.3181
H28 H 0.8356 0.3459 0.3576
C35 C 0.9288(6) 0.4687(7) 0.3291(4)
H29 H 0.9285 0.5096 0.3125
H30 H 0.9632 0.4362 0.3194
H31 H 0.9401 0.4818 0.3559
Al3B Al 0.39352(8) 0.38176(7) 0.42421(4)
O1B O 0.44432(19) 0.46750(16) 0.35197(9)
O2B O 0.31674(17) 0.39925(17) 0.45700(10)
O3B O 0.43961(15) 0.46303(14) 0.43019(8)
H1B H 0.4331 0.4854 0.4511
O4B O 0.35339(19) 0.41177(18) 0.37754(11)
C1B C 0.3567(3) 0.4376(3) 0.30922(17)
C2B C 0.1896(3) 0.6855(3) 0.08137(15)
C3B C 0.0543(3) 0.2685(3) 0.10872(17)
H2B H 0.0100 0.2764 0.0980
C4B C 0.2198(3) 0.5603(3) 0.11827(16)
C5B C 0.3878(3) 0.4394(3) 0.34868(17)
C6B C 0.2055(3) 0.6163(3) 0.13967(17)
H3B H 0.2062 0.6133 0.1673
C7B C 0.1989(3) 0.4351(3) 0.12373(18)
H4B H 0.1744 0.4369 0.0998
C8B C 0.0302(3) 0.1429(3) 0.10822(14)
C9B C 0.2041(3) 0.3705(3) 0.14426(19)
C10B C 0.1443(3) 0.1904(3) 0.12948(15)
H5B H 0.1601 0.1449 0.1335
C11B C 0.0956(3) 0.3222(3) 0.11729(17)
H6B H 0.0794 0.3675 0.1131
C12B C 0.1625(4) 0.3123(3) 0.13229(17)
C13B C 0.1891(3) 0.6804(3) 0.12144(17)
H7B H 0.1780 0.7192 0.1369
C14B C 0.0771(3) 0.2005(3) 0.11578(15)
C15B C 0.1877(3) 0.2441(3) 0.13719(18)
H8B H 0.2334 0.2361 0.1456
C16B C 0.3844(3) 0.4738(3) 0.28012(16)
H9B H 0.4234 0.5017 0.2848
C17B C 0.2380(3) 0.3714(3) 0.18000(19)
H10B H 0.2408 0.3301 0.1946
C18B C 0.2039(3) 0.6290(3) 0.05927(17)
H11B H 0.2019 0.6324 0.0316
C19B C 0.2971(3) 0.3962(3) 0.30291(18)
H12B H 0.2763 0.3715 0.3236
C20B C 0.2216(3) 0.5658(3) 0.0766(2)
H13B H 0.2344 0.5277 0.0609
C21B C 0.2288(3) 0.4942(3) 0.13804(17)
C22B C 0.2994(3) 0.4317(3) 0.23542(18)
C23B C 0.1699(3) 0.7520(3) 0.06367(16)
C24B C 0.2635(3) 0.4913(3) 0.17401(18)
H14B H 0.2841 0.5317 0.1841
C25B C 0.2712(4) 0.3938(3) 0.2654(2)
H15B H 0.2329 0.3652 0.2601
C26B C 0.3557(4) 0.4705(3) 0.24243(19)
H16B H 0.3760 0.4958 0.2217
C27B C 0.2682(3) 0.4304(3) 0.19524(18)
O5B O -0.03166(19) 0.15767(17) 0.10197(9)
O6B O 0.17671(19) 0.75914(17) 0.02615(11)
O7B O 0.15034(18) 0.79694(18) 0.08620(10)
O8B O 0.05366(16) 0.08208(16) 0.10919(9)
C28B C 0.2221(6) 0.4809(6) 0.4543(3)
H17B H 0.1900 0.4429 0.4600
H18B H 0.2046 0.5231 0.4669
C29B C 0.2921(5) 0.4641(5) 0.4693(3)
H19B H 0.3233 0.4984 0.4568
N1B N 0.2286(5) 0.4911(5) 0.4114(2)
H20B H 0.2686 0.5094 0.4057
O9B O 0.1845(4) 0.5220(4) 0.3564(2)
O10B O 0.1306(4) 0.5617(4) 0.4128(2)
C30B C 0.1736(7) 0.5284(8) 0.3936(4)
C31B C 0.1401(6) 0.5641(6) 0.3282(4)
C32B C 0.3023(5) 0.4735(5) 0.5136(3)
H21B H 0.3195 0.5204 0.5189
H22B H 0.2578 0.4680 0.5271
O11B O 0.34870(17) 0.42565(17) 0.52764(9)
C33B C 0.1794(6) 0.5612(7) 0.2911(3)
H23B H 0.2246 0.5820 0.2949
H24B H 0.1545 0.5863 0.2707
H25B H 0.1850 0.5132 0.2831
C34B C 0.1265(7) 0.6382(7) 0.3411(4)
H26B H 0.0836 0.6400 0.3560
H27B H 0.1227 0.6677 0.3181
H28B H 0.1644 0.6541 0.3576
C35B C 0.0712(6) 0.5313(7) 0.3291(4)
H29B H 0.0715 0.4904 0.3125
H30B H 0.0368 0.5638 0.3194
H31B H 0.0599 0.5182 0.3559
Al1D Al 0.0000 0.0000 0.10663(6)
Al1D_2 Al 1.0000 1.0000 0.10663(6)
Al2A Al 0.84286(7) 0.15714(7) 0.0000
Al2B Al 0.34286(7) 0.34286(7) 0.5000
Al2C Al 0.15714(7) 0.84286(7) 0.0000
Al3D Al 0.10648(8) 0.88176(7) 0.07579(4)
Al3D_2 Al 1.10648(8) 0.88176(7) 0.07579(4)
Al3E Al -0.10648(8) 0.11824(7) 0.07579(4)
Al3E_2 Al 0.89352(8) 0.11824(7) 0.07579(4)
Al3F Al 0.61824(7) 0.60648(8) 0.57579(4)
Al3G Al 0.38176(7) 0.39352(8) 0.57579(4)
O2F O 0.60075(17) 0.68326(17) 0.54300(10)
O5D O 0.53166(19) 0.65767(17) 0.39803(9)
O5E O 0.46834(19) 0.34233(17) 0.39803(9)
O6C O 0.74086(17) 0.67671(19) 0.52615(11)
O6E O 0.67671(19) 0.74086(17) 0.47385(11)
O7D O 0.34966(18) 0.29694(18) 0.41380(10)
O7E O 0.65034(18) 0.70306(18) 0.41380(10)
O8D O 0.44634(16) 0.58208(16) 0.39081(9)
O8E O 0.55366(16) 0.41792(16) 0.39081(9)
O11F O 0.57435(17) 0.65130(17) 0.47236(9)
O11G O 0.42565(17) 0.34870(17) 0.47236(9)
Al1F Al 0.5000 0.5000 0.60663(6)
O1G O 0.46750(16) 0.44432(19) 0.64803(9)
O3G O 0.46303(14) 0.43961(15) 0.56981(8)
O1F O 0.53250(16) 0.55568(19) 0.64803(9)
O3F O 0.53697(14) 0.56039(15) 0.56981(8)
O8C O 0.41792(16) 0.55366(16) 0.60919(9)
O8A O 0.58208(16) 0.44634(16) 0.60919(9)
O2G O 0.39925(17) 0.31674(17) 0.54300(10)
O6D O 0.32329(19) 0.25914(17) 0.47385(11)
O6A O 0.25914(17) 0.32329(19) 0.52615(11)
O4G O 0.41177(18) 0.35339(19) 0.62246(11)
O5C O 0.34233(17) 0.46834(19) 0.60197(9)
O7A O 0.29694(18) 0.34966(18) 0.58620(10)
C5G C 0.4394(3) 0.3878(3) 0.65132(17)
C29G C 0.4641(5) 0.2921(5) 0.5307(3)
H1G H 0.4854 0.4331 0.5489
C1G C 0.4376(3) 0.3567(3) 0.69078(17)
C16G C 0.4738(3) 0.3844(3) 0.71988(16)
C19G C 0.3962(3) 0.2971(3) 0.69709(18)
C2G C 0.6855(3) 0.1896(3) 0.91863(15)
C13G C 0.6804(3) 0.1891(3) 0.87856(17)
C18G C 0.6290(3) 0.2039(3) 0.94073(17)
C23G C 0.7520(3) 0.1699(3) 0.93633(16)
C3G C 0.2685(3) 0.0543(3) 0.89128(17)
H2G H 0.2764 0.0100 0.9020
C11G C 0.3222(3) 0.0956(3) 0.88271(17)
C14G C 0.2005(3) 0.0771(3) 0.88422(15)
C4G C 0.5603(3) 0.2198(3) 0.88173(16)
C6G C 0.6163(3) 0.2055(3) 0.86033(17)
C20G C 0.5658(3) 0.2216(3) 0.9234(2)
C21G C 0.4942(3) 0.2288(3) 0.86196(17)
H3G H 0.6133 0.2062 0.8327
C7G C 0.4351(3) 0.1989(3) 0.87627(18)
H4G H 0.4369 0.1744 0.9002
C9G C 0.3705(3) 0.2041(3) 0.85574(19)
C8G C 0.1429(3) 0.0302(3) 0.89178(14)
O5G O 0.15767(17) -0.03166(19) 0.89803(9)
O8G O 0.08208(16) 0.05366(16) 0.89081(9)
C12G C 0.3123(3) 0.1625(4) 0.86771(17)
C17G C 0.3714(3) 0.2380(3) 0.82000(19)
C10G C 0.1904(3) 0.1443(3) 0.87052(15)
H5G H 0.1449 0.1601 0.8665
C15G C 0.2441(3) 0.1877(3) 0.86281(18)
H6G H 0.3675 0.0794 0.8869
H7G H 0.7192 0.1780 0.8631
H8G H 0.2361 0.2334 0.8544
H9G H 0.5017 0.4234 0.7152
C26G C 0.4705(3) 0.3557(4) 0.75757(19)
H10G H 0.3301 0.2408 0.8054
C27G C 0.4304(3) 0.2682(3) 0.80476(18)
H11G H 0.6324 0.2019 0.9684
H12G H 0.3715 0.2763 0.6764
C25G C 0.3938(3) 0.2712(4) 0.7346(2)
H13G H 0.5277 0.2344 0.9391
C24G C 0.4913(3) 0.2635(3) 0.82599(18)
C22G C 0.4317(3) 0.2994(3) 0.76458(18)
O6G O 0.75914(17) 0.17671(19) 0.97385(11)
O7G O 0.79694(18) 0.15034(18) 0.91380(10)
H14G H 0.5317 0.2841 0.8159
H15G H 0.3652 0.2329 0.7399
H16G H 0.4958 0.3760 0.7783
Al3C Al 0.11824(7) -0.10648(8) 0.92421(4)
Al2A_2 Al 0.84286(7) 0.15714(7) 1.0000
Al3A Al 0.88176(7) 0.10648(8) 0.92421(4)
Al1A Al -0.0000 -0.0000 0.89337(6)
C28G C 0.4809(6) 0.2221(6) 0.5457(3)
H17G H 0.4429 0.1900 0.5400
H18G H 0.5231 0.2046 0.5331
N1G N 0.4911(5) 0.2286(5) 0.5886(2)
H19G H 0.4984 0.3233 0.5432
C32G C 0.4735(5) 0.3023(5) 0.4864(3)
H20G H 0.5094 0.2686 0.5943
C30G C 0.5284(8) 0.1736(7) 0.6064(4)
O9G O 0.5220(4) 0.1845(4) 0.6436(2)
C31G C 0.5641(6) 0.1401(6) 0.6718(4)
O10G O 0.5617(4) 0.1306(4) 0.5872(2)
C33G C 0.5612(7) 0.1794(6) 0.7089(3)
C34G C 0.6382(7) 0.1265(7) 0.6589(4)
C35G C 0.5313(7) 0.0712(6) 0.6709(4)
H21G H 0.5204 0.3195 0.4811
H22G H 0.4680 0.2578 0.4729
H23G H 0.5820 0.2246 0.7051
H24G H 0.5863 0.1545 0.7293
H25G H 0.5132 0.1850 0.7169
H26G H 0.6400 0.0836 0.6440
H27G H 0.6677 0.1227 0.6819
H28G H 0.6541 0.1644 0.6424
H29G H 0.4904 0.0715 0.6875
H30G H 0.5638 0.0368 0.6806
H31G H 0.5182 0.0599 0.6441
O4F O 0.58823(18) 0.64661(19) 0.62246(11)
O5A O 0.65767(17) 0.53166(19) 0.60197(9)
O7C O 0.70306(18) 0.65034(18) 0.58620(10)
C5F C 0.5606(3) 0.6122(3) 0.65132(17)
C29F C 0.5359(5) 0.7079(5) 0.5307(3)
H1F H 0.5146 0.5669 0.5489
C1F C 0.5624(3) 0.6433(3) 0.69078(17)
C16F C 0.5262(3) 0.6156(3) 0.71988(16)
C19F C 0.6038(3) 0.7029(3) 0.69709(18)
C2F C 0.3145(3) 0.8104(3) 0.91863(15)
C13F C 0.3196(3) 0.8109(3) 0.87856(17)
C18F C 0.3710(3) 0.7961(3) 0.94073(17)
C23F C 0.2480(3) 0.8301(3) 0.93633(16)
C3F C 0.7315(3) 0.9457(3) 0.89128(17)
H2F H 0.7236 0.9900 0.9020
C11F C 0.6778(3) 0.9044(3) 0.88271(17)
C14F C 0.7995(3) 0.9229(3) 0.88422(15)
C4F C 0.4397(3) 0.7802(3) 0.88173(16)
C6F C 0.3837(3) 0.7945(3) 0.86033(17)
C20F C 0.4342(3) 0.7784(3) 0.9234(2)
C21F C 0.5058(3) 0.7712(3) 0.86196(17)
H3F H 0.3867 0.7938 0.8327
C7F C 0.5649(3) 0.8011(3) 0.87627(18)
H4F H 0.5631 0.8256 0.9002
C9F C 0.6295(3) 0.7959(3) 0.85574(19)
C8F C 0.8571(3) 0.9698(3) 0.89178(14)
O5F O 0.84233(17) 1.03166(19) 0.89803(9)
O8F O 0.91792(16) 0.94634(16) 0.89081(9)
C12F C 0.6877(3) 0.8375(4) 0.86771(17)
C17F C 0.6286(3) 0.7620(3) 0.82000(19)
C10F C 0.8096(3) 0.8557(3) 0.87052(15)
H5F H 0.8551 0.8399 0.8665
C15F C 0.7559(3) 0.8123(3) 0.86281(18)
H6F H 0.6325 0.9206 0.8869
H7F H 0.2808 0.8220 0.8631
H8F H 0.7639 0.7666 0.8544
H9F H 0.4983 0.5766 0.7152
C26F C 0.5295(3) 0.6443(4) 0.75757(19)
H10F H 0.6699 0.7592 0.8054
C27F C 0.5696(3) 0.7318(3) 0.80476(18)
H11F H 0.3676 0.7981 0.9684
H12F H 0.6285 0.7237 0.6764
C25F C 0.6062(3) 0.7288(4) 0.7346(2)
H13F H 0.4723 0.7656 0.9391
C24F C 0.5087(3) 0.7365(3) 0.82599(18)
C22F C 0.5683(3) 0.7006(3) 0.76458(18)
O6F O 0.24086(17) 0.82329(19) 0.97385(11)
O7F O 0.20306(18) 0.84966(18) 0.91380(10)
H14F H 0.4683 0.7159 0.8159
H15F H 0.6348 0.7671 0.7399
H16F H 0.5042 0.6240 0.7783
Al3A_2 Al 0.88176(7) 1.10648(8) 0.92421(4)
Al2C_2 Al 0.15714(7) 0.84286(7) 1.0000
Al3C_2 Al 0.11824(7) 0.89352(8) 0.92421(4)
Al1A_2 Al 1.0000 1.0000 0.89337(6)
C28F C 0.5191(6) 0.7779(6) 0.5457(3)
H17F H 0.5571 0.8100 0.5400
H18F H 0.4769 0.7954 0.5331
N1F N 0.5089(5) 0.7714(5) 0.5886(2)
H19F H 0.5016 0.6767 0.5432
C32F C 0.5265(5) 0.6977(5) 0.4864(3)
H20F H 0.4906 0.7314 0.5943
C30F C 0.4716(8) 0.8264(7) 0.6064(4)
O9F O 0.4780(4) 0.8155(4) 0.6436(2)
C31F C 0.4359(6) 0.8599(6) 0.6718(4)
O10F O 0.4383(4) 0.8694(4) 0.5872(2)
C33F C 0.4388(7) 0.8206(6) 0.7089(3)
C34F C 0.3618(7) 0.8735(7) 0.6589(4)
C35F C 0.4687(7) 0.9288(6) 0.6709(4)
H21F H 0.4796 0.6805 0.4811
H22F H 0.5320 0.7422 0.4729
H23F H 0.4180 0.7754 0.7051
H24F H 0.4137 0.8455 0.7293
H25F H 0.4868 0.8150 0.7169
H26F H 0.3600 0.9164 0.6440
H27F H 0.3323 0.8773 0.6819
H28F H 0.3459 0.8356 0.6424
H29F H 0.5096 0.9285 0.6875
H30F H 0.4362 0.9632 0.6806
H31F H 0.4818 0.9401 0.6441
loop_
_geom_bond_atom_site_label_1
_geom_bond_atom_site_label_2
_geom_bond_site_symmetry_1
_geom_bond_site_symmetry_2
Al1 O1 1_555 1_555
Al2 O2 1_555 1_555
Al3 O2 1_555 1_555
O1 C5 1_555 1_555
O2 C29 1_555 1_555
O3 Al1 1_555 1_555
H1 O3 1_555 1_555
O4 Al3 1_555 1_555
C1 C5 1_555 1_555
C2 C13 1_555 1_555
C3 H2 1_555 1_555
C4 C6 1_555 1_555
C5 O4 1_555 1_555
C6 H3 1_555 1_555
C7 H4 1_555 1_555
C8 C14 1_555 1_555
C9 C7 1_555 1_555
C10 H5 1_555 1_555
C11 C3 1_555 1_555
H6 C11 1_555 1_555
C12 C9 1_555 1_555
C13 C6 1_555 1_555
H7 C13 1_555 1_555
C14 C3 1_555 1_555
C15 C10 1_555 1_555
H8 C15 1_555 1_555
C16 C1 1_555 1_555
H9 C16 1_555 1_555
C17 C9 1_555 1_555
H10 C17 1_555 1_555
C18 C2 1_555 1_555
H11 C18 1_555 1_555
C19 C1 1_555 1_555
H12 C19 1_555 1_555
C20 C4 1_555 1_555
H13 C20 1_555 1_555
C21 C4 1_555 1_555
C22 C25 1_555 1_555
C23 C2 1_555 1_555
C24 C21 1_555 1_555
H14 C24 1_555 1_555
C25 C19 1_555 1_555
H15 C25 1_555 1_555
C26 C16 1_555 1_555
H16 C26 1_555 1_555
C27 C17 1_555 1_555
O5 C8 1_555 1_555
O6 C23 1_555 1_555
O7 C23 1_555 1_555
O8 C8 1_555 1_555
C28 H17 1_555 1_555
H18 C28 1_555 1_555
C29 C28 1_555 1_555
H19 C29 1_555 1_555
N1 C28 1_555 1_555
H20 N1 1_555 1_555
O9 C30 1_555 1_555
O10 C30 1_555 1_555
C30 N1 1_555 1_555
C31 O9 1_555 1_555
C32 C29 1_555 1_555
H21 C32 1_555 1_555
H22 C32 1_555 1_555
O11 Al2 1_555 1_555
C33 C31 1_555 1_555
H23 C33 1_555 1_555
H24 C33 1_555 1_555
H25 C33 1_555 1_555
C34 C31 1_555 1_555
H26 C34 1_555 1_555
H27 C34 1_555 1_555
H28 C34 1_555 1_555
C35 C31 1_555 1_555
H29 C35 1_555 1_555
H30 C35 1_555 1_555
H31 C35 1_555 1_555
Al3B O2B 1_555 1_555
O1B Al1 1_555 1_555
O2B C29B 1_555 1_555
O3B Al1 1_555 1_555
H1B O3B 1_555 1_555
O4B Al3B 1_555 1_555
C1B C5B 1_555 1_555
C2B C13B 1_555 1_555
C3B H2B 1_555 1_555
C4B C6B 1_555 1_555
C5B O1B 1_555 1_555
C6B H3B 1_555 1_555
C7B H4B 1_555 1_555
C8B C14B 1_555 1_555
C9B C7B 1_555 1_555
C10B H5B 1_555 1_555
C11B C3B 1_555 1_555
H6B C11B 1_555 1_555
C12B C9B 1_555 1_555
C13B C6B 1_555 1_555
H7B C13B 1_555 1_555
C14B C3B 1_555 1_555
C15B C10B 1_555 1_555
H8B C15B 1_555 1_555
C16B C1B 1_555 1_555
H9B C16B 1_555 1_555
C17B C9B 1_555 1_555
H10B C17B 1_555 1_555
C18B C2B 1_555 1_555
H11B C18B 1_555 1_555
C19B C1B 1_555 1_555
H12B C19B 1_555 1_555
C20B C4B 1_555 1_555
H13B C20B 1_555 1_555
C21B C4B 1_555 1_555
C22B C25B 1_555 1_555
C23B C2B 1_555 1_555
C24B C21B 1_555 1_555
H14B C24B 1_555 1_555
C25B C19B 1_555 1_555
H15B C25B 1_555 1_555
C26B C16B 1_555 1_555
H16B C26B 1_555 1_555
C27B C17B 1_555 1_555
O5B C8B 1_555 1_555
O6B C23B 1_555 1_555
O7B C23B 1_555 1_555
O8B C8B 1_555 1_555
C28B H17B 1_555 1_555
H18B C28B 1_555 1_555
C29B C28B 1_555 1_555
H19B C29B 1_555 1_555
N1B C28B 1_555 1_555
H20B N1B 1_555 1_555
O9B C30B 1_555 1_555
O10B C30B 1_555 1_555
C30B N1B 1_555 1_555
C31B O9B 1_555 1_555
C32B C29B 1_555 1_555
H21B C32B 1_555 1_555
H22B C32B 1_555 1_555
O11B C32B 1_555 1_555
C33B C31B 1_555 1_555
H23B C33B 1_555 1_555
H24B C33B 1_555 1_555
H25B C33B 1_555 1_555
C34B C31B 1_555 1_555
H26B C34B 1_555 1_555
H27B C34B 1_555 1_555
H28B C34B 1_555 1_555
C35B C31B 1_555 1_555
H29B C35B 1_555 1_555
H30B C35B 1_555 1_555
H31B C35B 1_555 1_555
Al1D O8B 1_555 1_555
Al1D_2 O8 1_555 1_555
Al2A O6 1_555 1_555
Al2B O2B 1_555 1_555
Al2C O6B 1_555 1_555
Al3D O7B 1_555 1_555
Al3D_2 O5 1_555 1_555
Al3E O5B 1_555 1_555
Al3E_2 O7 1_555 1_555
Al3F O11 1_555 1_555
Al3G O11B 1_555 1_555
O2F Al2 1_555 1_555
O5D Al3 1_555 1_555
O5E Al3B 1_555 1_555
O6C Al2 1_555 1_555
O6E Al2 1_555 1_555
O7D Al3B 1_555 1_555
O7E Al3 1_555 1_555
O8D Al1 1_555 1_555
O8E Al1 1_555 1_555
O11F Al2 1_555 1_555
O11G Al3B 1_555 1_555
Al1F O1G 1_555 1_555
O1G C5G 1_555 1_555
O3G Al3G 1_555 1_555
O1F Al1F 1_555 1_555
O3F Al3F 1_555 1_555
O8C Al1F 1_555 1_555
O8A Al1F 1_555 1_555
O2G Al2B 1_555 1_555
O6D Al2B 1_555 1_555
O6A Al2B 1_555 1_555
O4G Al3G 1_555 1_555
O5C Al3G 1_555 1_555
O7A Al3G 1_555 1_555
C5G O4G 1_555 1_555
C29G O2G 1_555 1_555
H1G O3G 1_555 1_555
C1G C5G 1_555 1_555
C16G C1G 1_555 1_555
C19G C1G 1_555 1_555
C2G C13G 1_555 1_555
C13G C6G 1_555 1_555
C18G C2G 1_555 1_555
C23G C2G 1_555 1_555
C3G H2G 1_555 1_555
C11G C3G 1_555 1_555
C14G C3G 1_555 1_555
C4G C6G 1_555 1_555
C6G H3G 1_555 1_555
C20G C18G 1_555 1_555
C21G C4G 1_555 1_555
C7G C21G 1_555 1_555
H4G C7G 1_555 1_555
C9G C7G 1_555 1_555
C8G C14G 1_555 1_555
O5G C8G 1_555 1_555
O8G C8G 1_555 1_555
C12G C11G 1_555 1_555
C17G C9G 1_555 1_555
C10G C14G 1_555 1_555
H5G C10G 1_555 1_555
C15G C12G 1_555 1_555
H6G C11G 1_555 1_555
H7G C13G 1_555 1_555
H8G C15G 1_555 1_555
H9G C16G 1_555 1_555
C26G C16G 1_555 1_555
H10G C17G 1_555 1_555
C27G C17G 1_555 1_555
H11G C18G 1_555 1_555
H12G C19G 1_555 1_555
C25G C19G 1_555 1_555
H13G C20G 1_555 1_555
C24G C21G 1_555 1_555
C22G C26G 1_555 1_555
O6G C23G 1_555 1_555
O7G C23G 1_555 1_555
H14G C24G 1_555 1_555
H15G C25G 1_555 1_555
H16G C26G 1_555 1_555
Al3C O5G 1_555 1_555
Al2A_2 O6G 1_555 1_555
Al3A O7G 1_555 1_555
Al1A O8G 1_555 1_555
C28G C29G 1_555 1_555
H17G C28G 1_555 1_555
H18G C28G 1_555 1_555
N1G C28G 1_555 1_555
H19G C29G 1_555 1_555
C32G O11G 1_555 1_555
H20G N1G 1_555 1_555
C30G N1G 1_555 1_555
O9G C30G 1_555 1_555
C31G O9G 1_555 1_555
O10G C30G 1_555 1_555
C33G C31G 1_555 1_555
C34G C31G 1_555 1_555
C35G C31G 1_555 1_555
H21G C32G 1_555 1_555
H22G C32G 1_555 1_555
H23G C33G 1_555 1_555
H24G C33G 1_555 1_555
H25G C33G 1_555 1_555
H26G C34G 1_555 1_555
H27G C34G 1_555 1_555
H28G C34G 1_555 1_555
H29G C35G 1_555 1_555
H30G C35G 1_555 1_555
H31G C35G 1_555 1_555
O4F Al3F 1_555 1_555
O5A Al3F 1_555 1_555
O7C Al3F 1_555 1_555
C5F O1F 1_555 1_555
C29F O2F 1_555 1_555
H1F O3F 1_555 1_555
C1F C5F 1_555 1_555
C16F C1F 1_555 1_555
C19F C1F 1_555 1_555
C2F C13F 1_555 1_555
C13F C6F 1_555 1_555
C18F C2F 1_555 1_555
C23F C2F 1_555 1_555
C3F H2F 1_555 1_555
C11F C3F 1_555 1_555
C14F C3F 1_555 1_555
C4F C6F 1_555 1_555
C6F H3F 1_555 1_555
C20F C18F 1_555 1_555
C21F C4F 1_555 1_555
C7F C21F 1_555 1_555
H4F C7F 1_555 1_555
C9F C7F 1_555 1_555
C8F C14F 1_555 1_555
O5F C8F 1_555 1_555
O8F C8F 1_555 1_555
C12F C11F 1_555 1_555
C17F C9F 1_555 1_555
C10F C14F 1_555 1_555
H5F C10F 1_555 1_555
C15F C12F 1_555 1_555
H6F C11F 1_555 1_555
H7F C13F 1_555 1_555
H8F C15F 1_555 1_555
H9F C16F 1_555 1_555
C26F C16F 1_555 1_555
H10F C17F 1_555 1_555
C27F C17F 1_555 1_555
H11F C18F 1_555 1_555
H12F C19F 1_555 1_555
C25F C19F 1_555 1_555
H13F C20F 1_555 1_555
C24F C21F 1_555 1_555
C22F C26F 1_555 1_555
O6F C23F 1_555 1_555
O7F C23F 1_555 1_555
H14F C24F 1_555 1_555
H15F C25F 1_555 1_555
H16F C26F 1_555 1_555
Al3A_2 O5F 1_555 1_555
Al2C_2 O6F 1_555 1_555
Al3C_2 O7F 1_555 1_555
Al1A_2 O8F 1_555 1_555
C28F C29F 1_555 1_555
H17F C28F 1_555 1_555
H18F C28F 1_555 1_555
N1F C28F 1_555 1_555
H19F C29F 1_555 1_555
C32F O11F 1_555 1_555
H20F N1F 1_555 1_555
C30F N1F 1_555 1_555
O9F C30F 1_555 1_555
C31F O9F 1_555 1_555
O10F C30F 1_555 1_555
C33F C31F 1_555 1_555
C34F C31F 1_555 1_555
C35F C31F 1_555 1_555
H21F C32F 1_555 1_555
H22F C32F 1_555 1_555
H23F C33F 1_555 1_555
H24F C33F 1_555 1_555
H25F C33F 1_555 1_555
H26F C34F 1_555 1_555
H27F C34F 1_555 1_555
H28F C34F 1_555 1_555
H29F C35F 1_555 1_555
H30F C35F 1_555 1_555
H31F C35F 1_555 1_555
Al3 O3 1_555 1_555
Al3 O11F 1_555 1_555
C7 C21 1_555 1_555
C10 C14 1_555 1_555
C11 C12 1_555 1_555
C12 C15 1_555 1_555
C18 C20 1_555 1_555
C22 C26 1_555 1_555
C22 C27 1_555 1_555
C24 C27 1_555 1_555
C32 O11 1_555 1_555
Al3B O3B 1_555 1_555
O4B C5B 1_555 1_555
C7B C21B 1_555 1_555
C10B C14B 1_555 1_555
C11B C12B 1_555 1_555
C12B C15B 1_555 1_555
C18B C20B 1_555 1_555
C22B C26B 1_555 1_555
C22B C27B 1_555 1_555
C24B C27B 1_555 1_555
O11B Al2B 1_555 1_555
Al2B O11G 1_555 1_555
Al3F O2F 1_555 1_555
Al3G O2G 1_555 1_555
Al1F O3G 1_555 1_555
Al1F O3F 1_555 1_555
C29G C32G 1_555 1_555
C4G C20G 1_555 1_555
C9G C12G 1_555 1_555
C10G C15G 1_555 1_555
C27G C24G 1_555 1_555
C27G C22G 1_555 1_555
C25G C22G 1_555 1_555
O4F C5F 1_555 1_555
C29F C32F 1_555 1_555
C4F C20F 1_555 1_555
C9F C12F 1_555 1_555
C10F C15F 1_555 1_555
C27F C24F 1_555 1_555
C27F C22F 1_555 1_555
C25F C22F 1_555 1_555

#END
