
#######################################################################
#
#                 Cambridge Crystallographic Data Centre
#                                CCDC 
#
#######################################################################
#
# If this CIF has been generated from an entry in the Cambridge 
# Structural Database, then it will include bibliographic, chemical, 
# crystal, experimental, refinement or atomic coordinate data resulting 
# from the CCDC's data processing and validation procedures.
#
#######################################################################

data_OTEFIE
_chemical_formula_moiety         'C156 H132 Al24 O56'
_symmetry_cell_setting           tetragonal
_symmetry_space_group_name_H-M   'P 42 21 2'
_symmetry_Int_Tables_number      94
_space_group_name_Hall           'P 4n 2n'
loop_
_symmetry_equiv_pos_site_id
_symmetry_equiv_pos_as_xyz
1 x,y,z
2 1/2-y,1/2+x,1/2+z
3 -x,-y,z
4 1/2+y,1/2-x,1/2+z
5 1/2+x,1/2-y,1/2-z
6 1/2-x,1/2+y,1/2-z
7 y,x,-z
8 -y,-x,-z
_cell_length_a                   18.7304(7)
_cell_length_b                   18.7304(7)
_cell_length_c                   37.2104(15)
_cell_angle_alpha                90
_cell_angle_beta                 90
_cell_angle_gamma                90
_cell_volume                     13054.4
loop_
_atom_site_label
_atom_site_type_symbol
_atom_site_fract_x
_atom_site_fract_y
_atom_site_fract_z
Al1 Al 1.16225(3) 0.83775(3) 0.5000
Al2 Al 1.0000 1.0000 0.38464(2)
Al3 Al 1.09256(3) 0.86780(3) 0.41982(2)
O1 O 1.01935(8) 0.93310(9) 0.34727(4)
O2 O 1.06679(8) 0.83529(8) 0.37312(4)
C1 C 1.04258(11) 0.87006(12) 0.34654(5)
C2 C 0.79096(12) 0.70576(13) 0.08887(6)
C3 C 0.72488(11) 0.70218(11) 0.06675(6)
C4 C 1.34653(10) 0.49601(12) 0.11545(5)
C5 C 1.04146(13) 0.76170(16) 0.24476(7)
C6 C 1.21360(13) 0.50404(16) 0.12295(7)
H1 H 1.2086 0.4594 0.1111
C7 C 0.91294(13) 0.69759(17) 0.13189(6)
C8 C 1.04220(12) 0.83223(13) 0.31148(6)
C9 C 1.28099(11) 0.53326(13) 0.12804(6)
C10 C 0.78491(12) 0.70419(15) 0.12619(6)
H2 H 0.7392 0.7053 0.1372
C11 C 1.04132(14) 0.72441(16) 0.20962(7)
C12 C 0.84604(13) 0.70096(16) 0.14708(7)
H3 H 0.8417 0.7011 0.1725
C13 C 1.16068(13) 0.60620(17) 0.15292(7)
C14 C 1.07728(14) 0.76704(15) 0.30724(6)
H4 H 1.1014 0.7463 0.3271
C15 C 1.09860(14) 0.68342(18) 0.19822(7)
H5 H 1.1400 0.6805 0.2129
C16 C 0.97964(13) 0.72740(18) 0.18809(7)
H6 H 0.9389 0.7528 0.1963
C17 C 1.28901(13) 0.59805(16) 0.14651(8)
H7 H 1.3352 0.6172 0.1508
C18 C 0.97777(13) 0.69302(17) 0.15438(7)
C19 C 1.03630(13) 0.65218(19) 0.14379(7)
H8 H 1.0350 0.6279 0.1214
C20 C 1.07733(14) 0.73202(16) 0.27427(7)
H9 H 1.1017 0.6878 0.2717
C21 C 0.85789(13) 0.70421(19) 0.07298(7)
H10 H 0.8622 0.7069 0.0476
C22 C 1.00632(16) 0.82650(18) 0.24917(7)
H11 H 0.9819 0.8472 0.2294
C23 C 0.91872(15) 0.6988(2) 0.09417(8)
H12 H 0.9644 0.6958 0.0832
C24 C 1.15315(13) 0.54039(17) 0.13532(8)
H13 H 1.1070 0.5205 0.1318
C25 C 1.00630(15) 0.86146(15) 0.28199(7)
H14 H 0.9817 0.9056 0.2845
C26 C 1.09697(14) 0.64628(18) 0.16561(8)
C27 C 1.22840(14) 0.63399(17) 0.15855(9)
H15 H 1.2336 0.6782 0.1708
O3 O 1.01918(7) 0.93249(8) 0.41934(4)
H16 H 0.9874 0.9311 0.4392
O4 O 1.34044(7) 0.43368(8) 0.10285(4)
O5 O 1.12519(7) 0.89559(7) 0.46461(3)
H17 H 1.1225 0.9451 0.4699
O6 O 1.40436(8) 0.53050(8) 0.11832(4)
O7 O 0.73146(8) 0.69930(9) 0.03274(4)
O8 O 0.66608(8) 0.70062(8) 0.08327(4)
O9 O 1.03205(8) 0.79535(8) 0.43923(4)
C28 C 1.04579(15) 0.75470(13) 0.46561(7)
O10 O 1.09415(9) 0.76422(8) 0.48847(4)
C29 C 1.0013(6) 0.6872(6) 0.4690(3)
H18 H 1.0217 0.6495 0.4534
H19 H 0.9520 0.6969 0.4607
C30 C 0.9994(8) 0.6593(7) 0.5107(4)
H20 H 1.0095 0.6988 0.5281
C31 C 0.9357(8) 0.6138(8) 0.5225(4)
H21 H 0.9165 0.5954 0.4992
C32 C 0.9644(9) 0.5526(8) 0.5384(4)
C33 C 1.0627(8) 0.6144(7) 0.5044(4)
H22 H 1.1088 0.6401 0.5054
H23 H 1.0595 0.5830 0.4831
C34 C 1.0374(8) 0.5755(9) 0.5439(4)
H24 H 1.0403 0.6101 0.5639
C35 C 0.8684(9) 0.6343(9) 0.5430(4)
H25 H 0.8256 0.6227 0.5285
H26 H 0.8657 0.6076 0.5659
C36 C 0.8713(7) 0.7117(7) 0.5502(4)
H27 H 0.9163 0.7344 0.5475
C37 C 0.8160(9) 0.7532(9) 0.5602(5)
H28 H 0.8130 0.7987 0.5489
C38 C 0.7572(10) 0.7356(11) 0.5876(6)
H29 H 0.7788 0.7231 0.6111
H30 H 0.7287 0.6944 0.5792
C39 C 0.7089(10) 0.8018(8) 0.5917(6)
H31 H 0.6912 0.8164 0.5680
H32 H 0.7364 0.8410 0.6024
H33 H 0.6684 0.7902 0.6073
Al3B Al 0.90744(3) 1.13220(3) 0.41982(2)
O1B O 0.98065(8) 1.06690(9) 0.34727(4)
O2B O 0.93321(8) 1.16471(8) 0.37312(4)
C1B C 0.95742(11) 1.12994(12) 0.34654(5)
C2B C 1.20904(12) 1.29424(13) 0.08887(6)
C3B C 1.27512(11) 1.29782(11) 0.06675(6)
C4B C 0.65347(10) 1.50399(12) 0.11545(5)
C5B C 0.95854(13) 1.23830(16) 0.24476(7)
C6B C 0.78640(13) 1.49596(16) 0.12295(7)
H1B H 0.7914 1.5406 0.1111
C7B C 1.08706(13) 1.30241(17) 0.13189(6)
C8B C 0.95780(12) 1.16777(13) 0.31148(6)
C9B C 0.71901(11) 1.46674(13) 0.12804(6)
C10B C 1.21509(12) 1.29581(15) 0.12619(6)
H2B H 1.2608 1.2947 0.1372
C11B C 0.95868(14) 1.27559(16) 0.20962(7)
C12B C 1.15396(13) 1.29904(16) 0.14708(7)
H3B H 1.1583 1.2989 0.1725
C13B C 0.83932(13) 1.39380(17) 0.15292(7)
C14B C 0.92272(14) 1.23296(15) 0.30724(6)
H4B H 0.8986 1.2537 0.3271
C15B C 0.90140(14) 1.31658(18) 0.19822(7)
H5B H 0.8600 1.3195 0.2129
C16B C 1.02036(13) 1.27260(18) 0.18809(7)
H6B H 1.0611 1.2472 0.1963
C17B C 0.71099(13) 1.40195(16) 0.14651(8)
H7B H 0.6648 1.3828 0.1508
C18B C 1.02223(13) 1.30698(17) 0.15438(7)
C19B C 0.96370(13) 1.34782(19) 0.14379(7)
H8B H 0.9650 1.3721 0.1214
C20B C 0.92267(14) 1.26798(16) 0.27427(7)
H9B H 0.8983 1.3122 0.2717
C21B C 1.14211(13) 1.29579(19) 0.07298(7)
H10B H 1.1378 1.2931 0.0476
C22B C 0.99368(16) 1.17350(18) 0.24917(7)
H11B H 1.0181 1.1528 0.2294
C23B C 1.08128(15) 1.3012(2) 0.09417(8)
H12B H 1.0356 1.3042 0.0832
C24B C 0.84685(13) 1.45961(17) 0.13532(8)
H13B H 0.8930 1.4795 0.1318
C25B C 0.99370(15) 1.13854(15) 0.28199(7)
H14B H 1.0183 1.0944 0.2845
C26B C 0.90303(14) 1.35372(18) 0.16561(8)
C27B C 0.77160(14) 1.36601(17) 0.15855(9)
H15B H 0.7664 1.3218 0.1708
O3B O 0.98082(7) 1.06751(8) 0.41934(4)
H16B H 1.0126 1.0689 0.4392
O4B O 0.65956(7) 1.56632(8) 0.10285(4)
O5B O 0.87481(7) 1.10441(7) 0.46461(3)
H17B H 0.8775 1.0549 0.4699
O6B O 0.59564(8) 1.46950(8) 0.11832(4)
O7B O 1.26854(8) 1.30070(9) 0.03274(4)
O8B O 1.33392(8) 1.29938(8) 0.08327(4)
O9B O 0.96795(8) 1.20465(8) 0.43923(4)
C28B C 0.95421(15) 1.24530(13) 0.46561(7)
O10B O 0.90585(9) 1.23578(8) 0.48847(4)
C29B C 0.9987(6) 1.3128(6) 0.4690(3)
H18B H 0.9783 1.3505 0.4534
H19B H 1.0480 1.3031 0.4607
C30B C 1.0006(8) 1.3407(7) 0.5107(4)
H20B H 0.9905 1.3012 0.5281
C31B C 1.0643(8) 1.3862(8) 0.5225(4)
H21B H 1.0835 1.4046 0.4992
C32B C 1.0356(9) 1.4474(8) 0.5384(4)
C33B C 0.9373(8) 1.3856(7) 0.5044(4)
H22B H 0.8912 1.3599 0.5054
H23B H 0.9405 1.4170 0.4831
C34B C 0.9626(8) 1.4245(9) 0.5439(4)
H24B H 0.9597 1.3899 0.5639
C35B C 1.1316(9) 1.3657(9) 0.5430(4)
H25B H 1.1744 1.3773 0.5285
H26B H 1.1343 1.3924 0.5659
C36B C 1.1287(7) 1.2883(7) 0.5502(4)
H27B H 1.0837 1.2656 0.5475
C37B C 1.1840(9) 1.2468(9) 0.5602(5)
H28B H 1.1870 1.2013 0.5489
C38B C 1.2428(10) 1.2644(11) 0.5876(6)
H29B H 1.2212 1.2769 0.6111
H30B H 1.2713 1.3056 0.5792
C39B C 1.2911(10) 1.1982(8) 0.5917(6)
H31B H 1.3088 1.1836 0.5680
H32B H 1.2636 1.1590 0.6024
H33B H 1.3316 1.2098 0.6073
Al1A Al 0.66225(3) 0.66225(3) 0.0000
Al1B Al 0.83775(3) 1.16225(3) 0.5000
Al1C Al 1.33775(3) 1.33775(3) 0.0000
Al2D Al 0.5000 1.5000 0.11536(2)
Al2D_2 Al 1.5000 0.5000 0.11536(2)
Al3D Al 0.59256(3) 0.63220(3) 0.08018(2)
Al3D_2 Al 0.59256(3) 1.63220(3) 0.08018(2)
Al3E Al 1.40744(3) 0.36780(3) 0.08018(2)
Al3E_2 Al 1.40744(3) 1.36780(3) 0.08018(2)
O4D O 0.84044(7) 1.06632(8) 0.39715(4)
O4E O 1.15956(7) 0.93368(8) 0.39715(4)
O5G O 1.10441(7) 0.87481(7) 0.53539(3)
O6D O 0.90436(8) 0.96950(8) 0.38168(4)
O6E O 1.09564(8) 1.03050(8) 0.38168(4)
O7C O 1.19930(9) 0.76854(8) 0.53274(4)
O7D O 1.23146(8) 0.80070(9) 0.46726(4)
O8D O 1.16608(8) 0.79938(8) 0.41673(4)
O8E O 0.83392(8) 1.20062(8) 0.41673(4)
O10G O 1.23578(8) 0.90585(9) 0.51153(4)
O5F O 0.89559(7) 1.12519(7) 0.53539(3)
O7A O 0.80070(9) 1.23146(8) 0.53274(4)
O7E O 0.76854(8) 1.19930(9) 0.46726(4)
O10F O 0.76422(8) 1.09415(9) 0.51153(4)
Al2F Al 1.0000 1.0000 0.61536(2)
O1F O 0.93310(9) 1.01935(8) 0.65273(4)
O3F O 0.93249(8) 1.01918(7) 0.58066(4)
O1G O 1.06690(9) 0.98065(8) 0.65273(4)
O3G O 1.06751(8) 0.98082(7) 0.58066(4)
O6A O 0.96950(8) 0.90436(8) 0.61832(4)
O6C O 1.03050(8) 1.09564(8) 0.61832(4)
Al3F Al 0.86780(3) 1.09256(3) 0.58018(2)
O2F O 0.83529(8) 1.06679(8) 0.62688(4)
O9F O 0.79535(8) 1.03205(8) 0.56077(4)
O4C O 0.93368(8) 1.15956(7) 0.60285(4)
O8A O 0.79938(8) 1.16608(8) 0.58327(4)
C1F C 0.87006(12) 1.04258(11) 0.65346(5)
C8F C 0.83223(13) 1.04220(12) 0.68852(6)
C2F C 0.70576(13) 0.79096(12) 0.91113(6)
C3F C 0.70218(11) 0.72488(11) 0.93325(6)
C10F C 0.70419(15) 0.78491(12) 0.87381(6)
C21F C 0.70421(19) 0.85789(13) 0.92702(7)
O7F O 0.69930(9) 0.73146(8) 0.96726(4)
O8F O 0.70062(8) 0.66608(8) 0.91673(4)
C4F C 0.49601(12) 1.34653(10) 0.88455(5)
C9F C 0.53326(13) 1.28099(11) 0.87196(6)
O4F O 0.43368(8) 1.34044(7) 0.89715(4)
O6F O 0.53050(8) 1.40436(8) 0.88168(4)
C5F C 0.76170(16) 1.04146(13) 0.75524(7)
C11F C 0.72441(16) 1.04132(14) 0.79038(7)
C20F C 0.73202(16) 1.07733(14) 0.72573(7)
C22F C 0.82650(18) 1.00632(16) 0.75083(7)
C6F C 0.50404(16) 1.21360(13) 0.87705(7)
H1F H 0.4594 1.2086 0.8889
C24F C 0.54039(17) 1.15315(13) 0.86468(8)
C7F C 0.69759(17) 0.91294(13) 0.86811(6)
C12F C 0.70096(16) 0.84604(13) 0.85292(7)
C18F C 0.69302(17) 0.97777(13) 0.84562(7)
C23F C 0.6988(2) 0.91872(15) 0.90583(8)
C14F C 0.76704(15) 1.07728(14) 0.69276(6)
C25F C 0.86146(15) 1.00630(15) 0.71801(7)
C17F C 0.59805(16) 1.28901(13) 0.85349(8)
H2F H 0.7053 0.7392 0.8628
C15F C 0.68342(18) 1.09860(14) 0.80178(7)
C16F C 0.72740(18) 0.97964(13) 0.81191(7)
H3F H 0.7011 0.8417 0.8275
C13F C 0.60620(17) 1.16068(13) 0.84708(7)
C26F C 0.64628(18) 1.09697(14) 0.83439(8)
C27F C 0.63399(17) 1.22840(14) 0.84145(9)
H4F H 0.7463 1.1014 0.6729
H5F H 0.6805 1.1400 0.7871
H6F H 0.7528 0.9389 0.8037
H7F H 0.6172 1.3352 0.8492
C19F C 0.65218(19) 1.03630(13) 0.85621(7)
H8F H 0.6279 1.0350 0.8786
H9F H 0.6878 1.1017 0.7283
H10F H 0.7069 0.8622 0.9524
H11F H 0.8472 0.9819 0.7706
H12F H 0.6958 0.9644 0.9168
H13F H 0.5205 1.1070 0.8682
H14F H 0.9056 0.9817 0.7155
H15F H 0.6782 1.2336 0.8292
H16F H 0.9311 0.9874 0.5608
Al3C Al 0.36780(3) 1.40744(3) 0.91982(2)
H17F H 0.9451 1.1225 0.5301
Al2A Al 0.5000 1.5000 0.88464(2)
Al1A_2 Al 0.66225(3) 0.66225(3) 1.0000
Al3A Al 0.63220(3) 0.59256(3) 0.91982(2)
C28F C 0.75470(13) 1.04579(15) 0.53439(7)
C29F C 0.6872(6) 1.0013(6) 0.5310(3)
H18F H 0.6495 1.0217 0.5466
H19F H 0.6969 0.9520 0.5393
C30F C 0.6593(7) 0.9994(8) 0.4893(4)
H20F H 0.6988 1.0095 0.4719
C31F C 0.6138(8) 0.9357(8) 0.4775(4)
C33F C 0.6144(7) 1.0627(8) 0.4956(4)
H21F H 0.5954 0.9165 0.5008
C32F C 0.5526(8) 0.9644(9) 0.4616(4)
C35F C 0.6343(9) 0.8684(9) 0.4570(4)
C34F C 0.5755(9) 1.0374(8) 0.4561(4)
H22F H 0.6401 1.1088 0.4946
H23F H 0.5830 1.0595 0.5169
H24F H 0.6101 1.0403 0.4361
H25F H 0.6227 0.8256 0.4715
H26F H 0.6076 0.8657 0.4341
C36F C 0.7117(7) 0.8713(7) 0.4498(4)
H27F H 0.7344 0.9163 0.4525
C37F C 0.7532(9) 0.8160(9) 0.4398(5)
H28F H 0.7987 0.8130 0.4511
C38F C 0.7356(11) 0.7572(10) 0.4124(6)
H29F H 0.7231 0.7788 0.3889
H30F H 0.6944 0.7287 0.4208
C39F C 0.8018(8) 0.7089(10) 0.4083(6)
H31F H 0.8164 0.6912 0.4320
H32F H 0.8410 0.7364 0.3976
H33F H 0.7902 0.6684 0.3927
Al3G Al 1.13220(3) 0.90744(3) 0.58018(2)
O2G O 1.16471(8) 0.93321(8) 0.62688(4)
O9G O 1.20465(8) 0.96795(8) 0.56077(4)
O4A O 1.06632(8) 0.84044(7) 0.60285(4)
O8C O 1.20062(8) 0.83392(8) 0.58327(4)
C1G C 1.12994(12) 0.95742(11) 0.65346(5)
C8G C 1.16777(13) 0.95780(12) 0.68852(6)
C2G C 1.29424(13) 1.20904(12) 0.91113(6)
C3G C 1.29782(11) 1.27512(11) 0.93325(6)
C10G C 1.29581(15) 1.21509(12) 0.87381(6)
C21G C 1.29579(19) 1.14211(13) 0.92702(7)
O7G O 1.30070(9) 1.26854(8) 0.96726(4)
O8G O 1.29938(8) 1.33392(8) 0.91673(4)
C4G C 1.50399(12) 0.65347(10) 0.88455(5)
C9G C 1.46674(13) 0.71901(11) 0.87196(6)
O4G O 1.56632(8) 0.65956(7) 0.89715(4)
O6G O 1.46950(8) 0.59564(8) 0.88168(4)
C5G C 1.23830(16) 0.95854(13) 0.75524(7)
C11G C 1.27559(16) 0.95868(14) 0.79038(7)
C20G C 1.26798(16) 0.92267(14) 0.72573(7)
C22G C 1.17350(18) 0.99368(16) 0.75083(7)
C6G C 1.49596(16) 0.78640(13) 0.87705(7)
H1G H 1.5406 0.7914 0.8889
C24G C 1.45961(17) 0.84685(13) 0.86468(8)
C7G C 1.30241(17) 1.08706(13) 0.86811(6)
C12G C 1.29904(16) 1.15396(13) 0.85292(7)
C18G C 1.30698(17) 1.02223(13) 0.84562(7)
C23G C 1.3012(2) 1.08128(15) 0.90583(8)
C14G C 1.23296(15) 0.92272(14) 0.69276(6)
C25G C 1.13854(15) 0.99370(15) 0.71801(7)
C17G C 1.40195(16) 0.71099(13) 0.85349(8)
H2G H 1.2947 1.2608 0.8628
C15G C 1.31658(18) 0.90140(14) 0.80178(7)
C16G C 1.27260(18) 1.02036(13) 0.81191(7)
H3G H 1.2989 1.1583 0.8275
C13G C 1.39380(17) 0.83932(13) 0.84708(7)
C26G C 1.35372(18) 0.90303(14) 0.83439(8)
C27G C 1.36601(17) 0.77160(14) 0.84145(9)
H4G H 1.2537 0.8986 0.6729
H5G H 1.3195 0.8600 0.7871
H6G H 1.2472 1.0611 0.8037
H7G H 1.3828 0.6648 0.8492
C19G C 1.34782(19) 0.96370(13) 0.85621(7)
H8G H 1.3721 0.9650 0.8786
H9G H 1.3122 0.8983 0.7283
H10G H 1.2931 1.1378 0.9524
H11G H 1.1528 1.0181 0.7706
H12G H 1.3042 1.0356 0.9168
H13G H 1.4795 0.8930 0.8682
H14G H 1.0944 1.0183 0.7155
H15G H 1.3218 0.7664 0.8292
H16G H 1.0689 1.0126 0.5608
Al3A_2 Al 1.63220(3) 0.59256(3) 0.91982(2)
H17G H 1.0549 0.8775 0.5301
Al2A_2 Al 1.5000 0.5000 0.88464(2)
Al1C_2 Al 1.33775(3) 1.33775(3) 1.0000
Al3C_2 Al 1.36780(3) 1.40744(3) 0.91982(2)
C28G C 1.24530(13) 0.95421(15) 0.53439(7)
C29G C 1.3128(6) 0.9987(6) 0.5310(3)
H18G H 1.3505 0.9783 0.5466
H19G H 1.3031 1.0480 0.5393
C30G C 1.3407(7) 1.0006(8) 0.4893(4)
H20G H 1.3012 0.9905 0.4719
C31G C 1.3862(8) 1.0643(8) 0.4775(4)
C33G C 1.3856(7) 0.9373(8) 0.4956(4)
H21G H 1.4046 1.0835 0.5008
C32G C 1.4474(8) 1.0356(9) 0.4616(4)
C35G C 1.3657(9) 1.1316(9) 0.4570(4)
C34G C 1.4245(9) 0.9626(8) 0.4561(4)
H22G H 1.3599 0.8912 0.4946
H23G H 1.4170 0.9405 0.5169
H24G H 1.3899 0.9597 0.4361
H25G H 1.3773 1.1744 0.4715
H26G H 1.3924 1.1343 0.4341
C36G C 1.2883(7) 1.1287(7) 0.4498(4)
H27G H 1.2656 1.0837 0.4525
C37G C 1.2468(9) 1.1840(9) 0.4398(5)
H28G H 1.2013 1.1870 0.4511
C38G C 1.2644(11) 1.2428(10) 0.4124(6)
H29G H 1.2769 1.2212 0.3889
H30G H 1.3056 1.2713 0.4208
C39G C 1.1982(8) 1.2911(10) 0.4083(6)
H31G H 1.1836 1.3088 0.4320
H32G H 1.1590 1.2636 0.3976
H33G H 1.2098 1.3316 0.3927
loop_
_geom_bond_atom_site_label_1
_geom_bond_atom_site_label_2
_geom_bond_site_symmetry_1
_geom_bond_site_symmetry_2
Al1 O5 1_555 1_555
Al2 O1 1_555 1_555
Al3 O2 1_555 1_555
O1 C1 1_555 1_555
O2 C1 1_555 1_555
C1 C8 1_555 1_555
C2 C3 1_555 1_555
C3 O7 1_555 1_555
C4 C9 1_555 1_555
C5 C11 1_555 1_555
C6 H1 1_555 1_555
C7 C12 1_555 1_555
C8 C14 1_555 1_555
C9 C6 1_555 1_555
C10 C2 1_555 1_555
H2 C10 1_555 1_555
C11 C15 1_555 1_555
C12 C10 1_555 1_555
H3 C12 1_555 1_555
C13 C24 1_555 1_555
C14 H4 1_555 1_555
C15 H5 1_555 1_555
C16 C11 1_555 1_555
H6 C16 1_555 1_555
C17 C9 1_555 1_555
H7 C17 1_555 1_555
C18 C7 1_555 1_555
C19 C18 1_555 1_555
H8 C19 1_555 1_555
C20 C5 1_555 1_555
H9 C20 1_555 1_555
C21 C2 1_555 1_555
H10 C21 1_555 1_555
C22 C5 1_555 1_555
H11 C22 1_555 1_555
C23 C7 1_555 1_555
H12 C23 1_555 1_555
C24 C6 1_555 1_555
H13 C24 1_555 1_555
C25 C8 1_555 1_555
H14 C25 1_555 1_555
C26 C13 1_555 1_555
C27 C13 1_555 1_555
H15 C27 1_555 1_555
O3 Al2 1_555 1_555
H16 O3 1_555 1_555
O4 C4 1_555 1_555
O5 Al3 1_555 1_555
H17 O5 1_555 1_555
O6 C4 1_555 1_555
O7 Al1A 1_555 1_555
O8 C3 1_555 1_555
O9 Al3 1_555 1_555
C28 O9 1_555 1_555
O10 Al1 1_555 1_555
C29 C28 1_555 1_555
H18 C29 1_555 1_555
H19 C29 1_555 1_555
C30 C29 1_555 1_555
H20 C30 1_555 1_555
C31 C30 1_555 1_555
H21 C31 1_555 1_555
C32 C31 1_555 1_555
C33 C30 1_555 1_555
H22 C33 1_555 1_555
H23 C33 1_555 1_555
C34 C32 1_555 1_555
H24 C34 1_555 1_555
C35 C31 1_555 1_555
H25 C35 1_555 1_555
H26 C35 1_555 1_555
C36 C35 1_555 1_555
H27 C36 1_555 1_555
C37 C36 1_555 1_555
H28 C37 1_555 1_555
C38 C37 1_555 1_555
H29 C38 1_555 1_555
H30 C38 1_555 1_555
C39 C38 1_555 1_555
H31 C39 1_555 1_555
H32 C39 1_555 1_555
H33 C39 1_555 1_555
Al3B O2B 1_555 1_555
O1B Al2 1_555 1_555
O2B C1B 1_555 1_555
C1B O1B 1_555 1_555
C2B C3B 1_555 1_555
C3B O7B 1_555 1_555
C4B C9B 1_555 1_555
C5B C11B 1_555 1_555
C6B H1B 1_555 1_555
C7B C12B 1_555 1_555
C8B C1B 1_555 1_555
C9B C6B 1_555 1_555
C10B C2B 1_555 1_555
H2B C10B 1_555 1_555
C11B C15B 1_555 1_555
C12B C10B 1_555 1_555
H3B C12B 1_555 1_555
C13B C24B 1_555 1_555
C14B C8B 1_555 1_555
H4B C14B 1_555 1_555
C15B H5B 1_555 1_555
C16B C11B 1_555 1_555
H6B C16B 1_555 1_555
C17B C9B 1_555 1_555
H7B C17B 1_555 1_555
C18B C7B 1_555 1_555
C19B C18B 1_555 1_555
H8B C19B 1_555 1_555
C20B C5B 1_555 1_555
H9B C20B 1_555 1_555
C21B C2B 1_555 1_555
H10B C21B 1_555 1_555
C22B C5B 1_555 1_555
H11B C22B 1_555 1_555
C23B C7B 1_555 1_555
H12B C23B 1_555 1_555
C24B C6B 1_555 1_555
H13B C24B 1_555 1_555
C25B C8B 1_555 1_555
H14B C25B 1_555 1_555
C26B C13B 1_555 1_555
C27B C13B 1_555 1_555
H15B C27B 1_555 1_555
O3B Al2 1_555 1_555
H16B O3B 1_555 1_555
O4B C4B 1_555 1_555
O5B Al3B 1_555 1_555
H17B O5B 1_555 1_555
O6B C4B 1_555 1_555
O7B Al1C 1_555 1_555
O8B C3B 1_555 1_555
O9B Al3B 1_555 1_555
C28B O9B 1_555 1_555
O10B C28B 1_555 1_555
C29B C28B 1_555 1_555
H18B C29B 1_555 1_555
H19B C29B 1_555 1_555
C30B C29B 1_555 1_555
H20B C30B 1_555 1_555
C31B C30B 1_555 1_555
H21B C31B 1_555 1_555
C32B C31B 1_555 1_555
C33B C30B 1_555 1_555
H22B C33B 1_555 1_555
H23B C33B 1_555 1_555
C34B C32B 1_555 1_555
H24B C34B 1_555 1_555
C35B C31B 1_555 1_555
H25B C35B 1_555 1_555
H26B C35B 1_555 1_555
C36B C35B 1_555 1_555
H27B C36B 1_555 1_555
C37B C36B 1_555 1_555
H28B C37B 1_555 1_555
C38B C37B 1_555 1_555
H29B C38B 1_555 1_555
H30B C38B 1_555 1_555
C39B C38B 1_555 1_555
H31B C39B 1_555 1_555
H32B C39B 1_555 1_555
H33B C39B 1_555 1_555
Al1B O5B 1_555 1_555
Al2D O6B 1_555 1_555
Al2D_2 O6 1_555 1_555
Al3D O8 1_555 1_555
Al3D_2 O4B 1_555 1_555
Al3E O4 1_555 1_555
Al3E_2 O8B 1_555 1_555
O4D Al3B 1_555 1_555
O4E Al3 1_555 1_555
O5G Al1 1_555 1_555
O6D Al2 1_555 1_555
O6E Al2 1_555 1_555
O7C Al1 1_555 1_555
O7D Al1 1_555 1_555
O8D Al3 1_555 1_555
O8E Al3B 1_555 1_555
O10G Al1 1_555 1_555
O5F Al1B 1_555 1_555
O7A Al1B 1_555 1_555
O7E Al1B 1_555 1_555
O10F Al1B 1_555 1_555
Al2F O1F 1_555 1_555
O1F C1F 1_555 1_555
O3F Al2F 1_555 1_555
O1G Al2F 1_555 1_555
O3G Al2F 1_555 1_555
O6A Al2F 1_555 1_555
O6C Al2F 1_555 1_555
Al3F O5F 1_555 1_555
O2F Al3F 1_555 1_555
O9F Al3F 1_555 1_555
O4C Al3F 1_555 1_555
O8A Al3F 1_555 1_555
C1F O2F 1_555 1_555
C8F C1F 1_555 1_555
C2F C3F 1_555 1_555
C3F O7F 1_555 1_555
C10F C2F 1_555 1_555
C21F C2F 1_555 1_555
O7F Al1A_2 1_555 1_555
O8F C3F 1_555 1_555
C4F C9F 1_555 1_555
C9F C6F 1_555 1_555
O4F C4F 1_555 1_555
O6F C4F 1_555 1_555
C5F C11F 1_555 1_555
C11F C15F 1_555 1_555
C20F C5F 1_555 1_555
C22F C5F 1_555 1_555
C6F H1F 1_555 1_555
C24F C6F 1_555 1_555
C7F C12F 1_555 1_555
C12F C10F 1_555 1_555
C18F C7F 1_555 1_555
C23F C21F 1_555 1_555
C14F C8F 1_555 1_555
C25F C8F 1_555 1_555
C17F C9F 1_555 1_555
H2F C10F 1_555 1_555
C15F C26F 1_555 1_555
C16F C11F 1_555 1_555
H3F C12F 1_555 1_555
C13F C24F 1_555 1_555
C26F C13F 1_555 1_555
C27F C17F 1_555 1_555
H4F C14F 1_555 1_555
H5F C15F 1_555 1_555
H6F C16F 1_555 1_555
H7F C17F 1_555 1_555
C19F C18F 1_555 1_555
H8F C19F 1_555 1_555
H9F C20F 1_555 1_555
H10F C21F 1_555 1_555
H11F C22F 1_555 1_555
H12F C23F 1_555 1_555
H13F C24F 1_555 1_555
H14F C25F 1_555 1_555
H15F C27F 1_555 1_555
H16F O3F 1_555 1_555
Al3C O4F 1_555 1_555
H17F O5F 1_555 1_555
Al2A O6F 1_555 1_555
Al3A O8F 1_555 1_555
C28F O10F 1_555 1_555
C29F C28F 1_555 1_555
H18F C29F 1_555 1_555
H19F C29F 1_555 1_555
C30F C29F 1_555 1_555
H20F C30F 1_555 1_555
C31F C30F 1_555 1_555
C33F C30F 1_555 1_555
H21F C31F 1_555 1_555
C32F C31F 1_555 1_555
C35F C31F 1_555 1_555
C34F C33F 1_555 1_555
H22F C33F 1_555 1_555
H23F C33F 1_555 1_555
H24F C34F 1_555 1_555
H25F C35F 1_555 1_555
H26F C35F 1_555 1_555
C36F C35F 1_555 1_555
H27F C36F 1_555 1_555
C37F C36F 1_555 1_555
H28F C37F 1_555 1_555
C38F C37F 1_555 1_555
H29F C38F 1_555 1_555
H30F C38F 1_555 1_555
C39F C38F 1_555 1_555
H31F C39F 1_555 1_555
H32F C39F 1_555 1_555
H33F C39F 1_555 1_555
Al3G O5G 1_555 1_555
O2G Al3G 1_555 1_555
O9G Al3G 1_555 1_555
O4A Al3G 1_555 1_555
O8C Al3G 1_555 1_555
C1G O1G 1_555 1_555
C8G C1G 1_555 1_555
C2G C3G 1_555 1_555
C3G O7G 1_555 1_555
C10G C2G 1_555 1_555
C21G C2G 1_555 1_555
O7G Al1C_2 1_555 1_555
O8G C3G 1_555 1_555
C4G C9G 1_555 1_555
C9G C6G 1_555 1_555
O4G C4G 1_555 1_555
O6G C4G 1_555 1_555
C5G C11G 1_555 1_555
C11G C15G 1_555 1_555
C20G C5G 1_555 1_555
C22G C5G 1_555 1_555
C6G H1G 1_555 1_555
C24G C6G 1_555 1_555
C7G C12G 1_555 1_555
C12G C10G 1_555 1_555
C18G C7G 1_555 1_555
C23G C21G 1_555 1_555
C14G C8G 1_555 1_555
C25G C8G 1_555 1_555
C17G C9G 1_555 1_555
H2G C10G 1_555 1_555
C15G C26G 1_555 1_555
C16G C11G 1_555 1_555
H3G C12G 1_555 1_555
C13G C24G 1_555 1_555
C26G C13G 1_555 1_555
C27G C17G 1_555 1_555
H4G C14G 1_555 1_555
H5G C15G 1_555 1_555
H6G C16G 1_555 1_555
H7G C17G 1_555 1_555
C19G C18G 1_555 1_555
H8G C19G 1_555 1_555
H9G C20G 1_555 1_555
H10G C21G 1_555 1_555
H11G C22G 1_555 1_555
H12G C23G 1_555 1_555
H13G C24G 1_555 1_555
H14G C25G 1_555 1_555
H15G C27G 1_555 1_555
H16G O3G 1_555 1_555
Al3A_2 O4G 1_555 1_555
H17G O5G 1_555 1_555
Al2A_2 O6G 1_555 1_555
Al3C_2 O8G 1_555 1_555
C28G O10G 1_555 1_555
C29G C28G 1_555 1_555
H18G C29G 1_555 1_555
H19G C29G 1_555 1_555
C30G C29G 1_555 1_555
H20G C30G 1_555 1_555
C31G C30G 1_555 1_555
C33G C30G 1_555 1_555
H21G C31G 1_555 1_555
C32G C31G 1_555 1_555
C35G C31G 1_555 1_555
C34G C33G 1_555 1_555
H22G C33G 1_555 1_555
H23G C33G 1_555 1_555
H24G C34G 1_555 1_555
H25G C35G 1_555 1_555
H26G C35G 1_555 1_555
C36G C35G 1_555 1_555
H27G C36G 1_555 1_555
C37G C36G 1_555 1_555
H28G C37G 1_555 1_555
C38G C37G 1_555 1_555
H29G C38G 1_555 1_555
H30G C38G 1_555 1_555
C39G C38G 1_555 1_555
H31G C39G 1_555 1_555
H32G C39G 1_555 1_555
H33G C39G 1_555 1_555
Al3 O3 1_555 1_555
C14 C20 1_555 1_555
C15 C26 1_555 1_555
C16 C18 1_555 1_555
C17 C27 1_555 1_555
C19 C26 1_555 1_555
C21 C23 1_555 1_555
C22 C25 1_555 1_555
C28 O10 1_555 1_555
C33 C34 1_555 1_555
Al3B O3B 1_555 1_555
C14B C20B 1_555 1_555
C15B C26B 1_555 1_555
C16B C18B 1_555 1_555
C17B C27B 1_555 1_555
C19B C26B 1_555 1_555
C21B C23B 1_555 1_555
C22B C25B 1_555 1_555
O10B Al1B 1_555 1_555
C33B C34B 1_555 1_555
O3F Al3F 1_555 1_555
O3G Al3G 1_555 1_555
O9F C28F 1_555 1_555
C20F C14F 1_555 1_555
C22F C25F 1_555 1_555
C7F C23F 1_555 1_555
C18F C16F 1_555 1_555
C13F C27F 1_555 1_555
C26F C19F 1_555 1_555
C32F C34F 1_555 1_555
O2G C1G 1_555 1_555
O9G C28G 1_555 1_555
C20G C14G 1_555 1_555
C22G C25G 1_555 1_555
C7G C23G 1_555 1_555
C18G C16G 1_555 1_555
C13G C27G 1_555 1_555
C26G C19G 1_555 1_555
C32G C34G 1_555 1_555

#END
