
#######################################################################
#
#                 Cambridge Crystallographic Data Centre
#                                CCDC 
#
#######################################################################
#
# If this CIF has been generated from an entry in the Cambridge 
# Structural Database, then it will include bibliographic, chemical, 
# crystal, experimental, refinement or atomic coordinate data resulting 
# from the CCDC's data processing and validation procedures.
#
#######################################################################

data_FUTYOK
_chemical_formula_moiety         '(C23 H37 N3 O8 Zn1)n'
_symmetry_cell_setting           monoclinic
_symmetry_space_group_name_H-M   'P 21/n'
_symmetry_Int_Tables_number      14
_space_group_name_Hall           '-P 2yn'
loop_
_symmetry_equiv_pos_site_id
_symmetry_equiv_pos_as_xyz
1 x,y,z
2 1/2-x,1/2+y,1/2-z
3 -x,-y,-z
4 1/2+x,1/2-y,1/2+z
_cell_length_a                   9.509(3)
_cell_length_b                   15.180(4)
_cell_length_c                   12.246(3)
_cell_angle_alpha                90
_cell_angle_beta                 93.835(4)
_cell_angle_gamma                90
_cell_volume                     1763.71
loop_
_atom_site_label
_atom_site_type_symbol
_atom_site_fract_x
_atom_site_fract_y
_atom_site_fract_z
Zn1 Zn 0.14215(2) 0.078275(16) 0.447606(19)
O1 O 0.97616(15) 0.07106(10) 0.34236(12)
O2 O 0.31380(16) 0.06654(10) 0.37070(13)
O3 O 0.82106(16) 0.02645(11) 0.45990(14)
O4 O 0.58776(16) 0.32560(11) 0.04185(13)
C1 C 0.5192(2) 0.20645(16) 0.20338(19)
H1 H 0.4469 0.2400 0.1694
C2 C 0.3405(2) 0.13600(15) 0.31792(18)
O5 O 0.25548(17) 0.19676(13) 0.29921(16)
C3 C 0.4880(2) 0.14399(15) 0.28116(18)
C4 C 0.7356(2) 0.10802(15) 0.30724(17)
C5 C 0.5962(2) 0.09459(14) 0.33271(17)
H2 H 0.5757 0.0524 0.3844
C6 C 0.6576(2) 0.21942(16) 0.17573(19)
C7 C 0.8530(2) 0.06370(14) 0.37421(17)
O6 O 0.81628(19) 0.31415(15) 0.08961(18)
C8 C 0.7654(2) 0.16964(15) 0.22781(19)
H3 H 0.8578 0.1776 0.2094
C9 C 0.6919(2) 0.29087(17) 0.0968(2)
Zn1_2 Zn 1.14215(2) 0.078275(16) 0.447606(19)
Zn1B Zn 0.85785(2) -0.078275(16) 0.552394(19)
Zn1C Zn 0.64215(2) 0.421725(16) -0.052394(19)
O1_2 O -0.02384(15) 0.07106(10) 0.34236(12)
O3B O 0.17894(16) -0.02645(11) 0.54010(14)
O4C O 0.08776(16) 0.17440(11) 0.54185(13)
N1 N 0.5723(3) 0.18204(17) 0.7078(2)
H4 H 0.4836 0.1903 0.6792
H5 H 0.6016 0.2330 0.7392
C10 C 0.6632(3) 0.1613(2) 0.6183(3)
H6 H 0.6270 0.1098 0.5788
H7 H 0.7578 0.1480 0.6484
C11 C 0.6677(4) 0.2374(3) 0.5419(3)
H8 H 0.5754 0.2473 0.5075
H9 H 0.7323 0.2249 0.4869
H10 H 0.6983 0.2891 0.5819
C12 C 0.5707(5) 0.1136(2) 0.7933(3)
H11 H 0.6638 0.1079 0.8302
H12 H 0.5448 0.0572 0.7604
C13 C 0.4660(5) 0.1389(3) 0.8743(3)
H13 H 0.4957 0.1926 0.9103
H14 H 0.4603 0.0930 0.9277
H15 H 0.3752 0.1474 0.8368
C14 C 0.0207(5) 0.0961(3) -0.1603(3)
H16 H -0.0628 0.1288 -0.1466
H17 H 0.0223 0.0846 -0.2373
H18 H 0.1024 0.1297 -0.1361
C15 C 0.2282(5) -0.0010(3) -0.0218(3)
H19 H 0.2571 -0.0238 -0.0871
N2 N 0.0689(5) 0.0077(3) 0.0124(3)
C16 C 0.0852(5) 0.0160(3) 0.1177(3)
H20 H 0.0214 0.0587 0.1464
H21 H 0.1817 0.0289 0.1434
C17 C 0.0402(5) -0.0848(3) 0.1404(3)
H22 H -0.0607 -0.0889 0.1385
H23 H 0.0797 -0.1028 0.2110
H24 H 0.0747 -0.1223 0.0851
C18 C 0.0207(5) -0.0024(3) -0.0900(3)
H25 H -0.0746 -0.0255 -0.0920
H26 H 0.0788 -0.0447 -0.1255
O7 O 0.2993(5) 0.0259(3) 0.0491(3)
C14B C -0.0207(5) -0.0961(3) 0.1603(3)
H16B H 0.0628 -0.1288 0.1466
H17B H -0.0223 -0.0846 0.2373
H18B H -0.1024 -0.1297 0.1361
C15B C -0.2282(5) 0.0010(3) 0.0218(3)
H19B H -0.2571 0.0238 0.0871
N2B N -0.0689(5) -0.0077(3) -0.0124(3)
C16B C -0.0852(5) -0.0160(3) -0.1177(3)
H20B H -0.0214 -0.0587 -0.1464
H21B H -0.1817 -0.0289 -0.1434
C17B C -0.0402(5) 0.0848(3) -0.1404(3)
H22B H 0.0607 0.0889 -0.1385
H23B H -0.0797 0.1028 -0.2110
H24B H -0.0747 0.1223 -0.0851
C18B C -0.0207(5) 0.0024(3) 0.0900(3)
H25B H 0.0746 0.0255 0.0920
H26B H -0.0788 0.0447 0.1255
O7B O -0.2993(5) -0.0259(3) -0.0491(3)
loop_
_geom_bond_atom_site_label_1
_geom_bond_atom_site_label_2
_geom_bond_site_symmetry_1
_geom_bond_site_symmetry_2
Zn1 O2 1_555 1_555
O1 C7 1_555 1_555
O2 C2 1_555 1_555
O3 C7 1_555 1_555
O4 C9 1_555 1_555
C1 H1 1_555 1_555
C2 O5 1_555 1_555
C3 C1 1_555 1_555
C4 C5 1_555 1_555
C5 C3 1_555 1_555
H2 C5 1_555 1_555
C6 C1 1_555 1_555
C7 C4 1_555 1_555
O6 C9 1_555 1_555
C8 C4 1_555 1_555
H3 C8 1_555 1_555
C9 C6 1_555 1_555
N1 H4 1_555 1_555
H5 N1 1_555 1_555
C10 N1 1_555 1_555
H6 C10 1_555 1_555
H7 C10 1_555 1_555
C11 C10 1_555 1_555
H8 C11 1_555 1_555
H9 C11 1_555 1_555
H10 C11 1_555 1_555
C12 N1 1_555 1_555
H11 C12 1_555 1_555
H12 C12 1_555 1_555
C13 C12 1_555 1_555
H13 C13 1_555 1_555
H14 C13 1_555 1_555
H15 C13 1_555 1_555
C14 H16 1_555 1_555
H17 C14 1_555 1_555
H18 C14 1_555 1_555
C15 H19 1_555 1_555
N2 C15 1_555 1_555
C16 N2 1_555 1_555
H20 C16 1_555 1_555
H21 C16 1_555 1_555
C17 C16 1_555 1_555
H22 C17 1_555 1_555
H23 C17 1_555 1_555
H24 C17 1_555 1_555
C18 C14 1_555 1_555
H25 C18 1_555 1_555
H26 C18 1_555 1_555
O7 C15 1_555 1_555
Zn1_2 O1 1_555 1_555
Zn1B O3 1_555 1_555
Zn1C O4 1_555 1_555
O1_2 Zn1 1_555 1_555
O3B Zn1 1_555 1_555
O4C Zn1 1_555 1_555
C14B H16B 1_555 1_555
H17B C14B 1_555 1_555
H18B C14B 1_555 1_555
C15B H19B 1_555 1_555
N2B C15B 1_555 1_555
C16B N2B 1_555 1_555
H20B C16B 1_555 1_555
H21B C16B 1_555 1_555
C17B C16B 1_555 1_555
H22B C17B 1_555 1_555
H23B C17B 1_555 1_555
H24B C17B 1_555 1_555
C18B C14B 1_555 1_555
H25B C18B 1_555 1_555
H26B C18B 1_555 1_555
O7B C15B 1_555 1_555
C2 C3 1_555 1_555
C6 C8 1_555 1_555
N2 C18 1_555 1_555
N2B C18B 1_555 1_555

#END
