
#######################################################################
#
#                 Cambridge Crystallographic Data Centre
#                                CCDC 
#
#######################################################################
#
# If this CIF has been generated from an entry in the Cambridge 
# Structural Database, then it will include bibliographic, chemical, 
# crystal, experimental, refinement or atomic coordinate data resulting 
# from the CCDC's data processing and validation procedures.
#
#######################################################################

data_FUTZIF
_chemical_formula_moiety         '(C48 H56 N2 O20 Zn4)n'
_symmetry_cell_setting           monoclinic
_symmetry_space_group_name_H-M   'C 2/c'
_symmetry_Int_Tables_number      15
_space_group_name_Hall           '-C 2yc'
loop_
_symmetry_equiv_pos_site_id
_symmetry_equiv_pos_as_xyz
1 x,y,z
2 -x,y,1/2-z
3 1/2+x,1/2+y,z
4 1/2-x,1/2+y,1/2-z
5 -x,-y,-z
6 x,-y,1/2+z
7 1/2-x,1/2-y,-z
8 1/2+x,1/2-y,1/2+z
_cell_length_a                   33.843(12)
_cell_length_b                   9.954(3)
_cell_length_c                   35.817(12)
_cell_angle_alpha                90
_cell_angle_beta                 106.562(5)
_cell_angle_gamma                90
_cell_volume                     11565.2
loop_
_atom_site_label
_atom_site_type_symbol
_atom_site_fract_x
_atom_site_fract_y
_atom_site_fract_z
Zn1 Zn -0.12732(5) 0.43594(15) 0.14406(5)
Zn2 Zn -0.13890(5) 0.67895(16) 0.07371(5)
Zn3 Zn 0.09273(5) 0.99573(15) 0.12875(5)
Zn4 Zn 0.16658(6) 0.75199(18) 0.15989(6)
O1 O -0.1252(6) 0.2325(18) 0.1455(9)
O2 O -0.2000(3) 0.8225(10) 0.0434(3)
O3 O -0.1426(3) 0.7838(10) 0.0276(3)
O4 O -0.0795(3) 0.4351(10) 0.1224(3)
O5 O -0.0808(3) 0.6228(9) 0.0875(3)
O6 O -0.1414(4) -0.2488(11) 0.1236(3)
O7 O -0.1191(3) -0.3933(9) 0.1741(3)
O8 O -0.3225(3) 0.9746(10) -0.0618(3)
O9 O -0.3149(3) 1.0514(12) -0.1168(4)
O10 O 0.0604(3) 0.8266(9) 0.1194(3)
O11 O 0.1141(3) 0.6903(9) 0.1234(3)
O12 O -0.1120(4) 0.0040(10) 0.3133(3)
O13 O -0.1377(5) -0.2017(12) 0.2991(3)
O14 O -0.1782(5) 1.0794(16) -0.1359(4)
O15 O -0.1229(5) 1.0124(11) -0.0886(4)
O16 O 0.0389(4) 0.1187(11) 0.1117(3)
O17 O 0.0987(4) 0.2142(10) 0.1273(4)
C1 C -0.1235(8) 0.222(3) 0.1731(8)
O18 O -0.1201(6) 0.3144(16) 0.1945(5)
C2 C -0.1281(5) 0.0793(14) 0.1946(5)
C3 C -0.1257(6) 0.0577(15) 0.2342(5)
H1 H -0.1233 0.1311 0.2507
C4 C -0.1269(5) -0.0723(15) 0.2491(5)
C5 C -0.1264(5) -0.1852(14) 0.2247(4)
H2 H -0.1250 -0.2724 0.2343
C6 C -0.1280(5) -0.1614(14) 0.1862(4)
C7 C -0.1285(4) -0.0332(12) 0.1718(4)
H3 H -0.1291 -0.0217 0.1458
C8 C -0.1793(6) 0.8324(15) 0.0200(5)
C9 C -0.1967(5) 0.9059(13) -0.0175(4)
C10 C -0.2367(5) 0.9309(13) -0.0301(4)
H4 H -0.2533 0.9093 -0.0143
C11 C -0.2552(5) 0.9898(14) -0.0673(4)
C12 C -0.2301(5) 1.0288(13) -0.0895(4)
H5 H -0.2410 1.0728 -0.1131
C13 C -0.1876(5) 1.0012(14) -0.0761(4)
C14 C -0.0634(5) 0.5182(13) 0.1056(4)
C15 C -0.1714(5) 0.9400(15) -0.0403(4)
H6 H -0.1434 0.9215 -0.0315
C16 C -0.0191(4) 0.4999(13) 0.1079(4)
C17 C -0.0019(5) 0.3701(12) 0.1096(4)
H7 H -0.0186 0.2948 0.1079
C18 C 0.0394(5) 0.3554(14) 0.1139(4)
C19 C 0.0636(5) 0.4654(11) 0.1157(4)
H8 H 0.0915 0.4544 0.1182
C20 C 0.0475(5) 0.5932(13) 0.1139(4)
C21 C 0.0059(4) 0.6087(13) 0.1095(4)
H9 H -0.0053 0.6947 0.1076
C22 C 0.0766(4) 0.7136(11) 0.1196(4)
C23 C -0.1275(6) -0.0918(15) 0.2898(5)
C24 C -0.1606(8) 1.0366(17) -0.1030(6)
C25 C 0.0610(7) 0.2193(16) 0.1175(4)
C26 C -0.3002(5) 1.0085(15) -0.0827(5)
C27 C -0.1292(5) -0.2777(18) 0.1599(5)
O19 O 0.1999(6) 0.689(2) 0.1239(6)
N1 N 0.2316(6) 0.526(2) 0.0870(6)
C28 C 0.1942(6) 0.587(2) 0.1004(6)
C29 C 0.1625(6) 0.485(2) 0.0882(6)
C30 C 0.1802(6) 0.387(2) 0.0706(6)
C31 C 0.2189(6) 0.431(2) 0.0584(6)
C32 C 0.2744(6) 0.621(2) 0.0972(6)
O20 O 0.2235(10) 0.754(8) 0.2016(11)
Zn1_2 Zn -0.12732(5) -0.56406(15) 0.14406(5)
Zn1F Zn -0.37268(5) 1.06406(15) -0.14406(5)
Zn2_2 Zn -0.13890(5) -0.32105(16) 0.07371(5)
Zn2F Zn -0.36110(5) 0.82105(16) -0.07371(5)
Zn3_2 Zn 0.09273(5) -0.00427(15) 0.12875(5)
Zn3A Zn -0.09273(5) -0.00427(15) 0.37125(5)
Zn3D Zn -0.09273(5) 1.00427(15) -0.12875(5)
Zn4A Zn -0.16658(6) -0.24801(18) 0.34011(6)
Zn4D Zn -0.16658(6) 1.24801(18) -0.15989(6)
O6_2 O -0.1414(4) 0.7512(11) 0.1236(3)
O7_2 O -0.1191(3) 0.6067(9) 0.1741(3)
O8F O -0.1775(3) 0.5254(10) 0.0618(3)
O9F O -0.1851(3) 0.4486(12) 0.1168(4)
O12A O 0.1120(4) 1.0040(10) 0.1867(3)
O13A O 0.1377(5) 0.7983(12) 0.2009(3)
O14D O 0.1782(5) 0.9206(16) 0.1359(4)
O15D O 0.1229(5) 0.9876(11) 0.0886(4)
O16_2 O 0.0389(4) 1.1187(11) 0.1117(3)
O17_2 O 0.0987(4) 1.2142(10) 0.1273(4)
N2 N 0.5000 0.749(3) 0.2500
C33 C 0.4636(7) 0.830(3) 0.2543(5)
H10 H 0.4438 0.7683 0.2598
H11 H 0.4505 0.8724 0.2294
C34 C 0.4734(10) 0.939(3) 0.2858(6)
H12 H 0.4782 0.8956 0.3110
H13 H 0.4988 0.9830 0.2854
C35 C 0.4410(11) 1.044(3) 0.2824(8)
H14 H 0.4357 1.0912 0.2577
H15 H 0.4495 1.1091 0.3034
C36 C 0.4032(11) 0.968(2) 0.2849(7)
H16 H 0.3909 0.9236 0.2606
H17 H 0.3838 1.0293 0.2905
H18 H 0.4111 0.9022 0.3053
C37 C 0.4837(6) 0.660(2) 0.2146(6)
H19 H 0.4628 0.6021 0.2197
H20 H 0.4699 0.7177 0.1930
C38 C 0.5132(7) 0.574(3) 0.2016(7)
H21 H 0.5290 0.6294 0.1889
H22 H 0.5323 0.5331 0.2243
C39 C 0.4929(8) 0.467(3) 0.1747(9)
H23 H 0.4687 0.5049 0.1562
H24 H 0.5115 0.4382 0.1601
C40 C 0.4805(12) 0.353(3) 0.1915(14)
H25 H 0.5043 0.3107 0.2086
H26 H 0.4669 0.2914 0.1713
H27 H 0.4619 0.3795 0.2060
C33A C 0.5364(7) 0.830(3) 0.2457(5)
H10A H 0.5562 0.7683 0.2402
H11A H 0.5495 0.8724 0.2706
C34A C 0.5266(10) 0.939(3) 0.2142(6)
H12A H 0.5218 0.8956 0.1890
H13A H 0.5012 0.9830 0.2146
C35A C 0.5590(11) 1.044(3) 0.2176(8)
H14A H 0.5643 1.0912 0.2423
H15A H 0.5505 1.1091 0.1966
C36A C 0.5968(11) 0.968(2) 0.2151(7)
H16A H 0.6091 0.9236 0.2394
H17A H 0.6162 1.0293 0.2095
H18A H 0.5889 0.9022 0.1947
C37A C 0.5163(6) 0.660(2) 0.2854(6)
H19A H 0.5372 0.6021 0.2803
H20A H 0.5301 0.7177 0.3070
C38A C 0.4868(7) 0.574(3) 0.2984(7)
H21A H 0.4710 0.6294 0.3111
H22A H 0.4677 0.5331 0.2757
C39A C 0.5071(8) 0.467(3) 0.3253(9)
H23A H 0.5313 0.5049 0.3438
H24A H 0.4885 0.4382 0.3399
C40A C 0.5195(12) 0.353(3) 0.3085(14)
H25A H 0.4957 0.3107 0.2914
H26A H 0.5331 0.2914 0.3287
H27A H 0.5381 0.3795 0.2940
loop_
_geom_bond_atom_site_label_1
_geom_bond_atom_site_label_2
_geom_bond_site_symmetry_1
_geom_bond_site_symmetry_2
Zn1 O1 1_555 1_555
Zn2 O2 1_555 1_555
Zn3 O10 1_555 1_555
Zn4 O11 1_555 1_555
O1 C1 1_555 1_555
O2 C8 1_555 1_555
O3 Zn2 1_555 1_555
O4 Zn1 1_555 1_555
O5 Zn2 1_555 1_555
O6 C27 1_555 1_555
O7 C27 1_555 1_555
O8 C26 1_555 1_555
O9 C26 1_555 1_555
O10 C22 1_555 1_555
O11 C22 1_555 1_555
O12 C23 1_555 1_555
O13 C23 1_555 1_555
O14 C24 1_555 1_555
O15 C24 1_555 1_555
O16 C25 1_555 1_555
O17 C25 1_555 1_555
C1 O18 1_555 1_555
O18 Zn1 1_555 1_555
C2 C1 1_555 1_555
C3 C2 1_555 1_555
H1 C3 1_555 1_555
C4 C3 1_555 1_555
C5 C4 1_555 1_555
H2 C5 1_555 1_555
C6 C5 1_555 1_555
C7 C2 1_555 1_555
H3 C7 1_555 1_555
C8 O3 1_555 1_555
C9 C8 1_555 1_555
C10 C9 1_555 1_555
H4 C10 1_555 1_555
C11 C10 1_555 1_555
C12 C11 1_555 1_555
H5 C12 1_555 1_555
C13 C12 1_555 1_555
C14 O4 1_555 1_555
C15 C9 1_555 1_555
H6 C15 1_555 1_555
C16 C14 1_555 1_555
C17 C16 1_555 1_555
H7 C17 1_555 1_555
C18 C17 1_555 1_555
C19 C18 1_555 1_555
H8 C19 1_555 1_555
C20 C19 1_555 1_555
C21 C16 1_555 1_555
H9 C21 1_555 1_555
C22 C20 1_555 1_555
C23 C4 1_555 1_555
C24 C13 1_555 1_555
C25 C18 1_555 1_555
C26 C11 1_555 1_555
C27 C6 1_555 1_555
O19 Zn4 1_555 1_555
N1 C28 1_555 1_555
C28 O19 1_555 1_555
C29 C28 1_555 1_555
C30 C29 1_555 1_555
C31 N1 1_555 1_555
C32 N1 1_555 1_555
O20 Zn4 1_555 1_555
N2 C33 1_555 1_555
C33 H10 1_555 1_555
H11 C33 1_555 1_555
C34 C33 1_555 1_555
H12 C34 1_555 1_555
H13 C34 1_555 1_555
C35 C34 1_555 1_555
H14 C35 1_555 1_555
H15 C35 1_555 1_555
C36 C35 1_555 1_555
H16 C36 1_555 1_555
H17 C36 1_555 1_555
H18 C36 1_555 1_555
C37 N2 1_555 1_555
H19 C37 1_555 1_555
H20 C37 1_555 1_555
C38 C37 1_555 1_555
H21 C38 1_555 1_555
H22 C38 1_555 1_555
C39 C38 1_555 1_555
H23 C39 1_555 1_555
H24 C39 1_555 1_555
C40 C39 1_555 1_555
H25 C40 1_555 1_555
H26 C40 1_555 1_555
H27 C40 1_555 1_555
Zn1_2 O7 1_555 1_555
Zn1F O9 1_555 1_555
Zn2_2 O6 1_555 1_555
Zn2F O8 1_555 1_555
Zn3_2 O16 1_555 1_555
Zn3A O12 1_555 1_555
Zn3D O15 1_555 1_555
Zn4A O13 1_555 1_555
Zn4D O14 1_555 1_555
O6_2 Zn2 1_555 1_555
O7_2 Zn1 1_555 1_555
O8F Zn2 1_555 1_555
O9F Zn1 1_555 1_555
O12A Zn3 1_555 1_555
O13A Zn4 1_555 1_555
O14D Zn4 1_555 1_555
O15D Zn3 1_555 1_555
O16_2 Zn3 1_555 1_555
O17_2 Zn3 1_555 1_555
C33A N2 1_555 1_555
H10A C33A 1_555 1_555
H11A C33A 1_555 1_555
C34A C33A 1_555 1_555
H12A C34A 1_555 1_555
H13A C34A 1_555 1_555
C35A C34A 1_555 1_555
H14A C35A 1_555 1_555
H15A C35A 1_555 1_555
C36A C35A 1_555 1_555
H16A C36A 1_555 1_555
H17A C36A 1_555 1_555
H18A C36A 1_555 1_555
C37A N2 1_555 1_555
H19A C37A 1_555 1_555
H20A C37A 1_555 1_555
C38A C37A 1_555 1_555
H21A C38A 1_555 1_555
H22A C38A 1_555 1_555
C39A C38A 1_555 1_555
H23A C39A 1_555 1_555
H24A C39A 1_555 1_555
C40A C39A 1_555 1_555
H25A C40A 1_555 1_555
H26A C40A 1_555 1_555
H27A C40A 1_555 1_555
O5 C14 1_555 1_555
O17 Zn3_2 1_555 1_555
C6 C7 1_555 1_555
C13 C15 1_555 1_555
C20 C21 1_555 1_555
C30 C31 1_555 1_555

#END
