
#######################################################################
#
#                 Cambridge Crystallographic Data Centre
#                                CCDC 
#
#######################################################################
#
# If this CIF has been generated from an entry in the Cambridge 
# Structural Database, then it will include bibliographic, chemical, 
# crystal, experimental, refinement or atomic coordinate data resulting 
# from the CCDC's data processing and validation procedures.
#
#######################################################################

data_FUTZEB
_chemical_formula_moiety         '(C17 H18 N2 O6 Zn1)n'
_symmetry_cell_setting           monoclinic
_symmetry_space_group_name_H-M   'P 21/n'
_symmetry_Int_Tables_number      14
_space_group_name_Hall           '-P 2yn'
loop_
_symmetry_equiv_pos_site_id
_symmetry_equiv_pos_as_xyz
1 x,y,z
2 1/2-x,1/2+y,1/2-z
3 -x,-y,-z
4 1/2+x,1/2-y,1/2+z
_cell_length_a                   9.2987(14)
_cell_length_b                   16.670(2)
_cell_length_c                   11.4189(17)
_cell_angle_alpha                90
_cell_angle_beta                 108.481(3)
_cell_angle_gamma                90
_cell_volume                     1678.75
loop_
_atom_site_label
_atom_site_type_symbol
_atom_site_fract_x
_atom_site_fract_y
_atom_site_fract_z
Zn1 Zn 0.62127(6) 0.09336(3) 0.95985(5)
C1 C 0.9633(5) -0.0946(3) 1.1836(4)
H1 H 0.9777 -0.0538 1.1330
O1 O 1.2315(4) -0.0915(2) 1.1284(3)
C2 C 0.8223(5) -0.1029(3) 1.2004(4)
O2 O 0.7268(4) 0.0050(2) 1.0684(4)
O3 O 0.5721(4) -0.0532(2) 1.1569(3)
C3 C 0.6966(6) -0.0460(3) 1.1369(5)
C4 C 0.9181(7) -0.2167(3) 1.3317(5)
C5 C 1.2336(6) -0.1355(3) 1.2189(5)
O4 O 0.9920(8) -0.3356(3) 1.4475(5)
C6 C 0.8008(7) -0.1645(3) 1.2745(5)
H2 H 0.7069 -0.1709 1.2861
C7 C 1.0575(7) -0.2069(3) 1.3162(5)
H3 H 1.1366 -0.2412 1.3562
O5 O 0.7735(9) -0.2890(3) 1.4352(6)
C8 C 1.0818(6) -0.1450(3) 1.2399(4)
O6 O 1.3450(5) -0.1716(3) 1.2847(5)
C9 C 0.8923(13) -0.2855(4) 1.4107(6)
Zn1A Zn 0.87873(6) -0.40664(3) 1.54015(5)
Zn1B Zn 0.37873(6) -0.09336(3) 1.04015(5)
Zn1B_2 Zn 1.37873(6) -0.09336(3) 1.04015(5)
O1B O 0.7685(4) 0.0915(2) 0.8716(3)
O3B O 0.4279(4) 0.0532(2) 0.8431(3)
O4A O 0.5080(8) 0.1644(3) 1.0525(5)
O5A O 0.7265(9) 0.2110(3) 1.0648(6)
N1 N -0.7813(12) 0.1296(5) 0.2440(8)
N2 N -0.5712(13) 0.0952(6) 0.3729(10)
C10 C -0.6619(16) 0.0838(6) 0.2562(10)
H4 H -0.6441 0.0506 0.1967
C11 C -0.7472(15) 0.1696(6) 0.3534(11)
H5 H -0.8114 0.2080 0.3688
C12 C -0.6117(19) 0.1494(6) 0.4392(11)
H6 H -0.5640 0.1681 0.5188
C13 C -0.296(2) 0.1097(10) 0.3809(11)
H7 H -0.2812 0.1632 0.4162
H8 H -0.3266 0.1127 0.2915
C14 C -0.9067(16) 0.1402(9) 0.1335(10)
H9 H -0.8987 0.1027 0.0721
H10 H -0.9058 0.1939 0.1034
H11 H -0.9998 0.1311 0.1510
C15 C -0.405(2) 0.0569(10) 0.4291(14)
H12 H -0.3727 0.0575 0.5187
H13 H -0.4041 0.0018 0.4018
C16 C -0.049(3) 0.1025(13) 0.3778(15)
H14 H 0.0514 0.0797 0.4006
H15 H -0.0424 0.1569 0.4064
H16 H -0.0928 0.1014 0.2896
C17 C -0.150(3) 0.0521(10) 0.4385(13)
H17 H -0.1130 0.0529 0.5280
H18 H -0.1668 -0.0025 0.4082
loop_
_geom_bond_atom_site_label_1
_geom_bond_atom_site_label_2
_geom_bond_site_symmetry_1
_geom_bond_site_symmetry_2
Zn1 O2 1_555 1_555
C1 H1 1_555 1_555
O1 C5 1_555 1_555
C2 C1 1_555 1_555
O2 C3 1_555 1_555
O3 C3 1_555 1_555
C3 C2 1_555 1_555
C4 C6 1_555 1_555
C5 C8 1_555 1_555
O4 C9 1_555 1_555
C6 C2 1_555 1_555
H2 C6 1_555 1_555
C7 C4 1_555 1_555
H3 C7 1_555 1_555
O5 C9 1_555 1_555
C8 C1 1_555 1_555
O6 C5 1_555 1_555
C9 C4 1_555 1_555
N1 C10 1_555 1_555
N2 C10 1_555 1_555
C10 H4 1_555 1_555
C11 N1 1_555 1_555
H5 C11 1_555 1_555
C12 N2 1_555 1_555
H6 C12 1_555 1_555
C13 H7 1_555 1_555
H8 C13 1_555 1_555
C14 N1 1_555 1_555
H9 C14 1_555 1_555
H10 C14 1_555 1_555
H11 C14 1_555 1_555
C15 N2 1_555 1_555
H12 C15 1_555 1_555
H13 C15 1_555 1_555
C16 H14 1_555 1_555
H15 C16 1_555 1_555
H16 C16 1_555 1_555
C17 C13 1_555 1_555
H17 C17 1_555 1_555
H18 C17 1_555 1_555
Zn1A O4 1_555 1_555
Zn1B O3 1_555 1_555
Zn1B_2 O1 1_555 1_555
O1B Zn1 1_555 1_555
O3B Zn1 1_555 1_555
O4A Zn1 1_555 1_555
O5A Zn1 1_555 1_555
C7 C8 1_555 1_555
O5 Zn1A 1_555 1_555
C11 C12 1_555 1_555
C13 C15 1_555 1_555
C16 C17 1_555 1_555

#END
