
#######################################################################
#
#                 Cambridge Crystallographic Data Centre
#                                CCDC 
#
#######################################################################
#
# If this CIF has been generated from an entry in the Cambridge 
# Structural Database, then it will include bibliographic, chemical, 
# crystal, experimental, refinement or atomic coordinate data resulting 
# from the CCDC's data processing and validation procedures.
#
#######################################################################

data_FUTZAX
_chemical_formula_moiety         '(C38 H38 N2 O12 Zn2)n'
_symmetry_cell_setting           orthorhombic
_symmetry_space_group_name_H-M   'P n a 21'
_symmetry_Int_Tables_number      33
_space_group_name_Hall           'P 2c -2n'
loop_
_symmetry_equiv_pos_site_id
_symmetry_equiv_pos_as_xyz
1 x,y,z
2 -x,-y,1/2+z
3 1/2+x,1/2-y,z
4 1/2-x,1/2+y,1/2+z
_cell_length_a                   32.407(6)
_cell_length_b                   9.5750(18)
_cell_length_c                   12.193(2)
_cell_angle_alpha                90
_cell_angle_beta                 90
_cell_angle_gamma                90
_cell_volume                     3783.45
loop_
_atom_site_label
_atom_site_type_symbol
_atom_site_fract_x
_atom_site_fract_y
_atom_site_fract_z
Zn1 Zn 0.33180(3) 0.45653(9) 0.39104(8)
Zn2 Zn 0.41776(3) 0.75620(10) 0.43638(9)
O1 O 0.1630(2) 0.7779(7) 0.8162(7)
O2 O 0.1416(2) 0.2764(6) 0.8956(6)
O3 O 0.1723(2) 0.1149(7) 0.7895(5)
O4 O 0.3883(2) 0.4460(6) 0.4483(7)
C1 C 0.2013(3) 0.5987(10) 0.7328(8)
O5 O 0.2909(2) 0.4961(7) 0.5012(6)
O6 O 0.5185(2) 0.4459(9) 0.8373(7)
O7 O 0.4225(2) 0.6053(7) 0.5441(6)
C2 C 0.1867(3) 0.3532(11) 0.7561(8)
C3 C 0.2372(3) 0.4270(10) 0.6236(8)
O8 O 0.4233(2) -0.0551(6) 0.4935(7)
C4 C 0.5222(3) 0.3332(13) 0.7889(9)
C5 C 0.4668(3) 0.3979(10) 0.6545(8)
H1 H 0.4682 0.4887 0.6812
C6 C 0.2297(3) 0.5644(10) 0.6529(8)
H2 H 0.2442 0.6354 0.6179
O9 O 0.4848(3) -0.1060(8) 0.5604(9)
C7 C 0.4877(3) 0.1607(11) 0.6622(9)
H3 H 0.5036 0.0904 0.6937
C8 C 0.4569(4) -0.0229(11) 0.5415(10)
C9 C 0.2149(3) 0.3227(10) 0.6754(8)
H4 H 0.2191 0.2301 0.6550
C10 C 0.1797(3) 0.4908(10) 0.7812(8)
H5 H 0.1596 0.5123 0.8330
C11 C 0.2706(4) 0.3916(13) 0.5395(9)
C12 C 0.4153(3) 0.4803(12) 0.5151(9)
C13 C 0.1644(3) 0.2401(10) 0.8172(9)
C14 C 0.4394(3) 0.3675(10) 0.5703(8)
C15 C 0.4357(3) 0.2310(11) 0.5333(9)
H6 H 0.4169 0.2091 0.4783
O10 O 0.2761(3) 0.2707(8) 0.5153(9)
C16 C 0.4918(3) 0.2963(11) 0.6994(8)
O11 O 0.5500(3) 0.2437(8) 0.8045(6)
C17 C 0.4602(3) 0.1275(10) 0.5785(8)
O12 O 0.2229(3) 0.8329(8) 0.7504(7)
C18 C 0.1956(4) 0.7487(11) 0.7679(9)
Zn1C Zn 0.16820(3) -0.04347(9) 0.89104(8)
Zn1C_2 Zn 0.16820(3) 0.95653(9) 0.89104(8)
Zn2_2 Zn 0.41776(3) -0.24380(10) 0.43638(9)
Zn2A Zn 0.58224(3) 0.24380(10) 0.93638(9)
Zn2C Zn 0.08224(3) 0.25620(10) 0.93638(9)
O1C O 0.3370(2) 0.2779(7) 0.3162(7)
O2C O 0.3584(2) 0.7764(6) 0.3956(6)
O3C O 0.3277(2) 0.6149(7) 0.2895(5)
O8_2 O 0.4233(2) 0.9449(6) 0.4935(7)
O11A O 0.4500(3) 0.7563(8) 0.3045(6)
N1 N 0.4229(3) 0.3354(12) 1.1031(9)
C19 C 0.3083(4) 0.4530(16) 0.8994(13)
H7 H 0.2819 0.4873 0.9132
C20 C 0.4398(4) 0.2632(19) 1.2001(13)
H8 H 0.4492 0.1719 1.1793
H9 H 0.4187 0.2548 1.2550
H10 H 0.4625 0.3160 1.2290
C21 C 0.3289(5) 0.3896(16) 0.9810(12)
H11 H 0.3185 0.3885 1.0521
C22 C 0.3243(5) 0.4687(17) 0.7987(12)
H12 H 0.3104 0.5206 0.7460
C23 C 0.4004(4) 0.4664(14) 1.1412(13)
H13 H 0.3918 0.5198 1.0785
H14 H 0.4185 0.5217 1.1857
H15 H 0.3766 0.4403 1.1834
C24 C 0.4574(4) 0.3726(15) 1.0278(11)
H16 H 0.4665 0.2905 0.9898
H17 H 0.4798 0.4108 1.0695
H18 H 0.4480 0.4406 0.9756
C25 C 0.3923(4) 0.2422(14) 1.0457(11)
H19 H 0.3735 0.2031 1.0992
H20 H 0.4069 0.1656 1.0110
C26 C 0.3670(5) 0.3245(17) 0.9560(12)
C27 C 0.3591(5) 0.4116(17) 0.7754(13)
H21 H 0.3696 0.4231 0.7050
C28 C 0.3818(5) 0.3337(18) 0.8500(11)
H22 H 0.4061 0.2892 0.8294
N2 N 0.3168(3) -0.0191(10) 0.6787(9)
C29 C 0.3313(4) -0.1596(12) 0.7217(10)
H23 H 0.3073 -0.2108 0.7471
H24 H 0.3430 -0.2116 0.6608
C30 C 0.3616(5) -0.158(2) 0.8101(13)
C31 C 0.2889(4) -0.0472(12) 0.5843(10)
H25 H 0.2821 0.0392 0.5487
H26 H 0.2641 -0.0910 0.6103
H27 H 0.3024 -0.1080 0.5331
C32 C 0.3507(4) -0.1579(17) 0.9201(12)
H28 H 0.3228 -0.1574 0.9382
C33 C 0.2960(3) 0.0605(12) 0.7645(11)
H29 H 0.2870 0.1486 0.7354
H30 H 0.3147 0.0762 0.8243
H31 H 0.2725 0.0089 0.7903
C34 C 0.3528(4) 0.0677(13) 0.6383(13)
H32 H 0.3433 0.1592 0.6186
H33 H 0.3650 0.0237 0.5753
H34 H 0.3731 0.0754 0.6954
C35 C 0.4320(5) -0.1655(17) 0.8690(13)
H35 H 0.4599 -0.1704 0.8522
C36 C 0.4040(4) -0.1653(17) 0.7855(13)
H36 H 0.4128 -0.1699 0.7130
C37 C 0.4202(4) -0.1585(17) 0.9771(12)
H37 H 0.4400 -0.1538 1.0322
C38 C 0.3791(4) -0.1585(17) 1.0032(12)
H38 H 0.3707 -0.1588 1.0761
loop_
_geom_bond_atom_site_label_1
_geom_bond_atom_site_label_2
_geom_bond_site_symmetry_1
_geom_bond_site_symmetry_2
Zn1 O4 1_555 1_555
Zn2 O7 1_555 1_555
O1 C18 1_555 1_555
O2 C13 1_555 1_555
O3 C13 1_555 1_555
O4 C12 1_555 1_555
C1 C6 1_555 1_555
O5 Zn1 1_555 1_555
O6 C4 1_555 1_555
O7 C12 1_555 1_555
C2 C9 1_555 1_555
C3 C6 1_555 1_555
O8 C8 1_555 1_555
C4 C16 1_555 1_555
C5 H1 1_555 1_555
C6 H2 1_555 1_555
O9 C8 1_555 1_555
C7 H3 1_555 1_555
C8 C17 1_555 1_555
C9 C3 1_555 1_555
H4 C9 1_555 1_555
C10 C1 1_555 1_555
H5 C10 1_555 1_555
C11 O5 1_555 1_555
C12 C14 1_555 1_555
C13 C2 1_555 1_555
C14 C5 1_555 1_555
C15 C14 1_555 1_555
H6 C15 1_555 1_555
O10 C11 1_555 1_555
C16 C5 1_555 1_555
O11 C4 1_555 1_555
C17 C7 1_555 1_555
O12 C18 1_555 1_555
C18 C1 1_555 1_555
N1 C20 1_555 1_555
C19 H7 1_555 1_555
C20 H8 1_555 1_555
H9 C20 1_555 1_555
H10 C20 1_555 1_555
C21 C19 1_555 1_555
H11 C21 1_555 1_555
C22 C19 1_555 1_555
H12 C22 1_555 1_555
C23 N1 1_555 1_555
H13 C23 1_555 1_555
H14 C23 1_555 1_555
H15 C23 1_555 1_555
C24 N1 1_555 1_555
H16 C24 1_555 1_555
H17 C24 1_555 1_555
H18 C24 1_555 1_555
C25 N1 1_555 1_555
H19 C25 1_555 1_555
H20 C25 1_555 1_555
C26 C21 1_555 1_555
C27 C22 1_555 1_555
H21 C27 1_555 1_555
C28 C26 1_555 1_555
H22 C28 1_555 1_555
N2 C29 1_555 1_555
C29 H23 1_555 1_555
H24 C29 1_555 1_555
C30 C29 1_555 1_555
C31 N2 1_555 1_555
H25 C31 1_555 1_555
H26 C31 1_555 1_555
H27 C31 1_555 1_555
C32 C30 1_555 1_555
H28 C32 1_555 1_555
C33 N2 1_555 1_555
H29 C33 1_555 1_555
H30 C33 1_555 1_555
H31 C33 1_555 1_555
C34 N2 1_555 1_555
H32 C34 1_555 1_555
H33 C34 1_555 1_555
H34 C34 1_555 1_555
C35 H35 1_555 1_555
C36 C30 1_555 1_555
H36 C36 1_555 1_555
C37 C35 1_555 1_555
H37 C37 1_555 1_555
C38 C32 1_555 1_555
H38 C38 1_555 1_555
Zn1C O3 1_555 1_555
Zn1C_2 O1 1_555 1_555
Zn2_2 O8 1_555 1_555
Zn2A O11 1_555 1_555
Zn2C O2 1_555 1_555
O1C Zn1 1_555 1_555
O2C Zn2 1_555 1_555
O3C Zn1 1_555 1_555
O8_2 Zn2 1_555 1_555
O11A Zn2 1_555 1_555
C2 C10 1_555 1_555
C3 C11 1_555 1_555
C7 C16 1_555 1_555
C15 C17 1_555 1_555
C25 C26 1_555 1_555
C27 C28 1_555 1_555
C35 C36 1_555 1_555
C37 C38 1_555 1_555

#END
