
#######################################################################
#
#                 Cambridge Crystallographic Data Centre
#                                CCDC 
#
#######################################################################
#
# If this CIF has been generated from an entry in the Cambridge 
# Structural Database, then it will include bibliographic, chemical, 
# crystal, experimental, refinement or atomic coordinate data resulting 
# from the CCDC's data processing and validation procedures.
#
#######################################################################

data_FUVBAB
_chemical_formula_moiety         '(C17 H23 N1 O6 Zn1)n'
_symmetry_cell_setting           monoclinic
_symmetry_space_group_name_H-M   'P 21/c'
_symmetry_Int_Tables_number      14
_space_group_name_Hall           '-P 2ybc'
loop_
_symmetry_equiv_pos_site_id
_symmetry_equiv_pos_as_xyz
1 x,y,z
2 -x,1/2+y,1/2-z
3 -x,-y,-z
4 x,1/2-y,1/2+z
_cell_length_a                   9.488(6)
_cell_length_b                   12.562(9)
_cell_length_c                   15.477(10)
_cell_angle_alpha                90
_cell_angle_beta                 106.099(10)
_cell_angle_gamma                90
_cell_volume                     1772.34
loop_
_atom_site_label
_atom_site_type_symbol
_atom_site_fract_x
_atom_site_fract_y
_atom_site_fract_z
Zn1 Zn 0.68389(6) 0.05301(5) 0.08518(4)
O1 O 0.6700(4) -0.0518(3) -0.0114(3)
O2 O 0.7411(4) -0.4687(3) -0.3064(3)
O3 O 0.5188(4) -0.4428(3) -0.2860(3)
O4 O 0.4740(4) -0.1553(3) -0.0702(2)
O5 O 1.1336(4) -0.1146(3) -0.0723(2)
C1 C 0.6082(6) -0.1305(4) -0.0541(4)
O6 O 1.1545(4) -0.2397(3) -0.1692(3)
C2 C 0.6388(6) -0.2832(4) -0.1533(3)
H1 H 0.5407 -0.3005 -0.1612
C3 C 0.7015(6) -0.2018(4) -0.0953(3)
C4 C 0.8486(6) -0.1767(4) -0.0815(4)
H2 H 0.8915 -0.1236 -0.0409
C5 C 0.7205(6) -0.3394(4) -0.1998(4)
C6 C 0.6516(6) -0.4236(5) -0.2690(4)
C7 C 0.8667(6) -0.3119(4) -0.1866(4)
H3 H 0.9223 -0.3487 -0.2177
C8 C 0.9318(6) -0.2309(4) -0.1284(4)
C9 C 1.0859(6) -0.1943(5) -0.1228(4)
Zn1B Zn 0.31611(6) -0.05301(5) -0.08518(4)
Zn1B_2 Zn 1.31611(6) -0.05301(5) -0.08518(4)
Zn1C Zn 0.68389(6) -0.55301(5) -0.41482(4)
O2C O 0.7411(4) -0.0313(3) 0.1936(3)
O4B O 0.5260(4) 0.1553(3) 0.0702(2)
O5B O 0.8664(4) 0.1146(3) 0.0723(2)
N1 N 0.2493(5) -0.1342(4) 0.2186(3)
H4 H 0.2463 -0.1700 0.2684
H5 H 0.3401 -0.1073 0.2276
C10 C 0.1428(8) -0.0479(6) 0.2023(5)
H6 H 0.0444 -0.0768 0.1815
H7 H 0.1584 -0.0013 0.1558
C11 C 0.2934(10) 0.1471(6) 0.3995(5)
H8 H 0.3873 0.1809 0.4215
H9 H 0.2698 0.1098 0.4479
H10 H 0.2199 0.2001 0.3759
C12 C 0.1579(8) 0.0143(6) 0.2867(5)
H11 H 0.0802 0.0671 0.2746
H12 H 0.1406 -0.0339 0.3316
C13 C 0.3238(9) -0.3014(6) 0.1505(6)
H13 H 0.3238 -0.3389 0.2053
H14 H 0.4210 -0.2717 0.1585
C14 C 0.2920(9) -0.3815(7) 0.0722(5)
H15 H 0.3024 -0.3460 0.0186
H16 H 0.3638 -0.4385 0.0867
C15 C 0.2983(8) 0.0701(7) 0.3269(5)
H17 H 0.3266 0.1080 0.2798
H18 H 0.3735 0.0174 0.3515
C16 C 0.2147(9) -0.2122(6) 0.1362(5)
H19 H 0.1171 -0.2414 0.1270
H20 H 0.2164 -0.1730 0.0825
C17 C 0.1442(11) -0.4274(7) 0.0533(7)
H21 H 0.1283 -0.4752 0.0031
H22 H 0.0727 -0.3713 0.0393
H23 H 0.1350 -0.4656 0.1051
loop_
_geom_bond_atom_site_label_1
_geom_bond_atom_site_label_2
_geom_bond_site_symmetry_1
_geom_bond_site_symmetry_2
Zn1 O1 1_555 1_555
O1 C1 1_555 1_555
O2 C6 1_555 1_555
O3 C6 1_555 1_555
O4 C1 1_555 1_555
O5 C9 1_555 1_555
C1 C3 1_555 1_555
O6 C9 1_555 1_555
C2 H1 1_555 1_555
C3 C2 1_555 1_555
C4 C3 1_555 1_555
H2 C4 1_555 1_555
C5 C2 1_555 1_555
C6 C5 1_555 1_555
C7 C5 1_555 1_555
H3 C7 1_555 1_555
C8 C4 1_555 1_555
C9 C8 1_555 1_555
N1 H4 1_555 1_555
H5 N1 1_555 1_555
C10 N1 1_555 1_555
H6 C10 1_555 1_555
H7 C10 1_555 1_555
C11 H8 1_555 1_555
H9 C11 1_555 1_555
H10 C11 1_555 1_555
C12 C10 1_555 1_555
H11 C12 1_555 1_555
H12 C12 1_555 1_555
C13 H13 1_555 1_555
H14 C13 1_555 1_555
C14 C13 1_555 1_555
H15 C14 1_555 1_555
H16 C14 1_555 1_555
C15 C11 1_555 1_555
H17 C15 1_555 1_555
H18 C15 1_555 1_555
C16 N1 1_555 1_555
H19 C16 1_555 1_555
H20 C16 1_555 1_555
C17 C14 1_555 1_555
H21 C17 1_555 1_555
H22 C17 1_555 1_555
H23 C17 1_555 1_555
Zn1B O4 1_555 1_555
Zn1B_2 O5 1_555 1_555
Zn1C O2 1_555 1_555
O2C Zn1 1_555 1_555
O4B Zn1 1_555 1_555
O5B Zn1 1_555 1_555
C7 C8 1_555 1_555
C12 C15 1_555 1_555
C13 C16 1_555 1_555

#END
