
#######################################################################
#
#                 Cambridge Crystallographic Data Centre
#                                CCDC 
#
#######################################################################
#
# If this CIF has been generated from an entry in the Cambridge 
# Structural Database, then it will include bibliographic, chemical, 
# crystal, experimental, refinement or atomic coordinate data resulting 
# from the CCDC's data processing and validation procedures.
#
#######################################################################

data_NANYUX03
_chemical_formula_moiety         '(C14 H18 N2 O7 Zn1)n'
_symmetry_cell_setting           monoclinic
_symmetry_space_group_name_H-M   'P 21/n'
_symmetry_Int_Tables_number      14
_space_group_name_Hall           '-P 2yn'
loop_
_symmetry_equiv_pos_site_id
_symmetry_equiv_pos_as_xyz
1 x,y,z
2 1/2-x,1/2+y,1/2-z
3 -x,-y,-z
4 1/2+x,1/2-y,1/2+z
_cell_length_a                   9.4299(13)
_cell_length_b                   16.490(2)
_cell_length_c                   11.2803(15)
_cell_angle_alpha                90
_cell_angle_beta                 97.731(2)
_cell_angle_gamma                90
_cell_volume                     1738.13
loop_
_atom_site_label
_atom_site_type_symbol
_atom_site_fract_x
_atom_site_fract_y
_atom_site_fract_z
Zn1 Zn 0.366629(19) 0.077543(11) 1.049117(17)
O1 O 0.70782(12) 0.42033(7) 0.64209(11)
O2 O 0.42611(13) 0.16307(8) 0.94959(12)
O3 O 0.19357(14) 0.19128(9) 0.91002(13)
O4 O 0.76876(13) 0.29717(8) 0.71263(12)
O5 O 0.04506(12) 0.43598(7) 0.66162(11)
O6 O 0.19979(13) 0.47992(8) 0.54118(11)
C1 C 0.31931(19) 0.20450(11) 0.89944(16)
C2 C 0.35723(18) 0.27321(11) 0.82068(16)
C3 C 0.49738(18) 0.28345(11) 0.79720(15)
H1 H 0.5690 0.2492 0.8330
C4 C 0.53114(18) 0.34459(10) 0.72043(15)
C5 C 0.42349(18) 0.39558(10) 0.66719(15)
H2 H 0.4455 0.4366 0.6161
C6 C 0.28256(17) 0.38561(10) 0.68989(15)
C7 C 0.25010(18) 0.32461(11) 0.76714(15)
H3 H 0.1565 0.3181 0.7831
C8 C 0.68085(18) 0.35312(10) 0.69043(15)
C9 C 0.16661(18) 0.43820(10) 0.62652(15)
Zn1A Zn 0.133371(19) 0.577543(11) 0.450883(17)
Zn1C Zn -0.133371(19) 0.422457(11) 0.549117(17)
Zn1C_2 Zn 0.866629(19) 0.422457(11) 0.549117(17)
O1C O 0.20782(12) 0.07967(7) 1.14209(11)
O5C O 0.54506(12) 0.06402(7) 1.16162(11)
O6A O 0.30021(13) -0.02008(8) 0.95882(11)
O7 O 0.69192(18) 1.02475(10) 0.56168(15)
N1 N 0.62393(19) 0.90088(11) 0.48731(16)
C10 C 0.6433(2) 0.95580(14) 0.5732(2)
H4 H 0.6188 0.9417 0.6477
C11 C 0.5581(3) 0.82308(14) 0.5062(2)
H5 H 0.5498 0.8167 0.5896
H6 H 0.6163 0.7803 0.4811
H7 H 0.4646 0.8209 0.4604
C12 C 0.6508(3) 0.91943(15) 0.3666(2)
H8 H 0.5618 0.9204 0.3142
H9 H 0.7121 0.8787 0.3401
H10 H 0.6964 0.9715 0.3658
N2 N 0.16527(19) 0.86300(11) 0.29074(16)
H11 H 0.2289 0.8966 0.3321
H12 H 0.2002 0.8122 0.2997
C13 C 0.0290(3) 0.86732(17) 0.3409(2)
H13 H -0.0043 0.9224 0.3385
H14 H 0.0433 0.8487 0.4222
H15 H -0.0409 0.8337 0.2945
C14 C 0.1493(3) 0.88506(14) 0.1633(2)
H16 H 0.0783 0.8510 0.1193
H17 H 0.2392 0.8779 0.1335
H18 H 0.1201 0.9407 0.1540
loop_
_geom_bond_atom_site_label_1
_geom_bond_atom_site_label_2
_geom_bond_site_symmetry_1
_geom_bond_site_symmetry_2
Zn1 O2 1_555 1_555
O1 C8 1_555 1_555
O2 C1 1_555 1_555
O3 C1 1_555 1_555
O4 C8 1_555 1_555
O5 C9 1_555 1_555
O6 C9 1_555 1_555
C1 C2 1_555 1_555
C2 C3 1_555 1_555
C3 H1 1_555 1_555
C4 C3 1_555 1_555
C5 C4 1_555 1_555
H2 C5 1_555 1_555
C6 C5 1_555 1_555
C7 C2 1_555 1_555
H3 C7 1_555 1_555
C8 C4 1_555 1_555
C9 C6 1_555 1_555
O7 C10 1_555 1_555
N1 C10 1_555 1_555
C10 H4 1_555 1_555
C11 N1 1_555 1_555
H5 C11 1_555 1_555
H6 C11 1_555 1_555
H7 C11 1_555 1_555
C12 N1 1_555 1_555
H8 C12 1_555 1_555
H9 C12 1_555 1_555
H10 C12 1_555 1_555
N2 H11 1_555 1_555
H12 N2 1_555 1_555
C13 N2 1_555 1_555
H13 C13 1_555 1_555
H14 C13 1_555 1_555
H15 C13 1_555 1_555
C14 N2 1_555 1_555
H16 C14 1_555 1_555
H17 C14 1_555 1_555
H18 C14 1_555 1_555
Zn1A O6 1_555 1_555
Zn1C O5 1_555 1_555
Zn1C_2 O1 1_555 1_555
O1C Zn1 1_555 1_555
O5C Zn1 1_555 1_555
O6A Zn1 1_555 1_555
C6 C7 1_555 1_555

#END
