
#######################################################################
#
#                 Cambridge Crystallographic Data Centre
#                                CCDC 
#
#######################################################################
#
# If this CIF has been generated from an entry in the Cambridge 
# Structural Database, then it will include bibliographic, chemical, 
# crystal, experimental, refinement or atomic coordinate data resulting 
# from the CCDC's data processing and validation procedures.
#
#######################################################################

data_HOVQAM
_chemical_formula_moiety         'C43 H40 Co4 N9 O4'
_symmetry_cell_setting           cubic
_symmetry_space_group_name_H-M   'P n -3'
_symmetry_Int_Tables_number      201
_space_group_name_Hall           '-P 2ab 2bc 3'
loop_
_symmetry_equiv_pos_site_id
_symmetry_equiv_pos_as_xyz
1 x,y,z
2 y,z,x
3 z,x,y
4 y,1/2-z,1/2-x
5 z,1/2-x,1/2-y
6 1/2-z,x,1/2-y
7 1/2-x,y,1/2-z
8 1/2-y,z,1/2-x
9 x,1/2-y,1/2-z
10 1/2-x,1/2-y,z
11 1/2-y,1/2-z,x
12 1/2-z,1/2-x,y
13 -x,-y,-z
14 -y,-z,-x
15 -z,-x,-y
16 -y,1/2+z,1/2+x
17 -z,1/2+x,1/2+y
18 1/2+z,-x,1/2+y
19 1/2+x,-y,1/2+z
20 1/2+y,-z,1/2+x
21 -x,1/2+y,1/2+z
22 1/2+x,1/2+y,-z
23 1/2+y,1/2+z,-x
24 1/2+z,1/2+x,-y
_cell_length_a                   19.3184(18)
_cell_length_b                   19.3184(18)
_cell_length_c                   19.3184(18)
_cell_angle_alpha                90
_cell_angle_beta                 90
_cell_angle_gamma                90
_cell_volume                     7209.64
loop_
_atom_site_label
_atom_site_type_symbol
_atom_site_fract_x
_atom_site_fract_y
_atom_site_fract_z
O1 O 0.3797(7) 0.3767(6) 0.2291(8)
C8 C 0.4098(14) 0.4150(15) 0.2781(14)
H6 H 0.3922 0.4625 0.2757
H7 H 0.4600 0.4151 0.2710
H8 H 0.3992 0.3954 0.3237
O2 O 0.6340(11) 0.5237(11) 0.2990(14)
O3 O 0.6524(15) 0.6745(17) 0.2469(12)
O4 O 0.4600(17) 0.4466(16) 0.3588(17)
Co1 Co 0.5000 0.5000 0.0000
N1 N 0.45636(19) 0.5328(2) 0.0965(2)
C1 C 0.3124(3) 0.5586(3) 0.2149(3)
C2 C 0.2520(4) 0.5604(5) 0.1799(3)
H1 H 0.2527 0.5623 0.1308
C3 C 0.1869(4) 0.5597(5) 0.2154(3)
H2 H 0.1445 0.5599 0.1905
C4 C 0.3884(3) 0.5275(3) 0.1134(3)
H3 H 0.3536 0.5073 0.0851
C5 C 0.4858(3) 0.5625(4) 0.1493(3)
H4 H 0.5339 0.5722 0.1524
C6 C 0.4385(3) 0.5782(4) 0.1998(3)
H5 H 0.4475 0.6007 0.2426
C7 C 0.3778(3) 0.5557(3) 0.1770(2)
N1F N 0.04364(19) 0.5328(2) 0.4035(2)
C1F C 0.1876(3) 0.5586(3) 0.2851(3)
C2F C 0.2480(4) 0.5604(5) 0.3201(3)
H1F H 0.2473 0.5623 0.3692
C3F C 0.3131(4) 0.5597(5) 0.2846(3)
H2F H 0.3555 0.5599 0.3095
C4F C 0.1116(3) 0.5275(3) 0.3866(3)
H3F H 0.1464 0.5073 0.4149
C5F C 0.0142(3) 0.5625(4) 0.3507(3)
H4F H -0.0339 0.5722 0.3476
C6F C 0.0615(3) 0.5782(4) 0.3002(3)
H5F H 0.0525 0.6007 0.2574
C7F C 0.1222(3) 0.5557(3) 0.3230(2)
N1A N 0.5328(2) 0.0965(2) 0.45636(19)
C1A C 0.5586(3) 0.2149(3) 0.3124(3)
C2A C 0.5604(5) 0.1799(3) 0.2520(4)
H1A H 0.5623 0.1308 0.2527
C3A C 0.5597(5) 0.2154(3) 0.1869(4)
H2A H 0.5599 0.1905 0.1445
C4A C 0.5275(3) 0.1134(3) 0.3884(3)
H3A H 0.5073 0.0851 0.3536
C5A C 0.5625(4) 0.1493(3) 0.4858(3)
H4A H 0.5722 0.1524 0.5339
C6A C 0.5782(4) 0.1998(3) 0.4385(3)
H5A H 0.6007 0.2426 0.4475
C7A C 0.5557(3) 0.1770(2) 0.3778(3)
N1C N 0.5328(2) 0.4035(2) 0.04364(19)
C1C C 0.5586(3) 0.2851(3) 0.1876(3)
C2C C 0.5604(5) 0.3201(3) 0.2480(4)
H1C H 0.5623 0.3692 0.2473
C3C C 0.5597(5) 0.2846(3) 0.3131(4)
H2C H 0.5599 0.3095 0.3555
C4C C 0.5275(3) 0.3866(3) 0.1116(3)
H3C H 0.5073 0.4149 0.1464
C5C C 0.5625(4) 0.3507(3) 0.0142(3)
H4C H 0.5722 0.3476 -0.0339
C6C C 0.5782(4) 0.3002(3) 0.0615(3)
H5C H 0.6007 0.2574 0.0525
C7C C 0.5557(3) 0.3230(2) 0.1222(3)
N1E N 0.4035(2) 0.45636(19) -0.0328(2)
C1E C 0.2851(3) 0.3124(3) -0.0586(3)
C2E C 0.3201(3) 0.2520(4) -0.0604(5)
H1E H 0.3692 0.2527 -0.0623
C3E C 0.2846(3) 0.1869(4) -0.0597(5)
H2E H 0.3095 0.1445 -0.0599
C4E C 0.3866(3) 0.3884(3) -0.0275(3)
H3E H 0.4149 0.3536 -0.0073
C5E C 0.3507(3) 0.4858(3) -0.0625(4)
H4E H 0.3476 0.5339 -0.0722
C6E C 0.3002(3) 0.4385(3) -0.0782(4)
H5E H 0.2574 0.4475 -0.1007
C7E C 0.3230(2) 0.3778(3) -0.0557(3)
N1D N 0.0965(2) 0.04364(19) -0.0328(2)
C1D C 0.2149(3) 0.1876(3) -0.0586(3)
C2D C 0.1799(3) 0.2480(4) -0.0604(5)
H1D H 0.1308 0.2473 -0.0623
C3D C 0.2154(3) 0.3131(4) -0.0597(5)
H2D H 0.1905 0.3555 -0.0599
C4D C 0.1134(3) 0.1116(3) -0.0275(3)
H3D H 0.0851 0.1464 -0.0073
C5D C 0.1493(3) 0.0142(3) -0.0625(4)
H4D H 0.1524 -0.0339 -0.0722
C6D C 0.1998(3) 0.0615(3) -0.0782(4)
H5D H 0.2426 0.0525 -0.1007
C7D C 0.1770(2) 0.1222(3) -0.0557(3)
Co1A Co 0.5000 0.0000 0.5000
Co1B Co 0.0000 0.5000 0.5000
Co1U Co 0.0000 0.0000 0.0000
N1L N 0.54364(19) 0.4672(2) -0.0965(2)
N1O N 0.4672(2) 0.5965(2) -0.04364(19)
N1Q N 0.5965(2) 0.54364(19) 0.0328(2)
loop_
_geom_bond_atom_site_label_1
_geom_bond_atom_site_label_2
_geom_bond_site_symmetry_1
_geom_bond_site_symmetry_2
Co1 N1 1_555 1_555
N1 C4 1_555 1_555
C1 C2 1_555 1_555
C2 H1 1_555 1_555
C3 C2 1_555 1_555
H2 C3 1_555 1_555
C4 H3 1_555 1_555
C5 N1 1_555 1_555
H4 C5 1_555 1_555
C6 C5 1_555 1_555
H5 C6 1_555 1_555
C7 C1 1_555 1_555
O1 C8 1_555 1_555
C8 H6 1_555 1_555
H7 C8 1_555 1_555
H8 C8 1_555 1_555
N1F C4F 1_555 1_555
C1F C3 1_555 1_555
C2F C1F 1_555 1_555
H1F C2F 1_555 1_555
C3F C1 1_555 1_555
H2F C3F 1_555 1_555
C4F H3F 1_555 1_555
C5F N1F 1_555 1_555
H4F C5F 1_555 1_555
C6F C5F 1_555 1_555
H5F C6F 1_555 1_555
C7F C1F 1_555 1_555
N1A C4A 1_555 1_555
C1A C2A 1_555 1_555
C2A H1A 1_555 1_555
C3A C2A 1_555 1_555
H2A C3A 1_555 1_555
C4A H3A 1_555 1_555
C5A N1A 1_555 1_555
H4A C5A 1_555 1_555
C6A C5A 1_555 1_555
H5A C6A 1_555 1_555
C7A C1A 1_555 1_555
N1C Co1 1_555 1_555
C1C C3A 1_555 1_555
C2C C1C 1_555 1_555
H1C C2C 1_555 1_555
C3C C1A 1_555 1_555
H2C C3C 1_555 1_555
C4C N1C 1_555 1_555
H3C C4C 1_555 1_555
C5C N1C 1_555 1_555
H4C C5C 1_555 1_555
C6C C5C 1_555 1_555
H5C C6C 1_555 1_555
C7C C1C 1_555 1_555
N1E Co1 1_555 1_555
C1E C2E 1_555 1_555
C2E H1E 1_555 1_555
C3E C2E 1_555 1_555
H2E C3E 1_555 1_555
C4E N1E 1_555 1_555
H3E C4E 1_555 1_555
C5E N1E 1_555 1_555
H4E C5E 1_555 1_555
C6E C5E 1_555 1_555
H5E C6E 1_555 1_555
C7E C1E 1_555 1_555
N1D C4D 1_555 1_555
C1D C3E 1_555 1_555
C2D C1D 1_555 1_555
H1D C2D 1_555 1_555
C3D C1E 1_555 1_555
H2D C3D 1_555 1_555
C4D H3D 1_555 1_555
C5D N1D 1_555 1_555
H4D C5D 1_555 1_555
C6D C5D 1_555 1_555
H5D C6D 1_555 1_555
C7D C1D 1_555 1_555
Co1A N1A 1_555 1_555
Co1B N1F 1_555 1_555
Co1U N1D 1_555 1_555
N1L Co1 1_555 1_555
N1O Co1 1_555 1_555
N1Q Co1 1_555 1_555
C4 C7 1_555 1_555
C6 C7 1_555 1_555
C2F C3F 1_555 1_555
C4F C7F 1_555 1_555
C6F C7F 1_555 1_555
C4A C7A 1_555 1_555
C6A C7A 1_555 1_555
C2C C3C 1_555 1_555
C4C C7C 1_555 1_555
C6C C7C 1_555 1_555
C4E C7E 1_555 1_555
C6E C7E 1_555 1_555
C2D C3D 1_555 1_555
C4D C7D 1_555 1_555
C6D C7D 1_555 1_555

#END
