
#######################################################################
#
#                 Cambridge Crystallographic Data Centre
#                                CCDC 
#
#######################################################################
#
# If this CIF has been generated from an entry in the Cambridge 
# Structural Database, then it will include bibliographic, chemical, 
# crystal, experimental, refinement or atomic coordinate data resulting 
# from the CCDC's data processing and validation procedures.
#
#######################################################################

data_GUHMIH
_chemical_formula_moiety         '(C28 H35 Cu1 N8 O68 P2 W18 1-)n'
_symmetry_cell_setting           cubic
_symmetry_space_group_name_H-M   'I 4 3 2'
_symmetry_Int_Tables_number      211
_space_group_name_Hall           'I 4 2 3'
loop_
_symmetry_equiv_pos_site_id
_symmetry_equiv_pos_as_xyz
1 x,y,z
2 -y,x,z
3 -x,-y,z
4 y,-x,z
5 x,-y,-z
6 y,x,-z
7 -x,y,-z
8 -y,-x,-z
9 z,x,y
10 -x,z,y
11 -z,-x,y
12 x,-z,y
13 z,-x,-y
14 x,z,-y
15 -z,x,-y
16 -x,-z,-y
17 y,z,x
18 -z,-y,-x
19 -z,y,x
20 z,y,-x
21 z,-y,x
22 y,-z,-x
23 -y,-z,x
24 -y,z,-x
25 1/2+x,1/2+y,1/2+z
26 1/2-y,1/2+x,1/2+z
27 1/2-x,1/2-y,1/2+z
28 1/2+y,1/2-x,1/2+z
29 1/2+x,1/2-y,1/2-z
30 1/2+y,1/2+x,1/2-z
31 1/2-x,1/2+y,1/2-z
32 1/2-y,1/2-x,1/2-z
33 1/2+z,1/2+x,1/2+y
34 1/2-x,1/2+z,1/2+y
35 1/2-z,1/2-x,1/2+y
36 1/2+x,1/2-z,1/2+y
37 1/2+z,1/2-x,1/2-y
38 1/2+x,1/2+z,1/2-y
39 1/2-z,1/2+x,1/2-y
40 1/2-x,1/2-z,1/2-y
41 1/2+y,1/2+z,1/2+x
42 1/2-z,1/2-y,1/2-x
43 1/2-z,1/2+y,1/2+x
44 1/2+z,1/2+y,1/2-x
45 1/2+z,1/2-y,1/2+x
46 1/2+y,1/2-z,1/2-x
47 1/2-y,1/2-z,1/2+x
48 1/2-y,1/2+z,1/2-x
_cell_length_a                   28.9058(4)
_cell_length_b                   28.9058(4)
_cell_length_c                   28.9058(4)
_cell_angle_alpha                90
_cell_angle_beta                 90
_cell_angle_gamma                90
_cell_volume                     24152.1
loop_
_atom_site_label
_atom_site_type_symbol
_atom_site_fract_x
_atom_site_fract_y
_atom_site_fract_z
_atom_site_U_iso_or_equiv
_atom_site_thermal_displace_type
W1 W 0.333674(10) 0.657362(10) 0.810795(10) 0.0197 Uani
W2 W 0.236874(11) 0.613932(9) 0.763451(11) 0.0193 Uani
W3 W 0.396535(10) 0.652972(11) 0.699304(11) 0.0208 Uani
P1 P 0.28963(6) 0.71037(6) 0.71037(6) 0.0147 Uani
O5 O 0.32079(15) 0.67921(15) 0.67921(15) 0.0163 Uani
O6 O 0.27991(17) 0.68309(17) 0.75457(17) 0.0180 Uani
O7 O 0.28997(18) 0.60976(17) 0.80342(18) 0.0203 Uani
O8 O 0.36153(17) 0.71731(17) 0.80121(18) 0.0200 Uani
O9 O 0.36737(18) 0.63938(17) 0.75720(16) 0.0200 Uani
O10 O 0.40042(18) 0.67479(18) 0.63743(19) 0.0223 Uani
O11 O 0.27842(19) 0.59518(17) 0.71293(18) 0.0220 Uani
O12 O 0.44971(18) 0.6281(2) 0.7054(2) 0.0290 Uani
O13 O 0.2115(2) 0.56066(18) 0.7731(2) 0.0290 Uani
O14 O 0.36929(19) 0.6330(2) 0.85139(18) 0.0280 Uani
O15 O 0.29329(17) 0.69015(17) 0.85196(17) 0.0200 Uani
O6J O 0.24543(17) 0.72009(17) 0.68309(17) 0.0180 Uani
O6W O 0.31691(17) 0.75457(17) 0.72009(17) 0.0180 Uani
W1J W 0.189205(10) 0.666326(10) 0.657362(10) 0.0197 Uani
W2J W 0.236549(11) 0.763126(11) 0.613932(9) 0.0193 Uani
W3J W 0.300696(11) 0.603465(10) 0.652972(11) 0.0208 Uani
O7J O 0.19658(18) 0.71003(18) 0.60976(17) 0.0203 Uani
O8J O 0.19879(18) 0.63847(17) 0.71731(17) 0.0200 Uani
O9J O 0.24280(16) 0.63263(18) 0.63938(17) 0.0200 Uani
O10J O 0.36257(19) 0.59958(18) 0.67479(18) 0.0223 Uani
O11J O 0.28707(18) 0.72158(19) 0.59518(17) 0.0220 Uani
O12J O 0.2946(2) 0.55029(18) 0.6281(2) 0.0290 Uani
O13J O 0.2269(2) 0.7885(2) 0.56066(18) 0.0290 Uani
O14J O 0.14861(18) 0.63071(19) 0.6330(2) 0.0280 Uani
O15J O 0.14804(17) 0.70671(17) 0.69015(17) 0.0200 Uani
W1W W 0.342638(10) 0.810795(10) 0.666326(10) 0.0197 Uani
W2W W 0.386068(9) 0.763451(11) 0.763126(11) 0.0193 Uani
W3W W 0.347028(11) 0.699304(11) 0.603465(10) 0.0208 Uani
O7W O 0.39024(17) 0.80342(18) 0.71003(18) 0.0203 Uani
O8W O 0.28269(17) 0.80121(18) 0.63847(17) 0.0200 Uani
O9W O 0.36062(17) 0.75720(16) 0.63263(18) 0.0200 Uani
O10W O 0.32521(18) 0.63743(19) 0.59958(18) 0.0223 Uani
O11W O 0.40482(17) 0.71293(18) 0.72158(19) 0.0220 Uani
O12W O 0.3719(2) 0.7054(2) 0.55029(18) 0.0290 Uani
O13W O 0.43934(18) 0.7731(2) 0.7885(2) 0.0290 Uani
O14W O 0.3670(2) 0.85139(18) 0.63071(19) 0.0280 Uani
O15W O 0.30985(17) 0.85196(17) 0.70671(17) 0.0200 Uani
W1CA W 0.157362(10) 0.833674(10) 0.689205(10) 0.0197 Uani
W2CA W 0.113932(9) 0.736874(11) 0.736549(11) 0.0193 Uani
W3CA W 0.152972(11) 0.896535(10) 0.800696(11) 0.0208 Uani
P1CA P 0.21037(6) 0.78963(6) 0.78963(6) 0.0147 Uani
O5CA O 0.17921(15) 0.82079(15) 0.82079(15) 0.0163 Uani
O6CA O 0.18309(17) 0.77991(17) 0.74543(17) 0.0180 Uani
O7CA O 0.10976(17) 0.78997(18) 0.69658(18) 0.0203 Uani
O8CA O 0.21731(17) 0.86153(17) 0.69879(18) 0.0200 Uani
O9CA O 0.13938(17) 0.86737(18) 0.74280(16) 0.0200 Uani
O10CA O 0.17479(18) 0.90042(18) 0.86257(19) 0.0223 Uani
O11CA O 0.09518(17) 0.77842(19) 0.78707(18) 0.0220 Uani
O12CA O 0.1281(2) 0.94971(18) 0.7946(2) 0.0290 Uani
O13CA O 0.06066(18) 0.7115(2) 0.7269(2) 0.0290 Uani
O14CA O 0.1330(2) 0.86929(19) 0.64861(18) 0.0280 Uani
O15CA O 0.19015(17) 0.79329(17) 0.64804(17) 0.0200 Uani
O6MA O 0.22009(17) 0.74543(17) 0.81691(17) 0.0180 Uani
O6RA O 0.25457(17) 0.81691(17) 0.77991(17) 0.0180 Uani
W1MA W 0.166326(10) 0.689205(10) 0.842638(10) 0.0197 Uani
W2MA W 0.263126(11) 0.736549(11) 0.886068(9) 0.0193 Uani
W3MA W 0.103465(10) 0.800696(11) 0.847028(11) 0.0208 Uani
O7MA O 0.21003(18) 0.69658(18) 0.89024(17) 0.0203 Uani
O8MA O 0.13847(17) 0.69879(18) 0.78269(17) 0.0200 Uani
O9MA O 0.13263(18) 0.74280(16) 0.86062(17) 0.0200 Uani
O10MA O 0.09958(18) 0.86257(19) 0.82521(18) 0.0223 Uani
O11MA O 0.22158(19) 0.78707(18) 0.90482(17) 0.0220 Uani
O12MA O 0.05029(18) 0.7946(2) 0.8719(2) 0.0290 Uani
O13MA O 0.2885(2) 0.7269(2) 0.93934(18) 0.0290 Uani
O14MA O 0.13071(19) 0.64861(18) 0.8670(2) 0.0280 Uani
O15MA O 0.20671(17) 0.64804(17) 0.80985(17) 0.0200 Uani
W1RA W 0.310795(10) 0.842638(10) 0.833674(10) 0.0197 Uani
W2RA W 0.263451(11) 0.886068(9) 0.736874(11) 0.0193 Uani
W3RA W 0.199304(11) 0.847028(11) 0.896535(10) 0.0208 Uani
O7RA O 0.30342(18) 0.89024(17) 0.78997(18) 0.0203 Uani
O8RA O 0.30121(18) 0.78269(17) 0.86153(17) 0.0200 Uani
O9RA O 0.25720(16) 0.86062(17) 0.86737(18) 0.0200 Uani
O10RA O 0.13743(19) 0.82521(18) 0.90042(18) 0.0223 Uani
O11RA O 0.21293(18) 0.90482(17) 0.77842(19) 0.0220 Uani
O12RA O 0.2054(2) 0.8719(2) 0.94971(18) 0.0290 Uani
O13RA O 0.2731(2) 0.93934(18) 0.7115(2) 0.0290 Uani
O14RA O 0.35139(18) 0.8670(2) 0.86929(19) 0.0280 Uani
O15RA O 0.35196(17) 0.80985(17) 0.79329(17) 0.0200 Uani
Cu1 Cu 0.5000 0.80544(9) 0.5000 0.0343 Uani
O1 O 0.5000 0.7220(5) 0.5000 0.0430 Uani
O2 O 0.3585(3) 0.9201(3) 0.5472(3) 0.0580 Uani
N1 N 0.4294(2) 0.8070(2) 0.4960(3) 0.0283 Uani
N2 N 0.2939(3) 0.8766(3) 0.5584(3) 0.0430 Uani
H1 H 0.2781 0.8527 0.5504 0.0510 Uiso
C1 C 0.4056(3) 0.7754(3) 0.4723(3) 0.0320 Uani
H2 H 0.4215 0.7525 0.4562 0.0380 Uiso
C2 C 0.3576(3) 0.7759(3) 0.4710(3) 0.0280 Uani
H3 H 0.3418 0.7529 0.4550 0.0330 Uiso
C3 C 0.3340(3) 0.8092(3) 0.4927(3) 0.0310 Uani
H4 H 0.3019 0.8098 0.4917 0.0370 Uiso
C4 C 0.3585(3) 0.8429(3) 0.5168(3) 0.0283 Uani
C5 C 0.4055(3) 0.8405(3) 0.5178(3) 0.0307 Uani
H5 H 0.4217 0.8630 0.5342 0.0370 Uiso
C6 C 0.3369(3) 0.8831(4) 0.5411(3) 0.0363 Uani
C7 C 0.2746(4) 0.9106(5) 0.5902(4) 0.0560 Uani
H6 H 0.2853 0.9040 0.6213 0.0670 Uiso
H7 H 0.2854 0.9412 0.5818 0.0670 Uiso
O3 O 0.5000 0.8928(6) 0.5000 0.0357 Uani
O2MA O 0.1415(3) 0.9528(3) 0.5799(3) 0.0580 Uani
N1MA N 0.0706(2) 1.0040(3) 0.6930(2) 0.0283 Uani
N2MA N 0.2061(3) 0.9416(3) 0.6234(3) 0.0430 Uani
H1MA H 0.2219 0.9496 0.6473 0.0510 Uiso
C1MA C 0.0944(3) 1.0277(3) 0.7246(3) 0.0320 Uani
H2MA H 0.0785 1.0438 0.7475 0.0380 Uiso
C2MA C 0.1424(3) 1.0290(3) 0.7241(3) 0.0280 Uani
H3MA H 0.1582 1.0450 0.7471 0.0330 Uiso
C3MA C 0.1660(3) 1.0073(3) 0.6908(3) 0.0310 Uani
H4MA H 0.1981 1.0083 0.6902 0.0370 Uiso
C4MA C 0.1415(3) 0.9832(3) 0.6571(3) 0.0283 Uani
C5MA C 0.0945(3) 0.9822(3) 0.6595(3) 0.0307 Uani
H5MA H 0.0783 0.9658 0.6370 0.0370 Uiso
C6MA C 0.1631(3) 0.9589(3) 0.6169(4) 0.0363 Uani
C7MA C 0.2254(4) 0.9098(4) 0.5894(5) 0.0560 Uani
H6MA H 0.2147 0.8787 0.5960 0.0670 Uiso
H7MA H 0.2146 0.9182 0.5588 0.0670 Uiso
O2F O 0.6415(3) 0.9201(3) 0.4528(3) 0.0580 Uani
N1F N 0.5706(2) 0.8070(2) 0.5040(3) 0.0283 Uani
N2F N 0.7061(3) 0.8766(3) 0.4416(3) 0.0430 Uani
H1F H 0.7219 0.8527 0.4496 0.0510 Uiso
C1F C 0.5944(3) 0.7754(3) 0.5277(3) 0.0320 Uani
H2F H 0.5785 0.7525 0.5438 0.0380 Uiso
C2F C 0.6424(3) 0.7759(3) 0.5290(3) 0.0280 Uani
H3F H 0.6582 0.7529 0.5450 0.0330 Uiso
C3F C 0.6660(3) 0.8092(3) 0.5073(3) 0.0310 Uani
H4F H 0.6981 0.8098 0.5083 0.0370 Uiso
C4F C 0.6415(3) 0.8429(3) 0.4832(3) 0.0283 Uani
C5F C 0.5945(3) 0.8405(3) 0.4822(3) 0.0307 Uani
H5F H 0.5783 0.8630 0.4658 0.0370 Uiso
C6F C 0.6631(3) 0.8831(4) 0.4589(3) 0.0363 Uani
C7F C 0.7254(4) 0.9106(5) 0.4098(4) 0.0560 Uani
H6F H 0.7147 0.9040 0.3787 0.0670 Uiso
H7F H 0.7146 0.9412 0.4182 0.0670 Uiso
O2IA O 0.8585(3) 0.9528(3) 0.4201(3) 0.0580 Uani
N1IA N 0.9294(2) 1.0040(3) 0.3070(2) 0.0283 Uani
N2IA N 0.7939(3) 0.9416(3) 0.3766(3) 0.0430 Uani
H1IA H 0.7781 0.9496 0.3527 0.0510 Uiso
C1IA C 0.9056(3) 1.0277(3) 0.2754(3) 0.0320 Uani
H2IA H 0.9215 1.0438 0.2525 0.0380 Uiso
C2IA C 0.8576(3) 1.0290(3) 0.2759(3) 0.0280 Uani
H3IA H 0.8418 1.0450 0.2529 0.0330 Uiso
C3IA C 0.8340(3) 1.0073(3) 0.3092(3) 0.0310 Uani
H4IA H 0.8019 1.0083 0.3098 0.0370 Uiso
C4IA C 0.8585(3) 0.9832(3) 0.3429(3) 0.0283 Uani
C5IA C 0.9055(3) 0.9822(3) 0.3405(3) 0.0307 Uani
H5IA H 0.9217 0.9658 0.3630 0.0370 Uiso
C6IA C 0.8369(3) 0.9589(3) 0.3831(4) 0.0363 Uani
C7IA C 0.7746(4) 0.9098(4) 0.4106(5) 0.0560 Uani
H6IA H 0.7853 0.8787 0.4040 0.0670 Uiso
H7IA H 0.7854 0.9182 0.4412 0.0670 Uiso
Cu1FA Cu 1.0000 1.0000 0.30544(9) 0.0343 Uani
Cu1JA Cu 0.0000 1.0000 0.69456(9) 0.0343 Uani
N1R N 0.5040(3) 0.8070(2) 0.4294(2) 0.0283 Uani
N1S N 0.4960(3) 0.8070(2) 0.5706(2) 0.0283 Uani
loop_
_atom_site_aniso_label
_atom_site_aniso_U_11
_atom_site_aniso_U_22
_atom_site_aniso_U_33
_atom_site_aniso_U_23
_atom_site_aniso_U_13
_atom_site_aniso_U_12
W1 0.02008(15) 0.01966(15) 0.01926(14) 0.00289(11) -0.00270(11) 0.00199(11)
W2 0.02092(16) 0.01552(14) 0.02144(16) 0.00211(11) 0.00016(10) -0.00149(11)
W3 0.01740(15) 0.02224(16) 0.02271(16) -0.00120(12) -0.00012(11) 0.00371(11)
P1 0.0147(5) 0.0147(5) 0.0147(5) 0.0002(6) -0.0002(6) -0.0002(6)
O5 0.0163(16) 0.0163(16) 0.0163(16) -0.0002(18) 0.0002(18) 0.0002(18)
O6 0.019(3) 0.018(3) 0.017(2) -0.004(2) -0.003(2) 0.004(2)
O7 0.021(3) 0.018(3) 0.022(3) -0.002(2) 0.000(2) 0.004(2)
O8 0.018(2) 0.017(2) 0.025(3) 0.001(2) 0.000(2) -0.003(2)
O9 0.025(3) 0.014(2) 0.021(2) 0.001(2) 0.001(2) 0.0011(19)
O10 0.020(3) 0.025(3) 0.022(3) 0.002(2) 0.005(2) 0.004(2)
O11 0.027(3) 0.017(2) 0.022(3) -0.003(2) -0.001(2) 0.002(2)
O12 0.014(3) 0.034(3) 0.039(3) -0.006(3) -0.002(2) 0.009(2)
O13 0.031(3) 0.018(3) 0.038(3) 0.004(2) 0.000(3) -0.006(2)
O14 0.019(3) 0.041(4) 0.024(3) 0.007(3) -0.001(2) 0.009(2)
O15 0.019(2) 0.021(2) 0.020(3) -0.001(2) -0.001(2) 0.000(2)
O6J 0.017 0.019 0.018 -0.004 0.004 -0.003
O6W 0.018 0.017 0.019 0.003 0.004 0.004
W1J 0.01926 0.02008 0.01966 -0.00199 -0.00289 -0.0027
W2J 0.02144 0.02092 0.01552 0.00149 -0.00211 0.00016
W3J 0.02271 0.0174 0.02224 -0.00371 0.0012 -0.00012
O7J 0.022 0.021 0.018 -0.004 0.002 0
O8J 0.025 0.018 0.017 0.003 -0.001 0
O9J 0.021 0.025 0.014 -0.0011 -0.001 0.001
O10J 0.022 0.02 0.025 -0.004 -0.002 0.005
O11J 0.022 0.027 0.017 -0.002 0.003 -0.001
O12J 0.039 0.014 0.034 -0.009 0.006 -0.002
O13J 0.038 0.031 0.018 0.006 -0.004 0
O14J 0.024 0.019 0.041 -0.009 -0.007 -0.001
O15J 0.02 0.019 0.021 0 0.001 -0.001
W1W 0.01966 0.01926 0.02008 0.0027 0.00199 -0.00289
W2W 0.01552 0.02144 0.02092 -0.00016 -0.00149 -0.00211
W3W 0.02224 0.02271 0.0174 0.00012 0.00371 0.0012
O7W 0.018 0.022 0.021 0 0.004 0.002
O8W 0.017 0.025 0.018 0 -0.003 -0.001
O9W 0.014 0.021 0.025 -0.001 0.0011 -0.001
O10W 0.025 0.022 0.02 -0.005 0.004 -0.002
O11W 0.017 0.022 0.027 0.001 0.002 0.003
O12W 0.034 0.039 0.014 0.002 0.009 0.006
O13W 0.018 0.038 0.031 0 -0.006 -0.004
O14W 0.041 0.024 0.019 0.001 0.009 -0.007
O15W 0.021 0.02 0.019 0.001 0 0.001
W1CA 0.01966 0.02008 0.01926 0.0027 -0.00289 0.00199
W2CA 0.01552 0.02092 0.02144 -0.00016 -0.00211 -0.00149
W3CA 0.02224 0.0174 0.02271 0.00012 0.0012 0.00371
P1CA 0.0147 0.0147 0.0147 0.0002 -0.0002 -0.0002
O5CA 0.0163 0.0163 0.0163 -0.0002 0.0002 0.0002
O6CA 0.018 0.019 0.017 0.003 0.004 0.004
O7CA 0.018 0.021 0.022 0 0.002 0.004
O8CA 0.017 0.018 0.025 0 -0.001 -0.003
O9CA 0.014 0.025 0.021 -0.001 -0.001 0.0011
O10CA 0.025 0.02 0.022 -0.005 -0.002 0.004
O11CA 0.017 0.027 0.022 0.001 0.003 0.002
O12CA 0.034 0.014 0.039 0.002 0.006 0.009
O13CA 0.018 0.031 0.038 0 -0.004 -0.006
O14CA 0.041 0.019 0.024 0.001 -0.007 0.009
O15CA 0.021 0.019 0.02 0.001 0.001 0
O6MA 0.019 0.017 0.018 -0.004 0.004 -0.003
O6RA 0.017 0.018 0.019 -0.004 -0.003 0.004
W1MA 0.02008 0.01926 0.01966 0.00289 0.00199 -0.0027
W2MA 0.02092 0.02144 0.01552 0.00211 -0.00149 0.00016
W3MA 0.0174 0.02271 0.02224 -0.0012 0.00371 -0.00012
O7MA 0.021 0.022 0.018 -0.002 0.004 0
O8MA 0.018 0.025 0.017 0.001 -0.003 0
O9MA 0.025 0.021 0.014 0.001 0.0011 0.001
O10MA 0.02 0.022 0.025 0.002 0.004 0.005
O11MA 0.027 0.022 0.017 -0.003 0.002 -0.001
O12MA 0.014 0.039 0.034 -0.006 0.009 -0.002
O13MA 0.031 0.038 0.018 0.004 -0.006 0
O14MA 0.019 0.024 0.041 0.007 0.009 -0.001
O15MA 0.019 0.02 0.021 -0.001 0 -0.001
W1RA 0.01926 0.01966 0.02008 -0.00199 -0.0027 -0.00289
W2RA 0.02144 0.01552 0.02092 0.00149 0.00016 -0.00211
W3RA 0.02271 0.02224 0.0174 -0.00371 -0.00012 0.0012
O7RA 0.022 0.018 0.021 -0.004 0 0.002
O8RA 0.025 0.017 0.018 0.003 0 -0.001
O9RA 0.021 0.014 0.025 -0.0011 0.001 -0.001
O10RA 0.022 0.025 0.02 -0.004 0.005 -0.002
O11RA 0.022 0.017 0.027 -0.002 -0.001 0.003
O12RA 0.039 0.034 0.014 -0.009 -0.002 0.006
O13RA 0.038 0.018 0.031 0.006 0 -0.004
O14RA 0.024 0.041 0.019 -0.009 -0.001 -0.007
O15RA 0.02 0.021 0.019 0 -0.001 0.001
Cu1 0.0189(5) 0.0652(14) 0.0189(5) 0.000 0.000 0.000
O1 0.037(4) 0.055(8) 0.037(4) 0.000 0.000 0.000
O2 0.062(5) 0.040(4) 0.072(6) -0.007(4) 0.022(4) -0.010(4)
N1 0.023(3) 0.045(4) 0.017(3) -0.002(3) 0.001(3) -0.003(3)
N2 0.033(4) 0.051(5) 0.045(5) -0.017(4) 0.011(4) 0.014(4)
C1 0.027(5) 0.047(5) 0.022(4) -0.004(4) 0.002(3) 0.008(4)
C2 0.027(4) 0.033(5) 0.024(4) -0.003(3) -0.007(3) -0.001(3)
C3 0.029(4) 0.040(5) 0.024(4) 0.002(4) -0.001(3) 0.005(3)
C4 0.038(5) 0.031(4) 0.016(4) 0.001(3) 0.006(3) 0.003(4)
C5 0.028(4) 0.044(5) 0.020(4) -0.014(3) 0.000(3) -0.003(4)
C6 0.034(5) 0.046(6) 0.029(5) 0.000(4) 0.005(4) 0.006(4)
C7 0.046(6) 0.075(8) 0.047(6) -0.017(6) 0.001(5) 0.034(6)
O3 0.035(5) 0.037(8) 0.035(5) 0.000 0.000 0.000
O2MA 0.062 0.072 0.04 -0.007 -0.01 0.022
N1MA 0.023 0.017 0.045 -0.002 -0.003 0.001
N2MA 0.033 0.045 0.051 -0.017 0.014 0.011
C1MA 0.027 0.022 0.047 -0.004 0.008 0.002
C2MA 0.027 0.024 0.033 -0.003 -0.001 -0.007
C3MA 0.029 0.024 0.04 0.002 0.005 -0.001
C4MA 0.038 0.016 0.031 0.001 0.003 0.006
C5MA 0.028 0.02 0.044 -0.014 -0.003 0
C6MA 0.034 0.029 0.046 0 0.006 0.005
C7MA 0.046 0.047 0.075 -0.017 0.034 0.001
O2F 0.062 0.04 0.072 0.007 0.022 0.01
N1F 0.023 0.045 0.017 0.002 0.001 0.003
N2F 0.033 0.051 0.045 0.017 0.011 -0.014
C1F 0.027 0.047 0.022 0.004 0.002 -0.008
C2F 0.027 0.033 0.024 0.003 -0.007 0.001
C3F 0.029 0.04 0.024 -0.002 -0.001 -0.005
C4F 0.038 0.031 0.016 -0.001 0.006 -0.003
C5F 0.028 0.044 0.02 0.014 0 0.003
C6F 0.034 0.046 0.029 0 0.005 -0.006
C7F 0.046 0.075 0.047 0.017 0.001 -0.034
O2IA 0.062 0.072 0.04 0.007 -0.01 -0.022
N1IA 0.023 0.017 0.045 0.002 -0.003 -0.001
N2IA 0.033 0.045 0.051 0.017 0.014 -0.011
C1IA 0.027 0.022 0.047 0.004 0.008 -0.002
C2IA 0.027 0.024 0.033 0.003 -0.001 0.007
C3IA 0.029 0.024 0.04 -0.002 0.005 0.001
C4IA 0.038 0.016 0.031 -0.001 0.003 -0.006
C5IA 0.028 0.02 0.044 0.014 -0.003 0
C6IA 0.034 0.029 0.046 0 0.006 -0.005
C7IA 0.046 0.047 0.075 0.017 0.034 -0.001
Cu1FA 0.0189 0.0189 0.0652 0 0 0
Cu1JA 0.0189 0.0189 0.0652 0 0 0
N1R 0.017 0.045 0.023 -0.003 -0.001 0.002
N1S 0.017 0.045 0.023 0.003 -0.001 -0.002
loop_
_geom_bond_atom_site_label_1
_geom_bond_atom_site_label_2
_geom_bond_site_symmetry_1
_geom_bond_site_symmetry_2
Cu1 O1 1_555 1_555
O2 C6 1_555 1_555
N1 Cu1 1_555 1_555
N2 H1 1_555 1_555
C1 N1 1_555 1_555
H2 C1 1_555 1_555
C2 C1 1_555 1_555
H3 C2 1_555 1_555
C3 C2 1_555 1_555
H4 C3 1_555 1_555
C4 C3 1_555 1_555
C5 N1 1_555 1_555
H5 C5 1_555 1_555
C6 N2 1_555 1_555
C7 N2 1_555 1_555
H6 C7 1_555 1_555
H7 C7 1_555 1_555
O3 Cu1 1_555 1_555
W1 O6 1_555 1_555
W2 O6 1_555 1_555
W3 O5 1_555 1_555
P1 O5 1_555 1_555
O5 W3J 1_555 1_555
O6 P1 1_555 1_555
O7 W1 1_555 1_555
O8 W1 1_555 1_555
O9 W1 1_555 1_555
O10 W3 1_555 1_555
O11 W2 1_555 1_555
O12 W3 1_555 1_555
O13 W2 1_555 1_555
O14 W1 1_555 1_555
O15 W1 1_555 1_555
O2MA C6MA 1_555 1_555
N1MA C1MA 1_555 1_555
N2MA H1MA 1_555 1_555
C1MA H2MA 1_555 1_555
C2MA C1MA 1_555 1_555
H3MA C2MA 1_555 1_555
C3MA C2MA 1_555 1_555
H4MA C3MA 1_555 1_555
C4MA C3MA 1_555 1_555
C5MA N1MA 1_555 1_555
H5MA C5MA 1_555 1_555
C6MA N2MA 1_555 1_555
C7MA C7 1_555 1_555
H6MA C7MA 1_555 1_555
H7MA C7MA 1_555 1_555
O2F C6F 1_555 1_555
N1F Cu1 1_555 1_555
N2F H1F 1_555 1_555
C1F N1F 1_555 1_555
H2F C1F 1_555 1_555
C2F C1F 1_555 1_555
H3F C2F 1_555 1_555
C3F C2F 1_555 1_555
H4F C3F 1_555 1_555
C4F C3F 1_555 1_555
C5F N1F 1_555 1_555
H5F C5F 1_555 1_555
C6F N2F 1_555 1_555
C7F N2F 1_555 1_555
H6F C7F 1_555 1_555
H7F C7F 1_555 1_555
O2IA C6IA 1_555 1_555
N1IA C1IA 1_555 1_555
N2IA H1IA 1_555 1_555
C1IA H2IA 1_555 1_555
C2IA C1IA 1_555 1_555
H3IA C2IA 1_555 1_555
C3IA C2IA 1_555 1_555
H4IA C3IA 1_555 1_555
C4IA C3IA 1_555 1_555
C5IA N1IA 1_555 1_555
H5IA C5IA 1_555 1_555
C6IA N2IA 1_555 1_555
C7IA C7F 1_555 1_555
H6IA C7IA 1_555 1_555
H7IA C7IA 1_555 1_555
Cu1FA N1IA 1_555 1_555
Cu1JA N1MA 1_555 1_555
N1R Cu1 1_555 1_555
N1S Cu1 1_555 1_555
O6J P1 1_555 1_555
O6W P1 1_555 1_555
W1J O6J 1_555 1_555
W2J O6J 1_555 1_555
W3J O11 1_555 1_555
O7J W1J 1_555 1_555
O8J W2 1_555 1_555
O9J W1J 1_555 1_555
O10J W3 1_555 1_555
O11J W2J 1_555 1_555
O12J W3J 1_555 1_555
O13J W2J 1_555 1_555
O14J W1J 1_555 1_555
O15J W1J 1_555 1_555
W1W O6W 1_555 1_555
W2W O8 1_555 1_555
W3W O5 1_555 1_555
O7W W1W 1_555 1_555
O8W W2J 1_555 1_555
O9W W1W 1_555 1_555
O10W W3J 1_555 1_555
O11W W3 1_555 1_555
O12W W3W 1_555 1_555
O13W W2W 1_555 1_555
O14W W1W 1_555 1_555
O15W W1W 1_555 1_555
W1CA O6CA 1_555 1_555
W2CA O15J 1_555 1_555
W3CA O5CA 1_555 1_555
P1CA O5CA 1_555 1_555
O5CA W3MA 1_555 1_555
O6CA W2CA 1_555 1_555
O7CA W1CA 1_555 1_555
O8CA W1CA 1_555 1_555
O9CA W1CA 1_555 1_555
O10CA W3CA 1_555 1_555
O11CA W2CA 1_555 1_555
O12CA W3CA 1_555 1_555
O13CA W2CA 1_555 1_555
O14CA W1CA 1_555 1_555
O15CA W2J 1_555 1_555
O6MA P1CA 1_555 1_555
O6RA P1CA 1_555 1_555
W1MA O6MA 1_555 1_555
W2MA O15 1_555 1_555
W3MA O11CA 1_555 1_555
O7MA W1MA 1_555 1_555
O8MA W2CA 1_555 1_555
O9MA W1MA 1_555 1_555
O10MA W3CA 1_555 1_555
O11MA W2MA 1_555 1_555
O12MA W3MA 1_555 1_555
O13MA W2MA 1_555 1_555
O14MA W1MA 1_555 1_555
O15MA W2 1_555 1_555
W1RA O6RA 1_555 1_555
W2RA O15W 1_555 1_555
W3RA O5CA 1_555 1_555
O7RA W1RA 1_555 1_555
O8RA W2MA 1_555 1_555
O9RA W1RA 1_555 1_555
O10RA W3MA 1_555 1_555
O11RA W3CA 1_555 1_555
O12RA W3RA 1_555 1_555
O13RA W2RA 1_555 1_555
O14RA W1RA 1_555 1_555
O15RA W2W 1_555 1_555
C4 C5 1_555 1_555
C4 C6 1_555 1_555
W2 O7 1_555 1_555
W3 O9 1_555 1_555
O10 W3W 1_555 1_555
N2MA C7MA 1_555 1_555
C4MA C5MA 1_555 1_555
C4MA C6MA 1_555 1_555
C4F C5F 1_555 1_555
C4F C6F 1_555 1_555
N2IA C7IA 1_555 1_555
C4IA C5IA 1_555 1_555
C4IA C6IA 1_555 1_555
O6W W2W 1_555 1_555
W1J O8J 1_555 1_555
W2J O7J 1_555 1_555
W3J O9J 1_555 1_555
W3J O10J 1_555 1_555
O11J W3W 1_555 1_555
W1W O8W 1_555 1_555
W2W O7W 1_555 1_555
W2W O11W 1_555 1_555
W3W O9W 1_555 1_555
W3W O10W 1_555 1_555
W1CA O15CA 1_555 1_555
W2CA O7CA 1_555 1_555
W3CA O9CA 1_555 1_555
P1CA O6CA 1_555 1_555
O8CA W2RA 1_555 1_555
O10CA W3RA 1_555 1_555
O6MA W2MA 1_555 1_555
O6RA W2RA 1_555 1_555
W1MA O8MA 1_555 1_555
W1MA O15MA 1_555 1_555
W2MA O7MA 1_555 1_555
W3MA O9MA 1_555 1_555
W3MA O10MA 1_555 1_555
O11MA W3RA 1_555 1_555
W1RA O8RA 1_555 1_555
W1RA O15RA 1_555 1_555
W2RA O7RA 1_555 1_555
W2RA O11RA 1_555 1_555
W3RA O9RA 1_555 1_555
W3RA O10RA 1_555 1_555

#END
