
#######################################################################
#
#                 Cambridge Crystallographic Data Centre
#                                CCDC 
#
#######################################################################
#
# If this CIF has been generated from an entry in the Cambridge 
# Structural Database, then it will include bibliographic, chemical, 
# crystal, experimental, refinement or atomic coordinate data resulting 
# from the CCDC's data processing and validation procedures.
#
#######################################################################

data_GUCJAQ
_chemical_formula_moiety         '(C40 H29 N6 O12 P1 Zn2)n'
_symmetry_cell_setting           monoclinic
_symmetry_space_group_name_H-M   'C 2/c'
_symmetry_Int_Tables_number      15
_space_group_name_Hall           '-C 2yc'
loop_
_symmetry_equiv_pos_site_id
_symmetry_equiv_pos_as_xyz
1 x,y,z
2 -x,y,1/2-z
3 1/2+x,1/2+y,z
4 1/2-x,1/2+y,1/2-z
5 -x,-y,-z
6 x,-y,1/2+z
7 1/2-x,1/2-y,-z
8 1/2+x,1/2-y,1/2+z
_cell_length_a                   22.8823(6)
_cell_length_b                   18.4474(5)
_cell_length_c                   9.6823(3)
_cell_angle_alpha                90
_cell_angle_beta                 95.477(1)
_cell_angle_gamma                90
_cell_volume                     4068.42
loop_
_atom_site_label
_atom_site_type_symbol
_atom_site_fract_x
_atom_site_fract_y
_atom_site_fract_z
_atom_site_U_iso_or_equiv
_atom_site_thermal_displace_type
Zn1 Zn 0.084582(11) 0.033453(14) 0.01854(3) 0.0211 Uani
P1 P 0.0000 -0.00757(5) 0.2500 0.0205 Uani
O1 O 0.04195(7) 0.04290(9) 0.18154(17) 0.0310 Uani
O2 O -0.03304(7) -0.05669(9) 0.14327(16) 0.0321 Uani
O3 O 0.13510(7) 0.11851(9) 0.05198(18) 0.0329 Uani
O4 O 0.18616(9) 0.07622(11) -0.1139(2) 0.0495 Uani
O5 O 0.27764(9) 0.06813(10) 0.1300(2) 0.0485 Uani
O6 O 0.35022(9) 0.09485(12) 0.0014(3) 0.0695 Uani
C1 C 0.19009(10) 0.25528(14) -0.0296(3) 0.0294 Uani
C2 C 0.21521(10) 0.18758(13) -0.0073(2) 0.0251 Uani
C3 C 0.27596(10) 0.18255(13) 0.0245(3) 0.0276 Uani
C4 C 0.17675(11) 0.12100(14) -0.0257(3) 0.0281 Uani
C5 C 0.30501(12) 0.11027(15) 0.0504(3) 0.0370 Uani
C6 C 0.14990(11) -0.08654(14) -0.1003(3) 0.0335 Uani
C7 C 0.16711(12) -0.15619(14) -0.1214(3) 0.0374 Uani
C8 C 0.15465(11) -0.21079(14) -0.0304(3) 0.0320 Uani
C9 C 0.12601(14) -0.19007(15) 0.0830(3) 0.0473 Uani
C10 C 0.10988(13) -0.11863(15) 0.0986(3) 0.0413 Uani
C11 C 0.17034(12) -0.28750(14) -0.0522(3) 0.0372 Uani
C12 C 0.20560(13) -0.30866(15) -0.1522(3) 0.0433 Uani
C13 C 0.21811(13) -0.38077(16) -0.1725(3) 0.0440 Uani
C14 C 0.1650(3) -0.4130(2) 0.0011(5) 0.1249 Uani
C15 C 0.1504(2) -0.34211(19) 0.0271(5) 0.1067 Uani
N1 N 0.12038(9) -0.06712(11) 0.0075(2) 0.0280 Uani
N2 N 0.19759(13) -0.43223(13) -0.0973(3) 0.0575 Uani
H1 H 0.1453 0.2582 -0.0531 0.0800 Uiso
H2 H 0.1597 -0.0500 -0.1644 0.0800 Uiso
H3 H 0.1880 -0.1674 -0.2001 0.0800 Uiso
H4 H 0.1172 -0.2256 0.1501 0.0800 Uiso
H5 H 0.0900 -0.1051 0.1792 0.0800 Uiso
H6 H 0.2223 -0.2721 -0.2094 0.0800 Uiso
H7 H 0.2427 -0.3938 -0.2451 0.0800 Uiso
H8 H 0.1518 -0.4514 0.0616 0.0800 Uiso
H9 H 0.1277 -0.3304 0.1048 0.0800 Uiso
H10 H 0.2057 -0.4801 -0.1122 0.0800 Uiso
Zn1A Zn -0.084582(11) 0.033453(14) 0.48146(3) 0.0211 Uani
Zn1D Zn -0.084582(11) -0.033453(14) -0.01854(3) 0.0211 Uani
Zn1E Zn 0.084582(11) -0.033453(14) 0.51854(3) 0.0211 Uani
Zn1F Zn 0.415418(11) 0.466547(14) -0.01854(3) 0.0211 Uani
O1A O -0.04195(7) 0.04290(9) 0.31846(17) 0.0310 Uani
O2A O 0.03304(7) -0.05669(9) 0.35673(16) 0.0321 Uani
O2D O 0.03304(7) 0.05669(9) -0.14327(16) 0.0321 Uani
O2E O -0.03304(7) 0.05669(9) 0.64327(16) 0.0321 Uani
O3F O 0.36490(7) 0.38149(9) -0.05198(18) 0.0329 Uani
O3A O -0.13510(7) 0.11851(9) 0.44802(18) 0.0329 Uani
O4F O 0.31384(9) 0.42378(11) 0.1139(2) 0.0495 Uani
O5F O 0.22236(9) 0.43187(10) -0.1300(2) 0.0485 Uani
O6F O 0.14978(9) 0.40515(12) -0.0014(3) 0.0695 Uani
C1F C 0.30991(10) 0.24472(14) 0.0296(3) 0.0294 Uani
C2F C 0.28479(10) 0.31242(13) 0.0073(2) 0.0251 Uani
C3F C 0.22404(10) 0.31745(13) -0.0245(3) 0.0276 Uani
C4F C 0.32325(11) 0.37900(14) 0.0257(3) 0.0281 Uani
C5F C 0.19499(12) 0.38973(15) -0.0504(3) 0.0370 Uani
C6A C -0.14990(11) -0.08654(14) 0.6003(3) 0.0335 Uani
C7A C -0.16711(12) -0.15619(14) 0.6214(3) 0.0374 Uani
C8A C -0.15465(11) -0.21079(14) 0.5304(3) 0.0320 Uani
C9A C -0.12601(14) -0.19007(15) 0.4170(3) 0.0473 Uani
C10A C -0.10988(13) -0.11863(15) 0.4014(3) 0.0413 Uani
C11A C -0.17034(12) -0.28750(14) 0.5522(3) 0.0372 Uani
C12A C -0.20560(13) -0.30866(15) 0.6522(3) 0.0433 Uani
C13A C -0.21811(13) -0.38077(16) 0.6725(3) 0.0440 Uani
C14A C -0.1650(3) -0.4130(2) 0.4989(5) 0.1249 Uani
C15A C -0.1504(2) -0.34211(19) 0.4729(5) 0.1067 Uani
N1A N -0.12038(9) -0.06712(11) 0.4925(2) 0.0280 Uani
N2A N -0.19759(13) -0.43223(13) 0.5973(3) 0.0575 Uani
H1F H 0.3547 0.2418 0.0531 0.0800 Uiso
H2A H -0.1597 -0.0500 0.6644 0.0800 Uiso
H3A H -0.1880 -0.1674 0.7001 0.0800 Uiso
H4A H -0.1172 -0.2256 0.3499 0.0800 Uiso
H5A H -0.0900 -0.1051 0.3208 0.0800 Uiso
H6A H -0.2223 -0.2721 0.7094 0.0800 Uiso
H7A H -0.2427 -0.3938 0.7451 0.0800 Uiso
H8A H -0.1518 -0.4514 0.4384 0.0800 Uiso
H9A H -0.1277 -0.3304 0.3952 0.0800 Uiso
H10A H -0.2057 -0.4801 0.6122 0.0800 Uiso
C16 C -0.0348(3) -0.2188(3) -0.1768(6) 0.1241 Uani
C17 C -0.03712(18) -0.2927(2) -0.1734(5) 0.0837 Uani
C18 C 0.0000 -0.3315(2) -0.2500 0.0503 Uani
C19 C 0.0000 -0.4109(2) -0.2500 0.0577 Uani
C20 C -0.0537(5) -0.4480(8) -0.2430(18) 0.0790 Uani
C21 C -0.0512(6) -0.5232(7) -0.249(2) 0.1120 Uani
N3 N 0.0000 -0.1835(3) -0.2500 0.1526 Uani
N4 N 0.0000 -0.5624(4) -0.2500 0.1744 Uani
H11 H -0.0637 -0.1938 -0.1182 0.0800 Uiso
H12 H -0.0634 -0.3186 -0.1161 0.0800 Uiso
H13 H 0.0000 -0.1333 -0.2500 0.0800 Uiso
C16A C 0.0348(3) -0.2188(3) -0.3232(6) 0.1241 Uani
C17A C 0.03712(18) -0.2927(2) -0.3266(5) 0.0837 Uani
C20A C 0.0537(5) -0.4480(8) -0.2570(18) 0.0790 Uani
C21A C 0.0512(6) -0.5232(7) -0.251(2) 0.1120 Uani
H11A H 0.0637 -0.1938 -0.3818 0.0800 Uiso
H12A H 0.0634 -0.3186 -0.3839 0.0800 Uiso
loop_
_atom_site_aniso_label
_atom_site_aniso_U_11
_atom_site_aniso_U_22
_atom_site_aniso_U_33
_atom_site_aniso_U_23
_atom_site_aniso_U_13
_atom_site_aniso_U_12
Zn1 0.02121(15) 0.01798(16) 0.02475(15) -0.00265(12) 0.00543(10) -0.00292(12)
P1 0.0206(4) 0.0222(5) 0.0194(4) 0.000 0.0055(3) 0.000
O1 0.0323(9) 0.0305(10) 0.0330(9) -0.0005(8) 0.0172(8) -0.0078(8)
O2 0.0379(10) 0.0281(10) 0.0288(9) -0.0029(8) -0.0044(8) -0.0048(8)
O3 0.0301(9) 0.0299(10) 0.0407(10) -0.0062(8) 0.0144(8) -0.0126(8)
O4 0.0626(13) 0.0350(12) 0.0558(13) -0.0193(10) 0.0316(11) -0.0220(11)
O5 0.0641(14) 0.0248(11) 0.0600(13) 0.0086(10) 0.0228(11) 0.0057(10)
O6 0.0466(13) 0.0401(13) 0.127(2) 0.0168(14) 0.0360(14) 0.0170(11)
C1 0.0235(12) 0.0248(14) 0.0411(15) -0.0007(12) 0.0091(11) -0.0043(11)
C2 0.0251(12) 0.0202(13) 0.0314(13) -0.0015(11) 0.0100(10) -0.0060(10)
C3 0.0266(13) 0.0200(13) 0.0372(14) -0.0003(11) 0.0089(11) -0.0016(11)
C4 0.0284(13) 0.0224(14) 0.0342(14) 0.0012(12) 0.0065(11) -0.0076(11)
C5 0.0335(15) 0.0237(15) 0.0543(18) -0.0020(13) 0.0072(13) -0.0013(12)
C6 0.0419(15) 0.0264(15) 0.0336(14) -0.0001(12) 0.0115(12) 0.0038(12)
C7 0.0521(17) 0.0276(15) 0.0349(15) 0.0003(12) 0.0169(13) 0.0110(13)
C8 0.0398(15) 0.0237(14) 0.0340(14) 0.0017(12) 0.0109(12) 0.0070(12)
C9 0.070(2) 0.0318(17) 0.0443(17) 0.0085(14) 0.0270(16) 0.0167(15)
C10 0.0566(19) 0.0313(16) 0.0388(16) 0.0024(13) 0.0190(14) 0.0094(14)
C11 0.0510(17) 0.0244(15) 0.0385(15) 0.0031(12) 0.0161(13) 0.0077(13)
C12 0.061(2) 0.0264(16) 0.0464(17) 0.0035(14) 0.0259(15) 0.0091(14)
C13 0.0586(19) 0.0286(16) 0.0482(17) 0.0013(14) 0.0228(15) 0.0085(14)
C14 0.229(6) 0.029(2) 0.140(4) 0.023(2) 0.138(4) 0.028(3)
C15 0.189(5) 0.031(2) 0.121(4) 0.014(2) 0.124(4) 0.024(2)
N1 0.0310(11) 0.0242(11) 0.0294(11) -0.0013(9) 0.0061(9) 0.0034(10)
N2 0.089(2) 0.0189(13) 0.0700(19) 0.0027(13) 0.0361(16) 0.0127(14)
Zn1A 0.02121 0.01798 0.02475 0.00265 0.00543 0.00292
Zn1D 0.02121 0.01798 0.02475 -0.00265 0.00543 -0.00292
Zn1E 0.02121 0.01798 0.02475 0.00265 0.00543 0.00292
Zn1F 0.02121 0.01798 0.02475 -0.00265 0.00543 -0.00292
O1A 0.0323 0.0305 0.033 0.0005 0.0172 0.0078
O2A 0.0379 0.0281 0.0288 0.0029 -0.0044 0.0048
O2D 0.0379 0.0281 0.0288 -0.0029 -0.0044 -0.0048
O2E 0.0379 0.0281 0.0288 0.0029 -0.0044 0.0048
O3F 0.0301 0.0299 0.0407 -0.0062 0.0144 -0.0126
O3A 0.0301 0.0299 0.0407 0.0062 0.0144 0.0126
O4F 0.0626 0.035 0.0558 -0.0193 0.0316 -0.022
O5F 0.0641 0.0248 0.06 0.0086 0.0228 0.0057
O6F 0.0466 0.0401 0.127 0.0168 0.036 0.017
C1F 0.0235 0.0248 0.0411 -0.0007 0.0091 -0.0043
C2F 0.0251 0.0202 0.0314 -0.0015 0.01 -0.006
C3F 0.0266 0.02 0.0372 -0.0003 0.0089 -0.0016
C4F 0.0284 0.0224 0.0342 0.0012 0.0065 -0.0076
C5F 0.0335 0.0237 0.0543 -0.002 0.0072 -0.0013
C6A 0.0419 0.0264 0.0336 0.0001 0.0115 -0.0038
C7A 0.0521 0.0276 0.0349 -0.0003 0.0169 -0.011
C8A 0.0398 0.0237 0.034 -0.0017 0.0109 -0.007
C9A 0.07 0.0318 0.0443 -0.0085 0.027 -0.0167
C10A 0.0566 0.0313 0.0388 -0.0024 0.019 -0.0094
C11A 0.051 0.0244 0.0385 -0.0031 0.0161 -0.0077
C12A 0.061 0.0264 0.0464 -0.0035 0.0259 -0.0091
C13A 0.0586 0.0286 0.0482 -0.0013 0.0228 -0.0085
C14A 0.229 0.029 0.14 -0.023 0.138 -0.028
C15A 0.189 0.031 0.121 -0.014 0.124 -0.024
N1A 0.031 0.0242 0.0294 0.0013 0.0061 -0.0034
N2A 0.089 0.0189 0.07 -0.0027 0.0361 -0.0127
C16 0.147(5) 0.065(4) 0.152(5) -0.050(4) -0.029(4) 0.068(4)
C17 0.090(3) 0.054(2) 0.111(3) -0.011(2) 0.030(3) 0.024(2)
C18 0.054(3) 0.028(2) 0.071(3) 0.000 0.017(2) 0.000
C19 0.061(3) 0.034(3) 0.082(4) 0.000 0.027(3) 0.000
C20 0.089(7) 0.061(6) 0.087(9) 0.013(6) 0.008(6) -0.035(5)
C21 0.180(13) 0.064(9) 0.089(10) 0.012(7) -0.003(8) -0.066(8)
N3 0.234(11) 0.022(3) 0.173(9) 0.000 -0.130(8) 0.000
N4 0.301(15) 0.037(4) 0.186(11) 0.000 0.027(10) 0.000
C16A 0.147 0.065 0.152 0.05 -0.029 -0.068
C17A 0.09 0.054 0.111 0.011 0.03 -0.024
C20A 0.089 0.061 0.087 -0.013 0.008 0.035
C21A 0.18 0.064 0.089 -0.012 -0.003 0.066
loop_
_geom_bond_atom_site_label_1
_geom_bond_atom_site_label_2
_geom_bond_site_symmetry_1
_geom_bond_site_symmetry_2
Zn1 O1 1_555 1_555
P1 O1 1_555 1_555
O2 P1 1_555 1_555
O3 Zn1 1_555 1_555
O4 C4 1_555 1_555
O5 C5 1_555 1_555
O6 C5 1_555 1_555
C1 C2 1_555 1_555
C2 C3 1_555 1_555
C3 C5 1_555 1_555
C4 O3 1_555 1_555
C6 C7 1_555 1_555
C7 C8 1_555 1_555
C8 C9 1_555 1_555
C9 C10 1_555 1_555
C10 N1 1_555 1_555
C11 C8 1_555 1_555
C12 C11 1_555 1_555
C13 C12 1_555 1_555
C14 C15 1_555 1_555
C15 C11 1_555 1_555
C16 C17 1_555 1_555
C17 C18 1_555 1_555
C18 C19 1_555 1_555
C19 C20 1_555 1_555
C20 C21 1_555 1_555
C21 N4 1_555 1_555
N1 Zn1 1_555 1_555
N2 C13 1_555 1_555
N3 C16 1_555 1_555
N4 C21A 1_555 1_555
H1 C1 1_555 1_555
H2 C6 1_555 1_555
H3 C7 1_555 1_555
H4 C9 1_555 1_555
H5 C10 1_555 1_555
H6 C12 1_555 1_555
H7 C13 1_555 1_555
H8 C14 1_555 1_555
H9 C15 1_555 1_555
H10 N2 1_555 1_555
H11 C16 1_555 1_555
H12 C17 1_555 1_555
H13 N3 1_555 1_555
Zn1A O1A 1_555 1_555
Zn1D O2 1_555 1_555
Zn1E O2A 1_555 1_555
Zn1F O3F 1_555 1_555
O1A P1 1_555 1_555
O2A P1 1_555 1_555
O2D Zn1 1_555 1_555
O2E Zn1A 1_555 1_555
O3F C4F 1_555 1_555
O3A Zn1A 1_555 1_555
O4F C4F 1_555 1_555
O5F C5F 1_555 1_555
O6F C5F 1_555 1_555
C1F C3 1_555 1_555
C2F C1F 1_555 1_555
C3F C1 1_555 1_555
C4F C2F 1_555 1_555
C5F C3F 1_555 1_555
C6A C7A 1_555 1_555
C7A C8A 1_555 1_555
C8A C9A 1_555 1_555
C9A C10A 1_555 1_555
C10A N1A 1_555 1_555
C11A C8A 1_555 1_555
C12A C11A 1_555 1_555
C13A C12A 1_555 1_555
C14A C15A 1_555 1_555
C15A C11A 1_555 1_555
C16A N3 1_555 1_555
C17A C18 1_555 1_555
C20A C19 1_555 1_555
C21A C20A 1_555 1_555
N1A Zn1A 1_555 1_555
N2A C13A 1_555 1_555
H1F C1F 1_555 1_555
H2A C6A 1_555 1_555
H3A C7A 1_555 1_555
H4A C9A 1_555 1_555
H5A C10A 1_555 1_555
H6A C12A 1_555 1_555
H7A C13A 1_555 1_555
H8A C14A 1_555 1_555
H9A C15A 1_555 1_555
H10A N2A 1_555 1_555
H11A C16A 1_555 1_555
H12A C17A 1_555 1_555
C2 C4 1_555 1_555
C6 N1 1_555 1_555
C14 N2 1_555 1_555
C2F C3F 1_555 1_555
C6A N1A 1_555 1_555
C14A N2A 1_555 1_555
C16A C17A 1_555 1_555

#END
