
#######################################################################
#
#                 Cambridge Crystallographic Data Centre
#                                CCDC 
#
#######################################################################
#
# If this CIF has been generated from an entry in the Cambridge 
# Structural Database, then it will include bibliographic, chemical, 
# crystal, experimental, refinement or atomic coordinate data resulting 
# from the CCDC's data processing and validation procedures.
#
#######################################################################

data_DACYUE
_chemical_formula_moiety         '(C26 H26 Mg1 N6 O10 2-)n'
_symmetry_cell_setting           monoclinic
_symmetry_space_group_name_H-M   'C 2/c'
_symmetry_Int_Tables_number      15
_space_group_name_Hall           '-C 2yc'
loop_
_symmetry_equiv_pos_site_id
_symmetry_equiv_pos_as_xyz
1 x,y,z
2 -x,y,1/2-z
3 1/2+x,1/2+y,z
4 1/2-x,1/2+y,1/2-z
5 -x,-y,-z
6 x,-y,1/2+z
7 1/2-x,1/2-y,-z
8 1/2+x,1/2-y,1/2+z
_cell_length_a                   10.7621(3)
_cell_length_b                   21.2484(6)
_cell_length_c                   15.5667(5)
_cell_angle_alpha                90
_cell_angle_beta                 102.881(3)
_cell_angle_gamma                90
_cell_volume                     3470.17
loop_
_atom_site_label
_atom_site_type_symbol
_atom_site_fract_x
_atom_site_fract_y
_atom_site_fract_z
_atom_site_U_iso_or_equiv
_atom_site_thermal_displace_type
Mg1 Mg 0.0000 0.14860(4) 0.2500 0.0228 Uani
C1 C -0.08173(19) 0.29299(10) 0.01598(13) 0.0245 Uani
H1 H -0.1021 0.2504 0.0130 0.0290 Uiso
C2 C 0.0390(2) 0.37928(11) 0.09123(14) 0.0279 Uani
H2 H 0.0987 0.3949 0.1391 0.0330 Uiso
C3 C -0.1077(2) 0.39635(10) -0.04824(13) 0.0245 Uani
H3 H -0.1463 0.4235 -0.0932 0.0290 Uiso
C4 C -0.14001(19) 0.33323(10) -0.05203(13) 0.0233 Uani
C5 C -0.0172(2) 0.41902(10) 0.02306(14) 0.0256 Uani
O1 O 0.05753(17) 0.07958(9) 0.17395(12) 0.0443 Uani
C6 C 0.0873(2) 0.02524(12) 0.15803(16) 0.0376 Uani
N1 N 0.2048(2) 0.00202(13) 0.1706(2) 0.0637 Uani
N2 N 0.0044(3) -0.02011(14) 0.1232(3) 0.0764 Uani
C7 C 0.2069(4) -0.06336(18) 0.1440(3) 0.0812 Uani
H4 H 0.2455 -0.0899 0.1934 0.0970 Uiso
H5 H 0.2531 -0.0684 0.0976 0.0970 Uiso
C8 C 0.3192(3) 0.0364(2) 0.2068(3) 0.0769 Uani
H6 H 0.3734 0.0364 0.1655 0.1150 Uiso
H7 H 0.3628 0.0169 0.2607 0.1150 Uiso
H8 H 0.2978 0.0790 0.2184 0.1150 Uiso
C9 C 0.0670(4) -0.07869(18) 0.1112(4) 0.0959 Uani
H9 H 0.0485 -0.0910 0.0496 0.1150 Uiso
H10 H 0.0409 -0.1123 0.1455 0.1150 Uiso
C10 C -0.1318(3) -0.0125(2) 0.1012(3) 0.0836 Uani
H11 H -0.1688 -0.0370 0.1410 0.1260 Uiso
H12 H -0.1648 -0.0266 0.0419 0.1260 Uiso
H13 H -0.1527 0.0311 0.1061 0.1260 Uiso
O2 O 0.03280(14) 0.21790(7) 0.16309(10) 0.0284 Uani
O3 O 0.14232(17) 0.30138(8) 0.22665(11) 0.0432 Uani
C11 C 0.00601(19) 0.31602(10) 0.08771(14) 0.0244 Uani
C12 C 0.0639(2) 0.27351(11) 0.16419(14) 0.0261 Uani
N3 N 0.02326(19) 0.48334(9) 0.03240(12) 0.0318 Uani
O4 O -0.23434(16) 0.25101(7) -0.14401(11) 0.0356 Uani
C13 C -0.2377(2) 0.30985(10) -0.12999(13) 0.0249 Uani
O5 O -0.31161(15) 0.34842(7) -0.17448(10) 0.0312 Uani
C1D C 0.08173(19) 0.70701(10) -0.01598(13) 0.0245 Uani
H1D H 0.1021 0.7496 -0.0130 0.0290 Uiso
C2D C -0.0390(2) 0.62072(11) -0.09123(14) 0.0279 Uani
H2D H -0.0987 0.6051 -0.1391 0.0330 Uiso
C3D C 0.1077(2) 0.60365(10) 0.04824(13) 0.0245 Uani
H3D H 0.1463 0.5765 0.0932 0.0290 Uiso
C4D C 0.14001(19) 0.66677(10) 0.05203(13) 0.0233 Uani
C5D C 0.0172(2) 0.58098(10) -0.02306(14) 0.0256 Uani
O2D O -0.03280(14) 0.78210(7) -0.16309(10) 0.0284 Uani
O3D O -0.14232(17) 0.69862(8) -0.22665(11) 0.0432 Uani
C11D C -0.00601(19) 0.68398(10) -0.08771(14) 0.0244 Uani
C12D C -0.0639(2) 0.72649(11) -0.16419(14) 0.0261 Uani
N3D N -0.02326(19) 0.51666(9) -0.03240(12) 0.0318 Uani
O4D O 0.23434(16) 0.74899(7) 0.14401(11) 0.0356 Uani
C13D C 0.2377(2) 0.69015(10) 0.12999(13) 0.0249 Uani
O5D O 0.31161(15) 0.65158(7) 0.17448(10) 0.0312 Uani
O1A O -0.05753(17) 0.07958(9) 0.32605(12) 0.0443 Uani
C6A C -0.0873(2) 0.02524(12) 0.34197(16) 0.0376 Uani
N1A N -0.2048(2) 0.00202(13) 0.3294(2) 0.0637 Uani
N2A N -0.0044(3) -0.02011(14) 0.3768(3) 0.0764 Uani
C7A C -0.2069(4) -0.06336(18) 0.3560(3) 0.0812 Uani
H4A H -0.2455 -0.0899 0.3066 0.0970 Uiso
H5A H -0.2531 -0.0684 0.4024 0.0970 Uiso
C8A C -0.3192(3) 0.0364(2) 0.2932(3) 0.0769 Uani
H6A H -0.3734 0.0364 0.3345 0.1150 Uiso
H7A H -0.3628 0.0169 0.2393 0.1150 Uiso
H8A H -0.2978 0.0790 0.2816 0.1150 Uiso
C9A C -0.0670(4) -0.07869(18) 0.3888(4) 0.0959 Uani
H9A H -0.0485 -0.0910 0.4504 0.1150 Uiso
H10A H -0.0409 -0.1123 0.3545 0.1150 Uiso
C10A C 0.1318(3) -0.0125(2) 0.3988(3) 0.0836 Uani
H11A H 0.1688 -0.0370 0.3590 0.1260 Uiso
H12A H 0.1648 -0.0266 0.4581 0.1260 Uiso
H13A H 0.1527 0.0311 0.3939 0.1260 Uiso
Mg1B Mg 0.5000 0.64860(4) 0.2500 0.0228 Uani
Mg1D Mg 0.0000 0.85140(4) -0.2500 0.0228 Uani
Mg1F Mg -0.5000 0.35140(4) -0.2500 0.0228 Uani
O2A O -0.03280(14) 0.21790(7) 0.33691(10) 0.0284 Uani
O5F O -0.18839(15) 0.15158(7) 0.17448(10) 0.0312 Uani
O5G O 0.18839(15) 0.15158(7) 0.32552(10) 0.0312 Uani
loop_
_atom_site_aniso_label
_atom_site_aniso_U_11
_atom_site_aniso_U_22
_atom_site_aniso_U_33
_atom_site_aniso_U_23
_atom_site_aniso_U_13
_atom_site_aniso_U_12
Mg1 0.0275(5) 0.0131(5) 0.0230(5) 0.000 -0.0047(4) 0.000
C1 0.0277(10) 0.0189(11) 0.0244(10) 0.0010(9) 0.0003(9) -0.0030(9)
C2 0.0313(11) 0.0202(12) 0.0252(11) 0.0005(9) -0.0084(9) -0.0053(9)
C3 0.0274(10) 0.0204(11) 0.0217(10) 0.0041(9) -0.0032(8) -0.0002(9)
C4 0.0230(10) 0.0215(11) 0.0223(10) -0.0011(9) -0.0013(8) -0.0025(9)
C5 0.0302(11) 0.0169(11) 0.0250(11) 0.0022(9) -0.0037(9) -0.0051(9)
O1 0.0505(10) 0.0336(10) 0.0461(10) -0.0120(8) 0.0047(8) 0.0059(8)
C6 0.0407(13) 0.0311(14) 0.0400(13) -0.0084(11) 0.0068(11) 0.0038(11)
N1 0.0404(13) 0.0478(16) 0.098(2) -0.0233(16) 0.0052(14) 0.0060(11)
N2 0.0462(14) 0.0424(15) 0.135(3) -0.0391(17) 0.0080(16) 0.0028(12)
C7 0.073(2) 0.049(2) 0.119(3) -0.024(2) 0.016(2) 0.0204(18)
C8 0.0430(16) 0.091(3) 0.092(3) -0.025(2) 0.0050(17) 0.0025(18)
C9 0.080(3) 0.043(2) 0.161(4) -0.040(3) 0.019(3) 0.0022(19)
C10 0.0444(17) 0.074(3) 0.125(3) -0.040(3) 0.003(2) -0.0087(17)
O2 0.0355(8) 0.0183(8) 0.0266(8) 0.0055(6) -0.0030(6) -0.0026(6)
O3 0.0540(10) 0.0234(9) 0.0359(9) 0.0100(7) -0.0250(8) -0.0097(8)
C11 0.0255(10) 0.0192(11) 0.0249(11) 0.0041(9) -0.0023(9) -0.0023(9)
C12 0.0289(11) 0.0208(12) 0.0247(11) 0.0036(9) -0.0025(9) -0.0013(9)
N3 0.0407(11) 0.0166(10) 0.0300(9) 0.0038(7) -0.0095(8) -0.0062(8)
O4 0.0428(9) 0.0215(9) 0.0320(9) -0.0044(7) -0.0143(7) 0.0007(7)
C13 0.0271(10) 0.0227(12) 0.0208(10) 0.0008(9) -0.0031(9) -0.0030(9)
O5 0.0321(8) 0.0222(8) 0.0313(8) 0.0050(7) -0.0103(7) -0.0033(7)
C1D 0.0277 0.0189 0.0244 0.001 0.0003 -0.003
C2D 0.0313 0.0202 0.0252 0.0005 -0.0084 -0.0053
C3D 0.0274 0.0204 0.0217 0.0041 -0.0032 -0.0002
C4D 0.023 0.0215 0.0223 -0.0011 -0.0013 -0.0025
C5D 0.0302 0.0169 0.025 0.0022 -0.0037 -0.0051
O2D 0.0355 0.0183 0.0266 0.0055 -0.003 -0.0026
O3D 0.054 0.0234 0.0359 0.01 -0.025 -0.0097
C11D 0.0255 0.0192 0.0249 0.0041 -0.0023 -0.0023
C12D 0.0289 0.0208 0.0247 0.0036 -0.0025 -0.0013
N3D 0.0407 0.0166 0.03 0.0038 -0.0095 -0.0062
O4D 0.0428 0.0215 0.032 -0.0044 -0.0143 0.0007
C13D 0.0271 0.0227 0.0208 0.0008 -0.0031 -0.003
O5D 0.0321 0.0222 0.0313 0.005 -0.0103 -0.0033
O1A 0.0505 0.0336 0.0461 0.012 0.0047 -0.0059
C6A 0.0407 0.0311 0.04 0.0084 0.0068 -0.0038
N1A 0.0404 0.0478 0.098 0.0233 0.0052 -0.006
N2A 0.0462 0.0424 0.135 0.0391 0.008 -0.0028
C7A 0.073 0.049 0.119 0.024 0.016 -0.0204
C8A 0.043 0.091 0.092 0.025 0.005 -0.0025
C9A 0.08 0.043 0.161 0.04 0.019 -0.0022
C10A 0.0444 0.074 0.125 0.04 0.003 0.0087
Mg1B 0.0275 0.0131 0.023 0 -0.0047 0
Mg1D 0.0275 0.0131 0.023 0 -0.0047 0
Mg1F 0.0275 0.0131 0.023 0 -0.0047 0
O2A 0.0355 0.0183 0.0266 -0.0055 -0.003 0.0026
O5F 0.0321 0.0222 0.0313 0.005 -0.0103 -0.0033
O5G 0.0321 0.0222 0.0313 -0.005 -0.0103 0.0033
loop_
_geom_bond_atom_site_label_1
_geom_bond_atom_site_label_2
_geom_bond_site_symmetry_1
_geom_bond_site_symmetry_2
Mg1 O1 1_555 1_555
C1 H1 1_555 1_555
C2 H2 1_555 1_555
C3 H3 1_555 1_555
C4 C1 1_555 1_555
C5 C2 1_555 1_555
O1 C6 1_555 1_555
C6 N1 1_555 1_555
N1 C7 1_555 1_555
N2 C6 1_555 1_555
C7 H4 1_555 1_555
H5 C7 1_555 1_555
C8 N1 1_555 1_555
H6 C8 1_555 1_555
H7 C8 1_555 1_555
H8 C8 1_555 1_555
C9 N2 1_555 1_555
H9 C9 1_555 1_555
H10 C9 1_555 1_555
C10 N2 1_555 1_555
H11 C10 1_555 1_555
H12 C10 1_555 1_555
H13 C10 1_555 1_555
O2 Mg1 1_555 1_555
O3 C12 1_555 1_555
C11 C1 1_555 1_555
C12 O2 1_555 1_555
N3 C5 1_555 1_555
O4 C13 1_555 1_555
C13 C4 1_555 1_555
O5 C13 1_555 1_555
C1D H1D 1_555 1_555
C2D H2D 1_555 1_555
C3D H3D 1_555 1_555
C4D C1D 1_555 1_555
C5D C2D 1_555 1_555
O2D C12D 1_555 1_555
O3D C12D 1_555 1_555
C11D C1D 1_555 1_555
C12D C11D 1_555 1_555
N3D N3 1_555 1_555
O4D C13D 1_555 1_555
C13D C4D 1_555 1_555
O5D C13D 1_555 1_555
O1A Mg1 1_555 1_555
C6A O1A 1_555 1_555
N1A C6A 1_555 1_555
N2A C6A 1_555 1_555
C7A N1A 1_555 1_555
H4A C7A 1_555 1_555
H5A C7A 1_555 1_555
C8A N1A 1_555 1_555
H6A C8A 1_555 1_555
H7A C8A 1_555 1_555
H8A C8A 1_555 1_555
C9A N2A 1_555 1_555
H9A C9A 1_555 1_555
H10A C9A 1_555 1_555
C10A N2A 1_555 1_555
H11A C10A 1_555 1_555
H12A C10A 1_555 1_555
H13A C10A 1_555 1_555
Mg1B O5D 1_555 1_555
Mg1D O2D 1_555 1_555
Mg1F O5 1_555 1_555
O2A Mg1 1_555 1_555
O5F Mg1 1_555 1_555
O5G Mg1 1_555 1_555
C2 C11 1_555 1_555
C3 C4 1_555 1_555
C3 C5 1_555 1_555
C7 C9 1_555 1_555
C11 C12 1_555 1_555
C2D C11D 1_555 1_555
C3D C4D 1_555 1_555
C3D C5D 1_555 1_555
C5D N3D 1_555 1_555
C7A C9A 1_555 1_555

#END
