
#######################################################################
#
#                 Cambridge Crystallographic Data Centre
#                                CCDC 
#
#######################################################################
#
# If this CIF has been generated from an entry in the Cambridge 
# Structural Database, then it will include bibliographic, chemical, 
# crystal, experimental, refinement or atomic coordinate data resulting 
# from the CCDC's data processing and validation procedures.
#
#######################################################################

data_HUVHIR
_chemical_formula_moiety         '(C17 H37 N8 O20 P3 Zn3)n'
_symmetry_cell_setting           triclinic
_symmetry_space_group_name_H-M   'P -1'
_symmetry_Int_Tables_number      2
_space_group_name_Hall           '-P 1'
loop_
_symmetry_equiv_pos_site_id
_symmetry_equiv_pos_as_xyz
1 x,y,z
2 -x,-y,-z
_cell_length_a                   10.137(6)
_cell_length_b                   11.802(7)
_cell_length_c                   13.768(8)
_cell_angle_alpha                86.899(12)
_cell_angle_beta                 89.523(9)
_cell_angle_gamma                88.343(11)
_cell_volume                     1644.02
loop_
_atom_site_label
_atom_site_type_symbol
_atom_site_fract_x
_atom_site_fract_y
_atom_site_fract_z
Zn1 Zn 0.15736(8) 0.51598(8) 0.39554(6)
Zn2 Zn 0.55467(9) 0.57495(9) 0.37833(7)
Zn3 Zn 0.62257(11) 0.11009(10) -0.11254(9)
P1 P 0.3750(2) 0.3440(2) 0.42563(17)
P2 P 0.6707(2) 0.3352(2) -0.22994(15)
P3 P 0.84407(18) 0.46155(19) 0.37929(15)
O1 O 0.2294(5) 0.3604(5) 0.4049(4)
O2 O 0.4443(8) 0.4517(7) 0.3927(8)
O3 O 0.4009(8) 0.3070(7) 0.5301(5)
O4 O 0.4079(8) 0.0364(6) 0.1730(6)
O5 O 0.1931(10) 0.0418(8) 0.1759(12)
O6 O 0.7821(6) 0.3901(6) -0.2846(4)
O7 O 0.7159(7) 0.2158(6) -0.1897(5)
O8 O 0.5448(6) 0.3249(6) -0.2845(5)
O9 O 0.4405(7) 0.1451(6) -0.0850(6)
O10 O 0.2432(7) 0.2162(7) -0.0545(7)
O11 O 0.7301(5) 0.5343(6) 0.3370(5)
O12 O 0.9679(5) 0.5315(5) 0.3721(5)
O13 O 0.8182(6) 0.4131(5) 0.4816(4)
O14 O 1.1033(7) 0.3673(7) 0.0267(5)
H1 H 1.1462 0.3164 0.0018
O15 O 0.9855(8) 0.2250(7) 0.0847(7)
O16 O 0.6846(19) 0.0682(12) 0.0212(10)
N1 N 0.4166(7) 0.2462(6) 0.2528(5)
N2 N 0.8394(7) 0.3630(7) 0.2032(5)
N3 N 0.5516(7) 0.3591(7) -0.0547(5)
N4 N 0.4835(7) 0.2998(7) 0.0982(5)
N5 N 0.6297(7) 0.3031(6) 0.2310(5)
N6 N 0.7014(7) 0.3646(6) 0.0710(5)
C1 C 0.5143(8) 0.2831(8) 0.1930(6)
C2 C 0.5811(9) 0.3421(8) 0.0419(6)
C3 C 0.7191(8) 0.3432(7) 0.1675(6)
C4 C 0.4394(8) 0.2275(7) 0.3576(6)
H2 H 0.5334 0.2180 0.3691
H3 H 0.3976 0.1581 0.3808
C5 C 0.2941(8) 0.2068(8) 0.2148(7)
H4 H 0.2694 0.2555 0.1585
H5 H 0.2256 0.2153 0.2637
C6 C 0.2978(11) 0.0853(10) 0.1856(9)
C7 C 0.6405(9) 0.4165(8) -0.1242(7)
H6 H 0.7237 0.4288 -0.0927
H7 H 0.6021 0.4901 -0.1446
C8 C 0.4122(8) 0.3486(9) -0.0812(6)
H8 H 0.4004 0.3775 -0.1479
H9 H 0.3581 0.3957 -0.0401
C9 C 0.3637(9) 0.2293(9) -0.0716(7)
C10 C 0.8688(8) 0.3403(8) 0.3061(6)
H10 H 0.9599 0.3136 0.3121
H11 H 0.8134 0.2798 0.3316
C11 C 0.9416(8) 0.4132(8) 0.1400(6)
H12 H 1.0055 0.4493 0.1793
H13 H 0.9017 0.4710 0.0959
C12 C 1.0112(9) 0.3234(9) 0.0817(7)
Zn1_2 Zn 1.15736(8) 0.51598(8) 0.39554(6)
Zn1A Zn 0.84264(8) 0.48402(8) -0.39554(6)
Zn1A_2 Zn 0.84264(8) 0.48402(8) 0.60446(6)
Zn2A Zn 0.44533(9) 0.42505(9) -0.37833(7)
Zn2A_2 Zn 0.44533(9) 0.42505(9) 0.62167(7)
Zn3A Zn 0.37743(11) -0.11009(10) 0.11254(9)
O3A O 0.5991(8) 0.6930(7) 0.4699(5)
O4A O 0.5921(8) -0.0364(6) -0.1730(6)
O6A O 0.2179(6) 0.6099(6) 0.2846(4)
O8A O 0.4552(6) 0.6751(6) 0.2845(5)
O12_2 O -0.0321(5) 0.5315(5) 0.3721(5)
O13A O 0.1818(6) 0.5869(5) 0.5184(4)
O17 O 0.689(3) 0.202(2) 0.526(2)
O18 O 1.0000 0.0000 0.0000
O19 O 0.492(3) 0.0972(18) 0.6443(19)
O20 O 0.095(3) -0.0800(12) 0.7591(17)
N7 N -0.0455(15) 0.1339(15) 0.732(2)
H14 H -0.1228 0.1355 0.7644
H15 H -0.0105 0.0632 0.7415
N8 N 0.1453(15) 0.2377(14) 0.6220(13)
H16 H 0.1324 0.3130 0.6106
H17 H 0.2226 0.2199 0.5932
C13 C 0.0422(16) 0.2110(19) 0.7781(14)
H18 H 0.0585 0.1832 0.8446
H19 H -0.0008 0.2854 0.7799
C14 C 0.1684(18) 0.2212(18) 0.7259(16)
H20 H 0.2154 0.2850 0.7486
H21 H 0.2224 0.1530 0.7389
C15 C -0.077(5) 0.152(5) 0.623(3)
H22 H -0.1073 0.0817 0.5977
H23 H -0.1457 0.2098 0.6125
C16 C 0.0505(18) 0.188(2) 0.569(2)
H24 H 0.0912 0.1132 0.5856
C17 C -0.004(11) 0.143(4) 0.471(3)
H25 H 0.0606 0.1540 0.4201
H26 H -0.0840 0.1846 0.4528
H27 H -0.0221 0.0638 0.4799
loop_
_geom_bond_atom_site_label_1
_geom_bond_atom_site_label_2
_geom_bond_site_symmetry_1
_geom_bond_site_symmetry_2
Zn1 O1 1_555 1_555
Zn2 O2 1_555 1_555
Zn3 O7 1_555 1_555
P1 O1 1_555 1_555
P2 O6 1_555 1_555
P3 O11 1_555 1_555
O2 P1 1_555 1_555
O3 P1 1_555 1_555
O4 C6 1_555 1_555
O5 C6 1_555 1_555
O6 Zn1A 1_555 1_555
O7 P2 1_555 1_555
O8 P2 1_555 1_555
O9 Zn3 1_555 1_555
O10 C9 1_555 1_555
O11 Zn2 1_555 1_555
O12 P3 1_555 1_555
O13 P3 1_555 1_555
O14 H1 1_555 1_555
O15 C12 1_555 1_555
O16 Zn3 1_555 1_555
N1 C1 1_555 1_555
N2 C3 1_555 1_555
N3 C2 1_555 1_555
N4 C1 1_555 1_555
N5 C1 1_555 1_555
N6 C2 1_555 1_555
C2 N4 1_555 1_555
C3 N5 1_555 1_555
C4 P1 1_555 1_555
H2 C4 1_555 1_555
H3 C4 1_555 1_555
C5 N1 1_555 1_555
H4 C5 1_555 1_555
H5 C5 1_555 1_555
C6 C5 1_555 1_555
C7 P2 1_555 1_555
H6 C7 1_555 1_555
H7 C7 1_555 1_555
C8 N3 1_555 1_555
H8 C8 1_555 1_555
H9 C8 1_555 1_555
C9 O9 1_555 1_555
C10 P3 1_555 1_555
H10 C10 1_555 1_555
H11 C10 1_555 1_555
C11 N2 1_555 1_555
H12 C11 1_555 1_555
H13 C11 1_555 1_555
C12 O14 1_555 1_555
N7 H14 1_555 1_555
H15 N7 1_555 1_555
N8 H16 1_555 1_555
H17 N8 1_555 1_555
C13 N7 1_555 1_555
H18 C13 1_555 1_555
H19 C13 1_555 1_555
C14 N8 1_555 1_555
H20 C14 1_555 1_555
H21 C14 1_555 1_555
C15 N7 1_555 1_555
H22 C15 1_555 1_555
H23 C15 1_555 1_555
C16 N8 1_555 1_555
H24 C16 1_555 1_555
C17 C16 1_555 1_555
H25 C17 1_555 1_555
H26 C17 1_555 1_555
H27 C17 1_555 1_555
Zn1_2 O12 1_555 1_555
Zn1A_2 O13 1_555 1_555
Zn2A O8 1_555 1_555
Zn2A_2 O3 1_555 1_555
Zn3A O4 1_555 1_555
O3A Zn2 1_555 1_555
O4A Zn3 1_555 1_555
O6A Zn1 1_555 1_555
O8A Zn2 1_555 1_555
O12_2 Zn1 1_555 1_555
O13A Zn1 1_555 1_555
N1 C4 1_555 1_555
N2 C10 1_555 1_555
N3 C7 1_555 1_555
N6 C3 1_555 1_555
C8 C9 1_555 1_555
C11 C12 1_555 1_555
C13 C14 1_555 1_555
C15 C16 1_555 1_555

#END
