
#######################################################################
#
#                 Cambridge Crystallographic Data Centre
#                                CCDC 
#
#######################################################################
#
# If this CIF has been generated from an entry in the Cambridge 
# Structural Database, then it will include bibliographic, chemical, 
# crystal, experimental, refinement or atomic coordinate data resulting 
# from the CCDC's data processing and validation procedures.
#
#######################################################################

data_HUVHOX
_chemical_formula_moiety         '(C16 H11 N8 O12 P2 Zn2 2-)n'
_symmetry_cell_setting           orthorhombic
_symmetry_space_group_name_H-M   'P n m a'
_symmetry_Int_Tables_number      62
_space_group_name_Hall           '-P 2ac 2n'
loop_
_symmetry_equiv_pos_site_id
_symmetry_equiv_pos_as_xyz
1 x,y,z
2 1/2-x,-y,1/2+z
3 -x,1/2+y,-z
4 1/2+x,1/2-y,1/2-z
5 -x,-y,-z
6 1/2+x,y,1/2-z
7 x,1/2-y,z
8 1/2-x,1/2+y,1/2+z
_cell_length_a                   15.444(8)
_cell_length_b                   17.895(10)
_cell_length_c                   8.979(5)
_cell_angle_alpha                90
_cell_angle_beta                 90
_cell_angle_gamma                90
_cell_volume                     2481.53
loop_
_atom_site_label
_atom_site_type_symbol
_atom_site_fract_x
_atom_site_fract_y
_atom_site_fract_z
O7 O 0.2286(4) 0.5623(4) 0.2168(7)
N4 N 0.2128(8) 0.7500 0.0575(14)
N5 N 0.3854(11) 0.7174(7) 0.1700(14)
C6 C 0.2695(8) 0.6726(7) 0.0114(12)
C7 C 0.3650(10) 0.6883(10) 0.0102(16)
C8 C 0.2419(8) 0.7500 0.2149(13)
C9 C 0.3804(11) 0.6316(9) -0.0215(16)
N5F N 0.3854(11) 0.7826(7) 0.1700(14)
C6F C 0.2695(8) 0.8274(7) 0.0114(12)
C7F C 0.3650(10) 0.8117(10) 0.0102(16)
C9F C 0.3804(11) 0.8684(9) -0.0215(16)
Zn1 Zn 0.08578(4) 0.39508(3) 0.05717(7)
P1 P -0.01326(9) 0.51468(7) 0.23076(14)
O1 O 0.0738(2) 0.4800(2) 0.1954(5)
O2 O -0.0355(3) 0.5807(2) 0.1351(4)
O3 O -0.0191(3) 0.5375(2) 0.3934(4)
O4 O -0.2913(2) 0.3921(2) 0.4970(5)
O5 O -0.2718(3) 0.3595(3) 0.2627(6)
O6 O 0.0954(4) 0.2500 -0.0049(6)
N1 N -0.0919(3) 0.3781(2) 0.2901(5)
N2 N 0.0041(3) 0.3163(2) 0.1368(5)
N3 N -0.0848(4) 0.2500 0.3050(7)
C1 C -0.0949(3) 0.4440(3) 0.1932(6)
H1 H -0.1515 0.4669 0.2024
H2 H -0.0885 0.4276 0.0908
C2 C -0.1479(3) 0.3801(3) 0.4189(6)
H3 H -0.1365 0.4259 0.4733
H4 H -0.1328 0.3387 0.4836
C3 C -0.2434(4) 0.3760(3) 0.3860(7)
C4 C -0.0563(3) 0.3129(3) 0.2447(6)
C5 C 0.0366(5) 0.2500 0.0871(8)
P1F P -0.01326(9) -0.01468(7) 0.23076(14)
O1F O 0.0738(2) 0.0200(2) 0.1954(5)
O2F O -0.0355(3) -0.0807(2) 0.1351(4)
O3F O -0.0191(3) -0.0375(2) 0.3934(4)
O4F O -0.2913(2) 0.1079(2) 0.4970(5)
O5F O -0.2718(3) 0.1405(3) 0.2627(6)
N1F N -0.0919(3) 0.1219(2) 0.2901(5)
N2F N 0.0041(3) 0.1837(2) 0.1368(5)
C1F C -0.0949(3) 0.0560(3) 0.1932(6)
H1F H -0.1515 0.0331 0.2024
H2F H -0.0885 0.0724 0.0908
C2F C -0.1479(3) 0.1199(3) 0.4189(6)
H3F H -0.1365 0.0741 0.4733
H4F H -0.1328 0.1613 0.4836
C3F C -0.2434(4) 0.1240(3) 0.3860(7)
C4F C -0.0563(3) 0.1871(3) 0.2447(6)
Zn1D Zn -0.08578(4) 0.60492(3) -0.05717(7)
Zn1B Zn -0.08578(4) -0.10492(3) -0.05717(7)
Zn1C Zn -0.41422(4) 0.10492(3) 0.44283(7)
Zn1E Zn -0.41422(4) 0.39508(3) 0.44283(7)
Zn1F Zn 0.08578(4) 0.10492(3) 0.05717(7)
O1D O -0.0738(2) 0.5200(2) -0.1954(5)
O2D O 0.0355(3) 0.4193(2) -0.1351(4)
O4A O -0.2087(2) 0.6079(2) -0.0030(5)
O4E O 0.2087(2) 0.3921(2) 0.0030(5)
N2D N -0.0041(3) 0.6837(2) -0.1368(5)
loop_
_geom_bond_atom_site_label_1
_geom_bond_atom_site_label_2
_geom_bond_site_symmetry_1
_geom_bond_site_symmetry_2
Zn1 O1 1_555 1_555
P1 O1 1_555 1_555
O2 P1 1_555 1_555
O3 P1 1_555 1_555
O4 C3 1_555 1_555
O5 C3 1_555 1_555
O6 C5 1_555 1_555
N1 C1 1_555 1_555
N2 Zn1 1_555 1_555
N3 C4 1_555 1_555
C1 P1 1_555 1_555
H1 C1 1_555 1_555
H2 C1 1_555 1_555
C2 N1 1_555 1_555
H3 C2 1_555 1_555
H4 C2 1_555 1_555
C3 C2 1_555 1_555
C4 N1 1_555 1_555
C5 N2 1_555 1_555
N4 C6 1_555 1_555
N5 C7 1_555 1_555
C6 C7 1_555 1_555
C7 C9 1_555 1_555
C8 N4 1_555 1_555
P1F O1F 1_555 1_555
O1F Zn1F 1_555 1_555
O2F P1F 1_555 1_555
O3F P1F 1_555 1_555
O4F C3F 1_555 1_555
O5F C3F 1_555 1_555
N1F C1F 1_555 1_555
N2F C5 1_555 1_555
C1F P1F 1_555 1_555
H1F C1F 1_555 1_555
H2F C1F 1_555 1_555
C2F N1F 1_555 1_555
H3F C2F 1_555 1_555
H4F C2F 1_555 1_555
C3F C2F 1_555 1_555
C4F N3 1_555 1_555
Zn1D O2 1_555 1_555
Zn1B O2F 1_555 1_555
Zn1C O4F 1_555 1_555
Zn1E O4 1_555 1_555
Zn1F N2F 1_555 1_555
O1D Zn1D 1_555 1_555
O2D Zn1 1_555 1_555
O4A Zn1D 1_555 1_555
O4E Zn1 1_555 1_555
N2D Zn1D 1_555 1_555
N5F N5 1_555 1_555
C6F N4 1_555 1_555
C7F N5F 1_555 1_555
C9F C7F 1_555 1_555
N2 C4 1_555 1_555
N1F C4F 1_555 1_555
N2F C4F 1_555 1_555
C6F C7F 1_555 1_555

#END
