
#######################################################################
#
#                 Cambridge Crystallographic Data Centre
#                                CCDC 
#
#######################################################################
#
# If this CIF has been generated from an entry in the Cambridge 
# Structural Database, then it will include bibliographic, chemical, 
# crystal, experimental, refinement or atomic coordinate data resulting 
# from the CCDC's data processing and validation procedures.
#
#######################################################################

data_KOKDEU
_chemical_formula_moiety         '(C158 H108 B1 Cu17 F4 N50 2+)n'
_symmetry_cell_setting           monoclinic
_symmetry_space_group_name_H-M   'C 2/c'
_symmetry_Int_Tables_number      15
_space_group_name_Hall           '-C 2yc'
loop_
_symmetry_equiv_pos_site_id
_symmetry_equiv_pos_as_xyz
1 x,y,z
2 1/2+x,1/2+y,z
3 -x,y,1/2-z
4 1/2-x,1/2+y,1/2-z
5 -x,-y,-z
6 1/2-x,1/2-y,-z
7 x,-y,1/2+z
8 1/2+x,1/2-y,1/2+z
_cell_length_a                   15.5804(8)
_cell_length_b                   25.5721(13)
_cell_length_c                   40.857(2)
_cell_angle_alpha                90
_cell_angle_beta                 96.3970(10)
_cell_angle_gamma                90
_cell_volume                     16177
loop_
_atom_site_label
_atom_site_type_symbol
_atom_site_fract_x
_atom_site_fract_y
_atom_site_fract_z
Cu1 Cu 0.24577(6) 0.11813(3) 0.17109(2)
Cu2 Cu 0.56396(6) 0.63594(3) 0.08911(2)
Cu3 Cu 0.06249(6) 0.09474(3) 0.15668(2)
Cu4 Cu 0.17542(6) 0.21428(4) 0.13084(2)
Cu5 Cu 0.25151(6) 0.08821(3) 0.09673(2)
Cu6 Cu 0.5000 0.35106(5) 0.2500
Cu7 Cu 0.70687(7) -0.01169(4) 0.16948(2)
Cu8 Cu 0.37683(7) -0.12229(4) -0.00605(2)
Cu9 Cu 0.66580(9) 0.52851(5) -0.06869(3)
N1 N 0.3958(4) 0.3033(2) 0.23735(16)
N2 N 0.1703(4) 0.1618(2) 0.19473(15)
N3 N 0.0857(4) 0.1469(2) 0.18832(15)
N4 N -0.2397(7) 0.1843(6) 0.1852(3)
N5 N 0.6047(5) 0.0439(3) 0.16416(18)
N6 N 0.3315(4) 0.1603(2) 0.14605(16)
N7 N 0.2946(4) 0.2059(2) 0.13364(16)
N8 N 0.3255(7) 0.3889(3) 0.0818(2)
N9 N 0.2649(5) -0.0138(3) 0.28073(15)
N10 N 0.2597(4) 0.0448(2) 0.15988(13)
N11 N 0.2745(4) 0.0350(2) 0.12803(13)
N12 N 0.3500(4) -0.0869(2) 0.03568(15)
N13 N 0.6343(5) 0.5249(3) -0.02428(16)
N14 N 0.5572(4) 0.5604(2) 0.09322(14)
N15 N 0.5457(4) 0.5434(2) 0.12419(13)
N16 N 0.5215(5) 0.3985(2) 0.21063(15)
N17 N 0.2170(5) 0.6451(3) 0.04062(17)
N18 N 0.5039(4) 0.6935(2) 0.10867(15)
N19 N 0.5582(4) 0.7299(2) 0.12484(15)
N20 N 0.6344(5) 0.9176(3) 0.15989(17)
N21 N 0.4563(5) 0.8098(3) 0.00634(17)
N22 N 0.6541(4) 0.6656(2) 0.06072(15)
N23 N 0.7276(4) 0.6360(2) 0.06235(14)
N24 N 1.0117(5) 0.5797(3) 0.0203(2)
C1 C 0.3328(6) 0.2222(4) 0.2171(2)
H1 H 0.3416 0.1888 0.2091
C2 C 0.4023(6) 0.2552(4) 0.2249(2)
H2 H 0.4569 0.2433 0.2214
C3 C 0.3161(5) 0.3178(3) 0.2422(2)
H3 H 0.3091 0.3505 0.2515
C4 C 0.2432(6) 0.2876(3) 0.2345(2)
H4 H 0.1892 0.3002 0.2383
C5 C 0.2512(5) 0.2386(3) 0.22104(19)
C6 C 0.1720(5) 0.2079(3) 0.2112(2)
C7 C 0.0877(5) 0.2226(3) 0.2151(2)
H5 H 0.0703 0.2523 0.2257
C8 C 0.0351(5) 0.1840(3) 0.19994(19)
C9 C -0.0590(6) 0.1821(4) 0.1950(2)
C10 C -0.1056(7) 0.2281(5) 0.1958(3)
H6 H -0.0762 0.2594 0.2003
C11 C -0.1930(8) 0.2287(6) 0.1903(3)
H7 H -0.2217 0.2606 0.1900
C12 C -0.1959(9) 0.1413(6) 0.1836(4)
H8 H -0.2260 0.1103 0.1790
C13 C -0.1044(8) 0.1394(5) 0.1883(3)
H9 H -0.0763 0.1076 0.1866
C14 C 0.4684(5) 0.0813(3) 0.1729(2)
H10 H 0.4186 0.0788 0.1834
C15 C 0.5337(6) 0.0439(3) 0.1786(2)
H11 H 0.5264 0.0174 0.1937
C16 C 0.6149(6) 0.0827(4) 0.1429(2)
H12 H 0.6640 0.0829 0.1319
C17 C 0.5548(6) 0.1226(4) 0.1367(2)
H13 H 0.5656 0.1499 0.1227
C18 C 0.4787(5) 0.1219(3) 0.1513(2)
C19 C 0.4169(5) 0.1639(3) 0.1434(2)
C20 C 0.4346(6) 0.2113(3) 0.1300(2)
H14 H 0.4883 0.2239 0.1258
C21 C 0.3567(5) 0.2365(3) 0.1241(2)
C22 C 0.3414(6) 0.2890(3) 0.1097(2)
C23 C 0.4012(9) 0.3252(5) 0.1148(5)
H15 H 0.4514 0.3187 0.1287
C24 C 0.3886(11) 0.3737(5) 0.0990(6)
H16 H 0.4344 0.3972 0.1023
C25 C 0.2652(12) 0.3555(6) 0.0785(4)
H17 H 0.2134 0.3655 0.0667
C26 C 0.2702(10) 0.3030(5) 0.0917(3)
H18 H 0.2243 0.2798 0.0875
C27 C 0.2153(7) 0.0267(4) 0.2293(2)
H19 H 0.1793 0.0515 0.2183
C28 C 0.2178(7) 0.0215(4) 0.2628(2)
H20 H 0.1843 0.0442 0.2738
C29 C 0.3103(7) -0.0466(4) 0.2635(2)
H21 H 0.3427 -0.0728 0.2748
C30 C 0.3110(7) -0.0435(4) 0.2303(2)
H22 H 0.3425 -0.0678 0.2196
C31 C 0.2657(5) -0.0046(3) 0.21201(18)
C32 C 0.2714(5) -0.0002(3) 0.17689(17)
C33 C 0.2937(5) -0.0393(3) 0.15609(18)
H23 H 0.3053 -0.0742 0.1614
C34 C 0.2951(5) -0.0156(3) 0.12558(17)
C35 C 0.3140(5) -0.0399(3) 0.09412(17)
C36 C 0.2920(6) -0.0908(3) 0.08735(19)
H24 H 0.2650 -0.1105 0.1024
C37 C 0.3105(5) -0.1129(3) 0.0577(2)
H25 H 0.2944 -0.1474 0.0533
C38 C 0.3722(6) -0.0370(3) 0.0425(2)
H26 H 0.4003 -0.0181 0.0274
C39 C 0.3546(6) -0.0129(3) 0.0713(2)
H27 H 0.3704 0.0218 0.0753
C40 C 0.5665(6) 0.5631(3) 0.02046(19)
H28 H 0.5356 0.5909 0.0280
C41 C 0.5903(7) 0.5633(3) -0.0114(2)
H29 H 0.5745 0.5921 -0.0246
C42 C 0.6527(7) 0.4845(4) -0.0047(2)
H30 H 0.6813 0.4565 -0.0131
C43 C 0.6335(6) 0.4805(3) 0.0266(2)
H31 H 0.6494 0.4507 0.0388
C44 C 0.5898(5) 0.5207(3) 0.04074(16)
C45 C 0.5704(5) 0.5176(3) 0.07508(17)
C46 C 0.5701(5) 0.4729(3) 0.09457(18)
H32 H 0.5794 0.4386 0.0883
C47 C 0.5532(5) 0.4904(3) 0.12525(16)
C48 C 0.5421(5) 0.4602(3) 0.15519(17)
C49 C 0.5809(6) 0.4109(3) 0.15978(18)
H33 H 0.6149 0.3976 0.1444
C50 C 0.5678(6) 0.3823(3) 0.1875(2)
H34 H 0.5934 0.3495 0.1900
C51 C 0.4824(6) 0.4452(3) 0.2055(2)
H35 H 0.4466 0.4568 0.2207
C52 C 0.4928(6) 0.4766(3) 0.17880(19)
H36 H 0.4661 0.5091 0.1769
C53 C 0.3312(7) 0.6375(4) 0.0843(2)
H37 H 0.3621 0.6157 0.0996
C54 C 0.2617(7) 0.6177(4) 0.0635(3)
H38 H 0.2463 0.5829 0.0661
C55 C 0.2374(10) 0.6950(5) 0.0393(4)
H39 H 0.2045 0.7160 0.0241
C56 C 0.3037(9) 0.7180(5) 0.0588(4)
H40 H 0.3154 0.7534 0.0563
C57 C 0.3540(5) 0.6886(3) 0.0825(2)
C58 C 0.4253(5) 0.7152(3) 0.10256(19)
C59 C 0.4269(5) 0.7660(3) 0.1145(2)
H41 H 0.3812 0.7896 0.1135
C60 C 0.5114(5) 0.7743(3) 0.12845(18)
C61 C 0.5524(5) 0.8230(3) 0.14072(19)
C62 C 0.5144(7) 0.8706(4) 0.1347(3)
H42 H 0.4591 0.8722 0.1235
C63 C 0.5550(7) 0.9154(4) 0.1447(3)
H43 H 0.5253 0.9467 0.1405
C64 C 0.6723(7) 0.8722(4) 0.1653(2)
H44 H 0.7289 0.8718 0.1754
C65 C 0.6338(6) 0.8255(3) 0.1571(2)
H45 H 0.6635 0.7947 0.1627
C66 C 0.5514(6) 0.7645(3) 0.0463(2)
H46 H 0.5739 0.7613 0.0682
C67 C 0.4903(6) 0.8018(3) 0.0375(2)
H47 H 0.4715 0.8227 0.0539
C68 C 0.4821(7) 0.7780(4) -0.0160(2)
H48 H 0.4576 0.7814 -0.0377
C69 C 0.5450(7) 0.7393(4) -0.0084(2)
H49 H 0.5630 0.7187 -0.0252
C70 C 0.5799(5) 0.7317(3) 0.02332(19)
C71 C 0.6492(5) 0.6927(3) 0.03210(19)
C72 C 0.7189(6) 0.6799(3) 0.01525(19)
H50 H 0.7307 0.6925 -0.0051
C73 C 0.7667(5) 0.6447(3) 0.03520(19)
C74 C 0.8506(5) 0.6211(3) 0.03074(19)
C75 C 0.8646(6) 0.5974(3) 0.0009(2)
H51 H 0.8197 0.5944 -0.0160
C76 C 0.9452(6) 0.5785(4) -0.0033(2)
H52 H 0.9539 0.5642 -0.0235
C77 C 0.9959(6) 0.5977(4) 0.0489(2)
H53 H 1.0404 0.5964 0.0661
C78 C 0.9179(6) 0.6186(3) 0.0557(2)
H54 H 0.9109 0.6307 0.0767
N26 N 0.7225(7) 0.5009(3) -0.1340(2)
C80 C 0.6958(7) 0.5019(4) -0.1091(2)
Cu1B Cu 0.75423(6) 0.11813(3) 0.32891(2)
Cu1D Cu 0.75423(6) 0.88187(3) -0.17109(2)
Cu2B Cu 0.43604(6) 0.63594(3) 0.41089(2)
Cu3B Cu 0.93751(6) 0.09474(3) 0.34332(2)
Cu3A Cu 0.56249(6) 0.59474(3) 0.15668(2)
Cu3C Cu 0.43751(6) 0.59474(3) 0.34332(2)
Cu4D Cu 0.82458(6) 0.78572(4) -0.13084(2)
Cu4A Cu 0.67542(6) 0.71428(4) 0.13084(2)
Cu4C Cu 0.32458(6) 0.71428(4) 0.36916(2)
Cu5B Cu 0.74849(6) 0.08821(3) 0.40327(2)
Cu5A Cu 0.75151(6) 0.58821(3) 0.09673(2)
Cu5C Cu 0.24849(6) 0.58821(3) 0.40327(2)
Cu7D Cu 0.29313(7) 1.01169(4) -0.16948(2)
Cu7B Cu 0.29313(7) -0.01169(4) 0.33052(2)
Cu7_2 Cu 0.70687(7) 0.98831(4) 0.16948(2)
Cu7E Cu 0.79313(7) 0.51169(4) -0.16948(2)
Cu7B_2 Cu 0.29313(7) 0.98831(4) 0.33052(2)
Cu7G Cu 0.20687(7) 0.51169(4) 0.66948(2)
Cu8B Cu 0.62317(7) -0.12229(4) 0.50605(2)
Cu8E Cu 0.12317(7) 0.62229(4) 0.00605(2)
Cu8_2 Cu 0.37683(7) 0.87771(4) -0.00605(2)
Cu8E_2 Cu 1.12317(7) 0.62229(4) 0.00605(2)
Cu8G Cu 0.87683(7) 0.62229(4) 0.49395(2)
Cu8B_2 Cu 0.62317(7) 0.87771(4) 0.50605(2)
Cu8G_2 Cu -0.12317(7) 0.62229(4) 0.49395(2)
Cu9B Cu 0.33420(9) 0.52851(5) 0.56869(3)
Cu9D Cu 0.33420(9) 0.47149(5) 0.06869(3)
N1B N 0.6042(4) 0.3033(2) 0.26265(16)
N2B N 0.8297(4) 0.1618(2) 0.30527(15)
N3B N 0.9143(4) 0.1469(2) 0.31168(15)
N4B N 1.2397(7) 0.1843(6) 0.3148(3)
N5D N 0.3953(5) 0.9561(3) -0.16416(18)
N6D N 0.6685(4) 0.8397(2) -0.14605(16)
N6B N 0.6685(4) 0.1603(2) 0.35395(16)
N7D N 0.7054(4) 0.7941(2) -0.13364(16)
N8D N 0.6745(7) 0.6111(3) -0.0818(2)
N8F N 0.3255(7) 0.6111(3) 0.5818(2)
N9B N 0.7351(5) -0.0138(3) 0.21927(15)
N9F N 0.2649(5) 1.0138(3) -0.21927(15)
N10B N 0.7403(4) 0.0448(2) 0.34012(13)
N11B N 0.7255(4) 0.0350(2) 0.37197(13)
N12B N 0.6500(4) -0.0869(2) 0.46432(15)
N13B N 0.3657(5) 0.5249(3) 0.52428(16)
N14B N 0.4428(4) 0.5604(2) 0.40678(14)
N15B N 0.4543(4) 0.5434(2) 0.37581(13)
N15A N 0.0457(4) 0.0434(2) 0.12419(13)
N15C N 0.9543(4) 0.0434(2) 0.37581(13)
N16B N 0.4785(5) 0.3985(2) 0.28937(15)
N17B N 0.7830(5) 0.6451(3) 0.45938(17)
N17E N 0.2830(5) -0.1451(3) -0.04062(17)
N17G N 0.7170(5) -0.1451(3) 0.54062(17)
N18B N 0.4961(4) 0.6935(2) 0.39133(15)
N19B N 0.4418(4) 0.7299(2) 0.37516(15)
N19A N 0.0582(4) 0.2299(2) 0.12484(15)
N19E N 0.9418(4) 0.7701(2) -0.12484(15)
N20B N 0.3656(5) 0.9176(3) 0.34011(17)
N20_2 N 0.6344(5) -0.0824(3) 0.15989(17)
N20D N 0.3656(5) 1.0824(3) -0.15989(17)
N21B N 0.5437(5) 0.8098(3) 0.49366(17)
N21_2 N 0.4563(5) -0.1902(3) 0.00634(17)
N21B_2 N 0.5437(5) -0.1902(3) 0.49366(17)
N22B N 0.3459(4) 0.6656(2) 0.43928(15)
N23B N 0.2724(4) 0.6360(2) 0.43765(14)
N23A N 0.2276(4) 0.1360(2) 0.06235(14)
N23C N 0.7724(4) 0.1360(2) 0.43765(14)
N24B N -0.0117(5) 0.5797(3) 0.4797(2)
N24E N 0.4883(5) -0.0797(3) -0.0203(2)
N24G N 0.5117(5) -0.0797(3) 0.5203(2)
C1B C 0.6672(6) 0.2222(4) 0.2829(2)
H1B H 0.6584 0.1888 0.2909
C2B C 0.5977(6) 0.2552(4) 0.2751(2)
H2B H 0.5431 0.2433 0.2786
C3B C 0.6839(5) 0.3178(3) 0.2578(2)
H3B H 0.6909 0.3505 0.2485
C4B C 0.7568(6) 0.2876(3) 0.2655(2)
H4B H 0.8108 0.3002 0.2617
C5B C 0.7488(5) 0.2386(3) 0.27896(19)
C6B C 0.8280(5) 0.2079(3) 0.2888(2)
C7B C 0.9123(5) 0.2226(3) 0.2849(2)
H5B H 0.9297 0.2523 0.2743
C8B C 0.9649(5) 0.1840(3) 0.30006(19)
C9B C 1.0590(6) 0.1821(4) 0.3050(2)
C10B C 1.1056(7) 0.2281(5) 0.3042(3)
H6B H 1.0762 0.2594 0.2997
C11B C 1.1930(8) 0.2287(6) 0.3097(3)
H7B H 1.2217 0.2606 0.3100
C12B C 1.1959(9) 0.1413(6) 0.3164(4)
H8B H 1.2260 0.1103 0.3210
C13B C 1.1044(8) 0.1394(5) 0.3117(3)
H9B H 1.0763 0.1076 0.3134
C14D C 0.5316(5) 0.9187(3) -0.1729(2)
H10D H 0.5814 0.9212 -0.1834
C15D C 0.4663(6) 0.9561(3) -0.1786(2)
H11D H 0.4736 0.9826 -0.1937
C16D C 0.3851(6) 0.9173(4) -0.1429(2)
H12D H 0.3360 0.9171 -0.1319
C17D C 0.4452(6) 0.8774(4) -0.1367(2)
H13D H 0.4344 0.8501 -0.1227
C18D C 0.5213(5) 0.8781(3) -0.1513(2)
C19D C 0.5831(5) 0.8361(3) -0.1434(2)
C20D C 0.5654(6) 0.7887(3) -0.1300(2)
H14D H 0.5117 0.7761 -0.1258
C21D C 0.6433(5) 0.7635(3) -0.1241(2)
C22D C 0.6586(6) 0.7110(3) -0.1097(2)
C23D C 0.5988(9) 0.6748(5) -0.1148(5)
H15D H 0.5486 0.6813 -0.1287
C24D C 0.6114(11) 0.6263(5) -0.0990(6)
H16D H 0.5656 0.6028 -0.1023
C25D C 0.7348(12) 0.6445(6) -0.0785(4)
H17D H 0.7866 0.6345 -0.0667
C26D C 0.7298(10) 0.6970(5) -0.0917(3)
H18D H 0.7757 0.7202 -0.0875
C27B C 0.7847(7) 0.0267(4) 0.2707(2)
H19B H 0.8207 0.0515 0.2817
C28B C 0.7822(7) 0.0215(4) 0.2372(2)
H20B H 0.8157 0.0442 0.2262
C29B C 0.6897(7) -0.0466(4) 0.2365(2)
H21B H 0.6573 -0.0728 0.2252
C30B C 0.6890(7) -0.0435(4) 0.2697(2)
H22B H 0.6575 -0.0678 0.2804
C31B C 0.7343(5) -0.0046(3) 0.28799(18)
C32B C 0.7286(5) -0.0002(3) 0.32311(17)
C33B C 0.7063(5) -0.0393(3) 0.34391(18)
H23B H 0.6947 -0.0742 0.3386
C34B C 0.7049(5) -0.0156(3) 0.37442(17)
C35B C 0.6860(5) -0.0399(3) 0.40588(17)
C36B C 0.7080(6) -0.0908(3) 0.41265(19)
H24B H 0.7350 -0.1105 0.3976
C37B C 0.6895(5) -0.1129(3) 0.4423(2)
H25B H 0.7056 -0.1474 0.4467
C38B C 0.6278(6) -0.0370(3) 0.4575(2)
H26B H 0.5997 -0.0181 0.4726
C39B C 0.6454(6) -0.0129(3) 0.4287(2)
H27B H 0.6296 0.0218 0.4247
C40B C 0.4335(6) 0.5631(3) 0.47954(19)
H28B H 0.4644 0.5909 0.4720
C41B C 0.4097(7) 0.5633(3) 0.5114(2)
H29B H 0.4255 0.5921 0.5246
C42B C 0.3473(7) 0.4845(4) 0.5047(2)
H30B H 0.3187 0.4565 0.5131
C43B C 0.3665(6) 0.4805(3) 0.4734(2)
H31B H 0.3506 0.4507 0.4612
C44B C 0.4102(5) 0.5207(3) 0.45926(16)
C45B C 0.4296(5) 0.5176(3) 0.42492(17)
C46B C 0.4299(5) 0.4729(3) 0.40543(18)
H32B H 0.4206 0.4386 0.4117
C47B C 0.4468(5) 0.4904(3) 0.37475(16)
C48B C 0.4579(5) 0.4602(3) 0.34481(17)
C49B C 0.4191(6) 0.4109(3) 0.34022(18)
H33B H 0.3851 0.3976 0.3556
C50B C 0.4322(6) 0.3823(3) 0.3125(2)
H34B H 0.4066 0.3495 0.3100
C51B C 0.5176(6) 0.4452(3) 0.2945(2)
H35B H 0.5534 0.4568 0.2793
C52B C 0.5072(6) 0.4766(3) 0.32120(19)
H36B H 0.5339 0.5091 0.3231
C53B C 0.6688(7) 0.6375(4) 0.4157(2)
H37B H 0.6379 0.6157 0.4004
C54B C 0.7383(7) 0.6177(4) 0.4365(3)
H38B H 0.7537 0.5829 0.4339
C55B C 0.7626(10) 0.6950(5) 0.4607(4)
H39B H 0.7955 0.7160 0.4759
C56B C 0.6963(9) 0.7180(5) 0.4412(4)
H40B H 0.6846 0.7534 0.4437
C57B C 0.6460(5) 0.6886(3) 0.4175(2)
C58B C 0.5747(5) 0.7152(3) 0.39744(19)
C59B C 0.5731(5) 0.7660(3) 0.3855(2)
H41B H 0.6188 0.7896 0.3865
C60B C 0.4886(5) 0.7743(3) 0.37155(18)
C61B C 0.4476(5) 0.8230(3) 0.35928(19)
C62B C 0.4856(7) 0.8706(4) 0.3653(3)
H42B H 0.5409 0.8722 0.3765
C63B C 0.4450(7) 0.9154(4) 0.3553(3)
H43B H 0.4747 0.9467 0.3595
C64B C 0.3277(7) 0.8722(4) 0.3347(2)
H44B H 0.2711 0.8718 0.3246
C65B C 0.3662(6) 0.8255(3) 0.3429(2)
H45B H 0.3365 0.7947 0.3373
C66B C 0.4486(6) 0.7645(3) 0.4537(2)
H46B H 0.4261 0.7613 0.4318
C67B C 0.5097(6) 0.8018(3) 0.4625(2)
H47B H 0.5285 0.8227 0.4461
C68B C 0.5179(7) 0.7780(4) 0.5160(2)
H48B H 0.5424 0.7814 0.5377
C69B C 0.4550(7) 0.7393(4) 0.5084(2)
H49B H 0.4370 0.7187 0.5252
C70B C 0.4201(5) 0.7317(3) 0.47668(19)
C71B C 0.3508(5) 0.6927(3) 0.46790(19)
C72B C 0.2811(6) 0.6799(3) 0.48475(19)
H50B H 0.2693 0.6925 0.5051
C73B C 0.2333(5) 0.6447(3) 0.46480(19)
C74B C 0.1494(5) 0.6211(3) 0.46926(19)
C75B C 0.1354(6) 0.5974(3) 0.4991(2)
H51B H 0.1803 0.5944 0.5160
C76B C 0.0548(6) 0.5785(4) 0.5033(2)
H52B H 0.0461 0.5642 0.5235
C77B C 0.0041(6) 0.5977(4) 0.4511(2)
H53B H -0.0404 0.5964 0.4339
C78B C 0.0821(6) 0.6186(3) 0.4443(2)
H54B H 0.0891 0.6307 0.4233
N26B N 0.2775(7) 0.5009(3) 0.6340(2)
N26E N 0.7775(7) -0.0009(3) 0.1340(2)
N26A N 0.2225(7) 1.0009(3) -0.1340(2)
C80B C 0.3042(7) 0.5019(4) 0.6091(2)
B2 B 0.6410(7) 0.2998(4) 0.0867(3)
F9 F 0.6051(16) 0.2506(9) 0.0894(6)
F10 F 0.6633(18) 0.3165(10) 0.1188(5)
F11 F 0.5796(15) 0.3331(9) 0.0717(7)
F12 F 0.7129(16) 0.2962(9) 0.0706(7)
loop_
_geom_bond_atom_site_label_1
_geom_bond_atom_site_label_2
_geom_bond_site_symmetry_1
_geom_bond_site_symmetry_2
Cu1 N2 1_555 1_555
Cu2 N14 1_555 1_555
Cu3 N3 1_555 1_555
Cu4 N7 1_555 1_555
Cu5 N11 1_555 1_555
Cu6 N1 1_555 1_555
Cu7 N5 1_555 1_555
Cu8 N12 1_555 1_555
Cu9 N13 1_555 1_555
N1 C2 1_555 1_555
N2 N3 1_555 1_555
N3 C8 1_555 1_555
N4 C11 1_555 1_555
N5 C15 1_555 1_555
N6 Cu1 1_555 1_555
N7 N6 1_555 1_555
N8 C24 1_555 1_555
N9 C28 1_555 1_555
N10 Cu1 1_555 1_555
N11 N10 1_555 1_555
N12 C37 1_555 1_555
N13 C41 1_555 1_555
N14 N15 1_555 1_555
N15 C47 1_555 1_555
N16 Cu6 1_555 1_555
N17 C54 1_555 1_555
N18 Cu2 1_555 1_555
N19 N18 1_555 1_555
N20 C63 1_555 1_555
N21 C67 1_555 1_555
N22 Cu2 1_555 1_555
N23 N22 1_555 1_555
N24 C76 1_555 1_555
C1 H1 1_555 1_555
C2 C1 1_555 1_555
H2 C2 1_555 1_555
C3 N1 1_555 1_555
H3 C3 1_555 1_555
C4 C3 1_555 1_555
H4 C4 1_555 1_555
C5 C1 1_555 1_555
C6 N2 1_555 1_555
C7 C6 1_555 1_555
H5 C7 1_555 1_555
C8 C7 1_555 1_555
C9 C8 1_555 1_555
C10 C9 1_555 1_555
H6 C10 1_555 1_555
C11 C10 1_555 1_555
H7 C11 1_555 1_555
C12 N4 1_555 1_555
H8 C12 1_555 1_555
C13 C9 1_555 1_555
H9 C13 1_555 1_555
C14 H10 1_555 1_555
C15 C14 1_555 1_555
H11 C15 1_555 1_555
C16 N5 1_555 1_555
H12 C16 1_555 1_555
C17 C16 1_555 1_555
H13 C17 1_555 1_555
C18 C14 1_555 1_555
C19 N6 1_555 1_555
C20 C19 1_555 1_555
H14 C20 1_555 1_555
C21 N7 1_555 1_555
C22 C21 1_555 1_555
C23 C22 1_555 1_555
H15 C23 1_555 1_555
C24 C23 1_555 1_555
H16 C24 1_555 1_555
C25 N8 1_555 1_555
H17 C25 1_555 1_555
C26 C22 1_555 1_555
H18 C26 1_555 1_555
C27 H19 1_555 1_555
C28 C27 1_555 1_555
H20 C28 1_555 1_555
C29 N9 1_555 1_555
H21 C29 1_555 1_555
C30 C29 1_555 1_555
H22 C30 1_555 1_555
C31 C27 1_555 1_555
C32 N10 1_555 1_555
C33 C32 1_555 1_555
H23 C33 1_555 1_555
C34 N11 1_555 1_555
C35 C34 1_555 1_555
C36 C35 1_555 1_555
H24 C36 1_555 1_555
C37 C36 1_555 1_555
H25 C37 1_555 1_555
C38 N12 1_555 1_555
H26 C38 1_555 1_555
C39 C35 1_555 1_555
H27 C39 1_555 1_555
C40 H28 1_555 1_555
C41 C40 1_555 1_555
H29 C41 1_555 1_555
C42 N13 1_555 1_555
H30 C42 1_555 1_555
C43 C42 1_555 1_555
H31 C43 1_555 1_555
C44 C40 1_555 1_555
C45 N14 1_555 1_555
C46 C45 1_555 1_555
H32 C46 1_555 1_555
C47 C46 1_555 1_555
C48 C47 1_555 1_555
C49 C48 1_555 1_555
H33 C49 1_555 1_555
C50 N16 1_555 1_555
H34 C50 1_555 1_555
C51 N16 1_555 1_555
H35 C51 1_555 1_555
C52 C48 1_555 1_555
H36 C52 1_555 1_555
C53 H37 1_555 1_555
C54 C53 1_555 1_555
H38 C54 1_555 1_555
C55 N17 1_555 1_555
H39 C55 1_555 1_555
C56 C55 1_555 1_555
H40 C56 1_555 1_555
C57 C53 1_555 1_555
C58 N18 1_555 1_555
C59 C58 1_555 1_555
H41 C59 1_555 1_555
C60 N19 1_555 1_555
C61 C60 1_555 1_555
C62 C61 1_555 1_555
H42 C62 1_555 1_555
C63 C62 1_555 1_555
H43 C63 1_555 1_555
C64 N20 1_555 1_555
H44 C64 1_555 1_555
C65 C61 1_555 1_555
H45 C65 1_555 1_555
C66 H46 1_555 1_555
C67 C66 1_555 1_555
H47 C67 1_555 1_555
C68 N21 1_555 1_555
H48 C68 1_555 1_555
C69 C68 1_555 1_555
H49 C69 1_555 1_555
C70 C66 1_555 1_555
C71 N22 1_555 1_555
C72 C71 1_555 1_555
H50 C72 1_555 1_555
C73 N23 1_555 1_555
C74 C73 1_555 1_555
C75 C74 1_555 1_555
H51 C75 1_555 1_555
C76 C75 1_555 1_555
H52 C76 1_555 1_555
C77 N24 1_555 1_555
H53 C77 1_555 1_555
C78 C74 1_555 1_555
H54 C78 1_555 1_555
B2 F9 1_555 1_555
F10 B2 1_555 1_555
F11 B2 1_555 1_555
F12 B2 1_555 1_555
N26 C80 1_555 1_555
C80 Cu9 1_555 1_555
Cu1B N2B 1_555 1_555
Cu1D N6D 1_555 1_555
Cu2B N14B 1_555 1_555
Cu3B N3B 1_555 1_555
Cu3A N15 1_555 1_555
Cu3C N15B 1_555 1_555
Cu4D N7D 1_555 1_555
Cu4A N19 1_555 1_555
Cu4C N19B 1_555 1_555
Cu5B N11B 1_555 1_555
Cu5A N23 1_555 1_555
Cu5C N23B 1_555 1_555
Cu7D N5D 1_555 1_555
Cu7B N9 1_555 1_555
Cu7_2 N20 1_555 1_555
Cu7E N26 1_555 1_555
Cu7B_2 N20B 1_555 1_555
Cu7G N26B 1_555 1_555
Cu8B N12B 1_555 1_555
Cu8E N17 1_555 1_555
Cu8_2 N21 1_555 1_555
Cu8E_2 N24 1_555 1_555
Cu8G N17B 1_555 1_555
Cu8B_2 N21B 1_555 1_555
Cu8G_2 N24B 1_555 1_555
Cu9B N8F 1_555 1_555
Cu9D N8 1_555 1_555
N1B Cu6 1_555 1_555
N2B N3B 1_555 1_555
N3B C8B 1_555 1_555
N4B C11B 1_555 1_555
N5D C15D 1_555 1_555
N6D N7D 1_555 1_555
N6B Cu1B 1_555 1_555
N7D C21D 1_555 1_555
N8D Cu9 1_555 1_555
N9B Cu7 1_555 1_555
N9F Cu7D 1_555 1_555
N10B Cu1B 1_555 1_555
N11B N10B 1_555 1_555
N12B C37B 1_555 1_555
N13B Cu9B 1_555 1_555
N14B N15B 1_555 1_555
N15B C47B 1_555 1_555
N15A Cu3 1_555 1_555
N15C Cu3B 1_555 1_555
N16B Cu6 1_555 1_555
N17B C54B 1_555 1_555
N17E Cu8 1_555 1_555
N17G Cu8B 1_555 1_555
N18B Cu2B 1_555 1_555
N19B N18B 1_555 1_555
N19A Cu4 1_555 1_555
N19E Cu4D 1_555 1_555
N20B C63B 1_555 1_555
N20_2 Cu7 1_555 1_555
N20D Cu7D 1_555 1_555
N21B C67B 1_555 1_555
N21_2 Cu8 1_555 1_555
N21B_2 Cu8B 1_555 1_555
N22B Cu2B 1_555 1_555
N23B N22B 1_555 1_555
N23A Cu5 1_555 1_555
N23C Cu5B 1_555 1_555
N24B C76B 1_555 1_555
N24E Cu8 1_555 1_555
N24G Cu8B 1_555 1_555
C1B H1B 1_555 1_555
C2B N1B 1_555 1_555
H2B C2B 1_555 1_555
C3B N1B 1_555 1_555
H3B C3B 1_555 1_555
C4B C3B 1_555 1_555
H4B C4B 1_555 1_555
C5B C1B 1_555 1_555
C6B N2B 1_555 1_555
C7B C6B 1_555 1_555
H5B C7B 1_555 1_555
C8B C7B 1_555 1_555
C9B C8B 1_555 1_555
C10B C9B 1_555 1_555
H6B C10B 1_555 1_555
C11B C10B 1_555 1_555
H7B C11B 1_555 1_555
C12B N4B 1_555 1_555
H8B C12B 1_555 1_555
C13B C9B 1_555 1_555
H9B C13B 1_555 1_555
C14D H10D 1_555 1_555
C15D C14D 1_555 1_555
H11D C15D 1_555 1_555
C16D N5D 1_555 1_555
H12D C16D 1_555 1_555
C17D C16D 1_555 1_555
H13D C17D 1_555 1_555
C18D C14D 1_555 1_555
C19D N6D 1_555 1_555
C20D C19D 1_555 1_555
H14D C20D 1_555 1_555
C21D C20D 1_555 1_555
C22D C21D 1_555 1_555
C23D C22D 1_555 1_555
H15D C23D 1_555 1_555
C24D N8D 1_555 1_555
H16D C24D 1_555 1_555
C25D N8D 1_555 1_555
H17D C25D 1_555 1_555
C26D C22D 1_555 1_555
H18D C26D 1_555 1_555
C27B H19B 1_555 1_555
C28B N9B 1_555 1_555
H20B C28B 1_555 1_555
C29B N9B 1_555 1_555
H21B C29B 1_555 1_555
C30B C29B 1_555 1_555
H22B C30B 1_555 1_555
C31B C27B 1_555 1_555
C32B N10B 1_555 1_555
C33B C32B 1_555 1_555
H23B C33B 1_555 1_555
C34B N11B 1_555 1_555
C35B C34B 1_555 1_555
C36B C35B 1_555 1_555
H24B C36B 1_555 1_555
C37B C36B 1_555 1_555
H25B C37B 1_555 1_555
C38B N12B 1_555 1_555
H26B C38B 1_555 1_555
C39B C35B 1_555 1_555
H27B C39B 1_555 1_555
C40B H28B 1_555 1_555
C41B N13B 1_555 1_555
H29B C41B 1_555 1_555
C42B N13B 1_555 1_555
H30B C42B 1_555 1_555
C43B C42B 1_555 1_555
H31B C43B 1_555 1_555
C44B C40B 1_555 1_555
C45B N14B 1_555 1_555
C46B C45B 1_555 1_555
H32B C46B 1_555 1_555
C47B C46B 1_555 1_555
C48B C47B 1_555 1_555
C49B C48B 1_555 1_555
H33B C49B 1_555 1_555
C50B N16B 1_555 1_555
H34B C50B 1_555 1_555
C51B N16B 1_555 1_555
H35B C51B 1_555 1_555
C52B C48B 1_555 1_555
H36B C52B 1_555 1_555
C53B H37B 1_555 1_555
C54B C53B 1_555 1_555
H38B C54B 1_555 1_555
C55B N17B 1_555 1_555
H39B C55B 1_555 1_555
C56B C55B 1_555 1_555
H40B C56B 1_555 1_555
C57B C53B 1_555 1_555
C58B N18B 1_555 1_555
C59B C58B 1_555 1_555
H41B C59B 1_555 1_555
C60B N19B 1_555 1_555
C61B C60B 1_555 1_555
C62B C61B 1_555 1_555
H42B C62B 1_555 1_555
C63B C62B 1_555 1_555
H43B C63B 1_555 1_555
C64B N20B 1_555 1_555
H44B C64B 1_555 1_555
C65B C61B 1_555 1_555
H45B C65B 1_555 1_555
C66B H46B 1_555 1_555
C67B C66B 1_555 1_555
H47B C67B 1_555 1_555
C68B N21B 1_555 1_555
H48B C68B 1_555 1_555
C69B C68B 1_555 1_555
H49B C69B 1_555 1_555
C70B C66B 1_555 1_555
C71B N22B 1_555 1_555
C72B C71B 1_555 1_555
H50B C72B 1_555 1_555
C73B N23B 1_555 1_555
C74B C73B 1_555 1_555
C75B C74B 1_555 1_555
H51B C75B 1_555 1_555
C76B C75B 1_555 1_555
H52B C76B 1_555 1_555
C77B N24B 1_555 1_555
H53B C77B 1_555 1_555
C78B C74B 1_555 1_555
H54B C78B 1_555 1_555
N26B C80B 1_555 1_555
N26E Cu7 1_555 1_555
N26A Cu7D 1_555 1_555
C80B Cu9B 1_555 1_555
C4 C5 1_555 1_555
C5 C6 1_555 1_555
C12 C13 1_555 1_555
C17 C18 1_555 1_555
C18 C19 1_555 1_555
C20 C21 1_555 1_555
C25 C26 1_555 1_555
C30 C31 1_555 1_555
C31 C32 1_555 1_555
C33 C34 1_555 1_555
C38 C39 1_555 1_555
C43 C44 1_555 1_555
C44 C45 1_555 1_555
C49 C50 1_555 1_555
C51 C52 1_555 1_555
C56 C57 1_555 1_555
C57 C58 1_555 1_555
C59 C60 1_555 1_555
C64 C65 1_555 1_555
C69 C70 1_555 1_555
C70 C71 1_555 1_555
C72 C73 1_555 1_555
C77 C78 1_555 1_555
C1B C2B 1_555 1_555
C4B C5B 1_555 1_555
C5B C6B 1_555 1_555
C12B C13B 1_555 1_555
C17D C18D 1_555 1_555
C18D C19D 1_555 1_555
C23D C24D 1_555 1_555
C25D C26D 1_555 1_555
C27B C28B 1_555 1_555
C30B C31B 1_555 1_555
C31B C32B 1_555 1_555
C33B C34B 1_555 1_555
C38B C39B 1_555 1_555
C40B C41B 1_555 1_555
C43B C44B 1_555 1_555
C44B C45B 1_555 1_555
C49B C50B 1_555 1_555
C51B C52B 1_555 1_555
C56B C57B 1_555 1_555
C57B C58B 1_555 1_555
C59B C60B 1_555 1_555
C64B C65B 1_555 1_555
C69B C70B 1_555 1_555
C70B C71B 1_555 1_555
C72B C73B 1_555 1_555
C77B C78B 1_555 1_555

#END
