
#######################################################################
#
#                 Cambridge Crystallographic Data Centre
#                                CCDC 
#
#######################################################################
#
# If this CIF has been generated from an entry in the Cambridge 
# Structural Database, then it will include bibliographic, chemical, 
# crystal, experimental, refinement or atomic coordinate data resulting 
# from the CCDC's data processing and validation procedures.
#
#######################################################################

data_BUCXUT
_chemical_formula_moiety         '(C6 H13 N13 O8 S1 Zn3 1+)n'
_symmetry_cell_setting           cubic
_symmetry_space_group_name_H-M   'I 2 3'
_symmetry_Int_Tables_number      197
_space_group_name_Hall           'I 2 2 3'
loop_
_symmetry_equiv_pos_site_id
_symmetry_equiv_pos_as_xyz
1 x,y,z
2 -x,-y,z
3 -x,y,-z
4 x,-y,-z
5 z,x,y
6 z,-x,-y
7 -z,-x,y
8 -z,x,-y
9 y,z,x
10 -y,z,-x
11 y,-z,-x
12 -y,-z,x
13 1/2+x,1/2+y,1/2+z
14 1/2-x,1/2-y,1/2+z
15 1/2-x,1/2+y,1/2-z
16 1/2+x,1/2-y,1/2-z
17 1/2+z,1/2+x,1/2+y
18 1/2+z,1/2-x,1/2-y
19 1/2-z,1/2-x,1/2+y
20 1/2-z,1/2+x,1/2-y
21 1/2+y,1/2+z,1/2+x
22 1/2-y,1/2+z,1/2-x
23 1/2+y,1/2-z,1/2-x
24 1/2-y,1/2-z,1/2+x
_cell_length_a                   16.2820(4)
_cell_length_b                   16.2820(4)
_cell_length_c                   16.2820(4)
_cell_angle_alpha                90
_cell_angle_beta                 90
_cell_angle_gamma                90
_cell_volume                     4316.42
loop_
_atom_site_label
_atom_site_type_symbol
_atom_site_fract_x
_atom_site_fract_y
_atom_site_fract_z
_atom_site_U_iso_or_equiv
_atom_site_thermal_displace_type
N5 N 0.5000 0.1031(5) 0.0000 0.0580 Uiso
O1 O 0.5111(7) 0.1265(8) -0.0699(6) 0.0490 Uiso
O2 O 0.5591(9) 0.1000(12) 0.0460(10) 0.0850 Uiso
O3 O 0.4315(10) 0.0983(16) 0.0286(12) 0.1120 Uiso
O1B O 0.4889(7) 0.1265(8) 0.0699(6) 0.0490 Uiso
O2B O 0.4409(9) 0.1000(12) -0.0460(10) 0.0850 Uiso
O3B O 0.5685(10) 0.0983(16) -0.0286(12) 0.1120 Uiso
O5 O 0.091(4) 0.091(4) 0.091(4) 0.1700 Uiso
O6 O 0.0000 0.261(5) 0.0000 0.1400 Uiso
H6 H -0.0076 0.3053 -0.0400 0.2100 Uiso
H6B H 0.0076 0.3053 0.0400 0.2100 Uiso
Zn1 Zn 0.37116(3) 0.23353(3) 0.22495(3) 0.0334 Uani
S1 S 0.32346(8) 0.32346(8) 0.32346(8) 0.0430 Uani
N1 N 0.3279(2) 0.1212(2) 0.2558(2) 0.0318 Uani
N2 N 0.2709(2) 0.1180(2) 0.3193(2) 0.0336 Uani
N3 N 0.2903(2) -0.0091(2) 0.2748(2) 0.0364 Uani
C1 C 0.3387(3) 0.0443(3) 0.2304(3) 0.0357 Uani
C2 C 0.2509(3) 0.0409(3) 0.3279(3) 0.0376 Uani
H1 H 0.2134 0.0223 0.3667 0.0450 Uiso
N4 N 0.3896(4) 0.0205(3) 0.1709(4) 0.0727 Uani
H2 H 0.4190 0.0563 0.1454 0.0870 Uiso
H3 H 0.3931 -0.0306 0.1580 0.0870 Uiso
Zn1D Zn 0.22495(3) 0.37116(3) 0.23353(3) 0.0334 Uani
Zn1H Zn 0.23353(3) 0.22495(3) 0.37116(3) 0.0334 Uani
Zn1S Zn 0.27505(3) -0.12884(3) 0.26647(3) 0.0334 Uani
Zn1W Zn 0.26647(3) 0.27505(3) -0.12884(3) 0.0334 Uani
Zn1O Zn -0.12884(3) 0.26647(3) 0.27505(3) 0.0334 Uani
N1D N 0.2558(2) 0.3279(2) 0.1212(2) 0.0318 Uani
N1H N 0.1212(2) 0.2558(2) 0.3279(2) 0.0318 Uani
N2D N 0.3193(2) 0.2709(2) 0.1180(2) 0.0336 Uani
N2H N 0.1180(2) 0.3193(2) 0.2709(2) 0.0336 Uani
N3D N 0.2748(2) 0.2903(2) -0.0091(2) 0.0364 Uani
N3V N 0.4909(2) 0.2252(2) 0.2097(2) 0.0364 Uani
N3H N -0.0091(2) 0.2748(2) 0.2903(2) 0.0364 Uani
N3N N 0.2097(2) 0.4909(2) 0.2252(2) 0.0364 Uani
N3R N 0.2252(2) 0.2097(2) 0.4909(2) 0.0364 Uani
C1D C 0.2304(3) 0.3387(3) 0.0443(3) 0.0357 Uani
C1H C 0.0443(3) 0.2304(3) 0.3387(3) 0.0357 Uani
C2D C 0.3279(3) 0.2509(3) 0.0409(3) 0.0376 Uani
C2H C 0.0409(3) 0.3279(3) 0.2509(3) 0.0376 Uani
H1D H 0.3667 0.2134 0.0223 0.0450 Uiso
H1H H 0.0223 0.3667 0.2134 0.0450 Uiso
N4D N 0.1709(4) 0.3896(4) 0.0205(3) 0.0727 Uani
N4H N 0.0205(3) 0.1709(4) 0.3896(4) 0.0727 Uani
H2D H 0.1454 0.4190 0.0563 0.0870 Uiso
H2H H 0.0563 0.1454 0.4190 0.0870 Uiso
H3D H 0.1580 0.3931 -0.0306 0.0870 Uiso
H3H H -0.0306 0.1580 0.3931 0.0870 Uiso
loop_
_atom_site_aniso_label
_atom_site_aniso_U_11
_atom_site_aniso_U_22
_atom_site_aniso_U_33
_atom_site_aniso_U_23
_atom_site_aniso_U_13
_atom_site_aniso_U_12
Zn1 0.0283(2) 0.0340(3) 0.0380(3) 0.01170(19) 0.00665(19) 0.00468(18)
S1 0.0430(4) 0.0430(4) 0.0430(4) 0.0002(5) 0.0002(5) 0.0002(5)
N1 0.0334 0.028 0.034 0.0076 0.0103 0.0012
N2 0.0344 0.0334 0.0331 0.0073 0.0117 0.0044
N3 0.0397 0.0322 0.0373 0.001 0.0148 -0.0043
C1 0.045 0.0285 0.0335 0.0023 0.0094 0.0006
C2 0.041 0.0327 0.039 0.0041 0.0146 0.0012
N4 0.103 0.041 0.074 -0.007 0.061 -0.009
Zn1D 0.038 0.0283 0.034 0.00468 0.0117 0.00665
Zn1H 0.034 0.038 0.0283 0.00665 0.00468 0.0117
Zn1S 0.038 0.0283 0.034 -0.00468 0.0117 -0.00665
Zn1W 0.034 0.038 0.0283 -0.00665 -0.00468 0.0117
Zn1O 0.0283 0.034 0.038 0.0117 -0.00665 -0.00468
N1D 0.0340(16) 0.0334(16) 0.0280(15) 0.0012(12) 0.0076(13) 0.0103(13)
N1H 0.028 0.034 0.0334 0.0103 0.0012 0.0076
N2D 0.0331(16) 0.0344(17) 0.0334(16) 0.0044(15) 0.0073(13) 0.0117(15)
N2H 0.0334 0.0331 0.0344 0.0117 0.0044 0.0073
N3D 0.0373(17) 0.0397(18) 0.0322(17) -0.0043(14) 0.0010(15) 0.0148(16)
N3V 0.0322 0.0373 0.0397 0.0148 0.0043 -0.001
N3H 0.0322 0.0373 0.0397 0.0148 -0.0043 0.001
N3N 0.0397 0.0322 0.0373 -0.001 0.0148 0.0043
N3R 0.0373 0.0397 0.0322 0.0043 -0.001 0.0148
C1D 0.0335(19) 0.045(2) 0.0285(17) 0.0006(16) 0.0023(16) 0.0094(18)
C1H 0.0285 0.0335 0.045 0.0094 0.0006 0.0023
C2D 0.039(2) 0.041(2) 0.0327(19) 0.0012(16) 0.0041(17) 0.0146(17)
C2H 0.0327 0.039 0.041 0.0146 0.0012 0.0041
N4D 0.074(3) 0.103(5) 0.041(2) -0.009(3) -0.007(2) 0.061(4)
N4H 0.041 0.074 0.103 0.061 -0.009 -0.007
loop_
_geom_bond_atom_site_label_1
_geom_bond_atom_site_label_2
_geom_bond_site_symmetry_1
_geom_bond_site_symmetry_2
Zn1 S1 1_555 1_555
S1 Zn1D 1_555 1_555
N1 Zn1 1_555 1_555
N2 N1 1_555 1_555
N3 C1 1_555 1_555
C1 N1 1_555 1_555
C2 N2 1_555 1_555
H1 C2 1_555 1_555
N4 C1 1_555 1_555
H2 N4 1_555 1_555
H3 N4 1_555 1_555
N5 O1 1_555 1_555
O1 O2B 1_555 1_555
O2 N5 1_555 1_555
O3 N5 1_555 1_555
O6 H6 1_555 1_555
Zn1D N1D 1_555 1_555
Zn1H S1 1_555 1_555
Zn1S N3 1_555 1_555
Zn1W N3D 1_555 1_555
Zn1O N3H 1_555 1_555
N1D N2D 1_555 1_555
N1H Zn1H 1_555 1_555
N2D Zn1 1_555 1_555
N2H Zn1D 1_555 1_555
N3D C1D 1_555 1_555
N3V Zn1 1_555 1_555
N3H C1H 1_555 1_555
N3N Zn1D 1_555 1_555
N3R Zn1H 1_555 1_555
C1D N1D 1_555 1_555
C1H N1H 1_555 1_555
C2D N2D 1_555 1_555
C2H N2H 1_555 1_555
H1D C2D 1_555 1_555
H1H C2H 1_555 1_555
N4D C1D 1_555 1_555
N4H C1H 1_555 1_555
H2D N4D 1_555 1_555
H2H N4H 1_555 1_555
H3D N4D 1_555 1_555
H3H N4H 1_555 1_555
O1B N5 1_555 1_555
O2B N5 1_555 1_555
O3B N5 1_555 1_555
H6B O6 1_555 1_555
N2 Zn1H 1_555 1_555
N3 C2 1_555 1_555
O1 O3B 1_555 1_555
O2 O1B 1_555 1_555
O2 O3B 1_555 1_555
O3 O1B 1_555 1_555
O3 O2B 1_555 1_555
N1H N2H 1_555 1_555
N3D C2D 1_555 1_555
N3H C2H 1_555 1_555

#END
