
#######################################################################
#
#                 Cambridge Crystallographic Data Centre
#                                CCDC 
#
#######################################################################
#
# If this CIF has been generated from an entry in the Cambridge 
# Structural Database, then it will include bibliographic, chemical, 
# crystal, experimental, refinement or atomic coordinate data resulting 
# from the CCDC's data processing and validation procedures.
#
#######################################################################

data_HOLQAC
_chemical_formula_moiety         '(C45 H27 N3 O16 Zn4)n'
_symmetry_cell_setting           cubic
_symmetry_space_group_name_H-M   'P a -3'
_symmetry_Int_Tables_number      205
_space_group_name_Hall           '-P 2ac 2ab 3'
loop_
_symmetry_equiv_pos_site_id
_symmetry_equiv_pos_as_xyz
1 x,y,z
2 z,x,y
3 y,z,x
4 1/2-y,-z,1/2+x
5 1/2+z,1/2-x,-y
6 -y,1/2+z,1/2-x
7 1/2-z,-x,1/2+y
8 -z,1/2+x,1/2-y
9 1/2+y,1/2-z,-x
10 1/2+x,1/2-y,-z
11 -x,1/2+y,1/2-z
12 1/2-x,-y,1/2+z
13 -x,-y,-z
14 -z,-x,-y
15 -y,-z,-x
16 1/2+y,z,1/2-x
17 1/2-z,1/2+x,y
18 y,1/2-z,1/2+x
19 1/2+z,x,1/2-y
20 z,1/2-x,1/2+y
21 1/2-y,1/2+z,x
22 1/2-x,1/2+y,z
23 x,1/2-y,1/2+z
24 1/2+x,y,1/2-z
_cell_length_a                   25.5775(18)
_cell_length_b                   25.5775(18)
_cell_length_c                   25.5775(18)
_cell_angle_alpha                90
_cell_angle_beta                 90
_cell_angle_gamma                90
_cell_volume                     16733
loop_
_atom_site_label
_atom_site_type_symbol
_atom_site_fract_x
_atom_site_fract_y
_atom_site_fract_z
_atom_site_U_iso_or_equiv
_atom_site_thermal_displace_type
O1 O 0.2775(3) 0.3395(2) 0.1997(3) 0.0870 Uani
O2 O 0.2052(2) 0.3499(2) 0.2495(3) 0.0897 Uani
O3 O 0.2425(3) 0.6131(2) 0.2700(3) 0.0887 Uani
O4 O 0.3014(3) 0.6120(3) 0.1992(3) 0.0973 Uani
C1 C 0.2973(5) 0.5043(5) 0.1993(5) 0.1010 Uiso
H1 H 0.3221 0.5219 0.1793 0.1210 Uiso
C2 C 0.2453(4) 0.3674(4) 0.2249(4) 0.0720 Uiso
C3 C 0.2933(6) 0.4490(6) 0.1959(5) 0.1180 Uiso
C4 C 0.2649(4) 0.5320(4) 0.2319(4) 0.0960 Uiso
C5 C 0.2526(4) 0.4247(4) 0.2261(4) 0.0810 Uiso
C6 C 0.2701(4) 0.5896(4) 0.2314(4) 0.0850 Uiso
C7 C 0.2254(5) 0.5080(4) 0.2615(5) 0.1020 Uiso
H2 H 0.2032 0.5277 0.2825 0.1220 Uiso
C8 C 0.2205(4) 0.4541(4) 0.2584(4) 0.0860 Uiso
H3 H 0.1951 0.4373 0.2784 0.1030 Uiso
N1 N 0.3257(6) 0.4205(5) 0.1676(7) 0.1910 Uani
H4 H 0.3188 0.3878 0.1716 0.2290 Uiso
C9 C 0.3787(6) 0.3434(7) 0.1034(6) 0.1640 Uiso
H5 H 0.3450 0.3366 0.1154 0.1960 Uiso
C10 C 0.4047(8) 0.3072(8) 0.0732(7) 0.2000 Uiso
H6 H 0.3838 0.2822 0.0571 0.2390 Uiso
C11 C 0.4834(14) 0.3472(13) 0.0791(12) 0.3250 Uiso
H7 H 0.5185 0.3516 0.0709 0.3900 Uiso
C12 C 0.4029(11) 0.3896(10) 0.1156(16) 0.4467 Uani
C13 C 0.3678(12) 0.4267(11) 0.1331(14) 0.3600 Uiso
C14 C 0.4573(12) 0.3858(14) 0.1072(13) 0.3370 Uiso
H8 H 0.4779 0.4118 0.1220 0.4050 Uiso
C15 C 0.4579(10) 0.3032(13) 0.0637(11) 0.2910 Uiso
H9 H 0.4740 0.2742 0.0487 0.3490 Uiso
O5 O 0.3875(11) 0.4756(8) 0.1363(14) 0.5093 Uani
Zn1 Zn 0.18427(4) 0.18427(4) 0.18427(4) 0.0571 Uani
Zn2 Zn 0.27914(4) 0.26524(4) 0.18651(3) 0.0532 Uani
O6 O 0.22879(17) 0.22879(17) 0.22879(17) 0.0450 Uani
O1A O 0.1997(3) 0.2775(3) 0.3395(2) 0.0870 Uani
O2A O 0.2495(3) 0.2052(2) 0.3499(2) 0.0897 Uani
O3A O 0.2700(3) 0.2425(3) 0.6131(2) 0.0887 Uani
O4A O 0.1992(3) 0.3014(3) 0.6120(3) 0.0973 Uani
C1A C 0.1993(5) 0.2973(5) 0.5043(5) 0.1010 Uiso
H1A H 0.1793 0.3221 0.5219 0.1210 Uiso
C2A C 0.2249(4) 0.2453(4) 0.3674(4) 0.0720 Uiso
C3A C 0.1959(5) 0.2933(6) 0.4490(6) 0.1180 Uiso
C4A C 0.2319(4) 0.2649(4) 0.5320(4) 0.0960 Uiso
C5A C 0.2261(4) 0.2526(4) 0.4247(4) 0.0810 Uiso
C6A C 0.2314(4) 0.2701(4) 0.5896(4) 0.0850 Uiso
C7A C 0.2615(5) 0.2254(5) 0.5080(4) 0.1020 Uiso
H2A H 0.2825 0.2032 0.5277 0.1220 Uiso
C8A C 0.2584(4) 0.2205(4) 0.4541(4) 0.0860 Uiso
H3A H 0.2784 0.1951 0.4373 0.1030 Uiso
N1A N 0.1676(7) 0.3257(6) 0.4205(5) 0.1910 Uani
H4A H 0.1716 0.3188 0.3878 0.2290 Uiso
C9A C 0.1034(6) 0.3787(6) 0.3434(7) 0.1640 Uiso
H5A H 0.1154 0.3450 0.3366 0.1960 Uiso
C10A C 0.0732(7) 0.4047(8) 0.3072(8) 0.2000 Uiso
H6A H 0.0571 0.3838 0.2822 0.2390 Uiso
C11A C 0.0791(12) 0.4834(14) 0.3472(13) 0.3250 Uiso
H7A H 0.0709 0.5185 0.3516 0.3900 Uiso
C12A C 0.1156(16) 0.4029(11) 0.3896(10) 0.4467 Uani
C13A C 0.1331(14) 0.3678(12) 0.4267(11) 0.3600 Uiso
C14A C 0.1072(13) 0.4573(12) 0.3858(14) 0.3370 Uiso
H8A H 0.1220 0.4779 0.4118 0.4050 Uiso
C15A C 0.0637(11) 0.4579(10) 0.3032(13) 0.2910 Uiso
H9A H 0.0487 0.4740 0.2742 0.3490 Uiso
O5A O 0.1363(14) 0.3875(11) 0.4756(8) 0.5093 Uani
Zn2A Zn 0.18651(3) 0.27914(4) 0.26524(4) 0.0532 Uani
O1B O 0.3395(2) 0.1997(3) 0.2775(3) 0.0870 Uani
O2B O 0.3499(2) 0.2495(3) 0.2052(2) 0.0897 Uani
O3B O 0.6131(2) 0.2700(3) 0.2425(3) 0.0887 Uani
O4B O 0.6120(3) 0.1992(3) 0.3014(3) 0.0973 Uani
C1B C 0.5043(5) 0.1993(5) 0.2973(5) 0.1010 Uiso
H1B H 0.5219 0.1793 0.3221 0.1210 Uiso
C2B C 0.3674(4) 0.2249(4) 0.2453(4) 0.0720 Uiso
C3B C 0.4490(6) 0.1959(5) 0.2933(6) 0.1180 Uiso
C4B C 0.5320(4) 0.2319(4) 0.2649(4) 0.0960 Uiso
C5B C 0.4247(4) 0.2261(4) 0.2526(4) 0.0810 Uiso
C6B C 0.5896(4) 0.2314(4) 0.2701(4) 0.0850 Uiso
C7B C 0.5080(4) 0.2615(5) 0.2254(5) 0.1020 Uiso
H2B H 0.5277 0.2825 0.2032 0.1220 Uiso
C8B C 0.4541(4) 0.2584(4) 0.2205(4) 0.0860 Uiso
H3B H 0.4373 0.2784 0.1951 0.1030 Uiso
N1B N 0.4205(5) 0.1676(7) 0.3257(6) 0.1910 Uani
H4B H 0.3878 0.1716 0.3188 0.2290 Uiso
C9B C 0.3434(7) 0.1034(6) 0.3787(6) 0.1640 Uiso
H5B H 0.3366 0.1154 0.3450 0.1960 Uiso
C10B C 0.3072(8) 0.0732(7) 0.4047(8) 0.2000 Uiso
H6B H 0.2822 0.0571 0.3838 0.2390 Uiso
C11B C 0.3472(13) 0.0791(12) 0.4834(14) 0.3250 Uiso
H7B H 0.3516 0.0709 0.5185 0.3900 Uiso
C12B C 0.3896(10) 0.1156(16) 0.4029(11) 0.4467 Uani
C13B C 0.4267(11) 0.1331(14) 0.3678(12) 0.3600 Uiso
C14B C 0.3858(14) 0.1072(13) 0.4573(12) 0.3370 Uiso
H8B H 0.4118 0.1220 0.4779 0.4050 Uiso
C15B C 0.3032(13) 0.0637(11) 0.4579(10) 0.2910 Uiso
H9B H 0.2742 0.0487 0.4740 0.3490 Uiso
O5B O 0.4756(8) 0.1363(14) 0.3875(11) 0.5093 Uani
Zn2B Zn 0.26524(4) 0.18651(3) 0.27914(4) 0.0532 Uani
O3O O 0.1131(2) 0.2700(3) 0.2575(3) 0.0887 Uani
O3S O 0.2700(3) 0.2575(3) 0.1131(2) 0.0887 Uani
O3U O 0.2575(3) 0.1131(2) 0.2700(3) 0.0887 Uani
O4O O 0.1120(3) 0.1992(3) 0.1986(3) 0.0973 Uani
O4S O 0.1992(3) 0.1986(3) 0.1120(3) 0.0973 Uani
O4U O 0.1986(3) 0.1120(3) 0.1992(3) 0.0973 Uani
Zn1O Zn 0.68427(4) 0.18427(4) 0.31573(4) 0.0571 Uani
Zn1P Zn 0.31573(4) 0.68427(4) 0.18427(4) 0.0571 Uani
Zn1Q Zn 0.18427(4) 0.31573(4) 0.68427(4) 0.0571 Uani
Zn2R Zn 0.68651(3) 0.27914(4) 0.23476(4) 0.0532 Uani
Zn2T Zn 0.23476(4) 0.68651(3) 0.27914(4) 0.0532 Uani
Zn2V Zn 0.27914(4) 0.23476(4) 0.68651(3) 0.0532 Uani
loop_
_atom_site_aniso_label
_atom_site_aniso_U_11
_atom_site_aniso_U_22
_atom_site_aniso_U_33
_atom_site_aniso_U_23
_atom_site_aniso_U_13
_atom_site_aniso_U_12
O1 0.091(5) 0.054(4) 0.116(5) -0.003(4) 0.024(4) 0.009(4)
O2 0.068(4) 0.066(4) 0.135(6) -0.010(4) 0.016(4) 0.007(3)
O3 0.115 0.048 0.103 -0.008 0.014 -0.006
O4 0.12 0.064 0.108 0.005 0.036 -0.013
N1 0.162(12) 0.128(10) 0.283(19) -0.041(12) 0.101(13) -0.023(9)
C12 0.39(4) 0.32(4) 0.63(7) -0.03(4) 0.37(5) 0.09(4)
O5 0.53(4) 0.198(16) 0.80(6) -0.14(3) 0.48(4) -0.11(2)
Zn1 0.0571(5) 0.0571(5) 0.0571(5) 0.0031(5) 0.0031(5) 0.0031(5)
Zn2 0.0512(6) 0.0577(7) 0.0506(6) 0.0058(4) 0.0005(4) 0.0003(4)
O6 0.045(2) 0.045(2) 0.045(2) -0.004(2) -0.004(2) -0.004(2)
O1A 0.116 0.091 0.054 0.009 -0.003 0.024
O2A 0.135 0.068 0.066 0.007 -0.01 0.016
O3A 0.103 0.115 0.048 -0.006 -0.008 0.014
O4A 0.108 0.12 0.064 -0.013 0.005 0.036
N1A 0.283 0.162 0.128 -0.023 -0.041 0.101
C12A 0.63 0.39 0.32 0.09 -0.03 0.37
O5A 0.8 0.53 0.198 -0.11 -0.14 0.48
Zn2A 0.0506 0.0512 0.0577 0.0003 0.0058 0.0005
O1B 0.054 0.116 0.091 0.024 0.009 -0.003
O2B 0.066 0.135 0.068 0.016 0.007 -0.01
O3B 0.048 0.103 0.115 0.014 -0.006 -0.008
O4B 0.064 0.108 0.12 0.036 -0.013 0.005
N1B 0.128 0.283 0.162 0.101 -0.023 -0.041
C12B 0.32 0.63 0.39 0.37 0.09 -0.03
O5B 0.198 0.8 0.53 0.48 -0.11 -0.14
Zn2B 0.0577 0.0506 0.0512 0.0005 0.0003 0.0058
O3O 0.048 0.103 0.115 -0.014 0.006 -0.008
O3S 0.103 0.115 0.048 0.006 -0.008 -0.014
O3U 0.115 0.048 0.103 -0.008 -0.014 0.006
O4O 0.064 0.108 0.12 -0.036 0.013 0.005
O4S 0.108 0.12 0.064 0.013 0.005 -0.036
O4U 0.12 0.064 0.108 0.005 -0.036 0.013
Zn1O 0.0571 0.0571 0.0571 -0.0031 -0.0031 0.0031
Zn1P 0.0571 0.0571 0.0571 0.0031 -0.0031 -0.0031
Zn1Q 0.0571 0.0571 0.0571 -0.0031 0.0031 -0.0031
Zn2R 0.0506 0.0512 0.0577 -0.0003 -0.0058 0.0005
Zn2T 0.0577 0.0506 0.0512 0.0005 -0.0003 -0.0058
Zn2V 0.0512 0.0577 0.0506 -0.0058 0.0005 -0.0003
loop_
_geom_bond_atom_site_label_1
_geom_bond_atom_site_label_2
_geom_bond_site_symmetry_1
_geom_bond_site_symmetry_2
O1 C2 1_555 1_555
O2 C2 1_555 1_555
O3 C6 1_555 1_555
O4 C6 1_555 1_555
C1 H1 1_555 1_555
C2 C5 1_555 1_555
C3 C1 1_555 1_555
C4 C1 1_555 1_555
C5 C3 1_555 1_555
C6 C4 1_555 1_555
C7 C4 1_555 1_555
H2 C7 1_555 1_555
C8 C5 1_555 1_555
H3 C8 1_555 1_555
N1 C3 1_555 1_555
H4 N1 1_555 1_555
C9 H5 1_555 1_555
C10 C9 1_555 1_555
H6 C10 1_555 1_555
C11 H7 1_555 1_555
C12 C9 1_555 1_555
C13 N1 1_555 1_555
C14 C11 1_555 1_555
H8 C14 1_555 1_555
C15 C10 1_555 1_555
H9 C15 1_555 1_555
O5 C13 1_555 1_555
Zn1 O6 1_555 1_555
Zn2 O1 1_555 1_555
O6 Zn2 1_555 1_555
O1A C2A 1_555 1_555
O2A C2A 1_555 1_555
O3A C6A 1_555 1_555
O4A C6A 1_555 1_555
C1A H1A 1_555 1_555
C2A C5A 1_555 1_555
C3A C1A 1_555 1_555
C4A C1A 1_555 1_555
C5A C3A 1_555 1_555
C6A C4A 1_555 1_555
C7A C4A 1_555 1_555
H2A C7A 1_555 1_555
C8A C5A 1_555 1_555
H3A C8A 1_555 1_555
N1A C3A 1_555 1_555
H4A N1A 1_555 1_555
C9A H5A 1_555 1_555
C10A C9A 1_555 1_555
H6A C10A 1_555 1_555
C11A H7A 1_555 1_555
C12A C9A 1_555 1_555
C13A N1A 1_555 1_555
C14A C11A 1_555 1_555
H8A C14A 1_555 1_555
C15A C10A 1_555 1_555
H9A C15A 1_555 1_555
O5A C13A 1_555 1_555
Zn2A O2 1_555 1_555
O1B C2B 1_555 1_555
O2B Zn2 1_555 1_555
O3B C6B 1_555 1_555
O4B C6B 1_555 1_555
C1B H1B 1_555 1_555
C2B O2B 1_555 1_555
C3B C1B 1_555 1_555
C4B C1B 1_555 1_555
C5B C2B 1_555 1_555
C6B C4B 1_555 1_555
C7B C4B 1_555 1_555
H2B C7B 1_555 1_555
C8B C5B 1_555 1_555
H3B C8B 1_555 1_555
N1B C3B 1_555 1_555
H4B N1B 1_555 1_555
C9B H5B 1_555 1_555
C10B C9B 1_555 1_555
H6B C10B 1_555 1_555
C11B H7B 1_555 1_555
C12B C9B 1_555 1_555
C13B N1B 1_555 1_555
C14B C11B 1_555 1_555
H8B C14B 1_555 1_555
C15B C10B 1_555 1_555
H9B C15B 1_555 1_555
O5B C13B 1_555 1_555
Zn2B O6 1_555 1_555
O3O Zn2A 1_555 1_555
O3S Zn2 1_555 1_555
O3U Zn2B 1_555 1_555
O4O Zn1 1_555 1_555
O4S Zn1 1_555 1_555
O4U Zn1 1_555 1_555
Zn1O O4B 1_555 1_555
Zn1P O4 1_555 1_555
Zn1Q O4A 1_555 1_555
Zn2R O3B 1_555 1_555
Zn2T O3 1_555 1_555
Zn2V O3A 1_555 1_555
C7 C8 1_555 1_555
C11 C15 1_555 1_555
C12 C13 1_555 1_555
C12 C14 1_555 1_555
O6 Zn2A 1_555 1_555
O1A Zn2A 1_555 1_555
O2A Zn2B 1_555 1_555
C7A C8A 1_555 1_555
C11A C15A 1_555 1_555
C12A C13A 1_555 1_555
C12A C14A 1_555 1_555
O1B Zn2B 1_555 1_555
C3B C5B 1_555 1_555
C7B C8B 1_555 1_555
C11B C15B 1_555 1_555
C12B C13B 1_555 1_555
C12B C14B 1_555 1_555

#END
