
#######################################################################
#
#                 Cambridge Crystallographic Data Centre
#                                CCDC 
#
#######################################################################
#
# If this CIF has been generated from an entry in the Cambridge 
# Structural Database, then it will include bibliographic, chemical, 
# crystal, experimental, refinement or atomic coordinate data resulting 
# from the CCDC's data processing and validation procedures.
#
#######################################################################

data_EQEROJ
_chemical_formula_moiety         '(C20 H22 N2 O11 Zn2)n'
_symmetry_cell_setting           monoclinic
_symmetry_space_group_name_H-M   'P 21/c'
_symmetry_Int_Tables_number      14
_space_group_name_Hall           '-P 2ybc'
loop_
_symmetry_equiv_pos_site_id
_symmetry_equiv_pos_as_xyz
1 x,y,z
2 -x,1/2+y,1/2-z
3 -x,-y,-z
4 x,1/2-y,1/2+z
_cell_length_a                   15.023(2)
_cell_length_b                   10.1643(13)
_cell_length_c                   18.196(3)
_cell_angle_alpha                90
_cell_angle_beta                 114.233(2)
_cell_angle_gamma                90
_cell_volume                     2533.67
loop_
_atom_site_label
_atom_site_type_symbol
_atom_site_fract_x
_atom_site_fract_y
_atom_site_fract_z
_atom_site_U_iso_or_equiv
_atom_site_thermal_displace_type
Zn1 Zn 0.11150(2) 0.27736(3) 0.23655(2) 0.0270 Uani
Zn2 Zn -0.15583(2) 1.05025(3) 0.04666(2) 0.0227 Uani
C1 C 0.17467(19) 0.6650(3) 0.20190(15) 0.0255 Uani
H1 H 0.2385 0.7064 0.2163 0.0310 Uiso
C2 C 0.10889(18) 0.7402(3) 0.23557(14) 0.0242 Uani
H2 H 0.1308 0.8318 0.2465 0.0290 Uiso
C3 C 0.02346(18) 0.7310(2) 0.15121(14) 0.0218 Uani
H3 H -0.0121 0.6493 0.1492 0.0260 Uiso
C4 C 0.09852(19) 0.7023(2) 0.11489(15) 0.0245 Uani
H4 H 0.0800 0.6272 0.0778 0.0290 Uiso
C5 C 0.1812(2) 0.5185(3) 0.21858(16) 0.0316 Uani
C6 C 0.09737(19) 0.6846(2) 0.30745(15) 0.0246 Uani
C7 C -0.04941(19) 0.8407(2) 0.12414(15) 0.0251 Uani
C8 C 0.13045(19) 0.8207(3) 0.08132(15) 0.0267 Uani
O1 O 0.09923(16) 0.45599(18) 0.19243(12) 0.0381 Uani
O2 O 0.26031(17) 0.4651(2) 0.25612(14) 0.0503 Uani
O3 O 0.01465(14) 0.67915(19) 0.30960(11) 0.0338 Uani
O4 O 0.17405(13) 0.64528(18) 0.36495(10) 0.0283 Uani
O5 O -0.05619(14) 0.91217(19) 0.06528(11) 0.0323 Uani
O6 O -0.10395(14) 0.85693(19) 0.16024(11) 0.0332 Uani
O7 O 0.11794(17) 0.80895(19) 0.00752(12) 0.0411 Uani
O8 O 0.16755(17) 0.9178(2) 0.12343(13) 0.0448 Uani
N1 N 0.22348(16) 0.1531(2) 0.29592(14) 0.0315 Uani
C9 C 0.3050(2) 0.1506(4) 0.2833(2) 0.0532 Uani
H5 H 0.3112 0.2099 0.2467 0.0640 Uiso
C10 C 0.3802(3) 0.0640(4) 0.3221(3) 0.0629 Uani
H6 H 0.4356 0.0656 0.3114 0.0760 Uiso
C11 C 0.3735(2) -0.0253(3) 0.3770(2) 0.0503 Uani
C12 C 0.2891(3) -0.0233(4) 0.3885(3) 0.0650 Uani
H7 H 0.2803 -0.0826 0.4238 0.0780 Uiso
C13 C 0.2168(3) 0.0667(3) 0.3477(2) 0.0533 Uani
H8 H 0.1605 0.0664 0.3571 0.0640 Uiso
N2 N 0.70864(17) -0.4691(2) 0.49390(14) 0.0321 Uani
C14 C 0.6649(2) -0.4293(3) 0.54078(19) 0.0412 Uani
H9 H 0.6951 -0.4462 0.5958 0.0490 Uiso
C15 C 0.5767(2) -0.3642(3) 0.5108(2) 0.0512 Uani
H10 H 0.5484 -0.3384 0.5454 0.0610 Uiso
C16 C 0.5300(2) -0.3371(3) 0.4291(2) 0.0482 Uani
C17 C 0.5746(3) -0.3801(4) 0.3817(2) 0.0687 Uani
H11 H 0.5451 -0.3660 0.3263 0.0830 Uiso
C18 C 0.6629(3) -0.4442(4) 0.4151(2) 0.0558 Uani
H12 H 0.6920 -0.4713 0.3813 0.0670 Uiso
C19 C 0.4563(3) -0.1199(4) 0.4213(3) 0.0731 Uani
H13 H 0.5141 -0.0903 0.4150 0.0880 Uiso
H14 H 0.4704 -0.1169 0.4783 0.0880 Uiso
C20 C 0.4363(3) -0.2574(4) 0.3936(3) 0.0652 Uani
H15 H 0.4102 -0.2603 0.3352 0.0780 Uiso
H16 H 0.3882 -0.2947 0.4103 0.0780 Uiso
O9 O 0.1157(2) 0.1960(3) 0.11665(15) 0.0475 Uani
H17 H 0.066(3) 0.208(7) 0.075(2) 0.1600 Uiso
H18 H 0.140(4) 0.122(3) 0.118(4) 0.1400 Uiso
Zn1A Zn -0.11150(2) 0.77736(3) 0.26345(2) 0.0270 Uani
Zn2A Zn 0.15583(2) 0.55025(3) 0.45334(2) 0.0227 Uani
Zn2B Zn 0.15583(2) 0.94975(3) -0.04666(2) 0.0227 Uani
Zn2C Zn 0.84417(2) -0.55025(3) 0.54666(2) 0.0227 Uani
O3A O -0.01465(14) 0.17915(19) 0.19040(11) 0.0338 Uani
O4A O -0.17405(13) 1.14528(18) 0.13505(10) 0.0283 Uani
O6A O 0.10395(14) 0.35693(19) 0.33976(11) 0.0332 Uani
O7B O -0.11794(17) 1.19105(19) -0.00752(12) 0.0411 Uani
N2C N -0.29136(17) 0.9691(2) -0.00610(14) 0.0321 Uani
O10 O 0.2115(3) 0.1295(4) 0.5440(3) 0.1086 Uani
H19 H 0.170(4) 0.073(6) 0.517(4) 0.1630 Uiso
H20 H 0.190(5) 0.169(6) 0.573(4) 0.1630 Uiso
O11 O 0.0885(2) 0.9410(3) 0.43797(16) 0.0605 Uani
H21 H 0.105(3) 0.863(3) 0.457(3) 0.0910 Uiso
H22 H 0.0290(17) 0.944(5) 0.404(2) 0.0910 Uiso
loop_
_atom_site_aniso_label
_atom_site_aniso_U_11
_atom_site_aniso_U_22
_atom_site_aniso_U_33
_atom_site_aniso_U_23
_atom_site_aniso_U_13
_atom_site_aniso_U_12
Zn1 0.02682(17) 0.02274(19) 0.03297(19) 0.00567(12) 0.01382(14) 0.00345(12)
Zn2 0.02491(16) 0.02328(18) 0.01973(16) 0.00009(11) 0.00912(12) -0.00283(11)
C1 0.0281(14) 0.0256(15) 0.0270(14) 0.0045(10) 0.0157(11) 0.0018(10)
C2 0.0307(14) 0.0231(14) 0.0207(13) 0.0023(10) 0.0126(11) 0.0014(10)
C3 0.0294(14) 0.0187(13) 0.0198(12) 0.0013(9) 0.0125(11) -0.0002(10)
C4 0.0325(14) 0.0216(14) 0.0214(13) 0.0017(10) 0.0132(11) 0.0015(11)
C5 0.0432(17) 0.0332(16) 0.0270(15) 0.0048(11) 0.0231(13) 0.0112(13)
C6 0.0339(15) 0.0201(14) 0.0216(13) -0.0009(10) 0.0131(11) 0.0033(11)
C7 0.0283(14) 0.0240(14) 0.0220(13) -0.0006(10) 0.0093(11) -0.0044(11)
C8 0.0311 0.0258 0.026 0.006 0.0146 0.0032
O1 0.0512(13) 0.0243(11) 0.0414(12) 0.0078(8) 0.0215(10) 0.0035(9)
O2 0.0524(14) 0.0463(14) 0.0538(15) 0.0156(11) 0.0234(12) 0.0245(11)
O3 0.0332(11) 0.0434(12) 0.0291(10) 0.0114(8) 0.0172(9) 0.0089(9)
O4 0.0316 0.0319 0.0217 0.0054 0.0112 0.0058
O5 0.0386(11) 0.0331(11) 0.0274(10) 0.0112(8) 0.0158(9) 0.0086(9)
O6 0.0373 0.0329 0.0357 0.0065 0.0213 0.0072
O7 0.0755 0.0286 0.033 0.0021 0.0361 -0.0052
O8 0.0592 0.0364 0.0384 -0.0028 0.0195 -0.0196
N1 0.0307(12) 0.0298(13) 0.0349(13) 0.0032(10) 0.0143(10) 0.0079(10)
C9 0.045(2) 0.061(2) 0.062(2) 0.0214(18) 0.0306(18) 0.0212(17)
C10 0.045(2) 0.067(3) 0.085(3) 0.017(2) 0.035(2) 0.0240(18)
C11 0.0363(18) 0.0383(19) 0.062(2) 0.0014(16) 0.0056(16) 0.0121(14)
C12 0.057(2) 0.058(2) 0.079(3) 0.040(2) 0.027(2) 0.0226(19)
C13 0.046(2) 0.053(2) 0.069(2) 0.0302(18) 0.0319(18) 0.0219(16)
N2 0.0300(12) 0.0339(14) 0.0303(13) 0.0039(10) 0.0101(10) 0.0074(10)
C14 0.0384(17) 0.047(2) 0.0375(17) 0.0062(13) 0.0149(14) 0.0142(14)
C15 0.0435(19) 0.054(2) 0.061(2) 0.0002(17) 0.0263(17) 0.0151(16)
C16 0.0335(17) 0.0394(19) 0.056(2) -0.0014(15) 0.0026(15) 0.0107(14)
C17 0.061(2) 0.091(3) 0.039(2) 0.0098(19) 0.0053(18) 0.042(2)
C18 0.051(2) 0.081(3) 0.0318(18) 0.0102(16) 0.0133(16) 0.0345(19)
C19 0.049(2) 0.047(2) 0.091(3) 0.002(2) -0.004(2) 0.0209(18)
C20 0.0352(19) 0.051(2) 0.086(3) -0.004(2) 0.0011(19) 0.0177(16)
O9 0.0539(15) 0.0530(16) 0.0404(14) 0.0033(11) 0.0241(12) 0.0042(12)
Zn1A 0.02682 0.02274 0.03297 -0.00567 0.01382 -0.00345
Zn2A 0.02491 0.02328 0.01973 -9e-05 0.00912 0.00283
Zn2B 0.02491 0.02328 0.01973 9e-05 0.00912 -0.00283
Zn2C 0.02491 0.02328 0.01973 -9e-05 0.00912 0.00283
O3A 0.0332 0.0434 0.0291 -0.0114 0.0172 -0.0089
O4A 0.0316 0.0319 0.0217 -0.0054 0.0112 -0.0058
O6A 0.0373 0.0329 0.0357 -0.0065 0.0213 -0.0072
O7B 0.0755 0.0286 0.033 0.0021 0.0361 -0.0052
N2C 0.03 0.0339 0.0303 -0.0039 0.0101 -0.0074
O10 0.126(3) 0.103(3) 0.111(3) -0.041(2) 0.063(3) -0.009(2)
O11 0.0744(19) 0.0435(15) 0.0535(17) 0.0116(12) 0.0160(14) -0.0038(14)
loop_
_geom_bond_atom_site_label_1
_geom_bond_atom_site_label_2
_geom_bond_site_symmetry_1
_geom_bond_site_symmetry_2
Zn1 O1 1_555 1_555
Zn2 O5 1_555 1_555
C1 H1 1_555 1_555
C2 C1 1_555 1_555
H2 C2 1_555 1_555
C3 C2 1_555 1_555
H3 C3 1_555 1_555
C4 C1 1_555 1_555
H4 C4 1_555 1_555
C5 C1 1_555 1_555
C6 C2 1_555 1_555
C7 C3 1_555 1_555
C8 C4 1_555 1_555
O1 C5 1_555 1_555
O2 C5 1_555 1_555
O3 C6 1_555 1_555
O4 C6 1_555 1_555
O5 C7 1_555 1_555
O6 C7 1_555 1_555
O7 C8 1_555 1_555
O8 C8 1_555 1_555
N1 Zn1 1_555 1_555
C9 N1 1_555 1_555
H5 C9 1_555 1_555
C10 C9 1_555 1_555
H6 C10 1_555 1_555
C11 C10 1_555 1_555
C12 C11 1_555 1_555
H7 C12 1_555 1_555
C13 N1 1_555 1_555
H8 C13 1_555 1_555
N2 C14 1_555 1_555
C14 H9 1_555 1_555
C15 C14 1_555 1_555
H10 C15 1_555 1_555
C16 C15 1_555 1_555
C17 C16 1_555 1_555
H11 C17 1_555 1_555
C18 N2 1_555 1_555
H12 C18 1_555 1_555
C19 C11 1_555 1_555
H13 C19 1_555 1_555
H14 C19 1_555 1_555
C20 C16 1_555 1_555
H15 C20 1_555 1_555
H16 C20 1_555 1_555
O9 Zn1 1_555 1_555
H17 O9 1_555 1_555
H18 O9 1_555 1_555
O10 H19 1_555 1_555
H20 O10 1_555 1_555
O11 H21 1_555 1_555
H22 O11 1_555 1_555
Zn1A O3 1_555 1_555
Zn2A O4 1_555 1_555
Zn2B O7 1_555 1_555
Zn2C N2 1_555 1_555
O3A Zn1 1_555 1_555
O4A Zn2 1_555 1_555
O6A Zn1 1_555 1_555
O7B Zn2 1_555 1_555
N2C Zn2 1_555 1_555
C3 C4 1_555 1_555
O6 Zn1A 1_555 1_555
C12 C13 1_555 1_555
C17 C18 1_555 1_555
C19 C20 1_555 1_555

#END
