
#######################################################################
#
#                 Cambridge Crystallographic Data Centre
#                                CCDC 
#
#######################################################################
#
# If this CIF has been generated from an entry in the Cambridge 
# Structural Database, then it will include bibliographic, chemical, 
# crystal, experimental, refinement or atomic coordinate data resulting 
# from the CCDC's data processing and validation procedures.
#
#######################################################################

data_KUNLAH
_chemical_formula_moiety         'C65 H72 N8 O63 Zn22 1+'
_symmetry_cell_setting           orthorhombic
_symmetry_space_group_name_H-M   'C m c 21'
_symmetry_Int_Tables_number      36
_space_group_name_Hall           'C 2c -2'
loop_
_symmetry_equiv_pos_site_id
_symmetry_equiv_pos_as_xyz
1 x,y,z
2 -x,-y,1/2+z
3 -x,y,z
4 x,-y,1/2+z
5 1/2+x,1/2+y,z
6 1/2-x,1/2-y,1/2+z
7 1/2-x,1/2+y,z
8 1/2+x,1/2-y,1/2+z
_cell_length_a                   29.555(6)
_cell_length_b                   28.856(6)
_cell_length_c                   17.719(4)
_cell_angle_alpha                90
_cell_angle_beta                 90
_cell_angle_gamma                90
_cell_volume                     15111.5
loop_
_atom_site_label
_atom_site_type_symbol
_atom_site_fract_x
_atom_site_fract_y
_atom_site_fract_z
_atom_site_U_iso_or_equiv
_atom_site_thermal_displace_type
O7 O 0.7546(7) 0.5454(5) 0.3617(10) 0.0447 Uani
O8 O 1.0000 0.7544(5) 0.5643(9) 0.0940 Uiso
O9 O 1.0000 0.7625(5) 0.6887(7) 0.0883 Uani
O10 O 0.5000 0.6906(8) 1.4274(17) 0.0783 Uani
O11 O 1.0000 0.7213(8) 0.8941(10) 0.0700 Uani
O12 O 1.0000 0.7515(11) 1.0147(19) 0.0500 Uiso
O13 O 1.0000 0.6974(5) 1.1348(10) 0.0277 Uani
O14 O 1.0000 0.7905(15) 1.110(3) 0.0940 Uiso
Zn2 Zn 0.83755(2) 0.75680(2) 0.95392(4) 0.0140 Uani
O15 O 0.82912(16) 0.75689(15) 0.8368(3) 0.0187 Uani
C10 C 0.8949(3) 0.6719(2) 0.9122(4) 0.0253 Uani
Zn3 Zn 0.81599(2) 0.82151(2) 0.81071(4) 0.0165 Uani
O16 O 0.8384(5) 0.7503(5) 1.0740(10) 0.0360 Uiso
N4 N 1.0000 0.3949(5) 1.1781(5) 0.0507 Uani
C11 C 0.9113(2) 0.6294(2) 0.9535(4) 0.0237 Uani
Zn4 Zn 0.87561(3) 0.72392(3) 0.77922(5) 0.0309 Uani
O17 O 0.8140(3) 0.6964(3) 0.8066(5) 0.0803 Uani
N5 N 0.9610(5) 0.7443(4) 1.3090(10) 0.0437 Uani
C12 C 0.9184(2) 0.5878(2) 0.9138(4) 0.0227 Uani
H19 H 0.9137 0.5867 0.8608 0.0270 Uiso
Zn5 Zn 1.0000 0.41670(3) 0.94125(6) 0.0175 Uani
O18 O 0.9322(3) 0.7613(3) 0.7925(6) 0.0763 Uani
N6 N 1.0000 0.9134(3) 1.7010(6) 0.0483 Uani
C13 C 0.9321(2) 0.5484(2) 0.9521(4) 0.0207 Uani
Zn6 Zn 0.93798(3) 0.43988(3) 0.79534(4) 0.0229 Uani
O19 O 1.0000 0.4185(2) 0.8206(4) 0.0210 Uani
C14 C 0.9401(2) 0.5037(2) 0.9110(4) 0.0220 Uani
Zn7 Zn 0.96421(5) 0.86499(5) 1.28738(9) 0.0219 Uani
O20 O 1.0000 0.4173(3) 1.0612(5) 0.0417 Uani
C15 C 0.9382(2) 0.5503(2) 1.0293(4) 0.0217 Uani
H20 H 0.9481 0.5233 1.0551 0.0260 Uiso
Zn8 Zn 0.94304(4) 0.92624(5) 1.31588(7) 0.0124 Uani
O21 O 1.0000 0.9103(2) 1.3472(3) 0.0233 Uani
C16 C 0.9303(2) 0.5909(2) 1.0709(4) 0.0183 Uani
Zn9 Zn 1.0000 0.90040(3) 1.46382(5) 0.0146 Uani
O22 O 1.0000 0.8021(5) 1.2922(10) 0.1067 Uani
C17 C 0.9338(2) 0.5920(2) 1.1548(4) 0.0230 Uani
O23 O 1.0000 0.8870(2) 1.5779(4) 0.0330 Uani
C18 C 0.9172(2) 0.6305(2) 1.0308(4) 0.0230 Uani
H21 H 0.9121 0.6587 1.0574 0.0280 Uiso
O24 O 0.88884(16) 0.70699(15) 0.9500(3) 0.0233 Uani
C19 C 0.8793(2) 0.8517(2) 0.9221(4) 0.0230 Uani
O25 O 0.8878(2) 0.66803(19) 0.8415(3) 0.0400 Uani
C20 C 0.9014(2) 0.8892(2) 0.9650(4) 0.0213 Uani
O26 O 0.93238(17) 0.50228(17) 0.8407(3) 0.0267 Uani
C21 C 0.9134(2) 0.8810(2) 1.0398(4) 0.0223 Uani
H22 H 0.9091 0.8512 1.0614 0.0270 Uiso
O27 O 0.95181(19) 0.46939(17) 0.9500(3) 0.0323 Uani
C22 C 0.9320(2) 0.9173(2) 1.0831(4) 0.0217 Uani
O28 O 0.9315(2) 0.55281(18) 1.1871(3) 0.0330 Uani
C23 C 0.9429(3) 0.9092(3) 1.1652(4) 0.0290 Uani
O29 O 0.9388(2) 0.62869(19) 1.1875(3) 0.0397 Uani
C24 C 0.9384(2) 0.9608(2) 1.0506(4) 0.0240 Uani
H23 H 0.9504 0.9855 1.0799 0.0290 Uiso
O30 O 0.88268(16) 0.81115(17) 0.9469(4) 0.0317 Uani
C25 C 0.9274(3) 0.9681(3) 0.9761(4) 0.0283 Uani
O31 O 0.85645(17) 0.86374(17) 0.8637(3) 0.0277 Uani
C26 C 0.9387(3) 1.0139(3) 0.9387(5) 0.0350 Uani
O32 O 0.9459(3) 0.87058(19) 1.1914(3) 0.0537 Uani
C27 C 0.9093(2) 0.9331(2) 0.9326(4) 0.0253 Uani
H24 H 0.9022 0.9385 0.8811 0.0300 Uiso
O33 O 0.9323(6) 0.9443(4) 1.2113(6) 0.0090 Uiso
C28 C 0.7511(2) 0.7037(2) 0.9289(4) 0.0233 Uani
O34 O 0.9524(2) 1.04599(18) 0.9815(3) 0.0380 Uani
C29 C 0.7087(2) 0.6881(2) 0.9676(4) 0.0210 Uani
O35 O 0.9346(3) 1.01674(19) 0.8693(3) 0.0557 Uani
C30 C 0.6707(2) 0.6755(3) 0.9267(4) 0.0283 Uani
H25 H 0.6718 0.6759 0.8731 0.0340 Uiso
O36 O 0.78588(16) 0.70871(19) 0.9693(3) 0.0313 Uani
C31 C 0.6305(2) 0.6620(2) 0.9632(4) 0.0230 Uani
O37 O 0.74949(17) 0.7117(2) 0.8602(3) 0.0347 Uani
C32 C 0.5905(2) 0.6459(3) 0.9193(4) 0.0333 Uani
O38 O 0.9075(4) 0.8552(5) 1.3503(6) 0.0303 Uani
C33 C 0.6281(2) 0.6635(3) 1.0412(4) 0.0227 Uani
H26 H 0.6005 0.6569 1.0663 0.0270 Uiso
O39 O 0.94702(15) 0.85265(17) 1.4515(3) 0.0257 Uani
C34 C 0.6672(2) 0.6750(2) 1.0831(4) 0.0207 Uani
O40 O 0.6270(2) 0.6858(4) 1.1992(4) 0.0687 Uani
C35 C 0.6631(2) 0.6757(3) 1.1677(4) 0.0263 Uani
O41 O 0.80103(17) 0.83194(18) 0.7050(3) 0.0273 Uani
C36 C 0.7068(2) 0.6870(2) 1.0474(4) 0.0223 Uani
H27 H 0.7329 0.6945 1.0763 0.0270 Uiso
O42 O 0.78457(16) 0.80793(18) 0.9685(3) 0.0270 Uani
C37 C 0.7524(2) 0.8228(2) 0.9273(4) 0.0203 Uani
O43 O 0.75588(16) 0.83272(18) 0.8590(3) 0.0247 Uani
C38 C 0.7073(2) 0.8289(2) 0.9628(4) 0.0193 Uani
O44 O 0.89808(17) 0.39873(19) 0.8543(3) 0.0300 Uani
C39 C 0.6725(2) 0.8494(2) 0.9226(4) 0.0180 Uani
H28 H 0.6778 0.8606 0.8729 0.0220 Uiso
O45 O 1.05246(16) 0.36942(17) 0.9378(3) 0.0277 Uani
C40 C 0.6295(2) 0.8537(2) 0.9549(4) 0.0190 Uani
O46 O 0.8897(2) 0.6961(2) 0.6758(3) 0.0453 Uani
C41 C 0.9088(2) 0.3757(2) 0.9120(4) 0.0230 Uani
O47 O 0.8191(2) 0.7123(2) 0.6872(3) 0.0483 Uani
C42 C 0.6219(2) 0.8379(2) 1.0286(4) 0.0213 Uani
H29 H 0.5925 0.8405 1.0501 0.0250 Uiso
C43 C 0.6566(2) 0.8186(2) 1.0703(4) 0.0210 Uani
C44 C 0.7001(2) 0.8133(2) 1.0359(4) 0.0243 Uani
H30 H 0.7241 0.7991 1.0631 0.0290 Uiso
C45 C 0.8519(3) 0.6970(3) 0.6490(4) 0.0350 Uani
C46 C 1.0000 0.3862(4) 1.1061(7) 0.0383 Uani
C47 C 1.0000 0.4410(5) 1.2160(9) 0.0553 Uani
H31 H 1.0000 0.4366 1.2709 0.0830 Uiso
H32 H 0.9729 0.4583 1.2010 0.0830 Uiso
C48 C 1.0000 0.3550(7) 1.2279(11) 0.0720 Uani
H33 H 1.0000 0.3656 1.2805 0.1090 Uiso
H34 H 1.0271 0.3363 1.2184 0.1090 Uiso
C49 C 0.9762(7) 0.7891(6) 1.2959(9) 0.0210 Uani
C50 C 0.9170(7) 0.7294(8) 1.3093(19) 0.0810 Uani
C51 C 1.0000 0.7074(5) 1.3110(13) 0.0760 Uani
C52 C 1.0000 0.9178(3) 1.6251(6) 0.0243 Uani
C53 C 1.0000 0.8731(15) 1.737(3) 0.2100 Uiso
H35 H 1.0000 0.8786 1.7919 0.3140 Uiso
H36 H 0.9729 0.8554 1.7234 0.3140 Uiso
C54 C 1.0000 0.9513(4) 1.7510(7) 0.0597 Uani
H37 H 1.0000 0.9400 1.8031 0.0890 Uiso
H38 H 1.0271 0.9702 1.7423 0.0890 Uiso
N7 N 0.8210(6) 0.6972(7) 1.1688(9) 0.0550 Uani
C55 C 0.8374(7) 0.7093(8) 1.0970(14) 0.0590 Uiso
C56 C 0.8021(10) 0.7253(13) 1.2175(15) 0.0800 Uani
H39 H 0.7938 0.7079 1.2630 0.1210 Uiso
H40 H 0.7749 0.7390 1.1951 0.1210 Uiso
H41 H 0.8235 0.7499 1.2309 0.1210 Uiso
C57 C 0.8171(9) 0.6475(8) 1.1887(12) 0.0670 Uani
H42 H 0.8321 0.6287 1.1500 0.1010 Uiso
H43 H 0.7850 0.6389 1.1915 0.1010 Uiso
H44 H 0.8315 0.6420 1.2377 0.1010 Uiso
O48 O 0.8991(4) 0.8813(4) 1.3574(6) 0.0220 Uani
Zn3E Zn 0.68401(2) 0.67849(2) 1.31071(4) 0.0165 Uani
Zn4E Zn 0.62439(3) 0.77608(3) 1.27922(5) 0.0309 Uani
N5B N 1.0390(5) 0.7443(4) 1.3090(10) 0.0437 Uani
Zn5D Zn 0.5000 0.91670(3) 0.94125(6) 0.0175 Uani
Zn6B Zn 1.06202(3) 0.43988(3) 0.79534(4) 0.0229 Uani
Zn6C Zn 0.93798(3) 0.56012(3) 1.29534(4) 0.0229 Uani
Zn6F Zn 0.56202(3) 0.93988(3) 0.79534(4) 0.0229 Uani
Zn7B Zn 1.03579(5) 0.86499(5) 1.28738(9) 0.0219 Uani
Zn7E Zn 0.53579(5) 0.63501(5) 0.78738(9) 0.0219 Uani
Zn8B Zn 1.05696(4) 0.92624(5) 1.31588(7) 0.0124 Uani
Zn8C Zn 0.94304(4) 1.07376(5) 0.81588(7) 0.0124 Uani
Zn8E Zn 0.55696(4) 0.57376(5) 0.81588(7) 0.0124 Uani
Zn9A Zn 1.0000 1.09960(3) 0.96382(5) 0.0146 Uani
Zn9E Zn 0.5000 0.59960(3) 0.96382(5) 0.0146 Uani
O27B O 1.04819(19) 0.46939(17) 0.9500(3) 0.0323 Uani
O28C O 0.9315(2) 0.44719(18) 0.6871(3) 0.0330 Uani
O34A O 1.0476(2) 0.95401(18) 1.4815(3) 0.0380 Uani
O34C O 0.9524(2) 0.95401(18) 1.4815(3) 0.0380 Uani
O35C O 0.9346(3) 0.98326(19) 1.3693(3) 0.0557 Uani
C32E C 0.9095(2) 0.8541(3) 1.4193(4) 0.0333 Uani
O38E O 0.5925(4) 0.6448(5) 0.8503(6) 0.0303 Uani
O39B O 1.05298(15) 0.85265(17) 1.4515(3) 0.0257 Uani
O39E O 0.55298(15) 0.64735(17) 0.9515(3) 0.0257 Uani
C35E C 0.8369(2) 0.8243(3) 0.6677(4) 0.0263 Uani
O41E O 0.69897(17) 0.66806(18) 1.2050(3) 0.0273 Uani
O44F O 0.60192(17) 0.89873(19) 0.8543(3) 0.0300 Uani
O45B O 0.94754(16) 0.36942(17) 0.9378(3) 0.0277 Uani
O45D O 0.55246(16) 0.86942(17) 0.9378(3) 0.0277 Uani
C40F C 0.8705(2) 0.3537(2) 0.9549(4) 0.0190 Uani
O46E O 0.6103(2) 0.8039(2) 1.1758(3) 0.0453 Uani
C41B C 1.0912(2) 0.3757(2) 0.9120(4) 0.0230 Uani
C41F C 0.5912(2) 0.8757(2) 0.9120(4) 0.0230 Uani
O47E O 0.6809(2) 0.7877(2) 1.1872(3) 0.0483 Uani
C43E C 0.8434(2) 0.6814(2) 0.5703(4) 0.0210 Uani
C45E C 0.6481(3) 0.8030(3) 1.1490(4) 0.0350 Uani
H32B H 1.0271 0.4583 1.2010 0.0830 Uiso
H34B H 0.9729 0.3363 1.2184 0.1090 Uiso
C49B C 1.0238(7) 0.7891(6) 1.2959(9) 0.0210 Uani
H36B H 1.0271 0.8554 1.7234 0.3140 Uiso
H38B H 0.9729 0.9702 1.7423 0.0890 Uiso
O48E O 0.6009(4) 0.6187(4) 0.8574(6) 0.0220 Uani
N1 N 0.6497(4) 0.4855(4) 0.6788(6) 0.0727 Uani
N2 N 0.7556(3) 0.5854(3) 0.9211(5) 0.0640 Uani
N3 N 0.8442(3) 0.5617(4) 0.6379(7) 0.0787 Uani
Zn1 Zn 0.71419(4) 0.61421(4) 0.69585(6) 0.0461 Uani
O1 O 0.7007(2) 0.6271(2) 0.5846(3) 0.0447 Uani
O2 O 0.7363(2) 0.6812(3) 0.7163(4) 0.0563 Uani
O3 O 0.6500(2) 0.6368(3) 0.7298(4) 0.0667 Uani
O4 O 0.6933(3) 0.5479(3) 0.6687(5) 0.0730 Uani
O5 O 0.7189(3) 0.5939(3) 0.8086(4) 0.0717 Uani
O6 O 0.7831(2) 0.5963(3) 0.6820(5) 0.0633 Uani
C1 C 0.6638(4) 0.5255(4) 0.6971(10) 0.0863 Uani
C2 C 0.6615(7) 0.4681(6) 0.6098(11) 0.1153 Uani
H1 H 0.6483 0.4371 0.6037 0.1730 Uiso
H2 H 0.6945 0.4660 0.6063 0.1730 Uiso
H3 H 0.6501 0.4885 0.5700 0.1730 Uiso
C3 C 0.6117(7) 0.4620(6) 0.7144(14) 0.1427 Uani
H4 H 0.6078 0.4313 0.6914 0.2160 Uiso
H5 H 0.5841 0.4803 0.7073 0.2160 Uiso
H6 H 0.6177 0.4584 0.7685 0.2160 Uiso
C4 C 0.7541(4) 0.5995(4) 0.8490(6) 0.0593 Uani
C5 C 0.7198(5) 0.5659(4) 0.9558(8) 0.0760 Uani
H7 H 0.7280 0.5581 1.0079 0.1140 Uiso
H8 H 0.7110 0.5377 0.9288 0.1140 Uiso
H9 H 0.6945 0.5878 0.9560 0.1140 Uiso
C6 C 0.7940(6) 0.5934(5) 0.9673(9) 0.0980 Uani
H10 H 0.7886 0.5805 1.0177 0.1470 Uiso
H11 H 0.7995 0.6268 0.9713 0.1470 Uiso
H12 H 0.8205 0.5783 0.9448 0.1470 Uiso
C7 C 0.8002(4) 0.5755(4) 0.6340(8) 0.0663 Uani
C8 C 0.8647(9) 0.5385(6) 0.5747(14) 0.1710 Uani
H13 H 0.8415 0.5316 0.5367 0.2570 Uiso
H14 H 0.8787 0.5096 0.5917 0.2570 Uiso
H15 H 0.8879 0.5586 0.5524 0.2570 Uiso
C9 C 0.8741(5) 0.5738(7) 0.6988(10) 0.1083 Uani
H16 H 0.8567 0.5879 0.7398 0.1630 Uiso
H17 H 0.8968 0.5959 0.6806 0.1630 Uiso
H18 H 0.8893 0.5458 0.7174 0.1630 Uiso
loop_
_atom_site_aniso_label
_atom_site_aniso_U_11
_atom_site_aniso_U_22
_atom_site_aniso_U_33
_atom_site_aniso_U_23
_atom_site_aniso_U_13
_atom_site_aniso_U_12
O7 0.088(14) 0.010(7) 0.036(10) -0.010(7) 0.025(10) -0.007(8)
O9 0.114(11) 0.105(10) 0.046(7) -0.010(7) 0.000 0.000
O10 0.054(12) 0.061(13) 0.12(2) 0.005(13) 0.000 0.000
O11 0.033(8) 0.131(17) 0.046(10) 0.033(10) 0.000 0.000
O13 0.049(11) 0.015(8) 0.019(9) 0.003(7) 0.000 0.000
Zn2 0.0152(3) 0.0175(3) 0.0092(3) -0.0006(3) -0.0012(3) 0.0009(3)
O15 0.022(2) 0.019(2) 0.015(2) -0.0031(17) -0.0014(19) -0.0011(17)
C10 0.036(4) 0.023(4) 0.017(3) -0.003(3) -0.008(3) 0.008(3)
Zn3 0.0181(3) 0.0192(3) 0.0121(4) 0.0000(3) -0.0015(3) 0.0012(3)
N4 0.030(5) 0.106(10) 0.016(5) -0.028(6) 0.000 0.000
C11 0.033(4) 0.027(3) 0.011(3) -0.003(3) -0.001(3) 0.009(3)
Zn4 0.0354(5) 0.0415(5) 0.0158(4) -0.0029(4) -0.0016(3) 0.0142(4)
O17 0.083(6) 0.104(7) 0.054(5) -0.008(5) -0.005(4) -0.031(5)
N5 0.038 0.027 0.066 0.006 0 -0.008
C12 0.032(4) 0.022(3) 0.014(3) 0.001(3) -0.003(3) 0.013(3)
Zn5 0.0227(5) 0.0132(5) 0.0167(5) 0.0028(4) 0.000 0.000
O18 0.079(5) 0.062(5) 0.088(7) -0.030(5) 0.030(5) -0.020(4)
N6 0.107(10) 0.022(5) 0.016(5) 0.004(4) 0.000 0.000
C13 0.022(3) 0.017(3) 0.023(3) -0.006(3) 0.006(3) 0.004(2)
Zn6 0.0381(4) 0.0180(3) 0.0126(4) 0.0010(3) 0.0022(3) -0.0020(3)
O19 0.030(3) 0.018(3) 0.015(3) -0.005(3) 0.000 0.000
C14 0.025(3) 0.014(3) 0.027(4) -0.007(3) 0.000(3) 0.004(2)
Zn7 0.0273(7) 0.0197(7) 0.0188(8) -0.0002(6) -0.0042(6) 0.0003(6)
O20 0.037(4) 0.058(6) 0.030(5) 0.019(4) 0.000 0.000
C15 0.032(4) 0.020(3) 0.013(3) -0.004(3) -0.002(3) 0.006(3)
Zn8 0.0179 0.0138 0.0054 0.0031 0.0001 0.0019
O21 0.039(4) 0.023(3) 0.008(3) -0.001(3) 0.000 0.000
C16 0.026(3) 0.011(3) 0.018(3) 0.000(2) -0.004(3) -0.003(2)
Zn9 0.0240(5) 0.0107(4) 0.0091(5) -0.0003(4) 0.000 0.000
O22 0.24(3) 0.022(7) 0.058(9) 0.006(6) 0.000 0.000
C17 0.027(3) 0.015(3) 0.027(4) 0.005(3) -0.005(3) 0.004(3)
O23 0.065(5) 0.022(4) 0.012(3) -0.001(3) 0.000 0.000
C18 0.039(4) 0.016(3) 0.014(3) -0.003(3) -0.007(3) 0.004(3)
O24 0.032(3) 0.015(2) 0.023(2) 0.002(2) -0.008(2) 0.0075(19)
C19 0.021(3) 0.019(3) 0.029(4) -0.007(3) 0.006(3) -0.003(3)
O25 0.073(4) 0.028(3) 0.019(3) 0.006(2) -0.006(3) 0.018(3)
C20 0.023(3) 0.024(3) 0.017(3) 0.004(3) 0.000(3) -0.007(3)
O26 0.041(3) 0.022(2) 0.017(2) -0.0010(19) 0.000(2) 0.009(2)
C21 0.029(3) 0.016(3) 0.022(3) -0.002(3) 0.007(3) -0.007(3)
O27 0.053(3) 0.024(3) 0.020(3) -0.004(2) -0.005(3) 0.017(2)
C22 0.023(3) 0.026(4) 0.016(3) -0.009(3) -0.001(3) -0.010(3)
O28 0.059(4) 0.025(3) 0.015(3) 0.000(2) -0.006(2) 0.001(2)
C23 0.036(4) 0.027(4) 0.024(4) -0.005(3) 0.000(3) -0.001(3)
O29 0.075(4) 0.026(3) 0.018(3) -0.004(2) -0.001(3) 0.000(3)
C24 0.029(4) 0.023(4) 0.020(3) -0.004(3) 0.002(3) -0.017(3)
O30 0.022(2) 0.021(3) 0.052(3) -0.010(2) -0.010(2) -0.0033(19)
C25 0.032(4) 0.029(4) 0.024(4) 0.005(3) 0.001(3) -0.013(3)
O31 0.036(3) 0.026(3) 0.021(3) -0.003(2) -0.005(2) -0.009(2)
C26 0.057(5) 0.022(4) 0.026(4) 0.001(3) 0.005(4) -0.015(3)
O32 0.117(6) 0.023(3) 0.021(3) 0.008(2) 0.018(3) 0.008(3)
C27 0.036(4) 0.024(3) 0.016(3) -0.001(3) 0.000(3) -0.006(3)
C28 0.023(3) 0.024(3) 0.023(4) 0.003(3) -0.001(3) -0.008(3)
O34 0.065(4) 0.025(3) 0.024(3) -0.003(2) 0.008(3) -0.023(3)
C29 0.020(3) 0.032(4) 0.011(3) 0.002(3) 0.003(3) -0.001(3)
O35 0.129(6) 0.024(3) 0.014(3) -0.001(2) 0.009(3) -0.019(3)
C30 0.015(3) 0.057(5) 0.013(3) 0.002(3) 0.003(3) -0.010(3)
O36 0.019(2) 0.050(3) 0.025(3) 0.012(2) 0.000(2) -0.014(2)
C31 0.024(3) 0.029(3) 0.016(3) 0.000(3) 0.005(3) -0.010(3)
O37 0.028(3) 0.059(4) 0.017(3) 0.002(2) 0.003(2) -0.018(3)
C32 0.018(3) 0.069(6) 0.013(3) -0.002(3) 0.004(3) -0.018(3)
O38 0.02 0.056 0.015 0.013 -0.004 -0.014
C33 0.014(3) 0.037(4) 0.017(3) 0.002(3) 0.000(3) -0.005(3)
O39 0.021 0.029 0.027 0.005 -0.001 -0.0079
C34 0.023(3) 0.027(4) 0.012(3) 0.002(3) -0.001(3) -0.001(3)
O40 0.032(3) 0.156(8) 0.018(3) -0.003(4) 0.001(3) 0.010(4)
C35 0.022(4) 0.042(4) 0.015(3) -0.004(3) -0.002(3) -0.007(3)
O41 0.026 0.039 0.017 0 0.002 0.001
C36 0.028(3) 0.032(4) 0.007(3) 0.000(3) -0.002(3) 0.000(3)
O42 0.025(2) 0.038(3) 0.018(2) -0.006(2) -0.004(2) 0.014(2)
C37 0.017(3) 0.025(3) 0.019(4) -0.005(3) -0.003(3) 0.001(2)
O43 0.022(2) 0.041(3) 0.011(2) 0.0001(19) 0.0027(18) 0.007(2)
C38 0.025(3) 0.019(3) 0.014(3) -0.002(2) 0.005(3) 0.001(2)
O44 0.025 0.046 0.019 0.002 0.002 -0.008
C39 0.023(3) 0.022(3) 0.009(3) -0.003(2) -0.001(2) 0.001(3)
O45 0.02 0.024 0.039 0 0 0.0037
C40 0.026(3) 0.017(3) 0.014(3) -0.005(3) 0.001(3) 0.002(2)
O46 0.054 0.059 0.023 -0.004 -0.015 -0.008
C41 0.021 0.026 0.022 -0.003 0.002 -0.003
O47 0.061 0.061 0.023 -0.02 0.014 -0.015
C42 0.025(3) 0.020(3) 0.019(3) -0.001(3) 0.009(3) 0.001(3)
C43 0.028(3) 0.024(3) 0.011(3) 0.001(3) 0.005(3) 0.004(3)
C44 0.029(3) 0.030(4) 0.014(3) 0.000(3) -0.001(3) 0.004(3)
C45 0.044 0.041 0.02 -0.002 -0.001 -0.021
C46 0.041(6) 0.041(7) 0.033(7) 0.006(5) 0.000 0.000
C47 0.047(8) 0.064(9) 0.055(9) 0.010(7) 0.000 0.000
C48 0.059(10) 0.085(12) 0.072(12) -0.005(10) 0.000 0.000
C49 0.03 0.021 0.012 0.004 0.003 0.019
C50 0.053 0.05 0.14 0.042 -0.014 -0.015
C51 0.079(10) 0.030(7) 0.119(16) 0.014(9) 0.000 0.000
C52 0.035(5) 0.021(5) 0.017(5) 0.002(4) 0.000 0.000
C54 0.121(14) 0.033(7) 0.025(7) -0.011(5) 0.000 0.000
N7 0.071(11) 0.072(12) 0.022(8) 0.023(8) 0.009(8) -0.004(9)
C56 0.071(18) 0.13(3) 0.039(14) -0.016(16) 0.017(13) -0.005(17)
C57 0.098(18) 0.074(14) 0.029(10) 0.017(10) 0.002(11) 0.029(13)
O48 0.028 0.028 0.01 0.006 -0.009 -0.005
Zn3E 0.0181 0.0192 0.0121 0 0.0015 0.0012
Zn4E 0.0354 0.0415 0.0158 0.0029 0.0016 0.0142
N5B 0.038(7) 0.027(7) 0.066(10) 0.006(7) 0.000(8) 0.008(5)
Zn5D 0.0227 0.0132 0.0167 0.0028 0 0
Zn6B 0.0381 0.018 0.0126 0.001 -0.0022 0.002
Zn6C 0.0381 0.018 0.0126 -0.001 0.0022 0.002
Zn6F 0.0381 0.018 0.0126 0.001 -0.0022 0.002
Zn7B 0.0273 0.0197 0.0188 -0.0002 0.0042 -0.0003
Zn7E 0.0273 0.0197 0.0188 0.0002 0.0042 0.0003
Zn8B 0.0179(6) 0.0138(6) 0.0054(6) 0.0031(5) -0.0001(5) -0.0019(5)
Zn8C 0.0179 0.0138 0.0054 -0.0031 0.0001 -0.0019
Zn8E 0.0179 0.0138 0.0054 -0.0031 -0.0001 0.0019
Zn9A 0.024 0.0107 0.0091 0.0003 0 0
Zn9E 0.024 0.0107 0.0091 0.0003 0 0
O27B 0.053 0.024 0.02 -0.004 0.005 -0.017
O28C 0.059 0.025 0.015 0 -0.006 -0.001
O34A 0.065 0.025 0.024 0.003 -0.008 -0.023
O34C 0.065 0.025 0.024 0.003 0.008 0.023
O35C 0.129 0.024 0.014 0.001 0.009 0.019
C32E 0.018 0.069 0.013 0.002 -0.004 -0.018
O38E 0.020(6) 0.056(9) 0.015(6) -0.013(6) 0.004(4) -0.014(6)
O39B 0.021 0.029 0.027 0.005 0.001 0.0079
O39E 0.021(2) 0.029(3) 0.027(3) -0.005(2) 0.001(2) -0.0079(19)
C35E 0.022 0.042 0.015 0.004 0.002 -0.007
O41E 0.026(2) 0.039(3) 0.017(2) 0.000(2) -0.002(2) 0.001(2)
O44F 0.025(3) 0.046(3) 0.019(3) 0.002(2) -0.002(2) 0.008(2)
O45B 0.02 0.024 0.039 0 0 -0.0037
O45D 0.020(2) 0.024(3) 0.039(3) 0.000(2) 0.000(2) 0.0037(18)
C40F 0.026 0.017 0.014 -0.005 -0.001 -0.002
O46E 0.054(4) 0.059(4) 0.023(3) 0.004(3) 0.015(3) -0.008(3)
C41B 0.021 0.026 0.022 -0.003 -0.002 0.003
C41F 0.021(3) 0.026(3) 0.022(4) -0.003(3) -0.002(3) 0.003(3)
O47E 0.061(4) 0.061(4) 0.023(3) 0.020(3) -0.014(3) -0.015(3)
C43E 0.028 0.024 0.011 -0.001 -0.005 0.004
C45E 0.044(5) 0.041(4) 0.020(4) 0.002(3) 0.001(4) -0.021(4)
C49B 0.030(10) 0.021(10) 0.012(7) 0.004(6) -0.003(7) -0.019(7)
O48E 0.028(6) 0.028(6) 0.010(5) -0.006(5) 0.009(4) -0.005(5)
N1 0.085(7) 0.064(6) 0.069(7) 0.005(5) 0.011(6) -0.011(5)
N2 0.079(6) 0.069(6) 0.044(5) 0.005(4) -0.005(5) 0.023(5)
N3 0.053(5) 0.081(7) 0.102(9) 0.012(6) 0.018(6) 0.027(5)
Zn1 0.0440(6) 0.0612(7) 0.0330(5) 0.0023(5) 0.0020(5) -0.0068(5)
O1 0.050(3) 0.055(4) 0.029(3) 0.004(3) 0.000(3) -0.012(3)
O2 0.049(4) 0.072(5) 0.048(4) -0.020(3) 0.007(3) -0.020(3)
O3 0.045(4) 0.113(7) 0.042(4) 0.002(4) 0.006(3) -0.016(4)
O4 0.098(6) 0.060(5) 0.061(5) 0.008(4) 0.009(5) -0.016(5)
O5 0.058(4) 0.116(7) 0.041(4) 0.015(4) -0.006(4) -0.012(4)
O6 0.050(4) 0.081(5) 0.059(5) -0.009(4) 0.000(4) 0.020(4)
C1 0.072(8) 0.053(7) 0.134(13) 0.032(8) -0.029(9) -0.022(6)
C2 0.161(17) 0.077(10) 0.108(14) 0.004(10) 0.041(13) -0.015(10)
C3 0.142(16) 0.086(12) 0.20(2) 0.061(14) 0.012(17) -0.052(11)
C4 0.052(6) 0.071(7) 0.055(6) 0.009(5) 0.005(5) 0.012(5)
C5 0.099(10) 0.069(8) 0.060(7) 0.018(6) 0.006(7) -0.010(7)
C6 0.121(12) 0.086(10) 0.087(11) -0.003(8) -0.055(10) 0.013(9)
C7 0.044(6) 0.069(7) 0.086(9) 0.010(7) 0.006(6) 0.017(5)
C8 0.23(3) 0.073(11) 0.21(3) 0.001(13) 0.14(2) 0.039(14)
C9 0.060(8) 0.161(16) 0.104(13) 0.044(12) -0.013(9) 0.019(9)
loop_
_geom_bond_atom_site_label_1
_geom_bond_atom_site_label_2
_geom_bond_site_symmetry_1
_geom_bond_site_symmetry_2
N1 C1 1_555 1_555
N2 C4 1_555 1_555
N3 C7 1_555 1_555
Zn1 O1 1_555 1_555
O2 Zn1 1_555 1_555
O3 Zn1 1_555 1_555
O4 Zn1 1_555 1_555
O5 Zn1 1_555 1_555
O6 Zn1 1_555 1_555
C1 O4 1_555 1_555
C2 N1 1_555 1_555
H1 C2 1_555 1_555
H2 C2 1_555 1_555
H3 C2 1_555 1_555
C3 N1 1_555 1_555
H4 C3 1_555 1_555
H5 C3 1_555 1_555
H6 C3 1_555 1_555
C4 O5 1_555 1_555
C5 N2 1_555 1_555
H7 C5 1_555 1_555
H8 C5 1_555 1_555
H9 C5 1_555 1_555
C6 N2 1_555 1_555
H10 C6 1_555 1_555
H11 C6 1_555 1_555
H12 C6 1_555 1_555
C7 O6 1_555 1_555
C8 N3 1_555 1_555
H13 C8 1_555 1_555
H14 C8 1_555 1_555
H15 C8 1_555 1_555
C9 N3 1_555 1_555
H16 C9 1_555 1_555
H17 C9 1_555 1_555
H18 C9 1_555 1_555
Zn2 O15 1_555 1_555
O15 Zn3 1_555 1_555
C10 C11 1_555 1_555
Zn3 O31 1_555 1_555
O16 Zn2 1_555 1_555
N4 C46 1_555 1_555
C11 C12 1_555 1_555
Zn4 O15 1_555 1_555
O17 Zn4 1_555 1_555
N5 C49 1_555 1_555
C12 H19 1_555 1_555
Zn5 O19 1_555 1_555
O18 Zn4 1_555 1_555
N6 C52 1_555 1_555
C13 C12 1_555 1_555
Zn6 O19 1_555 1_555
O19 Zn6B 1_555 1_555
C14 C13 1_555 1_555
Zn7 Zn8 1_555 1_555
O20 Zn5 1_555 1_555
C15 C13 1_555 1_555
H20 C15 1_555 1_555
Zn8 O21 1_555 1_555
O21 Zn7 1_555 1_555
C16 C15 1_555 1_555
Zn9 O21 1_555 1_555
O22 Zn7 1_555 1_555
C17 C16 1_555 1_555
O23 Zn9 1_555 1_555
C18 C11 1_555 1_555
H21 C18 1_555 1_555
O24 Zn2 1_555 1_555
C19 C20 1_555 1_555
O25 C10 1_555 1_555
C20 C21 1_555 1_555
O26 Zn6 1_555 1_555
C21 H22 1_555 1_555
O27 Zn5 1_555 1_555
C22 C21 1_555 1_555
O28 C17 1_555 1_555
C23 C22 1_555 1_555
O29 C17 1_555 1_555
C24 C22 1_555 1_555
H23 C24 1_555 1_555
O30 Zn2 1_555 1_555
C25 C24 1_555 1_555
O31 C19 1_555 1_555
C26 C25 1_555 1_555
O32 Zn7 1_555 1_555
C27 C20 1_555 1_555
H24 C27 1_555 1_555
O33 Zn8 1_555 1_555
C28 C29 1_555 1_555
O34 C26 1_555 1_555
C29 C30 1_555 1_555
O35 C26 1_555 1_555
C30 H25 1_555 1_555
O36 Zn2 1_555 1_555
C31 C30 1_555 1_555
O37 C28 1_555 1_555
C32 C31 1_555 1_555
O38 Zn7 1_555 1_555
C33 C31 1_555 1_555
H26 C33 1_555 1_555
O39 Zn9 1_555 1_555
C34 C33 1_555 1_555
O40 C35 1_555 1_555
C35 C34 1_555 1_555
O41 Zn3 1_555 1_555
C36 C29 1_555 1_555
H27 C36 1_555 1_555
O42 Zn2 1_555 1_555
C37 O42 1_555 1_555
O43 Zn3 1_555 1_555
C38 C37 1_555 1_555
O44 Zn6 1_555 1_555
C39 C38 1_555 1_555
H28 C39 1_555 1_555
O45 Zn5 1_555 1_555
C40 C39 1_555 1_555
O46 Zn4 1_555 1_555
C41 O44 1_555 1_555
O47 C45 1_555 1_555
C42 C40 1_555 1_555
H29 C42 1_555 1_555
C43 C42 1_555 1_555
C44 C38 1_555 1_555
H30 C44 1_555 1_555
C45 O46 1_555 1_555
C46 O20 1_555 1_555
C47 N4 1_555 1_555
H31 C47 1_555 1_555
H32 C47 1_555 1_555
C48 N4 1_555 1_555
H33 C48 1_555 1_555
H34 C48 1_555 1_555
C49 Zn7 1_555 1_555
C50 N5 1_555 1_555
C51 N5 1_555 1_555
C52 O23 1_555 1_555
C53 N6 1_555 1_555
H35 C53 1_555 1_555
H36 C53 1_555 1_555
C54 N6 1_555 1_555
H37 C54 1_555 1_555
H38 C54 1_555 1_555
N7 C55 1_555 1_555
C55 O16 1_555 1_555
C56 N7 1_555 1_555
H39 C56 1_555 1_555
H40 C56 1_555 1_555
H41 C56 1_555 1_555
C57 N7 1_555 1_555
H42 C57 1_555 1_555
H43 C57 1_555 1_555
H44 C57 1_555 1_555
O48 Zn8 1_555 1_555
Zn3E O41E 1_555 1_555
Zn4E O46E 1_555 1_555
N5B C51 1_555 1_555
Zn5D O45D 1_555 1_555
Zn6C O28 1_555 1_555
Zn6F O44F 1_555 1_555
Zn7B Zn7 1_555 1_555
Zn7E O38E 1_555 1_555
Zn8B O21 1_555 1_555
Zn8C O35 1_555 1_555
Zn8E O48E 1_555 1_555
Zn9A O34 1_555 1_555
Zn9E O39E 1_555 1_555
O27B Zn5 1_555 1_555
O28C Zn6 1_555 1_555
O34A Zn9 1_555 1_555
O34C Zn9 1_555 1_555
O35C Zn8 1_555 1_555
C32E O38 1_555 1_555
O38E C32 1_555 1_555
O39B Zn9 1_555 1_555
O39E C32 1_555 1_555
C35E O41 1_555 1_555
O41E C35 1_555 1_555
O44F C41F 1_555 1_555
O45B Zn5 1_555 1_555
O45D C41F 1_555 1_555
C40F C41 1_555 1_555
O46E C45E 1_555 1_555
C41B O45 1_555 1_555
C41F C40 1_555 1_555
O47E C45E 1_555 1_555
C43E C45 1_555 1_555
C45E C43 1_555 1_555
H32B C47 1_555 1_555
H34B C48 1_555 1_555
C49B O22 1_555 1_555
H36B C53 1_555 1_555
H38B C54 1_555 1_555
O48E C32 1_555 1_555
C10 O24 1_555 1_555
Zn4 O25 1_555 1_555
C14 O26 1_555 1_555
C14 O27 1_555 1_555
O21 Zn7B 1_555 1_555
C16 C18 1_555 1_555
O22 C49 1_555 1_555
O22 Zn7B 1_555 1_555
C19 O30 1_555 1_555
C23 O32 1_555 1_555
C23 O33 1_555 1_555
C25 C27 1_555 1_555
C28 O36 1_555 1_555
O38 O48 1_555 1_555
O39 C32E 1_555 1_555
C34 C36 1_555 1_555
C37 O43 1_555 1_555
C41 O45B 1_555 1_555
C43 C44 1_555 1_555
C49 C49B 1_555 1_555
O48 C32E 1_555 1_555
N5B C49B 1_555 1_555
Zn7B Zn8B 1_555 1_555
Zn7B C49B 1_555 1_555
O38E O48E 1_555 1_555

#END
