
#######################################################################
#
#                 Cambridge Crystallographic Data Centre
#                                CCDC 
#
#######################################################################
#
# If this CIF has been generated from an entry in the Cambridge 
# Structural Database, then it will include bibliographic, chemical, 
# crystal, experimental, refinement or atomic coordinate data resulting 
# from the CCDC's data processing and validation procedures.
#
#######################################################################

data_OJOSIR
_chemical_formula_moiety         'C48 H12 Co15 N34 O14'
_symmetry_cell_setting           hexagonal
_symmetry_space_group_name_H-M   'P 63/m m c'
_symmetry_Int_Tables_number      194
_space_group_name_Hall           '-P 6c 2c'
loop_
_symmetry_equiv_pos_site_id
_symmetry_equiv_pos_as_xyz
1 x,y,z
2 -y,x-y,z
3 -x+y,-x,z
4 -x,-y,1/2+z
5 y,-x+y,1/2+z
6 x-y,x,1/2+z
7 y,x,-z
8 x-y,-y,-z
9 -x,-x+y,-z
10 -y,-x,1/2-z
11 -x+y,y,1/2-z
12 x,x-y,1/2-z
13 -x,-y,-z
14 y,-x+y,-z
15 x-y,x,-z
16 x,y,1/2-z
17 -y,x-y,1/2-z
18 -x+y,-x,1/2-z
19 -y,-x,z
20 -x+y,y,z
21 x,x-y,z
22 y,x,1/2+z
23 x-y,-y,1/2+z
24 -x,-x+y,1/2+z
_cell_length_a                   18.8605(4)
_cell_length_b                   18.8605(4)
_cell_length_c                   16.6183(4)
_cell_angle_alpha                90
_cell_angle_beta                 90
_cell_angle_gamma                120
_cell_volume                     5119.45
loop_
_atom_site_label
_atom_site_type_symbol
_atom_site_fract_x
_atom_site_fract_y
_atom_site_fract_z
Co1 Co 0.72820(2) 0.45640(4) 0.7500
O1 O 0.6667 0.3333 0.7500
N1 N 0.6322(8) 0.4348(6) 0.6636(8)
C1 C 0.55056(14) 0.44944(14) 0.5821(3)
C2 C 0.5626(3) 0.5626(3) 0.5000
N2 N 0.6278(3) 0.4902(4) 0.6139(3)
C3 C 0.5172(3) 0.4828(3) 0.5240(6)
N3 N 0.79304(16) 0.5861(3) 0.7500
H1 H 0.8011 0.6023 0.6325
C4 C 0.8153(3) 0.6305(5) 0.6811(6)
Co2 Co 1.0000 1.0000 0.6815(4)
C5 C 0.8794(5) 0.7588(9) 0.7500
O2 O 0.9403(3) 0.8807(7) 0.6822(7)
C6 C 0.9259(5) 0.8517(10) 0.7500
O3 O 1.0000 1.0000 0.5608(7)
C7 C 0.8570(3) 0.7141(6) 0.6784(7)
H2 H 0.8705 0.7411 0.6291
C8 C 0.5945(4) 0.5320(4) 0.5544(5)
N1F N 0.4348(6) 0.6322(8) 0.3364(8)
C1F C 0.44944(14) 0.55056(14) 0.4179(3)
N2F N 0.4902(4) 0.6278(3) 0.3861(3)
C3F C 0.4828(3) 0.5172(3) 0.4760(6)
C8F C 0.5320(4) 0.5945(4) 0.4456(5)
N1L N 0.3678(8) 0.5652(6) 0.3364(8)
C2L C 0.4374(3) 0.4374(3) 0.5000
N2L N 0.3722(3) 0.5098(4) 0.3861(3)
C8L C 0.4055(4) 0.4680(4) 0.4456(5)
N1R N 0.5652(6) 0.3678(8) 0.6636(8)
N2R N 0.5098(4) 0.3722(3) 0.6139(3)
C8R C 0.4680(4) 0.4055(4) 0.5544(5)
H1J H 0.8012 0.6023 0.8675
C4J C 0.8152(6) 0.6305(5) 0.8189(6)
O2J O 0.9404(8) 0.8807(7) 0.8178(7)
C7J C 0.8571(7) 0.7141(6) 0.8216(7)
H2J H 0.8706 0.7411 0.8709
Co1A Co 0.54360(4) 0.27180(4) 0.7500
N1A N 0.5652(6) 0.1974(10) 0.6636(8)
C1A C 0.55056(14) 0.10112(20) 0.5821(3)
C2A C 0.4374(3) -0.0000(4) 0.5000
N2A N 0.5098(4) 0.1376(5) 0.6139(3)
C3A C 0.5172(3) 0.0344(4) 0.5240(6)
N3A N 0.4139(3) 0.20694(34) 0.7500
H1A H 0.3977 0.1988 0.6325
C4A C 0.3695(5) 0.1848(6) 0.6811(6)
C5A C 0.2412(9) 0.1206(10) 0.7500
O2A O 0.1193(7) 0.0596(8) 0.6822(7)
C6A C 0.1483(10) 0.0742(11) 0.7500
C7A C 0.2859(6) 0.1429(7) 0.6784(7)
H2A H 0.2589 0.1294 0.6291
C8A C 0.4680(4) 0.0625(6) 0.5544(5)
N1H N 0.3678(8) -0.1974(10) 0.3364(8)
C1H C 0.44944(14) -0.10112(20) 0.4179(3)
N2H N 0.3722(3) -0.1376(5) 0.3861(3)
C3H C 0.4828(3) -0.0344(4) 0.4760(6)
C8H C 0.4055(4) -0.0625(6) 0.4456(5)
N1M N 0.4348(6) -0.1974(10) 0.3364(8)
C2M C 0.5626(3) -0.0000(4) 0.5000
N2M N 0.4902(4) -0.1376(5) 0.3861(3)
C8M C 0.5320(4) -0.0625(6) 0.4456(5)
N1T N 0.6322(8) 0.1974(10) 0.6636(8)
N2T N 0.6278(3) 0.1376(5) 0.6139(3)
C8T C 0.5945(4) 0.0625(6) 0.5544(5)
H1I H 0.3977 0.1989 0.8675
C4I C 0.3695(5) 0.1847(3) 0.8189(6)
O2I O 0.1193(7) 0.0597(3) 0.8178(7)
C7I C 0.2859(6) 0.1430(3) 0.8216(7)
H2I H 0.2589 0.1295 0.8709
Co2I Co 1.0000 1.0000 0.8185(4)
O3I O 1.0000 1.0000 0.9392(7)
Co1E Co 1.27180(4) 0.72820(2) 1.2500
N1E N 1.1974(10) 0.6322(8) 1.1636(8)
C1E C 1.10112(20) 0.55056(14) 1.0821(3)
C2E C 1.0000(4) 0.5626(3) 1.0000
N2E N 1.1376(5) 0.6278(3) 1.1139(3)
C3E C 1.0344(4) 0.5172(3) 1.0240(6)
N3E N 1.20694(34) 0.79304(16) 1.2500
H1E H 1.1988 0.8011 1.1325
C4E C 1.1848(6) 0.8153(3) 1.1811(6)
C5E C 1.1206(10) 0.8794(5) 1.2500
O2E O 1.0596(8) 0.9403(3) 1.1822(7)
C6E C 1.0742(11) 0.9259(5) 1.2500
C7E C 1.1429(7) 0.8570(3) 1.1784(7)
H2E H 1.1294 0.8705 1.1291
C8E C 1.0625(6) 0.5945(4) 1.0544(5)
N1J N 0.8026(10) 0.4348(6) 0.8364(8)
C1J C 0.89888(20) 0.44944(14) 0.9179(3)
N2J N 0.8624(5) 0.4902(4) 0.8861(3)
C3J C 0.9656(4) 0.4828(3) 0.9760(6)
C8J C 0.9375(6) 0.5320(4) 0.9456(5)
N1Q N 0.8026(10) 0.3678(8) 0.8364(8)
C2Q C 1.0000(4) 0.4374(3) 1.0000
N2Q N 0.8624(5) 0.3722(3) 0.8861(3)
C8Q C 0.9375(6) 0.4055(4) 0.9456(5)
N1V N 1.1974(10) 0.5652(6) 1.1636(8)
N2V N 1.1376(5) 0.5098(4) 1.1139(3)
C8V C 1.0625(6) 0.4680(4) 1.0544(5)
H1H H 1.1989 0.8012 1.3675
C4H C 1.1847(3) 0.8152(6) 1.3189(6)
O2H O 1.0597(3) 0.9404(8) 1.3178(7)
C7H C 1.1430(3) 0.8571(7) 1.3216(7)
H2H H 1.1295 0.8706 1.3709
Co1B Co 0.72820(4) 0.27180(2) 0.7500
Co1C Co 0.27180(2) 0.54360(4) 0.2500
Co1C_2 Co 1.27180(2) 0.54360(4) 1.2500
Co1D Co 0.45640(4) -0.27180(4) 0.2500
Co1D_2 Co 0.45640(4) 0.72820(4) 0.2500
Co1E_2 Co 0.27180(4) -0.27180(2) 0.2500
O1C O 1.3333 0.6667 1.2500
N1H_2 N 1.3678(8) 0.8026(10) 1.3364(8)
N1I N 0.5652(6) 0.3678(8) 0.8364(8)
N1N N 1.1974(10) 0.6322(8) 1.3364(8)
N1O N 0.6322(8) 0.4348(6) 0.8364(8)
N1P N 0.5652(6) 0.1974(10) 0.8364(8)
N1S N 0.8026(10) 0.4348(6) 0.6636(8)
N1W N 1.3678(8) 0.8026(10) 1.1636(8)
Co2_2 Co 0.0000 -0.0000 0.6815(4)
Co2C Co 1.0000 1.0000 1.1815(4)
Co2F Co 1.0000 1.0000 1.3185(4)
Co2I_2 Co 0.0000 0.0000 0.8185(4)
O2A_2 O 1.1193(7) 1.0596(8) 0.6822(7)
O2B O 0.9404(8) 1.0597(3) 0.6822(7)
O2I_2 O 1.1193(7) 1.0597(3) 0.8178(7)
O2K O 0.9403(3) 1.0596(8) 0.8178(7)
loop_
_geom_bond_atom_site_label_1
_geom_bond_atom_site_label_2
_geom_bond_site_symmetry_1
_geom_bond_site_symmetry_2
Co1 O1 1_555 1_555
O1 Co1A 1_555 1_555
N1 Co1 1_555 1_555
C1 N2 1_555 1_555
C2 C3 1_555 1_555
N2 N1 1_555 1_555
C3 C1 1_555 1_555
N3 Co1 1_555 1_555
H1 C4 1_555 1_555
C4 N3 1_555 1_555
Co2 O2 1_555 1_555
C5 C6 1_555 1_555
O2 C6 1_555 1_555
C6 O2J 1_555 1_555
O3 Co2 1_555 1_555
C7 C4 1_555 1_555
H2 C7 1_555 1_555
C8 C1 1_555 1_555
N1F N2F 1_555 1_555
C1F N2F 1_555 1_555
N2F C8F 1_555 1_555
C3F C2 1_555 1_555
C8F C2 1_555 1_555
N1L N1F 1_555 1_555
C2L C3 1_555 1_555
N2L C1F 1_555 1_555
C8L C1F 1_555 1_555
N1R N1 1_555 1_555
N2R C1 1_555 1_555
C8R C1 1_555 1_555
H1J C4J 1_555 1_555
C4J N3 1_555 1_555
O2J Co2I 1_555 1_555
C7J C5 1_555 1_555
H2J C7J 1_555 1_555
Co1A N1R 1_555 1_555
N1A Co1A 1_555 1_555
C1A N2A 1_555 1_555
C2A C3A 1_555 1_555
N2A N1A 1_555 1_555
C3A C1A 1_555 1_555
N3A Co1A 1_555 1_555
H1A C4A 1_555 1_555
C4A N3A 1_555 1_555
C5A C6A 1_555 1_555
O2A C6A 1_555 1_555
C6A O2I 1_555 1_555
C7A C4A 1_555 1_555
H2A C7A 1_555 1_555
C8A C1A 1_555 1_555
N1H N2H 1_555 1_555
C1H N2H 1_555 1_555
N2H C8H 1_555 1_555
C3H C2A 1_555 1_555
C8H C2A 1_555 1_555
N1M N1H 1_555 1_555
C2M C3A 1_555 1_555
N2M C1H 1_555 1_555
C8M C1H 1_555 1_555
N1T N1A 1_555 1_555
N2T C1A 1_555 1_555
C8T C1A 1_555 1_555
H1I C4I 1_555 1_555
C4I N3A 1_555 1_555
O2I Co2I_2 1_555 1_555
C7I C5A 1_555 1_555
H2I C7I 1_555 1_555
Co2I Co2 1_555 1_555
O3I Co2I 1_555 1_555
Co1E N1E 1_555 1_555
N1E N2E 1_555 1_555
C1E N2E 1_555 1_555
C2E C3E 1_555 1_555
N2E C8E 1_555 1_555
C3E C1E 1_555 1_555
N3E Co1E 1_555 1_555
H1E C4E 1_555 1_555
C4E N3E 1_555 1_555
C5E C6E 1_555 1_555
O2E C6E 1_555 1_555
C6E O2H 1_555 1_555
C7E C4E 1_555 1_555
H2E C7E 1_555 1_555
C8E C1E 1_555 1_555
N1J Co1 1_555 1_555
C1J N2J 1_555 1_555
N2J N1J 1_555 1_555
C3J C2E 1_555 1_555
C8J C2E 1_555 1_555
N1Q N1J 1_555 1_555
C2Q C3E 1_555 1_555
N2Q C1J 1_555 1_555
C8Q C1J 1_555 1_555
N1V N1E 1_555 1_555
N2V C1E 1_555 1_555
C8V C1E 1_555 1_555
H1H C4H 1_555 1_555
C4H N3E 1_555 1_555
O2H Co2F 1_555 1_555
C7H C5E 1_555 1_555
H2H C7H 1_555 1_555
Co1B O1 1_555 1_555
Co1C N1L 1_555 1_555
Co1C_2 N1V 1_555 1_555
Co1D N1M 1_555 1_555
Co1D_2 N1F 1_555 1_555
Co1E_2 N1H 1_555 1_555
O1C Co1E 1_555 1_555
N1H_2 Co1E 1_555 1_555
N1I Co1A 1_555 1_555
N1N Co1E 1_555 1_555
N1O Co1 1_555 1_555
N1P Co1A 1_555 1_555
N1S Co1 1_555 1_555
N1W Co1E 1_555 1_555
Co2_2 O2A 1_555 1_555
Co2C O2E 1_555 1_555
Co2F Co2C 1_555 1_555
Co2I_2 Co2_2 1_555 1_555
O2A_2 Co2 1_555 1_555
O2B Co2 1_555 1_555
O2I_2 Co2I 1_555 1_555
O2K Co2I 1_555 1_555
C2 C8 1_555 1_555
N2 C8 1_555 1_555
C3 C8 1_555 1_555
C3 C3F 1_555 1_555
C3 C8R 1_555 1_555
C5 C7 1_555 1_555
C1F C3F 1_555 1_555
C1F C8F 1_555 1_555
C3F C8F 1_555 1_555
C3F C2L 1_555 1_555
C3F C8L 1_555 1_555
N1L N2L 1_555 1_555
C2L C8L 1_555 1_555
C2L C8R 1_555 1_555
N2L C8L 1_555 1_555
N1R N2R 1_555 1_555
N2R C8R 1_555 1_555
C4J C7J 1_555 1_555
C2A C8A 1_555 1_555
N2A C8A 1_555 1_555
C3A C8A 1_555 1_555
C3A C3H 1_555 1_555
C3A C8T 1_555 1_555
C5A C7A 1_555 1_555
C1H C3H 1_555 1_555
C1H C8H 1_555 1_555
C3H C8H 1_555 1_555
C3H C2M 1_555 1_555
C3H C8M 1_555 1_555
N1M N2M 1_555 1_555
C2M C8M 1_555 1_555
C2M C8T 1_555 1_555
N2M C8M 1_555 1_555
N1T N2T 1_555 1_555
N1T Co1B 1_555 1_555
N2T C8T 1_555 1_555
C4I C7I 1_555 1_555
C2E C8E 1_555 1_555
C3E C8E 1_555 1_555
C3E C3J 1_555 1_555
C3E C8V 1_555 1_555
C5E C7E 1_555 1_555
C1J C3J 1_555 1_555
C1J C8J 1_555 1_555
N2J C8J 1_555 1_555
C3J C8J 1_555 1_555
C3J C2Q 1_555 1_555
C3J C8Q 1_555 1_555
N1Q N2Q 1_555 1_555
N1Q Co1B 1_555 1_555
C2Q C8Q 1_555 1_555
C2Q C8V 1_555 1_555
N2Q C8Q 1_555 1_555
N1V N2V 1_555 1_555
N2V C8V 1_555 1_555
C4H C7H 1_555 1_555
Co1C_2 O1C 1_555 1_555
N1I N1O 1_555 1_555

#END
