
#######################################################################
#
#                 Cambridge Crystallographic Data Centre
#                                CCDC 
#
#######################################################################
#
# If this CIF has been generated from an entry in the Cambridge 
# Structural Database, then it will include bibliographic, chemical, 
# crystal, experimental, refinement or atomic coordinate data resulting 
# from the CCDC's data processing and validation procedures.
#
#######################################################################

data_OJOSEN
_chemical_formula_moiety         'C30 Co9 N30 O4'
_symmetry_cell_setting           hexagonal
_symmetry_space_group_name_H-M   'P 63/m m c'
_symmetry_Int_Tables_number      194
_space_group_name_Hall           '-P 6c 2c'
loop_
_symmetry_equiv_pos_site_id
_symmetry_equiv_pos_as_xyz
1 x,y,z
2 x-y,x,1/2+z
3 -y,x-y,z
4 -x,-y,1/2+z
5 -x+y,-x,z
6 y,-x+y,1/2+z
7 x-y,-y,-z
8 -x,-x+y,-z
9 y,x,-z
10 -y,-x,1/2-z
11 -x+y,y,1/2-z
12 x,x-y,1/2-z
13 -x,-y,-z
14 -x+y,-x,1/2-z
15 y,-x+y,-z
16 x,y,1/2-z
17 x-y,x,-z
18 -y,x-y,1/2-z
19 -x+y,y,z
20 x,x-y,z
21 -y,-x,z
22 y,x,1/2+z
23 x-y,-y,1/2+z
24 -x,-x+y,1/2+z
_cell_length_a                   16.8676(7)
_cell_length_b                   16.8676(7)
_cell_length_c                   18.8186(6)
_cell_angle_alpha                90
_cell_angle_beta                 90
_cell_angle_gamma                120
_cell_volume                     4636.87
loop_
_atom_site_label
_atom_site_type_symbol
_atom_site_fract_x
_atom_site_fract_y
_atom_site_fract_z
Co1 Co 0.73535(2) 0.47069(4) 0.2500
O1 O 0.6667 0.3333 0.2500
N1 N 0.6310(6) 0.4478(6) 0.3262(6)
O2 O 0.80569(14) 0.6114(3) 0.2500
C1 C 0.54595(15) 0.45405(15) 0.41173(19)
C2 C 0.4308(3) 0.4308(3) 0.5000
N2 N 0.6305(3) 0.5028(3) 0.3786(2)
C3 C 0.4590(4) 0.4009(5) 0.4427(4)
C4 C 0.5171(3) 0.4829(3) 0.4715(4)
N1H N 0.4478(6) 0.6310(6) 0.6738(6)
C1H C 0.45405(15) 0.54595(15) 0.58827(19)
N2H N 0.5028(3) 0.6305(3) 0.6214(2)
C3H C 0.4009(5) 0.4590(4) 0.5573(4)
C4H C 0.4829(3) 0.5171(3) 0.5285(4)
N1L N 0.3690(6) 0.5522(6) 0.6738(6)
C2L C 0.5692(3) 0.5692(3) 0.5000
N2L N 0.3695(3) 0.4972(3) 0.6214(2)
C3L C 0.5410(4) 0.5991(5) 0.5573(4)
N1T N 0.5522(6) 0.3690(6) 0.3262(6)
N2T N 0.4972(3) 0.3695(3) 0.3786(2)
C3T C 0.5991(5) 0.5410(4) 0.4427(4)
Co1B Co 0.52931(4) 0.26466(4) 0.2500
N1B N 0.5522(6) 0.1832(8) 0.3262(6)
O2B O 0.3886(3) 0.19429(33) 0.2500
C1B C 0.54595(15) 0.09190(21) 0.41173(19)
C2B C 0.5692(3) 0.0000(4) 0.5000
N2B N 0.4972(3) 0.1277(4) 0.3786(2)
C3B C 0.5991(5) 0.0581(6) 0.4427(4)
C4B C 0.5171(3) 0.0342(4) 0.4715(4)
N1G N 0.3690(6) -0.1832(8) 0.6738(6)
C1G C 0.45405(15) -0.09190(21) 0.58827(19)
N2G N 0.3695(3) -0.1277(4) 0.6214(2)
C3G C 0.5410(4) -0.0581(6) 0.5573(4)
C4G C 0.4829(3) -0.0342(4) 0.5285(4)
N1N N 0.4478(6) -0.1832(8) 0.6738(6)
C2N C 0.4308(3) 0.0000(4) 0.5000
N2N N 0.5028(3) -0.1277(4) 0.6214(2)
C3N C 0.4009(5) -0.0581(6) 0.5573(4)
N1S N 0.6310(6) 0.1832(8) 0.3262(6)
N2S N 0.6305(3) 0.1277(4) 0.3786(2)
C3S C 0.4590(4) 0.0581(6) 0.4427(4)
Co1D Co 0.73534(4) 0.26465(2) 0.2500
N1D N 0.8168(8) 0.3690(6) 0.3262(6)
O2D O 0.80571(33) 0.19431(14) 0.2500
C1D C 0.90810(21) 0.45405(15) 0.41173(19)
C2D C 1.0000(4) 0.5692(3) 0.5000
N2D N 0.8723(4) 0.3695(3) 0.3786(2)
C3D C 0.9419(6) 0.5410(4) 0.4427(4)
C4D C 0.9658(4) 0.4829(3) 0.4715(4)
N1F N 1.1832(8) 0.5522(6) 0.6738(6)
C1F C 1.09190(21) 0.54595(15) 0.58827(19)
N2F N 1.1277(4) 0.4972(3) 0.6214(2)
C3F C 1.0581(6) 0.5991(5) 0.5573(4)
C4F C 1.0342(4) 0.5171(3) 0.5285(4)
N1P N 1.1832(8) 0.6310(6) 0.6738(6)
C2P C 1.0000(4) 0.4308(3) 0.5000
N2P N 1.1277(4) 0.6305(3) 0.6214(2)
C3P C 1.0581(6) 0.4590(4) 0.5573(4)
N1R N 0.8168(8) 0.4478(6) 0.3262(6)
N2R N 0.8723(4) 0.5028(3) 0.3786(2)
C3R C 0.9419(6) 0.4009(5) 0.4427(4)
Co1A Co 0.26466(4) -0.26465(2) 0.7500
Co1A_2 Co 1.26466(4) 0.73535(2) 0.7500
Co1C Co 0.26465(2) 0.52931(4) 0.7500
Co1C_2 Co 1.26465(2) 0.52931(4) 0.7500
Co1E Co 0.47069(4) -0.26466(4) 0.7500
Co1E_2 Co 0.47069(4) 0.73534(4) 0.7500
N1I N 0.5522(6) 0.3690(6) 0.1738(6)
N1J N 0.8168(8) 0.4478(6) 0.1738(6)
N1K N 0.6310(6) 0.1832(8) 0.1738(6)
N1M N 0.8168(8) 0.3690(6) 0.1738(6)
N1O N 0.6310(6) 0.4478(6) 0.1738(6)
N1Q N 0.5522(6) 0.1832(8) 0.1738(6)
loop_
_geom_bond_atom_site_label_1
_geom_bond_atom_site_label_2
_geom_bond_site_symmetry_1
_geom_bond_site_symmetry_2
Co1 O1 1_555 1_555
O1 Co1B 1_555 1_555
N1 Co1 1_555 1_555
O2 Co1 1_555 1_555
C1 N2 1_555 1_555
C2 C3 1_555 1_555
N2 N1 1_555 1_555
C3 C1 1_555 1_555
C4 C1 1_555 1_555
N1H N2H 1_555 1_555
C1H N2H 1_555 1_555
N2H C3L 1_555 1_555
C3H C2 1_555 1_555
C4H C2 1_555 1_555
N1L N1H 1_555 1_555
C2L C4 1_555 1_555
N2L C1H 1_555 1_555
C3L C1H 1_555 1_555
N1T N1 1_555 1_555
N2T C1 1_555 1_555
C3T C1 1_555 1_555
Co1B N1T 1_555 1_555
N1B Co1B 1_555 1_555
O2B Co1B 1_555 1_555
C1B N2B 1_555 1_555
C2B C3B 1_555 1_555
N2B N1B 1_555 1_555
C3B C1B 1_555 1_555
C4B C1B 1_555 1_555
N1G N2G 1_555 1_555
C1G N2G 1_555 1_555
N2G C3N 1_555 1_555
C3G C2B 1_555 1_555
C4G C2B 1_555 1_555
N1N N1G 1_555 1_555
C2N C4B 1_555 1_555
N2N C1G 1_555 1_555
C3N C1G 1_555 1_555
N1S N1B 1_555 1_555
N2S C1B 1_555 1_555
C3S C1B 1_555 1_555
Co1D O1 1_555 1_555
N1D Co1D 1_555 1_555
O2D Co1D 1_555 1_555
C1D N2D 1_555 1_555
C2D C3D 1_555 1_555
N2D N1D 1_555 1_555
C3D C1D 1_555 1_555
C4D C1D 1_555 1_555
N1F N2F 1_555 1_555
C1F N2F 1_555 1_555
N2F C3P 1_555 1_555
C3F C2D 1_555 1_555
C4F C2D 1_555 1_555
N1P N1F 1_555 1_555
C2P C4D 1_555 1_555
N2P C1F 1_555 1_555
C3P C1F 1_555 1_555
N1R Co1 1_555 1_555
N2R C1D 1_555 1_555
C3R C1D 1_555 1_555
Co1A N1G 1_555 1_555
Co1A_2 N1P 1_555 1_555
Co1C N1L 1_555 1_555
Co1C_2 N1F 1_555 1_555
Co1E N1N 1_555 1_555
Co1E_2 N1H 1_555 1_555
N1I Co1B 1_555 1_555
N1J Co1 1_555 1_555
N1K Co1D 1_555 1_555
N1M Co1D 1_555 1_555
N1O Co1 1_555 1_555
N1Q Co1B 1_555 1_555
C2 C4 1_555 1_555
N2 C3T 1_555 1_555
C3 C4 1_555 1_555
C3 N2T 1_555 1_555
C4 C4H 1_555 1_555
C4 C3T 1_555 1_555
C1H C3H 1_555 1_555
C1H C4H 1_555 1_555
C3H C4H 1_555 1_555
C3H N2L 1_555 1_555
C4H C2L 1_555 1_555
C4H C3L 1_555 1_555
N1L N2L 1_555 1_555
C2L C3L 1_555 1_555
C2L C3T 1_555 1_555
N1T N2T 1_555 1_555
C2B C4B 1_555 1_555
N2B C3S 1_555 1_555
C3B C4B 1_555 1_555
C3B N2S 1_555 1_555
C4B C4G 1_555 1_555
C4B C3S 1_555 1_555
C1G C3G 1_555 1_555
C1G C4G 1_555 1_555
C3G C4G 1_555 1_555
C3G N2N 1_555 1_555
C4G C2N 1_555 1_555
C4G C3N 1_555 1_555
N1N N2N 1_555 1_555
C2N C3N 1_555 1_555
C2N C3S 1_555 1_555
N1S N2S 1_555 1_555
N1S Co1D 1_555 1_555
N1D N1R 1_555 1_555
C2D C4D 1_555 1_555
N2D C3R 1_555 1_555
C3D C4D 1_555 1_555
C3D N2R 1_555 1_555
C4D C4F 1_555 1_555
C4D C3R 1_555 1_555
C1F C3F 1_555 1_555
C1F C4F 1_555 1_555
C3F C4F 1_555 1_555
C3F N2P 1_555 1_555
C4F C2P 1_555 1_555
C4F C3P 1_555 1_555
N1P N2P 1_555 1_555
C2P C3P 1_555 1_555
C2P C3R 1_555 1_555
N1R N2R 1_555 1_555
N1I N1O 1_555 1_555
N1J N1M 1_555 1_555
N1K N1Q 1_555 1_555

#END
