
#######################################################################
#
#                 Cambridge Crystallographic Data Centre
#                                CCDC 
#
#######################################################################
#
# If this CIF has been generated from an entry in the Cambridge 
# Structural Database, then it will include bibliographic, chemical, 
# crystal, experimental, refinement or atomic coordinate data resulting 
# from the CCDC's data processing and validation procedures.
#
#######################################################################

data_EWUKEO
_chemical_formula_moiety         'C220 H222 Co29 N25 O173 Zn42 2+'
_symmetry_cell_setting           hexagonal
_symmetry_space_group_name_H-M   'P 63 c m'
_symmetry_Int_Tables_number      185
_space_group_name_Hall           'P 6c -2'
loop_
_symmetry_equiv_pos_site_id
_symmetry_equiv_pos_as_xyz
1 x,y,z
2 -y,x-y,z
3 -x+y,-x,z
4 -x,-y,1/2+z
5 y,-x+y,1/2+z
6 x-y,x,1/2+z
7 -y,-x,1/2+z
8 -x+y,y,1/2+z
9 x,x-y,1/2+z
10 y,x,z
11 x-y,-y,z
12 -x,-x+y,z
_cell_length_a                   18.389(5)
_cell_length_b                   18.389(5)
_cell_length_c                   17.969(5)
_cell_angle_alpha                90
_cell_angle_beta                 90
_cell_angle_gamma                120
_cell_volume                     5262.24
loop_
_atom_site_label
_atom_site_type_symbol
_atom_site_fract_x
_atom_site_fract_y
_atom_site_fract_z
C16 C 1.071(3) 1.071(3) 0.845(13)
N3 N 1.0000 1.0000 0.810(13)
C17 C 1.0000 1.0000 0.730(13)
C16A C 0.929(3) 1.000(4) 0.845(13)
C16B C 1.000(4) 0.929(3) 0.845(13)
O9 O 1.0000 1.0000 0.933(12)
O10 O 1.108(16) 1.0000 0.954(16)
Zn1 Zn 0.75691(12) 0.65858(11) 0.33316(13)
O1 O 0.6571(7) 0.6571(7) 0.2921(8)
O2 O 0.7877(9) 0.7186(9) 0.4293(6)
O3 O 0.7603(8) 0.5568(7) 0.3499(8)
O4 O 0.8799(17) 0.7290(9) 0.7669(6)
Co1 Co 0.65066(15) 0.65066(15) 0.17540(17)
C1 C 0.7602(12) 0.7602(12) 0.4604(10)
C2 C 0.6917(14) 0.5037(14) 0.3707(14)
O5 O 0.6337(10) 0.6337(10) 0.0619(9)
O6 O 0.6154(15) 0.5264(10) 0.1841(9)
O7 O 0.9070(19) 0.6844(10) 0.6627(7)
C3 C 0.7780(12) 0.7780(12) 0.5394(10)
O8 O 0.6311(11) 0.5130(11) 0.3809(11)
C4 C 0.6775(13) 0.4132(13) 0.3770(15)
C5 C 0.6812(19) 0.6812(19) 0.0135(13)
C6 C 0.579(2) 0.4631(18) 0.148(2)
C7 C 0.8221(11) 0.7463(11) 0.5776(8)
C8 C 0.7474(13) 0.4010(15) 0.3772(16)
H1 H 0.7300 0.7300 0.0291
N1 N 0.6686(17) 0.6686(17) -0.0573(12)
H2 H 0.5789 0.4825 0.0998
N2 N 0.541(2) 0.3874(17) 0.1417(17)
H3 H 0.8443 0.7176 0.5513
C9 C 0.8335(11) 0.7566(11) 0.6540(8)
H4 H 0.8021 0.4475 0.3775
C10 C 0.733(3) 0.733(3) -0.104(2)
C11 C 0.596(2) 0.596(2) -0.088(2)
C12 C 0.492(3) 0.338(3) 0.078(2)
C13 C 0.490(4) 0.338(3) 0.201(2)
C14 C 0.8037(14) 0.8037(14) 0.6921(12)
C15 C 0.8770(17) 0.7218(12) 0.6968(8)
H5 H 0.7183 0.7183 -0.1559
H6 H 0.7367 0.7864 -0.0937
H7 H 0.5986 0.5986 -0.1418
H8 H 0.5951 0.5453 -0.0712
H9 H 0.4692 0.2784 0.0890
H10 H 0.4459 0.3482 0.0695
H11 H 0.5271 0.3528 0.0345
H12 H 0.4639 0.2789 0.1880
H13 H 0.5235 0.3487 0.2455
H14 H 0.4462 0.3519 0.2102
H15 H 0.8152 0.8153 0.7430
O2I O 0.7186(9) 0.7877(9) 0.4293(6)
C7I C 0.7463(11) 0.8221(11) 0.5776(8)
H3I H 0.7176 0.8443 0.5513
C9I C 0.7566(11) 0.8335(11) 0.6540(8)
C15I C 0.7218(12) 0.8770(17) 0.6968(8)
O4I O 0.7290(9) 0.8799(17) 0.7669(6)
O7I O 0.6844(10) 0.9070(19) 0.6627(7)
O3A O 0.4432(7) 0.2035(11) 0.3499(8)
C2A C 0.4963(14) 0.1880(20) 0.3707(14)
O8A O 0.4870(11) 0.1181(16) 0.3809(11)
C4A C 0.5868(13) 0.2643(18) 0.3770(15)
C8A C 0.5990(15) 0.3464(20) 0.3772(16)
H4A H 0.5525 0.3546 0.3775
O3B O 0.7965(11) 0.2397(8) 0.3499(8)
C2B C 0.8120(20) 0.3083(14) 0.3707(14)
O8B O 0.8819(16) 0.3689(11) 0.3809(11)
C4B C 0.7357(18) 0.3225(13) 0.3770(15)
C8B C 0.6536(20) 0.2526(13) 0.3772(16)
H4B H 0.6454 0.1979 0.3775
H6I H 0.7864 0.7367 -0.0937
H8I H 0.5453 0.5951 -0.0712
Zn1A Zn 0.34142(11) 0.09833(16) 0.33316(13)
O1A O 0.3429(7) 0.0000(10) 0.2921(8)
O2A O 0.2814(9) 0.0691(13) 0.4293(6)
O4A O 0.2710(9) 0.1509(19) 0.7669(6)
Co1A Co 0.34934(15) 0.00000(21) 0.17540(17)
C1A C 0.2398(12) 0.0000(17) 0.4604(10)
O5A O 0.3663(10) 0.0000(14) 0.0619(9)
O6A O 0.4736(10) 0.0890(18) 0.1841(9)
O7A O 0.3156(10) 0.2226(21) 0.6627(7)
C3A C 0.2220(12) 0.0000(17) 0.5394(10)
C5A C 0.3188(19) 0.0000(27) 0.0135(13)
C6A C 0.5369(18) 0.1159(27) 0.148(2)
C7A C 0.2537(11) 0.0758(16) 0.5776(8)
H1A H 0.2700 0.0000 0.0291
N1A N 0.3314(17) 0.0000(24) -0.0573(12)
H2A H 0.5175 0.0964 0.0998
N2A N 0.6126(17) 0.1536(26) 0.1417(17)
H3A H 0.2824 0.1267 0.5513
C9A C 0.2434(11) 0.0769(16) 0.6540(8)
C10A C 0.267(3) -0.000(4) -0.104(2)
C11A C 0.404(2) 0.000(3) -0.088(2)
C12A C 0.662(3) 0.154(4) 0.078(2)
C13A C 0.662(3) 0.152(5) 0.201(2)
C14A C 0.1963(14) 0.0000(20) 0.6921(12)
C15A C 0.2782(12) 0.1552(21) 0.6968(8)
H5A H 0.2817 0.0000 -0.1559
H6A H 0.2136 -0.0497 -0.0937
H7A H 0.4014 0.0000 -0.1418
H8A H 0.4547 0.0498 -0.0712
H9A H 0.7216 0.1908 0.0890
H10A H 0.6518 0.0977 0.0695
H11A H 0.6472 0.1743 0.0345
H12A H 0.7211 0.1850 0.1880
H13A H 0.6513 0.1748 0.2455
H14A H 0.6481 0.0943 0.2102
H15A H 0.1847 -0.0001 0.7430
O2K O 0.2123(9) -0.0691(13) 0.4293(6)
C7K C 0.1779(11) -0.0758(16) 0.5776(8)
H3K H 0.1557 -0.1267 0.5513
C9K C 0.1665(11) -0.0769(16) 0.6540(8)
C15K C 0.1230(17) -0.1552(21) 0.6968(8)
O4K O 0.1201(17) -0.1509(19) 0.7669(6)
O7K O 0.0930(19) -0.2226(21) 0.6627(7)
H6K H 0.2633 0.0497 -0.0937
H8K H 0.4049 -0.0498 -0.0712
Zn1B Zn 0.90167(16) 0.24309(12) 0.33316(13)
O1B O 1.0000(10) 0.3429(7) 0.2921(8)
O2B O 0.9309(13) 0.2123(9) 0.4293(6)
O4B O 0.8491(19) 0.1201(17) 0.7669(6)
Co1B Co 1.00000(21) 0.34934(15) 0.17540(17)
C1B C 1.0000(17) 0.2398(12) 0.4604(10)
O5B O 1.0000(14) 0.3663(10) 0.0619(9)
O6B O 0.9110(18) 0.3846(15) 0.1841(9)
O7B O 0.7774(21) 0.0930(19) 0.6627(7)
C3B C 1.0000(17) 0.2220(12) 0.5394(10)
C5B C 1.0000(27) 0.3188(19) 0.0135(13)
C6B C 0.8841(27) 0.421(2) 0.148(2)
C7B C 0.9242(16) 0.1779(11) 0.5776(8)
H1B H 1.0000 0.2700 0.0291
N1B N 1.0000(24) 0.3314(17) -0.0573(12)
H2B H 0.9036 0.4211 0.0998
N2B N 0.8464(26) 0.459(2) 0.1417(17)
H3B H 0.8733 0.1557 0.5513
C9B C 0.9231(16) 0.1665(11) 0.6540(8)
C10B C 1.000(4) 0.267(3) -0.104(2)
C11B C 1.000(3) 0.404(2) -0.088(2)
C12B C 0.846(4) 0.508(3) 0.078(2)
C13B C 0.848(5) 0.510(4) 0.201(2)
C14B C 1.0000(20) 0.1963(14) 0.6921(12)
C15B C 0.8448(21) 0.1230(17) 0.6968(8)
H5B H 1.0000 0.2817 -0.1559
H6B H 1.0497 0.2633 -0.0937
H7B H 1.0000 0.4014 -0.1418
H8B H 0.9502 0.4049 -0.0712
H9B H 0.8092 0.5308 0.0890
H10B H 0.9023 0.5541 0.0695
H11B H 0.8257 0.4729 0.0345
H12B H 0.8150 0.5361 0.1880
H13B H 0.8252 0.4765 0.2455
H14B H 0.9057 0.5538 0.2102
H15B H 1.0001 0.1848 0.7430
O2J O 1.0691(13) 0.2814(9) 0.4293(6)
C7J C 1.0758(16) 0.2537(11) 0.5776(8)
H3J H 1.1267 0.2824 0.5513
C9J C 1.0769(16) 0.2434(11) 0.6540(8)
C15J C 1.1552(21) 0.2782(12) 0.6968(8)
O4J O 1.1509(19) 0.2710(9) 0.7669(6)
O7J O 1.2226(21) 0.3156(10) 0.6627(7)
H6J H 0.9503 0.2136 -0.0937
H8J H 1.0498 0.4547 -0.0712
Zn1C Zn 1.24309(12) 0.34142(11) 0.83316(13)
Zn1D Zn 0.65858(11) 0.90167(16) 0.83316(13)
Zn1E Zn 0.09833(16) -0.24309(12) 0.83316(13)
Zn1F Zn 0.34142(11) 0.24309(12) 0.83316(13)
Zn1G Zn 0.90167(16) 0.65858(11) 0.83316(13)
Zn1H Zn 0.75691(12) 0.09833(16) 0.83316(13)
Zn1I Zn 0.65858(11) 0.75691(12) 0.33316(13)
Zn1J Zn 1.09833(16) 0.34142(11) 0.33316(13)
Zn1K Zn 0.24309(12) -0.09833(16) 0.33316(13)
O4F O 0.2710(9) 0.1201(17) 0.2669(6)
O4G O 0.8491(19) 0.7290(9) 0.2669(6)
O4H O 0.8799(17) 0.1509(19) 0.2669(6)
Co1C Co 0.34934(15) 0.34934(15) 0.67540(17)
Co1C_2 Co 1.34934(15) 0.34934(15) 0.67540(17)
Co1D Co 0.65066(15) 0.00000(21) 0.67540(17)
Co1D_2 Co 0.65066(15) 1.00000(21) 0.67540(17)
Co1E Co 0.00000(21) -0.34934(15) 0.67540(17)
Co1E_2 Co 1.00000(21) 0.65066(15) 0.67540(17)
O6I O 0.5264(10) 0.6154(15) 0.1841(9)
O6J O 1.0890(18) 0.4736(10) 0.1841(9)
O6K O 0.3846(15) -0.0890(18) 0.1841(9)
O7C O 1.0930(19) 0.3156(10) 0.1627(7)
O7D O 0.6844(10) 0.7774(21) 0.1627(7)
O7E O 0.2226(21) -0.0930(19) 0.1627(7)
O7F O 0.3156(10) 0.0930(19) 0.1627(7)
O7G O 0.7774(21) 0.6844(10) 0.1627(7)
O7H O 0.9070(19) 0.2226(21) 0.1627(7)
Zn1E_2 Zn 0.09833(16) -0.24309(12) -0.16684(13)
O1E O 0.0000(10) -0.3429(7) -0.2079(8)
O2E O 0.0691(13) -0.2123(9) -0.0707(6)
O3E O 0.2035(11) -0.2397(8) -0.1501(8)
O4K_2 O 0.1201(17) -0.1509(19) -0.2331(6)
Co1E_3 Co 0.00000(21) -0.34934(15) -0.32460(17)
Zn1G_2 Zn -0.09833(16) -0.34142(11) -0.16684(13)
C1E C -0.0000(17) -0.2398(12) -0.0396(10)
C2E C 0.1880(20) -0.3083(14) -0.1293(14)
O4E O 0.1509(19) -0.1201(17) 0.2669(6)
C15E C 0.1552(21) -0.1230(17) 0.1968(8)
O5E O -0.0000(14) -0.3663(10) -0.4381(9)
O6E O 0.0890(18) -0.3846(15) -0.3159(9)
O6G O -0.0890(18) -0.4736(10) -0.3159(9)
O7_2 O -0.0930(19) -0.3156(10) -0.3373(7)
O7K_2 O 0.0930(19) -0.2226(21) -0.3373(7)
C3E C -0.0000(17) -0.2220(12) 0.0394(10)
O2G O -0.0691(13) -0.2814(9) -0.0707(6)
O8E O 0.1181(16) -0.3689(11) -0.1191(11)
C4E C 0.2643(18) -0.3225(13) -0.1230(15)
C5E C 0.0000(27) -0.3188(19) -0.4865(13)
C6E C 0.1159(27) -0.421(2) -0.352(2)
C7E C 0.0758(16) -0.1779(11) 0.0776(8)
C7G C -0.0758(16) -0.2537(11) 0.0776(8)
C8E C 0.3464(20) -0.2526(13) -0.1228(16)
C8C C 0.2526(13) -0.4010(15) -0.1228(16)
H1E H 0.0000 -0.2700 -0.4709
N1E N 0.0000(24) -0.3314(17) -0.5573(12)
H2E H 0.0964 -0.4211 -0.4002
N2E N 0.1536(26) -0.459(2) -0.3583(17)
H3E H 0.1267 -0.1557 0.0513
C9E C 0.0769(16) -0.1665(11) 0.1540(8)
H4E H 0.3546 -0.1979 -0.1225
C4D C 0.4132(13) -0.2643(18) -0.1230(15)
C10E C 0.000(4) -0.267(3) -0.604(2)
C11E C 0.000(3) -0.404(2) -0.588(2)
C12E C 0.154(4) -0.508(3) -0.422(2)
C13E C 0.152(5) -0.510(4) -0.299(2)
C14E C 0.0000(20) -0.1963(14) 0.1921(12)
H5E H -0.0000 -0.2817 -0.6559
H6E H -0.0497 -0.2633 -0.5937
H6G H 0.0497 -0.2136 -0.5937
H7E H 0.0000 -0.4014 -0.6418
H8E H 0.0498 -0.4049 -0.5712
H8G H -0.0498 -0.4547 -0.5712
H9E H 0.1908 -0.5308 -0.4110
H10E H 0.0977 -0.5541 -0.4305
H11E H 0.1743 -0.4729 -0.4655
H12E H 0.1850 -0.5361 -0.3120
H13E H 0.1748 -0.4765 -0.2545
H14E H 0.0943 -0.5538 -0.2898
H15E H -0.0001 -0.1848 0.2430
C9G C -0.0769(16) -0.2434(11) 0.1540(8)
H3G H -0.1267 -0.2824 0.0513
C15G C -0.1552(21) -0.2782(12) 0.1968(8)
O4G_2 O -0.1509(19) -0.2710(9) 0.2669(6)
O7G_2 O -0.2226(21) -0.3156(10) 0.1627(7)
Zn1_2 Zn -0.24309(12) -0.34142(11) 0.33316(13)
Co1_2 Co -0.34934(15) -0.34934(15) 0.17540(17)
O3C O 0.2397(8) -0.5568(7) -0.1501(8)
C2C C 0.3083(14) -0.5037(14) -0.1293(14)
Zn1C_2 Zn 0.24309(12) -0.65858(11) -0.16684(13)
O8C O 0.3689(11) -0.5130(11) -0.1191(11)
C4C C 0.3225(13) -0.4132(13) -0.1230(15)
C8D C 0.4010(15) -0.3464(20) -0.1228(16)
H4C H 0.1979 -0.4475 -0.1225
O3D O 0.5568(7) -0.2035(11) -0.1501(8)
C2D C 0.5037(14) -0.1880(20) -0.1293(14)
Zn1D_2 Zn 0.65858(11) -0.09833(16) -0.16684(13)
O8D O 0.5130(11) -0.1181(16) -0.1191(11)
H4D H 0.4475 -0.3546 -0.1225
O1C O 0.3429(7) -0.6571(7) -0.2079(8)
O2C O 0.2123(9) -0.7186(9) -0.0707(6)
O4J_2 O 0.1509(19) -0.7290(9) -0.2331(6)
Co1C_3 Co 0.34934(15) -0.65066(15) -0.32460(17)
Zn1F_2 Zn 0.34142(11) -0.75691(12) -0.16684(13)
C1C C 0.2398(12) -0.7602(12) -0.0396(10)
O4C O 0.1201(17) -0.7290(9) 0.2669(6)
C15C C 0.1230(17) -0.7218(12) 0.1968(8)
Zn1J_2 Zn 0.09833(16) -0.65858(11) 0.33316(13)
O5C O 0.3663(10) -0.6337(10) -0.4381(9)
O6C O 0.3846(15) -0.5264(10) -0.3159(9)
O6F O 0.4736(10) -0.6154(15) -0.3159(9)
O7A_2 O 0.3156(10) -0.7774(21) -0.3373(7)
O7J_2 O 0.2226(21) -0.6844(10) -0.3373(7)
C3C C 0.2220(12) -0.7780(12) 0.0394(10)
O2F O 0.2814(9) -0.7877(9) -0.0707(6)
C5C C 0.3188(19) -0.6812(19) -0.4865(13)
C6C C 0.421(2) -0.4631(18) -0.352(2)
O7C_2 O 0.0930(19) -0.6844(10) 0.1627(7)
Co1B_2 Co -0.00000(21) -0.65066(15) 0.17540(17)
C7C C 0.1779(11) -0.7463(11) 0.0776(8)
C7F C 0.2537(11) -0.8221(11) 0.0776(8)
H1C H 0.2700 -0.7300 -0.4709
N1C N 0.3314(17) -0.6686(17) -0.5573(12)
H2C H 0.4211 -0.4825 -0.4002
N2C N 0.459(2) -0.3874(17) -0.3583(17)
H3C H 0.1557 -0.7176 0.0513
C9C C 0.1665(11) -0.7566(11) 0.1540(8)
C10C C 0.267(3) -0.733(3) -0.604(2)
C11C C 0.404(2) -0.596(2) -0.588(2)
C12C C 0.508(3) -0.338(3) -0.422(2)
C13C C 0.510(4) -0.338(3) -0.299(2)
C14C C 0.1963(14) -0.8037(14) 0.1921(12)
H5C H 0.2817 -0.7183 -0.6559
H6C H 0.2633 -0.7864 -0.5937
H6F H 0.2136 -0.7367 -0.5937
H7C H 0.4014 -0.5986 -0.6418
H8C H 0.4049 -0.5453 -0.5712
H8F H 0.4547 -0.5951 -0.5712
H9C H 0.5308 -0.2784 -0.4110
H10C H 0.5541 -0.3482 -0.4305
H11C H 0.4729 -0.3528 -0.4655
H12C H 0.5361 -0.2789 -0.3120
H13C H 0.4765 -0.3487 -0.2545
H14C H 0.5538 -0.3519 -0.2898
H15C H 0.1848 -0.8153 0.2430
C9F C 0.2434(11) -0.8335(11) 0.1540(8)
H3F H 0.2824 -0.8443 0.0513
C15F C 0.2782(12) -0.8770(17) 0.1968(8)
O4F_2 O 0.2710(9) -0.8799(17) 0.2669(6)
O7F_2 O 0.3156(10) -0.9070(19) 0.1627(7)
Zn1A_2 Zn 0.34142(11) -0.90167(16) 0.33316(13)
Co1A_2 Co 0.34934(15) -1.00000(21) 0.17540(17)
O1D O 0.6571(7) -0.0000(10) -0.2079(8)
O2D O 0.7186(9) -0.0691(13) -0.0707(6)
O4I_2 O 0.7290(9) -0.1201(17) -0.2331(6)
Co1D_3 Co 0.65066(15) -0.00000(21) -0.32460(17)
Zn1H_2 Zn 0.75691(12) 0.09833(16) -0.16684(13)
C1D C 0.7602(12) 0.0000(17) -0.0396(10)
O4D O 0.7290(9) -0.1509(19) 0.2669(6)
C15D C 0.7218(12) -0.1552(21) 0.1968(8)
Zn1I_2 Zn 0.65858(11) -0.24309(12) 0.33316(13)
O5D O 0.6337(10) 0.0000(14) -0.4381(9)
O6D O 0.5264(10) -0.0890(18) -0.3159(9)
O6H O 0.6154(15) 0.0890(18) -0.3159(9)
O7B_2 O 0.7774(21) 0.0930(19) -0.3373(7)
O7I_2 O 0.6844(10) -0.0930(19) -0.3373(7)
C3D C 0.7780(12) 0.0000(17) 0.0394(10)
O2H O 0.7877(9) 0.0691(13) -0.0707(6)
C5D C 0.6812(19) 0.0000(27) -0.4865(13)
C6D C 0.4631(18) -0.1159(27) -0.352(2)
O7D_2 O 0.6844(10) -0.2226(21) 0.1627(7)
Co1_3 Co 0.65066(15) -0.34934(15) 0.17540(17)
C7D C 0.7463(11) -0.0758(16) 0.0776(8)
C7H C 0.8221(11) 0.0758(16) 0.0776(8)
H1D H 0.7300 0.0000 -0.4709
N1D N 0.6686(17) 0.0000(24) -0.5573(12)
H2D H 0.4825 -0.0964 -0.4002
N2D N 0.3874(17) -0.1536(26) -0.3583(17)
H3D H 0.7176 -0.1267 0.0513
C9D C 0.7566(11) -0.0769(16) 0.1540(8)
C10D C 0.733(3) 0.000(4) -0.604(2)
C11D C 0.596(2) 0.000(3) -0.588(2)
C12D C 0.338(3) -0.154(4) -0.422(2)
C13D C 0.338(3) -0.152(5) -0.299(2)
C14D C 0.8037(14) -0.0000(20) 0.1921(12)
H5D H 0.7183 0.0000 -0.6559
H6D H 0.7864 0.0497 -0.5937
H6H H 0.7367 -0.0497 -0.5937
H7D H 0.5986 0.0000 -0.6418
H8D H 0.5453 -0.0498 -0.5712
H8H H 0.5951 0.0498 -0.5712
H9D H 0.2784 -0.1908 -0.4110
H10D H 0.3482 -0.0977 -0.4305
H11D H 0.3528 -0.1743 -0.4655
H12D H 0.2789 -0.1850 -0.3120
H13D H 0.3487 -0.1748 -0.2545
H14D H 0.3519 -0.0943 -0.2898
H15D H 0.8153 0.0001 0.2430
C9H C 0.8335(11) 0.0769(16) 0.1540(8)
H3H H 0.8443 0.1267 0.0513
C15H C 0.8770(17) 0.1552(21) 0.1968(8)
O1_2 O -0.3429(7) -0.3429(7) 0.2921(8)
O2_2 O -0.2123(9) -0.2814(9) 0.4293(6)
O3_2 O -0.2397(8) -0.4432(7) 0.3499(8)
Zn1I_3 Zn -0.34142(11) -0.24309(12) 0.33316(13)
C1_2 C -0.2398(12) -0.2398(12) 0.4604(10)
C2_2 C -0.3083(14) -0.4963(14) 0.3707(14)
O4_2 O -0.1201(17) -0.2710(9) 0.7669(6)
C15_2 C -0.1230(17) -0.2782(12) 0.6968(8)
Zn1G_3 Zn -0.09833(16) -0.34142(11) 0.83316(13)
O5_2 O -0.3663(10) -0.3663(10) 0.0619(9)
O6_2 O -0.3846(15) -0.4736(10) 0.1841(9)
O6I_2 O -0.4736(10) -0.3846(15) 0.1841(9)
O7D_3 O -0.3156(10) -0.2226(21) 0.1627(7)
C3_2 C -0.2220(12) -0.2220(12) 0.5394(10)
O2I_2 O -0.2814(9) -0.2123(9) 0.4293(6)
O8_2 O -0.3689(11) -0.4870(11) 0.3809(11)
C4_2 C -0.3225(13) -0.5868(13) 0.3770(15)
C5_2 C -0.3188(19) -0.3188(19) 0.0135(13)
C6_2 C -0.421(2) -0.5369(18) 0.148(2)
O7_3 O -0.0930(19) -0.3156(10) 0.6627(7)
C7_2 C -0.1779(11) -0.2537(11) 0.5776(8)
C7I_2 C -0.2537(11) -0.1779(11) 0.5776(8)
C8_2 C -0.2526(13) -0.5990(15) 0.3772(16)
C8A_2 C -0.4010(15) -0.6536(20) 0.3772(16)
H1_2 H -0.2700 -0.2700 0.0291
N1_2 N -0.3314(17) -0.3314(17) -0.0573(12)
H2_2 H -0.4211 -0.5175 0.0998
N2_2 N -0.459(2) -0.6126(17) 0.1417(17)
H3_2 H -0.1557 -0.2824 0.5513
C9_2 C -0.1665(11) -0.2434(11) 0.6540(8)
H4_2 H -0.1979 -0.5525 0.3775
C4B_2 C -0.2643(18) -0.6775(13) 0.3770(15)
C10_2 C -0.267(3) -0.267(3) -0.104(2)
C11_2 C -0.404(2) -0.404(2) -0.088(2)
C12_2 C -0.508(3) -0.662(3) 0.078(2)
C13_2 C -0.510(4) -0.662(3) 0.201(2)
C14_2 C -0.1963(14) -0.1963(14) 0.6921(12)
H5_2 H -0.2817 -0.2817 -0.1559
H6_2 H -0.2633 -0.2136 -0.0937
H6I_2 H -0.2136 -0.2633 -0.0937
H7_2 H -0.4014 -0.4014 -0.1418
H8_2 H -0.4049 -0.4547 -0.0712
H8I_2 H -0.4547 -0.4049 -0.0712
H9_2 H -0.5308 -0.7216 0.0890
H10_2 H -0.5541 -0.6518 0.0695
H11_2 H -0.4729 -0.6472 0.0345
H12_2 H -0.5361 -0.7211 0.1880
H13_2 H -0.4765 -0.6513 0.2455
H14_2 H -0.5538 -0.6481 0.2102
H15_2 H -0.1848 -0.1847 0.7430
C9I_2 C -0.2434(11) -0.1665(11) 0.6540(8)
H3I_2 H -0.2824 -0.1557 0.5513
C15I_2 C -0.2782(12) -0.1230(17) 0.6968(8)
O4I_3 O -0.2710(9) -0.1201(17) 0.7669(6)
O7I_3 O -0.3156(10) -0.0930(19) 0.6627(7)
Zn1D_3 Zn -0.34142(11) -0.09833(16) 0.83316(13)
Co1D_4 Co -0.34934(15) 0.00000(21) 0.67540(17)
O3A_2 O -0.5568(7) -0.7965(11) 0.3499(8)
C2A_2 C -0.5037(14) -0.8120(20) 0.3707(14)
Zn1A_3 Zn -0.65858(11) -0.90167(16) 0.33316(13)
O8A_2 O -0.5130(11) -0.8819(16) 0.3809(11)
C4A_2 C -0.4132(13) -0.7357(18) 0.3770(15)
C8B_2 C -0.3464(20) -0.7474(13) 0.3772(16)
H4A_2 H -0.4475 -0.6454 0.3775
O3B_2 O -0.2035(11) -0.7603(8) 0.3499(8)
C2B_2 C -0.1880(20) -0.6917(14) 0.3707(14)
Zn1B_2 Zn -0.09833(16) -0.75691(12) 0.33316(13)
O8B_2 O -0.1181(16) -0.6311(11) 0.3809(11)
H4B_2 H -0.3546 -0.8021 0.3775
O1A_2 O -0.6571(7) -1.0000(10) 0.2921(8)
O2A_2 O -0.7186(9) -0.9309(13) 0.4293(6)
O4F_3 O -0.7290(9) -0.8799(17) 0.2669(6)
Co1A_3 Co -0.65066(15) -1.00000(21) 0.17540(17)
Zn1K_2 Zn -0.75691(12) -1.09833(16) 0.33316(13)
C1A_2 C -0.7602(12) -1.0000(17) 0.4604(10)
O4A_2 O -0.7290(9) -0.8491(19) 0.7669(6)
C15A_2 C -0.7218(12) -0.8448(21) 0.6968(8)
Zn1F_3 Zn -0.65858(11) -0.75691(12) 0.83316(13)
O5A_2 O -0.6337(10) -1.0000(14) 0.0619(9)
O6A_2 O -0.5264(10) -0.9110(18) 0.1841(9)
O6K_2 O -0.6154(15) -1.0890(18) 0.1841(9)
O7E_2 O -0.7774(21) -1.0930(19) 0.1627(7)
O7F_3 O -0.6844(10) -0.9070(19) 0.1627(7)
C3A_2 C -0.7780(12) -1.0000(17) 0.5394(10)
O2K_2 O -0.7877(9) -1.0691(13) 0.4293(6)
C5A_2 C -0.6812(19) -1.0000(27) 0.0135(13)
C6A_2 C -0.4631(18) -0.8841(27) 0.148(2)
O7A_3 O -0.6844(10) -0.7774(21) 0.6627(7)
Co1C_4 Co -0.65066(15) -0.65066(15) 0.67540(17)
C7A_2 C -0.7463(11) -0.9242(16) 0.5776(8)
C7K_2 C -0.8221(11) -1.0758(16) 0.5776(8)
H1A_2 H -0.7300 -1.0000 0.0291
N1A_2 N -0.6686(17) -1.0000(24) -0.0573(12)
H2A_2 H -0.4825 -0.9036 0.0998
N2A_2 N -0.3874(17) -0.8464(26) 0.1417(17)
H3A_2 H -0.7176 -0.8733 0.5513
C9A_2 C -0.7566(11) -0.9231(16) 0.6540(8)
C10A_2 C -0.733(3) -1.000(4) -0.104(2)
C11A_2 C -0.596(2) -1.000(3) -0.088(2)
C12A_2 C -0.338(3) -0.846(4) 0.078(2)
C13A_2 C -0.338(3) -0.848(5) 0.201(2)
C14A_2 C -0.8037(14) -1.0000(20) 0.6921(12)
H5A_2 H -0.7183 -1.0000 -0.1559
H6A_2 H -0.7864 -1.0497 -0.0937
H6K_2 H -0.7367 -0.9503 -0.0937
H7A_2 H -0.5986 -1.0000 -0.1418
H8A_2 H -0.5453 -0.9502 -0.0712
H8K_2 H -0.5951 -1.0498 -0.0712
H9A_2 H -0.2784 -0.8092 0.0890
H10A_2 H -0.3482 -0.9023 0.0695
H11A_2 H -0.3528 -0.8257 0.0345
H12A_2 H -0.2789 -0.8150 0.1880
H13A_2 H -0.3487 -0.8252 0.2455
H14A_2 H -0.3519 -0.9057 0.2102
H15A_2 H -0.8153 -1.0001 0.7430
C9K_2 C -0.8335(11) -1.0769(16) 0.6540(8)
H3K_2 H -0.8443 -1.1267 0.5513
C15K_2 C -0.8770(17) -1.1552(21) 0.6968(8)
O4K_3 O -0.8799(17) -1.1509(19) 0.7669(6)
O7K_3 O -0.9070(19) -1.2226(21) 0.6627(7)
Zn1E_3 Zn -0.90167(16) -1.24309(12) 0.83316(13)
Co1E_4 Co -1.00000(21) -1.34934(15) 0.67540(17)
O1B_2 O -0.0000(10) -0.6571(7) 0.2921(8)
O2B_2 O -0.0691(13) -0.7877(9) 0.4293(6)
O4H_2 O -0.1201(17) -0.8491(19) 0.2669(6)
C1B_2 C 0.0000(17) -0.7602(12) 0.4604(10)
O4B_2 O -0.1509(19) -0.8799(17) 0.7669(6)
C15B_2 C -0.1552(21) -0.8770(17) 0.6968(8)
Zn1H_3 Zn -0.24309(12) -0.90167(16) 0.83316(13)
O5B_2 O -0.0000(14) -0.6337(10) 0.0619(9)
O6B_2 O -0.0890(18) -0.6154(15) 0.1841(9)
O6J_2 O 0.0890(18) -0.5264(10) 0.1841(9)
O7H_2 O -0.0930(19) -0.7774(21) 0.1627(7)
C3B_2 C 0.0000(17) -0.7780(12) 0.5394(10)
O2J_2 O 0.0691(13) -0.7186(9) 0.4293(6)
C5B_2 C -0.0000(27) -0.6812(19) 0.0135(13)
C6B_2 C -0.1159(27) -0.579(2) 0.148(2)
O7B_3 O -0.2226(21) -0.9070(19) 0.6627(7)
Co1D_5 Co -0.34934(15) -1.00000(21) 0.67540(17)
C7B_2 C -0.0758(16) -0.8221(11) 0.5776(8)
C7J_2 C 0.0758(16) -0.7463(11) 0.5776(8)
H1B_2 H -0.0000 -0.7300 0.0291
N1B_2 N 0.0000(24) -0.6686(17) -0.0573(12)
H2B_2 H -0.0964 -0.5789 0.0998
N2B_2 N -0.1536(26) -0.541(2) 0.1417(17)
H3B_2 H -0.1267 -0.8443 0.5513
C9B_2 C -0.0769(16) -0.8335(11) 0.6540(8)
C10B_2 C 0.000(4) -0.733(3) -0.104(2)
C11B_2 C 0.000(3) -0.596(2) -0.088(2)
C12B_2 C -0.154(4) -0.492(3) 0.078(2)
C13B_2 C -0.152(5) -0.490(4) 0.201(2)
C14B_2 C 0.0000(20) -0.8037(14) 0.6921(12)
H5B_2 H 0.0000 -0.7183 -0.1559
H6B_2 H 0.0497 -0.7367 -0.0937
H6J_2 H -0.0497 -0.7864 -0.0937
H7B_2 H 0.0000 -0.5986 -0.1418
H8B_2 H -0.0498 -0.5951 -0.0712
H8J_2 H 0.0498 -0.5453 -0.0712
H9B_2 H -0.1908 -0.4692 0.0890
H10B_2 H -0.0977 -0.4459 0.0695
H11B_2 H -0.1743 -0.5271 0.0345
H12B_2 H -0.1850 -0.4639 0.1880
H13B_2 H -0.1748 -0.5235 0.2455
H14B_2 H -0.0943 -0.4462 0.2102
H15B_2 H 0.0001 -0.8152 0.7430
C9J_2 C 0.0769(16) -0.7566(11) 0.6540(8)
H3J_2 H 0.1267 -0.7176 0.5513
C15J_2 C 0.1552(21) -0.7218(12) 0.6968(8)
O4J_3 O 0.1509(19) -0.7290(9) 0.7669(6)
O7J_3 O 0.2226(21) -0.6844(10) 0.6627(7)
Zn1C_3 Zn 0.24309(12) -0.65858(11) 0.83316(13)
Co1C_5 Co 0.34934(15) -0.65066(15) 0.67540(17)
Zn1E_4 Zn -0.90167(16) -1.24309(12) -0.16684(13)
O1E_2 O -1.0000(10) -1.3429(7) -0.2079(8)
O2E_2 O -0.9309(13) -1.2123(9) -0.0707(6)
O3E_2 O -0.7965(11) -1.2397(8) -0.1501(8)
O4K_4 O -0.8799(17) -1.1509(19) -0.2331(6)
Co1E_5 Co -1.00000(21) -1.34934(15) -0.32460(17)
Zn1G_4 Zn -1.09833(16) -1.34142(11) -0.16684(13)
C1E_2 C -1.0000(17) -1.2398(12) -0.0396(10)
C2E_2 C -0.8120(20) -1.3083(14) -0.1293(14)
O4E_2 O -0.8491(19) -1.1201(17) 0.2669(6)
C15E_2 C -0.8448(21) -1.1230(17) 0.1968(8)
O5E_2 O -1.0000(14) -1.3663(10) -0.4381(9)
O6E_2 O -0.9110(18) -1.3846(15) -0.3159(9)
O6G_2 O -1.0890(18) -1.4736(10) -0.3159(9)
O7_4 O -1.0930(19) -1.3156(10) -0.3373(7)
O7K_4 O -0.9070(19) -1.2226(21) -0.3373(7)
C3E_2 C -1.0000(17) -1.2220(12) 0.0394(10)
O2G_2 O -1.0691(13) -1.2814(9) -0.0707(6)
O8E_2 O -0.8819(16) -1.3689(11) -0.1191(11)
C4E_2 C -0.7357(18) -1.3225(13) -0.1230(15)
C5E_2 C -1.0000(27) -1.3188(19) -0.4865(13)
C6E_2 C -0.8841(27) -1.421(2) -0.352(2)
C7E_2 C -0.9242(16) -1.1779(11) 0.0776(8)
C7G_2 C -1.0758(16) -1.2537(11) 0.0776(8)
C8E_2 C -0.6536(20) -1.2526(13) -0.1228(16)
C8C_2 C -0.7474(13) -1.4010(15) -0.1228(16)
H1E_2 H -1.0000 -1.2700 -0.4709
N1E_2 N -1.0000(24) -1.3314(17) -0.5573(12)
H2E_2 H -0.9036 -1.4211 -0.4002
N2E_2 N -0.8464(26) -1.459(2) -0.3583(17)
H3E_2 H -0.8733 -1.1557 0.0513
C9E_2 C -0.9231(16) -1.1665(11) 0.1540(8)
H4E_2 H -0.6454 -1.1979 -0.1225
C4D_2 C -0.5868(13) -1.2643(18) -0.1230(15)
C10E_2 C -1.000(4) -1.267(3) -0.604(2)
C11E_2 C -1.000(3) -1.404(2) -0.588(2)
C12E_2 C -0.846(4) -1.508(3) -0.422(2)
C13E_2 C -0.848(5) -1.510(4) -0.299(2)
C14E_2 C -1.0000(20) -1.1963(14) 0.1921(12)
H5E_2 H -1.0000 -1.2817 -0.6559
H6E_2 H -1.0497 -1.2633 -0.5937
H6G_2 H -0.9503 -1.2136 -0.5937
H7E_2 H -1.0000 -1.4014 -0.6418
H8E_2 H -0.9502 -1.4049 -0.5712
H8G_2 H -1.0498 -1.4547 -0.5712
H9E_2 H -0.8092 -1.5308 -0.4110
H10E_2 H -0.9023 -1.5541 -0.4305
H11E_2 H -0.8257 -1.4729 -0.4655
H12E_2 H -0.8150 -1.5361 -0.3120
H13E_2 H -0.8252 -1.4765 -0.2545
H14E_2 H -0.9057 -1.5538 -0.2898
H15E_2 H -1.0001 -1.1848 0.2430
C9G_2 C -1.0769(16) -1.2434(11) 0.1540(8)
H3G_2 H -1.1267 -1.2824 0.0513
C15G_2 C -1.1552(21) -1.2782(12) 0.1968(8)
O4G_3 O -1.1509(19) -1.2710(9) 0.2669(6)
O7G_3 O -1.2226(21) -1.3156(10) 0.1627(7)
Zn1_3 Zn -1.24309(12) -1.34142(11) 0.33316(13)
Co1_4 Co -1.34934(15) -1.34934(15) 0.17540(17)
O3C_2 O -0.7603(8) -1.5568(7) -0.1501(8)
C2C_2 C -0.6917(14) -1.5037(14) -0.1293(14)
Zn1C_4 Zn -0.75691(12) -1.65858(11) -0.16684(13)
O8C_2 O -0.6311(11) -1.5130(11) -0.1191(11)
C4C_2 C -0.6775(13) -1.4132(13) -0.1230(15)
C8D_2 C -0.5990(15) -1.3464(20) -0.1228(16)
H4C_2 H -0.8021 -1.4475 -0.1225
O3D_2 O -0.4432(7) -1.2035(11) -0.1501(8)
C2D_2 C -0.4963(14) -1.1880(20) -0.1293(14)
Zn1D_4 Zn -0.34142(11) -1.09833(16) -0.16684(13)
O8D_2 O -0.4870(11) -1.1181(16) -0.1191(11)
H4D_2 H -0.5525 -1.3546 -0.1225
O1C_2 O -0.6571(7) -1.6571(7) -0.2079(8)
O2C_2 O -0.7877(9) -1.7186(9) -0.0707(6)
O4J_4 O -0.8491(19) -1.7290(9) -0.2331(6)
Co1C_6 Co -0.65066(15) -1.65066(15) -0.32460(17)
Zn1F_4 Zn -0.65858(11) -1.75691(12) -0.16684(13)
C1C_2 C -0.7602(12) -1.7602(12) -0.0396(10)
O4C_2 O -0.8799(17) -1.7290(9) 0.2669(6)
C15C_2 C -0.8770(17) -1.7218(12) 0.1968(8)
Zn1J_3 Zn -0.90167(16) -1.65858(11) 0.33316(13)
O5C_2 O -0.6337(10) -1.6337(10) -0.4381(9)
O6C_2 O -0.6154(15) -1.5264(10) -0.3159(9)
O6F_2 O -0.5264(10) -1.6154(15) -0.3159(9)
O7A_4 O -0.6844(10) -1.7774(21) -0.3373(7)
O7J_4 O -0.7774(21) -1.6844(10) -0.3373(7)
C3C_2 C -0.7780(12) -1.7780(12) 0.0394(10)
O2F_2 O -0.7186(9) -1.7877(9) -0.0707(6)
C5C_2 C -0.6812(19) -1.6812(19) -0.4865(13)
C6C_2 C -0.579(2) -1.4631(18) -0.352(2)
O7C_3 O -0.9070(19) -1.6844(10) 0.1627(7)
Co1B_3 Co -1.00000(21) -1.65066(15) 0.17540(17)
C7C_2 C -0.8221(11) -1.7463(11) 0.0776(8)
C7F_2 C -0.7463(11) -1.8221(11) 0.0776(8)
H1C_2 H -0.7300 -1.7300 -0.4709
N1C_2 N -0.6686(17) -1.6686(17) -0.5573(12)
H2C_2 H -0.5789 -1.4825 -0.4002
N2C_2 N -0.541(2) -1.3874(17) -0.3583(17)
H3C_2 H -0.8443 -1.7176 0.0513
C9C_2 C -0.8335(11) -1.7566(11) 0.1540(8)
C10C_2 C -0.733(3) -1.733(3) -0.604(2)
C11C_2 C -0.596(2) -1.596(2) -0.588(2)
C12C_2 C -0.492(3) -1.338(3) -0.422(2)
C13C_2 C -0.490(4) -1.338(3) -0.299(2)
C14C_2 C -0.8037(14) -1.8037(14) 0.1921(12)
H5C_2 H -0.7183 -1.7183 -0.6559
H6C_2 H -0.7367 -1.7864 -0.5937
H6F_2 H -0.7864 -1.7367 -0.5937
H7C_2 H -0.5986 -1.5986 -0.6418
H8C_2 H -0.5951 -1.5453 -0.5712
H8F_2 H -0.5453 -1.5951 -0.5712
H9C_2 H -0.4692 -1.2784 -0.4110
H10C_2 H -0.4459 -1.3482 -0.4305
H11C_2 H -0.5271 -1.3528 -0.4655
H12C_2 H -0.4639 -1.2789 -0.3120
H13C_2 H -0.5235 -1.3487 -0.2545
H14C_2 H -0.4462 -1.3519 -0.2898
H15C_2 H -0.8152 -1.8153 0.2430
C9F_2 C -0.7566(11) -1.8335(11) 0.1540(8)
H3F_2 H -0.7176 -1.8443 0.0513
C15F_2 C -0.7218(12) -1.8770(17) 0.1968(8)
O4F_4 O -0.7290(9) -1.8799(17) 0.2669(6)
O7F_4 O -0.6844(10) -1.9070(19) 0.1627(7)
Zn1A_4 Zn -0.65858(11) -1.90167(16) 0.33316(13)
Co1A_4 Co -0.65066(15) -2.00000(21) 0.17540(17)
O1D_2 O -0.3429(7) -1.0000(10) -0.2079(8)
O2D_2 O -0.2814(9) -1.0691(13) -0.0707(6)
O4I_4 O -0.2710(9) -1.1201(17) -0.2331(6)
Co1D_6 Co -0.34934(15) -1.00000(21) -0.32460(17)
Zn1H_4 Zn -0.24309(12) -0.90167(16) -0.16684(13)
C1D_2 C -0.2398(12) -1.0000(17) -0.0396(10)
O4D_2 O -0.2710(9) -1.1509(19) 0.2669(6)
C15D_2 C -0.2782(12) -1.1552(21) 0.1968(8)
Zn1I_4 Zn -0.34142(11) -1.24309(12) 0.33316(13)
O5D_2 O -0.3663(10) -1.0000(14) -0.4381(9)
O6D_2 O -0.4736(10) -1.0890(18) -0.3159(9)
O6H_2 O -0.3846(15) -0.9110(18) -0.3159(9)
O7B_4 O -0.2226(21) -0.9070(19) -0.3373(7)
O7I_4 O -0.3156(10) -1.0930(19) -0.3373(7)
C3D_2 C -0.2220(12) -1.0000(17) 0.0394(10)
O2H_2 O -0.2123(9) -0.9309(13) -0.0707(6)
C5D_2 C -0.3188(19) -1.0000(27) -0.4865(13)
C6D_2 C -0.5369(18) -1.1159(27) -0.352(2)
O7D_4 O -0.3156(10) -1.2226(21) 0.1627(7)
Co1_5 Co -0.34934(15) -1.34934(15) 0.17540(17)
C7D_2 C -0.2537(11) -1.0758(16) 0.0776(8)
C7H_2 C -0.1779(11) -0.9242(16) 0.0776(8)
H1D_2 H -0.2700 -1.0000 -0.4709
N1D_2 N -0.3314(17) -1.0000(24) -0.5573(12)
H2D_2 H -0.5175 -1.0964 -0.4002
N2D_2 N -0.6126(17) -1.1536(26) -0.3583(17)
H3D_2 H -0.2824 -1.1267 0.0513
C9D_2 C -0.2434(11) -1.0769(16) 0.1540(8)
C10D_2 C -0.267(3) -1.000(4) -0.604(2)
C11D_2 C -0.404(2) -1.000(3) -0.588(2)
C12D_2 C -0.662(3) -1.154(4) -0.422(2)
C13D_2 C -0.662(3) -1.152(5) -0.299(2)
C14D_2 C -0.1963(14) -1.0000(20) 0.1921(12)
H5D_2 H -0.2817 -1.0000 -0.6559
H6D_2 H -0.2136 -0.9503 -0.5937
H6H_2 H -0.2633 -1.0497 -0.5937
H7D_2 H -0.4014 -1.0000 -0.6418
H8D_2 H -0.4547 -1.0498 -0.5712
H8H_2 H -0.4049 -0.9502 -0.5712
H9D_2 H -0.7216 -1.1908 -0.4110
H10D_2 H -0.6518 -1.0977 -0.4305
H11D_2 H -0.6472 -1.1743 -0.4655
H12D_2 H -0.7211 -1.1850 -0.3120
H13D_2 H -0.6513 -1.1748 -0.2545
H14D_2 H -0.6481 -1.0943 -0.2898
H15D_2 H -0.1847 -0.9999 0.2430
C9H_2 C -0.1665(11) -0.9231(16) 0.1540(8)
H3H_2 H -0.1557 -0.8733 0.0513
C15H_2 C -0.1230(17) -0.8448(21) 0.1968(8)
loop_
_geom_bond_atom_site_label_1
_geom_bond_atom_site_label_2
_geom_bond_site_symmetry_1
_geom_bond_site_symmetry_2
Zn1 O1 1_555 1_555
O1 Co1 1_555 1_555
O2 Zn1 1_555 1_555
O3 Zn1 1_555 1_555
O4 C15 1_555 1_555
Co1 O5 1_555 1_555
C1 O2 1_555 1_555
C2 O3 1_555 1_555
O5 C5 1_555 1_555
O6 Co1 1_555 1_555
O7 C15 1_555 1_555
C3 C1 1_555 1_555
O8 C2 1_555 1_555
C4 C2 1_555 1_555
C5 H1 1_555 1_555
C6 O6 1_555 1_555
C7 C3 1_555 1_555
C8 C4 1_555 1_555
N1 C5 1_555 1_555
H2 C6 1_555 1_555
N2 C6 1_555 1_555
H3 C7 1_555 1_555
C9 C7 1_555 1_555
H4 C8 1_555 1_555
C10 N1 1_555 1_555
C11 N1 1_555 1_555
C12 N2 1_555 1_555
C13 N2 1_555 1_555
C14 C9 1_555 1_555
C15 C9 1_555 1_555
H5 C10 1_555 1_555
H6 C10 1_555 1_555
H7 C11 1_555 1_555
H8 C11 1_555 1_555
H9 C12 1_555 1_555
H10 C12 1_555 1_555
H11 C12 1_555 1_555
H12 C13 1_555 1_555
H13 C13 1_555 1_555
H14 C13 1_555 1_555
H15 C14 1_555 1_555
C16 N3 1_555 1_555
N3 C17 1_555 1_555
O2I C1 1_555 1_555
C7I C3 1_555 1_555
H3I C7I 1_555 1_555
C9I C14 1_555 1_555
C15I C9I 1_555 1_555
O4I C15I 1_555 1_555
O7I C15I 1_555 1_555
O3A C2A 1_555 1_555
C2A O8A 1_555 1_555
C4A C2A 1_555 1_555
C8A C4 1_555 1_555
H4A C8A 1_555 1_555
O3B C2B 1_555 1_555
C2B O8B 1_555 1_555
C4B C8 1_555 1_555
C8B C4A 1_555 1_555
H4B C8B 1_555 1_555
H6I C10 1_555 1_555
H8I C11 1_555 1_555
Zn1A O3A 1_555 1_555
O1A Zn1A 1_555 1_555
O2A Zn1A 1_555 1_555
O4A C15A 1_555 1_555
Co1A O1A 1_555 1_555
C1A O2A 1_555 1_555
O5A Co1A 1_555 1_555
O6A Co1A 1_555 1_555
O7A C15A 1_555 1_555
C3A C1A 1_555 1_555
C5A O5A 1_555 1_555
C6A O6A 1_555 1_555
C7A C3A 1_555 1_555
H1A C5A 1_555 1_555
N1A C5A 1_555 1_555
H2A C6A 1_555 1_555
N2A C6A 1_555 1_555
H3A C7A 1_555 1_555
C9A C7A 1_555 1_555
C10A N1A 1_555 1_555
C11A N1A 1_555 1_555
C12A N2A 1_555 1_555
C13A N2A 1_555 1_555
C14A C9A 1_555 1_555
C15A C9A 1_555 1_555
H5A C10A 1_555 1_555
H6A C10A 1_555 1_555
H7A C11A 1_555 1_555
H8A C11A 1_555 1_555
H9A C12A 1_555 1_555
H10A C12A 1_555 1_555
H11A C12A 1_555 1_555
H12A C13A 1_555 1_555
H13A C13A 1_555 1_555
H14A C13A 1_555 1_555
H15A C14A 1_555 1_555
O2K C1A 1_555 1_555
C7K C3A 1_555 1_555
H3K C7K 1_555 1_555
C9K C14A 1_555 1_555
C15K C9K 1_555 1_555
O4K C15K 1_555 1_555
O7K C15K 1_555 1_555
H6K C10A 1_555 1_555
H8K C11A 1_555 1_555
Zn1B O3B 1_555 1_555
O1B Zn1B 1_555 1_555
O2B Zn1B 1_555 1_555
O4B C15B 1_555 1_555
Co1B O1B 1_555 1_555
C1B O2B 1_555 1_555
O5B Co1B 1_555 1_555
O6B Co1B 1_555 1_555
O7B C15B 1_555 1_555
C3B C1B 1_555 1_555
C5B O5B 1_555 1_555
C6B O6B 1_555 1_555
C7B C3B 1_555 1_555
H1B C5B 1_555 1_555
N1B C5B 1_555 1_555
H2B C6B 1_555 1_555
N2B C6B 1_555 1_555
H3B C7B 1_555 1_555
C9B C7B 1_555 1_555
C10B N1B 1_555 1_555
C11B N1B 1_555 1_555
C12B N2B 1_555 1_555
C13B N2B 1_555 1_555
C14B C9B 1_555 1_555
C15B C9B 1_555 1_555
H5B C10B 1_555 1_555
H6B C10B 1_555 1_555
H7B C11B 1_555 1_555
H8B C11B 1_555 1_555
H9B C12B 1_555 1_555
H10B C12B 1_555 1_555
H11B C12B 1_555 1_555
H12B C13B 1_555 1_555
H13B C13B 1_555 1_555
H14B C13B 1_555 1_555
H15B C14B 1_555 1_555
O2J C1B 1_555 1_555
C7J C3B 1_555 1_555
H3J C7J 1_555 1_555
C9J C14B 1_555 1_555
C15J C9J 1_555 1_555
O4J C15J 1_555 1_555
O7J C15J 1_555 1_555
H6J C10B 1_555 1_555
H8J C11B 1_555 1_555
Zn1C O4J 1_555 1_555
Zn1D O4I 1_555 1_555
Zn1E O4K 1_555 1_555
Zn1F O4A 1_555 1_555
Zn1G O4 1_555 1_555
Zn1H O4B 1_555 1_555
Zn1I O1 1_555 1_555
Zn1J O1B 1_555 1_555
Zn1K O1A 1_555 1_555
O4F Zn1A 1_555 1_555
O4G Zn1 1_555 1_555
O4H Zn1B 1_555 1_555
Co1C O7A 1_555 1_555
Co1C_2 O7J 1_555 1_555
Co1D O7B 1_555 1_555
Co1D_2 O7I 1_555 1_555
Co1E O7K 1_555 1_555
Co1E_2 O7 1_555 1_555
O6I Co1 1_555 1_555
O6J Co1B 1_555 1_555
O6K Co1A 1_555 1_555
O7C Co1B 1_555 1_555
O7D Co1 1_555 1_555
O7E Co1A 1_555 1_555
O7F Co1A 1_555 1_555
O7G Co1 1_555 1_555
O7H Co1B 1_555 1_555
Zn1E_2 O1E 1_555 1_555
O1E Co1E_3 1_555 1_555
O2E Zn1E_2 1_555 1_555
O3E Zn1E_2 1_555 1_555
O4K_2 Zn1E_2 1_555 1_555
Co1E_3 O5E 1_555 1_555
Zn1G_2 O1E 1_555 1_555
C1E O2E 1_555 1_555
C2E O3E 1_555 1_555
O4E Zn1K 1_555 1_555
C15E O7E 1_555 1_555
O5E C5E 1_555 1_555
O6E Co1E_3 1_555 1_555
O6G Co1E_3 1_555 1_555
O7_2 Co1E_3 1_555 1_555
O7K_2 Co1E_3 1_555 1_555
C3E C1E 1_555 1_555
O2G Zn1G_2 1_555 1_555
O8E C2E 1_555 1_555
C4E C2E 1_555 1_555
C5E H1E 1_555 1_555
C6E O6E 1_555 1_555
C7E C3E 1_555 1_555
C7G C3E 1_555 1_555
C8E C4E 1_555 1_555
C8C C4E 1_555 1_555
N1E C5E 1_555 1_555
H2E C6E 1_555 1_555
N2E C6E 1_555 1_555
H3E C7E 1_555 1_555
C9E C15E 1_555 1_555
H4E C8E 1_555 1_555
C4D C8E 1_555 1_555
C10E N1E 1_555 1_555
C11E N1E 1_555 1_555
C12E N2E 1_555 1_555
C13E N2E 1_555 1_555
C14E C9E 1_555 1_555
H5E C10E 1_555 1_555
H6E C10E 1_555 1_555
H6G C10E 1_555 1_555
H7E C11E 1_555 1_555
H8E C11E 1_555 1_555
H8G C11E 1_555 1_555
H9E C12E 1_555 1_555
H10E C12E 1_555 1_555
H11E C12E 1_555 1_555
H12E C13E 1_555 1_555
H13E C13E 1_555 1_555
H14E C13E 1_555 1_555
H15E C14E 1_555 1_555
C9G C7G 1_555 1_555
H3G C7G 1_555 1_555
C15G C9G 1_555 1_555
O4G_2 C15G 1_555 1_555
O7G_2 C15G 1_555 1_555
Zn1_2 O4G_2 1_555 1_555
Co1_2 O7G_2 1_555 1_555
O3C C2C 1_555 1_555
C2C O8C 1_555 1_555
Zn1C_2 O3C 1_555 1_555
C4C C8C 1_555 1_555
C8D C4D 1_555 1_555
H4C C8C 1_555 1_555
O3D C2D 1_555 1_555
C2D C4D 1_555 1_555
Zn1D_2 O3D 1_555 1_555
O8D C2D 1_555 1_555
H4D C8D 1_555 1_555
O1C Zn1C_2 1_555 1_555
O2C Zn1C_2 1_555 1_555
O4J_2 Zn1C_2 1_555 1_555
Co1C_3 O1C 1_555 1_555
Zn1F_2 O1C 1_555 1_555
C1C O2C 1_555 1_555
O4C C15C 1_555 1_555
C15C O7C_2 1_555 1_555
Zn1J_2 O4C 1_555 1_555
O5C Co1C_3 1_555 1_555
O6C Co1C_3 1_555 1_555
O6F Co1C_3 1_555 1_555
O7A_2 Co1C_3 1_555 1_555
O7J_2 Co1C_3 1_555 1_555
C3C C1C 1_555 1_555
O2F Zn1F_2 1_555 1_555
C5C O5C 1_555 1_555
C6C O6C 1_555 1_555
O7C_2 Co1B_2 1_555 1_555
Co1B_2 O1B_2 1_555 1_555
C7C C3C 1_555 1_555
C7F C3C 1_555 1_555
H1C C5C 1_555 1_555
N1C C5C 1_555 1_555
H2C C6C 1_555 1_555
N2C C6C 1_555 1_555
H3C C7C 1_555 1_555
C9C C15C 1_555 1_555
C10C N1C 1_555 1_555
C11C N1C 1_555 1_555
C12C N2C 1_555 1_555
C13C N2C 1_555 1_555
C14C C9C 1_555 1_555
H5C C10C 1_555 1_555
H6C C10C 1_555 1_555
H6F C10C 1_555 1_555
H7C C11C 1_555 1_555
H8C C11C 1_555 1_555
H8F C11C 1_555 1_555
H9C C12C 1_555 1_555
H10C C12C 1_555 1_555
H11C C12C 1_555 1_555
H12C C13C 1_555 1_555
H13C C13C 1_555 1_555
H14C C13C 1_555 1_555
H15C C14C 1_555 1_555
C9F C7F 1_555 1_555
H3F C7F 1_555 1_555
C15F C9F 1_555 1_555
O4F_2 C15F 1_555 1_555
O7F_2 C15F 1_555 1_555
Zn1A_2 O4F_2 1_555 1_555
Co1A_2 O7F_2 1_555 1_555
O1D Zn1D_2 1_555 1_555
O2D Zn1D_2 1_555 1_555
O4I_2 Zn1D_2 1_555 1_555
Co1D_3 O1D 1_555 1_555
Zn1H_2 O1D 1_555 1_555
C1D O2D 1_555 1_555
O4D C15D 1_555 1_555
C15D O7D_2 1_555 1_555
Zn1I_2 O4D 1_555 1_555
O5D Co1D_3 1_555 1_555
O6D Co1D_3 1_555 1_555
O6H Co1D_3 1_555 1_555
O7B_2 Co1D_3 1_555 1_555
O7I_2 Co1D_3 1_555 1_555
C3D C1D 1_555 1_555
O2H Zn1H_2 1_555 1_555
C5D O5D 1_555 1_555
C6D O6D 1_555 1_555
O7D_2 Co1_3 1_555 1_555
C7D C3D 1_555 1_555
C7H C3D 1_555 1_555
H1D C5D 1_555 1_555
N1D C5D 1_555 1_555
H2D C6D 1_555 1_555
N2D C6D 1_555 1_555
H3D C7D 1_555 1_555
C9D C15D 1_555 1_555
C10D N1D 1_555 1_555
C11D N1D 1_555 1_555
C12D N2D 1_555 1_555
C13D N2D 1_555 1_555
C14D C9D 1_555 1_555
H5D C10D 1_555 1_555
H6D C10D 1_555 1_555
H6H C10D 1_555 1_555
H7D C11D 1_555 1_555
H8D C11D 1_555 1_555
H8H C11D 1_555 1_555
H9D C12D 1_555 1_555
H10D C12D 1_555 1_555
H11D C12D 1_555 1_555
H12D C13D 1_555 1_555
H13D C13D 1_555 1_555
H14D C13D 1_555 1_555
H15D C14D 1_555 1_555
C9H C7H 1_555 1_555
H3H C7H 1_555 1_555
C15H O4H 1_555 1_555
O1_2 Zn1_2 1_555 1_555
O2_2 Zn1_2 1_555 1_555
O3_2 Zn1_2 1_555 1_555
Zn1I_3 O1_2 1_555 1_555
C1_2 O2_2 1_555 1_555
C2_2 O3_2 1_555 1_555
O4_2 C15_2 1_555 1_555
C15_2 O7_3 1_555 1_555
Zn1G_3 O4_2 1_555 1_555
O5_2 Co1_2 1_555 1_555
O6_2 Co1_2 1_555 1_555
O6I_2 Co1_2 1_555 1_555
O7D_3 Co1_2 1_555 1_555
C3_2 C1_2 1_555 1_555
O2I_2 Zn1I_3 1_555 1_555
O8_2 C2_2 1_555 1_555
C4_2 C2_2 1_555 1_555
C5_2 O5_2 1_555 1_555
C6_2 O6_2 1_555 1_555
O7_3 Co1E 1_555 1_555
C7_2 C3_2 1_555 1_555
C7I_2 C3_2 1_555 1_555
C8_2 C4_2 1_555 1_555
C8A_2 C4_2 1_555 1_555
H1_2 C5_2 1_555 1_555
N1_2 C5_2 1_555 1_555
H2_2 C6_2 1_555 1_555
N2_2 C6_2 1_555 1_555
H3_2 C7_2 1_555 1_555
C9_2 C15_2 1_555 1_555
H4_2 C8_2 1_555 1_555
C4B_2 C8_2 1_555 1_555
C10_2 N1_2 1_555 1_555
C11_2 N1_2 1_555 1_555
C12_2 N2_2 1_555 1_555
C13_2 N2_2 1_555 1_555
C14_2 C9_2 1_555 1_555
H5_2 C10_2 1_555 1_555
H6_2 C10_2 1_555 1_555
H6I_2 C10_2 1_555 1_555
H7_2 C11_2 1_555 1_555
H8_2 C11_2 1_555 1_555
H8I_2 C11_2 1_555 1_555
H9_2 C12_2 1_555 1_555
H10_2 C12_2 1_555 1_555
H11_2 C12_2 1_555 1_555
H12_2 C13_2 1_555 1_555
H13_2 C13_2 1_555 1_555
H14_2 C13_2 1_555 1_555
H15_2 C14_2 1_555 1_555
C9I_2 C7I_2 1_555 1_555
H3I_2 C7I_2 1_555 1_555
C15I_2 C9I_2 1_555 1_555
O4I_3 C15I_2 1_555 1_555
O7I_3 C15I_2 1_555 1_555
Zn1D_3 O4I_3 1_555 1_555
Co1D_4 O7I_3 1_555 1_555
O3A_2 C2A_2 1_555 1_555
C2A_2 O8A_2 1_555 1_555
Zn1A_3 O3A_2 1_555 1_555
C4A_2 C8A_2 1_555 1_555
C8B_2 C4B_2 1_555 1_555
H4A_2 C8A_2 1_555 1_555
O3B_2 C2B_2 1_555 1_555
C2B_2 C4B_2 1_555 1_555
Zn1B_2 O3B_2 1_555 1_555
O8B_2 C2B_2 1_555 1_555
H4B_2 C8B_2 1_555 1_555
O1A_2 Zn1A_3 1_555 1_555
O2A_2 Zn1A_3 1_555 1_555
O4F_3 Zn1A_3 1_555 1_555
Co1A_3 O1A_2 1_555 1_555
Zn1K_2 O1A_2 1_555 1_555
C1A_2 O2A_2 1_555 1_555
O4A_2 C15A_2 1_555 1_555
C15A_2 O7A_3 1_555 1_555
Zn1F_3 O4A_2 1_555 1_555
O5A_2 Co1A_3 1_555 1_555
O6A_2 Co1A_3 1_555 1_555
O6K_2 Co1A_3 1_555 1_555
O7E_2 Co1A_3 1_555 1_555
O7F_3 Co1A_3 1_555 1_555
C3A_2 C1A_2 1_555 1_555
O2K_2 Zn1K_2 1_555 1_555
C5A_2 O5A_2 1_555 1_555
C6A_2 O6A_2 1_555 1_555
O7A_3 Co1C_4 1_555 1_555
C7A_2 C3A_2 1_555 1_555
C7K_2 C3A_2 1_555 1_555
H1A_2 C5A_2 1_555 1_555
N1A_2 C5A_2 1_555 1_555
H2A_2 C6A_2 1_555 1_555
N2A_2 C6A_2 1_555 1_555
H3A_2 C7A_2 1_555 1_555
C9A_2 C15A_2 1_555 1_555
C10A_2 N1A_2 1_555 1_555
C11A_2 N1A_2 1_555 1_555
C12A_2 N2A_2 1_555 1_555
C13A_2 N2A_2 1_555 1_555
C14A_2 C9A_2 1_555 1_555
H5A_2 C10A_2 1_555 1_555
H6A_2 C10A_2 1_555 1_555
H6K_2 C10A_2 1_555 1_555
H7A_2 C11A_2 1_555 1_555
H8A_2 C11A_2 1_555 1_555
H8K_2 C11A_2 1_555 1_555
H9A_2 C12A_2 1_555 1_555
H10A_2 C12A_2 1_555 1_555
H11A_2 C12A_2 1_555 1_555
H12A_2 C13A_2 1_555 1_555
H13A_2 C13A_2 1_555 1_555
H14A_2 C13A_2 1_555 1_555
H15A_2 C14A_2 1_555 1_555
C9K_2 C7K_2 1_555 1_555
H3K_2 C7K_2 1_555 1_555
C15K_2 C9K_2 1_555 1_555
O4K_3 C15K_2 1_555 1_555
O7K_3 C15K_2 1_555 1_555
Zn1E_3 O4K_3 1_555 1_555
Co1E_4 O7K_3 1_555 1_555
O1B_2 Zn1J_2 1_555 1_555
O2B_2 Zn1B_2 1_555 1_555
O4H_2 Zn1B_2 1_555 1_555
C1B_2 O2B_2 1_555 1_555
O4B_2 C15B_2 1_555 1_555
C15B_2 O7B_3 1_555 1_555
Zn1H_3 O4B_2 1_555 1_555
O5B_2 Co1B_2 1_555 1_555
O6B_2 Co1B_2 1_555 1_555
O6J_2 Co1B_2 1_555 1_555
O7H_2 Co1B_2 1_555 1_555
C3B_2 C1B_2 1_555 1_555
O2J_2 Zn1J_2 1_555 1_555
C5B_2 O5B_2 1_555 1_555
C6B_2 O6B_2 1_555 1_555
O7B_3 Co1D_5 1_555 1_555
C7B_2 C3B_2 1_555 1_555
C7J_2 C3B_2 1_555 1_555
H1B_2 C5B_2 1_555 1_555
N1B_2 C5B_2 1_555 1_555
H2B_2 C6B_2 1_555 1_555
N2B_2 C6B_2 1_555 1_555
H3B_2 C7B_2 1_555 1_555
C9B_2 C15B_2 1_555 1_555
C10B_2 N1B_2 1_555 1_555
C11B_2 N1B_2 1_555 1_555
C12B_2 N2B_2 1_555 1_555
C13B_2 N2B_2 1_555 1_555
C14B_2 C9B_2 1_555 1_555
H5B_2 C10B_2 1_555 1_555
H6B_2 C10B_2 1_555 1_555
H6J_2 C10B_2 1_555 1_555
H7B_2 C11B_2 1_555 1_555
H8B_2 C11B_2 1_555 1_555
H8J_2 C11B_2 1_555 1_555
H9B_2 C12B_2 1_555 1_555
H10B_2 C12B_2 1_555 1_555
H11B_2 C12B_2 1_555 1_555
H12B_2 C13B_2 1_555 1_555
H13B_2 C13B_2 1_555 1_555
H14B_2 C13B_2 1_555 1_555
H15B_2 C14B_2 1_555 1_555
C9J_2 C7J_2 1_555 1_555
H3J_2 C7J_2 1_555 1_555
C15J_2 C9J_2 1_555 1_555
O4J_3 C15J_2 1_555 1_555
O7J_3 C15J_2 1_555 1_555
Zn1C_3 O4J_3 1_555 1_555
Co1C_5 O7J_3 1_555 1_555
Zn1E_4 O1E_2 1_555 1_555
O1E_2 Co1E_5 1_555 1_555
O2E_2 Zn1E_4 1_555 1_555
O3E_2 Zn1E_4 1_555 1_555
O4K_4 Zn1E_4 1_555 1_555
Co1E_5 O5E_2 1_555 1_555
Zn1G_4 O1E_2 1_555 1_555
C1E_2 O2E_2 1_555 1_555
C2E_2 O3E_2 1_555 1_555
O4E_2 Zn1K_2 1_555 1_555
C15E_2 O7E_2 1_555 1_555
O5E_2 C5E_2 1_555 1_555
O6E_2 Co1E_5 1_555 1_555
O6G_2 Co1E_5 1_555 1_555
O7_4 Co1E_5 1_555 1_555
O7K_4 Co1E_5 1_555 1_555
C3E_2 C1E_2 1_555 1_555
O2G_2 Zn1G_4 1_555 1_555
O8E_2 C2E_2 1_555 1_555
C4E_2 C2E_2 1_555 1_555
C5E_2 H1E_2 1_555 1_555
C6E_2 O6E_2 1_555 1_555
C7E_2 C3E_2 1_555 1_555
C7G_2 C3E_2 1_555 1_555
C8E_2 C4E_2 1_555 1_555
C8C_2 C4E_2 1_555 1_555
N1E_2 C5E_2 1_555 1_555
H2E_2 C6E_2 1_555 1_555
N2E_2 C6E_2 1_555 1_555
H3E_2 C7E_2 1_555 1_555
C9E_2 C15E_2 1_555 1_555
H4E_2 C8E_2 1_555 1_555
C4D_2 C8E_2 1_555 1_555
C10E_2 N1E_2 1_555 1_555
C11E_2 N1E_2 1_555 1_555
C12E_2 N2E_2 1_555 1_555
C13E_2 N2E_2 1_555 1_555
C14E_2 C9E_2 1_555 1_555
H5E_2 C10E_2 1_555 1_555
H6E_2 C10E_2 1_555 1_555
H6G_2 C10E_2 1_555 1_555
H7E_2 C11E_2 1_555 1_555
H8E_2 C11E_2 1_555 1_555
H8G_2 C11E_2 1_555 1_555
H9E_2 C12E_2 1_555 1_555
H10E_2 C12E_2 1_555 1_555
H11E_2 C12E_2 1_555 1_555
H12E_2 C13E_2 1_555 1_555
H13E_2 C13E_2 1_555 1_555
H14E_2 C13E_2 1_555 1_555
H15E_2 C14E_2 1_555 1_555
C9G_2 C7G_2 1_555 1_555
H3G_2 C7G_2 1_555 1_555
C15G_2 C9G_2 1_555 1_555
O4G_3 C15G_2 1_555 1_555
O7G_3 C15G_2 1_555 1_555
Zn1_3 O4G_3 1_555 1_555
Co1_4 O7G_3 1_555 1_555
O3C_2 C2C_2 1_555 1_555
C2C_2 O8C_2 1_555 1_555
Zn1C_4 O3C_2 1_555 1_555
C4C_2 C8C_2 1_555 1_555
C8D_2 C4D_2 1_555 1_555
H4C_2 C8C_2 1_555 1_555
O3D_2 C2D_2 1_555 1_555
C2D_2 C4D_2 1_555 1_555
Zn1D_4 O3D_2 1_555 1_555
O8D_2 C2D_2 1_555 1_555
H4D_2 C8D_2 1_555 1_555
O1C_2 Zn1C_4 1_555 1_555
O2C_2 Zn1C_4 1_555 1_555
O4J_4 Zn1C_4 1_555 1_555
Co1C_6 O1C_2 1_555 1_555
Zn1F_4 O1C_2 1_555 1_555
C1C_2 O2C_2 1_555 1_555
O4C_2 C15C_2 1_555 1_555
C15C_2 O7C_3 1_555 1_555
Zn1J_3 O4C_2 1_555 1_555
O5C_2 Co1C_6 1_555 1_555
O6C_2 Co1C_6 1_555 1_555
O6F_2 Co1C_6 1_555 1_555
O7A_4 Co1C_6 1_555 1_555
O7J_4 Co1C_6 1_555 1_555
C3C_2 C1C_2 1_555 1_555
O2F_2 Zn1F_4 1_555 1_555
C5C_2 O5C_2 1_555 1_555
C6C_2 O6C_2 1_555 1_555
O7C_3 Co1B_3 1_555 1_555
C7C_2 C3C_2 1_555 1_555
C7F_2 C3C_2 1_555 1_555
H1C_2 C5C_2 1_555 1_555
N1C_2 C5C_2 1_555 1_555
H2C_2 C6C_2 1_555 1_555
N2C_2 C6C_2 1_555 1_555
H3C_2 C7C_2 1_555 1_555
C9C_2 C15C_2 1_555 1_555
C10C_2 N1C_2 1_555 1_555
C11C_2 N1C_2 1_555 1_555
C12C_2 N2C_2 1_555 1_555
C13C_2 N2C_2 1_555 1_555
C14C_2 C9C_2 1_555 1_555
H5C_2 C10C_2 1_555 1_555
H6C_2 C10C_2 1_555 1_555
H6F_2 C10C_2 1_555 1_555
H7C_2 C11C_2 1_555 1_555
H8C_2 C11C_2 1_555 1_555
H8F_2 C11C_2 1_555 1_555
H9C_2 C12C_2 1_555 1_555
H10C_2 C12C_2 1_555 1_555
H11C_2 C12C_2 1_555 1_555
H12C_2 C13C_2 1_555 1_555
H13C_2 C13C_2 1_555 1_555
H14C_2 C13C_2 1_555 1_555
H15C_2 C14C_2 1_555 1_555
C9F_2 C7F_2 1_555 1_555
H3F_2 C7F_2 1_555 1_555
C15F_2 C9F_2 1_555 1_555
O4F_4 C15F_2 1_555 1_555
O7F_4 C15F_2 1_555 1_555
Zn1A_4 O4F_4 1_555 1_555
Co1A_4 O7F_4 1_555 1_555
O1D_2 Zn1D_4 1_555 1_555
O2D_2 Zn1D_4 1_555 1_555
O4I_4 Zn1D_4 1_555 1_555
Co1D_6 O1D_2 1_555 1_555
Zn1H_4 O1D_2 1_555 1_555
C1D_2 O2D_2 1_555 1_555
O4D_2 C15D_2 1_555 1_555
C15D_2 O7D_4 1_555 1_555
Zn1I_4 O4D_2 1_555 1_555
O5D_2 Co1D_6 1_555 1_555
O6D_2 Co1D_6 1_555 1_555
O6H_2 Co1D_6 1_555 1_555
O7B_4 Co1D_6 1_555 1_555
O7I_4 Co1D_6 1_555 1_555
C3D_2 C1D_2 1_555 1_555
O2H_2 Zn1H_4 1_555 1_555
C5D_2 O5D_2 1_555 1_555
C6D_2 O6D_2 1_555 1_555
O7D_4 Co1_5 1_555 1_555
C7D_2 C3D_2 1_555 1_555
C7H_2 C3D_2 1_555 1_555
H1D_2 C5D_2 1_555 1_555
N1D_2 C5D_2 1_555 1_555
H2D_2 C6D_2 1_555 1_555
N2D_2 C6D_2 1_555 1_555
H3D_2 C7D_2 1_555 1_555
C9D_2 C15D_2 1_555 1_555
C10D_2 N1D_2 1_555 1_555
C11D_2 N1D_2 1_555 1_555
C12D_2 N2D_2 1_555 1_555
C13D_2 N2D_2 1_555 1_555
C14D_2 C9D_2 1_555 1_555
H5D_2 C10D_2 1_555 1_555
H6D_2 C10D_2 1_555 1_555
H6H_2 C10D_2 1_555 1_555
H7D_2 C11D_2 1_555 1_555
H8D_2 C11D_2 1_555 1_555
H8H_2 C11D_2 1_555 1_555
H9D_2 C12D_2 1_555 1_555
H10D_2 C12D_2 1_555 1_555
H11D_2 C12D_2 1_555 1_555
H12D_2 C13D_2 1_555 1_555
H13D_2 C13D_2 1_555 1_555
H14D_2 C13D_2 1_555 1_555
H15D_2 C14D_2 1_555 1_555
C9H_2 C7H_2 1_555 1_555
H3H_2 C7H_2 1_555 1_555
C15H_2 O4H_2 1_555 1_555
C16A N3 1_555 1_555
C16B N3 1_555 1_555
O2I Zn1I 1_555 1_555
C7I C9I 1_555 1_555
C4A C8A 1_555 1_555
C2B C4B 1_555 1_555
C4B C8B 1_555 1_555
O2K Zn1K 1_555 1_555
C7K C9K 1_555 1_555
O2J Zn1J 1_555 1_555
C7J C9J 1_555 1_555
O7H C15H 1_555 1_555
C1E O2G 1_555 1_555
O4E C15E 1_555 1_555
C7E C9E 1_555 1_555
C14E C9G 1_555 1_555
Co1_2 O1_2 1_555 1_555
C2C C4C 1_555 1_555
C4C C8D 1_555 1_555
C1C O2F 1_555 1_555
C7C C9C 1_555 1_555
C14C C9F 1_555 1_555
C1D O2H 1_555 1_555
C7D C9D 1_555 1_555
C14D C9H 1_555 1_555
C9H C15H 1_555 1_555
C1_2 O2I_2 1_555 1_555
C7_2 C9_2 1_555 1_555
C14_2 C9I_2 1_555 1_555
C2A_2 C4A_2 1_555 1_555
C4A_2 C8B_2 1_555 1_555
Zn1B_2 O1B_2 1_555 1_555
C1A_2 O2K_2 1_555 1_555
C7A_2 C9A_2 1_555 1_555
C14A_2 C9K_2 1_555 1_555
C1B_2 O2J_2 1_555 1_555
O7H_2 C15H_2 1_555 1_555
C7B_2 C9B_2 1_555 1_555
C14B_2 C9J_2 1_555 1_555
C1E_2 O2G_2 1_555 1_555
O4E_2 C15E_2 1_555 1_555
C7E_2 C9E_2 1_555 1_555
C14E_2 C9G_2 1_555 1_555
C2C_2 C4C_2 1_555 1_555
C4C_2 C8D_2 1_555 1_555
C1C_2 O2F_2 1_555 1_555
C7C_2 C9C_2 1_555 1_555
C14C_2 C9F_2 1_555 1_555
C1D_2 O2H_2 1_555 1_555
C7D_2 C9D_2 1_555 1_555
C14D_2 C9H_2 1_555 1_555
C9H_2 C15H_2 1_555 1_555

#END
