
#######################################################################
#
#                 Cambridge Crystallographic Data Centre
#                                CCDC 
#
#######################################################################
#
# If this CIF has been generated from an entry in the Cambridge 
# Structural Database, then it will include bibliographic, chemical, 
# crystal, experimental, refinement or atomic coordinate data resulting 
# from the CCDC's data processing and validation procedures.
#
#######################################################################

data_CISLUN
_chemical_formula_moiety         '(C30 H30 Cu3 N28 O2)n'
_symmetry_cell_setting           monoclinic
_symmetry_space_group_name_H-M   'P 21/c'
_symmetry_Int_Tables_number      14
_space_group_name_Hall           '-P 2ybc'
loop_
_symmetry_equiv_pos_site_id
_symmetry_equiv_pos_as_xyz
1 x,y,z
2 -x,1/2+y,1/2-z
3 -x,-y,-z
4 x,1/2-y,1/2+z
_cell_length_a                   12.9517(17)
_cell_length_b                   14.733(2)
_cell_length_c                   20.052(3)
_cell_angle_alpha                90
_cell_angle_beta                 129.256(8)
_cell_angle_gamma                90
_cell_volume                     2962.78
loop_
_atom_site_label
_atom_site_type_symbol
_atom_site_fract_x
_atom_site_fract_y
_atom_site_fract_z
Cu1 Cu 0.5000 0.0000 0.5000
Cu2 Cu 0.61344(5) 0.20816(3) 0.59763(3)
O1 O 0.4623(4) 0.3401(3) 0.5022(2)
N1 N 0.5541(3) 0.0958(2) 0.4561(2)
N2 N 0.6047(3) 0.1751(2) 0.4960(2)
N3 N 0.6284(3) 0.2265(2) 0.4538(2)
N4 N 0.5444(3) 0.0927(2) 0.3864(2)
N5 N 0.6096(3) 0.2552(2) 0.1928(2)
N6 N 0.7505(3) 0.0675(2) 0.6686(2)
N7 N 0.6861(3) -0.0022(2) 0.6137(2)
N8 N 0.7666(3) -0.0733(2) 0.6397(2)
N9 N 0.8740(3) 0.0412(2) 0.7325(2)
N10 N 0.4613(3) 0.1264(2) 0.5503(2)
N11 N 0.3709(5) 0.1433(3) 0.5482(3)
N12 N 1.2255(3) -0.2124(2) 0.8496(2)
N13 N 0.2818(7) 0.1579(6) 0.5454(6)
N14 N 0.3335(5) 0.3603(4) 0.3572(3)
C1 C 0.5901(4) 0.1740(3) 0.3871(3)
C2 C 0.5969(4) 0.2012(3) 0.3190(3)
C3 C 0.6381(5) 0.2894(3) 0.3186(3)
H1 H 0.6628 0.3308 0.3615
C4 C 0.5666(5) 0.1713(3) 0.1908(3)
H2 H 0.5407 0.1319 0.1463
C5 C 0.8826(4) -0.0438(3) 0.7128(3)
C6 C 1.0018(4) -0.1008(3) 0.7616(3)
C7 C 1.1128(4) -0.0818(3) 0.8452(3)
H3 H 1.1139 -0.0311 0.8733
C8 C 0.6410(5) 0.3132(3) 0.2537(3)
H4 H 0.6657 0.3720 0.2523
C9 C 0.5604(5) 0.1426(3) 0.2542(3)
H5 H 0.5318 0.0841 0.2527
C10 C 1.0041(4) -0.1784(3) 0.7225(3)
H6 H 0.9310 -0.1931 0.6662
C11 C 1.1158(4) -0.2329(3) 0.7682(3)
H7 H 1.1160 -0.2853 0.7424
C12 C 1.2218(4) -0.1384(3) 0.8868(3)
H8 H 1.2961 -0.1246 0.9430
C13 C 0.3928(9) 0.4431(5) 0.3604(6)
H9 H 0.4140 0.4794 0.4074
H10 H 0.3315 0.4756 0.3074
H11 H 0.4728 0.4303 0.3686
C14 C 0.2402(9) 0.3204(9) 0.2724(5)
H12 H 0.2289 0.2571 0.2780
H13 H 0.2739 0.3267 0.2417
H14 H 0.1558 0.3508 0.2414
C15 C 0.3772(6) 0.3122(5) 0.4279(5)
H15 H 0.3413 0.2548 0.4203
Cu2B Cu 0.38656(5) -0.20816(3) 0.40237(3)
O1B O 0.5377(4) -0.3401(3) 0.4978(2)
N1B N 0.4459(3) -0.0958(2) 0.5439(2)
N2B N 0.3953(3) -0.1751(2) 0.5040(2)
N3B N 0.3716(3) -0.2265(2) 0.5462(2)
N4B N 0.4556(3) -0.0927(2) 0.6136(2)
N5B N 0.3904(3) -0.2552(2) 0.8072(2)
N6B N 0.2495(3) -0.0675(2) 0.3314(2)
N7B N 0.3139(3) 0.0022(2) 0.3863(2)
N8B N 0.2334(3) 0.0733(2) 0.3603(2)
N9B N 0.1260(3) -0.0412(2) 0.2675(2)
N10B N 0.5387(3) -0.1264(2) 0.4497(2)
N11B N 0.6291(5) -0.1433(3) 0.4518(3)
N12B N -0.2255(3) 0.2124(2) 0.1504(2)
N13B N 0.7182(7) -0.1579(6) 0.4546(6)
N14B N 0.6665(5) -0.3603(4) 0.6428(3)
C1B C 0.4099(4) -0.1740(3) 0.6129(3)
C2B C 0.4031(4) -0.2012(3) 0.6810(3)
C3B C 0.3619(5) -0.2894(3) 0.6814(3)
H1B H 0.3372 -0.3308 0.6385
C4B C 0.4334(5) -0.1713(3) 0.8092(3)
H2B H 0.4593 -0.1319 0.8537
C5B C 0.1174(4) 0.0438(3) 0.2872(3)
C6B C -0.0018(4) 0.1008(3) 0.2384(3)
C7B C -0.1128(4) 0.0818(3) 0.1548(3)
H3B H -0.1139 0.0311 0.1267
C8B C 0.3590(5) -0.3132(3) 0.7463(3)
H4B H 0.3343 -0.3720 0.7477
C9B C 0.4396(5) -0.1426(3) 0.7458(3)
H5B H 0.4682 -0.0841 0.7473
C10B C -0.0041(4) 0.1784(3) 0.2775(3)
H6B H 0.0690 0.1931 0.3338
C11B C -0.1158(4) 0.2329(3) 0.2318(3)
H7B H -0.1160 0.2853 0.2576
C12B C -0.2218(4) 0.1384(3) 0.1132(3)
H8B H -0.2961 0.1246 0.0570
C13B C 0.6072(9) -0.4431(5) 0.6396(6)
H9B H 0.5860 -0.4794 0.5926
H10B H 0.6685 -0.4756 0.6926
H11B H 0.5272 -0.4303 0.6314
C14B C 0.7598(9) -0.3204(9) 0.7276(5)
H12B H 0.7711 -0.2571 0.7220
H13B H 0.7261 -0.3267 0.7583
H14B H 0.8442 -0.3508 0.7586
C15B C 0.6228(6) -0.3122(5) 0.5721(5)
H15B H 0.6587 -0.2548 0.5797
Cu2A Cu 0.38656(5) -0.29184(3) 0.90237(3)
Cu2A_2 Cu 1.38656(5) -0.29184(3) 0.90237(3)
Cu2C Cu -0.38656(5) 0.29184(3) 0.09763(3)
Cu2C_2 Cu 0.61344(5) 0.29184(3) 0.09763(3)
N5A N 0.3904(3) -0.2448(2) 0.3072(2)
N5C N 0.6096(3) 0.2448(2) 0.6928(2)
N12A N 0.7745(3) 0.2876(2) 0.6504(2)
N12C N 0.2255(3) -0.2876(2) 0.3496(2)
loop_
_geom_bond_atom_site_label_1
_geom_bond_atom_site_label_2
_geom_bond_site_symmetry_1
_geom_bond_site_symmetry_2
Cu1 N1 1_555 1_555
Cu2 O1 1_555 1_555
O1 C15 1_555 1_555
N1 N2 1_555 1_555
N2 Cu2 1_555 1_555
N3 N2 1_555 1_555
N4 N1 1_555 1_555
N5 C4 1_555 1_555
N6 Cu2 1_555 1_555
N7 Cu1 1_555 1_555
N8 N7 1_555 1_555
N9 N6 1_555 1_555
N10 Cu1 1_555 1_555
N11 N10 1_555 1_555
N12 C11 1_555 1_555
N13 N11 1_555 1_555
N14 C13 1_555 1_555
C1 N3 1_555 1_555
C2 C1 1_555 1_555
C3 C2 1_555 1_555
H1 C3 1_555 1_555
C4 H2 1_555 1_555
C5 N8 1_555 1_555
C6 C5 1_555 1_555
C7 C6 1_555 1_555
H3 C7 1_555 1_555
C8 N5 1_555 1_555
H4 C8 1_555 1_555
C9 C2 1_555 1_555
H5 C9 1_555 1_555
C10 C6 1_555 1_555
H6 C10 1_555 1_555
C11 C10 1_555 1_555
H7 C11 1_555 1_555
C12 N12 1_555 1_555
H8 C12 1_555 1_555
C13 H9 1_555 1_555
H10 C13 1_555 1_555
H11 C13 1_555 1_555
C14 N14 1_555 1_555
H12 C14 1_555 1_555
H13 C14 1_555 1_555
H14 C14 1_555 1_555
C15 N14 1_555 1_555
H15 C15 1_555 1_555
Cu2B O1B 1_555 1_555
O1B C15B 1_555 1_555
N1B Cu1 1_555 1_555
N2B Cu2B 1_555 1_555
N3B N2B 1_555 1_555
N4B N1B 1_555 1_555
N5B C4B 1_555 1_555
N6B Cu2B 1_555 1_555
N7B Cu1 1_555 1_555
N8B N7B 1_555 1_555
N9B N6B 1_555 1_555
N10B Cu1 1_555 1_555
N11B N10B 1_555 1_555
N12B C11B 1_555 1_555
N13B N11B 1_555 1_555
N14B C13B 1_555 1_555
C1B N3B 1_555 1_555
C2B C1B 1_555 1_555
C3B C2B 1_555 1_555
H1B C3B 1_555 1_555
C4B H2B 1_555 1_555
C5B N8B 1_555 1_555
C6B C5B 1_555 1_555
C7B C6B 1_555 1_555
H3B C7B 1_555 1_555
C8B N5B 1_555 1_555
H4B C8B 1_555 1_555
C9B C2B 1_555 1_555
H5B C9B 1_555 1_555
C10B C6B 1_555 1_555
H6B C10B 1_555 1_555
C11B C10B 1_555 1_555
H7B C11B 1_555 1_555
C12B N12B 1_555 1_555
H8B C12B 1_555 1_555
C13B H9B 1_555 1_555
H10B C13B 1_555 1_555
H11B C13B 1_555 1_555
C14B N14B 1_555 1_555
H12B C14B 1_555 1_555
H13B C14B 1_555 1_555
H14B C14B 1_555 1_555
C15B N14B 1_555 1_555
H15B C15B 1_555 1_555
Cu2A N5B 1_555 1_555
Cu2A_2 N12 1_555 1_555
Cu2C N12B 1_555 1_555
Cu2C_2 N5 1_555 1_555
N5A Cu2B 1_555 1_555
N5C Cu2 1_555 1_555
N12A Cu2 1_555 1_555
N12C Cu2B 1_555 1_555
Cu2 N10 1_555 1_555
N4 C1 1_555 1_555
N6 N7 1_555 1_555
N9 C5 1_555 1_555
C3 C8 1_555 1_555
C4 C9 1_555 1_555
C7 C12 1_555 1_555
Cu2B N10B 1_555 1_555
N1B N2B 1_555 1_555
N4B C1B 1_555 1_555
N6B N7B 1_555 1_555
N9B C5B 1_555 1_555
C3B C8B 1_555 1_555
C4B C9B 1_555 1_555
C7B C12B 1_555 1_555

#END
