
#######################################################################
#
#                 Cambridge Crystallographic Data Centre
#                                CCDC 
#
#######################################################################
#
# If this CIF has been generated from an entry in the Cambridge 
# Structural Database, then it will include bibliographic, chemical, 
# crystal, experimental, refinement or atomic coordinate data resulting 
# from the CCDC's data processing and validation procedures.
#
#######################################################################

data_RAZXIA03
_chemical_formula_moiety         '(C12 H15 Co3 K1 O17)n'
_symmetry_cell_setting           tetragonal
_symmetry_space_group_name_H-M   'I -4 2 d'
_symmetry_Int_Tables_number      122
_space_group_name_Hall           'I -4 2bw'
loop_
_symmetry_equiv_pos_site_id
_symmetry_equiv_pos_as_xyz
1 x,y,z
2 1/2+x,1/2+y,1/2+z
3 y,-x,-z
4 1/2+y,1/2-x,1/2-z
5 -x,-y,z
6 1/2-x,1/2-y,1/2+z
7 -y,x,-z
8 1/2-y,1/2+x,1/2-z
9 1/2-x,y,3/4-z
10 -x,1/2+y,1/4-z
11 1/2-y,-x,3/4+z
12 -y,1/2-x,1/4+z
13 1/2+x,-y,3/4-z
14 x,1/2-y,1/4-z
15 1/2+y,x,3/4+z
16 y,1/2+x,1/4+z
_cell_length_a                   12.8201(5)
_cell_length_b                   12.8201(5)
_cell_length_c                   30.2685(12)
_cell_angle_alpha                90
_cell_angle_beta                 90
_cell_angle_gamma                90
_cell_volume                     4974.78
loop_
_atom_site_label
_atom_site_type_symbol
_atom_site_fract_x
_atom_site_fract_y
_atom_site_fract_z
_atom_site_U_iso_or_equiv
_atom_site_thermal_displace_type
Co1 Co 0.89500(12) 0.94950(12) 0.45963(4) 0.0200 Uani
Co2 Co 1.0000 1.0000 0.30855(5) 0.0285 Uani
K1 K 0.7500 0.8314(4) 0.3750 0.0418 Uani
C1 C 1.1071(8) 0.9156(10) 0.3782(3) 0.0207 Uani
C2 C 1.1503(11) 0.8340(10) 0.4087(3) 0.0270 Uani
C3 C 1.0813(10) 0.8072(9) 0.4490(3) 0.0260 Uani
C4 C 1.1463(10) 0.7320(9) 0.4765(3) 0.0253 Uani
C5 C 1.0853(9) 0.6805(9) 0.5135(3) 0.0193 Uani
C6 C 0.9807(11) 0.7511(10) 0.4330(3) 0.0297 Uani
O1 O 1.1110(6) 1.0101(6) 0.39072(18) 0.0220 Uani
O2 O 1.0711(7) 0.8886(7) 0.3417(2) 0.0323 Uani
O3 O 1.0558(6) 0.9002(6) 0.47109(18) 0.0223 Uani
O4 O 0.8948(7) 0.7971(7) 0.4382(2) 0.0260 Uani
O5 O 0.9919(9) 0.6659(8) 0.4155(3) 0.0493 Uani
O6 O 1.0396(7) 0.7345(6) 0.5421(2) 0.0327 Uani
O7 O 1.0821(8) 0.5813(6) 0.5148(2) 0.0363 Uani
H1 H 1.2158 0.8580 0.4193 0.0364 Uiso
H2 H 1.1602 0.7720 0.3920 0.0364 Uiso
H3 H 1.2020 0.7705 0.4893 0.0339 Uiso
H4 H 1.1738 0.6793 0.4578 0.0339 Uiso
O8 O 0.603(4) 0.708(3) 0.4238(12) 0.1090 Uiso
Co1B Co 0.94950(12) 1.10500(12) 0.54037(4) 0.0200 Uani
C1B C 0.9156(10) 0.8929(8) 0.6218(3) 0.0207 Uani
C2B C 0.8340(10) 0.8497(11) 0.5913(3) 0.0270 Uani
C3B C 0.8072(9) 0.9187(10) 0.5510(3) 0.0260 Uani
C4B C 0.7320(9) 0.8537(10) 0.5235(3) 0.0253 Uani
C5B C 0.6805(9) 0.9147(9) 0.4865(3) 0.0193 Uani
C6B C 0.7511(10) 1.0193(11) 0.5670(3) 0.0297 Uani
O1B O 1.0101(6) 0.8890(6) 0.60928(18) 0.0220 Uani
O2B O 0.8886(7) 0.9289(7) 0.6583(2) 0.0323 Uani
O3B O 0.9002(6) 0.9442(6) 0.52891(18) 0.0223 Uani
O4B O 0.7971(7) 1.1052(7) 0.5618(2) 0.0260 Uani
O5B O 0.6659(8) 1.0081(9) 0.5845(3) 0.0493 Uani
O6B O 0.7345(6) 0.9604(7) 0.4579(2) 0.0327 Uani
O7B O 0.5813(6) 0.9179(8) 0.4852(2) 0.0363 Uani
H1B H 0.8580 0.7842 0.5807 0.0364 Uiso
H2B H 0.7720 0.8398 0.6080 0.0364 Uiso
H3B H 0.7705 0.7980 0.5107 0.0339 Uiso
H4B H 0.6793 0.8262 0.5422 0.0339 Uiso
O8H O 0.897(4) 0.708(3) 0.3262(12) 0.1090 Uiso
Co1D Co 1.10500(12) 1.05050(12) 0.45963(4) 0.0200 Uani
Co1F Co 1.05050(12) 0.89500(12) 0.54037(4) 0.0200 Uani
Co2B Co 1.0000 1.0000 0.69145(5) 0.0285 Uani
Co2H Co 0.5000 1.0000 0.44145(5) 0.0285 Uani
Co2K Co 1.0000 0.5000 0.55855(5) 0.0285 Uani
K1B K 0.8314(4) 1.2500 0.6250 0.0418 Uani
K1D K 1.2500 1.1686(4) 0.3750 0.0418 Uani
K1F K 1.1686(4) 0.7500 0.6250 0.0418 Uani
O1D O 0.8890(6) 0.9899(6) 0.39072(18) 0.0220 Uani
O1F O 0.9899(6) 1.1110(6) 0.60928(18) 0.0220 Uani
O1L O 0.6110(6) 0.9899(6) 0.35928(18) 0.0220 Uani
O2D O 0.9289(7) 1.1114(7) 0.3417(2) 0.0323 Uani
O3D O 0.9442(6) 1.0998(6) 0.47109(18) 0.0223 Uani
O3F O 1.0998(6) 1.0558(6) 0.52891(18) 0.0223 Uani
O4H O 0.6052(7) 0.7971(7) 0.3118(2) 0.0260 Uani
O6D O 0.9604(7) 1.2655(6) 0.5421(2) 0.0327 Uani
O6J O 0.7655(6) 0.9604(7) 0.2921(2) 0.0327 Uani
O7J O 0.9187(6) 0.9179(8) 0.2648(2) 0.0363 Uani
O7N O 1.0813(6) 1.0821(8) 0.2648(2) 0.0363 Uani
O11 O 1.184(2) 0.439(3) 0.4602(10) 0.1250 Uiso
loop_
_atom_site_aniso_label
_atom_site_aniso_U_11
_atom_site_aniso_U_22
_atom_site_aniso_U_33
_atom_site_aniso_U_23
_atom_site_aniso_U_13
_atom_site_aniso_U_12
Co1 0.0210(9) 0.0228(9) 0.0162(6) -0.0003(5) 0.0001(5) 0.0002(9)
Co2 0.0256(14) 0.0426(15) 0.0174(10) 0.0000 0.0000 -0.0037(14)
K1 0.044(3) 0.043(3) 0.0383(18) 0.0000 -0.0194(17) 0.0000
C1 0.008(6) 0.027(4) 0.027(3) 0.003(3) 0.001(3) -0.005(5)
C2 0.033(6) 0.024(5) 0.024(4) 0.002(3) 0.001(3) -0.001(5)
C3 0.026(5) 0.023(5) 0.029(4) 0.001(2) 0.001(3) -0.001(4)
C4 0.036(6) 0.020(5) 0.020(4) 0.001(3) 0.000(3) -0.004(4)
C5 0.016(7) 0.013(3) 0.029(4) 0.003(3) -0.001(3) 0.002(5)
C6 0.031(4) 0.024(5) 0.034(5) -0.003(4) -0.003(3) -0.002(3)
O1 0.020(4) 0.026(3) 0.020(3) 0.006(2) 0.004(3) -0.002(5)
O2 0.048(6) 0.029(5) 0.020(3) -0.002(3) 0.000(3) 0.004(5)
O3 0.034(5) 0.023(4) 0.010(3) 0.004(2) -0.001(3) -0.004(4)
O4 0.027(4) 0.028(5) 0.023(3) -0.004(3) -0.005(3) -0.005(4)
O5 0.036(6) 0.032(5) 0.080(6) -0.021(4) 0.001(5) -0.001(5)
O6 0.049(6) 0.022(4) 0.027(3) -0.003(3) 0.007(3) 0.002(5)
O7 0.056(6) 0.013(3) 0.040(4) 0.001(3) 0.013(4) -0.003(4)
Co1B 0.0228 0.021 0.0162 0.0001 0.0003 -0.0002
C1B 0.027 0.008 0.027 0.001 -0.003 0.005
C2B 0.024 0.033 0.024 0.001 -0.002 0.001
C3B 0.023 0.026 0.029 0.001 -0.001 0.001
C4B 0.02 0.036 0.02 0 -0.001 0.004
C5B 0.013 0.016 0.029 -0.001 -0.003 -0.002
C6B 0.024 0.031 0.034 -0.003 0.003 0.002
O1B 0.026 0.02 0.02 0.004 -0.006 0.002
O2B 0.029 0.048 0.02 0 0.002 -0.004
O3B 0.023 0.034 0.01 -0.001 -0.004 0.004
O4B 0.028 0.027 0.023 -0.005 0.004 0.005
O5B 0.032 0.036 0.08 0.001 0.021 0.001
O6B 0.022 0.049 0.027 0.007 0.003 -0.002
O7B 0.013 0.056 0.04 0.013 -0.001 0.003
Co1D 0.021 0.0228 0.0162 0.0003 -0.0001 0.0002
Co1F 0.0228 0.021 0.0162 -0.0001 -0.0003 -0.0002
Co2B 0.0426 0.0256 0.0174 0 0 0.0037
Co2H 0.0256 0.0426 0.0174 0 0 0.0037
Co2K 0.0426 0.0256 0.0174 0 0 -0.0037
K1B 0.043 0.044 0.0383 -0.0194 0 0
K1D 0.044 0.043 0.0383 0 0.0194 0
K1F 0.043 0.044 0.0383 0.0194 0 0
O1D 0.02 0.026 0.02 -0.006 -0.004 -0.002
O1F 0.026 0.02 0.02 -0.004 0.006 0.002
O1L 0.02 0.026 0.02 0.006 -0.004 0.002
O2D 0.048 0.029 0.02 0.002 0 0.004
O3D 0.034 0.023 0.01 -0.004 0.001 -0.004
O3F 0.023 0.034 0.01 0.001 0.004 0.004
O4H 0.027 0.028 0.023 0.004 -0.005 0.005
O6D 0.049 0.022 0.027 0.003 -0.007 0.002
O6J 0.022 0.049 0.027 -0.007 0.003 0.002
O7J 0.013 0.056 0.04 -0.013 -0.001 -0.003
O7N 0.013 0.056 0.04 0.013 0.001 -0.003
loop_
_geom_bond_atom_site_label_1
_geom_bond_atom_site_label_2
_geom_bond_site_symmetry_1
_geom_bond_site_symmetry_2
Co1 O3 1_555 1_555
Co2 O2 1_555 1_555
K1 O4 1_555 1_555
C1 C2 1_555 1_555
C2 C3 1_555 1_555
C3 C4 1_555 1_555
C4 C5 1_555 1_555
C5 O6 1_555 1_555
C6 C3 1_555 1_555
O1 C1 1_555 1_555
O2 C1 1_555 1_555
O3 C3 1_555 1_555
O4 Co1 1_555 1_555
O5 C6 1_555 1_555
O6 Co1F 1_555 1_555
O7 C5 1_555 1_555
H1 C2 1_555 1_555
H2 C2 1_555 1_555
H3 C4 1_555 1_555
H4 C4 1_555 1_555
O8 K1 1_555 1_555
Co1B O3B 1_555 1_555
C1B C2B 1_555 1_555
C2B C3B 1_555 1_555
C3B C4B 1_555 1_555
C4B C5B 1_555 1_555
C5B O6B 1_555 1_555
C6B C3B 1_555 1_555
O1B C1B 1_555 1_555
O2B C1B 1_555 1_555
O3B Co1 1_555 1_555
O4B Co1B 1_555 1_555
O5B C6B 1_555 1_555
O6B Co1 1_555 1_555
O7B C5B 1_555 1_555
H1B C2B 1_555 1_555
H2B C2B 1_555 1_555
H3B C4B 1_555 1_555
H4B C4B 1_555 1_555
O8H K1 1_555 1_555
Co1D Co1 1_555 1_555
Co1F O3 1_555 1_555
Co2B O2B 1_555 1_555
Co2H O7B 1_555 1_555
Co2K O7 1_555 1_555
K1B O4B 1_555 1_555
K1D O1 1_555 1_555
K1F O6 1_555 1_555
O1D Co1 1_555 1_555
O1F Co1B 1_555 1_555
O1L K1 1_555 1_555
O2D Co2 1_555 1_555
O3D Co1 1_555 1_555
O3F Co1B 1_555 1_555
O4H K1 1_555 1_555
O6D Co1B 1_555 1_555
O6J K1 1_555 1_555
O7J Co2 1_555 1_555
O7N Co2 1_555 1_555
K1 O6B 1_555 1_555
K1 O1D 1_555 1_555
C6 O4 1_555 1_555
O1 Co1D 1_555 1_555
O3 Co1D 1_555 1_555
Co1B Co1F 1_555 1_555
Co1B O3D 1_555 1_555
C3B O3B 1_555 1_555
C6B O4B 1_555 1_555
O1B Co1F 1_555 1_555
O1B K1F 1_555 1_555
O3B Co1F 1_555 1_555
Co1D O3D 1_555 1_555
Co1D O3F 1_555 1_555
Co1F O3F 1_555 1_555
K1B O1F 1_555 1_555
K1B O6D 1_555 1_555

#END
