
#######################################################################
#
#                 Cambridge Crystallographic Data Centre
#                                CCDC 
#
#######################################################################
#
# If this CIF has been generated from an entry in the Cambridge 
# Structural Database, then it will include bibliographic, chemical, 
# crystal, experimental, refinement or atomic coordinate data resulting 
# from the CCDC's data processing and validation procedures.
#
#######################################################################

data_RAZXIA02
_chemical_formula_moiety         '(C12 H15 Co3 K1 O17)n'
_symmetry_cell_setting           tetragonal
_symmetry_space_group_name_H-M   'I -4 2 d'
_symmetry_Int_Tables_number      122
_space_group_name_Hall           'I -4 2bw'
loop_
_symmetry_equiv_pos_site_id
_symmetry_equiv_pos_as_xyz
1 x,y,z
2 1/2+x,1/2+y,1/2+z
3 y,-x,-z
4 1/2+y,1/2-x,1/2-z
5 -x,-y,z
6 1/2-x,1/2-y,1/2+z
7 -y,x,-z
8 1/2-y,1/2+x,1/2-z
9 1/2-x,y,3/4-z
10 -x,1/2+y,1/4-z
11 1/2-y,-x,3/4+z
12 -y,1/2-x,1/4+z
13 1/2+x,-y,3/4-z
14 x,1/2-y,1/4-z
15 1/2+y,x,3/4+z
16 y,1/2+x,1/4+z
_cell_length_a                   13.0005(5)
_cell_length_b                   13.0005(5)
_cell_length_c                   30.2002(11)
_cell_angle_alpha                90
_cell_angle_beta                 90
_cell_angle_gamma                90
_cell_volume                     5104.23
loop_
_atom_site_label
_atom_site_type_symbol
_atom_site_fract_x
_atom_site_fract_y
_atom_site_fract_z
_atom_site_U_iso_or_equiv
_atom_site_thermal_displace_type
Co1 Co 0.89540(11) 0.95131(11) 0.45964(3) 0.0203 Uani
Co2 Co 1.0000 1.0000 0.30781(5) 0.0275 Uani
K1 K 0.7500 0.8369(3) 0.3750 0.0438 Uani
C1 C 1.1065(8) 0.9159(8) 0.3783(3) 0.0207 Uani
C2 C 1.1502(9) 0.8328(9) 0.4082(3) 0.0287 Uani
C3 C 1.0771(8) 0.8090(8) 0.4483(3) 0.0243 Uani
C4 C 1.1400(9) 0.7335(9) 0.4767(3) 0.0270 Uani
C5 C 1.0801(8) 0.6841(9) 0.5135(2) 0.0207 Uani
C6 C 0.9785(9) 0.7557(9) 0.4314(3) 0.0280 Uani
O1 O 1.1096(6) 1.0093(6) 0.39071(16) 0.0253 Uani
O2 O 1.0697(6) 0.8893(6) 0.34092(18) 0.0303 Uani
O3 O 1.0543(6) 0.9011(5) 0.47128(16) 0.0243 Uani
O4 O 0.8952(6) 0.8011(6) 0.43768(19) 0.0240 Uani
O5 O 0.9907(8) 0.6714(7) 0.4144(3) 0.0550 Uani
O6 O 1.0373(6) 0.7368(6) 0.54193(18) 0.0327 Uani
O7 O 1.0753(7) 0.5848(6) 0.5143(2) 0.0417 Uani
H1 H 1.2171 0.8561 0.4192 0.0284 Uiso
H2 H 1.1581 0.7701 0.3916 0.0278 Uiso
H3 H 1.1946 0.7726 0.4899 0.0280 Uiso
H4 H 1.1697 0.6810 0.4586 0.0281 Uiso
O8 O 0.623(2) 0.6903(19) 0.4175(8) 0.1760 Uiso
Co1B Co 0.95131(11) 1.10460(11) 0.54036(3) 0.0203 Uani
C1B C 0.9159(8) 0.8935(8) 0.6217(3) 0.0207 Uani
C2B C 0.8328(9) 0.8498(9) 0.5918(3) 0.0287 Uani
C3B C 0.8090(8) 0.9229(8) 0.5517(3) 0.0243 Uani
C4B C 0.7335(9) 0.8600(9) 0.5233(3) 0.0270 Uani
C5B C 0.6841(9) 0.9199(8) 0.4865(2) 0.0207 Uani
C6B C 0.7557(9) 1.0215(9) 0.5686(3) 0.0280 Uani
O1B O 1.0093(6) 0.8904(6) 0.60929(16) 0.0253 Uani
O2B O 0.8893(6) 0.9303(6) 0.65908(18) 0.0303 Uani
O3B O 0.9011(5) 0.9457(6) 0.52872(16) 0.0243 Uani
O4B O 0.8011(6) 1.1048(6) 0.56232(19) 0.0240 Uani
O5B O 0.6714(7) 1.0093(8) 0.5856(3) 0.0550 Uani
O6B O 0.7368(6) 0.9627(6) 0.45807(18) 0.0327 Uani
O7B O 0.5848(6) 0.9247(7) 0.4857(2) 0.0417 Uani
H1B H 0.8561 0.7829 0.5808 0.0284 Uiso
H2B H 0.7701 0.8419 0.6084 0.0278 Uiso
H3B H 0.7726 0.8054 0.5101 0.0280 Uiso
H4B H 0.6810 0.8303 0.5414 0.0281 Uiso
O8H O 0.877(2) 0.6903(19) 0.3325(8) 0.1760 Uiso
Co1D Co 1.10460(11) 1.04869(11) 0.45964(3) 0.0203 Uani
Co1F Co 1.04869(11) 0.89540(11) 0.54036(3) 0.0203 Uani
Co2B Co 1.0000 1.0000 0.69219(5) 0.0275 Uani
Co2H Co 0.5000 1.0000 0.44219(5) 0.0275 Uani
Co2K Co 1.0000 0.5000 0.55781(5) 0.0275 Uani
K1B K 0.8369(3) 1.2500 0.6250 0.0438 Uani
K1D K 1.2500 1.1631(3) 0.3750 0.0438 Uani
K1F K 1.1631(3) 0.7500 0.6250 0.0438 Uani
O1D O 0.8904(6) 0.9907(6) 0.39071(16) 0.0253 Uani
O1F O 0.9907(6) 1.1096(6) 0.60929(16) 0.0253 Uani
O1L O 0.6096(6) 0.9907(6) 0.35929(16) 0.0253 Uani
O2D O 0.9303(6) 1.1107(6) 0.34092(18) 0.0303 Uani
O3D O 0.9457(6) 1.0989(5) 0.47128(16) 0.0243 Uani
O3F O 1.0989(5) 1.0543(6) 0.52872(16) 0.0243 Uani
O4H O 0.6048(6) 0.8011(6) 0.31232(19) 0.0240 Uani
O6D O 0.9627(6) 1.2632(6) 0.54193(18) 0.0327 Uani
O6J O 0.7632(6) 0.9627(6) 0.29193(18) 0.0327 Uani
O7J O 0.9152(6) 0.9247(7) 0.2643(2) 0.0417 Uani
O7N O 1.0848(6) 1.0753(7) 0.2643(2) 0.0417 Uani
O9 O 1.178(2) 0.453(3) 0.4493(9) 0.1128 Uiso
loop_
_atom_site_aniso_label
_atom_site_aniso_U_11
_atom_site_aniso_U_22
_atom_site_aniso_U_33
_atom_site_aniso_U_23
_atom_site_aniso_U_13
_atom_site_aniso_U_12
Co1 0.0210(8) 0.0228(8) 0.0172(5) 0.0002(5) -0.0003(4) -0.0007(8)
Co2 0.0229(13) 0.0402(14) 0.0194(8) 0.0000 0.0000 -0.0018(12)
K1 0.046(3) 0.044(3) 0.0414(17) 0.0000 -0.0193(15) 0.0000
C1 0.006(5) 0.028(3) 0.028(3) 0.002(2) 0.000(3) -0.003(5)
C2 0.031(5) 0.035(5) 0.020(3) 0.003(3) 0.003(3) 0.005(5)
C3 0.025(4) 0.026(4) 0.022(4) 0.001(2) 0.002(2) 0.005(3)
C4 0.034(6) 0.026(5) 0.021(3) 0.003(3) 0.002(3) 0.005(4)
C5 0.017(6) 0.022(3) 0.023(4) 0.002(2) -0.004(3) 0.003(4)
C6 0.030(3) 0.034(5) 0.020(4) -0.007(3) 0.001(3) 0.003(3)
O1 0.026(4) 0.028(3) 0.022(3) 0.004(2) 0.002(2) -0.010(4)
O2 0.037(5) 0.031(4) 0.023(2) -0.004(2) -0.001(2) 0.008(4)
O3 0.033(4) 0.024(3) 0.016(2) 0.002(2) 0.001(2) -0.002(4)
O4 0.026(3) 0.019(4) 0.027(3) -0.006(2) -0.004(3) -0.003(4)
O5 0.036(6) 0.047(5) 0.082(5) -0.034(4) -0.011(5) 0.013(5)
O6 0.047(5) 0.025(4) 0.026(3) -0.001(2) 0.008(3) 0.001(4)
O7 0.071(6) 0.022(3) 0.032(3) 0.002(3) 0.017(3) 0.003(4)
Co1B 0.0228 0.021 0.0172 -0.0003 -0.0002 0.0007
C1B 0.028 0.006 0.028 0 -0.002 0.003
C2B 0.035 0.031 0.02 0.003 -0.003 -0.005
C3B 0.026 0.025 0.022 0.002 -0.001 -0.005
C4B 0.026 0.034 0.021 0.002 -0.003 -0.005
C5B 0.022 0.017 0.023 -0.004 -0.002 -0.003
C6B 0.034 0.03 0.02 0.001 0.007 -0.003
O1B 0.028 0.026 0.022 0.002 -0.004 0.01
O2B 0.031 0.037 0.023 -0.001 0.004 -0.008
O3B 0.024 0.033 0.016 0.001 -0.002 0.002
O4B 0.019 0.026 0.027 -0.004 0.006 0.003
O5B 0.047 0.036 0.082 -0.011 0.034 -0.013
O6B 0.025 0.047 0.026 0.008 0.001 -0.001
O7B 0.022 0.071 0.032 0.017 -0.002 -0.003
Co1D 0.021 0.0228 0.0172 -0.0002 0.0003 -0.0007
Co1F 0.0228 0.021 0.0172 0.0003 0.0002 0.0007
Co2B 0.0402 0.0229 0.0194 0 0 0.0018
Co2H 0.0229 0.0402 0.0194 0 0 0.0018
Co2K 0.0402 0.0229 0.0194 0 0 -0.0018
K1B 0.044 0.046 0.0414 -0.0193 0 0
K1D 0.046 0.044 0.0414 0 0.0193 0
K1F 0.044 0.046 0.0414 0.0193 0 0
O1D 0.026 0.028 0.022 -0.004 -0.002 -0.01
O1F 0.028 0.026 0.022 -0.002 0.004 0.01
O1L 0.026 0.028 0.022 0.004 -0.002 0.01
O2D 0.037 0.031 0.023 0.004 0.001 0.008
O3D 0.033 0.024 0.016 -0.002 -0.001 -0.002
O3F 0.024 0.033 0.016 -0.001 0.002 0.002
O4H 0.026 0.019 0.027 0.006 -0.004 0.003
O6D 0.047 0.025 0.026 0.001 -0.008 0.001
O6J 0.025 0.047 0.026 -0.008 0.001 0.001
O7J 0.022 0.071 0.032 -0.017 -0.002 0.003
O7N 0.022 0.071 0.032 0.017 0.002 0.003
loop_
_geom_bond_atom_site_label_1
_geom_bond_atom_site_label_2
_geom_bond_site_symmetry_1
_geom_bond_site_symmetry_2
Co1 O3 1_555 1_555
Co2 O2 1_555 1_555
K1 O4 1_555 1_555
C1 C2 1_555 1_555
C2 C3 1_555 1_555
C3 C4 1_555 1_555
C4 C5 1_555 1_555
C5 O6 1_555 1_555
C6 C3 1_555 1_555
O1 C1 1_555 1_555
O2 C1 1_555 1_555
O3 C3 1_555 1_555
O4 Co1 1_555 1_555
O5 C6 1_555 1_555
O6 Co1F 1_555 1_555
O7 C5 1_555 1_555
H1 C2 1_555 1_555
H2 C2 1_555 1_555
H3 C4 1_555 1_555
H4 C4 1_555 1_555
O8 K1 1_555 1_555
Co1B O3B 1_555 1_555
C1B C2B 1_555 1_555
C2B C3B 1_555 1_555
C3B C4B 1_555 1_555
C4B C5B 1_555 1_555
C5B O6B 1_555 1_555
C6B C3B 1_555 1_555
O1B C1B 1_555 1_555
O2B C1B 1_555 1_555
O3B Co1 1_555 1_555
O4B Co1B 1_555 1_555
O5B C6B 1_555 1_555
O6B Co1 1_555 1_555
O7B C5B 1_555 1_555
H1B C2B 1_555 1_555
H2B C2B 1_555 1_555
H3B C4B 1_555 1_555
H4B C4B 1_555 1_555
O8H K1 1_555 1_555
Co1D Co1 1_555 1_555
Co1F O3 1_555 1_555
Co2B O2B 1_555 1_555
Co2H O7B 1_555 1_555
Co2K O7 1_555 1_555
K1B O4B 1_555 1_555
K1D O1 1_555 1_555
K1F O6 1_555 1_555
O1D Co1 1_555 1_555
O1F Co1B 1_555 1_555
O1L K1 1_555 1_555
O2D Co2 1_555 1_555
O3D Co1 1_555 1_555
O3F Co1B 1_555 1_555
O4H K1 1_555 1_555
O6D Co1B 1_555 1_555
O6J K1 1_555 1_555
O7J Co2 1_555 1_555
O7N Co2 1_555 1_555
K1 O6B 1_555 1_555
K1 O1D 1_555 1_555
C6 O4 1_555 1_555
O1 Co1D 1_555 1_555
O3 Co1D 1_555 1_555
Co1B Co1F 1_555 1_555
Co1B O3D 1_555 1_555
C3B O3B 1_555 1_555
C6B O4B 1_555 1_555
O1B Co1F 1_555 1_555
O1B K1F 1_555 1_555
O3B Co1F 1_555 1_555
Co1D O3D 1_555 1_555
Co1D O3F 1_555 1_555
Co1F O3F 1_555 1_555
K1B O1F 1_555 1_555
K1B O6D 1_555 1_555

#END
