
#######################################################################
#
#                 Cambridge Crystallographic Data Centre
#                                CCDC 
#
#######################################################################
#
# If this CIF has been generated from an entry in the Cambridge 
# Structural Database, then it will include bibliographic, chemical, 
# crystal, experimental, refinement or atomic coordinate data resulting 
# from the CCDC's data processing and validation procedures.
#
#######################################################################

data_MUZRIJ
_chemical_formula_moiety         '(C52 H50 Cu6 F14 N18 O20 S4 3+)n'
_symmetry_cell_setting           tetragonal
_symmetry_space_group_name_H-M   'P 42 b c'
_symmetry_Int_Tables_number      106
_space_group_name_Hall           'P 4c -2ab'
loop_
_symmetry_equiv_pos_site_id
_symmetry_equiv_pos_as_xyz
1 x,y,z
2 -y,x,1/2+z
3 -x,-y,z
4 y,-x,1/2+z
5 1/2-x,1/2+y,z
6 1/2-y,1/2-x,1/2+z
7 1/2+x,1/2-y,z
8 1/2+y,1/2+x,1/2+z
_cell_length_a                   18.853(2)
_cell_length_b                   18.853(2)
_cell_length_c                   20.639(3)
_cell_angle_alpha                90
_cell_angle_beta                 90
_cell_angle_gamma                90
_cell_volume                     7335.84
loop_
_atom_site_label
_atom_site_type_symbol
_atom_site_fract_x
_atom_site_fract_y
_atom_site_fract_z
_atom_site_U_iso_or_equiv
_atom_site_thermal_displace_type
S1 S -0.2682(4) 1.2771(4) 0.5925(3) 0.1207 Uani
O2 O -0.3326(9) 1.2625(8) 0.6191(7) 0.1207 Uani
O3 O -0.2311(8) 1.3365(8) 0.6150(7) 0.1207 Uani
O4 O -0.2205(8) 1.2171(8) 0.5723(8) 0.1207 Uani
C25 C -0.2950(13) 1.2946(12) 0.5142(12) 0.1207 Uani
F1 F -0.3375(7) 1.3537(6) 0.5122(6) 0.1207 Uani
F2 F -0.2455(8) 1.3259(7) 0.4773(7) 0.1207 Uani
F3 F -0.3270(7) 1.2454(7) 0.4820(6) 0.1207 Uani
S2 S 0.5000 0.5000 0.9223(11) 0.3370 Uani
O5 O 0.498(3) 0.4262(13) 0.925(3) 0.3370 Uani
O6 O 0.447(2) 0.535(3) 0.955(3) 0.3370 Uani
O7 O 0.5707(16) 0.527(3) 0.942(3) 0.3370 Uani
C26 C 0.5000 0.5000 0.835(3) 0.3370 Uani
F4 F 0.477(2) 0.4306(17) 0.8199(19) 0.3370 Uani
F5 F 0.448(2) 0.547(2) 0.820(3) 0.3370 Uani
F6 F 0.5648(17) 0.512(3) 0.823(3) 0.3370 Uani
O5B O 0.502(3) 0.5738(13) 0.925(3) 0.3370 Uani
O6B O 0.553(2) 0.465(3) 0.955(3) 0.3370 Uani
O7B O 0.4293(16) 0.473(3) 0.942(3) 0.3370 Uani
F4B F 0.523(2) 0.5694(17) 0.8199(19) 0.3370 Uani
F5B F 0.552(2) 0.453(2) 0.820(3) 0.3370 Uani
F6B F 0.4352(17) 0.488(3) 0.823(3) 0.3370 Uani
S3 S 0.5269(12) -0.0054(12) 0.2744(7) 0.1970 Uani
O8 O 0.5826(19) 0.0359(18) 0.2973(14) 0.1970 Uani
O9 O 0.5412(19) -0.0757(13) 0.2664(14) 0.1970 Uani
O10 O 0.507(2) 0.0282(13) 0.2113(12) 0.1970 Uani
C27 C 0.453(2) -0.0062(16) 0.333(2) 0.1970 Uani
F7 F 0.5000 -0.0000 0.3851(10) 0.1970 Uani
F8 F 0.5782(16) 0.0716(13) 0.3313(12) 0.1970 Uani
F9 F 0.5811(15) -0.0497(14) 0.3160(12) 0.1970 Uani
S3B S 0.4731(12) 0.0054(12) 0.2744(7) 0.1970 Uani
O8B O 0.4174(19) -0.0359(18) 0.2973(14) 0.1970 Uani
O9B O 0.4588(19) 0.0757(13) 0.2664(14) 0.1970 Uani
O10B O 0.493(2) -0.0282(13) 0.2113(12) 0.1970 Uani
C27B C 0.547(2) 0.0062(16) 0.333(2) 0.1970 Uani
F8B F 0.4218(16) -0.0716(13) 0.3313(12) 0.1970 Uani
F9B F 0.4189(15) 0.0497(14) 0.3160(12) 0.1970 Uani
O11 O -0.3345(8) 0.9505(8) 0.6740(9) 0.1393 Uani
H23 H -0.3095 0.9171 0.6584 0.1670 Uiso
H24 H -0.3391 0.9447 0.7146 0.1670 Uiso
O12 O -0.0252(17) 1.493(4) 1.0912(14) 0.1733 Uani
H25 H -0.0328 1.4771 1.0532 0.2050 Uiso
H26 H -0.0405 1.4599 1.1154 0.2050 Uiso
O12B O 0.0252(17) 1.507(4) 1.0912(14) 0.1733 Uani
H25B H 0.0328 1.5229 1.0532 0.2050 Uiso
H26B H 0.0405 1.5401 1.1154 0.2050 Uiso
Cu1 Cu -0.28151(11) 1.07189(12) 0.64776(11) 0.0735 Uani
Cu2 Cu -0.36219(10) 1.19834(10) 0.73151(10) 0.0636 Uani
Cu3 Cu -0.43378(10) 1.14625(10) 0.59561(10) 0.0584 Uani
O1 O -0.3734(5) 1.1175(5) 0.6705(5) 0.0523 Uani
H1 H -0.4007 1.0815 0.6940 0.0630 Uiso
N1 N -0.2505(8) 1.0950(7) 0.7337(8) 0.0747 Uani
N2 N -0.2800(7) 1.1476(8) 0.7666(8) 0.0807 Uani
C1 C -0.2510(14) 1.1532(14) 0.8257(10) 0.1187 Uani
H2 H -0.2624 1.1876 0.8562 0.1410 Uiso
C2 C -0.2012(12) 1.0996(14) 0.8344(10) 0.1093 Uani
H3 H -0.1736 1.0901 0.8708 0.1290 Uiso
C3 C -0.2025(11) 1.0659(11) 0.7790(13) 0.1177 Uani
H4 H -0.1745 1.0264 0.7703 0.1400 Uiso
N3 N -0.4581(8) 1.2290(7) 0.7111(6) 0.0643 Uani
N4 N -0.4922(7) 1.1999(6) 0.6590(6) 0.0537 Uani
C4 C -0.5549(9) 1.2230(11) 0.6586(10) 0.0800 Uani
H5 H -0.5868 1.2142 0.6252 0.0960 Uiso
C5 C -0.5716(11) 1.2631(12) 0.7134(11) 0.1003 Uani
H6 H -0.6145 1.2831 0.7261 0.1210 Uiso
C6 C -0.5084(11) 1.2647(11) 0.7425(10) 0.0963 Uani
H7 H -0.5002 1.2885 0.7812 0.1150 Uiso
N5 N -0.3721(7) 1.0899(6) 0.5383(6) 0.0550 Uani
N6 N -0.3146(7) 1.0610(8) 0.5587(8) 0.0680 Uani
C7 C -0.2856(10) 1.0220(10) 0.5103(11) 0.0867 Uani
H8 H -0.2448 0.9945 0.5136 0.1040 Uiso
C8 C -0.3258(11) 1.0295(10) 0.4568(9) 0.0780 Uani
H9 H -0.3186 1.0088 0.4165 0.0930 Uiso
C9 C -0.3819(11) 1.0763(11) 0.4756(9) 0.0853 Uani
H10 H -0.4179 1.0937 0.4493 0.1020 Uiso
N7 N -0.3351(5) 1.2823(5) 0.7886(4) 0.0697 Uani
C10 C -0.2729(6) 1.3184(7) 0.7740(4) 0.0890 Uani
H11 H -0.2509 1.3115 0.7341 0.1070 Uiso
C11 C -0.2434(5) 1.3647(6) 0.8189(6) 0.0760 Uani
H12 H -0.2017 1.3889 0.8090 0.0910 Uiso
C12 C -0.2761(6) 1.3750(6) 0.8785(5) 0.0673 Uani
C13 C -0.3384(6) 1.3389(7) 0.8932(4) 0.1067 Uani
H13 H -0.3603 1.3458 0.9330 0.1280 Uiso
C14 C -0.3679(5) 1.2926(6) 0.8482(5) 0.0753 Uani
H14 H -0.4095 1.2684 0.8581 0.0900 Uiso
C15 C -0.2416(6) 1.4176(6) 0.9291(5) 0.0637 Uani
C16 C -0.2841(4) 1.4645(6) 0.9637(6) 0.0897 Uani
H15 H -0.3325 1.4669 0.9551 0.1080 Uiso
C17 C -0.2544(5) 1.5076(5) 1.0111(5) 0.0637 Uani
H16 H -0.2829 1.5389 1.0342 0.0760 Uiso
N8 N -0.1822(5) 1.5039(6) 1.0239(4) 0.0610 Uani
C18 C -0.1396(4) 1.4571(6) 0.9893(5) 0.0780 Uani
H17 H -0.0912 1.4547 0.9979 0.0930 Uiso
C19 C -0.1693(6) 1.4140(5) 0.9420(5) 0.0687 Uani
H18 H -0.1408 1.3827 0.9188 0.0830 Uiso
N9 N -0.1832(4) 1.0394(7) 0.6267(6) 0.0727 Uani
C20 C -0.1354(6) 1.0922(5) 0.6094(6) 0.0793 Uani
H19 H -0.1516 1.1376 0.5999 0.0950 Uiso
C21 C -0.0633(5) 1.0771(5) 0.6062(6) 0.0963 Uani
H20 H -0.0313 1.1124 0.5946 0.1150 Uiso
C22 C -0.0391(4) 1.0092(6) 0.6203(6) 0.0623 Uani
C23 C -0.0869(6) 0.9564(4) 0.6376(7) 0.0883 Uani
H21 H -0.0707 0.9110 0.6471 0.1070 Uiso
C24 C -0.1590(5) 0.9715(6) 0.6408(7) 0.1373 Uani
H22 H -0.1910 0.9362 0.6524 0.1660 Uiso
Cu1B Cu 0.28151(11) 0.92811(12) 0.64776(11) 0.0735 Uani
Cu2B Cu 0.36219(10) 0.80166(10) 0.73151(10) 0.0636 Uani
Cu2C Cu -0.80166(10) 1.36219(10) 0.23151(10) 0.0636 Uani
Cu3B Cu 0.43378(10) 0.85375(10) 0.59561(10) 0.0584 Uani
Cu3A Cu -0.14625(10) 1.56622(10) 1.09561(10) 0.0584 Uani
O1B O 0.3734(5) 0.8825(5) 0.6705(5) 0.0523 Uani
H1B H 0.4007 0.9185 0.6940 0.0630 Uiso
N1B N 0.2505(8) 0.9050(7) 0.7337(8) 0.0747 Uani
N2B N 0.2800(7) 0.8524(8) 0.7666(8) 0.0807 Uani
C1B C 0.2510(14) 0.8468(14) 0.8257(10) 0.1187 Uani
H2B H 0.2624 0.8124 0.8562 0.1410 Uiso
C2B C 0.2012(12) 0.9004(14) 0.8344(10) 0.1093 Uani
H3B H 0.1736 0.9099 0.8708 0.1290 Uiso
C3B C 0.2025(11) 0.9341(11) 0.7790(13) 0.1177 Uani
H4B H 0.1745 0.9736 0.7703 0.1400 Uiso
N3B N 0.4581(8) 0.7710(7) 0.7111(6) 0.0643 Uani
N4B N 0.4922(7) 0.8001(6) 0.6590(6) 0.0537 Uani
C4B C 0.5549(9) 0.7770(11) 0.6586(10) 0.0800 Uani
H5B H 0.5868 0.7858 0.6252 0.0960 Uiso
C5B C 0.5716(11) 0.7369(12) 0.7134(11) 0.1003 Uani
H6B H 0.6145 0.7169 0.7261 0.1210 Uiso
C6B C 0.5084(11) 0.7353(11) 0.7425(10) 0.0963 Uani
H7B H 0.5002 0.7115 0.7812 0.1150 Uiso
N5B N 0.3721(7) 0.9101(6) 0.5383(6) 0.0550 Uani
N6B N 0.3146(7) 0.9390(8) 0.5587(8) 0.0680 Uani
C7B C 0.2856(10) 0.9780(10) 0.5103(11) 0.0867 Uani
H8B H 0.2448 1.0055 0.5136 0.1040 Uiso
C8B C 0.3258(11) 0.9705(10) 0.4568(9) 0.0780 Uani
H9B H 0.3186 0.9912 0.4165 0.0930 Uiso
C9B C 0.3819(11) 0.9237(11) 0.4756(9) 0.0853 Uani
H10B H 0.4179 0.9063 0.4493 0.1020 Uiso
N7C N -0.7177(5) 1.3351(5) 0.2886(4) 0.0697 Uani
N7B N 0.3351(5) 0.7177(5) 0.7886(4) 0.0697 Uani
C10C C -0.6816(7) 1.2729(6) 0.2740(4) 0.0890 Uani
H11C H -0.6885 1.2509 0.2341 0.1070 Uiso
C11C C -0.6353(6) 1.2434(5) 0.3189(6) 0.0760 Uani
H12C H -0.6111 1.2017 0.3090 0.0910 Uiso
C12C C -0.6250(6) 1.2761(6) 0.3785(5) 0.0673 Uani
C13C C -0.6611(7) 1.3384(6) 0.3932(4) 0.1067 Uani
H13C H -0.6542 1.3603 0.4330 0.1280 Uiso
C14C C -0.7074(6) 1.3679(5) 0.3482(5) 0.0753 Uani
H14C H -0.7316 1.4095 0.3581 0.0900 Uiso
C15C C -0.5824(6) 1.2416(6) 0.4291(5) 0.0637 Uani
C16C C -0.5355(6) 1.2841(4) 0.4637(6) 0.0897 Uani
H15C H -0.5331 1.3325 0.4551 0.1080 Uiso
C17C C -0.4924(5) 1.2544(5) 0.5111(5) 0.0637 Uani
H16C H -0.4611 1.2829 0.5342 0.0760 Uiso
N8C N -0.4961(6) 1.1822(5) 0.5239(4) 0.0610 Uani
N8A N 0.4961(6) 0.8178(5) 0.5239(4) 0.0610 Uani
C18C C -0.5429(6) 1.1396(4) 0.4893(5) 0.0780 Uani
H17C H -0.5453 1.0912 0.4979 0.0930 Uiso
C19C C -0.5860(5) 1.1693(6) 0.4420(5) 0.0687 Uani
H18C H -0.6173 1.1408 0.4188 0.0830 Uiso
N9B N 0.1832(4) 0.9606(7) 0.6267(6) 0.0727 Uani
C20B C 0.1354(6) 0.9078(5) 0.6094(6) 0.0793 Uani
H19B H 0.1516 0.8624 0.5999 0.0950 Uiso
C21B C 0.0633(5) 0.9229(5) 0.6062(6) 0.0963 Uani
H20B H 0.0313 0.8876 0.5946 0.1150 Uiso
C22B C 0.0391(4) 0.9908(6) 0.6203(6) 0.0623 Uani
C23B C 0.0869(6) 1.0436(4) 0.6376(7) 0.0883 Uani
H21B H 0.0707 1.0890 0.6471 0.1070 Uiso
C24B C 0.1590(5) 1.0285(6) 0.6408(7) 0.1373 Uani
H22B H 0.1910 1.0638 0.6524 0.1660 Uiso
loop_
_atom_site_aniso_label
_atom_site_aniso_U_11
_atom_site_aniso_U_22
_atom_site_aniso_U_33
_atom_site_aniso_U_23
_atom_site_aniso_U_13
_atom_site_aniso_U_12
S1 0.144 0.102 0.116 -0.004 -0.034 -0.012
O2 0.144 0.102 0.116 -0.004 -0.034 -0.012
O3 0.144 0.102 0.116 -0.004 -0.034 -0.012
O4 0.144 0.102 0.116 -0.004 -0.034 -0.012
C25 0.144 0.102 0.116 -0.004 -0.034 -0.012
F1 0.144 0.102 0.116 -0.004 -0.034 -0.012
F2 0.144 0.102 0.116 -0.004 -0.034 -0.012
F3 0.144 0.102 0.116 -0.004 -0.034 -0.012
S2 0.099(8) 0.68(5) 0.232(11) 0.000 0.000 0.05(2)
O5 0.099(8) 0.68(5) 0.232(11) 0.000 0.000 0.05(2)
O6 0.099(8) 0.68(5) 0.232(11) 0.000 0.000 0.05(2)
O7 0.099(8) 0.68(5) 0.232(11) 0.000 0.000 0.05(2)
C26 0.099(8) 0.68(5) 0.232(11) 0.000 0.000 0.05(2)
F4 0.099(8) 0.68(5) 0.232(11) 0.000 0.000 0.05(2)
F5 0.099(8) 0.68(5) 0.232(11) 0.000 0.000 0.05(2)
F6 0.099(8) 0.68(5) 0.232(11) 0.000 0.000 0.05(2)
O5B 0.099 0.68 0.232 0 0 0.05
O6B 0.099 0.68 0.232 0 0 0.05
O7B 0.099 0.68 0.232 0 0 0.05
F4B 0.099 0.68 0.232 0 0 0.05
F5B 0.099 0.68 0.232 0 0 0.05
F6B 0.099 0.68 0.232 0 0 0.05
S3 0.36(2) 0.135(9) 0.096(7) -0.030(9) 0.076(10) -0.079(11)
O8 0.36(2) 0.135(9) 0.096(7) -0.030(9) 0.076(10) -0.079(11)
O9 0.36(2) 0.135(9) 0.096(7) -0.030(9) 0.076(10) -0.079(11)
O10 0.36(2) 0.135(9) 0.096(7) -0.030(9) 0.076(10) -0.079(11)
C27 0.36(2) 0.135(9) 0.096(7) -0.030(9) 0.076(10) -0.079(11)
F7 0.36(2) 0.135(9) 0.096(7) -0.030(9) 0.076(10) -0.079(11)
F8 0.36 0.135 0.096 0.03 -0.076 -0.079
F9 0.36 0.135 0.096 0.03 -0.076 -0.079
S3B 0.36 0.135 0.096 0.03 -0.076 -0.079
O8B 0.36 0.135 0.096 0.03 -0.076 -0.079
O9B 0.36 0.135 0.096 0.03 -0.076 -0.079
O10B 0.36 0.135 0.096 0.03 -0.076 -0.079
C27B 0.36 0.135 0.096 0.03 -0.076 -0.079
F8B 0.36(2) 0.135(9) 0.096(7) -0.030(9) 0.076(10) -0.079(11)
F9B 0.36(2) 0.135(9) 0.096(7) -0.030(9) 0.076(10) -0.079(11)
O11 0.143 0.119 0.156 0.02 0.071 0.014
O12 0.16 0.28 0.08 0.07 0.01 0.12
O12B 0.16 0.28 0.08 -0.07 -0.01 0.12
Cu1 0.0526 0.0915 0.0764 -0.0245 -0.0223 0.0166
Cu2 0.057 0.0752 0.0587 -0.0174 -0.0213 0.0016
Cu3 0.0481 0.0757 0.0514 -0.0021 -0.011 0.0083
O1 0.045 0.043 0.069 -0.005 -0.024 0.003
N1 0.081 0.056 0.087 -0.038 -0.015 0.027
N2 0.07 0.089 0.083 0.001 -0.042 0.007
C1 0.15 0.15 0.056 -0.032 -0.063 0.038
C2 0.124 0.15 0.054 -0.007 -0.038 0.037
C3 0.097 0.096 0.16 -0.048 -0.096 0.019
N3 0.078 0.067 0.048 -0.005 -0.018 0.012
N4 0.042 0.067 0.052 0.006 -0.012 -0.001
C4 0.045 0.113 0.082 -0.015 0.016 0.014
C5 0.071 0.123 0.107 0.004 -0.035 0.034
C6 0.086 0.131 0.072 0.021 -0.024 0.038
N5 0.073 0.042 0.05 0.007 -0.019 0.01
N6 0.039 0.085 0.08 -0.01 -0.015 0.008
C7 0.074 0.082 0.104 -0.062 -0.002 -0.003
C8 0.11 0.067 0.057 -0.022 -0.003 -0.01
C9 0.079 0.109 0.068 -0.017 -0.03 0.031
N7 0.083 0.066 0.06 -0.007 -0.012 -0.018
C10 0.06 0.166 0.041 -0.038 -0.003 -0.055
C11 0.045 0.103 0.08 -0.004 0.005 -0.013
C12 0.045 0.082 0.075 -0.012 0.001 -0.005
C13 0.14 0.11 0.07 -0.032 0.026 0.014
C14 0.051 0.124 0.051 -0.036 0.007 -0.03
C15 0.08 0.08 0.031 -0.027 -0.005 -0.011
C16 0.106 0.07 0.093 -0.027 0.008 0.01
C17 0.048 0.073 0.07 -0.036 0.001 0.029
N8 0.071 0.041 0.071 -0.016 0.008 -0.021
C18 0.079 0.082 0.073 -0.023 -0.001 -0.022
C19 0.084 0.047 0.075 -0.035 -0.015 0.018
N9 0.023 0.099 0.096 -0.022 -0.014 0.013
C20 0.069 0.09 0.079 0.016 0 0.022
C21 0.079 0.084 0.126 0.007 0.022 0.053
C22 0.054 0.063 0.07 -0.012 -0.006 0.013
C23 0.06 0.035 0.17 0.004 -0.024 0.007
C24 0.043 0.079 0.29 -0.053 -0.007 0.006
Cu1B 0.0526(12) 0.0915(17) 0.0764(15) 0.0245(14) 0.0223(12) 0.0166(11)
Cu2B 0.0570(12) 0.0752(14) 0.0587(12) 0.0174(12) 0.0213(11) 0.0016(10)
Cu2C 0.0752 0.057 0.0587 0.0213 -0.0174 -0.0016
Cu3B 0.0481(11) 0.0757(14) 0.0514(10) 0.0021(11) 0.0110(10) 0.0083(10)
Cu3A 0.0757 0.0481 0.0514 -0.011 0.0021 -0.0083
O1B 0.045(6) 0.043(6) 0.069(7) 0.005(5) 0.024(5) 0.003(5)
N1B 0.081(10) 0.056(9) 0.087(10) 0.038(9) 0.015(10) 0.027(8)
N2B 0.070(10) 0.089(11) 0.083(11) -0.001(9) 0.042(9) 0.007(9)
C1B 0.15(2) 0.15(2) 0.056(12) 0.032(13) 0.063(14) 0.038(18)
C2B 0.124(19) 0.15(2) 0.054(12) 0.007(14) 0.038(13) 0.037(17)
C3B 0.097(16) 0.096(16) 0.16(2) 0.048(16) 0.096(17) 0.019(13)
N3B 0.078(10) 0.067(9) 0.048(9) 0.005(7) 0.018(8) 0.012(8)
N4B 0.042(8) 0.067(8) 0.052(8) -0.006(7) 0.012(7) -0.001(6)
C4B 0.045(12) 0.113(15) 0.082(14) 0.015(12) -0.016(10) 0.014(10)
C5B 0.071(14) 0.123(17) 0.107(18) -0.004(14) 0.035(13) 0.034(12)
C6B 0.086(15) 0.131(18) 0.072(14) -0.021(13) 0.024(12) 0.038(14)
N5B 0.073(10) 0.042(8) 0.050(8) -0.007(6) 0.019(7) 0.010(7)
N6B 0.039(8) 0.085(11) 0.080(10) 0.010(9) 0.015(8) 0.008(7)
C7B 0.074(13) 0.082(15) 0.104(16) 0.062(13) 0.002(13) -0.003(10)
C8B 0.110(16) 0.067(13) 0.057(12) 0.022(10) 0.003(12) -0.010(11)
C9B 0.079(14) 0.109(16) 0.068(13) 0.017(12) 0.030(11) 0.031(12)
N7C 0.066 0.083 0.06 0.012 -0.007 0.018
N7B 0.083(11) 0.066(9) 0.060(9) 0.007(7) 0.012(8) -0.018(8)
C10C 0.166 0.06 0.041 0.003 -0.038 0.055
C11C 0.103 0.045 0.08 -0.005 -0.004 0.013
C12C 0.082 0.045 0.075 -0.001 -0.012 0.005
C13C 0.11 0.14 0.07 -0.026 -0.032 -0.014
C14C 0.124 0.051 0.051 -0.007 -0.036 0.03
C15C 0.08 0.08 0.031 0.005 -0.027 0.011
C16C 0.07 0.106 0.093 -0.008 -0.027 -0.01
C17C 0.073 0.048 0.07 -0.001 -0.036 -0.029
N8C 0.041 0.071 0.071 -0.008 -0.016 0.021
N8A 0.041 0.071 0.071 0.008 0.016 0.021
C18C 0.082 0.079 0.073 0.001 -0.023 0.022
C19C 0.047 0.084 0.075 0.015 -0.035 -0.018
N9B 0.023(7) 0.099(12) 0.096(12) 0.022(9) 0.014(7) 0.013(8)
C20B 0.069(13) 0.090(14) 0.079(13) -0.016(11) 0.000(11) 0.022(12)
C21B 0.079(14) 0.084(14) 0.126(17) -0.007(13) -0.022(13) 0.053(11)
C22B 0.054(10) 0.063(11) 0.070(11) 0.012(9) 0.006(8) 0.013(10)
C23B 0.060(13) 0.035(10) 0.17(2) -0.004(12) 0.024(13) 0.007(9)
C24B 0.043(12) 0.079(16) 0.29(3) 0.053(19) 0.007(17) 0.006(11)
loop_
_geom_bond_atom_site_label_1
_geom_bond_atom_site_label_2
_geom_bond_site_symmetry_1
_geom_bond_site_symmetry_2
Cu1 O1 1_555 1_555
Cu2 O1 1_555 1_555
Cu3 O1 1_555 1_555
O1 H1 1_555 1_555
N1 Cu1 1_555 1_555
N2 Cu2 1_555 1_555
C1 N2 1_555 1_555
H2 C1 1_555 1_555
C2 C1 1_555 1_555
H3 C2 1_555 1_555
C3 N1 1_555 1_555
H4 C3 1_555 1_555
N3 Cu2 1_555 1_555
N4 Cu3 1_555 1_555
C4 N4 1_555 1_555
H5 C4 1_555 1_555
C5 C4 1_555 1_555
H6 C5 1_555 1_555
C6 N3 1_555 1_555
H7 C6 1_555 1_555
N5 Cu3 1_555 1_555
N6 Cu1 1_555 1_555
C7 N6 1_555 1_555
H8 C7 1_555 1_555
C8 C7 1_555 1_555
H9 C8 1_555 1_555
C9 N5 1_555 1_555
H10 C9 1_555 1_555
N7 Cu2 1_555 1_555
C10 N7 1_555 1_555
H11 C10 1_555 1_555
C11 C10 1_555 1_555
H12 C11 1_555 1_555
C12 C11 1_555 1_555
C13 C12 1_555 1_555
H13 C13 1_555 1_555
C14 N7 1_555 1_555
H14 C14 1_555 1_555
C15 C12 1_555 1_555
C16 C15 1_555 1_555
H15 C16 1_555 1_555
C17 C16 1_555 1_555
H16 C17 1_555 1_555
N8 C17 1_555 1_555
C18 N8 1_555 1_555
H17 C18 1_555 1_555
C19 C15 1_555 1_555
H18 C19 1_555 1_555
N9 Cu1 1_555 1_555
C20 N9 1_555 1_555
H19 C20 1_555 1_555
C21 C20 1_555 1_555
H20 C21 1_555 1_555
C22 C21 1_555 1_555
C23 C22 1_555 1_555
H21 C23 1_555 1_555
C24 N9 1_555 1_555
H22 C24 1_555 1_555
S1 O2 1_555 1_555
O3 S1 1_555 1_555
O4 S1 1_555 1_555
C25 S1 1_555 1_555
F1 C25 1_555 1_555
F2 C25 1_555 1_555
F3 C25 1_555 1_555
S2 O5 1_555 1_555
O5 O6B 1_555 1_555
O6 S2 1_555 1_555
O7 S2 1_555 1_555
C26 S2 1_555 1_555
F4 C26 1_555 1_555
F5 C26 1_555 1_555
F6 C26 1_555 1_555
S3 O8 1_555 1_555
O8 F8 1_555 1_555
O9 S3 1_555 1_555
O10 S3 1_555 1_555
C27 S3 1_555 1_555
F7 C27 1_555 1_555
F8 C27B 1_555 1_555
F9 S3 1_555 1_555
O11 H23 1_555 1_555
H24 O11 1_555 1_555
O12 H25 1_555 1_555
H26 O12 1_555 1_555
Cu1B O1B 1_555 1_555
Cu2B O1B 1_555 1_555
Cu2C N7C 1_555 1_555
Cu3B O1B 1_555 1_555
Cu3A N8 1_555 1_555
O1B H1B 1_555 1_555
N1B Cu1B 1_555 1_555
N2B Cu2B 1_555 1_555
C1B N2B 1_555 1_555
H2B C1B 1_555 1_555
C2B C1B 1_555 1_555
H3B C2B 1_555 1_555
C3B N1B 1_555 1_555
H4B C3B 1_555 1_555
N3B Cu2B 1_555 1_555
N4B Cu3B 1_555 1_555
C4B N4B 1_555 1_555
H5B C4B 1_555 1_555
C5B C4B 1_555 1_555
H6B C5B 1_555 1_555
C6B N3B 1_555 1_555
H7B C6B 1_555 1_555
N5B Cu3B 1_555 1_555
N6B Cu1B 1_555 1_555
C7B N6B 1_555 1_555
H8B C7B 1_555 1_555
C8B C7B 1_555 1_555
H9B C8B 1_555 1_555
C9B N5B 1_555 1_555
H10B C9B 1_555 1_555
N7C C10C 1_555 1_555
N7B Cu2B 1_555 1_555
C10C H11C 1_555 1_555
C11C C10C 1_555 1_555
H12C C11C 1_555 1_555
C12C C11C 1_555 1_555
C13C C12C 1_555 1_555
H13C C13C 1_555 1_555
C14C N7C 1_555 1_555
H14C C14C 1_555 1_555
C15C C12C 1_555 1_555
C16C C15C 1_555 1_555
H15C C16C 1_555 1_555
C17C C16C 1_555 1_555
H16C C17C 1_555 1_555
N8C Cu3 1_555 1_555
N8A Cu3B 1_555 1_555
C18C N8C 1_555 1_555
H17C C18C 1_555 1_555
C19C C15C 1_555 1_555
H18C C19C 1_555 1_555
N9B Cu1B 1_555 1_555
C20B N9B 1_555 1_555
H19B C20B 1_555 1_555
C21B C20B 1_555 1_555
H20B C21B 1_555 1_555
C22B C22 1_555 1_555
C23B C22B 1_555 1_555
H21B C23B 1_555 1_555
C24B N9B 1_555 1_555
H22B C24B 1_555 1_555
O5B S2 1_555 1_555
O6B S2 1_555 1_555
O7B S2 1_555 1_555
F4B C26 1_555 1_555
F5B C26 1_555 1_555
F6B C26 1_555 1_555
S3B S3 1_555 1_555
O8B C27 1_555 1_555
O9B S3B 1_555 1_555
O10B S3 1_555 1_555
C27B S3 1_555 1_555
F8B C27 1_555 1_555
F9B C27 1_555 1_555
O12B O12 1_555 1_555
H25B O12B 1_555 1_555
H26B O12B 1_555 1_555
N1 N2 1_555 1_555
C2 C3 1_555 1_555
N3 N4 1_555 1_555
C5 C6 1_555 1_555
N5 N6 1_555 1_555
C8 C9 1_555 1_555
C13 C14 1_555 1_555
C18 C19 1_555 1_555
C23 C24 1_555 1_555
O5 O7B 1_555 1_555
O6 O5B 1_555 1_555
O6 O7B 1_555 1_555
O7 O5B 1_555 1_555
O7 O6B 1_555 1_555
F4 F5B 1_555 1_555
F4 F6B 1_555 1_555
F5 F4B 1_555 1_555
F5 F6B 1_555 1_555
F6 F4B 1_555 1_555
F6 F5B 1_555 1_555
O8 F9 1_555 1_555
O8 C27B 1_555 1_555
O9 F9 1_555 1_555
O10 S3B 1_555 1_555
O10 O10B 1_555 1_555
C27 S3B 1_555 1_555
C27 C27B 1_555 1_555
F7 C27B 1_555 1_555
F9 C27B 1_555 1_555
N1B N2B 1_555 1_555
C2B C3B 1_555 1_555
N3B N4B 1_555 1_555
C5B C6B 1_555 1_555
N5B N6B 1_555 1_555
C8B C9B 1_555 1_555
C13C C14C 1_555 1_555
C17C N8C 1_555 1_555
C18C C19C 1_555 1_555
C21B C22B 1_555 1_555
C23B C24B 1_555 1_555
S3B O8B 1_555 1_555
S3B O10B 1_555 1_555
S3B C27B 1_555 1_555
S3B F9B 1_555 1_555
O8B F8B 1_555 1_555
O8B F9B 1_555 1_555
O9B F9B 1_555 1_555

#END
