
#######################################################################
#
#                 Cambridge Crystallographic Data Centre
#                                CCDC 
#
#######################################################################
#
# If this CIF has been generated from an entry in the Cambridge 
# Structural Database, then it will include bibliographic, chemical, 
# crystal, experimental, refinement or atomic coordinate data resulting 
# from the CCDC's data processing and validation procedures.
#
#######################################################################

data_VIPXUO
_chemical_formula_moiety         '(C34 H38 Co2 N4 O15)n'
_symmetry_cell_setting           monoclinic
_symmetry_space_group_name_H-M   'P 21/n'
_symmetry_Int_Tables_number      14
_space_group_name_Hall           '-P 2yn'
loop_
_symmetry_equiv_pos_site_id
_symmetry_equiv_pos_as_xyz
1 x,y,z
2 1/2-x,1/2+y,1/2-z
3 -x,-y,-z
4 1/2+x,1/2-y,1/2+z
_cell_length_a                   8.6864(10)
_cell_length_b                   14.2414(18)
_cell_length_c                   16.885(2)
_cell_angle_alpha                90
_cell_angle_beta                 100.046(3)
_cell_angle_gamma                90
_cell_volume                     2056.76
loop_
_atom_site_label
_atom_site_type_symbol
_atom_site_fract_x
_atom_site_fract_y
_atom_site_fract_z
C1 C -0.2638(4) -0.1249(2) -0.41388(19)
C2 C -0.3799(4) -0.0556(2) -0.45798(17)
C3 C -0.5899(4) -0.0320(2) -0.57238(18)
C4 C -0.6856(4) -0.0730(2) -0.64812(18)
C5 C -0.4686(4) -0.0856(2) -0.52999(18)
H1 H -0.4462 -0.1435 -0.5507
C6 C 0.0613(3) -0.5332(2) -0.47750(19)
H2 H 0.0905 -0.5770 -0.5171
C7 C 0.2111(3) -0.4811(2) -0.43862(16)
H3 H 0.2585 -0.4522 -0.4805
H4 H 0.1837 -0.4315 -0.4042
C8 C -0.1311(4) -0.6003(2) -0.30344(18)
H5 H -0.1737 -0.5693 -0.2638
C9 C -0.0684(3) -0.5466(2) -0.35671(16)
H6 H -0.0692 -0.4814 -0.3530
C10 C -0.0037(4) -0.5905(2) -0.41635(18)
C11 C -0.0017(3) -0.6877(2) -0.41608(15)
H7 H 0.0437 -0.7205 -0.4537
C12 C -0.0680(3) -0.7356(2) -0.35917(16)
H8 H -0.0651 -0.8009 -0.3596
C13 C 0.3276(4) -0.5454(2) -0.38985(17)
C14 C 0.4166(3) -0.60605(19) -0.42622(17)
H9 H 0.4086 -0.6063 -0.4819
C15 C 0.5177(4) -0.66648(19) -0.37945(16)
H10 H 0.5754 -0.7077 -0.4054
C16 C 0.4517(3) -0.6106(2) -0.26230(17)
H11 H 0.4616 -0.6116 -0.2066
C17 C 0.3474(4) -0.54793(19) -0.30695(16)
H12 H 0.2900 -0.5071 -0.2804
Co1 Co 0.28635(5) -0.24031(3) -0.76685(3)
N1 N -0.1358(3) -0.69335(17) -0.30382(15)
N2 N 0.5384(3) -0.66973(18) -0.29886(15)
O1 O -0.3059(2) -0.16228(15) -0.35402(13)
O2 O -0.1431(2) -0.14588(14) -0.44206(11)
O3 O -0.8206(2) -0.04230(14) -0.66926(12)
O4 O -0.6216(2) -0.13614(15) -0.68266(12)
O5 O 0.4404(2) -0.20108(13) -0.84817(10)
H13 H 0.3956 -0.2115 -0.8963
H14 H 0.5240 -0.2332 -0.8379
O6 O 0.1138(2) -0.14234(14) -0.81555(11)
H15 H 0.0369 -0.1459 -0.7907
H16 H 0.1519 -0.0873 -0.8106
C1B C -0.7362(4) 0.1249(2) -0.58612(19)
C2B C -0.6201(4) 0.0556(2) -0.54202(17)
C3B C -0.4101(4) 0.0320(2) -0.42762(18)
C4B C -0.3144(4) 0.0730(2) -0.35188(18)
C5B C -0.5314(4) 0.0856(2) -0.47001(18)
H1B H -0.5538 0.1435 -0.4493
C6B C -0.0613(3) -0.4668(2) -0.52250(19)
H2B H -0.0905 -0.4230 -0.4829
C7B C -0.2111(3) -0.5189(2) -0.56138(16)
H3B H -0.2585 -0.5478 -0.5195
H4B H -0.1837 -0.5685 -0.5958
C8B C 0.1311(4) -0.3997(2) -0.69656(18)
H5B H 0.1737 -0.4307 -0.7362
C9B C 0.0684(3) -0.4534(2) -0.64329(16)
H6B H 0.0692 -0.5186 -0.6470
C10B C 0.0037(4) -0.4095(2) -0.58365(18)
C11B C 0.0017(3) -0.3123(2) -0.58392(15)
H7B H -0.0437 -0.2795 -0.5463
C12B C 0.0680(3) -0.2644(2) -0.64083(16)
H8B H 0.0651 -0.1991 -0.6404
C13B C -0.3276(4) -0.4546(2) -0.61015(17)
C14B C -0.4166(3) -0.39395(19) -0.57378(17)
H9B H -0.4086 -0.3937 -0.5181
C15B C -0.5177(4) -0.33352(19) -0.62055(16)
H10B H -0.5754 -0.2923 -0.5946
C16B C -0.4517(3) -0.3894(2) -0.73770(17)
H11B H -0.4616 -0.3884 -0.7934
C17B C -0.3474(4) -0.45207(19) -0.69305(16)
H12B H -0.2900 -0.4929 -0.7196
Co1B Co -0.28635(5) -0.75969(3) -0.23315(3)
Co1B_2 Co 0.71365(5) -0.75969(3) -0.23315(3)
Co1C Co -0.21365(5) -0.25969(3) -0.26685(3)
Co1_2 Co -0.71365(5) -0.24031(3) -0.76685(3)
Co1B_3 Co -0.28635(5) 0.24031(3) -0.23315(3)
Co1A Co -0.78635(5) 0.25969(3) -0.73315(3)
N1B N 0.1358(3) -0.30665(17) -0.69618(15)
N1B_2 N -0.8642(3) -0.30665(17) -0.69618(15)
N2B N -0.5384(3) -0.33027(18) -0.70114(15)
N2B_2 N 0.4616(3) -0.33027(18) -0.70114(15)
O1C O 0.1941(2) -0.33772(15) -0.85402(13)
O1C_2 O -0.8059(2) -0.33772(15) -0.85402(13)
O1B O -0.6941(2) 0.16228(15) -0.64598(13)
O2B O -0.8569(2) 0.14588(14) -0.55794(11)
O3B O -0.1794(2) 0.04230(14) -0.33074(12)
O4_2 O 0.3784(2) -0.13614(15) -0.68266(12)
O4B O -0.3784(2) 0.13614(15) -0.31734(12)
O5_2 O -0.5596(2) -0.20108(13) -0.84817(10)
H13_2 H -0.6044 -0.2115 -0.8963
H14_2 H -0.4760 -0.2332 -0.8379
O6_2 O -0.8862(2) -0.14234(14) -0.81555(11)
H15_2 H -0.9631 -0.1459 -0.7907
H16_2 H -0.8481 -0.0873 -0.8106
O7 O 0.6002(6) -0.5447(4) -0.9182(3)
H17 H 0.5473 -0.5618 -0.9631
H18 H 0.6172 -0.4860 -0.9191
O8 O 0.3005(8) -0.6389(5) -0.0608(4)
H19 H 0.2508 -0.6702 -0.0307
H20 H 0.3554 -0.5971 -0.0331
O9 O 0.2065(7) -0.7891(4) -0.1753(3)
H21 H 0.1761 -0.8089 -0.1331
H22 H 0.1759 -0.7329 -0.1846
loop_
_geom_bond_atom_site_label_1
_geom_bond_atom_site_label_2
_geom_bond_site_symmetry_1
_geom_bond_site_symmetry_2
C1 C2 1_555 1_555
C2 C5 1_555 1_555
C3 C4 1_555 1_555
C4 O3 1_555 1_555
C5 C3 1_555 1_555
H1 C5 1_555 1_555
C6 H2 1_555 1_555
C7 C6 1_555 1_555
H3 C7 1_555 1_555
H4 C7 1_555 1_555
C8 H5 1_555 1_555
C9 C8 1_555 1_555
H6 C9 1_555 1_555
C10 C6 1_555 1_555
C11 C10 1_555 1_555
H7 C11 1_555 1_555
C12 C11 1_555 1_555
H8 C12 1_555 1_555
C13 C7 1_555 1_555
C14 C13 1_555 1_555
H9 C14 1_555 1_555
C15 C14 1_555 1_555
H10 C15 1_555 1_555
C16 H11 1_555 1_555
C17 C13 1_555 1_555
H12 C17 1_555 1_555
Co1 O5 1_555 1_555
N1 C8 1_555 1_555
N2 C15 1_555 1_555
O1 C1 1_555 1_555
O2 C1 1_555 1_555
O4 C4 1_555 1_555
O5 H13 1_555 1_555
H14 O5 1_555 1_555
O6 Co1 1_555 1_555
H15 O6 1_555 1_555
H16 O6 1_555 1_555
O7 H17 1_555 1_555
H18 O7 1_555 1_555
O8 H19 1_555 1_555
H20 O8 1_555 1_555
O9 H21 1_555 1_555
H22 O9 1_555 1_555
C1B C2B 1_555 1_555
C2B C3 1_555 1_555
C3B C2 1_555 1_555
C4B C3B 1_555 1_555
C5B C2B 1_555 1_555
H1B C5B 1_555 1_555
C6B C6 1_555 1_555
H2B C6B 1_555 1_555
C7B C6B 1_555 1_555
H3B C7B 1_555 1_555
H4B C7B 1_555 1_555
C8B H5B 1_555 1_555
C9B C8B 1_555 1_555
H6B C9B 1_555 1_555
C10B C6B 1_555 1_555
C11B C10B 1_555 1_555
H7B C11B 1_555 1_555
C12B C11B 1_555 1_555
H8B C12B 1_555 1_555
C13B C7B 1_555 1_555
C14B C13B 1_555 1_555
H9B C14B 1_555 1_555
C15B C14B 1_555 1_555
H10B C15B 1_555 1_555
C16B H11B 1_555 1_555
C17B C13B 1_555 1_555
H12B C17B 1_555 1_555
Co1B N1 1_555 1_555
Co1B_2 N2 1_555 1_555
Co1C O1 1_555 1_555
Co1_2 O4 1_555 1_555
Co1B_3 O4B 1_555 1_555
Co1A O1B 1_555 1_555
N1B Co1 1_555 1_555
N1B_2 Co1_2 1_555 1_555
N2B C15B 1_555 1_555
N2B_2 Co1 1_555 1_555
O1C Co1 1_555 1_555
O1C_2 Co1_2 1_555 1_555
O1B C1B 1_555 1_555
O2B C1B 1_555 1_555
O3B C4B 1_555 1_555
O4_2 Co1 1_555 1_555
O4B C4B 1_555 1_555
O5_2 Co1_2 1_555 1_555
H13_2 O5_2 1_555 1_555
H14_2 O5_2 1_555 1_555
O6_2 Co1_2 1_555 1_555
H15_2 O6_2 1_555 1_555
H16_2 O6_2 1_555 1_555
C9 C10 1_555 1_555
C12 N1 1_555 1_555
C16 C17 1_555 1_555
C16 N2 1_555 1_555
C3B C5B 1_555 1_555
C8B N1B 1_555 1_555
C9B C10B 1_555 1_555
C12B N1B 1_555 1_555
C16B C17B 1_555 1_555
C16B N2B 1_555 1_555
Co1_2 N2B 1_555 1_555

#END
