
#######################################################################
#
#                 Cambridge Crystallographic Data Centre
#                                CCDC 
#
#######################################################################
#
# If this CIF has been generated from an entry in the Cambridge 
# Structural Database, then it will include bibliographic, chemical, 
# crystal, experimental, refinement or atomic coordinate data resulting 
# from the CCDC's data processing and validation procedures.
#
#######################################################################

data_LOZSAW
_chemical_formula_moiety         '(C6 Co1 K1 N6 2-)n'
_symmetry_cell_setting           rhombohedral
_symmetry_space_group_name_H-M   'R -3 m'
_symmetry_Int_Tables_number      166
_space_group_name_Hall           '-R 3 2"'
loop_
_symmetry_equiv_pos_site_id
_symmetry_equiv_pos_as_xyz
1 x,y,z
2 -y,x-y,z
3 -x+y,-x,z
4 y,x,-z
5 x-y,-y,-z
6 -x,-x+y,-z
7 2/3+x,1/3+y,1/3+z
8 2/3-y,1/3+x-y,1/3+z
9 2/3-x+y,1/3-x,1/3+z
10 2/3+y,1/3+x,1/3-z
11 2/3+x-y,1/3-y,1/3-z
12 2/3-x,1/3-x+y,1/3-z
13 1/3+x,2/3+y,2/3+z
14 1/3-y,2/3+x-y,2/3+z
15 1/3-x+y,2/3-x,2/3+z
16 1/3+y,2/3+x,2/3-z
17 1/3+x-y,2/3-y,2/3-z
18 1/3-x,2/3-x+y,2/3-z
19 -x,-y,-z
20 y,-x+y,-z
21 x-y,x,-z
22 -y,-x,z
23 -x+y,y,z
24 x,x-y,z
25 1/3-x,2/3-y,2/3-z
26 1/3+y,2/3-x+y,2/3-z
27 1/3+x-y,2/3+x,2/3-z
28 1/3-y,2/3-x,2/3+z
29 1/3-x+y,2/3+y,2/3+z
30 1/3+x,2/3+x-y,2/3+z
31 2/3-x,1/3-y,1/3-z
32 2/3+y,1/3-x+y,1/3-z
33 2/3+x-y,1/3+x,1/3-z
34 2/3-y,1/3-x,1/3+z
35 2/3-x+y,1/3+y,1/3+z
36 2/3+x,1/3+x-y,1/3+z
_cell_length_a                   8.7151(12)
_cell_length_b                   8.7151(12)
_cell_length_c                   19.011(4)
_cell_angle_alpha                90
_cell_angle_beta                 90
_cell_angle_gamma                120
_cell_volume                     1250.49
loop_
_atom_site_label
_atom_site_type_symbol
_atom_site_fract_x
_atom_site_fract_y
_atom_site_fract_z
Co1 Co 0.6667 0.3333 0.3333
K1 K 1.0000 1.0000 0.5000
N1 N 0.83424(14) 0.6685(3) 0.42266(11)
C1 C 0.77042(15) 0.5408(3) 0.39003(11)
N1A N 0.3315(3) 0.16574(33) 0.42266(11)
C1A C 0.4592(3) 0.22962(34) 0.39003(11)
N1B N 0.83426(33) 0.16576(14) 0.42266(11)
C1B C 0.77038(34) 0.22958(15) 0.39003(11)
N1O N 1.0018(3) 0.50091(14) 0.24401(11)
C1O C 0.8741(3) 0.43709(15) 0.27664(11)
N1P N 0.49907(33) -0.0018(3) 0.24401(11)
C1P C 0.56295(34) 0.1259(3) 0.27664(11)
N1Q N 0.49909(14) 0.50093(33) 0.24401(11)
C1Q C 0.56291(15) 0.43705(34) 0.27664(11)
K1_2 K -0.0000 0.0000 0.5000
K1_3 K 1.0000 0.0000 0.5000
K1L K 0.3333 -0.3333 0.1667
K1L_2 K 0.3333 0.6667 0.1667
K1L_3 K 1.3333 0.6667 0.1667
N1A_2 N 1.3315(3) 1.16574(33) 0.42266(11)
N1B_2 N 0.83426(33) 1.16576(14) 0.42266(11)
N1C N 0.6685(3) 0.83424(14) 0.57734(11)
N1D N 1.16574(33) 1.3315(3) 0.57734(11)
N1E N 1.16576(14) 0.83426(33) 0.57734(11)
loop_
_geom_bond_atom_site_label_1
_geom_bond_atom_site_label_2
_geom_bond_site_symmetry_1
_geom_bond_site_symmetry_2
Co1 C1 1_555 1_555
K1 N1 1_555 1_555
N1 C1 1_555 1_555
N1A C1A 1_555 1_555
C1A Co1 1_555 1_555
N1B C1B 1_555 1_555
C1B Co1 1_555 1_555
N1O C1O 1_555 1_555
C1O Co1 1_555 1_555
N1P C1P 1_555 1_555
C1P Co1 1_555 1_555
N1Q C1Q 1_555 1_555
C1Q Co1 1_555 1_555
K1_2 N1A 1_555 1_555
K1_3 N1B 1_555 1_555
K1L N1P 1_555 1_555
K1L_2 N1Q 1_555 1_555
K1L_3 N1O 1_555 1_555
N1A_2 K1 1_555 1_555
N1B_2 K1 1_555 1_555
N1C K1 1_555 1_555
N1D K1 1_555 1_555
N1E K1 1_555 1_555

#END
