
#######################################################################
#
#                 Cambridge Crystallographic Data Centre
#                                CCDC 
#
#######################################################################
#
# If this CIF has been generated from an entry in the Cambridge 
# Structural Database, then it will include bibliographic, chemical, 
# crystal, experimental, refinement or atomic coordinate data resulting 
# from the CCDC's data processing and validation procedures.
#
#######################################################################

data_LOZSAW01
_chemical_formula_moiety         '(C6 Co1 K1 N6 2-)n'
_symmetry_cell_setting           rhombohedral
_symmetry_space_group_name_H-M   'R -3 m'
_symmetry_Int_Tables_number      166
_space_group_name_Hall           '-R 3 2"'
loop_
_symmetry_equiv_pos_site_id
_symmetry_equiv_pos_as_xyz
1 x,y,z
2 -y,x-y,z
3 -x+y,-x,z
4 y,x,-z
5 x-y,-y,-z
6 -x,-x+y,-z
7 2/3+x,1/3+y,1/3+z
8 2/3-y,1/3+x-y,1/3+z
9 2/3-x+y,1/3-x,1/3+z
10 2/3+y,1/3+x,1/3-z
11 2/3+x-y,1/3-y,1/3-z
12 2/3-x,1/3-x+y,1/3-z
13 1/3+x,2/3+y,2/3+z
14 1/3-y,2/3+x-y,2/3+z
15 1/3-x+y,2/3-x,2/3+z
16 1/3+y,2/3+x,2/3-z
17 1/3+x-y,2/3-y,2/3-z
18 1/3-x,2/3-x+y,2/3-z
19 -x,-y,-z
20 y,-x+y,-z
21 x-y,x,-z
22 -y,-x,z
23 -x+y,y,z
24 x,x-y,z
25 1/3-x,2/3-y,2/3-z
26 1/3+y,2/3-x+y,2/3-z
27 1/3+x-y,2/3+x,2/3-z
28 1/3-y,2/3-x,2/3+z
29 1/3-x+y,2/3+y,2/3+z
30 1/3+x,2/3+x-y,2/3+z
31 2/3-x,1/3-y,1/3-z
32 2/3+y,1/3-x+y,1/3-z
33 2/3+x-y,1/3+x,1/3-z
34 2/3-y,1/3-x,1/3+z
35 2/3-x+y,1/3+y,1/3+z
36 2/3+x,1/3+x-y,1/3+z
_cell_length_a                   8.738(6)
_cell_length_b                   8.738(6)
_cell_length_c                   18.709(10)
_cell_angle_alpha                90
_cell_angle_beta                 90
_cell_angle_gamma                120
_cell_volume                     1237.1
loop_
_atom_site_label
_atom_site_type_symbol
_atom_site_fract_x
_atom_site_fract_y
_atom_site_fract_z
Co1 Co 1.0000 1.0000 0.5000
C1 C 0.8962(4) 0.7923(7) 0.4427(3)
N1 N 0.8325(4) 0.6651(7) 0.4100(3)
K1 K 0.6667 0.3333 0.3333
C1A C 1.2077(7) 1.1039(8) 0.4427(3)
C1B C 0.8961(8) 1.1038(4) 0.4427(3)
C1C C 0.7923(7) 0.8962(4) 0.5573(3)
C1D C 1.1039(8) 1.2077(7) 0.5573(3)
C1E C 1.1038(4) 0.8961(8) 0.5573(3)
N1A N 1.3349(7) 1.1674(8) 0.4100(3)
N1B N 0.8326(8) 1.1675(4) 0.4100(3)
N1C N 0.6651(7) 0.8325(4) 0.5900(3)
N1D N 1.1674(8) 1.3349(7) 0.5900(3)
N1E N 1.1675(4) 0.8326(8) 0.5900(3)
K1_2 K 1.6667 1.3333 0.3333
K1_3 K 0.6667 1.3333 0.3333
K1C K 0.3333 0.6667 0.6667
K1C_2 K 1.3333 1.6667 0.6667
K1C_3 K 1.3333 0.6667 0.6667
N1A_2 N 0.3349(7) 0.1674(8) 0.4100(3)
N1B_2 N 0.8326(8) 0.1675(4) 0.4100(3)
N1O N 0.9984(7) 0.4992(4) 0.2567(3)
N1P N 0.5007(8) 0.0016(7) 0.2567(3)
N1Q N 0.5008(4) 0.4993(8) 0.2567(3)
loop_
_geom_bond_atom_site_label_1
_geom_bond_atom_site_label_2
_geom_bond_site_symmetry_1
_geom_bond_site_symmetry_2
Co1 C1 1_555 1_555
C1 N1 1_555 1_555
N1 K1 1_555 1_555
K1 N1A_2 1_555 1_555
C1A Co1 1_555 1_555
C1B Co1 1_555 1_555
C1C Co1 1_555 1_555
C1D Co1 1_555 1_555
C1E Co1 1_555 1_555
N1A C1A 1_555 1_555
N1B C1B 1_555 1_555
N1C C1C 1_555 1_555
N1D C1D 1_555 1_555
N1E C1E 1_555 1_555
K1_2 N1A 1_555 1_555
K1_3 N1B 1_555 1_555
K1C N1C 1_555 1_555
K1C_2 N1D 1_555 1_555
K1C_3 N1E 1_555 1_555
N1B_2 K1 1_555 1_555
N1O K1 1_555 1_555
N1P K1 1_555 1_555
N1Q K1 1_555 1_555

#END
