
#######################################################################
#
#                 Cambridge Crystallographic Data Centre
#                                CCDC 
#
#######################################################################
#
# If this CIF has been generated from an entry in the Cambridge 
# Structural Database, then it will include bibliographic, chemical, 
# crystal, experimental, refinement or atomic coordinate data resulting 
# from the CCDC's data processing and validation procedures.
#
#######################################################################

data_HOYROE
_chemical_formula_moiety         '(C39 H33 Ba3 Li6 N15 O27)n'
_symmetry_cell_setting           orthorhombic
_symmetry_space_group_name_H-M   'P 21 21 2'
_symmetry_Int_Tables_number      18
_space_group_name_Hall           'P 2 2ab'
loop_
_symmetry_equiv_pos_site_id
_symmetry_equiv_pos_as_xyz
1 x,y,z
2 -x,-y,z
3 1/2+x,1/2-y,-z
4 1/2-x,1/2+y,-z
_cell_length_a                   10.8783(3)
_cell_length_b                   28.3945(7)
_cell_length_c                   9.2141(2)
_cell_angle_alpha                90
_cell_angle_beta                 90
_cell_angle_gamma                90
_cell_volume                     2846.09
loop_
_atom_site_label
_atom_site_type_symbol
_atom_site_fract_x
_atom_site_fract_y
_atom_site_fract_z
Ba1 Ba 0.14080(2) 0.445194(7) 0.02788(2)
Ba2 Ba 0.5000 0.5000 0.82337(3)
Li1 Li 0.4100(7) 0.1613(2) 0.8425(9)
Li2 Li 0.4182(6) 0.3853(2) 0.9409(8)
Li3 Li 0.7223(6) 0.4396(2) 1.0884(7)
O1 O 0.0747(3) 0.34533(10) 1.0785(3)
O2 O 0.2658(2) 0.35896(9) 1.0025(3)
O3 O 0.0823(3) 0.13693(9) 1.0434(4)
O4 O 0.2626(3) 0.12653(9) 0.9286(3)
O5 O 0.4213(2) 0.44529(10) 0.0614(3)
O6 O 0.5821(2) 0.45078(9) 0.2116(3)
O7 O 0.1720(2) 0.41855(10) 0.7266(3)
O8 O 0.3748(3) 0.42055(9) 0.7681(3)
O9 O 0.7267(2) 0.47477(9) 0.9049(3)
O10 O 0.9234(3) 0.45523(15) 0.8853(3)
O11 O 0.8470(3) 0.47275(9) 0.1924(3)
O12 O 1.0088(3) 0.43460(10) 0.2820(3)
O13 O 0.4166(3) 0.16893(12) 0.6340(3)
N1 N 0.2997(3) 0.26627(11) 0.9348(4)
H1 H 0.3550 0.2855 0.8981
N2 N 0.3035(3) 0.21928(11) 0.9207(4)
N3 N 0.2685(3) 0.42856(11) 0.2918(3)
N4 N 0.2217(3) 0.42172(11) 0.4242(3)
H2 H 0.1430 0.4172 0.4412
N5 N 0.7010(3) 0.46605(11) 0.6050(4)
N6 N 0.7302(3) 0.46405(10) 0.4634(4)
H3 H 0.6766 0.4682 0.3930
N7 N 0.5171(4) 0.18297(14) 0.4220(4)
C1 C 0.1793(3) 0.33220(14) 1.0344(5)
C2 C 0.2011(3) 0.28053(13) 1.0120(4)
C3 C 0.1374(4) 0.24067(13) 1.0516(4)
H4 H 0.0641 0.2389 1.1075
C4 C 0.2042(3) 0.20350(13) 0.9917(4)
C5 C 0.1807(3) 0.15140(13) 0.9892(4)
C6 C 0.4703(3) 0.44411(13) 0.1855(4)
C7 C 0.3896(3) 0.43380(12) 0.3115(4)
C8 C 0.4190(3) 0.43006(12) 0.4598(4)
H5 H 0.4982 0.4322 0.5027
C9 C 0.3087(3) 0.42258(12) 0.5297(5)
C10 C 0.2805(4) 0.41952(12) 0.6868(4)
C11 C 0.8208(3) 0.46200(14) 0.8324(5)
C12 C 0.8089(3) 0.45850(12) 0.6725(5)
C13 C 0.9041(3) 0.45118(14) 0.5749(4)
H6 H 0.9879 0.4449 0.5966
C14 C 0.8515(3) 0.45499(12) 0.4407(4)
C15 C 0.9064(3) 0.45372(13) 0.2935(4)
C16 C 0.5059(5) 0.18167(17) 0.5655(5)
H7 H 0.5751 0.1918 0.6202
C17 C 0.6293(5) 0.1989(2) 0.3525(6)
H8 H 0.6897 0.2076 0.4268
H9 H 0.6113 0.2264 0.2917
H10 H 0.6627 0.1736 0.2919
C18 C 0.4205(6) 0.1677(2) 0.3263(6)
H11 H 0.3543 0.1534 0.3833
H12 H 0.4531 0.1446 0.2575
H13 H 0.3883 0.1949 0.2728
Ba1A Ba 0.85920(2) 0.554806(7) 0.02788(2)
Li1A Li 0.5900(7) 0.8387(2) 0.8425(9)
Li2A Li 0.5818(6) 0.6147(2) 0.9409(8)
Li3A Li 0.2777(6) 0.5604(2) 1.0884(7)
O1A O 0.9253(3) 0.65467(10) 1.0785(3)
O2A O 0.7342(2) 0.64104(9) 1.0025(3)
O3A O 0.9177(3) 0.86307(9) 1.0434(4)
O4A O 0.7374(3) 0.87347(9) 0.9286(3)
O5A O 0.5787(2) 0.55471(10) 0.0614(3)
O6A O 0.4179(2) 0.54922(9) 0.2116(3)
O7A O 0.8280(2) 0.58145(10) 0.7266(3)
O8A O 0.6252(3) 0.57945(9) 0.7681(3)
O9A O 0.2733(2) 0.52523(9) 0.9049(3)
O10A O 0.0766(3) 0.54477(15) 0.8853(3)
O11A O 0.1530(3) 0.52725(9) 0.1924(3)
O12A O -0.0088(3) 0.56540(10) 0.2820(3)
O13A O 0.5834(3) 0.83107(12) 0.6340(3)
N1A N 0.7003(3) 0.73373(11) 0.9348(4)
H1A H 0.6450 0.7145 0.8981
N2A N 0.6965(3) 0.78072(11) 0.9207(4)
N3A N 0.7315(3) 0.57144(11) 0.2918(3)
N4A N 0.7783(3) 0.57828(11) 0.4242(3)
H2A H 0.8570 0.5828 0.4412
N5A N 0.2990(3) 0.53395(11) 0.6050(4)
N6A N 0.2698(3) 0.53595(10) 0.4634(4)
H3A H 0.3234 0.5318 0.3930
N7A N 0.4829(4) 0.81703(14) 0.4220(4)
C1A C 0.8207(3) 0.66780(14) 1.0344(5)
C2A C 0.7989(3) 0.71947(13) 1.0120(4)
C3A C 0.8626(4) 0.75933(13) 1.0516(4)
H4A H 0.9359 0.7611 1.1075
C4A C 0.7958(3) 0.79650(13) 0.9917(4)
C5A C 0.8193(3) 0.84860(13) 0.9892(4)
C6A C 0.5297(3) 0.55589(13) 0.1855(4)
C7A C 0.6104(3) 0.56620(12) 0.3115(4)
C8A C 0.5810(3) 0.56994(12) 0.4598(4)
H5A H 0.5018 0.5678 0.5027
C9A C 0.6913(3) 0.57742(12) 0.5297(5)
C10A C 0.7195(4) 0.58048(12) 0.6868(4)
C11A C 0.1792(3) 0.53800(14) 0.8324(5)
C12A C 0.1911(3) 0.54150(12) 0.6725(5)
C13A C 0.0959(3) 0.54882(14) 0.5749(4)
H6A H 0.0121 0.5551 0.5966
C14A C 0.1485(3) 0.54501(12) 0.4407(4)
C15A C 0.0936(3) 0.54628(13) 0.2935(4)
C16A C 0.4941(5) 0.81833(17) 0.5655(5)
H7A H 0.4249 0.8082 0.6202
C17A C 0.3707(5) 0.8011(2) 0.3525(6)
H8A H 0.3103 0.7924 0.4268
H9A H 0.3887 0.7736 0.2917
H10A H 0.3373 0.8264 0.2919
C18A C 0.5795(6) 0.8323(2) 0.3263(6)
H11A H 0.6457 0.8466 0.3833
H12A H 0.5469 0.8554 0.2575
H13A H 0.6117 0.8051 0.2728
Ba1_2 Ba 0.14080(2) 0.445194(7) 1.02788(2)
Ba1_3 Ba 1.14080(2) 0.445194(7) 0.02788(2)
Ba1_4 Ba 1.14080(2) 0.445194(7) 1.02788(2)
Ba1A_2 Ba -0.14080(2) 0.554806(7) 0.02788(2)
Ba1A_3 Ba -0.14080(2) 0.554806(7) 1.02788(2)
Ba1A_4 Ba 0.85920(2) 0.554806(7) 1.02788(2)
Ba2_2 Ba 0.5000 0.5000 -0.17663(3)
Li1B Li -0.0900(7) 0.3387(2) 1.1575(9)
Li1C Li 1.0900(7) 0.6613(2) 1.1575(9)
Li2_2 Li 0.4182(6) 0.3853(2) -0.0591(8)
Li2A_2 Li 0.5818(6) 0.6147(2) -0.0591(8)
Li2B Li -0.0818(6) 0.1147(2) 1.0591(8)
Li2C Li 1.0818(6) 0.8853(2) 1.0591(8)
Li3_2 Li 0.7223(6) 0.4396(2) 0.0884(7)
Li3A_2 Li 0.2777(6) 0.5604(2) 0.0884(7)
Li3B Li 0.2223(6) 0.0604(2) 0.9116(7)
Li3C Li 0.7777(6) 0.9396(2) 0.9116(7)
O1_2 O 0.0747(3) 0.34533(10) 0.0785(3)
O1A_2 O 0.9253(3) 0.65467(10) 0.0785(3)
O1B O 0.5747(3) 0.15467(10) 0.9215(3)
O1C O 0.4253(3) 0.84533(10) 0.9215(3)
O2_2 O 0.2658(2) 0.35896(9) 0.0025(3)
O2A_2 O 0.7342(2) 0.64104(9) 0.0025(3)
O3B O 0.5823(3) 0.36307(9) 0.9566(4)
O3C O 0.4177(3) 0.63693(9) 0.9566(4)
O4B O 0.7626(3) 0.37347(9) 1.0714(3)
O4C O 0.2374(3) 0.62653(9) 1.0714(3)
O5_2 O 0.4213(2) 0.44529(10) 1.0614(3)
O5A_2 O 0.5787(2) 0.55471(10) 1.0614(3)
O6_2 O 0.5821(2) 0.45078(9) 1.2116(3)
O6A_2 O 0.4179(2) 0.54922(9) 1.2116(3)
O7_2 O 0.1720(2) 0.41855(10) -0.2734(3)
O7A_2 O 0.8280(2) 0.58145(10) -0.2734(3)
O9_2 O 0.7267(2) 0.47477(9) -0.0951(3)
O9A_2 O 0.2733(2) 0.52523(9) -0.0951(3)
O10_2 O -0.0766(3) 0.45523(15) -0.1147(3)
O10_3 O 0.9234(3) 0.45523(15) -0.1147(3)
O10A_2 O 0.0766(3) 0.54477(15) -0.1147(3)
O10A_3 O 1.0766(3) 0.54477(15) -0.1147(3)
O11_2 O 0.8470(3) 0.47275(9) 1.1924(3)
O11A_2 O 0.1530(3) 0.52725(9) 1.1924(3)
O12_2 O 0.0088(3) 0.43460(10) 0.2820(3)
O12A_2 O 0.9912(3) 0.56540(10) 0.2820(3)
O14 O 0.4204(3) 0.30309(13) 0.6921(4)
N8 N 0.5183(4) 0.31956(13) 0.4817(5)
C19 C 0.5080(5) 0.31926(16) 0.6248(5)
H14 H 0.5734 0.3326 0.6794
C20 C 0.6254(5) 0.34028(18) 0.4089(6)
H15 H 0.5976 0.3627 0.3350
H16 H 0.6736 0.3153 0.3628
H17 H 0.6764 0.3567 0.4805
C21 C 0.4199(5) 0.30299(19) 0.3912(6)
H18 H 0.3711 0.2797 0.4446
H19 H 0.4542 0.2884 0.3038
H20 H 0.3674 0.3296 0.3635
loop_
_geom_bond_atom_site_label_1
_geom_bond_atom_site_label_2
_geom_bond_site_symmetry_1
_geom_bond_site_symmetry_2
Ba1 O5 1_555 1_555
Ba2 O8 1_555 1_555
Li1 O4 1_555 1_555
Li2 O2 1_555 1_555
Li3 O9 1_555 1_555
O1 C1 1_555 1_555
O2 C1 1_555 1_555
O3 C5 1_555 1_555
O4 C5 1_555 1_555
O5 C6 1_555 1_555
O6 C6 1_555 1_555
O7 C10 1_555 1_555
O8 Li2 1_555 1_555
O9 Ba2 1_555 1_555
O10 C11 1_555 1_555
O11 C15 1_555 1_555
O12 C15 1_555 1_555
O13 Li1 1_555 1_555
N1 H1 1_555 1_555
N2 Li1 1_555 1_555
N3 Ba1 1_555 1_555
N4 N3 1_555 1_555
H2 N4 1_555 1_555
N5 Ba2 1_555 1_555
N6 N5 1_555 1_555
H3 N6 1_555 1_555
N7 C16 1_555 1_555
C1 C2 1_555 1_555
C2 N1 1_555 1_555
C3 C2 1_555 1_555
H4 C3 1_555 1_555
C4 N2 1_555 1_555
C5 C4 1_555 1_555
C6 C7 1_555 1_555
C7 N3 1_555 1_555
C8 C7 1_555 1_555
H5 C8 1_555 1_555
C9 N4 1_555 1_555
C10 O8 1_555 1_555
C11 O9 1_555 1_555
C12 N5 1_555 1_555
C13 C12 1_555 1_555
H6 C13 1_555 1_555
C14 N6 1_555 1_555
C15 C14 1_555 1_555
C16 O13 1_555 1_555
H7 C16 1_555 1_555
C17 N7 1_555 1_555
H8 C17 1_555 1_555
H9 C17 1_555 1_555
H10 C17 1_555 1_555
C18 N7 1_555 1_555
H11 C18 1_555 1_555
H12 C18 1_555 1_555
H13 C18 1_555 1_555
O14 C19 1_555 1_555
N8 C19 1_555 1_555
C19 H14 1_555 1_555
C20 N8 1_555 1_555
H15 C20 1_555 1_555
H16 C20 1_555 1_555
H17 C20 1_555 1_555
C21 N8 1_555 1_555
H18 C21 1_555 1_555
H19 C21 1_555 1_555
H20 C21 1_555 1_555
Ba1A O11 1_555 1_555
Li1A O4A 1_555 1_555
Li2A O2A 1_555 1_555
Li3A O9A 1_555 1_555
O1A C1A 1_555 1_555
O2A C1A 1_555 1_555
O3A C5A 1_555 1_555
O4A C5A 1_555 1_555
O5A Ba1A 1_555 1_555
O6A C6A 1_555 1_555
O7A C10A 1_555 1_555
O8A Ba2 1_555 1_555
O9A Ba2 1_555 1_555
O10A C11A 1_555 1_555
O11A Ba1 1_555 1_555
O12A C15A 1_555 1_555
O13A Li1A 1_555 1_555
N1A H1A 1_555 1_555
N2A Li1A 1_555 1_555
N3A Ba1A 1_555 1_555
N4A N3A 1_555 1_555
H2A N4A 1_555 1_555
N5A Ba2 1_555 1_555
N6A N5A 1_555 1_555
H3A N6A 1_555 1_555
N7A C16A 1_555 1_555
C1A C2A 1_555 1_555
C2A N1A 1_555 1_555
C3A C2A 1_555 1_555
H4A C3A 1_555 1_555
C4A N2A 1_555 1_555
C5A C4A 1_555 1_555
C6A O5A 1_555 1_555
C7A N3A 1_555 1_555
C8A C7A 1_555 1_555
H5A C8A 1_555 1_555
C9A N4A 1_555 1_555
C10A O8A 1_555 1_555
C11A O9A 1_555 1_555
C12A N5A 1_555 1_555
C13A C12A 1_555 1_555
H6A C13A 1_555 1_555
C14A N6A 1_555 1_555
C15A O11A 1_555 1_555
C16A O13A 1_555 1_555
H7A C16A 1_555 1_555
C17A N7A 1_555 1_555
H8A C17A 1_555 1_555
H9A C17A 1_555 1_555
H10A C17A 1_555 1_555
C18A N7A 1_555 1_555
H11A C18A 1_555 1_555
H12A C18A 1_555 1_555
H13A C18A 1_555 1_555
Ba1_2 O1 1_555 1_555
Ba1_3 O12 1_555 1_555
Ba1_4 O10 1_555 1_555
Ba1A_2 O12A 1_555 1_555
Ba1A_3 O10A 1_555 1_555
Ba1A_4 O9 1_555 1_555
Ba2_2 O5 1_555 1_555
Li1B O1 1_555 1_555
Li1C O1A 1_555 1_555
Li2_2 O5 1_555 1_555
Li2A_2 O5A 1_555 1_555
Li2B O3 1_555 1_555
Li2C O3A 1_555 1_555
Li3_2 O6 1_555 1_555
Li3A_2 O6A 1_555 1_555
Li3B O4 1_555 1_555
Li3C O4A 1_555 1_555
O1_2 Ba1 1_555 1_555
O1A_2 Ba1A 1_555 1_555
O1B Li1 1_555 1_555
O1C Li1A 1_555 1_555
O2_2 Ba1 1_555 1_555
O2A_2 Ba1A 1_555 1_555
O3B Li2 1_555 1_555
O3C Li2A 1_555 1_555
O4B Li3 1_555 1_555
O4C Li3A 1_555 1_555
O5_2 Ba2 1_555 1_555
O5A_2 Ba2 1_555 1_555
O6_2 Li3 1_555 1_555
O6A_2 Li3A 1_555 1_555
O7_2 Ba1 1_555 1_555
O7A_2 Ba1A 1_555 1_555
O9_2 Ba1A 1_555 1_555
O9A_2 Ba1 1_555 1_555
O10_2 Ba1 1_555 1_555
O10_3 Ba1A 1_555 1_555
O10A_2 Ba1 1_555 1_555
O10A_3 Ba1A 1_555 1_555
O11_2 Li3 1_555 1_555
O11A_2 Li3A 1_555 1_555
O12_2 Ba1 1_555 1_555
O12A_2 Ba1A 1_555 1_555
Li2 O5_2 1_555 1_555
O2 Ba1_2 1_555 1_555
O7 Ba1_2 1_555 1_555
O10 Ba1A_4 1_555 1_555
O11 Li3_2 1_555 1_555
N1 N2 1_555 1_555
C3 C4 1_555 1_555
C8 C9 1_555 1_555
C9 C10 1_555 1_555
C11 C12 1_555 1_555
C13 C14 1_555 1_555
Li2A O8A 1_555 1_555
Li2A O5A_2 1_555 1_555
O1A Ba1A_4 1_555 1_555
O2A Ba1A_4 1_555 1_555
O5A Ba2_2 1_555 1_555
O7A Ba1A_4 1_555 1_555
O9A Ba1_2 1_555 1_555
O10A Ba1_2 1_555 1_555
O11A Li3A_2 1_555 1_555
N1A N2A 1_555 1_555
C3A C4A 1_555 1_555
C6A C7A 1_555 1_555
C8A C9A 1_555 1_555
C9A C10A 1_555 1_555
C11A C12A 1_555 1_555
C13A C14A 1_555 1_555
C14A C15A 1_555 1_555
Ba1_2 O5_2 1_555 1_555
Ba1_2 O11A_2 1_555 1_555
Ba1_3 O10_3 1_555 1_555
Ba1_3 O10A_3 1_555 1_555
Ba1A_2 O10_2 1_555 1_555
Ba1A_2 O10A_2 1_555 1_555
Ba1A_4 O5A_2 1_555 1_555
Ba1A_4 O11_2 1_555 1_555
Ba2_2 O9_2 1_555 1_555
Ba2_2 O9A_2 1_555 1_555
Li2_2 O2_2 1_555 1_555
Li2A_2 O2A_2 1_555 1_555
Li3_2 O9_2 1_555 1_555
Li3A_2 O9A_2 1_555 1_555

#END
