
#######################################################################
#
#                 Cambridge Crystallographic Data Centre
#                                CCDC 
#
#######################################################################
#
# If this CIF has been generated from an entry in the Cambridge 
# Structural Database, then it will include bibliographic, chemical, 
# crystal, experimental, refinement or atomic coordinate data resulting 
# from the CCDC's data processing and validation procedures.
#
#######################################################################

data_LAGHIL
_chemical_formula_moiety         '(C12 H10 Cu1 N2 O5)n'
_symmetry_cell_setting           trigonal
_symmetry_space_group_name_H-M   'P 32 2 1'
_symmetry_Int_Tables_number      154
_space_group_name_Hall           'P 32 2"'
loop_
_symmetry_equiv_pos_site_id
_symmetry_equiv_pos_as_xyz
1 x,y,z
2 -y,x-y,2/3+z
3 -x+y,-x,1/3+z
4 y,x,-z
5 x-y,-y,1/3-z
6 -x,-x+y,2/3-z
_cell_length_a                   9.0718(14)
_cell_length_b                   9.0718(14)
_cell_length_c                   16.891(2)
_cell_angle_alpha                90
_cell_angle_beta                 90
_cell_angle_gamma                120
_cell_volume                     1203.85
loop_
_atom_site_label
_atom_site_type_symbol
_atom_site_fract_x
_atom_site_fract_y
_atom_site_fract_z
Cu1 Cu 0.45777(10) 0.45777(10) 0.0000
O1 O 0.7526(10) 0.6626(9) -0.1025(4)
O2 O 0.5075(7) 0.4197(6) -0.1088(3)
O3 O 0.2007(11) 0.2007(11) 0.0000
H1 H 0.1514 0.1897 -0.0421
N1 N 0.6686(7) 0.2452(7) -0.2950(3)
C1 C 0.6523(9) 0.5229(10) -0.1338(3)
C2 C 0.7119(9) 0.4700(9) -0.2064(4)
C3 C 0.8564(15) 0.5809(11) -0.2446(5)
H2 H 0.9183 0.6937 -0.2282
C4 C 0.9116(17) 0.5242(12) -0.3087(5)
H3 H 1.0121 0.5977 -0.3350
C5 C 0.8138(12) 0.3568(11) -0.3324(4)
H4 H 0.8493 0.3193 -0.3757
C6 C 0.6205(8) 0.3014(9) -0.2336(3)
H5 H 0.5213 0.2256 -0.2071
H1C H 0.1897 0.1514 0.0421
O1C O 0.6626(9) 0.7526(10) 0.1025(4)
O2C O 0.4197(6) 0.5075(7) 0.1088(3)
N1C N 0.2452(7) 0.6686(7) 0.2950(3)
C1C C 0.5229(10) 0.6523(9) 0.1338(3)
C2C C 0.4700(9) 0.7119(9) 0.2064(4)
C3C C 0.5809(11) 0.8564(15) 0.2446(5)
H2C H 0.6937 0.9183 0.2282
C4C C 0.5242(12) 0.9116(17) 0.3087(5)
H3C H 0.5977 1.0121 0.3350
C5C C 0.3568(11) 0.8138(12) 0.3324(4)
H4C H 0.3193 0.8493 0.3757
C6C C 0.3014(9) 0.6205(8) 0.2336(3)
H5C H 0.2256 0.5213 0.2071
N1B N 0.5766(10) 0.3314(7) 0.0383(3)
N1E N 0.3314(7) 0.5766(10) -0.0383(3)
Cu1A Cu 0.54223(10) 0.00000(14) -0.3333
Cu1B Cu 0.00000(14) 0.54223(10) 0.3333
loop_
_geom_bond_atom_site_label_1
_geom_bond_atom_site_label_2
_geom_bond_site_symmetry_1
_geom_bond_site_symmetry_2
Cu1 O2 1_555 1_555
O1 C1 1_555 1_555
O2 C1 1_555 1_555
O3 Cu1 1_555 1_555
H1 O3 1_555 1_555
N1 C5 1_555 1_555
C1 C2 1_555 1_555
C2 C3 1_555 1_555
C3 H2 1_555 1_555
C4 C3 1_555 1_555
H3 C4 1_555 1_555
C5 C4 1_555 1_555
H4 C5 1_555 1_555
C6 N1 1_555 1_555
H5 C6 1_555 1_555
H1C O3 1_555 1_555
O1C C1C 1_555 1_555
O2C Cu1 1_555 1_555
N1C C5C 1_555 1_555
C1C O2C 1_555 1_555
C2C C1C 1_555 1_555
C3C C2C 1_555 1_555
H2C C3C 1_555 1_555
C4C C3C 1_555 1_555
H3C C4C 1_555 1_555
C5C C4C 1_555 1_555
H4C C5C 1_555 1_555
C6C N1C 1_555 1_555
H5C C6C 1_555 1_555
N1B Cu1 1_555 1_555
N1E Cu1 1_555 1_555
Cu1A N1 1_555 1_555
Cu1B N1C 1_555 1_555
C2 C6 1_555 1_555
C2C C6C 1_555 1_555

#END
