
#######################################################################
#
#                 Cambridge Crystallographic Data Centre
#                                CCDC 
#
#######################################################################
#
# If this CIF has been generated from an entry in the Cambridge 
# Structural Database, then it will include bibliographic, chemical, 
# crystal, experimental, refinement or atomic coordinate data resulting 
# from the CCDC's data processing and validation procedures.
#
#######################################################################

data_SUJQOE
_chemical_formula_moiety         '(C21 H23 N3 O6 Zn1)n'
_symmetry_cell_setting           orthorhombic
_symmetry_space_group_name_H-M   'P b c a'
_symmetry_Int_Tables_number      61
_space_group_name_Hall           '-P 2ac 2ab'
loop_
_symmetry_equiv_pos_site_id
_symmetry_equiv_pos_as_xyz
1 x,y,z
2 1/2-x,-y,1/2+z
3 -x,1/2+y,1/2-z
4 1/2+x,1/2-y,-z
5 -x,-y,-z
6 1/2+x,y,1/2-z
7 x,1/2-y,1/2+z
8 1/2-x,1/2+y,z
_cell_length_a                   13.7372(16)
_cell_length_b                   14.7731(17)
_cell_length_c                   21.075(3)
_cell_angle_alpha                90
_cell_angle_beta                 90
_cell_angle_gamma                90
_cell_volume                     4276.98
loop_
_atom_site_label
_atom_site_type_symbol
_atom_site_fract_x
_atom_site_fract_y
_atom_site_fract_z
Zn1 Zn -0.52877(2) -0.09766(2) 0.061610(14)
O1 O -0.52531(17) -0.15267(16) 0.15305(10)
O2 O -0.5251(2) -0.26186(19) 0.08308(11)
O3 O -0.47673(16) -0.46951(14) 0.40377(10)
O4 O -0.54249(16) -0.36743(15) 0.46966(10)
N1 N -0.37144(18) -0.10094(17) 0.05509(11)
N2 N 0.31348(19) -0.08791(17) 0.06563(11)
C1 C -0.5233(2) -0.2359(2) 0.13906(15)
C2 C -0.5192(2) -0.3045(2) 0.19108(15)
H1 H -0.5134 -0.3659 0.1799
C3 C -0.5234(2) -0.2834(2) 0.25211(14)
H2 H -0.5316 -0.2221 0.2630
C4 C -0.5162(2) -0.3491(2) 0.30320(13)
H3 H -0.5079 -0.4104 0.2925
C5 C -0.5207(2) -0.3270(2) 0.36395(14)
H4 H -0.5296 -0.2658 0.3746
C6 C -0.5124(2) -0.3939(2) 0.41624(14)
C7 C -0.3156(2) -0.0597(2) 0.09950(14)
H5 H -0.3470 -0.0307 0.1335
C8 C -0.2162(2) -0.0578(2) 0.09770(15)
H6 H -0.1810 -0.0278 0.1296
C9 C -0.1676(2) -0.1007(2) 0.04830(14)
C10 C -0.2232(2) -0.1436(2) 0.00262(15)
H7 H -0.1932 -0.1729 -0.0318
C11 C -0.3230(2) -0.1429(2) 0.00826(14)
H8 H -0.3596 -0.1737 -0.0226
C12 C -0.0614(2) -0.1032(2) 0.04207(16)
H9 H -0.0364 -0.1295 0.0049
C13 C 0.0034(2) -0.0719(2) 0.08374(16)
H10 H -0.0206 -0.0449 0.1210
C14 C 0.2540(2) -0.1210(2) 0.02067(14)
H11 H 0.2825 -0.1486 -0.0150
C15 C 0.1546(2) -0.1170(2) 0.02343(14)
H12 H 0.1169 -0.1412 -0.0097
C16 C 0.1093(2) -0.0768(2) 0.07571(14)
C17 C 0.1712(2) -0.0425(2) 0.12248(15)
H13 H 0.1449 -0.0146 0.1587
C18 C 0.2706(2) -0.0494(2) 0.11565(14)
H14 H 0.3104 -0.0257 0.1479
Zn1B Zn -0.47123(2) -0.59766(2) 0.438390(14)
Zn1F Zn -0.52877(2) -0.40234(2) 0.561610(14)
Zn1_2 Zn 0.47123(2) -0.09766(2) 0.061610(14)
O3B O -0.52327(16) 0.03049(14) 0.09623(10)
O4F O -0.54249(16) -0.13257(15) -0.03034(10)
N2_2 N -0.68652(19) -0.08791(17) 0.06563(11)
O5 O -0.5543(3) -0.4501(2) 0.76433(13)
H15 H -0.535(4) -0.419(3) 0.7327(17)
H16 H -0.605(2) -0.482(3) 0.760(2)
C19 C -0.7749(5) -0.2003(4) 0.8457(3)
H17 H -0.7174 -0.2295 0.8628
H18 H -0.8326 -0.2305 0.8615
H19 H -0.7759 -0.1373 0.8586
C20 C -0.7749(16) -0.2949(8) 0.7475(9)
H20 H -0.7802 -0.2884 0.7018
H21 H -0.8303 -0.3286 0.7634
H22 H -0.7154 -0.3270 0.7578
C21 C -0.7725(6) -0.1308(5) 0.7414(4)
H23 H -0.7805 -0.1389 0.6975
N3 N -0.7730(5) -0.2056(5) 0.7768(3)
O6 O -0.7631(13) -0.0550(7) 0.7593(11)
loop_
_geom_bond_atom_site_label_1
_geom_bond_atom_site_label_2
_geom_bond_site_symmetry_1
_geom_bond_site_symmetry_2
Zn1 O1 1_555 1_555
O1 C1 1_555 1_555
O2 Zn1 1_555 1_555
O3 C6 1_555 1_555
O4 C6 1_555 1_555
N1 Zn1 1_555 1_555
N2 C14 1_555 1_555
C1 O2 1_555 1_555
C2 C1 1_555 1_555
H1 C2 1_555 1_555
C3 C2 1_555 1_555
H2 C3 1_555 1_555
C4 C3 1_555 1_555
H3 C4 1_555 1_555
C5 C4 1_555 1_555
H4 C5 1_555 1_555
C6 C5 1_555 1_555
C7 N1 1_555 1_555
H5 C7 1_555 1_555
C8 C7 1_555 1_555
H6 C8 1_555 1_555
C9 C8 1_555 1_555
C10 C9 1_555 1_555
H7 C10 1_555 1_555
C11 N1 1_555 1_555
H8 C11 1_555 1_555
C12 C9 1_555 1_555
H9 C12 1_555 1_555
C13 C12 1_555 1_555
H10 C13 1_555 1_555
C14 H11 1_555 1_555
C15 C14 1_555 1_555
H12 C15 1_555 1_555
C16 C13 1_555 1_555
C17 C16 1_555 1_555
H13 C17 1_555 1_555
C18 N2 1_555 1_555
H14 C18 1_555 1_555
O5 H15 1_555 1_555
H16 O5 1_555 1_555
C19 H17 1_555 1_555
H18 C19 1_555 1_555
H19 C19 1_555 1_555
C20 H20 1_555 1_555
H21 C20 1_555 1_555
H22 C20 1_555 1_555
C21 H23 1_555 1_555
N3 C19 1_555 1_555
O6 C21 1_555 1_555
Zn1B O3 1_555 1_555
Zn1F O4 1_555 1_555
Zn1_2 N2 1_555 1_555
O3B Zn1 1_555 1_555
O4F Zn1 1_555 1_555
N2_2 Zn1 1_555 1_555
C10 C11 1_555 1_555
C15 C16 1_555 1_555
C17 C18 1_555 1_555
C20 N3 1_555 1_555
C21 N3 1_555 1_555

#END
