
#######################################################################
#
#                 Cambridge Crystallographic Data Centre
#                                CCDC 
#
#######################################################################
#
# If this CIF has been generated from an entry in the Cambridge 
# Structural Database, then it will include bibliographic, chemical, 
# crystal, experimental, refinement or atomic coordinate data resulting 
# from the CCDC's data processing and validation procedures.
#
#######################################################################

data_DOQSAF
_chemical_formula_moiety         '(C18 H9 Mn2 O10 1-)n'
_symmetry_cell_setting           monoclinic
_symmetry_space_group_name_H-M   'C 2/c'
_symmetry_Int_Tables_number      15
_space_group_name_Hall           '-C 2yc'
loop_
_symmetry_equiv_pos_site_id
_symmetry_equiv_pos_as_xyz
1 x,y,z
2 -x,y,1/2-z
3 1/2+x,1/2+y,z
4 1/2-x,1/2+y,1/2-z
5 -x,-y,-z
6 x,-y,1/2+z
7 1/2-x,1/2-y,-z
8 1/2+x,1/2-y,1/2+z
_cell_length_a                   30.577(6)
_cell_length_b                   13.818(3)
_cell_length_c                   16.241(3)
_cell_angle_alpha                90
_cell_angle_beta                 115.81(3)
_cell_angle_gamma                90
_cell_volume                     6177.5
loop_
_atom_site_label
_atom_site_type_symbol
_atom_site_fract_x
_atom_site_fract_y
_atom_site_fract_z
_atom_site_U_iso_or_equiv
_atom_site_thermal_displace_type
Mn1 Mn 1.15163(3) 0.44344(7) 1.48858(5) 0.0811 Uani
Mn2 Mn 1.14793(3) 0.47027(8) 1.71392(5) 0.0833 Uani
O1 O 0.85698(11) 0.4385(3) 1.4019(2) 0.0753 Uani
O2 O 0.88067(12) 0.4244(3) 1.2271(2) 0.0778 Uani
O3 O 1.08098(12) 0.4085(3) 1.6234(2) 0.0893 Uani
O4 O 0.90749(13) 0.4485(3) 1.5474(2) 0.0920 Uani
C1 C 0.89744(17) 0.4170(5) 1.4701(3) 0.0753 Uani
O5 O 1.15479(15) 0.6337(4) 1.3169(3) 0.0979 Uani
C2 C 0.92220(16) 0.2925(4) 1.3817(3) 0.0696 Uani
O6 O 0.71669(12) 0.1129(4) 1.0933(3) 0.0955 Uani
O7 O 1.19211(14) 0.5459(4) 1.4414(3) 0.0931 Uani
C3 C 0.98278(16) 0.3795(4) 1.5080(3) 0.0708 Uani
H1 H 0.9909 0.4207 1.5595 0.0850 Uiso
O8 O 1.10195(13) 0.3502(4) 1.5182(3) 0.0968 Uani
C4 C 1.01965(17) 0.3420(4) 1.4899(3) 0.0761 Uani
C5 C 0.87124(16) 0.2555(4) 1.3280(3) 0.0703 Uani
C6 C 0.86062(18) 0.3473(5) 1.1847(3) 0.0795 Uani
O9 O 0.85133(16) 0.3316(3) 1.1032(2) 0.0931 Uani
C7 C 0.78139(17) 0.1656(4) 1.2303(3) 0.0760 Uani
C8 C 0.80089(16) 0.2248(4) 1.1853(3) 0.0750 Uani
H2 H 0.7841 0.2325 1.1209 0.0900 Uiso
C9 C 1.07130(18) 0.3680(5) 1.5485(4) 0.0807 Uani
C10 C 0.93370(16) 0.3584(4) 1.4526(3) 0.0725 Uani
C11 C 0.80687(18) 0.1515(5) 1.3227(3) 0.0808 Uani
H3 H 0.7935 0.1133 1.3547 0.0960 Uiso
C12 C 0.84460(16) 0.2727(4) 1.2334(3) 0.0711 Uani
C13 C 0.85211(18) 0.1931(5) 1.3691(3) 0.0789 Uani
H4 H 0.8707 0.1778 1.4319 0.0950 Uiso
C14 C 0.95912(18) 0.2524(4) 1.3643(3) 0.0801 Uani
H5 H 0.9510 0.2078 1.3153 0.0960 Uiso
C15 C 1.00752(17) 0.2760(5) 1.4171(3) 0.0826 Uani
H6 H 1.0322 0.2479 1.4043 0.0990 Uiso
O10 O 0.71172(16) 0.0854(5) 1.2248(3) 0.1305 Uani
C16 C 0.73220(18) 0.1206(5) 1.1768(4) 0.0848 Uani
C17 C 1.1756(2) 0.6190(7) 1.4030(5) 0.1054 Uani
C18 C 1.1779(5) 0.7132(8) 1.4569(6) 0.1653 Uani
H7 H 1.1940 0.6997 1.5227 0.2480 Uiso
H8 H 1.1449 0.7368 1.4402 0.2480 Uiso
H9 H 1.1963 0.7626 1.4420 0.2480 Uiso
Mn1A Mn 0.84837(3) 0.44344(7) 1.01142(5) 0.0811 Uani
Mn1D Mn 0.84837(3) 0.55656(7) 1.51142(5) 0.0811 Uani
Mn1G Mn 0.65163(3) 0.05656(7) 0.98858(5) 0.0811 Uani
Mn2D Mn 0.85207(3) 0.52973(8) 1.28608(5) 0.0833 Uani
Mn2E Mn 1.14793(3) 0.52973(8) 1.21392(5) 0.0833 Uani
Mn2G Mn 0.64793(3) 0.02973(8) 1.21392(5) 0.0833 Uani
O1D O 1.14302(11) 0.5615(3) 1.5981(2) 0.0753 Uani
O2D O 1.11933(12) 0.5756(3) 1.7729(2) 0.0778 Uani
O4D O 1.09251(13) 0.5515(3) 1.4526(2) 0.0920 Uani
O5E O 1.15479(15) 0.3663(4) 1.8169(3) 0.0979 Uani
O6G O 1.21669(12) 0.3871(4) 1.5933(3) 0.0955 Uani
O9A O 1.14867(16) 0.3316(3) 1.3968(2) 0.0931 Uani
O10G O 1.21172(16) 0.4146(5) 1.7248(3) 0.1305 Uani
loop_
_atom_site_aniso_label
_atom_site_aniso_U_11
_atom_site_aniso_U_22
_atom_site_aniso_U_33
_atom_site_aniso_U_23
_atom_site_aniso_U_13
_atom_site_aniso_U_12
Mn1 0.0571(11) 0.1235(14) 0.0577(11) -0.0005(4) 0.0204(6) 0.0158(4)
Mn2 0.0680(11) 0.1171(14) 0.0647(11) -0.0003(4) 0.0288(6) 0.0131(4)
O1 0.0538(19) 0.105(3) 0.061(2) -0.0036(15) 0.0194(16) 0.0063(16)
O2 0.060(2) 0.105(3) 0.068(2) -0.0051(18) 0.0274(16) -0.0111(18)
O3 0.061(2) 0.131(4) 0.064(2) -0.016(2) 0.0161(16) -0.003(2)
O4 0.067(2) 0.131(4) 0.065(2) -0.0149(19) 0.0167(17) 0.022(2)
C1 0.059(3) 0.100(4) 0.063(3) -0.002(2) 0.023(2) 0.006(2)
O5 0.082(3) 0.138(4) 0.072(2) -0.011(2) 0.0320(19) -0.006(2)
C2 0.055(2) 0.087(4) 0.062(3) -0.002(2) 0.021(2) -0.002(2)
O6 0.059(2) 0.135(4) 0.079(3) -0.001(2) 0.0174(18) -0.021(2)
O7 0.067(2) 0.113(4) 0.086(3) 0.000(2) 0.021(2) 0.022(2)
C3 0.053(2) 0.092(4) 0.062(3) -0.007(2) 0.020(2) 0.004(2)
O8 0.058(2) 0.130(4) 0.100(3) -0.031(2) 0.0321(19) -0.006(2)
C4 0.058(3) 0.091(4) 0.068(3) -0.005(2) 0.017(2) 0.003(2)
C5 0.053(2) 0.095(4) 0.060(3) -0.002(2) 0.022(2) 0.005(2)
C6 0.059(3) 0.117(5) 0.063(3) -0.005(3) 0.027(2) -0.010(3)
O9 0.104(3) 0.111(3) 0.068(2) -0.0097(18) 0.041(2) -0.020(2)
C7 0.054(2) 0.093(4) 0.078(3) -0.006(2) 0.026(2) -0.001(2)
C8 0.053(2) 0.106(4) 0.060(3) -0.005(2) 0.019(2) 0.000(2)
C9 0.055(3) 0.105(5) 0.077(3) -0.005(3) 0.024(2) 0.006(3)
C10 0.052(2) 0.096(4) 0.063(3) 0.000(2) 0.019(2) 0.002(2)
C11 0.068(3) 0.107(5) 0.066(3) 0.001(2) 0.028(2) -0.013(3)
C12 0.056(2) 0.096(4) 0.059(3) -0.003(2) 0.023(2) 0.002(2)
C13 0.065(3) 0.101(4) 0.065(3) 0.000(2) 0.023(2) -0.009(3)
C14 0.066(3) 0.098(4) 0.071(3) -0.011(2) 0.025(2) -0.002(3)
C15 0.059(3) 0.116(5) 0.066(3) -0.011(3) 0.021(2) 0.007(3)
O10 0.081(3) 0.219(6) 0.112(3) -0.061(4) 0.061(3) -0.064(3)
C16 0.059(3) 0.115(5) 0.074(3) -0.011(3) 0.023(3) -0.005(3)
C17 0.076(4) 0.151(8) 0.097(5) -0.033(5) 0.045(4) -0.015(4)
C18 0.230(12) 0.172(10) 0.117(6) -0.035(6) 0.097(7) -0.010(9)
Mn1A 0.0571 0.1235 0.0577 0.0005 0.0204 -0.0158
Mn1D 0.0571 0.1235 0.0577 -0.0005 0.0204 0.0158
Mn1G 0.0571 0.1235 0.0577 0.0005 0.0204 -0.0158
Mn2D 0.068 0.1171 0.0647 -0.0003 0.0288 0.0131
Mn2E 0.068 0.1171 0.0647 0.0003 0.0288 -0.0131
Mn2G 0.068 0.1171 0.0647 0.0003 0.0288 -0.0131
O1D 0.0538 0.105 0.061 -0.0036 0.0194 0.0063
O2D 0.06 0.105 0.068 -0.0051 0.0274 -0.0111
O4D 0.067 0.131 0.065 -0.0149 0.0167 0.022
O5E 0.082 0.138 0.072 0.011 0.032 0.006
O6G 0.059 0.135 0.079 0.001 0.0174 0.021
O9A 0.104 0.111 0.068 0.0097 0.041 0.02
O10G 0.081 0.219 0.112 0.061 0.061 0.064
loop_
_geom_bond_atom_site_label_1
_geom_bond_atom_site_label_2
_geom_bond_site_symmetry_1
_geom_bond_site_symmetry_2
Mn1 O7 1_555 1_555
Mn2 O3 1_555 1_555
O1 C1 1_555 1_555
O2 C6 1_555 1_555
O3 C9 1_555 1_555
O4 C1 1_555 1_555
C1 C10 1_555 1_555
O5 C17 1_555 1_555
C2 C5 1_555 1_555
O6 C16 1_555 1_555
O7 C17 1_555 1_555
C3 H1 1_555 1_555
O8 Mn1 1_555 1_555
C4 C3 1_555 1_555
C5 C12 1_555 1_555
C6 O9 1_555 1_555
O9 Mn1A 1_555 1_555
C7 C8 1_555 1_555
C8 H2 1_555 1_555
C9 O8 1_555 1_555
C10 C2 1_555 1_555
C11 C7 1_555 1_555
H3 C11 1_555 1_555
C12 C6 1_555 1_555
C13 C5 1_555 1_555
H4 C13 1_555 1_555
C14 C2 1_555 1_555
H5 C14 1_555 1_555
C15 C4 1_555 1_555
H6 C15 1_555 1_555
O10 C16 1_555 1_555
C16 C7 1_555 1_555
C17 C18 1_555 1_555
C18 H7 1_555 1_555
H8 C18 1_555 1_555
H9 C18 1_555 1_555
Mn1D O4 1_555 1_555
Mn1G O6 1_555 1_555
Mn2D O1 1_555 1_555
Mn2E O5 1_555 1_555
Mn2G O10 1_555 1_555
O1D Mn2 1_555 1_555
O2D Mn2 1_555 1_555
O4D Mn1 1_555 1_555
O5E Mn2 1_555 1_555
O6G Mn1 1_555 1_555
O9A Mn1 1_555 1_555
O10G Mn2 1_555 1_555
O2 Mn2D 1_555 1_555
C3 C10 1_555 1_555
C4 C9 1_555 1_555
C8 C12 1_555 1_555
C11 C13 1_555 1_555
C14 C15 1_555 1_555

#END
