
#######################################################################
#
#                 Cambridge Crystallographic Data Centre
#                                CCDC 
#
#######################################################################
#
# If this CIF has been generated from an entry in the Cambridge 
# Structural Database, then it will include bibliographic, chemical, 
# crystal, experimental, refinement or atomic coordinate data resulting 
# from the CCDC's data processing and validation procedures.
#
#######################################################################

data_FIFGEI
_chemical_formula_moiety         '(C42 H30 In3 O16 1+)n'
_symmetry_cell_setting           trigonal
_symmetry_space_group_name_H-M   'P -3 1 c'
_symmetry_Int_Tables_number      163
_space_group_name_Hall           '-P 3 2c'
loop_
_symmetry_equiv_pos_site_id
_symmetry_equiv_pos_as_xyz
1 x,y,z
2 -y,x-y,z
3 -x+y,-x,z
4 -y,-x,1/2-z
5 -x+y,y,1/2-z
6 x,x-y,1/2-z
7 -x,-y,-z
8 y,-x+y,-z
9 x-y,x,-z
10 y,x,1/2+z
11 x-y,-y,1/2+z
12 -x,-x+y,1/2+z
_cell_length_a                   20.8131(10)
_cell_length_b                   20.8131(10)
_cell_length_c                   23.185(2)
_cell_angle_alpha                90
_cell_angle_beta                 90
_cell_angle_gamma                120
_cell_volume                     8697.84
loop_
_atom_site_label
_atom_site_type_symbol
_atom_site_fract_x
_atom_site_fract_y
_atom_site_fract_z
In1 In 0.723076(7) 0.276924(7) 0.7500
O1 O 0.6667 0.3333 0.7500
O2 O 0.79935(11) 0.45360(11) 0.68419(8)
O3 O 0.79948(11) 0.34574(13) 0.68415(8)
C1 C 0.9489(3) 0.4177(2) 0.54826(18)
H1 H 0.9661 0.3875 0.5336
C2 C 0.9482(3) 0.5306(2) 0.54820(18)
H2 H 0.9648 0.5778 0.5334
C3 C 0.8986(2) 0.5048(2) 0.59356(16)
H3 H 0.8814 0.5348 0.6086
C4 C 0.8991(2) 0.3934(2) 0.59338(16)
H4 H 0.8818 0.3461 0.6083
C5 C 0.9728(2) 0.4862(2) 0.52510(13)
C6 C 0.87496(18) 0.4377(2) 0.61635(12)
C7 C 0.81855(17) 0.4094(2) 0.66577(12)
O4 O 0.78264(8) 0.21736(8) 0.7500
O2F O 1.20065(11) 0.54640(11) 0.31581(8)
O3F O 1.20052(11) 0.65426(13) 0.31585(8)
C1F C 1.0511(3) 0.5823(2) 0.45174(18)
H1F H 1.0339 0.6125 0.4664
C2F C 1.0518(3) 0.4694(2) 0.45180(18)
H2F H 1.0352 0.4222 0.4666
C3F C 1.1014(2) 0.4952(2) 0.40644(16)
H3F H 1.1186 0.4652 0.3914
C4F C 1.1009(2) 0.6066(2) 0.40662(16)
H4F H 1.1182 0.6539 0.3917
C5F C 1.0272(2) 0.5138(2) 0.47490(13)
C6F C 1.12504(18) 0.5623(2) 0.38365(12)
C7F C 1.18145(17) 0.5906(2) 0.33423(12)
In1A In 0.723076(7) 0.446152(10) 0.7500
O2A O 0.54640(11) 0.34575(16) 0.68419(8)
O3A O 0.65426(13) 0.45374(17) 0.68415(8)
C1A C 0.5823(2) 0.5312(4) 0.54826(18)
H1A H 0.6125 0.5786 0.5336
C2A C 0.4694(2) 0.4176(4) 0.54820(18)
H2A H 0.4222 0.3870 0.5334
C3A C 0.4952(2) 0.3938(3) 0.59356(16)
H3A H 0.4652 0.3466 0.6086
C4A C 0.6066(2) 0.5057(3) 0.59338(16)
H4A H 0.6539 0.5357 0.6083
C5A C 0.5138(2) 0.4866(3) 0.52510(13)
C6A C 0.5623(2) 0.43726(27) 0.61635(12)
C7A C 0.5906(2) 0.40915(26) 0.66577(12)
O4A O 0.78264(8) 0.56528(11) 0.7500
O2G O 0.45360(11) 0.65425(16) 0.31581(8)
O3G O 0.34574(13) 0.54626(17) 0.31585(8)
C1G C 0.4177(2) 0.4688(4) 0.45174(18)
H1G H 0.3875 0.4214 0.4664
C2G C 0.5306(2) 0.5824(4) 0.45180(18)
H2G H 0.5778 0.6130 0.4666
C3G C 0.5048(2) 0.6062(3) 0.40644(16)
H3G H 0.5348 0.6534 0.3914
C4G C 0.3934(2) 0.4943(3) 0.40662(16)
H4G H 0.3461 0.4643 0.3917
C5G C 0.4862(2) 0.5134(3) 0.47490(13)
C6G C 0.4377(2) 0.56274(27) 0.38365(12)
C7G C 0.4094(2) 0.59085(26) 0.33423(12)
In1B In 0.553848(10) 0.276924(7) 0.7500
O2B O 0.65425(16) 0.20065(11) 0.68419(8)
O3B O 0.54626(17) 0.20052(11) 0.68415(8)
C1B C 0.4688(4) 0.0511(3) 0.54826(18)
H1B H 0.4214 0.0339 0.5336
C2B C 0.5824(4) 0.0518(3) 0.54820(18)
H2B H 0.6130 0.0352 0.5334
C3B C 0.6062(3) 0.1014(2) 0.59356(16)
H3B H 0.6534 0.1186 0.6086
C4B C 0.4943(3) 0.1009(2) 0.59338(16)
H4B H 0.4643 0.1182 0.6083
C5B C 0.5134(3) 0.0272(2) 0.52510(13)
C6B C 0.56274(27) 0.12504(18) 0.61635(12)
C7B C 0.59085(26) 0.18145(17) 0.66577(12)
O4B O 0.43472(11) 0.21736(8) 0.7500
O2H O 0.34575(16) -0.20065(11) 0.31581(8)
O3H O 0.45374(17) -0.20052(11) 0.31585(8)
C1H C 0.5312(4) -0.0511(3) 0.45174(18)
H1H H 0.5786 -0.0339 0.4664
C2H C 0.4176(4) -0.0518(3) 0.45180(18)
H2H H 0.3870 -0.0352 0.4666
C3H C 0.3938(3) -0.1014(2) 0.40644(16)
H3H H 0.3466 -0.1186 0.3914
C4H C 0.5057(3) -0.1009(2) 0.40662(16)
H4H H 0.5357 -0.1182 0.3917
C5H C 0.4866(3) -0.0272(2) 0.47490(13)
C6H C 0.43726(27) -0.12504(18) 0.38365(12)
C7H C 0.40915(26) -0.18145(17) 0.33423(12)
In1F In 0.276924(7) -0.276924(7) 0.2500
In1F_2 In 1.276924(7) 0.723076(7) 0.2500
In1G In 0.276924(7) 0.553848(10) 0.2500
In1G_2 In 1.276924(7) 0.553848(10) 0.2500
In1H In 0.446152(10) -0.276924(7) 0.2500
In1H_2 In 0.446152(10) 0.723076(7) 0.2500
O2C O 0.54640(11) 0.20065(11) 0.81581(8)
O2D O 0.65425(16) 0.45360(11) 0.81581(8)
O2E O 0.79935(11) 0.34575(16) 0.81581(8)
O3C O 0.65426(13) 0.20052(11) 0.81585(8)
O3D O 0.54626(17) 0.34574(13) 0.81585(8)
O3E O 0.79948(11) 0.45374(17) 0.81585(8)
loop_
_geom_bond_atom_site_label_1
_geom_bond_atom_site_label_2
_geom_bond_site_symmetry_1
_geom_bond_site_symmetry_2
In1 O1 1_555 1_555
O1 In1A 1_555 1_555
O2 C7 1_555 1_555
O3 In1 1_555 1_555
C1 H1 1_555 1_555
C2 H2 1_555 1_555
C3 C2 1_555 1_555
H3 C3 1_555 1_555
C4 C1 1_555 1_555
H4 C4 1_555 1_555
C5 C1 1_555 1_555
C6 C3 1_555 1_555
C7 O3 1_555 1_555
O4 In1 1_555 1_555
O2F C7F 1_555 1_555
O3F C7F 1_555 1_555
C1F H1F 1_555 1_555
C2F H2F 1_555 1_555
C3F C2F 1_555 1_555
H3F C3F 1_555 1_555
C4F C1F 1_555 1_555
H4F C4F 1_555 1_555
C5F C5 1_555 1_555
C6F C3F 1_555 1_555
C7F C6F 1_555 1_555
In1A O2 1_555 1_555
O2A C7A 1_555 1_555
O3A In1A 1_555 1_555
C1A H1A 1_555 1_555
C2A H2A 1_555 1_555
C3A C2A 1_555 1_555
H3A C3A 1_555 1_555
C4A C1A 1_555 1_555
H4A C4A 1_555 1_555
C5A C1A 1_555 1_555
C6A C3A 1_555 1_555
C7A O3A 1_555 1_555
O4A In1A 1_555 1_555
O2G C7G 1_555 1_555
O3G C7G 1_555 1_555
C1G H1G 1_555 1_555
C2G H2G 1_555 1_555
C3G C2G 1_555 1_555
H3G C3G 1_555 1_555
C4G C1G 1_555 1_555
H4G C4G 1_555 1_555
C5G C5A 1_555 1_555
C6G C3G 1_555 1_555
C7G C6G 1_555 1_555
In1B O1 1_555 1_555
O2B In1 1_555 1_555
O3B In1B 1_555 1_555
C1B H1B 1_555 1_555
C2B H2B 1_555 1_555
C3B C2B 1_555 1_555
H3B C3B 1_555 1_555
C4B C1B 1_555 1_555
H4B C4B 1_555 1_555
C5B C1B 1_555 1_555
C6B C3B 1_555 1_555
C7B O2B 1_555 1_555
O4B In1B 1_555 1_555
O2H C7H 1_555 1_555
O3H C7H 1_555 1_555
C1H H1H 1_555 1_555
C2H H2H 1_555 1_555
C3H C2H 1_555 1_555
H3H C3H 1_555 1_555
C4H C1H 1_555 1_555
H4H C4H 1_555 1_555
C5H C5B 1_555 1_555
C6H C3H 1_555 1_555
C7H C6H 1_555 1_555
In1F O2H 1_555 1_555
In1F_2 O3F 1_555 1_555
In1G O3G 1_555 1_555
In1G_2 O2F 1_555 1_555
In1H O3H 1_555 1_555
In1H_2 O2G 1_555 1_555
O2C In1B 1_555 1_555
O2D In1A 1_555 1_555
O2E In1 1_555 1_555
O3C In1 1_555 1_555
O3D In1B 1_555 1_555
O3E In1A 1_555 1_555
C2 C5 1_555 1_555
C4 C6 1_555 1_555
C6 C7 1_555 1_555
C1F C5F 1_555 1_555
C2F C5F 1_555 1_555
C4F C6F 1_555 1_555
O2A In1B 1_555 1_555
C2A C5A 1_555 1_555
C4A C6A 1_555 1_555
C6A C7A 1_555 1_555
C1G C5G 1_555 1_555
C2G C5G 1_555 1_555
C4G C6G 1_555 1_555
O3B C7B 1_555 1_555
C2B C5B 1_555 1_555
C4B C6B 1_555 1_555
C6B C7B 1_555 1_555
C1H C5H 1_555 1_555
C2H C5H 1_555 1_555
C4H C6H 1_555 1_555

#END
