
#######################################################################
#
#                 Cambridge Crystallographic Data Centre
#                                CCDC 
#
#######################################################################
#
# If this CIF has been generated from an entry in the Cambridge 
# Structural Database, then it will include bibliographic, chemical, 
# crystal, experimental, refinement or atomic coordinate data resulting 
# from the CCDC's data processing and validation procedures.
#
#######################################################################

data_FIFGIM
_chemical_formula_moiety         '(C60 H40 In3 N3 O21 Zn2)n'
_symmetry_cell_setting           trigonal
_symmetry_space_group_name_H-M   'P -3 1 c'
_symmetry_Int_Tables_number      163
_space_group_name_Hall           '-P 3 2c'
loop_
_symmetry_equiv_pos_site_id
_symmetry_equiv_pos_as_xyz
1 x,y,z
2 -y,x-y,z
3 -x+y,-x,z
4 -y,-x,1/2-z
5 -x+y,y,1/2-z
6 x,x-y,1/2-z
7 -x,-y,-z
8 y,-x+y,-z
9 x-y,x,-z
10 y,x,1/2+z
11 x-y,-y,1/2+z
12 -x,-x+y,1/2+z
_cell_length_a                   18.7843(8)
_cell_length_b                   18.7843(8)
_cell_length_c                   25.0267(11)
_cell_angle_alpha                90
_cell_angle_beta                 90
_cell_angle_gamma                120
_cell_volume                     7647.58
loop_
_atom_site_label
_atom_site_type_symbol
_atom_site_fract_x
_atom_site_fract_y
_atom_site_fract_z
In1 In 0.729011(13) 0.270989(13) 0.7500
Zn1 Zn 1.0000 0.0000 0.67797(9)
O1 O 0.53379(19) 0.18743(19) 0.68827(12)
O2 O 0.6536(2) 0.18757(19) 0.68829(12)
O3 O 1.0000 0.0000 0.5990(8)
O4 O 0.9425(4) 0.0570(4) 0.7012(3)
O5 O 0.6667 0.3333 0.7500
N1 N 0.79555(18) 0.20445(18) 0.7500
C1 C 0.4634(4) 0.0484(5) 0.5488(3)
H1 H 0.4126 0.0328 0.5335
C2 C 0.5861(4) 0.0487(5) 0.5491(3)
H2 H 0.6217 0.0333 0.5339
C3 C 0.4856(4) 0.0939(4) 0.5952(2)
H3 H 0.4502 0.1095 0.6101
C4 C 0.6081(4) 0.0937(4) 0.5953(2)
H4 H 0.6590 0.1091 0.6105
C5 C 0.8165(5) 0.1834(5) 0.7075(4)
H5 H 0.8030 0.1987 0.6755
C6 C 0.5581(3) 0.1163(3) 0.6194(2)
C7 C 0.5133(4) 0.0262(4) 0.5253(2)
C8 C 0.5841(4) 0.1680(3) 0.66988(19)
C9 C 0.8595(6) 0.1376(6) 0.7042(4)
H6 H 0.8722 0.1214 0.6722
C10 C 0.8778(4) 0.1222(4) 0.7500
C11 C 0.9253(4) 0.0747(4) 0.7500
O1F O 0.46621(19) -0.18743(19) 0.31173(12)
O2F O 0.3464(2) -0.18757(19) 0.31171(12)
C1F C 0.5366(4) -0.0484(5) 0.4512(3)
H1F H 0.5874 -0.0328 0.4665
C2F C 0.4139(4) -0.0487(5) 0.4509(3)
H2F H 0.3783 -0.0333 0.4661
C3F C 0.5144(4) -0.0939(4) 0.4048(2)
H3F H 0.5498 -0.1095 0.3899
C4F C 0.3919(4) -0.0937(4) 0.4047(2)
H4F H 0.3410 -0.1091 0.3895
C6F C 0.4419(3) -0.1163(3) 0.3806(2)
C7F C 0.4867(4) -0.0262(4) 0.4747(2)
C8F C 0.4159(4) -0.1680(3) 0.33012(19)
O4C O 0.9430(4) 0.0575(4) 0.7988(3)
C5C C 0.8166(5) 0.1835(5) 0.7925(4)
H5C H 0.8013 0.1970 0.8245
C9C C 0.8624(6) 0.1405(6) 0.7958(4)
H6C H 0.8786 0.1278 0.8278
In1A In 0.729011(13) -0.541978(18) 0.7500
O1A O 0.81257(19) -0.65364(27) 0.68827(12)
O2A O 0.81243(19) -0.53397(28) 0.68829(12)
O4A O 0.9430(4) -0.1145(6) 0.7012(3)
N1A N 0.79555(18) -0.40890(25) 0.7500
C1A C 0.9516(5) -0.5850(6) 0.5488(3)
H1A H 0.9672 -0.6202 0.5335
C2A C 0.9513(5) -0.4626(6) 0.5491(3)
H2A H 0.9667 -0.4116 0.5339
C3A C 0.9061(4) -0.6083(6) 0.5952(2)
H3A H 0.8905 -0.6593 0.6101
C4A C 0.9063(4) -0.4856(6) 0.5953(2)
H4A H 0.8909 -0.4501 0.6105
C5A C 0.8166(5) -0.3669(7) 0.7075(4)
H5A H 0.8013 -0.3957 0.6755
C6A C 0.8837(3) -0.5582(4) 0.6194(2)
C7A C 0.9738(4) -0.5129(6) 0.5253(2)
C8A C 0.8320(3) -0.5839(5) 0.66988(19)
C9A C 0.8624(6) -0.2781(8) 0.7042(4)
H6A H 0.8786 -0.2492 0.6722
C10A C 0.8778(4) -0.2444(6) 0.7500
C11A C 0.9253(4) -0.1494(6) 0.7500
O1G O 1.18743(19) -0.34636(27) 0.31173(12)
O2G O 1.18757(19) -0.46603(28) 0.31171(12)
C1G C 1.0484(5) -0.4150(6) 0.4512(3)
H1G H 1.0328 -0.3798 0.4665
C2G C 1.0487(5) -0.5374(6) 0.4509(3)
H2G H 1.0333 -0.5884 0.4661
C3G C 1.0939(4) -0.3917(6) 0.4048(2)
H3G H 1.1095 -0.3407 0.3899
C4G C 1.0937(4) -0.5144(6) 0.4047(2)
H4G H 1.1091 -0.5499 0.3895
C6G C 1.1163(3) -0.4418(4) 0.3806(2)
C7G C 1.0262(4) -0.4871(6) 0.4747(2)
C8G C 1.1680(3) -0.4161(5) 0.33012(19)
O4E O 0.9425(4) -0.1145(6) 0.7988(3)
C5E C 0.8165(5) -0.3669(7) 0.7925(4)
H5E H 0.8030 -0.3957 0.8245
C9E C 0.8595(6) -0.2781(8) 0.7958(4)
H6E H 0.8722 -0.2492 0.8278
In1B In 0.541978(18) -0.729011(13) 0.7500
O1B O 0.65364(27) -0.53379(19) 0.68827(12)
O2B O 0.53397(28) -0.6536(2) 0.68829(12)
O4B O 0.1145(6) -0.9425(4) 0.7012(3)
N1B N 0.40890(25) -0.79555(18) 0.7500
C1B C 0.5850(6) -0.4634(4) 0.5488(3)
H1B H 0.6202 -0.4126 0.5335
C2B C 0.4626(6) -0.5861(4) 0.5491(3)
H2B H 0.4116 -0.6217 0.5339
C3B C 0.6083(6) -0.4856(4) 0.5952(2)
H3B H 0.6593 -0.4502 0.6101
C4B C 0.4856(6) -0.6081(4) 0.5953(2)
H4B H 0.4501 -0.6590 0.6105
C5B C 0.3669(7) -0.8165(5) 0.7075(4)
H5B H 0.3957 -0.8030 0.6755
C6B C 0.5582(4) -0.5581(3) 0.6194(2)
C7B C 0.5129(6) -0.5133(4) 0.5253(2)
C8B C 0.5839(5) -0.5841(4) 0.66988(19)
C9B C 0.2781(8) -0.8595(6) 0.7042(4)
H6B H 0.2492 -0.8722 0.6722
C10B C 0.2444(6) -0.8778(4) 0.7500
C11B C 0.1494(6) -0.9253(4) 0.7500
O1H O 0.34636(27) -0.46621(19) 0.31173(12)
O2H O 0.46603(28) -0.3464(2) 0.31171(12)
C1H C 0.4150(6) -0.5366(4) 0.4512(3)
H1H H 0.3798 -0.5874 0.4665
C2H C 0.5374(6) -0.4139(4) 0.4509(3)
H2H H 0.5884 -0.3783 0.4661
C3H C 0.3917(6) -0.5144(4) 0.4048(2)
H3H H 0.3407 -0.5498 0.3899
C4H C 0.5144(6) -0.3919(4) 0.4047(2)
H4H H 0.5499 -0.3410 0.3895
C6H C 0.4418(4) -0.4419(3) 0.3806(2)
C7H C 0.4871(6) -0.4867(4) 0.4747(2)
C8H C 0.4161(5) -0.4159(4) 0.33012(19)
O4D O 0.1145(6) -0.9430(4) 0.7988(3)
C5D C 0.3669(7) -0.8166(5) 0.7925(4)
H5D H 0.3957 -0.8013 0.8245
C9D C 0.2781(8) -0.8624(6) 0.7958(4)
H6D H 0.2492 -0.8786 0.8278
Zn1C Zn 1.0000 0.0000 0.82203(9)
O3C O 1.0000 0.0000 0.9010(8)
In1_2 In 0.729011(13) -0.729011(13) 0.7500
In1A_2 In 0.729011(13) 0.458022(18) 0.7500
In1B_2 In 0.541978(18) 0.270989(13) 0.7500
In1F In 0.270989(13) -0.270989(13) 0.2500
In1F_2 In 1.270989(13) -0.270989(13) 0.2500
In1G In 0.270989(13) -0.458022(18) 0.2500
In1G_2 In 1.270989(13) -0.458022(18) 0.2500
In1H In 0.458022(18) -0.270989(13) 0.2500
Zn1_2 Zn 0.0000 -1.0000 0.67797(9)
Zn1C_2 Zn 0.0000 -1.0000 0.82203(9)
O1_2 O 0.53379(19) -0.81257(19) 0.68827(12)
O1A_2 O 0.81257(19) 0.34636(27) 0.68827(12)
O1C O 0.81257(19) -0.53379(19) 0.81173(12)
O1D O 0.65364(27) 0.18743(19) 0.81173(12)
O1E O 0.53379(19) -0.65364(27) 0.81173(12)
O2C O 0.81243(19) 0.3464(2) 0.81171(12)
O2D O 0.53397(28) -0.81243(19) 0.81171(12)
O2E O 0.6536(2) -0.53397(28) 0.81171(12)
O4B_2 O 1.1145(6) 0.0575(4) 0.7012(3)
O4D_2 O 1.1145(6) 0.0570(4) 0.7988(3)
O5_2 O 0.6667 -0.6667 0.7500
loop_
_geom_bond_atom_site_label_1
_geom_bond_atom_site_label_2
_geom_bond_site_symmetry_1
_geom_bond_site_symmetry_2
In1 O2 1_555 1_555
Zn1 O3 1_555 1_555
O1 C8 1_555 1_555
O2 C8 1_555 1_555
O4 Zn1 1_555 1_555
O5 In1 1_555 1_555
N1 In1 1_555 1_555
C1 H1 1_555 1_555
C2 H2 1_555 1_555
C3 C1 1_555 1_555
H3 C3 1_555 1_555
C4 C2 1_555 1_555
H4 C4 1_555 1_555
C5 N1 1_555 1_555
H5 C5 1_555 1_555
C6 C3 1_555 1_555
C7 C1 1_555 1_555
C8 C6 1_555 1_555
C9 C5 1_555 1_555
H6 C9 1_555 1_555
C10 C9 1_555 1_555
C11 O4 1_555 1_555
O1F C8F 1_555 1_555
O2F C8F 1_555 1_555
C1F H1F 1_555 1_555
C2F H2F 1_555 1_555
C3F C1F 1_555 1_555
H3F C3F 1_555 1_555
C4F C2F 1_555 1_555
H4F C4F 1_555 1_555
C6F C3F 1_555 1_555
C7F C7 1_555 1_555
C8F C6F 1_555 1_555
O4C C11 1_555 1_555
C5C N1 1_555 1_555
H5C C5C 1_555 1_555
C9C C10 1_555 1_555
H6C C9C 1_555 1_555
In1A O2A 1_555 1_555
O1A C8A 1_555 1_555
O2A C8A 1_555 1_555
O4A Zn1 1_555 1_555
N1A In1A 1_555 1_555
C1A H1A 1_555 1_555
C2A H2A 1_555 1_555
C3A C1A 1_555 1_555
H3A C3A 1_555 1_555
C4A C2A 1_555 1_555
H4A C4A 1_555 1_555
C5A N1A 1_555 1_555
H5A C5A 1_555 1_555
C6A C3A 1_555 1_555
C7A C1A 1_555 1_555
C8A C6A 1_555 1_555
C9A C5A 1_555 1_555
H6A C9A 1_555 1_555
C10A C9A 1_555 1_555
C11A O4A 1_555 1_555
O1G C8G 1_555 1_555
O2G C8G 1_555 1_555
C1G H1G 1_555 1_555
C2G H2G 1_555 1_555
C3G C1G 1_555 1_555
H3G C3G 1_555 1_555
C4G C2G 1_555 1_555
H4G C4G 1_555 1_555
C6G C3G 1_555 1_555
C7G C7A 1_555 1_555
C8G C6G 1_555 1_555
O4E C11A 1_555 1_555
C5E N1A 1_555 1_555
H5E C5E 1_555 1_555
C9E C10A 1_555 1_555
H6E C9E 1_555 1_555
In1B O2B 1_555 1_555
O1B In1A 1_555 1_555
O2B C8B 1_555 1_555
O4B C11B 1_555 1_555
N1B In1B 1_555 1_555
C1B H1B 1_555 1_555
C2B H2B 1_555 1_555
C3B C1B 1_555 1_555
H3B C3B 1_555 1_555
C4B C2B 1_555 1_555
H4B C4B 1_555 1_555
C5B N1B 1_555 1_555
H5B C5B 1_555 1_555
C6B C3B 1_555 1_555
C7B C1B 1_555 1_555
C8B O1B 1_555 1_555
C9B C5B 1_555 1_555
H6B C9B 1_555 1_555
C10B C9B 1_555 1_555
C11B C10B 1_555 1_555
O1H C8H 1_555 1_555
O2H C8H 1_555 1_555
C1H H1H 1_555 1_555
C2H H2H 1_555 1_555
C3H C1H 1_555 1_555
H3H C3H 1_555 1_555
C4H C2H 1_555 1_555
H4H C4H 1_555 1_555
C6H C3H 1_555 1_555
C7H C7B 1_555 1_555
C8H C6H 1_555 1_555
O4D C11B 1_555 1_555
C5D N1B 1_555 1_555
H5D C5D 1_555 1_555
C9D C10B 1_555 1_555
H6D C9D 1_555 1_555
Zn1C O4C 1_555 1_555
O3C Zn1C 1_555 1_555
In1_2 O1A 1_555 1_555
In1A_2 O5 1_555 1_555
In1B_2 O1 1_555 1_555
In1F O2F 1_555 1_555
In1F_2 O1G 1_555 1_555
In1G O1H 1_555 1_555
In1G_2 O2G 1_555 1_555
In1H O1F 1_555 1_555
Zn1_2 O4B 1_555 1_555
Zn1C_2 O4D 1_555 1_555
O1_2 In1B 1_555 1_555
O1A_2 In1 1_555 1_555
O1C In1A 1_555 1_555
O1D In1 1_555 1_555
O1E In1B 1_555 1_555
O2C In1 1_555 1_555
O2D In1B 1_555 1_555
O2E In1A 1_555 1_555
O4B_2 Zn1 1_555 1_555
O4D_2 Zn1C 1_555 1_555
O5_2 In1A 1_555 1_555
O5 In1B_2 1_555 1_555
C2 C7 1_555 1_555
C4 C6 1_555 1_555
C10 C11 1_555 1_555
C1F C7F 1_555 1_555
C2F C7F 1_555 1_555
C4F C6F 1_555 1_555
C5C C9C 1_555 1_555
C2A C7A 1_555 1_555
C4A C6A 1_555 1_555
C10A C11A 1_555 1_555
C1G C7G 1_555 1_555
C2G C7G 1_555 1_555
C4G C6G 1_555 1_555
O4E Zn1C 1_555 1_555
C5E C9E 1_555 1_555
In1B O5_2 1_555 1_555
C2B C7B 1_555 1_555
C4B C6B 1_555 1_555
C6B C8B 1_555 1_555
O2H In1H 1_555 1_555
C1H C7H 1_555 1_555
C2H C7H 1_555 1_555
C4H C6H 1_555 1_555
C5D C9D 1_555 1_555
In1_2 O5_2 1_555 1_555

#END
