
#######################################################################
#
#                 Cambridge Crystallographic Data Centre
#                                CCDC 
#
#######################################################################
#
# If this CIF has been generated from an entry in the Cambridge 
# Structural Database, then it will include bibliographic, chemical, 
# crystal, experimental, refinement or atomic coordinate data resulting 
# from the CCDC's data processing and validation procedures.
#
#######################################################################

data_FIFGAE
_chemical_formula_moiety         '(C63 H59 Co2 In3 N6 O37 2-)n'
_symmetry_cell_setting           hexagonal
_symmetry_space_group_name_H-M   'P -6 2 c'
_symmetry_Int_Tables_number      190
_space_group_name_Hall           'P -6c -2c'
loop_
_symmetry_equiv_pos_site_id
_symmetry_equiv_pos_as_xyz
1 x,y,z
2 -x+y,-x,1/2-z
3 -y,x-y,z
4 x,y,1/2-z
5 -x+y,-x,z
6 -y,x-y,1/2-z
7 y,x,1/2+z
8 x-y,-y,-z
9 -x,-x+y,1/2+z
10 y,x,-z
11 x-y,-y,1/2+z
12 -x,-x+y,-z
_cell_length_a                   18.1997(8)
_cell_length_b                   18.1997(8)
_cell_length_c                   20.0204(10)
_cell_angle_alpha                90
_cell_angle_beta                 90
_cell_angle_gamma                120
_cell_volume                     5742.91
loop_
_atom_site_label
_atom_site_type_symbol
_atom_site_fract_x
_atom_site_fract_y
_atom_site_fract_z
O7 O 0.0000 0.0000 0.0000
In1 In 0.40891(3) 0.40891(3) 0.0000
Co1 Co 0.0000 0.0000 0.14704(9)
O1 O 0.0726(3) 0.1119(3) 0.1953(3)
O2 O 0.3138(3) 0.3205(3) 0.0726(2)
O3 O 0.4190(3) 0.4306(3) 0.1194(2)
O4 O 0.5484(3) 0.4490(3) 0.00607(19)
O5 O 0.4571(3) 0.3140(3) 0.0070(2)
O6 O -0.0652(4) -0.1039(4) 0.0793(3)
N1 N -0.1460(5) -0.2503(5) 0.0697(4)
C1 C 0.3104(4) 0.3286(4) 0.1891(3)
C2 C -0.1937(6) -0.3312(5) 0.1019(6)
H1 H -0.2022 -0.3229 0.1480
H2 H -0.1630 -0.3614 0.0991
H3 H -0.2477 -0.3635 0.0803
C3 C 0.3520(5) 0.3636(5) 0.1245(3)
C4 C -0.1257(7) -0.2488(6) -0.0005(4)
H4 H -0.1562 -0.3054 -0.0182
H5 H -0.0659 -0.2271 -0.0054
H6 H -0.1417 -0.2132 -0.0243
C5 C 0.1031(6) 0.1406(6) 0.2500
C6 C 0.2320(4) 0.2580(4) 0.1913(3)
H7 H 0.2054 0.2337 0.1511
C7 C 0.5815(4) 0.2678(4) 0.0107(3)
C8 C 0.1898(6) 0.2204(6) 0.2500
C9 C -0.1091(6) -0.1757(7) 0.1058(5)
H8 H -0.1171 -0.1786 0.1518
C10 C 0.6036(4) 0.3542(4) 0.0116(3)
C11 C 0.3504(6) 0.3635(5) 0.2500
H9 H 0.4045 0.4108 0.2500
C12 C 0.5311(4) 0.3740(5) 0.0080(3)
O1C O 0.0726(3) 0.1119(3) 0.3047(3)
O2C O 0.3138(3) 0.3205(3) 0.4274(2)
O3C O 0.4190(3) 0.4306(3) 0.3806(2)
C1C C 0.3104(4) 0.3286(4) 0.3109(3)
C3C C 0.3520(5) 0.3636(5) 0.3755(3)
C6C C 0.2320(4) 0.2580(4) 0.3087(3)
H7C H 0.2054 0.2337 0.3489
O4B O 0.5510(3) 0.0994(4) 0.00607(19)
O5B O 0.6860(3) 0.1431(4) 0.0070(2)
C7B C 0.7322(4) 0.3137(6) 0.0107(3)
C10B C 0.6458(4) 0.2494(6) 0.0116(3)
C12B C 0.6260(5) 0.1571(6) 0.0080(3)
O4D O 0.9006(4) 0.4516(3) 0.00607(19)
O5D O 0.8569(4) 0.5429(3) 0.0070(2)
C7D C 0.6863(6) 0.4185(4) 0.0107(3)
C10D C 0.7506(6) 0.3964(4) 0.0116(3)
C12D C 0.8429(6) 0.4689(4) 0.0080(3)
Co1A Co 0.0000 0.0000 0.35296(9)
O1A O 0.0393(4) -0.0726(3) 0.3047(3)
O2A O 0.0067(4) -0.3138(3) 0.4274(2)
O3A O 0.0116(4) -0.4190(3) 0.3806(2)
O6A O -0.0387(6) 0.0652(4) 0.4207(3)
N1A N -0.1043(7) 0.1460(5) 0.4303(4)
C1A C 0.0182(6) -0.3104(4) 0.3109(3)
C2A C -0.1375(8) 0.1937(6) 0.3981(6)
H1A H -0.1207 0.2022 0.3520
H2A H -0.1984 0.1630 0.4009
H3A H -0.1158 0.2477 0.4197
C3A C 0.0116(7) -0.3520(5) 0.3755(3)
C4A C -0.1231(9) 0.1257(7) 0.5005(4)
H4A H -0.1492 0.1562 0.5182
H5A H -0.1612 0.0659 0.5054
H6A H -0.0715 0.1417 0.5243
C5A C 0.0375(8) -0.1031(6) 0.2500
C6A C 0.0260(6) -0.2320(4) 0.3087(3)
H7A H 0.0283 -0.2054 0.3489
C8A C 0.0306(8) -0.1898(6) 0.2500
C9A C -0.0666(9) 0.1091(6) 0.3942(5)
H8A H -0.0615 0.1171 0.3482
C11A C 0.0131(8) -0.3504(6) 0.2500
H9A H 0.0063 -0.4045 0.2500
O1D O 0.0393(4) -0.0726(3) 0.1953(3)
O2D O 0.0067(4) -0.3138(3) 0.0726(2)
O3D O 0.0116(4) -0.4190(3) 0.1194(2)
C1D C 0.0182(6) -0.3104(4) 0.1891(3)
C3D C 0.0116(7) -0.3520(5) 0.1245(3)
C6D C 0.0260(6) -0.2320(4) 0.1913(3)
H7D H 0.0283 -0.2054 0.1511
In1B In -0.40891(3) 0.00000(4) 0.0000
O1B O -0.1119(3) -0.0393(4) 0.1953(3)
O2B O -0.3205(3) -0.0067(4) 0.0726(2)
O3B O -0.4306(3) -0.0116(4) 0.1194(2)
O6B O 0.1039(4) 0.0387(6) 0.0793(3)
N1B N 0.2503(5) 0.1043(7) 0.0697(4)
C1B C -0.3286(4) -0.0182(6) 0.1891(3)
C2B C 0.3312(5) 0.1375(8) 0.1019(6)
H1B H 0.3229 0.1207 0.1480
H2B H 0.3614 0.1984 0.0991
H3B H 0.3635 0.1158 0.0803
C3B C -0.3636(5) -0.0116(7) 0.1245(3)
C4B C 0.2488(6) 0.1231(9) -0.0005(4)
H4B H 0.3054 0.1492 -0.0182
H5B H 0.2271 0.1612 -0.0054
H6B H 0.2132 0.0715 -0.0243
C5B C -0.1406(6) -0.0375(8) 0.2500
C6B C -0.2580(4) -0.0260(6) 0.1913(3)
H7B H -0.2337 -0.0283 0.1511
C8B C -0.2204(6) -0.0306(8) 0.2500
C9B C 0.1757(7) 0.0666(9) 0.1058(5)
H8B H 0.1786 0.0615 0.1518
C11B C -0.3635(5) -0.0131(8) 0.2500
H9B H -0.4108 -0.0063 0.2500
O1E O -0.1119(3) -0.0393(4) 0.3047(3)
O2E O -0.3205(3) -0.0067(4) 0.4274(2)
O3E O -0.4306(3) -0.0116(4) 0.3806(2)
C1E C -0.3286(4) -0.0182(6) 0.3109(3)
C3E C -0.3636(5) -0.0116(7) 0.3755(3)
C6E C -0.2580(4) -0.0260(6) 0.3087(3)
H7E H -0.2337 -0.0283 0.3489
O6C O -0.0652(4) -0.1039(4) 0.4207(3)
N1C N -0.1460(5) -0.2503(5) 0.4303(4)
C2C C -0.1937(6) -0.3312(5) 0.3981(6)
H1C H -0.2022 -0.3229 0.3520
H2C H -0.1630 -0.3614 0.4009
H3C H -0.2477 -0.3635 0.4197
C4C C -0.1257(7) -0.2488(6) 0.5005(4)
H4C H -0.1562 -0.3054 0.5182
H5C H -0.0659 -0.2271 0.5054
H6C H -0.1417 -0.2132 0.5243
C9C C -0.1091(6) -0.1757(7) 0.3942(5)
H8C H -0.1171 -0.1786 0.3482
In1D In 0.00000(4) -0.40891(3) 0.0000
O6D O -0.0387(6) 0.0652(4) 0.0793(3)
N1D N -0.1043(7) 0.1460(5) 0.0697(4)
C2D C -0.1375(8) 0.1937(6) 0.1019(6)
H1D H -0.1207 0.2022 0.1480
H2D H -0.1984 0.1630 0.0991
H3D H -0.1158 0.2477 0.0803
C4D C -0.1231(9) 0.1257(7) -0.0005(4)
H4D H -0.1492 0.1562 -0.0182
H5D H -0.1612 0.0659 -0.0054
H6D H -0.0715 0.1417 -0.0243
C9D C -0.0666(9) 0.1091(6) 0.1058(5)
H8D H -0.0615 0.1171 0.1518
O6E O 0.1039(4) 0.0387(6) 0.4207(3)
N1E N 0.2503(5) 0.1043(7) 0.4303(4)
C2E C 0.3312(5) 0.1375(8) 0.3981(6)
H1E H 0.3229 0.1207 0.3520
H2E H 0.3614 0.1984 0.4009
H3E H 0.3635 0.1158 0.4197
C4E C 0.2488(6) 0.1231(9) 0.5005(4)
H4E H 0.3054 0.1492 0.5182
H5E H 0.2271 0.1612 0.5054
H6E H 0.2132 0.0715 0.5243
C9E C 0.1757(7) 0.0666(9) 0.3942(5)
H8E H 0.1786 0.0615 0.3482
O4I O 0.4490(3) 0.5484(3) -0.00607(19)
O5I O 0.3140(3) 0.4571(3) -0.0070(2)
C7I C 0.2678(4) 0.5815(4) -0.0107(3)
C10I C 0.3542(4) 0.6036(4) -0.0116(3)
C12I C 0.3740(5) 0.5311(4) -0.0080(3)
O4G O 0.0994(4) 0.5510(3) -0.00607(19)
O5G O 0.1431(4) 0.6860(3) -0.0070(2)
C7G C 0.3137(6) 0.7322(4) -0.0107(3)
C10G C 0.2494(6) 0.6458(4) -0.0116(3)
C12G C 0.1571(6) 0.6260(5) -0.0080(3)
O4K O 0.4516(3) 0.9006(4) -0.00607(19)
O5K O 0.5429(3) 0.8569(4) -0.0070(2)
C7K C 0.4185(4) 0.6863(6) -0.0107(3)
C10K C 0.3964(4) 0.7506(6) -0.0116(3)
C12K C 0.4689(4) 0.8429(6) -0.0080(3)
In1A In -0.00000(4) -0.40891(3) 0.5000
In1B_2 In 0.59109(3) 0.00000(4) 0.0000
In1B_3 In 0.59109(3) 1.00000(4) 0.0000
In1C In 0.40891(3) 0.40891(3) 0.5000
In1D_2 In 0.00000(4) 0.59109(3) 0.0000
In1D_3 In 1.00000(4) 0.59109(3) 0.0000
In1E In -0.40891(3) 0.00000(4) 0.5000
O2G O -0.0067(4) -0.3205(3) -0.0726(2)
O2I O 0.3205(3) 0.3138(3) -0.0726(2)
O2K O -0.3138(3) 0.0067(4) -0.0726(2)
O3G O -0.0116(4) -0.4306(3) -0.1194(2)
O3I O 0.4306(3) 0.4190(3) -0.1194(2)
O3K O -0.4190(3) 0.0116(4) -0.1194(2)
O4B_2 O -0.4490(3) 0.0994(4) 0.00607(19)
O4D_2 O -0.0994(4) -0.5484(3) 0.00607(19)
O4G_2 O 0.0994(4) -0.4490(3) -0.00607(19)
O4K_2 O -0.5484(3) -0.0994(4) -0.00607(19)
O5B_2 O -0.3140(3) 0.1431(4) 0.0070(2)
O5D_2 O -0.1431(4) -0.4571(3) 0.0070(2)
O5G_2 O 0.1431(4) -0.3140(3) -0.0070(2)
O5K_2 O -0.4571(3) -0.1431(4) -0.0070(2)
loop_
_geom_bond_atom_site_label_1
_geom_bond_atom_site_label_2
_geom_bond_site_symmetry_1
_geom_bond_site_symmetry_2
In1 O2 1_555 1_555
Co1 O1 1_555 1_555
O1 C5 1_555 1_555
O2 C3 1_555 1_555
O3 In1 1_555 1_555
O4 In1 1_555 1_555
O5 In1 1_555 1_555
O6 Co1 1_555 1_555
N1 C2 1_555 1_555
C1 C3 1_555 1_555
C2 H1 1_555 1_555
H2 C2 1_555 1_555
H3 C2 1_555 1_555
C3 O3 1_555 1_555
C4 N1 1_555 1_555
H4 C4 1_555 1_555
H5 C4 1_555 1_555
H6 C4 1_555 1_555
C5 C8 1_555 1_555
C6 C1 1_555 1_555
H7 C6 1_555 1_555
C7 C10 1_555 1_555
C8 C6 1_555 1_555
C9 O6 1_555 1_555
H8 C9 1_555 1_555
C10 C12 1_555 1_555
C11 C1 1_555 1_555
H9 C11 1_555 1_555
C12 O4 1_555 1_555
O1C C5 1_555 1_555
O2C C3C 1_555 1_555
O3C C3C 1_555 1_555
C1C C11 1_555 1_555
C3C C1C 1_555 1_555
C6C C8 1_555 1_555
H7C C6C 1_555 1_555
O4B C12B 1_555 1_555
O5B C12B 1_555 1_555
C7B C10B 1_555 1_555
C10B C7 1_555 1_555
C12B C10B 1_555 1_555
O4D C12D 1_555 1_555
O5D C12D 1_555 1_555
C7D C10 1_555 1_555
C10D C7B 1_555 1_555
C12D C10D 1_555 1_555
Co1A O1C 1_555 1_555
O1A Co1A 1_555 1_555
O2A C3A 1_555 1_555
O3A C3A 1_555 1_555
O6A Co1A 1_555 1_555
N1A C2A 1_555 1_555
C1A C3A 1_555 1_555
C2A H1A 1_555 1_555
H2A C2A 1_555 1_555
H3A C2A 1_555 1_555
C4A N1A 1_555 1_555
H4A C4A 1_555 1_555
H5A C4A 1_555 1_555
H6A C4A 1_555 1_555
C5A O1A 1_555 1_555
C6A C1A 1_555 1_555
H7A C6A 1_555 1_555
C8A C5A 1_555 1_555
C9A O6A 1_555 1_555
H8A C9A 1_555 1_555
C11A C1A 1_555 1_555
H9A C11A 1_555 1_555
O1D Co1 1_555 1_555
O2D C3D 1_555 1_555
O3D C3D 1_555 1_555
C1D C11A 1_555 1_555
C3D C1D 1_555 1_555
C6D C8A 1_555 1_555
H7D C6D 1_555 1_555
In1B O2B 1_555 1_555
O1B Co1 1_555 1_555
O2B C3B 1_555 1_555
O3B In1B 1_555 1_555
O6B Co1 1_555 1_555
N1B C2B 1_555 1_555
C1B C3B 1_555 1_555
C2B H1B 1_555 1_555
H2B C2B 1_555 1_555
H3B C2B 1_555 1_555
C3B O3B 1_555 1_555
C4B N1B 1_555 1_555
H4B C4B 1_555 1_555
H5B C4B 1_555 1_555
H6B C4B 1_555 1_555
C5B O1B 1_555 1_555
C6B C1B 1_555 1_555
H7B C6B 1_555 1_555
C8B C5B 1_555 1_555
C9B O6B 1_555 1_555
H8B C9B 1_555 1_555
C11B C1B 1_555 1_555
H9B C11B 1_555 1_555
O1E Co1A 1_555 1_555
O2E C3E 1_555 1_555
O3E C3E 1_555 1_555
C1E C11B 1_555 1_555
C3E C1E 1_555 1_555
C6E C8B 1_555 1_555
H7E C6E 1_555 1_555
O6C Co1A 1_555 1_555
N1C C2C 1_555 1_555
C2C H1C 1_555 1_555
H2C C2C 1_555 1_555
H3C C2C 1_555 1_555
C4C N1C 1_555 1_555
H4C C4C 1_555 1_555
H5C C4C 1_555 1_555
H6C C4C 1_555 1_555
C9C O6C 1_555 1_555
H8C C9C 1_555 1_555
In1D O2D 1_555 1_555
O6D Co1 1_555 1_555
N1D C2D 1_555 1_555
C2D H1D 1_555 1_555
H2D C2D 1_555 1_555
H3D C2D 1_555 1_555
C4D N1D 1_555 1_555
H4D C4D 1_555 1_555
H5D C4D 1_555 1_555
H6D C4D 1_555 1_555
C9D O6D 1_555 1_555
H8D C9D 1_555 1_555
O6E Co1A 1_555 1_555
N1E C2E 1_555 1_555
C2E H1E 1_555 1_555
H2E C2E 1_555 1_555
H3E C2E 1_555 1_555
C4E N1E 1_555 1_555
H4E C4E 1_555 1_555
H5E C4E 1_555 1_555
H6E C4E 1_555 1_555
C9E O6E 1_555 1_555
H8E C9E 1_555 1_555
O4I In1 1_555 1_555
O5I In1 1_555 1_555
C7I C10I 1_555 1_555
C10I C12I 1_555 1_555
C12I O4I 1_555 1_555
O4G C12G 1_555 1_555
O5G C12G 1_555 1_555
C7G C10G 1_555 1_555
C10G C7I 1_555 1_555
C12G C10G 1_555 1_555
O4K C12K 1_555 1_555
O5K C12K 1_555 1_555
C7K C10I 1_555 1_555
C10K C7G 1_555 1_555
C12K C10K 1_555 1_555
In1A O2A 1_555 1_555
In1B_2 O4B 1_555 1_555
In1B_3 O4K 1_555 1_555
In1C O2C 1_555 1_555
In1D_2 O4G 1_555 1_555
In1D_3 O4D 1_555 1_555
In1E O2E 1_555 1_555
O2G In1D 1_555 1_555
O2I In1 1_555 1_555
O2K In1B 1_555 1_555
O3G In1D 1_555 1_555
O3I In1 1_555 1_555
O3K In1B 1_555 1_555
O4B_2 In1B 1_555 1_555
O4D_2 In1D 1_555 1_555
O4G_2 In1D 1_555 1_555
O4K_2 In1B 1_555 1_555
O5B_2 In1B 1_555 1_555
O5D_2 In1D 1_555 1_555
O5G_2 In1D 1_555 1_555
O5K_2 In1B 1_555 1_555
O5 C12 1_555 1_555
N1 C9 1_555 1_555
O3C In1C 1_555 1_555
C1C C6C 1_555 1_555
O5B In1B_2 1_555 1_555
O5D In1D_3 1_555 1_555
C7D C10D 1_555 1_555
O3A In1A 1_555 1_555
N1A C9A 1_555 1_555
C5A O1D 1_555 1_555
C6A C8A 1_555 1_555
O3D In1D 1_555 1_555
C1D C6D 1_555 1_555
N1B C9B 1_555 1_555
C5B O1E 1_555 1_555
C6B C8B 1_555 1_555
O3E In1E 1_555 1_555
C1E C6E 1_555 1_555
N1C C9C 1_555 1_555
N1D C9D 1_555 1_555
N1E C9E 1_555 1_555
O5I C12I 1_555 1_555
O5G In1D_2 1_555 1_555
O5K In1B_3 1_555 1_555
C7K C10K 1_555 1_555

#END
