
#######################################################################
#
#                 Cambridge Crystallographic Data Centre
#                                CCDC 
#
#######################################################################
#
# If this CIF has been generated from an entry in the Cambridge 
# Structural Database, then it will include bibliographic, chemical, 
# crystal, experimental, refinement or atomic coordinate data resulting 
# from the CCDC's data processing and validation procedures.
#
#######################################################################

data_TABPEU
_chemical_formula_moiety         '(C88 H80 N16 O16 Zn4)n'
_symmetry_cell_setting           monoclinic
_symmetry_space_group_name_H-M   'C 2/c'
_symmetry_Int_Tables_number      15
_space_group_name_Hall           '-C 2yc'
loop_
_symmetry_equiv_pos_site_id
_symmetry_equiv_pos_as_xyz
1 x,y,z
2 -x,y,1/2-z
3 1/2+x,1/2+y,z
4 1/2-x,1/2+y,1/2-z
5 -x,-y,-z
6 x,-y,1/2+z
7 1/2-x,1/2-y,-z
8 1/2+x,1/2-y,1/2+z
_cell_length_a                   12.0935(6)
_cell_length_b                   34.0051(17)
_cell_length_c                   31.9458(16)
_cell_angle_alpha                90
_cell_angle_beta                 93.564(3)
_cell_angle_gamma                90
_cell_volume                     13112
loop_
_atom_site_label
_atom_site_type_symbol
_atom_site_fract_x
_atom_site_fract_y
_atom_site_fract_z
_atom_site_U_iso_or_equiv
_atom_site_thermal_displace_type
Zn1 Zn 0.82687(3) 0.665792(10) 0.549662(13) 0.0453 Uani
Zn2 Zn 0.42316(4) 0.423249(12) 0.655109(14) 0.0612 Uani
O1 O 0.8945(2) 0.71426(6) 0.57213(7) 0.0515 Uani
O2 O 1.0487(2) 0.67889(8) 0.58360(9) 0.0714 Uani
O3 O 1.0254(2) 0.88041(7) 0.64607(8) 0.0762 Uani
O4 O 0.8690(3) 0.84973(7) 0.62392(9) 0.0797 Uani
O5 O 0.8018(2) 0.63346(7) 0.59811(7) 0.0581 Uani
O6 O 0.7345(2) 0.58760(7) 0.55381(8) 0.0629 Uani
O7 O 0.5583(2) 0.46919(7) 0.61153(9) 0.0698 Uani
O8 O 0.4950(2) 0.47292(7) 0.67541(8) 0.0637 Uani
N1 N 0.8957(2) 0.64844(7) 0.49763(9) 0.0455 Uani
N2 N 1.0486(2) 0.61685(9) 0.38907(10) 0.0599 Uani
N3 N 1.1694(3) 0.60725(8) 0.31530(9) 0.0567 Uani
N4 N 1.3401(3) 0.58867(9) 0.20714(10) 0.0625 Uani
N5 N 0.6751(2) 0.68773(8) 0.53021(9) 0.0483 Uani
N6 N 0.3594(2) 0.73475(8) 0.50356(11) 0.0626 Uani
N7 N 0.3050(3) 0.44073(9) 0.61249(10) 0.0575 Uani
N8 N 0.0401(4) 0.47020(10) 0.52679(12) 0.0894 Uani
C1 C 0.8418(3) 0.65057(10) 0.45946(12) 0.0493 Uani
H1 H 0.7673 0.6596 0.4578 0.0590 Uiso
C2 C 0.8886(3) 0.64034(10) 0.42279(12) 0.0535 Uani
H2 H 0.8463 0.6422 0.3968 0.0640 Uiso
C3 C 0.9974(3) 0.62730(10) 0.42385(12) 0.0503 Uani
C4 C 1.0547(3) 0.62480(10) 0.46395(12) 0.0536 Uani
H3 H 1.1293 0.6159 0.4666 0.0640 Uiso
C5 C 1.0012(3) 0.63533(9) 0.49878(12) 0.0496 Uani
H4 H 1.0407 0.6333 0.5253 0.0600 Uiso
C6 C 1.1645(3) 0.60345(12) 0.39140(12) 0.0667 Uani
H5 H 1.2142 0.6264 0.3961 0.0810 Uiso
H6 H 1.1771 0.5854 0.4156 0.0810 Uiso
C7 C 1.1923(4) 0.58308(11) 0.35284(12) 0.0703 Uani
H7 H 1.2718 0.5760 0.3550 0.0840 Uiso
H8 H 1.1489 0.5584 0.3500 0.0840 Uiso
C8 C 1.0820(3) 0.63560(10) 0.31709(11) 0.0527 Uani
H9 H 1.0461 0.6393 0.2887 0.0630 Uiso
H10 H 1.1136 0.6612 0.3266 0.0630 Uiso
C9 C 0.9967(3) 0.62263(12) 0.34651(12) 0.0662 Uani
H11 H 0.9378 0.6428 0.3473 0.0800 Uiso
H12 H 0.9623 0.5977 0.3363 0.0800 Uiso
C10 C 1.2255(3) 0.60159(10) 0.28020(12) 0.0542 Uani
C11 C 1.2146(3) 0.62681(10) 0.24595(11) 0.0485 Uani
H13 H 1.1666 0.6489 0.2465 0.0580 Uiso
C12 C 1.2730(3) 0.61991(10) 0.21144(12) 0.0554 Uani
H14 H 1.2658 0.6383 0.1890 0.0660 Uiso
C13 C 1.3486(4) 0.56456(12) 0.24052(14) 0.0815 Uani
H15 H 1.3953 0.5422 0.2390 0.0980 Uiso
C14 C 1.2955(4) 0.56983(11) 0.27610(13) 0.0786 Uani
H16 H 1.3064 0.5516 0.2985 0.0940 Uiso
C15 C 0.5890(3) 0.66504(10) 0.51608(12) 0.0540 Uani
H17 H 0.6013 0.6376 0.5129 0.0650 Uiso
C16 C 0.4862(3) 0.67933(10) 0.50622(12) 0.0578 Uani
H18 H 0.4292 0.6620 0.4958 0.0690 Uiso
C17 C 0.4628(3) 0.71966(10) 0.51123(11) 0.0499 Uani
C18 C 0.5531(3) 0.74265(10) 0.52488(12) 0.0553 Uani
H19 H 0.5438 0.7702 0.5282 0.0660 Uiso
C19 C 0.6536(3) 0.72640(10) 0.53343(11) 0.0503 Uani
H20 H 0.7131 0.7433 0.5423 0.0600 Uiso
C20 C 0.3369(4) 0.77565(11) 0.5108(2) 0.1151 Uani
H21 H 0.3737 0.7827 0.5383 0.1380 Uiso
H22 H 0.3741 0.7909 0.4893 0.1380 Uiso
C21 C 0.2654(4) 0.71180(13) 0.4894(3) 0.1735 Uani
H23 H 0.2777 0.7040 0.4602 0.2080 Uiso
H24 H 0.2687 0.6873 0.5062 0.2080 Uiso
C22 C 0.9949(4) 0.71008(11) 0.58589(12) 0.0563 Uani
C23 C 1.0496(3) 0.74572(11) 0.60551(11) 0.0533 Uani
C24 C 1.1581(4) 0.74398(13) 0.62189(15) 0.0817 Uani
H25 H 1.1996 0.7204 0.6202 0.0980 Uiso
C25 C 1.2060(4) 0.77769(16) 0.64115(17) 0.1029 Uani
H26 H 1.2810 0.7772 0.6520 0.1240 Uiso
C26 C 1.1439(4) 0.81120(13) 0.64418(15) 0.0814 Uani
H27 H 1.1759 0.8335 0.6582 0.0980 Uiso
C27 C 1.0384(3) 0.81334(10) 0.62773(12) 0.0563 Uani
C28 C 0.9917(3) 0.78059(10) 0.60860(11) 0.0503 Uani
H28 H 0.9174 0.7819 0.5972 0.0600 Uiso
C29 C 0.9713(4) 0.84993(11) 0.63255(12) 0.0598 Uani
C30 C 0.7506(3) 0.60096(10) 0.58905(13) 0.0490 Uani
C31 C 0.7045(3) 0.58067(9) 0.62629(11) 0.0495 Uani
C32 C 0.7042(3) 0.59851(10) 0.66550(12) 0.0647 Uani
H29 H 0.7388 0.6234 0.6701 0.0780 Uiso
C33 C 0.6535(4) 0.57995(11) 0.69777(12) 0.0743 Uani
H30 H 0.6527 0.5924 0.7244 0.0890 Uiso
C34 C 0.6043(3) 0.54378(11) 0.69182(12) 0.0614 Uani
H31 H 0.5696 0.5314 0.7142 0.0740 Uiso
C35 C 0.6052(3) 0.52521(9) 0.65295(11) 0.0463 Uani
C36 C 0.6556(3) 0.54382(9) 0.62095(11) 0.0471 Uani
H32 H 0.6571 0.5311 0.5945 0.0560 Uiso
C37 C 0.5491(3) 0.48673(11) 0.64570(13) 0.0551 Uani
C38 C 0.2111(4) 0.45761(11) 0.62410(13) 0.0733 Uani
H33 H 0.2051 0.4623 0.6532 0.0880 Uiso
C39 C 0.1237(4) 0.46853(11) 0.59751(13) 0.0730 Uani
H34 H 0.0597 0.4801 0.6081 0.0880 Uiso
C40 C 0.1297(4) 0.46246(10) 0.55441(13) 0.0658 Uani
C41 C 0.2283(4) 0.44628(11) 0.54187(13) 0.0640 Uani
H35 H 0.2386 0.4427 0.5129 0.0770 Uiso
C42 C 0.3105(3) 0.43552(11) 0.57120(13) 0.0621 Uani
H36 H 0.3753 0.4236 0.5615 0.0740 Uiso
C43 C 0.0467(4) 0.46751(14) 0.48065(14) 0.0927 Uani
H37 H 0.1124 0.4519 0.4740 0.1110 Uiso
H38 H -0.0201 0.4542 0.4681 0.1110 Uiso
C44 C -0.0546(4) 0.49360(15) 0.53651(15) 0.0969 Uani
H39 H -0.1233 0.4808 0.5248 0.1160 Uiso
H40 H -0.0586 0.4953 0.5673 0.1160 Uiso
N5F N -0.1751(2) 0.81227(8) 0.46979(9) 0.0483 Uani
N6F N 0.1406(2) 0.76525(8) 0.49644(11) 0.0626 Uani
C15F C -0.0890(3) 0.83496(10) 0.48392(12) 0.0540 Uani
H17F H -0.1013 0.8624 0.4871 0.0650 Uiso
C16F C 0.0138(3) 0.82067(10) 0.49378(12) 0.0578 Uani
H18F H 0.0708 0.8380 0.5042 0.0690 Uiso
C17F C 0.0372(3) 0.78034(10) 0.48877(11) 0.0499 Uani
C18F C -0.0531(3) 0.75735(10) 0.47512(12) 0.0553 Uani
H19F H -0.0438 0.7298 0.4718 0.0660 Uiso
C19F C -0.1536(3) 0.77360(10) 0.46657(11) 0.0503 Uani
H20F H -0.2131 0.7567 0.4577 0.0600 Uiso
C20F C 0.1631(4) 0.72435(11) 0.4892(2) 0.1151 Uani
H21F H 0.1263 0.7173 0.4617 0.1380 Uiso
H22F H 0.1259 0.7091 0.5107 0.1380 Uiso
C21F C 0.2346(4) 0.78820(13) 0.5106(3) 0.1735 Uani
H23F H 0.2223 0.7960 0.5398 0.2080 Uiso
H24F H 0.2313 0.8127 0.4938 0.2080 Uiso
N7D N -0.3050(3) 0.55927(9) 0.38751(10) 0.0575 Uani
N8D N -0.0401(4) 0.52980(10) 0.47321(12) 0.0894 Uani
C38D C -0.2111(4) 0.54239(11) 0.37590(13) 0.0733 Uani
H33D H -0.2051 0.5377 0.3468 0.0880 Uiso
C39D C -0.1237(4) 0.53147(11) 0.40249(13) 0.0730 Uani
H34D H -0.0597 0.5199 0.3919 0.0880 Uiso
C40D C -0.1297(4) 0.53754(10) 0.44559(13) 0.0658 Uani
C41D C -0.2283(4) 0.55372(11) 0.45813(13) 0.0640 Uani
H35D H -0.2386 0.5573 0.4871 0.0770 Uiso
C42D C -0.3105(3) 0.56448(11) 0.42880(13) 0.0621 Uani
H36D H -0.3753 0.5764 0.4385 0.0740 Uiso
C43D C -0.0467(4) 0.53249(14) 0.51935(14) 0.0927 Uani
H37D H -0.1124 0.5481 0.5260 0.1110 Uiso
H38D H 0.0201 0.5458 0.5319 0.1110 Uiso
C44D C 0.0546(4) 0.50640(15) 0.46349(15) 0.0969 Uani
H39D H 0.1233 0.5192 0.4752 0.1160 Uiso
H40D H 0.0586 0.5047 0.4327 0.1160 Uiso
Zn1D Zn -0.82687(3) 0.334208(10) 0.450338(13) 0.0453 Uani
Zn2D Zn -0.42316(4) 0.576751(12) 0.344891(14) 0.0612 Uani
O1D O -0.8945(2) 0.28574(6) 0.42787(7) 0.0515 Uani
O2D O -1.0487(2) 0.32111(8) 0.41640(9) 0.0714 Uani
O3D O -1.0254(2) 0.11959(7) 0.35393(8) 0.0762 Uani
O4D O -0.8690(3) 0.15027(7) 0.37608(9) 0.0797 Uani
O5D O -0.8018(2) 0.36654(7) 0.40189(7) 0.0581 Uani
O6D O -0.7345(2) 0.41240(7) 0.44619(8) 0.0629 Uani
O7D O -0.5583(2) 0.53081(7) 0.38847(9) 0.0698 Uani
O8D O -0.4950(2) 0.52708(7) 0.32459(8) 0.0637 Uani
N1D N -0.8957(2) 0.35156(7) 0.50237(9) 0.0455 Uani
N2D N -1.0486(2) 0.38315(9) 0.61093(10) 0.0599 Uani
N3D N -1.1694(3) 0.39275(8) 0.68470(9) 0.0567 Uani
N4D N -1.3401(3) 0.41133(9) 0.79286(10) 0.0625 Uani
C1D C -0.8418(3) 0.34943(10) 0.54054(12) 0.0493 Uani
H1D H -0.7673 0.3404 0.5422 0.0590 Uiso
C2D C -0.8886(3) 0.35966(10) 0.57721(12) 0.0535 Uani
H2D H -0.8463 0.3578 0.6032 0.0640 Uiso
C3D C -0.9974(3) 0.37270(10) 0.57615(12) 0.0503 Uani
C4D C -1.0547(3) 0.37520(10) 0.53605(12) 0.0536 Uani
H3D H -1.1293 0.3841 0.5334 0.0640 Uiso
C5D C -1.0012(3) 0.36467(9) 0.50122(12) 0.0496 Uani
H4D H -1.0407 0.3667 0.4747 0.0600 Uiso
C6D C -1.1645(3) 0.39655(12) 0.60860(12) 0.0667 Uani
H5D H -1.2142 0.3736 0.6039 0.0810 Uiso
H6D H -1.1771 0.4146 0.5844 0.0810 Uiso
C7D C -1.1923(4) 0.41692(11) 0.64716(12) 0.0703 Uani
H7D H -1.2718 0.4240 0.6450 0.0840 Uiso
H8D H -1.1489 0.4416 0.6500 0.0840 Uiso
C8D C -1.0820(3) 0.36440(10) 0.68291(11) 0.0527 Uani
H9D H -1.0461 0.3607 0.7113 0.0630 Uiso
H10D H -1.1136 0.3388 0.6734 0.0630 Uiso
C9D C -0.9967(3) 0.37737(12) 0.65349(12) 0.0662 Uani
H11D H -0.9378 0.3572 0.6527 0.0800 Uiso
H12D H -0.9623 0.4023 0.6637 0.0800 Uiso
C10D C -1.2255(3) 0.39841(10) 0.71980(12) 0.0542 Uani
C11D C -1.2146(3) 0.37319(10) 0.75405(11) 0.0485 Uani
H13D H -1.1666 0.3511 0.7535 0.0580 Uiso
C12D C -1.2730(3) 0.38009(10) 0.78856(12) 0.0554 Uani
H14D H -1.2658 0.3617 0.8110 0.0660 Uiso
C13D C -1.3486(4) 0.43544(12) 0.75948(14) 0.0815 Uani
H15D H -1.3953 0.4578 0.7610 0.0980 Uiso
C14D C -1.2955(4) 0.43017(11) 0.72390(13) 0.0786 Uani
H16D H -1.3064 0.4484 0.7015 0.0940 Uiso
C22D C -0.9949(4) 0.28992(11) 0.41411(12) 0.0563 Uani
C23D C -1.0496(3) 0.25428(11) 0.39449(11) 0.0533 Uani
C24D C -1.1581(4) 0.25602(13) 0.37811(15) 0.0817 Uani
H25D H -1.1996 0.2796 0.3798 0.0980 Uiso
C25D C -1.2060(4) 0.22231(16) 0.35885(17) 0.1029 Uani
H26D H -1.2810 0.2228 0.3480 0.1240 Uiso
C26D C -1.1439(4) 0.18880(13) 0.35582(15) 0.0814 Uani
H27D H -1.1759 0.1665 0.3418 0.0980 Uiso
C27D C -1.0384(3) 0.18666(10) 0.37227(12) 0.0563 Uani
C28D C -0.9917(3) 0.21941(10) 0.39140(11) 0.0503 Uani
H28D H -0.9174 0.2181 0.4028 0.0600 Uiso
C29D C -0.9713(4) 0.15007(11) 0.36745(12) 0.0598 Uani
C30D C -0.7506(3) 0.39904(10) 0.41095(13) 0.0490 Uani
C31D C -0.7045(3) 0.41933(9) 0.37371(11) 0.0495 Uani
C32D C -0.7042(3) 0.40149(10) 0.33450(12) 0.0647 Uani
H29D H -0.7388 0.3766 0.3299 0.0780 Uiso
C33D C -0.6535(4) 0.42005(11) 0.30223(12) 0.0743 Uani
H30D H -0.6527 0.4076 0.2756 0.0890 Uiso
C34D C -0.6043(3) 0.45622(11) 0.30818(12) 0.0614 Uani
H31D H -0.5696 0.4686 0.2858 0.0740 Uiso
C35D C -0.6052(3) 0.47479(9) 0.34705(11) 0.0463 Uani
C36D C -0.6556(3) 0.45618(9) 0.37905(11) 0.0471 Uani
H32D H -0.6571 0.4689 0.4055 0.0560 Uiso
C37D C -0.5491(3) 0.51327(11) 0.35430(13) 0.0551 Uani
Zn1F Zn -0.32687(3) 0.834208(10) 0.450338(13) 0.0453 Uani
Zn2A Zn -1.42316(4) 0.423249(12) 0.844891(14) 0.0612 Uani
Zn2B Zn 0.92316(4) 0.923249(12) 0.655109(14) 0.0612 Uani
Zn2E Zn 1.42316(4) 0.576751(12) 0.155109(14) 0.0612 Uani
Zn2F Zn -0.92316(4) 0.076751(12) 0.344891(14) 0.0612 Uani
O3B O 0.5254(2) 0.38041(7) 0.64607(8) 0.0762 Uani
O3F O -0.5254(2) 0.61959(7) 0.35393(8) 0.0762 Uani
N4A N -0.3401(3) 0.58867(9) 0.29286(10) 0.0625 Uani
N4E N 0.3401(3) 0.41133(9) 0.70714(10) 0.0625 Uani
N5D N -0.6751(2) 0.31227(8) 0.46979(9) 0.0483 Uani
loop_
_atom_site_aniso_label
_atom_site_aniso_U_11
_atom_site_aniso_U_22
_atom_site_aniso_U_33
_atom_site_aniso_U_23
_atom_site_aniso_U_13
_atom_site_aniso_U_12
Zn1 0.0497(3) 0.0368(2) 0.0496(3) -0.00176(18) 0.0046(2) -0.00601(19)
Zn2 0.0683(3) 0.0631(3) 0.0524(3) 0.0018(2) 0.0047(2) -0.0246(2)
O1 0.0555(17) 0.0429(13) 0.0560(16) -0.0044(12) 0.0015(14) -0.0128(12)
O2 0.0721(19) 0.0557(16) 0.085(2) -0.0161(15) -0.0056(16) 0.0072(15)
O3 0.104(2) 0.0560(16) 0.0697(19) -0.0097(14) 0.0142(17) -0.0385(16)
O4 0.089(2) 0.0577(17) 0.091(2) -0.0162(15) -0.0067(19) -0.0027(17)
O5 0.0681(17) 0.0510(14) 0.0547(16) 0.0041(12) -0.0008(14) -0.0213(13)
O6 0.089(2) 0.0528(15) 0.0482(16) -0.0067(13) 0.0143(15) -0.0144(14)
O7 0.087(2) 0.0520(15) 0.071(2) -0.0040(14) 0.0087(17) -0.0261(14)
O8 0.0714(18) 0.0616(15) 0.0573(17) 0.0187(13) -0.0033(15) -0.0248(14)
N1 0.0454(19) 0.0386(15) 0.053(2) -0.0023(14) 0.0069(16) -0.0038(14)
N2 0.052(2) 0.075(2) 0.053(2) -0.0007(17) 0.0054(18) 0.0095(17)
N3 0.067(2) 0.0583(19) 0.0452(19) 0.0062(15) 0.0056(17) 0.0226(17)
N4 0.074(2) 0.0591(19) 0.054(2) 0.0000(17) 0.0017(18) 0.0311(18)
N5 0.0465(19) 0.0446(17) 0.0545(19) -0.0003(14) 0.0091(15) -0.0026(15)
N6 0.045(2) 0.0384(17) 0.103(3) -0.0043(17) -0.0070(19) 0.0009(16)
N7 0.065(2) 0.064(2) 0.044(2) -0.0013(16) 0.0068(18) -0.0148(18)
N8 0.122(3) 0.087(3) 0.059(2) 0.000(2) 0.004(2) 0.050(2)
C1 0.037(2) 0.052(2) 0.059(3) -0.0015(19) 0.004(2) -0.0028(17)
C2 0.046(3) 0.068(2) 0.046(2) -0.0039(19) 0.000(2) -0.008(2)
C3 0.045(2) 0.054(2) 0.053(3) -0.0044(19) 0.012(2) -0.0019(19)
C4 0.053(2) 0.053(2) 0.055(3) -0.0001(19) 0.006(2) 0.0074(19)
C5 0.053(3) 0.043(2) 0.052(2) 0.0038(17) -0.003(2) 0.0049(18)
C6 0.061(3) 0.078(3) 0.062(3) 0.003(2) 0.010(2) 0.024(2)
C7 0.077(3) 0.075(3) 0.060(3) 0.004(2) 0.013(2) 0.028(2)
C8 0.043(2) 0.063(2) 0.052(2) 0.0016(19) 0.001(2) 0.0118(19)
C9 0.059(3) 0.086(3) 0.053(3) -0.007(2) -0.002(2) -0.001(2)
C10 0.062(3) 0.049(2) 0.051(3) -0.0025(19) -0.002(2) 0.015(2)
C11 0.043(2) 0.049(2) 0.053(2) -0.0033(19) 0.000(2) 0.0145(17)
C12 0.060(3) 0.049(2) 0.056(3) 0.0025(19) -0.005(2) 0.018(2)
C13 0.107(4) 0.071(3) 0.068(3) 0.012(2) 0.017(3) 0.046(3)
C14 0.115(4) 0.071(3) 0.052(3) 0.015(2) 0.024(3) 0.050(3)
C15 0.046(2) 0.049(2) 0.067(3) -0.0103(19) 0.003(2) -0.006(2)
C16 0.044(2) 0.0358(19) 0.092(3) -0.0161(19) -0.008(2) -0.0069(18)
C17 0.046(2) 0.044(2) 0.060(2) 0.0012(18) 0.005(2) -0.0042(19)
C18 0.046(2) 0.0372(19) 0.082(3) 0.0037(19) -0.001(2) -0.0013(19)
C19 0.048(2) 0.040(2) 0.063(3) 0.0002(18) 0.005(2) -0.0125(18)
C20 0.055(3) 0.040(2) 0.247(7) -0.039(3) -0.016(4) 0.002(2)
C21 0.062(3) 0.053(3) 0.395(11) -0.085(5) -0.070(5) 0.009(3)
C22 0.062(3) 0.057(3) 0.051(2) -0.003(2) 0.012(2) -0.013(2)
C23 0.048(2) 0.059(2) 0.053(2) -0.0161(19) 0.003(2) -0.017(2)
C24 0.066(3) 0.079(3) 0.100(4) -0.039(3) 0.005(3) -0.010(2)
C25 0.056(3) 0.119(4) 0.130(5) -0.058(4) -0.025(3) -0.013(3)
C26 0.071(3) 0.067(3) 0.106(4) -0.040(3) 0.005(3) -0.014(3)
C27 0.061(3) 0.056(2) 0.053(2) -0.0106(19) 0.012(2) -0.024(2)
C28 0.058(2) 0.045(2) 0.048(2) -0.0029(17) 0.0043(19) -0.0140(19)
C29 0.087(3) 0.043(2) 0.050(2) -0.0033(19) 0.008(2) -0.020(2)
C30 0.053(2) 0.036(2) 0.058(3) 0.0043(19) 0.003(2) -0.0046(18)
C31 0.064(3) 0.0378(19) 0.047(2) 0.0026(17) 0.005(2) -0.0060(18)
C32 0.097(3) 0.047(2) 0.050(3) 0.0011(19) 0.003(2) -0.020(2)
C33 0.117(4) 0.062(3) 0.044(2) -0.008(2) 0.007(2) -0.026(3)
C34 0.078(3) 0.056(2) 0.050(3) 0.012(2) 0.003(2) -0.014(2)
C35 0.049(2) 0.0379(19) 0.051(2) 0.0055(17) -0.0048(19) -0.0056(17)
C36 0.049(2) 0.042(2) 0.050(2) 0.0016(17) 0.0008(19) -0.0027(17)
C37 0.051(2) 0.058(2) 0.055(3) 0.011(2) -0.008(2) -0.011(2)
C38 0.112(4) 0.061(3) 0.048(3) -0.004(2) 0.014(3) -0.001(3)
C39 0.102(4) 0.069(3) 0.048(3) -0.001(2) 0.005(3) 0.028(3)
C40 0.094(3) 0.050(2) 0.053(3) 0.004(2) 0.002(3) 0.019(2)
C41 0.082(3) 0.065(3) 0.046(2) -0.005(2) 0.011(2) 0.002(2)
C42 0.062(3) 0.068(3) 0.057(3) -0.004(2) 0.009(2) -0.010(2)
C43 0.129(4) 0.090(3) 0.059(3) -0.010(3) 0.006(3) 0.040(3)
C44 0.103(4) 0.118(4) 0.072(3) 0.002(3) 0.024(3) 0.014(3)
N5F 0.0465 0.0446 0.0545 -0.0003 0.0091 -0.0026
N6F 0.045 0.0384 0.103 -0.0043 -0.007 0.0009
C15F 0.046 0.049 0.067 -0.0103 0.003 -0.006
C16F 0.044 0.0358 0.092 -0.0161 -0.008 -0.0069
C17F 0.046 0.044 0.06 0.0012 0.005 -0.0042
C18F 0.046 0.0372 0.082 0.0037 -0.001 -0.0013
C19F 0.048 0.04 0.063 0.0002 0.005 -0.0125
C20F 0.055 0.04 0.247 -0.039 -0.016 0.002
C21F 0.062 0.053 0.395 -0.085 -0.07 0.009
N7D 0.065 0.064 0.044 -0.0013 0.0068 -0.0148
N8D 0.122 0.087 0.059 0 0.004 0.05
C38D 0.112 0.061 0.048 -0.004 0.014 -0.001
C39D 0.102 0.069 0.048 -0.001 0.005 0.028
C40D 0.094 0.05 0.053 0.004 0.002 0.019
C41D 0.082 0.065 0.046 -0.005 0.011 0.002
C42D 0.062 0.068 0.057 -0.004 0.009 -0.01
C43D 0.129 0.09 0.059 -0.01 0.006 0.04
C44D 0.103 0.118 0.072 0.002 0.024 0.014
Zn1D 0.0497 0.0368 0.0496 -0.00176 0.0046 -0.00601
Zn2D 0.0683 0.0631 0.0524 0.0018 0.0047 -0.0246
O1D 0.0555 0.0429 0.056 -0.0044 0.0015 -0.0128
O2D 0.0721 0.0557 0.085 -0.0161 -0.0056 0.0072
O3D 0.104 0.056 0.0697 -0.0097 0.0142 -0.0385
O4D 0.089 0.0577 0.091 -0.0162 -0.0067 -0.0027
O5D 0.0681 0.051 0.0547 0.0041 -0.0008 -0.0213
O6D 0.089 0.0528 0.0482 -0.0067 0.0143 -0.0144
O7D 0.087 0.052 0.071 -0.004 0.0087 -0.0261
O8D 0.0714 0.0616 0.0573 0.0187 -0.0033 -0.0248
N1D 0.0454 0.0386 0.053 -0.0023 0.0069 -0.0038
N2D 0.052 0.075 0.053 -0.0007 0.0054 0.0095
N3D 0.067 0.0583 0.0452 0.0062 0.0056 0.0226
N4D 0.074 0.0591 0.054 0 0.0017 0.0311
C1D 0.037 0.052 0.059 -0.0015 0.004 -0.0028
C2D 0.046 0.068 0.046 -0.0039 0 -0.008
C3D 0.045 0.054 0.053 -0.0044 0.012 -0.0019
C4D 0.053 0.053 0.055 -0.0001 0.006 0.0074
C5D 0.053 0.043 0.052 0.0038 -0.003 0.0049
C6D 0.061 0.078 0.062 0.003 0.01 0.024
C7D 0.077 0.075 0.06 0.004 0.013 0.028
C8D 0.043 0.063 0.052 0.0016 0.001 0.0118
C9D 0.059 0.086 0.053 -0.007 -0.002 -0.001
C10D 0.062 0.049 0.051 -0.0025 -0.002 0.015
C11D 0.043 0.049 0.053 -0.0033 0 0.0145
C12D 0.06 0.049 0.056 0.0025 -0.005 0.018
C13D 0.107 0.071 0.068 0.012 0.017 0.046
C14D 0.115 0.071 0.052 0.015 0.024 0.05
C22D 0.062 0.057 0.051 -0.003 0.012 -0.013
C23D 0.048 0.059 0.053 -0.0161 0.003 -0.017
C24D 0.066 0.079 0.1 -0.039 0.005 -0.01
C25D 0.056 0.119 0.13 -0.058 -0.025 -0.013
C26D 0.071 0.067 0.106 -0.04 0.005 -0.014
C27D 0.061 0.056 0.053 -0.0106 0.012 -0.024
C28D 0.058 0.045 0.048 -0.0029 0.0043 -0.014
C29D 0.087 0.043 0.05 -0.0033 0.008 -0.02
C30D 0.053 0.036 0.058 0.0043 0.003 -0.0046
C31D 0.064 0.0378 0.047 0.0026 0.005 -0.006
C32D 0.097 0.047 0.05 0.0011 0.003 -0.02
C33D 0.117 0.062 0.044 -0.008 0.007 -0.026
C34D 0.078 0.056 0.05 0.012 0.003 -0.014
C35D 0.049 0.0379 0.051 0.0055 -0.0048 -0.0056
C36D 0.049 0.042 0.05 0.0016 0.0008 -0.0027
C37D 0.051 0.058 0.055 0.011 -0.008 -0.011
Zn1F 0.0497 0.0368 0.0496 -0.00176 0.0046 -0.00601
Zn2A 0.0683 0.0631 0.0524 -0.0018 0.0047 0.0246
Zn2B 0.0683 0.0631 0.0524 0.0018 0.0047 -0.0246
Zn2E 0.0683 0.0631 0.0524 -0.0018 0.0047 0.0246
Zn2F 0.0683 0.0631 0.0524 0.0018 0.0047 -0.0246
O3B 0.104 0.056 0.0697 -0.0097 0.0142 -0.0385
O3F 0.104 0.056 0.0697 -0.0097 0.0142 -0.0385
N4A 0.074 0.0591 0.054 0 0.0017 -0.0311
N4E 0.074 0.0591 0.054 0 0.0017 -0.0311
N5D 0.0465 0.0446 0.0545 -0.0003 0.0091 -0.0026
loop_
_geom_bond_atom_site_label_1
_geom_bond_atom_site_label_2
_geom_bond_site_symmetry_1
_geom_bond_site_symmetry_2
Zn1 O1 1_555 1_555
Zn2 O8 1_555 1_555
O1 C22 1_555 1_555
O2 C22 1_555 1_555
O3 C29 1_555 1_555
O4 C29 1_555 1_555
O5 Zn1 1_555 1_555
O6 C30 1_555 1_555
O7 C37 1_555 1_555
O8 C37 1_555 1_555
N1 Zn1 1_555 1_555
N2 C3 1_555 1_555
N3 C7 1_555 1_555
N4 C12 1_555 1_555
N5 Zn1 1_555 1_555
N6 C17 1_555 1_555
N7 Zn2 1_555 1_555
N8 C40 1_555 1_555
C1 N1 1_555 1_555
H1 C1 1_555 1_555
C2 C1 1_555 1_555
H2 C2 1_555 1_555
C3 C2 1_555 1_555
C4 C3 1_555 1_555
H3 C4 1_555 1_555
C5 N1 1_555 1_555
H4 C5 1_555 1_555
C6 N2 1_555 1_555
H5 C6 1_555 1_555
H6 C6 1_555 1_555
C7 C6 1_555 1_555
H7 C7 1_555 1_555
H8 C7 1_555 1_555
C8 N3 1_555 1_555
H9 C8 1_555 1_555
H10 C8 1_555 1_555
C9 N2 1_555 1_555
H11 C9 1_555 1_555
H12 C9 1_555 1_555
C10 N3 1_555 1_555
C11 C10 1_555 1_555
H13 C11 1_555 1_555
C12 C11 1_555 1_555
H14 C12 1_555 1_555
C13 N4 1_555 1_555
H15 C13 1_555 1_555
C14 C10 1_555 1_555
H16 C14 1_555 1_555
C15 N5 1_555 1_555
H17 C15 1_555 1_555
C16 C15 1_555 1_555
H18 C16 1_555 1_555
C17 C16 1_555 1_555
C18 C17 1_555 1_555
H19 C18 1_555 1_555
C19 N5 1_555 1_555
H20 C19 1_555 1_555
C20 N6 1_555 1_555
H21 C20 1_555 1_555
H22 C20 1_555 1_555
C21 N6 1_555 1_555
H23 C21 1_555 1_555
H24 C21 1_555 1_555
C22 C23 1_555 1_555
C23 C24 1_555 1_555
C24 H25 1_555 1_555
C25 C24 1_555 1_555
H26 C25 1_555 1_555
C26 C25 1_555 1_555
H27 C26 1_555 1_555
C27 C26 1_555 1_555
C28 C23 1_555 1_555
H28 C28 1_555 1_555
C29 C27 1_555 1_555
C30 O5 1_555 1_555
C31 C30 1_555 1_555
C32 C31 1_555 1_555
H29 C32 1_555 1_555
C33 C32 1_555 1_555
H30 C33 1_555 1_555
C34 C33 1_555 1_555
H31 C34 1_555 1_555
C35 C34 1_555 1_555
C36 C31 1_555 1_555
H32 C36 1_555 1_555
C37 C35 1_555 1_555
C38 N7 1_555 1_555
H33 C38 1_555 1_555
C39 C38 1_555 1_555
H34 C39 1_555 1_555
C40 C39 1_555 1_555
C41 C40 1_555 1_555
H35 C41 1_555 1_555
C42 N7 1_555 1_555
H36 C42 1_555 1_555
C43 N8 1_555 1_555
H37 C43 1_555 1_555
H38 C43 1_555 1_555
C44 N8 1_555 1_555
H39 C44 1_555 1_555
H40 C44 1_555 1_555
N5F C15F 1_555 1_555
N6F C17F 1_555 1_555
C15F H17F 1_555 1_555
C16F C15F 1_555 1_555
H18F C16F 1_555 1_555
C17F C16F 1_555 1_555
C18F C17F 1_555 1_555
H19F C18F 1_555 1_555
C19F N5F 1_555 1_555
H20F C19F 1_555 1_555
C20F C21 1_555 1_555
H21F C20F 1_555 1_555
H22F C20F 1_555 1_555
C21F C20 1_555 1_555
H23F C21F 1_555 1_555
H24F C21F 1_555 1_555
N7D C38D 1_555 1_555
N8D C40D 1_555 1_555
C38D H33D 1_555 1_555
C39D C38D 1_555 1_555
H34D C39D 1_555 1_555
C40D C39D 1_555 1_555
C41D C40D 1_555 1_555
H35D C41D 1_555 1_555
C42D N7D 1_555 1_555
H36D C42D 1_555 1_555
C43D C44 1_555 1_555
H37D C43D 1_555 1_555
H38D C43D 1_555 1_555
C44D C43 1_555 1_555
H39D C44D 1_555 1_555
H40D C44D 1_555 1_555
Zn1D O1D 1_555 1_555
Zn2D N7D 1_555 1_555
O1D C22D 1_555 1_555
O2D C22D 1_555 1_555
O3D C29D 1_555 1_555
O4D C29D 1_555 1_555
O5D Zn1D 1_555 1_555
O6D C30D 1_555 1_555
O7D C37D 1_555 1_555
O8D Zn2D 1_555 1_555
N1D Zn1D 1_555 1_555
N2D C3D 1_555 1_555
N3D C7D 1_555 1_555
N4D C12D 1_555 1_555
C1D N1D 1_555 1_555
H1D C1D 1_555 1_555
C2D C1D 1_555 1_555
H2D C2D 1_555 1_555
C3D C2D 1_555 1_555
C4D C3D 1_555 1_555
H3D C4D 1_555 1_555
C5D N1D 1_555 1_555
H4D C5D 1_555 1_555
C6D N2D 1_555 1_555
H5D C6D 1_555 1_555
H6D C6D 1_555 1_555
C7D C6D 1_555 1_555
H7D C7D 1_555 1_555
H8D C7D 1_555 1_555
C8D N3D 1_555 1_555
H9D C8D 1_555 1_555
H10D C8D 1_555 1_555
C9D N2D 1_555 1_555
H11D C9D 1_555 1_555
H12D C9D 1_555 1_555
C10D N3D 1_555 1_555
C11D C10D 1_555 1_555
H13D C11D 1_555 1_555
C12D C11D 1_555 1_555
H14D C12D 1_555 1_555
C13D N4D 1_555 1_555
H15D C13D 1_555 1_555
C14D C10D 1_555 1_555
H16D C14D 1_555 1_555
C22D C23D 1_555 1_555
C23D C24D 1_555 1_555
C24D H25D 1_555 1_555
C25D C24D 1_555 1_555
H26D C25D 1_555 1_555
C26D C25D 1_555 1_555
H27D C26D 1_555 1_555
C27D C26D 1_555 1_555
C28D C23D 1_555 1_555
H28D C28D 1_555 1_555
C29D C27D 1_555 1_555
C30D O5D 1_555 1_555
C31D C30D 1_555 1_555
C32D C31D 1_555 1_555
H29D C32D 1_555 1_555
C33D C32D 1_555 1_555
H30D C33D 1_555 1_555
C34D C33D 1_555 1_555
H31D C34D 1_555 1_555
C35D C34D 1_555 1_555
C36D C31D 1_555 1_555
H32D C36D 1_555 1_555
C37D O8D 1_555 1_555
Zn1F N5F 1_555 1_555
Zn2A N4D 1_555 1_555
Zn2B O3 1_555 1_555
Zn2E N4 1_555 1_555
Zn2F O3D 1_555 1_555
O3B Zn2 1_555 1_555
O3F Zn2D 1_555 1_555
N4A Zn2D 1_555 1_555
N4E Zn2 1_555 1_555
N5D Zn1D 1_555 1_555
C4 C5 1_555 1_555
C8 C9 1_555 1_555
C13 C14 1_555 1_555
C18 C19 1_555 1_555
C27 C28 1_555 1_555
C35 C36 1_555 1_555
C41 C42 1_555 1_555
N6F C20F 1_555 1_555
N6F C21F 1_555 1_555
C18F C19F 1_555 1_555
N8D C43D 1_555 1_555
N8D C44D 1_555 1_555
C41D C42D 1_555 1_555
C4D C5D 1_555 1_555
C8D C9D 1_555 1_555
C13D C14D 1_555 1_555
C27D C28D 1_555 1_555
C35D C36D 1_555 1_555
C35D C37D 1_555 1_555

#END
