
#######################################################################
#
#                 Cambridge Crystallographic Data Centre
#                                CCDC 
#
#######################################################################
#
# If this CIF has been generated from an entry in the Cambridge 
# Structural Database, then it will include bibliographic, chemical, 
# crystal, experimental, refinement or atomic coordinate data resulting 
# from the CCDC's data processing and validation procedures.
#
#######################################################################

data_DUSHAC
_chemical_formula_moiety         '(C84 H50 N12 Ni6 O26)n'
_symmetry_cell_setting           cubic
_symmetry_space_group_name_H-M   'F m -3 m'
_symmetry_Int_Tables_number      225
_space_group_name_Hall           '-F 4 2 3'
loop_
_symmetry_equiv_pos_site_id
_symmetry_equiv_pos_as_xyz
1 x,y,z
2 -y,x,z
3 -x,-y,z
4 y,-x,z
5 x,-z,y
6 x,-y,-z
7 x,z,-y
8 z,y,-x
9 -x,y,-z
10 -z,y,x
11 z,x,y
12 y,z,x
13 -y,-z,x
14 z,-x,-y
15 -y,z,-x
16 -z,-x,y
17 -z,x,-y
18 y,-z,-x
19 y,x,-z
20 -y,-x,-z
21 -x,z,y
22 -x,-z,-y
23 z,-y,x
24 -z,-y,-x
25 x,1/2+y,1/2+z
26 -y,1/2+x,1/2+z
27 -x,1/2-y,1/2+z
28 y,1/2-x,1/2+z
29 x,1/2-z,1/2+y
30 x,1/2-y,1/2-z
31 x,1/2+z,1/2-y
32 z,1/2+y,1/2-x
33 -x,1/2+y,1/2-z
34 -z,1/2+y,1/2+x
35 z,1/2+x,1/2+y
36 y,1/2+z,1/2+x
37 -y,1/2-z,1/2+x
38 z,1/2-x,1/2-y
39 -y,1/2+z,1/2-x
40 -z,1/2-x,1/2+y
41 -z,1/2+x,1/2-y
42 y,1/2-z,1/2-x
43 y,1/2+x,1/2-z
44 -y,1/2-x,1/2-z
45 -x,1/2+z,1/2+y
46 -x,1/2-z,1/2-y
47 z,1/2-y,1/2+x
48 -z,1/2-y,1/2-x
49 1/2+x,y,1/2+z
50 1/2-y,x,1/2+z
51 1/2-x,-y,1/2+z
52 1/2+y,-x,1/2+z
53 1/2+x,-z,1/2+y
54 1/2+x,-y,1/2-z
55 1/2+x,z,1/2-y
56 1/2+z,y,1/2-x
57 1/2-x,y,1/2-z
58 1/2-z,y,1/2+x
59 1/2+z,x,1/2+y
60 1/2+y,z,1/2+x
61 1/2-y,-z,1/2+x
62 1/2+z,-x,1/2-y
63 1/2-y,z,1/2-x
64 1/2-z,-x,1/2+y
65 1/2-z,x,1/2-y
66 1/2+y,-z,1/2-x
67 1/2+y,x,1/2-z
68 1/2-y,-x,1/2-z
69 1/2-x,z,1/2+y
70 1/2-x,-z,1/2-y
71 1/2+z,-y,1/2+x
72 1/2-z,-y,1/2-x
73 1/2+x,1/2+y,z
74 1/2-y,1/2+x,z
75 1/2-x,1/2-y,z
76 1/2+y,1/2-x,z
77 1/2+x,1/2-z,y
78 1/2+x,1/2-y,-z
79 1/2+x,1/2+z,-y
80 1/2+z,1/2+y,-x
81 1/2-x,1/2+y,-z
82 1/2-z,1/2+y,x
83 1/2+z,1/2+x,y
84 1/2+y,1/2+z,x
85 1/2-y,1/2-z,x
86 1/2+z,1/2-x,-y
87 1/2-y,1/2+z,-x
88 1/2-z,1/2-x,y
89 1/2-z,1/2+x,-y
90 1/2+y,1/2-z,-x
91 1/2+y,1/2+x,-z
92 1/2-y,1/2-x,-z
93 1/2-x,1/2+z,y
94 1/2-x,1/2-z,-y
95 1/2+z,1/2-y,x
96 1/2-z,1/2-y,-x
97 -x,-y,-z
98 y,-x,-z
99 x,y,-z
100 -y,x,-z
101 -x,z,-y
102 -x,y,z
103 -x,-z,y
104 -z,-y,x
105 x,-y,z
106 z,-y,-x
107 -z,-x,-y
108 -y,-z,-x
109 y,z,-x
110 -z,x,y
111 y,-z,x
112 z,x,-y
113 z,-x,y
114 -y,z,x
115 -y,-x,z
116 y,x,z
117 x,-z,-y
118 x,z,y
119 -z,y,-x
120 z,y,x
121 -x,1/2-y,1/2-z
122 y,1/2-x,1/2-z
123 x,1/2+y,1/2-z
124 -y,1/2+x,1/2-z
125 -x,1/2+z,1/2-y
126 -x,1/2+y,1/2+z
127 -x,1/2-z,1/2+y
128 -z,1/2-y,1/2+x
129 x,1/2-y,1/2+z
130 z,1/2-y,1/2-x
131 -z,1/2-x,1/2-y
132 -y,1/2-z,1/2-x
133 y,1/2+z,1/2-x
134 -z,1/2+x,1/2+y
135 y,1/2-z,1/2+x
136 z,1/2+x,1/2-y
137 z,1/2-x,1/2+y
138 -y,1/2+z,1/2+x
139 -y,1/2-x,1/2+z
140 y,1/2+x,1/2+z
141 x,1/2-z,1/2-y
142 x,1/2+z,1/2+y
143 -z,1/2+y,1/2-x
144 z,1/2+y,1/2+x
145 1/2-x,-y,1/2-z
146 1/2+y,-x,1/2-z
147 1/2+x,y,1/2-z
148 1/2-y,x,1/2-z
149 1/2-x,z,1/2-y
150 1/2-x,y,1/2+z
151 1/2-x,-z,1/2+y
152 1/2-z,-y,1/2+x
153 1/2+x,-y,1/2+z
154 1/2+z,-y,1/2-x
155 1/2-z,-x,1/2-y
156 1/2-y,-z,1/2-x
157 1/2+y,z,1/2-x
158 1/2-z,x,1/2+y
159 1/2+y,-z,1/2+x
160 1/2+z,x,1/2-y
161 1/2+z,-x,1/2+y
162 1/2-y,z,1/2+x
163 1/2-y,-x,1/2+z
164 1/2+y,x,1/2+z
165 1/2+x,-z,1/2-y
166 1/2+x,z,1/2+y
167 1/2-z,y,1/2-x
168 1/2+z,y,1/2+x
169 1/2-x,1/2-y,-z
170 1/2+y,1/2-x,-z
171 1/2+x,1/2+y,-z
172 1/2-y,1/2+x,-z
173 1/2-x,1/2+z,-y
174 1/2-x,1/2+y,z
175 1/2-x,1/2-z,y
176 1/2-z,1/2-y,x
177 1/2+x,1/2-y,z
178 1/2+z,1/2-y,-x
179 1/2-z,1/2-x,-y
180 1/2-y,1/2-z,-x
181 1/2+y,1/2+z,-x
182 1/2-z,1/2+x,y
183 1/2+y,1/2-z,x
184 1/2+z,1/2+x,-y
185 1/2+z,1/2-x,y
186 1/2-y,1/2+z,x
187 1/2-y,1/2-x,z
188 1/2+y,1/2+x,z
189 1/2+x,1/2-z,-y
190 1/2+x,1/2+z,y
191 1/2-z,1/2+y,-x
192 1/2+z,1/2+y,x
_cell_length_a                   41.5216(3)
_cell_length_b                   41.5216(3)
_cell_length_c                   41.5216(3)
_cell_angle_alpha                90
_cell_angle_beta                 90
_cell_angle_gamma                90
_cell_volume                     71585
loop_
_atom_site_label
_atom_site_type_symbol
_atom_site_fract_x
_atom_site_fract_y
_atom_site_fract_z
_atom_site_U_iso_or_equiv
_atom_site_thermal_displace_type
Ni1 Ni 0.68772(2) 0.37087(2) 0.62913(2) 0.0266 Uani
O1 O 0.64641(7) 0.35359(7) 0.64641(7) 0.0347 Uani
H1 H 0.6325 0.3675 0.6325 0.0520 Uiso
O2 O 0.70995(6) 0.37579(9) 0.67247(6) 0.0742 Uani
O3 O 0.67031(6) 0.41683(5) 0.63216(6) 0.0494 Uani
N1 N 0.72971(9) 0.39120(6) 0.60880(6) 0.0439 Uani
N2 N 0.8365(3) 0.4417(2) 0.5583(2) 0.2093 Uani
C1 C 0.70044(7) 0.37673(10) 0.70044(7) 0.0409 Uani
C2 C 0.72632(7) 0.37847(12) 0.72632(7) 0.0442 Uani
C3 C 0.75830(9) 0.37866(14) 0.71814(10) 0.0777 Uani
H2 H 0.7644 0.3788 0.6961 0.0930 Uiso
C4 C 0.65093(6) 0.43024(9) 0.65093(6) 0.0312 Uani
C5 C 0.65028(7) 0.46639(9) 0.65028(7) 0.0340 Uani
C6 C 0.67035(9) 0.48330(8) 0.62995(8) 0.0502 Uani
H3 H 0.6843 0.4720 0.6158 0.0610 Uiso
C7 C 0.7591(2) 0.3812(2) 0.6188(2) 0.0647 Uani
H4 H 0.7602 0.3650 0.6350 0.0780 Uiso
C8 C 0.7871(3) 0.3933(3) 0.6067(3) 0.0903 Uani
H5 H 0.8075 0.3859 0.6141 0.1080 Uiso
C9 C 0.7541(3) 0.4275(3) 0.5725(3) 0.0977 Uani
H6 H 0.7520 0.4436 0.5564 0.1170 Uiso
C10 C 0.7274(3) 0.41387(17) 0.58613(17) 0.0657 Uani
H7 H 0.7067 0.4207 0.5793 0.0790 Uiso
C11 C 0.7846(2) 0.41737(17) 0.58263(17) 0.1207 Uani
C12 C 0.8143(3) 0.4312(2) 0.5688(2) 0.1703 Uani
O2OD O 0.67247(6) 0.37579(9) 0.70995(6) 0.0742 Uani
C3OD C 0.71814(10) 0.37866(14) 0.75830(9) 0.0777 Uani
H2OD H 0.6961 0.3788 0.7644 0.0930 Uiso
O2JF O 0.82753(6) 0.37579(9) 0.79005(6) 0.0742 Uani
C1DB C 0.79956(7) 0.37673(10) 0.79956(7) 0.0409 Uani
C2DB C 0.77368(7) 0.37847(12) 0.77368(7) 0.0442 Uani
C3JF C 0.78186(10) 0.37866(14) 0.74170(9) 0.0777 Uani
H2JF H 0.8039 0.3788 0.7356 0.0930 Uiso
O2DB O 0.79005(6) 0.37579(9) 0.82753(6) 0.0742 Uani
C3DB C 0.74170(9) 0.37866(14) 0.78186(10) 0.0777 Uani
H2DB H 0.7356 0.3788 0.8039 0.0930 Uiso
O3ZC O 0.67031(6) 0.58317(5) 0.63216(6) 0.0494 Uani
C4V C 0.65093(6) 0.56976(9) 0.65093(6) 0.0312 Uani
C5V C 0.65028(7) 0.53361(9) 0.65028(7) 0.0340 Uani
C6ZC C 0.67035(9) 0.51670(8) 0.62995(8) 0.0502 Uani
H3ZC H 0.6843 0.5280 0.6158 0.0610 Uiso
O3OD O 0.63216(6) 0.41683(5) 0.67031(6) 0.0494 Uani
C6OD C 0.62995(8) 0.48330(8) 0.67035(9) 0.0502 Uani
H3OD H 0.6158 0.4720 0.6843 0.0610 Uiso
O3V O 0.63216(6) 0.58317(5) 0.67031(6) 0.0494 Uani
C6V C 0.62995(8) 0.51670(8) 0.67035(9) 0.0502 Uani
H3V H 0.6158 0.5280 0.6843 0.0610 Uiso
Ni1D Ni 0.68772(2) 0.37087(2) 0.37087(2) 0.0266 Uani
O1D O 0.64641(7) 0.35359(7) 0.35359(7) 0.0347 Uani
H1D H 0.6325 0.3675 0.3675 0.0520 Uiso
O3D O 0.67031(6) 0.36784(6) 0.41683(5) 0.0494 Uani
N1D N 0.72971(9) 0.39120(6) 0.39120(6) 0.0439 Uani
N2D N 0.8365(3) 0.4417(2) 0.4417(2) 0.2093 Uani
C4D C 0.65093(6) 0.34907(6) 0.43024(9) 0.0312 Uani
C5D C 0.65028(7) 0.34972(7) 0.46639(9) 0.0340 Uani
C6D C 0.67035(9) 0.37005(8) 0.48330(8) 0.0502 Uani
H3D H 0.6843 0.3842 0.4720 0.0610 Uiso
C7D C 0.7591(2) 0.3812(2) 0.3812(2) 0.0647 Uani
H4D H 0.7602 0.3650 0.3650 0.0780 Uiso
C8D C 0.7871(3) 0.3933(3) 0.3933(3) 0.0903 Uani
H5D H 0.8075 0.3859 0.3859 0.1080 Uiso
C9D C 0.7541(3) 0.4275(3) 0.4275(3) 0.0977 Uani
H6D H 0.7520 0.4436 0.4436 0.1170 Uiso
C10D C 0.7274(3) 0.41387(17) 0.41387(17) 0.0657 Uani
H7D H 0.7067 0.4207 0.4207 0.0790 Uiso
C11D C 0.7846(2) 0.41737(17) 0.41737(17) 0.1207 Uani
C12D C 0.8143(3) 0.4312(2) 0.4312(2) 0.1703 Uani
O3LD O 0.67031(6) 0.36784(6) 0.58317(5) 0.0494 Uani
C4M C 0.65093(6) 0.34907(6) 0.56976(9) 0.0312 Uani
C5M C 0.65028(7) 0.34972(7) 0.53361(9) 0.0340 Uani
C6LD C 0.67035(9) 0.37005(8) 0.51670(8) 0.0502 Uani
H3LD H 0.6843 0.3842 0.5280 0.0610 Uiso
O3HD O 0.63216(6) 0.32969(6) 0.41683(5) 0.0494 Uani
C6HD C 0.62995(8) 0.32965(9) 0.48330(8) 0.0502 Uani
H3HD H 0.6158 0.3157 0.4720 0.0610 Uiso
O3M O 0.63216(6) 0.32969(6) 0.58317(5) 0.0494 Uani
C6M C 0.62995(8) 0.32965(9) 0.51670(8) 0.0502 Uani
H3M H 0.6158 0.3157 0.5280 0.0610 Uiso
Ni1F Ni 0.68772(2) 0.62913(2) 0.62913(2) 0.0266 Uani
O3F O 0.67031(6) 0.63216(6) 0.58317(5) 0.0494 Uani
N1F N 0.72971(9) 0.60880(6) 0.60880(6) 0.0439 Uani
N2F N 0.8365(3) 0.5583(2) 0.5583(2) 0.2093 Uani
C4F C 0.65093(6) 0.65093(6) 0.56976(9) 0.0312 Uani
C5F C 0.65028(7) 0.65028(7) 0.53361(9) 0.0340 Uani
C6F C 0.67035(9) 0.62995(8) 0.51670(8) 0.0502 Uani
H3F H 0.6843 0.6158 0.5280 0.0610 Uiso
C7F C 0.7591(2) 0.6188(2) 0.6188(2) 0.0647 Uani
H4F H 0.7602 0.6350 0.6350 0.0780 Uiso
C8F C 0.7871(3) 0.6067(3) 0.6067(3) 0.0903 Uani
H5F H 0.8075 0.6141 0.6141 0.1080 Uiso
C9F C 0.7541(3) 0.5725(3) 0.5725(3) 0.0977 Uani
H6F H 0.7520 0.5564 0.5564 0.1170 Uiso
C10F C 0.7274(3) 0.58613(17) 0.58613(17) 0.0657 Uani
H7F H 0.7067 0.5793 0.5793 0.0790 Uiso
C11F C 0.7846(2) 0.58263(17) 0.58263(17) 0.1207 Uani
C12F C 0.8143(3) 0.5688(2) 0.5688(2) 0.1703 Uani
O3MD O 0.67031(6) 0.63216(6) 0.41683(5) 0.0494 Uani
C4J C 0.65093(6) 0.65093(6) 0.43024(9) 0.0312 Uani
C5J C 0.65028(7) 0.65028(7) 0.46639(9) 0.0340 Uani
C6MD C 0.67035(9) 0.62995(8) 0.48330(8) 0.0502 Uani
H3MD H 0.6843 0.6158 0.4720 0.0610 Uiso
O3GD O 0.63216(6) 0.67031(6) 0.58317(5) 0.0494 Uani
C6GD C 0.62995(8) 0.67035(9) 0.51670(8) 0.0502 Uani
H3GD H 0.6158 0.6843 0.5280 0.0610 Uiso
O3J O 0.63216(6) 0.67031(6) 0.41683(5) 0.0494 Uani
C6J C 0.62995(8) 0.67035(9) 0.48330(8) 0.0502 Uani
H3J H 0.6158 0.6843 0.4720 0.0610 Uiso
Ni1J Ni 0.62913(2) 0.68772(2) 0.37087(2) 0.0266 Uani
O2J O 0.67247(6) 0.70995(6) 0.37579(9) 0.0742 Uani
N1J N 0.60880(6) 0.72971(9) 0.39120(6) 0.0439 Uani
N2J N 0.5583(2) 0.8365(3) 0.4417(2) 0.2093 Uani
C1J C 0.70044(7) 0.70044(7) 0.37673(10) 0.0409 Uani
C2J C 0.72632(7) 0.72632(7) 0.37847(12) 0.0442 Uani
C3J C 0.71814(10) 0.75830(9) 0.37866(14) 0.0777 Uani
H2J H 0.6961 0.7644 0.3788 0.0930 Uiso
C7J C 0.6188(2) 0.7591(2) 0.3812(2) 0.0647 Uani
H4J H 0.6350 0.7602 0.3650 0.0780 Uiso
C8J C 0.6067(3) 0.7871(3) 0.3933(3) 0.0903 Uani
H5J H 0.6141 0.8075 0.3859 0.1080 Uiso
C9J C 0.5725(3) 0.7541(3) 0.4275(3) 0.0977 Uani
H6J H 0.5564 0.7520 0.4436 0.1170 Uiso
C10J C 0.58613(17) 0.7274(3) 0.41387(17) 0.0657 Uani
H7J H 0.5793 0.7067 0.4207 0.0790 Uiso
C11J C 0.58263(17) 0.7846(2) 0.41737(17) 0.1207 Uani
C12J C 0.5688(2) 0.8143(3) 0.4312(2) 0.1703 Uani
O2MD O 0.70995(6) 0.67247(6) 0.37579(9) 0.0742 Uani
C3MD C 0.75830(9) 0.71814(10) 0.37866(14) 0.0777 Uani
H2MD H 0.7644 0.6961 0.3788 0.0930 Uiso
O2RF O 0.79005(6) 0.82753(6) 0.37579(9) 0.0742 Uani
C1IC C 0.79956(7) 0.79956(7) 0.37673(10) 0.0409 Uani
C2IC C 0.77368(7) 0.77368(7) 0.37847(12) 0.0442 Uani
C3RF C 0.74170(9) 0.78186(10) 0.37866(14) 0.0777 Uani
H2RF H 0.7356 0.8039 0.3788 0.0930 Uiso
O2IC O 0.82753(6) 0.79005(6) 0.37579(9) 0.0742 Uani
C3IC C 0.78186(10) 0.74170(9) 0.37866(14) 0.0777 Uani
H2IC H 0.8039 0.7356 0.3788 0.0930 Uiso
Ni1L Ni 0.62913(2) 0.37087(2) 0.68772(2) 0.0266 Uani
O2L O 0.62421(9) 0.32753(6) 0.70995(6) 0.0742 Uani
N1L N 0.60880(6) 0.39120(6) 0.72971(9) 0.0439 Uani
N2L N 0.5583(2) 0.4417(2) 0.8365(3) 0.2093 Uani
C1L C 0.62327(10) 0.29956(7) 0.70044(7) 0.0409 Uani
C2L C 0.62153(12) 0.27368(7) 0.72632(7) 0.0442 Uani
C3L C 0.62134(14) 0.28186(10) 0.75830(9) 0.0777 Uani
H2L H 0.6212 0.3039 0.7644 0.0930 Uiso
C7L C 0.6188(2) 0.3812(2) 0.7591(2) 0.0647 Uani
H4L H 0.6350 0.3650 0.7602 0.0780 Uiso
C8L C 0.6067(3) 0.3933(3) 0.7871(3) 0.0903 Uani
H5L H 0.6141 0.3859 0.8075 0.1080 Uiso
C9L C 0.5725(3) 0.4275(3) 0.7541(3) 0.0977 Uani
H6L H 0.5564 0.4436 0.7520 0.1170 Uiso
C10L C 0.58613(17) 0.41387(17) 0.7274(3) 0.0657 Uani
H7L H 0.5793 0.4207 0.7067 0.0790 Uiso
C11L C 0.58263(17) 0.41737(17) 0.7846(2) 0.1207 Uani
C12L C 0.5688(2) 0.4312(2) 0.8143(3) 0.1703 Uani
O2JD O 0.62421(9) 0.29005(6) 0.67247(6) 0.0742 Uani
C3JD C 0.62134(14) 0.24170(9) 0.71814(10) 0.0777 Uani
H2JD H 0.6212 0.2356 0.6961 0.0930 Uiso
O2SD O 0.62421(9) 0.20995(6) 0.82753(6) 0.0742 Uani
C1LA C 0.62327(10) 0.20044(7) 0.79956(7) 0.0409 Uani
C2LA C 0.62153(12) 0.22632(7) 0.77368(7) 0.0442 Uani
C3SD C 0.62134(14) 0.25830(9) 0.78186(10) 0.0777 Uani
H2SD H 0.6212 0.2644 0.8039 0.0930 Uiso
O2LA O 0.62421(9) 0.17247(6) 0.79005(6) 0.0742 Uani
C3LA C 0.62134(14) 0.21814(10) 0.74170(9) 0.0777 Uani
H2LA H 0.6212 0.1961 0.7356 0.0930 Uiso
Ni1M Ni 0.62913(2) 0.31228(2) 0.62913(2) 0.0266 Uani
N1M N 0.60880(6) 0.27029(9) 0.60880(6) 0.0439 Uani
N2M N 0.5583(2) 0.1635(3) 0.5583(2) 0.2093 Uani
C7M C 0.6188(2) 0.2409(2) 0.6188(2) 0.0647 Uani
H4M H 0.6350 0.2398 0.6350 0.0780 Uiso
C8M C 0.6067(3) 0.2129(3) 0.6067(3) 0.0903 Uani
H5M H 0.6141 0.1925 0.6141 0.1080 Uiso
C9M C 0.5725(3) 0.2459(3) 0.5725(3) 0.0977 Uani
H6M H 0.5564 0.2480 0.5564 0.1170 Uiso
C10M C 0.58613(17) 0.2726(3) 0.58613(17) 0.0657 Uani
H7M H 0.5793 0.2933 0.5793 0.0790 Uiso
C11M C 0.58263(17) 0.2154(2) 0.58263(17) 0.1207 Uani
C12M C 0.5688(2) 0.1857(3) 0.5688(2) 0.1703 Uani
Ni1A Ni 0.62913(2) 0.68772(2) 0.62913(2) 0.0266 Uani
Ni1E Ni 0.68772(2) 0.62913(2) 0.37087(2) 0.0266 Uani
Ni1G Ni 0.62913(2) 0.37087(2) 0.31228(2) 0.0266 Uani
Ni1S Ni 0.62913(2) 0.31228(2) 0.37087(2) 0.0266 Uani
Ni1V Ni 0.62913(2) 0.62913(2) 0.68772(2) 0.0266 Uani
Ni1HA Ni 0.62913(2) 0.18772(2) 0.87087(2) 0.0266 Uani
Ni1LA Ni 0.62913(2) 0.12913(2) 0.81228(2) 0.0266 Uani
Ni1DB Ni 0.81228(2) 0.37087(2) 0.87087(2) 0.0266 Uani
Ni1MB Ni 0.87087(2) 0.37087(2) 0.81228(2) 0.0266 Uani
Ni1BC Ni 0.81228(2) 0.87087(2) 0.37087(2) 0.0266 Uani
Ni1IC Ni 0.87087(2) 0.81228(2) 0.37087(2) 0.0266 Uani
O1A O 0.64641(7) 0.64641(7) 0.64641(7) 0.0347 Uani
O1E O 0.64641(7) 0.64641(7) 0.35359(7) 0.0347 Uani
O2D O 0.70995(6) 0.32753(6) 0.37579(9) 0.0742 Uani
O2F O 0.70995(6) 0.67247(6) 0.62421(9) 0.0742 Uani
O2M O 0.67247(6) 0.29005(6) 0.62421(9) 0.0742 Uani
O2TC O 0.70995(6) 0.37579(9) 0.32753(6) 0.0742 Uani
O2UC O 0.62421(9) 0.70995(6) 0.32753(6) 0.0742 Uani
O2ZC O 0.70995(6) 0.62421(9) 0.67247(6) 0.0742 Uani
O2LD O 0.70995(6) 0.32753(6) 0.62421(9) 0.0742 Uani
O3L O 0.58317(5) 0.36784(6) 0.67031(6) 0.0494 Uani
O3TC O 0.67031(6) 0.41683(5) 0.36784(6) 0.0494 Uani
O3UC O 0.58317(5) 0.67031(6) 0.36784(6) 0.0494 Uani
O3JD O 0.58317(5) 0.32969(6) 0.63216(6) 0.0494 Uani
loop_
_atom_site_aniso_label
_atom_site_aniso_U_11
_atom_site_aniso_U_22
_atom_site_aniso_U_33
_atom_site_aniso_U_23
_atom_site_aniso_U_13
_atom_site_aniso_U_12
Ni1 0.0251(4) 0.0274(4) 0.0274(4) 0.0030(2) -0.00244(16) 0.00244(16)
O1 0.0347(10) 0.0347(10) 0.0347(10) -0.0058(12) 0.0058(12) -0.0058(12)
O2 0.0433(14) 0.144(3) 0.0353(13) 0.0241(14) -0.0165(11) -0.0286(15)
O3 0.0668(15) 0.0236(10) 0.0578(14) 0.0018(9) 0.0244(11) 0.0026(10)
N1 0.0383(19) 0.0467(13) 0.0467(13) 0.0079(16) 0.0036(11) -0.0036(11)
N2 0.130(7) 0.249(7) 0.249(7) 0.084(9) 0.050(4) -0.050(4)
C1 0.0414(16) 0.040(2) 0.0414(16) 0.0018(11) -0.022(2) 0.0018(11)
C2 0.0408(15) 0.051(2) 0.0408(15) 0.0008(12) -0.0194(18) 0.0008(12)
C3 0.047(2) 0.148(4) 0.0382(19) 0.025(2) -0.0163(17) -0.024(2)
C4 0.0336(12) 0.0265(19) 0.0336(12) 0.0010(10) -0.0029(15) 0.0010(10)
C5 0.0386(13) 0.0247(18) 0.0386(13) 0.0014(11) -0.0009(16) 0.0014(11)
C6 0.069(2) 0.0267(15) 0.055(2) -0.0017(13) 0.0276(16) 0.0019(15)
C7 0.028(4) 0.083(4) 0.083(4) 0.023(5) 0.007(3) -0.007(3)
C8 0.037(4) 0.117(5) 0.117(5) 0.038(6) 0.011(3) -0.011(3)
C9 0.067(5) 0.113(4) 0.113(4) 0.049(5) 0.023(3) -0.023(3)
C10 0.049(5) 0.074(4) 0.074(4) 0.037(5) 0.010(3) -0.010(3)
C11 0.070(4) 0.146(3) 0.146(3) 0.042(5) 0.033(2) -0.033(2)
C12 0.099(5) 0.206(5) 0.206(5) 0.068(7) 0.046(4) -0.046(4)
O2OD 0.0353 0.144 0.0433 -0.0286 -0.0165 0.0241
C3OD 0.0382 0.148 0.047 -0.024 -0.0163 0.025
O2JF 0.0353 0.144 0.0433 0.0286 -0.0165 -0.0241
C1DB 0.0414 0.04 0.0414 -0.0018 -0.022 -0.0018
C2DB 0.0408 0.051 0.0408 -0.0008 -0.0194 -0.0008
C3JF 0.0382 0.148 0.047 0.024 -0.0163 -0.025
O2DB 0.0433 0.144 0.0353 -0.0241 -0.0165 0.0286
C3DB 0.047 0.148 0.0382 -0.025 -0.0163 0.024
O3ZC 0.0668 0.0236 0.0578 -0.0018 0.0244 -0.0026
C4V 0.0336 0.0265 0.0336 -0.001 -0.0029 -0.001
C5V 0.0386 0.0247 0.0386 -0.0014 -0.0009 -0.0014
C6ZC 0.069 0.0267 0.055 0.0017 0.0276 -0.0019
O3OD 0.0578 0.0236 0.0668 0.0026 0.0244 0.0018
C6OD 0.055 0.0267 0.069 0.0019 0.0276 -0.0017
O3V 0.0578 0.0236 0.0668 -0.0026 0.0244 -0.0018
C6V 0.055 0.0267 0.069 -0.0019 0.0276 0.0017
Ni1D 0.0251 0.0274 0.0274 -0.003 0.00244 0.00244
O1D 0.0347 0.0347 0.0347 0.0058 -0.0058 -0.0058
O3D 0.0668 0.0578 0.0236 -0.0018 0.0026 -0.0244
N1D 0.0383 0.0467 0.0467 -0.0079 -0.0036 -0.0036
N2D 0.13 0.249 0.249 -0.084 -0.05 -0.05
C4D 0.0336 0.0336 0.0265 -0.001 0.001 0.0029
C5D 0.0386 0.0386 0.0247 -0.0014 0.0014 0.0009
C6D 0.069 0.055 0.0267 0.0017 0.0019 -0.0276
C7D 0.028 0.083 0.083 -0.023 -0.007 -0.007
C8D 0.037 0.117 0.117 -0.038 -0.011 -0.011
C9D 0.067 0.113 0.113 -0.049 -0.023 -0.023
C10D 0.049 0.074 0.074 -0.037 -0.01 -0.01
C11D 0.07 0.146 0.146 -0.042 -0.033 -0.033
C12D 0.099 0.206 0.206 -0.068 -0.046 -0.046
O3LD 0.0668 0.0578 0.0236 0.0018 -0.0026 -0.0244
C4M 0.0336 0.0336 0.0265 0.001 -0.001 0.0029
C5M 0.0386 0.0386 0.0247 0.0014 -0.0014 0.0009
C6LD 0.069 0.055 0.0267 -0.0017 -0.0019 -0.0276
O3HD 0.0578 0.0668 0.0236 -0.0026 0.0018 -0.0244
C6HD 0.055 0.069 0.0267 -0.0019 -0.0017 -0.0276
O3M 0.0578 0.0668 0.0236 0.0026 -0.0018 -0.0244
C6M 0.055 0.069 0.0267 0.0019 0.0017 -0.0276
Ni1F 0.0251 0.0274 0.0274 -0.003 -0.00244 -0.00244
O3F 0.0668 0.0578 0.0236 -0.0018 -0.0026 0.0244
N1F 0.0383 0.0467 0.0467 -0.0079 0.0036 0.0036
N2F 0.13 0.249 0.249 -0.084 0.05 0.05
C4F 0.0336 0.0336 0.0265 -0.001 -0.001 -0.0029
C5F 0.0386 0.0386 0.0247 -0.0014 -0.0014 -0.0009
C6F 0.069 0.055 0.0267 0.0017 -0.0019 0.0276
C7F 0.028 0.083 0.083 -0.023 0.007 0.007
C8F 0.037 0.117 0.117 -0.038 0.011 0.011
C9F 0.067 0.113 0.113 -0.049 0.023 0.023
C10F 0.049 0.074 0.074 -0.037 0.01 0.01
C11F 0.07 0.146 0.146 -0.042 0.033 0.033
C12F 0.099 0.206 0.206 -0.068 0.046 0.046
O3MD 0.0668 0.0578 0.0236 0.0018 0.0026 0.0244
C4J 0.0336 0.0336 0.0265 0.001 0.001 -0.0029
C5J 0.0386 0.0386 0.0247 0.0014 0.0014 -0.0009
C6MD 0.069 0.055 0.0267 -0.0017 0.0019 0.0276
O3GD 0.0578 0.0668 0.0236 -0.0026 -0.0018 0.0244
C6GD 0.055 0.069 0.0267 -0.0019 0.0017 0.0276
O3J 0.0578 0.0668 0.0236 0.0026 0.0018 0.0244
C6J 0.055 0.069 0.0267 0.0019 -0.0017 0.0276
Ni1J 0.0274 0.0251 0.0274 0.00244 0.003 -0.00244
O2J 0.0353 0.0433 0.144 -0.0286 0.0241 -0.0165
N1J 0.0467 0.0383 0.0467 -0.0036 0.0079 0.0036
N2J 0.249 0.13 0.249 -0.05 0.084 0.05
C1J 0.0414 0.0414 0.04 0.0018 0.0018 -0.022
C2J 0.0408 0.0408 0.051 0.0008 0.0008 -0.0194
C3J 0.0382 0.047 0.148 -0.024 0.025 -0.0163
C7J 0.083 0.028 0.083 -0.007 0.023 0.007
C8J 0.117 0.037 0.117 -0.011 0.038 0.011
C9J 0.113 0.067 0.113 -0.023 0.049 0.023
C10J 0.074 0.049 0.074 -0.01 0.037 0.01
C11J 0.146 0.07 0.146 -0.033 0.042 0.033
C12J 0.206 0.099 0.206 -0.046 0.068 0.046
O2MD 0.0433 0.0353 0.144 0.0241 -0.0286 -0.0165
C3MD 0.047 0.0382 0.148 0.025 -0.024 -0.0163
O2RF 0.0433 0.0353 0.144 -0.0241 0.0286 -0.0165
C1IC 0.0414 0.0414 0.04 -0.0018 -0.0018 -0.022
C2IC 0.0408 0.0408 0.051 -0.0008 -0.0008 -0.0194
C3RF 0.047 0.0382 0.148 -0.025 0.024 -0.0163
O2IC 0.0353 0.0433 0.144 0.0286 -0.0241 -0.0165
C3IC 0.0382 0.047 0.148 0.024 -0.025 -0.0163
Ni1L 0.0274 0.0274 0.0251 0.00244 -0.00244 0.003
O2L 0.144 0.0353 0.0433 0.0165 0.0286 0.0241
N1L 0.0467 0.0467 0.0383 -0.0036 0.0036 0.0079
N2L 0.249 0.249 0.13 -0.05 0.05 0.084
C1L 0.04 0.0414 0.0414 0.022 -0.0018 0.0018
C2L 0.051 0.0408 0.0408 0.0194 -0.0008 0.0008
C3L 0.148 0.0382 0.047 0.0163 0.024 0.025
C7L 0.083 0.083 0.028 -0.007 0.007 0.023
C8L 0.117 0.117 0.037 -0.011 0.011 0.038
C9L 0.113 0.113 0.067 -0.023 0.023 0.049
C10L 0.074 0.074 0.049 -0.01 0.01 0.037
C11L 0.146 0.146 0.07 -0.033 0.033 0.042
C12L 0.206 0.206 0.099 -0.046 0.046 0.068
O2JD 0.144 0.0433 0.0353 0.0165 -0.0241 -0.0286
C3JD 0.148 0.047 0.0382 0.0163 -0.025 -0.024
O2SD 0.144 0.0433 0.0353 0.0165 0.0241 0.0286
C1LA 0.04 0.0414 0.0414 0.022 0.0018 -0.0018
C2LA 0.051 0.0408 0.0408 0.0194 0.0008 -0.0008
C3SD 0.148 0.047 0.0382 0.0163 0.025 0.024
O2LA 0.144 0.0353 0.0433 0.0165 -0.0286 -0.0241
C3LA 0.148 0.0382 0.047 0.0163 -0.024 -0.025
Ni1M 0.0274 0.0251 0.0274 0.00244 -0.003 0.00244
N1M 0.0467 0.0383 0.0467 -0.0036 -0.0079 -0.0036
N2M 0.249 0.13 0.249 -0.05 -0.084 -0.05
C7M 0.083 0.028 0.083 -0.007 -0.023 -0.007
C8M 0.117 0.037 0.117 -0.011 -0.038 -0.011
C9M 0.113 0.067 0.113 -0.023 -0.049 -0.023
C10M 0.074 0.049 0.074 -0.01 -0.037 -0.01
C11M 0.146 0.07 0.146 -0.033 -0.042 -0.033
C12M 0.206 0.099 0.206 -0.046 -0.068 -0.046
Ni1A 0.0274 0.0251 0.0274 -0.00244 -0.003 -0.00244
Ni1E 0.0251 0.0274 0.0274 0.003 0.00244 -0.00244
Ni1G 0.0274 0.0274 0.0251 -0.00244 0.00244 0.003
Ni1S 0.0274 0.0251 0.0274 -0.00244 0.003 0.00244
Ni1V 0.0274 0.0274 0.0251 -0.00244 -0.00244 -0.003
Ni1HA 0.0274 0.0251 0.0274 0.00244 0.003 -0.00244
Ni1LA 0.0274 0.0274 0.0251 0.00244 0.00244 -0.003
Ni1DB 0.0251 0.0274 0.0274 -0.003 -0.00244 -0.00244
Ni1MB 0.0274 0.0274 0.0251 -0.00244 -0.00244 -0.003
Ni1BC 0.0251 0.0274 0.0274 -0.003 -0.00244 -0.00244
Ni1IC 0.0274 0.0251 0.0274 -0.00244 -0.003 -0.00244
O1A 0.0347 0.0347 0.0347 0.0058 0.0058 0.0058
O1E 0.0347 0.0347 0.0347 -0.0058 -0.0058 0.0058
O2D 0.0433 0.0353 0.144 -0.0241 -0.0286 0.0165
O2F 0.0433 0.0353 0.144 -0.0241 0.0286 -0.0165
O2M 0.0353 0.0433 0.144 -0.0286 -0.0241 0.0165
O2TC 0.0433 0.144 0.0353 -0.0241 0.0165 -0.0286
O2UC 0.144 0.0433 0.0353 0.0165 0.0241 0.0286
O2ZC 0.0433 0.144 0.0353 -0.0241 -0.0165 0.0286
O2LD 0.0433 0.0353 0.144 0.0241 0.0286 0.0165
O3L 0.0236 0.0578 0.0668 -0.0244 -0.0026 0.0018
O3TC 0.0668 0.0236 0.0578 -0.0018 -0.0244 0.0026
O3UC 0.0236 0.0668 0.0578 -0.0244 0.0018 -0.0026
O3JD 0.0236 0.0668 0.0578 -0.0244 -0.0018 0.0026
loop_
_geom_bond_atom_site_label_1
_geom_bond_atom_site_label_2
_geom_bond_site_symmetry_1
_geom_bond_site_symmetry_2
Ni1 O1 1_555 1_555
O1 H1 1_555 1_555
O2 Ni1 1_555 1_555
O3 Ni1 1_555 1_555
N1 Ni1 1_555 1_555
N2 C12 1_555 1_555
C1 O2 1_555 1_555
C2 C1 1_555 1_555
C3 C2 1_555 1_555
H2 C3 1_555 1_555
C4 O3 1_555 1_555
C5 C4 1_555 1_555
C6 C5 1_555 1_555
H3 C6 1_555 1_555
C7 N1 1_555 1_555
H4 C7 1_555 1_555
C8 C7 1_555 1_555
H5 C8 1_555 1_555
C9 H6 1_555 1_555
C10 N1 1_555 1_555
H7 C10 1_555 1_555
C11 C8 1_555 1_555
C12 C11 1_555 1_555
O2OD C1 1_555 1_555
C3OD C2 1_555 1_555
H2OD C3OD 1_555 1_555
O2JF C1DB 1_555 1_555
C1DB C2DB 1_555 1_555
C2DB C3JF 1_555 1_555
C3JF C3 1_555 1_555
H2JF C3JF 1_555 1_555
O2DB C1DB 1_555 1_555
C3DB C3OD 1_555 1_555
H2DB C3DB 1_555 1_555
O3ZC C4V 1_555 1_555
C4V C5V 1_555 1_555
C5V C6ZC 1_555 1_555
C6ZC C6 1_555 1_555
H3ZC C6ZC 1_555 1_555
O3OD C4 1_555 1_555
C6OD C5 1_555 1_555
H3OD C6OD 1_555 1_555
O3V C4V 1_555 1_555
C6V C5V 1_555 1_555
H3V C6V 1_555 1_555
Ni1D O1D 1_555 1_555
O1D H1D 1_555 1_555
O3D Ni1D 1_555 1_555
N1D Ni1D 1_555 1_555
N2D C12D 1_555 1_555
C4D O3D 1_555 1_555
C5D C4D 1_555 1_555
C6D C5D 1_555 1_555
H3D C6D 1_555 1_555
C7D N1D 1_555 1_555
H4D C7D 1_555 1_555
C8D C7D 1_555 1_555
H5D C8D 1_555 1_555
C9D H6D 1_555 1_555
C10D N1D 1_555 1_555
H7D C10D 1_555 1_555
C11D C8D 1_555 1_555
C12D C11D 1_555 1_555
O3LD Ni1 1_555 1_555
C4M O3LD 1_555 1_555
C5M C4M 1_555 1_555
C6LD C6D 1_555 1_555
H3LD C6LD 1_555 1_555
O3HD C4D 1_555 1_555
C6HD C5D 1_555 1_555
H3HD C6HD 1_555 1_555
O3M C4M 1_555 1_555
C6M C5M 1_555 1_555
H3M C6M 1_555 1_555
Ni1F O3ZC 1_555 1_555
O3F Ni1F 1_555 1_555
N1F Ni1F 1_555 1_555
N2F C12F 1_555 1_555
C4F O3F 1_555 1_555
C5F C4F 1_555 1_555
C6F C5F 1_555 1_555
H3F C6F 1_555 1_555
C7F N1F 1_555 1_555
H4F C7F 1_555 1_555
C8F C7F 1_555 1_555
H5F C8F 1_555 1_555
C9F H6F 1_555 1_555
C10F N1F 1_555 1_555
H7F C10F 1_555 1_555
C11F C8F 1_555 1_555
C12F C11F 1_555 1_555
O3MD C4J 1_555 1_555
C4J C5J 1_555 1_555
C5J C6MD 1_555 1_555
C6MD C6F 1_555 1_555
H3MD C6MD 1_555 1_555
O3GD C4F 1_555 1_555
C6GD C5F 1_555 1_555
H3GD C6GD 1_555 1_555
O3J C4J 1_555 1_555
C6J C5J 1_555 1_555
H3J C6J 1_555 1_555
Ni1J O3J 1_555 1_555
O2J Ni1J 1_555 1_555
N1J Ni1J 1_555 1_555
N2J C12J 1_555 1_555
C1J O2J 1_555 1_555
C2J C1J 1_555 1_555
C3J C2J 1_555 1_555
H2J C3J 1_555 1_555
C7J N1J 1_555 1_555
H4J C7J 1_555 1_555
C8J C7J 1_555 1_555
H5J C8J 1_555 1_555
C9J H6J 1_555 1_555
C10J N1J 1_555 1_555
H7J C10J 1_555 1_555
C11J C8J 1_555 1_555
C12J C11J 1_555 1_555
O2MD C1J 1_555 1_555
C3MD C2J 1_555 1_555
H2MD C3MD 1_555 1_555
O2RF C1IC 1_555 1_555
C1IC C2IC 1_555 1_555
C2IC C3RF 1_555 1_555
C3RF C3J 1_555 1_555
H2RF C3RF 1_555 1_555
O2IC C1IC 1_555 1_555
C3IC C3MD 1_555 1_555
H2IC C3IC 1_555 1_555
Ni1L O1 1_555 1_555
O2L Ni1L 1_555 1_555
N1L Ni1L 1_555 1_555
N2L C12L 1_555 1_555
C1L O2L 1_555 1_555
C2L C1L 1_555 1_555
C3L C2L 1_555 1_555
H2L C3L 1_555 1_555
C7L N1L 1_555 1_555
H4L C7L 1_555 1_555
C8L C7L 1_555 1_555
H5L C8L 1_555 1_555
C9L H6L 1_555 1_555
C10L N1L 1_555 1_555
H7L C10L 1_555 1_555
C11L C8L 1_555 1_555
C12L C11L 1_555 1_555
O2JD C1L 1_555 1_555
C3JD C2L 1_555 1_555
H2JD C3JD 1_555 1_555
O2SD C1LA 1_555 1_555
C1LA C2LA 1_555 1_555
C2LA C3SD 1_555 1_555
C3SD C3L 1_555 1_555
H2SD C3SD 1_555 1_555
O2LA C1LA 1_555 1_555
C3LA C3JD 1_555 1_555
H2LA C3LA 1_555 1_555
Ni1M O1 1_555 1_555
N1M Ni1M 1_555 1_555
N2M C12M 1_555 1_555
C7M N1M 1_555 1_555
H4M C7M 1_555 1_555
C8M C7M 1_555 1_555
H5M C8M 1_555 1_555
C9M H6M 1_555 1_555
C10M N1M 1_555 1_555
H7M C10M 1_555 1_555
C11M C8M 1_555 1_555
C12M C11M 1_555 1_555
Ni1A O3GD 1_555 1_555
Ni1E O3MD 1_555 1_555
Ni1G O1D 1_555 1_555
Ni1S O1D 1_555 1_555
Ni1V O3V 1_555 1_555
Ni1HA O2SD 1_555 1_555
Ni1LA O2LA 1_555 1_555
Ni1DB O2DB 1_555 1_555
Ni1MB O2JF 1_555 1_555
Ni1BC O2RF 1_555 1_555
Ni1IC O2IC 1_555 1_555
O1A Ni1F 1_555 1_555
O1E Ni1J 1_555 1_555
O2D Ni1D 1_555 1_555
O2F Ni1F 1_555 1_555
O2M Ni1M 1_555 1_555
O2TC Ni1D 1_555 1_555
O2UC Ni1J 1_555 1_555
O2ZC Ni1F 1_555 1_555
O2LD Ni1 1_555 1_555
O3L Ni1L 1_555 1_555
O3TC Ni1D 1_555 1_555
O3UC Ni1J 1_555 1_555
O3JD Ni1M 1_555 1_555
C9 C10 1_555 1_555
C9 C11 1_555 1_555
O2OD Ni1L 1_555 1_555
C2DB C3DB 1_555 1_555
O3OD Ni1L 1_555 1_555
C6OD C6V 1_555 1_555
C9D C10D 1_555 1_555
C9D C11D 1_555 1_555
C5M C6LD 1_555 1_555
O3HD Ni1S 1_555 1_555
C6HD C6M 1_555 1_555
O3M Ni1M 1_555 1_555
C9F C10F 1_555 1_555
C9F C11F 1_555 1_555
C6GD C6J 1_555 1_555
C9J C10J 1_555 1_555
C9J C11J 1_555 1_555
O2MD Ni1E 1_555 1_555
C2IC C3IC 1_555 1_555
C9L C10L 1_555 1_555
C9L C11L 1_555 1_555
O2JD Ni1M 1_555 1_555
C2LA C3LA 1_555 1_555
C9M C10M 1_555 1_555
C9M C11M 1_555 1_555
Ni1A O1A 1_555 1_555
Ni1E O1E 1_555 1_555
Ni1V O1A 1_555 1_555

#END
