
#######################################################################
#
#                 Cambridge Crystallographic Data Centre
#                                CCDC 
#
#######################################################################
#
# If this CIF has been generated from an entry in the Cambridge 
# Structural Database, then it will include bibliographic, chemical, 
# crystal, experimental, refinement or atomic coordinate data resulting 
# from the CCDC's data processing and validation procedures.
#
#######################################################################

data_DUSHIK
_chemical_formula_moiety         '(C168 H102 Fe15 N12 O79 1+)n'
_symmetry_cell_setting           cubic
_symmetry_space_group_name_H-M   'F m -3 m'
_symmetry_Int_Tables_number      225
_space_group_name_Hall           '-F 4 2 3'
loop_
_symmetry_equiv_pos_site_id
_symmetry_equiv_pos_as_xyz
1 x,y,z
2 -x,-y,z
3 -x,y,-z
4 x,-y,-z
5 z,x,y
6 z,-x,-y
7 -z,-x,y
8 -z,x,-y
9 y,z,x
10 -y,z,-x
11 y,-z,-x
12 -y,-z,x
13 y,x,-z
14 -y,-x,-z
15 y,-x,z
16 -y,x,z
17 x,z,-y
18 -x,z,y
19 -x,-z,-y
20 x,-z,y
21 z,y,-x
22 z,-y,x
23 -z,y,x
24 -z,-y,-x
25 x,1/2+y,1/2+z
26 -x,1/2-y,1/2+z
27 -x,1/2+y,1/2-z
28 x,1/2-y,1/2-z
29 z,1/2+x,1/2+y
30 z,1/2-x,1/2-y
31 -z,1/2-x,1/2+y
32 -z,1/2+x,1/2-y
33 y,1/2+z,1/2+x
34 -y,1/2+z,1/2-x
35 y,1/2-z,1/2-x
36 -y,1/2-z,1/2+x
37 y,1/2+x,1/2-z
38 -y,1/2-x,1/2-z
39 y,1/2-x,1/2+z
40 -y,1/2+x,1/2+z
41 x,1/2+z,1/2-y
42 -x,1/2+z,1/2+y
43 -x,1/2-z,1/2-y
44 x,1/2-z,1/2+y
45 z,1/2+y,1/2-x
46 z,1/2-y,1/2+x
47 -z,1/2+y,1/2+x
48 -z,1/2-y,1/2-x
49 1/2+x,y,1/2+z
50 1/2-x,-y,1/2+z
51 1/2-x,y,1/2-z
52 1/2+x,-y,1/2-z
53 1/2+z,x,1/2+y
54 1/2+z,-x,1/2-y
55 1/2-z,-x,1/2+y
56 1/2-z,x,1/2-y
57 1/2+y,z,1/2+x
58 1/2-y,z,1/2-x
59 1/2+y,-z,1/2-x
60 1/2-y,-z,1/2+x
61 1/2+y,x,1/2-z
62 1/2-y,-x,1/2-z
63 1/2+y,-x,1/2+z
64 1/2-y,x,1/2+z
65 1/2+x,z,1/2-y
66 1/2-x,z,1/2+y
67 1/2-x,-z,1/2-y
68 1/2+x,-z,1/2+y
69 1/2+z,y,1/2-x
70 1/2+z,-y,1/2+x
71 1/2-z,y,1/2+x
72 1/2-z,-y,1/2-x
73 1/2+x,1/2+y,z
74 1/2-x,1/2-y,z
75 1/2-x,1/2+y,-z
76 1/2+x,1/2-y,-z
77 1/2+z,1/2+x,y
78 1/2+z,1/2-x,-y
79 1/2-z,1/2-x,y
80 1/2-z,1/2+x,-y
81 1/2+y,1/2+z,x
82 1/2-y,1/2+z,-x
83 1/2+y,1/2-z,-x
84 1/2-y,1/2-z,x
85 1/2+y,1/2+x,-z
86 1/2-y,1/2-x,-z
87 1/2+y,1/2-x,z
88 1/2-y,1/2+x,z
89 1/2+x,1/2+z,-y
90 1/2-x,1/2+z,y
91 1/2-x,1/2-z,-y
92 1/2+x,1/2-z,y
93 1/2+z,1/2+y,-x
94 1/2+z,1/2-y,x
95 1/2-z,1/2+y,x
96 1/2-z,1/2-y,-x
97 -x,-y,-z
98 x,y,-z
99 x,-y,z
100 -x,y,z
101 -z,-x,-y
102 -z,x,y
103 z,x,-y
104 z,-x,y
105 -y,-z,-x
106 y,-z,x
107 -y,z,x
108 y,z,-x
109 -y,-x,z
110 y,x,z
111 -y,x,-z
112 y,-x,-z
113 -x,-z,y
114 x,-z,-y
115 x,z,y
116 -x,z,-y
117 -z,-y,x
118 -z,y,-x
119 z,-y,-x
120 z,y,x
121 -x,1/2-y,1/2-z
122 x,1/2+y,1/2-z
123 x,1/2-y,1/2+z
124 -x,1/2+y,1/2+z
125 -z,1/2-x,1/2-y
126 -z,1/2+x,1/2+y
127 z,1/2+x,1/2-y
128 z,1/2-x,1/2+y
129 -y,1/2-z,1/2-x
130 y,1/2-z,1/2+x
131 -y,1/2+z,1/2+x
132 y,1/2+z,1/2-x
133 -y,1/2-x,1/2+z
134 y,1/2+x,1/2+z
135 -y,1/2+x,1/2-z
136 y,1/2-x,1/2-z
137 -x,1/2-z,1/2+y
138 x,1/2-z,1/2-y
139 x,1/2+z,1/2+y
140 -x,1/2+z,1/2-y
141 -z,1/2-y,1/2+x
142 -z,1/2+y,1/2-x
143 z,1/2-y,1/2-x
144 z,1/2+y,1/2+x
145 1/2-x,-y,1/2-z
146 1/2+x,y,1/2-z
147 1/2+x,-y,1/2+z
148 1/2-x,y,1/2+z
149 1/2-z,-x,1/2-y
150 1/2-z,x,1/2+y
151 1/2+z,x,1/2-y
152 1/2+z,-x,1/2+y
153 1/2-y,-z,1/2-x
154 1/2+y,-z,1/2+x
155 1/2-y,z,1/2+x
156 1/2+y,z,1/2-x
157 1/2-y,-x,1/2+z
158 1/2+y,x,1/2+z
159 1/2-y,x,1/2-z
160 1/2+y,-x,1/2-z
161 1/2-x,-z,1/2+y
162 1/2+x,-z,1/2-y
163 1/2+x,z,1/2+y
164 1/2-x,z,1/2-y
165 1/2-z,-y,1/2+x
166 1/2-z,y,1/2-x
167 1/2+z,-y,1/2-x
168 1/2+z,y,1/2+x
169 1/2-x,1/2-y,-z
170 1/2+x,1/2+y,-z
171 1/2+x,1/2-y,z
172 1/2-x,1/2+y,z
173 1/2-z,1/2-x,-y
174 1/2-z,1/2+x,y
175 1/2+z,1/2+x,-y
176 1/2+z,1/2-x,y
177 1/2-y,1/2-z,-x
178 1/2+y,1/2-z,x
179 1/2-y,1/2+z,x
180 1/2+y,1/2+z,-x
181 1/2-y,1/2-x,z
182 1/2+y,1/2+x,z
183 1/2-y,1/2+x,-z
184 1/2+y,1/2-x,-z
185 1/2-x,1/2-z,y
186 1/2+x,1/2-z,-y
187 1/2+x,1/2+z,y
188 1/2-x,1/2+z,-y
189 1/2-z,1/2-y,x
190 1/2-z,1/2+y,-x
191 1/2+z,1/2-y,-x
192 1/2+z,1/2+y,x
_cell_length_a                   41.258(3)
_cell_length_b                   41.258(3)
_cell_length_c                   41.258(3)
_cell_angle_alpha                90
_cell_angle_beta                 90
_cell_angle_gamma                90
_cell_volume                     70230.3
loop_
_atom_site_label
_atom_site_type_symbol
_atom_site_fract_x
_atom_site_fract_y
_atom_site_fract_z
Fe1 Fe 0.68684(2) 0.37079(2) 0.62921(2)
Fe2 Fe 0.77403(19) 0.5000 0.5000
O1 O 0.64864(8) 0.35136(8) 0.64864(8)
O2 O 0.7128(3) 0.3713(3) 0.6704(3)
O3 O 0.6658(4) 0.4163(4) 0.6288(4)
O4 O 0.7710(4) 0.46670(18) 0.53330(18)
O5 O 0.7194(6) 0.4604(3) 0.5396(3)
C1 C 0.70083(12) 0.37662(18) 0.70083(12)
C2 C 0.72646(11) 0.3760(2) 0.72646(11)
C3 C 0.75831(15) 0.37734(19) 0.71788(15)
H1 H 0.7642 0.3783 0.6957
C4 C 0.65005(10) 0.43030(13) 0.65005(10)
C5 C 0.64839(11) 0.46631(14) 0.64839(11)
C6 C 0.66832(17) 0.48319(12) 0.62760(14)
H2 H 0.6821 0.4717 0.6132
C7 C 0.7521(2) 0.42939(8) 0.57061(8)
C8 C 0.72514(16) 0.41513(10) 0.58490(9)
H3 H 0.7040 0.4216 0.5785
N1 N 0.72909(13) 0.39145(8) 0.60855(7)
C9 C 0.76005(17) 0.38203(7) 0.61795(3)
H4 H 0.7627 0.3659 0.6341
C10 C 0.78704(13) 0.39629(12) 0.60371(11)
H5 H 0.8082 0.3899 0.6101
C11 C 0.78309(18) 0.41997(11) 0.58006(10)
H6 H 0.8015 0.4297 0.5703
C12 C 0.7469(6) 0.4553(3) 0.5447(3)
O6 O 0.8222(5) 0.5000 0.5000
O2OD O 0.6704(3) 0.3713(3) 0.7128(3)
C3OD C 0.71788(15) 0.37734(19) 0.75831(15)
H1OD H 0.6957 0.3783 0.7642
O2IF O 0.8296(3) 0.3713(3) 0.7872(3)
C1XA C 0.79917(12) 0.37662(18) 0.79917(12)
C2XA C 0.77354(11) 0.3760(2) 0.77354(11)
C3IF C 0.78212(15) 0.37734(19) 0.74169(15)
H1IF H 0.8043 0.3783 0.7358
O2XA O 0.7872(3) 0.3713(3) 0.8296(3)
C3XA C 0.74169(15) 0.37734(19) 0.78212(15)
H1XA H 0.7358 0.3783 0.8043
O3TC O 0.6658(4) 0.5837(4) 0.6288(4)
C4U C 0.65005(10) 0.56970(13) 0.65005(10)
C5U C 0.64839(11) 0.53369(14) 0.64839(11)
C6TC C 0.66832(17) 0.51681(12) 0.62760(14)
H2TC H 0.6821 0.5283 0.6132
O3OD O 0.6288(4) 0.4163(4) 0.6658(4)
C6OD C 0.62760(14) 0.48319(12) 0.66832(17)
H2OD H 0.6132 0.4717 0.6821
O3U O 0.6288(4) 0.5837(4) 0.6658(4)
C6U C 0.62760(14) 0.51681(12) 0.66832(17)
H2U H 0.6132 0.5283 0.6821
Fe1C Fe 0.68684(2) 0.62921(2) 0.37079(2)
O1C O 0.64864(8) 0.64864(8) 0.35136(8)
O3C O 0.6658(4) 0.5837(4) 0.3712(4)
O4C O 0.7710(4) 0.53330(18) 0.46670(18)
O5C O 0.7194(6) 0.5396(3) 0.4604(3)
C4C C 0.65005(10) 0.56970(13) 0.34995(10)
C5C C 0.64839(11) 0.53369(14) 0.35161(11)
C6C C 0.66832(17) 0.51681(12) 0.37240(14)
H2C H 0.6821 0.5283 0.3868
C7C C 0.7521(2) 0.57061(8) 0.42939(8)
C8C C 0.72514(16) 0.58487(10) 0.41510(9)
H3C H 0.7040 0.5784 0.4215
N1C N 0.72909(13) 0.60855(8) 0.39145(7)
C9C C 0.76005(17) 0.61797(7) 0.38205(3)
H4C H 0.7627 0.6341 0.3659
C10C C 0.78704(13) 0.60371(12) 0.39629(11)
H5C H 0.8082 0.6101 0.3899
C11C C 0.78309(18) 0.58003(11) 0.41994(10)
H6C H 0.8015 0.5703 0.4297
C12C C 0.7469(6) 0.5447(3) 0.4553(3)
O3SC O 0.6658(4) 0.4163(4) 0.3712(4)
C4T C 0.65005(10) 0.43030(13) 0.34995(10)
C5T C 0.64839(11) 0.46631(14) 0.35161(11)
C6SC C 0.66832(17) 0.48319(12) 0.37240(14)
H2SC H 0.6821 0.4717 0.3868
O3ND O 0.6288(4) 0.5837(4) 0.3342(4)
C6ND C 0.62760(14) 0.51681(12) 0.33168(17)
H2ND H 0.6132 0.5283 0.3179
O3T O 0.6288(4) 0.4163(4) 0.3342(4)
C6T C 0.62760(14) 0.48319(12) 0.33168(17)
H2T H 0.6132 0.4717 0.3179
Fe1D Fe 0.62921(2) 0.68684(2) 0.37079(2)
Fe2D Fe 0.5000 0.77403(19) 0.5000
O2D O 0.6704(3) 0.7128(3) 0.3713(3)
O3D O 0.6288(4) 0.6658(4) 0.4163(4)
O4D O 0.53330(18) 0.7710(4) 0.46670(18)
O5D O 0.5396(3) 0.7194(6) 0.4604(3)
C1D C 0.70083(12) 0.70083(12) 0.37662(18)
C2D C 0.72646(11) 0.72646(11) 0.3760(2)
C3D C 0.71788(15) 0.75831(15) 0.37734(19)
H1D H 0.6957 0.7642 0.3783
C4D C 0.65005(10) 0.65005(10) 0.43030(13)
C5D C 0.64839(11) 0.64839(11) 0.46631(14)
C6D C 0.62760(14) 0.66832(17) 0.48319(12)
H2D H 0.6132 0.6821 0.4717
C7D C 0.57061(8) 0.7521(2) 0.42939(8)
C8D C 0.58490(9) 0.72514(16) 0.41513(10)
H3D H 0.5785 0.7040 0.4216
N1D N 0.60855(7) 0.72909(13) 0.39145(8)
C9D C 0.61795(3) 0.76005(17) 0.38203(7)
H4D H 0.6341 0.7627 0.3659
C10D C 0.60371(11) 0.78704(13) 0.39629(12)
H5D H 0.6101 0.8082 0.3899
C11D C 0.58006(10) 0.78309(18) 0.41997(11)
H6D H 0.5703 0.8015 0.4297
C12D C 0.5447(3) 0.7469(6) 0.4553(3)
O6D O 0.5000 0.8222(5) 0.5000
O2JD O 0.7128(3) 0.6704(3) 0.3713(3)
C3JD C 0.75831(15) 0.71788(15) 0.37734(19)
H1JD H 0.7642 0.6957 0.3783
O2BG O 0.7872(3) 0.8296(3) 0.3713(3)
C1ZB C 0.79917(12) 0.79917(12) 0.37662(18)
C2ZB C 0.77354(11) 0.77354(11) 0.3760(2)
C3BG C 0.74169(15) 0.78212(15) 0.37734(19)
H1BG H 0.7358 0.8043 0.3783
O2ZB O 0.8296(3) 0.7872(3) 0.3713(3)
C3ZB C 0.78212(15) 0.74169(15) 0.37734(19)
H1ZB H 0.8043 0.7358 0.3783
O3XC O 0.6288(4) 0.6658(4) 0.5837(4)
C4P C 0.65005(10) 0.65005(10) 0.56970(13)
C5P C 0.64839(11) 0.64839(11) 0.53369(14)
C6XC C 0.62760(14) 0.66832(17) 0.51681(12)
H2XC H 0.6132 0.6821 0.5283
O3JD O 0.6658(4) 0.6288(4) 0.4163(4)
C6JD C 0.66832(17) 0.62760(14) 0.48319(12)
H2JD H 0.6821 0.6132 0.4717
O3P O 0.6658(4) 0.6288(4) 0.5837(4)
C6P C 0.66832(17) 0.62760(14) 0.51681(12)
H2P H 0.6821 0.6132 0.5283
Fe1E Fe 0.62921(2) 0.31316(2) 0.62921(2)
Fe2E Fe 0.5000 0.22597(19) 0.5000
O2E O 0.6704(3) 0.2872(3) 0.6287(3)
O3E O 0.6288(4) 0.3342(4) 0.5837(4)
O4E O 0.53330(18) 0.2290(4) 0.53330(18)
O5E O 0.5396(3) 0.2806(6) 0.5396(3)
C1E C 0.70083(12) 0.29917(12) 0.62338(18)
C2E C 0.72646(11) 0.27354(11) 0.6240(2)
C3E C 0.71788(15) 0.24169(15) 0.62266(19)
H1E H 0.6957 0.2358 0.6217
C4E C 0.65005(10) 0.34995(10) 0.56970(13)
C5E C 0.64839(11) 0.35161(11) 0.53369(14)
C6E C 0.62760(14) 0.33168(17) 0.51681(12)
H2E H 0.6132 0.3179 0.5283
C7E C 0.57061(8) 0.2479(2) 0.57061(8)
C8E C 0.58490(9) 0.27486(16) 0.58487(10)
H3E H 0.5785 0.2960 0.5784
N1E N 0.60855(7) 0.27091(13) 0.60855(8)
C9E C 0.61795(3) 0.23995(17) 0.61797(7)
H4E H 0.6341 0.2373 0.6341
C10E C 0.60371(11) 0.21296(13) 0.60371(12)
H5E H 0.6101 0.1918 0.6101
C11E C 0.58006(10) 0.21691(18) 0.58003(11)
H6E H 0.5703 0.1985 0.5703
C12E C 0.5447(3) 0.2531(6) 0.5447(3)
O6E O 0.5000 0.1778(5) 0.5000
O2ID O 0.7128(3) 0.3296(3) 0.6287(3)
C3ID C 0.75831(15) 0.28212(15) 0.62266(19)
H1ID H 0.7642 0.3043 0.6217
O2EG O 0.7872(3) 0.1704(3) 0.6287(3)
C1AC C 0.79917(12) 0.20083(12) 0.62338(18)
C2AC C 0.77354(11) 0.22646(11) 0.6240(2)
C3EG C 0.74169(15) 0.21788(15) 0.62266(19)
H1EG H 0.7358 0.1957 0.6217
O2AC O 0.8296(3) 0.2128(3) 0.6287(3)
C3AC C 0.78212(15) 0.25831(15) 0.62266(19)
H1AC H 0.8043 0.2642 0.6217
O3YC O 0.6288(4) 0.3342(4) 0.4163(4)
C4S C 0.65005(10) 0.34995(10) 0.43030(13)
C5S C 0.64839(11) 0.35161(11) 0.46631(14)
C6YC C 0.62760(14) 0.33168(17) 0.48319(12)
H2YC H 0.6132 0.3179 0.4717
O3ID O 0.6658(4) 0.3712(4) 0.5837(4)
C6ID C 0.66832(17) 0.37240(14) 0.51681(12)
H2ID H 0.6821 0.3868 0.5283
O3S O 0.6658(4) 0.3712(4) 0.4163(4)
C6S C 0.66832(17) 0.37240(14) 0.48319(12)
H2S H 0.6821 0.3868 0.4717
Fe1K Fe 0.62921(2) 0.37079(2) 0.68684(2)
O2K O 0.6287(3) 0.3296(3) 0.7128(3)
O3K O 0.5837(4) 0.3712(4) 0.6658(4)
O4K O 0.53330(18) 0.46670(18) 0.7710(4)
O5K O 0.5396(3) 0.4604(3) 0.7194(6)
C1K C 0.62338(18) 0.29917(12) 0.70083(12)
C2K C 0.6240(2) 0.27354(11) 0.72646(11)
C3K C 0.62266(19) 0.28212(15) 0.75831(15)
H1K H 0.6217 0.3043 0.7642
C4K C 0.56970(13) 0.34995(10) 0.65005(10)
C5K C 0.53369(14) 0.35161(11) 0.64839(11)
C6K C 0.51681(12) 0.37240(14) 0.66832(17)
H2K H 0.5283 0.3868 0.6821
C7K C 0.57061(8) 0.42939(8) 0.7521(2)
C8K C 0.58487(10) 0.41510(9) 0.72514(16)
H3K H 0.5784 0.4215 0.7040
N1K N 0.60855(8) 0.39145(7) 0.72909(13)
C9K C 0.61797(7) 0.38205(3) 0.76005(17)
H4K H 0.6341 0.3659 0.7627
C10K C 0.60371(12) 0.39629(11) 0.78704(13)
H5K H 0.6101 0.3899 0.8082
C11K C 0.58003(11) 0.41994(10) 0.78309(18)
H6K H 0.5703 0.4297 0.8015
C12K C 0.5447(3) 0.4553(3) 0.7469(6)
O2DD O 0.6287(3) 0.2872(3) 0.6704(3)
C3DD C 0.62266(19) 0.24169(15) 0.71788(15)
H1DD H 0.6217 0.2358 0.6957
O2DE O 0.6287(3) 0.2128(3) 0.8296(3)
C1GA C 0.62338(18) 0.20083(12) 0.79917(12)
C2GA C 0.6240(2) 0.22646(11) 0.77354(11)
C3DE C 0.62266(19) 0.25831(15) 0.78212(15)
H1DE H 0.6217 0.2642 0.8043
O2GA O 0.6287(3) 0.1704(3) 0.7872(3)
C3GA C 0.62266(19) 0.21788(15) 0.74169(15)
H1GA H 0.6217 0.1957 0.7358
O3AD O 0.4163(4) 0.3712(4) 0.6658(4)
C4N C 0.43030(13) 0.34995(10) 0.65005(10)
C5N C 0.46631(14) 0.35161(11) 0.64839(11)
C6AD C 0.48319(12) 0.37240(14) 0.66832(17)
H2AD H 0.4717 0.3868 0.6821
O3DD O 0.5837(4) 0.3342(4) 0.6288(4)
C6DD C 0.51681(12) 0.33168(17) 0.62760(14)
H2DD H 0.5283 0.3179 0.6132
O3N O 0.4163(4) 0.3342(4) 0.6288(4)
C6N C 0.48319(12) 0.33168(17) 0.62760(14)
H2N H 0.4717 0.3179 0.6132
Fe1M Fe 0.62921(2) 0.31316(2) 0.37079(2)
O1M O 0.64864(8) 0.35136(8) 0.35136(8)
O3M O 0.5837(4) 0.3342(4) 0.3712(4)
O4M O 0.53330(18) 0.2290(4) 0.46670(18)
O5M O 0.5396(3) 0.2806(6) 0.4604(3)
C4M C 0.56970(13) 0.34995(10) 0.34995(10)
C5M C 0.53369(14) 0.35161(11) 0.35161(11)
C6M C 0.51681(12) 0.33168(17) 0.37240(14)
H2M H 0.5283 0.3179 0.3868
C7M C 0.57061(8) 0.2479(2) 0.42939(8)
C8M C 0.58487(10) 0.27486(16) 0.41510(9)
H3M H 0.5784 0.2960 0.4215
N1M N 0.60855(8) 0.27091(13) 0.39145(7)
C9M C 0.61797(7) 0.23995(17) 0.38205(3)
H4M H 0.6341 0.2373 0.3659
C10M C 0.60371(12) 0.21296(13) 0.39629(11)
H5M H 0.6101 0.1918 0.3899
C11M C 0.58003(11) 0.21691(18) 0.41994(10)
H6M H 0.5703 0.1985 0.4297
C12M C 0.5447(3) 0.2531(6) 0.4553(3)
O3GD O 0.4163(4) 0.3342(4) 0.3712(4)
C4J C 0.43030(13) 0.34995(10) 0.34995(10)
C5J C 0.46631(14) 0.35161(11) 0.35161(11)
C6GD C 0.48319(12) 0.33168(17) 0.37240(14)
H2GD H 0.4717 0.3179 0.3868
O3ZC O 0.5837(4) 0.3712(4) 0.3342(4)
C6ZC C 0.51681(12) 0.37240(14) 0.33168(17)
H2ZC H 0.5283 0.3868 0.3179
O3J O 0.4163(4) 0.3712(4) 0.3342(4)
C6J C 0.48319(12) 0.37240(14) 0.33168(17)
H2J H 0.4717 0.3868 0.3179
Fe1N Fe 0.37079(2) 0.31316(2) 0.62921(2)
O1N O 0.35136(8) 0.35136(8) 0.64864(8)
O4N O 0.46670(18) 0.2290(4) 0.53330(18)
O5N O 0.4604(3) 0.2806(6) 0.5396(3)
C7N C 0.42939(8) 0.2479(2) 0.57061(8)
C8N C 0.41513(10) 0.27486(16) 0.58490(9)
H3N H 0.4216 0.2960 0.5785
N1N N 0.39145(8) 0.27091(13) 0.60855(7)
C9N C 0.38203(7) 0.23995(17) 0.61795(3)
H4N H 0.3659 0.2373 0.6341
C10N C 0.39629(12) 0.21296(13) 0.60371(11)
H5N H 0.3899 0.1918 0.6101
C11N C 0.41997(11) 0.21691(18) 0.58006(10)
H6N H 0.4297 0.1985 0.5703
C12N C 0.4553(3) 0.2531(6) 0.5447(3)
Fe1O Fe 0.62921(2) 0.68684(2) 0.62921(2)
O4O O 0.53330(18) 0.7710(4) 0.53330(18)
O5O O 0.5396(3) 0.7194(6) 0.5396(3)
C7O C 0.57061(8) 0.7521(2) 0.57061(8)
C8O C 0.58487(10) 0.72514(16) 0.58490(9)
H3O H 0.5784 0.7040 0.5785
N1O N 0.60855(8) 0.72909(13) 0.60855(7)
C9O C 0.61797(7) 0.76005(17) 0.61795(3)
H4O H 0.6341 0.7627 0.6341
C10O C 0.60371(12) 0.78704(13) 0.60371(11)
H5O H 0.6101 0.8082 0.6101
C11O C 0.58003(11) 0.78309(18) 0.58006(10)
H6O H 0.5703 0.8015 0.5703
C12O C 0.5447(3) 0.7469(6) 0.5447(3)
Fe1P Fe 0.68684(2) 0.62921(2) 0.62921(2)
O4P O 0.7710(4) 0.53330(18) 0.53330(18)
O5P O 0.7194(6) 0.5396(3) 0.5396(3)
C7P C 0.7521(2) 0.57061(8) 0.57061(8)
C8P C 0.72514(16) 0.58490(9) 0.58487(10)
H3P H 0.7040 0.5785 0.5784
N1P N 0.72909(13) 0.60855(7) 0.60855(8)
C9P C 0.76005(17) 0.61795(3) 0.61797(7)
H4P H 0.7627 0.6341 0.6341
C10P C 0.78704(13) 0.60371(11) 0.60371(12)
H5P H 0.8082 0.6101 0.6101
C11P C 0.78309(18) 0.58006(10) 0.58003(11)
H6P H 0.8015 0.5703 0.5703
C12P C 0.7469(6) 0.5447(3) 0.5447(3)
Fe1S Fe 0.68684(2) 0.37079(2) 0.37079(2)
O4S O 0.7710(4) 0.46670(18) 0.46670(18)
O5S O 0.7194(6) 0.4604(3) 0.4604(3)
C7S C 0.7521(2) 0.42939(8) 0.42939(8)
C8S C 0.72514(16) 0.41510(9) 0.41513(10)
H3S H 0.7040 0.4215 0.4216
N1S N 0.72909(13) 0.39145(7) 0.39145(8)
C9S C 0.76005(17) 0.38205(3) 0.38203(7)
H4S H 0.7627 0.3659 0.3659
C10S C 0.78704(13) 0.39629(11) 0.39629(12)
H5S H 0.8082 0.3899 0.3899
C11S C 0.78309(18) 0.41994(10) 0.41997(11)
H6S H 0.8015 0.4297 0.4297
C12S C 0.7469(6) 0.4553(3) 0.4553(3)
Fe1U Fe 0.62921(2) 0.62921(2) 0.68684(2)
O2U O 0.6704(3) 0.6287(3) 0.7128(3)
O4U O 0.53330(18) 0.53330(18) 0.7710(4)
O5U O 0.5396(3) 0.5396(3) 0.7194(6)
C1U C 0.70083(12) 0.62338(18) 0.70083(12)
C2U C 0.72646(11) 0.6240(2) 0.72646(11)
C3U C 0.71788(15) 0.62266(19) 0.75831(15)
H1U H 0.6957 0.6217 0.7642
C7U C 0.57061(8) 0.57061(8) 0.7521(2)
C8U C 0.58490(9) 0.58487(10) 0.72514(16)
H3U H 0.5785 0.5784 0.7040
N1U N 0.60855(7) 0.60855(8) 0.72909(13)
C9U C 0.61795(3) 0.61797(7) 0.76005(17)
H4U H 0.6341 0.6341 0.7627
C10U C 0.60371(11) 0.60371(12) 0.78704(13)
H5U H 0.6101 0.6101 0.8082
C11U C 0.58006(10) 0.58003(11) 0.78309(18)
H6U H 0.5703 0.5703 0.8015
C12U C 0.5447(3) 0.5447(3) 0.7469(6)
O2TC O 0.7128(3) 0.6287(3) 0.6704(3)
C3TC C 0.75831(15) 0.62266(19) 0.71788(15)
H1TC H 0.7642 0.6217 0.6957
O2NE O 0.7872(3) 0.6287(3) 0.8296(3)
C1SB C 0.79917(12) 0.62338(18) 0.79917(12)
C2SB C 0.77354(11) 0.6240(2) 0.77354(11)
C3NE C 0.74169(15) 0.62266(19) 0.78212(15)
H1NE H 0.7358 0.6217 0.8043
O2SB O 0.8296(3) 0.6287(3) 0.7872(3)
C3SB C 0.78212(15) 0.62266(19) 0.74169(15)
H1SB H 0.8043 0.6217 0.7358
Fe1V Fe 0.37079(2) 0.37079(2) 0.68684(2)
O4V O 0.46670(18) 0.46670(18) 0.7710(4)
O5V O 0.4604(3) 0.4604(3) 0.7194(6)
C7V C 0.42939(8) 0.42939(8) 0.7521(2)
C8V C 0.41510(9) 0.41513(10) 0.72514(16)
H3V H 0.4215 0.4216 0.7040
N1V N 0.39145(7) 0.39145(8) 0.72909(13)
C9V C 0.38205(3) 0.38203(7) 0.76005(17)
H4V H 0.3659 0.3659 0.7627
C10V C 0.39629(11) 0.39629(12) 0.78704(13)
H5V H 0.3899 0.3899 0.8082
C11V C 0.41994(10) 0.41997(11) 0.78309(18)
H6V H 0.4297 0.4297 0.8015
C12V C 0.4553(3) 0.4553(3) 0.7469(6)
O2C O 0.7128(3) 0.6287(3) 0.3296(3)
C1C C 0.70083(12) 0.62338(18) 0.29917(12)
C2C C 0.72646(11) 0.6240(2) 0.27354(11)
C3C C 0.75831(15) 0.62266(19) 0.28212(15)
H1C H 0.7642 0.6217 0.3043
O2ND O 0.6704(3) 0.6287(3) 0.2872(3)
C3ND C 0.71788(15) 0.62266(19) 0.24169(15)
H1ND H 0.6957 0.6217 0.2358
O2HF O 0.8296(3) 0.6287(3) 0.2128(3)
C1WA C 0.79917(12) 0.62338(18) 0.20083(12)
C2WA C 0.77354(11) 0.6240(2) 0.22646(11)
C3HF C 0.78212(15) 0.62266(19) 0.25831(15)
H1HF H 0.8043 0.6217 0.2642
O2WA O 0.7872(3) 0.6287(3) 0.1704(3)
C3WA C 0.74169(15) 0.62266(19) 0.21788(15)
H1WA H 0.7358 0.6217 0.1957
Fe1F Fe 0.37079(2) 0.31316(2) 0.37079(2)
Fe1I Fe 0.62921(2) 0.62921(2) 0.31316(2)
Fe1J Fe 0.37079(2) 0.37079(2) 0.31316(2)
Fe1R Fe 0.31316(2) 0.37079(2) 0.62921(2)
Fe1T Fe 0.62921(2) 0.37079(2) 0.31316(2)
Fe1BA Fe 0.62921(2) 0.18684(2) 0.87079(2)
Fe1GA Fe 0.62921(2) 0.12921(2) 0.81316(2)
Fe1WA Fe 0.81316(2) 0.62921(2) 0.12921(2)
Fe1XA Fe 0.81316(2) 0.37079(2) 0.87079(2)
Fe1DB Fe 0.87079(2) 0.62921(2) 0.18684(2)
Fe1FB Fe 0.87079(2) 0.37079(2) 0.81316(2)
Fe1MB Fe 0.81316(2) 0.62921(2) 0.87079(2)
Fe1SB Fe 0.87079(2) 0.62921(2) 0.81316(2)
Fe1UB Fe 0.81316(2) 0.12921(2) 0.62921(2)
Fe1VB Fe 0.81316(2) 0.87079(2) 0.37079(2)
Fe1ZB Fe 0.87079(2) 0.81316(2) 0.37079(2)
Fe1AC Fe 0.87079(2) 0.18684(2) 0.62921(2)
Fe2H Fe 0.5000 0.5000 0.77403(19)
O1O O 0.64864(8) 0.64864(8) 0.64864(8)
O2M O 0.6287(3) 0.2872(3) 0.3296(3)
O2N O 0.3713(3) 0.2872(3) 0.6704(3)
O2O O 0.6287(3) 0.7128(3) 0.6704(3)
O2P O 0.7128(3) 0.6704(3) 0.6287(3)
O2S O 0.7128(3) 0.3296(3) 0.3713(3)
O2V O 0.3296(3) 0.3713(3) 0.7128(3)
O2SC O 0.7128(3) 0.3713(3) 0.3296(3)
O2VC O 0.3296(3) 0.2872(3) 0.6287(3)
O2XC O 0.6704(3) 0.7128(3) 0.6287(3)
O2YC O 0.6704(3) 0.2872(3) 0.3713(3)
O2AD O 0.3713(3) 0.3296(3) 0.7128(3)
O2BD O 0.6287(3) 0.6704(3) 0.7128(3)
O2FD O 0.6287(3) 0.7128(3) 0.3296(3)
O3O O 0.5837(4) 0.6658(4) 0.6288(4)
O3V O 0.3712(4) 0.4163(4) 0.6658(4)
O3VC O 0.3712(4) 0.3342(4) 0.5837(4)
O3BD O 0.5837(4) 0.6288(4) 0.6658(4)
O3FD O 0.5837(4) 0.6658(4) 0.3712(4)
O4F O 0.46670(18) 0.2290(4) 0.46670(18)
O4G O 0.46670(18) 0.7710(4) 0.53330(18)
O4L O 0.46670(18) 0.7710(4) 0.46670(18)
loop_
_geom_bond_atom_site_label_1
_geom_bond_atom_site_label_2
_geom_bond_site_symmetry_1
_geom_bond_site_symmetry_2
Fe1 O1 1_555 1_555
Fe2 O4 1_555 1_555
O1 Fe1E 1_555 1_555
O2 Fe1 1_555 1_555
O3 Fe1 1_555 1_555
O4 C12 1_555 1_555
O5 C12 1_555 1_555
C1 O2 1_555 1_555
C2 C1 1_555 1_555
C3 C2 1_555 1_555
H1 C3 1_555 1_555
C4 O3 1_555 1_555
C5 C4 1_555 1_555
C6 C5 1_555 1_555
H2 C6 1_555 1_555
C7 C8 1_555 1_555
C8 H3 1_555 1_555
N1 Fe1 1_555 1_555
C9 N1 1_555 1_555
H4 C9 1_555 1_555
C10 C9 1_555 1_555
H5 C10 1_555 1_555
C11 C7 1_555 1_555
H6 C11 1_555 1_555
C12 C7 1_555 1_555
O6 Fe2 1_555 1_555
O2OD C1 1_555 1_555
C3OD C2 1_555 1_555
H1OD C3OD 1_555 1_555
O2IF C1XA 1_555 1_555
C1XA C2XA 1_555 1_555
C2XA C3IF 1_555 1_555
C3IF C3 1_555 1_555
H1IF C3IF 1_555 1_555
O2XA C1XA 1_555 1_555
C3XA C3OD 1_555 1_555
H1XA C3XA 1_555 1_555
O3TC C4U 1_555 1_555
C4U C5U 1_555 1_555
C5U C6TC 1_555 1_555
C6TC C6 1_555 1_555
H2TC C6TC 1_555 1_555
O3OD C4 1_555 1_555
C6OD C5 1_555 1_555
H2OD C6OD 1_555 1_555
O3U C4U 1_555 1_555
C6U C5U 1_555 1_555
H2U C6U 1_555 1_555
Fe1C O1C 1_555 1_555
O1C Fe1D 1_555 1_555
O3C Fe1C 1_555 1_555
O4C Fe2 1_555 1_555
O5C C12C 1_555 1_555
C4C O3C 1_555 1_555
C5C C4C 1_555 1_555
C6C C5C 1_555 1_555
H2C C6C 1_555 1_555
C7C C8C 1_555 1_555
C8C H3C 1_555 1_555
N1C Fe1C 1_555 1_555
C9C N1C 1_555 1_555
H4C C9C 1_555 1_555
C10C C9C 1_555 1_555
H5C C10C 1_555 1_555
C11C C7C 1_555 1_555
H6C C11C 1_555 1_555
C12C O4C 1_555 1_555
O3SC C4T 1_555 1_555
C4T C5T 1_555 1_555
C5T C6SC 1_555 1_555
C6SC C6C 1_555 1_555
H2SC C6SC 1_555 1_555
O3ND C4C 1_555 1_555
C6ND C5C 1_555 1_555
H2ND C6ND 1_555 1_555
O3T C4T 1_555 1_555
C6T C5T 1_555 1_555
H2T C6T 1_555 1_555
Fe1D O2D 1_555 1_555
Fe2D O4D 1_555 1_555
O2D C1D 1_555 1_555
O3D Fe1D 1_555 1_555
O4D C12D 1_555 1_555
O5D C12D 1_555 1_555
C1D C2D 1_555 1_555
C2D C3D 1_555 1_555
C3D H1D 1_555 1_555
C4D O3D 1_555 1_555
C5D C4D 1_555 1_555
C6D C5D 1_555 1_555
H2D C6D 1_555 1_555
C7D C8D 1_555 1_555
C8D H3D 1_555 1_555
N1D Fe1D 1_555 1_555
C9D N1D 1_555 1_555
H4D C9D 1_555 1_555
C10D C9D 1_555 1_555
H5D C10D 1_555 1_555
C11D C7D 1_555 1_555
H6D C11D 1_555 1_555
C12D C7D 1_555 1_555
O6D Fe2D 1_555 1_555
O2JD Fe1C 1_555 1_555
C3JD C2D 1_555 1_555
H1JD C3JD 1_555 1_555
O2BG C1ZB 1_555 1_555
C1ZB C2ZB 1_555 1_555
C2ZB C3BG 1_555 1_555
C3BG C3D 1_555 1_555
H1BG C3BG 1_555 1_555
O2ZB C1ZB 1_555 1_555
C3ZB C3JD 1_555 1_555
H1ZB C3ZB 1_555 1_555
O3XC C4P 1_555 1_555
C4P C5P 1_555 1_555
C5P C6XC 1_555 1_555
C6XC C6D 1_555 1_555
H2XC C6XC 1_555 1_555
O3JD Fe1C 1_555 1_555
C6JD C5D 1_555 1_555
H2JD C6JD 1_555 1_555
O3P C4P 1_555 1_555
C6P C5P 1_555 1_555
H2P C6P 1_555 1_555
Fe1E O2E 1_555 1_555
Fe2E O4E 1_555 1_555
O2E C1E 1_555 1_555
O3E Fe1E 1_555 1_555
O4E C12E 1_555 1_555
O5E C12E 1_555 1_555
C1E C2E 1_555 1_555
C2E C3E 1_555 1_555
C3E H1E 1_555 1_555
C4E O3E 1_555 1_555
C5E C4E 1_555 1_555
C6E C5E 1_555 1_555
H2E C6E 1_555 1_555
C7E C8E 1_555 1_555
C8E H3E 1_555 1_555
N1E Fe1E 1_555 1_555
C9E N1E 1_555 1_555
H4E C9E 1_555 1_555
C10E C9E 1_555 1_555
H5E C10E 1_555 1_555
C11E C7E 1_555 1_555
H6E C11E 1_555 1_555
C12E C7E 1_555 1_555
O6E Fe2E 1_555 1_555
O2ID Fe1 1_555 1_555
C3ID C2E 1_555 1_555
H1ID C3ID 1_555 1_555
O2EG C1AC 1_555 1_555
C1AC C2AC 1_555 1_555
C2AC C3EG 1_555 1_555
C3EG C3E 1_555 1_555
H1EG C3EG 1_555 1_555
O2AC C1AC 1_555 1_555
C3AC C3ID 1_555 1_555
H1AC C3AC 1_555 1_555
O3YC C4S 1_555 1_555
C4S C5S 1_555 1_555
C5S C6YC 1_555 1_555
C6YC C6E 1_555 1_555
H2YC C6YC 1_555 1_555
O3ID Fe1 1_555 1_555
C6ID C5E 1_555 1_555
H2ID C6ID 1_555 1_555
O3S C4S 1_555 1_555
C6S C5S 1_555 1_555
H2S C6S 1_555 1_555
Fe1K O1 1_555 1_555
O2K Fe1K 1_555 1_555
O3K Fe1K 1_555 1_555
O4K C12K 1_555 1_555
O5K C12K 1_555 1_555
C1K O2K 1_555 1_555
C2K C1K 1_555 1_555
C3K C2K 1_555 1_555
H1K C3K 1_555 1_555
C4K O3K 1_555 1_555
C5K C4K 1_555 1_555
C6K C5K 1_555 1_555
H2K C6K 1_555 1_555
C7K C8K 1_555 1_555
C8K H3K 1_555 1_555
N1K Fe1K 1_555 1_555
C9K N1K 1_555 1_555
H4K C9K 1_555 1_555
C10K C9K 1_555 1_555
H5K C10K 1_555 1_555
C11K C7K 1_555 1_555
H6K C11K 1_555 1_555
C12K C7K 1_555 1_555
O2DD Fe1E 1_555 1_555
C3DD C2K 1_555 1_555
H1DD C3DD 1_555 1_555
O2DE C1GA 1_555 1_555
C1GA C2GA 1_555 1_555
C2GA C3DE 1_555 1_555
C3DE C3K 1_555 1_555
H1DE C3DE 1_555 1_555
O2GA C1GA 1_555 1_555
C3GA C3DD 1_555 1_555
H1GA C3GA 1_555 1_555
O3AD C4N 1_555 1_555
C4N C5N 1_555 1_555
C5N C6AD 1_555 1_555
C6AD C6K 1_555 1_555
H2AD C6AD 1_555 1_555
O3DD Fe1E 1_555 1_555
C6DD C5K 1_555 1_555
H2DD C6DD 1_555 1_555
O3N C4N 1_555 1_555
C6N C5N 1_555 1_555
H2N C6N 1_555 1_555
Fe1M O3YC 1_555 1_555
O1M Fe1M 1_555 1_555
O3M Fe1M 1_555 1_555
O4M Fe2E 1_555 1_555
O5M C12M 1_555 1_555
C4M O3M 1_555 1_555
C5M C4M 1_555 1_555
C6M C5M 1_555 1_555
H2M C6M 1_555 1_555
C7M C8M 1_555 1_555
C8M H3M 1_555 1_555
N1M Fe1M 1_555 1_555
C9M N1M 1_555 1_555
H4M C9M 1_555 1_555
C10M C9M 1_555 1_555
H5M C10M 1_555 1_555
C11M C7M 1_555 1_555
H6M C11M 1_555 1_555
C12M O4M 1_555 1_555
O3GD C4J 1_555 1_555
C4J C5J 1_555 1_555
C5J C6GD 1_555 1_555
C6GD C6M 1_555 1_555
H2GD C6GD 1_555 1_555
O3ZC C4M 1_555 1_555
C6ZC C5M 1_555 1_555
H2ZC C6ZC 1_555 1_555
O3J C4J 1_555 1_555
C6J C5J 1_555 1_555
H2J C6J 1_555 1_555
Fe1N O3N 1_555 1_555
O1N Fe1N 1_555 1_555
O4N Fe2E 1_555 1_555
O5N C12N 1_555 1_555
C7N C8N 1_555 1_555
C8N H3N 1_555 1_555
N1N Fe1N 1_555 1_555
C9N N1N 1_555 1_555
H4N C9N 1_555 1_555
C10N C9N 1_555 1_555
H5N C10N 1_555 1_555
C11N C7N 1_555 1_555
H6N C11N 1_555 1_555
C12N O4N 1_555 1_555
Fe1O O3XC 1_555 1_555
O4O Fe2D 1_555 1_555
O5O C12O 1_555 1_555
C7O C8O 1_555 1_555
C8O H3O 1_555 1_555
N1O Fe1O 1_555 1_555
C9O N1O 1_555 1_555
H4O C9O 1_555 1_555
C10O C9O 1_555 1_555
H5O C10O 1_555 1_555
C11O C7O 1_555 1_555
H6O C11O 1_555 1_555
C12O O4O 1_555 1_555
Fe1P O3TC 1_555 1_555
O4P Fe2 1_555 1_555
O5P C12P 1_555 1_555
C7P C8P 1_555 1_555
C8P H3P 1_555 1_555
N1P Fe1P 1_555 1_555
C9P N1P 1_555 1_555
H4P C9P 1_555 1_555
C10P C9P 1_555 1_555
H5P C10P 1_555 1_555
C11P C7P 1_555 1_555
H6P C11P 1_555 1_555
C12P O4P 1_555 1_555
Fe1S O3SC 1_555 1_555
O4S Fe2 1_555 1_555
O5S C12S 1_555 1_555
C7S C8S 1_555 1_555
C8S H3S 1_555 1_555
N1S Fe1S 1_555 1_555
C9S N1S 1_555 1_555
H4S C9S 1_555 1_555
C10S C9S 1_555 1_555
H5S C10S 1_555 1_555
C11S C7S 1_555 1_555
H6S C11S 1_555 1_555
C12S O4S 1_555 1_555
Fe1U O3U 1_555 1_555
O2U Fe1U 1_555 1_555
O4U C12U 1_555 1_555
O5U C12U 1_555 1_555
C1U O2U 1_555 1_555
C2U C1U 1_555 1_555
C3U C2U 1_555 1_555
H1U C3U 1_555 1_555
C7U C8U 1_555 1_555
C8U H3U 1_555 1_555
N1U Fe1U 1_555 1_555
C9U N1U 1_555 1_555
H4U C9U 1_555 1_555
C10U C9U 1_555 1_555
H5U C10U 1_555 1_555
C11U C7U 1_555 1_555
H6U C11U 1_555 1_555
C12U C7U 1_555 1_555
O2TC Fe1P 1_555 1_555
C3TC C2U 1_555 1_555
H1TC C3TC 1_555 1_555
O2NE C1SB 1_555 1_555
C1SB C2SB 1_555 1_555
C2SB C3NE 1_555 1_555
C3NE C3U 1_555 1_555
H1NE C3NE 1_555 1_555
O2SB C1SB 1_555 1_555
C3SB C3TC 1_555 1_555
H1SB C3SB 1_555 1_555
Fe1V O3AD 1_555 1_555
O4V C12V 1_555 1_555
O5V C12V 1_555 1_555
C7V C8V 1_555 1_555
C8V H3V 1_555 1_555
N1V Fe1V 1_555 1_555
C9V N1V 1_555 1_555
H4V C9V 1_555 1_555
C10V C9V 1_555 1_555
H5V C10V 1_555 1_555
C11V C7V 1_555 1_555
H6V C11V 1_555 1_555
C12V C7V 1_555 1_555
O2C Fe1C 1_555 1_555
C1C O2C 1_555 1_555
C2C C1C 1_555 1_555
C3C C2C 1_555 1_555
H1C C3C 1_555 1_555
O2ND C1C 1_555 1_555
C3ND C2C 1_555 1_555
H1ND C3ND 1_555 1_555
O2HF C1WA 1_555 1_555
C1WA C2WA 1_555 1_555
C2WA C3HF 1_555 1_555
C3HF C3C 1_555 1_555
H1HF C3HF 1_555 1_555
O2WA C1WA 1_555 1_555
C3WA C3ND 1_555 1_555
H1WA C3WA 1_555 1_555
Fe1F O3GD 1_555 1_555
Fe1I O1C 1_555 1_555
Fe1J O3J 1_555 1_555
Fe1R O1N 1_555 1_555
Fe1T O3T 1_555 1_555
Fe1BA O2DE 1_555 1_555
Fe1GA O2GA 1_555 1_555
Fe1WA O2WA 1_555 1_555
Fe1XA O2XA 1_555 1_555
Fe1DB O2HF 1_555 1_555
Fe1FB O2IF 1_555 1_555
Fe1MB O2NE 1_555 1_555
Fe1SB O2SB 1_555 1_555
Fe1UB O2EG 1_555 1_555
Fe1VB O2BG 1_555 1_555
Fe1ZB O2ZB 1_555 1_555
Fe1AC O2AC 1_555 1_555
Fe2H O4K 1_555 1_555
O1O Fe1O 1_555 1_555
O2M Fe1M 1_555 1_555
O2N Fe1N 1_555 1_555
O2O Fe1O 1_555 1_555
O2P Fe1P 1_555 1_555
O2S Fe1S 1_555 1_555
O2V Fe1V 1_555 1_555
O2SC Fe1S 1_555 1_555
O2VC Fe1N 1_555 1_555
O2XC Fe1O 1_555 1_555
O2YC Fe1M 1_555 1_555
O2AD Fe1V 1_555 1_555
O2BD Fe1U 1_555 1_555
O2FD Fe1D 1_555 1_555
O3O Fe1O 1_555 1_555
O3V Fe1V 1_555 1_555
O3VC Fe1N 1_555 1_555
O3BD Fe1U 1_555 1_555
O3FD Fe1D 1_555 1_555
O4F Fe2E 1_555 1_555
O4G Fe2D 1_555 1_555
O4L Fe2D 1_555 1_555
C8 N1 1_555 1_555
C10 C11 1_555 1_555
O2OD Fe1K 1_555 1_555
C2XA C3XA 1_555 1_555
O3OD Fe1K 1_555 1_555
C6OD C6U 1_555 1_555
C7C C12C 1_555 1_555
C8C N1C 1_555 1_555
C10C C11C 1_555 1_555
O3ND Fe1I 1_555 1_555
C6ND C6T 1_555 1_555
C1D O2JD 1_555 1_555
C4D O3JD 1_555 1_555
C8D N1D 1_555 1_555
C10D C11D 1_555 1_555
C2ZB C3ZB 1_555 1_555
C6JD C6P 1_555 1_555
O3P Fe1P 1_555 1_555
C1E O2ID 1_555 1_555
C4E O3ID 1_555 1_555
C8E N1E 1_555 1_555
C10E C11E 1_555 1_555
C2AC C3AC 1_555 1_555
C6ID C6S 1_555 1_555
O3S Fe1S 1_555 1_555
C1K O2DD 1_555 1_555
C4K O3DD 1_555 1_555
C8K N1K 1_555 1_555
C10K C11K 1_555 1_555
C2GA C3GA 1_555 1_555
C6DD C6N 1_555 1_555
O1M Fe1S 1_555 1_555
O1M Fe1T 1_555 1_555
C7M C12M 1_555 1_555
C8M N1M 1_555 1_555
C10M C11M 1_555 1_555
O3ZC Fe1T 1_555 1_555
C6ZC C6J 1_555 1_555
O1N Fe1V 1_555 1_555
C7N C12N 1_555 1_555
C8N N1N 1_555 1_555
C10N C11N 1_555 1_555
C7O C12O 1_555 1_555
C8O N1O 1_555 1_555
C10O C11O 1_555 1_555
Fe1P O1O 1_555 1_555
C7P C12P 1_555 1_555
C8P N1P 1_555 1_555
C10P C11P 1_555 1_555
C7S C12S 1_555 1_555
C8S N1S 1_555 1_555
C10S C11S 1_555 1_555
Fe1U O1O 1_555 1_555
O4U Fe2H 1_555 1_555
C1U O2TC 1_555 1_555
C8U N1U 1_555 1_555
C10U C11U 1_555 1_555
C2SB C3SB 1_555 1_555
O4V Fe2H 1_555 1_555
C8V N1V 1_555 1_555
C10V C11V 1_555 1_555
O2ND Fe1I 1_555 1_555
C2WA C3WA 1_555 1_555

#END
