
#######################################################################
#
#                 Cambridge Crystallographic Data Centre
#                                CCDC 
#
#######################################################################
#
# If this CIF has been generated from an entry in the Cambridge 
# Structural Database, then it will include bibliographic, chemical, 
# crystal, experimental, refinement or atomic coordinate data resulting 
# from the CCDC's data processing and validation procedures.
#
#######################################################################

data_DUSHEG
_chemical_formula_moiety         '(C168 H112 N12 Ni18 O82)n'
_symmetry_cell_setting           cubic
_symmetry_space_group_name_H-M   'F m -3 m'
_symmetry_Int_Tables_number      225
_space_group_name_Hall           '-F 4 2 3'
loop_
_symmetry_equiv_pos_site_id
_symmetry_equiv_pos_as_xyz
1 x,y,z
2 -y,x,z
3 -x,-y,z
4 y,-x,z
5 x,-z,y
6 x,-y,-z
7 x,z,-y
8 z,y,-x
9 -x,y,-z
10 -z,y,x
11 z,x,y
12 y,z,x
13 -y,-z,x
14 z,-x,-y
15 -y,z,-x
16 -z,-x,y
17 -z,x,-y
18 y,-z,-x
19 y,x,-z
20 -y,-x,-z
21 -x,z,y
22 -x,-z,-y
23 z,-y,x
24 -z,-y,-x
25 x,1/2+y,1/2+z
26 -y,1/2+x,1/2+z
27 -x,1/2-y,1/2+z
28 y,1/2-x,1/2+z
29 x,1/2-z,1/2+y
30 x,1/2-y,1/2-z
31 x,1/2+z,1/2-y
32 z,1/2+y,1/2-x
33 -x,1/2+y,1/2-z
34 -z,1/2+y,1/2+x
35 z,1/2+x,1/2+y
36 y,1/2+z,1/2+x
37 -y,1/2-z,1/2+x
38 z,1/2-x,1/2-y
39 -y,1/2+z,1/2-x
40 -z,1/2-x,1/2+y
41 -z,1/2+x,1/2-y
42 y,1/2-z,1/2-x
43 y,1/2+x,1/2-z
44 -y,1/2-x,1/2-z
45 -x,1/2+z,1/2+y
46 -x,1/2-z,1/2-y
47 z,1/2-y,1/2+x
48 -z,1/2-y,1/2-x
49 1/2+x,y,1/2+z
50 1/2-y,x,1/2+z
51 1/2-x,-y,1/2+z
52 1/2+y,-x,1/2+z
53 1/2+x,-z,1/2+y
54 1/2+x,-y,1/2-z
55 1/2+x,z,1/2-y
56 1/2+z,y,1/2-x
57 1/2-x,y,1/2-z
58 1/2-z,y,1/2+x
59 1/2+z,x,1/2+y
60 1/2+y,z,1/2+x
61 1/2-y,-z,1/2+x
62 1/2+z,-x,1/2-y
63 1/2-y,z,1/2-x
64 1/2-z,-x,1/2+y
65 1/2-z,x,1/2-y
66 1/2+y,-z,1/2-x
67 1/2+y,x,1/2-z
68 1/2-y,-x,1/2-z
69 1/2-x,z,1/2+y
70 1/2-x,-z,1/2-y
71 1/2+z,-y,1/2+x
72 1/2-z,-y,1/2-x
73 1/2+x,1/2+y,z
74 1/2-y,1/2+x,z
75 1/2-x,1/2-y,z
76 1/2+y,1/2-x,z
77 1/2+x,1/2-z,y
78 1/2+x,1/2-y,-z
79 1/2+x,1/2+z,-y
80 1/2+z,1/2+y,-x
81 1/2-x,1/2+y,-z
82 1/2-z,1/2+y,x
83 1/2+z,1/2+x,y
84 1/2+y,1/2+z,x
85 1/2-y,1/2-z,x
86 1/2+z,1/2-x,-y
87 1/2-y,1/2+z,-x
88 1/2-z,1/2-x,y
89 1/2-z,1/2+x,-y
90 1/2+y,1/2-z,-x
91 1/2+y,1/2+x,-z
92 1/2-y,1/2-x,-z
93 1/2-x,1/2+z,y
94 1/2-x,1/2-z,-y
95 1/2+z,1/2-y,x
96 1/2-z,1/2-y,-x
97 -x,-y,-z
98 y,-x,-z
99 x,y,-z
100 -y,x,-z
101 -x,z,-y
102 -x,y,z
103 -x,-z,y
104 -z,-y,x
105 x,-y,z
106 z,-y,-x
107 -z,-x,-y
108 -y,-z,-x
109 y,z,-x
110 -z,x,y
111 y,-z,x
112 z,x,-y
113 z,-x,y
114 -y,z,x
115 -y,-x,z
116 y,x,z
117 x,-z,-y
118 x,z,y
119 -z,y,-x
120 z,y,x
121 -x,1/2-y,1/2-z
122 y,1/2-x,1/2-z
123 x,1/2+y,1/2-z
124 -y,1/2+x,1/2-z
125 -x,1/2+z,1/2-y
126 -x,1/2+y,1/2+z
127 -x,1/2-z,1/2+y
128 -z,1/2-y,1/2+x
129 x,1/2-y,1/2+z
130 z,1/2-y,1/2-x
131 -z,1/2-x,1/2-y
132 -y,1/2-z,1/2-x
133 y,1/2+z,1/2-x
134 -z,1/2+x,1/2+y
135 y,1/2-z,1/2+x
136 z,1/2+x,1/2-y
137 z,1/2-x,1/2+y
138 -y,1/2+z,1/2+x
139 -y,1/2-x,1/2+z
140 y,1/2+x,1/2+z
141 x,1/2-z,1/2-y
142 x,1/2+z,1/2+y
143 -z,1/2+y,1/2-x
144 z,1/2+y,1/2+x
145 1/2-x,-y,1/2-z
146 1/2+y,-x,1/2-z
147 1/2+x,y,1/2-z
148 1/2-y,x,1/2-z
149 1/2-x,z,1/2-y
150 1/2-x,y,1/2+z
151 1/2-x,-z,1/2+y
152 1/2-z,-y,1/2+x
153 1/2+x,-y,1/2+z
154 1/2+z,-y,1/2-x
155 1/2-z,-x,1/2-y
156 1/2-y,-z,1/2-x
157 1/2+y,z,1/2-x
158 1/2-z,x,1/2+y
159 1/2+y,-z,1/2+x
160 1/2+z,x,1/2-y
161 1/2+z,-x,1/2+y
162 1/2-y,z,1/2+x
163 1/2-y,-x,1/2+z
164 1/2+y,x,1/2+z
165 1/2+x,-z,1/2-y
166 1/2+x,z,1/2+y
167 1/2-z,y,1/2-x
168 1/2+z,y,1/2+x
169 1/2-x,1/2-y,-z
170 1/2+y,1/2-x,-z
171 1/2+x,1/2+y,-z
172 1/2-y,1/2+x,-z
173 1/2-x,1/2+z,-y
174 1/2-x,1/2+y,z
175 1/2-x,1/2-z,y
176 1/2-z,1/2-y,x
177 1/2+x,1/2-y,z
178 1/2+z,1/2-y,-x
179 1/2-z,1/2-x,-y
180 1/2-y,1/2-z,-x
181 1/2+y,1/2+z,-x
182 1/2-z,1/2+x,y
183 1/2+y,1/2-z,x
184 1/2+z,1/2+x,-y
185 1/2+z,1/2-x,y
186 1/2-y,1/2+z,x
187 1/2-y,1/2-x,z
188 1/2+y,1/2+x,z
189 1/2+x,1/2-z,-y
190 1/2+x,1/2+z,y
191 1/2-z,1/2+y,-x
192 1/2+z,1/2+y,x
_cell_length_a                   41.286(2)
_cell_length_b                   41.286(2)
_cell_length_c                   41.286(2)
_cell_angle_alpha                90
_cell_angle_beta                 90
_cell_angle_gamma                90
_cell_volume                     70373.4
loop_
_atom_site_label
_atom_site_type_symbol
_atom_site_fract_x
_atom_site_fract_y
_atom_site_fract_z
_atom_site_U_iso_or_equiv
_atom_site_thermal_displace_type
Ni1 Ni 0.68739(2) 0.37177(2) 0.62823(2) 0.0154 Uani
Ni2 Ni 0.78434(3) 0.5000 0.5000 0.0271 Uani
Ni3 Ni 0.72018(3) 0.5000 0.5000 0.0259 Uani
O1 O 0.64859(5) 0.35141(5) 0.64859(5) 0.0112 Uani
O2 O 0.7120(2) 0.37077(18) 0.6708(2) 0.0263 Uani
O3 O 0.6660(3) 0.4168(3) 0.6274(2) 0.0257 Uani
O4 O 0.72532(8) 0.46517(5) 0.53483(5) 0.0386 Uani
O5 O 0.77923(9) 0.46604(6) 0.53396(6) 0.0557 Uani
O6 O 0.8329(2) 0.5000 0.5000 0.0677 Uani
O7 O 0.6716(2) 0.5000 0.5000 0.0710 Uani
N1 N 0.72897(8) 0.39302(5) 0.60698(5) 0.0264 Uani
C1 C 0.70016(6) 0.37718(10) 0.70016(6) 0.0275 Uani
C2 C 0.72615(6) 0.37849(11) 0.72615(6) 0.0309 Uani
C3 C 0.75862(8) 0.37862(10) 0.71783(7) 0.0423 Uani
H1 H 0.7646 0.3787 0.6959 0.0510 Uiso
C4 C 0.64891(7) 0.42999(8) 0.64891(7) 0.0244 Uani
C5 C 0.64685(9) 0.46627(9) 0.64685(9) 0.0322 Uani
C6 C 0.66653(9) 0.48333(7) 0.62560(9) 0.0466 Uani
H2 H 0.6800 0.4720 0.6111 0.0560 Uiso
C7 C 0.75831(11) 0.38323(8) 0.61677(8) 0.0391 Uani
H3 H 0.7597 0.3672 0.6328 0.0470 Uiso
C8 C 0.78673(12) 0.39579(9) 0.60421(9) 0.0570 Uani
H4 H 0.8070 0.3885 0.6115 0.0680 Uiso
C9 C 0.78449(11) 0.41949(9) 0.58051(9) 0.0503 Uani
H5 H 0.8034 0.4284 0.5716 0.0600 Uiso
C10 C 0.75456(11) 0.43004(7) 0.56996(7) 0.0335 Uani
C11 C 0.72732(9) 0.41612(7) 0.58388(7) 0.0269 Uani
H6 H 0.7068 0.4231 0.5769 0.0320 Uiso
C12 C 0.75247(11) 0.45572(7) 0.54428(7) 0.0345 Uani
H7 H 0.6624 0.3376 0.6624 0.0170 Uiso
O2OD O 0.6708(2) 0.37077(18) 0.7120(2) 0.0263 Uani
C3OD C 0.71783(7) 0.37862(10) 0.75862(8) 0.0423 Uani
H1OD H 0.6959 0.3787 0.7646 0.0510 Uiso
O2JF O 0.8292(2) 0.37077(18) 0.7880(2) 0.0263 Uani
C1DB C 0.79984(6) 0.37718(10) 0.79984(6) 0.0275 Uani
C2DB C 0.77385(6) 0.37849(11) 0.77385(6) 0.0309 Uani
C3JF C 0.78217(7) 0.37862(10) 0.74138(8) 0.0423 Uani
H1JF H 0.8041 0.3787 0.7354 0.0510 Uiso
O2DB O 0.7880(2) 0.37077(18) 0.8292(2) 0.0263 Uani
C3DB C 0.74138(8) 0.37862(10) 0.78217(7) 0.0423 Uani
H1DB H 0.7354 0.3787 0.8041 0.0510 Uiso
O3ZC O 0.6660(3) 0.5832(3) 0.6274(2) 0.0257 Uani
C4V C 0.64891(7) 0.57001(8) 0.64891(7) 0.0244 Uani
C5V C 0.64685(9) 0.53373(9) 0.64685(9) 0.0322 Uani
C6ZC C 0.66653(9) 0.51667(7) 0.62560(9) 0.0466 Uani
H2ZC H 0.6800 0.5280 0.6111 0.0560 Uiso
O3OD O 0.6274(2) 0.4168(3) 0.6660(3) 0.0257 Uani
C6OD C 0.62560(9) 0.48333(7) 0.66653(9) 0.0466 Uani
H2OD H 0.6111 0.4720 0.6800 0.0560 Uiso
O3V O 0.6274(2) 0.5832(3) 0.6660(3) 0.0257 Uani
C6V C 0.62560(9) 0.51667(7) 0.66653(9) 0.0466 Uani
H2V H 0.6111 0.5280 0.6800 0.0560 Uiso
Ni1D Ni 0.68739(2) 0.37177(2) 0.37177(2) 0.0154 Uani
O1D O 0.64859(5) 0.35141(5) 0.35141(5) 0.0112 Uani
O3D O 0.6660(3) 0.3726(2) 0.4168(3) 0.0257 Uani
O4D O 0.72532(8) 0.46517(5) 0.46517(5) 0.0386 Uani
O5D O 0.77923(9) 0.46604(6) 0.46604(6) 0.0557 Uani
N1D N 0.72897(8) 0.39302(5) 0.39302(5) 0.0264 Uani
C4D C 0.64891(7) 0.35109(7) 0.42999(8) 0.0244 Uani
C5D C 0.64685(9) 0.35315(9) 0.46627(9) 0.0322 Uani
C6D C 0.66653(9) 0.37440(9) 0.48333(7) 0.0466 Uani
H2D H 0.6800 0.3889 0.4720 0.0560 Uiso
C7D C 0.75831(11) 0.38323(8) 0.38323(8) 0.0391 Uani
H3D H 0.7597 0.3672 0.3672 0.0470 Uiso
C8D C 0.78673(12) 0.39579(9) 0.39579(9) 0.0570 Uani
H4D H 0.8070 0.3885 0.3885 0.0680 Uiso
C9D C 0.78449(11) 0.41949(9) 0.41949(9) 0.0503 Uani
H5D H 0.8034 0.4284 0.4284 0.0600 Uiso
C10D C 0.75456(11) 0.43004(7) 0.43004(7) 0.0335 Uani
C11D C 0.72732(9) 0.41612(7) 0.41612(7) 0.0269 Uani
H6D H 0.7068 0.4231 0.4231 0.0320 Uiso
C12D C 0.75247(11) 0.45572(7) 0.45572(7) 0.0345 Uani
H7D H 0.6624 0.3376 0.3376 0.0170 Uiso
O3LD O 0.6660(3) 0.3726(2) 0.5832(3) 0.0257 Uani
C4M C 0.64891(7) 0.35109(7) 0.57001(8) 0.0244 Uani
C5M C 0.64685(9) 0.35315(9) 0.53373(9) 0.0322 Uani
C6LD C 0.66653(9) 0.37440(9) 0.51667(7) 0.0466 Uani
H2LD H 0.6800 0.3889 0.5280 0.0560 Uiso
O3HD O 0.6274(2) 0.3340(3) 0.4168(3) 0.0257 Uani
C6HD C 0.62560(9) 0.33347(9) 0.48333(7) 0.0466 Uani
H2HD H 0.6111 0.3200 0.4720 0.0560 Uiso
O3M O 0.6274(2) 0.3340(3) 0.5832(3) 0.0257 Uani
C6M C 0.62560(9) 0.33347(9) 0.51667(7) 0.0466 Uani
H2M H 0.6111 0.3200 0.5280 0.0560 Uiso
Ni1E Ni 0.68739(2) 0.62823(2) 0.37177(2) 0.0154 Uani
O1E O 0.64859(5) 0.64859(5) 0.35141(5) 0.0112 Uani
O3E O 0.6660(3) 0.5832(3) 0.3726(2) 0.0257 Uani
O4E O 0.72532(8) 0.53483(5) 0.46517(5) 0.0386 Uani
O5E O 0.77923(9) 0.53396(6) 0.46604(6) 0.0557 Uani
N1E N 0.72897(8) 0.60698(5) 0.39302(5) 0.0264 Uani
C4E C 0.64891(7) 0.57001(8) 0.35109(7) 0.0244 Uani
C5E C 0.64685(9) 0.53373(9) 0.35315(9) 0.0322 Uani
C6E C 0.66653(9) 0.51667(7) 0.37440(9) 0.0466 Uani
H2E H 0.6800 0.5280 0.3889 0.0560 Uiso
C7E C 0.75831(11) 0.61677(8) 0.38323(8) 0.0391 Uani
H3E H 0.7597 0.6328 0.3672 0.0470 Uiso
C8E C 0.78673(12) 0.60421(9) 0.39579(9) 0.0570 Uani
H4E H 0.8070 0.6115 0.3885 0.0680 Uiso
C9E C 0.78449(11) 0.58051(9) 0.41949(9) 0.0503 Uani
H5E H 0.8034 0.5716 0.4284 0.0600 Uiso
C10E C 0.75456(11) 0.56996(7) 0.43004(7) 0.0335 Uani
C11E C 0.72732(9) 0.58388(7) 0.41612(7) 0.0269 Uani
H6E H 0.7068 0.5769 0.4231 0.0320 Uiso
C12E C 0.75247(11) 0.54428(7) 0.45572(7) 0.0345 Uani
H7E H 0.6624 0.6624 0.3376 0.0170 Uiso
O3TC O 0.6660(3) 0.4168(3) 0.3726(2) 0.0257 Uani
C4G C 0.64891(7) 0.42999(8) 0.35109(7) 0.0244 Uani
C5G C 0.64685(9) 0.46627(9) 0.35315(9) 0.0322 Uani
C6TC C 0.66653(9) 0.48333(7) 0.37440(9) 0.0466 Uani
H2TC H 0.6800 0.4720 0.3889 0.0560 Uiso
O3AD O 0.6274(2) 0.5832(3) 0.3340(3) 0.0257 Uani
C6AD C 0.62560(9) 0.51667(7) 0.33347(9) 0.0466 Uani
H2AD H 0.6111 0.5280 0.3200 0.0560 Uiso
O3G O 0.6274(2) 0.4168(3) 0.3340(3) 0.0257 Uani
C6G C 0.62560(9) 0.48333(7) 0.33347(9) 0.0466 Uani
H2G H 0.6111 0.4720 0.3200 0.0560 Uiso
Ni1F Ni 0.68739(2) 0.62823(2) 0.62823(2) 0.0154 Uani
O1A O 0.64859(5) 0.64859(5) 0.64859(5) 0.0112 Uani
O3F O 0.6660(3) 0.6274(2) 0.5832(3) 0.0257 Uani
O4F O 0.72532(8) 0.53483(5) 0.53483(5) 0.0386 Uani
O5F O 0.77923(9) 0.53396(6) 0.53396(6) 0.0557 Uani
N1F N 0.72897(8) 0.60698(5) 0.60698(5) 0.0264 Uani
C4F C 0.64891(7) 0.64891(7) 0.57001(8) 0.0244 Uani
C5F C 0.64685(9) 0.64685(9) 0.53373(9) 0.0322 Uani
C6F C 0.66653(9) 0.62560(9) 0.51667(7) 0.0466 Uani
H2F H 0.6800 0.6111 0.5280 0.0560 Uiso
C7F C 0.75831(11) 0.61677(8) 0.61677(8) 0.0391 Uani
H3F H 0.7597 0.6328 0.6328 0.0470 Uiso
C8F C 0.78673(12) 0.60421(9) 0.60421(9) 0.0570 Uani
H4F H 0.8070 0.6115 0.6115 0.0680 Uiso
C9F C 0.78449(11) 0.58051(9) 0.58051(9) 0.0503 Uani
H5F H 0.8034 0.5716 0.5716 0.0600 Uiso
C10F C 0.75456(11) 0.56996(7) 0.56996(7) 0.0335 Uani
C11F C 0.72732(9) 0.58388(7) 0.58388(7) 0.0269 Uani
H6F H 0.7068 0.5769 0.5769 0.0320 Uiso
C12F C 0.75247(11) 0.54428(7) 0.54428(7) 0.0345 Uani
H7A H 0.6624 0.6624 0.6624 0.0170 Uiso
O3MD O 0.6660(3) 0.6274(2) 0.4168(3) 0.0257 Uani
C4J C 0.64891(7) 0.64891(7) 0.42999(8) 0.0244 Uani
C5J C 0.64685(9) 0.64685(9) 0.46627(9) 0.0322 Uani
C6MD C 0.66653(9) 0.62560(9) 0.48333(7) 0.0466 Uani
H2MD H 0.6800 0.6111 0.4720 0.0560 Uiso
O3GD O 0.6274(2) 0.6660(3) 0.5832(3) 0.0257 Uani
C6GD C 0.62560(9) 0.66653(9) 0.51667(7) 0.0466 Uani
H2GD H 0.6111 0.6800 0.5280 0.0560 Uiso
O3J O 0.6274(2) 0.6660(3) 0.4168(3) 0.0257 Uani
C6J C 0.62560(9) 0.66653(9) 0.48333(7) 0.0466 Uani
H2J H 0.6111 0.6800 0.4720 0.0560 Uiso
Ni1J Ni 0.62823(2) 0.68739(2) 0.37177(2) 0.0154 Uani
Ni2A Ni 0.5000 0.78434(3) 0.5000 0.0271 Uani
Ni3A Ni 0.5000 0.72018(3) 0.5000 0.0259 Uani
O2J O 0.6708(2) 0.7120(2) 0.37077(18) 0.0263 Uani
O4J O 0.53483(5) 0.72532(8) 0.46517(5) 0.0386 Uani
O5J O 0.53396(6) 0.77923(9) 0.46604(6) 0.0557 Uani
O6A O 0.5000 0.8329(2) 0.5000 0.0677 Uani
O7A O 0.5000 0.6716(2) 0.5000 0.0710 Uani
N1J N 0.60698(5) 0.72897(8) 0.39302(5) 0.0264 Uani
C1J C 0.70016(6) 0.70016(6) 0.37718(10) 0.0275 Uani
C2J C 0.72615(6) 0.72615(6) 0.37849(11) 0.0309 Uani
C3J C 0.71783(7) 0.75862(8) 0.37862(10) 0.0423 Uani
H1J H 0.6959 0.7646 0.3787 0.0510 Uiso
C7J C 0.61677(8) 0.75831(11) 0.38323(8) 0.0391 Uani
H3J H 0.6328 0.7597 0.3672 0.0470 Uiso
C8J C 0.60421(9) 0.78673(12) 0.39579(9) 0.0570 Uani
H4J H 0.6115 0.8070 0.3885 0.0680 Uiso
C9J C 0.58051(9) 0.78449(11) 0.41949(9) 0.0503 Uani
H5J H 0.5716 0.8034 0.4284 0.0600 Uiso
C10J C 0.56996(7) 0.75456(11) 0.43004(7) 0.0335 Uani
C11J C 0.58388(7) 0.72732(9) 0.41612(7) 0.0269 Uani
H6J H 0.5769 0.7068 0.4231 0.0320 Uiso
C12J C 0.54428(7) 0.75247(11) 0.45572(7) 0.0345 Uani
O2MD O 0.7120(2) 0.6708(2) 0.37077(18) 0.0263 Uani
C3MD C 0.75862(8) 0.71783(7) 0.37862(10) 0.0423 Uani
H1MD H 0.7646 0.6959 0.3787 0.0510 Uiso
O2RF O 0.7880(2) 0.8292(2) 0.37077(18) 0.0263 Uani
C1IC C 0.79984(6) 0.79984(6) 0.37718(10) 0.0275 Uani
C2IC C 0.77385(6) 0.77385(6) 0.37849(11) 0.0309 Uani
C3RF C 0.74138(8) 0.78217(7) 0.37862(10) 0.0423 Uani
H1RF H 0.7354 0.8041 0.3787 0.0510 Uiso
O2IC O 0.8292(2) 0.7880(2) 0.37077(18) 0.0263 Uani
C3IC C 0.78217(7) 0.74138(8) 0.37862(10) 0.0423 Uani
H1IC H 0.8041 0.7354 0.3787 0.0510 Uiso
Ni1L Ni 0.62823(2) 0.37177(2) 0.68739(2) 0.0154 Uani
Ni2I Ni 0.5000 0.5000 0.78434(3) 0.0271 Uani
Ni3I Ni 0.5000 0.5000 0.72018(3) 0.0259 Uani
O2L O 0.62923(18) 0.3292(2) 0.7120(2) 0.0263 Uani
O3L O 0.5832(3) 0.3726(2) 0.6660(3) 0.0257 Uani
O4L O 0.53483(5) 0.46517(5) 0.72532(8) 0.0386 Uani
O5L O 0.53396(6) 0.46604(6) 0.77923(9) 0.0557 Uani
O6I O 0.5000 0.5000 0.8329(2) 0.0677 Uani
O7I O 0.5000 0.5000 0.6716(2) 0.0710 Uani
N1L N 0.60698(5) 0.39302(5) 0.72897(8) 0.0264 Uani
C1L C 0.62282(10) 0.29984(6) 0.70016(6) 0.0275 Uani
C2L C 0.62151(11) 0.27385(6) 0.72615(6) 0.0309 Uani
C3L C 0.62138(10) 0.28217(7) 0.75862(8) 0.0423 Uani
H1L H 0.6213 0.3041 0.7646 0.0510 Uiso
C4L C 0.57001(8) 0.35109(7) 0.64891(7) 0.0244 Uani
C5L C 0.53373(9) 0.35315(9) 0.64685(9) 0.0322 Uani
C6L C 0.51667(7) 0.37440(9) 0.66653(9) 0.0466 Uani
H2L H 0.5280 0.3889 0.6800 0.0560 Uiso
C7L C 0.61677(8) 0.38323(8) 0.75831(11) 0.0391 Uani
H3L H 0.6328 0.3672 0.7597 0.0470 Uiso
C8L C 0.60421(9) 0.39579(9) 0.78673(12) 0.0570 Uani
H4L H 0.6115 0.3885 0.8070 0.0680 Uiso
C9L C 0.58051(9) 0.41949(9) 0.78449(11) 0.0503 Uani
H5L H 0.5716 0.4284 0.8034 0.0600 Uiso
C10L C 0.56996(7) 0.43004(7) 0.75456(11) 0.0335 Uani
C11L C 0.58388(7) 0.41612(7) 0.72732(9) 0.0269 Uani
H6L H 0.5769 0.4231 0.7068 0.0320 Uiso
C12L C 0.54428(7) 0.45572(7) 0.75247(11) 0.0345 Uani
O2JD O 0.62923(18) 0.2880(2) 0.6708(2) 0.0263 Uani
C3JD C 0.62138(10) 0.24138(8) 0.71783(7) 0.0423 Uani
H1JD H 0.6213 0.2354 0.6959 0.0510 Uiso
O2SD O 0.62923(18) 0.2120(2) 0.8292(2) 0.0263 Uani
C1LA C 0.62282(10) 0.20016(6) 0.79984(6) 0.0275 Uani
C2LA C 0.62151(11) 0.22615(6) 0.77385(6) 0.0309 Uani
C3SD C 0.62138(10) 0.25862(8) 0.78217(7) 0.0423 Uani
H1SD H 0.6213 0.2646 0.8041 0.0510 Uiso
O2LA O 0.62923(18) 0.1708(2) 0.7880(2) 0.0263 Uani
C3LA C 0.62138(10) 0.21783(7) 0.74138(8) 0.0423 Uani
H1LA H 0.6213 0.1959 0.7354 0.0510 Uiso
O3FD O 0.4168(3) 0.3726(2) 0.6660(3) 0.0257 Uani
C4C C 0.42999(8) 0.35109(7) 0.64891(7) 0.0244 Uani
C5C C 0.46627(9) 0.35315(9) 0.64685(9) 0.0322 Uani
C6FD C 0.48333(7) 0.37440(9) 0.66653(9) 0.0466 Uani
H2FD H 0.4720 0.3889 0.6800 0.0560 Uiso
O3JD O 0.5832(3) 0.3340(3) 0.6274(2) 0.0257 Uani
C6JD C 0.51667(7) 0.33347(9) 0.62560(9) 0.0466 Uani
H2JD H 0.5280 0.3200 0.6111 0.0560 Uiso
O3C O 0.4168(3) 0.3340(3) 0.6274(2) 0.0257 Uani
C6C C 0.48333(7) 0.33347(9) 0.62560(9) 0.0466 Uani
H2C H 0.4720 0.3200 0.6111 0.0560 Uiso
Ni1M Ni 0.62823(2) 0.31261(2) 0.62823(2) 0.0154 Uani
O2M O 0.6708(2) 0.2880(2) 0.62923(18) 0.0263 Uani
O4M O 0.53483(5) 0.27468(8) 0.53483(5) 0.0386 Uani
O5M O 0.53396(6) 0.22077(9) 0.53396(6) 0.0557 Uani
N1M N 0.60698(5) 0.27103(8) 0.60698(5) 0.0264 Uani
C1M C 0.70016(6) 0.29984(6) 0.62282(10) 0.0275 Uani
C2M C 0.72615(6) 0.27385(6) 0.62151(11) 0.0309 Uani
C3M C 0.71783(7) 0.24138(8) 0.62138(10) 0.0423 Uani
H1M H 0.6959 0.2354 0.6213 0.0510 Uiso
C7M C 0.61677(8) 0.24169(11) 0.61677(8) 0.0391 Uani
H3M H 0.6328 0.2403 0.6328 0.0470 Uiso
C8M C 0.60421(9) 0.21327(12) 0.60421(9) 0.0570 Uani
H4M H 0.6115 0.1930 0.6115 0.0680 Uiso
C9M C 0.58051(9) 0.21551(11) 0.58051(9) 0.0503 Uani
H5M H 0.5716 0.1966 0.5716 0.0600 Uiso
C10M C 0.56996(7) 0.24544(11) 0.56996(7) 0.0335 Uani
C11M C 0.58388(7) 0.27268(9) 0.58388(7) 0.0269 Uani
H6M H 0.5769 0.2932 0.5769 0.0320 Uiso
C12M C 0.54428(7) 0.24753(11) 0.54428(7) 0.0345 Uani
O2LD O 0.7120(2) 0.3292(2) 0.62923(18) 0.0263 Uani
C3LD C 0.75862(8) 0.28217(7) 0.62138(10) 0.0423 Uani
H1LD H 0.7646 0.3041 0.6213 0.0510 Uiso
O2PF O 0.7880(2) 0.1708(2) 0.62923(18) 0.0263 Uani
C1JC C 0.79984(6) 0.20016(6) 0.62282(10) 0.0275 Uani
C2JC C 0.77385(6) 0.22615(6) 0.62151(11) 0.0309 Uani
C3PF C 0.74138(8) 0.21783(7) 0.62138(10) 0.0423 Uani
H1PF H 0.7354 0.1959 0.6213 0.0510 Uiso
O2JC O 0.8292(2) 0.2120(2) 0.62923(18) 0.0263 Uani
C3JC C 0.78217(7) 0.25862(8) 0.62138(10) 0.0423 Uani
H1JC H 0.8041 0.2646 0.6213 0.0510 Uiso
Ni1V Ni 0.62823(2) 0.62823(2) 0.68739(2) 0.0154 Uani
O2V O 0.6708(2) 0.62923(18) 0.7120(2) 0.0263 Uani
O4V O 0.53483(5) 0.53483(5) 0.72532(8) 0.0386 Uani
O5V O 0.53396(6) 0.53396(6) 0.77923(9) 0.0557 Uani
N1V N 0.60698(5) 0.60698(5) 0.72897(8) 0.0264 Uani
C1V C 0.70016(6) 0.62282(10) 0.70016(6) 0.0275 Uani
C2V C 0.72615(6) 0.62151(11) 0.72615(6) 0.0309 Uani
C3V C 0.71783(7) 0.62138(10) 0.75862(8) 0.0423 Uani
H1V H 0.6959 0.6213 0.7646 0.0510 Uiso
C7V C 0.61677(8) 0.61677(8) 0.75831(11) 0.0391 Uani
H3V H 0.6328 0.6328 0.7597 0.0470 Uiso
C8V C 0.60421(9) 0.60421(9) 0.78673(12) 0.0570 Uani
H4V H 0.6115 0.6115 0.8070 0.0680 Uiso
C9V C 0.58051(9) 0.58051(9) 0.78449(11) 0.0503 Uani
H5V H 0.5716 0.5716 0.8034 0.0600 Uiso
C10V C 0.56996(7) 0.56996(7) 0.75456(11) 0.0335 Uani
C11V C 0.58388(7) 0.58388(7) 0.72732(9) 0.0269 Uani
H6V H 0.5769 0.5769 0.7068 0.0320 Uiso
C12V C 0.54428(7) 0.54428(7) 0.75247(11) 0.0345 Uani
O2ZC O 0.7120(2) 0.62923(18) 0.6708(2) 0.0263 Uani
C3ZC C 0.75862(8) 0.62138(10) 0.71783(7) 0.0423 Uani
H1ZC H 0.7646 0.6213 0.6959 0.0510 Uiso
O2NE O 0.7880(2) 0.62923(18) 0.8292(2) 0.0263 Uani
C1SB C 0.79984(6) 0.62282(10) 0.79984(6) 0.0275 Uani
C2SB C 0.77385(6) 0.62151(11) 0.77385(6) 0.0309 Uani
C3NE C 0.74138(8) 0.62138(10) 0.78217(7) 0.0423 Uani
H1NE H 0.7354 0.6213 0.8041 0.0510 Uiso
O2SB O 0.8292(2) 0.62923(18) 0.7880(2) 0.0263 Uani
C3SB C 0.78217(7) 0.62138(10) 0.74138(8) 0.0423 Uani
H1SB H 0.8041 0.6213 0.7354 0.0510 Uiso
Ni1I Ni 0.37177(2) 0.37177(2) 0.68739(2) 0.0154 Uani
O4I O 0.46517(5) 0.46517(5) 0.72532(8) 0.0386 Uani
O5I O 0.46604(6) 0.46604(6) 0.77923(9) 0.0557 Uani
N1I N 0.39302(5) 0.39302(5) 0.72897(8) 0.0264 Uani
C7I C 0.38323(8) 0.38323(8) 0.75831(11) 0.0391 Uani
H3I H 0.3672 0.3672 0.7597 0.0470 Uiso
C8I C 0.39579(9) 0.39579(9) 0.78673(12) 0.0570 Uani
H4I H 0.3885 0.3885 0.8070 0.0680 Uiso
C9I C 0.41949(9) 0.41949(9) 0.78449(11) 0.0503 Uani
H5I H 0.4284 0.4284 0.8034 0.0600 Uiso
C10I C 0.43004(7) 0.43004(7) 0.75456(11) 0.0335 Uani
C11I C 0.41612(7) 0.41612(7) 0.72732(9) 0.0269 Uani
H6I H 0.4231 0.4231 0.7068 0.0320 Uiso
C12I C 0.45572(7) 0.45572(7) 0.75247(11) 0.0345 Uani
Ni1A Ni 0.62823(2) 0.68739(2) 0.62823(2) 0.0154 Uani
O4A O 0.53483(5) 0.72532(8) 0.53483(5) 0.0386 Uani
O5A O 0.53396(6) 0.77923(9) 0.53396(6) 0.0557 Uani
N1A N 0.60698(5) 0.72897(8) 0.60698(5) 0.0264 Uani
C7A C 0.61677(8) 0.75831(11) 0.61677(8) 0.0391 Uani
H3A H 0.6328 0.7597 0.6328 0.0470 Uiso
C8A C 0.60421(9) 0.78673(12) 0.60421(9) 0.0570 Uani
H4A H 0.6115 0.8070 0.6115 0.0680 Uiso
C9A C 0.58051(9) 0.78449(11) 0.58051(9) 0.0503 Uani
H5A H 0.5716 0.8034 0.5716 0.0600 Uiso
C10A C 0.56996(7) 0.75456(11) 0.56996(7) 0.0335 Uani
C11A C 0.58388(7) 0.72732(9) 0.58388(7) 0.0269 Uani
H6A H 0.5769 0.7068 0.5769 0.0320 Uiso
C12A C 0.54428(7) 0.75247(11) 0.54428(7) 0.0345 Uani
Ni1S Ni 0.62823(2) 0.31261(2) 0.37177(2) 0.0154 Uani
O4S O 0.53483(5) 0.27468(8) 0.46517(5) 0.0386 Uani
O5S O 0.53396(6) 0.22077(9) 0.46604(6) 0.0557 Uani
N1S N 0.60698(5) 0.27103(8) 0.39302(5) 0.0264 Uani
C7S C 0.61677(8) 0.24169(11) 0.38323(8) 0.0391 Uani
H3S H 0.6328 0.2403 0.3672 0.0470 Uiso
C8S C 0.60421(9) 0.21327(12) 0.39579(9) 0.0570 Uani
H4S H 0.6115 0.1930 0.3885 0.0680 Uiso
C9S C 0.58051(9) 0.21551(11) 0.41949(9) 0.0503 Uani
H5S H 0.5716 0.1966 0.4284 0.0600 Uiso
C10S C 0.56996(7) 0.24544(11) 0.43004(7) 0.0335 Uani
C11S C 0.58388(7) 0.27268(9) 0.41612(7) 0.0269 Uani
H6S H 0.5769 0.2932 0.4231 0.0320 Uiso
C12S C 0.54428(7) 0.24753(11) 0.45572(7) 0.0345 Uani
O3ID O 0.5832(3) 0.6274(2) 0.6660(3) 0.0257 Uani
C4A C 0.57001(8) 0.64891(7) 0.64891(7) 0.0244 Uani
C5A C 0.53373(9) 0.64685(9) 0.64685(9) 0.0322 Uani
C6ID C 0.51667(7) 0.62560(9) 0.66653(9) 0.0466 Uani
H2ID H 0.5280 0.6111 0.6800 0.0560 Uiso
O3K O 0.4168(3) 0.6274(2) 0.6660(3) 0.0257 Uani
C4K C 0.42999(8) 0.64891(7) 0.64891(7) 0.0244 Uani
C5K C 0.46627(9) 0.64685(9) 0.64685(9) 0.0322 Uani
C6K C 0.48333(7) 0.62560(9) 0.66653(9) 0.0466 Uani
H2K H 0.4720 0.6111 0.6800 0.0560 Uiso
O3A O 0.5832(3) 0.6660(3) 0.6274(2) 0.0257 Uani
C6A C 0.51667(7) 0.66653(9) 0.62560(9) 0.0466 Uani
H2A H 0.5280 0.6800 0.6111 0.0560 Uiso
O3KD O 0.4168(3) 0.6660(3) 0.6274(2) 0.0257 Uani
C6KD C 0.48333(7) 0.66653(9) 0.62560(9) 0.0466 Uani
H2KD H 0.4720 0.6800 0.6111 0.0560 Uiso
Ni1P Ni 0.37177(2) 0.68739(2) 0.62823(2) 0.0154 Uani
O2KD O 0.37077(18) 0.7120(2) 0.6708(2) 0.0263 Uani
O4P O 0.46517(5) 0.72532(8) 0.53483(5) 0.0386 Uani
O5P O 0.46604(6) 0.77923(9) 0.53396(6) 0.0557 Uani
N1P N 0.39302(5) 0.72897(8) 0.60698(5) 0.0264 Uani
C1K C 0.37718(10) 0.70016(6) 0.70016(6) 0.0275 Uani
C2K C 0.37849(11) 0.72615(6) 0.72615(6) 0.0309 Uani
C3KD C 0.37862(10) 0.75862(8) 0.71783(7) 0.0423 Uani
H1KD H 0.3787 0.7646 0.6959 0.0510 Uiso
C7P C 0.38323(8) 0.75831(11) 0.61677(8) 0.0391 Uani
H3P H 0.3672 0.7597 0.6328 0.0470 Uiso
C8P C 0.39579(9) 0.78673(12) 0.60421(9) 0.0570 Uani
H4P H 0.3885 0.8070 0.6115 0.0680 Uiso
C9P C 0.41949(9) 0.78449(11) 0.58051(9) 0.0503 Uani
H5P H 0.4284 0.8034 0.5716 0.0600 Uiso
C10P C 0.43004(7) 0.75456(11) 0.56996(7) 0.0335 Uani
C11P C 0.41612(7) 0.72732(9) 0.58388(7) 0.0269 Uani
H6P H 0.4231 0.7068 0.5769 0.0320 Uiso
C12P C 0.45572(7) 0.75247(11) 0.54428(7) 0.0345 Uani
O2K O 0.37077(18) 0.6708(2) 0.7120(2) 0.0263 Uani
C3K C 0.37862(10) 0.71783(7) 0.75862(8) 0.0423 Uani
H1K H 0.3787 0.6959 0.7646 0.0510 Uiso
O2OA O 0.37077(18) 0.8292(2) 0.7880(2) 0.0263 Uani
C1OA C 0.37718(10) 0.79984(6) 0.79984(6) 0.0275 Uani
C2OA C 0.37849(11) 0.77385(6) 0.77385(6) 0.0309 Uani
C3OA C 0.37862(10) 0.78217(7) 0.74138(8) 0.0423 Uani
H1OA H 0.3787 0.8041 0.7354 0.0510 Uiso
O2QD O 0.37077(18) 0.7880(2) 0.8292(2) 0.0263 Uani
C3QD C 0.37862(10) 0.74138(8) 0.78217(7) 0.0423 Uani
H1QD H 0.3787 0.7354 0.8041 0.0510 Uiso
Ni1C Ni 0.37177(2) 0.31261(2) 0.62823(2) 0.0154 Uani
Ni1G Ni 0.62823(2) 0.37177(2) 0.31261(2) 0.0154 Uani
Ni1K Ni 0.37177(2) 0.62823(2) 0.68739(2) 0.0154 Uani
Ni1N Ni 0.62823(2) 0.62823(2) 0.31261(2) 0.0154 Uani
Ni1HA Ni 0.62823(2) 0.18739(2) 0.87177(2) 0.0154 Uani
Ni1LA Ni 0.62823(2) 0.12823(2) 0.81261(2) 0.0154 Uani
Ni1MA Ni 0.37177(2) 0.81261(2) 0.87177(2) 0.0154 Uani
Ni1OA Ni 0.37177(2) 0.87177(2) 0.81261(2) 0.0154 Uani
Ni1DB Ni 0.81261(2) 0.37177(2) 0.87177(2) 0.0154 Uani
Ni1MB Ni 0.87177(2) 0.37177(2) 0.81261(2) 0.0154 Uani
Ni1PB Ni 0.81261(2) 0.62823(2) 0.87177(2) 0.0154 Uani
Ni1SB Ni 0.87177(2) 0.62823(2) 0.81261(2) 0.0154 Uani
Ni1VB Ni 0.81261(2) 0.12823(2) 0.62823(2) 0.0154 Uani
Ni1BC Ni 0.81261(2) 0.87177(2) 0.37177(2) 0.0154 Uani
Ni1IC Ni 0.87177(2) 0.81261(2) 0.37177(2) 0.0154 Uani
Ni1JC Ni 0.87177(2) 0.18739(2) 0.62823(2) 0.0154 Uani
Ni2C Ni 0.5000 0.21566(3) 0.5000 0.0271 Uani
Ni3C Ni 0.5000 0.27982(3) 0.5000 0.0259 Uani
O1B O 0.35141(5) 0.64859(5) 0.64859(5) 0.0112 Uani
O1C O 0.35141(5) 0.35141(5) 0.64859(5) 0.0112 Uani
O2A O 0.62923(18) 0.7120(2) 0.6708(2) 0.0263 Uani
O2D O 0.7120(2) 0.3292(2) 0.37077(18) 0.0263 Uani
O2E O 0.7120(2) 0.62923(18) 0.3292(2) 0.0263 Uani
O2F O 0.7120(2) 0.6708(2) 0.62923(18) 0.0263 Uani
O2I O 0.3292(2) 0.37077(18) 0.7120(2) 0.0263 Uani
O2P O 0.3292(2) 0.7120(2) 0.62923(18) 0.0263 Uani
O2S O 0.62923(18) 0.2880(2) 0.3292(2) 0.0263 Uani
O2TC O 0.7120(2) 0.37077(18) 0.3292(2) 0.0263 Uani
O2UC O 0.62923(18) 0.7120(2) 0.3292(2) 0.0263 Uani
O2FD O 0.37077(18) 0.3292(2) 0.7120(2) 0.0263 Uani
O2GD O 0.6708(2) 0.7120(2) 0.62923(18) 0.0263 Uani
O2HD O 0.6708(2) 0.2880(2) 0.37077(18) 0.0263 Uani
O2ID O 0.62923(18) 0.6708(2) 0.7120(2) 0.0263 Uani
O3I O 0.3726(2) 0.4168(3) 0.6660(3) 0.0257 Uani
O3P O 0.3726(2) 0.6660(3) 0.5832(3) 0.0257 Uani
O3S O 0.5832(3) 0.3340(3) 0.3726(2) 0.0257 Uani
O3UC O 0.5832(3) 0.6660(3) 0.3726(2) 0.0257 Uani
O4K O 0.46517(5) 0.53483(5) 0.72532(8) 0.0386 Uani
O4R O 0.46517(5) 0.72532(8) 0.46517(5) 0.0386 Uani
O5K O 0.46604(6) 0.53396(6) 0.77923(9) 0.0557 Uani
O5R O 0.46604(6) 0.77923(9) 0.46604(6) 0.0557 Uani
loop_
_atom_site_aniso_label
_atom_site_aniso_U_11
_atom_site_aniso_U_22
_atom_site_aniso_U_33
_atom_site_aniso_U_23
_atom_site_aniso_U_13
_atom_site_aniso_U_12
Ni1 0.0155(4) 0.0154(3) 0.0154(3) 0.00146(19) -0.00121(14) 0.00121(14)
Ni2 0.0312(7) 0.0250(5) 0.0250(5) 0.000 0.000 0.000
Ni3 0.0244(7) 0.0266(5) 0.0266(5) 0.000 0.000 0.000
O1 0.0112(7) 0.0112(7) 0.0112(7) -0.0013(8) 0.0013(8) -0.0013(8)
O2 0.016(3) 0.042(4) 0.021(3) 0.001(3) -0.0041(19) 0.008(3)
O3 0.041(5) 0.014(2) 0.022(4) 0.003(3) 0.006(3) 0.010(3)
O4 0.0400(18) 0.0379(10) 0.0379(10) 0.0107(13) -0.0008(9) 0.0008(9)
O5 0.042(2) 0.0626(16) 0.0626(16) 0.040(2) 0.0028(10) -0.0028(10)
O6 0.045(5) 0.079(4) 0.079(4) 0.000 0.000 0.000
O7 0.037(4) 0.088(4) 0.088(4) 0.000 0.000 0.000
N1 0.0225(16) 0.0284(10) 0.0284(10) 0.0029(13) 0.0003(9) -0.0003(9)
C1 0.0257(13) 0.031(2) 0.0257(13) 0.0016(10) -0.0106(16) 0.0016(10)
C2 0.0234(12) 0.046(2) 0.0234(12) 0.0012(11) -0.0083(15) 0.0012(11)
C3 0.0277(16) 0.078(2) 0.0211(14) 0.0054(14) -0.0060(13) -0.0050(15)
C4 0.0294(12) 0.0145(17) 0.0294(12) 0.0003(10) 0.0015(15) 0.0003(10)
C5 0.0409(14) 0.0149(17) 0.0409(14) 0.0015(12) 0.0147(18) 0.0015(12)
C6 0.064(2) 0.0179(15) 0.058(2) -0.0019(13) 0.0374(17) 0.0035(14)
C7 0.026(2) 0.0457(16) 0.0457(16) 0.016(2) 0.0002(12) -0.0002(12)
C8 0.027(2) 0.072(2) 0.072(2) 0.035(3) -0.0013(14) 0.0013(14)
C9 0.027(2) 0.062(2) 0.062(2) 0.028(3) 0.0043(13) -0.0043(13)
C10 0.033(2) 0.0338(14) 0.0338(14) 0.0078(18) 0.0019(11) -0.0019(11)
C11 0.0277(19) 0.0265(12) 0.0265(12) 0.0021(15) -0.0008(10) 0.0008(10)
C12 0.044(3) 0.0298(13) 0.0298(13) 0.0064(18) 0.0013(12) -0.0013(12)
O2OD 0.021 0.042 0.016 0.008 -0.0041 0.001
C3OD 0.0211 0.078 0.0277 -0.005 -0.006 0.0054
O2JF 0.021 0.042 0.016 -0.008 -0.0041 -0.001
C1DB 0.0257 0.031 0.0257 -0.0016 -0.0106 -0.0016
C2DB 0.0234 0.046 0.0234 -0.0012 -0.0083 -0.0012
C3JF 0.0211 0.078 0.0277 0.005 -0.006 -0.0054
O2DB 0.016 0.042 0.021 -0.001 -0.0041 -0.008
C3DB 0.0277 0.078 0.0211 -0.0054 -0.006 0.005
O3ZC 0.041 0.014 0.022 -0.003 0.006 -0.01
C4V 0.0294 0.0145 0.0294 -0.0003 0.0015 -0.0003
C5V 0.0409 0.0149 0.0409 -0.0015 0.0147 -0.0015
C6ZC 0.064 0.0179 0.058 0.0019 0.0374 -0.0035
O3OD 0.022 0.014 0.041 0.01 0.006 0.003
C6OD 0.058 0.0179 0.064 0.0035 0.0374 -0.0019
O3V 0.022 0.014 0.041 -0.01 0.006 -0.003
C6V 0.058 0.0179 0.064 -0.0035 0.0374 0.0019
Ni1D 0.0155 0.0154 0.0154 -0.00146 0.00121 0.00121
O1D 0.0112 0.0112 0.0112 0.0013 -0.0013 -0.0013
O3D 0.041 0.022 0.014 -0.003 0.01 -0.006
O4D 0.04 0.0379 0.0379 -0.0107 0.0008 0.0008
O5D 0.042 0.0626 0.0626 -0.04 -0.0028 -0.0028
N1D 0.0225 0.0284 0.0284 -0.0029 -0.0003 -0.0003
C4D 0.0294 0.0294 0.0145 -0.0003 0.0003 -0.0015
C5D 0.0409 0.0409 0.0149 -0.0015 0.0015 -0.0147
C6D 0.064 0.058 0.0179 0.0019 0.0035 -0.0374
C7D 0.026 0.0457 0.0457 -0.016 -0.0002 -0.0002
C8D 0.027 0.072 0.072 -0.035 0.0013 0.0013
C9D 0.027 0.062 0.062 -0.028 -0.0043 -0.0043
C10D 0.033 0.0338 0.0338 -0.0078 -0.0019 -0.0019
C11D 0.0277 0.0265 0.0265 -0.0021 0.0008 0.0008
C12D 0.044 0.0298 0.0298 -0.0064 -0.0013 -0.0013
O3LD 0.041 0.022 0.014 0.003 -0.01 -0.006
C4M 0.0294 0.0294 0.0145 0.0003 -0.0003 -0.0015
C5M 0.0409 0.0409 0.0149 0.0015 -0.0015 -0.0147
C6LD 0.064 0.058 0.0179 -0.0019 -0.0035 -0.0374
O3HD 0.022 0.041 0.014 -0.01 0.003 -0.006
C6HD 0.058 0.064 0.0179 -0.0035 -0.0019 -0.0374
O3M 0.022 0.041 0.014 0.01 -0.003 -0.006
C6M 0.058 0.064 0.0179 0.0035 0.0019 -0.0374
Ni1E 0.0155 0.0154 0.0154 0.00146 0.00121 -0.00121
O1E 0.0112 0.0112 0.0112 -0.0013 -0.0013 0.0013
O3E 0.041 0.014 0.022 0.003 -0.006 -0.01
O4E 0.04 0.0379 0.0379 0.0107 0.0008 -0.0008
O5E 0.042 0.0626 0.0626 0.04 -0.0028 0.0028
N1E 0.0225 0.0284 0.0284 0.0029 -0.0003 0.0003
C4E 0.0294 0.0145 0.0294 0.0003 -0.0015 -0.0003
C5E 0.0409 0.0149 0.0409 0.0015 -0.0147 -0.0015
C6E 0.064 0.0179 0.058 -0.0019 -0.0374 -0.0035
C7E 0.026 0.0457 0.0457 0.016 -0.0002 0.0002
C8E 0.027 0.072 0.072 0.035 0.0013 -0.0013
C9E 0.027 0.062 0.062 0.028 -0.0043 0.0043
C10E 0.033 0.0338 0.0338 0.0078 -0.0019 0.0019
C11E 0.0277 0.0265 0.0265 0.0021 0.0008 -0.0008
C12E 0.044 0.0298 0.0298 0.0064 -0.0013 0.0013
O3TC 0.041 0.014 0.022 -0.003 -0.006 0.01
C4G 0.0294 0.0145 0.0294 -0.0003 -0.0015 0.0003
C5G 0.0409 0.0149 0.0409 -0.0015 -0.0147 0.0015
C6TC 0.064 0.0179 0.058 0.0019 -0.0374 0.0035
O3AD 0.022 0.014 0.041 0.01 -0.006 -0.003
C6AD 0.058 0.0179 0.064 0.0035 -0.0374 0.0019
O3G 0.022 0.014 0.041 -0.01 -0.006 0.003
C6G 0.058 0.0179 0.064 -0.0035 -0.0374 -0.0019
Ni1F 0.0155 0.0154 0.0154 -0.00146 -0.00121 -0.00121
O1A 0.0112 0.0112 0.0112 0.0013 0.0013 0.0013
O3F 0.041 0.022 0.014 -0.003 -0.01 0.006
O4F 0.04 0.0379 0.0379 -0.0107 -0.0008 -0.0008
O5F 0.042 0.0626 0.0626 -0.04 0.0028 0.0028
N1F 0.0225 0.0284 0.0284 -0.0029 0.0003 0.0003
C4F 0.0294 0.0294 0.0145 -0.0003 -0.0003 0.0015
C5F 0.0409 0.0409 0.0149 -0.0015 -0.0015 0.0147
C6F 0.064 0.058 0.0179 0.0019 -0.0035 0.0374
C7F 0.026 0.0457 0.0457 -0.016 0.0002 0.0002
C8F 0.027 0.072 0.072 -0.035 -0.0013 -0.0013
C9F 0.027 0.062 0.062 -0.028 0.0043 0.0043
C10F 0.033 0.0338 0.0338 -0.0078 0.0019 0.0019
C11F 0.0277 0.0265 0.0265 -0.0021 -0.0008 -0.0008
C12F 0.044 0.0298 0.0298 -0.0064 0.0013 0.0013
O3MD 0.041 0.022 0.014 0.003 0.01 0.006
C4J 0.0294 0.0294 0.0145 0.0003 0.0003 0.0015
C5J 0.0409 0.0409 0.0149 0.0015 0.0015 0.0147
C6MD 0.064 0.058 0.0179 -0.0019 0.0035 0.0374
O3GD 0.022 0.041 0.014 -0.01 -0.003 0.006
C6GD 0.058 0.064 0.0179 -0.0035 0.0019 0.0374
O3J 0.022 0.041 0.014 0.01 0.003 0.006
C6J 0.058 0.064 0.0179 0.0035 -0.0019 0.0374
Ni1J 0.0154 0.0155 0.0154 0.00121 0.00146 -0.00121
Ni2A 0.025 0.0312 0.025 0 0 0
Ni3A 0.0266 0.0244 0.0266 0 0 0
O2J 0.021 0.016 0.042 0.008 0.001 -0.0041
O4J 0.0379 0.04 0.0379 0.0008 0.0107 -0.0008
O5J 0.0626 0.042 0.0626 -0.0028 0.04 0.0028
O6A 0.079 0.045 0.079 0 0 0
O7A 0.088 0.037 0.088 0 0 0
N1J 0.0284 0.0225 0.0284 -0.0003 0.0029 0.0003
C1J 0.0257 0.0257 0.031 0.0016 0.0016 -0.0106
C2J 0.0234 0.0234 0.046 0.0012 0.0012 -0.0083
C3J 0.0211 0.0277 0.078 -0.005 0.0054 -0.006
C7J 0.0457 0.026 0.0457 -0.0002 0.016 0.0002
C8J 0.072 0.027 0.072 0.0013 0.035 -0.0013
C9J 0.062 0.027 0.062 -0.0043 0.028 0.0043
C10J 0.0338 0.033 0.0338 -0.0019 0.0078 0.0019
C11J 0.0265 0.0277 0.0265 0.0008 0.0021 -0.0008
C12J 0.0298 0.044 0.0298 -0.0013 0.0064 0.0013
O2MD 0.016 0.021 0.042 0.001 0.008 -0.0041
C3MD 0.0277 0.0211 0.078 0.0054 -0.005 -0.006
O2RF 0.016 0.021 0.042 -0.001 -0.008 -0.0041
C1IC 0.0257 0.0257 0.031 -0.0016 -0.0016 -0.0106
C2IC 0.0234 0.0234 0.046 -0.0012 -0.0012 -0.0083
C3RF 0.0277 0.0211 0.078 -0.0054 0.005 -0.006
O2IC 0.021 0.016 0.042 -0.008 -0.001 -0.0041
C3IC 0.0211 0.0277 0.078 0.005 -0.0054 -0.006
Ni1L 0.0154 0.0154 0.0155 0.00121 -0.00121 0.00146
Ni2I 0.025 0.025 0.0312 0 0 0
Ni3I 0.0266 0.0266 0.0244 0 0 0
O2L 0.042 0.021 0.016 0.0041 -0.008 0.001
O3L 0.014 0.022 0.041 -0.006 -0.01 0.003
O4L 0.0379 0.0379 0.04 0.0008 -0.0008 0.0107
O5L 0.0626 0.0626 0.042 -0.0028 0.0028 0.04
O6I 0.079 0.079 0.045 0 0 0
O7I 0.088 0.088 0.037 0 0 0
N1L 0.0284 0.0284 0.0225 -0.0003 0.0003 0.0029
C1L 0.031 0.0257 0.0257 0.0106 -0.0016 0.0016
C2L 0.046 0.0234 0.0234 0.0083 -0.0012 0.0012
C3L 0.078 0.0211 0.0277 0.006 0.005 0.0054
C4L 0.0145 0.0294 0.0294 -0.0015 -0.0003 0.0003
C5L 0.0149 0.0409 0.0409 -0.0147 -0.0015 0.0015
C6L 0.0179 0.058 0.064 -0.0374 -0.0035 -0.0019
C7L 0.0457 0.0457 0.026 -0.0002 0.0002 0.016
C8L 0.072 0.072 0.027 0.0013 -0.0013 0.035
C9L 0.062 0.062 0.027 -0.0043 0.0043 0.028
C10L 0.0338 0.0338 0.033 -0.0019 0.0019 0.0078
C11L 0.0265 0.0265 0.0277 0.0008 -0.0008 0.0021
C12L 0.0298 0.0298 0.044 -0.0013 0.0013 0.0064
O2JD 0.042 0.016 0.021 0.0041 -0.001 0.008
C3JD 0.078 0.0277 0.0211 0.006 -0.0054 -0.005
O2SD 0.042 0.016 0.021 0.0041 0.001 -0.008
C1LA 0.031 0.0257 0.0257 0.0106 0.0016 -0.0016
C2LA 0.046 0.0234 0.0234 0.0083 0.0012 -0.0012
C3SD 0.078 0.0277 0.0211 0.006 0.0054 0.005
O2LA 0.042 0.021 0.016 0.0041 0.008 -0.001
C3LA 0.078 0.0211 0.0277 0.006 -0.005 -0.0054
O3FD 0.014 0.022 0.041 -0.006 0.01 -0.003
C4C 0.0145 0.0294 0.0294 -0.0015 0.0003 -0.0003
C5C 0.0149 0.0409 0.0409 -0.0147 0.0015 -0.0015
C6FD 0.0179 0.058 0.064 -0.0374 0.0035 0.0019
O3JD 0.014 0.041 0.022 -0.006 -0.003 0.01
C6JD 0.0179 0.064 0.058 -0.0374 0.0019 0.0035
O3C 0.014 0.041 0.022 -0.006 0.003 -0.01
C6C 0.0179 0.064 0.058 -0.0374 -0.0019 -0.0035
Ni1M 0.0154 0.0155 0.0154 0.00121 -0.00146 0.00121
O2M 0.021 0.016 0.042 0.008 -0.001 0.0041
O4M 0.0379 0.04 0.0379 0.0008 -0.0107 0.0008
O5M 0.0626 0.042 0.0626 -0.0028 -0.04 -0.0028
N1M 0.0284 0.0225 0.0284 -0.0003 -0.0029 -0.0003
C1M 0.0257 0.0257 0.031 0.0016 -0.0016 0.0106
C2M 0.0234 0.0234 0.046 0.0012 -0.0012 0.0083
C3M 0.0211 0.0277 0.078 -0.005 -0.0054 0.006
C7M 0.0457 0.026 0.0457 -0.0002 -0.016 -0.0002
C8M 0.072 0.027 0.072 0.0013 -0.035 0.0013
C9M 0.062 0.027 0.062 -0.0043 -0.028 -0.0043
C10M 0.0338 0.033 0.0338 -0.0019 -0.0078 -0.0019
C11M 0.0265 0.0277 0.0265 0.0008 -0.0021 0.0008
C12M 0.0298 0.044 0.0298 -0.0013 -0.0064 -0.0013
O2LD 0.016 0.021 0.042 0.001 -0.008 0.0041
C3LD 0.0277 0.0211 0.078 0.0054 0.005 0.006
O2PF 0.016 0.021 0.042 -0.001 0.008 0.0041
C1JC 0.0257 0.0257 0.031 -0.0016 0.0016 0.0106
C2JC 0.0234 0.0234 0.046 -0.0012 0.0012 0.0083
C3PF 0.0277 0.0211 0.078 -0.0054 -0.005 0.006
O2JC 0.021 0.016 0.042 -0.008 0.001 0.0041
C3JC 0.0211 0.0277 0.078 0.005 0.0054 0.006
Ni1V 0.0154 0.0154 0.0155 -0.00121 -0.00121 -0.00146
O2V 0.021 0.042 0.016 -0.008 -0.0041 -0.001
O4V 0.0379 0.0379 0.04 -0.0008 -0.0008 -0.0107
O5V 0.0626 0.0626 0.042 0.0028 0.0028 -0.04
N1V 0.0284 0.0284 0.0225 0.0003 0.0003 -0.0029
C1V 0.0257 0.031 0.0257 -0.0016 -0.0106 -0.0016
C2V 0.0234 0.046 0.0234 -0.0012 -0.0083 -0.0012
C3V 0.0211 0.078 0.0277 0.005 -0.006 -0.0054
C7V 0.0457 0.0457 0.026 0.0002 0.0002 -0.016
C8V 0.072 0.072 0.027 -0.0013 -0.0013 -0.035
C9V 0.062 0.062 0.027 0.0043 0.0043 -0.028
C10V 0.0338 0.0338 0.033 0.0019 0.0019 -0.0078
C11V 0.0265 0.0265 0.0277 -0.0008 -0.0008 -0.0021
C12V 0.0298 0.0298 0.044 0.0013 0.0013 -0.0064
O2ZC 0.016 0.042 0.021 -0.001 -0.0041 -0.008
C3ZC 0.0277 0.078 0.0211 -0.0054 -0.006 0.005
O2NE 0.016 0.042 0.021 0.001 -0.0041 0.008
C1SB 0.0257 0.031 0.0257 0.0016 -0.0106 0.0016
C2SB 0.0234 0.046 0.0234 0.0012 -0.0083 0.0012
C3NE 0.0277 0.078 0.0211 0.0054 -0.006 -0.005
O2SB 0.021 0.042 0.016 0.008 -0.0041 0.001
C3SB 0.0211 0.078 0.0277 -0.005 -0.006 0.0054
Ni1I 0.0154 0.0154 0.0155 0.00121 0.00121 -0.00146
O4I 0.0379 0.0379 0.04 0.0008 0.0008 -0.0107
O5I 0.0626 0.0626 0.042 -0.0028 -0.0028 -0.04
N1I 0.0284 0.0284 0.0225 -0.0003 -0.0003 -0.0029
C7I 0.0457 0.0457 0.026 -0.0002 -0.0002 -0.016
C8I 0.072 0.072 0.027 0.0013 0.0013 -0.035
C9I 0.062 0.062 0.027 -0.0043 -0.0043 -0.028
C10I 0.0338 0.0338 0.033 -0.0019 -0.0019 -0.0078
C11I 0.0265 0.0265 0.0277 0.0008 0.0008 -0.0021
C12I 0.0298 0.0298 0.044 -0.0013 -0.0013 -0.0064
Ni1A 0.0154 0.0155 0.0154 -0.00121 -0.00146 -0.00121
O4A 0.0379 0.04 0.0379 -0.0008 -0.0107 -0.0008
O5A 0.0626 0.042 0.0626 0.0028 -0.04 0.0028
N1A 0.0284 0.0225 0.0284 0.0003 -0.0029 0.0003
C7A 0.0457 0.026 0.0457 0.0002 -0.016 0.0002
C8A 0.072 0.027 0.072 -0.0013 -0.035 -0.0013
C9A 0.062 0.027 0.062 0.0043 -0.028 0.0043
C10A 0.0338 0.033 0.0338 0.0019 -0.0078 0.0019
C11A 0.0265 0.0277 0.0265 -0.0008 -0.0021 -0.0008
C12A 0.0298 0.044 0.0298 0.0013 -0.0064 0.0013
Ni1S 0.0154 0.0155 0.0154 -0.00121 0.00146 0.00121
O4S 0.0379 0.04 0.0379 -0.0008 0.0107 0.0008
O5S 0.0626 0.042 0.0626 0.0028 0.04 -0.0028
N1S 0.0284 0.0225 0.0284 0.0003 0.0029 -0.0003
C7S 0.0457 0.026 0.0457 0.0002 0.016 -0.0002
C8S 0.072 0.027 0.072 -0.0013 0.035 0.0013
C9S 0.062 0.027 0.062 0.0043 0.028 -0.0043
C10S 0.0338 0.033 0.0338 0.0019 0.0078 -0.0019
C11S 0.0265 0.0277 0.0265 -0.0008 0.0021 0.0008
C12S 0.0298 0.044 0.0298 0.0013 0.0064 -0.0013
O3ID 0.014 0.022 0.041 0.006 -0.01 -0.003
C4A 0.0145 0.0294 0.0294 0.0015 -0.0003 -0.0003
C5A 0.0149 0.0409 0.0409 0.0147 -0.0015 -0.0015
C6ID 0.0179 0.058 0.064 0.0374 -0.0035 0.0019
O3K 0.014 0.022 0.041 0.006 0.01 0.003
C4K 0.0145 0.0294 0.0294 0.0015 0.0003 0.0003
C5K 0.0149 0.0409 0.0409 0.0147 0.0015 0.0015
C6K 0.0179 0.058 0.064 0.0374 0.0035 -0.0019
O3A 0.014 0.041 0.022 0.006 -0.003 -0.01
C6A 0.0179 0.064 0.058 0.0374 0.0019 -0.0035
O3KD 0.014 0.041 0.022 0.006 0.003 0.01
C6KD 0.0179 0.064 0.058 0.0374 -0.0019 0.0035
Ni1P 0.0154 0.0155 0.0154 -0.00121 0.00146 0.00121
O2KD 0.042 0.016 0.021 -0.0041 0.001 0.008
O4P 0.0379 0.04 0.0379 -0.0008 0.0107 0.0008
O5P 0.0626 0.042 0.0626 0.0028 0.04 -0.0028
N1P 0.0284 0.0225 0.0284 0.0003 0.0029 -0.0003
C1K 0.031 0.0257 0.0257 -0.0106 0.0016 0.0016
C2K 0.046 0.0234 0.0234 -0.0083 0.0012 0.0012
C3KD 0.078 0.0277 0.0211 -0.006 0.0054 -0.005
C7P 0.0457 0.026 0.0457 0.0002 0.016 -0.0002
C8P 0.072 0.027 0.072 -0.0013 0.035 0.0013
C9P 0.062 0.027 0.062 0.0043 0.028 -0.0043
C10P 0.0338 0.033 0.0338 0.0019 0.0078 -0.0019
C11P 0.0265 0.0277 0.0265 -0.0008 0.0021 0.0008
C12P 0.0298 0.044 0.0298 0.0013 0.0064 -0.0013
O2K 0.042 0.021 0.016 -0.0041 0.008 0.001
C3K 0.078 0.0211 0.0277 -0.006 -0.005 0.0054
O2OA 0.042 0.021 0.016 -0.0041 -0.008 -0.001
C1OA 0.031 0.0257 0.0257 -0.0106 -0.0016 -0.0016
C2OA 0.046 0.0234 0.0234 -0.0083 -0.0012 -0.0012
C3OA 0.078 0.0211 0.0277 -0.006 0.005 -0.0054
O2QD 0.042 0.016 0.021 -0.0041 -0.001 -0.008
C3QD 0.078 0.0277 0.0211 -0.006 -0.0054 0.005
Ni1C 0.0154 0.0155 0.0154 0.00121 0.00146 -0.00121
Ni1G 0.0154 0.0154 0.0155 -0.00121 0.00121 0.00146
Ni1K 0.0154 0.0154 0.0155 -0.00121 0.00121 0.00146
Ni1N 0.0154 0.0154 0.0155 0.00121 0.00121 -0.00146
Ni1HA 0.0154 0.0155 0.0154 0.00121 0.00146 -0.00121
Ni1LA 0.0154 0.0154 0.0155 0.00121 0.00121 -0.00146
Ni1MA 0.0154 0.0155 0.0154 -0.00121 -0.00146 -0.00121
Ni1OA 0.0154 0.0154 0.0155 -0.00121 -0.00121 -0.00146
Ni1DB 0.0155 0.0154 0.0154 -0.00146 -0.00121 -0.00121
Ni1MB 0.0154 0.0154 0.0155 -0.00121 -0.00121 -0.00146
Ni1PB 0.0155 0.0154 0.0154 0.00146 -0.00121 0.00121
Ni1SB 0.0154 0.0154 0.0155 0.00121 -0.00121 0.00146
Ni1VB 0.0155 0.0154 0.0154 -0.00146 0.00121 0.00121
Ni1BC 0.0155 0.0154 0.0154 -0.00146 -0.00121 -0.00121
Ni1IC 0.0154 0.0155 0.0154 -0.00121 -0.00146 -0.00121
Ni1JC 0.0154 0.0155 0.0154 -0.00121 0.00146 0.00121
Ni2C 0.025 0.0312 0.025 0 0 0
Ni3C 0.0266 0.0244 0.0266 0 0 0
O1B 0.0112 0.0112 0.0112 0.0013 -0.0013 -0.0013
O1C 0.0112 0.0112 0.0112 -0.0013 -0.0013 0.0013
O2A 0.042 0.016 0.021 -0.0041 -0.001 -0.008
O2D 0.016 0.021 0.042 -0.001 0.008 0.0041
O2E 0.016 0.042 0.021 0.001 0.0041 -0.008
O2F 0.016 0.021 0.042 -0.001 -0.008 -0.0041
O2I 0.021 0.042 0.016 0.008 0.0041 -0.001
O2P 0.021 0.016 0.042 -0.008 0.001 0.0041
O2S 0.042 0.016 0.021 -0.0041 0.001 0.008
O2TC 0.016 0.042 0.021 -0.001 0.0041 0.008
O2UC 0.042 0.016 0.021 0.0041 0.001 -0.008
O2FD 0.042 0.021 0.016 0.0041 0.008 -0.001
O2GD 0.021 0.016 0.042 -0.008 -0.001 -0.0041
O2HD 0.021 0.016 0.042 -0.008 0.001 0.0041
O2ID 0.042 0.021 0.016 -0.0041 -0.008 -0.001
O3I 0.022 0.014 0.041 0.01 -0.006 -0.003
O3P 0.022 0.041 0.014 -0.01 0.003 -0.006
O3S 0.014 0.041 0.022 0.006 0.003 0.01
O3UC 0.014 0.041 0.022 -0.006 0.003 -0.01
O4K 0.0379 0.0379 0.04 -0.0008 0.0008 0.0107
O4R 0.0379 0.04 0.0379 0.0008 -0.0107 0.0008
O5K 0.0626 0.0626 0.042 0.0028 -0.0028 0.04
O5R 0.0626 0.042 0.0626 -0.0028 -0.04 -0.0028
loop_
_geom_bond_atom_site_label_1
_geom_bond_atom_site_label_2
_geom_bond_site_symmetry_1
_geom_bond_site_symmetry_2
Ni1 O1 1_555 1_555
Ni2 O5 1_555 1_555
Ni3 O4 1_555 1_555
O1 H7 1_555 1_555
O2 Ni1 1_555 1_555
O3 Ni1 1_555 1_555
O4 C12 1_555 1_555
O5 C12 1_555 1_555
O6 Ni2 1_555 1_555
O7 Ni3 1_555 1_555
N1 Ni1 1_555 1_555
C1 O2 1_555 1_555
C2 C1 1_555 1_555
C3 C2 1_555 1_555
H1 C3 1_555 1_555
C4 O3 1_555 1_555
C5 C4 1_555 1_555
C6 C5 1_555 1_555
H2 C6 1_555 1_555
C7 N1 1_555 1_555
H3 C7 1_555 1_555
C8 C7 1_555 1_555
H4 C8 1_555 1_555
C9 C8 1_555 1_555
H5 C9 1_555 1_555
C10 C9 1_555 1_555
C11 N1 1_555 1_555
H6 C11 1_555 1_555
C12 C10 1_555 1_555
O2OD C1 1_555 1_555
C3OD C2 1_555 1_555
H1OD C3OD 1_555 1_555
O2JF C1DB 1_555 1_555
C1DB C2DB 1_555 1_555
C2DB C3JF 1_555 1_555
C3JF C3 1_555 1_555
H1JF C3JF 1_555 1_555
O2DB C1DB 1_555 1_555
C3DB C3OD 1_555 1_555
H1DB C3DB 1_555 1_555
O3ZC C4V 1_555 1_555
C4V C5V 1_555 1_555
C5V C6ZC 1_555 1_555
C6ZC C6 1_555 1_555
H2ZC C6ZC 1_555 1_555
O3OD C4 1_555 1_555
C6OD C5 1_555 1_555
H2OD C6OD 1_555 1_555
O3V C4V 1_555 1_555
C6V C5V 1_555 1_555
H2V C6V 1_555 1_555
Ni1D O1D 1_555 1_555
O1D H7D 1_555 1_555
O3D Ni1D 1_555 1_555
O4D Ni3 1_555 1_555
O5D Ni2 1_555 1_555
N1D Ni1D 1_555 1_555
C4D O3D 1_555 1_555
C5D C4D 1_555 1_555
C6D C5D 1_555 1_555
H2D C6D 1_555 1_555
C7D N1D 1_555 1_555
H3D C7D 1_555 1_555
C8D C7D 1_555 1_555
H4D C8D 1_555 1_555
C9D C8D 1_555 1_555
H5D C9D 1_555 1_555
C10D C9D 1_555 1_555
C11D N1D 1_555 1_555
H6D C11D 1_555 1_555
C12D O4D 1_555 1_555
O3LD Ni1 1_555 1_555
C4M O3LD 1_555 1_555
C5M C4M 1_555 1_555
C6LD C6D 1_555 1_555
H2LD C6LD 1_555 1_555
O3HD C4D 1_555 1_555
C6HD C5D 1_555 1_555
H2HD C6HD 1_555 1_555
O3M C4M 1_555 1_555
C6M C5M 1_555 1_555
H2M C6M 1_555 1_555
Ni1E O1E 1_555 1_555
O1E H7E 1_555 1_555
O3E Ni1E 1_555 1_555
O4E Ni3 1_555 1_555
O5E Ni2 1_555 1_555
N1E Ni1E 1_555 1_555
C4E O3E 1_555 1_555
C5E C4E 1_555 1_555
C6E C5E 1_555 1_555
H2E C6E 1_555 1_555
C7E N1E 1_555 1_555
H3E C7E 1_555 1_555
C8E C7E 1_555 1_555
H4E C8E 1_555 1_555
C9E C8E 1_555 1_555
H5E C9E 1_555 1_555
C10E C9E 1_555 1_555
C11E N1E 1_555 1_555
H6E C11E 1_555 1_555
C12E O4E 1_555 1_555
O3TC Ni1D 1_555 1_555
C4G O3TC 1_555 1_555
C5G C4G 1_555 1_555
C6TC C6E 1_555 1_555
H2TC C6TC 1_555 1_555
O3AD C4E 1_555 1_555
C6AD C5E 1_555 1_555
H2AD C6AD 1_555 1_555
O3G C4G 1_555 1_555
C6G C5G 1_555 1_555
H2G C6G 1_555 1_555
Ni1F O3ZC 1_555 1_555
O1A Ni1F 1_555 1_555
O3F Ni1F 1_555 1_555
O4F Ni3 1_555 1_555
O5F Ni2 1_555 1_555
N1F Ni1F 1_555 1_555
C4F O3F 1_555 1_555
C5F C4F 1_555 1_555
C6F C5F 1_555 1_555
H2F C6F 1_555 1_555
C7F N1F 1_555 1_555
H3F C7F 1_555 1_555
C8F C7F 1_555 1_555
H4F C8F 1_555 1_555
C9F C8F 1_555 1_555
H5F C9F 1_555 1_555
C10F C9F 1_555 1_555
C11F N1F 1_555 1_555
H6F C11F 1_555 1_555
C12F O4F 1_555 1_555
H7A O1A 1_555 1_555
O3MD Ni1E 1_555 1_555
C4J O3MD 1_555 1_555
C5J C4J 1_555 1_555
C6MD C6F 1_555 1_555
H2MD C6MD 1_555 1_555
O3GD C4F 1_555 1_555
C6GD C5F 1_555 1_555
H2GD C6GD 1_555 1_555
O3J C4J 1_555 1_555
C6J C5J 1_555 1_555
H2J C6J 1_555 1_555
Ni1J O1E 1_555 1_555
Ni2A O5J 1_555 1_555
Ni3A O4J 1_555 1_555
O2J Ni1J 1_555 1_555
O4J C12J 1_555 1_555
O5J C12J 1_555 1_555
O6A Ni2A 1_555 1_555
O7A Ni3A 1_555 1_555
N1J Ni1J 1_555 1_555
C1J O2J 1_555 1_555
C2J C1J 1_555 1_555
C3J C2J 1_555 1_555
H1J C3J 1_555 1_555
C7J N1J 1_555 1_555
H3J C7J 1_555 1_555
C8J C7J 1_555 1_555
H4J C8J 1_555 1_555
C9J C8J 1_555 1_555
H5J C9J 1_555 1_555
C10J C9J 1_555 1_555
C11J N1J 1_555 1_555
H6J C11J 1_555 1_555
C12J C10J 1_555 1_555
O2MD Ni1E 1_555 1_555
C3MD C2J 1_555 1_555
H1MD C3MD 1_555 1_555
O2RF C1IC 1_555 1_555
C1IC C2IC 1_555 1_555
C2IC C3RF 1_555 1_555
C3RF C3J 1_555 1_555
H1RF C3RF 1_555 1_555
O2IC C1IC 1_555 1_555
C3IC C3MD 1_555 1_555
H1IC C3IC 1_555 1_555
Ni1L O1 1_555 1_555
Ni2I O5L 1_555 1_555
Ni3I O4L 1_555 1_555
O2L Ni1L 1_555 1_555
O3L Ni1L 1_555 1_555
O4L C12L 1_555 1_555
O5L C12L 1_555 1_555
O6I Ni2I 1_555 1_555
O7I Ni3I 1_555 1_555
N1L Ni1L 1_555 1_555
C1L O2L 1_555 1_555
C2L C1L 1_555 1_555
C3L C2L 1_555 1_555
H1L C3L 1_555 1_555
C4L O3L 1_555 1_555
C5L C4L 1_555 1_555
C6L C5L 1_555 1_555
H2L C6L 1_555 1_555
C7L N1L 1_555 1_555
H3L C7L 1_555 1_555
C8L C7L 1_555 1_555
H4L C8L 1_555 1_555
C9L C8L 1_555 1_555
H5L C9L 1_555 1_555
C10L C9L 1_555 1_555
C11L N1L 1_555 1_555
H6L C11L 1_555 1_555
C12L C10L 1_555 1_555
O2JD C1L 1_555 1_555
C3JD C2L 1_555 1_555
H1JD C3JD 1_555 1_555
O2SD C1LA 1_555 1_555
C1LA C2LA 1_555 1_555
C2LA C3SD 1_555 1_555
C3SD C3L 1_555 1_555
H1SD C3SD 1_555 1_555
O2LA C1LA 1_555 1_555
C3LA C3JD 1_555 1_555
H1LA C3LA 1_555 1_555
O3FD C4C 1_555 1_555
C4C C5C 1_555 1_555
C5C C6FD 1_555 1_555
C6FD C6L 1_555 1_555
H2FD C6FD 1_555 1_555
O3JD C4L 1_555 1_555
C6JD C5L 1_555 1_555
H2JD C6JD 1_555 1_555
O3C C4C 1_555 1_555
C6C C5C 1_555 1_555
H2C C6C 1_555 1_555
Ni1M O1 1_555 1_555
O2M Ni1M 1_555 1_555
O4M C12M 1_555 1_555
O5M C12M 1_555 1_555
N1M Ni1M 1_555 1_555
C1M O2M 1_555 1_555
C2M C1M 1_555 1_555
C3M C2M 1_555 1_555
H1M C3M 1_555 1_555
C7M N1M 1_555 1_555
H3M C7M 1_555 1_555
C8M C7M 1_555 1_555
H4M C8M 1_555 1_555
C9M C8M 1_555 1_555
H5M C9M 1_555 1_555
C10M C9M 1_555 1_555
C11M N1M 1_555 1_555
H6M C11M 1_555 1_555
C12M C10M 1_555 1_555
O2LD Ni1 1_555 1_555
C3LD C2M 1_555 1_555
H1LD C3LD 1_555 1_555
O2PF C1JC 1_555 1_555
C1JC C2JC 1_555 1_555
C2JC C3PF 1_555 1_555
C3PF C3M 1_555 1_555
H1PF C3PF 1_555 1_555
O2JC C1JC 1_555 1_555
C3JC C3LD 1_555 1_555
H1JC C3JC 1_555 1_555
Ni1V O3V 1_555 1_555
O2V Ni1V 1_555 1_555
O4V Ni3I 1_555 1_555
O5V Ni2I 1_555 1_555
N1V Ni1V 1_555 1_555
C1V O2V 1_555 1_555
C2V C1V 1_555 1_555
C3V C2V 1_555 1_555
H1V C3V 1_555 1_555
C7V N1V 1_555 1_555
H3V C7V 1_555 1_555
C8V C7V 1_555 1_555
H4V C8V 1_555 1_555
C9V C8V 1_555 1_555
H5V C9V 1_555 1_555
C10V C9V 1_555 1_555
C11V N1V 1_555 1_555
H6V C11V 1_555 1_555
C12V O4V 1_555 1_555
O2ZC Ni1F 1_555 1_555
C3ZC C2V 1_555 1_555
H1ZC C3ZC 1_555 1_555
O2NE C1SB 1_555 1_555
C1SB C2SB 1_555 1_555
C2SB C3NE 1_555 1_555
C3NE C3V 1_555 1_555
H1NE C3NE 1_555 1_555
O2SB C1SB 1_555 1_555
C3SB C3ZC 1_555 1_555
H1SB C3SB 1_555 1_555
Ni1I O3FD 1_555 1_555
O4I Ni3I 1_555 1_555
O5I Ni2I 1_555 1_555
N1I Ni1I 1_555 1_555
C7I N1I 1_555 1_555
H3I C7I 1_555 1_555
C8I C7I 1_555 1_555
H4I C8I 1_555 1_555
C9I C8I 1_555 1_555
H5I C9I 1_555 1_555
C10I C9I 1_555 1_555
C11I N1I 1_555 1_555
H6I C11I 1_555 1_555
C12I O4I 1_555 1_555
Ni1A O1A 1_555 1_555
O4A Ni3A 1_555 1_555
O5A Ni2A 1_555 1_555
N1A Ni1A 1_555 1_555
C7A N1A 1_555 1_555
H3A C7A 1_555 1_555
C8A C7A 1_555 1_555
H4A C8A 1_555 1_555
C9A C8A 1_555 1_555
H5A C9A 1_555 1_555
C10A C9A 1_555 1_555
C11A N1A 1_555 1_555
H6A C11A 1_555 1_555
C12A O4A 1_555 1_555
Ni1S O1D 1_555 1_555
O4S C12S 1_555 1_555
O5S C12S 1_555 1_555
N1S Ni1S 1_555 1_555
C7S N1S 1_555 1_555
H3S C7S 1_555 1_555
C8S C7S 1_555 1_555
H4S C8S 1_555 1_555
C9S C8S 1_555 1_555
H5S C9S 1_555 1_555
C10S C9S 1_555 1_555
C11S N1S 1_555 1_555
H6S C11S 1_555 1_555
C12S C10S 1_555 1_555
O3ID Ni1V 1_555 1_555
C4A O3ID 1_555 1_555
C5A C4A 1_555 1_555
C6ID C5A 1_555 1_555
H2ID C6ID 1_555 1_555
O3K C4K 1_555 1_555
C4K C5K 1_555 1_555
C5K C6K 1_555 1_555
C6K C6ID 1_555 1_555
H2K C6K 1_555 1_555
O3A Ni1A 1_555 1_555
C6A C5A 1_555 1_555
H2A C6A 1_555 1_555
O3KD C4K 1_555 1_555
C6KD C5K 1_555 1_555
H2KD C6KD 1_555 1_555
Ni1P O3KD 1_555 1_555
O2KD Ni1P 1_555 1_555
O4P Ni3A 1_555 1_555
O5P Ni2A 1_555 1_555
N1P Ni1P 1_555 1_555
C1K O2KD 1_555 1_555
C2K C1K 1_555 1_555
C3KD C2K 1_555 1_555
H1KD C3KD 1_555 1_555
C7P N1P 1_555 1_555
H3P C7P 1_555 1_555
C8P C7P 1_555 1_555
H4P C8P 1_555 1_555
C9P C8P 1_555 1_555
H5P C9P 1_555 1_555
C10P C9P 1_555 1_555
C11P N1P 1_555 1_555
H6P C11P 1_555 1_555
C12P O4P 1_555 1_555
O2K C1K 1_555 1_555
C3K C2K 1_555 1_555
H1K C3K 1_555 1_555
O2OA C1OA 1_555 1_555
C1OA C2OA 1_555 1_555
C2OA C3OA 1_555 1_555
C3OA C3KD 1_555 1_555
H1OA C3OA 1_555 1_555
O2QD C1OA 1_555 1_555
C3QD C3K 1_555 1_555
H1QD C3QD 1_555 1_555
Ni1C O3C 1_555 1_555
Ni1G O1D 1_555 1_555
Ni1K O3K 1_555 1_555
Ni1N O1E 1_555 1_555
Ni1HA O2SD 1_555 1_555
Ni1LA O2LA 1_555 1_555
Ni1MA O2QD 1_555 1_555
Ni1OA O2OA 1_555 1_555
Ni1DB O2DB 1_555 1_555
Ni1MB O2JF 1_555 1_555
Ni1PB O2NE 1_555 1_555
Ni1SB O2SB 1_555 1_555
Ni1VB O2PF 1_555 1_555
Ni1BC O2RF 1_555 1_555
Ni1IC O2IC 1_555 1_555
Ni1JC O2JC 1_555 1_555
Ni2C O5M 1_555 1_555
Ni3C O4M 1_555 1_555
O1B Ni1P 1_555 1_555
O1C Ni1I 1_555 1_555
O2A Ni1A 1_555 1_555
O2D Ni1D 1_555 1_555
O2E Ni1E 1_555 1_555
O2F Ni1F 1_555 1_555
O2I Ni1I 1_555 1_555
O2P Ni1P 1_555 1_555
O2S Ni1S 1_555 1_555
O2TC Ni1D 1_555 1_555
O2UC Ni1J 1_555 1_555
O2FD Ni1I 1_555 1_555
O2GD Ni1A 1_555 1_555
O2HD Ni1S 1_555 1_555
O2ID Ni1V 1_555 1_555
O3I Ni1I 1_555 1_555
O3P Ni1P 1_555 1_555
O3S Ni1S 1_555 1_555
O3UC Ni1J 1_555 1_555
O4K Ni3I 1_555 1_555
O4R Ni3A 1_555 1_555
O5K Ni2I 1_555 1_555
O5R Ni2A 1_555 1_555
C10 C11 1_555 1_555
O2OD Ni1L 1_555 1_555
C2DB C3DB 1_555 1_555
O3OD Ni1L 1_555 1_555
C6OD C6V 1_555 1_555
O5D C12D 1_555 1_555
C10D C11D 1_555 1_555
C10D C12D 1_555 1_555
C5M C6LD 1_555 1_555
O3HD Ni1S 1_555 1_555
C6HD C6M 1_555 1_555
O3M Ni1M 1_555 1_555
O5E C12E 1_555 1_555
C10E C11E 1_555 1_555
C10E C12E 1_555 1_555
C5G C6TC 1_555 1_555
O3AD Ni1N 1_555 1_555
C6AD C6G 1_555 1_555
O3G Ni1G 1_555 1_555
O1A Ni1V 1_555 1_555
O5F C12F 1_555 1_555
C10F C11F 1_555 1_555
C10F C12F 1_555 1_555
C5J C6MD 1_555 1_555
O3GD Ni1A 1_555 1_555
C6GD C6J 1_555 1_555
O3J Ni1J 1_555 1_555
C1J O2MD 1_555 1_555
C10J C11J 1_555 1_555
C2IC C3IC 1_555 1_555
C10L C11L 1_555 1_555
O2JD Ni1M 1_555 1_555
C2LA C3LA 1_555 1_555
O3JD Ni1M 1_555 1_555
C6JD C6C 1_555 1_555
C1M O2LD 1_555 1_555
C10M C11M 1_555 1_555
C2JC C3JC 1_555 1_555
O5V C12V 1_555 1_555
C1V O2ZC 1_555 1_555
C10V C11V 1_555 1_555
C10V C12V 1_555 1_555
C2SB C3SB 1_555 1_555
O5I C12I 1_555 1_555
C10I C11I 1_555 1_555
C10I C12I 1_555 1_555
O5A C12A 1_555 1_555
C10A C11A 1_555 1_555
C10A C12A 1_555 1_555
O4S Ni3C 1_555 1_555
O5S Ni2C 1_555 1_555
C10S C11S 1_555 1_555
C4A O3A 1_555 1_555
C6A C6KD 1_555 1_555
O5P C12P 1_555 1_555
C10P C11P 1_555 1_555
C10P C12P 1_555 1_555
O2K Ni1K 1_555 1_555
C2OA C3QD 1_555 1_555
Ni1C O1C 1_555 1_555
Ni1K O1B 1_555 1_555

#END
