
#######################################################################
#
#                 Cambridge Crystallographic Data Centre
#                                CCDC 
#
#######################################################################
#
# If this CIF has been generated from an entry in the Cambridge 
# Structural Database, then it will include bibliographic, chemical, 
# crystal, experimental, refinement or atomic coordinate data resulting 
# from the CCDC's data processing and validation procedures.
#
#######################################################################

data_VAZTOG
_chemical_formula_moiety         '(C24 H16 O13 Zn4)n'
_symmetry_cell_setting           cubic
_symmetry_space_group_name_H-M   'F m -3 m'
_symmetry_Int_Tables_number      225
_space_group_name_Hall           '-F 4 2 3'
loop_
_symmetry_equiv_pos_site_id
_symmetry_equiv_pos_as_xyz
1 x,y,z
2 z,x,y
3 y,z,x
4 y,x,-z
5 y,-x,z
6 -y,x,z
7 x,z,-y
8 -x,z,y
9 x,-z,y
10 z,y,-x
11 z,-y,x
12 -z,y,x
13 x,1/2+y,1/2+z
14 z,1/2+x,1/2+y
15 y,1/2+z,1/2+x
16 y,1/2+x,1/2-z
17 y,1/2-x,1/2+z
18 -y,1/2+x,1/2+z
19 x,1/2+z,1/2-y
20 -x,1/2+z,1/2+y
21 x,1/2-z,1/2+y
22 z,1/2+y,1/2-x
23 z,1/2-y,1/2+x
24 -z,1/2+y,1/2+x
25 1/2+x,y,1/2+z
26 1/2+z,x,1/2+y
27 1/2+y,z,1/2+x
28 1/2+y,x,1/2-z
29 1/2+y,-x,1/2+z
30 1/2-y,x,1/2+z
31 1/2+x,z,1/2-y
32 1/2-x,z,1/2+y
33 1/2+x,-z,1/2+y
34 1/2+z,y,1/2-x
35 1/2+z,-y,1/2+x
36 1/2-z,y,1/2+x
37 1/2+x,1/2+y,z
38 1/2+z,1/2+x,y
39 1/2+y,1/2+z,x
40 1/2+y,1/2+x,-z
41 1/2+y,1/2-x,z
42 1/2-y,1/2+x,z
43 1/2+x,1/2+z,-y
44 1/2-x,1/2+z,y
45 1/2+x,1/2-z,y
46 1/2+z,1/2+y,-x
47 1/2+z,1/2-y,x
48 1/2-z,1/2+y,x
49 -x,-y,z
50 -x,y,-z
51 x,-y,-z
52 z,-x,-y
53 -z,-x,y
54 -z,x,-y
55 -y,z,-x
56 y,-z,-x
57 -y,-z,x
58 -y,-x,-z
59 -x,-z,-y
60 -z,-y,-x
61 -x,1/2-y,1/2+z
62 -x,1/2+y,1/2-z
63 x,1/2-y,1/2-z
64 z,1/2-x,1/2-y
65 -z,1/2-x,1/2+y
66 -z,1/2+x,1/2-y
67 -y,1/2+z,1/2-x
68 y,1/2-z,1/2-x
69 -y,1/2-z,1/2+x
70 -y,1/2-x,1/2-z
71 -x,1/2-z,1/2-y
72 -z,1/2-y,1/2-x
73 1/2-x,-y,1/2+z
74 1/2-x,y,1/2-z
75 1/2+x,-y,1/2-z
76 1/2+z,-x,1/2-y
77 1/2-z,-x,1/2+y
78 1/2-z,x,1/2-y
79 1/2-y,z,1/2-x
80 1/2+y,-z,1/2-x
81 1/2-y,-z,1/2+x
82 1/2-y,-x,1/2-z
83 1/2-x,-z,1/2-y
84 1/2-z,-y,1/2-x
85 1/2-x,1/2-y,z
86 1/2-x,1/2+y,-z
87 1/2+x,1/2-y,-z
88 1/2+z,1/2-x,-y
89 1/2-z,1/2-x,y
90 1/2-z,1/2+x,-y
91 1/2-y,1/2+z,-x
92 1/2+y,1/2-z,-x
93 1/2-y,1/2-z,x
94 1/2-y,1/2-x,-z
95 1/2-x,1/2-z,-y
96 1/2-z,1/2-y,-x
97 -x,-y,-z
98 -z,-x,-y
99 -y,-z,-x
100 -y,-x,z
101 -y,x,-z
102 y,-x,-z
103 -x,-z,y
104 x,-z,-y
105 -x,z,-y
106 -z,-y,x
107 -z,y,-x
108 z,-y,-x
109 -x,1/2-y,1/2-z
110 -z,1/2-x,1/2-y
111 -y,1/2-z,1/2-x
112 -y,1/2-x,1/2+z
113 -y,1/2+x,1/2-z
114 y,1/2-x,1/2-z
115 -x,1/2-z,1/2+y
116 x,1/2-z,1/2-y
117 -x,1/2+z,1/2-y
118 -z,1/2-y,1/2+x
119 -z,1/2+y,1/2-x
120 z,1/2-y,1/2-x
121 1/2-x,-y,1/2-z
122 1/2-z,-x,1/2-y
123 1/2-y,-z,1/2-x
124 1/2-y,-x,1/2+z
125 1/2-y,x,1/2-z
126 1/2+y,-x,1/2-z
127 1/2-x,-z,1/2+y
128 1/2+x,-z,1/2-y
129 1/2-x,z,1/2-y
130 1/2-z,-y,1/2+x
131 1/2-z,y,1/2-x
132 1/2+z,-y,1/2-x
133 1/2-x,1/2-y,-z
134 1/2-z,1/2-x,-y
135 1/2-y,1/2-z,-x
136 1/2-y,1/2-x,z
137 1/2-y,1/2+x,-z
138 1/2+y,1/2-x,-z
139 1/2-x,1/2-z,y
140 1/2+x,1/2-z,-y
141 1/2-x,1/2+z,-y
142 1/2-z,1/2-y,x
143 1/2-z,1/2+y,-x
144 1/2+z,1/2-y,-x
145 x,y,-z
146 x,-y,z
147 -x,y,z
148 -z,x,y
149 z,x,-y
150 z,-x,y
151 y,-z,x
152 -y,z,x
153 y,z,-x
154 y,x,z
155 x,z,y
156 z,y,x
157 x,1/2+y,1/2-z
158 x,1/2-y,1/2+z
159 -x,1/2+y,1/2+z
160 -z,1/2+x,1/2+y
161 z,1/2+x,1/2-y
162 z,1/2-x,1/2+y
163 y,1/2-z,1/2+x
164 -y,1/2+z,1/2+x
165 y,1/2+z,1/2-x
166 y,1/2+x,1/2+z
167 x,1/2+z,1/2+y
168 z,1/2+y,1/2+x
169 1/2+x,y,1/2-z
170 1/2+x,-y,1/2+z
171 1/2-x,y,1/2+z
172 1/2-z,x,1/2+y
173 1/2+z,x,1/2-y
174 1/2+z,-x,1/2+y
175 1/2+y,-z,1/2+x
176 1/2-y,z,1/2+x
177 1/2+y,z,1/2-x
178 1/2+y,x,1/2+z
179 1/2+x,z,1/2+y
180 1/2+z,y,1/2+x
181 1/2+x,1/2+y,-z
182 1/2+x,1/2-y,z
183 1/2-x,1/2+y,z
184 1/2-z,1/2+x,y
185 1/2+z,1/2+x,-y
186 1/2+z,1/2-x,y
187 1/2+y,1/2-z,x
188 1/2-y,1/2+z,x
189 1/2+y,1/2+z,-x
190 1/2+y,1/2+x,z
191 1/2+x,1/2+z,y
192 1/2+z,1/2+y,x
_cell_length_a                   25.8821(5)
_cell_length_b                   25.8821(5)
_cell_length_c                   25.8821(5)
_cell_angle_alpha                90
_cell_angle_beta                 90
_cell_angle_gamma                90
_cell_volume                     17338
loop_
_atom_site_label
_atom_site_type_symbol
_atom_site_fract_x
_atom_site_fract_y
_atom_site_fract_z
_atom_site_U_iso_or_equiv
_atom_site_thermal_displace_type
Zn1 Zn 0.2936(3) 0.2936(3) 0.2064(3) 0.0150 Uiso
O1 O 0.2500 0.2500 0.2500 0.0160 Uiso
O2 O 0.2808(2) 0.3667(3) 0.2192(2) 0.0240 Uiso
C1 C 0.2500 0.3895(4) 0.2500 0.0160 Uiso
C2 C 0.2500 0.4457(5) 0.2500 0.0160 Uiso
C3 C 0.2828(2) 0.4736(3) 0.2172(2) 0.0190 Uiso
H3 H 0.3071(5) 0.4515(7) 0.1929(5) 0.0430 Uiso
Zn1B Zn 0.2936(3) 0.2064(3) 0.2936(3) 0.0150 Uiso
Zn1A Zn 0.2064(3) 0.2936(3) 0.2936(3) 0.0150 Uiso
Zn1OD Zn 0.2064(3) 0.2064(3) 0.2064(3) 0.0150 Uiso
Zn1D Zn 0.2936(3) 0.7064(3) 0.2064(3) 0.0150 Uiso
Zn1J Zn 0.2064(3) 0.7064(3) 0.2936(3) 0.0150 Uiso
Zn1E Zn 0.7064(3) 0.2936(3) 0.2064(3) 0.0150 Uiso
Zn1G Zn 0.7064(3) 0.2064(3) 0.2936(3) 0.0150 Uiso
Zn1C Zn 0.2936(3) 0.2936(3) -0.2064(3) 0.0150 Uiso
Zn1V Zn 0.2064(3) 0.2064(3) -0.2064(3) 0.0150 Uiso
O2YE O 0.2192(2) 0.3667(3) 0.2808(2) 0.0240 Uiso
O2OE O 0.2808(2) 0.6333(3) 0.2192(2) 0.0240 Uiso
O2J O 0.2192(2) 0.6333(3) 0.2808(2) 0.0240 Uiso
O2WE O 0.3667(3) 0.2808(2) 0.2192(2) 0.0240 Uiso
O2B O 0.3667(3) 0.2192(2) 0.2808(2) 0.0240 Uiso
O2E O 0.6333(3) 0.2808(2) 0.2192(2) 0.0240 Uiso
O2UE O 0.6333(3) 0.2192(2) 0.2808(2) 0.0240 Uiso
O2KD O 0.2808(2) 0.2808(2) 0.1333(3) 0.0240 Uiso
O2XD O 0.2192(2) 0.2192(2) 0.1333(3) 0.0240 Uiso
O2T O 0.2808(2) 0.2808(2) -0.1333(3) 0.0240 Uiso
O2EA O 0.2192(2) 0.2192(2) -0.1333(3) 0.0240 Uiso
O2XE O 0.2808(2) 0.2192(2) 0.3667(3) 0.0240 Uiso
O2KE O 0.2808(2) 0.1333(3) 0.2808(2) 0.0240 Uiso
O2A O 0.2192(2) 0.2808(2) 0.3667(3) 0.0240 Uiso
O2TD O 0.1333(3) 0.2808(2) 0.2808(2) 0.0240 Uiso
O2OD O 0.2192(2) 0.1333(3) 0.2192(2) 0.0240 Uiso
O2EE O 0.1333(3) 0.2192(2) 0.2192(2) 0.0240 Uiso
C1J C 0.2500 0.6105(4) 0.2500 0.0160 Uiso
C1B C 0.3895(4) 0.2500 0.2500 0.0160 Uiso
C1E C 0.6105(4) 0.2500 0.2500 0.0160 Uiso
C1KD C 0.2500 0.2500 0.1105(4) 0.0160 Uiso
C1T C 0.2500 0.2500 -0.1105(4) 0.0160 Uiso
C2J C 0.2500 0.5543(5) 0.2500 0.0160 Uiso
C2B C 0.4457(5) 0.2500 0.2500 0.0160 Uiso
C2E C 0.5543(5) 0.2500 0.2500 0.0160 Uiso
C2KD C 0.2500 0.2500 0.0543(5) 0.0160 Uiso
C2T C 0.2500 0.2500 -0.0543(5) 0.0160 Uiso
C3OE C 0.2828(2) 0.5264(3) 0.2172(2) 0.0190 Uiso
C3J C 0.2172(2) 0.5264(3) 0.2828(2) 0.0190 Uiso
C3YE C 0.2172(2) 0.4736(3) 0.2828(2) 0.0190 Uiso
C3WE C 0.4736(3) 0.2828(2) 0.2172(2) 0.0190 Uiso
C3E C 0.5264(3) 0.2828(2) 0.2172(2) 0.0190 Uiso
C3UE C 0.5264(3) 0.2172(2) 0.2828(2) 0.0190 Uiso
C3B C 0.4736(3) 0.2172(2) 0.2828(2) 0.0190 Uiso
C3KD C 0.2828(2) 0.2828(2) 0.0264(3) 0.0190 Uiso
C3T C 0.2828(2) 0.2828(2) -0.0264(3) 0.0190 Uiso
C3EA C 0.2172(2) 0.2172(2) -0.0264(3) 0.0190 Uiso
C3XD C 0.2172(2) 0.2172(2) 0.0264(3) 0.0190 Uiso
H3YE H 0.1929(5) 0.4515(7) 0.3071(5) 0.0430 Uiso
H3J H 0.1929(5) 0.5485(7) 0.3071(5) 0.0430 Uiso
H3OE H 0.3071(5) 0.5485(7) 0.1929(5) 0.0430 Uiso
H3WE H 0.4515(7) 0.3071(5) 0.1929(5) 0.0430 Uiso
H3B H 0.4515(7) 0.1929(5) 0.3071(5) 0.0430 Uiso
H3UE H 0.5485(7) 0.1929(5) 0.3071(5) 0.0430 Uiso
H3E H 0.5485(7) 0.3071(5) 0.1929(5) 0.0430 Uiso
H3KD H 0.3071(5) 0.3071(5) 0.0485(7) 0.0430 Uiso
H3XD H 0.1929(5) 0.1929(5) 0.0485(7) 0.0430 Uiso
H3EA H 0.1929(5) 0.1929(5) -0.0485(7) 0.0430 Uiso
H3T H 0.3071(5) 0.3071(5) -0.0485(7) 0.0430 Uiso
H1 H 0.3323(15) 0.1677(15) 0.1677(15) 0.1000 Uiso
H2 H 0.3323(13) 0.1677(13) 0.140(2) 0.0400 Uiso
H2XE H 0.3323(13) 0.140(2) 0.1677(13) 0.0400 Uiso
H2ZD H 0.360(2) 0.1677(13) 0.1677(13) 0.0400 Uiso
loop_
_geom_bond_atom_site_label_1
_geom_bond_atom_site_label_2
_geom_bond_site_symmetry_1
_geom_bond_site_symmetry_2
H1 H2 1_555 1_555
Zn1 O1 1_555 1_555
O1 Zn1B 1_555 1_555
O2 Zn1 1_555 1_555
C1 O2 1_555 1_555
C2 C1 1_555 1_555
C3 C2 1_555 1_555
H3 C3 1_555 1_555
H2XE H1 1_555 1_555
H2ZD H1 1_555 1_555
Zn1B O2B 1_555 1_555
Zn1A O1 1_555 1_555
Zn1OD O1 1_555 1_555
Zn1D O2OE 1_555 1_555
Zn1J O2J 1_555 1_555
Zn1E O2E 1_555 1_555
Zn1G O2UE 1_555 1_555
Zn1C O2T 1_555 1_555
Zn1V O2EA 1_555 1_555
O2YE C1 1_555 1_555
O2OE C1J 1_555 1_555
O2J C1J 1_555 1_555
O2WE Zn1 1_555 1_555
O2B C1B 1_555 1_555
O2E C1E 1_555 1_555
O2UE C1E 1_555 1_555
O2KD Zn1 1_555 1_555
O2XD Zn1OD 1_555 1_555
O2T C1T 1_555 1_555
O2EA C1T 1_555 1_555
O2XE Zn1B 1_555 1_555
O2KE Zn1B 1_555 1_555
O2A Zn1A 1_555 1_555
O2TD Zn1A 1_555 1_555
O2OD Zn1OD 1_555 1_555
O2EE Zn1OD 1_555 1_555
C1J C2J 1_555 1_555
C1B O2WE 1_555 1_555
C1E C2E 1_555 1_555
C1KD O2KD 1_555 1_555
C1T C2T 1_555 1_555
C2J C3OE 1_555 1_555
C2B C1B 1_555 1_555
C2E C3E 1_555 1_555
C2KD C1KD 1_555 1_555
C2T C3T 1_555 1_555
C3OE C3 1_555 1_555
C3J C2J 1_555 1_555
C3YE C2 1_555 1_555
C3WE C2B 1_555 1_555
C3E C3WE 1_555 1_555
C3UE C2E 1_555 1_555
C3B C2B 1_555 1_555
C3KD C2KD 1_555 1_555
C3T C3KD 1_555 1_555
C3EA C2T 1_555 1_555
C3XD C2KD 1_555 1_555
H3YE C3YE 1_555 1_555
H3J C3J 1_555 1_555
H3OE C3OE 1_555 1_555
H3WE C3WE 1_555 1_555
H3B C3B 1_555 1_555
H3UE C3UE 1_555 1_555
H3E C3E 1_555 1_555
H3KD C3KD 1_555 1_555
H3XD C3XD 1_555 1_555
H3EA C3EA 1_555 1_555
H3T C3T 1_555 1_555
Zn1A O2YE 1_555 1_555
O2XD C1KD 1_555 1_555
C3J C3YE 1_555 1_555
C3UE C3B 1_555 1_555
C3EA C3XD 1_555 1_555

#END
