
#######################################################################
#
#                 Cambridge Crystallographic Data Centre
#                                CCDC 
#
#######################################################################
#
# If this CIF has been generated from an entry in the Cambridge 
# Structural Database, then it will include bibliographic, chemical, 
# crystal, experimental, refinement or atomic coordinate data resulting 
# from the CCDC's data processing and validation procedures.
#
#######################################################################

data_NUXMAU
_chemical_formula_moiety         '(C3 H12 Cu2 O9 P2)n'
_symmetry_cell_setting           orthorhombic
_symmetry_space_group_name_H-M   'P n c 2'
_symmetry_Int_Tables_number      30
_space_group_name_Hall           'P 2 -2bc'
loop_
_symmetry_equiv_pos_site_id
_symmetry_equiv_pos_as_xyz
1 x,y,z
2 -x,-y,z
3 -x,1/2+y,1/2+z
4 x,1/2-y,1/2+z
_cell_length_a                   4.3276(2)
_cell_length_b                   17.3181(8)
_cell_length_c                   6.7624(3)
_cell_angle_alpha                90
_cell_angle_beta                 90
_cell_angle_gamma                90
_cell_volume                     506.814
loop_
_atom_site_label
_atom_site_type_symbol
_atom_site_fract_x
_atom_site_fract_y
_atom_site_fract_z
P1 P -0.526(2) 0.1603(2) -0.009(2)
O1 O -0.673(2) 0.1864(4) 0.186(2)
O2 O -0.226(2) 0.2147(5) -0.038(1)
O3 O -0.714(3) 0.1627(7) -0.193(2)
O4 O -1.290(3) 0.3781(8) 0.073(2)
Cu1 Cu -0.993(1) 0.2567(2) 0.2253
C1 C -0.364(2) 0.0629(3) 0.041(2)
C2 C -0.5 0.0000 -0.077(2)
Cu1_2 Cu 0.007(1) 0.2567(2) 0.2253
Cu1C Cu 0.007(1) 0.2433(2) -0.2747
Cu1C_2 Cu -0.993(1) 0.2433(2) -0.2747
O2_2 O -1.226(2) 0.2147(5) -0.038(1)
O2C O -1.226(2) 0.2853(5) 0.462(1)
O3C O -0.714(3) 0.3373(7) 0.307(2)
C1A C -0.636(2) -0.0629(3) 0.041(2)
P1A P -0.474(2) -0.1603(2) -0.009(2)
O1A O -0.327(2) -0.1864(4) 0.186(2)
O2A O -0.774(2) -0.2147(5) -0.038(1)
O3A O -0.286(3) -0.1627(7) -0.193(2)
Cu1B Cu -0.007(1) -0.2433(2) -0.2747
Cu1A Cu -0.007(1) -0.2567(2) 0.2253
Cu1A_2 Cu -1.007(1) -0.2567(2) 0.2253
Cu1B_2 Cu -1.007(1) -0.2433(2) -0.2747
O1A_2 O -1.327(2) -0.1864(4) 0.186(2)
O2B O -0.774(2) -0.2853(5) 0.462(1)
O3B O -1.286(3) -0.3373(7) 0.307(2)
O4A O -0.710(3) -0.3781(8) 0.073(2)
O5 O -0.000 0.5000 -0.059(4)
loop_
_geom_bond_atom_site_label_1
_geom_bond_atom_site_label_2
_geom_bond_site_symmetry_1
_geom_bond_site_symmetry_2
P1 O1 1_555 1_555
O1 Cu1 1_555 1_555
O2 P1 1_555 1_555
O3 P1 1_555 1_555
O4 Cu1 1_555 1_555
Cu1 O2_2 1_555 1_555
C1 P1 1_555 1_555
C2 C1 1_555 1_555
Cu1_2 O2 1_555 1_555
Cu1C O2 1_555 1_555
Cu1C_2 O3 1_555 1_555
O2_2 Cu1C_2 1_555 1_555
O2C Cu1 1_555 1_555
O3C Cu1 1_555 1_555
C1A C2 1_555 1_555
P1A C1A 1_555 1_555
O1A P1A 1_555 1_555
O2A P1A 1_555 1_555
O3A P1A 1_555 1_555
Cu1B O3A 1_555 1_555
Cu1A O1A 1_555 1_555
Cu1A_2 O2A 1_555 1_555
Cu1B_2 O2A 1_555 1_555
O1A_2 Cu1A_2 1_555 1_555
O2B Cu1A_2 1_555 1_555
O3B Cu1A_2 1_555 1_555
O4A Cu1A_2 1_555 1_555

#END
