
#######################################################################
#
#                 Cambridge Crystallographic Data Centre
#                                CCDC 
#
#######################################################################
#
# If this CIF has been generated from an entry in the Cambridge 
# Structural Database, then it will include bibliographic, chemical, 
# crystal, experimental, refinement or atomic coordinate data resulting 
# from the CCDC's data processing and validation procedures.
#
#######################################################################

data_XOVPIH
_chemical_formula_moiety         '(C18 H38 Ce2 O19)n'
_symmetry_cell_setting           triclinic
_symmetry_space_group_name_H-M   'P -1'
_symmetry_Int_Tables_number      2
_space_group_name_Hall           '-P 1'
loop_
_symmetry_equiv_pos_site_id
_symmetry_equiv_pos_as_xyz
1 x,y,z
2 -x,-y,-z
_cell_length_a                   9.2275(18)
_cell_length_b                   9.771(2)
_cell_length_c                   10.699(2)
_cell_angle_alpha                67.81(3)
_cell_angle_beta                 84.49(3)
_cell_angle_gamma                61.84(3)
_cell_volume                     783.468
loop_
_atom_site_label
_atom_site_type_symbol
_atom_site_fract_x
_atom_site_fract_y
_atom_site_fract_z
Ce1 Ce 0.27715(3) 0.95616(3) 0.01686(2)
O1 O 0.0785(5) 1.2323(4) -0.1712(4)
O2 O 0.1929(5) 1.2655(5) -0.0215(4)
C1 C 0.0940(6) 1.3273(6) -0.1227(5)
C2 C -0.0143(7) 1.5149(7) -0.1900(6)
H1 H -0.1012 1.5510 -0.1330
H2 H -0.0663 1.5393 -0.2758
C3 C 0.0784(6) 1.6158(6) -0.2160(6)
H3 H 0.1199 1.6030 -0.1302
H4 H 0.1719 1.5740 -0.2659
C4 C -0.0358(6) 1.7996(6) -0.2965(5)
H5 H -0.1320 1.8381 -0.2481
H6 H -0.0736 1.8111 -0.3832
C5 C 0.0442(7) 1.9114(6) -0.3218(5)
H7 H 0.1403 1.8731 -0.3703
H8 H -0.0333 2.0250 -0.3792
C6 C 0.0966(6) 1.9133(6) -0.1931(5)
O3 O 0.2429(5) 1.8804(5) -0.1726(4)
O4 O -0.0082(5) 1.9500(5) -0.1110(4)
O5 O 0.3742(5) 0.8661(6) 0.2649(4)
O6 O 0.5252(5) 0.9680(5) 0.1340(4)
C7 C 0.4894(6) 0.9055(6) 0.2511(5)
C8 C 0.5762(7) 0.8833(8) 0.3743(5)
H9 H 0.6702 0.9033 0.3488
H10 H 0.6167 0.7689 0.4394
C9 C 0.4583(7) 1.0052(8) 0.4396(6)
H11 H 0.4130 1.1188 0.3723
H12 H 0.3672 0.9810 0.4685
O7 O 0.2457(5) 0.7012(5) 0.1497(5)
H13 H 0.2728 0.6837 0.2314
H14 H 0.1552 0.7006 0.1491
O8 O 0.5363(5) 0.6896(5) 0.0384(5)
H15 H 0.5621 0.6124 0.0078
H16 H 0.6200 0.7094 0.0279
C9A C 0.5417(7) 0.9948(8) 0.5604(6)
C8A C 0.4238(7) 1.1167(8) 0.6257(5)
C7A C 0.5106(6) 1.0945(6) 0.7489(5)
O5A O 0.6258(5) 1.1339(6) 0.7351(4)
O6A O 0.4748(5) 1.0320(5) 0.8660(4)
H9A H 0.3298 1.0967 0.6512
H10A H 0.3833 1.2311 0.5606
H11A H 0.5870 0.8812 0.6277
H12A H 0.6328 1.0190 0.5315
O1_2 O 0.0785(5) 0.2323(4) -0.1712(4)
O2_2 O 0.1929(5) 0.2655(5) -0.0215(4)
C1_2 C 0.0940(6) 0.3273(6) -0.1227(5)
C2_2 C -0.0143(7) 0.5149(7) -0.1900(6)
H1_2 H -0.1012 0.5510 -0.1330
H2_2 H -0.0663 0.5393 -0.2758
C3_2 C 0.0784(6) 0.6158(6) -0.2160(6)
H3_2 H 0.1199 0.6030 -0.1302
H4_2 H 0.1719 0.5740 -0.2659
C4_2 C -0.0358(6) 0.7996(6) -0.2965(5)
H5_2 H -0.1320 0.8381 -0.2481
H6_2 H -0.0736 0.8111 -0.3832
C5_2 C 0.0442(7) 0.9114(6) -0.3218(5)
H7_2 H 0.1403 0.8731 -0.3703
H8_2 H -0.0333 1.0250 -0.3792
C6_2 C 0.0966(6) 0.9133(6) -0.1931(5)
O3_2 O 0.2429(5) 0.8804(5) -0.1726(4)
O4_2 O -0.0082(5) 0.9500(5) -0.1110(4)
Ce1_2 Ce 0.27715(3) -0.04384(3) 0.01686(2)
O7_2 O 0.2457(5) -0.2988(5) 0.1497(5)
H13_2 H 0.2728 -0.3163 0.2314
H14_2 H 0.1552 -0.2994 0.1491
O8_2 O 0.5363(5) -0.3104(5) 0.0384(5)
H15_2 H 0.5621 -0.3876 0.0078
H16_2 H 0.6200 -0.2906 0.0279
O4A O 0.0082(5) 1.0500(5) 0.1110(4)
O6A_2 O 0.4748(5) 1.0320(5) -0.1340(4)
Ce1_3 Ce 0.27715(3) 1.95616(3) 0.01686(2)
Ce1A Ce -0.27715(3) 2.04384(3) -0.01686(2)
Ce1A_2 Ce 0.72285(3) 1.04384(3) -0.01686(2)
Ce1A_3 Ce 0.72285(3) 1.04384(3) 0.98314(2)
Ce1_4 Ce 0.27715(3) 0.95616(3) 1.01686(2)
Ce1A_4 Ce -0.27715(3) 1.04384(3) -0.01686(2)
O3_3 O 0.2429(5) -0.1196(5) -0.1726(4)
O4A_2 O 0.0082(5) 0.0500(5) 0.1110(4)
O5_2 O 0.3742(5) -0.1339(6) 0.2649(4)
O6_2 O 0.5252(5) -0.0320(5) 0.1340(4)
O6A_3 O 0.4748(5) 0.0320(5) -0.1340(4)
O9 O 0.5291(6) 0.4012(6) 0.2397(5)
H17 H 0.6135 0.3187 0.2264
H18 H 0.4748 0.3590 0.2945
O10 O -0.0605(8) 1.3794(9) -0.4509(6)
H19 H -0.0004 1.3168 -0.3730
H20 H 0.0121 1.3919 -0.5079
O11 O 0.3514(6) 0.6381(6) 0.5030(5)
H21 H 0.3425 0.7321 0.4487
H22 H 0.2623 0.6569 0.5407
loop_
_geom_bond_atom_site_label_1
_geom_bond_atom_site_label_2
_geom_bond_site_symmetry_1
_geom_bond_site_symmetry_2
Ce1 O1 1_555 1_555
O1 C1 1_555 1_555
O2 Ce1 1_555 1_555
C1 O2 1_555 1_555
C2 C1 1_555 1_555
H1 C2 1_555 1_555
H2 C2 1_555 1_555
C3 C2 1_555 1_555
H3 C3 1_555 1_555
H4 C3 1_555 1_555
C4 C3 1_555 1_555
H5 C4 1_555 1_555
H6 C4 1_555 1_555
C5 C4 1_555 1_555
H7 C5 1_555 1_555
H8 C5 1_555 1_555
C6 C5 1_555 1_555
O3 C6 1_555 1_555
O4 C6 1_555 1_555
O5 Ce1 1_555 1_555
O6 Ce1 1_555 1_555
C7 O5 1_555 1_555
C8 C7 1_555 1_555
H9 C8 1_555 1_555
H10 C8 1_555 1_555
C9 C8 1_555 1_555
H11 C9 1_555 1_555
H12 C9 1_555 1_555
O7 Ce1 1_555 1_555
H13 O7 1_555 1_555
H14 O7 1_555 1_555
O8 Ce1 1_555 1_555
H15 O8 1_555 1_555
H16 O8 1_555 1_555
O9 H17 1_555 1_555
H18 O9 1_555 1_555
O10 H19 1_555 1_555
H20 O10 1_555 1_555
O11 H21 1_555 1_555
H22 O11 1_555 1_555
C9A C9 1_555 1_555
C8A C9A 1_555 1_555
C7A C8A 1_555 1_555
O5A C7A 1_555 1_555
O6A C7A 1_555 1_555
H9A C8A 1_555 1_555
H10A C8A 1_555 1_555
H11A C9A 1_555 1_555
H12A C9A 1_555 1_555
O1_2 C1_2 1_555 1_555
O2_2 C1_2 1_555 1_555
C1_2 C2_2 1_555 1_555
C2_2 H1_2 1_555 1_555
H2_2 C2_2 1_555 1_555
C3_2 C2_2 1_555 1_555
H3_2 C3_2 1_555 1_555
H4_2 C3_2 1_555 1_555
C4_2 C3_2 1_555 1_555
H5_2 C4_2 1_555 1_555
H6_2 C4_2 1_555 1_555
C5_2 C4_2 1_555 1_555
H7_2 C5_2 1_555 1_555
H8_2 C5_2 1_555 1_555
C6_2 C5_2 1_555 1_555
O3_2 Ce1 1_555 1_555
O4_2 C6_2 1_555 1_555
Ce1_2 O1_2 1_555 1_555
O7_2 Ce1_2 1_555 1_555
H13_2 O7_2 1_555 1_555
H14_2 O7_2 1_555 1_555
O8_2 Ce1_2 1_555 1_555
H15_2 O8_2 1_555 1_555
H16_2 O8_2 1_555 1_555
O4A Ce1 1_555 1_555
O6A_2 Ce1 1_555 1_555
Ce1_3 O3 1_555 1_555
Ce1A O4 1_555 1_555
Ce1A_2 O6 1_555 1_555
Ce1A_3 O5A 1_555 1_555
Ce1_4 O6A 1_555 1_555
Ce1A_4 O4_2 1_555 1_555
O3_3 Ce1_2 1_555 1_555
O4A_2 Ce1_2 1_555 1_555
O5_2 Ce1_2 1_555 1_555
O6_2 Ce1_2 1_555 1_555
O6A_3 Ce1_2 1_555 1_555
O6 C7 1_555 1_555
O6A Ce1A_3 1_555 1_555
O2_2 Ce1_2 1_555 1_555
C6_2 O3_2 1_555 1_555
O6A_2 Ce1A_2 1_555 1_555

#END
