
#######################################################################
#
#                 Cambridge Crystallographic Data Centre
#                                CCDC 
#
#######################################################################
#
# If this CIF has been generated from an entry in the Cambridge 
# Structural Database, then it will include bibliographic, chemical, 
# crystal, experimental, refinement or atomic coordinate data resulting 
# from the CCDC's data processing and validation procedures.
#
#######################################################################

data_QETQIP
_chemical_formula_moiety         'C278 Cl8 N54 O58 Rh20'
_symmetry_cell_setting           monoclinic
_symmetry_space_group_name_H-M   'P 2/c'
_symmetry_Int_Tables_number      13
_space_group_name_Hall           '-P 2yc'
loop_
_symmetry_equiv_pos_site_id
_symmetry_equiv_pos_as_xyz
1 x,y,z
2 x,-y,1/2+z
3 -x,-y,-z
4 -x,y,1/2-z
_cell_length_a                   19.458(1)
_cell_length_b                   22.577(1)
_cell_length_c                   45.763(2)
_cell_angle_alpha                90
_cell_angle_beta                 96.352(1)
_cell_angle_gamma                90
_cell_volume                     19980.4
loop_
_atom_site_label
_atom_site_type_symbol
_atom_site_fract_x
_atom_site_fract_y
_atom_site_fract_z
Rh1 Rh -0.51178(5) -0.01439(4) 1.42632(2)
Rh2 Rh -0.47429(5) -0.10783(4) 1.45118(2)
Rh3 Rh -1.03575(5) 0.35529(4) 1.481207(19)
Rh4 Rh -1.12364(4) 0.39992(4) 1.509149(19)
Rh5 Rh -0.67411(5) 0.40014(5) 1.234365(19)
Rh6 Rh -0.61866(5) 0.40579(4) 1.188918(18)
N1 N -0.5775(5) -0.0621(5) 1.3989(2)
N2 N -0.5330(5) -0.1509(4) 1.4193(2)
N3 N -0.4360(5) -0.0274(5) 1.3997(2)
N4 N -0.3922(5) -0.1054(4) 1.4278(2)
N5 N -1.0432(5) 0.2812(4) 1.5055(2)
N6 N -1.1132(5) 0.3295(4) 1.53632(19)
N7 N -1.1139(5) 0.3276(4) 1.4512(2)
N8 N -1.1967(5) 0.3583(4) 1.4815(2)
N9 N -0.7363(5) 0.4673(4) 1.2201(2)
N10 N -0.6965(5) 0.4617(4) 1.1736(2)
N11 N -0.7405(5) 0.3397(5) 1.2136(2)
N12 N -0.6712(5) 0.3322(4) 1.17473(19)
N13 N -0.5556(5) 0.0789(4) 1.4139(2)
N14 N -0.6773(5) 0.2600(4) 1.3713(2)
N15 N -0.7716(5) 0.3195(4) 1.38092(19)
N16 N -0.7287(5) 0.2476(4) 1.41582(19)
N17 N -0.9395(5) 0.3323(4) 1.4570(2)
N18 N -0.7005(5) 0.3872(4) 1.2823(2)
N19 N -0.1954(4) -0.5423(4) 1.53276(18)
N20 N -0.3565(5) -0.3718(4) 1.53606(19)
N21 N -0.4504(4) -0.3432(4) 1.56181(19)
N22 N -0.3861(4) -0.4305(4) 1.57555(18)
N23 N -0.5603(5) -0.4148(4) 1.64868(19)
N24 N -0.4500(5) -0.1906(4) 1.4807(2)
O1 O -0.3940(9) 0.1031(8) 1.2992(4)
O2 O -0.1734(7) -0.2629(6) 1.4619(3)
O3 O -0.9469(13) 0.0514(11) 1.4792(5)
O4 O -1.2302(9) 0.3264(8) 1.6424(4)
O5 O -1.0945(10) 0.2601(9) 1.3346(4)
O6 O -1.4725(7) 0.4041(6) 1.4942(3)
O7 O -0.9265(8) 0.5840(7) 1.2831(3)
O8 O -0.7392(6) 0.5538(5) 1.0595(2)
O9 O -0.5798(5) 0.2004(5) 1.0832(2)
O10 O -0.4423(4) 0.0287(3) 1.45633(16)
O11 O -0.4170(4) -0.0552(3) 1.48284(16)
O12 O -0.4166(4) 0.0089(4) 1.54392(17)
O13 O -0.4415(4) 0.0987(3) 1.52489(17)
O14 O -1.0347(4) 0.4354(3) 1.45911(15)
O15 O -1.1263(4) 0.4694(3) 1.47981(15)
O16 O -1.0363(4) 0.6082(3) 1.48638(15)
O17 O -0.9545(4) 0.5577(3) 1.46589(15)
O18 O -0.6089(4) 0.3300(3) 1.24570(16)
O19 O -0.5401(4) 0.3510(3) 1.21072(16)
O20 O -0.5972(4) 0.4582(3) 1.25187(16)
O21 O -0.5612(4) 0.4767(3) 1.20776(16)
C1 C -0.4121(6) 0.0001(5) 1.4781(3)
C2 C -1.0169(5) 0.5711(5) 1.4688(2)
C3 C -1.0778(5) 0.4746(4) 1.4636(2)
C4 C -1.0724(6) 0.5357(5) 1.4492(2)
C5 C -0.4109(6) 0.0493(5) 1.5253(2)
C6 C -0.3656(7) 0.0356(6) 1.5008(3)
C7 C -0.5540(6) 0.3250(5) 1.2338(2)
C8 C -0.5000 0.2848(7) 1.2500
C9 C -0.5574(6) 0.4827(5) 1.2355(2)
C10 C -0.5000 0.5214(8) 1.2500
C11 C -0.5669(6) 0.1020(5) 1.3869(3)
C12 C -0.6072(7) 0.1534(6) 1.3803(3)
C13 C -0.6369(6) 0.1811(5) 1.4036(2)
C14 C -0.6245(6) 0.1568(5) 1.4323(2)
C15 C -0.5817(6) 0.1064(5) 1.4363(3)
C16 C -0.6822(6) 0.2328(5) 1.3969(2)
C17 C -0.7218(6) 0.3037(5) 1.3644(2)
C18 C -0.7720(5) 0.2908(5) 1.4067(2)
C19 C -0.8274(5) 0.3060(5) 1.4250(2)
C20 C -0.8305(6) 0.2820(5) 1.4527(2)
C21 C -0.8872(6) 0.2956(5) 1.4685(3)
C22 C -0.9321(6) 0.3599(5) 1.4316(3)
C23 C -0.8792(6) 0.3469(5) 1.4144(3)
C24 C -0.7159(6) 0.3345(5) 1.3367(2)
C25 C -0.6510(5) 0.3371(5) 1.3259(2)
C26 C -0.6453(6) 0.3657(5) 1.2994(2)
C27 C -0.7638(6) 0.3852(5) 1.2924(3)
C28 C -0.7739(6) 0.3596(5) 1.3200(3)
C29 C -0.1848(6) -0.4839(5) 1.5291(2)
C30 C -0.2332(6) -0.4425(5) 1.5359(2)
C31 C -0.2932(5) -0.4611(5) 1.5482(2)
C32 C -0.3019(6) -0.5214(5) 1.5533(2)
C33 C -0.2510(6) -0.5606(5) 1.5452(2)
C34 C -0.3487(6) -0.4186(5) 1.5536(2)
C35 C -0.4100(5) -0.3355(5) 1.5407(2)
C36 C -0.4356(6) -0.3913(5) 1.5788(2)
C37 C -0.4793(6) -0.4023(5) 1.6030(2)
C38 C -0.4514(6) -0.4228(5) 1.6303(2)
C39 C -0.4935(6) -0.4279(5) 1.6527(2)
C40 C -0.5893(6) -0.3987(5) 1.6215(3)
C41 C -0.5516(6) -0.3888(5) 1.5982(2)
C42 C -0.4239(6) -0.2857(5) 1.5203(3)
C43 C -0.3917(7) -0.2819(6) 1.4946(3)
C44 C -0.4054(7) -0.2350(6) 1.4753(3)
C45 C -0.4822(6) -0.1957(6) 1.5051(3)
C46 C -0.4721(6) -0.2422(5) 1.5253(3)
C47 C -0.5758(7) -0.1217(6) 1.3993(3)
C48 C -0.3897(6) -0.0698(5) 1.4050(3)
C49 C -1.0776(6) 0.2828(5) 1.5295(3)
C50 C -1.1792(6) 0.3355(5) 1.4564(3)
C51 C -0.7396(6) 0.4845(5) 1.1914(3)
C52 C -0.7223(6) 0.3121(6) 1.1895(3)
C60 C -0.6227(9) -0.0324(8) 1.3753(4)
C61 C -0.6760(10) 0.0005(9) 1.3850(4)
C62 C -0.7254(10) 0.0285(8) 1.3645(5)
C63 C -0.7087(11) 0.0163(7) 1.3338(4)
C64 C -0.6602(13) -0.0132(9) 1.3233(3)
C65 C -0.6126(11) -0.0397(9) 1.3461(4)
O23 O -0.7693(14) 0.0540(11) 1.3127(6)
C66 C -0.7737(17) 0.0124(14) 1.2896(5)
C67 C -0.5383(13) -0.2144(8) 1.4193(5)
C68 C -0.5989(14) -0.2394(11) 1.4270(5)
C69 C -0.6057(16) -0.3035(13) 1.4231(6)
C70 C -0.5560(12) -0.3350(10) 1.4139(5)
C71 C -0.4956(19) -0.3117(14) 1.4034(8)
C72 C -0.4879(11) -0.2488(10) 1.4083(5)
O24 O -0.5664(9) -0.3991(8) 1.4129(4)
C73 C -0.5151(15) -0.4366(11) 1.4052(6)
C81 C -0.4252(6) 0.0089(6) 1.3743(3)
C82 C -0.4304(11) -0.0225(9) 1.3467(5)
C83 C -0.4214(12) 0.0172(11) 1.3206(5)
C84 C -0.4040(9) 0.0735(8) 1.3259(4)
C85 C -0.3952(8) 0.1011(7) 1.3523(4)
C86 C -0.4082(7) 0.0668(7) 1.3769(3)
C87 C -0.3706(13) 0.1638(12) 1.3025(5)
C88 C -0.3324(7) -0.1455(6) 1.4347(3)
C89 C -0.3147(7) -0.1852(6) 1.4138(3)
C90 C -0.2580(8) -0.2251(7) 1.4224(3)
C91 C -0.2282(9) -0.2214(7) 1.4508(4)
C92 C -0.2441(9) -0.1822(8) 1.4708(4)
C93 C -0.2980(8) -0.1421(7) 1.4632(3)
C94 C -0.1482(10) -0.3029(9) 1.4413(4)
C95 C -1.0131(7) 0.2237(6) 1.5002(3)
C96 C -1.0181(10) 0.2029(9) 1.4723(4)
C97 C -0.9917(13) 0.1433(11) 1.4666(5)
C98 C -0.9608(11) 0.1185(10) 1.4912(5)
C99 C -0.9465(12) 0.1371(11) 1.5185(5)
C100 C -0.9751(9) 0.1950(8) 1.5223(4)
C101 C -0.906(3) 0.036(2) 1.5062(11)
C102 C -1.1441(6) 0.3263(5) 1.5633(3)
C103 C -1.1278(8) 0.3697(6) 1.5842(3)
C104 C -1.1595(9) 0.3674(8) 1.6116(4)
C105 C -1.2035(10) 0.3234(9) 1.6136(4)
C106 C -1.2235(10) 0.2812(9) 1.5952(4)
C107 C -1.1911(8) 0.2834(7) 1.5674(4)
C108 C -1.2807(19) 0.2865(16) 1.6430(7)
C109 C -1.1077(7) 0.3090(7) 1.4222(3)
C110 C -1.1266(11) 0.2464(9) 1.4157(5)
C111 C -1.1205(11) 0.2286(10) 1.3844(5)
C112 C -1.0987(10) 0.2762(10) 1.3662(5)
C113 C -1.0934(10) 0.3359(10) 1.3691(4)
C114 C -1.1011(10) 0.3513(8) 1.4010(4)
C115 C -1.1189(17) 0.1990(16) 1.3258(7)
C116 C -1.2682(6) 0.3684(5) 1.4831(2)
C117 C -1.3081(9) 0.3265(7) 1.4964(3)
C118 C -1.3787(9) 0.3404(8) 1.4990(4)
C119 C -1.4040(8) 0.3903(7) 1.4905(3)
C120 C -1.3686(8) 0.4339(7) 1.4775(3)
C121 C -1.2975(7) 0.4215(6) 1.4737(3)
C122 C -1.496(2) 0.3995(17) 1.5201(9)
C124 C -0.7827(7) 0.4948(6) 1.2361(3)
C125 C -0.7606(8) 0.5193(6) 1.2630(3)
C126 C -0.8058(9) 0.5495(7) 1.2802(3)
C127 C -0.8749(9) 0.5522(8) 1.2682(4)
C128 C -0.9027(10) 0.5290(8) 1.2416(4)
C129 C -0.8544(9) 0.5002(8) 1.2251(4)
C130 C -0.9109(17) 0.6096(14) 1.3119(7)
C131 C -0.7039(6) 0.4870(5) 1.1447(2)
C132 C -0.7543(7) 0.4624(6) 1.1238(3)
C133 C -0.7653(7) 0.4864(6) 1.0950(3)
C134 C -0.7261(7) 0.5310(6) 1.0896(3)
C135 C -0.6703(8) 0.5572(7) 1.1086(3)
C136 C -0.6602(7) 0.5308(6) 1.1382(3)
C137 C -0.6959(10) 0.5978(8) 1.0494(4)
C138 C -0.7832(10) 0.2988(10) 1.2302(4)
C139 C -0.7505(13) 0.2544(12) 1.2491(6)
C140 C -0.7944(17) 0.2168(14) 1.2661(6)
C141 C -0.8665(17) 0.2399(16) 1.2635(7)
C142 C -0.8944(14) 0.2783(15) 1.2485(6)
C143 C -0.8504(11) 0.3165(13) 1.2321(5)
O26 O -0.913(2) 0.1980(18) 1.2785(9)
C150 C -0.902(3) 0.219(2) 1.2982(11)
C151 C -0.6531(6) 0.2964(5) 1.1518(3)
C152 C -0.7014(8) 0.2802(6) 1.1271(3)
C153 C -0.6769(7) 0.2453(6) 1.1034(3)
C154 C -0.6113(7) 0.2320(6) 1.1053(3)
C155 C -0.5607(7) 0.2464(6) 1.1279(3)
C156 C -0.5841(7) 0.2796(6) 1.1514(3)
C157 C -0.6280(9) 0.1810(8) 1.0583(4)
C7C C -0.4460(6) 0.3250(5) 1.2662(2)
O18C O -0.3911(4) 0.3300(3) 1.25430(16)
O19C O -0.4599(4) 0.3510(3) 1.28928(16)
C9C C -0.4426(6) 0.4827(5) 1.2645(2)
O20C O -0.4028(4) 0.4582(3) 1.24813(16)
O21C O -0.4388(4) 0.4767(3) 1.29224(16)
O10B O -0.5577(4) -0.0287(3) 1.54367(16)
O11B O -0.5830(4) 0.0552(3) 1.51716(16)
O12B O -0.5834(4) -0.0089(4) 1.45608(17)
O13B O -0.5585(4) -0.0987(3) 1.47511(17)
C1B C -0.5879(6) -0.0001(5) 1.5219(3)
C5B C -0.5891(6) -0.0493(5) 1.4747(2)
C6B C -0.6344(7) -0.0356(6) 1.4992(3)
Rh1B Rh -0.48822(5) 0.01439(4) 1.57368(2)
Rh2B Rh -0.52571(5) 0.10783(4) 1.54882(2)
O14B O -0.9653(4) 0.5646(3) 1.54089(15)
O15B O -0.8737(4) 0.5306(3) 1.52019(15)
O16B O -0.9637(4) 0.3918(3) 1.51362(15)
O17B O -1.0455(4) 0.4423(3) 1.53411(15)
C2B C -0.9831(5) 0.4289(5) 1.5312(2)
C3B C -0.9222(5) 0.5254(4) 1.5364(2)
C4B C -0.9276(6) 0.4643(5) 1.5508(2)
N1B N -0.4225(5) 0.0621(5) 1.6011(2)
N2B N -0.4670(5) 0.1509(4) 1.5807(2)
C47B C -0.4242(7) 0.1217(6) 1.6007(3)
C60B C -0.3773(9) 0.0324(8) 1.6247(4)
C61B C -0.3240(10) -0.0005(9) 1.6150(4)
C62B C -0.2746(10) -0.0285(8) 1.6355(5)
C63B C -0.2913(11) -0.0163(7) 1.6662(4)
C64B C -0.3398(13) 0.0132(9) 1.6767(3)
C65B C -0.3874(11) 0.0397(9) 1.6539(4)
O23B O -0.2307(14) -0.0540(11) 1.6873(6)
C66B C -0.2263(17) -0.0124(14) 1.7104(5)
C67B C -0.4617(13) 0.2144(8) 1.5807(5)
C68B C -0.4011(14) 0.2394(11) 1.5730(5)
C69B C -0.3943(16) 0.3035(13) 1.5769(6)
C70B C -0.4440(12) 0.3350(10) 1.5861(5)
C71B C -0.5044(19) 0.3117(14) 1.5966(8)
C72B C -0.5121(11) 0.2488(10) 1.5917(5)
O24B O -0.4336(9) 0.3991(8) 1.5871(4)
C73B C -0.4849(15) 0.4366(11) 1.5948(6)
N3B N -0.5640(5) 0.0274(5) 1.6003(2)
N4B N -0.6078(5) 0.1054(4) 1.5722(2)
O1B O -0.6060(9) -0.1031(8) 1.7008(4)
O2B O -0.8266(7) 0.2629(6) 1.5381(3)
C48B C -0.6103(6) 0.0698(5) 1.5950(3)
C81B C -0.5748(6) -0.0089(6) 1.6257(3)
C82B C -0.5696(11) 0.0225(9) 1.6533(5)
C83B C -0.5786(12) -0.0172(11) 1.6794(5)
C84B C -0.5960(9) -0.0735(8) 1.6741(4)
C85B C -0.6048(8) -0.1011(7) 1.6477(4)
C86B C -0.5918(7) -0.0668(7) 1.6231(3)
C87B C -0.6294(13) -0.1638(12) 1.6975(5)
C88B C -0.6676(7) 0.1455(6) 1.5653(3)
C89B C -0.6853(7) 0.1852(6) 1.5862(3)
C90B C -0.7420(8) 0.2251(7) 1.5776(3)
C91B C -0.7718(9) 0.2214(7) 1.5492(4)
C92B C -0.7559(9) 0.1822(8) 1.5292(4)
C93B C -0.7020(8) 0.1421(7) 1.5368(3)
C94B C -0.8518(10) 0.3029(9) 1.5587(4)
N13B N -0.4444(5) -0.0789(4) 1.5861(2)
N14B N -0.3227(5) -0.2600(4) 1.6287(2)
N15B N -0.2284(5) -0.3195(4) 1.61908(19)
N16B N -0.2713(5) -0.2476(4) 1.58418(19)
N17B N -0.0605(5) -0.3323(4) 1.5430(2)
N18B N -0.2995(5) -0.3872(4) 1.7177(2)
C11B C -0.4331(6) -0.1020(5) 1.6131(3)
C12B C -0.3928(7) -0.1534(6) 1.6197(3)
C13B C -0.3631(6) -0.1811(5) 1.5964(2)
C14B C -0.3755(6) -0.1568(5) 1.5677(2)
C15B C -0.4183(6) -0.1064(5) 1.5637(3)
C16B C -0.3178(6) -0.2328(5) 1.6031(2)
C17B C -0.2782(6) -0.3037(5) 1.6356(2)
C18B C -0.2280(5) -0.2908(5) 1.5933(2)
C19B C -0.1726(5) -0.3060(5) 1.5750(2)
C20B C -0.1695(6) -0.2820(5) 1.5473(2)
C21B C -0.1128(6) -0.2956(5) 1.5315(3)
C22B C -0.0679(6) -0.3599(5) 1.5684(3)
C23B C -0.1208(6) -0.3469(5) 1.5856(3)
C24B C -0.2841(6) -0.3345(5) 1.6633(2)
C25B C -0.3490(5) -0.3371(5) 1.6741(2)
C26B C -0.3547(6) -0.3657(5) 1.7006(2)
C27B C -0.2362(6) -0.3852(5) 1.7076(3)
C28B C -0.2261(6) -0.3596(5) 1.6800(3)
N19B N -0.8046(4) 0.5423(4) 1.46724(18)
N20B N -0.6435(5) 0.3718(4) 1.46394(19)
N21B N -0.5496(4) 0.3432(4) 1.43819(19)
N22B N -0.6139(4) 0.4305(4) 1.42445(18)
N23B N -0.4397(5) 0.4148(4) 1.35132(19)
N24B N -0.5500(5) 0.1906(4) 1.5193(2)
C29B C -0.8152(6) 0.4839(5) 1.4709(2)
C30B C -0.7668(6) 0.4425(5) 1.4641(2)
C31B C -0.7068(5) 0.4611(5) 1.4518(2)
C32B C -0.6981(6) 0.5214(5) 1.4467(2)
C33B C -0.7490(6) 0.5606(5) 1.4548(2)
C34B C -0.6513(6) 0.4186(5) 1.4464(2)
C35B C -0.5900(5) 0.3355(5) 1.4593(2)
C36B C -0.5644(6) 0.3913(5) 1.4212(2)
C37B C -0.5207(6) 0.4023(5) 1.3970(2)
C38B C -0.5486(6) 0.4228(5) 1.3697(2)
C39B C -0.5065(6) 0.4279(5) 1.3473(2)
C40B C -0.4107(6) 0.3987(5) 1.3785(3)
C41B C -0.4484(6) 0.3888(5) 1.4018(2)
C42B C -0.5761(6) 0.2857(5) 1.4797(3)
C43B C -0.6083(7) 0.2819(6) 1.5054(3)
C44B C -0.5946(7) 0.2350(6) 1.5247(3)
C45B C -0.5178(6) 0.1957(6) 1.4949(3)
C46B C -0.5279(6) 0.2422(5) 1.4747(3)
Rh3B Rh 0.03575(5) -0.35529(4) 1.518793(19)
Rh4_2 Rh -0.12364(4) -0.60008(4) 1.509149(19)
Rh5B Rh -0.32589(5) -0.40014(5) 1.765635(19)
Rh6A Rh -0.61866(5) -0.40579(4) 1.688918(18)
N5B N 0.0432(5) -0.2812(4) 1.4945(2)
N6B N 0.1132(5) -0.3295(4) 1.46368(19)
O3B O -0.0531(13) -0.0514(11) 1.5208(5)
O4B O 0.2302(9) -0.3264(8) 1.3576(4)
C49B C 0.0776(6) -0.2828(5) 1.4705(3)
C95B C 0.0131(7) -0.2237(6) 1.4998(3)
C96B C 0.0181(10) -0.2029(9) 1.5277(4)
C97B C -0.0083(13) -0.1433(11) 1.5334(5)
C98B C -0.0392(11) -0.1185(10) 1.5088(5)
C99B C -0.0535(12) -0.1371(11) 1.4815(5)
C100B C -0.0249(9) -0.1950(8) 1.4777(4)
C101B C -0.094(3) -0.036(2) 1.4938(11)
C102B C 0.1441(6) -0.3263(5) 1.4367(3)
C103B C 0.1278(8) -0.3697(6) 1.4158(3)
C104B C 0.1595(9) -0.3674(8) 1.3884(4)
C105B C 0.2035(10) -0.3234(9) 1.3864(4)
C106B C 0.2235(10) -0.2812(9) 1.4048(4)
C107B C 0.1911(8) -0.2834(7) 1.4326(4)
C108B C 0.2807(19) -0.2865(16) 1.3570(7)
N7B N 0.1139(5) -0.3276(4) 1.5488(2)
N8B N 0.1967(5) -0.3583(4) 1.5185(2)
O5B O 0.0945(10) -0.2601(9) 1.6654(4)
O6B O 0.4725(7) -0.4041(6) 1.5058(3)
C50B C 0.1792(6) -0.3355(5) 1.5436(3)
C109B C 0.1077(7) -0.3090(7) 1.5778(3)
C110B C 0.1266(11) -0.2464(9) 1.5843(5)
C111B C 0.1205(11) -0.2286(10) 1.6156(5)
C112B C 0.0987(10) -0.2762(10) 1.6338(5)
C113B C 0.0934(10) -0.3359(10) 1.6309(4)
C114B C 0.1011(10) -0.3513(8) 1.5990(4)
C115B C 0.1189(17) -0.1990(16) 1.6742(7)
C116B C 0.2682(6) -0.3684(5) 1.5169(2)
C117B C 0.3081(9) -0.3265(7) 1.5036(3)
C118B C 0.3787(9) -0.3404(8) 1.5010(4)
C119B C 0.4040(8) -0.3903(7) 1.5095(3)
C120B C 0.3686(8) -0.4339(7) 1.5225(3)
C121B C 0.2975(7) -0.4215(6) 1.5263(3)
C122B C 0.496(2) -0.3995(17) 1.4799(9)
N9B N -0.2637(5) -0.4673(4) 1.7799(2)
N10B N -0.3035(5) -0.4617(4) 1.8264(2)
O7B O -0.0735(8) -0.5840(7) 1.7169(3)
O8B O -0.2608(6) -0.5538(5) 1.9405(2)
C51B C -0.2604(6) -0.4845(5) 1.8086(3)
C124B C -0.2173(7) -0.4948(6) 1.7639(3)
C125B C -0.2394(8) -0.5193(6) 1.7370(3)
C126B C -0.1942(9) -0.5495(7) 1.7198(3)
C127B C -0.1251(9) -0.5522(8) 1.7318(4)
C128B C -0.0973(10) -0.5290(8) 1.7584(4)
C129B C -0.1456(9) -0.5002(8) 1.7749(4)
C130B C -0.0891(17) -0.6096(14) 1.6881(7)
C131B C -0.2961(6) -0.4870(5) 1.8553(2)
C132B C -0.2457(7) -0.4624(6) 1.8762(3)
C133B C -0.2347(7) -0.4864(6) 1.9050(3)
C134B C -0.2739(7) -0.5310(6) 1.9104(3)
C135B C -0.3297(8) -0.5572(7) 1.8914(3)
C136B C -0.3398(7) -0.5308(6) 1.8618(3)
C137B C -0.3041(10) -0.5978(8) 1.9506(4)
N11B N -0.2595(5) -0.3397(5) 1.7864(2)
N12B N -0.3288(5) -0.3322(4) 1.82527(19)
O9B O -0.4202(5) -0.2004(5) 1.9168(2)
C52B C -0.2777(6) -0.3121(6) 1.8105(3)
C138B C -0.2168(10) -0.2988(10) 1.7698(4)
C139B C -0.2495(13) -0.2544(12) 1.7509(6)
C140B C -0.2056(17) -0.2168(14) 1.7339(6)
C141B C -0.1335(17) -0.2399(16) 1.7365(7)
C142B C -0.1056(14) -0.2783(15) 1.7515(6)
C143B C -0.1496(11) -0.3165(13) 1.7679(5)
O26B O -0.087(2) -0.1980(18) 1.7215(9)
C150B C -0.098(3) -0.219(2) 1.7018(11)
C151B C -0.3469(6) -0.2964(5) 1.8482(3)
C152B C -0.2986(8) -0.2802(6) 1.8729(3)
C153B C -0.3231(7) -0.2453(6) 1.8966(3)
C154B C -0.3887(7) -0.2320(6) 1.8947(3)
C155B C -0.4393(7) -0.2464(6) 1.8721(3)
C156B C -0.4159(7) -0.2796(6) 1.8486(3)
C157B C -0.3720(9) -0.1810(8) 1.9417(4)
N19_2 N -1.1954(4) 0.4577(4) 1.53276(18)
N23A N -0.5603(5) 0.4148(4) 1.14868(19)
Rh3B_2 Rh -0.96425(5) 0.64471(4) 1.518793(19)
Rh4B Rh -0.87636(4) 0.60008(4) 1.490851(19)
Rh5C Rh -0.32589(5) 0.40014(5) 1.265635(19)
Rh6C Rh -0.38134(5) 0.40579(4) 1.311082(18)
Rh4B_2 Rh 0.12364(4) -0.39992(4) 1.490851(19)
O14B_2 O 0.0347(4) -0.4354(3) 1.54089(15)
O16_2 O -0.0363(4) -0.3918(3) 1.48638(15)
Rh3_2 Rh -0.03575(5) -0.64471(4) 1.481207(19)
N6_2 N -0.1132(5) -0.6705(4) 1.53632(19)
N8_2 N -0.1967(5) -0.6417(4) 1.4815(2)
O15_2 O -0.1263(4) -0.5306(3) 1.47981(15)
O17B_2 O -0.0455(4) -0.5577(3) 1.53411(15)
Rh6B Rh -0.38134(5) -0.40579(4) 1.811082(18)
O18B O -0.3911(4) -0.3300(3) 1.75430(16)
O20B O -0.4028(4) -0.4582(3) 1.74813(16)
Rh5A Rh -0.67411(5) -0.40014(5) 1.734365(19)
N10A N -0.6965(5) -0.4617(4) 1.6736(2)
N12A N -0.6712(5) -0.3322(4) 1.67473(19)
O19A O -0.5401(4) -0.3510(3) 1.71072(16)
O21A O -0.5612(4) -0.4767(3) 1.70776(16)
C158 C -1.078(2) 0.445(3) 1.1577(11)
Cl1 Cl -1.030(3) 0.477(2) 1.1329(10)
Cl2 Cl -1.0360(17) 0.4169(15) 1.1895(7)
C159 C -0.421(3) 0.1209(10) 1.1986(8)
Cl4 Cl -0.365(3) 0.079(2) 1.2300(11)
Cl5 Cl -0.4220(14) 0.1937(9) 1.1948(5)
C160 C -1.3050(12) 0.4621(11) 1.6328(5)
Cl8 Cl -1.2460(7) 0.5169(6) 1.6336(3)
Cl10 Cl -1.3297(10) 0.4785(9) 1.6642(4)
C161 C -1.209(2) 0.138(2) 1.5296(7)
Cl11 Cl -1.2567(16) 0.1167(14) 1.5606(6)
Cl12 Cl -1.209(2) 0.1724(17) 1.4934(7)
C162 C -0.7663(16) 0.0752(14) 1.4578(7)
C163 C -0.802(3) 0.109(2) 1.4412(11)
O28 O -0.845(3) 0.104(2) 1.4178(11)
C164 C -0.866(3) 0.140(2) 1.3980(11)
C165 C -0.923(4) 0.183(3) 1.3801(15)
O29 O -0.2519(19) 0.0227(16) 1.4370(8)
loop_
_geom_bond_atom_site_label_1
_geom_bond_atom_site_label_2
_geom_bond_site_symmetry_1
_geom_bond_site_symmetry_2
Rh1 Rh2 1_555 1_555
Rh2 N2 1_555 1_555
Rh3 Rh4 1_555 1_555
Rh4 N6 1_555 1_555
Rh5 Rh6 1_555 1_555
Rh6 N10 1_555 1_555
N1 Rh1 1_555 1_555
N2 C47 1_555 1_555
N3 Rh1 1_555 1_555
N4 Rh2 1_555 1_555
N5 Rh3 1_555 1_555
N6 C49 1_555 1_555
N7 Rh3 1_555 1_555
N8 Rh4 1_555 1_555
N9 Rh5 1_555 1_555
N10 C51 1_555 1_555
N11 Rh5 1_555 1_555
N12 Rh6 1_555 1_555
N13 Rh1 1_555 1_555
N14 C16 1_555 1_555
N15 C17 1_555 1_555
N16 C16 1_555 1_555
N17 Rh3 1_555 1_555
N18 Rh5 1_555 1_555
N19 C29 1_555 1_555
N20 C34 1_555 1_555
N21 C35 1_555 1_555
N22 C34 1_555 1_555
N23 C39 1_555 1_555
N24 Rh2 1_555 1_555
O1 C84 1_555 1_555
O2 C91 1_555 1_555
O3 C98 1_555 1_555
O4 C105 1_555 1_555
O5 C112 1_555 1_555
O6 C119 1_555 1_555
O7 C127 1_555 1_555
O8 C134 1_555 1_555
O9 C154 1_555 1_555
O10 Rh1 1_555 1_555
O11 Rh2 1_555 1_555
O12 C5 1_555 1_555
O13 C5 1_555 1_555
O14 Rh3 1_555 1_555
O15 Rh4 1_555 1_555
O16 C2 1_555 1_555
O17 C2 1_555 1_555
O18 Rh5 1_555 1_555
O19 Rh6 1_555 1_555
O20 Rh5 1_555 1_555
O21 Rh6 1_555 1_555
C1 O10 1_555 1_555
C2 C4 1_555 1_555
C3 O14 1_555 1_555
C4 C3 1_555 1_555
C5 C6 1_555 1_555
C6 C1 1_555 1_555
C7 O18 1_555 1_555
C8 C7 1_555 1_555
C9 O20 1_555 1_555
C10 C9 1_555 1_555
C11 N13 1_555 1_555
C12 C11 1_555 1_555
C13 C12 1_555 1_555
C14 C13 1_555 1_555
C15 N13 1_555 1_555
C16 C13 1_555 1_555
C17 N14 1_555 1_555
C18 N15 1_555 1_555
C19 C18 1_555 1_555
C20 C19 1_555 1_555
C21 N17 1_555 1_555
C22 N17 1_555 1_555
C23 C19 1_555 1_555
C24 C17 1_555 1_555
C25 C24 1_555 1_555
C26 N18 1_555 1_555
C27 N18 1_555 1_555
C28 C24 1_555 1_555
C29 C30 1_555 1_555
C30 C31 1_555 1_555
C31 C32 1_555 1_555
C32 C33 1_555 1_555
C33 N19 1_555 1_555
C34 C31 1_555 1_555
C35 N20 1_555 1_555
C36 N21 1_555 1_555
C37 C36 1_555 1_555
C38 C37 1_555 1_555
C39 C38 1_555 1_555
C40 N23 1_555 1_555
C41 C37 1_555 1_555
C42 C35 1_555 1_555
C43 C42 1_555 1_555
C44 N24 1_555 1_555
C45 N24 1_555 1_555
C46 C42 1_555 1_555
C47 N1 1_555 1_555
C48 N3 1_555 1_555
C49 N5 1_555 1_555
C50 N7 1_555 1_555
C51 N9 1_555 1_555
C52 N11 1_555 1_555
C60 N1 1_555 1_555
C61 C60 1_555 1_555
C62 C61 1_555 1_555
C63 C62 1_555 1_555
C64 C63 1_555 1_555
C65 C60 1_555 1_555
O23 C63 1_555 1_555
C66 O23 1_555 1_555
C67 N2 1_555 1_555
C68 C67 1_555 1_555
C69 C68 1_555 1_555
C70 C69 1_555 1_555
C71 C70 1_555 1_555
C72 C67 1_555 1_555
O24 C70 1_555 1_555
C73 O24 1_555 1_555
C81 N3 1_555 1_555
C82 C81 1_555 1_555
C83 C82 1_555 1_555
C84 C83 1_555 1_555
C85 C84 1_555 1_555
C86 C81 1_555 1_555
C87 O1 1_555 1_555
C88 N4 1_555 1_555
C89 C88 1_555 1_555
C90 C89 1_555 1_555
C91 C90 1_555 1_555
C92 C91 1_555 1_555
C93 C88 1_555 1_555
C94 O2 1_555 1_555
C95 N5 1_555 1_555
C96 C95 1_555 1_555
C97 C96 1_555 1_555
C98 C97 1_555 1_555
C99 C98 1_555 1_555
C100 C95 1_555 1_555
C101 O3 1_555 1_555
C102 N6 1_555 1_555
C103 C102 1_555 1_555
C104 C103 1_555 1_555
C105 C104 1_555 1_555
C106 C105 1_555 1_555
C107 C102 1_555 1_555
C108 O4 1_555 1_555
C109 N7 1_555 1_555
C110 C109 1_555 1_555
C111 C110 1_555 1_555
C112 C111 1_555 1_555
C113 C112 1_555 1_555
C114 C109 1_555 1_555
C115 O5 1_555 1_555
C116 N8 1_555 1_555
C117 C116 1_555 1_555
C118 C117 1_555 1_555
C119 C118 1_555 1_555
C120 C119 1_555 1_555
C121 C116 1_555 1_555
C122 O6 1_555 1_555
C124 N9 1_555 1_555
C125 C124 1_555 1_555
C126 C125 1_555 1_555
C127 C126 1_555 1_555
C128 C127 1_555 1_555
C129 C124 1_555 1_555
C130 O7 1_555 1_555
C131 N10 1_555 1_555
C132 C131 1_555 1_555
C133 C132 1_555 1_555
C134 C133 1_555 1_555
C135 C134 1_555 1_555
C136 C131 1_555 1_555
C137 O8 1_555 1_555
C138 N11 1_555 1_555
C139 C138 1_555 1_555
C140 C139 1_555 1_555
C141 C140 1_555 1_555
C142 C141 1_555 1_555
C143 C138 1_555 1_555
O26 C141 1_555 1_555
C150 O26 1_555 1_555
C151 N12 1_555 1_555
C152 C151 1_555 1_555
C153 C152 1_555 1_555
C154 C153 1_555 1_555
C155 C154 1_555 1_555
C156 C151 1_555 1_555
C157 O9 1_555 1_555
C158 Cl1 1_555 1_555
Cl2 C158 1_555 1_555
C159 Cl4 1_555 1_555
Cl5 C159 1_555 1_555
C160 Cl8 1_555 1_555
Cl10 C160 1_555 1_555
C161 Cl11 1_555 1_555
Cl12 C161 1_555 1_555
C162 C163 1_555 1_555
C163 O28 1_555 1_555
O28 C164 1_555 1_555
C164 C165 1_555 1_555
C7C C8 1_555 1_555
O18C C7C 1_555 1_555
O19C C7C 1_555 1_555
C9C C10 1_555 1_555
O20C C9C 1_555 1_555
O21C C9C 1_555 1_555
O10B C1B 1_555 1_555
O11B C1B 1_555 1_555
O12B Rh1 1_555 1_555
O13B Rh2 1_555 1_555
C1B C6B 1_555 1_555
C5B O12B 1_555 1_555
C6B C5B 1_555 1_555
Rh1B O12 1_555 1_555
Rh2B O13 1_555 1_555
O14B C3B 1_555 1_555
O15B C3B 1_555 1_555
O16B Rh3 1_555 1_555
O17B Rh4 1_555 1_555
C2B O16B 1_555 1_555
C3B C4B 1_555 1_555
C4B C2B 1_555 1_555
N1B Rh1B 1_555 1_555
N2B Rh2B 1_555 1_555
C47B N1B 1_555 1_555
C60B N1B 1_555 1_555
C61B C60B 1_555 1_555
C62B C61B 1_555 1_555
C63B C62B 1_555 1_555
C64B C63B 1_555 1_555
C65B C60B 1_555 1_555
O23B C63B 1_555 1_555
C66B O23B 1_555 1_555
C67B N2B 1_555 1_555
C68B C67B 1_555 1_555
C69B C68B 1_555 1_555
C70B C69B 1_555 1_555
C71B C70B 1_555 1_555
C72B C67B 1_555 1_555
O24B C70B 1_555 1_555
C73B O24B 1_555 1_555
N3B Rh1B 1_555 1_555
N4B Rh2B 1_555 1_555
O1B C84B 1_555 1_555
O2B C91B 1_555 1_555
C48B N3B 1_555 1_555
C81B N3B 1_555 1_555
C82B C81B 1_555 1_555
C83B C82B 1_555 1_555
C84B C83B 1_555 1_555
C85B C84B 1_555 1_555
C86B C81B 1_555 1_555
C87B O1B 1_555 1_555
C88B N4B 1_555 1_555
C89B C88B 1_555 1_555
C90B C89B 1_555 1_555
C91B C90B 1_555 1_555
C92B C91B 1_555 1_555
C93B C88B 1_555 1_555
C94B O2B 1_555 1_555
N13B Rh1B 1_555 1_555
N14B C16B 1_555 1_555
N15B C17B 1_555 1_555
N16B C16B 1_555 1_555
N17B C21B 1_555 1_555
N18B C26B 1_555 1_555
C11B N13B 1_555 1_555
C12B C11B 1_555 1_555
C13B C12B 1_555 1_555
C14B C13B 1_555 1_555
C15B N13B 1_555 1_555
C16B C13B 1_555 1_555
C17B N14B 1_555 1_555
C18B N15B 1_555 1_555
C19B C18B 1_555 1_555
C20B C19B 1_555 1_555
C21B C20B 1_555 1_555
C22B N17B 1_555 1_555
C23B C19B 1_555 1_555
C24B C17B 1_555 1_555
C25B C24B 1_555 1_555
C26B C25B 1_555 1_555
C27B N18B 1_555 1_555
C28B C24B 1_555 1_555
N19B C29B 1_555 1_555
N20B C34B 1_555 1_555
N21B C35B 1_555 1_555
N22B C34B 1_555 1_555
N23B C39B 1_555 1_555
N24B Rh2B 1_555 1_555
C29B C30B 1_555 1_555
C30B C31B 1_555 1_555
C31B C32B 1_555 1_555
C32B C33B 1_555 1_555
C33B N19B 1_555 1_555
C34B C31B 1_555 1_555
C35B N20B 1_555 1_555
C36B N21B 1_555 1_555
C37B C36B 1_555 1_555
C38B C37B 1_555 1_555
C39B C38B 1_555 1_555
C40B N23B 1_555 1_555
C41B C37B 1_555 1_555
C42B C35B 1_555 1_555
C43B C42B 1_555 1_555
C44B N24B 1_555 1_555
C45B N24B 1_555 1_555
C46B C42B 1_555 1_555
Rh3B N17B 1_555 1_555
Rh4_2 N19 1_555 1_555
Rh5B N18B 1_555 1_555
Rh6A N23 1_555 1_555
N5B Rh3B 1_555 1_555
N6B C49B 1_555 1_555
O3B C98B 1_555 1_555
O4B C105B 1_555 1_555
C49B N5B 1_555 1_555
C95B N5B 1_555 1_555
C96B C95B 1_555 1_555
C97B C96B 1_555 1_555
C98B C97B 1_555 1_555
C99B C98B 1_555 1_555
C100B C95B 1_555 1_555
C101B O3B 1_555 1_555
C102B N6B 1_555 1_555
C103B C102B 1_555 1_555
C104B C103B 1_555 1_555
C105B C104B 1_555 1_555
C106B C105B 1_555 1_555
C107B C102B 1_555 1_555
C108B O4B 1_555 1_555
N7B Rh3B 1_555 1_555
N8B C50B 1_555 1_555
O5B C112B 1_555 1_555
O6B C119B 1_555 1_555
C50B N7B 1_555 1_555
C109B N7B 1_555 1_555
C110B C109B 1_555 1_555
C111B C110B 1_555 1_555
C112B C111B 1_555 1_555
C113B C112B 1_555 1_555
C114B C109B 1_555 1_555
C115B O5B 1_555 1_555
C116B N8B 1_555 1_555
C117B C116B 1_555 1_555
C118B C117B 1_555 1_555
C119B C118B 1_555 1_555
C120B C119B 1_555 1_555
C121B C116B 1_555 1_555
C122B O6B 1_555 1_555
N9B Rh5B 1_555 1_555
N10B C51B 1_555 1_555
O7B C127B 1_555 1_555
O8B C134B 1_555 1_555
C51B N9B 1_555 1_555
C124B N9B 1_555 1_555
C125B C124B 1_555 1_555
C126B C125B 1_555 1_555
C127B C126B 1_555 1_555
C128B C127B 1_555 1_555
C129B C124B 1_555 1_555
C130B O7B 1_555 1_555
C131B N10B 1_555 1_555
C132B C131B 1_555 1_555
C133B C132B 1_555 1_555
C134B C133B 1_555 1_555
C135B C134B 1_555 1_555
C136B C131B 1_555 1_555
C137B O8B 1_555 1_555
N11B Rh5B 1_555 1_555
N12B C52B 1_555 1_555
O9B C154B 1_555 1_555
C52B N11B 1_555 1_555
C138B N11B 1_555 1_555
C139B C138B 1_555 1_555
C140B C139B 1_555 1_555
C141B C140B 1_555 1_555
C142B C141B 1_555 1_555
C143B C138B 1_555 1_555
O26B C141B 1_555 1_555
C150B O26B 1_555 1_555
C151B N12B 1_555 1_555
C152B C151B 1_555 1_555
C153B C152B 1_555 1_555
C154B C153B 1_555 1_555
C155B C154B 1_555 1_555
C156B C151B 1_555 1_555
C157B O9B 1_555 1_555
N19_2 Rh4 1_555 1_555
N23A Rh6 1_555 1_555
Rh3B_2 O16 1_555 1_555
Rh4B O17 1_555 1_555
Rh5C O18C 1_555 1_555
Rh6C O19C 1_555 1_555
Rh4B_2 Rh3B 1_555 1_555
O14B_2 Rh3B 1_555 1_555
O16_2 Rh3B 1_555 1_555
Rh3_2 Rh4_2 1_555 1_555
N6_2 Rh4_2 1_555 1_555
N8_2 Rh4_2 1_555 1_555
O15_2 Rh4_2 1_555 1_555
O17B_2 Rh4_2 1_555 1_555
Rh6B Rh5B 1_555 1_555
O18B Rh5B 1_555 1_555
O20B Rh5B 1_555 1_555
Rh5A Rh6A 1_555 1_555
N10A Rh6A 1_555 1_555
N12A Rh6A 1_555 1_555
O19A Rh6A 1_555 1_555
O21A Rh6A 1_555 1_555
N4 C48 1_555 1_555
N8 C50 1_555 1_555
N12 C52 1_555 1_555
N16 C18 1_555 1_555
N22 C36 1_555 1_555
O11 C1 1_555 1_555
O15 C3 1_555 1_555
O19 C7 1_555 1_555
O21 C9 1_555 1_555
C14 C15 1_555 1_555
C20 C21 1_555 1_555
C22 C23 1_555 1_555
C25 C26 1_555 1_555
C27 C28 1_555 1_555
C40 C41 1_555 1_555
C43 C44 1_555 1_555
C45 C46 1_555 1_555
C64 C65 1_555 1_555
C71 C72 1_555 1_555
C85 C86 1_555 1_555
C92 C93 1_555 1_555
C99 C100 1_555 1_555
C106 C107 1_555 1_555
C113 C114 1_555 1_555
C120 C121 1_555 1_555
C128 C129 1_555 1_555
C135 C136 1_555 1_555
C142 C143 1_555 1_555
C155 C156 1_555 1_555
O20C Rh5C 1_555 1_555
O21C Rh6C 1_555 1_555
O10B Rh1B 1_555 1_555
O11B Rh2B 1_555 1_555
O13B C5B 1_555 1_555
Rh1B Rh2B 1_555 1_555
O14B Rh3B_2 1_555 1_555
O15B Rh4B 1_555 1_555
O17B C2B 1_555 1_555
N2B C47B 1_555 1_555
C64B C65B 1_555 1_555
C71B C72B 1_555 1_555
N4B C48B 1_555 1_555
C85B C86B 1_555 1_555
C92B C93B 1_555 1_555
N16B C18B 1_555 1_555
C14B C15B 1_555 1_555
C22B C23B 1_555 1_555
C27B C28B 1_555 1_555
N19B Rh4B 1_555 1_555
N22B C36B 1_555 1_555
N23B Rh6C 1_555 1_555
C40B C41B 1_555 1_555
C43B C44B 1_555 1_555
C45B C46B 1_555 1_555
N6B Rh4B_2 1_555 1_555
C99B C100B 1_555 1_555
C106B C107B 1_555 1_555
N8B Rh4B_2 1_555 1_555
C113B C114B 1_555 1_555
C120B C121B 1_555 1_555
N10B Rh6B 1_555 1_555
C128B C129B 1_555 1_555
C135B C136B 1_555 1_555
N12B Rh6B 1_555 1_555
C142B C143B 1_555 1_555
C155B C156B 1_555 1_555
Rh3B_2 Rh4B 1_555 1_555
Rh5C Rh6C 1_555 1_555

#END
