
#######################################################################
#
#                 Cambridge Crystallographic Data Centre
#                                CCDC 
#
#######################################################################
#
# If this CIF has been generated from an entry in the Cambridge 
# Structural Database, then it will include bibliographic, chemical, 
# crystal, experimental, refinement or atomic coordinate data resulting 
# from the CCDC's data processing and validation procedures.
#
#######################################################################

data_PRIMIN
_chemical_formula_moiety         '(C12 H29 Cl2 N3 O18 Pr2)n'
_symmetry_cell_setting           monoclinic
_symmetry_space_group_name_H-M   'P 21/m'
_symmetry_Int_Tables_number      11
_space_group_name_Hall           '-P 2yb'
loop_
_symmetry_equiv_pos_site_id
_symmetry_equiv_pos_as_xyz
1 x,y,z
2 -x,1/2+y,-z
3 -x,-y,-z
4 x,1/2-y,z
_cell_length_a                   8.7198(9)
_cell_length_b                   18.4218(27)
_cell_length_c                   9.2725(6)
_cell_angle_alpha                90
_cell_angle_beta                 108.248
_cell_angle_gamma                90
_cell_volume                     1414.58
loop_
_atom_site_label
_atom_site_type_symbol
_atom_site_fract_x
_atom_site_fract_y
_atom_site_fract_z
Cl1 Cl -0.63990 0.25000 -0.58710
Cl2 Cl -0.19420 0.25000 -0.60140
C1 C -0.27210 0.04550 -0.55070
C2 C -0.43560 0.08200 -0.59150
C3 C -0.51410 0.08540 -0.87920
C4 C -0.69510 0.06470 -0.92600
C5 C -0.19280 0.18210 -0.16990
C6 C -0.14990 0.12160 -0.04950
N1 N -0.46730 0.12810 -0.73320
N2 N -0.21960 0.25000 -0.08440
O1 O -0.22990 0.01080 -0.42410
O2 O -0.18380 0.05240 -0.63580
O3 O -0.74440 0.03200 -1.05210
O4 O -0.76770 0.07900 -0.83670
O5 O -0.08050 0.06460 -0.08120
O6 O -0.17850 0.13220 0.07760
O7 O -0.07000 -0.14140 -0.37510
O8 O 0.07370 0.09500 -0.32450
Pr1 Pr 0.00890 -0.02400 -0.21790
Pr1B Pr -0.00890 0.02400 -0.78210
Pr1_2 Pr -0.99110 -0.02400 -1.21790
Pr1B_2 Pr -1.00890 0.02400 -0.78210
O2B O 0.18380 -0.05240 -0.36420
O3_2 O 0.25560 0.03200 -0.05210
O4B O -0.23230 -0.07900 -0.16330
O5B O 0.08050 -0.06460 0.08120
Pr1B_3 Pr -0.00890 0.02400 0.21790
O6B O 0.17850 -0.13220 -0.07760
C5C C -0.19280 0.31790 -0.16990
C6C C -0.14990 0.37840 -0.04950
O5C O -0.08050 0.43540 -0.08120
O6C O -0.17850 0.36780 0.07760
Pr1A Pr -0.00890 0.47600 0.21790
Pr1C Pr 0.00890 0.52400 -0.21790
O5A O 0.08050 0.56460 0.08120
O1C O -0.22990 0.48920 -0.42410
O2A O 0.18380 0.55240 -0.36420
O3C O 0.25560 0.46800 -0.05210
O4A O -0.23230 0.57900 -0.16330
O6A O 0.17850 0.63220 -0.07760
O7C O -0.07000 0.64140 -0.37510
O8C O 0.07370 0.40500 -0.32450
C1C C -0.27210 0.45450 -0.55070
C2C C -0.43560 0.41800 -0.59150
O2C O -0.18380 0.44760 -0.63580
N1C N -0.46730 0.37190 -0.73320
Pr1A_2 Pr -0.00890 0.47600 -0.78210
C3C C -0.51410 0.41460 -0.87920
C4C C -0.69510 0.43530 -0.92600
Pr1A_3 Pr -1.00890 0.47600 -0.78210
O3C_2 O -0.74440 0.46800 -1.05210
O4C O -0.76770 0.42100 -0.83670
Pr1C_2 Pr -0.99110 0.52400 -1.21790
O9 O -0.38870 -0.13670 -0.71370
O10 O -0.55150 0.25000 -0.02200
loop_
_geom_bond_atom_site_label_1
_geom_bond_atom_site_label_2
_geom_bond_site_symmetry_1
_geom_bond_site_symmetry_2
C1 C2 1_555 1_555
C2 N1 1_555 1_555
C3 C4 1_555 1_555
C4 O3 1_555 1_555
C5 C6 1_555 1_555
C6 O5 1_555 1_555
N1 C3 1_555 1_555
N2 C5 1_555 1_555
O1 C1 1_555 1_555
O2 C1 1_555 1_555
O3 Pr1_2 1_555 1_555
O4 C4 1_555 1_555
O5 Pr1 1_555 1_555
O6 C6 1_555 1_555
O7 Pr1 1_555 1_555
O8 Pr1 1_555 1_555
Pr1 O1 1_555 1_555
Pr1B O2 1_555 1_555
Pr1B_2 O4 1_555 1_555
O2B Pr1 1_555 1_555
O3_2 Pr1 1_555 1_555
O4B Pr1 1_555 1_555
O5B Pr1 1_555 1_555
Pr1B_3 O5 1_555 1_555
O6B Pr1 1_555 1_555
C5C N2 1_555 1_555
C6C C5C 1_555 1_555
O5C C6C 1_555 1_555
O6C C6C 1_555 1_555
Pr1A O5C 1_555 1_555
Pr1C O5C 1_555 1_555
O5A Pr1A 1_555 1_555
O1C Pr1C 1_555 1_555
O2A Pr1C 1_555 1_555
O3C Pr1C 1_555 1_555
O4A Pr1C 1_555 1_555
O6A Pr1C 1_555 1_555
O7C Pr1C 1_555 1_555
O8C Pr1C 1_555 1_555
C1C O1C 1_555 1_555
C2C C1C 1_555 1_555
O2C C1C 1_555 1_555
N1C C2C 1_555 1_555
Pr1A_2 O2C 1_555 1_555
C3C N1C 1_555 1_555
C4C C3C 1_555 1_555
Pr1A_3 O4C 1_555 1_555
O3C_2 C4C 1_555 1_555
O4C C4C 1_555 1_555
Pr1C_2 O3C_2 1_555 1_555
O6 Pr1B_3 1_555 1_555
O5B Pr1B_3 1_555 1_555
O6C Pr1A 1_555 1_555
Pr1C O5A 1_555 1_555

#END
