
#######################################################################
#
#                 Cambridge Crystallographic Data Centre
#                                CCDC 
#
#######################################################################
#
# If this CIF has been generated from an entry in the Cambridge 
# Structural Database, then it will include bibliographic, chemical, 
# crystal, experimental, refinement or atomic coordinate data resulting 
# from the CCDC's data processing and validation procedures.
#
#######################################################################

data_LARVIM
_chemical_formula_moiety         '(C96 H24 Cl48 Fe12 O64)n'
_symmetry_cell_setting           trigonal
_symmetry_space_group_name_H-M   'P -3'
_symmetry_Int_Tables_number      147
_space_group_name_Hall           '-P 3'
loop_
_symmetry_equiv_pos_site_id
_symmetry_equiv_pos_as_xyz
1 x,y,z
2 -y,x-y,z
3 -x+y,-x,z
4 -x,-y,-z
5 y,-x+y,-z
6 x-y,x,-z
_cell_length_a                   30.8099(13)
_cell_length_b                   30.8099(13)
_cell_length_c                   16.4605(5)
_cell_angle_alpha                90
_cell_angle_beta                 90
_cell_angle_gamma                120
_cell_volume                     13531.8
loop_
_atom_site_label
_atom_site_type_symbol
_atom_site_fract_x
_atom_site_fract_y
_atom_site_fract_z
Fe1 Fe 0.79768(6) 0.16959(7) 0.75417(8)
Fe2 Fe 0.90811(7) 0.27433(7) 0.75249(8)
Fe3 Fe 0.89855(7) 0.16102(7) 0.74673(8)
Fe4 Fe 0.64325(7) 0.26275(7) 0.25354(9)
Cl1 Cl 0.72042(18) 0.24929(17) 0.67053(16)
Cl2 Cl 0.67424(15) 0.27493(15) 0.52104(19)
Cl3 Cl 0.83099(17) 0.30674(19) 0.33886(18)
Cl4 Cl 0.87750(15) 0.27922(17) 0.48653(19)
Cl5 Cl 0.80016(14) 0.14667(11) 0.48153(18)
Cl6 Cl 0.74783(17) 0.07106(14) 0.33552(17)
Cl7 Cl 0.73048(16) -0.07815(13) 0.52300(18)
Cl8 Cl 0.78377(18) -0.00334(14) 0.66707(17)
Cl9 Cl 0.71591(19) 0.00882(14) 0.83684(19)
Cl10 Cl 0.66958(14) -0.06323(13) 0.98455(19)
Cl11 Cl 0.82769(17) 0.06332(15) 1.16877(17)
Cl12 Cl 0.87361(14) 0.13545(12) 1.01972(17)
Cl13 Cl 0.81389(14) 0.20114(14) 1.02776(18)
Cl14 Cl 0.76136(16) 0.22396(16) 1.17125(16)
Cl15 Cl 0.74173(16) 0.35507(15) 0.98277(19)
Cl16 Cl 0.79500(16) 0.33178(16) 0.83902(17)
O1 O 0.7203(4) 0.1320(6) 0.7607(5)
O2 O 0.9478(4) 0.3510(4) 0.7548(6)
O3 O 0.9264(4) 0.1123(4) 0.7407(5)
O4 O 0.8639(3) 0.1982(3) 0.7530(3)
O5 O 0.6200(4) 0.1848(4) 0.2532(5)
O6 O 0.6667 0.3333 0.2530(8)
O7 O 0.7925(3) 0.2050(3) 0.6586(4)
O8 O 0.8564(3) 0.2830(3) 0.6752(4)
O9 O 0.6971(3) 0.2668(4) 0.3301(4)
O10 O 0.7515(3) 0.3491(4) 0.3532(4)
O11 O 0.7841(3) 0.1132(3) 0.6766(5)
O12 O 0.8570(3) 0.1175(3) 0.6502(4)
O13 O 0.6737(3) -0.0506(3) 0.3515(4)
O14 O 0.7484(3) -0.0468(3) 0.3327(4)
O15 O 0.7907(3) 0.1272(3) 0.8517(5)
O16 O 0.8498(4) 0.1055(3) 0.8249(5)
O17 O 0.7509(4) -0.0542(3) 1.1556(4)
O18 O 0.6918(4) -0.0357(3) 1.1719(4)
O19 O 0.7925(3) 0.2169(3) 0.8310(4)
O20 O 0.8705(3) 0.2814(3) 0.8539(4)
O21 O 0.6854(3) 0.2667(3) 1.1516(5)
O22 O 0.7561(4) 0.3376(4) 1.1740(5)
C1 C 0.7287(6) 0.2966(5) 1.1383(7)
C2 C 0.8179(7) 0.2528(6) 0.6423(6)
C3 C 0.7960(3) 0.26565(18) 0.5707(4)
C4 C 0.7505(3) 0.26473(16) 0.5782(3)
C5 C 0.7306(2) 0.27662(17) 0.5118(4)
C6 C 0.7558(3) 0.2894(3) 0.4380(4)
C7 C 0.8012(3) 0.2902(3) 0.4308(4)
C8 C 0.8215(2) 0.2785(3) 0.4971(5)
C9 C 0.7317(6) 0.3015(6) 0.3654(7)
C10 C 0.8144(6) 0.1042(5) 0.6354(6)
C11 C 0.78875(19) 0.0672(3) 0.5651(4)
C12 C 0.78102(18) 0.0843(2) 0.4915(5)
C13 C 0.75790(19) 0.0513(3) 0.4277(3)
C14 C 0.7424(3) 0.0008(3) 0.4368(4)
C15 C 0.7499(3) -0.0165(2) 0.5106(4)
C16 C 0.7730(2) 0.0165(3) 0.5750(3)
C17 C 0.7194(5) -0.0358(4) 0.3676(6)
C18 C 0.8141(6) 0.1048(6) 0.8655(8)
C19 C 0.7919(3) 0.0679(3) 0.9361(4)
C20 C 0.7464(3) 0.0235(3) 0.9285(3)
C21 C 0.7261(2) -0.0084(2) 0.9948(5)
C22 C 0.7514(3) 0.0041(3) 1.0689(4)
C23 C 0.7969(3) 0.0486(3) 1.0764(4)
C24 C 0.8171(2) 0.0805(2) 1.0096(5)
C25 C 0.7268(6) -0.0320(5) 1.1371(7)
C26 C 0.8248(6) 0.2555(6) 0.8685(6)
C27 C 0.80150(19) 0.2677(2) 0.9418(4)
C28 C 0.79405(18) 0.24347(19) 1.0160(4)
C29 C 0.77067(19) 0.2536(2) 1.0794(3)
C30 C 0.7545(3) 0.2881(3) 1.0688(4)
C31 C 0.7619(3) 0.3125(2) 0.9946(4)
C32 C 0.7856(3) 0.3024(3) 0.9313(3)
Fe1A Fe 0.83041(7) 0.62809(9) 0.75417(8)
Fe2A Fe 0.72567(7) 0.63378(10) 0.75249(8)
Fe3A Fe 0.83898(7) 0.73753(10) 0.74673(8)
Fe4A Fe 0.73725(7) 0.38050(10) 0.25354(9)
Cl1A Cl 0.75071(17) 0.47113(25) 0.67053(16)
Cl2A Cl 0.72507(15) 0.39931(21) 0.52104(19)
Cl3A Cl 0.69326(19) 0.52425(25) 0.33886(18)
Cl4A Cl 0.72078(17) 0.59828(23) 0.48653(19)
Cl5A Cl 0.85333(11) 0.65349(18) 0.48153(18)
Cl6A Cl 0.92894(14) 0.67677(22) 0.33552(17)
Cl7A Cl 1.07815(13) 0.80863(21) 0.52300(18)
Cl8A Cl 1.00334(14) 0.78711(23) 0.66707(17)
Cl9A Cl 0.99118(14) 0.70709(24) 0.83684(19)
Cl10A Cl 1.06323(13) 0.73281(19) 0.98455(19)
Cl11A Cl 0.93668(15) 0.76437(23) 1.16877(17)
Cl12A Cl 0.86455(12) 0.73816(18) 1.01972(17)
Cl13A Cl 0.79886(14) 0.61275(20) 1.02776(18)
Cl14A Cl 0.77604(16) 0.53740(23) 1.17125(16)
Cl15A Cl 0.64493(15) 0.38666(22) 0.98277(19)
Cl16A Cl 0.66822(16) 0.46322(23) 0.83902(17)
O1A O 0.8680(6) 0.5883(7) 0.7607(5)
O2A O 0.6490(4) 0.5968(6) 0.7548(6)
O3A O 0.8877(4) 0.8141(6) 0.7407(5)
O4A O 0.8018(3) 0.6657(4) 0.7530(3)
O5A O 0.8152(4) 0.4352(6) 0.2532(5)
O7A O 0.7950(3) 0.5875(4) 0.6586(4)
O8A O 0.7170(3) 0.5734(4) 0.6752(4)
O9A O 0.7332(4) 0.4303(5) 0.3301(4)
O10A O 0.6509(4) 0.4024(5) 0.3532(4)
O11A O 0.8868(3) 0.6709(4) 0.6766(5)
O12A O 0.8825(3) 0.7395(4) 0.6502(4)
O13A O 1.0506(3) 0.7243(4) 0.3515(4)
O14A O 1.0468(3) 0.7952(4) 0.3327(4)
O15A O 0.8728(3) 0.6635(4) 0.8517(5)
O16A O 0.8945(3) 0.7443(5) 0.8249(5)
O17A O 1.0542(3) 0.8051(5) 1.1556(4)
O18A O 1.0357(3) 0.7275(5) 1.1719(4)
O19A O 0.7831(3) 0.5756(4) 0.8310(4)
O20A O 0.7186(3) 0.5891(4) 0.8539(4)
O21A O 0.7333(3) 0.4187(4) 1.1516(5)
O22A O 0.6624(4) 0.4185(6) 1.1740(5)
C1A C 0.7034(5) 0.4321(8) 1.1383(7)
C2A C 0.7472(6) 0.5651(9) 0.6423(6)
C3A C 0.73435(18) 0.53035(35) 0.5707(4)
C4A C 0.73527(16) 0.48577(34) 0.5782(3)
C5A C 0.72338(17) 0.45398(26) 0.5118(4)
C6A C 0.7106(3) 0.4664(4) 0.4380(4)
C7A C 0.7098(3) 0.5110(4) 0.4308(4)
C8A C 0.7215(3) 0.5430(4) 0.4971(5)
C9A C 0.6985(6) 0.4302(8) 0.3654(7)
C10A C 0.8958(5) 0.7102(8) 0.6354(6)
C11A C 0.9328(3) 0.72155(36) 0.5651(4)
C12A C 0.9157(2) 0.69672(27) 0.4915(5)
C13A C 0.9487(3) 0.70660(36) 0.4277(3)
C14A C 0.9992(3) 0.7416(4) 0.4368(4)
C15A C 1.0165(2) 0.7664(4) 0.5106(4)
C16A C 0.9835(3) 0.7565(4) 0.5750(3)
C17A C 1.0358(4) 0.7552(6) 0.3676(6)
C18A C 0.8952(6) 0.7093(8) 0.8655(8)
C19A C 0.9321(3) 0.7240(4) 0.9361(4)
C20A C 0.9765(3) 0.7229(4) 0.9285(3)
C21A C 1.0084(2) 0.7345(3) 0.9948(5)
C22A C 0.9959(3) 0.7473(4) 1.0689(4)
C23A C 0.9514(3) 0.7483(4) 1.0764(4)
C24A C 0.9195(2) 0.7366(3) 1.0096(5)
C25A C 1.0320(5) 0.7588(8) 1.1371(7)
C26A C 0.7445(6) 0.5693(8) 0.8685(6)
C27A C 0.7323(2) 0.53380(28) 0.9418(4)
C28A C 0.75653(19) 0.55058(26) 1.0160(4)
C29A C 0.7464(2) 0.51707(28) 1.0794(3)
C30A C 0.7119(3) 0.4664(4) 1.0688(4)
C31A C 0.6875(2) 0.4494(4) 0.9946(4)
C32A C 0.6976(3) 0.4832(4) 0.9313(3)
Fe1B Fe 0.37191(9) 0.20232(6) 0.75417(8)
Fe2B Fe 0.36622(10) 0.09189(7) 0.75249(8)
Fe3B Fe 0.26247(10) 0.10145(7) 0.74673(8)
Fe4B Fe 0.61950(10) 0.35675(7) 0.25354(9)
Cl1B Cl 0.52887(25) 0.27958(18) 0.67053(16)
Cl2B Cl 0.60069(21) 0.32576(15) 0.52104(19)
Cl3B Cl 0.47575(25) 0.16901(17) 0.33886(18)
Cl4B Cl 0.40172(23) 0.12250(15) 0.48653(19)
Cl5B Cl 0.34651(18) 0.19984(14) 0.48153(18)
Cl6B Cl 0.32323(22) 0.25217(17) 0.33552(17)
Cl7B Cl 0.19137(21) 0.26952(16) 0.52300(18)
Cl8B Cl 0.21289(23) 0.21623(18) 0.66707(17)
Cl9B Cl 0.29291(24) 0.28409(19) 0.83684(19)
Cl10B Cl 0.26719(19) 0.33042(14) 0.98455(19)
Cl11B Cl 0.23563(23) 0.17231(17) 1.16877(17)
Cl12B Cl 0.26184(18) 0.12639(14) 1.01972(17)
Cl13B Cl 0.38725(20) 0.18611(14) 1.02776(18)
Cl14B Cl 0.46260(23) 0.23864(16) 1.17125(16)
Cl15B Cl 0.61334(22) 0.25827(16) 0.98277(19)
Cl16B Cl 0.53678(23) 0.20500(16) 0.83902(17)
O1B O 0.4117(7) 0.2797(4) 0.7607(5)
O2B O 0.4032(6) 0.0522(4) 0.7548(6)
O3B O 0.1859(6) 0.0736(4) 0.7407(5)
O4B O 0.3343(4) 0.1361(3) 0.7530(3)
O5B O 0.5648(6) 0.3800(4) 0.2532(5)
O7B O 0.4125(4) 0.2075(3) 0.6586(4)
O8B O 0.4266(4) 0.1436(3) 0.6752(4)
O9B O 0.5697(5) 0.3029(3) 0.3301(4)
O10B O 0.5976(5) 0.2485(3) 0.3532(4)
O11B O 0.3291(4) 0.2159(3) 0.6766(5)
O12B O 0.2605(4) 0.1430(3) 0.6502(4)
O13B O 0.2757(4) 0.3263(3) 0.3515(4)
O14B O 0.2048(4) 0.2516(3) 0.3327(4)
O15B O 0.3365(4) 0.2093(3) 0.8517(5)
O16B O 0.2557(5) 0.1502(4) 0.8249(5)
O17B O 0.1949(5) 0.2491(4) 1.1556(4)
O18B O 0.2725(5) 0.3082(4) 1.1719(4)
O19B O 0.4244(4) 0.2075(3) 0.8310(4)
O20B O 0.4109(4) 0.1295(3) 0.8539(4)
O21B O 0.5813(4) 0.3146(3) 1.1516(5)
O22B O 0.5815(6) 0.2439(4) 1.1740(5)
C1B C 0.5679(8) 0.2713(6) 1.1383(7)
C2B C 0.4349(9) 0.1821(7) 0.6423(6)
C3B C 0.46965(35) 0.2040(3) 0.5707(4)
C4B C 0.51423(34) 0.2495(3) 0.5782(3)
C5B C 0.54602(26) 0.2694(2) 0.5118(4)
C6B C 0.5336(4) 0.2442(3) 0.4380(4)
C7B C 0.4890(4) 0.1988(3) 0.4308(4)
C8B C 0.4570(4) 0.1785(2) 0.4971(5)
C9B C 0.5698(8) 0.2683(6) 0.3654(7)
C10B C 0.2898(8) 0.1856(6) 0.6354(6)
C11B C 0.27845(36) 0.21125(19) 0.5651(4)
C12B C 0.30328(27) 0.21898(18) 0.4915(5)
C13B C 0.29340(36) 0.24210(19) 0.4277(3)
C14B C 0.2584(4) 0.2576(3) 0.4368(4)
C15B C 0.2336(4) 0.2501(3) 0.5106(4)
C16B C 0.2435(4) 0.2270(2) 0.5750(3)
C17B C 0.2448(6) 0.2806(5) 0.3676(6)
C18B C 0.2907(8) 0.1859(6) 0.8655(8)
C19B C 0.2760(4) 0.2081(3) 0.9361(4)
C20B C 0.2771(4) 0.2536(3) 0.9285(3)
C21B C 0.2655(3) 0.2739(2) 0.9948(5)
C22B C 0.2527(4) 0.2486(3) 1.0689(4)
C23B C 0.2517(4) 0.2031(3) 1.0764(4)
C24B C 0.2634(3) 0.1829(2) 1.0096(5)
C25B C 0.2412(8) 0.2732(6) 1.1371(7)
C26B C 0.4307(8) 0.1752(6) 0.8685(6)
C27B C 0.46620(28) 0.19850(19) 0.9418(4)
C28B C 0.44942(26) 0.20595(18) 1.0160(4)
C29B C 0.48293(28) 0.22933(19) 1.0794(3)
C30B C 0.5336(4) 0.2455(3) 1.0688(4)
C31B C 0.5506(4) 0.2381(3) 0.9946(4)
C32B C 0.5168(4) 0.2144(3) 0.9313(3)
Fe2C Fe 1.09189(7) 0.72567(7) 0.24751(8)
Fe2C_2 Fe 1.09189(7) 0.72567(7) 1.24751(8)
Fe2D Fe 0.27433(7) 0.36622(10) 0.24751(8)
Fe2D_2 Fe 0.27433(7) 0.36622(10) 1.24751(8)
Fe2E Fe 0.63378(10) -0.09189(7) 0.24751(8)
Fe2E_2 Fe 0.63378(10) -0.09189(7) 1.24751(8)
Fe3C Fe 1.10145(7) 0.83898(7) 0.25327(8)
Fe3C_2 Fe 1.10145(7) 0.83898(7) 1.25327(8)
Fe3D Fe 0.16102(7) 0.26247(10) 0.25327(8)
Fe3D_2 Fe 0.16102(7) 0.26247(10) 1.25327(8)
Fe3E Fe 0.73753(10) -0.10145(7) 0.25327(8)
Fe3E_2 Fe 0.73753(10) -0.10145(7) 1.25327(8)
Fe4_2 Fe 0.64325(7) 0.26275(7) 1.25354(9)
Fe4A_2 Fe 0.73725(7) 0.38050(10) 1.25354(9)
Fe4B_2 Fe 0.61950(10) 0.35675(7) 1.25354(9)
O13C O 0.3263(3) 0.0506(3) 0.6485(4)
O13D O 0.9494(3) 0.2757(4) 0.6485(4)
O13E O 0.7243(4) 0.6737(3) 0.6485(4)
O14C O 0.2516(3) 0.0468(3) 0.6673(4)
O14D O 0.9532(3) 0.2048(4) 0.6673(4)
O14E O 0.7952(4) 0.7484(3) 0.6673(4)
O17C O 0.2491(4) 0.0542(3) 0.8444(4)
O17D O 0.9458(3) 0.1949(5) 0.8444(4)
O17E O 0.8051(5) 0.7509(4) 0.8444(4)
O18C O 0.3082(4) 0.0357(3) 0.8281(4)
O18D O 0.9643(3) 0.2725(5) 0.8281(4)
O18E O 0.7275(5) 0.6918(4) 0.8281(4)
O21_2 O 0.6854(3) 0.2667(3) 0.1516(5)
O21A_2 O 0.7333(3) 0.4187(4) 0.1516(5)
O21B_2 O 0.5813(4) 0.3146(3) 0.1516(5)
O22_2 O 0.7561(4) 0.3376(4) 0.1740(5)
O22A_2 O 0.6624(4) 0.4185(6) 0.1740(5)
O22B_2 O 0.5815(6) 0.2439(4) 0.1740(5)
loop_
_geom_bond_atom_site_label_1
_geom_bond_atom_site_label_2
_geom_bond_site_symmetry_1
_geom_bond_site_symmetry_2
Fe1 O1 1_555 1_555
Fe2 O2 1_555 1_555
Fe3 O3 1_555 1_555
Fe4 O5 1_555 1_555
Cl1 C4 1_555 1_555
Cl2 C5 1_555 1_555
Cl3 C7 1_555 1_555
Cl4 C8 1_555 1_555
Cl5 C12 1_555 1_555
Cl6 C13 1_555 1_555
Cl7 C15 1_555 1_555
Cl8 C16 1_555 1_555
Cl9 C20 1_555 1_555
Cl10 C21 1_555 1_555
Cl11 C23 1_555 1_555
Cl12 C24 1_555 1_555
Cl13 C28 1_555 1_555
Cl14 C29 1_555 1_555
Cl15 C31 1_555 1_555
Cl16 C32 1_555 1_555
O4 Fe1 1_555 1_555
O6 Fe4 1_555 1_555
O7 Fe1 1_555 1_555
O8 Fe2 1_555 1_555
O9 Fe4 1_555 1_555
O10 C9 1_555 1_555
O11 Fe1 1_555 1_555
O12 Fe3 1_555 1_555
O13 C17 1_555 1_555
O14 C17 1_555 1_555
O15 Fe1 1_555 1_555
O16 Fe3 1_555 1_555
O17 C25 1_555 1_555
O18 C25 1_555 1_555
O19 Fe1 1_555 1_555
O20 Fe2 1_555 1_555
O21 C1 1_555 1_555
O22 C1 1_555 1_555
C1 C30 1_555 1_555
C2 O7 1_555 1_555
C3 C2 1_555 1_555
C4 C3 1_555 1_555
C5 C4 1_555 1_555
C6 C5 1_555 1_555
C7 C6 1_555 1_555
C8 C3 1_555 1_555
C9 O9 1_555 1_555
C10 O11 1_555 1_555
C11 C10 1_555 1_555
C12 C11 1_555 1_555
C13 C12 1_555 1_555
C14 C13 1_555 1_555
C15 C14 1_555 1_555
C16 C11 1_555 1_555
C17 C14 1_555 1_555
C18 O15 1_555 1_555
C19 C18 1_555 1_555
C20 C19 1_555 1_555
C21 C20 1_555 1_555
C22 C21 1_555 1_555
C23 C22 1_555 1_555
C24 C19 1_555 1_555
C25 C22 1_555 1_555
C26 O19 1_555 1_555
C27 C26 1_555 1_555
C28 C27 1_555 1_555
C29 C28 1_555 1_555
C30 C29 1_555 1_555
C31 C30 1_555 1_555
C32 C27 1_555 1_555
Fe1A O1A 1_555 1_555
Fe2A O2A 1_555 1_555
Fe3A O3A 1_555 1_555
Fe4A O6 1_555 1_555
Cl1A C4A 1_555 1_555
Cl2A C5A 1_555 1_555
Cl3A C7A 1_555 1_555
Cl4A C8A 1_555 1_555
Cl5A C12A 1_555 1_555
Cl6A C13A 1_555 1_555
Cl7A C15A 1_555 1_555
Cl8A C16A 1_555 1_555
Cl9A C20A 1_555 1_555
Cl10A C21A 1_555 1_555
Cl11A C23A 1_555 1_555
Cl12A C24A 1_555 1_555
Cl13A C28A 1_555 1_555
Cl14A C29A 1_555 1_555
Cl15A C31A 1_555 1_555
Cl16A C32A 1_555 1_555
O4A Fe1A 1_555 1_555
O5A Fe4A 1_555 1_555
O7A Fe1A 1_555 1_555
O8A Fe2A 1_555 1_555
O9A Fe4A 1_555 1_555
O10A C9A 1_555 1_555
O11A Fe1A 1_555 1_555
O12A Fe3A 1_555 1_555
O13A C17A 1_555 1_555
O14A C17A 1_555 1_555
O15A Fe1A 1_555 1_555
O16A Fe3A 1_555 1_555
O17A C25A 1_555 1_555
O18A C25A 1_555 1_555
O19A Fe1A 1_555 1_555
O20A Fe2A 1_555 1_555
O21A C1A 1_555 1_555
O22A C1A 1_555 1_555
C1A C30A 1_555 1_555
C2A O7A 1_555 1_555
C3A C2A 1_555 1_555
C4A C3A 1_555 1_555
C5A C4A 1_555 1_555
C6A C5A 1_555 1_555
C7A C6A 1_555 1_555
C8A C3A 1_555 1_555
C9A O9A 1_555 1_555
C10A O11A 1_555 1_555
C11A C10A 1_555 1_555
C12A C11A 1_555 1_555
C13A C12A 1_555 1_555
C14A C13A 1_555 1_555
C15A C14A 1_555 1_555
C16A C11A 1_555 1_555
C17A C14A 1_555 1_555
C18A O15A 1_555 1_555
C19A C18A 1_555 1_555
C20A C19A 1_555 1_555
C21A C20A 1_555 1_555
C22A C21A 1_555 1_555
C23A C22A 1_555 1_555
C24A C19A 1_555 1_555
C25A C22A 1_555 1_555
C26A O19A 1_555 1_555
C27A C26A 1_555 1_555
C28A C27A 1_555 1_555
C29A C28A 1_555 1_555
C30A C29A 1_555 1_555
C31A C30A 1_555 1_555
C32A C27A 1_555 1_555
Fe1B O1B 1_555 1_555
Fe2B O2B 1_555 1_555
Fe3B O3B 1_555 1_555
Fe4B O6 1_555 1_555
Cl1B C4B 1_555 1_555
Cl2B C5B 1_555 1_555
Cl3B C7B 1_555 1_555
Cl4B C8B 1_555 1_555
Cl5B C12B 1_555 1_555
Cl6B C13B 1_555 1_555
Cl7B C15B 1_555 1_555
Cl8B C16B 1_555 1_555
Cl9B C20B 1_555 1_555
Cl10B C21B 1_555 1_555
Cl11B C23B 1_555 1_555
Cl12B C24B 1_555 1_555
Cl13B C28B 1_555 1_555
Cl14B C29B 1_555 1_555
Cl15B C31B 1_555 1_555
Cl16B C32B 1_555 1_555
O4B Fe1B 1_555 1_555
O5B Fe4B 1_555 1_555
O7B Fe1B 1_555 1_555
O8B Fe2B 1_555 1_555
O9B Fe4B 1_555 1_555
O10B Fe4 1_555 1_555
O11B Fe1B 1_555 1_555
O12B Fe3B 1_555 1_555
O13B C17B 1_555 1_555
O14B C17B 1_555 1_555
O15B Fe1B 1_555 1_555
O16B Fe3B 1_555 1_555
O17B C25B 1_555 1_555
O18B C25B 1_555 1_555
O19B Fe1B 1_555 1_555
O20B Fe2B 1_555 1_555
O21B C1B 1_555 1_555
O22B C1B 1_555 1_555
C1B C30B 1_555 1_555
C2B O7B 1_555 1_555
C3B C2B 1_555 1_555
C4B C3B 1_555 1_555
C5B C4B 1_555 1_555
C6B C5B 1_555 1_555
C7B C6B 1_555 1_555
C8B C3B 1_555 1_555
C9B O9B 1_555 1_555
C10B O11B 1_555 1_555
C11B C10B 1_555 1_555
C12B C11B 1_555 1_555
C13B C12B 1_555 1_555
C14B C13B 1_555 1_555
C15B C14B 1_555 1_555
C16B C11B 1_555 1_555
C17B C14B 1_555 1_555
C18B O15B 1_555 1_555
C19B C18B 1_555 1_555
C20B C19B 1_555 1_555
C21B C20B 1_555 1_555
C22B C21B 1_555 1_555
C23B C22B 1_555 1_555
C24B C19B 1_555 1_555
C25B C22B 1_555 1_555
C26B O19B 1_555 1_555
C27B C26B 1_555 1_555
C28B C27B 1_555 1_555
C29B C28B 1_555 1_555
C30B C29B 1_555 1_555
C31B C30B 1_555 1_555
C32B C27B 1_555 1_555
Fe2C O13A 1_555 1_555
Fe2C_2 O18A 1_555 1_555
Fe2D O13B 1_555 1_555
Fe2D_2 O18B 1_555 1_555
Fe2E O13 1_555 1_555
Fe2E_2 O18 1_555 1_555
Fe3C O14A 1_555 1_555
Fe3C_2 O17A 1_555 1_555
Fe3D O14B 1_555 1_555
Fe3D_2 O17B 1_555 1_555
Fe3E O14 1_555 1_555
Fe3E_2 O17 1_555 1_555
Fe4_2 O21 1_555 1_555
Fe4A_2 O22 1_555 1_555
Fe4B_2 O22A 1_555 1_555
O13C Fe2B 1_555 1_555
O13D Fe2 1_555 1_555
O13E Fe2A 1_555 1_555
O14C Fe3B 1_555 1_555
O14D Fe3 1_555 1_555
O14E Fe3A 1_555 1_555
O17C Fe3B 1_555 1_555
O17D Fe3 1_555 1_555
O17E Fe3A 1_555 1_555
O18C Fe2B 1_555 1_555
O18D Fe2 1_555 1_555
O18E Fe2A 1_555 1_555
O21_2 Fe4 1_555 1_555
O21A_2 Fe4A 1_555 1_555
O21B_2 Fe4B 1_555 1_555
O22_2 Fe4A 1_555 1_555
O22A_2 Fe4B 1_555 1_555
O22B_2 Fe4 1_555 1_555
Fe2 O4 1_555 1_555
Fe3 O4 1_555 1_555
O8 C2 1_555 1_555
O10 Fe4A 1_555 1_555
O12 C10 1_555 1_555
O16 C18 1_555 1_555
O20 C26 1_555 1_555
C6 C9 1_555 1_555
C7 C8 1_555 1_555
C15 C16 1_555 1_555
C23 C24 1_555 1_555
C31 C32 1_555 1_555
Fe2A O4A 1_555 1_555
Fe3A O4A 1_555 1_555
O8A C2A 1_555 1_555
O10A Fe4B 1_555 1_555
O12A C10A 1_555 1_555
O16A C18A 1_555 1_555
O20A C26A 1_555 1_555
O21A Fe4A_2 1_555 1_555
C6A C9A 1_555 1_555
C7A C8A 1_555 1_555
C15A C16A 1_555 1_555
C23A C24A 1_555 1_555
C31A C32A 1_555 1_555
Fe2B O4B 1_555 1_555
Fe3B O4B 1_555 1_555
O8B C2B 1_555 1_555
O10B C9B 1_555 1_555
O12B C10B 1_555 1_555
O16B C18B 1_555 1_555
O20B C26B 1_555 1_555
O21B Fe4B_2 1_555 1_555
O22B Fe4_2 1_555 1_555
C6B C9B 1_555 1_555
C7B C8B 1_555 1_555
C15B C16B 1_555 1_555
C23B C24B 1_555 1_555
C31B C32B 1_555 1_555

#END
