
#######################################################################
#
#                 Cambridge Crystallographic Data Centre
#                                CCDC 
#
#######################################################################
#
# If this CIF has been generated from an entry in the Cambridge 
# Structural Database, then it will include bibliographic, chemical, 
# crystal, experimental, refinement or atomic coordinate data resulting 
# from the CCDC's data processing and validation procedures.
#
#######################################################################

data_KAXZUG
_chemical_formula_moiety         '(C45 H51 Cd2 Cl1 N18 O9)n'
_symmetry_cell_setting           triclinic
_symmetry_space_group_name_H-M   'P -1'
_symmetry_Int_Tables_number      2
_space_group_name_Hall           '-P 1'
loop_
_symmetry_equiv_pos_site_id
_symmetry_equiv_pos_as_xyz
1 x,y,z
2 -x,-y,-z
_cell_length_a                   9.6398(19)
_cell_length_b                   13.065(3)
_cell_length_c                   21.054(4)
_cell_angle_alpha                102.46(3)
_cell_angle_beta                 102.39(3)
_cell_angle_gamma                99.52(3)
_cell_volume                     2465.79
loop_
_atom_site_label
_atom_site_type_symbol
_atom_site_fract_x
_atom_site_fract_y
_atom_site_fract_z
C1 C -0.3385(4) 0.1596(4) 0.8083(2)
C2 C -0.4816(4) 0.1576(3) 0.7624(2)
C3 C -0.5692(5) 0.2238(3) 0.7844(2)
H1 H -0.5426 0.2652 0.8288
C4 C -0.6959(5) 0.2288(3) 0.7409(2)
H2 H -0.7537 0.2741 0.7559
C5 C -0.7374(4) 0.1664(3) 0.67464(19)
C6 C -0.6544(4) 0.0942(3) 0.65286(18)
C7 C -0.5252(4) 0.0929(3) 0.69675(19)
H3 H -0.4667 0.0480 0.6820
C8 C -0.8677(5) 0.1804(4) 0.6266(2)
C9 C -0.7078(4) 0.0180(3) 0.58385(19)
C10 C 0.1541(5) -0.6225(4) 0.8730(3)
H4 H 0.2337 -0.6469 0.8928
C11 C -0.0603(5) -0.6093(3) 0.8379(2)
H5 H -0.1612 -0.6198 0.8280
C12 C -0.0171(5) -0.4491(4) 0.7922(2)
H6 H -0.0591 -0.4025 0.8214
H7 H -0.0923 -0.4845 0.7509
C13 C 0.1056(4) -0.3807(3) 0.7756(2)
C14 C 0.1437(4) -0.4165(3) 0.7158(2)
C15 C 0.2473(4) -0.3468(3) 0.6976(2)
C16 C 0.3087(4) -0.2418(3) 0.7386(2)
C17 C 0.2719(4) -0.2088(3) 0.7994(2)
C18 C 0.1735(4) -0.2796(3) 0.8191(2)
C19 C 0.0736(6) -0.5282(4) 0.6712(3)
H8 H 0.0017 -0.5623 0.6898
H9 H 0.1466 -0.5696 0.6684
H10 H 0.0278 -0.5237 0.6269
C20 C 0.1439(6) -0.2471(5) 0.8874(3)
H11 H 0.0710 -0.2052 0.8850
H12 H 0.2319 -0.2052 0.9197
H13 H 0.1099 -0.3103 0.9009
C21 C 0.4118(6) -0.1648(4) 0.7162(3)
H14 H 0.4469 -0.2046 0.6814
H15 H 0.4925 -0.1261 0.7538
H16 H 0.3611 -0.1150 0.6991
C22 C 0.2895(5) -0.3845(4) 0.6329(2)
H17 H 0.3936 -0.3594 0.6404
H18 H 0.2674 -0.4624 0.6195
C23 C 0.2643(5) -0.2780(4) 0.5461(2)
H19 H 0.3627 -0.2488 0.5528
C24 C 0.0380(5) -0.3175(4) 0.5113(2)
H20 H -0.0557 -0.3191 0.4873
C25 C 0.3309(5) -0.0949(4) 0.8432(3)
H21 H 0.3579 -0.0963 0.8901
H22 H 0.4179 -0.0634 0.8321
C26 C 0.1704(5) 0.0268(4) 0.8807(2)
H23 H 0.1939 0.0285 0.9261
C27 C 0.0810(5) 0.0520(4) 0.7871(2)
H24 H 0.0265 0.0776 0.7544
C28 C 0.1230(5) 0.3653(4) 1.0320(2)
H25 H 0.0859 0.4178 1.0147
C29 C 0.1584(5) 0.2146(4) 1.0406(2)
H26 H 0.1550 0.1413 1.0329
C30 C 0.3570(5) 0.2758(4) 1.1494(2)
H27 H 0.4522 0.3056 1.1447
H28 H 0.3498 0.1996 1.1455
C31 C 0.3440(4) 0.3294(3) 1.21814(19)
C32 C 0.4210(4) 0.4355(3) 1.2500(2)
C33 C 0.4131(4) 0.4833(3) 1.3154(2)
C34 C 0.3258(4) 0.4272(3) 1.3477(2)
C35 C 0.2442(4) 0.3233(3) 1.3137(2)
C36 C 0.2543(4) 0.2736(3) 1.2499(2)
C37 C 0.5110(5) 0.4980(4) 1.2152(2)
H29 H 0.4888 0.5677 1.2190
H30 H 0.4893 0.4603 1.1686
H31 H 0.6125 0.5060 1.2360
C38 C 0.1724(5) 0.1583(3) 1.2162(2)
H32 H 0.2231 0.1106 1.2357
H33 H 0.1662 0.1427 1.1689
H34 H 0.0760 0.1486 1.2228
C39 C 0.3214(6) 0.4777(4) 1.4191(2)
H35 H 0.2354 0.5061 1.4179
H36 H 0.4061 0.5348 1.4405
H37 H 0.3199 0.4243 1.4441
C40 C 0.5006(5) 0.5969(3) 1.3509(2)
H38 H 0.5547 0.5986 1.3958
H39 H 0.5701 0.6178 1.3263
C41 C 0.4091(5) 0.7532(4) 1.4065(2)
H40 H 0.4767 0.7715 1.4482
C42 C 0.2367(5) 0.7479(3) 1.3262(2)
H41 H 0.1555 0.7642 1.3011
C43 C 0.1397(5) 0.2656(3) 1.3456(2)
H42 H 0.1173 0.3183 1.3798
H43 H 0.0496 0.2303 1.3115
C44 C 0.1207(4) 0.1006(3) 1.3894(2)
H44 H 0.0197 0.0810 1.3795
C45 C 0.3444(5) 0.1065(4) 1.4229(2)
H45 H 0.4305 0.0883 1.4414
Cd1 Cd -0.08026(3) 0.16948(2) 0.895800(14)
Cd2 Cd 0.16713(3) -0.10745(2) 0.455640(13)
Cl1 Cl -0.20325(18) 0.03325(10) 0.94790(7)
N1 N 0.0160(4) -0.6702(3) 0.86665(18)
N2 N 0.0272(4) -0.5318(3) 0.82543(17)
N3 N 0.1664(4) -0.5371(4) 0.8486(3)
N4 N 0.2124(4) -0.3450(3) 0.57856(17)
N5 N 0.0643(4) -0.3729(3) 0.5560(2)
N6 N 0.1581(4) -0.2582(3) 0.50299(18)
N7 N 0.2243(4) -0.0283(3) 0.83434(19)
N8 N 0.1675(4) -0.0139(3) 0.7732(2)
N9 N 0.0779(4) 0.0790(3) 0.85209(19)
N10 N 0.0789(4) 0.2592(3) 1.00003(17)
N11 N 0.2441(4) 0.2894(3) 1.09410(17)
N12 N 0.2224(5) 0.3880(3) 1.0896(2)
N13 N 0.4063(4) 0.6735(3) 1.35579(17)
N14 N 0.2949(4) 0.6693(3) 1.30204(18)
N15 N 0.3047(4) 0.8040(3) 1.39126(19)
N16 N 0.1966(4) 0.1855(3) 1.37642(18)
N17 N 0.3415(4) 0.1916(3) 1.3987(2)
N18 N 0.2122(4) 0.0486(3) 1.41865(18)
O1 O -0.3013(3) 0.2227(3) 0.86750(15)
O2 O -0.2567(3) 0.1028(3) 0.78786(16)
O3 O -0.6196(3) -0.0114(3) 0.55261(15)
O4 O -0.8440(3) -0.0150(3) 0.55984(15)
O5 O -0.8451(6) 0.2195(4) 0.5801(2)
O6 O -0.9877(4) 0.1572(3) 0.6392(2)
Cd2_2 Cd 0.16713(3) 0.89255(2) 1.455640(13)
Cd2_3 Cd 0.16713(3) -0.10745(2) 1.455640(13)
Cd2_4 Cd -0.83287(3) -0.10745(2) 0.455640(13)
Cd2A Cd -1.16713(3) 0.10745(2) 0.544360(13)
N15_2 N 0.3047(4) -0.1960(3) 0.39126(19)
N18_2 N 0.2122(4) 0.0486(3) 0.41865(18)
O3_2 O 0.3804(3) -0.0114(3) 0.55261(15)
O4_2 O 0.1560(3) -0.0150(3) 0.55984(15)
O6A O -0.0123(4) -0.1572(3) 0.3608(2)
O7 O 0.5112(9) 0.1237(11) 0.9774(5)
O8 O 0.4617(17) 0.626(2) 0.9598(9)
O9 O 0.296(2) 0.6013(8) 0.0379(7)
loop_
_geom_bond_atom_site_label_1
_geom_bond_atom_site_label_2
_geom_bond_site_symmetry_1
_geom_bond_site_symmetry_2
C1 C2 1_555 1_555
C2 C3 1_555 1_555
C3 H1 1_555 1_555
C4 C3 1_555 1_555
H2 C4 1_555 1_555
C5 C4 1_555 1_555
C6 C5 1_555 1_555
C7 C2 1_555 1_555
H3 C7 1_555 1_555
C8 C5 1_555 1_555
C9 C6 1_555 1_555
C10 H4 1_555 1_555
C11 H5 1_555 1_555
C12 H6 1_555 1_555
H7 C12 1_555 1_555
C13 C12 1_555 1_555
C14 C13 1_555 1_555
C15 C14 1_555 1_555
C16 C15 1_555 1_555
C17 C16 1_555 1_555
C18 C13 1_555 1_555
C19 C14 1_555 1_555
H8 C19 1_555 1_555
H9 C19 1_555 1_555
H10 C19 1_555 1_555
C20 C18 1_555 1_555
H11 C20 1_555 1_555
H12 C20 1_555 1_555
H13 C20 1_555 1_555
C21 C16 1_555 1_555
H14 C21 1_555 1_555
H15 C21 1_555 1_555
H16 C21 1_555 1_555
C22 C15 1_555 1_555
H17 C22 1_555 1_555
H18 C22 1_555 1_555
C23 H19 1_555 1_555
C24 H20 1_555 1_555
C25 C17 1_555 1_555
H21 C25 1_555 1_555
H22 C25 1_555 1_555
C26 H23 1_555 1_555
C27 H24 1_555 1_555
C28 H25 1_555 1_555
C29 H26 1_555 1_555
C30 H27 1_555 1_555
H28 C30 1_555 1_555
C31 C30 1_555 1_555
C32 C31 1_555 1_555
C33 C32 1_555 1_555
C34 C33 1_555 1_555
C35 C34 1_555 1_555
C36 C31 1_555 1_555
C37 C32 1_555 1_555
H29 C37 1_555 1_555
H30 C37 1_555 1_555
H31 C37 1_555 1_555
C38 C36 1_555 1_555
H32 C38 1_555 1_555
H33 C38 1_555 1_555
H34 C38 1_555 1_555
C39 C34 1_555 1_555
H35 C39 1_555 1_555
H36 C39 1_555 1_555
H37 C39 1_555 1_555
C40 C33 1_555 1_555
H38 C40 1_555 1_555
H39 C40 1_555 1_555
C41 H40 1_555 1_555
C42 H41 1_555 1_555
C43 C35 1_555 1_555
H42 C43 1_555 1_555
H43 C43 1_555 1_555
C44 H44 1_555 1_555
C45 H45 1_555 1_555
Cd1 Cl1 1_555 1_555
Cd2 N6 1_555 1_555
N1 C10 1_555 1_555
N2 C11 1_555 1_555
N3 C10 1_555 1_555
N4 C22 1_555 1_555
N5 C24 1_555 1_555
N6 C23 1_555 1_555
N7 C25 1_555 1_555
N8 C27 1_555 1_555
N9 C26 1_555 1_555
N10 C28 1_555 1_555
N11 C29 1_555 1_555
N12 C28 1_555 1_555
N13 C40 1_555 1_555
N14 C42 1_555 1_555
N15 C41 1_555 1_555
N16 C43 1_555 1_555
N17 C45 1_555 1_555
N18 C44 1_555 1_555
O1 C1 1_555 1_555
O2 C1 1_555 1_555
O3 C9 1_555 1_555
O4 C9 1_555 1_555
O5 C8 1_555 1_555
O6 C8 1_555 1_555
Cd2_2 N15 1_555 1_555
Cd2_3 N18 1_555 1_555
Cd2_4 O3 1_555 1_555
Cd2A O6 1_555 1_555
N15_2 Cd2 1_555 1_555
N18_2 Cd2 1_555 1_555
O3_2 Cd2 1_555 1_555
O4_2 Cd2 1_555 1_555
O6A Cd2 1_555 1_555
C6 C7 1_555 1_555
C11 N1 1_555 1_555
C12 N2 1_555 1_555
C17 C18 1_555 1_555
C23 N4 1_555 1_555
C24 N6 1_555 1_555
C26 N7 1_555 1_555
C27 N9 1_555 1_555
C29 N10 1_555 1_555
C30 N11 1_555 1_555
C35 C36 1_555 1_555
C41 N13 1_555 1_555
C42 N15 1_555 1_555
C44 N16 1_555 1_555
C45 N18 1_555 1_555
Cd1 N9 1_555 1_555
Cd1 N10 1_555 1_555
Cd1 O1 1_555 1_555
Cd1 O2 1_555 1_555
N2 N3 1_555 1_555
N4 N5 1_555 1_555
N7 N8 1_555 1_555
N11 N12 1_555 1_555
N13 N14 1_555 1_555
N16 N17 1_555 1_555
O4 Cd2_4 1_555 1_555

#END
