
#######################################################################
#
#                 Cambridge Crystallographic Data Centre
#                                CCDC 
#
#######################################################################
#
# If this CIF has been generated from an entry in the Cambridge 
# Structural Database, then it will include bibliographic, chemical, 
# crystal, experimental, refinement or atomic coordinate data resulting 
# from the CCDC's data processing and validation procedures.
#
#######################################################################

data_IBUDOZ
_chemical_formula_moiety         '(C12 H4 Cu1 N5)n'
_symmetry_cell_setting           monoclinic
_symmetry_space_group_name_H-M   'P 21/c'
_symmetry_Int_Tables_number      14
_space_group_name_Hall           '-P 2ybc'
loop_
_symmetry_equiv_pos_site_id
_symmetry_equiv_pos_as_xyz
1 x,y,z
2 -x,1/2+y,1/2-z
3 -x,-y,-z
4 x,1/2-y,1/2+z
_cell_length_a                   5.7266(8)
_cell_length_b                   16.474(2)
_cell_length_c                   9.9412(14)
_cell_angle_alpha                90
_cell_angle_beta                 94.294(2)
_cell_angle_gamma                90
_cell_volume                     935.22
loop_
_atom_site_label
_atom_site_type_symbol
_atom_site_fract_x
_atom_site_fract_y
_atom_site_fract_z
Cu1 Cu 0.75359(7) 0.43270(3) 0.48839(5)
N1 N 0.6648(6) 0.3435(2) 0.6238(4)
N2 N 0.4265(5) 0.08335(19) 0.8749(4)
N3 N 0.2483(5) 0.04419(19) 0.9287(4)
N4 N 0.0605(5) 0.0917(2) 0.9171(4)
N5 N 0.1113(6) 0.1617(2) 0.8589(4)
C4 C 0.4844(11) 0.3575(3) 0.6981(6)
H1 H 0.435(10) 0.410(4) 0.697(6)
C5 C 0.3749(10) 0.2980(3) 0.7678(6)
H2 H 0.258(8) 0.312(3) 0.815(5)
C6 C 0.4565(7) 0.2190(2) 0.7628(4)
C7 C 0.6426(7) 0.2038(3) 0.6875(5)
H3 H 0.693(8) 0.153(3) 0.676(5)
C8 C 0.7414(8) 0.2665(3) 0.6197(5)
H4 H 0.869(9) 0.258(3) 0.563(5)
C9 C 0.3346(6) 0.1546(2) 0.8326(4)
N2C N 0.4265(5) 0.41665(19) 0.3749(4)
N3A N 0.7517(5) 0.54419(19) 0.5713(4)
N4C N 1.0605(5) 0.4083(2) 0.4171(4)
Cu1C Cu 0.75359(7) 0.06730(3) 0.98839(5)
Cu1A Cu 0.24641(7) -0.06730(3) 1.01161(5)
Cu1C_2 Cu -0.24641(7) 0.06730(3) 0.98839(5)
C1 C 0.186(3) 0.4619(12) -0.0279(19)
C2 C 0.197(2) 0.5027(10) 0.0726(15)
C3 C -0.019(3) 0.4565(11) -0.102(2)
C3B C 0.019(3) 0.5435(11) 0.102(2)
C1B C -0.186(3) 0.5381(12) 0.0279(19)
C2B C -0.197(2) 0.4973(10) -0.0726(15)
loop_
_geom_bond_atom_site_label_1
_geom_bond_atom_site_label_2
_geom_bond_site_symmetry_1
_geom_bond_site_symmetry_2
C1 C2 1_555 1_555
C2 C3B 1_555 1_555
C3 C1 1_555 1_555
Cu1 N1 1_555 1_555
N1 C4 1_555 1_555
N2 N3 1_555 1_555
N3 N4 1_555 1_555
N4 N5 1_555 1_555
N5 C9 1_555 1_555
C4 H1 1_555 1_555
C5 C4 1_555 1_555
H2 C5 1_555 1_555
C6 C5 1_555 1_555
C7 C6 1_555 1_555
H3 C7 1_555 1_555
C8 N1 1_555 1_555
H4 C8 1_555 1_555
C9 N2 1_555 1_555
C3B C1B 1_555 1_555
C1B C2B 1_555 1_555
C2B C3 1_555 1_555
N2C Cu1 1_555 1_555
N3A Cu1 1_555 1_555
N4C Cu1 1_555 1_555
Cu1C N2 1_555 1_555
Cu1A N3 1_555 1_555
Cu1C_2 N4 1_555 1_555
C6 C9 1_555 1_555
C7 C8 1_555 1_555

#END
