
#######################################################################
#
#                 Cambridge Crystallographic Data Centre
#                                CCDC 
#
#######################################################################
#
# If this CIF has been generated from an entry in the Cambridge 
# Structural Database, then it will include bibliographic, chemical, 
# crystal, experimental, refinement or atomic coordinate data resulting 
# from the CCDC's data processing and validation procedures.
#
#######################################################################

data_ABEXEN
_chemical_formula_moiety         '(C22 H10 In1 N3 O8 S1 1-)n'
_symmetry_cell_setting           hexagonal
_symmetry_space_group_name_H-M   'P 6/m c c'
_symmetry_Int_Tables_number      192
_space_group_name_Hall           '-P 6 2c'
loop_
_symmetry_equiv_pos_site_id
_symmetry_equiv_pos_as_xyz
1 x,y,z
2 x-y,x,z
3 -y,x-y,z
4 -x,-y,z
5 -x+y,-x,z
6 y,-x+y,z
7 x-y,-y,1/2-z
8 -x,-x+y,1/2-z
9 y,x,1/2-z
10 -y,-x,1/2-z
11 -x+y,y,1/2-z
12 x,x-y,1/2-z
13 -x,-y,-z
14 -x+y,-x,-z
15 y,-x+y,-z
16 x,y,-z
17 x-y,x,-z
18 -y,x-y,-z
19 -x+y,y,1/2+z
20 x,x-y,1/2+z
21 -y,-x,1/2+z
22 y,x,1/2+z
23 x-y,-y,1/2+z
24 -x,-x+y,1/2+z
_cell_length_a                   25.0980(2)
_cell_length_b                   25.0980(2)
_cell_length_c                   28.4464(3)
_cell_angle_alpha                90
_cell_angle_beta                 90
_cell_angle_gamma                120
_cell_volume                     15518
loop_
_atom_site_label
_atom_site_type_symbol
_atom_site_fract_x
_atom_site_fract_y
_atom_site_fract_z
_atom_site_U_iso_or_equiv
_atom_site_thermal_displace_type
C14 C 0.6667 0.3333 -0.0435(3) 0.1173 Uani
N1 N 0.6919(7) 0.3329(9) 0.0000 0.0889 Uani
N1B N 0.6671(9) 0.3590(11) 0.0000 0.0889 Uani
N1D N 0.6410(11) 0.3081(7) 0.0000 0.0889 Uani
C14M C 0.6666 0.3333 0.0435(3) 0.1173 Uani
In1 In 0.68785(2) 0.16294(2) 0.0000 0.0527 Uani
S1 S 0.92813(5) 0.30318(6) 0.0000 0.0702 Uani
O1 O 1.06868(16) 0.38132(23) 0.0000 0.0760 Uani
O2 O 0.79306(14) 0.20203(14) 0.0000 0.0657 Uani
O3 O 0.69687(13) 0.16153(13) 0.07891(9) 0.0827 Uani
O4 O 1.07237(15) 0.47008(22) 0.0000 0.0848 Uani
C1 C 0.8010(2) 0.2554(2) 0.0000 0.0636 Uani
O5 O 0.75612(14) 0.26424(15) 0.0000 0.0703 Uani
O6 O 0.63641(12) 0.19327(13) 0.05136(8) 0.0789 Uani
C2 C 0.66075(18) 0.18251(19) 0.08539(13) 0.0783 Uani
C3 C 0.8634(2) 0.3097(2) 0.0000 0.0677 Uani
C4 C 0.9745(2) 0.3810(2) 0.0000 0.0733 Uani
C5 C 0.6465(2) 0.1934(2) 0.13425(13) 0.0882 Uani
C6 C 1.0416(2) 0.4120(3) 0.0000 0.0723 Uani
C7 C 0.8775(3) 0.3691(3) 0.0000 0.1024 Uani
H1 H 0.8481 0.3814 0.0000 0.1230 Uiso
C8 C 0.9397(3) 0.4094(2) 0.0000 0.1140 Uani
H2 H 0.9568 0.4519 0.0000 0.1370 Uiso
C9 C 0.6733(2) 0.1814(3) 0.17242(15) 0.1134 Uani
H3 H 0.7024 0.1693 0.1676 0.1360 Uiso
C10 C 0.6064(3) 0.2148(3) 0.14190(15) 0.1103 Uani
H4 H 0.5899 0.2250 0.1165 0.1330 Uiso
C11 C 0.6563(3) 0.1874(3) 0.21798(16) 0.1241 Uani
H5 H 0.6737 0.1785 0.2435 0.1490 Uiso
C12 C 0.5904(3) 0.2213(3) 0.18737(15) 0.1203 Uani
H6 H 0.5632 0.2358 0.1921 0.1440 Uiso
C13 C 0.6142(2) 0.2065(3) 0.22557(14) 0.1032 Uani
O3J O 0.46466(18) 0.16153(13) 0.42109(9) 0.0827 Uani
O6J O 0.55686(18) 0.19327(13) 0.44864(8) 0.0789 Uani
C2J C 0.52176(26) 0.18251(19) 0.41461(13) 0.0783 Uani
C5J C 0.5469(3) 0.1934(2) 0.36575(13) 0.0882 Uani
C9J C 0.5081(4) 0.1814(3) 0.32758(15) 0.1134 Uani
H3J H 0.4669 0.1693 0.3324 0.1360 Uiso
C10J C 0.6084(4) 0.2148(3) 0.35810(15) 0.1103 Uani
H4J H 0.6351 0.2250 0.3835 0.1330 Uiso
C11J C 0.5311(4) 0.1874(3) 0.28202(16) 0.1241 Uani
H5J H 0.5048 0.1785 0.2565 0.1490 Uiso
C12J C 0.6309(4) 0.2213(3) 0.31263(15) 0.1203 Uani
H6J H 0.6726 0.2358 0.3079 0.1440 Uiso
C13J C 0.5923(4) 0.2065(3) 0.27443(14) 0.1032 Uani
In1E In 1.16294(2) 0.47509(3) 0.0000 0.0527 Uani
In1J In 0.47509(3) 0.16294(2) 0.5000 0.0527 Uani
O1A O 0.68736(28) 0.06868(16) 0.0000 0.0760 Uani
O3O O 0.69687(13) 0.16153(13) -0.07891(9) 0.0827 Uani
O4A O 0.60229(27) 0.07237(15) 0.0000 0.0848 Uani
O6O O 0.63641(12) 0.19327(13) -0.05136(8) 0.0789 Uani
loop_
_atom_site_aniso_label
_atom_site_aniso_U_11
_atom_site_aniso_U_22
_atom_site_aniso_U_33
_atom_site_aniso_U_23
_atom_site_aniso_U_13
_atom_site_aniso_U_12
C14 0.126(4) 0.126(4) 0.100(6) 0.000 0.000 0.063(2)
N1 0.089(13) 0.096(9) 0.112(10) 0.000 0.000 0.069(11)
N1B 0.096 0.047 0.112 0 0 0.027
N1D 0.047 0.089 0.112 0 0 0.02
C14M 0.126 0.126 0.1 0 0 0.063
In1 0.05297(17) 0.05208(17) 0.05187(16) 0.000 0.000 0.02542(13)
S1 0.0552(6) 0.0575(6) 0.0999(9) 0.000 0.000 0.0296(5)
O1 0.0605 0.0649 0.101 0 0 0.0302
O2 0.0515(16) 0.0525(17) 0.088(2) 0.000 0.000 0.0222(13)
O3 0.0985(19) 0.105(2) 0.0556(13) 0.0012(13) 0.0064(12) 0.0591(17)
O4 0.0495 0.0579 0.138 0 0 0.0202
C1 0.059(2) 0.062(3) 0.064(3) 0.000 0.000 0.026(2)
O5 0.0498(16) 0.068(2) 0.091(2) 0.000 0.000 0.0278(15)
O6 0.0827(16) 0.1038(19) 0.0554(13) -0.0062(12) 0.0054(12) 0.0506(15)
C2 0.077(2) 0.089(3) 0.063(2) 0.0023(18) 0.0080(18) 0.037(2)
C3 0.059(3) 0.060(3) 0.083(3) 0.000 0.000 0.029(2)
C4 0.055(3) 0.062(3) 0.100(4) 0.000 0.000 0.027(2)
C5 0.101(3) 0.116(3) 0.0553(19) 0.002(2) 0.0140(19) 0.060(3)
C6 0.059 0.074 0.081 0 0 0.031
C7 0.059(3) 0.070(3) 0.186(7) 0.000 0.000 0.038(3)
C8 0.060(3) 0.048(3) 0.226(9) 0.000 0.000 0.021(2)
C9 0.125(4) 0.181(6) 0.063(2) -0.005(3) 0.006(2) 0.098(4)
C10 0.145(4) 0.162(5) 0.063(2) 0.019(3) 0.024(3) 0.106(4)
C11 0.141(5) 0.210(6) 0.059(2) -0.003(3) 0.003(3) 0.116(5)
C12 0.165(5) 0.179(5) 0.065(2) 0.016(3) 0.034(3) 0.122(5)
C13 0.116(4) 0.143(4) 0.059(2) 0.002(2) 0.018(2) 0.071(3)
O3J 0.0853 0.105 0.0556 -0.0012 0.0052 0.0459
O6J 0.0853 0.1038 0.0554 0.0062 0.0116 0.0532
C2J 0.092 0.089 0.063 -0.0023 0.0057 0.052
C5J 0.097 0.116 0.0553 -0.002 0.012 0.056
C9J 0.11 0.181 0.063 0.005 0.011 0.083
C10J 0.095 0.162 0.063 -0.019 0.005 0.056
C11J 0.119 0.21 0.059 0.003 0.006 0.094
C12J 0.1 0.179 0.065 -0.016 0.018 0.057
C13J 0.117 0.143 0.059 -0.002 0.016 0.072
In1E 0.05208 0.05421 0.05187 0 0 0.02666
In1J 0.05421 0.05208 0.05187 0 0 0.02666
O1A 0.065 0.0605 0.101 0 0 0.0303
O3O 0.0985 0.105 0.0556 -0.0012 -0.0064 0.0591
O4A 0.067 0.0495 0.138 0 0 0.0293
O6O 0.0827 0.1038 0.0554 0.0062 -0.0054 0.0506
loop_
_geom_bond_atom_site_label_1
_geom_bond_atom_site_label_2
_geom_bond_site_symmetry_1
_geom_bond_site_symmetry_2
In1 O2 1_555 1_555
S1 C3 1_555 1_555
O1 C6 1_555 1_555
O2 C1 1_555 1_555
O3 In1 1_555 1_555
O4 C6 1_555 1_555
C1 O5 1_555 1_555
O5 In1 1_555 1_555
O6 In1 1_555 1_555
C2 O3 1_555 1_555
C3 C1 1_555 1_555
C4 S1 1_555 1_555
C5 C2 1_555 1_555
C6 C4 1_555 1_555
C7 C3 1_555 1_555
H1 C7 1_555 1_555
C8 C4 1_555 1_555
H2 C8 1_555 1_555
C9 C5 1_555 1_555
H3 C9 1_555 1_555
C10 C5 1_555 1_555
H4 C10 1_555 1_555
C11 C9 1_555 1_555
H5 C11 1_555 1_555
C12 C10 1_555 1_555
H6 C12 1_555 1_555
C13 C11 1_555 1_555
C14 N1 1_555 1_555
N1 N1B 1_555 1_555
O3J C2J 1_555 1_555
O6J C2J 1_555 1_555
C2J C5J 1_555 1_555
C5J C9J 1_555 1_555
C9J H3J 1_555 1_555
C10J C5J 1_555 1_555
H4J C10J 1_555 1_555
C11J C9J 1_555 1_555
H5J C11J 1_555 1_555
C12J C10J 1_555 1_555
H6J C12J 1_555 1_555
C13J C13 1_555 1_555
In1E O1 1_555 1_555
In1J O3J 1_555 1_555
O1A In1 1_555 1_555
O3O In1 1_555 1_555
O4A In1 1_555 1_555
O6O In1 1_555 1_555
N1B C14 1_555 1_555
N1D C14 1_555 1_555
C14M N1 1_555 1_555
O4 In1E 1_555 1_555
O6 C2 1_555 1_555
C7 C8 1_555 1_555
C12 C13 1_555 1_555
N1 N1D 1_555 1_555
O6J In1J 1_555 1_555
C11J C13J 1_555 1_555
C12J C13J 1_555 1_555
N1B N1D 1_555 1_555
N1B C14M 1_555 1_555
N1D C14M 1_555 1_555

#END
