
#######################################################################
#
#                 Cambridge Crystallographic Data Centre
#                                CCDC 
#
#######################################################################
#
# If this CIF has been generated from an entry in the Cambridge 
# Structural Database, then it will include bibliographic, chemical, 
# crystal, experimental, refinement or atomic coordinate data resulting 
# from the CCDC's data processing and validation procedures.
#
#######################################################################

data_PUMDIM
_chemical_formula_moiety         '(C17 H26 Co3 O20 2+)n'
_symmetry_cell_setting           trigonal
_symmetry_space_group_name_H-M   'P 3 1 c'
_symmetry_Int_Tables_number      159
_space_group_name_Hall           'P 3 -2c'
loop_
_symmetry_equiv_pos_site_id
_symmetry_equiv_pos_as_xyz
1 x,y,z
2 -y,x-y,z
3 -x+y,-x,z
4 y,x,1/2+z
5 x-y,-y,1/2+z
6 -x,-x+y,1/2+z
_cell_length_a                   16.2712(4)
_cell_length_b                   16.2712(4)
_cell_length_c                   17.2772(8)
_cell_angle_alpha                90
_cell_angle_beta                 90
_cell_angle_gamma                120
_cell_volume                     3961.35
loop_
_atom_site_label
_atom_site_type_symbol
_atom_site_fract_x
_atom_site_fract_y
_atom_site_fract_z
_atom_site_U_iso_or_equiv
_atom_site_thermal_displace_type
Co1 Co 0.94408(5) 0.59801(5) 0.79344(4) 0.0186 Uani
Co2 Co 0.96506(5) 0.72431(5) 0.95064(4) 0.0196 Uani
O1 O 0.8289(3) 0.6123(3) 0.7768(3) 0.0274 Uani
O2 O 0.8763(3) 0.7269(3) 0.8637(3) 0.0330 Uani
O3 O 0.7204(4) 0.9187(3) 0.8831(3) 0.0348 Uani
O4 O 0.6723(4) 0.9463(3) 0.7703(3) 0.0349 Uani
O5 O 0.7450(4) 0.8024(4) 0.5484(4) 0.0476 Uani
O6 O 0.6393(3) 0.8475(3) 0.5145(3) 0.0318 Uani
O7 O 0.4019(4) 0.5392(3) 0.3605(3) 0.0368 Uani
O8 O 0.3690(3) 0.4054(3) 0.4132(2) 0.0242 Uani
O9 O 0.4636(3) 0.4016(3) 0.6910(3) 0.0322 Uani
O10 O 0.4601(4) 0.5153(4) 0.7557(3) 0.0421 Uani
O11 O 0.9746(3) 0.8534(3) 0.9891(3) 0.0338 Uani
O12 O 1.0591(4) 0.7401(4) 1.0421(4) 0.0469 Uani
C1 C 0.7535(4) 0.7052(4) 0.7783(3) 0.0218 Uani
C2 C 0.7533(4) 0.7823(4) 0.8114(4) 0.0258 Uani
H1 H 0.7917 0.8129 0.8538 0.0310 Uiso
C3 C 0.6939(4) 0.8141(4) 0.7796(4) 0.0261 Uani
C4 C 0.6372(4) 0.7687(4) 0.7167(4) 0.0243 Uani
H2 H 0.6002 0.7914 0.6948 0.0290 Uiso
C5 C 0.6354(4) 0.6880(4) 0.6858(3) 0.0194 Uani
C6 C 0.6935(4) 0.6579(4) 0.7170(3) 0.0203 Uani
H3 H 0.6925 0.6046 0.6964 0.0240 Uiso
C7 C 0.8242(4) 0.6792(4) 0.8093(3) 0.0199 Uani
C8 C 0.6965(4) 0.9005(4) 0.8138(4) 0.0256 Uani
C9 C 0.5716(4) 0.6387(4) 0.6178(3) 0.0194 Uani
C10 C 0.5819(4) 0.6879(4) 0.5499(3) 0.0201 Uani
C11 C 0.5237(4) 0.6423(4) 0.4848(3) 0.0224 Uani
H4 H 0.5298 0.6768 0.4402 0.0270 Uiso
C12 C 0.4578(4) 0.5460(4) 0.4877(3) 0.0224 Uani
C13 C 0.4478(4) 0.4959(4) 0.5565(3) 0.0236 Uani
H5 H 0.4053 0.4310 0.5584 0.0290 Uiso
C14 C 0.5008(4) 0.5422(4) 0.6219(3) 0.0211 Uani
C15 C 0.6607(4) 0.7865(4) 0.5379(3) 0.0239 Uani
C16 C 0.4054(4) 0.4950(4) 0.4176(3) 0.0221 Uani
C17 C 0.4754(4) 0.4855(4) 0.6956(3) 0.0246 Uani
Co1A Co 0.40199(5) 0.34607(7) 0.79344(4) 0.0186 Uani
Co1B Co 0.65393(7) 1.05592(5) 0.79344(4) 0.0186 Uani
Co1D Co 0.34607(7) 0.40199(5) 0.29344(4) 0.0186 Uani
Co2B Co 0.75925(7) 1.03494(5) 0.95064(4) 0.0196 Uani
Co2C Co 0.72431(5) 0.96506(5) 0.45064(4) 0.0196 Uani
Co2D Co 0.24075(7) 0.27569(5) 0.45064(4) 0.0196 Uani
O3A O 1.0813(3) 0.8017(5) 0.8831(3) 0.0348 Uani
O4A O 1.0537(3) 0.7260(5) 0.7703(3) 0.0349 Uani
O6C O 0.8475(3) 0.6393(3) 1.0145(3) 0.0318 Uani
O7D O 0.8627(5) 0.4608(3) 0.8605(3) 0.0368 Uani
O8D O 0.9636(4) 0.5946(3) 0.9132(2) 0.0242 Uani
O9B O 0.9380(4) 0.5364(3) 0.6910(3) 0.0322 Uani
Co3 Co 0.6667 0.3333 0.67580(8) 0.0258 Uani
O13 O 0.5595(3) 0.2341(3) 0.7466(3) 0.0338 Uani
O14 O 0.5669(5) 0.3435(5) 0.6065(4) 0.0528 Uani
O13A O 0.7659(3) 0.3254(4) 0.7466(3) 0.0338 Uani
O14A O 0.6565(5) 0.2234(7) 0.6065(4) 0.0528 Uani
O13B O 0.6746(4) 0.4405(3) 0.7466(3) 0.0338 Uani
O14B O 0.7766(7) 0.4331(5) 0.6065(4) 0.0528 Uani
O15 O 0.0000 0.0000 0.8888(7) 0.0598 Uani
O16 O 0.0000 0.0000 0.7218(13) 0.1087 Uani
loop_
_atom_site_aniso_label
_atom_site_aniso_U_11
_atom_site_aniso_U_22
_atom_site_aniso_U_33
_atom_site_aniso_U_23
_atom_site_aniso_U_13
_atom_site_aniso_U_12
Co1 0.0184(4) 0.0187(4) 0.0169(4) 0.0015(3) 0.0015(3) 0.0080(3)
Co2 0.0160(4) 0.0198(4) 0.0195(4) 0.0006(3) 0.0021(3) 0.0064(3)
O1 0.027(2) 0.026(2) 0.035(2) -0.0061(19) -0.0065(18) 0.0176(18)
O2 0.038(3) 0.036(3) 0.035(2) -0.011(2) -0.015(2) 0.026(2)
O3 0.050(3) 0.027(2) 0.035(3) -0.0110(19) -0.009(2) 0.025(2)
O4 0.046(3) 0.032(2) 0.042(3) -0.014(2) -0.017(2) 0.031(2)
O5 0.026(2) 0.036(3) 0.068(4) 0.023(3) -0.004(2) 0.006(2)
O6 0.031(2) 0.017(2) 0.044(3) 0.0064(19) 0.004(2) 0.0095(18)
O7 0.054(3) 0.024(2) 0.017(2) -0.0004(17) -0.0118(19) 0.008(2)
O8 0.023(2) 0.024(2) 0.020(2) -0.0045(16) -0.0031(16) 0.0075(18)
O9 0.032(2) 0.024(2) 0.038(2) 0.0146(19) 0.0090(19) 0.012(2)
O10 0.052(3) 0.038(3) 0.025(3) 0.003(2) 0.004(2) 0.014(2)
O11 0.029(2) 0.024(2) 0.042(3) -0.0025(19) 0.0020(19) 0.0084(19)
O12 0.044(3) 0.039(3) 0.054(3) -0.004(2) -0.020(3) 0.018(2)
C1 0.021(3) 0.024(3) 0.024(3) 0.001(2) -0.001(2) 0.014(2)
C2 0.026(3) 0.027(3) 0.028(3) -0.014(2) -0.014(2) 0.016(3)
C3 0.030(3) 0.025(3) 0.033(3) -0.007(2) -0.007(3) 0.021(3)
C4 0.027(3) 0.022(3) 0.029(3) -0.002(2) -0.003(2) 0.016(2)
C5 0.023(3) 0.016(2) 0.017(3) 0.000(2) -0.001(2) 0.008(2)
C6 0.026(3) 0.014(2) 0.021(3) 0.002(2) 0.002(2) 0.010(2)
C7 0.022(3) 0.022(3) 0.017(2) 0.000(2) -0.001(2) 0.012(2)
C8 0.022(3) 0.022(3) 0.034(3) -0.012(2) -0.008(2) 0.012(2)
C9 0.025(3) 0.014(2) 0.017(2) -0.005(2) -0.004(2) 0.008(2)
C10 0.024(3) 0.015(2) 0.019(3) 0.000(2) -0.003(2) 0.008(2)
C11 0.027(3) 0.021(3) 0.018(3) 0.001(2) -0.004(2) 0.011(2)
C12 0.024(3) 0.017(3) 0.022(3) 0.000(2) 0.001(2) 0.007(2)
C13 0.030(3) 0.014(2) 0.020(3) -0.001(2) -0.003(2) 0.006(2)
C14 0.025(3) 0.015(2) 0.018(3) -0.001(2) -0.003(2) 0.006(2)
C15 0.026(3) 0.021(3) 0.021(3) -0.001(2) -0.007(2) 0.009(2)
C16 0.020(3) 0.021(3) 0.021(3) -0.001(2) 0.001(2) 0.007(2)
C17 0.023(3) 0.028(3) 0.019(3) 0.003(2) -0.002(2) 0.010(2)
Co1A 0.0187 0.0211 0.0169 -4.12433e-19 -0.0015 0.0107
Co1B 0.0211 0.0184 0.0169 -0.0015 4.12433e-19 0.0104
Co1D 0.0211 0.0187 0.0169 -0.0015 -4.12433e-19 0.0107
Co2B 0.023 0.016 0.0195 -0.0021 -0.0015 0.0096
Co2C 0.0198 0.016 0.0195 0.0021 0.0006 0.0064
Co2D 0.023 0.0198 0.0195 -0.0006 0.0015 0.0134
O3A 0.027 0.027 0.035 0.002 0.011 0.002
O4A 0.032 0.016 0.042 -0.003 0.014 0.001
O6C 0.017 0.031 0.044 0.004 0.0064 0.0095
O7D 0.062 0.024 0.017 0.0004 -0.0114 0.016
O8D 0.032 0.024 0.02 0.0045 0.0014 0.0165
O9B 0.032 0.032 0.038 -0.009 0.0056 0.02
Co3 0.0245(4) 0.0245(4) 0.0286(7) 0.000 0.000 0.0123(2)
O13 0.021(2) 0.032(2) 0.049(3) 0.011(2) 0.007(2) 0.0137(19)
O14 0.051(3) 0.072(4) 0.053(3) -0.004(3) -0.011(3) 0.044(3)
O13A 0.032 0.0256 0.049 -0.004 -0.011 0.0183
O14A 0.072 0.035 0.053 -0.007 0.004 0.028
O13B 0.0256 0.021 0.049 -0.007 0.004 0.0073
O14B 0.035 0.051 0.053 0.011 0.007 0.007
O15 0.054(4) 0.054(4) 0.071(7) 0.000 0.000 0.0268(19)
O16 0.15(2) 0.15(2) 0.026(12) 0.000 0.000 0.075(10)
loop_
_geom_bond_atom_site_label_1
_geom_bond_atom_site_label_2
_geom_bond_site_symmetry_1
_geom_bond_site_symmetry_2
Co1 O1 1_555 1_555
Co2 O2 1_555 1_555
O1 C7 1_555 1_555
O2 C7 1_555 1_555
O3 C8 1_555 1_555
O4 C8 1_555 1_555
O5 C15 1_555 1_555
O6 C15 1_555 1_555
O7 C16 1_555 1_555
O8 C16 1_555 1_555
O9 C17 1_555 1_555
O10 C17 1_555 1_555
O11 Co2 1_555 1_555
O12 Co2 1_555 1_555
C1 C2 1_555 1_555
C2 H1 1_555 1_555
C3 C2 1_555 1_555
C4 C3 1_555 1_555
H2 C4 1_555 1_555
C5 C4 1_555 1_555
C6 C1 1_555 1_555
H3 C6 1_555 1_555
C7 C1 1_555 1_555
C8 C3 1_555 1_555
C9 C5 1_555 1_555
C10 C9 1_555 1_555
C11 C10 1_555 1_555
H4 C11 1_555 1_555
C12 C11 1_555 1_555
C13 C12 1_555 1_555
H5 C13 1_555 1_555
C14 C9 1_555 1_555
C15 C10 1_555 1_555
C16 C12 1_555 1_555
C17 C14 1_555 1_555
Co3 O13 1_555 1_555
O14 Co3 1_555 1_555
Co1A O9 1_555 1_555
Co1B O4 1_555 1_555
Co1D O7 1_555 1_555
Co2B O3 1_555 1_555
Co2C O6 1_555 1_555
Co2D O8 1_555 1_555
O3A Co2 1_555 1_555
O4A Co1 1_555 1_555
O6C Co2 1_555 1_555
O7D Co1 1_555 1_555
O8D Co1 1_555 1_555
O9B Co1 1_555 1_555
O13A Co3 1_555 1_555
O14A Co3 1_555 1_555
O13B Co3 1_555 1_555
O14B Co3 1_555 1_555
Co2 O8D 1_555 1_555
O8 Co1D 1_555 1_555
C5 C6 1_555 1_555
C13 C14 1_555 1_555

#END
