
#######################################################################
#
#                 Cambridge Crystallographic Data Centre
#                                CCDC 
#
#######################################################################
#
# If this CIF has been generated from an entry in the Cambridge 
# Structural Database, then it will include bibliographic, chemical, 
# crystal, experimental, refinement or atomic coordinate data resulting 
# from the CCDC's data processing and validation procedures.
#
#######################################################################

data_LADQOZ
_chemical_formula_moiety         '(C59 H72 N2 O23 Sm2)n'
_symmetry_cell_setting           triclinic
_symmetry_space_group_name_H-M   'P -1'
_symmetry_Int_Tables_number      2
_space_group_name_Hall           '-P 1'
loop_
_symmetry_equiv_pos_site_id
_symmetry_equiv_pos_as_xyz
1 x,y,z
2 -x,-y,-z
_cell_length_a                   11.4087(8)
_cell_length_b                   13.6584(8)
_cell_length_c                   24.0230(12)
_cell_angle_alpha                93.171(4)
_cell_angle_beta                 103.627(5)
_cell_angle_gamma                112.671(6)
_cell_volume                     3312.04
loop_
_atom_site_label
_atom_site_type_symbol
_atom_site_fract_x
_atom_site_fract_y
_atom_site_fract_z
Sm1 Sm -0.35302(7) 0.59774(5) -0.03794(3)
O1 O -0.3630(12) 0.6107(9) -0.1424(5)
O2 O -1.3959(12) 0.6896(8) -0.9650(4)
O3 O -0.3732(11) 0.7418(8) -0.0882(4)
O4 O -1.5665(11) 0.5900(8) -0.9341(5)
C1 C -0.3744(14) 0.6997(11) -0.1369(7)
C2 C -0.3866(15) 0.7556(11) -0.1885(6)
C3 C -0.4233(13) 0.8426(11) -0.1845(6)
C4 C -0.3691(15) 0.7239(11) -0.2393(7)
H1 H -0.4350 0.8656 -0.1499
C5 C -0.4417(13) 0.8931(10) -0.2309(6)
C6 C -0.3835(15) 0.7753(11) -0.2874(6)
H2 H -0.3467 0.6655 -0.2422
C7 C -0.4201(14) 0.8608(10) -0.2825(6)
C8 C -0.4840(13) 0.9863(10) -0.2369(6)
H3 H -0.3691 0.7532 -0.3215
C9 C -0.4408(13) 0.9315(10) -0.3244(6)
C10 C -0.6235(16) 0.9513(14) -0.2314(7)
C11 C -0.4801(13) 1.0031(10) -0.2978(6)
C12 C -0.3890(19) 1.0843(12) -0.1912(6)
C13 C -0.4364(14) 0.9328(12) -0.3810(6)
H4 H -0.6520 1.0078 -0.2401
H5 H -0.6248 0.9385 -0.1922
H6 H -0.6814 0.8868 -0.2585
C14 C -0.5078(13) 1.0796(10) -0.3279(6)
H7 H -0.4199 1.1406 -0.1945
H8 H -0.3832 1.0654 -0.1527
H9 H -0.3039 1.1087 -0.1981
C15 C -0.4675(14) 1.0061(11) -0.4113(6)
H10 H -0.4125 0.8841 -0.3988
C16 C -0.5032(13) 1.0795(11) -0.3845(6)
H11 H -0.5291 1.1299 -0.3099
H12 H -0.4647 1.0069 -0.4496
C17 C -0.5364(13) 1.1621(11) -0.4181(6)
O5 O -0.5439(11) 1.1550(8) -0.4711(4)
O6 O -0.5604(10) 1.2305(7) -0.3922(4)
Sm2 Sm -0.62427(6) 1.29807(5) -0.48229(3)
O7 O -0.8421(10) 1.1480(9) -0.5149(4)
O8 O -0.7318(9) 1.1951(7) -0.5788(4)
C18 C -0.8359(13) 1.1365(10) -0.5659(6)
C19 C -0.9478(15) 1.0524(11) -0.6126(6)
C20 C -0.9381(13) 1.0537(11) -0.6699(6)
C21 C -1.0550(15) 0.9793(12) -0.5992(6)
C22 C -1.0439(14) 0.9772(11) -0.7128(6)
H13 H -0.8647 1.1031 -0.6787
C23 C -1.1586(13) 0.9028(11) -0.6434(5)
H14 H -1.0587 0.9806 -0.5609
C24 C -1.0573(15) 0.9606(12) -0.7782(6)
C25 C -1.1522(14) 0.9025(11) -0.6997(6)
H15 H -1.2314 0.8523 -0.6347
C26 C -1.0540(18) 1.0615(14) -0.8047(8)
C27 C -1.1925(14) 0.8663(11) -0.8001(6)
C28 C -0.9484(18) 0.9314(17) -0.7904(8)
C29 C -1.2442(15) 0.8333(11) -0.7538(6)
H16 H -1.0752 1.0447 -0.8465
H17 H -1.1183 1.0824 -0.7944
H18 H -0.9688 1.1196 -0.7904
C30 C -1.2582(14) 0.8127(11) -0.8558(6)
H19 H -0.9438 0.8731 -0.7703
H20 H -0.9665 0.9103 -0.8317
H21 H -0.8661 0.9929 -0.7767
C31 C -1.3683(15) 0.7484(12) -0.7640(6)
H22 H -1.2214 0.8337 -0.8861
C32 C -1.3821(14) 0.7255(11) -0.8662(6)
C33 C -1.4354(16) 0.6948(12) -0.8208(6)
H23 H -1.4055 0.7281 -0.7336
C34 C -1.4519(17) 0.6648(11) -0.9265(7)
H24 H -1.5175 0.6374 -0.8282
O9 O -1.2274(11) 1.5647(10) -0.9519(5)
O10 O -1.4157(11) 1.4683(9) -0.9346(5)
O11 O -0.5472(10) 1.5419(8) -0.5764(4)
O12 O -0.6827(9) 1.4180(7) -0.5373(4)
C35 C -0.6586(14) 1.4707(10) -0.5784(6)
C36 C -0.7703(13) 1.4477(10) -0.6310(5)
C37 C -0.8867(16) 1.3558(11) -0.6420(6)
C38 C -0.7574(13) 1.5213(11) -0.6699(6)
C39 C -0.9919(13) 1.3377(11) -0.6895(6)
H25 H -0.8939 1.3056 -0.6169
C40 C -0.8600(14) 1.5058(11) -0.7161(6)
H26 H -0.6778 1.5811 -0.6638
C41 C -0.9793(13) 1.4142(11) -0.7266(5)
H27 H -1.0697 1.2758 -0.6967
C42 C -0.8739(14) 1.5762(12) -0.7617(6)
C43 C -1.0762(13) 1.4208(11) -0.7774(6)
C44 C -0.7723(15) 1.5883(17) -0.7970(8)
C45 C -0.8538(18) 1.6873(13) -0.7344(8)
C46 C -1.0143(14) 1.5141(12) -0.7984(6)
C47 C -1.2110(14) 1.3526(12) -0.8029(6)
H28 H -0.7802 1.5187 -0.8121
H29 H -0.6853 1.6283 -0.7717
H30 H -0.7881 1.6261 -0.8289
H31 H -0.9138 1.6800 -0.7112
H32 H -0.7653 1.7250 -0.7102
H33 H -0.8704 1.7269 -0.7653
C48 C -1.0854(14) 1.5409(12) -0.8459(6)
C49 C -1.2785(14) 1.3822(12) -0.8495(6)
H34 H -1.2525 1.2902 -0.7887
C50 C -1.2165(14) 1.4749(12) -0.8705(6)
H35 H -1.0447 1.6027 -0.8608
H36 H -1.3674 1.3391 -0.8672
C51 C -1.2930(15) 1.5044(12) -0.9229(6)
O13 O -0.133(3) 0.725(2) -0.0193(12)
O14 O -0.143(4) 0.589(3) -0.0593(16)
O15 O -0.7413(11) 1.3505(9) -0.4267(5)
C52 C -0.787(2) 1.4157(15) -0.4149(10)
N1 N -0.751(3) 1.4739(18) -0.3672(10)
C53 C -0.885(2) 1.439(2) -0.4616(13)
C54 C -0.639(4) 1.452(3) -0.3227(12)
C55 C -0.794(5) 1.555(3) -0.3491(15)
H37 H -0.8828 1.5097 -0.4537
H38 H -0.9696 1.3861 -0.4618
H39 H -0.8699 1.4297 -0.4991
H40 H -0.5749 1.4458 -0.3407
H41 H -0.5981 1.5136 -0.2926
H42 H -0.6758 1.3883 -0.3059
H43 H -0.7549 1.6211 -0.3634
H44 H -0.8879 1.5268 -0.3644
H45 H -0.7709 1.5683 -0.3072
O16 O -0.4577(10) 1.3567(8) -0.5349(5)
Sm1_2 Sm -1.35302(7) 0.59774(5) -1.03794(3)
Sm1_3 Sm -1.35302(7) 1.59774(5) -1.03794(3)
Sm1A Sm -1.64698(7) 0.40226(5) -0.96206(3)
Sm1A_2 Sm -1.64698(7) 1.40226(5) -0.96206(3)
O2_2 O -0.3959(12) 0.6896(8) 0.0350(4)
O4A O -0.4335(11) 0.4100(8) -0.0659(5)
Sm2A Sm -0.37573(6) 1.70193(5) -0.51771(3)
O9_2 O -0.2274(11) 0.5647(10) 0.0481(5)
O10A O -0.5843(11) 0.5317(9) -0.0654(5)
O11A O -0.4528(10) 1.4581(8) -0.4236(4)
C56 C 0.804(3) 0.168(2) 0.4190(14)
H46 H 0.8961 0.1888 0.4243
H47 H 0.7662 0.1847 0.3822
H48 H 0.7622 0.0920 0.4192
C57 C 0.778(2) 0.239(2) 0.475(2)
C58 C 0.791(3) 0.277(3) 0.5672(13)
H49 H 0.7577 0.3278 0.5517
H50 H 0.8749 0.3150 0.5953
H51 H 0.7309 0.2297 0.5859
C59 C 0.860(3) 0.128(3) 0.533(2)
H52 H 0.8012 0.0621 0.5076
H53 H 0.8621 0.1180 0.5730
H54 H 0.9464 0.1485 0.5283
N2 N 0.808(2) 0.205(2) 0.511(2)
O17 O 0.7350(16) 0.3033(13) 0.4574(9)
O18 O 0.0000 0.5000 0.0000
O19 O 0.888(9) 0.967(8) 0.979(4)
O20 O 0.438(11) 0.046(13) 0.997(7)
O21 O 0.004(4) 0.707(3) 0.905(2)
O22 O 0.050(6) 0.814(7) 0.054(2)
O23 O 0.112(10) 0.718(5) 0.982(2)
loop_
_geom_bond_atom_site_label_1
_geom_bond_atom_site_label_2
_geom_bond_site_symmetry_1
_geom_bond_site_symmetry_2
Sm1 O1 1_555 1_555
O1 C1 1_555 1_555
O2 C34 1_555 1_555
O3 Sm1 1_555 1_555
O4 C34 1_555 1_555
C1 O3 1_555 1_555
C2 C1 1_555 1_555
C3 C2 1_555 1_555
C4 C2 1_555 1_555
H1 C3 1_555 1_555
C5 C3 1_555 1_555
C6 C4 1_555 1_555
H2 C4 1_555 1_555
C7 C5 1_555 1_555
C8 C5 1_555 1_555
H3 C6 1_555 1_555
C9 C7 1_555 1_555
C10 C8 1_555 1_555
C11 C8 1_555 1_555
C12 C8 1_555 1_555
C13 C9 1_555 1_555
H4 C10 1_555 1_555
H5 C10 1_555 1_555
H6 C10 1_555 1_555
C14 C11 1_555 1_555
H7 C12 1_555 1_555
H8 C12 1_555 1_555
H9 C12 1_555 1_555
C15 C13 1_555 1_555
H10 C13 1_555 1_555
C16 C14 1_555 1_555
H11 C14 1_555 1_555
H12 C15 1_555 1_555
C17 C16 1_555 1_555
O5 C17 1_555 1_555
O6 C17 1_555 1_555
Sm2 O5 1_555 1_555
O7 Sm2 1_555 1_555
O8 Sm2 1_555 1_555
C18 O7 1_555 1_555
C19 C18 1_555 1_555
C20 C19 1_555 1_555
C21 C19 1_555 1_555
C22 C20 1_555 1_555
H13 C20 1_555 1_555
C23 C21 1_555 1_555
H14 C21 1_555 1_555
C24 C22 1_555 1_555
C25 C22 1_555 1_555
H15 C23 1_555 1_555
C26 C24 1_555 1_555
C27 C24 1_555 1_555
C28 C24 1_555 1_555
C29 C25 1_555 1_555
H16 C26 1_555 1_555
H17 C26 1_555 1_555
H18 C26 1_555 1_555
C30 C27 1_555 1_555
H19 C28 1_555 1_555
H20 C28 1_555 1_555
H21 C28 1_555 1_555
C31 C29 1_555 1_555
H22 C30 1_555 1_555
C32 C30 1_555 1_555
C33 C31 1_555 1_555
H23 C31 1_555 1_555
C34 C32 1_555 1_555
H24 C33 1_555 1_555
O9 C51 1_555 1_555
O10 C51 1_555 1_555
O11 C35 1_555 1_555
O12 Sm2 1_555 1_555
C35 O12 1_555 1_555
C36 C35 1_555 1_555
C37 C36 1_555 1_555
C38 C36 1_555 1_555
C39 C37 1_555 1_555
H25 C37 1_555 1_555
C40 C38 1_555 1_555
H26 C38 1_555 1_555
C41 C39 1_555 1_555
H27 C39 1_555 1_555
C42 C40 1_555 1_555
C43 C41 1_555 1_555
C44 C42 1_555 1_555
C45 C42 1_555 1_555
C46 C42 1_555 1_555
C47 C43 1_555 1_555
H28 C44 1_555 1_555
H29 C44 1_555 1_555
H30 C44 1_555 1_555
H31 C45 1_555 1_555
H32 C45 1_555 1_555
H33 C45 1_555 1_555
C48 C46 1_555 1_555
C49 C47 1_555 1_555
H34 C47 1_555 1_555
C50 C48 1_555 1_555
H35 C48 1_555 1_555
H36 C49 1_555 1_555
C51 C50 1_555 1_555
O13 Sm1 1_555 1_555
O14 Sm1 1_555 1_555
O15 Sm2 1_555 1_555
C52 O15 1_555 1_555
N1 C52 1_555 1_555
C53 C52 1_555 1_555
C54 N1 1_555 1_555
C55 N1 1_555 1_555
H37 C53 1_555 1_555
H38 C53 1_555 1_555
H39 C53 1_555 1_555
H40 C54 1_555 1_555
H41 C54 1_555 1_555
H42 C54 1_555 1_555
H43 C55 1_555 1_555
H44 C55 1_555 1_555
H45 C55 1_555 1_555
O16 Sm2 1_555 1_555
C56 H46 1_555 1_555
H47 C56 1_555 1_555
H48 C56 1_555 1_555
C57 C56 1_555 1_555
C58 H49 1_555 1_555
H50 C58 1_555 1_555
H51 C58 1_555 1_555
C59 H52 1_555 1_555
H53 C59 1_555 1_555
H54 C59 1_555 1_555
N2 C57 1_555 1_555
O17 C57 1_555 1_555
Sm1_2 O2 1_555 1_555
Sm1_3 O9 1_555 1_555
Sm1A O4 1_555 1_555
Sm1A_2 O10 1_555 1_555
O2_2 Sm1 1_555 1_555
O4A Sm1 1_555 1_555
Sm2A O11 1_555 1_555
O9_2 Sm1 1_555 1_555
O10A Sm1 1_555 1_555
O11A Sm2 1_555 1_555
C6 C7 1_555 1_555
C9 C11 1_555 1_555
C15 C16 1_555 1_555
O6 Sm2 1_555 1_555
O8 C18 1_555 1_555
C23 C25 1_555 1_555
C27 C29 1_555 1_555
C32 C33 1_555 1_555
C40 C41 1_555 1_555
C43 C46 1_555 1_555
C49 C50 1_555 1_555
C58 N2 1_555 1_555
C59 N2 1_555 1_555

#END
