
#######################################################################
#
#                 Cambridge Crystallographic Data Centre
#                                CCDC 
#
#######################################################################
#
# If this CIF has been generated from an entry in the Cambridge 
# Structural Database, then it will include bibliographic, chemical, 
# crystal, experimental, refinement or atomic coordinate data resulting 
# from the CCDC's data processing and validation procedures.
#
#######################################################################

data_LADQEP
_chemical_formula_moiety         '(C59 H72 Eu2 N2 O23)n'
_symmetry_cell_setting           triclinic
_symmetry_space_group_name_H-M   'P -1'
_symmetry_Int_Tables_number      2
_space_group_name_Hall           '-P 1'
loop_
_symmetry_equiv_pos_site_id
_symmetry_equiv_pos_as_xyz
1 x,y,z
2 -x,-y,-z
_cell_length_a                   11.4422(4)
_cell_length_b                   13.6499(5)
_cell_length_c                   23.9769(8)
_cell_angle_alpha                92.915(3)
_cell_angle_beta                 103.671(3)
_cell_angle_gamma                112.821(3)
_cell_volume                     3311.16
loop_
_atom_site_label
_atom_site_type_symbol
_atom_site_fract_x
_atom_site_fract_y
_atom_site_fract_z
Eu1 Eu 0.37634(9) 0.29865(7) 0.51752(4)
Eu2 Eu 0.64560(9) -0.40266(7) 0.96192(4)
C1 C -0.292(2) 0.5010(18) 0.0763(9)
C2 C -0.2172(19) 0.4736(17) 0.1287(8)
C3 C -0.279(2) 0.3817(18) 0.1514(8)
H1 H -0.3683 0.3393 0.1355
C4 C -0.208(2) 0.3532(18) 0.1969(9)
H2 H -0.2494 0.2897 0.2106
C5 C -0.0757(18) 0.4185(17) 0.2229(8)
C6 C 0.0195(18) 0.4132(16) 0.2728(8)
C7 C 0.009(2) 0.3384(17) 0.3111(9)
H3 H -0.0680 0.2763 0.3044
C8 C 0.1140(19) 0.3567(15) 0.3585(8)
H4 H 0.1070 0.3066 0.3838
C9 C 0.2304(19) 0.4493(14) 0.3692(7)
C10 C 0.3426(18) 0.4722(14) 0.4212(8)
C11 C 0.2428(19) 0.5222(16) 0.3309(8)
H5 H 0.3214 0.5830 0.3372
C12 C 0.1381(18) 0.5044(16) 0.2834(8)
C13 C 0.1262(19) 0.5761(17) 0.2370(8)
C14 C 0.227(2) 0.584(3) 0.2014(11)
H6 H 0.2195 0.5140 0.1863
H7 H 0.3144 0.6237 0.2267
H8 H 0.2116 0.6215 0.1695
C15 C 0.147(3) 0.6860(19) 0.2634(12)
H9 H 0.1307 0.7256 0.2326
H10 H 0.2359 0.7237 0.2876
H11 H 0.0873 0.6787 0.2867
C16 C -0.0161(19) 0.5121(16) 0.2007(8)
C17 C -0.0855(19) 0.5396(18) 0.1536(9)
H12 H -0.0444 0.6016 0.1388
C18 C -0.452(2) -0.3362(15) 0.0750(8)
C19 C -0.3831(15) -0.2800(13) 0.1356(7)
C20 C -0.432(2) -0.3056(17) 0.1807(9)
H13 H -0.5148 -0.3624 0.1739
C21 C -0.368(2) -0.2528(16) 0.2359(9)
H14 H -0.4060 -0.2733 0.2661
C22 C -0.2440(19) -0.1669(15) 0.2467(8)
C23 C -0.1520(19) -0.0962(16) 0.3000(8)
C24 C -0.157(2) -0.0971(16) 0.3576(8)
H15 H -0.2278 -0.1488 0.3669
C25 C -0.0535(19) -0.0196(15) 0.4010(8)
H16 H -0.0573 -0.0177 0.4393
C26 C 0.0530(18) 0.0535(16) 0.3879(8)
C27 C 0.1689(18) 0.1382(15) 0.4353(8)
C28 C 0.0607(18) 0.0546(15) 0.3300(8)
H17 H 0.1327 0.1053 0.3208
C29 C -0.0414(19) -0.0214(16) 0.2884(8)
C30 C -0.0567(19) -0.0369(16) 0.2224(8)
C31 C 0.052(2) -0.068(2) 0.2107(11)
H18 H 0.0563 -0.1260 0.2307
H19 H 0.1340 -0.0062 0.2244
H20 H 0.0336 -0.0887 0.1694
C32 C -0.052(3) 0.061(2) 0.1958(12)
H21 H -0.0737 0.0446 0.1540
H22 H 0.0328 0.1195 0.2101
H23 H -0.1168 0.0823 0.2060
C33 C -0.1916(19) -0.1330(16) 0.2006(9)
C34 C -0.2533(17) -0.1876(13) 0.1467(7)
H24 H -0.2151 -0.1678 0.1166
C35 C 0.4620(18) 0.1605(16) 0.5814(8)
C36 C 0.4966(18) 0.0812(15) 0.6144(8)
C37 C 0.531(2) 0.0066(15) 0.5884(8)
H25 H 0.5322 0.0070 0.5497
C38 C 0.563(2) -0.0676(17) 0.6177(9)
H26 H 0.5874 -0.1158 0.5997
C39 C 0.5577(19) -0.0680(15) 0.6761(8)
C40 C 0.579(2) -0.1390(16) 0.7163(9)
C41 C 0.618(2) -0.2255(17) 0.7132(10)
H27 H 0.6348 -0.2473 0.6797
C42 C 0.631(2) -0.2752(16) 0.7599(10)
H28 H 0.6547 -0.3327 0.7571
C43 C 0.611(2) -0.2468(16) 0.8108(8)
C44 C 0.627(2) -0.2983(16) 0.8621(11)
C45 C 0.575(2) -0.1569(16) 0.8153(9)
H29 H 0.5645 -0.1334 0.8502
C46 C 0.5564(17) -0.1062(15) 0.7685(7)
C47 C 0.5173(19) -0.0139(15) 0.7633(8)
C48 C 0.611(3) 0.0819(18) 0.8094(9)
H30 H 0.6165 0.0630 0.8479
H31 H 0.5799 0.1382 0.8061
H32 H 0.6959 0.1063 0.8025
C49 C 0.373(2) -0.0488(18) 0.7681(10)
H33 H 0.3151 -0.1133 0.7411
H34 H 0.3444 0.0077 0.7594
H35 H 0.3717 -0.0616 0.8073
C50 C 0.5210(17) 0.0045(16) 0.7018(8)
C51 C 0.4913(19) 0.0791(15) 0.6722(8)
H36 H 0.4678 0.1278 0.6902
C52 C 0.113(3) 0.434(3) 0.5376(18)
H37 H 0.0285 0.3806 0.5374
H38 H 0.1281 0.4241 0.5001
H39 H 0.1152 0.5041 0.5455
C53 C 0.217(3) 0.419(2) 0.5848(14)
C54 C 0.211(7) 0.555(4) 0.654(2)
H40 H 0.2503 0.6206 0.6394
H41 H 0.2343 0.5678 0.6957
H42 H 0.1173 0.5263 0.6385
C55 C 0.353(5) 0.450(4) 0.6798(18)
H43 H 0.3165 0.3864 0.6966
H44 H 0.3942 0.5116 0.7100
H45 H 0.4175 0.4439 0.6619
N1 N 0.255(4) 0.476(2) 0.6303(12)
O1 O -0.2304(15) 0.5607(15) 0.0465(7)
O2 O -0.4168(14) 0.4630(13) 0.0648(7)
O3 O 0.4536(13) 0.5438(12) 0.4235(6)
O4 O 0.3180(13) 0.4203(10) 0.4631(5)
O5 O -0.3936(16) -0.3087(13) 0.0354(7)
O6 O -0.5645(14) -0.4124(11) 0.0665(7)
O7 O 0.2684(13) 0.1961(10) 0.4213(5)
O8 O 0.1596(14) 0.1463(12) 0.4858(6)
O9 O 0.4570(15) 0.1563(12) 0.5284(6)
O10 O 0.4353(15) 0.2304(11) 0.6069(6)
O11 O 0.6367(18) -0.3892(13) 0.8579(7)
O12 O 0.6278(18) -0.2584(13) 0.9120(6)
O13 O 0.5433(15) 0.3584(12) 0.4645(7)
O14 O 0.2616(17) 0.3528(14) 0.5725(8)
O15 O 0.843(6) -0.424(4) 0.941(2)
O16 O 0.871(4) -0.279(3) 0.9779(17)
Eu1A Eu 0.62366(9) 0.70135(7) 0.48248(4)
Eu2_2 Eu -0.35440(9) -0.40266(7) -0.03808(4)
Eu2_3 Eu -0.35440(9) 0.59734(7) -0.03808(4)
Eu2A Eu -0.64560(9) -0.59734(7) 0.03808(4)
Eu2A_2 Eu -0.64560(9) 0.40266(7) 0.03808(4)
O1_2 O 0.7696(15) -0.4393(15) 1.0465(7)
O2A O 0.4168(14) -0.4630(13) 0.9352(7)
O3A O 0.5464(13) 0.4562(12) 0.5765(6)
O5_2 O 0.6064(16) -0.3087(13) 1.0354(7)
O6A O 0.5645(14) -0.5876(11) 0.9335(7)
C56 C 0.807(4) 0.170(4) 0.4214(18)
H46 H 0.8992 0.1910 0.4267
H47 H 0.7692 0.1869 0.3846
H48 H 0.7652 0.0942 0.4215
C57 C 0.780(4) 0.237(3) 0.479(3)
C58 C 0.794(4) 0.280(4) 0.5672(19)
H49 H 0.7604 0.3308 0.5517
H50 H 0.8776 0.3179 0.5952
H51 H 0.7336 0.2327 0.5859
C59 C 0.857(5) 0.129(4) 0.532(3)
H52 H 0.7867 0.0580 0.5242
H53 H 0.8941 0.1505 0.5734
H54 H 0.9243 0.1275 0.5149
N2 N 0.808(4) 0.201(4) 0.509(3)
O17 O 0.739(2) 0.3039(19) 0.4591(12)
O18 O 0.0000 0.5000 0.0000
O19 O 0.887(11) 0.955(9) 0.975(5)
O20 O 0.436(14) 0.039(14) 0.985(10)
O21 O 0.004(6) 0.707(5) 0.918(5)
O22 O 0.046(8) 0.816(11) 0.055(3)
O23 O 0.134(16) 0.711(10) 0.986(4)
loop_
_geom_bond_atom_site_label_1
_geom_bond_atom_site_label_2
_geom_bond_site_symmetry_1
_geom_bond_site_symmetry_2
Eu1 O4 1_555 1_555
Eu2 O11 1_555 1_555
C1 C2 1_555 1_555
C2 C3 1_555 1_555
C3 H1 1_555 1_555
C4 C3 1_555 1_555
H2 C4 1_555 1_555
C5 C4 1_555 1_555
C6 C5 1_555 1_555
C7 C6 1_555 1_555
H3 C7 1_555 1_555
C8 C7 1_555 1_555
H4 C8 1_555 1_555
C9 C8 1_555 1_555
C10 C9 1_555 1_555
C11 C9 1_555 1_555
H5 C11 1_555 1_555
C12 C6 1_555 1_555
C13 C12 1_555 1_555
C14 C13 1_555 1_555
H6 C14 1_555 1_555
H7 C14 1_555 1_555
H8 C14 1_555 1_555
C15 C13 1_555 1_555
H9 C15 1_555 1_555
H10 C15 1_555 1_555
H11 C15 1_555 1_555
C16 C5 1_555 1_555
C17 C2 1_555 1_555
H12 C17 1_555 1_555
C18 C19 1_555 1_555
C19 C20 1_555 1_555
C20 H13 1_555 1_555
C21 C20 1_555 1_555
H14 C21 1_555 1_555
C22 C21 1_555 1_555
C23 C22 1_555 1_555
C24 C23 1_555 1_555
H15 C24 1_555 1_555
C25 C24 1_555 1_555
H16 C25 1_555 1_555
C26 C25 1_555 1_555
C27 C26 1_555 1_555
C28 C26 1_555 1_555
H17 C28 1_555 1_555
C29 C23 1_555 1_555
C30 C29 1_555 1_555
C31 C30 1_555 1_555
H18 C31 1_555 1_555
H19 C31 1_555 1_555
H20 C31 1_555 1_555
C32 C30 1_555 1_555
H21 C32 1_555 1_555
H22 C32 1_555 1_555
H23 C32 1_555 1_555
C33 C22 1_555 1_555
C34 C19 1_555 1_555
H24 C34 1_555 1_555
C35 C36 1_555 1_555
C36 C37 1_555 1_555
C37 H25 1_555 1_555
C38 C37 1_555 1_555
H26 C38 1_555 1_555
C39 C38 1_555 1_555
C40 C39 1_555 1_555
C41 C40 1_555 1_555
H27 C41 1_555 1_555
C42 C41 1_555 1_555
H28 C42 1_555 1_555
C43 C42 1_555 1_555
C44 C43 1_555 1_555
C45 C43 1_555 1_555
H29 C45 1_555 1_555
C46 C40 1_555 1_555
C47 C46 1_555 1_555
C48 C47 1_555 1_555
H30 C48 1_555 1_555
H31 C48 1_555 1_555
H32 C48 1_555 1_555
C49 C47 1_555 1_555
H33 C49 1_555 1_555
H34 C49 1_555 1_555
H35 C49 1_555 1_555
C50 C39 1_555 1_555
C51 C36 1_555 1_555
H36 C51 1_555 1_555
C52 H37 1_555 1_555
H38 C52 1_555 1_555
H39 C52 1_555 1_555
C53 C52 1_555 1_555
C54 H40 1_555 1_555
H41 C54 1_555 1_555
H42 C54 1_555 1_555
C55 H43 1_555 1_555
H44 C55 1_555 1_555
H45 C55 1_555 1_555
N1 C53 1_555 1_555
O1 C1 1_555 1_555
O2 C1 1_555 1_555
O3 C10 1_555 1_555
O4 C10 1_555 1_555
O5 C18 1_555 1_555
O6 C18 1_555 1_555
O7 Eu1 1_555 1_555
O8 Eu1 1_555 1_555
O9 Eu1 1_555 1_555
O10 Eu1 1_555 1_555
O11 C44 1_555 1_555
O12 Eu2 1_555 1_555
O13 Eu1 1_555 1_555
O14 Eu1 1_555 1_555
O15 Eu2 1_555 1_555
O16 Eu2 1_555 1_555
C56 H46 1_555 1_555
H47 C56 1_555 1_555
H48 C56 1_555 1_555
C57 C56 1_555 1_555
C58 H49 1_555 1_555
H50 C58 1_555 1_555
H51 C58 1_555 1_555
C59 H52 1_555 1_555
H53 C59 1_555 1_555
H54 C59 1_555 1_555
N2 C57 1_555 1_555
O17 C57 1_555 1_555
Eu1A O3 1_555 1_555
Eu2_2 O5 1_555 1_555
Eu2_3 O1 1_555 1_555
Eu2A O6 1_555 1_555
Eu2A_2 O2 1_555 1_555
O1_2 Eu2 1_555 1_555
O2A Eu2 1_555 1_555
O3A Eu1 1_555 1_555
O5_2 Eu2 1_555 1_555
O6A Eu2 1_555 1_555
C11 C12 1_555 1_555
C13 C16 1_555 1_555
C16 C17 1_555 1_555
C27 O7 1_555 1_555
C27 O8 1_555 1_555
C28 C29 1_555 1_555
C30 C33 1_555 1_555
C33 C34 1_555 1_555
C35 O9 1_555 1_555
C35 O10 1_555 1_555
C44 O12 1_555 1_555
C45 C46 1_555 1_555
C47 C50 1_555 1_555
C50 C51 1_555 1_555
C53 O14 1_555 1_555
C54 N1 1_555 1_555
C55 N1 1_555 1_555
C58 N2 1_555 1_555
C59 N2 1_555 1_555

#END
