
#######################################################################
#
#                 Cambridge Crystallographic Data Centre
#                                CCDC 
#
#######################################################################
#
# If this CIF has been generated from an entry in the Cambridge 
# Structural Database, then it will include bibliographic, chemical, 
# crystal, experimental, refinement or atomic coordinate data resulting 
# from the CCDC's data processing and validation procedures.
#
#######################################################################

data_LADQUF
_chemical_formula_moiety         '(C59 H72 N2 O23 Tb2)n'
_symmetry_cell_setting           triclinic
_symmetry_space_group_name_H-M   'P -1'
_symmetry_Int_Tables_number      2
_space_group_name_Hall           '-P 1'
loop_
_symmetry_equiv_pos_site_id
_symmetry_equiv_pos_as_xyz
1 x,y,z
2 -x,-y,-z
_cell_length_a                   11.4646(4)
_cell_length_b                   13.6288(5)
_cell_length_c                   23.7978(7)
_cell_angle_alpha                92.929(3)
_cell_angle_beta                 103.548(3)
_cell_angle_gamma                112.494(3)
_cell_volume                     3298.64
loop_
_atom_site_label
_atom_site_type_symbol
_atom_site_fract_x
_atom_site_fract_y
_atom_site_fract_z
Tb1 Tb 0.37832(4) 0.30086(3) 0.517674(15)
Tb2 Tb 0.64148(4) -0.40528(3) 0.961627(16)
C1 C -0.2960(10) 0.4941(8) 0.0730(4)
C2 C -0.2180(8) 0.4652(8) 0.1257(4)
C3 C -0.2788(9) 0.3747(8) 0.1487(4)
H1 H -0.3676 0.3316 0.1324
C4 C -0.2070(8) 0.3480(7) 0.1965(4)
H2 H -0.2466 0.2861 0.2118
C5 C -0.0755(8) 0.4148(7) 0.2211(3)
C6 C 0.0199(8) 0.4102(7) 0.2728(3)
C7 C 0.0102(8) 0.3361(7) 0.3113(4)
H3 H -0.0660 0.2737 0.3048
C8 C 0.1153(8) 0.3565(6) 0.3592(4)
H4 H 0.1091 0.3080 0.3857
C9 C 0.2310(8) 0.4489(6) 0.3687(3)
C10 C 0.3425(8) 0.4719(6) 0.4216(3)
C11 C 0.2430(8) 0.5208(7) 0.3290(4)
H5 H 0.3212 0.5808 0.3342
C12 C 0.1364(8) 0.5014(7) 0.2816(3)
C13 C 0.1242(8) 0.5710(8) 0.2341(4)
C14 C 0.2243(10) 0.5825(12) 0.1994(5)
H6 H 0.2163 0.5128 0.1843
H7 H 0.3112 0.6224 0.2246
H8 H 0.2085 0.6203 0.1675
C15 C 0.1423(12) 0.6825(8) 0.2605(5)
H9 H 0.1256 0.7221 0.2297
H10 H 0.2308 0.7202 0.2847
H11 H 0.0823 0.6752 0.2838
C16 C -0.0165(8) 0.5076(7) 0.1982(4)
C17 C -0.0878(9) 0.5312(8) 0.1495(4)
H12 H -0.0479 0.5913 0.1331
C18 C -0.4441(9) -0.3384(7) 0.0771(4)
C19 C -0.3752(8) -0.2756(7) 0.1375(4)
C20 C -0.4264(9) -0.3038(7) 0.1832(4)
H13 H -0.5080 -0.3608 0.1763
C21 C -0.3605(9) -0.2501(7) 0.2397(4)
H14 H -0.3963 -0.2709 0.2706
C22 C -0.2390(8) -0.1639(6) 0.2490(4)
C23 C -0.1478(8) -0.0927(7) 0.3027(3)
C24 C -0.1531(8) -0.0935(7) 0.3606(4)
H15 H -0.2238 -0.1442 0.3704
C25 C -0.0502(8) -0.0167(7) 0.4026(4)
H16 H -0.0529 -0.0147 0.4414
C26 C 0.0577(8) 0.0580(7) 0.3891(3)
C27 C 0.1713(8) 0.1403(6) 0.4363(4)
C28 C 0.0633(8) 0.0571(7) 0.3317(4)
H17 H 0.1354 0.1068 0.3224
C29 C -0.0391(8) -0.0183(7) 0.2887(3)
C30 C -0.0545(8) -0.0354(7) 0.2230(4)
C31 C 0.0553(10) -0.0638(10) 0.2107(5)
H18 H 0.0599 -0.1221 0.2307
H19 H 0.1376 -0.0023 0.2244
H20 H 0.0372 -0.0849 0.1694
C32 C -0.0540(11) 0.0633(8) 0.1953(5)
H21 H -0.0753 0.0464 0.1535
H22 H 0.0312 0.1213 0.2096
H23 H -0.1184 0.0841 0.2055
C33 C -0.1877(8) -0.1312(7) 0.2025(4)
C34 C -0.2544(8) -0.1865(6) 0.1462(3)
H24 H -0.2202 -0.1652 0.1149
C35 C 0.4632(8) 0.1640(7) 0.5819(3)
C36 C 0.4984(8) 0.0834(6) 0.6152(3)
C37 C 0.5345(9) 0.0099(7) 0.5887(4)
H25 H 0.5382 0.0116 0.5501
C38 C 0.5647(9) -0.0648(7) 0.6185(4)
H26 H 0.5893 -0.1131 0.6005
C39 C 0.5579(8) -0.0672(6) 0.6761(3)
C40 C 0.5813(8) -0.1373(7) 0.7178(4)
C41 C 0.6166(9) -0.2236(7) 0.7127(4)
H27 H 0.6290 -0.2465 0.6779
C42 C 0.6328(9) -0.2743(7) 0.7609(4)
H28 H 0.6585 -0.3309 0.7580
C43 C 0.6131(8) -0.2459(7) 0.8122(3)
C44 C 0.6274(9) -0.3007(7) 0.8644(4)
C45 C 0.5771(8) -0.1573(7) 0.8171(4)
H29 H 0.5653 -0.1348 0.8521
C46 C 0.5598(8) -0.1051(7) 0.7698(4)
C47 C 0.5182(8) -0.0126(6) 0.7645(3)
C48 C 0.6143(11) 0.0859(8) 0.8101(4)
H30 H 0.6201 0.0670 0.8487
H31 H 0.5834 0.1422 0.8068
H32 H 0.6994 0.1103 0.8033
C49 C 0.3776(10) -0.0462(9) 0.7705(5)
H33 H 0.3198 -0.1107 0.7434
H34 H 0.3491 0.0103 0.7618
H35 H 0.3764 -0.0590 0.8097
C50 C 0.5227(8) 0.0064(7) 0.7029(3)
C51 C 0.4932(8) 0.0820(6) 0.6726(3)
H36 H 0.4702 0.1312 0.6907
C52 C 0.1103(13) 0.4314(14) 0.5376(8)
H37 H 0.0259 0.3784 0.5375
H38 H 0.1255 0.4219 0.5001
H39 H 0.1126 0.5019 0.5456
C53 C 0.2200(13) 0.4190(10) 0.5857(6)
C54 C 0.201(3) 0.5503(17) 0.6500(10)
H40 H 0.2398 0.6164 0.6357
H41 H 0.2238 0.5635 0.6920
H42 H 0.1068 0.5221 0.6347
C55 C 0.364(3) 0.4628(15) 0.6783(7)
H43 H 0.3271 0.3993 0.6951
H44 H 0.4048 0.5245 0.7085
H45 H 0.4281 0.4568 0.6604
N1 N 0.2495(17) 0.4749(10) 0.6312(6)
O1 O -0.2341(7) 0.5514(6) 0.0422(3)
O2 O -0.4183(6) 0.4575(6) 0.0630(3)
O3 O 0.4514(5) 0.5449(5) 0.4234(3)
O4 O 0.3207(5) 0.4211(4) 0.4636(2)
O5 O -0.3858(7) -0.3131(5) 0.0376(3)
O6 O -0.5570(6) -0.4135(5) 0.0700(3)
O7 O 0.2717(5) 0.1986(4) 0.4223(2)
O8 O 0.1634(6) 0.1509(5) 0.4882(3)
O9 O 0.4601(6) 0.1610(5) 0.5284(2)
O10 O 0.4343(6) 0.2314(5) 0.6072(2)
O11 O 0.6318(8) -0.3911(5) 0.8588(3)
O12 O 0.6320(8) -0.2573(5) 0.9138(3)
O13 O 0.5421(6) 0.3589(5) 0.4644(3)
O14 O 0.2675(7) 0.3562(6) 0.5730(3)
O15 O 0.846(4) -0.430(2) 0.9356(15)
O16 O 0.8600(13) -0.2911(13) 0.9740(6)
Tb1A Tb 0.62168(4) 0.69914(3) 0.482326(15)
Tb2_2 Tb -0.35852(4) -0.40528(3) -0.038373(16)
Tb2_3 Tb -0.35852(4) 0.59472(3) -0.038373(16)
Tb2A Tb -0.64148(4) -0.59472(3) 0.038373(16)
Tb2A_2 Tb -0.64148(4) 0.40528(3) 0.038373(16)
O1_2 O 0.7659(7) -0.4486(6) 1.0422(3)
O2A O 0.4183(6) -0.4575(6) 0.9370(3)
O3A O 0.5486(5) 0.4551(5) 0.5766(3)
O5_2 O 0.6142(7) -0.3131(5) 1.0376(3)
O6A O 0.5570(6) -0.5865(5) 0.9300(3)
C56 C 0.8046(16) 0.1710(14) 0.4240(9)
H46 H 0.8970 0.1919 0.4294
H47 H 0.7671 0.1878 0.3873
H48 H 0.7631 0.0951 0.4242
C57 C 0.7775(15) 0.2335(14) 0.4729(10)
C58 C 0.7909(18) 0.2769(17) 0.5698(8)
H49 H 0.7575 0.3276 0.5543
H50 H 0.8748 0.3147 0.5978
H51 H 0.7308 0.2295 0.5885
C59 C 0.856(2) 0.1300(18) 0.5342(13)
H52 H 0.7975 0.0640 0.5085
H53 H 0.8584 0.1200 0.5740
H54 H 0.9427 0.1505 0.5293
N2 N 0.8043(16) 0.2097(17) 0.5161(13)
O17 O 0.7368(10) 0.3045(8) 0.4594(6)
O18 O 0.0000 0.5000 0.0000
O19 O 0.876(5) 0.960(4) 0.977(2)
O20 O 0.463(7) 0.050(6) 0.993(4)
O21 O 0.011(3) 0.708(3) 0.922(3)
O22 O 0.119(8) 0.736(4) 0.9934(14)
O23 O 0.038(3) 0.790(3) 0.0549(14)
loop_
_geom_bond_atom_site_label_1
_geom_bond_atom_site_label_2
_geom_bond_site_symmetry_1
_geom_bond_site_symmetry_2
Tb1 O4 1_555 1_555
Tb2 O11 1_555 1_555
C1 C2 1_555 1_555
C2 C3 1_555 1_555
C3 H1 1_555 1_555
C4 C3 1_555 1_555
H2 C4 1_555 1_555
C5 C4 1_555 1_555
C6 C5 1_555 1_555
C7 C6 1_555 1_555
H3 C7 1_555 1_555
C8 C7 1_555 1_555
H4 C8 1_555 1_555
C9 C8 1_555 1_555
C10 C9 1_555 1_555
C11 C9 1_555 1_555
H5 C11 1_555 1_555
C12 C6 1_555 1_555
C13 C12 1_555 1_555
C14 C13 1_555 1_555
H6 C14 1_555 1_555
H7 C14 1_555 1_555
H8 C14 1_555 1_555
C15 C13 1_555 1_555
H9 C15 1_555 1_555
H10 C15 1_555 1_555
H11 C15 1_555 1_555
C16 C5 1_555 1_555
C17 C2 1_555 1_555
H12 C17 1_555 1_555
C18 C19 1_555 1_555
C19 C20 1_555 1_555
C20 H13 1_555 1_555
C21 C20 1_555 1_555
H14 C21 1_555 1_555
C22 C21 1_555 1_555
C23 C22 1_555 1_555
C24 C23 1_555 1_555
H15 C24 1_555 1_555
C25 C24 1_555 1_555
H16 C25 1_555 1_555
C26 C25 1_555 1_555
C27 C26 1_555 1_555
C28 C26 1_555 1_555
H17 C28 1_555 1_555
C29 C23 1_555 1_555
C30 C29 1_555 1_555
C31 C30 1_555 1_555
H18 C31 1_555 1_555
H19 C31 1_555 1_555
H20 C31 1_555 1_555
C32 C30 1_555 1_555
H21 C32 1_555 1_555
H22 C32 1_555 1_555
H23 C32 1_555 1_555
C33 C22 1_555 1_555
C34 C19 1_555 1_555
H24 C34 1_555 1_555
C35 C36 1_555 1_555
C36 C37 1_555 1_555
C37 H25 1_555 1_555
C38 C37 1_555 1_555
H26 C38 1_555 1_555
C39 C38 1_555 1_555
C40 C39 1_555 1_555
C41 C40 1_555 1_555
H27 C41 1_555 1_555
C42 C41 1_555 1_555
H28 C42 1_555 1_555
C43 C42 1_555 1_555
C44 C43 1_555 1_555
C45 C43 1_555 1_555
H29 C45 1_555 1_555
C46 C40 1_555 1_555
C47 C46 1_555 1_555
C48 C47 1_555 1_555
H30 C48 1_555 1_555
H31 C48 1_555 1_555
H32 C48 1_555 1_555
C49 C47 1_555 1_555
H33 C49 1_555 1_555
H34 C49 1_555 1_555
H35 C49 1_555 1_555
C50 C39 1_555 1_555
C51 C36 1_555 1_555
H36 C51 1_555 1_555
C52 H37 1_555 1_555
H38 C52 1_555 1_555
H39 C52 1_555 1_555
C53 C52 1_555 1_555
C54 H40 1_555 1_555
H41 C54 1_555 1_555
H42 C54 1_555 1_555
C55 H43 1_555 1_555
H44 C55 1_555 1_555
H45 C55 1_555 1_555
N1 C53 1_555 1_555
O1 C1 1_555 1_555
O2 C1 1_555 1_555
O3 C10 1_555 1_555
O4 C10 1_555 1_555
O5 C18 1_555 1_555
O6 C18 1_555 1_555
O7 Tb1 1_555 1_555
O8 Tb1 1_555 1_555
O9 Tb1 1_555 1_555
O10 Tb1 1_555 1_555
O11 C44 1_555 1_555
O12 Tb2 1_555 1_555
O13 Tb1 1_555 1_555
O14 Tb1 1_555 1_555
O15 Tb2 1_555 1_555
O16 Tb2 1_555 1_555
C56 H46 1_555 1_555
H47 C56 1_555 1_555
H48 C56 1_555 1_555
C57 C56 1_555 1_555
C58 H49 1_555 1_555
H50 C58 1_555 1_555
H51 C58 1_555 1_555
C59 H52 1_555 1_555
H53 C59 1_555 1_555
H54 C59 1_555 1_555
N2 C57 1_555 1_555
O17 C57 1_555 1_555
Tb1A O3 1_555 1_555
Tb2_2 O5 1_555 1_555
Tb2_3 O1 1_555 1_555
Tb2A O6 1_555 1_555
Tb2A_2 O2 1_555 1_555
O1_2 Tb2 1_555 1_555
O2A Tb2 1_555 1_555
O3A Tb1 1_555 1_555
O5_2 Tb2 1_555 1_555
O6A Tb2 1_555 1_555
C11 C12 1_555 1_555
C13 C16 1_555 1_555
C16 C17 1_555 1_555
C27 O7 1_555 1_555
C27 O8 1_555 1_555
C28 C29 1_555 1_555
C30 C33 1_555 1_555
C33 C34 1_555 1_555
C35 O9 1_555 1_555
C35 O10 1_555 1_555
C44 O12 1_555 1_555
C45 C46 1_555 1_555
C47 C50 1_555 1_555
C50 C51 1_555 1_555
C53 O14 1_555 1_555
C54 N1 1_555 1_555
C55 N1 1_555 1_555
C58 N2 1_555 1_555
C59 N2 1_555 1_555

#END
