
#######################################################################
#
#                 Cambridge Crystallographic Data Centre
#                                CCDC 
#
#######################################################################
#
# If this CIF has been generated from an entry in the Cambridge 
# Structural Database, then it will include bibliographic, chemical, 
# crystal, experimental, refinement or atomic coordinate data resulting 
# from the CCDC's data processing and validation procedures.
#
#######################################################################

data_ENEQUL
_chemical_formula_moiety         '(C95 H95 Cu4 N19 O89 W20)n'
_symmetry_cell_setting           triclinic
_symmetry_space_group_name_H-M   'P -1'
_symmetry_Int_Tables_number      2
_space_group_name_Hall           '-P 1'
loop_
_symmetry_equiv_pos_site_id
_symmetry_equiv_pos_as_xyz
1 x,y,z
2 -x,-y,-z
_cell_length_a                   13.0242(7)
_cell_length_b                   13.7795(8)
_cell_length_c                   23.9552(14)
_cell_angle_alpha                81.259(3)
_cell_angle_beta                 86.490(3)
_cell_angle_gamma                70.046(2)
_cell_volume                     3993.94
loop_
_atom_site_label
_atom_site_type_symbol
_atom_site_fract_x
_atom_site_fract_y
_atom_site_fract_z
W1 W -0.83131(4) 0.05781(4) -0.56804(2)
O1 O -0.8562(6) -0.0664(6) -0.5543(3)
O2 O -0.7686(7) 0.0347(7) -0.4953(4)
O3 O -0.9490(7) 0.1162(7) -0.6206(4)
O4 O -0.8337(7) 0.2038(7) -0.5718(4)
O5 O -0.7181(7) 0.0274(8) -0.6115(4)
O6 O -0.9780(6) 0.1327(6) -0.5128(3)
W2 W -0.87338(4) -0.20454(4) -0.54337(2)
W3 W -0.86721(4) 0.08166(4) -0.43429(2)
W4 W -1.09101(4) 0.18047(4) -0.59048(2)
W5 W -0.94682(5) 0.29059(4) -0.53006(3)
O7 O -0.8098(7) -0.2219(6) -0.4708(4)
O8 O -0.9205(7) -0.3181(7) -0.5207(4)
O9 O -0.7655(8) -0.2622(7) -0.5833(4)
O10 O -0.9903(7) -0.1446(7) -0.5972(4)
O11 O -0.8921(6) -0.0475(7) -0.4253(3)
O12 O -0.7863(7) 0.0620(7) -0.3798(4)
O13 O -0.8680(7) 0.2227(7) -0.4617(4)
O14 O -1.0499(7) 0.3014(7) -0.5886(4)
O15 O -1.1690(8) 0.2329(8) -0.6485(5)
O16 O -0.9289(8) 0.4057(8) -0.5418(4)
W1A W -1.16869(4) -0.05781(4) -0.43196(2)
O1A O -1.1438(6) 0.0664(6) -0.4457(3)
O2A O -1.2314(7) -0.0347(7) -0.5047(4)
O3A O -1.0510(7) -0.1162(7) -0.3794(4)
O4A O -1.1663(7) -0.2038(7) -0.4282(4)
O5A O -1.2819(7) -0.0274(8) -0.3885(4)
O6A O -1.0220(6) -0.1327(6) -0.4872(3)
W2A W -1.12662(4) 0.20454(4) -0.45663(2)
W3A W -1.13279(4) -0.08166(4) -0.56571(2)
W4A W -0.90899(4) -0.18047(4) -0.40952(2)
W5A W -1.05318(5) -0.29059(4) -0.46994(3)
O7A O -1.1902(7) 0.2219(6) -0.5292(4)
O8A O -1.0795(7) 0.3181(7) -0.4793(4)
O9A O -1.2345(8) 0.2622(7) -0.4167(4)
O10A O -1.0097(7) 0.1446(7) -0.4028(4)
O11A O -1.1079(6) 0.0475(7) -0.5747(3)
O12A O -1.2137(7) -0.0620(7) -0.6202(4)
O13A O -1.1320(7) -0.2227(7) -0.5383(4)
O14A O -0.9501(7) -0.3014(7) -0.4114(4)
O15A O -0.8310(8) -0.2329(8) -0.3515(5)
O16A O -1.0711(8) -0.4057(8) -0.4582(4)
W6 W -0.82546(5) -0.46458(4) -0.07744(2)
W7 W -1.16073(5) -0.56938(4) -0.05520(2)
W8 W -0.90228(5) -0.70951(4) -0.04169(3)
W9 W -0.91608(5) -0.22691(4) -0.04313(3)
W10 W -1.08415(5) -0.32541(4) -0.09077(3)
O17 O -1.1164(7) -0.4460(7) -0.0702(4)
O18 O -0.8693(7) -0.5797(7) -0.0592(4)
O19 O -0.8271(7) -0.7344(7) 0.0273(4)
O20 O -1.0231(7) -0.6436(7) -0.0898(4)
O21 O -0.7530(7) -0.4913(7) -0.0071(4)
O22 O -0.7237(8) -0.5076(7) -0.1242(4)
O23 O -1.1725(9) -0.2696(8) -0.1470(5)
O24 O -0.8125(7) -0.3251(7) -0.0839(4)
O25 O -1.2531(8) -0.5398(7) -0.1062(4)
O26 O -0.9504(7) -0.4007(6) -0.1250(4)
O27 O -0.8282(8) -0.2997(7) 0.0232(4)
O28 O -0.9639(7) -0.3732(6) -0.0191(4)
O29 O -0.8074(8) -0.7801(8) -0.0859(5)
O30 O -1.0266(8) -0.2109(7) -0.0952(4)
O31 O -0.9634(8) -0.8101(7) -0.0137(5)
O32 O -0.8814(8) -0.1224(8) -0.0595(4)
W6A W -1.17454(5) -0.53542(4) 0.07744(2)
W7A W -0.83927(5) -0.43062(4) 0.05520(2)
W8A W -1.09772(5) -0.29049(4) 0.04169(3)
W9A W -1.08392(5) -0.77309(4) 0.04313(3)
W10A W -0.91585(5) -0.67459(4) 0.09077(3)
O17A O -0.8836(7) -0.5540(7) 0.0702(4)
O18A O -1.1307(7) -0.4203(7) 0.0592(4)
O19A O -1.1729(7) -0.2656(7) -0.0273(4)
O20A O -0.9769(7) -0.3564(7) 0.0898(4)
O21A O -1.2470(7) -0.5087(7) 0.0071(4)
O22A O -1.2763(8) -0.4924(7) 0.1242(4)
O23A O -0.8275(9) -0.7304(8) 0.1470(5)
O24A O -1.1875(7) -0.6749(7) 0.0839(4)
O25A O -0.7469(8) -0.4602(7) 0.1062(4)
O26A O -1.0496(7) -0.5993(6) 0.1250(4)
O27A O -1.1718(8) -0.7003(7) -0.0232(4)
O28A O -1.0361(7) -0.6268(6) 0.0191(4)
O29A O -1.1926(8) -0.2199(8) 0.0859(5)
O30A O -0.9734(8) -0.7891(7) 0.0952(4)
O31A O -1.0366(8) -0.1899(7) 0.0137(5)
O32A O -1.1186(8) -0.8776(8) 0.0595(4)
Cu1 Cu -0.47330(15) -0.23236(16) -0.73448(8)
Cu2 Cu -0.52201(14) -0.22384(14) -0.23570(7)
O33 O -0.3799(10) -0.3450(9) -0.7719(4)
O34 O -0.5642(8) -0.1147(7) -0.7006(4)
O35 O -1.3290(12) 0.2331(13) -0.7895(7)
O36 O -0.4718(8) -0.3472(7) -0.1778(4)
O37 O -0.5686(12) -0.1838(11) 0.1991(5)
O38 O -0.5815(8) -0.1016(8) -0.2924(4)
O39 O -0.3871(9) -0.2838(8) -0.6667(4)
C1 C -0.2008(15) -0.3737(13) -0.7969(7)
H1 H -0.2244 -0.3166 -0.8263
C2 C -0.0915(12) -0.4305(13) -0.7926(7)
H2 H -0.0410 -0.4157 -0.8199
C3 C -0.0550(15) -0.5120(11) -0.7464(7)
C4 C -0.1296(15) -0.5285(14) -0.7080(8)
H3 H -0.1076 -0.5777 -0.6749
C5 C -0.2426(16) -0.4702(14) -0.7183(7)
H4 H -0.2965 -0.4855 -0.6935
C6 C 0.2475(15) -0.6144(14) -0.7676(7)
H5 H 0.3018 -0.5928 -0.7889
C7 C 0.1408(14) -0.5518(13) -0.7739(7)
H6 H 0.1221 -0.4910 -0.8011
C8 C 0.0596(14) -0.5760(11) -0.7409(6)
C9 C 0.0902(16) -0.6669(12) -0.7044(8)
H7 H 0.0373 -0.6893 -0.6822
C10 C 0.2028(17) -0.7269(13) -0.7004(7)
H8 H 0.2248 -0.7869 -0.6726
C11 C -0.6967(11) 0.0171(11) -0.7496(7)
H9 H -0.6418 0.0441 -0.7658
C12 C -0.8107(15) 0.0743(13) -0.7624(7)
H10 H -0.8313 0.1397 -0.7860
C13 C -0.8902(13) 0.0317(11) -0.7393(6)
C14 C -0.8499(13) -0.0661(11) -0.7016(6)
H11 H -0.8992 -0.0992 -0.6843
C15 C -0.7421(12) -0.1095(11) -0.6914(6)
H12 H -0.7176 -0.1711 -0.6649
C16 C -1.1890(14) 0.0843(18) -0.7447(9)
H13 H -1.2395 0.0504 -0.7306
C17 C -1.0799(16) 0.0352(16) -0.7363(11)
H14 H -1.0550 -0.0356 -0.7194
C18 C -1.0069(12) 0.0828(12) -0.7510(7)
C19 C -1.0473(13) 0.1862(14) -0.7758(6)
H15 H -0.9989 0.2247 -0.7851
C20 C -1.1564(19) 0.2330(15) -0.7870(8)
H16 H -1.1826 0.3033 -0.8048
C21 C -0.5656(11) -0.3468(11) -0.0929(6)
H17 H -0.6211 -0.3632 -0.1094
C22 C -0.5703(12) -0.3361(12) -0.0378(6)
H18 H -0.6300 -0.3465 -0.0160
C23 C -0.4918(11) -0.3104(12) -0.0103(5)
C24 C -0.4044(11) -0.3012(11) -0.0447(6)
H19 H -0.3465 -0.2866 -0.0294
C25 C -0.4016(12) -0.3135(11) -0.1023(6)
H20 H -0.3421 -0.3070 -0.1257
C26 C -0.4637(14) -0.2026(12) 0.1199(6)
H21 H -0.4229 -0.1647 0.1324
C27 C -0.4465(13) -0.2317(12) 0.0677(7)
H22 H -0.3948 -0.2118 0.0432
C28 C -0.5025(12) -0.2900(12) 0.0493(7)
C29 C -0.5768(14) -0.3186(13) 0.0870(7)
H23 H -0.6194 -0.3559 0.0756
C30 C -0.5874(17) -0.2936(15) 0.1380(7)
H24 H -0.6299 -0.3215 0.1652
C31 C -0.4861(12) -0.0833(12) -0.3763(6)
H25 H -0.4502 -0.0457 -0.3595
C32 C -0.4619(12) -0.1032(11) -0.4309(6)
H26 H -0.4058 -0.0821 -0.4506
C33 C -0.5158(12) -0.1525(12) -0.4584(7)
C34 C -0.6008(12) -0.1734(14) -0.4261(7)
H27 H -0.6476 -0.1999 -0.4433
C35 C -0.6191(11) -0.1575(12) -0.3713(6)
H28 H -0.6756 -0.1759 -0.3502
C36 C -0.5157(13) -0.2543(12) -0.5936(6)
H29 H -0.5577 -0.2835 -0.6125
C37 C -0.5484(11) -0.2244(11) -0.5423(6)
H30 H -0.6123 -0.2342 -0.5248
C38 C -0.4873(11) -0.1784(10) -0.5147(6)
C39 C -0.3915(11) -0.1723(12) -0.5418(7)
H31 H -0.3446 -0.1467 -0.5241
C40 C -0.3647(12) -0.2033(11) -0.5942(7)
H32 H -0.3014 -0.1955 -0.6134
N1 N -0.2736(11) -0.3953(9) -0.7620(5)
N2 N 0.2784(13) -0.7036(13) -0.7333(7)
N3 N -0.6697(10) -0.0713(8) -0.7160(5)
N4 N -1.2248(13) 0.1826(14) -0.7737(7)
N5 N -0.4828(9) -0.3341(9) -0.1235(5)
N6 N -0.5384(13) -0.2278(12) 0.1531(6)
N7 N -0.5593(9) -0.1169(9) -0.3476(5)
N8 N -0.4255(9) -0.2432(9) -0.6175(5)
O40 O 0.3749(13) -0.7707(12) -0.7333(7)
O41 O -0.506(2) -0.3460(19) -0.2931(8)
H33 H -0.4679 -0.3347 -0.3219
H34 H -0.5682 -0.3434 -0.3036
O42 O -0.5221(8) -0.1125(11) -0.1804(5)
O43 O -0.3762(17) -0.1195(15) -0.7682(10)
H35 H -0.3337 -0.1441 -0.7948
H36 H -0.3375 -0.1155 -0.7419
N9 N -0.4770(5) -0.0800(9) -0.1345(3)
C41 C -0.3908(6) -0.0700(11) -0.1098(4)
H37 H -0.3241 -0.0836 -0.1306
C42 C -0.3924(5) -0.0422(12) -0.0581(4)
H38 H -0.3295 -0.0382 -0.0417
C43 C -0.4906(5) -0.0205(12) -0.0312(4)
C44 C -0.5807(6) -0.0300(13) -0.0514(3)
H39 H -0.6444 -0.0262 -0.0290
C45 C -0.5730(6) -0.0453(15) -0.1062(4)
H40 H -0.6387 -0.0308 -0.1261
O42A O -0.4779(8) 0.1125(11) 0.1804(5)
N9A N -0.5230(5) 0.0800(9) 0.1345(3)
C41A C -0.6092(6) 0.0700(11) 0.1098(4)
H37A H -0.6759 0.0836 0.1306
C42A C -0.6076(5) 0.0422(12) 0.0581(4)
H38A H -0.6705 0.0382 0.0417
C43A C -0.5094(5) 0.0205(12) 0.0312(4)
C44A C -0.4193(6) 0.0300(13) 0.0514(3)
H39A H -0.3556 0.0262 0.0290
C45A C -0.4270(6) 0.0453(15) 0.1062(4)
H40A H -0.3613 0.0308 0.1261
Cu1A Cu -1.52670(15) 0.23236(16) -0.26552(8)
Cu2A Cu -1.47799(14) 0.22384(14) -0.76430(7)
O33A O -1.6201(10) 0.3450(9) -0.2281(4)
O34A O -1.4358(8) 0.1147(7) -0.2994(4)
O35A O -0.6710(12) -0.2331(13) -0.2105(7)
O36A O -1.5282(8) 0.3472(7) -0.8222(4)
O37A O -1.4314(12) 0.1838(11) -1.1991(5)
O38A O -1.4185(8) 0.1016(8) -0.7076(4)
O39A O -1.6129(9) 0.2838(8) -0.3333(4)
C1A C -1.7992(15) 0.3737(13) -0.2031(7)
H1A H -1.7756 0.3166 -0.1737
C2A C -1.9085(12) 0.4305(13) -0.2074(7)
H2A H -1.9590 0.4157 -0.1801
C3A C -1.9450(15) 0.5120(11) -0.2536(7)
C4A C -1.8704(15) 0.5285(14) -0.2920(8)
H3A H -1.8924 0.5777 -0.3251
C5A C -1.7574(16) 0.4702(14) -0.2817(7)
H4A H -1.7035 0.4855 -0.3065
C6A C -2.2475(15) 0.6144(14) -0.2324(7)
H5A H -2.3018 0.5928 -0.2111
C7A C -2.1408(14) 0.5518(13) -0.2261(7)
H6A H -2.1221 0.4910 -0.1989
C8A C -2.0596(14) 0.5760(11) -0.2591(6)
C9A C -2.0902(16) 0.6669(12) -0.2956(8)
H7A H -2.0373 0.6893 -0.3178
C10A C -2.2028(17) 0.7269(13) -0.2996(7)
H8A H -2.2248 0.7869 -0.3274
C11A C -1.3033(11) -0.0171(11) -0.2504(7)
H9A H -1.3582 -0.0441 -0.2342
C12A C -1.1893(15) -0.0743(13) -0.2376(7)
H10A H -1.1687 -0.1397 -0.2140
C13A C -1.1098(13) -0.0317(11) -0.2607(6)
C14A C -1.1501(13) 0.0661(11) -0.2984(6)
H11A H -1.1008 0.0992 -0.3157
C15A C -1.2579(12) 0.1095(11) -0.3086(6)
H12A H -1.2824 0.1711 -0.3351
C16A C -0.8110(14) -0.0843(18) -0.2553(9)
H13A H -0.7605 -0.0504 -0.2694
C17A C -0.9201(16) -0.0352(16) -0.2637(11)
H14A H -0.9450 0.0356 -0.2806
C18A C -0.9931(12) -0.0828(12) -0.2490(7)
C19A C -0.9527(13) -0.1862(14) -0.2242(6)
H15A H -1.0011 -0.2247 -0.2149
C20A C -0.8436(19) -0.2330(15) -0.2130(8)
H16A H -0.8174 -0.3033 -0.1952
C21A C -1.4344(11) 0.3468(11) -0.9071(6)
H17A H -1.3789 0.3632 -0.8906
C22A C -1.4297(12) 0.3361(12) -0.9622(6)
H18A H -1.3700 0.3465 -0.9840
C23A C -1.5082(11) 0.3104(12) -0.9897(5)
C24A C -1.5956(11) 0.3012(11) -0.9553(6)
H19A H -1.6535 0.2866 -0.9706
C25A C -1.5984(12) 0.3135(11) -0.8977(6)
H20A H -1.6579 0.3070 -0.8743
C26A C -1.5363(14) 0.2026(12) -1.1199(6)
H21A H -1.5771 0.1647 -1.1324
C27A C -1.5535(13) 0.2317(12) -1.0677(7)
H22A H -1.6052 0.2118 -1.0432
C28A C -1.4975(12) 0.2900(12) -1.0493(7)
C29A C -1.4232(14) 0.3186(13) -1.0870(7)
H23A H -1.3806 0.3559 -1.0756
C30A C -1.4126(17) 0.2936(15) -1.1380(7)
H24A H -1.3701 0.3215 -1.1652
C31A C -1.5139(12) 0.0833(12) -0.6237(6)
H25A H -1.5498 0.0457 -0.6405
C32A C -1.5381(12) 0.1032(11) -0.5691(6)
H26A H -1.5942 0.0821 -0.5494
C33A C -1.4842(12) 0.1525(12) -0.5416(7)
C34A C -1.3992(12) 0.1734(14) -0.5739(7)
H27A H -1.3524 0.1999 -0.5567
C35A C -1.3809(11) 0.1575(12) -0.6287(6)
H28A H -1.3244 0.1759 -0.6498
C36A C -1.4843(13) 0.2543(12) -0.4064(6)
H29A H -1.4423 0.2835 -0.3875
C37A C -1.4516(11) 0.2244(11) -0.4577(6)
H30A H -1.3877 0.2342 -0.4752
C38A C -1.5127(11) 0.1784(10) -0.4853(6)
C39A C -1.6085(11) 0.1723(12) -0.4582(7)
H31A H -1.6554 0.1467 -0.4759
C40A C -1.6353(12) 0.2033(11) -0.4058(7)
H32A H -1.6986 0.1955 -0.3866
N1A N -1.7264(11) 0.3953(9) -0.2380(5)
N2A N -2.2784(13) 0.7036(13) -0.2667(7)
N3A N -1.3303(10) 0.0713(8) -0.2840(5)
N4A N -0.7752(13) -0.1826(14) -0.2263(7)
N5A N -1.5172(9) 0.3341(9) -0.8765(5)
N6A N -1.4616(13) 0.2278(12) -1.1531(6)
N7A N -1.4407(9) 0.1169(9) -0.6524(5)
N8A N -1.5745(9) 0.2432(9) -0.3825(5)
O40A O -2.3749(13) 0.7707(12) -0.2667(7)
O41A O -1.494(2) 0.3460(19) -0.7069(8)
H33A H -1.5321 0.3347 -0.6781
H34A H -1.4318 0.3434 -0.6964
O43A O -1.6238(17) 0.1195(15) -0.2318(10)
H35A H -1.6663 0.1441 -0.2052
H36A H -1.6625 0.1155 -0.2581
Cu1_2 Cu -0.47330(15) -0.23236(16) 0.26552(8)
Cu1A_2 Cu -1.52670(15) 0.23236(16) -1.26552(8)
Cu2_2 Cu -2.52201(14) 0.77616(14) -0.23570(7)
Cu2A_2 Cu -0.47799(14) 0.22384(14) 0.23570(7)
Cu2A_3 Cu 0.52201(14) -0.77616(14) -0.76430(7)
O37_2 O -0.5686(12) -0.1838(11) -0.8009(5)
O37A_2 O -1.4314(12) 0.1838(11) -0.1991(5)
O40_2 O -1.6251(13) 0.2293(12) -0.7333(7)
O40A_2 O -0.3749(13) -0.2293(12) -0.2667(7)
O42A_2 O -1.4779(8) 0.1125(11) -0.8196(5)
O44 O -1.261(3) 0.355(3) -0.2396(17)
N10 N 0.3413(19) 0.3926(17) 1.3914(11)
C46 C 0.317(3) 0.423(3) 1.4280(12)
C47 C 0.2760(19) 0.4461(18) 1.4806(10)
H41 H 0.2724 0.3825 1.5050
H42 H 0.2017 0.4986 1.4775
C48 C 0.356(2) 0.4896(18) 1.5053(7)
H43 H 0.4298 0.4360 1.5081
H44 H 0.3611 0.5512 1.4795
C49 C 0.3195(15) 0.5194(12) 1.5617(6)
H45 H 0.2469 0.5746 1.5576
H46 H 0.3093 0.4582 1.5857
C50 C 0.3897(17) 0.5567(16) 1.5921(11)
H47 H 0.3558 0.5743 1.6286
H48 H 0.3992 0.6188 1.5697
H49 H 0.4611 0.5020 1.5984
O45 O 0.4675(19) -0.4983(14) 0.7797(10)
O46 O -0.998(4) 0.379(3) -0.3579(18)
loop_
_geom_bond_atom_site_label_1
_geom_bond_atom_site_label_2
_geom_bond_site_symmetry_1
_geom_bond_site_symmetry_2
W1 O1 1_555 1_555
O1 W2 1_555 1_555
O2 W1 1_555 1_555
O3 W1 1_555 1_555
O4 W1 1_555 1_555
O5 W1 1_555 1_555
O6 W1 1_555 1_555
W2 O7 1_555 1_555
W3 O2 1_555 1_555
W4 O3 1_555 1_555
W5 O4 1_555 1_555
O7 W4A 1_555 1_555
O8 W2 1_555 1_555
O9 W2 1_555 1_555
O10 W2 1_555 1_555
O11 W3 1_555 1_555
O12 W3 1_555 1_555
O13 W3 1_555 1_555
O14 W4 1_555 1_555
O15 W4 1_555 1_555
O16 W5 1_555 1_555
W6 O18 1_555 1_555
W7 O17 1_555 1_555
W8 O18 1_555 1_555
W9 O24 1_555 1_555
W10 O17 1_555 1_555
O19 W8 1_555 1_555
O20 W7 1_555 1_555
O21 W6 1_555 1_555
O22 W6 1_555 1_555
O23 W10 1_555 1_555
O24 W6 1_555 1_555
O25 W7 1_555 1_555
O26 W6 1_555 1_555
O27 W9 1_555 1_555
O28 W6 1_555 1_555
O29 W8 1_555 1_555
O30 W9 1_555 1_555
O31 W8 1_555 1_555
O32 W9 1_555 1_555
Cu1 O33 1_555 1_555
Cu2 O36 1_555 1_555
O33 N1 1_555 1_555
O34 Cu1 1_555 1_555
O35 N4 1_555 1_555
O36 N5 1_555 1_555
O37 N6 1_555 1_555
O38 Cu2 1_555 1_555
O39 Cu1 1_555 1_555
C1 H1 1_555 1_555
C2 C1 1_555 1_555
H2 C2 1_555 1_555
C3 C2 1_555 1_555
C4 C3 1_555 1_555
H3 C4 1_555 1_555
C5 C4 1_555 1_555
H4 C5 1_555 1_555
C6 H5 1_555 1_555
C7 C6 1_555 1_555
H6 C7 1_555 1_555
C8 C3 1_555 1_555
C9 C8 1_555 1_555
H7 C9 1_555 1_555
C10 C9 1_555 1_555
H8 C10 1_555 1_555
C11 H9 1_555 1_555
C12 C11 1_555 1_555
H10 C12 1_555 1_555
C13 C12 1_555 1_555
C14 C13 1_555 1_555
H11 C14 1_555 1_555
C15 C14 1_555 1_555
H12 C15 1_555 1_555
C16 H13 1_555 1_555
C17 C16 1_555 1_555
H14 C17 1_555 1_555
C18 C13 1_555 1_555
C19 C18 1_555 1_555
H15 C19 1_555 1_555
C20 C19 1_555 1_555
H16 C20 1_555 1_555
C21 H17 1_555 1_555
C22 C21 1_555 1_555
H18 C22 1_555 1_555
C23 C22 1_555 1_555
C24 C23 1_555 1_555
H19 C24 1_555 1_555
C25 C24 1_555 1_555
H20 C25 1_555 1_555
C26 H21 1_555 1_555
C27 C26 1_555 1_555
H22 C27 1_555 1_555
C28 C23 1_555 1_555
C29 C28 1_555 1_555
H23 C29 1_555 1_555
C30 C29 1_555 1_555
H24 C30 1_555 1_555
C31 H25 1_555 1_555
C32 C31 1_555 1_555
H26 C32 1_555 1_555
C33 C32 1_555 1_555
C34 C33 1_555 1_555
H27 C34 1_555 1_555
C35 C34 1_555 1_555
H28 C35 1_555 1_555
C36 H29 1_555 1_555
C37 C36 1_555 1_555
H30 C37 1_555 1_555
C38 C33 1_555 1_555
C39 C38 1_555 1_555
H31 C39 1_555 1_555
C40 C39 1_555 1_555
H32 C40 1_555 1_555
N1 C1 1_555 1_555
N2 C6 1_555 1_555
N3 O34 1_555 1_555
N4 C16 1_555 1_555
N5 C21 1_555 1_555
N6 C26 1_555 1_555
N7 O38 1_555 1_555
N8 O39 1_555 1_555
O40 N2 1_555 1_555
O41 Cu2 1_555 1_555
H33 O41 1_555 1_555
H34 O41 1_555 1_555
O42 Cu2 1_555 1_555
O43 Cu1 1_555 1_555
H35 O43 1_555 1_555
H36 O43 1_555 1_555
N9 O42 1_555 1_555
C41 N9 1_555 1_555
H37 C41 1_555 1_555
C42 C41 1_555 1_555
H38 C42 1_555 1_555
C43 C42 1_555 1_555
C44 C43 1_555 1_555
H39 C44 1_555 1_555
C45 N9 1_555 1_555
H40 C45 1_555 1_555
N10 C46 1_555 1_555
C46 C47 1_555 1_555
C47 H41 1_555 1_555
H42 C47 1_555 1_555
C48 C47 1_555 1_555
H43 C48 1_555 1_555
H44 C48 1_555 1_555
C49 C48 1_555 1_555
H45 C49 1_555 1_555
H46 C49 1_555 1_555
C50 C49 1_555 1_555
H47 C50 1_555 1_555
H48 C50 1_555 1_555
H49 C50 1_555 1_555
W1A O1A 1_555 1_555
O1A W2A 1_555 1_555
O2A W1A 1_555 1_555
O3A W1A 1_555 1_555
O4A W1A 1_555 1_555
O5A W1A 1_555 1_555
O6A W2 1_555 1_555
W2A O6 1_555 1_555
W3A O10 1_555 1_555
W4A O11 1_555 1_555
W5A O8 1_555 1_555
O7A W4 1_555 1_555
O8A W5 1_555 1_555
O9A W2A 1_555 1_555
O10A W3 1_555 1_555
O11A W4 1_555 1_555
O12A W3A 1_555 1_555
O13A W3A 1_555 1_555
O14A W4A 1_555 1_555
O15A W4A 1_555 1_555
O16A W5A 1_555 1_555
W6A O18A 1_555 1_555
W7A O21 1_555 1_555
W8A O28 1_555 1_555
W9A O31 1_555 1_555
W10A O19 1_555 1_555
O17A W7A 1_555 1_555
O18A W8A 1_555 1_555
O19A W10 1_555 1_555
O20A W7A 1_555 1_555
O21A W7 1_555 1_555
O22A W6A 1_555 1_555
O23A W10A 1_555 1_555
O24A W6A 1_555 1_555
O25A W7A 1_555 1_555
O26A W6A 1_555 1_555
O27A W7 1_555 1_555
O28A W7 1_555 1_555
O29A W8A 1_555 1_555
O30A W9A 1_555 1_555
O31A W9 1_555 1_555
O32A W9A 1_555 1_555
O42A N9A 1_555 1_555
N9A C41A 1_555 1_555
C41A H37A 1_555 1_555
C42A C41A 1_555 1_555
H38A C42A 1_555 1_555
C43A C43 1_555 1_555
C44A C43A 1_555 1_555
H39A C44A 1_555 1_555
C45A N9A 1_555 1_555
H40A C45A 1_555 1_555
Cu1A O33A 1_555 1_555
Cu2A O35 1_555 1_555
O33A N1A 1_555 1_555
O34A Cu1A 1_555 1_555
O35A Cu2 1_555 1_555
O36A Cu2A 1_555 1_555
O37A N6A 1_555 1_555
O38A Cu2A 1_555 1_555
O39A Cu1A 1_555 1_555
C1A H1A 1_555 1_555
C2A C1A 1_555 1_555
H2A C2A 1_555 1_555
C3A C2A 1_555 1_555
C4A C3A 1_555 1_555
H3A C4A 1_555 1_555
C5A C4A 1_555 1_555
H4A C5A 1_555 1_555
C6A H5A 1_555 1_555
C7A C6A 1_555 1_555
H6A C7A 1_555 1_555
C8A C3A 1_555 1_555
C9A C8A 1_555 1_555
H7A C9A 1_555 1_555
C10A C9A 1_555 1_555
H8A C10A 1_555 1_555
C11A H9A 1_555 1_555
C12A C11A 1_555 1_555
H10A C12A 1_555 1_555
C13A C12A 1_555 1_555
C14A C13A 1_555 1_555
H11A C14A 1_555 1_555
C15A C14A 1_555 1_555
H12A C15A 1_555 1_555
C16A H13A 1_555 1_555
C17A C16A 1_555 1_555
H14A C17A 1_555 1_555
C18A C13A 1_555 1_555
C19A C18A 1_555 1_555
H15A C19A 1_555 1_555
C20A C19A 1_555 1_555
H16A C20A 1_555 1_555
C21A H17A 1_555 1_555
C22A C21A 1_555 1_555
H18A C22A 1_555 1_555
C23A C22A 1_555 1_555
C24A C23A 1_555 1_555
H19A C24A 1_555 1_555
C25A C24A 1_555 1_555
H20A C25A 1_555 1_555
C26A H21A 1_555 1_555
C27A C26A 1_555 1_555
H22A C27A 1_555 1_555
C28A C23A 1_555 1_555
C29A C28A 1_555 1_555
H23A C29A 1_555 1_555
C30A C29A 1_555 1_555
H24A C30A 1_555 1_555
C31A H25A 1_555 1_555
C32A C31A 1_555 1_555
H26A C32A 1_555 1_555
C33A C32A 1_555 1_555
C34A C33A 1_555 1_555
H27A C34A 1_555 1_555
C35A C34A 1_555 1_555
H28A C35A 1_555 1_555
C36A H29A 1_555 1_555
C37A C36A 1_555 1_555
H30A C37A 1_555 1_555
C38A C33A 1_555 1_555
C39A C38A 1_555 1_555
H31A C39A 1_555 1_555
C40A C39A 1_555 1_555
H32A C40A 1_555 1_555
N1A C1A 1_555 1_555
N2A C6A 1_555 1_555
N3A O34A 1_555 1_555
N4A O35A 1_555 1_555
N5A O36A 1_555 1_555
N6A C26A 1_555 1_555
N7A O38A 1_555 1_555
N8A O39A 1_555 1_555
O40A N2A 1_555 1_555
O41A Cu2A 1_555 1_555
H33A O41A 1_555 1_555
H34A O41A 1_555 1_555
O43A Cu1A 1_555 1_555
H35A O43A 1_555 1_555
H36A O43A 1_555 1_555
Cu1_2 O37 1_555 1_555
Cu1A_2 O37A 1_555 1_555
Cu2_2 O40A 1_555 1_555
Cu2A_2 O42A 1_555 1_555
Cu2A_3 O40 1_555 1_555
O37_2 Cu1 1_555 1_555
O37A_2 Cu1A 1_555 1_555
O40_2 Cu2A 1_555 1_555
O40A_2 Cu2 1_555 1_555
O42A_2 Cu2A 1_555 1_555
O6 W3 1_555 1_555
O6 W4 1_555 1_555
O6 W5 1_555 1_555
W5 O13 1_555 1_555
W5 O14 1_555 1_555
W8 O20 1_555 1_555
W8 O28A 1_555 1_555
W9 O28 1_555 1_555
W10 O26 1_555 1_555
W10 O28 1_555 1_555
W10 O30 1_555 1_555
O27 W7A 1_555 1_555
O28 W7A 1_555 1_555
C5 N1 1_555 1_555
C7 C8 1_555 1_555
C10 N2 1_555 1_555
C11 N3 1_555 1_555
C15 N3 1_555 1_555
C17 C18 1_555 1_555
C20 N4 1_555 1_555
C25 N5 1_555 1_555
C27 C28 1_555 1_555
C30 N6 1_555 1_555
C31 N7 1_555 1_555
C35 N7 1_555 1_555
C36 N8 1_555 1_555
C37 C38 1_555 1_555
C40 N8 1_555 1_555
C44 C45 1_555 1_555
W1A O6A 1_555 1_555
O2A W3A 1_555 1_555
O3A W4A 1_555 1_555
O4A W5A 1_555 1_555
O6A W3A 1_555 1_555
O6A W4A 1_555 1_555
O6A W5A 1_555 1_555
W2A O7A 1_555 1_555
W2A O8A 1_555 1_555
W2A O10A 1_555 1_555
W3A O11A 1_555 1_555
W5A O13A 1_555 1_555
W5A O14A 1_555 1_555
W6A O21A 1_555 1_555
W6A O28A 1_555 1_555
W8A O19A 1_555 1_555
W8A O20A 1_555 1_555
W8A O31A 1_555 1_555
W9A O24A 1_555 1_555
W9A O27A 1_555 1_555
W9A O28A 1_555 1_555
W10A O17A 1_555 1_555
W10A O26A 1_555 1_555
W10A O28A 1_555 1_555
W10A O30A 1_555 1_555
C42A C43A 1_555 1_555
C44A C45A 1_555 1_555
C5A N1A 1_555 1_555
C7A C8A 1_555 1_555
C10A N2A 1_555 1_555
C11A N3A 1_555 1_555
C15A N3A 1_555 1_555
C16A N4A 1_555 1_555
C17A C18A 1_555 1_555
C20A N4A 1_555 1_555
C21A N5A 1_555 1_555
C25A N5A 1_555 1_555
C27A C28A 1_555 1_555
C30A N6A 1_555 1_555
C31A N7A 1_555 1_555
C35A N7A 1_555 1_555
C36A N8A 1_555 1_555
C37A C38A 1_555 1_555
C40A N8A 1_555 1_555

#END
