
#######################################################################
#
#                 Cambridge Crystallographic Data Centre
#                                CCDC 
#
#######################################################################
#
# If this CIF has been generated from an entry in the Cambridge 
# Structural Database, then it will include bibliographic, chemical, 
# crystal, experimental, refinement or atomic coordinate data resulting 
# from the CCDC's data processing and validation procedures.
#
#######################################################################

data_RICHIV
_chemical_formula_moiety         '(C24 H42 La2 O18)n'
_symmetry_cell_setting           triclinic
_symmetry_space_group_name_H-M   'P -1'
_symmetry_Int_Tables_number      2
_space_group_name_Hall           '-P 1'
loop_
_symmetry_equiv_pos_site_id
_symmetry_equiv_pos_as_xyz
1 x,y,z
2 -x,-y,-z
_cell_length_a                   9.8785(3)
_cell_length_b                   11.1986(4)
_cell_length_c                   14.7456(4)
_cell_angle_alpha                93.919(2)
_cell_angle_beta                 97.409(2)
_cell_angle_gamma                104.517(2)
_cell_volume                     1557.34
loop_
_atom_site_label
_atom_site_type_symbol
_atom_site_fract_x
_atom_site_fract_y
_atom_site_fract_z
C1 C 0.8187(7) 0.2706(6) 0.1711(5)
C2 C 0.8009(10) 0.1340(8) 0.1445(7)
H1 H 0.8640 0.1103 0.1928
C3 C 0.6572(10) 0.0628(8) 0.1569(8)
H2 H 0.5879 0.0943 0.1200
H3 H 0.6460 0.0771 0.2208
C4 C 0.8487(13) 0.1015(9) 0.0616(11)
H4 H 0.9499 0.1378 0.0676
H5 H 0.8035 0.1368 0.0117
C5 C 0.8179(15) -0.0381(9) 0.0372(11)
H6 H 0.8323 -0.0532 -0.0260
H7 H 0.8862 -0.0686 0.0759
C6 C 0.6264(12) -0.0755(9) 0.1309(9)
H8 H 0.6671 -0.1128 0.1815
H9 H 0.5248 -0.1113 0.1212
C7 C 0.6842(10) -0.1059(7) 0.0463(6)
H10 H 0.6247 -0.0775 -0.0015
C8 C 0.6444(7) -0.2450(6) 0.0193(5)
C9 C 0.9449(6) 0.6228(6) 0.2664(4)
C10 C 1.0079(7) 0.7127(6) 0.2012(5)
H11 H 0.9453 0.7675 0.1911
C11 C 1.1557(7) 0.7965(6) 0.2364(5)
H12 H 1.1589 0.8284 0.2997
H13 H 1.1730 0.8666 0.2004
C12 C 1.0052(7) 0.6431(8) 0.1068(4)
H14 H 0.9135 0.5843 0.0885
H15 H 1.0180 0.7020 0.0613
C13 C 1.1197(7) 0.5744(7) 0.1086(5)
H16 H 1.1148 0.5322 0.0481
H17 H 1.1046 0.5124 0.1517
C14 C 1.2744(7) 0.7313(6) 0.2319(4)
H18 H 1.3652 0.7922 0.2477
H19 H 1.2684 0.6717 0.2769
C15 C 1.2660(6) 0.6650(6) 0.1372(4)
H20 H 1.2765 0.7279 0.0936
C16 C 1.3810(6) 0.5998(6) 0.1302(4)
C17 C 0.1659(7) 0.3673(7) 0.4716(5)
C18 C 0.1853(7) 0.2875(7) 0.3907(5)
H21 H 0.0918 0.2375 0.3611
C19 C 0.2763(8) 0.2003(7) 0.4157(5)
H22 H 0.2305 0.1427 0.4556
H23 H 0.3668 0.2480 0.4495
C20 C 0.2501(8) 0.3743(7) 0.3214(5)
H24 H 0.1873 0.4253 0.3027
H25 H 0.3397 0.4290 0.3510
C21 C 0.2733(7) 0.3012(7) 0.2373(4)
H26 H 0.3179 0.3582 0.1966
H27 H 0.1826 0.2527 0.2045
C22 C 0.3010(8) 0.1276(7) 0.3311(5)
H28 H 0.2117 0.0730 0.3010
H29 H 0.3637 0.0766 0.3499
C23 C 0.3664(7) 0.2145(7) 0.2631(4)
H30 H 0.3664 0.1625 0.2069
C24 C 0.5195(7) 0.2835(6) 0.2989(4)
O1 O 0.7753(5) 0.3357(5) 0.1136(3)
O2 O 0.8730(5) 0.3107(5) 0.2524(3)
O3 O 0.5630(5) -0.2844(5) -0.0546(3)
O4 O 0.6915(5) -0.3126(5) 0.0733(3)
O5 O 0.8132(4) 0.5695(4) 0.2486(3)
O6 O 1.0154(5) 0.6022(5) 0.3349(3)
O7 O 1.3856(4) 0.5441(4) 0.0525(3)
O8 O 1.4694(5) 0.5973(5) 0.1982(3)
O9 O 0.5789(5) 0.3766(5) 0.2610(3)
O10 O 0.5892(6) 0.2485(6) 0.3623(4)
O11 O 0.0589(5) 0.4123(5) 0.4649(3)
O12 O 0.2571(6) 0.3993(6) 0.5431(3)
O13 O 0.7566(7) 0.3398(8) 0.5328(4)
La1 La 0.61803(3) 0.47520(3) 0.11755(2)
La2 La 0.82418(4) 0.42153(4) 0.38526(2)
O3A O 0.4370(5) 0.2844(5) 0.0546(3)
O4_2 O 0.6915(5) 0.6874(5) 0.0733(3)
O7_2 O 0.3856(4) 0.5441(4) 0.0525(3)
O7A O 0.6144(4) 0.4559(4) -0.0525(3)
O8_2 O 0.4694(5) 0.5973(5) 0.1982(3)
O11_2 O 1.0589(5) 0.4123(5) 0.4649(3)
O11A O 0.9411(5) 0.5877(5) 0.5351(3)
O12A O 0.7429(6) 0.6007(6) 0.4569(3)
La1A La 0.38197(3) -0.47520(3) -0.11755(2)
La1_2 La 0.61803(3) -0.52480(3) 0.11755(2)
La1_3 La 1.61803(3) 0.47520(3) 0.11755(2)
La1A_2 La 1.38197(3) 0.52480(3) -0.11755(2)
La2_2 La -0.17582(4) 0.42153(4) 0.38526(2)
La2A La 0.17582(4) 0.57847(4) 0.61474(2)
O14 O 0.5603(12) 0.1277(13) 0.5458(11)
O15 O 0.8352(15) 0.1744(14) 0.4194(12)
O16 O 1.6249(13) 0.7608(11) 0.3514(7)
O17 O 0.883(3) -0.053(2) 0.3526(18)
O19 O 0.972(5) 0.104(2) 0.535(4)
loop_
_geom_bond_atom_site_label_1
_geom_bond_atom_site_label_2
_geom_bond_site_symmetry_1
_geom_bond_site_symmetry_2
C1 C2 1_555 1_555
C2 H1 1_555 1_555
C3 C2 1_555 1_555
H2 C3 1_555 1_555
H3 C3 1_555 1_555
C4 C2 1_555 1_555
H4 C4 1_555 1_555
H5 C4 1_555 1_555
C5 C4 1_555 1_555
H6 C5 1_555 1_555
H7 C5 1_555 1_555
C6 C3 1_555 1_555
H8 C6 1_555 1_555
H9 C6 1_555 1_555
C7 C5 1_555 1_555
H10 C7 1_555 1_555
C8 C7 1_555 1_555
C9 C10 1_555 1_555
C10 H11 1_555 1_555
C11 C10 1_555 1_555
H12 C11 1_555 1_555
H13 C11 1_555 1_555
C12 C10 1_555 1_555
H14 C12 1_555 1_555
H15 C12 1_555 1_555
C13 C12 1_555 1_555
H16 C13 1_555 1_555
H17 C13 1_555 1_555
C14 C11 1_555 1_555
H18 C14 1_555 1_555
H19 C14 1_555 1_555
C15 C13 1_555 1_555
H20 C15 1_555 1_555
C16 C15 1_555 1_555
C17 C18 1_555 1_555
C18 H21 1_555 1_555
C19 C18 1_555 1_555
H22 C19 1_555 1_555
H23 C19 1_555 1_555
C20 C18 1_555 1_555
H24 C20 1_555 1_555
H25 C20 1_555 1_555
C21 C20 1_555 1_555
H26 C21 1_555 1_555
H27 C21 1_555 1_555
C22 C19 1_555 1_555
H28 C22 1_555 1_555
H29 C22 1_555 1_555
C23 C21 1_555 1_555
H30 C23 1_555 1_555
C24 C23 1_555 1_555
O1 C1 1_555 1_555
O2 C1 1_555 1_555
O3 C8 1_555 1_555
O4 C8 1_555 1_555
O5 C9 1_555 1_555
O6 C9 1_555 1_555
O7 C16 1_555 1_555
O8 C16 1_555 1_555
O9 C24 1_555 1_555
O10 C24 1_555 1_555
O11 C17 1_555 1_555
O12 C17 1_555 1_555
O13 La2 1_555 1_555
La1 O1 1_555 1_555
La2 O2 1_555 1_555
O3A La1 1_555 1_555
O4_2 La1 1_555 1_555
O7_2 La1 1_555 1_555
O7A La1 1_555 1_555
O8_2 La1 1_555 1_555
O11_2 La2 1_555 1_555
O11A La2 1_555 1_555
O12A La2 1_555 1_555
La1A O3 1_555 1_555
La1_2 O4 1_555 1_555
La1_3 O7 1_555 1_555
La1A_2 O7 1_555 1_555
La2_2 O11 1_555 1_555
La2A O11 1_555 1_555
C6 C7 1_555 1_555
C14 C15 1_555 1_555
C22 C23 1_555 1_555
O5 La1 1_555 1_555
O5 La2 1_555 1_555
O6 La2 1_555 1_555
O8 La1_3 1_555 1_555
O9 La1 1_555 1_555
O9 La2 1_555 1_555
O10 La2 1_555 1_555
O12 La2A 1_555 1_555

#END
