
#######################################################################
#
#                 Cambridge Crystallographic Data Centre
#                                CCDC 
#
#######################################################################
#
# If this CIF has been generated from an entry in the Cambridge 
# Structural Database, then it will include bibliographic, chemical, 
# crystal, experimental, refinement or atomic coordinate data resulting 
# from the CCDC's data processing and validation procedures.
#
#######################################################################

data_SIWQIA03
_chemical_formula_moiety         '(C3 H8 N2 O6 Zn1)n'
_symmetry_cell_setting           orthorhombic
_symmetry_space_group_name_H-M   'P 21 21 21'
_symmetry_Int_Tables_number      19
_space_group_name_Hall           'P 2ac 2ab'
loop_
_symmetry_equiv_pos_site_id
_symmetry_equiv_pos_as_xyz
1 x,y,z
2 1/2-x,-y,1/2+z
3 1/2+x,1/2-y,-z
4 -x,1/2+y,1/2-z
_cell_length_a                   7.29731(6)
_cell_length_b                   7.94804(7)
_cell_length_c                   13.82240(12)
_cell_angle_alpha                90
_cell_angle_beta                 90
_cell_angle_gamma                90
_cell_volume                     801.69
loop_
_atom_site_label
_atom_site_type_symbol
_atom_site_fract_x
_atom_site_fract_y
_atom_site_fract_z
Zn1 Zn 0.75924(2) 0.71943(2) 0.66453(2)
O1 O 0.58650(12) 0.92540(11) 0.66291(7)
O2 O 0.90375(12) 0.80618(11) 0.78854(6)
O3 O 0.39130(13) 1.10502(12) 0.72797(7)
O4 O 0.61923(12) 0.61081(11) 0.54686(6)
O5 O 0.41920(12) 0.63018(11) 0.42659(6)
O6 O 1.07713(12) 1.00424(11) 0.85627(6)
C1 C 0.50866(15) 0.69260(13) 0.49474(8)
H1 H 0.4925 0.8089 0.5082
C2 C 0.50097(17) 0.98458(15) 0.73352(8)
H2 H 0.5205 0.9350 0.7952
C3 C 0.99169(16) 0.94291(15) 0.78645(8)
H3 H 0.9929 1.0037 0.7273
Zn1B Zn 0.25924(2) 0.78057(2) 0.33547(2)
Zn1C Zn 0.24076(2) 1.21943(2) 0.83547(2)
Zn1C_2 Zn 1.24076(2) 1.21943(2) 0.83547(2)
O3C O 0.60870(13) 0.60502(12) 0.77203(7)
O5B O 0.91920(12) 0.86982(11) 0.57341(6)
O6C O 0.92287(12) 0.50424(11) 0.64373(6)
N1 N 0.68452(14) 0.21299(14) 0.53830(8)
N2 N 0.76572(14) 0.31745(12) 0.46381(7)
H4 H 0.7231 0.2849 0.4049
H5 H 0.8898 0.3061 0.4654
H6 H 0.7353 0.4269 0.4744
H7 H 0.7222(15) 0.2522(11) 0.59524(10)
H8 H 0.7263(15) 0.1088(4) 0.5301(6)
loop_
_geom_bond_atom_site_label_1
_geom_bond_atom_site_label_2
_geom_bond_site_symmetry_1
_geom_bond_site_symmetry_2
Zn1 O1 1_555 1_555
O1 C2 1_555 1_555
O2 Zn1 1_555 1_555
O3 C2 1_555 1_555
O4 Zn1 1_555 1_555
O5 C1 1_555 1_555
O6 C3 1_555 1_555
C1 O4 1_555 1_555
H1 C1 1_555 1_555
C2 H2 1_555 1_555
C3 O2 1_555 1_555
H3 C3 1_555 1_555
N1 N2 1_555 1_555
N2 H4 1_555 1_555
H5 N2 1_555 1_555
H6 N2 1_555 1_555
H7 N1 1_555 1_555
H8 N1 1_555 1_555
Zn1B O5 1_555 1_555
Zn1C O3 1_555 1_555
Zn1C_2 O6 1_555 1_555
O3C Zn1 1_555 1_555
O5B Zn1 1_555 1_555
O6C Zn1 1_555 1_555

#END
