
#######################################################################
#
#                 Cambridge Crystallographic Data Centre
#                                CCDC 
#
#######################################################################
#
# If this CIF has been generated from an entry in the Cambridge 
# Structural Database, then it will include bibliographic, chemical, 
# crystal, experimental, refinement or atomic coordinate data resulting 
# from the CCDC's data processing and validation procedures.
#
#######################################################################

data_JUKPAI
_chemical_formula_moiety         '(C27 H31 Cu5 K1 N21 O113 P4 W28 7+)n'
_symmetry_cell_setting           monoclinic
_symmetry_space_group_name_H-M   'P 21/n'
_symmetry_Int_Tables_number      14
_space_group_name_Hall           '-P 2yn'
loop_
_symmetry_equiv_pos_site_id
_symmetry_equiv_pos_as_xyz
1 x,y,z
2 1/2-x,1/2+y,1/2-z
3 -x,-y,-z
4 1/2+x,1/2-y,1/2+z
_cell_length_a                   21.5819(17)
_cell_length_b                   19.2279(16)
_cell_length_c                   25.740(2)
_cell_angle_alpha                90
_cell_angle_beta                 95.2863(15)
_cell_angle_gamma                90
_cell_volume                     10636
loop_
_atom_site_label
_atom_site_type_symbol
_atom_site_fract_x
_atom_site_fract_y
_atom_site_fract_z
Cu1 Cu 0.11548(14) 0.41587(15) 0.68376(12)
Cu2 Cu 0.23671(14) 0.33875(15) 0.75853(12)
Cu3 Cu 0.27992(14) 0.17093(15) 0.72772(12)
Cu4 Cu 0.18002(14) 0.09010(15) 0.63911(11)
Cu5 Cu -0.16429(15) 0.25356(16) 0.34229(12)
N1 N -0.1413(11) 0.3614(11) 0.3190(8)
N2 N -0.1585(11) 0.3846(10) 0.2715(8)
N3 N -0.1438(11) 0.4476(10) 0.2649(8)
H1 H -0.1512 0.4702 0.2361
N4 N -0.1133(11) 0.4754(11) 0.3113(8)
N5 N -0.0107(10) 0.4195(11) 0.5553(9)
N6 N -0.0167(11) 0.4186(13) 0.6333(10)
N7 N 0.0457(10) 0.4152(12) 0.6284(9)
N8 N 0.1366(10) 0.3014(11) 0.6776(9)
N9 N 0.1885(9) 0.2823(10) 0.7076(8)
N10 N 0.2054(9) 0.2187(11) 0.6968(9)
N11 N 0.1644(9) 0.1961(11) 0.6565(9)
N12 N -0.0741(10) 0.2487(11) 0.4890(8)
N13 N -0.1347(10) 0.2516(12) 0.5045(9)
N14 N -0.1381(9) 0.2515(11) 0.4176(8)
N15 N -0.0924(10) -0.0795(12) 0.3863(8)
N16 N 0.0108(11) -0.0655(12) 0.3923(9)
N17 N -0.0068(10) -0.0753(11) 0.4392(8)
N18 N 0.1764(9) -0.1269(10) 0.6523(8)
N19 N 0.2177(9) -0.1025(10) 0.6925(8)
N20 N 0.2229(9) -0.0397(10) 0.6857(7)
H2 H 0.2473 -0.0140 0.7059
N21 N 0.1889(9) -0.0147(10) 0.6457(8)
C1 C -0.1125(13) 0.4197(13) 0.3445(9)
C2 C -0.0808(13) 0.4235(12) 0.3982(9)
C3 C -0.1184(13) 0.4286(13) 0.4322(10)
H3 H -0.1605 0.4326 0.4211
C4 C -0.1004(13) 0.4285(13) 0.4876(10)
H4 H -0.1276 0.4348 0.5132
C5 C -0.0352(12) 0.4176(13) 0.4975(10)
C6 C 0.0017(12) 0.4107(13) 0.4616(9)
H5 H 0.0442 0.4054 0.4702
C7 C -0.0235(13) 0.4113(13) 0.4085(10)
H6 H 0.0018 0.4030 0.3818
C8 C -0.0527(14) 0.4276(15) 0.5941(11)
H7 H -0.0952 0.4370 0.5908
C9 C 0.0462(12) 0.4129(14) 0.5782(11)
H8 H 0.0817 0.4074 0.5607
C10 C 0.1245(12) 0.2465(14) 0.6487(11)
C11 C 0.0697(12) 0.2458(14) 0.6037(11)
C12 C 0.0149(12) 0.2455(14) 0.6183(11)
H9 H 0.0089 0.2443 0.6536
C13 C -0.0388(12) 0.2469(14) 0.5787(10)
H10 H -0.0796 0.2477 0.5875
C14 C -0.0246(12) 0.2470(13) 0.5279(10)
C15 C 0.0329(13) 0.2489(13) 0.5131(10)
H11 H 0.0393 0.2488 0.4778
C16 C 0.0854(14) 0.2511(14) 0.5527(10)
H12 H 0.1263 0.2556 0.5445
C17 C -0.0727(12) 0.2530(13) 0.4379(9)
H13 H -0.0380 0.2562 0.4192
C18 C -0.1724(13) 0.2534(15) 0.4582(10)
H14 H -0.2156 0.2557 0.4555
C19 C -0.0397(13) -0.0705(15) 0.3595(11)
H15 H -0.0402 -0.0683 0.3234
C20 C -0.0679(12) -0.0861(13) 0.4379(10)
H16 H -0.0901 -0.0961 0.4663
C21 C 0.0311(13) -0.0740(14) 0.4863(10)
C22 C 0.0099(13) -0.0930(14) 0.5330(10)
H17 H -0.0312 -0.1052 0.5365
C23 C 0.0557(12) -0.0921(14) 0.5743(11)
H18 H 0.0434 -0.1080 0.6059
C24 C 0.1164(13) -0.0714(14) 0.5755(10)
C25 C 0.1390(14) -0.0558(15) 0.5292(11)
H19 H 0.1808 -0.0444 0.5286
C26 C 0.0988(14) -0.0565(14) 0.4811(11)
H20 H 0.1135 -0.0469 0.4490
C27 C 0.1588(11) -0.0726(13) 0.6235(10)
O54 O 0.2640(8) 0.1017(8) 0.6765(6)
H21 H 0.2961 0.0723 0.6686
O55 O 0.2097(10) 0.1096(18) 0.5615(7)
O56 O 0.1839(8) 0.4098(11) 0.7321(7)
H22 H 0.1947 0.4527 0.7470
O57 O -0.2533(12) 0.2804(15) 0.3567(12)
O58 O -0.2022(8) 0.2402(8) 0.2706(7)
H23 H -0.1667 0.2216 0.2540
O59 O -0.0739(9) 0.2355(13) 0.3227(9)
O60 O 0.0399(10) 0.3971(12) 0.7440(8)
Cu1B Cu -0.11548(14) 0.58413(15) 0.31624(12)
Cu2A Cu 0.26329(14) -0.16125(15) 0.74147(12)
Cu2C Cu -0.26329(14) 0.16125(15) 0.25853(12)
Cu3C Cu -0.22008(14) 0.32907(15) 0.22772(12)
Cu4B Cu -0.18002(14) -0.09010(15) 0.36089(11)
Cu5B Cu 0.16429(15) -0.25356(16) 0.65771(12)
N2C N 0.3415(11) 0.1154(10) 0.7715(8)
N4B N 0.1133(11) 0.5246(11) 0.6887(8)
N15B N 0.0924(10) 0.0795(12) 0.6137(8)
N18B N -0.1764(9) 0.1269(10) 0.3477(8)
N19A N 0.2823(9) 0.3975(10) 0.8075(8)
O58C O 0.2978(8) 0.2598(8) 0.7706(7)
K1 K 0.4508(8) 0.5599(9) 0.4821(6)
W1 W 0.76237(5) 0.64948(7) 0.52995(6)
W2 W 0.69997(6) 0.64716(7) 0.66311(6)
W3 W 0.57954(6) 0.55951(7) 0.73885(5)
W4 W 0.44658(6) 0.42999(8) 0.73244(5)
W5 W 0.35850(6) 0.30117(7) 0.64116(5)
W6 W 0.25588(5) 0.42381(6) 0.60690(5)
W7 W 0.34737(6) 0.55417(7) 0.69251(5)
W8 W 0.47831(7) 0.68367(6) 0.70340(5)
W9 W 0.59672(6) 0.76918(6) 0.62449(5)
W10 W 0.66310(6) 0.77546(6) 0.49364(6)
O1 O 0.8391(11) 0.6517(14) 0.5440(10)
O2 O 0.7508(8) 0.5529(11) 0.5401(9)
O3 O 0.7413(10) 0.6727(12) 0.6012(8)
O4 O 0.7698(11) 0.6510(11) 0.7070(9)
O5 O 0.6439(9) 0.6145(12) 0.7126(7)
O6 O 0.6095(8) 0.4863(9) 0.7001(7)
O7 O 0.6181(8) 0.5431(11) 0.7989(8)
O8 O 0.5063(8) 0.5032(11) 0.7452(7)
O9 O 0.5111(9) 0.3888(9) 0.6957(7)
O10 O 0.4593(13) 0.3911(12) 0.7936(8)
O11 O 0.3895(10) 0.3657(11) 0.7041(11)
O12 O 0.4388(9) 0.2917(11) 0.6304(9)
O13 O 0.3491(11) 0.2337(10) 0.6826(9)
O14 O 0.2787(9) 0.3427(8) 0.6458(6)
O15 O 0.3794(8) 0.4899(9) 0.7449(7)
O16 O 0.5328(9) 0.6410(11) 0.7567(8)
O17 O 0.6147(11) 0.6563(12) 0.6075(11)
O18 O 0.6688(9) 0.7443(10) 0.6625(7)
O19 O 0.6576(9) 0.6597(10) 0.5101(8)
O20 O 0.7467(9) 0.7470(9) 0.5118(8)
O21 O 0.6698(9) 0.7442(9) 0.4236(8)
O22 O 0.6757(10) 0.8631(14) 0.4822(7)
O23 O 0.6508(12) 0.7838(10) 0.5623(8)
O24 O 0.6004(10) 0.8577(13) 0.6460(13)
O25 O 0.5449(11) 0.7349(12) 0.6765(10)
O26 O 0.4508(11) 0.7532(11) 0.7379(7)
O27 O 0.4162(10) 0.6176(11) 0.7126(7)
O28 O 0.2936(10) 0.5967(13) 0.7268(8)
O29 O 0.2906(10) 0.4780(8) 0.6610(6)
O30 O 0.2362(8) 0.3726(9) 0.5475(7)
O31 O 0.1783(7) 0.4330(10) 0.6185(7)
O32 O 0.5762(7) 0.7704(8) 0.4746(7)
O33 O 0.5267(11) 0.7636(9) 0.5776(10)
O34 O 0.4389(9) 0.6991(9) 0.6334(7)
O35 O 0.3359(9) 0.5997(10) 0.6297(7)
O36 O 0.2664(8) 0.5015(10) 0.5630(7)
O37 O 0.5216(8) 0.5916(9) 0.6665(9)
O38 O 0.3577(9) 0.3990(10) 0.5901(11)
O39 O 0.4222(14) 0.4908(10) 0.6576(10)
O40 O 0.7025(9) 0.5530(10) 0.6437(7)
W11 W 0.58255(10) 0.40486(12) 0.65640(10)
W12 W 0.70278(10) 0.49027(12) 0.58141(9)
O41 O 0.6345(14) 0.3405(15) 0.6948(12)
O42 O 0.766(3) 0.446(3) 0.608(3)
O43 O 0.3768(18) 0.646(2) 0.5479(18)
O44 O 0.4674(19) 0.713(2) 0.4997(15)
O45 O 0.6452(18) 0.437(2) 0.6135(18)
P1 P 0.6085(7) 0.6300(9) 0.5461(6)
P2 P 0.4783(7) 0.5350(7) 0.6321(5)
O46 O 0.5247(16) 0.4795(15) 0.6139(11)
O47 O 0.4491(14) 0.5775(18) 0.5809(11)
O48 O 0.6236(17) 0.5534(19) 0.5523(12)
O49 O 0.5467(17) 0.6440(16) 0.513(2)
O50 O 0.3223(17) 0.722(2) 0.5615(17)
W13 W 0.38002(10) 0.66064(11) 0.57765(10)
O51 O 0.460(2) 0.816(2) 0.4876(18)
W14 W 0.49775(11) 0.74433(11) 0.50024(9)
O52 O 0.5395(17) 0.339(2) 0.5970(17)
O53 O 0.688(2) 0.443(2) 0.5173(17)
W1B W 0.23763(5) 0.35052(7) 0.47005(6)
W2B W 0.30003(6) 0.35284(7) 0.33689(6)
W3B W 0.42046(6) 0.44049(7) 0.26115(5)
W4B W 0.55342(6) 0.57001(8) 0.26756(5)
W5B W 0.64150(6) 0.69883(7) 0.35884(5)
W6B W 0.74412(5) 0.57619(6) 0.39310(5)
W7B W 0.65263(6) 0.44583(7) 0.30749(5)
W8B W 0.52169(7) 0.31633(6) 0.29660(5)
W9B W 0.40328(6) 0.23082(6) 0.37551(5)
W10B W 0.33690(6) 0.22454(6) 0.50636(6)
O1B O 0.1609(11) 0.3483(14) 0.4560(10)
O2B O 0.2492(8) 0.4471(11) 0.4599(9)
O3B O 0.2587(10) 0.3273(12) 0.3988(8)
O4B O 0.2302(11) 0.3490(11) 0.2930(9)
O5B O 0.3561(9) 0.3855(12) 0.2874(7)
O6B O 0.3905(8) 0.5137(9) 0.2999(7)
O7B O 0.3819(8) 0.4569(11) 0.2011(8)
O8B O 0.4937(8) 0.4968(11) 0.2548(7)
O9B O 0.4889(9) 0.6112(9) 0.3043(7)
O10B O 0.5407(13) 0.6089(12) 0.2064(8)
O11B O 0.6105(10) 0.6343(11) 0.2959(11)
O12B O 0.5612(9) 0.7083(11) 0.3696(9)
O13B O 0.6509(11) 0.7663(10) 0.3174(9)
O14B O 0.7213(9) 0.6573(8) 0.3542(6)
O15B O 0.6206(8) 0.5101(9) 0.2551(7)
O16B O 0.4672(9) 0.3590(11) 0.2433(8)
O17B O 0.3853(11) 0.3437(12) 0.3925(11)
O18B O 0.3312(9) 0.2557(10) 0.3375(7)
O19B O 0.3424(9) 0.3403(10) 0.4899(8)
O20B O 0.2533(9) 0.2530(9) 0.4882(8)
O21B O 0.3302(9) 0.2558(9) 0.5764(8)
O22B O 0.3243(10) 0.1369(14) 0.5178(7)
O23B O 0.3492(12) 0.2162(10) 0.4377(8)
O24B O 0.3996(10) 0.1423(13) 0.3540(13)
O25B O 0.4551(11) 0.2651(12) 0.3235(10)
O26B O 0.5492(11) 0.2468(11) 0.2621(7)
O27B O 0.5838(10) 0.3824(11) 0.2874(7)
O28B O 0.7064(10) 0.4033(13) 0.2732(8)
O29B O 0.7094(10) 0.5220(8) 0.3390(6)
O30B O 0.7638(8) 0.6274(9) 0.4525(7)
O31B O 0.8217(7) 0.5670(10) 0.3815(7)
O32B O 0.4238(7) 0.2296(8) 0.5254(7)
O33B O 0.4733(11) 0.2364(9) 0.4224(10)
O34B O 0.5611(9) 0.3009(9) 0.3666(7)
O35B O 0.6641(9) 0.4003(10) 0.3703(7)
O36B O 0.7336(8) 0.4985(10) 0.4370(7)
O37B O 0.4784(8) 0.4084(9) 0.3335(9)
O38B O 0.6423(9) 0.6010(10) 0.4099(11)
O39B O 0.5778(14) 0.5092(10) 0.3424(10)
O40B O 0.2975(9) 0.4470(10) 0.3563(7)
W11B W 0.41745(10) 0.59514(12) 0.34360(10)
W12B W 0.29722(10) 0.50973(12) 0.41859(9)
O41B O 0.3655(14) 0.6595(15) 0.3052(12)
O42B O 0.234(3) 0.554(3) 0.392(3)
O43B O 0.6232(18) 0.354(2) 0.4521(18)
O44B O 0.5326(19) 0.287(2) 0.5003(15)
O45B O 0.3548(18) 0.563(2) 0.3865(18)
P1B P 0.3915(7) 0.3700(9) 0.4539(6)
P2B P 0.5217(7) 0.4650(7) 0.3679(5)
O46B O 0.4753(16) 0.5205(15) 0.3861(11)
O47B O 0.5509(14) 0.4225(18) 0.4191(11)
O48B O 0.3764(17) 0.4466(19) 0.4477(12)
O49B O 0.4533(17) 0.3560(16) 0.487(2)
O50B O 0.6777(17) 0.278(2) 0.4385(17)
W13B W 0.61998(10) 0.33936(11) 0.42235(10)
O51B O 0.540(2) 0.184(2) 0.5124(18)
W14B W 0.50225(11) 0.25567(11) 0.49976(9)
O52B O 0.4605(17) 0.661(2) 0.4030(17)
O53B O 0.312(2) 0.557(2) 0.4827(17)
loop_
_geom_bond_atom_site_label_1
_geom_bond_atom_site_label_2
_geom_bond_site_symmetry_1
_geom_bond_site_symmetry_2
W1 O1 1_555 1_555
W2 O3 1_555 1_555
W3 O5 1_555 1_555
W4 O8 1_555 1_555
W5 O11 1_555 1_555
W6 O14 1_555 1_555
W7 O15 1_555 1_555
W8 O16 1_555 1_555
W9 O17 1_555 1_555
W10 O19 1_555 1_555
O2 W1 1_555 1_555
O3 W1 1_555 1_555
O4 W2 1_555 1_555
O5 W2 1_555 1_555
O6 W3 1_555 1_555
O7 W3 1_555 1_555
O8 W3 1_555 1_555
O9 W4 1_555 1_555
O10 W4 1_555 1_555
O11 W4 1_555 1_555
O12 W5 1_555 1_555
O13 W5 1_555 1_555
O14 W5 1_555 1_555
O15 W4 1_555 1_555
O16 W3 1_555 1_555
O17 W2 1_555 1_555
O18 W2 1_555 1_555
O19 W1 1_555 1_555
O20 W1 1_555 1_555
O21 W10 1_555 1_555
O22 W10 1_555 1_555
O23 W9 1_555 1_555
O24 W9 1_555 1_555
O25 W8 1_555 1_555
O26 W8 1_555 1_555
O27 W7 1_555 1_555
O28 W7 1_555 1_555
O29 W6 1_555 1_555
O30 W6 1_555 1_555
O31 W6 1_555 1_555
O32 W10 1_555 1_555
O33 W9 1_555 1_555
O34 W8 1_555 1_555
O35 W7 1_555 1_555
O36 W6 1_555 1_555
O37 W3 1_555 1_555
O38 W5 1_555 1_555
O39 W4 1_555 1_555
O40 W2 1_555 1_555
W11 O6 1_555 1_555
W12 O2 1_555 1_555
O41 W11 1_555 1_555
O42 W12 1_555 1_555
O43 W13 1_555 1_555
O44 W14 1_555 1_555
O45 W11 1_555 1_555
P1 O17 1_555 1_555
P2 O37 1_555 1_555
O46 W11 1_555 1_555
O47 P2 1_555 1_555
O48 W12 1_555 1_555
O49 P1 1_555 1_555
O50 W13 1_555 1_555
W13 O34 1_555 1_555
O51 W14 1_555 1_555
W14 O32 1_555 1_555
O52 W11 1_555 1_555
O53 W12 1_555 1_555
Cu1 N7 1_555 1_555
Cu2 N9 1_555 1_555
Cu3 N10 1_555 1_555
Cu4 N11 1_555 1_555
Cu5 N1 1_555 1_555
N1 N2 1_555 1_555
N2 N3 1_555 1_555
N3 H1 1_555 1_555
N4 N3 1_555 1_555
N5 C5 1_555 1_555
N6 N7 1_555 1_555
N7 C9 1_555 1_555
N8 Cu1 1_555 1_555
N9 N8 1_555 1_555
N10 N9 1_555 1_555
N11 N10 1_555 1_555
N12 N13 1_555 1_555
N13 C18 1_555 1_555
N14 Cu5 1_555 1_555
N15 C19 1_555 1_555
N16 N17 1_555 1_555
N17 C20 1_555 1_555
N18 N19 1_555 1_555
N19 N20 1_555 1_555
N20 H2 1_555 1_555
N21 Cu4 1_555 1_555
C1 N1 1_555 1_555
C2 C1 1_555 1_555
C3 C2 1_555 1_555
H3 C3 1_555 1_555
C4 C3 1_555 1_555
H4 C4 1_555 1_555
C5 C4 1_555 1_555
C6 C5 1_555 1_555
H5 C6 1_555 1_555
C7 C2 1_555 1_555
H6 C7 1_555 1_555
C8 N5 1_555 1_555
H7 C8 1_555 1_555
C9 N5 1_555 1_555
H8 C9 1_555 1_555
C10 N8 1_555 1_555
C11 C10 1_555 1_555
C12 C11 1_555 1_555
H9 C12 1_555 1_555
C13 C12 1_555 1_555
H10 C13 1_555 1_555
C14 N12 1_555 1_555
C15 C14 1_555 1_555
H11 C15 1_555 1_555
C16 C11 1_555 1_555
H12 C16 1_555 1_555
C17 N12 1_555 1_555
H13 C17 1_555 1_555
C18 N14 1_555 1_555
H14 C18 1_555 1_555
C19 N16 1_555 1_555
H15 C19 1_555 1_555
C20 N15 1_555 1_555
H16 C20 1_555 1_555
C21 N17 1_555 1_555
C22 C21 1_555 1_555
H17 C22 1_555 1_555
C23 C22 1_555 1_555
H18 C23 1_555 1_555
C24 C23 1_555 1_555
C25 C24 1_555 1_555
H19 C25 1_555 1_555
C26 C21 1_555 1_555
H20 C26 1_555 1_555
C27 N18 1_555 1_555
O54 Cu3 1_555 1_555
H21 O54 1_555 1_555
O55 Cu4 1_555 1_555
O56 Cu1 1_555 1_555
H22 O56 1_555 1_555
O57 Cu5 1_555 1_555
O58 Cu5 1_555 1_555
H23 O58 1_555 1_555
O59 Cu5 1_555 1_555
O60 Cu1 1_555 1_555
W1B O30 1_555 1_555
W2B O3B 1_555 1_555
W3B O5B 1_555 1_555
W4B O8B 1_555 1_555
W5B O21 1_555 1_555
W6B O14B 1_555 1_555
W7B O15B 1_555 1_555
W8B O16B 1_555 1_555
W9B O17B 1_555 1_555
W10B O19B 1_555 1_555
O1B W1B 1_555 1_555
O2B W1B 1_555 1_555
O3B W1B 1_555 1_555
O4B W2B 1_555 1_555
O5B W2B 1_555 1_555
O6B W3B 1_555 1_555
O7B W3B 1_555 1_555
O8B W3B 1_555 1_555
O9B W4B 1_555 1_555
O10B W4B 1_555 1_555
O11B W4B 1_555 1_555
O12B W5B 1_555 1_555
O13B W5B 1_555 1_555
O14B W5B 1_555 1_555
O15B W4B 1_555 1_555
O16B W3B 1_555 1_555
O17B W2B 1_555 1_555
O18B W2B 1_555 1_555
O19B W1B 1_555 1_555
O20B W1B 1_555 1_555
O21B W5 1_555 1_555
O22B W10B 1_555 1_555
O23B W9B 1_555 1_555
O24B W9B 1_555 1_555
O25B W8B 1_555 1_555
O26B W8B 1_555 1_555
O27B W7B 1_555 1_555
O28B W7B 1_555 1_555
O29B W6B 1_555 1_555
O30B W1 1_555 1_555
O31B W6B 1_555 1_555
O32B W10B 1_555 1_555
O33B W9B 1_555 1_555
O34B W8B 1_555 1_555
O35B W7B 1_555 1_555
O36B W6B 1_555 1_555
O37B W3B 1_555 1_555
O38B W5B 1_555 1_555
O39B W4B 1_555 1_555
O40B W2B 1_555 1_555
W11B O6B 1_555 1_555
W12B O2B 1_555 1_555
O41B W11B 1_555 1_555
O42B W12B 1_555 1_555
O43B W13B 1_555 1_555
O44B W14B 1_555 1_555
O45B W11B 1_555 1_555
P1B O17B 1_555 1_555
P2B O37B 1_555 1_555
O46B W11B 1_555 1_555
O47B P2B 1_555 1_555
O48B W12B 1_555 1_555
O49B P1B 1_555 1_555
O50B W13B 1_555 1_555
W13B O34B 1_555 1_555
O51B W14B 1_555 1_555
W14B O32B 1_555 1_555
O52B W11B 1_555 1_555
O53B W12B 1_555 1_555
Cu1B N4 1_555 1_555
Cu2A N19 1_555 1_555
Cu2C O58 1_555 1_555
Cu3C N2 1_555 1_555
Cu4B N15 1_555 1_555
Cu5B N18 1_555 1_555
N2C Cu3 1_555 1_555
N4B Cu1 1_555 1_555
N15B Cu4 1_555 1_555
N18B Cu5 1_555 1_555
N19A Cu2 1_555 1_555
O58C Cu2 1_555 1_555
W6 O38 1_555 1_555
W7 O29 1_555 1_555
W7 O39 1_555 1_555
W8 O27 1_555 1_555
W8 O37 1_555 1_555
W9 O18 1_555 1_555
W9 O25 1_555 1_555
W10 O20 1_555 1_555
W10 O23 1_555 1_555
O9 W11 1_555 1_555
O19 P1 1_555 1_555
O33 W14 1_555 1_555
O35 W13 1_555 1_555
O39 P2 1_555 1_555
O40 W12 1_555 1_555
W12 O45 1_555 1_555
P1 O48 1_555 1_555
P2 O46 1_555 1_555
O47 W13 1_555 1_555
O49 W14 1_555 1_555
Cu2 O56 1_555 1_555
Cu3 O58C 1_555 1_555
Cu4 O54 1_555 1_555
N4 C1 1_555 1_555
N6 C8 1_555 1_555
N11 C10 1_555 1_555
N14 C17 1_555 1_555
N20 N21 1_555 1_555
N21 C27 1_555 1_555
C6 C7 1_555 1_555
C13 C14 1_555 1_555
C15 C16 1_555 1_555
C24 C27 1_555 1_555
C25 C26 1_555 1_555
O58 Cu3C 1_555 1_555
W5B O11B 1_555 1_555
W6B O30B 1_555 1_555
W6B O38B 1_555 1_555
W7B O29B 1_555 1_555
W7B O39B 1_555 1_555
W8B O27B 1_555 1_555
W8B O37B 1_555 1_555
W9B O18B 1_555 1_555
W9B O25B 1_555 1_555
W10B O20B 1_555 1_555
W10B O21B 1_555 1_555
W10B O23B 1_555 1_555
O9B W11B 1_555 1_555
O19B P1B 1_555 1_555
O33B W14B 1_555 1_555
O35B W13B 1_555 1_555
O39B P2B 1_555 1_555
O40B W12B 1_555 1_555
W12B O45B 1_555 1_555
P1B O48B 1_555 1_555
P2B O46B 1_555 1_555
O47B W13B 1_555 1_555
O49B W14B 1_555 1_555

#END
