
#######################################################################
#
#                 Cambridge Crystallographic Data Centre
#                                CCDC 
#
#######################################################################
#
# If this CIF has been generated from an entry in the Cambridge 
# Structural Database, then it will include bibliographic, chemical, 
# crystal, experimental, refinement or atomic coordinate data resulting 
# from the CCDC's data processing and validation procedures.
#
#######################################################################

data_RUSHIY
_chemical_formula_moiety         '(C60 H110 Co4 K1 N24 O120 P5 W30)n'
_symmetry_cell_setting           orthorhombic
_symmetry_space_group_name_H-M   'P b c n'
_symmetry_Int_Tables_number      60
_space_group_name_Hall           '-P 2n 2ab'
loop_
_symmetry_equiv_pos_site_id
_symmetry_equiv_pos_as_xyz
1 x,y,z
2 1/2-x,1/2-y,1/2+z
3 1/2+x,1/2-y,-z
4 -x,y,1/2-z
5 -x,-y,-z
6 1/2+x,1/2+y,1/2-z
7 1/2-x,1/2+y,z
8 x,-y,1/2+z
_cell_length_a                   27.019(2)
_cell_length_b                   38.427(3)
_cell_length_c                   38.738(3)
_cell_angle_alpha                90
_cell_angle_beta                 90
_cell_angle_gamma                90
_cell_volume                     40220.1
loop_
_atom_site_label
_atom_site_type_symbol
_atom_site_fract_x
_atom_site_fract_y
_atom_site_fract_z
W1 W 0.82488(5) 0.56810(3) 0.35524(4)
W2 W 0.72723(5) 0.51528(3) 0.35717(4)
W3 W 0.65749(5) 0.59545(3) 0.32578(4)
W4 W 0.75496(5) 0.64861(3) 0.32468(3)
W5 W 0.68785(5) 0.72590(3) 0.36110(3)
W6 W 0.58793(5) 0.67689(3) 0.35011(4)
W7 W 0.57684(5) 0.59941(3) 0.40347(4)
W8 W 0.79523(5) 0.68733(3) 0.40600(3)
W9 W 0.86219(5) 0.60894(3) 0.43827(3)
W10 W 0.64578(5) 0.51982(3) 0.43208(4)
W11 W 0.76216(5) 0.46883(3) 0.43916(4)
W12 W 0.86711(5) 0.51487(3) 0.43160(4)
W13 W 0.86678(5) 0.51374(3) 0.52991(4)
W14 W 0.76210(5) 0.46907(3) 0.53726(4)
W15 W 0.64611(5) 0.51680(3) 0.52878(4)
W16 W 0.85988(5) 0.61010(3) 0.53499(3)
W17 W 0.78934(4) 0.68908(3) 0.56274(3)
W18 W 0.57795(4) 0.59565(3) 0.55938(3)
W19 W 0.53394(5) 0.64641(3) 0.48320(3)
W20 W 0.75047(5) 0.73702(3) 0.48331(3)
W21 W 0.64392(5) 0.77522(3) 0.43990(3)
W22 W 0.54336(4) 0.72609(3) 0.42978(3)
W23 W 0.53762(5) 0.73038(3) 0.52662(4)
W24 W 0.64644(5) 0.77093(3) 0.53609(3)
W25 W 0.68549(5) 0.71940(3) 0.61479(3)
W26 W 0.57601(5) 0.67968(3) 0.60633(3)
W27 W 0.64424(5) 0.60238(3) 0.64112(4)
W28 W 0.75533(5) 0.63958(3) 0.64126(3)
W29 W 0.82493(5) 0.55983(3) 0.61039(4)
W30 W 0.71419(5) 0.52232(3) 0.61169(4)
Co1 Co 0.45828(15) 0.54628(10) 0.57617(12)
Co2 Co 0.41130(15) 0.76256(10) 0.41929(11)
Co3 Co 0.72281(17) 0.80431(11) 0.30688(12)
Co4 Co 0.92176(18) 0.67644(12) 0.14097(13)
K1 K 0.7583(2) 0.64393(14) 0.48481(15)
P1 P 0.6849(3) 0.64493(19) 0.3972(2)
P2 P 0.7592(3) 0.55878(17) 0.4311(2)
P3 P 0.7559(3) 0.55854(18) 0.5364(2)
P4 P 0.6809(3) 0.64442(18) 0.5692(2)
P5 P 0.6362(3) 0.69803(19) 0.4830(2)
O1 O 0.7932(8) 0.6593(5) 0.2901(5)
O2 O 0.7076(8) 0.6220(5) 0.3001(5)
O3 O 0.5053(10) 0.5032(7) 0.5695(10)
O4 O 0.6222(9) 0.5808(6) 0.2929(6)
O5 O 0.4731(9) 0.5453(8) 0.6282(7)
O6 O 0.6968(8) 0.5568(5) 0.3307(6)
O7 O 0.4500(11) 0.5490(10) 0.5223(7)
O8 O 0.7913(7) 0.6018(5) 0.3324(5)
O9 O 0.8749(10) 0.5647(6) 0.3278(7)
O10 O 0.4250(11) 0.7679(7) 0.4718(6)
O11 O 0.7863(7) 0.5297(5) 0.3350(6)
O12 O 0.7066(8) 0.4865(5) 0.3255(5)
O13 O 0.8544(8) 0.5278(5) 0.3886(5)
O14 O 0.6597(12) 0.8257(7) 0.3318(7)
O15 O 0.7551(7) 0.4849(5) 0.3877(5)
O16 O 0.7321(13) 0.8549(9) 0.2814(9)
O17 O 0.6706(8) 0.5206(6) 0.3861(5)
O18 O 0.8469(9) 0.6815(6) 0.1219(8)
O19 O 0.7606(8) 0.5583(6) 0.3905(5)
O20 O 0.9382(10) 0.7244(6) 0.1136(7)
O21 O 0.8506(7) 0.5972(5) 0.3898(5)
O22 O 0.9973(10) 0.6798(10) 0.1539(8)
O23 O 0.7933(8) 0.6625(6) 0.3640(8)
O24 O 0.7032(8) 0.6256(5) 0.3647(6)
O25 O 0.6132(8) 0.5871(6) 0.3607(6)
O26 O 0.6211(7) 0.6442(4) 0.3257(5)
O27 O 0.7179(8) 0.6885(5) 0.3281(5)
O28 O 0.7109(7) 0.7592(5) 0.3351(4)
O29 O 0.6277(7) 0.7158(5) 0.3365(6)
O30 O 0.5376(9) 0.6846(6) 0.3241(5)
O31 O 0.5656(7) 0.6433(5) 0.3827(5)
O32 O 0.6576(7) 0.6788(5) 0.3849(7)
O33 O 0.7448(8) 0.7164(5) 0.3859(6)
O34 O 0.8443(9) 0.7131(5) 0.3992(5)
O35 O 0.7300(7) 0.6551(5) 0.4194(5)
O36 O 0.6495(7) 0.6227(5) 0.4195(5)
O37 O 0.5227(9) 0.5786(6) 0.3910(6)
O38 O 0.6091(9) 0.5605(6) 0.4280(6)
O39 O 0.8269(8) 0.6525(5) 0.4323(6)
O40 O 0.9226(7) 0.6238(5) 0.4301(6)
O41 O 0.7847(7) 0.5907(5) 0.4451(5)
O42 O 0.7054(7) 0.5564(5) 0.4432(6)
O43 O 0.6004(7) 0.4891(5) 0.4231(6)
O44 O 0.6971(7) 0.4863(5) 0.4417(6)
O45 O 0.7866(6) 0.5246(4) 0.4420(5)
O46 O 0.8781(7) 0.5609(4) 0.4443(5)
O47 O 0.9269(7) 0.4981(5) 0.4278(6)
O48 O 0.8333(8) 0.4703(5) 0.4289(7)
O49 O 0.7538(9) 0.4262(6) 0.4302(6)
O50 O 0.7710(6) 0.4652(4) 0.4859(4)
O51 O 0.8679(7) 0.5063(5) 0.4839(5)
O52 O 0.8575(8) 0.6184(5) 0.4849(5)
O53 O 0.6370(8) 0.5224(5) 0.4804(5)
O54 O 0.5554(7) 0.6150(4) 0.4472(6)
O55 O 0.7779(7) 0.7073(4) 0.4494(5)
O56 O 0.6592(7) 0.7517(5) 0.3934(5)
O57 O 0.5632(7) 0.7108(5) 0.3875(5)
O58 O 0.4849(7) 0.7417(5) 0.4159(6)
O59 O 0.5756(7) 0.7718(5) 0.4250(5)
O60 O 0.6543(8) 0.8168(5) 0.4237(7)
O61 O 0.7093(6) 0.7580(4) 0.4492(4)
O62 O 0.6184(7) 0.7196(5) 0.4498(4)
O63 O 0.5275(8) 0.6813(5) 0.4495(5)
O64 O 0.4725(8) 0.6340(5) 0.4824(5)
O65 O 0.6129(7) 0.6623(5) 0.4825(5)
O66 O 0.6942(7) 0.6960(5) 0.4834(6)
O67 O 0.7981(9) 0.7687(6) 0.4841(6)
O68 O 0.7781(7) 0.7069(4) 0.5180(4)
O69 O 0.5584(9) 0.6153(5) 0.5160(5)
O70 O 0.5201(8) 0.5755(5) 0.5675(6)
O71 O 0.6473(8) 0.6216(5) 0.5468(6)
O72 O 0.7250(7) 0.6565(5) 0.5484(5)
O73 O 0.8414(7) 0.7150(5) 0.5722(6)
O74 O 0.8236(8) 0.6526(4) 0.5379(7)
O75 O 0.6063(8) 0.5601(5) 0.5334(5)
O76 O 0.5972(9) 0.4882(5) 0.5362(6)
O77 O 0.7041(7) 0.5566(5) 0.5212(4)
O78 O 0.7816(8) 0.5915(5) 0.5231(5)
O79 O 0.9195(8) 0.6251(6) 0.5409(6)
O80 O 0.8740(8) 0.5620(4) 0.5257(7)
O81 O 0.7851(9) 0.5258(5) 0.5244(7)
O82 O 0.6957(8) 0.4840(5) 0.5208(6)
O83 O 0.7534(10) 0.4247(6) 0.5420(7)
O84 O 0.8316(8) 0.4709(5) 0.5415(6)
O85 O 0.9259(7) 0.4994(5) 0.5403(7)
O86 O 0.8503(7) 0.5277(5) 0.5796(5)
O87 O 0.7479(8) 0.4869(4) 0.5788(6)
O88 O 0.6645(8) 0.5202(5) 0.5774(5)
O89 O 0.7537(7) 0.5582(4) 0.5776(6)
O90 O 0.8466(7) 0.5961(5) 0.5799(6)
O91 O 0.7882(7) 0.6616(5) 0.6041(6)
O92 O 0.6968(8) 0.6249(5) 0.6020(6)
O93 O 0.6107(9) 0.5840(7) 0.6032(8)
O94 O 0.5637(7) 0.6402(4) 0.5789(5)
O95 O 0.6517(6) 0.6767(5) 0.5803(4)
O96 O 0.7400(7) 0.7173(5) 0.5831(5)
O97 O 0.7093(8) 0.7581(5) 0.5163(5)
O98 O 0.6194(7) 0.7184(5) 0.5143(5)
O99 O 0.5256(8) 0.6815(5) 0.5166(5)
O100 O 0.5345(7) 0.7412(5) 0.4829(6)
O101 O 0.6340(7) 0.7832(4) 0.4856(4)
O102 O 0.6568(8) 0.8130(5) 0.5512(6)
O103 O 0.5751(6) 0.7704(6) 0.5425(6)
O104 O 0.4787(8) 0.7437(5) 0.5401(6)
O105 O 0.5572(7) 0.7102(5) 0.5737(5)
O106 O 0.6564(7) 0.7494(4) 0.5780(5)
O107 O 0.7000(8) 0.7556(5) 0.6407(5)
O108 O 0.6178(7) 0.7125(5) 0.6308(5)
O109 O 0.5245(8) 0.6821(6) 0.6334(6)
O110 O 0.6108(7) 0.6422(5) 0.6383(5)
O111 O 0.7137(8) 0.6843(4) 0.6415(5)
O112 O 0.7901(7) 0.6553(5) 0.6773(6)
O113 O 0.6995(8) 0.6213(5) 0.6680(6)
O114 O 0.6127(9) 0.5821(5) 0.6748(5)
O115 O 0.6882(8) 0.5599(5) 0.6347(6)
O116 O 0.7866(9) 0.5971(4) 0.6351(6)
O117 O 0.8693(8) 0.5584(6) 0.6422(6)
O118 O 0.7775(8) 0.5282(5) 0.6323(6)
O119 O 0.6935(8) 0.4916(5) 0.6409(5)
N1 N 0.3473(14) 0.5694(9) 0.3930(9)
H1 H 0.3571 0.5505 0.3873
N2 N 0.3099(14) 0.5821(9) 0.3742(10)
N3 N 0.3413(10) 0.7066(7) 0.4471(7)
H2 H 0.3305 0.7218 0.4615
N4 N 0.3821(9) 0.7129(6) 0.4266(7)
N5 N 0.4441(7) 0.8118(5) 0.4089(6)
N6 N 0.4879(7) 0.8194(5) 0.4278(6)
H3 H 0.4985 0.8084 0.4456
C1 C 0.5111(9) 0.8485(7) 0.4120(8)
C2 C 0.4817(12) 0.8588(7) 0.3834(8)
C3 C 0.4403(10) 0.8361(7) 0.3815(7)
N7 N 0.6875(12) 0.7416(9) 0.2661(8)
H4 H 0.7070 0.7297 0.2790
N8 N 0.6783(12) 0.7767(9) 0.2697(8)
N9 N 0.9350(14) 0.5558(8) -0.0218(9)
N10 N 0.8906(13) 0.5703(8) -0.0268(8)
H5 H 0.8692 0.5627 -0.0414
N11 N 0.9400(11) 0.6495(7) 0.0959(7)
N12 N 0.9728(12) 0.6629(6) 0.0735(9)
H6 H 0.9910 0.6803 0.0792
N13 N 0.9341(17) 0.7374(12) 0.1919(12)
H7 H 0.9624 0.7416 0.1825
N14 N 0.9049(12) 0.7068(8) 0.1849(9)
N15 N 0.7846(11) 0.7786(7) 0.2844(7)
N16 N 0.8110(9) 0.7574(6) 0.3079(7)
H8 H 0.8054 0.7558 0.3297
N17 N 0.7493(11) 0.8227(8) 0.3804(8)
H9 H 0.7209 0.8141 0.3857
N18 N 0.7667(10) 0.8237(7) 0.3479(8)
C4 C 0.4066(17) 0.5873(11) 0.4325(12)
H10 H 0.4130 0.5628 0.4339
H11 H 0.3989 0.5961 0.4551
H12 H 0.4354 0.5990 0.4237
C5 C 0.3692(16) 0.5929(11) 0.4118(10)
C6 C 0.3416(16) 0.6265(11) 0.4041(11)
C7 C 0.3057(16) 0.6134(11) 0.3796(10)
C8 C 0.2680(18) 0.6417(12) 0.3647(13)
H13 H 0.2410 0.6448 0.3805
H14 H 0.2554 0.6340 0.3428
H15 H 0.2849 0.6635 0.3617
C9 C 0.2747(17) 0.6673(10) 0.4638(13)
H16 H 0.2577 0.6879 0.4713
H17 H 0.2839 0.6536 0.4835
H18 H 0.2532 0.6539 0.4491
C10 C 0.3211(17) 0.6776(10) 0.4437(13)
C11 C 0.3510(17) 0.6598(10) 0.4204(13)
C12 C 0.3878(17) 0.6814(10) 0.4105(13)
C13 C 0.4288(16) 0.6731(10) 0.3851(12)
H19 H 0.4364 0.6935 0.3718
H20 H 0.4182 0.6548 0.3699
H21 H 0.4577 0.6657 0.3975
C14 C 0.5564(18) 0.8618(12) 0.4275(14)
H22 H 0.5483 0.8797 0.4439
H23 H 0.5773 0.8712 0.4098
H24 H 0.5733 0.8432 0.4391
C15 C 0.3990(16) 0.8405(10) 0.3590(13)
H25 H 0.4070 0.8315 0.3366
H26 H 0.3912 0.8648 0.3572
H27 H 0.3710 0.8282 0.3681
C16 C 0.4728(19) 0.9382(11) 0.4092(15)
H28 H 0.4413 0.9289 0.4160
H29 H 0.4710 0.9632 0.4085
H30 H 0.4976 0.9313 0.4256
C17 C 0.5025(13) 0.8870(6) 0.3304(9)
C18 C 0.4886(14) 0.8892(6) 0.3657(8)
C19 C 0.4861(13) 0.9250(7) 0.3748(7)
N19 N 0.4984(12) 0.9448(5) 0.3451(8)
N20 N 0.5085(12) 0.9214(7) 0.3177(7)
H31 H 0.5169 0.9270 0.2970
C20 C 0.510(2) 0.8556(13) 0.3027(15)
H32 H 0.5340 0.8393 0.3115
H33 H 0.5219 0.8650 0.2813
H34 H 0.4792 0.8439 0.2990
C21 C 0.522(2) 0.7605(16) 0.2119(13)
H35 H 0.5182 0.7379 0.2220
H36 H 0.4922 0.7675 0.2008
H37 H 0.5306 0.7770 0.2296
C22 C 0.6131(10) 0.7543(9) 0.1902(5)
C23 C 0.6333(7) 0.7517(9) 0.1564(7)
N21 N 0.5939(9) 0.7551(8) 0.1324(5)
N22 N 0.5494(7) 0.7599(8) 0.1513(6)
H38 H 0.5203 0.7626 0.1427
C24 C 0.5613(9) 0.7594(9) 0.1870(5)
C25 C 0.6813(16) 0.7493(14) 0.1510(9)
H39 H 0.6975 0.7694 0.1604
H40 H 0.6876 0.7480 0.1267
H41 H 0.6939 0.7288 0.1621
C26 C 0.6727(16) 0.6911(8) 0.2287(11)
H42 H 0.7074 0.6883 0.2242
H43 H 0.6543 0.6860 0.2081
H44 H 0.6629 0.6754 0.2468
C27 C 0.6622(16) 0.7289(8) 0.2401(10)
C28 C 0.6390(15) 0.7516(11) 0.2235(10)
C29 C 0.6471(15) 0.7852(11) 0.2422(10)
C30 C 0.6278(15) 0.8221(11) 0.2387(10)
H45 H 0.6452 0.8370 0.2544
H46 H 0.5931 0.8225 0.2439
H47 H 0.6330 0.8301 0.2155
C31 C 1.0103(12) 0.5640(9) 0.0123(11)
H48 H 1.0192 0.5415 0.0033
H49 H 1.0143 0.5640 0.0369
H50 H 1.0313 0.5814 0.0023
C32 C 0.9584(12) 0.5715(9) 0.0036(11)
C33 C 0.9287(13) 0.5992(9) 0.0152(10)
C34 C 0.8835(12) 0.5974(8) -0.0066(10)
C35 C 0.8378(12) 0.6182(8) -0.0048(11)
H51 H 0.8432 0.6403 -0.0157
H52 H 0.8289 0.6217 0.0189
H53 H 0.8116 0.6061 -0.0165
C36 C 0.8762(13) 0.6051(10) 0.0900(12)
H54 H 0.8861 0.5942 0.1112
H55 H 0.8655 0.5877 0.0740
H56 H 0.8495 0.6210 0.0945
C37 C 0.9159(12) 0.6233(9) 0.0762(11)
C38 C 0.9374(12) 0.6249(9) 0.0397(11)
C39 C 0.9763(12) 0.6492(9) 0.0436(11)
C40 C 1.0074(14) 0.6606(10) 0.0147(11)
H57 H 1.0214 0.6830 0.0199
H58 H 0.9876 0.6622 -0.0058
H59 H 1.0335 0.6441 0.0111
C41 C 0.8251(16) 0.6883(11) 0.2082(11)
H60 H 0.8155 0.6826 0.1850
H61 H 0.7990 0.7011 0.2192
H62 H 0.8312 0.6673 0.2209
C42 C 0.8693(17) 0.7090(11) 0.2075(12)
C43 C 0.8767(17) 0.7388(11) 0.2289(12)
C44 C 0.9130(16) 0.7578(10) 0.2140(12)
C45 C 0.9394(17) 0.7919(10) 0.2251(13)
H63 H 0.9701 0.7863 0.2363
H64 H 0.9186 0.8045 0.2408
H65 H 0.9458 0.8059 0.2051
C46 C 0.7801(17) 0.7922(12) 0.2242(12)
H66 H 0.7475 0.8004 0.2300
H67 H 0.7780 0.7764 0.2051
H68 H 0.8006 0.8116 0.2179
C47 C 0.8022(17) 0.7739(11) 0.2548(12)
C48 C 0.8410(16) 0.7479(11) 0.2549(12)
C49 C 0.8479(16) 0.7394(12) 0.2897(12)
C50 C 0.8765(16) 0.7160(11) 0.3046(12)
H69 H 0.9091 0.7171 0.2948
H70 H 0.8629 0.6932 0.3010
H71 H 0.8783 0.7207 0.3290
C51 C 0.8466(14) 0.8420(10) 0.3223(11)
H72 H 0.8704 0.8235 0.3229
H73 H 0.8634 0.8640 0.3227
H74 H 0.8272 0.8402 0.3016
C52 C 0.8137(14) 0.8393(9) 0.3528(11)
C53 C 0.8223(13) 0.8471(9) 0.3862(11)
C54 C 0.7807(13) 0.8365(9) 0.4044(11)
C55 C 0.7689(14) 0.8413(10) 0.4438(10)
H75 H 0.7357 0.8498 0.4464
H76 H 0.7917 0.8577 0.4536
H77 H 0.7721 0.8193 0.4554
C56 C 0.9011(16) 0.8163(7) 0.4468(11)
H78 H 0.9182 0.8001 0.4323
H79 H 0.8688 0.8073 0.4523
H80 H 0.9195 0.8197 0.4677
C57 C 0.8745(9) 0.8995(5) 0.3956(6)
N23 N 0.9140(8) 0.9090(4) 0.4179(7)
N24 N 0.9271(8) 0.8794(5) 0.4377(6)
H81 H 0.9500 0.8784 0.4531
C58 C 0.8957(10) 0.8515(4) 0.4277(7)
C59 C 0.8632(9) 0.8640(6) 0.4017(7)
C60 C 0.8530(13) 0.9250(9) 0.3723(10)
H82 H 0.8548 0.9477 0.3825
H83 H 0.8190 0.9191 0.3680
H84 H 0.8710 0.9249 0.3509
O120 O 0.6814(10) 0.6105(6) 0.4814(7)
Co1B Co 0.95828(15) 0.95372(10) 0.42383(12)
Co1D Co 0.54172(15) 0.45372(10) 0.42383(12)
Co2B Co 0.91130(15) 0.73744(10) 0.58071(11)
Co2C Co 0.58870(15) 0.76256(10) 0.08071(11)
O43D O 0.3996(7) 0.5109(5) 0.5769(6)
O73B O 0.3414(7) 0.7850(5) 0.4278(6)
N21C N 0.4061(9) 0.7551(8) 0.3676(5)
N23B N 0.4140(8) 0.5910(4) 0.5821(7)
loop_
_geom_bond_atom_site_label_1
_geom_bond_atom_site_label_2
_geom_bond_site_symmetry_1
_geom_bond_site_symmetry_2
W1 O8 1_555 1_555
W2 O6 1_555 1_555
W3 O2 1_555 1_555
W4 O1 1_555 1_555
W5 O27 1_555 1_555
W6 O26 1_555 1_555
W7 O25 1_555 1_555
W8 O23 1_555 1_555
W9 O21 1_555 1_555
W10 O17 1_555 1_555
W11 O15 1_555 1_555
W12 O13 1_555 1_555
W13 O51 1_555 1_555
W14 O50 1_555 1_555
W15 O53 1_555 1_555
W16 O52 1_555 1_555
W17 O68 1_555 1_555
W18 O69 1_555 1_555
W19 O54 1_555 1_555
W20 O55 1_555 1_555
W21 O56 1_555 1_555
W22 O57 1_555 1_555
W23 O98 1_555 1_555
W24 O97 1_555 1_555
W25 O95 1_555 1_555
W26 O94 1_555 1_555
W27 O92 1_555 1_555
W28 O91 1_555 1_555
W29 O86 1_555 1_555
W30 O87 1_555 1_555
Co1 O3 1_555 1_555
Co2 O10 1_555 1_555
Co3 O14 1_555 1_555
Co4 O18 1_555 1_555
K1 O35 1_555 1_555
P1 O24 1_555 1_555
P2 O19 1_555 1_555
P3 O77 1_555 1_555
P4 O71 1_555 1_555
P5 O62 1_555 1_555
O2 W4 1_555 1_555
O4 W3 1_555 1_555
O5 Co1 1_555 1_555
O6 W3 1_555 1_555
O7 Co1 1_555 1_555
O8 W4 1_555 1_555
O9 W1 1_555 1_555
O11 W1 1_555 1_555
O12 W2 1_555 1_555
O13 W1 1_555 1_555
O15 W2 1_555 1_555
O16 Co3 1_555 1_555
O17 W2 1_555 1_555
O19 W1 1_555 1_555
O20 Co4 1_555 1_555
O21 W1 1_555 1_555
O22 Co4 1_555 1_555
O23 W4 1_555 1_555
O24 W3 1_555 1_555
O25 W3 1_555 1_555
O26 W3 1_555 1_555
O27 W4 1_555 1_555
O28 W5 1_555 1_555
O29 W5 1_555 1_555
O30 W6 1_555 1_555
O31 W6 1_555 1_555
O32 W5 1_555 1_555
O33 W5 1_555 1_555
O34 W8 1_555 1_555
O35 W8 1_555 1_555
O36 W7 1_555 1_555
O37 W7 1_555 1_555
O38 W7 1_555 1_555
O39 W8 1_555 1_555
O40 W9 1_555 1_555
O41 W9 1_555 1_555
O42 W10 1_555 1_555
O43 W10 1_555 1_555
O44 W10 1_555 1_555
O45 W11 1_555 1_555
O46 W9 1_555 1_555
O47 W12 1_555 1_555
O48 W11 1_555 1_555
O49 W11 1_555 1_555
O50 W11 1_555 1_555
O51 W12 1_555 1_555
O52 W9 1_555 1_555
O53 W10 1_555 1_555
O54 W7 1_555 1_555
O55 W8 1_555 1_555
O56 W5 1_555 1_555
O57 W6 1_555 1_555
O58 W22 1_555 1_555
O59 W21 1_555 1_555
O60 W21 1_555 1_555
O61 W20 1_555 1_555
O62 W21 1_555 1_555
O63 W19 1_555 1_555
O64 W19 1_555 1_555
O65 W19 1_555 1_555
O66 W20 1_555 1_555
O67 W20 1_555 1_555
O68 W20 1_555 1_555
O69 W19 1_555 1_555
O70 W18 1_555 1_555
O71 W18 1_555 1_555
O72 W17 1_555 1_555
O73 W17 1_555 1_555
O74 W16 1_555 1_555
O75 W15 1_555 1_555
O76 W15 1_555 1_555
O77 W15 1_555 1_555
O78 W16 1_555 1_555
O79 W16 1_555 1_555
O80 W13 1_555 1_555
O81 W13 1_555 1_555
O82 W14 1_555 1_555
O83 W14 1_555 1_555
O84 W13 1_555 1_555
O85 W13 1_555 1_555
O86 W13 1_555 1_555
O87 W14 1_555 1_555
O88 W15 1_555 1_555
O89 W29 1_555 1_555
O90 W16 1_555 1_555
O91 W17 1_555 1_555
O92 W28 1_555 1_555
O93 W18 1_555 1_555
O94 W18 1_555 1_555
O95 W26 1_555 1_555
O96 W17 1_555 1_555
O97 W20 1_555 1_555
O98 W24 1_555 1_555
O99 W19 1_555 1_555
O100 W22 1_555 1_555
O101 W21 1_555 1_555
O102 W24 1_555 1_555
O103 W23 1_555 1_555
O104 W23 1_555 1_555
O105 W23 1_555 1_555
O106 W24 1_555 1_555
O107 W25 1_555 1_555
O108 W25 1_555 1_555
O109 W26 1_555 1_555
O110 W26 1_555 1_555
O111 W25 1_555 1_555
O112 W28 1_555 1_555
O113 W27 1_555 1_555
O114 W27 1_555 1_555
O115 W27 1_555 1_555
O116 W28 1_555 1_555
O117 W29 1_555 1_555
O118 W29 1_555 1_555
O119 W30 1_555 1_555
N1 H1 1_555 1_555
N2 N1 1_555 1_555
N3 H2 1_555 1_555
N4 Co2 1_555 1_555
N5 Co2 1_555 1_555
N6 N5 1_555 1_555
H3 N6 1_555 1_555
C1 N6 1_555 1_555
C2 C1 1_555 1_555
C3 N5 1_555 1_555
N7 H4 1_555 1_555
N8 Co3 1_555 1_555
N9 N10 1_555 1_555
N10 H5 1_555 1_555
N11 Co4 1_555 1_555
N12 N11 1_555 1_555
H6 N12 1_555 1_555
N13 H7 1_555 1_555
N14 Co4 1_555 1_555
N15 Co3 1_555 1_555
N16 N15 1_555 1_555
H8 N16 1_555 1_555
N17 H9 1_555 1_555
N18 Co3 1_555 1_555
C4 H10 1_555 1_555
H11 C4 1_555 1_555
H12 C4 1_555 1_555
C5 N1 1_555 1_555
C6 C5 1_555 1_555
C7 N2 1_555 1_555
C8 C7 1_555 1_555
H13 C8 1_555 1_555
H14 C8 1_555 1_555
H15 C8 1_555 1_555
C9 H16 1_555 1_555
H17 C9 1_555 1_555
H18 C9 1_555 1_555
C10 N3 1_555 1_555
C11 C6 1_555 1_555
C12 N4 1_555 1_555
C13 C12 1_555 1_555
H19 C13 1_555 1_555
H20 C13 1_555 1_555
H21 C13 1_555 1_555
C14 C1 1_555 1_555
H22 C14 1_555 1_555
H23 C14 1_555 1_555
H24 C14 1_555 1_555
C15 C3 1_555 1_555
H25 C15 1_555 1_555
H26 C15 1_555 1_555
H27 C15 1_555 1_555
C16 H28 1_555 1_555
H29 C16 1_555 1_555
H30 C16 1_555 1_555
C17 C18 1_555 1_555
C18 C2 1_555 1_555
C19 C16 1_555 1_555
N19 C19 1_555 1_555
N20 C17 1_555 1_555
H31 N20 1_555 1_555
C20 C17 1_555 1_555
H32 C20 1_555 1_555
H33 C20 1_555 1_555
H34 C20 1_555 1_555
C21 H35 1_555 1_555
H36 C21 1_555 1_555
H37 C21 1_555 1_555
C22 C23 1_555 1_555
C23 N21 1_555 1_555
N21 N22 1_555 1_555
N22 H38 1_555 1_555
C24 C21 1_555 1_555
C25 C23 1_555 1_555
H39 C25 1_555 1_555
H40 C25 1_555 1_555
H41 C25 1_555 1_555
C26 H42 1_555 1_555
H43 C26 1_555 1_555
H44 C26 1_555 1_555
C27 N7 1_555 1_555
C28 C22 1_555 1_555
C29 N8 1_555 1_555
C30 C29 1_555 1_555
H45 C30 1_555 1_555
H46 C30 1_555 1_555
H47 C30 1_555 1_555
C31 H48 1_555 1_555
H49 C31 1_555 1_555
H50 C31 1_555 1_555
C32 N9 1_555 1_555
C33 C32 1_555 1_555
C34 N10 1_555 1_555
C35 C34 1_555 1_555
H51 C35 1_555 1_555
H52 C35 1_555 1_555
H53 C35 1_555 1_555
C36 H54 1_555 1_555
H55 C36 1_555 1_555
H56 C36 1_555 1_555
C37 N11 1_555 1_555
C38 C33 1_555 1_555
C39 N12 1_555 1_555
C40 C39 1_555 1_555
H57 C40 1_555 1_555
H58 C40 1_555 1_555
H59 C40 1_555 1_555
C41 H60 1_555 1_555
H61 C41 1_555 1_555
H62 C41 1_555 1_555
C42 N14 1_555 1_555
C43 C42 1_555 1_555
C44 N13 1_555 1_555
C45 C44 1_555 1_555
H63 C45 1_555 1_555
H64 C45 1_555 1_555
H65 C45 1_555 1_555
C46 H66 1_555 1_555
H67 C46 1_555 1_555
H68 C46 1_555 1_555
C47 N15 1_555 1_555
C48 C43 1_555 1_555
C49 N16 1_555 1_555
C50 C49 1_555 1_555
H69 C50 1_555 1_555
H70 C50 1_555 1_555
H71 C50 1_555 1_555
C51 H72 1_555 1_555
H73 C51 1_555 1_555
H74 C51 1_555 1_555
C52 N18 1_555 1_555
C53 C52 1_555 1_555
C54 N17 1_555 1_555
C55 C54 1_555 1_555
H75 C55 1_555 1_555
H76 C55 1_555 1_555
H77 C55 1_555 1_555
C56 H78 1_555 1_555
H79 C56 1_555 1_555
H80 C56 1_555 1_555
C57 N23 1_555 1_555
N23 N24 1_555 1_555
N24 H81 1_555 1_555
C58 C56 1_555 1_555
C59 C53 1_555 1_555
C60 C57 1_555 1_555
H82 C60 1_555 1_555
H83 C60 1_555 1_555
H84 C60 1_555 1_555
O120 K1 1_555 1_555
Co1B N23 1_555 1_555
Co1D O43 1_555 1_555
Co2B O73 1_555 1_555
Co2C N21 1_555 1_555
O43D Co1 1_555 1_555
O73B Co2 1_555 1_555
N21C Co2 1_555 1_555
N23B Co1 1_555 1_555
W2 O11 1_555 1_555
W2 O19 1_555 1_555
W4 O24 1_555 1_555
W6 O29 1_555 1_555
W6 O32 1_555 1_555
W7 O31 1_555 1_555
W8 O33 1_555 1_555
W9 O39 1_555 1_555
W10 O38 1_555 1_555
W11 O44 1_555 1_555
W12 O45 1_555 1_555
W12 O46 1_555 1_555
W12 O48 1_555 1_555
W14 O81 1_555 1_555
W14 O84 1_555 1_555
W15 O82 1_555 1_555
W16 O80 1_555 1_555
W17 O74 1_555 1_555
W18 O75 1_555 1_555
W21 O61 1_555 1_555
W22 O59 1_555 1_555
W22 O62 1_555 1_555
W22 O63 1_555 1_555
W23 O99 1_555 1_555
W23 O100 1_555 1_555
W24 O101 1_555 1_555
W24 O103 1_555 1_555
W25 O96 1_555 1_555
W25 O106 1_555 1_555
W26 O105 1_555 1_555
W26 O108 1_555 1_555
W27 O93 1_555 1_555
W27 O110 1_555 1_555
W28 O111 1_555 1_555
W28 O113 1_555 1_555
W29 O90 1_555 1_555
W29 O116 1_555 1_555
W30 O88 1_555 1_555
W30 O89 1_555 1_555
W30 O115 1_555 1_555
W30 O118 1_555 1_555
Co1 O70 1_555 1_555
Co2 O58 1_555 1_555
Co3 O28 1_555 1_555
K1 O39 1_555 1_555
K1 O41 1_555 1_555
K1 O52 1_555 1_555
K1 O55 1_555 1_555
K1 O66 1_555 1_555
K1 O68 1_555 1_555
K1 O72 1_555 1_555
K1 O74 1_555 1_555
K1 O78 1_555 1_555
P1 O32 1_555 1_555
P1 O35 1_555 1_555
P1 O36 1_555 1_555
P2 O41 1_555 1_555
P2 O42 1_555 1_555
P2 O45 1_555 1_555
P3 O78 1_555 1_555
P3 O81 1_555 1_555
P3 O89 1_555 1_555
P4 O72 1_555 1_555
P4 O92 1_555 1_555
P4 O95 1_555 1_555
P5 O65 1_555 1_555
P5 O66 1_555 1_555
P5 O98 1_555 1_555
N3 N4 1_555 1_555
C2 C3 1_555 1_555
N7 N8 1_555 1_555
N13 N14 1_555 1_555
N17 N18 1_555 1_555
C4 C5 1_555 1_555
C6 C7 1_555 1_555
C9 C10 1_555 1_555
C10 C11 1_555 1_555
C11 C12 1_555 1_555
C18 C19 1_555 1_555
N19 N20 1_555 1_555
C22 C24 1_555 1_555
N22 C24 1_555 1_555
C26 C27 1_555 1_555
C27 C28 1_555 1_555
C28 C29 1_555 1_555
C31 C32 1_555 1_555
C33 C34 1_555 1_555
C36 C37 1_555 1_555
C37 C38 1_555 1_555
C38 C39 1_555 1_555
C41 C42 1_555 1_555
C43 C44 1_555 1_555
C46 C47 1_555 1_555
C47 C48 1_555 1_555
C48 C49 1_555 1_555
C51 C52 1_555 1_555
C53 C54 1_555 1_555
C57 C59 1_555 1_555
N24 C58 1_555 1_555
C58 C59 1_555 1_555

#END
