
#######################################################################
#
#                 Cambridge Crystallographic Data Centre
#                                CCDC 
#
#######################################################################
#
# If this CIF has been generated from an entry in the Cambridge 
# Structural Database, then it will include bibliographic, chemical, 
# crystal, experimental, refinement or atomic coordinate data resulting 
# from the CCDC's data processing and validation procedures.
#
#######################################################################

data_CODFUX
_chemical_formula_moiety         '(Al1 O4 P1 1-)n'
_symmetry_cell_setting           orthorhombic
_symmetry_space_group_name_H-M   'F d d d'
_symmetry_Int_Tables_number      70
_space_group_name_Hall           '-F 2uv 2vw'
loop_
_symmetry_equiv_pos_site_id
_symmetry_equiv_pos_as_xyz
1 x,y,z
2 1/4-x,1/4-y,z
3 x,1/4-y,1/4-z
4 1/4-x,y,1/4-z
5 x,1/2+y,1/2+z
6 1/4-x,3/4-y,1/2+z
7 x,3/4-y,3/4-z
8 1/4-x,1/2+y,3/4-z
9 1/2+x,y,1/2+z
10 3/4-x,1/4-y,1/2+z
11 1/2+x,1/4-y,3/4-z
12 3/4-x,y,3/4-z
13 1/2+x,1/2+y,z
14 3/4-x,3/4-y,z
15 1/2+x,3/4-y,1/4-z
16 3/4-x,1/2+y,1/4-z
17 -x,-y,-z
18 3/4+x,3/4+y,-z
19 -x,3/4+y,3/4+z
20 3/4+x,-y,3/4+z
21 -x,1/2-y,1/2-z
22 3/4+x,1/4+y,1/2-z
23 -x,1/4+y,1/4+z
24 3/4+x,1/2-y,1/4+z
25 1/2-x,-y,1/2-z
26 1/4+x,3/4+y,1/2-z
27 1/2-x,3/4+y,1/4+z
28 1/4+x,-y,1/4+z
29 1/2-x,1/2-y,-z
30 1/4+x,1/4+y,-z
31 1/2-x,1/4+y,3/4+z
32 1/4+x,1/2-y,3/4+z
_cell_length_a                   10.022
_cell_length_b                   14.335
_cell_length_c                   14.636
_cell_angle_alpha                90
_cell_angle_beta                 90
_cell_angle_gamma                90
_cell_volume                     2102.69
loop_
_atom_site_label
_atom_site_type_symbol
_atom_site_fract_x
_atom_site_fract_y
_atom_site_fract_z
P1 P 0.8750 0.0328(1) 0.3750
Al1 Al 0.8750 -0.1250 0.5237(1)
O1 O 0.8296(4) -0.0279(2) 0.4545(2)
O2 O 0.7605(4) 0.0950(3) 0.3433(3)
Al1S Al 0.6250 0.1250 0.2737(1)
Al1F Al 0.8750 -0.1250 0.2263(1)
Al1P Al 1.1250 0.1250 0.4763(1)
O1K O 0.9204(4) -0.0279(2) 0.2955(2)
O1M O 0.9204(4) -0.2221(2) 0.4545(2)
O2K O 0.9895(4) 0.0950(3) 0.4067(3)
O2Z O 0.7395(4) -0.1550(3) 0.5933(3)
O2AA O 1.0105(4) -0.0950(3) 0.5933(3)
loop_
_geom_bond_atom_site_label_1
_geom_bond_atom_site_label_2
_geom_bond_site_symmetry_1
_geom_bond_site_symmetry_2
P1 O1 1_555 1_555
Al1 O1 1_555 1_555
O2 P1 1_555 1_555
Al1S O2 1_555 1_555
Al1F O1K 1_555 1_555
Al1P O2K 1_555 1_555
O1K P1 1_555 1_555
O1M Al1 1_555 1_555
O2K P1 1_555 1_555
O2Z Al1 1_555 1_555
O2AA Al1 1_555 1_555

#END
