
#######################################################################
#
#                 Cambridge Crystallographic Data Centre
#                                CCDC 
#
#######################################################################
#
# If this CIF has been generated from an entry in the Cambridge 
# Structural Database, then it will include bibliographic, chemical, 
# crystal, experimental, refinement or atomic coordinate data resulting 
# from the CCDC's data processing and validation procedures.
#
#######################################################################

data_CODGAE
_chemical_formula_moiety         '(C6 H2 Al6 N3 O25 P6 1-)n'
_symmetry_cell_setting           rhombohedral
_symmetry_space_group_name_H-M   'R -3'
_symmetry_Int_Tables_number      148
_space_group_name_Hall           '-R 3'
loop_
_symmetry_equiv_pos_site_id
_symmetry_equiv_pos_as_xyz
1 x,y,z
2 -y,x-y,z
3 -x+y,-x,z
4 1/3+x,2/3+y,2/3+z
5 1/3-y,2/3+x-y,2/3+z
6 1/3-x+y,2/3-x,2/3+z
7 2/3+x,1/3+y,1/3+z
8 2/3-y,1/3+x-y,1/3+z
9 2/3-x+y,1/3-x,1/3+z
10 -x,-y,-z
11 y,-x+y,-z
12 x-y,x,-z
13 2/3-x,1/3-y,1/3-z
14 2/3+y,1/3-x+y,1/3-z
15 2/3+x-y,1/3+x,1/3-z
16 1/3-x,2/3-y,2/3-z
17 1/3+y,2/3-x+y,2/3-z
18 1/3+x-y,2/3+x,2/3-z
_cell_length_a                   13.709
_cell_length_b                   13.709
_cell_length_c                   15.436
_cell_angle_alpha                90
_cell_angle_beta                 90
_cell_angle_gamma                120
_cell_volume                     2512.33
loop_
_atom_site_label
_atom_site_type_symbol
_atom_site_fract_x
_atom_site_fract_y
_atom_site_fract_z
N1 N 0.1306(16) -0.1221(16) 0.3444(16)
C1 C 0.0642(8) -0.0564(9) 0.3589(9)
C2 C -0.0572(10) -0.1231(10) 0.3443(11)
N1B N -0.2527(23) -0.1306(16) 0.3444(16)
N1A N 0.1221(16) 0.2527(23) 0.3444(16)
C1B C -0.1206(12) -0.0642(8) 0.3589(9)
C1A C 0.0564(9) 0.1206(12) 0.3589(9)
C2B C -0.0659(14) 0.0572(10) 0.3443(11)
C2A C 0.1231(10) 0.0659(14) 0.3443(11)
O5 O 0.6667 0.3333 0.3333
Al1 Al 0.4295(1) 0.1034(1) 0.2387(1)
P1 P 0.6583(1) 0.0961(1) 0.2273(1)
O1 O 0.5480(4) 0.0899(4) 0.2077(3)
O2 O 0.7526(4) 0.2162(4) 0.2203(3)
O3 O 0.6563(4) 0.0500(4) 0.3177(3)
O4 O 0.6724(4) 0.0225(4) 0.1619(3)
Al1B Al 0.6739(1) 0.5705(1) 0.2387(1)
Al1P Al 0.4367(1) 0.3406(1) 0.4280(1)
Al1N Al -0.0072(1) -0.2372(1) 0.0946(1)
Al1A Al 0.8966(1) 0.3261(1) 0.2387(1)
Al1Q Al 0.6594(1) 0.0962(1) 0.4280(1)
Al1M Al 0.7701(1) 0.0072(1) 0.0946(1)
Al1L Al 0.2372(1) 0.2299(1) 0.0946(1)
Al1H Al 0.3406(1) -0.0962(1) 0.5720(1)
Al1D Al 0.2299(1) -0.0072(1) -0.0946(1)
Al1O Al 0.9038(1) 0.5633(1) 0.4280(1)
Al1N_2 Al 0.9928(1) 0.7628(1) 0.0946(1)
Al1G Al 0.5633(1) 0.6594(1) 0.5720(1)
P1B P 0.4378(1) 0.3417(1) 0.2273(1)
P1P P 0.4294(1) 0.1045(1) 0.4394(1)
P1N P 0.2289(1) -0.0084(1) 0.1060(1)
P1A P 0.9039(1) 0.5622(1) 0.2273(1)
P1O P 0.6750(1) 0.5706(1) 0.4394(1)
O1B O 0.5419(6) 0.4520(4) 0.2077(3)
O1P O 0.4232(4) 0.2086(6) 0.4590(3)
O1N O 0.1248(6) -0.1187(4) 0.1256(3)
O1A O 0.9101(4) 0.4581(6) 0.2077(3)
O1O O 0.7853(4) 0.5768(4) 0.4590(3)
O1Q O 0.7914(6) 0.2147(4) 0.4590(3)
O2B O 0.4636(6) 0.2474(4) 0.2203(3)
O2P O 0.5495(4) 0.1303(6) 0.4464(3)
O2N O 0.2031(6) 0.0859(4) 0.1130(3)
O2A O 0.7838(4) 0.5364(6) 0.2203(3)
O2O O 0.5807(4) 0.4505(4) 0.4464(3)
O2M O -0.1171(4) -0.2031(6) 0.1130(3)
O3B O 0.3937(6) 0.3437(4) 0.3177(3)
O3P O 0.3833(4) 0.0604(6) 0.3490(3)
O3N O 0.2730(6) -0.0104(4) 0.0156(3)
O3A O 0.9500(4) 0.6063(6) 0.3177(3)
O3O O 0.6770(4) 0.6167(4) 0.3490(3)
O3C O -0.0104(4) -0.2833(4) -0.0156(3)
O3Q O 0.9396(6) 0.3230(4) 0.3490(3)
O4B O 0.3501(6) 0.3276(4) 0.1619(3)
O4P O 0.3558(4) 0.0168(6) 0.5048(3)
O4N O 0.3166(6) 0.0057(4) 0.1714(3)
O4A O 0.9775(4) 0.6499(6) 0.1619(3)
O4O O 0.6609(4) 0.6442(4) 0.5048(3)
O4M O 0.6892(4) 0.6834(6) 0.1714(3)
O4F O 0.3391(4) 0.3558(4) 0.4952(3)
O4A_2 O -0.0225(4) -0.3501(6) 0.1619(3)
O4L O 0.9943(4) 0.3108(4) 0.1714(3)
O4G O 0.6442(4) -0.0168(6) 0.4952(3)
loop_
_geom_bond_atom_site_label_1
_geom_bond_atom_site_label_2
_geom_bond_site_symmetry_1
_geom_bond_site_symmetry_2
Al1 O1 1_555 1_555
P1 O1 1_555 1_555
O2 P1 1_555 1_555
O3 P1 1_555 1_555
O4 P1 1_555 1_555
N1 C1 1_555 1_555
C1 C2 1_555 1_555
C2 C1B 1_555 1_555
Al1B O1B 1_555 1_555
Al1P O1P 1_555 1_555
Al1N O1N 1_555 1_555
Al1A O2 1_555 1_555
Al1Q O3 1_555 1_555
Al1M O4 1_555 1_555
Al1L O2N 1_555 1_555
Al1H O4P 1_555 1_555
Al1D O3N 1_555 1_555
Al1O O1O 1_555 1_555
Al1N_2 O4A 1_555 1_555
Al1G O4O 1_555 1_555
P1B O1B 1_555 1_555
P1P O1P 1_555 1_555
P1N O1N 1_555 1_555
P1A O1A 1_555 1_555
P1O O1O 1_555 1_555
O1A Al1A 1_555 1_555
O1Q Al1Q 1_555 1_555
O2B Al1 1_555 1_555
O2P Al1Q 1_555 1_555
O2N P1N 1_555 1_555
O2A Al1B 1_555 1_555
O2O Al1P 1_555 1_555
O2M Al1N 1_555 1_555
O3B Al1P 1_555 1_555
O3P Al1 1_555 1_555
O3N P1N 1_555 1_555
O3A Al1O 1_555 1_555
O3O Al1B 1_555 1_555
O3C Al1N 1_555 1_555
O3Q Al1A 1_555 1_555
O4B Al1L 1_555 1_555
O4P P1P 1_555 1_555
O4N Al1 1_555 1_555
O4A P1A 1_555 1_555
O4O P1O 1_555 1_555
O4M Al1B 1_555 1_555
O4F Al1P 1_555 1_555
O4A_2 Al1N 1_555 1_555
O4L Al1A 1_555 1_555
O4G Al1Q 1_555 1_555
N1B C1B 1_555 1_555
N1A C1A 1_555 1_555
C1B C2B 1_555 1_555
C1A C2B 1_555 1_555
C2A C1 1_555 1_555
P1B O2B 1_555 1_555
P1B O3B 1_555 1_555
P1B O4B 1_555 1_555
P1P O2P 1_555 1_555
P1P O3P 1_555 1_555
P1N O4N 1_555 1_555
P1A O2A 1_555 1_555
P1A O3A 1_555 1_555
P1O O2O 1_555 1_555
P1O O3O 1_555 1_555
C1A C2A 1_555 1_555

#END
