
#######################################################################
#
#                 Cambridge Crystallographic Data Centre
#                                CCDC 
#
#######################################################################
#
# If this CIF has been generated from an entry in the Cambridge 
# Structural Database, then it will include bibliographic, chemical, 
# crystal, experimental, refinement or atomic coordinate data resulting 
# from the CCDC's data processing and validation procedures.
#
#######################################################################

data_RIFQEC
_chemical_formula_moiety         '(C10 H14 Ce4 O29)n'
_symmetry_cell_setting           triclinic
_symmetry_space_group_name_H-M   'P -1'
_symmetry_Int_Tables_number      2
_space_group_name_Hall           '-P 1'
loop_
_symmetry_equiv_pos_site_id
_symmetry_equiv_pos_as_xyz
1 x,y,z
2 -x,-y,-z
_cell_length_a                   6.329(2)
_cell_length_b                   8.743(2)
_cell_length_c                   13.000(4)
_cell_angle_alpha                105.61(4)
_cell_angle_beta                 90.55(4)
_cell_angle_gamma                105.10(4)
_cell_volume                     666.433
loop_
_atom_site_label
_atom_site_type_symbol
_atom_site_fract_x
_atom_site_fract_y
_atom_site_fract_z
Ce1 Ce 0.06026(3) 0.03013(2) 0.25725(2)
Ce2 Ce 0.30963(3) 0.66699(2) 0.07528(2)
O1 O 0.2649(5) 0.3183(4) 0.2837(2)
O2 O 0.3358(5) 0.5412(4) 0.2240(3)
O3 O -0.0551(5) 0.1616(4) 0.1261(2)
O4 O 0.0073(5) 0.3865(3) 0.0675(2)
O5 O 0.4806(5) 0.2015(3) 0.0555(2)
O6 O 0.3290(5) -0.0283(3) 0.1030(2)
O7 O 0.1857(6) 0.1479(5) 0.4542(2)
O8 O 0.1418(7) 0.1282(5) 0.6209(3)
O9 O -0.3381(4) -0.4307(3) 0.0761(2)
O10 O -0.0130(4) -0.2690(3) 0.1601(2)
O11 O -0.2969(5) -0.1693(3) 0.1602(2)
O12 O 0.3607(5) -0.1029(4) 0.2936(3)
O13 O -0.2322(6) 0.1710(5) 0.3379(3)
C1 C 0.2326(6) 0.3961(5) 0.2191(3)
C2 C 0.0443(6) 0.3057(5) 0.1295(3)
C3 C 0.4460(6) 0.0512(5) 0.0455(3)
C4 C 0.0937(8) 0.0805(7) 0.5216(3)
C5 C -0.2146(6) -0.2920(4) 0.1310(3)
C3A C 0.5540(6) -0.0512(5) -0.0455(3)
O5A O 0.5194(5) -0.2015(3) -0.0555(2)
O6A O 0.6710(5) 0.0283(3) -0.1030(2)
C4A C -0.0937(8) -0.0805(7) 0.4784(3)
O7A O -0.1857(6) -0.1479(5) 0.5458(2)
O8A O -0.1418(7) -0.1282(5) 0.3791(3)
Ce1A Ce 0.93974(3) -0.03013(2) -0.25725(2)
Ce2A Ce -0.30963(3) 0.33301(2) -0.07528(2)
O1A O -0.2649(5) 0.6817(4) -0.2837(2)
O2A O -0.3358(5) 0.4588(4) -0.2240(3)
O3A O 0.0551(5) 0.8384(4) -0.1261(2)
O4A O -0.0073(5) 0.6135(3) -0.0675(2)
C1A C -0.2326(6) 0.6039(5) -0.2191(3)
C2A C -0.0443(6) 0.6943(5) -0.1295(3)
O9_2 O 0.6619(4) 0.5693(3) 0.0761(2)
O10_2 O 0.9870(4) 0.7310(3) 0.1601(2)
O11_2 O 0.7031(5) 0.8307(3) 0.1602(2)
C5_2 C 0.7854(6) 0.7080(4) 0.1310(3)
O12_2 O 0.3607(5) 0.8971(4) 0.2936(3)
O13A O 1.2322(6) -0.1710(5) -0.3379(3)
O5A_2 O 0.5194(5) 0.7985(3) -0.0555(2)
O6_2 O 0.3290(5) 0.9717(3) 0.1030(2)
O9A O 0.3381(4) 0.4307(3) -0.0761(2)
O10_3 O -0.0130(4) 0.7310(3) 0.1601(2)
Ce2A_2 Ce 0.69037(3) 0.33301(2) -0.07528(2)
Ce2_2 Ce 0.30963(3) -0.33301(2) 0.07528(2)
Ce1A_2 Ce -0.06026(3) -0.03013(2) 0.74275(2)
Ce2_3 Ce -0.69037(3) -0.33301(2) 0.07528(2)
Ce2A_3 Ce -0.30963(3) -0.66699(2) -0.07528(2)
O1A_2 O 0.7351(5) -0.3183(4) -0.2837(2)
O3A_2 O 1.0551(5) -0.1616(4) -0.1261(2)
O7A_2 O 0.8143(6) -0.1479(5) -0.4542(2)
O8_2 O 1.1418(7) 0.1282(5) -0.3791(3)
O10A O 1.0130(4) 0.2690(3) -0.1601(2)
O11A O 1.2969(5) 0.1693(3) -0.1602(2)
O12A O 0.6393(5) 0.1029(4) -0.2936(3)
O5_2 O -0.5194(5) 0.2015(3) 0.0555(2)
O6A_2 O -0.3290(5) 0.0283(3) -0.1030(2)
O9_3 O -0.3381(4) 0.5693(3) 0.0761(2)
O9A_2 O -0.6619(4) 0.4307(3) -0.0761(2)
O10A_2 O 0.0130(4) 0.2690(3) -0.1601(2)
O11A_2 O -0.7031(5) 0.1693(3) -0.1602(2)
O12A_2 O -0.3607(5) 0.1029(4) -0.2936(3)
Ce1A_3 Ce -0.06026(3) 0.96987(2) -0.25725(2)
Ce1_2 Ce 1.06026(3) 1.03013(2) 0.25725(2)
Ce2_4 Ce 1.30963(3) 0.66699(2) 0.07528(2)
Ce1_3 Ce 0.06026(3) 1.03013(2) 0.25725(2)
O14 O 0.7775(8) 0.4766(6) 0.3072(5)
O15 O -0.357(1) 0.258(1) 0.5433(6)
loop_
_geom_bond_atom_site_label_1
_geom_bond_atom_site_label_2
_geom_bond_site_symmetry_1
_geom_bond_site_symmetry_2
Ce1 O1 1_555 1_555
Ce2 O2 1_555 1_555
O1 C1 1_555 1_555
O2 C1 1_555 1_555
O3 Ce1 1_555 1_555
O4 Ce2 1_555 1_555
O5 C3 1_555 1_555
O6 Ce1 1_555 1_555
O7 Ce1 1_555 1_555
O8 C4 1_555 1_555
O9 C5 1_555 1_555
O10 Ce1 1_555 1_555
O11 Ce1 1_555 1_555
O12 Ce1 1_555 1_555
O13 Ce1 1_555 1_555
C1 C2 1_555 1_555
C2 O3 1_555 1_555
C3 O6 1_555 1_555
C4 O7 1_555 1_555
C5 O10 1_555 1_555
C3A C3 1_555 1_555
O5A C3A 1_555 1_555
O6A C3A 1_555 1_555
C4A C4 1_555 1_555
O7A C4A 1_555 1_555
O8A Ce1 1_555 1_555
Ce1A O6A 1_555 1_555
Ce2A O4 1_555 1_555
O1A C1A 1_555 1_555
O2A Ce2A 1_555 1_555
O3A C2A 1_555 1_555
O4A Ce2 1_555 1_555
C1A O2A 1_555 1_555
C2A O4A 1_555 1_555
O9_2 Ce2 1_555 1_555
O10_2 C5_2 1_555 1_555
O11_2 Ce2 1_555 1_555
C5_2 O9_2 1_555 1_555
O12_2 Ce2 1_555 1_555
O13A Ce1A 1_555 1_555
O5A_2 Ce2 1_555 1_555
O6_2 Ce2 1_555 1_555
O9A Ce2 1_555 1_555
O10_3 Ce2 1_555 1_555
Ce2A_2 O5 1_555 1_555
Ce2_2 O6 1_555 1_555
Ce1A_2 O8 1_555 1_555
Ce2_3 O9 1_555 1_555
Ce2A_3 O9 1_555 1_555
O1A_2 Ce1A 1_555 1_555
O3A_2 Ce1A 1_555 1_555
O7A_2 Ce1A 1_555 1_555
O8_2 Ce1A 1_555 1_555
O10A Ce1A 1_555 1_555
O11A Ce1A 1_555 1_555
O12A Ce1A 1_555 1_555
O5_2 Ce2A 1_555 1_555
O6A_2 Ce2A 1_555 1_555
O9_3 Ce2A 1_555 1_555
O9A_2 Ce2A 1_555 1_555
O10A_2 Ce2A 1_555 1_555
O11A_2 Ce2A 1_555 1_555
O12A_2 Ce2A 1_555 1_555
Ce1A_3 O1A 1_555 1_555
Ce1_2 O10_2 1_555 1_555
Ce2_4 O10_2 1_555 1_555
Ce1_3 O12_2 1_555 1_555
O4 C2 1_555 1_555
O10 Ce2_2 1_555 1_555
O11 C5 1_555 1_555
O11 Ce2_3 1_555 1_555
O12 Ce2_2 1_555 1_555
O5A Ce2_2 1_555 1_555
O6A Ce2A_2 1_555 1_555
C4A O8A 1_555 1_555
O7A Ce1A_2 1_555 1_555
Ce2A O4A 1_555 1_555
O3A Ce1A_3 1_555 1_555
C1A C2A 1_555 1_555
O9_2 Ce2A_2 1_555 1_555
O11_2 C5_2 1_555 1_555
O11_2 Ce1_2 1_555 1_555
O6_2 Ce1_3 1_555 1_555
O9A Ce2A_2 1_555 1_555
O10_3 Ce1_3 1_555 1_555
Ce2A_2 O10A 1_555 1_555
Ce2A_2 O12A 1_555 1_555

#END
