
#######################################################################
#
#                 Cambridge Crystallographic Data Centre
#                                CCDC 
#
#######################################################################
#
# If this CIF has been generated from an entry in the Cambridge 
# Structural Database, then it will include bibliographic, chemical, 
# crystal, experimental, refinement or atomic coordinate data resulting 
# from the CCDC's data processing and validation procedures.
#
#######################################################################

data_ZEFVOX
_chemical_formula_moiety         '(C40 H26 Co3 N8 Nd2 O29)n'
_symmetry_cell_setting           monoclinic
_symmetry_space_group_name_H-M   'P 21/c'
_symmetry_Int_Tables_number      14
_space_group_name_Hall           '-P 2ybc'
loop_
_symmetry_equiv_pos_site_id
_symmetry_equiv_pos_as_xyz
1 x,y,z
2 -x,1/2+y,1/2-z
3 -x,-y,-z
4 x,1/2-y,1/2+z
_cell_length_a                   10.467(2)
_cell_length_b                   7.6374(15)
_cell_length_c                   30.492(6)
_cell_angle_alpha                90
_cell_angle_beta                 99.05(3)
_cell_angle_gamma                90
_cell_volume                     2407.21
loop_
_atom_site_label
_atom_site_type_symbol
_atom_site_fract_x
_atom_site_fract_y
_atom_site_fract_z
C1 C 0.2099(3) 0.0296(4) 0.95539(10)
C2 C 0.1049(3) -0.0677(4) 0.92279(10)
C3 C 0.4447(3) -0.1507(3) 1.13905(9)
C4 C 0.3270(3) -0.2552(3) 1.12091(9)
C5 C 0.2353(3) -0.1745(4) 1.08958(10)
H1 H 0.2435 -0.0552 1.0817
C6 C 0.1313(3) -0.2751(4) 1.07027(10)
C7 C 0.1178(3) -0.4495(4) 1.08353(10)
C8 C 0.2095(3) -0.5319(4) 1.11414(10)
H2 H 0.2003 -0.6509 1.1222
C9 C 0.3155(3) -0.4332(4) 1.13256(9)
C10 C 0.4151(3) -0.5135(4) 1.16680(9)
C11 C -0.0475(3) -0.3716(4) 1.03390(12)
H3 H -0.1272 -0.3781 1.0142
C12 C -0.2622(3) 0.5017(3) 0.73304(10)
C13 C -0.1579(2) 0.4399(3) 0.76958(9)
C14 C -0.0668(3) 0.5604(3) 0.78848(10)
H4 H -0.0777 0.6823 0.7830
C15 C 0.0414(3) 0.4948(4) 0.81588(10)
C16 C 0.0606(3) 0.3148(4) 0.82443(10)
C17 C -0.0346(3) 0.1958(3) 0.80720(10)
H5 H -0.0251 0.0746 0.8139
C18 C -0.1432(2) 0.2581(3) 0.78016(9)
C19 C -0.2486(3) 0.1313(3) 0.76512(10)
C20 C 0.2286(3) 0.4479(4) 0.85846(12)
H6 H 0.3105 0.4706 0.8758
Co1 Co 0.0000 -0.0000 1.0000
Co2 Co 0.28631(4) 0.05381(5) 0.869886(13)
N1 N 0.0269(2) -0.2314(3) 1.03826(9)
N2 N 0.0011(3) -0.5039(3) 1.06023(10)
H7 H -0.0351 -0.6070 1.0623
N3 N 0.1799(2) 0.2897(3) 0.85131(9)
N4 N 0.1500(3) 0.5748(3) 0.83856(10)
H8 H 0.1654 0.6881 0.8399
Nd1 Nd 0.448210(13) 0.128180(17) 1.231900(5)
O1 O 0.0097(2) -0.1285(3) 0.93881(8)
O2 O 0.1969(2) 0.0358(3) 0.99567(7)
O3 O 0.1222(2) -0.0803(3) 0.88354(7)
O4 O 0.3004(2) 0.0946(3) 0.93879(8)
O5 O 0.54492(19) -0.1862(3) 1.12284(7)
O6 O 0.4344(2) -0.0292(3) 1.16553(7)
O7 O 0.4913(2) -0.4138(3) 1.19113(7)
O8 O 0.4170(2) -0.6789(3) 1.16977(7)
O9 O -0.2474(2) 0.4607(3) 0.69491(7)
O10 O -0.35833(18) 0.5899(3) 0.74277(7)
O11 O -0.36292(18) 0.1854(2) 0.75048(7)
O12 O -0.22682(19) -0.0313(3) 0.76907(8)
O13 O 0.3927(2) -0.1906(3) 0.88531(8)
H9 H 0.4355 -0.1966 0.9112
H10 H 0.4443 -0.2161 0.8674
C1B C -0.2099(3) -0.0296(4) 1.04461(10)
C2B C -0.1049(3) 0.0677(4) 1.07721(10)
C3B C -0.4447(3) 0.1507(3) 0.86095(9)
C4B C -0.3270(3) 0.2552(3) 0.87909(9)
C5B C -0.2353(3) 0.1745(4) 0.91042(10)
H1B H -0.2435 0.0552 0.9183
C6B C -0.1313(3) 0.2751(4) 0.92973(10)
C7B C -0.1178(3) 0.4495(4) 0.91647(10)
C8B C -0.2095(3) 0.5319(4) 0.88586(10)
H2B H -0.2003 0.6509 0.8778
C9B C -0.3155(3) 0.4332(4) 0.86744(9)
C10B C -0.4151(3) 0.5135(4) 0.83320(9)
C11B C 0.0475(3) 0.3716(4) 0.96610(12)
H3B H 0.1272 0.3781 0.9858
C12A C 0.2622(3) 0.0017(3) 0.76696(10)
C13A C 0.1579(2) -0.0601(3) 0.73042(9)
C14A C 0.0668(3) 0.0604(3) 0.71152(10)
H4A H 0.0777 0.1823 0.7170
C15A C -0.0414(3) -0.0052(4) 0.68412(10)
C16A C -0.0606(3) -0.1852(4) 0.67557(10)
C17A C 0.0346(3) -0.3042(3) 0.69280(10)
H5A H 0.0251 -0.4254 0.6861
C18A C 0.1432(2) -0.2419(3) 0.71984(9)
C19A C 0.2486(3) -0.3687(3) 0.73488(10)
C20A C -0.2286(3) -0.0521(4) 0.64154(12)
H6A H -0.3105 -0.0294 0.6242
Co2B Co -0.28631(4) -0.05381(5) 1.130114(13)
Co2B_2 Co 0.71369(4) -0.05381(5) 1.130114(13)
Co2A Co -0.28631(4) 0.55381(5) 0.630114(13)
Co2_2 Co -0.71369(4) 0.05381(5) 0.869886(13)
Co2A_2 Co -0.28631(4) -0.44619(5) 0.630114(13)
N1B N -0.0269(2) 0.2314(3) 0.96174(9)
N2B N -0.0011(3) 0.5039(3) 0.93977(10)
H7B H 0.0351 0.6070 0.9377
N3A N -0.1799(2) -0.2103(3) 0.64869(9)
N3B N -0.1799(2) -0.2897(3) 1.14869(9)
N4A N -0.1500(3) 0.0748(3) 0.66144(10)
H8A H -0.1654 0.1881 0.6601
Nd1B Nd -0.448210(13) -0.128180(17) 0.768100(5)
Nd1A Nd 0.551790(13) -0.371820(17) 1.268100(5)
Nd1_2 Nd 0.448210(13) -0.871820(17) 1.231900(5)
Nd1C Nd -0.551790(13) 0.371820(17) 0.731900(5)
Nd1B_2 Nd -0.448210(13) 0.871820(17) 0.768100(5)
Nd1B_3 Nd 0.551790(13) -0.128180(17) 0.768100(5)
Nd1C_2 Nd 0.448210(13) 0.371820(17) 0.731900(5)
Nd1C_3 Nd 0.448210(13) -0.628180(17) 0.731900(5)
O1B O -0.0097(2) 0.1285(3) 1.06119(8)
O2B O -0.1969(2) -0.0358(3) 1.00433(7)
O3B O -0.1222(2) 0.0803(3) 1.11646(7)
O4B O -0.3004(2) -0.0946(3) 1.06121(8)
O5B O -0.54492(19) 0.1862(3) 0.87716(7)
O5B_2 O 0.45508(19) 0.1862(3) 0.87716(7)
O5_2 O -0.45508(19) -0.1862(3) 1.12284(7)
O6B O -0.4344(2) 0.0292(3) 0.83447(7)
O7B O -0.4913(2) 0.4138(3) 0.80887(7)
O7A O 0.5087(2) 0.0862(3) 1.30887(7)
O7C O -0.5087(2) -0.0862(3) 0.69113(7)
O8B O -0.4170(2) 0.6789(3) 0.83023(7)
O8_2 O 0.4170(2) 0.3211(3) 1.16977(7)
O8B_2 O -0.4170(2) -0.3211(3) 0.83023(7)
O9A O 0.2474(2) -0.0393(3) 0.80509(7)
O9C O -0.2474(2) 0.0393(3) 1.19491(7)
O10A O 0.35833(18) 0.0899(3) 0.75723(7)
O10C O 0.64167(18) -0.0899(3) 1.24277(7)
O10B O 0.35833(18) 0.4101(3) 1.25723(7)
O10A_2 O -0.64167(18) 0.0899(3) 0.75723(7)
O10_2 O -0.35833(18) -0.4101(3) 0.74277(7)
O11A O 0.36292(18) -0.3146(2) 0.74952(7)
O11B O 0.36292(18) -0.1854(2) 1.24952(7)
O11C O 0.63708(18) 0.3146(2) 1.25048(7)
O11A_2 O -0.63708(18) -0.3146(2) 0.74952(7)
O12A O 0.22682(19) -0.5313(3) 0.73093(8)
O12B O 0.22682(19) 0.0313(3) 1.23093(8)
O13B O -0.3927(2) 0.1906(3) 1.11469(8)
H9B H -0.4355 0.1966 1.0888
H10B H -0.4443 0.2161 1.1326
O14 O 0.4883(4) 0.4000(5) 0.95461(14)
H11 H 0.4852 0.3146 0.9365
H12 H 0.5536 0.3764 0.9742
O15 O 0.5749(5) 0.7654(8) 0.96524(16)
H13 H 0.5516 0.8686 0.9710
H14 H 0.6540 0.7650 0.9617
O16 O 0.2722(4) 0.6359(5) 0.97020(17)
H15 H 0.3359 0.5660 0.9699
H16 H 0.2924 0.7387 0.9796
loop_
_geom_bond_atom_site_label_1
_geom_bond_atom_site_label_2
_geom_bond_site_symmetry_1
_geom_bond_site_symmetry_2
C1 C2 1_555 1_555
C2 O1 1_555 1_555
C3 C4 1_555 1_555
C4 C5 1_555 1_555
C5 H1 1_555 1_555
C6 C5 1_555 1_555
C7 C6 1_555 1_555
C8 C7 1_555 1_555
H2 C8 1_555 1_555
C9 C4 1_555 1_555
C10 C9 1_555 1_555
C11 H3 1_555 1_555
C12 C13 1_555 1_555
C13 C14 1_555 1_555
C14 H4 1_555 1_555
C15 C14 1_555 1_555
C16 C15 1_555 1_555
C17 C16 1_555 1_555
H5 C17 1_555 1_555
C18 C13 1_555 1_555
C19 C18 1_555 1_555
C20 H6 1_555 1_555
Co1 N1 1_555 1_555
Co2 N3 1_555 1_555
N1 C6 1_555 1_555
N2 C7 1_555 1_555
H7 N2 1_555 1_555
N3 C16 1_555 1_555
N4 C15 1_555 1_555
H8 N4 1_555 1_555
Nd1 O6 1_555 1_555
O1 Co1 1_555 1_555
O2 C1 1_555 1_555
O3 C2 1_555 1_555
O4 C1 1_555 1_555
O5 C3 1_555 1_555
O6 C3 1_555 1_555
O7 C10 1_555 1_555
O8 C10 1_555 1_555
O9 C12 1_555 1_555
O10 C12 1_555 1_555
O11 C19 1_555 1_555
O12 C19 1_555 1_555
O13 Co2 1_555 1_555
H9 O13 1_555 1_555
H10 O13 1_555 1_555
O14 H11 1_555 1_555
H12 O14 1_555 1_555
O15 H13 1_555 1_555
H14 O15 1_555 1_555
O16 H15 1_555 1_555
H16 O16 1_555 1_555
C1B C2B 1_555 1_555
C2B O1B 1_555 1_555
C3B C4B 1_555 1_555
C4B C5B 1_555 1_555
C5B H1B 1_555 1_555
C6B C5B 1_555 1_555
C7B C6B 1_555 1_555
C8B C7B 1_555 1_555
H2B C8B 1_555 1_555
C9B C4B 1_555 1_555
C10B C9B 1_555 1_555
C11B H3B 1_555 1_555
C12A C13A 1_555 1_555
C13A C14A 1_555 1_555
C14A H4A 1_555 1_555
C15A C14A 1_555 1_555
C16A C15A 1_555 1_555
C17A C16A 1_555 1_555
H5A C17A 1_555 1_555
C18A C13A 1_555 1_555
C19A C18A 1_555 1_555
C20A H6A 1_555 1_555
Co2B N3B 1_555 1_555
Co2B_2 O5 1_555 1_555
Co2A O9 1_555 1_555
Co2_2 O5B 1_555 1_555
Co2A_2 N3A 1_555 1_555
N1B Co1 1_555 1_555
N2B C7B 1_555 1_555
H7B N2B 1_555 1_555
N3A C16A 1_555 1_555
N4A C15A 1_555 1_555
H8A N4A 1_555 1_555
Nd1B O11 1_555 1_555
Nd1A O7 1_555 1_555
Nd1_2 O8 1_555 1_555
Nd1C O10 1_555 1_555
Nd1B_2 O10 1_555 1_555
Nd1B_3 O10A 1_555 1_555
Nd1C_2 O10A 1_555 1_555
Nd1C_3 O11A 1_555 1_555
O1B Co1 1_555 1_555
O2B Co1 1_555 1_555
O3B C2B 1_555 1_555
O4B C1B 1_555 1_555
O5B C3B 1_555 1_555
O5B_2 Co2 1_555 1_555
O5_2 Co2B 1_555 1_555
O6B C3B 1_555 1_555
O7B C10B 1_555 1_555
O7A Nd1 1_555 1_555
O7C Nd1B 1_555 1_555
O8B C10B 1_555 1_555
O8_2 Nd1 1_555 1_555
O8B_2 Nd1B 1_555 1_555
O9A Co2 1_555 1_555
O9C Co2B 1_555 1_555
O10A C12A 1_555 1_555
O10C Nd1 1_555 1_555
O10B Nd1 1_555 1_555
O10A_2 Nd1B 1_555 1_555
O10_2 Nd1B 1_555 1_555
O11A C19A 1_555 1_555
O11B Nd1 1_555 1_555
O11C Nd1 1_555 1_555
O11A_2 Nd1B 1_555 1_555
O12A C19A 1_555 1_555
O12B Nd1 1_555 1_555
O13B Co2B 1_555 1_555
H9B O13B 1_555 1_555
H10B O13B 1_555 1_555
C8 C9 1_555 1_555
C11 N1 1_555 1_555
C11 N2 1_555 1_555
C17 C18 1_555 1_555
C20 N3 1_555 1_555
C20 N4 1_555 1_555
Co1 O2 1_555 1_555
Co2 O3 1_555 1_555
Co2 O4 1_555 1_555
O11 Nd1C 1_555 1_555
O12 Nd1B 1_555 1_555
C1B O2B 1_555 1_555
C6B N1B 1_555 1_555
C8B C9B 1_555 1_555
C11B N1B 1_555 1_555
C11B N2B 1_555 1_555
C12A O9A 1_555 1_555
C17A C18A 1_555 1_555
C20A N3A 1_555 1_555
C20A N4A 1_555 1_555
Co2B O3B 1_555 1_555
Co2B O4B 1_555 1_555
Nd1B O6B 1_555 1_555
Nd1A O10C 1_555 1_555
Nd1A O11B 1_555 1_555
Nd1C O7B 1_555 1_555
Nd1C O10A_2 1_555 1_555
Nd1B_2 O8B 1_555 1_555
Nd1B_3 O11A 1_555 1_555
Nd1C_3 O12A 1_555 1_555

#END
