
#######################################################################
#
#                 Cambridge Crystallographic Data Centre
#                                CCDC 
#
#######################################################################
#
# If this CIF has been generated from an entry in the Cambridge 
# Structural Database, then it will include bibliographic, chemical, 
# crystal, experimental, refinement or atomic coordinate data resulting 
# from the CCDC's data processing and validation procedures.
#
#######################################################################

data_ZEFVIR
_chemical_formula_moiety         '(C40 H26 Co3 N8 O29 Pr2)n'
_symmetry_cell_setting           monoclinic
_symmetry_space_group_name_H-M   'P 21/c'
_symmetry_Int_Tables_number      14
_space_group_name_Hall           '-P 2ybc'
loop_
_symmetry_equiv_pos_site_id
_symmetry_equiv_pos_as_xyz
1 x,y,z
2 -x,1/2+y,1/2-z
3 -x,-y,-z
4 x,1/2-y,1/2+z
_cell_length_a                   10.477(2)
_cell_length_b                   7.6575(15)
_cell_length_c                   30.456(6)
_cell_angle_alpha                90
_cell_angle_beta                 99.06(3)
_cell_angle_gamma                90
_cell_volume                     2412.93
loop_
_atom_site_label
_atom_site_type_symbol
_atom_site_fract_x
_atom_site_fract_y
_atom_site_fract_z
C1 C 0.2098(3) 0.5297(4) 0.95545(12)
C2 C 0.1051(3) 0.4323(4) 0.92292(11)
C3 C 0.4447(3) 0.3484(4) 1.13847(11)
C4 C 0.3268(3) 0.2450(4) 1.12055(10)
C5 C 0.2354(3) 0.3247(4) 1.08953(11)
H1 H 0.2436 0.4438 1.0817
C6 C 0.1308(3) 0.2250(4) 1.07005(11)
C7 C 0.1180(3) 0.0508(4) 1.08340(12)
C8 C 0.2104(3) -0.0315(4) 1.11394(12)
H2 H 0.2017 -0.1502 1.1220
C9 C 0.3159(3) 0.0673(4) 1.13221(10)
C10 C 0.4159(3) -0.0137(4) 1.16637(11)
C11 C -0.0476(4) 0.1287(4) 1.03405(13)
H3 H -0.1274 0.1223 1.0144
C12 C -0.2616(3) 1.0012(4) 0.73306(11)
C13 C -0.1567(3) 0.9396(4) 0.76956(10)
C14 C -0.0661(3) 1.0599(4) 0.78858(11)
H4 H -0.0771 1.1815 0.7831
C15 C 0.0420(3) 0.9947(4) 0.81607(11)
C16 C 0.0612(3) 0.8155(4) 0.82467(11)
C17 C -0.0331(3) 0.6961(4) 0.80733(11)
H5 H -0.0230 0.5751 0.8139
C18 C -0.1423(3) 0.7581(4) 0.78016(10)
C19 C -0.2473(3) 0.6311(4) 0.76505(11)
C20 C 0.2293(4) 0.9483(5) 0.85838(13)
H6 H 0.3112 0.9714 0.8757
Co1 Co 0.0000 0.5000 1.0000
Co2 Co 0.28646(4) 0.55419(6) 0.869953(14)
N1 N 0.0261(3) 0.2683(4) 1.03830(10)
N2 N 0.0007(3) -0.0031(4) 1.06005(11)
H7 H -0.0356 -0.1059 1.0620
N3 N 0.1810(3) 0.7897(4) 0.85137(10)
N4 N 0.1507(3) 1.0741(4) 0.83851(11)
H8 H 0.1662 1.1871 0.8397
O1 O 0.0104(2) 0.3702(3) 0.93901(9)
O2 O 0.1966(2) 0.5356(4) 0.99585(8)
O3 O 0.1225(2) 0.4197(3) 0.88358(8)
O4 O 0.3004(2) 0.5948(4) 0.93892(9)
O5 O 0.5449(2) 0.3135(3) 1.12256(8)
O6 O 0.4337(2) 0.4710(3) 1.16508(8)
O7 O 0.4915(2) 0.0857(3) 1.19081(8)
O8 O 0.4176(3) -0.1780(3) 1.16912(8)
O9 O -0.2470(2) 0.9604(3) 0.69485(8)
O10 O -0.3568(2) 1.0893(3) 0.74298(8)
O11 O -0.3617(2) 0.6856(3) 0.75057(8)
O12 O -0.2256(2) 0.4694(3) 0.76897(9)
O13 O 0.3922(3) 0.3102(3) 0.88548(9)
H9 H 0.4445 0.2841 0.8678
H10 H 0.4299 0.3096 0.9122
Pr1 Pr 0.447930(15) 0.62847(2) 1.231790(5)
C1B C -0.2098(3) 0.4703(4) 1.04455(12)
C2B C -0.1051(3) 0.5677(4) 1.07708(11)
C3B C -0.4447(3) 0.6516(4) 0.86153(11)
C4B C -0.3268(3) 0.7550(4) 0.87945(10)
C5B C -0.2354(3) 0.6753(4) 0.91047(11)
H1B H -0.2436 0.5562 0.9183
C6B C -0.1308(3) 0.7750(4) 0.92995(11)
C7B C -0.1180(3) 0.9492(4) 0.91660(12)
C8B C -0.2104(3) 1.0315(4) 0.88606(12)
H2B H -0.2017 1.1502 0.8780
C9B C -0.3159(3) 0.9327(4) 0.86779(10)
C10B C -0.4159(3) 1.0137(4) 0.83363(11)
C11B C 0.0476(4) 0.8713(4) 0.96595(13)
H3B H 0.1274 0.8777 0.9856
C12A C 0.2616(3) 0.5012(4) 0.76694(11)
C13A C 0.1567(3) 0.4396(4) 0.73044(10)
C14A C 0.0661(3) 0.5599(4) 0.71142(11)
H4A H 0.0771 0.6815 0.7169
C15A C -0.0420(3) 0.4947(4) 0.68393(11)
C16A C -0.0612(3) 0.3155(4) 0.67533(11)
C17A C 0.0331(3) 0.1961(4) 0.69267(11)
H5A H 0.0230 0.0751 0.6861
C18A C 0.1423(3) 0.2581(4) 0.71984(10)
C19A C 0.2473(3) 0.1311(4) 0.73495(11)
C20A C -0.2293(4) 0.4483(5) 0.64162(13)
H6A H -0.3112 0.4714 0.6243
Co2B Co -0.28646(4) 0.44581(6) 1.130047(14)
Co2B_2 Co 0.71354(4) 0.44581(6) 1.130047(14)
Co2A Co -0.28646(4) 1.05419(6) 0.630047(14)
Co2_2 Co -0.71354(4) 0.55419(6) 0.869953(14)
Co2A_2 Co -0.28646(4) 0.05419(6) 0.630047(14)
N1B N -0.0261(3) 0.7317(4) 0.96170(10)
N2B N -0.0007(3) 1.0031(4) 0.93995(11)
H7B H 0.0356 1.1059 0.9380
N3A N -0.1810(3) 0.2897(4) 0.64863(10)
N3B N -0.1810(3) 0.2103(4) 1.14863(10)
N4A N -0.1507(3) 0.5741(4) 0.66149(11)
H8A H -0.1662 0.6871 0.6603
O1B O -0.0104(2) 0.6298(3) 1.06099(9)
O2B O -0.1966(2) 0.4644(4) 1.00415(8)
O3B O -0.1225(2) 0.5803(3) 1.11642(8)
O4B O -0.3004(2) 0.4052(4) 1.06108(9)
O5B O -0.5449(2) 0.6865(3) 0.87744(8)
O5B_2 O 0.4551(2) 0.6865(3) 0.87744(8)
O5_2 O -0.4551(2) 0.3135(3) 1.12256(8)
O6B O -0.4337(2) 0.5290(3) 0.83492(8)
O7B O -0.4915(2) 0.9143(3) 0.80919(8)
O7A O 0.5085(2) 0.5857(3) 1.30919(8)
O7C O -0.5085(2) 0.4143(3) 0.69081(8)
O8B O -0.4176(3) 1.1780(3) 0.83088(8)
O8_2 O 0.4176(3) 0.8220(3) 1.16912(8)
O8B_2 O -0.4176(3) 0.1780(3) 0.83088(8)
O9A O 0.2470(2) 0.4604(3) 0.80515(8)
O9C O -0.2470(2) 0.5396(3) 1.19485(8)
O10A O 0.3568(2) 0.5893(3) 0.75702(8)
O10B O 0.3568(2) 0.9107(3) 1.25702(8)
O10C O 0.6432(2) 0.4107(3) 1.24298(8)
O10_2 O -0.3568(2) 0.0893(3) 0.74298(8)
O10A_2 O -0.6432(2) 0.5893(3) 0.75702(8)
O11A O 0.3617(2) 0.1856(3) 0.74943(8)
O11B O 0.3617(2) 0.3144(3) 1.24943(8)
O11C O 0.6383(2) 0.8144(3) 1.25057(8)
O11A_2 O -0.6383(2) 0.1856(3) 0.74943(8)
O12A O 0.2256(2) -0.0306(3) 0.73103(9)
O12B O 0.2256(2) 0.5306(3) 1.23103(9)
O13B O -0.3922(3) 0.6898(3) 1.11452(9)
H9B H -0.4445 0.7159 1.1322
H10B H -0.4299 0.6904 1.0878
Pr1B Pr -0.447930(15) 0.37153(2) 0.768210(5)
Pr1A Pr 0.552070(15) 0.12847(2) 1.268210(5)
Pr1_2 Pr 0.447930(15) -0.37153(2) 1.231790(5)
Pr1B_2 Pr -0.447930(15) 1.37153(2) 0.768210(5)
Pr1C Pr -0.552070(15) 0.87153(2) 0.731790(5)
Pr1C_2 Pr 0.447930(15) 0.87153(2) 0.731790(5)
Pr1B_3 Pr 0.552070(15) 0.37153(2) 0.768210(5)
Pr1C_3 Pr 0.447930(15) -0.12847(2) 0.731790(5)
O14 O 0.4901(5) 0.8991(7) 0.95529(16)
H11 H 0.4760 0.8363 0.9319
H12 H 0.5148 0.8309 0.9770
O15 O 0.5734(6) 0.2700(11) 0.96516(19)
H13 H 0.6525 0.2739 0.9615
H14 H 0.5555 0.3563 0.9809
O16 O 0.2730(5) 0.1346(7) 0.9704(2)
H15 H 0.3347 0.0749 0.9848
H16 H 0.2899 0.2402 0.9648
loop_
_geom_bond_atom_site_label_1
_geom_bond_atom_site_label_2
_geom_bond_site_symmetry_1
_geom_bond_site_symmetry_2
C1 C2 1_555 1_555
C2 O1 1_555 1_555
C3 C4 1_555 1_555
C4 C5 1_555 1_555
C5 H1 1_555 1_555
C6 C5 1_555 1_555
C7 C6 1_555 1_555
C8 C7 1_555 1_555
H2 C8 1_555 1_555
C9 C4 1_555 1_555
C10 C9 1_555 1_555
C11 H3 1_555 1_555
C12 C13 1_555 1_555
C13 C14 1_555 1_555
C14 H4 1_555 1_555
C15 C14 1_555 1_555
C16 C15 1_555 1_555
C17 C16 1_555 1_555
H5 C17 1_555 1_555
C18 C13 1_555 1_555
C19 C18 1_555 1_555
C20 H6 1_555 1_555
Co1 N1 1_555 1_555
Co2 N3 1_555 1_555
N1 C6 1_555 1_555
N2 C7 1_555 1_555
H7 N2 1_555 1_555
N3 C16 1_555 1_555
N4 C15 1_555 1_555
H8 N4 1_555 1_555
O1 Co1 1_555 1_555
O2 C1 1_555 1_555
O3 C2 1_555 1_555
O4 C1 1_555 1_555
O5 C3 1_555 1_555
O6 C3 1_555 1_555
O7 C10 1_555 1_555
O8 C10 1_555 1_555
O9 C12 1_555 1_555
O10 C12 1_555 1_555
O11 C19 1_555 1_555
O12 C19 1_555 1_555
O13 Co2 1_555 1_555
H9 O13 1_555 1_555
H10 O13 1_555 1_555
O14 H11 1_555 1_555
H12 O14 1_555 1_555
O15 H13 1_555 1_555
H14 O15 1_555 1_555
O16 H15 1_555 1_555
H16 O16 1_555 1_555
Pr1 O6 1_555 1_555
C1B C2B 1_555 1_555
C2B O1B 1_555 1_555
C3B C4B 1_555 1_555
C4B C5B 1_555 1_555
C5B H1B 1_555 1_555
C6B C5B 1_555 1_555
C7B C6B 1_555 1_555
C8B C7B 1_555 1_555
H2B C8B 1_555 1_555
C9B C4B 1_555 1_555
C10B C9B 1_555 1_555
C11B H3B 1_555 1_555
C12A C13A 1_555 1_555
C13A C14A 1_555 1_555
C14A H4A 1_555 1_555
C15A C14A 1_555 1_555
C16A C15A 1_555 1_555
C17A C16A 1_555 1_555
H5A C17A 1_555 1_555
C18A C13A 1_555 1_555
C19A C18A 1_555 1_555
C20A H6A 1_555 1_555
Co2B N3B 1_555 1_555
Co2B_2 O5 1_555 1_555
Co2A O9 1_555 1_555
Co2_2 O5B 1_555 1_555
Co2A_2 N3A 1_555 1_555
N1B Co1 1_555 1_555
N2B C7B 1_555 1_555
H7B N2B 1_555 1_555
N3A C16A 1_555 1_555
N4A C15A 1_555 1_555
H8A N4A 1_555 1_555
O1B Co1 1_555 1_555
O2B Co1 1_555 1_555
O3B C2B 1_555 1_555
O4B C1B 1_555 1_555
O5B C3B 1_555 1_555
O5B_2 Co2 1_555 1_555
O5_2 Co2B 1_555 1_555
O6B C3B 1_555 1_555
O7B C10B 1_555 1_555
O7A Pr1 1_555 1_555
O7C Pr1B 1_555 1_555
O8B C10B 1_555 1_555
O8_2 Pr1 1_555 1_555
O8B_2 Pr1B 1_555 1_555
O9A Co2 1_555 1_555
O9C Co2B 1_555 1_555
O10A C12A 1_555 1_555
O10B Pr1 1_555 1_555
O10C Pr1 1_555 1_555
O10_2 Pr1B 1_555 1_555
O10A_2 Pr1B 1_555 1_555
O11A C19A 1_555 1_555
O11B Pr1 1_555 1_555
O11C Pr1 1_555 1_555
O11A_2 Pr1B 1_555 1_555
O12A C19A 1_555 1_555
O12B Pr1 1_555 1_555
O13B Co2B 1_555 1_555
H9B O13B 1_555 1_555
H10B O13B 1_555 1_555
Pr1B O11 1_555 1_555
Pr1A O7 1_555 1_555
Pr1_2 O8 1_555 1_555
Pr1B_2 O10 1_555 1_555
Pr1C O10 1_555 1_555
Pr1C_2 O10A 1_555 1_555
Pr1B_3 O10A 1_555 1_555
Pr1C_3 O11A 1_555 1_555
C8 C9 1_555 1_555
C11 N1 1_555 1_555
C11 N2 1_555 1_555
C17 C18 1_555 1_555
C20 N3 1_555 1_555
C20 N4 1_555 1_555
Co1 O2 1_555 1_555
Co2 O3 1_555 1_555
Co2 O4 1_555 1_555
O11 Pr1C 1_555 1_555
O12 Pr1B 1_555 1_555
C1B O2B 1_555 1_555
C6B N1B 1_555 1_555
C8B C9B 1_555 1_555
C11B N1B 1_555 1_555
C11B N2B 1_555 1_555
C12A O9A 1_555 1_555
C17A C18A 1_555 1_555
C20A N3A 1_555 1_555
C20A N4A 1_555 1_555
Co2B O3B 1_555 1_555
Co2B O4B 1_555 1_555
O6B Pr1B 1_555 1_555
O7B Pr1C 1_555 1_555
O8B Pr1B_2 1_555 1_555
O10C Pr1A 1_555 1_555
O10A_2 Pr1C 1_555 1_555
O11A Pr1B_3 1_555 1_555
O11B Pr1A 1_555 1_555
O12A Pr1C_3 1_555 1_555

#END
