
#######################################################################
#
#                 Cambridge Crystallographic Data Centre
#                                CCDC 
#
#######################################################################
#
# If this CIF has been generated from an entry in the Cambridge 
# Structural Database, then it will include bibliographic, chemical, 
# crystal, experimental, refinement or atomic coordinate data resulting 
# from the CCDC's data processing and validation procedures.
#
#######################################################################

data_CUVGIK
_chemical_formula_moiety         '(C21 H19 Mn1 N7 O1)n'
_symmetry_cell_setting           triclinic
_symmetry_space_group_name_H-M   'P -1'
_symmetry_Int_Tables_number      2
_space_group_name_Hall           '-P 1'
loop_
_symmetry_equiv_pos_site_id
_symmetry_equiv_pos_as_xyz
1 x,y,z
2 -x,-y,-z
_cell_length_a                   5.5655(3)
_cell_length_b                   9.3702(5)
_cell_length_c                   11.7543(5)
_cell_angle_alpha                94.321(4)
_cell_angle_beta                 96.734(4)
_cell_angle_gamma                100.837(4)
_cell_volume                     594.912
loop_
_atom_site_label
_atom_site_type_symbol
_atom_site_fract_x
_atom_site_fract_y
_atom_site_fract_z
C1 C 0.4745(12) 0.6222(5) 0.2865(4)
C2 C 0.2981(9) 0.3624(5) 0.2986(4)
C3 C 0.6968(8) 0.4759(5) 0.4054(4)
N4 N 0.5110(5) 0.4841(3) 0.3320(2)
O1 O 0.7190(6) 0.3611(4) 0.4539(3)
C4 C -0.1073(4) -0.3944(2) 0.05175(19)
H1 H -0.1806 -0.3245 0.0868
C5 C 0.4273(4) -0.1664(2) -0.02026(17)
C6 C -0.2061(4) -0.5417(2) 0.05377(19)
H2 H -0.3450 -0.5688 0.0901
C7 C 0.9965(4) -0.0030(2) 0.4368(2)
C8 C 0.1010(4) -0.3503(2) -0.00237(18)
C9 C 0.8298(8) 0.0479(5) 0.2519(3)
H3 H 0.7114 0.0871 0.2089
C10 C 0.8315(7) 0.0559(5) 0.3701(3)
H4 H 0.7194 0.1016 0.4039
C11 C 1.1415(7) -0.0702(4) 0.2611(2)
H5 H 1.2513 -0.1157 0.2251
C12 C 1.1535(7) -0.0688(5) 0.3793(3)
H6 H 1.2686 -0.1126 0.4200
N1 N 0.9853(3) -0.0116(2) 0.19613(17)
N2 N 0.6324(3) -0.13198(19) -0.03802(16)
N3 N 0.1996(3) -0.19800(19) -0.00188(16)
Mn1 Mn 1.0000 0.0000 0.0000
C4A C 0.1073(4) -0.6056(2) -0.05175(19)
H1A H 0.1806 -0.6755 -0.0868
C5A C -0.4273(4) -0.8336(2) 0.02026(17)
C6A C 0.2061(4) -0.4583(2) -0.05377(19)
H2A H 0.3450 -0.4312 -0.0901
C7A C 1.0035(4) 0.0030(2) 0.5632(2)
C8A C -0.1010(4) -0.6497(2) 0.00237(18)
C9A C 1.1702(8) -0.0479(5) 0.7481(3)
H3A H 1.2886 -0.0871 0.7911
C10A C 1.1685(7) -0.0559(5) 0.6299(3)
H4A H 1.2806 -0.1016 0.5961
C11A C 0.8585(7) 0.0702(4) 0.7389(2)
H5A H 0.7487 0.1157 0.7749
C12A C 0.8465(7) 0.0688(5) 0.6207(3)
H6A H 0.7314 0.1126 0.5800
N1A N 1.0147(3) 0.0116(2) 0.80387(17)
N1A_2 N 1.0147(3) 0.0116(2) -0.19613(17)
N2A N -0.6324(3) -0.86802(19) 0.03802(16)
N2A_2 N 1.3676(3) 0.13198(19) 0.03802(16)
N3A N -0.1996(3) -0.80200(19) 0.00188(16)
N3_2 N 1.1996(3) -0.19800(19) -0.00188(16)
N3A_2 N 0.8004(3) 0.19800(19) 0.00188(16)
Mn1_2 Mn 0.0000 0.0000 0.0000
Mn1_3 Mn 0.0000 -1.0000 0.0000
Mn1_4 Mn -1.0000 -1.0000 0.0000
Mn1_5 Mn 1.0000 0.0000 1.0000
loop_
_geom_bond_atom_site_label_1
_geom_bond_atom_site_label_2
_geom_bond_site_symmetry_1
_geom_bond_site_symmetry_2
C1 N4 1_555 1_555
C2 N4 1_555 1_555
C3 N4 1_555 1_555
C4 H1 1_555 1_555
C5 N2 1_555 1_555
C6 C4 1_555 1_555
H2 C6 1_555 1_555
C7 C10 1_555 1_555
C8 C4 1_555 1_555
C9 H3 1_555 1_555
C10 C9 1_555 1_555
H4 C10 1_555 1_555
C11 H5 1_555 1_555
C12 C7 1_555 1_555
H6 C12 1_555 1_555
N1 C9 1_555 1_555
N2 Mn1 1_555 1_555
N3 C5 1_555 1_555
Mn1 N1 1_555 1_555
O1 C3 1_555 1_555
C4A H1A 1_555 1_555
C5A N2A 1_555 1_555
C6A C8 1_555 1_555
H2A C6A 1_555 1_555
C7A C7 1_555 1_555
C8A C6 1_555 1_555
C9A H3A 1_555 1_555
C10A C7A 1_555 1_555
H4A C10A 1_555 1_555
C11A H5A 1_555 1_555
C12A C7A 1_555 1_555
H6A C12A 1_555 1_555
N1A C9A 1_555 1_555
N1A_2 Mn1 1_555 1_555
N2A Mn1_4 1_555 1_555
N2A_2 Mn1 1_555 1_555
N3A C5A 1_555 1_555
N3_2 Mn1 1_555 1_555
N3A_2 Mn1 1_555 1_555
Mn1_2 N3 1_555 1_555
Mn1_3 N3A 1_555 1_555
Mn1_5 N1A 1_555 1_555
C8 N3 1_555 1_555
C11 C12 1_555 1_555
C11 N1 1_555 1_555
C4A C6A 1_555 1_555
C4A C8A 1_555 1_555
C8A N3A 1_555 1_555
C9A C10A 1_555 1_555
C11A C12A 1_555 1_555
C11A N1A 1_555 1_555

#END
