
#######################################################################
#
#                 Cambridge Crystallographic Data Centre
#                                CCDC 
#
#######################################################################
#
# If this CIF has been generated from an entry in the Cambridge 
# Structural Database, then it will include bibliographic, chemical, 
# crystal, experimental, refinement or atomic coordinate data resulting 
# from the CCDC's data processing and validation procedures.
#
#######################################################################

data_VATXEU
_chemical_formula_moiety         'C6 H10 N2 O16 U1 2+'
_symmetry_cell_setting           hexagonal
_symmetry_space_group_name_H-M   'P 63/m m c'
_symmetry_Int_Tables_number      194
_space_group_name_Hall           '-P 6c 2c'
loop_
_symmetry_equiv_pos_site_id
_symmetry_equiv_pos_as_xyz
1 x,y,z
2 -y,x-y,z
3 -x+y,-x,z
4 y,-x+y,1/2+z
5 x-y,x,1/2+z
6 y,x,-z
7 -x+y,y,1/2-z
8 x,x-y,1/2-z
9 -x,-y,1/2+z
10 x-y,-y,-z
11 -x,-x+y,-z
12 -y,-x,1/2-z
13 -x,-y,-z
14 y,-x+y,-z
15 x-y,x,-z
16 -y,x-y,1/2-z
17 -x+y,-x,1/2-z
18 -y,-x,z
19 x-y,-y,1/2+z
20 -x,-x+y,1/2+z
21 x,y,1/2-z
22 -x+y,y,z
23 x,x-y,z
24 y,x,1/2+z
_cell_length_a                   19.177(3)
_cell_length_b                   19.177(3)
_cell_length_c                   12.728(4)
_cell_angle_alpha                90
_cell_angle_beta                 90
_cell_angle_gamma                120
_cell_volume                     4053.7
loop_
_atom_site_label
_atom_site_type_symbol
_atom_site_fract_x
_atom_site_fract_y
_atom_site_fract_z
_atom_site_U_iso_or_equiv
_atom_site_thermal_displace_type
N2 N 0.376(4) 0.624(4) 0.480(10) 0.0800 Uiso
O1 O 0.342(4) 0.519(4) 0.2500 0.0800 Uiso
O2 O 0.3280(9) 0.4017(9) 0.6608(11) 0.0570 Uiso
O3 O 0.2659(6) 0.4157(6) 0.4783(8) 0.0260 Uiso
O4 O 0.1895(7) 0.2624(7) 0.5431(9) 0.0300 Uiso
O5 O 0.4130(9) 0.4667(9) 0.4214(11) 0.0570 Uiso
O6 O 0.3053(8) 0.2565(8) 0.6630(11) 0.0510 Uiso
C1 C 0.3275(15) 0.3724(12) 0.7500 0.0280 Uiso
C2 C 0.3132(12) 0.2882(11) 0.7500 0.0080 Uiso
C3 C 0.1477(7) 0.2954(14) 0.530(2) 0.0470 Uiso
C4 C 0.1913(6) 0.3827(13) 0.4940(19) 0.0250 Uiso
C5 C 0.4837(6) 0.5163(6) 0.4595(16) 0.0350 Uiso
U1 U 0.33305(5) 0.33305(5) 0.5000 0.0184 Uani
O2T O 0.3280(9) 0.4017(9) 0.8392(11) 0.0570 Uiso
O6T O 0.3053(8) 0.2565(8) 0.8370(11) 0.0510 Uiso
O4U O 0.0729(10) 0.2624(7) 0.5431(9) 0.0300 Uiso
O3U O 0.1498(8) 0.4157(6) 0.4783(8) 0.0260 Uiso
C5E C 0.5163(6) 0.4837(6) 0.5405(16) 0.0350 Uiso
O5Q O 0.5333(9) 0.5870(9) 0.4214(11) 0.0570 Uiso
O2E O 0.4017(9) 0.3280(9) 0.3392(11) 0.0570 Uiso
O3E O 0.4157(6) 0.2659(6) 0.5217(8) 0.0260 Uiso
O4E O 0.2624(7) 0.1895(7) 0.4569(9) 0.0300 Uiso
O5E O 0.4667(9) 0.4130(9) 0.5786(11) 0.0570 Uiso
O6E O 0.2565(8) 0.3053(8) 0.3370(11) 0.0510 Uiso
N1 N -0.0000 0.0000 0.5000 0.0800 Uiso
loop_
_atom_site_aniso_label
_atom_site_aniso_U_11
_atom_site_aniso_U_22
_atom_site_aniso_U_33
_atom_site_aniso_U_23
_atom_site_aniso_U_13
_atom_site_aniso_U_12
U1 0.0192(4) 0.0192(4) 0.0162(4) 0.0000(2) 0.0000(2) 0.0091(5)
loop_
_geom_bond_atom_site_label_1
_geom_bond_atom_site_label_2
_geom_bond_site_symmetry_1
_geom_bond_site_symmetry_2
O2 C1 1_555 1_555
O3 C4 1_555 1_555
O4 C3 1_555 1_555
O5 C5 1_555 1_555
O6 C2 1_555 1_555
C1 C2 1_555 1_555
C2 O6T 1_555 1_555
C3 C4 1_555 1_555
C4 O3U 1_555 1_555
C5 C5E 1_555 1_555
U1 O2 1_555 1_555
O2T C1 1_555 1_555
O4U C3 1_555 1_555
C5E O5E 1_555 1_555
O5Q C5 1_555 1_555
O2E U1 1_555 1_555
O3E U1 1_555 1_555
O4E U1 1_555 1_555
O5E U1 1_555 1_555
O6E U1 1_555 1_555
O3 U1 1_555 1_555
O4 U1 1_555 1_555
O5 U1 1_555 1_555
O6 U1 1_555 1_555

#END
