
#######################################################################
#
#                 Cambridge Crystallographic Data Centre
#                                CCDC 
#
#######################################################################
#
# If this CIF has been generated from an entry in the Cambridge 
# Structural Database, then it will include bibliographic, chemical, 
# crystal, experimental, refinement or atomic coordinate data resulting 
# from the CCDC's data processing and validation procedures.
#
#######################################################################

data_GEJJEL01
_chemical_formula_moiety         '(C12 H16 Nd2 O14)n'
_symmetry_cell_setting           triclinic
_symmetry_space_group_name_H-M   'P -1'
_symmetry_Int_Tables_number      2
_space_group_name_Hall           '-P 1'
loop_
_symmetry_equiv_pos_site_id
_symmetry_equiv_pos_as_xyz
1 x,y,z
2 -x,-y,-z
_cell_length_a                   7.8354(7)
_cell_length_b                   12.0496(16)
_cell_length_c                   12.2524(16)
_cell_angle_alpha                112.015(5)
_cell_angle_beta                 89.967(7)
_cell_angle_gamma                99.921(7)
_cell_volume                     1053.81
loop_
_atom_site_label
_atom_site_type_symbol
_atom_site_fract_x
_atom_site_fract_y
_atom_site_fract_z
C1 C 0.647(3) 0.429(2) 0.149(2)
C2 C 0.722(3) 0.310(2) 0.0857(17)
H1 H 0.7441 0.2760 0.1432
H2 H 0.6356 0.2511 0.0262
C3 C 0.894(3) 0.333(2) 0.0257(19)
H3 H 0.9729 0.4021 0.0817
H4 H 0.9485 0.2624 0.0051
C4 C 0.863(2) 0.359(2) -0.0864(18)
C5 C 0.144(3) 0.426(2) 0.2971(18)
C6 C 0.224(2) 0.3088(19) 0.2718(18)
C7 C 0.388(2) 0.333(2) 0.3512(18)
C8 C 0.365(2) 0.363(2) 0.476(2)
C9 C 0.323(3) 0.861(2) 0.3151(19)
C10 C 0.248(3) 0.969(2) 0.365(2)
H5 H 0.2863 1.0216 0.3233
H6 H 0.1226 0.9444 0.3507
C11 C 0.286(3) 1.037(2) 0.488(2)
H7 H 0.4093 1.0723 0.5012
H8 H 0.2647 0.9817 0.5292
C12 C 0.179(3) 1.144(2) 0.545(2)
Nd1 Nd -0.00869(13) 0.64570(11) 0.35421(10)
Nd2 Nd 0.49093(14) 0.64513(11) 0.25275(10)
O1 O 0.7363(17) 0.5184(13) 0.2207(11)
O2 O 0.488(2) 0.4284(14) 0.1180(12)
O3 O 0.2317(17) 0.5179(13) 0.2899(13)
O4 O -0.0091(19) 0.4285(14) 0.3268(12)
O5 O 0.2716(16) 0.7771(13) 0.3591(11)
O6 O 0.450(2) 0.8550(13) 0.2589(14)
O7 O 0.7214(17) 0.3910(13) -0.0987(12)
O8 O 0.9844(14) 0.3461(11) -0.1510(11)
O9 O 0.2311(17) 1.2231(13) 0.6534(12)
O10 O 0.6738(18) 0.6722(14) 0.0986(13)
H9 H 0.6226 0.6244 0.0143
H10 H 0.7936 0.6472 0.0939
O11 O 0.1710(17) 0.6758(13) 0.5296(11)
H11 H 0.2693 0.6369 0.5133
H12 H 0.1109 0.6456 0.5828
O12 O 0.0472(19) 1.1495(13) 0.4951(14)
O13 O 0.4862(16) 0.3500(13) 0.5355(12)
O14 O 0.2269(15) 0.3969(12) 0.5168(12)
Nd1_2 Nd 0.99131(13) 0.64570(11) 0.35421(10)
Nd1A Nd 0.00869(13) 0.35430(11) 0.64579(10)
Nd1A_2 Nd 0.00869(13) 1.35430(11) 0.64579(10)
Nd1A_3 Nd 1.00869(13) 0.35430(11) -0.35421(10)
Nd2A Nd 0.50907(14) 0.35487(11) -0.25275(10)
Nd2A_2 Nd 0.50907(14) 0.35487(11) 0.74725(10)
Nd2A_3 Nd 0.50907(14) 1.35487(11) 0.74725(10)
O1_2 O -0.2637(17) 0.5184(13) 0.2207(11)
O7A O 0.2786(17) 0.6090(13) 0.0987(12)
O8A O 0.0156(14) 0.6539(11) 0.1510(11)
O9A O -0.2311(17) 0.7769(13) 0.3466(12)
O9A_2 O 0.7689(17) 0.7769(13) 0.3466(12)
O12A O -0.0472(19) 0.8505(13) 0.5049(14)
O13A O 0.5138(16) 0.6500(13) 0.4645(12)
O14A O -0.2269(15) 0.6031(12) 0.4832(12)
loop_
_geom_bond_atom_site_label_1
_geom_bond_atom_site_label_2
_geom_bond_site_symmetry_1
_geom_bond_site_symmetry_2
C1 C2 1_555 1_555
C2 H1 1_555 1_555
H2 C2 1_555 1_555
C3 C2 1_555 1_555
H3 C3 1_555 1_555
H4 C3 1_555 1_555
C4 C3 1_555 1_555
C5 C6 1_555 1_555
C6 C7 1_555 1_555
C7 C8 1_555 1_555
C8 O13 1_555 1_555
C9 C10 1_555 1_555
C10 H5 1_555 1_555
H6 C10 1_555 1_555
C11 C10 1_555 1_555
H7 C11 1_555 1_555
H8 C11 1_555 1_555
C12 C11 1_555 1_555
Nd1 O3 1_555 1_555
Nd2 O1 1_555 1_555
O1 C1 1_555 1_555
O2 C1 1_555 1_555
O3 C5 1_555 1_555
O4 C5 1_555 1_555
O5 C9 1_555 1_555
O6 C9 1_555 1_555
O7 C4 1_555 1_555
O8 C4 1_555 1_555
O9 C12 1_555 1_555
O10 Nd2 1_555 1_555
H9 O10 1_555 1_555
H10 O10 1_555 1_555
O11 Nd1 1_555 1_555
H11 O11 1_555 1_555
H12 O11 1_555 1_555
O12 C12 1_555 1_555
O13 Nd2A_2 1_555 1_555
O14 C8 1_555 1_555
Nd1_2 O1 1_555 1_555
Nd1A O14 1_555 1_555
Nd1A_2 O9 1_555 1_555
Nd1A_3 O8 1_555 1_555
Nd2A O7 1_555 1_555
Nd2A_3 O9 1_555 1_555
O1_2 Nd1 1_555 1_555
O7A Nd2 1_555 1_555
O8A Nd1 1_555 1_555
O9A Nd1 1_555 1_555
O9A_2 Nd2 1_555 1_555
O12A Nd1 1_555 1_555
O13A Nd2 1_555 1_555
O14A Nd1 1_555 1_555
Nd1 O4 1_555 1_555
Nd1 O5 1_555 1_555
Nd2 O2 1_555 1_555
Nd2 O3 1_555 1_555
Nd2 O5 1_555 1_555
Nd2 O6 1_555 1_555
O12 Nd1A_2 1_555 1_555
Nd1_2 O9A_2 1_555 1_555

#END
