
#######################################################################
#
#                 Cambridge Crystallographic Data Centre
#                                CCDC 
#
#######################################################################
#
# If this CIF has been generated from an entry in the Cambridge 
# Structural Database, then it will include bibliographic, chemical, 
# crystal, experimental, refinement or atomic coordinate data resulting 
# from the CCDC's data processing and validation procedures.
#
#######################################################################

data_CIWYUD
_chemical_formula_moiety         '(C14 H24 Co3 N2 O18)n'
_symmetry_cell_setting           triclinic
_symmetry_space_group_name_H-M   'P -1'
_symmetry_Int_Tables_number      2
_space_group_name_Hall           '-P 1'
loop_
_symmetry_equiv_pos_site_id
_symmetry_equiv_pos_as_xyz
1 x,y,z
2 -x,-y,-z
_cell_length_a                   11.1389(7)
_cell_length_b                   11.2652(7)
_cell_length_c                   11.4139(7)
_cell_angle_alpha                76.3800(10)
_cell_angle_beta                 66.3690(10)
_cell_angle_gamma                78.9640(10)
_cell_volume                     1267.65
loop_
_atom_site_label
_atom_site_type_symbol
_atom_site_fract_x
_atom_site_fract_y
_atom_site_fract_z
Co1 Co -0.47058(9) 0.57098(8) 0.71019(8)
Co2 Co -0.60624(9) 0.60917(8) 0.50041(8)
Co3 Co -1.49522(9) 0.64104(8) 0.99076(8)
O1 O -0.6595(5) 0.5949(5) 0.6988(5)
O2 O -0.8215(6) 0.5658(8) 0.8925(6)
O3 O -1.2930(5) 0.6394(5) 0.8652(5)
O4 O -1.2768(5) 0.5468(5) 0.7041(5)
O5 O -0.5290(6) 0.8079(5) 0.8788(5)
O6 O -0.4632(6) 0.7574(4) 0.6825(5)
O7 O -0.5425(5) 1.2576(4) 0.8949(4)
O8 O -0.4545(5) 1.3772(4) 0.7014(5)
O9 O -0.4183(4) 0.5751(4) 0.5117(4)
O10 O -0.5494(5) 0.5295(4) 0.9053(4)
O11 O -1.7002(6) 0.6740(6) 1.1194(6)
N1 N -0.8159(6) 0.6259(5) 0.5725(5)
N2 N -0.4013(6) 1.1995(5) 0.5726(6)
C1 C -0.7807(7) 0.5859(7) 0.7742(7)
C2 C -0.8734(7) 0.6053(7) 0.7031(7)
C3 C -1.0074(7) 0.5977(7) 0.7683(7)
H1 H -1.0449 0.5829 0.8605
C4 C -1.0863(7) 0.6123(7) 0.6953(7)
C5 C -1.0266(7) 0.6333(8) 0.5609(7)
H2 H -1.0771 0.6414 0.5087
C6 C -0.8927(8) 0.6423(7) 0.5039(7)
H3 H -0.8534 0.6611 0.4119
C7 C -1.2313(7) 0.5993(6) 0.7611(7)
C8 C -0.3663(8) 1.1102(6) 0.5033(7)
H4 H -0.3242 1.1299 0.4115
C9 C -0.3891(8) 0.9892(6) 0.5600(7)
H5 H -0.3614 0.9271 0.5081
C10 C -0.4528(7) 0.9604(6) 0.6932(7)
C11 C -0.4854(7) 0.8301(6) 0.7576(7)
C12 C -0.4873(7) 1.0528(6) 0.7655(7)
H6 H -0.5289 1.0351 0.8574
C13 C -0.4604(7) 1.1729(6) 0.7019(7)
C14 C -0.4895(7) 1.2760(6) 0.7736(7)
Co1_2 Co -1.47058(9) 0.57098(8) 0.71019(8)
Co1_3 Co -0.47058(9) 1.57098(8) 0.71019(8)
Co2A Co -0.39376(9) 1.39083(8) 0.49959(8)
Co2A_2 Co -0.39376(9) 0.39083(8) 0.49959(8)
Co3_2 Co -0.49522(9) 0.64104(8) 0.99076(8)
Co3A Co -0.50478(9) 1.35896(8) 1.00924(8)
Co3A_2 Co -0.50478(9) 0.35896(8) 1.00924(8)
O4_2 O -0.2768(5) 0.5468(5) 0.7041(5)
O5_2 O -1.5290(6) 0.8079(5) 0.8788(5)
O7A O -1.4575(5) 0.7424(4) 1.1051(4)
O8_2 O -0.4545(5) 0.3772(4) 0.7014(5)
O8A O -0.5455(5) 0.6228(4) 0.2986(5)
O9A O -0.5817(4) 0.4249(4) 0.4883(4)
O10_2 O -1.5494(5) 0.5295(4) 0.9053(4)
O10A O -1.4506(5) 0.4705(4) 1.0947(4)
N2A N -0.5987(6) 0.8005(5) 0.4274(6)
O12 O -0.2091(15) 0.7172(14) 0.3166(14)
O13 O 0.217(2) 0.152(2) 0.077(2)
O15 O -0.068(3) 0.280(3) -0.071(3)
O17 O -0.790(5) -0.072(5) 0.987(5)
O18 O -0.186(5) 0.098(5) 0.792(5)
O19 O -0.145(5) 0.957(5) 0.244(5)
O20 O 0.032(7) 1.030(7) 0.381(6)
loop_
_geom_bond_atom_site_label_1
_geom_bond_atom_site_label_2
_geom_bond_site_symmetry_1
_geom_bond_site_symmetry_2
Co1 O1 1_555 1_555
Co2 O1 1_555 1_555
Co3 O3 1_555 1_555
O1 C1 1_555 1_555
O2 C1 1_555 1_555
O3 C7 1_555 1_555
O4 C7 1_555 1_555
O5 C11 1_555 1_555
O6 Co1 1_555 1_555
O7 C14 1_555 1_555
O8 C14 1_555 1_555
O9 Co1 1_555 1_555
O10 Co1 1_555 1_555
O11 Co3 1_555 1_555
N1 Co2 1_555 1_555
N2 C8 1_555 1_555
C1 C2 1_555 1_555
C2 N1 1_555 1_555
C3 C2 1_555 1_555
H1 C3 1_555 1_555
C4 C3 1_555 1_555
C5 C4 1_555 1_555
H2 C5 1_555 1_555
C6 N1 1_555 1_555
H3 C6 1_555 1_555
C7 C4 1_555 1_555
C8 H4 1_555 1_555
C9 C8 1_555 1_555
H5 C9 1_555 1_555
C10 C9 1_555 1_555
C11 O6 1_555 1_555
C12 C10 1_555 1_555
H6 C12 1_555 1_555
C13 N2 1_555 1_555
C14 C13 1_555 1_555
Co1_2 O4 1_555 1_555
Co1_3 O8 1_555 1_555
Co2A O8 1_555 1_555
Co2A_2 O9 1_555 1_555
Co3_2 O5 1_555 1_555
Co3A O7 1_555 1_555
Co3A_2 O10 1_555 1_555
O4_2 Co1 1_555 1_555
O5_2 Co3 1_555 1_555
O7A Co3 1_555 1_555
O8_2 Co1 1_555 1_555
O8A Co2 1_555 1_555
O9A Co2 1_555 1_555
O10_2 Co3 1_555 1_555
O10A Co3 1_555 1_555
N2A Co2 1_555 1_555
Co2 O9 1_555 1_555
O10 Co3_2 1_555 1_555
N2 Co2A 1_555 1_555
C5 C6 1_555 1_555
C10 C11 1_555 1_555
C12 C13 1_555 1_555
Co1_2 O10_2 1_555 1_555
Co2A_2 O8_2 1_555 1_555
Co2A_2 O9A 1_555 1_555

#END
