
#######################################################################
#
#                 Cambridge Crystallographic Data Centre
#                                CCDC 
#
#######################################################################
#
# If this CIF has been generated from an entry in the Cambridge 
# Structural Database, then it will include bibliographic, chemical, 
# crystal, experimental, refinement or atomic coordinate data resulting 
# from the CCDC's data processing and validation procedures.
#
#######################################################################

data_HIWKII
_chemical_formula_moiety         '(C12 H20 Mn2 N10 Nb1 O10)n'
_symmetry_cell_setting           monoclinic
_symmetry_space_group_name_H-M   'C 2/c'
_symmetry_Int_Tables_number      15
_space_group_name_Hall           '-C 2yc'
loop_
_symmetry_equiv_pos_site_id
_symmetry_equiv_pos_as_xyz
1 x,y,z
2 1/2+x,1/2+y,z
3 -x,y,1/2-z
4 1/2-x,1/2+y,1/2-z
5 -x,-y,-z
6 1/2-x,1/2-y,-z
7 x,-y,1/2+z
8 1/2+x,1/2-y,1/2+z
_cell_length_a                   15.875(5)
_cell_length_b                   15.061(5)
_cell_length_c                   12.052(5)
_cell_angle_alpha                90
_cell_angle_beta                 108.215(5)
_cell_angle_gamma                90
_cell_volume                     2737.16
loop_
_atom_site_label
_atom_site_type_symbol
_atom_site_fract_x
_atom_site_fract_y
_atom_site_fract_z
Nb1 Nb -0.5 0.205058(16) -0.25
Mn1 Mn -0.23066(2) 0.46216(2) -0.14239(3)
O1 O -0.28840(18) 0.54121(15) -0.0341(2)
H1 H -0.3029 0.5982 -0.0512
H2 H -0.2892 0.5315 0.0397
O2 O -0.31324(14) 0.52028(14) -0.30850(18)
H3 H -0.3074 0.5796 -0.3163
H4 H -0.3717 0.5109 -0.3298
O3 O -0.16763(12) 0.38484(14) -0.24826(18)
N1 N -0.32947(14) 0.35335(15) -0.1761(2)
N2 N -0.5078(2) 0.3073(2) -0.0029(3)
N3 N -0.64554(14) 0.09806(15) -0.47896(18)
N4 N -0.63184(14) 0.06952(15) -0.14752(19)
N5 N -0.08533(13) 0.38974(14) -0.24827(18)
C1 C -0.38549(15) 0.30176(15) -0.2010(2)
C2 C -0.50563(16) 0.27238(18) -0.0857(2)
C3 C -0.59724(14) 0.13421(15) -0.40033(19)
C4 C -0.58739(15) 0.11551(15) -0.18101(19)
C5 C -0.06837(17) 0.39171(18) -0.3505(2)
H5 H -0.1149 0.3929 -0.4203
C6 C -0.01708(17) 0.3920(2) -0.1482(2)
H6 H -0.0285 0.3937 -0.0771
Mn1B Mn -0.76934(2) 0.46216(2) -0.35761(3)
Mn1G Mn -0.73066(2) 0.03784(2) -0.64239(3)
Mn1A Mn -0.73066(2) -0.03784(2) -0.14239(3)
Mn1B_2 Mn 0.23066(2) 0.46216(2) -0.35761(3)
Mn1E Mn -0.26934(2) 0.03784(2) 0.14239(3)
Mn1C Mn -0.26934(2) -0.03784(2) -0.35761(3)
O1B O -0.71160(18) 0.54121(15) -0.4659(2)
H1B H -0.6971 0.5982 -0.4488
H2B H -0.7108 0.5315 -0.5397
O2B O -0.68676(14) 0.52028(14) -0.19150(18)
H3B H -0.6926 0.5796 -0.1837
H4B H -0.6283 0.5109 -0.1702
O3B O 0.16763(12) 0.38484(14) -0.25174(18)
O3B_2 O -0.83237(12) 0.38484(14) -0.25174(18)
N1B N -0.67053(14) 0.35335(15) -0.3239(2)
N2B N -0.4922(2) 0.3073(2) -0.4971(3)
N3B N -0.35446(14) 0.09806(15) -0.02104(18)
N3G N -0.14554(14) 0.40194(15) 0.02104(18)
N3E N -0.85446(14) 0.40194(15) -0.52104(18)
N4B N -0.36816(14) 0.06952(15) -0.35248(19)
N4A N -0.13184(14) 0.56952(15) -0.14752(19)
N4C N -0.86816(14) 0.56952(15) -0.35248(19)
N5B N 0.08533(13) 0.38974(14) -0.25173(18)
C1B C -0.61451(15) 0.30176(15) -0.2990(2)
C2B C -0.49437(16) 0.27238(18) -0.4143(2)
C3B C -0.40276(14) 0.13421(15) -0.09967(19)
C4B C -0.41261(15) 0.11551(15) -0.31899(19)
C5B C 0.06837(17) 0.39171(18) -0.1495(2)
H5B H 0.1149 0.3929 -0.0797
C6B C 0.01708(17) 0.3920(2) -0.3518(2)
H6B H 0.0285 0.3937 -0.4229
O4 O -0.1832(2) 0.19635(19) -0.1546(4)
H7 H -0.1744 0.1905 -0.2264
H8 H -0.2069 0.2513 -0.1562
O5 O 0.0096(3) 0.0005(3) -0.3698(6)
H9 H -0.0408 -0.0289 -0.4008
H10 H 0.011 0.0373 -0.3142
O6 O -0.1751(6) 0.2076(3) -0.4069(7)
H11 H -0.2184 0.2406 -0.3928
H12 H -0.1892 0.2122 -0.491
O7 O 0.00000 0.1828(5) -0.25
loop_
_geom_bond_atom_site_label_1
_geom_bond_atom_site_label_2
_geom_bond_site_symmetry_1
_geom_bond_site_symmetry_2
Nb1 C1 1_555 1_555
Mn1 O1 1_555 1_555
O1 H1 1_555 1_555
H2 O1 1_555 1_555
O2 Mn1 1_555 1_555
H3 O2 1_555 1_555
H4 O2 1_555 1_555
O3 Mn1 1_555 1_555
N1 Mn1 1_555 1_555
N2 C2 1_555 1_555
N3 C3 1_555 1_555
N4 C4 1_555 1_555
N5 O3 1_555 1_555
C1 N1 1_555 1_555
C2 Nb1 1_555 1_555
C3 Nb1 1_555 1_555
C4 Nb1 1_555 1_555
C5 N5 1_555 1_555
H5 C5 1_555 1_555
C6 N5 1_555 1_555
H6 C6 1_555 1_555
O4 H7 1_555 1_555
H8 O4 1_555 1_555
O5 H9 1_555 1_555
H10 O5 1_555 1_555
O6 H11 1_555 1_555
H12 O6 1_555 1_555
Mn1B O1B 1_555 1_555
Mn1G N3 1_555 1_555
Mn1A N4 1_555 1_555
Mn1B_2 O3B 1_555 1_555
Mn1E N3B 1_555 1_555
Mn1C N4B 1_555 1_555
O1B H1B 1_555 1_555
H2B O1B 1_555 1_555
O2B Mn1B 1_555 1_555
H3B O2B 1_555 1_555
H4B O2B 1_555 1_555
O3B N5B 1_555 1_555
O3B_2 Mn1B 1_555 1_555
N1B Mn1B 1_555 1_555
N2B C2B 1_555 1_555
N3B C3B 1_555 1_555
N3G Mn1 1_555 1_555
N3E Mn1B 1_555 1_555
N4B C4B 1_555 1_555
N4A Mn1 1_555 1_555
N4C Mn1B 1_555 1_555
N5B C5B 1_555 1_555
C1B Nb1 1_555 1_555
C2B Nb1 1_555 1_555
C3B Nb1 1_555 1_555
C4B Nb1 1_555 1_555
C5B C6 1_555 1_555
H5B C5B 1_555 1_555
C6B C5 1_555 1_555
H6B C6B 1_555 1_555
N1B C1B 1_555 1_555
N5B C6B 1_555 1_555

#END
