
#######################################################################
#
#                 Cambridge Crystallographic Data Centre
#                                CCDC 
#
#######################################################################
#
# If this CIF has been generated from an entry in the Cambridge 
# Structural Database, then it will include bibliographic, chemical, 
# crystal, experimental, refinement or atomic coordinate data resulting 
# from the CCDC's data processing and validation procedures.
#
#######################################################################

data_WOSGUI
_chemical_formula_moiety         '(C25 H24 Co2 N16 O4)n'
_symmetry_cell_setting           tetragonal
_symmetry_space_group_name_H-M   'I 41/a'
_symmetry_Int_Tables_number      88
_space_group_name_Hall           '-I 4ad'
loop_
_symmetry_equiv_pos_site_id
_symmetry_equiv_pos_as_xyz
1 x,y,z
2 1/2-x,-y,1/2+z
3 3/4-y,1/4+x,1/4+z
4 3/4+y,3/4-x,3/4+z
5 1/2+x,1/2+y,1/2+z
6 -x,1/2-y,z
7 1/4-y,3/4+x,3/4+z
8 1/4+y,1/4-x,1/4+z
9 -x,-y,-z
10 1/2+x,y,1/2-z
11 1/4+y,3/4-x,3/4-z
12 1/4-y,1/4+x,1/4-z
13 1/2-x,1/2-y,1/2-z
14 x,1/2+y,-z
15 3/4+y,1/4-x,1/4-z
16 3/4-y,3/4+x,3/4-z
_cell_length_a                   10.29180(10)
_cell_length_b                   10.29180(10)
_cell_length_c                   33.1588(8)
_cell_angle_alpha                90
_cell_angle_beta                 90
_cell_angle_gamma                90
_cell_volume                     3512.22
loop_
_atom_site_label
_atom_site_type_symbol
_atom_site_fract_x
_atom_site_fract_y
_atom_site_fract_z
Co1 Co -0.0000 1.0000 0.0000
N1 N 0.0304(3) 0.9503(3) 0.06131(10)
N2 N -0.1349(3) 1.1488(3) 0.01986(11)
N3 N -0.1456(3) 1.2584(3) 0.01105(10)
N4 N -0.1615(4) 1.3677(4) 0.00227(11)
C1 C 0.1471(4) 0.9069(4) 0.07322(12)
H1 H 0.2121 0.8949 0.0541
C2 C 0.1735(4) 0.8796(4) 0.11336(13)
C3 C 0.0782(4) 0.9005(4) 0.14220(14)
H2 H 0.0947 0.8854 0.1694
C4 C -0.0417(5) 0.9442(5) 0.12949(15)
H3 H -0.1079 0.9583 0.1481
C5 C -0.0626(4) 0.9668(4) 0.08900(15)
H4 H -0.1443 0.9946 0.0807
C6 C 0.3877(4) 0.7970(4) 0.09848(11)
H5 H 0.4144 0.8697 0.0818
H6 H 0.3564 0.7276 0.0812
C7 C 0.5000 0.7500 0.1250
O1 O 0.2887(3) 0.8362(3) 0.12706(8)
N1E N 0.9696(3) 0.5497(3) 0.06131(10)
C1E C 0.8529(4) 0.5931(4) 0.07322(12)
H1E H 0.7879 0.6051 0.0541
C2E C 0.8265(4) 0.6204(4) 0.11336(13)
C3E C 0.9218(4) 0.5995(4) 0.14220(14)
H2E H 0.9053 0.6146 0.1694
C4E C 1.0417(5) 0.5558(5) 0.12949(15)
H3E H 1.1079 0.5417 0.1481
C5E C 1.0626(4) 0.5332(4) 0.08900(15)
H4E H 1.1443 0.5054 0.0807
C6E C 0.6123(4) 0.7030(4) 0.09848(11)
H5E H 0.5856 0.6303 0.0818
H6E H 0.6436 0.7724 0.0812
O1E O 0.7113(3) 0.6638(3) 0.12706(8)
N1K N 0.2997(3) 0.2804(3) 0.18869(10)
C1K C 0.3431(4) 0.3971(4) 0.17678(12)
H1K H 0.3551 0.4621 0.1959
C2K C 0.3704(4) 0.4235(4) 0.13664(13)
C3K C 0.3495(4) 0.3282(4) 0.10780(14)
H2K H 0.3646 0.3447 0.0806
C4K C 0.3058(5) 0.2083(5) 0.12051(15)
H3K H 0.2917 0.1421 0.1019
C5K C 0.2832(4) 0.1874(4) 0.16100(15)
H4K H 0.2554 0.1057 0.1693
C6K C 0.4530(4) 0.6377(4) 0.15152(11)
H5K H 0.3803 0.6644 0.1682
H6K H 0.5224 0.6064 0.1688
O1K O 0.4138(3) 0.5387(3) 0.12294(8)
N1N N 0.7003(3) 1.2196(3) 0.18869(10)
C1N C 0.6569(4) 1.1029(4) 0.17678(12)
H1N H 0.6449 1.0379 0.1959
C2N C 0.6296(4) 1.0765(4) 0.13664(13)
C3N C 0.6505(4) 1.1718(4) 0.10780(14)
H2N H 0.6354 1.1553 0.0806
C4N C 0.6942(5) 1.2917(5) 0.12051(15)
H3N H 0.7083 1.3579 0.1019
C5N C 0.7168(4) 1.3126(4) 0.16100(15)
H4N H 0.7446 1.3943 0.1693
C6N C 0.5470(4) 0.8623(4) 0.15152(11)
H5N H 0.6197 0.8356 0.1682
H6N H 0.4776 0.8936 0.1688
O1N O 0.5862(3) 0.9613(3) 0.12294(8)
Co1E Co 0.0000 1.5000 0.0000
N2E N 0.1349(3) 1.3512(3) 0.01986(11)
N3E N 0.1456(3) 1.2416(3) 0.01105(10)
N4E N 0.1615(4) 1.1323(4) 0.00227(11)
N2H N 0.1349(3) 0.8512(3) -0.01986(11)
N3H N 0.1456(3) 0.7416(3) -0.01105(10)
N4H N 0.1615(4) 0.6323(4) -0.00227(11)
N2M N -0.1349(3) 0.6488(3) -0.01986(11)
N3M N -0.1456(3) 0.7584(3) -0.01105(10)
N4M N -0.1615(4) 0.8677(4) -0.00227(11)
Co1B Co 0.7500 1.2500 0.2500
Co1E_2 Co -0.0000 0.5000 0.0000
Co1E_3 Co 1.0000 0.5000 0.0000
Co1G Co 0.2500 0.2500 0.2500
N1E_2 N -0.0304(3) 1.5497(3) 0.06131(10)
N1H N -0.0304(3) 1.0497(3) -0.06131(10)
N1M N 0.0304(3) 1.4503(3) -0.06131(10)
N2M_2 N -0.1349(3) 1.6488(3) -0.01986(11)
N4H_2 N 0.1615(4) 1.6323(4) -0.00227(11)
loop_
_geom_bond_atom_site_label_1
_geom_bond_atom_site_label_2
_geom_bond_site_symmetry_1
_geom_bond_site_symmetry_2
Co1 N1 1_555 1_555
N1 C1 1_555 1_555
N2 Co1 1_555 1_555
N3 N2 1_555 1_555
N4 N3 1_555 1_555
C1 H1 1_555 1_555
C2 C1 1_555 1_555
C3 C2 1_555 1_555
H2 C3 1_555 1_555
C4 C3 1_555 1_555
H3 C4 1_555 1_555
C5 N1 1_555 1_555
H4 C5 1_555 1_555
C6 H5 1_555 1_555
H6 C6 1_555 1_555
C7 C6 1_555 1_555
O1 C2 1_555 1_555
N1E C1E 1_555 1_555
C1E H1E 1_555 1_555
C2E C1E 1_555 1_555
C3E C2E 1_555 1_555
H2E C3E 1_555 1_555
C4E C3E 1_555 1_555
H3E C4E 1_555 1_555
C5E N1E 1_555 1_555
H4E C5E 1_555 1_555
C6E C7 1_555 1_555
H5E C6E 1_555 1_555
H6E C6E 1_555 1_555
O1E C2E 1_555 1_555
N1K C1K 1_555 1_555
C1K H1K 1_555 1_555
C2K C1K 1_555 1_555
C3K C2K 1_555 1_555
H2K C3K 1_555 1_555
C4K C3K 1_555 1_555
H3K C4K 1_555 1_555
C5K N1K 1_555 1_555
H4K C5K 1_555 1_555
C6K C7 1_555 1_555
H5K C6K 1_555 1_555
H6K C6K 1_555 1_555
O1K C2K 1_555 1_555
N1N C1N 1_555 1_555
C1N H1N 1_555 1_555
C2N C1N 1_555 1_555
C3N C2N 1_555 1_555
H2N C3N 1_555 1_555
C4N C3N 1_555 1_555
H3N C4N 1_555 1_555
C5N N1N 1_555 1_555
H4N C5N 1_555 1_555
C6N C7 1_555 1_555
H5N C6N 1_555 1_555
H6N C6N 1_555 1_555
O1N C2N 1_555 1_555
Co1E N4 1_555 1_555
N2E Co1E 1_555 1_555
N3E N2E 1_555 1_555
N4E Co1 1_555 1_555
N2H Co1 1_555 1_555
N3H N2H 1_555 1_555
N4H N3H 1_555 1_555
N2M N3M 1_555 1_555
N3M N4M 1_555 1_555
N4M Co1 1_555 1_555
Co1B N1N 1_555 1_555
Co1E_2 N4H 1_555 1_555
Co1E_3 N1E 1_555 1_555
Co1G N1K 1_555 1_555
N1E_2 Co1E 1_555 1_555
N1H Co1 1_555 1_555
N1M Co1E 1_555 1_555
N2M_2 Co1E 1_555 1_555
N4H_2 Co1E 1_555 1_555
C4 C5 1_555 1_555
C6 O1 1_555 1_555
C4E C5E 1_555 1_555
C6E O1E 1_555 1_555
C4K C5K 1_555 1_555
C6K O1K 1_555 1_555
C4N C5N 1_555 1_555
C6N O1N 1_555 1_555
N3E N4E 1_555 1_555
N2M Co1E_2 1_555 1_555

#END
