
#######################################################################
#
#                 Cambridge Crystallographic Data Centre
#                                CCDC 
#
#######################################################################
#
# If this CIF has been generated from an entry in the Cambridge 
# Structural Database, then it will include bibliographic, chemical, 
# crystal, experimental, refinement or atomic coordinate data resulting 
# from the CCDC's data processing and validation procedures.
#
#######################################################################

data_IJIGOX
_chemical_formula_moiety         'C6 H2 Co11 Ga10 N2 O58 P10'
_symmetry_cell_setting           triclinic
_symmetry_space_group_name_H-M   'P -1'
_symmetry_Int_Tables_number      2
_space_group_name_Hall           '-P 1'
loop_
_symmetry_equiv_pos_site_id
_symmetry_equiv_pos_as_xyz
1 x,y,z
2 -x,-y,-z
_cell_length_a                   9.848(20)
_cell_length_b                   12.470(32)
_cell_length_c                   12.603(28)
_cell_angle_alpha                63.47(16)
_cell_angle_beta                 74.56(16)
_cell_angle_gamma                76.03(17)
_cell_volume                     1321.22
loop_
_atom_site_label
_atom_site_type_symbol
_atom_site_fract_x
_atom_site_fract_y
_atom_site_fract_z
N1 N -0.0045(14) 0.4158(10) 0.6219(10)
C1 C -0.0727(13) 0.4004(9) 0.5392(11)
C2 C 0.1214(11) 0.4776(12) 0.5531(13)
C3 C 0.0420(30) 0.2921(16) 0.7117(20)
C2A C -0.1214(11) 0.5224(12) 0.4469(13)
N1A N 0.0045(14) 0.5842(10) 0.3781(10)
C1A C 0.0727(13) 0.5996(9) 0.4608(11)
C3A C -0.0420(30) 0.7079(16) 0.2883(20)
Ga1 Ga 0.2002(2) 0.88246(15) 0.51811(15)
Ga2 Ga 0.0973(2) 1.40144(15) 0.16234(14)
Ga3 Ga 0.3669(2) 1.1619(2) 0.5060(2)
Co1 Co 0.3921(2) 0.6602(2) 0.9031(2)
Co2 Co 0.5314(2) 0.5353(2) 0.3100(2)
P1 P 0.1157(4) 1.1694(3) 0.4004(3)
P2 P 0.3616(4) 0.8967(3) 0.6851(3)
P3 P 0.3387(4) 1.5087(3) 0.1706(3)
P4 P 0.4518(4) 0.6979(3) 0.4512(3)
P5 P 0.2102(3) 1.4894(3) -0.1169(3)
O2 O 0.3449(10) 0.8111(9) 0.4332(9)
O3 O 0.2367(11) 0.8668(9) 0.6602(8)
O4 O 0.1828(13) 1.0447(8) 0.4144(8)
O5 O -0.0392(11) 1.1783(10) 0.4638(9)
O6 O 0.1569(10) 1.4008(8) 0.0107(7)
O7 O 0.0909(9) 1.5331(9) -0.1890(8)
O8 O 0.1271(11) 1.2421(8) 0.2645(8)
O9 O 0.1814(9) 1.4965(8) 0.1994(8)
O10 O 0.1928(9) 1.2232(9) 0.4526(8)
O11 O 0.3419(12) 1.0293(8) 0.6552(9)
O12 O 0.4976(13) 0.8579(12) 0.6154(10)
O13 O 0.5909(10) 0.7194(8) 0.4621(9)
O14 O 0.3654(10) 0.8278(8) 0.8210(7)
O15 O 0.2564(10) 1.5947(8) -0.1159(9)
O16 O 0.4216(10) 1.4062(9) 0.1370(10)
O17 O 0.3656(10) 1.6300(8) 0.0660(8)
O18 O 0.4692(14) 0.6693(9) 0.3423(9)
O19 O 0.3316(10) 1.4180(8) -0.1724(8)
O20 O 0.3940(9) 0.5942(8) 0.5629(8)
O21 O 0.3737(10) 1.5072(10) 0.2812(8)
P1A P -0.1157(4) 0.8306(3) 0.5996(3)
O4A O -0.1828(13) 0.9553(8) 0.5856(8)
O5A O 0.0392(11) 0.8217(10) 0.5362(9)
O8A O -0.1271(11) 0.7579(8) 0.7355(8)
O10A O -0.1928(9) 0.7768(9) 0.5474(8)
Ga1A Ga -0.2002(2) 1.11754(15) 0.48189(15)
Ga2A Ga -0.0973(2) 0.59856(15) 0.83766(14)
Ga3A Ga -0.3669(2) 0.8381(2) 0.4940(2)
Co2A Co 0.4686(2) 0.4647(2) 0.6900(2)
P5A P -0.2102(3) 1.5106(3) 0.1169(3)
O6A O -0.1569(10) 1.5992(8) -0.0107(7)
O7A O -0.0909(9) 1.4669(9) 0.1890(8)
O15A O -0.2564(10) 1.4053(8) 0.1159(9)
O19A O -0.3316(10) 1.5820(8) 0.1724(8)
P2A P 0.6384(4) 1.1033(3) 0.3149(3)
O3A O 0.7633(11) 1.1332(9) 0.3398(8)
O11A O 0.6581(12) 0.9707(8) 0.3448(9)
O12A O 0.5024(13) 1.1421(12) 0.3846(10)
O14A O 0.6346(10) 1.1722(8) 0.1790(7)
P4A P 0.5482(4) 1.3021(3) 0.5488(3)
O2A O 0.6551(10) 1.1889(9) 0.5668(9)
O13A O 0.4091(10) 1.2806(8) 0.5379(9)
O18A O 0.5308(14) 1.3307(9) 0.6577(9)
O20A O 0.6060(9) 1.4058(8) 0.4371(8)
P3A P 0.6613(4) 0.4913(3) 0.8294(3)
O9A O 0.8186(9) 0.5035(8) 0.8006(8)
O16A O 0.5784(10) 0.5938(9) 0.8630(10)
O17A O 0.6344(10) 0.3700(8) 0.9340(8)
O21A O 0.6263(10) 0.4928(10) 0.7188(8)
Co1A Co 0.6079(2) 1.3398(2) 0.0969(2)
O15_2 O 0.2564(10) 0.5947(8) 0.8841(9)
O17_2 O 0.3656(10) 0.6300(8) 1.0660(8)
O19A_2 O 0.6684(10) 0.5820(8) 0.1724(8)
O20A_2 O 0.6060(9) 0.4058(8) 0.4371(8)
O21_2 O 0.3737(10) 0.5072(10) 0.2812(8)
Ga2A_2 Ga -0.0973(2) 1.59856(15) -0.16234(14)
Ga3A_2 Ga 0.6331(2) 0.8381(2) 0.4940(2)
Co1_2 Co 0.3921(2) 1.6602(2) -0.0969(2)
Co2A_2 Co 0.4686(2) 1.4647(2) -0.3100(2)
Co2_2 Co 0.5314(2) 1.5353(2) 0.3100(2)
O2A_2 O -0.3449(10) 1.1889(9) 0.5668(9)
O3A_2 O -0.2367(11) 1.1332(9) 0.3398(8)
O6A_2 O -0.1569(10) 0.5992(8) 0.9893(7)
O7_2 O 0.0909(9) 0.5331(9) 0.8110(8)
O9A_2 O -0.1814(9) 0.5035(8) 0.8006(8)
O11A_2 O -0.3419(12) 0.9707(8) 0.3448(9)
O12_2 O -0.5024(13) 0.8579(12) 0.6154(10)
O13_2 O -0.4091(10) 0.7194(8) 0.4621(9)
O18A_2 O 0.5308(14) 0.3307(9) 0.6577(9)
O19_2 O 0.3316(10) 0.4180(8) 0.8276(8)
Co1A_2 Co -0.3921(2) 1.3398(2) 0.0969(2)
Co2_3 Co -0.4686(2) 1.5353(2) 0.3100(2)
Ga1A_2 Ga 0.7998(2) 1.11754(15) 0.48189(15)
Co2A_3 Co 0.4686(2) 1.4647(2) 0.6900(2)
Ga2A_3 Ga 0.9027(2) 0.59856(15) 0.83766(14)
Co1A_3 Co 0.6079(2) 0.3398(2) 1.0969(2)
O15A_2 O 0.7436(10) 1.4053(8) 0.1159(9)
O17A_2 O 0.6344(10) 1.3700(8) -0.0660(8)
O1 O -0.385(14) 0.932(12) 1.006(13)
loop_
_geom_bond_atom_site_label_1
_geom_bond_atom_site_label_2
_geom_bond_site_symmetry_1
_geom_bond_site_symmetry_2
N1 C1 1_555 1_555
C1 C2A 1_555 1_555
C2 N1 1_555 1_555
C3 N1 1_555 1_555
Ga1 O2 1_555 1_555
Ga2 O6 1_555 1_555
Ga3 O10 1_555 1_555
Co1 O14 1_555 1_555
Co2 O18 1_555 1_555
P1 O4 1_555 1_555
P2 O3 1_555 1_555
P3 O9 1_555 1_555
P4 O2 1_555 1_555
P5 O6 1_555 1_555
O3 Ga1 1_555 1_555
O4 Ga1 1_555 1_555
O5 P1 1_555 1_555
O7 P5 1_555 1_555
O8 Ga2 1_555 1_555
O9 Ga2 1_555 1_555
O10 P1 1_555 1_555
O11 Ga3 1_555 1_555
O12 P2 1_555 1_555
O13 P4 1_555 1_555
O14 P2 1_555 1_555
O15 P5 1_555 1_555
O16 P3 1_555 1_555
O17 P3 1_555 1_555
O18 P4 1_555 1_555
O19 P5 1_555 1_555
O20 P4 1_555 1_555
O21 P3 1_555 1_555
C2A N1A 1_555 1_555
N1A C1A 1_555 1_555
C1A C2 1_555 1_555
C3A N1A 1_555 1_555
P1A O4A 1_555 1_555
O4A Ga1A 1_555 1_555
O5A Ga1 1_555 1_555
O8A P1A 1_555 1_555
O10A P1A 1_555 1_555
Ga1A O5 1_555 1_555
Ga2A O8A 1_555 1_555
Ga3A O10A 1_555 1_555
Co2A O20 1_555 1_555
P5A O6A 1_555 1_555
O6A Ga2A_2 1_555 1_555
O7A Ga2 1_555 1_555
O15A P5A 1_555 1_555
O19A P5A 1_555 1_555
P2A O3A 1_555 1_555
O3A Ga1A_2 1_555 1_555
O11A P2A 1_555 1_555
O12A Ga3 1_555 1_555
O14A P2A 1_555 1_555
P4A O2A 1_555 1_555
O2A Ga1A_2 1_555 1_555
O13A Ga3 1_555 1_555
O18A P4A 1_555 1_555
O20A P4A 1_555 1_555
P3A O9A 1_555 1_555
O9A Ga2A_3 1_555 1_555
O16A Co1 1_555 1_555
O17A P3A 1_555 1_555
O21A Co2A 1_555 1_555
Co1A O16 1_555 1_555
O15_2 Co1 1_555 1_555
O17_2 Co1 1_555 1_555
O19A_2 Co2 1_555 1_555
O20A_2 Co2 1_555 1_555
O21_2 Co2 1_555 1_555
Ga2A_2 O7 1_555 1_555
Ga3A_2 O12 1_555 1_555
Co1_2 O15 1_555 1_555
Co2A_2 O19 1_555 1_555
Co2_2 O21 1_555 1_555
O2A_2 Ga1A 1_555 1_555
O3A_2 Ga1A 1_555 1_555
O6A_2 Ga2A 1_555 1_555
O7_2 Ga2A 1_555 1_555
O9A_2 Ga2A 1_555 1_555
O11A_2 Ga3A 1_555 1_555
O12_2 Ga3A 1_555 1_555
O13_2 Ga3A 1_555 1_555
O18A_2 Co2A 1_555 1_555
O19_2 Co2A 1_555 1_555
Co1A_2 O15A 1_555 1_555
Co2_3 O19A 1_555 1_555
Co2A_3 O18A 1_555 1_555
Co1A_3 O17A 1_555 1_555
O15A_2 Co1A 1_555 1_555
O17A_2 Co1A 1_555 1_555
P1 O8 1_555 1_555
P2 O11 1_555 1_555
O13 Ga3A_2 1_555 1_555
O17 Co1_2 1_555 1_555
P1A O5A 1_555 1_555
P5A O7A 1_555 1_555
P2A O12A 1_555 1_555
O11A Ga3A_2 1_555 1_555
O14A Co1A 1_555 1_555
P4A O13A 1_555 1_555
O20A Co2_2 1_555 1_555
P3A O16A 1_555 1_555
P3A O21A 1_555 1_555

#END
