
#######################################################################
#
#                 Cambridge Crystallographic Data Centre
#                                CCDC 
#
#######################################################################
#
# If this CIF has been generated from an entry in the Cambridge 
# Structural Database, then it will include bibliographic, chemical, 
# crystal, experimental, refinement or atomic coordinate data resulting 
# from the CCDC's data processing and validation procedures.
#
#######################################################################

data_COSMII
_chemical_formula_moiety         '(C16 H15 In1 N4 O8)n'
_symmetry_cell_setting           rhombohedral
_symmetry_space_group_name_H-M   'R 3 c'
_symmetry_Int_Tables_number      161
_space_group_name_Hall           'R 3 -2"c'
loop_
_symmetry_equiv_pos_site_id
_symmetry_equiv_pos_as_xyz
1 x,y,z
2 -y,x-y,z
3 -x+y,-x,z
4 -y,-x,1/2+z
5 -x+y,y,1/2+z
6 x,x-y,1/2+z
7 2/3+x,1/3+y,1/3+z
8 2/3-y,1/3+x-y,1/3+z
9 2/3-x+y,1/3-x,1/3+z
10 2/3-y,1/3-x,5/6+z
11 2/3-x+y,1/3+y,5/6+z
12 2/3+x,1/3+x-y,5/6+z
13 1/3+x,2/3+y,2/3+z
14 1/3-y,2/3+x-y,2/3+z
15 1/3-x+y,2/3-x,2/3+z
16 1/3-y,2/3-x,1/6+z
17 1/3-x+y,2/3+y,1/6+z
18 1/3+x,2/3+x-y,1/6+z
_cell_length_a                   31.4162(16)
_cell_length_b                   31.4162(16)
_cell_length_c                   14.1226(14)
_cell_angle_alpha                90
_cell_angle_beta                 90
_cell_angle_gamma                120
_cell_volume                     12071.3
loop_
_atom_site_label
_atom_site_type_symbol
_atom_site_fract_x
_atom_site_fract_y
_atom_site_fract_z
_atom_site_U_iso_or_equiv
_atom_site_thermal_displace_type
In1 In 0.881484(12) 0.196850(12) -0.48263(2) 0.0406 Uani
O1 O 1.0437(2) 0.3202(2) -0.7193(4) 0.0856 Uani
O2 O 1.0996(2) 0.29875(17) -0.7097(3) 0.0641 Uani
O3 O 0.84075(18) 0.12944(18) -0.1109(3) 0.0584 Uani
O4 O 0.8907(2) 0.1065(3) -0.0527(4) 0.0881 Uani
O5 O 0.8179(3) 0.2096(3) -0.5640(6) 0.0972 Uani
O6 O 0.8940(2) 0.2585(2) -0.5815(4) 0.0766 Uani
O7 O 0.8407(5) 0.2709(5) -0.6578(9) 0.1636 Uani
O8 O 0.8147(2) 0.1325(2) -0.4391(4) 0.0706 Uani
N1 N 0.96212(15) 0.22213(14) -0.5094(3) 0.0385 Uani
N2 N 0.91165(16) 0.17241(15) -0.3600(3) 0.0408 Uani
N3 N 0.8489(3) 0.2453(3) -0.6015(7) 0.0906 Uani
N4 N 0.7403(4) 0.0759(4) -0.3998(10) 0.0706 Uani
C1 C 0.9870(2) 0.25100(19) -0.5823(4) 0.0469 Uani
H1 H 0.9717 0.2636 -0.6202 0.1000 Uiso
C2 C 1.0342(2) 0.2628(2) -0.6032(4) 0.0493 Uani
C3 C 1.0560(2) 0.2435(3) -0.5477(5) 0.0680 Uani
H2 H 1.0876 0.2499 -0.5611 0.1000 Uiso
C4 C 1.0307(2) 0.2148(3) -0.4725(5) 0.0689 Uani
H3 H 1.0453 0.2017 -0.4337 0.1000 Uiso
C5 C 0.9840(2) 0.2050(2) -0.4538(4) 0.0462 Uani
C6 C 0.95605(19) 0.1779(2) -0.3695(4) 0.0461 Uani
C7 C 0.9751(3) 0.1603(3) -0.3025(5) 0.0702 Uani
H4 H 1.0047 0.1610 -0.3125 0.1000 Uiso
C8 C 0.9487(3) 0.1414(3) -0.2190(5) 0.0717 Uani
H5 H 0.9610 0.1301 -0.1714 0.1000 Uiso
C9 C 0.9048(2) 0.1395(2) -0.2072(4) 0.0519 Uani
C10 C 0.88732(19) 0.15451(19) -0.2800(3) 0.0430 Uani
H6 H 0.8567 0.1521 -0.2733 0.1000 Uiso
C11 C 1.0597(2) 0.2963(2) -0.6837(4) 0.0574 Uani
C12 C 0.8770(2) 0.1230(3) -0.1151(4) 0.0561 Uani
C13 C 0.7734(4) 0.1233(4) -0.4156(12) 0.0706 Uani
C14 C 0.7644(5) 0.0428(5) -0.3857(12) 0.0706 Uani
H7 H 0.7486 0.0206 -0.3340 0.1000 Uiso
H8 H 0.7987 0.0633 -0.3720 0.1000 Uiso
H9 H 0.7605 0.0245 -0.4425 0.1000 Uiso
C15 C 0.6894(4) 0.0525(5) -0.3772(12) 0.0706 Uani
H10 H 0.6769 0.0179 -0.3689 0.1000 Uiso
H11 H 0.6720 0.0576 -0.4278 0.1000 Uiso
H12 H 0.6851 0.0662 -0.3198 0.1000 Uiso
C16 C 0.7584(5) 0.1581(5) -0.3858(12) 0.0706 Uani
H13 H 0.7236 0.1410 -0.3739 0.1000 Uiso
H14 H 0.7659 0.1820 -0.4349 0.1000 Uiso
H15 H 0.7756 0.1744 -0.3290 0.1000 Uiso
In1C In 0.803150(12) 0.118516(12) 0.01737(2) 0.0406 Uani
In1M In 1.136483(12) 0.351301(17) -0.81596(2) 0.0406 Uani
O2H O 0.86582(26) 0.2337(2) -0.3764(3) 0.0641 Uani
O3C O 0.87056(18) 0.15925(18) -0.6109(3) 0.0584 Uani
loop_
_atom_site_aniso_label
_atom_site_aniso_U_11
_atom_site_aniso_U_22
_atom_site_aniso_U_33
_atom_site_aniso_U_23
_atom_site_aniso_U_13
_atom_site_aniso_U_12
In1 0.04580(18) 0.04570(18) 0.02884(16) -0.01089(12) -0.00287(12) 0.02174(14)
O1 0.086(4) 0.094(4) 0.078(4) 0.048(3) 0.035(3) 0.046(3)
O2 0.073(3) 0.061(2) 0.043(2) 0.0195(18) 0.026(2) 0.022(2)
O3 0.068(3) 0.070(3) 0.042(2) 0.0091(18) 0.0223(18) 0.038(2)
O4 0.080(3) 0.146(5) 0.047(3) 0.042(3) 0.025(2) 0.063(3)
O5 0.096(2) 0.099(2) 0.098(2) -0.0025(10) -0.0016(10) 0.0497(13)
O6 0.0784(16) 0.0754(16) 0.0771(17) 0.0007(9) -0.0018(9) 0.0392(11)
O7 0.164(4) 0.164(4) 0.164(4) 0.0014(10) -0.0021(10) 0.083(2)
O8 0.0699(10) 0.0704(10) 0.0702(10) -0.0005(4) 0.0004(4) 0.0341(6)
N1 0.0416(19) 0.0414(19) 0.0284(19) 0.0012(14) 0.0084(14) 0.0176(16)
N2 0.044(2) 0.049(2) 0.028(2) 0.0021(15) 0.0093(15) 0.0221(18)
N3 0.092(2) 0.091(2) 0.091(2) 0.0014(10) -0.0036(10) 0.0473(13)
N4 0.0699(10) 0.0704(10) 0.0702(10) -0.0005(4) 0.0004(4) 0.0341(6)
C1 0.049(3) 0.046(2) 0.038(3) 0.0087(19) 0.012(2) 0.018(2)
C2 0.053(3) 0.051(3) 0.032(3) 0.0074(19) 0.011(2) 0.017(2)
C3 0.051(3) 0.104(5) 0.044(3) 0.020(3) 0.019(3) 0.035(3)
C4 0.053(3) 0.101(5) 0.052(4) 0.027(3) 0.016(3) 0.038(3)
C5 0.050(3) 0.053(3) 0.032(2) 0.0084(19) 0.0083(19) 0.023(2)
C6 0.044(2) 0.061(3) 0.029(2) 0.011(2) 0.0114(18) 0.023(2)
C7 0.060(3) 0.106(5) 0.052(4) 0.030(3) 0.021(3) 0.047(4)
C8 0.069(4) 0.112(6) 0.043(3) 0.035(4) 0.023(3) 0.052(4)
C9 0.057(3) 0.066(3) 0.033(2) 0.009(2) 0.013(2) 0.031(3)
C10 0.043(2) 0.056(3) 0.029(2) 0.0063(19) 0.0109(18) 0.024(2)
C11 0.066(3) 0.053(3) 0.043(3) 0.011(2) 0.022(3) 0.022(3)
C12 0.058(3) 0.068(3) 0.031(2) 0.010(2) 0.012(2) 0.023(3)
C13 0.0699(10) 0.0704(10) 0.0702(10) -0.0005(4) 0.0004(4) 0.0341(6)
C14 0.0699(10) 0.0704(10) 0.0702(10) -0.0005(4) 0.0004(4) 0.0341(6)
C15 0.0699(10) 0.0704(10) 0.0702(10) -0.0005(4) 0.0004(4) 0.0341(6)
C16 0.0699(10) 0.0704(10) 0.0702(10) -0.0005(4) 0.0004(4) 0.0341(6)
In1C 0.0457 0.0458 0.02884 0.00287 0.01089 0.02174
In1M 0.0457 0.04802 0.02884 0.00802 0.01089 0.02396
O2H 0.09 0.073 0.043 -0.026 -0.0065 0.051
O3C 0.07 0.068 0.042 -0.0223 -0.0091 0.038
loop_
_geom_bond_atom_site_label_1
_geom_bond_atom_site_label_2
_geom_bond_site_symmetry_1
_geom_bond_site_symmetry_2
In1 O5 1_555 1_555
O1 C11 1_555 1_555
O2 C11 1_555 1_555
O3 C12 1_555 1_555
O4 C12 1_555 1_555
O5 N3 1_555 1_555
O6 In1 1_555 1_555
O7 N3 1_555 1_555
O8 In1 1_555 1_555
N1 In1 1_555 1_555
N2 In1 1_555 1_555
N3 O6 1_555 1_555
N4 C13 1_555 1_555
C1 N1 1_555 1_555
H1 C1 1_555 1_555
C2 C1 1_555 1_555
C3 C2 1_555 1_555
H2 C3 1_555 1_555
C4 C3 1_555 1_555
H3 C4 1_555 1_555
C5 N1 1_555 1_555
C6 N2 1_555 1_555
C7 C6 1_555 1_555
H4 C7 1_555 1_555
C8 C7 1_555 1_555
H5 C8 1_555 1_555
C9 C8 1_555 1_555
C10 N2 1_555 1_555
H6 C10 1_555 1_555
C11 C2 1_555 1_555
C12 C9 1_555 1_555
C13 O8 1_555 1_555
C14 N4 1_555 1_555
H7 C14 1_555 1_555
H8 C14 1_555 1_555
H9 C14 1_555 1_555
C15 N4 1_555 1_555
H10 C15 1_555 1_555
H11 C15 1_555 1_555
H12 C15 1_555 1_555
C16 C13 1_555 1_555
H13 C16 1_555 1_555
H14 C16 1_555 1_555
H15 C16 1_555 1_555
In1C O3 1_555 1_555
In1M O2 1_555 1_555
O2H In1 1_555 1_555
O3C In1 1_555 1_555
C4 C5 1_555 1_555
C5 C6 1_555 1_555
C9 C10 1_555 1_555

#END
