
#######################################################################
#
#                 Cambridge Crystallographic Data Centre
#                                CCDC 
#
#######################################################################
#
# If this CIF has been generated from an entry in the Cambridge 
# Structural Database, then it will include bibliographic, chemical, 
# crystal, experimental, refinement or atomic coordinate data resulting 
# from the CCDC's data processing and validation procedures.
#
#######################################################################

data_OKERAY
_chemical_formula_moiety         'C156 H136 N35 Ni23 O16'
_symmetry_cell_setting           cubic
_symmetry_space_group_name_H-M   'F m -3 m'
_symmetry_Int_Tables_number      225
_space_group_name_Hall           '-F 4 2 3'
loop_
_symmetry_equiv_pos_site_id
_symmetry_equiv_pos_as_xyz
1 x,y,z
2 -y,x,z
3 x,-y,-z
4 z,x,y
5 -x,-y,z
6 y,x,-z
7 -x,z,y
8 y,-x,z
9 -x,y,-z
10 -z,-x,y
11 -y,-x,-z
12 x,-z,y
13 z,-x,-y
14 -x,-z,-y
15 -z,x,-y
16 x,z,-y
17 y,z,x
18 z,-y,x
19 -z,y,x
20 z,y,-x
21 y,-z,-x
22 -z,-y,-x
23 -y,z,-x
24 -y,-z,x
25 x,1/2+y,1/2+z
26 -y,1/2+x,1/2+z
27 x,1/2-y,1/2-z
28 z,1/2+x,1/2+y
29 -x,1/2-y,1/2+z
30 y,1/2+x,1/2-z
31 -x,1/2+z,1/2+y
32 y,1/2-x,1/2+z
33 -x,1/2+y,1/2-z
34 -z,1/2-x,1/2+y
35 -y,1/2-x,1/2-z
36 x,1/2-z,1/2+y
37 z,1/2-x,1/2-y
38 -x,1/2-z,1/2-y
39 -z,1/2+x,1/2-y
40 x,1/2+z,1/2-y
41 y,1/2+z,1/2+x
42 z,1/2-y,1/2+x
43 -z,1/2+y,1/2+x
44 z,1/2+y,1/2-x
45 y,1/2-z,1/2-x
46 -z,1/2-y,1/2-x
47 -y,1/2+z,1/2-x
48 -y,1/2-z,1/2+x
49 1/2+x,y,1/2+z
50 1/2-y,x,1/2+z
51 1/2+x,-y,1/2-z
52 1/2+z,x,1/2+y
53 1/2-x,-y,1/2+z
54 1/2+y,x,1/2-z
55 1/2-x,z,1/2+y
56 1/2+y,-x,1/2+z
57 1/2-x,y,1/2-z
58 1/2-z,-x,1/2+y
59 1/2-y,-x,1/2-z
60 1/2+x,-z,1/2+y
61 1/2+z,-x,1/2-y
62 1/2-x,-z,1/2-y
63 1/2-z,x,1/2-y
64 1/2+x,z,1/2-y
65 1/2+y,z,1/2+x
66 1/2+z,-y,1/2+x
67 1/2-z,y,1/2+x
68 1/2+z,y,1/2-x
69 1/2+y,-z,1/2-x
70 1/2-z,-y,1/2-x
71 1/2-y,z,1/2-x
72 1/2-y,-z,1/2+x
73 1/2+x,1/2+y,z
74 1/2-y,1/2+x,z
75 1/2+x,1/2-y,-z
76 1/2+z,1/2+x,y
77 1/2-x,1/2-y,z
78 1/2+y,1/2+x,-z
79 1/2-x,1/2+z,y
80 1/2+y,1/2-x,z
81 1/2-x,1/2+y,-z
82 1/2-z,1/2-x,y
83 1/2-y,1/2-x,-z
84 1/2+x,1/2-z,y
85 1/2+z,1/2-x,-y
86 1/2-x,1/2-z,-y
87 1/2-z,1/2+x,-y
88 1/2+x,1/2+z,-y
89 1/2+y,1/2+z,x
90 1/2+z,1/2-y,x
91 1/2-z,1/2+y,x
92 1/2+z,1/2+y,-x
93 1/2+y,1/2-z,-x
94 1/2-z,1/2-y,-x
95 1/2-y,1/2+z,-x
96 1/2-y,1/2-z,x
97 -x,-y,-z
98 y,-x,-z
99 -x,y,z
100 -z,-x,-y
101 x,y,-z
102 -y,-x,z
103 x,-z,-y
104 -y,x,-z
105 x,-y,z
106 z,x,-y
107 y,x,z
108 -x,z,-y
109 -z,x,y
110 x,z,y
111 z,-x,y
112 -x,-z,y
113 -y,-z,-x
114 -z,y,-x
115 z,-y,-x
116 -z,-y,x
117 -y,z,x
118 z,y,x
119 y,-z,x
120 y,z,-x
121 -x,1/2-y,1/2-z
122 y,1/2-x,1/2-z
123 -x,1/2+y,1/2+z
124 -z,1/2-x,1/2-y
125 x,1/2+y,1/2-z
126 -y,1/2-x,1/2+z
127 x,1/2-z,1/2-y
128 -y,1/2+x,1/2-z
129 x,1/2-y,1/2+z
130 z,1/2+x,1/2-y
131 y,1/2+x,1/2+z
132 -x,1/2+z,1/2-y
133 -z,1/2+x,1/2+y
134 x,1/2+z,1/2+y
135 z,1/2-x,1/2+y
136 -x,1/2-z,1/2+y
137 -y,1/2-z,1/2-x
138 -z,1/2+y,1/2-x
139 z,1/2-y,1/2-x
140 -z,1/2-y,1/2+x
141 -y,1/2+z,1/2+x
142 z,1/2+y,1/2+x
143 y,1/2-z,1/2+x
144 y,1/2+z,1/2-x
145 1/2-x,-y,1/2-z
146 1/2+y,-x,1/2-z
147 1/2-x,y,1/2+z
148 1/2-z,-x,1/2-y
149 1/2+x,y,1/2-z
150 1/2-y,-x,1/2+z
151 1/2+x,-z,1/2-y
152 1/2-y,x,1/2-z
153 1/2+x,-y,1/2+z
154 1/2+z,x,1/2-y
155 1/2+y,x,1/2+z
156 1/2-x,z,1/2-y
157 1/2-z,x,1/2+y
158 1/2+x,z,1/2+y
159 1/2+z,-x,1/2+y
160 1/2-x,-z,1/2+y
161 1/2-y,-z,1/2-x
162 1/2-z,y,1/2-x
163 1/2+z,-y,1/2-x
164 1/2-z,-y,1/2+x
165 1/2-y,z,1/2+x
166 1/2+z,y,1/2+x
167 1/2+y,-z,1/2+x
168 1/2+y,z,1/2-x
169 1/2-x,1/2-y,-z
170 1/2+y,1/2-x,-z
171 1/2-x,1/2+y,z
172 1/2-z,1/2-x,-y
173 1/2+x,1/2+y,-z
174 1/2-y,1/2-x,z
175 1/2+x,1/2-z,-y
176 1/2-y,1/2+x,-z
177 1/2+x,1/2-y,z
178 1/2+z,1/2+x,-y
179 1/2+y,1/2+x,z
180 1/2-x,1/2+z,-y
181 1/2-z,1/2+x,y
182 1/2+x,1/2+z,y
183 1/2+z,1/2-x,y
184 1/2-x,1/2-z,y
185 1/2-y,1/2-z,-x
186 1/2-z,1/2+y,-x
187 1/2+z,1/2-y,-x
188 1/2-z,1/2-y,x
189 1/2-y,1/2+z,x
190 1/2+z,1/2+y,x
191 1/2+y,1/2-z,x
192 1/2+y,1/2+z,-x
_cell_length_a                   31.3584(30)
_cell_length_b                   31.3584(30)
_cell_length_c                   31.3584(30)
_cell_angle_alpha                90
_cell_angle_beta                 90
_cell_angle_gamma                90
_cell_volume                     30836.3
loop_
_atom_site_label
_atom_site_type_symbol
_atom_site_fract_x
_atom_site_fract_y
_atom_site_fract_z
Ni1 Ni 0.04657(17) 0.04657(17) 0.04657(17)
O1 O 0.0662(11) 0.00000 0.00000
H1 H 0.09461 0.00000 0.00000
C1 C 0.000000 0.233090 0.23309
C2 C 0.031180 0.233250 0.201580
H2 H 0.052490 0.254780 0.201470
C3 C 0.031180 0.201910 0.170240
H3 H 0.052490 0.202020 0.148710
C4 C -0.000000 0.170400 0.17040
C5 C 0.000000 0.137700 0.13771
C6 C 0.035180 0.119630 0.119630
H4 H 0.063990 0.126250 0.126250
N1 N 0.021740 0.090390 0.090390
Ni1A Ni -0.04657(17) 0.04657(17) 0.04657(17)
Ni1G Ni 0.04657(17) -0.04657(17) 0.04657(17)
Ni1HA Ni -0.04657(17) 0.45343(17) 0.45343(17)
Ni1Z Ni 0.04657(17) 0.45343(17) 0.45343(17)
Ni1FB Ni 0.45343(17) -0.04657(17) 0.45343(17)
Ni1DB Ni 0.45343(17) 0.04657(17) 0.45343(17)
Ni1DC Ni 0.45343(17) 0.45343(17) -0.04657(17)
Ni1B Ni 0.04657(17) -0.04657(17) -0.04657(17)
Ni1E Ni 0.04657(17) 0.04657(17) -0.04657(17)
Ni1H Ni -0.04657(17) 0.04657(17) -0.04657(17)
Ni1D Ni -0.04657(17) -0.04657(17) 0.04657(17)
Ni1XB Ni 0.45343(17) 0.45343(17) 0.04657(17)
Ni1J Ni -0.04657(17) -0.04657(17) -0.04657(17)
Ni1XA Ni -0.45343(17) -0.04657(17) 0.45343(17)
Ni1AB Ni -0.45343(17) 0.04657(17) 0.45343(17)
Ni1VB Ni -0.45343(17) 0.45343(17) -0.04657(17)
Ni1AC Ni -0.45343(17) 0.45343(17) 0.04657(17)
Ni1FA Ni -0.04657(17) -0.45343(17) 0.45343(17)
Ni1CA Ni 0.04657(17) -0.45343(17) 0.45343(17)
Ni1BA Ni -0.04657(17) 0.45343(17) 0.54657(17)
Ni1Y Ni -0.04657(17) 0.54657(17) 0.54657(17)
Ni1FA_2 Ni -0.04657(17) 0.54657(17) 0.45343(17)
O1A O 0.00000 0.0662(11) 0.00000
O1P O 0.00000 0.00000 0.0662(11)
O1D O -0.0662(11) 0.00000 0.00000
O1G O 0.00000 -0.0662(11) 0.00000
O1BA O -0.0662(11) 0.50000 0.50000
O1QA O -0.00000 0.50000 0.4338(11)
O1EA O -0.00000 0.4338(11) 0.50000
O1X O 0.0662(11) 0.50000 0.50000
O1CB O 0.50000 -0.0662(11) 0.50000
O1ZA O 0.4338(11) 0.00000 0.50000
O1OB O 0.50000 0.00000 0.4338(11)
O1WA O 0.50000 0.0662(11) 0.50000
O1MC O 0.50000 0.50000 -0.0662(11)
O1AC O 0.50000 0.4338(11) 0.00000
O1XB O 0.4338(11) 0.50000 0.00000
H1A H -0.00000 0.09461 0.00000
H1P H -0.00000 -0.00000 0.09461
H1D H -0.09461 0.00000 0.00000
H1G H 0.00000 -0.09461 0.00000
H1BA H -0.09461 0.50000 0.50000
H1QA H -0.00000 0.50000 0.40539
H1EA H -0.00000 0.40539 0.50000
H1X H 0.09461 0.50000 0.50000
H1CB H 0.50000 -0.09461 0.50000
H1ZA H 0.40539 0.00000 0.50000
H1OB H 0.50000 -0.00000 0.40539
H1WA H 0.50000 0.09461 0.50000
H1MC H 0.50000 0.50000 -0.09461
H1AC H 0.50000 0.40539 0.00000
H1XB H 0.40539 0.50000 0.00000
C1Z C 0.000000 0.266910 0.26691
C1C C 0.23309 0.000000 0.233090
C1FB C 0.266910 0.000000 0.26691
C1P C 0.233090 0.23309 0.000000
C1OC C 0.26691 0.266910 0.000000
C1A C -0.233090 0.000000 0.23309
C1AB C -0.266910 0.000000 0.26691
C1R C -0.23309 0.233090 0.000000
C1KC C -0.26691 0.266910 0.000000
C1D C 0.000000 -0.233090 0.23309
C1FA C 0.000000 -0.266910 0.26691
C2Z C 0.031180 0.266750 0.298420
C2VD C 0.031180 0.298420 0.266750
C2KA C -0.031180 0.298420 0.266750
C2PD C -0.031180 0.266750 0.298420
C2ED C 0.031180 0.201580 0.233250
C2F C -0.031180 0.201580 0.233250
C2TC C -0.031180 0.233250 0.201580
C2C C 0.201580 0.031180 0.233250
C2JB C 0.298420 0.031180 0.266750
C2UE C 0.266750 0.031180 0.298420
C2FB C 0.266750 -0.031180 0.298420
C2QE C 0.298420 -0.031180 0.266750
C2BD C 0.233250 0.031180 0.201580
C2G C 0.233250 -0.031180 0.201580
C2FD C 0.201580 -0.031180 0.233250
C2P C 0.233250 0.201580 0.031180
C2QC C 0.266750 0.298420 0.031180
C2EG C 0.298420 0.266750 0.031180
C2OC C 0.298420 0.266750 -0.031180
C2BG C 0.266750 0.298420 -0.031180
C2MD C 0.201580 0.233250 0.031180
C2S C 0.201580 0.233250 -0.031180
C2OD C 0.233250 0.201580 -0.031180
C2A C -0.233250 0.031180 0.201580
C2AB C -0.266750 0.031180 0.298420
C2WE C -0.298420 0.031180 0.266750
C2HB C -0.298420 -0.031180 0.266750
C2OE C -0.266750 -0.031180 0.298420
C2DD C -0.201580 0.031180 0.233250
C2I C -0.201580 -0.031180 0.233250
C2WC C -0.233250 -0.031180 0.201580
C2R C -0.201580 0.233250 0.031180
C2KC C -0.298420 0.266750 0.031180
C2HG C -0.266750 0.298420 0.031180
C2NC C -0.266750 0.298420 -0.031180
C2DG C -0.298420 0.266750 -0.031180
C2LD C -0.233250 0.201580 0.031180
C2V C -0.233250 0.201580 -0.031180
C2ID C -0.201580 0.233250 -0.031180
C2K C 0.031180 -0.201580 0.233250
C2MA C 0.031180 -0.298420 0.266750
C2TD C 0.031180 -0.266750 0.298420
C2FA C -0.031180 -0.266750 0.298420
C2AE C -0.031180 -0.298420 0.266750
C2ZC C 0.031180 -0.233250 0.201580
C2D C -0.031180 -0.233250 0.201580
C2GD C -0.031180 -0.201580 0.233250
H2PD H -0.052490 0.245220 0.298530
H2KA H -0.052490 0.298530 0.245220
H2VD H 0.052490 0.298530 0.245220
H2Z H 0.052490 0.245220 0.298530
H2F H -0.052490 0.201470 0.254780
H2TC H -0.052490 0.254780 0.201470
H2ED H 0.052490 0.201470 0.254780
H2C H 0.201470 0.052490 0.254780
H2QE H 0.298530 -0.052490 0.245220
H2FB H 0.245220 -0.052490 0.298530
H2UE H 0.245220 0.052490 0.298530
H2JB H 0.298530 0.052490 0.245220
H2G H 0.254780 -0.052490 0.201470
H2FD H 0.201470 -0.052490 0.254780
H2BD H 0.254780 0.052490 0.201470
H2P H 0.254780 0.201470 0.052490
H2BG H 0.245220 0.298530 -0.052490
H2OC H 0.298530 0.245220 -0.052490
H2EG H 0.298530 0.245220 0.052490
H2QC H 0.245220 0.298530 0.052490
H2S H 0.201470 0.254780 -0.052490
H2OD H 0.254780 0.201470 -0.052490
H2MD H 0.201470 0.254780 0.052490
H2A H -0.254780 0.052490 0.201470
H2OE H -0.245220 -0.052490 0.298530
H2HB H -0.298530 -0.052490 0.245220
H2WE H -0.298530 0.052490 0.245220
H2AB H -0.245220 0.052490 0.298530
H2I H -0.201470 -0.052490 0.254780
H2WC H -0.254780 -0.052490 0.201470
H2DD H -0.201470 0.052490 0.254780
H2R H -0.201470 0.254780 0.052490
H2DG H -0.298530 0.245220 -0.052490
H2NC H -0.245220 0.298530 -0.052490
H2HG H -0.245220 0.298530 0.052490
H2KC H -0.298530 0.245220 0.052490
H2V H -0.254780 0.201470 -0.052490
H2ID H -0.201470 0.254780 -0.052490
H2LD H -0.254780 0.201470 0.052490
H2K H 0.052490 -0.201470 0.254780
H2AE H -0.052490 -0.298530 0.245220
H2FA H -0.052490 -0.245220 0.298530
H2TD H 0.052490 -0.245220 0.298530
H2MA H 0.052490 -0.298530 0.245220
H2D H -0.052490 -0.254780 0.201470
H2GD H -0.052490 -0.201470 0.254780
H2ZC H 0.052490 -0.254780 0.201470
C3PD C -0.031180 0.298090 0.329760
C3KA C -0.031180 0.329760 0.298090
C3Z C 0.031180 0.298090 0.329760
C3VD C 0.031180 0.329760 0.298090
C3ED C 0.031180 0.170240 0.201910
C3F C -0.031180 0.170240 0.201910
C3TC C -0.031180 0.201910 0.170240
C3C C 0.170240 0.031180 0.201910
C3QE C 0.329760 -0.031180 0.298090
C3FB C 0.298090 -0.031180 0.329760
C3JB C 0.329760 0.031180 0.298090
C3UE C 0.298090 0.031180 0.329760
C3BD C 0.201910 0.031180 0.170240
C3G C 0.201910 -0.031180 0.170240
C3FD C 0.170240 -0.031180 0.201910
C3P C 0.201910 0.170240 0.031180
C3BG C 0.298090 0.329760 -0.031180
C3OC C 0.329760 0.298090 -0.031180
C3QC C 0.298090 0.329760 0.031180
C3EG C 0.329760 0.298090 0.031180
C3MD C 0.170240 0.201910 0.031180
C3S C 0.170240 0.201910 -0.031180
C3OD C 0.201910 0.170240 -0.031180
C3A C -0.201910 0.031180 0.170240
C3OE C -0.298090 -0.031180 0.329760
C3HB C -0.329760 -0.031180 0.298090
C3AB C -0.298090 0.031180 0.329760
C3WE C -0.329760 0.031180 0.298090
C3DD C -0.170240 0.031180 0.201910
C3I C -0.170240 -0.031180 0.201910
C3WC C -0.201910 -0.031180 0.170240
C3R C -0.170240 0.201910 0.031180
C3DG C -0.329760 0.298090 -0.031180
C3NC C -0.298090 0.329760 -0.031180
C3KC C -0.329760 0.298090 0.031180
C3HG C -0.298090 0.329760 0.031180
C3LD C -0.201910 0.170240 0.031180
C3V C -0.201910 0.170240 -0.031180
C3ID C -0.170240 0.201910 -0.031180
C3K C 0.031180 -0.170240 0.201910
C3AE C -0.031180 -0.329760 0.298090
C3FA C -0.031180 -0.298090 0.329760
C3MA C 0.031180 -0.329760 0.298090
C3TD C 0.031180 -0.298090 0.329760
C3ZC C 0.031180 -0.201910 0.170240
C3D C -0.031180 -0.201910 0.170240
C3GD C -0.031180 -0.170240 0.201910
H3KA H -0.052490 0.351290 0.297980
H3Z H 0.052490 0.297980 0.351290
H3VD H 0.052490 0.351290 0.297980
H3PD H -0.052490 0.297980 0.351290
H3ED H 0.052490 0.148710 0.202020
H3F H -0.052490 0.148710 0.202020
H3TC H -0.052490 0.202020 0.148710
H3C H 0.148710 0.052490 0.202020
H3FB H 0.297980 -0.052490 0.351290
H3JB H 0.351290 0.052490 0.297980
H3UE H 0.297980 0.052490 0.351290
H3QE H 0.351290 -0.052490 0.297980
H3BD H 0.202020 0.052490 0.148710
H3G H 0.202020 -0.052490 0.148710
H3FD H 0.148710 -0.052490 0.202020
H3P H 0.202020 0.148710 0.052490
H3OC H 0.351290 0.297980 -0.052490
H3QC H 0.297980 0.351290 0.052490
H3EG H 0.351290 0.297980 0.052490
H3BG H 0.297980 0.351290 -0.052490
H3MD H 0.148710 0.202020 0.052490
H3S H 0.148710 0.202020 -0.052490
H3OD H 0.202020 0.148710 -0.052490
H3A H -0.202020 0.052490 0.148710
H3HB H -0.351290 -0.052490 0.297980
H3AB H -0.297980 0.052490 0.351290
H3WE H -0.351290 0.052490 0.297980
H3OE H -0.297980 -0.052490 0.351290
H3DD H -0.148710 0.052490 0.202020
H3I H -0.148710 -0.052490 0.202020
H3WC H -0.202020 -0.052490 0.148710
H3R H -0.148710 0.202020 0.052490
H3NC H -0.297980 0.351290 -0.052490
H3KC H -0.351290 0.297980 0.052490
H3HG H -0.297980 0.351290 0.052490
H3DG H -0.351290 0.297980 -0.052490
H3LD H -0.202020 0.148710 0.052490
H3V H -0.202020 0.148710 -0.052490
H3ID H -0.148710 0.202020 -0.052490
H3K H 0.052490 -0.148710 0.202020
H3FA H -0.052490 -0.297980 0.351290
H3MA H 0.052490 -0.351290 0.297980
H3TD H 0.052490 -0.297980 0.351290
H3AE H -0.052490 -0.351290 0.297980
H3ZC H 0.052490 -0.202020 0.148710
H3D H -0.052490 -0.202020 0.148710
H3GD H -0.052490 -0.148710 0.202020
C4Z C 0.000000 0.329600 0.32960
C4C C 0.17040 -0.000000 0.170400
C4FB C 0.329600 0.000000 0.32960
C4P C 0.170400 0.17040 0.000000
C4OC C 0.32960 0.329600 0.000000
C4A C -0.170400 -0.000000 0.17040
C4AB C -0.329600 0.000000 0.32960
C4R C -0.17040 0.170400 0.000000
C4KC C -0.32960 0.329600 0.000000
C4D C 0.000000 -0.170400 0.17040
C4FA C 0.000000 -0.329600 0.32960
C5KA C -0.000000 0.36229 0.362300
C5C C 0.13771 0.000000 0.137700
C5FB C 0.362300 0.000000 0.36229
C5P C 0.137700 0.13771 0.000000
C5OC C 0.36229 0.362300 0.000000
C5A C -0.137700 0.000000 0.13771
C5HB C -0.36229 -0.000000 0.362300
C5R C -0.13771 0.137700 0.000000
C5NC C -0.362300 0.36229 0.000000
C5K C 0.000000 -0.13771 0.137700
C5FA C 0.000000 -0.362300 0.36229
C6KA C -0.035180 0.380370 0.380370
C6Z C 0.035180 0.380370 0.380370
C6F C -0.035180 0.119630 0.119630
C6C C 0.119630 0.035180 0.119630
C6FB C 0.380370 -0.035180 0.380370
C6JB C 0.380370 0.035180 0.380370
C6G C 0.119630 -0.035180 0.119630
C6P C 0.119630 0.119630 0.035180
C6OC C 0.380370 0.380370 -0.035180
C6QC C 0.380370 0.380370 0.035180
C6S C 0.119630 0.119630 -0.035180
C6A C -0.119630 0.035180 0.119630
C6HB C -0.380370 -0.035180 0.380370
C6AB C -0.380370 0.035180 0.380370
C6I C -0.119630 -0.035180 0.119630
C6R C -0.119630 0.119630 0.035180
C6NC C -0.380370 0.380370 -0.035180
C6KC C -0.380370 0.380370 0.035180
C6V C -0.119630 0.119630 -0.035180
C6K C 0.035180 -0.119630 0.119630
C6FA C -0.035180 -0.380370 0.380370
C6MA C 0.035180 -0.380370 0.380370
C6D C -0.035180 -0.119630 0.119630
H4KA H -0.063990 0.373750 0.373750
H4Z H 0.063990 0.373750 0.373750
H4F H -0.063990 0.126250 0.126250
H4C H 0.126250 0.063990 0.126250
H4FB H 0.373750 -0.063990 0.373750
H4JB H 0.373750 0.063990 0.373750
H4G H 0.126250 -0.063990 0.126250
H4P H 0.126250 0.126250 0.063990
H4OC H 0.373750 0.373750 -0.063990
H4QC H 0.373750 0.373750 0.063990
H4S H 0.126250 0.126250 -0.063990
H4A H -0.126250 0.063990 0.126250
H4HB H -0.373750 -0.063990 0.373750
H4AB H -0.373750 0.063990 0.373750
H4I H -0.126250 -0.063990 0.126250
H4R H -0.126250 0.126250 0.063990
H4NC H -0.373750 0.373750 -0.063990
H4KC H -0.373750 0.373750 0.063990
H4V H -0.126250 0.126250 -0.063990
H4K H 0.063990 -0.126250 0.126250
H4FA H -0.063990 -0.373750 0.373750
H4MA H 0.063990 -0.373750 0.373750
H4D H -0.063990 -0.126250 0.126250
N1KA N -0.021740 0.409610 0.409610
N1Z N 0.021740 0.409610 0.409610
N1F N -0.021740 0.090390 0.090390
N1C N 0.090390 0.021740 0.090390
N1FB N 0.409610 -0.021740 0.409610
N1JB N 0.409610 0.021740 0.409610
N1G N 0.090390 -0.021740 0.090390
N1P N 0.090390 0.090390 0.021740
N1OC N 0.409610 0.409610 -0.021740
N1QC N 0.409610 0.409610 0.021740
N1S N 0.090390 0.090390 -0.021740
N1A N -0.090390 0.021740 0.090390
N1HB N -0.409610 -0.021740 0.409610
N1AB N -0.409610 0.021740 0.409610
N1I N -0.090390 -0.021740 0.090390
N1R N -0.090390 0.090390 0.021740
N1NC N -0.409610 0.409610 -0.021740
N1KC N -0.409610 0.409610 0.021740
N1V N -0.090390 0.090390 -0.021740
N1K N 0.021740 -0.090390 0.090390
N1FA N -0.021740 -0.409610 0.409610
N1MA N 0.021740 -0.409610 0.409610
N1D N -0.021740 -0.090390 0.090390
N1Q N 0.090390 -0.090390 0.021740
N1SA N -0.090390 0.409610 0.478260
N1HA N -0.090390 0.478260 0.409610
N1JA N 0.090390 0.478260 0.409610
N1RA N 0.090390 0.409610 0.478260
N1IB N 0.478260 -0.090390 0.409610
N1QB N 0.409610 -0.090390 0.478260
N1RB N 0.409610 0.090390 0.478260
N1DB N 0.478260 0.090390 0.409610
N1DC N 0.409610 0.478260 -0.090390
N1GC N 0.478260 0.409610 -0.090390
loop_
_geom_bond_atom_site_label_1
_geom_bond_atom_site_label_2
_geom_bond_site_symmetry_1
_geom_bond_site_symmetry_2
Ni1 O1 1_555 1_555
O1 H1 1_555 1_555
C1 C2 1_555 1_555
C2 H2 1_555 1_555
C3 C2 1_555 1_555
H3 C3 1_555 1_555
C4 C3 1_555 1_555
C5 C4 1_555 1_555
C6 C5 1_555 1_555
H4 C6 1_555 1_555
N1 Ni1 1_555 1_555
Ni1A O1A 1_555 1_555
Ni1G O1 1_555 1_555
Ni1HA O1BA 1_555 1_555
Ni1Z O1QA 1_555 1_555
Ni1FB O1CB 1_555 1_555
Ni1DB O1ZA 1_555 1_555
Ni1DC O1MC 1_555 1_555
Ni1B O1 1_555 1_555
Ni1E O1 1_555 1_555
Ni1H O1A 1_555 1_555
Ni1D O1P 1_555 1_555
Ni1XB O1AC 1_555 1_555
Ni1J O1D 1_555 1_555
Ni1XA N1HB 1_555 1_555
Ni1AB N1AB 1_555 1_555
Ni1VB N1NC 1_555 1_555
Ni1AC N1KC 1_555 1_555
Ni1FA N1FA 1_555 1_555
Ni1CA N1MA 1_555 1_555
Ni1BA O1BA 1_555 1_555
Ni1Y O1BA 1_555 1_555
Ni1FA_2 O1BA 1_555 1_555
O1A Ni1 1_555 1_555
O1P Ni1 1_555 1_555
O1D Ni1A 1_555 1_555
O1G Ni1G 1_555 1_555
O1BA H1BA 1_555 1_555
O1QA Ni1HA 1_555 1_555
O1EA Ni1HA 1_555 1_555
O1X Ni1Z 1_555 1_555
O1CB H1CB 1_555 1_555
O1ZA Ni1FB 1_555 1_555
O1OB Ni1FB 1_555 1_555
O1WA Ni1DB 1_555 1_555
O1MC H1MC 1_555 1_555
O1AC Ni1DC 1_555 1_555
O1XB Ni1DC 1_555 1_555
H1A O1A 1_555 1_555
H1P O1P 1_555 1_555
H1D O1D 1_555 1_555
H1G O1G 1_555 1_555
H1QA O1QA 1_555 1_555
H1EA O1EA 1_555 1_555
H1X O1X 1_555 1_555
H1ZA O1ZA 1_555 1_555
H1OB O1OB 1_555 1_555
H1WA O1WA 1_555 1_555
H1AC O1AC 1_555 1_555
H1XB O1XB 1_555 1_555
C1Z C1 1_555 1_555
C1C C1FB 1_555 1_555
C1FB C2JB 1_555 1_555
C1P C1OC 1_555 1_555
C1OC C2QC 1_555 1_555
C1A C1AB 1_555 1_555
C1AB C2AB 1_555 1_555
C1R C1KC 1_555 1_555
C1KC C2KC 1_555 1_555
C1D C1FA 1_555 1_555
C1FA C2MA 1_555 1_555
C2Z C1Z 1_555 1_555
C2VD C1Z 1_555 1_555
C2KA C1Z 1_555 1_555
C2PD C1Z 1_555 1_555
C2ED C1 1_555 1_555
C2F C1 1_555 1_555
C2TC C1 1_555 1_555
C2C C1C 1_555 1_555
C2JB C2UE 1_555 1_555
C2UE C1FB 1_555 1_555
C2FB C1FB 1_555 1_555
C2QE C1FB 1_555 1_555
C2BD C1C 1_555 1_555
C2G C1C 1_555 1_555
C2FD C1C 1_555 1_555
C2P C1P 1_555 1_555
C2QC C2EG 1_555 1_555
C2EG C1OC 1_555 1_555
C2OC C1OC 1_555 1_555
C2BG C1OC 1_555 1_555
C2MD C1P 1_555 1_555
C2S C1P 1_555 1_555
C2OD C1P 1_555 1_555
C2A C1A 1_555 1_555
C2AB C2WE 1_555 1_555
C2WE C1AB 1_555 1_555
C2HB C1AB 1_555 1_555
C2OE C1AB 1_555 1_555
C2DD C1A 1_555 1_555
C2I C1A 1_555 1_555
C2WC C1A 1_555 1_555
C2R C1R 1_555 1_555
C2KC C2HG 1_555 1_555
C2HG C1KC 1_555 1_555
C2NC C1KC 1_555 1_555
C2DG C1KC 1_555 1_555
C2LD C1R 1_555 1_555
C2V C1R 1_555 1_555
C2ID C1R 1_555 1_555
C2K C1D 1_555 1_555
C2MA C2TD 1_555 1_555
C2TD C1FA 1_555 1_555
C2FA C1FA 1_555 1_555
C2AE C1FA 1_555 1_555
C2ZC C1D 1_555 1_555
C2D C1D 1_555 1_555
C2GD C1D 1_555 1_555
H2PD C2PD 1_555 1_555
H2KA C2KA 1_555 1_555
H2VD C2VD 1_555 1_555
H2Z C2Z 1_555 1_555
H2F C2F 1_555 1_555
H2TC C2TC 1_555 1_555
H2ED C2ED 1_555 1_555
H2C C2C 1_555 1_555
H2QE C2QE 1_555 1_555
H2FB C2FB 1_555 1_555
H2UE C2UE 1_555 1_555
H2JB C2JB 1_555 1_555
H2G C2G 1_555 1_555
H2FD C2FD 1_555 1_555
H2BD C2BD 1_555 1_555
H2P C2P 1_555 1_555
H2BG C2BG 1_555 1_555
H2OC C2OC 1_555 1_555
H2EG C2EG 1_555 1_555
H2QC C2QC 1_555 1_555
H2S C2S 1_555 1_555
H2OD C2OD 1_555 1_555
H2MD C2MD 1_555 1_555
H2A C2A 1_555 1_555
H2OE C2OE 1_555 1_555
H2HB C2HB 1_555 1_555
H2WE C2WE 1_555 1_555
H2AB C2AB 1_555 1_555
H2I C2I 1_555 1_555
H2WC C2WC 1_555 1_555
H2DD C2DD 1_555 1_555
H2R C2R 1_555 1_555
H2DG C2DG 1_555 1_555
H2NC C2NC 1_555 1_555
H2HG C2HG 1_555 1_555
H2KC C2KC 1_555 1_555
H2V C2V 1_555 1_555
H2ID C2ID 1_555 1_555
H2LD C2LD 1_555 1_555
H2K C2K 1_555 1_555
H2AE C2AE 1_555 1_555
H2FA C2FA 1_555 1_555
H2TD C2TD 1_555 1_555
H2MA C2MA 1_555 1_555
H2D C2D 1_555 1_555
H2GD C2GD 1_555 1_555
H2ZC C2ZC 1_555 1_555
C3PD C2PD 1_555 1_555
C3KA C2KA 1_555 1_555
C3Z C2Z 1_555 1_555
C3VD C2VD 1_555 1_555
C3ED C3 1_555 1_555
C3F C4 1_555 1_555
C3TC C4 1_555 1_555
C3C C2C 1_555 1_555
C3QE C2QE 1_555 1_555
C3FB C2FB 1_555 1_555
C3JB C2JB 1_555 1_555
C3UE C2UE 1_555 1_555
C3BD C2BD 1_555 1_555
C3G C2G 1_555 1_555
C3FD C2FD 1_555 1_555
C3P C2P 1_555 1_555
C3BG C2BG 1_555 1_555
C3OC C2OC 1_555 1_555
C3QC C2QC 1_555 1_555
C3EG C2EG 1_555 1_555
C3MD C2MD 1_555 1_555
C3S C2S 1_555 1_555
C3OD C2OD 1_555 1_555
C3A C2A 1_555 1_555
C3OE C2OE 1_555 1_555
C3HB C2HB 1_555 1_555
C3AB C2AB 1_555 1_555
C3WE C2WE 1_555 1_555
C3DD C2DD 1_555 1_555
C3I C2I 1_555 1_555
C3WC C2WC 1_555 1_555
C3R C2R 1_555 1_555
C3DG C2DG 1_555 1_555
C3NC C2NC 1_555 1_555
C3KC C2KC 1_555 1_555
C3HG C2HG 1_555 1_555
C3LD C2LD 1_555 1_555
C3V C2V 1_555 1_555
C3ID C2ID 1_555 1_555
C3K C2K 1_555 1_555
C3AE C2AE 1_555 1_555
C3FA C2FA 1_555 1_555
C3MA C2MA 1_555 1_555
C3TD C2TD 1_555 1_555
C3ZC C2ZC 1_555 1_555
C3D C2D 1_555 1_555
C3GD C2GD 1_555 1_555
H3KA C3KA 1_555 1_555
H3Z C3Z 1_555 1_555
H3VD C3VD 1_555 1_555
H3PD C3PD 1_555 1_555
H3ED C3ED 1_555 1_555
H3F C3F 1_555 1_555
H3TC C3TC 1_555 1_555
H3C C3C 1_555 1_555
H3FB C3FB 1_555 1_555
H3JB C3JB 1_555 1_555
H3UE C3UE 1_555 1_555
H3QE C3QE 1_555 1_555
H3BD C3BD 1_555 1_555
H3G C3G 1_555 1_555
H3FD C3FD 1_555 1_555
H3P C3P 1_555 1_555
H3OC C3OC 1_555 1_555
H3QC C3QC 1_555 1_555
H3EG C3EG 1_555 1_555
H3BG C3BG 1_555 1_555
H3MD C3MD 1_555 1_555
H3S C3S 1_555 1_555
H3OD C3OD 1_555 1_555
H3A C3A 1_555 1_555
H3HB C3HB 1_555 1_555
H3AB C3AB 1_555 1_555
H3WE C3WE 1_555 1_555
H3OE C3OE 1_555 1_555
H3DD C3DD 1_555 1_555
H3I C3I 1_555 1_555
H3WC C3WC 1_555 1_555
H3R C3R 1_555 1_555
H3NC C3NC 1_555 1_555
H3KC C3KC 1_555 1_555
H3HG C3HG 1_555 1_555
H3DG C3DG 1_555 1_555
H3LD C3LD 1_555 1_555
H3V C3V 1_555 1_555
H3ID C3ID 1_555 1_555
H3K C3K 1_555 1_555
H3FA C3FA 1_555 1_555
H3MA C3MA 1_555 1_555
H3TD C3TD 1_555 1_555
H3AE C3AE 1_555 1_555
H3ZC C3ZC 1_555 1_555
H3D C3D 1_555 1_555
H3GD C3GD 1_555 1_555
C4Z C3PD 1_555 1_555
C4C C3C 1_555 1_555
C4FB C3QE 1_555 1_555
C4P C3P 1_555 1_555
C4OC C3BG 1_555 1_555
C4A C3A 1_555 1_555
C4AB C3OE 1_555 1_555
C4R C3R 1_555 1_555
C4KC C3DG 1_555 1_555
C4D C3K 1_555 1_555
C4FA C3AE 1_555 1_555
C5KA C4Z 1_555 1_555
C5C C4C 1_555 1_555
C5FB C4FB 1_555 1_555
C5P C4P 1_555 1_555
C5OC C4OC 1_555 1_555
C5A C4A 1_555 1_555
C5HB C4AB 1_555 1_555
C5R C4R 1_555 1_555
C5NC C4KC 1_555 1_555
C5K C4D 1_555 1_555
C5FA C4FA 1_555 1_555
C6KA C5KA 1_555 1_555
C6Z C5KA 1_555 1_555
C6F C5 1_555 1_555
C6C C5C 1_555 1_555
C6FB C5FB 1_555 1_555
C6JB C5FB 1_555 1_555
C6G C5C 1_555 1_555
C6P C5P 1_555 1_555
C6OC C5OC 1_555 1_555
C6QC C5OC 1_555 1_555
C6S C5P 1_555 1_555
C6A C5A 1_555 1_555
C6HB C5HB 1_555 1_555
C6AB C5HB 1_555 1_555
C6I C5A 1_555 1_555
C6R C5R 1_555 1_555
C6NC C5NC 1_555 1_555
C6KC C5NC 1_555 1_555
C6V C5R 1_555 1_555
C6K C5K 1_555 1_555
C6FA C5FA 1_555 1_555
C6MA C5FA 1_555 1_555
C6D C5K 1_555 1_555
H4KA C6KA 1_555 1_555
H4Z C6Z 1_555 1_555
H4F C6F 1_555 1_555
H4C C6C 1_555 1_555
H4FB C6FB 1_555 1_555
H4JB C6JB 1_555 1_555
H4G C6G 1_555 1_555
H4P C6P 1_555 1_555
H4OC C6OC 1_555 1_555
H4QC C6QC 1_555 1_555
H4S C6S 1_555 1_555
H4A C6A 1_555 1_555
H4HB C6HB 1_555 1_555
H4AB C6AB 1_555 1_555
H4I C6I 1_555 1_555
H4R C6R 1_555 1_555
H4NC C6NC 1_555 1_555
H4KC C6KC 1_555 1_555
H4V C6V 1_555 1_555
H4K C6K 1_555 1_555
H4FA C6FA 1_555 1_555
H4MA C6MA 1_555 1_555
H4D C6D 1_555 1_555
N1KA Ni1HA 1_555 1_555
N1Z Ni1Z 1_555 1_555
N1F N1 1_555 1_555
N1C Ni1 1_555 1_555
N1FB Ni1FB 1_555 1_555
N1JB Ni1DB 1_555 1_555
N1G Ni1G 1_555 1_555
N1P Ni1 1_555 1_555
N1OC Ni1DC 1_555 1_555
N1QC Ni1XB 1_555 1_555
N1S Ni1E 1_555 1_555
N1A Ni1A 1_555 1_555
N1HB C6HB 1_555 1_555
N1AB C6AB 1_555 1_555
N1I Ni1D 1_555 1_555
N1R Ni1A 1_555 1_555
N1NC C6NC 1_555 1_555
N1KC C6KC 1_555 1_555
N1V Ni1H 1_555 1_555
N1K Ni1G 1_555 1_555
N1FA C6FA 1_555 1_555
N1MA C6MA 1_555 1_555
N1D Ni1D 1_555 1_555
N1Q Ni1G 1_555 1_555
N1SA Ni1HA 1_555 1_555
N1HA Ni1HA 1_555 1_555
N1JA Ni1Z 1_555 1_555
N1RA Ni1Z 1_555 1_555
N1IB Ni1FB 1_555 1_555
N1QB Ni1FB 1_555 1_555
N1RB Ni1DB 1_555 1_555
N1DB Ni1DB 1_555 1_555
N1DC Ni1DC 1_555 1_555
N1GC Ni1DC 1_555 1_555
C2 C2ED 1_555 1_555
C4 C3ED 1_555 1_555
C6 N1 1_555 1_555
Ni1A O1P 1_555 1_555
Ni1A N1F 1_555 1_555
Ni1G O1P 1_555 1_555
Ni1Z O1EA 1_555 1_555
Ni1DB O1OB 1_555 1_555
Ni1B O1G 1_555 1_555
Ni1E O1A 1_555 1_555
Ni1H O1D 1_555 1_555
Ni1D O1D 1_555 1_555
Ni1D O1G 1_555 1_555
Ni1XB O1XB 1_555 1_555
Ni1J O1G 1_555 1_555
Ni1BA O1EA 1_555 1_555
Ni1FA_2 O1QA 1_555 1_555
C2Z C2VD 1_555 1_555
C2KA C2PD 1_555 1_555
C2ED C3ED 1_555 1_555
C2F C2TC 1_555 1_555
C2F C3F 1_555 1_555
C2TC C3TC 1_555 1_555
C2C C2BD 1_555 1_555
C2FB C2QE 1_555 1_555
C2G C2FD 1_555 1_555
C2P C2MD 1_555 1_555
C2OC C2BG 1_555 1_555
C2S C2OD 1_555 1_555
C2A C2DD 1_555 1_555
C2HB C2OE 1_555 1_555
C2I C2WC 1_555 1_555
C2R C2LD 1_555 1_555
C2NC C2DG 1_555 1_555
C2V C2ID 1_555 1_555
C2K C2ZC 1_555 1_555
C2FA C2AE 1_555 1_555
C2D C2GD 1_555 1_555
C3PD C3KA 1_555 1_555
C3KA C4Z 1_555 1_555
C3Z C3VD 1_555 1_555
C3Z C4Z 1_555 1_555
C3VD C4Z 1_555 1_555
C3F C3TC 1_555 1_555
C3C C3BD 1_555 1_555
C3QE C3FB 1_555 1_555
C3FB C4FB 1_555 1_555
C3JB C3UE 1_555 1_555
C3JB C4FB 1_555 1_555
C3UE C4FB 1_555 1_555
C3BD C4C 1_555 1_555
C3G C3FD 1_555 1_555
C3G C4C 1_555 1_555
C3FD C4C 1_555 1_555
C3P C3MD 1_555 1_555
C3BG C3OC 1_555 1_555
C3OC C4OC 1_555 1_555
C3QC C3EG 1_555 1_555
C3QC C4OC 1_555 1_555
C3EG C4OC 1_555 1_555
C3MD C4P 1_555 1_555
C3S C3OD 1_555 1_555
C3S C4P 1_555 1_555
C3OD C4P 1_555 1_555
C3A C3DD 1_555 1_555
C3OE C3HB 1_555 1_555
C3HB C4AB 1_555 1_555
C3AB C3WE 1_555 1_555
C3AB C4AB 1_555 1_555
C3WE C4AB 1_555 1_555
C3DD C4A 1_555 1_555
C3I C3WC 1_555 1_555
C3I C4A 1_555 1_555
C3WC C4A 1_555 1_555
C3R C3LD 1_555 1_555
C3DG C3NC 1_555 1_555
C3NC C4KC 1_555 1_555
C3KC C3HG 1_555 1_555
C3KC C4KC 1_555 1_555
C3HG C4KC 1_555 1_555
C3LD C4R 1_555 1_555
C3V C3ID 1_555 1_555
C3V C4R 1_555 1_555
C3ID C4R 1_555 1_555
C3K C3ZC 1_555 1_555
C3AE C3FA 1_555 1_555
C3FA C4FA 1_555 1_555
C3MA C3TD 1_555 1_555
C3MA C4FA 1_555 1_555
C3TD C4FA 1_555 1_555
C3ZC C4D 1_555 1_555
C3D C3GD 1_555 1_555
C3D C4D 1_555 1_555
C3GD C4D 1_555 1_555
C6KA N1KA 1_555 1_555
C6Z N1Z 1_555 1_555
C6F N1F 1_555 1_555
C6C N1C 1_555 1_555
C6FB N1FB 1_555 1_555
C6JB N1JB 1_555 1_555
C6G N1G 1_555 1_555
C6P N1P 1_555 1_555
C6OC N1OC 1_555 1_555
C6QC N1QC 1_555 1_555
C6S N1S 1_555 1_555
C6A N1A 1_555 1_555
C6I N1I 1_555 1_555
C6R N1R 1_555 1_555
C6V N1V 1_555 1_555
C6K N1K 1_555 1_555
C6D N1D 1_555 1_555
N1KA N1Z 1_555 1_555
N1C N1G 1_555 1_555
N1FB N1JB 1_555 1_555
N1P N1S 1_555 1_555
N1OC N1QC 1_555 1_555
N1A N1I 1_555 1_555
N1HB N1AB 1_555 1_555
N1R N1V 1_555 1_555
N1NC N1KC 1_555 1_555
N1K N1D 1_555 1_555
N1FA N1MA 1_555 1_555

#END
