
#######################################################################
#
#                 Cambridge Crystallographic Data Centre
#                                CCDC 
#
#######################################################################
#
# If this CIF has been generated from an entry in the Cambridge 
# Structural Database, then it will include bibliographic, chemical, 
# crystal, experimental, refinement or atomic coordinate data resulting 
# from the CCDC's data processing and validation procedures.
#
#######################################################################

data_OKEREC
_chemical_formula_moiety         'C156 H66 N47 Ni23 O65'
_symmetry_cell_setting           cubic
_symmetry_space_group_name_H-M   'F m -3 m'
_symmetry_Int_Tables_number      225
_space_group_name_Hall           '-F 4 2 3'
loop_
_symmetry_equiv_pos_site_id
_symmetry_equiv_pos_as_xyz
1 x,y,z
2 -y,x,z
3 x,-y,-z
4 z,x,y
5 -x,-y,z
6 y,x,-z
7 -x,z,y
8 y,-x,z
9 -x,y,-z
10 -z,-x,y
11 -y,-x,-z
12 x,-z,y
13 z,-x,-y
14 -x,-z,-y
15 -z,x,-y
16 x,z,-y
17 y,z,x
18 z,-y,x
19 -z,y,x
20 z,y,-x
21 y,-z,-x
22 -z,-y,-x
23 -y,z,-x
24 -y,-z,x
25 x,1/2+y,1/2+z
26 -y,1/2+x,1/2+z
27 x,1/2-y,1/2-z
28 z,1/2+x,1/2+y
29 -x,1/2-y,1/2+z
30 y,1/2+x,1/2-z
31 -x,1/2+z,1/2+y
32 y,1/2-x,1/2+z
33 -x,1/2+y,1/2-z
34 -z,1/2-x,1/2+y
35 -y,1/2-x,1/2-z
36 x,1/2-z,1/2+y
37 z,1/2-x,1/2-y
38 -x,1/2-z,1/2-y
39 -z,1/2+x,1/2-y
40 x,1/2+z,1/2-y
41 y,1/2+z,1/2+x
42 z,1/2-y,1/2+x
43 -z,1/2+y,1/2+x
44 z,1/2+y,1/2-x
45 y,1/2-z,1/2-x
46 -z,1/2-y,1/2-x
47 -y,1/2+z,1/2-x
48 -y,1/2-z,1/2+x
49 1/2+x,y,1/2+z
50 1/2-y,x,1/2+z
51 1/2+x,-y,1/2-z
52 1/2+z,x,1/2+y
53 1/2-x,-y,1/2+z
54 1/2+y,x,1/2-z
55 1/2-x,z,1/2+y
56 1/2+y,-x,1/2+z
57 1/2-x,y,1/2-z
58 1/2-z,-x,1/2+y
59 1/2-y,-x,1/2-z
60 1/2+x,-z,1/2+y
61 1/2+z,-x,1/2-y
62 1/2-x,-z,1/2-y
63 1/2-z,x,1/2-y
64 1/2+x,z,1/2-y
65 1/2+y,z,1/2+x
66 1/2+z,-y,1/2+x
67 1/2-z,y,1/2+x
68 1/2+z,y,1/2-x
69 1/2+y,-z,1/2-x
70 1/2-z,-y,1/2-x
71 1/2-y,z,1/2-x
72 1/2-y,-z,1/2+x
73 1/2+x,1/2+y,z
74 1/2-y,1/2+x,z
75 1/2+x,1/2-y,-z
76 1/2+z,1/2+x,y
77 1/2-x,1/2-y,z
78 1/2+y,1/2+x,-z
79 1/2-x,1/2+z,y
80 1/2+y,1/2-x,z
81 1/2-x,1/2+y,-z
82 1/2-z,1/2-x,y
83 1/2-y,1/2-x,-z
84 1/2+x,1/2-z,y
85 1/2+z,1/2-x,-y
86 1/2-x,1/2-z,-y
87 1/2-z,1/2+x,-y
88 1/2+x,1/2+z,-y
89 1/2+y,1/2+z,x
90 1/2+z,1/2-y,x
91 1/2-z,1/2+y,x
92 1/2+z,1/2+y,-x
93 1/2+y,1/2-z,-x
94 1/2-z,1/2-y,-x
95 1/2-y,1/2+z,-x
96 1/2-y,1/2-z,x
97 -x,-y,-z
98 y,-x,-z
99 -x,y,z
100 -z,-x,-y
101 x,y,-z
102 -y,-x,z
103 x,-z,-y
104 -y,x,-z
105 x,-y,z
106 z,x,-y
107 y,x,z
108 -x,z,-y
109 -z,x,y
110 x,z,y
111 z,-x,y
112 -x,-z,y
113 -y,-z,-x
114 -z,y,-x
115 z,-y,-x
116 -z,-y,x
117 -y,z,x
118 z,y,x
119 y,-z,x
120 y,z,-x
121 -x,1/2-y,1/2-z
122 y,1/2-x,1/2-z
123 -x,1/2+y,1/2+z
124 -z,1/2-x,1/2-y
125 x,1/2+y,1/2-z
126 -y,1/2-x,1/2+z
127 x,1/2-z,1/2-y
128 -y,1/2+x,1/2-z
129 x,1/2-y,1/2+z
130 z,1/2+x,1/2-y
131 y,1/2+x,1/2+z
132 -x,1/2+z,1/2-y
133 -z,1/2+x,1/2+y
134 x,1/2+z,1/2+y
135 z,1/2-x,1/2+y
136 -x,1/2-z,1/2+y
137 -y,1/2-z,1/2-x
138 -z,1/2+y,1/2-x
139 z,1/2-y,1/2-x
140 -z,1/2-y,1/2+x
141 -y,1/2+z,1/2+x
142 z,1/2+y,1/2+x
143 y,1/2-z,1/2+x
144 y,1/2+z,1/2-x
145 1/2-x,-y,1/2-z
146 1/2+y,-x,1/2-z
147 1/2-x,y,1/2+z
148 1/2-z,-x,1/2-y
149 1/2+x,y,1/2-z
150 1/2-y,-x,1/2+z
151 1/2+x,-z,1/2-y
152 1/2-y,x,1/2-z
153 1/2+x,-y,1/2+z
154 1/2+z,x,1/2-y
155 1/2+y,x,1/2+z
156 1/2-x,z,1/2-y
157 1/2-z,x,1/2+y
158 1/2+x,z,1/2+y
159 1/2+z,-x,1/2+y
160 1/2-x,-z,1/2+y
161 1/2-y,-z,1/2-x
162 1/2-z,y,1/2-x
163 1/2+z,-y,1/2-x
164 1/2-z,-y,1/2+x
165 1/2-y,z,1/2+x
166 1/2+z,y,1/2+x
167 1/2+y,-z,1/2+x
168 1/2+y,z,1/2-x
169 1/2-x,1/2-y,-z
170 1/2+y,1/2-x,-z
171 1/2-x,1/2+y,z
172 1/2-z,1/2-x,-y
173 1/2+x,1/2+y,-z
174 1/2-y,1/2-x,z
175 1/2+x,1/2-z,-y
176 1/2-y,1/2+x,-z
177 1/2+x,1/2-y,z
178 1/2+z,1/2+x,-y
179 1/2+y,1/2+x,z
180 1/2-x,1/2+z,-y
181 1/2-z,1/2+x,y
182 1/2+x,1/2+z,y
183 1/2+z,1/2-x,y
184 1/2-x,1/2-z,y
185 1/2-y,1/2-z,-x
186 1/2-z,1/2+y,-x
187 1/2+z,1/2-y,-x
188 1/2-z,1/2-y,x
189 1/2-y,1/2+z,x
190 1/2+z,1/2+y,x
191 1/2+y,1/2-z,x
192 1/2+y,1/2+z,-x
_cell_length_a                   30.5846(22)
_cell_length_b                   30.5846(22)
_cell_length_c                   30.5846(22)
_cell_angle_alpha                90
_cell_angle_beta                 90
_cell_angle_gamma                90
_cell_volume                     28609.4
loop_
_atom_site_label
_atom_site_type_symbol
_atom_site_fract_x
_atom_site_fract_y
_atom_site_fract_z
Ni1 Ni 0.04717(18) 0.04717(18) 0.04717(18)
O2 O 0.0607(13) 0.00000 0.00000
H1 H 0.095 0.00000 0.00000
H2 H -0.053850 0.288430 0.211570
C1 C -0.031990 0.272830 0.227170
C2 C -0.015990 0.233580 0.210760
C3 C -0.025880 0.210070 0.173140
O3 O -0.051920 0.220160 0.146050
N1 N 0.000000 0.172720 0.17272
C4 C -0.000000 0.139650 0.13966
C5 C 0.036770 0.120770 0.120770
H3 H 0.066310 0.127550 0.127550
N2 N 0.022720 0.090200 0.090200
Ni1A Ni -0.04717(18) 0.04717(18) 0.04717(18)
Ni1G Ni 0.04717(18) -0.04717(18) 0.04717(18)
Ni1Z Ni 0.04717(18) 0.45283(18) 0.45283(18)
Ni1HA Ni -0.04717(18) 0.45283(18) 0.45283(18)
Ni1DB Ni 0.45283(18) 0.04717(18) 0.45283(18)
Ni1FB Ni 0.45283(18) -0.04717(18) 0.45283(18)
Ni1XB Ni 0.45283(18) 0.45283(18) 0.04717(18)
Ni1B Ni 0.04717(18) -0.04717(18) -0.04717(18)
Ni1E Ni 0.04717(18) 0.04717(18) -0.04717(18)
Ni1H Ni -0.04717(18) 0.04717(18) -0.04717(18)
Ni1D Ni -0.04717(18) -0.04717(18) 0.04717(18)
Ni1DC Ni 0.45283(18) 0.45283(18) -0.04717(18)
Ni1J Ni -0.04717(18) -0.04717(18) -0.04717(18)
Ni1AB Ni -0.45283(18) 0.04717(18) 0.45283(18)
Ni1XA Ni -0.45283(18) -0.04717(18) 0.45283(18)
Ni1AC Ni -0.45283(18) 0.45283(18) 0.04717(18)
Ni1VB Ni -0.45283(18) 0.45283(18) -0.04717(18)
Ni1CA Ni 0.04717(18) -0.45283(18) 0.45283(18)
Ni1FA Ni -0.04717(18) -0.45283(18) 0.45283(18)
Ni1EA Ni 0.04717(18) 0.45283(18) 0.54717(18)
Ni1X Ni 0.04717(18) 0.54717(18) 0.54717(18)
Ni1CA_2 Ni 0.04717(18) 0.54717(18) 0.45283(18)
O2A O 0.00000 0.0607(13) 0.00000
O2P O 0.00000 0.00000 0.0607(13)
O2D O -0.0607(13) 0.00000 0.00000
O2G O 0.00000 -0.0607(13) 0.00000
O2X O 0.0607(13) 0.50000 0.50000
O2QA O 0.00000 0.50000 0.4393(13)
O2EA O -0.00000 0.4393(13) 0.50000
O2BA O -0.0607(13) 0.50000 0.50000
O2WA O 0.50000 0.0607(13) 0.50000
O2ZA O 0.4393(13) -0.00000 0.50000
O2OB O 0.50000 0.00000 0.4393(13)
O2CB O 0.50000 -0.0607(13) 0.50000
O2JC O 0.50000 0.50000 0.0607(13)
O2AC O 0.50000 0.4393(13) 0.00000
O2XB O 0.4393(13) 0.50000 0.00000
H1A H -0.00000 0.095 0.00000
H1P H -0.00000 -0.00000 0.095
H1D H -0.095 0.00000 0.00000
H1G H 0.00000 -0.095 0.00000
H1X H 0.095 0.50000 0.50000
H1QA H -0.00000 0.50000 0.405
H1EA H -0.00000 0.405 0.50000
H1BA H -0.095 0.50000 0.50000
H1WA H 0.50000 0.095 0.50000
H1ZA H 0.405 -0.00000 0.50000
H1OB H 0.50000 -0.00000 0.405
H1CB H 0.50000 -0.095 0.50000
H1JC H 0.50000 0.50000 0.095
H1AC H 0.50000 0.405 0.00000
H1XB H 0.405 0.50000 0.00000
H2F H 0.053850 0.211570 0.288430
H2KA H 0.053850 0.288430 0.211570
H2Z H -0.053850 0.211570 0.288430
H2C H 0.211570 -0.053850 0.288430
H2G H 0.288430 0.053850 0.211570
H2FB H 0.211570 0.053850 0.288430
H2JB H 0.288430 -0.053850 0.211570
H2P H 0.288430 0.211570 -0.053850
H2S H 0.211570 0.288430 0.053850
H2OC H 0.288430 0.211570 0.053850
H2QC H 0.211570 0.288430 -0.053850
H2A H -0.288430 -0.053850 0.211570
H2I H -0.211570 0.053850 0.288430
H2HB H -0.288430 0.053850 0.211570
H2AB H -0.211570 -0.053850 0.288430
H2R H -0.211570 0.288430 -0.053850
H2V H -0.288430 0.211570 0.053850
H2NC H -0.211570 0.288430 0.053850
H2KC H -0.288430 0.211570 -0.053850
H2K H -0.053850 -0.211570 0.288430
H2D H 0.053850 -0.288430 0.211570
H2FA H 0.053850 -0.211570 0.288430
H2MA H -0.053850 -0.288430 0.211570
C1F C 0.031990 0.227170 0.272830
C1KA C 0.031990 0.272830 0.227170
C1Z C -0.031990 0.227170 0.272830
C1C C 0.227170 -0.031990 0.272830
C1G C 0.272830 0.031990 0.227170
C1FB C 0.227170 0.031990 0.272830
C1JB C 0.272830 -0.031990 0.227170
C1P C 0.272830 0.227170 -0.031990
C1S C 0.227170 0.272830 0.031990
C1OC C 0.272830 0.227170 0.031990
C1QC C 0.227170 0.272830 -0.031990
C1A C -0.272830 -0.031990 0.227170
C1I C -0.227170 0.031990 0.272830
C1HB C -0.272830 0.031990 0.227170
C1AB C -0.227170 -0.031990 0.272830
C1R C -0.227170 0.272830 -0.031990
C1V C -0.272830 0.227170 0.031990
C1NC C -0.227170 0.272830 0.031990
C1KC C -0.272830 0.227170 -0.031990
C1K C -0.031990 -0.227170 0.272830
C1D C 0.031990 -0.272830 0.227170
C1FA C 0.031990 -0.227170 0.272830
C1MA C -0.031990 -0.272830 0.227170
C2F C 0.015990 0.210760 0.233580
C2PD C 0.015990 0.266420 0.289240
C2VD C -0.015990 0.289240 0.266420
C2KA C 0.015990 0.289240 0.266420
C2TC C 0.015990 0.233580 0.210760
C2ED C -0.015990 0.210760 0.233580
C2Z C -0.015990 0.266420 0.289240
C2C C 0.210760 -0.015990 0.233580
C2G C 0.233580 0.015990 0.210760
C2QE C 0.289240 0.015990 0.266420
C2UE C 0.266420 -0.015990 0.289240
C2FB C 0.266420 0.015990 0.289240
C2FD C 0.210760 0.015990 0.233580
C2BD C 0.233580 -0.015990 0.210760
C2JB C 0.289240 -0.015990 0.266420
C2P C 0.233580 0.210760 -0.015990
C2S C 0.210760 0.233580 0.015990
C2BG C 0.266420 0.289240 0.015990
C2EG C 0.289240 0.266420 -0.015990
C2OC C 0.289240 0.266420 0.015990
C2OD C 0.233580 0.210760 0.015990
C2MD C 0.210760 0.233580 -0.015990
C2QC C 0.266420 0.289240 -0.015990
C2A C -0.233580 -0.015990 0.210760
C2I C -0.210760 0.015990 0.233580
C2OE C -0.266420 0.015990 0.289240
C2WE C -0.289240 -0.015990 0.266420
C2HB C -0.289240 0.015990 0.266420
C2WC C -0.233580 0.015990 0.210760
C2DD C -0.210760 -0.015990 0.233580
C2AB C -0.266420 -0.015990 0.289240
C2R C -0.210760 0.233580 -0.015990
C2V C -0.233580 0.210760 0.015990
C2DG C -0.289240 0.266420 0.015990
C2HG C -0.266420 0.289240 -0.015990
C2NC C -0.266420 0.289240 0.015990
C2ID C -0.210760 0.233580 0.015990
C2LD C -0.233580 0.210760 -0.015990
C2KC C -0.289240 0.266420 -0.015990
C2K C -0.015990 -0.210760 0.233580
C2D C 0.015990 -0.233580 0.210760
C2AE C 0.015990 -0.289240 0.266420
C2TD C -0.015990 -0.266420 0.289240
C2FA C 0.015990 -0.266420 0.289240
C2GD C 0.015990 -0.210760 0.233580
C2ZC C -0.015990 -0.233580 0.210760
C2MA C -0.015990 -0.289240 0.266420
C3VD C -0.025880 0.326860 0.289930
C3KA C 0.025880 0.326860 0.289930
C3PD C 0.025880 0.289930 0.326860
C3Z C -0.025880 0.289930 0.326860
C3ED C -0.025880 0.173140 0.210070
C3F C 0.025880 0.173140 0.210070
C3TC C 0.025880 0.210070 0.173140
C3C C 0.173140 -0.025880 0.210070
C3UE C 0.289930 -0.025880 0.326860
C3FB C 0.289930 0.025880 0.326860
C3QE C 0.326860 0.025880 0.289930
C3JB C 0.326860 -0.025880 0.289930
C3BD C 0.210070 -0.025880 0.173140
C3G C 0.210070 0.025880 0.173140
C3FD C 0.173140 0.025880 0.210070
C3P C 0.210070 0.173140 -0.025880
C3EG C 0.326860 0.289930 -0.025880
C3OC C 0.326860 0.289930 0.025880
C3BG C 0.289930 0.326860 0.025880
C3QC C 0.289930 0.326860 -0.025880
C3MD C 0.173140 0.210070 -0.025880
C3S C 0.173140 0.210070 0.025880
C3OD C 0.210070 0.173140 0.025880
C3A C -0.210070 -0.025880 0.173140
C3WE C -0.326860 -0.025880 0.289930
C3HB C -0.326860 0.025880 0.289930
C3OE C -0.289930 0.025880 0.326860
C3AB C -0.289930 -0.025880 0.326860
C3DD C -0.173140 -0.025880 0.210070
C3I C -0.173140 0.025880 0.210070
C3WC C -0.210070 0.025880 0.173140
C3R C -0.173140 0.210070 -0.025880
C3HG C -0.289930 0.326860 -0.025880
C3NC C -0.289930 0.326860 0.025880
C3DG C -0.326860 0.289930 0.025880
C3KC C -0.326860 0.289930 -0.025880
C3LD C -0.210070 0.173140 -0.025880
C3V C -0.210070 0.173140 0.025880
C3ID C -0.173140 0.210070 0.025880
C3K C -0.025880 -0.173140 0.210070
C3TD C -0.025880 -0.289930 0.326860
C3FA C 0.025880 -0.289930 0.326860
C3AE C 0.025880 -0.326860 0.289930
C3MA C -0.025880 -0.326860 0.289930
C3ZC C -0.025880 -0.210070 0.173140
C3D C 0.025880 -0.210070 0.173140
C3GD C 0.025880 -0.173140 0.210070
O3VD O -0.051920 0.353950 0.279840
O3PD O 0.051920 0.279840 0.353950
O3KA O 0.051920 0.353950 0.279840
O3Z O -0.051920 0.279840 0.353950
O3ED O -0.051920 0.146050 0.220160
O3F O 0.051920 0.146050 0.220160
O3TC O 0.051920 0.220160 0.146050
O3C O 0.146050 -0.051920 0.220160
O3UE O 0.279840 -0.051920 0.353950
O3QE O 0.353950 0.051920 0.279840
O3FB O 0.279840 0.051920 0.353950
O3JB O 0.353950 -0.051920 0.279840
O3BD O 0.220160 -0.051920 0.146050
O3G O 0.220160 0.051920 0.146050
O3FD O 0.146050 0.051920 0.220160
O3P O 0.220160 0.146050 -0.051920
O3EG O 0.353950 0.279840 -0.051920
O3BG O 0.279840 0.353950 0.051920
O3OC O 0.353950 0.279840 0.051920
O3QC O 0.279840 0.353950 -0.051920
O3MD O 0.146050 0.220160 -0.051920
O3S O 0.146050 0.220160 0.051920
O3OD O 0.220160 0.146050 0.051920
O3A O -0.220160 -0.051920 0.146050
O3WE O -0.353950 -0.051920 0.279840
O3OE O -0.279840 0.051920 0.353950
O3HB O -0.353950 0.051920 0.279840
O3AB O -0.279840 -0.051920 0.353950
O3DD O -0.146050 -0.051920 0.220160
O3I O -0.146050 0.051920 0.220160
O3WC O -0.220160 0.051920 0.146050
O3R O -0.146050 0.220160 -0.051920
O3HG O -0.279840 0.353950 -0.051920
O3DG O -0.353950 0.279840 0.051920
O3NC O -0.279840 0.353950 0.051920
O3KC O -0.353950 0.279840 -0.051920
O3LD O -0.220160 0.146050 -0.051920
O3V O -0.220160 0.146050 0.051920
O3ID O -0.146050 0.220160 0.051920
O3K O -0.051920 -0.146050 0.220160
O3TD O -0.051920 -0.279840 0.353950
O3AE O 0.051920 -0.353950 0.279840
O3FA O 0.051920 -0.279840 0.353950
O3MA O -0.051920 -0.353950 0.279840
O3ZC O -0.051920 -0.220160 0.146050
O3D O 0.051920 -0.220160 0.146050
O3GD O 0.051920 -0.146050 0.220160
N1Z N 0.000000 0.327280 0.32728
N1C N 0.17272 0.000000 0.172720
N1FB N 0.327280 0.000000 0.32728
N1P N 0.172720 0.17272 0.000000
N1OC N 0.32728 0.327280 0.000000
N1A N -0.172720 0.000000 0.17272
N1AB N -0.327280 0.000000 0.32728
N1R N -0.17272 0.172720 0.000000
N1KC N -0.32728 0.327280 0.000000
N1D N 0.000000 -0.172720 0.17272
N1FA N 0.000000 -0.327280 0.32728
C4KA C -0.000000 0.36034 0.360350
C4C C 0.13966 0.000000 0.139650
C4FB C 0.360350 -0.000000 0.36034
C4P C 0.139650 0.13966 0.000000
C4OC C 0.36034 0.360350 0.000000
C4A C -0.139650 0.000000 0.13966
C4HB C -0.36034 -0.000000 0.360350
C4R C -0.13966 0.139650 0.000000
C4NC C -0.360350 0.36034 0.000000
C4K C 0.000000 -0.13966 0.139650
C4FA C 0.000000 -0.360350 0.36034
C5Z C 0.036770 0.379230 0.379230
C5KA C -0.036770 0.379230 0.379230
C5F C -0.036770 0.120770 0.120770
C5C C 0.120770 0.036770 0.120770
C5JB C 0.379230 0.036770 0.379230
C5FB C 0.379230 -0.036770 0.379230
C5G C 0.120770 -0.036770 0.120770
C5P C 0.120770 0.120770 0.036770
C5QC C 0.379230 0.379230 0.036770
C5OC C 0.379230 0.379230 -0.036770
C5S C 0.120770 0.120770 -0.036770
C5A C -0.120770 0.036770 0.120770
C5AB C -0.379230 0.036770 0.379230
C5HB C -0.379230 -0.036770 0.379230
C5I C -0.120770 -0.036770 0.120770
C5R C -0.120770 0.120770 0.036770
C5KC C -0.379230 0.379230 0.036770
C5NC C -0.379230 0.379230 -0.036770
C5V C -0.120770 0.120770 -0.036770
C5K C 0.036770 -0.120770 0.120770
C5MA C 0.036770 -0.379230 0.379230
C5FA C -0.036770 -0.379230 0.379230
C5D C -0.036770 -0.120770 0.120770
H3Z H 0.066310 0.372450 0.372450
H3KA H -0.066310 0.372450 0.372450
H3F H -0.066310 0.127550 0.127550
H3C H 0.127550 0.066310 0.127550
H3JB H 0.372450 0.066310 0.372450
H3FB H 0.372450 -0.066310 0.372450
H3G H 0.127550 -0.066310 0.127550
H3P H 0.127550 0.127550 0.066310
H3QC H 0.372450 0.372450 0.066310
H3OC H 0.372450 0.372450 -0.066310
H3S H 0.127550 0.127550 -0.066310
H3A H -0.127550 0.066310 0.127550
H3AB H -0.372450 0.066310 0.372450
H3HB H -0.372450 -0.066310 0.372450
H3I H -0.127550 -0.066310 0.127550
H3R H -0.127550 0.127550 0.066310
H3KC H -0.372450 0.372450 0.066310
H3NC H -0.372450 0.372450 -0.066310
H3V H -0.127550 0.127550 -0.066310
H3K H 0.066310 -0.127550 0.127550
H3MA H 0.066310 -0.372450 0.372450
H3FA H -0.066310 -0.372450 0.372450
H3D H -0.066310 -0.127550 0.127550
N2Z N 0.022720 0.409800 0.409800
N2KA N -0.022720 0.409800 0.409800
N2F N -0.022720 0.090200 0.090200
N2C N 0.090200 0.022720 0.090200
N2JB N 0.409800 0.022720 0.409800
N2FB N 0.409800 -0.022720 0.409800
N2G N 0.090200 -0.022720 0.090200
N2P N 0.090200 0.090200 0.022720
N2QC N 0.409800 0.409800 0.022720
N2OC N 0.409800 0.409800 -0.022720
N2S N 0.090200 0.090200 -0.022720
N2A N -0.090200 0.022720 0.090200
N2AB N -0.409800 0.022720 0.409800
N2HB N -0.409800 -0.022720 0.409800
N2I N -0.090200 -0.022720 0.090200
N2R N -0.090200 0.090200 0.022720
N2KC N -0.409800 0.409800 0.022720
N2NC N -0.409800 0.409800 -0.022720
N2V N -0.090200 0.090200 -0.022720
N2K N 0.022720 -0.090200 0.090200
N2MA N 0.022720 -0.409800 0.409800
N2FA N -0.022720 -0.409800 0.409800
N2D N -0.022720 -0.090200 0.090200
N2Q N 0.090200 -0.090200 0.022720
N2RA N 0.090200 0.409800 0.477280
N2JA N 0.090200 0.477280 0.409800
N2HA N -0.090200 0.477280 0.409800
N2SA N -0.090200 0.409800 0.477280
N2DB N 0.477280 0.090200 0.409800
N2RB N 0.409800 0.090200 0.477280
N2QB N 0.409800 -0.090200 0.477280
N2IB N 0.477280 -0.090200 0.409800
N2CC N 0.409800 0.477280 0.090200
N2XB N 0.477280 0.409800 0.090200
O1 O 0.2416(14) 0.00000 0.00000
loop_
_geom_bond_atom_site_label_1
_geom_bond_atom_site_label_2
_geom_bond_site_symmetry_1
_geom_bond_site_symmetry_2
Ni1 O2 1_555 1_555
O2 H1 1_555 1_555
H2 C1 1_555 1_555
C1 C2 1_555 1_555
C2 C3 1_555 1_555
C3 O3 1_555 1_555
N1 C3 1_555 1_555
C4 N1 1_555 1_555
C5 C4 1_555 1_555
H3 C5 1_555 1_555
N2 Ni1 1_555 1_555
Ni1A O2A 1_555 1_555
Ni1G O2 1_555 1_555
Ni1Z O2X 1_555 1_555
Ni1HA O2QA 1_555 1_555
Ni1DB O2WA 1_555 1_555
Ni1FB O2ZA 1_555 1_555
Ni1XB O2JC 1_555 1_555
Ni1B O2 1_555 1_555
Ni1E O2 1_555 1_555
Ni1H O2A 1_555 1_555
Ni1D O2P 1_555 1_555
Ni1DC O2AC 1_555 1_555
Ni1J O2D 1_555 1_555
Ni1AB N2AB 1_555 1_555
Ni1XA N2HB 1_555 1_555
Ni1AC N2KC 1_555 1_555
Ni1VB N2NC 1_555 1_555
Ni1CA N2MA 1_555 1_555
Ni1FA N2FA 1_555 1_555
Ni1EA O2X 1_555 1_555
Ni1X O2X 1_555 1_555
Ni1CA_2 O2X 1_555 1_555
O2A Ni1 1_555 1_555
O2P Ni1 1_555 1_555
O2D Ni1A 1_555 1_555
O2G Ni1G 1_555 1_555
O2X H1X 1_555 1_555
O2QA Ni1Z 1_555 1_555
O2EA Ni1Z 1_555 1_555
O2BA Ni1HA 1_555 1_555
O2WA H1WA 1_555 1_555
O2ZA Ni1DB 1_555 1_555
O2OB Ni1DB 1_555 1_555
O2CB Ni1FB 1_555 1_555
O2JC H1JC 1_555 1_555
O2AC Ni1XB 1_555 1_555
O2XB Ni1XB 1_555 1_555
H1A O2A 1_555 1_555
H1P O2P 1_555 1_555
H1D O2D 1_555 1_555
H1G O2G 1_555 1_555
H1QA O2QA 1_555 1_555
H1EA O2EA 1_555 1_555
H1BA O2BA 1_555 1_555
H1ZA O2ZA 1_555 1_555
H1OB O2OB 1_555 1_555
H1CB O2CB 1_555 1_555
H1AC O2AC 1_555 1_555
H1XB O2XB 1_555 1_555
H2F C1F 1_555 1_555
H2KA C1KA 1_555 1_555
H2Z C1Z 1_555 1_555
H2C C1C 1_555 1_555
H2G C1G 1_555 1_555
H2FB C1FB 1_555 1_555
H2JB C1JB 1_555 1_555
H2P C1P 1_555 1_555
H2S C1S 1_555 1_555
H2OC C1OC 1_555 1_555
H2QC C1QC 1_555 1_555
H2A C1A 1_555 1_555
H2I C1I 1_555 1_555
H2HB C1HB 1_555 1_555
H2AB C1AB 1_555 1_555
H2R C1R 1_555 1_555
H2V C1V 1_555 1_555
H2NC C1NC 1_555 1_555
H2KC C1KC 1_555 1_555
H2K C1K 1_555 1_555
H2D C1D 1_555 1_555
H2FA C1FA 1_555 1_555
H2MA C1MA 1_555 1_555
C1F C2F 1_555 1_555
C1KA C2KA 1_555 1_555
C1Z C2ED 1_555 1_555
C1C C2C 1_555 1_555
C1G C2G 1_555 1_555
C1FB C2FB 1_555 1_555
C1JB C2BD 1_555 1_555
C1P C2P 1_555 1_555
C1S C2S 1_555 1_555
C1OC C2OC 1_555 1_555
C1QC C2MD 1_555 1_555
C1A C2A 1_555 1_555
C1I C2I 1_555 1_555
C1HB C2HB 1_555 1_555
C1AB C2DD 1_555 1_555
C1R C2R 1_555 1_555
C1V C2V 1_555 1_555
C1NC C2NC 1_555 1_555
C1KC C2LD 1_555 1_555
C1K C2K 1_555 1_555
C1D C2D 1_555 1_555
C1FA C2FA 1_555 1_555
C1MA C2ZC 1_555 1_555
C2F C2 1_555 1_555
C2PD C1F 1_555 1_555
C2VD C1 1_555 1_555
C2KA C2PD 1_555 1_555
C2TC C2 1_555 1_555
C2ED C2 1_555 1_555
C2Z C1Z 1_555 1_555
C2C C2G 1_555 1_555
C2G C2FD 1_555 1_555
C2QE C1G 1_555 1_555
C2UE C1C 1_555 1_555
C2FB C2QE 1_555 1_555
C2FD C1FB 1_555 1_555
C2BD C2C 1_555 1_555
C2JB C1JB 1_555 1_555
C2P C2S 1_555 1_555
C2S C2OD 1_555 1_555
C2BG C1S 1_555 1_555
C2EG C1P 1_555 1_555
C2OC C2BG 1_555 1_555
C2OD C1OC 1_555 1_555
C2MD C2P 1_555 1_555
C2QC C1QC 1_555 1_555
C2A C2I 1_555 1_555
C2I C2WC 1_555 1_555
C2OE C1I 1_555 1_555
C2WE C1A 1_555 1_555
C2HB C2OE 1_555 1_555
C2WC C1HB 1_555 1_555
C2DD C2A 1_555 1_555
C2AB C1AB 1_555 1_555
C2R C2V 1_555 1_555
C2V C2ID 1_555 1_555
C2DG C1V 1_555 1_555
C2HG C1R 1_555 1_555
C2NC C2DG 1_555 1_555
C2ID C1NC 1_555 1_555
C2LD C2R 1_555 1_555
C2KC C1KC 1_555 1_555
C2K C2D 1_555 1_555
C2D C2GD 1_555 1_555
C2AE C1D 1_555 1_555
C2TD C1K 1_555 1_555
C2FA C2AE 1_555 1_555
C2GD C1FA 1_555 1_555
C2ZC C2K 1_555 1_555
C2MA C1MA 1_555 1_555
C3VD C2VD 1_555 1_555
C3KA C2KA 1_555 1_555
C3PD C2PD 1_555 1_555
C3Z C2Z 1_555 1_555
C3ED C3 1_555 1_555
C3F N1 1_555 1_555
C3TC C3 1_555 1_555
C3C C2C 1_555 1_555
C3UE C2UE 1_555 1_555
C3FB C2FB 1_555 1_555
C3QE C2QE 1_555 1_555
C3JB C2JB 1_555 1_555
C3BD C2BD 1_555 1_555
C3G C2G 1_555 1_555
C3FD C2FD 1_555 1_555
C3P C2P 1_555 1_555
C3EG C2EG 1_555 1_555
C3OC C2OC 1_555 1_555
C3BG C2BG 1_555 1_555
C3QC C2QC 1_555 1_555
C3MD C2MD 1_555 1_555
C3S C2S 1_555 1_555
C3OD C2OD 1_555 1_555
C3A C2A 1_555 1_555
C3WE C2WE 1_555 1_555
C3HB C2HB 1_555 1_555
C3OE C2OE 1_555 1_555
C3AB C2AB 1_555 1_555
C3DD C2DD 1_555 1_555
C3I C2I 1_555 1_555
C3WC C2WC 1_555 1_555
C3R C2R 1_555 1_555
C3HG C2HG 1_555 1_555
C3NC C2NC 1_555 1_555
C3DG C2DG 1_555 1_555
C3KC C2KC 1_555 1_555
C3LD C2LD 1_555 1_555
C3V C2V 1_555 1_555
C3ID C2ID 1_555 1_555
C3K C2K 1_555 1_555
C3TD C2TD 1_555 1_555
C3FA C2FA 1_555 1_555
C3AE C2AE 1_555 1_555
C3MA C2MA 1_555 1_555
C3ZC C2ZC 1_555 1_555
C3D C2D 1_555 1_555
C3GD C2GD 1_555 1_555
O3VD C3VD 1_555 1_555
O3PD C3PD 1_555 1_555
O3KA C3KA 1_555 1_555
O3Z C3Z 1_555 1_555
O3ED C3ED 1_555 1_555
O3F C3F 1_555 1_555
O3TC C3TC 1_555 1_555
O3C C3C 1_555 1_555
O3UE C3UE 1_555 1_555
O3QE C3QE 1_555 1_555
O3FB C3FB 1_555 1_555
O3JB C3JB 1_555 1_555
O3BD C3BD 1_555 1_555
O3G C3G 1_555 1_555
O3FD C3FD 1_555 1_555
O3P C3P 1_555 1_555
O3EG C3EG 1_555 1_555
O3BG C3BG 1_555 1_555
O3OC C3OC 1_555 1_555
O3QC C3QC 1_555 1_555
O3MD C3MD 1_555 1_555
O3S C3S 1_555 1_555
O3OD C3OD 1_555 1_555
O3A C3A 1_555 1_555
O3WE C3WE 1_555 1_555
O3OE C3OE 1_555 1_555
O3HB C3HB 1_555 1_555
O3AB C3AB 1_555 1_555
O3DD C3DD 1_555 1_555
O3I C3I 1_555 1_555
O3WC C3WC 1_555 1_555
O3R C3R 1_555 1_555
O3HG C3HG 1_555 1_555
O3DG C3DG 1_555 1_555
O3NC C3NC 1_555 1_555
O3KC C3KC 1_555 1_555
O3LD C3LD 1_555 1_555
O3V C3V 1_555 1_555
O3ID C3ID 1_555 1_555
O3K C3K 1_555 1_555
O3TD C3TD 1_555 1_555
O3AE C3AE 1_555 1_555
O3FA C3FA 1_555 1_555
O3MA C3MA 1_555 1_555
O3ZC C3ZC 1_555 1_555
O3D C3D 1_555 1_555
O3GD C3GD 1_555 1_555
N1Z C3VD 1_555 1_555
N1C C3C 1_555 1_555
N1FB C3UE 1_555 1_555
N1P C3P 1_555 1_555
N1OC C3EG 1_555 1_555
N1A C3A 1_555 1_555
N1AB C3WE 1_555 1_555
N1R C3R 1_555 1_555
N1KC C3HG 1_555 1_555
N1D C3K 1_555 1_555
N1FA C3TD 1_555 1_555
C4KA N1Z 1_555 1_555
C4C N1C 1_555 1_555
C4FB N1FB 1_555 1_555
C4P N1P 1_555 1_555
C4OC N1OC 1_555 1_555
C4A N1A 1_555 1_555
C4HB N1AB 1_555 1_555
C4R N1R 1_555 1_555
C4NC N1KC 1_555 1_555
C4K N1D 1_555 1_555
C4FA N1FA 1_555 1_555
C5Z C4KA 1_555 1_555
C5KA C4KA 1_555 1_555
C5F C4 1_555 1_555
C5C C4C 1_555 1_555
C5JB C4FB 1_555 1_555
C5FB C4FB 1_555 1_555
C5G C4C 1_555 1_555
C5P C4P 1_555 1_555
C5QC C4OC 1_555 1_555
C5OC C4OC 1_555 1_555
C5S C4P 1_555 1_555
C5A C4A 1_555 1_555
C5AB C4HB 1_555 1_555
C5HB C4HB 1_555 1_555
C5I C4A 1_555 1_555
C5R C4R 1_555 1_555
C5KC C4NC 1_555 1_555
C5NC C4NC 1_555 1_555
C5V C4R 1_555 1_555
C5K C4K 1_555 1_555
C5MA C4FA 1_555 1_555
C5FA C4FA 1_555 1_555
C5D C4K 1_555 1_555
H3Z C5Z 1_555 1_555
H3KA C5KA 1_555 1_555
H3F C5F 1_555 1_555
H3C C5C 1_555 1_555
H3JB C5JB 1_555 1_555
H3FB C5FB 1_555 1_555
H3G C5G 1_555 1_555
H3P C5P 1_555 1_555
H3QC C5QC 1_555 1_555
H3OC C5OC 1_555 1_555
H3S C5S 1_555 1_555
H3A C5A 1_555 1_555
H3AB C5AB 1_555 1_555
H3HB C5HB 1_555 1_555
H3I C5I 1_555 1_555
H3R C5R 1_555 1_555
H3KC C5KC 1_555 1_555
H3NC C5NC 1_555 1_555
H3V C5V 1_555 1_555
H3K C5K 1_555 1_555
H3MA C5MA 1_555 1_555
H3FA C5FA 1_555 1_555
H3D C5D 1_555 1_555
N2Z Ni1Z 1_555 1_555
N2KA Ni1HA 1_555 1_555
N2F N2 1_555 1_555
N2C Ni1 1_555 1_555
N2JB Ni1DB 1_555 1_555
N2FB Ni1FB 1_555 1_555
N2G Ni1G 1_555 1_555
N2P Ni1 1_555 1_555
N2QC Ni1XB 1_555 1_555
N2OC Ni1DC 1_555 1_555
N2S Ni1E 1_555 1_555
N2A Ni1A 1_555 1_555
N2AB C5AB 1_555 1_555
N2HB C5HB 1_555 1_555
N2I Ni1D 1_555 1_555
N2R Ni1A 1_555 1_555
N2KC C5KC 1_555 1_555
N2NC C5NC 1_555 1_555
N2V Ni1H 1_555 1_555
N2K Ni1G 1_555 1_555
N2MA C5MA 1_555 1_555
N2FA C5FA 1_555 1_555
N2D Ni1D 1_555 1_555
N2Q Ni1G 1_555 1_555
N2RA Ni1Z 1_555 1_555
N2JA Ni1Z 1_555 1_555
N2HA Ni1HA 1_555 1_555
N2SA Ni1HA 1_555 1_555
N2DB Ni1DB 1_555 1_555
N2RB Ni1DB 1_555 1_555
N2QB Ni1FB 1_555 1_555
N2IB Ni1FB 1_555 1_555
N2CC Ni1XB 1_555 1_555
N2XB Ni1XB 1_555 1_555
N1 C3ED 1_555 1_555
N1 C3TC 1_555 1_555
C5 N2 1_555 1_555
Ni1A O2P 1_555 1_555
Ni1A N2F 1_555 1_555
Ni1G O2P 1_555 1_555
Ni1HA O2EA 1_555 1_555
Ni1FB O2OB 1_555 1_555
Ni1B O2G 1_555 1_555
Ni1E O2A 1_555 1_555
Ni1H O2D 1_555 1_555
Ni1D O2D 1_555 1_555
Ni1D O2G 1_555 1_555
Ni1DC O2XB 1_555 1_555
Ni1J O2G 1_555 1_555
Ni1EA O2EA 1_555 1_555
Ni1CA_2 O2QA 1_555 1_555
C1KA C2TC 1_555 1_555
C2F C2TC 1_555 1_555
C2F C2ED 1_555 1_555
C2F C3F 1_555 1_555
C2PD C2VD 1_555 1_555
C2PD C2Z 1_555 1_555
C2VD C2KA 1_555 1_555
C2VD C2Z 1_555 1_555
C2KA C2Z 1_555 1_555
C2TC C2ED 1_555 1_555
C2TC C3TC 1_555 1_555
C2ED C3ED 1_555 1_555
C2C C2FD 1_555 1_555
C2G C2BD 1_555 1_555
C2QE C2UE 1_555 1_555
C2QE C2JB 1_555 1_555
C2UE C2FB 1_555 1_555
C2UE C2JB 1_555 1_555
C2FB C2JB 1_555 1_555
C2FD C2BD 1_555 1_555
C2P C2OD 1_555 1_555
C2S C2MD 1_555 1_555
C2BG C2EG 1_555 1_555
C2BG C2QC 1_555 1_555
C2EG C2OC 1_555 1_555
C2EG C2QC 1_555 1_555
C2OC C2QC 1_555 1_555
C2OD C2MD 1_555 1_555
C2A C2WC 1_555 1_555
C2I C2DD 1_555 1_555
C2OE C2WE 1_555 1_555
C2OE C2AB 1_555 1_555
C2WE C2HB 1_555 1_555
C2WE C2AB 1_555 1_555
C2HB C2AB 1_555 1_555
C2WC C2DD 1_555 1_555
C2R C2ID 1_555 1_555
C2V C2LD 1_555 1_555
C2DG C2HG 1_555 1_555
C2DG C2KC 1_555 1_555
C2HG C2NC 1_555 1_555
C2HG C2KC 1_555 1_555
C2NC C2KC 1_555 1_555
C2ID C2LD 1_555 1_555
C2K C2GD 1_555 1_555
C2D C2ZC 1_555 1_555
C2AE C2TD 1_555 1_555
C2AE C2MA 1_555 1_555
C2TD C2FA 1_555 1_555
C2TD C2MA 1_555 1_555
C2FA C2MA 1_555 1_555
C2GD C2ZC 1_555 1_555
C3VD C3KA 1_555 1_555
C3VD C3Z 1_555 1_555
C3KA C3PD 1_555 1_555
C3KA N1Z 1_555 1_555
C3PD C3Z 1_555 1_555
C3PD N1Z 1_555 1_555
C3Z N1Z 1_555 1_555
C3ED C3F 1_555 1_555
C3F C3TC 1_555 1_555
C3C C3BD 1_555 1_555
C3C C3FD 1_555 1_555
C3UE C3FB 1_555 1_555
C3UE C3JB 1_555 1_555
C3FB C3QE 1_555 1_555
C3FB N1FB 1_555 1_555
C3QE C3JB 1_555 1_555
C3QE N1FB 1_555 1_555
C3JB N1FB 1_555 1_555
C3BD C3G 1_555 1_555
C3BD N1C 1_555 1_555
C3G C3FD 1_555 1_555
C3G N1C 1_555 1_555
C3FD N1C 1_555 1_555
C3P C3MD 1_555 1_555
C3P C3OD 1_555 1_555
C3EG C3OC 1_555 1_555
C3EG C3QC 1_555 1_555
C3OC C3BG 1_555 1_555
C3OC N1OC 1_555 1_555
C3BG C3QC 1_555 1_555
C3BG N1OC 1_555 1_555
C3QC N1OC 1_555 1_555
C3MD C3S 1_555 1_555
C3MD N1P 1_555 1_555
C3S C3OD 1_555 1_555
C3S N1P 1_555 1_555
C3OD N1P 1_555 1_555
C3A C3DD 1_555 1_555
C3A C3WC 1_555 1_555
C3WE C3HB 1_555 1_555
C3WE C3AB 1_555 1_555
C3HB C3OE 1_555 1_555
C3HB N1AB 1_555 1_555
C3OE C3AB 1_555 1_555
C3OE N1AB 1_555 1_555
C3AB N1AB 1_555 1_555
C3DD C3I 1_555 1_555
C3DD N1A 1_555 1_555
C3I C3WC 1_555 1_555
C3I N1A 1_555 1_555
C3WC N1A 1_555 1_555
C3R C3LD 1_555 1_555
C3R C3ID 1_555 1_555
C3HG C3NC 1_555 1_555
C3HG C3KC 1_555 1_555
C3NC C3DG 1_555 1_555
C3NC N1KC 1_555 1_555
C3DG C3KC 1_555 1_555
C3DG N1KC 1_555 1_555
C3KC N1KC 1_555 1_555
C3LD C3V 1_555 1_555
C3LD N1R 1_555 1_555
C3V C3ID 1_555 1_555
C3V N1R 1_555 1_555
C3ID N1R 1_555 1_555
C3K C3ZC 1_555 1_555
C3K C3GD 1_555 1_555
C3TD C3FA 1_555 1_555
C3TD C3MA 1_555 1_555
C3FA C3AE 1_555 1_555
C3FA N1FA 1_555 1_555
C3AE C3MA 1_555 1_555
C3AE N1FA 1_555 1_555
C3MA N1FA 1_555 1_555
C3ZC C3D 1_555 1_555
C3ZC N1D 1_555 1_555
C3D C3GD 1_555 1_555
C3D N1D 1_555 1_555
C3GD N1D 1_555 1_555
C5Z N2Z 1_555 1_555
C5KA N2KA 1_555 1_555
C5F N2F 1_555 1_555
C5C N2C 1_555 1_555
C5JB N2JB 1_555 1_555
C5FB N2FB 1_555 1_555
C5G N2G 1_555 1_555
C5P N2P 1_555 1_555
C5QC N2QC 1_555 1_555
C5OC N2OC 1_555 1_555
C5S N2S 1_555 1_555
C5A N2A 1_555 1_555
C5I N2I 1_555 1_555
C5R N2R 1_555 1_555
C5V N2V 1_555 1_555
C5K N2K 1_555 1_555
C5D N2D 1_555 1_555
N2Z N2KA 1_555 1_555
N2C N2G 1_555 1_555
N2JB N2FB 1_555 1_555
N2P N2S 1_555 1_555
N2QC N2OC 1_555 1_555
N2A N2I 1_555 1_555
N2AB N2HB 1_555 1_555
N2R N2V 1_555 1_555
N2KC N2NC 1_555 1_555
N2K N2D 1_555 1_555
N2MA N2FA 1_555 1_555

#END
