
#######################################################################
#
#                 Cambridge Crystallographic Data Centre
#                                CCDC 
#
#######################################################################
#
# If this CIF has been generated from an entry in the Cambridge 
# Structural Database, then it will include bibliographic, chemical, 
# crystal, experimental, refinement or atomic coordinate data resulting 
# from the CCDC's data processing and validation procedures.
#
#######################################################################

data_OHAQAR
_chemical_formula_moiety         'C192 H144 Cl6 N85 O3 Zn23'
_symmetry_cell_setting           rhombohedral
_symmetry_space_group_name_H-M   'R -3 m'
_symmetry_Int_Tables_number      166
_space_group_name_Hall           '-R 3 2"'
loop_
_symmetry_equiv_pos_site_id
_symmetry_equiv_pos_as_xyz
1 x,y,z
2 -y,x-y,z
3 -x+y,-x,z
4 y,x,-z
5 x-y,-y,-z
6 -x,-x+y,-z
7 2/3+x,1/3+y,1/3+z
8 2/3-y,1/3+x-y,1/3+z
9 2/3-x+y,1/3-x,1/3+z
10 2/3+y,1/3+x,1/3-z
11 2/3+x-y,1/3-y,1/3-z
12 2/3-x,1/3-x+y,1/3-z
13 1/3+x,2/3+y,2/3+z
14 1/3-y,2/3+x-y,2/3+z
15 1/3-x+y,2/3-x,2/3+z
16 1/3+y,2/3+x,2/3-z
17 1/3+x-y,2/3-y,2/3-z
18 1/3-x,2/3-x+y,2/3-z
19 -x,-y,-z
20 y,-x+y,-z
21 x-y,x,-z
22 -y,-x,z
23 -x+y,y,z
24 x,x-y,z
25 1/3-x,2/3-y,2/3-z
26 1/3+y,2/3-x+y,2/3-z
27 1/3+x-y,2/3+x,2/3-z
28 1/3-y,2/3-x,2/3+z
29 1/3-x+y,2/3+y,2/3+z
30 1/3+x,2/3+x-y,2/3+z
31 2/3-x,1/3-y,1/3-z
32 2/3+y,1/3-x+y,1/3-z
33 2/3+x-y,1/3+x,1/3-z
34 2/3-y,1/3-x,1/3+z
35 2/3-x+y,1/3+y,1/3+z
36 2/3+x,1/3+x-y,1/3+z
_cell_length_a                   28.764(4)
_cell_length_b                   28.764(4)
_cell_length_c                   69.369(9)
_cell_angle_alpha                90
_cell_angle_beta                 90
_cell_angle_gamma                120
_cell_volume                     49704.4
loop_
_atom_site_label
_atom_site_type_symbol
_atom_site_fract_x
_atom_site_fract_y
_atom_site_fract_z
Zn1 Zn 0.3333 0.6667 0.58021(3)
Zn2 Zn 0.40209(3) 0.59791(3) 0.56221(2)
Zn3 Zn 0.13582(6) 0.06791(3) 0.42792(2)
Zn4 Zn 0.0000 -0.0000 0.41054(3)
Zn5 Zn 0.0000 -0.0000 0.35670(4)
Cl1 Cl 0.44143(11) 0.55857(11) 0.55259(11)
Cl2 Cl 0.21534(15) 0.10767(8) 0.43886(7)
N1 N 0.3238(3) 0.5704(3) 0.55514(8)
N2 N 0.29753(19) 0.5951(4) 0.56142(14)
N3 N 0.54391(25) 0.27196(18) 0.25752(12)
N4 N 0.5955(3) 0.2978(2) 0.26444(16)
N5 N 0.5969(3) 0.2985(2) 0.28300(19)
N6 N 0.2494(3) 0.4026(3) 0.51910(12)
N7 N 0.1726(3) 0.2473(3) 0.47978(12)
N8 N 0.0858(3) 0.0946(3) 0.43556(10)
N9 N 0.03572(17) 0.0714(3) 0.42894(13)
N10 N 0.1177(4) 0.0589(2) 0.39920(14)
N11 N 0.0701(4) 0.03507(18) 0.39231(14)
N12 N 0.0704(4) 0.03522(19) 0.37351(16)
C1 C 0.2878(3) 0.5267(3) 0.54531(15)
C2 C 0.2941(4) 0.4865(4) 0.53657(15)
H1 H 0.3273 0.4868 0.5368
C3 C 0.2476(3) 0.4449(4) 0.52732(15)
C4 C 0.2067(3) 0.3644(3) 0.51145(13)
C5 C 0.2142(3) 0.3187(3) 0.50283(14)
C6 C 0.2150(4) 0.2840(4) 0.52009(15)
H2 H 0.2448 0.3067 0.5288
H3 H 0.2198 0.2548 0.5152
H4 H 0.1811 0.2690 0.5272
C7 C 0.2652(3) 0.3420(3) 0.49079(14)
H5 H 0.2960 0.3664 0.4987
H6 H 0.2621 0.3617 0.4798
H7 H 0.2704 0.3128 0.4861
C8 C 0.1667(3) 0.2815(3) 0.49051(14)
C9 C 0.1321(3) 0.2120(4) 0.46847(15)
C10 C 0.1367(3) 0.1737(4) 0.45786(14)
H8 H 0.1693 0.1728 0.4577
C11 C 0.0931(3) 0.1372(3) 0.44755(13)
C12 C 0.1220(5) 0.0610(3) 0.3677(2)
C13 C 0.1553(5) 0.0776(3) 0.3844(2)
C14 C 0.2104(6) 0.1198(7) 0.3833(2)
H9 H 0.2317 0.1328 0.3946
C15 C 0.2310(7) 0.1404(8) 0.3658(3)
C16 C 0.1980(6) 0.1252(8) 0.3481(3)
C17 C 0.1443(6) 0.0916(8) 0.3486(2)
H10 H 0.1218 0.0870 0.3379
N13 N 0.2868(6) 0.1725(7) 0.3652(2)
N14 N 0.2218(7) 0.1436(8) 0.3309(2)
N15 N 0.4439(11) 0.2610(8) 0.3256(2)
N16 N 0.3790(11) 0.2265(8) 0.2930(2)
C18 C 0.3704(8) 0.2319(12) 0.3482(3)
C19 C 0.3767(10) 0.2868(11) 0.3552(3)
H11 H 0.4149 0.3138 0.3559
H12 H 0.3606 0.2820 0.3680
H13 H 0.3586 0.2985 0.3461
C20 C 0.3962(7) 0.2097(14) 0.3616(3)
H14 H 0.4353 0.2316 0.3606
H15 H 0.3848 0.1726 0.3579
H16 H 0.3851 0.2105 0.3749
C21 C 0.2796(8) 0.1850(12) 0.3314(3)
C22 C 0.2715(7) 0.1604(11) 0.2951(3)
H17 H 0.2753 0.1289 0.2974
H18 H 0.2878 0.1766 0.2827
H19 H 0.2334 0.1496 0.2950
C23 C 0.2984(8) 0.1993(13) 0.3104(3)
C24 C 0.5128(8) 0.2747(6) 0.2728(2)
C25 C 0.5451(9) 0.2956(7) 0.2889(2)
C26 C 0.5228(10) 0.2928(7) 0.3068(2)
H20 H 0.5448 0.3069 0.3179
C27 C 0.4691(10) 0.2698(7) 0.3081(2)
C28 C 0.4343(10) 0.2485(7) 0.2908(2)
C29 C 0.3620(13) 0.2290(10) 0.3115(3)
C30 C 0.3927(13) 0.2392(9) 0.3268(3)
C31 C 0.4577(9) 0.2518(7) 0.2731(2)
H21 H 0.4368 0.2390 0.2617
C32 C 0.3086(8) 0.1940(11) 0.3488(3)
C33 C 0.2894(9) 0.2472(13) 0.3053(4)
H22 H 0.3157 0.2794 0.3123
H23 H 0.2531 0.2382 0.3091
H24 H 0.2940 0.2539 0.2914
Zn6 Zn 0.6666 0.3334 0.30085(5)
O1 O 0.7365(10) 0.3683(5) 0.3169(2)
N1V N 0.2466(4) 0.5704(3) 0.55514(8)
N6V N 0.1532(4) 0.4026(3) 0.51910(12)
N7V N 0.0747(4) 0.2473(3) 0.47978(12)
N8V N 0.0088(4) 0.0946(3) 0.43556(10)
C1V C 0.2389(4) 0.5267(3) 0.54531(15)
C2V C 0.1924(6) 0.4865(4) 0.53657(15)
H1V H 0.1595 0.4868 0.5368
C3V C 0.1973(5) 0.4449(4) 0.52732(15)
C4V C 0.1577(4) 0.3644(3) 0.51145(13)
C5V C 0.1045(4) 0.3187(3) 0.50283(14)
C6V C 0.0690(6) 0.2840(4) 0.52009(15)
H2V H 0.0619 0.3067 0.5288
H3V H 0.0350 0.2548 0.5152
H4V H 0.0879 0.2690 0.5272
C7V C 0.0768(4) 0.3420(3) 0.49079(14)
H5V H 0.0704 0.3664 0.4987
H6V H 0.0996 0.3617 0.4798
H7V H 0.0424 0.3128 0.4861
C8V C 0.1148(4) 0.2815(3) 0.49051(14)
C9V C 0.0799(5) 0.2120(4) 0.46847(15)
C10V C 0.0370(5) 0.1737(4) 0.45786(14)
H8V H 0.0035 0.1728 0.4577
C11V C 0.0441(4) 0.1372(3) 0.44755(13)
C14W C 0.2104(6) 0.0906(9) 0.3833(2)
H9W H 0.2317 0.0989 0.3946
C15W C 0.2310(7) 0.0906(11) 0.3658(3)
C16W C 0.1980(6) 0.0728(10) 0.3481(3)
C17W C 0.1443(6) 0.0527(10) 0.3486(2)
H10W H 0.1218 0.0348 0.3379
N13W N 0.2868(6) 0.1143(9) 0.3652(2)
N14W N 0.2218(7) 0.0782(11) 0.3309(2)
N15W N 0.4439(11) 0.1829(14) 0.3256(2)
N16W N 0.3790(11) 0.1525(14) 0.2930(2)
C18W C 0.3704(8) 0.1385(14) 0.3482(3)
C19W C 0.3767(10) 0.0899(15) 0.3552(3)
H11W H 0.4149 0.1011 0.3559
H12W H 0.3606 0.0786 0.3680
H13W H 0.3586 0.0601 0.3461
C20W C 0.3962(7) 0.1865(16) 0.3616(3)
H14W H 0.4353 0.2037 0.3606
H15W H 0.3848 0.2122 0.3579
H16W H 0.3851 0.1746 0.3749
C21W C 0.2796(8) 0.0946(14) 0.3314(3)
C22W C 0.2715(7) 0.1111(13) 0.2951(3)
H17W H 0.2753 0.1464 0.2974
H18W H 0.2878 0.1112 0.2827
H19W H 0.2334 0.0838 0.2950
C23W C 0.2984(8) 0.0991(15) 0.3104(3)
C24W C 0.5128(8) 0.2381(10) 0.2728(2)
C25W C 0.5451(9) 0.2495(11) 0.2889(2)
C26W C 0.5228(10) 0.2300(12) 0.3068(2)
H20W H 0.5448 0.2379 0.3179
C27W C 0.4691(10) 0.1993(12) 0.3081(2)
C28W C 0.4343(10) 0.1858(12) 0.2908(2)
C29W C 0.3620(13) 0.1330(16) 0.3115(3)
C30W C 0.3927(13) 0.1535(16) 0.3268(3)
C31W C 0.4577(9) 0.2059(11) 0.2731(2)
H21W H 0.4368 0.1978 0.2617
C32W C 0.3086(8) 0.1146(14) 0.3488(3)
C33W C 0.2894(9) 0.0422(16) 0.3053(4)
H22W H 0.3157 0.0363 0.3123
H23W H 0.2531 0.0149 0.3091
H24W H 0.2940 0.0401 0.2914
Zn3A Zn -0.06791(3) 0.06791(7) 0.42792(2)
Cl2A Cl -0.10767(8) 0.10767(17) 0.43886(7)
N1A N -0.5704(3) -0.2466(4) 0.55514(8)
N2A N -0.5951(4) -0.29757(44) 0.56142(14)
N3A N -0.27196(18) 0.27195(31) 0.25752(12)
N4A N -0.2978(2) 0.2977(4) 0.26444(16)
N5A N -0.2985(2) 0.2984(4) 0.28300(19)
N6A N -0.4026(3) -0.1532(4) 0.51910(12)
N7A N -0.2473(3) -0.0747(4) 0.47978(12)
N8A N -0.0946(3) -0.0088(4) 0.43556(10)
N9A N -0.0714(3) -0.03568(34) 0.42894(13)
N10A N -0.0589(2) 0.0588(4) 0.39920(14)
N11A N -0.03507(18) 0.03503(44) 0.39231(14)
N12A N -0.03522(19) 0.03518(44) 0.37351(16)
C1A C -0.5267(3) -0.2389(4) 0.54531(15)
C2A C -0.4865(4) -0.1924(6) 0.53657(15)
H1A H -0.4868 -0.1595 0.5368
C3A C -0.4449(4) -0.1973(5) 0.52732(15)
C4A C -0.3644(3) -0.1577(4) 0.51145(13)
C5A C -0.3187(3) -0.1045(4) 0.50283(14)
C6A C -0.2840(4) -0.0690(6) 0.52009(15)
H2A H -0.3067 -0.0619 0.5288
H3A H -0.2548 -0.0350 0.5152
H4A H -0.2690 -0.0879 0.5272
C7A C -0.3420(3) -0.0768(4) 0.49079(14)
H5A H -0.3664 -0.0704 0.4987
H6A H -0.3617 -0.0996 0.4798
H7A H -0.3128 -0.0424 0.4861
C8A C -0.2815(3) -0.1148(4) 0.49051(14)
C9A C -0.2120(4) -0.0799(5) 0.46847(15)
C10A C -0.1737(4) -0.0370(5) 0.45786(14)
H8A H -0.1728 -0.0035 0.4577
C11A C -0.1372(3) -0.0441(4) 0.44755(13)
C12A C -0.0610(3) 0.0610(6) 0.3677(2)
C13A C -0.0776(3) 0.0777(6) 0.3844(2)
C14A C -0.1198(7) 0.0906(9) 0.3833(2)
H9A H -0.1328 0.0989 0.3946
C15A C -0.1404(8) 0.0906(11) 0.3658(3)
C16A C -0.1252(8) 0.0728(10) 0.3481(3)
C17A C -0.0916(8) 0.0527(10) 0.3486(2)
H10A H -0.0870 0.0348 0.3379
N13A N -0.1725(7) 0.1143(9) 0.3652(2)
N14A N -0.1436(8) 0.0782(11) 0.3309(2)
N15A N -0.2610(8) 0.1829(14) 0.3256(2)
N16A N -0.2265(8) 0.1525(14) 0.2930(2)
C18A C -0.2319(12) 0.1385(14) 0.3482(3)
C19A C -0.2868(11) 0.0899(15) 0.3552(3)
H11A H -0.3138 0.1011 0.3559
H12A H -0.2820 0.0786 0.3680
H13A H -0.2985 0.0601 0.3461
C20A C -0.2097(14) 0.1865(16) 0.3616(3)
H14A H -0.2316 0.2037 0.3606
H15A H -0.1726 0.2122 0.3579
H16A H -0.2105 0.1746 0.3749
C21A C -0.1850(12) 0.0946(14) 0.3314(3)
C22A C -0.1604(11) 0.1111(13) 0.2951(3)
H17A H -0.1289 0.1464 0.2974
H18A H -0.1766 0.1112 0.2827
H19A H -0.1496 0.0838 0.2950
C23A C -0.1993(13) 0.0991(15) 0.3104(3)
C24A C -0.2747(6) 0.2381(10) 0.2728(2)
C25A C -0.2956(7) 0.2495(11) 0.2889(2)
C26A C -0.2928(7) 0.2300(12) 0.3068(2)
H20A H -0.3069 0.2379 0.3179
C27A C -0.2698(7) 0.1993(12) 0.3081(2)
C28A C -0.2485(7) 0.1858(12) 0.2908(2)
C29A C -0.2290(10) 0.1330(16) 0.3115(3)
C30A C -0.2392(9) 0.1535(16) 0.3268(3)
C31A C -0.2518(7) 0.2059(11) 0.2731(2)
H21A H -0.2390 0.1978 0.2617
C32A C -0.1940(11) 0.1146(14) 0.3488(3)
C33A C -0.2472(13) 0.0422(16) 0.3053(4)
H22A H -0.2794 0.0363 0.3123
H23A H -0.2382 0.0149 0.3091
H24A H -0.2539 0.0401 0.2914
N1U N -0.5704(3) -0.3238(3) 0.55514(8)
N6U N -0.4026(3) -0.2494(3) 0.51910(12)
N7U N -0.2473(3) -0.1726(3) 0.47978(12)
N8U N -0.0946(3) -0.0858(3) 0.43556(10)
C1U C -0.5267(3) -0.2878(3) 0.54531(15)
C2U C -0.4865(4) -0.2941(4) 0.53657(15)
H1U H -0.4868 -0.3273 0.5368
C3U C -0.4449(4) -0.2476(3) 0.52732(15)
C4U C -0.3644(3) -0.2067(3) 0.51145(13)
C5U C -0.3187(3) -0.2142(3) 0.50283(14)
C6U C -0.2840(4) -0.2150(4) 0.52009(15)
H2U H -0.3067 -0.2448 0.5288
H3U H -0.2548 -0.2198 0.5152
H4U H -0.2690 -0.1811 0.5272
C7U C -0.3420(3) -0.2652(3) 0.49079(14)
H5U H -0.3664 -0.2960 0.4987
H6U H -0.3617 -0.2621 0.4798
H7U H -0.3128 -0.2704 0.4861
C8U C -0.2815(3) -0.1667(3) 0.49051(14)
C9U C -0.2120(4) -0.1321(3) 0.46847(15)
C10U C -0.1737(4) -0.1367(3) 0.45786(14)
H8U H -0.1728 -0.1693 0.4577
C11U C -0.1372(3) -0.0931(3) 0.44755(13)
C14V C -0.0906(9) 0.1198(7) 0.3833(2)
H9V H -0.0989 0.1328 0.3946
C15V C -0.0906(11) 0.1404(8) 0.3658(3)
C16V C -0.0728(10) 0.1252(8) 0.3481(3)
C17V C -0.0527(10) 0.0916(8) 0.3486(2)
H10V H -0.0348 0.0870 0.3379
N13V N -0.1143(9) 0.1725(7) 0.3652(2)
N14V N -0.0782(11) 0.1436(8) 0.3309(2)
N15V N -0.1829(14) 0.2610(8) 0.3256(2)
N16V N -0.1525(14) 0.2265(8) 0.2930(2)
C18V C -0.1385(14) 0.2319(12) 0.3482(3)
C19V C -0.0899(15) 0.2868(11) 0.3552(3)
H11V H -0.1011 0.3138 0.3559
H12V H -0.0786 0.2820 0.3680
H13V H -0.0601 0.2985 0.3461
C20V C -0.1865(16) 0.2097(14) 0.3616(3)
H14V H -0.2037 0.2316 0.3606
H15V H -0.2122 0.1726 0.3579
H16V H -0.1746 0.2105 0.3749
C21V C -0.0946(14) 0.1850(12) 0.3314(3)
C22V C -0.1111(13) 0.1604(11) 0.2951(3)
H17V H -0.1464 0.1289 0.2974
H18V H -0.1112 0.1766 0.2827
H19V H -0.0838 0.1496 0.2950
C23V C -0.0991(15) 0.1993(13) 0.3104(3)
C24V C -0.2381(10) 0.2747(6) 0.2728(2)
C25V C -0.2495(11) 0.2956(7) 0.2889(2)
C26V C -0.2300(12) 0.2928(7) 0.3068(2)
H20V H -0.2379 0.3069 0.3179
C27V C -0.1993(12) 0.2698(7) 0.3081(2)
C28V C -0.1858(12) 0.2485(7) 0.2908(2)
C29V C -0.1330(16) 0.2290(10) 0.3115(3)
C30V C -0.1535(16) 0.2392(9) 0.3268(3)
C31V C -0.2059(11) 0.2518(7) 0.2731(2)
H21V H -0.1978 0.2390 0.2617
C32V C -0.1146(14) 0.1940(11) 0.3488(3)
C33V C -0.0422(16) 0.2472(13) 0.3053(4)
H22V H -0.0363 0.2794 0.3123
H23V H -0.0149 0.2382 0.3091
H24V H -0.0401 0.2539 0.2914
Zn3B Zn -0.06791(7) -0.13582(6) 0.42792(2)
Cl2B Cl -0.10767(17) -0.21534(15) 0.43886(7)
N1B N 0.2466(4) -0.3238(3) 0.55514(8)
N2B N 0.29757(44) -0.29753(19) 0.56142(14)
N3B N -0.27195(31) -0.54391(25) 0.25752(12)
N4B N -0.2977(4) -0.5955(3) 0.26444(16)
N5B N -0.2984(4) -0.5969(3) 0.28300(19)
N6B N 0.1532(4) -0.2494(3) 0.51910(12)
N7B N 0.0747(4) -0.1726(3) 0.47978(12)
N8B N 0.0088(4) -0.0858(3) 0.43556(10)
N9B N 0.03568(34) -0.03572(17) 0.42894(13)
N10B N -0.0588(4) -0.1177(4) 0.39920(14)
N11B N -0.03503(44) -0.0701(4) 0.39231(14)
N12B N -0.03518(44) -0.0704(4) 0.37351(16)
C1B C 0.2389(4) -0.2878(3) 0.54531(15)
C2B C 0.1924(6) -0.2941(4) 0.53657(15)
H1B H 0.1595 -0.3273 0.5368
C3B C 0.1973(5) -0.2476(3) 0.52732(15)
C4B C 0.1577(4) -0.2067(3) 0.51145(13)
C5B C 0.1045(4) -0.2142(3) 0.50283(14)
C6B C 0.0690(6) -0.2150(4) 0.52009(15)
H2B H 0.0619 -0.2448 0.5288
H3B H 0.0350 -0.2198 0.5152
H4B H 0.0879 -0.1811 0.5272
C7B C 0.0768(4) -0.2652(3) 0.49079(14)
H5B H 0.0704 -0.2960 0.4987
H6B H 0.0996 -0.2621 0.4798
H7B H 0.0424 -0.2704 0.4861
C8B C 0.1148(4) -0.1667(3) 0.49051(14)
C9B C 0.0799(5) -0.1321(3) 0.46847(15)
C10B C 0.0370(5) -0.1367(3) 0.45786(14)
H8B H 0.0035 -0.1693 0.4577
C11B C 0.0441(4) -0.0931(3) 0.44755(13)
C12B C -0.0610(6) -0.1220(5) 0.3677(2)
C13B C -0.0777(6) -0.1553(5) 0.3844(2)
C14B C -0.0906(9) -0.2104(6) 0.3833(2)
H9B H -0.0989 -0.2317 0.3946
C15B C -0.0906(11) -0.2310(7) 0.3658(3)
C16B C -0.0728(10) -0.1980(6) 0.3481(3)
C17B C -0.0527(10) -0.1443(6) 0.3486(2)
H10B H -0.0348 -0.1218 0.3379
N13B N -0.1143(9) -0.2868(6) 0.3652(2)
N14B N -0.0782(11) -0.2218(7) 0.3309(2)
N15B N -0.1829(14) -0.4439(11) 0.3256(2)
N16B N -0.1525(14) -0.3790(11) 0.2930(2)
C18B C -0.1385(14) -0.3704(8) 0.3482(3)
C19B C -0.0899(15) -0.3767(10) 0.3552(3)
H11B H -0.1011 -0.4149 0.3559
H12B H -0.0786 -0.3606 0.3680
H13B H -0.0601 -0.3586 0.3461
C20B C -0.1865(16) -0.3962(7) 0.3616(3)
H14B H -0.2037 -0.4353 0.3606
H15B H -0.2122 -0.3848 0.3579
H16B H -0.1746 -0.3851 0.3749
C21B C -0.0946(14) -0.2796(8) 0.3314(3)
C22B C -0.1111(13) -0.2715(7) 0.2951(3)
H17B H -0.1464 -0.2753 0.2974
H18B H -0.1112 -0.2878 0.2827
H19B H -0.0838 -0.2334 0.2950
C23B C -0.0991(15) -0.2984(8) 0.3104(3)
C24B C -0.2381(10) -0.5128(8) 0.2728(2)
C25B C -0.2495(11) -0.5451(9) 0.2889(2)
C26B C -0.2300(12) -0.5228(10) 0.3068(2)
H20B H -0.2379 -0.5448 0.3179
C27B C -0.1993(12) -0.4691(10) 0.3081(2)
C28B C -0.1858(12) -0.4343(10) 0.2908(2)
C29B C -0.1330(16) -0.3620(13) 0.3115(3)
C30B C -0.1535(16) -0.3927(13) 0.3268(3)
C31B C -0.2059(11) -0.4577(9) 0.2731(2)
H21B H -0.1978 -0.4368 0.2617
C32B C -0.1146(14) -0.3086(8) 0.3488(3)
C33B C -0.0422(16) -0.2894(9) 0.3053(4)
H22B H -0.0363 -0.3157 0.3123
H23B H -0.0149 -0.2531 0.3091
H24B H -0.0401 -0.2940 0.2914
N1W N 0.3238(3) -0.2466(4) 0.55514(8)
N6W N 0.2494(3) -0.1532(4) 0.51910(12)
N7W N 0.1726(3) -0.0747(4) 0.47978(12)
N8W N 0.0858(3) -0.0088(4) 0.43556(10)
C1W C 0.2878(3) -0.2389(4) 0.54531(15)
C2W C 0.2941(4) -0.1924(6) 0.53657(15)
H1W H 0.3273 -0.1595 0.5368
C3W C 0.2476(3) -0.1973(5) 0.52732(15)
C4W C 0.2067(3) -0.1577(4) 0.51145(13)
C5W C 0.2142(3) -0.1045(4) 0.50283(14)
C6W C 0.2150(4) -0.0690(6) 0.52009(15)
H2W H 0.2448 -0.0619 0.5288
H3W H 0.2198 -0.0350 0.5152
H4W H 0.1811 -0.0879 0.5272
C7W C 0.2652(3) -0.0768(4) 0.49079(14)
H5W H 0.2960 -0.0704 0.4987
H6W H 0.2621 -0.0996 0.4798
H7W H 0.2704 -0.0424 0.4861
C8W C 0.1667(3) -0.1148(4) 0.49051(14)
C9W C 0.1321(3) -0.0799(5) 0.46847(15)
C10W C 0.1367(3) -0.0370(5) 0.45786(14)
H8W H 0.1693 -0.0035 0.4577
C11W C 0.0931(3) -0.0441(4) 0.44755(13)
C14U C -0.1198(7) -0.2104(6) 0.3833(2)
H9U H -0.1328 -0.2317 0.3946
C15U C -0.1404(8) -0.2310(7) 0.3658(3)
C16U C -0.1252(8) -0.1980(6) 0.3481(3)
C17U C -0.0916(8) -0.1443(6) 0.3486(2)
H10U H -0.0870 -0.1218 0.3379
N13U N -0.1725(7) -0.2868(6) 0.3652(2)
N14U N -0.1436(8) -0.2218(7) 0.3309(2)
N15U N -0.2610(8) -0.4439(11) 0.3256(2)
N16U N -0.2265(8) -0.3790(11) 0.2930(2)
C18U C -0.2319(12) -0.3704(8) 0.3482(3)
C19U C -0.2868(11) -0.3767(10) 0.3552(3)
H11U H -0.3138 -0.4149 0.3559
H12U H -0.2820 -0.3606 0.3680
H13U H -0.2985 -0.3586 0.3461
C20U C -0.2097(14) -0.3962(7) 0.3616(3)
H14U H -0.2316 -0.4353 0.3606
H15U H -0.1726 -0.3848 0.3579
H16U H -0.2105 -0.3851 0.3749
C21U C -0.1850(12) -0.2796(8) 0.3314(3)
C22U C -0.1604(11) -0.2715(7) 0.2951(3)
H17U H -0.1289 -0.2753 0.2974
H18U H -0.1766 -0.2878 0.2827
H19U H -0.1496 -0.2334 0.2950
C23U C -0.1993(13) -0.2984(8) 0.3104(3)
C24U C -0.2747(6) -0.5128(8) 0.2728(2)
C25U C -0.2956(7) -0.5451(9) 0.2889(2)
C26U C -0.2928(7) -0.5228(10) 0.3068(2)
H20U H -0.3069 -0.5448 0.3179
C27U C -0.2698(7) -0.4691(10) 0.3081(2)
C28U C -0.2485(7) -0.4343(10) 0.2908(2)
C29U C -0.2290(10) -0.3620(13) 0.3115(3)
C30U C -0.2392(9) -0.3927(13) 0.3268(3)
C31U C -0.2518(7) -0.4577(9) 0.2731(2)
H21U H -0.2390 -0.4368 0.2617
C32U C -0.1940(11) -0.3086(8) 0.3488(3)
C33U C -0.2472(13) -0.2894(9) 0.3053(4)
H22U H -0.2794 -0.3157 0.3123
H23U H -0.2382 -0.2531 0.3091
H24U H -0.2539 -0.2940 0.2914
Zn2B Zn 0.19582(4) 0.59791(3) 0.56221(2)
Cl1B Cl 0.11714(16) 0.55857(11) 0.55259(11)
Zn2A Zn 0.40209(3) -0.19582(4) 0.56221(2)
Cl1A Cl 0.44143(11) -0.11714(16) 0.55259(11)
O1A O 0.6317(5) 0.3682(11) 0.3169(2)
O1B O 0.6318(11) 0.2635(10) 0.3169(2)
Zn1_2 Zn -0.6667 -0.3333 0.58021(3)
Zn1_3 Zn 0.3333 -0.3333 0.58021(3)
Zn1L Zn -0.3334 -0.6666 0.24688(3)
Zn1L_2 Zn -0.3334 0.3334 0.24688(3)
Zn1L_3 Zn 0.6666 0.3334 0.24688(3)
Zn2_2 Zn -0.59791(3) -0.40209(3) 0.56221(2)
Zn2A_2 Zn -0.59791(3) -0.19582(4) 0.56221(2)
Zn2B_2 Zn 0.19582(4) -0.40209(3) 0.56221(2)
Zn2L Zn -0.26458(3) 0.26458(3) 0.22888(2)
Zn2M Zn -0.26458(3) -0.52915(4) 0.22888(2)
Zn2N Zn 0.52915(4) 0.26458(3) 0.22888(2)
N1A_2 N 0.4296(3) -0.2466(4) 0.55514(8)
N1B_2 N 0.2466(4) 0.6762(3) 0.55514(8)
N1U_2 N 0.4296(3) 0.6762(3) 0.55514(8)
N2A_2 N 0.4049(4) 0.70243(44) 0.56142(14)
N2B_2 N 0.29757(44) 0.70247(19) 0.56142(14)
N3F N 0.21058(25) 0.60529(18) 0.59085(12)
N3G N 0.39471(18) 0.60528(31) 0.59085(12)
N3H N 0.39472(31) -0.21058(25) 0.59085(12)
N4F N 0.2622(3) 0.6311(2) 0.59777(16)
N4G N 0.3689(2) 0.6310(4) 0.59777(16)
N4H N 0.3690(4) 0.7378(3) 0.59777(16)
N5A_2 N 0.7015(2) 0.2984(4) 0.28300(19)
N5B_2 N 0.7016(4) 0.4031(3) 0.28300(19)
Zn6_2 Zn -0.3334 -0.6666 0.30085(5)
Zn6_3 Zn -0.3334 0.3334 0.30085(5)
loop_
_geom_bond_atom_site_label_1
_geom_bond_atom_site_label_2
_geom_bond_site_symmetry_1
_geom_bond_site_symmetry_2
Zn1 N2 1_555 1_555
Zn2 Cl1 1_555 1_555
Zn3 Cl2 1_555 1_555
Zn4 N9 1_555 1_555
Zn5 N12 1_555 1_555
N1 Zn2 1_555 1_555
N2 N1 1_555 1_555
N3 N4 1_555 1_555
N4 N5 1_555 1_555
N5 C25 1_555 1_555
N6 C3 1_555 1_555
N7 C8 1_555 1_555
N8 Zn3 1_555 1_555
N9 N8 1_555 1_555
N10 Zn3 1_555 1_555
N11 Zn4 1_555 1_555
N12 N11 1_555 1_555
C1 N1 1_555 1_555
C2 C1 1_555 1_555
H1 C2 1_555 1_555
C3 C2 1_555 1_555
C4 N6 1_555 1_555
C5 C4 1_555 1_555
C6 C5 1_555 1_555
H2 C6 1_555 1_555
H3 C6 1_555 1_555
H4 C6 1_555 1_555
C7 C5 1_555 1_555
H5 C7 1_555 1_555
H6 C7 1_555 1_555
H7 C7 1_555 1_555
C8 C5 1_555 1_555
C9 N7 1_555 1_555
C10 C9 1_555 1_555
H8 C10 1_555 1_555
C11 N8 1_555 1_555
C12 N12 1_555 1_555
C13 N10 1_555 1_555
C14 C13 1_555 1_555
H9 C14 1_555 1_555
C15 C14 1_555 1_555
C16 C15 1_555 1_555
C17 C12 1_555 1_555
H10 C17 1_555 1_555
N13 C15 1_555 1_555
N14 C16 1_555 1_555
N15 C27 1_555 1_555
N16 C28 1_555 1_555
C18 C19 1_555 1_555
C19 H11 1_555 1_555
H12 C19 1_555 1_555
H13 C19 1_555 1_555
C20 C18 1_555 1_555
H14 C20 1_555 1_555
H15 C20 1_555 1_555
H16 C20 1_555 1_555
C21 N14 1_555 1_555
C22 H17 1_555 1_555
H18 C22 1_555 1_555
H19 C22 1_555 1_555
C23 C21 1_555 1_555
C24 N3 1_555 1_555
C25 C24 1_555 1_555
C26 C25 1_555 1_555
H20 C26 1_555 1_555
C27 C26 1_555 1_555
C28 C27 1_555 1_555
C29 N16 1_555 1_555
C30 N15 1_555 1_555
C31 C24 1_555 1_555
H21 C31 1_555 1_555
C32 N13 1_555 1_555
C33 C23 1_555 1_555
H22 C33 1_555 1_555
H23 C33 1_555 1_555
H24 C33 1_555 1_555
Zn6 N5 1_555 1_555
O1 Zn6 1_555 1_555
N1V N2 1_555 1_555
N6V C3V 1_555 1_555
N7V C8V 1_555 1_555
N8V N9 1_555 1_555
C1V C1 1_555 1_555
C2V C1V 1_555 1_555
H1V C2V 1_555 1_555
C3V C3 1_555 1_555
C4V C4 1_555 1_555
C5V C4V 1_555 1_555
C6V C5V 1_555 1_555
H2V C6V 1_555 1_555
H3V C6V 1_555 1_555
H4V C6V 1_555 1_555
C7V C5V 1_555 1_555
H5V C7V 1_555 1_555
H6V C7V 1_555 1_555
H7V C7V 1_555 1_555
C8V C8 1_555 1_555
C9V C9 1_555 1_555
C10V C9V 1_555 1_555
H8V C10V 1_555 1_555
C11V C11 1_555 1_555
C14W C13 1_555 1_555
H9W C14 1_555 1_555
C15W C15 1_555 1_555
C16W C16 1_555 1_555
C17W C12 1_555 1_555
H10W C17W 1_555 1_555
N13W N13 1_555 1_555
N14W C16W 1_555 1_555
N15W C27W 1_555 1_555
N16W C28W 1_555 1_555
C18W H15 1_555 1_555
C19W C18W 1_555 1_555
H11W C19W 1_555 1_555
H12W C19W 1_555 1_555
H13W C19W 1_555 1_555
C20W C20 1_555 1_555
H14W C20 1_555 1_555
H15W C18 1_555 1_555
H16W C20 1_555 1_555
C21W N14W 1_555 1_555
C22W C22 1_555 1_555
H17W C22W 1_555 1_555
H18W C22W 1_555 1_555
H19W C22W 1_555 1_555
C23W C21W 1_555 1_555
C24W N3 1_555 1_555
C25W N5 1_555 1_555
C26W C26 1_555 1_555
H20W C26W 1_555 1_555
C27W C26W 1_555 1_555
C28W C28 1_555 1_555
C29W N16W 1_555 1_555
C30W N15W 1_555 1_555
C31W C31 1_555 1_555
H21W C31W 1_555 1_555
C32W N13W 1_555 1_555
C33W C23W 1_555 1_555
H22W C33W 1_555 1_555
H23W C33W 1_555 1_555
H24W C33W 1_555 1_555
Zn3A N8V 1_555 1_555
Cl2A Zn3A 1_555 1_555
N1A N2A 1_555 1_555
N2A N1U 1_555 1_555
N3A N4A 1_555 1_555
N4A N5A 1_555 1_555
N5A C25A 1_555 1_555
N6A C3A 1_555 1_555
N7A C8A 1_555 1_555
N8A Zn3A 1_555 1_555
N9A Zn4 1_555 1_555
N10A Zn3A 1_555 1_555
N11A Zn4 1_555 1_555
N12A Zn5 1_555 1_555
C1A N1A 1_555 1_555
C2A C1A 1_555 1_555
H1A C2A 1_555 1_555
C3A C2A 1_555 1_555
C4A N6A 1_555 1_555
C5A C4A 1_555 1_555
C6A C5A 1_555 1_555
H2A C6A 1_555 1_555
H3A C6A 1_555 1_555
H4A C6A 1_555 1_555
C7A C5A 1_555 1_555
H5A C7A 1_555 1_555
H6A C7A 1_555 1_555
H7A C7A 1_555 1_555
C8A C5A 1_555 1_555
C9A N7A 1_555 1_555
C10A C9A 1_555 1_555
H8A C10A 1_555 1_555
C11A N8A 1_555 1_555
C12A N12A 1_555 1_555
C13A N10A 1_555 1_555
C14A C13A 1_555 1_555
H9A C14A 1_555 1_555
C15A C14A 1_555 1_555
C16A C15A 1_555 1_555
C17A C12A 1_555 1_555
H10A C17A 1_555 1_555
N13A C15A 1_555 1_555
N14A C16A 1_555 1_555
N15A C27A 1_555 1_555
N16A C28A 1_555 1_555
C18A C19A 1_555 1_555
C19A H11A 1_555 1_555
H12A C19A 1_555 1_555
H13A C19A 1_555 1_555
C20A C18A 1_555 1_555
H14A C20A 1_555 1_555
H15A C20A 1_555 1_555
H16A C20A 1_555 1_555
C21A N14A 1_555 1_555
C22A H17A 1_555 1_555
H18A C22A 1_555 1_555
H19A C22A 1_555 1_555
C23A C21A 1_555 1_555
C24A N3A 1_555 1_555
C25A C24A 1_555 1_555
C26A C25A 1_555 1_555
H20A C26A 1_555 1_555
C27A C26A 1_555 1_555
C28A C27A 1_555 1_555
C29A N16A 1_555 1_555
C30A N15A 1_555 1_555
C31A C24A 1_555 1_555
H21A C31A 1_555 1_555
C32A N13A 1_555 1_555
C33A C23A 1_555 1_555
H22A C33A 1_555 1_555
H23A C33A 1_555 1_555
H24A C33A 1_555 1_555
N1U C1U 1_555 1_555
N6U C3U 1_555 1_555
N7U C8U 1_555 1_555
N8U N9A 1_555 1_555
C1U C1A 1_555 1_555
C2U C1U 1_555 1_555
H1U C2U 1_555 1_555
C3U C3A 1_555 1_555
C4U C4A 1_555 1_555
C5U C4U 1_555 1_555
C6U C5U 1_555 1_555
H2U C6U 1_555 1_555
H3U C6U 1_555 1_555
H4U C6U 1_555 1_555
C7U C5U 1_555 1_555
H5U C7U 1_555 1_555
H6U C7U 1_555 1_555
H7U C7U 1_555 1_555
C8U C8A 1_555 1_555
C9U C9A 1_555 1_555
C10U C9U 1_555 1_555
H8U C10U 1_555 1_555
C11U C11A 1_555 1_555
C14V C13A 1_555 1_555
H9V C14A 1_555 1_555
C15V C15A 1_555 1_555
C16V C16A 1_555 1_555
C17V C12A 1_555 1_555
H10V C17V 1_555 1_555
N13V N13A 1_555 1_555
N14V C16V 1_555 1_555
N15V C27V 1_555 1_555
N16V C28V 1_555 1_555
C18V H15A 1_555 1_555
C19V C18V 1_555 1_555
H11V C19V 1_555 1_555
H12V C19V 1_555 1_555
H13V C19V 1_555 1_555
C20V C20A 1_555 1_555
H14V C20A 1_555 1_555
H15V C18A 1_555 1_555
H16V C20A 1_555 1_555
C21V N14V 1_555 1_555
C22V C22A 1_555 1_555
H17V C22V 1_555 1_555
H18V C22V 1_555 1_555
H19V C22V 1_555 1_555
C23V C21V 1_555 1_555
C24V N3A 1_555 1_555
C25V N5A 1_555 1_555
C26V C26A 1_555 1_555
H20V C26V 1_555 1_555
C27V C26V 1_555 1_555
C28V C28A 1_555 1_555
C29V N16V 1_555 1_555
C30V N15V 1_555 1_555
C31V C31A 1_555 1_555
H21V C31V 1_555 1_555
C32V N13V 1_555 1_555
C33V C23V 1_555 1_555
H22V C33V 1_555 1_555
H23V C33V 1_555 1_555
H24V C33V 1_555 1_555
Zn3B N8U 1_555 1_555
Cl2B Zn3B 1_555 1_555
N1B N2B 1_555 1_555
N2B N1W 1_555 1_555
N3B N4B 1_555 1_555
N4B N5B 1_555 1_555
N5B C25B 1_555 1_555
N6B C3B 1_555 1_555
N7B C8B 1_555 1_555
N8B Zn3B 1_555 1_555
N9B Zn4 1_555 1_555
N10B Zn3B 1_555 1_555
N11B Zn4 1_555 1_555
N12B Zn5 1_555 1_555
C1B N1B 1_555 1_555
C2B C1B 1_555 1_555
H1B C2B 1_555 1_555
C3B C2B 1_555 1_555
C4B N6B 1_555 1_555
C5B C4B 1_555 1_555
C6B C5B 1_555 1_555
H2B C6B 1_555 1_555
H3B C6B 1_555 1_555
H4B C6B 1_555 1_555
C7B C5B 1_555 1_555
H5B C7B 1_555 1_555
H6B C7B 1_555 1_555
H7B C7B 1_555 1_555
C8B C5B 1_555 1_555
C9B N7B 1_555 1_555
C10B C9B 1_555 1_555
H8B C10B 1_555 1_555
C11B N8B 1_555 1_555
C12B N12B 1_555 1_555
C13B N10B 1_555 1_555
C14B C13B 1_555 1_555
H9B C14B 1_555 1_555
C15B C14B 1_555 1_555
C16B C15B 1_555 1_555
C17B C12B 1_555 1_555
H10B C17B 1_555 1_555
N13B C15B 1_555 1_555
N14B C16B 1_555 1_555
N15B C27B 1_555 1_555
N16B C28B 1_555 1_555
C18B C19B 1_555 1_555
C19B H11B 1_555 1_555
H12B C19B 1_555 1_555
H13B C19B 1_555 1_555
C20B C18B 1_555 1_555
H14B C20B 1_555 1_555
H15B C20B 1_555 1_555
H16B C20B 1_555 1_555
C21B N14B 1_555 1_555
C22B H17B 1_555 1_555
H18B C22B 1_555 1_555
H19B C22B 1_555 1_555
C23B C21B 1_555 1_555
C24B N3B 1_555 1_555
C25B C24B 1_555 1_555
C26B C25B 1_555 1_555
H20B C26B 1_555 1_555
C27B C26B 1_555 1_555
C28B C27B 1_555 1_555
C29B N16B 1_555 1_555
C30B N15B 1_555 1_555
C31B C24B 1_555 1_555
H21B C31B 1_555 1_555
C32B N13B 1_555 1_555
C33B C23B 1_555 1_555
H22B C33B 1_555 1_555
H23B C33B 1_555 1_555
H24B C33B 1_555 1_555
N1W C1W 1_555 1_555
N6W C3W 1_555 1_555
N7W C8W 1_555 1_555
N8W Zn3 1_555 1_555
C1W C1B 1_555 1_555
C2W C1W 1_555 1_555
H1W C2W 1_555 1_555
C3W C3B 1_555 1_555
C4W C4B 1_555 1_555
C5W C4W 1_555 1_555
C6W C5W 1_555 1_555
H2W C6W 1_555 1_555
H3W C6W 1_555 1_555
H4W C6W 1_555 1_555
C7W C5W 1_555 1_555
H5W C7W 1_555 1_555
H6W C7W 1_555 1_555
H7W C7W 1_555 1_555
C8W C8B 1_555 1_555
C9W C9B 1_555 1_555
C10W C9W 1_555 1_555
H8W C10W 1_555 1_555
C11W C11B 1_555 1_555
C14U C13B 1_555 1_555
H9U C14B 1_555 1_555
C15U C15B 1_555 1_555
C16U C16B 1_555 1_555
C17U C12B 1_555 1_555
H10U C17U 1_555 1_555
N13U N13B 1_555 1_555
N14U C16U 1_555 1_555
N15U C27U 1_555 1_555
N16U C28U 1_555 1_555
C18U H15B 1_555 1_555
C19U C18U 1_555 1_555
H11U C19U 1_555 1_555
H12U C19U 1_555 1_555
H13U C19U 1_555 1_555
C20U C20B 1_555 1_555
H14U C20B 1_555 1_555
H15U C18B 1_555 1_555
H16U C20B 1_555 1_555
C21U N14U 1_555 1_555
C22U C22B 1_555 1_555
H17U C22U 1_555 1_555
H18U C22U 1_555 1_555
H19U C22U 1_555 1_555
C23U C21U 1_555 1_555
C24U N3B 1_555 1_555
C25U N5B 1_555 1_555
C26U C26B 1_555 1_555
H20U C26U 1_555 1_555
C27U C26U 1_555 1_555
C28U C28B 1_555 1_555
C29U N16U 1_555 1_555
C30U N15U 1_555 1_555
C31U C31B 1_555 1_555
H21U C31U 1_555 1_555
C32U N13U 1_555 1_555
C33U C23U 1_555 1_555
H22U C33U 1_555 1_555
H23U C33U 1_555 1_555
H24U C33U 1_555 1_555
Zn2B N1V 1_555 1_555
Cl1B Zn2B 1_555 1_555
Zn2A N1W 1_555 1_555
Cl1A Zn2A 1_555 1_555
O1A Zn6 1_555 1_555
O1B Zn6 1_555 1_555
Zn1_2 N2A 1_555 1_555
Zn1_3 N2B 1_555 1_555
Zn1L N4B 1_555 1_555
Zn1L_2 N4A 1_555 1_555
Zn1L_3 N4 1_555 1_555
Zn2_2 N1U 1_555 1_555
Zn2A_2 N1A 1_555 1_555
Zn2B_2 N1B 1_555 1_555
Zn2L N3A 1_555 1_555
Zn2M N3B 1_555 1_555
Zn2N N3 1_555 1_555
N1A_2 Zn2A 1_555 1_555
N1B_2 Zn2B 1_555 1_555
N1U_2 Zn2 1_555 1_555
N2A_2 Zn1 1_555 1_555
N2B_2 Zn1 1_555 1_555
N3F Zn2B 1_555 1_555
N3G Zn2 1_555 1_555
N3H Zn2A 1_555 1_555
N4F Zn1 1_555 1_555
N4G Zn1 1_555 1_555
N4H Zn1 1_555 1_555
N5A_2 Zn6 1_555 1_555
N5B_2 Zn6 1_555 1_555
Zn6_2 N5B 1_555 1_555
Zn6_3 N5A 1_555 1_555
N10 N11 1_555 1_555
C10 C11 1_555 1_555
C12 C13 1_555 1_555
C14 C14W 1_555 1_555
H9 C14W 1_555 1_555
C16 C17 1_555 1_555
C17 C17W 1_555 1_555
C18 C30 1_555 1_555
C18 C32 1_555 1_555
H14 C20W 1_555 1_555
H16 C20W 1_555 1_555
C21 C32 1_555 1_555
C22 C23 1_555 1_555
C23 C29 1_555 1_555
C24 C24W 1_555 1_555
C25 C25W 1_555 1_555
C28 C31 1_555 1_555
C29 C30 1_555 1_555
N1V C1V 1_555 1_555
N6V C4V 1_555 1_555
N7V C9V 1_555 1_555
N8V C11V 1_555 1_555
C2V C3V 1_555 1_555
C5V C8V 1_555 1_555
C10V C11V 1_555 1_555
C14W H9W 1_555 1_555
C14W C15W 1_555 1_555
C15W C16W 1_555 1_555
C15W N13W 1_555 1_555
C16W C17W 1_555 1_555
C18W C20W 1_555 1_555
C18W C30W 1_555 1_555
C18W C32W 1_555 1_555
C20W H14W 1_555 1_555
C20W H15W 1_555 1_555
C20W H16W 1_555 1_555
C21W C32W 1_555 1_555
C22W C23W 1_555 1_555
C23W C29W 1_555 1_555
C24W C25W 1_555 1_555
C24W C31W 1_555 1_555
C25W C26W 1_555 1_555
C27W C28W 1_555 1_555
C28W C31W 1_555 1_555
C29W C30W 1_555 1_555
N8A N9A 1_555 1_555
N10A N11A 1_555 1_555
N11A N12A 1_555 1_555
C10A C11A 1_555 1_555
C12A C13A 1_555 1_555
C14A C14V 1_555 1_555
H9A C14V 1_555 1_555
C16A C17A 1_555 1_555
C17A C17V 1_555 1_555
C18A C30A 1_555 1_555
C18A C32A 1_555 1_555
H14A C20V 1_555 1_555
H16A C20V 1_555 1_555
C21A C32A 1_555 1_555
C22A C23A 1_555 1_555
C23A C29A 1_555 1_555
C24A C24V 1_555 1_555
C25A C25V 1_555 1_555
C28A C31A 1_555 1_555
C29A C30A 1_555 1_555
N6U C4U 1_555 1_555
N7U C9U 1_555 1_555
N8U C11U 1_555 1_555
C2U C3U 1_555 1_555
C5U C8U 1_555 1_555
C10U C11U 1_555 1_555
C14V H9V 1_555 1_555
C14V C15V 1_555 1_555
C15V C16V 1_555 1_555
C15V N13V 1_555 1_555
C16V C17V 1_555 1_555
C18V C20V 1_555 1_555
C18V C30V 1_555 1_555
C18V C32V 1_555 1_555
C20V H14V 1_555 1_555
C20V H15V 1_555 1_555
C20V H16V 1_555 1_555
C21V C32V 1_555 1_555
C22V C23V 1_555 1_555
C23V C29V 1_555 1_555
C24V C25V 1_555 1_555
C24V C31V 1_555 1_555
C25V C26V 1_555 1_555
C27V C28V 1_555 1_555
C28V C31V 1_555 1_555
C29V C30V 1_555 1_555
N8B N9B 1_555 1_555
N9B N8W 1_555 1_555
N10B N11B 1_555 1_555
N11B N12B 1_555 1_555
C10B C11B 1_555 1_555
C12B C13B 1_555 1_555
C14B C14U 1_555 1_555
H9B C14U 1_555 1_555
C16B C17B 1_555 1_555
C17B C17U 1_555 1_555
C18B C30B 1_555 1_555
C18B C32B 1_555 1_555
H14B C20U 1_555 1_555
H16B C20U 1_555 1_555
C21B C32B 1_555 1_555
C22B C23B 1_555 1_555
C23B C29B 1_555 1_555
C24B C24U 1_555 1_555
C25B C25U 1_555 1_555
C28B C31B 1_555 1_555
C29B C30B 1_555 1_555
N6W C4W 1_555 1_555
N7W C9W 1_555 1_555
N8W C11W 1_555 1_555
C2W C3W 1_555 1_555
C5W C8W 1_555 1_555
C10W C11W 1_555 1_555
C14U H9U 1_555 1_555
C14U C15U 1_555 1_555
C15U C16U 1_555 1_555
C15U N13U 1_555 1_555
C16U C17U 1_555 1_555
C18U C20U 1_555 1_555
C18U C30U 1_555 1_555
C18U C32U 1_555 1_555
C20U H14U 1_555 1_555
C20U H15U 1_555 1_555
C20U H16U 1_555 1_555
C21U C32U 1_555 1_555
C22U C23U 1_555 1_555
C23U C29U 1_555 1_555
C24U C25U 1_555 1_555
C24U C31U 1_555 1_555
C25U C26U 1_555 1_555
C27U C28U 1_555 1_555
C28U C31U 1_555 1_555
C29U C30U 1_555 1_555
N1B_2 N2B_2 1_555 1_555
N1U_2 N2A_2 1_555 1_555
N3F N4F 1_555 1_555
N3G N4G 1_555 1_555

#END
