
#######################################################################
#
#                 Cambridge Crystallographic Data Centre
#                                CCDC 
#
#######################################################################
#
# If this CIF has been generated from an entry in the Cambridge 
# Structural Database, then it will include bibliographic, chemical, 
# crystal, experimental, refinement or atomic coordinate data resulting 
# from the CCDC's data processing and validation procedures.
#
#######################################################################

data_NIKHAS
_chemical_formula_moiety         'C56 H47 Cl2 N4 O14 Zn7'
_symmetry_cell_setting           monoclinic
_symmetry_space_group_name_H-M   'C 2/c'
_symmetry_Int_Tables_number      15
_space_group_name_Hall           '-C 2yc'
loop_
_symmetry_equiv_pos_site_id
_symmetry_equiv_pos_as_xyz
1 x,y,z
2 -x,y,1/2-z
3 1/2+x,1/2+y,z
4 1/2-x,1/2+y,1/2-z
5 -x,-y,-z
6 x,-y,1/2+z
7 1/2-x,1/2-y,-z
8 1/2+x,1/2-y,1/2+z
_cell_length_a                   16.765(3)
_cell_length_b                   28.419(6)
_cell_length_c                   11.636(2)
_cell_angle_alpha                90
_cell_angle_beta                 99.94(3)
_cell_angle_gamma                90
_cell_volume                     5460.69
loop_
_atom_site_label
_atom_site_type_symbol
_atom_site_fract_x
_atom_site_fract_y
_atom_site_fract_z
C31 C 0.1752 0.26676(10) 0.5838
C32 C 0.2517 0.19056(10) 0.5723
N2 N 0.2298 0.23966(10) 0.5384
C31F C 0.3248 0.23324(10) 0.4162
C32F C 0.2483 0.30944(10) 0.4277
N2F N 0.2702 0.26034(10) 0.4616
O5 O 0.0409 0.29566(10) 0.8130
Zn1 Zn -0.01196(4) 0.64012(2) 0.60118(6)
O1 O -0.5313(2) 0.20472(13) 0.6567(4)
O2 O -0.0986(2) 0.60216(14) 0.6482(4)
O3 O -0.0999(2) 0.62677(16) 0.8288(4)
C1 C -0.1292(3) 0.60478(19) 0.7376(6)
C2 C -0.2080(3) 0.57974(19) 0.7384(5)
C3 C -0.2450(3) 0.5806(2) 0.8343(6)
H1 H -0.2216 0.5981 0.9013
C4 C -0.3176(3) 0.55575(18) 0.8341(5)
H2 H -0.3436 0.5572 0.9004
C5 C -0.3513(3) 0.52944(17) 0.7392(5)
C6 C -0.3147(3) 0.5288(2) 0.6433(5)
H3 H -0.3380 0.5111 0.5768
C7 C -0.2441(4) 0.5537(2) 0.6420(5)
H4 H -0.2197 0.5531 0.5741
C8 C -0.4287(3) 0.50320(17) 0.7415(5)
C9 C -0.5000 0.5271(2) 0.7500
C10 C -0.5000 0.5797(2) 0.7500
C11 C -0.5150(3) 0.60508(18) 0.8477(5)
H5 H -0.5257 0.5885 0.9144
C12 C -0.5145(4) 0.6537(2) 0.8483(6)
H6 H -0.5240 0.6703 0.9155
C13 C -0.5000 0.6785(3) 0.7500
H7 H -0.5000 0.7120 0.7500
C14 C -0.4288(3) 0.45346(17) 0.7420(5)
C15 C -0.3536(3) 0.42719(18) 0.7298(5)
C16 C -0.2861(4) 0.4303(2) 0.8153(6)
H8 H -0.2869 0.4502 0.8806
C17 C -0.2166(4) 0.4045(3) 0.8073(8)
H9 H -0.1704 0.4068 0.8670
C18 C -0.2151(5) 0.3756(3) 0.7130(9)
H10 H -0.1681 0.3575 0.7083
C19 C -0.2811(5) 0.3729(2) 0.6257(7)
H11 H -0.2789 0.3536 0.5597
C20 C -0.3521(4) 0.39832(18) 0.6323(6)
H12 H -0.3981 0.3960 0.5722
C21 C -0.5000 0.4293(2) 0.7500
C22 C -0.5000 0.3765(2) 0.7500
C23 C -0.5470(3) 0.35133(18) 0.6611(5)
H13 H -0.5801 0.3678 0.5996
C24 C -0.5467(3) 0.30293(18) 0.6602(5)
H14 H -0.5787 0.2865 0.5976
C25 C -0.5000 0.2780(2) 0.7500
C26 C -0.5000 0.2253(3) 0.7500
Cl1 Cl -0.0125(2) 0.63717(12) 0.4103(3)
O4 O 0.0081(9) 0.5725(5) 0.5244(14)
N1 N -0.0141(12) 0.5198(7) 0.3708(11)
C27 C 0.0171(15) 0.5623(7) 0.4284(16)
C28 C 0.0774(16) 0.5801(10) 0.357(3)
H15 H 0.1164 0.5552 0.3493
H16 H 0.1060 0.6073 0.3965
H17 H 0.0491 0.5895 0.2800
C29 C -0.0711(13) 0.4963(7) 0.437(2)
H18 H -0.1230 0.5130 0.4239
H19 H -0.0483 0.4965 0.5203
H20 H -0.0797 0.4637 0.4101
C30 C 0.0000 0.50779(10) 0.2500
H21 H 0.0382 0.5302 0.2298
H22 H 0.0225 0.4767 0.2503
H23 H -0.0491 0.5093 0.1938
O1A O -0.4687(2) 0.20472(13) 0.8433(4)
O2A O -0.9014(2) 0.60216(14) 0.8518(4)
O3A O -0.9001(2) 0.62677(16) 0.6712(4)
C1A C -0.8708(3) 0.60478(19) 0.7624(6)
C2A C -0.7920(3) 0.57974(19) 0.7616(5)
C3A C -0.7550(3) 0.5806(2) 0.6657(6)
H1A H -0.7784 0.5981 0.5987
C4A C -0.6824(3) 0.55575(18) 0.6659(5)
H2A H -0.6564 0.5572 0.5996
C5A C -0.6487(3) 0.52944(17) 0.7608(5)
C6A C -0.6853(3) 0.5288(2) 0.8567(5)
H3A H -0.6620 0.5111 0.9232
C7A C -0.7559(4) 0.5537(2) 0.8580(5)
H4A H -0.7803 0.5531 0.9259
C8A C -0.5713(3) 0.50320(17) 0.7585(5)
C11A C -0.4850(3) 0.60508(18) 0.6523(5)
H5A H -0.4743 0.5885 0.5856
C12A C -0.4855(4) 0.6537(2) 0.6517(6)
H6A H -0.4760 0.6703 0.5845
C14A C -0.5712(3) 0.45346(17) 0.7580(5)
C15A C -0.6464(3) 0.42719(18) 0.7702(5)
C16A C -0.7139(4) 0.4303(2) 0.6847(6)
H8A H -0.7131 0.4502 0.6194
C17A C -0.7834(4) 0.4045(3) 0.6927(8)
H9A H -0.8296 0.4068 0.6330
C18A C -0.7849(5) 0.3756(3) 0.7870(9)
H10A H -0.8319 0.3575 0.7917
C19A C -0.7189(5) 0.3729(2) 0.8743(7)
H11A H -0.7211 0.3536 0.9403
C20A C -0.6479(4) 0.39832(18) 0.8677(6)
H12A H -0.6019 0.3960 0.9278
C23A C -0.4530(3) 0.35133(18) 0.8389(5)
H13A H -0.4199 0.3678 0.9004
C24A C -0.4533(3) 0.30293(18) 0.8398(5)
H14A H -0.4213 0.2865 0.9024
O4A O -0.0081(9) 0.5725(5) -0.0244(14)
N1A N 0.0141(12) 0.5198(7) 0.1292(11)
C27A C -0.0171(15) 0.5623(7) 0.0716(16)
C28A C -0.0774(16) 0.5801(10) 0.143(3)
H15A H -0.1164 0.5552 0.1507
H16A H -0.1060 0.6073 0.1035
H17A H -0.0491 0.5895 0.2200
C29A C 0.0711(13) 0.4963(7) 0.063(2)
H18A H 0.1230 0.5130 0.0761
H19A H 0.0483 0.4965 -0.0203
H20A H 0.0797 0.4637 0.0899
H21A H -0.0382 0.5302 0.2702
H22A H -0.0225 0.4767 0.2497
H23A H 0.0491 0.5093 0.3062
Zn1A Zn -0.98804(4) 0.64012(2) 0.89882(6)
Cl1A Cl -0.9875(2) 0.63717(12) 1.0897(3)
Zn1_2 Zn -1.01196(4) 0.64012(2) 0.60118(6)
Zn1A_2 Zn 0.01196(4) 0.64012(2) -0.10118(6)
Zn1A_3 Zn 0.01196(4) 0.64012(2) 0.89882(6)
Zn1B Zn -0.51196(4) 0.14012(2) 0.60118(6)
Zn1C Zn -0.48804(4) 0.14012(2) 0.89882(6)
O1B O -0.0313(2) 0.70472(13) 0.6567(4)
O1C O -0.9687(2) 0.70472(13) 0.8433(4)
O3_2 O -1.0999(2) 0.62677(16) 0.8288(4)
O3A_2 O 0.0999(2) 0.62677(16) 0.6712(4)
O4A_2 O -1.0081(9) 0.5725(5) 0.9756(14)
loop_
_geom_bond_atom_site_label_1
_geom_bond_atom_site_label_2
_geom_bond_site_symmetry_1
_geom_bond_site_symmetry_2
Zn1 O2 1_555 1_555
O1 C26 1_555 1_555
O2 C1 1_555 1_555
O3 C1 1_555 1_555
C1 C2 1_555 1_555
C2 C3 1_555 1_555
C3 H1 1_555 1_555
C4 C3 1_555 1_555
H2 C4 1_555 1_555
C5 C4 1_555 1_555
C6 C5 1_555 1_555
H3 C6 1_555 1_555
C7 C2 1_555 1_555
H4 C7 1_555 1_555
C8 C5 1_555 1_555
C9 C8 1_555 1_555
C10 C9 1_555 1_555
C11 C10 1_555 1_555
H5 C11 1_555 1_555
C12 C11 1_555 1_555
H6 C12 1_555 1_555
C13 C12 1_555 1_555
H7 C13 1_555 1_555
C14 C8 1_555 1_555
C15 C14 1_555 1_555
C16 C15 1_555 1_555
H8 C16 1_555 1_555
C17 C16 1_555 1_555
H9 C17 1_555 1_555
C18 C17 1_555 1_555
H10 C18 1_555 1_555
C19 C18 1_555 1_555
H11 C19 1_555 1_555
C20 C15 1_555 1_555
H12 C20 1_555 1_555
C21 C14 1_555 1_555
C22 C21 1_555 1_555
C23 C22 1_555 1_555
H13 C23 1_555 1_555
C24 C23 1_555 1_555
H14 C24 1_555 1_555
C25 C24 1_555 1_555
C26 C25 1_555 1_555
Cl1 Zn1 1_555 1_555
O4 Zn1 1_555 1_555
N1 C27 1_555 1_555
C27 O4 1_555 1_555
C28 C27 1_555 1_555
H15 C28 1_555 1_555
H16 C28 1_555 1_555
H17 C28 1_555 1_555
C29 N1 1_555 1_555
H18 C29 1_555 1_555
H19 C29 1_555 1_555
H20 C29 1_555 1_555
C30 N1 1_555 1_555
H21 C30 1_555 1_555
H22 C30 1_555 1_555
H23 C30 1_555 1_555
C31 N2 1_555 1_555
C32 N2 1_555 1_555
N2 N2F 1_555 1_555
O1A C26 1_555 1_555
O2A C1A 1_555 1_555
O3A C1A 1_555 1_555
C1A C2A 1_555 1_555
C2A C3A 1_555 1_555
C3A H1A 1_555 1_555
C4A C3A 1_555 1_555
H2A C4A 1_555 1_555
C5A C4A 1_555 1_555
C6A C5A 1_555 1_555
H3A C6A 1_555 1_555
C7A C2A 1_555 1_555
H4A C7A 1_555 1_555
C8A C9 1_555 1_555
C11A C10 1_555 1_555
H5A C11A 1_555 1_555
C12A C13 1_555 1_555
H6A C12A 1_555 1_555
C14A C21 1_555 1_555
C15A C14A 1_555 1_555
C16A C15A 1_555 1_555
H8A C16A 1_555 1_555
C17A C16A 1_555 1_555
H9A C17A 1_555 1_555
C18A C17A 1_555 1_555
H10A C18A 1_555 1_555
C19A C18A 1_555 1_555
H11A C19A 1_555 1_555
C20A C15A 1_555 1_555
H12A C20A 1_555 1_555
C23A C22 1_555 1_555
H13A C23A 1_555 1_555
C24A C25 1_555 1_555
H14A C24A 1_555 1_555
O4A C27A 1_555 1_555
N1A C30 1_555 1_555
C27A N1A 1_555 1_555
C28A C27A 1_555 1_555
H15A C28A 1_555 1_555
H16A C28A 1_555 1_555
H17A C28A 1_555 1_555
C29A N1A 1_555 1_555
H18A C29A 1_555 1_555
H19A C29A 1_555 1_555
H20A C29A 1_555 1_555
H21A N1 1_555 1_555
H22A C30 1_555 1_555
H23A C30 1_555 1_555
Zn1A O2A 1_555 1_555
Cl1A Zn1A 1_555 1_555
Zn1_2 O3A 1_555 1_555
Zn1A_2 O4A 1_555 1_555
Zn1A_3 O3 1_555 1_555
Zn1B O1 1_555 1_555
Zn1C O1A 1_555 1_555
O1B Zn1 1_555 1_555
O1C Zn1A 1_555 1_555
O3_2 Zn1A 1_555 1_555
O3A_2 Zn1 1_555 1_555
O4A_2 Zn1A 1_555 1_555
C31F N2F 1_555 1_555
C32F N2F 1_555 1_555
C6 C7 1_555 1_555
C19 C20 1_555 1_555
C30 H21A 1_555 1_555
H21 N1A 1_555 1_555
C5A C8A 1_555 1_555
C6A C7A 1_555 1_555
C8A C14A 1_555 1_555
C11A C12A 1_555 1_555
C19A C20A 1_555 1_555
C23A C24A 1_555 1_555

#END
