
#######################################################################
#
#                 Cambridge Crystallographic Data Centre
#                                CCDC 
#
#######################################################################
#
# If this CIF has been generated from an entry in the Cambridge 
# Structural Database, then it will include bibliographic, chemical, 
# crystal, experimental, refinement or atomic coordinate data resulting 
# from the CCDC's data processing and validation procedures.
#
#######################################################################

data_KAGWEW
_chemical_formula_moiety         '(C32 H98 N8 O47 S9 U5)n'
_symmetry_cell_setting           orthorhombic
_symmetry_space_group_name_H-M   'P 21 21 21'
_symmetry_Int_Tables_number      19
_space_group_name_Hall           'P 2ac 2ab'
loop_
_symmetry_equiv_pos_site_id
_symmetry_equiv_pos_as_xyz
1 x,y,z
2 1/2-x,-y,1/2+z
3 -x,1/2+y,1/2-z
4 1/2+x,1/2-y,-z
_cell_length_a                   9.4586(8)
_cell_length_b                   26.769(2)
_cell_length_c                   32.377(3)
_cell_angle_alpha                90
_cell_angle_beta                 90
_cell_angle_gamma                90
_cell_volume                     8197.77
loop_
_atom_site_label
_atom_site_type_symbol
_atom_site_fract_x
_atom_site_fract_y
_atom_site_fract_z
U1 U 1.23852(6) 0.725608(15) 0.851419(13)
U2 U 1.73679(6) 0.608660(16) 0.902150(13)
U3 U 0.72399(5) 0.945870(16) 0.654600(14)
U4 U 0.75430(7) 0.803575(17) 0.545716(13)
U5 U 0.77411(6) 0.761945(16) 0.708468(14)
S1 S 1.4746(4) 0.71278(17) 0.76708(14)
S2 S 1.0141(4) 0.71523(15) 0.76107(12)
S3 S 0.9574(4) 0.84024(15) 0.63385(12)
S4 S 0.5406(4) 0.82888(14) 0.64097(12)
S5 S 1.0136(4) 0.70195(15) 0.91923(13)
S6 S 1.5122(4) 0.52631(15) 0.84142(14)
S7 S 1.5112(4) 0.68911(16) 0.92531(12)
S8 S 0.9575(4) 0.77665(18) 0.47441(12)
S9 S 1.9744(4) 0.53172(14) 0.84389(14)
O1 O 1.0951(9) 0.7403(4) 0.7946(3)
O2 O 1.7448(11) 0.6354(2) 0.8527(2)
O3 O 1.2408(10) 0.6620(3) 0.8404(2)
O4 O 1.4168(9) 0.7385(4) 0.8041(3)
O5 O 1.7338(11) 0.5839(3) 0.9518(2)
O6 O 1.5916(9) 0.5432(4) 0.8783(3)
O7 O 1.4880(9) 0.6361(3) 0.9150(3)
O8 O 0.9037(9) 0.8859(4) 0.6573(3)
O9 O 0.9909(9) 0.7213(4) 0.8765(3)
O10 O 0.7583(11) 0.7025(3) 0.6855(2)
O11 O 0.3889(9) 0.8275(4) 0.6366(3)
O12 O 0.7014(9) 0.9406(3) 0.6019(3)
O13 O 0.7894(10) 0.8197(3) 0.7322(2)
O14 O 0.9211(10) 0.8433(4) 0.5902(3)
O15 O 0.5841(10) 0.8739(3) 0.6630(3)
O16 O 0.8951(9) 0.7941(3) 0.6516(3)
O17 O 0.7441(11) 0.9524(3) 0.7080(2)
O18 O 1.2342(10) 0.7889(3) 0.8632(2)
O19 O 1.4586(10) 0.7029(4) 0.9652(3)
O20 O 1.1728(8) 0.6974(3) 0.9222(2)
O21 O 0.7913(10) 0.7472(3) 0.5693(3)
O22 O 0.5917(10) 0.7843(4) 0.6645(3)
O23 O 0.7168(11) 0.8602(3) 0.5212(3)
O24 O 1.4522(9) 0.7220(3) 0.8927(3)
O25 O 0.8047(9) 0.7648(4) 0.4789(3)
O26 O 0.8578(9) 0.7187(3) 0.7709(2)
O27 O 1.3583(8) 0.5338(3) 0.8491(3)
O28 O 1.0588(9) 0.6630(4) 0.7562(3)
O29 O 2.0785(10) 0.4953(3) 0.8594(3)
O30 O 1.0264(9) 0.7447(3) 0.7219(2)
O31 O 1.6675(8) 0.6942(3) 0.9240(2)
O32 O 0.9897(11) 0.8045(4) 0.5121(4)
O33 O 0.9618(9) 0.7344(3) 0.9514(3)
O34 O 1.5791(9) 0.7488(3) 0.7502(3)
O35 O 1.3628(10) 0.7043(4) 0.7375(3)
O36 O 1.9121(9) 0.5549(4) 0.8831(3)
O37 O 0.6113(10) 0.8292(4) 0.6003(3)
O38 O 1.5546(10) 0.5527(4) 0.8047(3)
O39 O 1.0361(10) 0.7282(4) 0.4753(3)
O40 O 0.9492(9) 0.6510(4) 0.9236(3)
O41 O 1.8597(10) 0.5060(4) 0.8219(3)
O42 O 2.0449(10) 0.5698(3) 0.8202(3)
O43 O 0.9922(12) 0.8048(5) 0.4384(3)
O44 O 1.5420(11) 0.6677(3) 0.7789(3)
O45 O 1.5273(9) 0.4713(3) 0.8388(3)
O46 O 1.1091(9) 0.8381(4) 0.6376(3)
U2_2 U 0.73679(6) 0.608660(16) 0.902150(13)
U3B U 1.27601(5) 0.445870(16) 0.845400(14)
U3B_2 U 2.27601(5) 0.445870(16) 0.845400(14)
U4C U 1.25430(7) 0.696425(17) 0.454284(13)
U5_2 U 1.77411(6) 0.761945(16) 0.708468(14)
O27B O 0.6417(8) 1.0338(3) 0.6509(3)
O29B O 0.9215(10) 0.9953(3) 0.6406(3)
O34_2 O 0.5791(9) 0.7488(3) 0.7502(3)
O39C O 0.5361(10) 0.7718(4) 0.5247(3)
O40_2 O 1.9492(9) 0.6510(4) 0.9236(3)
O45B O 0.4727(9) 0.9713(3) 0.6612(3)
O47 O 0.9933(16) 0.8325(5) 0.3556(4)
N1 N 0.2463(14) 0.8343(4) 0.5557(3)
H1 H 0.2591 0.8096 0.5441
C1 C 0.322(2) 0.8764(6) 0.5336(6)
H2 H 0.2912 0.8774 0.5044
H3 H 0.4252 0.8701 0.5341
C2 C 0.291(3) 0.9277(8) 0.5544(7)
H4 H 0.3266 0.9266 0.5831
H5 H 0.3450 0.9537 0.5396
C3 C 0.133(3) 0.9438(13) 0.5556(10)
H6 H 0.0767 0.9185 0.5706
H7 H 0.1241 0.9761 0.5703
C4 C 0.081(3) 0.9489(12) 0.5125(9)
H8 H -0.0164 0.9611 0.5127
H9 H 0.0847 0.9163 0.4988
H10 H 0.1411 0.9726 0.4974
N2 N 0.2427(14) 0.9105(3) 0.6880(3)
H11 H 0.2273 0.8875 0.6744
C5 C 0.188(2) 0.9019(7) 0.7295(5)
H12 H 0.2081 0.9317 0.7467
H13 H 0.0846 0.8976 0.7282
C6 C 0.251(3) 0.8582(7) 0.7492(7)
H14 H 0.2442 0.8296 0.7299
H15 H 0.1945 0.8498 0.7741
C7 C 0.405(3) 0.8651(11) 0.7618(10)
H16 H 0.4324 0.8339 0.7761
H17 H 0.4595 0.8661 0.7358
C8 C 0.461(4) 0.9073(13) 0.7880(12)
H18 H 0.5609 0.9014 0.7941
H19 H 0.4073 0.9090 0.8139
H20 H 0.4508 0.9389 0.7730
N3 N 0.7909(11) 0.6044(3) 0.7698(3)
H21 H 0.7303 0.5913 0.7814
C9 C 0.785(2) 0.5907(6) 0.7260(5)
H22 H 0.6981 0.6059 0.7147
H23 H 0.8655 0.6080 0.7125
C10 C 0.788(5) 0.5390(9) 0.7110(11)
H24 H 0.7126 0.5198 0.7249
H25 H 0.8801 0.5237 0.7186
C11 C 0.768(6) 0.5352(15) 0.6639(11)
H26 H 0.8474 0.5546 0.6518
H27 H 0.7875 0.4998 0.6570
C12 C 0.642(8) 0.549(4) 0.639(3)
H28 H 0.6570 0.5392 0.6099
H29 H 0.6269 0.5853 0.6401
H30 H 0.5582 0.5318 0.6495
N4 N 0.2576(14) 0.7330(4) 0.6609(3)
H31 H 0.2861 0.7592 0.6560
C13 C 0.173(2) 0.7133(7) 0.6241(6)
H32 H 0.0984 0.7375 0.6163
H33 H 0.2360 0.7083 0.6000
C14 C 0.108(3) 0.6648(9) 0.6366(8)
H34 H 0.1811 0.6403 0.6447
H35 H 0.0412 0.6695 0.6598
C15 C 0.032(4) 0.6484(12) 0.5981(11)
H36 H -0.0646 0.6589 0.6065
H37 H 0.0637 0.6757 0.5798
C16 C -0.010(5) 0.6132(15) 0.5658(12)
H38 H -0.0342 0.6317 0.5407
H39 H -0.0926 0.5940 0.5751
H40 H 0.0683 0.5903 0.5601
N5 N 0.2125(11) 0.5862(4) 0.9134(3)
H41 H 0.2590 0.5728 0.8973
C17 C 0.2007(18) 0.5556(6) 0.9498(5)
H42 H 0.1518 0.5244 0.9416
H43 H 0.1372 0.5733 0.9692
C18 C 0.327(2) 0.5410(9) 0.9731(7)
H44 H 0.3763 0.5718 0.9818
H45 H 0.3905 0.5226 0.9542
C19 C 0.301(5) 0.5084(13) 1.0117(9)
H46 H 0.2269 0.5235 1.0293
H47 H 0.2692 0.4746 1.0034
C20 C 0.437(6) 0.505(3) 1.035(2)
H48 H 0.4255 0.4816 1.0582
H49 H 0.4620 0.5380 1.0457
H50 H 0.5115 0.4929 1.0166
N6 N 0.7153(12) 0.7500(3) 0.8434(3)
H51 H 0.7401 0.7377 0.8232
C21 C 0.723(3) 0.8044(6) 0.8393(6)
H52 H 0.6739 0.8121 0.8132
H53 H 0.8246 0.8115 0.8342
C22 C 0.677(5) 0.8435(14) 0.8684(11)
H54 H 0.5864 0.8357 0.8822
H55 H 0.6750 0.8773 0.8560
C23 C 0.807(5) 0.8342(16) 0.8959(11)
H56 H 0.8162 0.7977 0.9000
H57 H 0.8920 0.8453 0.8804
C24 C 0.810(6) 0.8580(16) 0.9364(12)
H58 H 0.8612 0.8366 0.9559
H59 H 0.7131 0.8630 0.9462
H60 H 0.8579 0.8904 0.9343
N7 N 0.2909(12) 0.5975(4) 0.7696(3)
H61 H 0.2440 0.5930 0.7887
C25 C 0.246(3) 0.5621(7) 0.7349(6)
H62 H 0.2276 0.5285 0.7466
H63 H 0.1564 0.5743 0.7226
C26 C 0.352(3) 0.5581(13) 0.7029(9)
H64 H 0.4402 0.5431 0.7135
H65 H 0.3728 0.5910 0.6904
C27 C 0.276(5) 0.5228(13) 0.6716(11)
H66 H 0.2775 0.5431 0.6461
H67 H 0.3491 0.4968 0.6671
C28 C 0.142(6) 0.493(2) 0.666(3)
H68 H 0.1447 0.4750 0.6402
H69 H 0.0606 0.5162 0.6663
H70 H 0.1318 0.4696 0.6893
N8 N 0.7311(12) 0.7290(3) 0.0091(3)
H71 H 0.7706 0.7483 0.0224
C29 C 0.724(2) 0.6800(6) 0.0318(5)
H72 H 0.6748 0.6854 0.0584
H73 H 0.6666 0.6563 0.0154
C30 C 0.862(2) 0.6575(8) 0.0400(7)
H74 H 0.9161 0.6795 0.0587
H75 H 0.9146 0.6546 0.0138
C31 C 0.848(4) 0.6049(10) 0.0600(10)
H76 H 0.8576 0.5793 0.0381
H77 H 0.9269 0.6002 0.0797
C32 C 0.712(5) 0.596(2) 0.0823(18)
H78 H 0.7118 0.5623 0.0937
H79 H 0.6332 0.6000 0.0630
H80 H 0.7030 0.6205 0.1047
loop_
_geom_bond_atom_site_label_1
_geom_bond_atom_site_label_2
_geom_bond_site_symmetry_1
_geom_bond_site_symmetry_2
U1 O1 1_555 1_555
U2 O2 1_555 1_555
U3 O8 1_555 1_555
U4 O14 1_555 1_555
U5 O10 1_555 1_555
S1 O4 1_555 1_555
S2 O1 1_555 1_555
S3 O8 1_555 1_555
S4 O11 1_555 1_555
S5 O9 1_555 1_555
S6 O6 1_555 1_555
S7 O7 1_555 1_555
S8 O25 1_555 1_555
S9 O29 1_555 1_555
O3 U1 1_555 1_555
O4 U1 1_555 1_555
O5 U2 1_555 1_555
O6 U2 1_555 1_555
O7 U2 1_555 1_555
O9 U1 1_555 1_555
O12 U3 1_555 1_555
O13 U5 1_555 1_555
O14 S3 1_555 1_555
O15 U3 1_555 1_555
O16 U5 1_555 1_555
O17 U3 1_555 1_555
O18 U1 1_555 1_555
O19 S7 1_555 1_555
O20 U1 1_555 1_555
O21 U4 1_555 1_555
O22 U5 1_555 1_555
O23 U4 1_555 1_555
O24 U1 1_555 1_555
O25 U4 1_555 1_555
O26 U5 1_555 1_555
O27 S6 1_555 1_555
O28 S2 1_555 1_555
O29 U3B_2 1_555 1_555
O30 U5 1_555 1_555
O31 U2 1_555 1_555
O32 U4 1_555 1_555
O33 S5 1_555 1_555
O34 S1 1_555 1_555
O35 S1 1_555 1_555
O36 U2 1_555 1_555
O37 U4 1_555 1_555
O38 S6 1_555 1_555
O39 S8 1_555 1_555
O40 S5 1_555 1_555
O41 S9 1_555 1_555
O42 S9 1_555 1_555
O43 S8 1_555 1_555
O44 S1 1_555 1_555
O45 S6 1_555 1_555
O46 S3 1_555 1_555
N1 H1 1_555 1_555
C1 N1 1_555 1_555
H2 C1 1_555 1_555
H3 C1 1_555 1_555
C2 C1 1_555 1_555
H4 C2 1_555 1_555
H5 C2 1_555 1_555
C3 C2 1_555 1_555
H6 C3 1_555 1_555
H7 C3 1_555 1_555
C4 C3 1_555 1_555
H8 C4 1_555 1_555
H9 C4 1_555 1_555
H10 C4 1_555 1_555
N2 H11 1_555 1_555
C5 N2 1_555 1_555
H12 C5 1_555 1_555
H13 C5 1_555 1_555
C6 C5 1_555 1_555
H14 C6 1_555 1_555
H15 C6 1_555 1_555
C7 C6 1_555 1_555
H16 C7 1_555 1_555
H17 C7 1_555 1_555
C8 C7 1_555 1_555
H18 C8 1_555 1_555
H19 C8 1_555 1_555
H20 C8 1_555 1_555
N3 H21 1_555 1_555
C9 N3 1_555 1_555
H22 C9 1_555 1_555
H23 C9 1_555 1_555
C10 C9 1_555 1_555
H24 C10 1_555 1_555
H25 C10 1_555 1_555
C11 C10 1_555 1_555
H26 C11 1_555 1_555
H27 C11 1_555 1_555
C12 C11 1_555 1_555
H28 C12 1_555 1_555
H29 C12 1_555 1_555
H30 C12 1_555 1_555
N4 H31 1_555 1_555
C13 N4 1_555 1_555
H32 C13 1_555 1_555
H33 C13 1_555 1_555
C14 C13 1_555 1_555
H34 C14 1_555 1_555
H35 C14 1_555 1_555
C15 C14 1_555 1_555
H36 C15 1_555 1_555
H37 C15 1_555 1_555
C16 C15 1_555 1_555
H38 C16 1_555 1_555
H39 C16 1_555 1_555
H40 C16 1_555 1_555
N5 H41 1_555 1_555
C17 N5 1_555 1_555
H42 C17 1_555 1_555
H43 C17 1_555 1_555
C18 C17 1_555 1_555
H44 C18 1_555 1_555
H45 C18 1_555 1_555
C19 C18 1_555 1_555
H46 C19 1_555 1_555
H47 C19 1_555 1_555
C20 C19 1_555 1_555
H48 C20 1_555 1_555
H49 C20 1_555 1_555
H50 C20 1_555 1_555
N6 H51 1_555 1_555
C21 N6 1_555 1_555
H52 C21 1_555 1_555
H53 C21 1_555 1_555
C22 C21 1_555 1_555
H54 C22 1_555 1_555
H55 C22 1_555 1_555
C23 C22 1_555 1_555
H56 C23 1_555 1_555
H57 C23 1_555 1_555
C24 C23 1_555 1_555
H58 C24 1_555 1_555
H59 C24 1_555 1_555
H60 C24 1_555 1_555
N7 H61 1_555 1_555
C25 N7 1_555 1_555
H62 C25 1_555 1_555
H63 C25 1_555 1_555
C26 C25 1_555 1_555
H64 C26 1_555 1_555
H65 C26 1_555 1_555
C27 C26 1_555 1_555
H66 C27 1_555 1_555
H67 C27 1_555 1_555
C28 C27 1_555 1_555
H68 C28 1_555 1_555
H69 C28 1_555 1_555
H70 C28 1_555 1_555
N8 H71 1_555 1_555
C29 N8 1_555 1_555
H72 C29 1_555 1_555
H73 C29 1_555 1_555
C30 C29 1_555 1_555
H74 C30 1_555 1_555
H75 C30 1_555 1_555
C31 C30 1_555 1_555
H76 C31 1_555 1_555
H77 C31 1_555 1_555
C32 C31 1_555 1_555
H78 C32 1_555 1_555
H79 C32 1_555 1_555
H80 C32 1_555 1_555
U2_2 O40 1_555 1_555
U3B O27 1_555 1_555
U4C O39 1_555 1_555
U5_2 O34 1_555 1_555
O27B U3 1_555 1_555
O29B U3 1_555 1_555
O34_2 U5 1_555 1_555
O39C U4 1_555 1_555
O40_2 U2 1_555 1_555
O45B U3 1_555 1_555
S2 O26 1_555 1_555
S2 O30 1_555 1_555
S3 O16 1_555 1_555
S4 O15 1_555 1_555
S4 O22 1_555 1_555
S4 O37 1_555 1_555
S5 O20 1_555 1_555
S7 O24 1_555 1_555
S7 O31 1_555 1_555
S8 O32 1_555 1_555
S9 O36 1_555 1_555
O45 U3B 1_555 1_555

#END
