
#######################################################################
#
#                 Cambridge Crystallographic Data Centre
#                                CCDC 
#
#######################################################################
#
# If this CIF has been generated from an entry in the Cambridge 
# Structural Database, then it will include bibliographic, chemical, 
# crystal, experimental, refinement or atomic coordinate data resulting 
# from the CCDC's data processing and validation procedures.
#
#######################################################################

data_YEMJAC
_chemical_formula_moiety         '(C9 H5 Dy1 O7)n'
_symmetry_cell_setting           tetragonal
_symmetry_space_group_name_H-M   'P 43 2 2'
_symmetry_Int_Tables_number      95
_space_group_name_Hall           'P 4cw 2c'
loop_
_symmetry_equiv_pos_site_id
_symmetry_equiv_pos_as_xyz
1 x,y,z
2 -x,-y,1/2+z
3 -y,x,3/4+z
4 y,-x,1/4+z
5 -x,y,-z
6 x,-y,1/2-z
7 y,x,1/4-z
8 -y,-x,3/4-z
_cell_length_a                   10.3131(4)
_cell_length_b                   10.3131(4)
_cell_length_c                   14.4950(13)
_cell_angle_alpha                90
_cell_angle_beta                 90
_cell_angle_gamma                90
_cell_volume                     1541.69
loop_
_atom_site_label
_atom_site_type_symbol
_atom_site_fract_x
_atom_site_fract_y
_atom_site_fract_z
Dy1 Dy 0.35089(4) 0.35089(4) 0.1250
O1 O 0.4287(7) 0.1647(7) 0.0589(4)
O2 O 0.4028(7) -0.2572(7) 0.2348(4)
O3 O 0.1863(6) 0.1863(6) 0.1250
C1 C 0.5000 0.1075(12) 0.0000
C2 C 0.5000 -0.0377(13) 0.0000
C3 C 0.4520(9) -0.1056(8) 0.0756(6)
H1 H 0.4173 -0.0605 0.1253
C4 C 0.4555(9) -0.2390(8) 0.0773(6)
C5 C 0.5000 -0.3079(13) 0.0000
H2 H 0.5000 -0.3981 0.0000
C6 C 0.4103(9) -0.3162(9) 0.1600(6)
O4 O 0.3876(7) -0.4310(6) 0.1497(5)
Dy1C Dy 0.35089(4) -0.35089(4) 0.3750
Dy1_2 Dy 0.35089(4) -0.64911(4) 0.1250
Dy1B Dy 0.64911(4) 0.35089(4) -0.1250
Dy1A Dy 0.64911(4) -0.35089(4) -0.3750
Dy1B_2 Dy 0.64911(4) -0.64911(4) -0.1250
O1D O 0.5713(7) 0.1647(7) -0.0589(4)
O1F O 0.1647(7) 0.4287(7) 0.1911(4)
O2D O 0.5972(7) -0.2572(7) -0.2348(4)
O2B O 0.2572(7) 0.4028(7) -0.0152(4)
O2E O 0.4028(7) 0.2572(7) 0.2652(4)
C3D C 0.5480(9) -0.1056(8) -0.0756(6)
H1D H 0.5827 -0.0605 -0.1253
C4D C 0.5445(9) -0.2390(8) -0.0773(6)
C6D C 0.5897(9) -0.3162(9) -0.1600(6)
O4D O 0.6124(7) -0.4310(6) -0.1497(5)
O4_2 O 0.3876(7) 0.5690(6) 0.1497(5)
O4F O 0.5690(6) 0.3876(7) 0.1003(5)
loop_
_geom_bond_atom_site_label_1
_geom_bond_atom_site_label_2
_geom_bond_site_symmetry_1
_geom_bond_site_symmetry_2
Dy1 O1 1_555 1_555
O1 C1 1_555 1_555
O2 C6 1_555 1_555
O3 Dy1 1_555 1_555
C1 C2 1_555 1_555
C2 C3 1_555 1_555
C3 H1 1_555 1_555
C4 C3 1_555 1_555
C5 C4 1_555 1_555
H2 C5 1_555 1_555
C6 C4 1_555 1_555
O4 C6 1_555 1_555
Dy1C O2 1_555 1_555
Dy1_2 O4 1_555 1_555
Dy1B O1D 1_555 1_555
Dy1A O2D 1_555 1_555
Dy1B_2 O4D 1_555 1_555
O1D C1 1_555 1_555
O1F Dy1 1_555 1_555
O2D C6D 1_555 1_555
O2B Dy1 1_555 1_555
O2E Dy1 1_555 1_555
C3D C2 1_555 1_555
H1D C3D 1_555 1_555
C4D C5 1_555 1_555
C6D C4D 1_555 1_555
O4D C6D 1_555 1_555
O4_2 Dy1 1_555 1_555
O4F Dy1 1_555 1_555
C3D C4D 1_555 1_555

#END
