
#######################################################################
#
#                 Cambridge Crystallographic Data Centre
#                                CCDC 
#
#######################################################################
#
# If this CIF has been generated from an entry in the Cambridge 
# Structural Database, then it will include bibliographic, chemical, 
# crystal, experimental, refinement or atomic coordinate data resulting 
# from the CCDC's data processing and validation procedures.
#
#######################################################################

data_LODCUC
_chemical_formula_moiety         'C30 H27 Fe6 N10'
_symmetry_cell_setting           orthorhombic
_symmetry_space_group_name_H-M   'P n n m'
_symmetry_Int_Tables_number      58
_space_group_name_Hall           '-P 2 2n'
loop_
_symmetry_equiv_pos_site_id
_symmetry_equiv_pos_as_xyz
1 x,y,z
2 -x,-y,z
3 1/2+x,1/2-y,1/2-z
4 1/2-x,1/2+y,1/2-z
5 -x,-y,-z
6 x,y,-z
7 1/2-x,1/2+y,1/2+z
8 1/2+x,1/2-y,1/2+z
_cell_length_a                   8.0654(11)
_cell_length_b                   15.3504(5)
_cell_length_c                   19.3388(9)
_cell_angle_alpha                90
_cell_angle_beta                 90
_cell_angle_gamma                90
_cell_volume                     2394.28
loop_
_atom_site_label
_atom_site_type_symbol
_atom_site_fract_x
_atom_site_fract_y
_atom_site_fract_z
Fe1 Fe 0.20726(6) 0.16979(3) 0.34343(2)
N1 N 0.3998(3) 0.1672(2) 0.27458(13)
N2 N 0.0662(3) 0.2667(2) 0.30182(15)
N3 N 0.2883(3) 0.1826(2) 0.44210(12)
N4 N 0.1285(7) 0.0435(3) 0.3439(3)
N5 N 0.0186(6) 0.0832(3) 0.3411(3)
C1 C 0.4911(4) 0.2381(2) 0.2609(2)
C2 C 0.0226(4) 0.3467(2) 0.3273(2)
C3 C 0.4203(4) 0.1127(2) 0.2185(2)
C4 C 0.5029(5) 0.3139(3) 0.3080(2)
C5 C 0.1982(6) 0.1916(3) 0.5000
C6 C 0.4476(4) 0.1660(3) 0.4649(2)
C7 C 0.0165(6) 0.2072(4) 0.5000
C8 C -0.0250(7) 0.0062(4) 0.3454(3)
C9 C 0.2344(10) -0.0277(4) 0.3370(5)
C10 C -0.1471(8) 0.1051(4) 0.3393(5)
C11 C 0.1864(10) -0.0562(6) 0.3525(6)
H1 H 0.0594 0.3709 0.3716
H2 H 0.3700 0.0551 0.2126
H3 H 0.5522 0.2954 0.3519
H4 H 0.5725 0.3589 0.2868
H5 H 0.3918 0.3374 0.3164
H6 H 0.5444 0.1560 0.4354
H7 H -0.0232 0.2117 0.5478
H8 H -0.0076 0.2616 0.4754
H9 H -0.0397 0.1587 0.4768
H10 H 0.3549 -0.0234 0.3314
H11 H -0.1939 0.1640 0.3395
H12 H -0.1859 0.0889 0.3961
H13 H 0.1978 -0.0968 0.3137
H14 H 0.2796 -0.0153 0.3524
C1B C -0.0089(4) 0.2619(2) 0.2391(2)
C8A C 0.0250(7) -0.0062(4) 0.3454(3)
C11A C -0.1864(10) 0.0562(6) 0.3525(6)
N2B N 0.5662(3) 0.2333(2) 0.19818(15)
C3B C -0.0797(4) 0.3873(2) 0.2815(2)
C2B C 0.5226(4) 0.1533(2) 0.1727(2)
N3E N 0.2883(3) 0.1826(2) 0.55790(12)
C6E C 0.4476(4) 0.1660(3) 0.5351(2)
H7E H -0.0232 0.2117 0.4522
H8E H -0.0076 0.2616 0.5246
H9E H -0.0397 0.1587 0.5232
C9A C -0.2344(10) 0.0277(4) 0.3370(5)
N4A N -0.1285(7) -0.0435(3) 0.3439(3)
N5A N -0.0186(6) -0.0832(3) 0.3411(3)
C10A C 0.1471(8) -0.1051(4) 0.3393(5)
H13A H -0.1978 0.0968 0.3137
H12A H 0.1859 -0.0889 0.3961
N1B N -0.1002(3) 0.3328(2) 0.22542(13)
C4B C 0.0029(5) 0.1861(3) 0.1920(2)
H2B H -0.1300 0.4449 0.2874
Fe1B Fe -0.29274(6) 0.33021(3) 0.15657(2)
H3B H 0.0522 0.2046 0.1481
H4B H 0.0725 0.1411 0.2132
H5B H -0.1082 0.1626 0.1836
Fe1B_2 Fe 0.70726(6) 0.33021(3) 0.15657(2)
H1B H 0.5594 0.1291 0.1284
Fe1E Fe 0.20726(6) 0.16979(3) 0.65657(2)
Fe1A Fe -0.20726(6) -0.16979(3) 0.34343(2)
Fe2 Fe 0.5000 0.5000 0.5000
C12 C 0.6992(9) 0.4384(5) 0.4676(4)
C13 C 0.6830(15) 0.5318(7) 0.4495(6)
C14 C 0.6765(15) 0.5773(8) 0.5000
H15 H 0.7079 0.3884 0.4364
H16 H 0.6781 0.5537 0.4020
H17 H 0.6676 0.6408 0.5000
C12A C 0.3008(9) 0.5616(5) 0.4676(4)
C12D C 0.3008(9) 0.5616(5) 0.5324(4)
C12E C 0.6992(9) 0.4384(5) 0.5324(4)
C13A C 0.3170(15) 0.4682(7) 0.4495(6)
C13D C 0.3170(15) 0.4682(7) 0.5505(6)
C13E C 0.6830(15) 0.5318(7) 0.5505(6)
C14A C 0.3235(15) 0.4227(8) 0.5000
loop_
_geom_bond_atom_site_label_1
_geom_bond_atom_site_label_2
_geom_bond_site_symmetry_1
_geom_bond_site_symmetry_2
Fe1 N1 1_555 1_555
Fe2 C12 1_555 1_555
N1 C1 1_555 1_555
N2 Fe1 1_555 1_555
N3 Fe1 1_555 1_555
N4 Fe1 1_555 1_555
N5 Fe1 1_555 1_555
C1 C4 1_555 1_555
C2 N2 1_555 1_555
C3 N1 1_555 1_555
C4 H3 1_555 1_555
C5 N3 1_555 1_555
C6 N3 1_555 1_555
C7 C5 1_555 1_555
C8 N4 1_555 1_555
C9 N4 1_555 1_555
C10 N5 1_555 1_555
C11 N4 1_555 1_555
C12 C13 1_555 1_555
C13 Fe2 1_555 1_555
C14 Fe2 1_555 1_555
H1 C2 1_555 1_555
H2 C3 1_555 1_555
H4 C4 1_555 1_555
H5 C4 1_555 1_555
H6 C6 1_555 1_555
H7 C7 1_555 1_555
H8 C7 1_555 1_555
H9 C7 1_555 1_555
H10 C9 1_555 1_555
H11 C10 1_555 1_555
H12 C10 1_555 1_555
H13 C9 1_555 1_555
H14 C9 1_555 1_555
H15 C12 1_555 1_555
H16 C13 1_555 1_555
H17 C14 1_555 1_555
C12A Fe2 1_555 1_555
C12D Fe2 1_555 1_555
C12E Fe2 1_555 1_555
C13A Fe2 1_555 1_555
C13D Fe2 1_555 1_555
C13E Fe2 1_555 1_555
C14A Fe2 1_555 1_555
C1B N2 1_555 1_555
C8A N4 1_555 1_555
C11A N5 1_555 1_555
N2B C1 1_555 1_555
C3B C2 1_555 1_555
C2B C3 1_555 1_555
N3E C5 1_555 1_555
C6E C6 1_555 1_555
H7E C7 1_555 1_555
H8E C7 1_555 1_555
H9E C7 1_555 1_555
C9A C8 1_555 1_555
N4A C8 1_555 1_555
N5A C8 1_555 1_555
C10A C9 1_555 1_555
H13A C10 1_555 1_555
H12A C11 1_555 1_555
N1B C1B 1_555 1_555
C4B C1B 1_555 1_555
H2B C3B 1_555 1_555
Fe1B N1B 1_555 1_555
H3B C4B 1_555 1_555
H4B C4B 1_555 1_555
H5B C4B 1_555 1_555
Fe1B_2 N2B 1_555 1_555
H1B C2B 1_555 1_555
Fe1E N3E 1_555 1_555
Fe1A N4A 1_555 1_555
N4 N5 1_555 1_555
N5 C8A 1_555 1_555
N5 C8 1_555 1_555
C8 C8A 1_555 1_555
C8 C11A 1_555 1_555
C9 C11 1_555 1_555
C9 C8A 1_555 1_555
C10 C11A 1_555 1_555
C10 C9A 1_555 1_555
C11 H13 1_555 1_555
C11 H14 1_555 1_555
C11 N5A 1_555 1_555
C11 C8A 1_555 1_555
C11 C10A 1_555 1_555
C12 C12E 1_555 1_555
C13 C14 1_555 1_555
C14 C13E 1_555 1_555
H10 H14 1_555 1_555
H12 C11A 1_555 1_555
H13 C10A 1_555 1_555
C12A C12D 1_555 1_555
C12A C13A 1_555 1_555
C12D C13D 1_555 1_555
C12E C13E 1_555 1_555
C13A C14A 1_555 1_555
C13D C14A 1_555 1_555
C8A N4A 1_555 1_555
C8A N5A 1_555 1_555
C11A H13A 1_555 1_555
C11A N4A 1_555 1_555
C11A C9A 1_555 1_555
N2B C2B 1_555 1_555
C3B N1B 1_555 1_555
N3E C6E 1_555 1_555
C9A H13A 1_555 1_555
C9A N4A 1_555 1_555
N4A N5A 1_555 1_555
N5A C10A 1_555 1_555
N5A Fe1A 1_555 1_555
C10A H12A 1_555 1_555

#END
