
#######################################################################
#
#                 Cambridge Crystallographic Data Centre
#                                CCDC 
#
#######################################################################
#
# If this CIF has been generated from an entry in the Cambridge 
# Structural Database, then it will include bibliographic, chemical, 
# crystal, experimental, refinement or atomic coordinate data resulting 
# from the CCDC's data processing and validation procedures.
#
#######################################################################

data_NUHQAK
_chemical_formula_moiety         '(C18 H18 Eu1 N1 O9)n'
_symmetry_cell_setting           monoclinic
_symmetry_space_group_name_H-M   'C 2/c'
_symmetry_Int_Tables_number      15
_space_group_name_Hall           '-C 2yc'
loop_
_symmetry_equiv_pos_site_id
_symmetry_equiv_pos_as_xyz
1 x,y,z
2 -x,y,1/2-z
3 1/2+x,1/2+y,z
4 1/2-x,1/2+y,1/2-z
5 -x,-y,-z
6 x,-y,1/2+z
7 1/2-x,1/2-y,-z
8 1/2+x,1/2-y,1/2+z
_cell_length_a                   24.623(5)
_cell_length_b                   12.866(3)
_cell_length_c                   14.868(3)
_cell_angle_alpha                90
_cell_angle_beta                 96.78(3)
_cell_angle_gamma                90
_cell_volume                     4677.24
loop_
_atom_site_label
_atom_site_type_symbol
_atom_site_fract_x
_atom_site_fract_y
_atom_site_fract_z
_atom_site_U_iso_or_equiv
_atom_site_thermal_displace_type
O9 O 0.1242(5) 0.5522(9) 0.2170(7) 0.2120 Uani
Eu1 Eu 0.672167(6) 0.797637(15) 0.466792(11) 0.0266 Uani
O1 O 0.30739(12) 0.7414(3) 0.88105(19) 0.0393 Uani
O2 O 0.22886(11) 0.6528(3) 0.8531(2) 0.0447 Uani
O3 O 0.27461(11) 0.3550(2) 0.53957(19) 0.0380 Uani
O4 O 0.20259(12) 0.4495(3) 0.5580(2) 0.0453 Uani
O5 O 0.58707(13) 0.8312(3) 0.5365(3) 0.0536 Uani
O6 O 0.60086(13) 0.6694(3) 0.4986(3) 0.0550 Uani
C1 C 0.29780(15) 0.6273(3) 0.7567(3) 0.0335 Uani
C2 C 0.26595(15) 0.5578(3) 0.7025(3) 0.0333 Uani
H1 H 0.2301 0.5446 0.7132 0.0400 Uiso
C3 C 0.28763(15) 0.5077(3) 0.6318(3) 0.0324 Uani
C4 C 0.34099(15) 0.5290(3) 0.6146(3) 0.0351 Uani
H2 H 0.3559 0.4928 0.5693 0.0420 Uiso
C5 C 0.37216(15) 0.6041(3) 0.6649(3) 0.0345 Uani
C6 C 0.35016(16) 0.6518(3) 0.7372(3) 0.0358 Uani
H3 H 0.3708 0.7004 0.7727 0.0430 Uiso
C7 C 0.42630(16) 0.6363(3) 0.6395(3) 0.0371 Uani
C8 C 0.44156(19) 0.7409(4) 0.6431(4) 0.0537 Uani
H4 H 0.4191 0.7897 0.6664 0.0640 Uiso
C9 C 0.4903(2) 0.7726(4) 0.6121(4) 0.0561 Uani
H5 H 0.5002 0.8424 0.6154 0.0670 Uiso
C10 C 0.52377(17) 0.7021(3) 0.5769(3) 0.0387 Uani
C11 C 0.51007(18) 0.5985(4) 0.5775(4) 0.0505 Uani
H6 H 0.5336 0.5495 0.5573 0.0610 Uiso
C12 C 0.46138(18) 0.5656(4) 0.6080(4) 0.0499 Uani
H7 H 0.4526 0.4953 0.6070 0.0600 Uiso
C13 C 0.27629(15) 0.6777(3) 0.8373(3) 0.0335 Uani
C14 C 0.25266(16) 0.4324(3) 0.5732(3) 0.0335 Uani
C15 C 0.57362(16) 0.7359(4) 0.5347(3) 0.0401 Uani
O7 O 0.6254(2) 0.7357(5) 0.3230(3) 0.0858 Uani
N1 N 0.6103(5) 0.6551(11) 0.1844(9) 0.0911 Uani
C16 C 0.6458(7) 0.6958(11) 0.2531(9) 0.0820 Uani
H8 H 0.6834 0.6952 0.2503 0.0980 Uiso
C17 C 0.5570(7) 0.6662(18) 0.1823(14) 0.1236 Uani
H9 H 0.5389 0.6312 0.1301 0.1860 Uiso
H10 H 0.5478 0.7387 0.1793 0.1860 Uiso
H11 H 0.5453 0.6366 0.2361 0.1860 Uiso
C18 C 0.6392(8) 0.6022(17) 0.1208(14) 0.1381 Uani
H12 H 0.6776 0.6025 0.1418 0.2070 Uiso
H13 H 0.6331 0.6367 0.0632 0.2070 Uiso
H14 H 0.6265 0.5318 0.1144 0.2070 Uiso
O8 O 0.6275(2) 0.9511(5) 0.3907(4) 0.0930 Uani
H15 H 0.5913(18) 0.963(6) 0.355(5) 0.1390 Uiso
H16 H 0.648(3) 1.018(4) 0.399(6) 0.1390 Uiso
Eu1A Eu 0.327833(6) 0.797637(15) 1.033208(11) 0.0266 Uani
Eu1B Eu 0.172167(6) 0.297637(15) 0.466792(11) 0.0266 Uani
Eu1D Eu 0.327833(6) 0.202363(15) 0.533208(11) 0.0266 Uani
Eu1G Eu 0.172167(6) 0.702363(15) 0.966792(11) 0.0266 Uani
O1A O 0.69261(12) 0.7414(3) 0.61895(19) 0.0393 Uani
O2G O 0.72886(11) 0.8472(3) 0.3531(2) 0.0447 Uani
O3B O 0.77461(11) 0.8550(2) 0.53957(19) 0.0380 Uani
O3D O 0.72539(11) 0.6450(2) 0.46043(19) 0.0380 Uani
O4B O 0.70259(12) 0.9495(3) 0.5580(2) 0.0453 Uani
loop_
_atom_site_aniso_label
_atom_site_aniso_U_11
_atom_site_aniso_U_22
_atom_site_aniso_U_33
_atom_site_aniso_U_23
_atom_site_aniso_U_13
_atom_site_aniso_U_12
O9 0.213(5) 0.214(5) 0.210(5) 0.004(2) 0.029(2) 0.005(2)
Eu1 0.01843(11) 0.03933(13) 0.02350(11) -0.00068(7) 0.00800(7) -0.00612(7)
O1 0.0331(15) 0.0554(18) 0.0319(15) -0.0129(13) 0.0144(12) -0.0032(14)
O2 0.0283(14) 0.069(2) 0.0407(16) -0.0191(15) 0.0201(12) -0.0057(14)
O3 0.0364(14) 0.0409(16) 0.0404(16) -0.0115(12) 0.0198(12) -0.0102(12)
O4 0.0288(14) 0.0442(17) 0.063(2) -0.0136(15) 0.0057(13) -0.0057(13)
O5 0.0341(16) 0.0471(18) 0.085(3) 0.0029(18) 0.0293(17) -0.0066(14)
O6 0.0391(17) 0.062(2) 0.071(2) -0.0247(18) 0.0367(17) -0.0208(16)
C1 0.0258(17) 0.046(2) 0.0313(19) -0.0083(16) 0.0141(15) -0.0008(16)
C2 0.0259(17) 0.042(2) 0.035(2) -0.0055(16) 0.0156(15) -0.0043(16)
C3 0.0288(18) 0.038(2) 0.0326(19) -0.0088(16) 0.0126(15) -0.0061(15)
C4 0.0298(18) 0.045(2) 0.034(2) -0.0123(17) 0.0179(15) -0.0054(16)
C5 0.0256(17) 0.044(2) 0.037(2) -0.0123(17) 0.0165(15) -0.0079(16)
C6 0.0295(18) 0.047(2) 0.033(2) -0.0153(17) 0.0129(15) -0.0065(17)
C7 0.0287(18) 0.051(2) 0.035(2) -0.0114(17) 0.0176(16) -0.0117(17)
C8 0.040(2) 0.046(3) 0.082(4) -0.021(3) 0.036(2) -0.010(2)
C9 0.039(2) 0.050(3) 0.085(4) -0.016(3) 0.031(3) -0.017(2)
C10 0.0240(18) 0.053(3) 0.042(2) -0.0095(18) 0.0160(17) -0.0140(17)
C11 0.033(2) 0.052(3) 0.073(3) -0.014(2) 0.033(2) -0.0081(19)
C12 0.038(2) 0.043(2) 0.075(3) -0.012(2) 0.033(2) -0.0104(19)
C13 0.0244(17) 0.051(2) 0.0272(18) -0.0056(16) 0.0119(15) 0.0039(16)
C14 0.0318(18) 0.039(2) 0.0317(19) -0.0048(16) 0.0123(15) -0.0089(16)
C15 0.0215(17) 0.060(3) 0.041(2) -0.004(2) 0.0130(16) -0.0103(18)
O7 0.0851(18) 0.0915(18) 0.0804(17) -0.0029(13) 0.0077(13) -0.0070(13)
N1 0.092(4) 0.094(4) 0.087(4) -0.001(2) 0.009(2) 0.000(2)
C16 0.082(4) 0.083(4) 0.081(4) -0.001(2) 0.010(2) -0.001(2)
C17 0.124(7) 0.125(7) 0.122(7) -0.001(2) 0.015(2) -0.001(2)
C18 0.139(8) 0.138(8) 0.137(8) -0.001(2) 0.015(2) 0.001(2)
O8 0.078(3) 0.121(4) 0.083(3) 0.044(3) 0.022(3) 0.044(3)
Eu1A 0.01843 0.03933 0.0235 0.00068 0.008 0.00612
Eu1B 0.01843 0.03933 0.0235 -0.00068 0.008 -0.00612
Eu1D 0.01843 0.03933 0.0235 -0.00068 0.008 -0.00612
Eu1G 0.01843 0.03933 0.0235 0.00068 0.008 0.00612
O1A 0.0331 0.0554 0.0319 0.0129 0.0144 0.0032
O2G 0.0283 0.069 0.0407 0.0191 0.0201 0.0057
O3B 0.0364 0.0409 0.0404 -0.0115 0.0198 -0.0102
O3D 0.0364 0.0409 0.0404 -0.0115 0.0198 -0.0102
O4B 0.0288 0.0442 0.063 -0.0136 0.0057 -0.0057
loop_
_geom_bond_atom_site_label_1
_geom_bond_atom_site_label_2
_geom_bond_site_symmetry_1
_geom_bond_site_symmetry_2
Eu1 O5 1_555 1_555
O1 C13 1_555 1_555
O2 C13 1_555 1_555
O3 C14 1_555 1_555
O4 C14 1_555 1_555
O5 C15 1_555 1_555
O6 Eu1 1_555 1_555
C1 C2 1_555 1_555
C2 H1 1_555 1_555
C3 C2 1_555 1_555
C4 C3 1_555 1_555
H2 C4 1_555 1_555
C5 C4 1_555 1_555
C6 C1 1_555 1_555
H3 C6 1_555 1_555
C7 C5 1_555 1_555
C8 C7 1_555 1_555
H4 C8 1_555 1_555
C9 C8 1_555 1_555
H5 C9 1_555 1_555
C10 C9 1_555 1_555
C11 C10 1_555 1_555
H6 C11 1_555 1_555
C12 C7 1_555 1_555
H7 C12 1_555 1_555
C13 C1 1_555 1_555
C14 C3 1_555 1_555
C15 O6 1_555 1_555
O7 Eu1 1_555 1_555
N1 C16 1_555 1_555
C16 O7 1_555 1_555
H8 C16 1_555 1_555
C17 N1 1_555 1_555
H9 C17 1_555 1_555
H10 C17 1_555 1_555
H11 C17 1_555 1_555
C18 N1 1_555 1_555
H12 C18 1_555 1_555
H13 C18 1_555 1_555
H14 C18 1_555 1_555
O8 Eu1 1_555 1_555
H15 O8 1_555 1_555
H16 O8 1_555 1_555
Eu1A O1 1_555 1_555
Eu1B O3 1_555 1_555
Eu1D O3 1_555 1_555
Eu1G O2 1_555 1_555
O1A Eu1 1_555 1_555
O2G Eu1 1_555 1_555
O3B Eu1 1_555 1_555
O3D Eu1 1_555 1_555
O4B Eu1 1_555 1_555
O4 Eu1B 1_555 1_555
C5 C6 1_555 1_555
C10 C15 1_555 1_555
C11 C12 1_555 1_555

#END
