
#######################################################################
#
#                 Cambridge Crystallographic Data Centre
#                                CCDC 
#
#######################################################################
#
# If this CIF has been generated from an entry in the Cambridge 
# Structural Database, then it will include bibliographic, chemical, 
# crystal, experimental, refinement or atomic coordinate data resulting 
# from the CCDC's data processing and validation procedures.
#
#######################################################################

data_NUHQUE
_chemical_formula_moiety         '(C81 H99 Eu1 N7 O42 Tb3)n'
_symmetry_cell_setting           triclinic
_symmetry_space_group_name_H-M   'P -1'
_symmetry_Int_Tables_number      2
_space_group_name_Hall           '-P 1'
loop_
_symmetry_equiv_pos_site_id
_symmetry_equiv_pos_as_xyz
1 x,y,z
2 -x,-y,-z
_cell_length_a                   13.029(3)
_cell_length_b                   13.828(3)
_cell_length_c                   28.021(6)
_cell_angle_alpha                75.72(3)
_cell_angle_beta                 79.23(3)
_cell_angle_gamma                85.59(3)
_cell_volume                     4803.72
loop_
_atom_site_label
_atom_site_type_symbol
_atom_site_fract_x
_atom_site_fract_y
_atom_site_fract_z
O1 O -0.0542(3) 1.9319(4) -0.52797(16)
O2 O -0.2010(4) 1.8996(4) -0.47394(17)
O3 O -0.3996(4) 1.5680(4) -0.54371(19)
O4 O -0.3763(4) 1.5907(4) -0.47126(17)
O5 O 0.0455(4) 1.8893(5) -0.85555(17)
O6 O -0.0684(4) 1.7860(4) -0.85937(16)
O7 O -0.3607(3) 1.5163(4) -0.64209(16)
O8 O -0.4046(3) 1.3921(3) -0.57681(16)
O9 O -0.1310(3) 1.1345(4) -0.52396(16)
O10 O 0.0189(3) 1.1266(4) -0.57777(16)
O11 O 0.2609(4) 1.6587(4) -0.85301(19)
O12 O 0.3253(4) 1.5080(4) -0.85876(17)
O13 O -0.1107(4) 1.9833(4) -0.92225(16)
O14 O -0.1239(3) 2.1277(3) -0.97839(15)
O15 O -0.4959(4) 2.3515(4) -0.86133(16)
O16 O -0.3875(3) 2.3868(3) -0.93298(15)
O17 O -0.5096(4) 1.6942(4) -0.63682(17)
O18 O -0.5560(5) 1.8145(4) -0.5967(2)
O19 O -0.4030(4) 1.5725(4) -0.04546(18)
O20 O -0.3890(4) 1.6068(4) 0.02551(17)
O21 O -0.0988(4) 1.9684(4) -0.03307(17)
O22 O -0.1064(4) 1.8271(4) 0.02533(17)
O23 O -0.2216(4) 1.9362(5) -0.36464(18)
O24 O -0.0865(4) 2.0179(4) -0.36204(17)
O25 O -0.3087(4) 2.0603(5) -0.4448(3)
O26 O -0.1442(5) 2.1886(4) -0.4320(2)
O27 O -0.5725(5) 1.4606(5) -0.6439(2)
O28 O -0.6106(4) 1.6425(4) -0.52777(18)
O29 O -0.7137(4) 1.5814(4) -0.5933(2)
O30 O 0.0593(4) 1.6997(4) -0.9366(2)
O31 O 0.2124(4) 1.8322(5) -0.92599(19)
O32 O -0.6230(6) 1.4755(5) -0.1326(3)
O33 O -0.4639(4) 1.3215(4) -0.1098(2)
O34 O -0.3824(4) 1.3621(4) -0.02950(17)
C1 C -0.1748(5) 1.8235(5) -0.5427(2)
C2 C -0.2495(5) 1.7524(5) -0.5189(2)
H1 H -0.2761 1.7450 -0.4850
C3 C -0.2843(5) 1.6929(5) -0.5450(2)
C4 C -0.2480(5) 1.7053(5) -0.5957(2)
H2 H -0.2741 1.6670 -0.6135
C5 C -0.1711(5) 1.7762(5) -0.6207(2)
C6 C -0.1343(5) 1.8333(5) -0.5934(2)
H3 H -0.0821 1.8786 -0.6091
C7 C -0.1329(5) 1.7882(5) -0.6760(2)
C8 C -0.0384(7) 1.8319(7) -0.6982(3)
H4 H 0.0027 1.8525 -0.6790
C9 C -0.0051(7) 1.8448(7) -0.7498(3)
H5 H 0.0583 1.8748 -0.7647
C10 C -0.0637(5) 1.8143(5) -0.7788(2)
C11 C -0.1532(6) 1.7641(7) -0.7560(3)
H6 H -0.1914 1.7386 -0.7748
C12 C -0.1869(6) 1.7514(7) -0.7048(2)
H7 H -0.2477 1.7171 -0.6898
C13 C -0.1407(5) 1.8887(5) -0.5133(2)
C14 C -0.3601(5) 1.6121(5) -0.5183(2)
C15 C -0.0272(5) 1.8304(5) -0.8347(2)
C16 C -0.2338(5) 1.3827(5) -0.6251(2)
C17 C -0.2046(5) 1.2981(5) -0.5920(2)
H8 H -0.2503 1.2713 -0.5628
C18 C -0.1056(5) 1.2526(5) -0.6025(2)
C19 C -0.0387(5) 1.2927(5) -0.6466(2)
H9 H 0.0262 1.2614 -0.6539
C20 C -0.0666(5) 1.3790(6) -0.6804(2)
C21 C -0.1647(5) 1.4228(5) -0.6686(2)
H10 H -0.1847 1.4805 -0.6903
C22 C 0.0109(5) 1.4262(6) -0.7248(2)
C23 C 0.0170(6) 1.5288(6) -0.7401(3)
H11 H -0.0320 1.5682 -0.7241
C24 C 0.0934(6) 1.5751(7) -0.7785(3)
H12 H 0.0953 1.6444 -0.7877
C25 C 0.1677(5) 1.5177(6) -0.8034(2)
C26 C 0.1597(5) 1.4152(6) -0.7892(3)
H13 H 0.2068 1.3756 -0.8059
C27 C 0.0820(5) 1.3694(6) -0.7500(3)
H14 H 0.0786 1.3001 -0.7410
C28 C -0.3393(5) 1.4325(5) -0.6141(2)
C29 C -0.0702(5) 1.1637(5) -0.5652(2)
C30 C 0.2564(5) 1.5647(6) -0.8414(3)
C31 C -0.2375(5) 2.1026(5) -0.8999(2)
C32 C -0.2848(5) 2.1963(5) -0.9119(2)
H15 H -0.2613 2.2396 -0.9425
C33 C -0.3669(5) 2.2269(5) -0.8789(2)
C34 C -0.4009(5) 2.1622(5) -0.8333(2)
H16 H -0.4548 2.1829 -0.8108
C35 C -0.3564(5) 2.0669(5) -0.8204(2)
C36 C -0.2734(5) 2.0383(5) -0.8541(2)
H17 H -0.2419 1.9752 -0.8458
C37 C -0.3983(5) 1.9955(5) -0.7723(2)
C38 C -0.4008(6) 1.8954(5) -0.7703(3)
H18 H -0.3757 1.8723 -0.7990
C39 C -0.4408(6) 1.8278(6) -0.7258(3)
H19 H -0.4411 1.7602 -0.7251
C40 C -0.4797(5) 1.8604(5) -0.6829(2)
C41 C -0.4785(7) 1.9602(6) -0.6844(3)
H20 H -0.5043 1.9829 -0.6557
C42 C -0.4390(7) 2.0279(6) -0.7286(3)
H21 H -0.4396 2.0955 -0.7292
C43 C -0.1508(5) 2.0684(5) -0.9363(2)
C44 C -0.4192(5) 2.3276(5) -0.8923(2)
C45 C -0.5189(6) 1.7843(6) -0.6350(3)
C46 C -0.3015(4) 1.7079(5) -0.0477(2)
C47 C -0.2482(5) 1.7535(5) -0.0208(2)
H22 H -0.2544 1.7296 0.0137
C48 C -0.1856(5) 1.8349(5) -0.0452(2)
C49 C -0.1763(5) 1.8693(5) -0.0961(2)
H23 H -0.1366 1.9250 -0.1121
C50 C -0.2244(5) 1.8235(5) -0.1245(2)
C51 C -0.2880(5) 1.7419(5) -0.1001(2)
H24 H -0.3212 1.7105 -0.1185
C52 C -0.2097(5) 1.8590(5) -0.1801(2)
C53 C -0.2865(6) 1.8510(6) -0.2069(3)
H25 H -0.3495 1.8230 -0.1898
C54 C -0.2722(6) 1.8836(7) -0.2585(3)
H26 H -0.3257 1.8788 -0.2755
C55 C -0.1779(5) 1.9234(5) -0.2847(2)
C56 C -0.1007(6) 1.9308(6) -0.2588(2)
H27 H -0.0368 1.9565 -0.2762
C57 C -0.1161(6) 1.9004(6) -0.2067(2)
H28 H -0.0634 1.9079 -0.1897
C58 C -0.3696(5) 1.6233(5) -0.0210(2)
C59 C -0.1273(5) 1.8803(5) -0.0151(2)
C60 C -0.1606(5) 1.9616(6) -0.3409(2)
N1 N -0.6220(10) 1.3715(10) -0.6915(5)
N2 N 0.1083(7) 1.5664(8) -0.9729(4)
C61 C -0.5591(15) 1.4289(14) -0.6783(7)
H29 H -0.4964 1.4447 -0.7001
C62 C -0.7084(18) 1.3036(18) -0.6599(9)
H30 H -0.7359 1.2700 -0.6807
H31 H -0.7632 1.3427 -0.6449
H32 H -0.6806 1.2551 -0.6342
C63 C -0.5740(15) 1.3508(16) -0.7416(7)
H33 H -0.6191 1.3094 -0.7508
H34 H -0.5072 1.3172 -0.7394
H35 H -0.5651 1.4127 -0.7665
C64 C 0.0757(8) 1.6623(9) -0.9742(4)
H36 H 0.0648 1.7031 -1.0047
C65 C 0.1390(11) 1.5336(11) -1.0207(5)
H37 H 0.1602 1.4643 -1.0136
H38 H 0.1961 1.5724 -1.0414
H39 H 0.0806 1.5432 -1.0380
C66 C 0.1133(13) 1.4996(13) -0.9230(6)
H40 H 0.1373 1.4341 -0.9268
H41 H 0.0450 1.4959 -0.9027
H42 H 0.1608 1.5256 -0.9073
H43 H -0.363(3) 2.011(6) -0.445(8)
H44 H -0.352(4) 2.114(10) -0.431(7)
H45 H -0.184(16) 2.212(3) -0.402(4)
H46 H -0.117(16) 2.254(3) -0.455(4)
H47 H -0.664(12) 1.618(5) -0.498(4)
H48 H -0.620(14) 1.716(2) -0.539(2)
H49 H -0.739(2) 1.625(13) -0.624(3)
H50 H -0.7777(18) 1.547(11) -0.573(5)
H51 H 0.278(2) 1.869(9) -0.945(6)
H52 H 0.240(4) 1.768(7) -0.906(7)
H53 H -0.645(11) 1.536(5) -0.157(6)
H54 H -0.691(7) 1.442(13) -0.116(2)
H55 H -0.397(6) 1.279(8) -0.109(7)
H56 H -0.492(13) 1.311(5) -0.139(5)
H57 H -0.361(14) 1.372(6) 0.002(4)
H58 H -0.381(13) 1.2858(15) -0.023(6)
Eu1 Eu -0.48313(2) 1.48081(2) -0.085854(10)
Tb1 Tb 0.03079(2) 1.87523(2) -0.939555(10)
Tb2 Tb -0.11987(2) 2.02129(2) -0.445970(10)
Tb3 Tb -0.52847(2) 1.53760(2) -0.585020(11)
O1A O 0.0542(3) 2.0681(4) -0.47203(16)
O4A O -0.6237(4) 1.4093(4) -0.52874(17)
O9_2 O -0.1310(3) 2.1345(4) -0.52396(16)
O10A O -0.0189(3) 1.8734(4) -0.42223(16)
O12A O -0.3253(4) 1.4920(4) -0.14124(17)
O14A O 0.1239(3) 1.8723(3) -1.02161(15)
O15A O -0.5041(4) 1.6485(4) -0.13867(16)
O16A O -0.6125(3) 1.6132(3) -0.06702(15)
O20A O -0.6110(4) 1.3932(4) -0.02551(17)
O21A O 0.0988(4) 2.0316(4) -0.96693(17)
O22_2 O -0.1064(4) 1.8271(4) -0.97467(17)
Eu1A Eu -0.51687(2) 1.51919(2) 0.085854(10)
Eu1A_2 Eu -0.51687(2) 2.51919(2) -0.914146(10)
Eu1A_3 Eu 0.48313(2) 1.51919(2) -0.914146(10)
Tb1_2 Tb 0.03079(2) 1.87523(2) 0.060445(10)
Tb1A Tb -0.03079(2) 2.12477(2) -1.060445(10)
Tb1A_2 Tb -0.03079(2) 2.12477(2) -0.060445(10)
Tb2_2 Tb -0.11987(2) 1.02129(2) -0.445970(10)
Tb2A Tb 0.11987(2) 0.97871(2) -0.554030(10)
Tb2A_2 Tb 0.11987(2) 1.97871(2) -0.554030(10)
Tb3A Tb -0.47153(2) 1.46240(2) -0.414980(11)
O35 O 0.6029(5) 0.1536(5) -0.0041(2)
N3 N 0.5437(5) 0.0181(6) 0.0565(3)
C67 C 0.5391(8) 0.1147(8) 0.0340(4)
H59 H 0.4863 0.1550 0.0470
C68 C 0.4647(11) -0.0178(11) 0.0995(5)
H60 H 0.4775 -0.0877 0.1128
H61 H 0.3971 -0.0078 0.0897
H62 H 0.4669 0.0181 0.1245
C69 C 0.6257(9) -0.0462(9) 0.0409(4)
H63 H 0.6163 -0.1122 0.0621
H64 H 0.6914 -0.0221 0.0432
H65 H 0.6253 -0.0480 0.0070
O36 O 0.2184(5) 0.7485(6) 0.3450(3)
N4 N 0.2867(6) 0.7742(6) 0.2629(3)
C70 C 0.2418(8) 0.8041(9) 0.3023(4)
H66 H 0.2258 0.8720 0.2985
C71 C 0.3060(10) 0.8427(10) 0.2146(5)
H67 H 0.3403 0.8075 0.1901
H68 H 0.3498 0.8945 0.2157
H69 H 0.2408 0.8716 0.2057
C72 C 0.3219(9) 0.6679(9) 0.2678(5)
H70 H 0.3539 0.6578 0.2356
H71 H 0.2629 0.6259 0.2810
H72 H 0.3718 0.6513 0.2901
O37 O 0.8650(5) 0.3869(6) 0.5105(3)
N5 N 0.9848(5) 0.4533(5) 0.4435(3)
C73 C 0.8898(7) 0.4497(8) 0.4714(4)
H73 H 0.8396 0.4973 0.4605
C74 C 1.0074(9) 0.5322(9) 0.3996(4)
H74 H 1.0787 0.5250 0.3838
H75 H 0.9969 0.5953 0.4086
H76 H 0.9617 0.5292 0.3768
C75 C 1.0636(9) 0.3797(9) 0.4566(4)
H77 H 1.1265 0.3943 0.4325
H78 H 1.0405 0.3152 0.4571
H79 H 1.0769 0.3799 0.4892
O38 O 0.7086(11) 0.4099(13) 0.2121(6)
N6 N 0.807(2) 0.251(2) 0.2260(11)
C76 C 0.724(3) 0.301(3) 0.2487(14)
H80 H 0.6828 0.2759 0.2798
C77 C 0.859(2) 0.295(2) 0.1777(11)
H81 H 0.9135 0.2502 0.1672
H82 H 0.8882 0.3563 0.1780
H83 H 0.8098 0.3084 0.1550
C78 C 0.804(3) 0.166(2) 0.2680(12)
H84 H 0.8574 0.1179 0.2604
H85 H 0.7366 0.1362 0.2749
H86 H 0.8145 0.1872 0.2968
O39 O 0.6071(16) 0.2065(16) 0.3346(8)
N7 N 0.565(2) 0.117(3) 0.4272(12)
C79 C 0.536(3) 0.185(3) 0.3823(11)
H87 H 0.4699 0.2161 0.3844
C80 C 0.532(2) 0.145(2) 0.4742(10)
H88 H 0.4741 0.1925 0.4715
H89 H 0.5888 0.1755 0.4821
H90 H 0.5114 0.0872 0.5001
C81 C 0.654(2) 0.051(2) 0.4143(11)
H91 H 0.6589 0.0472 0.3803
H92 H 0.6438 -0.0143 0.4360
H93 H 0.7174 0.0770 0.4183
O40 O 0.6455(7) 0.5788(8) 0.2510(4)
O41 O 0.5933(7) 0.7214(8) 0.1686(4)
O42 O 0.7812(12) 0.6887(12) 0.1123(6)
loop_
_geom_bond_atom_site_label_1
_geom_bond_atom_site_label_2
_geom_bond_site_symmetry_1
_geom_bond_site_symmetry_2
O1 C13 1_555 1_555
O2 C13 1_555 1_555
O3 C14 1_555 1_555
O4 C14 1_555 1_555
O5 C15 1_555 1_555
O6 C15 1_555 1_555
O7 C28 1_555 1_555
O8 C28 1_555 1_555
O9 C29 1_555 1_555
O10 C29 1_555 1_555
O11 C30 1_555 1_555
O12 C30 1_555 1_555
O13 C43 1_555 1_555
O14 C43 1_555 1_555
O15 C44 1_555 1_555
O16 C44 1_555 1_555
O17 C45 1_555 1_555
O18 C45 1_555 1_555
O19 C58 1_555 1_555
O20 C58 1_555 1_555
O21 C59 1_555 1_555
O22 C59 1_555 1_555
O23 C60 1_555 1_555
O24 C60 1_555 1_555
O25 H43 1_555 1_555
O26 H45 1_555 1_555
O27 C61 1_555 1_555
O28 H47 1_555 1_555
O29 H49 1_555 1_555
O30 C64 1_555 1_555
O31 H51 1_555 1_555
O32 H53 1_555 1_555
O33 H55 1_555 1_555
O34 H57 1_555 1_555
C1 C2 1_555 1_555
C2 H1 1_555 1_555
C3 C2 1_555 1_555
C4 C3 1_555 1_555
H2 C4 1_555 1_555
C5 C4 1_555 1_555
C6 C1 1_555 1_555
H3 C6 1_555 1_555
C7 C5 1_555 1_555
C8 C7 1_555 1_555
H4 C8 1_555 1_555
C9 C8 1_555 1_555
H5 C9 1_555 1_555
C10 C9 1_555 1_555
C11 C10 1_555 1_555
H6 C11 1_555 1_555
C12 C7 1_555 1_555
H7 C12 1_555 1_555
C13 C1 1_555 1_555
C14 C3 1_555 1_555
C15 C10 1_555 1_555
C16 C17 1_555 1_555
C17 H8 1_555 1_555
C18 C17 1_555 1_555
C19 C18 1_555 1_555
H9 C19 1_555 1_555
C20 C19 1_555 1_555
C21 C16 1_555 1_555
H10 C21 1_555 1_555
C22 C20 1_555 1_555
C23 C22 1_555 1_555
H11 C23 1_555 1_555
C24 C23 1_555 1_555
H12 C24 1_555 1_555
C25 C24 1_555 1_555
C26 C25 1_555 1_555
H13 C26 1_555 1_555
C27 C22 1_555 1_555
H14 C27 1_555 1_555
C28 C16 1_555 1_555
C29 C18 1_555 1_555
C30 C25 1_555 1_555
C31 C32 1_555 1_555
C32 H15 1_555 1_555
C33 C32 1_555 1_555
C34 C33 1_555 1_555
H16 C34 1_555 1_555
C35 C34 1_555 1_555
C36 C31 1_555 1_555
H17 C36 1_555 1_555
C37 C35 1_555 1_555
C38 C37 1_555 1_555
H18 C38 1_555 1_555
C39 C38 1_555 1_555
H19 C39 1_555 1_555
C40 C39 1_555 1_555
C41 C40 1_555 1_555
H20 C41 1_555 1_555
C42 C37 1_555 1_555
H21 C42 1_555 1_555
C43 C31 1_555 1_555
C44 C33 1_555 1_555
C45 C40 1_555 1_555
C46 C47 1_555 1_555
C47 H22 1_555 1_555
C48 C47 1_555 1_555
C49 C48 1_555 1_555
H23 C49 1_555 1_555
C50 C49 1_555 1_555
C51 C46 1_555 1_555
H24 C51 1_555 1_555
C52 C50 1_555 1_555
C53 C52 1_555 1_555
H25 C53 1_555 1_555
C54 C53 1_555 1_555
H26 C54 1_555 1_555
C55 C54 1_555 1_555
C56 C55 1_555 1_555
H27 C56 1_555 1_555
C57 C52 1_555 1_555
H28 C57 1_555 1_555
C58 C46 1_555 1_555
C59 C48 1_555 1_555
C60 C55 1_555 1_555
N1 C61 1_555 1_555
N2 C64 1_555 1_555
C61 H29 1_555 1_555
C62 N1 1_555 1_555
H30 C62 1_555 1_555
H31 C62 1_555 1_555
H32 C62 1_555 1_555
C63 N1 1_555 1_555
H33 C63 1_555 1_555
H34 C63 1_555 1_555
H35 C63 1_555 1_555
C64 H36 1_555 1_555
C65 N2 1_555 1_555
H37 C65 1_555 1_555
H38 C65 1_555 1_555
H39 C65 1_555 1_555
C66 N2 1_555 1_555
H40 C66 1_555 1_555
H41 C66 1_555 1_555
H42 C66 1_555 1_555
H44 O25 1_555 1_555
H46 O26 1_555 1_555
H48 O28 1_555 1_555
H50 O29 1_555 1_555
H52 O31 1_555 1_555
H54 O32 1_555 1_555
H56 O33 1_555 1_555
H58 O34 1_555 1_555
Eu1 O19 1_555 1_555
Tb1 O5 1_555 1_555
Tb2 O1 1_555 1_555
Tb3 O3 1_555 1_555
O35 C67 1_555 1_555
N3 C67 1_555 1_555
C67 H59 1_555 1_555
C68 N3 1_555 1_555
H60 C68 1_555 1_555
H61 C68 1_555 1_555
H62 C68 1_555 1_555
C69 N3 1_555 1_555
H63 C69 1_555 1_555
H64 C69 1_555 1_555
H65 C69 1_555 1_555
O36 C70 1_555 1_555
N4 C70 1_555 1_555
C70 H66 1_555 1_555
C71 N4 1_555 1_555
H67 C71 1_555 1_555
H68 C71 1_555 1_555
H69 C71 1_555 1_555
C72 N4 1_555 1_555
H70 C72 1_555 1_555
H71 C72 1_555 1_555
H72 C72 1_555 1_555
O37 C73 1_555 1_555
N5 C73 1_555 1_555
C73 H73 1_555 1_555
C74 N5 1_555 1_555
H74 C74 1_555 1_555
H75 C74 1_555 1_555
H76 C74 1_555 1_555
C75 N5 1_555 1_555
H77 C75 1_555 1_555
H78 C75 1_555 1_555
H79 C75 1_555 1_555
O38 C76 1_555 1_555
N6 C76 1_555 1_555
C76 H80 1_555 1_555
C77 N6 1_555 1_555
H81 C77 1_555 1_555
H82 C77 1_555 1_555
H83 C77 1_555 1_555
C78 N6 1_555 1_555
H84 C78 1_555 1_555
H85 C78 1_555 1_555
H86 C78 1_555 1_555
O39 C79 1_555 1_555
N7 C79 1_555 1_555
C79 H87 1_555 1_555
C80 N7 1_555 1_555
H88 C80 1_555 1_555
H89 C80 1_555 1_555
H90 C80 1_555 1_555
C81 N7 1_555 1_555
H91 C81 1_555 1_555
H92 C81 1_555 1_555
H93 C81 1_555 1_555
O1A Tb2 1_555 1_555
O4A Tb3 1_555 1_555
O9_2 Tb2 1_555 1_555
O10A Tb2 1_555 1_555
O12A Eu1 1_555 1_555
O14A Tb1 1_555 1_555
O15A Eu1 1_555 1_555
O16A Eu1 1_555 1_555
O20A Eu1 1_555 1_555
O21A Tb1 1_555 1_555
O22_2 Tb1 1_555 1_555
Eu1A O20 1_555 1_555
Eu1A_2 O15 1_555 1_555
Eu1A_3 O12 1_555 1_555
Tb1_2 O22 1_555 1_555
Tb1A O14 1_555 1_555
Tb1A_2 O21 1_555 1_555
Tb2_2 O9 1_555 1_555
Tb2A O10 1_555 1_555
Tb2A_2 O1 1_555 1_555
Tb3A O4 1_555 1_555
O2 Tb2 1_555 1_555
O6 Tb1 1_555 1_555
O7 Tb3 1_555 1_555
O8 Tb3 1_555 1_555
O13 Tb1 1_555 1_555
O16 Eu1A_2 1_555 1_555
O17 Tb3 1_555 1_555
O23 Tb2 1_555 1_555
O24 Tb2 1_555 1_555
O25 Tb2 1_555 1_555
O26 Tb2 1_555 1_555
O27 Tb3 1_555 1_555
O28 Tb3 1_555 1_555
O29 Tb3 1_555 1_555
O30 Tb1 1_555 1_555
O31 Tb1 1_555 1_555
O32 Eu1 1_555 1_555
O33 Eu1 1_555 1_555
O34 Eu1 1_555 1_555
C5 C6 1_555 1_555
C11 C12 1_555 1_555
C20 C21 1_555 1_555
C26 C27 1_555 1_555
C35 C36 1_555 1_555
C41 C42 1_555 1_555
C50 C51 1_555 1_555
C56 C57 1_555 1_555
O1A Tb2A_2 1_555 1_555

#END
