
#######################################################################
#
#                 Cambridge Crystallographic Data Centre
#                                CCDC 
#
#######################################################################
#
# If this CIF has been generated from an entry in the Cambridge 
# Structural Database, then it will include bibliographic, chemical, 
# crystal, experimental, refinement or atomic coordinate data resulting 
# from the CCDC's data processing and validation procedures.
#
#######################################################################

data_NUHRAL
_chemical_formula_moiety         '(C81 H99 N7 O42 Tb4)n'
_symmetry_cell_setting           triclinic
_symmetry_space_group_name_H-M   'P -1'
_symmetry_Int_Tables_number      2
_space_group_name_Hall           '-P 1'
loop_
_symmetry_equiv_pos_site_id
_symmetry_equiv_pos_as_xyz
1 x,y,z
2 -x,-y,-z
_cell_length_a                   12.955(3)
_cell_length_b                   13.814(3)
_cell_length_c                   27.962(6)
_cell_angle_alpha                75.69(3)
_cell_angle_beta                 79.38(3)
_cell_angle_gamma                85.69(3)
_cell_volume                     4763.47
loop_
_atom_site_label
_atom_site_type_symbol
_atom_site_fract_x
_atom_site_fract_y
_atom_site_fract_z
Tb1 Tb -0.12009(2) 2.02124(2) -0.446157(9)
Tb2 Tb -0.52891(2) 1.53755(2) -0.585077(10)
Tb3 Tb 0.03100(2) 1.87493(2) -0.939656(9)
Tb4 Tb -0.48374(2) 1.48066(2) -0.085803(10)
O1 O -0.0532(3) 1.9310(3) -0.52833(15)
O2 O -0.2004(3) 1.8997(4) -0.47452(16)
O3 O -0.4007(4) 1.5674(4) -0.54412(17)
O4 O -0.3762(4) 1.5901(3) -0.47165(15)
O5 O 0.0457(4) 1.8888(4) -0.85593(16)
O6 O -0.0684(4) 1.7848(3) -0.85977(15)
O7 O -0.3617(3) 1.5162(3) -0.64225(16)
O8 O -0.4053(3) 1.3916(3) -0.57669(15)
O9 O -0.1318(3) 1.1343(3) -0.52418(14)
O10 O 0.0191(3) 1.1258(3) -0.57748(15)
O11 O 0.2604(4) 1.6593(4) -0.85326(18)
O12 O 0.3266(3) 1.5077(3) -0.85865(16)
O13 O -0.1104(3) 1.9824(3) -0.92225(15)
O14 O -0.1235(3) 2.1269(3) -0.97865(14)
O15 O -0.4944(4) 2.3525(3) -0.86139(16)
O16 O -0.3870(3) 2.3874(3) -0.93352(14)
O17 O -0.5102(4) 1.6936(3) -0.63675(16)
O18 O -0.5557(5) 1.8143(4) -0.59633(19)
O19 O -0.4032(4) 1.5721(3) -0.04575(17)
O20 O -0.3888(3) 1.6072(3) 0.02515(15)
O21 O -0.0994(4) 1.9693(3) -0.03356(16)
O22 O -0.1058(4) 1.8273(3) 0.02492(15)
O23 O -0.2210(4) 1.9344(5) -0.36512(17)
O24 O -0.0876(4) 2.0185(4) -0.36231(15)
O25 O -0.3086(4) 2.0591(5) -0.4445(2)
O26 O -0.1450(5) 2.1877(4) -0.43194(19)
O27 O -0.5741(5) 1.4610(5) -0.64383(19)
O28 O -0.6100(4) 1.6421(4) -0.52809(16)
O29 O -0.7140(4) 1.5811(4) -0.59275(19)
O30 O 0.0588(4) 1.6996(4) -0.93720(19)
O31 O 0.2116(4) 1.8325(4) -0.92636(18)
O32 O -0.6244(6) 1.4742(5) -0.1317(2)
O33 O -0.4646(4) 1.3220(4) -0.10981(19)
O34 O -0.3822(4) 1.3625(3) -0.03008(16)
C1 C -0.1744(4) 1.8232(5) -0.5430(2)
C2 C -0.2497(4) 1.7530(4) -0.5189(2)
H1 H -0.2769 1.7465 -0.4852
C3 C -0.2846(4) 1.6921(4) -0.5454(2)
C4 C -0.2476(5) 1.7052(5) -0.5958(2)
H2 H -0.2734 1.6664 -0.6136
C5 C -0.1709(5) 1.7767(5) -0.6213(2)
C6 C -0.1340(5) 1.8339(5) -0.5938(2)
H3 H -0.0818 1.8796 -0.6094
C7 C -0.1340(5) 1.7883(5) -0.6759(2)
C8 C -0.0372(6) 1.8319(7) -0.6989(3)
H4 H 0.0050 1.8521 -0.6798
C9 C -0.0042(6) 1.8449(7) -0.7507(2)
H5 H 0.0594 1.8750 -0.7657
C10 C -0.0629(5) 1.8145(5) -0.7794(2)
C11 C -0.1529(6) 1.7625(6) -0.7564(2)
H6 H -0.1906 1.7356 -0.7750
C12 C -0.1865(6) 1.7507(6) -0.7054(2)
H7 H -0.2473 1.7157 -0.6905
C13 C -0.1393(5) 1.8888(5) -0.5139(2)
C14 C -0.3605(4) 1.6119(4) -0.5185(2)
C15 C -0.0263(5) 1.8303(5) -0.8351(2)
C16 C -0.2350(4) 1.3832(5) -0.6258(2)
C17 C -0.2041(5) 1.2983(5) -0.5922(2)
H8 H -0.2495 1.2724 -0.5625
C18 C -0.1063(5) 1.2516(5) -0.6023(2)
C19 C -0.0388(5) 1.2925(5) -0.6464(2)
H9 H 0.0267 1.2618 -0.6535
C20 C -0.0673(5) 1.3790(5) -0.6804(2)
C21 C -0.1649(5) 1.4225(5) -0.6689(2)
H10 H -0.1844 1.4804 -0.6909
C22 C 0.0107(5) 1.4261(5) -0.7248(2)
C23 C 0.0169(6) 1.5293(5) -0.7402(3)
H11 H -0.0317 1.5692 -0.7242
C24 C 0.0945(6) 1.5741(6) -0.7790(3)
H12 H 0.0969 1.6435 -0.7887
C25 C 0.1681(5) 1.5169(5) -0.8033(2)
C26 C 0.1603(5) 1.4144(5) -0.7893(2)
H13 H 0.2072 1.3747 -0.8062
C27 C 0.0828(5) 1.3696(5) -0.7502(2)
H14 H 0.0796 1.3003 -0.7410
C28 C -0.3401(5) 1.4327(5) -0.6146(2)
C29 C -0.0696(5) 1.1624(4) -0.5649(2)
C30 C 0.2569(5) 1.5653(5) -0.8416(2)
C31 C -0.2375(5) 2.1025(5) -0.8999(2)
C32 C -0.2849(5) 2.1973(4) -0.9122(2)
H15 H -0.2615 2.2407 -0.9429
C33 C -0.3664(5) 2.2269(5) -0.8790(2)
C34 C -0.4008(5) 2.1623(5) -0.8331(2)
H16 H -0.4551 2.1830 -0.8107
C35 C -0.3557(5) 2.0674(5) -0.8201(2)
C36 C -0.2733(5) 2.0379(5) -0.8539(2)
H17 H -0.2421 1.9745 -0.8456
C37 C -0.3986(5) 1.9961(5) -0.7722(2)
C38 C -0.4006(6) 1.8957(5) -0.7702(2)
H18 H -0.3747 1.8726 -0.7988
C39 C -0.4409(6) 1.8279(5) -0.7257(2)
H19 H -0.4418 1.7603 -0.7251
C40 C -0.4795(5) 1.8602(5) -0.6824(2)
C41 C -0.4775(6) 1.9606(5) -0.6847(3)
H20 H -0.5036 1.9837 -0.6561
C42 C -0.4378(6) 2.0280(5) -0.7283(3)
H21 H -0.4371 2.0954 -0.7287
C43 C -0.1503(5) 2.0684(5) -0.9361(2)
C44 C -0.4187(5) 2.3278(5) -0.8920(2)
C45 C -0.5193(5) 1.7838(5) -0.6348(2)
C46 C -0.3009(4) 1.7078(4) -0.0482(2)
C47 C -0.2480(4) 1.7534(4) -0.0212(2)
H22 H -0.2542 1.7293 0.0133
C48 C -0.1858(5) 1.8349(4) -0.0453(2)
C49 C -0.1771(5) 1.8705(5) -0.0964(2)
H23 H -0.1383 1.9270 -0.1123
C50 C -0.2252(5) 1.8236(5) -0.1250(2)
C51 C -0.2876(5) 1.7427(5) -0.1005(2)
H24 H -0.3209 1.7111 -0.1190
C52 C -0.2105(5) 1.8586(5) -0.1806(2)
C53 C -0.2868(5) 1.8517(6) -0.2073(2)
H25 H -0.3506 1.8246 -0.1902
C54 C -0.2723(6) 1.8834(6) -0.2584(2)
H26 H -0.3261 1.8776 -0.2754
C55 C -0.1780(5) 1.9240(5) -0.2852(2)
C56 C -0.1006(6) 1.9313(5) -0.2592(2)
H27 H -0.0364 1.9575 -0.2765
C57 C -0.1162(5) 1.9003(6) -0.2074(2)
H28 H -0.0631 1.9073 -0.1903
C58 C -0.3697(4) 1.6230(4) -0.0213(2)
C59 C -0.1263(4) 1.8809(5) -0.0155(2)
C60 C -0.1608(5) 1.9615(5) -0.3414(2)
N1 N -0.6204(9) 1.3733(9) -0.6929(4)
N2 N 0.1085(7) 1.5669(7) -0.9729(3)
C61 C -0.5594(13) 1.4323(12) -0.6779(6)
H29 H -0.4965 1.4509 -0.6994
C62 C -0.7053(16) 1.3196(16) -0.6630(8)
H30 H -0.7353 1.2844 -0.6825
H31 H -0.7573 1.3648 -0.6506
H32 H -0.6818 1.2726 -0.6354
C63 C -0.5714(15) 1.3536(15) -0.7430(7)
H33 H -0.6162 1.3121 -0.7526
H34 H -0.5041 1.3204 -0.7406
H35 H -0.5627 1.4159 -0.7677
C64 C 0.0769(8) 1.6621(8) -0.9751(4)
H36 H 0.0678 1.7029 -1.0060
C65 C 0.1386(10) 1.5324(10) -1.0194(4)
H37 H 0.1595 1.4629 -1.0115
H38 H 0.1961 1.5705 -1.0404
H39 H 0.0798 1.5412 -1.0367
C66 C 0.1178(10) 1.5014(10) -0.9244(5)
H40 H 0.1419 1.4361 -0.9286
H41 H 0.0504 1.4969 -0.9029
H42 H 0.1671 1.5280 -0.9096
H43 H -0.364(3) 2.013(6) -0.449(7)
H44 H -0.354(3) 2.109(9) -0.428(6)
H45 H -0.206(7) 2.217(5) -0.410(6)
H46 H -0.090(4) 2.242(5) -0.437(6)
H47 H -0.651(12) 1.616(3) -0.495(3)
H48 H -0.623(13) 1.715(2) -0.539(2)
H49 H -0.764(5) 1.626(11) -0.575(5)
H50 H -0.750(5) 1.578(13) -0.621(4)
H51 H 0.2792(17) 1.864(9) -0.948(4)
H52 H 0.240(3) 1.769(6) -0.905(6)
H53 H -0.699(3) 1.493(14) -0.122(4)
H54 H -0.620(6) 1.436(12) -0.158(5)
H55 H -0.395(4) 1.284(7) -0.114(6)
H56 H -0.503(10) 1.306(6) -0.135(5)
H57 H -0.347(12) 1.375(4) -0.003(5)
H58 H -0.380(12) 1.2864(15) -0.022(5)
Tb1_2 Tb -0.12009(2) 1.02124(2) -0.446157(9)
Tb1A Tb 0.12009(2) 0.97876(2) -0.553843(9)
Tb1A_2 Tb 0.12009(2) 1.97876(2) -0.553843(9)
Tb2A Tb -0.47109(2) 1.46245(2) -0.414923(10)
Tb3_2 Tb 0.03100(2) 1.87493(2) 0.060344(9)
Tb3A Tb -0.03100(2) 2.12507(2) -1.060344(9)
Tb3A_2 Tb -0.03100(2) 2.12507(2) -0.060344(9)
Tb4A Tb -0.51626(2) 1.51934(2) 0.085803(10)
Tb4A_2 Tb -0.51626(2) 2.51934(2) -0.914197(10)
Tb4A_3 Tb 0.48374(2) 1.51934(2) -0.914197(10)
O1A O 0.0532(3) 2.0690(3) -0.47167(15)
O4A O -0.6238(4) 1.4099(3) -0.52835(15)
O9_2 O -0.1318(3) 2.1343(3) -0.52418(14)
O10A O -0.0191(3) 1.8742(3) -0.42252(15)
O12A O -0.3266(3) 1.4923(3) -0.14135(16)
O14A O 0.1235(3) 1.8731(3) -1.02135(14)
O15A O -0.5056(4) 1.6475(3) -0.13861(16)
O16A O -0.6130(3) 1.6126(3) -0.06648(14)
O20A O -0.6112(3) 1.3928(3) -0.02515(15)
O21A O 0.0994(4) 2.0307(3) -0.96644(16)
O22_2 O -0.1058(4) 1.8273(3) -0.97508(15)
O35 O 0.6022(5) 0.1531(5) -0.0038(2)
N3 N 0.5442(5) 0.0169(5) 0.0565(2)
C67 C 0.5387(7) 0.1135(7) 0.0341(3)
H59 H 0.4852 0.1533 0.0472
C68 C 0.4656(10) -0.0198(10) 0.0994(5)
H60 H 0.4789 -0.0898 0.1126
H61 H 0.3975 -0.0100 0.0898
H62 H 0.4679 0.0158 0.1246
C69 C 0.6254(9) -0.0484(9) 0.0414(4)
H63 H 0.6151 -0.1142 0.0628
H64 H 0.6919 -0.0250 0.0436
H65 H 0.6247 -0.0507 0.0074
O36 O 0.2176(5) 0.7495(5) 0.3452(2)
N4 N 0.2871(5) 0.7724(6) 0.2631(3)
C70 C 0.2408(8) 0.8018(8) 0.3022(4)
H66 H 0.2229 0.8696 0.2976
C71 C 0.3073(9) 0.8420(9) 0.2143(4)
H67 H 0.3416 0.8070 0.1898
H68 H 0.3517 0.8935 0.2157
H69 H 0.2420 0.8715 0.2053
C72 C 0.3228(9) 0.6684(8) 0.2675(4)
H70 H 0.3546 0.6590 0.2351
H71 H 0.2639 0.6257 0.2807
H72 H 0.3733 0.6520 0.2897
O37 O 0.8655(5) 0.3870(5) 0.5102(3)
N5 N 0.9855(5) 0.4541(5) 0.4430(2)
C73 C 0.8912(7) 0.4496(7) 0.4709(3)
H73 H 0.8406 0.4973 0.4599
C74 C 1.0082(9) 0.5349(9) 0.3993(4)
H74 H 1.0797 0.5280 0.3833
H75 H 0.9981 0.5974 0.4090
H76 H 0.9619 0.5331 0.3764
C75 C 1.0648(8) 0.3826(8) 0.4558(4)
H77 H 1.1276 0.3980 0.4314
H78 H 1.0424 0.3175 0.4565
H79 H 1.0787 0.3835 0.4882
O38 O 0.7097(10) 0.4149(11) 0.2112(5)
N6 N 0.8085(16) 0.2643(15) 0.2214(8)
C76 C 0.721(2) 0.316(2) 0.2471(10)
H80 H 0.6806 0.2923 0.2785
C77 C 0.870(2) 0.302(2) 0.1701(11)
H81 H 0.9232 0.2522 0.1628
H82 H 0.9036 0.3624 0.1687
H83 H 0.8244 0.3143 0.1459
C78 C 0.807(2) 0.167(2) 0.2708(10)
H84 H 0.8612 0.1187 0.2630
H85 H 0.7399 0.1361 0.2786
H86 H 0.8193 0.1889 0.2991
O39 O 0.6090(15) 0.2058(14) 0.3343(7)
N7 N 0.5680(17) 0.1234(17) 0.4235(9)
C79 C 0.538(2) 0.195(2) 0.3792(9)
H87 H 0.4741 0.2306 0.3811
C80 C 0.5283(19) 0.1482(18) 0.4719(9)
H88 H 0.4701 0.1953 0.4685
H89 H 0.5832 0.1770 0.4822
H90 H 0.5056 0.0886 0.4966
C81 C 0.6568(18) 0.0548(18) 0.4114(9)
H91 H 0.6624 0.0504 0.3773
H92 H 0.6450 -0.0104 0.4333
H93 H 0.7208 0.0797 0.4158
O40 O 0.6456(7) 0.5811(7) 0.2511(3)
O41 O 0.5966(7) 0.7232(7) 0.1675(3)
O42 O 0.7877(10) 0.6843(10) 0.1093(5)
loop_
_geom_bond_atom_site_label_1
_geom_bond_atom_site_label_2
_geom_bond_site_symmetry_1
_geom_bond_site_symmetry_2
Tb1 O1 1_555 1_555
Tb2 O3 1_555 1_555
Tb3 O5 1_555 1_555
Tb4 O19 1_555 1_555
O1 C13 1_555 1_555
O2 Tb1 1_555 1_555
O3 C14 1_555 1_555
O4 C14 1_555 1_555
O5 C15 1_555 1_555
O6 Tb3 1_555 1_555
O7 Tb2 1_555 1_555
O8 Tb2 1_555 1_555
O9 C29 1_555 1_555
O10 C29 1_555 1_555
O11 C30 1_555 1_555
O12 C30 1_555 1_555
O13 Tb3 1_555 1_555
O14 C43 1_555 1_555
O15 C44 1_555 1_555
O16 C44 1_555 1_555
O17 Tb2 1_555 1_555
O18 C45 1_555 1_555
O19 C58 1_555 1_555
O20 C58 1_555 1_555
O21 C59 1_555 1_555
O22 C59 1_555 1_555
O23 Tb1 1_555 1_555
O24 Tb1 1_555 1_555
O25 Tb1 1_555 1_555
O26 Tb1 1_555 1_555
O27 Tb2 1_555 1_555
O28 Tb2 1_555 1_555
O29 Tb2 1_555 1_555
O30 Tb3 1_555 1_555
O31 Tb3 1_555 1_555
O32 Tb4 1_555 1_555
O33 Tb4 1_555 1_555
O34 Tb4 1_555 1_555
C1 C2 1_555 1_555
C2 H1 1_555 1_555
C3 C2 1_555 1_555
C4 C3 1_555 1_555
H2 C4 1_555 1_555
C5 C4 1_555 1_555
C6 C1 1_555 1_555
H3 C6 1_555 1_555
C7 C5 1_555 1_555
C8 C7 1_555 1_555
H4 C8 1_555 1_555
C9 C8 1_555 1_555
H5 C9 1_555 1_555
C10 C9 1_555 1_555
C11 C10 1_555 1_555
H6 C11 1_555 1_555
C12 C7 1_555 1_555
H7 C12 1_555 1_555
C13 O2 1_555 1_555
C14 C3 1_555 1_555
C15 O6 1_555 1_555
C16 C17 1_555 1_555
C17 H8 1_555 1_555
C18 C17 1_555 1_555
C19 C18 1_555 1_555
H9 C19 1_555 1_555
C20 C19 1_555 1_555
C21 C16 1_555 1_555
H10 C21 1_555 1_555
C22 C20 1_555 1_555
C23 C22 1_555 1_555
H11 C23 1_555 1_555
C24 C23 1_555 1_555
H12 C24 1_555 1_555
C25 C24 1_555 1_555
C26 C25 1_555 1_555
H13 C26 1_555 1_555
C27 C22 1_555 1_555
H14 C27 1_555 1_555
C28 O7 1_555 1_555
C29 C18 1_555 1_555
C30 C25 1_555 1_555
C31 C32 1_555 1_555
C32 H15 1_555 1_555
C33 C32 1_555 1_555
C34 C33 1_555 1_555
H16 C34 1_555 1_555
C35 C34 1_555 1_555
C36 C31 1_555 1_555
H17 C36 1_555 1_555
C37 C35 1_555 1_555
C38 C37 1_555 1_555
H18 C38 1_555 1_555
C39 C38 1_555 1_555
H19 C39 1_555 1_555
C40 C39 1_555 1_555
C41 C40 1_555 1_555
H20 C41 1_555 1_555
C42 C37 1_555 1_555
H21 C42 1_555 1_555
C43 O13 1_555 1_555
C44 C33 1_555 1_555
C45 O17 1_555 1_555
C46 C47 1_555 1_555
C47 H22 1_555 1_555
C48 C47 1_555 1_555
C49 C48 1_555 1_555
H23 C49 1_555 1_555
C50 C49 1_555 1_555
C51 C46 1_555 1_555
H24 C51 1_555 1_555
C52 C50 1_555 1_555
C53 C52 1_555 1_555
H25 C53 1_555 1_555
C54 C53 1_555 1_555
H26 C54 1_555 1_555
C55 C54 1_555 1_555
C56 C55 1_555 1_555
H27 C56 1_555 1_555
C57 C52 1_555 1_555
H28 C57 1_555 1_555
C58 C46 1_555 1_555
C59 C48 1_555 1_555
C60 O23 1_555 1_555
N1 C61 1_555 1_555
N2 C64 1_555 1_555
C61 O27 1_555 1_555
H29 C61 1_555 1_555
C62 N1 1_555 1_555
H30 C62 1_555 1_555
H31 C62 1_555 1_555
H32 C62 1_555 1_555
C63 N1 1_555 1_555
H33 C63 1_555 1_555
H34 C63 1_555 1_555
H35 C63 1_555 1_555
C64 O30 1_555 1_555
H36 C64 1_555 1_555
C65 N2 1_555 1_555
H37 C65 1_555 1_555
H38 C65 1_555 1_555
H39 C65 1_555 1_555
C66 N2 1_555 1_555
H40 C66 1_555 1_555
H41 C66 1_555 1_555
H42 C66 1_555 1_555
H43 O25 1_555 1_555
H44 O25 1_555 1_555
H45 O26 1_555 1_555
H46 O26 1_555 1_555
H47 O28 1_555 1_555
H48 O28 1_555 1_555
H49 O29 1_555 1_555
H50 O29 1_555 1_555
H51 O31 1_555 1_555
H52 O31 1_555 1_555
H53 O32 1_555 1_555
H54 O32 1_555 1_555
H55 O33 1_555 1_555
H56 O33 1_555 1_555
H57 O34 1_555 1_555
H58 O34 1_555 1_555
O35 C67 1_555 1_555
N3 C67 1_555 1_555
C67 H59 1_555 1_555
C68 N3 1_555 1_555
H60 C68 1_555 1_555
H61 C68 1_555 1_555
H62 C68 1_555 1_555
C69 N3 1_555 1_555
H63 C69 1_555 1_555
H64 C69 1_555 1_555
H65 C69 1_555 1_555
O36 C70 1_555 1_555
N4 C70 1_555 1_555
C70 H66 1_555 1_555
C71 N4 1_555 1_555
H67 C71 1_555 1_555
H68 C71 1_555 1_555
H69 C71 1_555 1_555
C72 N4 1_555 1_555
H70 C72 1_555 1_555
H71 C72 1_555 1_555
H72 C72 1_555 1_555
O37 C73 1_555 1_555
N5 C73 1_555 1_555
C73 H73 1_555 1_555
C74 N5 1_555 1_555
H74 C74 1_555 1_555
H75 C74 1_555 1_555
H76 C74 1_555 1_555
C75 N5 1_555 1_555
H77 C75 1_555 1_555
H78 C75 1_555 1_555
H79 C75 1_555 1_555
O38 C76 1_555 1_555
N6 C76 1_555 1_555
C76 H80 1_555 1_555
C77 N6 1_555 1_555
H81 C77 1_555 1_555
H82 C77 1_555 1_555
H83 C77 1_555 1_555
C78 N6 1_555 1_555
H84 C78 1_555 1_555
H85 C78 1_555 1_555
H86 C78 1_555 1_555
O39 C79 1_555 1_555
N7 C79 1_555 1_555
C79 H87 1_555 1_555
C80 N7 1_555 1_555
H88 C80 1_555 1_555
H89 C80 1_555 1_555
H90 C80 1_555 1_555
C81 N7 1_555 1_555
H91 C81 1_555 1_555
H92 C81 1_555 1_555
H93 C81 1_555 1_555
Tb1_2 O9 1_555 1_555
Tb1A O10 1_555 1_555
Tb1A_2 O1 1_555 1_555
Tb2A O4 1_555 1_555
Tb3_2 O22 1_555 1_555
Tb3A O14 1_555 1_555
Tb3A_2 O21 1_555 1_555
Tb4A O20 1_555 1_555
Tb4A_2 O15 1_555 1_555
Tb4A_3 O12 1_555 1_555
O1A Tb1 1_555 1_555
O4A Tb2 1_555 1_555
O9_2 Tb1 1_555 1_555
O10A Tb1 1_555 1_555
O12A Tb4 1_555 1_555
O14A Tb3 1_555 1_555
O15A Tb4 1_555 1_555
O16A Tb4 1_555 1_555
O20A Tb4 1_555 1_555
O21A Tb3 1_555 1_555
O22_2 Tb3 1_555 1_555
O8 C28 1_555 1_555
O16 Tb4A_2 1_555 1_555
O24 C60 1_555 1_555
C1 C13 1_555 1_555
C5 C6 1_555 1_555
C10 C15 1_555 1_555
C11 C12 1_555 1_555
C16 C28 1_555 1_555
C20 C21 1_555 1_555
C26 C27 1_555 1_555
C31 C43 1_555 1_555
C35 C36 1_555 1_555
C40 C45 1_555 1_555
C41 C42 1_555 1_555
C50 C51 1_555 1_555
C55 C60 1_555 1_555
C56 C57 1_555 1_555
Tb1A_2 O1A 1_555 1_555

#END
