
#######################################################################
#
#                 Cambridge Crystallographic Data Centre
#                                CCDC 
#
#######################################################################
#
# If this CIF has been generated from an entry in the Cambridge 
# Structural Database, then it will include bibliographic, chemical, 
# crystal, experimental, refinement or atomic coordinate data resulting 
# from the CCDC's data processing and validation procedures.
#
#######################################################################

data_EDECOG
_chemical_formula_moiety         '(C22 H36 Au3 N7 Ni1)n'
_symmetry_cell_setting           tetragonal
_symmetry_space_group_name_H-M   'I 41 c d'
_symmetry_Int_Tables_number      110
_space_group_name_Hall           'I 4bw -2c'
loop_
_symmetry_equiv_pos_site_id
_symmetry_equiv_pos_as_xyz
1 x,y,z
2 1/2+x,1/2+y,1/2+z
3 -y,1/2+x,1/4+z
4 1/2-y,x,3/4+z
5 1/2-x,1/2-y,1/2+z
6 -x,-y,z
7 1/2+y,-x,3/4+z
8 y,1/2-x,1/4+z
9 -x,y,1/2+z
10 1/2-x,1/2+y,z
11 y,1/2+x,3/4+z
12 1/2+y,x,1/4+z
13 1/2+x,1/2-y,z
14 x,-y,1/2+z
15 1/2-y,-x,1/4+z
16 -y,1/2-x,3/4+z
_cell_length_a                   23.532(4)
_cell_length_b                   23.532(4)
_cell_length_c                   23.181(3)
_cell_angle_alpha                90
_cell_angle_beta                 90
_cell_angle_gamma                90
_cell_volume                     12836.6
loop_
_atom_site_label
_atom_site_type_symbol
_atom_site_fract_x
_atom_site_fract_y
_atom_site_fract_z
_atom_site_U_iso_or_equiv
_atom_site_thermal_displace_type
Ni1 Ni 0.0020(2) -0.25941(16) 0.1391(3) 0.0443 Uani
Au1 Au -0.13516(7) -0.36017(7) 0.2767(3) 0.0694 Uani
Au2 Au 0.13446(8) -0.16087(8) -0.0046(3) 0.0806 Uani
Au3 Au -0.10511(7) -0.40584(7) 0.0168(3) 0.0707 Uani
N1 N -0.0525(11) -0.2901(11) 0.1985(11) 0.0470 Uiso
N2 N 0.0574(13) -0.2310(13) 0.0759(14) 0.0660 Uiso
N3 N -0.0249(11) -0.3267(11) 0.0889(11) 0.0530 Uiso
N4 N 0.0280(13) -0.1924(14) 0.1902(14) 0.0730 Uiso
N5 N 0.0672(12) -0.3049(11) 0.1744(13) 0.0530 Uiso
N6 N -0.0588(13) -0.2144(13) 0.0995(14) 0.0690 Uiso
C1 C -0.0839(16) -0.3162(16) 0.2264(16) 0.0660 Uiso
C2 C 0.0866(14) -0.2091(14) 0.0427(15) 0.0550 Uiso
C3 C -0.0516(16) -0.3590(16) 0.0619(16) 0.0700 Uiso
C4 C 0.0525(15) -0.1600(16) 0.2165(15) 0.0600 Uiso
C5 C 0.1046(16) -0.3233(15) 0.1970(16) 0.0600 Uiso
C6 C -0.0892(16) -0.1839(16) 0.0696(16) 0.0600 Uiso
Au1C Au -0.13983(7) -0.13516(7) 0.0267(3) 0.0694 Uani
Au2B Au 0.16087(8) -0.36554(8) 0.2454(3) 0.0806 Uani
Au3K Au 0.09416(7) -0.10511(7) 0.2668(3) 0.0707 Uani
C4J C -0.1600(16) -0.4475(15) -0.0335(15) 0.0600 Uiso
C5F C 0.1767(15) -0.1046(16) -0.0530(16) 0.0600 Uiso
C6G C -0.1839(16) -0.4108(16) 0.3196(16) 0.0600 Uiso
N7 N 0.0259(12) -0.2804(13) 0.3897(13) 0.0800 Uiso
C7 C 0.0838(13) -0.2679(19) 0.4130(16) 0.0870 Uiso
C8 C 0.1285(18) -0.252(2) 0.3670(17) 0.1170 Uiso
C9 C 0.189(2) -0.240(4) 0.393(3) 0.2200 Uiso
C10 C 0.220(3) -0.222(4) 0.342(4) 0.2600 Uiso
C11 C -0.0120(15) -0.3016(19) 0.4368(16) 0.1040 Uiso
C12 C -0.0770(15) -0.302(2) 0.426(2) 0.1100 Uiso
C13 C -0.100(2) -0.340(2) 0.476(2) 0.1500 Uiso
C14 C -0.159(3) -0.354(4) 0.464(4) 0.2500 Uiso
C15 C 0.004(3) -0.2286(18) 0.360(2) 0.1600 Uiso
C16 C -0.006(3) -0.173(2) 0.394(3) 0.1500 Uiso
C17 C -0.038(3) -0.122(3) 0.363(3) 0.2100 Uiso
C18 C -0.028(3) -0.069(3) 0.391(3) 0.2200 Uiso
C19 C 0.028(2) -0.3279(15) 0.3467(17) 0.1050 Uiso
C20 C 0.050(3) -0.3867(18) 0.367(2) 0.1500 Uiso
C21 C 0.042(4) -0.430(3) 0.315(3) 0.2400 Uiso
C22 C 0.072(3) -0.482(3) 0.327(3) 0.2400 Uiso
H1 H 0.0971(13) -0.3005(19) 0.4332(16) 0.1200 Uiso
H2 H 0.0803(13) -0.2370(19) 0.4391(16) 0.1200 Uiso
H3 H 0.1318(18) -0.282(2) 0.3401(17) 0.1700 Uiso
H4 H 0.1165(18) -0.218(2) 0.3475(17) 0.1700 Uiso
H5 H 0.204(2) -0.273(4) 0.410(3) 0.2700 Uiso
H6 H 0.187(2) -0.210(4) 0.421(3) 0.2700 Uiso
H7 H 0.257(3) -0.214(4) 0.354(4) 0.3200 Uiso
H8 H 0.220(3) -0.251(4) 0.314(4) 0.3200 Uiso
H9 H 0.203(3) -0.189(4) 0.325(4) 0.3200 Uiso
H10 H -0.0005(15) -0.3397(19) 0.4439(16) 0.1600 Uiso
H11 H -0.0047(15) -0.2792(19) 0.4701(16) 0.1600 Uiso
H12 H -0.0923(15) -0.264(2) 0.429(2) 0.1500 Uiso
H13 H -0.0868(15) -0.318(2) 0.390(2) 0.1500 Uiso
H14 H -0.079(2) -0.375(2) 0.478(2) 0.2000 Uiso
H15 H -0.096(2) -0.321(2) 0.512(2) 0.2000 Uiso
H16 H -0.173(3) -0.377(4) 0.494(4) 0.3400 Uiso
H17 H -0.163(3) -0.373(4) 0.428(4) 0.3400 Uiso
H18 H -0.179(3) -0.319(4) 0.462(4) 0.3400 Uiso
H19 H -0.034(3) -0.2377(18) 0.347(2) 0.2400 Uiso
H20 H 0.027(3) -0.2202(18) 0.327(2) 0.2400 Uiso
H21 H -0.027(3) -0.182(2) 0.428(3) 0.2100 Uiso
H22 H 0.031(3) -0.161(2) 0.404(3) 0.2100 Uiso
H23 H -0.077(3) -0.129(3) 0.361(3) 0.2800 Uiso
H24 H -0.023(3) -0.117(3) 0.325(3) 0.2800 Uiso
H25 H -0.045(3) -0.035(3) 0.376(3) 0.2800 Uiso
H26 H -0.043(3) -0.075(3) 0.429(3) 0.2800 Uiso
H27 H 0.012(3) -0.064(3) 0.393(3) 0.2800 Uiso
H28 H -0.010(2) -0.3330(15) 0.3327(17) 0.1500 Uiso
H29 H 0.051(2) -0.3160(15) 0.3160(17) 0.1500 Uiso
H30 H 0.027(3) -0.3985(18) 0.399(2) 0.2300 Uiso
H31 H 0.088(3) -0.3832(18) 0.378(2) 0.2300 Uiso
H32 H 0.003(4) -0.439(3) 0.310(3) 0.3000 Uiso
H33 H 0.057(4) -0.413(3) 0.281(3) 0.3000 Uiso
H34 H 0.068(3) -0.508(3) 0.296(3) 0.2900 Uiso
H35 H 0.057(3) -0.498(3) 0.362(3) 0.2900 Uiso
H36 H 0.111(3) -0.473(3) 0.333(3) 0.2900 Uiso
loop_
_atom_site_aniso_label
_atom_site_aniso_U_11
_atom_site_aniso_U_22
_atom_site_aniso_U_33
_atom_site_aniso_U_23
_atom_site_aniso_U_13
_atom_site_aniso_U_12
Ni1 0.045(2) 0.046(3) 0.042(2) 0.011(2) -0.0110(17) -0.0135(19)
Au1 0.067(1) 0.0786(11) 0.0626(9) 0.024(1) 0.0070(9) -0.0177(8)
Au2 0.0796(12) 0.0952(12) 0.067(1) 0.0294(9) 0.000(1) -0.0321(11)
Au3 0.0769(11) 0.072(1) 0.0632(7) -0.0038(9) -0.0133(9) -0.0294(8)
Au1C 0.0786 0.067 0.0626 0.007 -0.024 0.0177
Au2B 0.0952 0.0796 0.067 0 -0.0294 0.0321
Au3K 0.072 0.0769 0.0632 -0.0133 -0.0038 -0.0294
loop_
_geom_bond_atom_site_label_1
_geom_bond_atom_site_label_2
_geom_bond_site_symmetry_1
_geom_bond_site_symmetry_2
Ni1 N1 1_555 1_555
Au1 C1 1_555 1_555
Au2 C2 1_555 1_555
Au3 C3 1_555 1_555
N1 C1 1_555 1_555
N2 Ni1 1_555 1_555
N3 Ni1 1_555 1_555
N4 Ni1 1_555 1_555
N5 Ni1 1_555 1_555
N6 Ni1 1_555 1_555
N7 C7 1_555 1_555
C2 N2 1_555 1_555
C3 N3 1_555 1_555
C4 N4 1_555 1_555
C5 N5 1_555 1_555
C6 N6 1_555 1_555
C7 C8 1_555 1_555
C8 C9 1_555 1_555
C9 C10 1_555 1_555
C10 H7 1_555 1_555
C11 N7 1_555 1_555
C12 C11 1_555 1_555
C13 C12 1_555 1_555
C14 C13 1_555 1_555
C15 N7 1_555 1_555
C16 C15 1_555 1_555
C17 C16 1_555 1_555
C18 C17 1_555 1_555
C19 N7 1_555 1_555
C20 C19 1_555 1_555
C21 C20 1_555 1_555
C22 C21 1_555 1_555
H1 C7 1_555 1_555
H2 C7 1_555 1_555
H3 C8 1_555 1_555
H4 C8 1_555 1_555
H5 C9 1_555 1_555
H6 C9 1_555 1_555
H8 C10 1_555 1_555
H9 C10 1_555 1_555
H10 C11 1_555 1_555
H11 C11 1_555 1_555
H12 C12 1_555 1_555
H13 C12 1_555 1_555
H14 C13 1_555 1_555
H15 C13 1_555 1_555
H16 C14 1_555 1_555
H17 C14 1_555 1_555
H18 C14 1_555 1_555
H19 C15 1_555 1_555
H20 C15 1_555 1_555
H21 C16 1_555 1_555
H22 C16 1_555 1_555
H23 C17 1_555 1_555
H24 C17 1_555 1_555
H25 C18 1_555 1_555
H26 C18 1_555 1_555
H27 C18 1_555 1_555
H28 C19 1_555 1_555
H29 C19 1_555 1_555
H30 C20 1_555 1_555
H31 C20 1_555 1_555
H32 C21 1_555 1_555
H33 C21 1_555 1_555
H34 C22 1_555 1_555
H35 C22 1_555 1_555
H36 C22 1_555 1_555
Au1C C6 1_555 1_555
Au2B C5 1_555 1_555
Au3K C4 1_555 1_555
C4J Au3 1_555 1_555
C5F Au2 1_555 1_555
C6G Au1 1_555 1_555

#END
