
#######################################################################
#
#                 Cambridge Crystallographic Data Centre
#                                CCDC 
#
#######################################################################
#
# If this CIF has been generated from an entry in the Cambridge 
# Structural Database, then it will include bibliographic, chemical, 
# crystal, experimental, refinement or atomic coordinate data resulting 
# from the CCDC's data processing and validation procedures.
#
#######################################################################

data_UKEBOD
_chemical_formula_moiety         '(C48 H32 Cd1 Cl1 F4 N4 O12 3-)n'
_symmetry_cell_setting           monoclinic
_symmetry_space_group_name_H-M   'C 2/c'
_symmetry_Int_Tables_number      15
_space_group_name_Hall           '-C 2yc'
loop_
_symmetry_equiv_pos_site_id
_symmetry_equiv_pos_as_xyz
1 x,y,z
2 -x,y,1/2-z
3 1/2+x,1/2+y,z
4 1/2-x,1/2+y,1/2-z
5 -x,-y,-z
6 x,-y,1/2+z
7 1/2-x,1/2-y,-z
8 1/2+x,1/2-y,1/2+z
_cell_length_a                   10.941(2)
_cell_length_b                   33.973(7)
_cell_length_c                   14.014(3)
_cell_angle_alpha                90
_cell_angle_beta                 98.89(3)
_cell_angle_gamma                90
_cell_volume                     5146.41
loop_
_atom_site_label
_atom_site_type_symbol
_atom_site_fract_x
_atom_site_fract_y
_atom_site_fract_z
_atom_site_U_iso_or_equiv
_atom_site_thermal_displace_type
Cl1 Cl -0.322(7) 0.4500(12) 0.286(3) 0.0848 Uani
O1 O -0.217(18) 0.469(4) 0.228(11) 0.0772 Uani
O2 O -0.26(3) 0.434(5) 0.377(11) 0.1425 Uani
O3 O -0.376(9) 0.486(7) 0.313(12) 0.1769 Uani
O4 O -0.38(2) 0.419(4) 0.222(13) 0.1209 Uani
Cd1 Cd 0.5000 0.36359(9) 0.7500 0.0323 Uani
O5 O 0.359(3) 0.4148(9) 0.693(2) 0.0550 Uani
O6 O 0.286(4) 0.3558(12) 0.663(4) 0.0938 Uani
O7 O 0.586(4) 0.3710(10) 0.605(3) 0.0649 Uani
O8 O 0.555(3) 0.3104(10) 0.647(2) 0.0605 Uani
C1 C 0.274(5) 0.3928(15) 0.664(4) 0.0633 Uani
C2 C 0.145(4) 0.4104(15) 0.633(4) 0.0689 Uani
C3 C 0.048(9) 0.389(2) 0.596(12) 0.2100 Uani
H1 H 0.0596 0.3619 0.5812 0.2680 Uiso
C4 C -0.071(8) 0.404(3) 0.579(11) 0.2089 Uani
H2 H -0.1407 0.3881 0.5586 0.2560 Uiso
C5 C -0.085(5) 0.444(2) 0.591(6) 0.1118 Uani
C6 C 0.009(5) 0.466(2) 0.627(5) 0.0858 Uani
H3 H -0.0019 0.4935 0.6369 0.0990 Uiso
C7 C 0.126(5) 0.4483(16) 0.651(4) 0.0666 Uani
H4 H 0.1934 0.4638 0.6810 0.0800 Uiso
N1 N 0.705(5) 0.2845(15) 0.226(3) 0.0531 Uani
C8 C -0.301(6) 0.451(2) 0.613(6) 0.0485 Uani
H5 H -0.2880 0.4303 0.6585 0.0600 Uiso
C9 C -0.418(10) 0.466(4) 0.591(8) 0.0608 Uani
H6 H -0.4859 0.4544 0.6153 0.0720 Uiso
C10 C -0.435(6) 0.498(3) 0.532(8) 0.0768 Uani
C11 C -0.333(7) 0.516(3) 0.505(7) 0.0927 Uani
H7 H -0.3403 0.5399 0.4720 0.1080 Uiso
C12 C -0.220(6) 0.498(3) 0.527(7) 0.0859 Uani
H8 H -0.1497 0.5093 0.5064 0.1050 Uiso
C13 C 0.586(4) 0.3353(12) 0.591(3) 0.0461 Uani
C14 C 0.623(4) 0.3216(14) 0.495(3) 0.0525 Uani
C15 C 0.653(5) 0.3483(16) 0.430(4) 0.0623 Uani
H9 H 0.6549 0.3755 0.4457 0.0780 Uiso
C16 C 0.679(6) 0.3363(17) 0.341(4) 0.0758 Uani
H10 H 0.6984 0.3552 0.2951 0.0870 Uiso
C17 C 0.678(6) 0.2981(17) 0.319(3) 0.0768 Uani
C18 C 0.648(8) 0.2693(18) 0.384(4) 0.0988 Uani
H11 H 0.6470 0.2421 0.3681 0.1190 Uiso
C19 C 0.620(7) 0.2817(16) 0.473(4) 0.0885 Uani
H12 H 0.5990 0.2630 0.5186 0.1060 Uiso
C20 C 0.778(8) 0.253(2) 0.220(4) 0.1043 Uani
H13 H 0.8171 0.2403 0.2777 0.1250 Uiso
C21 C 0.795(8) 0.2388(18) 0.133(4) 0.1077 Uani
H14 H 0.8438 0.2160 0.1300 0.1250 Uiso
C22 C 0.742(6) 0.2569(18) 0.048(4) 0.0802 Uani
C23 C 0.685(7) 0.293(2) 0.058(4) 0.1048 Uani
H15 H 0.6595 0.3092 0.0032 0.1250 Uiso
C24 C 0.665(7) 0.305(2) 0.148(4) 0.0981 Uani
H16 H 0.6216 0.3286 0.1538 0.1160 Uiso
N2 N -0.207(5) 0.4641(19) 0.576(5) 0.0902 Uani
O5D O -1.359(3) 0.5852(9) 0.307(2) 0.0550 Uani
O6D O -1.286(4) 0.6442(12) 0.337(4) 0.0938 Uani
C1D C -1.274(5) 0.6072(15) 0.336(4) 0.0633 Uani
C2D C -1.145(4) 0.5896(15) 0.367(4) 0.0689 Uani
C3D C -1.048(9) 0.611(2) 0.404(12) 0.2100 Uani
H1D H -1.0596 0.6381 0.4188 0.2680 Uiso
C4D C -0.929(8) 0.596(3) 0.421(11) 0.2089 Uani
H2D H -0.8593 0.6119 0.4414 0.2560 Uiso
C5D C -0.915(5) 0.556(2) 0.409(6) 0.1118 Uani
C6D C -1.009(5) 0.534(2) 0.373(5) 0.0858 Uani
H3D H -0.9981 0.5065 0.3631 0.0990 Uiso
C7D C -1.126(5) 0.5517(16) 0.349(4) 0.0666 Uani
H4D H -1.1934 0.5362 0.3190 0.0800 Uiso
C8D C -0.699(6) 0.549(2) 0.387(6) 0.0485 Uani
H5D H -0.7120 0.5697 0.3415 0.0600 Uiso
C9D C -0.582(10) 0.534(4) 0.409(8) 0.0608 Uani
H6D H -0.5141 0.5456 0.3847 0.0720 Uiso
C10D C -0.565(6) 0.502(3) 0.468(8) 0.0768 Uani
C11D C -0.667(7) 0.484(3) 0.495(7) 0.0927 Uani
H7D H -0.6597 0.4601 0.5280 0.1080 Uiso
C12D C -0.780(6) 0.502(3) 0.473(7) 0.0859 Uani
H8D H -0.8503 0.4907 0.4936 0.1050 Uiso
N2D N -0.793(5) 0.5359(19) 0.424(5) 0.0902 Uani
O7F O 0.914(4) 0.1290(10) -0.605(3) 0.0649 Uani
O8F O 0.945(3) 0.1896(10) -0.647(2) 0.0605 Uani
N1F N 0.795(5) 0.2155(15) -0.226(3) 0.0531 Uani
C13F C 0.914(4) 0.1647(12) -0.591(3) 0.0461 Uani
C14F C 0.877(4) 0.1784(14) -0.495(3) 0.0525 Uani
C15F C 0.847(5) 0.1517(16) -0.430(4) 0.0623 Uani
H9F H 0.8451 0.1245 -0.4457 0.0780 Uiso
C16F C 0.821(6) 0.1637(17) -0.341(4) 0.0758 Uani
H10F H 0.8016 0.1448 -0.2951 0.0870 Uiso
C17F C 0.822(6) 0.2019(17) -0.319(3) 0.0768 Uani
C18F C 0.852(8) 0.2307(18) -0.384(4) 0.0988 Uani
H11F H 0.8530 0.2579 -0.3681 0.1190 Uiso
C19F C 0.880(7) 0.2183(16) -0.473(4) 0.0885 Uani
H12F H 0.9010 0.2370 -0.5186 0.1060 Uiso
C20F C 0.722(8) 0.247(2) -0.220(4) 0.1043 Uani
H13F H 0.6829 0.2597 -0.2777 0.1250 Uiso
C21F C 0.705(8) 0.2612(18) -0.133(4) 0.1077 Uani
H14F H 0.6562 0.2840 -0.1300 0.1250 Uiso
C22F C 0.758(6) 0.2431(18) -0.048(4) 0.0802 Uani
C23F C 0.815(7) 0.207(2) -0.058(4) 0.1048 Uani
H15F H 0.8405 0.1908 -0.0032 0.1250 Uiso
C24F C 0.835(7) 0.195(2) -0.148(4) 0.0981 Uani
H16F H 0.8784 0.1714 -0.1538 0.1160 Uiso
Cd1D Cd -1.5000 0.63641(9) 0.2500 0.0323 Uani
Cd1F Cd 1.0000 0.13641(9) -0.7500 0.0323 Uani
O5A O 0.641(3) 0.4148(9) 0.807(2) 0.0550 Uani
O6A O 0.714(4) 0.3558(12) 0.837(4) 0.0938 Uani
O7A O 0.414(4) 0.3710(10) 0.895(3) 0.0649 Uani
O8A O 0.445(3) 0.3104(10) 0.853(2) 0.0605 Uani
F1 F 0.614(13) 0.188(4) 0.264(14) 0.1196 Uani
F2 F -0.363(18) 0.391(5) 0.050(11) 0.0688 Uani
F3 F 0.0000 0.337(10) 0.2500 0.2978 Uani
F4 F 0.003(16) 0.322(6) 0.38(2) 0.1133 Uani
loop_
_atom_site_aniso_label
_atom_site_aniso_U_11
_atom_site_aniso_U_22
_atom_site_aniso_U_33
_atom_site_aniso_U_23
_atom_site_aniso_U_13
_atom_site_aniso_U_12
Cl1 0.16(5) 0.040(19) 0.04(2) 0.010(16) -0.03(3) -0.03(3)
O1 0.13(15) 0.03(6) 0.07(9) 0.00(6) 0.01(9) -0.02(7)
O2 0.3(3) 0.05(8) 0.05(8) 0.02(7) -0.06(12) -0.02(12)
O3 0.28(7) 0.15(7) 0.13(7) 0.066(7) 0.124(13) 0.105(7)
O4 0.2(2) 0.06(8) 0.08(11) 0.02(8) -0.05(11) -0.06(10)
Cd1 0.032(2) 0.035(2) 0.030(2) 0.000 0.0052(12) 0.000
O5 0.038(15) 0.072(19) 0.054(16) 0.016(14) 0.004(12) 0.010(13)
O6 0.08(3) 0.06(2) 0.13(4) 0.01(2) -0.02(3) 0.021(19)
O7 0.09(3) 0.056(17) 0.054(19) -0.012(15) 0.028(18) 0.001(17)
O8 0.07(2) 0.063(18) 0.050(16) -0.008(14) 0.014(14) 0.001(15)
C1 0.05(3) 0.07(3) 0.07(3) 0.03(2) 0.01(2) 0.02(2)
C2 0.05(2) 0.06(3) 0.09(4) 0.03(3) -0.01(2) 0.01(2)
C3 0.11(7) 0.06(4) 0.4(2) 0.02(7) -0.15(10) 0.00(4)
C4 0.08(5) 0.10(6) 0.4(2) 0.09(9) -0.11(9) -0.03(4)
C5 0.05(3) 0.11(5) 0.17(7) 0.10(5) 0.00(3) 0.00(3)
C6 0.06(3) 0.11(4) 0.09(4) 0.04(3) 0.02(3) 0.03(3)
C7 0.05(2) 0.08(3) 0.07(3) 0.03(3) 0.01(2) 0.01(2)
N1 0.08(4) 0.06(3) 0.02(2) -0.008(19) 0.01(2) 0.04(3)
C8 0.05(3) 0.04(3) 0.05(4) 0.01(3) -0.01(3) 0.00(3)
C9 0.04(4) 0.08(6) 0.06(7) 0.05(6) 0.00(4) -0.01(4)
C10 0.04(3) 0.09(6) 0.10(7) 0.06(6) 0.01(4) 0.01(4)
C11 0.06(4) 0.10(6) 0.12(7) 0.07(6) 0.02(4) 0.01(4)
C12 0.04(4) 0.09(5) 0.13(7) 0.07(5) 0.02(4) 0.01(3)
C13 0.05(2) 0.05(2) 0.038(19) -0.014(17) 0.006(16) 0.004(17)
C14 0.06(3) 0.06(2) 0.037(19) -0.010(18) 0.006(18) 0.01(2)
C15 0.08(3) 0.06(3) 0.05(2) -0.01(2) 0.02(2) 0.00(2)
C16 0.09(4) 0.08(3) 0.06(3) -0.01(2) 0.02(3) 0.00(3)
C17 0.10(4) 0.09(4) 0.04(2) -0.01(2) 0.01(2) 0.05(3)
C18 0.18(8) 0.06(3) 0.06(3) -0.01(3) 0.03(4) 0.04(4)
C19 0.16(6) 0.06(3) 0.05(3) 0.00(2) 0.03(3) 0.04(3)
C20 0.17(7) 0.09(4) 0.06(3) 0.01(3) 0.04(4) 0.08(5)
C21 0.18(7) 0.09(4) 0.06(3) 0.01(3) 0.04(4) 0.08(5)
C22 0.10(4) 0.09(4) 0.05(3) 0.00(3) 0.01(3) 0.05(3)
C23 0.14(6) 0.13(5) 0.04(3) -0.01(3) 0.00(3) 0.09(5)
C24 0.13(6) 0.11(5) 0.05(3) -0.01(3) 0.00(3) 0.07(4)
N2 0.06(3) 0.11(4) 0.10(4) 0.06(4) 0.01(3) 0.01(3)
O5D 0.038 0.072 0.054 0.016 0.004 0.01
O6D 0.08 0.06 0.13 0.01 -0.02 0.021
C1D 0.05 0.07 0.07 0.03 0.01 0.02
C2D 0.05 0.06 0.09 0.03 -0.01 0.01
C3D 0.11 0.06 0.4 0.02 -0.15 0
C4D 0.08 0.1 0.4 0.09 -0.11 -0.03
C5D 0.05 0.11 0.17 0.1 0 0
C6D 0.06 0.11 0.09 0.04 0.02 0.03
C7D 0.05 0.08 0.07 0.03 0.01 0.01
C8D 0.05 0.04 0.05 0.01 -0.01 0
C9D 0.04 0.08 0.06 0.05 0 -0.01
C10D 0.04 0.09 0.1 0.06 0.01 0.01
C11D 0.06 0.1 0.12 0.07 0.02 0.01
C12D 0.04 0.09 0.13 0.07 0.02 0.01
N2D 0.06 0.11 0.1 0.06 0.01 0.01
O7F 0.09 0.056 0.054 -0.012 0.028 0.001
O8F 0.07 0.063 0.05 -0.008 0.014 0.001
N1F 0.08 0.06 0.02 -0.008 0.01 0.04
C13F 0.05 0.05 0.038 -0.014 0.006 0.004
C14F 0.06 0.06 0.037 -0.01 0.006 0.01
C15F 0.08 0.06 0.05 -0.01 0.02 0
C16F 0.09 0.08 0.06 -0.01 0.02 0
C17F 0.1 0.09 0.04 -0.01 0.01 0.05
C18F 0.18 0.06 0.06 -0.01 0.03 0.04
C19F 0.16 0.06 0.05 0 0.03 0.04
C20F 0.17 0.09 0.06 0.01 0.04 0.08
C21F 0.18 0.09 0.06 0.01 0.04 0.08
C22F 0.1 0.09 0.05 0 0.01 0.05
C23F 0.14 0.13 0.04 -0.01 0 0.09
C24F 0.13 0.11 0.05 -0.01 0 0.07
Cd1D 0.032 0.035 0.03 0 0.0052 0
Cd1F 0.032 0.035 0.03 0 0.0052 0
O5A 0.038 0.072 0.054 -0.016 0.004 -0.01
O6A 0.08 0.06 0.13 -0.01 -0.02 -0.021
O7A 0.09 0.056 0.054 0.012 0.028 -0.001
O8A 0.07 0.063 0.05 0.008 0.014 -0.001
F1 0.09(10) 0.08(8) 0.21(17) -0.11(10) 0.09(11) -0.04(7)
F2 0.09(13) 0.07(10) 0.04(7) 0.03(7) -0.01(8) -0.03(9)
F3 0.04(8) 0.14(8) 0.71(8) 0.000 0.047(14) 0.000
F4 0.06(10) 0.08(12) 0.2(3) -0.03(14) 0.02(13) 0.03(9)
loop_
_geom_bond_atom_site_label_1
_geom_bond_atom_site_label_2
_geom_bond_site_symmetry_1
_geom_bond_site_symmetry_2
Cl1 O1 1_555 1_555
O2 Cl1 1_555 1_555
O3 Cl1 1_555 1_555
O4 Cl1 1_555 1_555
Cd1 O5 1_555 1_555
O5 C1 1_555 1_555
O6 Cd1 1_555 1_555
O7 Cd1 1_555 1_555
O8 Cd1 1_555 1_555
C1 O6 1_555 1_555
C2 C1 1_555 1_555
C3 C2 1_555 1_555
H1 C3 1_555 1_555
C4 C3 1_555 1_555
H2 C4 1_555 1_555
C5 C4 1_555 1_555
C6 C5 1_555 1_555
H3 C6 1_555 1_555
C7 C2 1_555 1_555
H4 C7 1_555 1_555
N1 C17 1_555 1_555
C8 H5 1_555 1_555
C9 C8 1_555 1_555
H6 C9 1_555 1_555
C10 C9 1_555 1_555
C11 C10 1_555 1_555
H7 C11 1_555 1_555
C12 C11 1_555 1_555
H8 C12 1_555 1_555
C13 O7 1_555 1_555
C14 C13 1_555 1_555
C15 C14 1_555 1_555
H9 C15 1_555 1_555
C16 C15 1_555 1_555
H10 C16 1_555 1_555
C17 C16 1_555 1_555
C18 C17 1_555 1_555
H11 C18 1_555 1_555
C19 C14 1_555 1_555
H12 C19 1_555 1_555
C20 N1 1_555 1_555
H13 C20 1_555 1_555
C21 C20 1_555 1_555
H14 C21 1_555 1_555
C22 C21 1_555 1_555
C23 C22 1_555 1_555
H15 C23 1_555 1_555
C24 N1 1_555 1_555
H16 C24 1_555 1_555
N2 C5 1_555 1_555
O5D C1D 1_555 1_555
O6D C1D 1_555 1_555
C1D C2D 1_555 1_555
C2D C3D 1_555 1_555
C3D H1D 1_555 1_555
C4D C3D 1_555 1_555
H2D C4D 1_555 1_555
C5D C4D 1_555 1_555
C6D C5D 1_555 1_555
H3D C6D 1_555 1_555
C7D C2D 1_555 1_555
H4D C7D 1_555 1_555
C8D H5D 1_555 1_555
C9D C8D 1_555 1_555
H6D C9D 1_555 1_555
C10D C10 1_555 1_555
C11D C10D 1_555 1_555
H7D C11D 1_555 1_555
C12D C11D 1_555 1_555
H8D C12D 1_555 1_555
N2D C5D 1_555 1_555
O7F C13F 1_555 1_555
O8F C13F 1_555 1_555
N1F C17F 1_555 1_555
C13F C14F 1_555 1_555
C14F C15F 1_555 1_555
C15F H9F 1_555 1_555
C16F C15F 1_555 1_555
H10F C16F 1_555 1_555
C17F C16F 1_555 1_555
C18F C17F 1_555 1_555
H11F C18F 1_555 1_555
C19F C14F 1_555 1_555
H12F C19F 1_555 1_555
C20F N1F 1_555 1_555
H13F C20F 1_555 1_555
C21F C20F 1_555 1_555
H14F C21F 1_555 1_555
C22F C22 1_555 1_555
C23F C22F 1_555 1_555
H15F C23F 1_555 1_555
C24F N1F 1_555 1_555
H16F C24F 1_555 1_555
Cd1D O5D 1_555 1_555
Cd1F O7F 1_555 1_555
O5A Cd1 1_555 1_555
O6A Cd1 1_555 1_555
O7A Cd1 1_555 1_555
O8A Cd1 1_555 1_555
O8 C13 1_555 1_555
C6 C7 1_555 1_555
C8 N2 1_555 1_555
C12 N2 1_555 1_555
C18 C19 1_555 1_555
C23 C24 1_555 1_555
O6D Cd1D 1_555 1_555
C6D C7D 1_555 1_555
C8D N2D 1_555 1_555
C9D C10D 1_555 1_555
C12D N2D 1_555 1_555
O8F Cd1F 1_555 1_555
C18F C19F 1_555 1_555
C21F C22F 1_555 1_555
C23F C24F 1_555 1_555

#END
