
#######################################################################
#
#                 Cambridge Crystallographic Data Centre
#                                CCDC 
#
#######################################################################
#
# If this CIF has been generated from an entry in the Cambridge 
# Structural Database, then it will include bibliographic, chemical, 
# crystal, experimental, refinement or atomic coordinate data resulting 
# from the CCDC's data processing and validation procedures.
#
#######################################################################

data_AVESUR
_chemical_formula_moiety         '(C29 H23 Cd2 N2 O12)n'
_symmetry_cell_setting           orthorhombic
_symmetry_space_group_name_H-M   'P c c n'
_symmetry_Int_Tables_number      56
_space_group_name_Hall           '-P 2ab 2ac'
loop_
_symmetry_equiv_pos_site_id
_symmetry_equiv_pos_as_xyz
1 x,y,z
2 1/2-x,1/2-y,z
3 -x,1/2+y,1/2-z
4 1/2+x,-y,1/2-z
5 -x,-y,-z
6 1/2+x,1/2+y,-z
7 x,1/2-y,1/2+z
8 1/2-x,y,1/2+z
_cell_length_a                   29.218(3)
_cell_length_b                   11.1912(11)
_cell_length_c                   22.9833(17)
_cell_angle_alpha                90
_cell_angle_beta                 90
_cell_angle_gamma                90
_cell_volume                     7515.18
loop_
_atom_site_label
_atom_site_type_symbol
_atom_site_fract_x
_atom_site_fract_y
_atom_site_fract_z
_atom_site_U_iso_or_equiv
_atom_site_thermal_displace_type
Cd1 Cd 0.11480(2) 0.54311(7) 0.19135(3) 0.0321 Uani
Cd2 Cd 0.06184(2) 0.75361(7) 0.09348(3) 0.0357 Uani
N1 N 0.1537(7) 0.1792(19) 0.1428(8) 0.1420 Uani
N2 N 0.010(4) 1.080(12) 0.114(3) 0.1167 Uani
O1 O 0.1089(2) 0.5789(7) 0.0921(3) 0.0387 Uani
O2 O 0.1790(2) 0.5480(6) 0.1199(3) 0.0437 Uani
O3 O 0.3245(2) 0.5355(7) -0.2376(3) 0.0423 Uani
O4 O 0.3953(2) 0.5362(7) -0.2083(3) 0.0453 Uani
O5 O 0.3730(2) 0.6561(7) 0.0588(3) 0.0440 Uani
O6 O 0.4252(2) 0.6965(7) -0.0049(3) 0.0450 Uani
O7 O -0.0373(2) 0.4468(8) -0.1874(3) 0.0560 Uani
O8 O -0.0081(2) 0.3764(7) -0.1039(3) 0.0517 Uani
O9 O 0.1226(2) 0.7537(6) -0.2902(3) 0.0403 Uani
O10 O 0.0598(2) 0.6640(8) -0.3202(3) 0.0527 Uani
O11 O 0.1154(4) 0.3349(10) 0.1779(4) 0.0857 Uani
O12 O 0.0026(4) 0.8985(11) 0.0790(6) 0.0933 Uani
C1 C 0.1514(3) 0.5653(9) 0.0812(4) 0.0320 Uani
C2 C 0.1664(3) 0.5699(8) 0.0181(4) 0.0280 Uani
C3 C 0.2119(3) 0.5724(8) 0.0048(4) 0.0290 Uani
H1 H 0.2336 0.5692 0.0343 0.0350 Uiso
C4 C 0.2259(3) 0.5797(8) -0.0532(3) 0.0250 Uani
C5 C 0.1928(3) 0.5824(8) -0.0961(3) 0.0273 Uani
H2 H 0.2020 0.5889 -0.1347 0.0330 Uiso
C6 C 0.1466(3) 0.5757(8) -0.0838(3) 0.0253 Uani
C7 C 0.1335(3) 0.5702(8) -0.0254(4) 0.0300 Uani
H3 H 0.1026 0.5666 -0.0156 0.0360 Uiso
C8 C 0.3533(3) 0.5426(9) -0.1988(4) 0.0367 Uani
C9 C 0.3856(3) 0.6593(10) 0.0079(4) 0.0380 Uani
C10 C 0.3379(3) 0.5683(8) -0.1380(4) 0.0300 Uani
C11 C 0.3686(3) 0.5966(9) -0.0956(4) 0.0330 Uani
H4 H 0.3997 0.5981 -0.1042 0.0400 Uiso
C12 C 0.3535(3) 0.6239(8) -0.0383(4) 0.0270 Uani
C13 C 0.3084(3) 0.6143(8) -0.0265(3) 0.0267 Uani
H5 H 0.2988 0.6272 0.0116 0.0320 Uiso
C14 C 0.2759(3) 0.5865(8) -0.0678(4) 0.0243 Uani
C15 C 0.2916(3) 0.5584(8) -0.1237(3) 0.0267 Uani
H6 H 0.2709 0.5328 -0.1518 0.0320 Uiso
C16 C -0.0064(3) 0.4382(10) -0.1516(4) 0.0417 Uani
C17 C 0.0891(3) 0.6866(10) -0.2823(4) 0.0400 Uani
C18 C 0.0375(3) 0.5059(10) -0.1625(4) 0.0367 Uani
C19 C 0.0432(3) 0.5609(9) -0.2142(4) 0.0370 Uani
H7 H 0.0205 0.5564 -0.2424 0.0440 Uiso
C20 C 0.0832(3) 0.6243(9) -0.2252(3) 0.0290 Uani
C21 C 0.1163(3) 0.6306(8) -0.1823(3) 0.0270 Uani
H8 H 0.1428 0.6746 -0.1894 0.0320 Uiso
C22 C 0.1114(3) 0.5740(8) -0.1295(3) 0.0270 Uani
C23 C 0.0711(3) 0.5107(8) -0.1200(4) 0.0287 Uani
H9 H 0.0666 0.4713 -0.0848 0.0350 Uiso
C24 C 0.1466(7) 0.2958(19) 0.1472(8) 0.1003 Uani
H10 H 0.1654 0.3485 0.1269 0.1200 Uiso
C25 C 0.1300(10) 0.091(3) 0.1794(12) 0.2000 Uani
H11 H 0.1153 0.1307 0.2113 0.3010 Uiso
H12 H 0.1519 0.0343 0.1942 0.3010 Uiso
H13 H 0.1075 0.0496 0.1566 0.3010 Uiso
C26 C 0.1887(10) 0.128(3) 0.1037(11) 0.2000 Uani
H14 H 0.1768 0.1240 0.0649 0.3020 Uiso
H15 H 0.1966 0.0493 0.1168 0.3020 Uiso
H16 H 0.2155 0.1779 0.1042 0.3020 Uiso
C27 C -0.0070(12) 0.969(4) 0.1188(16) 0.0933 Uani
H17 H -0.0249 0.9461 0.1504 0.1150 Uiso
C28 C 0.0369(17) 1.121(5) 0.0640(18) 0.1267 Uani
H18 H 0.0396 1.0574 0.0362 0.1900 Uiso
H19 H 0.0668 1.1441 0.0771 0.1900 Uiso
H20 H 0.0221 1.1882 0.0461 0.1900 Uiso
C29 C -0.0005(17) 1.167(4) 0.161(2) 0.1267 Uani
H21 H -0.0176 1.1285 0.1910 0.1850 Uiso
H22 H -0.0182 1.2318 0.1449 0.1850 Uiso
H23 H 0.0277 1.1975 0.1762 0.1850 Uiso
Cd1D Cd -0.11480(2) 0.45689(7) -0.19135(3) 0.0321 Uani
Cd1F Cd 0.11480(2) 0.95689(7) -0.30865(3) 0.0321 Uani
Cd1G Cd 0.38520(2) 0.54311(7) -0.30865(3) 0.0321 Uani
Cd2A Cd 0.43816(2) 0.74639(7) 0.09348(3) 0.0357 Uani
Cd2D Cd -0.06184(2) 0.24639(7) -0.09348(3) 0.0357 Uani
Cd2F Cd 0.06184(2) 0.74639(7) -0.40652(3) 0.0357 Uani
O3G O 0.1755(2) 0.5355(7) 0.2624(3) 0.0423 Uani
O4G O 0.1047(2) 0.5362(7) 0.2917(3) 0.0453 Uani
O5A O 0.1270(2) 0.8439(7) 0.0588(3) 0.0440 Uani
O6A O 0.0748(2) 0.8035(7) -0.0049(3) 0.0450 Uani
O7D O 0.0373(2) 0.5532(8) 0.1874(3) 0.0560 Uani
O8D O 0.0081(2) 0.6236(7) 0.1039(3) 0.0517 Uani
O9F O 0.1226(2) 0.7463(6) 0.2098(3) 0.0403 Uani
O10F O 0.0598(2) 0.8360(8) 0.1798(3) 0.0527 Uani
loop_
_atom_site_aniso_label
_atom_site_aniso_U_11
_atom_site_aniso_U_22
_atom_site_aniso_U_33
_atom_site_aniso_U_23
_atom_site_aniso_U_13
_atom_site_aniso_U_12
Cd1 0.0247(4) 0.0544(5) 0.0172(3) -0.0021(3) -0.0016(3) -0.0074(3)
Cd2 0.0268(4) 0.0590(5) 0.0213(4) -0.0024(3) 0.0048(3) -0.0127(3)
N1 0.175(18) 0.112(15) 0.139(15) -0.004(13) 0.048(13) 0.004(14)
N2 0.11(4) 0.13(6) 0.11(5) -0.01(5) 0.00(4) 0.00(3)
O1 0.031(3) 0.062(5) 0.023(3) -0.002(3) 0.008(3) -0.009(3)
O2 0.041(4) 0.070(5) 0.020(3) -0.003(3) 0.001(3) -0.005(4)
O3 0.036 0.071 0.02 -0.01 0.004 -0.007
O4 0.033 0.072 0.031 -0.005 0.009 0.013
O5 0.037 0.073 0.022 -0.001 -0.003 -0.009
O6 0.028 0.072 0.035 -0.006 -0.002 -0.014
O7 0.033 0.104 0.031 0.005 -0.003 -0.017
O8 0.028 0.091 0.036 0.012 -0.001 -0.029
O9 0.028 0.057 0.036 0.012 0.003 0.004
O10 0.047 0.082 0.029 0.01 -0.003 -0.007
O11 0.102(8) 0.084(7) 0.071(6) -0.007(6) 0.012(6) -0.016(6)
O12 0.087(8) 0.105(9) 0.088(8) -0.002(9) -0.001(6) 0.022(8)
C1 0.030(5) 0.047(6) 0.019(5) -0.001(4) -0.003(4) -0.011(4)
C2 0.021(4) 0.037(5) 0.026(5) -0.001(4) 0.003(4) -0.009(4)
C3 0.026(4) 0.040(6) 0.021(4) 0.000(4) -0.001(4) -0.001(4)
C4 0.018(4) 0.039(6) 0.018(4) -0.005(4) 0.000(3) -0.008(4)
C5 0.027(4) 0.044(6) 0.011(4) -0.005(4) 0.002(3) -0.006(4)
C6 0.019(4) 0.038(5) 0.019(4) 0.002(4) 0.003(3) -0.009(4)
C7 0.021(4) 0.047(6) 0.022(4) 0.000(4) 0.003(4) -0.012(4)
C8 0.03 0.057 0.023 -0.003 0.009 -0.004
C9 0.031 0.055 0.028 0 -0.005 -0.01
C10 0.024 0.044 0.022 -0.002 -0.001 -0.005
C11 0.022 0.05 0.027 0.001 0.006 -0.005
C12 0.016 0.038 0.027 0.001 0.003 0
C13 0.025 0.042 0.013 -0.004 -0.001 -0.006
C14 0.021 0.032 0.02 -0.003 0.005 -0.008
C15 0.025 0.041 0.014 -0.003 0.002 -0.006
C16 0.029 0.078 0.018 -0.001 -0.001 -0.015
C17 0.031 0.064 0.025 0.009 0.006 0.008
C18 0.024(5) 0.058(7) 0.028(5) 0.000(5) 0.004(4) -0.003(5)
C19 0.028(5) 0.062(7) 0.021(5) 0.006(5) 0.000(4) -0.004(5)
C20 0.024(4) 0.045(6) 0.018(4) -0.003(4) -0.003(4) 0.003(4)
C21 0.016(4) 0.043(5) 0.022(4) 0.006(4) -0.001(3) -0.014(4)
C22 0.020(4) 0.046(6) 0.015(4) 0.003(4) 0.002(3) -0.007(4)
C23 0.024(4) 0.045(6) 0.017(4) 0.004(4) 0.003(4) -0.014(4)
C24 0.116(15) 0.091(14) 0.094(13) 0.000(11) 0.013(11) -0.009(12)
C25 0.21(3) 0.17(3) 0.22(3) 0.01(2) 0.08(2) -0.02(2)
C26 0.23(3) 0.16(3) 0.21(3) -0.02(2) 0.05(3) 0.01(2)
C27 0.09(2) 0.10(3) 0.09(3) 0.00(2) 0.003(19) 0.00(2)
C28 0.12(3) 0.13(4) 0.13(4) 0.02(3) 0.03(3) -0.03(3)
C29 0.12(4) 0.12(4) 0.14(3) -0.05(3) 0.01(3) 0.01(3)
Cd1D 0.0247 0.0544 0.0172 -0.0021 -0.0016 -0.0074
Cd1F 0.0247 0.0544 0.0172 0.0021 -0.0016 0.0074
Cd1G 0.0247 0.0544 0.0172 -0.0021 0.0016 0.0074
Cd2A 0.0268 0.059 0.0213 0.0024 -0.0048 -0.0127
Cd2D 0.0268 0.059 0.0213 -0.0024 0.0048 -0.0127
Cd2F 0.0268 0.059 0.0213 0.0024 0.0048 0.0127
O3G 0.036 0.071 0.02 -0.01 -0.004 0.007
O4G 0.033 0.072 0.031 -0.005 -0.009 -0.013
O5A 0.037 0.073 0.022 0.001 0.003 -0.009
O6A 0.028 0.072 0.035 0.006 0.002 -0.014
O7D 0.033 0.104 0.031 0.005 -0.003 -0.017
O8D 0.028 0.091 0.036 0.012 -0.001 -0.029
O9F 0.028 0.057 0.036 -0.012 0.003 -0.004
O10F 0.047 0.082 0.029 -0.01 -0.003 0.007
loop_
_geom_bond_atom_site_label_1
_geom_bond_atom_site_label_2
_geom_bond_site_symmetry_1
_geom_bond_site_symmetry_2
Cd1 O1 1_555 1_555
Cd2 O1 1_555 1_555
N1 C24 1_555 1_555
N2 C27 1_555 1_555
O1 C1 1_555 1_555
O2 Cd1 1_555 1_555
O3 C8 1_555 1_555
O4 C8 1_555 1_555
O5 C9 1_555 1_555
O6 C9 1_555 1_555
O7 C16 1_555 1_555
O8 C16 1_555 1_555
O9 C17 1_555 1_555
O10 C17 1_555 1_555
O11 Cd1 1_555 1_555
O12 Cd2 1_555 1_555
C1 O2 1_555 1_555
C2 C1 1_555 1_555
C3 C2 1_555 1_555
H1 C3 1_555 1_555
C4 C3 1_555 1_555
C5 C4 1_555 1_555
H2 C5 1_555 1_555
C6 C5 1_555 1_555
C7 C2 1_555 1_555
H3 C7 1_555 1_555
C8 C10 1_555 1_555
C9 C12 1_555 1_555
C10 C11 1_555 1_555
C11 H4 1_555 1_555
C12 C11 1_555 1_555
C13 C12 1_555 1_555
H5 C13 1_555 1_555
C14 C4 1_555 1_555
C15 C10 1_555 1_555
H6 C15 1_555 1_555
C16 C18 1_555 1_555
C17 C20 1_555 1_555
C18 C19 1_555 1_555
C19 H7 1_555 1_555
C20 C19 1_555 1_555
C21 C20 1_555 1_555
H8 C21 1_555 1_555
C22 C6 1_555 1_555
C23 C18 1_555 1_555
H9 C23 1_555 1_555
C24 O11 1_555 1_555
H10 C24 1_555 1_555
C25 N1 1_555 1_555
H11 C25 1_555 1_555
H12 C25 1_555 1_555
H13 C25 1_555 1_555
C26 N1 1_555 1_555
H14 C26 1_555 1_555
H15 C26 1_555 1_555
H16 C26 1_555 1_555
C27 O12 1_555 1_555
H17 C27 1_555 1_555
C28 N2 1_555 1_555
H18 C28 1_555 1_555
H19 C28 1_555 1_555
H20 C28 1_555 1_555
C29 N2 1_555 1_555
H21 C29 1_555 1_555
H22 C29 1_555 1_555
H23 C29 1_555 1_555
Cd1D O7 1_555 1_555
Cd1F O9 1_555 1_555
Cd1G O3 1_555 1_555
Cd2A O5 1_555 1_555
Cd2D O8 1_555 1_555
Cd2F O10 1_555 1_555
O3G Cd1 1_555 1_555
O4G Cd1 1_555 1_555
O5A Cd2 1_555 1_555
O6A Cd2 1_555 1_555
O7D Cd1 1_555 1_555
O8D Cd2 1_555 1_555
O9F Cd1 1_555 1_555
O10F Cd2 1_555 1_555
O4 Cd1G 1_555 1_555
O6 Cd2A 1_555 1_555
C6 C7 1_555 1_555
C13 C14 1_555 1_555
C14 C15 1_555 1_555
C21 C22 1_555 1_555
C22 C23 1_555 1_555

#END
