
#######################################################################
#
#                 Cambridge Crystallographic Data Centre
#                                CCDC 
#
#######################################################################
#
# If this CIF has been generated from an entry in the Cambridge 
# Structural Database, then it will include bibliographic, chemical, 
# crystal, experimental, refinement or atomic coordinate data resulting 
# from the CCDC's data processing and validation procedures.
#
#######################################################################

data_AVETAY
_chemical_formula_moiety         '(C50 H26 N1 O24 Zn3 3-)n'
_symmetry_cell_setting           tetragonal
_symmetry_space_group_name_H-M   'I -4 2 d'
_symmetry_Int_Tables_number      122
_space_group_name_Hall           'I -4 2bw'
loop_
_symmetry_equiv_pos_site_id
_symmetry_equiv_pos_as_xyz
1 x,y,z
2 -x,-y,z
3 y,-x,-z
4 -y,x,-z
5 1/2-x,y,3/4-z
6 1/2+x,-y,3/4-z
7 1/2-y,-x,3/4+z
8 1/2+y,x,3/4+z
9 1/2+x,1/2+y,1/2+z
10 1/2-x,1/2-y,1/2+z
11 1/2+y,1/2-x,1/2-z
12 1/2-y,1/2+x,1/2-z
13 -x,1/2+y,1/4-z
14 x,1/2-y,1/4-z
15 -y,1/2-x,1/4+z
16 y,1/2+x,1/4+z
_cell_length_a                   28.166(3)
_cell_length_b                   28.166(3)
_cell_length_c                   9.7199(9)
_cell_angle_alpha                90
_cell_angle_beta                 90
_cell_angle_gamma                90
_cell_volume                     7711.03
loop_
_atom_site_label
_atom_site_type_symbol
_atom_site_fract_x
_atom_site_fract_y
_atom_site_fract_z
Zn1 Zn -0.0000 0.5000 0.7500
Zn2 Zn 0.12032(3) 0.2500 0.1250
O1 O -0.01411(14) 0.43865(13) 0.6638(5)
O2 O 0.04323(19) 0.44520(17) 0.5104(6)
O3 O 0.09461(15) 0.30062(15) 0.2538(5)
O4 O 0.0575(2) 0.23396(17) 0.2848(6)
O5 O -0.20542(14) 0.33712(15) 0.4782(5)
O6 O -0.25602(16) 0.28615(18) 0.5627(7)
C1 C 0.01261(19) 0.4227(2) 0.5726(6)
C2 C 0.0626(2) 0.2763(2) 0.3111(7)
C3 C 0.0056(2) 0.37093(18) 0.5317(6)
C4 C 0.03594(19) 0.3492(2) 0.4465(7)
H1 H 0.0615 0.3661 0.4107
C5 C 0.02989(19) 0.3011(2) 0.4102(7)
C6 C -0.00760(19) 0.27617(18) 0.4665(6)
H2 H -0.0107 0.2439 0.4486
C7 C -0.04076(19) 0.29871(19) 0.5493(6)
C8 C -0.03431(19) 0.34574(19) 0.5838(6)
H3 H -0.0560 0.3609 0.6410
C9 C -0.2136(2) 0.3002(2) 0.5432(7)
C10 C -0.17137(18) 0.27305(19) 0.5920(6)
C11 C -0.12822(18) 0.29283(18) 0.5641(6)
H4 H -0.1278 0.3222 0.5202
C12 C -0.08473(19) 0.27221(18) 0.5965(6)
O1M O -0.01411(14) 0.06135(13) 0.5862(5)
O2M O 0.04323(19) 0.05480(17) 0.7396(6)
O3M O 0.09461(15) 0.19938(15) 0.9962(5)
O4M O 0.0575(2) 0.26604(17) 0.9652(6)
O5M O -0.20542(14) 0.16288(15) 0.7718(5)
O6M O -0.25602(16) 0.21385(18) 0.6873(7)
C1M C 0.01261(19) 0.0773(2) 0.6774(6)
C2M C 0.0626(2) 0.2237(2) 0.9389(7)
C3M C 0.0056(2) 0.12907(18) 0.7183(6)
C4M C 0.03594(19) 0.1508(2) 0.8035(7)
H1M H 0.0615 0.1339 0.8393
C5M C 0.02989(19) 0.1989(2) 0.8398(7)
C6M C -0.00760(19) 0.22383(18) 0.7835(6)
H2M H -0.0107 0.2561 0.8014
C7M C -0.04076(19) 0.20129(19) 0.7007(6)
C8M C -0.03431(19) 0.15426(19) 0.6662(6)
H3M H -0.0560 0.1391 0.6090
C9M C -0.2136(2) 0.1998(2) 0.7068(7)
C10M C -0.17137(18) 0.22695(19) 0.6580(6)
C11M C -0.12822(18) 0.20717(18) 0.6859(6)
H4M H -0.1278 0.1778 0.7298
C12M C -0.08473(19) 0.22779(18) 0.6535(6)
Zn2A Zn -0.12032(3) 0.7500 0.1250
O1A O 0.01411(14) 0.56135(13) 0.6638(5)
O2A O -0.04323(19) 0.55480(17) 0.5104(6)
O3A O -0.09461(15) 0.69938(15) 0.2538(5)
O4A O -0.0575(2) 0.76604(17) 0.2848(6)
O5A O 0.20542(14) 0.66288(15) 0.4782(5)
O6A O 0.25602(16) 0.71385(18) 0.5627(7)
C1A C -0.01261(19) 0.5773(2) 0.5726(6)
C2A C -0.0626(2) 0.7237(2) 0.3111(7)
C3A C -0.0056(2) 0.62907(18) 0.5317(6)
C4A C -0.03594(19) 0.6508(2) 0.4465(7)
H1A H -0.0615 0.6339 0.4107
C5A C -0.02989(19) 0.6989(2) 0.4102(7)
C6A C 0.00760(19) 0.72383(18) 0.4665(6)
H2A H 0.0107 0.7561 0.4486
C7A C 0.04076(19) 0.70129(19) 0.5493(6)
C8A C 0.03431(19) 0.65426(19) 0.5838(6)
H3A H 0.0560 0.6391 0.6410
C9A C 0.2136(2) 0.6998(2) 0.5432(7)
C10A C 0.17137(18) 0.72695(19) 0.5920(6)
C11A C 0.12822(18) 0.70717(18) 0.5641(6)
H4A H 0.1278 0.6778 0.5202
C12A C 0.08473(19) 0.72779(18) 0.5965(6)
O1L O 0.01411(14) 0.93865(13) 0.5862(5)
O2L O -0.04323(19) 0.94520(17) 0.7396(6)
O3L O -0.09461(15) 0.80062(15) 0.9962(5)
O4L O -0.0575(2) 0.73396(17) 0.9652(6)
O5L O 0.20542(14) 0.83712(15) 0.7718(5)
O6L O 0.25602(16) 0.78615(18) 0.6873(7)
C1L C -0.01261(19) 0.9227(2) 0.6774(6)
C2L C -0.0626(2) 0.7763(2) 0.9389(7)
C3L C -0.0056(2) 0.87093(18) 0.7183(6)
C4L C -0.03594(19) 0.8492(2) 0.8035(7)
H1L H -0.0615 0.8661 0.8393
C5L C -0.02989(19) 0.8011(2) 0.8398(7)
C6L C 0.00760(19) 0.77617(18) 0.7835(6)
H2L H 0.0107 0.7439 0.8014
C7L C 0.04076(19) 0.79871(19) 0.7007(6)
C8L C 0.03431(19) 0.84574(19) 0.6662(6)
H3L H 0.0560 0.8609 0.6090
C9L C 0.2136(2) 0.8002(2) 0.7068(7)
C10L C 0.17137(18) 0.77305(19) 0.6580(6)
C11L C 0.12822(18) 0.79283(18) 0.6859(6)
H4L H 0.1278 0.8222 0.7298
C12L C 0.08473(19) 0.77221(18) 0.6535(6)
Zn1F Zn -0.0000 -0.0000 0.5000
Zn1F_2 Zn -0.0000 1.0000 0.5000
Zn2_2 Zn 0.12032(3) 0.2500 1.1250
Zn2A_2 Zn -0.12032(3) 0.7500 1.1250
Zn2B Zn 0.2500 0.87968(3) 0.8750
Zn2C Zn -0.2500 0.12032(3) 0.8750
Zn2J Zn -0.2500 0.37968(3) 0.3750
Zn2K Zn 0.2500 0.62032(3) 0.3750
O1J O -0.06135(13) 0.51411(14) 0.8362(5)
O1K O 0.06135(13) 0.48589(14) 0.8362(5)
O3L_2 O -0.09461(15) 0.80062(15) -0.0038(5)
O3M_2 O 0.09461(15) 0.19938(15) -0.0038(5)
O4L_2 O -0.0575(2) 0.73396(17) -0.0348(6)
O4M_2 O 0.0575(2) 0.26604(17) -0.0348(6)
O5F O 0.16288(15) 0.20542(14) 0.2282(5)
O5G O -0.16288(15) 0.79458(14) 0.2282(5)
O5J O -0.16288(15) 0.70542(14) 0.0218(5)
O5K O 0.16288(15) 0.29458(14) 0.0218(5)
N1 N 0.3940(3) 0.5208(3) 0.2242(10)
H5 H 0.3866 0.5408 0.1553
H6 H 0.4208 0.5054 0.2007
C13 C 0.4024(5) 0.5482(5) 0.3510(12)
H7 H 0.3745 0.5663 0.3731
H8 H 0.4287 0.5694 0.3372
H9 H 0.4095 0.5269 0.4252
C14 C 0.3557(4) 0.4865(4) 0.241(2)
H10 H 0.3303 0.5008 0.2920
H11 H 0.3674 0.4593 0.2899
H12 H 0.3444 0.4769 0.1522
loop_
_geom_bond_atom_site_label_1
_geom_bond_atom_site_label_2
_geom_bond_site_symmetry_1
_geom_bond_site_symmetry_2
Zn1 O1 1_555 1_555
Zn2 O3 1_555 1_555
O1 C1 1_555 1_555
O2 C1 1_555 1_555
O3 C2 1_555 1_555
O4 Zn2 1_555 1_555
O5 C9 1_555 1_555
O6 C9 1_555 1_555
C1 C3 1_555 1_555
C2 O4 1_555 1_555
C3 C4 1_555 1_555
C4 H1 1_555 1_555
C5 C2 1_555 1_555
C6 C5 1_555 1_555
H2 C6 1_555 1_555
C7 C6 1_555 1_555
C8 C3 1_555 1_555
H3 C8 1_555 1_555
C9 C10 1_555 1_555
C10 C11 1_555 1_555
C11 H4 1_555 1_555
C12 C7 1_555 1_555
N1 H5 1_555 1_555
H6 N1 1_555 1_555
C13 N1 1_555 1_555
H7 C13 1_555 1_555
H8 C13 1_555 1_555
H9 C13 1_555 1_555
C14 N1 1_555 1_555
H10 C14 1_555 1_555
H11 C14 1_555 1_555
H12 C14 1_555 1_555
O1M C1M 1_555 1_555
O2M C1M 1_555 1_555
O3M C2M 1_555 1_555
O4M C2M 1_555 1_555
O5M C9M 1_555 1_555
O6M C9M 1_555 1_555
C1M C3M 1_555 1_555
C2M C5M 1_555 1_555
C3M C4M 1_555 1_555
C4M H1M 1_555 1_555
C5M C4M 1_555 1_555
C6M C5M 1_555 1_555
H2M C6M 1_555 1_555
C7M C6M 1_555 1_555
C8M C3M 1_555 1_555
H3M C8M 1_555 1_555
C9M C10M 1_555 1_555
C10M C10 1_555 1_555
C11M C10M 1_555 1_555
H4M C11M 1_555 1_555
C12M C12 1_555 1_555
Zn2A O3A 1_555 1_555
O1A Zn1 1_555 1_555
O2A C1A 1_555 1_555
O3A C2A 1_555 1_555
O4A Zn2A 1_555 1_555
O5A C9A 1_555 1_555
O6A C9A 1_555 1_555
C1A O1A 1_555 1_555
C2A O4A 1_555 1_555
C3A C1A 1_555 1_555
C4A C3A 1_555 1_555
H1A C4A 1_555 1_555
C5A C2A 1_555 1_555
C6A C5A 1_555 1_555
H2A C6A 1_555 1_555
C7A C6A 1_555 1_555
C8A C3A 1_555 1_555
H3A C8A 1_555 1_555
C9A C10A 1_555 1_555
C10A C11A 1_555 1_555
C11A H4A 1_555 1_555
C12A C7A 1_555 1_555
O1L C1L 1_555 1_555
O2L C1L 1_555 1_555
O3L C2L 1_555 1_555
O4L C2L 1_555 1_555
O5L C9L 1_555 1_555
O6L C9L 1_555 1_555
C1L C3L 1_555 1_555
C2L C5L 1_555 1_555
C3L C4L 1_555 1_555
C4L H1L 1_555 1_555
C5L C4L 1_555 1_555
C6L C5L 1_555 1_555
H2L C6L 1_555 1_555
C7L C6L 1_555 1_555
C8L C3L 1_555 1_555
H3L C8L 1_555 1_555
C9L C10L 1_555 1_555
C10L C10A 1_555 1_555
C11L C10L 1_555 1_555
H4L C11L 1_555 1_555
C12L C12A 1_555 1_555
Zn1F O1M 1_555 1_555
Zn1F_2 O1L 1_555 1_555
Zn2_2 O3M 1_555 1_555
Zn2A_2 O3L 1_555 1_555
Zn2B O5L 1_555 1_555
Zn2C O5M 1_555 1_555
Zn2J O5 1_555 1_555
Zn2K O5A 1_555 1_555
O1J Zn1 1_555 1_555
O1K Zn1 1_555 1_555
O3L_2 Zn2A 1_555 1_555
O3M_2 Zn2 1_555 1_555
O4L_2 Zn2A 1_555 1_555
O4M_2 Zn2 1_555 1_555
O5F Zn2 1_555 1_555
O5G Zn2A 1_555 1_555
O5J Zn2A 1_555 1_555
O5K Zn2 1_555 1_555
C4 C5 1_555 1_555
C7 C8 1_555 1_555
C11 C12 1_555 1_555
O4M Zn2_2 1_555 1_555
C7M C8M 1_555 1_555
C7M C12M 1_555 1_555
C11M C12M 1_555 1_555
C4A C5A 1_555 1_555
C7A C8A 1_555 1_555
C11A C12A 1_555 1_555
O4L Zn2A_2 1_555 1_555
C7L C8L 1_555 1_555
C7L C12L 1_555 1_555
C11L C12L 1_555 1_555

#END
