
#######################################################################
#
#                 Cambridge Crystallographic Data Centre
#                                CCDC 
#
#######################################################################
#
# If this CIF has been generated from an entry in the Cambridge 
# Structural Database, then it will include bibliographic, chemical, 
# crystal, experimental, refinement or atomic coordinate data resulting 
# from the CCDC's data processing and validation procedures.
#
#######################################################################

data_SOWCOY
_chemical_formula_moiety         '(C10 H5 N3 O4 Zn1)n'
_symmetry_cell_setting           orthorhombic
_symmetry_space_group_name_H-M   'P n c a'
_symmetry_Int_Tables_number      60
_space_group_name_Hall           '-P 2a 2n'
loop_
_symmetry_equiv_pos_site_id
_symmetry_equiv_pos_as_xyz
1 x,y,z
2 1/2-x,-y,z
3 1/2+x,1/2-y,1/2-z
4 -x,1/2+y,1/2-z
5 -x,-y,-z
6 1/2+x,y,-z
7 1/2-x,1/2+y,1/2+z
8 x,1/2-y,1/2+z
_cell_length_a                   20.4409(14)
_cell_length_b                   11.9176(14)
_cell_length_c                   14.9473(11)
_cell_angle_alpha                90
_cell_angle_beta                 90
_cell_angle_gamma                90
_cell_volume                     3641.26
loop_
_atom_site_label
_atom_site_type_symbol
_atom_site_fract_x
_atom_site_fract_y
_atom_site_fract_z
_atom_site_U_iso_or_equiv
_atom_site_thermal_displace_type
Zn1 Zn 0.30444(2) 0.08518(5) 0.62500(4) 0.0089 Uani
O1 O 0.74393(16) 0.3469(4) 0.7808(2) 0.0240 Uani
O2 O 0.66380(16) 0.4738(3) 0.7789(2) 0.0209 Uani
O3 O 0.66121(16) 0.0341(3) 0.4624(2) 0.0242 Uani
O4 O 0.74817(17) 0.1464(4) 0.4754(2) 0.0264 Uani
N1 N 0.38299(17) 0.1864(4) 0.6197(2) 0.0111 Uani
N2 N 0.48332(18) 0.2453(3) 0.6211(2) 0.0091 Uani
C1 C 0.6546(2) 0.1836(5) 0.5651(3) 0.0133 Uani
C2 C 0.5867(2) 0.3170(5) 0.6842(3) 0.0113 Uani
H1 H 0.5637 0.3656 0.7213 0.0140 Uiso
N3 N 0.38133(19) 0.3008(4) 0.6093(4) 0.0300 Uani
C3 C 0.5866(2) 0.1800(5) 0.5640(3) 0.0118 Uani
H2 H 0.5636 0.1357 0.5236 0.0140 Uiso
C4 C 0.5541(2) 0.2482(4) 0.6286(3) 0.0118 Uani
C5 C 0.6881(2) 0.2492(4) 0.6231(3) 0.0117 Uani
H3 H 0.7335 0.2506 0.6215 0.0140 Uiso
C6 C 0.6907(2) 0.3857(5) 0.7547(3) 0.0110 Uani
C7 C 0.4443(2) 0.1554(5) 0.6258(3) 0.0180 Uani
H4 H 0.4586 0.0817 0.6323 0.0220 Uiso
C8 C 0.4421(3) 0.3333(5) 0.6117(4) 0.0330 Uani
H5 H 0.4555 0.4077 0.6075 0.0390 Uiso
C9 C 0.6540(2) 0.3157(4) 0.6864(3) 0.0120 Uani
C10 C 0.6907(2) 0.1161(5) 0.4960(4) 0.0173 Uani
Zn1B Zn 0.80444(2) 0.41482(5) 0.87500(4) 0.0089 Uani
Zn1C Zn 0.69556(2) 0.58518(5) 0.87500(4) 0.0089 Uani
Zn1D Zn 0.69556(2) -0.08518(5) 0.37500(4) 0.0089 Uani
Zn1E Zn 0.80444(2) 0.08518(5) 0.37500(4) 0.0089 Uani
O1B O 0.24393(16) 0.1531(4) 0.7192(2) 0.0240 Uani
O2C O 0.33620(16) -0.0262(3) 0.7211(2) 0.0209 Uani
O3D O 0.33879(16) -0.0341(3) 0.5376(2) 0.0242 Uani
O4E O 0.24817(17) 0.1464(4) 0.5246(2) 0.0264 Uani
loop_
_atom_site_aniso_label
_atom_site_aniso_U_11
_atom_site_aniso_U_22
_atom_site_aniso_U_33
_atom_site_aniso_U_23
_atom_site_aniso_U_13
_atom_site_aniso_U_12
Zn1 0.0069(3) 0.0100(4) 0.0098(4) 0.0002(2) -0.0001(2) -0.0007(2)
O1 0.013 0.028 0.031 -0.0095 -0.0067 -0.0013
O2 0.0186 0.015 0.029 -0.0158 -0.0055 -0.0004
O3 0.0205 0.023 0.029 -0.015 0.0031 -0.0021
O4 0.0162 0.033 0.03 -0.0115 0.0049 -0.0034
N1 0.0074(18) 0.011(2) 0.015(2) -0.0048(18) -0.0043(16) -0.0014(16)
N2 0.0064(19) 0.011(2) 0.010(2) -0.0078(16) 0.0007(17) 0.0005(15)
C1 0.012(2) 0.008(3) 0.020(3) -0.001(2) 0.006(2) 0.002(2)
C2 0.016(2) 0.011(3) 0.007(2) -0.004(2) 0.0026(19) 0.005(2)
N3 0.010(2) 0.011(3) 0.069(4) -0.001(3) -0.006(2) 0.0022(19)
C3 0.0096(15) 0.012(2) 0.0137(18) -0.0045(14) 0.0013(14) -0.0014(13)
C4 0.0096(15) 0.012(2) 0.0137(18) -0.0045(14) 0.0013(14) -0.0014(13)
C5 0.009(2) 0.016(3) 0.010(3) -0.002(2) -0.002(2) -0.0017(18)
C6 0.007 0.016 0.01 0.001 0.0035 -0.004
C7 0.010(2) 0.014(3) 0.030(3) -0.005(3) 0.005(2) -0.002(2)
C8 0.016(3) 0.012(3) 0.071(5) 0.001(3) 0.001(3) 0.000(2)
C9 0.012(2) 0.015(3) 0.009(2) -0.001(2) 0.0050(19) 0.000(2)
C10 0.018 0.017 0.017 -0.004 0.003 0.005
Zn1B 0.0069 0.01 0.0098 0.0002 0.0001 0.0007
Zn1C 0.0069 0.01 0.0098 -0.0002 -0.0001 0.0007
Zn1D 0.0069 0.01 0.0098 0.0002 -0.0001 -0.0007
Zn1E 0.0069 0.01 0.0098 -0.0002 0.0001 -0.0007
O1B 0.013 0.028 0.031 -0.0095 0.0067 0.0013
O2C 0.0186 0.015 0.029 0.0158 -0.0055 0.0004
O3D 0.0205 0.023 0.029 -0.015 0.0031 -0.0021
O4E 0.0162 0.033 0.03 0.0115 -0.0049 -0.0034
loop_
_geom_bond_atom_site_label_1
_geom_bond_atom_site_label_2
_geom_bond_site_symmetry_1
_geom_bond_site_symmetry_2
Zn1 N1 1_555 1_555
O1 C6 1_555 1_555
O2 C6 1_555 1_555
O3 C10 1_555 1_555
O4 C10 1_555 1_555
N1 N3 1_555 1_555
N2 C4 1_555 1_555
C1 C3 1_555 1_555
C2 H1 1_555 1_555
N3 C8 1_555 1_555
C3 H2 1_555 1_555
C4 C2 1_555 1_555
C5 C1 1_555 1_555
H3 C5 1_555 1_555
C6 C9 1_555 1_555
C7 N1 1_555 1_555
H4 C7 1_555 1_555
C8 N2 1_555 1_555
H5 C8 1_555 1_555
C9 C2 1_555 1_555
C10 C1 1_555 1_555
Zn1B O1 1_555 1_555
Zn1C O2 1_555 1_555
Zn1D O3 1_555 1_555
Zn1E O4 1_555 1_555
O1B Zn1 1_555 1_555
O2C Zn1 1_555 1_555
O3D Zn1 1_555 1_555
O4E Zn1 1_555 1_555
N2 C7 1_555 1_555
C3 C4 1_555 1_555
C5 C9 1_555 1_555

#END
