
#######################################################################
#
#                 Cambridge Crystallographic Data Centre
#                                CCDC 
#
#######################################################################
#
# If this CIF has been generated from an entry in the Cambridge 
# Structural Database, then it will include bibliographic, chemical, 
# crystal, experimental, refinement or atomic coordinate data resulting 
# from the CCDC's data processing and validation procedures.
#
#######################################################################

data_SIZNIA
_chemical_formula_moiety         '(C28 H34 Cu2 N4 O13)n'
_symmetry_cell_setting           monoclinic
_symmetry_space_group_name_H-M   'C 2/c'
_symmetry_Int_Tables_number      15
_space_group_name_Hall           '-C 2yc'
loop_
_symmetry_equiv_pos_site_id
_symmetry_equiv_pos_as_xyz
1 x,y,z
2 -x,y,1/2-z
3 1/2+x,1/2+y,z
4 1/2-x,1/2+y,1/2-z
5 -x,-y,-z
6 x,-y,1/2+z
7 1/2-x,1/2-y,-z
8 1/2+x,1/2-y,1/2+z
_cell_length_a                   26.521(2)
_cell_length_b                   8.8621(7)
_cell_length_c                   16.7474(13)
_cell_angle_alpha                90
_cell_angle_beta                 117.7800(10)
_cell_angle_gamma                90
_cell_volume                     3482.5
loop_
_atom_site_label
_atom_site_type_symbol
_atom_site_fract_x
_atom_site_fract_y
_atom_site_fract_z
_atom_site_U_iso_or_equiv
_atom_site_thermal_displace_type
Cu1 Cu 1.0000 1.0000 0.5000 0.0283 Uani
Cu2 Cu 1.2500 0.7500 0.5000 0.0241 Uani
O1 O 0.92045(8) 0.9921(2) 0.40504(13) 0.0341 Uani
O2 O 0.92418(10) 1.0396(3) 0.27727(16) 0.0529 Uani
O3 O 1.17139(8) 0.7166(2) 0.47788(14) 0.0310 Uani
O4 O 1.15000(11) 0.4830(3) 0.4244(2) 0.0653 Uani
O5 O 1.02931(11) 1.1393(3) 0.40617(18) 0.0578 Uani
H1 H 1.0436 1.1179 0.3719 0.0870 Uiso
H2 H 0.9931 1.1289 0.3821 0.0870 Uiso
O6 O 1.26694(11) 0.4922(3) 0.47557(17) 0.0471 Uani
H3 H 1.2341 0.4631 0.4660 0.0710 Uiso
H4 H 1.2951 0.4411 0.5134 0.0710 Uiso
N1 N 0.77797(10) 0.7895(3) 0.13297(15) 0.0289 Uani
N2 N 1.01534(10) 0.7996(3) 0.45598(16) 0.0283 Uani
C1 C 0.90172(13) 0.9853(3) 0.3207(2) 0.0313 Uani
C2 C 0.84631(12) 0.9006(3) 0.27080(19) 0.0284 Uani
C3 C 0.81344(14) 0.8610(4) 0.3113(2) 0.0385 Uani
H5 H 0.8258 0.8841 0.3717 0.0460 Uiso
C4 C 0.76188(16) 0.7868(4) 0.2622(2) 0.0458 Uani
C5 C 0.74657(14) 0.7531(4) 0.1734(2) 0.0388 Uani
H6 H 0.7124 0.7022 0.1398 0.0460 Uiso
C6 C 0.82739(12) 0.8622(3) 0.18144(19) 0.0281 Uani
H7 H 0.8497 0.8876 0.1539 0.0340 Uiso
C7 C 0.7234(2) 0.7474(6) 0.3028(3) 0.0884 Uani
H8 H 0.7408 0.6695 0.3471 0.1330 Uiso
H9 H 0.6874 0.7123 0.2561 0.1330 Uiso
H10 H 0.7174 0.8353 0.3308 0.1330 Uiso
C8 C 1.13786(13) 0.6061(4) 0.4455(2) 0.0329 Uani
C9 C 1.07863(12) 0.6348(3) 0.43222(19) 0.0292 Uani
C10 C 1.03518(14) 0.5295(3) 0.3924(2) 0.0367 Uani
H11 H 1.0420 0.4388 0.3712 0.0440 Uiso
C11 C 0.98167(13) 0.5591(3) 0.3841(2) 0.0344 Uani
C12 C 0.97452(12) 0.6934(3) 0.4193(2) 0.0321 Uani
H12 H 0.9395 0.7116 0.4177 0.0390 Uiso
C13 C 1.06641(12) 0.7693(3) 0.46138(19) 0.0281 Uani
H13 H 1.0949 0.8421 0.4858 0.0340 Uiso
C14 C 0.93245(15) 0.4499(4) 0.3399(3) 0.0534 Uani
H14 H 0.9036 0.4749 0.3569 0.0800 Uiso
H15 H 0.9457 0.3490 0.3592 0.0800 Uiso
H16 H 0.9168 0.4564 0.2755 0.0800 Uiso
O1A O 1.07955(8) 0.9921(2) 0.09496(13) 0.0341 Uani
O2A O 1.07582(10) 1.0396(3) 0.22273(16) 0.0529 Uani
N1A N 1.22203(10) 0.7895(3) 0.36703(15) 0.0289 Uani
C1A C 1.09828(13) 0.9853(3) 0.1793(2) 0.0313 Uani
C2A C 1.15369(12) 0.9006(3) 0.22920(19) 0.0284 Uani
C3A C 1.18656(14) 0.8610(4) 0.1887(2) 0.0385 Uani
H5A H 1.1742 0.8841 0.1283 0.0460 Uiso
C4A C 1.23812(16) 0.7868(4) 0.2378(2) 0.0458 Uani
C5A C 1.25343(14) 0.7531(4) 0.3266(2) 0.0388 Uani
H6A H 1.2876 0.7022 0.3602 0.0460 Uiso
C6A C 1.17261(12) 0.8622(3) 0.31856(19) 0.0281 Uani
H7A H 1.1503 0.8876 0.3461 0.0340 Uiso
C7A C 1.2766(2) 0.7474(6) 0.1972(3) 0.0884 Uani
H8A H 1.2592 0.6695 0.1529 0.1330 Uiso
H9A H 1.3126 0.7123 0.2439 0.1330 Uiso
H10A H 1.2826 0.8353 0.1692 0.1330 Uiso
O3D O 0.82861(8) 1.2834(2) 0.52212(14) 0.0310 Uani
O4D O 0.85000(11) 1.5170(3) 0.5756(2) 0.0653 Uani
N2D N 0.98466(10) 1.2004(3) 0.54402(16) 0.0283 Uani
C8D C 0.86214(13) 1.3939(4) 0.5545(2) 0.0329 Uani
C9D C 0.92137(12) 1.3652(3) 0.56778(19) 0.0292 Uani
C10D C 0.96482(14) 1.4705(3) 0.6076(2) 0.0367 Uani
H11D H 0.9580 1.5612 0.6288 0.0440 Uiso
C11D C 1.01833(13) 1.4409(3) 0.6159(2) 0.0344 Uani
C12D C 1.02548(12) 1.3066(3) 0.5807(2) 0.0321 Uani
H12D H 1.0605 1.2884 0.5823 0.0390 Uiso
C13D C 0.93359(12) 1.2307(3) 0.53862(19) 0.0281 Uani
H13D H 0.9051 1.1579 0.5142 0.0340 Uiso
C14D C 1.06755(15) 1.5501(4) 0.6601(3) 0.0534 Uani
H14D H 1.0964 1.5251 0.6431 0.0800 Uiso
H15D H 1.0543 1.6510 0.6408 0.0800 Uiso
H16D H 1.0832 1.5436 0.7245 0.0800 Uiso
O5D O 0.97069(11) 0.8607(3) 0.59383(18) 0.0578 Uani
H1D H 0.9564 0.8821 0.6281 0.0870 Uiso
H2D H 1.0069 0.8711 0.6179 0.0870 Uiso
O6F O 1.23306(11) 1.0078(3) 0.52443(17) 0.0471 Uani
H3F H 1.2659 1.0369 0.5340 0.0710 Uiso
H4F H 1.2049 1.0589 0.4866 0.0710 Uiso
Cu1A Cu 1.0000 1.0000 0.0000 0.0283 Uani
Cu2A Cu 0.7500 0.7500 0.0000 0.0241 Uani
Cu2B Cu 0.7500 1.2500 0.5000 0.0241 Uani
O1D O 1.07955(8) 1.0079(2) 0.59496(13) 0.0341 Uani
O3F O 1.32861(8) 0.7834(2) 0.52212(14) 0.0310 Uani
N1G N 1.27797(10) 0.7105(3) 0.63297(15) 0.0289 Uani
O7 O 0.13345(11) 0.1709(3) 0.39815(19) 0.0594 Uani
H17 H 0.1429 0.1988 0.4518 0.0890 Uiso
H18 H 0.1099 0.2283 0.3556 0.0890 Uiso
loop_
_atom_site_aniso_label
_atom_site_aniso_U_11
_atom_site_aniso_U_22
_atom_site_aniso_U_33
_atom_site_aniso_U_23
_atom_site_aniso_U_13
_atom_site_aniso_U_12
Cu1 0.0181(3) 0.0340(3) 0.0260(3) -0.0121(2) 0.0045(2) 0.0006(2)
Cu2 0.0190(3) 0.0309(3) 0.0198(2) 0.00332(19) 0.00684(19) 0.0052(2)
O1 0.0217(10) 0.0453(13) 0.0265(11) -0.0151(9) 0.0038(9) 0.0001(9)
O2 0.0407(14) 0.0721(18) 0.0379(13) -0.0067(12) 0.0116(12) -0.0272(13)
O3 0.0219(10) 0.0349(12) 0.0341(11) -0.0021(9) 0.0114(9) 0.0023(9)
O4 0.0412(15) 0.0404(15) 0.119(3) -0.0282(15) 0.0412(16) 0.0006(12)
O5 0.0467(15) 0.0638(17) 0.0635(17) -0.0068(14) 0.0261(14) -0.0104(13)
O6 0.0423(14) 0.0410(14) 0.0532(15) -0.0043(11) 0.0181(12) 0.0065(11)
N1 0.0260(13) 0.0346(14) 0.0225(12) -0.0048(10) 0.0083(10) -0.0085(11)
N2 0.0217(12) 0.0315(13) 0.0290(13) -0.0078(10) 0.0095(10) -0.0017(10)
C1 0.0242(15) 0.0303(16) 0.0309(17) -0.0052(13) 0.0056(13) -0.0005(13)
C2 0.0262(15) 0.0260(15) 0.0260(15) -0.0032(12) 0.0062(12) -0.0038(12)
C3 0.048(2) 0.0426(19) 0.0234(15) -0.0091(13) 0.0155(14) -0.0148(16)
C4 0.054(2) 0.055(2) 0.0361(18) -0.0167(16) 0.0274(17) -0.0291(18)
C5 0.0381(18) 0.048(2) 0.0307(17) -0.0117(14) 0.0164(15) -0.0200(15)
C6 0.0247(15) 0.0312(16) 0.0251(15) -0.0018(12) 0.0089(12) -0.0042(12)
C7 0.102(4) 0.128(4) 0.066(3) -0.052(3) 0.065(3) -0.080(3)
C8 0.0295(16) 0.0331(17) 0.0356(17) -0.0012(14) 0.0148(14) 0.0037(14)
C9 0.0255(15) 0.0304(16) 0.0306(15) -0.0029(12) 0.0121(13) 0.0002(12)
C10 0.0372(18) 0.0269(16) 0.0439(19) -0.0080(14) 0.0171(15) -0.0018(13)
C11 0.0276(16) 0.0282(16) 0.0397(18) -0.0034(13) 0.0093(14) -0.0035(13)
C12 0.0218(15) 0.0359(17) 0.0355(17) -0.0009(13) 0.0107(13) -0.0006(13)
C13 0.0210(14) 0.0304(16) 0.0293(15) -0.0057(12) 0.0086(12) -0.0023(12)
C14 0.0340(19) 0.041(2) 0.073(3) -0.0156(19) 0.0147(19) -0.0146(16)
O1A 0.0217 0.0453 0.0265 0.0151 0.0038 -0.0001
O2A 0.0407 0.0721 0.0379 0.0067 0.0116 0.0272
N1A 0.026 0.0346 0.0225 0.0048 0.0083 0.0085
C1A 0.0242 0.0303 0.0309 0.0052 0.0056 0.0005
C2A 0.0262 0.026 0.026 0.0032 0.0062 0.0038
C3A 0.048 0.0426 0.0234 0.0091 0.0155 0.0148
C4A 0.054 0.055 0.0361 0.0167 0.0274 0.0291
C5A 0.0381 0.048 0.0307 0.0117 0.0164 0.02
C6A 0.0247 0.0312 0.0251 0.0018 0.0089 0.0042
C7A 0.102 0.128 0.066 0.052 0.065 0.08
O3D 0.0219 0.0349 0.0341 -0.0021 0.0114 0.0023
O4D 0.0412 0.0404 0.119 -0.0282 0.0412 0.0006
N2D 0.0217 0.0315 0.029 -0.0078 0.0095 -0.0017
C8D 0.0295 0.0331 0.0356 -0.0012 0.0148 0.0037
C9D 0.0255 0.0304 0.0306 -0.0029 0.0121 0.0002
C10D 0.0372 0.0269 0.0439 -0.008 0.0171 -0.0018
C11D 0.0276 0.0282 0.0397 -0.0034 0.0093 -0.0035
C12D 0.0218 0.0359 0.0355 -0.0009 0.0107 -0.0006
C13D 0.021 0.0304 0.0293 -0.0057 0.0086 -0.0023
C14D 0.034 0.041 0.073 -0.0156 0.0147 -0.0146
O5D 0.0467 0.0638 0.0635 -0.0068 0.0261 -0.0104
O6F 0.0423 0.041 0.0532 -0.0043 0.0181 0.0065
Cu1A 0.0181 0.034 0.026 0.0121 0.0045 -0.0006
Cu2A 0.019 0.0309 0.0198 -0.00332 0.00684 -0.0052
Cu2B 0.019 0.0309 0.0198 0.00332 0.00684 0.0052
O1D 0.0217 0.0453 0.0265 -0.0151 0.0038 0.0001
O3F 0.0219 0.0349 0.0341 -0.0021 0.0114 0.0023
N1G 0.026 0.0346 0.0225 0.0048 0.0083 0.0085
O7 0.0549(17) 0.0553(17) 0.0676(18) 0.0051(14) 0.0283(14) 0.0082(13)
loop_
_geom_bond_atom_site_label_1
_geom_bond_atom_site_label_2
_geom_bond_site_symmetry_1
_geom_bond_site_symmetry_2
Cu1 O1 1_555 1_555
Cu2 O3 1_555 1_555
O1 C1 1_555 1_555
O2 C1 1_555 1_555
O3 C8 1_555 1_555
O4 C8 1_555 1_555
O5 Cu1 1_555 1_555
H1 O5 1_555 1_555
H2 O5 1_555 1_555
O6 Cu2 1_555 1_555
H3 O6 1_555 1_555
H4 O6 1_555 1_555
N1 C5 1_555 1_555
N2 Cu1 1_555 1_555
C1 C2 1_555 1_555
C2 C3 1_555 1_555
C3 H5 1_555 1_555
C4 C3 1_555 1_555
C5 C4 1_555 1_555
H6 C5 1_555 1_555
C6 N1 1_555 1_555
H7 C6 1_555 1_555
C7 C4 1_555 1_555
H8 C7 1_555 1_555
H9 C7 1_555 1_555
H10 C7 1_555 1_555
C8 C9 1_555 1_555
C9 C10 1_555 1_555
C10 H11 1_555 1_555
C11 C10 1_555 1_555
C12 N2 1_555 1_555
H12 C12 1_555 1_555
C13 N2 1_555 1_555
H13 C13 1_555 1_555
C14 C11 1_555 1_555
H14 C14 1_555 1_555
H15 C14 1_555 1_555
H16 C14 1_555 1_555
O7 H17 1_555 1_555
H18 O7 1_555 1_555
O1A C1A 1_555 1_555
O2A C1A 1_555 1_555
N1A Cu2 1_555 1_555
C1A C2A 1_555 1_555
C2A C3A 1_555 1_555
C3A H5A 1_555 1_555
C4A C3A 1_555 1_555
C5A N1A 1_555 1_555
H6A C5A 1_555 1_555
C6A N1A 1_555 1_555
H7A C6A 1_555 1_555
C7A C4A 1_555 1_555
H8A C7A 1_555 1_555
H9A C7A 1_555 1_555
H10A C7A 1_555 1_555
O3D C8D 1_555 1_555
O4D C8D 1_555 1_555
N2D Cu1 1_555 1_555
C8D C9D 1_555 1_555
C9D C10D 1_555 1_555
C10D H11D 1_555 1_555
C11D C10D 1_555 1_555
C12D N2D 1_555 1_555
H12D C12D 1_555 1_555
C13D N2D 1_555 1_555
H13D C13D 1_555 1_555
C14D C11D 1_555 1_555
H14D C14D 1_555 1_555
H15D C14D 1_555 1_555
H16D C14D 1_555 1_555
O5D Cu1 1_555 1_555
H1D O5D 1_555 1_555
H2D O5D 1_555 1_555
O6F Cu2 1_555 1_555
H3F O6F 1_555 1_555
H4F O6F 1_555 1_555
Cu1A O1A 1_555 1_555
Cu2A N1 1_555 1_555
Cu2B O3D 1_555 1_555
O1D Cu1 1_555 1_555
O3F Cu2 1_555 1_555
N1G Cu2 1_555 1_555
C2 C6 1_555 1_555
C9 C13 1_555 1_555
C11 C12 1_555 1_555
C2A C6A 1_555 1_555
C4A C5A 1_555 1_555
C9D C13D 1_555 1_555
C11D C12D 1_555 1_555

#END
