
#######################################################################
#
#                 Cambridge Crystallographic Data Centre
#                                CCDC 
#
#######################################################################
#
# If this CIF has been generated from an entry in the Cambridge 
# Structural Database, then it will include bibliographic, chemical, 
# crystal, experimental, refinement or atomic coordinate data resulting 
# from the CCDC's data processing and validation procedures.
#
#######################################################################

data_KOMHEB
_chemical_formula_moiety         '(C24 H40 Cd3 O38 Pr2)n'
_symmetry_cell_setting           hexagonal
_symmetry_space_group_name_H-M   'P 6/m c c'
_symmetry_Int_Tables_number      192
_space_group_name_Hall           '-P 6 2c'
loop_
_symmetry_equiv_pos_site_id
_symmetry_equiv_pos_as_xyz
1 x,y,z
2 -y,x-y,z
3 -x+y,-x,z
4 -x,-y,z
5 y,-x+y,z
6 x-y,x,z
7 y,x,1/2-z
8 x-y,-y,1/2-z
9 -x,-x+y,1/2-z
10 -y,-x,1/2-z
11 -x+y,y,1/2-z
12 x,x-y,1/2-z
13 -x,-y,-z
14 y,-x+y,-z
15 x-y,x,-z
16 x,y,-z
17 -y,x-y,-z
18 -x+y,-x,-z
19 -y,-x,1/2+z
20 -x+y,y,1/2+z
21 x,x-y,1/2+z
22 y,x,1/2+z
23 x-y,-y,1/2+z
24 -x,-x+y,1/2+z
_cell_length_a                   12.9706(8)
_cell_length_b                   12.9706(8)
_cell_length_c                   17.615(2)
_cell_angle_alpha                90
_cell_angle_beta                 90
_cell_angle_gamma                120
_cell_volume                     2566.45
loop_
_atom_site_label
_atom_site_type_symbol
_atom_site_fract_x
_atom_site_fract_y
_atom_site_fract_z
Pr1 Pr 0.6667 0.3333 0.2500
C1 C 0.8773(13) 0.3309(18) 0.1392(7)
C2 C 0.901(2) 0.284(4) 0.212(2)
H1 H 0.9580 0.3493 0.2434
H2 H 0.9307 0.2307 0.2015
O1 O 0.9463(9) 0.3523(13) 0.0849(5)
O2 O 0.7803(7) 0.2197(7) 0.2500
O3 O 0.8224(9) 0.3844(12) 0.1530(5)
Cd1 Cd 1.0000 0.5000 0.0000
O4 O 0.8143(13) 0.4810(18) 0.0000
C1I C 0.6691(18) 0.1227(13) 0.3608(7)
C2I C 0.716(4) 0.099(2) 0.288(2)
H1I H 0.6507 0.0420 0.2566
H2I H 0.7693 0.0693 0.2985
O1I O 0.6477(13) 0.0537(9) 0.4151(5)
O3I O 0.6156(12) 0.1776(9) 0.3470(5)
C1A C 0.6691(18) 0.5464(22) 0.1392(7)
C2A C 0.716(4) 0.617(4) 0.212(2)
H1A H 0.6507 0.6087 0.2434
H2A H 0.7693 0.7000 0.2015
O1A O 0.6477(13) 0.5940(16) 0.0849(5)
O2A O 0.7803(7) 0.5606(10) 0.2500
O3A O 0.6156(12) 0.4380(15) 0.1530(5)
Cd1A Cd 0.5000 0.5000 0.0000
O4A O 0.5190(18) 0.3333(22) 0.0000
C1K C 0.8773(13) 0.5464(22) 0.3608(7)
C2K C 0.901(2) 0.617(4) 0.288(2)
H1K H 0.9580 0.6087 0.2566
H2K H 0.9307 0.7000 0.2985
O1K O 0.9463(9) 0.5940(16) 0.4151(5)
O3K O 0.8224(9) 0.4380(15) 0.3470(5)
C1B C 0.4536(22) 0.1227(13) 0.1392(7)
C2B C 0.383(4) 0.099(2) 0.212(2)
H1B H 0.3913 0.0420 0.2434
H2B H 0.3000 0.0693 0.2015
O1B O 0.4060(16) 0.0537(9) 0.0849(5)
O2B O 0.4394(10) 0.2197(7) 0.2500
O3B O 0.5620(15) 0.1776(9) 0.1530(5)
Cd1B Cd 0.5000 0.0000 0.0000
O4B O 0.6667(22) 0.1857(13) 0.0000
C1J C 0.4536(22) 0.3309(18) 0.3608(7)
C2J C 0.383(4) 0.284(4) 0.288(2)
H1J H 0.3913 0.3493 0.2566
H2J H 0.3000 0.2307 0.2985
O1J O 0.4060(16) 0.3523(13) 0.4151(5)
O3J O 0.5620(15) 0.3844(12) 0.3470(5)
Pr1C Pr 1.3333 0.6667 0.2500
C1C C 1.1227(13) 0.6691(18) 0.1392(7)
C2C C 1.099(2) 0.716(4) 0.212(2)
H1C H 1.0420 0.6507 0.2434
H2C H 1.0693 0.7693 0.2015
O1C O 1.0537(9) 0.6477(13) 0.0849(5)
O2C O 1.2197(7) 0.7803(7) 0.2500
O3C O 1.1776(9) 0.6156(12) 0.1530(5)
O4C O 1.1857(13) 0.5190(18) 0.0000
C1F C 1.3309(18) 0.8773(13) 0.3608(7)
C2F C 1.284(4) 0.901(2) 0.288(2)
H1F H 1.3493 0.9580 0.2566
H2F H 1.2307 0.9307 0.2985
O1F O 1.3523(13) 0.9463(9) 0.4151(5)
O3F O 1.3844(12) 0.8224(9) 0.3470(5)
C1D C 0.3309(18) 0.4536(22) 0.1392(7)
C2D C 0.284(4) 0.383(4) 0.212(2)
H1D H 0.3493 0.3913 0.2434
H2D H 0.2307 0.3000 0.2015
O1D O 0.3523(13) 0.4060(16) 0.0849(5)
O2D O 0.2197(7) 0.4394(10) 0.2500
O3D O 0.3844(12) 0.5620(15) 0.1530(5)
O4D O 0.4810(18) 0.6667(22) 0.0000
C1H C 0.1227(13) 0.4536(22) 0.3608(7)
C2H C 0.099(2) 0.383(4) 0.288(2)
H1H H 0.0420 0.3913 0.2566
H2H H 0.0693 0.3000 0.2985
O1H O 0.0537(9) 0.4060(16) 0.4151(5)
O3H O 0.1776(9) 0.5620(15) 0.3470(5)
C1E C 0.5464(22) -0.1227(13) 0.1392(7)
C2E C 0.617(4) -0.099(2) 0.212(2)
H1E H 0.6087 -0.0420 0.2434
H2E H 0.7000 -0.0693 0.2015
O1E O 0.5940(16) -0.0537(9) 0.0849(5)
O2E O 0.5606(10) -0.2197(7) 0.2500
O3E O 0.4380(15) -0.1776(9) 0.1530(5)
O4E O 0.3333(22) -0.1857(13) 0.0000
C1G C 0.5464(22) -0.3309(18) 0.3608(7)
C2G C 0.617(4) -0.284(4) 0.288(2)
H1G H 0.6087 -0.3493 0.2566
H2G H 0.7000 -0.2307 0.2985
O1G O 0.5940(16) -0.3523(13) 0.4151(5)
O3G O 0.4380(15) -0.3844(12) 0.3470(5)
Pr1C_2 Pr 0.3333 -0.3333 0.2500
Pr1C_3 Pr 0.3333 0.6667 0.2500
O1L O 1.0537(9) 0.6477(13) -0.0849(5)
O1M O 0.3523(13) 0.4060(16) -0.0849(5)
O1N O 0.5940(16) -0.0537(9) -0.0849(5)
O1O O 0.9463(9) 0.3523(13) -0.0849(5)
O1P O 0.6477(13) 0.5940(16) -0.0849(5)
O1Q O 0.4060(16) 0.0537(9) -0.0849(5)
O2D_2 O 1.2197(7) 0.4394(10) 0.2500
O2E_2 O 1.5606(10) 0.7803(7) 0.2500
O3D_2 O 1.3844(12) 0.5620(15) 0.1530(5)
O3E_2 O 1.4380(15) 0.8224(9) 0.1530(5)
O3G_2 O 1.4380(15) 0.6156(12) 0.3470(5)
O3H_2 O 1.1776(9) 0.5620(15) 0.3470(5)
Cd1F Cd 0.5000 0.0000 0.5000
Cd1F_2 Cd 1.5000 1.0000 0.5000
Cd1G Cd 0.5000 -0.5000 0.5000
Cd1G_2 Cd 0.5000 0.5000 0.5000
Cd1H Cd -0.0000 0.5000 0.5000
Cd1H_2 Cd 1.0000 0.5000 0.5000
O5 O 0.0000 0.0000 0.0000
O6 O 0.841(4) 0.113(7) 0.0000
loop_
_geom_bond_atom_site_label_1
_geom_bond_atom_site_label_2
_geom_bond_site_symmetry_1
_geom_bond_site_symmetry_2
Pr1 O2 1_555 1_555
C1 C2 1_555 1_555
C2 H1 1_555 1_555
H2 C2 1_555 1_555
O1 C1 1_555 1_555
O2 C2 1_555 1_555
O3 Pr1 1_555 1_555
Cd1 O1 1_555 1_555
O4 Cd1 1_555 1_555
C1I C2I 1_555 1_555
C2I O2 1_555 1_555
H1I C2I 1_555 1_555
H2I C2I 1_555 1_555
O1I C1I 1_555 1_555
O3I Pr1 1_555 1_555
C1A C2A 1_555 1_555
C2A H1A 1_555 1_555
H2A C2A 1_555 1_555
O1A C1A 1_555 1_555
O2A Pr1 1_555 1_555
O3A Pr1 1_555 1_555
Cd1A O1A 1_555 1_555
O4A Cd1A 1_555 1_555
C1K C2K 1_555 1_555
C2K O2A 1_555 1_555
H1K C2K 1_555 1_555
H2K C2K 1_555 1_555
O1K C1K 1_555 1_555
O3K Pr1 1_555 1_555
C1B C2B 1_555 1_555
C2B H1B 1_555 1_555
H2B C2B 1_555 1_555
O1B C1B 1_555 1_555
O2B Pr1 1_555 1_555
O3B Pr1 1_555 1_555
Cd1B O1B 1_555 1_555
O4B Cd1B 1_555 1_555
C1J C2J 1_555 1_555
C2J O2B 1_555 1_555
H1J C2J 1_555 1_555
H2J C2J 1_555 1_555
O1J C1J 1_555 1_555
O3J Pr1 1_555 1_555
Pr1C O2C 1_555 1_555
C1C C2C 1_555 1_555
C2C H1C 1_555 1_555
H2C C2C 1_555 1_555
O1C Cd1 1_555 1_555
O2C C2C 1_555 1_555
O3C Pr1C 1_555 1_555
O4C Cd1 1_555 1_555
C1F C2F 1_555 1_555
C2F O2C 1_555 1_555
H1F C2F 1_555 1_555
H2F C2F 1_555 1_555
O1F C1F 1_555 1_555
O3F Pr1C 1_555 1_555
C1D C2D 1_555 1_555
C2D H1D 1_555 1_555
H2D C2D 1_555 1_555
O1D Cd1A 1_555 1_555
O2D C2D 1_555 1_555
O3D C1D 1_555 1_555
O4D Cd1A 1_555 1_555
C1H C2H 1_555 1_555
C2H O2D 1_555 1_555
H1H C2H 1_555 1_555
H2H C2H 1_555 1_555
O1H C1H 1_555 1_555
O3H C1H 1_555 1_555
C1E C2E 1_555 1_555
C2E H1E 1_555 1_555
H2E C2E 1_555 1_555
O1E Cd1B 1_555 1_555
O2E C2E 1_555 1_555
O3E C1E 1_555 1_555
O4E Cd1B 1_555 1_555
C1G C2G 1_555 1_555
C2G O2E 1_555 1_555
H1G C2G 1_555 1_555
H2G C2G 1_555 1_555
O1G C1G 1_555 1_555
O3G C1G 1_555 1_555
Pr1C_2 O2E 1_555 1_555
Pr1C_3 O2D 1_555 1_555
O1L Cd1 1_555 1_555
O1M Cd1A 1_555 1_555
O1N Cd1B 1_555 1_555
O1O Cd1 1_555 1_555
O1P Cd1A 1_555 1_555
O1Q Cd1B 1_555 1_555
O2D_2 Pr1C 1_555 1_555
O2E_2 Pr1C 1_555 1_555
O3D_2 Pr1C 1_555 1_555
O3E_2 Pr1C 1_555 1_555
O3G_2 Pr1C 1_555 1_555
O3H_2 Pr1C 1_555 1_555
Cd1F O1I 1_555 1_555
Cd1F_2 O1F 1_555 1_555
Cd1G O1G 1_555 1_555
Cd1G_2 O1J 1_555 1_555
Cd1H O1H 1_555 1_555
Cd1H_2 O1K 1_555 1_555
C1 O3 1_555 1_555
C1I O3I 1_555 1_555
C1A O3A 1_555 1_555
C2A O2A 1_555 1_555
C1K O3K 1_555 1_555
C1B O3B 1_555 1_555
C2B O2B 1_555 1_555
C1J O3J 1_555 1_555
C1C O1C 1_555 1_555
C1C O3C 1_555 1_555
C1F O3F 1_555 1_555
C1D O1D 1_555 1_555
O3D Pr1C_3 1_555 1_555
O3H Pr1C_3 1_555 1_555
C1E O1E 1_555 1_555
O3E Pr1C_2 1_555 1_555
O3G Pr1C_2 1_555 1_555

#END
