
#######################################################################
#
#                 Cambridge Crystallographic Data Centre
#                                CCDC 
#
#######################################################################
#
# If this CIF has been generated from an entry in the Cambridge 
# Structural Database, then it will include bibliographic, chemical, 
# crystal, experimental, refinement or atomic coordinate data resulting 
# from the CCDC's data processing and validation procedures.
#
#######################################################################

data_KOMHIF
_chemical_formula_moiety         '(C24 H44 Cd3 Nd2 O40)n'
_symmetry_cell_setting           hexagonal
_symmetry_space_group_name_H-M   'P 6/m c c'
_symmetry_Int_Tables_number      192
_space_group_name_Hall           '-P 6 2c'
loop_
_symmetry_equiv_pos_site_id
_symmetry_equiv_pos_as_xyz
1 x,y,z
2 -y,x-y,z
3 -x+y,-x,z
4 -x,-y,z
5 y,-x+y,z
6 x-y,x,z
7 y,x,1/2-z
8 x-y,-y,1/2-z
9 -x,-x+y,1/2-z
10 -y,-x,1/2-z
11 -x+y,y,1/2-z
12 x,x-y,1/2-z
13 -x,-y,-z
14 y,-x+y,-z
15 x-y,x,-z
16 x,y,-z
17 -y,x-y,-z
18 -x+y,-x,-z
19 -y,-x,1/2+z
20 -x+y,y,1/2+z
21 x,x-y,1/2+z
22 y,x,1/2+z
23 x-y,-y,1/2+z
24 -x,-x+y,1/2+z
_cell_length_a                   12.7559(18)
_cell_length_b                   12.7559(18)
_cell_length_c                   17.741(2)
_cell_angle_alpha                90
_cell_angle_beta                 90
_cell_angle_gamma                120
_cell_volume                     2499.95
loop_
_atom_site_label
_atom_site_type_symbol
_atom_site_fract_x
_atom_site_fract_y
_atom_site_fract_z
Nd1 Nd 0.6667 0.3333 0.2500
Cd1 Cd 1.0000 0.5000 0.0000
O1 O 0.9445(11) 0.3511(13) 0.0852(7)
O2 O 0.8202(12) 0.3848(12) 0.1529(7)
O3 O 0.7803(8) 0.2197(8) 0.2500
O4 O 0.8152(16) 0.4827(18) 0.0000
H1 H 0.7768 0.4424 0.0386
C1 C 0.8755(18) 0.3290(18) 0.1404(10)
C2 C 0.826(3) 0.200(4) 0.176(2)
H2 H 0.7612 0.1372 0.1461
H3 H 0.8895 0.1801 0.1831
O1I O 0.6489(13) 0.0555(11) 0.4148(7)
O2I O 0.6152(12) 0.1798(12) 0.3471(7)
C1I C 0.6710(18) 0.1245(18) 0.3596(10)
C2I C 0.800(4) 0.174(3) 0.324(2)
H2I H 0.8628 0.2388 0.3539
H3I H 0.8199 0.1105 0.3169
H1O H 0.7768 0.4424 -0.0386
Cd1A Cd 0.5000 0.5000 0.0000
O1A O 0.6489(13) 0.5934(17) 0.0852(7)
O2A O 0.6152(12) 0.4354(17) 0.1529(7)
O3A O 0.7803(8) 0.5606(11) 0.2500
O4A O 0.5173(18) 0.3325(24) 0.0000
H1A H 0.5576 0.3344 0.0386
C1A C 0.6710(18) 0.5465(25) 0.1404(10)
C2A C 0.800(4) 0.626(5) 0.176(2)
H2A H 0.8628 0.6240 0.1461
H3A H 0.8199 0.7094 0.1831
O1K O 0.9445(11) 0.5934(17) 0.4148(7)
O2K O 0.8202(12) 0.4354(17) 0.3471(7)
C1K C 0.8755(18) 0.5465(25) 0.3596(10)
C2K C 0.826(3) 0.626(5) 0.324(2)
H2K H 0.7612 0.6240 0.3539
H3K H 0.8895 0.7094 0.3169
H1P H 0.5576 0.3344 -0.0386
Cd1B Cd 0.5000 0.0000 0.0000
O1B O 0.4066(17) 0.0555(11) 0.0852(7)
O2B O 0.5646(17) 0.1798(12) 0.1529(7)
O3B O 0.4394(11) 0.2197(8) 0.2500
O4B O 0.6675(24) 0.1848(16) 0.0000
H1B H 0.6656 0.2232 0.0386
C1B C 0.4535(25) 0.1245(18) 0.1404(10)
C2B C 0.374(5) 0.174(3) 0.176(2)
H2B H 0.3760 0.2388 0.1461
H3B H 0.2906 0.1105 0.1831
O1J O 0.4066(17) 0.3511(13) 0.4148(7)
O2J O 0.5646(17) 0.3848(12) 0.3471(7)
C1J C 0.4535(25) 0.3290(18) 0.3596(10)
C2J C 0.374(5) 0.200(4) 0.324(2)
H2J H 0.3760 0.1372 0.3539
H3J H 0.2906 0.1801 0.3169
H1Q H 0.6656 0.2232 -0.0386
Nd1C Nd 1.3333 0.6667 0.2500
O1C O 1.0555(11) 0.6489(13) 0.0852(7)
O2C O 1.1798(12) 0.6152(12) 0.1529(7)
O3C O 1.2197(8) 0.7803(8) 0.2500
O4C O 1.1848(16) 0.5173(18) 0.0000
H1C H 1.2232 0.5576 0.0386
C1C C 1.1245(18) 0.6710(18) 0.1404(10)
C2C C 1.174(3) 0.800(4) 0.176(2)
H2C H 1.2388 0.8628 0.1461
H3C H 1.1105 0.8199 0.1831
O1F O 1.3511(13) 0.9445(11) 0.4148(7)
O2F O 1.3848(12) 0.8202(12) 0.3471(7)
C1F C 1.3290(18) 0.8755(18) 0.3596(10)
C2F C 1.200(4) 0.826(3) 0.324(2)
H2F H 1.1372 0.7612 0.3539
H3F H 1.1801 0.8895 0.3169
H1L H 1.2232 0.5576 -0.0386
O1D O 0.3511(13) 0.4066(17) 0.0852(7)
O2D O 0.3848(12) 0.5646(17) 0.1529(7)
O3D O 0.2197(8) 0.4394(11) 0.2500
O4D O 0.4827(18) 0.6675(24) 0.0000
H1D H 0.4424 0.6656 0.0386
C1D C 0.3290(18) 0.4535(25) 0.1404(10)
C2D C 0.200(4) 0.374(5) 0.176(2)
H2D H 0.1372 0.3760 0.1461
H3D H 0.1801 0.2906 0.1831
O1H O 0.0555(11) 0.4066(17) 0.4148(7)
O2H O 0.1798(12) 0.5646(17) 0.3471(7)
C1H C 0.1245(18) 0.4535(25) 0.3596(10)
C2H C 0.174(3) 0.374(5) 0.324(2)
H2H H 0.2388 0.3760 0.3539
H3H H 0.1105 0.2906 0.3169
H1M H 0.4424 0.6656 -0.0386
O1E O 0.5934(17) -0.0555(11) 0.0852(7)
O2E O 0.4354(17) -0.1798(12) 0.1529(7)
O3E O 0.5606(11) -0.2197(8) 0.2500
O4E O 0.3325(24) -0.1848(16) 0.0000
H1E H 0.3344 -0.2232 0.0386
C1E C 0.5465(25) -0.1245(18) 0.1404(10)
C2E C 0.626(5) -0.174(3) 0.176(2)
H2E H 0.6240 -0.2388 0.1461
H3E H 0.7094 -0.1105 0.1831
O1G O 0.5934(17) -0.3511(13) 0.4148(7)
O2G O 0.4354(17) -0.3848(12) 0.3471(7)
C1G C 0.5465(25) -0.3290(18) 0.3596(10)
C2G C 0.626(5) -0.200(4) 0.324(2)
H2G H 0.6240 -0.1372 0.3539
H3G H 0.7094 -0.1801 0.3169
H1N H 0.3344 -0.2232 -0.0386
Nd1C_2 Nd 0.3333 -0.3333 0.2500
Nd1C_3 Nd 0.3333 0.6667 0.2500
Cd1F Cd 0.5000 0.0000 0.5000
Cd1F_2 Cd 1.5000 1.0000 0.5000
Cd1G Cd 0.5000 -0.5000 0.5000
Cd1G_2 Cd 0.5000 0.5000 0.5000
Cd1H Cd -0.0000 0.5000 0.5000
Cd1H_2 Cd 1.0000 0.5000 0.5000
O1L O 1.0555(11) 0.6489(13) -0.0852(7)
O1M O 0.3511(13) 0.4066(17) -0.0852(7)
O1N O 0.5934(17) -0.0555(11) -0.0852(7)
O1O O 0.9445(11) 0.3511(13) -0.0852(7)
O1P O 0.6489(13) 0.5934(17) -0.0852(7)
O1Q O 0.4066(17) 0.0555(11) -0.0852(7)
O2D_2 O 1.3848(12) 0.5646(17) 0.1529(7)
O2E_2 O 1.4354(17) 0.8202(12) 0.1529(7)
O2G_2 O 1.4354(17) 0.6152(12) 0.3471(7)
O2H_2 O 1.1798(12) 0.5646(17) 0.3471(7)
O3D_2 O 1.2197(8) 0.4394(11) 0.2500
O3E_2 O 1.5606(11) 0.7803(8) 0.2500
O5 O 1.0000 0.5000 0.2500
O6 O 1.0000 0.0000 0.0000
O7 O -0.0000 1.0000 0.7789(15)
O7F O -0.0000 1.0000 0.7211(15)
loop_
_geom_bond_atom_site_label_1
_geom_bond_atom_site_label_2
_geom_bond_site_symmetry_1
_geom_bond_site_symmetry_2
Nd1 O2 1_555 1_555
Cd1 O1 1_555 1_555
O1 C1 1_555 1_555
O2 C1 1_555 1_555
O3 Nd1 1_555 1_555
O4 Cd1 1_555 1_555
H1 O4 1_555 1_555
C1 C2 1_555 1_555
C2 O3 1_555 1_555
H2 C2 1_555 1_555
H3 C2 1_555 1_555
O1I C1I 1_555 1_555
O2I Nd1 1_555 1_555
C1I O2I 1_555 1_555
C2I O3 1_555 1_555
H2I C2I 1_555 1_555
H3I C2I 1_555 1_555
H1O O4 1_555 1_555
Cd1A O1A 1_555 1_555
O1A C1A 1_555 1_555
O2A Nd1 1_555 1_555
O3A Nd1 1_555 1_555
O4A Cd1A 1_555 1_555
H1A O4A 1_555 1_555
C1A O2A 1_555 1_555
C2A O3A 1_555 1_555
H2A C2A 1_555 1_555
H3A C2A 1_555 1_555
O1K C1K 1_555 1_555
O2K Nd1 1_555 1_555
C1K O2K 1_555 1_555
C2K O3A 1_555 1_555
H2K C2K 1_555 1_555
H3K C2K 1_555 1_555
H1P O4A 1_555 1_555
Cd1B O1B 1_555 1_555
O1B C1B 1_555 1_555
O2B Nd1 1_555 1_555
O3B Nd1 1_555 1_555
O4B Cd1B 1_555 1_555
H1B O4B 1_555 1_555
C1B O2B 1_555 1_555
C2B O3B 1_555 1_555
H2B C2B 1_555 1_555
H3B C2B 1_555 1_555
O1J C1J 1_555 1_555
O2J Nd1 1_555 1_555
C1J O2J 1_555 1_555
C2J O3B 1_555 1_555
H2J C2J 1_555 1_555
H3J C2J 1_555 1_555
H1Q O4B 1_555 1_555
Nd1C O2C 1_555 1_555
O1C Cd1 1_555 1_555
O2C C1C 1_555 1_555
O3C Nd1C 1_555 1_555
O4C Cd1 1_555 1_555
H1C O4C 1_555 1_555
C1C O1C 1_555 1_555
C2C O3C 1_555 1_555
H2C C2C 1_555 1_555
H3C C2C 1_555 1_555
O1F C1F 1_555 1_555
O2F Nd1C 1_555 1_555
C1F O2F 1_555 1_555
C2F O3C 1_555 1_555
H2F C2F 1_555 1_555
H3F C2F 1_555 1_555
H1L O4C 1_555 1_555
O1D Cd1A 1_555 1_555
O2D C1D 1_555 1_555
O3D C2D 1_555 1_555
O4D Cd1A 1_555 1_555
H1D O4D 1_555 1_555
C1D O1D 1_555 1_555
C2D C1D 1_555 1_555
H2D C2D 1_555 1_555
H3D C2D 1_555 1_555
O1H C1H 1_555 1_555
O2H C1H 1_555 1_555
C1H C2H 1_555 1_555
C2H O3D 1_555 1_555
H2H C2H 1_555 1_555
H3H C2H 1_555 1_555
H1M O4D 1_555 1_555
O1E Cd1B 1_555 1_555
O2E C1E 1_555 1_555
O3E C2E 1_555 1_555
O4E Cd1B 1_555 1_555
H1E O4E 1_555 1_555
C1E O1E 1_555 1_555
C2E C1E 1_555 1_555
H2E C2E 1_555 1_555
H3E C2E 1_555 1_555
O1G C1G 1_555 1_555
O2G C1G 1_555 1_555
C1G C2G 1_555 1_555
C2G O3E 1_555 1_555
H2G C2G 1_555 1_555
H3G C2G 1_555 1_555
H1N O4E 1_555 1_555
Nd1C_2 O2E 1_555 1_555
Nd1C_3 O2D 1_555 1_555
Cd1F O1I 1_555 1_555
Cd1F_2 O1F 1_555 1_555
Cd1G O1G 1_555 1_555
Cd1G_2 O1J 1_555 1_555
Cd1H O1H 1_555 1_555
Cd1H_2 O1K 1_555 1_555
O1L Cd1 1_555 1_555
O1M Cd1A 1_555 1_555
O1N Cd1B 1_555 1_555
O1O Cd1 1_555 1_555
O1P Cd1A 1_555 1_555
O1Q Cd1B 1_555 1_555
O2D_2 Nd1C 1_555 1_555
O2E_2 Nd1C 1_555 1_555
O2G_2 Nd1C 1_555 1_555
O2H_2 Nd1C 1_555 1_555
O3D_2 Nd1C 1_555 1_555
O3E_2 Nd1C 1_555 1_555
C1I C2I 1_555 1_555
C1A C2A 1_555 1_555
C1K C2K 1_555 1_555
C1B C2B 1_555 1_555
C1J C2J 1_555 1_555
C1C C2C 1_555 1_555
C1F C2F 1_555 1_555
O3D Nd1C_3 1_555 1_555
O2H Nd1C_3 1_555 1_555
O3E Nd1C_2 1_555 1_555
O2G Nd1C_2 1_555 1_555

#END
