
#######################################################################
#
#                 Cambridge Crystallographic Data Centre
#                                CCDC 
#
#######################################################################
#
# If this CIF has been generated from an entry in the Cambridge 
# Structural Database, then it will include bibliographic, chemical, 
# crystal, experimental, refinement or atomic coordinate data resulting 
# from the CCDC's data processing and validation procedures.
#
#######################################################################

data_KOMHUR
_chemical_formula_moiety         '(C24 H44 Cd3 Eu2 O40)n'
_symmetry_cell_setting           hexagonal
_symmetry_space_group_name_H-M   'P 6/m c c'
_symmetry_Int_Tables_number      192
_space_group_name_Hall           '-P 6 2c'
loop_
_symmetry_equiv_pos_site_id
_symmetry_equiv_pos_as_xyz
1 x,y,z
2 -y,x-y,z
3 -x+y,-x,z
4 -x,-y,z
5 y,-x+y,z
6 x-y,x,z
7 y,x,1/2-z
8 x-y,-y,1/2-z
9 -x,-x+y,1/2-z
10 -y,-x,1/2-z
11 -x+y,y,1/2-z
12 x,x-y,1/2-z
13 -x,-y,-z
14 y,-x+y,-z
15 x-y,x,-z
16 x,y,-z
17 -y,x-y,-z
18 -x+y,-x,-z
19 -y,-x,1/2+z
20 -x+y,y,1/2+z
21 x,x-y,1/2+z
22 y,x,1/2+z
23 x-y,-y,1/2+z
24 -x,-x+y,1/2+z
_cell_length_a                   12.7695(16)
_cell_length_b                   12.7695(16)
_cell_length_c                   17.727(3)
_cell_angle_alpha                90
_cell_angle_beta                 90
_cell_angle_gamma                120
_cell_volume                     2503.3
loop_
_atom_site_label
_atom_site_type_symbol
_atom_site_fract_x
_atom_site_fract_y
_atom_site_fract_z
Eu1 Eu 0.6667 0.3333 0.2500
Cd1 Cd 1.0000 0.5000 0.0000
O1 O 0.9406(10) 0.3496(11) 0.0846(6)
O2 O 0.8201(9) 0.3875(10) 0.1544(6)
O3 O 0.7798(7) 0.2202(7) 0.2500
O4 O 0.8156(15) 0.4864(17) 0.0000
H1 H 0.7772 0.4460 0.0386
C1 C 0.8730(15) 0.3309(16) 0.1405(9)
C2 C 0.824(3) 0.202(3) 0.1774(18)
H2 H 0.7595 0.1394 0.1477
H3 H 0.8881 0.1832 0.1841
O1I O 0.6504(11) 0.0594(10) 0.4154(6)
O2I O 0.6125(10) 0.1799(9) 0.3456(6)
C1I C 0.6691(16) 0.1270(15) 0.3595(9)
C2I C 0.798(3) 0.176(3) 0.3226(18)
H2I H 0.8606 0.2405 0.3523
H3I H 0.8168 0.1119 0.3159
H1O H 0.7772 0.4460 -0.0386
Cd1A Cd 0.5000 0.5000 0.0000
O1A O 0.6504(11) 0.5910(15) 0.0846(6)
O2A O 0.6125(10) 0.4326(13) 0.1544(6)
O3A O 0.7798(7) 0.5596(10) 0.2500
O4A O 0.5136(17) 0.3292(23) 0.0000
H1A H 0.5540 0.3312 0.0386
C1A C 0.6691(16) 0.5421(22) 0.1405(9)
C2A C 0.798(3) 0.622(4) 0.1774(18)
H2A H 0.8606 0.6201 0.1477
H3A H 0.8168 0.7049 0.1841
O1K O 0.9406(10) 0.5910(15) 0.4154(6)
O2K O 0.8201(9) 0.4326(13) 0.3456(6)
C1K C 0.8730(15) 0.5421(22) 0.3595(9)
C2K C 0.824(3) 0.622(4) 0.3226(18)
H2K H 0.7595 0.6201 0.3523
H3K H 0.8881 0.7049 0.3159
H1P H 0.5540 0.3312 -0.0386
Cd1B Cd 0.5000 0.0000 0.0000
O1B O 0.4090(15) 0.0594(10) 0.0846(6)
O2B O 0.5674(13) 0.1799(9) 0.1544(6)
O3B O 0.4404(10) 0.2202(7) 0.2500
O4B O 0.6708(23) 0.1844(15) 0.0000
H1B H 0.6688 0.2228 0.0386
C1B C 0.4579(22) 0.1270(15) 0.1405(9)
C2B C 0.378(4) 0.176(3) 0.1774(18)
H2B H 0.3799 0.2405 0.1477
H3B H 0.2951 0.1119 0.1841
O1J O 0.4090(15) 0.3496(11) 0.4154(6)
O2J O 0.5674(13) 0.3875(10) 0.3456(6)
C1J C 0.4579(22) 0.3309(16) 0.3595(9)
C2J C 0.378(4) 0.202(3) 0.3226(18)
H2J H 0.3799 0.1394 0.3523
H3J H 0.2951 0.1832 0.3159
H1Q H 0.6688 0.2228 -0.0386
Eu1C Eu 1.3333 0.6667 0.2500
O1C O 1.0594(10) 0.6504(11) 0.0846(6)
O2C O 1.1799(9) 0.6125(10) 0.1544(6)
O3C O 1.2202(7) 0.7798(7) 0.2500
O4C O 1.1844(15) 0.5136(17) 0.0000
H1C H 1.2228 0.5540 0.0386
C1C C 1.1270(15) 0.6691(16) 0.1405(9)
C2C C 1.176(3) 0.798(3) 0.1774(18)
H2C H 1.2405 0.8606 0.1477
H3C H 1.1119 0.8168 0.1841
O1F O 1.3496(11) 0.9406(10) 0.4154(6)
O2F O 1.3875(10) 0.8201(9) 0.3456(6)
C1F C 1.3309(16) 0.8730(15) 0.3595(9)
C2F C 1.202(3) 0.824(3) 0.3226(18)
H2F H 1.1394 0.7595 0.3523
H3F H 1.1832 0.8881 0.3159
H1L H 1.2228 0.5540 -0.0386
O1D O 0.3496(11) 0.4090(15) 0.0846(6)
O2D O 0.3875(10) 0.5674(13) 0.1544(6)
O3D O 0.2202(7) 0.4404(10) 0.2500
O4D O 0.4864(17) 0.6708(23) 0.0000
H1D H 0.4460 0.6688 0.0386
C1D C 0.3309(16) 0.4579(22) 0.1405(9)
C2D C 0.202(3) 0.378(4) 0.1774(18)
H2D H 0.1394 0.3799 0.1477
H3D H 0.1832 0.2951 0.1841
O1H O 0.0594(10) 0.4090(15) 0.4154(6)
O2H O 0.1799(9) 0.5674(13) 0.3456(6)
C1H C 0.1270(15) 0.4579(22) 0.3595(9)
C2H C 0.176(3) 0.378(4) 0.3226(18)
H2H H 0.2405 0.3799 0.3523
H3H H 0.1119 0.2951 0.3159
H1M H 0.4460 0.6688 -0.0386
O1E O 0.5910(15) -0.0594(10) 0.0846(6)
O2E O 0.4326(13) -0.1799(9) 0.1544(6)
O3E O 0.5596(10) -0.2202(7) 0.2500
O4E O 0.3292(23) -0.1844(15) 0.0000
H1E H 0.3312 -0.2228 0.0386
C1E C 0.5421(22) -0.1270(15) 0.1405(9)
C2E C 0.622(4) -0.176(3) 0.1774(18)
H2E H 0.6201 -0.2405 0.1477
H3E H 0.7049 -0.1119 0.1841
O1G O 0.5910(15) -0.3496(11) 0.4154(6)
O2G O 0.4326(13) -0.3875(10) 0.3456(6)
C1G C 0.5421(22) -0.3309(16) 0.3595(9)
C2G C 0.622(4) -0.202(3) 0.3226(18)
H2G H 0.6201 -0.1394 0.3523
H3G H 0.7049 -0.1832 0.3159
H1N H 0.3312 -0.2228 -0.0386
Eu1C_2 Eu 0.3333 -0.3333 0.2500
Eu1C_3 Eu 0.3333 0.6667 0.2500
Cd1F Cd 0.5000 -0.0000 0.5000
Cd1F_2 Cd 1.5000 1.0000 0.5000
Cd1G Cd 0.5000 -0.5000 0.5000
Cd1G_2 Cd 0.5000 0.5000 0.5000
Cd1H Cd -0.0000 0.5000 0.5000
Cd1H_2 Cd 1.0000 0.5000 0.5000
O1L O 1.0594(10) 0.6504(11) -0.0846(6)
O1M O 0.3496(11) 0.4090(15) -0.0846(6)
O1N O 0.5910(15) -0.0594(10) -0.0846(6)
O1O O 0.9406(10) 0.3496(11) -0.0846(6)
O1P O 0.6504(11) 0.5910(15) -0.0846(6)
O1Q O 0.4090(15) 0.0594(10) -0.0846(6)
O2D_2 O 1.3875(10) 0.5674(13) 0.1544(6)
O2E_2 O 1.4326(13) 0.8201(9) 0.1544(6)
O2G_2 O 1.4326(13) 0.6125(10) 0.3456(6)
O2H_2 O 1.1799(9) 0.5674(13) 0.3456(6)
O3D_2 O 1.2202(7) 0.4404(10) 0.2500
O3E_2 O 1.5596(10) 0.7798(7) 0.2500
O5 O 1.0000 0.5000 0.2500
O6 O 1.0000 -0.0000 1.0000
O7 O -0.0000 1.0000 0.7796(15)
O7F O -0.0000 1.0000 0.7204(15)
loop_
_geom_bond_atom_site_label_1
_geom_bond_atom_site_label_2
_geom_bond_site_symmetry_1
_geom_bond_site_symmetry_2
Eu1 O2 1_555 1_555
Cd1 O1 1_555 1_555
O1 C1 1_555 1_555
O2 C1 1_555 1_555
O3 Eu1 1_555 1_555
O4 Cd1 1_555 1_555
H1 O4 1_555 1_555
C1 C2 1_555 1_555
C2 O3 1_555 1_555
H2 C2 1_555 1_555
H3 C2 1_555 1_555
O1I C1I 1_555 1_555
O2I Eu1 1_555 1_555
C1I O2I 1_555 1_555
C2I O3 1_555 1_555
H2I C2I 1_555 1_555
H3I C2I 1_555 1_555
H1O O4 1_555 1_555
Cd1A O1A 1_555 1_555
O1A C1A 1_555 1_555
O2A Eu1 1_555 1_555
O3A Eu1 1_555 1_555
O4A Cd1A 1_555 1_555
H1A O4A 1_555 1_555
C1A O2A 1_555 1_555
C2A O3A 1_555 1_555
H2A C2A 1_555 1_555
H3A C2A 1_555 1_555
O1K C1K 1_555 1_555
O2K Eu1 1_555 1_555
C1K O2K 1_555 1_555
C2K O3A 1_555 1_555
H2K C2K 1_555 1_555
H3K C2K 1_555 1_555
H1P O4A 1_555 1_555
Cd1B O1B 1_555 1_555
O1B C1B 1_555 1_555
O2B Eu1 1_555 1_555
O3B Eu1 1_555 1_555
O4B Cd1B 1_555 1_555
H1B O4B 1_555 1_555
C1B O2B 1_555 1_555
C2B O3B 1_555 1_555
H2B C2B 1_555 1_555
H3B C2B 1_555 1_555
O1J C1J 1_555 1_555
O2J Eu1 1_555 1_555
C1J O2J 1_555 1_555
C2J O3B 1_555 1_555
H2J C2J 1_555 1_555
H3J C2J 1_555 1_555
H1Q O4B 1_555 1_555
Eu1C O2C 1_555 1_555
O1C Cd1 1_555 1_555
O2C C1C 1_555 1_555
O3C Eu1C 1_555 1_555
O4C Cd1 1_555 1_555
H1C O4C 1_555 1_555
C1C O1C 1_555 1_555
C2C O3C 1_555 1_555
H2C C2C 1_555 1_555
H3C C2C 1_555 1_555
O1F C1F 1_555 1_555
O2F Eu1C 1_555 1_555
C1F O2F 1_555 1_555
C2F O3C 1_555 1_555
H2F C2F 1_555 1_555
H3F C2F 1_555 1_555
H1L O4C 1_555 1_555
O1D Cd1A 1_555 1_555
O2D C1D 1_555 1_555
O3D C2D 1_555 1_555
O4D Cd1A 1_555 1_555
H1D O4D 1_555 1_555
C1D O1D 1_555 1_555
C2D C1D 1_555 1_555
H2D C2D 1_555 1_555
H3D C2D 1_555 1_555
O1H C1H 1_555 1_555
O2H C1H 1_555 1_555
C1H C2H 1_555 1_555
C2H O3D 1_555 1_555
H2H C2H 1_555 1_555
H3H C2H 1_555 1_555
H1M O4D 1_555 1_555
O1E Cd1B 1_555 1_555
O2E C1E 1_555 1_555
O3E C2E 1_555 1_555
O4E Cd1B 1_555 1_555
H1E O4E 1_555 1_555
C1E O1E 1_555 1_555
C2E C1E 1_555 1_555
H2E C2E 1_555 1_555
H3E C2E 1_555 1_555
O1G C1G 1_555 1_555
O2G C1G 1_555 1_555
C1G C2G 1_555 1_555
C2G O3E 1_555 1_555
H2G C2G 1_555 1_555
H3G C2G 1_555 1_555
H1N O4E 1_555 1_555
Eu1C_2 O2E 1_555 1_555
Eu1C_3 O2D 1_555 1_555
Cd1F O1I 1_555 1_555
Cd1F_2 O1F 1_555 1_555
Cd1G O1G 1_555 1_555
Cd1G_2 O1J 1_555 1_555
Cd1H O1H 1_555 1_555
Cd1H_2 O1K 1_555 1_555
O1L Cd1 1_555 1_555
O1M Cd1A 1_555 1_555
O1N Cd1B 1_555 1_555
O1O Cd1 1_555 1_555
O1P Cd1A 1_555 1_555
O1Q Cd1B 1_555 1_555
O2D_2 Eu1C 1_555 1_555
O2E_2 Eu1C 1_555 1_555
O2G_2 Eu1C 1_555 1_555
O2H_2 Eu1C 1_555 1_555
O3D_2 Eu1C 1_555 1_555
O3E_2 Eu1C 1_555 1_555
C1I C2I 1_555 1_555
C1A C2A 1_555 1_555
C1K C2K 1_555 1_555
C1B C2B 1_555 1_555
C1J C2J 1_555 1_555
C1C C2C 1_555 1_555
C1F C2F 1_555 1_555
O3D Eu1C_3 1_555 1_555
O2H Eu1C_3 1_555 1_555
O3E Eu1C_2 1_555 1_555
O2G Eu1C_2 1_555 1_555

#END
