
#######################################################################
#
#                 Cambridge Crystallographic Data Centre
#                                CCDC 
#
#######################################################################
#
# If this CIF has been generated from an entry in the Cambridge 
# Structural Database, then it will include bibliographic, chemical, 
# crystal, experimental, refinement or atomic coordinate data resulting 
# from the CCDC's data processing and validation procedures.
#
#######################################################################

data_KOMHOL
_chemical_formula_moiety         '(C24 H44 Cd3 O40 Sm2)n'
_symmetry_cell_setting           hexagonal
_symmetry_space_group_name_H-M   'P 6/m c c'
_symmetry_Int_Tables_number      192
_space_group_name_Hall           '-P 6 2c'
loop_
_symmetry_equiv_pos_site_id
_symmetry_equiv_pos_as_xyz
1 x,y,z
2 -y,x-y,z
3 -x+y,-x,z
4 -x,-y,z
5 y,-x+y,z
6 x-y,x,z
7 y,x,1/2-z
8 x-y,-y,1/2-z
9 -x,-x+y,1/2-z
10 -y,-x,1/2-z
11 -x+y,y,1/2-z
12 x,x-y,1/2-z
13 -x,-y,-z
14 y,-x+y,-z
15 x-y,x,-z
16 x,y,-z
17 -y,x-y,-z
18 -x+y,-x,-z
19 -y,-x,1/2+z
20 -x+y,y,1/2+z
21 x,x-y,1/2+z
22 y,x,1/2+z
23 x-y,-y,1/2+z
24 -x,-x+y,1/2+z
_cell_length_a                   12.8326(11)
_cell_length_b                   12.8326(11)
_cell_length_c                   17.756(2)
_cell_angle_alpha                90
_cell_angle_beta                 90
_cell_angle_gamma                120
_cell_volume                     2532.24
loop_
_atom_site_label
_atom_site_type_symbol
_atom_site_fract_x
_atom_site_fract_y
_atom_site_fract_z
Sm1 Sm 0.6667 0.3333 0.2500
O1 O 0.8199(9) 0.3869(9) 0.1542(5)
O2 O 0.7804(7) 0.2196(7) 0.2500
C1 C 0.8732(14) 0.3286(15) 0.1398(8)
C2 C 0.823(3) 0.200(3) 0.1793(17)
O3 O 0.9412(9) 0.3490(10) 0.0845(5)
H1 H 0.7582 0.1364 0.1504
H2 H 0.8863 0.1804 0.1867
Cd1 Cd 1.0000 0.5000 0.0000
O4 O 0.8130(14) 0.4822(15) 0.0000
H3 H 0.8136 0.5412 -0.0338
O1I O 0.6131(9) 0.1801(9) 0.3458(5)
C1I C 0.6714(15) 0.1268(14) 0.3602(8)
C2I C 0.800(3) 0.177(3) 0.3207(17)
O3I O 0.6510(10) 0.0588(9) 0.4155(5)
H1I H 0.8636 0.2418 0.3496
H2I H 0.8196 0.1137 0.3133
H3O H 0.8136 0.5412 0.0338
O1A O 0.6131(9) 0.4330(13) 0.1542(5)
O2A O 0.7804(7) 0.5608(10) 0.2500
C1A C 0.6714(15) 0.5446(21) 0.1398(8)
C2A C 0.800(3) 0.623(4) 0.1793(17)
O3A O 0.6510(10) 0.5922(13) 0.0845(5)
H1A H 0.8636 0.6218 0.1504
H2A H 0.8196 0.7059 0.1867
Cd1A Cd 0.5000 0.5000 0.0000
O4A O 0.5178(15) 0.3308(21) 0.0000
H3A H 0.4588 0.2724 -0.0338
O1K O 0.8199(9) 0.4330(13) 0.3458(5)
C1K C 0.8732(14) 0.5446(21) 0.3602(8)
C2K C 0.823(3) 0.623(4) 0.3207(17)
O3K O 0.9412(9) 0.5922(13) 0.4155(5)
H1K H 0.7582 0.6218 0.3496
H2K H 0.8863 0.7059 0.3133
H3P H 0.4588 0.2724 0.0338
O1B O 0.5670(13) 0.1801(9) 0.1542(5)
O2B O 0.4392(10) 0.2196(7) 0.2500
C1B C 0.4554(21) 0.1268(14) 0.1398(8)
C2B C 0.377(4) 0.177(3) 0.1793(17)
O3B O 0.4078(13) 0.0588(9) 0.0845(5)
H1B H 0.3782 0.2418 0.1504
H2B H 0.2941 0.1137 0.1867
Cd1B Cd 0.5000 0.0000 0.0000
O4B O 0.6692(21) 0.1870(14) 0.0000
H3B H 0.7276 0.1864 -0.0338
O1J O 0.5670(13) 0.3869(9) 0.3458(5)
C1J C 0.4554(21) 0.3286(15) 0.3602(8)
C2J C 0.377(4) 0.200(3) 0.3207(17)
O3J O 0.4078(13) 0.3490(10) 0.4155(5)
H1J H 0.3782 0.1364 0.3496
H2J H 0.2941 0.1804 0.3133
H3Q H 0.7276 0.1864 0.0338
Sm1C Sm 1.3333 0.6667 0.2500
O1C O 1.1801(9) 0.6131(9) 0.1542(5)
O2C O 1.2196(7) 0.7804(7) 0.2500
C1C C 1.1268(14) 0.6714(15) 0.1398(8)
C2C C 1.177(3) 0.800(3) 0.1793(17)
O3C O 1.0588(9) 0.6510(10) 0.0845(5)
H1C H 1.2418 0.8636 0.1504
H2C H 1.1137 0.8196 0.1867
O4C O 1.1870(14) 0.5178(15) 0.0000
H3C H 1.1864 0.4588 -0.0338
O1F O 1.3869(9) 0.8199(9) 0.3458(5)
C1F C 1.3286(15) 0.8732(14) 0.3602(8)
C2F C 1.200(3) 0.823(3) 0.3207(17)
O3F O 1.3490(10) 0.9412(9) 0.4155(5)
H1F H 1.1364 0.7582 0.3496
H2F H 1.1804 0.8863 0.3133
H3L H 1.1864 0.4588 0.0338
O1D O 0.3869(9) 0.5670(13) 0.1542(5)
O2D O 0.2196(7) 0.4392(10) 0.2500
C1D C 0.3286(15) 0.4554(21) 0.1398(8)
C2D C 0.200(3) 0.377(4) 0.1793(17)
O3D O 0.3490(10) 0.4078(13) 0.0845(5)
H1D H 0.1364 0.3782 0.1504
H2D H 0.1804 0.2941 0.1867
O4D O 0.4822(15) 0.6692(21) 0.0000
H3D H 0.5412 0.7276 -0.0338
O1H O 0.1801(9) 0.5670(13) 0.3458(5)
C1H C 0.1268(14) 0.4554(21) 0.3602(8)
C2H C 0.177(3) 0.377(4) 0.3207(17)
O3H O 0.0588(9) 0.4078(13) 0.4155(5)
H1H H 0.2418 0.3782 0.3496
H2H H 0.1137 0.2941 0.3133
H3M H 0.5412 0.7276 0.0338
O1E O 0.4330(13) -0.1801(9) 0.1542(5)
O2E O 0.5608(10) -0.2196(7) 0.2500
C1E C 0.5446(21) -0.1268(14) 0.1398(8)
C2E C 0.623(4) -0.177(3) 0.1793(17)
O3E O 0.5922(13) -0.0588(9) 0.0845(5)
H1E H 0.6218 -0.2418 0.1504
H2E H 0.7059 -0.1137 0.1867
O4E O 0.3308(21) -0.1870(14) 0.0000
H3E H 0.2724 -0.1864 -0.0338
O1G O 0.4330(13) -0.3869(9) 0.3458(5)
C1G C 0.5446(21) -0.3286(15) 0.3602(8)
C2G C 0.623(4) -0.200(3) 0.3207(17)
O3G O 0.5922(13) -0.3490(10) 0.4155(5)
H1G H 0.6218 -0.1364 0.3496
H2G H 0.7059 -0.1804 0.3133
H3N H 0.2724 -0.1864 0.0338
Sm1C_2 Sm 0.3333 -0.3333 0.2500
Sm1C_3 Sm 0.3333 0.6667 0.2500
O1D_2 O 1.3869(9) 0.5670(13) 0.1542(5)
O1E_2 O 1.4330(13) 0.8199(9) 0.1542(5)
O1G_2 O 1.4330(13) 0.6131(9) 0.3458(5)
O1H_2 O 1.1801(9) 0.5670(13) 0.3458(5)
O2D_2 O 1.2196(7) 0.4392(10) 0.2500
O2E_2 O 1.5608(10) 0.7804(7) 0.2500
O3L O 1.0588(9) 0.6510(10) -0.0845(5)
O3M O 0.3490(10) 0.4078(13) -0.0845(5)
O3N O 0.5922(13) -0.0588(9) -0.0845(5)
O3O O 0.9412(9) 0.3490(10) -0.0845(5)
O3P O 0.6510(10) 0.5922(13) -0.0845(5)
O3Q O 0.4078(13) 0.0588(9) -0.0845(5)
Cd1F Cd 0.5000 -0.0000 0.5000
Cd1F_2 Cd 1.5000 1.0000 0.5000
Cd1G Cd 0.5000 -0.5000 0.5000
Cd1G_2 Cd 0.5000 0.5000 0.5000
Cd1H Cd 0.0000 0.5000 0.5000
Cd1H_2 Cd 1.0000 0.5000 0.5000
O5 O 1.0000 0.5000 0.2500
O6 O 1.0000 -0.0000 1.0000
O7 O 0.0000 -0.0000 0.7794(11)
O7F O 0.0000 0.0000 0.7206(11)
loop_
_geom_bond_atom_site_label_1
_geom_bond_atom_site_label_2
_geom_bond_site_symmetry_1
_geom_bond_site_symmetry_2
Sm1 O1 1_555 1_555
O1 C1 1_555 1_555
O2 Sm1 1_555 1_555
C1 C2 1_555 1_555
C2 O2 1_555 1_555
O3 C1 1_555 1_555
H1 C2 1_555 1_555
H2 C2 1_555 1_555
Cd1 O3 1_555 1_555
O4 Cd1 1_555 1_555
H3 O4 1_555 1_555
O1I Sm1 1_555 1_555
C1I O1I 1_555 1_555
C2I O2 1_555 1_555
O3I C1I 1_555 1_555
H1I C2I 1_555 1_555
H2I C2I 1_555 1_555
H3O O4 1_555 1_555
O1A Sm1 1_555 1_555
O2A Sm1 1_555 1_555
C1A O1A 1_555 1_555
C2A O2A 1_555 1_555
O3A C1A 1_555 1_555
H1A C2A 1_555 1_555
H2A C2A 1_555 1_555
Cd1A O3A 1_555 1_555
O4A Cd1A 1_555 1_555
H3A O4A 1_555 1_555
O1K Sm1 1_555 1_555
C1K O1K 1_555 1_555
C2K O2A 1_555 1_555
O3K C1K 1_555 1_555
H1K C2K 1_555 1_555
H2K C2K 1_555 1_555
H3P O4A 1_555 1_555
O1B Sm1 1_555 1_555
O2B Sm1 1_555 1_555
C1B O1B 1_555 1_555
C2B O2B 1_555 1_555
O3B C1B 1_555 1_555
H1B C2B 1_555 1_555
H2B C2B 1_555 1_555
Cd1B O3B 1_555 1_555
O4B Cd1B 1_555 1_555
H3B O4B 1_555 1_555
O1J Sm1 1_555 1_555
C1J O1J 1_555 1_555
C2J O2B 1_555 1_555
O3J C1J 1_555 1_555
H1J C2J 1_555 1_555
H2J C2J 1_555 1_555
H3Q O4B 1_555 1_555
Sm1C O1C 1_555 1_555
O1C C1C 1_555 1_555
O2C Sm1C 1_555 1_555
C1C C2C 1_555 1_555
C2C O2C 1_555 1_555
O3C Cd1 1_555 1_555
H1C C2C 1_555 1_555
H2C C2C 1_555 1_555
O4C Cd1 1_555 1_555
H3C O4C 1_555 1_555
O1F Sm1C 1_555 1_555
C1F O1F 1_555 1_555
C2F O2C 1_555 1_555
O3F C1F 1_555 1_555
H1F C2F 1_555 1_555
H2F C2F 1_555 1_555
H3L O4C 1_555 1_555
O1D C1D 1_555 1_555
O2D C2D 1_555 1_555
C1D C2D 1_555 1_555
C2D H1D 1_555 1_555
O3D Cd1A 1_555 1_555
H2D C2D 1_555 1_555
O4D Cd1A 1_555 1_555
H3D O4D 1_555 1_555
O1H C1H 1_555 1_555
C1H C2H 1_555 1_555
C2H O2D 1_555 1_555
O3H C1H 1_555 1_555
H1H C2H 1_555 1_555
H2H C2H 1_555 1_555
H3M O4D 1_555 1_555
O1E C1E 1_555 1_555
O2E C2E 1_555 1_555
C1E C2E 1_555 1_555
C2E H1E 1_555 1_555
O3E Cd1B 1_555 1_555
H2E C2E 1_555 1_555
O4E Cd1B 1_555 1_555
H3E O4E 1_555 1_555
O1G C1G 1_555 1_555
C1G C2G 1_555 1_555
C2G O2E 1_555 1_555
O3G C1G 1_555 1_555
H1G C2G 1_555 1_555
H2G C2G 1_555 1_555
H3N O4E 1_555 1_555
Sm1C_2 O1E 1_555 1_555
Sm1C_3 O1D 1_555 1_555
O1D_2 Sm1C 1_555 1_555
O1E_2 Sm1C 1_555 1_555
O1G_2 Sm1C 1_555 1_555
O1H_2 Sm1C 1_555 1_555
O2D_2 Sm1C 1_555 1_555
O2E_2 Sm1C 1_555 1_555
O3L Cd1 1_555 1_555
O3M Cd1A 1_555 1_555
O3N Cd1B 1_555 1_555
O3O Cd1 1_555 1_555
O3P Cd1A 1_555 1_555
O3Q Cd1B 1_555 1_555
Cd1F O3I 1_555 1_555
Cd1F_2 O3F 1_555 1_555
Cd1G O3G 1_555 1_555
Cd1G_2 O3J 1_555 1_555
Cd1H O3H 1_555 1_555
Cd1H_2 O3K 1_555 1_555
C1I C2I 1_555 1_555
C1A C2A 1_555 1_555
C1K C2K 1_555 1_555
C1B C2B 1_555 1_555
C1J C2J 1_555 1_555
C1C O3C 1_555 1_555
C1F C2F 1_555 1_555
O2D Sm1C_3 1_555 1_555
C1D O3D 1_555 1_555
O1H Sm1C_3 1_555 1_555
O2E Sm1C_2 1_555 1_555
C1E O3E 1_555 1_555
O1G Sm1C_2 1_555 1_555

#END
