
#######################################################################
#
#                 Cambridge Crystallographic Data Centre
#                                CCDC 
#
#######################################################################
#
# If this CIF has been generated from an entry in the Cambridge 
# Structural Database, then it will include bibliographic, chemical, 
# crystal, experimental, refinement or atomic coordinate data resulting 
# from the CCDC's data processing and validation procedures.
#
#######################################################################

data_KOMJAZ
_chemical_formula_moiety         '(C24 H38 Cd3 Dy2 O37)n'
_symmetry_cell_setting           hexagonal
_symmetry_space_group_name_H-M   'P 6/m c c'
_symmetry_Int_Tables_number      192
_space_group_name_Hall           '-P 6 2c'
loop_
_symmetry_equiv_pos_site_id
_symmetry_equiv_pos_as_xyz
1 x,y,z
2 x-y,x,z
3 -y,x-y,z
4 -x,-y,z
5 -x+y,-x,z
6 y,-x+y,z
7 -y,-x,1/2-z
8 x-y,-y,1/2-z
9 x,x-y,1/2-z
10 y,x,1/2-z
11 -x+y,y,1/2-z
12 -x,-x+y,1/2-z
13 -x,-y,-z
14 -x+y,-x,-z
15 y,-x+y,-z
16 x,y,-z
17 x-y,x,-z
18 -y,x-y,-z
19 y,x,1/2+z
20 -x+y,y,1/2+z
21 -x,-x+y,1/2+z
22 -y,-x,1/2+z
23 x-y,-y,1/2+z
24 x,x-y,1/2+z
_cell_length_a                   12.628(2)
_cell_length_b                   12.628(2)
_cell_length_c                   17.852(4)
_cell_angle_alpha                90
_cell_angle_beta                 90
_cell_angle_gamma                120
_cell_volume                     2465.4
loop_
_atom_site_label
_atom_site_type_symbol
_atom_site_fract_x
_atom_site_fract_y
_atom_site_fract_z
Dy1 Dy 0.6667 0.3333 0.2500
Cd1 Cd 0.5000 0.0000 0.0000
C1 C 0.4605(16) 0.1313(18) 0.1400(8)
C2 C 0.382(4) 0.181(3) 0.180(2)
H1 H 0.3822 0.2468 0.1523
H2 H 0.2978 0.1160 0.1879
O1 O 0.4455(17) 0.2228(9) 0.2500
O2 O 0.5673(11) 0.1799(12) 0.1561(7)
O3 O 0.4112(11) 0.0617(11) 0.0840(6)
O4 O 0.6716(18) 0.1851(17) 0.0000
H3 H 0.6937 0.2065 0.0433
C1H C 0.4605(16) 0.3292(24) 0.3600(8)
C2H C 0.382(4) 0.201(5) 0.320(2)
H1H H 0.3822 0.1354 0.3477
H2H H 0.2978 0.1818 0.3121
O2H O 0.5673(11) 0.3874(16) 0.3439(7)
O3H O 0.4112(11) 0.3495(16) 0.4160(6)
H3O H 0.6937 0.2065 -0.0433
Cd1B Cd 1.0000 0.5000 0.0000
C1B C 0.8687(18) 0.3292(24) 0.1400(8)
C2B C 0.819(3) 0.201(5) 0.180(2)
H1B H 0.7532 0.1354 0.1523
H2B H 0.8840 0.1818 0.1879
O1B O 0.7772(9) 0.2227(19) 0.2500
O2B O 0.8201(12) 0.3874(16) 0.1561(7)
O3B O 0.9383(11) 0.3495(16) 0.0840(6)
O4B O 0.8149(17) 0.4865(25) 0.0000
H3B H 0.7935 0.4872 0.0433
C1J C 0.6708(24) 0.1313(18) 0.3600(8)
C2J C 0.799(5) 0.181(3) 0.320(2)
H1J H 0.8646 0.2468 0.3477
H2J H 0.8182 0.1160 0.3121
O2J O 0.6126(16) 0.1799(12) 0.3439(7)
O3J O 0.6505(16) 0.0617(11) 0.4160(6)
H3Q H 0.7935 0.4872 -0.0433
Dy1A Dy 0.3334 -0.3333 0.2500
C1C C 0.5395(16) -0.1313(18) 0.1400(8)
C2C C 0.618(4) -0.181(3) 0.180(2)
H1C H 0.6178 -0.2468 0.1523
H2C H 0.7022 -0.1160 0.1879
O1C O 0.5545(17) -0.2228(9) 0.2500
O2C O 0.4327(11) -0.1799(12) 0.1561(7)
O3C O 0.5888(11) -0.0617(11) 0.0840(6)
O4C O 0.3284(18) -0.1851(17) 0.0000
H3C H 0.3063 -0.2065 0.0433
C1K C 0.5395(16) -0.3292(24) 0.3600(8)
C2K C 0.618(4) -0.201(5) 0.320(2)
H1K H 0.6178 -0.1354 0.3477
H2K H 0.7022 -0.1818 0.3121
O2K O 0.4327(11) -0.3874(16) 0.3439(7)
O3K O 0.5888(11) -0.3495(16) 0.4160(6)
H3L H 0.3063 -0.2065 -0.0433
Cd1A Cd 0.5000 0.5000 0.0000
C1D C 0.6708(24) 0.5395(16) 0.1400(8)
C2D C 0.799(5) 0.618(4) 0.180(2)
H1D H 0.8646 0.6178 0.1523
H2D H 0.8182 0.7022 0.1879
O1D O 0.7773(19) 0.5545(17) 0.2500
O2D O 0.6126(16) 0.4327(11) 0.1561(7)
O3D O 0.6505(16) 0.5888(11) 0.0840(6)
O4D O 0.5135(25) 0.3284(18) 0.0000
H3D H 0.5128 0.3063 0.0433
C1F C 0.8687(18) 0.5395(16) 0.3600(8)
C2F C 0.819(3) 0.618(4) 0.320(2)
H1F H 0.7532 0.6178 0.3477
H2F H 0.8840 0.7022 0.3121
O2F O 0.8201(12) 0.4327(11) 0.3439(7)
O3F O 0.9383(11) 0.5888(11) 0.4160(6)
H3M H 0.5128 0.3063 -0.0433
C1E C 0.1313(18) -0.3292(24) 0.1400(8)
C2E C 0.181(3) -0.201(5) 0.180(2)
H1E H 0.2468 -0.1354 0.1523
H2E H 0.1160 -0.1818 0.1879
O1E O 0.2228(9) -0.2227(19) 0.2500
O2E O 0.1799(12) -0.3874(16) 0.1561(7)
O3E O 0.0617(11) -0.3495(16) 0.0840(6)
C1G C 0.3292(24) -0.1313(18) 0.3600(8)
C2G C 0.201(5) -0.181(3) 0.320(2)
H1G H 0.1354 -0.2468 0.3477
H2G H 0.1818 -0.1160 0.3121
O2G O 0.3874(16) -0.1799(12) 0.3439(7)
O3G O 0.3495(16) -0.0617(11) 0.4160(6)
C1L C 0.5395(16) -0.1313(18) -0.1400(8)
C2L C 0.618(4) -0.181(3) -0.180(2)
H1L H 0.6178 -0.2468 -0.1523
H2L H 0.7022 -0.1160 -0.1879
O1L O 0.5545(17) -0.2228(9) -0.2500
O2L O 0.4327(11) -0.1799(12) -0.1561(7)
O3L O 0.5888(11) -0.0617(11) -0.0840(6)
C1T C 0.5395(16) -0.3292(24) -0.3600(8)
C2T C 0.618(4) -0.201(5) -0.320(2)
H1T H 0.6178 -0.1354 -0.3477
H2T H 0.7022 -0.1818 -0.3121
O2T O 0.4327(11) -0.3874(16) -0.3439(7)
O3T O 0.5888(11) -0.3495(16) -0.4160(6)
O4E O 1.1851(17) 0.5135(25) 0.0000
H3E H 1.2065 0.5128 0.0433
H3N H 1.2065 0.5128 -0.0433
O4A O 0.4865(25) 0.6716(18) 0.0000
H3P H 0.4872 0.6937 -0.0433
H3A H 0.4872 0.6937 0.0433
Dy1L Dy 0.3333 -0.3333 -0.2500
Cd1B_2 Cd -0.0000 -0.5000 0.0000
Cd1F Cd 1.0000 0.5000 0.5000
Cd1G Cd 0.5000 0.0000 0.5000
Cd1H Cd 0.5000 -0.5000 -0.5000
Cd1H_2 Cd 0.5000 -0.5000 0.5000
Cd1H_3 Cd 0.5000 0.5000 0.5000
O1A O 0.2227(19) -0.5545(17) 0.2500
O2A O 0.3874(16) -0.4327(11) 0.1561(7)
O2I O 0.1799(12) -0.4327(11) 0.3439(7)
O3A O 0.3495(16) 0.4112(11) 0.0840(6)
O3E_2 O 1.0617(11) 0.6505(16) 0.0840(6)
O3M O 0.6505(16) 0.5888(11) -0.0840(6)
O3N O 1.0617(11) 0.6505(16) -0.0840(6)
O3O O 0.4112(11) 0.0617(11) -0.0840(6)
O3P O 0.3495(16) 0.4112(11) -0.0840(6)
O3Q O 0.9383(11) 0.3495(16) -0.0840(6)
O5 O 0.0000 0.0000 0.0000
loop_
_geom_bond_atom_site_label_1
_geom_bond_atom_site_label_2
_geom_bond_site_symmetry_1
_geom_bond_site_symmetry_2
Dy1 O1 1_555 1_555
Cd1 O3 1_555 1_555
C1 C2 1_555 1_555
C2 H1 1_555 1_555
H2 C2 1_555 1_555
O1 C2 1_555 1_555
O2 Dy1 1_555 1_555
O3 C1 1_555 1_555
O4 Cd1 1_555 1_555
H3 O4 1_555 1_555
C1H C2H 1_555 1_555
C2H O1 1_555 1_555
H1H C2H 1_555 1_555
H2H C2H 1_555 1_555
O2H Dy1 1_555 1_555
O3H C1H 1_555 1_555
H3O O4 1_555 1_555
Cd1B O3B 1_555 1_555
C1B C2B 1_555 1_555
C2B H1B 1_555 1_555
H2B C2B 1_555 1_555
O1B Dy1 1_555 1_555
O2B Dy1 1_555 1_555
O3B C1B 1_555 1_555
O4B Cd1B 1_555 1_555
H3B O4B 1_555 1_555
C1J C2J 1_555 1_555
C2J O1B 1_555 1_555
H1J C2J 1_555 1_555
H2J C2J 1_555 1_555
O2J Dy1 1_555 1_555
O3J C1J 1_555 1_555
H3Q O4B 1_555 1_555
Dy1A O1C 1_555 1_555
C1C C2C 1_555 1_555
C2C H1C 1_555 1_555
H2C C2C 1_555 1_555
O1C C2C 1_555 1_555
O2C Dy1A 1_555 1_555
O3C Cd1 1_555 1_555
O4C Cd1 1_555 1_555
H3C O4C 1_555 1_555
C1K C2K 1_555 1_555
C2K O1C 1_555 1_555
H1K C2K 1_555 1_555
H2K C2K 1_555 1_555
O2K Dy1A 1_555 1_555
O3K C1K 1_555 1_555
H3L O4C 1_555 1_555
Cd1A O3D 1_555 1_555
C1D C2D 1_555 1_555
C2D H1D 1_555 1_555
H2D C2D 1_555 1_555
O1D Dy1 1_555 1_555
O2D Dy1 1_555 1_555
O3D C1D 1_555 1_555
O4D Cd1A 1_555 1_555
H3D O4D 1_555 1_555
C1F C2F 1_555 1_555
C2F O1D 1_555 1_555
H1F C2F 1_555 1_555
H2F C2F 1_555 1_555
O2F Dy1 1_555 1_555
O3F C1F 1_555 1_555
H3M O4D 1_555 1_555
C1E C2E 1_555 1_555
C2E H1E 1_555 1_555
H2E C2E 1_555 1_555
O1E Dy1A 1_555 1_555
O2E Dy1A 1_555 1_555
O3E C1E 1_555 1_555
C1G C2G 1_555 1_555
C2G O1E 1_555 1_555
H1G C2G 1_555 1_555
H2G C2G 1_555 1_555
O2G Dy1A 1_555 1_555
O3G C1G 1_555 1_555
C1L C2L 1_555 1_555
C2L H1L 1_555 1_555
H2L C2L 1_555 1_555
O1L C2L 1_555 1_555
O2L C1L 1_555 1_555
O3L Cd1 1_555 1_555
C1T C2T 1_555 1_555
C2T O1L 1_555 1_555
H1T C2T 1_555 1_555
H2T C2T 1_555 1_555
O2T C1T 1_555 1_555
O3T C1T 1_555 1_555
O4E Cd1B 1_555 1_555
H3E O4E 1_555 1_555
H3N O4E 1_555 1_555
O4A Cd1A 1_555 1_555
H3P O4A 1_555 1_555
H3A O4A 1_555 1_555
Dy1L O1L 1_555 1_555
Cd1B_2 O3E 1_555 1_555
Cd1F O3F 1_555 1_555
Cd1G O3J 1_555 1_555
Cd1H O3T 1_555 1_555
Cd1H_2 O3K 1_555 1_555
Cd1H_3 O3H 1_555 1_555
O1A Dy1A 1_555 1_555
O2A Dy1A 1_555 1_555
O2I Dy1A 1_555 1_555
O3A Cd1A 1_555 1_555
O3E_2 Cd1B 1_555 1_555
O3M Cd1A 1_555 1_555
O3N Cd1B 1_555 1_555
O3O Cd1 1_555 1_555
O3P Cd1A 1_555 1_555
O3Q Cd1B 1_555 1_555
C1 O2 1_555 1_555
C1H O2H 1_555 1_555
C1B O2B 1_555 1_555
C2B O1B 1_555 1_555
C1J O2J 1_555 1_555
C1C O2C 1_555 1_555
C1C O3C 1_555 1_555
C1K O2K 1_555 1_555
C1D O2D 1_555 1_555
C2D O1D 1_555 1_555
C1F O2F 1_555 1_555
C1E O2E 1_555 1_555
C2E O1E 1_555 1_555
C1G O2G 1_555 1_555
O3G Cd1G 1_555 1_555
C1L O3L 1_555 1_555
O2L Dy1L 1_555 1_555
O2T Dy1L 1_555 1_555

#END
