
#######################################################################
#
#                 Cambridge Crystallographic Data Centre
#                                CCDC 
#
#######################################################################
#
# If this CIF has been generated from an entry in the Cambridge 
# Structural Database, then it will include bibliographic, chemical, 
# crystal, experimental, refinement or atomic coordinate data resulting 
# from the CCDC's data processing and validation procedures.
#
#######################################################################

data_KOMJIH
_chemical_formula_moiety         '(C12 H28 Cd2 Ho1 O23)n'
_symmetry_cell_setting           cubic
_symmetry_space_group_name_H-M   'F d -3 c'
_symmetry_Int_Tables_number      228
_space_group_name_Hall           '-F 4ud 2vw 3'
loop_
_symmetry_equiv_pos_site_id
_symmetry_equiv_pos_as_xyz
1 x,y,z
2 -y,1/4+x,3/4+z
3 3/4-x,1/4-y,1/2+z
4 3/4+y,-x,1/4+z
5 x,1/4-y,1/4-z
6 3/4+y,1/4+x,-z
7 3/4-x,y,3/4-z
8 -y,-x,1/2-z
9 z,x,y
10 -x,1/4+z,3/4+y
11 3/4-z,1/4-x,1/2+y
12 3/4+x,-z,1/4+y
13 z,1/4-x,1/4-y
14 3/4+x,1/4+z,-y
15 3/4-z,x,3/4-y
16 -x,-z,1/2-y
17 y,z,x
18 1/2-z,-y,-x
19 -z,3/4+y,1/4+x
20 1/4+z,3/4+y,-x
21 3/4+z,-y,1/4+x
22 y,3/4-z,3/4-x
23 1/4-y,1/4-z,x
24 1/4-y,1/2+z,3/4-x
25 x,1/2+y,1/2+z
26 -y,3/4+x,1/4+z
27 3/4-x,3/4-y,z
28 3/4+y,1/2-x,3/4+z
29 x,3/4-y,3/4-z
30 3/4+y,3/4+x,1/2-z
31 3/4-x,1/2+y,1/4-z
32 -y,1/2-x,-z
33 z,1/2+x,1/2+y
34 -x,3/4+z,1/4+y
35 3/4-z,3/4-x,y
36 3/4+x,1/2-z,3/4+y
37 z,3/4-x,3/4-y
38 3/4+x,3/4+z,1/2-y
39 3/4-z,1/2+x,1/4-y
40 -x,1/2-z,-y
41 y,1/2+z,1/2+x
42 1/2-z,1/2-y,1/2-x
43 -z,1/4+y,3/4+x
44 1/4+z,1/4+y,1/2-x
45 3/4+z,1/2-y,3/4+x
46 y,1/4-z,1/4-x
47 1/4-y,3/4-z,1/2+x
48 1/4-y,z,1/4-x
49 1/2+x,y,1/2+z
50 1/2-y,1/4+x,1/4+z
51 1/4-x,1/4-y,z
52 1/4+y,-x,3/4+z
53 1/2+x,1/4-y,3/4-z
54 1/4+y,1/4+x,1/2-z
55 1/4-x,y,1/4-z
56 1/2-y,-x,-z
57 1/2+z,x,1/2+y
58 1/2-x,1/4+z,1/4+y
59 1/4-z,1/4-x,y
60 1/4+x,-z,3/4+y
61 1/2+z,1/4-x,3/4-y
62 1/4+x,1/4+z,1/2-y
63 1/4-z,x,1/4-y
64 1/2-x,-z,-y
65 1/2+y,z,1/2+x
66 -z,-y,1/2-x
67 1/2-z,3/4+y,3/4+x
68 3/4+z,3/4+y,1/2-x
69 1/4+z,-y,3/4+x
70 1/2+y,3/4-z,1/4-x
71 3/4-y,1/4-z,1/2+x
72 3/4-y,1/2+z,1/4-x
73 1/2+x,1/2+y,z
74 1/2-y,3/4+x,3/4+z
75 1/4-x,3/4-y,1/2+z
76 1/4+y,1/2-x,1/4+z
77 1/2+x,3/4-y,1/4-z
78 1/4+y,3/4+x,-z
79 1/4-x,1/2+y,3/4-z
80 1/2-y,1/2-x,1/2-z
81 1/2+z,1/2+x,y
82 1/2-x,3/4+z,3/4+y
83 1/4-z,3/4-x,1/2+y
84 1/4+x,1/2-z,1/4+y
85 1/2+z,3/4-x,1/4-y
86 1/4+x,3/4+z,-y
87 1/4-z,1/2+x,3/4-y
88 1/2-x,1/2-z,1/2-y
89 1/2+y,1/2+z,x
90 -z,1/2-y,-x
91 1/2-z,1/4+y,1/4+x
92 3/4+z,1/4+y,-x
93 1/4+z,1/2-y,1/4+x
94 1/2+y,1/4-z,3/4-x
95 3/4-y,3/4-z,x
96 3/4-y,z,3/4-x
97 -x,-y,-z
98 y,3/4-x,1/4-z
99 1/4+x,3/4+y,1/2-z
100 1/4-y,x,3/4-z
101 -x,3/4+y,3/4+z
102 1/4-y,3/4-x,z
103 1/4+x,-y,1/4+z
104 y,x,1/2+z
105 -z,-x,-y
106 x,3/4-z,1/4-y
107 1/4+z,3/4+x,1/2-y
108 1/4-x,z,3/4-y
109 -z,3/4+x,3/4+y
110 1/4-x,3/4-z,y
111 1/4+z,-x,1/4+y
112 x,z,1/2+y
113 -y,-z,-x
114 1/2+z,y,x
115 z,1/4-y,3/4-x
116 3/4-z,1/4-y,x
117 1/4-z,y,3/4-x
118 -y,1/4+z,1/4+x
119 3/4+y,3/4+z,-x
120 3/4+y,1/2-z,1/4+x
121 -x,1/2-y,1/2-z
122 y,1/4-x,3/4-z
123 1/4+x,1/4+y,-z
124 1/4-y,1/2+x,1/4-z
125 -x,1/4+y,1/4+z
126 1/4-y,1/4-x,1/2+z
127 1/4+x,1/2-y,3/4+z
128 y,1/2+x,z
129 -z,1/2-x,1/2-y
130 x,1/4-z,3/4-y
131 1/4+z,1/4+x,-y
132 1/4-x,1/2+z,1/4-y
133 -z,1/4+x,1/4+y
134 1/4-x,1/4-z,1/2+y
135 1/4+z,1/2-x,3/4+y
136 x,1/2+z,y
137 -y,1/2-z,1/2-x
138 1/2+z,1/2+y,1/2+x
139 z,3/4-y,1/4-x
140 3/4-z,3/4-y,1/2+x
141 1/4-z,1/2+y,1/4-x
142 -y,3/4+z,3/4+x
143 3/4+y,1/4+z,1/2-x
144 3/4+y,-z,3/4+x
145 1/2-x,-y,1/2-z
146 1/2+y,3/4-x,3/4-z
147 3/4+x,3/4+y,-z
148 3/4-y,x,1/4-z
149 1/2-x,3/4+y,1/4+z
150 3/4-y,3/4-x,1/2+z
151 3/4+x,-y,3/4+z
152 1/2+y,x,z
153 1/2-z,-x,1/2-y
154 1/2+x,3/4-z,3/4-y
155 3/4+z,3/4+x,-y
156 3/4-x,z,1/4-y
157 1/2-z,3/4+x,1/4+y
158 3/4-x,3/4-z,1/2+y
159 3/4+z,-x,3/4+y
160 1/2+x,z,y
161 1/2-y,-z,1/2-x
162 z,y,1/2+x
163 1/2+z,1/4-y,1/4-x
164 1/4-z,1/4-y,1/2+x
165 3/4-z,y,1/4-x
166 1/2-y,1/4+z,3/4+x
167 1/4+y,3/4+z,1/2-x
168 1/4+y,1/2-z,3/4+x
169 1/2-x,1/2-y,-z
170 1/2+y,1/4-x,1/4-z
171 3/4+x,1/4+y,1/2-z
172 3/4-y,1/2+x,3/4-z
173 1/2-x,1/4+y,3/4+z
174 3/4-y,1/4-x,z
175 3/4+x,1/2-y,1/4+z
176 1/2+y,1/2+x,1/2+z
177 1/2-z,1/2-x,-y
178 1/2+x,1/4-z,1/4-y
179 3/4+z,1/4+x,1/2-y
180 3/4-x,1/2+z,3/4-y
181 1/2-z,1/4+x,3/4+y
182 3/4-x,1/4-z,y
183 3/4+z,1/2-x,1/4+y
184 1/2+x,1/2+z,1/2+y
185 1/2-y,1/2-z,-x
186 z,1/2+y,x
187 1/2+z,3/4-y,3/4-x
188 1/4-z,3/4-y,x
189 3/4-z,1/2+y,3/4-x
190 1/2-y,3/4+z,1/4+x
191 1/4+y,1/4+z,-x
192 1/4+y,-z,1/4+x
_cell_length_a                   26.179(3)
_cell_length_b                   26.179(3)
_cell_length_c                   26.179(3)
_cell_angle_alpha                90
_cell_angle_beta                 90
_cell_angle_gamma                90
_cell_volume                     17941.5
loop_
_atom_site_label
_atom_site_type_symbol
_atom_site_fract_x
_atom_site_fract_y
_atom_site_fract_z
Ho1 Ho 0.0000 0.2500 0.0000
Cd1 Cd 0.0000 0.5000 0.0000
O1 O 0.0142(4) 0.4175(4) -0.0222(4)
O2 O 0.0089(4) 0.3343(3) -0.0300(3)
O3 O -0.0000 0.3156(3) 0.0656(3)
C1 C 0.0087(5) 0.3736(4) -0.0012(5)
C2 C 0.0031(6) 0.3674(5) 0.0546(6)
H1 H 0.0321 0.3824 0.0720
H2 H -0.0276 0.3847 0.0662
O1I O -0.0142(4) 0.2278(4) 0.1675(4)
O2I O -0.0089(4) 0.2200(3) 0.0843(3)
C1I C -0.0087(5) 0.2488(5) 0.1236(4)
C2I C -0.0031(6) 0.3046(6) 0.1174(5)
H1I H -0.0321 0.3220 0.1324
H2I H 0.0276 0.3162 0.1347
O1E O 0.1675(4) 0.2642(4) 0.0222(4)
O2E O 0.0843(3) 0.2589(4) 0.0300(3)
O3E O 0.0656(3) 0.2500 -0.0656(3)
C1E C 0.1236(4) 0.2587(5) 0.0012(5)
C2E C 0.1174(5) 0.2531(6) -0.0546(6)
H1E H 0.1324 0.2821 -0.0720
H2E H 0.1347 0.2224 -0.0662
O1L O -0.0222(4) 0.2358(4) -0.1675(4)
O2L O -0.0300(3) 0.2411(4) -0.0843(3)
C1L C -0.0012(5) 0.2413(5) -0.1236(4)
C2L C 0.0546(6) 0.2469(6) -0.1174(5)
H1L H 0.0720 0.2179 -0.1324
H2L H 0.0662 0.2776 -0.1347
O1V O -0.1675(4) 0.2722(4) 0.0142(4)
O2V O -0.0843(3) 0.2800(3) 0.0089(4)
O3V O -0.0656(3) 0.1844(3) 0.0000
C1V C -0.1236(4) 0.2512(5) 0.0087(5)
C2V C -0.1174(5) 0.1954(6) 0.0031(6)
H1V H -0.1324 0.1780 0.0321
H2V H -0.1347 0.1838 -0.0276
O1KC O 0.0222(4) 0.0825(4) -0.0142(4)
O2KC O 0.0300(3) 0.1657(3) -0.0089(4)
C1KC C 0.0012(5) 0.1264(4) -0.0087(5)
C2KC C -0.0546(6) 0.1326(5) -0.0031(6)
H1KC H -0.0720 0.1176 -0.0321
H2KC H -0.0662 0.1153 0.0276
Cd1E Cd 0.2500 0.2500 0.0000
Cd1I Cd 0.0000 0.2500 0.2500
Cd1J Cd -0.2500 0.2500 0.0000
Cd1L Cd 0.0000 0.2500 -0.2500
Cd1O Cd 0.0000 0.0000 0.0000
O1FA O -0.0222(4) 0.5142(4) -0.0825(4)
O1JC O -0.0825(4) 0.4778(4) 0.0142(4)
O1RC O -0.0142(4) 0.5825(4) 0.0222(4)
O1XD O 0.0222(4) 0.4858(4) 0.0825(4)
O1BG O 0.0825(4) 0.5222(4) -0.0142(4)
Cd2 Cd 0.1250 0.1250 0.1250
O4 O 0.0388(7) 0.1250 0.1250
H3 H 0.0283 0.1019 0.1066
H3D H 0.0283 0.1481 0.1434
O4H O 0.1250 0.0388(7) 0.1250
H3H H 0.1066 0.0283 0.1019
H3JB H 0.1434 0.0283 0.1481
O4L O 0.1250 0.2112(7) 0.1250
H3L H 0.1066 0.2217 0.1481
H3FB H 0.1434 0.2217 0.1019
O4P O 0.1250 0.1250 0.0388(7)
H3P H 0.1019 0.1066 0.0283
H3V H 0.1481 0.1434 0.0283
O4SA O 0.1250 0.1250 0.2112(7)
H3SA H 0.1019 0.1434 0.2217
H3UA H 0.1481 0.1066 0.2217
O4XA O 0.2112(7) 0.1250 0.1250
H3XA H 0.2217 0.1481 0.1066
H3BB H 0.2217 0.1019 0.1434
O5 O 0.9225(18) 0.1250 0.1250
O6 O 0.094(6) 0.344(6) 0.0000
loop_
_geom_bond_atom_site_label_1
_geom_bond_atom_site_label_2
_geom_bond_site_symmetry_1
_geom_bond_site_symmetry_2
Ho1 O2 1_555 1_555
Cd1 O1 1_555 1_555
O1 C1 1_555 1_555
O2 C1 1_555 1_555
O3 Ho1 1_555 1_555
C1 C2 1_555 1_555
C2 O3 1_555 1_555
H1 C2 1_555 1_555
H2 C2 1_555 1_555
Cd2 O4 1_555 1_555
O4 H3 1_555 1_555
O1I C1I 1_555 1_555
O2I Ho1 1_555 1_555
C1I O2I 1_555 1_555
C2I O3 1_555 1_555
H1I C2I 1_555 1_555
H2I C2I 1_555 1_555
O1E C1E 1_555 1_555
O2E Ho1 1_555 1_555
O3E Ho1 1_555 1_555
C1E O2E 1_555 1_555
C2E O3E 1_555 1_555
H1E C2E 1_555 1_555
H2E C2E 1_555 1_555
O1L C1L 1_555 1_555
O2L Ho1 1_555 1_555
C1L O2L 1_555 1_555
C2L O3E 1_555 1_555
H1L C2L 1_555 1_555
H2L C2L 1_555 1_555
O1V C1V 1_555 1_555
O2V Ho1 1_555 1_555
O3V Ho1 1_555 1_555
C1V O2V 1_555 1_555
C2V O3V 1_555 1_555
H1V C2V 1_555 1_555
H2V C2V 1_555 1_555
O1KC C1KC 1_555 1_555
O2KC Ho1 1_555 1_555
C1KC O2KC 1_555 1_555
C2KC O3V 1_555 1_555
H1KC C2KC 1_555 1_555
H2KC C2KC 1_555 1_555
Cd1E O1E 1_555 1_555
Cd1I O1I 1_555 1_555
Cd1J O1V 1_555 1_555
Cd1L O1L 1_555 1_555
Cd1O O1KC 1_555 1_555
O1FA Cd1 1_555 1_555
O1JC Cd1 1_555 1_555
O1RC Cd1 1_555 1_555
O1XD Cd1 1_555 1_555
O1BG Cd1 1_555 1_555
H3D O4 1_555 1_555
O4H Cd2 1_555 1_555
H3H O4H 1_555 1_555
H3JB O4H 1_555 1_555
O4L Cd2 1_555 1_555
H3L O4L 1_555 1_555
H3FB O4L 1_555 1_555
O4P Cd2 1_555 1_555
H3P O4P 1_555 1_555
H3V O4P 1_555 1_555
O4SA Cd2 1_555 1_555
H3SA O4SA 1_555 1_555
H3UA O4SA 1_555 1_555
O4XA Cd2 1_555 1_555
H3XA O4XA 1_555 1_555
H3BB O4XA 1_555 1_555
C1I C2I 1_555 1_555
C1E C2E 1_555 1_555
C1L C2L 1_555 1_555
C1V C2V 1_555 1_555
C1KC C2KC 1_555 1_555

#END
