
#######################################################################
#
#                 Cambridge Crystallographic Data Centre
#                                CCDC 
#
#######################################################################
#
# If this CIF has been generated from an entry in the Cambridge 
# Structural Database, then it will include bibliographic, chemical, 
# crystal, experimental, refinement or atomic coordinate data resulting 
# from the CCDC's data processing and validation procedures.
#
#######################################################################

data_MUNPER
_chemical_formula_moiety         '(C50 H26 Cl6 N4 O12 Zn2)n'
_symmetry_cell_setting           monoclinic
_symmetry_space_group_name_H-M   'P 21'
_symmetry_Int_Tables_number      4
_space_group_name_Hall           'P 2yb'
loop_
_symmetry_equiv_pos_site_id
_symmetry_equiv_pos_as_xyz
1 x,y,z
2 -x,1/2+y,-z
_cell_length_a                   12.972(4)
_cell_length_b                   22.296(7)
_cell_length_c                   12.988(4)
_cell_angle_alpha                90
_cell_angle_beta                 109.376(5)
_cell_angle_gamma                90
_cell_volume                     3543.68
loop_
_atom_site_label
_atom_site_type_symbol
_atom_site_fract_x
_atom_site_fract_y
_atom_site_fract_z
Zn1 Zn -0.14682(14) -0.78668(7) -1.24752(17)
Zn2 Zn -0.13356(14) -0.91750(7) -1.26241(17)
O1 O -0.3059(10) -0.8057(6) -1.2804(11)
C1 C -0.3473(14) -0.8607(10) -1.2953(15)
O2 O -0.2985(10) -0.9085(7) -1.2960(11)
O3 O -0.1254(10) -0.8107(5) -1.0907(11)
C2 C -0.1228(14) -0.8638(8) -1.0495(14)
O4 O -0.1161(11) -0.9099(6) -1.1048(11)
O5 O -0.9793(10) -0.7990(6) -1.2129(12)
C3 C -0.9335(11) -0.8467(9) -1.2277(12)
O6 O -0.9719(9) -0.8960(5) -1.2283(10)
O7 O -0.1593(11) -0.7928(8) -0.4033(11)
C4 C -0.1511(12) -0.8424(7) -0.4519(13)
O8 O -0.1484(12) -0.8930(7) -0.4149(11)
N1 N -0.1467(9) -0.6971(6) -1.2338(11)
C5 C -0.2400(17) -0.6671(9) -1.2987(18)
H1 H -0.3036 -0.6883 -1.3406
C6 C -0.2359(18) -0.6027(10) -1.2996(19)
H2 H -0.2953 -0.5809 -1.3479
C7 C -0.1463(12) -0.5718(8) -1.2311(15)
C8 C -0.0577(17) -0.6025(10) -1.1595(18)
H3 H 0.0026 -0.5821 -1.1096
C9 C -0.0630(14) -0.6664(7) -1.1657(14)
H4 H -0.0034 -0.6886 -1.1185
N2 N -0.1456(12) -0.5104(8) -1.2352(13)
C10 C -0.1406(13) -0.4778(8) -1.1355(16)
C11 C -0.1429(11) -0.4121(9) -1.1393(14)
C12 C -0.1403(16) -0.3794(10) -1.0527(18)
H5 H -0.1367 -0.3978 -0.9857
C13 C -0.1429(15) -0.3183(9) -1.0637(15)
H6 H -0.1499 -0.2957 -1.0044
C14 C -0.1361(13) -0.2845(10) -1.1567(15)
C15 C -0.1352(17) -0.2219(10) -1.1629(19)
N3 N -0.1271(12) -0.1980(8) -1.2511(13)
C16 C -0.1312(15) -0.2222(8) -1.3427(18)
C17 C -0.1413(14) -0.2926(9) -1.3391(14)
C18 C -0.1356(17) -0.3246(11) -1.4329(18)
H7 H -0.1251 -0.3063 -1.4948
C19 C -0.1480(15) -0.3894(8) -1.4202(15)
H8 H -0.1597 -0.4134 -1.4835
C20 C -0.1449(15) -0.4157(11) -1.3364(16)
C21 C -0.1520(18) -0.4839(10) -1.337(2)
C22 C -0.1464(12) -0.3813(9) -1.2440(14)
C23 C -0.1433(14) -0.3167(11) -1.2406(15)
O9 O -0.1499(12) -0.5045(6) -1.0513(13)
O10 O -0.1281(12) -0.1889(6) -1.0746(12)
O11 O -0.1362(14) -0.2004(6) -1.4261(12)
O12 O -0.1476(13) -0.5125(6) -1.4059(12)
C24 C -0.4633(15) -0.8640(9) -1.2920(16)
C25 C -0.5114(14) -0.9262(9) -1.3019(15)
H9 H -0.4731 -0.9598 -1.3160
C26 C -0.6091(17) -0.9329(10) -1.2904(18)
H10 H -0.6398 -0.9717 -1.2919
C27 C -0.6692(17) -0.8788(11) -1.2752(17)
C28 C -0.7804(17) -0.8847(10) -1.2680(17)
H11 H -0.8169 -0.9223 -1.2826
C29 C -0.8295(14) -0.8379(8) -1.2414(15)
C30 C -0.7834(16) -0.7814(11) -1.2477(17)
H12 H -0.8230 -0.7458 -1.2455
C31 C -0.6861(14) -0.7779(9) -1.2567(15)
H13 H -0.6558 -0.7387 -1.2509
C32 C -0.6241(13) -0.8216(9) -1.2727(15)
C33 C -0.5194(13) -0.8160(9) -1.2782(15)
H14 H -0.4870 -0.7774 -1.2721
C34 C -0.1301(12) -0.8695(7) -0.9448(14)
C35 C -0.1260(14) -0.9262(9) -0.8964(16)
H15 H -0.1166 -0.9610 -0.9345
C36 C -0.1351(13) -0.9317(8) -0.7962(15)
H16 H -0.1380 -0.9709 -0.7683
C37 C -0.1406(12) -0.8820(8) -0.7314(14)
C38 C -0.1477(14) -0.8845(8) -0.6302(15)
H17 H -0.1524 -0.9232 -0.6016
C39 C -0.1489(13) -0.8366(7) -0.5649(14)
C40 C -0.1491(12) -0.7811(9) -0.6108(13)
H18 H -0.1468 -0.7466 -0.5672
C41 C -0.1526(16) -0.7729(10) -0.7179(17)
H19 H -0.1615 -0.7338 -0.7487
C42 C -0.1427(14) -0.8233(9) -0.7817(16)
C43 C -0.1397(14) -0.8186(9) -0.8850(15)
H20 H -0.1442 -0.7801 -0.9175
N4 N -0.1279(11) -0.0087(8) -1.2603(12)
C44 C -0.2155(14) -0.0405(9) -1.3198(17)
H21 H -0.2790 -0.0200 -1.3640
C45 C -0.2146(17) -0.1014(10) -1.3178(19)
H22 H -0.2768 -0.1237 -1.3597
C46 C -0.1251(15) -0.1289(11) -1.2561(16)
C47 C -0.0391(15) -0.0981(9) -1.1903(17)
H23 H 0.0242 -0.1154 -1.1393
C48 C -0.0580(7) -0.0354(5) -1.2093(7)
H24 H 0.0027 -0.0115 -1.1694
Zn1_2 Zn -1.14682(14) -0.78668(7) -1.24752(17)
Zn1_3 Zn -0.14682(14) -0.78668(7) -0.24752(17)
Zn2_2 Zn -1.13356(14) -0.91750(7) -1.26241(17)
Zn2_3 Zn -0.13356(14) -0.91750(7) -0.26241(17)
Zn2_4 Zn -0.13356(14) 0.08250(7) -1.26241(17)
O5_2 O 0.0207(10) -0.7990(6) -1.2129(12)
O6_2 O 0.0281(9) -0.8960(5) -1.2283(10)
O7_2 O -0.1593(11) -0.7928(8) -1.4033(11)
O8_2 O -0.1484(12) -0.8930(7) -1.4149(11)
N4_2 N -0.1279(11) -1.0087(8) -1.2603(12)
C49 C -0.9849(7) -0.0953(5) -2.4807(7)
H25 H -1.0216 -0.1156 -2.4336
Cl1 Cl -0.8539(7) -0.0724(5) -2.3979(7)
Cl2 Cl -0.9764(7) -0.1461(5) -2.5801(7)
Cl3 Cl -1.0623(7) -0.0319(5) -2.5410(7)
C50 C -0.6736(7) -0.5997(5) -2.0193(7)
H26 H -0.6037 -0.5809 -2.0195
Cl4 Cl -0.7689(7) -0.5951(5) -2.1520(7)
Cl5 Cl -0.6478(7) -0.6744(5) -1.9784(7)
Cl6 Cl -0.7228(7) -0.5595(5) -1.9288(7)
loop_
_geom_bond_atom_site_label_1
_geom_bond_atom_site_label_2
_geom_bond_site_symmetry_1
_geom_bond_site_symmetry_2
Zn1 O1 1_555 1_555
Zn2 O2 1_555 1_555
O1 C1 1_555 1_555
C1 O2 1_555 1_555
O3 Zn1 1_555 1_555
C2 O3 1_555 1_555
O4 Zn2 1_555 1_555
O5 C3 1_555 1_555
C3 O6 1_555 1_555
O6 Zn2_2 1_555 1_555
O7 C4 1_555 1_555
C4 O8 1_555 1_555
O8 Zn2_3 1_555 1_555
N1 Zn1 1_555 1_555
C5 N1 1_555 1_555
H1 C5 1_555 1_555
C6 C5 1_555 1_555
H2 C6 1_555 1_555
C7 C6 1_555 1_555
C8 C7 1_555 1_555
H3 C8 1_555 1_555
C9 N1 1_555 1_555
H4 C9 1_555 1_555
N2 C7 1_555 1_555
C10 N2 1_555 1_555
C11 C10 1_555 1_555
C12 C11 1_555 1_555
H5 C12 1_555 1_555
C13 C12 1_555 1_555
H6 C13 1_555 1_555
C14 C13 1_555 1_555
C15 C14 1_555 1_555
N3 C15 1_555 1_555
C16 N3 1_555 1_555
C17 C16 1_555 1_555
C18 C17 1_555 1_555
H7 C18 1_555 1_555
C19 C18 1_555 1_555
H8 C19 1_555 1_555
C20 C19 1_555 1_555
C21 N2 1_555 1_555
C22 C11 1_555 1_555
C23 C14 1_555 1_555
O9 C10 1_555 1_555
O10 C15 1_555 1_555
O11 C16 1_555 1_555
O12 C21 1_555 1_555
C24 C1 1_555 1_555
C25 C24 1_555 1_555
H9 C25 1_555 1_555
C26 C25 1_555 1_555
H10 C26 1_555 1_555
C27 C26 1_555 1_555
C28 C27 1_555 1_555
H11 C28 1_555 1_555
C29 C3 1_555 1_555
C30 C29 1_555 1_555
H12 C30 1_555 1_555
C31 C30 1_555 1_555
H13 C31 1_555 1_555
C32 C27 1_555 1_555
C33 C24 1_555 1_555
H14 C33 1_555 1_555
C34 C2 1_555 1_555
C35 C34 1_555 1_555
H15 C35 1_555 1_555
C36 C35 1_555 1_555
H16 C36 1_555 1_555
C37 C36 1_555 1_555
C38 C37 1_555 1_555
H17 C38 1_555 1_555
C39 C4 1_555 1_555
C40 C39 1_555 1_555
H18 C40 1_555 1_555
C41 C40 1_555 1_555
H19 C41 1_555 1_555
C42 C37 1_555 1_555
C43 C34 1_555 1_555
H20 C43 1_555 1_555
N4 C44 1_555 1_555
C44 H21 1_555 1_555
C45 C44 1_555 1_555
H22 C45 1_555 1_555
C46 N3 1_555 1_555
C47 C46 1_555 1_555
H23 C47 1_555 1_555
C48 N4 1_555 1_555
H24 C48 1_555 1_555
C49 H25 1_555 1_555
Cl1 C49 1_555 1_555
Cl2 C49 1_555 1_555
Cl3 C49 1_555 1_555
C50 H26 1_555 1_555
Cl4 C50 1_555 1_555
Cl5 C50 1_555 1_555
Cl6 C50 1_555 1_555
Zn1_2 O5 1_555 1_555
Zn1_3 O7 1_555 1_555
Zn2_4 N4 1_555 1_555
O5_2 Zn1 1_555 1_555
O6_2 Zn2 1_555 1_555
O7_2 Zn1 1_555 1_555
O8_2 Zn2 1_555 1_555
N4_2 Zn2 1_555 1_555
C2 O4 1_555 1_555
C8 C9 1_555 1_555
C17 C23 1_555 1_555
C20 C21 1_555 1_555
C20 C22 1_555 1_555
C22 C23 1_555 1_555
C28 C29 1_555 1_555
C31 C32 1_555 1_555
C32 C33 1_555 1_555
C38 C39 1_555 1_555
C41 C42 1_555 1_555
C42 C43 1_555 1_555
C45 C46 1_555 1_555
C47 C48 1_555 1_555

#END
