
#######################################################################
#
#                 Cambridge Crystallographic Data Centre
#                                CCDC 
#
#######################################################################
#
# If this CIF has been generated from an entry in the Cambridge 
# Structural Database, then it will include bibliographic, chemical, 
# crystal, experimental, refinement or atomic coordinate data resulting 
# from the CCDC's data processing and validation procedures.
#
#######################################################################

data_POQQES
_chemical_formula_moiety         '(C8 H36 B6 Fe6 N4 O57 P12 2-)n'
_symmetry_cell_setting           orthorhombic
_symmetry_space_group_name_H-M   'P b c a'
_symmetry_Int_Tables_number      61
_space_group_name_Hall           '-P 2ac 2ab'
loop_
_symmetry_equiv_pos_site_id
_symmetry_equiv_pos_as_xyz
1 x,y,z
2 1/2-x,-y,1/2+z
3 1/2+x,1/2-y,-z
4 -x,1/2+y,1/2-z
5 -x,-y,-z
6 1/2+x,y,1/2-z
7 1/2-x,1/2+y,z
8 x,1/2-y,1/2+z
_cell_length_a                   17.8023(7)
_cell_length_b                   16.1037(5)
_cell_length_c                   19.1232(6)
_cell_angle_alpha                90
_cell_angle_beta                 90
_cell_angle_gamma                90
_cell_volume                     5482.29
loop_
_atom_site_label
_atom_site_type_symbol
_atom_site_fract_x
_atom_site_fract_y
_atom_site_fract_z
Fe1 Fe 0.23357(3) -0.33504(3) -0.45759(2)
Fe2 Fe 0.45778(3) -0.16435(3) -0.44879(3)
Fe3 Fe -0.05396(3) -0.24399(3) -0.29323(3)
P1 P 0.11640(5) -0.24076(5) -0.34992(4)
P2 P 0.30446(5) -0.04104(5) -0.45819(5)
P3 P 0.34167(5) -0.27235(6) -0.34107(5)
P4 P 0.35258(5) -0.26608(6) -0.56491(4)
P5 P 0.01199(5) -0.09289(6) -0.20504(5)
P6 P 0.12635(5) -0.24858(6) -0.07294(4)
B1 B 0.2396(2) -0.1621(2) -0.3878(2)
B2 B 0.2389(2) -0.1647(2) -0.5227(2)
B3 B 0.0954(2) -0.2339(2) -0.21383(19)
O1 O 0.03318(13) -0.22198(16) -0.35426(13)
O2 O 0.14140(14) -0.31033(15) -0.39802(13)
O3 O 0.13683(14) -0.26593(16) -0.27378(13)
O4 O 0.15994(13) -0.15986(15) -0.36856(13)
O5 O 0.29651(15) 0.05081(16) -0.45702(14)
O6 O 0.38510(15) -0.06893(17) -0.46415(14)
O7 O 0.26561(15) -0.07614(16) -0.39156(13)
O8 O 0.25686(14) -0.07573(15) -0.52004(13)
O9 O 0.30252(15) -0.34523(16) -0.37625(13)
O10 O 0.40785(14) -0.24118(16) -0.38434(13)
O11 O 0.36847(14) -0.29609(16) -0.26807(13)
O12 O 0.28279(14) -0.20166(16) -0.33156(13)
O13 O 0.41838(14) -0.22247(16) -0.53075(13)
O14 O 0.37464(14) -0.29667(16) -0.63780(12)
O15 O 0.32411(14) -0.33940(16) -0.52106(13)
O16 O 0.28675(13) -0.20315(15) -0.57651(12)
O17 O 0.02566(17) -0.00509(17) -0.22884(15)
O18 O -0.00211(15) -0.09666(16) -0.12637(13)
O19 O -0.05217(14) -0.13394(16) -0.24681(14)
O20 O 0.08525(14) -0.14383(15) -0.22014(14)
O21 O 0.16904(14) -0.17604(15) -0.04243(13)
O22 O 0.04305(14) -0.24703(16) -0.05740(14)
O23 O 0.14042(14) -0.25367(18) -0.15291(13)
O24 O 0.15991(13) -0.33107(14) -0.04427(12)
O25 O 0.25146(13) -0.20581(14) -0.45506(12)
O26 O 0.02215(14) -0.27756(16) -0.21287(13)
H1 H 0.002(3) -0.274(3) -0.182(2)
O27 O -0.05028(17) -0.36487(18) -0.33637(15)
H2 H -0.032(3) -0.365(3) -0.369(3)
H3 H -0.038(3) -0.410(3) -0.312(3)
O28 O 0.52742(16) -0.10033(19) -0.52615(16)
H4 H 0.558(3) -0.128(3) -0.540(3)
H5 H 0.549(3) -0.053(3) -0.521(3)
Fe1F Fe 0.26643(3) -0.83504(3) -0.45759(2)
Fe1F_2 Fe 0.26643(3) 0.16496(3) -0.45759(2)
Fe1G Fe 0.23357(3) -0.16496(3) 0.04241(2)
Fe1A Fe 0.26643(3) -0.66496(3) 0.04241(2)
Fe2F Fe 0.04222(3) -0.66435(3) -0.44879(3)
Fe2E Fe -0.04222(3) -0.16435(3) -0.05121(3)
Fe2C Fe 0.54222(3) -0.66435(3) -0.05121(3)
Fe3F Fe 0.55396(3) -0.74399(3) -0.29323(3)
Fe3E Fe 0.44604(3) -0.24399(3) -0.20677(3)
Fe3B Fe 0.44604(3) -0.25601(3) -0.70677(3)
Fe3C Fe 0.05396(3) -0.74399(3) -0.20677(3)
Fe3D Fe 0.05396(3) -0.75601(3) -0.70677(3)
P1F P 0.38360(5) -0.74076(5) -0.34992(4)
P2F P 0.19554(5) -0.54104(5) -0.45819(5)
P3F P 0.15833(5) -0.77235(6) -0.34107(5)
P4F P 0.14742(5) -0.76608(6) -0.56491(4)
P5F P 0.48801(5) -0.59289(6) -0.20504(5)
P6F P 0.37365(5) -0.74858(6) -0.07294(4)
B1F B 0.2604(2) -0.6621(2) -0.3878(2)
B2F B 0.2611(2) -0.6647(2) -0.5227(2)
B2G B 0.2389(2) -0.3353(2) -0.0227(2)
B2A B 0.2611(2) -0.8353(2) -0.0227(2)
B3F B 0.4046(2) -0.7339(2) -0.21383(19)
O1F O 0.46682(13) -0.72198(16) -0.35426(13)
O2F O 0.35860(14) -0.81033(15) -0.39802(13)
O3F O 0.36317(14) -0.76593(16) -0.27378(13)
O4F O 0.34006(13) -0.65986(15) -0.36856(13)
O5F O 0.20349(15) -0.44919(16) -0.45702(14)
O5_2 O 0.29651(15) -0.94919(16) -0.45702(14)
O6F O 0.11490(15) -0.56893(17) -0.46415(14)
O7F O 0.23439(15) -0.57614(16) -0.39156(13)
O8F O 0.24314(14) -0.57573(15) -0.52004(13)
O9F O 0.19748(15) -0.84523(16) -0.37625(13)
O10F O 0.09215(14) -0.74118(16) -0.38434(13)
O11F O 0.13153(14) -0.79609(16) -0.26807(13)
O11E O -0.13153(14) -0.29609(16) -0.23193(13)
O11C O 0.63153(14) -0.79609(16) -0.23193(13)
O12F O 0.21721(14) -0.70166(16) -0.33156(13)
O13F O 0.08162(14) -0.72247(16) -0.53075(13)
O14F O 0.12536(14) -0.79667(16) -0.63780(12)
O14B O -0.12536(14) -0.20333(16) -0.36220(12)
O14D O 0.62536(14) -0.70333(16) -0.36220(12)
O15F O 0.17589(14) -0.83940(16) -0.52106(13)
O16F O 0.21325(13) -0.70315(15) -0.57651(12)
O17F O 0.47434(17) -0.50509(17) -0.22884(15)
O18F O 0.50211(15) -0.59666(16) -0.12637(13)
O18E O 0.49789(15) -0.09666(16) -0.37363(13)
O18C O 0.00211(15) -0.59666(16) -0.37363(13)
O19F O 0.55217(14) -0.63394(16) -0.24681(14)
O20F O 0.41475(14) -0.64383(15) -0.22014(14)
O21F O 0.33096(14) -0.67604(15) -0.04243(13)
O21G O 0.16904(14) -0.32396(15) -0.54243(13)
O21A O 0.33096(14) -0.82396(15) -0.54243(13)
O22F O 0.45695(14) -0.74703(16) -0.05740(14)
O22E O 0.54305(14) -0.24703(16) -0.44260(14)
O22C O -0.04305(14) -0.74703(16) -0.44260(14)
O23F O 0.35958(14) -0.75367(18) -0.15291(13)
O24G O 0.15991(13) -0.16893(14) -0.54427(12)
O24A O 0.34009(13) -0.66893(14) -0.54427(12)
O24F O 0.34009(13) -0.83107(14) -0.04427(12)
O25F O 0.24854(13) -0.70581(14) -0.45506(12)
O26F O 0.47785(14) -0.77756(16) -0.21287(13)
H1F H 0.498(3) -0.774(3) -0.182(2)
O27F O 0.55028(17) -0.86487(18) -0.33637(15)
H2F H 0.532(3) -0.865(3) -0.369(3)
H3F H 0.538(3) -0.910(3) -0.312(3)
O28F O -0.02742(16) -0.60033(19) -0.52615(16)
H4F H -0.058(3) -0.628(3) -0.540(3)
H5F H -0.049(3) -0.553(3) -0.521(3)
O29 O 0.4622(3) -0.5578(2) -0.65520(19)
H6 H 0.485(4) -0.536(4) -0.691(4)
H7 H 0.462(4) -0.604(4) -0.672(4)
N1 N 0.4563(2) -0.4336(2) -0.4706(2)
H8 H 0.481(3) -0.427(3) -0.426(3)
H9 H 0.419(3) -0.401(4) -0.475(3)
C1 C 0.5067(3) -0.4185(3) -0.5312(2)
H10 H 0.477(3) -0.426(3) -0.579(3)
H11 H 0.523(3) -0.362(4) -0.526(3)
C2 C 0.4282(3) -0.5215(3) -0.4703(3)
H12 H 0.398(3) -0.526(4) -0.512(3)
H13 H 0.401(3) -0.528(4) -0.428(3)
N1D N 0.5437(2) -0.5664(2) -0.5294(2)
H8D H 0.519(3) -0.573(3) -0.574(3)
H9D H 0.581(3) -0.599(4) -0.525(3)
C1D C 0.4933(3) -0.5815(3) -0.4688(2)
H10D H 0.523(3) -0.574(3) -0.421(3)
H11D H 0.477(3) -0.638(4) -0.474(3)
C2D C 0.5718(3) -0.4785(3) -0.5297(3)
H12D H 0.602(3) -0.474(4) -0.488(3)
H13D H 0.599(3) -0.472(4) -0.572(3)
N2 N 0.2971(3) -0.0548(4) -0.6760(3)
H14 H 0.339(4) -0.042(5) -0.715(4)
H15 H 0.320(4) -0.089(5) -0.637(4)
C3 C 0.2323(5) -0.0905(3) -0.7052(3)
H16 H 0.195(4) -0.084(5) -0.667(4)
H17 H 0.240(4) -0.140(5) -0.721(4)
C4 C 0.2029(5) -0.0412(5) -0.7635(3)
H18 H 0.154(5) -0.054(5) -0.776(4)
H19 H 0.240(5) -0.044(6) -0.796(4)
N3 N 0.1896(3) 0.0492(4) -0.7392(3)
H20 H 0.166(4) 0.089(5) -0.776(4)
H21 H 0.159(4) 0.043(5) -0.702(4)
C5 C 0.2564(5) 0.0837(4) -0.7103(3)
H22 H 0.296(4) 0.074(5) -0.757(4)
H23 H 0.253(4) 0.138(5) -0.692(4)
C6 C 0.2828(5) 0.0325(5) -0.6516(3)
H24 H 0.237(5) 0.036(5) -0.625(4)
H25 H 0.328(5) 0.053(5) -0.633(4)
loop_
_geom_bond_atom_site_label_1
_geom_bond_atom_site_label_2
_geom_bond_site_symmetry_1
_geom_bond_site_symmetry_2
Fe1 O2 1_555 1_555
Fe2 O6 1_555 1_555
Fe3 O1 1_555 1_555
P1 O1 1_555 1_555
P2 O5 1_555 1_555
P3 O9 1_555 1_555
P4 O13 1_555 1_555
P5 O17 1_555 1_555
P6 O21 1_555 1_555
B1 O4 1_555 1_555
B2 O8 1_555 1_555
B3 O3 1_555 1_555
O2 P1 1_555 1_555
O3 P1 1_555 1_555
O4 P1 1_555 1_555
O5 Fe1F_2 1_555 1_555
O6 P2 1_555 1_555
O7 P2 1_555 1_555
O8 P2 1_555 1_555
O9 Fe1 1_555 1_555
O10 Fe2 1_555 1_555
O11 P3 1_555 1_555
O12 P3 1_555 1_555
O13 Fe2 1_555 1_555
O14 P4 1_555 1_555
O15 Fe1 1_555 1_555
O16 P4 1_555 1_555
O18 P5 1_555 1_555
O19 Fe3 1_555 1_555
O20 P5 1_555 1_555
O21 Fe1G 1_555 1_555
O22 P6 1_555 1_555
O23 P6 1_555 1_555
O24 P6 1_555 1_555
O25 Fe1 1_555 1_555
O26 Fe3 1_555 1_555
H1 O26 1_555 1_555
O27 Fe3 1_555 1_555
H2 O27 1_555 1_555
H3 O27 1_555 1_555
O28 Fe2 1_555 1_555
H4 O28 1_555 1_555
H5 O28 1_555 1_555
O29 H6 1_555 1_555
H7 O29 1_555 1_555
N1 H8 1_555 1_555
H9 N1 1_555 1_555
C1 N1 1_555 1_555
H10 C1 1_555 1_555
H11 C1 1_555 1_555
C2 N1 1_555 1_555
H12 C2 1_555 1_555
H13 C2 1_555 1_555
N2 H14 1_555 1_555
H15 N2 1_555 1_555
C3 N2 1_555 1_555
H16 C3 1_555 1_555
H17 C3 1_555 1_555
C4 C3 1_555 1_555
H18 C4 1_555 1_555
H19 C4 1_555 1_555
N3 C4 1_555 1_555
H20 N3 1_555 1_555
H21 N3 1_555 1_555
C5 N3 1_555 1_555
H22 C5 1_555 1_555
H23 C5 1_555 1_555
C6 N2 1_555 1_555
H24 C6 1_555 1_555
H25 C6 1_555 1_555
Fe1F O2F 1_555 1_555
Fe1A O21F 1_555 1_555
Fe2F O6F 1_555 1_555
Fe2E O18 1_555 1_555
Fe2C O18F 1_555 1_555
Fe3F O1F 1_555 1_555
Fe3E O11 1_555 1_555
Fe3B O14 1_555 1_555
Fe3C O11F 1_555 1_555
Fe3D O14F 1_555 1_555
P1F O1F 1_555 1_555
P2F O5F 1_555 1_555
P3F O9F 1_555 1_555
P4F O13F 1_555 1_555
P5F O17F 1_555 1_555
P6F O21F 1_555 1_555
B1F O4F 1_555 1_555
B2F O8F 1_555 1_555
B2G O24 1_555 1_555
B2A O24F 1_555 1_555
B3F O3F 1_555 1_555
O2F P1F 1_555 1_555
O3F P1F 1_555 1_555
O4F P1F 1_555 1_555
O5F Fe1 1_555 1_555
O5_2 Fe1F 1_555 1_555
O6F P2F 1_555 1_555
O7F P2F 1_555 1_555
O8F P2F 1_555 1_555
O9F Fe1F 1_555 1_555
O10F Fe2F 1_555 1_555
O11F P3F 1_555 1_555
O11E Fe3 1_555 1_555
O11C Fe3F 1_555 1_555
O12F P3F 1_555 1_555
O13F Fe2F 1_555 1_555
O14F P4F 1_555 1_555
O14B Fe3 1_555 1_555
O14D Fe3F 1_555 1_555
O15F Fe1F 1_555 1_555
O16F P4F 1_555 1_555
O18F P5F 1_555 1_555
O18E Fe2 1_555 1_555
O18C Fe2F 1_555 1_555
O19F Fe3F 1_555 1_555
O20F P5F 1_555 1_555
O21G Fe1 1_555 1_555
O21A Fe1F 1_555 1_555
O22F Fe2C 1_555 1_555
O22E Fe2 1_555 1_555
O22C Fe2F 1_555 1_555
O23F P6F 1_555 1_555
O24G B2 1_555 1_555
O24A B2F 1_555 1_555
O24F P6F 1_555 1_555
O25F Fe1F 1_555 1_555
O26F Fe3F 1_555 1_555
H1F O26F 1_555 1_555
O27F Fe3F 1_555 1_555
H2F O27F 1_555 1_555
H3F O27F 1_555 1_555
O28F Fe2F 1_555 1_555
H4F O28F 1_555 1_555
H5F O28F 1_555 1_555
N1D H8D 1_555 1_555
H9D N1D 1_555 1_555
C1D C2 1_555 1_555
H10D C1D 1_555 1_555
H11D C1D 1_555 1_555
C2D C1 1_555 1_555
H12D C2D 1_555 1_555
H13D C2D 1_555 1_555
P3 O10 1_555 1_555
P4 O15 1_555 1_555
P5 O19 1_555 1_555
B1 O7 1_555 1_555
B1 O12 1_555 1_555
B1 O25 1_555 1_555
B2 O16 1_555 1_555
B2 O25 1_555 1_555
B3 O20 1_555 1_555
B3 O23 1_555 1_555
B3 O26 1_555 1_555
O22 Fe2E 1_555 1_555
C5 C6 1_555 1_555
P3F O10F 1_555 1_555
P4F O15F 1_555 1_555
P5F O19F 1_555 1_555
P6F O22F 1_555 1_555
B1F O7F 1_555 1_555
B1F O12F 1_555 1_555
B1F O25F 1_555 1_555
B2F O16F 1_555 1_555
B2F O25F 1_555 1_555
B3F O20F 1_555 1_555
B3F O23F 1_555 1_555
B3F O26F 1_555 1_555
N1D C1D 1_555 1_555
N1D C2D 1_555 1_555

#END
