
#######################################################################
#
#                 Cambridge Crystallographic Data Centre
#                                CCDC 
#
#######################################################################
#
# If this CIF has been generated from an entry in the Cambridge 
# Structural Database, then it will include bibliographic, chemical, 
# crystal, experimental, refinement or atomic coordinate data resulting 
# from the CCDC's data processing and validation procedures.
#
#######################################################################

data_MOGXUB
_chemical_formula_moiety         '(C14 H14 Ag8 F12 O19)n'
_symmetry_cell_setting           orthorhombic
_symmetry_space_group_name_H-M   'P n m a'
_symmetry_Int_Tables_number      62
_space_group_name_Hall           '-P 2ac 2n'
loop_
_symmetry_equiv_pos_site_id
_symmetry_equiv_pos_as_xyz
1 x,y,z
2 1/2+x,y,1/2-z
3 x,1/2-y,z
4 1/2-x,1/2+y,1/2+z
5 -x,-y,-z
6 1/2-x,-y,1/2+z
7 -x,1/2+y,-z
8 1/2+x,1/2-y,1/2-z
_cell_length_a                   10.0545(4)
_cell_length_b                   15.2938(6)
_cell_length_c                   20.4466(7)
_cell_angle_alpha                90
_cell_angle_beta                 90
_cell_angle_gamma                90
_cell_volume                     3144.1
loop_
_atom_site_label
_atom_site_type_symbol
_atom_site_fract_x
_atom_site_fract_y
_atom_site_fract_z
Ag1 Ag 0.65340(8) 0.2500 0.34293(3)
Ag2 Ag 0.60242(7) 0.08873(3) 0.41215(3)
Ag3 Ag 0.44710(5) 0.12988(4) 0.52671(2)
Ag4 Ag 0.67512(8) 0.2500 0.53907(4)
Ag5 Ag 0.29233(8) 0.2500 0.44312(5)
Ag6 Ag 0.13509(9) 0.2500 0.60213(5)
C1 C 0.5321(6) 0.2103(4) 0.4467(3)
O1 O 0.7192(5) 0.0187(3) 0.3360(2)
O2 O 0.7687(6) 0.1419(3) 0.2831(2)
O3 O 0.9385(4) -0.0409(3) 0.1001(2)
O4 O 0.7930(5) -0.1473(3) 0.1238(2)
C2 C 0.7708(6) 0.0620(4) 0.2919(3)
C3 C 0.8496(6) 0.0089(4) 0.2399(3)
C4 C 0.7696(6) -0.0110(4) 0.1774(3)
C5 C 0.8401(6) -0.0725(4) 0.1285(3)
F1 F 0.8901(4) -0.0685(3) 0.26407(19)
F2 F 0.9607(4) 0.0541(3) 0.2232(2)
F3 F 0.6543(4) -0.0458(3) 0.1970(2)
F4 F 0.7411(5) 0.0652(3) 0.1475(2)
O5 O 0.2716(4) 0.0279(3) 0.5181(2)
O6 O 0.1452(5) 0.1469(3) 0.5024(3)
C6 C 0.1663(6) 0.0674(4) 0.5145(3)
C7 C 0.0390(7) 0.0136(5) 0.5300(3)
F5 F 0.0629(5) -0.0586(3) 0.5660(2)
F6 F -0.0495(5) 0.0619(3) 0.5664(2)
O7 O 0.4883(11) 0.2500 0.2540(6)
O9 O 0.1462(19) 0.2500 0.3577(7)
O10 O 0.8971(9) 0.2500 0.4907(6)
O11 O 0.3166(5) 0.1536(3) 0.6332(2)
O12 O -0.0684(7) 0.2500 0.6590(3)
C1B C 0.5321(6) 0.2897(4) 0.4467(3)
C7D C -0.0390(7) -0.0136(5) 0.4700(3)
C6D C -0.1663(6) -0.0674(4) 0.4855(3)
O5D O -0.2716(4) -0.0279(3) 0.4819(2)
O6D O -0.1452(5) -0.1469(3) 0.4976(3)
F5D F -0.0629(5) 0.0586(3) 0.4340(2)
F6D F 0.0495(5) -0.0619(3) 0.4336(2)
O1B O 0.7192(5) 0.4813(3) 0.3360(2)
O2B O 0.7687(6) 0.3581(3) 0.2831(2)
O3B O 0.9385(4) 0.5409(3) 0.1001(2)
O4B O 0.7930(5) 0.6473(3) 0.1238(2)
C2B C 0.7708(6) 0.4380(4) 0.2919(3)
C3B C 0.8496(6) 0.4911(4) 0.2399(3)
C4B C 0.7696(6) 0.5110(4) 0.1774(3)
C5B C 0.8401(6) 0.5725(4) 0.1285(3)
F1B F 0.8901(4) 0.5685(3) 0.26407(19)
F2B F 0.9607(4) 0.4459(3) 0.2232(2)
F3B F 0.6543(4) 0.5458(3) 0.1970(2)
F4B F 0.7411(5) 0.4348(3) 0.1475(2)
Ag2B Ag 0.60242(7) 0.41127(3) 0.41215(3)
Ag3B Ag 0.44710(5) 0.37012(4) 0.52671(2)
O11B O 0.3166(5) 0.3464(3) 0.6332(2)
O3A O 0.4385(4) -0.0409(3) 0.3999(2)
O3E O 0.5615(4) 0.0409(3) 0.6001(2)
O4C O 0.7070(5) 0.3527(3) 0.6238(2)
O4E O 0.7070(5) 0.1473(3) 0.6238(2)
O6B O 0.1452(5) 0.3531(3) 0.5024(3)
Ag2A Ag 1.10242(7) 0.08873(3) 0.08785(3)
Ag3E Ag 1.05290(5) -0.12988(4) 0.02671(2)
Ag4C Ag 0.82488(8) -0.2500 0.03907(4)
Ag3D Ag -0.44710(5) -0.12988(4) 0.47329(2)
Ag5D Ag -0.29233(8) -0.2500 0.55688(5)
Ag6D Ag -0.13509(9) -0.2500 0.39787(5)
Ag2G Ag 1.10242(7) 0.41127(3) 0.08785(3)
Ag3C Ag 1.05290(5) 0.62988(4) 0.02671(2)
Ag4C_2 Ag 0.82488(8) 0.7500 0.03907(4)
O3G O 0.4385(4) 0.5409(3) 0.3999(2)
O3C O 0.5615(4) 0.4591(3) 0.6001(2)
O5B O 0.2716(4) 0.4721(3) 0.5181(2)
O13 O 0.4930(7) 0.2500 0.7076(3)
loop_
_geom_bond_atom_site_label_1
_geom_bond_atom_site_label_2
_geom_bond_site_symmetry_1
_geom_bond_site_symmetry_2
Ag1 C1 1_555 1_555
Ag2 C1 1_555 1_555
Ag3 C1 1_555 1_555
Ag4 C1 1_555 1_555
Ag5 C1 1_555 1_555
Ag6 O6 1_555 1_555
C1 C1B 1_555 1_555
O1 Ag2 1_555 1_555
O2 Ag1 1_555 1_555
O3 C5 1_555 1_555
O4 C5 1_555 1_555
C2 O1 1_555 1_555
C3 C2 1_555 1_555
C4 C3 1_555 1_555
C5 C4 1_555 1_555
F1 C3 1_555 1_555
F2 C3 1_555 1_555
F3 C4 1_555 1_555
F4 C4 1_555 1_555
O5 Ag3 1_555 1_555
O6 Ag5 1_555 1_555
C6 O5 1_555 1_555
C7 C6 1_555 1_555
F5 C7 1_555 1_555
F6 C7 1_555 1_555
O7 Ag1 1_555 1_555
O9 Ag5 1_555 1_555
O10 Ag4 1_555 1_555
O11 Ag3 1_555 1_555
O12 Ag6 1_555 1_555
C1B Ag1 1_555 1_555
C7D C7 1_555 1_555
C6D C7D 1_555 1_555
O5D C6D 1_555 1_555
O6D C6D 1_555 1_555
F5D C7D 1_555 1_555
F6D C7D 1_555 1_555
O1B C2B 1_555 1_555
O2B Ag1 1_555 1_555
O3B C5B 1_555 1_555
O4B C5B 1_555 1_555
C2B O2B 1_555 1_555
C3B C2B 1_555 1_555
C4B C3B 1_555 1_555
C5B C4B 1_555 1_555
F1B C3B 1_555 1_555
F2B C3B 1_555 1_555
F3B C4B 1_555 1_555
F4B C4B 1_555 1_555
Ag2B C1B 1_555 1_555
Ag3B C1B 1_555 1_555
O11B Ag6 1_555 1_555
O3A Ag2 1_555 1_555
O3E Ag3 1_555 1_555
O4C Ag4 1_555 1_555
O4E Ag4 1_555 1_555
O6B Ag5 1_555 1_555
Ag2A O3 1_555 1_555
Ag3E O3 1_555 1_555
Ag4C O4 1_555 1_555
Ag3D O5D 1_555 1_555
Ag5D O6D 1_555 1_555
Ag6D O6D 1_555 1_555
Ag2G O3B 1_555 1_555
Ag3C O3B 1_555 1_555
Ag4C_2 O4B 1_555 1_555
O3G Ag2B 1_555 1_555
O3C Ag3B 1_555 1_555
O5B Ag3B 1_555 1_555
Ag4 C1B 1_555 1_555
Ag5 C1B 1_555 1_555
Ag6 O11 1_555 1_555
Ag6 O6B 1_555 1_555
O2 C2 1_555 1_555
O6 C6 1_555 1_555
O1B Ag2B 1_555 1_555
Ag3B O11B 1_555 1_555

#END
