
#######################################################################
#
#                 Cambridge Crystallographic Data Centre
#                                CCDC 
#
#######################################################################
#
# If this CIF has been generated from an entry in the Cambridge 
# Structural Database, then it will include bibliographic, chemical, 
# crystal, experimental, refinement or atomic coordinate data resulting 
# from the CCDC's data processing and validation procedures.
#
#######################################################################

data_OKIVUA
_chemical_formula_moiety         '(C53 H40 Cd1 Cl1 N12 O4 S1 1+)n'
_symmetry_cell_setting           tetragonal
_symmetry_space_group_name_H-M   'P 41 21 2'
_symmetry_Int_Tables_number      92
_space_group_name_Hall           'P 4abw 2nw'
loop_
_symmetry_equiv_pos_site_id
_symmetry_equiv_pos_as_xyz
1 x,y,z
2 -x,-y,1/2+z
3 1/2-y,1/2+x,1/4+z
4 1/2+y,1/2-x,3/4+z
5 1/2-x,1/2+y,1/4-z
6 1/2+x,1/2-y,3/4-z
7 y,x,-z
8 -y,-x,1/2-z
_cell_length_a                   15.8792(11)
_cell_length_b                   15.8792(11)
_cell_length_c                   21.594(3)
_cell_angle_alpha                90
_cell_angle_beta                 90
_cell_angle_gamma                90
_cell_volume                     5444.91
loop_
_atom_site_label
_atom_site_type_symbol
_atom_site_fract_x
_atom_site_fract_y
_atom_site_fract_z
C25 C 0.5763(17) -0.879(2) -0.2756(18)
H17 H 0.6148 -0.8357 -0.2801
C26 C 0.542(3) -0.921(3) -0.3242(16)
H18 H 0.5559 -0.9096 -0.3652
C27 C 0.482(3) -0.986(3) -0.299(2)
H19 H 0.4523 -1.0227 -0.3234
C28 C 0.4840(16) -0.9787(15) -0.236(2)
C29 C 0.433(2) -1.031(2) -0.191(3)
H20 H 0.3981 -1.0728 -0.2071
S1 S 0.5476(18) -0.9051(18) -0.2017(15)
Cl1 Cl 0.6193(2) -0.6193(2) -0.2500
O4 O 0.6811(13) -0.6081(16) -0.2927(9)
O5 O 0.5748(13) -0.6680(19) -0.2815(9)
O4G O 0.6081(16) -0.6811(13) -0.2073(9)
O5G O 0.6680(19) -0.5748(13) -0.2185(9)
C1 C -0.4098(5) -0.3598(5) 0.3594(4)
H1 H -0.4575 -0.3900 0.3479
C2 C -0.3832(5) -0.2981(5) 0.3199(4)
H2 H -0.4132 -0.2856 0.2841
C3 C -0.3081(5) -0.2534(5) 0.3350(3)
C4 C -0.2662(5) -0.2814(5) 0.3870(4)
H3 H -0.2140 -0.2584 0.3969
C5 C -0.3000(5) -0.3423(5) 0.4243(4)
H4 H -0.2705 -0.3583 0.4596
C6 C -0.2787(5) -0.1813(5) 0.2977(3)
C7 C -0.3069(6) -0.1646(5) 0.2387(4)
H5 H -0.3460 -0.2005 0.2205
C8 C -0.2785(6) -0.0959(6) 0.2060(4)
H6 H -0.2989 -0.0862 0.1663
C9 C -0.2205(6) -0.0414(5) 0.2309(4)
H7 H -0.2029 0.0061 0.2092
C10 C -0.1883(5) -0.0593(4) 0.2901(3)
C11 C -0.2181(5) -0.1281(5) 0.3230(3)
H8 H -0.1972 -0.1389 0.3624
C12 C -0.1252(5) -0.0038(5) 0.3207(3)
C13 C -0.0751(4) 0.0922(4) 0.3830(3)
C14 C -0.0664(4) 0.1617(5) 0.4275(3)
C15 C 0.0071(6) 0.1657(6) 0.4633(4)
H9 H 0.0480 0.1240 0.4601
C16 C 0.0175(7) 0.2320(6) 0.5030(5)
H10 H 0.0655 0.2348 0.5276
C17 C -0.0415(6) 0.2938(5) 0.5068(5)
H11 H -0.0332 0.3380 0.5344
C18 C -0.1134(5) 0.2929(5) 0.4710(4)
C19 C -0.1256(5) 0.2269(5) 0.4317(3)
H12 H -0.1738 0.2251 0.4073
C20 C -0.1809(5) 0.3579(5) 0.4778(4)
C21 C -0.1916(5) 0.4043(5) 0.5321(4)
H13 H -0.1538 0.3978 0.5646
C22 C -0.2584(5) 0.4599(5) 0.5375(4)
H14 H -0.2654 0.4885 0.5748
C23 C -0.3025(5) 0.4324(5) 0.4396(4)
H15 H -0.3404 0.4412 0.4074
C24 C -0.2374(5) 0.3758(5) 0.4308(4)
H16 H -0.2314 0.3494 0.3926
Cd1 Cd 0.05839(3) -0.05839(3) 0.2500
N1 N -0.3743(4) -0.3802(4) 0.4123(3)
N2 N -0.0447(4) -0.0058(4) 0.3164(3)
N3 N -0.0112(4) 0.0547(4) 0.3555(3)
N4 N -0.1475(4) 0.0569(3) 0.3618(3)
N5 N -0.2295(5) 0.0768(4) 0.3832(4)
H21 H -0.2553 0.0282 0.3914
H22 H -0.2584 0.1045 0.3547
N6 N -0.3133(4) 0.4746(4) 0.4919(3)
C1G C 0.3598(5) 0.4098(5) 0.1406(4)
H1G H 0.3900 0.4575 0.1521
C2G C 0.2981(5) 0.3832(5) 0.1801(4)
H2G H 0.2856 0.4132 0.2159
C3G C 0.2534(5) 0.3081(5) 0.1650(3)
C4G C 0.2814(5) 0.2662(5) 0.1130(4)
H3G H 0.2584 0.2140 0.1031
C5G C 0.3423(5) 0.3000(5) 0.0757(4)
H4G H 0.3583 0.2705 0.0404
C6G C 0.1813(5) 0.2787(5) 0.2023(3)
C7G C 0.1646(5) 0.3069(6) 0.2613(4)
H5G H 0.2005 0.3460 0.2795
C8G C 0.0959(6) 0.2785(6) 0.2940(4)
H6G H 0.0862 0.2989 0.3337
C9G C 0.0414(5) 0.2205(6) 0.2691(4)
H7G H -0.0061 0.2029 0.2908
C10G C 0.0593(4) 0.1883(5) 0.2099(3)
C11G C 0.1281(5) 0.2181(5) 0.1770(3)
H8G H 0.1389 0.1972 0.1376
C12G C 0.0038(5) 0.1252(5) 0.1793(3)
C13G C -0.0922(4) 0.0751(4) 0.1170(3)
C14G C -0.1617(5) 0.0664(4) 0.0725(3)
C15G C -0.1657(6) -0.0071(6) 0.0367(4)
H9G H -0.1240 -0.0480 0.0399
C16G C -0.2320(6) -0.0175(7) -0.0030(5)
H10G H -0.2348 -0.0655 -0.0276
C17G C -0.2938(5) 0.0415(6) -0.0068(5)
H11G H -0.3380 0.0332 -0.0344
C18G C -0.2929(5) 0.1134(5) 0.0290(4)
C19G C -0.2269(5) 0.1256(5) 0.0683(3)
H12G H -0.2251 0.1738 0.0927
C20G C -0.3579(5) 0.1809(5) 0.0222(4)
C21G C -0.4043(5) 0.1916(5) -0.0321(4)
H13G H -0.3978 0.1538 -0.0646
C22G C -0.4599(5) 0.2584(5) -0.0375(4)
H14G H -0.4885 0.2654 -0.0748
C23G C -0.4324(5) 0.3025(5) 0.0604(4)
H15G H -0.4412 0.3404 0.0926
C24G C -0.3758(5) 0.2374(5) 0.0692(4)
H16G H -0.3494 0.2314 0.1074
Cd1B Cd -0.44161(3) -0.44161(3) 0.5000
Cd1C Cd 0.44161(3) 0.44161(3) 0.0000
Cd1B_2 Cd -0.44161(3) 0.55839(3) 0.5000
Cd1C_2 Cd -0.55839(3) 0.44161(3) 0.0000
N1E N 0.1257(4) -0.1198(4) 0.3377(3)
N1C N 0.1198(4) -0.1257(4) 0.1623(3)
N1G N 0.3802(4) 0.3743(4) 0.0877(3)
N2G N 0.0058(4) 0.0447(4) 0.1836(3)
N3G N -0.0547(4) 0.0112(4) 0.1445(3)
N4G N -0.0569(3) 0.1475(4) 0.1382(3)
N5G N -0.0768(4) 0.2295(5) 0.1168(4)
H21G H -0.0282 0.2553 0.1086
H22G H -0.1045 0.2584 0.1453
N6E N 0.1867(4) 0.0254(4) 0.2581(3)
N6C N -0.0254(4) -0.1867(4) 0.2419(3)
N6G N -0.4746(4) 0.3133(4) 0.0081(3)
loop_
_geom_bond_atom_site_label_1
_geom_bond_atom_site_label_2
_geom_bond_site_symmetry_1
_geom_bond_site_symmetry_2
C1 H1 1_555 1_555
C2 C1 1_555 1_555
H2 C2 1_555 1_555
C3 C2 1_555 1_555
C4 C3 1_555 1_555
H3 C4 1_555 1_555
C5 C4 1_555 1_555
H4 C5 1_555 1_555
C6 C3 1_555 1_555
C7 C6 1_555 1_555
H5 C7 1_555 1_555
C8 C7 1_555 1_555
H6 C8 1_555 1_555
C9 C8 1_555 1_555
H7 C9 1_555 1_555
C10 C9 1_555 1_555
C11 C6 1_555 1_555
H8 C11 1_555 1_555
C12 C10 1_555 1_555
C13 C14 1_555 1_555
C14 C15 1_555 1_555
C15 H9 1_555 1_555
C16 C15 1_555 1_555
H10 C16 1_555 1_555
C17 C16 1_555 1_555
H11 C17 1_555 1_555
C18 C17 1_555 1_555
C19 C14 1_555 1_555
H12 C19 1_555 1_555
C20 C18 1_555 1_555
C21 C20 1_555 1_555
H13 C21 1_555 1_555
C22 C21 1_555 1_555
H14 C22 1_555 1_555
C23 H15 1_555 1_555
C24 C20 1_555 1_555
H16 C24 1_555 1_555
C25 H17 1_555 1_555
C26 C25 1_555 1_555
H18 C26 1_555 1_555
C27 C26 1_555 1_555
H19 C27 1_555 1_555
C28 C27 1_555 1_555
C29 C28 1_555 1_555
H20 C29 1_555 1_555
Cd1 N2 1_555 1_555
N1 C1 1_555 1_555
N2 C12 1_555 1_555
N3 C13 1_555 1_555
N4 C12 1_555 1_555
N5 N4 1_555 1_555
H21 N5 1_555 1_555
H22 N5 1_555 1_555
N6 C22 1_555 1_555
S1 C25 1_555 1_555
Cl1 O4 1_555 1_555
O5 Cl1 1_555 1_555
C1G H1G 1_555 1_555
C2G C1G 1_555 1_555
H2G C2G 1_555 1_555
C3G C2G 1_555 1_555
C4G C3G 1_555 1_555
H3G C4G 1_555 1_555
C5G C4G 1_555 1_555
H4G C5G 1_555 1_555
C6G C3G 1_555 1_555
C7G C6G 1_555 1_555
H5G C7G 1_555 1_555
C8G C7G 1_555 1_555
H6G C8G 1_555 1_555
C9G C8G 1_555 1_555
H7G C9G 1_555 1_555
C10G C9G 1_555 1_555
C11G C6G 1_555 1_555
H8G C11G 1_555 1_555
C12G C10G 1_555 1_555
C13G C14G 1_555 1_555
C14G C15G 1_555 1_555
C15G H9G 1_555 1_555
C16G C15G 1_555 1_555
H10G C16G 1_555 1_555
C17G C16G 1_555 1_555
H11G C17G 1_555 1_555
C18G C17G 1_555 1_555
C19G C14G 1_555 1_555
H12G C19G 1_555 1_555
C20G C18G 1_555 1_555
C21G C20G 1_555 1_555
H13G C21G 1_555 1_555
C22G C21G 1_555 1_555
H14G C22G 1_555 1_555
C23G H15G 1_555 1_555
C24G C20G 1_555 1_555
H16G C24G 1_555 1_555
Cd1B N1 1_555 1_555
Cd1C N1G 1_555 1_555
Cd1B_2 N6 1_555 1_555
Cd1C_2 N6G 1_555 1_555
N1E Cd1 1_555 1_555
N1C Cd1 1_555 1_555
N1G C1G 1_555 1_555
N2G Cd1 1_555 1_555
N3G C13G 1_555 1_555
N4G C12G 1_555 1_555
N5G N4G 1_555 1_555
H21G N5G 1_555 1_555
H22G N5G 1_555 1_555
N6E Cd1 1_555 1_555
N6C Cd1 1_555 1_555
N6G C22G 1_555 1_555
O4G Cl1 1_555 1_555
O5G Cl1 1_555 1_555
C5 N1 1_555 1_555
C10 C11 1_555 1_555
C13 N4 1_555 1_555
C18 C19 1_555 1_555
C23 C24 1_555 1_555
C23 N6 1_555 1_555
C28 S1 1_555 1_555
N2 N3 1_555 1_555
C5G N1G 1_555 1_555
C10G C11G 1_555 1_555
C12G N2G 1_555 1_555
C13G N4G 1_555 1_555
C18G C19G 1_555 1_555
C23G C24G 1_555 1_555
C23G N6G 1_555 1_555
N2G N3G 1_555 1_555

#END
