
#######################################################################
#
#                 Cambridge Crystallographic Data Centre
#                                CCDC 
#
#######################################################################
#
# If this CIF has been generated from an entry in the Cambridge 
# Structural Database, then it will include bibliographic, chemical, 
# crystal, experimental, refinement or atomic coordinate data resulting 
# from the CCDC's data processing and validation procedures.
#
#######################################################################

data_OKIWUB02
_chemical_formula_moiety         '(C55 H45 Cd1 Cl1 N13 O4 1+)n'
_symmetry_cell_setting           tetragonal
_symmetry_space_group_name_H-M   'P 41 21 2'
_symmetry_Int_Tables_number      92
_space_group_name_Hall           'P 4abw 2nw'
loop_
_symmetry_equiv_pos_site_id
_symmetry_equiv_pos_as_xyz
1 x,y,z
2 -x,-y,1/2+z
3 1/2-y,1/2+x,1/4+z
4 1/2+y,1/2-x,3/4+z
5 1/2-x,1/2+y,1/4-z
6 1/2+x,1/2-y,3/4-z
7 y,x,-z
8 -y,-x,1/2-z
_cell_length_a                   15.8635(8)
_cell_length_b                   15.8635(8)
_cell_length_c                   21.463(2)
_cell_angle_alpha                90
_cell_angle_beta                 90
_cell_angle_gamma                90
_cell_volume                     5401.18
loop_
_atom_site_label
_atom_site_type_symbol
_atom_site_fract_x
_atom_site_fract_y
_atom_site_fract_z
C1 C -0.3593(4) -0.4110(4) -0.3591(2)
H1 H -0.3884 -0.4612 -0.3480
C2 C -0.2979(3) -0.3818(3) -0.3191(2)
H2 H -0.2852 -0.4119 -0.2820
C3 C -0.2543(3) -0.3079(3) -0.3335(2)
C4 C -0.2827(4) -0.2646(4) -0.3862(3)
H3 H -0.2596 -0.2109 -0.3959
C5 C -0.3433(4) -0.2986(4) -0.4238(3)
H4 H -0.3600 -0.2680 -0.4598
C6 C -0.1817(3) -0.2775(3) -0.2963(2)
C7 C -0.1644(4) -0.3076(4) -0.2371(2)
H5 H -0.2006 -0.3484 -0.2188
C8 C -0.0955(4) -0.2791(4) -0.2044(3)
H6 H -0.0845 -0.3006 -0.1638
C9 C -0.0409(4) -0.2184(4) -0.2304(2)
H7 H 0.0071 -0.1991 -0.2081
C10 C -0.0591(3) -0.1876(3) -0.2894(2)
C11 C -0.1281(3) -0.2163(4) -0.3217(2)
H8 H -0.1398 -0.1942 -0.3620
C12 C -0.0038(3) -0.1253(3) -0.3200(2)
C13 C 0.0927(3) -0.0741(3) -0.3827(2)
C14 C 0.1624(4) -0.0655(3) -0.4269(2)
C15 C 0.1659(4) 0.0065(4) -0.4633(3)
H9 H 0.1224 0.0475 -0.4607
C16 C 0.2324(4) 0.0183(5) -0.5029(3)
H10 H 0.2354 0.0684 -0.5270
C17 C 0.2947(4) -0.0412(4) -0.5084(3)
H11 H 0.3390 -0.0331 -0.5376
C18 C 0.2932(4) -0.1134(4) -0.4714(3)
C19 C 0.2262(3) -0.1249(3) -0.4314(2)
H12 H 0.2236 -0.1744 -0.4066
C20 C 0.3594(4) -0.1805(3) -0.4781(2)
C21 C 0.4068(4) -0.1884(4) -0.5322(3)
H13 H 0.4008 -0.1488 -0.5650
C22 C 0.4630(4) -0.2550(4) -0.5376(3)
H14 H 0.4943 -0.2601 -0.5752
C23 C 0.4314(3) -0.3023(4) -0.4406(2)
H15 H 0.4393 -0.3420 -0.4079
C24 C 0.3746(4) -0.2373(4) -0.4313(3)
H16 H 0.3461 -0.2321 -0.3926
Cd1 Cd -0.05937(2) 0.05937(2) -0.2500
N2 N -0.3806(3) -0.3733(3) -0.4123(2)
N3 N -0.0064(3) -0.0435(3) -0.3169(2)
N4 N 0.0544(3) -0.0105(3) -0.3559(2)
N5 N 0.0574(3) -0.1472(3) -0.36116(19)
N6 N 0.0763(3) -0.2296(4) -0.3822(3)
H23 H 0.1022 -0.2586 -0.3511
H24 H 0.0276 -0.2562 -0.3928
N7 N 0.4757(3) -0.3123(3) -0.4930(2)
C1G C 0.4110(4) 0.3593(4) -0.1409(2)
H1G H 0.4612 0.3884 -0.1520
C2G C 0.3818(3) 0.2979(3) -0.1809(2)
H2G H 0.4119 0.2852 -0.2180
C3G C 0.3079(3) 0.2543(3) -0.1665(2)
C4G C 0.2646(4) 0.2827(4) -0.1138(3)
H3G H 0.2109 0.2596 -0.1041
C5G C 0.2986(4) 0.3433(4) -0.0762(3)
H4G H 0.2680 0.3600 -0.0402
C6G C 0.2775(3) 0.1817(3) -0.2037(2)
C7G C 0.3076(4) 0.1644(4) -0.2629(2)
H5G H 0.3484 0.2006 -0.2812
C8G C 0.2791(4) 0.0955(4) -0.2956(3)
H6G H 0.3006 0.0845 -0.3362
C9G C 0.2184(4) 0.0409(4) -0.2696(2)
H7G H 0.1991 -0.0071 -0.2919
C10G C 0.1876(3) 0.0591(3) -0.2106(2)
C11G C 0.2163(4) 0.1281(3) -0.1783(2)
H8G H 0.1942 0.1398 -0.1380
C12G C 0.1253(3) 0.0038(3) -0.1800(2)
C13G C 0.0741(3) -0.0927(3) -0.1173(2)
C14G C 0.0655(3) -0.1624(4) -0.0731(2)
C15G C -0.0065(4) -0.1659(4) -0.0367(3)
H9G H -0.0475 -0.1224 -0.0393
C16G C -0.0183(5) -0.2324(4) 0.0029(3)
H10G H -0.0684 -0.2354 0.0270
C17G C 0.0412(4) -0.2947(4) 0.0084(3)
H11G H 0.0331 -0.3390 0.0376
C18G C 0.1134(4) -0.2932(4) -0.0286(3)
C19G C 0.1249(3) -0.2262(3) -0.0686(2)
H12G H 0.1744 -0.2236 -0.0934
C20G C 0.1805(3) -0.3594(4) -0.0219(2)
C21G C 0.1884(4) -0.4068(4) 0.0322(3)
H13G H 0.1488 -0.4008 0.0650
C22G C 0.2550(4) -0.4630(4) 0.0376(3)
H14G H 0.2601 -0.4943 0.0752
C23G C 0.3023(4) -0.4314(3) -0.0594(2)
H15G H 0.3420 -0.4393 -0.0921
C24G C 0.2373(4) -0.3746(4) -0.0687(3)
H16G H 0.2321 -0.3461 -0.1074
Cd1C Cd -0.44063(2) -0.44063(2) -0.5000
Cd1B Cd 0.44063(2) 0.44063(2) 0.0000
Cd1C_2 Cd 0.55937(2) -0.44063(2) -0.5000
Cd1B_2 Cd 0.44063(2) -0.55937(2) 0.0000
N2D N -0.1194(3) 0.1267(3) -0.3377(2)
N2B N -0.1267(3) 0.1194(3) -0.1623(2)
N2G N 0.3733(3) 0.3806(3) -0.0877(2)
N3G N 0.0435(3) 0.0064(3) -0.1831(2)
N4G N 0.0105(3) -0.0544(3) -0.1441(2)
N5G N 0.1472(3) -0.0574(3) -0.13884(19)
N6G N 0.2296(4) -0.0763(3) -0.1178(3)
H23G H 0.2586 -0.1022 -0.1489
H24G H 0.2562 -0.0276 -0.1072
N7D N 0.0243(3) 0.1877(3) -0.2570(2)
N7B N -0.1877(3) -0.0243(3) -0.2430(2)
N7G N 0.3123(3) -0.4757(3) -0.0070(2)
C25 C -0.5801(17) 0.0404(16) 0.8775(11)
H17 H -0.6021 0.0653 0.8407
C26 C -0.5124(17) -0.0150(17) 0.8739(11)
H18 H -0.4881 -0.0280 0.8346
C27 C -0.4802(14) -0.0513(13) 0.9278(15)
H19 H -0.4339 -0.0892 0.9253
C28 C -0.5157(18) -0.0323(16) 0.9853(11)
C29 C -0.5834(18) 0.0231(18) 0.9889(11)
C30 C -0.6156(14) 0.0594(15) 0.9350(15)
H20 H -0.6619 0.0973 0.9375
N1 N -0.499(2) -0.053(2) 1.0462(11)
C31 C -0.613(2) 0.056(2) 1.0514(13)
H25 H -0.6054 0.0118 1.0830
H26 H -0.6725 0.0712 1.0488
H27 H -0.5796 0.1055 1.0629
Cl2 Cl -0.88016(13) 0.11984(13) 0.0000
O3 O -0.8904(11) 0.1854(9) -0.0359(8)
O4 O -0.867(2) 0.0631(10) -0.0365(6)
O3F O -0.8146(9) 0.1096(11) 0.0359(8)
O4F O -0.9369(10) 0.133(2) 0.0365(6)
loop_
_geom_bond_atom_site_label_1
_geom_bond_atom_site_label_2
_geom_bond_site_symmetry_1
_geom_bond_site_symmetry_2
C1 H1 1_555 1_555
C2 C1 1_555 1_555
H2 C2 1_555 1_555
C3 C2 1_555 1_555
C4 C3 1_555 1_555
H3 C4 1_555 1_555
C5 C4 1_555 1_555
H4 C5 1_555 1_555
C6 C3 1_555 1_555
C7 C6 1_555 1_555
H5 C7 1_555 1_555
C8 C7 1_555 1_555
H6 C8 1_555 1_555
C9 C8 1_555 1_555
H7 C9 1_555 1_555
C10 C9 1_555 1_555
C11 C6 1_555 1_555
H8 C11 1_555 1_555
C12 C10 1_555 1_555
C13 C14 1_555 1_555
C14 C15 1_555 1_555
C15 H9 1_555 1_555
C16 C15 1_555 1_555
H10 C16 1_555 1_555
C17 C16 1_555 1_555
H11 C17 1_555 1_555
C18 C17 1_555 1_555
C19 C14 1_555 1_555
H12 C19 1_555 1_555
C20 C18 1_555 1_555
C21 C20 1_555 1_555
H13 C21 1_555 1_555
C22 C21 1_555 1_555
H14 C22 1_555 1_555
C23 H15 1_555 1_555
C24 C20 1_555 1_555
H16 C24 1_555 1_555
C25 H17 1_555 1_555
C26 C25 1_555 1_555
H18 C26 1_555 1_555
C27 C26 1_555 1_555
H19 C27 1_555 1_555
C28 C27 1_555 1_555
C29 C28 1_555 1_555
C30 C25 1_555 1_555
H20 C30 1_555 1_555
N1 C28 1_555 1_555
Cd1 N3 1_555 1_555
Cl2 O3 1_555 1_555
N2 C1 1_555 1_555
N3 C12 1_555 1_555
N4 C13 1_555 1_555
N5 C12 1_555 1_555
N6 N5 1_555 1_555
H23 N6 1_555 1_555
H24 N6 1_555 1_555
N7 C22 1_555 1_555
O4 Cl2 1_555 1_555
C31 C29 1_555 1_555
H25 C31 1_555 1_555
H26 C31 1_555 1_555
H27 C31 1_555 1_555
C1G H1G 1_555 1_555
C2G C1G 1_555 1_555
H2G C2G 1_555 1_555
C3G C2G 1_555 1_555
C4G C3G 1_555 1_555
H3G C4G 1_555 1_555
C5G C4G 1_555 1_555
H4G C5G 1_555 1_555
C6G C3G 1_555 1_555
C7G C6G 1_555 1_555
H5G C7G 1_555 1_555
C8G C7G 1_555 1_555
H6G C8G 1_555 1_555
C9G C8G 1_555 1_555
H7G C9G 1_555 1_555
C10G C9G 1_555 1_555
C11G C6G 1_555 1_555
H8G C11G 1_555 1_555
C12G C10G 1_555 1_555
C13G C14G 1_555 1_555
C14G C15G 1_555 1_555
C15G H9G 1_555 1_555
C16G C15G 1_555 1_555
H10G C16G 1_555 1_555
C17G C16G 1_555 1_555
H11G C17G 1_555 1_555
C18G C17G 1_555 1_555
C19G C14G 1_555 1_555
H12G C19G 1_555 1_555
C20G C18G 1_555 1_555
C21G C20G 1_555 1_555
H13G C21G 1_555 1_555
C22G C21G 1_555 1_555
H14G C22G 1_555 1_555
C23G H15G 1_555 1_555
C24G C20G 1_555 1_555
H16G C24G 1_555 1_555
Cd1C N2 1_555 1_555
Cd1B N2G 1_555 1_555
Cd1C_2 N7 1_555 1_555
Cd1B_2 N7G 1_555 1_555
N2D Cd1 1_555 1_555
N2B Cd1 1_555 1_555
N2G C1G 1_555 1_555
N3G Cd1 1_555 1_555
N4G C13G 1_555 1_555
N5G C12G 1_555 1_555
N6G N5G 1_555 1_555
H23G N6G 1_555 1_555
H24G N6G 1_555 1_555
N7D Cd1 1_555 1_555
N7B Cd1 1_555 1_555
N7G C22G 1_555 1_555
O3F Cl2 1_555 1_555
O4F Cl2 1_555 1_555
C5 N2 1_555 1_555
C10 C11 1_555 1_555
C13 N5 1_555 1_555
C18 C19 1_555 1_555
C23 C24 1_555 1_555
C23 N7 1_555 1_555
C29 C30 1_555 1_555
N3 N4 1_555 1_555
C5G N2G 1_555 1_555
C10G C11G 1_555 1_555
C12G N3G 1_555 1_555
C13G N5G 1_555 1_555
C18G C19G 1_555 1_555
C23G C24G 1_555 1_555
C23G N7G 1_555 1_555
N3G N4G 1_555 1_555

#END
