
#######################################################################
#
#                 Cambridge Crystallographic Data Centre
#                                CCDC 
#
#######################################################################
#
# If this CIF has been generated from an entry in the Cambridge 
# Structural Database, then it will include bibliographic, chemical, 
# crystal, experimental, refinement or atomic coordinate data resulting 
# from the CCDC's data processing and validation procedures.
#
#######################################################################

data_OLODEA
_chemical_formula_moiety         '(C14 H16 N14 Zn2)n'
_symmetry_cell_setting           rhombohedral
_symmetry_space_group_name_H-M   'R 3 m'
_symmetry_Int_Tables_number      160
_space_group_name_Hall           'R 3 -2"'
loop_
_symmetry_equiv_pos_site_id
_symmetry_equiv_pos_as_xyz
1 x,y,z
2 -y,x-y,z
3 -x+y,-x,z
4 -y,-x,z
5 -x+y,y,z
6 x,x-y,z
7 2/3+x,1/3+y,1/3+z
8 2/3-y,1/3+x-y,1/3+z
9 2/3-x+y,1/3-x,1/3+z
10 2/3-y,1/3-x,1/3+z
11 2/3-x+y,1/3+y,1/3+z
12 2/3+x,1/3+x-y,1/3+z
13 1/3+x,2/3+y,2/3+z
14 1/3-y,2/3+x-y,2/3+z
15 1/3-x+y,2/3-x,2/3+z
16 1/3-y,2/3-x,2/3+z
17 1/3-x+y,2/3+y,2/3+z
18 1/3+x,2/3+x-y,2/3+z
_cell_length_a                   25.1117(9)
_cell_length_b                   25.1117(9)
_cell_length_c                   13.2033(8)
_cell_angle_alpha                90
_cell_angle_beta                 90
_cell_angle_gamma                120
_cell_volume                     7210.5
loop_
_atom_site_label
_atom_site_type_symbol
_atom_site_fract_x
_atom_site_fract_y
_atom_site_fract_z
_atom_site_U_iso_or_equiv
_atom_site_thermal_displace_type
Zn1 Zn 0.42879(4) 0.33157(5) 0.00124(8) 0.0446 Uani
N1 N 0.4153(3) 0.2524(3) 0.0534(5) 0.0487 Uani
C1 C 0.3970(4) 0.3903(4) 0.1766(9) 0.0568 Uani
C2 C 0.3758(4) 0.2161(4) 0.1326(5) 0.0577 Uani
N2 N 0.5175(3) 0.3967(3) -0.0055(6) 0.0581 Uani
C3 C 0.5461(3) 0.4539(3) -0.0315(10) 0.0603 Uani
N3 N 0.3180(4) 0.3891(5) 0.1192(6) 0.0808 Uani
N4 N 0.3869(3) 0.3664(3) 0.0867(5) 0.0477 Uani
C4 C 0.4370(6) 0.2185(3) 0.0085(10) 0.0526 Uani
C5 C 0.3418(6) 0.2275(5) 0.2023(8) 0.0856 Uani
H1 H 0.3433 0.2653 0.2044 0.1020 Uiso
N5 N 0.3373(4) 0.3677(6) 0.0510(6) 0.0876 Uani
N6 N 0.3540(2) 0.4038(3) 0.2016(4) 0.0451 Uani
N7 N 0.5586(4) 0.3874(4) 0.0388(12) 0.1163 Uani
C6 C 0.4803(7) 0.2402(3) -0.0765(11) 0.0706 Uani
C7 C 0.3049(7) 0.1800(6) 0.2699(10) 0.1031 Uani
H2 H 0.2799 0.1857 0.3156 0.1230 Uiso
C8 C 0.5144(5) 0.4856(5) -0.083(2) 0.1153 Uani
C9 C 0.4443(8) 0.3925(11) 0.2479(11) 0.1451 Uani
H3 H 0.4704 0.3808 0.2126 0.2170 Uiso
H4 H 0.4687 0.4334 0.2738 0.2170 Uiso
H5 H 0.4243 0.3645 0.3030 0.2170 Uiso
N1E N 0.4153(3) 0.1629(4) 0.0534(5) 0.0487 Uani
C2E C 0.3758(4) 0.1597(6) 0.1326(5) 0.0577 Uani
C5E C 0.3418(6) 0.1143(8) 0.2023(8) 0.0856 Uani
H1E H 0.3433 0.0780 0.2044 0.1020 Uiso
C7E C 0.3049(7) 0.1249(9) 0.2699(10) 0.1031 Uani
H2E H 0.2799 0.0942 0.3156 0.1230 Uiso
N2C N 0.6033(3) 0.4825(3) -0.0055(6) 0.0581 Uani
N7C N 0.6126(4) 0.4414(4) 0.0388(12) 0.1163 Uani
Zn1C Zn 0.66843(5) 0.57121(4) 0.00124(8) 0.0446 Uani
C1C C 0.6097(4) 0.6030(4) 0.1766(9) 0.0568 Uani
N3C N 0.6109(5) 0.6820(4) 0.1192(6) 0.0808 Uani
N4C N 0.6336(3) 0.6131(3) 0.0867(5) 0.0477 Uani
N5C N 0.6323(6) 0.6627(4) 0.0510(6) 0.0876 Uani
N6C N 0.5962(3) 0.6460(2) 0.2016(4) 0.0451 Uani
C9C C 0.6075(11) 0.5557(8) 0.2479(11) 0.1451 Uani
H3C H 0.6192 0.5296 0.2126 0.2170 Uiso
H4C H 0.5666 0.5313 0.2738 0.2170 Uiso
H5C H 0.6355 0.5757 0.3030 0.2170 Uiso
Zn1E Zn 0.42879(4) 0.09722(6) 0.00124(8) 0.0446 Uani
Zn1G Zn 0.33510(5) 0.43055(6) 0.33457(8) 0.0446 Uani
Zn1J Zn 0.56945(6) 0.66490(5) 0.33457(8) 0.0446 Uani
N1C N 0.7476(3) 0.5847(3) 0.0534(5) 0.0487 Uani
N6N N 0.3831(4) 0.3127(2) -0.1317(4) 0.0451 Uani
N6Q N 0.6873(2) 0.6169(4) -0.1317(4) 0.0451 Uani
loop_
_atom_site_aniso_label
_atom_site_aniso_U_11
_atom_site_aniso_U_22
_atom_site_aniso_U_33
_atom_site_aniso_U_23
_atom_site_aniso_U_13
_atom_site_aniso_U_12
Zn1 0.0429(5) 0.0374(4) 0.0495(4) 0.0015(3) 0.0007(5) 0.0171(4)
N1 0.059(3) 0.043(3) 0.054(3) 0.009(2) 0.010(3) 0.033(3)
C1 0.049(4) 0.062(4) 0.065(5) -0.008(4) -0.002(4) 0.032(3)
C2 0.090(5) 0.048(4) 0.045(4) 0.008(3) 0.011(3) 0.042(4)
N2 0.040(3) 0.039(3) 0.081(4) -0.011(3) 0.000(3) 0.009(2)
C3 0.054(5) 0.054(5) 0.069(8) 0.004(3) -0.004(3) 0.024(5)
N3 0.064(4) 0.128(7) 0.073(5) -0.033(5) -0.026(4) 0.065(5)
N4 0.043(3) 0.048(3) 0.051(3) -0.007(2) 0.002(2) 0.022(2)
C4 0.062(7) 0.046(4) 0.055(5) 0.003(3) 0.005(5) 0.031(3)
C5 0.134(9) 0.067(5) 0.078(6) 0.018(5) 0.035(6) 0.067(6)
N5 0.079(5) 0.158(9) 0.060(4) -0.044(5) -0.028(4) 0.085(6)
N6 0.040(3) 0.050(3) 0.042(3) 0.003(2) -0.003(2) 0.020(2)
N7 0.047(4) 0.050(4) 0.241(15) 0.002(7) -0.022(6) 0.016(3)
C6 0.084(8) 0.059(4) 0.077(8) 0.015(3) 0.031(7) 0.042(4)
C7 0.150(11) 0.087(7) 0.096(7) 0.026(6) 0.056(8) 0.077(8)
C8 0.070(6) 0.070(6) 0.17(2) 0.041(7) -0.041(7) 0.008(7)
C9 0.137(12) 0.28(2) 0.102(9) -0.089(12) -0.054(9) 0.167(15)
N1E 0.059 0.036 0.054 0.001 0.01 0.026
C2E 0.09 0.054 0.045 0.003 0.011 0.048
C5E 0.134 0.067 0.078 0.017 0.035 0.067
C7E 0.15 0.083 0.096 0.03 0.056 0.073
N2C 0.039 0.04 0.081 0 0.011 0.009
N7C 0.05 0.047 0.241 0.022 -0.002 0.016
Zn1C 0.0374 0.0429 0.0495 -0.0007 -0.0015 0.0171
C1C 0.062 0.049 0.065 0.002 0.008 0.032
N3C 0.128 0.064 0.073 0.026 0.033 0.065
N4C 0.048 0.043 0.051 -0.002 0.007 0.022
N5C 0.158 0.079 0.06 0.028 0.044 0.085
N6C 0.05 0.04 0.042 0.003 -0.003 0.02
C9C 0.28 0.137 0.102 0.054 0.089 0.167
Zn1E 0.0429 0.0461 0.0495 -0.0008 0.0007 0.0258
Zn1G 0.0374 0.0461 0.0495 -0.0008 -0.0015 0.0203
Zn1J 0.0461 0.0374 0.0495 0.0015 0.0008 0.0203
N1C 0.043 0.059 0.054 -0.01 -0.009 0.033
N6N 0.05 0.04 0.042 0.003 0.006 0.02
N6Q 0.04 0.05 0.042 -0.006 -0.003 0.02
loop_
_geom_bond_atom_site_label_1
_geom_bond_atom_site_label_2
_geom_bond_site_symmetry_1
_geom_bond_site_symmetry_2
Zn1 N1 1_555 1_555
N1 C2 1_555 1_555
C1 N4 1_555 1_555
C2 C5 1_555 1_555
N2 Zn1 1_555 1_555
C3 N2 1_555 1_555
N3 N5 1_555 1_555
N4 Zn1 1_555 1_555
C4 N1 1_555 1_555
C5 H1 1_555 1_555
N5 N4 1_555 1_555
N6 C1 1_555 1_555
N7 N2 1_555 1_555
C6 C4 1_555 1_555
C7 C5 1_555 1_555
H2 C7 1_555 1_555
C8 C3 1_555 1_555
C9 C1 1_555 1_555
H3 C9 1_555 1_555
H4 C9 1_555 1_555
H5 C9 1_555 1_555
N1E C4 1_555 1_555
C2E C2 1_555 1_555
C5E C2E 1_555 1_555
H1E C5E 1_555 1_555
C7E C7 1_555 1_555
H2E C7E 1_555 1_555
N2C C3 1_555 1_555
N7C N7 1_555 1_555
Zn1C N2C 1_555 1_555
C1C N4C 1_555 1_555
N3C N5C 1_555 1_555
N4C Zn1C 1_555 1_555
N5C N4C 1_555 1_555
N6C C1C 1_555 1_555
C9C C1C 1_555 1_555
H3C C9C 1_555 1_555
H4C C9C 1_555 1_555
H5C C9C 1_555 1_555
Zn1E N1E 1_555 1_555
Zn1G N6 1_555 1_555
Zn1J N6C 1_555 1_555
N1C Zn1C 1_555 1_555
N6N Zn1 1_555 1_555
N6Q Zn1C 1_555 1_555
N3 N6 1_555 1_555
N1E C2E 1_555 1_555
C5E C7E 1_555 1_555
N2C N7C 1_555 1_555
N3C N6C 1_555 1_555

#END
