
#######################################################################
#
#                 Cambridge Crystallographic Data Centre
#                                CCDC 
#
#######################################################################
#
# If this CIF has been generated from an entry in the Cambridge 
# Structural Database, then it will include bibliographic, chemical, 
# crystal, experimental, refinement or atomic coordinate data resulting 
# from the CCDC's data processing and validation procedures.
#
#######################################################################

data_ASIQEA
_chemical_formula_moiety         '(C52 H43 Cu2 Mo12 N16 O50 P1)n'
_symmetry_cell_setting           tetragonal
_symmetry_space_group_name_H-M   'P 42/n'
_symmetry_Int_Tables_number      86
_space_group_name_Hall           '-P 4bc'
loop_
_symmetry_equiv_pos_site_id
_symmetry_equiv_pos_as_xyz
1 x,y,z
2 1/2-x,1/2-y,z
3 -y,1/2+x,1/2+z
4 1/2+y,-x,1/2+z
5 -x,-y,-z
6 1/2+x,1/2+y,-z
7 y,1/2-x,1/2-z
8 1/2-y,x,1/2-z
_cell_length_a                   18.001(5)
_cell_length_b                   18.001(5)
_cell_length_c                   12.946(5)
_cell_angle_alpha                90
_cell_angle_beta                 90
_cell_angle_gamma                90
_cell_volume                     4194.97
loop_
_atom_site_label
_atom_site_type_symbol
_atom_site_fract_x
_atom_site_fract_y
_atom_site_fract_z
Mo1 Mo 0.66730(2) -0.13442(2) 0.55767(3)
O1 O 0.61257(19) -0.0946(2) 0.4638(3)
O2 O 0.69536(17) -0.05101(17) 0.6356(3)
O3 O 0.76274(17) -0.13199(18) 0.4907(3)
O4 O 0.59508(18) -0.16187(17) 0.6575(3)
O5 O 0.75776(15) -0.18122(15) 0.6815(2)
O6 O 0.66143(17) -0.24026(18) 0.5171(3)
Mo2 Mo 0.77188(3) -0.05303(2) 0.74167(3)
Mo3 Mo 0.85563(2) -0.16075(2) 0.55731(4)
P1 P 0.7500 -0.2500 0.7500
O7 O 0.84255(17) -0.06874(17) 0.6378(3)
O8 O 0.7805(2) 0.0405(2) 0.7637(3)
O9 O 0.69451(17) -0.08095(17) 0.8391(3)
O10 O 0.91693(19) -0.1275(2) 0.4688(3)
Mo2G Mo 0.55303(2) -0.22812(3) 0.75833(3)
Mo3A Mo 0.64437(2) -0.33925(2) 0.55731(4)
O4F O 0.83813(17) -0.09508(18) 0.8425(3)
O6A O 0.83857(17) -0.25974(18) 0.5171(3)
O9F O 0.91905(17) -0.19451(17) 0.6609(3)
O5G O 0.68122(15) -0.24224(15) 0.8185(2)
O9G O 0.58095(17) -0.30549(17) 0.6609(3)
O2G O 0.55101(17) -0.30464(17) 0.8644(3)
O7G O 0.56874(17) -0.15745(17) 0.8622(3)
O8G O 0.4595(2) -0.2195(2) 0.7363(3)
O5A O 0.74224(15) -0.31878(15) 0.6815(2)
O5F O 0.81878(15) -0.25776(15) 0.8185(2)
O3A O 0.73726(17) -0.36801(18) 0.4907(3)
O7A O 0.65745(17) -0.43126(17) 0.6378(3)
O10A O 0.58307(19) -0.3725(2) 0.4688(3)
Mo1F Mo 0.86558(2) -0.16730(2) 0.94233(3)
Mo3G Mo 0.66075(2) -0.14437(2) 0.94269(4)
Mo1A Mo 0.83270(2) -0.36558(2) 0.55767(3)
Mo2F Mo 0.94697(2) -0.27188(3) 0.75833(3)
Mo1G Mo 0.63442(2) -0.33270(2) 0.94233(3)
Mo2A Mo 0.72812(3) -0.44697(2) 0.74167(3)
Mo3F Mo 0.83925(2) -0.35563(2) 0.94269(4)
O1F O 0.9054(2) -0.11257(19) 1.0362(3)
O2F O 0.94899(17) -0.19536(17) 0.8644(3)
O3F O 0.86801(18) -0.26274(17) 1.0093(3)
O6F O 0.75974(18) -0.16143(17) 0.9829(3)
O3G O 0.63199(18) -0.23726(17) 1.0093(3)
O10G O 0.6275(2) -0.08307(19) 1.0312(3)
O1A O 0.88743(19) -0.4054(2) 0.4638(3)
O2A O 0.80464(17) -0.44899(17) 0.6356(3)
O4A O 0.90492(18) -0.33813(17) 0.6575(3)
O7F O 0.93126(17) -0.34255(17) 0.8622(3)
O8F O 1.0405(2) -0.2805(2) 0.7363(3)
O6G O 0.74026(18) -0.33857(17) 0.9829(3)
O1G O 0.5946(2) -0.38743(19) 1.0362(3)
O4G O 0.66187(17) -0.40492(18) 0.8425(3)
O8A O 0.7195(2) -0.5405(2) 0.7637(3)
O9A O 0.80549(17) -0.41905(17) 0.8391(3)
O10F O 0.8725(2) -0.41693(19) 1.0312(3)
Cu1 Cu 1.0000 0.0000 0.5000
N1 N 0.5574(2) 0.0437(2) 0.3075(3)
N2 N 0.5140(2) 0.0112(2) 0.1539(3)
N3 N 0.9129(2) 0.0661(2) 0.4742(3)
N4 N 0.7985(2) 0.1065(2) 0.4560(3)
C1 C 0.6013(2) 0.0778(2) 0.3855(3)
C2 C 0.8421(3) 0.0472(3) 0.4709(4)
H1 H 0.8247 -0.0011 0.4781
C3 C 0.6076(3) 0.1512(3) 0.5396(4)
C4 C 0.6788(2) 0.0728(3) 0.3825(4)
H2 H 0.7026 0.0465 0.3303
C5 C 0.7188(2) 0.1080(2) 0.4589(4)
C6 C 0.5686(3) 0.0438(3) 0.2046(4)
H3 H 0.6101 0.0645 0.1728
O11 O 0.4997(3) 0.1988(3) 0.6279(5)
C7 C 0.4647(3) -0.0116(3) 0.2299(4)
H4 H 0.4205 -0.0370 0.2179
C8 C 0.5662(2) 0.1176(3) 0.4624(4)
H5 H 0.5147 0.1218 0.4625
C9 C 0.6851(3) 0.1462(3) 0.5374(4)
H6 H 0.7134 0.1686 0.5888
C10 C 0.4901(3) 0.0084(3) 0.3237(4)
H7 H 0.4670 0.0001 0.3869
C11 C 0.9143(3) 0.1415(3) 0.4592(5)
H8 H 0.9570 0.1705 0.4569
O12 O 0.6098(3) 0.2345(4) 0.6809(5)
C12 C 0.8447(3) 0.1672(3) 0.4484(6)
H9 H 0.8306 0.2163 0.4378
C13 C 0.5718(3) 0.1961(3) 0.6235(5)
N1D N 1.4426(2) -0.0437(2) 0.6925(3)
N2D N 1.4860(2) -0.0112(2) 0.8461(3)
N3D N 1.0871(2) -0.0661(2) 0.5258(3)
N4D N 1.2015(2) -0.1065(2) 0.5440(3)
C1D C 1.3987(2) -0.0778(2) 0.6145(3)
C2D C 1.1579(3) -0.0472(3) 0.5291(4)
H1D H 1.1753 0.0011 0.5219
C3D C 1.3924(3) -0.1512(3) 0.4604(4)
C4D C 1.3212(2) -0.0728(3) 0.6175(4)
H2D H 1.2974 -0.0465 0.6697
C5D C 1.2812(2) -0.1080(2) 0.5411(4)
C6D C 1.4314(3) -0.0438(3) 0.7954(4)
H3D H 1.3899 -0.0645 0.8272
O11D O 1.5003(3) -0.1988(3) 0.3721(5)
C7D C 1.5353(3) 0.0116(3) 0.7701(4)
H4D H 1.5795 0.0370 0.7821
C8D C 1.4338(2) -0.1176(3) 0.5376(4)
H5D H 1.4853 -0.1218 0.5375
C9D C 1.3149(3) -0.1462(3) 0.4626(4)
H6D H 1.2866 -0.1686 0.4112
C10D C 1.5099(3) -0.0084(3) 0.6763(4)
H7D H 1.5330 -0.0001 0.6131
C11D C 1.0857(3) -0.1415(3) 0.5408(5)
H8D H 1.0430 -0.1705 0.5431
O12D O 1.3902(3) -0.2345(4) 0.3191(5)
C12D C 1.1553(3) -0.1672(3) 0.5516(6)
H9D H 1.1694 -0.2163 0.5622
C13D C 1.4282(3) -0.1961(3) 0.3765(5)
Cu1C Cu 0.5000 0.0000 0.0000
Cu1C_2 Cu 1.5000 0.0000 1.0000
N2B N 0.9888(2) 0.0140(2) 0.6539(3)
N2F N 1.0112(2) -0.0140(2) 0.3461(3)
N1B N 0.9563(2) 0.0574(2) 0.8075(3)
C6B C 0.9562(3) 0.0686(3) 0.7046(4)
Cu1B Cu 1.0000 0.5000 1.0000
N4B N 0.8935(2) 0.2985(2) 0.9560(3)
C5B C 0.8920(2) 0.2188(2) 0.9589(4)
C12B C 0.8328(3) 0.3447(3) 0.9484(6)
N3B N 0.9339(2) 0.4129(2) 0.9742(3)
C1B C 0.9222(2) 0.1013(2) 0.8855(3)
C4B C 0.9272(3) 0.1788(2) 0.8825(4)
C2B C 0.9528(3) 0.3421(3) 0.9709(4)
C8B C 0.8824(3) 0.0662(2) 0.9624(4)
H1B H 1.0011 0.3247 0.9781
C7B C 1.0116(3) -0.0353(3) 0.7299(4)
C3B C 0.8488(3) 0.1076(3) 1.0396(4)
C9B C 0.8538(3) 0.1851(3) 1.0374(4)
C10B C 0.9916(3) -0.0099(3) 0.8237(4)
C11B C 0.8585(3) 0.4143(3) 0.9592(5)
H2B H 0.9535 0.2026 0.8303
O11B O 0.8012(3) -0.0003(3) 1.1279(5)
C13B C 0.8039(3) 0.0718(3) 1.1235(5)
H4B H 1.0370 -0.0795 0.7179
H5B H 0.8782 0.0147 0.9625
H7B H 0.9999 -0.0330 0.8869
H3B H 0.9355 0.1101 0.6728
H6B H 0.8314 0.2134 1.0888
O12B O 0.7655(4) 0.1098(3) 1.1809(5)
H9B H 0.7837 0.3306 0.9378
H8B H 0.8295 0.4570 0.9569
Cu1B_2 Cu 1.0000 -0.5000 0.0000
N3F N 1.0661(2) -0.4129(2) 0.0258(3)
N2E N 1.0140(2) -0.4888(2) -0.1539(3)
N3B_2 N 0.9339(2) -0.5871(2) -0.0258(3)
N2A N 0.9860(2) -0.5112(2) 0.1539(3)
C6F C 1.0438(3) -0.0686(3) 0.2954(4)
C7F C 0.9884(3) 0.0353(3) 0.2701(4)
N4F N 1.1065(2) -0.2985(2) 0.0440(3)
C2F C 1.0472(3) -0.3421(3) 0.0291(4)
C5F C 1.1080(2) -0.2188(2) 0.0411(4)
C12F C 1.1672(3) -0.3447(3) 0.0516(6)
C11F C 1.1415(3) -0.4143(3) 0.0408(5)
C1F C 1.0778(2) -0.1013(2) 0.1145(3)
C4F C 1.0728(3) -0.1788(2) 0.1175(4)
H1F H 0.9989 -0.3247 0.0219
C3F C 1.1512(3) -0.1076(3) -0.0396(4)
C8F C 1.1176(3) -0.0662(2) 0.0376(4)
N1F N 1.0437(2) -0.0574(2) 0.1925(3)
C10F C 1.0084(3) 0.0099(3) 0.1763(4)
H5F H 1.1218 -0.0147 0.0375
H7F H 1.0001 0.0330 0.1131
H9F H 1.2163 -0.3306 0.0622
O11F O 1.1988(3) 0.0003(3) -0.1279(5)
C13F C 1.1961(3) -0.0718(3) -0.1235(5)
C9F C 1.1462(3) -0.1851(3) -0.0374(4)
H6F H 1.1686 -0.2134 -0.0888
H4F H 0.9630 0.0795 0.2821
H3F H 1.0645 -0.1101 0.3272
H2F H 1.0465 -0.2026 0.1697
O12F O 1.2345(4) -0.1098(3) -0.1809(5)
H8F H 1.1705 -0.4570 0.0431
O13 O 0.7500 0.2500 0.7726(8)
O14 O 0.3980(6) 0.2729(10) 0.7654(7)
loop_
_geom_bond_atom_site_label_1
_geom_bond_atom_site_label_2
_geom_bond_site_symmetry_1
_geom_bond_site_symmetry_2
Mo1 O1 1_555 1_555
O2 Mo1 1_555 1_555
O3 Mo1 1_555 1_555
O4 Mo1 1_555 1_555
O5 Mo1 1_555 1_555
O6 Mo1 1_555 1_555
Mo2 O2 1_555 1_555
Mo3 O3 1_555 1_555
P1 O5 1_555 1_555
O7 Mo2 1_555 1_555
O8 Mo2 1_555 1_555
O9 Mo2 1_555 1_555
O10 Mo3 1_555 1_555
Cu1 N3 1_555 1_555
N1 C1 1_555 1_555
N2 C6 1_555 1_555
N3 C2 1_555 1_555
N4 C2 1_555 1_555
C1 C4 1_555 1_555
C2 H1 1_555 1_555
C3 C8 1_555 1_555
C4 H2 1_555 1_555
C5 N4 1_555 1_555
C6 N1 1_555 1_555
H3 C6 1_555 1_555
O11 C13 1_555 1_555
C7 N2 1_555 1_555
H4 C7 1_555 1_555
C8 C1 1_555 1_555
H5 C8 1_555 1_555
C9 C3 1_555 1_555
H6 C9 1_555 1_555
C10 N1 1_555 1_555
H7 C10 1_555 1_555
C11 N3 1_555 1_555
H8 C11 1_555 1_555
O12 C13 1_555 1_555
C12 N4 1_555 1_555
H9 C12 1_555 1_555
C13 C3 1_555 1_555
Mo2G O4 1_555 1_555
Mo3A O6 1_555 1_555
O4F Mo2 1_555 1_555
O6A Mo3 1_555 1_555
O9F Mo3 1_555 1_555
O5G P1 1_555 1_555
O9G Mo2G 1_555 1_555
O2G Mo2G 1_555 1_555
O7G Mo2G 1_555 1_555
O8G Mo2G 1_555 1_555
O5A P1 1_555 1_555
O5F P1 1_555 1_555
O3A Mo3A 1_555 1_555
O7A Mo3A 1_555 1_555
O10A Mo3A 1_555 1_555
Mo1F O4F 1_555 1_555
Mo3G O9 1_555 1_555
Mo1A O6A 1_555 1_555
Mo2F O9F 1_555 1_555
Mo1G O5G 1_555 1_555
Mo2A O5A 1_555 1_555
Mo3F O5F 1_555 1_555
O1F Mo1F 1_555 1_555
O2F Mo1F 1_555 1_555
O3F Mo1F 1_555 1_555
O6F Mo1F 1_555 1_555
O3G Mo3G 1_555 1_555
O10G Mo3G 1_555 1_555
O1A Mo1A 1_555 1_555
O2A Mo1A 1_555 1_555
O4A Mo1A 1_555 1_555
O7F Mo2F 1_555 1_555
O8F Mo2F 1_555 1_555
O6G Mo1G 1_555 1_555
O1G Mo1G 1_555 1_555
O4G Mo1G 1_555 1_555
O8A Mo2A 1_555 1_555
O9A Mo2A 1_555 1_555
O10F Mo3F 1_555 1_555
N1D C1D 1_555 1_555
N2D C6D 1_555 1_555
N3D Cu1 1_555 1_555
N4D C2D 1_555 1_555
C1D C4D 1_555 1_555
C2D N3D 1_555 1_555
H1D C2D 1_555 1_555
C3D C8D 1_555 1_555
C4D H2D 1_555 1_555
C5D N4D 1_555 1_555
C6D N1D 1_555 1_555
H3D C6D 1_555 1_555
O11D C13D 1_555 1_555
C7D N2D 1_555 1_555
H4D C7D 1_555 1_555
C8D C1D 1_555 1_555
H5D C8D 1_555 1_555
C9D C3D 1_555 1_555
H6D C9D 1_555 1_555
C10D N1D 1_555 1_555
H7D C10D 1_555 1_555
C11D N3D 1_555 1_555
H8D C11D 1_555 1_555
O12D C13D 1_555 1_555
C12D N4D 1_555 1_555
H9D C12D 1_555 1_555
C13D C3D 1_555 1_555
Cu1C N2 1_555 1_555
Cu1C_2 N2D 1_555 1_555
N2B Cu1 1_555 1_555
N2F Cu1 1_555 1_555
N1B C6B 1_555 1_555
C6B N2B 1_555 1_555
Cu1B N3B 1_555 1_555
N4B C5B 1_555 1_555
C5B C4B 1_555 1_555
C12B N4B 1_555 1_555
N3B C2B 1_555 1_555
C1B N1B 1_555 1_555
C4B C1B 1_555 1_555
C2B N4B 1_555 1_555
C8B C1B 1_555 1_555
H1B C2B 1_555 1_555
C7B N2B 1_555 1_555
C3B C8B 1_555 1_555
C9B C5B 1_555 1_555
C10B N1B 1_555 1_555
C11B C12B 1_555 1_555
H2B C4B 1_555 1_555
O11B C13B 1_555 1_555
C13B C3B 1_555 1_555
H4B C7B 1_555 1_555
H5B C8B 1_555 1_555
H7B C10B 1_555 1_555
H3B C6B 1_555 1_555
H6B C9B 1_555 1_555
O12B C13B 1_555 1_555
H9B C12B 1_555 1_555
H8B C11B 1_555 1_555
Cu1B_2 N3F 1_555 1_555
N3F C2F 1_555 1_555
N2E Cu1B_2 1_555 1_555
N3B_2 Cu1B_2 1_555 1_555
N2A Cu1B_2 1_555 1_555
C6F N2F 1_555 1_555
C7F N2F 1_555 1_555
N4F C2F 1_555 1_555
C2F H1F 1_555 1_555
C5F N4F 1_555 1_555
C12F N4F 1_555 1_555
C11F N3F 1_555 1_555
C1F C4F 1_555 1_555
C4F C5F 1_555 1_555
C3F C8F 1_555 1_555
C8F C1F 1_555 1_555
N1F C6F 1_555 1_555
C10F C7F 1_555 1_555
H5F C8F 1_555 1_555
H7F C10F 1_555 1_555
H9F C12F 1_555 1_555
O11F C13F 1_555 1_555
C13F C3F 1_555 1_555
C9F C5F 1_555 1_555
H6F C9F 1_555 1_555
H4F C7F 1_555 1_555
H3F C6F 1_555 1_555
H2F C4F 1_555 1_555
O12F C13F 1_555 1_555
H8F C11F 1_555 1_555
O5 Mo2 1_555 1_555
O5 Mo3 1_555 1_555
Mo3 O7 1_555 1_555
C4 C5 1_555 1_555
C5 C9 1_555 1_555
C7 C10 1_555 1_555
C11 C12 1_555 1_555
Mo2G O5G 1_555 1_555
Mo3A O9G 1_555 1_555
Mo3A O5A 1_555 1_555
O5G Mo3G 1_555 1_555
O2G Mo1G 1_555 1_555
O7G Mo3G 1_555 1_555
O5A Mo1A 1_555 1_555
O5F Mo1F 1_555 1_555
O5F Mo2F 1_555 1_555
O3A Mo1A 1_555 1_555
O7A Mo2A 1_555 1_555
Mo3G O6F 1_555 1_555
Mo2F O2F 1_555 1_555
Mo2F O4A 1_555 1_555
Mo1G O3G 1_555 1_555
Mo2A O2A 1_555 1_555
Mo2A O4G 1_555 1_555
Mo3F O3F 1_555 1_555
Mo3F O7F 1_555 1_555
Mo3F O6G 1_555 1_555
Mo3F O9A 1_555 1_555
C4D C5D 1_555 1_555
C5D C9D 1_555 1_555
C7D C10D 1_555 1_555
C11D C12D 1_555 1_555
N3B C11B 1_555 1_555
C7B C10B 1_555 1_555
C3B C9B 1_555 1_555
C12F C11F 1_555 1_555
C1F N1F 1_555 1_555
C3F C9F 1_555 1_555
N1F C10F 1_555 1_555

#END
