
#######################################################################
#
#                 Cambridge Crystallographic Data Centre
#                                CCDC 
#
#######################################################################
#
# If this CIF has been generated from an entry in the Cambridge 
# Structural Database, then it will include bibliographic, chemical, 
# crystal, experimental, refinement or atomic coordinate data resulting 
# from the CCDC's data processing and validation procedures.
#
#######################################################################

data_ASIQIE
_chemical_formula_moiety         '(C52 H44 Cu2 N16 O50 Si1 W12)n'
_symmetry_cell_setting           tetragonal
_symmetry_space_group_name_H-M   'P 42/n'
_symmetry_Int_Tables_number      86
_space_group_name_Hall           '-P 4bc'
loop_
_symmetry_equiv_pos_site_id
_symmetry_equiv_pos_as_xyz
1 x,y,z
2 1/2-x,1/2-y,z
3 -y,1/2+x,1/2+z
4 1/2+y,-x,1/2+z
5 -x,-y,-z
6 1/2+x,1/2+y,-z
7 y,1/2-x,1/2-z
8 1/2-y,x,1/2-z
_cell_length_a                   18.120(5)
_cell_length_b                   18.120(5)
_cell_length_c                   12.905(5)
_cell_angle_alpha                90
_cell_angle_beta                 90
_cell_angle_gamma                90
_cell_volume                     4237.16
loop_
_atom_site_label
_atom_site_type_symbol
_atom_site_fract_x
_atom_site_fract_y
_atom_site_fract_z
W1 W 0.66835(2) 0.86322(2) 0.94349(2)
O1 O 0.7583(2) 0.8226(2) 0.8230(3)
O2 O 0.7629(2) 0.8674(3) 1.0131(4)
O3 O 0.6972(3) 0.9485(3) 0.8658(4)
O4 O 0.5978(2) 0.8382(3) 0.8402(4)
O5 O 0.6628(3) 0.7600(3) 0.9820(4)
O6 O 0.6152(3) 0.9050(3) 1.0347(4)
Si1 Si 0.7500 0.7500 0.7500
W2 W 0.77214(2) 0.94557(2) 0.75875(2)
W3 W 0.85415(2) 0.83927(2) 0.94292(2)
O7 O 0.8437(2) 0.9306(3) 0.8639(4)
O8 O 0.6959(3) 0.9173(2) 0.6617(4)
O9 O 0.7819(3) 1.0376(3) 0.7354(4)
O10 O 0.9165(3) 0.8713(3) 1.0320(4)
W2G W 0.55443(2) 0.77214(2) 0.74125(2)
W3A W 0.64585(2) 0.66073(2) 0.94292(2)
O1A O 0.7417(2) 0.6774(2) 0.8230(3)
O1F O 0.8226(2) 0.7417(2) 0.6770(3)
O1G O 0.6774(2) 0.7583(2) 0.6770(3)
O4F O 0.8382(3) 0.9022(2) 0.6598(4)
O5A O 0.8372(3) 0.7400(3) 0.9820(4)
O8F O 0.9173(2) 0.8041(3) 0.8383(4)
O7G O 0.5694(3) 0.8437(2) 0.6361(4)
O8G O 0.5827(2) 0.6959(3) 0.8383(4)
O9G O 0.4624(3) 0.7819(3) 0.7646(4)
O3G O 0.5515(3) 0.6972(3) 0.6342(4)
O7A O 0.6563(2) 0.5694(3) 0.8639(4)
O10A O 0.5835(3) 0.6287(3) 1.0320(4)
O2A O 0.7371(2) 0.6326(3) 1.0131(4)
W1A W 0.83165(2) 0.63678(2) 0.94349(2)
W2A W 0.72786(2) 0.55443(2) 0.75875(2)
W1F W 0.86322(2) 0.83165(2) 0.55651(2)
W2F W 0.94557(2) 0.72786(2) 0.74125(2)
W3F W 0.83927(2) 0.64585(2) 0.55708(2)
W1G W 0.63678(2) 0.66835(2) 0.55651(2)
W3G W 0.66073(2) 0.85415(2) 0.55708(2)
O3A O 0.8028(3) 0.5515(3) 0.8658(4)
O4A O 0.9022(2) 0.6618(3) 0.8402(4)
O6A O 0.8848(3) 0.5950(3) 1.0347(4)
O8A O 0.8041(3) 0.5827(2) 0.6617(4)
O9A O 0.7181(3) 0.4624(3) 0.7354(4)
O4G O 0.6618(3) 0.5978(2) 0.6598(4)
O2F O 0.8674(3) 0.7371(2) 0.4869(4)
O3F O 0.9485(3) 0.8028(3) 0.6342(4)
O5F O 0.7600(3) 0.8372(3) 0.5180(4)
O6F O 0.9050(3) 0.8848(3) 0.4653(4)
O7F O 0.9306(3) 0.6563(2) 0.6361(4)
O9F O 1.0376(3) 0.7181(3) 0.7646(4)
O10F O 0.8713(3) 0.5835(3) 0.4680(4)
O5G O 0.7400(3) 0.6628(3) 0.5180(4)
O2G O 0.6326(3) 0.7629(2) 0.4869(4)
O6G O 0.5950(3) 0.6152(3) 0.4653(4)
O10G O 0.6287(3) 0.9165(3) 0.4680(4)
Cu1 Cu 0.5000 0.0000 0.5000
N1 N 0.5144(3) 0.0100(3) 0.3457(4)
C1 C 0.4910(4) 0.0065(4) 0.1748(5)
H1 H 0.4683 -0.0020 0.1113
N2 N 0.5577(3) 0.0424(3) 0.1905(4)
C2 C 0.4651(4) -0.0139(4) 0.2692(5)
H2 H 0.4216 -0.0396 0.2812
N3 N 0.7980(3) 0.1070(3) 0.0400(4)
C3 C 0.6023(4) 0.0768(4) 0.1123(5)
C4 C 0.6082(4) 0.1502(4) -0.0438(5)
N4 N 0.9132(3) 0.0668(3) 0.0248(4)
C5 C 0.8421(4) 0.0473(4) 0.0297(5)
H3 H 0.8251 -0.0011 0.0266
C6 C 0.6846(4) 0.1456(4) -0.0410(5)
H4 H 0.7126 0.1677 -0.0928
C7 C 0.8439(4) 0.1667(4) 0.0470(8)
H5 H 0.8294 0.2155 0.0563
C8 C 0.6785(4) 0.0717(4) 0.1146(5)
H6 H 0.7023 0.0446 0.1658
C9 C 0.7188(4) 0.1084(4) 0.0381(5)
C10 C 0.5686(4) 0.0434(4) 0.2953(5)
H7 H 0.6092 0.0650 0.3273
C11 C 0.5668(4) 0.1159(4) 0.0358(5)
H8 H 0.5156 0.1199 0.0364
O11 O 0.6021(4) 0.2171(6) -0.1995(7)
C12 C 0.5696(5) 0.1923(5) -0.1273(6)
O12 O 0.4989(3) 0.2025(4) -0.1135(5)
C13 C 0.9137(4) 0.1423(4) 0.0382(6)
H9 H 0.9558 0.1717 0.0407
N1D N 0.4856(3) -0.0100(3) 0.6543(4)
C1D C 0.5090(4) -0.0065(4) 0.8252(5)
H1D H 0.5317 0.0020 0.8887
N2D N 0.4423(3) -0.0424(3) 0.8095(4)
C2D C 0.5349(4) 0.0139(4) 0.7308(5)
H2D H 0.5784 0.0396 0.7188
N3D N 0.2020(3) -0.1070(3) 0.9600(4)
C3D C 0.3977(4) -0.0768(4) 0.8877(5)
C4D C 0.3918(4) -0.1502(4) 1.0438(5)
N4D N 0.0868(3) -0.0668(3) 0.9752(4)
C5D C 0.1579(4) -0.0473(4) 0.9703(5)
H3D H 0.1749 0.0011 0.9734
C6D C 0.3154(4) -0.1456(4) 1.0410(5)
H4D H 0.2874 -0.1677 1.0928
C7D C 0.1561(4) -0.1667(4) 0.9530(8)
H5D H 0.1706 -0.2155 0.9437
C8D C 0.3215(4) -0.0717(4) 0.8854(5)
H6D H 0.2977 -0.0446 0.8342
C9D C 0.2812(4) -0.1084(4) 0.9619(5)
C10D C 0.4314(4) -0.0434(4) 0.7047(5)
H7D H 0.3908 -0.0650 0.6727
C11D C 0.4332(4) -0.1159(4) 0.9642(5)
H8D H 0.4844 -0.1199 0.9636
O11D O 0.3979(4) -0.2171(6) 1.1995(7)
C12D C 0.4304(5) -0.1923(5) 1.1273(6)
O12D O 0.5011(3) -0.2025(4) 1.1135(5)
C13D C 0.0863(4) -0.1423(4) 0.9618(6)
H9D H 0.0442 -0.1717 0.9593
Cu1B Cu 0.0000 0.0000 1.0000
Cu1B_2 Cu 1.0000 0.0000 0.0000
N4C N 0.5668(3) 0.0868(3) 0.5248(4)
N4G N 0.4332(3) -0.0868(3) 0.4752(4)
Cu1C Cu 0.5000 0.5000 1.0000
N1C N 0.5100(3) 0.4856(3) 0.8457(4)
C3C C 0.5768(4) 0.3977(4) 0.6123(5)
C11C C 0.6159(4) 0.4332(4) 0.5358(5)
C2C C 0.4861(4) 0.5349(4) 0.7692(5)
H2C H 0.4604 0.5784 0.7812
C1C C 0.5065(4) 0.5090(4) 0.6748(5)
N2C N 0.5424(3) 0.4423(3) 0.6905(4)
N3C N 0.6070(3) 0.2020(3) 0.5400(4)
C5C C 0.5473(4) 0.1579(4) 0.5297(5)
C4C C 0.6502(4) 0.3918(4) 0.4562(5)
C6C C 0.6456(4) 0.3154(4) 0.4590(5)
C12C C 0.6923(5) 0.4304(5) 0.3727(6)
C13C C 0.6423(4) 0.0863(4) 0.5382(6)
C10C C 0.5434(4) 0.4314(4) 0.7953(5)
H1C H 0.4980 0.5317 0.6113
C7C C 0.6667(4) 0.1561(4) 0.5470(8)
C9C C 0.6084(4) 0.2812(4) 0.5381(5)
C8C C 0.5717(4) 0.3215(4) 0.6146(5)
H8C H 0.6199 0.4844 0.5364
O11C O 0.7171(6) 0.3979(4) 0.3005(7)
O12C O 0.7025(4) 0.5011(3) 0.3865(5)
H9C H 0.6717 0.0442 0.5407
H5C H 0.7155 0.1706 0.5563
H3C H 0.4989 0.1749 0.5266
H7C H 0.5650 0.3908 0.8273
H4C H 0.6677 0.2874 0.4072
H6C H 0.5446 0.2977 0.6658
Cu1C_2 Cu 0.5000 -0.5000 0.0000
N1C_2 N 0.5100(3) -0.5144(3) -0.1543(4)
N4E N 0.4132(3) -0.4332(3) -0.0248(4)
N1G N 0.4900(3) -0.4856(3) 0.1543(4)
N4A N 0.5868(3) -0.5668(3) 0.0248(4)
C2G C 0.5139(4) -0.5349(4) 0.2308(5)
C10G C 0.4566(4) -0.4314(4) 0.2047(5)
C3G C 0.4232(4) -0.3977(4) 0.3877(5)
C11G C 0.3841(4) -0.4332(4) 0.4642(5)
N3G N 0.3930(3) -0.2020(3) 0.4600(4)
C5G C 0.4527(4) -0.1579(4) 0.4703(5)
H3G H 0.5011 -0.1749 0.4734
C7G C 0.3333(4) -0.1561(4) 0.4530(8)
C13G C 0.3577(4) -0.0863(4) 0.4618(6)
C8G C 0.4283(4) -0.3215(4) 0.3854(5)
H6G H 0.4554 -0.2977 0.3342
C4G C 0.3498(4) -0.3918(4) 0.5438(5)
C12G C 0.3077(5) -0.4304(5) 0.6273(6)
C1G C 0.4935(4) -0.5090(4) 0.3252(5)
N2G N 0.4576(3) -0.4423(3) 0.3095(4)
C9G C 0.3916(4) -0.2812(4) 0.4619(5)
H7G H 0.4350 -0.3908 0.1727
H2G H 0.5396 -0.5784 0.2188
C6G C 0.3544(4) -0.3154(4) 0.5410(5)
H4G H 0.3323 -0.2874 0.5928
H8G H 0.3801 -0.4844 0.4636
O11G O 0.2829(6) -0.3979(4) 0.6995(7)
O12G O 0.2975(4) -0.5011(3) 0.6135(5)
H1G H 0.5020 -0.5317 0.3887
H5G H 0.2845 -0.1706 0.4437
H9G H 0.3283 -0.0442 0.4593
O13 O 0.4119(6) 0.2659(11) 0.7450(7)
O14 O 0.7500 0.2500 0.2273(14)
loop_
_geom_bond_atom_site_label_1
_geom_bond_atom_site_label_2
_geom_bond_site_symmetry_1
_geom_bond_site_symmetry_2
W1 O1 1_555 1_555
O1 Si1 1_555 1_555
O2 W1 1_555 1_555
O3 W1 1_555 1_555
O4 W1 1_555 1_555
O5 W1 1_555 1_555
O6 W1 1_555 1_555
Si1 O1A 1_555 1_555
W2 O1 1_555 1_555
W3 O1 1_555 1_555
O7 W2 1_555 1_555
O8 W2 1_555 1_555
O9 W2 1_555 1_555
O10 W3 1_555 1_555
Cu1 N1 1_555 1_555
N1 C2 1_555 1_555
C1 H1 1_555 1_555
N2 C1 1_555 1_555
C2 C1 1_555 1_555
H2 C2 1_555 1_555
N3 C5 1_555 1_555
C3 N2 1_555 1_555
C4 C6 1_555 1_555
N4 C5 1_555 1_555
C5 H3 1_555 1_555
C6 H4 1_555 1_555
C7 N3 1_555 1_555
H5 C7 1_555 1_555
C8 C3 1_555 1_555
H6 C8 1_555 1_555
C9 N3 1_555 1_555
C10 N1 1_555 1_555
H7 C10 1_555 1_555
C11 C3 1_555 1_555
H8 C11 1_555 1_555
O11 C12 1_555 1_555
C12 C4 1_555 1_555
O12 C12 1_555 1_555
C13 N4 1_555 1_555
H9 C13 1_555 1_555
W2G O4 1_555 1_555
W3A O5 1_555 1_555
O1A W3A 1_555 1_555
O1F Si1 1_555 1_555
O1G Si1 1_555 1_555
O4F W2 1_555 1_555
O5A W3 1_555 1_555
O8F W3 1_555 1_555
O7G W2G 1_555 1_555
O8G W2G 1_555 1_555
O9G W2G 1_555 1_555
O3G W2G 1_555 1_555
O7A W3A 1_555 1_555
O10A W3A 1_555 1_555
O2A W3A 1_555 1_555
W1A O1A 1_555 1_555
W2A O1A 1_555 1_555
W1F O1F 1_555 1_555
W2F O1F 1_555 1_555
W3F O1F 1_555 1_555
W1G O1G 1_555 1_555
W3G O8 1_555 1_555
O3A W1A 1_555 1_555
O4A W1A 1_555 1_555
O6A W1A 1_555 1_555
O8A W2A 1_555 1_555
O9A W2A 1_555 1_555
O4G W2A 1_555 1_555
O2F W1F 1_555 1_555
O3F W1F 1_555 1_555
O5F W1F 1_555 1_555
O6F W1F 1_555 1_555
O7F W2F 1_555 1_555
O9F W2F 1_555 1_555
O10F W3F 1_555 1_555
O5G W3F 1_555 1_555
O2G W1G 1_555 1_555
O6G W1G 1_555 1_555
O10G W3G 1_555 1_555
N1D Cu1 1_555 1_555
C1D H1D 1_555 1_555
N2D C1D 1_555 1_555
C2D N1D 1_555 1_555
H2D C2D 1_555 1_555
N3D C5D 1_555 1_555
C3D N2D 1_555 1_555
C4D C6D 1_555 1_555
N4D C5D 1_555 1_555
C5D H3D 1_555 1_555
C6D H4D 1_555 1_555
C7D N3D 1_555 1_555
H5D C7D 1_555 1_555
C8D C3D 1_555 1_555
H6D C8D 1_555 1_555
C9D N3D 1_555 1_555
C10D N1D 1_555 1_555
H7D C10D 1_555 1_555
C11D C3D 1_555 1_555
H8D C11D 1_555 1_555
O11D C12D 1_555 1_555
C12D C4D 1_555 1_555
O12D C12D 1_555 1_555
C13D N4D 1_555 1_555
H9D C13D 1_555 1_555
Cu1B N4D 1_555 1_555
Cu1B_2 N4 1_555 1_555
N4C Cu1 1_555 1_555
N4G Cu1 1_555 1_555
Cu1C N1C 1_555 1_555
N1C C2C 1_555 1_555
C3C C11C 1_555 1_555
C11C C4C 1_555 1_555
C2C H2C 1_555 1_555
C1C C2C 1_555 1_555
N2C C3C 1_555 1_555
N3C C5C 1_555 1_555
C5C N4C 1_555 1_555
C4C C6C 1_555 1_555
C6C C9C 1_555 1_555
C12C C4C 1_555 1_555
C13C N4C 1_555 1_555
C10C N1C 1_555 1_555
H1C C1C 1_555 1_555
C7C N3C 1_555 1_555
C9C N3C 1_555 1_555
C8C C3C 1_555 1_555
H8C C11C 1_555 1_555
O11C C12C 1_555 1_555
O12C C12C 1_555 1_555
H9C C13C 1_555 1_555
H5C C7C 1_555 1_555
H3C C5C 1_555 1_555
H7C C10C 1_555 1_555
H4C C6C 1_555 1_555
H6C C8C 1_555 1_555
Cu1C_2 N1C_2 1_555 1_555
N4E Cu1C_2 1_555 1_555
N1G Cu1C_2 1_555 1_555
N4A Cu1C_2 1_555 1_555
C2G N1G 1_555 1_555
C10G N1G 1_555 1_555
C3G C11G 1_555 1_555
C11G C4G 1_555 1_555
N3G C5G 1_555 1_555
C5G N4G 1_555 1_555
H3G C5G 1_555 1_555
C7G N3G 1_555 1_555
C13G N4G 1_555 1_555
C8G C3G 1_555 1_555
H6G C8G 1_555 1_555
C4G C12G 1_555 1_555
C12G O11G 1_555 1_555
C1G C2G 1_555 1_555
N2G C10G 1_555 1_555
C9G N3G 1_555 1_555
H7G C10G 1_555 1_555
H2G C2G 1_555 1_555
C6G C4G 1_555 1_555
H4G C6G 1_555 1_555
H8G C11G 1_555 1_555
O12G C12G 1_555 1_555
H1G C1G 1_555 1_555
H5G C7G 1_555 1_555
H9G C13G 1_555 1_555
O2 W3 1_555 1_555
O3 W2 1_555 1_555
W3 O7 1_555 1_555
N2 C10 1_555 1_555
C4 C11 1_555 1_555
C6 C9 1_555 1_555
C7 C13 1_555 1_555
C8 C9 1_555 1_555
W2G O1G 1_555 1_555
W3A O8G 1_555 1_555
O1G W3G 1_555 1_555
O4F W1F 1_555 1_555
O5A W1A 1_555 1_555
O8F W2F 1_555 1_555
O7G W3G 1_555 1_555
O3G W1G 1_555 1_555
O7A W2A 1_555 1_555
O2A W1A 1_555 1_555
W2A O3A 1_555 1_555
W2F O4A 1_555 1_555
W2F O3F 1_555 1_555
W3F O8A 1_555 1_555
W3F O2F 1_555 1_555
W3F O7F 1_555 1_555
W1G O4G 1_555 1_555
W1G O5G 1_555 1_555
W3G O5F 1_555 1_555
W3G O2G 1_555 1_555
C1D C2D 1_555 1_555
N2D C10D 1_555 1_555
C4D C11D 1_555 1_555
C6D C9D 1_555 1_555
C7D C13D 1_555 1_555
C8D C9D 1_555 1_555
C1C N2C 1_555 1_555
N2C C10C 1_555 1_555
C13C C7C 1_555 1_555
C9C C8C 1_555 1_555
C3G N2G 1_555 1_555
C7G C13G 1_555 1_555
C8G C9G 1_555 1_555
C1G N2G 1_555 1_555
C9G C6G 1_555 1_555

#END
