
#######################################################################
#
#                 Cambridge Crystallographic Data Centre
#                                CCDC 
#
#######################################################################
#
# If this CIF has been generated from an entry in the Cambridge 
# Structural Database, then it will include bibliographic, chemical, 
# crystal, experimental, refinement or atomic coordinate data resulting 
# from the CCDC's data processing and validation procedures.
#
#######################################################################

data_EQUMUA
_chemical_formula_moiety         '(C18 H6 In1 O8 1-)n'
_symmetry_cell_setting           tetragonal
_symmetry_space_group_name_H-M   'P 42/m m c'
_symmetry_Int_Tables_number      131
_space_group_name_Hall           '-P 4c 2'
loop_
_symmetry_equiv_pos_site_id
_symmetry_equiv_pos_as_xyz
1 x,y,z
2 -x,-y,z
3 -y,x,1/2+z
4 y,-x,1/2+z
5 -x,y,-z
6 x,-y,-z
7 y,x,1/2-z
8 -y,-x,1/2-z
9 -x,-y,-z
10 x,y,-z
11 y,-x,1/2-z
12 -y,x,1/2-z
13 x,-y,z
14 -x,y,z
15 -y,-x,1/2+z
16 y,x,1/2+z
_cell_length_a                   9.9798(2)
_cell_length_b                   9.9798(2)
_cell_length_c                   23.1921(8)
_cell_angle_alpha                90
_cell_angle_beta                 90
_cell_angle_gamma                90
_cell_volume                     2309.85
loop_
_atom_site_label
_atom_site_type_symbol
_atom_site_fract_x
_atom_site_fract_y
_atom_site_fract_z
In1 In 0.0000 0.0000 0.2500
O1 O 0.0000 0.2412(10) 0.2603(3)
O2 O 0.0000 0.1426(5) 0.1795(3)
C1 C 0.0000 0.2474(9) 0.2078(5)
C2 C 0.0000 0.5000 0.2072(6)
H1 H -0.0000 0.5000 0.2473
C3 C -0.0000 0.3806(7) 0.1776(4)
C4 C -0.0000 0.3806(8) 0.1178(4)
H2 H 0.0000 0.2994 0.0981
C5 C 0.0000 0.5000 0.0865(6)
C6 C 0.0000 0.5000 0.0264(6)
O1A O 0.0000 0.7588(10) 0.2603(3)
O2A O -0.0000 0.8574(5) 0.1795(3)
C1A C 0.0000 0.7526(9) 0.2078(5)
C3A C -0.0000 0.6194(7) 0.1776(4)
C4A C 0.0000 0.6194(8) 0.1178(4)
H2A H 0.0000 0.7006 0.0981
O1D O -0.0000 0.2412(10) -0.2603(3)
O2D O 0.0000 0.1426(5) -0.1795(3)
C1D C 0.0000 0.2474(9) -0.2078(5)
C2D C -0.0000 0.5000 -0.2072(6)
H1D H 0.0000 0.5000 -0.2473
C3D C 0.0000 0.3806(7) -0.1776(4)
C4D C 0.0000 0.3806(8) -0.1178(4)
H2D H 0.0000 0.2994 -0.0981
C5D C -0.0000 0.5000 -0.0865(6)
C6D C -0.0000 0.5000 -0.0264(6)
O1E O -0.0000 0.7588(10) -0.2603(3)
O2E O -0.0000 0.8574(5) -0.1795(3)
C1E C 0.0000 0.7526(9) -0.2078(5)
C3E C -0.0000 0.6194(7) -0.1776(4)
C4E C 0.0000 0.6194(8) -0.1178(4)
H2E H -0.0000 0.7006 -0.0981
In1_2 In -0.0000 1.0000 0.2500
In1B In -0.0000 0.0000 -0.2500
In1B_2 In -0.0000 1.0000 -0.2500
O1A_2 O 0.0000 -0.2412(10) 0.2603(3)
O1F O 0.2412(10) -0.0000 0.2397(3)
O1G O -0.2412(10) -0.0000 0.2397(3)
O2A_2 O 0.0000 -0.1426(5) 0.1795(3)
O2F O 0.1426(5) -0.0000 0.3205(3)
O2G O -0.1426(5) -0.0000 0.3205(3)
loop_
_geom_bond_atom_site_label_1
_geom_bond_atom_site_label_2
_geom_bond_site_symmetry_1
_geom_bond_site_symmetry_2
In1 O1 1_555 1_555
O1 C1 1_555 1_555
O2 In1 1_555 1_555
C1 O2 1_555 1_555
C2 H1 1_555 1_555
C3 C1 1_555 1_555
C4 C3 1_555 1_555
H2 C4 1_555 1_555
C5 C4 1_555 1_555
C6 C5 1_555 1_555
O1A C1A 1_555 1_555
O2A C1A 1_555 1_555
C1A C3A 1_555 1_555
C3A C2 1_555 1_555
C4A C5 1_555 1_555
H2A C4A 1_555 1_555
O1D C1D 1_555 1_555
O2D C1D 1_555 1_555
C1D C3D 1_555 1_555
C2D H1D 1_555 1_555
C3D C2D 1_555 1_555
C4D C3D 1_555 1_555
H2D C4D 1_555 1_555
C5D C4D 1_555 1_555
C6D C6 1_555 1_555
O1E C1E 1_555 1_555
O2E C1E 1_555 1_555
C1E C3E 1_555 1_555
C3E C2D 1_555 1_555
C4E C5D 1_555 1_555
H2E C4E 1_555 1_555
In1_2 O1A 1_555 1_555
In1B O1D 1_555 1_555
In1B_2 O1E 1_555 1_555
O1A_2 In1 1_555 1_555
O1F In1 1_555 1_555
O1G In1 1_555 1_555
O2A_2 In1 1_555 1_555
O2F In1 1_555 1_555
O2G In1 1_555 1_555
C2 C3 1_555 1_555
O2A In1_2 1_555 1_555
C3A C4A 1_555 1_555
O2D In1B 1_555 1_555
C5D C6D 1_555 1_555
O2E In1B_2 1_555 1_555
C3E C4E 1_555 1_555

#END
