
#######################################################################
#
#                 Cambridge Crystallographic Data Centre
#                                CCDC 
#
#######################################################################
#
# If this CIF has been generated from an entry in the Cambridge 
# Structural Database, then it will include bibliographic, chemical, 
# crystal, experimental, refinement or atomic coordinate data resulting 
# from the CCDC's data processing and validation procedures.
#
#######################################################################

data_EQUNIP
_chemical_formula_moiety         '(C108 H48 In9 O56 1-)n'
_symmetry_cell_setting           rhombohedral
_symmetry_space_group_name_H-M   'R 3 2'
_symmetry_Int_Tables_number      155
_space_group_name_Hall           'R 3 2"'
loop_
_symmetry_equiv_pos_site_id
_symmetry_equiv_pos_as_xyz
1 x,y,z
2 -y,x-y,z
3 -x+y,-x,z
4 y,x,-z
5 -x,-x+y,-z
6 x-y,-y,-z
7 2/3+x,1/3+y,1/3+z
8 2/3-y,1/3+x-y,1/3+z
9 2/3-x+y,1/3-x,1/3+z
10 2/3+y,1/3+x,1/3-z
11 2/3-x,1/3-x+y,1/3-z
12 2/3+x-y,1/3-y,1/3-z
13 1/3+x,2/3+y,2/3+z
14 1/3-y,2/3+x-y,2/3+z
15 1/3-x+y,2/3-x,2/3+z
16 1/3+y,2/3+x,2/3-z
17 1/3-x,2/3-x+y,2/3-z
18 1/3+x-y,2/3-y,2/3-z
_cell_length_a                   22.1811(12)
_cell_length_b                   22.1811(12)
_cell_length_c                   41.961(5)
_cell_angle_alpha                90
_cell_angle_beta                 90
_cell_angle_gamma                120
_cell_volume                     17879
loop_
_atom_site_label
_atom_site_type_symbol
_atom_site_fract_x
_atom_site_fract_y
_atom_site_fract_z
In1 In 0.622777(13) 0.227979(14) -0.000386(7)
In2 In 0.3333 0.331813(13) 0.1667
O1 O 0.54259(15) 0.21172(15) 0.03441(8)
O2 O 0.33134(15) -0.21101(14) 0.03479(8)
O3 O 0.22841(16) -0.31082(19) 0.03771(10)
O4 O 0.53760(15) 0.30843(17) 0.03591(9)
O5 O 0.58041(15) 0.11957(19) 0.00033(10)
O6 O 0.6667 0.3333 0.00009(11)
O7 O 0.40406(12) 0.32523(12) 0.12930(6)
O8 O 0.30061(11) 0.23277(12) 0.13570(6)
O9 O 0.07523(18) -0.32621(17) 0.12863(10)
O10 O 0.08682(17) -0.23057(16) 0.14886(9)
C1 C 0.2731(2) -0.2464(2) 0.04497(11)
C2 C 0.1988(2) -0.1461(2) 0.10944(12)
H1 H 0.1845 -0.1237 0.1237
C3 C 0.2552(2) -0.1076(2) 0.08853(13)
C4 C 0.1647(2) -0.2195(2) 0.10811(11)
C5 C 0.1884(2) -0.2534(2) 0.08718(11)
H2 H 0.1658 -0.3017 0.0864
C6 C 0.2466(2) -0.2132(2) 0.06747(10)
C7 C 0.2798(2) -0.1413(2) 0.06879(13)
H3 H 0.3191 -0.1150 0.0563
C8 C 0.45845(17) 0.2108(2) 0.06620(9)
C9 C 0.5195(2) 0.24537(19) 0.04411(10)
C10 C 0.4201(3) 0.1401(2) 0.06689(13)
H4 H 0.4327 0.1148 0.0535
C11 C 0.2937(2) -0.0305(2) 0.08915(14)
C12 C 0.3224(3) 0.0297(2) 0.08855(13)
C13 C 0.3622(2) 0.1039(2) 0.08695(13)
C14 C 0.4372(2) 0.2506(2) 0.08364(13)
H5 H 0.4603 0.2987 0.0815
C15 C 0.3802(2) 0.2165(2) 0.10462(12)
C16 C 0.3405(2) 0.1436(2) 0.10513(10)
H6 H 0.3001 0.1214 0.1173
C17 C 0.36459(18) 0.2612(2) 0.12675(9)
C18 C 0.1064(2) -0.2594(2) 0.12999(15)
In1A In -0.227979(14) 0.394798(19) -0.000386(7)
In2A In -0.331813(13) 0.001487(13) 0.1667
O1A O -0.21172(15) 0.33087(21) 0.03441(8)
O2A O 0.21101(14) 0.54235(21) 0.03479(8)
O3A O 0.31082(19) 0.53923(25) 0.03771(10)
O4A O -0.30843(17) 0.22917(23) 0.03591(9)
O5A O -0.11957(19) 0.46084(24) 0.00033(10)
O6_2 O -0.3333 0.3333 0.00009(11)
O7A O -0.32523(12) 0.07883(17) 0.12930(6)
O8A O -0.23277(12) 0.06784(16) 0.13570(6)
O9A O 0.32621(17) 0.40144(25) 0.12863(10)
O10A O 0.23057(16) 0.31739(23) 0.14886(9)
C1A C 0.2464(2) 0.5195(3) 0.04497(11)
C2A C 0.1461(2) 0.3449(3) 0.10944(12)
H1A H 0.1237 0.3082 0.1237
C3A C 0.1076(2) 0.3628(3) 0.08853(13)
C4A C 0.2195(2) 0.3842(3) 0.10811(11)
C5A C 0.2534(2) 0.4418(3) 0.08718(11)
H2A H 0.3017 0.4675 0.0864
C6A C 0.2132(2) 0.4598(3) 0.06747(10)
C7A C 0.1413(2) 0.4211(3) 0.06879(13)
H3A H 0.1150 0.4341 0.0563
C8A C -0.2108(2) 0.24765(26) 0.06620(9)
C9A C -0.24537(19) 0.27413(28) 0.04411(10)
C10A C -0.1401(2) 0.2800(4) 0.06689(13)
H4A H -0.1148 0.3179 0.0535
C11A C 0.0305(2) 0.3242(3) 0.08915(14)
C12A C -0.0297(2) 0.2927(4) 0.08855(13)
C13A C -0.1039(2) 0.2583(3) 0.08695(13)
C14A C -0.2506(2) 0.1866(3) 0.08364(13)
H5A H -0.2987 0.1616 0.0815
C15A C -0.2165(2) 0.1637(3) 0.10462(12)
C16A C -0.1436(2) 0.1969(3) 0.10513(10)
H6A H -0.1214 0.1787 0.1173
C17A C -0.2612(2) 0.10339(27) 0.12675(9)
C18A C 0.2594(2) 0.3658(3) 0.12999(15)
In1B In -0.394798(19) -0.622777(13) -0.000386(7)
In2B In -0.001487(13) -0.3333 0.1667
O1B O -0.33087(21) -0.54259(15) 0.03441(8)
O2B O -0.54235(21) -0.33134(15) 0.03479(8)
O3B O -0.53923(25) -0.22841(16) 0.03771(10)
O4B O -0.22917(23) -0.53760(15) 0.03591(9)
O5B O -0.46084(24) -0.58041(15) 0.00033(10)
O7B O -0.07883(17) -0.40406(12) 0.12930(6)
O8B O -0.06784(16) -0.30061(11) 0.13570(6)
O9B O -0.40144(25) -0.07523(18) 0.12863(10)
O10B O -0.31739(23) -0.08682(17) 0.14886(9)
C1B C -0.5195(3) -0.2731(2) 0.04497(11)
C2B C -0.3449(3) -0.1988(2) 0.10944(12)
H1B H -0.3082 -0.1845 0.1237
C3B C -0.3628(3) -0.2552(2) 0.08853(13)
C4B C -0.3842(3) -0.1647(2) 0.10811(11)
C5B C -0.4418(3) -0.1884(2) 0.08718(11)
H2B H -0.4675 -0.1658 0.0864
C6B C -0.4598(3) -0.2466(2) 0.06747(10)
C7B C -0.4211(3) -0.2798(2) 0.06879(13)
H3B H -0.4341 -0.3191 0.0563
C8B C -0.24765(26) -0.45845(17) 0.06620(9)
C9B C -0.27413(28) -0.5195(2) 0.04411(10)
C10B C -0.2800(4) -0.4201(3) 0.06689(13)
H4B H -0.3179 -0.4327 0.0535
C11B C -0.3242(3) -0.2937(2) 0.08915(14)
C12B C -0.2927(4) -0.3224(3) 0.08855(13)
C13B C -0.2583(3) -0.3622(2) 0.08695(13)
C14B C -0.1866(3) -0.4372(2) 0.08364(13)
H5B H -0.1616 -0.4603 0.0815
C15B C -0.1637(3) -0.3802(2) 0.10462(12)
C16B C -0.1969(3) -0.3405(2) 0.10513(10)
H6B H -0.1787 -0.3001 0.1173
C17B C -0.10339(27) -0.36459(18) 0.12675(9)
C18B C -0.3658(3) -0.1064(2) 0.12999(15)
In1C In 0.227979(14) 0.622777(13) 0.000386(7)
O1C O 0.21172(15) 0.54259(15) -0.03441(8)
O2C O -0.21101(14) 0.33134(15) -0.03479(8)
O3C O -0.31082(19) 0.22841(16) -0.03771(10)
O4C O 0.30843(17) 0.53760(15) -0.03591(9)
O5C O 0.11957(19) 0.58041(15) -0.00033(10)
O7C O 0.32523(12) 0.40406(12) -0.12930(6)
O8C O 0.23277(12) 0.30061(11) -0.13570(6)
O9C O -0.32621(17) 0.07523(18) -0.12863(10)
O10C O -0.23057(16) 0.08682(17) -0.14886(9)
C1C C -0.2464(2) 0.2731(2) -0.04497(11)
C2C C -0.1461(2) 0.1988(2) -0.10944(12)
H1C H -0.1237 0.1845 -0.1237
C3C C -0.1076(2) 0.2552(2) -0.08853(13)
C4C C -0.2195(2) 0.1647(2) -0.10811(11)
C5C C -0.2534(2) 0.1884(2) -0.08718(11)
H2C H -0.3017 0.1658 -0.0864
C6C C -0.2132(2) 0.2466(2) -0.06747(10)
C7C C -0.1413(2) 0.2798(2) -0.06879(13)
H3C H -0.1150 0.3191 -0.0563
C8C C 0.2108(2) 0.45845(17) -0.06620(9)
C9C C 0.24537(19) 0.5195(2) -0.04411(10)
C10C C 0.1401(2) 0.4201(3) -0.06689(13)
H4C H 0.1148 0.4327 -0.0535
C11C C -0.0305(2) 0.2937(2) -0.08915(14)
C12C C 0.0297(2) 0.3224(3) -0.08855(13)
C13C C 0.1039(2) 0.3622(2) -0.08695(13)
C14C C 0.2506(2) 0.4372(2) -0.08364(13)
H5C H 0.2987 0.4603 -0.0815
C15C C 0.2165(2) 0.3802(2) -0.10462(12)
C16C C 0.1436(2) 0.3405(2) -0.10513(10)
H6C H 0.1214 0.3001 -0.1173
C17C C 0.2612(2) 0.36459(18) -0.12675(9)
C18C C -0.2594(2) 0.1064(2) -0.12999(15)
In1E In 0.394798(19) -0.227979(14) 0.000386(7)
O1E O 0.33087(21) -0.21172(15) -0.03441(8)
O2E O 0.54235(21) 0.21101(14) -0.03479(8)
O3E O 0.53923(25) 0.31082(19) -0.03771(10)
O4E O 0.22917(23) -0.30843(17) -0.03591(9)
O5E O 0.46084(24) -0.11957(19) -0.00033(10)
O7E O 0.07883(17) -0.32523(12) -0.12930(6)
O8E O 0.06784(16) -0.23277(12) -0.13570(6)
O9E O 0.40144(25) 0.32621(17) -0.12863(10)
O10E O 0.31739(23) 0.23057(16) -0.14886(9)
C1E C 0.5195(3) 0.2464(2) -0.04497(11)
C2E C 0.3449(3) 0.1461(2) -0.10944(12)
H1E H 0.3082 0.1237 -0.1237
C3E C 0.3628(3) 0.1076(2) -0.08853(13)
C4E C 0.3842(3) 0.2195(2) -0.10811(11)
C5E C 0.4418(3) 0.2534(2) -0.08718(11)
H2E H 0.4675 0.3017 -0.0864
C6E C 0.4598(3) 0.2132(2) -0.06747(10)
C7E C 0.4211(3) 0.1413(2) -0.06879(13)
H3E H 0.4341 0.1150 -0.0563
C8E C 0.24765(26) -0.2108(2) -0.06620(9)
C9E C 0.27413(28) -0.24537(19) -0.04411(10)
C10E C 0.2800(4) -0.1401(2) -0.06689(13)
H4E H 0.3179 -0.1148 -0.0535
C11E C 0.3242(3) 0.0305(2) -0.08915(14)
C12E C 0.2927(4) -0.0297(2) -0.08855(13)
C13E C 0.2583(3) -0.1039(2) -0.08695(13)
C14E C 0.1866(3) -0.2506(2) -0.08364(13)
H5E H 0.1616 -0.2987 -0.0815
C15E C 0.1637(3) -0.2165(2) -0.10462(12)
C16E C 0.1969(3) -0.1436(2) -0.10513(10)
H6E H 0.1787 -0.1214 -0.1173
C17E C 0.10339(27) -0.2612(2) -0.12675(9)
C18E C 0.3658(3) 0.2594(2) -0.12999(15)
In1D In -0.622777(13) -0.394798(19) 0.000386(7)
O1D O -0.54259(15) -0.33087(21) -0.03441(8)
O2D O -0.33134(15) -0.54235(21) -0.03479(8)
O3D O -0.22841(16) -0.53923(25) -0.03771(10)
O4D O -0.53760(15) -0.22917(23) -0.03591(9)
O5D O -0.58041(15) -0.46084(24) -0.00033(10)
O7D O -0.40406(12) -0.07883(17) -0.12930(6)
O8D O -0.30061(11) -0.06784(16) -0.13570(6)
O9D O -0.07523(18) -0.40144(25) -0.12863(10)
O10D O -0.08682(17) -0.31739(23) -0.14886(9)
C1D C -0.2731(2) -0.5195(3) -0.04497(11)
C2D C -0.1988(2) -0.3449(3) -0.10944(12)
H1D H -0.1845 -0.3082 -0.1237
C3D C -0.2552(2) -0.3628(3) -0.08853(13)
C4D C -0.1647(2) -0.3842(3) -0.10811(11)
C5D C -0.1884(2) -0.4418(3) -0.08718(11)
H2D H -0.1658 -0.4675 -0.0864
C6D C -0.2466(2) -0.4598(3) -0.06747(10)
C7D C -0.2798(2) -0.4211(3) -0.06879(13)
H3D H -0.3191 -0.4341 -0.0563
C8D C -0.45845(17) -0.24765(26) -0.06620(9)
C9D C -0.5195(2) -0.27413(28) -0.04411(10)
C10D C -0.4201(3) -0.2800(4) -0.06689(13)
H4D H -0.4327 -0.3179 -0.0535
C11D C -0.2937(2) -0.3242(3) -0.08915(14)
C12D C -0.3224(3) -0.2927(4) -0.08855(13)
C13D C -0.3622(2) -0.2583(3) -0.08695(13)
C14D C -0.4372(2) -0.1866(3) -0.08364(13)
H5D H -0.4603 -0.1616 -0.0815
C15D C -0.3802(2) -0.1637(3) -0.10462(12)
C16D C -0.3405(2) -0.1969(3) -0.10513(10)
H6D H -0.3001 -0.1787 -0.1173
C17D C -0.36459(18) -0.10339(27) -0.12675(9)
C18D C -0.1064(2) -0.3658(3) -0.12999(15)
In1_2 In -0.377223(13) 0.227979(14) -0.000386(7)
In1A_2 In -0.227979(14) -0.605202(19) -0.000386(7)
In1A_3 In 0.772021(14) 0.394798(19) -0.000386(7)
In1B_2 In -0.394798(19) 0.377223(13) -0.000386(7)
In1B_3 In 0.605202(19) 0.377223(13) -0.000386(7)
In1C_2 In 0.227979(14) -0.377223(13) 0.000386(7)
In1D_2 In 0.377223(13) 0.605202(19) 0.000386(7)
In1E_2 In -0.605202(19) -0.227979(14) 0.000386(7)
In2C In 0.331813(13) 0.3333 -0.1667
In2D In -0.3333 -0.001487(13) -0.1667
In2E In 0.001487(13) -0.331813(13) -0.1667
O3_2 O 0.22841(16) 0.68918(19) 0.03771(10)
O3A_2 O -0.68918(19) -0.46077(25) 0.03771(10)
O3B_2 O 0.46077(25) -0.22841(16) 0.03771(10)
O3C_2 O 0.68918(19) 0.22841(16) -0.03771(10)
O3D_2 O -0.22841(16) 0.46077(25) -0.03771(10)
O3E_2 O -0.46077(25) -0.68918(19) -0.03771(10)
O4_2 O -0.46240(15) -0.69157(17) 0.03591(9)
O4A_2 O 0.69157(17) 0.22917(23) 0.03591(9)
O4B_2 O -0.22917(23) 0.46240(15) 0.03591(9)
O4C_2 O -0.69157(17) -0.46240(15) -0.03591(9)
O4D_2 O 0.46240(15) -0.22917(23) -0.03591(9)
O4E_2 O 0.22917(23) 0.69157(17) -0.03591(9)
O6_3 O -0.3333 -0.6667 0.00009(11)
O6C O -0.6667 -0.3333 -0.00009(11)
O6C_2 O 0.3333 -0.3333 -0.00009(11)
O6C_3 O 0.3333 0.6667 -0.00009(11)
O7I O -0.00810(12) -0.26261(12) 0.20403(6)
O7J O 0.26261(12) 0.25450(17) 0.20403(6)
O7K O -0.25450(17) 0.00810(12) 0.20403(6)
O8I O -0.10056(12) -0.36606(11) 0.19763(6)
O8J O 0.36606(11) 0.26549(16) 0.19763(6)
O8K O -0.26549(16) 0.10056(12) 0.19763(6)
O9I O 0.34046(17) 0.40856(18) 0.20470(10)
O9J O -0.40856(18) -0.06811(25) 0.20470(10)
O9K O 0.06811(25) -0.34046(17) 0.20470(10)
O10I O 0.43610(16) 0.42015(17) 0.18447(9)
O10J O -0.42015(17) 0.01594(23) 0.18447(9)
O10K O -0.01594(23) -0.43610(16) 0.18447(9)
loop_
_geom_bond_atom_site_label_1
_geom_bond_atom_site_label_2
_geom_bond_site_symmetry_1
_geom_bond_site_symmetry_2
In1 O1 1_555 1_555
In2 O7 1_555 1_555
O1 C9 1_555 1_555
O2 C1 1_555 1_555
O3 C1 1_555 1_555
O4 C9 1_555 1_555
O5 In1 1_555 1_555
O6 In1 1_555 1_555
O7 C17 1_555 1_555
O8 In2 1_555 1_555
O9 C18 1_555 1_555
O10 C18 1_555 1_555
C1 C6 1_555 1_555
C2 H1 1_555 1_555
C3 C2 1_555 1_555
C4 C2 1_555 1_555
C5 C4 1_555 1_555
H2 C5 1_555 1_555
C6 C5 1_555 1_555
C7 C3 1_555 1_555
H3 C7 1_555 1_555
C8 C9 1_555 1_555
C10 C8 1_555 1_555
H4 C10 1_555 1_555
C11 C3 1_555 1_555
C12 C11 1_555 1_555
C13 C10 1_555 1_555
C14 C8 1_555 1_555
H5 C14 1_555 1_555
C15 C14 1_555 1_555
C16 C13 1_555 1_555
H6 C16 1_555 1_555
C17 O8 1_555 1_555
C18 C4 1_555 1_555
In1A O1A 1_555 1_555
In2A O7A 1_555 1_555
O1A C9A 1_555 1_555
O2A C1A 1_555 1_555
O3A C1A 1_555 1_555
O4A C9A 1_555 1_555
O5A In1A 1_555 1_555
O6_2 In1A 1_555 1_555
O7A C17A 1_555 1_555
O8A In2A 1_555 1_555
O9A In2 1_555 1_555
O10A In2 1_555 1_555
C1A C6A 1_555 1_555
C2A H1A 1_555 1_555
C3A C2A 1_555 1_555
C4A C2A 1_555 1_555
C5A C4A 1_555 1_555
H2A C5A 1_555 1_555
C6A C5A 1_555 1_555
C7A C3A 1_555 1_555
H3A C7A 1_555 1_555
C8A C9A 1_555 1_555
C10A C8A 1_555 1_555
H4A C10A 1_555 1_555
C11A C3A 1_555 1_555
C12A C11A 1_555 1_555
C13A C10A 1_555 1_555
C14A C8A 1_555 1_555
H5A C14A 1_555 1_555
C15A C14A 1_555 1_555
C16A C13A 1_555 1_555
H6A C16A 1_555 1_555
C17A O8A 1_555 1_555
C18A O9A 1_555 1_555
In1B O1B 1_555 1_555
In2B O9 1_555 1_555
O1B C9B 1_555 1_555
O2B C1B 1_555 1_555
O3B C1B 1_555 1_555
O4B C9B 1_555 1_555
O5B In1B 1_555 1_555
O7B In2B 1_555 1_555
O8B In2B 1_555 1_555
O9B In2A 1_555 1_555
O10B In2A 1_555 1_555
C1B C6B 1_555 1_555
C2B H1B 1_555 1_555
C3B C2B 1_555 1_555
C4B C2B 1_555 1_555
C5B C4B 1_555 1_555
H2B C5B 1_555 1_555
C6B C5B 1_555 1_555
C7B C3B 1_555 1_555
H3B C7B 1_555 1_555
C8B C9B 1_555 1_555
C10B C8B 1_555 1_555
H4B C10B 1_555 1_555
C11B C3B 1_555 1_555
C12B C11B 1_555 1_555
C13B C10B 1_555 1_555
C14B C8B 1_555 1_555
H5B C14B 1_555 1_555
C15B C14B 1_555 1_555
C16B C13B 1_555 1_555
H6B C16B 1_555 1_555
C17B O7B 1_555 1_555
C18B O9B 1_555 1_555
In1C O2A 1_555 1_555
O1C In1C 1_555 1_555
O2C In1A 1_555 1_555
O3C C1C 1_555 1_555
O4C C9C 1_555 1_555
O5C In1C 1_555 1_555
O7C C17C 1_555 1_555
O8C C17C 1_555 1_555
O9C C18C 1_555 1_555
O10C C18C 1_555 1_555
C1C O2C 1_555 1_555
C2C H1C 1_555 1_555
C3C C2C 1_555 1_555
C4C C2C 1_555 1_555
C5C C4C 1_555 1_555
H2C C5C 1_555 1_555
C6C C1C 1_555 1_555
C7C C3C 1_555 1_555
H3C C7C 1_555 1_555
C8C C9C 1_555 1_555
C9C O1C 1_555 1_555
C10C C8C 1_555 1_555
H4C C10C 1_555 1_555
C11C C3C 1_555 1_555
C12C C11C 1_555 1_555
C13C C10C 1_555 1_555
C14C C8C 1_555 1_555
H5C C14C 1_555 1_555
C15C C14C 1_555 1_555
C16C C13C 1_555 1_555
H6C C16C 1_555 1_555
C17C C15C 1_555 1_555
C18C C4C 1_555 1_555
In1E O2 1_555 1_555
O1E In1E 1_555 1_555
O2E In1 1_555 1_555
O3E C1E 1_555 1_555
O4E C9E 1_555 1_555
O5E In1E 1_555 1_555
O7E C17E 1_555 1_555
O8E C17E 1_555 1_555
O9E C18E 1_555 1_555
O10E C18E 1_555 1_555
C1E O2E 1_555 1_555
C2E H1E 1_555 1_555
C3E C2E 1_555 1_555
C4E C2E 1_555 1_555
C5E C4E 1_555 1_555
H2E C5E 1_555 1_555
C6E C1E 1_555 1_555
C7E C3E 1_555 1_555
H3E C7E 1_555 1_555
C8E C9E 1_555 1_555
C9E O1E 1_555 1_555
C10E C8E 1_555 1_555
H4E C10E 1_555 1_555
C11E C3E 1_555 1_555
C12E C11E 1_555 1_555
C13E C10E 1_555 1_555
C14E C8E 1_555 1_555
H5E C14E 1_555 1_555
C15E C14E 1_555 1_555
C16E C13E 1_555 1_555
H6E C16E 1_555 1_555
C17E C15E 1_555 1_555
C18E C4E 1_555 1_555
In1D O2B 1_555 1_555
O1D In1D 1_555 1_555
O2D In1B 1_555 1_555
O3D C1D 1_555 1_555
O4D C9D 1_555 1_555
O5D In1D 1_555 1_555
O7D C17D 1_555 1_555
O8D C17D 1_555 1_555
O9D C18D 1_555 1_555
O10D C18D 1_555 1_555
C1D O2D 1_555 1_555
C2D H1D 1_555 1_555
C3D C2D 1_555 1_555
C4D C2D 1_555 1_555
C5D C4D 1_555 1_555
H2D C5D 1_555 1_555
C6D C1D 1_555 1_555
C7D C3D 1_555 1_555
H3D C7D 1_555 1_555
C8D C9D 1_555 1_555
C9D O1D 1_555 1_555
C10D C8D 1_555 1_555
H4D C10D 1_555 1_555
C11D C3D 1_555 1_555
C12D C11D 1_555 1_555
C13D C10D 1_555 1_555
C14D C8D 1_555 1_555
H5D C14D 1_555 1_555
C15D C14D 1_555 1_555
C16D C13D 1_555 1_555
H6D C16D 1_555 1_555
C17D C15D 1_555 1_555
C18D C4D 1_555 1_555
In1_2 O4A 1_555 1_555
In1A_2 O4B 1_555 1_555
In1A_3 O6 1_555 1_555
In1B_2 O6_2 1_555 1_555
In1B_3 O4 1_555 1_555
In1C_2 O3 1_555 1_555
In1D_2 O3A 1_555 1_555
In1E_2 O3B 1_555 1_555
In2C O7C 1_555 1_555
In2D O9C 1_555 1_555
In2E O7E 1_555 1_555
O3_2 In1C 1_555 1_555
O3A_2 In1D 1_555 1_555
O3B_2 In1E 1_555 1_555
O3C_2 In1 1_555 1_555
O3D_2 In1A 1_555 1_555
O3E_2 In1B 1_555 1_555
O4_2 In1B 1_555 1_555
O4A_2 In1 1_555 1_555
O4B_2 In1A 1_555 1_555
O4C_2 In1D 1_555 1_555
O4D_2 In1E 1_555 1_555
O4E_2 In1C 1_555 1_555
O6_3 In1B 1_555 1_555
O6C In1D 1_555 1_555
O6C_2 In1E 1_555 1_555
O6C_3 In1C 1_555 1_555
O7I In2B 1_555 1_555
O7J In2 1_555 1_555
O7K In2A 1_555 1_555
O8I In2B 1_555 1_555
O8J In2 1_555 1_555
O8K In2A 1_555 1_555
O9I In2 1_555 1_555
O9J In2A 1_555 1_555
O9K In2B 1_555 1_555
O10I In2 1_555 1_555
O10J In2A 1_555 1_555
O10K In2B 1_555 1_555
O6 In1B_3 1_555 1_555
O10 In2B 1_555 1_555
C6 C7 1_555 1_555
C12 C13 1_555 1_555
C15 C16 1_555 1_555
C15 C17 1_555 1_555
O6_2 In1_2 1_555 1_555
O10A C18A 1_555 1_555
C4A C18A 1_555 1_555
C6A C7A 1_555 1_555
C12A C13A 1_555 1_555
C15A C16A 1_555 1_555
C15A C17A 1_555 1_555
O8B C17B 1_555 1_555
O10B C18B 1_555 1_555
C4B C18B 1_555 1_555
C6B C7B 1_555 1_555
C12B C13B 1_555 1_555
C15B C16B 1_555 1_555
C15B C17B 1_555 1_555
O3C In1_2 1_555 1_555
O4C In1D_2 1_555 1_555
O8C In2C 1_555 1_555
O10C In2D 1_555 1_555
C5C C6C 1_555 1_555
C6C C7C 1_555 1_555
C12C C13C 1_555 1_555
C15C C16C 1_555 1_555
O3E In1B_3 1_555 1_555
O4E In1C_2 1_555 1_555
O8E In2E 1_555 1_555
O9E In2C 1_555 1_555
O10E In2C 1_555 1_555
C5E C6E 1_555 1_555
C6E C7E 1_555 1_555
C12E C13E 1_555 1_555
C15E C16E 1_555 1_555
O3D In1A_2 1_555 1_555
O4D In1E_2 1_555 1_555
O7D In2D 1_555 1_555
O8D In2D 1_555 1_555
O9D In2E 1_555 1_555
O10D In2E 1_555 1_555
C5D C6D 1_555 1_555
C6D C7D 1_555 1_555
C12D C13D 1_555 1_555
C15D C16D 1_555 1_555
In1A_2 O6_3 1_555 1_555
In1C_2 O6C_2 1_555 1_555
In1D_2 O6C_3 1_555 1_555
In1E_2 O6C 1_555 1_555

#END
