
#######################################################################
#
#                 Cambridge Crystallographic Data Centre
#                                CCDC 
#
#######################################################################
#
# If this CIF has been generated from an entry in the Cambridge 
# Structural Database, then it will include bibliographic, chemical, 
# crystal, experimental, refinement or atomic coordinate data resulting 
# from the CCDC's data processing and validation procedures.
#
#######################################################################

data_EQUNAH
_chemical_formula_moiety         '(C36 H12 In2 O16 2-)n'
_symmetry_cell_setting           orthorhombic
_symmetry_space_group_name_H-M   'P b a m'
_symmetry_Int_Tables_number      55
_space_group_name_Hall           '-P 2 2ab'
loop_
_symmetry_equiv_pos_site_id
_symmetry_equiv_pos_as_xyz
1 x,y,z
2 -x,-y,z
3 1/2-x,1/2+y,-z
4 1/2+x,1/2-y,-z
5 -x,-y,-z
6 x,y,-z
7 1/2+x,1/2-y,z
8 1/2-x,1/2+y,z
_cell_length_a                   25.161(5)
_cell_length_b                   35.988(7)
_cell_length_c                   10.021(2)
_cell_angle_alpha                90
_cell_angle_beta                 90
_cell_angle_gamma                90
_cell_volume                     9073.96
loop_
_atom_site_label
_atom_site_type_symbol
_atom_site_fract_x
_atom_site_fract_y
_atom_site_fract_z
In1 In 0.70870(3) 0.050305(17) 1.0000
In2 In 0.62331(2) 0.311904(16) 1.0000
O1 O 0.6276(3) 0.07400(19) 1.0000
O2 O 0.6893(3) 0.1152(2) 1.0000
O3 O 0.2504(3) 0.00882(19) 1.0000
O4 O 0.3359(3) 0.00319(19) 1.0000
O5 O 0.7706(3) 0.06653(18) 0.8579(5)
O6 O 0.6998(3) 0.0475(2) 0.7586(6)
O7 O 0.5570(3) 0.2668(2) 1.0000
O8 O 0.6400(3) 0.25075(19) 1.0000
O9 O 0.2140(3) 0.18344(19) 1.0000
O10 O 0.1666(3) 0.1327(2) 1.0000
O11 O 1.1311(3) 0.19168(17) 0.7576(6)
O12 O 1.0686(2) 0.16172(18) 0.8571(5)
C1 C 0.6153(4) 0.1747(3) 1.0000
H1 H 0.6511 0.1813 1.0000
C2 C 0.6004(4) 0.1369(3) 1.0000
C3 C 0.5480(4) 0.1272(3) 1.0000
H2 H 0.5384 0.1022 1.0000
C4 C 0.5083(5) 0.1550(3) 1.0000
C5 C 0.5226(5) 0.1917(3) 1.0000
H3 H 0.4966 0.2100 1.0000
C6 C 0.5770(5) 0.2017(3) 1.0000
C7 C 0.6421(5) 0.1071(3) 1.0000
C8 C 0.5922(5) 0.2423(3) 1.0000
C9 C 0.4525(5) 0.1448(3) 1.0000
C10 C 0.4088(5) 0.1348(3) 1.0000
C11 C 0.2547(4) 0.0858(3) 1.0000
H4 H 0.2213 0.0748 1.0000
C12 C 0.2604(4) 0.1258(3) 1.0000
C13 C 0.3113(4) 0.1414(3) 1.0000
H5 H 0.3155 0.1670 1.0000
C14 C 0.3554(4) 0.1184(3) 1.0000
C15 C 0.3505(4) 0.0806(3) 1.0000
H6 H 0.3807 0.0657 1.0000
C16 C 0.2999(4) 0.0646(3) 1.0000
C17 C 0.2942(4) 0.0230(3) 1.0000
C18 C 0.2113(4) 0.1489(3) 1.0000
C19 C 0.7450(5) 0.0596(3) 0.5000
H7 H 0.7112 0.0492 0.5000
C20 C 0.7707(4) 0.0676(2) 0.6199(7)
C21 C 0.8201(4) 0.0831(3) 0.6199(7)
H8 H 0.8363 0.0886 0.7010
C22 C 0.8475(5) 0.0909(4) 0.5000
C23 C 0.7447(4) 0.0602(2) 0.7534(8)
C24 C 0.8980(6) 0.1062(4) 0.5000
C25 C 0.9415(6) 0.1197(5) 0.5000
C26 C 0.9932(5) 0.1382(4) 0.5000
C27 C 1.0181(4) 0.1470(3) 0.6191(7)
H9 H 1.0017 0.1412 0.6996
C28 C 1.0669(3) 0.1643(2) 0.6197(7)
C29 C 1.0905(5) 0.1735(3) 0.5000
H10 H 1.1228 0.1861 0.5000
C30 C 1.0909(4) 0.1737(2) 0.7511(8)
O5E O 0.7706(3) 0.06653(18) 0.1421(5)
O6E O 0.6998(3) 0.0475(2) 0.2414(6)
O11E O 1.1311(3) 0.19168(17) 0.2424(6)
O12E O 1.0686(2) 0.16172(18) 0.1429(5)
C20E C 0.7707(4) 0.0676(2) 0.3801(7)
C21E C 0.8201(4) 0.0831(3) 0.3801(7)
H8E H 0.8363 0.0886 0.2990
C23E C 0.7447(4) 0.0602(2) 0.2466(8)
C27E C 1.0181(4) 0.1470(3) 0.3809(7)
H9E H 1.0017 0.1412 0.3004
C28E C 1.0669(3) 0.1643(2) 0.3803(7)
C30E C 1.0909(4) 0.1737(2) 0.2489(8)
In1_2 In 0.70870(3) 0.050305(17) 0.0000
In1A In 0.29130(3) -0.050305(17) 1.0000
In2C In 0.12331(2) 0.188096(16) 1.0000
In2C_2 In 1.12331(2) 0.188096(16) 0.0000
In2C_3 In 1.12331(2) 0.188096(16) 1.0000
O3A O 0.7496(3) -0.00882(19) 1.0000
O4A O 0.6641(3) -0.00319(19) 1.0000
O5E_2 O 0.7706(3) 0.06653(18) 1.1421(5)
O6E_2 O 0.6998(3) 0.0475(2) 1.2414(6)
O9C O 0.7140(3) 0.31656(19) 1.0000
O10C O 0.6666(3) 0.3673(2) 1.0000
O11C O 0.6311(3) 0.30832(17) 1.2424(6)
O11F O 0.6311(3) 0.30832(17) 0.7576(6)
O12C O 0.5686(2) 0.33828(18) 1.1429(5)
O12F O 0.5686(2) 0.33828(18) 0.8571(5)
loop_
_geom_bond_atom_site_label_1
_geom_bond_atom_site_label_2
_geom_bond_site_symmetry_1
_geom_bond_site_symmetry_2
In1 O1 1_555 1_555
In2 O7 1_555 1_555
O1 C7 1_555 1_555
O2 In1 1_555 1_555
O3 C17 1_555 1_555
O4 C17 1_555 1_555
O5 In1 1_555 1_555
O6 In1 1_555 1_555
O7 C8 1_555 1_555
O8 In2 1_555 1_555
O9 C18 1_555 1_555
O10 C18 1_555 1_555
O11 C30 1_555 1_555
O12 C30 1_555 1_555
C1 H1 1_555 1_555
C2 C1 1_555 1_555
C3 C2 1_555 1_555
H2 C3 1_555 1_555
C4 C3 1_555 1_555
C5 C4 1_555 1_555
H3 C5 1_555 1_555
C6 C1 1_555 1_555
C7 O2 1_555 1_555
C8 O8 1_555 1_555
C9 C4 1_555 1_555
C10 C9 1_555 1_555
C11 H4 1_555 1_555
C12 C11 1_555 1_555
C13 C12 1_555 1_555
H5 C13 1_555 1_555
C14 C10 1_555 1_555
C15 C14 1_555 1_555
H6 C15 1_555 1_555
C16 C11 1_555 1_555
C17 C16 1_555 1_555
C18 C12 1_555 1_555
C19 H7 1_555 1_555
C20 C19 1_555 1_555
C21 C20 1_555 1_555
H8 C21 1_555 1_555
C22 C21 1_555 1_555
C23 O5 1_555 1_555
C24 C22 1_555 1_555
C25 C24 1_555 1_555
C26 C25 1_555 1_555
C27 C26 1_555 1_555
H9 C27 1_555 1_555
C28 C27 1_555 1_555
C29 C28 1_555 1_555
H10 C29 1_555 1_555
C30 C28 1_555 1_555
O5E C23E 1_555 1_555
O6E C23E 1_555 1_555
O11E C30E 1_555 1_555
O12E C30E 1_555 1_555
C20E C19 1_555 1_555
C21E C22 1_555 1_555
H8E C21E 1_555 1_555
C23E C20E 1_555 1_555
C27E C26 1_555 1_555
H9E C27E 1_555 1_555
C28E C29 1_555 1_555
C30E C28E 1_555 1_555
In1_2 O5E 1_555 1_555
In1A O3 1_555 1_555
In2C O9 1_555 1_555
In2C_2 O11E 1_555 1_555
In2C_3 O11 1_555 1_555
O3A In1 1_555 1_555
O4A In1 1_555 1_555
O5E_2 In1 1_555 1_555
O6E_2 In1 1_555 1_555
O9C In2 1_555 1_555
O10C In2 1_555 1_555
O11C In2 1_555 1_555
O11F In2 1_555 1_555
O12C In2 1_555 1_555
O12F In2 1_555 1_555
O4 In1A 1_555 1_555
O6 C23 1_555 1_555
O10 In2C 1_555 1_555
O12 In2C_3 1_555 1_555
C2 C7 1_555 1_555
C5 C6 1_555 1_555
C6 C8 1_555 1_555
C13 C14 1_555 1_555
C15 C16 1_555 1_555
C20 C23 1_555 1_555
O6E In1_2 1_555 1_555
O12E In2C_2 1_555 1_555
C20E C21E 1_555 1_555
C27E C28E 1_555 1_555

#END
