
#######################################################################
#
#                 Cambridge Crystallographic Data Centre
#                                CCDC 
#
#######################################################################
#
# If this CIF has been generated from an entry in the Cambridge 
# Structural Database, then it will include bibliographic, chemical, 
# crystal, experimental, refinement or atomic coordinate data resulting 
# from the CCDC's data processing and validation procedures.
#
#######################################################################

data_HIQKID
_chemical_formula_moiety         'C24 H10 O52 U20'
_symmetry_cell_setting           orthorhombic
_symmetry_space_group_name_H-M   'P n n m'
_symmetry_Int_Tables_number      58
_space_group_name_Hall           '-P 2 2n'
loop_
_symmetry_equiv_pos_site_id
_symmetry_equiv_pos_as_xyz
1 x,y,z
2 -x,-y,z
3 1/2+x,1/2-y,1/2-z
4 1/2-x,1/2+y,1/2-z
5 -x,-y,-z
6 x,y,-z
7 1/2-x,1/2+y,1/2+z
8 1/2+x,1/2-y,1/2+z
_cell_length_a                   10.6636(3)
_cell_length_b                   13.3253(3)
_cell_length_c                   20.0859(5)
_cell_angle_alpha                90
_cell_angle_beta                 90
_cell_angle_gamma                90
_cell_volume                     2854.12
loop_
_atom_site_label
_atom_site_type_symbol
_atom_site_fract_x
_atom_site_fract_y
_atom_site_fract_z
U1 U 0.5000 0.5000 0.137786(15)
U2 U 0.33732(3) 0.34711(2) 0.0000
U3 U 0.68772(3) 0.36737(2) 0.0000
O1 O 0.6327(7) 0.1925(5) 0.0000
O2 O 0.4250(8) 0.1784(5) 0.0000
O3 O 0.6576(6) 0.3917(5) 0.1840(3)
O4 O 0.7668(6) 0.3053(4) 0.1064(3)
O5 O 0.8629(7) 0.1266(5) 0.3158(3)
O6 O 0.7680(6) 0.2208(5) 0.3939(3)
C1 C 0.5486(11) 0.0310(7) 0.0000
H1 H 0.6292 0.0043 0.0000
C2 C 0.5328(12) 0.1430(7) 0.0000
C3 C 0.7974(8) 0.1992(6) 0.3351(4)
C4 C 0.7313(9) 0.3233(6) 0.1652(4)
C5 C 0.7850(9) 0.2585(7) 0.2197(4)
H2 H 0.8490 0.2137 0.2094
C6 C 0.7442(9) 0.2633(7) 0.2810(4)
H3 H 0.6802 0.3081 0.2913
O7 O 0.9119(8) 0.3846(8) 0.0000
O8 O 0.3540(12) 0.4910(8) 0.0562(5)
O9 O 0.5095(8) 0.3854(8) 0.0540(5)
O10 O 0.5000 0.5000 0.2668(5)
O11 O 1.1136(9) 0.3589(9) 0.0000
C7 C 1.0110(15) 0.356(2) 0.0235(11)
O1A O 0.3673(7) -0.1925(5) 0.0000
O2A O 0.5750(8) -0.1784(5) 0.0000
C1A C 0.4514(11) -0.0310(7) 0.0000
H1A H 0.3708 -0.0043 0.0000
C2A C 0.4672(12) -0.1430(7) 0.0000
C7E C 1.0110(15) 0.356(2) -0.0235(11)
U2A U 0.66268(3) -0.34711(2) 0.0000
U3A U 0.31228(3) -0.36737(2) 0.0000
O3A O 0.3424(6) -0.3917(5) 0.1840(3)
O4A O 0.2332(6) -0.3053(4) 0.1064(3)
O5A O 0.1371(7) -0.1266(5) 0.3158(3)
O6A O 0.2320(6) -0.2208(5) 0.3939(3)
C3A C 0.2026(8) -0.1992(6) 0.3351(4)
C4A C 0.2687(9) -0.3233(6) 0.1652(4)
C5A C 0.2150(9) -0.2585(7) 0.2197(4)
H2A H 0.1510 -0.2137 0.2094
C6A C 0.2558(9) -0.2633(7) 0.2810(4)
H3A H 0.3198 -0.3081 0.2913
O7A O 0.0881(8) -0.3846(8) 0.0000
O8A O 0.6460(12) -0.4910(8) 0.0562(5)
O9A O 0.4905(8) -0.3854(8) 0.0540(5)
O11A O -0.1136(9) -0.3589(9) 0.0000
C7A C -0.0110(15) -0.356(2) 0.0235(11)
C7D C -0.0110(15) -0.356(2) -0.0235(11)
O3D O 0.3424(6) -0.3917(5) -0.1840(3)
O4D O 0.2332(6) -0.3053(4) -0.1064(3)
O5D O 0.1371(7) -0.1266(5) -0.3158(3)
O6D O 0.2320(6) -0.2208(5) -0.3939(3)
C3D C 0.2026(8) -0.1992(6) -0.3351(4)
C4D C 0.2687(9) -0.3233(6) -0.1652(4)
C5D C 0.2150(9) -0.2585(7) -0.2197(4)
H2D H 0.1510 -0.2137 -0.2094
C6D C 0.2558(9) -0.2633(7) -0.2810(4)
H3D H 0.3198 -0.3081 -0.2913
O8D O 0.6460(12) -0.4910(8) -0.0562(5)
O9D O 0.4905(8) -0.3854(8) -0.0540(5)
U1D U 0.5000 0.5000 -0.137786(15)
O3E O 0.6576(6) 0.3917(5) -0.1840(3)
O4E O 0.7668(6) 0.3053(4) -0.1064(3)
O5E O 0.8629(7) 0.1266(5) -0.3158(3)
O6E O 0.7680(6) 0.2208(5) -0.3939(3)
C3E C 0.7974(8) 0.1992(6) -0.3351(4)
C4E C 0.7313(9) 0.3233(6) -0.1652(4)
C5E C 0.7850(9) 0.2585(7) -0.2197(4)
H2E H 0.8490 0.2137 -0.2094
C6E C 0.7442(9) 0.2633(7) -0.2810(4)
H3E H 0.6802 0.3081 -0.2913
O8E O 0.3540(12) 0.4910(8) -0.0562(5)
O9E O 0.5095(8) 0.3854(8) -0.0540(5)
O10D O 0.5000 0.5000 -0.2668(5)
U1_2 U 0.5000 -0.5000 0.137786(15)
U1B U 0.0000 -0.0000 0.362214(15)
U1B_2 U 1.0000 -0.0000 0.362214(15)
U1D_2 U 0.5000 -0.5000 -0.137786(15)
U1F U -0.0000 0.0000 -0.362214(15)
U1F_2 U 1.0000 0.0000 -0.362214(15)
U2_2 U 1.33732(3) 0.34711(2) 0.0000
U2A_2 U -0.33732(3) -0.34711(2) 0.0000
U2B U 0.83732(3) 0.15289(2) -0.5000
U2B_2 U 0.83732(3) 0.15289(2) 0.5000
U2C U 0.16268(3) -0.15289(2) -0.5000
U2C_2 U 0.16268(3) -0.15289(2) 0.5000
U3_2 U 0.68772(3) -0.63263(2) 0.0000
U3A_2 U 0.31228(3) 0.63263(2) 0.0000
O3A_2 O 0.3424(6) 0.6083(5) 0.1840(3)
O3D_2 O 0.3424(6) 0.6083(5) -0.1840(3)
O5B O 0.3629(7) 0.3734(5) 0.1842(3)
O5C O 0.6371(7) 0.6266(5) 0.1842(3)
O5F O 0.6371(7) 0.6266(5) -0.1842(3)
O5G O 0.3629(7) 0.3734(5) -0.1842(3)
O6B O 0.2680(6) 0.2792(5) 0.1061(3)
O6C O 0.7320(6) -0.2792(5) 0.1061(3)
O6F O 0.7320(6) -0.2792(5) -0.1061(3)
O6G O 0.2680(6) 0.2792(5) -0.1061(3)
O8_2 O 0.3540(12) -0.5090(8) 0.0562(5)
O8A_2 O 0.6460(12) 0.5090(8) 0.0562(5)
O8D_2 O 0.6460(12) 0.5090(8) -0.0562(5)
O8E_2 O 0.3540(12) -0.5090(8) -0.0562(5)
O9A_2 O 0.4905(8) 0.6146(8) 0.0540(5)
O9D_2 O 0.4905(8) 0.6146(8) -0.0540(5)
O11_2 O 0.1136(9) 0.3589(9) 0.0000
O11A_2 O 0.8864(9) -0.3589(9) 0.0000
loop_
_geom_bond_atom_site_label_1
_geom_bond_atom_site_label_2
_geom_bond_site_symmetry_1
_geom_bond_site_symmetry_2
U1 O3 1_555 1_555
U2 O2 1_555 1_555
U3 O1 1_555 1_555
O1 C2 1_555 1_555
O2 C2 1_555 1_555
O3 C4 1_555 1_555
O4 U3 1_555 1_555
O5 C3 1_555 1_555
O6 C3 1_555 1_555
C1 H1 1_555 1_555
C2 C1 1_555 1_555
C3 C6 1_555 1_555
C4 O4 1_555 1_555
C5 C4 1_555 1_555
H2 C5 1_555 1_555
C6 C5 1_555 1_555
H3 C6 1_555 1_555
O7 U3 1_555 1_555
O8 U1 1_555 1_555
O9 U1 1_555 1_555
O10 U1 1_555 1_555
O11 C7 1_555 1_555
C7 O7 1_555 1_555
O1A C2A 1_555 1_555
O2A C2A 1_555 1_555
C1A C1 1_555 1_555
H1A C1A 1_555 1_555
C2A C1A 1_555 1_555
C7E O7 1_555 1_555
U2A O2A 1_555 1_555
U3A O1A 1_555 1_555
O3A C4A 1_555 1_555
O4A U3A 1_555 1_555
O5A C3A 1_555 1_555
O6A C3A 1_555 1_555
C3A C6A 1_555 1_555
C4A O4A 1_555 1_555
C5A C4A 1_555 1_555
H2A C5A 1_555 1_555
C6A C5A 1_555 1_555
H3A C6A 1_555 1_555
O7A U3A 1_555 1_555
O8A U2A 1_555 1_555
O9A U2A 1_555 1_555
O11A C7A 1_555 1_555
C7A O7A 1_555 1_555
C7D O7A 1_555 1_555
O3D C4D 1_555 1_555
O4D U3A 1_555 1_555
O5D C3D 1_555 1_555
O6D C3D 1_555 1_555
C3D C6D 1_555 1_555
C4D O4D 1_555 1_555
C5D C4D 1_555 1_555
H2D C5D 1_555 1_555
C6D C5D 1_555 1_555
H3D C6D 1_555 1_555
O8D U2A 1_555 1_555
O9D U2A 1_555 1_555
U1D O3E 1_555 1_555
O3E C4E 1_555 1_555
O4E U3 1_555 1_555
O5E C3E 1_555 1_555
O6E C3E 1_555 1_555
C3E C6E 1_555 1_555
C4E O4E 1_555 1_555
C5E C4E 1_555 1_555
H2E C5E 1_555 1_555
C6E C5E 1_555 1_555
H3E C6E 1_555 1_555
O8E U2 1_555 1_555
O9E U2 1_555 1_555
O10D U1D 1_555 1_555
U1_2 O3A 1_555 1_555
U1B O5A 1_555 1_555
U1B_2 O5 1_555 1_555
U1D_2 O3D 1_555 1_555
U1F O5D 1_555 1_555
U1F_2 O5E 1_555 1_555
U2_2 O11 1_555 1_555
U2A_2 O11A 1_555 1_555
U2B O6E 1_555 1_555
U2B_2 O6 1_555 1_555
U2C O6D 1_555 1_555
U2C_2 O6A 1_555 1_555
U3_2 O8A 1_555 1_555
U3A_2 O8 1_555 1_555
O3A_2 U1 1_555 1_555
O3D_2 U1D 1_555 1_555
O5B U1 1_555 1_555
O5C U1 1_555 1_555
O5F U1D 1_555 1_555
O5G U1D 1_555 1_555
O6B U2 1_555 1_555
O6C U2A 1_555 1_555
O6F U2A 1_555 1_555
O6G U2 1_555 1_555
O8_2 U3A 1_555 1_555
O8A_2 U1 1_555 1_555
O8D_2 U3 1_555 1_555
O8E_2 U3A 1_555 1_555
O9A_2 U1 1_555 1_555
O9D_2 U1D 1_555 1_555
O11_2 U2 1_555 1_555
O11A_2 U2A 1_555 1_555
U2 O8 1_555 1_555
U2 O9 1_555 1_555
U3 O9 1_555 1_555
U3 O9E 1_555 1_555
U3 O8A_2 1_555 1_555
O11 C7E 1_555 1_555
C7 C7E 1_555 1_555
U3A O9A 1_555 1_555
U3A O9D 1_555 1_555
O8A U1_2 1_555 1_555
O9A U1_2 1_555 1_555
O11A C7D 1_555 1_555
C7A C7D 1_555 1_555
O8D U1D_2 1_555 1_555
O8D U3_2 1_555 1_555
O9D U1D_2 1_555 1_555
U1D O8E 1_555 1_555
U1D O9E 1_555 1_555
U1D O8D_2 1_555 1_555
O8E U3A_2 1_555 1_555
U1_2 O8_2 1_555 1_555
U1D_2 O8E_2 1_555 1_555
U3A_2 O9A_2 1_555 1_555
U3A_2 O9D_2 1_555 1_555

#END
