
#######################################################################
#
#                 Cambridge Crystallographic Data Centre
#                                CCDC 
#
#######################################################################
#
# If this CIF has been generated from an entry in the Cambridge 
# Structural Database, then it will include bibliographic, chemical, 
# crystal, experimental, refinement or atomic coordinate data resulting 
# from the CCDC's data processing and validation procedures.
#
#######################################################################

data_OJUNIS
_chemical_formula_moiety         'C92 H82 N10 O29 Zn7'
_symmetry_cell_setting           tetragonal
_symmetry_space_group_name_H-M   'I 4/m m m'
_symmetry_Int_Tables_number      139
_space_group_name_Hall           '-I 4 2'
loop_
_symmetry_equiv_pos_site_id
_symmetry_equiv_pos_as_xyz
1 x,y,z
2 -x,-y,z
3 -y,x,z
4 y,-x,z
5 -x,y,-z
6 x,-y,-z
7 y,x,-z
8 -y,-x,-z
9 1/2+x,1/2+y,1/2+z
10 1/2-x,1/2-y,1/2+z
11 1/2-y,1/2+x,1/2+z
12 1/2+y,1/2-x,1/2+z
13 1/2-x,1/2+y,1/2-z
14 1/2+x,1/2-y,1/2-z
15 1/2+y,1/2+x,1/2-z
16 1/2-y,1/2-x,1/2-z
17 -x,-y,-z
18 x,y,-z
19 y,-x,-z
20 -y,x,-z
21 x,-y,z
22 -x,y,z
23 -y,-x,z
24 y,x,z
25 1/2-x,1/2-y,1/2-z
26 1/2+x,1/2+y,1/2-z
27 1/2+y,1/2-x,1/2-z
28 1/2-y,1/2+x,1/2-z
29 1/2+x,1/2-y,1/2+z
30 1/2-x,1/2+y,1/2+z
31 1/2-y,1/2-x,1/2+z
32 1/2+y,1/2+x,1/2+z
_cell_length_a                   17.1243(4)
_cell_length_b                   17.1243(4)
_cell_length_c                   9.5607(3)
_cell_angle_alpha                90
_cell_angle_beta                 90
_cell_angle_gamma                90
_cell_volume                     2803.6
loop_
_atom_site_label
_atom_site_type_symbol
_atom_site_fract_x
_atom_site_fract_y
_atom_site_fract_z
O2 O 1.0000 0.699(2) 0.5000
Zn1 Zn 0.5000 0.5000 0.34758(8)
N1 N 0.5000 0.5000 0.1338(6)
O1 O 0.4852(3) 0.61578(19) 0.3856(3)
C1 C 0.4449(6) 0.4449(6) 0.0794(15)
C2 C 0.5000 0.6493(3) 0.5000
H1 H 0.3920 0.4581 0.1138
C3 C 0.5000 0.7371(2) 0.4816(11)
C4 C 0.504(3) 0.7737(4) 0.3523(9)
C5 C 0.495(3) 0.7814(4) 0.6027(9)
H2 H 0.5076 0.7434 0.2693
C6 C 0.504(3) 0.8548(4) 0.3443(5)
C7 C 0.505(4) 0.8625(4) 0.4053(5)
H3 H 0.4924 0.7564 0.6913
H4 H 0.5074 0.8798 0.2558
C8 C 0.500(2) 0.8992(2) 0.4655(5)
H5 H 0.5078 0.8928 0.3223
N2 N 0.5000 0.9810(3) 0.4456(8)
O1U O 0.5148(3) 0.61578(19) 0.3856(3)
O1A O 0.5148(3) 0.38422(19) 0.3856(3)
O1T O 0.4852(3) 0.38422(19) 0.3856(3)
O1B O 0.38422(19) 0.4852(3) 0.3856(3)
O1C O 0.61578(19) 0.5148(3) 0.3856(3)
O1V O 0.38422(19) 0.5148(3) 0.3856(3)
O1W O 0.61578(19) 0.4852(3) 0.3856(3)
C1A C 0.5551(6) 0.5551(6) 0.0794(15)
C1B C 0.5551(6) 0.4449(6) 0.0794(15)
C1C C 0.4449(6) 0.5551(6) 0.0794(15)
C2A C 0.5000 0.3507(3) 0.5000
C1F C 0.4449(6) 0.4449(6) -0.0794(15)
H1W H 0.4581 0.3920 0.1138
H1A H 0.6080 0.5419 0.1138
C1G C 0.5551(6) 0.5551(6) -0.0794(15)
H1V H 0.5419 0.6080 0.1138
H1B H 0.5419 0.3920 0.1138
C1D C 0.5551(6) 0.4449(6) -0.0794(15)
H1U H 0.6080 0.4581 0.1138
H1C H 0.4581 0.6080 0.1138
C1E C 0.4449(6) 0.5551(6) -0.0794(15)
H1T H 0.3920 0.5419 0.1138
C3D C 0.5000 0.7371(2) 0.5184(11)
O1D O 0.5148(3) 0.61578(19) 0.6144(3)
O1Q O 0.4852(3) 0.61578(19) 0.6144(3)
C3A C 0.5000 0.2629(2) 0.4816(11)
C3E C 0.5000 0.2629(2) 0.5184(11)
O1E O 0.4852(3) 0.38422(19) 0.6144(3)
O1P O 0.5148(3) 0.38422(19) 0.6144(3)
N1D N 0.5000 0.5000 -0.1338(6)
H1F H 0.4581 0.3920 -0.1138
H1Q H 0.3920 0.4581 -0.1138
H1G H 0.5419 0.6080 -0.1138
H1P H 0.6080 0.5419 -0.1138
H1D H 0.6080 0.4581 -0.1138
H1S H 0.5419 0.3920 -0.1138
H1E H 0.3920 0.5419 -0.1138
H1R H 0.4581 0.6080 -0.1138
C4D C 0.496(3) 0.7737(4) 0.6477(9)
C5D C 0.505(3) 0.7814(4) 0.3973(9)
C4Q C 0.504(3) 0.7737(4) 0.6477(9)
C5Q C 0.495(3) 0.7814(4) 0.3973(9)
C4U C 0.496(3) 0.7737(4) 0.3523(9)
C5U C 0.505(3) 0.7814(4) 0.6027(9)
Zn1D Zn 0.5000 0.5000 0.65242(8)
C4A C 0.496(3) 0.2263(4) 0.3523(9)
C5A C 0.505(3) 0.2186(4) 0.6027(9)
C4E C 0.504(3) 0.2263(4) 0.6477(9)
C5E C 0.495(3) 0.2186(4) 0.3973(9)
C4P C 0.496(3) 0.2263(4) 0.6477(9)
C5P C 0.505(3) 0.2186(4) 0.3973(9)
C4T C 0.504(3) 0.2263(4) 0.3523(9)
C5T C 0.495(3) 0.2186(4) 0.6027(9)
Zn1D_2 Zn 0.5000 0.5000 -0.34758(8)
C7U C 0.495(4) 0.8625(4) 0.4053(5)
H2U H 0.4924 0.7434 0.2693
C6U C 0.496(3) 0.8548(4) 0.3443(5)
C7D C 0.495(4) 0.8625(4) 0.5947(5)
C6D C 0.496(3) 0.8548(4) 0.6557(5)
C6Q C 0.504(3) 0.8548(4) 0.6557(5)
C7Q C 0.505(4) 0.8625(4) 0.5947(5)
H3U H 0.5076 0.7564 0.6913
H2D H 0.4924 0.7434 0.7307
H2Q H 0.5076 0.7434 0.7307
H3D H 0.5076 0.7564 0.3087
H3Q H 0.4924 0.7564 0.3087
H2A H 0.4924 0.2566 0.2693
C6A C 0.496(3) 0.1452(4) 0.3443(5)
C7A C 0.495(4) 0.1375(4) 0.4053(5)
C7T C 0.505(4) 0.1375(4) 0.4053(5)
H2T H 0.5076 0.2566 0.2693
C6T C 0.504(3) 0.1452(4) 0.3443(5)
C7E C 0.505(4) 0.1375(4) 0.5947(5)
H3A H 0.5076 0.2436 0.6913
C6E C 0.504(3) 0.1452(4) 0.6557(5)
C6P C 0.496(3) 0.1452(4) 0.6557(5)
C7P C 0.495(4) 0.1375(4) 0.5947(5)
H3T H 0.4924 0.2436 0.6913
H2E H 0.5076 0.2566 0.7307
H2P H 0.4924 0.2566 0.7307
H3E H 0.4924 0.2436 0.3087
H3P H 0.5076 0.2436 0.3087
O1D_2 O 0.5148(3) 0.61578(19) -0.3856(3)
O1E_2 O 0.4852(3) 0.38422(19) -0.3856(3)
O1F O 0.61578(19) 0.4852(3) -0.3856(3)
O1G O 0.38422(19) 0.5148(3) -0.3856(3)
O1P_2 O 0.5148(3) 0.38422(19) -0.3856(3)
O1Q_2 O 0.4852(3) 0.61578(19) -0.3856(3)
O1R O 0.61578(19) 0.5148(3) -0.3856(3)
O1S O 0.38422(19) 0.4852(3) -0.3856(3)
H5U H 0.4922 0.8928 0.3223
H4U H 0.4926 0.8798 0.2558
C8D C 0.500(2) 0.8992(2) 0.5345(5)
H5D H 0.4922 0.8928 0.6777
H5Q H 0.5078 0.8928 0.6777
H4D H 0.4926 0.8798 0.7442
H4Q H 0.5074 0.8798 0.7442
H4A H 0.4926 0.1202 0.2558
C8A C 0.500(2) 0.1008(2) 0.4655(5)
H5A H 0.4922 0.1072 0.3223
H5T H 0.5078 0.1072 0.3223
H4T H 0.5074 0.1202 0.2558
C8E C 0.500(2) 0.1008(2) 0.5345(5)
H5E H 0.5078 0.1072 0.6777
H5P H 0.4922 0.1072 0.6777
H4E H 0.5074 0.1202 0.7442
H4P H 0.4926 0.1202 0.7442
N2A N 0.5000 1.0190(3) 0.4456(8)
N2D N 0.5000 0.9810(3) 0.5544(8)
N2E N 0.5000 1.0190(3) 0.5544(8)
N2A_2 N 0.5000 0.0190(3) 0.4456(8)
N2_2 N 0.5000 -0.0190(3) 0.4456(8)
N2E_2 N 0.5000 0.0190(3) 0.5544(8)
N2D_2 N 0.5000 -0.0190(3) 0.5544(8)
C8A_2 C 0.500(2) 1.1008(2) 0.4655(5)
C8E_2 C 0.500(2) 1.1008(2) 0.5345(5)
C8_2 C 0.500(2) -0.1008(2) 0.4655(5)
C8D_2 C 0.500(2) -0.1008(2) 0.5345(5)
C6A_2 C 0.496(3) 1.1452(4) 0.3443(5)
C7E_2 C 0.505(4) 1.1375(4) 0.5947(5)
C7A_2 C 0.495(4) 1.1375(4) 0.4053(5)
C7T_2 C 0.505(4) 1.1375(4) 0.4053(5)
C6T_2 C 0.504(3) 1.1452(4) 0.3443(5)
C7P_2 C 0.495(4) 1.1375(4) 0.5947(5)
C6E_2 C 0.504(3) 1.1452(4) 0.6557(5)
C6P_2 C 0.496(3) 1.1452(4) 0.6557(5)
C6_2 C 0.504(3) -0.1452(4) 0.3443(5)
C7D_2 C 0.495(4) -0.1375(4) 0.5947(5)
C7_2 C 0.505(4) -0.1375(4) 0.4053(5)
C7U_2 C 0.495(4) -0.1375(4) 0.4053(5)
C6U_2 C 0.496(3) -0.1452(4) 0.3443(5)
C7Q_2 C 0.505(4) -0.1375(4) 0.5947(5)
C6D_2 C 0.496(3) -0.1452(4) 0.6557(5)
C6Q_2 C 0.504(3) -0.1452(4) 0.6557(5)
C4A_2 C 0.496(3) 1.2263(4) 0.3523(9)
H4A_2 H 0.4926 1.1202 0.2558
H5A_2 H 0.4922 1.1072 0.3223
C5E_2 C 0.495(3) 1.2186(4) 0.3973(9)
H5T_2 H 0.5078 1.1072 0.3223
C5P_2 C 0.505(3) 1.2186(4) 0.3973(9)
C4T_2 C 0.504(3) 1.2263(4) 0.3523(9)
H4T_2 H 0.5074 1.1202 0.2558
H5E_2 H 0.5078 1.1072 0.6777
C5A_2 C 0.505(3) 1.2186(4) 0.6027(9)
C4E_2 C 0.504(3) 1.2263(4) 0.6477(9)
C4P_2 C 0.496(3) 1.2263(4) 0.6477(9)
H5P_2 H 0.4922 1.1072 0.6777
C5T_2 C 0.495(3) 1.2186(4) 0.6027(9)
H4E_2 H 0.5074 1.1202 0.7442
H4P_2 H 0.4926 1.1202 0.7442
C4_2 C 0.504(3) -0.2263(4) 0.3523(9)
H4_2 H 0.5074 -0.1202 0.2558
H5_2 H 0.5078 -0.1072 0.3223
C5D_2 C 0.505(3) -0.2186(4) 0.3973(9)
H5U_2 H 0.4922 -0.1072 0.3223
C5Q_2 C 0.495(3) -0.2186(4) 0.3973(9)
C4U_2 C 0.496(3) -0.2263(4) 0.3523(9)
H4U_2 H 0.4926 -0.1202 0.2558
H5D_2 H 0.4922 -0.1072 0.6777
C5_2 C 0.495(3) -0.2186(4) 0.6027(9)
C4D_2 C 0.496(3) -0.2263(4) 0.6477(9)
C4Q_2 C 0.504(3) -0.2263(4) 0.6477(9)
H5Q_2 H 0.5078 -0.1072 0.6777
C5U_2 C 0.505(3) -0.2186(4) 0.6027(9)
H4D_2 H 0.4926 -0.1202 0.7442
H4Q_2 H 0.5074 -0.1202 0.7442
C3A_2 C 0.5000 1.2629(2) 0.4816(11)
H2A_2 H 0.4924 1.2566 0.2693
C3E_2 C 0.5000 1.2629(2) 0.5184(11)
H2T_2 H 0.5076 1.2566 0.2693
H3E_2 H 0.4924 1.2436 0.3087
H3P_2 H 0.5076 1.2436 0.3087
H3A_2 H 0.5076 1.2436 0.6913
H3T_2 H 0.4924 1.2436 0.6913
H2E_2 H 0.5076 1.2566 0.7307
H2P_2 H 0.4924 1.2566 0.7307
C3_2 C 0.5000 -0.2629(2) 0.4816(11)
H2_2 H 0.5076 -0.2566 0.2693
C3D_2 C 0.5000 -0.2629(2) 0.5184(11)
H2U_2 H 0.4924 -0.2566 0.2693
H3D_2 H 0.5076 -0.2436 0.3087
H3Q_2 H 0.4924 -0.2436 0.3087
H3_2 H 0.4924 -0.2436 0.6913
H3U_2 H 0.5076 -0.2436 0.6913
H2D_2 H 0.4924 -0.2566 0.7307
H2Q_2 H 0.5076 -0.2566 0.7307
C2A_2 C 0.5000 1.3507(3) 0.5000
C2_2 C 0.5000 -0.3507(3) 0.5000
O1A_2 O 0.5148(3) 1.38422(19) 0.3856(3)
O1E_3 O 0.4852(3) 1.38422(19) 0.6144(3)
O1P_3 O 0.5148(3) 1.38422(19) 0.6144(3)
O1T_2 O 0.4852(3) 1.38422(19) 0.3856(3)
O1_2 O 0.4852(3) -0.38422(19) 0.3856(3)
O1D_3 O 0.5148(3) -0.38422(19) 0.6144(3)
O1Q_3 O 0.4852(3) -0.38422(19) 0.6144(3)
O1U_2 O 0.5148(3) -0.38422(19) 0.3856(3)
Zn1_2 Zn 0.5000 1.5000 0.34758(8)
Zn1D_3 Zn 0.5000 1.5000 0.65242(8)
Zn1_3 Zn 0.5000 -0.5000 0.34758(8)
Zn1D_4 Zn 0.5000 -0.5000 0.65242(8)
loop_
_geom_bond_atom_site_label_1
_geom_bond_atom_site_label_2
_geom_bond_site_symmetry_1
_geom_bond_site_symmetry_2
Zn1 N1 1_555 1_555
N1 C1 1_555 1_555
O1 Zn1 1_555 1_555
C1 H1 1_555 1_555
C2 O1 1_555 1_555
C3 C2 1_555 1_555
C4 C3 1_555 1_555
C5 C3 1_555 1_555
H2 C4 1_555 1_555
C6 C4 1_555 1_555
C7 H5 1_555 1_555
H3 C5 1_555 1_555
H4 C6 1_555 1_555
C8 C6 1_555 1_555
H5 C7U 1_555 1_555
N2 C8 1_555 1_555
O1U Zn1 1_555 1_555
O1A Zn1 1_555 1_555
O1T Zn1 1_555 1_555
O1B Zn1 1_555 1_555
O1C Zn1 1_555 1_555
O1V Zn1 1_555 1_555
O1W Zn1 1_555 1_555
C1A N1 1_555 1_555
C1B N1 1_555 1_555
C1C N1 1_555 1_555
C2A O1A 1_555 1_555
C1F C1 1_555 1_555
H1W C1 1_555 1_555
H1A C1A 1_555 1_555
C1G C1A 1_555 1_555
H1V C1A 1_555 1_555
H1B C1B 1_555 1_555
C1D C1B 1_555 1_555
H1U C1B 1_555 1_555
H1C C1C 1_555 1_555
C1E C1C 1_555 1_555
H1T C1C 1_555 1_555
C3D C2 1_555 1_555
O1D C2 1_555 1_555
O1Q C2 1_555 1_555
C3A C2A 1_555 1_555
C3E C2A 1_555 1_555
O1E C2A 1_555 1_555
O1P C2A 1_555 1_555
N1D C1F 1_555 1_555
H1F C1F 1_555 1_555
H1Q C1F 1_555 1_555
H1G C1G 1_555 1_555
H1P C1G 1_555 1_555
H1D C1D 1_555 1_555
H1S C1D 1_555 1_555
H1E C1E 1_555 1_555
H1R C1E 1_555 1_555
C4D C3D 1_555 1_555
C5D C7 1_555 1_555
C4Q C3D 1_555 1_555
C5Q C3D 1_555 1_555
C4U C3 1_555 1_555
C5U C3 1_555 1_555
Zn1D O1D 1_555 1_555
C4A C3A 1_555 1_555
C5A C3A 1_555 1_555
C4E C3E 1_555 1_555
C5E C3E 1_555 1_555
C4P C3E 1_555 1_555
C5P C3E 1_555 1_555
C4T C3A 1_555 1_555
C5T C3A 1_555 1_555
Zn1D_2 N1D 1_555 1_555
C7U C5Q 1_555 1_555
H2U C4 1_555 1_555
C6U C8 1_555 1_555
C7D C5 1_555 1_555
C6D C4D 1_555 1_555
C6Q C4Q 1_555 1_555
C7Q C8 1_555 1_555
H3U C5 1_555 1_555
H2D C4D 1_555 1_555
H2Q C4D 1_555 1_555
H3D C5D 1_555 1_555
H3Q C5D 1_555 1_555
H2A C4A 1_555 1_555
C6A C4A 1_555 1_555
C7A C5E 1_555 1_555
C7T C5P 1_555 1_555
H2T C4A 1_555 1_555
C6T C4T 1_555 1_555
C7E C5A 1_555 1_555
H3A C5A 1_555 1_555
C6E C4E 1_555 1_555
C6P C4P 1_555 1_555
C7P C5T 1_555 1_555
H3T C5A 1_555 1_555
H2E C4E 1_555 1_555
H2P C4E 1_555 1_555
H3E C5E 1_555 1_555
H3P C5E 1_555 1_555
O1D_2 Zn1D_2 1_555 1_555
O1E_2 Zn1D_2 1_555 1_555
O1F Zn1D_2 1_555 1_555
O1G Zn1D_2 1_555 1_555
O1P_2 Zn1D_2 1_555 1_555
O1Q_2 Zn1D_2 1_555 1_555
O1R Zn1D_2 1_555 1_555
O1S Zn1D_2 1_555 1_555
H5U C7 1_555 1_555
H4U C6U 1_555 1_555
C8D C7 1_555 1_555
H5D C7D 1_555 1_555
H5Q C7D 1_555 1_555
H4D C6D 1_555 1_555
H4Q C6Q 1_555 1_555
H4A C6A 1_555 1_555
C8A C6A 1_555 1_555
H5A C7A 1_555 1_555
H5T C7A 1_555 1_555
H4T C6T 1_555 1_555
C8E C7A 1_555 1_555
H5E C7E 1_555 1_555
H5P C7E 1_555 1_555
H4E C6E 1_555 1_555
H4P C6P 1_555 1_555
N2A N2D 1_555 1_555
N2D C8D 1_555 1_555
N2E N2 1_555 1_555
N2A_2 C8A 1_555 1_555
N2_2 N2E_2 1_555 1_555
N2E_2 C8E 1_555 1_555
N2D_2 N2A_2 1_555 1_555
C8A_2 N2A 1_555 1_555
C8E_2 N2E 1_555 1_555
C8_2 N2_2 1_555 1_555
C8D_2 N2D_2 1_555 1_555
C6A_2 C8A_2 1_555 1_555
C7E_2 C8A_2 1_555 1_555
C7A_2 C8E_2 1_555 1_555
C7T_2 C8E_2 1_555 1_555
C6T_2 C8A_2 1_555 1_555
C7P_2 C8A_2 1_555 1_555
C6E_2 C8E_2 1_555 1_555
C6P_2 C8E_2 1_555 1_555
C6_2 C8_2 1_555 1_555
C7D_2 C8_2 1_555 1_555
C7_2 C8D_2 1_555 1_555
C7U_2 C8D_2 1_555 1_555
C6U_2 C8_2 1_555 1_555
C7Q_2 C8_2 1_555 1_555
C6D_2 C8D_2 1_555 1_555
C6Q_2 C8D_2 1_555 1_555
C4A_2 C6A_2 1_555 1_555
H4A_2 C6A_2 1_555 1_555
H5A_2 C7A_2 1_555 1_555
C5E_2 C7A_2 1_555 1_555
H5T_2 C7A_2 1_555 1_555
C5P_2 C7T_2 1_555 1_555
C4T_2 C6T_2 1_555 1_555
H4T_2 C6T_2 1_555 1_555
H5E_2 C7E_2 1_555 1_555
C5A_2 C7E_2 1_555 1_555
C4E_2 C6E_2 1_555 1_555
C4P_2 C6P_2 1_555 1_555
H5P_2 C7E_2 1_555 1_555
C5T_2 C7P_2 1_555 1_555
H4E_2 C6E_2 1_555 1_555
H4P_2 C6P_2 1_555 1_555
C4_2 C6_2 1_555 1_555
H4_2 C6_2 1_555 1_555
H5_2 C7_2 1_555 1_555
C5D_2 C7_2 1_555 1_555
H5U_2 C7_2 1_555 1_555
C5Q_2 C7U_2 1_555 1_555
C4U_2 C6U_2 1_555 1_555
H4U_2 C6U_2 1_555 1_555
H5D_2 C7D_2 1_555 1_555
C5_2 C7D_2 1_555 1_555
C4D_2 C6D_2 1_555 1_555
C4Q_2 C6Q_2 1_555 1_555
H5Q_2 C7D_2 1_555 1_555
C5U_2 C7Q_2 1_555 1_555
H4D_2 C6D_2 1_555 1_555
H4Q_2 C6Q_2 1_555 1_555
C3A_2 C4A_2 1_555 1_555
H2A_2 C4A_2 1_555 1_555
C3E_2 C5E_2 1_555 1_555
H2T_2 C4A_2 1_555 1_555
H3E_2 C5E_2 1_555 1_555
H3P_2 C5E_2 1_555 1_555
H3A_2 C5A_2 1_555 1_555
H3T_2 C5A_2 1_555 1_555
H2E_2 C4E_2 1_555 1_555
H2P_2 C4E_2 1_555 1_555
C3_2 C4_2 1_555 1_555
H2_2 C4_2 1_555 1_555
C3D_2 C5D_2 1_555 1_555
H2U_2 C4_2 1_555 1_555
H3D_2 C5D_2 1_555 1_555
H3Q_2 C5D_2 1_555 1_555
H3_2 C5_2 1_555 1_555
H3U_2 C5_2 1_555 1_555
H2D_2 C4D_2 1_555 1_555
H2Q_2 C4D_2 1_555 1_555
C2A_2 C3A_2 1_555 1_555
C2_2 C3_2 1_555 1_555
O1A_2 C2A_2 1_555 1_555
O1E_3 C2A_2 1_555 1_555
O1P_3 C2A_2 1_555 1_555
O1T_2 C2A_2 1_555 1_555
O1_2 C2_2 1_555 1_555
O1D_3 C2_2 1_555 1_555
O1Q_3 C2_2 1_555 1_555
O1U_2 C2_2 1_555 1_555
Zn1_2 O1A_2 1_555 1_555
Zn1D_3 O1E_3 1_555 1_555
Zn1_3 O1_2 1_555 1_555
Zn1D_4 O1D_3 1_555 1_555
C2 O1U 1_555 1_555
H2 C4U 1_555 1_555
H3 C5U 1_555 1_555
C8 C7D 1_555 1_555
O1T C2A 1_555 1_555
C1G N1D 1_555 1_555
C1D N1D 1_555 1_555
C1E N1D 1_555 1_555
C3D C5D 1_555 1_555
O1Q Zn1D 1_555 1_555
O1E Zn1D 1_555 1_555
O1P Zn1D 1_555 1_555
C4Q H2D 1_555 1_555
C4Q H2Q 1_555 1_555
C5Q H3D 1_555 1_555
C5Q H3Q 1_555 1_555
C4U H2U 1_555 1_555
C4U C6U 1_555 1_555
C5U C7Q 1_555 1_555
C5U H3U 1_555 1_555
C4P H2E 1_555 1_555
C4P H2P 1_555 1_555
C5P H3E 1_555 1_555
C5P H3P 1_555 1_555
C4T H2A 1_555 1_555
C4T H2T 1_555 1_555
C5T H3A 1_555 1_555
C5T H3T 1_555 1_555
C7U H5U 1_555 1_555
C7U C8D 1_555 1_555
C6D C8D 1_555 1_555
C6Q C8D 1_555 1_555
C7Q H5D 1_555 1_555
C7Q H5Q 1_555 1_555
C7T H5A 1_555 1_555
C7T H5T 1_555 1_555
C7T C8E 1_555 1_555
C6T C8A 1_555 1_555
C7E C8A 1_555 1_555
C6E C8E 1_555 1_555
C6P C8E 1_555 1_555
C7P C8A 1_555 1_555
C7P H5E 1_555 1_555
C7P H5P 1_555 1_555
C7T_2 H5A_2 1_555 1_555
C7T_2 H5T_2 1_555 1_555
C7P_2 H5E_2 1_555 1_555
C7P_2 H5P_2 1_555 1_555
C7U_2 H5_2 1_555 1_555
C7U_2 H5U_2 1_555 1_555
C7Q_2 H5D_2 1_555 1_555
C7Q_2 H5Q_2 1_555 1_555
C5P_2 C3E_2 1_555 1_555
C5P_2 H3E_2 1_555 1_555
C5P_2 H3P_2 1_555 1_555
C4T_2 C3A_2 1_555 1_555
C4T_2 H2A_2 1_555 1_555
C4T_2 H2T_2 1_555 1_555
C5A_2 C3A_2 1_555 1_555
C4E_2 C3E_2 1_555 1_555
C4P_2 C3E_2 1_555 1_555
C4P_2 H2E_2 1_555 1_555
C4P_2 H2P_2 1_555 1_555
C5T_2 C3A_2 1_555 1_555
C5T_2 H3A_2 1_555 1_555
C5T_2 H3T_2 1_555 1_555
C5Q_2 C3D_2 1_555 1_555
C5Q_2 H3D_2 1_555 1_555
C5Q_2 H3Q_2 1_555 1_555
C4U_2 C3_2 1_555 1_555
C4U_2 H2_2 1_555 1_555
C4U_2 H2U_2 1_555 1_555
C5_2 C3_2 1_555 1_555
C4D_2 C3D_2 1_555 1_555
C4Q_2 C3D_2 1_555 1_555
C4Q_2 H2D_2 1_555 1_555
C4Q_2 H2Q_2 1_555 1_555
C5U_2 C3_2 1_555 1_555
C5U_2 H3_2 1_555 1_555
C5U_2 H3U_2 1_555 1_555
C3E_2 C2A_2 1_555 1_555
C3D_2 C2_2 1_555 1_555
O1P_3 Zn1D_3 1_555 1_555
O1T_2 Zn1_2 1_555 1_555
O1Q_3 Zn1D_4 1_555 1_555
O1U_2 Zn1_3 1_555 1_555

#END
