
#######################################################################
#
#                 Cambridge Crystallographic Data Centre
#                                CCDC 
#
#######################################################################
#
# If this CIF has been generated from an entry in the Cambridge 
# Structural Database, then it will include bibliographic, chemical, 
# crystal, experimental, refinement or atomic coordinate data resulting 
# from the CCDC's data processing and validation procedures.
#
#######################################################################

data_PEWFII01
_chemical_formula_moiety         '(C10 H10 Cu1 O14 U1)n'
_symmetry_cell_setting           triclinic
_symmetry_space_group_name_H-M   'P -1'
_symmetry_Int_Tables_number      2
_space_group_name_Hall           '-P 1'
loop_
_symmetry_equiv_pos_site_id
_symmetry_equiv_pos_as_xyz
1 x,y,z
2 -x,-y,-z
_cell_length_a                   7.1162(7)
_cell_length_b                   7.2353(7)
_cell_length_c                   9.2139(9)
_cell_angle_alpha                95.3610(10)
_cell_angle_beta                 91.2190(10)
_cell_angle_gamma                114.9290(10)
_cell_volume                     427.355
loop_
_atom_site_label
_atom_site_type_symbol
_atom_site_fract_x
_atom_site_fract_y
_atom_site_fract_z
U1 U 0.5000 0.0000 0.5000
Cu1 Cu -0.0000 0.5000 0.5000
O1 O 0.3586(5) -0.2705(5) 0.4637(4)
O2 O -0.2223(5) 0.0153(5) 0.3541(4)
O3 O 0.2396(6) 0.0995(6) 0.3780(4)
O4 O 0.4157(6) -0.0168(6) 0.2343(4)
O5 O 0.0981(7) 0.3371(6) 0.6087(5)
H1 H 0.1161 0.3847 0.7041
H2 H 0.0035 0.2053 0.5964
O6 O -0.0105(6) 0.3367(5) 0.3137(4)
C1 C 0.2711(8) 0.0401(7) 0.2508(6)
C2 C 0.1323(8) 0.0241(8) 0.1222(6)
C3 C 0.1724(8) -0.0415(8) -0.0155(6)
H3 H 0.2885 -0.0684 -0.0261
C4 C -0.0416(8) 0.0676(7) 0.1375(5)
C5 C -0.0937(7) 0.1449(7) 0.2825(5)
O3A O -0.2396(6) -0.0995(6) -0.3780(4)
O4A O -0.4157(6) 0.0168(6) -0.2343(4)
O6A O 0.0105(6) -0.3367(5) -0.3137(4)
C1A C -0.2711(8) -0.0401(7) -0.2508(6)
C2A C -0.1323(8) -0.0241(8) -0.1222(6)
C3A C -0.1724(8) 0.0415(8) 0.0155(6)
H3A H -0.2885 0.0684 0.0261
C4A C 0.0416(8) -0.0676(7) -0.1375(5)
C5A C 0.0937(7) -0.1449(7) -0.2825(5)
O2A O 0.2223(5) -0.0153(5) -0.3541(4)
O5A O -0.0981(7) 0.6629(6) 0.3913(5)
H1A H -0.1161 0.6153 0.2959
H2A H -0.0035 0.7947 0.4036
O1A O 0.6414(5) 0.2705(5) 0.5363(4)
U1_2 U -0.5000 0.0000 -0.5000
U1_3 U -0.5000 0.0000 0.5000
U1_4 U 0.5000 0.0000 -0.5000
Cu1_2 Cu 0.0000 -0.5000 -0.5000
Cu1_3 Cu 0.0000 -0.5000 0.5000
Cu1_4 Cu 1.0000 0.5000 0.5000
O1_2 O 0.3586(5) 0.7295(5) 0.4637(4)
O1A_2 O -0.3586(5) 0.2705(5) 0.5363(4)
O2_2 O 0.7777(5) 0.0153(5) 0.3541(4)
O2A_2 O 0.2223(5) -0.0153(5) 0.6459(4)
O3A_2 O 0.7604(6) -0.0995(6) 0.6220(4)
O4A_2 O 0.5843(6) 0.0168(6) 0.7657(4)
O6A_2 O 0.0105(6) 0.6633(5) 0.6863(4)
O7 O 0.7056(8) 0.4301(7) 0.8766(5)
H4 H 0.7695 0.3915 0.9373
H5 H 0.7873 0.5466 0.8530
O8 O 0.3636(9) 0.5215(9) 0.8280(6)
H6 H 0.4207 0.5354 0.9128
H7 H 0.4140 0.6359 0.7929
loop_
_geom_bond_atom_site_label_1
_geom_bond_atom_site_label_2
_geom_bond_site_symmetry_1
_geom_bond_site_symmetry_2
U1 O1 1_555 1_555
Cu1 O5 1_555 1_555
O1 Cu1_3 1_555 1_555
O2 C5 1_555 1_555
O3 U1 1_555 1_555
O4 U1 1_555 1_555
O5 H1 1_555 1_555
H2 O5 1_555 1_555
O6 Cu1 1_555 1_555
C1 O3 1_555 1_555
C2 C1 1_555 1_555
C3 C2 1_555 1_555
H3 C3 1_555 1_555
C4 C2 1_555 1_555
C5 O6 1_555 1_555
O7 H4 1_555 1_555
H5 O7 1_555 1_555
O8 H6 1_555 1_555
H7 O8 1_555 1_555
O3A C1A 1_555 1_555
O4A C1A 1_555 1_555
O6A C5A 1_555 1_555
C1A C2A 1_555 1_555
C2A C3A 1_555 1_555
C3A C4 1_555 1_555
H3A C3A 1_555 1_555
C4A C3 1_555 1_555
C5A C4A 1_555 1_555
O2A C5A 1_555 1_555
O5A Cu1 1_555 1_555
H1A O5A 1_555 1_555
H2A O5A 1_555 1_555
O1A U1 1_555 1_555
U1_2 O3A 1_555 1_555
U1_3 O2 1_555 1_555
U1_4 O2A 1_555 1_555
Cu1_2 O6A 1_555 1_555
Cu1_4 O1A 1_555 1_555
O1_2 Cu1 1_555 1_555
O1A_2 Cu1 1_555 1_555
O2_2 U1 1_555 1_555
O2A_2 U1 1_555 1_555
O3A_2 U1 1_555 1_555
O4A_2 U1 1_555 1_555
O6A_2 Cu1 1_555 1_555
O4 C1 1_555 1_555
C4 C5 1_555 1_555
O4A U1_2 1_555 1_555
C2A C4A 1_555 1_555
U1_3 O1A_2 1_555 1_555

#END
