
#######################################################################
#
#                 Cambridge Crystallographic Data Centre
#                                CCDC 
#
#######################################################################
#
# If this CIF has been generated from an entry in the Cambridge 
# Structural Database, then it will include bibliographic, chemical, 
# crystal, experimental, refinement or atomic coordinate data resulting 
# from the CCDC's data processing and validation procedures.
#
#######################################################################

data_JOYKUF
_chemical_formula_moiety         '(C24 H30 Mn2 N4 O10)n'
_symmetry_cell_setting           trigonal
_symmetry_space_group_name_H-M   'P 32 2 1'
_symmetry_Int_Tables_number      154
_space_group_name_Hall           'P 32 2"'
loop_
_symmetry_equiv_pos_site_id
_symmetry_equiv_pos_as_xyz
1 x,y,z
2 -x,-x+y,2/3-z
3 -x+y,-x,1/3+z
4 -y,x-y,2/3+z
5 y,x,-z
6 x-y,-y,1/3-z
_cell_length_a                   21.68188(39)
_cell_length_b                   21.68188(39)
_cell_length_c                   7.07940(12)
_cell_angle_alpha                90
_cell_angle_beta                 90
_cell_angle_gamma                120
_cell_volume                     2882.18
loop_
_atom_site_label
_atom_site_type_symbol
_atom_site_fract_x
_atom_site_fract_y
_atom_site_fract_z
_atom_site_U_iso_or_equiv
_atom_site_thermal_displace_type
Mn1 Mn 0.60964(28) 0.27167(25) 1.14546(59) 0.0147 Uiso
O1 O 0.5091(12) 0.1956(10) 1.0430(32) 0.0053 Uiso
C1 C 0.4519(22) 0.1910(26) 1.0591(54) 0.0431 Uiso
O2 O 0.4250(17) 0.2009(16) 1.2115(54) 0.0874 Uiso
N1 N 0.4430(18) 0.2274(18) 0.9052(49) 0.0469 Uiso
C2 C 0.3730(24) 0.2269(22) 0.8629(51) 0.0621 Uiso
C3 C 0.4568(21) 0.2054(28) 0.7289(64) 0.0671 Uiso
C4 C 0.4183(27) 0.1293(28) 0.6614(75) 0.0899 Uiso
N2 N 0.4445(35) 0.1254(33) 0.467(12) 0.3166 Uiso
C5 C 0.4003(17) 0.0532(16) 0.3702(45) 0.0010 Uiso
O3 O 0.65949(94) 0.23870(90) 0.9591(26) 0.0105 Uiso
O4 O 0.64384(95) 0.2823(10) 0.5949(22) 0.0105 Uiso
O5 O 0.5935(11) 0.20226(94) 0.3786(26) 0.0105 Uiso
C6 C 0.6319(15) 0.1798(17) 0.8707(44) 0.0105 Uiso
C7 C 0.6112(16) 0.1649(18) 0.6812(45) 0.0105 Uiso
C8 C 0.5761(16) 0.0958(16) 0.6167(43) 0.0105 Uiso
C9 C 0.5634(14) 0.0386(15) 0.7140(43) 0.0105 Uiso
C10 C 0.5878(15) 0.0498(14) 0.8971(36) 0.0105 Uiso
C11 C 0.6133(17) 0.1144(14) 0.9872(40) 0.0105 Uiso
C12 C 0.6177(17) 0.2191(15) 0.5421(42) 0.0105 Uiso
H1 H 0.58266 0.00968 0.96495 0.0105 Uiso
H2 H 0.62577 0.11883 1.11707 0.0105 Uiso
H3 H 0.56208 0.08548 0.48814 0.0105 Uiso
H4 H 0.38643 0.25928 0.7582 0.1900 Uiso
H5 H 0.33805 0.17997 0.8224 0.1900 Uiso
H6 H 0.35343 0.24231 0.9617 0.1900 Uiso
H7 H 0.44646 0.23081 0.63267 0.1900 Uiso
H8 H 0.50675 0.21903 0.72235 0.1900 Uiso
H9 H 0.42753 0.10011 0.74794 0.1900 Uiso
H10 H 0.36758 0.11208 0.65673 0.1900 Uiso
H11 H 0.43291 0.14895 0.387 0.1900 Uiso
H12 H 0.49114 0.14453 0.4697 0.1900 Uiso
H13 H 0.36973 0.05651 0.27755 0.1900 Uiso
H14 H 0.43152 0.03987 0.30962 0.1900 Uiso
H15 H 0.37187 0.01795 0.46279 0.1900 Uiso
O3E O 0.4208(13) -0.23870(90) 0.3742(26) 0.0105 Uiso
O4E O 0.3615(14) -0.2823(10) 0.7384(22) 0.0105 Uiso
O5E O 0.3912(15) -0.20226(94) 0.9547(26) 0.0105 Uiso
C6E C 0.4521(23) -0.1798(17) 0.4626(44) 0.0105 Uiso
C7E C 0.4463(24) -0.1649(18) 0.6521(45) 0.0105 Uiso
C8E C 0.4803(23) -0.0958(16) 0.7166(43) 0.0105 Uiso
C9E C 0.5248(21) -0.0386(15) 0.6193(43) 0.0105 Uiso
C10E C 0.5380(21) -0.0498(14) 0.4362(36) 0.0105 Uiso
C11E C 0.4989(22) -0.1144(14) 0.3461(40) 0.0105 Uiso
C12E C 0.3986(23) -0.2191(15) 0.7912(42) 0.0105 Uiso
H1E H 0.57298 -0.00968 0.36838 0.0105 Uiso
H3E H 0.47660 -0.08548 0.84519 0.0105 Uiso
H2E H 0.50694 -0.11883 0.21626 0.0105 Uiso
Mn1E Mn 0.33797(38) -0.27167(25) 0.18787(59) 0.0147 Uiso
O1E O 0.3135(16) -0.1956(10) 0.2903(32) 0.0053 Uiso
C1E C 0.2609(34) -0.1910(26) 0.2742(54) 0.0431 Uiso
O2E O 0.2241(23) -0.2009(16) 0.1218(54) 0.0874 Uiso
N1E N 0.2156(25) -0.2274(18) 0.4281(49) 0.0469 Uiso
C2E C 0.1461(33) -0.2269(22) 0.4704(51) 0.0621 Uiso
C3E C 0.2514(35) -0.2054(28) 0.6044(64) 0.0671 Uiso
C4E C 0.2890(39) -0.1293(28) 0.6719(75) 0.0899 Uiso
N2E N 0.3191(48) -0.1254(33) 0.866(12) 0.3166 Uiso
C5E C 0.3471(23) -0.0532(16) 0.9631(45) 0.0010 Uiso
H4E H 0.12715 -0.25928 0.5751 0.1900 Uiso
H5E H 0.15808 -0.17997 0.5109 0.1900 Uiso
H6E H 0.11112 -0.24231 0.3716 0.1900 Uiso
H7E H 0.21565 -0.23081 0.70066 0.1900 Uiso
H8E H 0.28772 -0.21903 0.61098 0.1900 Uiso
H9E H 0.32742 -0.10011 0.58539 0.1900 Uiso
H10E H 0.25550 -0.11208 0.67660 0.1900 Uiso
H11E H 0.28396 -0.14895 0.946333 0.1900 Uiso
H12E H 0.34661 -0.14453 0.8636 0.1900 Uiso
H13E H 0.31322 -0.05651 1.05578 0.1900 Uiso
H14E H 0.39165 -0.03987 1.02371 0.1900 Uiso
H15E H 0.35392 -0.01795 0.87054 0.1900 Uiso
Mn1A Mn 0.39036(28) -0.33797(38) 0.52121(59) 0.0147 Uiso
Mn1B Mn 0.66203(38) 0.39036(28) 0.47879(59) 0.0147 Uiso
Mn1C Mn 0.72833(25) 0.33797(38) 0.81213(59) 0.0147 Uiso
Mn1D Mn 0.27167(25) -0.39036(28) 0.85454(59) 0.0147 Uiso
Mn1E_2 Mn 0.33797(38) -0.27167(25) 1.18787(59) 0.0147 Uiso
Mn1_2 Mn 0.60964(28) 0.27167(25) 0.14546(59) 0.0147 Uiso
O3B O 0.5792(13) 0.34051(94) 1.2924(26) 0.0105 Uiso
O3D O 0.23870(90) -0.34051(94) 0.0409(26) 0.0105 Uiso
O4A O 0.35616(95) -0.3615(14) 0.0718(22) 0.0105 Uiso
O4B O 0.6385(14) 0.35616(95) 0.9282(22) 0.0105 Uiso
O4C O 0.7177(10) 0.3615(14) 1.2616(22) 0.0105 Uiso
O4D O 0.2823(10) -0.35616(95) 0.4051(22) 0.0105 Uiso
O5E_2 O 0.3912(15) -0.20226(94) -0.0453(26) 0.0105 Uiso
O5_2 O 0.5935(11) 0.20226(94) 1.3786(26) 0.0105 Uiso
loop_
_geom_bond_atom_site_label_1
_geom_bond_atom_site_label_2
_geom_bond_site_symmetry_1
_geom_bond_site_symmetry_2
Mn1 O1 1_555 1_555
O1 C1 1_555 1_555
C1 O2 1_555 1_555
N1 C1 1_555 1_555
C2 N1 1_555 1_555
C3 N1 1_555 1_555
C4 C3 1_555 1_555
N2 C4 1_555 1_555
C5 N2 1_555 1_555
O3 Mn1 1_555 1_555
O4 C12 1_555 1_555
O5 C12 1_555 1_555
C6 O3 1_555 1_555
C7 C6 1_555 1_555
C8 C7 1_555 1_555
C9 C8 1_555 1_555
C10 C9 1_555 1_555
C11 C6 1_555 1_555
C12 C7 1_555 1_555
H1 C10 1_555 1_555
H2 C11 1_555 1_555
H3 C8 1_555 1_555
H4 C2 1_555 1_555
H5 C2 1_555 1_555
H6 C2 1_555 1_555
H7 C3 1_555 1_555
H8 C3 1_555 1_555
H9 C4 1_555 1_555
H10 C4 1_555 1_555
H11 N2 1_555 1_555
H12 N2 1_555 1_555
H13 C5 1_555 1_555
H14 C5 1_555 1_555
H15 C5 1_555 1_555
O3E C6E 1_555 1_555
O4E C12E 1_555 1_555
O5E C12E 1_555 1_555
C6E C7E 1_555 1_555
C7E C8E 1_555 1_555
C8E C9E 1_555 1_555
C9E C9 1_555 1_555
C10E C9E 1_555 1_555
C11E C6E 1_555 1_555
C12E C7E 1_555 1_555
H1E C10E 1_555 1_555
H3E C8E 1_555 1_555
H2E C11E 1_555 1_555
Mn1E O3E 1_555 1_555
O1E Mn1E 1_555 1_555
C1E O1E 1_555 1_555
O2E C1E 1_555 1_555
N1E C1E 1_555 1_555
C2E N1E 1_555 1_555
C3E N1E 1_555 1_555
C4E C3E 1_555 1_555
N2E C4E 1_555 1_555
C5E N2E 1_555 1_555
H4E C2E 1_555 1_555
H5E C2E 1_555 1_555
H6E C2E 1_555 1_555
H7E C3E 1_555 1_555
H8E C3E 1_555 1_555
H9E C4E 1_555 1_555
H10E C4E 1_555 1_555
H11E N2E 1_555 1_555
H12E N2E 1_555 1_555
H13E C5E 1_555 1_555
H14E C5E 1_555 1_555
H15E C5E 1_555 1_555
Mn1A O3E 1_555 1_555
Mn1B O4 1_555 1_555
Mn1C O3 1_555 1_555
Mn1D O4E 1_555 1_555
Mn1E_2 O5E 1_555 1_555
Mn1_2 O5 1_555 1_555
O3B Mn1 1_555 1_555
O3D Mn1E 1_555 1_555
O4A Mn1E 1_555 1_555
O4B Mn1 1_555 1_555
O4C Mn1 1_555 1_555
O4D Mn1E 1_555 1_555
O5E_2 Mn1E 1_555 1_555
O5_2 Mn1 1_555 1_555
O4 Mn1C 1_555 1_555
C10 C11 1_555 1_555
O4E Mn1A 1_555 1_555
C10E C11E 1_555 1_555
Mn1A O4D 1_555 1_555
Mn1C O4B 1_555 1_555

#END
