
#######################################################################
#
#                 Cambridge Crystallographic Data Centre
#                                CCDC 
#
#######################################################################
#
# If this CIF has been generated from an entry in the Cambridge 
# Structural Database, then it will include bibliographic, chemical, 
# crystal, experimental, refinement or atomic coordinate data resulting 
# from the CCDC's data processing and validation procedures.
#
#######################################################################

data_CAXWEF
_chemical_formula_moiety         '(C8 H4 Fe2 O10)n'
_symmetry_cell_setting           rhombohedral
_symmetry_space_group_name_H-M   'R -3'
_symmetry_Int_Tables_number      148
_space_group_name_Hall           '-R 3'
loop_
_symmetry_equiv_pos_site_id
_symmetry_equiv_pos_as_xyz
1 x,y,z
2 -y,x-y,z
3 -x+y,-x,z
4 1/3+x,2/3+y,2/3+z
5 1/3-y,2/3+x-y,2/3+z
6 1/3-x+y,2/3-x,2/3+z
7 2/3+x,1/3+y,1/3+z
8 2/3-y,1/3+x-y,1/3+z
9 2/3-x+y,1/3-x,1/3+z
10 -x,-y,-z
11 y,-x+y,-z
12 x-y,x,-z
13 2/3-x,1/3-y,1/3-z
14 2/3+y,1/3-x+y,1/3-z
15 2/3+x-y,1/3+x,1/3-z
16 1/3-x,2/3-y,2/3-z
17 1/3+y,2/3-x+y,2/3-z
18 1/3+x-y,2/3+x,2/3-z
_cell_length_a                   25.9572(14)
_cell_length_b                   25.9572(14)
_cell_length_c                   6.8430(8)
_cell_angle_alpha                90
_cell_angle_beta                 90
_cell_angle_gamma                120
_cell_volume                     3992.94
loop_
_atom_site_label
_atom_site_type_symbol
_atom_site_fract_x
_atom_site_fract_y
_atom_site_fract_z
_atom_site_U_iso_or_equiv
_atom_site_thermal_displace_type
D1 D 0.4652(12) 0.3404(11) 0.2865(31) 0.2011 Uani
D2 D 0.5361(30) 0.686(4) 0.359(13) 0.5333 Uani
Fe1 Fe 0.3809(4) 0.3480(5) 0.1410(15) 0.0295 Uiso
O1 O 0.3251(6) 0.2982(6) 0.3473(22) 0.0080 Uiso
O2 O 0.3029(8) 0.2223(10) 0.6015(21) 0.0300 Uiso
O3 O 0.3514(6) 0.2714(4) 0.0090(25) 0.0150 Uiso
C1 C 0.3155(9) 0.2467(6) 0.4054(21) 0.0200 Uiso
C2 C 0.3340(11) 0.2108(10) 0.2917(27) 0.0710 Uiso
C3 C 0.3442(8) 0.2237(7) 0.0873(27) 0.0130 Uiso
C4 C 0.3154(10) 0.1537(9) 0.3570(24) 0.0290 Uiso
H1 H 0.3018(13) 0.1416(12) 0.5137(31) 0.0030 Uiso
O4 O 0.4688(15) 0.3878(20) 0.286(6) 0.0040 Uiso
O5 O 0.485(6) 0.371(7) 0.084(16) 0.4889 Uani
Fe1L Fe 0.2858(4) -0.0147(5) 0.1923(15) 0.0295 Uiso
Fe1G Fe 0.3187(5) 0.3662(6) 0.4743(15) 0.0295 Uiso
Fe1E Fe 0.3004(6) 0.2858(4) 0.8077(15) 0.0295 Uiso
Fe1E_2 Fe 0.3004(6) 0.2858(4) -0.1923(15) 0.0295 Uiso
Fe1J Fe 0.3480(5) -0.0329(6) -0.1410(15) 0.0295 Uiso
Fe1Q Fe 0.3662(6) 0.0476(4) -0.4743(15) 0.0295 Uiso
Fe1Q_2 Fe 0.3662(6) 0.0476(4) 0.5257(15) 0.0295 Uiso
O1L O 0.3416(6) 0.0351(6) -0.0140(22) 0.0080 Uiso
O1E O 0.3064(8) 0.3416(6) 0.0140(22) 0.0080 Uiso
O1Q O 0.3602(8) -0.0082(6) 0.3194(22) 0.0080 Uiso
O2L O 0.3638(8) 0.1110(10) -0.2682(21) 0.0300 Uiso
O2G O 0.4444(10) 0.4139(13) -0.0652(21) 0.0300 Uiso
O2J O 0.2223(10) -0.0806(13) 0.3985(21) 0.0300 Uiso
O3L O 0.3153(6) 0.0619(4) 0.3243(25) 0.0150 Uiso
O3G O 0.3953(4) 0.4133(7) 0.3423(25) 0.0150 Uiso
O3J O 0.2714(4) -0.0800(7) -0.0090(25) 0.0150 Uiso
C1L C 0.3512(9) 0.0866(6) -0.0721(21) 0.0200 Uiso
C2L C 0.3327(11) 0.1225(10) 0.0416(27) 0.0710 Uiso
C3L C 0.3225(8) 0.1096(7) 0.2460(27) 0.0130 Uiso
C4L C 0.3513(10) 0.1796(9) -0.0237(24) 0.0290 Uiso
H1L H 0.3649(13) 0.1917(12) -0.1804(31) 0.0030 Uiso
O4L O 0.1979(15) -0.0545(20) 0.047(6) 0.0040 Uiso
O5L O 0.182(6) -0.038(7) 0.249(16) 0.4889 Uani
loop_
_atom_site_aniso_label
_atom_site_aniso_U_11
_atom_site_aniso_U_22
_atom_site_aniso_U_33
_atom_site_aniso_U_23
_atom_site_aniso_U_13
_atom_site_aniso_U_12
D1 0.26 0.175 0.21 -0.05 -0.05 0.14
D2 0.6(2) 0.7(1) 0.4(1) -0.1(1) -0.1(2) 0.4(2)
O5 0.3 0.4 0.8 -0.02 0.1 0.2
O5L 0.3 0.4 0.8 -0.02 0.1 0.2
loop_
_geom_bond_atom_site_label_1
_geom_bond_atom_site_label_2
_geom_bond_site_symmetry_1
_geom_bond_site_symmetry_2
Fe1 O1 1_555 1_555
O1 C1 1_555 1_555
O2 C1 1_555 1_555
O3 Fe1 1_555 1_555
C1 C2 1_555 1_555
C2 C3 1_555 1_555
C3 O3 1_555 1_555
C4 C2 1_555 1_555
H1 C4 1_555 1_555
O4 Fe1 1_555 1_555
O5 Fe1 1_555 1_555
Fe1L O1L 1_555 1_555
Fe1G O1 1_555 1_555
Fe1E O2 1_555 1_555
Fe1E_2 O3 1_555 1_555
Fe1J O1L 1_555 1_555
Fe1Q O2L 1_555 1_555
Fe1Q_2 O1Q 1_555 1_555
O1L C1L 1_555 1_555
O1E Fe1 1_555 1_555
O1Q Fe1L 1_555 1_555
O2L C1L 1_555 1_555
O2G Fe1 1_555 1_555
O2J Fe1L 1_555 1_555
O3L Fe1L 1_555 1_555
O3G Fe1 1_555 1_555
O3J Fe1L 1_555 1_555
C1L C2L 1_555 1_555
C2L C3L 1_555 1_555
C3L C4 1_555 1_555
C4L C3 1_555 1_555
H1L C4L 1_555 1_555
O4L Fe1L 1_555 1_555
O5L Fe1L 1_555 1_555
O4 O5 1_555 1_555
Fe1G O3G 1_555 1_555
Fe1E_2 O1E 1_555 1_555
Fe1J O3J 1_555 1_555
Fe1Q_2 O3L 1_555 1_555
O3L C3L 1_555 1_555
C2L C4L 1_555 1_555
O4L O5L 1_555 1_555

#END
