
#######################################################################
#
#                 Cambridge Crystallographic Data Centre
#                                CCDC 
#
#######################################################################
#
# If this CIF has been generated from an entry in the Cambridge 
# Structural Database, then it will include bibliographic, chemical, 
# crystal, experimental, refinement or atomic coordinate data resulting 
# from the CCDC's data processing and validation procedures.
#
#######################################################################

data_CAXWIJ
_chemical_formula_moiety         '(C8 H5 Fe2 O10)n'
_symmetry_cell_setting           rhombohedral
_symmetry_space_group_name_H-M   'R -3'
_symmetry_Int_Tables_number      148
_space_group_name_Hall           '-R 3'
loop_
_symmetry_equiv_pos_site_id
_symmetry_equiv_pos_as_xyz
1 x,y,z
2 -y,x-y,z
3 -x+y,-x,z
4 1/3+x,2/3+y,2/3+z
5 1/3-y,2/3+x-y,2/3+z
6 1/3-x+y,2/3-x,2/3+z
7 2/3+x,1/3+y,1/3+z
8 2/3-y,1/3+x-y,1/3+z
9 2/3-x+y,1/3-x,1/3+z
10 -x,-y,-z
11 y,-x+y,-z
12 x-y,x,-z
13 2/3-x,1/3-y,1/3-z
14 2/3+y,1/3-x+y,1/3-z
15 2/3+x-y,1/3+x,1/3-z
16 1/3-x,2/3-y,2/3-z
17 1/3+y,2/3-x+y,2/3-z
18 1/3+x-y,2/3+x,2/3-z
_cell_length_a                   25.9538(15)
_cell_length_b                   25.9538(15)
_cell_length_c                   6.8539(9)
_cell_angle_alpha                90
_cell_angle_beta                 90
_cell_angle_gamma                120
_cell_volume                     3998.25
loop_
_atom_site_label
_atom_site_type_symbol
_atom_site_fract_x
_atom_site_fract_y
_atom_site_fract_z
_atom_site_U_iso_or_equiv
_atom_site_thermal_displace_type
Fe1 Fe 0.3800(4) 0.3480(6) 0.1439(23) 0.0410 Uiso
O1 O 0.3250(9) 0.2957(7) 0.3485(32) 0.0240 Uiso
O2 O 0.3031(9) 0.2258(11) 0.6020(22) 0.0080 Uiso
O3 O 0.3512(7) 0.2720(4) 0.0102(28) 0.0030 Uiso
C1 C 0.3161(13) 0.2441(9) 0.4001(25) 0.0450 Uiso
C2 C 0.3297(15) 0.2046(10) 0.2879(31) 0.0720 Uiso
C3 C 0.3457(10) 0.2258(8) 0.0918(30) 0.0080 Uiso
C4 C 0.3139(10) 0.1498(9) 0.3613(27) 0.0170 Uiso
H1 H 0.2988(17) 0.1395(16) 0.5184(33) 0.0010 Uiso
O4 O 0.468(1) 0.391(2) 0.284(4) 0.0010 Uiso
O5 O 0.485(5) 0.368(5) 0.098(9) 0.6667 Uani
Fe1L Fe 0.2867(4) -0.0147(6) 0.1894(23) 0.0410 Uiso
Fe1G Fe 0.3187(6) 0.3653(7) 0.4772(23) 0.0410 Uiso
Fe1E Fe 0.3013(7) 0.2867(4) 0.8106(23) 0.0410 Uiso
Fe1E_2 Fe 0.3013(7) 0.2867(4) -0.1894(23) 0.0410 Uiso
Fe1J Fe 0.3480(6) -0.0320(7) -0.1439(23) 0.0410 Uiso
Fe1Q Fe 0.3653(7) 0.0467(4) -0.4772(23) 0.0410 Uiso
Fe1Q_2 Fe 0.3653(7) 0.0467(4) 0.5228(23) 0.0410 Uiso
O1L O 0.3417(9) 0.0376(7) -0.0152(32) 0.0240 Uiso
O1E O 0.3040(11) 0.3417(9) 0.0152(32) 0.0240 Uiso
O1Q O 0.3626(11) -0.0083(9) 0.3182(32) 0.0240 Uiso
O2L O 0.3636(9) 0.1075(11) -0.2687(22) 0.0080 Uiso
O2G O 0.4409(11) 0.4106(14) -0.0647(22) 0.0080 Uiso
O2J O 0.2258(11) -0.0773(14) 0.3980(22) 0.0080 Uiso
O3L O 0.3155(7) 0.0613(4) 0.3231(28) 0.0030 Uiso
O3G O 0.3947(4) 0.4125(8) 0.3435(28) 0.0030 Uiso
O3J O 0.2720(4) -0.0792(8) -0.0102(28) 0.0030 Uiso
C1L C 0.3506(13) 0.0892(9) -0.0668(25) 0.0450 Uiso
C2L C 0.3370(15) 0.1287(10) 0.0454(31) 0.0720 Uiso
C3L C 0.3210(10) 0.1075(8) 0.2415(30) 0.0080 Uiso
C4L C 0.3528(10) 0.1835(9) -0.0280(27) 0.0170 Uiso
H1L H 0.3679(17) 0.1938(16) -0.1851(33) 0.0010 Uiso
O4L O 0.199(1) -0.058(2) 0.049(4) 0.0010 Uiso
O5L O 0.182(5) -0.035(5) 0.235(9) 0.6667 Uani
D1 D 0.4642(15) 0.3446(15) 0.266(4) 0.2273 Uani
D2 D 0.5419(9) 0.6967(10) 0.315(5) 0.2369 Uani
D3 D 0.232(4) 0.492(5) 0.848(21) 0.1178 Uani
loop_
_atom_site_aniso_label
_atom_site_aniso_U_11
_atom_site_aniso_U_22
_atom_site_aniso_U_33
_atom_site_aniso_U_23
_atom_site_aniso_U_13
_atom_site_aniso_U_12
O5 0.8 0.8 0.4 0 0.2 0.4
O5L 0.8 0.8 0.4 0 0.2 0.4
D1 0.21 0.19 0.23 -0.003 0.011 0.061
D2 0.215(34) 0.26(4) 0.28(4) 0.037(31) -0.017(34) 0.152(29)
D3 0.01(8) 0.23(16) 0.06(10) -0.06(9) -0.09(6) 0.02(10)
loop_
_geom_bond_atom_site_label_1
_geom_bond_atom_site_label_2
_geom_bond_site_symmetry_1
_geom_bond_site_symmetry_2
Fe1 O1 1_555 1_555
O1 C1 1_555 1_555
O2 C1 1_555 1_555
O3 Fe1 1_555 1_555
C1 C2 1_555 1_555
C2 C3 1_555 1_555
C3 O3 1_555 1_555
C4 C2 1_555 1_555
H1 C4 1_555 1_555
O4 Fe1 1_555 1_555
O5 Fe1 1_555 1_555
Fe1L O1L 1_555 1_555
Fe1G O1 1_555 1_555
Fe1E O2 1_555 1_555
Fe1E_2 O3 1_555 1_555
Fe1J O1L 1_555 1_555
Fe1Q O2L 1_555 1_555
Fe1Q_2 O1Q 1_555 1_555
O1L C1L 1_555 1_555
O1E Fe1 1_555 1_555
O1Q Fe1L 1_555 1_555
O2L C1L 1_555 1_555
O2G Fe1 1_555 1_555
O2J Fe1L 1_555 1_555
O3L Fe1L 1_555 1_555
O3G Fe1 1_555 1_555
O3J Fe1L 1_555 1_555
C1L C2L 1_555 1_555
C2L C3L 1_555 1_555
C3L C4 1_555 1_555
C4L C3 1_555 1_555
H1L C4L 1_555 1_555
O4L Fe1L 1_555 1_555
O5L Fe1L 1_555 1_555
O4 O5 1_555 1_555
Fe1G O3G 1_555 1_555
Fe1E_2 O1E 1_555 1_555
Fe1J O3J 1_555 1_555
Fe1Q_2 O3L 1_555 1_555
O3L C3L 1_555 1_555
C2L C4L 1_555 1_555
O4L O5L 1_555 1_555

#END
