
#######################################################################
#
#                 Cambridge Crystallographic Data Centre
#                                CCDC 
#
#######################################################################
#
# If this CIF has been generated from an entry in the Cambridge 
# Structural Database, then it will include bibliographic, chemical, 
# crystal, experimental, refinement or atomic coordinate data resulting 
# from the CCDC's data processing and validation procedures.
#
#######################################################################

data_KUCDIW
_chemical_formula_moiety         '(C44 H52 B2 Cu2 N16)n'
_symmetry_cell_setting           cubic
_symmetry_space_group_name_H-M   'P 4 3 2'
_symmetry_Int_Tables_number      207
_space_group_name_Hall           'P 4 2 3'
loop_
_symmetry_equiv_pos_site_id
_symmetry_equiv_pos_as_xyz
1 x,y,z
2 -x,-y,z
3 -x,y,-z
4 x,-y,-z
5 z,x,y
6 z,-x,-y
7 -z,-x,y
8 -z,x,-y
9 y,z,x
10 -y,z,-x
11 y,-z,-x
12 -y,-z,x
13 y,x,-z
14 -y,-x,-z
15 y,-x,z
16 -y,x,z
17 x,z,-y
18 -x,z,y
19 -x,-z,-y
20 x,-z,y
21 z,y,-x
22 z,-y,x
23 -z,y,x
24 -z,-y,-x
_cell_length_a                   26.81520(10)
_cell_length_b                   26.81520(10)
_cell_length_c                   26.81520(10)
_cell_angle_alpha                90
_cell_angle_beta                 90
_cell_angle_gamma                90
_cell_volume                     19281.6
loop_
_atom_site_label
_atom_site_type_symbol
_atom_site_fract_x
_atom_site_fract_y
_atom_site_fract_z
_atom_site_U_iso_or_equiv
_atom_site_thermal_displace_type
Cu1 Cu 0.246725(18) 0.38951(2) 0.10842(2) 0.0399 Uani
B1 B 0.0989(2) 0.40114(19) 0.24908(17) 0.0380 Uani
N1 N 0.13353(14) 0.37414(13) 0.21157(13) 0.0390 Uani
N2 N 0.19411(15) 0.36425(14) 0.15523(14) 0.0437 Uani
C1 C 0.17377(16) 0.39438(16) 0.18869(16) 0.0377 Uani
H1 H 0.1861 0.4268 0.1959 0.0450 Uiso
C2 C 0.16586(19) 0.32145(16) 0.15681(18) 0.0483 Uani
C3 C 0.12837(19) 0.32771(18) 0.19056(18) 0.0473 Uani
H2 H 0.1031 0.3041 0.1982 0.0570 Uiso
C4 C 0.1787(3) 0.2771(2) 0.1249(3) 0.0830 Uani
H3 H 0.1622 0.2473 0.1383 0.1250 Uiso
H4 H 0.2149 0.2720 0.1251 0.1250 Uiso
H5 H 0.1673 0.2830 0.0907 0.1250 Uiso
N3 N 0.11889(13) 0.45375(13) 0.25879(13) 0.0380 Uani
N4 N 0.12889(15) 0.53578(14) 0.25553(14) 0.0418 Uani
C5 C 0.10088(16) 0.49775(17) 0.24294(15) 0.0370 Uani
H6 H 0.0708 0.5010 0.2244 0.0450 Uiso
C6 C 0.16803(18) 0.51529(17) 0.28199(17) 0.0437 Uani
C7 C 0.16221(17) 0.46558(18) 0.28440(18) 0.0440 Uani
H7 H 0.1838 0.4427 0.3007 0.0530 Uiso
C8 C 0.2082(3) 0.5472(2) 0.3034(2) 0.0210 Uani
H8 H 0.2331 0.5260 0.3198 0.0310 Uiso
H9 H 0.1937 0.5702 0.3279 0.0310 Uiso
H10 H 0.2241 0.5663 0.2767 0.0310 Uiso
N5 N 0.09758(13) 0.37363(13) 0.29994(13) 0.0370 Uani
N6 N 0.10087(14) 0.31487(14) 0.35821(14) 0.0400 Uani
C9 C 0.10918(16) 0.32598(16) 0.31136(15) 0.0367 Uani
H11 H 0.1221 0.3029 0.2878 0.0440 Uiso
C10 C 0.08232(17) 0.35836(17) 0.37921(16) 0.0410 Uani
C11 C 0.08015(17) 0.39385(17) 0.34400(16) 0.0403 Uani
H12 H 0.0687 0.4271 0.3486 0.0480 Uiso
C12 C 0.0681(2) 0.3630(2) 0.43332(19) 0.0587 Uani
H13 H 0.0532 0.3958 0.4393 0.0880 Uiso
H14 H 0.0980 0.3592 0.4541 0.0880 Uiso
H15 H 0.0440 0.3369 0.4418 0.0880 Uiso
N7 N 0.04594(13) 0.40230(13) 0.22687(13) 0.0379 Uani
N8 N -0.03609(14) 0.39660(14) 0.22018(14) 0.0413 Uani
C13 C 0.00287(17) 0.39088(15) 0.24921(15) 0.0360 Uani
H16 H 0.0007 0.3797 0.2828 0.0430 Uiso
C14 C -0.01741(18) 0.41247(17) 0.17540(17) 0.0437 Uani
C15 C 0.03249(18) 0.41584(18) 0.17886(17) 0.0460 Uani
H17 H 0.0546 0.4257 0.1530 0.0550 Uiso
C16 C -0.0509(2) 0.4232(2) 0.1313(2) 0.0610 Uani
H18 H -0.0712 0.3938 0.1239 0.0920 Uiso
H19 H -0.0305 0.4315 0.1022 0.0920 Uiso
H20 H -0.0728 0.4514 0.1392 0.0920 Uiso
Cu1U Cu 0.10842(2) 0.61049(2) 0.246725(18) 0.0399 Uani
Cu1C Cu 0.246725(18) 0.61049(2) -0.10842(2) 0.0399 Uani
Cu1D Cu 0.10842(2) 0.246725(18) 0.38951(2) 0.0399 Uani
Cu1V Cu -0.10842(2) 0.38951(2) 0.246725(18) 0.0399 Uani
Cu1N Cu 0.38951(2) 0.753275(18) 0.10842(2) 0.0399 Uani
B1U B 0.24908(17) 0.59886(19) 0.0989(2) 0.0380 Uani
N1U N 0.21157(13) 0.62586(13) 0.13353(14) 0.0390 Uani
N2U N 0.15523(14) 0.63575(14) 0.19411(15) 0.0437 Uani
C1U C 0.18869(16) 0.60562(16) 0.17377(16) 0.0377 Uani
H1U H 0.1959 0.5732 0.1861 0.0450 Uiso
C2U C 0.15681(18) 0.67855(16) 0.16586(19) 0.0483 Uani
C3U C 0.19056(18) 0.67229(18) 0.12837(19) 0.0473 Uani
H2U H 0.1982 0.6959 0.1031 0.0570 Uiso
C4U C 0.1249(3) 0.7229(2) 0.1787(3) 0.0830 Uani
H3U H 0.1383 0.7527 0.1622 0.1250 Uiso
H4U H 0.1251 0.7280 0.2149 0.1250 Uiso
H5U H 0.0907 0.7170 0.1673 0.1250 Uiso
N3U N 0.25879(13) 0.54625(13) 0.11889(13) 0.0380 Uani
N4U N 0.25553(14) 0.46422(14) 0.12889(15) 0.0418 Uani
C5U C 0.24294(15) 0.50225(17) 0.10088(16) 0.0370 Uani
H6U H 0.2244 0.4990 0.0708 0.0450 Uiso
C6U C 0.28199(17) 0.48471(17) 0.16803(18) 0.0437 Uani
C7U C 0.28440(18) 0.53442(18) 0.16221(17) 0.0440 Uani
H7U H 0.3007 0.5573 0.1838 0.0530 Uiso
C8U C 0.3034(2) 0.4528(2) 0.2082(3) 0.0210 Uani
H8U H 0.3198 0.4740 0.2331 0.0310 Uiso
H9U H 0.3279 0.4298 0.1937 0.0310 Uiso
H10U H 0.2767 0.4337 0.2241 0.0310 Uiso
N5U N 0.29994(13) 0.62637(13) 0.09758(13) 0.0370 Uani
N6U N 0.35821(14) 0.68513(14) 0.10087(14) 0.0400 Uani
N6H N 0.31487(14) 0.35821(14) 0.10087(14) 0.0400 Uani
N6S N 0.10087(14) 0.64179(14) 0.31487(14) 0.0400 Uani
C9U C 0.31136(15) 0.67402(16) 0.10918(16) 0.0367 Uani
H11U H 0.2878 0.6971 0.1221 0.0440 Uiso
C10U C 0.37921(16) 0.64164(17) 0.08232(17) 0.0410 Uani
C11U C 0.34400(16) 0.60615(17) 0.08015(17) 0.0403 Uani
H12U H 0.3486 0.5729 0.0687 0.0480 Uiso
C12U C 0.43332(19) 0.6370(2) 0.0681(2) 0.0587 Uani
H13U H 0.4393 0.6042 0.0532 0.0880 Uiso
H14U H 0.4541 0.6408 0.0980 0.0880 Uiso
H15U H 0.4418 0.6631 0.0440 0.0880 Uiso
N7U N 0.22687(13) 0.59770(13) 0.04594(13) 0.0379 Uani
N8U N 0.22018(14) 0.60340(14) -0.03609(14) 0.0413 Uani
N8T N 0.22018(14) 0.39660(14) 0.03609(14) 0.0413 Uani
N8A N 0.03609(14) 0.60340(14) 0.22018(14) 0.0413 Uani
C13U C 0.24921(15) 0.60912(15) 0.00287(17) 0.0360 Uani
H16U H 0.2828 0.6203 0.0007 0.0430 Uiso
C14U C 0.17540(17) 0.58753(17) -0.01741(18) 0.0437 Uani
C15U C 0.17886(17) 0.58416(18) 0.03249(18) 0.0460 Uani
H17U H 0.1530 0.5743 0.0546 0.0550 Uiso
C16U C 0.1313(2) 0.5768(2) -0.0509(2) 0.0610 Uani
H18U H 0.1239 0.6062 -0.0712 0.0920 Uiso
H19U H 0.1022 0.5685 -0.0305 0.0920 Uiso
H20U H 0.1392 0.5486 -0.0728 0.0920 Uiso
C17 C 0.2801(3) 0.3097(3) 0.2379(3) 0.0787 Uani
H21 H 0.2834 0.3331 0.2115 0.0940 Uiso
C18 C 0.2422(3) 0.3144(3) 0.2708(3) 0.0797 Uani
H22 H 0.2188 0.3408 0.2675 0.0960 Uiso
C17D C 0.2379(3) 0.2801(3) 0.3097(3) 0.0787 Uani
C17H C 0.3097(3) 0.2379(3) 0.2801(3) 0.0787 Uani
H21D H 0.2115 0.2834 0.3331 0.0940 Uiso
H21H H 0.3331 0.2115 0.2834 0.0940 Uiso
C18D C 0.2708(3) 0.2422(3) 0.3144(3) 0.0797 Uani
C18H C 0.3144(3) 0.2708(3) 0.2422(3) 0.0797 Uani
H22H H 0.3408 0.2675 0.2188 0.0960 Uiso
H22D H 0.2675 0.2188 0.3408 0.0960 Uiso
C19 C 1.0000 0.2568(12) 0.2568(12) 0.4260 Uiso
H23 H 1.0000 0.2819 0.2819 0.5110 Uiso
C20 C 0.9919(12) 0.2060(10) 0.2616(13) 0.4260 Uiso
H24 H 0.9863 0.1949 0.2947 0.5110 Uiso
C21 C 0.9907(12) 0.1666(12) 0.2235(9) 0.4260 Uiso
H25 H 0.9826 0.1342 0.2356 0.5110 Uiso
C22 C 1.0000 0.1697(12) 0.1697(12) 0.4260 Uiso
H26 H 1.0000 0.1446 0.1446 0.5110 Uiso
C20Q C 1.0081(12) 0.2616(13) 0.2060(10) 0.4260 Uiso
H24Q H 1.0137 0.2947 0.1949 0.5110 Uiso
C21Q C 1.0093(12) 0.2235(9) 0.1666(12) 0.4260 Uiso
H25Q H 1.0174 0.2356 0.1342 0.5110 Uiso
loop_
_atom_site_aniso_label
_atom_site_aniso_U_11
_atom_site_aniso_U_22
_atom_site_aniso_U_33
_atom_site_aniso_U_23
_atom_site_aniso_U_13
_atom_site_aniso_U_12
Cu1 0.0439(4) 0.0365(3) 0.0393(3) 0.0026(2) 0.0085(2) 0.0065(2)
B1 0.042(3) 0.032(2) 0.040(3) 0.002(2) 0.004(2) 0.003(2)
N1 0.043(2) 0.0356(19) 0.0384(19) 0.0003(15) 0.0050(16) 0.0004(16)
N2 0.049(2) 0.041(2) 0.041(2) 0.0023(17) 0.0084(17) 0.0038(17)
C1 0.037(2) 0.036(2) 0.040(2) 0.0030(18) 0.0058(18) 0.0028(18)
C2 0.061(3) 0.037(2) 0.047(3) -0.005(2) 0.013(2) -0.002(2)
C3 0.052(3) 0.039(2) 0.051(3) -0.007(2) 0.010(2) -0.010(2)
C4 0.106(5) 0.063(4) 0.080(4) -0.020(3) 0.039(4) -0.019(4)
N3 0.0366(19) 0.038(2) 0.0393(19) 0.0022(15) 0.0050(15) 0.0022(15)
N4 0.045(2) 0.0345(19) 0.046(2) -0.0034(16) 0.0050(17) -0.0012(17)
C5 0.040(2) 0.034(2) 0.037(2) 0.0002(19) 0.0036(17) -0.0001(19)
C6 0.044(2) 0.044(3) 0.043(2) -0.002(2) 0.000(2) -0.003(2)
C7 0.043(3) 0.044(3) 0.045(3) 0.001(2) -0.003(2) 0.001(2)
C8 0.022(3) 0.018(3) 0.023(3) -0.003(3) -0.011(3) -0.010(3)
N5 0.0343(19) 0.0376(19) 0.039(2) 0.0012(15) 0.0030(15) 0.0042(15)
N6 0.041(2) 0.039(2) 0.040(2) 0.0049(16) 0.0029(16) 0.0065(16)
C9 0.037(2) 0.037(2) 0.036(2) 0.0047(17) 0.0036(18) 0.0071(18)
C10 0.042(2) 0.046(2) 0.035(2) -0.0027(19) 0.0027(18) 0.0040(19)
C11 0.044(2) 0.039(2) 0.038(2) -0.0044(19) 0.0042(18) 0.004(2)
C12 0.073(4) 0.059(3) 0.044(3) -0.002(2) 0.006(2) 0.010(3)
N7 0.041(2) 0.0360(19) 0.0368(19) 0.0020(15) -0.0005(15) 0.0021(16)
N8 0.042(2) 0.040(2) 0.042(2) 0.0038(16) -0.0045(17) 0.0001(16)
C13 0.036(2) 0.036(2) 0.036(2) 0.0034(16) 0.0024(18) 0.0008(19)
C14 0.050(3) 0.043(2) 0.038(2) 0.001(2) -0.0035(19) -0.005(2)
C15 0.049(3) 0.052(3) 0.037(2) 0.007(2) 0.004(2) -0.002(2)
C16 0.058(3) 0.082(4) 0.043(3) 0.010(3) -0.008(2) -0.008(3)
Cu1U 0.0393 0.0365 0.0439 -0.0065 0.0085 -0.0026
Cu1C 0.0439 0.0365 0.0393 0.0026 -0.0085 -0.0065
Cu1D 0.0393 0.0439 0.0365 0.0065 0.0026 0.0085
Cu1V 0.0393 0.0365 0.0439 0.0065 -0.0085 -0.0026
Cu1N 0.0365 0.0439 0.0393 -0.0085 0.0026 -0.0065
B1U 0.04 0.032 0.042 -0.003 0.004 -0.002
N1U 0.0384 0.0356 0.043 -0.0004 0.005 -0.0003
N2U 0.041 0.041 0.049 -0.0038 0.0084 -0.0023
C1U 0.04 0.036 0.037 -0.0028 0.0058 -0.003
C2U 0.047 0.037 0.061 0.002 0.013 0.005
C3U 0.051 0.039 0.052 0.01 0.01 0.007
C4U 0.08 0.063 0.106 0.019 0.039 0.02
N3U 0.0393 0.038 0.0366 -0.0022 0.005 -0.0022
N4U 0.046 0.0345 0.045 0.0012 0.005 0.0034
C5U 0.037 0.034 0.04 0.0001 0.0036 -0.0002
C6U 0.043 0.044 0.044 0.003 0 0.002
C7U 0.045 0.044 0.043 -0.001 -0.003 -0.001
C8U 0.023 0.018 0.022 0.01 -0.011 0.003
N5U 0.039 0.0376 0.0343 -0.0042 0.003 -0.0012
N6U 0.04 0.039 0.041 -0.0065 0.0029 -0.0049
N6H 0.039 0.04 0.041 0.0029 0.0065 0.0049
N6S 0.041 0.04 0.039 -0.0049 0.0065 -0.0029
C9U 0.036 0.037 0.037 -0.0071 0.0036 -0.0047
C10U 0.035 0.046 0.042 -0.004 0.0027 0.0027
C11U 0.038 0.039 0.044 -0.004 0.0042 0.0044
C12U 0.044 0.059 0.073 -0.01 0.006 0.002
N7U 0.0368 0.036 0.041 -0.0021 -0.0005 -0.002
N8U 0.042 0.04 0.042 -0.0001 -0.0045 -0.0038
N8T 0.042 0.04 0.042 -0.0001 0.0045 0.0038
N8A 0.042 0.04 0.042 -0.0038 0.0045 0.0001
C13U 0.036 0.036 0.036 -0.0008 0.0024 -0.0034
C14U 0.038 0.043 0.05 0.005 -0.0035 -0.001
C15U 0.037 0.052 0.049 0.002 0.004 -0.007
C16U 0.043 0.082 0.058 0.008 -0.008 -0.01
C17 0.094(5) 0.074(4) 0.068(4) 0.014(3) 0.011(4) 0.013(4)
C18 0.077(4) 0.082(4) 0.080(4) 0.013(4) 0.006(4) 0.021(4)
C17D 0.068 0.094 0.074 0.013 0.014 0.011
C17H 0.074 0.068 0.094 0.011 0.013 0.014
C18D 0.08 0.077 0.082 0.021 0.013 0.006
C18H 0.082 0.08 0.077 0.006 0.021 0.013
loop_
_geom_bond_atom_site_label_1
_geom_bond_atom_site_label_2
_geom_bond_site_symmetry_1
_geom_bond_site_symmetry_2
Cu1 N2 1_555 1_555
B1 N1 1_555 1_555
N1 C1 1_555 1_555
N2 C1 1_555 1_555
C1 H1 1_555 1_555
C2 N2 1_555 1_555
C3 N1 1_555 1_555
H2 C3 1_555 1_555
C4 C2 1_555 1_555
H3 C4 1_555 1_555
H4 C4 1_555 1_555
H5 C4 1_555 1_555
N3 B1 1_555 1_555
N4 C5 1_555 1_555
C5 N3 1_555 1_555
H6 C5 1_555 1_555
C6 N4 1_555 1_555
C7 N3 1_555 1_555
H7 C7 1_555 1_555
C8 C6 1_555 1_555
H8 C8 1_555 1_555
H9 C8 1_555 1_555
H10 C8 1_555 1_555
N5 B1 1_555 1_555
N6 C9 1_555 1_555
C9 N5 1_555 1_555
H11 C9 1_555 1_555
C10 N6 1_555 1_555
C11 N5 1_555 1_555
H12 C11 1_555 1_555
C12 C10 1_555 1_555
H13 C12 1_555 1_555
H14 C12 1_555 1_555
H15 C12 1_555 1_555
N7 B1 1_555 1_555
N8 C13 1_555 1_555
C13 N7 1_555 1_555
H16 C13 1_555 1_555
C14 N8 1_555 1_555
C15 N7 1_555 1_555
H17 C15 1_555 1_555
C16 C14 1_555 1_555
H18 C16 1_555 1_555
H19 C16 1_555 1_555
H20 C16 1_555 1_555
C17 H21 1_555 1_555
C18 C17 1_555 1_555
H22 C18 1_555 1_555
C19 H23 1_555 1_555
C20 C19 1_555 1_555
H24 C20 1_555 1_555
C21 C20 1_555 1_555
H25 C21 1_555 1_555
C22 C21 1_555 1_555
H26 C22 1_555 1_555
Cu1U N4 1_555 1_555
Cu1C N8U 1_555 1_555
Cu1D N6 1_555 1_555
Cu1V N8 1_555 1_555
Cu1N N6U 1_555 1_555
B1U N1U 1_555 1_555
N1U C1U 1_555 1_555
N2U Cu1U 1_555 1_555
C1U N2U 1_555 1_555
H1U C1U 1_555 1_555
C2U N2U 1_555 1_555
C3U N1U 1_555 1_555
H2U C3U 1_555 1_555
C4U C2U 1_555 1_555
H3U C4U 1_555 1_555
H4U C4U 1_555 1_555
H5U C4U 1_555 1_555
N3U B1U 1_555 1_555
N4U Cu1 1_555 1_555
C5U N3U 1_555 1_555
H6U C5U 1_555 1_555
C6U N4U 1_555 1_555
C7U N3U 1_555 1_555
H7U C7U 1_555 1_555
C8U C6U 1_555 1_555
H8U C8U 1_555 1_555
H9U C8U 1_555 1_555
H10U C8U 1_555 1_555
N5U B1U 1_555 1_555
N6U C9U 1_555 1_555
N6H Cu1 1_555 1_555
N6S Cu1U 1_555 1_555
C9U N5U 1_555 1_555
H11U C9U 1_555 1_555
C10U N6U 1_555 1_555
C11U N5U 1_555 1_555
H12U C11U 1_555 1_555
C12U C10U 1_555 1_555
H13U C12U 1_555 1_555
H14U C12U 1_555 1_555
H15U C12U 1_555 1_555
N7U B1U 1_555 1_555
N8U C13U 1_555 1_555
N8T Cu1 1_555 1_555
N8A Cu1U 1_555 1_555
C13U N7U 1_555 1_555
H16U C13U 1_555 1_555
C14U N8U 1_555 1_555
C15U N7U 1_555 1_555
H17U C15U 1_555 1_555
C16U C14U 1_555 1_555
H18U C16U 1_555 1_555
H19U C16U 1_555 1_555
H20U C16U 1_555 1_555
C17D C18 1_555 1_555
C17H H21H 1_555 1_555
H21D C17D 1_555 1_555
C18D C17D 1_555 1_555
C18H C17 1_555 1_555
H22H C18H 1_555 1_555
H22D C18D 1_555 1_555
C20Q C19 1_555 1_555
H24Q C20Q 1_555 1_555
C21Q C22 1_555 1_555
H25Q C21Q 1_555 1_555
C2 C3 1_555 1_555
C6 C7 1_555 1_555
C10 C11 1_555 1_555
C14 C15 1_555 1_555
C2U C3U 1_555 1_555
N4U C5U 1_555 1_555
C6U C7U 1_555 1_555
C10U C11U 1_555 1_555
C14U C15U 1_555 1_555
C17H C18D 1_555 1_555
C17H C18H 1_555 1_555
C20Q C21Q 1_555 1_555

#END
