
#######################################################################
#
#                 Cambridge Crystallographic Data Centre
#                                CCDC 
#
#######################################################################
#
# If this CIF has been generated from an entry in the Cambridge 
# Structural Database, then it will include bibliographic, chemical, 
# crystal, experimental, refinement or atomic coordinate data resulting 
# from the CCDC's data processing and validation procedures.
#
#######################################################################

data_AWEFAK
_chemical_formula_moiety         '(C12 H34 Ga2 N4 O16 P4 4-)n'
_symmetry_cell_setting           triclinic
_symmetry_space_group_name_H-M   'P -1'
_symmetry_Int_Tables_number      2
_space_group_name_Hall           '-P 1'
loop_
_symmetry_equiv_pos_site_id
_symmetry_equiv_pos_as_xyz
1 x,y,z
2 -x,-y,-z
_cell_length_a                   8.477(5)
_cell_length_b                   8.795(5)
_cell_length_c                   8.929(5)
_cell_angle_alpha                92.248(5)
_cell_angle_beta                 95.825(5)
_cell_angle_gamma                98.076(5)
_cell_volume                     654.731
loop_
_atom_site_label
_atom_site_type_symbol
_atom_site_fract_x
_atom_site_fract_y
_atom_site_fract_z
N2 N 0.0582(3) 0.9336(2) 0.3731(2)
C4 C 0.1451(4) 1.0773(3) 0.4491(3)
C5 C -0.1171(4) 0.9195(3) 0.3876(3)
C6 C 0.3117(11) 1.0822(9) 0.4325(12)
H9 H 0.0752 0.9308 0.2692
H10 H 0.0995 0.8485 0.4185
H11 H 0.1038 1.1633 0.3977
H12 H -0.1721 0.8246 0.3353
H13 H -0.1498 1.0137 0.3422
H14 H 0.3269 1.0781 0.3295
H15 H 0.3485 0.9966 0.4796
H16 H 0.3697 1.1747 0.4809
N2A N -0.0582(3) 1.0664(2) 0.6269(2)
C4A C -0.1451(4) 0.9227(3) 0.5509(3)
C5A C 0.1171(4) 1.0805(3) 0.6124(3)
C6A C -0.3117(11) 0.9178(9) 0.5675(12)
H9A H -0.0752 1.0692 0.7308
H10A H -0.0995 1.1515 0.5815
H11A H -0.1038 0.8367 0.6023
H12A H 0.1721 1.1754 0.6647
H13A H 0.1498 0.9863 0.6578
H14A H -0.3269 0.9219 0.6705
H15A H -0.3485 1.0034 0.5204
H16A H -0.3697 0.8253 0.5191
Ga1 Ga 0.98868(2) 0.51704(2) 0.74789(2)
P1 P 1.00554(5) 0.26841(5) 0.98099(5)
P2 P 0.76431(5) 0.43668(5) 0.46910(5)
O1 O 0.91730(16) 0.36074(16) 0.86356(15)
O2 O 0.94995(17) 0.30463(15) 1.13687(15)
O3 O 0.81094(16) 0.53706(16) 0.61908(14)
O4 O 0.83926(16) 0.52913(17) 0.34241(15)
O5 O 0.93693(19) 0.09956(15) 0.93595(15)
O6 O 1.18252(17) 0.3027(2) 0.98361(18)
O7 O 0.58189(16) 0.4235(2) 0.43315(16)
O8 O 0.8227(2) 0.28481(18) 0.47696(18)
H17 H 1.0000 -0.0000 1.0000
H18 H 0.5000 0.5000 0.5000
Ga1A Ga 1.01132(2) -0.51704(2) 1.25211(2)
Ga1A_2 Ga 1.01132(2) 0.48296(2) 1.25211(2)
Ga1A_3 Ga 1.01132(2) 0.48296(2) 0.25211(2)
Ga1_2 Ga 0.98868(2) -0.48296(2) 0.74789(2)
Ga1A_4 Ga 0.01132(2) 0.48296(2) 0.25211(2)
Ga1_3 Ga -0.01132(2) 0.51704(2) 0.74789(2)
P1A P 0.99446(5) -0.26841(5) 1.01901(5)
P2A P 0.23569(5) 0.56332(5) 0.53090(5)
O1A O 1.08270(16) -0.36074(16) 1.13644(15)
O2A O 1.05005(17) -0.30463(15) 0.86313(15)
O2A_2 O 1.05005(17) 0.69537(15) 0.86313(15)
O2_2 O 0.94995(17) -0.69537(15) 1.13687(15)
O3A O 0.18906(16) 0.46294(16) 0.38092(14)
O3A_2 O 1.18906(16) -0.53706(16) 1.38092(14)
O4A O 0.16074(16) 0.47087(17) 0.65759(15)
O4A_2 O 1.16074(16) 0.47087(17) 0.65759(15)
O4_2 O 0.83926(16) -0.47087(17) 1.34241(15)
O5A O 1.06307(19) -0.09956(15) 1.06405(15)
O6A O 0.81748(17) -0.3027(2) 1.01639(18)
O7A O 0.41811(16) 0.5765(2) 0.56685(16)
O8A O 0.1773(2) 0.71519(18) 0.52304(18)
N1 N 0.4546(2) 0.4307(3) 0.1336(2)
C1 C 0.5639(3) 0.3607(3) 0.0394(3)
C2 C 0.4711(3) 0.6000(3) 0.1227(3)
C3 C 0.5450(8) 0.1897(8) 0.0570(8)
H1 H 0.4781 0.4077 0.2362
H2 H 0.3461 0.3873 0.1004
H3 H 0.6743 0.4039 0.0756
H4 H 0.5788 0.6422 0.1633
H5 H 0.3935 0.6396 0.1835
H6 H 0.5686 0.1681 0.1587
H7 H 0.6144 0.1449 -0.0034
H8 H 0.4363 0.1452 0.0231
N1A N 0.5454(2) 0.5693(3) -0.1336(2)
C1A C 0.4361(3) 0.6393(3) -0.0394(3)
C2A C 0.5289(3) 0.4000(3) -0.1227(3)
C3A C 0.4550(8) 0.8103(8) -0.0570(8)
H1A H 0.5219 0.5923 -0.2362
H2A H 0.6539 0.6127 -0.1004
H3A H 0.3257 0.5961 -0.0756
H4A H 0.4212 0.3578 -0.1633
H5A H 0.6065 0.3604 -0.1835
H6A H 0.4314 0.8319 -0.1587
H7A H 0.3856 0.8551 0.0034
H8A H 0.5637 0.8548 -0.0231
loop_
_geom_bond_atom_site_label_1
_geom_bond_atom_site_label_2
_geom_bond_site_symmetry_1
_geom_bond_site_symmetry_2
N1 C1 1_555 1_555
C1 C3 1_555 1_555
C2 N1 1_555 1_555
C3 H6 1_555 1_555
H1 N1 1_555 1_555
H2 N1 1_555 1_555
H3 C1 1_555 1_555
H4 C2 1_555 1_555
H5 C2 1_555 1_555
H7 C3 1_555 1_555
H8 C3 1_555 1_555
N2 C4 1_555 1_555
C4 C6 1_555 1_555
C5 N2 1_555 1_555
C6 H14 1_555 1_555
H9 N2 1_555 1_555
H10 N2 1_555 1_555
H11 C4 1_555 1_555
H12 C5 1_555 1_555
H13 C5 1_555 1_555
H15 C6 1_555 1_555
H16 C6 1_555 1_555
Ga1 O1 1_555 1_555
P1 O1 1_555 1_555
P2 O3 1_555 1_555
O2 P1 1_555 1_555
O3 Ga1 1_555 1_555
O4 P2 1_555 1_555
O5 P1 1_555 1_555
O6 P1 1_555 1_555
O7 P2 1_555 1_555
O8 P2 1_555 1_555
H17 O5 1_555 1_555
H18 O7 1_555 1_555
N1A C1A 1_555 1_555
C1A C2 1_555 1_555
C2A C1 1_555 1_555
C3A C1A 1_555 1_555
H1A N1A 1_555 1_555
H2A N1A 1_555 1_555
H3A C1A 1_555 1_555
H4A C2A 1_555 1_555
H5A C2A 1_555 1_555
H6A C3A 1_555 1_555
H7A C3A 1_555 1_555
H8A C3A 1_555 1_555
N2A C4A 1_555 1_555
C4A C5 1_555 1_555
C5A C4 1_555 1_555
C6A C4A 1_555 1_555
H9A N2A 1_555 1_555
H10A N2A 1_555 1_555
H11A C4A 1_555 1_555
H12A C5A 1_555 1_555
H13A C5A 1_555 1_555
H14A C6A 1_555 1_555
H15A C6A 1_555 1_555
H16A C6A 1_555 1_555
Ga1A O1A 1_555 1_555
Ga1A_2 O2 1_555 1_555
Ga1A_3 O4 1_555 1_555
Ga1_2 O2A 1_555 1_555
Ga1A_4 O3A 1_555 1_555
Ga1_3 O4A 1_555 1_555
P1A O1A 1_555 1_555
P2A O3A 1_555 1_555
O2A P1A 1_555 1_555
O2A_2 Ga1 1_555 1_555
O2_2 Ga1A 1_555 1_555
O3A_2 Ga1A 1_555 1_555
O4A P2A 1_555 1_555
O4A_2 Ga1 1_555 1_555
O4_2 Ga1A 1_555 1_555
O5A H17 1_555 1_555
O6A P1A 1_555 1_555
O7A H18 1_555 1_555
O8A P2A 1_555 1_555
N1A C2A 1_555 1_555
N2A C5A 1_555 1_555
P1A O5A 1_555 1_555
P2A O7A 1_555 1_555

#END
