
#######################################################################
#
#                 Cambridge Crystallographic Data Centre
#                                CCDC 
#
#######################################################################
#
# If this CIF has been generated from an entry in the Cambridge 
# Structural Database, then it will include bibliographic, chemical, 
# crystal, experimental, refinement or atomic coordinate data resulting 
# from the CCDC's data processing and validation procedures.
#
#######################################################################

data_OTEGUR
_chemical_formula_moiety         '(C17 H8 In2 O12)n'
_symmetry_cell_setting           tetragonal
_symmetry_space_group_name_H-M   'I 41 2 2'
_symmetry_Int_Tables_number      98
_space_group_name_Hall           'I 4bw 2bw'
loop_
_symmetry_equiv_pos_site_id
_symmetry_equiv_pos_as_xyz
1 x,y,z
2 -y,1/2+x,1/4+z
3 -x,-y,z
4 y,1/2-x,1/4+z
5 x,1/2-y,1/4-z
6 -x,1/2+y,1/4-z
7 y,x,-z
8 -y,-x,-z
9 1/2+x,1/2+y,1/2+z
10 1/2-y,x,3/4+z
11 1/2-x,1/2-y,1/2+z
12 1/2+y,-x,3/4+z
13 1/2+x,-y,3/4-z
14 1/2-x,y,3/4-z
15 1/2+y,1/2+x,1/2-z
16 1/2-y,1/2-x,1/2-z
_cell_length_a                   15.352(12)
_cell_length_b                   15.352(12)
_cell_length_c                   12.226(13)
_cell_angle_alpha                90
_cell_angle_beta                 90
_cell_angle_gamma                90
_cell_volume                     2881.47
loop_
_atom_site_label
_atom_site_type_symbol
_atom_site_fract_x
_atom_site_fract_y
_atom_site_fract_z
In1 In 0.81240(4) 0.31240(4) 0.7500
O1 O 0.9071(4) 0.2095(4) 0.7564(6)
O2 O 0.8887(5) 0.1169(5) 0.6142(4)
O3 O 0.7500 0.2450(7) 0.8750
H1 H 0.7500 0.1831 0.8750
C1 C 1.0000 0.0000 0.7111(10)
H2 H 1.0000 0.0000 0.6334
C2 C 0.9606(6) 0.0673(7) 0.7688(8)
C3 C 0.9628(6) 0.0690(7) 0.8815(8)
H3 H 0.9389 0.1173 0.9197
C4 C 1.0000 0.0000 0.9404(11)
C5 C 0.9149(6) 0.1365(7) 0.7066(8)
O1B O 1.0929(4) -0.2095(4) 0.7564(6)
O2B O 1.1113(5) -0.1169(5) 0.6142(4)
C2B C 1.0394(6) -0.0673(7) 0.7688(8)
C3B C 1.0372(6) -0.0690(7) 0.8815(8)
H3B H 1.0611 -0.1173 0.9197
C5B C 1.0851(6) -0.1365(7) 0.7066(8)
O1F O 1.2095(4) -0.0929(4) 1.2436(6)
O2F O 1.1169(5) -0.1113(5) 1.3858(4)
C1F C 1.0000 0.0000 1.2889(10)
H2F H 1.0000 0.0000 1.3666
C2F C 1.0673(7) -0.0394(6) 1.2312(8)
C3F C 1.0690(7) -0.0372(6) 1.1185(8)
H3F H 1.1173 -0.0611 1.0803
C4F C 1.0000 0.0000 1.0596(11)
C5F C 1.1365(7) -0.0851(6) 1.2934(8)
O1G O 0.7905(4) 0.0929(4) 1.2436(6)
O2G O 0.8831(5) 0.1113(5) 1.3858(4)
C2G C 0.9327(7) 0.0394(6) 1.2312(8)
C3G C 0.9310(7) 0.0372(6) 1.1185(8)
H3G H 0.8827 0.0611 1.0803
C5G C 0.8635(7) 0.0851(6) 1.2934(8)
In1B In 1.18760(4) -0.31240(4) 0.7500
O3B O 1.2500 -0.2450(7) 0.8750
H1B H 1.2500 -0.1831 0.8750
In1A In 0.68760(4) 0.31240(4) 1.0000
In1C In 1.31240(4) -0.31240(4) 1.0000
In1D In 0.81240(4) 0.18760(4) 0.5000
In1D_2 In 0.81240(4) 0.18760(4) 1.5000
In1E In 1.18760(4) -0.18760(4) 0.5000
In1E_2 In 1.18760(4) -0.18760(4) 1.5000
In1F In 1.31240(4) -0.18760(4) 1.2500
In1G In 0.68760(4) 0.18760(4) 1.2500
O1N O 0.7095(4) 0.4071(4) 0.7436(6)
O1O O 1.2905(4) -0.4071(4) 0.7436(6)
O2A O 0.8831(5) 0.3887(5) 0.8642(4)
O2C O 1.1169(5) -0.3887(5) 0.8642(4)
O2D O 0.8887(5) 0.3831(5) 0.6358(4)
O2E O 1.1113(5) -0.3831(5) 0.6358(4)
O3I O 1.2550(7) -0.2500 0.6250
O3K O 0.7450(7) 0.2500 0.6250
C6 C 0.800(2) -0.084(4) 0.561(3)
O4 O 0.768(2) -0.087(3) 0.647(2)
O5 O 0.8422(17) -0.085(2) 0.483(2)
loop_
_geom_bond_atom_site_label_1
_geom_bond_atom_site_label_2
_geom_bond_site_symmetry_1
_geom_bond_site_symmetry_2
In1 O1 1_555 1_555
O1 C5 1_555 1_555
O2 C5 1_555 1_555
O3 In1 1_555 1_555
H1 O3 1_555 1_555
C1 H2 1_555 1_555
C2 C1 1_555 1_555
C3 C2 1_555 1_555
H3 C3 1_555 1_555
C4 C3 1_555 1_555
C5 C2 1_555 1_555
C6 O4 1_555 1_555
O5 C6 1_555 1_555
O1B C5B 1_555 1_555
O2B C5B 1_555 1_555
C2B C1 1_555 1_555
C3B C4 1_555 1_555
H3B C3B 1_555 1_555
C5B C2B 1_555 1_555
O1F C5F 1_555 1_555
O2F C5F 1_555 1_555
C1F H2F 1_555 1_555
C2F C1F 1_555 1_555
C3F C2F 1_555 1_555
H3F C3F 1_555 1_555
C4F C4 1_555 1_555
C5F C2F 1_555 1_555
O1G C5G 1_555 1_555
O2G C5G 1_555 1_555
C2G C1F 1_555 1_555
C3G C4F 1_555 1_555
H3G C3G 1_555 1_555
C5G C2G 1_555 1_555
In1B O1B 1_555 1_555
O3B In1B 1_555 1_555
H1B O3B 1_555 1_555
In1A O3 1_555 1_555
In1C O3B 1_555 1_555
In1D O2 1_555 1_555
In1D_2 O2G 1_555 1_555
In1E O2B 1_555 1_555
In1E_2 O2F 1_555 1_555
In1F O1F 1_555 1_555
In1G O1G 1_555 1_555
O1N In1 1_555 1_555
O1O In1B 1_555 1_555
O2A In1 1_555 1_555
O2C In1B 1_555 1_555
O2D In1 1_555 1_555
O2E In1B 1_555 1_555
O3I In1B 1_555 1_555
O3K In1 1_555 1_555
C2B C3B 1_555 1_555
C3F C4F 1_555 1_555
C2G C3G 1_555 1_555
In1D O3K 1_555 1_555
In1E O3I 1_555 1_555

#END
