
#######################################################################
#
#                 Cambridge Crystallographic Data Centre
#                                CCDC 
#
#######################################################################
#
# If this CIF has been generated from an entry in the Cambridge 
# Structural Database, then it will include bibliographic, chemical, 
# crystal, experimental, refinement or atomic coordinate data resulting 
# from the CCDC's data processing and validation procedures.
#
#######################################################################

data_OTEHAY
_chemical_formula_moiety         '(C16 H8 In2 O12 S1)n'
_symmetry_cell_setting           tetragonal
_symmetry_space_group_name_H-M   'I 41 2 2'
_symmetry_Int_Tables_number      98
_space_group_name_Hall           'I 4bw 2bw'
loop_
_symmetry_equiv_pos_site_id
_symmetry_equiv_pos_as_xyz
1 x,y,z
2 1/2-x,y,3/4-z
3 -y,-x,-z
4 -y,1/2+x,1/4+z
5 1/2+y,-x,3/4+z
6 1/2+y,1/2+x,1/2-z
7 x,1/2-y,1/4-z
8 1/2-x,1/2-y,1/2+z
9 1/2+x,1/2+y,1/2+z
10 -x,1/2+y,1/4-z
11 1/2-y,1/2-x,1/2-z
12 1/2-y,x,3/4+z
13 y,1/2-x,1/4+z
14 y,x,-z
15 1/2+x,-y,3/4-z
16 -x,-y,z
_cell_length_a                   15.509651(39)
_cell_length_b                   15.509651(39)
_cell_length_c                   12.319720(31)
_cell_angle_alpha                90
_cell_angle_beta                 90
_cell_angle_gamma                90
_cell_volume                     2963.5
loop_
_atom_site_label
_atom_site_type_symbol
_atom_site_fract_x
_atom_site_fract_y
_atom_site_fract_z
_atom_site_U_iso_or_equiv
_atom_site_thermal_displace_type
In1 In 0.688086(42) 0.311914(42) 0.500 0.0324 Uiso
O1 O 0.75815(45) 0.250 0.625 0.0358 Uiso
O2 O 0.61266(38) 0.38321(37) 0.61447(37) 0.0358 Uiso
O3 O 0.59174(29) 0.29299(32) 0.75728(42) 0.0358 Uiso
C1 C 0.58679(56) 0.36123(52) 0.70627(64) 0.0446 Uiso
C2 C 0.53618(51) 0.43098(46) 0.76877(65) 0.0446 Uiso
C3 C 0.500 0.500 0.71164(79) 0.0446 Uiso
C4 C 0.52791(59) 0.42723(48) 0.88193(61) 0.0446 Uiso
C5 C 0.500 0.500 0.93959(67) 0.0446 Uiso
H1 H 0.500 0.500 0.63078 0.0429 Uiso
H2 H 0.54118 0.37258 0.91603 0.0429 Uiso
H3 H 0.81264 0.250 0.625 0.0536 Uiso
O2B O 0.61679(37) 0.38734(38) 1.38553(37) 0.0358 Uiso
O3B O 0.70701(32) 0.40826(29) 1.24272(42) 0.0358 Uiso
C1B C 0.63877(52) 0.41321(56) 1.29373(64) 0.0446 Uiso
C2B C 0.56902(46) 0.46382(51) 1.23123(65) 0.0446 Uiso
C3B C 0.500 0.500 1.28836(79) 0.0446 Uiso
C4B C 0.57277(48) 0.47209(59) 1.11807(61) 0.0446 Uiso
C5B C 0.500 0.500 1.06041(67) 0.0446 Uiso
H1B H 0.500 0.500 1.36922 0.0429 Uiso
H2B H 0.62742 0.45882 1.08397 0.0429 Uiso
O2M O 0.38321(37) 0.61266(38) 1.38553(37) 0.0358 Uiso
O3M O 0.29299(32) 0.59174(29) 1.24272(42) 0.0358 Uiso
C1M C 0.36123(52) 0.58679(56) 1.29373(64) 0.0446 Uiso
C2M C 0.43098(46) 0.53618(51) 1.23123(65) 0.0446 Uiso
C4M C 0.42723(48) 0.52791(59) 1.11807(61) 0.0446 Uiso
H2M H 0.37258 0.54118 1.08397 0.0429 Uiso
O2O O 0.38734(38) 0.61679(37) 0.61447(37) 0.0358 Uiso
O3O O 0.40826(29) 0.70701(32) 0.75728(42) 0.0358 Uiso
C1O C 0.41321(56) 0.63877(52) 0.70627(64) 0.0446 Uiso
C2O C 0.46382(51) 0.56902(46) 0.76877(65) 0.0446 Uiso
C4O C 0.47209(59) 0.57277(48) 0.88193(61) 0.0446 Uiso
H2O H 0.45882 0.62742 0.91603 0.0429 Uiso
In1A In 0.811914(42) 0.311914(42) 1.250 0.0324 Uiso
O1A O 0.74185(45) 0.250 1.125 0.0358 Uiso
H3A H 0.68736 0.250 1.125 0.0536 Uiso
In1_2 In 0.688086(42) 0.311914(42) 1.500 0.0324 Uiso
In1C In 0.688086(42) 0.188086(42) 0.750 0.0324 Uiso
In1E In 0.811914(42) 0.188086(42) 1.000 0.0324 Uiso
In1I In 0.311914(42) 0.811914(42) 0.750 0.0324 Uiso
In1K In 0.188086(42) 0.688086(42) 1.250 0.0324 Uiso
In1M In 0.311914(42) 0.688086(42) 0.500 0.0324 Uiso
In1M_2 In 0.311914(42) 0.688086(42) 1.500 0.0324 Uiso
O1B O 0.750 0.24185(45) 0.375 0.0358 Uiso
O1B_2 O 0.750 0.24185(45) 1.375 0.0358 Uiso
O2A O 0.88734(38) 0.38321(37) 1.13553(37) 0.0358 Uiso
O2B_2 O 0.61679(37) 0.38734(38) 0.38553(37) 0.0358 Uiso
O2D O 0.88321(37) 0.38734(38) 1.36447(37) 0.0358 Uiso
O3D O 0.79299(32) 0.40826(29) 0.50728(42) 0.0358 Uiso
O3F O 0.59174(29) 0.20701(32) 0.49272(42) 0.0358 Uiso
O3G O 0.90826(29) 0.20701(32) 1.25728(42) 0.0358 Uiso
S1 S 0.10850(86) 0.1872(11) -0.0305(14) 0.2546 Uiso
O4 O 0.1377(52) 0.2473(27) -0.0910(29) 0.2406 Uiso
O5 O 0.0968(43) 0.2249(23) 0.0605(23) 0.2090 Uiso
loop_
_geom_bond_atom_site_label_1
_geom_bond_atom_site_label_2
_geom_bond_site_symmetry_1
_geom_bond_site_symmetry_2
In1 O1 1_555 1_555
O1 H3 1_555 1_555
O2 In1 1_555 1_555
O3 C1 1_555 1_555
C1 O2 1_555 1_555
C2 C1 1_555 1_555
C3 C2 1_555 1_555
C4 C2 1_555 1_555
C5 C4 1_555 1_555
H1 C3 1_555 1_555
H2 C4 1_555 1_555
S1 O4 1_555 1_555
O5 S1 1_555 1_555
O2B C1B 1_555 1_555
O3B C1B 1_555 1_555
C1B C2B 1_555 1_555
C2B C3B 1_555 1_555
C3B H1B 1_555 1_555
C4B C2B 1_555 1_555
C5B C5 1_555 1_555
H2B C4B 1_555 1_555
O2M C1M 1_555 1_555
O3M C1M 1_555 1_555
C1M C2M 1_555 1_555
C2M C3B 1_555 1_555
C4M C5B 1_555 1_555
H2M C4M 1_555 1_555
O2O C1O 1_555 1_555
O3O C1O 1_555 1_555
C1O C2O 1_555 1_555
C2O C3 1_555 1_555
C4O C5 1_555 1_555
H2O C4O 1_555 1_555
In1A O3B 1_555 1_555
O1A In1A 1_555 1_555
H3A O1A 1_555 1_555
In1_2 O2B 1_555 1_555
In1C O1 1_555 1_555
In1E O1A 1_555 1_555
In1I O3O 1_555 1_555
In1K O3M 1_555 1_555
In1M O2O 1_555 1_555
In1M_2 O2M 1_555 1_555
O1B In1 1_555 1_555
O1B_2 In1A 1_555 1_555
O2A In1A 1_555 1_555
O2B_2 In1 1_555 1_555
O2D In1A 1_555 1_555
O3D In1 1_555 1_555
O3F In1 1_555 1_555
O3G In1A 1_555 1_555
O3 In1C 1_555 1_555
C4B C5B 1_555 1_555
C2M C4M 1_555 1_555
C2O C4O 1_555 1_555
In1_2 O1B_2 1_555 1_555

#END
