
#######################################################################
#
#                 Cambridge Crystallographic Data Centre
#                                CCDC 
#
#######################################################################
#
# If this CIF has been generated from an entry in the Cambridge 
# Structural Database, then it will include bibliographic, chemical, 
# crystal, experimental, refinement or atomic coordinate data resulting 
# from the CCDC's data processing and validation procedures.
#
#######################################################################

data_VIZRIH
_chemical_formula_moiety         '(C18 H14 N8 O6 S1 Zn2)n'
_symmetry_cell_setting           orthorhombic
_symmetry_space_group_name_H-M   'P b c n'
_symmetry_Int_Tables_number      60
_space_group_name_Hall           '-P 2n 2ab'
loop_
_symmetry_equiv_pos_site_id
_symmetry_equiv_pos_as_xyz
1 x,y,z
2 1/2-x,1/2-y,1/2+z
3 -x,y,1/2-z
4 1/2+x,1/2-y,-z
5 -x,-y,-z
6 1/2+x,1/2+y,1/2-z
7 x,-y,1/2+z
8 1/2-x,1/2+y,z
_cell_length_a                   30.671(6)
_cell_length_b                   16.577(3)
_cell_length_c                   9.851(2)
_cell_angle_alpha                90
_cell_angle_beta                 90
_cell_angle_gamma                90
_cell_volume                     5008.58
loop_
_atom_site_label
_atom_site_type_symbol
_atom_site_fract_x
_atom_site_fract_y
_atom_site_fract_z
_atom_site_U_iso_or_equiv
_atom_site_thermal_displace_type
Zn1 Zn 0.349659(17) 1.10776(3) 0.83967(5) 0.0235 Uani
Zn2 Zn 0.251301(17) 1.14181(3) 0.63341(5) 0.0268 Uani
S1 S 0.10110(5) 0.75256(10) 0.36815(15) 0.0495 Uani
O1 O -0.06487(12) 0.5536(2) 0.6584(4) 0.0550 Uani
O2 O -0.09795(11) 0.6679(2) 0.6099(4) 0.0440 Uani
O3 O 0.13162(13) 0.6863(3) 0.3647(5) 0.0683 Uani
O4 O 0.08798(14) 0.7907(3) 0.2445(4) 0.0683 Uani
O5 O 0.22936(14) 0.9815(2) 0.7545(4) 0.0647 Uani
O6 O 0.19866(11) 1.0774(2) 0.6302(3) 0.0423 Uani
N1 N 0.33652(12) 0.9748(2) 0.4830(4) 0.0297 Uani
N2 N 0.39192(13) 0.9550(3) 0.6490(4) 0.0440 Uani
H1 H 0.4036 0.9703 0.7240 0.0530 Uiso
H2 H 0.4026 0.9147 0.6052 0.0530 Uiso
N3 N 0.33817(12) 1.0570(2) 0.6610(4) 0.0250 Uani
N4 N 0.30348(12) 1.0788(2) 0.5783(4) 0.0297 Uani
N5 N 0.23545(12) 1.2164(2) 0.4806(4) 0.0310 Uani
N6 N 0.16247(14) 1.2360(3) 0.5490(5) 0.0627 Uani
H3 H 0.1380 1.2602 0.5370 0.0750 Uiso
H4 H 0.1654 1.2019 0.6141 0.0750 Uiso
N7 N 0.19468(12) 1.3030(2) 0.3631(4) 0.0257 Uani
N8 N 0.23612(12) 1.3007(2) 0.3064(4) 0.0283 Uani
C1 C -0.06411(17) 0.6229(4) 0.6159(5) 0.0393 Uani
C2 C -0.02207(16) 0.6584(3) 0.5601(5) 0.0360 Uani
C3 C 0.01496(18) 0.6133(3) 0.5605(6) 0.0503 Uani
H5 H 0.0145 0.5620 0.5987 0.0600 Uiso
C4 C 0.05274(18) 0.6421(3) 0.5057(6) 0.0537 Uani
H6 H 0.0778 0.6105 0.5056 0.0640 Uiso
C5 C 0.05342(16) 0.7178(3) 0.4513(5) 0.0393 Uani
C6 C 0.01663(19) 0.7655(4) 0.4509(8) 0.0713 Uani
H7 H 0.0171 0.8167 0.4126 0.0850 Uiso
C7 C -0.02075(18) 0.7354(4) 0.5086(7) 0.0620 Uani
H8 H -0.0455 0.7676 0.5130 0.0750 Uiso
C8 C 0.12492(17) 0.8288(3) 0.4710(6) 0.0413 Uani
C9 C 0.1467(2) 0.8092(3) 0.5868(6) 0.0607 Uani
H9 H 0.1454 0.7568 0.6202 0.0730 Uiso
C10 C 0.1705(2) 0.8669(4) 0.6542(6) 0.0583 Uani
H10 H 0.1855 0.8531 0.7328 0.0700 Uiso
C11 C 0.17219(16) 0.9435(3) 0.6073(5) 0.0373 Uani
C12 C 0.1256(2) 0.9062(4) 0.4244(7) 0.0640 Uani
H11 H 0.1103 0.9201 0.3463 0.0770 Uiso
C13 C 0.1491(2) 0.9637(4) 0.4942(7) 0.0640 Uani
H12 H 0.1492 1.0168 0.4638 0.0770 Uiso
C14 C 0.20257(17) 1.0039(3) 0.6721(6) 0.0420 Uani
C15 C 0.35689(15) 0.9940(3) 0.6000(5) 0.0277 Uani
C16 C 0.30394(16) 1.0287(3) 0.4755(5) 0.0337 Uani
H13 H 0.2839 1.0303 0.4048 0.0410 Uiso
C17 C 0.25868(15) 1.2486(3) 0.3768(5) 0.0330 Uani
H14 H 0.2875 1.2350 0.3578 0.0400 Uiso
C18 C 0.19634(15) 1.2516(3) 0.4655(5) 0.0293 Uani
Zn1A Zn 0.150341(17) 1.39224(3) 0.33967(5) 0.0235 Uani
Zn1E Zn -0.150341(17) 0.60776(3) 0.66033(5) 0.0235 Uani
Zn1F Zn 0.349659(17) 0.89224(3) 0.33967(5) 0.0235 Uani
Zn2A Zn 0.248699(17) 1.35819(3) 0.13341(5) 0.0268 Uani
O2E O 0.40205(11) 1.1679(2) 0.8901(4) 0.0440 Uani
N1F N 0.33652(12) 1.0252(2) 0.9830(4) 0.0297 Uani
N7A N 0.30532(12) 1.1970(2) 0.8631(4) 0.0257 Uani
N8A N 0.26388(12) 1.1993(2) 0.8064(4) 0.0283 Uani
loop_
_atom_site_aniso_label
_atom_site_aniso_U_11
_atom_site_aniso_U_22
_atom_site_aniso_U_33
_atom_site_aniso_U_23
_atom_site_aniso_U_13
_atom_site_aniso_U_12
Zn1 0.0240(3) 0.0241(3) 0.0224(3) -0.0002(2) -0.0029(2) 0.0015(2)
Zn2 0.0255(3) 0.0287(3) 0.0261(3) 0.0000(2) -0.0051(2) 0.0034(2)
S1 0.0344(8) 0.0645(11) 0.0497(9) -0.0112(8) 0.0107(7) -0.0186(7)
O1 0.049(2) 0.051(3) 0.065(3) 0.021(2) 0.004(2) -0.005(2)
O2 0.028(2) 0.049(2) 0.055(3) 0.010(2) 0.0044(18) -0.0032(18)
O3 0.037(2) 0.068(3) 0.100(4) -0.030(3) 0.027(2) -0.006(2)
O4 0.059(3) 0.108(4) 0.038(2) 0.000(2) 0.001(2) -0.040(3)
O5 0.066(3) 0.056(3) 0.072(3) 0.019(2) -0.040(3) -0.012(2)
O6 0.035(2) 0.038(2) 0.054(2) 0.0061(19) -0.0057(18) -0.0072(18)
N1 0.031(2) 0.030(2) 0.028(2) -0.0087(19) -0.0046(18) 0.0074(19)
N2 0.048(3) 0.045(3) 0.039(3) -0.021(2) -0.024(2) 0.025(2)
N3 0.027(2) 0.025(2) 0.023(2) -0.0009(17) -0.0072(17) 0.0035(17)
N4 0.028(2) 0.032(2) 0.029(2) -0.0038(19) -0.0092(18) 0.0084(19)
N5 0.027(2) 0.034(2) 0.032(2) 0.008(2) -0.0023(18) 0.0062(19)
N6 0.041(3) 0.079(4) 0.068(4) 0.043(3) 0.026(3) 0.028(3)
N7 0.022(2) 0.027(2) 0.028(2) 0.0044(18) 0.0035(17) 0.0052(17)
N8 0.020(2) 0.036(2) 0.029(2) 0.0060(19) 0.0056(17) 0.0040(18)
C1 0.035(3) 0.053(4) 0.030(3) -0.002(3) 0.000(2) -0.006(3)
C2 0.031(3) 0.040(3) 0.037(3) 0.005(3) 0.005(2) -0.004(2)
C3 0.038(3) 0.050(4) 0.063(4) 0.018(3) -0.003(3) -0.002(3)
C4 0.033(3) 0.048(4) 0.080(5) 0.004(3) 0.006(3) 0.000(3)
C5 0.028(3) 0.045(3) 0.045(3) -0.002(3) 0.008(3) -0.009(3)
C6 0.044(4) 0.048(4) 0.122(6) 0.032(4) 0.019(4) -0.004(3)
C7 0.026(3) 0.050(4) 0.110(6) 0.025(4) 0.009(3) 0.007(3)
C8 0.031(3) 0.049(3) 0.044(3) -0.002(3) 0.001(3) -0.011(3)
C9 0.077(5) 0.034(3) 0.071(4) 0.019(3) -0.025(4) -0.014(3)
C10 0.067(4) 0.047(4) 0.061(4) 0.012(3) -0.033(3) -0.014(3)
C11 0.032(3) 0.035(3) 0.045(3) 0.009(3) -0.009(3) -0.010(2)
C12 0.068(4) 0.061(4) 0.063(4) 0.015(3) -0.037(4) -0.026(4)
C13 0.074(5) 0.046(4) 0.072(5) 0.023(3) -0.027(4) -0.024(3)
C14 0.036(3) 0.044(3) 0.046(3) 0.015(3) -0.010(3) -0.013(3)
C15 0.029(2) 0.026(3) 0.028(3) -0.003(2) -0.005(2) 0.000(2)
C16 0.031(3) 0.042(3) 0.028(3) -0.006(2) -0.010(2) 0.007(2)
C17 0.026(3) 0.040(3) 0.033(3) 0.004(2) 0.003(2) 0.009(2)
C18 0.031(3) 0.030(3) 0.027(3) 0.006(2) 0.007(2) 0.007(2)
Zn1A 0.024 0.0241 0.0224 0.0002 0.0029 0.0015
Zn1E 0.024 0.0241 0.0224 0.0002 0.0029 0.0015
Zn1F 0.024 0.0241 0.0224 0.0002 -0.0029 -0.0015
Zn2A 0.0255 0.0287 0.0261 0 0.0051 0.0034
O2E 0.028 0.049 0.055 -0.01 -0.0044 -0.0032
N1F 0.031 0.03 0.028 0.0087 -0.0046 -0.0074
N7A 0.022 0.027 0.028 -0.0044 -0.0035 0.0052
N8A 0.02 0.036 0.029 -0.006 -0.0056 0.004
loop_
_geom_bond_atom_site_label_1
_geom_bond_atom_site_label_2
_geom_bond_site_symmetry_1
_geom_bond_site_symmetry_2
Zn1 N3 1_555 1_555
Zn2 O6 1_555 1_555
S1 O3 1_555 1_555
O1 C1 1_555 1_555
O2 C1 1_555 1_555
O4 S1 1_555 1_555
O5 C14 1_555 1_555
O6 C14 1_555 1_555
N1 C15 1_555 1_555
N2 H1 1_555 1_555
H2 N2 1_555 1_555
N3 N4 1_555 1_555
N4 Zn2 1_555 1_555
N5 Zn2 1_555 1_555
N6 H3 1_555 1_555
H4 N6 1_555 1_555
N7 N8 1_555 1_555
N8 C17 1_555 1_555
C1 C2 1_555 1_555
C2 C3 1_555 1_555
C3 H5 1_555 1_555
C4 C3 1_555 1_555
H6 C4 1_555 1_555
C5 S1 1_555 1_555
C6 C5 1_555 1_555
H7 C6 1_555 1_555
C7 C2 1_555 1_555
H8 C7 1_555 1_555
C8 S1 1_555 1_555
C9 C8 1_555 1_555
H9 C9 1_555 1_555
C10 C9 1_555 1_555
H10 C10 1_555 1_555
C11 C10 1_555 1_555
C12 C8 1_555 1_555
H11 C12 1_555 1_555
C13 C11 1_555 1_555
H12 C13 1_555 1_555
C14 C11 1_555 1_555
C15 N2 1_555 1_555
C16 N1 1_555 1_555
H13 C16 1_555 1_555
C17 N5 1_555 1_555
H14 C17 1_555 1_555
C18 N5 1_555 1_555
Zn1A N7 1_555 1_555
Zn1E O2 1_555 1_555
Zn1F N1 1_555 1_555
Zn2A N8 1_555 1_555
O2E Zn1 1_555 1_555
N1F Zn1 1_555 1_555
N7A Zn1 1_555 1_555
N8A Zn2 1_555 1_555
N3 C15 1_555 1_555
N4 C16 1_555 1_555
N6 C18 1_555 1_555
N7 C18 1_555 1_555
C4 C5 1_555 1_555
C6 C7 1_555 1_555
C12 C13 1_555 1_555
N7A N8A 1_555 1_555

#END
