
#######################################################################
#
#                 Cambridge Crystallographic Data Centre
#                                CCDC 
#
#######################################################################
#
# If this CIF has been generated from an entry in the Cambridge 
# Structural Database, then it will include bibliographic, chemical, 
# crystal, experimental, refinement or atomic coordinate data resulting 
# from the CCDC's data processing and validation procedures.
#
#######################################################################

data_GEFYUN
_chemical_formula_moiety         '(C37 H29 Br1 Cl6 Cu1 N1 P2)n'
_symmetry_cell_setting           trigonal
_symmetry_space_group_name_H-M   'P 32 2 1'
_symmetry_Int_Tables_number      154
_space_group_name_Hall           'P 32 2"'
loop_
_symmetry_equiv_pos_site_id
_symmetry_equiv_pos_as_xyz
1 x,y,z
2 -y,x-y,2/3+z
3 -x+y,-x,1/3+z
4 y,x,-z
5 x-y,-y,1/3-z
6 -x,-x+y,2/3-z
_cell_length_a                   18.5561(4)
_cell_length_b                   18.5561(4)
_cell_length_c                   21.2628(5)
_cell_angle_alpha                90
_cell_angle_beta                 90
_cell_angle_gamma                120
_cell_volume                     6340.51
loop_
_atom_site_label
_atom_site_type_symbol
_atom_site_fract_x
_atom_site_fract_y
_atom_site_fract_z
Br1 Br 0.1648(2) 0.78871(17) 0.96488(15)
C1 C 0.2445(7) 0.5969(8) 0.8958(4)
C2 C 0.2906(7) 0.5626(8) 0.8748(4)
H1 H 0.3355 0.5674 0.8994
C3 C 0.2714(8) 0.5196(8) 0.8156(4)
C4 C 0.2046(7) 0.5142(8) 0.7827(4)
H2 H 0.1895 0.4850 0.7438
C5 C 0.1608(6) 0.5481(7) 0.8028(4)
C6 C 0.1800(6) 0.5909(7) 0.8597(4)
H3 H 0.1488 0.6158 0.8736
C7 C 0.0873(6) 0.5411(7) 0.7654(4)
C8 C 0.0353(6) 0.4680(7) 0.7318(4)
H4 H 0.0449 0.4223 0.7320
C9 C -0.0285(7) 0.4649(7) 0.6994(4)
H5 H -0.0625 0.4157 0.6760
C10 C 0.0010(7) 0.5928(8) 0.7302(4)
H6 H -0.0118 0.6364 0.7305
C11 C 0.0695(7) 0.6044(7) 0.7640(4)
H7 H 0.1035 0.6551 0.7857
C12 C 0.2820(8) 0.5774(10) 1.0226(4)
C13 C 0.3338(9) 0.6094(10) 1.0769(4)
H8 H 0.3620 0.6676 1.0846
C14 C 0.3441(11) 0.5599(12) 1.1175(6)
H9 H 0.3818 0.5826 1.1518
C15 C 0.2993(10) 0.4771(13) 1.1085(6)
H10 H 0.3016 0.4411 1.1392
C16 C 0.2508(10) 0.4432(11) 1.0565(5)
H11 H 0.2244 0.3852 1.0483
C17 C 0.2411(8) 0.4978(9) 1.0150(5)
H12 H 0.2033 0.4751 0.9808
C18 C 0.3561(6) 0.8188(7) 0.9404(6)
H13 H 0.3043 0.8174 0.9381
C19 C 0.4292(8) 0.8909(6) 0.9244(6)
H14 H 0.4274 0.9389 0.9112
C20 C 0.5050(6) 0.8928(7) 0.9278(6)
H15 H 0.5549 0.9421 0.9169
C21 C 0.5076(6) 0.8227(9) 0.9472(8)
H16 H 0.5594 0.8240 0.9496
C22 C 0.4345(8) 0.7505(7) 0.9632(8)
H17 H 0.4363 0.7026 0.9765
C23 C 0.3587(7) 0.7486(6) 0.9598(7)
P1 P 0.26405(18) 0.6487(2) 0.97325(10)
C24 C 0.2783(10) 0.3701(11) 0.8097(6)
C25 C 0.2459(13) 0.3492(13) 0.8722(7)
H18 H 0.2477 0.3904 0.8997
C26 C 0.2107(15) 0.2649(16) 0.8921(10)
H19 H 0.1880 0.2495 0.9332
C27 C 0.2093(16) 0.2077(16) 0.8539(13)
H20 H 0.1887 0.1530 0.8697
C28 C 0.2364(13) 0.2239(12) 0.7922(10)
H21 H 0.2309 0.1810 0.7648
C29 C 0.2705(11) 0.3023(13) 0.7731(8)
H22 H 0.2915 0.3142 0.7314
C30 C 0.4263(10) 0.5195(11) 0.8269(5)
C31 C 0.4814(10) 0.5996(14) 0.8158(6)
H23 H 0.4676 0.6283 0.7854
C32 C 0.5587(11) 0.6437(11) 0.8467(8)
H24 H 0.5974 0.6989 0.8340
C33 C 0.5779(11) 0.6091(11) 0.8931(8)
H25 H 0.6264 0.6389 0.9182
C34 C 0.5218(11) 0.5265(11) 0.9018(8)
H26 H 0.5372 0.4975 0.9307
C35 C 0.4434(11) 0.4796(11) 0.8726(7)
H27 H 0.4053 0.4237 0.8843
Cu1 Cu 0.15713(10) 0.66498(11) 1.00951(6)
N1 N -0.0483(5) 0.5247(6) 0.6972(3)
P2 P 0.3308(2) 0.4748(2) 0.78206(11)
Cu1E Cu -0.15713(10) 0.50785(15) 0.65716(6)
Cu1A Cu 0.33502(11) 0.49215(15) 0.67618(6)
N1E N 0.0483(5) 0.5730(8) 0.9695(3)
P2B P 0.1440(3) 0.6692(2) 1.11539(11)
C36 C 0.8616(12) 0.1636(11) 0.2088(13)
H28 H 0.8332 0.1434 0.1672
Cl1 Cl 0.8344(10) 0.2323(10) 0.2286(8)
Cl2 Cl 0.8186(11) 0.0774(9) 0.2512(9)
Cl3 Cl 0.9610(9) 0.2017(11) 0.1898(8)
C38 C 0.980(2) 0.2174(17) 0.9963(12)
H30 H 0.9195 0.1937 1.0060
Cl7 Cl 0.998(2) 0.1429(16) 1.0200(13)
Cl8 Cl 0.984(2) 0.234(2) 0.9194(11)
Cl9 Cl 1.025(2) 0.3028(16) 1.0401(12)
loop_
_geom_bond_atom_site_label_1
_geom_bond_atom_site_label_2
_geom_bond_site_symmetry_1
_geom_bond_site_symmetry_2
Br1 Cu1 1_555 1_555
C1 C2 1_555 1_555
C2 H1 1_555 1_555
C3 C2 1_555 1_555
C4 C3 1_555 1_555
H2 C4 1_555 1_555
C5 C4 1_555 1_555
C6 C1 1_555 1_555
H3 C6 1_555 1_555
C7 C5 1_555 1_555
C8 C7 1_555 1_555
H4 C8 1_555 1_555
C9 C8 1_555 1_555
H5 C9 1_555 1_555
C10 H6 1_555 1_555
C11 C7 1_555 1_555
H7 C11 1_555 1_555
C12 C13 1_555 1_555
C13 H8 1_555 1_555
C14 C13 1_555 1_555
H9 C14 1_555 1_555
C15 C14 1_555 1_555
H10 C15 1_555 1_555
C16 C15 1_555 1_555
H11 C16 1_555 1_555
C17 C12 1_555 1_555
H12 C17 1_555 1_555
C18 H13 1_555 1_555
C19 C18 1_555 1_555
H14 C19 1_555 1_555
C20 C19 1_555 1_555
H15 C20 1_555 1_555
C21 C20 1_555 1_555
H16 C21 1_555 1_555
C22 C21 1_555 1_555
H17 C22 1_555 1_555
C23 C18 1_555 1_555
P1 C1 1_555 1_555
C24 C25 1_555 1_555
C25 H18 1_555 1_555
C26 C25 1_555 1_555
H19 C26 1_555 1_555
C27 C26 1_555 1_555
H20 C27 1_555 1_555
C28 C27 1_555 1_555
H21 C28 1_555 1_555
C29 C24 1_555 1_555
H22 C29 1_555 1_555
C30 C31 1_555 1_555
C31 H23 1_555 1_555
C32 C31 1_555 1_555
H24 C32 1_555 1_555
C33 C32 1_555 1_555
H25 C33 1_555 1_555
C34 C33 1_555 1_555
H26 C34 1_555 1_555
C35 C30 1_555 1_555
H27 C35 1_555 1_555
C36 H28 1_555 1_555
Cl1 C36 1_555 1_555
Cl2 C36 1_555 1_555
Cl3 C36 1_555 1_555
C38 H30 1_555 1_555
Cl7 C38 1_555 1_555
Cl8 C38 1_555 1_555
Cl9 C38 1_555 1_555
Cu1 P1 1_555 1_555
N1 C9 1_555 1_555
P2 C3 1_555 1_555
Cu1E N1 1_555 1_555
Cu1A P2 1_555 1_555
N1E Cu1 1_555 1_555
P2B Cu1 1_555 1_555
C5 C6 1_555 1_555
C10 C11 1_555 1_555
C10 N1 1_555 1_555
C12 P1 1_555 1_555
C16 C17 1_555 1_555
C22 C23 1_555 1_555
C23 P1 1_555 1_555
C24 P2 1_555 1_555
C28 C29 1_555 1_555
C30 P2 1_555 1_555
C34 C35 1_555 1_555

#END
