
#######################################################################
#
#                 Cambridge Crystallographic Data Centre
#                                CCDC 
#
#######################################################################
#
# If this CIF has been generated from an entry in the Cambridge 
# Structural Database, then it will include bibliographic, chemical, 
# crystal, experimental, refinement or atomic coordinate data resulting 
# from the CCDC's data processing and validation procedures.
#
#######################################################################

data_MISQIQ05
_chemical_formula_moiety         '(H2 Al2 F2 N1 O6 P1 1-)n'
_symmetry_cell_setting           trigonal
_symmetry_space_group_name_H-M   'P 31 2 1'
_symmetry_Int_Tables_number      152
_space_group_name_Hall           'P 31 2"'
loop_
_symmetry_equiv_pos_site_id
_symmetry_equiv_pos_as_xyz
1 x,y,z
2 -y,x-y,1/3+z
3 -x+y,-x,2/3+z
4 y,x,-z
5 x-y,-y,2/3-z
6 -x,-x+y,1/3-z
_cell_length_a                   9.3421(14)
_cell_length_b                   9.3421(14)
_cell_length_c                   6.996(2)
_cell_angle_alpha                90
_cell_angle_beta                 90
_cell_angle_gamma                120
_cell_volume                     528.773
loop_
_atom_site_label
_atom_site_type_symbol
_atom_site_fract_x
_atom_site_fract_y
_atom_site_fract_z
N1 N 0.102(3) 1.0000 0.8333
P1 P 0.55059(12) 0.55059(12) 1.0000
O1 O 0.5734(3) 0.7216(3) 1.0409(3)
O2 O 0.4345(4) 0.4675(3) 0.8302(3)
Al1 Al 0.47892(12) 0.83800(11) 0.94364(12)
F1 F 0.6818(3) 1.0000 0.8333
F2 F 0.4317(3) 1.0000 0.8333
O3 O 0.2701(3) 0.6986(3) 1.0404(3)
H1 H 0.204(5) 0.652(5) 0.968(5)
O1C O 0.7216(3) 0.5734(3) 0.9591(3)
O2C O 0.4675(3) 0.4345(4) 1.1698(3)
Al1C Al 0.83800(11) 0.47892(12) 1.05636(12)
O3C O 0.6986(3) 0.2701(3) 0.9596(3)
H1C H 0.652(5) 0.204(5) 1.032(5)
O2A O 0.5325(3) 0.9670(5) 1.1635(3)
O2D O 0.9670(5) 0.5325(3) 0.8365(3)
Al1A Al 0.16200(11) 0.64092(16) 1.27697(12)
Al1B Al 0.35908(16) 0.52108(12) 0.61031(12)
Al1D Al 0.64092(16) 0.16200(11) 0.72303(12)
Al1D_2 Al 0.64092(16) 1.16200(11) 0.72303(12)
Al1E Al 0.52108(12) 0.35908(16) 1.38969(12)
F1A F 1.0000 0.6818(3) 1.1666
F2A F 1.0000 0.4317(3) 1.1666
O3B O 0.4285(4) 0.7299(3) 0.7071(3)
O3E O 0.7299(3) 0.4285(4) 1.2929(3)
loop_
_geom_bond_atom_site_label_1
_geom_bond_atom_site_label_2
_geom_bond_site_symmetry_1
_geom_bond_site_symmetry_2
P1 O1 1_555 1_555
O1 Al1 1_555 1_555
O2 P1 1_555 1_555
Al1 F1 1_555 1_555
F1 Al1D_2 1_555 1_555
F2 Al1 1_555 1_555
O3 Al1 1_555 1_555
H1 O3 1_555 1_555
O1C P1 1_555 1_555
O2C P1 1_555 1_555
Al1C O1C 1_555 1_555
O3C Al1C 1_555 1_555
H1C O3C 1_555 1_555
O2A Al1 1_555 1_555
O2D Al1C 1_555 1_555
Al1A O3 1_555 1_555
Al1B O2 1_555 1_555
Al1D O3C 1_555 1_555
Al1D_2 F2 1_555 1_555
Al1E O2C 1_555 1_555
F1A Al1C 1_555 1_555
F2A Al1C 1_555 1_555
O3B Al1 1_555 1_555
O3E Al1C 1_555 1_555
Al1B O3B 1_555 1_555
Al1E O3E 1_555 1_555

#END
