
#######################################################################
#
#                 Cambridge Crystallographic Data Centre
#                                CCDC 
#
#######################################################################
#
# If this CIF has been generated from an entry in the Cambridge 
# Structural Database, then it will include bibliographic, chemical, 
# crystal, experimental, refinement or atomic coordinate data resulting 
# from the CCDC's data processing and validation procedures.
#
#######################################################################

data_MISQIQ
_chemical_formula_moiety         '(H2 Al2 F2 N1 O6 P1 1-)n'
_symmetry_cell_setting           trigonal
_symmetry_space_group_name_H-M   'P 31 2 1'
_symmetry_Int_Tables_number      152
_space_group_name_Hall           'P 31 2"'
loop_
_symmetry_equiv_pos_site_id
_symmetry_equiv_pos_as_xyz
1 x,y,z
2 -y,x-y,1/3+z
3 -x+y,-x,2/3+z
4 y,x,-z
5 x-y,-y,2/3-z
6 -x,-x+y,1/3-z
_cell_length_a                   9.3415(5)
_cell_length_b                   9.3415(5)
_cell_length_c                   6.9955(8)
_cell_angle_alpha                90
_cell_angle_beta                 90
_cell_angle_gamma                120
_cell_volume                     528.668
loop_
_atom_site_label
_atom_site_type_symbol
_atom_site_fract_x
_atom_site_fract_y
_atom_site_fract_z
N1 N -0.0000 0.895(2) 0.1667
Al1 Al 0.16196(12) 0.52127(14) 0.05625(13)
P1 P 0.44930(13) 0.44930(13) 0.0000
F1 F -0.0000 0.3183(3) 0.1667
F2 F 0.0000 0.5686(3) 0.1667
O1 O 0.3018(3) 0.7302(3) -0.0401(3)
H1 H 0.3605 0.8310 0.0429
O2 O 0.2783(3) 0.4270(4) -0.0408(3)
O3 O 0.5325(3) 0.5658(4) 0.1691(3)
O2C O 0.4270(4) 0.2783(3) 0.0408(3)
O3C O 0.5658(4) 0.5325(3) -0.1691(3)
Al1C Al 0.52127(14) 0.16196(12) -0.05625(13)
O1C O 0.7302(3) 0.3018(3) 0.0401(3)
H1C H 0.8310 0.3605 -0.0429
Al1A Al 0.47873(14) 0.64069(18) 0.38958(13)
Al1B Al 0.35931(18) 0.83804(12) -0.27708(13)
Al1D Al 0.64069(18) 0.47873(14) -0.38958(13)
Al1E Al -0.16196(12) 0.35931(18) 0.27708(13)
Al1E_2 Al 0.83804(12) 0.35931(18) 0.27708(13)
F1B F 0.3183(3) 0.0000 -0.1666
F2B F 0.5686(3) 0.0000 -0.1666
O1A O 0.2698(3) 0.5716(4) 0.2932(3)
O1D O 0.5716(4) 0.2698(3) -0.2932(3)
O3B O 0.0333(5) 0.4675(3) -0.1642(3)
O3E O 0.4675(3) 0.0333(5) 0.1642(3)
loop_
_geom_bond_atom_site_label_1
_geom_bond_atom_site_label_2
_geom_bond_site_symmetry_1
_geom_bond_site_symmetry_2
Al1 F1 1_555 1_555
P1 O2 1_555 1_555
F1 Al1E 1_555 1_555
F2 Al1 1_555 1_555
O1 Al1 1_555 1_555
H1 O1 1_555 1_555
O2 Al1 1_555 1_555
O3 P1 1_555 1_555
O2C P1 1_555 1_555
O3C P1 1_555 1_555
Al1C O2C 1_555 1_555
O1C Al1C 1_555 1_555
H1C O1C 1_555 1_555
Al1A O3 1_555 1_555
Al1B O1 1_555 1_555
Al1D O3C 1_555 1_555
Al1E F2 1_555 1_555
Al1E_2 O1C 1_555 1_555
F1B Al1C 1_555 1_555
F2B Al1C 1_555 1_555
O1A Al1 1_555 1_555
O1D Al1C 1_555 1_555
O3B Al1 1_555 1_555
O3E Al1C 1_555 1_555
Al1A O1A 1_555 1_555
Al1D O1D 1_555 1_555

#END
