
#######################################################################
#
#                 Cambridge Crystallographic Data Centre
#                                CCDC 
#
#######################################################################
#
# If this CIF has been generated from an entry in the Cambridge 
# Structural Database, then it will include bibliographic, chemical, 
# crystal, experimental, refinement or atomic coordinate data resulting 
# from the CCDC's data processing and validation procedures.
#
#######################################################################

data_MISQIQ02
_chemical_formula_moiety         '(H2 Al2 F2 N1 O6 P1 1-)n'
_symmetry_cell_setting           trigonal
_symmetry_space_group_name_H-M   'P 31 2 1'
_symmetry_Int_Tables_number      152
_space_group_name_Hall           'P 31 2"'
loop_
_symmetry_equiv_pos_site_id
_symmetry_equiv_pos_as_xyz
1 x,y,z
2 -y,x-y,1/3+z
3 -x+y,-x,2/3+z
4 y,x,-z
5 x-y,-y,2/3-z
6 -x,-x+y,1/3-z
_cell_length_a                   9.3392(3)
_cell_length_b                   9.3392(3)
_cell_length_c                   6.9942(4)
_cell_angle_alpha                90
_cell_angle_beta                 90
_cell_angle_gamma                120
_cell_volume                     528.309
loop_
_atom_site_label
_atom_site_type_symbol
_atom_site_fract_x
_atom_site_fract_y
_atom_site_fract_z
N1 N -0.896(2) 0.0000 0.3333
P1 P -0.0000 0.44942(8) 0.1667
O1 O -0.1485(2) 0.2784(2) 0.1260(2)
O2 O -0.0327(2) 0.53317(19) 0.3364(2)
Al1 Al -0.35912(9) 0.16199(8) 0.22298(9)
F1 F -0.3178(2) 0.0000 0.3333
F2 F -0.5684(2) 0.0000 0.3333
O3 O -0.4289(2) 0.3013(2) 0.1268(2)
H1 H -0.4633 0.3510 0.2093
O1E O 0.1485(2) 0.4269(3) 0.2073(2)
O2E O 0.0327(2) 0.56587(28) -0.0031(2)
Al1D Al -0.52111(12) -0.16199(8) 0.44369(9)
O3D O -0.7302(3) -0.3013(2) 0.5399(2)
H1D H -0.8143 -0.3510 0.4574
O1D O -0.4269(3) -0.2784(2) 0.5407(2)
O2B O -0.43413(28) 0.0327(2) 0.0031(2)
O2C O -0.46683(19) -0.0327(2) 0.6636(2)
Al1A Al -0.16199(8) 0.47889(12) 0.55631(9)
Al1B Al -0.47889(12) 0.35912(9) -0.11035(9)
Al1C Al -0.83801(8) -0.35912(9) 0.77702(9)
Al1C_2 Al 0.16199(8) 0.64088(9) -0.22298(9)
Al1E Al 0.35912(9) 0.52111(12) 0.11035(9)
O3A O -0.3013(2) 0.2698(3) 0.4601(2)
O3E O -0.5711(2) -0.2698(3) 0.2065(2)
loop_
_geom_bond_atom_site_label_1
_geom_bond_atom_site_label_2
_geom_bond_site_symmetry_1
_geom_bond_site_symmetry_2
P1 O1 1_555 1_555
O1 Al1 1_555 1_555
O2 P1 1_555 1_555
Al1 F1 1_555 1_555
F1 Al1D 1_555 1_555
F2 Al1 1_555 1_555
O3 Al1 1_555 1_555
H1 O3 1_555 1_555
O1E P1 1_555 1_555
O2E P1 1_555 1_555
Al1D F2 1_555 1_555
O3D Al1D 1_555 1_555
H1D O3D 1_555 1_555
O1D Al1D 1_555 1_555
O2B Al1 1_555 1_555
O2C Al1D 1_555 1_555
Al1A O2 1_555 1_555
Al1B O3 1_555 1_555
Al1C O3D 1_555 1_555
Al1C_2 O2E 1_555 1_555
Al1E O1E 1_555 1_555
O3A Al1 1_555 1_555
O3E Al1D 1_555 1_555
Al1A O3A 1_555 1_555

#END
