
#######################################################################
#
#                 Cambridge Crystallographic Data Centre
#                                CCDC 
#
#######################################################################
#
# If this CIF has been generated from an entry in the Cambridge 
# Structural Database, then it will include bibliographic, chemical, 
# crystal, experimental, refinement or atomic coordinate data resulting 
# from the CCDC's data processing and validation procedures.
#
#######################################################################

data_GELVEZ
_chemical_formula_moiety         '(C7 H6 Mn1 O6)n'
_symmetry_cell_setting           trigonal
_symmetry_space_group_name_H-M   'P 32 2 1'
_symmetry_Int_Tables_number      154
_space_group_name_Hall           'P 32 2"'
loop_
_symmetry_equiv_pos_site_id
_symmetry_equiv_pos_as_xyz
1 x,y,z
2 -y,x-y,2/3+z
3 -x+y,-x,1/3+z
4 x-y,-y,1/3-z
5 -x,-x+y,2/3-z
6 y,x,-z
_cell_length_a                   9.063(2)
_cell_length_b                   9.063(2)
_cell_length_c                   10.947(2)
_cell_angle_alpha                90
_cell_angle_beta                 90
_cell_angle_gamma                120
_cell_volume                     778.699
loop_
_atom_site_label
_atom_site_type_symbol
_atom_site_fract_x
_atom_site_fract_y
_atom_site_fract_z
Mn1 Mn 0.97221(6) 1.0000 0.6667
O1 O 0.8794(3) 0.8794(3) 0.5000
C1 C 0.2613(4) 0.2613(4) 0.5000
O2 O 0.6929(3) 0.7895(3) 0.70031(19)
H1 H 0.630(6) 0.773(6) 0.750(4)
C2 C 0.7329(4) 0.7329(4) 0.5000
O3 O 0.2188(2) 0.1733(3) 0.59677(18)
C3 C 0.4788(4) 0.5242(4) 0.6051(2)
H2 H 0.403(6) 0.494(6) 0.668(4)
C4 C 0.6283(4) 0.6775(4) 0.6041(2)
C5 C 0.4254(4) 0.4254(4) 0.5000
Mn1A Mn 1.0000 0.97221(6) 0.3334
Mn1_2 Mn -0.02779(6) 0.0000 0.6667
Mn1A_2 Mn -0.0000 -0.02779(6) 0.3334
O1B O 1.0000(4) 1.1206(3) 0.8333
O2E O 0.7895(3) 0.6929(3) 0.29969(19)
O2C O 0.9034(4) 1.2105(3) 0.63302(19)
H1E H 0.773(6) 0.630(6) 0.250(4)
H1C H 0.857(8) 1.227(6) 0.583(4)
O3E O 0.1733(3) 0.2188(2) 0.40323(18)
O3_2 O 1.2188(2) 1.1733(3) 0.59677(18)
O3C O 1.0455(4) 0.8267(3) 0.73656(18)
C3E C 0.5242(4) 0.4788(4) 0.3949(2)
H2E H 0.494(6) 0.403(6) 0.332(4)
C4E C 0.6775(4) 0.6283(4) 0.3959(2)
O4 O 0.2902(7) 0.8211(7) 0.5772(3)
H3 H 0.373(5) 0.902(5) 0.555(6)
H4 H 0.243(7) 0.847(8) 0.631(5)
loop_
_geom_bond_atom_site_label_1
_geom_bond_atom_site_label_2
_geom_bond_site_symmetry_1
_geom_bond_site_symmetry_2
Mn1 O1 1_555 1_555
O1 C2 1_555 1_555
C1 O3 1_555 1_555
O2 Mn1 1_555 1_555
H1 O2 1_555 1_555
C2 C4 1_555 1_555
O3 Mn1_2 1_555 1_555
C3 H2 1_555 1_555
C4 O2 1_555 1_555
C5 C1 1_555 1_555
O4 H3 1_555 1_555
H4 O4 1_555 1_555
Mn1A O1 1_555 1_555
Mn1A_2 O3E 1_555 1_555
O1B Mn1 1_555 1_555
O2E Mn1A 1_555 1_555
O2C Mn1 1_555 1_555
H1E O2E 1_555 1_555
H1C O2C 1_555 1_555
O3E C1 1_555 1_555
O3_2 Mn1 1_555 1_555
O3C Mn1 1_555 1_555
C3E C5 1_555 1_555
H2E C3E 1_555 1_555
C4E C2 1_555 1_555
C3 C4 1_555 1_555
C3 C5 1_555 1_555
O2E C4E 1_555 1_555
C3E C4E 1_555 1_555

#END
