
#######################################################################
#
#                 Cambridge Crystallographic Data Centre
#                                CCDC 
#
#######################################################################
#
# If this CIF has been generated from an entry in the Cambridge 
# Structural Database, then it will include bibliographic, chemical, 
# crystal, experimental, refinement or atomic coordinate data resulting 
# from the CCDC's data processing and validation procedures.
#
#######################################################################

data_NERTAH
_chemical_formula_moiety         '(C68 H92 Cu6 N12 O26 P8)n'
_symmetry_cell_setting           monoclinic
_symmetry_space_group_name_H-M   'P 21/c'
_symmetry_Int_Tables_number      14
_space_group_name_Hall           '-P 2ybc'
loop_
_symmetry_equiv_pos_site_id
_symmetry_equiv_pos_as_xyz
1 x,y,z
2 -x,1/2+y,1/2-z
3 -x,-y,-z
4 x,1/2-y,1/2+z
_cell_length_a                   23.288(2)
_cell_length_b                   9.5700(7)
_cell_length_c                   24.207(2)
_cell_angle_alpha                90
_cell_angle_beta                 105.705(9)
_cell_angle_gamma                90
_cell_volume                     5193.52
loop_
_atom_site_label
_atom_site_type_symbol
_atom_site_fract_x
_atom_site_fract_y
_atom_site_fract_z
Cu1 Cu 0.26226(5) -0.95725(13) 0.48279(5)
Cu2 Cu 0.26191(5) -0.56352(13) 0.57542(5)
Cu3 Cu 0.27396(5) -1.35362(14) 0.37970(5)
P1 P 0.18923(10) -0.8193(3) 0.56402(10)
P2 P 0.21636(10) -0.2941(3) 0.51479(9)
P3 P 0.33838(10) -1.0815(2) 0.40345(9)
P4 P 0.31044(9) -1.6030(2) 0.45502(9)
N1 N 0.1734(3) -0.5506(7) 0.5306(3)
N2 N 0.3595(3) -1.3518(8) 0.4388(3)
N3 N 0.3341(3) -0.9788(7) 0.5533(3)
N4 N 0.6535(3) -1.0598(7) 0.8737(3)
N5 N 0.1909(3) -0.9245(7) 0.4149(3)
N6 N -0.1893(3) -0.8599(8) 0.1658(3)
O1 O 0.2420(2) -0.7393(6) 0.6037(2)
O2 O 0.2093(3) -0.9435(6) 0.5336(2)
O3 O 0.1454(3) -0.8698(6) 0.5944(3)
O4 O 0.2670(2) -0.3646(6) 0.5627(2)
O5 O 0.2368(2) -0.2130(6) 0.4712(2)
O6 O 0.1788(2) -0.1988(6) 0.5457(3)
O7 O 0.2847(2) -1.1623(6) 0.3633(2)
O8 O 0.3166(2) -0.9559(6) 0.4335(2)
O9 O 0.3846(3) -1.0388(6) 0.3750(3)
O10 O 0.2634(2) -1.5428(6) 0.4032(2)
O11 O 0.3534(3) -1.7064(6) 0.4340(2)
O12 O 0.2865(2) -1.6704(6) 0.4998(2)
O13 O 0.3021(3) -1.4129(8) 0.2940(3)
C1 C 0.1573(4) -0.6918(10) 0.5070(4)
H1 H 0.1734 -0.7077 0.4737
H2 H 0.1134 -0.7019 0.4942
C2 C 0.1698(4) -0.4424(10) 0.4839(4)
H3 H 0.128 -0.4117 0.4681
H4 H 0.1838 -0.4834 0.4523
C3 C 0.1384(4) -0.5041(10) 0.5736(4)
H5 H 0.1349 -0.5854 0.5978
H6 H 0.1622 -0.4321 0.5992
C4 C 0.0766(4) -0.4460(11) 0.5475(4)
H7 H 0.06 -0.4194 0.5795
H8 H 0.0814 -0.3585 0.5273
C5 C 0.0306(4) -0.5321(10) 0.5067(4)
H9 H 0.0293 -0.626 0.5235
H10 H 0.0423 -0.5438 0.4706
C6 C 0.3674(4) -1.2079(8) 0.4614(4)
H11 H 0.4103 -1.1897 0.4791
H12 H 0.3461 -1.1969 0.4913
C7 C 0.3555(4) -1.4532(9) 0.4844(4)
H13 H 0.338 -1.4059 0.5124
H14 H 0.3961 -1.4848 0.5051
C8 C 0.4061(3) -1.3910(8) 0.4082(3)
H15 H 0.3966 -1.3415 0.3709
H16 H 0.4027 -1.4924 0.3999
C9 C 0.4708(4) -1.3590(10) 0.4404(4)
H17 H 0.4958 -1.3889 0.4153
H18 H 0.4745 -1.2561 0.4439
C10 C 0.4987(4) -1.4198(9) 0.4996(4)
H19 H 0.4754 -1.3882 0.526
H20 H 0.5397 -1.3826 0.5142
C11 C 0.3884(4) -0.9388(9) 0.5541(4)
H21 H 0.3936 -0.8955 0.5204
C12 C 0.4378(4) -0.9546(9) 0.5990(4)
H22 H 0.4754 -0.9226 0.5958
C13 C 0.4337(4) -1.0163(10) 0.6491(4)
C14 C 0.3753(4) -1.0608(10) 0.6493(4)
H23 H 0.369 -1.104 0.6826
C15 C 0.3283(4) -1.0416(10) 0.6019(4)
H24 H 0.2899 -1.0734 0.6029
C16 C 0.6322(4) -1.1749(10) 0.8419(4)
H25 H 0.6565 -1.2555 0.844
C17 C 0.5740(4) -1.1736(10) 0.8058(4)
H26 H 0.5596 -1.2542 0.7835
C18 C 0.5381(4) -1.0639(9) 0.8016(4)
C19 C 0.5599(4) -0.9462(9) 0.8349(4)
H27 H 0.5362 -0.8648 0.8334
C20 C 0.6162(4) -0.9530(9) 0.8693(4)
H28 H 0.6304 -0.8737 0.8926
C21 C 0.4875(4) -1.0346(10) 0.6993(4)
H29 H 0.5125 -0.95 0.7019
H30 H 0.5108 -1.1142 0.6907
C22 C 0.4774(4) -1.0601(10) 0.7589(4)
H31 H 0.4529 -0.984 0.7686
H32 H 0.4563 -1.1498 0.7593
C23 C 0.1936(4) -0.8593(9) 0.3657(4)
H33 H 0.2318 -0.8333 0.3621
C24 C 0.1450(4) -0.8285(11) 0.3209(4)
H34 H 0.1502 -0.7924 0.286
C25 C 0.0877(4) -0.8510(10) 0.3273(4)
C26 C 0.0843(4) -0.9219(11) 0.3771(4)
H35 H 0.0462 -0.9442 0.382
C27 C 0.1347(4) -0.9600(10) 0.4191(4)
H36 H 0.1308 -1.0115 0.4514
C28 C -0.1474(5) -0.7689(11) 0.1615(4)
H37 H -0.1582 -0.688 0.1382
C29 C -0.0875(4) -0.7916(11) 0.1907(5)
H38 H -0.0582 -0.7278 0.1855
C30 C -0.0702(4) -0.9024(11) 0.2264(4)
C31 C -0.1141(4) -0.9912(10) 0.2309(4)
H39 H -0.1045 -1.0687 0.2563
C32 C -0.1711(4) -0.9719(10) 0.2001(4)
H40 H -0.1999 -1.0402 0.2026
C33 C -0.0058(4) -0.9375(11) 0.2597(4)
H41 H 0.0136 -0.989 0.2342
H42 H -0.0064 -0.9993 0.2924
C34 C 0.0309(4) -0.8067(11) 0.2826(4)
H43 H 0.0412 -0.7569 0.2507
H44 H 0.0075 -0.7427 0.3001
Cu1B Cu -0.26226(5) -0.04275(13) 0.51721(5)
Cu1_2 Cu 0.26226(5) 0.04275(13) 0.48279(5)
Cu1B_2 Cu -0.26226(5) -1.04275(13) 0.51721(5)
Cu1B_3 Cu 0.73774(5) -2.04275(13) 0.51721(5)
Cu1A Cu 0.73774(5) -0.45725(13) 1.01721(5)
Cu1A_2 Cu -0.26226(5) -1.45725(13) 0.01721(5)
Cu2B Cu -0.26191(5) -0.43648(13) 0.42458(5)
Cu2A Cu 0.73809(5) -1.06352(13) 0.92458(5)
Cu2_2 Cu 0.26191(5) -1.56352(13) 0.57542(5)
Cu2B_2 Cu 0.73809(5) -1.43648(13) 0.42458(5)
Cu3B Cu 0.72604(5) -1.64638(14) 0.62030(5)
Cu3A Cu -0.27396(5) -0.85362(14) 0.12030(5)
P1B P -0.18923(10) -0.1807(3) 0.43598(10)
P2B P -0.21636(10) -0.7059(3) 0.48521(9)
P3B P 0.66162(10) -1.9185(2) 0.59655(9)
P4B P 0.68956(9) -1.3970(2) 0.54498(9)
N1B N -0.1734(3) -0.4494(7) 0.4694(3)
N2B N 0.6405(3) -1.6482(8) 0.5612(3)
N3A N 0.6659(3) -0.4788(7) 0.9467(3)
N3B N -0.3341(3) -0.0212(7) 0.4467(3)
N4A N 0.3465(3) -0.5598(7) 0.6263(3)
N4C N -0.3465(3) -0.4402(7) 0.3737(3)
N5A N -0.1909(3) -1.4245(7) 0.0851(3)
N5B N -0.1909(3) -0.0755(7) 0.5851(3)
N6A N 0.1893(3) -1.3599(8) 0.3342(3)
N6C N 0.8107(3) -1.6401(8) 0.6658(3)
O1B O -0.2420(2) -0.2607(6) 0.3963(2)
O2B O -0.2093(3) -0.0565(6) 0.4664(2)
O3B O -0.1454(3) -0.1302(6) 0.4056(3)
O4B O -0.2670(2) -0.6354(6) 0.4373(2)
O5B O -0.2368(2) -0.7870(6) 0.5288(2)
O5_2 O 0.2368(2) -1.2130(6) 0.4712(2)
O5B_2 O -0.2368(2) 0.2130(6) 0.5288(2)
O6B O -0.1788(2) -0.8012(6) 0.4543(3)
O7B O 0.7153(2) -1.8377(6) 0.6367(2)
O8B O 0.6834(2) -2.0441(6) 0.5665(2)
O8B_2 O -0.3166(2) -0.0441(6) 0.5665(2)
O9B O 0.6154(3) -1.9612(6) 0.6250(3)
O10B O 0.7366(2) -1.4572(6) 0.5968(2)
O11B O 0.6466(3) -1.2936(6) 0.5660(2)
O12B O 0.7135(2) -1.3296(6) 0.5002(2)
O12_2 O 0.2865(2) -0.6704(6) 0.4998(2)
O12B_2 O -0.2865(2) -0.3296(6) 0.5002(2)
O13B O 0.6979(3) -1.5871(8) 0.7060(3)
C1B C -0.1573(4) -0.3082(10) 0.4930(4)
H1B H -0.1734 -0.2923 0.5263
H2B H -0.1134 -0.2981 0.5058
C2B C -0.1698(4) -0.5576(10) 0.5161(4)
H3B H -0.128 -0.5883 0.5319
H4B H -0.1838 -0.5166 0.5477
C3B C -0.1384(4) -0.4959(10) 0.4264(4)
H5B H -0.1349 -0.4146 0.4022
H6B H -0.1622 -0.5679 0.4008
C4B C -0.0766(4) -0.5540(11) 0.4525(4)
H7B H -0.06 -0.5806 0.4205
H8B H -0.0814 -0.6415 0.4727
C5B C -0.0306(4) -0.4679(10) 0.4933(4)
H9B H -0.0293 -0.374 0.4765
H10B H -0.0423 -0.4562 0.5294
C6B C 0.6326(4) -1.7921(8) 0.5386(4)
H11B H 0.5897 -1.8103 0.5209
H12B H 0.6539 -1.8031 0.5087
C7B C 0.6445(4) -1.5468(9) 0.5156(4)
H13B H 0.662 -1.5941 0.4876
H14B H 0.6039 -1.5152 0.4949
C8B C 0.5939(3) -1.6090(8) 0.5918(3)
H15B H 0.6034 -1.6585 0.6291
H16B H 0.5973 -1.5076 0.6001
C9B C 0.5292(4) -1.6410(10) 0.5596(4)
H17B H 0.5042 -1.6111 0.5847
H18B H 0.5255 -1.7439 0.5561
C10B C 0.5013(4) -1.5802(9) 0.5004(4)
H19B H 0.5246 -1.6118 0.474
H20B H 0.4603 -1.6174 0.4858
C11A C 0.6116(4) -0.4388(9) 0.9459(4)
H21A H 0.6064 -0.3955 0.9796
C12A C 0.5622(4) -0.4546(9) 0.9010(4)
H22A H 0.5246 -0.4226 0.9042
C13A C 0.5663(4) -0.5163(10) 0.8509(4)
C14A C 0.6247(4) -0.5608(10) 0.8507(4)
H23A H 0.631 -0.604 0.8174
C15A C 0.6717(4) -0.5416(10) 0.8981(4)
H24A H 0.7101 -0.5734 0.8971
C16A C 0.3678(4) -0.6749(10) 0.6581(4)
H25A H 0.3435 -0.7555 0.656
C17A C 0.4260(4) -0.6736(10) 0.6942(4)
H26A H 0.4404 -0.7542 0.7165
C18A C 0.4619(4) -0.5639(9) 0.6984(4)
C19A C 0.4401(4) -0.4462(9) 0.6651(4)
H27A H 0.4638 -0.3648 0.6666
C20A C 0.3838(4) -0.4530(9) 0.6307(4)
H28A H 0.3696 -0.3737 0.6074
C21A C 0.5125(4) -0.5346(10) 0.8007(4)
H29A H 0.4875 -0.45 0.7981
H30A H 0.4892 -0.6142 0.8093
C22A C 0.5226(4) -0.5601(10) 0.7411(4)
H31A H 0.5471 -0.484 0.7314
H32A H 0.5437 -0.6498 0.7407
C23A C -0.1936(4) -1.3593(9) 0.1343(4)
H33A H -0.2318 -1.3333 0.1379
C24A C -0.1450(4) -1.3285(11) 0.1791(4)
H34A H -0.1502 -1.2924 0.214
C25A C -0.0877(4) -1.3510(10) 0.1727(4)
C26A C -0.0843(4) -1.4219(11) 0.1229(4)
H35A H -0.0462 -1.4442 0.118
C27A C -0.1347(4) -1.4600(10) 0.0809(4)
H36A H -0.1308 -1.5115 0.0486
C28A C 0.1474(5) -1.2689(11) 0.3385(4)
H37A H 0.1582 -1.188 0.3618
C29A C 0.0875(4) -1.2916(11) 0.3093(5)
H38A H 0.0582 -1.2278 0.3145
C30A C 0.0702(4) -1.4024(11) 0.2736(4)
C31A C 0.1141(4) -1.4912(10) 0.2691(4)
H39A H 0.1045 -1.5687 0.2437
C32A C 0.1711(4) -1.4719(10) 0.2999(4)
H40A H 0.1999 -1.5402 0.2974
C33A C 0.0058(4) -1.4375(11) 0.2403(4)
H41A H -0.0136 -1.489 0.2658
H42A H 0.0064 -1.4993 0.2076
C34A C -0.0309(4) -1.3067(11) 0.2174(4)
H43A H -0.0412 -1.2569 0.2493
H44A H -0.0075 -1.2427 0.1999
loop_
_geom_bond_atom_site_label_1
_geom_bond_atom_site_label_2
_geom_bond_site_symmetry_1
_geom_bond_site_symmetry_2
Cu1 N3 1_555 1_555
Cu2 N1 1_555 1_555
Cu3 N2 1_555 1_555
P1 O1 1_555 1_555
P2 O4 1_555 1_555
P3 O7 1_555 1_555
P4 O10 1_555 1_555
N1 C1 1_555 1_555
N2 C6 1_555 1_555
N3 C11 1_555 1_555
N4 C16 1_555 1_555
N5 Cu1 1_555 1_555
N6 C28 1_555 1_555
O1 Cu2 1_555 1_555
O2 Cu1 1_555 1_555
O3 P1 1_555 1_555
O4 Cu2 1_555 1_555
O5 P2 1_555 1_555
O6 P2 1_555 1_555
O7 Cu3 1_555 1_555
O8 Cu1 1_555 1_555
O9 P3 1_555 1_555
O10 Cu3 1_555 1_555
O11 P4 1_555 1_555
O12 P4 1_555 1_555
O13 Cu3 1_555 1_555
C1 P1 1_555 1_555
H1 C1 1_555 1_555
H2 C1 1_555 1_555
C2 P2 1_555 1_555
H3 C2 1_555 1_555
H4 C2 1_555 1_555
C3 N1 1_555 1_555
H5 C3 1_555 1_555
H6 C3 1_555 1_555
C4 C3 1_555 1_555
H7 C4 1_555 1_555
H8 C4 1_555 1_555
C5 C4 1_555 1_555
H9 C5 1_555 1_555
H10 C5 1_555 1_555
C6 P3 1_555 1_555
H11 C6 1_555 1_555
H12 C6 1_555 1_555
C7 P4 1_555 1_555
H13 C7 1_555 1_555
H14 C7 1_555 1_555
C8 N2 1_555 1_555
H15 C8 1_555 1_555
H16 C8 1_555 1_555
C9 C8 1_555 1_555
H17 C9 1_555 1_555
H18 C9 1_555 1_555
C10 C9 1_555 1_555
H19 C10 1_555 1_555
H20 C10 1_555 1_555
C11 H21 1_555 1_555
C12 C11 1_555 1_555
H22 C12 1_555 1_555
C13 C12 1_555 1_555
C14 C13 1_555 1_555
H23 C14 1_555 1_555
C15 N3 1_555 1_555
H24 C15 1_555 1_555
C16 H25 1_555 1_555
C17 C16 1_555 1_555
H26 C17 1_555 1_555
C18 C17 1_555 1_555
C19 C18 1_555 1_555
H27 C19 1_555 1_555
C20 N4 1_555 1_555
H28 C20 1_555 1_555
C21 C13 1_555 1_555
H29 C21 1_555 1_555
H30 C21 1_555 1_555
C22 C18 1_555 1_555
H31 C22 1_555 1_555
H32 C22 1_555 1_555
C23 N5 1_555 1_555
H33 C23 1_555 1_555
C24 C23 1_555 1_555
H34 C24 1_555 1_555
C25 C24 1_555 1_555
C26 C25 1_555 1_555
H35 C26 1_555 1_555
C27 N5 1_555 1_555
H36 C27 1_555 1_555
C28 H37 1_555 1_555
C29 C28 1_555 1_555
H38 C29 1_555 1_555
C30 C29 1_555 1_555
C31 C30 1_555 1_555
H39 C31 1_555 1_555
C32 N6 1_555 1_555
H40 C32 1_555 1_555
C33 C30 1_555 1_555
H41 C33 1_555 1_555
H42 C33 1_555 1_555
C34 C25 1_555 1_555
H43 C34 1_555 1_555
H44 C34 1_555 1_555
Cu1B N3B 1_555 1_555
Cu1_2 O5 1_555 1_555
Cu1B_2 O5B 1_555 1_555
Cu1B_3 O8B 1_555 1_555
Cu1A N3A 1_555 1_555
Cu1A_2 N5A 1_555 1_555
Cu2B N1B 1_555 1_555
Cu2A N4 1_555 1_555
Cu2_2 O12 1_555 1_555
Cu2B_2 O12B 1_555 1_555
Cu3B N2B 1_555 1_555
Cu3A N6 1_555 1_555
P1B O1B 1_555 1_555
P2B O4B 1_555 1_555
P3B O7B 1_555 1_555
P4B O10B 1_555 1_555
N1B C1B 1_555 1_555
N2B C6B 1_555 1_555
N3A C11A 1_555 1_555
N4A Cu2 1_555 1_555
N4C Cu2B 1_555 1_555
N5A C23A 1_555 1_555
N5B Cu1B 1_555 1_555
N6A Cu3 1_555 1_555
N6C Cu3B 1_555 1_555
O1B Cu2B 1_555 1_555
O2B Cu1B 1_555 1_555
O3B P1B 1_555 1_555
O4B Cu2B 1_555 1_555
O5B P2B 1_555 1_555
O5_2 Cu1 1_555 1_555
O5B_2 Cu1B 1_555 1_555
O6B P2B 1_555 1_555
O7B Cu3B 1_555 1_555
O8B P3B 1_555 1_555
O8B_2 Cu1B 1_555 1_555
O9B P3B 1_555 1_555
O10B Cu3B 1_555 1_555
O11B P4B 1_555 1_555
O12B P4B 1_555 1_555
O12_2 Cu2 1_555 1_555
O12B_2 Cu2B 1_555 1_555
O13B Cu3B 1_555 1_555
C1B P1B 1_555 1_555
H1B C1B 1_555 1_555
H2B C1B 1_555 1_555
C2B P2B 1_555 1_555
H3B C2B 1_555 1_555
H4B C2B 1_555 1_555
C3B N1B 1_555 1_555
H5B C3B 1_555 1_555
H6B C3B 1_555 1_555
C4B C3B 1_555 1_555
H7B C4B 1_555 1_555
H8B C4B 1_555 1_555
C5B C5 1_555 1_555
H9B C5B 1_555 1_555
H10B C5B 1_555 1_555
C6B P3B 1_555 1_555
H11B C6B 1_555 1_555
H12B C6B 1_555 1_555
C7B P4B 1_555 1_555
H13B C7B 1_555 1_555
H14B C7B 1_555 1_555
C8B N2B 1_555 1_555
H15B C8B 1_555 1_555
H16B C8B 1_555 1_555
C9B C8B 1_555 1_555
H17B C9B 1_555 1_555
H18B C9B 1_555 1_555
C10B C10 1_555 1_555
H19B C10B 1_555 1_555
H20B C10B 1_555 1_555
C11A H21A 1_555 1_555
C12A C11A 1_555 1_555
H22A C12A 1_555 1_555
C13A C12A 1_555 1_555
C14A C13A 1_555 1_555
H23A C14A 1_555 1_555
C15A N3A 1_555 1_555
H24A C15A 1_555 1_555
C16A N4A 1_555 1_555
H25A C16A 1_555 1_555
C17A C16A 1_555 1_555
H26A C17A 1_555 1_555
C18A C17A 1_555 1_555
C19A C18A 1_555 1_555
H27A C19A 1_555 1_555
C20A N4A 1_555 1_555
H28A C20A 1_555 1_555
C21A C13A 1_555 1_555
H29A C21A 1_555 1_555
H30A C21A 1_555 1_555
C22A C18A 1_555 1_555
H31A C22A 1_555 1_555
H32A C22A 1_555 1_555
C23A H33A 1_555 1_555
C24A C23A 1_555 1_555
H34A C24A 1_555 1_555
C25A C24A 1_555 1_555
C26A C25A 1_555 1_555
H35A C26A 1_555 1_555
C27A N5A 1_555 1_555
H36A C27A 1_555 1_555
C28A N6A 1_555 1_555
H37A C28A 1_555 1_555
C29A C28A 1_555 1_555
H38A C29A 1_555 1_555
C30A C29A 1_555 1_555
C31A C30A 1_555 1_555
H39A C31A 1_555 1_555
C32A N6A 1_555 1_555
H40A C32A 1_555 1_555
C33A C30A 1_555 1_555
H41A C33A 1_555 1_555
H42A C33A 1_555 1_555
C34A C25A 1_555 1_555
H43A C34A 1_555 1_555
H44A C34A 1_555 1_555
P1 O2 1_555 1_555
P3 O8 1_555 1_555
N1 C2 1_555 1_555
N2 C7 1_555 1_555
C14 C15 1_555 1_555
C19 C20 1_555 1_555
C21 C22 1_555 1_555
C26 C27 1_555 1_555
C31 C32 1_555 1_555
C33 C34 1_555 1_555
P1B O2B 1_555 1_555
N1B C2B 1_555 1_555
N2B C7B 1_555 1_555
C4B C5B 1_555 1_555
C9B C10B 1_555 1_555
C14A C15A 1_555 1_555
C19A C20A 1_555 1_555
C21A C22A 1_555 1_555
C26A C27A 1_555 1_555
C31A C32A 1_555 1_555
C33A C34A 1_555 1_555

#END
