
#######################################################################
#
#                 Cambridge Crystallographic Data Centre
#                                CCDC 
#
#######################################################################
#
# If this CIF has been generated from an entry in the Cambridge 
# Structural Database, then it will include bibliographic, chemical, 
# crystal, experimental, refinement or atomic coordinate data resulting 
# from the CCDC's data processing and validation procedures.
#
#######################################################################

data_JOKXAI10
_chemical_formula_moiety         '(C14 H20 Cd2 N12 Ni2)n'
_symmetry_cell_setting           monoclinic
_symmetry_space_group_name_H-M   'A 1 1 2/a'
_symmetry_Int_Tables_number      15
_space_group_name_Hall           '-A 2a'
loop_
_symmetry_equiv_pos_site_id
_symmetry_equiv_pos_as_xyz
1 x,y,z
2 x,1/2+y,1/2+z
3 1/2-x,-y,z
4 1/2-x,1/2-y,1/2+z
5 -x,-y,-z
6 -x,1/2-y,1/2-z
7 1/2+x,y,-z
8 1/2+x,1/2+y,1/2-z
_cell_length_a                   14.075(1)
_cell_length_b                   27.026(3)
_cell_length_c                   7.612(1)
_cell_angle_alpha                90
_cell_angle_beta                 90
_cell_angle_gamma                89.82(1)
_cell_volume                     2895.52
loop_
_atom_site_label
_atom_site_type_symbol
_atom_site_fract_x
_atom_site_fract_y
_atom_site_fract_z
Cd1 Cd 0.28403(2) 0.13462(1) -0.12613(4)
Ni1 Ni 0.25000 0.00000 0.36530(9)
Ni2 Ni 0.50000 0.25000 0.25000
N1 N 0.2614(3) 0.0786(1) 0.0868(5)
N2 N 0.2592(3) 0.0786(1) 0.6447(5)
N3 N 0.3325(3) 0.1974(2) 0.0884(6)
N4 N 0.1327(3) 0.1692(1) -0.1330(6)
N5 N 0.3242(3) 0.1932(2) -0.3484(6)
N6 N 0.4508(3) 0.1247(1) -0.1686(5)
C1 C 0.2563(3) 0.0487(1) 0.1925(5)
C2 C 0.2555(3) 0.0486(2) 0.5384(5)
C3 C 0.3955(3) 0.2174(2) 0.1521(6)
C4 C 0.0812(3) 0.1995(2) -0.1766(6)
C5 C 0.4262(5) 0.1920(4) -0.371(1)
C6 C 0.4829(5) 0.1586(4) -0.304(1)
C7 C 0.5888(4) 0.1590(3) -0.3389(9)
N1B N 0.2386(3) -0.0786(1) 0.0868(5)
C1B C 0.2437(3) -0.0487(1) 0.1925(5)
N2B N 0.2408(3) -0.0786(1) 0.6447(5)
C2B C 0.2445(3) -0.0486(2) 0.5384(5)
Cd1B Cd 0.21597(2) -0.13462(1) -0.12613(4)
N3B N 0.1675(3) -0.1974(2) 0.0884(6)
C3B C 0.1045(3) -0.2174(2) 0.1521(6)
N4B N 0.3673(3) -0.1692(1) -0.1330(6)
C4B C 0.4188(3) -0.1995(2) -0.1766(6)
N5B N 0.1758(3) -0.1932(2) -0.3484(6)
N6B N 0.0492(3) -0.1247(1) -0.1686(5)
C5B C 0.0738(5) -0.1920(4) -0.371(1)
C6B C 0.0171(5) -0.1586(4) -0.304(1)
C7B C -0.0888(4) -0.1590(3) -0.3389(9)
N2_2 N 0.2592(3) 0.0786(1) -0.3553(5)
C3E C 0.6045(3) 0.2826(2) 0.3479(6)
C4C C 0.4188(3) 0.3005(2) 0.3234(6)
C4F C 0.5812(3) 0.1995(2) 0.1766(6)
Cd1_2 Cd 0.28403(2) 0.13462(1) 0.87387(4)
Ni2C Ni -0.00000 0.25000 -0.25000
Cd1B_2 Cd 0.21597(2) -0.13462(1) 0.87387(4)
N2B_2 N 0.2408(3) -0.0786(1) -0.3553(5)
Ni2B Ni 0.00000 -0.25000 0.25000
Ni2A Ni 0.50000 -0.25000 -0.25000
loop_
_geom_bond_atom_site_label_1
_geom_bond_atom_site_label_2
_geom_bond_site_symmetry_1
_geom_bond_site_symmetry_2
Cd1 N1 1_555 1_555
Ni1 C1 1_555 1_555
Ni2 C3 1_555 1_555
N1 C1 1_555 1_555
N2 C2 1_555 1_555
N3 Cd1 1_555 1_555
N4 Cd1 1_555 1_555
N5 Cd1 1_555 1_555
N6 Cd1 1_555 1_555
C2 Ni1 1_555 1_555
C3 N3 1_555 1_555
C4 N4 1_555 1_555
C5 N5 1_555 1_555
C6 N6 1_555 1_555
C7 C6 1_555 1_555
N1B C1B 1_555 1_555
C1B Ni1 1_555 1_555
N2B C2B 1_555 1_555
C2B Ni1 1_555 1_555
Cd1B N1B 1_555 1_555
N3B Cd1B 1_555 1_555
C3B N3B 1_555 1_555
N4B Cd1B 1_555 1_555
C4B N4B 1_555 1_555
N5B Cd1B 1_555 1_555
N6B Cd1B 1_555 1_555
C5B N5B 1_555 1_555
C6B N6B 1_555 1_555
C7B C6B 1_555 1_555
N2_2 Cd1 1_555 1_555
C3E Ni2 1_555 1_555
C4C Ni2 1_555 1_555
C4F Ni2 1_555 1_555
Cd1_2 N2 1_555 1_555
Ni2C C4 1_555 1_555
Cd1B_2 N2B 1_555 1_555
N2B_2 Cd1B 1_555 1_555
Ni2B C3B 1_555 1_555
Ni2A C4B 1_555 1_555
C5 C6 1_555 1_555
C5B C6B 1_555 1_555

#END
