
#######################################################################
#
#                 Cambridge Crystallographic Data Centre
#                                CCDC 
#
#######################################################################
#
# If this CIF has been generated from an entry in the Cambridge 
# Structural Database, then it will include bibliographic, chemical, 
# crystal, experimental, refinement or atomic coordinate data resulting 
# from the CCDC's data processing and validation procedures.
#
#######################################################################

data_JOKYIR10
_chemical_formula_moiety         '(C14 H20 Cd2 N12 Ni2)n'
_symmetry_cell_setting           orthorhombic
_symmetry_space_group_name_H-M   'P n m a'
_symmetry_Int_Tables_number      62
_space_group_name_Hall           '-P 2ac 2n'
loop_
_symmetry_equiv_pos_site_id
_symmetry_equiv_pos_as_xyz
1 x,y,z
2 1/2-x,1/2+y,1/2+z
3 x,1/2-y,z
4 1/2-x,-y,1/2+z
5 -x,-y,-z
6 1/2+x,1/2-y,1/2-z
7 -x,1/2+y,-z
8 1/2+x,y,1/2-z
_cell_length_a                   14.104(3)
_cell_length_b                   26.799(1)
_cell_length_c                   7.657(1)
_cell_angle_alpha                90
_cell_angle_beta                 90
_cell_angle_gamma                90
_cell_volume                     2894.14
loop_
_atom_site_label
_atom_site_type_symbol
_atom_site_fract_x
_atom_site_fract_y
_atom_site_fract_z
Cd1 Cd 0.21640(5) 0.11507(3) 0.1234(1)
Ni1 Ni 0.2464(1) 0.25000 -0.3855(3)
Ni2 Ni 0.00000 -0.00000 0.5000
N1 N 0.2410(8) 0.1716(4) -0.103(1)
N2 N 0.2414(8) 0.1711(3) -0.665(1)
N3 N 0.1654(7) 0.0527(4) 0.336(1)
N4 N 0.3686(7) 0.0807(4) 0.119(2)
N5 N 0.1756(8) 0.0560(4) -0.097(2)
N6 N 0.0521(7) 0.1275(4) 0.078(1)
C1 C 0.2435(8) 0.2009(3) -0.213(1)
C2 C 0.2454(9) 0.2013(4) -0.558(1)
C3 C 0.1041(8) 0.0328(4) 0.401(1)
C4 C 0.4183(8) 0.0502(4) 0.075(1)
C5 C 0.074(1) 0.0597(8) -0.126(3)
C6 C 0.020(1) 0.0940(8) -0.061(3)
C7 C -0.0869(9) 0.0943(7) -0.092(2)
N1B N 0.2410(8) 0.3284(4) -0.103(1)
C1B C 0.2435(8) 0.2991(3) -0.213(1)
N2B N 0.2414(8) 0.3289(3) -0.665(1)
C2B C 0.2454(9) 0.2987(4) -0.558(1)
Cd1B Cd 0.21640(5) 0.38493(3) 0.1234(1)
N3B N 0.1654(7) 0.4473(4) 0.336(1)
C3B C 0.1041(8) 0.4672(4) 0.401(1)
N4B N 0.3686(7) 0.4193(4) 0.119(2)
C4B C 0.4183(8) 0.4498(4) 0.075(1)
N5B N 0.1756(8) 0.4440(4) -0.097(2)
N6B N 0.0521(7) 0.3725(4) 0.078(1)
C5B C 0.074(1) 0.4403(8) -0.126(3)
C6B C 0.020(1) 0.4060(8) -0.061(3)
C7B C -0.0869(9) 0.4057(7) -0.092(2)
N2_2 N 0.2414(8) 0.1711(3) 0.335(1)
C3D C -0.1041(8) -0.0328(4) 0.599(1)
C4C C 0.0817(8) -0.0502(4) 0.575(1)
C4G C -0.0817(8) 0.0502(4) 0.425(1)
Cd1_2 Cd 0.21640(5) 0.11507(3) -0.8766(1)
Ni2C Ni 0.50000 0.00000 0.0000
Cd1B_2 Cd 0.21640(5) 0.38493(3) -0.8766(1)
N2B_2 N 0.2414(8) 0.3289(3) 0.335(1)
Ni2B Ni 0.00000 0.50000 0.5000
Ni2A Ni 0.50000 0.50000 0.0000
loop_
_geom_bond_atom_site_label_1
_geom_bond_atom_site_label_2
_geom_bond_site_symmetry_1
_geom_bond_site_symmetry_2
Cd1 N1 1_555 1_555
Ni1 C1 1_555 1_555
Ni2 C3 1_555 1_555
N1 C1 1_555 1_555
N2 C2 1_555 1_555
N3 Cd1 1_555 1_555
N4 Cd1 1_555 1_555
N5 Cd1 1_555 1_555
N6 Cd1 1_555 1_555
C2 Ni1 1_555 1_555
C3 N3 1_555 1_555
C4 N4 1_555 1_555
C5 N5 1_555 1_555
C6 N6 1_555 1_555
C7 C6 1_555 1_555
N1B C1B 1_555 1_555
C1B Ni1 1_555 1_555
N2B C2B 1_555 1_555
C2B Ni1 1_555 1_555
Cd1B N1B 1_555 1_555
N3B Cd1B 1_555 1_555
C3B N3B 1_555 1_555
N4B Cd1B 1_555 1_555
C4B N4B 1_555 1_555
N5B Cd1B 1_555 1_555
N6B Cd1B 1_555 1_555
C5B N5B 1_555 1_555
C6B N6B 1_555 1_555
C7B C6B 1_555 1_555
N2_2 Cd1 1_555 1_555
C3D Ni2 1_555 1_555
C4C Ni2 1_555 1_555
C4G Ni2 1_555 1_555
Cd1_2 N2 1_555 1_555
Ni2C C4 1_555 1_555
Cd1B_2 N2B 1_555 1_555
N2B_2 Cd1B 1_555 1_555
Ni2B C3B 1_555 1_555
Ni2A C4B 1_555 1_555
C5 C6 1_555 1_555
C5B C6B 1_555 1_555

#END
