
#######################################################################
#
#                 Cambridge Crystallographic Data Centre
#                                CCDC 
#
#######################################################################
#
# If this CIF has been generated from an entry in the Cambridge 
# Structural Database, then it will include bibliographic, chemical, 
# crystal, experimental, refinement or atomic coordinate data resulting 
# from the CCDC's data processing and validation procedures.
#
#######################################################################

data_KEXFIC10
_chemical_formula_moiety         '(C14 H20 Cd2 N12 Ni2)n'
_symmetry_cell_setting           orthorhombic
_symmetry_space_group_name_H-M   'P n m a'
_symmetry_Int_Tables_number      62
_space_group_name_Hall           '-P 2ac 2n'
loop_
_symmetry_equiv_pos_site_id
_symmetry_equiv_pos_as_xyz
1 x,y,z
2 1/2-x,1/2+y,1/2+z
3 x,1/2-y,z
4 1/2-x,-y,1/2+z
5 -x,-y,-z
6 1/2+x,1/2-y,1/2-z
7 -x,1/2+y,-z
8 1/2+x,y,1/2-z
_cell_length_a                   13.916(3)
_cell_length_b                   26.638(2)
_cell_length_c                   7.631(4)
_cell_angle_alpha                90
_cell_angle_beta                 90
_cell_angle_gamma                90
_cell_volume                     2828.77
loop_
_atom_site_label
_atom_site_type_symbol
_atom_site_fract_x
_atom_site_fract_y
_atom_site_fract_z
Cd1 Cd 0.21815(5) 0.11477(2) 0.13366(8)
Ni1 Ni 0.2436(1) 0.25000 -0.3709(2)
Ni2 Ni 0.00000 0.00000 0.50000
N1 N 0.2474(8) 0.1723(3) -0.088(1)
N2 N 0.2344(7) 0.1704(3) -0.647(1)
N3 N 0.1718(7) 0.0489(4) 0.337(1)
N4 N 0.3745(6) 0.0830(3) 0.129(1)
N5 N 0.1796(7) 0.0581(4) -0.097(1)
N6 N 0.0525(6) 0.1278(3) 0.081(1)
C1 C 0.2465(8) 0.2012(4) -0.196(1)
C2 C 0.2385(7) 0.2012(3) -0.542(1)
C3 C 0.1076(7) 0.0300(3) 0.402(1)
C4 C 0.4236(6) 0.0520(4) 0.080(1)
C5 C 0.077(1) 0.0603(8) -0.126(3)
C6 C 0.023(1) 0.0958(8) -0.061(2)
C7 C -0.0863(9) 0.0973(7) -0.104(2)
N1B N 0.2474(8) 0.3277(3) -0.088(1)
C1B C 0.2465(8) 0.2988(4) -0.196(1)
N2B N 0.2344(7) 0.3296(3) -0.647(1)
C2B C 0.2385(7) 0.2988(3) -0.542(1)
Cd1B Cd 0.21815(5) 0.38523(2) 0.13366(8)
N3B N 0.1718(7) 0.4511(4) 0.337(1)
C3B C 0.1076(7) 0.4700(3) 0.402(1)
N4B N 0.3745(6) 0.4170(3) 0.129(1)
C4B C 0.4236(6) 0.4480(4) 0.080(1)
N5B N 0.1796(7) 0.4419(4) -0.097(1)
N6B N 0.0525(6) 0.3722(3) 0.081(1)
C5B C 0.077(1) 0.4397(8) -0.126(3)
C6B C 0.023(1) 0.4042(8) -0.061(2)
C7B C -0.0863(9) 0.4027(7) -0.104(2)
N2_2 N 0.2344(7) 0.1704(3) 0.353(1)
C3D C -0.1076(7) -0.0300(3) 0.598(1)
C4C C 0.0764(6) -0.0520(4) 0.580(1)
C4G C -0.0764(6) 0.0520(4) 0.420(1)
Cd1_2 Cd 0.21815(5) 0.11477(2) -0.86634(8)
Ni2C Ni 0.50000 0.00000 0.00000
Cd1B_2 Cd 0.21815(5) 0.38523(2) -0.86634(8)
N2B_2 N 0.2344(7) 0.3296(3) 0.353(1)
Ni2B Ni 0.00000 0.50000 0.50000
Ni2A Ni 0.50000 0.50000 0.00000
loop_
_geom_bond_atom_site_label_1
_geom_bond_atom_site_label_2
_geom_bond_site_symmetry_1
_geom_bond_site_symmetry_2
Cd1 N1 1_555 1_555
Ni1 C1 1_555 1_555
Ni2 C3 1_555 1_555
N1 C1 1_555 1_555
N2 C2 1_555 1_555
N3 Cd1 1_555 1_555
N4 Cd1 1_555 1_555
N5 Cd1 1_555 1_555
N6 Cd1 1_555 1_555
C2 Ni1 1_555 1_555
C3 N3 1_555 1_555
C4 N4 1_555 1_555
C5 N5 1_555 1_555
C6 N6 1_555 1_555
C7 C6 1_555 1_555
N1B C1B 1_555 1_555
C1B Ni1 1_555 1_555
N2B C2B 1_555 1_555
C2B Ni1 1_555 1_555
Cd1B N1B 1_555 1_555
N3B Cd1B 1_555 1_555
C3B N3B 1_555 1_555
N4B Cd1B 1_555 1_555
C4B N4B 1_555 1_555
N5B Cd1B 1_555 1_555
N6B Cd1B 1_555 1_555
C5B N5B 1_555 1_555
C6B N6B 1_555 1_555
C7B C6B 1_555 1_555
N2_2 Cd1 1_555 1_555
C3D Ni2 1_555 1_555
C4C Ni2 1_555 1_555
C4G Ni2 1_555 1_555
Cd1_2 N2 1_555 1_555
Ni2C C4 1_555 1_555
Cd1B_2 N2B 1_555 1_555
N2B_2 Cd1B 1_555 1_555
Ni2B C3B 1_555 1_555
Ni2A C4B 1_555 1_555
C5 C6 1_555 1_555
C5B C6B 1_555 1_555

#END
