
#######################################################################
#
#                 Cambridge Crystallographic Data Centre
#                                CCDC 
#
#######################################################################
#
# If this CIF has been generated from an entry in the Cambridge 
# Structural Database, then it will include bibliographic, chemical, 
# crystal, experimental, refinement or atomic coordinate data resulting 
# from the CCDC's data processing and validation procedures.
#
#######################################################################

data_LAMHAI
_chemical_formula_moiety         '(C14 H20 Cd2 N12 Ni2)n'
_symmetry_cell_setting           orthorhombic
_symmetry_space_group_name_H-M   'P n m a'
_symmetry_Int_Tables_number      62
_space_group_name_Hall           '-P 2ac 2n'
loop_
_symmetry_equiv_pos_site_id
_symmetry_equiv_pos_as_xyz
1 x,y,z
2 1/2-x,1/2+y,1/2+z
3 x,1/2-y,z
4 1/2-x,-y,1/2+z
5 -x,-y,-z
6 1/2+x,1/2-y,1/2-z
7 -x,1/2+y,-z
8 1/2+x,y,1/2-z
_cell_length_a                   14.104(7)
_cell_length_b                   26.654(6)
_cell_length_c                   7.645(6)
_cell_angle_alpha                90
_cell_angle_beta                 90
_cell_angle_gamma                90
_cell_volume                     2873.97
loop_
_atom_site_label
_atom_site_type_symbol
_atom_site_fract_x
_atom_site_fract_y
_atom_site_fract_z
Cd1 Cd 0.21989(6) 0.11415(3) 0.1362(1)
Ni1 Ni 0.2438(2) 0.25000 -0.3684(3)
Ni2 Ni 0.00000 0.00000 0.5000
N1 N 0.2481(8) 0.1716(4) -0.086(1)
N2 N 0.2371(8) 0.1694(4) 0.357(1)
N3 N 0.1706(8) 0.0494(4) 0.339(2)
N4 N 0.1253(8) -0.0824(4) 0.631(2)
N5 N 0.1832(8) 0.0568(4) -0.095(2)
N6 N 0.0557(8) 0.1253(4) 0.082(1)
C1 C 0.2472(9) 0.2008(4) -0.195(2)
C2 C 0.2401(9) 0.2007(4) 0.462(1)
C3 C 0.1047(9) 0.0304(5) 0.404(2)
C4 C 0.0768(8) -0.0515(4) 0.584(2)
C5 C 0.080(1) 0.0577(8) -0.122(3)
C6 C 0.027(1) 0.094(1) -0.060(3)
C7 C -0.077(1) 0.0960(8) -0.105(2)
C1B C 0.2472(9) 0.2992(4) -0.195(2)
C2_2 C 0.2401(9) 0.2007(4) -0.538(1)
C2B C 0.2401(9) 0.2993(4) -0.538(1)
Ni1_2 Ni 0.2438(2) 0.25000 0.6316(3)
C3D C -0.1047(9) -0.0304(5) 0.596(2)
C4D C -0.0768(8) 0.0515(4) 0.416(2)
N3D N -0.1706(8) -0.0494(4) 0.661(2)
N4C N 0.3747(8) 0.0824(4) 0.131(2)
N4D N -0.1253(8) 0.0824(4) 0.369(2)
Cd1D Cd -0.21989(6) -0.11415(3) 0.8638(1)
Cd1C Cd 0.28011(6) -0.11415(3) 0.6362(1)
Cd1G Cd -0.28011(6) 0.11415(3) 0.3638(1)
N1D N -0.2481(8) -0.1716(4) 1.086(1)
N2D N -0.2371(8) -0.1694(4) 0.643(1)
N4G N -0.3747(8) -0.0824(4) 0.869(2)
N5D N -0.1832(8) -0.0568(4) 1.095(2)
N6D N -0.0557(8) -0.1253(4) 0.918(1)
C1D C -0.2472(9) -0.2008(4) 1.195(2)
C2D C -0.2401(9) -0.2007(4) 0.538(1)
C5D C -0.080(1) -0.0577(8) 1.122(3)
C6D C -0.027(1) -0.094(1) 1.060(3)
Ni1D Ni -0.2438(2) -0.25000 1.3684(3)
Ni1D_2 Ni -0.2438(2) -0.25000 0.3684(3)
C7D C 0.077(1) -0.0960(8) 1.105(2)
loop_
_geom_bond_atom_site_label_1
_geom_bond_atom_site_label_2
_geom_bond_site_symmetry_1
_geom_bond_site_symmetry_2
Cd1 N1 1_555 1_555
Ni1 C1 1_555 1_555
Ni2 C3 1_555 1_555
N1 C1 1_555 1_555
N2 Cd1 1_555 1_555
N3 Cd1 1_555 1_555
N4 C4 1_555 1_555
N5 Cd1 1_555 1_555
N6 Cd1 1_555 1_555
C2 N2 1_555 1_555
C3 N3 1_555 1_555
C4 Ni2 1_555 1_555
C5 N5 1_555 1_555
C6 N6 1_555 1_555
C7 C6 1_555 1_555
C1B Ni1 1_555 1_555
C2_2 Ni1 1_555 1_555
C2B Ni1 1_555 1_555
Ni1_2 C2 1_555 1_555
C3D Ni2 1_555 1_555
C4D Ni2 1_555 1_555
N3D C3D 1_555 1_555
N4C Cd1 1_555 1_555
N4D C4D 1_555 1_555
Cd1D N3D 1_555 1_555
Cd1C N4 1_555 1_555
Cd1G N4D 1_555 1_555
N1D Cd1D 1_555 1_555
N2D Cd1D 1_555 1_555
N4G Cd1D 1_555 1_555
N5D Cd1D 1_555 1_555
N6D Cd1D 1_555 1_555
C1D N1D 1_555 1_555
C2D N2D 1_555 1_555
C5D N5D 1_555 1_555
C6D N6D 1_555 1_555
Ni1D C1D 1_555 1_555
Ni1D_2 C2D 1_555 1_555
C7D C6D 1_555 1_555
C5 C6 1_555 1_555
C5D C6D 1_555 1_555

#END
