
#######################################################################
#
#                 Cambridge Crystallographic Data Centre
#                                CCDC 
#
#######################################################################
#
# If this CIF has been generated from an entry in the Cambridge 
# Structural Database, then it will include bibliographic, chemical, 
# crystal, experimental, refinement or atomic coordinate data resulting 
# from the CCDC's data processing and validation procedures.
#
#######################################################################

data_MEGFIN
_chemical_formula_moiety         '(C90 H94 Mn6 N20 O22)n'
_symmetry_cell_setting           tetragonal
_symmetry_space_group_name_H-M   'I 41/a'
_symmetry_Int_Tables_number      88
_space_group_name_Hall           '-I 4ad'
loop_
_symmetry_equiv_pos_site_id
_symmetry_equiv_pos_as_xyz
1 x,y,z
2 3/4-y,1/4+x,1/4+z
3 1/2-x,-y,1/2+z
4 3/4+y,3/4-x,3/4+z
5 1/2+x,1/2+y,1/2+z
6 1/4-y,3/4+x,3/4+z
7 -x,1/2-y,z
8 1/4+y,1/4-x,1/4+z
9 -x,-y,-z
10 1/4+y,3/4-x,3/4-z
11 1/2+x,y,1/2-z
12 1/4-y,1/4+x,1/4-z
13 1/2-x,1/2-y,1/2-z
14 3/4+y,1/4-x,1/4-z
15 x,1/2+y,-z
16 3/4-y,3/4+x,3/4-z
_cell_length_a                   40.352(13)
_cell_length_b                   40.352(13)
_cell_length_c                   17.813(8)
_cell_angle_alpha                90
_cell_angle_beta                 90
_cell_angle_gamma                90
_cell_volume                     29004.6
loop_
_atom_site_label
_atom_site_type_symbol
_atom_site_fract_x
_atom_site_fract_y
_atom_site_fract_z
_atom_site_U_iso_or_equiv
_atom_site_thermal_displace_type
O11 O -0.4787(16) 0.3799(10) -0.051(2) 0.3833 Uani
N10 N -0.4825(5) 0.3983(6) 0.0592(11) 0.1620 Uani
C43 C -0.471(2) 0.3749(13) 0.012(2) 0.3367 Uani
H41 H -0.4578 0.3570 0.0277 0.4040 Uiso
C44 C -0.4992(7) 0.4285(8) 0.0369(12) 0.1920 Uani
H42 H -0.4847 0.4471 0.0455 0.2320 Uiso
H43 H -0.5190 0.4312 0.0660 0.2320 Uiso
H44 H -0.5047 0.4274 -0.0154 0.2320 Uiso
C45 C -0.4718(6) 0.3971(8) 0.1336(12) 0.2187 Uani
H45 H -0.4658 0.3747 0.1463 0.2600 Uiso
H46 H -0.4893 0.4044 0.1661 0.2600 Uiso
H47 H -0.4528 0.4113 0.1396 0.2600 Uiso
O12 O -0.623(2) 1.271(5) 0.083(11) 0.5200 Uani
N11 N -0.6504(7) 1.2298(8) 0.0272(17) 0.1943 Uani
C46 C -0.6312(10) 1.242(4) 0.085(4) 0.3100 Uani
C47 C -0.6674(7) 1.2491(8) -0.0205(13) 0.2120 Uani
H48 H -0.6872 1.2570 0.0037 0.2540 Uiso
H49 H -0.6733 1.2365 -0.0642 0.2540 Uiso
H50 H -0.6540 1.2676 -0.0351 0.2540 Uiso
C48 C -0.6572(12) 1.1937(10) 0.019(3) 0.3733 Uani
H51 H -0.6745 1.1904 -0.0174 0.4480 Uiso
H52 H -0.6639 1.1847 0.0663 0.4480 Uiso
H53 H -0.6374 1.1826 0.0022 0.4480 Uiso
Mn1 Mn -0.27871(3) 0.36363(3) 0.28477(7) 0.0405 Uani
O1 O -0.25856(16) 0.40168(15) 0.3197(3) 0.0493 Uani
O2 O -0.19639(17) 0.36620(16) 0.1438(4) 0.0583 Uani
O3 O -0.29359(15) 0.32279(16) 0.2395(3) 0.0493 Uani
N1 N -0.24296(19) 0.35654(18) 0.2126(4) 0.0407 Uani
N2 N -0.2453(2) 0.32621(19) 0.1745(4) 0.0473 Uani
C1 C -0.2332(2) 0.4191(2) 0.2903(5) 0.0430 Uani
C2 C -0.2134(2) 0.4078(2) 0.2300(5) 0.0387 Uani
C3 C -0.1879(2) 0.4284(2) 0.2033(5) 0.0433 Uani
H1 H -0.1751 0.4214 0.1629 0.0520 Uiso
C4 C -0.1816(2) 0.4586(2) 0.2356(6) 0.0530 Uani
H2 H -0.1644 0.4718 0.2179 0.0640 Uiso
C5 C -0.2009(3) 0.4692(3) 0.2940(6) 0.0627 Uani
H3 H -0.1969 0.4898 0.3158 0.0750 Uiso
C6 C -0.2266(3) 0.4495(3) 0.3210(6) 0.0547 Uani
H4 H -0.2395 0.4571 0.3606 0.0660 Uiso
C7 C -0.2177(2) 0.3758(2) 0.1936(5) 0.0430 Uani
C8 C -0.2725(3) 0.3108(2) 0.1925(6) 0.0473 Uani
C9 C -0.2783(3) 0.2769(3) 0.1625(8) 0.0890 Uani
H5 H -0.2801 0.2615 0.2035 0.1070 Uiso
H6 H -0.2602 0.2706 0.1307 0.1070 Uiso
H7 H -0.2985 0.2766 0.1340 0.1070 Uiso
N3 N -0.3577(2) 0.0594(2) -0.4506(5) 0.0590 Uani
C10 C -0.3648(3) 0.0587(3) -0.3773(7) 0.0927 Uani
H8 H -0.3809 0.0440 -0.3608 0.1110 Uiso
C11 C -0.3496(4) 0.0785(5) -0.3252(7) 0.1287 Uani
H9 H -0.3554 0.0768 -0.2748 0.1550 Uiso
C12 C -0.3259(4) 0.1008(5) -0.3474(7) 0.1357 Uani
C13 C -0.3170(4) 0.1000(4) -0.4216(7) 0.1160 Uani
H10 H -0.2995 0.1129 -0.4388 0.1400 Uiso
C14 C -0.3342(3) 0.0800(3) -0.4702(6) 0.0730 Uani
H11 H -0.3287 0.0812 -0.5209 0.0870 Uiso
C15 C -0.3115(5) 0.1268(7) -0.2951(9) 0.1723 Uani
H12 H -0.3291 0.1413 -0.2780 0.2080 Uiso
H13 H -0.2955 0.1401 -0.3223 0.2080 Uiso
Mn2 Mn -0.20524(4) 0.32543(3) 0.08560(8) 0.0496 Uani
O4 O -0.23236(18) 0.34809(16) 0.0188(4) 0.0640 Uani
O5 O -0.22834(18) 0.24906(17) -0.0617(3) 0.0593 Uani
O6 O -0.17910(15) 0.29544(16) 0.1457(3) 0.0483 Uani
N4 N -0.21301(19) 0.28448(19) 0.0327(4) 0.0450 Uani
N5 N -0.19733(18) 0.25630(18) 0.0634(4) 0.0420 Uani
C16 C -0.2480(3) 0.3374(3) -0.0420(7) 0.0633 Uani
C17 C -0.2464(3) 0.3049(3) -0.0697(6) 0.0600 Uani
C18 C -0.2618(4) 0.2976(3) -0.1380(7) 0.0980 Uani
H14 H -0.2596 0.2764 -0.1580 0.1180 Uiso
C19 C -0.2806(4) 0.3210(5) -0.1770(9) 0.1273 Uani
H15 H -0.2913 0.3158 -0.2218 0.1530 Uiso
C20 C -0.2825(4) 0.3531(4) -0.1447(11) 0.1187 Uani
H16 H -0.2945 0.3694 -0.1696 0.1430 Uiso
C21 C -0.2678(4) 0.3607(3) -0.0804(9) 0.0903 Uani
H17 H -0.2706 0.3818 -0.0602 0.1090 Uiso
C22 C -0.2288(3) 0.2782(3) -0.0325(6) 0.0527 Uani
C23 C -0.1809(2) 0.2652(2) 0.1230(6) 0.0477 Uani
C24 C -0.1605(3) 0.2392(3) 0.1645(6) 0.0623 Uani
H18 H -0.1375 0.2455 0.1639 0.0740 Uiso
H19 H -0.1630 0.2181 0.1403 0.0740 Uiso
H20 H -0.1680 0.2376 0.2155 0.0740 Uiso
O7 O -0.1584(3) 0.3375(2) 0.0237(6) 0.0900 Uani
N6 N -0.1017(4) 0.3411(5) 0.0167(12) 0.1700 Uani
C25 C -0.1302(5) 0.3310(5) 0.0469(10) 0.1307 Uani
H21 H -0.1288 0.3178 0.0895 0.1570 Uiso
C26 C -0.0990(7) 0.3619(5) -0.0381(17) 0.2693 Uani
H22 H -0.1206 0.3700 -0.0517 0.3220 Uiso
H23 H -0.0891 0.3511 -0.0805 0.3220 Uiso
H24 H -0.0853 0.3802 -0.0229 0.3220 Uiso
C27 C -0.0689(5) 0.3289(9) 0.052(2) 0.3250 Uani
H25 H -0.0507 0.3343 0.0199 0.3900 Uiso
H26 H -0.0699 0.3054 0.0596 0.3900 Uiso
H27 H -0.0658 0.3396 0.1001 0.3900 Uiso
Mn3 Mn -0.21571(4) 0.21050(3) 0.00138(7) 0.0454 Uani
O8 O -0.32524(18) 0.29882(17) 0.5411(4) 0.0600 Uani
O9 O -0.31609(15) 0.36483(15) 0.3580(3) 0.0457 Uani
O10 O -0.24230(17) 0.28697(16) 0.4457(3) 0.0540 Uani
N7 N -0.2902(2) 0.32631(19) 0.4276(4) 0.0430 Uani
N8 N -0.26260(19) 0.3312(2) 0.3810(4) 0.0460 Uani
C28 C -0.3474(3) 0.3214(3) 0.5234(6) 0.0573 Uani
C29 C -0.3451(2) 0.3442(2) 0.4620(5) 0.0467 Uani
C30 C -0.3702(3) 0.3667(3) 0.4502(6) 0.0567 Uani
H28 H -0.3684 0.3813 0.4100 0.0680 Uiso
C31 C -0.3979(3) 0.3684(3) 0.4959(8) 0.0807 Uani
H29 H -0.4146 0.3837 0.4862 0.0970 Uiso
C32 C -0.4003(3) 0.3467(4) 0.5572(8) 0.0873 Uani
H30 H -0.4186 0.3476 0.5888 0.1050 Uiso
C33 C -0.3759(3) 0.3243(3) 0.5705(7) 0.0827 Uani
H31 H -0.3778 0.3103 0.6118 0.0990 Uiso
C34 C -0.3161(2) 0.3449(2) 0.4132(5) 0.0420 Uani
C35 C -0.2389(2) 0.3101(2) 0.3953(5) 0.0447 Uani
C36 C -0.2066(3) 0.3113(3) 0.3538(6) 0.0687 Uani
H32 H -0.2046 0.3323 0.3287 0.0820 Uiso
H33 H -0.1887 0.3087 0.3886 0.0820 Uiso
H34 H -0.2060 0.2938 0.3174 0.0820 Uiso
N9 N -0.2415(3) 0.1798(2) -0.0882(5) 0.0707 Uani
C37 C -0.2314(4) 0.1497(3) -0.1072(6) 0.0827 Uani
H35 H -0.2116 0.1421 -0.0868 0.1000 Uiso
C38 C -0.2487(5) 0.1285(4) -0.1563(8) 0.1140 Uani
H36 H -0.2401 0.1077 -0.1679 0.1370 Uiso
C39 C -0.2775(5) 0.1385(4) -0.1863(9) 0.1387 Uani
C40 C -0.2888(4) 0.1694(4) -0.1646(9) 0.1197 Uani
H37 H -0.3087 0.1773 -0.1838 0.1440 Uiso
C41 C -0.2709(4) 0.1889(4) -0.1150(7) 0.0940 Uani
H38 H -0.2799 0.2091 -0.0997 0.1130 Uiso
C42 C -0.2971(6) 0.1134(5) -0.2373(15) 0.2147 Uani
H39 H -0.2818 0.0965 -0.2549 0.2570 Uiso
H40 H -0.3138 0.1024 -0.2070 0.2570 Uiso
Mn1L Mn -0.22129(3) 0.13637(3) 0.21523(7) 0.0405 Uani
O1L O -0.24144(16) 0.09832(15) 0.1803(3) 0.0493 Uani
O2L O -0.30361(17) 0.13380(16) 0.3562(4) 0.0583 Uani
O3L O -0.20641(15) 0.17721(16) 0.2605(3) 0.0493 Uani
N1L N -0.25704(19) 0.14346(18) 0.2874(4) 0.0407 Uani
N2L N -0.2547(2) 0.17379(19) 0.3255(4) 0.0473 Uani
C1L C -0.2668(2) 0.0809(2) 0.2097(5) 0.0430 Uani
C2L C -0.2866(2) 0.0922(2) 0.2700(5) 0.0387 Uani
C3L C -0.3121(2) 0.0716(2) 0.2967(5) 0.0433 Uani
H1L H -0.3249 0.0786 0.3371 0.0520 Uiso
C4L C -0.3184(2) 0.0414(2) 0.2644(6) 0.0530 Uani
H2L H -0.3356 0.0282 0.2821 0.0640 Uiso
C5L C -0.2991(3) 0.0308(3) 0.2060(6) 0.0627 Uani
H3L H -0.3031 0.0102 0.1842 0.0750 Uiso
C6L C -0.2734(3) 0.0505(3) 0.1790(6) 0.0547 Uani
H4L H -0.2605 0.0429 0.1394 0.0660 Uiso
C7L C -0.2823(2) 0.1242(2) 0.3064(5) 0.0430 Uani
C8L C -0.2275(3) 0.1892(2) 0.3075(6) 0.0473 Uani
C9L C -0.2217(3) 0.2231(3) 0.3375(8) 0.0890 Uani
H5L H -0.2199 0.2385 0.2965 0.1070 Uiso
H6L H -0.2398 0.2294 0.3693 0.1070 Uiso
H7L H -0.2015 0.2234 0.3660 0.1070 Uiso
N3C N -0.1906(2) 0.1077(2) 0.2994(5) 0.0590 Uani
Mn2L Mn -0.29476(4) 0.17457(3) 0.41440(8) 0.0496 Uani
O4L O -0.26764(18) 0.15191(16) 0.4812(4) 0.0640 Uani
O5L O -0.27166(18) 0.25094(17) 0.5617(3) 0.0593 Uani
O6L O -0.32090(15) 0.20456(16) 0.3543(3) 0.0483 Uani
N4L N -0.28699(19) 0.21552(19) 0.4673(4) 0.0450 Uani
N5L N -0.30267(18) 0.24370(18) 0.4366(4) 0.0420 Uani
C16L C -0.2520(3) 0.1626(3) 0.5420(7) 0.0633 Uani
C17L C -0.2536(3) 0.1951(3) 0.5697(6) 0.0600 Uani
C18L C -0.2382(4) 0.2024(3) 0.6380(7) 0.0980 Uani
H14L H -0.2404 0.2236 0.6580 0.1180 Uiso
C19L C -0.2194(4) 0.1790(5) 0.6770(9) 0.1273 Uani
H15L H -0.2087 0.1842 0.7218 0.1530 Uiso
C20L C -0.2175(4) 0.1469(4) 0.6447(11) 0.1187 Uani
H16L H -0.2055 0.1306 0.6696 0.1430 Uiso
C21L C -0.2322(4) 0.1393(3) 0.5804(9) 0.0903 Uani
H17L H -0.2294 0.1182 0.5602 0.1090 Uiso
C22L C -0.2712(3) 0.2218(3) 0.5325(6) 0.0527 Uani
C23L C -0.3191(2) 0.2348(2) 0.3770(6) 0.0477 Uani
C24L C -0.3395(3) 0.2608(3) 0.3355(6) 0.0623 Uani
H18L H -0.3625 0.2545 0.3361 0.0740 Uiso
H19L H -0.3370 0.2819 0.3597 0.0740 Uiso
H20L H -0.3320 0.2624 0.2845 0.0740 Uiso
O7L O -0.3416(3) 0.1625(2) 0.4763(6) 0.0900 Uani
N6L N -0.3983(4) 0.1589(5) 0.4833(12) 0.1700 Uani
C25L C -0.3698(5) 0.1690(5) 0.4531(10) 0.1307 Uani
H21L H -0.3712 0.1822 0.4105 0.1570 Uiso
C26L C -0.4010(7) 0.1381(5) 0.5381(17) 0.2693 Uani
H22L H -0.3794 0.1300 0.5517 0.3220 Uiso
H23L H -0.4109 0.1489 0.5805 0.3220 Uiso
H24L H -0.4147 0.1198 0.5229 0.3220 Uiso
C27L C -0.4311(5) 0.1711(9) 0.448(2) 0.3250 Uani
H25L H -0.4493 0.1657 0.4801 0.3900 Uiso
H26L H -0.4301 0.1946 0.4404 0.3900 Uiso
H27L H -0.4342 0.1604 0.3999 0.3900 Uiso
O8L O -0.17476(18) 0.20118(17) -0.0411(4) 0.0600 Uani
O9L O -0.18391(15) 0.13517(15) 0.1420(3) 0.0457 Uani
O10L O -0.25770(17) 0.21303(16) 0.0543(3) 0.0540 Uani
N7L N -0.2098(2) 0.17369(19) 0.0724(4) 0.0430 Uani
N8L N -0.23740(19) 0.1688(2) 0.1190(4) 0.0460 Uani
C28L C -0.1526(3) 0.1786(3) -0.0234(6) 0.0573 Uani
C29L C -0.1549(2) 0.1558(2) 0.0380(5) 0.0467 Uani
C30L C -0.1298(3) 0.1333(3) 0.0498(6) 0.0567 Uani
H28L H -0.1316 0.1187 0.0900 0.0680 Uiso
C31L C -0.1021(3) 0.1316(3) 0.0041(8) 0.0807 Uani
H29L H -0.0854 0.1163 0.0138 0.0970 Uiso
C32L C -0.0997(3) 0.1533(4) -0.0572(8) 0.0873 Uani
H30L H -0.0814 0.1524 -0.0888 0.1050 Uiso
C33L C -0.1241(3) 0.1757(3) -0.0705(7) 0.0827 Uani
H31L H -0.1222 0.1897 -0.1118 0.0990 Uiso
C34L C -0.1839(2) 0.1551(2) 0.0868(5) 0.0420 Uani
C35L C -0.2611(2) 0.1899(2) 0.1047(5) 0.0447 Uani
C36L C -0.2934(3) 0.1887(3) 0.1462(6) 0.0687 Uani
H32L H -0.2954 0.1677 0.1713 0.0820 Uiso
H33L H -0.3113 0.1913 0.1114 0.0820 Uiso
H34L H -0.2940 0.2062 0.1826 0.0820 Uiso
Mn1I Mn -0.38637(3) 0.02871(3) -0.53477(7) 0.0405 Uani
N3O N -0.3094(2) 0.3923(2) 0.2006(5) 0.0590 Uani
Mn3L Mn -0.28429(4) 0.28950(3) 0.49862(7) 0.0454 Uani
Mn1E Mn -0.11363(3) 0.47129(3) 1.03477(7) 0.0405 Uani
N3L N -0.1423(2) 0.4406(2) 0.9506(5) 0.0590 Uani
C10L C -0.1352(3) 0.4413(3) 0.8773(7) 0.0927 Uani
H8L H -0.1191 0.4560 0.8608 0.1110 Uiso
C11L C -0.1504(4) 0.4215(5) 0.8252(7) 0.1287 Uani
H9L H -0.1446 0.4232 0.7748 0.1550 Uiso
C12L C -0.1741(4) 0.3992(5) 0.8474(7) 0.1357 Uani
C13L C -0.1830(4) 0.4000(4) 0.9216(7) 0.1160 Uani
H10L H -0.2005 0.3871 0.9388 0.1400 Uiso
C14L C -0.1658(3) 0.4200(3) 0.9702(6) 0.0730 Uani
H11L H -0.1713 0.4188 1.0209 0.0870 Uiso
C15L C -0.1885(5) 0.3732(7) 0.7951(9) 0.1723 Uani
H12L H -0.1709 0.3587 0.7780 0.2080 Uiso
H13L H -0.2045 0.3599 0.8223 0.2080 Uiso
N9L N -0.2585(3) 0.3202(2) 0.5882(5) 0.0707 Uani
C37L C -0.2686(4) 0.3503(3) 0.6072(6) 0.0827 Uani
H35L H -0.2884 0.3579 0.5868 0.1000 Uiso
C38L C -0.2513(5) 0.3715(4) 0.6563(8) 0.1140 Uani
H36L H -0.2599 0.3923 0.6679 0.1370 Uiso
C39L C -0.2225(5) 0.3615(4) 0.6863(9) 0.1387 Uani
C40L C -0.2112(4) 0.3306(4) 0.6646(9) 0.1197 Uani
H37L H -0.1913 0.3227 0.6838 0.1440 Uiso
C41L C -0.2291(4) 0.3111(4) 0.6150(7) 0.0940 Uani
H38L H -0.2201 0.2909 0.5997 0.1130 Uiso
C42L C -0.2029(6) 0.3866(5) 0.7373(15) 0.2147 Uani
H39L H -0.2182 0.4035 0.7549 0.2570 Uiso
H40L H -0.1862 0.3976 0.7070 0.2570 Uiso
loop_
_atom_site_aniso_label
_atom_site_aniso_U_11
_atom_site_aniso_U_22
_atom_site_aniso_U_33
_atom_site_aniso_U_23
_atom_site_aniso_U_13
_atom_site_aniso_U_12
O11 0.7 0.23 0.22 -0.12 -0.08 0.21
N10 0.158 0.192 0.136 -0.018 -0.002 0.007
C43 0.68 0.25 0.08 -0.13 -0.08 0.08
C44 0.21 0.25 0.116 -0.02 0.022 -0.04
C45 0.17 0.35 0.136 -0.07 -0.063 0.08
O12 0.26 0.7 0.6 -0.4 0.18 -0.29
N11 0.133 0.22 0.23 0.05 0.013 0.047
C46 0.09 0.57 0.27 0.1 -0.04 -0.06
C47 0.21 0.29 0.136 0.03 -0.004 0.08
C48 0.5 0.19 0.43 0.02 0.01 -0.06
Mn1 0.0425 0.0396 0.0395 0.0021 0.0054 0.001
O1 0.058 0.046 0.044 -0.008 0.02 -0.004
O2 0.059 0.048 0.068 -0.001 0.021 -0.015
O3 0.041 0.056 0.051 -0.002 0.014 -0.006
N1 0.049 0.033 0.04 -0.008 0.005 -0.01
N2 0.051 0.043 0.048 -0.009 0.015 -0.013
C1 0.057 0.032 0.04 -0.004 0 -0.009
C2 0.046 0.032 0.038 0 0.005 0
C3 0.051 0.033 0.046 -0.003 0.015 0
C4 0.056 0.042 0.061 0.001 0.019 -0.008
C5 0.083 0.042 0.063 -0.007 -0.002 -0.005
C6 0.06 0.049 0.055 -0.01 0.018 -0.003
C7 0.042 0.043 0.044 0.013 0.01 0.001
C8 0.042 0.04 0.06 -0.01 0.011 -0.002
C9 0.078 0.076 0.113 -0.028 0.043 -0.034
N3 0.079 0.053 0.045 0.009 -0.001 -0.019
C10 0.114 0.107 0.057 0.008 0.003 -0.052
C11 0.192 0.147 0.047 -0.021 0.007 -0.106
C12 0.206 0.157 0.044 -0.011 -0.032 -0.132
C13 0.156 0.129 0.063 0.015 -0.029 -0.098
C14 0.096 0.087 0.036 0.005 -0.007 -0.035
C15 0.28 0.154 0.083 0.018 -0.023 -0.069
Mn2 0.0531 0.039 0.0568 -0.0041 0.0146 -0.0036
O4 0.079 0.042 0.071 0.01 0.012 0.009
O5 0.091 0.046 0.041 0.004 -0.016 0.005
O6 0.045 0.048 0.052 -0.014 -0.003 -0.003
N4 0.054 0.044 0.037 0.009 0.005 -0.006
N5 0.05 0.042 0.034 0.008 -0.004 -0.006
C16 0.075 0.051 0.064 0.011 0.009 -0.006
C17 0.071 0.064 0.045 0.018 -0.003 -0.007
C18 0.135 0.084 0.075 0.017 -0.024 -0.007
C19 0.151 0.119 0.112 0.032 -0.065 0.006
C20 0.156 0.066 0.134 0.029 -0.048 0.024
C21 0.114 0.058 0.099 0.027 -0.014 0.011
C22 0.065 0.041 0.052 0.011 0.016 -0.004
C23 0.048 0.041 0.054 0 0.012 0.002
C24 0.071 0.062 0.054 -0.001 -0.009 0.004
O7 0.088 0.06 0.122 -0.011 0.058 -0.01
N6 0.097 0.173 0.24 -0.112 0.093 -0.067
C25 0.108 0.165 0.119 -0.054 0.055 -0.036
C26 0.28 0.098 0.43 0.1 0.27 0.027
C27 0.065 0.4 0.51 -0.07 0.04 -0.07
Mn3 0.0647 0.0375 0.034 0 -0.0027 -0.003
O8 0.078 0.048 0.054 0.011 0.011 0.006
O9 0.051 0.045 0.041 0.003 0.003 0.005
O10 0.072 0.045 0.045 0.004 -0.01 0.007
N7 0.048 0.047 0.034 -0.005 -0.004 0.002
N8 0.039 0.054 0.045 0.004 0.003 0.003
C28 0.059 0.051 0.062 -0.006 0.017 0.001
C29 0.056 0.045 0.039 -0.007 0.004 -0.005
C30 0.053 0.057 0.06 0.002 0.014 0.008
C31 0.061 0.075 0.106 0.007 0.021 -0.004
C32 0.067 0.096 0.099 0.004 0.036 0.002
C33 0.092 0.082 0.074 0.008 0.044 0.01
C34 0.049 0.043 0.034 -0.002 -0.002 -0.005
C35 0.048 0.039 0.047 0.002 -0.006 -0.004
C36 0.055 0.073 0.078 0.019 0.006 0.02
N9 0.106 0.055 0.051 -0.01 -0.019 0.001
C37 0.114 0.073 0.061 -0.016 -0.034 -0.009
C38 0.167 0.079 0.096 -0.026 -0.035 -0.01
C39 0.196 0.104 0.116 -0.08 -0.098 0.034
C40 0.121 0.11 0.128 -0.039 -0.067 -0.007
C41 0.115 0.093 0.074 -0.023 -0.028 0.01
C42 0.26 0.134 0.25 0.028 -0.19 -0.039
Mn1L 0.0425 0.0396 0.0395 0.0021 0.0054 0.001
O1L 0.058 0.046 0.044 -0.008 0.02 -0.004
O2L 0.059 0.048 0.068 -0.001 0.021 -0.015
O3L 0.041 0.056 0.051 -0.002 0.014 -0.006
N1L 0.049 0.033 0.04 -0.008 0.005 -0.01
N2L 0.051 0.043 0.048 -0.009 0.015 -0.013
C1L 0.057 0.032 0.04 -0.004 0 -0.009
C2L 0.046 0.032 0.038 0 0.005 0
C3L 0.051 0.033 0.046 -0.003 0.015 0
C4L 0.056 0.042 0.061 0.001 0.019 -0.008
C5L 0.083 0.042 0.063 -0.007 -0.002 -0.005
C6L 0.06 0.049 0.055 -0.01 0.018 -0.003
C7L 0.042 0.043 0.044 0.013 0.01 0.001
C8L 0.042 0.04 0.06 -0.01 0.011 -0.002
C9L 0.078 0.076 0.113 -0.028 0.043 -0.034
N3C 0.053 0.079 0.045 0.001 0.009 0.019
Mn2L 0.0531 0.039 0.0568 -0.0041 0.0146 -0.0036
O4L 0.079 0.042 0.071 0.01 0.012 0.009
O5L 0.091 0.046 0.041 0.004 -0.016 0.005
O6L 0.045 0.048 0.052 -0.014 -0.003 -0.003
N4L 0.054 0.044 0.037 0.009 0.005 -0.006
N5L 0.05 0.042 0.034 0.008 -0.004 -0.006
C16L 0.075 0.051 0.064 0.011 0.009 -0.006
C17L 0.071 0.064 0.045 0.018 -0.003 -0.007
C18L 0.135 0.084 0.075 0.017 -0.024 -0.007
C19L 0.151 0.119 0.112 0.032 -0.065 0.006
C20L 0.156 0.066 0.134 0.029 -0.048 0.024
C21L 0.114 0.058 0.099 0.027 -0.014 0.011
C22L 0.065 0.041 0.052 0.011 0.016 -0.004
C23L 0.048 0.041 0.054 0 0.012 0.002
C24L 0.071 0.062 0.054 -0.001 -0.009 0.004
O7L 0.088 0.06 0.122 -0.011 0.058 -0.01
N6L 0.097 0.173 0.24 -0.112 0.093 -0.067
C25L 0.108 0.165 0.119 -0.054 0.055 -0.036
C26L 0.28 0.098 0.43 0.1 0.27 0.027
C27L 0.065 0.4 0.51 -0.07 0.04 -0.07
O8L 0.078 0.048 0.054 0.011 0.011 0.006
O9L 0.051 0.045 0.041 0.003 0.003 0.005
O10L 0.072 0.045 0.045 0.004 -0.01 0.007
N7L 0.048 0.047 0.034 -0.005 -0.004 0.002
N8L 0.039 0.054 0.045 0.004 0.003 0.003
C28L 0.059 0.051 0.062 -0.006 0.017 0.001
C29L 0.056 0.045 0.039 -0.007 0.004 -0.005
C30L 0.053 0.057 0.06 0.002 0.014 0.008
C31L 0.061 0.075 0.106 0.007 0.021 -0.004
C32L 0.067 0.096 0.099 0.004 0.036 0.002
C33L 0.092 0.082 0.074 0.008 0.044 0.01
C34L 0.049 0.043 0.034 -0.002 -0.002 -0.005
C35L 0.048 0.039 0.047 0.002 -0.006 -0.004
C36L 0.055 0.073 0.078 0.019 0.006 0.02
Mn1I 0.0396 0.0425 0.0395 0.0054 -0.0021 -0.001
N3O 0.053 0.079 0.045 0.001 0.009 0.019
Mn3L 0.0647 0.0375 0.034 0 -0.0027 -0.003
Mn1E 0.0396 0.0425 0.0395 0.0054 -0.0021 -0.001
N3L 0.079 0.053 0.045 0.009 -0.001 -0.019
C10L 0.114 0.107 0.057 0.008 0.003 -0.052
C11L 0.192 0.147 0.047 -0.021 0.007 -0.106
C12L 0.206 0.157 0.044 -0.011 -0.032 -0.132
C13L 0.156 0.129 0.063 0.015 -0.029 -0.098
C14L 0.096 0.087 0.036 0.005 -0.007 -0.035
C15L 0.28 0.154 0.083 0.018 -0.023 -0.069
N9L 0.106 0.055 0.051 -0.01 -0.019 0.001
C37L 0.114 0.073 0.061 -0.016 -0.034 -0.009
C38L 0.167 0.079 0.096 -0.026 -0.035 -0.01
C39L 0.196 0.104 0.116 -0.08 -0.098 0.034
C40L 0.121 0.11 0.128 -0.039 -0.067 -0.007
C41L 0.115 0.093 0.074 -0.023 -0.028 0.01
C42L 0.26 0.134 0.25 0.028 -0.19 -0.039
loop_
_geom_bond_atom_site_label_1
_geom_bond_atom_site_label_2
_geom_bond_site_symmetry_1
_geom_bond_site_symmetry_2
Mn1 O1 1_555 1_555
O1 C1 1_555 1_555
O2 C7 1_555 1_555
O3 Mn1 1_555 1_555
N1 Mn1 1_555 1_555
N2 N1 1_555 1_555
C1 C2 1_555 1_555
C2 C3 1_555 1_555
C3 H1 1_555 1_555
C4 C3 1_555 1_555
H2 C4 1_555 1_555
C5 C4 1_555 1_555
H3 C5 1_555 1_555
C6 C1 1_555 1_555
H4 C6 1_555 1_555
C7 N1 1_555 1_555
C8 O3 1_555 1_555
C9 C8 1_555 1_555
H5 C9 1_555 1_555
H6 C9 1_555 1_555
H7 C9 1_555 1_555
N3 C10 1_555 1_555
C10 H8 1_555 1_555
C11 C10 1_555 1_555
H9 C11 1_555 1_555
C12 C11 1_555 1_555
C13 C12 1_555 1_555
H10 C13 1_555 1_555
C14 N3 1_555 1_555
H11 C14 1_555 1_555
C15 C12 1_555 1_555
H12 C15 1_555 1_555
H13 C15 1_555 1_555
Mn2 O2 1_555 1_555
O4 Mn2 1_555 1_555
O5 C22 1_555 1_555
O6 Mn2 1_555 1_555
N4 Mn2 1_555 1_555
N5 N4 1_555 1_555
C16 O4 1_555 1_555
C17 C16 1_555 1_555
C18 C17 1_555 1_555
H14 C18 1_555 1_555
C19 C18 1_555 1_555
H15 C19 1_555 1_555
C20 C19 1_555 1_555
H16 C20 1_555 1_555
C21 C16 1_555 1_555
H17 C21 1_555 1_555
C22 N4 1_555 1_555
C23 O6 1_555 1_555
C24 C23 1_555 1_555
H18 C24 1_555 1_555
H19 C24 1_555 1_555
H20 C24 1_555 1_555
O7 Mn2 1_555 1_555
N6 C25 1_555 1_555
C25 O7 1_555 1_555
H21 C25 1_555 1_555
C26 N6 1_555 1_555
H22 C26 1_555 1_555
H23 C26 1_555 1_555
H24 C26 1_555 1_555
C27 N6 1_555 1_555
H25 C27 1_555 1_555
H26 C27 1_555 1_555
H27 C27 1_555 1_555
Mn3 O5 1_555 1_555
O8 C28 1_555 1_555
O9 Mn1 1_555 1_555
O10 C35 1_555 1_555
N7 N8 1_555 1_555
N8 Mn1 1_555 1_555
C28 C29 1_555 1_555
C29 C30 1_555 1_555
C30 H28 1_555 1_555
C31 C30 1_555 1_555
H29 C31 1_555 1_555
C32 C31 1_555 1_555
H30 C32 1_555 1_555
C33 C28 1_555 1_555
H31 C33 1_555 1_555
C34 O9 1_555 1_555
C35 N8 1_555 1_555
C36 C35 1_555 1_555
H32 C36 1_555 1_555
H33 C36 1_555 1_555
H34 C36 1_555 1_555
N9 Mn3 1_555 1_555
C37 N9 1_555 1_555
H35 C37 1_555 1_555
C38 C37 1_555 1_555
H36 C38 1_555 1_555
C39 C38 1_555 1_555
C40 C39 1_555 1_555
H37 C40 1_555 1_555
C41 N9 1_555 1_555
H38 C41 1_555 1_555
C42 C15 1_555 1_555
H39 C42 1_555 1_555
H40 C42 1_555 1_555
O11 C43 1_555 1_555
N10 C43 1_555 1_555
C43 H41 1_555 1_555
C44 N10 1_555 1_555
H42 C44 1_555 1_555
H43 C44 1_555 1_555
H44 C44 1_555 1_555
C45 N10 1_555 1_555
H45 C45 1_555 1_555
H46 C45 1_555 1_555
H47 C45 1_555 1_555
O12 C46 1_555 1_555
N11 C46 1_555 1_555
C47 N11 1_555 1_555
H48 C47 1_555 1_555
H49 C47 1_555 1_555
H50 C47 1_555 1_555
C48 N11 1_555 1_555
H51 C48 1_555 1_555
H52 C48 1_555 1_555
H53 C48 1_555 1_555
Mn1L O1L 1_555 1_555
O1L C1L 1_555 1_555
O2L C7L 1_555 1_555
O3L Mn1L 1_555 1_555
N1L Mn1L 1_555 1_555
N2L N1L 1_555 1_555
C1L C2L 1_555 1_555
C2L C3L 1_555 1_555
C3L H1L 1_555 1_555
C4L C3L 1_555 1_555
H2L C4L 1_555 1_555
C5L C4L 1_555 1_555
H3L C5L 1_555 1_555
C6L C1L 1_555 1_555
H4L C6L 1_555 1_555
C7L N1L 1_555 1_555
C8L O3L 1_555 1_555
C9L C8L 1_555 1_555
H5L C9L 1_555 1_555
H6L C9L 1_555 1_555
H7L C9L 1_555 1_555
N3C Mn1L 1_555 1_555
Mn2L O2L 1_555 1_555
O4L Mn2L 1_555 1_555
O5L C22L 1_555 1_555
O6L Mn2L 1_555 1_555
N4L Mn2L 1_555 1_555
N5L N4L 1_555 1_555
C16L O4L 1_555 1_555
C17L C16L 1_555 1_555
C18L C17L 1_555 1_555
H14L C18L 1_555 1_555
C19L C18L 1_555 1_555
H15L C19L 1_555 1_555
C20L C19L 1_555 1_555
H16L C20L 1_555 1_555
C21L C16L 1_555 1_555
H17L C21L 1_555 1_555
C22L N4L 1_555 1_555
C23L O6L 1_555 1_555
C24L C23L 1_555 1_555
H18L C24L 1_555 1_555
H19L C24L 1_555 1_555
H20L C24L 1_555 1_555
O7L Mn2L 1_555 1_555
N6L C25L 1_555 1_555
C25L O7L 1_555 1_555
H21L C25L 1_555 1_555
C26L N6L 1_555 1_555
H22L C26L 1_555 1_555
H23L C26L 1_555 1_555
H24L C26L 1_555 1_555
C27L N6L 1_555 1_555
H25L C27L 1_555 1_555
H26L C27L 1_555 1_555
H27L C27L 1_555 1_555
O8L Mn3 1_555 1_555
O9L Mn1L 1_555 1_555
O10L Mn3 1_555 1_555
N7L Mn3 1_555 1_555
N8L Mn1L 1_555 1_555
C28L O8L 1_555 1_555
C29L C28L 1_555 1_555
C30L C29L 1_555 1_555
H28L C30L 1_555 1_555
C31L C30L 1_555 1_555
H29L C31L 1_555 1_555
C32L C31L 1_555 1_555
H30L C32L 1_555 1_555
C33L C28L 1_555 1_555
H31L C33L 1_555 1_555
C34L O9L 1_555 1_555
C35L O10L 1_555 1_555
C36L C35L 1_555 1_555
H32L C36L 1_555 1_555
H33L C36L 1_555 1_555
H34L C36L 1_555 1_555
Mn1I N3 1_555 1_555
N3O Mn1 1_555 1_555
Mn3L O8 1_555 1_555
Mn1E N3L 1_555 1_555
N3L C10L 1_555 1_555
C10L H8L 1_555 1_555
C11L C10L 1_555 1_555
H9L C11L 1_555 1_555
C12L C11L 1_555 1_555
C13L C12L 1_555 1_555
H10L C13L 1_555 1_555
C14L N3L 1_555 1_555
H11L C14L 1_555 1_555
C15L C12L 1_555 1_555
H12L C15L 1_555 1_555
H13L C15L 1_555 1_555
N9L Mn3L 1_555 1_555
C37L N9L 1_555 1_555
H35L C37L 1_555 1_555
C38L C37L 1_555 1_555
H36L C38L 1_555 1_555
C39L C38L 1_555 1_555
C40L C39L 1_555 1_555
H37L C40L 1_555 1_555
C41L N9L 1_555 1_555
H38L C41L 1_555 1_555
C42L C15L 1_555 1_555
H39L C42L 1_555 1_555
H40L C42L 1_555 1_555
N2 Mn2 1_555 1_555
N2 C8 1_555 1_555
C2 C7 1_555 1_555
C5 C6 1_555 1_555
C13 C14 1_555 1_555
N5 C23 1_555 1_555
N5 Mn3 1_555 1_555
C17 C22 1_555 1_555
C20 C21 1_555 1_555
O10 Mn3L 1_555 1_555
N7 C34 1_555 1_555
N7 Mn3L 1_555 1_555
C29 C34 1_555 1_555
C32 C33 1_555 1_555
C39 C42 1_555 1_555
C40 C41 1_555 1_555
N2L Mn2L 1_555 1_555
N2L C8L 1_555 1_555
C2L C7L 1_555 1_555
C5L C6L 1_555 1_555
O5L Mn3L 1_555 1_555
N5L Mn3L 1_555 1_555
N5L C23L 1_555 1_555
C17L C22L 1_555 1_555
C20L C21L 1_555 1_555
N7L N8L 1_555 1_555
N7L C34L 1_555 1_555
N8L C35L 1_555 1_555
C29L C34L 1_555 1_555
C32L C33L 1_555 1_555
C13L C14L 1_555 1_555
C39L C42L 1_555 1_555
C40L C41L 1_555 1_555

#END
