
#######################################################################
#
#                 Cambridge Crystallographic Data Centre
#                                CCDC 
#
#######################################################################
#
# If this CIF has been generated from an entry in the Cambridge 
# Structural Database, then it will include bibliographic, chemical, 
# crystal, experimental, refinement or atomic coordinate data resulting 
# from the CCDC's data processing and validation procedures.
#
#######################################################################

data_RAWPIP
_chemical_formula_moiety         '(C36 H32 Cl1 N6 O5 Zn1 1+)n'
_symmetry_cell_setting           monoclinic
_symmetry_space_group_name_H-M   'C 2/c'
_symmetry_Int_Tables_number      15
_space_group_name_Hall           '-C 2yc'
loop_
_symmetry_equiv_pos_site_id
_symmetry_equiv_pos_as_xyz
1 x,y,z
2 1/2+x,1/2+y,z
3 -x,y,1/2-z
4 1/2-x,1/2+y,1/2-z
5 -x,-y,-z
6 1/2-x,1/2-y,-z
7 x,-y,1/2+z
8 1/2+x,1/2-y,1/2+z
_cell_length_a                   12.602(3)
_cell_length_b                   15.129(3)
_cell_length_c                   18.549(4)
_cell_angle_alpha                90
_cell_angle_beta                 96.599(4)
_cell_angle_gamma                90
_cell_volume                     3513.04
loop_
_atom_site_label
_atom_site_type_symbol
_atom_site_fract_x
_atom_site_fract_y
_atom_site_fract_z
_atom_site_U_iso_or_equiv
_atom_site_thermal_displace_type
Zn1 Zn 0.5000 0.53745(2) 0.7500 0.0266 Uani
O1 O 0.5000 0.40855(15) 0.7500 0.0398 Uani
H1 H 0.488(3) 0.379(2) 0.7133(15) 0.0670 Uiso
N1 N 0.43016(14) 0.59657(13) 0.83126(10) 0.0297 Uani
C1 C 0.3977(2) 0.68017(17) 0.82670(13) 0.0407 Uani
H2 H 0.4085 0.7126 0.7856 0.0490 Uiso
C2 C 0.3483(2) 0.72074(17) 0.88085(15) 0.0453 Uani
H3 H 0.3275 0.7796 0.8758 0.0540 Uiso
C3 C 0.32984(18) 0.67430(17) 0.94232(13) 0.0352 Uani
C4 C 0.3653(2) 0.58783(19) 0.94679(14) 0.0447 Uani
H4 H 0.3562 0.5541 0.9875 0.0540 Uiso
C5 C 0.4138(2) 0.55186(16) 0.89130(14) 0.0406 Uani
H5 H 0.4365 0.4934 0.8955 0.0490 Uiso
C6 C 0.2726(2) 0.71105(16) 1.00040(14) 0.0415 Uani
H6 H 0.2682 0.6759 1.0411 0.0500 Uiso
N2 N 0.34172(16) 0.53391(12) 0.68019(11) 0.0326 Uani
C7 C 0.31780(19) 0.57109(16) 0.61480(13) 0.0361 Uani
H7 H 0.3661 0.6111 0.5990 0.0430 Uiso
C8 C 0.2252(2) 0.55323(16) 0.56942(13) 0.0381 Uani
H8 H 0.2134 0.5800 0.5241 0.0460 Uiso
C9 C 0.15031(18) 0.49571(16) 0.59160(13) 0.0323 Uani
C10 C 0.1709(2) 0.46210(16) 0.66175(14) 0.0408 Uani
H9 H 0.1207 0.4267 0.6808 0.0490 Uiso
C11 C 0.2664(2) 0.48170(18) 0.70262(14) 0.0436 Uani
H10 H 0.2792 0.4571 0.7487 0.0520 Uiso
C12 C 0.05001(19) 0.46772(15) 0.54572(13) 0.0337 Uani
H11 H 0.0283 0.4092 0.5613 0.0400 Uiso
C13 C -0.04943(19) 0.53158(15) 0.53836(13) 0.0336 Uani
H12 H -0.1124 0.4999 0.5513 0.0400 Uiso
C14 C -0.03889(18) 0.61899(16) 0.57779(13) 0.0381 Uani
C15 C 0.0179(2) 0.68974(18) 0.55497(15) 0.0460 Uani
H13 H 0.0543 0.6847 0.5143 0.0550 Uiso
C16 C 0.0201(2) 0.76859(19) 0.59373(17) 0.0539 Uani
H14 H 0.0598 0.8153 0.5783 0.0650 Uiso
N3 N -0.0309(2) 0.78084(16) 0.65106(14) 0.0573 Uani
C17 C -0.0830(3) 0.7116(2) 0.67429(17) 0.0585 Uani
H15 H -0.1179 0.7185 0.7155 0.0700 Uiso
C18 C -0.0881(2) 0.62955(19) 0.64017(14) 0.0465 Uani
H16 H -0.1238 0.5826 0.6590 0.0560 Uiso
Zn1G Zn -0.0000 0.96255(2) 1.2500 0.0266 Uani
Zn1F Zn -0.5000 0.46255(2) 0.2500 0.0266 Uani
H1B H 0.512(3) 0.379(2) 0.7867(15) 0.0670 Uiso
N1E N 0.06984(14) 0.90343(13) 1.16874(10) 0.0297 Uani
N1B N 0.56984(14) 0.59657(13) 0.66874(10) 0.0297 Uani
C1E C 0.1023(2) 0.81983(17) 1.17330(13) 0.0407 Uani
H2E H 0.0915 0.7874 1.2144 0.0490 Uiso
C2E C 0.1517(2) 0.77926(17) 1.11915(15) 0.0453 Uani
H3E H 0.1725 0.7204 1.1242 0.0540 Uiso
C3E C 0.17016(18) 0.82570(17) 1.05768(13) 0.0352 Uani
C4E C 0.1347(2) 0.91217(19) 1.05321(14) 0.0447 Uani
H4E H 0.1438 0.9459 1.0125 0.0540 Uiso
C5E C 0.0862(2) 0.94814(16) 1.10870(14) 0.0406 Uani
H5E H 0.0635 1.0066 1.1045 0.0490 Uiso
C6E C 0.2274(2) 0.78895(16) 0.99960(14) 0.0415 Uani
H6E H 0.2318 0.8241 0.9589 0.0500 Uiso
N2D N -0.34172(16) 0.46609(12) 0.31981(11) 0.0326 Uani
N2B N 0.65828(16) 0.53391(12) 0.81981(11) 0.0326 Uani
C7D C -0.31780(19) 0.42891(16) 0.38520(13) 0.0361 Uani
H7D H -0.3661 0.3889 0.4010 0.0430 Uiso
C8D C -0.2252(2) 0.44677(16) 0.43058(13) 0.0381 Uani
H8D H -0.2134 0.4200 0.4759 0.0460 Uiso
C9D C -0.15031(18) 0.50429(16) 0.40840(13) 0.0323 Uani
C10D C -0.1709(2) 0.53790(16) 0.33825(14) 0.0408 Uani
H9D H -0.1207 0.5733 0.3192 0.0490 Uiso
C11D C -0.2664(2) 0.51830(18) 0.29738(14) 0.0436 Uani
H10D H -0.2792 0.5429 0.2513 0.0520 Uiso
C12D C -0.05001(19) 0.53228(15) 0.45428(13) 0.0337 Uani
H11D H -0.0283 0.5908 0.4387 0.0400 Uiso
C13D C 0.04943(19) 0.46842(15) 0.46164(13) 0.0336 Uani
H12D H 0.1124 0.5001 0.4487 0.0400 Uiso
C14D C 0.03889(18) 0.38101(16) 0.42221(13) 0.0381 Uani
C15D C -0.0179(2) 0.31026(18) 0.44503(15) 0.0460 Uani
H13D H -0.0543 0.3153 0.4857 0.0550 Uiso
C16D C -0.0201(2) 0.23141(19) 0.40627(17) 0.0539 Uani
H14D H -0.0598 0.1847 0.4217 0.0650 Uiso
N3D N 0.0309(2) 0.21916(16) 0.34894(14) 0.0573 Uani
C17D C 0.0830(3) 0.2884(2) 0.32571(17) 0.0585 Uani
H15D H 0.1179 0.2815 0.2845 0.0700 Uiso
C18D C 0.0881(2) 0.37045(19) 0.35983(14) 0.0465 Uani
H16D H 0.1238 0.4174 0.3410 0.0560 Uiso
Cl1 Cl 0.68191(6) 0.83145(5) 0.85546(4) 0.0527 Uani
O2 O 0.7375(2) 0.7833(2) 0.80687(15) 0.0972 Uani
O3 O 0.7533(5) 0.9058(4) 0.8781(4) 0.0363 Uiso
O4 O 0.5853(6) 0.8611(6) 0.8131(4) 0.0610 Uiso
O5 O 0.6566(7) 0.7845(4) 0.9180(4) 0.0544 Uiso
loop_
_atom_site_aniso_label
_atom_site_aniso_U_11
_atom_site_aniso_U_22
_atom_site_aniso_U_33
_atom_site_aniso_U_23
_atom_site_aniso_U_13
_atom_site_aniso_U_12
Zn1 0.0333(2) 0.0250(2) 0.0225(2) 0.000 0.00765(14) 0.000
O1 0.0608(17) 0.0228(12) 0.0331(14) 0.000 -0.0064(12) 0.000
N1 0.0302(10) 0.0334(10) 0.0260(9) -0.0028(8) 0.0058(7) 0.0014(8)
C1 0.0494(15) 0.0388(13) 0.0361(13) 0.0063(11) 0.0150(11) 0.0111(11)
C2 0.0523(16) 0.0336(13) 0.0534(16) -0.0019(12) 0.0210(13) 0.0095(11)
C3 0.0318(13) 0.0420(14) 0.0329(12) -0.0108(10) 0.0087(10) -0.0049(10)
C4 0.0532(16) 0.0483(16) 0.0358(14) 0.0049(12) 0.0187(11) 0.0012(12)
C5 0.0492(15) 0.0345(13) 0.0403(14) 0.0006(11) 0.0146(12) 0.0057(11)
C6 0.0411(14) 0.0473(14) 0.0378(13) -0.0089(12) 0.0116(11) -0.0031(11)
N2 0.0312(10) 0.0377(11) 0.0280(10) 0.0017(8) -0.0008(8) -0.0010(8)
C7 0.0359(13) 0.0355(13) 0.0362(13) 0.0024(10) 0.0012(10) -0.0008(10)
C8 0.0442(15) 0.0413(13) 0.0273(12) 0.0030(10) -0.0027(10) 0.0026(11)
C9 0.0307(12) 0.0308(11) 0.0347(12) -0.0081(10) 0.0005(10) 0.0046(9)
C10 0.0367(14) 0.0469(15) 0.0382(14) 0.0023(11) 0.0019(11) -0.0060(11)
C11 0.0387(14) 0.0579(17) 0.0329(13) 0.0081(12) -0.0011(11) -0.0063(12)
C12 0.0360(13) 0.0305(12) 0.0339(13) -0.0047(9) 0.0010(10) 0.0007(9)
C13 0.0286(12) 0.0372(13) 0.0341(13) -0.0072(10) 0.0003(9) -0.0009(9)
C14 0.0283(12) 0.0417(14) 0.0417(14) -0.0131(11) -0.0070(10) 0.0053(10)
C15 0.0399(14) 0.0469(15) 0.0501(16) -0.0115(13) 0.0000(12) 0.0039(12)
C16 0.0490(17) 0.0445(15) 0.0647(19) -0.0132(14) -0.0080(15) 0.0015(12)
N3 0.0590(16) 0.0493(15) 0.0598(16) -0.0255(13) -0.0091(13) 0.0094(12)
C17 0.0611(19) 0.066(2) 0.0462(17) -0.0231(15) -0.0030(14) 0.0125(16)
C18 0.0477(16) 0.0503(16) 0.0398(14) -0.0114(12) -0.0022(12) 0.0051(12)
Zn1G 0.0333 0.025 0.0225 0 0.00765 0
Zn1F 0.0333 0.025 0.0225 0 0.00765 0
N1E 0.0302 0.0334 0.026 -0.0028 0.0058 0.0014
N1B 0.0302 0.0334 0.026 0.0028 0.0058 -0.0014
C1E 0.0494 0.0388 0.0361 0.0063 0.015 0.0111
C2E 0.0523 0.0336 0.0534 -0.0019 0.021 0.0095
C3E 0.0318 0.042 0.0329 -0.0108 0.0087 -0.0049
C4E 0.0532 0.0483 0.0358 0.0049 0.0187 0.0012
C5E 0.0492 0.0345 0.0403 0.0006 0.0146 0.0057
C6E 0.0411 0.0473 0.0378 -0.0089 0.0116 -0.0031
N2D 0.0312 0.0377 0.028 0.0017 -0.0008 -0.001
N2B 0.0312 0.0377 0.028 -0.0017 -0.0008 0.001
C7D 0.0359 0.0355 0.0362 0.0024 0.0012 -0.0008
C8D 0.0442 0.0413 0.0273 0.003 -0.0027 0.0026
C9D 0.0307 0.0308 0.0347 -0.0081 0.0005 0.0046
C10D 0.0367 0.0469 0.0382 0.0023 0.0019 -0.006
C11D 0.0387 0.0579 0.0329 0.0081 -0.0011 -0.0063
C12D 0.036 0.0305 0.0339 -0.0047 0.001 0.0007
C13D 0.0286 0.0372 0.0341 -0.0072 0.0003 -0.0009
C14D 0.0283 0.0417 0.0417 -0.0131 -0.007 0.0053
C15D 0.0399 0.0469 0.0501 -0.0115 0 0.0039
C16D 0.049 0.0445 0.0647 -0.0132 -0.008 0.0015
N3D 0.059 0.0493 0.0598 -0.0255 -0.0091 0.0094
C17D 0.0611 0.066 0.0462 -0.0231 -0.003 0.0125
C18D 0.0477 0.0503 0.0398 -0.0114 -0.0022 0.0051
Cl1 0.0578(5) 0.0564(4) 0.0461(4) -0.0082(3) 0.0155(3) -0.0108(3)
O2 0.0955(19) 0.119(2) 0.0811(18) -0.0506(17) 0.0279(15) 0.0013(17)
loop_
_geom_bond_atom_site_label_1
_geom_bond_atom_site_label_2
_geom_bond_site_symmetry_1
_geom_bond_site_symmetry_2
Zn1 O1 1_555 1_555
O1 H1 1_555 1_555
N1 Zn1 1_555 1_555
C1 N1 1_555 1_555
H2 C1 1_555 1_555
C2 C1 1_555 1_555
H3 C2 1_555 1_555
C3 C2 1_555 1_555
C4 C3 1_555 1_555
H4 C4 1_555 1_555
C5 N1 1_555 1_555
H5 C5 1_555 1_555
C6 C3 1_555 1_555
H6 C6 1_555 1_555
N2 Zn1 1_555 1_555
C7 N2 1_555 1_555
H7 C7 1_555 1_555
C8 C7 1_555 1_555
H8 C8 1_555 1_555
C9 C8 1_555 1_555
C10 C9 1_555 1_555
H9 C10 1_555 1_555
C11 N2 1_555 1_555
H10 C11 1_555 1_555
C12 C9 1_555 1_555
H11 C12 1_555 1_555
C13 C12 1_555 1_555
H12 C13 1_555 1_555
C14 C13 1_555 1_555
C15 C14 1_555 1_555
H13 C15 1_555 1_555
C16 C15 1_555 1_555
H14 C16 1_555 1_555
N3 C16 1_555 1_555
C17 N3 1_555 1_555
H15 C17 1_555 1_555
C18 C14 1_555 1_555
H16 C18 1_555 1_555
Cl1 O2 1_555 1_555
O3 Cl1 1_555 1_555
O4 Cl1 1_555 1_555
O5 Cl1 1_555 1_555
Zn1G N1E 1_555 1_555
Zn1F N2D 1_555 1_555
H1B O1 1_555 1_555
N1E C1E 1_555 1_555
N1B Zn1 1_555 1_555
C1E H2E 1_555 1_555
C2E C1E 1_555 1_555
H3E C2E 1_555 1_555
C3E C2E 1_555 1_555
C4E C3E 1_555 1_555
H4E C4E 1_555 1_555
C5E N1E 1_555 1_555
H5E C5E 1_555 1_555
C6E C6 1_555 1_555
H6E C6E 1_555 1_555
N2D C7D 1_555 1_555
N2B Zn1 1_555 1_555
C7D H7D 1_555 1_555
C8D C7D 1_555 1_555
H8D C8D 1_555 1_555
C9D C8D 1_555 1_555
C10D C9D 1_555 1_555
H9D C10D 1_555 1_555
C11D N2D 1_555 1_555
H10D C11D 1_555 1_555
C12D C13 1_555 1_555
H11D C12D 1_555 1_555
C13D C12 1_555 1_555
H12D C13D 1_555 1_555
C14D C13D 1_555 1_555
C15D C14D 1_555 1_555
H13D C15D 1_555 1_555
C16D C15D 1_555 1_555
H14D C16D 1_555 1_555
N3D C16D 1_555 1_555
C17D N3D 1_555 1_555
H15D C17D 1_555 1_555
C18D C14D 1_555 1_555
H16D C18D 1_555 1_555
C4 C5 1_555 1_555
C10 C11 1_555 1_555
C17 C18 1_555 1_555
C3E C6E 1_555 1_555
C4E C5E 1_555 1_555
C9D C12D 1_555 1_555
C10D C11D 1_555 1_555
C12D C13D 1_555 1_555
C17D C18D 1_555 1_555

#END
