
#######################################################################
#
#                 Cambridge Crystallographic Data Centre
#                                CCDC 
#
#######################################################################
#
# If this CIF has been generated from an entry in the Cambridge 
# Structural Database, then it will include bibliographic, chemical, 
# crystal, experimental, refinement or atomic coordinate data resulting 
# from the CCDC's data processing and validation procedures.
#
#######################################################################

data_KEJQAR
_chemical_formula_moiety         '(C9 H48 Al9 N4 O51 P12 12-)n'
_symmetry_cell_setting           cubic
_symmetry_space_group_name_H-M   'I -4 3 m'
_symmetry_Int_Tables_number      217
_space_group_name_Hall           'I -4 2 3'
loop_
_symmetry_equiv_pos_site_id
_symmetry_equiv_pos_as_xyz
1 x,y,z
2 y,-x,-z
3 x,-y,-z
4 z,x,y
5 -x,-y,z
6 -y,-x,z
7 x,-z,-y
8 -y,x,-z
9 -x,y,-z
10 -z,-x,y
11 y,x,z
12 -x,z,-y
13 z,-x,-y
14 x,z,y
15 -z,x,-y
16 -x,-z,y
17 y,z,x
18 z,-y,-x
19 -z,-y,x
20 y,-z,-x
21 z,y,x
22 -y,z,-x
23 -y,-z,x
24 -z,y,-x
25 1/2+x,1/2+y,1/2+z
26 1/2+y,1/2-x,1/2-z
27 1/2+x,1/2-y,1/2-z
28 1/2+z,1/2+x,1/2+y
29 1/2-x,1/2-y,1/2+z
30 1/2-y,1/2-x,1/2+z
31 1/2+x,1/2-z,1/2-y
32 1/2-y,1/2+x,1/2-z
33 1/2-x,1/2+y,1/2-z
34 1/2-z,1/2-x,1/2+y
35 1/2+y,1/2+x,1/2+z
36 1/2-x,1/2+z,1/2-y
37 1/2+z,1/2-x,1/2-y
38 1/2+x,1/2+z,1/2+y
39 1/2-z,1/2+x,1/2-y
40 1/2-x,1/2-z,1/2+y
41 1/2+y,1/2+z,1/2+x
42 1/2+z,1/2-y,1/2-x
43 1/2-z,1/2-y,1/2+x
44 1/2+y,1/2-z,1/2-x
45 1/2+z,1/2+y,1/2+x
46 1/2-y,1/2+z,1/2-x
47 1/2-y,1/2-z,1/2+x
48 1/2-z,1/2+y,1/2-x
_cell_length_a                   16.7963(13)
_cell_length_b                   16.7963(13)
_cell_length_c                   16.7963(13)
_cell_angle_alpha                90
_cell_angle_beta                 90
_cell_angle_gamma                90
_cell_volume                     4738.5
loop_
_atom_site_label
_atom_site_type_symbol
_atom_site_fract_x
_atom_site_fract_y
_atom_site_fract_z
N1 N -0.2000(3) 0.2000(3) -0.2000(3)
C1 C -0.1795(5) 0.2447(5) -0.1275(6)
C2 C -0.1449(3) 0.3290(4) -0.1449(3)
N2 N -0.1968(2) 0.3759(3) -0.1968(2)
H1 H -0.1403(5) 0.2146(5) -0.0988(6)
H2 H -0.2260(5) 0.2496(5) -0.0947(6)
H3 H -0.0938(3) 0.3234(4) -0.1701(3)
H4 H -0.1375(3) 0.3583(4) -0.0966(3)
H5 H -0.1753(2) 0.4239(3) -0.2062(2)
H6 H -0.2031(2) 0.3492(3) -0.2422(2)
H7 H -0.2445(2) 0.3823(3) -0.1726(2)
C1E C -0.2447(5) 0.1795(5) -0.1275(6)
C1F C -0.1795(5) 0.1275(6) -0.2447(5)
C1V C -0.2447(5) 0.1275(6) -0.1795(5)
C1L C -0.1275(6) 0.1795(5) -0.2447(5)
C1T C -0.1275(6) 0.2447(5) -0.1795(5)
H1T H -0.0988(6) 0.2146(5) -0.1403(5)
H2T H -0.0947(6) 0.2496(5) -0.2260(5)
H2L H -0.0947(6) 0.2260(5) -0.2496(5)
C2F C -0.1449(3) 0.1449(3) -0.3290(4)
H1L H -0.0988(6) 0.1403(5) -0.2146(5)
N2F N -0.1968(2) 0.1968(2) -0.3759(3)
H5F H -0.1753(2) 0.2062(2) -0.4239(3)
H5L H -0.2062(2) 0.1753(2) -0.4239(3)
H6F H -0.2031(2) 0.2422(2) -0.3492(3)
H7L H -0.1726(2) 0.2445(2) -0.3823(3)
H6L H -0.2422(2) 0.2031(2) -0.3492(3)
H7F H -0.2445(2) 0.1726(2) -0.3823(3)
H3F H -0.0938(3) 0.1701(3) -0.3234(4)
H4L H -0.0966(3) 0.1375(3) -0.3583(4)
H3L H -0.1701(3) 0.0938(3) -0.3234(4)
H4F H -0.1375(3) 0.0966(3) -0.3583(4)
H1F H -0.1403(5) 0.0988(6) -0.2146(5)
H2F H -0.2260(5) 0.0947(6) -0.2496(5)
H2V H -0.2496(5) 0.0947(6) -0.2260(5)
C2E C -0.3290(4) 0.1449(3) -0.1449(3)
H1V H -0.2146(5) 0.0988(6) -0.1403(5)
N2E N -0.3759(3) 0.1968(2) -0.1968(2)
H5E H -0.4239(3) 0.1753(2) -0.2062(2)
H5V H -0.4239(3) 0.2062(2) -0.1753(2)
H6E H -0.3492(3) 0.2031(2) -0.2422(2)
H7V H -0.3823(3) 0.1726(2) -0.2445(2)
H6V H -0.3492(3) 0.2422(2) -0.2031(2)
H7E H -0.3823(3) 0.2445(2) -0.1726(2)
H3E H -0.3234(4) 0.0938(3) -0.1701(3)
H4V H -0.3583(4) 0.0966(3) -0.1375(3)
H3V H -0.3234(4) 0.1701(3) -0.0938(3)
H4E H -0.3583(4) 0.1375(3) -0.0966(3)
H1E H -0.2146(5) 0.1403(5) -0.0988(6)
H2E H -0.2496(5) 0.2260(5) -0.0947(6)
H5T H -0.2062(2) 0.4239(3) -0.1753(2)
H7T H -0.1726(2) 0.3823(3) -0.2445(2)
H6T H -0.2422(2) 0.3492(3) -0.2031(2)
H4T H -0.0966(3) 0.3583(4) -0.1375(3)
H3T H -0.1701(3) 0.3234(4) -0.0938(3)
O4 O 0.0000 0.0000 0.0000
O5 O -0.0935(4) 0.0935(4) 0.0935(4)
O6 O -0.0495(6) 0.2421(8) 0.0495(6)
Al1 Al 0.0000 0.5000 0.0000
P1 P -0.1222(1) 0.4336(1) 0.1222(1)
Al2 Al 0.0000 0.5000 0.2500
O1 O -0.1410(2) 0.3471(3) 0.1410(2)
O2 O -0.0904(3) 0.4800(2) 0.1941(2)
O3 O -0.0575(2) 0.4374(3) 0.0575(2)
O2D O 0.0904(3) 0.5200(2) 0.1941(2)
P1D P 0.1222(1) 0.5664(1) 0.1222(1)
O1D O 0.1410(2) 0.6529(3) 0.1410(2)
O2Q O 0.1941(2) 0.5200(2) 0.0904(3)
Al2Q Al 0.2500 0.5000 0.0000
O2T O 0.1941(2) 0.4800(2) -0.0904(3)
P1T P 0.1222(1) 0.4336(1) -0.1222(1)
O1T O 0.1410(2) 0.3471(3) -0.1410(2)
O2H O 0.0904(3) 0.4800(2) -0.1941(2)
Al2H Al 0.0000 0.5000 -0.2500
O2B O -0.0904(3) 0.5200(2) -0.1941(2)
P1B P -0.1222(1) 0.5664(1) -0.1222(1)
O1B O -0.1410(2) 0.6529(3) -0.1410(2)
O2R O -0.1941(2) 0.5200(2) -0.0904(3)
Al2R Al -0.2500 0.5000 0.0000
O2W O -0.1941(2) 0.4800(2) 0.0904(3)
O2AA O -0.3059(2) 0.4096(3) -0.0200(2)
P1AA P -0.3778(1) 0.3778(1) -0.0664(1)
O1AA O -0.3590(2) 0.3590(2) -0.1529(3)
O2MA O -0.4096(3) 0.3059(2) -0.0200(2)
Al2MA Al -0.5000 0.2500 0.0000
O2DA O -0.5904(3) 0.3059(2) 0.0200(2)
P1DA P -0.6222(1) 0.3778(1) 0.0664(1)
O1DA O -0.6410(2) 0.3590(2) 0.1529(3)
O2LA O -0.6941(2) 0.4096(3) 0.0200(2)
Al2LA Al -0.7500 0.5000 0.0000
O2GA O -0.6941(2) 0.5904(3) -0.0200(2)
P1GA P -0.6222(1) 0.6222(1) -0.0664(1)
O1GA O -0.6410(2) 0.6410(2) -0.1529(3)
O2KA O -0.5904(3) 0.6941(2) -0.0200(2)
Al2KA Al -0.5000 0.7500 0.0000
O2IA O -0.4096(3) 0.6941(2) 0.0200(2)
P1IA P -0.3778(1) 0.6222(1) 0.0664(1)
O1IA O -0.3590(2) 0.6410(2) 0.1529(3)
O2JA O -0.3059(2) 0.5904(3) 0.0200(2)
O3IA O -0.4425(2) 0.5575(2) 0.0626(3)
Al1IA Al -0.5000 0.5000 0.0000
O3MA O -0.4425(2) 0.4425(2) -0.0626(3)
O3KA O -0.5575(2) 0.5575(2) -0.0626(3)
O3DA O -0.5575(2) 0.4425(2) 0.0626(3)
O2S O -0.5200(2) 0.8059(2) 0.0904(3)
O2V O -0.4800(2) 0.8059(2) -0.0904(3)
O2T_2 O -0.8059(2) 0.4800(2) -0.0904(3)
O2Q_2 O -0.8059(2) 0.5200(2) 0.0904(3)
O2U O -0.4800(2) 0.1941(2) 0.0904(3)
O2P O -0.5200(2) 0.1941(2) -0.0904(3)
O3B O -0.0575(2) 0.5626(3) -0.0575(2)
O3D O 0.0575(2) 0.5626(3) 0.0575(2)
O3H O 0.0575(2) 0.4374(3) -0.0575(2)
O2CA O 0.0200(2) 0.5904(3) -0.3059(2)
O2HA O -0.0200(2) 0.4096(3) -0.3059(2)
O2LA_2 O 0.3059(2) 0.4096(3) 0.0200(2)
O2GA_2 O 0.3059(2) 0.5904(3) -0.0200(2)
O2Y O -0.0200(2) 0.5904(3) 0.3059(2)
O2EA O 0.0200(2) 0.4096(3) 0.3059(2)
P1H P -0.8778(1) 0.4336(1) -0.1222(1)
P1D_2 P -0.8778(1) 0.5664(1) 0.1222(1)
P1DA_2 P 0.3778(1) 0.3778(1) 0.0664(1)
P1GA_2 P 0.3778(1) 0.6222(1) -0.0664(1)
O1H O -0.8590(2) 0.3471(3) -0.1410(2)
O2H_2 O -0.9096(3) 0.4800(2) -0.1941(2)
O3H_2 O -0.9425(2) 0.4374(3) -0.0575(2)
O1D_2 O -0.8590(2) 0.6529(3) 0.1410(2)
O2D_2 O -0.9096(3) 0.5200(2) 0.1941(2)
O3D_2 O -0.9425(2) 0.5626(3) 0.0575(2)
O1DA_2 O 0.3590(2) 0.3590(2) 0.1529(3)
O2DA_2 O 0.4096(3) 0.3059(2) 0.0200(2)
O3DA_2 O 0.4425(2) 0.4425(2) 0.0626(3)
O1GA_2 O 0.3590(2) 0.6410(2) -0.1529(3)
O2KA_2 O 0.4096(3) 0.6941(2) -0.0200(2)
O3GA O 0.4425(2) 0.5575(2) -0.0626(3)
Al2B Al -1.0000 0.5000 -0.2500
Al1_2 Al -1.0000 0.5000 0.0000
Al2_2 Al -1.0000 0.5000 0.2500
Al2P Al 0.5000 0.2500 0.0000
Al1AA Al 0.5000 0.5000 0.0000
Al2S Al 0.5000 0.7500 0.0000
loop_
_geom_bond_atom_site_label_1
_geom_bond_atom_site_label_2
_geom_bond_site_symmetry_1
_geom_bond_site_symmetry_2
Al1 O3 1_555 1_555
P1 O1 1_555 1_555
Al2 O2 1_555 1_555
O2 P1 1_555 1_555
O3 P1 1_555 1_555
N1 C1 1_555 1_555
C1 C2 1_555 1_555
C2 N2 1_555 1_555
N2 H5 1_555 1_555
H1 C1 1_555 1_555
H2 C1 1_555 1_555
H3 C2 1_555 1_555
H4 C2 1_555 1_555
H5 H5T 1_555 1_555
H6 N2 1_555 1_555
H7 N2 1_555 1_555
O2D Al2 1_555 1_555
P1D O2D 1_555 1_555
O1D P1D 1_555 1_555
O2Q P1D 1_555 1_555
Al2Q O2Q 1_555 1_555
O2T Al2Q 1_555 1_555
P1T O2T 1_555 1_555
O1T P1T 1_555 1_555
O2H P1T 1_555 1_555
Al2H O2H 1_555 1_555
O2B Al2H 1_555 1_555
P1B O2B 1_555 1_555
O1B P1B 1_555 1_555
O2R P1B 1_555 1_555
Al2R O2R 1_555 1_555
O2W P1 1_555 1_555
O2AA Al2R 1_555 1_555
P1AA O2AA 1_555 1_555
O1AA P1AA 1_555 1_555
O2MA P1AA 1_555 1_555
Al2MA O2MA 1_555 1_555
O2DA Al2MA 1_555 1_555
P1DA O2DA 1_555 1_555
O1DA P1DA 1_555 1_555
O2LA P1DA 1_555 1_555
Al2LA O2LA 1_555 1_555
O2GA Al2LA 1_555 1_555
P1GA O2GA 1_555 1_555
O1GA P1GA 1_555 1_555
O2KA P1GA 1_555 1_555
Al2KA O2KA 1_555 1_555
O2IA Al2KA 1_555 1_555
P1IA O2IA 1_555 1_555
O1IA P1IA 1_555 1_555
O2JA Al2R 1_555 1_555
O3IA P1IA 1_555 1_555
Al1IA O3IA 1_555 1_555
O3MA P1AA 1_555 1_555
O3KA P1GA 1_555 1_555
O3DA P1DA 1_555 1_555
O2S Al2KA 1_555 1_555
O2V Al2KA 1_555 1_555
O2T_2 Al2LA 1_555 1_555
O2Q_2 Al2LA 1_555 1_555
O2U Al2MA 1_555 1_555
O2P Al2MA 1_555 1_555
O3B Al1 1_555 1_555
O3D Al1 1_555 1_555
O3H Al1 1_555 1_555
O2CA Al2H 1_555 1_555
O2HA Al2H 1_555 1_555
O2LA_2 Al2Q 1_555 1_555
O2GA_2 Al2Q 1_555 1_555
O2Y Al2 1_555 1_555
O2EA Al2 1_555 1_555
C1E N1 1_555 1_555
C1F N1 1_555 1_555
C1V N1 1_555 1_555
C1L N1 1_555 1_555
C1T N1 1_555 1_555
H1T C1T 1_555 1_555
H2T C1T 1_555 1_555
H2L C1L 1_555 1_555
C2F C1F 1_555 1_555
H1L C1L 1_555 1_555
N2F C2F 1_555 1_555
H5F N2F 1_555 1_555
H5L N2F 1_555 1_555
H6F N2F 1_555 1_555
H7L N2F 1_555 1_555
H6L N2F 1_555 1_555
H7F N2F 1_555 1_555
H3F C2F 1_555 1_555
H4L C2F 1_555 1_555
H3L C2F 1_555 1_555
H4F C2F 1_555 1_555
H1F C1F 1_555 1_555
H2F C1F 1_555 1_555
H2V C1V 1_555 1_555
C2E C1E 1_555 1_555
H1V C1V 1_555 1_555
N2E C2E 1_555 1_555
H5E N2E 1_555 1_555
H5V N2E 1_555 1_555
H6E N2E 1_555 1_555
H7V N2E 1_555 1_555
H6V N2E 1_555 1_555
H7E N2E 1_555 1_555
H3E C2E 1_555 1_555
H4V C2E 1_555 1_555
H3V C2E 1_555 1_555
H4E C2E 1_555 1_555
H1E C1E 1_555 1_555
H2E H2 1_555 1_555
H5T N2 1_555 1_555
H7T N2 1_555 1_555
H6T N2 1_555 1_555
H4T C2 1_555 1_555
H3T C2 1_555 1_555
P1H O2T_2 1_555 1_555
P1D_2 O2Q_2 1_555 1_555
P1DA_2 O2LA_2 1_555 1_555
P1GA_2 O2GA_2 1_555 1_555
O1H P1H 1_555 1_555
O2H_2 P1H 1_555 1_555
O3H_2 P1H 1_555 1_555
O1D_2 P1D_2 1_555 1_555
O2D_2 P1D_2 1_555 1_555
O3D_2 P1D_2 1_555 1_555
O1DA_2 P1DA_2 1_555 1_555
O2DA_2 P1DA_2 1_555 1_555
O3DA_2 P1DA_2 1_555 1_555
O1GA_2 P1GA_2 1_555 1_555
O2KA_2 P1GA_2 1_555 1_555
O3GA P1GA_2 1_555 1_555
Al2B O2H_2 1_555 1_555
Al1_2 O3H_2 1_555 1_555
Al2_2 O2D_2 1_555 1_555
Al2P O2DA_2 1_555 1_555
Al1AA O3DA_2 1_555 1_555
Al2S O2KA_2 1_555 1_555
C1 C1E 1_555 1_555
C1 C1T 1_555 1_555
C2 C1T 1_555 1_555
H3 H4T 1_555 1_555
H4 H3T 1_555 1_555
H6 H7T 1_555 1_555
H7 H6T 1_555 1_555
P1D O3D 1_555 1_555
P1T O3H 1_555 1_555
P1B O3B 1_555 1_555
Al2R O2W 1_555 1_555
P1IA O2JA 1_555 1_555
Al1IA O3MA 1_555 1_555
Al1IA O3KA 1_555 1_555
Al1IA O3DA 1_555 1_555
C1E H2E 1_555 1_555
C1E C1V 1_555 1_555
C1F C1V 1_555 1_555
C1F C1L 1_555 1_555
C1V C2E 1_555 1_555
C1L C1T 1_555 1_555
C1L C2F 1_555 1_555
H2T H2L 1_555 1_555
H5F H5L 1_555 1_555
H6F H7L 1_555 1_555
H6L H7F 1_555 1_555
H3F H4L 1_555 1_555
H3L H4F 1_555 1_555
H2F H2V 1_555 1_555
H5E H5V 1_555 1_555
H6E H7V 1_555 1_555
H6V H7E 1_555 1_555
H3E H4V 1_555 1_555
H3V H4E 1_555 1_555
O3D_2 Al1_2 1_555 1_555
O3GA Al1AA 1_555 1_555

#END
