
#######################################################################
#
#                 Cambridge Crystallographic Data Centre
#                                CCDC 
#
#######################################################################
#
# If this CIF has been generated from an entry in the Cambridge 
# Structural Database, then it will include bibliographic, chemical, 
# crystal, experimental, refinement or atomic coordinate data resulting 
# from the CCDC's data processing and validation procedures.
#
#######################################################################

data_ESANET
_chemical_formula_moiety         '(C8 H10 Cd3 Cl2 N18)n'
_symmetry_cell_setting           rhombohedral
_symmetry_space_group_name_H-M   'R -3'
_symmetry_Int_Tables_number      148
_space_group_name_Hall           '-R 3'
loop_
_symmetry_equiv_pos_site_id
_symmetry_equiv_pos_as_xyz
1 x,y,z
2 -y,x-y,z
3 -x+y,-x,z
4 2/3+x,1/3+y,1/3+z
5 2/3-y,1/3+x-y,1/3+z
6 2/3-x+y,1/3-x,1/3+z
7 1/3+x,2/3+y,2/3+z
8 1/3-y,2/3+x-y,2/3+z
9 1/3-x+y,2/3-x,2/3+z
10 -x,-y,-z
11 y,-x+y,-z
12 x-y,x,-z
13 1/3-x,2/3-y,2/3-z
14 1/3+y,2/3-x+y,2/3-z
15 1/3+x-y,2/3+x,2/3-z
16 2/3-x,1/3-y,1/3-z
17 2/3+y,1/3-x+y,1/3-z
18 2/3+x-y,1/3+x,1/3-z
_cell_length_a                   27.148(4)
_cell_length_b                   27.148(4)
_cell_length_c                   9.957(3)
_cell_angle_alpha                90
_cell_angle_beta                 90
_cell_angle_gamma                120
_cell_volume                     6355.28
loop_
_atom_site_label
_atom_site_type_symbol
_atom_site_fract_x
_atom_site_fract_y
_atom_site_fract_z
C1 C 0.94928(13) 0.55590(12) -0.2727(3)
C2 C 0.92454(16) 0.50656(14) -0.1807(3)
H1 H 0.9045 0.4716 -0.2318
H2 H 0.9545 0.5056 -0.1299
C3 C 0.87010(13) 0.47292(12) 0.0258(3)
H3 H 0.8672 0.4374 -0.0031
H4 H 0.8336 0.4646 0.0624
C4 C 0.91483(11) 0.50008(11) 0.1297(3)
Cd1 Cd 0.929896(8) 0.611881(8) -0.007369(18)
Cd2 Cd 0.8333 0.6667 0.1667
Cl1 Cl 0.83016(3) 0.57144(3) 0.10575(8)
H5 H 0.8461(14) 0.4990(13) -0.131(3)
N1 N 0.95216(10) 0.60445(10) -0.2420(2)
N2 N 0.88491(11) 0.51177(11) -0.0887(2)
N3 N 0.94913(10) 0.55582(9) 0.1396(2)
N4 N 0.98102(10) 0.56379(14) 0.2471(2)
N5 N 0.98018(14) 0.63907(10) -0.3454(2)
N6 N 0.99349(13) 0.61221(9) -0.4332(2)
N7 N 0.97437(11) 0.55917(15) -0.3897(2)
N8 N 0.96634(10) 0.51411(14) 0.2990(2)
N9 N 0.92490(11) 0.47314(16) 0.2275(2)
C1O C 0.71739(13) 0.77743(12) 0.6060(3)
C2O C 0.74213(16) 0.82677(14) 0.5140(3)
H1O H 0.7622 0.8617 0.5651
H2O H 0.7122 0.8277 0.4632
C3O C 0.79657(13) 0.86041(12) 0.3075(3)
H3O H 0.7995 0.8959 0.3364
H4O H 0.8331 0.8687 0.2709
C4O C 0.75184(11) 0.83325(11) 0.2036(3)
Cd1O Cd 0.736771(8) 0.721452(8) 0.340702(18)
Cl1O Cl 0.83651(3) 0.76189(3) 0.22758(8)
H5O H 0.8206(14) 0.8343(13) 0.464(3)
N1O N 0.71451(10) 0.72888(10) 0.5753(2)
N2O N 0.78176(11) 0.82156(11) 0.4220(2)
N3O N 0.71754(10) 0.77751(9) 0.1937(2)
N4O N 0.68565(10) 0.76954(14) 0.0862(2)
N5O N 0.68649(14) 0.69426(10) 0.6787(2)
N6O N 0.67318(13) 0.72112(9) 0.7665(2)
N7O N 0.69230(11) 0.77416(15) 0.7230(2)
N8O N 0.70033(10) 0.81922(14) 0.0343(2)
N9O N 0.74177(11) 0.86019(16) 0.1058(2)
Cd1D Cd 1.054786(8) 0.651348(11) -0.674036(18)
Cd1D_2 Cd 1.054786(8) 0.651348(11) 0.325964(18)
Cd1H Cd 1.015318(11) 0.736771(8) -0.340702(18)
Cd1J Cd 0.611881(8) 0.681985(11) 0.007369(18)
Cd1J_2 Cd 0.611881(8) 0.681985(11) 1.007369(18)
Cd1N Cd 0.651348(11) 0.596563(8) 0.674036(18)
Cd2D Cd 1.0000 0.4999 -0.5000
Cd2D_2 Cd 1.0000 0.4999 0.5000
Cd2G Cd 0.6666 0.8333 -0.1666
Cd2G_2 Cd 0.6666 0.8333 0.8334
N4H N 0.91610(17) 0.68565(10) -0.0862(2)
N4N N 0.75056(17) 0.64769(10) 0.4196(2)
N5D N 1.02760(10) 0.67444(17) -0.0121(2)
N5J N 0.63907(10) 0.65889(17) 0.3454(2)
N6H N 0.95205(16) 0.67318(13) 0.2335(2)
N6N N 0.71461(16) 0.66016(13) 0.0999(2)
N7H N 0.91813(19) 0.69230(11) 0.2770(2)
N7N N 0.74853(19) 0.64104(11) 0.0564(2)
N8H N 0.88110(17) 0.70033(10) -0.0343(2)
N8N N 0.78556(17) 0.63301(10) 0.3677(2)
loop_
_geom_bond_atom_site_label_1
_geom_bond_atom_site_label_2
_geom_bond_site_symmetry_1
_geom_bond_site_symmetry_2
C1 C2 1_555 1_555
C2 H1 1_555 1_555
H2 C2 1_555 1_555
C3 H3 1_555 1_555
H4 C3 1_555 1_555
C4 C3 1_555 1_555
Cd1 Cl1 1_555 1_555
Cd2 Cl1 1_555 1_555
H5 N2 1_555 1_555
N1 C1 1_555 1_555
N2 C2 1_555 1_555
N3 C4 1_555 1_555
N4 N3 1_555 1_555
N5 N1 1_555 1_555
N6 N5 1_555 1_555
N7 C1 1_555 1_555
N8 N4 1_555 1_555
N9 C4 1_555 1_555
C1O C2O 1_555 1_555
C2O H1O 1_555 1_555
H2O C2O 1_555 1_555
C3O H3O 1_555 1_555
H4O C3O 1_555 1_555
C4O C3O 1_555 1_555
Cd1O Cl1O 1_555 1_555
Cl1O Cd2 1_555 1_555
H5O N2O 1_555 1_555
N1O C1O 1_555 1_555
N2O C2O 1_555 1_555
N3O C4O 1_555 1_555
N4O N3O 1_555 1_555
N5O N1O 1_555 1_555
N6O N5O 1_555 1_555
N7O C1O 1_555 1_555
N8O N4O 1_555 1_555
N9O C4O 1_555 1_555
Cd1D N6 1_555 1_555
Cd1D_2 N4 1_555 1_555
Cd1H N5 1_555 1_555
Cd1J N4O 1_555 1_555
Cd1J_2 N6O 1_555 1_555
Cd1N N5O 1_555 1_555
Cd2D N7 1_555 1_555
Cd2D_2 N8 1_555 1_555
Cd2G N8O 1_555 1_555
Cd2G_2 N7O 1_555 1_555
N4H Cd1 1_555 1_555
N4N Cd1O 1_555 1_555
N5D Cd1 1_555 1_555
N5J Cd1O 1_555 1_555
N6H Cd1 1_555 1_555
N6N Cd1O 1_555 1_555
N7H Cd2 1_555 1_555
N7N Cd2 1_555 1_555
N8H Cd2 1_555 1_555
N8N Cd2 1_555 1_555
C3 N2 1_555 1_555
Cd1 N1 1_555 1_555
Cd1 N2 1_555 1_555
Cd1 N3 1_555 1_555
N6 N7 1_555 1_555
N8 N9 1_555 1_555
C3O N2O 1_555 1_555
Cd1O N1O 1_555 1_555
Cd1O N2O 1_555 1_555
Cd1O N3O 1_555 1_555
N6O N7O 1_555 1_555
N8O N9O 1_555 1_555
N4H N8H 1_555 1_555
N4N N8N 1_555 1_555
N6H N7H 1_555 1_555
N6N N7N 1_555 1_555

#END
