
#######################################################################
#
#                 Cambridge Crystallographic Data Centre
#                                CCDC 
#
#######################################################################
#
# If this CIF has been generated from an entry in the Cambridge 
# Structural Database, then it will include bibliographic, chemical, 
# crystal, experimental, refinement or atomic coordinate data resulting 
# from the CCDC's data processing and validation procedures.
#
#######################################################################

data_MOYZIK
_chemical_formula_moiety         'C116 H88 N9 O23 V2 Zn10'
_symmetry_cell_setting           tetragonal
_symmetry_space_group_name_H-M   'P 4/m m m'
_symmetry_Int_Tables_number      123
_space_group_name_Hall           '-P 4 2'
loop_
_symmetry_equiv_pos_site_id
_symmetry_equiv_pos_as_xyz
1 x,y,z
2 -x,-y,z
3 -y,x,z
4 y,-x,z
5 -x,y,-z
6 x,-y,-z
7 y,x,-z
8 -y,-x,-z
9 -x,-y,-z
10 x,y,-z
11 y,-x,-z
12 -y,x,-z
13 x,-y,z
14 -x,y,z
15 -y,-x,z
16 y,x,z
_cell_length_a                   16.6901(4)
_cell_length_b                   16.6901(4)
_cell_length_c                   14.0567(7)
_cell_angle_alpha                90
_cell_angle_beta                 90
_cell_angle_gamma                90
_cell_volume                     3915.63
loop_
_atom_site_label
_atom_site_type_symbol
_atom_site_fract_x
_atom_site_fract_y
_atom_site_fract_z
V1 V 0.5000 0.5000 -0.46440(10)
Zn1 Zn 1.0000 1.0000 -0.60433(2)
O1 O 0.91515(5) 0.91515(5) -0.57865(9)
N1 N 0.50000(11) 0.6211 -0.5000
N2 N 1.0000 1.0000 -0.74918(18)
C1 C 0.56609(10) 0.67076(10) -0.5000
C2 C 0.54034(10) 0.75271(11) -0.5000
H1 H 0.5733 0.7976 -0.5000
C3 C 0.64602(9) 0.64602(9) -0.5000
C4 C 0.70918(9) 0.70918(9) -0.5000
C5 C 0.73911(9) 0.73911(9) -0.41692(18)
H2 H 0.7197 0.7197 -0.3594
C6 C 0.79787(8) 0.79787(8) -0.41647(17)
H3 H 0.8173 0.8173 -0.3589
C7 C 0.82756(8) 0.82756(8) -0.5000
C8 C 0.89105(8) 0.89105(8) -0.5000
C9 C 1.0621(3) 0.9741(3) -0.7980(3)
H4 H 1.1065 0.9555 -0.7646
O2 O 0.5000 0.5000 -0.3534(4)
V1D V 0.5000 0.5000 -0.53560(10)
Zn1D Zn 1.0000 0.0000 -0.39567(2)
Zn1D_2 Zn 0.0000 1.0000 -0.39567(2)
Zn1_2 Zn 0.0000 0.0000 -0.60433(2)
Zn1_3 Zn 0.0000 1.0000 -0.60433(2)
Zn1_4 Zn 1.0000 0.0000 -0.60433(2)
Zn1D_3 Zn 0.0000 0.0000 -0.39567(2)
Zn1D_4 Zn 1.0000 1.0000 -0.39567(2)
O1D O 0.08485(5) 0.91515(5) -0.42135(9)
O1F O 0.91515(5) 0.91515(5) -0.42135(9)
O1B O 0.08485(5) 0.91515(5) -0.57865(9)
O1C O 0.91515(5) 0.08485(5) -0.57865(9)
O1G O 0.08485(5) 0.08485(5) -0.42135(9)
O1E O 0.91515(5) 0.08485(5) -0.42135(9)
O1A O 0.08485(5) 0.08485(5) -0.57865(9)
O1A_2 O 1.08485(5) 1.08485(5) -0.57865(9)
O1B_2 O 1.08485(5) 0.91515(5) -0.57865(9)
O1C_2 O 0.91515(5) 1.08485(5) -0.57865(9)
O1D_2 O 1.08485(5) -0.08485(5) -0.42135(9)
O1E_2 O -0.08485(5) 1.08485(5) -0.42135(9)
O1F_2 O -0.08485(5) 0.91515(5) -0.42135(9)
O1F_3 O 0.91515(5) -0.08485(5) -0.42135(9)
O1G_2 O 0.08485(5) 1.08485(5) -0.42135(9)
O1G_3 O 1.08485(5) 0.08485(5) -0.42135(9)
N1C N 0.6211 0.50000(11) -0.5000
N1B N 0.3789 0.50000(11) -0.5000
N1A N 0.50000(11) 0.3789 -0.5000
N2D N 1.0000 0.0000 -0.25082(18)
N2D_2 N -0.0000 1.0000 -0.25082(18)
C1D C 0.43391(10) 0.67076(10) -0.5000
C1F C 0.67076(10) 0.56609(10) -0.5000
C1B C 0.32924(10) 0.56609(10) -0.5000
C1C C 0.67076(10) 0.43391(10) -0.5000
C1G C 0.32924(10) 0.43391(10) -0.5000
C1A C 0.43391(10) 0.32924(10) -0.5000
C1E C 0.56609(10) 0.32924(10) -0.5000
C2D C 0.45966(10) 0.75271(11) -0.5000
C2F C 0.75271(11) 0.54034(10) -0.5000
C2B C 0.24729(11) 0.54034(10) -0.5000
C2C C 0.75271(11) 0.45966(10) -0.5000
C2G C 0.24729(11) 0.45966(10) -0.5000
C2A C 0.45966(10) 0.24729(11) -0.5000
C2E C 0.54034(10) 0.24729(11) -0.5000
H1D H 0.4267 0.7976 -0.5000
H1F H 0.7976 0.5733 -0.5000
H1B H 0.2024 0.5733 -0.5000
H1C H 0.7976 0.4267 -0.5000
H1G H 0.2024 0.4267 -0.5000
H1A H 0.4267 0.2024 -0.5000
H1E H 0.5733 0.2024 -0.5000
C3B C 0.35398(9) 0.64602(9) -0.5000
C3C C 0.64602(9) 0.35398(9) -0.5000
C3A C 0.35398(9) 0.35398(9) -0.5000
C4B C 0.29082(9) 0.70918(9) -0.5000
C4C C 0.70918(9) 0.29082(9) -0.5000
C4A C 0.29082(9) 0.29082(9) -0.5000
C5D C 0.26089(9) 0.73911(9) -0.58308(18)
C5F C 0.73911(9) 0.73911(9) -0.58308(18)
C5B C 0.26089(9) 0.73911(9) -0.41692(18)
C5C C 0.73911(9) 0.26089(9) -0.41692(18)
C5G C 0.26089(9) 0.26089(9) -0.58308(18)
C5E C 0.73911(9) 0.26089(9) -0.58308(18)
C5A C 0.26089(9) 0.26089(9) -0.41692(18)
H2D H 0.2803 0.7197 -0.6406
H2F H 0.7197 0.7197 -0.6406
H2B H 0.2803 0.7197 -0.3594
H2C H 0.7197 0.2803 -0.3594
H2G H 0.2803 0.2803 -0.6406
H2E H 0.7197 0.2803 -0.6406
H2A H 0.2803 0.2803 -0.3594
C6D C 0.20213(8) 0.79787(8) -0.58353(17)
C6F C 0.79787(8) 0.79787(8) -0.58353(17)
C6B C 0.20213(8) 0.79787(8) -0.41647(17)
C6C C 0.79787(8) 0.20213(8) -0.41647(17)
C6G C 0.20213(8) 0.20213(8) -0.58353(17)
C6E C 0.79787(8) 0.20213(8) -0.58353(17)
C6A C 0.20213(8) 0.20213(8) -0.41647(17)
H3D H 0.1827 0.8173 -0.6411
H3F H 0.8173 0.8173 -0.6411
H3B H 0.1827 0.8173 -0.3589
H3C H 0.8173 0.1827 -0.3589
H3G H 0.1827 0.1827 -0.6411
H3E H 0.8173 0.1827 -0.6411
H3A H 0.1827 0.1827 -0.3589
C7B C 0.17244(8) 0.82756(8) -0.5000
C7C C 0.82756(8) 0.17244(8) -0.5000
C7A C 0.17244(8) 0.17244(8) -0.5000
C8B C 0.10895(8) 0.89105(8) -0.5000
C8C C 0.89105(8) 0.10895(8) -0.5000
C8A C 0.10895(8) 0.10895(8) -0.5000
C9A C 0.9379(3) 1.0259(3) -0.7980(3)
C9C C 0.9741(3) 0.9379(3) -0.7980(3)
C9B C 1.0259(3) 1.0621(3) -0.7980(3)
C9L C 1.0621(3) 1.0259(3) -0.7980(3)
C9M C 0.9379(3) 0.9741(3) -0.7980(3)
C9O C 0.9741(3) 1.0621(3) -0.7980(3)
C9N C 1.0259(3) 0.9379(3) -0.7980(3)
C9F C 0.9741(3) 0.0621(3) -0.2020(3)
C9G C 1.0259(3) -0.0621(3) -0.2020(3)
C9D C 0.9379(3) -0.0259(3) -0.2020(3)
C9E C 1.0621(3) 0.0259(3) -0.2020(3)
C9K C 1.0259(3) 0.0621(3) -0.2020(3)
C9J C 0.9741(3) -0.0621(3) -0.2020(3)
C9I C 1.0621(3) -0.0259(3) -0.2020(3)
C9H C 0.9379(3) 0.0259(3) -0.2020(3)
H4A H 0.8935 1.0445 -0.7646
H4C H 0.9555 0.8935 -0.7646
H4B H 1.0445 1.1065 -0.7646
H4L H 1.1065 1.0445 -0.7646
H4M H 0.8935 0.9555 -0.7646
H4O H 0.9555 1.1065 -0.7646
H4N H 1.0445 0.8935 -0.7646
H4F H 0.9555 0.1065 -0.2354
H4G H 1.0445 -0.1065 -0.2354
H4D H 0.8935 -0.0445 -0.2354
H4E H 1.1065 0.0445 -0.2354
H4K H 1.0445 0.1065 -0.2354
H4J H 0.9555 -0.1065 -0.2354
H4I H 1.1065 -0.0445 -0.2354
H4H H 0.8935 0.0445 -0.2354
O2D O 0.5000 0.5000 -0.6466(4)
C10 C 1.0000 1.0000 -0.9474(2)
C11 C 1.0650(3) 0.9731(3) -0.8972(3)
H5 H 1.1103 0.9545 -0.9286
C10D C 1.0000 1.0000 -1.0526(2)
C11A C 0.9350(3) 1.0269(3) -0.8972(3)
C11C C 0.9731(3) 0.9350(3) -0.8972(3)
C11B C 1.0269(3) 1.0650(3) -0.8972(3)
C11D C 0.9350(3) 0.9731(3) -1.1028(3)
C11E C 1.0650(3) 1.0269(3) -1.1028(3)
C11G C 1.0269(3) 0.9350(3) -1.1028(3)
C11F C 0.9731(3) 1.0650(3) -1.1028(3)
C11H C 0.9350(3) 1.0269(3) -1.1028(3)
C11I C 1.0650(3) 0.9731(3) -1.1028(3)
C11K C 1.0269(3) 1.0650(3) -1.1028(3)
C11J C 0.9731(3) 0.9350(3) -1.1028(3)
C11L C 1.0650(3) 1.0269(3) -0.8972(3)
C11M C 0.9350(3) 0.9731(3) -0.8972(3)
C11O C 0.9731(3) 1.0650(3) -0.8972(3)
C11N C 1.0269(3) 0.9350(3) -0.8972(3)
H5A H 0.8897 1.0455 -0.9286
H5C H 0.9545 0.8897 -0.9286
H5B H 1.0455 1.1103 -0.9286
H5D H 0.8897 0.9545 -1.0714
H5E H 1.1103 1.0455 -1.0714
H5G H 1.0455 0.8897 -1.0714
H5F H 0.9545 1.1103 -1.0714
H5H H 0.8897 1.0455 -1.0714
H5I H 1.1103 0.9545 -1.0714
H5K H 1.0455 1.1103 -1.0714
H5J H 0.9545 0.8897 -1.0714
H5L H 1.1103 1.0455 -0.9286
H5M H 0.8897 0.9545 -0.9286
H5O H 0.9545 1.1103 -0.9286
H5N H 1.0455 0.8897 -0.9286
Zn1D_5 Zn 1.0000 1.0000 -1.39567(2)
O1D_3 O 1.08485(5) 0.91515(5) -1.42135(9)
O1E_3 O 0.91515(5) 1.08485(5) -1.42135(9)
O1F_4 O 0.91515(5) 0.91515(5) -1.42135(9)
O1G_4 O 1.08485(5) 1.08485(5) -1.42135(9)
N2D_3 N 1.0000 1.0000 -1.25082(18)
C9D_2 C 0.9379(3) 0.9741(3) -1.2020(3)
C9E_2 C 1.0621(3) 1.0259(3) -1.2020(3)
C9G_2 C 1.0259(3) 0.9379(3) -1.2020(3)
C9F_2 C 0.9741(3) 1.0621(3) -1.2020(3)
C9H_2 C 0.9379(3) 1.0259(3) -1.2020(3)
C9I_2 C 1.0621(3) 0.9741(3) -1.2020(3)
C9K_2 C 1.0259(3) 1.0621(3) -1.2020(3)
C9J_2 C 0.9741(3) 0.9379(3) -1.2020(3)
H4D_2 H 0.8935 0.9555 -1.2354
H4E_2 H 1.1065 1.0445 -1.2354
H4G_2 H 1.0445 0.8935 -1.2354
H4F_2 H 0.9555 1.1065 -1.2354
H4H_2 H 0.8935 1.0445 -1.2354
H4I_2 H 1.1065 0.9555 -1.2354
H4K_2 H 1.0445 1.1065 -1.2354
H4J_2 H 0.9555 0.8935 -1.2354
Zn1_5 Zn 1.0000 0.0000 0.39567(2)
N2_2 N 1.0000 0.0000 0.25082(18)
C9C_2 C 0.9741(3) -0.0621(3) 0.2020(3)
C9B_2 C 1.0259(3) 0.0621(3) 0.2020(3)
C9A_2 C 0.9379(3) 0.0259(3) 0.2020(3)
C9_2 C 1.0621(3) -0.0259(3) 0.2020(3)
C9N_2 C 1.0259(3) -0.0621(3) 0.2020(3)
C9O_2 C 0.9741(3) 0.0621(3) 0.2020(3)
C9L_2 C 1.0621(3) 0.0259(3) 0.2020(3)
C9M_2 C 0.9379(3) -0.0259(3) 0.2020(3)
H4C_2 H 0.9555 -0.1065 0.2354
H4B_2 H 1.0445 0.1065 0.2354
H4A_2 H 0.8935 0.0445 0.2354
H4_2 H 1.1065 -0.0445 0.2354
H4N_2 H 1.0445 -0.1065 0.2354
H4O_2 H 0.9555 0.1065 0.2354
H4L_2 H 1.1065 0.0445 0.2354
H4M_2 H 0.8935 -0.0445 0.2354
C10_2 C 1.0000 0.0000 0.0526(2)
C10D_2 C 1.0000 0.0000 -0.0526(2)
C11C_2 C 0.9731(3) -0.0650(3) 0.1028(3)
C11B_2 C 1.0269(3) 0.0650(3) 0.1028(3)
C11A_2 C 0.9350(3) 0.0269(3) 0.1028(3)
C11_2 C 1.0650(3) -0.0269(3) 0.1028(3)
C11F_2 C 0.9731(3) 0.0650(3) -0.1028(3)
C11G_2 C 1.0269(3) -0.0650(3) -0.1028(3)
C11D_2 C 0.9350(3) -0.0269(3) -0.1028(3)
C11E_2 C 1.0650(3) 0.0269(3) -0.1028(3)
C11K_2 C 1.0269(3) 0.0650(3) -0.1028(3)
C11J_2 C 0.9731(3) -0.0650(3) -0.1028(3)
C11I_2 C 1.0650(3) -0.0269(3) -0.1028(3)
C11H_2 C 0.9350(3) 0.0269(3) -0.1028(3)
C11N_2 C 1.0269(3) -0.0650(3) 0.1028(3)
C11O_2 C 0.9731(3) 0.0650(3) 0.1028(3)
C11L_2 C 1.0650(3) 0.0269(3) 0.1028(3)
C11M_2 C 0.9350(3) -0.0269(3) 0.1028(3)
H5C_2 H 0.9545 -0.1103 0.0714
H5B_2 H 1.0455 0.1103 0.0714
H5A_2 H 0.8897 0.0455 0.0714
H5_2 H 1.1103 -0.0455 0.0714
H5F_2 H 0.9545 0.1103 -0.0714
H5G_2 H 1.0455 -0.1103 -0.0714
H5D_2 H 0.8897 -0.0455 -0.0714
H5E_2 H 1.1103 0.0455 -0.0714
H5K_2 H 1.0455 0.1103 -0.0714
H5J_2 H 0.9545 -0.1103 -0.0714
H5I_2 H 1.1103 -0.0455 -0.0714
H5H_2 H 0.8897 0.0455 -0.0714
H5N_2 H 1.0455 -0.1103 0.0714
H5O_2 H 0.9545 0.1103 0.0714
H5L_2 H 1.1103 0.0455 0.0714
H5M_2 H 0.8897 -0.0455 0.0714
loop_
_geom_bond_atom_site_label_1
_geom_bond_atom_site_label_2
_geom_bond_site_symmetry_1
_geom_bond_site_symmetry_2
V1 N1 1_555 1_555
Zn1 O1 1_555 1_555
O1 C8 1_555 1_555
N1 C1 1_555 1_555
N2 Zn1 1_555 1_555
C1 C2 1_555 1_555
C2 H1 1_555 1_555
C3 C1 1_555 1_555
C4 C3 1_555 1_555
C5 C4 1_555 1_555
H2 C5 1_555 1_555
C6 C5 1_555 1_555
H3 C6 1_555 1_555
C7 C6 1_555 1_555
C8 C7 1_555 1_555
C9 N2 1_555 1_555
H4 C9 1_555 1_555
O2 V1 1_555 1_555
C10 C11 1_555 1_555
C11 H5 1_555 1_555
V1D V1 1_555 1_555
Zn1D O1E 1_555 1_555
Zn1D_2 O1D 1_555 1_555
Zn1_2 O1A 1_555 1_555
Zn1_3 O1B 1_555 1_555
Zn1_4 O1C 1_555 1_555
Zn1D_3 O1G 1_555 1_555
Zn1D_4 O1F 1_555 1_555
O1D C8B 1_555 1_555
O1F C8 1_555 1_555
O1B C8B 1_555 1_555
O1C C8C 1_555 1_555
O1G C8A 1_555 1_555
O1E C8C 1_555 1_555
O1A C8A 1_555 1_555
O1A_2 Zn1 1_555 1_555
O1B_2 Zn1 1_555 1_555
O1C_2 Zn1 1_555 1_555
O1D_2 Zn1D 1_555 1_555
O1E_2 Zn1D_2 1_555 1_555
O1F_2 Zn1D_2 1_555 1_555
O1F_3 Zn1D 1_555 1_555
O1G_2 Zn1D_2 1_555 1_555
O1G_3 Zn1D 1_555 1_555
N1C V1 1_555 1_555
N1B V1 1_555 1_555
N1A V1 1_555 1_555
N2D Zn1D 1_555 1_555
N2D_2 Zn1D_2 1_555 1_555
C1D N1 1_555 1_555
C1F C3 1_555 1_555
C1B N1B 1_555 1_555
C1C N1C 1_555 1_555
C1G N1B 1_555 1_555
C1A N1A 1_555 1_555
C1E N1A 1_555 1_555
C2D C2 1_555 1_555
C2F C1F 1_555 1_555
C2B C1B 1_555 1_555
C2C C1C 1_555 1_555
C2G C1G 1_555 1_555
C2A C1A 1_555 1_555
C2E C1E 1_555 1_555
H1D C2D 1_555 1_555
H1F C2F 1_555 1_555
H1B C2B 1_555 1_555
H1C C2C 1_555 1_555
H1G C2G 1_555 1_555
H1A C2A 1_555 1_555
H1E C2E 1_555 1_555
C3B C1D 1_555 1_555
C3C C1C 1_555 1_555
C3A C1G 1_555 1_555
C4B C3B 1_555 1_555
C4C C3C 1_555 1_555
C4A C3A 1_555 1_555
C5D C4B 1_555 1_555
C5F C4 1_555 1_555
C5B C4B 1_555 1_555
C5C C4C 1_555 1_555
C5G C4A 1_555 1_555
C5E C4C 1_555 1_555
C5A C4A 1_555 1_555
H2D C5D 1_555 1_555
H2F C5F 1_555 1_555
H2B C5B 1_555 1_555
H2C C5C 1_555 1_555
H2G C5G 1_555 1_555
H2E C5E 1_555 1_555
H2A C5A 1_555 1_555
C6D C5D 1_555 1_555
C6F C7 1_555 1_555
C6B C5B 1_555 1_555
C6C C5C 1_555 1_555
C6G C5G 1_555 1_555
C6E C5E 1_555 1_555
C6A C5A 1_555 1_555
H3D C6D 1_555 1_555
H3F C6F 1_555 1_555
H3B C6B 1_555 1_555
H3C C6C 1_555 1_555
H3G C6G 1_555 1_555
H3E C6E 1_555 1_555
H3A C6A 1_555 1_555
C7B C6D 1_555 1_555
C7C C6C 1_555 1_555
C7A C6G 1_555 1_555
C8B C7B 1_555 1_555
C8C C7C 1_555 1_555
C8A C7A 1_555 1_555
C9A N2 1_555 1_555
C9C N2 1_555 1_555
C9B N2 1_555 1_555
C9L N2 1_555 1_555
C9M N2 1_555 1_555
C9O N2 1_555 1_555
C9N N2 1_555 1_555
C9F N2D 1_555 1_555
C9G N2D 1_555 1_555
C9D N2D 1_555 1_555
C9E N2D 1_555 1_555
C9K N2D 1_555 1_555
C9J N2D 1_555 1_555
C9I N2D 1_555 1_555
C9H N2D 1_555 1_555
H4A C9A 1_555 1_555
H4C C9C 1_555 1_555
H4B C9B 1_555 1_555
H4L C9L 1_555 1_555
H4M C9M 1_555 1_555
H4O C9O 1_555 1_555
H4N C9N 1_555 1_555
H4F C9F 1_555 1_555
H4G C9G 1_555 1_555
H4D C9D 1_555 1_555
H4E C9E 1_555 1_555
H4K C9K 1_555 1_555
H4J C9J 1_555 1_555
H4I C9I 1_555 1_555
H4H C9H 1_555 1_555
O2D V1D 1_555 1_555
C10D C10 1_555 1_555
C11A C10 1_555 1_555
C11C C10 1_555 1_555
C11B C10 1_555 1_555
C11D C10D 1_555 1_555
C11E C10D 1_555 1_555
C11G C10D 1_555 1_555
C11F C10D 1_555 1_555
C11H C10D 1_555 1_555
C11I C10D 1_555 1_555
C11K C10D 1_555 1_555
C11J C10D 1_555 1_555
C11L C10 1_555 1_555
C11M C10 1_555 1_555
C11O C10 1_555 1_555
C11N C10 1_555 1_555
H5A C11A 1_555 1_555
H5C C11C 1_555 1_555
H5B C11B 1_555 1_555
H5D C11D 1_555 1_555
H5E C11E 1_555 1_555
H5G C11G 1_555 1_555
H5F C11F 1_555 1_555
H5H C11H 1_555 1_555
H5I C11I 1_555 1_555
H5K C11K 1_555 1_555
H5J C11J 1_555 1_555
H5L C11L 1_555 1_555
H5M C11M 1_555 1_555
H5O C11O 1_555 1_555
H5N C11N 1_555 1_555
Zn1D_5 O1D_3 1_555 1_555
O1E_3 Zn1D_5 1_555 1_555
O1F_4 Zn1D_5 1_555 1_555
O1G_4 Zn1D_5 1_555 1_555
N2D_3 Zn1D_5 1_555 1_555
C9D_2 N2D_3 1_555 1_555
C9E_2 N2D_3 1_555 1_555
C9G_2 N2D_3 1_555 1_555
C9F_2 N2D_3 1_555 1_555
C9H_2 N2D_3 1_555 1_555
C9I_2 N2D_3 1_555 1_555
C9K_2 N2D_3 1_555 1_555
C9J_2 N2D_3 1_555 1_555
H4D_2 C9D_2 1_555 1_555
H4E_2 C9E_2 1_555 1_555
H4G_2 C9G_2 1_555 1_555
H4F_2 C9F_2 1_555 1_555
H4H_2 C9H_2 1_555 1_555
H4I_2 C9I_2 1_555 1_555
H4K_2 C9K_2 1_555 1_555
H4J_2 C9J_2 1_555 1_555
Zn1_5 N2_2 1_555 1_555
N2_2 C9C_2 1_555 1_555
C9C_2 C9A_2 1_555 1_555
C9B_2 N2_2 1_555 1_555
C9A_2 N2_2 1_555 1_555
C9_2 N2_2 1_555 1_555
C9N_2 N2_2 1_555 1_555
C9O_2 N2_2 1_555 1_555
C9L_2 N2_2 1_555 1_555
C9M_2 N2_2 1_555 1_555
H4C_2 C9C_2 1_555 1_555
H4B_2 C9B_2 1_555 1_555
H4A_2 C9A_2 1_555 1_555
H4_2 C9_2 1_555 1_555
H4N_2 C9N_2 1_555 1_555
H4O_2 C9O_2 1_555 1_555
H4L_2 C9L_2 1_555 1_555
H4M_2 C9M_2 1_555 1_555
C10_2 C10D_2 1_555 1_555
C10D_2 C11F_2 1_555 1_555
C11C_2 C10_2 1_555 1_555
C11B_2 C10_2 1_555 1_555
C11A_2 C10_2 1_555 1_555
C11_2 C10_2 1_555 1_555
C11F_2 C11D_2 1_555 1_555
C11G_2 C10D_2 1_555 1_555
C11D_2 C10D_2 1_555 1_555
C11E_2 C10D_2 1_555 1_555
C11K_2 C10D_2 1_555 1_555
C11J_2 C10D_2 1_555 1_555
C11I_2 C10D_2 1_555 1_555
C11H_2 C10D_2 1_555 1_555
C11N_2 C10_2 1_555 1_555
C11O_2 C10_2 1_555 1_555
C11L_2 C10_2 1_555 1_555
C11M_2 C10_2 1_555 1_555
H5C_2 C11C_2 1_555 1_555
H5B_2 C11B_2 1_555 1_555
H5A_2 C11A_2 1_555 1_555
H5_2 C11_2 1_555 1_555
H5F_2 C11F_2 1_555 1_555
H5G_2 C11G_2 1_555 1_555
H5D_2 C11D_2 1_555 1_555
H5E_2 C11E_2 1_555 1_555
H5K_2 C11K_2 1_555 1_555
H5J_2 C11J_2 1_555 1_555
H5I_2 C11I_2 1_555 1_555
H5H_2 C11H_2 1_555 1_555
H5N_2 C11N_2 1_555 1_555
H5O_2 C11O_2 1_555 1_555
H5L_2 C11L_2 1_555 1_555
H5M_2 C11M_2 1_555 1_555
N1 V1D 1_555 1_555
C9 C9C 1_555 1_555
C9 C9B 1_555 1_555
C9 C9L 1_555 1_555
C9 C9N 1_555 1_555
C11 C11C 1_555 1_555
C11 C11B 1_555 1_555
C11 C11L 1_555 1_555
C11 C11N 1_555 1_555
V1D N1C 1_555 1_555
V1D N1B 1_555 1_555
V1D N1A 1_555 1_555
N1C C1F 1_555 1_555
C1D C2D 1_555 1_555
C1B C3B 1_555 1_555
C1A C3A 1_555 1_555
C1E C3C 1_555 1_555
C2F C2C 1_555 1_555
C2B C2G 1_555 1_555
C2A C2E 1_555 1_555
C5F C6F 1_555 1_555
C6B C7B 1_555 1_555
C6E C7C 1_555 1_555
C6A C7A 1_555 1_555
C9A C9C 1_555 1_555
C9A C9B 1_555 1_555
C9A C9M 1_555 1_555
C9A C9O 1_555 1_555
C9C C9M 1_555 1_555
C9C C9N 1_555 1_555
C9B C9L 1_555 1_555
C9B C9O 1_555 1_555
C9L C9O 1_555 1_555
C9L C9N 1_555 1_555
C9M C9O 1_555 1_555
C9M C9N 1_555 1_555
C9F C9D 1_555 1_555
C9F C9E 1_555 1_555
C9F C9K 1_555 1_555
C9F C9H 1_555 1_555
C9G C9D 1_555 1_555
C9G C9E 1_555 1_555
C9G C9J 1_555 1_555
C9G C9I 1_555 1_555
C9D C9J 1_555 1_555
C9D C9H 1_555 1_555
C9E C9K 1_555 1_555
C9E C9I 1_555 1_555
C9K C9I 1_555 1_555
C9K C9H 1_555 1_555
C9J C9I 1_555 1_555
C9J C9H 1_555 1_555
C11A C11C 1_555 1_555
C11A C11B 1_555 1_555
C11A C11M 1_555 1_555
C11A C11O 1_555 1_555
C11C C11M 1_555 1_555
C11C C11N 1_555 1_555
C11B C11L 1_555 1_555
C11B C11O 1_555 1_555
C11D C11G 1_555 1_555
C11D C11F 1_555 1_555
C11D C11H 1_555 1_555
C11D C11J 1_555 1_555
C11E C11G 1_555 1_555
C11E C11F 1_555 1_555
C11E C11I 1_555 1_555
C11E C11K 1_555 1_555
C11G C11I 1_555 1_555
C11G C11J 1_555 1_555
C11F C11H 1_555 1_555
C11F C11K 1_555 1_555
C11H C11K 1_555 1_555
C11H C11J 1_555 1_555
C11I C11K 1_555 1_555
C11I C11J 1_555 1_555
C11L C11O 1_555 1_555
C11L C11N 1_555 1_555
C11M C11O 1_555 1_555
C11M C11N 1_555 1_555
C9D_2 C9G_2 1_555 1_555
C9D_2 C9F_2 1_555 1_555
C9D_2 C9H_2 1_555 1_555
C9D_2 C9J_2 1_555 1_555
C9E_2 C9G_2 1_555 1_555
C9E_2 C9F_2 1_555 1_555
C9E_2 C9I_2 1_555 1_555
C9E_2 C9K_2 1_555 1_555
C9G_2 C9I_2 1_555 1_555
C9G_2 C9J_2 1_555 1_555
C9F_2 C9H_2 1_555 1_555
C9F_2 C9K_2 1_555 1_555
C9H_2 C9K_2 1_555 1_555
C9H_2 C9J_2 1_555 1_555
C9I_2 C9K_2 1_555 1_555
C9I_2 C9J_2 1_555 1_555
C9C_2 C9_2 1_555 1_555
C9C_2 C9N_2 1_555 1_555
C9C_2 C9M_2 1_555 1_555
C9B_2 C9A_2 1_555 1_555
C9B_2 C9_2 1_555 1_555
C9B_2 C9O_2 1_555 1_555
C9B_2 C9L_2 1_555 1_555
C9A_2 C9O_2 1_555 1_555
C9A_2 C9M_2 1_555 1_555
C9_2 C9N_2 1_555 1_555
C9_2 C9L_2 1_555 1_555
C9N_2 C9L_2 1_555 1_555
C9N_2 C9M_2 1_555 1_555
C9O_2 C9L_2 1_555 1_555
C9O_2 C9M_2 1_555 1_555
C11C_2 C11A_2 1_555 1_555
C11C_2 C11_2 1_555 1_555
C11C_2 C11N_2 1_555 1_555
C11C_2 C11M_2 1_555 1_555
C11B_2 C11A_2 1_555 1_555
C11B_2 C11_2 1_555 1_555
C11B_2 C11O_2 1_555 1_555
C11B_2 C11L_2 1_555 1_555
C11A_2 C11O_2 1_555 1_555
C11A_2 C11M_2 1_555 1_555
C11_2 C11N_2 1_555 1_555
C11_2 C11L_2 1_555 1_555
C11F_2 C11E_2 1_555 1_555
C11F_2 C11K_2 1_555 1_555
C11F_2 C11H_2 1_555 1_555
C11G_2 C11D_2 1_555 1_555
C11G_2 C11E_2 1_555 1_555
C11G_2 C11J_2 1_555 1_555
C11G_2 C11I_2 1_555 1_555
C11D_2 C11J_2 1_555 1_555
C11D_2 C11H_2 1_555 1_555
C11E_2 C11K_2 1_555 1_555
C11E_2 C11I_2 1_555 1_555
C11K_2 C11I_2 1_555 1_555
C11K_2 C11H_2 1_555 1_555
C11J_2 C11I_2 1_555 1_555
C11J_2 C11H_2 1_555 1_555
C11N_2 C11L_2 1_555 1_555
C11N_2 C11M_2 1_555 1_555
C11O_2 C11L_2 1_555 1_555
C11O_2 C11M_2 1_555 1_555

#END
