
#######################################################################
#
#                 Cambridge Crystallographic Data Centre
#                                CCDC 
#
#######################################################################
#
# If this CIF has been generated from an entry in the Cambridge 
# Structural Database, then it will include bibliographic, chemical, 
# crystal, experimental, refinement or atomic coordinate data resulting 
# from the CCDC's data processing and validation procedures.
#
#######################################################################

data_OLICET
_chemical_formula_moiety         '(C108 H48 Cl3 Fe12 N72 O12 3-)n'
_symmetry_cell_setting           cubic
_symmetry_space_group_name_H-M   'F m -3 c'
_symmetry_Int_Tables_number      226
_space_group_name_Hall           '-F 4a 2 3'
loop_
_symmetry_equiv_pos_site_id
_symmetry_equiv_pos_as_xyz
1 x,y,z
2 -x,-y,z
3 -x,y,-z
4 x,-y,-z
5 z,x,y
6 z,-x,-y
7 -z,-x,y
8 -z,x,-y
9 y,z,x
10 -y,z,-x
11 y,-z,-x
12 -y,-z,x
13 1/2+y,1/2+x,1/2-z
14 1/2-y,1/2-x,1/2-z
15 1/2+y,1/2-x,1/2+z
16 1/2-y,1/2+x,1/2+z
17 1/2+x,1/2+z,1/2-y
18 1/2-x,1/2+z,1/2+y
19 1/2-x,1/2-z,1/2-y
20 1/2+x,1/2-z,1/2+y
21 1/2+z,1/2+y,1/2-x
22 1/2+z,1/2-y,1/2+x
23 1/2-z,1/2+y,1/2+x
24 1/2-z,1/2-y,1/2-x
25 x,1/2+y,1/2+z
26 -x,1/2-y,1/2+z
27 -x,1/2+y,1/2-z
28 x,1/2-y,1/2-z
29 z,1/2+x,1/2+y
30 z,1/2-x,1/2-y
31 -z,1/2-x,1/2+y
32 -z,1/2+x,1/2-y
33 y,1/2+z,1/2+x
34 -y,1/2+z,1/2-x
35 y,1/2-z,1/2-x
36 -y,1/2-z,1/2+x
37 1/2+y,x,-z
38 1/2-y,-x,-z
39 1/2+y,-x,z
40 1/2-y,x,z
41 1/2+x,z,-y
42 1/2-x,z,y
43 1/2-x,-z,-y
44 1/2+x,-z,y
45 1/2+z,y,-x
46 1/2+z,-y,x
47 1/2-z,y,x
48 1/2-z,-y,-x
49 1/2+x,y,1/2+z
50 1/2-x,-y,1/2+z
51 1/2-x,y,1/2-z
52 1/2+x,-y,1/2-z
53 1/2+z,x,1/2+y
54 1/2+z,-x,1/2-y
55 1/2-z,-x,1/2+y
56 1/2-z,x,1/2-y
57 1/2+y,z,1/2+x
58 1/2-y,z,1/2-x
59 1/2+y,-z,1/2-x
60 1/2-y,-z,1/2+x
61 y,1/2+x,-z
62 -y,1/2-x,-z
63 y,1/2-x,z
64 -y,1/2+x,z
65 x,1/2+z,-y
66 -x,1/2+z,y
67 -x,1/2-z,-y
68 x,1/2-z,y
69 z,1/2+y,-x
70 z,1/2-y,x
71 -z,1/2+y,x
72 -z,1/2-y,-x
73 1/2+x,1/2+y,z
74 1/2-x,1/2-y,z
75 1/2-x,1/2+y,-z
76 1/2+x,1/2-y,-z
77 1/2+z,1/2+x,y
78 1/2+z,1/2-x,-y
79 1/2-z,1/2-x,y
80 1/2-z,1/2+x,-y
81 1/2+y,1/2+z,x
82 1/2-y,1/2+z,-x
83 1/2+y,1/2-z,-x
84 1/2-y,1/2-z,x
85 y,x,1/2-z
86 -y,-x,1/2-z
87 y,-x,1/2+z
88 -y,x,1/2+z
89 x,z,1/2-y
90 -x,z,1/2+y
91 -x,-z,1/2-y
92 x,-z,1/2+y
93 z,y,1/2-x
94 z,-y,1/2+x
95 -z,y,1/2+x
96 -z,-y,1/2-x
97 -x,-y,-z
98 x,y,-z
99 x,-y,z
100 -x,y,z
101 -z,-x,-y
102 -z,x,y
103 z,x,-y
104 z,-x,y
105 -y,-z,-x
106 y,-z,x
107 -y,z,x
108 y,z,-x
109 1/2-y,1/2-x,1/2+z
110 1/2+y,1/2+x,1/2+z
111 1/2-y,1/2+x,1/2-z
112 1/2+y,1/2-x,1/2-z
113 1/2-x,1/2-z,1/2+y
114 1/2+x,1/2-z,1/2-y
115 1/2+x,1/2+z,1/2+y
116 1/2-x,1/2+z,1/2-y
117 1/2-z,1/2-y,1/2+x
118 1/2-z,1/2+y,1/2-x
119 1/2+z,1/2-y,1/2-x
120 1/2+z,1/2+y,1/2+x
121 -x,1/2-y,1/2-z
122 x,1/2+y,1/2-z
123 x,1/2-y,1/2+z
124 -x,1/2+y,1/2+z
125 -z,1/2-x,1/2-y
126 -z,1/2+x,1/2+y
127 z,1/2+x,1/2-y
128 z,1/2-x,1/2+y
129 -y,1/2-z,1/2-x
130 y,1/2-z,1/2+x
131 -y,1/2+z,1/2+x
132 y,1/2+z,1/2-x
133 1/2-y,-x,z
134 1/2+y,x,z
135 1/2-y,x,-z
136 1/2+y,-x,-z
137 1/2-x,-z,y
138 1/2+x,-z,-y
139 1/2+x,z,y
140 1/2-x,z,-y
141 1/2-z,-y,x
142 1/2-z,y,-x
143 1/2+z,-y,-x
144 1/2+z,y,x
145 1/2-x,-y,1/2-z
146 1/2+x,y,1/2-z
147 1/2+x,-y,1/2+z
148 1/2-x,y,1/2+z
149 1/2-z,-x,1/2-y
150 1/2-z,x,1/2+y
151 1/2+z,x,1/2-y
152 1/2+z,-x,1/2+y
153 1/2-y,-z,1/2-x
154 1/2+y,-z,1/2+x
155 1/2-y,z,1/2+x
156 1/2+y,z,1/2-x
157 -y,1/2-x,z
158 y,1/2+x,z
159 -y,1/2+x,-z
160 y,1/2-x,-z
161 -x,1/2-z,y
162 x,1/2-z,-y
163 x,1/2+z,y
164 -x,1/2+z,-y
165 -z,1/2-y,x
166 -z,1/2+y,-x
167 z,1/2-y,-x
168 z,1/2+y,x
169 1/2-x,1/2-y,-z
170 1/2+x,1/2+y,-z
171 1/2+x,1/2-y,z
172 1/2-x,1/2+y,z
173 1/2-z,1/2-x,-y
174 1/2-z,1/2+x,y
175 1/2+z,1/2+x,-y
176 1/2+z,1/2-x,y
177 1/2-y,1/2-z,-x
178 1/2+y,1/2-z,x
179 1/2-y,1/2+z,x
180 1/2+y,1/2+z,-x
181 -y,-x,1/2+z
182 y,x,1/2+z
183 -y,x,1/2-z
184 y,-x,1/2-z
185 -x,-z,1/2+y
186 x,-z,1/2-y
187 x,z,1/2+y
188 -x,z,1/2-y
189 -z,-y,1/2+x
190 -z,y,1/2-x
191 z,-y,1/2-x
192 z,y,1/2+x
_cell_length_a                   37.2012(9)
_cell_length_b                   37.2012(9)
_cell_length_c                   37.2012(9)
_cell_angle_alpha                90
_cell_angle_beta                 90
_cell_angle_gamma                90
_cell_volume                     51483.8
loop_
_atom_site_label
_atom_site_type_symbol
_atom_site_fract_x
_atom_site_fract_y
_atom_site_fract_z
_atom_site_U_iso_or_equiv
_atom_site_thermal_displace_type
Fe1 Fe 0.68398(2) 0.74486(2) 0.5000 0.0226 Uani
Cl1 Cl 0.7500 0.7500 0.5000 0.0218 Uani
O1 O 0.60770(9) 0.73774(9) 0.5000 0.0523 Uani
N1 N 0.71707(5) 0.68337(5) 0.46256(5) 0.0197 Uani
N2 N 0.68990(5) 0.70733(5) 0.46283(5) 0.0191 Uani
N3 N 0.66791(5) 0.70182(5) 0.43544(5) 0.0221 Uani
C1 C 0.71187(6) 0.66225(6) 0.43398(6) 0.0223 Uani
H1 H 0.7268 0.6429 0.4267 0.0270 Uiso
C2 C 0.68120(6) 0.67339(6) 0.41702(6) 0.0210 Uani
C3 C 0.66345(6) 0.65967(6) 0.38420(6) 0.0218 Uani
C4 C 0.63290(6) 0.67675(6) 0.37066(6) 0.0216 Uani
H2 H 0.6238 0.6976 0.3823 0.0260 Uiso
C5 C 0.63651(13) 0.74033(10) 0.5000 0.0356 Uani
N1G N 0.53744(5) 0.71707(5) 0.31663(5) 0.0197 Uani
N2G N 0.53717(5) 0.68990(5) 0.29267(5) 0.0191 Uani
N3G N 0.56456(5) 0.66791(5) 0.29818(5) 0.0221 Uani
C1G C 0.56602(6) 0.71187(6) 0.33775(6) 0.0223 Uani
H1G H 0.5733 0.7268 0.3571 0.0270 Uiso
C2G C 0.58298(6) 0.68120(6) 0.32661(6) 0.0210 Uani
C3G C 0.61580(6) 0.66345(6) 0.34033(6) 0.0218 Uani
C4G C 0.62934(6) 0.63290(6) 0.32325(6) 0.0216 Uani
H2G H 0.6177 0.6238 0.3024 0.0260 Uiso
N1J N 0.68337(5) 0.53744(5) 0.28293(5) 0.0197 Uani
N2J N 0.70733(5) 0.53717(5) 0.31010(5) 0.0191 Uani
N3J N 0.70182(5) 0.56456(5) 0.33209(5) 0.0221 Uani
C1J C 0.66225(6) 0.56602(6) 0.28813(6) 0.0223 Uani
H1J H 0.6429 0.5733 0.2732 0.0270 Uiso
C2J C 0.67339(6) 0.58298(6) 0.31880(6) 0.0210 Uani
C3J C 0.65967(6) 0.61580(6) 0.33655(6) 0.0218 Uani
C4J C 0.67675(6) 0.62934(6) 0.36710(6) 0.0216 Uani
H2J H 0.6976 0.6177 0.3762 0.0260 Uiso
Fe1G Fe 0.5000 0.68398(2) 0.25514(2) 0.0226 Uani
Cl1G Cl 0.5000 0.7500 0.2500 0.0218 Uani
O1G O 0.5000 0.60770(9) 0.26226(9) 0.0523 Uani
C5G C 0.5000 0.63651(13) 0.25967(10) 0.0356 Uani
Fe1J Fe 0.74486(2) 0.5000 0.31602(2) 0.0226 Uani
Cl1J Cl 0.7500 0.5000 0.2500 0.0218 Uani
O1J O 0.73774(9) 0.5000 0.39230(9) 0.0523 Uani
C5J C 0.74033(10) 0.5000 0.36349(13) 0.0356 Uani
Fe1DA Fe 0.5000 0.81602(2) 0.24486(2) 0.0226 Uani
O1DA O 0.5000 0.89230(9) 0.23774(9) 0.0523 Uani
N1DA N 0.53744(5) 0.78293(5) 0.18337(5) 0.0197 Uani
N2DA N 0.53717(5) 0.81010(5) 0.20733(5) 0.0191 Uani
N3DA N 0.56456(5) 0.83209(5) 0.20182(5) 0.0221 Uani
C1DA C 0.56602(6) 0.78813(6) 0.16225(6) 0.0223 Uani
H1DA H 0.5733 0.7732 0.1429 0.0270 Uiso
C2DA C 0.58298(6) 0.81880(6) 0.17339(6) 0.0210 Uani
C3DA C 0.61580(6) 0.83655(6) 0.15967(6) 0.0218 Uani
C4DA C 0.62934(6) 0.86710(6) 0.17675(6) 0.0216 Uani
H2DA H 0.6177 0.8762 0.1976 0.0260 Uiso
C5DA C 0.5000 0.86349(13) 0.24033(10) 0.0356 Uani
N1FA N 0.68337(5) 0.96256(5) 0.21707(5) 0.0197 Uani
N2FA N 0.70733(5) 0.96283(5) 0.18990(5) 0.0191 Uani
N3FA N 0.70182(5) 0.93544(5) 0.16791(5) 0.0221 Uani
C1FA C 0.66225(6) 0.93398(6) 0.21187(6) 0.0223 Uani
H1FA H 0.6429 0.9267 0.2268 0.0270 Uiso
C2FA C 0.67339(6) 0.91702(6) 0.18120(6) 0.0210 Uani
C3FA C 0.65967(6) 0.88420(6) 0.16345(6) 0.0218 Uani
C4FA C 0.67675(6) 0.87066(6) 0.13290(6) 0.0216 Uani
H2FA H 0.6976 0.8823 0.1238 0.0260 Uiso
N1AA N 0.71707(5) 0.81663(5) 0.03744(5) 0.0197 Uani
N2AA N 0.68990(5) 0.79267(5) 0.03717(5) 0.0191 Uani
N3AA N 0.66791(5) 0.79818(5) 0.06456(5) 0.0221 Uani
C1AA C 0.71187(6) 0.83775(6) 0.06602(6) 0.0223 Uani
H1AA H 0.7268 0.8571 0.0733 0.0270 Uiso
C2AA C 0.68120(6) 0.82661(6) 0.08298(6) 0.0210 Uani
C3AA C 0.66345(6) 0.84033(6) 0.11580(6) 0.0218 Uani
C4AA C 0.63290(6) 0.82325(6) 0.12934(6) 0.0216 Uani
H2AA H 0.6238 0.8024 0.1177 0.0260 Uiso
Fe1FA Fe 0.74486(2) 1.0000 0.18398(2) 0.0226 Uani
O1FA O 0.73774(9) 1.0000 0.10770(9) 0.0523 Uani
C5FA C 0.74033(10) 1.0000 0.13651(13) 0.0356 Uani
Fe1MA Fe 0.75514(2) 0.68398(2) 0.5000 0.0226 Uani
O1MA O 0.76226(9) 0.60770(9) 0.5000 0.0523 Uani
N1MA N 0.81663(5) 0.71707(5) 0.46256(5) 0.0197 Uani
N2MA N 0.79267(5) 0.68990(5) 0.46283(5) 0.0191 Uani
N3MA N 0.79818(5) 0.66791(5) 0.43544(5) 0.0221 Uani
C1MA C 0.83775(6) 0.71187(6) 0.43398(6) 0.0223 Uani
H1MA H 0.8571 0.7268 0.4267 0.0270 Uiso
C2MA C 0.82661(6) 0.68120(6) 0.41702(6) 0.0210 Uani
C3MA C 0.84033(6) 0.66345(6) 0.38420(6) 0.0218 Uani
C4MA C 0.82325(6) 0.63290(6) 0.37066(6) 0.0216 Uani
H2MA H 0.8024 0.6238 0.3823 0.0260 Uiso
C5MA C 0.75967(10) 0.63651(13) 0.5000 0.0356 Uani
N1PA N 0.78293(5) 0.53744(5) 0.31663(5) 0.0197 Uani
N2PA N 0.81010(5) 0.53717(5) 0.29267(5) 0.0191 Uani
N3PA N 0.83209(5) 0.56456(5) 0.29818(5) 0.0221 Uani
C1PA C 0.78813(6) 0.56602(6) 0.33775(6) 0.0223 Uani
H1PA H 0.7732 0.5733 0.3571 0.0270 Uiso
C2PA C 0.81880(6) 0.58298(6) 0.32661(6) 0.0210 Uani
C3PA C 0.83655(6) 0.61580(6) 0.34033(6) 0.0218 Uani
C4PA C 0.86710(6) 0.62934(6) 0.32325(6) 0.0216 Uani
H2PA H 0.8762 0.6177 0.3024 0.0260 Uiso
N1RA N 0.96256(5) 0.68337(5) 0.28293(5) 0.0197 Uani
N2RA N 0.96283(5) 0.70733(5) 0.31010(5) 0.0191 Uani
N3RA N 0.93544(5) 0.70182(5) 0.33209(5) 0.0221 Uani
C1RA C 0.93398(6) 0.66225(6) 0.28813(6) 0.0223 Uani
H1RA H 0.9267 0.6429 0.2732 0.0270 Uiso
C2RA C 0.91702(6) 0.67339(6) 0.31880(6) 0.0210 Uani
C3RA C 0.88420(6) 0.65967(6) 0.33655(6) 0.0218 Uani
C4RA C 0.87066(6) 0.67675(6) 0.36710(6) 0.0216 Uani
H2RA H 0.8823 0.6976 0.3762 0.0260 Uiso
Fe1PA Fe 0.81602(2) 0.5000 0.25514(2) 0.0226 Uani
O1PA O 0.89230(9) 0.5000 0.26226(9) 0.0523 Uani
C5PA C 0.86349(13) 0.5000 0.25967(10) 0.0356 Uani
N1XA N 0.78293(5) 0.68337(5) 0.03744(5) 0.0197 Uani
N2XA N 0.81010(5) 0.70733(5) 0.03717(5) 0.0191 Uani
N3XA N 0.83209(5) 0.70182(5) 0.06456(5) 0.0221 Uani
C1XA C 0.78813(6) 0.66225(6) 0.06602(6) 0.0223 Uani
H1XA H 0.7732 0.6429 0.0733 0.0270 Uiso
C2XA C 0.81880(6) 0.67339(6) 0.08298(6) 0.0210 Uani
C3XA C 0.83655(6) 0.65967(6) 0.11580(6) 0.0218 Uani
C4XA C 0.86710(6) 0.67675(6) 0.12934(6) 0.0216 Uani
H2XA H 0.8762 0.6976 0.1177 0.0260 Uiso
N1ZA N 0.96256(5) 0.71707(5) 0.18337(5) 0.0197 Uani
N2ZA N 0.96283(5) 0.68990(5) 0.20733(5) 0.0191 Uani
N3ZA N 0.93544(5) 0.66791(5) 0.20182(5) 0.0221 Uani
C1ZA C 0.93398(6) 0.71187(6) 0.16225(6) 0.0223 Uani
H1ZA H 0.9267 0.7268 0.1429 0.0270 Uiso
C2ZA C 0.91702(6) 0.68120(6) 0.17339(6) 0.0210 Uani
C3ZA C 0.88420(6) 0.66345(6) 0.15967(6) 0.0218 Uani
C4ZA C 0.87066(6) 0.63290(6) 0.17675(6) 0.0216 Uani
H2ZA H 0.8823 0.6238 0.1976 0.0260 Uiso
N1GB N 0.81663(5) 0.53744(5) 0.21707(5) 0.0197 Uani
N2GB N 0.79267(5) 0.53717(5) 0.18990(5) 0.0191 Uani
N3GB N 0.79818(5) 0.56456(5) 0.16791(5) 0.0221 Uani
C1GB C 0.83775(6) 0.56602(6) 0.21187(6) 0.0223 Uani
H1GB H 0.8571 0.5733 0.2268 0.0270 Uiso
C2GB C 0.82661(6) 0.58298(6) 0.18120(6) 0.0210 Uani
C3GB C 0.84033(6) 0.61580(6) 0.16345(6) 0.0218 Uani
C4GB C 0.82325(6) 0.62934(6) 0.13290(6) 0.0216 Uani
H2GB H 0.8024 0.6177 0.1238 0.0260 Uiso
Fe1ZA Fe 1.0000 0.68398(2) 0.24486(2) 0.0226 Uani
O1ZA O 1.0000 0.60770(9) 0.23774(9) 0.0523 Uani
C5ZA C 1.0000 0.63651(13) 0.24033(10) 0.0356 Uani
Fe1GB Fe 0.75514(2) 0.5000 0.18398(2) 0.0226 Uani
O1GB O 0.76226(9) 0.5000 0.10770(9) 0.0523 Uani
C5GB C 0.75967(10) 0.5000 0.13651(13) 0.0356 Uani
Fe1JB Fe 0.74486(2) 0.81602(2) 0.5000 0.0226 Uani
O1JB O 0.73774(9) 0.89230(9) 0.5000 0.0523 Uani
N1JB N 0.68337(5) 0.78293(5) 0.46256(5) 0.0197 Uani
N2JB N 0.70733(5) 0.81010(5) 0.46283(5) 0.0191 Uani
N3JB N 0.70182(5) 0.83209(5) 0.43544(5) 0.0221 Uani
C1JB C 0.66225(6) 0.78813(6) 0.43398(6) 0.0223 Uani
H1JB H 0.6429 0.7732 0.4267 0.0270 Uiso
C2JB C 0.67339(6) 0.81880(6) 0.41702(6) 0.0210 Uani
C3JB C 0.65967(6) 0.83655(6) 0.38420(6) 0.0218 Uani
C4JB C 0.67675(6) 0.86710(6) 0.37066(6) 0.0216 Uani
H2JB H 0.6976 0.8762 0.3823 0.0260 Uiso
C5JB C 0.74033(10) 0.86349(13) 0.5000 0.0356 Uani
N1LB N 0.71707(5) 0.96256(5) 0.31663(5) 0.0197 Uani
N2LB N 0.68990(5) 0.96283(5) 0.29267(5) 0.0191 Uani
N3LB N 0.66791(5) 0.93544(5) 0.29818(5) 0.0221 Uani
C1LB C 0.71187(6) 0.93398(6) 0.33775(6) 0.0223 Uani
H1LB H 0.7268 0.9267 0.3571 0.0270 Uiso
C2LB C 0.68120(6) 0.91702(6) 0.32661(6) 0.0210 Uani
C3LB C 0.66345(6) 0.88420(6) 0.34033(6) 0.0218 Uani
C4LB C 0.63290(6) 0.87066(6) 0.32325(6) 0.0216 Uani
H2LB H 0.6238 0.8823 0.3024 0.0260 Uiso
N1SB N 0.53744(5) 0.81663(5) 0.28293(5) 0.0197 Uani
N2SB N 0.53717(5) 0.79267(5) 0.31010(5) 0.0191 Uani
N3SB N 0.56456(5) 0.79818(5) 0.33209(5) 0.0221 Uani
C1SB C 0.56602(6) 0.83775(6) 0.28813(6) 0.0223 Uani
H1SB H 0.5733 0.8571 0.2732 0.0270 Uiso
C2SB C 0.58298(6) 0.82661(6) 0.31880(6) 0.0210 Uani
C3SB C 0.61580(6) 0.84033(6) 0.33655(6) 0.0218 Uani
C4SB C 0.62934(6) 0.82325(6) 0.36710(6) 0.0216 Uani
H2SB H 0.6177 0.8024 0.3762 0.0260 Uiso
Fe1SB Fe 0.5000 0.75514(2) 0.31602(2) 0.0226 Uani
O1SB O 0.5000 0.76226(9) 0.39230(9) 0.0523 Uani
C5SB C 0.5000 0.75967(10) 0.36349(13) 0.0356 Uani
Fe1UB Fe 0.81602(2) 0.75514(2) 0.5000 0.0226 Uani
O1UB O 0.89230(9) 0.76226(9) 0.5000 0.0523 Uani
N1UB N 0.78293(5) 0.81663(5) 0.46256(5) 0.0197 Uani
N2UB N 0.81010(5) 0.79267(5) 0.46283(5) 0.0191 Uani
N3UB N 0.83209(5) 0.79818(5) 0.43544(5) 0.0221 Uani
C1UB C 0.78813(6) 0.83775(6) 0.43398(6) 0.0223 Uani
H1UB H 0.7732 0.8571 0.4267 0.0270 Uiso
C2UB C 0.81880(6) 0.82661(6) 0.41702(6) 0.0210 Uani
C3UB C 0.83655(6) 0.84033(6) 0.38420(6) 0.0218 Uani
C4UB C 0.86710(6) 0.82325(6) 0.37066(6) 0.0216 Uani
H2UB H 0.8762 0.8024 0.3823 0.0260 Uiso
C5UB C 0.86349(13) 0.75967(10) 0.5000 0.0356 Uani
N1YB N 0.96256(5) 0.78293(5) 0.31663(5) 0.0197 Uani
N2YB N 0.96283(5) 0.81010(5) 0.29267(5) 0.0191 Uani
N3YB N 0.93544(5) 0.83209(5) 0.29818(5) 0.0221 Uani
C1YB C 0.93398(6) 0.78813(6) 0.33775(6) 0.0223 Uani
H1YB H 0.9267 0.7732 0.3571 0.0270 Uiso
C2YB C 0.91702(6) 0.81880(6) 0.32661(6) 0.0210 Uani
C3YB C 0.88420(6) 0.83655(6) 0.34033(6) 0.0218 Uani
C4YB C 0.87066(6) 0.86710(6) 0.32325(6) 0.0216 Uani
H2YB H 0.8823 0.8762 0.3024 0.0260 Uiso
N1CC N 0.81663(5) 0.96256(5) 0.28293(5) 0.0197 Uani
N2CC N 0.79267(5) 0.96283(5) 0.31010(5) 0.0191 Uani
N3CC N 0.79818(5) 0.93544(5) 0.33209(5) 0.0221 Uani
C1CC C 0.83775(6) 0.93398(6) 0.28813(6) 0.0223 Uani
H1CC H 0.8571 0.9267 0.2732 0.0270 Uiso
C2CC C 0.82661(6) 0.91702(6) 0.31880(6) 0.0210 Uani
C3CC C 0.84033(6) 0.88420(6) 0.33655(6) 0.0218 Uani
C4CC C 0.82325(6) 0.87066(6) 0.36710(6) 0.0216 Uani
H2CC H 0.8024 0.8823 0.3762 0.0260 Uiso
N1FC N 0.68337(5) 0.71707(5) 0.03744(5) 0.0197 Uani
N2FC N 0.70733(5) 0.68990(5) 0.03717(5) 0.0191 Uani
N3FC N 0.70182(5) 0.66791(5) 0.06456(5) 0.0221 Uani
C1FC C 0.66225(6) 0.71187(6) 0.06602(6) 0.0223 Uani
H1FC H 0.6429 0.7268 0.0733 0.0270 Uiso
C2FC C 0.67339(6) 0.68120(6) 0.08298(6) 0.0210 Uani
C3FC C 0.65967(6) 0.66345(6) 0.11580(6) 0.0218 Uani
C4FC C 0.67675(6) 0.63290(6) 0.12934(6) 0.0216 Uani
H2FC H 0.6976 0.6238 0.1177 0.0260 Uiso
N1MC N 0.71707(5) 0.53744(5) 0.18337(5) 0.0197 Uani
N2MC N 0.68990(5) 0.53717(5) 0.20733(5) 0.0191 Uani
N3MC N 0.66791(5) 0.56456(5) 0.20182(5) 0.0221 Uani
C1MC C 0.71187(6) 0.56602(6) 0.16225(6) 0.0223 Uani
H1MC H 0.7268 0.5733 0.1429 0.0270 Uiso
C2MC C 0.68120(6) 0.58298(6) 0.17339(6) 0.0210 Uani
C3MC C 0.66345(6) 0.61580(6) 0.15967(6) 0.0218 Uani
C4MC C 0.63290(6) 0.62934(6) 0.17675(6) 0.0216 Uani
H2MC H 0.6238 0.6177 0.1976 0.0260 Uiso
N1PC N 0.53744(5) 0.68337(5) 0.21707(5) 0.0197 Uani
N2PC N 0.53717(5) 0.70733(5) 0.18990(5) 0.0191 Uani
N3PC N 0.56456(5) 0.70182(5) 0.16791(5) 0.0221 Uani
C1PC C 0.56602(6) 0.66225(6) 0.21187(6) 0.0223 Uani
H1PC H 0.5733 0.6429 0.2268 0.0270 Uiso
C2PC C 0.58298(6) 0.67339(6) 0.18120(6) 0.0210 Uani
C3PC C 0.61580(6) 0.65967(6) 0.16345(6) 0.0218 Uani
C4PC C 0.62934(6) 0.67675(6) 0.13290(6) 0.0216 Uani
H2PC H 0.6177 0.6976 0.1238 0.0260 Uiso
N1M N 0.81663(5) 0.78293(5) 0.03744(5) 0.0197 Uani
N2M N 0.79267(5) 0.81010(5) 0.03717(5) 0.0191 Uani
N3M N 0.79818(5) 0.83209(5) 0.06456(5) 0.0221 Uani
C1M C 0.83775(6) 0.78813(6) 0.06602(6) 0.0223 Uani
H1M H 0.8571 0.7732 0.0733 0.0270 Uiso
C2M C 0.82661(6) 0.81880(6) 0.08298(6) 0.0210 Uani
C3M C 0.84033(6) 0.83655(6) 0.11580(6) 0.0218 Uani
C4M C 0.82325(6) 0.86710(6) 0.12934(6) 0.0216 Uani
H2M H 0.8024 0.8762 0.1177 0.0260 Uiso
N1Q N 0.78293(5) 0.96256(5) 0.18337(5) 0.0197 Uani
N2Q N 0.81010(5) 0.96283(5) 0.20733(5) 0.0191 Uani
N3Q N 0.83209(5) 0.93544(5) 0.20182(5) 0.0221 Uani
C1Q C 0.78813(6) 0.93398(6) 0.16225(6) 0.0223 Uani
H1Q H 0.7732 0.9267 0.1429 0.0270 Uiso
C2Q C 0.81880(6) 0.91702(6) 0.17339(6) 0.0210 Uani
C3Q C 0.83655(6) 0.88420(6) 0.15967(6) 0.0218 Uani
C4Q C 0.86710(6) 0.87066(6) 0.17675(6) 0.0216 Uani
H2Q H 0.8762 0.8823 0.1976 0.0260 Uiso
N1U N 0.96256(5) 0.81663(5) 0.21707(5) 0.0197 Uani
N2U N 0.96283(5) 0.79267(5) 0.18990(5) 0.0191 Uani
N3U N 0.93544(5) 0.79818(5) 0.16791(5) 0.0221 Uani
C1U C 0.93398(6) 0.83775(6) 0.21187(6) 0.0223 Uani
H1U H 0.9267 0.8571 0.2268 0.0270 Uiso
C2U C 0.91702(6) 0.82661(6) 0.18120(6) 0.0210 Uani
C3U C 0.88420(6) 0.84033(6) 0.16345(6) 0.0218 Uani
C4U C 0.87066(6) 0.82325(6) 0.13290(6) 0.0216 Uani
H2U H 0.8823 0.8024 0.1238 0.0260 Uiso
Fe1M Fe 0.75514(2) 0.81602(2) 0.0000 0.0226 Uani
Fe1Q Fe 0.81602(2) 1.0000 0.24486(2) 0.0226 Uani
Fe1U Fe 1.0000 0.75514(2) 0.18398(2) 0.0226 Uani
Fe1AA Fe 0.68398(2) 0.75514(2) 0.0000 0.0226 Uani
Fe1RA Fe 1.0000 0.74486(2) 0.31602(2) 0.0226 Uani
Fe1XA Fe 0.81602(2) 0.74486(2) 0.0000 0.0226 Uani
Fe1LB Fe 0.68398(2) 1.0000 0.25514(2) 0.0226 Uani
Fe1YB Fe 1.0000 0.81602(2) 0.25514(2) 0.0226 Uani
Fe1CC Fe 0.75514(2) 1.0000 0.31602(2) 0.0226 Uani
Fe1FC Fe 0.74486(2) 0.68398(2) 0.0000 0.0226 Uani
Fe1MC Fe 0.68398(2) 0.5000 0.24486(2) 0.0226 Uani
Fe1PC Fe 0.5000 0.74486(2) 0.18398(2) 0.0226 Uani
Cl1Q Cl 0.7500 1.0000 0.2500 0.0218 Uani
Cl1U Cl 1.0000 0.7500 0.2500 0.0218 Uani
N1SC N 0.71707(5) 0.68337(5) 0.53744(5) 0.0197 Uani
N1XC N 0.46256(5) 0.71707(5) 0.31663(5) 0.0197 Uani
N1HD N 0.78293(5) 1.03744(5) 0.18337(5) 0.0197 Uani
N1DE N 0.81663(5) 0.71707(5) 0.53744(5) 0.0197 Uani
N1IE N 0.78293(5) 0.46256(5) 0.31663(5) 0.0197 Uani
N1KE N 1.03744(5) 0.68337(5) 0.28293(5) 0.0197 Uani
N1XE N 0.81663(5) 0.46256(5) 0.21707(5) 0.0197 Uani
N1CF N 0.68337(5) 0.78293(5) 0.53744(5) 0.0197 Uani
N1JF N 0.46256(5) 0.81663(5) 0.28293(5) 0.0197 Uani
N1LF N 0.78293(5) 0.81663(5) 0.53744(5) 0.0197 Uani
N1DG N 0.71707(5) 0.46256(5) 0.18337(5) 0.0197 Uani
N1IG N 0.46256(5) 0.68337(5) 0.21707(5) 0.0197 Uani
N2SC N 0.68990(5) 0.70733(5) 0.53717(5) 0.0191 Uani
N2XC N 0.46283(5) 0.68990(5) 0.29267(5) 0.0191 Uani
N2CD N 0.70733(5) 0.46283(5) 0.31010(5) 0.0191 Uani
N2WD N 0.46283(5) 0.81010(5) 0.20733(5) 0.0191 Uani
N2YD N 0.70733(5) 1.03717(5) 0.18990(5) 0.0191 Uani
N2DE N 0.79267(5) 0.68990(5) 0.53717(5) 0.0191 Uani
N2IE N 0.81010(5) 0.46283(5) 0.29267(5) 0.0191 Uani
N2SE N 1.03717(5) 0.68990(5) 0.20733(5) 0.0191 Uani
N2XE N 0.79267(5) 0.46283(5) 0.18990(5) 0.0191 Uani
N2CF N 0.70733(5) 0.81010(5) 0.53717(5) 0.0191 Uani
N2JF N 0.46283(5) 0.79267(5) 0.31010(5) 0.0191 Uani
N2LF N 0.81010(5) 0.79267(5) 0.53717(5) 0.0191 Uani
loop_
_atom_site_aniso_label
_atom_site_aniso_U_11
_atom_site_aniso_U_22
_atom_site_aniso_U_33
_atom_site_aniso_U_23
_atom_site_aniso_U_13
_atom_site_aniso_U_12
Fe1 0.0397(4) 0.0168(3) 0.0114(3) 0.000 0.000 0.0008(2)
Cl1 0.0243(5) 0.0243(5) 0.0168(7) 0.000 0.000 0.000
O1 0.0369(19) 0.062(2) 0.058(2) 0.000 0.000 0.0019(15)
N1 0.0199(10) 0.0243(11) 0.0148(9) 0.0002(8) 0.0020(8) 0.0019(8)
N2 0.0251(10) 0.0180(9) 0.0142(9) 0.0006(8) -0.0020(8) 0.0005(8)
N3 0.0252(10) 0.0218(10) 0.0192(10) -0.0022(8) -0.0028(8) 0.0036(8)
C1 0.0238(12) 0.0245(12) 0.0185(12) -0.0040(9) 0.0011(9) 0.0042(10)
C2 0.0228(12) 0.0216(12) 0.0186(12) -0.0037(10) -0.0014(9) 0.0045(10)
C3 0.0215(12) 0.0240(12) 0.0200(11) -0.0034(9) -0.0049(9) 0.0023(10)
C4 0.0209(12) 0.0211(11) 0.0228(12) -0.0071(9) -0.0012(10) 0.0054(10)
C5 0.057(3) 0.0260(19) 0.0239(19) 0.000 0.000 -0.0053(18)
N1G 0.0148 0.0199 0.0243 -0.0019 0.0002 -0.002
N2G 0.0142 0.0251 0.018 -0.0005 0.0006 0.002
N3G 0.0192 0.0252 0.0218 -0.0036 -0.0022 0.0028
C1G 0.0185 0.0238 0.0245 -0.0042 -0.004 -0.0011
C2G 0.0186 0.0228 0.0216 -0.0045 -0.0037 0.0014
C3G 0.02 0.0215 0.024 -0.0023 -0.0034 0.0049
C4G 0.0228 0.0209 0.0211 -0.0054 -0.0071 0.0012
N1J 0.0243 0.0148 0.0199 0.002 -0.0019 -0.0002
N2J 0.018 0.0142 0.0251 -0.002 -0.0005 -0.0006
N3J 0.0218 0.0192 0.0252 -0.0028 -0.0036 0.0022
C1J 0.0245 0.0185 0.0238 0.0011 -0.0042 0.004
C2J 0.0216 0.0186 0.0228 -0.0014 -0.0045 0.0037
C3J 0.024 0.02 0.0215 -0.0049 -0.0023 0.0034
C4J 0.0211 0.0228 0.0209 -0.0012 -0.0054 0.0071
Fe1G 0.0114 0.0397 0.0168 -0.0008 0 0
Cl1G 0.0168 0.0243 0.0243 0 0 0
O1G 0.058 0.0369 0.062 -0.0019 0 0
C5G 0.0239 0.057 0.026 0.0053 0 0
Fe1J 0.0168 0.0114 0.0397 0 -0.0008 0
Cl1J 0.0243 0.0168 0.0243 0 0 0
O1J 0.062 0.058 0.0369 0 -0.0019 0
C5J 0.026 0.0239 0.057 0 0.0053 0
Fe1DA 0.0114 0.0397 0.0168 -0.0008 0 0
O1DA 0.058 0.0369 0.062 -0.0019 0 0
N1DA 0.0148 0.0199 0.0243 -0.0019 -0.0002 0.002
N2DA 0.0142 0.0251 0.018 -0.0005 -0.0006 -0.002
N3DA 0.0192 0.0252 0.0218 -0.0036 0.0022 -0.0028
C1DA 0.0185 0.0238 0.0245 -0.0042 0.004 0.0011
C2DA 0.0186 0.0228 0.0216 -0.0045 0.0037 -0.0014
C3DA 0.02 0.0215 0.024 -0.0023 0.0034 -0.0049
C4DA 0.0228 0.0209 0.0211 -0.0054 0.0071 -0.0012
C5DA 0.0239 0.057 0.026 0.0053 0 0
N1FA 0.0243 0.0148 0.0199 0.002 0.0019 0.0002
N2FA 0.018 0.0142 0.0251 -0.002 0.0005 0.0006
N3FA 0.0218 0.0192 0.0252 -0.0028 0.0036 -0.0022
C1FA 0.0245 0.0185 0.0238 0.0011 0.0042 -0.004
C2FA 0.0216 0.0186 0.0228 -0.0014 0.0045 -0.0037
C3FA 0.024 0.02 0.0215 -0.0049 0.0023 -0.0034
C4FA 0.0211 0.0228 0.0209 -0.0012 0.0054 -0.0071
N1AA 0.0199 0.0243 0.0148 0.0002 -0.002 -0.0019
N2AA 0.0251 0.018 0.0142 0.0006 0.002 -0.0005
N3AA 0.0252 0.0218 0.0192 -0.0022 0.0028 -0.0036
C1AA 0.0238 0.0245 0.0185 -0.004 -0.0011 -0.0042
C2AA 0.0228 0.0216 0.0186 -0.0037 0.0014 -0.0045
C3AA 0.0215 0.024 0.02 -0.0034 0.0049 -0.0023
C4AA 0.0209 0.0211 0.0228 -0.0071 0.0012 -0.0054
Fe1FA 0.0168 0.0114 0.0397 0 0.0008 0
O1FA 0.062 0.058 0.0369 0 0.0019 0
C5FA 0.026 0.0239 0.057 0 -0.0053 0
Fe1MA 0.0168 0.0397 0.0114 0 0 -0.0008
O1MA 0.062 0.0369 0.058 0 0 -0.0019
N1MA 0.0243 0.0199 0.0148 0.002 -0.0002 -0.0019
N2MA 0.018 0.0251 0.0142 -0.002 -0.0006 -0.0005
N3MA 0.0218 0.0252 0.0192 -0.0028 0.0022 -0.0036
C1MA 0.0245 0.0238 0.0185 0.0011 0.004 -0.0042
C2MA 0.0216 0.0228 0.0186 -0.0014 0.0037 -0.0045
C3MA 0.024 0.0215 0.02 -0.0049 0.0034 -0.0023
C4MA 0.0211 0.0209 0.0228 -0.0012 0.0071 -0.0054
C5MA 0.026 0.057 0.0239 0 0 0.0053
N1PA 0.0199 0.0148 0.0243 0.0002 0.0019 0.002
N2PA 0.0251 0.0142 0.018 0.0006 0.0005 -0.002
N3PA 0.0252 0.0192 0.0218 -0.0022 0.0036 -0.0028
C1PA 0.0238 0.0185 0.0245 -0.004 0.0042 0.0011
C2PA 0.0228 0.0186 0.0216 -0.0037 0.0045 -0.0014
C3PA 0.0215 0.02 0.024 -0.0034 0.0023 -0.0049
C4PA 0.0209 0.0228 0.0211 -0.0071 0.0054 -0.0012
N1RA 0.0148 0.0243 0.0199 -0.0019 -0.002 0.0002
N2RA 0.0142 0.018 0.0251 -0.0005 0.002 0.0006
N3RA 0.0192 0.0218 0.0252 -0.0036 0.0028 -0.0022
C1RA 0.0185 0.0245 0.0238 -0.0042 -0.0011 -0.004
C2RA 0.0186 0.0216 0.0228 -0.0045 0.0014 -0.0037
C3RA 0.02 0.024 0.0215 -0.0023 0.0049 -0.0034
C4RA 0.0228 0.0211 0.0209 -0.0054 0.0012 -0.0071
Fe1PA 0.0397 0.0114 0.0168 0 0.0008 0
O1PA 0.0369 0.058 0.062 0 0.0019 0
C5PA 0.057 0.0239 0.026 0 -0.0053 0
N1XA 0.0199 0.0243 0.0148 -0.0002 0.002 -0.0019
N2XA 0.0251 0.018 0.0142 -0.0006 -0.002 -0.0005
N3XA 0.0252 0.0218 0.0192 0.0022 -0.0028 -0.0036
C1XA 0.0238 0.0245 0.0185 0.004 0.0011 -0.0042
C2XA 0.0228 0.0216 0.0186 0.0037 -0.0014 -0.0045
C3XA 0.0215 0.024 0.02 0.0034 -0.0049 -0.0023
C4XA 0.0209 0.0211 0.0228 0.0071 -0.0012 -0.0054
N1ZA 0.0148 0.0199 0.0243 0.0019 0.0002 0.002
N2ZA 0.0142 0.0251 0.018 0.0005 0.0006 -0.002
N3ZA 0.0192 0.0252 0.0218 0.0036 -0.0022 -0.0028
C1ZA 0.0185 0.0238 0.0245 0.0042 -0.004 0.0011
C2ZA 0.0186 0.0228 0.0216 0.0045 -0.0037 -0.0014
C3ZA 0.02 0.0215 0.024 0.0023 -0.0034 -0.0049
C4ZA 0.0228 0.0209 0.0211 0.0054 -0.0071 -0.0012
N1GB 0.0243 0.0148 0.0199 -0.002 -0.0019 0.0002
N2GB 0.018 0.0142 0.0251 0.002 -0.0005 0.0006
N3GB 0.0218 0.0192 0.0252 0.0028 -0.0036 -0.0022
C1GB 0.0245 0.0185 0.0238 -0.0011 -0.0042 -0.004
C2GB 0.0216 0.0186 0.0228 0.0014 -0.0045 -0.0037
C3GB 0.024 0.02 0.0215 0.0049 -0.0023 -0.0034
C4GB 0.0211 0.0228 0.0209 0.0012 -0.0054 -0.0071
Fe1ZA 0.0114 0.0397 0.0168 0.0008 0 0
O1ZA 0.058 0.0369 0.062 0.0019 0 0
C5ZA 0.0239 0.057 0.026 -0.0053 0 0
Fe1GB 0.0168 0.0114 0.0397 0 -0.0008 0
O1GB 0.062 0.058 0.0369 0 -0.0019 0
C5GB 0.026 0.0239 0.057 0 0.0053 0
Fe1JB 0.0168 0.0397 0.0114 0 0 -0.0008
O1JB 0.062 0.0369 0.058 0 0 -0.0019
N1JB 0.0243 0.0199 0.0148 -0.002 0.0002 -0.0019
N2JB 0.018 0.0251 0.0142 0.002 0.0006 -0.0005
N3JB 0.0218 0.0252 0.0192 0.0028 -0.0022 -0.0036
C1JB 0.0245 0.0238 0.0185 -0.0011 -0.004 -0.0042
C2JB 0.0216 0.0228 0.0186 0.0014 -0.0037 -0.0045
C3JB 0.024 0.0215 0.02 0.0049 -0.0034 -0.0023
C4JB 0.0211 0.0209 0.0228 0.0012 -0.0071 -0.0054
C5JB 0.026 0.057 0.0239 0 0 0.0053
N1LB 0.0199 0.0148 0.0243 -0.0002 -0.0019 0.002
N2LB 0.0251 0.0142 0.018 -0.0006 -0.0005 -0.002
N3LB 0.0252 0.0192 0.0218 0.0022 -0.0036 -0.0028
C1LB 0.0238 0.0185 0.0245 0.004 -0.0042 0.0011
C2LB 0.0228 0.0186 0.0216 0.0037 -0.0045 -0.0014
C3LB 0.0215 0.02 0.024 0.0034 -0.0023 -0.0049
C4LB 0.0209 0.0228 0.0211 0.0071 -0.0054 -0.0012
N1SB 0.0148 0.0243 0.0199 0.0019 0.002 0.0002
N2SB 0.0142 0.018 0.0251 0.0005 -0.002 0.0006
N3SB 0.0192 0.0218 0.0252 0.0036 -0.0028 -0.0022
C1SB 0.0185 0.0245 0.0238 0.0042 0.0011 -0.004
C2SB 0.0186 0.0216 0.0228 0.0045 -0.0014 -0.0037
C3SB 0.02 0.024 0.0215 0.0023 -0.0049 -0.0034
C4SB 0.0228 0.0211 0.0209 0.0054 -0.0012 -0.0071
Fe1SB 0.0114 0.0168 0.0397 0.0008 0 0
O1SB 0.058 0.062 0.0369 0.0019 0 0
C5SB 0.0239 0.026 0.057 -0.0053 0 0
Fe1UB 0.0397 0.0168 0.0114 0 0 0.0008
O1UB 0.0369 0.062 0.058 0 0 0.0019
N1UB 0.0199 0.0243 0.0148 -0.0002 -0.002 0.0019
N2UB 0.0251 0.018 0.0142 -0.0006 0.002 0.0005
N3UB 0.0252 0.0218 0.0192 0.0022 0.0028 0.0036
C1UB 0.0238 0.0245 0.0185 0.004 -0.0011 0.0042
C2UB 0.0228 0.0216 0.0186 0.0037 0.0014 0.0045
C3UB 0.0215 0.024 0.02 0.0034 0.0049 0.0023
C4UB 0.0209 0.0211 0.0228 0.0071 0.0012 0.0054
C5UB 0.057 0.026 0.0239 0 0 -0.0053
N1YB 0.0148 0.0199 0.0243 0.0019 -0.0002 -0.002
N2YB 0.0142 0.0251 0.018 0.0005 -0.0006 0.002
N3YB 0.0192 0.0252 0.0218 0.0036 0.0022 0.0028
C1YB 0.0185 0.0238 0.0245 0.0042 0.004 -0.0011
C2YB 0.0186 0.0228 0.0216 0.0045 0.0037 0.0014
C3YB 0.02 0.0215 0.024 0.0023 0.0034 0.0049
C4YB 0.0228 0.0209 0.0211 0.0054 0.0071 0.0012
N1CC 0.0243 0.0148 0.0199 -0.002 0.0019 -0.0002
N2CC 0.018 0.0142 0.0251 0.002 0.0005 -0.0006
N3CC 0.0218 0.0192 0.0252 0.0028 0.0036 0.0022
C1CC 0.0245 0.0185 0.0238 -0.0011 0.0042 0.004
C2CC 0.0216 0.0186 0.0228 0.0014 0.0045 0.0037
C3CC 0.024 0.02 0.0215 0.0049 0.0023 0.0034
C4CC 0.0211 0.0228 0.0209 0.0012 0.0054 0.0071
N1FC 0.0243 0.0199 0.0148 -0.002 -0.0002 0.0019
N2FC 0.018 0.0251 0.0142 0.002 -0.0006 0.0005
N3FC 0.0218 0.0252 0.0192 0.0028 0.0022 0.0036
C1FC 0.0245 0.0238 0.0185 -0.0011 0.004 0.0042
C2FC 0.0216 0.0228 0.0186 0.0014 0.0037 0.0045
C3FC 0.024 0.0215 0.02 0.0049 0.0034 0.0023
C4FC 0.0211 0.0209 0.0228 0.0012 0.0071 0.0054
N1MC 0.0199 0.0148 0.0243 -0.0002 0.0019 -0.002
N2MC 0.0251 0.0142 0.018 -0.0006 0.0005 0.002
N3MC 0.0252 0.0192 0.0218 0.0022 0.0036 0.0028
C1MC 0.0238 0.0185 0.0245 0.004 0.0042 -0.0011
C2MC 0.0228 0.0186 0.0216 0.0037 0.0045 0.0014
C3MC 0.0215 0.02 0.024 0.0034 0.0023 0.0049
C4MC 0.0209 0.0228 0.0211 0.0071 0.0054 0.0012
N1PC 0.0148 0.0243 0.0199 0.0019 -0.002 -0.0002
N2PC 0.0142 0.018 0.0251 0.0005 0.002 -0.0006
N3PC 0.0192 0.0218 0.0252 0.0036 0.0028 0.0022
C1PC 0.0185 0.0245 0.0238 0.0042 -0.0011 0.004
C2PC 0.0186 0.0216 0.0228 0.0045 0.0014 0.0037
C3PC 0.02 0.024 0.0215 0.0023 0.0049 0.0034
C4PC 0.0228 0.0211 0.0209 0.0054 0.0012 0.0071
N1M 0.0243 0.0199 0.0148 0.002 0.0002 0.0019
N2M 0.018 0.0251 0.0142 -0.002 0.0006 0.0005
N3M 0.0218 0.0252 0.0192 -0.0028 -0.0022 0.0036
C1M 0.0245 0.0238 0.0185 0.0011 -0.004 0.0042
C2M 0.0216 0.0228 0.0186 -0.0014 -0.0037 0.0045
C3M 0.024 0.0215 0.02 -0.0049 -0.0034 0.0023
C4M 0.0211 0.0209 0.0228 -0.0012 -0.0071 0.0054
N1Q 0.0199 0.0148 0.0243 0.0002 -0.0019 -0.002
N2Q 0.0251 0.0142 0.018 0.0006 -0.0005 0.002
N3Q 0.0252 0.0192 0.0218 -0.0022 -0.0036 0.0028
C1Q 0.0238 0.0185 0.0245 -0.004 -0.0042 -0.0011
C2Q 0.0228 0.0186 0.0216 -0.0037 -0.0045 0.0014
C3Q 0.0215 0.02 0.024 -0.0034 -0.0023 0.0049
C4Q 0.0209 0.0228 0.0211 -0.0071 -0.0054 0.0012
N1U 0.0148 0.0243 0.0199 -0.0019 0.002 -0.0002
N2U 0.0142 0.018 0.0251 -0.0005 -0.002 -0.0006
N3U 0.0192 0.0218 0.0252 -0.0036 -0.0028 0.0022
C1U 0.0185 0.0245 0.0238 -0.0042 0.0011 0.004
C2U 0.0186 0.0216 0.0228 -0.0045 -0.0014 0.0037
C3U 0.02 0.024 0.0215 -0.0023 -0.0049 0.0034
C4U 0.0228 0.0211 0.0209 -0.0054 -0.0012 0.0071
Fe1M 0.0168 0.0397 0.0114 0 0 0.0008
Fe1Q 0.0397 0.0114 0.0168 0 -0.0008 0
Fe1U 0.0114 0.0168 0.0397 -0.0008 0 0
Fe1AA 0.0397 0.0168 0.0114 0 0 -0.0008
Fe1RA 0.0114 0.0168 0.0397 -0.0008 0 0
Fe1XA 0.0397 0.0168 0.0114 0 0 -0.0008
Fe1LB 0.0397 0.0114 0.0168 0 -0.0008 0
Fe1YB 0.0114 0.0397 0.0168 0.0008 0 0
Fe1CC 0.0168 0.0114 0.0397 0 0.0008 0
Fe1FC 0.0168 0.0397 0.0114 0 0 0.0008
Fe1MC 0.0397 0.0114 0.0168 0 0.0008 0
Fe1PC 0.0114 0.0168 0.0397 0.0008 0 0
Cl1Q 0.0243 0.0168 0.0243 0 0 0
Cl1U 0.0168 0.0243 0.0243 0 0 0
N1SC 0.0199 0.0243 0.0148 -0.0002 -0.002 0.0019
N1XC 0.0148 0.0199 0.0243 -0.0019 -0.0002 0.002
N1HD 0.0199 0.0148 0.0243 -0.0002 -0.0019 0.002
N1DE 0.0243 0.0199 0.0148 -0.002 0.0002 -0.0019
N1IE 0.0199 0.0148 0.0243 -0.0002 0.0019 -0.002
N1KE 0.0148 0.0243 0.0199 -0.0019 0.002 -0.0002
N1XE 0.0243 0.0148 0.0199 0.002 -0.0019 -0.0002
N1CF 0.0243 0.0199 0.0148 0.002 -0.0002 -0.0019
N1JF 0.0148 0.0243 0.0199 0.0019 -0.002 -0.0002
N1LF 0.0199 0.0243 0.0148 0.0002 0.002 0.0019
N1DG 0.0199 0.0148 0.0243 0.0002 0.0019 0.002
N1IG 0.0148 0.0243 0.0199 0.0019 0.002 0.0002
N2SC 0.0251 0.018 0.0142 -0.0006 0.002 0.0005
N2XC 0.0142 0.0251 0.018 -0.0005 -0.0006 -0.002
N2CD 0.018 0.0142 0.0251 0.002 -0.0005 0.0006
N2WD 0.0142 0.0251 0.018 -0.0005 0.0006 0.002
N2YD 0.018 0.0142 0.0251 0.002 0.0005 -0.0006
N2DE 0.018 0.0251 0.0142 0.002 0.0006 -0.0005
N2IE 0.0251 0.0142 0.018 -0.0006 0.0005 0.002
N2SE 0.0142 0.0251 0.018 0.0005 -0.0006 0.002
N2XE 0.018 0.0142 0.0251 -0.002 -0.0005 -0.0006
N2CF 0.018 0.0251 0.0142 -0.002 -0.0006 -0.0005
N2JF 0.0142 0.018 0.0251 0.0005 0.002 -0.0006
N2LF 0.0251 0.018 0.0142 0.0006 -0.002 0.0005
loop_
_geom_bond_atom_site_label_1
_geom_bond_atom_site_label_2
_geom_bond_site_symmetry_1
_geom_bond_site_symmetry_2
Fe1 Cl1 1_555 1_555
Cl1 Fe1MA 1_555 1_555
O1 C5 1_555 1_555
N1 N2 1_555 1_555
N2 Fe1 1_555 1_555
N3 N2 1_555 1_555
C1 N1 1_555 1_555
H1 C1 1_555 1_555
C2 N3 1_555 1_555
C3 C2 1_555 1_555
C4 C3 1_555 1_555
H2 C4 1_555 1_555
C5 Fe1 1_555 1_555
N1G N2G 1_555 1_555
N2G N3G 1_555 1_555
N3G C2G 1_555 1_555
C1G N1G 1_555 1_555
H1G C1G 1_555 1_555
C2G C1G 1_555 1_555
C3G C4 1_555 1_555
C4G C3G 1_555 1_555
H2G C4G 1_555 1_555
N1J N2J 1_555 1_555
N2J N3J 1_555 1_555
N3J C2J 1_555 1_555
C1J N1J 1_555 1_555
H1J C1J 1_555 1_555
C2J C1J 1_555 1_555
C3J C4G 1_555 1_555
C4J C3 1_555 1_555
H2J C4J 1_555 1_555
Fe1G N2G 1_555 1_555
Cl1G Fe1G 1_555 1_555
O1G C5G 1_555 1_555
C5G Fe1G 1_555 1_555
Fe1J N2J 1_555 1_555
Cl1J Fe1J 1_555 1_555
O1J C5J 1_555 1_555
C5J Fe1J 1_555 1_555
Fe1DA Cl1G 1_555 1_555
O1DA C5DA 1_555 1_555
N1DA N2DA 1_555 1_555
N2DA Fe1DA 1_555 1_555
N3DA N2DA 1_555 1_555
C1DA N1DA 1_555 1_555
H1DA C1DA 1_555 1_555
C2DA N3DA 1_555 1_555
C3DA C2DA 1_555 1_555
C4DA C3DA 1_555 1_555
H2DA C4DA 1_555 1_555
C5DA Fe1DA 1_555 1_555
N1FA N2FA 1_555 1_555
N2FA N3FA 1_555 1_555
N3FA C2FA 1_555 1_555
C1FA N1FA 1_555 1_555
H1FA C1FA 1_555 1_555
C2FA C1FA 1_555 1_555
C3FA C4DA 1_555 1_555
C4FA C3FA 1_555 1_555
H2FA C4FA 1_555 1_555
N1AA N2AA 1_555 1_555
N2AA N3AA 1_555 1_555
N3AA C2AA 1_555 1_555
C1AA N1AA 1_555 1_555
H1AA C1AA 1_555 1_555
C2AA C1AA 1_555 1_555
C3AA C4FA 1_555 1_555
C4AA C3DA 1_555 1_555
H2AA C4AA 1_555 1_555
Fe1FA N2FA 1_555 1_555
O1FA C5FA 1_555 1_555
C5FA Fe1FA 1_555 1_555
Fe1MA N1 1_555 1_555
O1MA C5MA 1_555 1_555
N1MA N2MA 1_555 1_555
N2MA Fe1MA 1_555 1_555
N3MA N2MA 1_555 1_555
C1MA N1MA 1_555 1_555
H1MA C1MA 1_555 1_555
C2MA N3MA 1_555 1_555
C3MA C2MA 1_555 1_555
C4MA C3MA 1_555 1_555
H2MA C4MA 1_555 1_555
C5MA Fe1MA 1_555 1_555
N1PA Fe1J 1_555 1_555
N2PA N1PA 1_555 1_555
N3PA N2PA 1_555 1_555
C1PA N1PA 1_555 1_555
H1PA C1PA 1_555 1_555
C2PA N3PA 1_555 1_555
C3PA C4MA 1_555 1_555
C4PA C3PA 1_555 1_555
H2PA C4PA 1_555 1_555
N1RA N2RA 1_555 1_555
N2RA N3RA 1_555 1_555
N3RA C2RA 1_555 1_555
C1RA N1RA 1_555 1_555
H1RA C1RA 1_555 1_555
C2RA C1RA 1_555 1_555
C3RA C4PA 1_555 1_555
C4RA C3MA 1_555 1_555
H2RA C4RA 1_555 1_555
Fe1PA Cl1J 1_555 1_555
O1PA C5PA 1_555 1_555
C5PA Fe1PA 1_555 1_555
N1XA N2XA 1_555 1_555
N2XA N3XA 1_555 1_555
N3XA C2XA 1_555 1_555
C1XA N1XA 1_555 1_555
H1XA C1XA 1_555 1_555
C2XA C1XA 1_555 1_555
C3XA C2XA 1_555 1_555
C4XA C3XA 1_555 1_555
H2XA C4XA 1_555 1_555
N1ZA N2ZA 1_555 1_555
N2ZA N3ZA 1_555 1_555
N3ZA C2ZA 1_555 1_555
C1ZA N1ZA 1_555 1_555
H1ZA C1ZA 1_555 1_555
C2ZA C1ZA 1_555 1_555
C3ZA C4XA 1_555 1_555
C4ZA C3ZA 1_555 1_555
H2ZA C4ZA 1_555 1_555
N1GB Fe1PA 1_555 1_555
N2GB N1GB 1_555 1_555
N3GB N2GB 1_555 1_555
C1GB N1GB 1_555 1_555
H1GB C1GB 1_555 1_555
C2GB N3GB 1_555 1_555
C3GB C4ZA 1_555 1_555
C4GB C3XA 1_555 1_555
H2GB C4GB 1_555 1_555
Fe1ZA N1RA 1_555 1_555
O1ZA C5ZA 1_555 1_555
C5ZA Fe1ZA 1_555 1_555
Fe1GB Cl1J 1_555 1_555
O1GB C5GB 1_555 1_555
C5GB Fe1GB 1_555 1_555
Fe1JB Cl1 1_555 1_555
O1JB C5JB 1_555 1_555
N1JB Fe1 1_555 1_555
N2JB Fe1JB 1_555 1_555
N3JB N2JB 1_555 1_555
C1JB N1JB 1_555 1_555
H1JB C1JB 1_555 1_555
C2JB N3JB 1_555 1_555
C3JB C2JB 1_555 1_555
C4JB C3JB 1_555 1_555
H2JB C4JB 1_555 1_555
C5JB Fe1JB 1_555 1_555
N1LB N2LB 1_555 1_555
N2LB N3LB 1_555 1_555
N3LB C2LB 1_555 1_555
C1LB N1LB 1_555 1_555
H1LB C1LB 1_555 1_555
C2LB C1LB 1_555 1_555
C3LB C4JB 1_555 1_555
C4LB C3LB 1_555 1_555
H2LB C4LB 1_555 1_555
N1SB Fe1DA 1_555 1_555
N2SB N1SB 1_555 1_555
N3SB N2SB 1_555 1_555
C1SB N1SB 1_555 1_555
H1SB C1SB 1_555 1_555
C2SB N3SB 1_555 1_555
C3SB C4LB 1_555 1_555
C4SB C3JB 1_555 1_555
H2SB C4SB 1_555 1_555
Fe1SB N1G 1_555 1_555
O1SB C5SB 1_555 1_555
C5SB Fe1SB 1_555 1_555
Fe1UB Cl1 1_555 1_555
O1UB C5UB 1_555 1_555
N1UB Fe1JB 1_555 1_555
N2UB Fe1UB 1_555 1_555
N3UB N2UB 1_555 1_555
C1UB N1UB 1_555 1_555
H1UB C1UB 1_555 1_555
C2UB N3UB 1_555 1_555
C3UB C2UB 1_555 1_555
C4UB C3UB 1_555 1_555
H2UB C4UB 1_555 1_555
C5UB Fe1UB 1_555 1_555
N1YB N2YB 1_555 1_555
N2YB N3YB 1_555 1_555
N3YB C2YB 1_555 1_555
C1YB N1YB 1_555 1_555
H1YB C1YB 1_555 1_555
C2YB C1YB 1_555 1_555
C3YB C4UB 1_555 1_555
C4YB C3YB 1_555 1_555
H2YB C4YB 1_555 1_555
N1CC N2CC 1_555 1_555
N2CC N3CC 1_555 1_555
N3CC C2CC 1_555 1_555
C1CC N1CC 1_555 1_555
H1CC C1CC 1_555 1_555
C2CC C1CC 1_555 1_555
C3CC C4YB 1_555 1_555
C4CC C3UB 1_555 1_555
H2CC C4CC 1_555 1_555
N1FC N2FC 1_555 1_555
N2FC N3FC 1_555 1_555
N3FC C2FC 1_555 1_555
C1FC N1FC 1_555 1_555
H1FC C1FC 1_555 1_555
C2FC C1FC 1_555 1_555
C3FC C2FC 1_555 1_555
C4FC C3FC 1_555 1_555
H2FC C4FC 1_555 1_555
N1MC Fe1GB 1_555 1_555
N2MC N1MC 1_555 1_555
N3MC N2MC 1_555 1_555
C1MC N1MC 1_555 1_555
H1MC C1MC 1_555 1_555
C2MC N3MC 1_555 1_555
C3MC C4FC 1_555 1_555
C4MC C3MC 1_555 1_555
H2MC C4MC 1_555 1_555
N1PC Fe1G 1_555 1_555
N2PC N1PC 1_555 1_555
N3PC N2PC 1_555 1_555
C1PC N1PC 1_555 1_555
H1PC C1PC 1_555 1_555
C2PC N3PC 1_555 1_555
C3PC C4MC 1_555 1_555
C4PC C3FC 1_555 1_555
H2PC C4PC 1_555 1_555
N1M N2M 1_555 1_555
N2M N3M 1_555 1_555
N3M C2M 1_555 1_555
C1M N1M 1_555 1_555
H1M C1M 1_555 1_555
C2M C1M 1_555 1_555
C3M C2M 1_555 1_555
C4M C3M 1_555 1_555
H2M C4M 1_555 1_555
N1Q Fe1FA 1_555 1_555
N2Q N1Q 1_555 1_555
N3Q N2Q 1_555 1_555
C1Q N1Q 1_555 1_555
H1Q C1Q 1_555 1_555
C2Q N3Q 1_555 1_555
C3Q C4M 1_555 1_555
C4Q C3Q 1_555 1_555
H2Q C4Q 1_555 1_555
N1U N2U 1_555 1_555
N2U N3U 1_555 1_555
N3U C2U 1_555 1_555
C1U N1U 1_555 1_555
H1U C1U 1_555 1_555
C2U C1U 1_555 1_555
C3U C4Q 1_555 1_555
C4U C3M 1_555 1_555
H2U C4U 1_555 1_555
Fe1M N1AA 1_555 1_555
Fe1Q N1CC 1_555 1_555
Fe1U N1ZA 1_555 1_555
Fe1AA N2AA 1_555 1_555
Fe1RA N2RA 1_555 1_555
Fe1XA N2XA 1_555 1_555
Fe1LB N1FA 1_555 1_555
Fe1YB N2YB 1_555 1_555
Fe1CC N1LB 1_555 1_555
Fe1FC N1XA 1_555 1_555
Fe1MC N1J 1_555 1_555
Fe1PC Cl1G 1_555 1_555
Cl1Q Fe1FA 1_555 1_555
Cl1U Fe1ZA 1_555 1_555
N1SC Fe1MA 1_555 1_555
N1XC Fe1SB 1_555 1_555
N1HD Fe1FA 1_555 1_555
N1DE Fe1UB 1_555 1_555
N1IE Fe1J 1_555 1_555
N1KE Fe1ZA 1_555 1_555
N1XE Fe1PA 1_555 1_555
N1CF Fe1 1_555 1_555
N1JF Fe1DA 1_555 1_555
N1LF Fe1JB 1_555 1_555
N1DG Fe1GB 1_555 1_555
N1IG Fe1G 1_555 1_555
N2SC Fe1 1_555 1_555
N2XC Fe1G 1_555 1_555
N2CD Fe1J 1_555 1_555
N2WD Fe1DA 1_555 1_555
N2YD Fe1FA 1_555 1_555
N2DE Fe1MA 1_555 1_555
N2IE Fe1PA 1_555 1_555
N2SE Fe1ZA 1_555 1_555
N2XE Fe1GB 1_555 1_555
N2CF Fe1JB 1_555 1_555
N2JF Fe1SB 1_555 1_555
N2LF Fe1UB 1_555 1_555
C1 C2 1_555 1_555
C2G C3G 1_555 1_555
C2J C3J 1_555 1_555
C3J C4J 1_555 1_555
Cl1G Fe1SB 1_555 1_555
Cl1J Fe1MC 1_555 1_555
N1DA Fe1PC 1_555 1_555
C1DA C2DA 1_555 1_555
C2FA C3FA 1_555 1_555
C2AA C3AA 1_555 1_555
C3AA C4AA 1_555 1_555
N1MA Fe1UB 1_555 1_555
C1MA C2MA 1_555 1_555
N2PA Fe1PA 1_555 1_555
C1PA C2PA 1_555 1_555
C2PA C3PA 1_555 1_555
C2RA C3RA 1_555 1_555
C3RA C4RA 1_555 1_555
N2ZA Fe1ZA 1_555 1_555
C2ZA C3ZA 1_555 1_555
N2GB Fe1GB 1_555 1_555
C1GB C2GB 1_555 1_555
C2GB C3GB 1_555 1_555
C3GB C4GB 1_555 1_555
N1JB N2JB 1_555 1_555
C1JB C2JB 1_555 1_555
N2LB Fe1LB 1_555 1_555
C2LB C3LB 1_555 1_555
N2SB Fe1SB 1_555 1_555
C1SB C2SB 1_555 1_555
C2SB C3SB 1_555 1_555
C3SB C4SB 1_555 1_555
N1UB N2UB 1_555 1_555
C1UB C2UB 1_555 1_555
N1YB Fe1RA 1_555 1_555
C2YB C3YB 1_555 1_555
N2CC Fe1CC 1_555 1_555
C2CC C3CC 1_555 1_555
C3CC C4CC 1_555 1_555
N1FC Fe1AA 1_555 1_555
N2FC Fe1FC 1_555 1_555
N2MC Fe1MC 1_555 1_555
C1MC C2MC 1_555 1_555
C2MC C3MC 1_555 1_555
N2PC Fe1PC 1_555 1_555
C1PC C2PC 1_555 1_555
C2PC C3PC 1_555 1_555
C3PC C4PC 1_555 1_555
N1M Fe1XA 1_555 1_555
N2M Fe1M 1_555 1_555
N2Q Fe1Q 1_555 1_555
C1Q C2Q 1_555 1_555
C2Q C3Q 1_555 1_555
N1U Fe1YB 1_555 1_555
N2U Fe1U 1_555 1_555
C2U C3U 1_555 1_555
C3U C4U 1_555 1_555
Fe1Q Cl1Q 1_555 1_555
Fe1U Cl1U 1_555 1_555
Fe1RA Cl1U 1_555 1_555
Fe1LB Cl1Q 1_555 1_555
Fe1YB Cl1U 1_555 1_555
Fe1CC Cl1Q 1_555 1_555
N1SC N2SC 1_555 1_555
N1XC N2XC 1_555 1_555
N1DE N2DE 1_555 1_555
N1IE N2IE 1_555 1_555
N1XE N2XE 1_555 1_555
N1CF N2CF 1_555 1_555
N1JF N2JF 1_555 1_555
N1LF N2LF 1_555 1_555

#END
