
#######################################################################
#
#                 Cambridge Crystallographic Data Centre
#                                CCDC 
#
#######################################################################
#
# If this CIF has been generated from an entry in the Cambridge 
# Structural Database, then it will include bibliographic, chemical, 
# crystal, experimental, refinement or atomic coordinate data resulting 
# from the CCDC's data processing and validation procedures.
#
#######################################################################

data_OLICIX
_chemical_formula_moiety         'C120 H72 Cl5 Fe24 N120 O12'
_symmetry_cell_setting           cubic
_symmetry_space_group_name_H-M   'F m -3 c'
_symmetry_Int_Tables_number      226
_space_group_name_Hall           '-F 4a 2 3'
loop_
_symmetry_equiv_pos_site_id
_symmetry_equiv_pos_as_xyz
1 x,y,z
2 -x,-y,z
3 -x,y,-z
4 x,-y,-z
5 z,x,y
6 z,-x,-y
7 -z,-x,y
8 -z,x,-y
9 y,z,x
10 -y,z,-x
11 y,-z,-x
12 -y,-z,x
13 1/2+y,1/2+x,1/2-z
14 1/2-y,1/2-x,1/2-z
15 1/2+y,1/2-x,1/2+z
16 1/2-y,1/2+x,1/2+z
17 1/2+x,1/2+z,1/2-y
18 1/2-x,1/2+z,1/2+y
19 1/2-x,1/2-z,1/2-y
20 1/2+x,1/2-z,1/2+y
21 1/2+z,1/2+y,1/2-x
22 1/2+z,1/2-y,1/2+x
23 1/2-z,1/2+y,1/2+x
24 1/2-z,1/2-y,1/2-x
25 x,1/2+y,1/2+z
26 -x,1/2-y,1/2+z
27 -x,1/2+y,1/2-z
28 x,1/2-y,1/2-z
29 z,1/2+x,1/2+y
30 z,1/2-x,1/2-y
31 -z,1/2-x,1/2+y
32 -z,1/2+x,1/2-y
33 y,1/2+z,1/2+x
34 -y,1/2+z,1/2-x
35 y,1/2-z,1/2-x
36 -y,1/2-z,1/2+x
37 1/2+y,x,-z
38 1/2-y,-x,-z
39 1/2+y,-x,z
40 1/2-y,x,z
41 1/2+x,z,-y
42 1/2-x,z,y
43 1/2-x,-z,-y
44 1/2+x,-z,y
45 1/2+z,y,-x
46 1/2+z,-y,x
47 1/2-z,y,x
48 1/2-z,-y,-x
49 1/2+x,y,1/2+z
50 1/2-x,-y,1/2+z
51 1/2-x,y,1/2-z
52 1/2+x,-y,1/2-z
53 1/2+z,x,1/2+y
54 1/2+z,-x,1/2-y
55 1/2-z,-x,1/2+y
56 1/2-z,x,1/2-y
57 1/2+y,z,1/2+x
58 1/2-y,z,1/2-x
59 1/2+y,-z,1/2-x
60 1/2-y,-z,1/2+x
61 y,1/2+x,-z
62 -y,1/2-x,-z
63 y,1/2-x,z
64 -y,1/2+x,z
65 x,1/2+z,-y
66 -x,1/2+z,y
67 -x,1/2-z,-y
68 x,1/2-z,y
69 z,1/2+y,-x
70 z,1/2-y,x
71 -z,1/2+y,x
72 -z,1/2-y,-x
73 1/2+x,1/2+y,z
74 1/2-x,1/2-y,z
75 1/2-x,1/2+y,-z
76 1/2+x,1/2-y,-z
77 1/2+z,1/2+x,y
78 1/2+z,1/2-x,-y
79 1/2-z,1/2-x,y
80 1/2-z,1/2+x,-y
81 1/2+y,1/2+z,x
82 1/2-y,1/2+z,-x
83 1/2+y,1/2-z,-x
84 1/2-y,1/2-z,x
85 y,x,1/2-z
86 -y,-x,1/2-z
87 y,-x,1/2+z
88 -y,x,1/2+z
89 x,z,1/2-y
90 -x,z,1/2+y
91 -x,-z,1/2-y
92 x,-z,1/2+y
93 z,y,1/2-x
94 z,-y,1/2+x
95 -z,y,1/2+x
96 -z,-y,1/2-x
97 -x,-y,-z
98 x,y,-z
99 x,-y,z
100 -x,y,z
101 -z,-x,-y
102 -z,x,y
103 z,x,-y
104 z,-x,y
105 -y,-z,-x
106 y,-z,x
107 -y,z,x
108 y,z,-x
109 1/2-y,1/2-x,1/2+z
110 1/2+y,1/2+x,1/2+z
111 1/2-y,1/2+x,1/2-z
112 1/2+y,1/2-x,1/2-z
113 1/2-x,1/2-z,1/2+y
114 1/2+x,1/2-z,1/2-y
115 1/2+x,1/2+z,1/2+y
116 1/2-x,1/2+z,1/2-y
117 1/2-z,1/2-y,1/2+x
118 1/2-z,1/2+y,1/2-x
119 1/2+z,1/2-y,1/2-x
120 1/2+z,1/2+y,1/2+x
121 -x,1/2-y,1/2-z
122 x,1/2+y,1/2-z
123 x,1/2-y,1/2+z
124 -x,1/2+y,1/2+z
125 -z,1/2-x,1/2-y
126 -z,1/2+x,1/2+y
127 z,1/2+x,1/2-y
128 z,1/2-x,1/2+y
129 -y,1/2-z,1/2-x
130 y,1/2-z,1/2+x
131 -y,1/2+z,1/2+x
132 y,1/2+z,1/2-x
133 1/2-y,-x,z
134 1/2+y,x,z
135 1/2-y,x,-z
136 1/2+y,-x,-z
137 1/2-x,-z,y
138 1/2+x,-z,-y
139 1/2+x,z,y
140 1/2-x,z,-y
141 1/2-z,-y,x
142 1/2-z,y,-x
143 1/2+z,-y,-x
144 1/2+z,y,x
145 1/2-x,-y,1/2-z
146 1/2+x,y,1/2-z
147 1/2+x,-y,1/2+z
148 1/2-x,y,1/2+z
149 1/2-z,-x,1/2-y
150 1/2-z,x,1/2+y
151 1/2+z,x,1/2-y
152 1/2+z,-x,1/2+y
153 1/2-y,-z,1/2-x
154 1/2+y,-z,1/2+x
155 1/2-y,z,1/2+x
156 1/2+y,z,1/2-x
157 -y,1/2-x,z
158 y,1/2+x,z
159 -y,1/2+x,-z
160 y,1/2-x,-z
161 -x,1/2-z,y
162 x,1/2-z,-y
163 x,1/2+z,y
164 -x,1/2+z,-y
165 -z,1/2-y,x
166 -z,1/2+y,-x
167 z,1/2-y,-x
168 z,1/2+y,x
169 1/2-x,1/2-y,-z
170 1/2+x,1/2+y,-z
171 1/2+x,1/2-y,z
172 1/2-x,1/2+y,z
173 1/2-z,1/2-x,-y
174 1/2-z,1/2+x,y
175 1/2+z,1/2+x,-y
176 1/2+z,1/2-x,y
177 1/2-y,1/2-z,-x
178 1/2+y,1/2-z,x
179 1/2-y,1/2+z,x
180 1/2+y,1/2+z,-x
181 -y,-x,1/2+z
182 y,x,1/2+z
183 -y,x,1/2-z
184 y,-x,1/2-z
185 -x,-z,1/2+y
186 x,-z,1/2-y
187 x,z,1/2+y
188 -x,z,1/2-y
189 -z,-y,1/2+x
190 -z,y,1/2-x
191 z,-y,1/2-x
192 z,y,1/2+x
_cell_length_a                   38.0680(11)
_cell_length_b                   38.0680(11)
_cell_length_c                   38.0680(11)
_cell_angle_alpha                90
_cell_angle_beta                 90
_cell_angle_gamma                90
_cell_volume                     55167.1
loop_
_atom_site_label
_atom_site_type_symbol
_atom_site_fract_x
_atom_site_fract_y
_atom_site_fract_z
_atom_site_U_iso_or_equiv
_atom_site_thermal_displace_type
Fe1 Fe 0.68180(2) 0.5000 0.25406(2) 0.0122 Uani
Cl1 Cl 0.7500 0.5000 0.2500 0.0136 Uani
O1 O 0.62622(6) 0.5000 0.25523(6) 0.0320 Uani
N1 N 0.68749(4) 0.53921(3) 0.29407(4) 0.0151 Uani
N2 N 0.71409(4) 0.53955(4) 0.31716(4) 0.0150 Uani
N3 N 0.66644(4) 0.56652(4) 0.29908(4) 0.0176 Uani
C1 C 0.67982(4) 0.58513(5) 0.32625(4) 0.0173 Uani
C2 C 0.70990(4) 0.56781(4) 0.33752(5) 0.0189 Uani
H1 H 0.7248 0.5748 0.3563 0.0230 Uiso
C3 C 0.67670(5) 0.63350(5) 0.36940(5) 0.0186 Uani
H2 H 0.6972 0.6245 0.3804 0.0220 Uiso
C4 C 0.66322(4) 0.61688(5) 0.33974(4) 0.0174 Uani
C5 C 0.6041(3) 0.5179(3) 0.2682(4) 0.0893 Uani
H3 H 0.6139 0.5364 0.2818 0.1070 Uiso
N4 N 0.5702(4) 0.5188(6) 0.2684(7) 0.1960 Uani
C5TC C 0.6041(3) 0.4821(3) 0.2682(4) 0.0893 Uani
H3TC H 0.6139 0.4636 0.2818 0.1070 Uiso
N4TC N 0.5702(4) 0.4812(6) 0.2684(7) 0.1960 Uani
N1G N 0.70593(4) 0.68749(4) 0.46079(3) 0.0151 Uani
N2G N 0.68284(4) 0.71409(4) 0.46045(4) 0.0150 Uani
N3G N 0.70092(4) 0.66644(4) 0.43348(4) 0.0176 Uani
C1G C 0.67375(4) 0.67982(4) 0.41487(5) 0.0173 Uani
C2G C 0.66248(5) 0.70990(4) 0.43219(4) 0.0189 Uani
H1G H 0.6437 0.7248 0.4252 0.0230 Uiso
C3G C 0.63060(5) 0.67670(5) 0.36650(5) 0.0186 Uani
H2G H 0.6196 0.6972 0.3755 0.0220 Uiso
C4G C 0.66026(4) 0.66322(4) 0.38312(5) 0.0174 Uani
N1J N 0.53921(3) 0.70593(4) 0.31251(4) 0.0151 Uani
N2J N 0.53955(4) 0.68284(4) 0.28591(4) 0.0150 Uani
N3J N 0.56652(4) 0.70092(4) 0.33356(4) 0.0176 Uani
C1J C 0.58513(5) 0.67375(4) 0.32018(4) 0.0173 Uani
C2J C 0.56781(4) 0.66248(5) 0.29010(4) 0.0189 Uani
H1J H 0.5748 0.6437 0.2752 0.0230 Uiso
C3J C 0.63350(5) 0.63060(5) 0.32330(5) 0.0186 Uani
H2J H 0.6245 0.6196 0.3028 0.0220 Uiso
C4J C 0.61688(5) 0.66026(4) 0.33678(4) 0.0174 Uani
Fe1G Fe 0.74594(2) 0.68180(2) 0.5000 0.0122 Uani
Cl1G Cl 0.7500 0.7500 0.5000 0.0136 Uani
O1G O 0.74477(6) 0.62622(6) 0.5000 0.0320 Uani
C5G C 0.7318(4) 0.6041(3) 0.4821(3) 0.0893 Uani
H3G H 0.7182 0.6139 0.4636 0.1070 Uiso
N4G N 0.7316(7) 0.5702(4) 0.4812(6) 0.1960 Uani
C5WC C 0.7318(4) 0.6041(3) 0.5179(3) 0.0893 Uani
H3WC H 0.7182 0.6139 0.5364 0.1070 Uiso
N4WC N 0.7316(7) 0.5702(4) 0.5188(6) 0.1960 Uani
Fe1J Fe 0.5000 0.74594(2) 0.31820(2) 0.0122 Uani
Cl1J Cl 0.5000 0.7500 0.2500 0.0136 Uani
O1J O 0.5000 0.74477(6) 0.37378(6) 0.0320 Uani
C5J C 0.5179(3) 0.7318(4) 0.3959(3) 0.0893 Uani
H3J H 0.5364 0.7182 0.3861 0.1070 Uiso
N4J N 0.5188(6) 0.7316(7) 0.4298(4) 0.1960 Uani
C5ZC C 0.4821(3) 0.7318(4) 0.3959(3) 0.0893 Uani
H3ZC H 0.4636 0.7182 0.3861 0.1070 Uiso
N4ZC N 0.4812(6) 0.7316(7) 0.4298(4) 0.1960 Uani
Fe1FA Fe 0.5000 0.75406(2) 0.18180(2) 0.0122 Uani
O1FA O 0.5000 0.75523(6) 0.12622(6) 0.0320 Uani
N1FA N 0.53921(3) 0.79407(4) 0.18749(4) 0.0151 Uani
N2FA N 0.53955(4) 0.81716(4) 0.21409(4) 0.0150 Uani
N3FA N 0.56652(4) 0.79908(4) 0.16644(4) 0.0176 Uani
C1FA C 0.58513(5) 0.82625(4) 0.17982(4) 0.0173 Uani
C2FA C 0.56781(4) 0.83752(5) 0.20990(4) 0.0189 Uani
H1FA H 0.5748 0.8563 0.2248 0.0230 Uiso
C3FA C 0.63350(5) 0.86940(5) 0.17670(5) 0.0186 Uani
H2FA H 0.6245 0.8804 0.1972 0.0220 Uiso
C4FA C 0.61688(5) 0.83974(4) 0.16322(4) 0.0174 Uani
C5FA C 0.5179(3) 0.7682(4) 0.1041(3) 0.0893 Uani
H3FA H 0.5364 0.7818 0.1139 0.1070 Uiso
N4FA N 0.5188(6) 0.7684(7) 0.0702(4) 0.1960 Uani
C5ZD C 0.4821(3) 0.7682(4) 0.1041(3) 0.0893 Uani
H3ZD H 0.4636 0.7818 0.1139 0.1070 Uiso
N4ZD N 0.4812(6) 0.7684(7) 0.0702(4) 0.1960 Uani
N1AA N 0.68749(4) 0.96079(3) 0.20593(4) 0.0151 Uani
N2AA N 0.71409(4) 0.96045(4) 0.18284(4) 0.0150 Uani
N3AA N 0.66644(4) 0.93348(4) 0.20092(4) 0.0176 Uani
C1AA C 0.67982(4) 0.91487(5) 0.17375(4) 0.0173 Uani
C2AA C 0.70990(4) 0.93219(4) 0.16248(5) 0.0189 Uani
H1AA H 0.7248 0.9252 0.1437 0.0230 Uiso
C3AA C 0.67670(5) 0.86650(5) 0.13060(5) 0.0186 Uani
H2AA H 0.6972 0.8755 0.1196 0.0220 Uiso
C4AA C 0.66322(4) 0.88312(5) 0.16026(4) 0.0174 Uani
N1DA N 0.70593(4) 0.81251(4) 0.03921(3) 0.0151 Uani
N2DA N 0.68284(4) 0.78591(4) 0.03955(4) 0.0150 Uani
N3DA N 0.70092(4) 0.83356(4) 0.06652(4) 0.0176 Uani
C1DA C 0.67375(4) 0.82018(4) 0.08513(5) 0.0173 Uani
C2DA C 0.66248(5) 0.79010(4) 0.06781(4) 0.0189 Uani
H1DA H 0.6437 0.7752 0.0748 0.0230 Uiso
C3DA C 0.63060(5) 0.82330(5) 0.13350(5) 0.0186 Uani
H2DA H 0.6196 0.8028 0.1245 0.0220 Uiso
C4DA C 0.66026(4) 0.83678(4) 0.11688(5) 0.0174 Uani
N1MA N 0.96079(3) 0.68749(4) 0.29407(4) 0.0151 Uani
N2MA N 0.96045(4) 0.71409(4) 0.31716(4) 0.0150 Uani
N3MA N 0.93348(4) 0.66644(4) 0.29908(4) 0.0176 Uani
C1MA C 0.91487(5) 0.67982(4) 0.32625(4) 0.0173 Uani
C2MA C 0.93219(4) 0.70990(4) 0.33752(5) 0.0189 Uani
H1MA H 0.9252 0.7248 0.3563 0.0230 Uiso
C3MA C 0.86650(5) 0.67670(5) 0.36940(5) 0.0186 Uani
H2MA H 0.8755 0.6972 0.3804 0.0220 Uiso
C4MA C 0.88312(5) 0.66322(4) 0.33974(4) 0.0174 Uani
N1PA N 0.81251(4) 0.70593(4) 0.46079(3) 0.0151 Uani
N2PA N 0.78591(4) 0.68284(4) 0.46045(4) 0.0150 Uani
N3PA N 0.83356(4) 0.70092(4) 0.43348(4) 0.0176 Uani
C1PA C 0.82018(4) 0.67375(4) 0.41487(5) 0.0173 Uani
C2PA C 0.79010(4) 0.66248(5) 0.43219(4) 0.0189 Uani
H1PA H 0.7752 0.6437 0.4252 0.0230 Uiso
C3PA C 0.82330(5) 0.63060(5) 0.36650(5) 0.0186 Uani
H2PA H 0.8028 0.6196 0.3755 0.0220 Uiso
C4PA C 0.83678(4) 0.66026(4) 0.38312(5) 0.0174 Uani
N1RA N 0.79407(4) 0.53921(3) 0.31251(4) 0.0151 Uani
N2RA N 0.81716(4) 0.53955(4) 0.28591(4) 0.0150 Uani
N3RA N 0.79908(4) 0.56652(4) 0.33356(4) 0.0176 Uani
C1RA C 0.82625(4) 0.58513(5) 0.32018(4) 0.0173 Uani
C2RA C 0.83752(5) 0.56781(4) 0.29010(4) 0.0189 Uani
H1RA H 0.8563 0.5748 0.2752 0.0230 Uiso
C3RA C 0.86940(5) 0.63350(5) 0.32330(5) 0.0186 Uani
H2RA H 0.8804 0.6245 0.3028 0.0220 Uiso
C4RA C 0.83974(4) 0.61688(5) 0.33678(4) 0.0174 Uani
Fe1PA Fe 0.81820(2) 0.74594(2) 0.5000 0.0122 Uani
O1PA O 0.87378(6) 0.74477(6) 0.5000 0.0320 Uani
C5PA C 0.8959(3) 0.7318(4) 0.4821(3) 0.0893 Uani
H3PA H 0.8861 0.7182 0.4636 0.1070 Uiso
N4PA N 0.9298(4) 0.7316(7) 0.4812(6) 0.1960 Uani
C5FE C 0.8959(3) 0.7318(4) 0.5179(3) 0.0893 Uani
H3FE H 0.8861 0.7182 0.5364 0.1070 Uiso
N4FE N 0.9298(4) 0.7316(7) 0.5188(6) 0.1960 Uani
Fe1RA Fe 0.75406(2) 0.5000 0.31820(2) 0.0122 Uani
O1RA O 0.75523(6) 0.5000 0.37378(6) 0.0320 Uani
C5RA C 0.7682(4) 0.5179(3) 0.3959(3) 0.0893 Uani
H3RA H 0.7818 0.5364 0.3861 0.1070 Uiso
N4RA N 0.7684(7) 0.5188(6) 0.4298(4) 0.1960 Uani
C5LE C 0.7682(4) 0.4821(3) 0.3959(3) 0.0893 Uani
H3LE H 0.7818 0.4636 0.3861 0.1070 Uiso
N4LE N 0.7684(7) 0.4812(6) 0.4298(4) 0.1960 Uani
Fe1XA Fe 0.81820(2) 0.5000 0.24594(2) 0.0122 Uani
O1XA O 0.87378(6) 0.5000 0.24477(6) 0.0320 Uani
N1XA N 0.81251(4) 0.53921(3) 0.20593(4) 0.0151 Uani
N2XA N 0.78591(4) 0.53955(4) 0.18284(4) 0.0150 Uani
N3XA N 0.83356(4) 0.56652(4) 0.20092(4) 0.0176 Uani
C1XA C 0.82018(4) 0.58513(5) 0.17375(4) 0.0173 Uani
C2XA C 0.79010(4) 0.56781(4) 0.16248(5) 0.0189 Uani
H1XA H 0.7752 0.5748 0.1437 0.0230 Uiso
C3XA C 0.82330(5) 0.63350(5) 0.13060(5) 0.0186 Uani
H2XA H 0.8028 0.6245 0.1196 0.0220 Uiso
C4XA C 0.83678(4) 0.61688(5) 0.16026(4) 0.0174 Uani
C5XA C 0.8959(3) 0.5179(3) 0.2318(4) 0.0893 Uani
H3XA H 0.8861 0.5364 0.2182 0.1070 Uiso
N4XA N 0.9298(4) 0.5188(6) 0.2316(7) 0.1960 Uani
C5NE C 0.8959(3) 0.4821(3) 0.2318(4) 0.0893 Uani
H3NE H 0.8861 0.4636 0.2182 0.1070 Uiso
N4NE N 0.9298(4) 0.4812(6) 0.2316(7) 0.1960 Uani
N1ZA N 0.79407(4) 0.68749(4) 0.03921(3) 0.0151 Uani
N2ZA N 0.81716(4) 0.71409(4) 0.03955(4) 0.0150 Uani
N3ZA N 0.79908(4) 0.66644(4) 0.06652(4) 0.0176 Uani
C1ZA C 0.82625(4) 0.67982(4) 0.08513(5) 0.0173 Uani
C2ZA C 0.83752(5) 0.70990(4) 0.06781(4) 0.0189 Uani
H1ZA H 0.8563 0.7248 0.0748 0.0230 Uiso
C3ZA C 0.86940(5) 0.67670(5) 0.13350(5) 0.0186 Uani
H2ZA H 0.8804 0.6972 0.1245 0.0220 Uiso
C4ZA C 0.83974(4) 0.66322(4) 0.11688(5) 0.0174 Uani
N1GB N 0.96079(3) 0.70593(4) 0.18749(4) 0.0151 Uani
N2GB N 0.96045(4) 0.68284(4) 0.21409(4) 0.0150 Uani
N3GB N 0.93348(4) 0.70092(4) 0.16644(4) 0.0176 Uani
C1GB C 0.91487(5) 0.67375(4) 0.17982(4) 0.0173 Uani
C2GB C 0.93219(4) 0.66248(5) 0.20990(4) 0.0189 Uani
H1GB H 0.9252 0.6437 0.2248 0.0230 Uiso
C3GB C 0.86650(5) 0.63060(5) 0.17670(5) 0.0186 Uani
H2GB H 0.8755 0.6196 0.1972 0.0220 Uiso
C4GB C 0.88312(5) 0.66026(4) 0.16322(4) 0.0174 Uani
Fe1ZA Fe 0.75406(2) 0.68180(2) 0.0000 0.0122 Uani
O1ZA O 0.75523(6) 0.62622(6) 0.0000 0.0320 Uani
C5ZA C 0.7682(4) 0.6041(3) 0.0179(3) 0.0893 Uani
H3ZA H 0.7818 0.6139 0.0364 0.1070 Uiso
N4ZA N 0.7684(7) 0.5702(4) 0.0188(6) 0.1960 Uani
C5TE C 0.7682(4) 0.6041(3) -0.0179(3) 0.0893 Uani
H3TE H 0.7818 0.6139 -0.0364 0.1070 Uiso
N4TE N 0.7684(7) 0.5702(4) -0.0188(6) 0.1960 Uani
Fe1GB Fe 1.0000 0.74594(2) 0.18180(2) 0.0122 Uani
O1GB O 1.0000 0.74477(6) 0.12622(6) 0.0320 Uani
C5GB C 0.9821(3) 0.7318(4) 0.1041(3) 0.0893 Uani
H3GB H 0.9636 0.7182 0.1139 0.1070 Uiso
N4GB N 0.9812(6) 0.7316(7) 0.0702(4) 0.1960 Uani
C5WE C 1.0179(3) 0.7318(4) 0.1041(3) 0.0893 Uani
H3WE H 1.0364 0.7182 0.1139 0.1070 Uiso
N4WE N 1.0188(6) 0.7316(7) 0.0702(4) 0.1960 Uani
N1JB N 0.53921(3) 0.81251(4) 0.29407(4) 0.0151 Uani
N2JB N 0.53955(4) 0.78591(4) 0.31716(4) 0.0150 Uani
N3JB N 0.56652(4) 0.83356(4) 0.29908(4) 0.0176 Uani
C1JB C 0.58513(5) 0.82018(4) 0.32625(4) 0.0173 Uani
C2JB C 0.56781(4) 0.79010(4) 0.33752(5) 0.0189 Uani
H1JB H 0.5748 0.7752 0.3563 0.0230 Uiso
C3JB C 0.63350(5) 0.82330(5) 0.36940(5) 0.0186 Uani
H2JB H 0.6245 0.8028 0.3804 0.0220 Uiso
C4JB C 0.61688(5) 0.83678(4) 0.33974(4) 0.0174 Uani
N1LB N 0.68749(4) 0.79407(4) 0.46079(3) 0.0151 Uani
N2LB N 0.71409(4) 0.81716(4) 0.46045(4) 0.0150 Uani
N3LB N 0.66644(4) 0.79908(4) 0.43348(4) 0.0176 Uani
C1LB C 0.67982(4) 0.82625(4) 0.41487(5) 0.0173 Uani
C2LB C 0.70990(4) 0.83752(5) 0.43219(4) 0.0189 Uani
H1LB H 0.7248 0.8563 0.4252 0.0230 Uiso
C3LB C 0.67670(5) 0.86940(5) 0.36650(5) 0.0186 Uani
H2LB H 0.6972 0.8804 0.3755 0.0220 Uiso
C4LB C 0.66322(4) 0.83974(4) 0.38312(5) 0.0174 Uani
N1SB N 0.70593(4) 0.96079(3) 0.31251(4) 0.0151 Uani
N2SB N 0.68284(4) 0.96045(4) 0.28591(4) 0.0150 Uani
N3SB N 0.70092(4) 0.93348(4) 0.33356(4) 0.0176 Uani
C1SB C 0.67375(4) 0.91487(5) 0.32018(4) 0.0173 Uani
C2SB C 0.66248(5) 0.93219(4) 0.29010(4) 0.0189 Uani
H1SB H 0.6437 0.9252 0.2752 0.0230 Uiso
C3SB C 0.63060(5) 0.86650(5) 0.32330(5) 0.0186 Uani
H2SB H 0.6196 0.8755 0.3028 0.0220 Uiso
C4SB C 0.66026(4) 0.88312(5) 0.33678(4) 0.0174 Uani
N1UB N 0.81251(4) 0.96079(3) 0.29407(4) 0.0151 Uani
N2UB N 0.78591(4) 0.96045(4) 0.31716(4) 0.0150 Uani
N3UB N 0.83356(4) 0.93348(4) 0.29908(4) 0.0176 Uani
C1UB C 0.82018(4) 0.91487(5) 0.32625(4) 0.0173 Uani
C2UB C 0.79010(4) 0.93219(4) 0.33752(5) 0.0189 Uani
H1UB H 0.7752 0.9252 0.3563 0.0230 Uiso
C3UB C 0.82330(5) 0.86650(5) 0.36940(5) 0.0186 Uani
H2UB H 0.8028 0.8755 0.3804 0.0220 Uiso
C4UB C 0.83678(4) 0.88312(5) 0.33974(4) 0.0174 Uani
N1YB N 0.79407(4) 0.81251(4) 0.46079(3) 0.0151 Uani
N2YB N 0.81716(4) 0.78591(4) 0.46045(4) 0.0150 Uani
N3YB N 0.79908(4) 0.83356(4) 0.43348(4) 0.0176 Uani
C1YB C 0.82625(4) 0.82018(4) 0.41487(5) 0.0173 Uani
C2YB C 0.83752(5) 0.79010(4) 0.43219(4) 0.0189 Uani
H1YB H 0.8563 0.7752 0.4252 0.0230 Uiso
C3YB C 0.86940(5) 0.82330(5) 0.36650(5) 0.0186 Uani
H2YB H 0.8804 0.8028 0.3755 0.0220 Uiso
C4YB C 0.83974(4) 0.83678(4) 0.38312(5) 0.0174 Uani
N1CC N 0.96079(3) 0.79407(4) 0.31251(4) 0.0151 Uani
N2CC N 0.96045(4) 0.81716(4) 0.28591(4) 0.0150 Uani
N3CC N 0.93348(4) 0.79908(4) 0.33356(4) 0.0176 Uani
C1CC C 0.91487(5) 0.82625(4) 0.32018(4) 0.0173 Uani
C2CC C 0.93219(4) 0.83752(5) 0.29010(4) 0.0189 Uani
H1CC H 0.9252 0.8563 0.2752 0.0230 Uiso
C3CC C 0.86650(5) 0.86940(5) 0.32330(5) 0.0186 Uani
H2CC H 0.8755 0.8804 0.3028 0.0220 Uiso
C4CC C 0.88312(5) 0.83974(4) 0.33678(4) 0.0174 Uani
Fe1YB Fe 0.75406(2) 0.81820(2) 0.5000 0.0122 Uani
O1YB O 0.75523(6) 0.87378(6) 0.5000 0.0320 Uani
C5YB C 0.7682(4) 0.8959(3) 0.4821(3) 0.0893 Uani
H3YB H 0.7818 0.8861 0.4636 0.1070 Uiso
N4YB N 0.7684(7) 0.9298(4) 0.4812(6) 0.1960 Uani
C5SF C 0.7682(4) 0.8959(3) 0.5179(3) 0.0893 Uani
H3SF H 0.7818 0.8861 0.5364 0.1070 Uiso
N4SF N 0.7684(7) 0.9298(4) 0.5188(6) 0.1960 Uani
Fe1CC Fe 1.0000 0.75406(2) 0.31820(2) 0.0122 Uani
O1CC O 1.0000 0.75523(6) 0.37378(6) 0.0320 Uani
C5CC C 0.9821(3) 0.7682(4) 0.3959(3) 0.0893 Uani
H3CC H 0.9636 0.7818 0.3861 0.1070 Uiso
N4CC N 0.9812(6) 0.7684(7) 0.4298(4) 0.1960 Uani
C5WF C 1.0179(3) 0.7682(4) 0.3959(3) 0.0893 Uani
H3WF H 1.0364 0.7818 0.3861 0.1070 Uiso
N4WF N 1.0188(6) 0.7684(7) 0.4298(4) 0.1960 Uani
Fe1FC Fe 0.5000 0.68180(2) 0.24594(2) 0.0122 Uani
O1FC O 0.5000 0.62622(6) 0.24477(6) 0.0320 Uani
N1FC N 0.53921(3) 0.68749(4) 0.20593(4) 0.0151 Uani
N2FC N 0.53955(4) 0.71409(4) 0.18284(4) 0.0150 Uani
N3FC N 0.56652(4) 0.66644(4) 0.20092(4) 0.0176 Uani
C1FC C 0.58513(5) 0.67982(4) 0.17375(4) 0.0173 Uani
C2FC C 0.56781(4) 0.70990(4) 0.16248(5) 0.0189 Uani
H1FC H 0.5748 0.7248 0.1437 0.0230 Uiso
C3FC C 0.63350(5) 0.67670(5) 0.13060(5) 0.0186 Uani
H2FC H 0.6245 0.6972 0.1196 0.0220 Uiso
C4FC C 0.61688(5) 0.66322(4) 0.16026(4) 0.0174 Uani
C5FC C 0.5179(3) 0.6041(3) 0.2318(4) 0.0893 Uani
H3FC H 0.5364 0.6139 0.2182 0.1070 Uiso
N4FC N 0.5188(6) 0.5702(4) 0.2316(7) 0.1960 Uani
C5ZF C 0.4821(3) 0.6041(3) 0.2318(4) 0.0893 Uani
H3ZF H 0.4636 0.6139 0.2182 0.1070 Uiso
N4ZF N 0.4812(6) 0.5702(4) 0.2316(7) 0.1960 Uani
N1MC N 0.68749(4) 0.70593(4) 0.03921(3) 0.0151 Uani
N2MC N 0.71409(4) 0.68284(4) 0.03955(4) 0.0150 Uani
N3MC N 0.66644(4) 0.70092(4) 0.06652(4) 0.0176 Uani
C1MC C 0.67982(4) 0.67375(4) 0.08513(5) 0.0173 Uani
C2MC C 0.70990(4) 0.66248(5) 0.06781(4) 0.0189 Uani
H1MC H 0.7248 0.6437 0.0748 0.0230 Uiso
C3MC C 0.67670(5) 0.63060(5) 0.13350(5) 0.0186 Uani
H2MC H 0.6972 0.6196 0.1245 0.0220 Uiso
C4MC C 0.66322(4) 0.66026(4) 0.11688(5) 0.0174 Uani
N1PC N 0.70593(4) 0.53921(3) 0.18749(4) 0.0151 Uani
N2PC N 0.68284(4) 0.53955(4) 0.21409(4) 0.0150 Uani
N3PC N 0.70092(4) 0.56652(4) 0.16644(4) 0.0176 Uani
C1PC C 0.67375(4) 0.58513(5) 0.17982(4) 0.0173 Uani
C2PC C 0.66248(5) 0.56781(4) 0.20990(4) 0.0189 Uani
H1PC H 0.6437 0.5748 0.2248 0.0230 Uiso
C3PC C 0.63060(5) 0.63350(5) 0.17670(5) 0.0186 Uani
H2PC H 0.6196 0.6245 0.1972 0.0220 Uiso
C4PC C 0.66026(4) 0.61688(5) 0.16322(4) 0.0174 Uani
N1M N 0.96079(3) 0.81251(4) 0.20593(4) 0.0151 Uani
N2M N 0.96045(4) 0.78591(4) 0.18284(4) 0.0150 Uani
N3M N 0.93348(4) 0.83356(4) 0.20092(4) 0.0176 Uani
C1M C 0.91487(5) 0.82018(4) 0.17375(4) 0.0173 Uani
C2M C 0.93219(4) 0.79010(4) 0.16248(5) 0.0189 Uani
H1M H 0.9252 0.7752 0.1437 0.0230 Uiso
C3M C 0.86650(5) 0.82330(5) 0.13060(5) 0.0186 Uani
H2M H 0.8755 0.8028 0.1196 0.0220 Uiso
C4M C 0.88312(5) 0.83678(4) 0.16026(4) 0.0174 Uani
N1Q N 0.81251(4) 0.79407(4) 0.03921(3) 0.0151 Uani
N2Q N 0.78591(4) 0.81716(4) 0.03955(4) 0.0150 Uani
N3Q N 0.83356(4) 0.79908(4) 0.06652(4) 0.0176 Uani
C1Q C 0.82018(4) 0.82625(4) 0.08513(5) 0.0173 Uani
C2Q C 0.79010(4) 0.83752(5) 0.06781(4) 0.0189 Uani
H1Q H 0.7752 0.8563 0.0748 0.0230 Uiso
C3Q C 0.82330(5) 0.86940(5) 0.13350(5) 0.0186 Uani
H2Q H 0.8028 0.8804 0.1245 0.0220 Uiso
C4Q C 0.83678(4) 0.83974(4) 0.11688(5) 0.0174 Uani
N1U N 0.79407(4) 0.96079(3) 0.18749(4) 0.0151 Uani
N2U N 0.81716(4) 0.96045(4) 0.21409(4) 0.0150 Uani
N3U N 0.79908(4) 0.93348(4) 0.16644(4) 0.0176 Uani
C1U C 0.82625(4) 0.91487(5) 0.17982(4) 0.0173 Uani
C2U C 0.83752(5) 0.93219(4) 0.20990(4) 0.0189 Uani
H1U H 0.8563 0.9252 0.2248 0.0230 Uiso
C3U C 0.86940(5) 0.86650(5) 0.17670(5) 0.0186 Uani
H2U H 0.8804 0.8755 0.1972 0.0220 Uiso
C4U C 0.83974(4) 0.88312(5) 0.16322(4) 0.0174 Uani
Fe1M Fe 1.0000 0.81820(2) 0.24594(2) 0.0122 Uani
Fe1Q Fe 0.81820(2) 0.75406(2) 0.0000 0.0122 Uani
Fe1U Fe 0.75406(2) 1.0000 0.18180(2) 0.0122 Uani
Fe1AA Fe 0.68180(2) 1.0000 0.24594(2) 0.0122 Uani
Fe1DA Fe 0.74594(2) 0.81820(2) 0.0000 0.0122 Uani
Fe1MA Fe 1.0000 0.68180(2) 0.25406(2) 0.0122 Uani
Fe1JB Fe 0.5000 0.81820(2) 0.25406(2) 0.0122 Uani
Fe1LB Fe 0.68180(2) 0.75406(2) 0.5000 0.0122 Uani
Fe1SB Fe 0.74594(2) 1.0000 0.31820(2) 0.0122 Uani
Fe1UB Fe 0.81820(2) 1.0000 0.25406(2) 0.0122 Uani
Fe1MC Fe 0.68180(2) 0.74594(2) 0.0000 0.0122 Uani
Fe1PC Fe 0.74594(2) 0.5000 0.18180(2) 0.0122 Uani
Cl1M Cl 1.0000 0.7500 0.2500 0.0136 Uani
Cl1Q Cl 0.7500 0.7500 0.0000 0.0136 Uani
N1TC N 0.68749(4) 0.46079(3) 0.29407(4) 0.0151 Uani
N1WC N 0.70593(4) 0.68749(4) 0.53921(3) 0.0151 Uani
N1ZC N 0.46079(3) 0.70593(4) 0.31251(4) 0.0151 Uani
N1ZD N 0.46079(3) 0.79407(4) 0.18749(4) 0.0151 Uani
N1FE N 0.81251(4) 0.70593(4) 0.53921(3) 0.0151 Uani
N1LE N 0.79407(4) 0.46079(3) 0.31251(4) 0.0151 Uani
N1NE N 0.81251(4) 0.46079(3) 0.20593(4) 0.0151 Uani
N1TE N 0.79407(4) 0.68749(4) -0.03921(3) 0.0151 Uani
N1WE N 1.03921(3) 0.70593(4) 0.18749(4) 0.0151 Uani
N1SF N 0.79407(4) 0.81251(4) 0.53921(3) 0.0151 Uani
N1WF N 1.03921(3) 0.79407(4) 0.31251(4) 0.0151 Uani
N1ZF N 0.46079(3) 0.68749(4) 0.20593(4) 0.0151 Uani
N2TC N 0.71409(4) 0.46045(4) 0.31716(4) 0.0150 Uani
N2ZC N 0.46045(4) 0.68284(4) 0.28591(4) 0.0150 Uani
N2GD N 1.03955(4) 0.78591(4) 0.18284(4) 0.0150 Uani
N2CE N 1.03955(4) 0.71409(4) 0.31716(4) 0.0150 Uani
N2FE N 0.78591(4) 0.68284(4) 0.53955(4) 0.0150 Uani
N2LE N 0.81716(4) 0.46045(4) 0.28591(4) 0.0150 Uani
N2ZE N 0.46045(4) 0.78591(4) 0.31716(4) 0.0150 Uani
N2FF N 0.71409(4) 0.81716(4) 0.53955(4) 0.0150 Uani
N2SF N 0.81716(4) 0.78591(4) 0.53955(4) 0.0150 Uani
N2ZF N 0.46045(4) 0.71409(4) 0.18284(4) 0.0150 Uani
N2CG N 0.71409(4) 0.68284(4) -0.03955(4) 0.0150 Uani
N2FG N 0.68284(4) 0.46045(4) 0.21409(4) 0.0150 Uani
loop_
_atom_site_aniso_label
_atom_site_aniso_U_11
_atom_site_aniso_U_22
_atom_site_aniso_U_33
_atom_site_aniso_U_23
_atom_site_aniso_U_13
_atom_site_aniso_U_12
Fe1 0.01812(18) 0.00719(15) 0.01143(16) 0.000 -0.00006(10) 0.000
Cl1 0.0148(3) 0.0113(4) 0.0148(3) 0.000 0.000 0.000
O1 0.0224(10) 0.0421(12) 0.0316(11) 0.000 0.0017(8) 0.000
N1 0.0197(6) 0.0102(5) 0.0153(6) -0.0020(4) -0.0019(5) 0.0034(5)
N2 0.0163(6) 0.0106(5) 0.0182(6) -0.0036(4) -0.0010(5) 0.0028(4)
N3 0.0217(6) 0.0148(6) 0.0164(6) -0.0061(5) -0.0051(5) 0.0069(5)
C1 0.0179(7) 0.0168(7) 0.0172(7) -0.0069(5) -0.0055(5) 0.0069(5)
C2 0.0182(7) 0.0159(7) 0.0225(7) -0.0076(6) -0.0066(6) 0.0073(5)
C3 0.0187(7) 0.0186(7) 0.0185(7) -0.0077(6) -0.0091(6) 0.0091(6)
C4 0.0185(7) 0.0163(7) 0.0173(7) -0.0074(5) -0.0063(5) 0.0079(5)
C5 0.060(5) 0.088(7) 0.120(8) -0.036(6) 0.001(6) -0.004(5)
N4 0.073(6) 0.24(2) 0.275(18) -0.056(15) 0.056(11) 0.001(9)
C5TC 0.06 0.088 0.12 0.036 0.001 0.004
N4TC 0.073 0.24 0.275 0.056 0.056 -0.001
N1G 0.0153 0.0197 0.0102 -0.0034 -0.002 0.0019
N2G 0.0182 0.0163 0.0106 -0.0028 -0.0036 0.001
N3G 0.0164 0.0217 0.0148 -0.0069 -0.0061 0.0051
C1G 0.0172 0.0179 0.0168 -0.0069 -0.0069 0.0055
C2G 0.0225 0.0182 0.0159 -0.0073 -0.0076 0.0066
C3G 0.0185 0.0187 0.0186 -0.0091 -0.0077 0.0091
C4G 0.0173 0.0185 0.0163 -0.0079 -0.0074 0.0063
N1J 0.0102 0.0153 0.0197 -0.0019 -0.0034 0.002
N2J 0.0106 0.0182 0.0163 -0.001 -0.0028 0.0036
N3J 0.0148 0.0164 0.0217 -0.0051 -0.0069 0.0061
C1J 0.0168 0.0172 0.0179 -0.0055 -0.0069 0.0069
C2J 0.0159 0.0225 0.0182 -0.0066 -0.0073 0.0076
C3J 0.0186 0.0185 0.0187 -0.0091 -0.0091 0.0077
C4J 0.0163 0.0173 0.0185 -0.0063 -0.0079 0.0074
Fe1G 0.01143 0.01812 0.00719 0 0 6e-05
Cl1G 0.0148 0.0148 0.0113 0 0 0
O1G 0.0316 0.0224 0.0421 0 0 -0.0017
C5G 0.12 0.06 0.088 0.004 -0.036 -0.001
N4G 0.275 0.073 0.24 -0.001 -0.056 -0.056
C5WC 0.12 0.06 0.088 -0.004 0.036 -0.001
N4WC 0.275 0.073 0.24 0.001 0.056 -0.056
Fe1J 0.00719 0.01143 0.01812 -6e-05 0 0
Cl1J 0.0113 0.0148 0.0148 0 0 0
O1J 0.0421 0.0316 0.0224 0.0017 0 0
C5J 0.088 0.12 0.06 0.001 0.004 0.036
N4J 0.24 0.275 0.073 0.056 -0.001 0.056
C5ZC 0.088 0.12 0.06 0.001 -0.004 -0.036
N4ZC 0.24 0.275 0.073 0.056 0.001 -0.056
Fe1FA 0.00719 0.01143 0.01812 -6e-05 0 0
O1FA 0.0421 0.0316 0.0224 0.0017 0 0
N1FA 0.0102 0.0153 0.0197 -0.0019 0.0034 -0.002
N2FA 0.0106 0.0182 0.0163 -0.001 0.0028 -0.0036
N3FA 0.0148 0.0164 0.0217 -0.0051 0.0069 -0.0061
C1FA 0.0168 0.0172 0.0179 -0.0055 0.0069 -0.0069
C2FA 0.0159 0.0225 0.0182 -0.0066 0.0073 -0.0076
C3FA 0.0186 0.0185 0.0187 -0.0091 0.0091 -0.0077
C4FA 0.0163 0.0173 0.0185 -0.0063 0.0079 -0.0074
C5FA 0.088 0.12 0.06 0.001 -0.004 -0.036
N4FA 0.24 0.275 0.073 0.056 0.001 -0.056
C5ZD 0.088 0.12 0.06 0.001 0.004 0.036
N4ZD 0.24 0.275 0.073 0.056 -0.001 0.056
N1AA 0.0197 0.0102 0.0153 -0.002 0.0019 -0.0034
N2AA 0.0163 0.0106 0.0182 -0.0036 0.001 -0.0028
N3AA 0.0217 0.0148 0.0164 -0.0061 0.0051 -0.0069
C1AA 0.0179 0.0168 0.0172 -0.0069 0.0055 -0.0069
C2AA 0.0182 0.0159 0.0225 -0.0076 0.0066 -0.0073
C3AA 0.0187 0.0186 0.0185 -0.0077 0.0091 -0.0091
C4AA 0.0185 0.0163 0.0173 -0.0074 0.0063 -0.0079
N1DA 0.0153 0.0197 0.0102 -0.0034 0.002 -0.0019
N2DA 0.0182 0.0163 0.0106 -0.0028 0.0036 -0.001
N3DA 0.0164 0.0217 0.0148 -0.0069 0.0061 -0.0051
C1DA 0.0172 0.0179 0.0168 -0.0069 0.0069 -0.0055
C2DA 0.0225 0.0182 0.0159 -0.0073 0.0076 -0.0066
C3DA 0.0185 0.0187 0.0186 -0.0091 0.0077 -0.0091
C4DA 0.0173 0.0185 0.0163 -0.0079 0.0074 -0.0063
N1MA 0.0102 0.0197 0.0153 -0.0019 0.002 -0.0034
N2MA 0.0106 0.0163 0.0182 -0.001 0.0036 -0.0028
N3MA 0.0148 0.0217 0.0164 -0.0051 0.0061 -0.0069
C1MA 0.0168 0.0179 0.0172 -0.0055 0.0069 -0.0069
C2MA 0.0159 0.0182 0.0225 -0.0066 0.0076 -0.0073
C3MA 0.0186 0.0187 0.0185 -0.0091 0.0077 -0.0091
C4MA 0.0163 0.0185 0.0173 -0.0063 0.0074 -0.0079
N1PA 0.0197 0.0153 0.0102 -0.002 0.0034 -0.0019
N2PA 0.0163 0.0182 0.0106 -0.0036 0.0028 -0.001
N3PA 0.0217 0.0164 0.0148 -0.0061 0.0069 -0.0051
C1PA 0.0179 0.0172 0.0168 -0.0069 0.0069 -0.0055
C2PA 0.0182 0.0225 0.0159 -0.0076 0.0073 -0.0066
C3PA 0.0187 0.0185 0.0186 -0.0077 0.0091 -0.0091
C4PA 0.0185 0.0173 0.0163 -0.0074 0.0079 -0.0063
N1RA 0.0153 0.0102 0.0197 -0.0034 0.0019 -0.002
N2RA 0.0182 0.0106 0.0163 -0.0028 0.001 -0.0036
N3RA 0.0164 0.0148 0.0217 -0.0069 0.0051 -0.0061
C1RA 0.0172 0.0168 0.0179 -0.0069 0.0055 -0.0069
C2RA 0.0225 0.0159 0.0182 -0.0073 0.0066 -0.0076
C3RA 0.0185 0.0186 0.0187 -0.0091 0.0091 -0.0077
C4RA 0.0173 0.0163 0.0185 -0.0079 0.0063 -0.0074
Fe1PA 0.01812 0.01143 0.00719 0 0 -6e-05
O1PA 0.0224 0.0316 0.0421 0 0 0.0017
C5PA 0.06 0.12 0.088 -0.036 -0.004 0.001
N4PA 0.073 0.275 0.24 -0.056 0.001 0.056
C5FE 0.06 0.12 0.088 0.036 0.004 0.001
N4FE 0.073 0.275 0.24 0.056 -0.001 0.056
Fe1RA 0.01143 0.00719 0.01812 0 6e-05 0
O1RA 0.0316 0.0421 0.0224 0 -0.0017 0
C5RA 0.12 0.088 0.06 0.004 -0.001 -0.036
N4RA 0.275 0.24 0.073 -0.001 -0.056 -0.056
C5LE 0.12 0.088 0.06 -0.004 -0.001 0.036
N4LE 0.275 0.24 0.073 0.001 -0.056 0.056
Fe1XA 0.01812 0.00719 0.01143 0 -6e-05 0
O1XA 0.0224 0.0421 0.0316 0 0.0017 0
N1XA 0.0197 0.0102 0.0153 0.002 -0.0019 -0.0034
N2XA 0.0163 0.0106 0.0182 0.0036 -0.001 -0.0028
N3XA 0.0217 0.0148 0.0164 0.0061 -0.0051 -0.0069
C1XA 0.0179 0.0168 0.0172 0.0069 -0.0055 -0.0069
C2XA 0.0182 0.0159 0.0225 0.0076 -0.0066 -0.0073
C3XA 0.0187 0.0186 0.0185 0.0077 -0.0091 -0.0091
C4XA 0.0185 0.0163 0.0173 0.0074 -0.0063 -0.0079
C5XA 0.06 0.088 0.12 0.036 0.001 0.004
N4XA 0.073 0.24 0.275 0.056 0.056 -0.001
C5NE 0.06 0.088 0.12 -0.036 0.001 -0.004
N4NE 0.073 0.24 0.275 -0.056 0.056 0.001
N1ZA 0.0153 0.0197 0.0102 0.0034 -0.002 -0.0019
N2ZA 0.0182 0.0163 0.0106 0.0028 -0.0036 -0.001
N3ZA 0.0164 0.0217 0.0148 0.0069 -0.0061 -0.0051
C1ZA 0.0172 0.0179 0.0168 0.0069 -0.0069 -0.0055
C2ZA 0.0225 0.0182 0.0159 0.0073 -0.0076 -0.0066
C3ZA 0.0185 0.0187 0.0186 0.0091 -0.0077 -0.0091
C4ZA 0.0173 0.0185 0.0163 0.0079 -0.0074 -0.0063
N1GB 0.0102 0.0153 0.0197 0.0019 -0.0034 -0.002
N2GB 0.0106 0.0182 0.0163 0.001 -0.0028 -0.0036
N3GB 0.0148 0.0164 0.0217 0.0051 -0.0069 -0.0061
C1GB 0.0168 0.0172 0.0179 0.0055 -0.0069 -0.0069
C2GB 0.0159 0.0225 0.0182 0.0066 -0.0073 -0.0076
C3GB 0.0186 0.0185 0.0187 0.0091 -0.0091 -0.0077
C4GB 0.0163 0.0173 0.0185 0.0063 -0.0079 -0.0074
Fe1ZA 0.01143 0.01812 0.00719 0 0 -6e-05
O1ZA 0.0316 0.0224 0.0421 0 0 0.0017
C5ZA 0.12 0.06 0.088 -0.004 -0.036 0.001
N4ZA 0.275 0.073 0.24 0.001 -0.056 0.056
C5TE 0.12 0.06 0.088 0.004 0.036 0.001
N4TE 0.275 0.073 0.24 -0.001 0.056 0.056
Fe1GB 0.00719 0.01143 0.01812 6e-05 0 0
O1GB 0.0421 0.0316 0.0224 -0.0017 0 0
C5GB 0.088 0.12 0.06 -0.001 0.004 -0.036
N4GB 0.24 0.275 0.073 -0.056 -0.001 -0.056
C5WE 0.088 0.12 0.06 -0.001 -0.004 0.036
N4WE 0.24 0.275 0.073 -0.056 0.001 0.056
N1JB 0.0102 0.0197 0.0153 0.0019 -0.002 -0.0034
N2JB 0.0106 0.0163 0.0182 0.001 -0.0036 -0.0028
N3JB 0.0148 0.0217 0.0164 0.0051 -0.0061 -0.0069
C1JB 0.0168 0.0179 0.0172 0.0055 -0.0069 -0.0069
C2JB 0.0159 0.0182 0.0225 0.0066 -0.0076 -0.0073
C3JB 0.0186 0.0187 0.0185 0.0091 -0.0077 -0.0091
C4JB 0.0163 0.0185 0.0173 0.0063 -0.0074 -0.0079
N1LB 0.0197 0.0153 0.0102 0.002 -0.0034 -0.0019
N2LB 0.0163 0.0182 0.0106 0.0036 -0.0028 -0.001
N3LB 0.0217 0.0164 0.0148 0.0061 -0.0069 -0.0051
C1LB 0.0179 0.0172 0.0168 0.0069 -0.0069 -0.0055
C2LB 0.0182 0.0225 0.0159 0.0076 -0.0073 -0.0066
C3LB 0.0187 0.0185 0.0186 0.0077 -0.0091 -0.0091
C4LB 0.0185 0.0173 0.0163 0.0074 -0.0079 -0.0063
N1SB 0.0153 0.0102 0.0197 0.0034 -0.0019 -0.002
N2SB 0.0182 0.0106 0.0163 0.0028 -0.001 -0.0036
N3SB 0.0164 0.0148 0.0217 0.0069 -0.0051 -0.0061
C1SB 0.0172 0.0168 0.0179 0.0069 -0.0055 -0.0069
C2SB 0.0225 0.0159 0.0182 0.0073 -0.0066 -0.0076
C3SB 0.0185 0.0186 0.0187 0.0091 -0.0091 -0.0077
C4SB 0.0173 0.0163 0.0185 0.0079 -0.0063 -0.0074
N1UB 0.0197 0.0102 0.0153 0.002 0.0019 0.0034
N2UB 0.0163 0.0106 0.0182 0.0036 0.001 0.0028
N3UB 0.0217 0.0148 0.0164 0.0061 0.0051 0.0069
C1UB 0.0179 0.0168 0.0172 0.0069 0.0055 0.0069
C2UB 0.0182 0.0159 0.0225 0.0076 0.0066 0.0073
C3UB 0.0187 0.0186 0.0185 0.0077 0.0091 0.0091
C4UB 0.0185 0.0163 0.0173 0.0074 0.0063 0.0079
N1YB 0.0153 0.0197 0.0102 0.0034 0.002 0.0019
N2YB 0.0182 0.0163 0.0106 0.0028 0.0036 0.001
N3YB 0.0164 0.0217 0.0148 0.0069 0.0061 0.0051
C1YB 0.0172 0.0179 0.0168 0.0069 0.0069 0.0055
C2YB 0.0225 0.0182 0.0159 0.0073 0.0076 0.0066
C3YB 0.0185 0.0187 0.0186 0.0091 0.0077 0.0091
C4YB 0.0173 0.0185 0.0163 0.0079 0.0074 0.0063
N1CC 0.0102 0.0153 0.0197 0.0019 0.0034 0.002
N2CC 0.0106 0.0182 0.0163 0.001 0.0028 0.0036
N3CC 0.0148 0.0164 0.0217 0.0051 0.0069 0.0061
C1CC 0.0168 0.0172 0.0179 0.0055 0.0069 0.0069
C2CC 0.0159 0.0225 0.0182 0.0066 0.0073 0.0076
C3CC 0.0186 0.0185 0.0187 0.0091 0.0091 0.0077
C4CC 0.0163 0.0173 0.0185 0.0063 0.0079 0.0074
Fe1YB 0.01143 0.01812 0.00719 0 0 6e-05
O1YB 0.0316 0.0224 0.0421 0 0 -0.0017
C5YB 0.12 0.06 0.088 -0.004 0.036 -0.001
N4YB 0.275 0.073 0.24 0.001 0.056 -0.056
C5SF 0.12 0.06 0.088 0.004 -0.036 -0.001
N4SF 0.275 0.073 0.24 -0.001 -0.056 -0.056
Fe1CC 0.00719 0.01143 0.01812 6e-05 0 0
O1CC 0.0421 0.0316 0.0224 -0.0017 0 0
C5CC 0.088 0.12 0.06 -0.001 -0.004 0.036
N4CC 0.24 0.275 0.073 -0.056 0.001 0.056
C5WF 0.088 0.12 0.06 -0.001 0.004 -0.036
N4WF 0.24 0.275 0.073 -0.056 -0.001 -0.056
Fe1FC 0.00719 0.01812 0.01143 6e-05 0 0
O1FC 0.0421 0.0224 0.0316 -0.0017 0 0
N1FC 0.0102 0.0197 0.0153 0.0019 0.002 0.0034
N2FC 0.0106 0.0163 0.0182 0.001 0.0036 0.0028
N3FC 0.0148 0.0217 0.0164 0.0051 0.0061 0.0069
C1FC 0.0168 0.0179 0.0172 0.0055 0.0069 0.0069
C2FC 0.0159 0.0182 0.0225 0.0066 0.0076 0.0073
C3FC 0.0186 0.0187 0.0185 0.0091 0.0077 0.0091
C4FC 0.0163 0.0185 0.0173 0.0063 0.0074 0.0079
C5FC 0.088 0.06 0.12 -0.001 0.036 -0.004
N4FC 0.24 0.073 0.275 -0.056 0.056 0.001
C5ZF 0.088 0.06 0.12 -0.001 -0.036 0.004
N4ZF 0.24 0.073 0.275 -0.056 -0.056 -0.001
N1MC 0.0197 0.0153 0.0102 0.002 0.0034 0.0019
N2MC 0.0163 0.0182 0.0106 0.0036 0.0028 0.001
N3MC 0.0217 0.0164 0.0148 0.0061 0.0069 0.0051
C1MC 0.0179 0.0172 0.0168 0.0069 0.0069 0.0055
C2MC 0.0182 0.0225 0.0159 0.0076 0.0073 0.0066
C3MC 0.0187 0.0185 0.0186 0.0077 0.0091 0.0091
C4MC 0.0185 0.0173 0.0163 0.0074 0.0079 0.0063
N1PC 0.0153 0.0102 0.0197 0.0034 0.0019 0.002
N2PC 0.0182 0.0106 0.0163 0.0028 0.001 0.0036
N3PC 0.0164 0.0148 0.0217 0.0069 0.0051 0.0061
C1PC 0.0172 0.0168 0.0179 0.0069 0.0055 0.0069
C2PC 0.0225 0.0159 0.0182 0.0073 0.0066 0.0076
C3PC 0.0185 0.0186 0.0187 0.0091 0.0091 0.0077
C4PC 0.0173 0.0163 0.0185 0.0079 0.0063 0.0074
N1M 0.0102 0.0197 0.0153 -0.0019 -0.002 0.0034
N2M 0.0106 0.0163 0.0182 -0.001 -0.0036 0.0028
N3M 0.0148 0.0217 0.0164 -0.0051 -0.0061 0.0069
C1M 0.0168 0.0179 0.0172 -0.0055 -0.0069 0.0069
C2M 0.0159 0.0182 0.0225 -0.0066 -0.0076 0.0073
C3M 0.0186 0.0187 0.0185 -0.0091 -0.0077 0.0091
C4M 0.0163 0.0185 0.0173 -0.0063 -0.0074 0.0079
N1Q 0.0197 0.0153 0.0102 -0.002 -0.0034 0.0019
N2Q 0.0163 0.0182 0.0106 -0.0036 -0.0028 0.001
N3Q 0.0217 0.0164 0.0148 -0.0061 -0.0069 0.0051
C1Q 0.0179 0.0172 0.0168 -0.0069 -0.0069 0.0055
C2Q 0.0182 0.0225 0.0159 -0.0076 -0.0073 0.0066
C3Q 0.0187 0.0185 0.0186 -0.0077 -0.0091 0.0091
C4Q 0.0185 0.0173 0.0163 -0.0074 -0.0079 0.0063
N1U 0.0153 0.0102 0.0197 -0.0034 -0.0019 0.002
N2U 0.0182 0.0106 0.0163 -0.0028 -0.001 0.0036
N3U 0.0164 0.0148 0.0217 -0.0069 -0.0051 0.0061
C1U 0.0172 0.0168 0.0179 -0.0069 -0.0055 0.0069
C2U 0.0225 0.0159 0.0182 -0.0073 -0.0066 0.0076
C3U 0.0185 0.0186 0.0187 -0.0091 -0.0091 0.0077
C4U 0.0173 0.0163 0.0185 -0.0079 -0.0063 0.0074
Fe1M 0.00719 0.01812 0.01143 -6e-05 0 0
Fe1Q 0.01812 0.01143 0.00719 0 0 6e-05
Fe1U 0.01143 0.00719 0.01812 0 -6e-05 0
Fe1AA 0.01812 0.00719 0.01143 0 6e-05 0
Fe1DA 0.01143 0.01812 0.00719 0 0 -6e-05
Fe1MA 0.00719 0.01812 0.01143 -6e-05 0 0
Fe1JB 0.00719 0.01812 0.01143 6e-05 0 0
Fe1LB 0.01812 0.01143 0.00719 0 0 -6e-05
Fe1SB 0.01143 0.00719 0.01812 0 -6e-05 0
Fe1UB 0.01812 0.00719 0.01143 0 6e-05 0
Fe1MC 0.01812 0.01143 0.00719 0 0 6e-05
Fe1PC 0.01143 0.00719 0.01812 0 6e-05 0
Cl1M 0.0113 0.0148 0.0148 0 0 0
Cl1Q 0.0148 0.0148 0.0113 0 0 0
N1TC 0.0197 0.0102 0.0153 0.002 -0.0019 -0.0034
N1WC 0.0153 0.0197 0.0102 0.0034 0.002 0.0019
N1ZC 0.0102 0.0153 0.0197 -0.0019 0.0034 -0.002
N1ZD 0.0102 0.0153 0.0197 -0.0019 -0.0034 0.002
N1FE 0.0197 0.0153 0.0102 0.002 -0.0034 -0.0019
N1LE 0.0153 0.0102 0.0197 0.0034 0.0019 0.002
N1NE 0.0197 0.0102 0.0153 -0.002 -0.0019 0.0034
N1TE 0.0153 0.0197 0.0102 -0.0034 0.002 -0.0019
N1WE 0.0102 0.0153 0.0197 0.0019 0.0034 0.002
N1SF 0.0153 0.0197 0.0102 -0.0034 -0.002 0.0019
N1WF 0.0102 0.0153 0.0197 0.0019 -0.0034 -0.002
N1ZF 0.0102 0.0197 0.0153 0.0019 -0.002 -0.0034
N2TC 0.0163 0.0106 0.0182 0.0036 -0.001 -0.0028
N2ZC 0.0106 0.0182 0.0163 -0.001 0.0028 -0.0036
N2GD 0.0106 0.0163 0.0182 -0.001 0.0036 -0.0028
N2CE 0.0106 0.0163 0.0182 -0.001 -0.0036 0.0028
N2FE 0.0163 0.0182 0.0106 0.0036 -0.0028 -0.001
N2LE 0.0182 0.0106 0.0163 0.0028 0.001 0.0036
N2ZE 0.0106 0.0163 0.0182 0.001 0.0036 0.0028
N2FF 0.0163 0.0182 0.0106 -0.0036 0.0028 -0.001
N2SF 0.0182 0.0163 0.0106 -0.0028 -0.0036 0.001
N2ZF 0.0106 0.0163 0.0182 0.001 -0.0036 -0.0028
N2CG 0.0163 0.0182 0.0106 -0.0036 -0.0028 0.001
N2FG 0.0182 0.0106 0.0163 -0.0028 0.001 -0.0036
loop_
_geom_bond_atom_site_label_1
_geom_bond_atom_site_label_2
_geom_bond_site_symmetry_1
_geom_bond_site_symmetry_2
Fe1 Cl1 1_555 1_555
Cl1 Fe1RA 1_555 1_555
O1 Fe1 1_555 1_555
N1 Fe1 1_555 1_555
N2 N1 1_555 1_555
N3 N1 1_555 1_555
C1 N3 1_555 1_555
C2 N2 1_555 1_555
H1 C2 1_555 1_555
C3 H2 1_555 1_555
C4 C1 1_555 1_555
C5 O1 1_555 1_555
H3 C5 1_555 1_555
N4 C5 1_555 1_555
C5TC O1 1_555 1_555
H3TC C5TC 1_555 1_555
N4TC N4 1_555 1_555
N1G N2G 1_555 1_555
N2G C2G 1_555 1_555
N3G N1G 1_555 1_555
C1G N3G 1_555 1_555
C2G C1G 1_555 1_555
H1G C2G 1_555 1_555
C3G H2G 1_555 1_555
C4G C3 1_555 1_555
N1J N2J 1_555 1_555
N2J C2J 1_555 1_555
N3J N1J 1_555 1_555
C1J N3J 1_555 1_555
C2J C1J 1_555 1_555
H1J C2J 1_555 1_555
C3J C4 1_555 1_555
H2J C3J 1_555 1_555
C4J C3G 1_555 1_555
Fe1G N1G 1_555 1_555
Cl1G Fe1G 1_555 1_555
O1G Fe1G 1_555 1_555
C5G O1G 1_555 1_555
H3G C5G 1_555 1_555
N4G C5G 1_555 1_555
C5WC O1G 1_555 1_555
H3WC C5WC 1_555 1_555
N4WC N4G 1_555 1_555
Fe1J N1J 1_555 1_555
Cl1J Fe1J 1_555 1_555
O1J Fe1J 1_555 1_555
C5J O1J 1_555 1_555
H3J C5J 1_555 1_555
N4J C5J 1_555 1_555
C5ZC O1J 1_555 1_555
H3ZC C5ZC 1_555 1_555
N4ZC N4J 1_555 1_555
Fe1FA Cl1J 1_555 1_555
O1FA Fe1FA 1_555 1_555
N1FA Fe1FA 1_555 1_555
N2FA N1FA 1_555 1_555
N3FA N1FA 1_555 1_555
C1FA N3FA 1_555 1_555
C2FA N2FA 1_555 1_555
H1FA C2FA 1_555 1_555
C3FA H2FA 1_555 1_555
C4FA C1FA 1_555 1_555
C5FA O1FA 1_555 1_555
H3FA C5FA 1_555 1_555
N4FA C5FA 1_555 1_555
C5ZD O1FA 1_555 1_555
H3ZD C5ZD 1_555 1_555
N4ZD N4FA 1_555 1_555
N1AA N2AA 1_555 1_555
N2AA C2AA 1_555 1_555
N3AA N1AA 1_555 1_555
C1AA N3AA 1_555 1_555
C2AA C1AA 1_555 1_555
H1AA C2AA 1_555 1_555
C3AA H2AA 1_555 1_555
C4AA C3FA 1_555 1_555
N1DA N2DA 1_555 1_555
N2DA C2DA 1_555 1_555
N3DA N1DA 1_555 1_555
C1DA N3DA 1_555 1_555
C2DA C1DA 1_555 1_555
H1DA C2DA 1_555 1_555
C3DA C4FA 1_555 1_555
H2DA C3DA 1_555 1_555
C4DA C3AA 1_555 1_555
N1MA N2MA 1_555 1_555
N2MA C2MA 1_555 1_555
N3MA N1MA 1_555 1_555
C1MA N3MA 1_555 1_555
C2MA C1MA 1_555 1_555
H1MA C2MA 1_555 1_555
C3MA H2MA 1_555 1_555
C4MA C1MA 1_555 1_555
N1PA N2PA 1_555 1_555
N2PA Fe1G 1_555 1_555
N3PA N1PA 1_555 1_555
C1PA N3PA 1_555 1_555
C2PA N2PA 1_555 1_555
H1PA C2PA 1_555 1_555
C3PA H2PA 1_555 1_555
C4PA C3MA 1_555 1_555
N1RA N2RA 1_555 1_555
N2RA C2RA 1_555 1_555
N3RA N1RA 1_555 1_555
C1RA N3RA 1_555 1_555
C2RA C1RA 1_555 1_555
H1RA C2RA 1_555 1_555
C3RA C4MA 1_555 1_555
H2RA C3RA 1_555 1_555
C4RA C3PA 1_555 1_555
Fe1PA Cl1G 1_555 1_555
O1PA Fe1PA 1_555 1_555
C5PA O1PA 1_555 1_555
H3PA C5PA 1_555 1_555
N4PA C5PA 1_555 1_555
C5FE O1PA 1_555 1_555
H3FE C5FE 1_555 1_555
N4FE N4PA 1_555 1_555
Fe1RA N2 1_555 1_555
O1RA Fe1RA 1_555 1_555
C5RA O1RA 1_555 1_555
H3RA C5RA 1_555 1_555
N4RA C5RA 1_555 1_555
C5LE O1RA 1_555 1_555
H3LE C5LE 1_555 1_555
N4LE N4RA 1_555 1_555
Fe1XA Cl1 1_555 1_555
O1XA Fe1XA 1_555 1_555
N1XA Fe1XA 1_555 1_555
N2XA N1XA 1_555 1_555
N3XA N1XA 1_555 1_555
C1XA N3XA 1_555 1_555
C2XA N2XA 1_555 1_555
H1XA C2XA 1_555 1_555
C3XA H2XA 1_555 1_555
C4XA C1XA 1_555 1_555
C5XA O1XA 1_555 1_555
H3XA C5XA 1_555 1_555
N4XA C5XA 1_555 1_555
C5NE O1XA 1_555 1_555
H3NE C5NE 1_555 1_555
N4NE N4XA 1_555 1_555
N1ZA N2ZA 1_555 1_555
N2ZA C2ZA 1_555 1_555
N3ZA N1ZA 1_555 1_555
C1ZA N3ZA 1_555 1_555
C2ZA C1ZA 1_555 1_555
H1ZA C2ZA 1_555 1_555
C3ZA H2ZA 1_555 1_555
C4ZA C3XA 1_555 1_555
N1GB N2GB 1_555 1_555
N2GB C2GB 1_555 1_555
N3GB N1GB 1_555 1_555
C1GB N3GB 1_555 1_555
C2GB C1GB 1_555 1_555
H1GB C2GB 1_555 1_555
C3GB C4XA 1_555 1_555
H2GB C3GB 1_555 1_555
C4GB C3ZA 1_555 1_555
Fe1ZA N1ZA 1_555 1_555
O1ZA Fe1ZA 1_555 1_555
C5ZA O1ZA 1_555 1_555
H3ZA C5ZA 1_555 1_555
N4ZA C5ZA 1_555 1_555
C5TE O1ZA 1_555 1_555
H3TE C5TE 1_555 1_555
N4TE N4ZA 1_555 1_555
Fe1GB N1GB 1_555 1_555
O1GB Fe1GB 1_555 1_555
C5GB O1GB 1_555 1_555
H3GB C5GB 1_555 1_555
N4GB C5GB 1_555 1_555
C5WE O1GB 1_555 1_555
H3WE C5WE 1_555 1_555
N4WE N4GB 1_555 1_555
N1JB N2JB 1_555 1_555
N2JB Fe1J 1_555 1_555
N3JB N1JB 1_555 1_555
C1JB N3JB 1_555 1_555
C2JB N2JB 1_555 1_555
H1JB C2JB 1_555 1_555
C3JB H2JB 1_555 1_555
C4JB C1JB 1_555 1_555
N1LB N2LB 1_555 1_555
N2LB C2LB 1_555 1_555
N3LB N1LB 1_555 1_555
C1LB N3LB 1_555 1_555
C2LB C1LB 1_555 1_555
H1LB C2LB 1_555 1_555
C3LB H2LB 1_555 1_555
C4LB C3JB 1_555 1_555
N1SB N2SB 1_555 1_555
N2SB C2SB 1_555 1_555
N3SB N1SB 1_555 1_555
C1SB N3SB 1_555 1_555
C2SB C1SB 1_555 1_555
H1SB C2SB 1_555 1_555
C3SB C4JB 1_555 1_555
H2SB C3SB 1_555 1_555
C4SB C3LB 1_555 1_555
N1UB N2UB 1_555 1_555
N2UB C2UB 1_555 1_555
N3UB N1UB 1_555 1_555
C1UB N3UB 1_555 1_555
C2UB C1UB 1_555 1_555
H1UB C2UB 1_555 1_555
C3UB H2UB 1_555 1_555
C4UB C1UB 1_555 1_555
N1YB N2YB 1_555 1_555
N2YB Fe1PA 1_555 1_555
N3YB N1YB 1_555 1_555
C1YB N3YB 1_555 1_555
C2YB N2YB 1_555 1_555
H1YB C2YB 1_555 1_555
C3YB H2YB 1_555 1_555
C4YB C3UB 1_555 1_555
N1CC N2CC 1_555 1_555
N2CC C2CC 1_555 1_555
N3CC N1CC 1_555 1_555
C1CC N3CC 1_555 1_555
C2CC C1CC 1_555 1_555
H1CC C2CC 1_555 1_555
C3CC C4UB 1_555 1_555
H2CC C3CC 1_555 1_555
C4CC C3YB 1_555 1_555
Fe1YB Cl1G 1_555 1_555
O1YB Fe1YB 1_555 1_555
C5YB O1YB 1_555 1_555
H3YB C5YB 1_555 1_555
N4YB C5YB 1_555 1_555
C5SF O1YB 1_555 1_555
H3SF C5SF 1_555 1_555
N4SF N4YB 1_555 1_555
Fe1CC N2MA 1_555 1_555
O1CC Fe1CC 1_555 1_555
C5CC O1CC 1_555 1_555
H3CC C5CC 1_555 1_555
N4CC C5CC 1_555 1_555
C5WF O1CC 1_555 1_555
H3WF C5WF 1_555 1_555
N4WF N4CC 1_555 1_555
Fe1FC N2J 1_555 1_555
O1FC Fe1FC 1_555 1_555
N1FC Fe1FC 1_555 1_555
N2FC Fe1FA 1_555 1_555
N3FC N1FC 1_555 1_555
C1FC N3FC 1_555 1_555
C2FC N2FC 1_555 1_555
H1FC C2FC 1_555 1_555
C3FC H2FC 1_555 1_555
C4FC C1FC 1_555 1_555
C5FC O1FC 1_555 1_555
H3FC C5FC 1_555 1_555
N4FC C5FC 1_555 1_555
C5ZF O1FC 1_555 1_555
H3ZF C5ZF 1_555 1_555
N4ZF N4FC 1_555 1_555
N1MC N2MC 1_555 1_555
N2MC Fe1ZA 1_555 1_555
N3MC N1MC 1_555 1_555
C1MC N3MC 1_555 1_555
C2MC N2MC 1_555 1_555
H1MC C2MC 1_555 1_555
C3MC H2MC 1_555 1_555
C4MC C3FC 1_555 1_555
N1PC N2PC 1_555 1_555
N2PC Fe1 1_555 1_555
N3PC N1PC 1_555 1_555
C1PC N3PC 1_555 1_555
C2PC N2PC 1_555 1_555
H1PC C2PC 1_555 1_555
C3PC C4FC 1_555 1_555
H2PC C3PC 1_555 1_555
C4PC C3MC 1_555 1_555
N1M N2M 1_555 1_555
N2M Fe1GB 1_555 1_555
N3M N1M 1_555 1_555
C1M N3M 1_555 1_555
C2M N2M 1_555 1_555
H1M C2M 1_555 1_555
C3M H2M 1_555 1_555
C4M C1M 1_555 1_555
N1Q N2Q 1_555 1_555
N2Q C2Q 1_555 1_555
N3Q N1Q 1_555 1_555
C1Q N3Q 1_555 1_555
C2Q C1Q 1_555 1_555
H1Q C2Q 1_555 1_555
C3Q H2Q 1_555 1_555
C4Q C3M 1_555 1_555
N1U N2U 1_555 1_555
N2U C2U 1_555 1_555
N3U N1U 1_555 1_555
C1U N3U 1_555 1_555
C2U C1U 1_555 1_555
H1U C2U 1_555 1_555
C3U C4M 1_555 1_555
H2U C3U 1_555 1_555
C4U C3Q 1_555 1_555
Fe1M N2CC 1_555 1_555
Fe1Q N2ZA 1_555 1_555
Fe1U N2AA 1_555 1_555
Fe1AA N1AA 1_555 1_555
Fe1DA N1DA 1_555 1_555
Fe1MA N1MA 1_555 1_555
Fe1JB Cl1J 1_555 1_555
Fe1LB N2G 1_555 1_555
Fe1SB N1SB 1_555 1_555
Fe1UB N1UB 1_555 1_555
Fe1MC N2DA 1_555 1_555
Fe1PC Cl1 1_555 1_555
Cl1M Fe1GB 1_555 1_555
Cl1Q Fe1ZA 1_555 1_555
N1TC Fe1 1_555 1_555
N1WC Fe1G 1_555 1_555
N1ZC Fe1J 1_555 1_555
N1ZD Fe1FA 1_555 1_555
N1FE Fe1PA 1_555 1_555
N1LE Fe1RA 1_555 1_555
N1NE Fe1XA 1_555 1_555
N1TE Fe1ZA 1_555 1_555
N1WE Fe1GB 1_555 1_555
N1SF Fe1YB 1_555 1_555
N1WF Fe1CC 1_555 1_555
N1ZF Fe1FC 1_555 1_555
N2TC Fe1RA 1_555 1_555
N2ZC Fe1FC 1_555 1_555
N2GD Fe1GB 1_555 1_555
N2CE Fe1CC 1_555 1_555
N2FE Fe1G 1_555 1_555
N2LE Fe1XA 1_555 1_555
N2ZE Fe1J 1_555 1_555
N2FF Fe1YB 1_555 1_555
N2SF Fe1PA 1_555 1_555
N2ZF Fe1FA 1_555 1_555
N2CG Fe1ZA 1_555 1_555
N2FG Fe1 1_555 1_555
C1 C2 1_555 1_555
C3 C4 1_555 1_555
C5 C5TC 1_555 1_555
C5TC N4TC 1_555 1_555
C1G C4G 1_555 1_555
C3G C4G 1_555 1_555
C1J C4J 1_555 1_555
C3J C4J 1_555 1_555
Cl1G Fe1LB 1_555 1_555
C5G C5WC 1_555 1_555
C5WC N4WC 1_555 1_555
Cl1J Fe1FC 1_555 1_555
C5J C5ZC 1_555 1_555
C5ZC N4ZC 1_555 1_555
N2FA Fe1JB 1_555 1_555
C1FA C2FA 1_555 1_555
C3FA C4FA 1_555 1_555
C5FA C5ZD 1_555 1_555
C5ZD N4ZD 1_555 1_555
C1AA C4AA 1_555 1_555
C3AA C4AA 1_555 1_555
C1DA C4DA 1_555 1_555
C3DA C4DA 1_555 1_555
C3MA C4MA 1_555 1_555
N1PA Fe1PA 1_555 1_555
C1PA C2PA 1_555 1_555
C1PA C4PA 1_555 1_555
C3PA C4PA 1_555 1_555
N1RA Fe1RA 1_555 1_555
N2RA Fe1XA 1_555 1_555
C1RA C4RA 1_555 1_555
C3RA C4RA 1_555 1_555
C5PA C5FE 1_555 1_555
C5FE N4FE 1_555 1_555
C5RA C5LE 1_555 1_555
C5LE N4LE 1_555 1_555
N2XA Fe1PC 1_555 1_555
C1XA C2XA 1_555 1_555
C3XA C4XA 1_555 1_555
C5XA C5NE 1_555 1_555
C5NE N4NE 1_555 1_555
C1ZA C4ZA 1_555 1_555
C3ZA C4ZA 1_555 1_555
N2GB Fe1MA 1_555 1_555
C1GB C4GB 1_555 1_555
C3GB C4GB 1_555 1_555
C5ZA C5TE 1_555 1_555
C5TE N4TE 1_555 1_555
C5GB C5WE 1_555 1_555
C5WE N4WE 1_555 1_555
N1JB Fe1JB 1_555 1_555
C1JB C2JB 1_555 1_555
C3JB C4JB 1_555 1_555
N1LB Fe1LB 1_555 1_555
N2LB Fe1YB 1_555 1_555
C1LB C4LB 1_555 1_555
C3LB C4LB 1_555 1_555
N2SB Fe1AA 1_555 1_555
C1SB C4SB 1_555 1_555
C3SB C4SB 1_555 1_555
N2UB Fe1SB 1_555 1_555
C3UB C4UB 1_555 1_555
N1YB Fe1YB 1_555 1_555
C1YB C2YB 1_555 1_555
C1YB C4YB 1_555 1_555
C3YB C4YB 1_555 1_555
N1CC Fe1CC 1_555 1_555
C1CC C4CC 1_555 1_555
C3CC C4CC 1_555 1_555
C5YB C5SF 1_555 1_555
C5SF N4SF 1_555 1_555
Fe1CC Cl1M 1_555 1_555
C5CC C5WF 1_555 1_555
C5WF N4WF 1_555 1_555
N1FC N2FC 1_555 1_555
C1FC C2FC 1_555 1_555
C3FC C4FC 1_555 1_555
C5FC C5ZF 1_555 1_555
C5ZF N4ZF 1_555 1_555
N1MC Fe1MC 1_555 1_555
C1MC C2MC 1_555 1_555
C1MC C4MC 1_555 1_555
C3MC C4MC 1_555 1_555
N1PC Fe1PC 1_555 1_555
C1PC C2PC 1_555 1_555
C1PC C4PC 1_555 1_555
C3PC C4PC 1_555 1_555
N1M Fe1M 1_555 1_555
C1M C2M 1_555 1_555
C3M C4M 1_555 1_555
N1Q Fe1Q 1_555 1_555
N2Q Fe1DA 1_555 1_555
C1Q C4Q 1_555 1_555
C3Q C4Q 1_555 1_555
N1U Fe1U 1_555 1_555
N2U Fe1UB 1_555 1_555
C1U C4U 1_555 1_555
C3U C4U 1_555 1_555
Fe1M Cl1M 1_555 1_555
Fe1Q Cl1Q 1_555 1_555
Fe1DA Cl1Q 1_555 1_555
Fe1MA Cl1M 1_555 1_555
Fe1MC Cl1Q 1_555 1_555
N1TC N2TC 1_555 1_555
N1ZC N2ZC 1_555 1_555
N1FE N2FE 1_555 1_555
N1LE N2LE 1_555 1_555
N1SF N2SF 1_555 1_555
N1ZF N2ZF 1_555 1_555

#END
