
#######################################################################
#
#                 Cambridge Crystallographic Data Centre
#                                CCDC 
#
#######################################################################
#
# If this CIF has been generated from an entry in the Cambridge 
# Structural Database, then it will include bibliographic, chemical, 
# crystal, experimental, refinement or atomic coordinate data resulting 
# from the CCDC's data processing and validation procedures.
#
#######################################################################

data_HOYQIX
_chemical_formula_moiety         '(C15 H7 Cu1 O6)n'
_symmetry_cell_setting           rhombohedral
_symmetry_space_group_name_H-M   'R -3'
_symmetry_Int_Tables_number      148
_space_group_name_Hall           '-R 3'
loop_
_symmetry_equiv_pos_site_id
_symmetry_equiv_pos_as_xyz
1 x,y,z
2 -y,x-y,z
3 -x+y,-x,z
4 2/3+x,1/3+y,1/3+z
5 2/3-y,1/3+x-y,1/3+z
6 2/3-x+y,1/3-x,1/3+z
7 1/3+x,2/3+y,2/3+z
8 1/3-y,2/3+x-y,2/3+z
9 1/3-x+y,2/3-x,2/3+z
10 -x,-y,-z
11 y,-x+y,-z
12 x-y,x,-z
13 1/3-x,2/3-y,2/3-z
14 1/3+y,2/3-x+y,2/3-z
15 1/3+x-y,2/3+x,2/3-z
16 2/3-x,1/3-y,1/3-z
17 2/3+y,1/3-x+y,1/3-z
18 2/3+x-y,1/3+x,1/3-z
_cell_length_a                   30.0000(16)
_cell_length_b                   30.0000(16)
_cell_length_c                   16.0000(2)
_cell_angle_alpha                90
_cell_angle_beta                 90
_cell_angle_gamma                120
_cell_volume                     12470.8
loop_
_atom_site_label
_atom_site_type_symbol
_atom_site_fract_x
_atom_site_fract_y
_atom_site_fract_z
_atom_site_U_iso_or_equiv
_atom_site_thermal_displace_type
Cu1 Cu 0.176280(13) 0.382123(14) -0.15274(2) 0.0336 Uani
O1 O 0.13525(9) 0.35140(9) -0.04660(13) 0.0460 Uani
O2 O 0.11687(10) 0.26917(9) -0.07311(14) 0.0502 Uani
O3 O -0.01437(16) 0.12479(12) 0.1081(3) 0.1124 Uani
O4 O -0.06291(9) 0.14250(9) 0.19375(15) 0.0492 Uani
O5 O -0.01844(10) 0.42690(9) 0.44459(15) 0.0536 Uani
O6 O 0.06314(9) 0.49094(9) 0.42013(15) 0.0490 Uani
C1 C 0.11403(12) 0.30333(13) -0.02915(18) 0.0392 Uani
C2 C 0.08126(12) 0.28508(12) 0.05094(19) 0.0396 Uani
C3 C 0.04917(13) 0.23173(13) 0.0650(2) 0.0418 Uani
H1 H 0.0508 0.2082 0.0292 0.0500 Uiso
C4 C 0.01468(13) 0.21402(12) 0.1331(2) 0.0418 Uani
C5 C 0.01394(13) 0.25043(12) 0.19028(19) 0.0418 Uani
H2 H -0.0084 0.2387 0.2357 0.0500 Uiso
C6 C 0.04658(12) 0.30372(12) 0.17857(19) 0.0408 Uani
C7 C 0.08034(12) 0.32075(12) 0.10853(19) 0.0401 Uani
H3 H 0.1022 0.3558 0.1003 0.0480 Uiso
C8 C -0.02364(15) 0.15629(14) 0.1462(3) 0.0556 Uani
C9 C 0.04289(13) 0.34088(13) 0.2384(2) 0.0441 Uani
C10 C -0.00553(14) 0.32831(14) 0.2724(2) 0.0545 Uani
H4 H -0.0345 0.2973 0.2581 0.0650 Uiso
C11 C -0.01049(15) 0.36252(14) 0.3283(2) 0.0569 Uani
H5 H -0.0427 0.3538 0.3496 0.0680 Uiso
C12 C 0.03264(13) 0.40913(13) 0.35149(19) 0.0426 Uani
C13 C 0.08080(15) 0.42217(14) 0.3171(2) 0.0561 Uani
H6 H 0.1096 0.4533 0.3315 0.0670 Uiso
C14 C 0.08599(14) 0.38831(15) 0.2607(2) 0.0561 Uani
H7 H 0.1181 0.3976 0.2384 0.0680 Uiso
C15 C 0.02546(14) 0.44531(13) 0.41021(19) 0.0424 Uani
Cu1E Cu -0.127490(19) 0.157053(13) 0.18059(2) 0.0336 Uani
Cu1G Cu -0.048790(14) 0.460824(19) 0.51393(2) 0.0336 Uani
Cu1P Cu 0.048790(14) 0.539176(19) 0.48607(2) 0.0336 Uani
Cu1L Cu 0.157053(13) 0.284544(14) -0.18059(2) 0.0336 Uani
O2L O 0.21646(10) 0.39750(9) -0.26022(14) 0.0502 Uani
O4G O 0.19083(9) 0.46126(13) -0.13958(15) 0.0492 Uani
O5E O 0.11201(13) 0.35177(10) -0.22208(15) 0.0536 Uani
O6Q O 0.23887(13) 0.39647(9) -0.08680(15) 0.0490 Uani
loop_
_atom_site_aniso_label
_atom_site_aniso_U_11
_atom_site_aniso_U_22
_atom_site_aniso_U_33
_atom_site_aniso_U_23
_atom_site_aniso_U_13
_atom_site_aniso_U_12
Cu1 0.0345(2) 0.0431(3) 0.0260(2) -0.00287(14) -0.00046(13) 0.02160(17)
O1 0.0570(14) 0.0496(14) 0.0327(11) -0.0007(10) 0.0098(10) 0.0276(11)
O2 0.0664(16) 0.0532(14) 0.0391(12) 0.0016(10) 0.0184(11) 0.0359(13)
O3 0.115(3) 0.0537(18) 0.164(4) 0.004(2) 0.075(3) 0.0388(19)
O4 0.0466(13) 0.0510(14) 0.0545(14) 0.0099(11) 0.0051(11) 0.0278(11)
O5 0.0645(16) 0.0455(13) 0.0524(14) -0.0010(11) 0.0201(12) 0.0286(12)
O6 0.0502(14) 0.0430(13) 0.0532(14) -0.0138(11) -0.0001(11) 0.0229(11)
C1 0.0414(17) 0.0492(19) 0.0306(15) -0.0015(13) 0.0004(13) 0.0254(15)
C2 0.0388(16) 0.0482(18) 0.0324(16) -0.0008(13) 0.0036(12) 0.0222(14)
C3 0.0524(19) 0.0446(18) 0.0360(16) -0.0026(13) 0.0037(14) 0.0300(16)
C4 0.0439(18) 0.0438(17) 0.0409(17) -0.0009(14) 0.0046(13) 0.0243(15)
C5 0.0438(17) 0.0452(18) 0.0334(16) 0.0031(13) 0.0085(13) 0.0200(15)
C6 0.0451(18) 0.0447(17) 0.0330(15) -0.0054(13) 0.0059(13) 0.0227(15)
C7 0.0417(17) 0.0389(16) 0.0378(16) -0.0038(13) 0.0046(13) 0.0188(14)
C8 0.057(2) 0.050(2) 0.064(2) -0.0016(18) 0.0094(18) 0.0298(18)
C9 0.0479(19) 0.0428(17) 0.0385(17) -0.0057(14) 0.0091(14) 0.0203(15)
C10 0.0443(19) 0.048(2) 0.059(2) -0.0120(17) 0.0130(16) 0.0140(16)
C11 0.055(2) 0.052(2) 0.061(2) -0.0065(17) 0.0205(18) 0.0247(18)
C12 0.0490(19) 0.0467(18) 0.0344(15) -0.0041(13) 0.0067(14) 0.0256(16)
C13 0.049(2) 0.049(2) 0.063(2) -0.0212(17) 0.0006(17) 0.0190(17)
C14 0.0407(19) 0.059(2) 0.063(2) -0.0149(18) 0.0122(16) 0.0208(17)
C15 0.057(2) 0.053(2) 0.0284(15) 0.0051(14) 0.0073(14) 0.0359(18)
Cu1E 0.0344 0.0345 0.026 0.00046 -0.00241 0.0129
Cu1G 0.0431 0.0344 0.026 0.00241 0.00287 0.0215
Cu1P 0.0431 0.0344 0.026 0.00241 0.00287 0.0215
Cu1L 0.0345 0.0431 0.026 -0.00287 -0.00046 0.0216
O2L 0.0664 0.0532 0.0391 0.0016 0.0184 0.0359
O4G 0.051 0.042 0.0545 -0.0048 -0.0099 0.0232
O5E 0.0528 0.0645 0.0524 -0.0201 -0.0211 0.0359
O6Q 0.0474 0.0502 0.0532 0.0001 -0.0137 0.0273
loop_
_geom_bond_atom_site_label_1
_geom_bond_atom_site_label_2
_geom_bond_site_symmetry_1
_geom_bond_site_symmetry_2
Cu1 O1 1_555 1_555
O1 C1 1_555 1_555
O2 C1 1_555 1_555
O3 C8 1_555 1_555
O4 C8 1_555 1_555
O5 C15 1_555 1_555
O6 C15 1_555 1_555
C1 C2 1_555 1_555
C2 C3 1_555 1_555
C3 H1 1_555 1_555
C4 C3 1_555 1_555
C5 C4 1_555 1_555
H2 C5 1_555 1_555
C6 C5 1_555 1_555
C7 C2 1_555 1_555
H3 C7 1_555 1_555
C8 C4 1_555 1_555
C9 C6 1_555 1_555
C10 C9 1_555 1_555
H4 C10 1_555 1_555
C11 C10 1_555 1_555
H5 C11 1_555 1_555
C12 C11 1_555 1_555
C13 C12 1_555 1_555
H6 C13 1_555 1_555
C14 C9 1_555 1_555
H7 C14 1_555 1_555
C15 C12 1_555 1_555
Cu1E O4 1_555 1_555
Cu1G O5 1_555 1_555
Cu1P O6 1_555 1_555
Cu1L Cu1 1_555 1_555
O2L Cu1 1_555 1_555
O4G Cu1 1_555 1_555
O5E Cu1 1_555 1_555
O6Q Cu1 1_555 1_555
O2 Cu1L 1_555 1_555
C6 C7 1_555 1_555
C13 C14 1_555 1_555
Cu1G Cu1P 1_555 1_555

#END
