
#######################################################################
#
#                 Cambridge Crystallographic Data Centre
#                                CCDC 
#
#######################################################################
#
# If this CIF has been generated from an entry in the Cambridge 
# Structural Database, then it will include bibliographic, chemical, 
# crystal, experimental, refinement or atomic coordinate data resulting 
# from the CCDC's data processing and validation procedures.
#
#######################################################################

data_FUTJOV
_chemical_formula_moiety         'C4 H10 Cu8 N9 O5'
_symmetry_cell_setting           triclinic
_symmetry_space_group_name_H-M   'P -1'
_symmetry_Int_Tables_number      2
_space_group_name_Hall           '-P 1'
loop_
_symmetry_equiv_pos_site_id
_symmetry_equiv_pos_as_xyz
1 x,y,z
2 -x,-y,-z
_cell_length_a                   6.720(2)
_cell_length_b                   9.494(3)
_cell_length_c                   10.682(3)
_cell_angle_alpha                111.979(4)
_cell_angle_beta                 96.879(5)
_cell_angle_gamma                106.678(5)
_cell_volume                     585.258
loop_
_atom_site_label
_atom_site_type_symbol
_atom_site_fract_x
_atom_site_fract_y
_atom_site_fract_z
O4 O 0.4894(13) 0.1444(11) 0.0628(9)
H7 H 0.5212 0.0590 0.0211
H8 H 0.3488 0.1343 0.0313
O5 O 0.6362(13) 0.4152(11) 0.0289(8)
H9 H 0.6142 0.3252 0.0360
H10 H 0.5412 0.4606 0.0444
Cu1 Cu 0.16819(10) 0.39624(7) 0.29210(6)
Cu2 Cu 0.01050(10) 0.14908(8) -0.23073(6)
N1 N 0.1442(9) 0.7226(7) 0.3098(5)
N2 N 0.2755(9) 0.1163(7) 0.3314(5)
C1 C 0.0559(9) 0.2325(7) -0.0314(6)
C2 C 0.2235(7) 0.0886(6) -0.3278(5)
C3 C 0.1189(8) 0.5948(5) 0.2972(5)
C4 C 0.0919(8) 0.2891(6) 0.0878(5)
N3 N 0.2477(8) 0.2178(5) 0.3092(5)
N4 N 0.3521(9) 0.0568(6) -0.3800(6)
O1 O 0.2451(8) 0.5033(6) 0.4958(4)
H1 H 0.3726 0.5690 0.5403
H2 H 0.1513 0.4845 0.5401
O2 O -0.1906(7) 0.2482(5) 0.2959(5)
H3 H -0.2070 0.1911 0.3417
H4 H -0.2996 0.2538 0.2515
O3 O 0.5561(7) 0.5464(5) 0.2965(5)
H5 H 0.6744 0.5898 0.3590
H6 H 0.5560 0.5299 0.2123
Cu3 Cu 0.35954(10) 0.96358(7) 0.39001(6)
Cu2A Cu -0.01050(10) -0.14908(8) 0.23073(6)
Cu2A_2 Cu -0.01050(10) 0.85092(8) 0.23073(6)
N1A N -0.1442(9) 0.2774(7) -0.3098(5)
N2_2 N 0.2755(9) 1.1163(7) 0.3314(5)
N2A N -0.2755(9) -0.1163(7) -0.3314(5)
N4_2 N 0.3521(9) 1.0568(6) 0.6200(6)
N4A N 0.6479(9) 0.9432(6) 0.3800(6)
Cu3_2 Cu 0.35954(10) -0.03642(7) -0.60999(6)
Cu3_3 Cu 0.35954(10) -0.03642(7) 0.39001(6)
Cu3A Cu 0.64046(10) 0.03642(7) -0.39001(6)
loop_
_geom_bond_atom_site_label_1
_geom_bond_atom_site_label_2
_geom_bond_site_symmetry_1
_geom_bond_site_symmetry_2
Cu1 C3 1_555 1_555
Cu2 C1 1_555 1_555
N1 C3 1_555 1_555
N2 N3 1_555 1_555
C1 C4 1_555 1_555
C2 Cu2 1_555 1_555
C4 Cu1 1_555 1_555
N3 Cu1 1_555 1_555
N4 C2 1_555 1_555
O1 Cu1 1_555 1_555
H1 O1 1_555 1_555
H2 O1 1_555 1_555
O2 Cu1 1_555 1_555
H3 O2 1_555 1_555
H4 O2 1_555 1_555
O3 Cu1 1_555 1_555
H5 O3 1_555 1_555
H6 O3 1_555 1_555
Cu3 N1 1_555 1_555
O4 H7 1_555 1_555
H8 O4 1_555 1_555
O5 H9 1_555 1_555
H10 O5 1_555 1_555
Cu2A N2 1_555 1_555
Cu2A_2 N1 1_555 1_555
N1A Cu2 1_555 1_555
N2_2 Cu3 1_555 1_555
N2A Cu2 1_555 1_555
N4_2 Cu3 1_555 1_555
N4A Cu3 1_555 1_555
Cu3_2 N4 1_555 1_555
Cu3_3 N2 1_555 1_555
Cu3A N4 1_555 1_555
Cu2A_2 N2_2 1_555 1_555

#END
