
#######################################################################
#
#                 Cambridge Crystallographic Data Centre
#                                CCDC 
#
#######################################################################
#
# If this CIF has been generated from an entry in the Cambridge 
# Structural Database, then it will include bibliographic, chemical, 
# crystal, experimental, refinement or atomic coordinate data resulting 
# from the CCDC's data processing and validation procedures.
#
#######################################################################

data_NAVCAO
_chemical_formula_moiety         '(C6 H38 Fe8 N2 O62 P14 4-)n'
_symmetry_cell_setting           trigonal
_symmetry_space_group_name_H-M   'P -3 c 1'
_symmetry_Int_Tables_number      165
_space_group_name_Hall           '-P 3 2"c'
loop_
_symmetry_equiv_pos_site_id
_symmetry_equiv_pos_as_xyz
1 x,y,z
2 -y,x-y,z
3 y,x,1/2-z
4 -x+y,-x,z
5 -x,-x+y,1/2-z
6 x-y,-y,1/2-z
7 -x,-y,-z
8 y,-x+y,-z
9 -y,-x,1/2+z
10 x-y,x,-z
11 x,x-y,1/2+z
12 -x+y,y,1/2+z
_cell_length_a                   13.5274(5)
_cell_length_b                   13.5274(5)
_cell_length_c                   19.2645(6)
_cell_angle_alpha                90
_cell_angle_beta                 90
_cell_angle_gamma                120
_cell_volume                     3052.93
loop_
_atom_site_label
_atom_site_type_symbol
_atom_site_fract_x
_atom_site_fract_y
_atom_site_fract_z
Fe1 Fe 0.8556(1) 0.5655(1) 0.45037(7)
O1 O 0.8809(5) 0.6860(5) 0.3831(3)
O2 O 0.7135(5) 0.5641(5) 0.4837(3)
O3 O 0.7722(5) 0.4432(5) 0.3862(3)
O4 O 0.9390(5) 0.6917(5) 0.5293(3)
O5 O 0.8392(9) 0.4572(5) 0.5273(3)
O6 O 1.0059(9) 0.5800(5) 0.4289(3)
P1 P 0.9635(2) 0.8121(2) 0.3712(1)
P2 P 0.6321(2) 0.5051(2) 0.5439(1)
P3 P 0.6667 0.3333 0.3625(2)
O7 O 1.0812(6) 0.8249(6) 0.3475(4)
O8 O 0.9234(6) 0.8597(5) 0.3128(3)
O9 O 0.9836(9) 0.8748(7) 0.4402(3)
O10 O 0.7025(5) 0.4950(6) 0.6066(3)
O11 O 0.6667 0.3333 0.2818(5)
Fe2 Fe 1.0000 1.0000 0.25000
Fe3 Fe 1.0000 1.0000 0.50000
P2C P 0.8730(3) 0.3679(2) 0.5439(1)
O6G O 0.5800(5) 0.5741(10) 0.5711(3)
O5A O 0.5428(5) 0.3820(10) 0.5273(3)
O3A O 0.5568(5) 0.3290(7) 0.3862(3)
O3C O 0.6710(7) 0.2278(5) 0.3862(3)
O2C O 0.8506(7) 0.2865(5) 0.4837(3)
O10C O 0.7925(8) 0.2975(5) 0.6066(3)
O6F O 0.9941(9) 0.4200(5) 0.5711(3)
Fe1G Fe 0.5655(1) 0.7099(1) 0.54963(7)
Fe1A Fe 0.4345(1) 0.2901(1) 0.45037(7)
Fe1C Fe 0.7099(1) 0.1444(1) 0.45037(7)
Fe1F Fe 1.1444(1) 0.4345(1) 0.54963(7)
O8A O 1.1403(5) 1.0637(8) 0.3128(3)
O8B O 0.8597(5) 0.9234(6) 0.1872(3)
O8C O 0.9363(8) 1.0766(6) 0.3128(3)
O8D O 1.0766(6) 0.9363(8) 0.1872(3)
O8E O 1.0637(8) 1.1403(5) 0.1872(3)
O9A O 1.1252(7) 1.1088(11) 0.4402(3)
O9C O 0.8912(11) 1.0164(9) 0.4402(3)
O9F O 1.0164(9) 1.1252(7) 0.5598(3)
O9G O 0.8748(7) 0.8912(11) 0.5598(3)
O9I O 1.1088(11) 0.9836(9) 0.5598(3)
O5G O 0.4572(5) 0.6180(10) 0.4727(3)
O3G O 0.4432(5) 0.6710(7) 0.6138(3)
O1A O 0.3140(5) 0.1949(7) 0.3831(3)
O2A O 0.4359(5) 0.1494(7) 0.4837(3)
O4A O 0.3083(5) 0.2473(7) 0.5293(3)
O6A O 0.4200(5) 0.4259(10) 0.4289(3)
O5C O 0.6180(10) 0.1608(9) 0.5273(3)
O1C O 0.8051(7) 0.1191(5) 0.3831(3)
O4C O 0.7527(7) 0.0610(5) 0.5293(3)
O6C O 0.5741(10) -0.0059(9) 0.4289(3)
P2F P 0.3679(2) 0.4949(2) 0.4561(1)
P3F P 0.3333 0.6667 0.6375(2)
P1A P 0.1879(2) 0.1514(3) 0.3712(1)
P2A P 0.4949(2) 0.1270(3) 0.5439(1)
P1C P 0.8486(3) 0.0365(2) 0.3712(1)
P2G P 0.5051(2) -0.1270(3) 0.4561(1)
O2F O 0.2865(5) 0.4359(5) 0.5163(3)
O10F O 0.2975(5) 0.5050(6) 0.3934(3)
O11F O 0.3333 0.6667 0.7182(5)
O3F O 0.2278(5) 0.5568(5) 0.6138(3)
O3I O 0.3290(7) 0.7722(5) 0.6138(3)
O5I O 0.3820(10) 0.8392(9) 0.4727(3)
O7A O 0.1751(6) 0.2563(8) 0.3475(4)
O8A_2 O 0.1403(5) 0.0637(8) 0.3128(3)
O9A_2 O 0.1252(7) 0.1088(11) 0.4402(3)
O10A O 0.5050(6) 0.2075(8) 0.6066(3)
O6I O 0.4259(10) 0.0059(9) 0.5711(3)
O7C O 0.7437(8) -0.0812(6) 0.3475(4)
O8C_2 O 0.9363(8) 0.0766(6) 0.3128(3)
O9C_2 O 0.8912(11) 0.0164(9) 0.4402(3)
O2G O 0.5641(5) -0.1494(7) 0.5163(3)
O10G O 0.4950(6) -0.2075(8) 0.3934(3)
O5I_2 O 0.3820(10) -0.1608(9) 0.4727(3)
Fe1F_2 Fe 0.1444(1) 0.4345(1) 0.54963(7)
Fe1I Fe 0.2901(1) 0.8556(1) 0.54963(7)
Fe2_2 Fe 0.0000 0.0000 0.25000
Fe3_2 Fe 0.0000 0.0000 0.50000
Fe1I_2 Fe 0.2901(1) -0.1444(1) 0.54963(7)
Fe2_3 Fe 1.0000 0.0000 0.25000
Fe3_3 Fe 1.0000 0.0000 0.50000
Fe1G_2 Fe 0.5655(1) -0.2901(1) 0.54963(7)
Fe2F Fe 1.0000 0.0000 0.75000
O1F O 0.1191(5) 0.3140(5) 0.6169(3)
O4F O 0.0610(5) 0.3083(5) 0.4707(3)
O5F O 0.1608(9) 0.5428(5) 0.4727(3)
O6F_2 O -0.0059(9) 0.4200(5) 0.5711(3)
O1I O 0.1949(7) 0.8809(5) 0.6169(3)
O2I O 0.1494(7) 0.7135(5) 0.5163(3)
O4I O 0.2473(7) 0.9390(5) 0.4707(3)
O6I_2 O 0.4259(10) 1.0059(9) 0.5711(3)
O9F_2 O 0.0164(9) 0.1252(7) 0.5598(3)
O9G_2 O 0.8748(7) -0.1088(11) 0.5598(3)
O1G O 0.6860(5) -0.1949(7) 0.6169(3)
O4G O 0.6917(5) -0.2473(7) 0.4707(3)
O6G_2 O 0.5800(5) -0.4259(10) 0.5711(3)
O5G_2 O 0.4572(5) -0.3820(10) 0.4727(3)
O3G_2 O 0.4432(5) -0.3290(7) 0.6138(3)
O8G O 0.8597(5) -0.0637(8) 0.6872(3)
P1F P 0.0365(2) 0.1879(2) 0.6288(1)
P2I P 0.1270(3) 0.6321(2) 0.4561(1)
P1I P 0.1514(3) 0.9635(2) 0.6288(1)
P1G P 0.8121(2) -0.1514(3) 0.6288(1)
O7F O -0.0812(6) 0.1751(6) 0.6525(4)
O8F O 0.0766(6) 0.1403(5) 0.6872(3)
O10I O 0.2075(8) 0.7025(5) 0.3934(3)
O6_2 O 0.0059(9) 0.5800(5) 0.4289(3)
O7I O 0.2563(8) 1.0812(6) 0.6525(4)
O8I O 0.0637(8) 0.9234(6) 0.6872(3)
O9I_2 O 0.1088(11) 0.9836(9) 0.5598(3)
O7G O 0.8249(6) -0.2563(8) 0.6525(4)
Fe2F_2 Fe 0.0000 0.0000 0.75000
Fe1_2 Fe -0.1444(1) 0.5655(1) 0.45037(7)
Fe2F_3 Fe 0.0000 1.0000 0.75000
Fe3_4 Fe 0.0000 1.0000 0.50000
N1 N 0.6029(8) 0.4962(8) 0.2577(4)
C1 C 0.6258(9) 0.5712(9) 0.3189(5)
C2 C 0.4764(9) 0.4117(9) 0.2528(6)
C3 C 0.645(1) 0.569(1) 0.1925(6)
N1B N 0.4962(8) 0.6029(8) 0.2423(4)
C1B C 0.5712(9) 0.6258(9) 0.1811(5)
C2B C 0.4117(9) 0.4764(9) 0.2472(6)
C3B C 0.569(1) 0.645(1) 0.3075(6)
loop_
_geom_bond_atom_site_label_1
_geom_bond_atom_site_label_2
_geom_bond_site_symmetry_1
_geom_bond_site_symmetry_2
Fe1 O1 1_555 1_555
O1 P1 1_555 1_555
O2 Fe1 1_555 1_555
O3 Fe1 1_555 1_555
O4 Fe1 1_555 1_555
O5 Fe1 1_555 1_555
O6 Fe1 1_555 1_555
P1 O7 1_555 1_555
P2 O2 1_555 1_555
P3 O3 1_555 1_555
O8 P1 1_555 1_555
O9 P1 1_555 1_555
O10 P2 1_555 1_555
O11 P3 1_555 1_555
Fe2 O8 1_555 1_555
Fe3 O9 1_555 1_555
N1 C1 1_555 1_555
C1 C3B 1_555 1_555
C2 N1 1_555 1_555
C3 N1 1_555 1_555
P2C O5 1_555 1_555
O6G P2 1_555 1_555
O5A P2 1_555 1_555
O3A P3 1_555 1_555
O3C P3 1_555 1_555
O2C P2C 1_555 1_555
O10C P2C 1_555 1_555
O6F P2C 1_555 1_555
Fe1G O6G 1_555 1_555
Fe1A O5A 1_555 1_555
Fe1C O3C 1_555 1_555
Fe1F O6F 1_555 1_555
O8A Fe2 1_555 1_555
O8B Fe2 1_555 1_555
O8C Fe2 1_555 1_555
O8D Fe2 1_555 1_555
O8E Fe2 1_555 1_555
O9A Fe3 1_555 1_555
O9C Fe3 1_555 1_555
O9F Fe3 1_555 1_555
O9G Fe3 1_555 1_555
O9I Fe3 1_555 1_555
O5G Fe1G 1_555 1_555
O3G Fe1G 1_555 1_555
O1A Fe1A 1_555 1_555
O2A Fe1A 1_555 1_555
O4A Fe1A 1_555 1_555
O6A Fe1A 1_555 1_555
O5C Fe1C 1_555 1_555
O1C Fe1C 1_555 1_555
O4C Fe1C 1_555 1_555
O6C Fe1C 1_555 1_555
P2F O5G 1_555 1_555
P3F O3G 1_555 1_555
P1A O1A 1_555 1_555
P2A O2A 1_555 1_555
P1C O1C 1_555 1_555
P2G O6C 1_555 1_555
O2F P2F 1_555 1_555
O10F P2F 1_555 1_555
O11F P3F 1_555 1_555
O3F P3F 1_555 1_555
O3I P3F 1_555 1_555
O5I Fe1I 1_555 1_555
O7A P1A 1_555 1_555
O8A_2 P1A 1_555 1_555
O9A_2 P1A 1_555 1_555
O10A P2A 1_555 1_555
O6I P2A 1_555 1_555
O7C P1C 1_555 1_555
O8C_2 P1C 1_555 1_555
O9C_2 P1C 1_555 1_555
O2G P2G 1_555 1_555
O10G P2G 1_555 1_555
O5I_2 P2G 1_555 1_555
Fe1F_2 O2F 1_555 1_555
Fe1I O3I 1_555 1_555
Fe2_2 O8A_2 1_555 1_555
Fe3_2 O9A_2 1_555 1_555
Fe1I_2 O6I 1_555 1_555
Fe2_3 O8C_2 1_555 1_555
Fe3_3 O9C_2 1_555 1_555
Fe1G_2 O2G 1_555 1_555
Fe2F O8G 1_555 1_555
O1F Fe1F_2 1_555 1_555
O4F Fe1F_2 1_555 1_555
O5F Fe1F_2 1_555 1_555
O6F_2 Fe1F_2 1_555 1_555
O1I Fe1I 1_555 1_555
O2I Fe1I 1_555 1_555
O4I Fe1I 1_555 1_555
O6I_2 Fe1I 1_555 1_555
O9F_2 Fe3_2 1_555 1_555
O9G_2 Fe3_3 1_555 1_555
O1G Fe1G_2 1_555 1_555
O4G Fe1G_2 1_555 1_555
O6G_2 Fe1G_2 1_555 1_555
O5G_2 Fe1G_2 1_555 1_555
O3G_2 Fe1G_2 1_555 1_555
O8G P1G 1_555 1_555
P1F O1F 1_555 1_555
P2I O5F 1_555 1_555
P1I O1I 1_555 1_555
P1G O9G_2 1_555 1_555
O7F P1F 1_555 1_555
O8F P1F 1_555 1_555
O10I P2I 1_555 1_555
O6_2 P2I 1_555 1_555
O7I P1I 1_555 1_555
O8I P1I 1_555 1_555
O9I_2 P1I 1_555 1_555
O7G P1G 1_555 1_555
Fe2F_2 O8F 1_555 1_555
Fe1_2 O6_2 1_555 1_555
Fe2F_3 O8I 1_555 1_555
Fe3_4 O9I_2 1_555 1_555
N1B C1B 1_555 1_555
C1B C3 1_555 1_555
C2B C2 1_555 1_555
C3B N1B 1_555 1_555
O3A Fe1A 1_555 1_555
O2C Fe1C 1_555 1_555
O6A P2F 1_555 1_555
O5C P2A 1_555 1_555
O3F Fe1F_2 1_555 1_555
O5I_2 Fe1I_2 1_555 1_555
O2I P2I 1_555 1_555
O9F_2 P1F 1_555 1_555
O1G P1G 1_555 1_555
N1B C2B 1_555 1_555

#END
