
#######################################################################
#
#                 Cambridge Crystallographic Data Centre
#                                CCDC 
#
#######################################################################
#
# If this CIF has been generated from an entry in the Cambridge 
# Structural Database, then it will include bibliographic, chemical, 
# crystal, experimental, refinement or atomic coordinate data resulting 
# from the CCDC's data processing and validation procedures.
#
#######################################################################

data_APAYOH
_chemical_formula_moiety         '(C21 H15 O8 Tb1)n'
_symmetry_cell_setting           monoclinic
_symmetry_space_group_name_H-M   'C 2/c'
_symmetry_Int_Tables_number      15
_space_group_name_Hall           '-C 2yc'
loop_
_symmetry_equiv_pos_site_id
_symmetry_equiv_pos_as_xyz
1 x,y,z
2 -x,y,1/2-z
3 1/2+x,1/2+y,z
4 1/2-x,1/2+y,1/2-z
5 -x,-y,-z
6 x,-y,1/2+z
7 1/2-x,1/2-y,-z
8 1/2+x,1/2-y,1/2+z
_cell_length_a                   33.13(2)
_cell_length_b                   13.572(8)
_cell_length_c                   14.049(9)
_cell_angle_alpha                90
_cell_angle_beta                 101.324(7)
_cell_angle_gamma                90
_cell_volume                     6194.02
loop_
_atom_site_label
_atom_site_type_symbol
_atom_site_fract_x
_atom_site_fract_y
_atom_site_fract_z
_atom_site_U_iso_or_equiv
_atom_site_thermal_displace_type
C1 C 0.24734(15) -0.0758(4) 0.9260(3) 0.0371 Uani
C2 C 0.22109(13) -0.0025(4) 0.8636(3) 0.0321 Uani
C3 C 0.23778(14) 0.0538(4) 0.7989(4) 0.0379 Uani
H1 H 0.2652 0.0462 0.7944 0.0460 Uiso
C4 C 0.21328(13) 0.1216(4) 0.7409(3) 0.0306 Uani
C5 C 0.17282(13) 0.1362(4) 0.7518(3) 0.0359 Uani
H2 H 0.1567 0.1830 0.7134 0.0430 Uiso
C6 C 0.15605(14) 0.0831(4) 0.8180(4) 0.0362 Uani
C7 C 0.18012(14) 0.0116(4) 0.8722(4) 0.0389 Uani
H3 H 0.1689 -0.0275 0.9148 0.0460 Uiso
C8 C 0.22974(14) 0.1781(4) 0.6643(4) 0.0333 Uani
C9 C 0.11361(13) 0.1029(5) 0.8332(3) 0.0390 Uani
C10 C 0.09764(16) 0.1987(5) 0.8216(5) 0.0519 Uani
H4 H 0.1131 0.2486 0.8009 0.0630 Uiso
C11 C 0.05892(16) 0.2199(5) 0.8407(5) 0.0547 Uani
H5 H 0.0489 0.2839 0.8321 0.0660 Uiso
C12 C 0.03549(14) 0.1499(5) 0.8714(4) 0.0427 Uani
C13 C 0.05062(15) 0.0527(5) 0.8817(4) 0.0533 Uani
H6 H 0.0349 0.0030 0.9020 0.0640 Uiso
C14 C 0.08964(14) 0.0309(5) 0.8613(4) 0.0496 Uani
H7 H 0.0992 -0.0336 0.8671 0.0600 Uiso
C15 C -0.00460(15) 0.1735(5) 0.9004(4) 0.0478 Uani
C16 C -0.0132(2) 0.2667(6) 0.9238(7) 0.0897 Uani
H8 H 0.0062 0.3160 0.9224 0.1080 Uiso
C17 C -0.0503(2) 0.2907(6) 0.9499(7) 0.0941 Uani
H9 H -0.0560 0.3561 0.9622 0.1130 Uiso
C18 C -0.07872(15) 0.2190(5) 0.9576(4) 0.0476 Uani
C19 C -0.07085(16) 0.1261(5) 0.9315(5) 0.0570 Uani
H10 H -0.0904 0.0773 0.9330 0.0680 Uiso
C20 C -0.03417(16) 0.1011(5) 0.9024(4) 0.0562 Uani
H11 H -0.0296 0.0367 0.8845 0.0680 Uiso
C21 C -0.11746(15) 0.2445(6) 0.9919(4) 0.0441 Uani
O1 O 0.34007(13) -0.0651(4) 1.1356(3) 0.0765 Uani
H12 H 0.3647 -0.0849 1.1482 0.1150 Uiso
H13 H 0.3243 -0.0144 1.1302 0.1150 Uiso
O2 O 0.34208(14) -0.2706(4) 1.2006(3) 0.0822 Uani
H14 H 0.3593 -0.3143 1.1913 0.1230 Uiso
H15 H 0.3361 -0.2359 1.2460 0.1230 Uiso
O3 O 0.28530(9) -0.0615(3) 0.9487(3) 0.0443 Uani
O4 O 0.23082(10) -0.1519(3) 0.9556(2) 0.0371 Uani
O5 O -0.13791(11) 0.1753(3) 1.0183(3) 0.0542 Uani
O6 O -0.12862(11) 0.3313(3) 0.9934(3) 0.0565 Uani
O7 O 0.20697(10) 0.2419(3) 0.6177(2) 0.0394 Uani
O8 O 0.26590(9) 0.1581(3) 0.6553(2) 0.0435 Uani
Tb1 Tb 0.30779(2) -0.20609(2) 1.04524(2) 0.0293 Uani
O4F O 0.26918(10) -0.3481(3) 1.0444(2) 0.0371 Uani
O5B O 0.36209(11) -0.3247(3) 1.0183(3) 0.0542 Uani
O6B O 0.37138(11) -0.1687(3) 0.9934(3) 0.0565 Uani
O7C O 0.29303(10) -0.2581(3) 0.8823(2) 0.0394 Uani
O8E O 0.26590(9) -0.1581(3) 1.1553(2) 0.0435 Uani
Tb1B Tb -0.19221(2) 0.29391(2) 1.04524(2) 0.0293 Uani
Tb1C Tb 0.19221(2) 0.29391(2) 0.45476(2) 0.0293 Uani
Tb1E Tb 0.30779(2) 0.20609(2) 0.54524(2) 0.0293 Uani
Tb1F Tb 0.19221(2) -0.29391(2) 0.95476(2) 0.0293 Uani
loop_
_atom_site_aniso_label
_atom_site_aniso_U_11
_atom_site_aniso_U_22
_atom_site_aniso_U_33
_atom_site_aniso_U_23
_atom_site_aniso_U_13
_atom_site_aniso_U_12
C1 0.036(3) 0.042(4) 0.035(3) 0.007(3) 0.011(2) 0.005(3)
C2 0.027(2) 0.040(3) 0.031(3) 0.006(2) 0.010(2) 0.004(2)
C3 0.026(2) 0.049(4) 0.042(3) 0.000(3) 0.015(2) 0.003(2)
C4 0.027(2) 0.035(3) 0.032(2) 0.004(2) 0.011(2) 0.002(2)
C5 0.027(2) 0.046(4) 0.039(3) 0.005(3) 0.017(2) 0.004(2)
C6 0.029(2) 0.042(3) 0.043(3) 0.009(3) 0.020(2) 0.009(2)
C7 0.030(3) 0.053(4) 0.038(3) 0.007(3) 0.017(2) 0.002(3)
C8 0.031(3) 0.040(4) 0.032(3) -0.005(2) 0.014(2) -0.008(2)
C9 0.028(3) 0.058(4) 0.035(3) 0.008(3) 0.016(2) 0.003(3)
C10 0.036(3) 0.056(4) 0.072(4) 0.018(4) 0.031(3) 0.010(3)
C11 0.043(3) 0.048(4) 0.082(4) 0.011(3) 0.034(3) 0.010(3)
C12 0.029(3) 0.063(4) 0.039(3) 0.003(3) 0.014(2) 0.002(3)
C13 0.031(3) 0.066(5) 0.068(4) 0.005(3) 0.022(3) 0.007(3)
C14 0.030(3) 0.060(4) 0.064(4) 0.013(3) 0.022(3) 0.010(3)
C15 0.031(3) 0.066(5) 0.051(3) 0.006(3) 0.019(2) 0.009(3)
C16 0.058(4) 0.065(6) 0.163(8) -0.031(5) 0.063(5) -0.016(4)
C17 0.063(4) 0.065(5) 0.170(9) -0.038(5) 0.061(5) -0.011(4)
C18 0.029(3) 0.067(5) 0.052(3) -0.005(3) 0.021(2) 0.005(3)
C19 0.037(3) 0.063(5) 0.077(4) 0.004(4) 0.026(3) 0.003(3)
C20 0.039(3) 0.058(4) 0.079(4) -0.001(4) 0.030(3) 0.008(3)
C21 0.025(3) 0.062(4) 0.048(3) -0.006(3) 0.014(2) 0.006(3)
O1 0.060(3) 0.087(4) 0.082(3) -0.026(3) 0.013(2) -0.014(3)
O2 0.086(3) 0.100(5) 0.055(3) -0.002(3) 0.000(3) 0.048(3)
O3 0.0238(17) 0.050(3) 0.058(2) 0.013(2) 0.0051(16) 0.0002(17)
O4 0.0373(19) 0.035(2) 0.043(2) 0.0083(17) 0.0174(16) 0.0070(17)
O5 0.038(2) 0.062(3) 0.070(3) 0.019(2) 0.029(2) 0.017(2)
O6 0.031(2) 0.056(3) 0.090(3) -0.014(2) 0.030(2) -0.004(2)
O7 0.0328(18) 0.053(2) 0.0356(19) 0.0166(19) 0.0143(16) 0.0049(18)
O8 0.0266(17) 0.065(3) 0.043(2) 0.014(2) 0.0172(15) 0.0053(18)
Tb1 0.01924(12) 0.04189(16) 0.02856(12) 0.00106(12) 0.00942(8) 0.00223(12)
O4F 0.0373 0.035 0.043 0.0083 0.0174 0.007
O5B 0.038 0.062 0.07 0.019 0.029 0.017
O6B 0.031 0.056 0.09 -0.014 0.03 -0.004
O7C 0.0328 0.053 0.0356 -0.0166 0.0143 -0.0049
O8E 0.0266 0.065 0.043 -0.014 0.0172 -0.0053
Tb1B 0.01924 0.04189 0.02856 0.00106 0.00942 0.00223
Tb1C 0.01924 0.04189 0.02856 -0.00106 0.00942 -0.00223
Tb1E 0.01924 0.04189 0.02856 -0.00106 0.00942 -0.00223
Tb1F 0.01924 0.04189 0.02856 0.00106 0.00942 0.00223
loop_
_geom_bond_atom_site_label_1
_geom_bond_atom_site_label_2
_geom_bond_site_symmetry_1
_geom_bond_site_symmetry_2
C1 C2 1_555 1_555
C2 C3 1_555 1_555
C3 H1 1_555 1_555
C4 C3 1_555 1_555
C5 C4 1_555 1_555
H2 C5 1_555 1_555
C6 C5 1_555 1_555
C7 C2 1_555 1_555
H3 C7 1_555 1_555
C8 C4 1_555 1_555
C9 C6 1_555 1_555
C10 C9 1_555 1_555
H4 C10 1_555 1_555
C11 C10 1_555 1_555
H5 C11 1_555 1_555
C12 C11 1_555 1_555
C13 C12 1_555 1_555
H6 C13 1_555 1_555
C14 C9 1_555 1_555
H7 C14 1_555 1_555
C15 C12 1_555 1_555
C16 C15 1_555 1_555
H8 C16 1_555 1_555
C17 C16 1_555 1_555
H9 C17 1_555 1_555
C18 C17 1_555 1_555
C19 C18 1_555 1_555
H10 C19 1_555 1_555
C20 C15 1_555 1_555
H11 C20 1_555 1_555
C21 C18 1_555 1_555
O1 H12 1_555 1_555
H13 O1 1_555 1_555
O2 H14 1_555 1_555
H15 O2 1_555 1_555
O3 C1 1_555 1_555
O4 C1 1_555 1_555
O5 C21 1_555 1_555
O6 C21 1_555 1_555
O7 C8 1_555 1_555
O8 C8 1_555 1_555
Tb1 O1 1_555 1_555
O4F Tb1 1_555 1_555
O5B Tb1 1_555 1_555
O6B Tb1 1_555 1_555
O7C Tb1 1_555 1_555
O8E Tb1 1_555 1_555
Tb1B O5 1_555 1_555
Tb1C O7 1_555 1_555
Tb1E O8 1_555 1_555
Tb1F O4 1_555 1_555
C6 C7 1_555 1_555
C13 C14 1_555 1_555
C19 C20 1_555 1_555
O2 Tb1 1_555 1_555
O3 Tb1 1_555 1_555
O4 Tb1 1_555 1_555
O6 Tb1B 1_555 1_555
O4F Tb1F 1_555 1_555

#END
