
#######################################################################
#
#                 Cambridge Crystallographic Data Centre
#                                CCDC 
#
#######################################################################
#
# If this CIF has been generated from an entry in the Cambridge 
# Structural Database, then it will include bibliographic, chemical, 
# crystal, experimental, refinement or atomic coordinate data resulting 
# from the CCDC's data processing and validation procedures.
#
#######################################################################

data_APAYIB
_chemical_formula_moiety         '(C21 H15 Eu1 O8)n'
_symmetry_cell_setting           monoclinic
_symmetry_space_group_name_H-M   'C 2/c'
_symmetry_Int_Tables_number      15
_space_group_name_Hall           '-C 2yc'
loop_
_symmetry_equiv_pos_site_id
_symmetry_equiv_pos_as_xyz
1 x,y,z
2 -x,y,1/2-z
3 1/2+x,1/2+y,z
4 1/2-x,1/2+y,1/2-z
5 -x,-y,-z
6 x,-y,1/2+z
7 1/2-x,1/2-y,-z
8 1/2+x,1/2-y,1/2+z
_cell_length_a                   33.02(5)
_cell_length_b                   13.317(19)
_cell_length_c                   14.22(2)
_cell_angle_alpha                90
_cell_angle_beta                 101.739(15)
_cell_angle_gamma                90
_cell_volume                     6122.14
loop_
_atom_site_label
_atom_site_type_symbol
_atom_site_fract_x
_atom_site_fract_y
_atom_site_fract_z
_atom_site_U_iso_or_equiv
_atom_site_thermal_displace_type
C1 C 1.1168(3) 0.7505(10) 0.5039(7) 0.0586 Uani
C2 C 1.0781(3) 0.7739(8) 0.5405(8) 0.0625 Uani
C3 C 1.0697(3) 0.8712(9) 0.5654(7) 0.0653 Uani
H1 H 1.0882 0.9228 0.5608 0.0790 Uiso
C4 C 1.0336(3) 0.8910(9) 0.5974(7) 0.0668 Uani
H2 H 1.0293 0.9559 0.6175 0.0800 Uiso
C5 C 1.0043(3) 0.8219(8) 0.6010(7) 0.0616 Uani
C6 C 1.0128(4) 0.7297(10) 0.5786(10) 0.0855 Uani
H3 H 0.9932 0.6805 0.5826 0.1030 Uiso
C7 C 1.0495(4) 0.6988(10) 0.5488(10) 0.0851 Uani
H4 H 1.0542 0.6319 0.5355 0.1020 Uiso
C8 C 0.9649(3) 0.8490(9) 0.6291(7) 0.0591 Uani
C9 C 0.9492(3) 0.9440(9) 0.6202(7) 0.0628 Uani
H5 H 0.9649 0.9955 0.6016 0.0760 Uiso
C10 C 0.9106(3) 0.9655(8) 0.6382(6) 0.0563 Uani
H6 H 0.9004 1.0307 0.6291 0.0670 Uiso
C11 C 0.8869(3) 0.8932(8) 0.6693(6) 0.0497 Uani
C12 C 0.9033(3) 0.7976(8) 0.6814(7) 0.0593 Uani
H7 H 0.8882 0.7477 0.7046 0.0710 Uiso
C13 C 0.9408(3) 0.7734(9) 0.6606(8) 0.0661 Uani
H8 H 0.9504 0.7076 0.6672 0.0790 Uiso
C14 C 0.8444(3) 0.9136(7) 0.6827(6) 0.0458 Uani
C15 C 0.8200(2) 0.9853(7) 0.6277(6) 0.0450 Uani
H9 H 0.8311 1.0253 0.5857 0.0540 Uiso
C16 C 0.7791(2) 0.9980(7) 0.6346(6) 0.0454 Uani
C17 C 0.7633(3) 0.9420(7) 0.7014(6) 0.0477 Uani
H10 H 0.7357 0.9491 0.7055 0.0570 Uiso
C18 C 0.7879(3) 0.8775(7) 0.7604(5) 0.0477 Uani
C19 C 0.8278(3) 0.8593(7) 0.7500(6) 0.0482 Uani
H11 H 0.8437 0.8109 0.7878 0.0580 Uiso
C20 C 0.7530(2) 1.0709(7) 0.5715(6) 0.0436 Uani
C21 C 0.7706(3) 0.8157(7) 0.8356(6) 0.0489 Uani
Eu1 Eu 1.19208(2) 0.70332(4) 0.45242(3) 0.0410 Uani
O1 O 1.1605(2) 0.5566(7) 0.3620(6) 0.0916 Uani
H12 H 1.1785 0.5265 0.3371 0.1370 Uiso
H13 H 1.1359 0.5368 0.3595 0.1370 Uiso
O2 O 1.1572(3) 0.7725(7) 0.3004(5) 0.0884 Uani
H14 H 1.1732 0.7702 0.2607 0.1330 Uiso
H15 H 1.1319 0.7891 0.2926 0.1330 Uiso
O3 O 1.1376(2) 0.8211(6) 0.4812(5) 0.0650 Uani
O4 O 1.1274(2) 0.6595(6) 0.5036(5) 0.0720 Uani
O5 O 0.7944(2) 0.7544(6) 0.8844(4) 0.0532 Uani
O6 O 0.73498(18) 0.8390(5) 0.8436(4) 0.0585 Uani
O7 O 0.71548(18) 1.0538(5) 0.5496(4) 0.0536 Uani
O8 O 0.76868(17) 1.1495(5) 0.5422(4) 0.0472 Uani
Eu1A Eu 0.80792(2) 0.70332(4) 1.04758(3) 0.0410 Uani
Eu1B Eu 0.69208(2) 1.20332(4) 0.45242(3) 0.0410 Uani
Eu1D Eu 0.80792(2) 1.29668(4) 0.54758(3) 0.0410 Uani
Eu1G Eu 0.69208(2) 0.79668(4) 0.95242(3) 0.0410 Uani
O5A O 1.2056(2) 0.7544(6) 0.6156(4) 0.0532 Uani
O6G O 1.23498(18) 0.6610(5) 0.3436(4) 0.0585 Uani
O7B O 1.21548(18) 0.5538(5) 0.5496(4) 0.0536 Uani
O8B O 1.26868(17) 0.6495(5) 0.5422(4) 0.0472 Uani
O8D O 1.23132(17) 0.8505(5) 0.4578(4) 0.0472 Uani
loop_
_atom_site_aniso_label
_atom_site_aniso_U_11
_atom_site_aniso_U_22
_atom_site_aniso_U_33
_atom_site_aniso_U_23
_atom_site_aniso_U_13
_atom_site_aniso_U_12
C1 0.034(4) 0.079(4) 0.065(4) 0.000(4) 0.015(3) -0.001(4)
C2 0.043(4) 0.078(5) 0.071(4) -0.002(4) 0.022(3) 0.003(3)
C3 0.046(4) 0.081(5) 0.074(4) 0.003(4) 0.024(4) 0.007(4)
C4 0.049(4) 0.081(5) 0.076(4) -0.001(4) 0.026(4) 0.007(4)
C5 0.043(4) 0.080(5) 0.068(4) 0.001(4) 0.026(3) 0.007(3)
C6 0.065(5) 0.091(5) 0.108(5) -0.014(5) 0.035(4) 0.001(4)
C7 0.061(5) 0.093(5) 0.108(5) -0.018(5) 0.033(4) 0.003(4)
C8 0.045(4) 0.081(4) 0.058(4) 0.003(4) 0.026(3) 0.003(3)
C9 0.045(4) 0.084(5) 0.066(4) 0.006(4) 0.027(4) 0.001(4)
C10 0.044(4) 0.071(5) 0.060(4) 0.005(4) 0.025(3) 0.006(4)
C11 0.038(3) 0.074(4) 0.043(3) 0.006(3) 0.022(3) 0.008(3)
C12 0.046(4) 0.073(5) 0.064(4) 0.006(4) 0.023(4) 0.000(4)
C13 0.053(4) 0.080(5) 0.071(5) 0.007(4) 0.026(4) 0.010(4)
C14 0.035(3) 0.065(4) 0.042(3) 0.005(3) 0.019(3) 0.006(3)
C15 0.036(3) 0.058(4) 0.046(3) 0.004(3) 0.020(3) -0.004(3)
C16 0.039(3) 0.057(4) 0.043(3) 0.008(3) 0.015(3) 0.004(3)
C17 0.037(4) 0.065(4) 0.044(3) 0.005(3) 0.015(3) 0.001(3)
C18 0.041(3) 0.067(4) 0.040(3) 0.006(3) 0.020(3) 0.005(3)
C19 0.036(3) 0.070(5) 0.042(3) 0.007(3) 0.016(3) 0.004(3)
C20 0.032(3) 0.056(4) 0.045(3) 0.006(3) 0.013(3) 0.004(3)
C21 0.037(3) 0.073(4) 0.041(3) 0.008(3) 0.018(3) 0.005(3)
Eu1 0.0254(3) 0.0651(4) 0.0346(3) 0.00124(19) 0.01088(17) 0.0023(2)
O1 0.076(5) 0.111(6) 0.096(5) -0.035(5) 0.037(4) -0.025(5)
O2 0.077(6) 0.127(7) 0.058(4) 0.020(4) 0.006(4) 0.031(5)
O3 0.041(3) 0.083(4) 0.079(4) 0.014(3) 0.031(3) 0.015(3)
O4 0.044(3) 0.087(4) 0.093(4) -0.015(4) 0.033(3) 0.000(3)
O5 0.048(3) 0.073(4) 0.042(3) 0.015(3) 0.017(3) -0.002(3)
O6 0.040(3) 0.092(4) 0.049(3) 0.015(3) 0.022(3) -0.002(3)
O7 0.037(3) 0.060(4) 0.062(3) 0.012(3) 0.006(3) -0.002(3)
O8 0.037(3) 0.054(3) 0.053(3) 0.005(3) 0.015(2) 0.001(3)
Eu1A 0.0254 0.0651 0.0346 -0.00124 0.01088 -0.0023
Eu1B 0.0254 0.0651 0.0346 0.00124 0.01088 0.0023
Eu1D 0.0254 0.0651 0.0346 0.00124 0.01088 0.0023
Eu1G 0.0254 0.0651 0.0346 -0.00124 0.01088 -0.0023
O5A 0.048 0.073 0.042 -0.015 0.017 0.002
O6G 0.04 0.092 0.049 -0.015 0.022 0.002
O7B 0.037 0.06 0.062 0.012 0.006 -0.002
O8B 0.037 0.054 0.053 0.005 0.015 0.001
O8D 0.037 0.054 0.053 0.005 0.015 0.001
loop_
_geom_bond_atom_site_label_1
_geom_bond_atom_site_label_2
_geom_bond_site_symmetry_1
_geom_bond_site_symmetry_2
C1 C2 1_555 1_555
C2 C3 1_555 1_555
C3 H1 1_555 1_555
C4 C3 1_555 1_555
H2 C4 1_555 1_555
C5 C4 1_555 1_555
C6 C5 1_555 1_555
H3 C6 1_555 1_555
C7 C2 1_555 1_555
H4 C7 1_555 1_555
C8 C5 1_555 1_555
C9 C8 1_555 1_555
H5 C9 1_555 1_555
C10 C9 1_555 1_555
H6 C10 1_555 1_555
C11 C10 1_555 1_555
C12 C11 1_555 1_555
H7 C12 1_555 1_555
C13 C8 1_555 1_555
H8 C13 1_555 1_555
C14 C11 1_555 1_555
C15 C14 1_555 1_555
H9 C15 1_555 1_555
C16 C15 1_555 1_555
C17 C16 1_555 1_555
H10 C17 1_555 1_555
C18 C17 1_555 1_555
C19 C14 1_555 1_555
H11 C19 1_555 1_555
C20 C16 1_555 1_555
C21 C18 1_555 1_555
Eu1 O1 1_555 1_555
O1 H12 1_555 1_555
H13 O1 1_555 1_555
O2 Eu1 1_555 1_555
H14 O2 1_555 1_555
H15 O2 1_555 1_555
O3 C1 1_555 1_555
O4 C1 1_555 1_555
O5 C21 1_555 1_555
O6 C21 1_555 1_555
O7 C20 1_555 1_555
O8 C20 1_555 1_555
Eu1A O5 1_555 1_555
Eu1B O7 1_555 1_555
Eu1D O8 1_555 1_555
Eu1G O6 1_555 1_555
O5A Eu1 1_555 1_555
O6G Eu1 1_555 1_555
O7B Eu1 1_555 1_555
O8B Eu1 1_555 1_555
O8D Eu1 1_555 1_555
C6 C7 1_555 1_555
C12 C13 1_555 1_555
C18 C19 1_555 1_555
Eu1 O3 1_555 1_555
Eu1 O4 1_555 1_555
O8 Eu1B 1_555 1_555

#END
