
#######################################################################
#
#                 Cambridge Crystallographic Data Centre
#                                CCDC 
#
#######################################################################
#
# If this CIF has been generated from an entry in the Cambridge 
# Structural Database, then it will include bibliographic, chemical, 
# crystal, experimental, refinement or atomic coordinate data resulting 
# from the CCDC's data processing and validation procedures.
#
#######################################################################

data_APAZEY
_chemical_formula_moiety         '(C27 H19 O8 Tb1)n'
_symmetry_cell_setting           monoclinic
_symmetry_space_group_name_H-M   'C 2/c'
_symmetry_Int_Tables_number      15
_space_group_name_Hall           '-C 2yc'
loop_
_symmetry_equiv_pos_site_id
_symmetry_equiv_pos_as_xyz
1 x,y,z
2 -x,y,1/2-z
3 1/2+x,1/2+y,z
4 1/2-x,1/2+y,1/2-z
5 -x,-y,-z
6 x,-y,1/2+z
7 1/2-x,1/2-y,-z
8 1/2+x,1/2-y,1/2+z
_cell_length_a                   42.145(7)
_cell_length_b                   14.296(3)
_cell_length_c                   13.771(2)
_cell_angle_alpha                90
_cell_angle_beta                 101.683(2)
_cell_angle_gamma                90
_cell_volume                     8125.2
loop_
_atom_site_label
_atom_site_type_symbol
_atom_site_fract_x
_atom_site_fract_y
_atom_site_fract_z
_atom_site_U_iso_or_equiv
_atom_site_thermal_displace_type
C1 C 0.25235(15) 1.0857(4) 0.0799(5) 0.0284 Uani
C2 C 0.27319(14) 1.0122(4) 0.1414(5) 0.0288 Uani
C3 C 0.30510(14) 1.0010(4) 0.1326(5) 0.0328 Uani
H1 H 0.3136 1.0393 0.0896 0.0390 Uiso
C4 C 0.32470(15) 0.9330(5) 0.1876(5) 0.0340 Uani
C5 C 0.31082(15) 0.8788(5) 0.2525(5) 0.0344 Uani
H2 H 0.3234 0.8334 0.2905 0.0410 Uiso
C6 C 0.27907(14) 0.8900(4) 0.2624(5) 0.0292 Uani
C7 C 0.25996(14) 0.9551(4) 0.2040(5) 0.0294 Uani
H3 H 0.2382 0.9606 0.2067 0.0350 Uiso
C8 C 0.26584(15) 0.8299(5) 0.3366(5) 0.0316 Uani
C9 C 0.35836(15) 0.9171(5) 0.1760(5) 0.0370 Uani
C10 C 0.37833(15) 0.9875(5) 0.1537(5) 0.0448 Uani
H4 H 0.3703 1.0483 0.1469 0.0540 Uiso
C11 C 0.40938(16) 0.9715(6) 0.1413(6) 0.0471 Uani
H5 H 0.4220 1.0216 0.1288 0.0570 Uiso
C12 C 0.42207(16) 0.8824(5) 0.1469(5) 0.0438 Uani
C13 C 0.40292(18) 0.8098(6) 0.1696(6) 0.0531 Uani
H6 H 0.4109 0.7490 0.1744 0.0640 Uiso
C14 C 0.37195(18) 0.8272(6) 0.1850(6) 0.0523 Uani
H7 H 0.3598 0.7777 0.2018 0.0630 Uiso
C15 C 0.45611(10) 0.8616(4) 0.1326(5) 0.0586 Uani
C16 C 0.47662(14) 0.9356(3) 0.1227(5) 0.0963 Uani
H8 H 0.4697 0.9969 0.1274 0.1160 Uiso
C17 C 0.50747(13) 0.9180(4) 0.1056(5) 0.0949 Uani
H9 H 0.5212 0.9675 0.0990 0.1140 Uiso
C18 C 0.51781(10) 0.8264(5) 0.0986(5) 0.0649 Uani
C19 C 0.49730(15) 0.7524(3) 0.1085(6) 0.1055 Uani
H10 H 0.5042 0.6911 0.1038 0.1260 Uiso
C20 C 0.46645(13) 0.7700(4) 0.1255(6) 0.1032 Uani
H11 H 0.4527 0.7205 0.1322 0.1240 Uiso
C21 C 0.55155(17) 0.8093(6) 0.0778(6) 0.0536 Uani
C22 C 0.57349(17) 0.8805(6) 0.0732(6) 0.0532 Uani
H12 H 0.5682 0.9416 0.0867 0.0640 Uiso
C23 C 0.60308(17) 0.8622(6) 0.0489(6) 0.0503 Uani
H13 H 0.6170 0.9116 0.0436 0.0610 Uiso
C24 C 0.61225(17) 0.7726(5) 0.0324(6) 0.0454 Uani
C25 C 0.59122(18) 0.7003(6) 0.0439(7) 0.0611 Uani
H14 H 0.5977 0.6387 0.0383 0.0730 Uiso
C26 C 0.56088(19) 0.7179(6) 0.0635(7) 0.0664 Uani
H15 H 0.5467 0.6687 0.0672 0.0800 Uiso
C27 C 0.64392(17) 0.7536(6) 0.0032(6) 0.0431 Uani
O1 O 0.17801(14) 1.0743(5) -0.1377(4) 0.0829 Uani
H16 H 0.1621 1.0934 -0.1815 0.1240 Uiso
H17 H 0.1815 1.0161 -0.1257 0.1240 Uiso
O2 O 0.17875(16) 1.2693(5) -0.2102(5) 0.0874 Uani
H18 H 0.1641 1.3084 -0.2044 0.1310 Uiso
H19 H 0.1905 1.2601 -0.2524 0.1310 Uiso
O3 O 0.22238(10) 1.0737(3) 0.0563(4) 0.0388 Uani
O4 O 0.26545(10) 1.1567(3) 0.0517(3) 0.0328 Uani
O5 O 0.23724(10) 0.8451(3) 0.3457(3) 0.0395 Uani
O6 O 0.28434(10) 0.7694(3) 0.3832(3) 0.0323 Uani
O7 O 0.65464(11) 0.6712(4) 0.0102(4) 0.0509 Uani
O8 O 0.65931(11) 0.8174(3) -0.0269(4) 0.0490 Uani
Tb1 Tb 0.20398(2) 1.20869(2) -0.04544(2) 0.0250 Uani
O4F O 0.23455(10) 1.3433(3) -0.0517(3) 0.0328 Uani
O5E O 0.23724(10) 1.1549(3) -0.1543(3) 0.0395 Uani
O6C O 0.21566(10) 1.2694(3) 0.1168(3) 0.0323 Uani
O7B O 0.15464(11) 1.1712(4) 0.0102(4) 0.0509 Uani
O8B O 0.15931(11) 1.3174(3) -0.0269(4) 0.0490 Uani
Tb1B Tb 0.70398(2) 0.70869(2) -0.04544(2) 0.0250 Uani
Tb1C Tb 0.29602(2) 0.70869(2) 0.54544(2) 0.0250 Uani
Tb1E Tb 0.20398(2) 0.79131(2) 0.45456(2) 0.0250 Uani
Tb1F Tb 0.29602(2) 1.29131(2) 0.04544(2) 0.0250 Uani
loop_
_atom_site_aniso_label
_atom_site_aniso_U_11
_atom_site_aniso_U_22
_atom_site_aniso_U_33
_atom_site_aniso_U_23
_atom_site_aniso_U_13
_atom_site_aniso_U_12
C1 0.026(3) 0.027(3) 0.037(3) 0.000(2) 0.018(2) 0.002(2)
C2 0.025(3) 0.029(3) 0.035(3) 0.005(2) 0.012(2) 0.003(2)
C3 0.028(3) 0.032(3) 0.043(3) 0.010(3) 0.018(3) 0.000(3)
C4 0.025(3) 0.039(3) 0.042(3) 0.013(3) 0.016(3) 0.005(2)
C5 0.029(3) 0.042(3) 0.035(3) 0.012(3) 0.013(3) 0.006(3)
C6 0.029(3) 0.034(3) 0.029(3) 0.007(2) 0.016(2) 0.003(2)
C7 0.022(3) 0.036(3) 0.034(3) 0.002(3) 0.015(2) 0.003(2)
C8 0.027(3) 0.036(3) 0.035(3) 0.004(3) 0.014(3) -0.002(2)
C9 0.028(3) 0.044(3) 0.044(3) 0.013(3) 0.019(3) 0.009(3)
C10 0.028(3) 0.052(4) 0.060(4) 0.013(3) 0.022(3) 0.006(3)
C11 0.034(3) 0.053(4) 0.060(4) 0.013(3) 0.023(3) 0.005(3)
C12 0.032(3) 0.058(4) 0.047(3) 0.012(3) 0.021(3) 0.008(3)
C13 0.034(3) 0.061(4) 0.070(4) 0.014(3) 0.024(3) 0.013(3)
C14 0.037(3) 0.056(4) 0.068(4) 0.018(3) 0.020(3) 0.007(3)
C15 0.037(3) 0.072(4) 0.077(4) 0.008(4) 0.036(3) 0.010(3)
C16 0.063(4) 0.091(5) 0.147(6) 0.010(5) 0.050(4) 0.010(4)
C17 0.059(4) 0.088(5) 0.150(6) 0.008(5) 0.050(4) 0.005(4)
C18 0.041(3) 0.074(4) 0.091(4) 0.001(4) 0.040(3) 0.011(3)
C19 0.063(4) 0.101(5) 0.166(6) -0.004(5) 0.055(4) 0.009(4)
C20 0.063(4) 0.099(5) 0.160(6) -0.005(5) 0.052(4) 0.010(4)
C21 0.031(3) 0.064(4) 0.072(4) 0.004(3) 0.025(3) 0.007(3)
C22 0.040(3) 0.056(4) 0.070(4) 0.005(4) 0.026(3) 0.010(3)
C23 0.037(3) 0.053(4) 0.067(4) 0.007(3) 0.025(3) 0.007(3)
C24 0.031(3) 0.055(4) 0.055(4) 0.000(3) 0.020(3) 0.007(3)
C25 0.038(3) 0.062(4) 0.091(5) -0.010(4) 0.031(3) 0.005(3)
C26 0.039(3) 0.070(4) 0.097(5) -0.012(4) 0.030(4) -0.001(3)
C27 0.029(3) 0.052(3) 0.052(4) 0.003(3) 0.017(3) 0.009(3)
O1 0.065(4) 0.109(5) 0.076(4) -0.019(4) 0.017(3) -0.047(4)
O2 0.094(5) 0.103(5) 0.060(4) -0.013(4) 0.003(4) 0.043(4)
O3 0.028(2) 0.034(2) 0.055(3) 0.010(2) 0.010(2) 0.006(2)
O4 0.033(2) 0.026(2) 0.043(3) 0.009(2) 0.016(2) 0.0046(19)
O5 0.026(2) 0.053(3) 0.046(3) 0.012(2) 0.023(2) 0.005(2)
O6 0.031(2) 0.036(3) 0.033(3) 0.013(2) 0.014(2) 0.0056(19)
O7 0.033(3) 0.047(3) 0.080(4) -0.002(3) 0.029(3) 0.000(2)
O8 0.035(3) 0.054(3) 0.065(3) 0.023(3) 0.027(2) 0.015(2)
Tb1 0.01749(16) 0.03057(19) 0.02928(19) -0.00049(16) 0.01044(12) 0.00107(15)
O4F 0.033 0.026 0.043 0.009 0.016 0.0046
O5E 0.026 0.053 0.046 -0.012 0.023 -0.005
O6C 0.031 0.036 0.033 -0.013 0.014 -0.0056
O7B 0.033 0.047 0.08 -0.002 0.029 0
O8B 0.035 0.054 0.065 0.023 0.027 0.015
Tb1B 0.01749 0.03057 0.02928 -0.00049 0.01044 0.00107
Tb1C 0.01749 0.03057 0.02928 0.00049 0.01044 -0.00107
Tb1E 0.01749 0.03057 0.02928 0.00049 0.01044 -0.00107
Tb1F 0.01749 0.03057 0.02928 -0.00049 0.01044 0.00107
loop_
_geom_bond_atom_site_label_1
_geom_bond_atom_site_label_2
_geom_bond_site_symmetry_1
_geom_bond_site_symmetry_2
C1 C2 1_555 1_555
C2 C3 1_555 1_555
C3 H1 1_555 1_555
C4 C3 1_555 1_555
C5 C4 1_555 1_555
H2 C5 1_555 1_555
C6 C5 1_555 1_555
C7 C2 1_555 1_555
H3 C7 1_555 1_555
C8 C6 1_555 1_555
C9 C4 1_555 1_555
C10 C9 1_555 1_555
H4 C10 1_555 1_555
C11 C10 1_555 1_555
H5 C11 1_555 1_555
C12 C11 1_555 1_555
C13 C12 1_555 1_555
H6 C13 1_555 1_555
C14 C9 1_555 1_555
H7 C14 1_555 1_555
C15 C12 1_555 1_555
C16 C15 1_555 1_555
H8 C16 1_555 1_555
C17 C16 1_555 1_555
H9 C17 1_555 1_555
C18 C17 1_555 1_555
C19 C18 1_555 1_555
H10 C19 1_555 1_555
C20 C15 1_555 1_555
H11 C20 1_555 1_555
C21 C18 1_555 1_555
C22 C21 1_555 1_555
H12 C22 1_555 1_555
C23 C22 1_555 1_555
H13 C23 1_555 1_555
C24 C23 1_555 1_555
C25 C24 1_555 1_555
H14 C25 1_555 1_555
C26 C21 1_555 1_555
H15 C26 1_555 1_555
C27 C24 1_555 1_555
O1 H16 1_555 1_555
H17 O1 1_555 1_555
O2 H18 1_555 1_555
H19 O2 1_555 1_555
O3 C1 1_555 1_555
O4 C1 1_555 1_555
O5 C8 1_555 1_555
O6 C8 1_555 1_555
O7 C27 1_555 1_555
O8 C27 1_555 1_555
Tb1 O1 1_555 1_555
O4F Tb1 1_555 1_555
O5E Tb1 1_555 1_555
O6C Tb1 1_555 1_555
O7B Tb1 1_555 1_555
O8B Tb1 1_555 1_555
Tb1B O7 1_555 1_555
Tb1C O6 1_555 1_555
Tb1E O5 1_555 1_555
Tb1F O4 1_555 1_555
C6 C7 1_555 1_555
C13 C14 1_555 1_555
C19 C20 1_555 1_555
C25 C26 1_555 1_555
O2 Tb1 1_555 1_555
O3 Tb1 1_555 1_555
O4 Tb1 1_555 1_555
O8 Tb1B 1_555 1_555
O4F Tb1F 1_555 1_555

#END
