
#######################################################################
#
#                 Cambridge Crystallographic Data Centre
#                                CCDC 
#
#######################################################################
#
# If this CIF has been generated from an entry in the Cambridge 
# Structural Database, then it will include bibliographic, chemical, 
# crystal, experimental, refinement or atomic coordinate data resulting 
# from the CCDC's data processing and validation procedures.
#
#######################################################################

data_HOGJET
_chemical_formula_moiety         'C96 H52 Cu34 N11 O86'
_symmetry_cell_setting           monoclinic
_symmetry_space_group_name_H-M   'I 2/m'
_symmetry_Int_Tables_number      12
_space_group_name_Hall           '-I 2y'
loop_
_symmetry_equiv_pos_site_id
_symmetry_equiv_pos_as_xyz
1 x,y,z
2 1/2+x,1/2+y,1/2+z
3 -x,y,-z
4 1/2-x,1/2+y,1/2-z
5 -x,-y,-z
6 1/2-x,1/2-y,1/2-z
7 x,-y,z
8 1/2+x,1/2-y,1/2+z
_cell_length_a                   23.1092(6)
_cell_length_b                   18.8031(5)
_cell_length_c                   29.8062(6)
_cell_angle_alpha                90
_cell_angle_beta                 105.325(2)
_cell_angle_gamma                90
_cell_volume                     12491
loop_
_atom_site_label
_atom_site_type_symbol
_atom_site_fract_x
_atom_site_fract_y
_atom_site_fract_z
C1 C 0.3113(4) 0.6323(6) 0.0147(3)
C2 C 0.3448(4) 0.5670(5) 0.0165(3)
C3 C 0.4014(5) 0.5643(8) 0.0115(4)
H1 H 0.4185 0.608 0.0079
C4 C 0.4409(9) 0.50000 0.0108(7)
C5 C 0.3119(6) 0.50000 0.0194(4)
H2 H 0.273 0.50000 0.0228
C6 C 0.2945(5) 0.7728(7) 0.0946(3)
N1 N 0.50000 0.50000 0.00000
O1 O 0.5844(2) 0.9245(3) 0.24753(17)
O2 O 0.4448(3) 0.9309(4) 0.2695(2)
C7 C 0.1036(5) 0.9436(7) 0.0026(4)
H3 H 0.0883 0.8983 0.0045
C8 C 0.0622(7) 1.00000 0.0027(10)
N2 N -0.00000 0.984 0.00000
C9 C 0.7213(4) 0.7755(4) 0.4216(3)
C10 C 0.6992(4) 0.7837(4) 0.3724(3)
C11 C 0.7325(5) 0.7504(5) 0.3437(3)
H4 H 0.7637 0.7192 0.3562
C12 C 0.7160(5) 0.7669(7) 0.2957(4)
C13 C 0.6728(4) 0.8226(5) 0.2791(3)
H5 H 0.6657 0.8378 0.2485
C14 C 0.6412(4) 0.8545(5) 0.3080(3)
C15 C 0.6543(5) 0.8339(6) 0.3563(3)
H6 H 0.6333 0.8535 0.376
C16 C 0.5927(3) 0.9020(4) 0.2909(2)
C17 C 0.1979(5) 0.8764(9) -0.0003(3)
C18 C 0.1628(5) 0.9446(8) 0.0001(4)
C19 C 0.1961(6) 1.00000 -0.0009(5)
H7 H 0.2359 1.00000 -0.0021
C20 C 0.4339(3) 0.9131(5) 0.2297(3)
C21 C 0.3849(4) 0.8577(5) 0.2099(3)
C22 C 0.3676(4) 0.8371(5) 0.1640(3)
H8 H 0.3925 0.848 0.145
C23 C 0.3158(4) 0.8015(5) 0.1452(3)
C24 C 0.2827(4) 0.7756(5) 0.1758(3)
H9 H 0.2486 0.7481 0.1642
C25 C 0.3003(4) 0.7908(5) 0.2209(3)
C26 C 0.3500(4) 0.8335(5) 0.2392(3)
H10 H 0.3603 0.846 0.2705
H11 H 0.41124 0.86973 -0.00296
H13 H 0.60108 0.82168 0.54581
H14 H 0.64428 0.86610 0.53134
H17 H 0.45022 1.0000 0.37828
H18 H 0.50970 1.0000 0.38301
Cu1 Cu 0.30287(5) 0.78934(7) 0.00228(4)
Cu2 Cu 0.70835(5) 0.77908(7) 0.51577(4)
Cu3 Cu 0.52714(6) 1.00000 0.21719(4)
Cu4 Cu 0.50048(6) 1.00000 0.29883(4)
N3 N 0.7555(4) 0.7403(5) 0.2700(2)
N4 N 0.2712(4) 0.7682(5) 0.2560(3)
O3 O 0.7663(2) 0.7306(3) 0.43534(17)
O4 O 0.6879(3) 0.7898(3) 0.44630(17)
O5 O 0.3371(3) 0.6913(4) 0.0085(2)
O6 O 0.2579(2) 0.6350(3) 0.02288(19)
O7 O 0.3262(3) 0.8097(4) 0.06887(19)
O8 O 0.2456(3) 0.7488(4) 0.0806(2)
O9 O 0.2515(2) 0.8758(4) -0.00121(19)
O10 O 0.1697(3) 0.8178(5) 0.0072(2)
O11 O 0.3791(3) 0.8444(4) -0.0095(3)
O12 O 0.6287(3) 0.8249(5) 0.5307(3)
O13 O 0.5629(2) 0.9235(3) 0.31705(18)
O14 O 0.4634(3) 0.9290(3) 0.19940(17)
O15 O 0.5533(6) 1.00000 0.1533(3)
O16 O 0.4772(6) 1.00000 0.3636(3)
C1F C 0.3113(4) 0.3677(6) 0.0147(3)
C1D C 0.6887(4) 0.3677(6) -0.0147(3)
C1B C 0.6887(4) 0.6323(6) -0.0147(3)
C2F C 0.3448(4) 0.4330(5) 0.0165(3)
C2D C 0.6552(4) 0.4330(5) -0.0165(3)
C2B C 0.6552(4) 0.5670(5) -0.0165(3)
C3F C 0.4014(5) 0.4357(8) 0.0115(4)
C3D C 0.5986(5) 0.4357(8) -0.0115(4)
C3B C 0.5986(5) 0.5643(8) -0.0115(4)
H1F H 0.4185 0.392 0.0079
H1B H 0.5815 0.608 -0.0079
H1D H 0.5815 0.392 -0.0079
C4D C 0.5591(9) 0.50000 -0.0108(7)
C5D C 0.6881(6) 0.50000 -0.0194(4)
H2D H 0.727 0.50000 -0.0228
C6E C 0.2055(5) 0.7272(7) 0.4054(3)
C6F C 0.2945(5) 1.2272(7) 0.0946(3)
C6C C 0.2055(5) 1.2728(7) 0.4054(3)
O1E O 0.9156(2) 0.5755(3) 0.25247(17)
O1F O 0.5844(2) 1.0755(3) 0.24753(17)
O1C O 0.9156(2) 1.4245(3) 0.25247(17)
O1C_2 O 0.9156(2) 0.4245(3) 0.25247(17)
O2E O 0.0552(3) 0.5691(4) 0.2305(2)
O2F O 0.4448(3) 1.0691(4) 0.2695(2)
O2C O 0.0552(3) 1.4309(4) 0.2305(2)
O2C_2 O 0.0552(3) 0.4309(4) 0.2305(2)
C7F C 0.1036(5) 1.0564(7) 0.0026(4)
C7D C -0.1036(5) 1.0564(7) -0.0026(4)
C7B C -0.1036(5) 0.9436(7) -0.0026(4)
H3F H 0.0883 1.1017 0.0045
H3D H -0.0883 1.1017 -0.0045
H3B H -0.0883 0.8983 -0.0045
C8D C -0.0622(7) 1.00000 -0.0027(10)
N2F N 0.00000 1.016 0.00000
C9E C 0.7787(4) 0.7245(4) 0.0784(3)
C9F C 0.7213(4) 1.2245(4) 0.4216(3)
C9C C 0.7787(4) 1.2755(4) 0.0784(3)
C10E C 0.8008(4) 0.7163(4) 0.1276(3)
C10F C 0.6992(4) 1.2163(4) 0.3724(3)
C10C C 0.8008(4) 1.2837(4) 0.1276(3)
C11E C 0.7675(5) 0.7496(5) 0.1563(3)
C11F C 0.7325(5) 1.2496(5) 0.3437(3)
C11C C 0.7675(5) 1.2504(5) 0.1563(3)
H4E H 0.7363 0.7808 0.1438
H4F H 0.7637 1.2808 0.3562
H4C H 0.7363 1.2192 0.1438
C12E C 0.7840(5) 0.7331(7) 0.2043(4)
C12F C 0.7160(5) 1.2331(7) 0.2957(4)
C12C C 0.7840(5) 1.2669(7) 0.2043(4)
C13E C 0.8272(4) 0.6774(5) 0.2209(3)
C13F C 0.6728(4) 1.1774(5) 0.2791(3)
C13C C 0.8272(4) 1.3226(5) 0.2209(3)
H5E H 0.8343 0.6622 0.2515
H5F H 0.6657 1.1622 0.2485
H5C H 0.8343 1.3378 0.2515
C14E C 0.8588(4) 0.6455(5) 0.1920(3)
C14F C 0.6412(4) 1.1455(5) 0.3080(3)
C14C C 0.8588(4) 1.3545(5) 0.1920(3)
C15E C 0.8457(5) 0.6661(6) 0.1437(3)
C15F C 0.6543(5) 1.1661(6) 0.3563(3)
C15C C 0.8457(5) 1.3339(6) 0.1437(3)
H6E H 0.8667 0.6465 0.124
H6F H 0.6333 1.1465 0.376
H6C H 0.8667 1.3535 0.124
C16E C 0.9073(3) 0.5980(4) 0.2091(2)
C16F C 0.5927(3) 1.0980(4) 0.2909(2)
C16C C 0.9073(3) 1.4020(4) 0.2091(2)
C17F C 0.1979(5) 1.1236(9) -0.0003(3)
C17D C -0.1979(5) 1.1236(9) 0.0003(3)
C17B C -0.1979(5) 0.8764(9) 0.0003(3)
C18F C 0.1628(5) 1.0554(8) 0.0001(4)
C18D C -0.1628(5) 1.0554(8) -0.0001(4)
C18B C -0.1628(5) 0.9446(8) -0.0001(4)
C19D C -0.1961(6) 1.00000 0.0009(5)
H7D H -0.2359 1.00000 0.0021
C20E C 0.0661(3) 0.5869(5) 0.2703(3)
C20F C 0.4339(3) 1.0869(5) 0.2297(3)
C20C C 0.0661(3) 1.4131(5) 0.2703(3)
C21E C 0.1151(4) 0.6423(5) 0.2901(3)
C21F C 0.3849(4) 1.1423(5) 0.2099(3)
C21C C 0.1151(4) 1.3577(5) 0.2901(3)
C22E C 0.1324(4) 0.6629(5) 0.3360(3)
C22F C 0.3676(4) 1.1629(5) 0.1640(3)
C22C C 0.1324(4) 1.3371(5) 0.3360(3)
H8E H 0.1075 0.652 0.355
H8F H 0.3925 1.152 0.145
H8C H 0.1075 1.348 0.355
C23E C 0.1842(4) 0.6985(5) 0.3548(3)
C23F C 0.3158(4) 1.1985(5) 0.1452(3)
C23C C 0.1842(4) 1.3015(5) 0.3548(3)
C24E C 0.2173(4) 0.7244(5) 0.3242(3)
C24F C 0.2827(4) 1.2244(5) 0.1758(3)
C24C C 0.2173(4) 1.2756(5) 0.3242(3)
H9E H 0.2514 0.7519 0.3358
H9F H 0.2486 1.2519 0.1642
H9C H 0.2514 1.2481 0.3358
C25E C 0.1997(4) 0.7092(5) 0.2791(3)
C25F C 0.3003(4) 1.2092(5) 0.2209(3)
C25C C 0.1997(4) 1.2908(5) 0.2791(3)
C26E C 0.1500(4) 0.6665(5) 0.2608(3)
C26F C 0.3500(4) 1.1665(5) 0.2392(3)
C26C C 0.1500(4) 1.3335(5) 0.2608(3)
H10E H 0.1397 0.654 0.2295
H10F H 0.3603 1.154 0.2705
H10C H 0.1397 1.346 0.2295
H11E H 0.08876 0.63027 0.50296
H11F H 0.41124 1.13027 -0.00296
H11C H 0.08876 1.36973 0.50296
H13E H 0.89892 0.67832 -0.04581
H13F H 0.60108 1.17832 0.54581
H13C H 0.89892 1.32168 -0.04581
H14E H 0.85572 0.63390 -0.03134
H14F H 0.64428 1.13390 0.53134
H14C H 0.85572 1.36610 -0.03134
H17E H 0.04978 0.5000 0.12172
H18E H -0.00970 0.5000 0.11699
Cu1E Cu 0.19713(5) 0.71066(7) 0.49772(4)
Cu1F Cu 0.30287(5) 1.21066(7) 0.00228(4)
Cu1C Cu 0.19713(5) 1.28934(7) 0.49772(4)
Cu1G Cu 0.80287(5) 0.71066(7) 0.50228(4)
Cu1F_2 Cu 0.30287(5) 0.21066(7) 0.00228(4)
Cu1D Cu 0.69713(5) 0.21066(7) -0.00228(4)
Cu1B Cu 0.69713(5) 0.78934(7) -0.00228(4)
Cu1D_2 Cu -0.30287(5) 1.21066(7) -0.00228(4)
Cu1B_2 Cu -0.30287(5) 0.78934(7) -0.00228(4)
Cu1A Cu 0.80287(5) 1.28934(7) 0.50228(4)
Cu1D_3 Cu 0.69713(5) 1.21066(7) -0.00228(4)
Cu2E Cu 0.79165(5) 0.72092(7) -0.01577(4)
Cu2F Cu 0.70835(5) 1.22092(7) 0.51577(4)
Cu2C Cu 0.79165(5) 1.27908(7) -0.01577(4)
Cu2G Cu 0.20835(5) 0.72092(7) 0.01577(4)
Cu2A Cu 0.20835(5) 0.27908(7) 0.01577(4)
Cu2C_2 Cu 0.79165(5) 0.27908(7) -0.01577(4)
Cu2B Cu 0.29165(5) 0.77908(7) 0.48423(4)
Cu2A_2 Cu 0.20835(5) 1.27908(7) 0.01577(4)
Cu2C_3 Cu -0.20835(5) 1.27908(7) -0.01577(4)
Cu2E_2 Cu -0.20835(5) 0.72092(7) -0.01577(4)
Cu2D Cu 0.29165(5) 1.22092(7) 0.48423(4)
Cu3E Cu 0.97286(6) 0.50000 0.28281(4)
Cu3E_2 Cu -0.02714(6) 0.50000 0.28281(4)
Cu3E_3 Cu 0.97286(6) 1.50000 0.28281(4)
Cu3E_4 Cu -0.02714(6) 1.50000 0.28281(4)
Cu4E Cu -0.00048(6) 0.50000 0.20117(4)
Cu4E_2 Cu 0.99952(6) 0.50000 0.20117(4)
Cu4E_3 Cu 0.99952(6) 1.50000 0.20117(4)
Cu4E_4 Cu -0.00048(6) 1.50000 0.20117(4)
N3E N 0.7445(4) 0.7597(5) 0.2300(2)
N3F N 0.7555(4) 1.2597(5) 0.2700(2)
N3C N 0.7445(4) 1.2403(5) 0.2300(2)
N4E N 0.2288(4) 0.7318(5) 0.2440(3)
N4F N 0.2712(4) 1.2318(5) 0.2560(3)
N4C N 0.2288(4) 1.2682(5) 0.2440(3)
O3E O 0.7337(2) 0.7694(3) 0.06466(17)
O3F O 0.7663(2) 1.2694(3) 0.43534(17)
O3C O 0.7337(2) 1.2306(3) 0.06466(17)
O3G O 0.2663(2) 0.7694(3) -0.06466(17)
O3B O 0.2337(2) 0.7306(3) 0.56466(17)
O3A O 0.2663(2) 1.2306(3) -0.06466(17)
O3D O 0.2337(2) 1.2694(3) 0.56466(17)
O4E O 0.8121(3) 0.7102(3) 0.05370(17)
O4F O 0.6879(3) 1.2102(3) 0.44630(17)
O4C O 0.8121(3) 1.2898(3) 0.05370(17)
O5F O 0.3371(3) 0.3087(4) 0.0085(2)
O5D O 0.6629(3) 0.3087(4) -0.0085(2)
O5B O 0.6629(3) 0.6913(4) -0.0085(2)
O5E O 0.1629(3) 0.8087(4) 0.4915(2)
O5F_2 O 0.3371(3) 1.3087(4) 0.0085(2)
O5C O 0.1629(3) 1.1913(4) 0.4915(2)
O6F O 0.2579(2) 0.3650(3) 0.02288(19)
O6D O 0.7421(2) 0.3650(3) -0.02288(19)
O6B O 0.7421(2) 0.6350(3) -0.02288(19)
O6G O 0.7579(2) 0.8650(3) 0.52288(19)
O6A O 0.7579(2) 1.1350(3) 0.52288(19)
O6D_2 O 0.7421(2) 1.3650(3) -0.02288(19)
O7E O 0.1738(3) 0.6903(4) 0.43113(19)
O7F O 0.3262(3) 1.1903(4) 0.06887(19)
O7C O 0.1738(3) 1.3097(4) 0.43113(19)
O8E O 0.2544(3) 0.7512(4) 0.4194(2)
O8F O 0.2456(3) 1.2512(4) 0.0806(2)
O8C O 0.2544(3) 1.2488(4) 0.4194(2)
O8G O 0.7456(3) 0.7512(4) 0.5806(2)
O8B O 0.7544(3) 0.7488(4) -0.0806(2)
O8A O 0.7456(3) 1.2488(4) 0.5806(2)
O8D O 0.7544(3) 1.2512(4) -0.0806(2)
O9F O 0.2515(2) 1.1242(4) -0.00121(19)
O9D O -0.2515(2) 1.1242(4) 0.00121(19)
O9B O -0.2515(2) 0.8758(4) 0.00121(19)
O9E O 0.2485(2) 0.6242(4) 0.50121(19)
O9C O 0.2485(2) 1.3758(4) 0.50121(19)
O10F O 0.1697(3) 1.1822(5) 0.0072(2)
O10D O -0.1697(3) 1.1822(5) -0.0072(2)
O10B O -0.1697(3) 0.8178(5) -0.0072(2)
O10G O 0.6697(3) 0.6822(5) 0.5072(2)
O10B_2 O 0.8303(3) 0.8178(5) -0.0072(2)
O10A O 0.6697(3) 1.3178(5) 0.5072(2)
O10D_2 O 0.8303(3) 1.1822(5) -0.0072(2)
O11E O 0.1209(3) 0.6556(4) 0.5095(3)
O11F O 0.3791(3) 1.1556(4) -0.0095(3)
O11C O 0.1209(3) 1.3444(4) 0.5095(3)
O12E O 0.8713(3) 0.6751(5) -0.0307(3)
O12F O 0.6287(3) 1.1751(5) 0.5307(3)
O12C O 0.8713(3) 1.3249(5) -0.0307(3)
O13E O 0.9371(2) 0.5765(3) 0.18295(18)
O13F O 0.5629(2) 1.0765(3) 0.31705(18)
O13C O 0.9371(2) 1.4235(3) 0.18295(18)
O13E_2 O -0.0629(2) 0.5765(3) 0.18295(18)
O13C_2 O -0.0629(2) 0.4235(3) 0.18295(18)
O14E O 0.0366(3) 0.5710(3) 0.30060(17)
O14F O 0.4634(3) 1.0710(3) 0.19940(17)
O14C O 0.0366(3) 1.4290(3) 0.30060(17)
O14E_2 O 1.0366(3) 0.5710(3) 0.30060(17)
O14C_2 O 1.0366(3) 0.4290(3) 0.30060(17)
O15E O 0.9467(6) 0.50000 0.3467(3)
O16E O 0.0228(6) 0.50000 0.1364(3)
loop_
_geom_bond_atom_site_label_1
_geom_bond_atom_site_label_2
_geom_bond_site_symmetry_1
_geom_bond_site_symmetry_2
C1 C2 1_555 1_555
C2 C3 1_555 1_555
C3 H1 1_555 1_555
C4 C3 1_555 1_555
C5 C2 1_555 1_555
H2 C5 1_555 1_555
C6 C23 1_555 1_555
N1 C4 1_555 1_555
O1 C16 1_555 1_555
O2 C20 1_555 1_555
C7 H3 1_555 1_555
C8 C7 1_555 1_555
N2 C8 1_555 1_555
C9 C10 1_555 1_555
C10 C11 1_555 1_555
C11 H4 1_555 1_555
C12 C11 1_555 1_555
C13 C12 1_555 1_555
H5 C13 1_555 1_555
C14 C13 1_555 1_555
C15 C10 1_555 1_555
H6 C15 1_555 1_555
C16 C14 1_555 1_555
C17 C18 1_555 1_555
C18 C7 1_555 1_555
C19 C18 1_555 1_555
H7 C19 1_555 1_555
C20 C21 1_555 1_555
C21 C22 1_555 1_555
C22 H8 1_555 1_555
C23 C22 1_555 1_555
C24 C23 1_555 1_555
H9 C24 1_555 1_555
C25 C24 1_555 1_555
C26 C21 1_555 1_555
H10 C26 1_555 1_555
H11 O11 1_555 1_555
H13 O12 1_555 1_555
H14 O12 1_555 1_555
H17 O16 1_555 1_555
H18 O16 1_555 1_555
Cu1 O5 1_555 1_555
Cu2 O4 1_555 1_555
Cu3 O1 1_555 1_555
Cu4 O2 1_555 1_555
N3 C12 1_555 1_555
N4 C25 1_555 1_555
O3 C9 1_555 1_555
O4 C9 1_555 1_555
O5 C1 1_555 1_555
O6 C1 1_555 1_555
O7 C6 1_555 1_555
O8 C6 1_555 1_555
O9 C17 1_555 1_555
O10 C17 1_555 1_555
O11 Cu1 1_555 1_555
O12 Cu2 1_555 1_555
O13 C16 1_555 1_555
O14 C20 1_555 1_555
O15 Cu3 1_555 1_555
O16 Cu4 1_555 1_555
C1F C2F 1_555 1_555
C1D C2D 1_555 1_555
C1B C2B 1_555 1_555
C2F C5 1_555 1_555
C2D C3D 1_555 1_555
C2B C3B 1_555 1_555
C3F C4 1_555 1_555
C3D H1D 1_555 1_555
C3B H1B 1_555 1_555
H1F C3F 1_555 1_555
C4D N1 1_555 1_555
C5D C2D 1_555 1_555
H2D C5D 1_555 1_555
C6E C23E 1_555 1_555
C6F C23F 1_555 1_555
C6C C23C 1_555 1_555
O1E C16E 1_555 1_555
O1F Cu3 1_555 1_555
O1C C16C 1_555 1_555
O1C_2 Cu3E 1_555 1_555
O2E C20E 1_555 1_555
O2F Cu4 1_555 1_555
O2C C20C 1_555 1_555
O2C_2 Cu4E 1_555 1_555
C7F C8 1_555 1_555
C7D H3D 1_555 1_555
C7B H3B 1_555 1_555
H3F C7F 1_555 1_555
C8D N2 1_555 1_555
N2F C8 1_555 1_555
C9E C10E 1_555 1_555
C9F C10F 1_555 1_555
C9C C10C 1_555 1_555
C10E C11E 1_555 1_555
C10F C11F 1_555 1_555
C10C C11C 1_555 1_555
C11E H4E 1_555 1_555
C11F H4F 1_555 1_555
C11C H4C 1_555 1_555
C12E C11E 1_555 1_555
C12F C11F 1_555 1_555
C12C C11C 1_555 1_555
C13E C12E 1_555 1_555
C13F C12F 1_555 1_555
C13C C12C 1_555 1_555
H5E C13E 1_555 1_555
H5F C13F 1_555 1_555
H5C C13C 1_555 1_555
C14E C13E 1_555 1_555
C14F C13F 1_555 1_555
C14C C13C 1_555 1_555
C15E C10E 1_555 1_555
C15F C10F 1_555 1_555
C15C C10C 1_555 1_555
H6E C15E 1_555 1_555
H6F C15F 1_555 1_555
H6C C15C 1_555 1_555
C16E C14E 1_555 1_555
C16F O1F 1_555 1_555
C16C C14C 1_555 1_555
C17F C18F 1_555 1_555
C17D C18D 1_555 1_555
C17B C18B 1_555 1_555
C18F C19 1_555 1_555
C18D C7D 1_555 1_555
C18B C7B 1_555 1_555
C19D C18D 1_555 1_555
H7D C19D 1_555 1_555
C20E C21E 1_555 1_555
C20F O2F 1_555 1_555
C20C C21C 1_555 1_555
C21E C22E 1_555 1_555
C21F C20F 1_555 1_555
C21C C22C 1_555 1_555
C22E H8E 1_555 1_555
C22F C21F 1_555 1_555
C22C H8C 1_555 1_555
H8F C22F 1_555 1_555
C23E C22E 1_555 1_555
C23F C22F 1_555 1_555
C23C C22C 1_555 1_555
C24E C23E 1_555 1_555
C24F C23F 1_555 1_555
C24C C23C 1_555 1_555
H9E C24E 1_555 1_555
H9F C24F 1_555 1_555
H9C C24C 1_555 1_555
C25E C24E 1_555 1_555
C25F C24F 1_555 1_555
C25C C24C 1_555 1_555
C26E C21E 1_555 1_555
C26F C21F 1_555 1_555
C26C C21C 1_555 1_555
H10E C26E 1_555 1_555
H10F C26F 1_555 1_555
H10C C26C 1_555 1_555
H11E O11E 1_555 1_555
H11F O11F 1_555 1_555
H11C O11C 1_555 1_555
H13E O12E 1_555 1_555
H13F O12F 1_555 1_555
H13C O12C 1_555 1_555
H14E O12E 1_555 1_555
H14F O12F 1_555 1_555
H14C O12C 1_555 1_555
H17E O16E 1_555 1_555
H18E O16E 1_555 1_555
Cu1E Cu2B 1_555 1_555
Cu1F Cu2A_2 1_555 1_555
Cu1C Cu2D 1_555 1_555
Cu1G Cu2 1_555 1_555
Cu1F_2 Cu2A 1_555 1_555
Cu1D Cu2C_2 1_555 1_555
Cu1B Cu2E 1_555 1_555
Cu1D_2 Cu2C_3 1_555 1_555
Cu1B_2 Cu2E_2 1_555 1_555
Cu1A Cu2F 1_555 1_555
Cu1D_3 Cu2C 1_555 1_555
Cu2E O4E 1_555 1_555
Cu2F O4F 1_555 1_555
Cu2C O4C 1_555 1_555
Cu2G Cu1 1_555 1_555
Cu2A O6F 1_555 1_555
Cu2C_2 O6D 1_555 1_555
Cu2B O8E 1_555 1_555
Cu2A_2 O8F 1_555 1_555
Cu2C_3 O10D 1_555 1_555
Cu2E_2 O10B 1_555 1_555
Cu2D O8C 1_555 1_555
Cu3E O1E 1_555 1_555
Cu3E_2 Cu4E 1_555 1_555
Cu3E_3 O1C 1_555 1_555
Cu3E_4 Cu4E_4 1_555 1_555
Cu4E O2E 1_555 1_555
Cu4E_2 Cu3E 1_555 1_555
Cu4E_3 Cu3E_3 1_555 1_555
Cu4E_4 O2C 1_555 1_555
N3E N3 1_555 1_555
N3F C12F 1_555 1_555
N3C C12C 1_555 1_555
N4E N4 1_555 1_555
N4F C25F 1_555 1_555
N4C C25C 1_555 1_555
O3E C9E 1_555 1_555
O3F C9F 1_555 1_555
O3C C9C 1_555 1_555
O3G Cu1 1_555 1_555
O3B Cu1E 1_555 1_555
O3A Cu1F 1_555 1_555
O3D Cu1C 1_555 1_555
O4E C9E 1_555 1_555
O4F C9F 1_555 1_555
O4C C9C 1_555 1_555
O5F C1F 1_555 1_555
O5D C1D 1_555 1_555
O5B C1B 1_555 1_555
O5E Cu1E 1_555 1_555
O5F_2 Cu1F 1_555 1_555
O5C Cu1C 1_555 1_555
O6F C1F 1_555 1_555
O6D C1D 1_555 1_555
O6B C1B 1_555 1_555
O6G Cu2 1_555 1_555
O6A Cu2F 1_555 1_555
O6D_2 Cu2C 1_555 1_555
O7E C6E 1_555 1_555
O7F C6F 1_555 1_555
O7C C6C 1_555 1_555
O8E C6E 1_555 1_555
O8F C6F 1_555 1_555
O8C C6C 1_555 1_555
O8G Cu2 1_555 1_555
O8B Cu2E 1_555 1_555
O8A Cu2F 1_555 1_555
O8D Cu2C 1_555 1_555
O9F C17F 1_555 1_555
O9D C17D 1_555 1_555
O9B C17B 1_555 1_555
O9E Cu1E 1_555 1_555
O9C Cu1C 1_555 1_555
O10F C17F 1_555 1_555
O10D C17D 1_555 1_555
O10B C17B 1_555 1_555
O10G Cu2 1_555 1_555
O10B_2 Cu2E 1_555 1_555
O10A Cu2F 1_555 1_555
O10D_2 Cu2C 1_555 1_555
O11E Cu1E 1_555 1_555
O11F Cu1F 1_555 1_555
O11C Cu1C 1_555 1_555
O12E Cu2E 1_555 1_555
O12F Cu2F 1_555 1_555
O12C Cu2C 1_555 1_555
O13E C16E 1_555 1_555
O13F Cu4 1_555 1_555
O13C C16C 1_555 1_555
O13E_2 Cu4E 1_555 1_555
O13C_2 Cu4E 1_555 1_555
O14E C20E 1_555 1_555
O14F Cu3 1_555 1_555
O14C C20C 1_555 1_555
O14E_2 Cu3E 1_555 1_555
O14C_2 Cu3E 1_555 1_555
O15E Cu3E 1_555 1_555
O16E Cu4E 1_555 1_555
N2 N2F 1_555 1_555
C14 C15 1_555 1_555
C25 C26 1_555 1_555
Cu1 O7 1_555 1_555
Cu1 O9 1_555 1_555
Cu3 Cu4 1_555 1_555
Cu3 O14 1_555 1_555
Cu4 O13 1_555 1_555
O3 Cu1G 1_555 1_555
O6 Cu2G 1_555 1_555
O8 Cu2G 1_555 1_555
O10 Cu2G 1_555 1_555
C2F C3F 1_555 1_555
C2B C5D 1_555 1_555
C3D C4D 1_555 1_555
C3B C4D 1_555 1_555
C7F C18F 1_555 1_555
C7D C8D 1_555 1_555
C7B C8D 1_555 1_555
C8D N2F 1_555 1_555
C12E N3E 1_555 1_555
C14E C15E 1_555 1_555
C14F C15F 1_555 1_555
C14F C16F 1_555 1_555
C14C C15C 1_555 1_555
C16F O13F 1_555 1_555
C18B C19D 1_555 1_555
C20F O14F 1_555 1_555
C25E C26E 1_555 1_555
C25E N4E 1_555 1_555
C25F C26F 1_555 1_555
C25C C26C 1_555 1_555
Cu1E O7E 1_555 1_555
Cu1F O7F 1_555 1_555
Cu1F O9F 1_555 1_555
Cu1C O7C 1_555 1_555
Cu1F_2 O5F 1_555 1_555
Cu1D O5D 1_555 1_555
Cu1B O3E 1_555 1_555
Cu1B O5B 1_555 1_555
Cu1D_2 O9D 1_555 1_555
Cu1B_2 O9B 1_555 1_555
Cu1A O3F 1_555 1_555
Cu1D_3 O3C 1_555 1_555
Cu2E O6B 1_555 1_555
Cu2A_2 O10F 1_555 1_555
Cu3E_2 O14E 1_555 1_555
Cu3E_4 O14C 1_555 1_555
Cu4E_2 O13E 1_555 1_555
Cu4E_3 O13C 1_555 1_555
N3F N3C 1_555 1_555
N4F N4C 1_555 1_555

#END
