
#######################################################################
#
#                 Cambridge Crystallographic Data Centre
#                                CCDC 
#
#######################################################################
#
# If this CIF has been generated from an entry in the Cambridge 
# Structural Database, then it will include bibliographic, chemical, 
# crystal, experimental, refinement or atomic coordinate data resulting 
# from the CCDC's data processing and validation procedures.
#
#######################################################################

data_AXIGAR
_chemical_formula_moiety         '(C28 H48 Co2 N20 O4)n'
_symmetry_cell_setting           monoclinic
_symmetry_space_group_name_H-M   'C c'
_symmetry_Int_Tables_number      9
_space_group_name_Hall           'C -2yc'
loop_
_symmetry_equiv_pos_site_id
_symmetry_equiv_pos_as_xyz
1 x,y,z
2 x,-y,1/2+z
3 1/2+x,1/2+y,z
4 1/2+x,1/2-y,1/2+z
_cell_length_a                   23.9836(19)
_cell_length_b                   7.3271(6)
_cell_length_c                   22.6809(17)
_cell_angle_alpha                90
_cell_angle_beta                 94.4257(14)
_cell_angle_gamma                90
_cell_volume                     3973.84
loop_
_atom_site_label
_atom_site_type_symbol
_atom_site_fract_x
_atom_site_fract_y
_atom_site_fract_z
_atom_site_U_iso_or_equiv
_atom_site_thermal_displace_type
Co1 Co 0.45296(2) 1.02347(5) 0.23954(2) 0.0117 Uani
Co2 Co 0.70898(2) 0.98381(6) 0.49718(2) 0.0120 Uani
O1 O 0.42840(11) 1.2865(3) 0.21237(11) 0.0182 Uani
H1 H 0.4119(19) 1.345(6) 0.235(2) 0.0380 Uiso
H2 H 0.4509(17) 1.337(6) 0.2020(16) 0.0200 Uiso
O2 O 0.47620(10) 0.7567(3) 0.26745(11) 0.0184 Uani
H3 H 0.4479(15) 0.700(5) 0.2772(14) 0.0140 Uiso
H4 H 0.4867(16) 0.707(6) 0.2440(18) 0.0200 Uiso
O3 O 0.68557(10) 0.7243(3) 0.46262(10) 0.0172 Uani
H5 H 0.6660(17) 0.671(5) 0.4820(18) 0.0220 Uiso
H6 H 0.717(2) 0.673(8) 0.462(2) 0.0660 Uiso
O4 O 0.73049(10) 1.2503(3) 0.52824(10) 0.0165 Uani
H7 H 0.7045(17) 1.301(6) 0.5321(17) 0.0240 Uiso
H8 H 0.748(2) 1.305(7) 0.507(2) 0.0410 Uiso
N1 N 0.27918(17) 0.9826(4) 0.44658(17) 0.0263 Uani
N2 N 0.3369(4) 1.1453(11) 0.3777(3) 0.0170 Uiso
N3 N 0.38584(12) 1.0199(4) 0.29474(13) 0.0172 Uani
N4 N 0.50206(11) 1.1338(3) 0.31233(11) 0.0186 Uani
N5 N 0.55339(11) 1.2440(4) 0.40377(11) 0.0198 Uani
N6 N 0.63870(10) 1.1001(3) 0.45012(11) 0.0176 Uani
N7 N 0.77978(10) 0.8675(3) 0.54269(11) 0.0185 Uani
N8 N 0.87084(11) 0.7274(4) 0.57243(12) 0.0274 Uani
N9 N 0.90600(10) 0.5935(3) 0.66723(11) 0.0179 Uani
N10 N 0.66067(11) 0.9433(4) 0.56980(12) 0.0165 Uani
N11 N 0.61244(11) 0.8416(4) 0.65572(12) 0.0208 Uani
N12 N 0.52420(11) 0.9548(4) 0.69062(12) 0.0171 Uani
N13 N 0.75691(12) 1.0268(4) 0.42431(13) 0.0172 Uani
N14 N 0.79811(11) 1.1485(4) 0.33595(11) 0.0219 Uani
N15 N 0.88281(14) 1.0353(4) 0.29320(16) 0.0243 Uani
C1 C 0.30902(13) 1.0444(4) 0.41469(13) 0.0167 Uani
C2 C 0.36385(12) 1.0633(4) 0.33577(13) 0.0159 Uani
C3 C 0.52810(12) 1.1808(4) 0.35482(13) 0.0144 Uani
C4 C 0.59893(12) 1.1634(4) 0.42615(12) 0.0143 Uani
C5 C 0.82135(13) 0.7985(4) 0.55973(13) 0.0171 Uani
C6 C 0.88662(12) 0.6596(4) 0.62471(13) 0.0175 Uani
C7 C 0.63568(12) 0.9025(4) 0.60908(13) 0.0139 Uani
C8 C 0.56523(12) 0.9077(4) 0.67179(13) 0.0151 Uani
C9 C 0.77826(12) 1.0776(4) 0.38380(13) 0.0151 Uani
C10 C 0.84342(13) 1.0826(4) 0.31572(13) 0.0175 Uani
Co1A Co 0.45296(2) 0.97653(5) 0.73954(2) 0.0117 Uani
Co1C Co 0.95296(2) 0.47653(5) 0.73954(2) 0.0117 Uani
N9C N 0.40600(10) 0.9065(3) 0.16723(11) 0.0179 Uani
N12A N 0.52420(11) 1.0452(4) 0.19062(12) 0.0171 Uani
N17 N 0.63136(15) 0.4857(4) 0.53742(16) 0.0266 Uani
C11 C 0.60294(12) 0.4231(4) 0.57142(14) 0.0159 Uani
N18 N 0.57322(12) 0.3337(4) 0.60740(13) 0.0256 Uani
C12 C 0.54159(14) 0.4164(4) 0.64236(16) 0.0223 Uani
N19 N 0.5199(5) 0.4749(9) 0.6832(5) 0.0210 Uiso
N21 N 0.20492(11) 0.8554(3) 0.74448(12) 0.0167 Uani
C13 C 0.21237(15) 0.9688(5) 0.80049(17) 0.0272 Uani
H9 H 0.2457 1.0473 0.7982 0.0330 Uiso
H10 H 0.2198 0.8854 0.8345 0.0330 Uiso
C14 C 0.16270(18) 1.0892(6) 0.8122(2) 0.0449 Uani
H11 H 0.1710 1.1572 0.8491 0.0680 Uiso
H12 H 0.1555 1.1751 0.7794 0.0680 Uiso
H13 H 0.1296 1.0128 0.8158 0.0680 Uiso
C15 C 0.15273(13) 0.7392(5) 0.74406(14) 0.0231 Uani
H14 H 0.1494 0.6673 0.7070 0.0280 Uiso
H15 H 0.1199 0.8210 0.7436 0.0280 Uiso
C16 C 0.15073(16) 0.6084(5) 0.79603(16) 0.0321 Uani
H16 H 0.1157 0.5392 0.7921 0.0480 Uiso
H17 H 0.1824 0.5239 0.7964 0.0480 Uiso
H18 H 0.1528 0.6779 0.8330 0.0480 Uiso
C17 C 0.19842(15) 0.9746(5) 0.68951(17) 0.0282 Uani
H19 H 0.1927 0.8945 0.6544 0.0340 Uiso
H20 H 0.1644 1.0500 0.6914 0.0340 Uiso
C18 C 0.24752(17) 1.0999(6) 0.6811(2) 0.0455 Uani
H21 H 0.2399 1.1714 0.6449 0.0680 Uiso
H22 H 0.2530 1.1825 0.7151 0.0680 Uiso
H23 H 0.2814 1.0267 0.6780 0.0680 Uiso
C19 C 0.25726(14) 0.7379(4) 0.74309(15) 0.0228 Uani
H24 H 0.2903 0.8193 0.7452 0.0270 Uiso
H25 H 0.2603 0.6602 0.7789 0.0270 Uiso
C20 C 0.25941(16) 0.6164(6) 0.68945(17) 0.0352 Uani
H26 H 0.2944 0.5465 0.6925 0.0530 Uiso
H27 H 0.2276 0.5321 0.6875 0.0530 Uiso
H28 H 0.2577 0.6917 0.6536 0.0530 Uiso
N22 N 0.46116(10) 0.7171(3) 0.48654(11) 0.0159 Uani
C21 C 0.47345(14) 0.7741(5) 0.42451(14) 0.0251 Uani
H29 H 0.4679 0.9076 0.4206 0.0300 Uiso
H30 H 0.4461 0.7140 0.3958 0.0300 Uiso
C22 C 0.53259(15) 0.7274(5) 0.40827(15) 0.0274 Uani
H31 H 0.5373 0.7682 0.3678 0.0410 Uiso
H32 H 0.5600 0.7890 0.4357 0.0410 Uiso
H33 H 0.5383 0.5951 0.4109 0.0410 Uiso
C23 C 0.50310(13) 0.7976(4) 0.53272(15) 0.0226 Uani
H34 H 0.5410 0.7536 0.5253 0.0270 Uiso
H35 H 0.4945 0.7531 0.5722 0.0270 Uiso
C24 C 0.50327(14) 1.0055(4) 0.53314(15) 0.0235 Uani
H36 H 0.5311 1.0493 0.5638 0.0350 Uiso
H37 H 0.5126 1.0507 0.4945 0.0350 Uiso
H38 H 0.4662 1.0502 0.5414 0.0350 Uiso
C25 C 0.40225(13) 0.7789(5) 0.49619(16) 0.0275 Uani
H39 H 0.3762 0.7217 0.4656 0.0330 Uiso
H40 H 0.4000 0.9127 0.4904 0.0330 Uiso
C26 C 0.38269(14) 0.7340(5) 0.55649(15) 0.0269 Uani
H41 H 0.3444 0.7787 0.5588 0.0400 Uiso
H42 H 0.3836 0.6015 0.5624 0.0400 Uiso
H43 H 0.4075 0.7929 0.5872 0.0400 Uiso
C27 C 0.46624(15) 0.5084(4) 0.49254(15) 0.0232 Uani
H44 H 0.5051 0.4724 0.4861 0.0280 Uiso
H45 H 0.4591 0.4736 0.5335 0.0280 Uiso
C28 C 0.42651(15) 0.4023(5) 0.44990(16) 0.0281 Uani
H46 H 0.4322 0.2712 0.4564 0.0420 Uiso
H47 H 0.3878 0.4343 0.4566 0.0420 Uiso
H48 H 0.4338 0.4331 0.4092 0.0420 Uiso
loop_
_atom_site_aniso_label
_atom_site_aniso_U_11
_atom_site_aniso_U_22
_atom_site_aniso_U_33
_atom_site_aniso_U_23
_atom_site_aniso_U_13
_atom_site_aniso_U_12
Co1 0.0100(2) 0.0133(2) 0.0120(2) -0.00165(18) 0.00139(15) -0.00160(18)
Co2 0.0105(2) 0.0140(2) 0.0115(2) 0.00155(17) 0.00170(15) 0.00317(17)
O1 0.0210(12) 0.0161(11) 0.0181(12) 0.0000(9) 0.0053(10) 0.0003(9)
O2 0.0159(11) 0.0179(11) 0.0220(13) -0.0020(10) 0.0047(9) -0.0016(9)
O3 0.0160(11) 0.0181(11) 0.0179(11) 0.0015(9) 0.0040(9) 0.0010(9)
O4 0.0160(11) 0.0166(11) 0.0172(11) 0.0019(9) 0.0040(9) 0.0028(9)
N1 0.036(2) 0.0171(15) 0.0280(18) -0.0004(12) 0.0163(15) 0.0040(12)
N3 0.0148(13) 0.0189(13) 0.0182(15) 0.0019(10) 0.0040(11) 0.0002(10)
N4 0.0166(12) 0.0209(13) 0.0181(13) -0.0024(10) 0.0000(10) 0.0018(10)
N5 0.0200(13) 0.0219(13) 0.0165(13) -0.0058(10) -0.0055(10) 0.0101(10)
N6 0.0167(12) 0.0200(13) 0.0156(13) -0.0006(10) -0.0011(10) 0.0033(10)
N7 0.0150(12) 0.0217(13) 0.0187(13) 0.0035(10) 0.0002(10) 0.0045(10)
N8 0.0185(13) 0.0472(18) 0.0166(13) 0.0109(13) 0.0014(10) 0.0160(12)
N9 0.0158(12) 0.0201(12) 0.0176(13) 0.0025(10) -0.0003(10) 0.0034(10)
N10 0.0149(12) 0.0180(13) 0.0168(13) 0.0012(10) 0.0026(10) 0.0032(10)
N11 0.0173(13) 0.0262(14) 0.0199(13) 0.0083(11) 0.0088(10) 0.0081(10)
N12 0.0164(13) 0.0173(13) 0.0182(14) 0.0020(10) 0.0047(10) 0.0015(10)
N13 0.0166(14) 0.0193(13) 0.0161(14) 0.0010(11) 0.0041(11) 0.0031(11)
N14 0.0245(14) 0.0232(13) 0.0196(13) 0.0056(11) 0.0118(11) 0.0058(11)
N15 0.0240(18) 0.0209(15) 0.0301(19) 0.0009(13) 0.0163(14) -0.0002(12)
C1 0.0163(14) 0.0173(15) 0.0164(15) -0.0048(12) 0.0006(12) 0.0016(11)
C2 0.0113(13) 0.0183(15) 0.0177(16) 0.0007(11) -0.0009(12) -0.0053(11)
C3 0.0128(13) 0.0138(13) 0.0170(15) 0.0009(11) 0.0044(11) 0.0038(10)
C4 0.0170(14) 0.0146(13) 0.0116(13) -0.0033(10) 0.0026(11) -0.0007(11)
C5 0.0188(14) 0.0199(14) 0.0129(14) 0.0019(11) 0.0029(11) 0.0018(12)
C6 0.0118(13) 0.0198(14) 0.0209(16) -0.0002(12) 0.0020(11) 0.0037(11)
C7 0.0122(13) 0.0129(13) 0.0161(14) -0.0015(11) -0.0012(11) 0.0035(11)
C8 0.0181(14) 0.0135(13) 0.0136(14) 0.0019(11) 0.0009(11) -0.0020(11)
C9 0.0129(13) 0.0147(14) 0.0175(15) -0.0043(11) -0.0006(11) 0.0010(11)
C10 0.0238(16) 0.0141(14) 0.0148(14) 0.0008(11) 0.0030(12) -0.0062(12)
Co1A 0.01 0.0133 0.012 0.00165 0.00139 0.0016
Co1C 0.01 0.0133 0.012 0.00165 0.00139 0.0016
N9C 0.0158 0.0201 0.0176 -0.0025 -0.0003 -0.0034
N12A 0.0164 0.0173 0.0182 -0.002 0.0047 -0.0015
N17 0.0297(18) 0.0194(15) 0.033(2) 0.0012(12) 0.0170(15) 0.0054(12)
C11 0.0133(14) 0.0149(14) 0.0193(16) -0.0024(12) 0.0000(12) 0.0033(11)
N18 0.0308(16) 0.0194(12) 0.0284(17) -0.0038(11) 0.0141(13) -0.0060(12)
C12 0.0228(17) 0.0163(15) 0.0286(18) 0.0054(14) 0.0079(14) -0.0019(13)
N21 0.0173(12) 0.0121(11) 0.0197(12) 0.0019(10) -0.0051(9) -0.0023(10)
C13 0.0271(18) 0.0238(17) 0.0300(19) -0.0083(14) -0.0017(14) -0.0022(14)
C14 0.040(2) 0.037(2) 0.058(3) -0.019(2) 0.0062(19) 0.0070(18)
C15 0.0198(15) 0.0241(16) 0.0243(17) 0.0014(13) -0.0047(12) -0.0068(13)
C16 0.036(2) 0.0275(18) 0.032(2) 0.0106(15) -0.0030(15) -0.0112(15)
C17 0.0258(17) 0.0258(17) 0.032(2) 0.0150(14) -0.0039(14) 0.0015(14)
C18 0.032(2) 0.043(2) 0.061(3) 0.032(2) -0.0004(19) -0.0080(18)
C19 0.0222(16) 0.0209(16) 0.0240(17) 0.0006(13) -0.0073(13) 0.0016(13)
C20 0.0326(19) 0.039(2) 0.033(2) -0.0140(17) -0.0046(16) 0.0088(16)
N22 0.0141(12) 0.0192(13) 0.0138(12) 0.0002(10) -0.0027(9) 0.0007(10)
C21 0.0300(17) 0.0254(16) 0.0189(16) 0.0007(13) -0.0043(13) -0.0012(14)
C22 0.0338(19) 0.0223(16) 0.0275(18) 0.0011(14) 0.0110(14) 0.0004(14)
C23 0.0188(15) 0.0259(16) 0.0217(16) 0.0003(13) -0.0073(12) 0.0006(12)
C24 0.0212(16) 0.0268(17) 0.0224(17) -0.0068(13) 0.0004(13) -0.0044(13)
C25 0.0183(16) 0.0301(17) 0.033(2) -0.0056(15) -0.0045(14) 0.0053(13)
C26 0.0223(16) 0.0280(17) 0.0312(18) -0.0048(15) 0.0074(13) -0.0002(13)
C27 0.0259(17) 0.0192(16) 0.0239(17) 0.0019(12) -0.0015(14) 0.0022(13)
C28 0.0305(18) 0.0243(17) 0.0290(18) -0.0082(15) -0.0002(14) -0.0061(14)
loop_
_geom_bond_atom_site_label_1
_geom_bond_atom_site_label_2
_geom_bond_site_symmetry_1
_geom_bond_site_symmetry_2
Co1 O1 1_555 1_555
Co2 O3 1_555 1_555
O1 H1 1_555 1_555
H2 O1 1_555 1_555
O2 Co1 1_555 1_555
H3 O2 1_555 1_555
H4 O2 1_555 1_555
O3 H5 1_555 1_555
H6 O3 1_555 1_555
O4 Co2 1_555 1_555
H7 O4 1_555 1_555
H8 O4 1_555 1_555
N1 C1 1_555 1_555
N2 C1 1_555 1_555
N3 Co1 1_555 1_555
N4 Co1 1_555 1_555
N5 C3 1_555 1_555
N6 Co2 1_555 1_555
N7 Co2 1_555 1_555
N8 C5 1_555 1_555
N9 C6 1_555 1_555
N10 Co2 1_555 1_555
N11 C7 1_555 1_555
N12 C8 1_555 1_555
N13 Co2 1_555 1_555
N14 C9 1_555 1_555
N15 C10 1_555 1_555
C2 N2 1_555 1_555
C3 N4 1_555 1_555
C4 N5 1_555 1_555
C5 N7 1_555 1_555
C6 N8 1_555 1_555
C7 N10 1_555 1_555
C8 N11 1_555 1_555
C9 N13 1_555 1_555
C10 N14 1_555 1_555
N17 C11 1_555 1_555
C11 N18 1_555 1_555
N18 C12 1_555 1_555
C12 N19 1_555 1_555
N21 C13 1_555 1_555
C13 H9 1_555 1_555
H10 C13 1_555 1_555
C14 C13 1_555 1_555
H11 C14 1_555 1_555
H12 C14 1_555 1_555
H13 C14 1_555 1_555
C15 N21 1_555 1_555
H14 C15 1_555 1_555
H15 C15 1_555 1_555
C16 C15 1_555 1_555
H16 C16 1_555 1_555
H17 C16 1_555 1_555
H18 C16 1_555 1_555
C17 N21 1_555 1_555
H19 C17 1_555 1_555
H20 C17 1_555 1_555
C18 C17 1_555 1_555
H21 C18 1_555 1_555
H22 C18 1_555 1_555
H23 C18 1_555 1_555
C19 N21 1_555 1_555
H24 C19 1_555 1_555
H25 C19 1_555 1_555
C20 C19 1_555 1_555
H26 C20 1_555 1_555
H27 C20 1_555 1_555
H28 C20 1_555 1_555
N22 C21 1_555 1_555
C21 H29 1_555 1_555
H30 C21 1_555 1_555
C22 C21 1_555 1_555
H31 C22 1_555 1_555
H32 C22 1_555 1_555
H33 C22 1_555 1_555
C23 N22 1_555 1_555
H34 C23 1_555 1_555
H35 C23 1_555 1_555
C24 C23 1_555 1_555
H36 C24 1_555 1_555
H37 C24 1_555 1_555
H38 C24 1_555 1_555
C25 N22 1_555 1_555
H39 C25 1_555 1_555
H40 C25 1_555 1_555
C26 C25 1_555 1_555
H41 C26 1_555 1_555
H42 C26 1_555 1_555
H43 C26 1_555 1_555
C27 N22 1_555 1_555
H44 C27 1_555 1_555
H45 C27 1_555 1_555
C28 C27 1_555 1_555
H46 C28 1_555 1_555
H47 C28 1_555 1_555
H48 C28 1_555 1_555
Co1A N12 1_555 1_555
Co1C N9 1_555 1_555
N9C Co1 1_555 1_555
N12A Co1 1_555 1_555
N3 C2 1_555 1_555
N6 C4 1_555 1_555

#END
