
#######################################################################
#
#                 Cambridge Crystallographic Data Centre
#                                CCDC 
#
#######################################################################
#
# If this CIF has been generated from an entry in the Cambridge 
# Structural Database, then it will include bibliographic, chemical, 
# crystal, experimental, refinement or atomic coordinate data resulting 
# from the CCDC's data processing and validation procedures.
#
#######################################################################

data_PIHWOU
_chemical_formula_moiety         '(C7 H15 N2 O12 P3 Zn2)n'
_symmetry_cell_setting           monoclinic
_symmetry_space_group_name_H-M   'P 21/c'
_symmetry_Int_Tables_number      14
_space_group_name_Hall           '-P 2ybc'
loop_
_symmetry_equiv_pos_site_id
_symmetry_equiv_pos_as_xyz
1 x,y,z
2 -x,1/2+y,1/2-z
3 -x,-y,-z
4 x,1/2-y,1/2+z
_cell_length_a                   16.2387(2)
_cell_length_b                   9.3708(7)
_cell_length_c                   10.5007(5)
_cell_angle_alpha                90
_cell_angle_beta                 93.898(3)
_cell_angle_gamma                90
_cell_volume                     1594.19
loop_
_atom_site_label
_atom_site_type_symbol
_atom_site_fract_x
_atom_site_fract_y
_atom_site_fract_z
_atom_site_U_iso_or_equiv
_atom_site_thermal_displace_type
Zn1 Zn 0.047483(18) 0.42901(3) 0.83836(3) 0.0148 Uani
Zn2 Zn 0.414866(19) 0.62609(3) 0.86153(3) 0.0166 Uani
P1 P -0.06158(4) 0.70717(7) 0.88843(6) 0.0156 Uani
P2 P 0.24612(4) 0.47725(8) 0.88173(7) 0.0184 Uani
P3 P 0.46048(4) 0.61325(7) 1.15908(7) 0.0164 Uani
O1 O -0.15933(12) 0.7193(2) 0.86390(19) 0.0260 Uani
H1 H -0.1817 0.6724 0.9178 0.0390 Uiso
O2 O -0.03859(14) 0.5676(2) 0.8298(2) 0.0354 Uani
O3 O -0.02891(13) 0.8368(2) 0.82423(19) 0.0285 Uani
O4 O -0.03912(13) 0.7128(2) 1.03032(18) 0.0259 Uani
O5 O 0.15615(12) 0.5140(2) 0.8667(2) 0.0285 Uani
O6 O 0.27016(14) 0.3996(2) 1.0059(2) 0.0319 Uani
O7 O 0.26852(14) 0.3744(2) 0.7694(2) 0.0335 Uani
H2 H 0.2265 0.3351 0.7392 0.0500 Uiso
O8 O 0.29864(12) 0.6097(2) 0.8707(2) 0.0267 Uani
O9 O 0.42981(17) 0.7132(3) 1.2545(2) 0.0448 Uani
O10 O 0.54253(13) 0.5495(2) 1.2074(2) 0.0308 Uani
O11 O 0.46479(13) 0.6818(2) 1.02846(19) 0.0257 Uani
O12 O 0.40062(14) 0.4804(3) 1.1466(2) 0.0367 Uani
H3 H 0.4211 0.4185 1.1035 0.0550 Uiso
Zn1A Zn -0.047483(18) 0.92901(3) 0.66164(3) 0.0148 Uani
Zn1B Zn -0.047483(18) 0.57099(3) 1.16164(3) 0.0148 Uani
Zn2B Zn 0.585134(19) 0.37391(3) 1.13847(3) 0.0166 Uani
Zn2C Zn 0.414866(19) 0.87391(3) 1.36153(3) 0.0166 Uani
O3A O 0.02891(13) 0.3368(2) 0.67577(19) 0.0285 Uani
O4B O 0.03912(13) 0.2872(2) 0.96968(18) 0.0259 Uani
O9C O 0.42981(17) 0.7868(3) 0.7545(2) 0.0448 Uani
O10B O 0.45747(13) 0.4505(2) 0.7926(2) 0.0308 Uani
C1 C 0.8680(2) 1.1143(4) 0.9873(3) 0.0355 Uani
H4 H 0.9210 1.1463 0.9747 0.0420 Uiso
C2 C 0.8567(2) 1.0060(4) 1.0711(3) 0.0378 Uani
H5 H 0.9016 0.9658 1.1176 0.0450 Uiso
C3 C 0.7783(2) 0.9568(3) 1.0862(3) 0.0336 Uani
H6 H 0.7703 0.8827 1.1430 0.0400 Uiso
C4 C 0.72582(18) 1.1277(3) 0.9359(3) 0.0225 Uani
H7 H 0.6818 1.1705 0.8892 0.0270 Uiso
C5 C 0.71111(19) 1.0167(3) 1.0176(3) 0.0227 Uani
C6 C 0.6253(2) 0.9603(3) 1.0266(3) 0.0318 Uani
H8 H 0.6163 0.9402 1.1152 0.0380 Uiso
H9 H 0.5858 1.0323 0.9964 0.0380 Uiso
C7 C 0.8167(3) 1.2934(4) 0.8349(4) 0.0476 Uani
H10 H 0.7648 1.3257 0.7962 0.0710 Uiso
H11 H 0.8511 1.2614 0.7697 0.0710 Uiso
H12 H 0.8436 1.3705 0.8815 0.0710 Uiso
N1 N 0.80261(16) 1.1748(3) 0.9228(2) 0.0265 Uani
N2 N 0.61159(16) 0.8276(3) 0.9495(2) 0.0252 Uani
H13 H 0.5603 0.7967 0.9564 0.0380 Uiso
H14 H 0.6471 0.7608 0.9782 0.0380 Uiso
H15 H 0.6192 0.8461 0.8680 0.0380 Uiso
loop_
_atom_site_aniso_label
_atom_site_aniso_U_11
_atom_site_aniso_U_22
_atom_site_aniso_U_33
_atom_site_aniso_U_23
_atom_site_aniso_U_13
_atom_site_aniso_U_12
Zn1 0.01316(16) 0.01762(16) 0.01360(16) 0.00005(11) 0.00108(11) 0.00006(12)
Zn2 0.01518(17) 0.01861(17) 0.01591(17) 0.00125(12) 0.00117(12) -0.00252(12)
P1 0.0153(3) 0.0169(3) 0.0145(3) 0.0017(3) 0.0006(3) 0.0002(3)
P2 0.0134(3) 0.0217(3) 0.0199(4) 0.0006(3) 0.0004(3) -0.0050(3)
P3 0.0156(4) 0.0191(3) 0.0145(3) -0.0037(3) 0.0003(3) 0.0015(3)
O1 0.0172(10) 0.0323(11) 0.0287(11) 0.0132(9) 0.0033(8) 0.0024(9)
O2 0.0330(13) 0.0319(12) 0.0397(14) -0.0138(10) -0.0088(10) 0.0149(10)
O3 0.0328 0.0336 0.0186 0.0114 -0.0028 -0.0117
O4 0.0341 0.0278 0.0155 0.0062 -0.0008 -0.0075
O5 0.0149(10) 0.0337(11) 0.0368(13) 0.0002(10) 0.0004(9) -0.0056(9)
O6 0.0264(12) 0.0418(13) 0.0273(12) 0.0120(10) -0.0006(9) -0.0031(10)
O7 0.0233(12) 0.0399(13) 0.0376(13) -0.0160(10) 0.0035(10) -0.0076(10)
O8 0.0167(10) 0.0227(10) 0.0408(13) -0.0016(9) 0.0030(9) -0.0056(8)
O9 0.0592 0.0449 0.0305 -0.0177 0.0048 0.0195
O10 0.027 0.0319 0.0318 -0.0096 -0.0094 0.0111
O11 0.0273(11) 0.0327(11) 0.0165(10) 0.0015(9) -0.0032(8) -0.0094(9)
O12 0.0351(13) 0.0375(13) 0.0364(13) 0.0070(10) -0.0058(10) -0.0133(11)
Zn1A 0.01316 0.01762 0.0136 -5e-05 0.00108 -6e-05
Zn1B 0.01316 0.01762 0.0136 5e-05 0.00108 6e-05
Zn2B 0.01518 0.01861 0.01591 0.00125 0.00117 -0.00252
Zn2C 0.01518 0.01861 0.01591 -0.00125 0.00117 0.00252
O3A 0.0328 0.0336 0.0186 -0.0114 -0.0028 0.0117
O4B 0.0341 0.0278 0.0155 0.0062 -0.0008 -0.0075
O9C 0.0592 0.0449 0.0305 0.0177 0.0048 -0.0195
O10B 0.027 0.0319 0.0318 -0.0096 -0.0094 0.0111
C1 0.0235(17) 0.0382(18) 0.044(2) -0.0101(15) -0.0031(14) -0.0057(14)
C2 0.0329(19) 0.0345(18) 0.043(2) -0.0041(15) -0.0191(15) 0.0040(15)
C3 0.048(2) 0.0239(16) 0.0278(17) 0.0028(13) -0.0060(15) -0.0015(15)
C4 0.0220(15) 0.0228(14) 0.0222(15) -0.0034(11) -0.0031(11) 0.0032(12)
C5 0.0273(15) 0.0188(13) 0.0220(15) -0.0055(11) 0.0024(12) -0.0032(12)
C6 0.0331(18) 0.0292(16) 0.0347(18) -0.0086(14) 0.0130(14) -0.0060(14)
C7 0.059(2) 0.0389(19) 0.045(2) 0.0061(16) 0.0053(18) -0.0144(18)
N1 0.0298(14) 0.0240(12) 0.0256(13) -0.0027(10) 0.0006(11) -0.0060(11)
N2 0.0242(13) 0.0244(12) 0.0270(13) -0.0002(10) 0.0025(10) -0.0050(10)
loop_
_geom_bond_atom_site_label_1
_geom_bond_atom_site_label_2
_geom_bond_site_symmetry_1
_geom_bond_site_symmetry_2
Zn1 O2 1_555 1_555
Zn2 O8 1_555 1_555
P1 O1 1_555 1_555
P2 O5 1_555 1_555
P3 O9 1_555 1_555
O1 H1 1_555 1_555
O2 P1 1_555 1_555
O3 P1 1_555 1_555
O4 P1 1_555 1_555
O5 Zn1 1_555 1_555
O6 P2 1_555 1_555
O7 P2 1_555 1_555
H2 O7 1_555 1_555
O8 P2 1_555 1_555
O9 Zn2C 1_555 1_555
O10 P3 1_555 1_555
O11 Zn2 1_555 1_555
O12 P3 1_555 1_555
H3 O12 1_555 1_555
C1 H4 1_555 1_555
C2 C1 1_555 1_555
H5 C2 1_555 1_555
C3 C2 1_555 1_555
H6 C3 1_555 1_555
C4 H7 1_555 1_555
C5 C3 1_555 1_555
C6 C5 1_555 1_555
H8 C6 1_555 1_555
H9 C6 1_555 1_555
C7 H10 1_555 1_555
H11 C7 1_555 1_555
H12 C7 1_555 1_555
N1 C1 1_555 1_555
N2 C6 1_555 1_555
H13 N2 1_555 1_555
H14 N2 1_555 1_555
H15 N2 1_555 1_555
Zn1A O3 1_555 1_555
Zn1B O4 1_555 1_555
Zn2B O10 1_555 1_555
O3A Zn1 1_555 1_555
O4B Zn1 1_555 1_555
O9C Zn2 1_555 1_555
O10B Zn2 1_555 1_555
P3 O11 1_555 1_555
C4 C5 1_555 1_555
C4 N1 1_555 1_555
C7 N1 1_555 1_555

#END
