
#######################################################################
#
#                 Cambridge Crystallographic Data Centre
#                                CCDC 
#
#######################################################################
#
# If this CIF has been generated from an entry in the Cambridge 
# Structural Database, then it will include bibliographic, chemical, 
# crystal, experimental, refinement or atomic coordinate data resulting 
# from the CCDC's data processing and validation procedures.
#
#######################################################################

data_EVUNOY
_chemical_formula_moiety         '(C16 H18 Cd3 N10 O1 S1)n'
_symmetry_cell_setting           orthorhombic
_symmetry_space_group_name_H-M   'P b c n'
_symmetry_Int_Tables_number      60
_space_group_name_Hall           '-P 2n 2ab'
loop_
_symmetry_equiv_pos_site_id
_symmetry_equiv_pos_as_xyz
1 x,y,z
2 1/2+x,1/2+y,1/2-z
3 x,-y,1/2+z
4 1/2-x,1/2+y,z
5 -x,-y,-z
6 1/2-x,1/2-y,1/2+z
7 -x,y,1/2-z
8 1/2+x,1/2-y,-z
_cell_length_a                   13.237(3)
_cell_length_b                   14.870(3)
_cell_length_c                   14.698(3)
_cell_angle_alpha                90
_cell_angle_beta                 90
_cell_angle_gamma                90
_cell_volume                     2893.07
loop_
_atom_site_label
_atom_site_type_symbol
_atom_site_fract_x
_atom_site_fract_y
_atom_site_fract_z
_atom_site_U_iso_or_equiv
_atom_site_thermal_displace_type
Cd1 Cd 0.0000 0.35115(6) 0.2500 0.0264 Uani
Cd2 Cd -0.23831(5) 0.38990(5) -0.06321(5) 0.0347 Uani
C1 C -0.1504(8) 0.3529(6) 0.0593(7) 0.0347 Uani
N1 N -0.1029(7) 0.3449(6) 0.1213(6) 0.0433 Uani
C2 C -0.1622(7) 0.2001(6) 0.3582(6) 0.0367 Uani
N2 N -0.1053(7) 0.2428(6) 0.3196(6) 0.0437 Uani
C3 C -0.1456(8) 0.5176(6) 0.3493(7) 0.0393 Uani
N3 N -0.1015(7) 0.4645(6) 0.3126(6) 0.0480 Uani
N4 N -0.4225(10) 0.6192(8) 0.0134(10) 0.0857 Uani
H1 H -0.4560 0.6667 -0.0009 0.1030 Uiso
C4 C -0.3830(9) 0.5613(8) -0.0464(9) 0.0547 Uani
N5 N -0.3396(7) 0.4968(6) -0.0002(6) 0.0410 Uani
C5 C -0.3514(9) 0.5157(9) 0.0904(8) 0.0557 Uani
H2 H -0.3280 0.4809 0.1386 0.0670 Uiso
C6 C -0.4028(11) 0.5933(11) 0.0972(11) 0.0820 Uani
H3 H -0.4208 0.6228 0.1506 0.0980 Uiso
C7 C -0.3870(12) 0.5728(11) -0.1470(9) 0.0797 Uani
H4 H -0.3535 0.5231 -0.1759 0.1190 Uiso
H5 H -0.3539 0.6278 -0.1636 0.1190 Uiso
H6 H -0.4562 0.5748 -0.1665 0.1190 Uiso
C1F C 0.1504(8) 0.3529(6) 0.4407(7) 0.0347 Uani
N1F N 0.1029(7) 0.3449(6) 0.3787(6) 0.0433 Uani
C2F C 0.1622(7) 0.2001(6) 0.1418(6) 0.0367 Uani
N2F N 0.1053(7) 0.2428(6) 0.1804(6) 0.0437 Uani
C3F C 0.1456(8) 0.5176(6) 0.1507(7) 0.0393 Uani
N3F N 0.1015(7) 0.4645(6) 0.1874(6) 0.0480 Uani
Cd2F Cd 0.23831(5) 0.38990(5) 0.56321(5) 0.0347 Uani
N4F N 0.4225(10) 0.6192(8) 0.4866(10) 0.0857 Uani
H1F H 0.4560 0.6667 0.5009 0.1030 Uiso
C4F C 0.3830(9) 0.5613(8) 0.5464(9) 0.0547 Uani
N5F N 0.3396(7) 0.4968(6) 0.5002(6) 0.0410 Uani
C5F C 0.3514(9) 0.5157(9) 0.4096(8) 0.0557 Uani
H2F H 0.3280 0.4809 0.3614 0.0670 Uiso
C6F C 0.4028(11) 0.5933(11) 0.4028(11) 0.0820 Uani
H3F H 0.4208 0.6228 0.3494 0.0980 Uiso
C7F C 0.3870(12) 0.5728(11) 0.6470(9) 0.0797 Uani
H4F H 0.3535 0.5231 0.6759 0.1190 Uiso
H5F H 0.3539 0.6278 0.6636 0.1190 Uiso
H6F H 0.4562 0.5748 0.6665 0.1190 Uiso
C2E C -0.3378(7) 0.2999(6) -0.1418(6) 0.0367 Uani
C3B C -0.1456(8) 0.4824(6) -0.1507(7) 0.0393 Uani
Cd2E Cd -0.26169(5) 0.11010(5) 0.43679(5) 0.0347 Uani
Cd2B Cd -0.23831(5) 0.61010(5) 0.43679(5) 0.0347 Uani
Cd2G Cd 0.26169(5) 0.11010(5) 0.06321(5) 0.0347 Uani
Cd2D Cd 0.23831(5) 0.61010(5) 0.06321(5) 0.0347 Uani
C2G C 0.3378(7) 0.2999(6) 0.6418(6) 0.0367 Uani
C3D C 0.1456(8) 0.4824(6) 0.6507(7) 0.0393 Uani
O1 O 0.508(3) 0.250(2) 0.0922(17) 0.5333 Uani
S1 S 0.5773(8) 0.2042(6) 0.1054(7) 0.2353 Uani
C8 C 0.5994(14) 0.1093(12) 0.0513(13) 0.1077 Uani
H7 H 0.5548 0.1045 0.0001 0.1610 Uiso
H8 H 0.5881 0.0596 0.0918 0.1610 Uiso
H9 H 0.6682 0.1084 0.0306 0.1610 Uiso
C9 C 0.6565(16) 0.2099(13) 0.1897(13) 0.1197 Uani
H10 H 0.6464 0.2652 0.2221 0.1800 Uiso
H11 H 0.7243 0.2078 0.1667 0.1800 Uiso
H12 H 0.6455 0.1601 0.2301 0.1800 Uiso
loop_
_atom_site_aniso_label
_atom_site_aniso_U_11
_atom_site_aniso_U_22
_atom_site_aniso_U_33
_atom_site_aniso_U_23
_atom_site_aniso_U_13
_atom_site_aniso_U_12
Cd1 0.0252(5) 0.0266(5) 0.0274(5) 0.000 0.0005(3) 0.000
Cd2 0.0409(5) 0.0315(5) 0.0317(4) 0.0013(3) -0.0087(3) -0.0080(3)
C1 0.033(5) 0.037(5) 0.034(5) 0.001(4) -0.003(4) 0.001(4)
N1 0.049(5) 0.042(5) 0.039(5) 0.008(4) -0.003(4) 0.000(4)
C2 0.042 0.035 0.033 0.007 0.005 -0.007
N2 0.041 0.05 0.04 0.008 0.002 -0.009
C3 0.052 0.03 0.036 0.002 0.005 0.01
N3 0.052 0.049 0.043 -0.006 0.008 0.018
N4 0.090(9) 0.066(7) 0.101(10) -0.028(7) -0.041(8) 0.038(7)
C4 0.053(7) 0.047(7) 0.064(8) -0.009(6) -0.011(6) 0.010(5)
N5 0.044(5) 0.038(4) 0.041(5) 0.002(4) 0.002(4) 0.004(4)
C5 0.048(7) 0.070(8) 0.049(7) -0.002(6) -0.002(5) -0.005(6)
C6 0.067(9) 0.099(12) 0.080(10) -0.042(9) -0.016(8) 0.042(9)
C7 0.088(11) 0.085(10) 0.066(9) 0.011(8) -0.030(8) 0.023(9)
C1F 0.033 0.037 0.034 -0.001 -0.003 -0.001
N1F 0.049 0.042 0.039 -0.008 -0.003 0
C2F 0.042 0.035 0.033 -0.007 0.005 0.007
N2F 0.041 0.05 0.04 -0.008 0.002 0.009
C3F 0.052 0.03 0.036 -0.002 0.005 -0.01
N3F 0.052 0.049 0.043 0.006 0.008 -0.018
Cd2F 0.0409 0.0315 0.0317 -0.0013 -0.0087 0.008
N4F 0.09 0.066 0.101 0.028 -0.041 -0.038
C4F 0.053 0.047 0.064 0.009 -0.011 -0.01
N5F 0.044 0.038 0.041 -0.002 0.002 -0.004
C5F 0.048 0.07 0.049 0.002 -0.002 0.005
C6F 0.067 0.099 0.08 0.042 -0.016 -0.042
C7F 0.088 0.085 0.066 -0.011 -0.03 -0.023
C2E 0.042(5) 0.035(5) 0.033(5) -0.007(4) -0.005(4) -0.007(4)
C3B 0.052(6) 0.030(5) 0.036(5) -0.002(4) 0.005(5) -0.010(5)
Cd2E 0.0409 0.0315 0.0317 -0.0013 0.0087 -0.008
Cd2B 0.0409 0.0315 0.0317 -0.0013 -0.0087 0.008
Cd2G 0.0409 0.0315 0.0317 0.0013 0.0087 0.008
Cd2D 0.0409 0.0315 0.0317 0.0013 -0.0087 -0.008
C2G 0.042 0.035 0.033 0.007 -0.005 0.007
C3D 0.052 0.03 0.036 0.002 0.005 0.01
O1 0.93(8) 0.40(4) 0.27(3) -0.25(3) -0.41(4) 0.58(5)
S1 0.267(10) 0.197(8) 0.242(9) -0.159(8) -0.184(9) 0.135(8)
C8 0.087(12) 0.110(14) 0.126(16) -0.048(12) -0.036(11) 0.056(11)
C9 0.148(19) 0.102(14) 0.109(15) -0.030(12) -0.040(14) 0.001(14)
loop_
_geom_bond_atom_site_label_1
_geom_bond_atom_site_label_2
_geom_bond_site_symmetry_1
_geom_bond_site_symmetry_2
Cd1 N1 1_555 1_555
Cd2 C1 1_555 1_555
C1 N1 1_555 1_555
C2 N2 1_555 1_555
N2 Cd1 1_555 1_555
C3 N3 1_555 1_555
N3 Cd1 1_555 1_555
N4 H1 1_555 1_555
C4 N4 1_555 1_555
N5 Cd2 1_555 1_555
C5 N5 1_555 1_555
H2 C5 1_555 1_555
C6 N4 1_555 1_555
H3 C6 1_555 1_555
C7 C4 1_555 1_555
H4 C7 1_555 1_555
H5 C7 1_555 1_555
H6 C7 1_555 1_555
O1 S1 1_555 1_555
S1 C8 1_555 1_555
C8 H7 1_555 1_555
H8 C8 1_555 1_555
H9 C8 1_555 1_555
C9 S1 1_555 1_555
H10 C9 1_555 1_555
H11 C9 1_555 1_555
H12 C9 1_555 1_555
C1F N1F 1_555 1_555
N1F Cd1 1_555 1_555
C2F N2F 1_555 1_555
N2F Cd1 1_555 1_555
C3F N3F 1_555 1_555
N3F Cd1 1_555 1_555
Cd2F C1F 1_555 1_555
N4F H1F 1_555 1_555
C4F N4F 1_555 1_555
N5F Cd2F 1_555 1_555
C5F N5F 1_555 1_555
H2F C5F 1_555 1_555
C6F N4F 1_555 1_555
H3F C6F 1_555 1_555
C7F C4F 1_555 1_555
H4F C7F 1_555 1_555
H5F C7F 1_555 1_555
H6F C7F 1_555 1_555
C2E Cd2 1_555 1_555
C3B Cd2 1_555 1_555
Cd2E C2 1_555 1_555
Cd2B C3 1_555 1_555
Cd2G C2F 1_555 1_555
Cd2D C3F 1_555 1_555
C2G Cd2F 1_555 1_555
C3D Cd2F 1_555 1_555
C4 N5 1_555 1_555
C5 C6 1_555 1_555
C4F N5F 1_555 1_555
C5F C6F 1_555 1_555

#END
