
#######################################################################
#
#                 Cambridge Crystallographic Data Centre
#                                CCDC 
#
#######################################################################
#
# If this CIF has been generated from an entry in the Cambridge 
# Structural Database, then it will include bibliographic, chemical, 
# crystal, experimental, refinement or atomic coordinate data resulting 
# from the CCDC's data processing and validation procedures.
#
#######################################################################

data_MIXBAY
_chemical_formula_moiety         '(C26 H16 Cu2 N6 O10)n'
_symmetry_cell_setting           trigonal
_symmetry_space_group_name_H-M   'P 3 2 1'
_symmetry_Int_Tables_number      150
_space_group_name_Hall           'P 3 2"'
loop_
_symmetry_equiv_pos_site_id
_symmetry_equiv_pos_as_xyz
1 x,y,z
2 -y,x-y,z
3 -x+y,-x,z
4 y,x,-z
5 -x,-x+y,-z
6 x-y,-y,-z
_cell_length_a                   18.1402(10)
_cell_length_b                   18.1402(10)
_cell_length_c                   18.114(2)
_cell_angle_alpha                90
_cell_angle_beta                 90
_cell_angle_gamma                120
_cell_volume                     5162.13
loop_
_atom_site_label
_atom_site_type_symbol
_atom_site_fract_x
_atom_site_fract_y
_atom_site_fract_z
Cu1 Cu 0.47324(10) 0.52552(10) 0.05833(3)
O1 O 0.4361(4) 0.4137(4) 0.0962(4)
O2 O 0.4771(5) 0.3697(4) 0.0016(4)
O3 O 0.4793(5) 0.1103(4) 0.0000(3)
O4 O 0.4348(4) 0.0219(4) 0.1010(4)
O5 O 0.4295(5) 0.5684(5) 0.14741(19)
H1 H 0.4646 0.6180 0.1568
H2 H 0.3734 0.5632 0.1469
C1 C 0.4442(5) 0.3553(5) 0.0625(4)
C2 C 0.4176(7) 0.2730(6) 0.0963(6)
C3 C 0.3741(6) 0.2487(6) 0.1660(5)
H3 H 0.3622 0.2859 0.1917
C4 C 0.3505(4) 0.1699(7) 0.1939(3)
C5 C 0.3710(6) 0.1138(6) 0.1626(6)
H4 H 0.3530 0.0602 0.1826
C6 C 0.4199(6) 0.1419(6) 0.0998(5)
C7 C 0.4419(3) 0.2208(6) 0.0654(3)
H5 H 0.4730 0.2364 0.0217
C8 C 0.4502(6) 0.0841(7) 0.0661(6)
C9 C 0.2164(6) 0.0468(7) 0.4363(5)
C10 C 0.1465(9) 0.0287(8) 0.4686(6)
H6 H 0.1143 0.0522 0.4519
C11 C 0.2810(9) 0.0247(10) 0.4690(5)
H7 H 0.3342 0.0440 0.4477
N1 N 0.3007(3) 0.1413(5) 0.2577(2)
N2 N 0.2824(6) 0.1967(4) 0.2991(4)
N3 N 0.2304(5) 0.1502(4) 0.3598(3)
C12 C 0.2166(8) 0.0661(4) 0.3561(5)
C13 C 0.2600(7) 0.0605(4) 0.2929(5)
H8 H 0.2616 0.0125 0.2774
O1E O 0.0224(6) -0.4137(4) 0.9038(4)
O2E O 0.1074(6) -0.3697(4) 0.9984(4)
O3E O 0.3690(6) -0.1103(4) 1.0000(3)
O4E O 0.4129(6) -0.0219(4) 0.8990(4)
C1E C 0.0889(7) -0.3553(5) 0.9375(4)
C2E C 0.1446(9) -0.2730(6) 0.9037(6)
C3E C 0.1254(8) -0.2487(6) 0.8340(5)
H3E H 0.0763 -0.2859 0.8083
C4E C 0.1806(8) -0.1699(7) 0.8061(3)
C5E C 0.2572(8) -0.1138(6) 0.8374(6)
H4E H 0.2928 -0.0602 0.8174
C6E C 0.2780(8) -0.1419(6) 0.9002(5)
C7E C 0.2211(7) -0.2208(6) 0.9346(3)
H5E H 0.2366 -0.2364 0.9783
C8E C 0.3661(9) -0.0841(7) 0.9339(6)
C9E C 0.1696(9) -0.0468(7) 0.5637(5)
C10E C 0.1178(12) -0.0287(8) 0.5314(6)
H6E H 0.0621 -0.0522 0.5481
C11E C 0.2563(13) -0.0247(10) 0.5310(5)
H7E H 0.2902 -0.0440 0.5523
N1E N 0.1594(6) -0.1413(5) 0.7423(2)
N2E N 0.0857(7) -0.1967(4) 0.7009(4)
N3E N 0.0802(6) -0.1502(4) 0.6402(3)
C12E C 0.1505(9) -0.0661(4) 0.6439(5)
C13E C 0.1995(8) -0.0605(4) 0.7071(5)
H8E H 0.2491 -0.0125 0.7226
Cu1A Cu 0.47448(10) -0.05228(14) 0.05833(3)
O5A O 0.4316(5) -0.1389(7) 0.14741(19)
H1A H 0.3820 -0.1534 0.1568
H2A H 0.4368 -0.1898 0.1469
Cu1A_2 Cu 0.47448(10) -0.05228(14) 1.05833(3)
Cu1B Cu 0.05228(14) -0.47324(10) 1.05833(3)
Cu1C Cu 0.52552(10) 0.47324(10) -0.05833(3)
Cu1D Cu 0.52676(10) 0.05228(14) -0.05833(3)
Cu1D_2 Cu 0.52676(10) 0.05228(14) 0.94167(3)
Cu1E Cu -0.05228(14) -0.52552(10) 0.94167(3)
O1A O 0.5863(4) 0.0224(6) 0.0962(4)
O2C O 0.3697(4) 0.4771(5) -0.0016(4)
O2D O 0.5229(5) -0.1074(6) -0.0016(4)
O3D O 0.5207(5) 0.6310(6) 0.0000(3)
O3E_2 O 0.3690(6) -0.1103(4) 0.0000(3)
O4B O 0.5871(6) 0.5652(4) 0.1010(4)
loop_
_geom_bond_atom_site_label_1
_geom_bond_atom_site_label_2
_geom_bond_site_symmetry_1
_geom_bond_site_symmetry_2
Cu1 O1 1_555 1_555
O1 C1 1_555 1_555
O2 C1 1_555 1_555
O3 C8 1_555 1_555
O4 C8 1_555 1_555
O5 Cu1 1_555 1_555
H1 O5 1_555 1_555
H2 O5 1_555 1_555
C1 C2 1_555 1_555
C2 C3 1_555 1_555
C3 H3 1_555 1_555
C4 C3 1_555 1_555
C5 C4 1_555 1_555
H4 C5 1_555 1_555
C6 C5 1_555 1_555
C7 C2 1_555 1_555
H5 C7 1_555 1_555
C8 C6 1_555 1_555
C9 C10 1_555 1_555
C10 H6 1_555 1_555
C11 C9 1_555 1_555
H7 C11 1_555 1_555
N1 C4 1_555 1_555
N2 N1 1_555 1_555
N3 N2 1_555 1_555
C12 C9 1_555 1_555
C13 N1 1_555 1_555
H8 C13 1_555 1_555
O1E C1E 1_555 1_555
O2E C1E 1_555 1_555
O3E C8E 1_555 1_555
O4E C8E 1_555 1_555
C1E C2E 1_555 1_555
C2E C3E 1_555 1_555
C3E H3E 1_555 1_555
C4E C3E 1_555 1_555
C5E C4E 1_555 1_555
H4E C5E 1_555 1_555
C6E C5E 1_555 1_555
C7E C2E 1_555 1_555
H5E C7E 1_555 1_555
C8E C6E 1_555 1_555
C9E C10E 1_555 1_555
C10E C10 1_555 1_555
H6E C10E 1_555 1_555
C11E C11 1_555 1_555
H7E C11E 1_555 1_555
N1E C4E 1_555 1_555
N2E N1E 1_555 1_555
N3E N2E 1_555 1_555
C12E C9E 1_555 1_555
C13E N1E 1_555 1_555
H8E C13E 1_555 1_555
Cu1A O4 1_555 1_555
O5A Cu1A 1_555 1_555
H1A O5A 1_555 1_555
H2A O5A 1_555 1_555
Cu1A_2 O3E 1_555 1_555
Cu1B O2E 1_555 1_555
Cu1C Cu1 1_555 1_555
Cu1D O3 1_555 1_555
Cu1D_2 O4E 1_555 1_555
Cu1E O1E 1_555 1_555
O1A Cu1A 1_555 1_555
O2C Cu1 1_555 1_555
O2D Cu1A 1_555 1_555
O3D Cu1 1_555 1_555
O3E_2 Cu1A 1_555 1_555
O4B Cu1 1_555 1_555
O2 Cu1C 1_555 1_555
C6 C7 1_555 1_555
N3 C12 1_555 1_555
C12 C13 1_555 1_555
C6E C7E 1_555 1_555
C9E C11E 1_555 1_555
N3E C12E 1_555 1_555
C12E C13E 1_555 1_555
Cu1A Cu1D 1_555 1_555
Cu1A_2 Cu1D_2 1_555 1_555
Cu1B Cu1E 1_555 1_555

#END
