
#######################################################################
#
#                 Cambridge Crystallographic Data Centre
#                                CCDC 
#
#######################################################################
#
# If this CIF has been generated from an entry in the Cambridge 
# Structural Database, then it will include bibliographic, chemical, 
# crystal, experimental, refinement or atomic coordinate data resulting 
# from the CCDC's data processing and validation procedures.
#
#######################################################################

data_MIMFOF
_chemical_formula_moiety         '(C8 H29 Al4 N4 O20 P5 2+)n'
_symmetry_cell_setting           triclinic
_symmetry_space_group_name_H-M   'P -1'
_symmetry_Int_Tables_number      2
_space_group_name_Hall           '-P 1'
loop_
_symmetry_equiv_pos_site_id
_symmetry_equiv_pos_as_xyz
1 x,y,z
2 -x,-y,-z
_cell_length_a                   9.2164(12)
_cell_length_b                   10.2248(14)
_cell_length_c                   12.6094(16)
_cell_angle_alpha                98.098(2)
_cell_angle_beta                 106.227(2)
_cell_angle_gamma                106.147(2)
_cell_volume                     1064.69
loop_
_atom_site_label
_atom_site_type_symbol
_atom_site_fract_x
_atom_site_fract_y
_atom_site_fract_z
Al1 Al 0.51309(9) 1.19975(9) 0.21989(6)
Al2 Al 0.21272(9) 0.90005(9) 0.48137(6)
Al3 Al 0.50107(9) 0.70758(9) 0.22639(6)
Al4 Al 0.78207(9) 0.59730(8) 0.51514(6)
O1 O 0.4799(2) 1.1905(2) 0.07516(15)
O2 O 0.3352(2) 1.3335(2) -0.01846(17)
H1 H 0.341(4) 1.401(3) -0.049(3)
O3 O 0.6309(2) 1.4459(2) 0.10015(16)
O4 O 0.2766(2) 0.9533(2) 0.36684(14)
O5 O 0.4334(2) 0.8217(2) 0.29889(16)
O6 O 0.5779(2) 1.0623(2) 0.42891(15)
O7 O 0.7244(2) 0.5753(2) 0.63765(14)
O8 O 0.4069(2) 1.0345(2) 0.23094(14)
O9 O 0.5463(2) 1.2759(2) -0.08642(15)
O10 O 0.1619(2) 0.7243(2) 0.49898(14)
O11 O 0.7077(2) 0.7491(2) 0.28435(14)
O12 O 0.8285(2) 0.7729(2) 0.49465(14)
O13 O 0.2831(2) 0.7572(2) 0.71128(14)
O14 O -0.0063(2) 0.6470(2) 0.62148(14)
O15 O 1.0001(2) 0.8499(2) 0.37374(14)
O16 O 0.5681(2) 0.6830(2) 0.72679(17)
O17 O 0.1746(2) 0.5194(2) 0.58165(15)
O18 O 0.8279(2) 0.9849(2) 0.41858(15)
O19 O 0.4262(2) 0.4544(2) 0.57799(15)
O20 O 0.6047(2) 0.4606(2) 0.76782(14)
P1 P 0.50413(8) 1.31559(8) 0.01993(5)
P2 P 0.15230(8) 0.66154(7) 0.60088(5)
P3 P 0.57582(8) 0.54145(7) 0.67439(5)
P4 P 0.42842(7) 0.96869(7) 0.33447(5)
P5 P 0.84208(8) 0.83939(7) 0.39487(5)
Al1A Al 0.48691(9) 0.80025(9) 0.78011(6)
Al2_2 Al 1.21272(9) 0.90005(9) 0.48137(6)
Al2A Al 0.78728(9) 1.09995(9) 0.51863(6)
Al3A Al 0.49893(9) 0.29242(9) 0.77361(6)
Al3A_2 Al 0.49893(9) 1.29242(9) -0.22639(6)
Al4_2 Al -0.21793(9) 0.59730(8) 0.51514(6)
Al4A Al 0.21793(9) 0.40270(8) 0.48486(6)
O6A O 0.4221(2) 0.9377(2) 0.57109(15)
O9A O 0.4537(2) 0.7241(2) 0.08642(15)
O13A O 0.7169(2) 1.2428(2) 0.28872(14)
O14_2 O 0.9937(2) 0.6470(2) 0.62148(14)
O15_2 O 0.0001(2) 0.8499(2) 0.37374(14)
O16A O 0.4319(2) 1.3170(2) 0.27321(17)
O17A O 0.8254(2) 0.4806(2) 0.41835(15)
O18A O 0.1721(2) 1.0151(2) 0.58142(15)
O19A O 0.5738(2) 0.5456(2) 0.42201(15)
O20A O 0.3953(2) 0.5394(2) 0.23218(14)
C1 C 1.0453(5) 0.9623(5) 0.8608(3)
H2 H 1.1160 1.0558 0.8682
H3 H 1.1114 0.9053 0.8836
C2 C 0.9494(4) 0.9701(5) 0.9387(2)
H4 H 0.8780 0.8767 0.9304
H5 H 0.8836 1.0274 0.9157
N1 N 0.9422(4) 0.9020(3) 0.7401(2)
H6 H 0.999(4) 0.897(4) 0.696(3)
H7 H 0.884(4) 0.815(2) 0.728(3)
H8 H 0.899(4) 0.956(3) 0.706(3)
C1A C 0.9547(5) 1.0377(5) 1.1392(3)
H2A H 0.8840 0.9442 1.1318
H3A H 0.8886 1.0947 1.1164
C2A C 1.0506(4) 1.0299(5) 1.0613(2)
H4A H 1.1220 1.1233 1.0696
H5A H 1.1164 0.9726 1.0843
N1A N 1.0578(4) 1.0980(3) 1.2599(2)
H6A H 1.001(4) 1.103(4) 1.304(3)
H7A H 1.116(4) 1.185(2) 1.272(3)
H8A H 1.101(4) 1.044(3) 1.294(3)
C3 C -0.0145(4) 0.3935(4) 0.8560(2)
H9 H 0.0415 0.3338 0.8892
H10 H -0.1281 0.3402 0.8254
C4 C 0.0146(4) 0.5206(4) 0.9472(2)
H11 H -0.0560 0.5714 0.9174
H12 H 0.1243 0.5826 0.9678
N2 N 0.0423(3) 0.4359(3) 0.7624(2)
H13 H 0.146(2) 0.478(4) 0.793(3)
H14 H 0.034(4) 0.371(3) 0.705(2)
H15 H -0.017(4) 0.477(3) 0.722(3)
C3A C 0.0145(4) 0.6065(4) 1.1440(2)
H9A H -0.0415 0.6662 1.1108
H10A H 0.1281 0.6598 1.1746
C4A C -0.0146(4) 0.4794(4) 1.0528(2)
H11A H 0.0560 0.4286 1.0826
H12A H -0.1243 0.4174 1.0322
N2A N -0.0423(3) 0.5641(3) 1.2376(2)
H13A H -0.146(2) 0.522(4) 1.207(3)
H14A H -0.034(4) 0.629(3) 1.295(2)
H15A H 0.017(4) 0.523(3) 1.278(3)
loop_
_geom_bond_atom_site_label_1
_geom_bond_atom_site_label_2
_geom_bond_site_symmetry_1
_geom_bond_site_symmetry_2
Al1 O1 1_555 1_555
Al2 O4 1_555 1_555
Al3 O5 1_555 1_555
Al4 O7 1_555 1_555
O1 P1 1_555 1_555
O2 H1 1_555 1_555
O3 P1 1_555 1_555
O4 P4 1_555 1_555
O5 P4 1_555 1_555
O6 P4 1_555 1_555
O7 P3 1_555 1_555
O8 Al1 1_555 1_555
O9 P1 1_555 1_555
O10 Al2 1_555 1_555
O11 Al3 1_555 1_555
O12 Al4 1_555 1_555
O13 P2 1_555 1_555
O14 P2 1_555 1_555
O15 P5 1_555 1_555
O16 P3 1_555 1_555
O17 P2 1_555 1_555
O18 P5 1_555 1_555
O19 P3 1_555 1_555
O20 P3 1_555 1_555
P1 O2 1_555 1_555
P2 O10 1_555 1_555
P4 O8 1_555 1_555
P5 O11 1_555 1_555
C1 H2 1_555 1_555
H3 C1 1_555 1_555
C2 C1 1_555 1_555
H4 C2 1_555 1_555
H5 C2 1_555 1_555
N1 C1 1_555 1_555
H6 N1 1_555 1_555
H7 N1 1_555 1_555
H8 N1 1_555 1_555
C3 H9 1_555 1_555
H10 C3 1_555 1_555
C4 C3 1_555 1_555
H11 C4 1_555 1_555
H12 C4 1_555 1_555
N2 C3 1_555 1_555
H13 N2 1_555 1_555
H14 N2 1_555 1_555
H15 N2 1_555 1_555
Al1A O13 1_555 1_555
Al2_2 O15 1_555 1_555
Al2A O6 1_555 1_555
Al3A O20 1_555 1_555
Al3A_2 O9 1_555 1_555
Al4_2 O14 1_555 1_555
Al4A O17 1_555 1_555
O6A Al2 1_555 1_555
O9A Al3 1_555 1_555
O13A Al1 1_555 1_555
O14_2 Al4 1_555 1_555
O15_2 Al2 1_555 1_555
O16A Al1 1_555 1_555
O17A Al4 1_555 1_555
O18A Al2 1_555 1_555
O19A Al4 1_555 1_555
O20A Al3 1_555 1_555
C1A H2A 1_555 1_555
H3A C1A 1_555 1_555
C2A C2 1_555 1_555
H4A C2A 1_555 1_555
H5A C2A 1_555 1_555
N1A C1A 1_555 1_555
H6A N1A 1_555 1_555
H7A N1A 1_555 1_555
H8A N1A 1_555 1_555
C3A H9A 1_555 1_555
H10A C3A 1_555 1_555
C4A C4 1_555 1_555
H11A C4A 1_555 1_555
H12A C4A 1_555 1_555
N2A C3A 1_555 1_555
H13A N2A 1_555 1_555
H14A N2A 1_555 1_555
H15A N2A 1_555 1_555
O12 P5 1_555 1_555
O16 Al1A 1_555 1_555
O18 Al2A 1_555 1_555
O19 Al4A 1_555 1_555
C1A C2A 1_555 1_555
C3A C4A 1_555 1_555

#END
