
#######################################################################
#
#                 Cambridge Crystallographic Data Centre
#                                CCDC 
#
#######################################################################
#
# If this CIF has been generated from an entry in the Cambridge 
# Structural Database, then it will include bibliographic, chemical, 
# crystal, experimental, refinement or atomic coordinate data resulting 
# from the CCDC's data processing and validation procedures.
#
#######################################################################

data_OCIVIH
_chemical_formula_moiety         '(C42 H36 Co3 N6 O33 Pr2)n'
_symmetry_cell_setting           hexagonal
_symmetry_space_group_name_H-M   'P 6 c c'
_symmetry_Int_Tables_number      184
_space_group_name_Hall           'P 6 -2c'
loop_
_symmetry_equiv_pos_site_id
_symmetry_equiv_pos_as_xyz
1 x,y,z
2 -y,x-y,z
3 -x+y,-x,z
4 -x,-y,z
5 y,-x+y,z
6 x-y,x,z
7 -y,-x,1/2+z
8 -x+y,y,1/2+z
9 x,x-y,1/2+z
10 y,x,1/2+z
11 x-y,-y,1/2+z
12 -x,-x+y,1/2+z
_cell_length_a                   15.493(2)
_cell_length_b                   15.493(2)
_cell_length_c                   15.199(3)
_cell_angle_alpha                90
_cell_angle_beta                 90
_cell_angle_gamma                120
_cell_volume                     3159.49
loop_
_atom_site_label
_atom_site_type_symbol
_atom_site_fract_x
_atom_site_fract_y
_atom_site_fract_z
Pr1 Pr 0.6667 0.3333 0.00251(19)
O1 O 0.5835(5) 0.1975(5) -0.1070(4)
C1 C 0.4238(8) 0.1569(7) -0.0525(6)
C2 C 0.3214(8) 0.1072(8) -0.0516(7)
H1 H 0.2875 0.0517 -0.0877
C3 C 0.2706(4) 0.1332(10) -0.0042(11)
H2 H 0.2016 0.1001 -0.0095
C4 C 0.3216(9) 0.2163(9) 0.0596(8)
H3 H 0.2881 0.2352 0.0989
C5 C 0.4865(6) 0.3538(7) 0.1142(6)
O2 O 0.5786(5) 0.3850(7) 0.1109(4)
O3 O 0.4439(5) 0.3850(6) 0.1569(4)
Co1 Co 0.5000 0.5000 0.2528(3)
O4 O 0.4466(6) 0.0558(5) -0.1548(4)
N1 N 0.4746(2) 0.2384(7) 0.0024(8)
O5 O 0.6440(3) 0.5120(3) 0.2559(6)
C6 C 0.4900(8) 0.1362(7) -0.1078(6)
C7 C 0.4249(7) 0.2629(7) 0.0541(6)
H4 H 0.631(4) 0.465(4) 0.312(4)
H5 H 0.647(5) 0.488(5) 0.228(4)
Pr1C Pr 0.3333 0.6667 0.00251(19)
Pr1H Pr 0.6667 0.3334 0.50251(19)
Pr1K Pr 0.3333 0.6666 0.50251(19)
O1A O 0.8025(5) 0.3860(7) -0.1070(4)
O1B O 0.6140(7) 0.4165(5) -0.1070(4)
O1C O 0.4165(5) 0.8025(5) -0.1070(4)
O1H O 0.5835(5) 0.3860(7) 0.3930(4)
O1K O 0.4165(5) 0.6140(7) 0.3930(4)
O1D O 0.1975(5) 0.6140(7) -0.1070(4)
O1E O 0.3860(7) 0.5835(5) -0.1070(4)
C1A C 0.8431(7) 0.2669(11) -0.0525(6)
C1B C 0.7331(11) 0.5762(8) -0.0525(6)
C1C C 0.5762(8) 0.8431(7) -0.0525(6)
C1H C 0.4238(8) 0.2669(11) 0.4475(6)
C1K C 0.5762(8) 0.7331(11) 0.4475(6)
C2A C 0.8928(8) 0.2142(11) -0.0516(7)
C2B C 0.7858(11) 0.6786(8) -0.0516(7)
C2C C 0.6786(8) 0.8928(8) -0.0516(7)
C2H C 0.3214(8) 0.2142(11) 0.4484(7)
C2K C 0.6786(8) 0.7858(11) 0.4484(7)
H1A H 0.9483 0.2358 -0.0877
H1B H 0.7642 0.7125 -0.0877
H1C H 0.7125 0.9483 -0.0877
H1H H 0.2875 0.2358 0.4123
H1K H 0.7125 0.7642 0.4123
C3A C 0.8668(10) 0.1374(11) -0.0042(11)
C3B C 0.8626(11) 0.7294(4) -0.0042(11)
C3C C 0.7294(4) 0.8668(10) -0.0042(11)
C3H C 0.2706(4) 0.1374(11) 0.4958(11)
C3K C 0.7294(4) 0.8626(11) 0.4958(11)
H2A H 0.8999 0.1015 -0.0095
H2B H 0.8985 0.7984 -0.0095
H2C H 0.7984 0.8999 -0.0095
H2H H 0.2016 0.1015 0.4905
H2K H 0.7984 0.8985 0.4905
C4A C 0.7837(9) 0.1053(13) 0.0596(8)
C4B C 0.8947(13) 0.6784(9) 0.0596(8)
C4C C 0.6784(9) 0.7837(9) 0.0596(8)
C4H C 0.3216(9) 0.1053(13) 0.5596(8)
C4K C 0.6784(9) 0.8947(13) 0.5596(8)
H3A H 0.7648 0.0529 0.0989
H3B H 0.9471 0.7119 0.0989
H3C H 0.7119 0.7648 0.0989
H3H H 0.2881 0.0529 0.5989
H3K H 0.7119 0.9471 0.5989
C5A C 0.6462(7) 0.1327(9) 0.1142(6)
C5B C 0.8673(9) 0.5135(6) 0.1142(6)
C5C C 0.5135(6) 0.6462(7) 0.1142(6)
C5H C 0.4865(6) 0.1327(9) 0.6142(6)
C5K C 0.5135(6) 0.8673(9) 0.6142(6)
O2A O 0.6150(7) 0.1936(9) 0.1109(4)
O2B O 0.8064(9) 0.4214(5) 0.1109(4)
O2C O 0.4214(5) 0.6150(7) 0.1109(4)
O2H O 0.5786(5) 0.1936(9) 0.6109(4)
O2K O 0.4214(5) 0.8064(9) 0.6109(4)
O2D O 0.3850(7) 0.8064(9) 0.1109(4)
O2E O 0.1936(9) 0.5786(5) 0.1109(4)
O3A O 0.6150(6) 0.0589(8) 0.1569(4)
O3B O 0.9411(8) 0.5561(5) 0.1569(4)
O3C O 0.5561(5) 0.6150(6) 0.1569(4)
O3H O 0.4439(5) 0.0589(8) 0.6569(4)
O3K O 0.5561(5) 0.9411(8) 0.6569(4)
O3D O 0.3850(6) -0.0589(8) 0.1569(4)
O3E O 1.0589(8) 0.4439(5) 0.1569(4)
Co1A Co 0.5000 0.0000 0.2528(3)
Co1B Co 1.0000 0.5000 0.2528(3)
Co1H Co 0.5000 0.0000 -0.2472(3)
Co1G Co 1.0000 0.5000 -0.2472(3)
Co1F Co 0.5000 0.5000 -0.2472(3)
Co1H_2 Co 0.5000 1.0000 -0.2472(3)
Co1H_3 Co 0.5000 0.0000 0.7528(3)
Co1H_4 Co 0.5000 1.0000 0.7528(3)
O4A O 0.9442(5) 0.3908(8) -0.1548(4)
O4B O 0.6092(8) 0.5534(6) -0.1548(4)
O4C O 0.5534(6) 0.9442(5) -0.1548(4)
O4H O 0.4466(6) 0.3908(8) 0.3452(4)
O4K O 0.5534(6) 0.6092(8) 0.3452(4)
O4G O 0.6092(8) 0.0558(5) 0.3452(4)
O4J O 0.3908(8) -0.0558(5) 0.3452(4)
O4F O 0.9442(5) 0.5534(6) 0.3452(4)
O4I O 1.0558(5) 0.4466(6) 0.3452(4)
N1A N 0.7616(7) 0.2362(7) 0.0024(8)
N1B N 0.7638(7) 0.5254(2) 0.0024(8)
N1C N 0.5254(2) 0.7616(7) 0.0024(8)
N1H N 0.4746(2) 0.2362(7) 0.5024(8)
N1K N 0.5254(2) 0.7638(7) 0.5024(8)
N1D N 0.2384(7) 0.7638(7) 0.0024(8)
N1E N 0.2362(7) 0.4746(2) 0.0024(8)
O5C O 0.3560(3) 0.4880(3) 0.2559(6)
O5A O 0.4880(3) 0.1320(4) 0.2559(6)
O5D O 0.5120(3) -0.1320(4) 0.2559(6)
O5B O 0.8680(4) 0.3560(3) 0.2559(6)
O5E O 1.1320(4) 0.6440(3) 0.2559(6)
C6A C 0.8638(7) 0.3538(11) -0.1078(6)
C6B C 0.6462(11) 0.5100(8) -0.1078(6)
C6C C 0.5100(8) 0.8638(7) -0.1078(6)
C6H C 0.4900(8) 0.3538(11) 0.3922(6)
C6K C 0.5100(8) 0.6462(11) 0.3922(6)
C7A C 0.7371(7) 0.1620(10) 0.0541(6)
C7B C 0.8380(10) 0.5751(7) 0.0541(6)
C7C C 0.5751(7) 0.7371(7) 0.0541(6)
C7H C 0.4249(7) 0.1620(10) 0.5541(6)
C7K C 0.5751(7) 0.8380(10) 0.5541(6)
H4C H 0.369(4) 0.535(4) 0.312(4)
H4A H 0.535(4) 0.166(6) 0.312(4)
H4D H 0.465(4) -0.166(6) 0.312(4)
H4B H 0.834(6) 0.369(4) 0.312(4)
H4E H 1.166(6) 0.631(4) 0.312(4)
H5C H 0.353(5) 0.512(5) 0.228(4)
H5A H 0.512(5) 0.159(7) 0.228(4)
H5D H 0.488(5) -0.159(7) 0.228(4)
H5B H 0.841(7) 0.353(5) 0.228(4)
H5E H 1.159(7) 0.647(5) 0.228(4)
O6 O 0.8060(12) 0.7118(10) 0.240(2)
O7 O 0.0000 0.0000 0.144(3)
O8 O 0.8674(15) 0.8991(16) 0.2853(13)
loop_
_geom_bond_atom_site_label_1
_geom_bond_atom_site_label_2
_geom_bond_site_symmetry_1
_geom_bond_site_symmetry_2
Pr1 O1 1_555 1_555
O1 C6 1_555 1_555
C1 C2 1_555 1_555
C2 H1 1_555 1_555
C3 C2 1_555 1_555
H2 C3 1_555 1_555
C4 C3 1_555 1_555
H3 C4 1_555 1_555
C5 O2 1_555 1_555
O2 Pr1 1_555 1_555
O3 C5 1_555 1_555
Co1 O3 1_555 1_555
O4 C6 1_555 1_555
N1 Pr1 1_555 1_555
O5 Co1 1_555 1_555
C6 C1 1_555 1_555
C7 C4 1_555 1_555
H4 O5 1_555 1_555
H5 O5 1_555 1_555
Pr1C O1C 1_555 1_555
Pr1H O1H 1_555 1_555
Pr1K O1K 1_555 1_555
O1A Pr1 1_555 1_555
O1B Pr1 1_555 1_555
O1C C6C 1_555 1_555
O1H C6H 1_555 1_555
O1K C6K 1_555 1_555
O1D Pr1C 1_555 1_555
O1E Pr1C 1_555 1_555
C1A C2A 1_555 1_555
C1B C2B 1_555 1_555
C1C C2C 1_555 1_555
C1H C2H 1_555 1_555
C1K C2K 1_555 1_555
C2A H1A 1_555 1_555
C2B H1B 1_555 1_555
C2C H1C 1_555 1_555
C2H H1H 1_555 1_555
C2K H1K 1_555 1_555
C3A C2A 1_555 1_555
C3B C2B 1_555 1_555
C3C C2C 1_555 1_555
C3H C2H 1_555 1_555
C3K C2K 1_555 1_555
H2A C3A 1_555 1_555
H2B C3B 1_555 1_555
H2C C3C 1_555 1_555
H2H C3H 1_555 1_555
H2K C3K 1_555 1_555
C4A C3A 1_555 1_555
C4B C3B 1_555 1_555
C4C C3C 1_555 1_555
C4H C3H 1_555 1_555
C4K C3K 1_555 1_555
H3A C4A 1_555 1_555
H3B C4B 1_555 1_555
H3C C4C 1_555 1_555
H3H C4H 1_555 1_555
H3K C4K 1_555 1_555
C5A O2A 1_555 1_555
C5B O2B 1_555 1_555
C5C O2C 1_555 1_555
C5H O2H 1_555 1_555
C5K O2K 1_555 1_555
O2A Pr1 1_555 1_555
O2B Pr1 1_555 1_555
O2C Pr1C 1_555 1_555
O2H Pr1H 1_555 1_555
O2K Pr1K 1_555 1_555
O2D Pr1C 1_555 1_555
O2E Pr1C 1_555 1_555
O3A C5A 1_555 1_555
O3B C5B 1_555 1_555
O3C Co1 1_555 1_555
O3H C5H 1_555 1_555
O3K C5K 1_555 1_555
O3D Co1A 1_555 1_555
O3E Co1B 1_555 1_555
Co1A O3A 1_555 1_555
Co1B O3B 1_555 1_555
Co1H O4 1_555 1_555
Co1G O4A 1_555 1_555
Co1F O4B 1_555 1_555
Co1H_2 O4C 1_555 1_555
Co1H_3 O3H 1_555 1_555
Co1H_4 O3K 1_555 1_555
O4A C6A 1_555 1_555
O4B C6B 1_555 1_555
O4C C6C 1_555 1_555
O4H Co1 1_555 1_555
O4K Co1 1_555 1_555
O4G Co1A 1_555 1_555
O4J Co1A 1_555 1_555
O4F Co1B 1_555 1_555
O4I Co1B 1_555 1_555
N1A Pr1 1_555 1_555
N1B Pr1 1_555 1_555
N1C Pr1C 1_555 1_555
N1H Pr1H 1_555 1_555
N1K Pr1K 1_555 1_555
N1D Pr1C 1_555 1_555
N1E Pr1C 1_555 1_555
O5C Co1 1_555 1_555
O5A Co1A 1_555 1_555
O5D Co1A 1_555 1_555
O5B Co1B 1_555 1_555
O5E Co1B 1_555 1_555
C6A O1A 1_555 1_555
C6B O1B 1_555 1_555
C6C C1C 1_555 1_555
C6H C1H 1_555 1_555
C6K C1K 1_555 1_555
C7A C4A 1_555 1_555
C7B C4B 1_555 1_555
C7C C4C 1_555 1_555
C7H C4H 1_555 1_555
C7K C4K 1_555 1_555
H4C O5C 1_555 1_555
H4A O5A 1_555 1_555
H4D O5D 1_555 1_555
H4B O5B 1_555 1_555
H4E O5E 1_555 1_555
H5C O5C 1_555 1_555
H5A O5A 1_555 1_555
H5D O5D 1_555 1_555
H5B O5B 1_555 1_555
H5E O5E 1_555 1_555
C1 N1 1_555 1_555
C5 C7 1_555 1_555
N1 C7 1_555 1_555
C1A N1A 1_555 1_555
C1A C6A 1_555 1_555
C1B N1B 1_555 1_555
C1B C6B 1_555 1_555
C1C N1C 1_555 1_555
C1H N1H 1_555 1_555
C1K N1K 1_555 1_555
C5A C7A 1_555 1_555
C5B C7B 1_555 1_555
C5C O3C 1_555 1_555
C5C C7C 1_555 1_555
C5H C7H 1_555 1_555
C5K C7K 1_555 1_555
O4H C6H 1_555 1_555
O4K C6K 1_555 1_555
N1A C7A 1_555 1_555
N1B C7B 1_555 1_555
N1C C7C 1_555 1_555
N1H C7H 1_555 1_555
N1K C7K 1_555 1_555

#END
