
#######################################################################
#
#                 Cambridge Crystallographic Data Centre
#                                CCDC 
#
#######################################################################
#
# If this CIF has been generated from an entry in the Cambridge 
# Structural Database, then it will include bibliographic, chemical, 
# crystal, experimental, refinement or atomic coordinate data resulting 
# from the CCDC's data processing and validation procedures.
#
#######################################################################

data_DOHNUL
_chemical_formula_moiety         '(C42 H46 N10 O23 Zn3)n'
_symmetry_cell_setting           monoclinic
_symmetry_space_group_name_H-M   'C 2/c'
_symmetry_Int_Tables_number      15
_space_group_name_Hall           '-C 2yc'
loop_
_symmetry_equiv_pos_site_id
_symmetry_equiv_pos_as_xyz
1 x,y,z
2 -x,y,1/2-z
3 1/2+x,1/2+y,z
4 1/2-x,1/2+y,1/2-z
5 -x,-y,-z
6 x,-y,1/2+z
7 1/2-x,1/2-y,-z
8 1/2+x,1/2-y,1/2+z
_cell_length_a                   10.586(2)
_cell_length_b                   28.043(8)
_cell_length_c                   17.448(3)
_cell_angle_alpha                90
_cell_angle_beta                 92.08(3)
_cell_angle_gamma                90
_cell_volume                     5176.26
loop_
_atom_site_label
_atom_site_type_symbol
_atom_site_fract_x
_atom_site_fract_y
_atom_site_fract_z
Zn1 Zn 0.0000 0.41412(3) 0.2500
O1 O 0.1490(3) 0.38654(14) 0.3056(2)
N1 N 0.0789(5) 0.45725(18) 0.1689(3)
C1 C 0.1112(5) 0.35087(19) 0.3439(3)
C2 C 0.0625(6) 0.4464(2) 0.0955(4)
C3 C 0.1622(7) 0.4914(3) 0.1867(4)
O2 O -0.0030(3) 0.34174(14) 0.3485(2)
C4 C 0.2106(5) 0.32429(19) 0.3910(3)
H1 H 0.0006 0.4241 0.0818
C5 C 0.1321(6) 0.4662(3) 0.0379(4)
C6 C 0.2349(8) 0.5137(3) 0.1330(4)
H2 H 0.1721 0.5007 0.2377
Zn2 Zn -0.13853(6) 0.28710(2) 0.37077(3)
C7 C 0.2324(5) 0.3396(2) 0.4657(3)
C8 C 0.2810(5) 0.2861(2) 0.3627(3)
H3 H 0.1184 0.4569 -0.0128
C9 C 0.2223(6) 0.5003(2) 0.0572(4)
H4 H 0.2917 0.5375 0.1480
O3 O -0.2771(4) 0.23181(18) 0.3875(3)
O4 O 0.1731(4) 0.28707(14) 0.2425(2)
O5 O 0.4959(4) 0.26435(16) 0.6071(2)
O6 O 0.5618(4) 0.22439(16) 0.5082(2)
N2 N 0.7316(4) 0.66010(18) -0.1001(3)
C10 C 0.4889(5) 0.2555(2) 0.5372(3)
H5 H 0.1859 0.3650 0.4843
C11 C 0.3231(5) 0.3175(2) 0.5132(3)
C12 C 0.3726(5) 0.2651(2) 0.4107(3)
C13 C 0.2593(6) 0.2670(2) 0.2830(3)
C14 C 0.3056(6) 0.5197(2) 0.0001(4)
H6 H -0.275(8) 0.212(3) 0.351(5)
H7 H -0.350(8) 0.244(3) 0.389(5)
C15 C 0.6904(6) 0.6531(2) -0.0296(3)
C16 C 0.6805(6) 0.6329(2) -0.1561(4)
C17 C 0.3934(5) 0.2803(2) 0.4858(3)
H8 H 0.3364 0.3279 0.5635
H9 H 0.4211 0.2402 0.3921
O7 O 0.3199(5) 0.23240(18) 0.2629(3)
N3 N 0.3083(6) 0.5037(2) -0.0722(3)
N4 N 0.3899(5) 0.55427(18) 0.0131(3)
C18 C 0.5990(6) 0.6209(2) -0.0128(4)
H10 H 0.7260 0.6712 0.0102
C19 C 0.5883(7) 0.6000(3) -0.1434(4)
H11 H 0.7087 0.6366 -0.2057
H12 H 0.2614 0.4816 -0.0921
N5 N 0.3993(5) 0.5290(2) -0.1089(3)
C20 C 0.4447(6) 0.5588(2) -0.0551(4)
C21 C 0.5449(5) 0.5933(2) -0.0705(3)
H13 H 0.5734 0.6176 0.0373
H14 H 0.5548 0.5820 -0.1840
O1A O -0.1490(3) 0.38654(14) 0.1944(2)
N1A N -0.0789(5) 0.45725(18) 0.3311(3)
C1A C -0.1112(5) 0.35087(19) 0.1561(3)
C2A C -0.0625(6) 0.4464(2) 0.4045(4)
C3A C -0.1622(7) 0.4914(3) 0.3133(4)
O2A O 0.0030(3) 0.34174(14) 0.1515(2)
C4A C -0.2106(5) 0.32429(19) 0.1090(3)
H1A H -0.0006 0.4241 0.4182
C5A C -0.1321(6) 0.4662(3) 0.4621(4)
C6A C -0.2349(8) 0.5137(3) 0.3670(4)
H2A H -0.1721 0.5007 0.2623
Zn2A Zn 0.13853(6) 0.28710(2) 0.12923(3)
C7A C -0.2324(5) 0.3396(2) 0.0343(3)
C8A C -0.2810(5) 0.2861(2) 0.1373(3)
H3A H -0.1184 0.4569 0.5128
C9A C -0.2223(6) 0.5003(2) 0.4428(4)
H4A H -0.2917 0.5375 0.3520
O3A O 0.2771(4) 0.23181(18) 0.1125(3)
O4A O -0.1731(4) 0.28707(14) 0.2575(2)
O5A O -0.4959(4) 0.26435(16) -0.1071(2)
O6A O -0.5618(4) 0.22439(16) -0.0082(2)
N2A N -0.7316(4) 0.66010(18) 0.6001(3)
C10A C -0.4889(5) 0.2555(2) -0.0372(3)
H5A H -0.1859 0.3650 0.0157
C11A C -0.3231(5) 0.3175(2) -0.0132(3)
C12A C -0.3726(5) 0.2651(2) 0.0893(3)
C13A C -0.2593(6) 0.2670(2) 0.2170(3)
C14A C -0.3056(6) 0.5197(2) 0.4999(4)
H6A H 0.275(8) 0.212(3) 0.149(5)
H7A H 0.350(8) 0.244(3) 0.111(5)
C15A C -0.6904(6) 0.6531(2) 0.5296(3)
C16A C -0.6805(6) 0.6329(2) 0.6561(4)
C17A C -0.3934(5) 0.2803(2) 0.0142(3)
H8A H -0.3364 0.3279 -0.0635
H9A H -0.4211 0.2402 0.1079
O7A O -0.3199(5) 0.23240(18) 0.2371(3)
N3A N -0.3083(6) 0.5037(2) 0.5722(3)
N4A N -0.3899(5) 0.55427(18) 0.4869(3)
C18A C -0.5990(6) 0.6209(2) 0.5128(4)
H10A H -0.7260 0.6712 0.4898
C19A C -0.5883(7) 0.6000(3) 0.6434(4)
H11A H -0.7087 0.6366 0.7057
H12A H -0.2614 0.4816 0.5921
N5A N -0.3993(5) 0.5290(2) 0.6089(3)
C20A C -0.4447(6) 0.5588(2) 0.5551(4)
C21A C -0.5449(5) 0.5933(2) 0.5705(3)
H13A H -0.5734 0.6176 0.4627
H14A H -0.5548 0.5820 0.6840
Zn2D Zn -0.86147(6) 0.71290(2) 0.62923(3)
Zn2E Zn 0.86147(6) 0.71290(2) -0.12923(3)
Zn2F Zn 0.63853(6) 0.21290(2) 0.62923(3)
Zn2G Zn -0.63853(6) 0.21290(2) -0.12923(3)
O5F O 0.0041(4) 0.23565(16) 0.3929(2)
O5G O -0.0041(4) 0.23565(16) 0.1071(2)
O6F O -0.0618(4) 0.27561(16) 0.4918(2)
O6G O 0.0618(4) 0.27561(16) 0.0082(2)
N2D N 0.2684(4) 0.33990(18) 0.1001(3)
N2E N -0.2684(4) 0.33990(18) 0.3999(3)
O8 O 0.0212(8) 0.3737(3) -0.0691(5)
H15 H 0.0349 0.3477 -0.0500
H16 H -0.0204 0.3688 -0.1094
O9 O 0.5000 0.5108(5) 0.2500
H17 H 0.4802 0.4961 0.2905
H17A H 0.5198 0.4961 0.2095
O10 O 0.1947(10) 0.5714(4) 0.3523(5)
H18 H 0.1223 0.5768 0.3700
H19 H 0.1868 0.5651 0.3048
O11 O 0.5000 0.6811(4) 0.2500
H20 H 0.4787 0.7028 0.2820
H20A H 0.5213 0.7028 0.2180
O12 O 0.323(5) 0.6101(18) 0.247(3)
O13 O 0.128(4) 0.6428(10) 0.1951(15)
O14 O 0.026(12) 0.662(3) 0.206(4)
O13A O -0.128(4) 0.6428(10) 0.3049(15)
O14A O -0.026(12) 0.662(3) 0.294(4)
loop_
_geom_bond_atom_site_label_1
_geom_bond_atom_site_label_2
_geom_bond_site_symmetry_1
_geom_bond_site_symmetry_2
Zn1 O1 1_555 1_555
O1 C1 1_555 1_555
N1 Zn1 1_555 1_555
C1 O2 1_555 1_555
C2 N1 1_555 1_555
C3 N1 1_555 1_555
O2 Zn2 1_555 1_555
C4 C1 1_555 1_555
H1 C2 1_555 1_555
C5 C2 1_555 1_555
C6 C3 1_555 1_555
H2 C3 1_555 1_555
Zn2 O3 1_555 1_555
C7 C4 1_555 1_555
C8 C4 1_555 1_555
H3 C5 1_555 1_555
C9 C5 1_555 1_555
H4 C6 1_555 1_555
O3 H6 1_555 1_555
O4 C13 1_555 1_555
O5 C10 1_555 1_555
O6 C10 1_555 1_555
N2 C15 1_555 1_555
C10 C17 1_555 1_555
H5 C7 1_555 1_555
C11 C7 1_555 1_555
C12 C8 1_555 1_555
C13 C8 1_555 1_555
C14 C9 1_555 1_555
H7 O3 1_555 1_555
C15 C18 1_555 1_555
C16 N2 1_555 1_555
C17 C11 1_555 1_555
H8 C11 1_555 1_555
H9 C12 1_555 1_555
O7 C13 1_555 1_555
N3 C14 1_555 1_555
N4 C14 1_555 1_555
C18 C21 1_555 1_555
H10 C15 1_555 1_555
C19 C16 1_555 1_555
H11 C16 1_555 1_555
H12 N3 1_555 1_555
N5 N3 1_555 1_555
C20 N4 1_555 1_555
C21 C19 1_555 1_555
H13 C18 1_555 1_555
H14 C19 1_555 1_555
O8 H15 1_555 1_555
H16 O8 1_555 1_555
O9 H17 1_555 1_555
O10 H18 1_555 1_555
H19 O10 1_555 1_555
O11 H20 1_555 1_555
O1A Zn1 1_555 1_555
N1A Zn1 1_555 1_555
C1A O1A 1_555 1_555
C2A N1A 1_555 1_555
C3A N1A 1_555 1_555
O2A C1A 1_555 1_555
C4A C1A 1_555 1_555
H1A C2A 1_555 1_555
C5A C2A 1_555 1_555
C6A C3A 1_555 1_555
H2A C3A 1_555 1_555
Zn2A O4 1_555 1_555
C7A C4A 1_555 1_555
C8A C4A 1_555 1_555
H3A C5A 1_555 1_555
C9A C5A 1_555 1_555
H4A C6A 1_555 1_555
O3A Zn2A 1_555 1_555
O4A Zn2 1_555 1_555
O5A C10A 1_555 1_555
O6A C10A 1_555 1_555
N2A C15A 1_555 1_555
C10A C17A 1_555 1_555
H5A C7A 1_555 1_555
C11A C7A 1_555 1_555
C12A C8A 1_555 1_555
C13A C8A 1_555 1_555
C14A C9A 1_555 1_555
H6A O3A 1_555 1_555
H7A O3A 1_555 1_555
C15A C18A 1_555 1_555
C16A N2A 1_555 1_555
C17A C11A 1_555 1_555
H8A C11A 1_555 1_555
H9A C12A 1_555 1_555
O7A C13A 1_555 1_555
N3A C14A 1_555 1_555
N4A C14A 1_555 1_555
C18A C21A 1_555 1_555
H10A C15A 1_555 1_555
C19A C16A 1_555 1_555
H11A C16A 1_555 1_555
H12A N3A 1_555 1_555
N5A N3A 1_555 1_555
C20A N4A 1_555 1_555
C21A C19A 1_555 1_555
H13A C18A 1_555 1_555
H14A C19A 1_555 1_555
Zn2D N2A 1_555 1_555
Zn2E N2 1_555 1_555
Zn2F O5 1_555 1_555
Zn2G O5A 1_555 1_555
O5F Zn2 1_555 1_555
O5G Zn2A 1_555 1_555
O6F Zn2 1_555 1_555
O6G Zn2A 1_555 1_555
N2D Zn2A 1_555 1_555
N2E Zn2 1_555 1_555
H17A O9 1_555 1_555
H20A O11 1_555 1_555
C6 C9 1_555 1_555
O6 Zn2F 1_555 1_555
C12 C17 1_555 1_555
N5 C20 1_555 1_555
C20 C21 1_555 1_555
O2A Zn2A 1_555 1_555
C6A C9A 1_555 1_555
O4A C13A 1_555 1_555
O6A Zn2G 1_555 1_555
C12A C17A 1_555 1_555
N5A C20A 1_555 1_555
C20A C21A 1_555 1_555

#END
