
#######################################################################
#
#                 Cambridge Crystallographic Data Centre
#                                CCDC 
#
#######################################################################
#
# If this CIF has been generated from an entry in the Cambridge 
# Structural Database, then it will include bibliographic, chemical, 
# crystal, experimental, refinement or atomic coordinate data resulting 
# from the CCDC's data processing and validation procedures.
#
#######################################################################

data_IGOYIN
_chemical_formula_moiety         '(C16 H90 Co4 N4 Na6 O103 P8 W12)n'
_symmetry_cell_setting           triclinic
_symmetry_space_group_name_H-M   'P -1'
_symmetry_Int_Tables_number      2
_space_group_name_Hall           '-P 1'
loop_
_symmetry_equiv_pos_site_id
_symmetry_equiv_pos_as_xyz
1 x,y,z
2 -x,-y,-z
_cell_length_a                   13.0887(11)
_cell_length_b                   14.9813(14)
_cell_length_c                   17.1216(16)
_cell_angle_alpha                69.184(5)
_cell_angle_beta                 70.767(5)
_cell_angle_gamma                86.494(5)
_cell_volume                     2957.06
loop_
_atom_site_label
_atom_site_type_symbol
_atom_site_fract_x
_atom_site_fract_y
_atom_site_fract_z
W1 W 1.35073(3) 0.18251(3) 0.23006(3)
W2 W 1.12325(3) 0.33003(3) 0.22468(3)
W3 W 0.87266(3) 0.22846(3) 0.28804(3)
W4 W 0.83475(3) -0.02799(3) 0.34943(2)
W5 W 1.31343(3) -0.05636(3) 0.29592(3)
W6 W 1.04809(3) -0.16509(3) 0.35260(2)
Co1 Co 1.10302(9) -0.06675(9) 0.50212(8)
Co2 Co 1.0675(2) 0.0637(2) 0.00714(18)
Na1 Na 1.1467(3) 0.1793(3) 0.4514(2)
Na2 Na 1.4213(13) -0.2961(12) 0.3684(10)
Na3 Na 1.3518(8) 0.2327(8) -0.1154(6)
P1 P 0.9472(2) -0.1115(2) 0.18857(17)
P2 P 1.4112(2) 0.0710(2) 0.08029(19)
P3 P 1.0097(2) 0.3356(2) 0.07514(18)
P4 P 1.08484(18) 0.07847(18) 0.31347(15)
O1 O 0.8936(5) -0.1500(5) 0.3765(4)
O2 O 1.2561(5) 0.2728(5) 0.1865(5)
O3 O 0.9657(5) 0.3389(5) 0.2524(4)
O4 O 1.0588(5) 0.0610(4) 0.4131(4)
O5 O 1.2488(5) -0.0682(5) 0.4084(4)
O6 O 1.4045(5) 0.0551(5) 0.2595(5)
O7 O 0.8607(5) 0.1839(5) 0.4019(4)
O8 O 0.8324(5) -0.0167(5) 0.4500(4)
O9 O 0.7523(5) 0.2806(5) 0.2900(4)
O10 O 0.8386(5) 0.1053(4) 0.2874(4)
O11 O 0.8856(5) -0.0334(5) 0.2226(4)
O12 O 0.9251(5) 0.2551(5) 0.1509(4)
O13 O 1.0516(6) -0.2877(5) 0.3793(5)
O14 O 0.8726(6) -0.2010(5) 0.2218(5)
O15 O 1.0429(5) -0.1351(5) 0.2250(4)
O16 O 0.9933(6) -0.0676(5) 0.0881(4)
O17 O 1.1964(5) -0.1239(5) 0.2913(4)
O18 O 1.1178(5) 0.3009(5) 0.3332(5)
O19 O 0.7015(5) -0.0629(5) 0.3723(5)
O20 O 1.0231(5) -0.0000(4) 0.3043(4)
O21 O 1.3843(5) 0.1604(5) 0.1040(4)
O22 O 0.9566(6) 0.4331(5) 0.0674(5)
O23 O 1.1127(5) 0.3342(5) 0.1013(5)
O24 O 1.1643(6) 0.4517(5) 0.1782(5)
O25 O 1.2070(5) 0.0737(5) 0.2678(4)
O26 O 1.4094(5) -0.1409(6) 0.3037(5)
O27 O 1.3493(6) -0.0182(6) 0.1578(5)
O28 O 1.3021(5) 0.1805(6) 0.3378(5)
O29 O 1.4717(6) 0.2520(6) 0.1861(5)
O30 O 1.5200(8) -0.2382(8) 0.4403(7)
O31 O 1.0491(5) 0.1762(5) 0.2653(4)
O32 O 1.5368(6) 0.0613(6) 0.0642(5)
O33 O 1.2348(7) -0.2978(6) 0.4804(6)
O34 O 1.0440(5) -0.1519(5) 0.4539(4)
O35 O 1.0404(6) 0.3205(5) -0.0126(5)
O36 O 1.3872(6) 0.0781(6) -0.0023(5)
O37 O 1.2397(6) 0.3016(6) 0.4651(6)
O38 O 1.2132(13) -0.0016(12) -0.0548(11)
O39 O 1.0954(15) 0.0992(13) 0.1114(12)
O40 O 0.9231(11) 0.1208(10) 0.0741(10)
O44 O 1.1680(8) 0.2048(7) -0.0817(7)
O45 O 1.357(2) 0.1370(18) -0.2121(16)
O46 O 1.5391(15) 0.2301(14) -0.1449(12)
O47 O 1.3100(9) 0.3121(8) -0.0118(7)
O54 O 1.3019(14) -0.3313(12) 0.3033(11)
O55 O 1.447(4) -0.472(4) 0.433(3)
C1 C 1.2132(8) -0.3822(8) 0.5539(8)
H1 H 1.2567 -0.4316 0.5375
H2 H 1.2336 -0.3718 0.5997
C2 C 1.0955(8) -0.4158(8) 0.5898(7)
H3 H 1.0838 -0.4730 0.6421
H4 H 1.0526 -0.3669 0.6078
C3 C 1.1128(8) -0.5155(7) 0.4961(7)
H5 H 1.1897 -0.4973 0.4675
H6 H 1.1037 -0.5733 0.5475
C4 C 0.9339(8) -0.4657(8) 0.5685(7)
H7 H 0.9222 -0.5228 0.6209
H8 H 0.8968 -0.4147 0.5867
C5 C 1.4181(10) -0.0598(10) 0.5005(10)
H9 H 1.3640 -0.0657 0.5570
H10 H 1.3901 -0.0951 0.4733
C6 C 1.4646(12) -0.2608(12) 0.5348(11)
H11 H 1.4710 -0.3279 0.5662
H12 H 1.3881 -0.2504 0.5451
C7 C 1.5086(11) -0.2033(11) 0.5693(10)
H13 H 1.4617 -0.2122 0.6290
H14 H 1.5792 -0.2247 0.5721
C8 C 1.5601(9) -0.0377(11) 0.5549(9)
H15 H 1.6256 -0.0630 0.5669
H16 H 1.5055 -0.0424 0.6109
N1 N 1.5199(8) -0.0992(8) 0.5139(8)
N2 N 1.0555(6) -0.4375(6) 0.5241(5)
W1A W 0.64927(3) -0.18251(3) 0.76994(3)
W2A W 0.87675(3) -0.33003(3) 0.77532(3)
W3A W 1.12734(3) -0.22846(3) 0.71196(3)
W4A W 1.16525(3) 0.02799(3) 0.65057(2)
W4A_2 W 1.16525(3) 0.02799(3) -0.34943(2)
W5A W 0.68657(3) 0.05636(3) 0.70408(3)
W6A W 0.95191(3) 0.16509(3) 0.64740(2)
W6A_2 W 0.95191(3) 0.16509(3) -0.35260(2)
Co1A Co 0.89698(9) 0.06675(9) 0.49788(8)
Co2A Co 0.9325(2) -0.0637(2) -0.00714(18)
Na1A Na 0.8533(3) -0.1793(3) 0.5486(2)
Na2A Na 0.5787(13) 0.2961(12) 0.6316(10)
Na2A_2 Na 1.5787(13) 0.2961(12) 0.6316(10)
Na2A_3 Na 0.5787(13) -0.7039(12) 0.6316(10)
Na3A Na 0.6482(8) -0.2327(8) 1.1154(6)
Na3A_2 Na 0.6482(8) -0.2327(8) 0.1154(6)
P1A P 1.0528(2) 0.1115(2) -0.18857(17)
P2A P 0.5888(2) -0.0710(2) 0.91971(19)
P3A P 0.9903(2) -0.3356(2) 0.92486(18)
P4A P 0.91516(18) -0.07847(18) 0.68653(15)
O1A O 1.1064(5) 0.1500(5) 0.6235(4)
O2A O 0.7439(5) -0.2728(5) 0.8135(5)
O3A O 1.0343(5) -0.3389(5) 0.7476(4)
O4A O 0.9412(5) -0.0610(4) 0.5869(4)
O5A O 0.7512(5) 0.0682(5) 0.5916(4)
O6A O 0.5955(5) -0.0551(5) 0.7405(5)
O7A O 1.1393(5) -0.1839(5) 0.5981(4)
O8A O 1.1676(5) 0.0167(5) 0.5500(4)
O9A O 1.2477(5) -0.2806(5) 0.7100(4)
O10A O 1.1614(5) -0.1053(4) 0.7126(4)
O11A O 1.1144(5) 0.0334(5) -0.2226(4)
O11A_2 O 1.1144(5) 0.0334(5) 0.7774(4)
O12A O 1.0749(5) -0.2551(5) 0.8491(4)
O13A O 0.9484(6) 0.2877(5) 0.6207(5)
O14A O 1.1274(6) 0.2010(5) -0.2218(5)
O15A O 0.9571(5) 0.1351(5) -0.2250(4)
O15A_2 O 0.9571(5) 0.1351(5) 0.7750(4)
O16A O 1.0067(6) 0.0676(5) -0.0881(4)
O17A O 0.8036(5) 0.1239(5) 0.7087(4)
O18A O 0.8822(5) -0.3009(5) 0.6668(5)
O19A O 1.2985(5) 0.0629(5) 0.6277(5)
O20A O 0.9769(5) 0.0000(4) 0.6957(4)
O21A O 0.6157(5) -0.1604(5) 0.8960(4)
O22A O 1.0434(6) -0.4331(5) 0.9326(5)
O23A O 0.8873(5) -0.3342(5) 0.8987(5)
O24A O 0.8357(6) -0.4517(5) 0.8218(5)
O25A O 0.7930(5) -0.0737(5) 0.7322(4)
O26A O 0.5906(5) 0.1409(6) 0.6963(5)
O27A O 0.6507(6) 0.0182(6) 0.8422(5)
O28A O 0.6979(5) -0.1805(6) 0.6622(5)
O29A O 0.5283(6) -0.2520(6) 0.8139(5)
O30A O 1.4800(8) 0.2382(8) 0.5597(7)
O30A_2 O 0.4800(8) 0.2382(8) 0.5597(7)
O31A O 0.9509(5) -0.1762(5) 0.7347(4)
O32A O 0.4632(6) -0.0613(6) 0.9358(5)
O33A O 0.7652(7) -0.7022(6) 0.5196(6)
O33A_2 O 0.7652(7) 0.2978(6) 0.5196(6)
O34A O 0.9560(5) 0.1519(5) 0.5461(4)
O35A O 0.9596(6) -0.3205(5) 1.0126(5)
O36A O 0.6128(6) -0.0781(6) 1.0023(5)
O37A O 0.7603(6) -0.3016(6) 0.5349(6)
O38A O 0.7868(13) 0.0016(12) 0.0548(11)
O39A O 0.9046(15) -0.0992(13) -0.1114(12)
O40A O 1.0769(11) -0.1208(10) -0.0741(10)
O44A O 0.8320(8) -0.2048(7) 0.0817(7)
O44A_2 O 0.8320(8) -0.2048(7) 1.0817(7)
O45A O 0.643(2) -0.1370(18) 1.2121(16)
O46A O 0.4609(15) -0.2301(14) 1.1449(12)
O47A O 0.6900(9) -0.3121(8) 1.0118(7)
O54A O 0.6981(14) 0.3313(12) 0.6967(11)
O55A O 0.553(4) 0.472(4) 0.567(3)
C1A C 0.7868(8) -0.6178(8) 0.4461(8)
H1A H 0.7433 -0.5684 0.4625
H2A H 0.7664 -0.6282 0.4003
C2A C 0.9045(8) -0.5842(8) 0.4102(7)
H3A H 0.9162 -0.5270 0.3579
H4A H 0.9474 -0.6331 0.3922
C3A C 0.8872(8) -0.4845(7) 0.5039(7)
H5A H 0.8103 -0.5027 0.5325
H6A H 0.8963 -0.4267 0.4525
C4A C 1.0661(8) -0.5343(8) 0.4315(7)
H7A H 1.0778 -0.4772 0.3791
H8A H 1.1032 -0.5853 0.4133
C5A C 1.5819(10) 0.0598(10) 0.4995(10)
H9A H 1.6360 0.0657 0.4430
H10A H 1.6099 0.0951 0.5267
C6A C 1.5354(12) 0.2608(12) 0.4652(11)
H11A H 1.5290 0.3279 0.4338
H12A H 1.6119 0.2504 0.4549
C7A C 1.4914(11) 0.2033(11) 0.4307(10)
H13A H 1.5383 0.2122 0.3710
H14A H 1.4208 0.2247 0.4279
C8A C 1.4399(9) 0.0377(11) 0.4451(9)
H15A H 1.3744 0.0630 0.4331
H16A H 1.4945 0.0424 0.3891
N1A N 1.4801(8) 0.0992(8) 0.4861(8)
N2A N 0.9445(6) -0.5625(6) 0.4759(5)
O48 O 1.403(3) 0.465(2) 0.054(2)
O49 O 0.8035(17) 0.3743(15) 0.7917(13)
O50 O 0.7820(19) 0.4265(17) 0.9993(15)
O51 O 0.2717(9) 0.3010(8) 0.6199(7)
O52 O 0.8985(9) 0.5419(8) 0.1749(7)
O53 O 0.9881(9) 0.6319(8) 0.2527(7)
O56 O 0.596(2) 0.3904(19) 0.2268(17)
O57 O 0.7541(13) 0.1446(12) 0.8940(11)
O58 O 0.604(2) 0.5634(17) 0.6738(16)
O61 O 0.5826(15) 0.2976(13) 0.9848(12)
O62 O 0.7519(9) 0.2690(8) 0.9566(7)
loop_
_geom_bond_atom_site_label_1
_geom_bond_atom_site_label_2
_geom_bond_site_symmetry_1
_geom_bond_site_symmetry_2
W1 O2 1_555 1_555
W2 O2 1_555 1_555
W3 O3 1_555 1_555
W4 O1 1_555 1_555
W5 O5 1_555 1_555
W6 O1 1_555 1_555
Co1 O4 1_555 1_555
Co2 O16 1_555 1_555
Na1 O4 1_555 1_555
Na2 O26 1_555 1_555
Na3 O36 1_555 1_555
P1 O11 1_555 1_555
P2 O21 1_555 1_555
P3 O12 1_555 1_555
P4 O4 1_555 1_555
O1 Na1A 1_555 1_555
O3 W2 1_555 1_555
O4 Co1A 1_555 1_555
O5 Co1 1_555 1_555
O6 W1 1_555 1_555
O7 W3 1_555 1_555
O8 W4 1_555 1_555
O9 W3 1_555 1_555
O10 W3 1_555 1_555
O11 W4 1_555 1_555
O12 W3 1_555 1_555
O13 W6 1_555 1_555
O14 P1 1_555 1_555
O15 W6 1_555 1_555
O16 P1 1_555 1_555
O17 W5 1_555 1_555
O18 W2 1_555 1_555
O19 W4 1_555 1_555
O20 W4 1_555 1_555
O21 W1 1_555 1_555
O22 P3 1_555 1_555
O23 W2 1_555 1_555
O24 W2 1_555 1_555
O25 W1 1_555 1_555
O26 W5 1_555 1_555
O27 W5 1_555 1_555
O28 W1 1_555 1_555
O29 W1 1_555 1_555
O30 Na2 1_555 1_555
O31 W2 1_555 1_555
O32 P2 1_555 1_555
O33 Na2 1_555 1_555
O34 W6 1_555 1_555
O35 P3 1_555 1_555
O36 P2 1_555 1_555
O37 Na1 1_555 1_555
O38 Co2 1_555 1_555
O39 Co2 1_555 1_555
O40 Co2 1_555 1_555
O44 Co2 1_555 1_555
O45 Na3 1_555 1_555
O46 Na3 1_555 1_555
O47 Na3 1_555 1_555
O54 Na2 1_555 1_555
O55 Na2 1_555 1_555
C1 O33 1_555 1_555
H1 C1 1_555 1_555
H2 C1 1_555 1_555
C2 C1 1_555 1_555
H3 C2 1_555 1_555
H4 C2 1_555 1_555
C3 H5 1_555 1_555
H6 C3 1_555 1_555
C4 H7 1_555 1_555
H8 C4 1_555 1_555
C5 H9 1_555 1_555
H10 C5 1_555 1_555
C6 O30 1_555 1_555
H11 C6 1_555 1_555
H12 C6 1_555 1_555
C7 C6 1_555 1_555
H13 C7 1_555 1_555
H14 C7 1_555 1_555
C8 H15 1_555 1_555
H16 C8 1_555 1_555
N1 C5 1_555 1_555
N2 C2 1_555 1_555
W1A O2A 1_555 1_555
W2A O2A 1_555 1_555
W3A O3A 1_555 1_555
W4A O1A 1_555 1_555
W4A_2 O11A 1_555 1_555
W5A O5A 1_555 1_555
W6A O1A 1_555 1_555
W6A_2 O15A 1_555 1_555
Co1A O7 1_555 1_555
Co2A O16 1_555 1_555
Na1A O8 1_555 1_555
Na2A O26A 1_555 1_555
Na2A_2 O30A 1_555 1_555
Na2A_3 O33A 1_555 1_555
Na3A O36A 1_555 1_555
Na3A_2 O44A 1_555 1_555
P1A O11A 1_555 1_555
P2A O21A 1_555 1_555
P3A O12A 1_555 1_555
P4A O4A 1_555 1_555
O1A Na1 1_555 1_555
O3A W2A 1_555 1_555
O4A Co1 1_555 1_555
O5A Co1A 1_555 1_555
O6A W1A 1_555 1_555
O7A Co1 1_555 1_555
O8A Co1 1_555 1_555
O9A W3A 1_555 1_555
O10A W3A 1_555 1_555
O11A_2 W4A 1_555 1_555
O12A W3A 1_555 1_555
O13A W6A 1_555 1_555
O14A P1A 1_555 1_555
O15A P1A 1_555 1_555
O15A_2 W6A 1_555 1_555
O16A Co2 1_555 1_555
O17A W5A 1_555 1_555
O18A W2A 1_555 1_555
O19A W4A 1_555 1_555
O20A W4A 1_555 1_555
O21A W1A 1_555 1_555
O22A P3A 1_555 1_555
O23A W2A 1_555 1_555
O24A W2A 1_555 1_555
O25A W1A 1_555 1_555
O26A W5A 1_555 1_555
O27A W5A 1_555 1_555
O28A W1A 1_555 1_555
O29A W1A 1_555 1_555
O30A C6A 1_555 1_555
O30A_2 Na2A 1_555 1_555
O31A W2A 1_555 1_555
O32A P2A 1_555 1_555
O33A C1A 1_555 1_555
O33A_2 Na2A 1_555 1_555
O34A Na1 1_555 1_555
O35A P3A 1_555 1_555
O36A P2A 1_555 1_555
O37A Na1A 1_555 1_555
O38A Co2A 1_555 1_555
O39A Co2A 1_555 1_555
O40A Co2A 1_555 1_555
O44A Co2A 1_555 1_555
O44A_2 Na3A 1_555 1_555
O45A Na3A 1_555 1_555
O46A Na3A 1_555 1_555
O47A Na3A 1_555 1_555
O54A Na2A 1_555 1_555
O55A Na2A 1_555 1_555
C1A H1A 1_555 1_555
H2A C1A 1_555 1_555
C2A C1A 1_555 1_555
H3A C2A 1_555 1_555
H4A C2A 1_555 1_555
C3A C4 1_555 1_555
H5A C3A 1_555 1_555
H6A C3A 1_555 1_555
C4A C3 1_555 1_555
H7A C4A 1_555 1_555
H8A C4A 1_555 1_555
C5A C8 1_555 1_555
H9A C5A 1_555 1_555
H10A C5A 1_555 1_555
C6A H11A 1_555 1_555
H12A C6A 1_555 1_555
C7A C6A 1_555 1_555
H13A C7A 1_555 1_555
H14A C7A 1_555 1_555
C8A C5 1_555 1_555
H15A C8A 1_555 1_555
H16A C8A 1_555 1_555
N1A C5A 1_555 1_555
N2A C2A 1_555 1_555
W3 O31 1_555 1_555
W4 O10 1_555 1_555
W5 O6 1_555 1_555
W5 O25 1_555 1_555
W6 O17 1_555 1_555
W6 O20 1_555 1_555
Co1 O34 1_555 1_555
Na1 O18 1_555 1_555
Na1 O28 1_555 1_555
Na1 O8A 1_555 1_555
Na3 O44 1_555 1_555
P1 O15 1_555 1_555
P2 O27 1_555 1_555
P3 O23 1_555 1_555
P4 O20 1_555 1_555
P4 O25 1_555 1_555
P4 O31 1_555 1_555
O8 Co1A 1_555 1_555
O34 Na1A 1_555 1_555
C3 N2 1_555 1_555
C4 N2 1_555 1_555
C7 N1 1_555 1_555
C8 N1 1_555 1_555
W3A O7A 1_555 1_555
W3A O31A 1_555 1_555
W4A O8A 1_555 1_555
W4A O10A 1_555 1_555
W5A O6A 1_555 1_555
W5A O25A 1_555 1_555
W6A O17A 1_555 1_555
W6A O20A 1_555 1_555
W6A O34A 1_555 1_555
Co1A O4A 1_555 1_555
Co1A O34A 1_555 1_555
Co2A O16A 1_555 1_555
Na1A O4A 1_555 1_555
Na1A O18A 1_555 1_555
Na1A O28A 1_555 1_555
P1A O16A 1_555 1_555
P2A O27A 1_555 1_555
P3A O23A 1_555 1_555
P4A O20A 1_555 1_555
P4A O25A 1_555 1_555
P4A O31A 1_555 1_555
C3A N2A 1_555 1_555
C4A N2A 1_555 1_555
C7A N1A 1_555 1_555
C8A N1A 1_555 1_555

#END
