
#######################################################################
#
#                 Cambridge Crystallographic Data Centre
#                                CCDC 
#
#######################################################################
#
# If this CIF has been generated from an entry in the Cambridge 
# Structural Database, then it will include bibliographic, chemical, 
# crystal, experimental, refinement or atomic coordinate data resulting 
# from the CCDC's data processing and validation procedures.
#
#######################################################################

data_BENNEQ
_chemical_formula_moiety         'C198 H234 B6 Co6 N18 O47 Zn10'
_symmetry_cell_setting           rhombohedral
_symmetry_space_group_name_H-M   'R -3 m'
_symmetry_Int_Tables_number      166
_space_group_name_Hall           '-R 3 2"'
loop_
_symmetry_equiv_pos_site_id
_symmetry_equiv_pos_as_xyz
1 x,y,z
2 -y,x-y,z
3 -x+y,-x,z
4 y,x,-z
5 x-y,-y,-z
6 -x,-x+y,-z
7 2/3+x,1/3+y,1/3+z
8 2/3-y,1/3+x-y,1/3+z
9 2/3-x+y,1/3-x,1/3+z
10 2/3+y,1/3+x,1/3-z
11 2/3+x-y,1/3-y,1/3-z
12 2/3-x,1/3-x+y,1/3-z
13 1/3+x,2/3+y,2/3+z
14 1/3-y,2/3+x-y,2/3+z
15 1/3-x+y,2/3-x,2/3+z
16 1/3+y,2/3+x,2/3-z
17 1/3+x-y,2/3-y,2/3-z
18 1/3-x,2/3-x+y,2/3-z
19 -x,-y,-z
20 y,-x+y,-z
21 x-y,x,-z
22 -y,-x,z
23 -x+y,y,z
24 x,x-y,z
25 1/3-x,2/3-y,2/3-z
26 1/3+y,2/3-x+y,2/3-z
27 1/3+x-y,2/3+x,2/3-z
28 1/3-y,2/3-x,2/3+z
29 1/3-x+y,2/3+y,2/3+z
30 1/3+x,2/3+x-y,2/3+z
31 2/3-x,1/3-y,1/3-z
32 2/3+y,1/3-x+y,1/3-z
33 2/3+x-y,1/3+x,1/3-z
34 2/3-y,1/3-x,1/3+z
35 2/3-x+y,1/3+y,1/3+z
36 2/3+x,1/3+x-y,1/3+z
_cell_length_a                   31.837(8)
_cell_length_b                   31.837(8)
_cell_length_c                   62.41(2)
_cell_angle_alpha                90
_cell_angle_beta                 90
_cell_angle_gamma                120
_cell_volume                     54783.4
loop_
_atom_site_label
_atom_site_type_symbol
_atom_site_fract_x
_atom_site_fract_y
_atom_site_fract_z
Co1 Co 0.29622(17) 0.14811(8) 0.26527(7)
Co2 Co 0.35913(15) 0.17957(7) 0.30373(6)
Zn1 Zn 0.6667 0.3333 0.41591(10)
Zn2 Zn 0.59976(13) 0.29988(7) 0.45668(5)
C1 C 0.4583(7) 0.2244(9) 0.3637(3)
C2 C 0.4449(7) 0.2334(13) 0.3838(3)
H1 H 0.4131 0.2284 0.3856
C3 C 0.4765(8) 0.2494(12) 0.4010(3)
H2 H 0.4655 0.2537 0.4146
C4 C 0.5234(8) 0.2592(9) 0.3989(3)
C5 C 0.5373(8) 0.2477(11) 0.3794(4)
H3 H 0.5688 0.2520 0.3778
C6 C 0.5046(8) 0.2300(11) 0.3625(3)
H4 H 0.5141 0.2214 0.3496
B1 B 0.4242(9) 0.2121(4) 0.3432(3)
O1 O 0.3747(7) 0.1874(4) 0.3512(3)
N1 N 0.3382(7) 0.1691(4) 0.3362(4)
C7 C 0.2963(7) 0.1482(4) 0.3447(4)
H5 H 0.2948 0.1474 0.3599
C8 C 0.2508(6) 0.1254(3) 0.3331(3)
C9 C 0.2473(7) 0.1236(4) 0.3101(3)
C10 C 0.1997(7) 0.0998(4) 0.3007(3)
C11 C 0.1589(7) 0.0794(4) 0.3142(3)
H6 H 0.1275 0.0638 0.3079
C12 C 0.1627(7) 0.0813(3) 0.3363(3)
C13 C 0.2084(7) 0.1042(4) 0.3456(3)
H7 H 0.2111 0.1055 0.3608
C14 C 0.1900(9) 0.0950(4) 0.2779(3)
H8 H 0.1571 0.0785 0.2735
N2 N 0.2222(9) 0.1111(4) 0.2635(3)
O2 O 0.1991(8) 0.0995(4) 0.2435(3)
B2 B 0.2304(11) 0.1152(5) 0.2253(4)
O3 O 0.4366(5) 0.1803(6) 0.3315(2)
N3 N 0.4086(6) 0.1586(6) 0.3127(2)
C15 C 0.4185(7) 0.1272(6) 0.3055(3)
H9 H 0.4419 0.1227 0.3131
C16 C 0.3966(6) 0.0975(6) 0.2866(2)
C17 C 0.3630(6) 0.1033(6) 0.2733(3)
C18 C 0.3441(6) 0.0720(7) 0.2550(3)
C19 C 0.3570(8) 0.0364(7) 0.2509(3)
H10 H 0.3435 0.0157 0.2389
C20 C 0.3891(7) 0.0310(6) 0.2643(3)
C21 C 0.4077(8) 0.0611(7) 0.2819(3)
H11 H 0.4290 0.0569 0.2912
C22 C 0.3107(7) 0.0742(8) 0.2399(3)
H12 H 0.3012 0.0530 0.2279
N4 N 0.2933(7) 0.1022(8) 0.2414(3)
O4 O 0.2614(6) 0.0932(7) 0.2239(3)
C23 C 0.1975(12) 0.0988(6) 0.2042(4)
C24 C 0.1822(8) 0.1275(6) 0.1938(3)
H13 H 0.1938 0.1595 0.1989
C25 C 0.1513(7) 0.1122(6) 0.1764(3)
H14 H 0.1415 0.1334 0.1705
C26 C 0.1343(9) 0.0672(4) 0.1675(3)
C27 C 0.5590(8) 0.2795(4) 0.4171(3)
O5 O 0.6034(8) 0.3017(4) 0.4112(4)
O6 O 0.5460(7) 0.2730(4) 0.4356(3)
O7 O 0.2849(7) 0.1424(4) 0.2983(3)
O8 O 0.3511(5) 0.1359(5) 0.2775(2)
C28 C 0.4042(8) -0.0068(8) 0.2590(4)
C29 C 0.1009(9) 0.0504(4) 0.1484(3)
O9 O 0.0874(5) 0.0794(5) 0.14149(19)
C30 C 0.1162(8) 0.0562(10) 0.3499(4)
C31 C 0.1268(17) 0.0315(19) 0.3687(7)
H15 H 0.1344 0.0073 0.3631
H16 H 0.1545 0.0559 0.3769
H17 H 0.0983 0.0156 0.3780
C32 C 0.0729(12) 0.0172(17) 0.3373(7)
H18 H 0.0800 -0.0081 0.3326
H19 H 0.0440 0.0027 0.3464
H20 H 0.0671 0.0319 0.3247
C33 C 0.1039(18) 0.0948(19) 0.3568(9)
H21 H 0.1311 0.1201 0.3650
H22 H 0.0979 0.1091 0.3441
H23 H 0.0748 0.0798 0.3659
O10 O 0.6667 0.3333 0.4485(5)
O11 O 0.6667 0.3333 0.3819(15)
C34 C 0.3587(12) -0.0549(11) 0.2534(9)
H24 H 0.3410 -0.0496 0.2419
H25 H 0.3682 -0.0783 0.2486
H26 H 0.3379 -0.0676 0.2660
C35 C 0.388(3) -0.027(2) 0.2363(6)
H27 H 0.3522 -0.0415 0.2354
H28 H 0.4029 -0.0001 0.2260
H29 H 0.3969 -0.0510 0.2332
C36 C 0.4388(16) 0.0139(16) 0.2397(7)
H30 H 0.4223 0.0199 0.2279
H31 H 0.4676 0.0445 0.2439
H32 H 0.4486 -0.0094 0.2352
C37 C 0.4594(10) 0.0156(18) 0.2590(13)
H33 H 0.4736 0.0407 0.2480
H34 H 0.4722 0.0301 0.2731
H35 H 0.4676 -0.0097 0.2561
C38 C 0.431(2) -0.0153(19) 0.2768(6)
H36 H 0.4606 0.0154 0.2805
H37 H 0.4106 -0.0280 0.2895
H38 H 0.4409 -0.0387 0.2720
C39 C 0.383(2) -0.0458(17) 0.2764(8)
H39 H 0.3472 -0.0604 0.2765
H40 H 0.3910 -0.0710 0.2734
H41 H 0.3957 -0.0312 0.2904
C1W C 0.4583(7) 0.2339(11) 0.3637(3)
C2W C 0.4449(7) 0.2115(15) 0.3838(3)
H1W H 0.4131 0.1847 0.3856
C3W C 0.4765(8) 0.2271(14) 0.4010(3)
H2W H 0.4655 0.2118 0.4146
C4W C 0.5234(8) 0.2642(12) 0.3989(3)
C5W C 0.5373(8) 0.2896(14) 0.3794(4)
H3W H 0.5688 0.3168 0.3778
C6W C 0.5046(8) 0.2746(14) 0.3625(3)
H4W H 0.5141 0.2927 0.3496
O3W O 0.4366(5) 0.2563(8) 0.3315(2)
N3W N 0.4086(6) 0.2500(8) 0.3127(2)
C15W C 0.4185(7) 0.2913(9) 0.3055(3)
H9W H 0.4419 0.3192 0.3131
C16W C 0.3966(6) 0.2991(8) 0.2866(2)
C17W C 0.3630(6) 0.2597(8) 0.2733(3)
C18W C 0.3441(6) 0.2721(9) 0.2550(3)
C19W C 0.3570(8) 0.3206(11) 0.2509(3)
H10W H 0.3435 0.3278 0.2389
C20W C 0.3891(7) 0.3581(9) 0.2643(3)
C21W C 0.4077(8) 0.3466(11) 0.2819(3)
H11W H 0.4290 0.3721 0.2912
C22W C 0.3107(7) 0.2365(11) 0.2399(3)
H12W H 0.3012 0.2482 0.2279
N4W N 0.2933(7) 0.1911(11) 0.2414(3)
O4W O 0.2614(6) 0.1682(9) 0.2239(3)
C24W C 0.1822(8) 0.0547(10) 0.1938(3)
H13W H 0.1938 0.0343 0.1989
C25W C 0.1513(7) 0.0391(9) 0.1764(3)
H14W H 0.1415 0.0081 0.1705
O8W O 0.3511(5) 0.2152(7) 0.2775(2)
C28W C 0.4042(8) 0.4110(11) 0.2590(4)
O9W O 0.0874(5) 0.0080(7) 0.14149(19)
C30W C 0.1162(8) 0.0600(13) 0.3499(4)
C31W C 0.1268(17) 0.0953(25) 0.3687(7)
H15W H 0.1344 0.1271 0.3631
H16W H 0.1545 0.0986 0.3769
H17W H 0.0983 0.0827 0.3780
C32W C 0.0729(12) 0.0557(21) 0.3373(7)
H18W H 0.0800 0.0881 0.3326
H19W H 0.0440 0.0413 0.3464
H20W H 0.0671 0.0352 0.3247
C33W C 0.1039(18) 0.0091(26) 0.3568(9)
H21W H 0.1311 0.0110 0.3650
H22W H 0.0979 -0.0112 0.3441
H23W H 0.0748 -0.0050 0.3659
C34W C 0.3587(12) 0.4136(16) 0.2534(9)
H24W H 0.3410 0.3906 0.2419
H25W H 0.3682 0.4465 0.2486
H26W H 0.3379 0.4055 0.2660
C35W C 0.388(3) 0.415(4) 0.2363(6)
H27W H 0.3522 0.3937 0.2354
H28W H 0.4029 0.4030 0.2260
H29W H 0.3969 0.4479 0.2332
C36W C 0.4388(16) 0.4249(23) 0.2397(7)
H30W H 0.4223 0.4024 0.2279
H31W H 0.4676 0.4231 0.2439
H32W H 0.4486 0.4580 0.2352
C37W C 0.4594(10) 0.4438(21) 0.2590(13)
H33W H 0.4736 0.4329 0.2480
H34W H 0.4722 0.4421 0.2731
H35W H 0.4676 0.4773 0.2561
C38W C 0.431(2) 0.4463(28) 0.2768(6)
H36W H 0.4606 0.4452 0.2805
H37W H 0.4106 0.4386 0.2895
H38W H 0.4409 0.4796 0.2720
C39W C 0.383(2) 0.4288(26) 0.2764(8)
H39W H 0.3472 0.4076 0.2765
H40W H 0.3910 0.4620 0.2734
H41W H 0.3957 0.4269 0.2904
Co1A Co 0.85189(8) 0.14811(19) 0.26527(7)
Co2A Co 0.82043(7) 0.17956(17) 0.30373(6)
Zn2A Zn 0.70012(7) 0.29988(15) 0.45668(5)
C1A C 0.7756(9) 0.2339(11) 0.3637(3)
C2A C 0.7666(13) 0.2115(15) 0.3838(3)
H1A H 0.7716 0.1847 0.3856
C3A C 0.7506(12) 0.2271(14) 0.4010(3)
H2A H 0.7463 0.2118 0.4146
C4A C 0.7408(9) 0.2642(12) 0.3989(3)
C5A C 0.7523(11) 0.2896(14) 0.3794(4)
H3A H 0.7480 0.3168 0.3778
C6A C 0.7700(11) 0.2746(14) 0.3625(3)
H4A H 0.7786 0.2927 0.3496
B1A B 0.7879(4) 0.2121(10) 0.3432(3)
O1A O 0.8126(4) 0.1873(8) 0.3512(3)
N1A N 0.8309(4) 0.1691(8) 0.3362(4)
C7A C 0.8518(4) 0.1481(8) 0.3447(4)
H5A H 0.8526 0.1474 0.3599
C8A C 0.8746(3) 0.1254(7) 0.3331(3)
C9A C 0.8764(4) 0.1237(8) 0.3101(3)
C10A C 0.9002(4) 0.0999(8) 0.3007(3)
C11A C 0.9206(4) 0.0795(8) 0.3142(3)
H6A H 0.9362 0.0637 0.3079
C12A C 0.9187(3) 0.0814(8) 0.3363(3)
C13A C 0.8958(4) 0.1042(8) 0.3456(3)
H7A H 0.8945 0.1056 0.3608
C14A C 0.9050(4) 0.0950(10) 0.2779(3)
H8A H 0.9215 0.0786 0.2735
N2A N 0.8889(4) 0.1111(10) 0.2635(3)
O2A O 0.9005(4) 0.0996(9) 0.2435(3)
B2A B 0.8848(5) 0.1152(12) 0.2253(4)
O3A O 0.8197(6) 0.2563(8) 0.3315(2)
N3A N 0.8414(6) 0.2500(8) 0.3127(2)
C15A C 0.8728(6) 0.2913(9) 0.3055(3)
H9A H 0.8773 0.3192 0.3131
C16A C 0.9025(6) 0.2991(8) 0.2866(2)
C17A C 0.8967(6) 0.2597(8) 0.2733(3)
C18A C 0.9280(7) 0.2721(9) 0.2550(3)
C19A C 0.9636(7) 0.3206(11) 0.2509(3)
H10A H 0.9843 0.3278 0.2389
C20A C 0.9690(6) 0.3581(9) 0.2643(3)
C21A C 0.9389(7) 0.3466(11) 0.2819(3)
H11A H 0.9431 0.3721 0.2912
C22A C 0.9258(8) 0.2365(11) 0.2399(3)
H12A H 0.9470 0.2482 0.2279
N4A N 0.8978(8) 0.1911(11) 0.2414(3)
O4A O 0.9068(7) 0.1682(9) 0.2239(3)
C23A C 0.9012(6) 0.0987(13) 0.2042(4)
C24A C 0.8725(6) 0.0547(10) 0.1938(3)
H13A H 0.8405 0.0343 0.1989
C25A C 0.8878(6) 0.0391(9) 0.1764(3)
H14A H 0.8666 0.0081 0.1705
C26A C 0.9328(4) 0.0671(10) 0.1675(3)
C27A C 0.7205(4) 0.2795(9) 0.4171(3)
O5A O 0.6983(4) 0.3017(9) 0.4112(4)
O6A O 0.7270(4) 0.2730(8) 0.4356(3)
O7A O 0.8576(4) 0.1425(8) 0.2983(3)
O8A O 0.8641(5) 0.2152(7) 0.2775(2)
C28A C 1.0068(8) 0.4110(11) 0.2590(4)
C29A C 0.9496(4) 0.0505(10) 0.1484(3)
O9A O 0.9206(5) 0.0080(7) 0.14149(19)
C30A C 0.9438(10) 0.0600(13) 0.3499(4)
C31A C 0.9685(19) 0.0953(25) 0.3687(7)
H15A H 0.9927 0.1271 0.3631
H16A H 0.9441 0.0986 0.3769
H17A H 0.9844 0.0827 0.3780
C32A C 0.9828(17) 0.0557(21) 0.3373(7)
H18A H 1.0081 0.0881 0.3326
H19A H 0.9973 0.0413 0.3464
H20A H 0.9681 0.0352 0.3247
C33A C 0.9052(19) 0.0091(26) 0.3568(9)
H21A H 0.8799 0.0110 0.3650
H22A H 0.8909 -0.0112 0.3441
H23A H 0.9202 -0.0050 0.3659
C34A C 1.0549(11) 0.4136(16) 0.2534(9)
H24A H 1.0496 0.3906 0.2419
H25A H 1.0783 0.4465 0.2486
H26A H 1.0676 0.4055 0.2660
C35A C 1.027(2) 0.415(4) 0.2363(6)
H27A H 1.0415 0.3937 0.2354
H28A H 1.0001 0.4030 0.2260
H29A H 1.0510 0.4479 0.2332
C36A C 0.9861(16) 0.4249(23) 0.2397(7)
H30A H 0.9801 0.4024 0.2279
H31A H 0.9555 0.4231 0.2439
H32A H 1.0094 0.4580 0.2352
C37A C 0.9844(18) 0.4438(21) 0.2590(13)
H33A H 0.9593 0.4329 0.2480
H34A H 0.9699 0.4421 0.2731
H35A H 1.0097 0.4773 0.2561
C38A C 1.0153(19) 0.4463(28) 0.2768(6)
H36A H 0.9846 0.4452 0.2805
H37A H 1.0280 0.4386 0.2895
H38A H 1.0387 0.4796 0.2720
C39A C 1.0458(17) 0.4288(26) 0.2764(8)
H39A H 1.0604 0.4076 0.2765
H40A H 1.0710 0.4620 0.2734
H41A H 1.0312 0.4269 0.2904
C1V C 0.7661(11) 0.2244(9) 0.3637(3)
C2V C 0.7885(15) 0.2334(13) 0.3838(3)
H1V H 0.8153 0.2284 0.3856
C3V C 0.7729(14) 0.2494(12) 0.4010(3)
H2V H 0.7882 0.2537 0.4146
C4V C 0.7358(12) 0.2592(9) 0.3989(3)
C5V C 0.7104(14) 0.2477(11) 0.3794(4)
H3V H 0.6832 0.2520 0.3778
C6V C 0.7254(14) 0.2300(11) 0.3625(3)
H4V H 0.7073 0.2214 0.3496
O3V O 0.7437(8) 0.1803(6) 0.3315(2)
N3V N 0.7500(8) 0.1586(6) 0.3127(2)
C15V C 0.7087(9) 0.1272(6) 0.3055(3)
H9V H 0.6808 0.1227 0.3131
C16V C 0.7009(8) 0.0975(6) 0.2866(2)
C17V C 0.7403(8) 0.1033(6) 0.2733(3)
C18V C 0.7279(9) 0.0720(7) 0.2550(3)
C19V C 0.6794(11) 0.0364(7) 0.2509(3)
H10V H 0.6722 0.0157 0.2389
C20V C 0.6419(9) 0.0310(6) 0.2643(3)
C21V C 0.6534(11) 0.0611(7) 0.2819(3)
H11V H 0.6279 0.0569 0.2912
C22V C 0.7635(11) 0.0742(8) 0.2399(3)
H12V H 0.7518 0.0530 0.2279
N4V N 0.8089(11) 0.1022(8) 0.2414(3)
O4V O 0.8318(9) 0.0932(7) 0.2239(3)
C24V C 0.9453(10) 0.1275(6) 0.1938(3)
H13V H 0.9657 0.1595 0.1989
C25V C 0.9609(9) 0.1122(6) 0.1764(3)
H14V H 0.9919 0.1334 0.1705
O8V O 0.7848(7) 0.1359(5) 0.2775(2)
C28V C 0.5890(11) -0.0068(8) 0.2590(4)
O9V O 0.9920(7) 0.0794(5) 0.14149(19)
C30V C 0.9400(13) 0.0562(10) 0.3499(4)
C31V C 0.9047(25) 0.0315(19) 0.3687(7)
H15V H 0.8729 0.0073 0.3631
H16V H 0.9014 0.0559 0.3769
H17V H 0.9173 0.0156 0.3780
C32V C 0.9443(21) 0.0172(17) 0.3373(7)
H18V H 0.9119 -0.0081 0.3326
H19V H 0.9587 0.0027 0.3464
H20V H 0.9648 0.0319 0.3247
C33V C 0.9909(26) 0.0948(19) 0.3568(9)
H21V H 0.9890 0.1201 0.3650
H22V H 1.0112 0.1091 0.3441
H23V H 1.0050 0.0798 0.3659
C34V C 0.5864(16) -0.0549(11) 0.2534(9)
H24V H 0.6094 -0.0496 0.2419
H25V H 0.5535 -0.0783 0.2486
H26V H 0.5945 -0.0676 0.2660
C35V C 0.585(4) -0.027(2) 0.2363(6)
H27V H 0.6063 -0.0415 0.2354
H28V H 0.5970 -0.0001 0.2260
H29V H 0.5521 -0.0510 0.2332
C36V C 0.5751(23) 0.0139(16) 0.2397(7)
H30V H 0.5976 0.0199 0.2279
H31V H 0.5769 0.0445 0.2439
H32V H 0.5420 -0.0094 0.2352
C37V C 0.5562(21) 0.0156(18) 0.2590(13)
H33V H 0.5671 0.0407 0.2480
H34V H 0.5579 0.0301 0.2731
H35V H 0.5227 -0.0097 0.2561
C38V C 0.5537(28) -0.0153(19) 0.2768(6)
H36V H 0.5548 0.0154 0.2805
H37V H 0.5614 -0.0280 0.2895
H38V H 0.5204 -0.0387 0.2720
C39V C 0.5712(26) -0.0458(17) 0.2764(8)
H39V H 0.5924 -0.0604 0.2765
H40V H 0.5380 -0.0710 0.2734
H41V H 0.5731 -0.0312 0.2904
Co1B Co 0.85189(19) 0.70378(17) 0.26527(7)
Co2B Co 0.82044(17) 0.64087(15) 0.30373(6)
Zn2B Zn 0.70012(15) 0.40024(13) 0.45668(5)
C1B C 0.7661(11) 0.5417(7) 0.3637(3)
C2B C 0.7885(15) 0.5551(7) 0.3838(3)
H1B H 0.8153 0.5869 0.3856
C3B C 0.7729(14) 0.5235(8) 0.4010(3)
H2B H 0.7882 0.5345 0.4146
C4B C 0.7358(12) 0.4766(8) 0.3989(3)
C5B C 0.7104(14) 0.4627(8) 0.3794(4)
H3B H 0.6832 0.4312 0.3778
C6B C 0.7254(14) 0.4954(8) 0.3625(3)
H4B H 0.7073 0.4859 0.3496
B1B B 0.7879(10) 0.5758(9) 0.3432(3)
O1B O 0.8127(8) 0.6253(7) 0.3512(3)
N1B N 0.8309(8) 0.6618(7) 0.3362(4)
C7B C 0.8519(8) 0.7037(7) 0.3447(4)
H5B H 0.8526 0.7052 0.3599
C8B C 0.8746(7) 0.7492(6) 0.3331(3)
C9B C 0.8763(8) 0.7527(7) 0.3101(3)
C10B C 0.9001(8) 0.8003(7) 0.3007(3)
C11B C 0.9205(8) 0.8411(7) 0.3142(3)
H6B H 0.9363 0.8725 0.3079
C12B C 0.9186(8) 0.8373(7) 0.3363(3)
C13B C 0.8958(8) 0.7916(7) 0.3456(3)
H7B H 0.8944 0.7889 0.3608
C14B C 0.9050(10) 0.8100(9) 0.2779(3)
H8B H 0.9214 0.8429 0.2735
N2B N 0.8889(10) 0.7778(9) 0.2635(3)
O2B O 0.9004(9) 0.8009(8) 0.2435(3)
B2B B 0.8848(12) 0.7696(11) 0.2253(4)
O3B O 0.7437(8) 0.5634(5) 0.3315(2)
N3B N 0.7500(8) 0.5914(6) 0.3127(2)
C15B C 0.7087(9) 0.5815(7) 0.3055(3)
H9B H 0.6808 0.5581 0.3131
C16B C 0.7009(8) 0.6034(6) 0.2866(2)
C17B C 0.7403(8) 0.6370(6) 0.2733(3)
C18B C 0.7279(9) 0.6559(6) 0.2550(3)
C19B C 0.6794(11) 0.6430(8) 0.2509(3)
H10B H 0.6722 0.6565 0.2389
C20B C 0.6419(9) 0.6109(7) 0.2643(3)
C21B C 0.6534(11) 0.5923(8) 0.2819(3)
H11B H 0.6279 0.5710 0.2912
C22B C 0.7635(11) 0.6893(7) 0.2399(3)
H12B H 0.7518 0.6988 0.2279
N4B N 0.8089(11) 0.7067(7) 0.2414(3)
O4B O 0.8318(9) 0.7386(6) 0.2239(3)
C23B C 0.9013(13) 0.8025(12) 0.2042(4)
C24B C 0.9453(10) 0.8178(8) 0.1938(3)
H13B H 0.9657 0.8062 0.1989
C25B C 0.9609(9) 0.8487(7) 0.1764(3)
H14B H 0.9919 0.8585 0.1705
C26B C 0.9329(10) 0.8657(9) 0.1675(3)
C27B C 0.7205(9) 0.4410(8) 0.4171(3)
O5B O 0.6983(9) 0.3966(8) 0.4112(4)
O6B O 0.7270(8) 0.4540(7) 0.4356(3)
O7B O 0.8575(8) 0.7151(7) 0.2983(3)
O8B O 0.7848(7) 0.6489(5) 0.2775(2)
C28B C 0.5890(11) 0.5958(8) 0.2590(4)
C29B C 0.9495(10) 0.8991(9) 0.1484(3)
O9B O 0.9920(7) 0.9126(5) 0.14149(19)
C30B C 0.9400(13) 0.8838(8) 0.3499(4)
C31B C 0.9047(25) 0.8732(17) 0.3687(7)
H15B H 0.8729 0.8656 0.3631
H16B H 0.9014 0.8455 0.3769
H17B H 0.9173 0.9017 0.3780
C32B C 0.9443(21) 0.9271(12) 0.3373(7)
H18B H 0.9119 0.9200 0.3326
H19B H 0.9587 0.9560 0.3464
H20B H 0.9648 0.9329 0.3247
C33B C 0.9909(26) 0.8961(18) 0.3568(9)
H21B H 0.9890 0.8689 0.3650
H22B H 1.0112 0.9021 0.3441
H23B H 1.0050 0.9252 0.3659
C34B C 0.5864(16) 0.6413(12) 0.2534(9)
H24B H 0.6094 0.6590 0.2419
H25B H 0.5535 0.6318 0.2486
H26B H 0.5945 0.6621 0.2660
C35B C 0.585(4) 0.612(3) 0.2363(6)
H27B H 0.6063 0.6478 0.2354
H28B H 0.5970 0.5971 0.2260
H29B H 0.5521 0.6031 0.2332
C36B C 0.5751(23) 0.5612(16) 0.2397(7)
H30B H 0.5976 0.5777 0.2279
H31B H 0.5769 0.5324 0.2439
H32B H 0.5420 0.5514 0.2352
C37B C 0.5562(21) 0.5406(10) 0.2590(13)
H33B H 0.5671 0.5264 0.2480
H34B H 0.5579 0.5278 0.2731
H35B H 0.5227 0.5324 0.2561
C38B C 0.5537(28) 0.569(2) 0.2768(6)
H36B H 0.5548 0.5394 0.2805
H37B H 0.5614 0.5894 0.2895
H38B H 0.5204 0.5591 0.2720
C39B C 0.5712(26) 0.617(2) 0.2764(8)
H39B H 0.5924 0.6528 0.2765
H40B H 0.5380 0.6090 0.2734
H41B H 0.5731 0.6043 0.2904
C1U C 0.7756(9) 0.5417(7) 0.3637(3)
C2U C 0.7666(13) 0.5551(7) 0.3838(3)
H1U H 0.7716 0.5869 0.3856
C3U C 0.7506(12) 0.5235(8) 0.4010(3)
H2U H 0.7463 0.5345 0.4146
C4U C 0.7408(9) 0.4766(8) 0.3989(3)
C5U C 0.7523(11) 0.4627(8) 0.3794(4)
H3U H 0.7480 0.4312 0.3778
C6U C 0.7700(11) 0.4954(8) 0.3625(3)
H4U H 0.7786 0.4859 0.3496
O3U O 0.8197(6) 0.5634(5) 0.3315(2)
N3U N 0.8414(6) 0.5914(6) 0.3127(2)
C15U C 0.8728(6) 0.5815(7) 0.3055(3)
H9U H 0.8773 0.5581 0.3131
C16U C 0.9025(6) 0.6034(6) 0.2866(2)
C17U C 0.8967(6) 0.6370(6) 0.2733(3)
C18U C 0.9280(7) 0.6559(6) 0.2550(3)
C19U C 0.9636(7) 0.6430(8) 0.2509(3)
H10U H 0.9843 0.6565 0.2389
C20U C 0.9690(6) 0.6109(7) 0.2643(3)
C21U C 0.9389(7) 0.5923(8) 0.2819(3)
H11U H 0.9431 0.5710 0.2912
C22U C 0.9258(8) 0.6893(7) 0.2399(3)
H12U H 0.9470 0.6988 0.2279
N4U N 0.8978(8) 0.7067(7) 0.2414(3)
O4U O 0.9068(7) 0.7386(6) 0.2239(3)
C24U C 0.8725(6) 0.8178(8) 0.1938(3)
H13U H 0.8405 0.8062 0.1989
C25U C 0.8878(6) 0.8487(7) 0.1764(3)
H14U H 0.8666 0.8585 0.1705
O8U O 0.8641(5) 0.6489(5) 0.2775(2)
C28U C 1.0068(8) 0.5958(8) 0.2590(4)
O9U O 0.9206(5) 0.9126(5) 0.14149(19)
C30U C 0.9438(10) 0.8838(8) 0.3499(4)
C31U C 0.9685(19) 0.8732(17) 0.3687(7)
H15U H 0.9927 0.8656 0.3631
H16U H 0.9441 0.8455 0.3769
H17U H 0.9844 0.9017 0.3780
C32U C 0.9828(17) 0.9271(12) 0.3373(7)
H18U H 1.0081 0.9200 0.3326
H19U H 0.9973 0.9560 0.3464
H20U H 0.9681 0.9329 0.3247
C33U C 0.9052(19) 0.8961(18) 0.3568(9)
H21U H 0.8799 0.8689 0.3650
H22U H 0.8909 0.9021 0.3441
H23U H 0.9202 0.9252 0.3659
C34U C 1.0549(11) 0.6413(12) 0.2534(9)
H24U H 1.0496 0.6590 0.2419
H25U H 1.0783 0.6318 0.2486
H26U H 1.0676 0.6621 0.2660
C35U C 1.027(2) 0.612(3) 0.2363(6)
H27U H 1.0415 0.6478 0.2354
H28U H 1.0001 0.5971 0.2260
H29U H 1.0510 0.6031 0.2332
C36U C 0.9861(16) 0.5612(16) 0.2397(7)
H30U H 0.9801 0.5777 0.2279
H31U H 0.9555 0.5324 0.2439
H32U H 1.0094 0.5514 0.2352
C37U C 0.9844(18) 0.5406(10) 0.2590(13)
H33U H 0.9593 0.5264 0.2480
H34U H 0.9699 0.5278 0.2731
H35U H 1.0097 0.5324 0.2561
C38U C 1.0153(19) 0.569(2) 0.2768(6)
H36U H 0.9846 0.5394 0.2805
H37U H 1.0280 0.5894 0.2895
H38U H 1.0387 0.5591 0.2720
C39U C 1.0458(17) 0.617(2) 0.2764(8)
H39U H 1.0604 0.6528 0.2765
H40U H 1.0710 0.6090 0.2734
H41U H 1.0312 0.6043 0.2904
Zn2L Zn 0.93309(13) -0.03345(7) 0.12335(5)
Zn2L_2 Zn 0.93309(13) 0.96655(7) 0.12335(5)
Zn2M Zn 0.03345(7) -0.03345(15) 0.12335(5)
Zn2M_2 Zn 1.03345(7) 0.96655(15) 0.12335(5)
Zn2N Zn 0.03345(15) 0.06691(13) 0.12335(5)
Zn2N_2 Zn 1.03345(15) 0.06691(13) 0.12335(5)
O9F O 0.7541(5) 0.4127(5) 0.47482(19)
O9G O 0.5873(5) 0.3413(7) 0.47482(19)
O9H O 0.6587(7) 0.2459(5) 0.47482(19)
O9GA O 0.5873(5) 0.2459(5) 0.47482(19)
O9HA O 0.6587(7) 0.4127(5) 0.47482(19)
O9IA O 0.7541(5) 0.3413(7) 0.47482(19)
loop_
_geom_bond_atom_site_label_1
_geom_bond_atom_site_label_2
_geom_bond_site_symmetry_1
_geom_bond_site_symmetry_2
Co1 N2 1_555 1_555
Co2 N1 1_555 1_555
Zn1 O5 1_555 1_555
Zn2 O6 1_555 1_555
C1 C2 1_555 1_555
C2 H1 1_555 1_555
H1 H1W 1_555 1_555
C3 C2 1_555 1_555
H2 C3 1_555 1_555
C4 C3 1_555 1_555
C5 C4 1_555 1_555
H3 C5 1_555 1_555
C6 C1 1_555 1_555
H4 C6 1_555 1_555
B1 C1 1_555 1_555
O1 B1 1_555 1_555
N1 O1 1_555 1_555
C7 N1 1_555 1_555
H5 C7 1_555 1_555
C8 C7 1_555 1_555
C9 C8 1_555 1_555
C10 C9 1_555 1_555
C11 C10 1_555 1_555
H6 C11 1_555 1_555
C12 C11 1_555 1_555
C13 C8 1_555 1_555
H7 C13 1_555 1_555
C14 C10 1_555 1_555
H8 C14 1_555 1_555
N2 C14 1_555 1_555
O2 N2 1_555 1_555
B2 O2 1_555 1_555
O3 B1 1_555 1_555
N3 Co2 1_555 1_555
C15 N3 1_555 1_555
H9 C15 1_555 1_555
C16 C15 1_555 1_555
C17 C16 1_555 1_555
C18 C17 1_555 1_555
C19 C18 1_555 1_555
H10 C19 1_555 1_555
C20 C19 1_555 1_555
C21 C16 1_555 1_555
H11 C21 1_555 1_555
C22 C18 1_555 1_555
H12 C22 1_555 1_555
N4 Co1 1_555 1_555
O4 B2 1_555 1_555
C23 B2 1_555 1_555
C24 C23 1_555 1_555
H13 C24 1_555 1_555
C25 C24 1_555 1_555
H14 C25 1_555 1_555
C26 C25 1_555 1_555
C27 C4 1_555 1_555
O5 C27 1_555 1_555
O6 C27 1_555 1_555
O7 Co1 1_555 1_555
O8 Co1 1_555 1_555
C28 C20 1_555 1_555
C29 C26 1_555 1_555
O9 C29 1_555 1_555
C30 C12 1_555 1_555
C31 C30 1_555 1_555
H15 C31 1_555 1_555
H16 C31 1_555 1_555
H17 C31 1_555 1_555
C32 C30 1_555 1_555
H18 C32 1_555 1_555
H19 C32 1_555 1_555
H20 C32 1_555 1_555
C33 C30 1_555 1_555
H21 C33 1_555 1_555
H22 C33 1_555 1_555
H23 C33 1_555 1_555
O10 Zn1 1_555 1_555
O11 Zn1 1_555 1_555
C34 C28 1_555 1_555
H24 C34 1_555 1_555
H25 C34 1_555 1_555
H26 C34 1_555 1_555
C35 C28 1_555 1_555
H27 C34 1_555 1_555
H28 C35 1_555 1_555
H29 H25 1_555 1_555
C36 C28 1_555 1_555
H30 H28 1_555 1_555
H31 C36 1_555 1_555
H32 C36 1_555 1_555
C37 C28 1_555 1_555
H33 C36 1_555 1_555
H34 C37 1_555 1_555
H35 C37 1_555 1_555
C38 C28 1_555 1_555
H36 C37 1_555 1_555
H37 C38 1_555 1_555
H38 H35 1_555 1_555
C39 C28 1_555 1_555
H39 H26 1_555 1_555
H40 H38 1_555 1_555
H41 C38 1_555 1_555
C1W C2 1_555 1_555
C2W C1 1_555 1_555
H1W C2W 1_555 1_555
C3W C2 1_555 1_555
H2W H2 1_555 1_555
C4W C3 1_555 1_555
C5W C4 1_555 1_555
H3W C5W 1_555 1_555
C6W C1 1_555 1_555
H4W C6W 1_555 1_555
O3W B1 1_555 1_555
N3W Co2 1_555 1_555
C15W N3W 1_555 1_555
H9W C15W 1_555 1_555
C16W C15W 1_555 1_555
C17W C16W 1_555 1_555
C18W C17W 1_555 1_555
C19W C18W 1_555 1_555
H10W C19W 1_555 1_555
C20W C19W 1_555 1_555
C21W C16W 1_555 1_555
H11W C21W 1_555 1_555
C22W C18W 1_555 1_555
H12W C22W 1_555 1_555
N4W Co1 1_555 1_555
O4W B2 1_555 1_555
C24W C23 1_555 1_555
H13W C24W 1_555 1_555
C25W C26 1_555 1_555
H14W C25W 1_555 1_555
O8W Co1 1_555 1_555
C28W C20W 1_555 1_555
O9W C29 1_555 1_555
C30W C12 1_555 1_555
C31W C30 1_555 1_555
H15W C33 1_555 1_555
H16W H16 1_555 1_555
H17W H21 1_555 1_555
C32W C30 1_555 1_555
H18W H22 1_555 1_555
H19W H19 1_555 1_555
H20W C32 1_555 1_555
C33W C30 1_555 1_555
H21W C31 1_555 1_555
H22W H18 1_555 1_555
H23W H17 1_555 1_555
C34W C28W 1_555 1_555
H24W C34W 1_555 1_555
H25W C34W 1_555 1_555
H26W C34W 1_555 1_555
C35W C28W 1_555 1_555
H27W C34W 1_555 1_555
H28W C35W 1_555 1_555
H29W H25W 1_555 1_555
C36W C28W 1_555 1_555
H30W H28W 1_555 1_555
H31W C36W 1_555 1_555
H32W C36W 1_555 1_555
C37W C28W 1_555 1_555
H33W C36W 1_555 1_555
H34W C37W 1_555 1_555
H35W C37W 1_555 1_555
C38W C28W 1_555 1_555
H36W C37W 1_555 1_555
H37W C38W 1_555 1_555
H38W H35W 1_555 1_555
C39W C28W 1_555 1_555
H39W H26W 1_555 1_555
H40W H38W 1_555 1_555
H41W C38W 1_555 1_555
Co1A N2A 1_555 1_555
Co2A N1A 1_555 1_555
Zn2A O10 1_555 1_555
C1A C2A 1_555 1_555
C2A H1A 1_555 1_555
H1A H1V 1_555 1_555
C3A C2A 1_555 1_555
H2A C3A 1_555 1_555
C4A C3A 1_555 1_555
C5A C4A 1_555 1_555
H3A C5A 1_555 1_555
C6A C1A 1_555 1_555
H4A C6A 1_555 1_555
B1A C1A 1_555 1_555
O1A B1A 1_555 1_555
N1A O1A 1_555 1_555
C7A N1A 1_555 1_555
H5A C7A 1_555 1_555
C8A C7A 1_555 1_555
C9A C8A 1_555 1_555
C10A C9A 1_555 1_555
C11A C10A 1_555 1_555
H6A C11A 1_555 1_555
C12A C11A 1_555 1_555
C13A C8A 1_555 1_555
H7A C13A 1_555 1_555
C14A C10A 1_555 1_555
H8A C14A 1_555 1_555
N2A C14A 1_555 1_555
O2A N2A 1_555 1_555
B2A O2A 1_555 1_555
O3A B1A 1_555 1_555
N3A Co2A 1_555 1_555
C15A N3A 1_555 1_555
H9A C15A 1_555 1_555
C16A C15A 1_555 1_555
C17A C16A 1_555 1_555
C18A C17A 1_555 1_555
C19A C18A 1_555 1_555
H10A C19A 1_555 1_555
C20A C19A 1_555 1_555
C21A C16A 1_555 1_555
H11A C21A 1_555 1_555
C22A C18A 1_555 1_555
H12A C22A 1_555 1_555
N4A Co1A 1_555 1_555
O4A B2A 1_555 1_555
C23A B2A 1_555 1_555
C24A C23A 1_555 1_555
H13A C24A 1_555 1_555
C25A C24A 1_555 1_555
H14A C25A 1_555 1_555
C26A C25A 1_555 1_555
C27A C4A 1_555 1_555
O5A Zn1 1_555 1_555
O6A Zn2A 1_555 1_555
O7A Co1A 1_555 1_555
O8A Co1A 1_555 1_555
C28A C20A 1_555 1_555
C29A C26A 1_555 1_555
O9A C29A 1_555 1_555
C30A C12A 1_555 1_555
C31A C30A 1_555 1_555
H15A C31A 1_555 1_555
H16A C31A 1_555 1_555
H17A C31A 1_555 1_555
C32A C30A 1_555 1_555
H18A C32A 1_555 1_555
H19A C32A 1_555 1_555
H20A C32A 1_555 1_555
C33A C30A 1_555 1_555
H21A C33A 1_555 1_555
H22A C33A 1_555 1_555
H23A C33A 1_555 1_555
C34A C28A 1_555 1_555
H24A C34A 1_555 1_555
H25A C34A 1_555 1_555
H26A C34A 1_555 1_555
C35A C28A 1_555 1_555
H27A C34A 1_555 1_555
H28A C35A 1_555 1_555
H29A H25A 1_555 1_555
C36A C28A 1_555 1_555
H30A H28A 1_555 1_555
H31A C36A 1_555 1_555
H32A C36A 1_555 1_555
C37A C28A 1_555 1_555
H33A C36A 1_555 1_555
H34A C37A 1_555 1_555
H35A C37A 1_555 1_555
C38A C28A 1_555 1_555
H36A C37A 1_555 1_555
H37A C38A 1_555 1_555
H38A H35A 1_555 1_555
C39A C28A 1_555 1_555
H39A H26A 1_555 1_555
H40A H38A 1_555 1_555
H41A C38A 1_555 1_555
C1V C2A 1_555 1_555
C2V C1A 1_555 1_555
H1V C2V 1_555 1_555
C3V C2A 1_555 1_555
H2V H2A 1_555 1_555
C4V C3A 1_555 1_555
C5V C4A 1_555 1_555
H3V C5V 1_555 1_555
C6V C1A 1_555 1_555
H4V C6V 1_555 1_555
O3V B1A 1_555 1_555
N3V Co2A 1_555 1_555
C15V N3V 1_555 1_555
H9V C15V 1_555 1_555
C16V C15V 1_555 1_555
C17V C16V 1_555 1_555
C18V C17V 1_555 1_555
C19V C18V 1_555 1_555
H10V C19V 1_555 1_555
C20V C19V 1_555 1_555
C21V C16V 1_555 1_555
H11V C21V 1_555 1_555
C22V C18V 1_555 1_555
H12V C22V 1_555 1_555
N4V Co1A 1_555 1_555
O4V B2A 1_555 1_555
C24V C23A 1_555 1_555
H13V C24V 1_555 1_555
C25V C26A 1_555 1_555
H14V C25V 1_555 1_555
O8V Co1A 1_555 1_555
C28V C20V 1_555 1_555
O9V C29A 1_555 1_555
C30V C12A 1_555 1_555
C31V C30A 1_555 1_555
H15V C33A 1_555 1_555
H16V H16A 1_555 1_555
H17V H21A 1_555 1_555
C32V C30A 1_555 1_555
H18V H22A 1_555 1_555
H19V H19A 1_555 1_555
H20V C32A 1_555 1_555
C33V C30A 1_555 1_555
H21V C31A 1_555 1_555
H22V H18A 1_555 1_555
H23V H17A 1_555 1_555
C34V C28V 1_555 1_555
H24V C34V 1_555 1_555
H25V C34V 1_555 1_555
H26V C34V 1_555 1_555
C35V C28V 1_555 1_555
H27V C34V 1_555 1_555
H28V C35V 1_555 1_555
H29V H25V 1_555 1_555
C36V C28V 1_555 1_555
H30V H28V 1_555 1_555
H31V C36V 1_555 1_555
H32V C36V 1_555 1_555
C37V C28V 1_555 1_555
H33V C36V 1_555 1_555
H34V C37V 1_555 1_555
H35V C37V 1_555 1_555
C38V C28V 1_555 1_555
H36V C37V 1_555 1_555
H37V C38V 1_555 1_555
H38V H35V 1_555 1_555
C39V C28V 1_555 1_555
H39V H26V 1_555 1_555
H40V H38V 1_555 1_555
H41V C38V 1_555 1_555
Co1B N2B 1_555 1_555
Co2B N1B 1_555 1_555
Zn2B O10 1_555 1_555
C1B C2B 1_555 1_555
C2B H1B 1_555 1_555
H1B H1U 1_555 1_555
C3B C2B 1_555 1_555
H2B C3B 1_555 1_555
C4B C3B 1_555 1_555
C5B C4B 1_555 1_555
H3B C5B 1_555 1_555
C6B C1B 1_555 1_555
H4B C6B 1_555 1_555
B1B C1B 1_555 1_555
O1B B1B 1_555 1_555
N1B O1B 1_555 1_555
C7B N1B 1_555 1_555
H5B C7B 1_555 1_555
C8B C7B 1_555 1_555
C9B C8B 1_555 1_555
C10B C9B 1_555 1_555
C11B C10B 1_555 1_555
H6B C11B 1_555 1_555
C12B C11B 1_555 1_555
C13B C8B 1_555 1_555
H7B C13B 1_555 1_555
C14B C10B 1_555 1_555
H8B C14B 1_555 1_555
N2B C14B 1_555 1_555
O2B N2B 1_555 1_555
B2B O2B 1_555 1_555
O3B B1B 1_555 1_555
N3B Co2B 1_555 1_555
C15B N3B 1_555 1_555
H9B C15B 1_555 1_555
C16B C15B 1_555 1_555
C17B C16B 1_555 1_555
C18B C17B 1_555 1_555
C19B C18B 1_555 1_555
H10B C19B 1_555 1_555
C20B C19B 1_555 1_555
C21B C16B 1_555 1_555
H11B C21B 1_555 1_555
C22B C18B 1_555 1_555
H12B C22B 1_555 1_555
N4B Co1B 1_555 1_555
O4B B2B 1_555 1_555
C23B B2B 1_555 1_555
C24B C23B 1_555 1_555
H13B C24B 1_555 1_555
C25B C24B 1_555 1_555
H14B C25B 1_555 1_555
C26B C25B 1_555 1_555
C27B C4B 1_555 1_555
O5B Zn1 1_555 1_555
O6B Zn2B 1_555 1_555
O7B Co1B 1_555 1_555
O8B Co1B 1_555 1_555
C28B C20B 1_555 1_555
C29B C26B 1_555 1_555
O9B C29B 1_555 1_555
C30B C12B 1_555 1_555
C31B C30B 1_555 1_555
H15B C31B 1_555 1_555
H16B C31B 1_555 1_555
H17B C31B 1_555 1_555
C32B C30B 1_555 1_555
H18B C32B 1_555 1_555
H19B C32B 1_555 1_555
H20B C32B 1_555 1_555
C33B C30B 1_555 1_555
H21B C33B 1_555 1_555
H22B C33B 1_555 1_555
H23B C33B 1_555 1_555
C34B C28B 1_555 1_555
H24B C34B 1_555 1_555
H25B C34B 1_555 1_555
H26B C34B 1_555 1_555
C35B C28B 1_555 1_555
H27B C34B 1_555 1_555
H28B C35B 1_555 1_555
H29B H25B 1_555 1_555
C36B C28B 1_555 1_555
H30B H28B 1_555 1_555
H31B C36B 1_555 1_555
H32B C36B 1_555 1_555
C37B C28B 1_555 1_555
H33B C36B 1_555 1_555
H34B C37B 1_555 1_555
H35B C37B 1_555 1_555
C38B C28B 1_555 1_555
H36B C37B 1_555 1_555
H37B C38B 1_555 1_555
H38B H35B 1_555 1_555
C39B C28B 1_555 1_555
H39B H26B 1_555 1_555
H40B H38B 1_555 1_555
H41B C38B 1_555 1_555
C1U C2B 1_555 1_555
C2U C1B 1_555 1_555
H1U C2U 1_555 1_555
C3U C2B 1_555 1_555
H2U H2B 1_555 1_555
C4U C3B 1_555 1_555
C5U C4B 1_555 1_555
H3U C5U 1_555 1_555
C6U C1B 1_555 1_555
H4U C6U 1_555 1_555
O3U B1B 1_555 1_555
N3U Co2B 1_555 1_555
C15U N3U 1_555 1_555
H9U C15U 1_555 1_555
C16U C15U 1_555 1_555
C17U C16U 1_555 1_555
C18U C17U 1_555 1_555
C19U C18U 1_555 1_555
H10U C19U 1_555 1_555
C20U C19U 1_555 1_555
C21U C16U 1_555 1_555
H11U C21U 1_555 1_555
C22U C18U 1_555 1_555
H12U C22U 1_555 1_555
N4U Co1B 1_555 1_555
O4U B2B 1_555 1_555
C24U C23B 1_555 1_555
H13U C24U 1_555 1_555
C25U C26B 1_555 1_555
H14U C25U 1_555 1_555
O8U Co1B 1_555 1_555
C28U C20U 1_555 1_555
O9U C29B 1_555 1_555
C30U C12B 1_555 1_555
C31U C30B 1_555 1_555
H15U C33B 1_555 1_555
H16U H16B 1_555 1_555
H17U H21B 1_555 1_555
C32U C30B 1_555 1_555
H18U H22B 1_555 1_555
H19U H19B 1_555 1_555
H20U C32B 1_555 1_555
C33U C30B 1_555 1_555
H21U C31B 1_555 1_555
H22U H18B 1_555 1_555
H23U H17B 1_555 1_555
C34U C28U 1_555 1_555
H24U C34U 1_555 1_555
H25U C34U 1_555 1_555
H26U C34U 1_555 1_555
C35U C28U 1_555 1_555
H27U C34U 1_555 1_555
H28U C35U 1_555 1_555
H29U H25U 1_555 1_555
C36U C28U 1_555 1_555
H30U H28U 1_555 1_555
H31U C36U 1_555 1_555
H32U C36U 1_555 1_555
C37U C28U 1_555 1_555
H33U C36U 1_555 1_555
H34U C37U 1_555 1_555
H35U C37U 1_555 1_555
C38U C28U 1_555 1_555
H36U C37U 1_555 1_555
H37U C38U 1_555 1_555
H38U H35U 1_555 1_555
C39U C28U 1_555 1_555
H39U H26U 1_555 1_555
H40U H38U 1_555 1_555
H41U C38U 1_555 1_555
Zn2L O9A 1_555 1_555
Zn2L_2 O9U 1_555 1_555
Zn2M O9W 1_555 1_555
Zn2M_2 O9B 1_555 1_555
Zn2N O9 1_555 1_555
Zn2N_2 O9V 1_555 1_555
O9F Zn2B 1_555 1_555
O9G Zn2 1_555 1_555
O9H Zn2A 1_555 1_555
O9GA Zn2 1_555 1_555
O9HA Zn2B 1_555 1_555
O9IA Zn2A 1_555 1_555
Co2 O7 1_555 1_555
Co2 O8 1_555 1_555
Co2 O8W 1_555 1_555
Zn2 O10 1_555 1_555
C2 C2W 1_555 1_555
C3 C2W 1_555 1_555
C3 C3W 1_555 1_555
C4 C3W 1_555 1_555
C5 C6 1_555 1_555
C5 C4W 1_555 1_555
C5 C5W 1_555 1_555
C6 C1W 1_555 1_555
C6 C6W 1_555 1_555
B1 C1W 1_555 1_555
C9 O7 1_555 1_555
C12 C13 1_555 1_555
O3 N3 1_555 1_555
C17 O8 1_555 1_555
C20 C21 1_555 1_555
C22 N4 1_555 1_555
N4 O4 1_555 1_555
C27 C4W 1_555 1_555
C31 C30W 1_555 1_555
C31 C33W 1_555 1_555
H15 C33W 1_555 1_555
H17 H21W 1_555 1_555
C32 C30W 1_555 1_555
C32 C32W 1_555 1_555
C32 C33W 1_555 1_555
H20 C32W 1_555 1_555
C33 C30W 1_555 1_555
C33 C31W 1_555 1_555
C33 C32W 1_555 1_555
H21 C31W 1_555 1_555
H23 H17W 1_555 1_555
C34 C35 1_555 1_555
C34 C39 1_555 1_555
H24 C35 1_555 1_555
C35 H27 1_555 1_555
C35 H29 1_555 1_555
C35 C36 1_555 1_555
H28 C36 1_555 1_555
C36 H30 1_555 1_555
C36 C37 1_555 1_555
H31 C37 1_555 1_555
C37 H33 1_555 1_555
C37 C38 1_555 1_555
H34 H36 1_555 1_555
C38 H36 1_555 1_555
C38 H38 1_555 1_555
C38 C39 1_555 1_555
H37 C39 1_555 1_555
C39 H39 1_555 1_555
C39 H40 1_555 1_555
C39 H41 1_555 1_555
C1W C2W 1_555 1_555
C1W C6W 1_555 1_555
C2W C3W 1_555 1_555
C3W H2W 1_555 1_555
C3W C4W 1_555 1_555
C4W C5W 1_555 1_555
C5W C6W 1_555 1_555
O3W N3W 1_555 1_555
C17W O8W 1_555 1_555
C20W C21W 1_555 1_555
C22W N4W 1_555 1_555
N4W O4W 1_555 1_555
C24W C25W 1_555 1_555
C30W C31W 1_555 1_555
C30W C32W 1_555 1_555
C30W C33W 1_555 1_555
C31W H15W 1_555 1_555
C31W H16W 1_555 1_555
C31W H17W 1_555 1_555
C32W H18W 1_555 1_555
C32W H19W 1_555 1_555
C32W H20W 1_555 1_555
C33W H21W 1_555 1_555
C33W H22W 1_555 1_555
C33W H23W 1_555 1_555
C34W C35W 1_555 1_555
C34W C39W 1_555 1_555
H24W C35W 1_555 1_555
C35W H27W 1_555 1_555
C35W H29W 1_555 1_555
C35W C36W 1_555 1_555
H28W C36W 1_555 1_555
C36W H30W 1_555 1_555
C36W C37W 1_555 1_555
H31W C37W 1_555 1_555
C37W H33W 1_555 1_555
C37W C38W 1_555 1_555
H34W H36W 1_555 1_555
C38W H36W 1_555 1_555
C38W H38W 1_555 1_555
C38W C39W 1_555 1_555
H37W C39W 1_555 1_555
C39W H39W 1_555 1_555
C39W H40W 1_555 1_555
C39W H41W 1_555 1_555
Co2A O7A 1_555 1_555
Co2A O8A 1_555 1_555
Co2A O8V 1_555 1_555
C2A C2V 1_555 1_555
C3A C2V 1_555 1_555
C3A C3V 1_555 1_555
C4A C3V 1_555 1_555
C5A C6A 1_555 1_555
C5A C4V 1_555 1_555
C5A C5V 1_555 1_555
C6A C1V 1_555 1_555
C6A C6V 1_555 1_555
B1A C1V 1_555 1_555
C9A O7A 1_555 1_555
C12A C13A 1_555 1_555
O3A N3A 1_555 1_555
C17A O8A 1_555 1_555
C20A C21A 1_555 1_555
C22A N4A 1_555 1_555
N4A O4A 1_555 1_555
C27A O5A 1_555 1_555
C27A O6A 1_555 1_555
C27A C4V 1_555 1_555
C31A C30V 1_555 1_555
C31A C33V 1_555 1_555
H15A C33V 1_555 1_555
H17A H21V 1_555 1_555
C32A C30V 1_555 1_555
C32A C32V 1_555 1_555
C32A C33V 1_555 1_555
H20A C32V 1_555 1_555
C33A C30V 1_555 1_555
C33A C31V 1_555 1_555
C33A C32V 1_555 1_555
H21A C31V 1_555 1_555
H23A H17V 1_555 1_555
C34A C35A 1_555 1_555
C34A C39A 1_555 1_555
H24A C35A 1_555 1_555
C35A H27A 1_555 1_555
C35A H29A 1_555 1_555
C35A C36A 1_555 1_555
H28A C36A 1_555 1_555
C36A H30A 1_555 1_555
C36A C37A 1_555 1_555
H31A C37A 1_555 1_555
C37A H33A 1_555 1_555
C37A C38A 1_555 1_555
H34A H36A 1_555 1_555
C38A H36A 1_555 1_555
C38A H38A 1_555 1_555
C38A C39A 1_555 1_555
H37A C39A 1_555 1_555
C39A H39A 1_555 1_555
C39A H40A 1_555 1_555
C39A H41A 1_555 1_555
C1V C2V 1_555 1_555
C1V C6V 1_555 1_555
C2V C3V 1_555 1_555
C3V H2V 1_555 1_555
C3V C4V 1_555 1_555
C4V C5V 1_555 1_555
C5V C6V 1_555 1_555
O3V N3V 1_555 1_555
C17V O8V 1_555 1_555
C20V C21V 1_555 1_555
C22V N4V 1_555 1_555
N4V O4V 1_555 1_555
C24V C25V 1_555 1_555
C30V C31V 1_555 1_555
C30V C32V 1_555 1_555
C30V C33V 1_555 1_555
C31V H15V 1_555 1_555
C31V H16V 1_555 1_555
C31V H17V 1_555 1_555
C32V H18V 1_555 1_555
C32V H19V 1_555 1_555
C32V H20V 1_555 1_555
C33V H21V 1_555 1_555
C33V H22V 1_555 1_555
C33V H23V 1_555 1_555
C34V C35V 1_555 1_555
C34V C39V 1_555 1_555
H24V C35V 1_555 1_555
C35V H27V 1_555 1_555
C35V H29V 1_555 1_555
C35V C36V 1_555 1_555
H28V C36V 1_555 1_555
C36V H30V 1_555 1_555
C36V C37V 1_555 1_555
H31V C37V 1_555 1_555
C37V H33V 1_555 1_555
C37V C38V 1_555 1_555
H34V H36V 1_555 1_555
C38V H36V 1_555 1_555
C38V H38V 1_555 1_555
C38V C39V 1_555 1_555
H37V C39V 1_555 1_555
C39V H39V 1_555 1_555
C39V H40V 1_555 1_555
C39V H41V 1_555 1_555
Co2B O7B 1_555 1_555
Co2B O8B 1_555 1_555
Co2B O8U 1_555 1_555
C2B C2U 1_555 1_555
C3B C2U 1_555 1_555
C3B C3U 1_555 1_555
C4B C3U 1_555 1_555
C5B C6B 1_555 1_555
C5B C4U 1_555 1_555
C5B C5U 1_555 1_555
C6B C1U 1_555 1_555
C6B C6U 1_555 1_555
B1B C1U 1_555 1_555
C9B O7B 1_555 1_555
C12B C13B 1_555 1_555
O3B N3B 1_555 1_555
C17B O8B 1_555 1_555
C20B C21B 1_555 1_555
C22B N4B 1_555 1_555
N4B O4B 1_555 1_555
C27B O5B 1_555 1_555
C27B O6B 1_555 1_555
C27B C4U 1_555 1_555
C31B C30U 1_555 1_555
C31B C33U 1_555 1_555
H15B C33U 1_555 1_555
H17B H21U 1_555 1_555
C32B C30U 1_555 1_555
C32B C32U 1_555 1_555
C32B C33U 1_555 1_555
H20B C32U 1_555 1_555
C33B C30U 1_555 1_555
C33B C31U 1_555 1_555
C33B C32U 1_555 1_555
H21B C31U 1_555 1_555
H23B H17U 1_555 1_555
C34B C35B 1_555 1_555
C34B C39B 1_555 1_555
H24B C35B 1_555 1_555
C35B H27B 1_555 1_555
C35B H29B 1_555 1_555
C35B C36B 1_555 1_555
H28B C36B 1_555 1_555
C36B H30B 1_555 1_555
C36B C37B 1_555 1_555
H31B C37B 1_555 1_555
C37B H33B 1_555 1_555
C37B C38B 1_555 1_555
H34B H36B 1_555 1_555
C38B H36B 1_555 1_555
C38B H38B 1_555 1_555
C38B C39B 1_555 1_555
H37B C39B 1_555 1_555
C39B H39B 1_555 1_555
C39B H40B 1_555 1_555
C39B H41B 1_555 1_555
C1U C2U 1_555 1_555
C1U C6U 1_555 1_555
C2U C3U 1_555 1_555
C3U H2U 1_555 1_555
C3U C4U 1_555 1_555
C4U C5U 1_555 1_555
C5U C6U 1_555 1_555
O3U N3U 1_555 1_555
C17U O8U 1_555 1_555
C20U C21U 1_555 1_555
C22U N4U 1_555 1_555
N4U O4U 1_555 1_555
C24U C25U 1_555 1_555
C30U C31U 1_555 1_555
C30U C32U 1_555 1_555
C30U C33U 1_555 1_555
C31U H15U 1_555 1_555
C31U H16U 1_555 1_555
C31U H17U 1_555 1_555
C32U H18U 1_555 1_555
C32U H19U 1_555 1_555
C32U H20U 1_555 1_555
C33U H21U 1_555 1_555
C33U H22U 1_555 1_555
C33U H23U 1_555 1_555
C34U C35U 1_555 1_555
C34U C39U 1_555 1_555
H24U C35U 1_555 1_555
C35U H27U 1_555 1_555
C35U H29U 1_555 1_555
C35U C36U 1_555 1_555
H28U C36U 1_555 1_555
C36U H30U 1_555 1_555
C36U C37U 1_555 1_555
H31U C37U 1_555 1_555
C37U H33U 1_555 1_555
C37U C38U 1_555 1_555
H34U H36U 1_555 1_555
C38U H36U 1_555 1_555
C38U H38U 1_555 1_555
C38U C39U 1_555 1_555
H37U C39U 1_555 1_555
C39U H39U 1_555 1_555
C39U H40U 1_555 1_555
C39U H41U 1_555 1_555

#END
