
#######################################################################
#
#                 Cambridge Crystallographic Data Centre
#                                CCDC 
#
#######################################################################
#
# If this CIF has been generated from an entry in the Cambridge 
# Structural Database, then it will include bibliographic, chemical, 
# crystal, experimental, refinement or atomic coordinate data resulting 
# from the CCDC's data processing and validation procedures.
#
#######################################################################

data_OKUJOV
_chemical_formula_moiety         'C162 H168 B6 N18 O46 Zn16'
_symmetry_cell_setting           rhombohedral
_symmetry_space_group_name_H-M   'R -3 m'
_symmetry_Int_Tables_number      166
_space_group_name_Hall           '-P 3* 2'
loop_
_symmetry_equiv_pos_site_id
_symmetry_equiv_pos_as_xyz
1 x,y,z
2 z,x,y
3 y,z,x
4 -y,-x,-z
5 -x,-z,-y
6 -z,-y,-x
7 -x,-y,-z
8 -z,-x,-y
9 -y,-z,-x
10 y,x,z
11 x,z,y
12 z,y,x
_cell_length_a                   27.750(5)
_cell_length_b                   27.750(5)
_cell_length_c                   27.750(5)
_cell_angle_alpha                70.755(7)
_cell_angle_beta                 70.755(7)
_cell_angle_gamma                70.755(7)
_cell_volume                     18453.1
loop_
_atom_site_label
_atom_site_type_symbol
_atom_site_fract_x
_atom_site_fract_y
_atom_site_fract_z
Zn1 Zn 0.93724(10) 0.38353(7) 0.38353(7)
Zn2 Zn 0.83677(9) 0.37573(6) 0.37573(6)
Zn3 Zn 0.41684(7) 0.41684(7) 0.41684(7)
Zn4 Zn 0.44230(10) 0.34303(6) 0.34303(6)
C1 C 0.6766(5) 0.3664(4) 0.3664(4)
C2 C 0.5760(5) 0.3645(4) 0.3645(4)
B1 B 0.7330(6) 0.3680(5) 0.3680(5)
O1 O 0.7329(4) 0.3482(4) 0.4237(4)
N1 N 0.7792(5) 0.3446(5) 0.4352(5)
C3 C 0.7762(5) 0.3222(6) 0.4838(5)
H1 H 0.7450 0.3109 0.5040
C4 C 0.8163(5) 0.3123(5) 0.5110(5)
C5 C 0.8637(5) 0.3303(6) 0.4849(5)
C6 C 0.9006(5) 0.3183(6) 0.5160(5)
C7 C 0.8910(5) 0.2870(7) 0.5682(5)
H2 H 0.9162 0.2788 0.5878
C8 C 0.8464(5) 0.2677(6) 0.5920(5)
C9 C 0.8093(6) 0.2811(7) 0.5632(5)
H3 H 0.7782 0.2687 0.5792
C10 C 0.9491(5) 0.3356(7) 0.4966(6)
H4 H 0.9700 0.3271 0.5208
N2 N 0.9656(5) 0.3611(6) 0.4502(5)
O2 O 1.0139(4) 0.3691(5) 0.4460(5)
B2 B 1.0403(7) 0.3948(8) 0.3948(8)
O3 O 0.7736(5) 0.3352(3) 0.3352(3)
N3 N 0.8245(6) 0.3320(4) 0.3320(4)
C11 C 0.8570(5) 0.3027(4) 0.3027(4)
H5 H 0.8428 0.2868 0.2868
C12 C 0.9139(5) 0.2914(3) 0.2914(3)
C13 C 0.9409(6) 0.3123(4) 0.3123(4)
C14 C 0.9975(6) 0.2977(4) 0.2977(4)
C15 C 1.0239(7) 0.2640(4) 0.2640(4)
H6 H 1.0613 0.2547 0.2547
C16 C 0.9973(6) 0.2438(3) 0.2438(3)
C17 C 0.9429(6) 0.2578(4) 0.2578(4)
H7 H 0.9244 0.2441 0.2441
C18 C 1.0288(8) 0.3169(6) 0.3169(6)
H8 H 1.0658 0.3046 0.3046
N4 N 1.0150(6) 0.3481(5) 0.3481(5)
O4 O 1.0563(7) 0.3577(6) 0.3577(6)
C19 C 1.0976(7) 0.3952(6) 0.3952(6)
C20 C 1.1235(5) 0.3603(6) 0.4333(5)
H9 H 1.1066 0.3349 0.4596
C21 C 1.1725(5) 0.3608(6) 0.4348(6)
H10 H 1.1891 0.3352 0.4609
C22 C 1.1977(6) 0.3985(5) 0.3985(5)
C23 C 0.5223(6) 0.3636(5) 0.3636(5)
O5 O 0.4856(7) 0.3916(5) 0.3916(5)
O6 O 0.5177(6) 0.3376(4) 0.3376(4)
O7 O 0.8719(4) 0.3583(5) 0.4372(4)
C24 C 0.8386(7) 0.2332(8) 0.6488(5)
O8 O 0.9147(5) 0.3430(3) 0.3430(3)
C25 C 1.2505(6) 0.4007(5) 0.4007(5)
O9 O 1.2712(4) 0.3662(4) 0.4355(4)
O10 O 0.3851(3) 0.3851(3) 0.3851(3)
C26 C 1.0263(8) 0.2081(9) 0.2054(9)
C27 C 1.0806(10) 0.2180(14) 0.1778(13)
H11 H 1.0770 0.2541 0.1556
H12 H 1.0993 0.2131 0.2041
H13 H 1.1005 0.1930 0.1558
C28 C 0.9951(13) 0.2221(16) 0.1641(12)
H14 H 0.9599 0.2159 0.1816
H15 H 0.9917 0.2594 0.1453
H16 H 1.0137 0.2001 0.1390
C29 C 1.0281(15) 0.1528(9) 0.2409(15)
H17 H 0.9921 0.1487 0.2576
H18 H 1.0473 0.1269 0.2198
H19 H 1.0460 0.1470 0.2681
C30 C 0.8890(10) 0.1924(14) 0.6589(13)
H20 H 0.8821 0.1714 0.6954
H21 H 0.9009 0.1692 0.6350
H22 H 0.9163 0.2103 0.6528
C31 C 0.7968(14) 0.2024(16) 0.6625(13)
H23 H 0.7635 0.2270 0.6566
H24 H 0.8087 0.1777 0.6401
H25 H 0.7917 0.1828 0.6996
C32 C 0.8172(15) 0.2716(12) 0.6846(11)
H26 H 0.7849 0.2968 0.6764
H27 H 0.8095 0.2518 0.7215
H28 H 0.8437 0.2906 0.6786
C33 C 0.6303(6) 0.3947(4) 0.3947(4)
H29 H 0.6329 0.4150 0.4150
C34 C 0.5808(6) 0.3940(5) 0.3940(5)
H30 H 0.5502 0.4137 0.4137
C35 C 0.6213(7) 0.3361(4) 0.3361(4)
H31 H 0.6186 0.3158 0.3158
C36 C 0.6703(6) 0.3373(4) 0.3373(4)
H32 H 0.7008 0.3176 0.3176
O1J O 0.7329(4) 0.4237(4) 0.3482(4)
N1J N 0.7792(5) 0.4352(5) 0.3446(5)
C3J C 0.7762(5) 0.4838(5) 0.3222(6)
H1J H 0.7450 0.5040 0.3109
C4J C 0.8163(5) 0.5110(5) 0.3123(5)
C5J C 0.8637(5) 0.4849(5) 0.3303(6)
C6J C 0.9006(5) 0.5160(5) 0.3183(6)
C7J C 0.8910(5) 0.5682(5) 0.2870(7)
H2J H 0.9162 0.5878 0.2788
C8J C 0.8464(5) 0.5920(5) 0.2677(6)
C9J C 0.8093(6) 0.5632(5) 0.2811(7)
H3J H 0.7782 0.5792 0.2687
C10J C 0.9491(5) 0.4966(6) 0.3356(7)
H4J H 0.9700 0.5208 0.3271
N2J N 0.9656(5) 0.4502(5) 0.3611(6)
O2J O 1.0139(4) 0.4460(5) 0.3691(5)
C20J C 1.1235(5) 0.4333(5) 0.3603(6)
H9J H 1.1066 0.4596 0.3349
C21J C 1.1725(5) 0.4348(6) 0.3608(6)
H10J H 1.1891 0.4609 0.3352
O7J O 0.8719(4) 0.4372(4) 0.3583(5)
C24J C 0.8386(7) 0.6488(5) 0.2332(8)
O9J O 1.2712(4) 0.4355(4) 0.3662(4)
C26J C 1.0263(8) 0.2054(9) 0.2081(9)
C27J C 1.0806(10) 0.1778(13) 0.2180(14)
H11J H 1.0770 0.1556 0.2541
H12J H 1.0993 0.2041 0.2131
H13J H 1.1005 0.1558 0.1930
C28J C 0.9951(13) 0.1641(12) 0.2221(16)
H14J H 0.9599 0.1816 0.2159
H15J H 0.9917 0.1453 0.2594
H16J H 1.0137 0.1390 0.2001
C29J C 1.0281(15) 0.2409(15) 0.1528(9)
H17J H 0.9921 0.2576 0.1487
H18J H 1.0473 0.2198 0.1269
H19J H 1.0460 0.2681 0.1470
C30J C 0.8890(10) 0.6589(13) 0.1924(14)
H20J H 0.8821 0.6954 0.1714
H21J H 0.9009 0.6350 0.1692
H22J H 0.9163 0.6528 0.2103
C31J C 0.7968(14) 0.6625(13) 0.2024(16)
H23J H 0.7635 0.6566 0.2270
H24J H 0.8087 0.6401 0.1777
H25J H 0.7917 0.6996 0.1828
C32J C 0.8172(15) 0.6846(11) 0.2716(12)
H26J H 0.7849 0.6764 0.2968
H27J H 0.8095 0.7215 0.2518
H28J H 0.8437 0.6786 0.2906
Zn1A Zn 0.38353(7) 0.93724(10) 0.38353(7)
Zn2A Zn 0.37573(6) 0.83677(9) 0.37573(6)
Zn4A Zn 0.34303(6) 0.44230(10) 0.34303(6)
C1A C 0.3664(4) 0.6766(5) 0.3664(4)
C2A C 0.3645(4) 0.5760(5) 0.3645(4)
B1A B 0.3680(5) 0.7330(6) 0.3680(5)
O1A O 0.4237(4) 0.7329(4) 0.3482(4)
N1A N 0.4352(5) 0.7792(5) 0.3446(5)
C3A C 0.4838(5) 0.7762(5) 0.3222(6)
H1A H 0.5040 0.7450 0.3109
C4A C 0.5110(5) 0.8163(5) 0.3123(5)
C5A C 0.4849(5) 0.8637(5) 0.3303(6)
C6A C 0.5160(5) 0.9006(5) 0.3183(6)
C7A C 0.5682(5) 0.8910(5) 0.2870(7)
H2A H 0.5878 0.9162 0.2788
C8A C 0.5920(5) 0.8464(5) 0.2677(6)
C9A C 0.5632(5) 0.8093(6) 0.2811(7)
H3A H 0.5792 0.7782 0.2687
C10A C 0.4966(6) 0.9491(5) 0.3356(7)
H4A H 0.5208 0.9700 0.3271
N2A N 0.4502(5) 0.9656(5) 0.3611(6)
O2A O 0.4460(5) 1.0139(4) 0.3691(5)
B2A B 0.3948(8) 1.0403(7) 0.3948(8)
O3A O 0.3352(3) 0.7736(5) 0.3352(3)
N3A N 0.3320(4) 0.8245(6) 0.3320(4)
C11A C 0.3027(4) 0.8570(5) 0.3027(4)
H5A H 0.2868 0.8428 0.2868
C12A C 0.2914(3) 0.9139(5) 0.2914(3)
C13A C 0.3123(4) 0.9409(6) 0.3123(4)
C14A C 0.2977(4) 0.9975(6) 0.2977(4)
C15A C 0.2640(4) 1.0239(7) 0.2640(4)
H6A H 0.2547 1.0613 0.2547
C16A C 0.2438(3) 0.9973(6) 0.2438(3)
C17A C 0.2578(4) 0.9429(6) 0.2578(4)
H7A H 0.2441 0.9244 0.2441
C18A C 0.3169(6) 1.0288(8) 0.3169(6)
H8A H 0.3046 1.0658 0.3046
N4A N 0.3481(5) 1.0150(6) 0.3481(5)
O4A O 0.3577(6) 1.0563(7) 0.3577(6)
C19A C 0.3952(6) 1.0976(7) 0.3952(6)
C20A C 0.4333(5) 1.1235(5) 0.3603(6)
H9A H 0.4596 1.1066 0.3349
C21A C 0.4348(6) 1.1725(5) 0.3608(6)
H10A H 0.4609 1.1891 0.3352
C22A C 0.3985(5) 1.1977(6) 0.3985(5)
C23A C 0.3636(5) 0.5223(6) 0.3636(5)
O5A O 0.3916(5) 0.4856(7) 0.3916(5)
O6A O 0.3376(4) 0.5177(6) 0.3376(4)
O7A O 0.4372(4) 0.8719(4) 0.3583(5)
C24A C 0.6488(5) 0.8386(7) 0.2332(8)
O8A O 0.3430(3) 0.9147(5) 0.3430(3)
C25A C 0.4007(5) 1.2505(6) 0.4007(5)
O9A O 0.4355(4) 1.2712(4) 0.3662(4)
C26A C 0.2054(9) 1.0263(8) 0.2081(9)
C27A C 0.1778(13) 1.0806(10) 0.2180(14)
H11A H 0.1556 1.0770 0.2541
H12A H 0.2041 1.0993 0.2131
H13A H 0.1558 1.1005 0.1930
C28A C 0.1641(12) 0.9951(13) 0.2221(16)
H14A H 0.1816 0.9599 0.2159
H15A H 0.1453 0.9917 0.2594
H16A H 0.1390 1.0137 0.2001
C29A C 0.2409(15) 1.0281(15) 0.1528(9)
H17A H 0.2576 0.9921 0.1487
H18A H 0.2198 1.0473 0.1269
H19A H 0.2681 1.0460 0.1470
C30A C 0.6589(13) 0.8890(10) 0.1924(14)
H20A H 0.6954 0.8821 0.1714
H21A H 0.6350 0.9009 0.1692
H22A H 0.6528 0.9163 0.2103
C31A C 0.6625(13) 0.7968(14) 0.2024(16)
H23A H 0.6566 0.7635 0.2270
H24A H 0.6401 0.8087 0.1777
H25A H 0.6996 0.7917 0.1828
C32A C 0.6846(11) 0.8172(15) 0.2716(12)
H26A H 0.6764 0.7849 0.2968
H27A H 0.7215 0.8095 0.2518
H28A H 0.6786 0.8437 0.2906
C33A C 0.3947(4) 0.6303(6) 0.3947(4)
H29A H 0.4150 0.6329 0.4150
C34A C 0.3940(5) 0.5808(6) 0.3940(5)
H30A H 0.4137 0.5502 0.4137
C35A C 0.3361(4) 0.6213(7) 0.3361(4)
H31A H 0.3158 0.6186 0.3158
C36A C 0.3373(4) 0.6703(6) 0.3373(4)
H32A H 0.3176 0.7008 0.3176
O1I O 0.3482(4) 0.7329(4) 0.4237(4)
N1I N 0.3446(5) 0.7792(5) 0.4352(5)
C3I C 0.3222(6) 0.7762(5) 0.4838(5)
H1I H 0.3109 0.7450 0.5040
C4I C 0.3123(5) 0.8163(5) 0.5110(5)
C5I C 0.3303(6) 0.8637(5) 0.4849(5)
C6I C 0.3183(6) 0.9006(5) 0.5160(5)
C7I C 0.2870(7) 0.8910(5) 0.5682(5)
H2I H 0.2788 0.9162 0.5878
C8I C 0.2677(6) 0.8464(5) 0.5920(5)
C9I C 0.2811(7) 0.8093(6) 0.5632(5)
H3I H 0.2687 0.7782 0.5792
C10I C 0.3356(7) 0.9491(5) 0.4966(6)
H4I H 0.3271 0.9700 0.5208
N2I N 0.3611(6) 0.9656(5) 0.4502(5)
O2I O 0.3691(5) 1.0139(4) 0.4460(5)
C20I C 0.3603(6) 1.1235(5) 0.4333(5)
H9I H 0.3349 1.1066 0.4596
C21I C 0.3608(6) 1.1725(5) 0.4348(6)
H10I H 0.3352 1.1891 0.4609
O7I O 0.3583(5) 0.8719(4) 0.4372(4)
C24I C 0.2332(8) 0.8386(7) 0.6488(5)
O9I O 0.3662(4) 1.2712(4) 0.4355(4)
C26I C 0.2081(9) 1.0263(8) 0.2054(9)
C27I C 0.2180(14) 1.0806(10) 0.1778(13)
H11I H 0.2541 1.0770 0.1556
H12I H 0.2131 1.0993 0.2041
H13I H 0.1930 1.1005 0.1558
C28I C 0.2221(16) 0.9951(13) 0.1641(12)
H14I H 0.2159 0.9599 0.1816
H15I H 0.2594 0.9917 0.1453
H16I H 0.2001 1.0137 0.1390
C29I C 0.1528(9) 1.0281(15) 0.2409(15)
H17I H 0.1487 0.9921 0.2576
H18I H 0.1269 1.0473 0.2198
H19I H 0.1470 1.0460 0.2681
C30I C 0.1924(14) 0.8890(10) 0.6589(13)
H20I H 0.1714 0.8821 0.6954
H21I H 0.1692 0.9009 0.6350
H22I H 0.2103 0.9163 0.6528
C31I C 0.2024(16) 0.7968(14) 0.6625(13)
H23I H 0.2270 0.7635 0.6566
H24I H 0.1777 0.8087 0.6401
H25I H 0.1828 0.7917 0.6996
C32I C 0.2716(12) 0.8172(15) 0.6846(11)
H26I H 0.2968 0.7849 0.6764
H27I H 0.2518 0.8095 0.7215
H28I H 0.2906 0.8437 0.6786
Zn1B Zn 0.38353(7) 0.38353(7) 0.93724(10)
Zn2B Zn 0.37573(6) 0.37573(6) 0.83677(9)
Zn4B Zn 0.34303(6) 0.34303(6) 0.44230(10)
C1B C 0.3664(4) 0.3664(4) 0.6766(5)
C2B C 0.3645(4) 0.3645(4) 0.5760(5)
B1B B 0.3680(5) 0.3680(5) 0.7330(6)
O1B O 0.3482(4) 0.4237(4) 0.7329(4)
N1B N 0.3446(5) 0.4352(5) 0.7792(5)
C3B C 0.3222(6) 0.4838(5) 0.7762(5)
H1B H 0.3109 0.5040 0.7450
C4B C 0.3123(5) 0.5110(5) 0.8163(5)
C5B C 0.3303(6) 0.4849(5) 0.8637(5)
C6B C 0.3183(6) 0.5160(5) 0.9006(5)
C7B C 0.2870(7) 0.5682(5) 0.8910(5)
H2B H 0.2788 0.5878 0.9162
C8B C 0.2677(6) 0.5920(5) 0.8464(5)
C9B C 0.2811(7) 0.5632(5) 0.8093(6)
H3B H 0.2687 0.5792 0.7782
C10B C 0.3356(7) 0.4966(6) 0.9491(5)
H4B H 0.3271 0.5208 0.9700
N2B N 0.3611(6) 0.4502(5) 0.9656(5)
O2B O 0.3691(5) 0.4460(5) 1.0139(4)
B2B B 0.3948(8) 0.3948(8) 1.0403(7)
O3B O 0.3352(3) 0.3352(3) 0.7736(5)
N3B N 0.3320(4) 0.3320(4) 0.8245(6)
C11B C 0.3027(4) 0.3027(4) 0.8570(5)
H5B H 0.2868 0.2868 0.8428
C12B C 0.2914(3) 0.2914(3) 0.9139(5)
C13B C 0.3123(4) 0.3123(4) 0.9409(6)
C14B C 0.2977(4) 0.2977(4) 0.9975(6)
C15B C 0.2640(4) 0.2640(4) 1.0239(7)
H6B H 0.2547 0.2547 1.0613
C16B C 0.2438(3) 0.2438(3) 0.9973(6)
C17B C 0.2578(4) 0.2578(4) 0.9429(6)
H7B H 0.2441 0.2441 0.9244
C18B C 0.3169(6) 0.3169(6) 1.0288(8)
H8B H 0.3046 0.3046 1.0658
N4B N 0.3481(5) 0.3481(5) 1.0150(6)
O4B O 0.3577(6) 0.3577(6) 1.0563(7)
C19B C 0.3952(6) 0.3952(6) 1.0976(7)
C20B C 0.3603(6) 0.4333(5) 1.1235(5)
H9B H 0.3349 0.4596 1.1066
C21B C 0.3608(6) 0.4348(6) 1.1725(5)
H10B H 0.3352 0.4609 1.1891
C22B C 0.3985(5) 0.3985(5) 1.1977(6)
C23B C 0.3636(5) 0.3636(5) 0.5223(6)
O5B O 0.3916(5) 0.3916(5) 0.4856(7)
O6B O 0.3376(4) 0.3376(4) 0.5177(6)
O7B O 0.3583(5) 0.4372(4) 0.8719(4)
C24B C 0.2332(8) 0.6488(5) 0.8386(7)
O8B O 0.3430(3) 0.3430(3) 0.9147(5)
C25B C 0.4007(5) 0.4007(5) 1.2505(6)
O9B O 0.3662(4) 0.4355(4) 1.2712(4)
C26B C 0.2081(9) 0.2054(9) 1.0263(8)
C27B C 0.2180(14) 0.1778(13) 1.0806(10)
H11B H 0.2541 0.1556 1.0770
H12B H 0.2131 0.2041 1.0993
H13B H 0.1930 0.1558 1.1005
C28B C 0.2221(16) 0.1641(12) 0.9951(13)
H14B H 0.2159 0.1816 0.9599
H15B H 0.2594 0.1453 0.9917
H16B H 0.2001 0.1390 1.0137
C29B C 0.1528(9) 0.2409(15) 1.0281(15)
H17B H 0.1487 0.2576 0.9921
H18B H 0.1269 0.2198 1.0473
H19B H 0.1470 0.2681 1.0460
C30B C 0.1924(14) 0.6589(13) 0.8890(10)
H20B H 0.1714 0.6954 0.8821
H21B H 0.1692 0.6350 0.9009
H22B H 0.2103 0.6528 0.9163
C31B C 0.2024(16) 0.6625(13) 0.7968(14)
H23B H 0.2270 0.6566 0.7635
H24B H 0.1777 0.6401 0.8087
H25B H 0.1828 0.6996 0.7917
C32B C 0.2716(12) 0.6846(11) 0.8172(15)
H26B H 0.2968 0.6764 0.7849
H27B H 0.2518 0.7215 0.8095
H28B H 0.2906 0.6786 0.8437
C33B C 0.3947(4) 0.3947(4) 0.6303(6)
H29B H 0.4150 0.4150 0.6329
C34B C 0.3940(5) 0.3940(5) 0.5808(6)
H30B H 0.4137 0.4137 0.5502
C35B C 0.3361(4) 0.3361(4) 0.6213(7)
H31B H 0.3158 0.3158 0.6186
C36B C 0.3373(4) 0.3373(4) 0.6703(6)
H32B H 0.3176 0.3176 0.7008
O1K O 0.4237(4) 0.3482(4) 0.7329(4)
N1K N 0.4352(5) 0.3446(5) 0.7792(5)
C3K C 0.4838(5) 0.3222(6) 0.7762(5)
H1K H 0.5040 0.3109 0.7450
C4K C 0.5110(5) 0.3123(5) 0.8163(5)
C5K C 0.4849(5) 0.3303(6) 0.8637(5)
C6K C 0.5160(5) 0.3183(6) 0.9006(5)
C7K C 0.5682(5) 0.2870(7) 0.8910(5)
H2K H 0.5878 0.2788 0.9162
C8K C 0.5920(5) 0.2677(6) 0.8464(5)
C9K C 0.5632(5) 0.2811(7) 0.8093(6)
H3K H 0.5792 0.2687 0.7782
C10K C 0.4966(6) 0.3356(7) 0.9491(5)
H4K H 0.5208 0.3271 0.9700
N2K N 0.4502(5) 0.3611(6) 0.9656(5)
O2K O 0.4460(5) 0.3691(5) 1.0139(4)
C20K C 0.4333(5) 0.3603(6) 1.1235(5)
H9K H 0.4596 0.3349 1.1066
C21K C 0.4348(6) 0.3608(6) 1.1725(5)
H10K H 0.4609 0.3352 1.1891
O7K O 0.4372(4) 0.3583(5) 0.8719(4)
C24K C 0.6488(5) 0.2332(8) 0.8386(7)
O9K O 0.4355(4) 0.3662(4) 1.2712(4)
C26K C 0.2054(9) 0.2081(9) 1.0263(8)
C27K C 0.1778(13) 0.2180(14) 1.0806(10)
H11K H 0.1556 0.2541 1.0770
H12K H 0.2041 0.2131 1.0993
H13K H 0.1558 0.1930 1.1005
C28K C 0.1641(12) 0.2221(16) 0.9951(13)
H14K H 0.1816 0.2159 0.9599
H15K H 0.1453 0.2594 0.9917
H16K H 0.1390 0.2001 1.0137
C29K C 0.2409(15) 0.1528(9) 1.0281(15)
H17K H 0.2576 0.1487 0.9921
H18K H 0.2198 0.1269 1.0473
H19K H 0.2681 0.1470 1.0460
C30K C 0.6589(13) 0.1924(14) 0.8890(10)
H20K H 0.6954 0.1714 0.8821
H21K H 0.6350 0.1692 0.9009
H22K H 0.6528 0.2103 0.9163
C31K C 0.6625(13) 0.2024(16) 0.7968(14)
H23K H 0.6566 0.2270 0.7635
H24K H 0.6401 0.1777 0.8087
H25K H 0.6996 0.1828 0.7917
C32K C 0.6846(11) 0.2716(12) 0.8172(15)
H26K H 0.6764 0.2968 0.7849
H27K H 0.7215 0.2518 0.8095
H28K H 0.6786 0.2906 0.8437
Zn4_2 Zn 0.44230(10) 0.34303(6) 1.34303(6)
Zn4_3 Zn 0.44230(10) 1.34303(6) 0.34303(6)
Zn4A_2 Zn 0.34303(6) 0.44230(10) 1.34303(6)
Zn4A_3 Zn 1.34303(6) 0.44230(10) 0.34303(6)
Zn4B_2 Zn 0.34303(6) 1.34303(6) 0.44230(10)
Zn4B_3 Zn 1.34303(6) 0.34303(6) 0.44230(10)
O9_2 O 0.2712(4) 0.3662(4) 0.4355(4)
O9A_2 O 0.4355(4) 0.2712(4) 0.3662(4)
O9B_2 O 0.3662(4) 0.4355(4) 0.2712(4)
O9I_2 O 0.3662(4) 0.2712(4) 0.4355(4)
O9J_2 O 0.2712(4) 0.4355(4) 0.3662(4)
O9K_2 O 0.4355(4) 0.3662(4) 0.2712(4)
loop_
_geom_bond_atom_site_label_1
_geom_bond_atom_site_label_2
_geom_bond_site_symmetry_1
_geom_bond_site_symmetry_2
Zn1 N2 1_555 1_555
Zn2 N1 1_555 1_555
Zn3 O5 1_555 1_555
Zn4 O6 1_555 1_555
C1 B1 1_555 1_555
C2 C23 1_555 1_555
B1 O1 1_555 1_555
O1 N1 1_555 1_555
N1 C3 1_555 1_555
C3 H1 1_555 1_555
C4 C3 1_555 1_555
C5 C4 1_555 1_555
C6 C5 1_555 1_555
C7 C6 1_555 1_555
H2 C7 1_555 1_555
C8 C7 1_555 1_555
C9 C4 1_555 1_555
H3 C9 1_555 1_555
C10 C6 1_555 1_555
H4 C10 1_555 1_555
N2 C10 1_555 1_555
O2 N2 1_555 1_555
B2 O2 1_555 1_555
O3 B1 1_555 1_555
N3 Zn2 1_555 1_555
C11 N3 1_555 1_555
H5 C11 1_555 1_555
C12 C11 1_555 1_555
C13 C12 1_555 1_555
C14 C13 1_555 1_555
C15 C14 1_555 1_555
H6 C15 1_555 1_555
C16 C15 1_555 1_555
C17 C12 1_555 1_555
H7 C17 1_555 1_555
C18 C14 1_555 1_555
H8 C18 1_555 1_555
N4 Zn1 1_555 1_555
O4 B2 1_555 1_555
C19 B2 1_555 1_555
C20 C19 1_555 1_555
H9 C20 1_555 1_555
C21 C20 1_555 1_555
H10 C21 1_555 1_555
C22 C21 1_555 1_555
C23 O5 1_555 1_555
O6 C23 1_555 1_555
O7 Zn1 1_555 1_555
C24 C8 1_555 1_555
O8 Zn1 1_555 1_555
C25 C22 1_555 1_555
O9 C25 1_555 1_555
O10 Zn3 1_555 1_555
C26 C16 1_555 1_555
C27 C26 1_555 1_555
H11 C27 1_555 1_555
H12 C27 1_555 1_555
H13 C27 1_555 1_555
C28 C26 1_555 1_555
H14 C28 1_555 1_555
H15 C28 1_555 1_555
H16 C28 1_555 1_555
C29 C26 1_555 1_555
H17 C29 1_555 1_555
H18 C29 1_555 1_555
H19 C29 1_555 1_555
C30 C24 1_555 1_555
H20 C30 1_555 1_555
H21 C30 1_555 1_555
H22 C30 1_555 1_555
C31 C24 1_555 1_555
H23 C31 1_555 1_555
H24 C31 1_555 1_555
H25 C31 1_555 1_555
C32 C24 1_555 1_555
H26 C32 1_555 1_555
H27 C32 1_555 1_555
H28 C32 1_555 1_555
C33 C1 1_555 1_555
H29 C33 1_555 1_555
C34 C2 1_555 1_555
H30 C34 1_555 1_555
C35 C2 1_555 1_555
H31 C35 1_555 1_555
C36 C1 1_555 1_555
H32 C36 1_555 1_555
O1J B1 1_555 1_555
N1J Zn2 1_555 1_555
C3J N1J 1_555 1_555
H1J C3J 1_555 1_555
C4J C3J 1_555 1_555
C5J C4J 1_555 1_555
C6J C5J 1_555 1_555
C7J C6J 1_555 1_555
H2J C7J 1_555 1_555
C8J C7J 1_555 1_555
C9J C4J 1_555 1_555
H3J C9J 1_555 1_555
C10J C6J 1_555 1_555
H4J C10J 1_555 1_555
N2J Zn1 1_555 1_555
O2J B2 1_555 1_555
C20J C19 1_555 1_555
H9J C20J 1_555 1_555
C21J C22 1_555 1_555
H10J C21J 1_555 1_555
O7J Zn1 1_555 1_555
C24J C8J 1_555 1_555
O9J C25 1_555 1_555
C26J C16 1_555 1_555
C27J C26 1_555 1_555
H11J C27J 1_555 1_555
H12J C27 1_555 1_555
H13J C27J 1_555 1_555
C28J C26 1_555 1_555
H14J C28J 1_555 1_555
H15J C29 1_555 1_555
H16J C28J 1_555 1_555
C29J C26 1_555 1_555
H17J C28 1_555 1_555
H18J C29J 1_555 1_555
H19J C29J 1_555 1_555
C30J C24J 1_555 1_555
H20J C30J 1_555 1_555
H21J C30J 1_555 1_555
H22J C30J 1_555 1_555
C31J C24J 1_555 1_555
H23J C31J 1_555 1_555
H24J C31J 1_555 1_555
H25J C31J 1_555 1_555
C32J C24J 1_555 1_555
H26J C32J 1_555 1_555
H27J C32J 1_555 1_555
H28J C32J 1_555 1_555
Zn1A N2A 1_555 1_555
Zn2A N1A 1_555 1_555
Zn4A O10 1_555 1_555
C1A B1A 1_555 1_555
C2A C23A 1_555 1_555
B1A O1A 1_555 1_555
O1A N1A 1_555 1_555
N1A C3A 1_555 1_555
C3A H1A 1_555 1_555
C4A C3A 1_555 1_555
C5A C4A 1_555 1_555
C6A C5A 1_555 1_555
C7A C6A 1_555 1_555
H2A C7A 1_555 1_555
C8A C7A 1_555 1_555
C9A C4A 1_555 1_555
H3A C9A 1_555 1_555
C10A C6A 1_555 1_555
H4A C10A 1_555 1_555
N2A C10A 1_555 1_555
O2A N2A 1_555 1_555
B2A O2A 1_555 1_555
O3A B1A 1_555 1_555
N3A Zn2A 1_555 1_555
C11A N3A 1_555 1_555
H5A C11A 1_555 1_555
C12A C11A 1_555 1_555
C13A C12A 1_555 1_555
C14A C13A 1_555 1_555
C15A C14A 1_555 1_555
H6A C15A 1_555 1_555
C16A C15A 1_555 1_555
C17A C12A 1_555 1_555
H7A C17A 1_555 1_555
C18A C14A 1_555 1_555
H8A C18A 1_555 1_555
N4A Zn1A 1_555 1_555
O4A B2A 1_555 1_555
C19A B2A 1_555 1_555
C20A C19A 1_555 1_555
H9A C20A 1_555 1_555
C21A C20A 1_555 1_555
H10A C21A 1_555 1_555
C22A C21A 1_555 1_555
C23A O5A 1_555 1_555
O5A Zn3 1_555 1_555
O6A Zn4A 1_555 1_555
O7A Zn1A 1_555 1_555
C24A C8A 1_555 1_555
O8A Zn1A 1_555 1_555
C25A C22A 1_555 1_555
O9A C25A 1_555 1_555
C26A C16A 1_555 1_555
C27A C26A 1_555 1_555
H11A C27A 1_555 1_555
H12A C27A 1_555 1_555
H13A C27A 1_555 1_555
C28A C26A 1_555 1_555
H14A C28A 1_555 1_555
H15A C28A 1_555 1_555
H16A C28A 1_555 1_555
C29A C26A 1_555 1_555
H17A C29A 1_555 1_555
H18A C29A 1_555 1_555
H19A C29A 1_555 1_555
C30A C24A 1_555 1_555
H20A C30A 1_555 1_555
H21A C30A 1_555 1_555
H22A C30A 1_555 1_555
C31A C24A 1_555 1_555
H23A C31A 1_555 1_555
H24A C31A 1_555 1_555
H25A C31A 1_555 1_555
C32A C24A 1_555 1_555
H26A C32A 1_555 1_555
H27A C32A 1_555 1_555
H28A C32A 1_555 1_555
C33A C1A 1_555 1_555
H29A C33A 1_555 1_555
C34A C2A 1_555 1_555
H30A C34A 1_555 1_555
C35A C2A 1_555 1_555
H31A C35A 1_555 1_555
C36A C1A 1_555 1_555
H32A C36A 1_555 1_555
O1I B1A 1_555 1_555
N1I Zn2A 1_555 1_555
C3I N1I 1_555 1_555
H1I C3I 1_555 1_555
C4I C3I 1_555 1_555
C5I C4I 1_555 1_555
C6I C5I 1_555 1_555
C7I C6I 1_555 1_555
H2I C7I 1_555 1_555
C8I C7I 1_555 1_555
C9I C4I 1_555 1_555
H3I C9I 1_555 1_555
C10I C6I 1_555 1_555
H4I C10I 1_555 1_555
N2I Zn1A 1_555 1_555
O2I B2A 1_555 1_555
C20I C19A 1_555 1_555
H9I C20I 1_555 1_555
C21I C22A 1_555 1_555
H10I C21I 1_555 1_555
O7I Zn1A 1_555 1_555
C24I C8I 1_555 1_555
O9I C25A 1_555 1_555
C26I C16A 1_555 1_555
C27I C26A 1_555 1_555
H11I C27I 1_555 1_555
H12I C27A 1_555 1_555
H13I C27I 1_555 1_555
C28I C26A 1_555 1_555
H14I C28I 1_555 1_555
H15I C29A 1_555 1_555
H16I C28I 1_555 1_555
C29I C26A 1_555 1_555
H17I C28A 1_555 1_555
H18I C29I 1_555 1_555
H19I C29I 1_555 1_555
C30I C24I 1_555 1_555
H20I C30I 1_555 1_555
H21I C30I 1_555 1_555
H22I C30I 1_555 1_555
C31I C24I 1_555 1_555
H23I C31I 1_555 1_555
H24I C31I 1_555 1_555
H25I C31I 1_555 1_555
C32I C24I 1_555 1_555
H26I C32I 1_555 1_555
H27I C32I 1_555 1_555
H28I C32I 1_555 1_555
Zn1B N2B 1_555 1_555
Zn2B N1B 1_555 1_555
Zn4B O10 1_555 1_555
C1B B1B 1_555 1_555
C2B C23B 1_555 1_555
B1B O1B 1_555 1_555
O1B N1B 1_555 1_555
N1B C3B 1_555 1_555
C3B H1B 1_555 1_555
C4B C3B 1_555 1_555
C5B C4B 1_555 1_555
C6B C5B 1_555 1_555
C7B C6B 1_555 1_555
H2B C7B 1_555 1_555
C8B C7B 1_555 1_555
C9B C4B 1_555 1_555
H3B C9B 1_555 1_555
C10B C6B 1_555 1_555
H4B C10B 1_555 1_555
N2B C10B 1_555 1_555
O2B N2B 1_555 1_555
B2B O2B 1_555 1_555
O3B B1B 1_555 1_555
N3B Zn2B 1_555 1_555
C11B N3B 1_555 1_555
H5B C11B 1_555 1_555
C12B C11B 1_555 1_555
C13B C12B 1_555 1_555
C14B C13B 1_555 1_555
C15B C14B 1_555 1_555
H6B C15B 1_555 1_555
C16B C15B 1_555 1_555
C17B C12B 1_555 1_555
H7B C17B 1_555 1_555
C18B C14B 1_555 1_555
H8B C18B 1_555 1_555
N4B Zn1B 1_555 1_555
O4B B2B 1_555 1_555
C19B B2B 1_555 1_555
C20B C19B 1_555 1_555
H9B C20B 1_555 1_555
C21B C20B 1_555 1_555
H10B C21B 1_555 1_555
C22B C21B 1_555 1_555
C23B O5B 1_555 1_555
O5B Zn3 1_555 1_555
O6B Zn4B 1_555 1_555
O7B Zn1B 1_555 1_555
C24B C8B 1_555 1_555
O8B Zn1B 1_555 1_555
C25B C22B 1_555 1_555
O9B C25B 1_555 1_555
C26B C16B 1_555 1_555
C27B C26B 1_555 1_555
H11B C27B 1_555 1_555
H12B C27B 1_555 1_555
H13B C27B 1_555 1_555
C28B C26B 1_555 1_555
H14B C28B 1_555 1_555
H15B C28B 1_555 1_555
H16B C28B 1_555 1_555
C29B C26B 1_555 1_555
H17B C29B 1_555 1_555
H18B C29B 1_555 1_555
H19B C29B 1_555 1_555
C30B C24B 1_555 1_555
H20B C30B 1_555 1_555
H21B C30B 1_555 1_555
H22B C30B 1_555 1_555
C31B C24B 1_555 1_555
H23B C31B 1_555 1_555
H24B C31B 1_555 1_555
H25B C31B 1_555 1_555
C32B C24B 1_555 1_555
H26B C32B 1_555 1_555
H27B C32B 1_555 1_555
H28B C32B 1_555 1_555
C33B C1B 1_555 1_555
H29B C33B 1_555 1_555
C34B C2B 1_555 1_555
H30B C34B 1_555 1_555
C35B C2B 1_555 1_555
H31B C35B 1_555 1_555
C36B C1B 1_555 1_555
H32B C36B 1_555 1_555
O1K B1B 1_555 1_555
N1K Zn2B 1_555 1_555
C3K N1K 1_555 1_555
H1K C3K 1_555 1_555
C4K C3K 1_555 1_555
C5K C4K 1_555 1_555
C6K C5K 1_555 1_555
C7K C6K 1_555 1_555
H2K C7K 1_555 1_555
C8K C7K 1_555 1_555
C9K C4K 1_555 1_555
H3K C9K 1_555 1_555
C10K C6K 1_555 1_555
H4K C10K 1_555 1_555
N2K Zn1B 1_555 1_555
O2K B2B 1_555 1_555
C20K C19B 1_555 1_555
H9K C20K 1_555 1_555
C21K C22B 1_555 1_555
H10K C21K 1_555 1_555
O7K Zn1B 1_555 1_555
C24K C8K 1_555 1_555
O9K C25B 1_555 1_555
C26K C16B 1_555 1_555
C27K C26B 1_555 1_555
H11K C27K 1_555 1_555
H12K C27B 1_555 1_555
H13K C27K 1_555 1_555
C28K C26B 1_555 1_555
H14K C28K 1_555 1_555
H15K C29B 1_555 1_555
H16K C28K 1_555 1_555
C29K C26B 1_555 1_555
H17K C28B 1_555 1_555
H18K C29K 1_555 1_555
H19K C29K 1_555 1_555
C30K C24K 1_555 1_555
H20K C30K 1_555 1_555
H21K C30K 1_555 1_555
H22K C30K 1_555 1_555
C31K C24K 1_555 1_555
H23K C31K 1_555 1_555
H24K C31K 1_555 1_555
H25K C31K 1_555 1_555
C32K C24K 1_555 1_555
H26K C32K 1_555 1_555
H27K C32K 1_555 1_555
H28K C32K 1_555 1_555
Zn4_2 O9K 1_555 1_555
Zn4_3 O9A 1_555 1_555
Zn4A_2 O9B 1_555 1_555
Zn4A_3 O9J 1_555 1_555
Zn4B_2 O9I 1_555 1_555
Zn4B_3 O9 1_555 1_555
O9_2 Zn4B 1_555 1_555
O9A_2 Zn4 1_555 1_555
O9B_2 Zn4A 1_555 1_555
O9I_2 Zn4B 1_555 1_555
O9J_2 Zn4A 1_555 1_555
O9K_2 Zn4 1_555 1_555
Zn2 O7 1_555 1_555
Zn2 O8 1_555 1_555
Zn2 O7J 1_555 1_555
Zn4 O10 1_555 1_555
C5 O7 1_555 1_555
C8 C9 1_555 1_555
O3 N3 1_555 1_555
C13 O8 1_555 1_555
C16 C17 1_555 1_555
C18 N4 1_555 1_555
N4 O4 1_555 1_555
C27 C26J 1_555 1_555
C27 C27J 1_555 1_555
C27 C29J 1_555 1_555
H12 C27J 1_555 1_555
C28 C26J 1_555 1_555
C28 C29J 1_555 1_555
H15 C29J 1_555 1_555
C29 C26J 1_555 1_555
C29 C27J 1_555 1_555
C29 C28J 1_555 1_555
H17 C28J 1_555 1_555
C33 C34 1_555 1_555
C35 C36 1_555 1_555
O1J N1J 1_555 1_555
C5J O7J 1_555 1_555
C8J C9J 1_555 1_555
C10J N2J 1_555 1_555
N2J O2J 1_555 1_555
C20J C21J 1_555 1_555
C26J C27J 1_555 1_555
C26J C28J 1_555 1_555
C26J C29J 1_555 1_555
C27J H12J 1_555 1_555
C28J H15J 1_555 1_555
C29J H17J 1_555 1_555
Zn2A O7A 1_555 1_555
Zn2A O8A 1_555 1_555
Zn2A O7I 1_555 1_555
C5A O7A 1_555 1_555
C8A C9A 1_555 1_555
O3A N3A 1_555 1_555
C13A O8A 1_555 1_555
C16A C17A 1_555 1_555
C18A N4A 1_555 1_555
N4A O4A 1_555 1_555
C23A O6A 1_555 1_555
C27A C26I 1_555 1_555
C27A C27I 1_555 1_555
C27A C29I 1_555 1_555
H12A C27I 1_555 1_555
C28A C26I 1_555 1_555
C28A C29I 1_555 1_555
H15A C29I 1_555 1_555
C29A C26I 1_555 1_555
C29A C27I 1_555 1_555
C29A C28I 1_555 1_555
H17A C28I 1_555 1_555
C33A C34A 1_555 1_555
C35A C36A 1_555 1_555
O1I N1I 1_555 1_555
C5I O7I 1_555 1_555
C8I C9I 1_555 1_555
C10I N2I 1_555 1_555
N2I O2I 1_555 1_555
C20I C21I 1_555 1_555
C26I C27I 1_555 1_555
C26I C28I 1_555 1_555
C26I C29I 1_555 1_555
C27I H12I 1_555 1_555
C28I H15I 1_555 1_555
C29I H17I 1_555 1_555
Zn2B O7B 1_555 1_555
Zn2B O8B 1_555 1_555
Zn2B O7K 1_555 1_555
C5B O7B 1_555 1_555
C8B C9B 1_555 1_555
O3B N3B 1_555 1_555
C13B O8B 1_555 1_555
C16B C17B 1_555 1_555
C18B N4B 1_555 1_555
N4B O4B 1_555 1_555
C23B O6B 1_555 1_555
C27B C26K 1_555 1_555
C27B C27K 1_555 1_555
C27B C29K 1_555 1_555
H12B C27K 1_555 1_555
C28B C26K 1_555 1_555
C28B C29K 1_555 1_555
H15B C29K 1_555 1_555
C29B C26K 1_555 1_555
C29B C27K 1_555 1_555
C29B C28K 1_555 1_555
H17B C28K 1_555 1_555
C33B C34B 1_555 1_555
C35B C36B 1_555 1_555
O1K N1K 1_555 1_555
C5K O7K 1_555 1_555
C8K C9K 1_555 1_555
C10K N2K 1_555 1_555
N2K O2K 1_555 1_555
C20K C21K 1_555 1_555
C26K C27K 1_555 1_555
C26K C28K 1_555 1_555
C26K C29K 1_555 1_555
C27K H12K 1_555 1_555
C28K H15K 1_555 1_555
C29K H17K 1_555 1_555

#END
