
#######################################################################
#
#                 Cambridge Crystallographic Data Centre
#                                CCDC 
#
#######################################################################
#
# If this CIF has been generated from an entry in the Cambridge 
# Structural Database, then it will include bibliographic, chemical, 
# crystal, experimental, refinement or atomic coordinate data resulting 
# from the CCDC's data processing and validation procedures.
#
#######################################################################

data_OKUJUB
_chemical_formula_moiety         '(C173 H206 B6 N23 O42 Zn10 1-)n'
_symmetry_cell_setting           monoclinic
_symmetry_space_group_name_H-M   'C 2/c'
_symmetry_Int_Tables_number      15
_space_group_name_Hall           '-C 2yc'
loop_
_symmetry_equiv_pos_site_id
_symmetry_equiv_pos_as_xyz
1 x,y,z
2 -x,y,1/2-z
3 1/2+x,1/2+y,z
4 1/2-x,1/2+y,1/2-z
5 -x,-y,-z
6 x,-y,1/2+z
7 1/2-x,1/2-y,-z
8 1/2+x,1/2-y,1/2+z
_cell_length_a                   35.8409(2)
_cell_length_b                   42.7516(2)
_cell_length_c                   50.8130(5)
_cell_angle_alpha                90
_cell_angle_beta                 91.5280(10)
_cell_angle_gamma                90
_cell_volume                     77830.8
loop_
_atom_site_label
_atom_site_type_symbol
_atom_site_fract_x
_atom_site_fract_y
_atom_site_fract_z
N20 N 0.1970(5) 0.3910(4) 0.3926(4)
C154 C 0.1803(7) 0.4221(5) 0.3837(5)
H147 H 0.1859 0.4374 0.3979
H148 H 0.1941 0.4289 0.3681
C155 C 0.1415(6) 0.4249(5) 0.3771(4)
H149 H 0.1360 0.4465 0.3719
H150 H 0.1351 0.4108 0.3625
H151 H 0.1268 0.4194 0.3924
C156 C 0.1748(8) 0.3753(6) 0.4137(5)
H152 H 0.1536 0.3644 0.4050
H153 H 0.1909 0.3591 0.4221
C157 C 0.1600(9) 0.3943(8) 0.4344(5)
H154 H 0.1464 0.3810 0.4466
H155 H 0.1806 0.4047 0.4440
H156 H 0.1431 0.4100 0.4268
C158 C 0.2372(6) 0.3972(6) 0.4015(5)
H157 H 0.2373 0.4120 0.4165
H158 H 0.2485 0.3773 0.4079
C159 C 0.2604(7) 0.4103(6) 0.3803(6)
H159 H 0.2859 0.4138 0.3872
H160 H 0.2609 0.3955 0.3656
H161 H 0.2497 0.4302 0.3742
C160 C 0.1986(9) 0.3730(6) 0.3672(4)
H162 H 0.2111 0.3856 0.3536
H163 H 0.1731 0.3677 0.3607
C161 C 0.2212(9) 0.3427(6) 0.3732(5)
H164 H 0.2230 0.3303 0.3571
H165 H 0.2464 0.3483 0.3796
H166 H 0.2087 0.3305 0.3866
N21 N 0.1557(8) 0.4741(5) 0.2248(5)
C162 C 0.1857(10) 0.4535(7) 0.2377(7)
H167 H 0.2089 0.4560 0.2279
H168 H 0.1907 0.4613 0.2558
C163 C 0.1767(13) 0.4189(6) 0.2393(7)
H169 H 0.1976 0.4078 0.2479
H170 H 0.1542 0.4159 0.2495
H171 H 0.1725 0.4105 0.2215
C164 C 0.1279(10) 0.4726(9) 0.2465(6)
H172 H 0.1199 0.4506 0.2489
H173 H 0.1401 0.4796 0.2632
C165 C 0.0942(11) 0.4924(10) 0.2408(6)
H174 H 0.0770 0.4907 0.2554
H175 H 0.1018 0.5143 0.2388
H176 H 0.0817 0.4852 0.2245
C166 C 0.1647(13) 0.5086(6) 0.2284(6)
H177 H 0.1843 0.5134 0.2156
H178 H 0.1421 0.5201 0.2223
C167 C 0.1767(12) 0.5232(6) 0.2528(5)
H179 H 0.1807 0.5456 0.2499
H180 H 0.1574 0.5203 0.2660
H181 H 0.2000 0.5135 0.2592
C168 C 0.1349(10) 0.4667(8) 0.1998(6)
H182 H 0.1177 0.4495 0.2043
H183 H 0.1189 0.4851 0.1962
C169 C 0.1496(15) 0.4579(10) 0.1740(6)
H184 H 0.1288 0.4545 0.1614
H185 H 0.1655 0.4748 0.1676
H186 H 0.1643 0.4387 0.1758
N22 N 0.4969(9) 0.4302(4) 0.2566(5)
H187 H 0.4756 0.4381 0.2490
H188 H 0.4946 0.4320 0.2743
C170 C 0.499(3) 0.3963(4) 0.250(2)
H189 H 0.4763 0.3858 0.2563
H190 H 0.5002 0.3938 0.2310
H191 H 0.5209 0.3871 0.2587
C171 C 0.5275(8) 0.4497(7) 0.2490(6)
H192 H 0.5228 0.4713 0.2545
H193 H 0.5506 0.4422 0.2576
H194 H 0.5299 0.4489 0.2299
N22A N 0.5031(9) 0.4302(4) 0.2434(5)
H187A H 0.5244 0.4381 0.2510
H188A H 0.5054 0.4320 0.2257
C170A C 0.501(3) 0.3963(4) 0.250(2)
H189A H 0.5237 0.3858 0.2437
H190A H 0.4998 0.3938 0.2690
H191A H 0.4791 0.3871 0.2413
C171A C 0.4725(8) 0.4497(7) 0.2510(6)
H192A H 0.4772 0.4713 0.2455
H193A H 0.4494 0.4422 0.2424
H194A H 0.4701 0.4489 0.2701
Zn1 Zn 0.38589(3) 0.40853(2) 0.19797(3)
Zn2 Zn 0.43392(3) 0.35294(2) 0.19631(2)
Zn3 Zn -0.14252(3) 0.35585(3) 0.19508(3)
Zn4 Zn -0.08986(3) 0.40824(2) 0.19212(2)
Zn5 Zn 0.14387(4) 0.47468(3) 0.46581(2)
Zn6 Zn 0.14425(3) 0.50890(3) 0.41570(2)
Zn7 Zn 0.10391(2) 0.62328(2) 0.21151(2)
Zn8 Zn 0.15309(3) 0.58240(2) 0.17263(2)
Zn9 Zn 0.19219(2) 0.62564(2) 0.21532(2)
Zn10 Zn 0.14734(2) 0.65473(2) 0.16586(2)
O1 O 0.14930(11) 0.62221(9) 0.19211(9)
O2 O 0.1645(4) 0.5487(3) 0.1416(3)
C1 C 0.5116(2) 0.26552(16) 0.19444(17)
C2 C 0.5100(3) 0.24141(18) 0.21315(19)
H1 H 0.4931 0.2434 0.2271
C3 C 0.5321(3) 0.21493(18) 0.21208(18)
H2 H 0.5307 0.1995 0.2255
C4 C 0.5564(2) 0.21080(15) 0.19163(16)
C5 C 0.5592(2) 0.23448(16) 0.17305(17)
H3 H 0.5759 0.2322 0.1590
C6 C 0.5378(2) 0.26133(17) 0.17476(18)
H4 H 0.5410 0.2775 0.1622
B1 B 0.4852(3) 0.2958(2) 0.1953(2)
O3 O 0.45397(18) 0.28962(15) 0.17588(15)
N1 N 0.4281(2) 0.31302(19) 0.17229(18)
C7 C 0.4047(3) 0.3073(2) 0.1539(2)
H5 H 0.4072 0.2877 0.1453
C8 C 0.3746(3) 0.3272(2) 0.1443(2)
C9 C 0.3660(3) 0.3563(2) 0.1565(2)
C10 C 0.3346(3) 0.3732(2) 0.1451(2)
C11 C 0.3154(4) 0.3626(3) 0.1225(3)
H6 H 0.2957 0.3749 0.1151
C12 C 0.3246(3) 0.3346(3) 0.1106(2)
C13 C 0.3541(4) 0.3175(3) 0.1219(3)
H7 H 0.3606 0.2982 0.1139
C14 C 0.3225(3) 0.4021(3) 0.1563(2)
H8 H 0.2998 0.4106 0.1494
N2 N 0.3389(3) 0.4176(2) 0.1744(2)
O4 O 0.3193(2) 0.44437(19) 0.17939(18)
B2 B 0.3346(3) 0.4662(2) 0.1990(3)
O5 O 0.50798(17) 0.32215(13) 0.18672(15)
N3 N 0.49050(18) 0.35155(14) 0.18704(17)
C15 C 0.5133(2) 0.37312(16) 0.1816(2)
H9 H 0.5381 0.3668 0.1781
C16 C 0.5057(2) 0.40669(16) 0.1802(2)
C17 C 0.4695(2) 0.41916(17) 0.1838(2)
C18 C 0.4658(2) 0.45201(18) 0.1823(2)
C19 C 0.4977(2) 0.4710(2) 0.1790(3)
H10 H 0.4947 0.4930 0.1790
C20 C 0.5332(2) 0.45875(19) 0.1757(3)
C21 C 0.5356(2) 0.42636(18) 0.1753(3)
H11 H 0.5589 0.4171 0.1714
C22 C 0.4311(2) 0.4688(2) 0.1859(2)
H12 H 0.4314 0.4909 0.1839
N4 N 0.4004(2) 0.45597(18) 0.1916(2)
O6 O 0.37154(19) 0.47845(16) 0.19392(18)
O7 O 0.47249(18) 0.29850(14) 0.22213(14)
N5 N 0.4482(2) 0.32243(16) 0.22748(15)
C23 C 0.4384(2) 0.32137(19) 0.25124(17)
H13 H 0.4493 0.3054 0.2620
C24 C 0.4119(2) 0.34232(17) 0.26364(16)
C25 C 0.3964(2) 0.36876(17) 0.25007(17)
C26 C 0.3706(2) 0.38767(18) 0.26430(16)
C27 C 0.3610(3) 0.3790(2) 0.28976(17)
H14 H 0.3432 0.3914 0.2985
C28 C 0.3759(2) 0.3534(2) 0.30294(15)
C29 C 0.4018(2) 0.3354(2) 0.28961(16)
H15 H 0.4130 0.3179 0.2983
C30 C 0.3531(3) 0.4153(2) 0.25307(19)
H16 H 0.3379 0.4272 0.2644
N6 N 0.3560(2) 0.4254(2) 0.22976(18)
O8 O 0.3342(2) 0.45220(18) 0.22571(17)
C31 C 0.3051(2) 0.49403(17) 0.19999(18)
C32 C 0.25200(19) 0.54311(16) 0.20178(18)
C33 C 0.5802(2) 0.18190(16) 0.19002(17)
O9 O 0.57731(16) 0.16238(13) 0.20815(13)
O10 O 0.60243(16) 0.18103(12) 0.17120(12)
O11 O 0.3834(2) 0.36583(17) 0.17686(17)
C34 C 0.3037(4) 0.3226(4) 0.0859(3)
O12 O 0.44134(17) 0.40084(14) 0.18847(16)
C35 C 0.5680(3) 0.4795(3) 0.1734(3)
C36 C 0.5942(4) 0.4764(4) 0.1987(3)
H17 H 0.5813 0.4846 0.2140
H18 H 0.6006 0.4544 0.2016
H19 H 0.6171 0.4885 0.1962
C37 C 0.5940(4) 0.4659(4) 0.1542(4)
H20 H 0.5969 0.4435 0.1577
H21 H 0.5839 0.4690 0.1363
H22 H 0.6183 0.4762 0.1561
C38 C 0.5581(4) 0.5136(3) 0.1729(4)
H23 H 0.5407 0.5181 0.1870
H24 H 0.5808 0.5261 0.1756
H25 H 0.5464 0.5189 0.1558
O13 O 0.40533(17) 0.37603(14) 0.22612(14)
C39 C 0.3642(3) 0.3449(3) 0.33082(16)
C40 C 0.2237(2) 0.56839(18) 0.2037(2)
O14 O 0.19085(17) 0.56142(15) 0.19611(18)
O15 O 0.23229(15) 0.59485(13) 0.21289(14)
C41 C 0.2759(4) 0.4966(3) 0.1809(3)
H26 H 0.2741 0.4818 0.1671
C42 C 0.2497(4) 0.5204(3) 0.1820(3)
H27 H 0.2300 0.5213 0.1692
C43 C 0.2814(3) 0.5418(3) 0.2201(3)
H28 H 0.2840 0.5574 0.2333
C44 C 0.3068(4) 0.5175(3) 0.2189(3)
H29 H 0.3266 0.5169 0.2317
C45 C 0.3943(5) 0.3491(7) 0.3516(4)
H30 H 0.4177 0.3400 0.3454
H31 H 0.3979 0.3714 0.3551
H32 H 0.3870 0.3385 0.3678
C46 C 0.3567(7) 0.3087(4) 0.3315(5)
H33 H 0.3371 0.3034 0.3185
H34 H 0.3797 0.2974 0.3275
H35 H 0.3487 0.3027 0.3491
C47 C 0.3268(5) 0.3582(6) 0.3385(5)
H36 H 0.3085 0.3547 0.3241
H37 H 0.3185 0.3478 0.3544
H38 H 0.3294 0.3807 0.3418
C48 C 0.3289(6) 0.3250(5) 0.0620(3)
H39 H 0.3523 0.3138 0.0657
H40 H 0.3161 0.3156 0.0466
H41 H 0.3342 0.3470 0.0583
C49 C 0.2672(5) 0.3398(5) 0.0803(4)
H42 H 0.2551 0.3313 0.0643
H43 H 0.2507 0.3372 0.0952
H44 H 0.2723 0.3621 0.0777
C50 C 0.2960(6) 0.2874(4) 0.0893(4)
H45 H 0.3196 0.2764 0.0929
H46 H 0.2793 0.2843 0.1040
H47 H 0.2842 0.2792 0.0731
C51 C 0.1404(3) 0.4217(2) 0.54612(14)
C52 C 0.1373(3) 0.3937(2) 0.59645(14)
B3 B 0.1436(3) 0.4389(3) 0.51853(18)
O16 O 0.1418(2) 0.47199(19) 0.52490(13)
N7 N 0.1395(3) 0.4934(2) 0.50412(16)
C53 C 0.1380(3) 0.5213(2) 0.51192(19)
H48 H 0.1382 0.5246 0.5304
C54 C 0.1360(3) 0.54887(19) 0.49532(16)
C55 C 0.1370(3) 0.5477(2) 0.46725(15)
C56 C 0.1340(3) 0.5767(2) 0.45350(15)
C57 C 0.1292(4) 0.6042(2) 0.46792(17)
H49 H 0.1260 0.6232 0.4584
C58 C 0.1289(4) 0.6056(2) 0.49478(18)
C59 C 0.1318(4) 0.5778(2) 0.5083(2)
H50 H 0.1309 0.5780 0.5270
C60 C 0.1359(3) 0.5794(2) 0.42539(15)
H51 H 0.1339 0.6000 0.4184
N8 N 0.1398(2) 0.55772(17) 0.40880(14)
O17 O 0.1407(2) 0.56835(16) 0.38337(12)
B4 B 0.1457(3) 0.5446(2) 0.36304(17)
O18 O 0.1112(2) 0.42846(19) 0.50317(13)
N9 N 0.1052(2) 0.4416(2) 0.47851(15)
C61 C 0.0727(3) 0.4355(2) 0.46934(17)
H52 H 0.0571 0.4228 0.4798
C62 C 0.0577(2) 0.4462(2) 0.44447(15)
C63 C 0.0780(3) 0.4643(2) 0.42574(16)
C64 C 0.0581(2) 0.4732(2) 0.40216(16)
C65 C 0.0203(2) 0.4655(2) 0.39872(18)
H53 H 0.0075 0.4722 0.3831
C66 C 0.0005(2) 0.4484(2) 0.41702(17)
C67 C 0.0199(2) 0.4390(3) 0.43926(17)
H54 H 0.0070 0.4269 0.4518
C68 C 0.0748(2) 0.4920(2) 0.38172(17)
H55 H 0.0610 0.4944 0.3656
N10 N 0.1063(2) 0.50542(19) 0.38373(15)
O19 O 0.1147(2) 0.52119(17) 0.36128(13)
C69 C 0.1458(2) 0.56220(19) 0.33514(13)
C70 C 0.1137(2) 0.5641(2) 0.31886(15)
H56 H 0.0915 0.5541 0.3242
C71 C 0.1136(2) 0.5803(2) 0.29512(15)
H57 H 0.0912 0.5821 0.2848
C72 C 0.1462(2) 0.59388(18) 0.28644(13)
C73 C 0.1786(2) 0.5916(2) 0.30171(15)
H58 H 0.2010 0.6009 0.2960
C74 C 0.1781(2) 0.5757(2) 0.32556(15)
H59 H 0.2007 0.5739 0.3357
C75 C 0.1365(3) 0.3808(2) 0.62373(16)
O20 O 0.14858(19) 0.35353(18) 0.62776(12)
O21 O 0.1200(2) 0.3956(2) 0.64072(14)
O22 O 0.1379(2) 0.52162(16) 0.45522(12)
C76 C 0.1240(4) 0.6370(2) 0.5089(2)
O23 O 0.1122(2) 0.47147(18) 0.42989(13)
C77 C -0.0407(2) 0.4392(3) 0.4133(2)
C78 C -0.0457(4) 0.4034(3) 0.4157(3)
H60 H -0.0357 0.3963 0.4328
H61 H -0.0722 0.3981 0.4140
H62 H -0.0321 0.3930 0.4016
C79 C -0.0633(4) 0.4538(4) 0.4355(2)
H63 H -0.0523 0.4477 0.4526
H64 H -0.0629 0.4766 0.4339
H65 H -0.0892 0.4464 0.4342
C80 C -0.0566(3) 0.4479(4) 0.3867(2)
H66 H -0.0416 0.4382 0.3730
H67 H -0.0824 0.4404 0.3850
H68 H -0.0561 0.4707 0.3847
C81 C 0.1464(2) 0.60984(19) 0.26006(14)
O24 O 0.11526(18) 0.61289(17) 0.24811(12)
O25 O 0.17775(16) 0.61917(14) 0.25214(11)
O26 O 0.1748(5) 0.4262(4) 0.5032(3)
C82 C 0.1520(5) 0.3777(3) 0.5756(2)
H69 H 0.1612 0.3571 0.5781
C83 C 0.1535(5) 0.3916(3) 0.5510(2)
H70 H 0.1638 0.3801 0.5369
C84 C 0.1241(5) 0.4370(3) 0.5674(2)
H71 H 0.1136 0.4571 0.5646
C85 C 0.1227(5) 0.4239(3) 0.5923(2)
H72 H 0.1121 0.4352 0.6063
N11 N 0.1821(5) 0.4417(5) 0.4807(4)
C86 C 0.2113(5) 0.4305(5) 0.4708(3)
H73 H 0.2242 0.4144 0.4803
C87 C 0.2263(4) 0.4405(4) 0.4460(3)
C88 C 0.2092(5) 0.4635(4) 0.4290(3)
C89 C 0.2263(4) 0.4692(4) 0.4043(3)
C90 C 0.2590(5) 0.4532(4) 0.3977(3)
H74 H 0.2695 0.4569 0.3810
C91 C 0.2760(4) 0.4323(4) 0.4148(3)
C92 C 0.2594(5) 0.4262(5) 0.4384(3)
H75 H 0.2710 0.4116 0.4501
C93 C 0.2120(5) 0.4910(4) 0.3848(3)
H76 H 0.2257 0.4930 0.3691
N12 N 0.1830(5) 0.5077(5) 0.3866(4)
O27 O 0.1781(5) 0.5244(4) 0.3639(4)
O28 O 0.1807(6) 0.4783(7) 0.4359(6)
C94 C 0.3128(4) 0.4166(5) 0.4077(4)
C95 C 0.3036(8) 0.3817(5) 0.4077(6)
H77 H 0.2966 0.3752 0.4254
H78 H 0.2828 0.3776 0.3952
H79 H 0.3255 0.3698 0.4024
C96 C 0.3435(6) 0.4244(7) 0.4279(5)
H80 H 0.3359 0.4175 0.4454
H81 H 0.3665 0.4135 0.4233
H82 H 0.3478 0.4470 0.4281
C97 C 0.3238(8) 0.4269(7) 0.3804(4)
H83 H 0.3037 0.4217 0.3677
H84 H 0.3280 0.4495 0.3804
H85 H 0.3467 0.4161 0.3756
C98 C -0.2243(2) 0.27126(18) 0.19831(19)
C99 C -0.2191(3) 0.24677(19) 0.2162(2)
H86 H -0.1999 0.2487 0.2293
C100 C -0.2405(3) 0.22006(18) 0.21580(19)
H87 H -0.2363 0.2042 0.2287
C101 C -0.2684(2) 0.21636(15) 0.19642(16)
C102 C -0.2752(2) 0.24060(16) 0.17872(18)
H88 H -0.2947 0.2389 0.1657
C103 C -0.2535(2) 0.26718(18) 0.18018(19)
H89 H -0.2589 0.2836 0.1681
B5 B -0.1970(3) 0.3010(2) 0.1979(3)
O29 O -0.2208(2) 0.32932(16) 0.19656(18)
N13 N -0.2016(2) 0.35825(16) 0.1946(2)
C104 C -0.2239(3) 0.38130(17) 0.1949(2)
H90 H -0.2497 0.3768 0.1968
C105 C -0.2134(2) 0.41376(16) 0.19279(19)
C106 C -0.1761(2) 0.42374(17) 0.18964(19)
C107 C -0.17022(18) 0.45658(16) 0.18668(17)
C108 C -0.20075(18) 0.47757(18) 0.18702(19)
H91 H -0.1962 0.4993 0.1850
C109 C -0.23692(18) 0.46731(16) 0.19016(19)
C110 C -0.2426(2) 0.43531(17) 0.1927(2)
H92 H -0.2673 0.4278 0.1944
C111 C -0.13315(18) 0.47029(18) 0.18506(18)
H93 H -0.1322 0.4922 0.1822
N14 N -0.10203(17) 0.45645(15) 0.18698(16)
O30 O -0.07215(15) 0.47662(13) 0.18552(14)
B6 B -0.0343(2) 0.4630(2) 0.1890(2)
O31 O -0.1764(2) 0.29622(17) 0.17433(18)
N15 N -0.1486(3) 0.3180(2) 0.16957(19)
C112 C -0.1325(3) 0.3121(2) 0.1482(2)
H94 H -0.1406 0.2939 0.1390
C113 C -0.1033(3) 0.3302(2) 0.13654(19)
C114 C -0.0881(3) 0.3576(2) 0.14841(19)
C115 C -0.0613(3) 0.37436(19) 0.13328(17)
C116 C -0.0507(3) 0.3635(2) 0.10865(19)
H95 H -0.0326 0.3750 0.0993
C117 C -0.0655(3) 0.3366(2) 0.09725(18)
C118 C -0.0913(4) 0.3207(3) 0.1119(2)
H96 H -0.1016 0.3020 0.1047
C119 C -0.0441(3) 0.40291(19) 0.14246(18)
H97 H -0.0271 0.4124 0.1309
N16 N -0.0488(2) 0.41681(16) 0.16396(15)
O32 O -0.02547(17) 0.44172(15) 0.16732(14)
O33 O -0.1753(2) 0.30011(17) 0.22242(18)
N17 N -0.1497(3) 0.3244(2) 0.22597(19)
C120 C -0.1349(3) 0.3236(2) 0.2488(2)
H98 H -0.1435 0.3075 0.2600
C121 C -0.1068(3) 0.3441(2) 0.26007(17)
C122 C -0.0920(3) 0.3696(2) 0.24513(19)
C123 C -0.0654(3) 0.3891(2) 0.25843(16)
C124 C -0.0546(3) 0.3828(2) 0.28459(18)
C125 C -0.0944(3) 0.3394(3) 0.28597(19)
C126 C -0.0479(3) 0.4161(2) 0.24598(17)
H99 H -0.0326 0.4291 0.2569
N18 N -0.0514(2) 0.42343(17) 0.22179(15)
O34 O -0.02820(17) 0.44841(14) 0.21524(13)
C127 C -0.00534(18) 0.49142(15) 0.18908(17)
C128 C -0.0115(2) 0.51961(17) 0.2020(2)
H100 H -0.0346 0.5227 0.2104
C129 C 0.01489(19) 0.54322(18) 0.20287(19)
H101 H 0.0098 0.5622 0.2118
C130 C 0.04888(18) 0.53924(15) 0.19076(16)
C131 C 0.0555(2) 0.51200(16) 0.17729(18)
H102 H 0.0783 0.5093 0.1684
C132 C 0.02885(19) 0.48849(17) 0.17665(18)
H103 H 0.0340 0.4697 0.1674
C133 C -0.2898(2) 0.18650(16) 0.19350(16)
O35 O -0.28412(15) 0.16651(12) 0.21125(11)
O36 O -0.31244(16) 0.18449(12) 0.17429(11)
O37 O -0.14884(17) 0.40421(14) 0.18890(15)
C134 C -0.2698(2) 0.48983(19) 0.1919(2)
O38 O -0.09940(19) 0.36785(15) 0.17004(15)
C135 C -0.0527(4) 0.3249(3) 0.0704(2)
O39 O -0.1020(2) 0.37411(16) 0.22078(15)
C136 C 0.07818(19) 0.56436(16) 0.19207(17)
O40 O 0.06901(14) 0.59035(12) 0.20123(12)
O41 O 0.10982(15) 0.55750(13) 0.18503(15)
C137 C -0.0657(4) 0.3563(3) 0.2981(2)
C138 C -0.2782(8) 0.5100(6) 0.1684(5)
H104 H -0.2550 0.5188 0.1620
H105 H -0.2903 0.4974 0.1545
H106 H -0.2950 0.5270 0.1734
C139 C -0.2586(8) 0.5127(6) 0.2154(5)
H107 H -0.2528 0.5004 0.2312
H108 H -0.2367 0.5249 0.2107
H109 H -0.2794 0.5268 0.2187
C140 C -0.3056(5) 0.4762(6) 0.2020(7)
H110 H -0.2999 0.4630 0.2173
H111 H -0.3223 0.4931 0.2070
H112 H -0.3176 0.4635 0.1881
C141 C -0.0740(7) 0.2966(5) 0.0595(5)
H113 H -0.0737 0.2799 0.0726
H114 H -0.0999 0.3026 0.0553
H115 H -0.0621 0.2893 0.0435
C142 C -0.0129(5) 0.3126(6) 0.0772(5)
H116 H 0.0024 0.3297 0.0844
H117 H -0.0143 0.2958 0.0902
H118 H -0.0016 0.3045 0.0612
C143 C -0.0517(9) 0.3524(5) 0.0513(4)
H119 H -0.0377 0.3697 0.0594
H120 H -0.0394 0.3458 0.0351
H121 H -0.0772 0.3592 0.0469
C144 C -0.0439(5) 0.3437(4) 0.3223(3)
C145 C -0.0592(8) 0.3130(5) 0.3322(5)
H122 H -0.0569 0.2970 0.3185
H123 H -0.0450 0.3065 0.3481
H124 H -0.0855 0.3156 0.3364
C146 C -0.0473(8) 0.3688(6) 0.3434(4)
H125 H -0.0374 0.3886 0.3369
H126 H -0.0737 0.3715 0.3476
H127 H -0.0332 0.3624 0.3593
C147 C -0.0026(5) 0.3377(6) 0.3176(5)
H128 H 0.0090 0.3569 0.3111
H129 H 0.0099 0.3313 0.3341
H130 H -0.0001 0.3211 0.3045
N19 N 0.2440(4) 0.6191(4) 0.1230(3)
C148 C 0.2463(6) 0.6516(5) 0.1303(5)
H131 H 0.2643 0.6622 0.1192
H132 H 0.2218 0.6614 0.1279
H133 H 0.2545 0.6534 0.1488
C149 C 0.2669(6) 0.6102(6) 0.1015(4)
H134 H 0.2811 0.6284 0.0957
H135 H 0.2841 0.5936 0.1072
H136 H 0.2510 0.6026 0.0869
C150 C 0.2206(4) 0.6001(4) 0.1359(3)
H137 H 0.2186 0.5792 0.1298
O42 O 0.2025(3) 0.6069(3) 0.1543(2)
C151 C 0.0922(8) 0.6363(6) 0.5285(5)
H138 H 0.0956 0.6183 0.5402
H139 H 0.0925 0.6556 0.5388
H140 H 0.0683 0.6344 0.5188
C152 C 0.1184(10) 0.6652(4) 0.4906(4)
H141 H 0.1386 0.6659 0.4780
H142 H 0.0944 0.6633 0.4811
H143 H 0.1186 0.6844 0.5011
C153 C 0.1613(6) 0.6440(6) 0.5239(5)
H144 H 0.1670 0.6269 0.5362
H145 H 0.1814 0.6459 0.5113
H146 H 0.1591 0.6636 0.5337
Zn7B Zn 0.60391(2) 0.12328(2) 0.21151(2)
Zn8E Zn 0.15309(3) 0.41760(2) 0.67263(2)
Zn9B Zn -0.30781(2) 0.12564(2) 0.21532(2)
Zn10B Zn -0.35266(2) 0.15473(2) 0.16586(2)
Zn10B_2 Zn 0.64734(2) 0.15473(2) 0.16586(2)
Zn10E Zn 0.14734(2) 0.34527(2) 0.66586(2)
O9B O 0.07731(16) 0.66238(13) 0.20815(13)
O10B O 0.10243(16) 0.68103(12) 0.17120(12)
O20E O 0.14858(19) 0.64647(18) 0.12776(12)
O21E O 0.1200(2) 0.6044(2) 0.14072(14)
O35B O 0.21588(15) 0.66651(12) 0.21125(11)
O36B O 0.18756(16) 0.68449(12) 0.17429(11)
loop_
_geom_bond_atom_site_label_1
_geom_bond_atom_site_label_2
_geom_bond_site_symmetry_1
_geom_bond_site_symmetry_2
Zn1 N2 1_555 1_555
Zn2 N1 1_555 1_555
Zn3 N13 1_555 1_555
Zn4 N14 1_555 1_555
Zn5 N7 1_555 1_555
Zn6 N8 1_555 1_555
Zn7 O1 1_555 1_555
Zn8 O1 1_555 1_555
Zn9 O1 1_555 1_555
Zn10 O1 1_555 1_555
O2 Zn8 1_555 1_555
C1 C2 1_555 1_555
C2 H1 1_555 1_555
C3 C2 1_555 1_555
H2 C3 1_555 1_555
C4 C3 1_555 1_555
C5 C4 1_555 1_555
H3 C5 1_555 1_555
C6 C1 1_555 1_555
H4 C6 1_555 1_555
B1 C1 1_555 1_555
O3 B1 1_555 1_555
N1 O3 1_555 1_555
C7 N1 1_555 1_555
H5 C7 1_555 1_555
C8 C7 1_555 1_555
C9 C8 1_555 1_555
C10 C9 1_555 1_555
C11 C10 1_555 1_555
H6 C11 1_555 1_555
C12 C11 1_555 1_555
C13 C8 1_555 1_555
H7 C13 1_555 1_555
C14 C10 1_555 1_555
H8 C14 1_555 1_555
N2 C14 1_555 1_555
O4 N2 1_555 1_555
B2 O4 1_555 1_555
O5 B1 1_555 1_555
N3 Zn2 1_555 1_555
C15 N3 1_555 1_555
H9 C15 1_555 1_555
C16 C15 1_555 1_555
C17 C16 1_555 1_555
C18 C17 1_555 1_555
C19 C18 1_555 1_555
H10 C19 1_555 1_555
C20 C19 1_555 1_555
C21 C16 1_555 1_555
H11 C21 1_555 1_555
C22 C18 1_555 1_555
H12 C22 1_555 1_555
N4 Zn1 1_555 1_555
O6 B2 1_555 1_555
O7 B1 1_555 1_555
N5 Zn2 1_555 1_555
C23 N5 1_555 1_555
H13 C23 1_555 1_555
C24 C23 1_555 1_555
C25 C24 1_555 1_555
C26 C25 1_555 1_555
C27 C26 1_555 1_555
H14 C27 1_555 1_555
C28 C27 1_555 1_555
C29 C24 1_555 1_555
H15 C29 1_555 1_555
C30 C26 1_555 1_555
H16 C30 1_555 1_555
N6 Zn1 1_555 1_555
O8 B2 1_555 1_555
C31 B2 1_555 1_555
C32 C40 1_555 1_555
C33 C4 1_555 1_555
O9 C33 1_555 1_555
O10 C33 1_555 1_555
O11 Zn1 1_555 1_555
C34 C12 1_555 1_555
O12 Zn1 1_555 1_555
C35 C20 1_555 1_555
C36 C35 1_555 1_555
H17 C36 1_555 1_555
H18 C36 1_555 1_555
H19 C36 1_555 1_555
C37 C35 1_555 1_555
H20 C37 1_555 1_555
H21 C37 1_555 1_555
H22 C37 1_555 1_555
C38 C35 1_555 1_555
H23 C38 1_555 1_555
H24 C38 1_555 1_555
H25 C38 1_555 1_555
O13 Zn1 1_555 1_555
C39 C28 1_555 1_555
C40 O14 1_555 1_555
O14 Zn8 1_555 1_555
O15 Zn9 1_555 1_555
C41 C31 1_555 1_555
H26 C41 1_555 1_555
C42 C32 1_555 1_555
H27 C42 1_555 1_555
C43 C32 1_555 1_555
H28 C43 1_555 1_555
C44 C31 1_555 1_555
H29 C44 1_555 1_555
C45 C39 1_555 1_555
H30 C45 1_555 1_555
H31 C45 1_555 1_555
H32 C45 1_555 1_555
C46 C39 1_555 1_555
H33 C46 1_555 1_555
H34 C46 1_555 1_555
H35 C46 1_555 1_555
C47 C39 1_555 1_555
H36 C47 1_555 1_555
H37 C47 1_555 1_555
H38 C47 1_555 1_555
C48 C34 1_555 1_555
H39 C48 1_555 1_555
H40 C48 1_555 1_555
H41 C48 1_555 1_555
C49 C34 1_555 1_555
H42 C49 1_555 1_555
H43 C49 1_555 1_555
H44 C49 1_555 1_555
C50 C34 1_555 1_555
H45 C50 1_555 1_555
H46 C50 1_555 1_555
H47 C50 1_555 1_555
C51 B3 1_555 1_555
C52 C75 1_555 1_555
B3 O16 1_555 1_555
O16 N7 1_555 1_555
N7 C53 1_555 1_555
C53 H48 1_555 1_555
C54 C53 1_555 1_555
C55 C54 1_555 1_555
C56 C55 1_555 1_555
C57 C56 1_555 1_555
H49 C57 1_555 1_555
C58 C57 1_555 1_555
C59 C54 1_555 1_555
H50 C59 1_555 1_555
C60 C56 1_555 1_555
H51 C60 1_555 1_555
N8 C60 1_555 1_555
O17 N8 1_555 1_555
B4 O17 1_555 1_555
O18 B3 1_555 1_555
N9 Zn5 1_555 1_555
C61 N9 1_555 1_555
H52 C61 1_555 1_555
C62 C61 1_555 1_555
C63 C62 1_555 1_555
C64 C63 1_555 1_555
C65 C64 1_555 1_555
H53 C65 1_555 1_555
C66 C65 1_555 1_555
C67 C62 1_555 1_555
H54 C67 1_555 1_555
C68 C64 1_555 1_555
H55 C68 1_555 1_555
N10 Zn6 1_555 1_555
O19 B4 1_555 1_555
C69 B4 1_555 1_555
C70 C69 1_555 1_555
H56 C70 1_555 1_555
C71 C70 1_555 1_555
H57 C71 1_555 1_555
C72 C71 1_555 1_555
C73 C72 1_555 1_555
H58 C73 1_555 1_555
C74 C69 1_555 1_555
H59 C74 1_555 1_555
C75 O20 1_555 1_555
O20 Zn10E 1_555 1_555
O21 C75 1_555 1_555
O22 Zn5 1_555 1_555
C76 C58 1_555 1_555
O23 Zn5 1_555 1_555
C77 C66 1_555 1_555
C78 C77 1_555 1_555
H60 C78 1_555 1_555
H61 C78 1_555 1_555
H62 C78 1_555 1_555
C79 C77 1_555 1_555
H63 C79 1_555 1_555
H64 C79 1_555 1_555
H65 C79 1_555 1_555
C80 C77 1_555 1_555
H66 C80 1_555 1_555
H67 C80 1_555 1_555
H68 C80 1_555 1_555
C81 C72 1_555 1_555
O24 Zn7 1_555 1_555
O25 Zn9 1_555 1_555
O26 B3 1_555 1_555
C82 C52 1_555 1_555
H69 C82 1_555 1_555
C83 C51 1_555 1_555
H70 C83 1_555 1_555
C84 C51 1_555 1_555
H71 C84 1_555 1_555
C85 C52 1_555 1_555
H72 C85 1_555 1_555
N11 Zn5 1_555 1_555
C86 N11 1_555 1_555
H73 C86 1_555 1_555
C87 C86 1_555 1_555
C88 C87 1_555 1_555
C89 C88 1_555 1_555
C90 C89 1_555 1_555
H74 C90 1_555 1_555
C91 C90 1_555 1_555
C92 C87 1_555 1_555
H75 C92 1_555 1_555
C93 C89 1_555 1_555
H76 C93 1_555 1_555
N12 Zn6 1_555 1_555
O27 B4 1_555 1_555
O28 Zn5 1_555 1_555
C94 C91 1_555 1_555
C95 C94 1_555 1_555
H77 C95 1_555 1_555
H78 C95 1_555 1_555
H79 C95 1_555 1_555
C96 C94 1_555 1_555
H80 C96 1_555 1_555
H81 C96 1_555 1_555
H82 C96 1_555 1_555
C97 C94 1_555 1_555
H83 C97 1_555 1_555
H84 C97 1_555 1_555
H85 C97 1_555 1_555
C98 C99 1_555 1_555
C99 H86 1_555 1_555
C100 C99 1_555 1_555
H87 C100 1_555 1_555
C101 C100 1_555 1_555
C102 C101 1_555 1_555
H88 C102 1_555 1_555
C103 C98 1_555 1_555
H89 C103 1_555 1_555
B5 C98 1_555 1_555
O29 B5 1_555 1_555
N13 O29 1_555 1_555
C104 N13 1_555 1_555
H90 C104 1_555 1_555
C105 C104 1_555 1_555
C106 C105 1_555 1_555
C107 C106 1_555 1_555
C108 C107 1_555 1_555
H91 C108 1_555 1_555
C109 C108 1_555 1_555
C110 C105 1_555 1_555
H92 C110 1_555 1_555
C111 C107 1_555 1_555
H93 C111 1_555 1_555
N14 C111 1_555 1_555
O30 N14 1_555 1_555
B6 O30 1_555 1_555
O31 B5 1_555 1_555
N15 Zn3 1_555 1_555
C112 N15 1_555 1_555
H94 C112 1_555 1_555
C113 C112 1_555 1_555
C114 C113 1_555 1_555
C115 C114 1_555 1_555
C116 C115 1_555 1_555
H95 C116 1_555 1_555
C117 C116 1_555 1_555
C118 C113 1_555 1_555
H96 C118 1_555 1_555
C119 C115 1_555 1_555
H97 C119 1_555 1_555
N16 Zn4 1_555 1_555
O32 B6 1_555 1_555
O33 B5 1_555 1_555
N17 Zn3 1_555 1_555
C120 N17 1_555 1_555
H98 C120 1_555 1_555
C121 C120 1_555 1_555
C122 C121 1_555 1_555
C123 C122 1_555 1_555
C124 C123 1_555 1_555
C125 C121 1_555 1_555
C126 C123 1_555 1_555
H99 C126 1_555 1_555
N18 Zn4 1_555 1_555
O34 B6 1_555 1_555
C127 B6 1_555 1_555
C128 C127 1_555 1_555
H100 C128 1_555 1_555
C129 C128 1_555 1_555
H101 C129 1_555 1_555
C130 C129 1_555 1_555
C131 C130 1_555 1_555
H102 C131 1_555 1_555
C132 C127 1_555 1_555
H103 C132 1_555 1_555
C133 C101 1_555 1_555
O35 C133 1_555 1_555
O36 C133 1_555 1_555
O37 Zn3 1_555 1_555
C134 C109 1_555 1_555
O38 Zn3 1_555 1_555
C135 C117 1_555 1_555
O39 Zn3 1_555 1_555
C136 C130 1_555 1_555
O40 Zn7 1_555 1_555
O41 Zn8 1_555 1_555
C137 C124 1_555 1_555
C138 C134 1_555 1_555
H104 C138 1_555 1_555
H105 C138 1_555 1_555
H106 C138 1_555 1_555
C139 C134 1_555 1_555
H107 C139 1_555 1_555
H108 C139 1_555 1_555
H109 C139 1_555 1_555
C140 C134 1_555 1_555
H110 C140 1_555 1_555
H111 C140 1_555 1_555
H112 C140 1_555 1_555
C141 C135 1_555 1_555
H113 C141 1_555 1_555
H114 C141 1_555 1_555
H115 C141 1_555 1_555
C142 C135 1_555 1_555
H116 C142 1_555 1_555
H117 C142 1_555 1_555
H118 C142 1_555 1_555
C143 C135 1_555 1_555
H119 C143 1_555 1_555
H120 C143 1_555 1_555
H121 C143 1_555 1_555
C144 C137 1_555 1_555
C145 C144 1_555 1_555
H122 C145 1_555 1_555
H123 C145 1_555 1_555
H124 C145 1_555 1_555
C146 C144 1_555 1_555
H125 C146 1_555 1_555
H126 C146 1_555 1_555
H127 C146 1_555 1_555
C147 C144 1_555 1_555
H128 C147 1_555 1_555
H129 C147 1_555 1_555
H130 C147 1_555 1_555
N19 C148 1_555 1_555
C148 H131 1_555 1_555
H132 C148 1_555 1_555
H133 C148 1_555 1_555
C149 N19 1_555 1_555
H134 C149 1_555 1_555
H135 C149 1_555 1_555
H136 C149 1_555 1_555
C150 N19 1_555 1_555
H137 C150 1_555 1_555
O42 Zn8 1_555 1_555
C151 C76 1_555 1_555
H138 C151 1_555 1_555
H139 C151 1_555 1_555
H140 C151 1_555 1_555
C152 C76 1_555 1_555
H141 C152 1_555 1_555
H142 C152 1_555 1_555
H143 C152 1_555 1_555
C153 C76 1_555 1_555
H144 C153 1_555 1_555
H145 C153 1_555 1_555
H146 C153 1_555 1_555
N20 C154 1_555 1_555
C154 H147 1_555 1_555
H148 C154 1_555 1_555
C155 C154 1_555 1_555
H149 C155 1_555 1_555
H150 C155 1_555 1_555
H151 C155 1_555 1_555
C156 N20 1_555 1_555
H152 C156 1_555 1_555
H153 C156 1_555 1_555
C157 C156 1_555 1_555
H154 C157 1_555 1_555
H155 C157 1_555 1_555
H156 C157 1_555 1_555
C158 N20 1_555 1_555
H157 C158 1_555 1_555
H158 C158 1_555 1_555
C159 C158 1_555 1_555
H159 C159 1_555 1_555
H160 C159 1_555 1_555
H161 C159 1_555 1_555
C160 N20 1_555 1_555
H162 C160 1_555 1_555
H163 C160 1_555 1_555
C161 C160 1_555 1_555
H164 C161 1_555 1_555
H165 C161 1_555 1_555
H166 C161 1_555 1_555
N21 C162 1_555 1_555
C162 H167 1_555 1_555
H168 C162 1_555 1_555
C163 C162 1_555 1_555
H169 C163 1_555 1_555
H170 C163 1_555 1_555
H171 C163 1_555 1_555
C164 N21 1_555 1_555
H172 C164 1_555 1_555
H173 C164 1_555 1_555
C165 C164 1_555 1_555
H174 C165 1_555 1_555
H175 C165 1_555 1_555
H176 C165 1_555 1_555
C166 N21 1_555 1_555
H177 C166 1_555 1_555
H178 C166 1_555 1_555
C167 C166 1_555 1_555
H179 C167 1_555 1_555
H180 C167 1_555 1_555
H181 C167 1_555 1_555
C168 N21 1_555 1_555
H182 C168 1_555 1_555
H183 C168 1_555 1_555
C169 C168 1_555 1_555
H184 C169 1_555 1_555
H185 C169 1_555 1_555
H186 C169 1_555 1_555
N22 H187 1_555 1_555
H187 N22A 1_555 1_555
H188 N22 1_555 1_555
C170 N22 1_555 1_555
H189 C170 1_555 1_555
H190 C170 1_555 1_555
H191 C170 1_555 1_555
C171 N22 1_555 1_555
H192 C171 1_555 1_555
H193 C171 1_555 1_555
H194 C171 1_555 1_555
Zn7B O9 1_555 1_555
Zn8E O21 1_555 1_555
Zn9B O35 1_555 1_555
Zn10B O36 1_555 1_555
Zn10B_2 O10 1_555 1_555
O9B Zn7 1_555 1_555
O10B Zn10 1_555 1_555
O20E Zn10 1_555 1_555
O21E Zn8 1_555 1_555
O35B Zn9 1_555 1_555
O36B Zn10 1_555 1_555
N22A N22 1_555 1_555
H187A N22 1_555 1_555
H188A N22A 1_555 1_555
C170A N22 1_555 1_555
H189A C170 1_555 1_555
H190A C170 1_555 1_555
H191A C170 1_555 1_555
C171A N22 1_555 1_555
H192A C171A 1_555 1_555
H193A C171A 1_555 1_555
H194A C171A 1_555 1_555
Zn2 O11 1_555 1_555
Zn2 O12 1_555 1_555
Zn2 O13 1_555 1_555
Zn4 O37 1_555 1_555
Zn4 O38 1_555 1_555
Zn4 O39 1_555 1_555
Zn6 O22 1_555 1_555
Zn6 O23 1_555 1_555
Zn6 O28 1_555 1_555
C5 C6 1_555 1_555
C9 O11 1_555 1_555
C12 C13 1_555 1_555
O5 N3 1_555 1_555
C17 O12 1_555 1_555
C20 C21 1_555 1_555
C22 N4 1_555 1_555
N4 O6 1_555 1_555
O7 N5 1_555 1_555
C25 O13 1_555 1_555
C28 C29 1_555 1_555
C30 N6 1_555 1_555
N6 O8 1_555 1_555
C40 O15 1_555 1_555
C41 C42 1_555 1_555
C43 C44 1_555 1_555
C55 O22 1_555 1_555
C58 C59 1_555 1_555
O18 N9 1_555 1_555
C63 O23 1_555 1_555
C66 C67 1_555 1_555
C68 N10 1_555 1_555
N10 O19 1_555 1_555
C73 C74 1_555 1_555
C81 O24 1_555 1_555
C81 O25 1_555 1_555
O26 N11 1_555 1_555
C82 C83 1_555 1_555
C84 C85 1_555 1_555
C88 O28 1_555 1_555
C91 C92 1_555 1_555
C93 N12 1_555 1_555
N12 O27 1_555 1_555
C102 C103 1_555 1_555
C106 O37 1_555 1_555
C109 C110 1_555 1_555
O31 N15 1_555 1_555
C114 O38 1_555 1_555
C117 C118 1_555 1_555
C119 N16 1_555 1_555
N16 O32 1_555 1_555
O33 N17 1_555 1_555
C122 O39 1_555 1_555
C125 C137 1_555 1_555
C126 N18 1_555 1_555
N18 O34 1_555 1_555
C131 C132 1_555 1_555
C136 O40 1_555 1_555
C136 O41 1_555 1_555
C150 O42 1_555 1_555
C170 N22A 1_555 1_555
H189 C170A 1_555 1_555
H190 C170A 1_555 1_555
H191 C170A 1_555 1_555
C171 N22A 1_555 1_555
N22A H187A 1_555 1_555
N22A C170A 1_555 1_555
N22A C171A 1_555 1_555
C170A H189A 1_555 1_555
C170A H190A 1_555 1_555
C170A H191A 1_555 1_555

#END
