
#######################################################################
#
#                 Cambridge Crystallographic Data Centre
#                                CCDC 
#
#######################################################################
#
# If this CIF has been generated from an entry in the Cambridge 
# Structural Database, then it will include bibliographic, chemical, 
# crystal, experimental, refinement or atomic coordinate data resulting 
# from the CCDC's data processing and validation procedures.
#
#######################################################################

data_OKUKAI
_chemical_formula_moiety         '(C114 H60 B6 Br9 Co6 N18 O40 Zn4 2-)n'
_symmetry_cell_setting           monoclinic
_symmetry_space_group_name_H-M   'C 2/m'
_symmetry_Int_Tables_number      12
_space_group_name_Hall           '-C 2y'
loop_
_symmetry_equiv_pos_site_id
_symmetry_equiv_pos_as_xyz
1 x,y,z
2 -x,y,-z
3 1/2+x,1/2+y,z
4 1/2-x,1/2+y,-z
5 -x,-y,-z
6 x,-y,z
7 1/2-x,1/2-y,-z
8 1/2+x,1/2-y,z
_cell_length_a                   45.916(4)
_cell_length_b                   30.605(2)
_cell_length_c                   27.785(2)
_cell_angle_alpha                90
_cell_angle_beta                 100.851(8)
_cell_angle_gamma                90
_cell_volume                     38347
loop_
_atom_site_label
_atom_site_type_symbol
_atom_site_fract_x
_atom_site_fract_y
_atom_site_fract_z
Zn1 Zn 0.59759(3) 0.44866(4) 0.32554(4)
Zn2 Zn 0.57065(4) 0.5000 0.40434(7)
Zn3 Zn 0.63925(4) 0.5000 0.40986(7)
Co1 Co 0.61685(4) 0.5000 0.81746(7)
Co2 Co 0.61081(5) 0.5000 0.92071(8)
Co3 Co 0.37772(4) 0.26877(6) 0.33791(7)
Co4 Co 0.32250(4) 0.22191(7) 0.34075(11)
O1 O 0.60168(15) 0.5000 0.3650(3)
C1 C 0.4642(2) 0.3458(4) 0.3357(4)
C2 C 0.4679(2) 0.3852(4) 0.3618(5)
H1 H 0.4526 0.3953 0.3776
C3 C 0.4936(2) 0.4097(4) 0.3648(5)
H2 H 0.4954 0.4366 0.3823
C4 C 0.5164(2) 0.3956(4) 0.3426(4)
C5 C 0.5136(2) 0.3567(4) 0.3170(4)
H3 H 0.5292 0.3463 0.3020
C6 C 0.4875(2) 0.3330(4) 0.3137(4)
H4 H 0.4855 0.3066 0.2953
B1 B 0.4346(3) 0.3182(5) 0.3350(6)
O2 O 0.4323(2) 0.2874(3) 0.2945(4)
N1 N 0.4084(3) 0.2602(4) 0.2905(5)
C7 C 0.4079(3) 0.2330(5) 0.2560(6)
H5 H 0.4238 0.2342 0.2386
C8 C 0.3855(3) 0.2002(4) 0.2404(5)
C9 C 0.3602(3) 0.1939(5) 0.2626(5)
C10 C 0.3401(3) 0.1596(4) 0.2444(5)
C11 C 0.3462(3) 0.1323(5) 0.2065(6)
H6 H 0.3333 0.1087 0.1951
Br1 Br 0.37980(14) 0.1012(2) 0.1374(2)
C12 C 0.3708(3) 0.1398(4) 0.1863(5)
C13 C 0.3900(3) 0.1736(5) 0.2013(6)
H7 H 0.4062 0.1790 0.1853
C14 C 0.3135(3) 0.1513(5) 0.2634(6)
H8 H 0.3013 0.1283 0.2481
N2 N 0.3045(3) 0.1710(5) 0.2978(6)
O3 O 0.2784(2) 0.1529(4) 0.3063(5)
B2 B 0.2656(3) 0.1728(6) 0.3448(8)
O4 O 0.4114(2) 0.3497(3) 0.3285(4)
N3 N 0.3830(2) 0.3351(4) 0.3255(5)
C15 C 0.3649(2) 0.3666(4) 0.3188(6)
H9 H 0.3728 0.3951 0.3170
C16 C 0.3332(2) 0.3627(4) 0.3137(5)
C17 C 0.3188(2) 0.3226(4) 0.3210(6)
C18 C 0.2870(3) 0.3221(3) 0.3122(6)
C19 C 0.2706(3) 0.3599(4) 0.2962(7)
H10 H 0.2495 0.3596 0.2902
Br2 Br 0.26363(7) 0.44894(9) 0.2706(2)
C20 C 0.2860(2) 0.3977(3) 0.2895(6)
C21 C 0.3162(2) 0.3995(4) 0.2977(6)
H11 H 0.3257 0.4262 0.2926
C22 C 0.2697(3) 0.2832(4) 0.3165(7)
H12 H 0.2487 0.2857 0.3090
N4 N 0.2807(3) 0.2460(4) 0.3297(7)
O5 O 0.2558(3) 0.2169(4) 0.3270(6)
O6 O 0.4380(2) 0.2958(3) 0.3818(3)
N5 N 0.4152(3) 0.2728(4) 0.3915(4)
C23 C 0.4192(3) 0.2579(5) 0.4345(5)
H13 H 0.4381 0.2637 0.4541
C24 C 0.3990(3) 0.2333(4) 0.4577(4)
C25 C 0.3695(3) 0.2215(5) 0.4338(5)
C26 C 0.3512(3) 0.1999(5) 0.4625(4)
C27 C 0.3612(3) 0.1913(6) 0.5129(5)
H14 H 0.3484 0.1781 0.5319
Br3 Br 0.40361(13) 0.1908(2) 0.60142(14)
C28 C 0.3899(3) 0.2025(5) 0.5340(3)
C29 C 0.4088(3) 0.2223(6) 0.5075(4)
H15 H 0.4287 0.2285 0.5229
C30 C 0.3218(3) 0.1847(5) 0.4419(6)
H16 H 0.3103 0.1716 0.4632
N6 N 0.3105(3) 0.1879(5) 0.3969(5)
O7 O 0.2838(3) 0.1706(4) 0.3951(6)
C31 C 0.2356(2) 0.1477(4) 0.3488(5)
C32 C 0.2083(3) 0.1563(4) 0.3181(6)
H17 H 0.2071 0.1783 0.2938
C33 C 0.1831(2) 0.1328(4) 0.3231(6)
H18 H 0.1648 0.1391 0.3021
C34 C 0.1844(2) 0.1005(4) 0.3581(5)
C35 C 0.2115(2) 0.0907(4) 0.3895(6)
H19 H 0.2128 0.0684 0.4136
C36 C 0.2359(2) 0.1144(5) 0.3840(6)
H20 H 0.2542 0.1080 0.4051
C37 C 0.5449(2) 0.4211(4) 0.3505(5)
O8 O 0.5460(2) 0.4497(3) 0.3846(4)
O9 O 0.56338(18) 0.4120(3) 0.3254(3)
O10 O 0.3549(2) 0.2186(4) 0.2970(4)
O11 O 0.3336(2) 0.2870(3) 0.3307(5)
O12 O 0.3618(2) 0.2310(4) 0.3885(4)
C38 C 0.1572(2) 0.0748(4) 0.3646(6)
O13 O 0.13321(18) 0.0869(3) 0.3374(4)
O14 O 0.1611(2) 0.0451(4) 0.3968(5)
C39 C 0.6216(3) 0.5000 0.6537(3)
C40 C 0.5942(3) 0.5000 0.6220(4)
H21 H 0.5767 0.5000 0.6358
C41 C 0.5911(3) 0.5000 0.5717(4)
H22 H 0.5719 0.5000 0.5518
C42 C 0.6161(3) 0.5000 0.5501(3)
C43 C 0.6437(3) 0.5000 0.5808(4)
H23 H 0.6612 0.5000 0.5671
C44 C 0.6461(3) 0.5000 0.6312(4)
H24 H 0.6654 0.5000 0.6512
B3 B 0.6230(4) 0.5000 0.7115(4)
O15 O 0.6527(2) 0.5000 0.7371(3)
N7 N 0.6555(2) 0.5000 0.7855(4)
C45 C 0.6825(3) 0.5000 0.8069(4)
H25 H 0.6970 0.5000 0.7867
C46 C 0.6928(2) 0.5000 0.8589(4)
C47 C 0.6746(3) 0.5000 0.8950(4)
C48 C 0.6886(2) 0.5000 0.9458(4)
C49 C 0.7197(2) 0.5000 0.9592(5)
H26 H 0.7290 0.5000 0.9928
Br4 Br 0.77836(7) 0.5000 0.94098(15)
C50 C 0.73662(19) 0.5000 0.9229(4)
C51 C 0.7242(2) 0.5000 0.8737(4)
H27 H 0.7366 0.5000 0.8499
C52 C 0.6727(3) 0.5000 0.9861(5)
H28 H 0.6842 0.5000 1.0183
N8 N 0.6450(3) 0.5000 0.9820(5)
O16 O 0.6375(3) 0.5000 1.0275(4)
B4 B 0.6060(5) 0.5000 1.0278(5)
O17 O 0.60638(16) 0.5392(2) 0.7184(3)
N9 N 0.6023(2) 0.5469(3) 0.7648(3)
C53 C 0.5877(2) 0.5819(3) 0.7664(4)
H29 H 0.5820 0.5975 0.7366
C54 C 0.5789(2) 0.6003(3) 0.8095(3)
C55 C 0.5842(2) 0.5796(3) 0.8560(3)
C56 C 0.5745(2) 0.6006(3) 0.8962(3)
C57 C 0.5604(3) 0.6410(3) 0.8886(4)
H30 H 0.5534 0.6551 0.9147
Br5 Br 0.53808(7) 0.71700(7) 0.83463(8)
C58 C 0.5565(2) 0.6604(3) 0.8434(4)
C59 C 0.5650(2) 0.6410(3) 0.8042(4)
H31 H 0.5615 0.6552 0.7732
C60 C 0.5781(3) 0.5828(4) 0.9449(4)
H32 H 0.5703 0.5991 0.9687
N10 N 0.5910(3) 0.5469(3) 0.9585(3)
O18 O 0.5909(2) 0.5398(3) 1.0082(3)
C61 C 0.6022(5) 0.5000 1.0837(5)
C62 C 0.5994(3) 0.5370(4) 1.1108(4)
H33 H 0.6003 0.5644 1.0952
C63 C 0.5954(3) 0.5376(4) 1.1581(4)
H34 H 0.5933 0.5649 1.1734
C64 C 0.5942(5) 0.5000 1.1842(5)
C65 C 0.6117(3) 0.5000 0.4948(4)
O19 O 0.5852(3) 0.5000 0.4734(4)
O20 O 0.6356(3) 0.5000 0.4779(4)
O21 O 0.6468(2) 0.5000 0.8830(3)
O22 O 0.59857(18) 0.5428(2) 0.8618(3)
C66 C 0.5935(5) 0.5000 1.2384(5)
O23 O 0.5934(2) 0.5369(3) 1.2579(3)
O17E O 0.60638(16) 0.4608(2) 0.7184(3)
N9E N 0.6023(2) 0.4531(3) 0.7648(3)
C53E C 0.5877(2) 0.4181(3) 0.7664(4)
H29E H 0.5820 0.4025 0.7366
C54E C 0.5789(2) 0.3997(3) 0.8095(3)
C55E C 0.5842(2) 0.4204(3) 0.8560(3)
C56E C 0.5745(2) 0.3994(3) 0.8962(3)
C57E C 0.5604(3) 0.3590(3) 0.8886(4)
H30E H 0.5534 0.3449 0.9147
Br5E Br 0.53808(7) 0.28300(7) 0.83463(8)
C58E C 0.5565(2) 0.3396(3) 0.8434(4)
C59E C 0.5650(2) 0.3590(3) 0.8042(4)
H31E H 0.5615 0.3448 0.7732
C60E C 0.5781(3) 0.4172(4) 0.9449(4)
H32E H 0.5703 0.4009 0.9687
N10E N 0.5910(3) 0.4531(3) 0.9585(3)
O18E O 0.5909(2) 0.4602(3) 1.0082(3)
C62E C 0.5994(3) 0.4630(4) 1.1108(4)
H33E H 0.6003 0.4356 1.0952
C63E C 0.5954(3) 0.4624(4) 1.1581(4)
H34E H 0.5933 0.4351 1.1734
O22E O 0.59857(18) 0.4572(2) 0.8618(3)
O23E O 0.5934(2) 0.4631(3) 1.2579(3)
Zn1E Zn 0.59759(3) 0.55134(4) 0.32554(4)
Co3E Co 0.37772(4) 0.73123(6) 0.33791(7)
Co4E Co 0.32250(4) 0.77809(7) 0.34075(11)
C1E C 0.4642(2) 0.6542(4) 0.3357(4)
C2E C 0.4679(2) 0.6148(4) 0.3618(5)
H1E H 0.4526 0.6047 0.3776
C3E C 0.4936(2) 0.5903(4) 0.3648(5)
H2E H 0.4954 0.5634 0.3823
C4E C 0.5164(2) 0.6044(4) 0.3426(4)
C5E C 0.5136(2) 0.6433(4) 0.3170(4)
H3E H 0.5292 0.6537 0.3020
C6E C 0.4875(2) 0.6670(4) 0.3137(4)
H4E H 0.4855 0.6934 0.2953
B1E B 0.4346(3) 0.6818(5) 0.3350(6)
O2E O 0.4323(2) 0.7126(3) 0.2945(4)
N1E N 0.4084(3) 0.7398(4) 0.2905(5)
C7E C 0.4079(3) 0.7670(5) 0.2560(6)
H5E H 0.4238 0.7658 0.2386
C8E C 0.3855(3) 0.7998(4) 0.2404(5)
C9E C 0.3602(3) 0.8061(5) 0.2626(5)
C10E C 0.3401(3) 0.8404(4) 0.2444(5)
C11E C 0.3462(3) 0.8677(5) 0.2065(6)
H6E H 0.3333 0.8913 0.1951
Br1E Br 0.37980(14) 0.8988(2) 0.1374(2)
C12E C 0.3708(3) 0.8602(4) 0.1863(5)
C13E C 0.3900(3) 0.8264(5) 0.2013(6)
H7E H 0.4062 0.8210 0.1853
C14E C 0.3135(3) 0.8487(5) 0.2634(6)
H8E H 0.3013 0.8717 0.2481
N2E N 0.3045(3) 0.8290(5) 0.2978(6)
O3E O 0.2784(2) 0.8471(4) 0.3063(5)
B2E B 0.2656(3) 0.8272(6) 0.3448(8)
O4E O 0.4114(2) 0.6503(3) 0.3285(4)
N3E N 0.3830(2) 0.6649(4) 0.3255(5)
C15E C 0.3649(2) 0.6334(4) 0.3188(6)
H9E H 0.3728 0.6049 0.3170
C16E C 0.3332(2) 0.6373(4) 0.3137(5)
C17E C 0.3188(2) 0.6774(4) 0.3210(6)
C18E C 0.2870(3) 0.6779(3) 0.3122(6)
C19E C 0.2706(3) 0.6401(4) 0.2962(7)
H10E H 0.2495 0.6404 0.2902
Br2E Br 0.26363(7) 0.55106(9) 0.2706(2)
C20E C 0.2860(2) 0.6023(3) 0.2895(6)
C21E C 0.3162(2) 0.6005(4) 0.2977(6)
H11E H 0.3257 0.5738 0.2926
C22E C 0.2697(3) 0.7168(4) 0.3165(7)
H12E H 0.2487 0.7143 0.3090
N4E N 0.2807(3) 0.7540(4) 0.3297(7)
O5E O 0.2558(3) 0.7831(4) 0.3270(6)
O6E O 0.4380(2) 0.7042(3) 0.3818(3)
N5E N 0.4152(3) 0.7272(4) 0.3915(4)
C23E C 0.4192(3) 0.7421(5) 0.4345(5)
H13E H 0.4381 0.7363 0.4541
C24E C 0.3990(3) 0.7667(4) 0.4577(4)
C25E C 0.3695(3) 0.7785(5) 0.4338(5)
C26E C 0.3512(3) 0.8001(5) 0.4625(4)
C27E C 0.3612(3) 0.8087(6) 0.5129(5)
H14E H 0.3484 0.8219 0.5319
Br3E Br 0.40361(13) 0.8092(2) 0.60142(14)
C28E C 0.3899(3) 0.7975(5) 0.5340(3)
C29E C 0.4088(3) 0.7777(6) 0.5075(4)
H15E H 0.4287 0.7715 0.5229
C30E C 0.3218(3) 0.8153(5) 0.4419(6)
H16E H 0.3103 0.8284 0.4632
N6E N 0.3105(3) 0.8121(5) 0.3969(5)
O7E O 0.2838(3) 0.8294(4) 0.3951(6)
C31E C 0.2356(2) 0.8523(4) 0.3488(5)
C32E C 0.2083(3) 0.8437(4) 0.3181(6)
H17E H 0.2071 0.8217 0.2938
C33E C 0.1831(2) 0.8672(4) 0.3231(6)
H18E H 0.1648 0.8609 0.3021
C34E C 0.1844(2) 0.8995(4) 0.3581(5)
C35E C 0.2115(2) 0.9093(4) 0.3895(6)
H19E H 0.2128 0.9316 0.4136
C36E C 0.2359(2) 0.8856(5) 0.3840(6)
H20E H 0.2542 0.8920 0.4051
C37E C 0.5449(2) 0.5789(4) 0.3505(5)
O8E O 0.5460(2) 0.5503(3) 0.3846(4)
O9E O 0.56338(18) 0.5880(3) 0.3254(3)
O10E O 0.3549(2) 0.7814(4) 0.2970(4)
O11E O 0.3336(2) 0.7130(3) 0.3307(5)
O12E O 0.3618(2) 0.7690(4) 0.3885(4)
C38E C 0.1572(2) 0.9252(4) 0.3646(6)
O13E O 0.13321(18) 0.9131(3) 0.3374(4)
O14E O 0.1611(2) 0.9549(4) 0.3968(5)
Zn1_2 Zn 0.59759(3) 0.44866(4) 1.32554(4)
Zn1B Zn 0.09759(3) 0.94866(4) 0.32554(4)
Zn1E_2 Zn 0.59759(3) 0.55134(4) 1.32554(4)
Zn1G Zn 0.09759(3) 0.05134(4) 0.32554(4)
Zn3B Zn 0.13925(4) 0.0000 0.40986(7)
Zn3B_2 Zn 0.13925(4) 1.0000 0.40986(7)
O13B O 0.63321(18) 0.5869(3) 0.3374(4)
O13G O 0.63321(18) 0.4131(3) 0.3374(4)
O14B O 0.6611(2) 0.5451(4) 0.3968(5)
O14G O 0.6611(2) 0.4549(4) 0.3968(5)
O23_2 O 0.5934(2) 0.5369(3) 0.2579(3)
O23E_2 O 0.5934(2) 0.4631(3) 0.2579(3)
loop_
_geom_bond_atom_site_label_1
_geom_bond_atom_site_label_2
_geom_bond_site_symmetry_1
_geom_bond_site_symmetry_2
Zn1 O1 1_555 1_555
Zn2 O1 1_555 1_555
Zn3 O1 1_555 1_555
Co1 N7 1_555 1_555
Co2 N8 1_555 1_555
Co3 N1 1_555 1_555
Co4 N2 1_555 1_555
O1 Zn1E 1_555 1_555
C1 C2 1_555 1_555
C2 H1 1_555 1_555
C3 C2 1_555 1_555
H2 C3 1_555 1_555
C4 C3 1_555 1_555
C5 C4 1_555 1_555
H3 C5 1_555 1_555
C6 C1 1_555 1_555
H4 C6 1_555 1_555
B1 C1 1_555 1_555
O2 B1 1_555 1_555
N1 O2 1_555 1_555
C7 N1 1_555 1_555
H5 C7 1_555 1_555
C8 C7 1_555 1_555
C9 C8 1_555 1_555
C10 C9 1_555 1_555
C11 C10 1_555 1_555
H6 C11 1_555 1_555
Br1 C12 1_555 1_555
C12 C11 1_555 1_555
C13 C8 1_555 1_555
H7 C13 1_555 1_555
C14 C10 1_555 1_555
H8 C14 1_555 1_555
N2 C14 1_555 1_555
O3 N2 1_555 1_555
B2 O3 1_555 1_555
O4 B1 1_555 1_555
N3 Co3 1_555 1_555
C15 N3 1_555 1_555
H9 C15 1_555 1_555
C16 C15 1_555 1_555
C17 C16 1_555 1_555
C18 C17 1_555 1_555
C19 C18 1_555 1_555
H10 C19 1_555 1_555
Br2 C20 1_555 1_555
C20 C19 1_555 1_555
C21 C16 1_555 1_555
H11 C21 1_555 1_555
C22 C18 1_555 1_555
H12 C22 1_555 1_555
N4 Co4 1_555 1_555
O5 B2 1_555 1_555
O6 B1 1_555 1_555
N5 Co3 1_555 1_555
C23 N5 1_555 1_555
H13 C23 1_555 1_555
C24 C23 1_555 1_555
C25 C24 1_555 1_555
C26 C25 1_555 1_555
C27 C26 1_555 1_555
H14 C27 1_555 1_555
Br3 C28 1_555 1_555
C28 C27 1_555 1_555
C29 C24 1_555 1_555
H15 C29 1_555 1_555
C30 C26 1_555 1_555
H16 C30 1_555 1_555
N6 Co4 1_555 1_555
O7 B2 1_555 1_555
C31 B2 1_555 1_555
C32 C31 1_555 1_555
H17 C32 1_555 1_555
C33 C32 1_555 1_555
H18 C33 1_555 1_555
C34 C33 1_555 1_555
C35 C34 1_555 1_555
H19 C35 1_555 1_555
C36 C31 1_555 1_555
H20 C36 1_555 1_555
C37 C4 1_555 1_555
O8 Zn2 1_555 1_555
O9 Zn1 1_555 1_555
O10 Co3 1_555 1_555
O11 Co3 1_555 1_555
O12 Co3 1_555 1_555
C38 C34 1_555 1_555
O13 C38 1_555 1_555
O14 C38 1_555 1_555
C39 C40 1_555 1_555
C40 H21 1_555 1_555
C41 C40 1_555 1_555
H22 C41 1_555 1_555
C42 C41 1_555 1_555
C43 C42 1_555 1_555
H23 C43 1_555 1_555
C44 C39 1_555 1_555
H24 C44 1_555 1_555
B3 C39 1_555 1_555
O15 B3 1_555 1_555
N7 O15 1_555 1_555
C45 N7 1_555 1_555
H25 C45 1_555 1_555
C46 C45 1_555 1_555
C47 C46 1_555 1_555
C48 C47 1_555 1_555
C49 C48 1_555 1_555
H26 C49 1_555 1_555
Br4 C50 1_555 1_555
C50 C49 1_555 1_555
C51 C46 1_555 1_555
H27 C51 1_555 1_555
C52 C48 1_555 1_555
H28 C52 1_555 1_555
N8 C52 1_555 1_555
O16 N8 1_555 1_555
B4 O16 1_555 1_555
O17 B3 1_555 1_555
N9 Co1 1_555 1_555
C53 N9 1_555 1_555
H29 C53 1_555 1_555
C54 C53 1_555 1_555
C55 C54 1_555 1_555
C56 C55 1_555 1_555
C57 C56 1_555 1_555
H30 C57 1_555 1_555
Br5 C58 1_555 1_555
C58 C57 1_555 1_555
C59 C54 1_555 1_555
H31 C59 1_555 1_555
C60 C56 1_555 1_555
H32 C60 1_555 1_555
N10 Co2 1_555 1_555
O18 B4 1_555 1_555
C61 B4 1_555 1_555
C62 C61 1_555 1_555
H33 C62 1_555 1_555
C63 C62 1_555 1_555
H34 C63 1_555 1_555
C64 C63 1_555 1_555
C65 C42 1_555 1_555
O19 Zn2 1_555 1_555
O20 Zn3 1_555 1_555
O21 Co1 1_555 1_555
O22 Co1 1_555 1_555
C66 C64 1_555 1_555
O23 C66 1_555 1_555
O17E B3 1_555 1_555
N9E Co1 1_555 1_555
C53E N9E 1_555 1_555
H29E C53E 1_555 1_555
C54E C53E 1_555 1_555
C55E C54E 1_555 1_555
C56E C55E 1_555 1_555
C57E C56E 1_555 1_555
H30E C57E 1_555 1_555
Br5E C58E 1_555 1_555
C58E C57E 1_555 1_555
C59E C54E 1_555 1_555
H31E C59E 1_555 1_555
C60E C56E 1_555 1_555
H32E C60E 1_555 1_555
N10E Co2 1_555 1_555
O18E B4 1_555 1_555
C62E C61 1_555 1_555
H33E C62E 1_555 1_555
C63E C64 1_555 1_555
H34E C63E 1_555 1_555
O22E Co1 1_555 1_555
O23E C66 1_555 1_555
Zn1E O9E 1_555 1_555
Co3E N1E 1_555 1_555
Co4E N2E 1_555 1_555
C1E C2E 1_555 1_555
C2E H1E 1_555 1_555
C3E C2E 1_555 1_555
H2E C3E 1_555 1_555
C4E C3E 1_555 1_555
C5E C4E 1_555 1_555
H3E C5E 1_555 1_555
C6E C1E 1_555 1_555
H4E C6E 1_555 1_555
B1E C1E 1_555 1_555
O2E B1E 1_555 1_555
N1E O2E 1_555 1_555
C7E N1E 1_555 1_555
H5E C7E 1_555 1_555
C8E C7E 1_555 1_555
C9E C8E 1_555 1_555
C10E C9E 1_555 1_555
C11E C10E 1_555 1_555
H6E C11E 1_555 1_555
Br1E C12E 1_555 1_555
C12E C11E 1_555 1_555
C13E C8E 1_555 1_555
H7E C13E 1_555 1_555
C14E C10E 1_555 1_555
H8E C14E 1_555 1_555
N2E C14E 1_555 1_555
O3E N2E 1_555 1_555
B2E O3E 1_555 1_555
O4E B1E 1_555 1_555
N3E Co3E 1_555 1_555
C15E N3E 1_555 1_555
H9E C15E 1_555 1_555
C16E C15E 1_555 1_555
C17E C16E 1_555 1_555
C18E C17E 1_555 1_555
C19E C18E 1_555 1_555
H10E C19E 1_555 1_555
Br2E C20E 1_555 1_555
C20E C19E 1_555 1_555
C21E C16E 1_555 1_555
H11E C21E 1_555 1_555
C22E C18E 1_555 1_555
H12E C22E 1_555 1_555
N4E Co4E 1_555 1_555
O5E B2E 1_555 1_555
O6E B1E 1_555 1_555
N5E Co3E 1_555 1_555
C23E N5E 1_555 1_555
H13E C23E 1_555 1_555
C24E C23E 1_555 1_555
C25E C24E 1_555 1_555
C26E C25E 1_555 1_555
C27E C26E 1_555 1_555
H14E C27E 1_555 1_555
Br3E C28E 1_555 1_555
C28E C27E 1_555 1_555
C29E C24E 1_555 1_555
H15E C29E 1_555 1_555
C30E C26E 1_555 1_555
H16E C30E 1_555 1_555
N6E Co4E 1_555 1_555
O7E B2E 1_555 1_555
C31E B2E 1_555 1_555
C32E C31E 1_555 1_555
H17E C32E 1_555 1_555
C33E C32E 1_555 1_555
H18E C33E 1_555 1_555
C34E C33E 1_555 1_555
C35E C34E 1_555 1_555
H19E C35E 1_555 1_555
C36E C31E 1_555 1_555
H20E C36E 1_555 1_555
C37E C4E 1_555 1_555
O8E Zn2 1_555 1_555
O9E C37E 1_555 1_555
O10E Co3E 1_555 1_555
O11E Co3E 1_555 1_555
O12E Co3E 1_555 1_555
C38E C34E 1_555 1_555
O13E C38E 1_555 1_555
O14E C38E 1_555 1_555
Zn1_2 O23E 1_555 1_555
Zn1B O13E 1_555 1_555
Zn1E_2 O23 1_555 1_555
Zn1G O13 1_555 1_555
Zn3B O14 1_555 1_555
Zn3B_2 O14E 1_555 1_555
O13B Zn1E 1_555 1_555
O13G Zn1 1_555 1_555
O14B Zn3 1_555 1_555
O14G Zn3 1_555 1_555
O23_2 Zn1E 1_555 1_555
O23E_2 Zn1 1_555 1_555
Co2 O21 1_555 1_555
Co2 O22 1_555 1_555
Co2 O22E 1_555 1_555
Co4 O10 1_555 1_555
Co4 O11 1_555 1_555
Co4 O12 1_555 1_555
C5 C6 1_555 1_555
C9 O10 1_555 1_555
C12 C13 1_555 1_555
O4 N3 1_555 1_555
C17 O11 1_555 1_555
C20 C21 1_555 1_555
C22 N4 1_555 1_555
N4 O5 1_555 1_555
O6 N5 1_555 1_555
C25 O12 1_555 1_555
C28 C29 1_555 1_555
C30 N6 1_555 1_555
N6 O7 1_555 1_555
C35 C36 1_555 1_555
C37 O8 1_555 1_555
C37 O9 1_555 1_555
C43 C44 1_555 1_555
C47 O21 1_555 1_555
C50 C51 1_555 1_555
O17 N9 1_555 1_555
C55 O22 1_555 1_555
C58 C59 1_555 1_555
C60 N10 1_555 1_555
N10 O18 1_555 1_555
C65 O19 1_555 1_555
C65 O20 1_555 1_555
O17E N9E 1_555 1_555
C55E O22E 1_555 1_555
C58E C59E 1_555 1_555
C60E N10E 1_555 1_555
N10E O18E 1_555 1_555
C62E C63E 1_555 1_555
Co4E O10E 1_555 1_555
Co4E O11E 1_555 1_555
Co4E O12E 1_555 1_555
C5E C6E 1_555 1_555
C9E O10E 1_555 1_555
C12E C13E 1_555 1_555
O4E N3E 1_555 1_555
C17E O11E 1_555 1_555
C20E C21E 1_555 1_555
C22E N4E 1_555 1_555
N4E O5E 1_555 1_555
O6E N5E 1_555 1_555
C25E O12E 1_555 1_555
C28E C29E 1_555 1_555
C30E N6E 1_555 1_555
N6E O7E 1_555 1_555
C35E C36E 1_555 1_555
C37E O8E 1_555 1_555

#END
