
#######################################################################
#
#                 Cambridge Crystallographic Data Centre
#                                CCDC 
#
#######################################################################
#
# If this CIF has been generated from an entry in the Cambridge 
# Structural Database, then it will include bibliographic, chemical, 
# crystal, experimental, refinement or atomic coordinate data resulting 
# from the CCDC's data processing and validation procedures.
#
#######################################################################

data_OKUKEM
_chemical_formula_moiety         '(C150 H141 B6 Co6 N18 O40 Zn4 2-)n'
_symmetry_cell_setting           rhombohedral
_symmetry_space_group_name_H-M   'R -3'
_symmetry_Int_Tables_number      148
_space_group_name_Hall           '-R 3'
loop_
_symmetry_equiv_pos_site_id
_symmetry_equiv_pos_as_xyz
1 x,y,z
2 -y,x-y,z
3 -x+y,-x,z
4 2/3+x,1/3+y,1/3+z
5 2/3-y,1/3+x-y,1/3+z
6 2/3-x+y,1/3-x,1/3+z
7 1/3+x,2/3+y,2/3+z
8 1/3-y,2/3+x-y,2/3+z
9 1/3-x+y,2/3-x,2/3+z
10 -x,-y,-z
11 y,-x+y,-z
12 x-y,x,-z
13 1/3-x,2/3-y,2/3-z
14 1/3+y,2/3-x+y,2/3-z
15 1/3+x-y,2/3+x,2/3-z
16 2/3-x,1/3-y,1/3-z
17 2/3+y,1/3-x+y,1/3-z
18 2/3+x-y,1/3+x,1/3-z
_cell_length_a                   31.473(5)
_cell_length_b                   31.473(5)
_cell_length_c                   62.316(13)
_cell_angle_alpha                90
_cell_angle_beta                 90
_cell_angle_gamma                120
_cell_volume                     53457.2
loop_
_atom_site_label
_atom_site_type_symbol
_atom_site_fract_x
_atom_site_fract_y
_atom_site_fract_z
Co1 Co 0.51198(4) 0.48788(4) 0.36289(2)
Co2 Co 0.48029(4) 0.51956(4) 0.40124(2)
Zn1 Zn 0.40079(3) 0.70042(3) 0.54393(2)
Zn2 Zn 0.6667 0.3333 0.25144(3)
B1 B 0.5447(4) 0.4538(4) 0.32350(12)
O1 O 0.5123(2) 0.4104(2) 0.33525(9)
N1 N 0.4916(3) 0.4164(2) 0.35345(10)
C1 C 0.4593(3) 0.3750(3) 0.36096(12)
H1 H 0.4544 0.3464 0.3537
C2 C 0.4293(3) 0.3682(3) 0.37970(12)
C3 C 0.4342(3) 0.4074(3) 0.39277(13)
C4 C 0.4035(3) 0.3947(3) 0.41140(14)
C5 C 0.3675(4) 0.3455(3) 0.41515(17)
H2 H 0.3474 0.3377 0.4275
C6 C 0.3605(4) 0.3082(3) 0.40133(17)
C7 C 0.3917(4) 0.3205(3) 0.38401(17)
H3 H 0.3874 0.2951 0.3745
C8 C 0.4072(4) 0.4305(3) 0.42660(15)
H4 H 0.3885 0.4179 0.4394
N2 N 0.4323(3) 0.4765(3) 0.42520(13)
O2 O 0.4248(3) 0.4993(3) 0.44246(12)
B2 B 0.4482(5) 0.5528(5) 0.44121(17)
O3 O 0.5181(3) 0.4794(3) 0.31539(9)
N3 N 0.5005(3) 0.4971(3) 0.33081(11)
C9 C 0.4789(4) 0.5181(4) 0.32240(14)
H5 H 0.4769 0.5169 0.3072
C10 C 0.4572(4) 0.5434(4) 0.33294(14)
C11 C 0.4555(4) 0.5455(4) 0.35585(13)
C12 C 0.4353(4) 0.5731(4) 0.36508(14)
C13 C 0.4225(6) 0.6008(5) 0.35134(17)
H6 H 0.4104 0.6202 0.3576
C14 C 0.4266(5) 0.6011(5) 0.32919(17)
C15 C 0.4439(6) 0.5716(5) 0.32021(18)
H7 H 0.4467 0.5708 0.3051
C16 C 0.4292(5) 0.5761(5) 0.38797(13)
H8 H 0.4143 0.5945 0.3923
N4 N 0.4415(4) 0.5571(4) 0.40290(12)
O4 O 0.4308(3) 0.5693(3) 0.42270(12)
O5 O 0.5898(2) 0.4883(2) 0.33542(9)
N5 N 0.5837(2) 0.5089(3) 0.35305(10)
C17 C 0.6249(3) 0.5419(3) 0.36059(12)
H9 H 0.6534 0.5477 0.3529
C18 C 0.6324(3) 0.5711(3) 0.37954(12)
C19 C 0.5929(3) 0.5654(3) 0.39301(12)
C20 C 0.6055(3) 0.5977(3) 0.41093(14)
C21 C 0.6540(3) 0.6331(4) 0.41428(17)
H10 H 0.6612 0.6545 0.4262
C22 C 0.6930(3) 0.6394(4) 0.40146(16)
C23 C 0.6806(3) 0.6076(4) 0.38423(16)
H11 H 0.7062 0.6107 0.3751
C24 C 0.5697(3) 0.5960(4) 0.42610(16)
H12 H 0.5820 0.6175 0.4381
N6 N 0.5238(3) 0.5689(3) 0.42489(13)
O6 O 0.5018(3) 0.5775(3) 0.44223(12)
C25 C 0.4308(3) 0.5684(3) 0.46230(13)
C26 C 0.3866(3) 0.5383(3) 0.47216(14)
H13 H 0.3661 0.5063 0.4665
C27 C 0.3708(3) 0.5529(3) 0.48996(13)
H14 H 0.3397 0.5315 0.4961
C28 C 0.4006(3) 0.5989(3) 0.49870(11)
C29 C 0.4457(3) 0.6291(3) 0.48964(13)
H15 H 0.4667 0.6605 0.4957
C30 C 0.4606(3) 0.6141(3) 0.47169(14)
H16 H 0.4919 0.6355 0.4656
O7 O 0.4663(2) 0.4515(2) 0.38911(9)
C31 C 0.3191(5) 0.2554(3) 0.4054(2)
C32 C 0.3049(7) 0.2213(6) 0.3864(3)
H17 H 0.3343 0.2228 0.3803
H18 H 0.2820 0.1877 0.3911
H19 H 0.2892 0.2313 0.3755
C33 C 0.2736(6) 0.2525(6) 0.4144(3)
H20 H 0.2822 0.2744 0.4268
H21 H 0.2580 0.2623 0.4034
H22 H 0.2508 0.2187 0.4189
C34 C 0.3406(7) 0.2384(6) 0.4237(3)
H23 H 0.3707 0.2396 0.4187
H24 H 0.3480 0.2602 0.4361
H25 H 0.3165 0.2048 0.4279
O8 O 0.4745(3) 0.5260(3) 0.36811(9)
C35 C 0.4139(7) 0.6329(6) 0.3147(2)
C36 C 0.4550(7) 0.6636(8) 0.2996(3)
H26 H 0.4638 0.6424 0.2915
H27 H 0.4446 0.6807 0.2897
H28 H 0.4836 0.6876 0.3078
C37 C 0.3687(7) 0.5943(7) 0.3015(3)
H29 H 0.3417 0.5741 0.3113
H30 H 0.3584 0.6113 0.2915
H31 H 0.3779 0.5733 0.2935
C38 C 0.3990(8) 0.6646(8) 0.3278(3)
H32 H 0.3721 0.6437 0.3375
H33 H 0.4271 0.6887 0.3362
H34 H 0.3882 0.6818 0.3180
O9 O 0.5483(2) 0.5330(2) 0.38894(8)
C39 C 0.7457(3) 0.6788(5) 0.4068(2)
C40 C 0.7817(5) 0.6938(6) 0.3890(3)
H35 H 0.7782 0.6646 0.3818
H36 H 0.7758 0.7138 0.3787
H37 H 0.8150 0.7130 0.3948
C41 C 0.7634(7) 0.6561(7) 0.4242(3)
H38 H 0.7407 0.6455 0.4364
H39 H 0.7644 0.6278 0.4183
H40 H 0.7963 0.6807 0.4291
C42 C 0.7512(6) 0.7241(6) 0.4179(3)
H41 H 0.7274 0.7142 0.4296
H42 H 0.7845 0.7433 0.4237
H43 H 0.7453 0.7440 0.4076
C43 C 0.3831(3) 0.6160(3) 0.51757(10)
O10 O 0.34189(19) 0.58680(18) 0.52469(8)
O11 O 0.41289(18) 0.6578(2) 0.52460(8)
C44 C 0.5668(4) 0.4424(5) 0.30264(14)
C45 C 0.6108(5) 0.4414(5) 0.30345(17)
H44 H 0.6296 0.4515 0.3163
C46 C 0.6280(5) 0.4265(5) 0.28645(17)
H45 H 0.6579 0.4262 0.2878
C47 C 0.6018(5) 0.4119(5) 0.26732(17)
C48 C 0.5594(5) 0.4148(6) 0.26563(17)
H46 H 0.5415 0.4063 0.2525
C49 C 0.5432(5) 0.4301(6) 0.28287(16)
H47 H 0.5144 0.4323 0.2812
C50 C 0.6207(5) 0.3954(6) 0.2490(2)
O12 O 0.6569(4) 0.3909(5) 0.25223(18)
O13 O 0.6001(6) 0.3883(6) 0.2312(2)
O14 O 0.3333 0.6667 0.55282(10)
Co1A Co 0.51212(4) 0.02410(6) 0.36289(2)
Co2A Co 0.48044(4) -0.03927(6) 0.40124(2)
Zn1A Zn 0.29958(3) -0.29963(4) 0.54393(2)
B1A B 0.5462(4) 0.0909(6) 0.32350(12)
O1A O 0.5896(2) 0.1019(3) 0.33525(9)
N1A N 0.5836(2) 0.0752(4) 0.35345(10)
C1A C 0.6250(3) 0.0843(4) 0.36096(12)
H1A H 0.6536 0.1080 0.3537
C2A C 0.6318(3) 0.0611(4) 0.37970(12)
C3A C 0.5926(3) 0.0268(4) 0.39277(13)
C4A C 0.6053(3) 0.0088(4) 0.41140(14)
C5A C 0.6545(3) 0.0220(5) 0.41515(17)
H2A H 0.6623 0.0097 0.4275
C6A C 0.6918(3) 0.0523(5) 0.40133(17)
C7A C 0.6795(3) 0.0712(5) 0.38401(17)
H3A H 0.7049 0.0923 0.3745
C8A C 0.5695(3) -0.0233(5) 0.42660(15)
H4A H 0.5821 -0.0294 0.4394
N2A N 0.5235(3) -0.0442(4) 0.42520(13)
O2A O 0.5007(3) -0.0745(4) 0.44246(12)
B2A B 0.4472(5) -0.1046(7) 0.44121(17)
O3A O 0.5206(3) 0.0387(4) 0.31539(9)
N3A N 0.5029(3) 0.0034(4) 0.33081(11)
C9A C 0.4819(4) -0.0392(6) 0.32240(14)
H5A H 0.4831 -0.0400 0.3072
C10A C 0.4566(4) -0.0862(6) 0.33294(14)
C11A C 0.4545(4) -0.0900(6) 0.35585(13)
C12A C 0.4269(4) -0.1378(6) 0.36508(14)
C13A C 0.3992(5) -0.1783(8) 0.35134(17)
H6A H 0.3798 -0.2098 0.3576
C14A C 0.3989(5) -0.1745(7) 0.32919(17)
C15A C 0.4284(5) -0.1277(8) 0.32021(18)
H7A H 0.4292 -0.1241 0.3051
C16A C 0.4239(5) -0.1469(7) 0.38797(13)
H8A H 0.4055 -0.1802 0.3923
N4A N 0.4429(4) -0.1156(6) 0.40290(12)
O4A O 0.4307(3) -0.1385(4) 0.42270(12)
O5A O 0.5117(2) 0.1015(3) 0.33542(9)
N5A N 0.4911(3) 0.0748(4) 0.35305(10)
C17A C 0.4581(3) 0.0830(4) 0.36059(12)
H9A H 0.4523 0.1057 0.3529
C18A C 0.4289(3) 0.0613(4) 0.37954(12)
C19A C 0.4346(3) 0.0275(4) 0.39301(12)
C20A C 0.4023(3) 0.0078(4) 0.41093(14)
C21A C 0.3669(4) 0.0209(5) 0.41428(17)
H10A H 0.3455 0.0067 0.4262
C22A C 0.3606(4) 0.0536(5) 0.40146(16)
C23A C 0.3924(4) 0.0730(5) 0.38423(16)
H11A H 0.3893 0.0955 0.3751
C24A C 0.4040(4) -0.0263(5) 0.42610(16)
H12A H 0.3825 -0.0355 0.4381
N6A N 0.4311(3) -0.0451(4) 0.42489(13)
O6A O 0.4225(3) -0.0757(4) 0.44223(12)
C25A C 0.4316(3) -0.1376(4) 0.46230(13)
C26A C 0.4617(3) -0.1517(4) 0.47216(14)
H13A H 0.4937 -0.1402 0.4665
C27A C 0.4471(3) -0.1821(4) 0.48996(13)
H14A H 0.4685 -0.1918 0.4961
C28A C 0.4011(3) -0.1983(4) 0.49870(11)
C29A C 0.3709(3) -0.1834(4) 0.48964(13)
H15A H 0.3395 -0.1938 0.4957
C30A C 0.3859(3) -0.1535(4) 0.47169(14)
H16A H 0.3645 -0.1436 0.4656
O7A O 0.5485(2) 0.0148(3) 0.38911(9)
C31A C 0.7446(3) 0.0637(6) 0.4054(2)
C32A C 0.7787(6) 0.0836(9) 0.3864(3)
H17A H 0.7772 0.1115 0.3803
H18A H 0.8123 0.0943 0.3911
H19A H 0.7687 0.0579 0.3755
C33A C 0.7475(6) 0.0211(8) 0.4144(3)
H20A H 0.7256 0.0078 0.4268
H21A H 0.7377 -0.0043 0.4034
H22A H 0.7813 0.0321 0.4189
C34A C 0.7616(6) 0.1022(9) 0.4237(3)
H23A H 0.7604 0.1311 0.4187
H24A H 0.7398 0.0878 0.4361
H25A H 0.7952 0.1117 0.4279
O8A O 0.4740(3) -0.0515(4) 0.36811(9)
C35A C 0.3671(6) -0.2190(9) 0.3147(2)
C36A C 0.3364(8) -0.2086(11) 0.2996(3)
H26A H 0.3576 -0.1786 0.2915
H27A H 0.3193 -0.2361 0.2897
H28A H 0.3124 -0.2040 0.3078
C37A C 0.4057(7) -0.2256(10) 0.3015(3)
H29A H 0.4259 -0.2324 0.3113
H30A H 0.3887 -0.2529 0.2915
H31A H 0.4267 -0.1954 0.2935
C38A C 0.3354(8) -0.2656(11) 0.3278(3)
H32A H 0.3563 -0.2716 0.3375
H33A H 0.3113 -0.2616 0.3362
H34A H 0.3182 -0.2936 0.3180
O9A O 0.4670(2) 0.0153(3) 0.38894(8)
C39A C 0.3212(5) 0.0669(6) 0.4068(2)
C40A C 0.3062(6) 0.0879(8) 0.3890(3)
H35A H 0.3354 0.1136 0.3818
H36A H 0.2862 0.0620 0.3787
H37A H 0.2870 0.1020 0.3948
C41A C 0.3439(7) 0.1073(10) 0.4242(3)
H38A H 0.3545 0.0952 0.4364
H39A H 0.3722 0.1366 0.4183
H40A H 0.3193 0.1156 0.4291
C42A C 0.2759(6) 0.0271(8) 0.4179(3)
H41A H 0.2858 0.0132 0.4296
H42A H 0.2567 0.0412 0.4237
H43A H 0.2560 0.0013 0.4076
C43A C 0.3840(3) -0.2329(4) 0.51757(10)
O10A O 0.41320(18) -0.24491(26) 0.52469(8)
O11A O 0.3422(2) -0.24491(27) 0.52460(8)
C44A C 0.5576(5) 0.1244(6) 0.30264(14)
C45A C 0.5586(5) 0.1694(7) 0.30345(17)
H44A H 0.5485 0.1781 0.3163
C46A C 0.5735(5) 0.2015(7) 0.28645(17)
H45A H 0.5738 0.2317 0.2878
C47A C 0.5881(5) 0.1899(7) 0.26732(17)
C48A C 0.5852(6) 0.1446(8) 0.26563(17)
H46A H 0.5937 0.1352 0.2525
C49A C 0.5699(6) 0.1131(8) 0.28287(16)
H47A H 0.5677 0.0821 0.2812
C50A C 0.6046(6) 0.2253(8) 0.2490(2)
O12A O 0.6091(5) 0.2660(6) 0.25223(18)
O13A O 0.6117(6) 0.2118(8) 0.2312(2)
Co1B Co -0.02410(6) 0.48802(4) 0.36289(2)
Co2B Co 0.03927(6) 0.51971(4) 0.40124(2)
Zn1B Zn 0.29963(4) 0.59921(3) 0.54393(2)
B1B B -0.0909(6) 0.4553(4) 0.32350(12)
O1B O -0.1019(3) 0.4877(2) 0.33525(9)
N1B N -0.0752(4) 0.5084(3) 0.35345(10)
C1B C -0.0843(4) 0.5407(3) 0.36096(12)
H1B H -0.1080 0.5456 0.3537
C2B C -0.0611(4) 0.5707(3) 0.37970(12)
C3B C -0.0268(4) 0.5658(3) 0.39277(13)
C4B C -0.0088(4) 0.5965(3) 0.41140(14)
C5B C -0.0220(5) 0.6325(4) 0.41515(17)
H2B H -0.0097 0.6526 0.4275
C6B C -0.0523(5) 0.6395(4) 0.40133(17)
C7B C -0.0712(5) 0.6083(4) 0.38401(17)
H3B H -0.0923 0.6126 0.3745
C8B C 0.0233(5) 0.5928(4) 0.42660(15)
H4B H 0.0294 0.6115 0.4394
N2B N 0.0442(4) 0.5677(3) 0.42520(13)
O2B O 0.0745(4) 0.5752(3) 0.44246(12)
B2B B 0.1046(7) 0.5518(5) 0.44121(17)
O3B O -0.0387(4) 0.4819(3) 0.31539(9)
N3B N -0.0034(4) 0.4995(3) 0.33081(11)
C9B C 0.0392(6) 0.5211(4) 0.32240(14)
H5B H 0.0400 0.5231 0.3072
C10B C 0.0862(6) 0.5428(4) 0.33294(14)
C11B C 0.0900(6) 0.5445(4) 0.35585(13)
C12B C 0.1378(6) 0.5647(4) 0.36508(14)
C13B C 0.1783(8) 0.5775(6) 0.35134(17)
H6B H 0.2098 0.5896 0.3576
C14B C 0.1745(7) 0.5734(5) 0.32919(17)
C15B C 0.1277(8) 0.5561(6) 0.32021(18)
H7B H 0.1241 0.5533 0.3051
C16B C 0.1469(7) 0.5708(5) 0.38797(13)
H8B H 0.1802 0.5857 0.3923
N4B N 0.1156(6) 0.5585(4) 0.40290(12)
O4B O 0.1385(4) 0.5692(3) 0.42270(12)
O5B O -0.1015(3) 0.4102(2) 0.33542(9)
N5B N -0.0748(4) 0.4163(2) 0.35305(10)
C17B C -0.0830(4) 0.3751(3) 0.36059(12)
H9B H -0.1057 0.3466 0.3529
C18B C -0.0613(4) 0.3676(3) 0.37954(12)
C19B C -0.0275(4) 0.4071(3) 0.39301(12)
C20B C -0.0078(4) 0.3945(3) 0.41093(14)
C21B C -0.0209(5) 0.3460(3) 0.41428(17)
H10B H -0.0067 0.3388 0.4262
C22B C -0.0536(5) 0.3070(3) 0.40146(16)
C23B C -0.0730(5) 0.3194(3) 0.38423(16)
H11B H -0.0955 0.2938 0.3751
C24B C 0.0263(5) 0.4303(3) 0.42610(16)
H12B H 0.0355 0.4180 0.4381
N6B N 0.0451(4) 0.4762(3) 0.42489(13)
O6B O 0.0757(4) 0.4982(3) 0.44223(12)
C25B C 0.1376(4) 0.5692(3) 0.46230(13)
C26B C 0.1517(4) 0.6134(3) 0.47216(14)
H13B H 0.1402 0.6339 0.4665
C27B C 0.1821(4) 0.6292(3) 0.48996(13)
H14B H 0.1918 0.6603 0.4961
C28B C 0.1983(4) 0.5994(3) 0.49870(11)
C29B C 0.1834(4) 0.5543(3) 0.48964(13)
H15B H 0.1938 0.5333 0.4957
C30B C 0.1535(4) 0.5394(3) 0.47169(14)
H16B H 0.1436 0.5081 0.4656
O7B O -0.0148(3) 0.5337(2) 0.38911(9)
C31B C -0.0637(6) 0.6809(5) 0.4054(2)
C32B C -0.0836(9) 0.6951(7) 0.3864(3)
H17B H -0.1115 0.6657 0.3803
H18B H -0.0943 0.7180 0.3911
H19B H -0.0579 0.7108 0.3755
C33B C -0.0211(8) 0.7264(6) 0.4144(3)
H20B H -0.0078 0.7178 0.4268
H21B H 0.0043 0.7420 0.4034
H22B H -0.0321 0.7492 0.4189
C34B C -0.1022(9) 0.6594(7) 0.4237(3)
H23B H -0.1311 0.6293 0.4187
H24B H -0.0878 0.6520 0.4361
H25B H -0.1117 0.6835 0.4279
O8B O 0.0515(4) 0.5255(3) 0.36811(9)
C35B C 0.2190(9) 0.5861(7) 0.3147(2)
C36B C 0.2086(11) 0.5450(7) 0.2996(3)
H26B H 0.1786 0.5362 0.2915
H27B H 0.2361 0.5554 0.2897
H28B H 0.2040 0.5164 0.3078
C37B C 0.2256(10) 0.6313(7) 0.3015(3)
H29B H 0.2324 0.6583 0.3113
H30B H 0.2529 0.6416 0.2915
H31B H 0.1954 0.6221 0.2935
C38B C 0.2656(11) 0.6010(8) 0.3278(3)
H32B H 0.2716 0.6279 0.3375
H33B H 0.2616 0.5729 0.3362
H34B H 0.2936 0.6118 0.3180
O9B O -0.0153(3) 0.4517(2) 0.38894(8)
C39B C -0.0669(6) 0.2543(3) 0.4068(2)
C40B C -0.0879(8) 0.2183(5) 0.3890(3)
H35B H -0.1136 0.2218 0.3818
H36B H -0.0620 0.2242 0.3787
H37B H -0.1020 0.1850 0.3948
C41B C -0.1073(10) 0.2366(7) 0.4242(3)
H38B H -0.0952 0.2593 0.4364
H39B H -0.1366 0.2356 0.4183
H40B H -0.1156 0.2037 0.4291
C42B C -0.0271(8) 0.2488(6) 0.4179(3)
H41B H -0.0132 0.2726 0.4296
H42B H -0.0412 0.2155 0.4237
H43B H -0.0013 0.2547 0.4076
C43B C 0.2329(4) 0.6169(3) 0.51757(10)
O10B O 0.24491(26) 0.65811(19) 0.52469(8)
O11B O 0.24491(27) 0.58711(18) 0.52460(8)
C44B C -0.1244(6) 0.4332(4) 0.30264(14)
C45B C -0.1694(7) 0.3892(5) 0.30345(17)
H44B H -0.1781 0.3704 0.3163
C46B C -0.2015(7) 0.3720(5) 0.28645(17)
H45B H -0.2317 0.3421 0.2878
C47B C -0.1899(7) 0.3982(5) 0.26732(17)
C48B C -0.1446(8) 0.4406(5) 0.26563(17)
H46B H -0.1352 0.4585 0.2525
C49B C -0.1131(8) 0.4568(5) 0.28287(16)
H47B H -0.0821 0.4856 0.2812
C50B C -0.2253(8) 0.3793(5) 0.2490(2)
O12B O -0.2660(6) 0.3431(4) 0.25223(18)
O13B O -0.2118(8) 0.3999(6) 0.2312(2)
Zn1_2 Zn 0.40079(3) -0.29958(3) 0.54393(2)
Zn1A_2 Zn 0.29958(3) 0.70037(4) 0.54393(2)
Zn1F Zn -0.26588(3) 0.36709(3) 0.21060(2)
Zn1G Zn 0.63291(3) 0.36704(4) 0.21060(2)
Zn1H Zn 0.63296(4) 0.26588(3) 0.21060(2)
Zn2_2 Zn -0.3333 0.3333 0.25144(3)
Zn2C Zn 0.3334 0.6666 0.58477(3)
O10A_2 O 0.41320(18) 0.75509(26) 0.52469(8)
O10B_2 O 0.24491(26) -0.34189(19) 0.52469(8)
O12B_2 O 0.7340(6) 0.3431(4) 0.25223(18)
O13C O 0.2668(6) -0.2784(6) 0.5645(2)
O13D O 0.2784(6) 0.5451(8) 0.5645(2)
O13E O 0.4549(8) 0.7332(6) 0.5645(2)
O14_2 O 0.3333 -0.3333 0.55282(10)
O14F O 0.6666 0.3334 0.21949(10)
loop_
_geom_bond_atom_site_label_1
_geom_bond_atom_site_label_2
_geom_bond_site_symmetry_1
_geom_bond_site_symmetry_2
Co1 N1 1_555 1_555
Co2 N2 1_555 1_555
Zn1 O11 1_555 1_555
Zn2 O12 1_555 1_555
B1 O1 1_555 1_555
O1 N1 1_555 1_555
N1 C1 1_555 1_555
C1 H1 1_555 1_555
C2 C1 1_555 1_555
C3 C2 1_555 1_555
C4 C3 1_555 1_555
C5 C4 1_555 1_555
H2 C5 1_555 1_555
C6 C5 1_555 1_555
C7 C2 1_555 1_555
H3 C7 1_555 1_555
C8 C4 1_555 1_555
H4 C8 1_555 1_555
N2 C8 1_555 1_555
O2 N2 1_555 1_555
B2 O2 1_555 1_555
O3 B1 1_555 1_555
N3 Co1 1_555 1_555
C9 N3 1_555 1_555
H5 C9 1_555 1_555
C10 C9 1_555 1_555
C11 C10 1_555 1_555
C12 C11 1_555 1_555
C13 C12 1_555 1_555
H6 C13 1_555 1_555
C14 C13 1_555 1_555
C15 C10 1_555 1_555
H7 C15 1_555 1_555
C16 C12 1_555 1_555
H8 C16 1_555 1_555
N4 Co2 1_555 1_555
O4 B2 1_555 1_555
O5 B1 1_555 1_555
N5 Co1 1_555 1_555
C17 N5 1_555 1_555
H9 C17 1_555 1_555
C18 C17 1_555 1_555
C19 C18 1_555 1_555
C20 C19 1_555 1_555
C21 C20 1_555 1_555
H10 C21 1_555 1_555
C22 C21 1_555 1_555
C23 C18 1_555 1_555
H11 C23 1_555 1_555
C24 C20 1_555 1_555
H12 C24 1_555 1_555
N6 Co2 1_555 1_555
O6 B2 1_555 1_555
C25 B2 1_555 1_555
C26 C25 1_555 1_555
H13 C26 1_555 1_555
C27 C26 1_555 1_555
H14 C27 1_555 1_555
C28 C27 1_555 1_555
C29 C28 1_555 1_555
H15 C29 1_555 1_555
C30 C25 1_555 1_555
H16 C30 1_555 1_555
O7 Co1 1_555 1_555
C31 C6 1_555 1_555
C32 C31 1_555 1_555
H17 C32 1_555 1_555
H18 C32 1_555 1_555
H19 C32 1_555 1_555
C33 C31 1_555 1_555
H20 C33 1_555 1_555
H21 C33 1_555 1_555
H22 C33 1_555 1_555
C34 C31 1_555 1_555
H23 C34 1_555 1_555
H24 C34 1_555 1_555
H25 C34 1_555 1_555
O8 Co1 1_555 1_555
C35 C14 1_555 1_555
C36 C35 1_555 1_555
H26 C36 1_555 1_555
H27 C36 1_555 1_555
H28 C36 1_555 1_555
C37 C35 1_555 1_555
H29 C37 1_555 1_555
H30 C37 1_555 1_555
H31 C37 1_555 1_555
C38 C35 1_555 1_555
H32 C38 1_555 1_555
H33 C38 1_555 1_555
H34 C38 1_555 1_555
O9 Co1 1_555 1_555
C39 C22 1_555 1_555
C40 C39 1_555 1_555
H35 C40 1_555 1_555
H36 C40 1_555 1_555
H37 C40 1_555 1_555
C41 C39 1_555 1_555
H38 C41 1_555 1_555
H39 C41 1_555 1_555
H40 C41 1_555 1_555
C42 C39 1_555 1_555
H41 C42 1_555 1_555
H42 C42 1_555 1_555
H43 C42 1_555 1_555
C43 C28 1_555 1_555
O10 C43 1_555 1_555
O11 C43 1_555 1_555
C44 B1 1_555 1_555
C45 C44 1_555 1_555
H44 C45 1_555 1_555
C46 C45 1_555 1_555
H45 C46 1_555 1_555
C47 C46 1_555 1_555
C48 C47 1_555 1_555
H46 C48 1_555 1_555
C49 C44 1_555 1_555
H47 C49 1_555 1_555
C50 C47 1_555 1_555
O12 C50 1_555 1_555
O13 C50 1_555 1_555
O14 Zn1 1_555 1_555
Co1A N1A 1_555 1_555
Co2A N2A 1_555 1_555
Zn1A O11A 1_555 1_555
B1A O1A 1_555 1_555
O1A N1A 1_555 1_555
N1A C1A 1_555 1_555
C1A H1A 1_555 1_555
C2A C1A 1_555 1_555
C3A C2A 1_555 1_555
C4A C3A 1_555 1_555
C5A C4A 1_555 1_555
H2A C5A 1_555 1_555
C6A C5A 1_555 1_555
C7A C2A 1_555 1_555
H3A C7A 1_555 1_555
C8A C4A 1_555 1_555
H4A C8A 1_555 1_555
N2A C8A 1_555 1_555
O2A N2A 1_555 1_555
B2A O2A 1_555 1_555
O3A B1A 1_555 1_555
N3A Co1A 1_555 1_555
C9A N3A 1_555 1_555
H5A C9A 1_555 1_555
C10A C9A 1_555 1_555
C11A C10A 1_555 1_555
C12A C11A 1_555 1_555
C13A C12A 1_555 1_555
H6A C13A 1_555 1_555
C14A C13A 1_555 1_555
C15A C10A 1_555 1_555
H7A C15A 1_555 1_555
C16A C12A 1_555 1_555
H8A C16A 1_555 1_555
N4A Co2A 1_555 1_555
O4A B2A 1_555 1_555
O5A B1A 1_555 1_555
N5A Co1A 1_555 1_555
C17A N5A 1_555 1_555
H9A C17A 1_555 1_555
C18A C17A 1_555 1_555
C19A C18A 1_555 1_555
C20A C19A 1_555 1_555
C21A C20A 1_555 1_555
H10A C21A 1_555 1_555
C22A C21A 1_555 1_555
C23A C18A 1_555 1_555
H11A C23A 1_555 1_555
C24A C20A 1_555 1_555
H12A C24A 1_555 1_555
N6A Co2A 1_555 1_555
O6A B2A 1_555 1_555
C25A B2A 1_555 1_555
C26A C25A 1_555 1_555
H13A C26A 1_555 1_555
C27A C26A 1_555 1_555
H14A C27A 1_555 1_555
C28A C27A 1_555 1_555
C29A C28A 1_555 1_555
H15A C29A 1_555 1_555
C30A C25A 1_555 1_555
H16A C30A 1_555 1_555
O7A Co1A 1_555 1_555
C31A C6A 1_555 1_555
C32A C31A 1_555 1_555
H17A C32A 1_555 1_555
H18A C32A 1_555 1_555
H19A C32A 1_555 1_555
C33A C31A 1_555 1_555
H20A C33A 1_555 1_555
H21A C33A 1_555 1_555
H22A C33A 1_555 1_555
C34A C31A 1_555 1_555
H23A C34A 1_555 1_555
H24A C34A 1_555 1_555
H25A C34A 1_555 1_555
O8A Co1A 1_555 1_555
C35A C14A 1_555 1_555
C36A C35A 1_555 1_555
H26A C36A 1_555 1_555
H27A C36A 1_555 1_555
H28A C36A 1_555 1_555
C37A C35A 1_555 1_555
H29A C37A 1_555 1_555
H30A C37A 1_555 1_555
H31A C37A 1_555 1_555
C38A C35A 1_555 1_555
H32A C38A 1_555 1_555
H33A C38A 1_555 1_555
H34A C38A 1_555 1_555
O9A Co1A 1_555 1_555
C39A C22A 1_555 1_555
C40A C39A 1_555 1_555
H35A C40A 1_555 1_555
H36A C40A 1_555 1_555
H37A C40A 1_555 1_555
C41A C39A 1_555 1_555
H38A C41A 1_555 1_555
H39A C41A 1_555 1_555
H40A C41A 1_555 1_555
C42A C39A 1_555 1_555
H41A C42A 1_555 1_555
H42A C42A 1_555 1_555
H43A C42A 1_555 1_555
C43A C28A 1_555 1_555
O10A C43A 1_555 1_555
O11A C43A 1_555 1_555
C44A B1A 1_555 1_555
C45A C44A 1_555 1_555
H44A C45A 1_555 1_555
C46A C45A 1_555 1_555
H45A C46A 1_555 1_555
C47A C46A 1_555 1_555
C48A C47A 1_555 1_555
H46A C48A 1_555 1_555
C49A C44A 1_555 1_555
H47A C49A 1_555 1_555
C50A C47A 1_555 1_555
O12A Zn2 1_555 1_555
O13A C50A 1_555 1_555
Co1B N1B 1_555 1_555
Co2B N2B 1_555 1_555
Zn1B O10 1_555 1_555
B1B O1B 1_555 1_555
O1B N1B 1_555 1_555
N1B C1B 1_555 1_555
C1B H1B 1_555 1_555
C2B C1B 1_555 1_555
C3B C2B 1_555 1_555
C4B C3B 1_555 1_555
C5B C4B 1_555 1_555
H2B C5B 1_555 1_555
C6B C5B 1_555 1_555
C7B C2B 1_555 1_555
H3B C7B 1_555 1_555
C8B C4B 1_555 1_555
H4B C8B 1_555 1_555
N2B C8B 1_555 1_555
O2B N2B 1_555 1_555
B2B O2B 1_555 1_555
O3B B1B 1_555 1_555
N3B Co1B 1_555 1_555
C9B N3B 1_555 1_555
H5B C9B 1_555 1_555
C10B C9B 1_555 1_555
C11B C10B 1_555 1_555
C12B C11B 1_555 1_555
C13B C12B 1_555 1_555
H6B C13B 1_555 1_555
C14B C13B 1_555 1_555
C15B C10B 1_555 1_555
H7B C15B 1_555 1_555
C16B C12B 1_555 1_555
H8B C16B 1_555 1_555
N4B Co2B 1_555 1_555
O4B B2B 1_555 1_555
O5B B1B 1_555 1_555
N5B Co1B 1_555 1_555
C17B N5B 1_555 1_555
H9B C17B 1_555 1_555
C18B C17B 1_555 1_555
C19B C18B 1_555 1_555
C20B C19B 1_555 1_555
C21B C20B 1_555 1_555
H10B C21B 1_555 1_555
C22B C21B 1_555 1_555
C23B C18B 1_555 1_555
H11B C23B 1_555 1_555
C24B C20B 1_555 1_555
H12B C24B 1_555 1_555
N6B Co2B 1_555 1_555
O6B B2B 1_555 1_555
C25B B2B 1_555 1_555
C26B C25B 1_555 1_555
H13B C26B 1_555 1_555
C27B C26B 1_555 1_555
H14B C27B 1_555 1_555
C28B C27B 1_555 1_555
C29B C28B 1_555 1_555
H15B C29B 1_555 1_555
C30B C25B 1_555 1_555
H16B C30B 1_555 1_555
O7B Co1B 1_555 1_555
C31B C6B 1_555 1_555
C32B C31B 1_555 1_555
H17B C32B 1_555 1_555
H18B C32B 1_555 1_555
H19B C32B 1_555 1_555
C33B C31B 1_555 1_555
H20B C33B 1_555 1_555
H21B C33B 1_555 1_555
H22B C33B 1_555 1_555
C34B C31B 1_555 1_555
H23B C34B 1_555 1_555
H24B C34B 1_555 1_555
H25B C34B 1_555 1_555
O8B Co1B 1_555 1_555
C35B C14B 1_555 1_555
C36B C35B 1_555 1_555
H26B C36B 1_555 1_555
H27B C36B 1_555 1_555
H28B C36B 1_555 1_555
C37B C35B 1_555 1_555
H29B C37B 1_555 1_555
H30B C37B 1_555 1_555
H31B C37B 1_555 1_555
C38B C35B 1_555 1_555
H32B C38B 1_555 1_555
H33B C38B 1_555 1_555
H34B C38B 1_555 1_555
O9B Co1B 1_555 1_555
C39B C22B 1_555 1_555
C40B C39B 1_555 1_555
H35B C40B 1_555 1_555
H36B C40B 1_555 1_555
H37B C40B 1_555 1_555
C41B C39B 1_555 1_555
H38B C41B 1_555 1_555
H39B C41B 1_555 1_555
H40B C41B 1_555 1_555
C42B C39B 1_555 1_555
H41B C42B 1_555 1_555
H42B C42B 1_555 1_555
H43B C42B 1_555 1_555
C43B C28B 1_555 1_555
O10B C43B 1_555 1_555
O11B Zn1B 1_555 1_555
C44B B1B 1_555 1_555
C45B C44B 1_555 1_555
H44B C45B 1_555 1_555
C46B C45B 1_555 1_555
H45B C46B 1_555 1_555
C47B C46B 1_555 1_555
C48B C47B 1_555 1_555
H46B C48B 1_555 1_555
C49B C44B 1_555 1_555
H47B C49B 1_555 1_555
C50B C47B 1_555 1_555
O12B C50B 1_555 1_555
O13B C50B 1_555 1_555
Zn1_2 O10A 1_555 1_555
Zn1A_2 O14 1_555 1_555
Zn1F O13B 1_555 1_555
Zn1G O13 1_555 1_555
Zn1H O13A 1_555 1_555
Zn2_2 O12B 1_555 1_555
Zn2C O14 1_555 1_555
O10A_2 Zn1 1_555 1_555
O10B_2 Zn1A 1_555 1_555
O12B_2 Zn2 1_555 1_555
O13C Zn1A 1_555 1_555
O13D Zn1B 1_555 1_555
O13E Zn1 1_555 1_555
O14_2 Zn1A 1_555 1_555
O14F Zn2 1_555 1_555
Co2 O7 1_555 1_555
Co2 O8 1_555 1_555
Co2 O9 1_555 1_555
C3 O7 1_555 1_555
C6 C7 1_555 1_555
O3 N3 1_555 1_555
C11 O8 1_555 1_555
C14 C15 1_555 1_555
C16 N4 1_555 1_555
N4 O4 1_555 1_555
O5 N5 1_555 1_555
C19 O9 1_555 1_555
C22 C23 1_555 1_555
C24 N6 1_555 1_555
N6 O6 1_555 1_555
C29 C30 1_555 1_555
C48 C49 1_555 1_555
O14 Zn1B 1_555 1_555
Co2A O7A 1_555 1_555
Co2A O8A 1_555 1_555
Co2A O9A 1_555 1_555
C3A O7A 1_555 1_555
C6A C7A 1_555 1_555
O3A N3A 1_555 1_555
C11A O8A 1_555 1_555
C14A C15A 1_555 1_555
C16A N4A 1_555 1_555
N4A O4A 1_555 1_555
O5A N5A 1_555 1_555
C19A O9A 1_555 1_555
C22A C23A 1_555 1_555
C24A N6A 1_555 1_555
N6A O6A 1_555 1_555
C29A C30A 1_555 1_555
C48A C49A 1_555 1_555
C50A O12A 1_555 1_555
Co2B O7B 1_555 1_555
Co2B O8B 1_555 1_555
Co2B O9B 1_555 1_555
C3B O7B 1_555 1_555
C6B C7B 1_555 1_555
O3B N3B 1_555 1_555
C11B O8B 1_555 1_555
C14B C15B 1_555 1_555
C16B N4B 1_555 1_555
N4B O4B 1_555 1_555
O5B N5B 1_555 1_555
C19B O9B 1_555 1_555
C22B C23B 1_555 1_555
C24B N6B 1_555 1_555
N6B O6B 1_555 1_555
C29B C30B 1_555 1_555
C43B O11B 1_555 1_555
O10B Zn1A_2 1_555 1_555
C48B C49B 1_555 1_555
Zn1_2 O14_2 1_555 1_555
Zn1G O14F 1_555 1_555
Zn1H O14F 1_555 1_555

#END
