
#######################################################################
#
#                 Cambridge Crystallographic Data Centre
#                                CCDC 
#
#######################################################################
#
# If this CIF has been generated from an entry in the Cambridge 
# Structural Database, then it will include bibliographic, chemical, 
# crystal, experimental, refinement or atomic coordinate data resulting 
# from the CCDC's data processing and validation procedures.
#
#######################################################################

data_OKUKOW
_chemical_formula_moiety         '(C121 H83 B4 Br4 N13 O34 S2 Zn8 2-)n'
_symmetry_cell_setting           monoclinic
_symmetry_space_group_name_H-M   'C 2/c'
_symmetry_Int_Tables_number      15
_space_group_name_Hall           '-C 2yc'
loop_
_symmetry_equiv_pos_site_id
_symmetry_equiv_pos_as_xyz
1 x,y,z
2 -x,y,1/2-z
3 1/2+x,1/2+y,z
4 1/2-x,1/2+y,1/2-z
5 -x,-y,-z
6 x,-y,1/2+z
7 1/2-x,1/2-y,-z
8 1/2+x,1/2-y,1/2+z
_cell_length_a                   40.845(5)
_cell_length_b                   42.367(5)
_cell_length_c                   34.547(9)
_cell_angle_alpha                90
_cell_angle_beta                 115.816(11)
_cell_angle_gamma                90
_cell_volume                     53816.4
loop_
_atom_site_label
_atom_site_type_symbol
_atom_site_fract_x
_atom_site_fract_y
_atom_site_fract_z
_atom_site_U_iso_or_equiv
_atom_site_thermal_displace_type
N13 N 0.7286(9) 0.1908(7) 0.5749(13) 0.3264 Uani
C119 C 0.7407(13) 0.1840(11) 0.6228(13) 0.3411 Uani
H77 H 0.7603 0.1986 0.6400 0.5110 Uiso
H78 H 0.7201 0.1869 0.6298 0.5110 Uiso
H79 H 0.7495 0.1623 0.6291 0.5110 Uiso
C120 C 0.7502(11) 0.2169(9) 0.5676(15) 0.3038 Uani
H80 H 0.7679 0.2251 0.5954 0.4500 Uiso
H81 H 0.7630 0.2087 0.5514 0.4500 Uiso
H82 H 0.7337 0.2340 0.5512 0.4500 Uiso
C121 C 0.7012(10) 0.1745(9) 0.5414(14) 0.3341 Uani
H83 H 0.6975 0.1825 0.5141 0.3990 Uiso
O34 O 0.6807(10) 0.1525(8) 0.5381(14) 0.3572 Uani
Zn1 Zn 0.00374(5) -0.08836(4) 0.13000(8) 0.0638 Uani
Zn2 Zn 0.04890(6) -0.13493(5) 0.11157(8) 0.0757 Uani
Zn3 Zn 0.47740(7) 0.13126(5) 0.57873(9) 0.0918 Uani
Zn4 Zn 0.51979(6) 0.08404(5) 0.55561(8) 0.0771 Uani
Zn5 Zn 0.24734(5) -0.17885(4) 0.55412(8) 0.0655 Uani
Zn6 Zn 0.25701(5) -0.10452(5) 0.56353(8) 0.0699 Uani
Zn7 Zn 0.31938(5) -0.15259(5) 0.62691(8) 0.0756 Uani
Zn8 Zn 0.24428(5) -0.14495(4) 0.63393(8) 0.0684 Uani
O1 O 0.2655(2) -0.1443(2) 0.5942(3) 0.0471 Uani
C1 C 0.5862(3) 0.0083(3) 0.5185(5) 0.0892 Uani
C2 C 0.6187(4) 0.0155(3) 0.5162(6) 0.1028 Uani
H1 H 0.6278 0.0365 0.5224 0.1240 Uiso
C3 C 0.6383(4) -0.0066(3) 0.5052(6) 0.1088 Uani
H2 H 0.6606 -0.0008 0.5046 0.1300 Uiso
Br1 Br 0.65013(8) -0.06838(6) 0.47872(13) 0.1560 Uani
C4 C 0.6252(4) -0.0370(3) 0.4951(5) 0.1110 Uani
C5 C 0.5931(4) -0.0445(3) 0.4964(6) 0.1038 Uani
H3 H 0.5838 -0.0653 0.4893 0.1250 Uiso
C6 C 0.5740(4) -0.0227(3) 0.5077(5) 0.0925 Uani
H4 H 0.5518 -0.0289 0.5083 0.1110 Uiso
B1 B 0.5624(4) 0.0326(3) 0.5311(6) 0.0823 Uani
O2 O 0.5899(3) 0.0618(3) 0.5547(4) 0.0872 Uani
N1 N 0.5733(4) 0.0867(3) 0.5613(5) 0.0865 Uani
C7 C 0.5963(4) 0.1120(3) 0.5750(6) 0.0837 Uani
H5 H 0.6202 0.1091 0.5773 0.1000 Uiso
C8 C 0.5875(3) 0.1438(3) 0.5868(5) 0.0892 Uani
C9 C 0.5565(4) 0.1504(3) 0.5933(5) 0.0966 Uani
C10 C 0.5520(3) 0.1820(3) 0.6042(5) 0.1014 Uani
C11 C 0.5786(4) 0.2048(3) 0.6085(5) 0.1014 Uani
H6 H 0.5759 0.2257 0.6165 0.1220 Uiso
C12 C 0.6086(3) 0.1975(3) 0.6013(5) 0.1032 Uani
C13 C 0.6131(4) 0.1668(3) 0.5907(5) 0.0974 Uani
H7 H 0.6338 0.1614 0.5862 0.1170 Uiso
C14 C 0.5212(4) 0.1932(4) 0.6104(6) 0.1097 Uani
H8 H 0.5212 0.2148 0.6176 0.1320 Uiso
N2 N 0.4943(4) 0.1768(4) 0.6071(6) 0.1151 Uani
O3 O 0.4698(4) 0.1939(3) 0.6164(5) 0.1286 Uani
B2 B 0.4331(6) 0.1805(4) 0.6022(7) 0.1425 Uani
O4 O 0.5341(3) 0.0444(2) 0.4907(4) 0.0759 Uani
N3 N 0.5107(3) 0.0677(3) 0.4929(4) 0.0733 Uani
C15 C 0.4859(3) 0.0759(3) 0.4567(5) 0.0755 Uani
H9 H 0.4870 0.0664 0.4324 0.0910 Uiso
C16 C 0.4561(3) 0.0976(3) 0.4472(4) 0.0817 Uani
C17 C 0.4500(3) 0.1142(3) 0.4798(4) 0.0891 Uani
C18 C 0.4193(4) 0.1350(3) 0.4663(4) 0.0988 Uani
C19 C 0.3959(4) 0.1382(3) 0.4221(4) 0.0934 Uani
H10 H 0.3753 0.1517 0.4134 0.1120 Uiso
C20 C 0.4021(3) 0.1220(3) 0.3911(3) 0.0887 Uani
C21 C 0.4322(3) 0.1021(3) 0.4036(4) 0.0807 Uani
H11 H 0.4367 0.0914 0.3822 0.0970 Uiso
C22 C 0.4110(4) 0.1541(4) 0.4957(5) 0.1177 Uani
H12 H 0.3894 0.1664 0.4835 0.1410 Uiso
N4 N 0.4297(5) 0.1562(4) 0.5362(5) 0.1304 Uani
O5 O 0.4144(4) 0.1772(4) 0.5556(5) 0.1456 Uani
O6 O 0.5516(3) 0.0190(3) 0.5606(4) 0.0790 Uani
N5 N 0.5281(3) 0.0357(3) 0.5725(5) 0.0760 Uani
C23 C 0.5099(4) 0.0183(3) 0.5861(5) 0.0810 Uani
H13 H 0.5141 -0.0038 0.5866 0.0970 Uiso
C24 C 0.4835(3) 0.0286(3) 0.6009(5) 0.0851 Uani
C25 C 0.4762(4) 0.0613(3) 0.6056(5) 0.0886 Uani
C26 C 0.4487(4) 0.0678(3) 0.6197(5) 0.1001 Uani
C27 C 0.4285(4) 0.0431(3) 0.6263(6) 0.0990 Uani
H14 H 0.4103 0.0480 0.6355 0.1190 Uiso
C28 C 0.4348(3) 0.0118(3) 0.6195(5) 0.0944 Uani
C29 C 0.4628(4) 0.0049(3) 0.6083(6) 0.0903 Uani
H15 H 0.4680 -0.0166 0.6054 0.1080 Uiso
C30 C 0.4389(4) 0.0993(3) 0.6268(6) 0.1113 Uani
H16 H 0.4227 0.1009 0.6398 0.1330 Uiso
N6 N 0.4496(5) 0.1250(3) 0.6175(6) 0.1172 Uani
O7 O 0.4337(4) 0.1522(3) 0.6264(5) 0.1294 Uani
C31 C 0.4112(5) 0.2065(4) 0.6148(6) 0.1823 Uani
C32 C 0.4131(6) 0.2094(5) 0.6561(6) 0.2080 Uani
H17 H 0.4280 0.1950 0.6776 0.2490 Uiso
C33 C 0.3942(6) 0.2321(5) 0.6669(7) 0.2306 Uani
H18 H 0.3958 0.2326 0.6952 0.2770 Uiso
Br2 Br 0.3450(2) 0.28409(14) 0.6501(3) 0.3608 Uani
C34 C 0.3734(5) 0.2539(4) 0.6372(7) 0.2448 Uani
C35 C 0.3714(6) 0.2529(5) 0.5965(7) 0.2320 Uani
H19 H 0.3579 0.2684 0.5758 0.2780 Uiso
C36 C 0.3895(6) 0.2292(5) 0.5860(6) 0.2108 Uani
H20 H 0.3869 0.2283 0.5573 0.2520 Uiso
O8 O 0.5322(3) 0.1288(3) 0.5877(4) 0.0949 Uani
C37 C 0.6341(4) 0.2225(3) 0.6013(5) 0.1069 Uani
C38 C 0.6444(4) 0.2242(3) 0.5679(5) 0.1081 Uani
H21 H 0.6364 0.2085 0.5461 0.1300 Uiso
C39 C 0.6664(4) 0.2486(3) 0.5663(5) 0.1060 Uani
H22 H 0.6724 0.2500 0.5427 0.1270 Uiso
C40 C 0.6797(4) 0.2712(3) 0.5988(5) 0.0966 Uani
C41 C 0.6703(4) 0.2687(3) 0.6329(5) 0.1037 Uani
H23 H 0.6799 0.2834 0.6559 0.1240 Uiso
C42 C 0.6474(4) 0.2452(3) 0.6337(5) 0.1069 Uani
H24 H 0.6405 0.2445 0.6567 0.1280 Uiso
C43 C 0.7030(4) 0.2981(3) 0.5967(5) 0.0865 Uani
O9 O 0.7104(3) 0.2985(2) 0.5648(4) 0.0822 Uani
O10 O 0.4719(3) 0.1100(3) 0.5210(4) 0.0963 Uani
O11 O 0.7138(3) 0.3172(3) 0.6269(4) 0.0840 Uani
C44 C 0.3783(3) 0.1262(3) 0.3444(3) 0.1024 Uani
C45 C 0.3917(4) 0.1231(4) 0.3137(4) 0.1125 Uani
H25 H 0.4165 0.1177 0.3228 0.1350 Uiso
C46 C 0.3697(4) 0.1277(4) 0.2704(4) 0.1193 Uani
H26 H 0.3797 0.1263 0.2503 0.1430 Uiso
C47 C 0.3327(4) 0.1346(4) 0.2562(4) 0.1143 Uani
C48 C 0.3191(4) 0.1373(4) 0.2864(4) 0.1095 Uani
H27 H 0.2940 0.1416 0.2773 0.1310 Uiso
C49 C 0.3417(3) 0.1337(4) 0.3301(4) 0.1092 Uani
H28 H 0.3321 0.1365 0.3505 0.1310 Uiso
C50 C 0.3083(4) 0.1375(4) 0.2087(4) 0.1173 Uani
O12 O 0.4949(3) 0.0843(2) 0.5988(4) 0.0867 Uani
O13 O 0.3227(4) 0.1334(4) 0.1831(5) 0.1363 Uani
O14 O 0.2753(3) 0.1425(3) 0.1948(4) 0.1006 Uani
C51 C 0.4096(3) -0.0135(3) 0.6196(5) 0.1026 Uani
C52 C 0.3728(3) -0.0067(3) 0.6048(6) 0.1044 Uani
H29 H 0.3645 0.0144 0.5980 0.1250 Uiso
C53 C 0.3484(3) -0.0307(3) 0.6001(6) 0.1109 Uani
H30 H 0.3233 -0.0258 0.5892 0.1330 Uiso
C54 C 0.3599(3) -0.0618(3) 0.6110(5) 0.1092 Uani
C55 C 0.3972(3) -0.0682(3) 0.6282(6) 0.1116 Uani
H31 H 0.4060 -0.0890 0.6370 0.1340 Uiso
C56 C 0.4214(3) -0.0440(3) 0.6323(6) 0.1077 Uani
H32 H 0.4467 -0.0484 0.6441 0.1290 Uiso
C57 C 0.3320(4) -0.0877(3) 0.6024(6) 0.1107 Uani
O15 O 0.3445(3) -0.1143(3) 0.6182(5) 0.1117 Uani
O16 O 0.2991(3) -0.0805(3) 0.5809(5) 0.1167 Uani
C58 C -0.0697(4) -0.0145(3) 0.1585(5) 0.1132 Uani
C59 C -0.0552(4) 0.0107(4) 0.1869(6) 0.1508 Uani
H33 H -0.0294 0.0123 0.2020 0.1810 Uiso
C60 C -0.0760(4) 0.0333(4) 0.1941(7) 0.1750 Uani
H34 H -0.0648 0.0494 0.2148 0.2100 Uiso
Br3 Br -0.14245(14) 0.06425(12) 0.1790(2) 0.2977 Uani
C61 C -0.1132(4) 0.0323(3) 0.1714(6) 0.1773 Uani
C62 C -0.1289(4) 0.0087(4) 0.1423(6) 0.1586 Uani
H35 H -0.1546 0.0080 0.1262 0.1900 Uiso
C63 C -0.1076(4) -0.0143(4) 0.1362(6) 0.1363 Uani
H36 H -0.1192 -0.0306 0.1160 0.1640 Uiso
B3 B -0.0455(4) -0.0414(3) 0.1514(6) 0.0834 Uani
O17 O -0.0288(3) -0.0232(2) 0.1213(4) 0.0743 Uani
N7 N -0.0022(3) -0.0393(3) 0.1171(5) 0.0715 Uani
C64 C 0.0194(3) -0.0210(3) 0.1065(6) 0.0735 Uani
H37 H 0.0135 0.0008 0.1020 0.0880 Uiso
C65 C 0.0520(3) -0.0318(3) 0.1010(5) 0.0749 Uani
C66 C 0.0589(3) -0.0639(3) 0.0954(5) 0.0777 Uani
C67 C 0.0899(3) -0.0703(2) 0.0879(5) 0.0804 Uani
C68 C 0.1121(3) -0.0450(2) 0.0876(5) 0.0810 Uani
H38 H 0.1328 -0.0497 0.0828 0.0970 Uiso
C69 C 0.1058(3) -0.0136(2) 0.0940(5) 0.0808 Uani
C70 C 0.0750(3) -0.0079(3) 0.1001(5) 0.0753 Uani
H39 H 0.0693 0.0133 0.1039 0.0910 Uiso
C71 C 0.1006(4) -0.1017(3) 0.0821(6) 0.0931 Uani
H40 H 0.1208 -0.1031 0.0754 0.1110 Uiso
N8 N 0.0865(4) -0.1277(3) 0.0848(6) 0.1024 Uani
O18 O 0.1052(4) -0.1544(3) 0.0801(5) 0.1203 Uani
B4 B 0.0960(5) -0.1854(4) 0.0934(7) 0.1263 Uani
O19 O -0.0148(3) -0.0483(2) 0.1921(4) 0.0735 Uani
N9 N 0.0098(3) -0.0711(3) 0.1924(4) 0.0718 Uani
C72 C 0.0344(3) -0.0776(3) 0.2297(4) 0.0739 Uani
H41 H 0.0336 -0.0664 0.2531 0.0890 Uiso
C73 C 0.0637(3) -0.1005(3) 0.2401(4) 0.0780 Uani
C74 C 0.0687(4) -0.1202(3) 0.2093(4) 0.0884 Uani
C75 C 0.0991(4) -0.1415(3) 0.2244(4) 0.1002 Uani
C76 C 0.1219(4) -0.1430(3) 0.2687(4) 0.0942 Uani
H42 H 0.1414 -0.1577 0.2787 0.1130 Uiso
C77 C 0.1170(3) -0.1239(3) 0.2984(3) 0.0837 Uani
C78 C 0.0882(3) -0.1028(3) 0.2838(4) 0.0786 Uani
H43 H 0.0849 -0.0896 0.3040 0.0950 Uiso
C79 C 0.1083(4) -0.1619(4) 0.1968(5) 0.1159 Uani
H44 H 0.1283 -0.1757 0.2107 0.1390 Uiso
N10 N 0.0923(4) -0.1631(4) 0.1561(5) 0.1222 Uani
O20 O 0.1077(4) -0.1843(3) 0.1386(5) 0.1296 Uani
O21 O -0.0684(3) -0.0659(3) 0.1265(4) 0.0823 Uani
N11 N -0.0528(3) -0.0912(3) 0.1148(5) 0.0741 Uani
C80 C -0.0741(4) -0.1145(3) 0.1001(5) 0.0730 Uani
H45 H -0.0979 -0.1122 0.0983 0.0870 Uiso
C81 C -0.0660(3) -0.1444(2) 0.0858(5) 0.0781 Uani
C82 C -0.0329(3) -0.1511(3) 0.0825(5) 0.0784 Uani
C83 C -0.0287(3) -0.1823(3) 0.0697(5) 0.0873 Uani
C84 C -0.0551(3) -0.2055(3) 0.0626(6) 0.0899 Uani
H46 H -0.0512 -0.2263 0.0550 0.1080 Uiso
C85 C -0.0870(3) -0.1990(2) 0.0665(5) 0.0893 Uani
C86 C -0.0918(3) -0.1687(2) 0.0777(6) 0.0815 Uani
H47 H -0.1136 -0.1639 0.0802 0.0980 Uiso
C87 C 0.0033(3) -0.1930(3) 0.0650(6) 0.0951 Uani
H48 H 0.0025 -0.2133 0.0532 0.1140 Uiso
N12 N 0.0324(3) -0.1770(3) 0.0757(6) 0.0966 Uani
O22 O 0.0580(3) -0.1934(3) 0.0689(5) 0.1103 Uani
C88 C 0.1202(5) -0.2117(4) 0.0850(6) 0.1755 Uani
C89 C 0.1514(5) -0.2251(5) 0.1169(6) 0.2185 Uani
H49 H 0.1601 -0.2167 0.1452 0.2630 Uiso
C90 C 0.1100(5) -0.2248(5) 0.0443(6) 0.2140 Uani
H50 H 0.0890 -0.2165 0.0210 0.2560 Uiso
C91 C 0.1706(6) -0.2499(5) 0.1100(6) 0.2368 Uani
H51 H 0.1912 -0.2587 0.1332 0.2840 Uiso
C92 C 0.1286(6) -0.2491(5) 0.0361(7) 0.2335 Uani
H52 H 0.1204 -0.2571 0.0078 0.2800 Uiso
Br4 Br 0.18548(11) -0.29400(11) 0.0570(2) 0.2776 Uani
C93 C 0.1591(5) -0.2615(4) 0.0691(7) 0.2334 Uani
O23 O 0.0383(3) -0.0866(2) 0.0977(4) 0.0773 Uani
C94 C 0.1309(3) 0.0120(2) 0.0956(5) 0.0848 Uani
C95 C 0.1322(4) 0.0407(3) 0.1158(5) 0.0826 Uani
H53 H 0.1157 0.0444 0.1280 0.0990 Uiso
C96 C 0.1567(3) 0.0640(3) 0.1188(5) 0.0811 Uani
H54 H 0.1569 0.0833 0.1329 0.0970 Uiso
C97 C 0.1811(3) 0.0596(3) 0.1011(5) 0.0824 Uani
C98 C 0.1804(4) 0.0308(3) 0.0814(5) 0.0896 Uani
H55 H 0.1972 0.0271 0.0697 0.1070 Uiso
C99 C 0.1558(4) 0.0076(3) 0.0785(5) 0.0903 Uani
H56 H 0.1558 -0.0118 0.0646 0.1080 Uiso
C100 C 0.2072(4) 0.0848(3) 0.1020(5) 0.0823 Uani
O24 O 0.2092(3) 0.1096(3) 0.1223(4) 0.0838 Uani
O25 O 0.0456(3) -0.1195(3) 0.1689(4) 0.0927 Uani
O26 O 0.2266(3) 0.0783(3) 0.0824(4) 0.0861 Uani
C101 C 0.1424(3) -0.1256(3) 0.3448(3) 0.0819 Uani
C102 C 0.1523(4) -0.0991(3) 0.3714(4) 0.0814 Uani
H57 H 0.1429 -0.0790 0.3595 0.0980 Uiso
C103 C 0.1757(4) -0.1014(3) 0.4147(4) 0.0858 Uani
H58 H 0.1825 -0.0830 0.4321 0.1030 Uiso
C104 C 0.1892(3) -0.1310(3) 0.4328(4) 0.0867 Uani
C105 C 0.1797(4) -0.1576(3) 0.4061(4) 0.0901 Uani
H59 H 0.1892 -0.1776 0.4179 0.1080 Uiso
C106 C 0.1568(4) -0.1549(3) 0.3628(4) 0.0845 Uani
H60 H 0.1508 -0.1732 0.3450 0.1010 Uiso
C107 C 0.2131(4) -0.1350(4) 0.4804(4) 0.0906 Uani
O27 O -0.0079(3) -0.1297(2) 0.0908(4) 0.0741 Uani
O28 O 0.2264(3) -0.1101(3) 0.5027(4) 0.1047 Uani
O29 O 0.2208(3) -0.1626(3) 0.4946(4) 0.0850 Uani
C108 C -0.1137(3) -0.2246(2) 0.0610(5) 0.0899 Uani
C109 C -0.1017(3) -0.2549(3) 0.0772(5) 0.0883 Uani
H61 H -0.0766 -0.2598 0.0890 0.1060 Uiso
C110 C -0.1263(3) -0.2776(3) 0.0762(5) 0.0879 Uani
H62 H -0.1177 -0.2980 0.0872 0.1050 Uiso
C111 C -0.1632(3) -0.2713(3) 0.0596(5) 0.0884 Uani
C112 C -0.1756(3) -0.2416(3) 0.0420(5) 0.0865 Uani
H63 H -0.2009 -0.2369 0.0298 0.1040 Uiso
C113 C -0.1512(3) -0.2190(3) 0.0423(5) 0.0835 Uani
H64 H -0.1601 -0.1991 0.0295 0.1000 Uiso
C114 C -0.1899(4) -0.2958(3) 0.0603(5) 0.0936 Uani
O30 O -0.2225(3) -0.2889(2) 0.0453(5) 0.0920 Uani
O31 O -0.1770(3) -0.3219(3) 0.0765(5) 0.1126 Uani
O32 O 0.3746(7) -0.1732(8) 0.6599(12) 0.3786 Uani
S1 S 0.4114(6) -0.1633(4) 0.6874(8) 0.3961 Uani
C115 C 0.4269(12) -0.1895(12) 0.7329(11) 0.3971 Uani
H65 H 0.4519 -0.1840 0.7530 0.5940 Uiso
H66 H 0.4111 -0.1875 0.7475 0.5940 Uiso
H67 H 0.4262 -0.2114 0.7232 0.5940 Uiso
C116 C 0.4442(10) -0.1822(12) 0.6727(16) 0.4009 Uani
H68 H 0.4687 -0.1750 0.6920 0.6030 Uiso
H69 H 0.4428 -0.2052 0.6752 0.6030 Uiso
H70 H 0.4389 -0.1767 0.6430 0.6030 Uiso
O33 O 0.2969(5) -0.1965(4) 0.6429(6) 0.1768 Uani
S2 S 0.3158(2) -0.2150(2) 0.6825(4) 0.2028 Uani
C117 C 0.2814(6) -0.2354(6) 0.6901(10) 0.2071 Uani
H71 H 0.2925 -0.2483 0.7162 0.3100 Uiso
H72 H 0.2646 -0.2201 0.6930 0.3100 Uiso
H73 H 0.2682 -0.2491 0.6653 0.3100 Uiso
C118 C 0.3344(7) -0.2504(5) 0.6735(11) 0.2148 Uani
H74 H 0.3467 -0.2619 0.7006 0.3220 Uiso
H75 H 0.3148 -0.2635 0.6527 0.3220 Uiso
H76 H 0.3519 -0.2455 0.6620 0.3220 Uiso
Zn5B Zn 0.74734(5) 0.32115(4) 0.55412(8) 0.0655 Uani
Zn5G Zn -0.25266(5) -0.32115(4) 0.05412(8) 0.0655 Uani
Zn6E Zn 0.25701(5) 0.10452(5) 0.06353(8) 0.0699 Uani
Zn7E Zn 0.31938(5) 0.15259(5) 0.12691(8) 0.0756 Uani
Zn7G Zn -0.18062(5) -0.34741(5) 0.12691(8) 0.0756 Uani
Zn8B Zn 0.74428(5) 0.35505(4) 0.63393(8) 0.0684 Uani
Zn8E Zn 0.24428(5) 0.14495(4) 0.13393(8) 0.0684 Uani
O9B O 0.2104(3) -0.2015(2) 0.5648(4) 0.0822 Uani
O11B O 0.2138(3) -0.1828(3) 0.6269(4) 0.0840 Uani
O13E O 0.3227(4) -0.1334(4) 0.6831(5) 0.1363 Uani
O14E O 0.2753(3) -0.1425(3) 0.6948(4) 0.1006 Uani
O24E O 0.2092(3) -0.1096(3) 0.6223(4) 0.0838 Uani
O26E O 0.2266(3) -0.0783(3) 0.5824(4) 0.0861 Uani
O30G O 0.2775(3) -0.2111(2) 0.5453(5) 0.0920 Uani
O31G O 0.3230(3) -0.1781(3) 0.5765(5) 0.1126 Uani
loop_
_atom_site_aniso_label
_atom_site_aniso_U_11
_atom_site_aniso_U_22
_atom_site_aniso_U_33
_atom_site_aniso_U_23
_atom_site_aniso_U_13
_atom_site_aniso_U_12
N13 0.38(3) 0.25(3) 0.42(3) 0.06(2) 0.24(3) 0.039(19)
C119 0.40(3) 0.28(3) 0.42(3) 0.06(3) 0.25(3) 0.04(2)
C120 0.37(3) 0.23(3) 0.40(3) 0.04(3) 0.25(3) 0.06(2)
C121 0.39(3) 0.25(3) 0.42(3) 0.06(2) 0.23(3) 0.04(2)
O34 0.39(3) 0.27(3) 0.46(3) 0.06(3) 0.23(3) 0.02(2)
Zn1 0.0483(13) 0.0378(13) 0.111(2) 0.0000(12) 0.0401(13) -0.0065(10)
Zn2 0.0624(15) 0.0522(15) 0.122(2) -0.0113(14) 0.0490(14) -0.0086(11)
Zn3 0.0944(18) 0.0496(16) 0.142(2) -0.0124(15) 0.0614(18) -0.0251(13)
Zn4 0.0701(15) 0.0428(15) 0.117(2) 0.0011(13) 0.0393(14) -0.0257(11)
Zn5 0.0440(13) 0.0290(13) 0.124(2) -0.0025(13) 0.0371(13) 0.0027(10)
Zn6 0.0478(14) 0.0377(14) 0.124(2) -0.0122(13) 0.0373(13) 0.0005(10)
Zn7 0.0373(13) 0.0566(15) 0.128(2) -0.0023(14) 0.0315(13) -0.0067(10)
Zn8 0.0448(13) 0.0382(14) 0.126(2) -0.0125(13) 0.0406(14) -0.0107(10)
O1 0.019(6) 0.022(6) 0.096(9) 0.013(6) 0.021(6) 0.002(4)
C1 0.072(6) 0.056(6) 0.144(7) 0.009(6) 0.051(6) -0.008(5)
C2 0.079(7) 0.063(7) 0.173(9) 0.005(7) 0.061(7) -0.010(6)
C3 0.081(7) 0.067(7) 0.185(10) 0.002(7) 0.064(7) -0.007(6)
Br1 0.119(2) 0.087(2) 0.275(4) -0.013(2) 0.098(2) 0.0168(16)
C4 0.084(7) 0.064(7) 0.187(9) 0.005(7) 0.061(7) -0.005(6)
C5 0.083(7) 0.060(7) 0.166(9) 0.005(7) 0.052(7) -0.007(6)
C6 0.073(7) 0.053(7) 0.149(9) 0.010(7) 0.046(7) -0.010(6)
B1 0.067(5) 0.057(5) 0.126(6) 0.011(5) 0.045(4) -0.011(4)
O2 0.066(6) 0.060(6) 0.134(7) 0.002(5) 0.042(5) -0.014(4)
N1 0.066(7) 0.063(6) 0.128(8) 0.003(6) 0.040(6) -0.019(5)
C7 0.070(7) 0.064(6) 0.119(8) 0.001(6) 0.043(7) -0.027(5)
C8 0.086(6) 0.063(6) 0.126(8) -0.005(6) 0.053(6) -0.036(5)
C9 0.095(6) 0.069(6) 0.137(8) -0.015(6) 0.061(6) -0.042(5)
C10 0.113(7) 0.067(6) 0.142(8) -0.019(6) 0.072(6) -0.043(5)
C11 0.115(7) 0.068(7) 0.139(9) -0.022(7) 0.072(6) -0.049(6)
C12 0.112(7) 0.073(6) 0.139(8) -0.023(6) 0.068(6) -0.049(5)
C13 0.100(7) 0.070(6) 0.134(9) -0.014(6) 0.062(7) -0.045(6)
C14 0.126(7) 0.070(8) 0.158(9) -0.014(7) 0.085(7) -0.037(6)
N2 0.137(7) 0.067(8) 0.173(9) -0.019(7) 0.097(7) -0.035(6)
O3 0.156(7) 0.081(7) 0.193(8) -0.014(7) 0.117(6) -0.023(6)
B2 0.165(7) 0.102(7) 0.206(7) -0.020(6) 0.123(6) -0.012(5)
O4 0.060(5) 0.055(6) 0.114(6) 0.009(5) 0.039(5) -0.010(4)
N3 0.057(6) 0.052(7) 0.114(7) 0.008(6) 0.040(5) -0.019(5)
C15 0.063(7) 0.057(7) 0.111(8) 0.005(6) 0.042(6) -0.010(5)
C16 0.068(6) 0.068(7) 0.113(7) 0.007(6) 0.043(5) -0.005(5)
C17 0.075(7) 0.081(7) 0.117(7) 0.002(6) 0.047(5) -0.003(6)
C18 0.087(7) 0.084(7) 0.133(7) 0.006(6) 0.055(6) 0.004(6)
C19 0.076(7) 0.083(8) 0.129(7) 0.013(6) 0.052(6) 0.003(6)
C20 0.068(6) 0.086(7) 0.119(7) 0.017(6) 0.047(5) 0.008(6)
C21 0.064(7) 0.070(8) 0.112(7) 0.010(6) 0.042(6) 0.001(6)
C22 0.114(8) 0.096(8) 0.157(8) -0.005(7) 0.072(7) 0.013(7)
N4 0.137(9) 0.107(8) 0.169(8) -0.013(7) 0.087(7) 0.012(7)
O5 0.158(8) 0.116(8) 0.196(7) -0.018(6) 0.108(6) 0.010(7)
O6 0.072(6) 0.049(6) 0.124(6) 0.007(5) 0.050(5) -0.011(5)
N5 0.069(6) 0.045(7) 0.121(7) 0.001(6) 0.048(5) -0.017(5)
C23 0.075(7) 0.049(7) 0.125(8) -0.003(6) 0.049(6) -0.021(6)
C24 0.077(6) 0.055(6) 0.135(7) -0.006(6) 0.057(5) -0.026(5)
C25 0.082(6) 0.057(6) 0.142(8) -0.008(6) 0.063(6) -0.024(5)
C26 0.091(7) 0.070(6) 0.160(8) -0.012(6) 0.074(6) -0.025(5)
C27 0.084(7) 0.070(6) 0.161(9) -0.007(6) 0.070(6) -0.023(6)
C28 0.078(6) 0.065(6) 0.159(8) -0.004(6) 0.069(6) -0.022(5)
C29 0.080(7) 0.057(7) 0.149(8) -0.003(6) 0.064(6) -0.021(5)
C30 0.111(8) 0.075(7) 0.178(9) -0.016(7) 0.091(7) -0.022(6)
N6 0.125(8) 0.081(7) 0.190(9) -0.019(7) 0.110(7) -0.023(6)
O7 0.144(7) 0.090(7) 0.203(8) -0.023(6) 0.121(7) -0.019(6)
C31 0.218(9) 0.135(8) 0.250(9) -0.027(8) 0.154(8) 0.017(7)
C32 0.258(11) 0.162(10) 0.268(10) -0.029(9) 0.174(9) 0.039(9)
C33 0.284(11) 0.180(11) 0.291(11) -0.035(9) 0.184(10) 0.056(9)
Br2 0.444(9) 0.258(6) 0.480(10) -0.068(6) 0.294(8) 0.117(6)
C34 0.301(11) 0.186(10) 0.308(11) -0.032(9) 0.189(9) 0.064(9)
C35 0.279(11) 0.172(11) 0.299(11) -0.029(9) 0.176(10) 0.054(9)
C36 0.254(11) 0.155(10) 0.273(11) -0.026(9) 0.161(9) 0.039(9)
O8 0.094(7) 0.065(7) 0.138(9) -0.018(7) 0.062(7) -0.043(6)
C37 0.119(7) 0.079(7) 0.143(8) -0.032(6) 0.076(6) -0.054(6)
C38 0.120(8) 0.081(8) 0.145(9) -0.035(7) 0.078(7) -0.053(6)
C39 0.117(8) 0.074(8) 0.146(9) -0.035(6) 0.075(7) -0.050(6)
C40 0.099(7) 0.066(7) 0.146(8) -0.035(6) 0.073(6) -0.040(5)
C41 0.110(8) 0.076(8) 0.145(9) -0.037(7) 0.074(7) -0.049(6)
C42 0.117(8) 0.080(8) 0.145(9) -0.036(7) 0.077(7) -0.052(6)
C43 0.081(6) 0.053(6) 0.142(9) -0.028(6) 0.064(6) -0.026(5)
O9 0.074(7) 0.046(6) 0.139(9) -0.030(6) 0.058(6) -0.028(5)
O10 0.083(7) 0.089(8) 0.112(8) -0.003(7) 0.038(6) -0.001(6)
O11 0.078(7) 0.050(7) 0.144(9) -0.026(6) 0.067(6) -0.028(6)
C44 0.072(7) 0.120(8) 0.119(7) 0.021(6) 0.045(5) 0.021(6)
C45 0.075(7) 0.142(9) 0.120(8) 0.027(7) 0.042(6) 0.028(7)
C46 0.084(7) 0.150(9) 0.122(8) 0.027(8) 0.043(6) 0.029(7)
C47 0.080(7) 0.139(8) 0.121(7) 0.025(7) 0.041(5) 0.031(7)
C48 0.076(8) 0.131(9) 0.118(8) 0.022(8) 0.039(6) 0.030(7)
C49 0.075(7) 0.131(9) 0.120(8) 0.022(8) 0.041(6) 0.025(7)
C50 0.086(7) 0.139(8) 0.123(8) 0.024(7) 0.042(6) 0.037(7)
O12 0.084(7) 0.057(7) 0.138(9) -0.008(6) 0.066(6) -0.024(5)
O13 0.095(8) 0.179(10) 0.128(9) 0.033(8) 0.042(7) 0.058(8)
O14 0.079(7) 0.097(8) 0.120(9) 0.021(7) 0.038(6) 0.031(6)
C51 0.074(6) 0.068(6) 0.177(9) 0.007(6) 0.065(6) -0.018(5)
C52 0.074(7) 0.062(7) 0.188(10) 0.011(7) 0.067(7) -0.015(6)
C53 0.073(7) 0.063(7) 0.204(10) 0.017(7) 0.067(7) -0.014(6)
C54 0.071(6) 0.063(6) 0.207(9) 0.018(7) 0.073(7) -0.011(5)
C55 0.070(7) 0.073(7) 0.204(10) 0.016(7) 0.071(7) -0.013(6)
C56 0.071(7) 0.072(7) 0.190(10) 0.013(7) 0.066(7) -0.016(6)
C57 0.075(6) 0.057(6) 0.215(10) 0.018(7) 0.077(7) -0.010(6)
O15 0.081(7) 0.058(7) 0.214(11) 0.021(7) 0.081(7) -0.009(6)
O16 0.079(7) 0.054(7) 0.222(11) 0.018(7) 0.070(7) -0.014(6)
C58 0.096(7) 0.089(7) 0.169(8) 0.001(6) 0.071(6) 0.035(6)
C59 0.124(8) 0.116(9) 0.207(10) -0.022(8) 0.067(8) 0.050(7)
C60 0.147(9) 0.139(9) 0.231(11) -0.030(9) 0.075(8) 0.067(8)
Br3 0.276(5) 0.265(5) 0.382(7) -0.027(5) 0.171(5) 0.172(4)
C61 0.141(8) 0.153(9) 0.240(11) -0.021(8) 0.085(8) 0.074(8)
C62 0.118(8) 0.141(10) 0.223(11) -0.008(9) 0.080(8) 0.066(7)
C63 0.102(7) 0.118(9) 0.200(10) -0.003(8) 0.076(7) 0.046(7)
B3 0.067(5) 0.057(6) 0.134(6) 0.004(5) 0.051(5) 0.012(4)
O17 0.062(5) 0.040(6) 0.122(6) 0.003(5) 0.041(5) 0.017(4)
N7 0.062(6) 0.033(7) 0.127(7) 0.014(6) 0.048(5) 0.011(5)
C64 0.066(6) 0.035(7) 0.127(8) 0.009(6) 0.049(6) 0.003(5)
C65 0.067(6) 0.041(6) 0.128(7) 0.007(6) 0.053(5) -0.003(5)
C66 0.067(6) 0.044(6) 0.141(8) 0.005(6) 0.063(5) -0.007(5)
C67 0.068(6) 0.056(6) 0.143(8) -0.006(6) 0.070(6) -0.011(5)
C68 0.068(7) 0.057(6) 0.141(9) -0.004(6) 0.067(6) -0.012(5)
C69 0.069(6) 0.054(6) 0.136(8) -0.003(6) 0.060(6) -0.010(5)
C70 0.069(6) 0.043(6) 0.127(8) 0.002(6) 0.055(6) -0.004(5)
C71 0.075(7) 0.066(6) 0.165(9) -0.016(6) 0.077(7) -0.011(5)
N8 0.084(7) 0.073(6) 0.186(9) -0.024(6) 0.092(7) -0.014(5)
O18 0.102(7) 0.083(6) 0.206(8) -0.034(6) 0.095(6) -0.007(5)
B4 0.116(6) 0.088(6) 0.205(7) -0.037(6) 0.098(6) -0.001(5)
O19 0.059(5) 0.051(6) 0.121(6) 0.005(5) 0.049(5) 0.014(4)
N9 0.058(6) 0.051(6) 0.111(7) -0.004(6) 0.041(5) 0.010(5)
C72 0.062(7) 0.048(7) 0.111(8) -0.004(6) 0.037(6) 0.008(5)
C73 0.066(6) 0.054(6) 0.113(7) -0.007(6) 0.038(5) 0.013(5)
C74 0.082(7) 0.064(6) 0.116(7) -0.010(6) 0.040(5) 0.027(6)
C75 0.090(7) 0.073(7) 0.131(7) -0.010(6) 0.042(5) 0.034(6)
C76 0.080(7) 0.068(8) 0.127(7) -0.009(6) 0.038(6) 0.028(6)
C77 0.068(6) 0.059(7) 0.120(6) -0.004(5) 0.037(5) 0.020(5)
C78 0.067(7) 0.052(7) 0.115(7) -0.006(6) 0.038(5) 0.016(6)
C79 0.110(8) 0.087(8) 0.151(8) -0.017(7) 0.057(7) 0.038(7)
N10 0.118(8) 0.093(8) 0.163(8) -0.020(7) 0.068(7) 0.040(7)
O20 0.123(7) 0.095(7) 0.189(7) -0.030(6) 0.085(6) 0.033(6)
O21 0.062(6) 0.053(6) 0.137(7) 0.001(5) 0.048(5) 0.003(4)
N11 0.050(6) 0.042(6) 0.138(8) 0.007(6) 0.048(6) -0.003(5)
C80 0.055(7) 0.041(6) 0.138(8) 0.003(6) 0.056(6) -0.009(5)
C81 0.065(6) 0.044(6) 0.144(8) -0.003(5) 0.063(6) -0.011(4)
C82 0.066(6) 0.047(6) 0.144(8) -0.012(6) 0.066(6) -0.016(4)
C83 0.076(6) 0.050(6) 0.155(8) -0.020(6) 0.068(6) -0.016(5)
C84 0.076(6) 0.045(6) 0.167(9) -0.015(7) 0.070(6) -0.011(5)
C85 0.074(6) 0.046(6) 0.166(8) -0.005(6) 0.069(6) -0.007(5)
C86 0.067(6) 0.043(6) 0.153(9) -0.001(6) 0.065(6) -0.011(5)
C87 0.084(6) 0.057(7) 0.168(9) -0.032(7) 0.077(6) -0.020(5)
N12 0.090(6) 0.055(7) 0.177(9) -0.040(7) 0.088(6) -0.019(5)
O22 0.107(6) 0.066(7) 0.194(8) -0.036(6) 0.099(6) -0.008(5)
C88 0.154(8) 0.138(8) 0.260(9) -0.064(7) 0.114(7) 0.026(7)
C89 0.191(10) 0.173(10) 0.295(11) -0.074(9) 0.109(9) 0.051(9)
C90 0.190(10) 0.179(10) 0.288(11) -0.080(9) 0.118(9) 0.046(9)
C91 0.201(10) 0.189(11) 0.320(12) -0.086(9) 0.113(9) 0.055(9)
C92 0.201(11) 0.195(11) 0.315(11) -0.094(9) 0.122(9) 0.051(9)
Br4 0.170(3) 0.216(4) 0.451(8) -0.166(5) 0.139(4) 0.022(3)
C93 0.191(10) 0.190(10) 0.326(11) -0.099(9) 0.119(9) 0.048(9)
O23 0.064(6) 0.043(6) 0.151(9) 0.007(6) 0.071(6) -0.009(5)
C94 0.074(6) 0.053(6) 0.145(8) -0.002(6) 0.064(6) -0.010(5)
C95 0.069(7) 0.052(7) 0.149(9) -0.001(6) 0.068(6) -0.011(5)
C96 0.068(7) 0.049(7) 0.147(9) -0.003(6) 0.066(6) -0.011(5)
C97 0.074(6) 0.050(6) 0.145(8) 0.000(6) 0.068(6) -0.009(5)
C98 0.079(7) 0.053(7) 0.162(9) -0.007(6) 0.076(6) -0.012(6)
C99 0.081(7) 0.052(7) 0.160(9) -0.005(7) 0.073(6) -0.013(6)
C100 0.071(6) 0.052(6) 0.141(8) 0.006(6) 0.062(5) -0.003(5)
O24 0.076(7) 0.053(7) 0.138(9) 0.008(6) 0.061(6) 0.000(6)
O25 0.090(7) 0.074(7) 0.111(7) -0.013(6) 0.041(6) 0.032(6)
O26 0.073(7) 0.053(7) 0.150(9) 0.000(6) 0.065(6) -0.009(5)
C101 0.061(7) 0.057(6) 0.119(7) -0.003(5) 0.031(5) 0.020(6)
C102 0.059(8) 0.059(7) 0.118(8) -0.003(6) 0.031(6) 0.017(6)
C103 0.061(8) 0.064(7) 0.120(8) -0.004(6) 0.028(6) 0.009(6)
C104 0.058(7) 0.068(7) 0.122(7) -0.003(6) 0.028(6) 0.015(6)
C105 0.065(8) 0.065(7) 0.124(8) -0.001(6) 0.026(6) 0.018(6)
C106 0.062(8) 0.060(7) 0.121(8) -0.005(6) 0.030(6) 0.024(6)
C107 0.061(7) 0.068(7) 0.126(7) -0.004(6) 0.025(6) 0.012(6)
O27 0.064(6) 0.046(6) 0.138(9) -0.017(6) 0.068(6) -0.018(5)
O28 0.085(8) 0.064(7) 0.135(9) -0.002(6) 0.020(7) 0.025(6)
O29 0.051(6) 0.068(7) 0.124(8) -0.004(6) 0.027(6) 0.005(6)
C108 0.076(6) 0.043(6) 0.167(8) -0.002(6) 0.068(6) -0.004(5)
C109 0.080(7) 0.042(6) 0.166(9) 0.001(7) 0.075(7) 0.002(5)
C110 0.088(7) 0.041(7) 0.163(9) 0.002(7) 0.081(7) 0.004(5)
C111 0.088(6) 0.042(6) 0.166(9) 0.002(6) 0.084(6) 0.003(5)
C112 0.079(7) 0.036(6) 0.163(9) -0.001(7) 0.070(7) -0.004(5)
C113 0.075(6) 0.034(6) 0.158(9) -0.001(7) 0.066(7) -0.004(5)
C114 0.095(7) 0.040(6) 0.182(9) 0.008(6) 0.094(7) 0.004(5)
O30 0.092(7) 0.036(6) 0.180(10) 0.000(7) 0.089(7) -0.010(5)
O31 0.106(8) 0.055(7) 0.218(11) 0.029(7) 0.109(8) 0.009(6)
O32 0.36(3) 0.260(18) 0.55(3) 0.079(19) 0.23(2) 0.084(19)
S1 0.37(2) 0.288(16) 0.56(3) 0.071(17) 0.23(2) 0.070(18)
C115 0.37(3) 0.28(2) 0.56(3) 0.07(2) 0.22(3) 0.08(2)
C116 0.37(3) 0.29(2) 0.57(3) 0.05(2) 0.23(3) 0.08(2)
O33 0.129(10) 0.137(10) 0.250(13) 0.074(9) 0.069(9) 0.007(8)
S2 0.153(7) 0.162(8) 0.267(11) 0.086(7) 0.067(7) 0.014(5)
C117 0.155(14) 0.168(16) 0.269(18) 0.096(15) 0.065(13) 0.005(11)
C118 0.165(15) 0.156(14) 0.297(19) 0.073(13) 0.076(14) 0.008(11)
Zn5B 0.044 0.029 0.124 -0.0025 0.0371 0.0027
Zn5G 0.044 0.029 0.124 0.0025 0.0371 -0.0027
Zn6E 0.0478 0.0377 0.124 0.0122 0.0373 -0.0005
Zn7E 0.0373 0.0566 0.128 0.0023 0.0315 0.0067
Zn7G 0.0373 0.0566 0.128 0.0023 0.0315 0.0067
Zn8B 0.0448 0.0382 0.126 -0.0125 0.0406 -0.0107
Zn8E 0.0448 0.0382 0.126 0.0125 0.0406 0.0107
O9B 0.074 0.046 0.139 -0.03 0.058 -0.028
O11B 0.078 0.05 0.144 -0.026 0.067 -0.028
O13E 0.095 0.179 0.128 -0.033 0.042 -0.058
O14E 0.079 0.097 0.12 -0.021 0.038 -0.031
O24E 0.076 0.053 0.138 -0.008 0.061 0
O26E 0.073 0.053 0.15 0 0.065 0.009
O30G 0.092 0.036 0.18 0 0.089 0.01
O31G 0.106 0.055 0.218 -0.029 0.109 -0.009
loop_
_geom_bond_atom_site_label_1
_geom_bond_atom_site_label_2
_geom_bond_site_symmetry_1
_geom_bond_site_symmetry_2
Zn1 N7 1_555 1_555
Zn2 N8 1_555 1_555
Zn3 N2 1_555 1_555
Zn4 N1 1_555 1_555
Zn5 O1 1_555 1_555
Zn6 O1 1_555 1_555
Zn7 O1 1_555 1_555
Zn8 O1 1_555 1_555
C1 C2 1_555 1_555
C2 H1 1_555 1_555
C3 C2 1_555 1_555
H2 C3 1_555 1_555
Br1 C4 1_555 1_555
C4 C3 1_555 1_555
C5 C4 1_555 1_555
H3 C5 1_555 1_555
C6 C1 1_555 1_555
H4 C6 1_555 1_555
B1 C1 1_555 1_555
O2 B1 1_555 1_555
N1 O2 1_555 1_555
C7 N1 1_555 1_555
H5 C7 1_555 1_555
C8 C7 1_555 1_555
C9 C8 1_555 1_555
C10 C9 1_555 1_555
C11 C10 1_555 1_555
H6 C11 1_555 1_555
C12 C11 1_555 1_555
C13 C8 1_555 1_555
H7 C13 1_555 1_555
C14 C10 1_555 1_555
H8 C14 1_555 1_555
N2 C14 1_555 1_555
O3 N2 1_555 1_555
B2 O3 1_555 1_555
O4 B1 1_555 1_555
N3 Zn4 1_555 1_555
C15 N3 1_555 1_555
H9 C15 1_555 1_555
C16 C15 1_555 1_555
C17 C16 1_555 1_555
C18 C17 1_555 1_555
C19 C18 1_555 1_555
H10 C19 1_555 1_555
C20 C19 1_555 1_555
C21 C16 1_555 1_555
H11 C21 1_555 1_555
C22 C18 1_555 1_555
H12 C22 1_555 1_555
N4 Zn3 1_555 1_555
O5 B2 1_555 1_555
O6 B1 1_555 1_555
N5 Zn4 1_555 1_555
C23 N5 1_555 1_555
H13 C23 1_555 1_555
C24 C23 1_555 1_555
C25 C24 1_555 1_555
C26 C25 1_555 1_555
C27 C26 1_555 1_555
H14 C27 1_555 1_555
C28 C27 1_555 1_555
C29 C24 1_555 1_555
H15 C29 1_555 1_555
C30 C26 1_555 1_555
H16 C30 1_555 1_555
N6 Zn3 1_555 1_555
O7 B2 1_555 1_555
C31 B2 1_555 1_555
C32 C31 1_555 1_555
H17 C32 1_555 1_555
C33 C32 1_555 1_555
H18 C33 1_555 1_555
Br2 C34 1_555 1_555
C34 C33 1_555 1_555
C35 C34 1_555 1_555
H19 C35 1_555 1_555
C36 C31 1_555 1_555
H20 C36 1_555 1_555
O8 Zn3 1_555 1_555
C37 C12 1_555 1_555
C38 C37 1_555 1_555
H21 C38 1_555 1_555
C39 C38 1_555 1_555
H22 C39 1_555 1_555
C40 C39 1_555 1_555
C41 C40 1_555 1_555
H23 C41 1_555 1_555
C42 C37 1_555 1_555
H24 C42 1_555 1_555
C43 C40 1_555 1_555
O9 C43 1_555 1_555
O10 Zn3 1_555 1_555
O11 C43 1_555 1_555
C44 C20 1_555 1_555
C45 C44 1_555 1_555
H25 C45 1_555 1_555
C46 C45 1_555 1_555
H26 C46 1_555 1_555
C47 C46 1_555 1_555
C48 C47 1_555 1_555
H27 C48 1_555 1_555
C49 C44 1_555 1_555
H28 C49 1_555 1_555
C50 C47 1_555 1_555
O12 Zn3 1_555 1_555
O13 C50 1_555 1_555
O14 C50 1_555 1_555
C51 C28 1_555 1_555
C52 C51 1_555 1_555
H29 C52 1_555 1_555
C53 C52 1_555 1_555
H30 C53 1_555 1_555
C54 C53 1_555 1_555
C55 C54 1_555 1_555
H31 C55 1_555 1_555
C56 C51 1_555 1_555
H32 C56 1_555 1_555
C57 C54 1_555 1_555
O15 Zn7 1_555 1_555
O16 Zn6 1_555 1_555
C58 C59 1_555 1_555
C59 H33 1_555 1_555
C60 C59 1_555 1_555
H34 C60 1_555 1_555
Br3 C61 1_555 1_555
C61 C60 1_555 1_555
C62 C61 1_555 1_555
H35 C62 1_555 1_555
C63 C58 1_555 1_555
H36 C63 1_555 1_555
B3 C58 1_555 1_555
O17 B3 1_555 1_555
N7 O17 1_555 1_555
C64 N7 1_555 1_555
H37 C64 1_555 1_555
C65 C64 1_555 1_555
C66 C65 1_555 1_555
C67 C66 1_555 1_555
C68 C67 1_555 1_555
H38 C68 1_555 1_555
C69 C68 1_555 1_555
C70 C65 1_555 1_555
H39 C70 1_555 1_555
C71 C67 1_555 1_555
H40 C71 1_555 1_555
N8 C71 1_555 1_555
O18 N8 1_555 1_555
B4 O18 1_555 1_555
O19 B3 1_555 1_555
N9 Zn1 1_555 1_555
C72 N9 1_555 1_555
H41 C72 1_555 1_555
C73 C72 1_555 1_555
C74 C73 1_555 1_555
C75 C74 1_555 1_555
C76 C75 1_555 1_555
H42 C76 1_555 1_555
C77 C76 1_555 1_555
C78 C73 1_555 1_555
H43 C78 1_555 1_555
C79 C75 1_555 1_555
H44 C79 1_555 1_555
N10 Zn2 1_555 1_555
O20 B4 1_555 1_555
O21 B3 1_555 1_555
N11 Zn1 1_555 1_555
C80 N11 1_555 1_555
H45 C80 1_555 1_555
C81 C80 1_555 1_555
C82 C81 1_555 1_555
C83 C82 1_555 1_555
C84 C83 1_555 1_555
H46 C84 1_555 1_555
C85 C84 1_555 1_555
C86 C81 1_555 1_555
H47 C86 1_555 1_555
C87 C83 1_555 1_555
H48 C87 1_555 1_555
N12 Zn2 1_555 1_555
O22 B4 1_555 1_555
C88 B4 1_555 1_555
C89 C88 1_555 1_555
H49 C89 1_555 1_555
C90 C88 1_555 1_555
H50 C90 1_555 1_555
C91 C89 1_555 1_555
H51 C91 1_555 1_555
C92 C90 1_555 1_555
H52 C92 1_555 1_555
Br4 C93 1_555 1_555
C93 C91 1_555 1_555
O23 Zn1 1_555 1_555
C94 C69 1_555 1_555
C95 C94 1_555 1_555
H53 C95 1_555 1_555
C96 C95 1_555 1_555
H54 C96 1_555 1_555
C97 C96 1_555 1_555
C98 C97 1_555 1_555
H55 C98 1_555 1_555
C99 C94 1_555 1_555
H56 C99 1_555 1_555
C100 C97 1_555 1_555
O24 C100 1_555 1_555
O25 Zn1 1_555 1_555
O26 C100 1_555 1_555
C101 C77 1_555 1_555
C102 C101 1_555 1_555
H57 C102 1_555 1_555
C103 C102 1_555 1_555
H58 C103 1_555 1_555
C104 C103 1_555 1_555
C105 C104 1_555 1_555
H59 C105 1_555 1_555
C106 C101 1_555 1_555
H60 C106 1_555 1_555
C107 C104 1_555 1_555
O27 Zn1 1_555 1_555
O28 Zn6 1_555 1_555
O29 Zn5 1_555 1_555
C108 C85 1_555 1_555
C109 C108 1_555 1_555
H61 C109 1_555 1_555
C110 C109 1_555 1_555
H62 C110 1_555 1_555
C111 C110 1_555 1_555
C112 C111 1_555 1_555
H63 C112 1_555 1_555
C113 C108 1_555 1_555
H64 C113 1_555 1_555
C114 C111 1_555 1_555
O30 C114 1_555 1_555
O31 C114 1_555 1_555
O32 Zn7 1_555 1_555
S1 O32 1_555 1_555
C115 S1 1_555 1_555
H65 C115 1_555 1_555
H66 C115 1_555 1_555
H67 C115 1_555 1_555
C116 S1 1_555 1_555
H68 C116 1_555 1_555
H69 C116 1_555 1_555
H70 C116 1_555 1_555
O33 Zn7 1_555 1_555
S2 O33 1_555 1_555
C117 S2 1_555 1_555
H71 C117 1_555 1_555
H72 C117 1_555 1_555
H73 C117 1_555 1_555
C118 S2 1_555 1_555
H74 C118 1_555 1_555
H75 C118 1_555 1_555
H76 C118 1_555 1_555
N13 C119 1_555 1_555
C119 H77 1_555 1_555
H78 C119 1_555 1_555
H79 C119 1_555 1_555
C120 N13 1_555 1_555
H80 C120 1_555 1_555
H81 C120 1_555 1_555
H82 C120 1_555 1_555
C121 N13 1_555 1_555
H83 C121 1_555 1_555
O34 C121 1_555 1_555
Zn5B O9 1_555 1_555
Zn5G O30 1_555 1_555
Zn6E O26 1_555 1_555
Zn7E O13 1_555 1_555
Zn7G O31 1_555 1_555
Zn8B O11 1_555 1_555
Zn8E O14 1_555 1_555
O9B Zn5 1_555 1_555
O11B Zn8 1_555 1_555
O13E Zn7 1_555 1_555
O14E Zn8 1_555 1_555
O24E Zn8 1_555 1_555
O26E Zn6 1_555 1_555
O30G Zn5 1_555 1_555
O31G Zn7 1_555 1_555
Zn2 O23 1_555 1_555
Zn2 O25 1_555 1_555
Zn2 O27 1_555 1_555
Zn4 O8 1_555 1_555
Zn4 O10 1_555 1_555
Zn4 O12 1_555 1_555
C5 C6 1_555 1_555
C9 O8 1_555 1_555
C12 C13 1_555 1_555
O4 N3 1_555 1_555
C17 O10 1_555 1_555
C20 C21 1_555 1_555
C22 N4 1_555 1_555
N4 O5 1_555 1_555
O6 N5 1_555 1_555
C25 O12 1_555 1_555
C28 C29 1_555 1_555
C30 N6 1_555 1_555
N6 O7 1_555 1_555
C35 C36 1_555 1_555
C41 C42 1_555 1_555
C48 C49 1_555 1_555
C55 C56 1_555 1_555
C57 O15 1_555 1_555
C57 O16 1_555 1_555
C62 C63 1_555 1_555
C66 O23 1_555 1_555
C69 C70 1_555 1_555
O19 N9 1_555 1_555
C74 O25 1_555 1_555
C77 C78 1_555 1_555
C79 N10 1_555 1_555
N10 O20 1_555 1_555
O21 N11 1_555 1_555
C82 O27 1_555 1_555
C85 C86 1_555 1_555
C87 N12 1_555 1_555
N12 O22 1_555 1_555
C92 C93 1_555 1_555
C98 C99 1_555 1_555
O24 Zn8E 1_555 1_555
C105 C106 1_555 1_555
C107 O28 1_555 1_555
C107 O29 1_555 1_555
C112 C113 1_555 1_555

#END
