
#######################################################################
#
#                 Cambridge Crystallographic Data Centre
#                                CCDC 
#
#######################################################################
#
# If this CIF has been generated from an entry in the Cambridge 
# Structural Database, then it will include bibliographic, chemical, 
# crystal, experimental, refinement or atomic coordinate data resulting 
# from the CCDC's data processing and validation procedures.
#
#######################################################################

data_REGQUR
_chemical_formula_moiety         '(C27 H16 N6 O16 Zn4)n'
_symmetry_cell_setting           hexagonal
_symmetry_space_group_name_H-M   'P 63 c m'
_symmetry_Int_Tables_number      185
_space_group_name_Hall           'P 6c -2'
loop_
_symmetry_equiv_pos_site_id
_symmetry_equiv_pos_as_xyz
1 x,y,z
2 -y,x-y,z
3 -x+y,-x,z
4 -x,-y,1/2+z
5 y,-x+y,1/2+z
6 x-y,x,1/2+z
7 -y,-x,1/2+z
8 -x+y,y,1/2+z
9 x,x-y,1/2+z
10 y,x,z
11 x-y,-y,z
12 -x,-x+y,z
_cell_length_a                   18.5924(8)
_cell_length_b                   18.5924(8)
_cell_length_c                   17.9643(9)
_cell_angle_alpha                90
_cell_angle_beta                 90
_cell_angle_gamma                120
_cell_volume                     5377.89
loop_
_atom_site_label
_atom_site_type_symbol
_atom_site_fract_x
_atom_site_fract_y
_atom_site_fract_z
_atom_site_U_iso_or_equiv
_atom_site_thermal_displace_type
Zn1 Zn 0.90074(5) 0.24295(6) 0.38067(5) 0.0353 Uani
Zn2 Zn 0.65585(7) -0.0000 0.72346(8) 0.0450 Uani
O1 O 0.7926(4) 0.2362(4) 0.3909(5) 0.0590 Uani
O2 O 0.8759(5) 0.3620(6) 0.4249(5) 0.0769 Uani
O3 O 0.7796(5) 0.0900(6) 0.7104(4) 0.0747 Uani
O4 O 0.8488(4) 0.1225(4) 0.8155(3) 0.0512 Uani
O5 O 0.9317(4) 0.2182(4) 0.4789(3) 0.0473 Uani
O6 O 1.0000 0.3396(4) 0.3380(4) 0.0310 Uani
O7 O 0.6324(8) -0.0000 0.6129(7) 0.0893 Uani
O8 O 0.6217(7) 0.0912(7) 0.7385(5) 0.1020 Uani
C1 C 0.8081(6) 0.3069(6) 0.4117(5) 0.0458 Uani
C2 C 0.7331(7) 0.3201(6) 0.4129(6) 0.0538 Uani
C3 C 0.7451(6) 0.4002(6) 0.4147(6) 0.0461 Uani
H1 H 0.7988 0.4454 0.4172 0.0550 Uiso
C4 C 0.8446(5) 0.1220(6) 0.7458(4) 0.0369 Uani
C5 C 0.9260(5) 0.1686(5) 0.7048(4) 0.0362 Uani
C6 C 0.9261(5) 0.1857(5) 0.6279(4) 0.0349 Uani
H2 H 0.8764 0.1693 0.6029 0.0410 Uiso
C7 C 1.0000 0.2267(6) 0.5911(6) 0.0313 Uani
C8 C 1.0000 0.2472(6) 0.5082(6) 0.0313 Uani
C9 C 1.0000 0.2014(6) 0.7425(6) 0.0378 Uani
H3 H 1.0000 0.1957 0.7939 0.0450 Uiso
C10 C 0.6773(11) 0.0000 0.5557(8) 0.0766 Uani
C11 C 0.7089(11) -0.0000 0.4272(14) 0.1094 Uani
C12 C 0.7747(18) 0.0000 0.4777(12) 0.1242 Uani
C13 C 0.5771(11) 0.1136(11) 0.7095(9) 0.1114 Uani
C14 C 0.522(3) 0.168(3) 0.621(2) 0.2822 Uani
C15 C 0.485(2) 0.163(3) 0.697(3) 0.2300 Uani
N1 N 0.6448(15) -0.0000 0.4873(12) 0.1606 Uani
N2 N 0.7495(8) 0.0000 0.5568(8) 0.0834 Uani
N3 N 0.551(3) 0.102(2) 0.6453(13) 0.3667 Uani
N4 N 0.5258(18) 0.139(2) 0.7392(15) 0.2900 Uani
Zn1B Zn 0.34221(8) 0.09926(5) 0.38067(5) 0.0353 Uani
Zn1F Zn 0.75705(6) 0.09926(5) 0.88067(5) 0.0353 Uani
Zn1A Zn 0.75705(6) 0.65779(8) 0.38067(5) 0.0353 Uani
Zn1D Zn 1.24295(6) 0.34221(8) 0.88067(5) 0.0353 Uani
Zn1K Zn 1.09926(5) 0.34221(8) 0.38067(5) 0.0353 Uani
Zn2B Zn 1.34415(7) 0.34415(7) 0.72346(8) 0.0450 Uani
Zn2D Zn 1.0000 0.34415(7) 0.22346(8) 0.0450 Uani
O1A O 0.7638(4) 0.5564(6) 0.3909(5) 0.0590 Uani
O1B O 0.4436(6) 0.2074(4) 0.3909(5) 0.0590 Uani
O1F O 0.7638(4) 0.2074(4) 0.8909(5) 0.0590 Uani
O2A O 0.6380(6) 0.5139(8) 0.4249(5) 0.0769 Uani
O2B O 0.4861(8) 0.1241(5) 0.4249(5) 0.0769 Uani
O3K O 1.2204(5) 0.3104(8) 0.7104(4) 0.0747 Uani
O3J O 0.6896(8) -0.0900(6) 0.7104(4) 0.0747 Uani
O4K O 1.1512(4) 0.2737(6) 0.8155(3) 0.0512 Uani
O4F O 0.8775(4) 0.1512(4) 0.3155(3) 0.0512 Uani
O4G O 0.2737(6) 0.1225(4) 0.3155(3) 0.0512 Uani
O5K O 1.0683(4) 0.2865(6) 0.4789(3) 0.0473 Uani
O5F O 0.7818(4) 0.0683(4) 0.9789(3) 0.0473 Uani
O5B O 0.2865(6) 0.0683(4) 0.4789(3) 0.0473 Uani
O6E O 0.6604(4) 0.0000 0.8380(4) 0.0310 Uani
O6B O 0.3396(4) 0.0000 0.3380(4) 0.0310 Uani
O8J O 0.5305(10) -0.0912(7) 0.7385(5) 0.1020 Uani
C1A C 0.6931(6) 0.5012(8) 0.4117(5) 0.0458 Uani
C1B C 0.4988(8) 0.1919(6) 0.4117(5) 0.0458 Uani
C2A C 0.6799(6) 0.4130(9) 0.4129(6) 0.0538 Uani
C2B C 0.5870(9) 0.2669(7) 0.4129(6) 0.0538 Uani
C3A C 0.5998(6) 0.3449(8) 0.4147(6) 0.0461 Uani
C3B C 0.6551(8) 0.2549(6) 0.4147(6) 0.0461 Uani
H1A H 0.5546 0.3534 0.4172 0.0550 Uiso
H1B H 0.6466 0.2012 0.4172 0.0550 Uiso
C4K C 1.1554(5) 0.2774(8) 0.7458(4) 0.0369 Uani
C5K C 1.0740(5) 0.2426(7) 0.7048(4) 0.0362 Uani
C6K C 1.0739(5) 0.2596(7) 0.6279(4) 0.0349 Uani
H2K H 1.1236 0.2929 0.6029 0.0410 Uiso
C13J C 0.4635(16) -0.1136(11) 0.7095(9) 0.1114 Uani
C14J C 0.354(4) -0.168(3) 0.621(2) 0.2822 Uani
C15J C 0.322(4) -0.163(3) 0.697(3) 0.2300 Uani
N3J N 0.449(4) -0.102(2) 0.6453(13) 0.3667 Uani
N4J N 0.3868(27) -0.139(2) 0.7392(15) 0.2900 Uani
loop_
_atom_site_aniso_label
_atom_site_aniso_U_11
_atom_site_aniso_U_22
_atom_site_aniso_U_33
_atom_site_aniso_U_23
_atom_site_aniso_U_13
_atom_site_aniso_U_12
Zn1 0.0398(5) 0.0481(5) 0.0199(4) -0.0028(5) -0.0033(5) 0.0234(4)
Zn2 0.0452(6) 0.0749(11) 0.0248(7) 0.000 -0.0031(6) 0.0375(5)
O1 0.061(4) 0.060(4) 0.073(5) 0.001(4) 0.003(4) 0.043(3)
O2 0.048(5) 0.086(6) 0.096(6) -0.027(5) -0.003(4) 0.033(5)
O3 0.047(4) 0.123(7) 0.028(4) 0.006(4) 0.001(3) 0.023(4)
O4 0.060(4) 0.085(5) 0.023(3) 0.010(3) 0.013(3) 0.047(4)
O5 0.044(4) 0.065(4) 0.022(3) 0.005(3) -0.004(3) 0.019(3)
O6 0.048(5) 0.033(3) 0.017(4) 0.003(3) 0.000 0.024(2)
O7 0.106(7) 0.107(10) 0.056(8) 0.000 -0.023(7) 0.054(5)
O8 0.141(8) 0.148(9) 0.074(6) 0.016(6) 0.010(6) 0.115(8)
C1 0.043(6) 0.055(6) 0.044(5) -0.006(5) 0.000(4) 0.028(5)
C2 0.054(6) 0.058(6) 0.060(6) -0.005(5) 0.000(5) 0.036(6)
C3 0.038(5) 0.047(6) 0.053(5) -0.006(5) -0.002(4) 0.021(5)
C4 0.042(5) 0.052(5) 0.024(4) -0.003(4) -0.002(4) 0.029(4)
C5 0.044(5) 0.046(5) 0.014(4) 0.006(3) 0.005(3) 0.019(4)
C6 0.032(4) 0.052(5) 0.022(4) -0.002(4) -0.001(3) 0.022(4)
C7 0.040(6) 0.037(5) 0.018(5) 0.000(4) 0.000 0.020(3)
C8 0.037(7) 0.038(5) 0.018(5) -0.001(4) 0.000 0.018(3)
C9 0.062(8) 0.039(4) 0.020(6) 0.008(4) 0.000 0.031(4)
C10 0.095(10) 0.121(16) 0.023(8) 0.000 -0.002(7) 0.061(8)
C11 0.081(9) 0.17(2) 0.107(17) 0.000 0.016(10) 0.085(12)
C12 0.18(2) 0.106(18) 0.062(12) 0.000 0.053(14) 0.053(9)
C13 0.153(15) 0.166(16) 0.081(10) -0.029(11) -0.027(11) 0.129(15)
C14 0.42(6) 0.41(6) 0.14(3) -0.05(3) -0.11(4) 0.30(5)
C15 0.23(3) 0.34(5) 0.25(4) 0.00(4) -0.04(3) 0.24(4)
N1 0.184(16) 0.27(4) 0.059(13) 0.000 -0.010(11) 0.137(19)
N2 0.079(7) 0.101(11) 0.077(10) 0.000 0.014(7) 0.050(6)
N3 0.68(6) 0.67(6) 0.14(2) -0.13(2) -0.18(3) 0.63(6)
N4 0.34(3) 0.51(5) 0.23(3) -0.11(3) -0.06(2) 0.37(4)
Zn1B 0.0411 0.0398 0.0199 0.0033 0.0005 0.0164
Zn1F 0.0481 0.0398 0.0199 0.0033 0.0028 0.0234
Zn1A 0.0481 0.0411 0.0199 -0.0005 0.0028 0.0247
Zn1D 0.0481 0.0411 0.0199 0.0005 -0.0028 0.0247
Zn1K 0.0398 0.0411 0.0199 0.0005 0.0033 0.0164
Zn2B 0.0451 0.0452 0.0248 0.0031 0.0031 0.0077
Zn2D 0.0749 0.0451 0.0248 0.0031 0 0.0374
O1A 0.06 0.035 0.073 0.002 -0.001 0.017
O1B 0.035 0.061 0.073 -0.003 -0.002 0.018
O1F 0.06 0.061 0.073 -0.003 -0.001 0.043
O2A 0.086 0.068 0.096 0.024 0.027 0.053
O2B 0.068 0.048 0.096 0.003 -0.024 0.015
O3K 0.047 0.124 0.028 0.005 -0.001 0.024
O3J 0.124 0.123 0.028 -0.006 -0.005 0.1
O4K 0.06 0.051 0.023 -0.003 -0.013 0.013
O4F 0.085 0.06 0.023 -0.013 -0.01 0.047
O4G 0.051 0.085 0.023 0.01 -0.003 0.038
O5K 0.044 0.071 0.022 0.009 0.004 0.025
O5F 0.065 0.044 0.022 0.004 -0.005 0.019
O5B 0.071 0.044 0.022 0.004 0.009 0.025
O6E 0.033 0.048 0.017 0 -0.003 0.024
O6B 0.033 0.048 0.017 0 0.003 0.024
O8J 0.059 0.148 0.074 -0.016 -0.006 0.033
C1A 0.055 0.042 0.044 0.006 0.006 0.027
C1B 0.042 0.043 0.044 0 -0.006 0.015
C2A 0.058 0.04 0.06 0.005 0.005 0.022
C2B 0.04 0.054 0.06 0 -0.005 0.018
C3A 0.047 0.043 0.053 0.004 0.006 0.026
C3B 0.043 0.038 0.053 0.002 -0.004 0.017
C4K 0.042 0.036 0.024 -0.001 0.002 0.013
C5K 0.044 0.052 0.014 0.001 -0.005 0.025
C6K 0.032 0.04 0.022 -0.001 0.001 0.01
C13J 0.061 0.166 0.081 0.029 0.002 0.037
C14J 0.23 0.41 0.14 0.05 -0.06 0.11
C15J 0.09 0.34 0.25 0 -0.04 0.1
N3J 0.09 0.67 0.14 0.13 -0.05 0.04
N4J 0.11 0.51 0.23 0.11 0.05 0.14
loop_
_geom_bond_atom_site_label_1
_geom_bond_atom_site_label_2
_geom_bond_site_symmetry_1
_geom_bond_site_symmetry_2
Zn1 O1 1_555 1_555
Zn2 O3 1_555 1_555
O1 C1 1_555 1_555
O2 C1 1_555 1_555
O3 C4 1_555 1_555
O4 C4 1_555 1_555
O5 Zn1 1_555 1_555
O6 Zn1 1_555 1_555
O7 Zn2 1_555 1_555
O8 Zn2 1_555 1_555
C1 C2 1_555 1_555
C2 C3 1_555 1_555
C3 H1 1_555 1_555
C4 C5 1_555 1_555
C5 C6 1_555 1_555
C6 H2 1_555 1_555
C7 C6 1_555 1_555
C8 O5 1_555 1_555
C9 C5 1_555 1_555
H3 C9 1_555 1_555
C10 O7 1_555 1_555
C11 C12 1_555 1_555
C12 N2 1_555 1_555
C13 O8 1_555 1_555
C14 C15 1_555 1_555
C15 N4 1_555 1_555
N1 C10 1_555 1_555
N2 C10 1_555 1_555
N3 C13 1_555 1_555
N4 C13 1_555 1_555
Zn1B O1B 1_555 1_555
Zn1F O4 1_555 1_555
Zn1A O1A 1_555 1_555
Zn1D O4K 1_555 1_555
Zn1K O6 1_555 1_555
Zn2B O3K 1_555 1_555
Zn2D O6 1_555 1_555
O1A C1A 1_555 1_555
O1B C1B 1_555 1_555
O1F Zn1F 1_555 1_555
O2A C1A 1_555 1_555
O2B C1B 1_555 1_555
O3K C4K 1_555 1_555
O3J Zn2 1_555 1_555
O4K C4K 1_555 1_555
O4F Zn1 1_555 1_555
O4G Zn1B 1_555 1_555
O5K C8 1_555 1_555
O5F Zn1F 1_555 1_555
O5B Zn1B 1_555 1_555
O6E Zn2 1_555 1_555
O6B Zn1B 1_555 1_555
O8J Zn2 1_555 1_555
C1A C2A 1_555 1_555
C1B C2B 1_555 1_555
C2A C3 1_555 1_555
C2B C3A 1_555 1_555
C3A C2A 1_555 1_555
C3B C2 1_555 1_555
H1A C3A 1_555 1_555
H1B C3B 1_555 1_555
C4K C5K 1_555 1_555
C5K C9 1_555 1_555
C6K C7 1_555 1_555
H2K C6K 1_555 1_555
C13J O8J 1_555 1_555
C14J C15J 1_555 1_555
C15J N4J 1_555 1_555
N3J C13J 1_555 1_555
N4J C13J 1_555 1_555
C7 C8 1_555 1_555
C11 N1 1_555 1_555
C14 N3 1_555 1_555
Zn1F O6E 1_555 1_555
Zn1K O5K 1_555 1_555
C2B C3B 1_555 1_555
C5K C6K 1_555 1_555
C14J N3J 1_555 1_555

#END
