
#######################################################################
#
#                 Cambridge Crystallographic Data Centre
#                                CCDC 
#
#######################################################################
#
# If this CIF has been generated from an entry in the Cambridge 
# Structural Database, then it will include bibliographic, chemical, 
# crystal, experimental, refinement or atomic coordinate data resulting 
# from the CCDC's data processing and validation procedures.
#
#######################################################################

data_REGREC
_chemical_formula_moiety         '(C18 H12 O15 Zn3)n'
_symmetry_cell_setting           monoclinic
_symmetry_space_group_name_H-M   'P 21/n'
_symmetry_Int_Tables_number      14
_space_group_name_Hall           '-P 2yn'
loop_
_symmetry_equiv_pos_site_id
_symmetry_equiv_pos_as_xyz
1 x,y,z
2 1/2-x,1/2+y,1/2-z
3 -x,-y,-z
4 1/2+x,1/2-y,1/2+z
_cell_length_a                   12.906(4)
_cell_length_b                   12.606(4)
_cell_length_c                   27.737(9)
_cell_angle_alpha                90
_cell_angle_beta                 92.970(7)
_cell_angle_gamma                90
_cell_volume                     4506.56
loop_
_atom_site_label
_atom_site_type_symbol
_atom_site_fract_x
_atom_site_fract_y
_atom_site_fract_z
Zn1 Zn 0.10238(4) 1.04485(4) 0.134329(18)
Zn2 Zn -0.04182(4) 1.20078(4) 0.209813(19)
Zn3 Zn 0.57186(4) 1.57721(4) 0.026080(18)
O1 O 0.1070(3) 1.2597(4) 0.20054(16)
O2 O 0.1777(3) 1.1785(3) 0.13845(14)
O3 O 0.5112(3) 1.5210(3) 0.08643(13)
O4 O 0.4070(3) 1.4059(3) 0.04618(13)
O5 O 0.3716(3) 1.4828(3) 0.29944(13)
O6 O 0.4732(3) 1.5809(3) 0.25515(14)
O7 O 0.1165(5) 1.0441(4) 0.04607(19)
O8 O 0.1678(4) 0.9258(4) 0.09865(15)
O9 O 0.1016(3) 0.7663(3) -0.14459(13)
O10 O 0.0463(3) 0.9251(3) -0.12241(15)
O11 O 0.4407(3) 0.6714(3) 0.01726(15)
O12 O 0.3398(3) 0.5592(3) -0.02601(15)
O13 O -0.0641(5) 1.3270(5) 0.2504(2)
O14 O 0.6771(3) 1.6794(3) 0.05280(14)
O15 O -0.1800(4) 1.1303(5) 0.2292(2)
C1 C 0.2630(4) 1.3261(4) 0.17236(16)
C2 C 0.3147(4) 1.3466(4) 0.13018(17)
H1 H 0.2965 1.3084 0.1015
C3 C 0.3923(4) 1.4227(4) 0.13014(16)
C4 C 0.4213(4) 1.4756(4) 0.17288(17)
H2 H 0.4742 1.5280 0.1730
C5 C 0.3736(4) 1.4522(4) 0.21517(17)
C6 C 0.2920(4) 1.3799(4) 0.21425(16)
H3 H 0.2559 1.3676 0.2427
C7 C 0.1754(4) 1.2497(4) 0.17097(18)
C8 C 0.4407(4) 1.4511(4) 0.08407(17)
C9 C 0.4094(4) 1.5094(4) 0.26053(16)
C10 C 0.1848(4) 0.8820(4) 0.01644(18)
C11 C 0.1348(4) 0.8946(4) -0.02833(18)
H4 H 0.0873 0.9515 -0.0336
C12 C 0.1531(4) 0.8249(4) -0.06582(17)
C13 C 0.2232(4) 0.7418(4) -0.05821(17)
H5 H 0.2333 0.6919 -0.0832
C14 C 0.2789(4) 0.7317(4) -0.01362(17)
C15 C 0.2588(4) 0.8037(4) 0.02342(17)
H6 H 0.2966 0.7984 0.0536
C16 C 0.1569(4) 0.9551(5) 0.0563(2)
C17 C 0.0957(4) 0.8391(4) -0.11437(17)
C18 C 0.3602(4) 0.6455(4) -0.00695(17)
Zn1A Zn 0.39762(4) 1.54485(4) 0.365671(18)
Zn1B Zn -0.10238(4) 0.95515(4) -0.134329(18)
Zn2A Zn 0.54182(4) 1.70078(4) 0.290187(19)
Zn2B Zn 0.04182(4) 0.79922(4) -0.209813(19)
Zn3B Zn 0.42814(4) 1.42279(4) -0.026080(18)
Zn3_2 Zn 0.57186(4) 0.57721(4) 0.026080(18)
Zn3B_2 Zn 0.42814(4) 0.42279(4) -0.026080(18)
O4B O 0.5930(3) 1.5941(3) -0.04618(13)
O5A O 0.1284(3) 0.9828(3) 0.20056(13)
O6A O 0.0268(3) 1.0809(3) 0.24485(14)
O9B O -0.1016(3) 1.2337(3) 0.14459(13)
O10B O -0.0463(3) 1.0749(3) 0.12241(15)
O11_2 O 0.4407(3) 1.6714(3) 0.01726(15)
O12B O 0.6602(3) 1.4408(3) 0.02601(15)
loop_
_geom_bond_atom_site_label_1
_geom_bond_atom_site_label_2
_geom_bond_site_symmetry_1
_geom_bond_site_symmetry_2
Zn1 O2 1_555 1_555
Zn2 O1 1_555 1_555
Zn3 O3 1_555 1_555
O1 C7 1_555 1_555
O2 C7 1_555 1_555
O3 C8 1_555 1_555
O4 C8 1_555 1_555
O5 C9 1_555 1_555
O6 C9 1_555 1_555
O7 Zn1 1_555 1_555
O8 Zn1 1_555 1_555
O9 C17 1_555 1_555
O10 C17 1_555 1_555
O11 C18 1_555 1_555
O12 C18 1_555 1_555
O13 Zn2 1_555 1_555
O14 Zn3 1_555 1_555
O15 Zn2 1_555 1_555
C1 C2 1_555 1_555
C2 H1 1_555 1_555
C3 C2 1_555 1_555
C4 C3 1_555 1_555
H2 C4 1_555 1_555
C5 C4 1_555 1_555
C6 C1 1_555 1_555
H3 C6 1_555 1_555
C7 C1 1_555 1_555
C8 C3 1_555 1_555
C9 C5 1_555 1_555
C10 C11 1_555 1_555
C11 H4 1_555 1_555
C12 C11 1_555 1_555
C13 C12 1_555 1_555
H5 C13 1_555 1_555
C14 C13 1_555 1_555
C15 C10 1_555 1_555
H6 C15 1_555 1_555
C16 O7 1_555 1_555
C17 C12 1_555 1_555
C18 C14 1_555 1_555
Zn1A O5 1_555 1_555
Zn1B O10 1_555 1_555
Zn2A O6 1_555 1_555
Zn2B O9 1_555 1_555
Zn3B O4 1_555 1_555
Zn3_2 O11 1_555 1_555
Zn3B_2 O12 1_555 1_555
O4B Zn3 1_555 1_555
O5A Zn1 1_555 1_555
O6A Zn2 1_555 1_555
O9B Zn2 1_555 1_555
O10B Zn1 1_555 1_555
O11_2 Zn3 1_555 1_555
O12B Zn3 1_555 1_555
O8 C16 1_555 1_555
C5 C6 1_555 1_555
C10 C16 1_555 1_555
C14 C15 1_555 1_555

#END
