
#######################################################################
#
#                 Cambridge Crystallographic Data Centre
#                                CCDC 
#
#######################################################################
#
# If this CIF has been generated from an entry in the Cambridge 
# Structural Database, then it will include bibliographic, chemical, 
# crystal, experimental, refinement or atomic coordinate data resulting 
# from the CCDC's data processing and validation procedures.
#
#######################################################################

data_SEWCED
_chemical_formula_moiety         '(C127 H116 Cd3 Cl8 N14 O41)n'
_symmetry_cell_setting           tetragonal
_symmetry_space_group_name_H-M   'P 41 2 2'
_symmetry_Int_Tables_number      91
_space_group_name_Hall           'P 4w 2c'
loop_
_symmetry_equiv_pos_site_id
_symmetry_equiv_pos_as_xyz
1 x,y,z
2 -x,-y,1/2+z
3 -y,x,1/4+z
4 y,-x,3/4+z
5 -x,y,-z
6 x,-y,1/2-z
7 y,x,3/4-z
8 -y,-x,1/4-z
_cell_length_a                   20.3049(10)
_cell_length_b                   20.3049(10)
_cell_length_c                   49.641(4)
_cell_angle_alpha                90
_cell_angle_beta                 90
_cell_angle_gamma                90
_cell_volume                     20466.4
loop_
_atom_site_label
_atom_site_type_symbol
_atom_site_fract_x
_atom_site_fract_y
_atom_site_fract_z
Cd1 Cd 0.203188(17) 0.796812(17) 0.1250
Cd2 Cd 0.30891(2) 0.87050(2) 0.018104(8)
Cl1 Cl 0.51945(15) 0.9642(2) 0.20963(7)
Cl2 Cl 0.87778(13) 1.00488(17) 0.05038(6)
Cl3 Cl 0.28380(14) 1.0458(3) -0.13516(7)
Cl4 Cl 0.72096(15) 0.90919(11) -0.22659(4)
O1 O 0.6665(2) 0.7496(3) 0.08623(12)
H1 H 0.7070 0.7555 0.0886
O2 O 0.7433(3) 0.7433(4) 0.15940(18)
H2 H 0.7026 0.7488 0.1573
O3 O 0.6667(2) 1.0362(3) -0.09053(11)
H3 H 0.6763 1.0181 -0.0758
O4 O 0.6044(4) 1.1890(3) -0.12103(12)
H4 H 0.5843 1.1660 -0.1096
O5 O 0.4744(3) 0.7819(4) 0.04591(14)
O6 O 0.4011(3) 0.8588(3) 0.04519(10)
O7 O 0.3959(2) 0.7799(3) 0.01635(10)
O8 O 0.2726(3) 0.7543(4) 0.05061(14)
O9 O 0.2359(3) 0.8502(3) 0.05250(11)
O10 O 0.1953(2) 0.7753(3) 0.07847(8)
O11 O 0.2247(4) 1.0480(3) 0.03747(13)
O12 O 0.2302(3) 0.9631(3) 0.01090(9)
O13 O 0.3029(3) 0.9749(3) 0.04218(9)
N1 N 0.31683(19) 0.7989(2) 0.12319(9)
N2 N 1.0893(2) 0.8029(2) 0.12664(10)
N3 N 0.3742(3) 0.9190(3) -0.01503(10)
N4 N 0.8073(3) 1.2465(3) -0.23980(9)
N5 N 0.4247(3) 0.8076(4) 0.03580(12)
N6 N 0.2322(2) 0.7947(3) 0.05985(9)
N7 N 0.2514(4) 0.9961(3) 0.03031(13)
C1 C 0.3522(3) 0.7641(4) 0.14162(19)
H5 H 0.3293 0.7364 0.1539
C2 C 0.4201(3) 0.7675(5) 0.14326(18)
H6 H 0.4428 0.7427 0.1565
C3 C 0.4550(3) 0.8070(3) 0.12554(13)
C4 C 0.4190(3) 0.8444(3) 0.10781(12)
H7 H 0.4409 0.8737 0.0959
C5 C 0.3500(3) 0.8397(3) 0.10719(11)
H8 H 0.3261 0.8666 0.0949
C6 C 0.5275(3) 0.8107(4) 0.12659(17)
C7 C 0.5626(3) 0.7787(4) 0.10659(15)
H9 H 0.5394 0.7547 0.0932
C8 C 0.6326(3) 0.7808(4) 0.10561(16)
C9 C 0.6674(3) 0.8165(4) 0.12481(17)
C10 C 0.6310(3) 0.8515(4) 0.14558(16)
C11 C 0.5622(3) 0.8492(4) 0.14609(16)
C12 C 0.5273(4) 0.8848(5) 0.16624(18)
H10 H 0.4806 0.8837 0.1667
C13 C 0.5611(4) 0.9201(6) 0.1846(2)
C14 C 0.6308(4) 0.9213(7) 0.1849(2)
H11 H 0.6539 0.9445 0.1986
C15 C 0.6636(4) 0.8887(6) 0.16531(19)
H12 H 0.7104 0.8910 0.1649
C16 C 0.7404(3) 0.8189(4) 0.12434(16)
C17 C 0.7739(3) 0.8614(4) 0.10589(14)
C18 C 0.7400(3) 0.9008(4) 0.08750(15)
H13 H 0.6933 0.8976 0.0869
C19 C 0.7699(4) 0.9433(5) 0.07049(17)
H14 H 0.7451 0.9679 0.0578
C20 C 0.8387(4) 0.9502(4) 0.07205(16)
C21 C 0.8747(3) 0.9126(4) 0.08966(15)
H15 H 0.9211 0.9181 0.0905
C22 C 0.8444(3) 0.8663(4) 0.10645(13)
C23 C 0.8795(3) 0.8251(3) 0.12484(15)
C24 C 0.8468(3) 0.7855(4) 0.14193(18)
H16 H 0.8712 0.7579 0.1537
C25 C 0.7763(3) 0.7835(4) 0.14283(17)
C26 C 1.0545(3) 0.8134(3) 0.14883(12)
H17 H 1.0772 0.8146 0.1656
C27 C 0.9873(3) 0.8229(3) 0.14903(14)
H18 H 0.9651 0.8307 0.1656
C28 C 0.9526(3) 0.8210(3) 0.12556(15)
C29 C 0.9895(3) 0.8134(4) 0.10195(14)
H19 H 0.9683 0.8149 0.0849
C30 C 1.0566(3) 0.8037(4) 0.10336(13)
H20 H 1.0805 0.7974 0.0871
C31 C 0.3931(4) 0.8858(4) -0.03573(17)
H21 H 0.3811 0.8406 -0.0367
C32 C 0.4292(4) 0.9113(4) -0.05624(15)
H22 H 0.4397 0.8844 -0.0713
C33 C 0.4504(3) 0.9745(3) -0.05555(11)
C34 C 0.4323(10) 1.0067(6) -0.0333(3)
H23 H 0.4460 1.0511 -0.0311
C35 C 0.3955(9) 0.9789(6) -0.0137(2)
H24 H 0.3848 1.0044 0.0017
C36 C 0.4924(3) 1.0038(3) -0.07712(13)
C37 C 0.4633(4) 1.0274(4) -0.10146(15)
C38 C 0.3931(4) 1.0269(5) -0.1057(2)
H25 H 0.3644 1.0122 -0.0918
C39 C 0.3683(5) 1.0477(7) -0.1296(2)
C40 C 0.4101(5) 1.0747(7) -0.1504(2)
H26 H 0.3915 1.0927 -0.1663
C41 C 0.4764(5) 1.0739(6) -0.14691(18)
H27 H 0.5043 1.0884 -0.1611
C42 C 0.5046(4) 1.0518(4) -0.12247(13)
C43 C 0.5739(4) 1.0548(4) -0.11845(13)
C44 C 0.5999(3) 1.0332(4) -0.09446(12)
C45 C 0.5575(4) 1.0071(3) -0.07408(12)
H28 H 0.5765 0.9916 -0.0578
C46 C 0.6169(3) 1.0834(3) -0.13995(12)
C47 C 0.6439(3) 1.0433(3) -0.16031(13)
C48 C 0.6343(3) 0.9735(4) -0.15981(13)
H29 H 0.6110 0.9547 -0.1451
C49 C 0.6573(4) 0.9327(4) -0.17958(14)
H30 H 0.6506 0.8864 -0.1786
C50 C 0.6918(4) 0.9615(4) -0.20170(14)
C51 C 0.7020(4) 1.0283(4) -0.20273(12)
H31 H 0.7245 1.0464 -0.2178
C52 C 0.6805(3) 1.0700(3) -0.18246(12)
C53 C 0.6923(4) 1.1405(4) -0.18171(12)
C54 C 0.6687(4) 1.1776(4) -0.16158(13)
H32 H 0.6782 1.2234 -0.1614
C55 C 0.6295(5) 1.1498(4) -0.14030(14)
C56 C 0.8312(4) 1.1908(4) -0.22899(14)
C57 C 0.7938(4) 1.1534(4) -0.21083(14)
H33 H 0.8116 1.1139 -0.2036
C58 C 0.7319(4) 1.1730(4) -0.20333(11)
C59 C 0.7073(4) 1.2308(4) -0.21512(14)
H34 H 0.6643 1.2459 -0.2107
C60 C 0.7457(4) 1.2656(3) -0.23315(14)
H35 H 0.7281 1.3043 -0.2411
Cd1_2 Cd 1.203188(17) 0.796812(17) 0.1250
Cd1_3 Cd 0.203188(17) -0.203188(17) 0.1250
Cd2G Cd 0.12950(2) 0.69109(2) 0.231896(8)
Cd2F Cd 0.87050(2) 1.30891(2) -0.268104(8)
Cd2F_2 Cd -0.12950(2) 0.30891(2) -0.268104(8)
Cl1G Cl 0.0358(2) 0.48055(15) 0.04037(7)
Cl2G Cl -0.00488(17) 0.12222(13) 0.19962(6)
Cl3F Cl 0.0458(3) 0.28380(14) -0.11484(7)
Cl4F Cl -0.09081(11) 0.72096(15) -0.02341(4)
O1G O 0.2504(3) 0.3335(2) 0.16377(12)
H1G H 0.2445 0.2930 0.1614
O2G O 0.2567(4) 0.2567(3) 0.09060(18)
H2G H 0.2512 0.2974 0.0927
O3F O 0.0362(3) 0.6667(2) -0.15947(11)
H3F H 0.0181 0.6763 -0.1742
O4F O 0.1890(3) 0.6044(4) -0.12897(12)
H4F H 0.1660 0.5843 -0.1404
O5G O 0.2181(4) 0.5256(3) 0.20409(14)
O6G O 0.1412(3) 0.5989(3) 0.20481(10)
O7G O 0.2201(3) 0.6041(2) 0.23365(10)
O8G O 0.2457(4) 0.7274(3) 0.19939(14)
O9G O 0.1498(3) 0.7641(3) 0.19750(11)
O10G O 0.2247(3) 0.8047(2) 0.17153(8)
O11G O -0.0480(3) 0.7753(4) 0.21253(13)
O12G O 0.0369(3) 0.7698(3) 0.23910(9)
O13G O 0.0251(3) 0.6971(3) 0.20782(9)
N1G N 0.2011(2) 0.68317(19) 0.12681(9)
N2G N 0.1971(2) -0.0893(2) 0.12336(10)
N2_2 N 0.0893(2) 0.8029(2) 0.12664(10)
N2G_2 N 0.1971(2) 0.9107(2) 0.12336(10)
N3F N -0.0810(3) 0.3742(3) -0.23497(10)
N3G N 0.0810(3) 0.6258(3) 0.26503(10)
N4F N 0.2465(3) 0.8073(3) -0.01020(9)
N4A N 0.1927(3) 0.7535(3) 0.26020(9)
N5G N 0.1924(4) 0.5753(3) 0.21420(12)
N6G N 0.2053(3) 0.7678(2) 0.19015(9)
N7G N 0.0039(3) 0.7486(4) 0.21969(13)
C1G C 0.2359(4) 0.6478(3) 0.10838(19)
H5G H 0.2636 0.6707 0.0961
C2G C 0.2325(5) 0.5799(3) 0.10674(18)
H6G H 0.2573 0.5572 0.0935
C3G C 0.1930(3) 0.5450(3) 0.12446(13)
C4G C 0.1556(3) 0.5810(3) 0.14219(12)
H7G H 0.1263 0.5591 0.1541
C5G C 0.1603(3) 0.6500(3) 0.14281(11)
H8G H 0.1334 0.6739 0.1551
C6G C 0.1893(4) 0.4725(3) 0.12341(17)
C7G C 0.2213(4) 0.4374(3) 0.14341(15)
H9G H 0.2453 0.4606 0.1568
C8G C 0.2192(4) 0.3674(3) 0.14439(16)
C9G C 0.1835(4) 0.3326(3) 0.12519(17)
C10G C 0.1485(4) 0.3690(3) 0.10442(16)
C11G C 0.1508(4) 0.4378(3) 0.10391(16)
C12G C 0.1152(5) 0.4727(4) 0.08376(18)
H10G H 0.1163 0.5194 0.0833
C13G C 0.0799(6) 0.4389(4) 0.0654(2)
C14G C 0.0787(7) 0.3692(4) 0.0651(2)
H11G H 0.0555 0.3461 0.0514
C15G C 0.1113(6) 0.3364(4) 0.08469(19)
H12G H 0.1090 0.2896 0.0851
C16G C 0.1811(4) 0.2596(3) 0.12566(16)
C17G C 0.1386(4) 0.2261(3) 0.14411(14)
C18G C 0.0992(4) 0.2600(3) 0.16250(15)
H13G H 0.1024 0.3067 0.1631
C19G C 0.0567(5) 0.2301(4) 0.17951(17)
H14G H 0.0321 0.2549 0.1922
C20G C 0.0498(4) 0.1613(4) 0.17795(16)
C21G C 0.0874(4) 0.1253(3) 0.16034(15)
H15G H 0.0819 0.0789 0.1595
C22G C 0.1337(4) 0.1556(3) 0.14355(13)
C23G C 0.1749(3) 0.1205(3) 0.12516(15)
C24G C 0.2145(4) 0.1532(3) 0.10807(18)
H16G H 0.2421 0.1288 0.0963
C25G C 0.2165(4) 0.2237(3) 0.10717(17)
C26G C 0.1866(3) -0.0545(3) 0.10117(12)
H17G H 0.1854 -0.0772 0.0844
C27G C 0.1771(3) 0.0127(3) 0.10097(14)
H18G H 0.1693 0.0349 0.0844
C28G C 0.1790(3) 0.0474(3) 0.12444(15)
C29G C 0.1866(4) 0.0105(3) 0.14805(14)
H19G H 0.1851 0.0317 0.1651
C30G C 0.1963(4) -0.0566(3) 0.14664(13)
H20G H 0.2026 -0.0805 0.1629
C31F C -0.1142(4) 0.3931(4) -0.21427(17)
H21F H -0.1594 0.3811 -0.2133
C32F C -0.0887(4) 0.4292(4) -0.19376(15)
H22F H -0.1156 0.4397 -0.1787
C33F C -0.0255(3) 0.4504(3) -0.19445(11)
C34F C 0.0067(6) 0.4323(10) -0.2167(3)
H23F H 0.0511 0.4460 -0.2189
C35F C -0.0211(6) 0.3955(9) -0.2363(2)
H24F H 0.0044 0.3848 -0.2517
C36F C 0.0038(3) 0.4924(3) -0.17288(13)
C37F C 0.0274(4) 0.4633(4) -0.14854(15)
C38F C 0.0269(5) 0.3931(4) -0.1443(2)
H25F H 0.0122 0.3644 -0.1582
C39F C 0.0477(7) 0.3683(5) -0.1204(2)
C40F C 0.0747(7) 0.4101(5) -0.0996(2)
H26F H 0.0927 0.3915 -0.0837
C41F C 0.0739(6) 0.4764(5) -0.10309(18)
H27F H 0.0884 0.5043 -0.0889
C42F C 0.0518(4) 0.5046(4) -0.12753(13)
C43F C 0.0548(4) 0.5739(4) -0.13155(13)
C44F C 0.0332(4) 0.5999(3) -0.15554(12)
C45F C 0.0071(3) 0.5575(4) -0.17592(12)
H28F H -0.0084 0.5765 -0.1922
C46F C 0.0834(3) 0.6169(3) -0.11005(12)
C47F C 0.0433(3) 0.6439(3) -0.08969(13)
C48F C -0.0265(4) 0.6343(3) -0.09019(13)
H29F H -0.0453 0.6110 -0.1049
C49F C -0.0673(4) 0.6573(4) -0.07042(14)
H30F H -0.1136 0.6506 -0.0714
C50F C -0.0385(4) 0.6918(4) -0.04830(14)
C51F C 0.0283(4) 0.7020(4) -0.04727(12)
H31F H 0.0464 0.7245 -0.0322
C52F C 0.0700(3) 0.6805(3) -0.06754(12)
C53F C 0.1405(4) 0.6923(4) -0.06829(12)
C54F C 0.1776(4) 0.6687(4) -0.08842(13)
H32F H 0.2234 0.6782 -0.0886
C55F C 0.1498(4) 0.6295(5) -0.10970(14)
C56F C 0.1908(4) 0.8312(4) -0.02101(14)
C57F C 0.1534(4) 0.7938(4) -0.03917(14)
H33F H 0.1139 0.8116 -0.0464
C58F C 0.1730(4) 0.7319(4) -0.04667(11)
C59F C 0.2308(4) 0.7073(4) -0.03488(14)
H34F H 0.2459 0.6643 -0.0393
C60F C 0.2656(3) 0.7457(4) -0.01685(14)
H35F H 0.3043 0.7281 -0.0089
O14 O -0.1096(17) 1.0004(18) 0.1547(7)
C61 C -0.143(3) 0.962(3) 0.1705(12)
O15 O -0.1961(18) 0.6930(18) 0.2034(7)
C62 C -0.157(2) 0.622(2) 0.2034(9)
O16 O -0.518(2) 0.819(2) 0.2868(9)
C63 C -0.559(2) 0.828(2) 0.2529(8)
O17 O 0.5000 0.685(2) 0.0000
C64 C 0.5000 0.625(4) 0.0000
O18 O -0.189(2) 0.474(2) 0.1736(9)
C65 C -0.221(3) 0.427(3) 0.1625(12)
O20 O -0.5877(14) 0.7679(16) 0.2237(6)
C67 C -0.592(2) 0.704(2) 0.2173(9)
O22 O -0.412(3) 0.699(3) 0.1847(13)
C69 C -0.399(3) 0.744(3) 0.2074(11)
O23 O -0.187(4) 0.250(4) 0.1876(16)
O24 O 0.0000 0.9126(15) 0.0000
O25 O -0.130(4) 0.301(4) 0.2273(14)
O26 O -0.324(3) 0.903(3) 0.2656(10)
O27 O -0.6410(17) 0.5847(17) 0.1712(6)
O28 O 0.582(2) 1.315(2) -0.1323(8)
O29 O 0.0556(14) 0.9150(14) 0.0361(6)
O30 O 0.007(2) 0.993(2) 0.1250
loop_
_geom_bond_atom_site_label_1
_geom_bond_atom_site_label_2
_geom_bond_site_symmetry_1
_geom_bond_site_symmetry_2
Cd1 O10 1_555 1_555
Cd2 O6 1_555 1_555
Cl1 C13 1_555 1_555
Cl2 C20 1_555 1_555
Cl3 C39 1_555 1_555
Cl4 C50 1_555 1_555
O1 H1 1_555 1_555
O2 H2 1_555 1_555
O3 H3 1_555 1_555
O4 H4 1_555 1_555
O5 N5 1_555 1_555
O6 N5 1_555 1_555
O7 Cd2 1_555 1_555
O8 N6 1_555 1_555
O9 Cd2 1_555 1_555
O10 N6 1_555 1_555
O11 N7 1_555 1_555
O12 Cd2 1_555 1_555
O13 Cd2 1_555 1_555
N1 Cd1 1_555 1_555
N2 C26 1_555 1_555
N3 Cd2 1_555 1_555
N4 C56 1_555 1_555
N5 O7 1_555 1_555
N6 O9 1_555 1_555
N7 O12 1_555 1_555
C1 N1 1_555 1_555
H5 C1 1_555 1_555
C2 C1 1_555 1_555
H6 C2 1_555 1_555
C3 C2 1_555 1_555
C4 C3 1_555 1_555
H7 C4 1_555 1_555
C5 N1 1_555 1_555
H8 C5 1_555 1_555
C6 C3 1_555 1_555
C7 C6 1_555 1_555
H9 C7 1_555 1_555
C8 O1 1_555 1_555
C9 C8 1_555 1_555
C10 C9 1_555 1_555
C11 C6 1_555 1_555
C12 C11 1_555 1_555
H10 C12 1_555 1_555
C13 C12 1_555 1_555
C14 C13 1_555 1_555
H11 C14 1_555 1_555
C15 C10 1_555 1_555
H12 C15 1_555 1_555
C16 C9 1_555 1_555
C17 C16 1_555 1_555
C18 C17 1_555 1_555
H13 C18 1_555 1_555
C19 C18 1_555 1_555
H14 C19 1_555 1_555
C20 C19 1_555 1_555
C21 C20 1_555 1_555
H15 C21 1_555 1_555
C22 C17 1_555 1_555
C23 C22 1_555 1_555
C24 C23 1_555 1_555
H16 C24 1_555 1_555
C25 O2 1_555 1_555
C26 H17 1_555 1_555
C27 C26 1_555 1_555
H18 C27 1_555 1_555
C28 C23 1_555 1_555
C29 C28 1_555 1_555
H19 C29 1_555 1_555
C30 N2 1_555 1_555
H20 C30 1_555 1_555
C31 N3 1_555 1_555
H21 C31 1_555 1_555
C32 C31 1_555 1_555
H22 C32 1_555 1_555
C33 C32 1_555 1_555
C34 C33 1_555 1_555
H23 C34 1_555 1_555
C35 N3 1_555 1_555
H24 C35 1_555 1_555
C36 C33 1_555 1_555
C37 C36 1_555 1_555
C38 C37 1_555 1_555
H25 C38 1_555 1_555
C39 C38 1_555 1_555
C40 C39 1_555 1_555
H26 C40 1_555 1_555
C41 C40 1_555 1_555
H27 C41 1_555 1_555
C42 C37 1_555 1_555
C43 C42 1_555 1_555
C44 O3 1_555 1_555
C45 C36 1_555 1_555
H28 C45 1_555 1_555
C46 C43 1_555 1_555
C47 C46 1_555 1_555
C48 C47 1_555 1_555
H29 C48 1_555 1_555
C49 C48 1_555 1_555
H30 C49 1_555 1_555
C50 C49 1_555 1_555
C51 C50 1_555 1_555
H31 C51 1_555 1_555
C52 C47 1_555 1_555
C53 C52 1_555 1_555
C54 C53 1_555 1_555
H32 C54 1_555 1_555
C55 O4 1_555 1_555
C56 C57 1_555 1_555
C57 H33 1_555 1_555
C58 C53 1_555 1_555
C59 C58 1_555 1_555
H34 C59 1_555 1_555
C60 N4 1_555 1_555
H35 C60 1_555 1_555
O14 C61 1_555 1_555
O15 C62 1_555 1_555
O16 C63 1_555 1_555
O17 C64 1_555 1_555
O18 C65 1_555 1_555
O20 C67 1_555 1_555
O22 C69 1_555 1_555
Cd1_2 N2 1_555 1_555
Cd1_3 N2G 1_555 1_555
Cd2G O6G 1_555 1_555
Cd2F N4 1_555 1_555
Cd2F_2 N3F 1_555 1_555
Cl1G C13G 1_555 1_555
Cl2G C20G 1_555 1_555
Cl3F C39F 1_555 1_555
Cl4F C50F 1_555 1_555
O1G H1G 1_555 1_555
O2G H2G 1_555 1_555
O3F H3F 1_555 1_555
O4F H4F 1_555 1_555
O5G N5G 1_555 1_555
O6G N5G 1_555 1_555
O7G Cd2G 1_555 1_555
O8G N6G 1_555 1_555
O9G Cd2G 1_555 1_555
O10G Cd1 1_555 1_555
O11G N7G 1_555 1_555
O12G Cd2G 1_555 1_555
O13G Cd2G 1_555 1_555
N1G Cd1 1_555 1_555
N2G C26G 1_555 1_555
N2_2 Cd1 1_555 1_555
N2G_2 Cd1 1_555 1_555
N3F C31F 1_555 1_555
N3G Cd2G 1_555 1_555
N4F Cd2 1_555 1_555
N4A Cd2G 1_555 1_555
N5G O7G 1_555 1_555
N6G O9G 1_555 1_555
N7G O12G 1_555 1_555
C1G N1G 1_555 1_555
H5G C1G 1_555 1_555
C2G C1G 1_555 1_555
H6G C2G 1_555 1_555
C3G C2G 1_555 1_555
C4G C3G 1_555 1_555
H7G C4G 1_555 1_555
C5G N1G 1_555 1_555
H8G C5G 1_555 1_555
C6G C3G 1_555 1_555
C7G C6G 1_555 1_555
H9G C7G 1_555 1_555
C8G O1G 1_555 1_555
C9G C8G 1_555 1_555
C10G C9G 1_555 1_555
C11G C6G 1_555 1_555
C12G C11G 1_555 1_555
H10G C12G 1_555 1_555
C13G C12G 1_555 1_555
C14G C13G 1_555 1_555
H11G C14G 1_555 1_555
C15G C10G 1_555 1_555
H12G C15G 1_555 1_555
C16G C9G 1_555 1_555
C17G C16G 1_555 1_555
C18G C17G 1_555 1_555
H13G C18G 1_555 1_555
C19G C18G 1_555 1_555
H14G C19G 1_555 1_555
C20G C19G 1_555 1_555
C21G C20G 1_555 1_555
H15G C21G 1_555 1_555
C22G C17G 1_555 1_555
C23G C22G 1_555 1_555
C24G C23G 1_555 1_555
H16G C24G 1_555 1_555
C25G O2G 1_555 1_555
C26G H17G 1_555 1_555
C27G C26G 1_555 1_555
H18G C27G 1_555 1_555
C28G C23G 1_555 1_555
C29G C28G 1_555 1_555
H19G C29G 1_555 1_555
C30G N2G 1_555 1_555
H20G C30G 1_555 1_555
C31F H21F 1_555 1_555
C32F C31F 1_555 1_555
H22F C32F 1_555 1_555
C33F C32F 1_555 1_555
C34F C33F 1_555 1_555
H23F C34F 1_555 1_555
C35F N3F 1_555 1_555
H24F C35F 1_555 1_555
C36F C33F 1_555 1_555
C37F C36F 1_555 1_555
C38F C37F 1_555 1_555
H25F C38F 1_555 1_555
C39F C38F 1_555 1_555
C40F C39F 1_555 1_555
H26F C40F 1_555 1_555
C41F C40F 1_555 1_555
H27F C41F 1_555 1_555
C42F C37F 1_555 1_555
C43F C42F 1_555 1_555
C44F O3F 1_555 1_555
C45F C36F 1_555 1_555
H28F C45F 1_555 1_555
C46F C43F 1_555 1_555
C47F C46F 1_555 1_555
C48F C47F 1_555 1_555
H29F C48F 1_555 1_555
C49F C48F 1_555 1_555
H30F C49F 1_555 1_555
C50F C49F 1_555 1_555
C51F C50F 1_555 1_555
H31F C51F 1_555 1_555
C52F C47F 1_555 1_555
C53F C52F 1_555 1_555
C54F C53F 1_555 1_555
H32F C54F 1_555 1_555
C55F O4F 1_555 1_555
C56F N4F 1_555 1_555
C57F C56F 1_555 1_555
H33F C57F 1_555 1_555
C58F C53F 1_555 1_555
C59F C58F 1_555 1_555
H34F C59F 1_555 1_555
C60F N4F 1_555 1_555
H35F C60F 1_555 1_555
O13 N7 1_555 1_555
C4 C5 1_555 1_555
C7 C8 1_555 1_555
C10 C11 1_555 1_555
C14 C15 1_555 1_555
C16 C25 1_555 1_555
C21 C22 1_555 1_555
C24 C25 1_555 1_555
C27 C28 1_555 1_555
C29 C30 1_555 1_555
C34 C35 1_555 1_555
C41 C42 1_555 1_555
C43 C44 1_555 1_555
C44 C45 1_555 1_555
C46 C55 1_555 1_555
C51 C52 1_555 1_555
C54 C55 1_555 1_555
C57 C58 1_555 1_555
C59 C60 1_555 1_555
O10G N6G 1_555 1_555
O13G N7G 1_555 1_555
C4G C5G 1_555 1_555
C7G C8G 1_555 1_555
C10G C11G 1_555 1_555
C14G C15G 1_555 1_555
C16G C25G 1_555 1_555
C21G C22G 1_555 1_555
C24G C25G 1_555 1_555
C27G C28G 1_555 1_555
C29G C30G 1_555 1_555
C34F C35F 1_555 1_555
C41F C42F 1_555 1_555
C43F C44F 1_555 1_555
C44F C45F 1_555 1_555
C46F C55F 1_555 1_555
C51F C52F 1_555 1_555
C54F C55F 1_555 1_555
C57F C58F 1_555 1_555
C59F C60F 1_555 1_555

#END
