
#######################################################################
#
#                 Cambridge Crystallographic Data Centre
#                                CCDC 
#
#######################################################################
#
# If this CIF has been generated from an entry in the Cambridge 
# Structural Database, then it will include bibliographic, chemical, 
# crystal, experimental, refinement or atomic coordinate data resulting 
# from the CCDC's data processing and validation procedures.
#
#######################################################################

data_OFEHAK
_chemical_formula_moiety         '(C12 H12 Cd1 N2 O6)n'
_symmetry_cell_setting           tetragonal
_symmetry_space_group_name_H-M   'I 41/a'
_symmetry_Int_Tables_number      88
_space_group_name_Hall           '-I 4ad'
loop_
_symmetry_equiv_pos_site_id
_symmetry_equiv_pos_as_xyz
1 x,y,z
2 3/4-y,1/4+x,1/4+z
3 1/2-x,-y,1/2+z
4 3/4+y,3/4-x,3/4+z
5 1/2+x,1/2+y,1/2+z
6 1/4-y,3/4+x,3/4+z
7 -x,1/2-y,z
8 1/4+y,1/4-x,1/4+z
9 -x,-y,-z
10 1/4+y,3/4-x,3/4-z
11 1/2+x,y,1/2-z
12 1/4-y,1/4+x,1/4-z
13 1/2-x,1/2-y,1/2-z
14 3/4+y,1/4-x,1/4-z
15 x,1/2+y,-z
16 3/4-y,3/4+x,3/4-z
_cell_length_a                   22.290(3)
_cell_length_b                   22.290(3)
_cell_length_c                   15.123(3)
_cell_angle_alpha                90
_cell_angle_beta                 90
_cell_angle_gamma                90
_cell_volume                     7513.77
loop_
_atom_site_label
_atom_site_type_symbol
_atom_site_fract_x
_atom_site_fract_y
_atom_site_fract_z
_atom_site_U_iso_or_equiv
_atom_site_thermal_displace_type
Cd1 Cd 0.76092(5) 0.82724(4) 0.69933(7) 0.0835 Uani
N1 N 0.8159(5) 0.8789(5) 0.7972(8) 0.0853 Uani
N2 N 0.8695(4) 0.9415(5) 0.8841(6) 0.0737 Uani
O1 O 0.7829(5) 0.7641(4) 0.8234(7) 0.1037 Uani
O2 O 0.8139(8) 0.7643(5) 0.9591(8) 0.1327 Uani
H1 H 0.8054 0.7873 0.9995 0.1990 Uiso
O3 O 0.8705(7) 0.8321(6) 1.0596(7) 0.1417 Uani
O4 O 0.9095(5) 0.9239(5) 1.0535(6) 0.1090 Uani
O5 O 0.8424(10) 0.7980(12) 0.6186(13) 0.2383 Uani
C1 C 0.8053(7) 0.7896(6) 0.8871(10) 0.0853 Uani
C2 C 0.8279(6) 0.8496(6) 0.8752(8) 0.0743 Uani
C3 C 0.8610(6) 0.8880(6) 0.9275(9) 0.0750 Uani
C4 C 0.8819(8) 0.8822(8) 1.0219(10) 0.0973 Uani
C5 C 0.8442(7) 0.9331(6) 0.8044(10) 0.0860 Uani
C6 C 0.8350(7) 0.9820(5) 0.7314(8) 0.1107 Uani
C7 C 0.8859(6) 1.0096(7) 0.6972(10) 0.1940 Uani
H2 H 0.9238 0.9972 0.7154 0.2330 Uiso
C8 C 0.8802(7) 1.0557(7) 0.6359(11) 0.2027 Uani
H3 H 0.9142 1.0742 0.6131 0.2430 Uiso
C9 C 0.8236(9) 1.0742(6) 0.6088(9) 0.1720 Uani
C10 C 0.7727(7) 1.0466(7) 0.6429(10) 0.1647 Uani
H4 H 0.7348 1.0590 0.6248 0.1980 Uiso
C11 C 0.7784(6) 1.0005(6) 0.7042(9) 0.1753 Uani
H5 H 0.7443 0.9821 0.7271 0.2110 Uiso
C12 C 0.8130(17) 1.1150(17) 0.541(3) 0.3700 Uani
H6 H 0.8505 1.1313 0.5209 0.5520 Uiso
H7 H 0.7879 1.1469 0.5624 0.5520 Uiso
H8 H 0.7933 1.0950 0.4928 0.5520 Uiso
H9 H 0.818(8) 0.786(8) 0.579(12) 0.2000 Uiso
H10 H 0.858(11) 0.760(5) 0.642(16) 0.2400 Uiso
Cd1A Cd 0.92276(4) 1.01092(5) 0.94933(7) 0.0835 Uani
Cd1L Cd 0.73908(5) 0.67276(4) 0.80067(7) 0.0835 Uani
N2C N 0.6915(5) 0.8805(4) 0.6341(6) 0.0737 Uani
O1L O 0.7171(5) 0.7359(4) 0.6766(7) 0.1037 Uani
O4C O 0.6739(5) 0.8405(5) 0.8035(6) 0.1090 Uani
O6 O 1.0000 0.7500 0.3750 0.4800 Uani
loop_
_atom_site_aniso_label
_atom_site_aniso_U_11
_atom_site_aniso_U_22
_atom_site_aniso_U_33
_atom_site_aniso_U_23
_atom_site_aniso_U_13
_atom_site_aniso_U_12
Cd1 0.0921(9) 0.0730(8) 0.0855(9) 0.0013(5) -0.0362(6) 0.0015(5)
N1 0.095(8) 0.069(7) 0.092(9) -0.005(6) -0.022(6) -0.007(6)
N2 0.081(7) 0.097(8) 0.043(6) -0.007(5) -0.012(5) -0.010(6)
O1 0.122(8) 0.069(6) 0.120(8) 0.008(6) -0.065(7) -0.013(6)
O2 0.193(14) 0.086(8) 0.119(10) 0.011(7) -0.035(10) -0.043(8)
O3 0.227(15) 0.117(9) 0.081(8) 0.017(7) -0.056(8) -0.035(9)
O4 0.148(10) 0.109(8) 0.070(6) -0.011(6) -0.030(6) -0.023(7)
O5 0.186(18) 0.41(3) 0.119(14) -0.071(18) -0.057(12) 0.09(2)
C1 0.108(11) 0.080(10) 0.068(9) 0.022(8) -0.042(8) -0.009(8)
C2 0.082(9) 0.074(9) 0.067(9) 0.009(7) -0.014(7) 0.003(7)
C3 0.081(9) 0.080(9) 0.064(9) -0.008(7) -0.009(7) -0.002(7)
C4 0.123(13) 0.084(11) 0.085(11) -0.002(9) -0.033(10) -0.016(10)
C5 0.090(10) 0.084(10) 0.084(11) 0.004(8) -0.011(8) -0.002(8)
C6 0.129(14) 0.124(13) 0.079(11) 0.012(10) 0.001(10) -0.024(12)
C7 0.196(13) 0.191(13) 0.195(13) 0.043(9) -0.009(10) -0.024(10)
C8 0.209(13) 0.197(13) 0.202(13) 0.052(10) 0.002(10) -0.019(10)
C9 0.174(12) 0.169(12) 0.173(12) 0.032(9) -0.013(9) -0.010(9)
C10 0.164(11) 0.163(11) 0.167(12) 0.005(9) -0.006(9) 0.009(9)
C11 0.23(3) 0.18(2) 0.116(16) 0.027(14) -0.029(16) 0.10(2)
C12 0.44(6) 0.33(5) 0.34(5) 0.24(4) -0.07(4) 0.04(4)
Cd1A 0.073 0.0921 0.0855 -0.0362 -0.0013 -0.0015
Cd1L 0.0921 0.073 0.0855 0.0013 -0.0362 0.0015
N2C 0.097 0.081 0.043 0.012 -0.007 0.01
O1L 0.122 0.069 0.12 0.008 -0.065 -0.013
O4C 0.109 0.148 0.07 0.03 -0.011 0.023
O6 0.37(5) 0.37(5) 0.70(13) 0.000 0.000 0.000
loop_
_geom_bond_atom_site_label_1
_geom_bond_atom_site_label_2
_geom_bond_site_symmetry_1
_geom_bond_site_symmetry_2
Cd1 N1 1_555 1_555
N1 C2 1_555 1_555
N2 C3 1_555 1_555
O1 Cd1 1_555 1_555
O2 H1 1_555 1_555
O3 C4 1_555 1_555
O4 C4 1_555 1_555
O5 Cd1 1_555 1_555
C1 O1 1_555 1_555
C2 C1 1_555 1_555
C3 C2 1_555 1_555
C4 C3 1_555 1_555
C5 N1 1_555 1_555
C6 C5 1_555 1_555
C7 C6 1_555 1_555
H2 C7 1_555 1_555
C8 C7 1_555 1_555
H3 C8 1_555 1_555
C9 C8 1_555 1_555
C10 C9 1_555 1_555
H4 C10 1_555 1_555
C11 C6 1_555 1_555
H5 C11 1_555 1_555
C12 C9 1_555 1_555
H6 C12 1_555 1_555
H7 C12 1_555 1_555
H8 C12 1_555 1_555
H9 O5 1_555 1_555
H10 O5 1_555 1_555
Cd1A N2 1_555 1_555
Cd1L O1 1_555 1_555
N2C Cd1 1_555 1_555
O1L Cd1 1_555 1_555
O4C Cd1 1_555 1_555
N2 C5 1_555 1_555
O2 C1 1_555 1_555
O4 Cd1A 1_555 1_555
C10 C11 1_555 1_555
Cd1L O1L 1_555 1_555

#END
