
#######################################################################
#
#                 Cambridge Crystallographic Data Centre
#                                CCDC 
#
#######################################################################
#
# If this CIF has been generated from an entry in the Cambridge 
# Structural Database, then it will include bibliographic, chemical, 
# crystal, experimental, refinement or atomic coordinate data resulting 
# from the CCDC's data processing and validation procedures.
#
#######################################################################

data_NIZNAN
_chemical_formula_moiety         '(C24 H50 N7 O15 Tb1)n'
_symmetry_cell_setting           monoclinic
_symmetry_space_group_name_H-M   'P 21/n'
_symmetry_Int_Tables_number      14
_space_group_name_Hall           '-P 2yn'
loop_
_symmetry_equiv_pos_site_id
_symmetry_equiv_pos_as_xyz
1 x,y,z
2 1/2-x,1/2+y,1/2-z
3 -x,-y,-z
4 1/2+x,1/2-y,1/2+z
_cell_length_a                   16.176
_cell_length_b                   7.948
_cell_length_c                   27.278
_cell_angle_alpha                90
_cell_angle_beta                 93.50
_cell_angle_gamma                90
_cell_volume                     3500.51
loop_
_atom_site_label
_atom_site_type_symbol
_atom_site_fract_x
_atom_site_fract_y
_atom_site_fract_z
C1 C 0.3923(4) 0.7764(9) 0.8096(2)
H1 H 0.3378 0.8168 0.7985
H2 H 0.3983 0.6627 0.7974
Tb1 Tb 0.72311(2) 1.15649(4) 0.732799(13)
O1 O -0.1492(3) 1.1239(5) 0.78765(17)
O2 O -0.1331(3) 0.8573(6) 0.81195(18)
O3 O 0.2848(3) 0.6253(5) 1.20343(16)
N1 N 0.2646(3) 0.8580(7) 0.86892(19)
C2 C 0.5484(4) 0.8408(9) 0.8652(2)
H3 H 0.6026 0.8045 0.8783
H4 H 0.5393 0.9546 0.8765
O4 O 0.6832(2) 0.8981(5) 0.78487(16)
C3 C 0.5456(4) 0.8385(9) 0.8092(2)
H5 H 0.557(4) 0.724(8) 0.798(2)
O5 O 0.2892(3) 0.4150(6) 1.15204(17)
N2 N 0.2104(3) 0.8713(8) 0.9487(2)
N3 N 0.4000(3) 0.7750(8) 0.8634(2)
C4 C 0.2851(4) 0.8142(8) 0.9661(2)
N4 N 0.1350(3) 0.9643(8) 0.8796(2)
O6 O 0.5941(3) 1.1055(5) 0.78052(18)
C5 C -0.0257(4) 1.0516(8) 0.8349(2)
H6 H -0.020(4) 1.174(8) 0.836(2)
C6 C 0.3367(4) 0.8066(8) 0.8917(2)
O7 O 0.6174(3) 0.9754(6) 0.68144(19)
C7 C 0.4584(4) 0.8894(9) 0.7888(2)
H7 H 0.4480 1.0055 0.7975
H8 H 0.4553 0.8808 0.7533
N5 N 0.3507(3) 0.7864(7) 0.9405(2)
N6 N 0.2930(3) 0.7839(8) 1.0154(2)
C8 C 0.3645(4) 0.6231(10) 1.0821(2)
H9 H 0.4185 0.6031 1.0986
H10 H 0.3434 0.5161 1.0697
C9 C 0.2065(4) 0.8968(9) 0.8999(2)
C10 C 0.2340(5) 0.8520(10) 1.0487(3)
H11 H 0.1809 0.8694 1.0309
H12 H 0.2537 0.9601 1.0611
C11 C 0.6106(4) 0.9547(8) 0.7909(2)
C12 C 0.0437(4) 0.9787(9) 0.8050(3)
H13 H 0.0381 0.8573 0.8031
H14 H 0.0388 1.0234 0.7719
C13 C -0.0144(4) 0.9835(10) 0.8867(3)
H15 H -0.0205 0.8621 0.8860
H16 H -0.0571 1.0293 0.9063
C14 C 0.2941(4) 0.5709(8) 1.1602(2)
C15 C 0.0705(4) 1.0291(10) 0.9103(3)
H17 H 0.0754 1.1504 0.9133
H18 H 0.0772 0.9805 0.9429
C16 C 0.4825(4) 0.7253(10) 0.8836(3)
H19 H 0.4937 0.6104 0.8740
H20 H 0.4841 0.7296 0.9192
C17 C 0.1277(4) 1.0234(10) 0.8289(3)
H21 H 0.1707 0.9724 0.8106
H22 H 0.1351 1.1444 0.8282
C18 C 0.3071(4) 0.6910(8) 1.1186(2)
H23 H 0.331(4) 0.795(8) 1.132(3)
C19 C 0.3743(4) 0.7429(11) 1.0388(3)
H24 H 0.4018 0.8452 1.0504
H25 H 0.4084 0.6903 1.0151
C20 C 0.2232(4) 0.7319(10) 1.0918(3)
H26 H 0.1974 0.6286 1.0797
H27 H 0.1871 0.7831 1.1147
C21 C -0.1092(4) 1.0071(8) 0.8099(2)
Tb1_2 Tb -0.27689(2) 1.15649(4) 0.732799(13)
Tb1A Tb -0.22311(2) 0.65649(4) 0.767201(13)
Tb1A_2 Tb 0.77689(2) 0.65649(4) 0.767201(13)
Tb1B Tb 0.27689(2) 0.84351(4) 1.267201(13)
Tb1C Tb 0.22311(2) 0.34351(4) 1.232799(13)
O1_2 O 0.8508(3) 1.1239(5) 0.78765(17)
O2A O 0.6331(3) 1.3573(6) 0.68805(18)
O3B O 0.7152(3) 1.3747(5) 0.79657(16)
O3C O 0.7848(3) 0.8747(5) 0.70343(16)
O4A O 0.8168(2) 1.3981(5) 0.71513(16)
O5C O 0.7892(3) 1.0850(6) 0.65204(17)
N7 N 0.3309(5) 0.2692(11) 0.9483(3)
O8 O 0.4389(6) 0.2178(14) 0.9033(4)
C22 C 0.3682(11) 0.258(2) 0.9087(8)
H28 H 0.3367 0.2855 0.8801
C23 C 0.3820(11) 0.224(2) 0.9925(6)
H29 H 0.4204 0.1370 0.9846
H30 H 0.3470 0.1831 1.0172
H31 H 0.4119 0.3207 1.0047
C24 C 0.2551(11) 0.316(2) 0.9597(10)
H32 H 0.2186 0.3158 0.9306
H33 H 0.2574 0.4277 0.9734
H34 H 0.2348 0.2394 0.9833
O9 O 0.4796(4) 0.3449(8) 0.8142(3)
O10 O 0.4547(3) 0.0083(8) 0.6503(3)
O11 O 0.1959(3) 0.5863(8) 0.8006(2)
O12 O 0.3094(4) 0.3248(10) 0.7813(3)
O13 O 0.0805(5) 0.5984(10) 0.9500(3)
O14 O 0.1892(5) 0.2358(11) 0.0879(3)
O15 O 0.0724(6) 0.3270(14) 0.0142(4)
loop_
_geom_bond_atom_site_label_1
_geom_bond_atom_site_label_2
_geom_bond_site_symmetry_1
_geom_bond_site_symmetry_2
C1 H1 1_555 1_555
H2 C1 1_555 1_555
Tb1 O4 1_555 1_555
O1 C21 1_555 1_555
O2 C21 1_555 1_555
O3 C14 1_555 1_555
N1 C6 1_555 1_555
C2 H3 1_555 1_555
H4 C2 1_555 1_555
O4 C11 1_555 1_555
C3 C2 1_555 1_555
H5 C3 1_555 1_555
O5 C14 1_555 1_555
N2 C4 1_555 1_555
N3 C1 1_555 1_555
C4 N5 1_555 1_555
N4 C9 1_555 1_555
O6 Tb1 1_555 1_555
C5 H6 1_555 1_555
C6 N3 1_555 1_555
O7 Tb1 1_555 1_555
C7 C1 1_555 1_555
H7 C7 1_555 1_555
H8 C7 1_555 1_555
N5 C6 1_555 1_555
N6 C4 1_555 1_555
C8 H9 1_555 1_555
H10 C8 1_555 1_555
C9 N1 1_555 1_555
C10 N6 1_555 1_555
H11 C10 1_555 1_555
H12 C10 1_555 1_555
C11 C3 1_555 1_555
C12 C5 1_555 1_555
H13 C12 1_555 1_555
H14 C12 1_555 1_555
C13 C5 1_555 1_555
H15 C13 1_555 1_555
H16 C13 1_555 1_555
C14 C18 1_555 1_555
C15 N4 1_555 1_555
H17 C15 1_555 1_555
H18 C15 1_555 1_555
C16 C2 1_555 1_555
H19 C16 1_555 1_555
H20 C16 1_555 1_555
C17 N4 1_555 1_555
H21 C17 1_555 1_555
H22 C17 1_555 1_555
C18 C8 1_555 1_555
H23 C18 1_555 1_555
C19 N6 1_555 1_555
H24 C19 1_555 1_555
H25 C19 1_555 1_555
C20 C10 1_555 1_555
H26 C20 1_555 1_555
H27 C20 1_555 1_555
C21 C5 1_555 1_555
N7 C22 1_555 1_555
O8 C22 1_555 1_555
C22 H28 1_555 1_555
C23 N7 1_555 1_555
H29 C23 1_555 1_555
H30 C23 1_555 1_555
H31 C23 1_555 1_555
C24 N7 1_555 1_555
H32 C24 1_555 1_555
H33 C24 1_555 1_555
H34 C24 1_555 1_555
Tb1_2 O1 1_555 1_555
Tb1A O2 1_555 1_555
Tb1A_2 O4 1_555 1_555
Tb1B O3 1_555 1_555
Tb1C O3 1_555 1_555
O1_2 Tb1 1_555 1_555
O2A Tb1 1_555 1_555
O3B Tb1 1_555 1_555
O3C Tb1 1_555 1_555
O4A Tb1 1_555 1_555
O5C Tb1 1_555 1_555
C3 C7 1_555 1_555
O5 Tb1C 1_555 1_555
N2 C9 1_555 1_555
N3 C16 1_555 1_555
O6 C11 1_555 1_555
C8 C19 1_555 1_555
C12 C17 1_555 1_555
C13 C15 1_555 1_555
C18 C20 1_555 1_555
Tb1A_2 O3C 1_555 1_555

#END
