
#######################################################################
#
#                 Cambridge Crystallographic Data Centre
#                                CCDC 
#
#######################################################################
#
# If this CIF has been generated from an entry in the Cambridge 
# Structural Database, then it will include bibliographic, chemical, 
# crystal, experimental, refinement or atomic coordinate data resulting 
# from the CCDC's data processing and validation procedures.
#
#######################################################################

data_COQHUN
_chemical_formula_moiety         '(C75 H74 Cl3 Co1 Mn3 N12 O16 1-)n'
_symmetry_cell_setting           monoclinic
_symmetry_space_group_name_H-M   'P 21/m'
_symmetry_Int_Tables_number      11
_space_group_name_Hall           '-P 2yb'
loop_
_symmetry_equiv_pos_site_id
_symmetry_equiv_pos_as_xyz
1 x,y,z
2 -x,1/2+y,-z
3 -x,-y,-z
4 x,1/2-y,z
_cell_length_a                   12.3989(12)
_cell_length_b                   33.418(3)
_cell_length_c                   12.9445(16)
_cell_angle_alpha                90
_cell_angle_beta                 98.312(11)
_cell_angle_gamma                90
_cell_volume                     5307.17
loop_
_atom_site_label
_atom_site_type_symbol
_atom_site_fract_x
_atom_site_fract_y
_atom_site_fract_z
Cl1 Cl 0.1541(2) 0.2500 0.65145(16)
Cl2 Cl 0.6923(3) 0.2500 0.2248(3)
Cl3 Cl 0.2824(6) 0.2500 0.8745(6)
Mn1 Mn 0.29943(5) 0.43072(2) 0.89393(5)
Mn2 Mn 0.5000 0.5000 1.0000
Co1 Co -0.24526(8) 0.7500 0.80074(8)
N1 N 0.1133(3) 0.36790(11) 0.8045(3)
O1 O 0.3051(3) 0.42384(12) 0.0556(3)
O2 O -0.5549(3) 0.37835(10) 0.9130(3)
O3 O -0.5268(3) 0.44327(9) 0.9071(3)
O4 O 0.2299(3) 0.48671(10) 0.8510(3)
O5 O 0.3695(3) 0.52716(11) 0.9031(3)
N2 N 0.2997(3) 0.41176(11) 0.7245(3)
O6 O 0.3970(3) 0.47876(10) 0.1083(3)
N3 N 0.2392(3) 0.37956(11) 0.6848(3)
O7 O -0.1706(5) 0.7500 0.9524(4)
N4 N 0.1376(3) 0.40029(11) 0.8692(3)
N5 N -0.0693(3) 0.71468(12) 0.6811(3)
C1 C 0.3006(5) 0.42115(15) 0.4416(4)
N6 N -0.1313(4) 0.70622(12) 0.7585(3)
C2 C 0.0435(4) 0.41210(14) 0.8981(4)
C3 C -0.1579(4) 0.39061(14) 0.8642(4)
C4 C 0.3284(4) 0.43085(15) 0.6423(4)
C5 C 0.3460(4) 0.44780(14) 0.1234(4)
C6 C -0.0418(4) 0.38658(14) 0.8517(4)
C7 C 0.3311(4) 0.43887(14) 0.2350(4)
C8 C 0.2730(4) 0.52066(14) 0.8647(4)
C9 C -0.3746(4) 0.40069(14) 0.8941(4)
C10 C -0.3152(4) 0.43276(14) 0.8655(4)
H1 H -0.3484 0.4584 0.8558
C11 C -0.4912(4) 0.40727(13) 0.9071(4)
C12 C -0.0930(6) 0.7500 0.6202(6)
H2 H -0.1710 0.7500 0.5899
H3 H -0.0494 0.7500 0.5619
C13 C 0.2008(4) 0.35151(13) 0.7568(4)
H4 H 0.1757 0.3267 0.7188
H5 H 0.2619 0.3444 0.8117
C14 C 0.0144(4) 0.68759(15) 0.6809(4)
C15 C 0.0910(5) 0.55224(16) 0.7978(4)
H6 H 0.0596 0.5263 0.7911
C16 C -0.2085(4) 0.42787(15) 0.8510(4)
H7 H -0.1685 0.4502 0.8316
C17 C 0.2018(4) 0.55669(15) 0.8323(4)
C18 C 0.2853(4) 0.41089(14) 0.5495(3)
C19 C 0.0062(4) 0.35888(14) 0.7936(4)
C20 C 0.0025(5) 0.66044(15) 0.7572(5)
C21 C 0.0265(5) 0.58579(16) 0.7733(5)
H8 H -0.0494 0.5826 0.7504
C22 C 0.0712(4) 0.62405(15) 0.7816(5)
C23 C 0.0403(4) 0.44690(16) 0.9714(5)
H9 H 0.0265 0.4716 0.9310
H10 H 0.1104 0.4490 1.0171
H11 H -0.0181 0.4427 1.0139
C24 C -0.0869(4) 0.67214(15) 0.8056(4)
C25 C -0.3274(4) 0.36292(15) 0.9076(5)
H12 H -0.3688 0.3407 0.9250
C26 C -0.2177(4) 0.35824(16) 0.8950(5)
H13 H -0.1836 0.3329 0.9073
C27 C 0.2282(4) 0.37856(15) 0.5797(4)
C28 C 0.3306(5) 0.39924(17) 0.2689(4)
H14 H 0.3392 0.3782 0.2215
C29 C 0.3157(5) 0.46918(16) 0.3045(4)
H15 H 0.3161 0.4963 0.2823
O8 O -0.3563(4) 0.70524(13) 0.8358(4)
C30 C 0.2479(5) 0.59433(16) 0.8404(5)
H16 H 0.3239 0.5973 0.8626
C31 C 0.3179(5) 0.39032(17) 0.3702(4)
H17 H 0.3208 0.3632 0.3926
C32 C -0.1256(5) 0.65439(17) 0.8987(5)
H18 H -0.1902 0.6689 0.9138
H19 H -0.0679 0.6563 0.9588
H20 H -0.1442 0.6262 0.8851
C33 C 0.2998(5) 0.46043(17) 0.4064(4)
H21 H 0.2881 0.4816 0.4525
C34 C 0.1823(5) 0.62824(16) 0.8159(5)
H22 H 0.2140 0.6542 0.8227
C35 C 0.3970(6) 0.46797(18) 0.6557(4)
H23 H 0.4326 0.4699 0.7282
H24 H 0.3506 0.4915 0.6386
H25 H 0.4525 0.4668 0.6091
C36 C 0.0942(5) 0.69115(17) 0.6061(5)
H26 H 0.1454 0.7129 0.6283
H27 H 0.0555 0.6969 0.5363
H28 H 0.1344 0.6660 0.6046
O9 O -0.3442(5) 0.7500 0.6492(6)
C37 C -0.0432(5) 0.32536(19) 0.7266(6)
H29 H -0.0141 0.2998 0.7557
H30 H -0.0255 0.3285 0.6557
H31 H -0.1225 0.3257 0.7246
C38 C 0.1595(7) 0.3480(2) 0.5168(5)
H32 H 0.0860 0.3482 0.5363
H33 H 0.1920 0.3215 0.5305
H34 H 0.1554 0.3543 0.4424
O4C O 0.2299(3) 1.01329(10) 0.8510(3)
O5C O 0.3695(3) 0.97284(11) 0.9031(3)
N5C N -0.0693(3) 0.78532(12) 0.6811(3)
N6C N -0.1313(4) 0.79378(12) 0.7585(3)
C8C C 0.2730(4) 0.97934(14) 0.8647(4)
C14C C 0.0144(4) 0.81241(15) 0.6809(4)
C15C C 0.0910(5) 0.94776(16) 0.7978(4)
H6C H 0.0596 0.9737 0.7911
C17C C 0.2018(4) 0.94331(15) 0.8323(4)
C20C C 0.0025(5) 0.83956(15) 0.7572(5)
C21C C 0.0265(5) 0.91421(16) 0.7733(5)
H8C H -0.0494 0.9174 0.7504
C22C C 0.0712(4) 0.87595(15) 0.7816(5)
C24C C -0.0869(4) 0.82786(15) 0.8056(4)
C30C C 0.2479(5) 0.90567(16) 0.8404(5)
H16C H 0.3239 0.9027 0.8626
C32C C -0.1256(5) 0.84561(17) 0.8987(5)
H18C H -0.1902 0.8311 0.9138
H19C H -0.0679 0.8437 0.9588
H20C H -0.1442 0.8738 0.8851
C34C C 0.1823(5) 0.87176(16) 0.8159(5)
H22C H 0.2140 0.8458 0.8227
C36C C 0.0942(5) 0.80885(17) 0.6061(5)
H26C H 0.1454 0.7871 0.6283
H27C H 0.0555 0.8031 0.5363
H28C H 0.1344 0.8340 0.6046
Mn1B Mn -0.29943(5) 0.56928(2) 1.10607(5)
N1B N -0.1133(3) 0.63210(11) 1.1955(3)
O1B O -0.3051(3) 0.57616(12) 1.9444(3)
O2B O 0.5549(3) 0.62165(10) 1.0870(3)
O3B O 0.5268(3) 0.55673(9) 1.0929(3)
N2B N -0.2997(3) 0.58824(11) 1.2755(3)
O6B O -0.3970(3) 0.52124(10) 1.8917(3)
N3B N -0.2392(3) 0.62044(11) 1.3152(3)
N4B N -0.1376(3) 0.59971(11) 1.1308(3)
C1B C -0.3006(5) 0.57885(15) 1.5584(4)
C2B C -0.0435(4) 0.58790(14) 1.1019(4)
C3B C 0.1579(4) 0.60939(14) 1.1358(4)
C4B C -0.3284(4) 0.56915(15) 1.3577(4)
C5B C -0.3460(4) 0.55220(14) 1.8766(4)
C6B C 0.0418(4) 0.61342(14) 1.1483(4)
C7B C -0.3311(4) 0.56113(14) 1.7650(4)
C9B C 0.3746(4) 0.59931(14) 1.1059(4)
C10B C 0.3152(4) 0.56724(14) 1.1345(4)
H1B H 0.3484 0.5416 1.1442
C11B C 0.4912(4) 0.59273(13) 1.0929(4)
C13B C -0.2008(4) 0.64849(13) 1.2432(4)
H4B H -0.1757 0.6733 1.2812
H5B H -0.2619 0.6556 1.1883
C16B C 0.2085(4) 0.57213(15) 1.1490(4)
H7B H 0.1685 0.5498 1.1684
C18B C -0.2853(4) 0.58911(14) 1.4505(3)
C19B C -0.0062(4) 0.64112(14) 1.2064(4)
C23B C -0.0403(4) 0.55310(16) 1.0286(5)
H9B H -0.0265 0.5284 1.0690
H10B H -0.1104 0.5510 0.9829
H11B H 0.0181 0.5573 0.9861
C25B C 0.3274(4) 0.63708(15) 1.0924(5)
H12B H 0.3688 0.6593 1.0750
C26B C 0.2177(4) 0.64176(16) 1.1050(5)
H13B H 0.1836 0.6671 1.0927
C27B C -0.2282(4) 0.62144(15) 1.4203(4)
C28B C -0.3306(5) 0.60076(17) 1.7311(4)
H14B H -0.3392 0.6218 1.7785
C29B C -0.3157(5) 0.53082(16) 1.6955(4)
H15B H -0.3161 0.5037 1.7177
C31B C -0.3179(5) 0.60968(17) 1.6298(4)
H17B H -0.3208 0.6368 1.6074
C33B C -0.2998(5) 0.53957(17) 1.5936(4)
H21B H -0.2881 0.5184 1.5475
C35B C -0.3970(6) 0.53203(18) 1.3443(4)
H23B H -0.4326 0.5301 1.2718
H24B H -0.3506 0.5085 1.3614
H25B H -0.4525 0.5332 1.3909
C37B C 0.0432(5) 0.67464(19) 1.2734(6)
H29B H 0.0141 0.7002 1.2443
H30B H 0.0255 0.6715 1.3443
H31B H 0.1225 0.6743 1.2754
C38B C -0.1595(7) 0.6520(2) 1.4832(5)
H32B H -0.0860 0.6518 1.4637
H33B H -0.1920 0.6785 1.4695
H34B H -0.1554 0.6457 1.5576
O8C O -0.3563(4) 0.79476(13) 0.8358(4)
Mn1_2 Mn -0.70057(5) 0.43072(2) 0.89393(5)
Mn1_3 Mn 0.29943(5) 0.43072(2) -0.10607(5)
Mn1B_2 Mn -0.29943(5) 0.56928(2) 2.10607(5)
Mn1B_3 Mn 0.70057(5) 0.56928(2) 1.10607(5)
Mn1C Mn 0.29943(5) 1.06928(2) 0.89393(5)
Mn2_2 Mn -0.5000 0.5000 1.0000
Mn2_3 Mn -0.5000 0.5000 2.0000
Mn2_4 Mn 0.5000 0.5000 0.0000
Mn2A Mn 0.5000 1.0000 1.0000
O1_2 O 0.3051(3) 0.42384(12) 1.0556(3)
O1B_2 O -0.3051(3) 0.57616(12) 0.9444(3)
O3_2 O 0.4732(3) 0.44327(9) 0.9071(3)
O3B_2 O -0.4732(3) 0.55673(9) 1.0929(3)
O4B O -0.2299(3) 0.51329(10) 1.1490(3)
O5B O 0.6305(3) 0.47284(11) 1.0969(3)
O6_2 O 0.3970(3) 0.47876(10) 1.1083(3)
O6B_2 O 0.6030(3) 0.52124(10) 0.8917(3)
loop_
_geom_bond_atom_site_label_1
_geom_bond_atom_site_label_2
_geom_bond_site_symmetry_1
_geom_bond_site_symmetry_2
Mn1 O4 1_555 1_555
Mn2 O5 1_555 1_555
Co1 O7 1_555 1_555
N1 N4 1_555 1_555
O1 C5 1_555 1_555
O2 C11 1_555 1_555
O3 C11 1_555 1_555
O4 C8 1_555 1_555
O5 C8 1_555 1_555
N2 Mn1 1_555 1_555
O6 C5 1_555 1_555
N3 N2 1_555 1_555
N4 Mn1 1_555 1_555
N5 N6 1_555 1_555
C1 C18 1_555 1_555
N6 Co1 1_555 1_555
C2 N4 1_555 1_555
C3 C6 1_555 1_555
C4 N2 1_555 1_555
C5 C7 1_555 1_555
C6 C2 1_555 1_555
C7 C28 1_555 1_555
C8 C17 1_555 1_555
C9 C10 1_555 1_555
C10 H1 1_555 1_555
C11 C9 1_555 1_555
C12 N5 1_555 1_555
H2 C12 1_555 1_555
H3 C12 1_555 1_555
C13 N1 1_555 1_555
H4 C13 1_555 1_555
H5 C13 1_555 1_555
C14 N5 1_555 1_555
C15 H6 1_555 1_555
C16 C3 1_555 1_555
H7 C16 1_555 1_555
C17 C15 1_555 1_555
C18 C4 1_555 1_555
C19 N1 1_555 1_555
C20 C14 1_555 1_555
C21 C15 1_555 1_555
H8 C21 1_555 1_555
C22 C20 1_555 1_555
C23 C2 1_555 1_555
H9 C23 1_555 1_555
H10 C23 1_555 1_555
H11 C23 1_555 1_555
C24 N6 1_555 1_555
C25 C9 1_555 1_555
H12 C25 1_555 1_555
C26 C3 1_555 1_555
H13 C26 1_555 1_555
C27 N3 1_555 1_555
C28 H14 1_555 1_555
C29 C7 1_555 1_555
H15 C29 1_555 1_555
O8 Co1 1_555 1_555
C30 C17 1_555 1_555
H16 C30 1_555 1_555
C31 C1 1_555 1_555
H17 C31 1_555 1_555
C32 C24 1_555 1_555
H18 C32 1_555 1_555
H19 C32 1_555 1_555
H20 C32 1_555 1_555
C33 C1 1_555 1_555
H21 C33 1_555 1_555
C34 C22 1_555 1_555
H22 C34 1_555 1_555
C35 C4 1_555 1_555
H23 C35 1_555 1_555
H24 C35 1_555 1_555
H25 C35 1_555 1_555
C36 C14 1_555 1_555
H26 C36 1_555 1_555
H27 C36 1_555 1_555
H28 C36 1_555 1_555
O9 Co1 1_555 1_555
C37 C19 1_555 1_555
H29 C37 1_555 1_555
H30 C37 1_555 1_555
H31 C37 1_555 1_555
C38 C27 1_555 1_555
H32 C38 1_555 1_555
H33 C38 1_555 1_555
H34 C38 1_555 1_555
O4C C8C 1_555 1_555
O5C C8C 1_555 1_555
N5C C12 1_555 1_555
N6C Co1 1_555 1_555
C8C C17C 1_555 1_555
C14C N5C 1_555 1_555
C15C H6C 1_555 1_555
C17C C15C 1_555 1_555
C20C C14C 1_555 1_555
C21C C15C 1_555 1_555
H8C C21C 1_555 1_555
C22C C20C 1_555 1_555
C24C N6C 1_555 1_555
C30C C17C 1_555 1_555
H16C C30C 1_555 1_555
C32C C24C 1_555 1_555
H18C C32C 1_555 1_555
H19C C32C 1_555 1_555
H20C C32C 1_555 1_555
C34C C22C 1_555 1_555
H22C C34C 1_555 1_555
C36C C14C 1_555 1_555
H26C C36C 1_555 1_555
H27C C36C 1_555 1_555
H28C C36C 1_555 1_555
Mn1B N2B 1_555 1_555
N1B N4B 1_555 1_555
O1B C5B 1_555 1_555
O2B C11B 1_555 1_555
O3B Mn2 1_555 1_555
N2B N3B 1_555 1_555
O6B C5B 1_555 1_555
N3B C13B 1_555 1_555
N4B Mn1B 1_555 1_555
C1B C18B 1_555 1_555
C2B N4B 1_555 1_555
C3B C6B 1_555 1_555
C4B N2B 1_555 1_555
C5B C7B 1_555 1_555
C6B C2B 1_555 1_555
C7B C28B 1_555 1_555
C9B C10B 1_555 1_555
C10B H1B 1_555 1_555
C11B O3B 1_555 1_555
C13B N1B 1_555 1_555
H4B C13B 1_555 1_555
H5B C13B 1_555 1_555
C16B C3B 1_555 1_555
H7B C16B 1_555 1_555
C18B C4B 1_555 1_555
C19B N1B 1_555 1_555
C23B C2B 1_555 1_555
H9B C23B 1_555 1_555
H10B C23B 1_555 1_555
H11B C23B 1_555 1_555
C25B C9B 1_555 1_555
H12B C25B 1_555 1_555
C26B C3B 1_555 1_555
H13B C26B 1_555 1_555
C27B N3B 1_555 1_555
C28B H14B 1_555 1_555
C29B C7B 1_555 1_555
H15B C29B 1_555 1_555
C31B C1B 1_555 1_555
H17B C31B 1_555 1_555
C33B C1B 1_555 1_555
H21B C33B 1_555 1_555
C35B C4B 1_555 1_555
H23B C35B 1_555 1_555
H24B C35B 1_555 1_555
H25B C35B 1_555 1_555
C37B C19B 1_555 1_555
H29B C37B 1_555 1_555
H30B C37B 1_555 1_555
H31B C37B 1_555 1_555
C38B C27B 1_555 1_555
H32B C38B 1_555 1_555
H33B C38B 1_555 1_555
H34B C38B 1_555 1_555
O8C Co1 1_555 1_555
Mn1_2 O3 1_555 1_555
Mn1_3 O1 1_555 1_555
Mn1B_2 O1B 1_555 1_555
Mn1B_3 O3B 1_555 1_555
Mn1C O4C 1_555 1_555
Mn2_2 O3 1_555 1_555
Mn2_3 O6B 1_555 1_555
Mn2_4 O6 1_555 1_555
Mn2A O5C 1_555 1_555
O1_2 Mn1 1_555 1_555
O1B_2 Mn1B 1_555 1_555
O3_2 Mn1 1_555 1_555
O3B_2 Mn1B 1_555 1_555
O4B Mn1B 1_555 1_555
O5B Mn2 1_555 1_555
O6_2 Mn2 1_555 1_555
O6B_2 Mn2 1_555 1_555
Mn2 O3_2 1_555 1_555
N3 C13 1_555 1_555
C6 C19 1_555 1_555
C10 C16 1_555 1_555
C18 C27 1_555 1_555
C20 C24 1_555 1_555
C21 C22 1_555 1_555
C25 C26 1_555 1_555
C28 C31 1_555 1_555
C29 C33 1_555 1_555
C30 C34 1_555 1_555
N5C N6C 1_555 1_555
C20C C24C 1_555 1_555
C21C C22C 1_555 1_555
C30C C34C 1_555 1_555
C6B C19B 1_555 1_555
C9B C11B 1_555 1_555
C10B C16B 1_555 1_555
C18B C27B 1_555 1_555
C25B C26B 1_555 1_555
C28B C31B 1_555 1_555
C29B C33B 1_555 1_555
Mn2_2 O3B_2 1_555 1_555

#END
