
#######################################################################
#
#                 Cambridge Crystallographic Data Centre
#                                CCDC 
#
#######################################################################
#
# If this CIF has been generated from an entry in the Cambridge 
# Structural Database, then it will include bibliographic, chemical, 
# crystal, experimental, refinement or atomic coordinate data resulting 
# from the CCDC's data processing and validation procedures.
#
#######################################################################

data_COQJOJ
_chemical_formula_moiety         '(C75 H74 Mn3 N12 O16 Rh1 3+)n'
_symmetry_cell_setting           monoclinic
_symmetry_space_group_name_H-M   'P 21/m'
_symmetry_Int_Tables_number      11
_space_group_name_Hall           '-P 2yb'
loop_
_symmetry_equiv_pos_site_id
_symmetry_equiv_pos_as_xyz
1 x,y,z
2 -x,1/2+y,-z
3 -x,-y,-z
4 x,1/2-y,z
_cell_length_a                   12.359(3)
_cell_length_b                   33.229(7)
_cell_length_c                   12.887(3)
_cell_angle_alpha                90
_cell_angle_beta                 96.42(3)
_cell_angle_gamma                90
_cell_volume                     5259.21
loop_
_atom_site_label
_atom_site_type_symbol
_atom_site_fract_x
_atom_site_fract_y
_atom_site_fract_z
Mn1 Mn 0.20042(4) 0.069836(14) 0.60195(3)
C1 C 0.4005(5) -0.05168(14) 0.7112(4)
H1 H 0.4300 -0.0255 0.7236
Mn2 Mn 0.0000 -0.0000 0.5000
C2 C 0.4633(5) -0.08447(14) 0.7409(5)
H2 H 0.5339 -0.0804 0.7769
C3 C 0.3220(5) -0.12655(15) 0.6777(6)
H3 H 0.2923 -0.1527 0.6654
C4 C 0.2571(5) -0.09397(15) 0.6521(6)
H4 H 0.1832 -0.0979 0.6251
C5 C 0.4975(4) -0.15925(13) 0.7459(4)
C6 C 0.4828(4) -0.18616(12) 0.8245(4)
N1 N 0.5640(4) -0.21397(10) 0.8196(4)
C7 C 0.5833(4) -0.17377(13) 0.6945(5)
C8 C 0.4276(4) -0.12312(13) 0.7203(4)
N2 N 0.3593(2) 0.10107(9) 0.6222(2)
N3 N 0.1972(3) 0.08994(8) 0.7699(2)
N4 N 0.3798(2) 0.13386(8) 0.6845(2)
C9 C 0.4882(3) 0.14256(11) 0.6994(3)
C10 C 0.5388(3) 0.11403(11) 0.6441(3)
C11 C 0.4562(3) 0.08859(11) 0.5986(3)
C12 C 0.4640(4) 0.05317(14) 0.5292(4)
H5 H 0.4521 0.0285 0.5678
H6 H 0.5365 0.0524 0.5052
H7 H 0.4086 0.0553 0.4688
C13 C 0.5337(4) 0.17727(15) 0.7632(4)
H8 H 0.5281 0.2017 0.7205
H9 H 0.6103 0.1721 0.7878
H10 H 0.4925 0.1808 0.8233
C14 C 0.6562(3) 0.10976(13) 0.6343(4)
C15 C 0.7065(3) 0.07232(12) 0.6517(4)
H11 H 0.6656 0.0502 0.6733
C16 C 0.7185(3) 0.14236(14) 0.6071(5)
H12 H 0.6863 0.1682 0.5969
C17 C 0.2889(3) 0.15139(9) 0.7310(3)
H13 H 0.3123 0.1769 0.7662
H14 H 0.2291 0.1575 0.6756
N5 N 0.2502(2) 0.12417(8) 0.8058(2)
C18 C 0.2569(4) 0.12662(12) 0.9114(3)
C19 C 0.2049(3) 0.09291(11) 0.9446(3)
C20 C 0.1686(3) 0.07121(11) 0.8533(3)
C21 C 0.1072(4) 0.03247(13) 0.8430(3)
H15 H 0.0726 0.0295 0.7712
H16 H 0.0512 0.0324 0.8912
H17 H 0.1575 0.0100 0.8599
C22 C 0.3129(6) 0.16039(17) 0.9707(4)
H18 H 0.3863 0.1636 0.9499
H19 H 0.3178 0.1546 1.0456
H20 H 0.2715 0.1853 0.9557
O1 O 1.02694(18) 0.05648(7) 0.59437(19)
O2 O 1.0547(2) 0.12174(9) 0.5824(3)
C23 C 0.9920(3) 0.09279(12) 0.5928(3)
C24 C 0.8748(3) 0.09910(13) 0.6077(4)
C25 C 0.8143(3) 0.06699(12) 0.6380(4)
H21 H 0.8472 0.0413 0.6493
C26 C 0.8272(3) 0.13689(13) 0.5950(4)
H22 H 0.8699 0.1592 0.5778
C27 C 0.2974(3) -0.05555(12) 0.6647(3)
C28 C 0.2285(3) -0.02004(11) 0.6309(3)
O3 O 0.2683(2) 0.01414(8) 0.6451(2)
C29 C 0.1903(4) 0.08259(12) 1.0534(3)
O4 O 0.1322(3) -0.02710(9) 0.5900(3)
N6 N 0.6238(4) -0.20685(11) 0.7399(4)
C30 C 0.6258(6) -0.15610(17) 0.6017(6)
H23 H 0.6973 -0.1677 0.5938
H24 H 0.6327 -0.1269 0.6105
H25 H 0.5754 -0.1620 0.5393
C31 C 0.4037(5) -0.18705(16) 0.8982(5)
H26 H 0.3489 -0.2077 0.8773
H27 H 0.3682 -0.1607 0.8996
H28 H 0.4400 -0.1933 0.9678
Rh1 Rh 0.72975(5) -0.2500 0.70573(7)
O5 O 0.2013(3) 0.07439(11) 1.4401(2)
O6 O 0.0975(3) 0.02333(10) 1.3875(2)
C32 C 0.1656(3) 0.06284(11) 1.2605(3)
C33 C 0.1517(3) 0.05257(11) 1.3714(3)
O7 O 0.6488(6) -0.2500 0.5387(7)
C34 C 0.5818(8) -0.2500 0.8853(7)
H29 H 0.6571 -0.2500 0.9209
H30 H 0.5309 -0.2500 0.9393
O8 O 0.8457(5) -0.20708(15) 0.6781(7)
C35 C 0.2044(6) 0.04196(18) 1.0915(5)
H31 H 0.2245 0.0215 1.0459
C36 C 0.1775(6) 0.11132(19) 1.1274(5)
H32 H 0.1756 0.1388 1.1070
C37 C 0.1893(5) 0.03215(17) 1.1942(4)
H33 H 0.1950 0.0051 1.2179
C38 C 0.1671(6) 0.10201(19) 1.2308(4)
H34 H 0.1611 0.1228 1.2803
O9 O 0.8212(7) -0.2500 0.8518(11)
C1C C 0.4005(5) -0.44832(14) 0.7112(4)
H1C H 0.4300 -0.4745 0.7236
C2C C 0.4633(5) -0.41553(14) 0.7409(5)
H2C H 0.5339 -0.4196 0.7769
C3C C 0.3220(5) -0.37345(15) 0.6777(6)
H3C H 0.2923 -0.3473 0.6654
C4C C 0.2571(5) -0.40603(15) 0.6521(6)
H4C H 0.1832 -0.4021 0.6251
C5C C 0.4975(4) -0.34075(13) 0.7459(4)
C6C C 0.4828(4) -0.31384(12) 0.8245(4)
N1C N 0.5640(4) -0.28603(10) 0.8196(4)
C7C C 0.5833(4) -0.32623(13) 0.6945(5)
C8C C 0.4276(4) -0.37688(13) 0.7203(4)
C27C C 0.2974(3) -0.44445(12) 0.6647(3)
C28C C 0.2285(3) -0.47996(11) 0.6309(3)
O3C O 0.2683(2) -0.51414(8) 0.6451(2)
O4C O 0.1322(3) -0.47290(9) 0.5900(3)
N6C N 0.6238(4) -0.29315(11) 0.7399(4)
C30C C 0.6258(6) -0.34390(17) 0.6017(6)
H23C H 0.6973 -0.3323 0.5938
H24C H 0.6327 -0.3731 0.6105
H25C H 0.5754 -0.3380 0.5393
C31C C 0.4037(5) -0.31295(16) 0.8982(5)
H26C H 0.3489 -0.2923 0.8773
H27C H 0.3682 -0.3393 0.8996
H28C H 0.4400 -0.3067 0.9678
Mn1_2 Mn -0.79958(4) 0.069836(14) 0.60195(3)
N2_2 N -0.6407(2) 0.10107(9) 0.6222(2)
N3_2 N -0.8028(3) 0.08994(8) 0.7699(2)
N4_2 N -0.6202(2) 0.13386(8) 0.6845(2)
C9_2 C -0.5118(3) 0.14256(11) 0.6994(3)
C10_2 C -0.4612(3) 0.11403(11) 0.6441(3)
C11_2 C -0.5438(3) 0.08859(11) 0.5986(3)
C12_2 C -0.5360(4) 0.05317(14) 0.5292(4)
H5_2 H -0.5479 0.0285 0.5678
H6_2 H -0.4635 0.0524 0.5052
H7_2 H -0.5914 0.0553 0.4688
C13_2 C -0.4663(4) 0.17727(15) 0.7632(4)
H8_2 H -0.4719 0.2017 0.7205
H9_2 H -0.3897 0.1721 0.7878
H10_2 H -0.5075 0.1808 0.8233
C14_2 C -0.3438(3) 0.10976(13) 0.6343(4)
C15_2 C -0.2935(3) 0.07232(12) 0.6517(4)
H11_2 H -0.3344 0.0502 0.6733
C16_2 C -0.2815(3) 0.14236(14) 0.6071(5)
H12_2 H -0.3137 0.1682 0.5969
C17_2 C -0.7111(3) 0.15139(9) 0.7310(3)
H13_2 H -0.6877 0.1769 0.7662
H14_2 H -0.7709 0.1575 0.6756
N5_2 N -0.7498(2) 0.12417(8) 0.8058(2)
C18_2 C -0.7431(4) 0.12662(12) 0.9114(3)
C19_2 C -0.7951(3) 0.09291(11) 0.9446(3)
C20_2 C -0.8314(3) 0.07121(11) 0.8533(3)
C21_2 C -0.8928(4) 0.03247(13) 0.8430(3)
H15_2 H -0.9274 0.0295 0.7712
H16_2 H -0.9488 0.0324 0.8912
H17_2 H -0.8425 0.0100 0.8599
C22_2 C -0.6871(6) 0.16039(17) 0.9707(4)
H18_2 H -0.6137 0.1636 0.9499
H19_2 H -0.6822 0.1546 1.0456
H20_2 H -0.7285 0.1853 0.9557
O1_2 O 0.02694(18) 0.05648(7) 0.59437(19)
O2_2 O 0.0547(2) 0.12174(9) 0.5824(3)
C23_2 C -0.0080(3) 0.09279(12) 0.5928(3)
C24_2 C -0.1252(3) 0.09910(13) 0.6077(4)
C25_2 C -0.1857(3) 0.06699(12) 0.6380(4)
H21_2 H -0.1528 0.0413 0.6493
C26_2 C -0.1728(3) 0.13689(13) 0.5950(4)
H22_2 H -0.1301 0.1592 0.5778
C29_2 C -0.8097(4) 0.08259(12) 1.0534(3)
O5_2 O -0.7987(3) 0.07439(11) 1.4401(2)
O6_2 O -0.9025(3) 0.02333(10) 1.3875(2)
C32_2 C -0.8344(3) 0.06284(11) 1.2605(3)
C33_2 C -0.8483(3) 0.05257(11) 1.3714(3)
C35_2 C -0.7956(6) 0.04196(18) 1.0915(5)
H31_2 H -0.7755 0.0215 1.0459
C36_2 C -0.8225(6) 0.11132(19) 1.1274(5)
H32_2 H -0.8244 0.1388 1.1070
C37_2 C -0.8107(5) 0.03215(17) 1.1942(4)
H33_2 H -0.8050 0.0051 1.2179
C38_2 C -0.8329(6) 0.10201(19) 1.2308(4)
H34_2 H -0.8389 0.1228 1.2803
O8C O 0.8457(5) -0.29292(15) 0.6781(7)
Mn1_3 Mn -0.79958(4) 0.069836(14) 1.60195(3)
Mn1_4 Mn 0.20042(4) 0.069836(14) 1.60195(3)
Mn1_5 Mn 1.20042(4) 0.069836(14) 0.60195(3)
Mn1C Mn 0.20042(4) -0.569836(14) 0.60195(3)
Mn2_2 Mn -1.0000 0.0000 1.5000
Mn2_3 Mn 0.0000 0.0000 1.5000
Mn2_4 Mn 1.0000 -0.0000 0.5000
Mn2A Mn 0.0000 -0.5000 0.5000
O1_3 O -0.97306(18) 0.05648(7) 0.59437(19)
O1B O -0.02694(18) -0.05648(7) 0.40563(19)
O3_2 O -0.7317(2) 0.01414(8) 0.6451(2)
O4B O -0.1322(3) 0.02710(9) 0.4100(3)
O5_3 O -0.7987(3) 0.07439(11) 0.4401(2)
O5_4 O 0.2013(3) 0.07439(11) 0.4401(2)
O6_3 O 0.0975(3) 0.02333(10) 0.3875(2)
O6B O -0.0975(3) -0.02333(10) 0.6125(2)
loop_
_geom_bond_atom_site_label_1
_geom_bond_atom_site_label_2
_geom_bond_site_symmetry_1
_geom_bond_site_symmetry_2
Mn1 N2 1_555 1_555
C1 H1 1_555 1_555
Mn2 O4 1_555 1_555
C2 C1 1_555 1_555
H2 C2 1_555 1_555
C3 H3 1_555 1_555
C4 C3 1_555 1_555
H4 C4 1_555 1_555
C5 C6 1_555 1_555
C6 N1 1_555 1_555
N1 N6 1_555 1_555
C7 C5 1_555 1_555
C8 C2 1_555 1_555
N2 N4 1_555 1_555
N3 Mn1 1_555 1_555
N4 C9 1_555 1_555
C9 C10 1_555 1_555
C10 C11 1_555 1_555
C11 N2 1_555 1_555
C12 C11 1_555 1_555
H5 C12 1_555 1_555
H6 C12 1_555 1_555
H7 C12 1_555 1_555
C13 C9 1_555 1_555
H8 C13 1_555 1_555
H9 C13 1_555 1_555
H10 C13 1_555 1_555
C14 C10 1_555 1_555
C15 C14 1_555 1_555
H11 C15 1_555 1_555
C16 C14 1_555 1_555
H12 C16 1_555 1_555
C17 N4 1_555 1_555
H13 C17 1_555 1_555
H14 C17 1_555 1_555
N5 N3 1_555 1_555
C18 N5 1_555 1_555
C19 C18 1_555 1_555
C20 N3 1_555 1_555
C21 C20 1_555 1_555
H15 C21 1_555 1_555
H16 C21 1_555 1_555
H17 C21 1_555 1_555
C22 C18 1_555 1_555
H18 C22 1_555 1_555
H19 C22 1_555 1_555
H20 C22 1_555 1_555
O1 C23 1_555 1_555
O2 C23 1_555 1_555
C23 C24 1_555 1_555
C24 C25 1_555 1_555
C25 C15 1_555 1_555
H21 C25 1_555 1_555
C26 C16 1_555 1_555
H22 C26 1_555 1_555
C27 C1 1_555 1_555
C28 C27 1_555 1_555
O3 Mn1 1_555 1_555
C29 C19 1_555 1_555
O4 C28 1_555 1_555
N6 C7 1_555 1_555
C30 C7 1_555 1_555
H23 C30 1_555 1_555
H24 C30 1_555 1_555
H25 C30 1_555 1_555
C31 C6 1_555 1_555
H26 C31 1_555 1_555
H27 C31 1_555 1_555
H28 C31 1_555 1_555
Rh1 N6 1_555 1_555
O5 C33 1_555 1_555
O6 C33 1_555 1_555
C32 C33 1_555 1_555
O7 Rh1 1_555 1_555
C34 N1 1_555 1_555
H29 C34 1_555 1_555
H30 C34 1_555 1_555
O8 Rh1 1_555 1_555
C35 C29 1_555 1_555
H31 C35 1_555 1_555
C36 C29 1_555 1_555
H32 C36 1_555 1_555
C37 C32 1_555 1_555
H33 C37 1_555 1_555
C38 C32 1_555 1_555
H34 C38 1_555 1_555
O9 Rh1 1_555 1_555
C1C H1C 1_555 1_555
C2C C1C 1_555 1_555
H2C C2C 1_555 1_555
C3C H3C 1_555 1_555
C4C C3C 1_555 1_555
H4C C4C 1_555 1_555
C5C C6C 1_555 1_555
C6C N1C 1_555 1_555
N1C C34 1_555 1_555
C7C C5C 1_555 1_555
C8C C2C 1_555 1_555
C27C C1C 1_555 1_555
C28C C27C 1_555 1_555
O3C C28C 1_555 1_555
O4C C28C 1_555 1_555
N6C Rh1 1_555 1_555
C30C C7C 1_555 1_555
H23C C30C 1_555 1_555
H24C C30C 1_555 1_555
H25C C30C 1_555 1_555
C31C C6C 1_555 1_555
H26C C31C 1_555 1_555
H27C C31C 1_555 1_555
H28C C31C 1_555 1_555
Mn1_2 N2_2 1_555 1_555
N2_2 N4_2 1_555 1_555
N3_2 Mn1_2 1_555 1_555
N4_2 C9_2 1_555 1_555
C9_2 C10_2 1_555 1_555
C10_2 C11_2 1_555 1_555
C11_2 N2_2 1_555 1_555
C12_2 C11_2 1_555 1_555
H5_2 C12_2 1_555 1_555
H6_2 C12_2 1_555 1_555
H7_2 C12_2 1_555 1_555
C13_2 C9_2 1_555 1_555
H8_2 C13_2 1_555 1_555
H9_2 C13_2 1_555 1_555
H10_2 C13_2 1_555 1_555
C14_2 C10_2 1_555 1_555
C15_2 C14_2 1_555 1_555
H11_2 C15_2 1_555 1_555
C16_2 C14_2 1_555 1_555
H12_2 C16_2 1_555 1_555
C17_2 N4_2 1_555 1_555
H13_2 C17_2 1_555 1_555
H14_2 C17_2 1_555 1_555
N5_2 N3_2 1_555 1_555
C18_2 N5_2 1_555 1_555
C19_2 C18_2 1_555 1_555
C20_2 N3_2 1_555 1_555
C21_2 C20_2 1_555 1_555
H15_2 C21_2 1_555 1_555
H16_2 C21_2 1_555 1_555
H17_2 C21_2 1_555 1_555
C22_2 C18_2 1_555 1_555
H18_2 C22_2 1_555 1_555
H19_2 C22_2 1_555 1_555
H20_2 C22_2 1_555 1_555
O1_2 Mn1 1_555 1_555
O2_2 C23_2 1_555 1_555
C23_2 O1_2 1_555 1_555
C24_2 C23_2 1_555 1_555
C25_2 C15_2 1_555 1_555
H21_2 C25_2 1_555 1_555
C26_2 C16_2 1_555 1_555
H22_2 C26_2 1_555 1_555
C29_2 C19_2 1_555 1_555
O5_2 C33_2 1_555 1_555
O6_2 C33_2 1_555 1_555
C32_2 C33_2 1_555 1_555
C35_2 C29_2 1_555 1_555
H31_2 C35_2 1_555 1_555
C36_2 C29_2 1_555 1_555
H32_2 C36_2 1_555 1_555
C37_2 C32_2 1_555 1_555
H33_2 C37_2 1_555 1_555
C38_2 C32_2 1_555 1_555
H34_2 C38_2 1_555 1_555
O8C Rh1 1_555 1_555
Mn1_3 O5_2 1_555 1_555
Mn1_4 O5 1_555 1_555
Mn1_5 O1 1_555 1_555
Mn1C O3C 1_555 1_555
Mn2_2 O6_2 1_555 1_555
Mn2_3 O6 1_555 1_555
Mn2_4 O1 1_555 1_555
Mn2A O4C 1_555 1_555
O1_3 Mn1_2 1_555 1_555
O1B Mn2 1_555 1_555
O3_2 Mn1_2 1_555 1_555
O4B Mn2 1_555 1_555
O5_3 Mn1_2 1_555 1_555
O5_4 Mn1 1_555 1_555
O6_3 Mn2 1_555 1_555
O6B Mn2 1_555 1_555
Mn2 O1_2 1_555 1_555
C3 C8 1_555 1_555
C4 C27 1_555 1_555
C5 C8 1_555 1_555
C17 N5 1_555 1_555
C19 C20 1_555 1_555
C24 C26 1_555 1_555
C28 O3 1_555 1_555
C35 C37 1_555 1_555
C36 C38 1_555 1_555
C3C C8C 1_555 1_555
C4C C27C 1_555 1_555
C5C C8C 1_555 1_555
N1C N6C 1_555 1_555
C7C N6C 1_555 1_555
C17_2 N5_2 1_555 1_555
C19_2 C20_2 1_555 1_555
C24_2 C25_2 1_555 1_555
C24_2 C26_2 1_555 1_555
C35_2 C37_2 1_555 1_555
C36_2 C38_2 1_555 1_555

#END
