
#######################################################################
#
#                 Cambridge Crystallographic Data Centre
#                                CCDC 
#
#######################################################################
#
# If this CIF has been generated from an entry in the Cambridge 
# Structural Database, then it will include bibliographic, chemical, 
# crystal, experimental, refinement or atomic coordinate data resulting 
# from the CCDC's data processing and validation procedures.
#
#######################################################################

data_COQKAW
_chemical_formula_moiety         '(C150 H132 Cl4 Co2 Mn6 N24 O24)n'
_symmetry_cell_setting           monoclinic
_symmetry_space_group_name_H-M   'P 21/c'
_symmetry_Int_Tables_number      14
_space_group_name_Hall           '-P 2ybc'
loop_
_symmetry_equiv_pos_site_id
_symmetry_equiv_pos_as_xyz
1 x,y,z
2 -x,1/2+y,1/2-z
3 -x,-y,-z
4 x,1/2-y,1/2+z
_cell_length_a                   12.236(2)
_cell_length_b                   33.628(7)
_cell_length_c                   51.707(10)
_cell_angle_alpha                90
_cell_angle_beta                 94.19(3)
_cell_angle_gamma                90
_cell_volume                     21219.1
loop_
_atom_site_label
_atom_site_type_symbol
_atom_site_fract_x
_atom_site_fract_y
_atom_site_fract_z
Mn1 Mn 0.02157(5) 0.50888(2) 0.37646(2)
Mn2 Mn 0.22762(5) 0.56730(2) 0.14767(2)
Mn3 Mn 0.02224(5) 0.49648(2) 0.12571(2)
Mn4 Mn 0.24669(5) 0.56924(2) 0.39934(2)
Mn5 Mn -0.18167(5) 0.44080(2) 0.35182(2)
Mn6 Mn -0.17706(5) 0.42451(2) 0.10287(2)
Co1 Co -0.46760(6) 0.74258(2) -0.00167(2)
Co2 Co -0.47379(7) 0.75450(2) 0.23826(2)
Cl1 Cl -0.61869(10) 0.75577(3) -0.02715(3)
Cl2 Cl -0.62498(11) 0.74971(4) 0.21155(3)
Cl3 Cl -0.30802(13) 0.73690(5) -0.01984(4)
Cl4 Cl -0.31284(15) 0.76154(6) 0.22104(4)
O1 O -1.0032(3) 0.44112(9) 0.10224(6)
O2 O 0.2515(3) 0.57122(10) 0.35856(6)
O3 O 1.0713(2) 0.56255(9) 0.39970(5)
N1 N -0.1770(3) 0.40661(12) 0.06014(7)
O4 O -0.2312(3) 0.43263(11) -0.10717(6)
O5 O -1.0098(2) 0.45430(9) 0.35317(6)
O6 O -0.1064(3) 0.47900(11) -0.09518(6)
O7 O 1.0545(2) 0.55246(9) 0.14880(5)
N2 N 0.3972(3) 0.63404(10) 0.16699(6)
N3 N 0.3792(3) 0.60240(10) 0.15062(7)
O8 O 0.0580(3) 0.51745(10) 0.59282(6)
O9 O -0.3200(3) 1.01293(9) 0.09304(6)
O10 O -0.1775(3) 0.42347(12) 0.14345(6)
O11 O -1.0347(3) 0.37681(10) 0.10580(7)
O12 O 1.0863(3) 0.61661(10) 0.14424(6)
O13 O 0.1072(3) 0.53288(11) 0.34639(6)
N4 N 0.2690(3) 0.62108(11) 0.19883(7)
O14 O 1.1061(2) 0.62694(10) 0.39764(6)
N5 N -0.2192(3) 0.38020(11) 0.30429(7)
N6 N -0.2210(3) 0.37155(11) 0.05149(7)
O15 O -0.1199(3) 0.53612(10) 0.35862(7)
N7 N 0.2261(3) 0.58611(11) 0.19050(7)
O16 O -0.1204(3) 0.52082(11) 0.10648(8)
O17 O -0.0657(3) 0.47283(11) 0.15599(7)
N8 N 0.4152(3) 0.63485(9) 0.42275(6)
O18 O -0.2525(3) 0.47804(10) 0.09250(7)
N9 N 0.3991(3) 0.60495(10) 0.40458(7)
N10 N -0.3476(3) 0.35842(10) 0.08371(7)
O19 O -1.0393(3) 0.39101(11) 0.36225(7)
O20 O 0.2039(3) 0.55084(12) 0.60846(6)
O21 O -0.1650(3) 0.97226(11) 0.35496(7)
N11 N -0.3391(3) 0.40919(11) 0.34722(7)
O22 O -0.3023(3) 1.01319(10) 0.34161(6)
C1 C 0.3040(4) 0.64924(12) 0.17958(8)
H1 H 0.2427 0.6542 0.1664
H2 H 0.3238 0.6748 0.1882
N12 N -0.1652(3) 0.41458(12) 0.31144(7)
O23 O -0.1623(3) 0.98304(11) 0.10498(7)
O24 O -0.2351(3) 0.49517(10) 0.33643(6)
N13 N 0.2401(3) 0.58293(11) 0.44294(7)
N14 N 0.2901(3) 0.61551(11) 0.45395(6)
N15 N -0.3289(3) 0.38908(12) 0.10052(8)
C2 C 0.5788(4) 0.62022(13) 0.41091(9)
N16 N -0.3528(3) 0.37283(10) 0.33565(7)
C3 C 0.5228(3) 0.64427(12) 0.42691(8)
C4 C -0.1707(4) 0.45172(13) -0.09071(8)
C5 C -0.2100(4) 0.51267(16) 0.09511(9)
C6 C -0.4611(4) 0.36270(14) 0.33335(8)
C7 C -0.2585(4) 0.97989(15) 0.34431(8)
C8 C 0.3228(3) 0.64700(12) 0.43680(8)
H3 H 0.2604 0.6538 0.4243
H4 H 0.3426 0.6710 0.4471
C9 C -0.6365(4) 0.39830(14) 0.34567(9)
C10 C 0.5599(4) 0.61527(14) 0.15715(8)
C11 C 0.5070(4) 0.64236(13) 0.17131(8)
C12 C 0.6809(4) 0.61005(13) 0.15641(8)
C13 C -0.5096(4) 0.37833(14) 0.09401(9)
C14 C 0.1416(4) 0.53789(15) 0.59031(8)
C15 C 0.8602(3) 0.57492(14) 0.41278(9)
H5 H 0.8929 0.5497 0.4163
C16 C 0.7255(4) 0.57264(14) 0.16108(9)
H6 H 0.6799 0.5514 0.1658
C17 C 0.2017(4) 0.56586(14) 0.21151(8)
C18 C 0.1853(4) 0.55472(14) 0.34207(8)
C19 C -0.8583(4) 0.41000(14) 0.35180(9)
C20 C -0.1879(4) 0.40502(14) 0.01661(8)
C21 C -0.2267(4) 0.36946(13) 0.02563(8)
C22 C 0.2738(4) 0.62412(15) 0.22480(9)
C23 C -0.7845(4) 0.42815(14) 0.09242(9)
H7 H -0.8138 0.4540 0.0893
C24 C -0.1574(4) 0.42723(14) 0.03906(8)
C25 C 0.7628(4) 0.64882(14) 0.40333(9)
H8 H 0.7304 0.6743 0.4004
C26 C -0.1401(4) 0.43130(14) 0.28951(9)
C27 C 0.9045(4) 0.59731(14) 0.15192(9)
C28 C -0.6290(4) 0.38372(14) 0.09509(9)
C29 C 1.0210(4) 0.58861(15) 0.14805(8)
N17 N -0.5299(4) 0.70524(13) 0.04620(9)
C30 C -0.4561(4) 0.35077(13) 0.07940(8)
C31 C -0.1845(4) 0.41699(14) -0.01068(8)
C32 C -0.2587(4) 0.98273(14) 0.09555(8)
C33 C -0.2562(4) 0.34326(12) 0.07056(8)
H9 H -0.2776 0.3180 0.0618
H10 H -0.1943 0.3376 0.0835
C34 C -0.8083(4) 0.35882(14) 0.10276(11)
H11 H -0.8544 0.3373 0.1068
C35 C -0.6747(4) 0.42128(15) 0.09046(9)
H12 H -0.6290 0.4426 0.0858
C36 C 0.8360(4) 0.56599(14) 0.15888(9)
H13 H 0.8659 0.5402 0.1621
C37 C -0.8530(4) 0.39697(14) 0.09894(9)
C38 C -0.1276(4) 0.44436(14) 0.16031(9)
C39 C -0.4373(4) 0.42232(13) 0.35171(9)
C40 C 0.2018(4) 0.56263(14) 0.31406(8)
C41 C -0.1994(4) 0.52881(14) 0.34287(8)
C42 C -0.7974(4) 0.43946(14) 0.34080(9)
H14 H -0.8309 0.4639 0.3356
N18 N -0.5135(4) 0.77605(13) 0.04889(10)
C43 C 0.4994(4) 0.59648(14) 0.39747(9)
C44 C 1.0407(3) 0.59946(14) 0.40041(8)
C45 C -0.6983(4) 0.35228(14) 0.10076(10)
H15 H -0.6692 0.3263 0.1032
C46 C 0.7479(4) 0.58082(14) 0.41507(9)
H16 H 0.7047 0.5592 0.4203
C47 C 0.8758(4) 0.64362(14) 0.40096(9)
H17 H 0.9196 0.6655 0.3965
C48 C -0.0900(5) 0.44878(17) -0.04472(9)
H18 H -0.0292 0.4633 -0.0501
C49 C 0.2385(4) 0.58022(15) 0.48658(8)
C50 C -0.9700(4) 0.40541(14) 0.10291(9)
C51 C -0.5161(4) 0.39378(13) 0.34376(8)
N19 N -0.4659(4) 0.71182(15) 0.26548(10)
C52 C 0.2079(4) 0.56135(15) 0.46259(8)
C53 C 0.4796(4) 0.59019(14) 0.14456(9)
C54 C -0.6879(4) 0.43306(14) 0.33749(9)
H19 H -0.6471 0.4530 0.3294
N20 N -0.5320(4) 0.71551(13) 0.28654(10)
C55 C -0.9750(4) 0.41850(15) 0.35635(9)
C56 C 0.7485(4) 0.64127(14) 0.14998(9)
H20 H 0.7188 0.6671 0.1469
C57 C -0.1769(5) 0.40808(15) 0.26806(9)
C58 C 0.6984(4) 0.61688(14) 0.40991(9)
C59 C -0.1775(4) 0.43982(14) -0.06264(8)
C60 C 0.1693(4) 0.54748(15) 0.56311(8)
N21 N -0.5518(4) 0.78635(13) 0.28663(10)
N22 N -0.4546(4) 0.78203(13) 0.02770(9)
C61 C 0.8610(4) 0.63449(14) 0.14813(9)
H21 H 0.9073 0.6560 0.1442
C62 C 0.2203(4) 0.57917(16) 0.26141(8)
C63 C 0.2918(4) 0.61500(14) 0.48027(8)
C64 C -0.2590(4) 0.35479(13) 0.32464(9)
H22 H -0.2800 0.3285 0.3172
H23 H -0.1997 0.3507 0.3385
C65 C -0.2592(4) 0.56451(14) 0.33082(9)
C66 C -0.3205(4) 0.94498(14) 0.33243(9)
C67 C 0.1236(5) 0.56219(17) 0.26963(10)
H24 H 0.0642 0.5565 0.2573
C68 C -0.3638(4) 0.54100(15) 0.06559(10)
H25 H -0.3856 0.5148 0.0607
C69 C 0.9227(3) 0.60681(13) 0.40517(8)
C70 C -0.2653(4) 0.41899(16) -0.05444(9)
H26 H -0.3239 0.4116 -0.0666
C71 C -0.5065(5) 0.68745(17) 0.30437(13)
C72 C 0.5639(4) 0.67522(15) 0.44559(10)
H27 H 0.5448 0.7016 0.4386
H28 H 0.6438 0.6730 0.4485
H29 H 0.5304 0.6715 0.4621
C73 C -0.4265(4) 0.40141(16) 0.10697(10)
C74 C -0.4038(5) 0.67970(17) 0.27101(11)
C75 C -0.1068(6) 0.46761(17) 0.04120(10)
H30 H -0.1618 0.4877 0.0358
H31 H -0.0458 0.4691 0.0300
H32 H -0.0795 0.4725 0.0592
C76 C 0.1146(4) 0.55384(16) 0.29524(9)
H33 H 0.0494 0.5420 0.3005
C77 C -0.0776(5) 0.46945(16) 0.28994(9)
H34 H -0.1275 0.4914 0.2849
H35 H -0.0201 0.4678 0.2777
H36 H -0.0441 0.4742 0.3075
C78 C -0.6986(4) 0.36800(15) 0.35623(10)
H37 H -0.6648 0.3435 0.3612
C79 C -0.3730(5) 0.62896(16) 0.30859(11)
C80 C -0.4198(5) 0.57339(15) 0.05457(11)
H38 H -0.4760 0.5693 0.0412
C81 C -0.3031(4) 0.94363(14) 0.08527(8)
C82 C -0.3057(5) 0.61709(17) 0.08129(12)
H39 H -0.2856 0.6432 0.0869
C83 C -0.3942(4) 0.61213(15) 0.06299(10)
C84 C -0.2510(4) 0.60095(15) 0.34193(10)
H40 H -0.2046 0.6045 0.3573
C85 C -0.4484(5) 0.64707(15) 0.05130(11)
C86 C -0.3804(4) 0.86968(15) 0.06758(10)
C87 C 0.2953(5) 0.57994(18) 0.30596(9)
H41 H 0.3533 0.5868 0.3184
C88 C 0.2302(4) 0.58919(15) 0.23384(9)
C89 C -0.4282(5) 0.87954(16) 0.30940(11)
C90 C -0.8085(4) 0.37376(15) 0.35937(10)
H42 H -0.8503 0.3533 0.3666
N23 N -0.4903(4) 0.69640(13) 0.02272(9)
C91 C -0.5037(5) 0.67559(16) 0.06414(12)
C92 C -0.3891(8) 0.6403(2) 0.00421(12)
H43 H -0.4432 0.6236 -0.0056
H44 H -0.3288 0.6236 0.0115
H45 H -0.3604 0.6602 -0.0074
C93 C 0.2156(4) 0.56801(15) 0.51269(8)
C94 C 0.5479(4) 0.67511(15) 0.18821(10)
H46 H 0.6280 0.6737 0.1907
H47 H 0.5166 0.6729 0.2051
H48 H 0.5264 0.7006 0.1802
C95 C -0.2680(4) 0.87709(16) 0.07202(10)
H49 H -0.2172 0.8567 0.0687
C96 C -0.4214(5) 0.83107(15) 0.05696(10)
C97 C 0.3063(5) 0.58752(19) 0.28004(10)
H50 H 0.3727 0.5985 0.2748
C98 C -0.2259(5) 0.37548(16) 0.27842(10)
C99 C 0.1520(6) 0.52553(17) 0.20977(10)
H51 H 0.1452 0.5169 0.1916
H52 H 0.0793 0.5263 0.2165
H53 H 0.1988 0.5068 0.2200
C100 C -0.3970(4) 0.81548(14) 0.03272(10)
C101 C -0.2690(4) 0.40866(16) -0.02864(9)
H54 H -0.3320 0.3954 -0.0232
C102 C -0.3219(5) 0.83155(18) 0.01404(11)
H55 H -0.3248 0.8147 -0.0014
H56 H -0.2470 0.8320 0.0221
H57 H -0.3444 0.8586 0.0091
C103 C -0.2764(4) 0.54693(15) 0.08363(9)
C104 C -0.0910(4) 0.43664(16) -0.01913(9)
H58 H -0.0293 0.4415 -0.0073
N24 N -0.4970(5) 0.79649(16) 0.26519(10)
C105 C 0.3121(7) 0.6601(2) 0.23921(10)
H59 H 0.3920 0.6621 0.2391
H60 H 0.2917 0.6583 0.2571
H61 H 0.2781 0.6837 0.2309
C106 C -0.2639(6) 0.33294(16) 0.01115(10)
H62 H -0.2374 0.3093 0.0208
H63 H -0.2345 0.3330 -0.0060
H64 H -0.3441 0.3325 0.0091
C107 C 0.4917(4) 0.55668(16) 0.12639(11)
H65 H 0.4962 0.5316 0.1361
H66 H 0.5587 0.5603 0.1174
H67 H 0.4282 0.5559 0.1137
C108 C -0.4058(5) 0.95029(18) 0.31477(14)
H68 H -0.4293 0.9764 0.3101
C109 C -0.5018(4) 0.31896(16) 0.06182(10)
H69 H -0.4599 0.3177 0.0464
H70 H -0.5787 0.3249 0.0566
H71 H -0.4970 0.2933 0.0709
C110 C 0.5147(5) 0.56472(17) 0.37741(11)
H72 H 0.5482 0.5412 0.3859
H73 H 0.5626 0.5748 0.3645
H74 H 0.4434 0.5576 0.3688
C111 C -0.4514(4) 0.89914(16) 0.07245(11)
H75 H -0.5280 0.8942 0.0702
C112 C -0.4762(5) 0.84378(18) 0.29571(12)
C113 C -0.4401(5) 0.4354(2) 0.12528(13)
H76 H -0.3778 0.4360 0.1383
H77 H -0.5082 0.4319 0.1339
H78 H -0.4432 0.4604 0.1156
C114 C 0.1536(5) 0.52189(18) 0.45826(9)
H79 H 0.1237 0.5200 0.4402
H80 H 0.0941 0.5192 0.4698
H81 H 0.2074 0.5007 0.4619
C115 C -0.6066(4) 0.74875(14) 0.28620(15)
H82 H -0.6573 0.7472 0.2704
H83 H -0.6510 0.7469 0.3014
C116 C -0.4269(5) 0.66387(18) 0.29530(12)
C117 C -0.5014(5) 0.32455(15) 0.32167(12)
H84 H -0.4632 0.3191 0.3060
H85 H -0.5803 0.3265 0.3171
H86 H -0.4872 0.3030 0.3342
C118 C -0.2467(5) 0.58524(16) 0.09150(11)
H87 H -0.1863 0.5894 0.1038
C119 C -0.2297(4) 0.91306(15) 0.08106(9)
H88 H -0.1532 0.9172 0.0845
C120 C -0.5791(6) 0.8103(2) 0.33092(15)
H89 H -0.5774 0.8362 0.3396
H90 H -0.5340 0.7913 0.3414
H91 H -0.6548 0.8006 0.3289
C121 C -0.4521(4) 0.46277(16) 0.36345(11)
H92 H -0.3946 0.4672 0.3774
H93 H -0.5241 0.4642 0.3706
H94 H -0.4474 0.4832 0.3501
C122 C 0.0886(4) 0.54489(17) 0.54295(9)
H95 H 0.0177 0.5356 0.5463
C123 C -0.4143(4) 0.93675(15) 0.08080(10)
H96 H -0.4653 0.9574 0.0834
C124 C -0.5355(5) 0.81450(15) 0.30508(13)
C125 C 0.3393(5) 0.64703(17) 0.49717(9)
H97 H 0.4194 0.6451 0.4982
H98 H 0.3132 0.6443 0.5146
H99 H 0.3167 0.6729 0.4899
C126 C -0.3463(7) 0.87391(17) 0.32820(14)
H100 H -0.3268 0.8478 0.3339
C127 C 0.2976(4) 0.56772(17) 0.53309(9)
H101 H 0.3708 0.5741 0.5297
C128 C -0.3084(5) 0.63286(15) 0.33147(10)
H102 H -0.3035 0.6579 0.3400
C129 C -0.5884(5) 0.74255(15) 0.04847(15)
H103 H -0.6438 0.7454 0.0336
H104 H -0.6272 0.7424 0.0646
C130 C -0.4948(5) 0.80525(16) 0.06700(12)
C131 C -0.3254(5) 0.55963(18) 0.30811(11)
H105 H -0.3335 0.5341 0.3004
C132 C -0.5629(6) 0.68531(19) 0.32883(13)
H106 H -0.5443 0.7089 0.3394
H107 H -0.5393 0.6613 0.3384
H108 H -0.6424 0.6843 0.3247
C133 C 0.2740(4) 0.55830(17) 0.55802(9)
H109 H 0.3301 0.5593 0.5717
C134 C 0.1095(4) 0.55548(18) 0.51819(9)
H110 H 0.0525 0.5544 0.5047
C135 C -0.4501(6) 0.8317(2) 0.27043(13)
C136 C -0.3908(10) 0.8542(3) 0.25186(15)
H111 H -0.3969 0.8406 0.2351
H112 H -0.3134 0.8561 0.2581
H113 H -0.4220 0.8809 0.2499
C137 C -0.5370(6) 0.6779(2) 0.09099(14)
H114 H -0.5239 0.6522 0.0996
H115 H -0.6151 0.6845 0.0907
H116 H -0.4941 0.6986 0.1005
C138 C -0.4424(5) 0.66087(16) 0.02569(11)
C139 C -0.3207(7) 0.6655(2) 0.25370(13)
H117 H -0.3486 0.6419 0.2442
H118 H -0.2531 0.6587 0.2641
H119 H -0.3055 0.6865 0.2413
C140 C -0.2907(6) 0.90692(18) 0.33915(14)
H120 H -0.2307 0.9028 0.3516
C141 C -0.3794(6) 0.59179(18) 0.29676(12)
H121 H -0.4213 0.5886 0.2807
C142 C -0.5456(7) 0.8060(2) 0.09181(15)
H122 H -0.6232 0.8131 0.0888
H123 H -0.5083 0.8256 0.1033
H124 H -0.5395 0.7796 0.0999
C143 C -0.2843(10) 0.3408(2) 0.26540(13)
H125 H -0.2570 0.3160 0.2735
H126 H -0.2708 0.3407 0.2470
H127 H -0.3631 0.3432 0.2673
C144 C -0.4602(7) 0.9172(2) 0.3032(2)
H128 H -0.5204 0.9213 0.2908
C145 C -0.2361(9) 0.4044(3) 0.22226(15)
H129 H -0.2980 0.3896 0.2268
C146 C -0.0608(7) 0.4336(2) 0.23341(14)
H130 H -0.0008 0.4371 0.2459
C147 C -0.2233(10) 0.4121(3) 0.19606(15)
H131 H -0.2738 0.4005 0.1834
C148 C -0.0542(9) 0.4438(3) 0.20774(15)
H132 H 0.0095 0.4570 0.2027
C149 C -0.1433(5) 0.43487(15) 0.18808(9)
C150 C -0.1671(5) 0.41680(17) 0.24044(9)
Mn1_2 Mn -0.97843(5) 0.50888(2) 0.37646(2)
Mn1_3 Mn 1.02157(5) 0.50888(2) 0.37646(2)
Mn1A Mn -0.02157(5) 1.00888(2) 0.12354(2)
Mn1B Mn -0.02157(5) 0.49112(2) 0.62354(2)
Mn2_2 Mn 1.22762(5) 0.56730(2) 0.14767(2)
Mn2A Mn -0.22762(5) 1.06730(2) 0.35233(2)
Mn2B Mn -0.22762(5) 0.43270(2) -0.14767(2)
Mn3_2 Mn -0.97776(5) 0.49648(2) 0.12571(2)
Mn3_3 Mn 1.02224(5) 0.49648(2) 0.12571(2)
Mn3A Mn -0.02224(5) 0.99648(2) 0.37429(2)
Mn3B Mn -0.02224(5) 0.50352(2) -0.12571(2)
Mn4_2 Mn 1.24669(5) 0.56924(2) 0.39934(2)
Mn4A Mn -0.24669(5) 1.06924(2) 0.10066(2)
Mn5_2 Mn -1.18167(5) 0.44080(2) 0.35182(2)
Mn5B Mn 0.18167(5) 0.55920(2) 0.64818(2)
Mn6_2 Mn -1.17706(5) 0.42451(2) 0.10287(2)
O1_2 O -0.0032(3) 0.44112(9) 0.10224(6)
O3_2 O 0.0713(2) 0.56255(9) 0.39970(5)
O4B O 0.2312(3) 0.56737(11) 0.10717(6)
O5_2 O -0.0098(2) 0.45430(9) 0.35317(6)
O6B O 0.1064(3) 0.52100(11) 0.09518(6)
O7_2 O 0.0545(2) 0.55246(9) 0.14880(5)
O8B O -0.0580(3) 0.48255(10) 0.40718(6)
O9A O 0.3200(3) 0.51293(9) 0.40696(6)
O11_2 O -0.0347(3) 0.37681(10) 0.10580(7)
O12_2 O 0.0863(3) 0.61661(10) 0.14424(6)
O19_2 O -0.0393(3) 0.39101(11) 0.36225(7)
O20B O -0.2039(3) 0.44916(12) 0.39154(6)
O21A O 0.1650(3) 0.47226(11) 0.14504(7)
O22A O 0.3023(3) 0.51319(10) 0.15839(6)
O23A O 0.1623(3) 0.48304(11) 0.39502(7)
loop_
_geom_bond_atom_site_label_1
_geom_bond_atom_site_label_2
_geom_bond_site_symmetry_1
_geom_bond_site_symmetry_2
Mn1 O13 1_555 1_555
Mn2 N3 1_555 1_555
Mn3 O16 1_555 1_555
Mn4 O2 1_555 1_555
Mn5 N11 1_555 1_555
Mn6 N1 1_555 1_555
Co1 Cl1 1_555 1_555
Co2 Cl2 1_555 1_555
Cl3 Co1 1_555 1_555
Cl4 Co2 1_555 1_555
O1 C50 1_555 1_555
O2 C18 1_555 1_555
O3 C44 1_555 1_555
N1 N6 1_555 1_555
O4 C4 1_555 1_555
O5 C55 1_555 1_555
O6 C4 1_555 1_555
O7 C29 1_555 1_555
N2 N3 1_555 1_555
N3 C53 1_555 1_555
O8 C14 1_555 1_555
O9 C32 1_555 1_555
O10 Mn6 1_555 1_555
O11 C50 1_555 1_555
O12 C29 1_555 1_555
O13 C18 1_555 1_555
N4 N7 1_555 1_555
O14 C44 1_555 1_555
N5 N12 1_555 1_555
N6 C21 1_555 1_555
O15 Mn1 1_555 1_555
N7 Mn2 1_555 1_555
O16 C5 1_555 1_555
O17 Mn3 1_555 1_555
N8 N9 1_555 1_555
O18 Mn6 1_555 1_555
N9 Mn4 1_555 1_555
N10 N15 1_555 1_555
O19 C55 1_555 1_555
O20 C14 1_555 1_555
O21 C7 1_555 1_555
N11 N16 1_555 1_555
O22 C7 1_555 1_555
C1 N2 1_555 1_555
H1 C1 1_555 1_555
H2 C1 1_555 1_555
N12 Mn5 1_555 1_555
O23 C32 1_555 1_555
O24 Mn5 1_555 1_555
N13 Mn4 1_555 1_555
N14 N13 1_555 1_555
N15 Mn6 1_555 1_555
C2 C3 1_555 1_555
N16 C6 1_555 1_555
C3 N8 1_555 1_555
C4 C59 1_555 1_555
C5 O18 1_555 1_555
C6 C51 1_555 1_555
C7 C66 1_555 1_555
C8 N8 1_555 1_555
H3 C8 1_555 1_555
H4 C8 1_555 1_555
C9 C51 1_555 1_555
C10 C11 1_555 1_555
C11 N2 1_555 1_555
C12 C10 1_555 1_555
C13 C28 1_555 1_555
C14 C60 1_555 1_555
C15 H5 1_555 1_555
C16 C12 1_555 1_555
H6 C16 1_555 1_555
C17 N7 1_555 1_555
C18 C40 1_555 1_555
C19 C42 1_555 1_555
C20 C21 1_555 1_555
C21 C106 1_555 1_555
C22 N4 1_555 1_555
C23 H7 1_555 1_555
C24 N1 1_555 1_555
C25 H8 1_555 1_555
C26 N12 1_555 1_555
C27 C29 1_555 1_555
C28 C35 1_555 1_555
N17 N23 1_555 1_555
C30 N10 1_555 1_555
C31 C20 1_555 1_555
C32 C81 1_555 1_555
C33 N6 1_555 1_555
H9 C33 1_555 1_555
H10 C33 1_555 1_555
C34 H11 1_555 1_555
C35 C23 1_555 1_555
H12 C35 1_555 1_555
C36 C16 1_555 1_555
H13 C36 1_555 1_555
C37 C23 1_555 1_555
C38 O10 1_555 1_555
C39 N11 1_555 1_555
C40 C76 1_555 1_555
C41 O15 1_555 1_555
C42 H14 1_555 1_555
N18 N22 1_555 1_555
C43 N9 1_555 1_555
C44 C69 1_555 1_555
C45 C28 1_555 1_555
H15 C45 1_555 1_555
C46 C15 1_555 1_555
H16 C46 1_555 1_555
C47 C25 1_555 1_555
H17 C47 1_555 1_555
C48 H18 1_555 1_555
C49 C52 1_555 1_555
C50 C37 1_555 1_555
C51 C39 1_555 1_555
N19 Co2 1_555 1_555
C52 N13 1_555 1_555
C53 C10 1_555 1_555
C54 C9 1_555 1_555
H19 C54 1_555 1_555
N20 N19 1_555 1_555
C55 C19 1_555 1_555
C56 C12 1_555 1_555
H20 C56 1_555 1_555
C57 C26 1_555 1_555
C58 C2 1_555 1_555
C59 C48 1_555 1_555
C60 C122 1_555 1_555
N21 N24 1_555 1_555
N22 Co1 1_555 1_555
C61 C27 1_555 1_555
H21 C61 1_555 1_555
C62 C67 1_555 1_555
C63 N14 1_555 1_555
C64 N5 1_555 1_555
H22 C64 1_555 1_555
H23 C64 1_555 1_555
C65 C41 1_555 1_555
C66 C108 1_555 1_555
C67 H24 1_555 1_555
C68 H25 1_555 1_555
C69 C15 1_555 1_555
C70 C59 1_555 1_555
H26 C70 1_555 1_555
C71 N20 1_555 1_555
C72 C3 1_555 1_555
H27 C72 1_555 1_555
H28 C72 1_555 1_555
H29 C72 1_555 1_555
C73 N15 1_555 1_555
C74 N19 1_555 1_555
C75 C24 1_555 1_555
H30 C75 1_555 1_555
H31 C75 1_555 1_555
H32 C75 1_555 1_555
C76 C67 1_555 1_555
H33 C76 1_555 1_555
C77 C26 1_555 1_555
H34 C77 1_555 1_555
H35 C77 1_555 1_555
H36 C77 1_555 1_555
C78 C9 1_555 1_555
H37 C78 1_555 1_555
C79 C116 1_555 1_555
C80 C68 1_555 1_555
H38 C80 1_555 1_555
C81 C119 1_555 1_555
C82 H39 1_555 1_555
C83 C80 1_555 1_555
C84 C65 1_555 1_555
H40 C84 1_555 1_555
C85 C83 1_555 1_555
C86 C95 1_555 1_555
C87 C40 1_555 1_555
H41 C87 1_555 1_555
C88 C17 1_555 1_555
C89 C112 1_555 1_555
C90 C19 1_555 1_555
H42 C90 1_555 1_555
N23 Co1 1_555 1_555
C91 N17 1_555 1_555
C92 H43 1_555 1_555
H44 C92 1_555 1_555
H45 C92 1_555 1_555
C93 C49 1_555 1_555
C94 C11 1_555 1_555
H46 C94 1_555 1_555
H47 C94 1_555 1_555
H48 C94 1_555 1_555
C95 H49 1_555 1_555
C96 C86 1_555 1_555
C97 C62 1_555 1_555
H50 C97 1_555 1_555
C98 N5 1_555 1_555
C99 C17 1_555 1_555
H51 C99 1_555 1_555
H52 C99 1_555 1_555
H53 C99 1_555 1_555
C100 N22 1_555 1_555
C101 C31 1_555 1_555
H54 C101 1_555 1_555
C102 C100 1_555 1_555
H55 C102 1_555 1_555
H56 C102 1_555 1_555
H57 C102 1_555 1_555
C103 C5 1_555 1_555
C104 C31 1_555 1_555
H58 C104 1_555 1_555
N24 Co2 1_555 1_555
C105 C22 1_555 1_555
H59 C105 1_555 1_555
H60 C105 1_555 1_555
H61 C105 1_555 1_555
C106 H62 1_555 1_555
H63 C106 1_555 1_555
H64 C106 1_555 1_555
C107 C53 1_555 1_555
H65 C107 1_555 1_555
H66 C107 1_555 1_555
H67 C107 1_555 1_555
C108 H68 1_555 1_555
C109 C30 1_555 1_555
H69 C109 1_555 1_555
H70 C109 1_555 1_555
H71 C109 1_555 1_555
C110 C43 1_555 1_555
H72 C110 1_555 1_555
H73 C110 1_555 1_555
H74 C110 1_555 1_555
C111 C86 1_555 1_555
H75 C111 1_555 1_555
C112 C124 1_555 1_555
C113 C73 1_555 1_555
H76 C113 1_555 1_555
H77 C113 1_555 1_555
H78 C113 1_555 1_555
C114 C52 1_555 1_555
H79 C114 1_555 1_555
H80 C114 1_555 1_555
H81 C114 1_555 1_555
C115 N20 1_555 1_555
H82 C115 1_555 1_555
H83 C115 1_555 1_555
C116 C71 1_555 1_555
C117 C6 1_555 1_555
H84 C117 1_555 1_555
H85 C117 1_555 1_555
H86 C117 1_555 1_555
C118 C82 1_555 1_555
H87 C118 1_555 1_555
C119 C95 1_555 1_555
H88 C119 1_555 1_555
C120 H89 1_555 1_555
H90 C120 1_555 1_555
H91 C120 1_555 1_555
C121 C39 1_555 1_555
H92 C121 1_555 1_555
H93 C121 1_555 1_555
H94 C121 1_555 1_555
C122 H95 1_555 1_555
C123 C81 1_555 1_555
H96 C123 1_555 1_555
C124 N21 1_555 1_555
C125 C63 1_555 1_555
H97 C125 1_555 1_555
H98 C125 1_555 1_555
H99 C125 1_555 1_555
C126 C89 1_555 1_555
H100 C126 1_555 1_555
C127 C93 1_555 1_555
H101 C127 1_555 1_555
C128 C79 1_555 1_555
H102 C128 1_555 1_555
C129 N17 1_555 1_555
H103 C129 1_555 1_555
H104 C129 1_555 1_555
C130 N18 1_555 1_555
C131 C65 1_555 1_555
H105 C131 1_555 1_555
C132 C71 1_555 1_555
H106 C132 1_555 1_555
H107 C132 1_555 1_555
H108 C132 1_555 1_555
C133 C60 1_555 1_555
H109 C133 1_555 1_555
C134 C93 1_555 1_555
H110 C134 1_555 1_555
C135 N24 1_555 1_555
C136 C135 1_555 1_555
H111 C136 1_555 1_555
H112 C136 1_555 1_555
H113 C136 1_555 1_555
C137 C91 1_555 1_555
H114 C137 1_555 1_555
H115 C137 1_555 1_555
H116 C137 1_555 1_555
C138 C85 1_555 1_555
C139 C74 1_555 1_555
H117 C139 1_555 1_555
H118 C139 1_555 1_555
H119 C139 1_555 1_555
C140 C66 1_555 1_555
H120 C140 1_555 1_555
C141 C79 1_555 1_555
H121 C141 1_555 1_555
C142 C130 1_555 1_555
H122 C142 1_555 1_555
H123 C142 1_555 1_555
H124 C142 1_555 1_555
C143 C98 1_555 1_555
H125 C143 1_555 1_555
H126 C143 1_555 1_555
H127 C143 1_555 1_555
C144 C89 1_555 1_555
H128 C144 1_555 1_555
C145 H129 1_555 1_555
C146 H130 1_555 1_555
C147 C145 1_555 1_555
H131 C147 1_555 1_555
C148 C146 1_555 1_555
H132 C148 1_555 1_555
C149 C38 1_555 1_555
C150 C57 1_555 1_555
Mn1_2 O5 1_555 1_555
Mn1_3 O3 1_555 1_555
Mn1A O23 1_555 1_555
Mn1B O8 1_555 1_555
Mn2_2 O7 1_555 1_555
Mn2A O22 1_555 1_555
Mn2B O4 1_555 1_555
Mn3_2 O1 1_555 1_555
Mn3_3 O7 1_555 1_555
Mn3A O21 1_555 1_555
Mn3B O6 1_555 1_555
Mn4_2 O3 1_555 1_555
Mn4A O9 1_555 1_555
Mn5_2 O5 1_555 1_555
Mn5B O20 1_555 1_555
Mn6_2 O1 1_555 1_555
O1_2 Mn3 1_555 1_555
O3_2 Mn1 1_555 1_555
O4B Mn2 1_555 1_555
O5_2 Mn1 1_555 1_555
O6B Mn3 1_555 1_555
O7_2 Mn2 1_555 1_555
O8B Mn1 1_555 1_555
O9A Mn4 1_555 1_555
O11_2 Mn6 1_555 1_555
O12_2 Mn2 1_555 1_555
O19_2 Mn5 1_555 1_555
O20B Mn5 1_555 1_555
O21A Mn3 1_555 1_555
O22A Mn2 1_555 1_555
O23A Mn1 1_555 1_555
Mn3 O7_2 1_555 1_555
Mn4 O3_2 1_555 1_555
Mn5 O5_2 1_555 1_555
Mn6 O1_2 1_555 1_555
O11 Mn6_2 1_555 1_555
O12 Mn2_2 1_555 1_555
N4 C1 1_555 1_555
O17 C38 1_555 1_555
N10 C33 1_555 1_555
O19 Mn5_2 1_555 1_555
O24 C41 1_555 1_555
N14 C8 1_555 1_555
C2 C43 1_555 1_555
N16 C64 1_555 1_555
C13 C30 1_555 1_555
C13 C73 1_555 1_555
C20 C24 1_555 1_555
C22 C88 1_555 1_555
C25 C58 1_555 1_555
C27 C36 1_555 1_555
C34 C37 1_555 1_555
C34 C45 1_555 1_555
C42 C54 1_555 1_555
N18 C129 1_555 1_555
C46 C58 1_555 1_555
C47 C69 1_555 1_555
C48 C104 1_555 1_555
C49 C63 1_555 1_555
C56 C61 1_555 1_555
C57 C98 1_555 1_555
N21 C115 1_555 1_555
C62 C88 1_555 1_555
C68 C103 1_555 1_555
C70 C101 1_555 1_555
C74 C116 1_555 1_555
C78 C90 1_555 1_555
C82 C83 1_555 1_555
C84 C128 1_555 1_555
C85 C91 1_555 1_555
C87 C97 1_555 1_555
N23 C138 1_555 1_555
C92 C138 1_555 1_555
C96 C100 1_555 1_555
C96 C130 1_555 1_555
C103 C118 1_555 1_555
C108 C144 1_555 1_555
C111 C123 1_555 1_555
C112 C135 1_555 1_555
C120 C124 1_555 1_555
C122 C134 1_555 1_555
C126 C140 1_555 1_555
C127 C133 1_555 1_555
C131 C141 1_555 1_555
C145 C150 1_555 1_555
C146 C150 1_555 1_555
C147 C149 1_555 1_555
C148 C149 1_555 1_555

#END
