
#######################################################################
#
#                 Cambridge Crystallographic Data Centre
#                                CCDC 
#
#######################################################################
#
# If this CIF has been generated from an entry in the Cambridge 
# Structural Database, then it will include bibliographic, chemical, 
# crystal, experimental, refinement or atomic coordinate data resulting 
# from the CCDC's data processing and validation procedures.
#
#######################################################################

data_JUWSUR
_chemical_formula_moiety         '(C18 H12 Eu2 O17)n'
_symmetry_cell_setting           monoclinic
_symmetry_space_group_name_H-M   'C 2/c'
_symmetry_Int_Tables_number      15
_space_group_name_Hall           '-C 2yc'
loop_
_symmetry_equiv_pos_site_id
_symmetry_equiv_pos_as_xyz
1 x,y,z
2 -x,y,1/2-z
3 1/2+x,1/2+y,z
4 1/2-x,1/2+y,1/2-z
5 -x,-y,-z
6 x,-y,1/2+z
7 1/2-x,1/2-y,-z
8 1/2+x,1/2-y,1/2+z
_cell_length_a                   16.5700(10)
_cell_length_b                   16.2600(10)
_cell_length_c                   10.3520(10)
_cell_angle_alpha                90
_cell_angle_beta                 94.670(10)
_cell_angle_gamma                90
_cell_volume                     2779.86
loop_
_atom_site_label
_atom_site_type_symbol
_atom_site_fract_x
_atom_site_fract_y
_atom_site_fract_z
Eu1 Eu 0.038612(7) 0.622076(7) 0.542854(11)
O1 O 0.35734(13) 0.32065(13) 0.44641(19)
H1 H 0.343(2) 0.354(2) 0.380(3)
C1 C 0.30933(16) 0.33260(16) 0.5442(2)
C2 C 0.32139(15) 0.28785(16) 0.6604(2)
C3 C 0.26878(16) 0.30174(16) 0.7571(2)
H2 H 0.2757 0.2707 0.8349
C4 C 0.20648(15) 0.35960(16) 0.7433(2)
C5 C 0.19776(15) 0.40612(15) 0.6287(2)
C6 C 0.24791(16) 0.39206(16) 0.5308(2)
H3 H 0.2407 0.4232 0.4531
C7 C 0.38840(15) 0.22709(15) 0.6882(2)
O2 O 0.41987(12) 0.19341(12) 0.59567(18)
O3 O 0.40822(12) 0.21303(12) 0.80580(18)
C8 C 0.15101(16) 0.36892(16) 0.8490(2)
O4 O 0.15868(12) 0.32236(12) 0.94646(18)
O5 O 0.09535(11) 0.42309(12) 0.83916(18)
C9 C 0.13811(15) 0.47461(15) 0.6077(2)
O6 O 0.06911(11) 0.46208(11) 0.54797(17)
O7 O 0.15874(11) 0.54592(11) 0.64273(19)
O8 O -0.0000 0.55072(15) 0.7500
H4 H -0.043(3) 0.521(3) 0.719(6)
O9 O -0.00642(15) 0.72934(16) 0.3839(2)
H5 H -0.0499(14) 0.755(2) 0.411(4)
H6 H 0.0379(14) 0.757(2) 0.415(4)
H4A H 0.043(3) 0.521(3) 0.781(6)
Eu1A Eu -0.038612(7) 0.622076(7) 0.957146(11)
O1A O -0.35734(13) 0.32065(13) 1.05359(19)
H1A H -0.343(2) 0.354(2) 1.120(3)
C1A C -0.30933(16) 0.33260(16) 0.9558(2)
C2A C -0.32139(15) 0.28785(16) 0.8396(2)
C3A C -0.26878(16) 0.30174(16) 0.7429(2)
H2A H -0.2757 0.2707 0.6651
C4A C -0.20648(15) 0.35960(16) 0.7567(2)
C5A C -0.19776(15) 0.40612(15) 0.8713(2)
C6A C -0.24791(16) 0.39206(16) 0.9692(2)
H3A H -0.2407 0.4232 1.0469
C7A C -0.38840(15) 0.22709(15) 0.8118(2)
O2A O -0.41987(12) 0.19341(12) 0.90433(18)
O3A O -0.40822(12) 0.21303(12) 0.69420(18)
C8A C -0.15101(16) 0.36892(16) 0.6510(2)
O4A O -0.15868(12) 0.32236(12) 0.55354(18)
O5A O -0.09535(11) 0.42309(12) 0.66084(18)
C9A C -0.13811(15) 0.47461(15) 0.8923(2)
O6A O -0.06911(11) 0.46208(11) 0.95203(17)
O7A O -0.15874(11) 0.54592(11) 0.85727(19)
O9A O 0.00642(15) 0.72934(16) 1.1161(2)
H5A H 0.0499(14) 0.755(2) 1.089(4)
H6A H -0.0379(14) 0.757(2) 1.085(4)
Eu1B Eu -0.461388(7) 0.122076(7) 0.542854(11)
Eu1B_2 Eu 0.538612(7) 0.122076(7) 0.542854(11)
Eu1C Eu -0.538612(7) 0.122076(7) 0.957146(11)
Eu1C_2 Eu 0.461388(7) 0.122076(7) 0.957146(11)
Eu1D Eu -0.038612(7) 0.377924(7) 0.457146(11)
Eu1E Eu 0.038612(7) 0.377924(7) 1.042854(11)
O2B O -0.08013(12) 0.69341(12) 0.59567(18)
O2C O 0.08013(12) 0.69341(12) 0.90433(18)
O3B O -0.09178(12) 0.71303(12) 0.80580(18)
O3C O 0.09178(12) 0.71303(12) 0.69420(18)
O4D O -0.15868(12) 0.67764(12) 1.05354(18)
O4E O 0.15868(12) 0.67764(12) 0.44646(18)
O5D O -0.09535(11) 0.57691(12) 1.16084(18)
O5E O 0.09535(11) 0.57691(12) 0.33916(18)
O6D O -0.06911(11) 0.53792(11) 0.45203(17)
O6E O 0.06911(11) 0.53792(11) 1.04797(17)
loop_
_geom_bond_atom_site_label_1
_geom_bond_atom_site_label_2
_geom_bond_site_symmetry_1
_geom_bond_site_symmetry_2
Eu1 O6 1_555 1_555
O1 H1 1_555 1_555
C1 O1 1_555 1_555
C2 C1 1_555 1_555
C3 C2 1_555 1_555
H2 C3 1_555 1_555
C4 C3 1_555 1_555
C5 C4 1_555 1_555
C6 C1 1_555 1_555
H3 C6 1_555 1_555
C7 C2 1_555 1_555
O2 C7 1_555 1_555
O3 C7 1_555 1_555
C8 C4 1_555 1_555
O4 C8 1_555 1_555
O5 C8 1_555 1_555
C9 C5 1_555 1_555
O6 C9 1_555 1_555
O7 Eu1 1_555 1_555
O8 Eu1 1_555 1_555
H4 O8 1_555 1_555
O9 Eu1 1_555 1_555
H5 O9 1_555 1_555
H6 O9 1_555 1_555
H4A O8 1_555 1_555
Eu1A O8 1_555 1_555
O1A H1A 1_555 1_555
C1A O1A 1_555 1_555
C2A C1A 1_555 1_555
C3A C2A 1_555 1_555
H2A C3A 1_555 1_555
C4A C3A 1_555 1_555
C5A C4A 1_555 1_555
C6A C1A 1_555 1_555
H3A C6A 1_555 1_555
C7A C2A 1_555 1_555
O2A C7A 1_555 1_555
O3A C7A 1_555 1_555
C8A C4A 1_555 1_555
O4A C8A 1_555 1_555
O5A C8A 1_555 1_555
C9A C5A 1_555 1_555
O6A Eu1A 1_555 1_555
O7A Eu1A 1_555 1_555
O9A Eu1A 1_555 1_555
H5A O9A 1_555 1_555
H6A O9A 1_555 1_555
Eu1B O3A 1_555 1_555
Eu1B_2 O2 1_555 1_555
Eu1C O2A 1_555 1_555
Eu1C_2 O3 1_555 1_555
Eu1D O6 1_555 1_555
Eu1E O4 1_555 1_555
O2B Eu1 1_555 1_555
O2C Eu1A 1_555 1_555
O3B Eu1A 1_555 1_555
O3C Eu1 1_555 1_555
O4D Eu1A 1_555 1_555
O4E Eu1 1_555 1_555
O5D Eu1A 1_555 1_555
O5E Eu1 1_555 1_555
O6D Eu1 1_555 1_555
O6E Eu1A 1_555 1_555
C5 C6 1_555 1_555
O5 Eu1E 1_555 1_555
C9 O7 1_555 1_555
C5A C6A 1_555 1_555
O4A Eu1D 1_555 1_555
O5A Eu1D 1_555 1_555
C9A O6A 1_555 1_555
C9A O7A 1_555 1_555
O6A Eu1E 1_555 1_555
Eu1D O6D 1_555 1_555
Eu1E O6E 1_555 1_555

#END
