
#######################################################################
#
#                 Cambridge Crystallographic Data Centre
#                                CCDC 
#
#######################################################################
#
# If this CIF has been generated from an entry in the Cambridge 
# Structural Database, then it will include bibliographic, chemical, 
# crystal, experimental, refinement or atomic coordinate data resulting 
# from the CCDC's data processing and validation procedures.
#
#######################################################################

data_ERAJEO
_chemical_formula_moiety         '(C6 H2 Cl2 Co2 N6)n'
_symmetry_cell_setting           rhombohedral
_symmetry_space_group_name_H-M   'R -3 m'
_symmetry_Int_Tables_number      166
_space_group_name_Hall           '-R 3 2"'
loop_
_symmetry_equiv_pos_site_id
_symmetry_equiv_pos_as_xyz
1 x,y,z
2 -y,x-y,z
3 -x+y,-x,z
4 y,x,-z
5 x-y,-y,-z
6 -x,-x+y,-z
7 2/3+x,1/3+y,1/3+z
8 2/3-y,1/3+x-y,1/3+z
9 2/3-x+y,1/3-x,1/3+z
10 2/3+y,1/3+x,1/3-z
11 2/3+x-y,1/3-y,1/3-z
12 2/3-x,1/3-x+y,1/3-z
13 1/3+x,2/3+y,2/3+z
14 1/3-y,2/3+x-y,2/3+z
15 1/3-x+y,2/3-x,2/3+z
16 1/3+y,2/3+x,2/3-z
17 1/3+x-y,2/3-y,2/3-z
18 1/3-x,2/3-x+y,2/3-z
19 -x,-y,-z
20 y,-x+y,-z
21 x-y,x,-z
22 -y,-x,z
23 -x+y,y,z
24 x,x-y,z
25 1/3-x,2/3-y,2/3-z
26 1/3+y,2/3-x+y,2/3-z
27 1/3+x-y,2/3+x,2/3-z
28 1/3-y,2/3-x,2/3+z
29 1/3-x+y,2/3+y,2/3+z
30 1/3+x,2/3+x-y,2/3+z
31 2/3-x,1/3-y,1/3-z
32 2/3+y,1/3-x+y,1/3-z
33 2/3+x-y,1/3+x,1/3-z
34 2/3-y,1/3-x,1/3+z
35 2/3-x+y,1/3+y,1/3+z
36 2/3+x,1/3+x-y,1/3+z
_cell_length_a                   24.9710
_cell_length_b                   24.9710
_cell_length_c                   8.1938
_cell_angle_alpha                90
_cell_angle_beta                 90
_cell_angle_gamma                120
_cell_volume                     4424.74
loop_
_atom_site_label
_atom_site_type_symbol
_atom_site_fract_x
_atom_site_fract_y
_atom_site_fract_z
_atom_site_U_iso_or_equiv
_atom_site_thermal_displace_type
N1 N 0.93004 0.27432 0.52845 0.0505 Uiso
C1 C 0.87812 0.21959 0.57695 0.0435 Uiso
Co1 Co 0.95402 0.33333 0.33333 0.0643 Uiso
Cl1 Cl 1.00000 0.42491 0.50000 0.0434 Uiso
N2 N 0.96352 0.29686 0.66667 0.0526 Uiso
C2 C 0.82432 0.17568 0.48750 0.0435 Uiso
H1 H 0.81737 0.18263 0.35989 0.0500 Uiso
N1U N 0.72568 0.06996 0.52845 0.0505 Uiso
C1U C 0.78041 0.12188 0.57695 0.0435 Uiso
N2U N 0.70314 0.03648 0.66667 0.0526 Uiso
N1I N 0.94099 0.26337 0.80488 0.0505 Uiso
C1I C 0.88626 0.21145 0.75638 0.0435 Uiso
C2I C 0.84235 0.15765 0.84583 0.0435 Uiso
H1I H 0.84930 0.15070 0.97344 0.0500 Uiso
N1DA N 0.73663 0.05901 0.80488 0.0505 Uiso
C1DA C 0.78855 0.11374 0.75638 0.0435 Uiso
Co1U Co 0.66667 0.04598 0.33333 0.0643 Uiso
Cl1M Cl 0.90842 0.24176 0.16667 0.0434 Uiso
N1P N 0.98905 0.39235 0.13822 0.0505 Uiso
N1Y N 0.60765 0.01095 0.13822 0.0505 Uiso
Co1E Co 1.04598 0.37931 0.66667 0.0643 Uiso
Co1T Co 0.62069 -0.04598 0.66667 0.0643 Uiso
Co1I Co 1.00000 0.28735 0.00000 0.0643 Uiso
Co1I_2 Co 1.00000 0.28735 1.00000 0.0643 Uiso
Co1DA Co 0.71265 0.00000 1.00000 0.0643 Uiso
Cl1T Cl 0.57509 0.00000 0.50000 0.0434 Uiso
Cl1Y Cl 0.75824 0.09158 0.16667 0.0434 Uiso
N2E N 1.03648 0.33334 0.33333 0.0526 Uiso
N2T N 0.66666 -0.03648 0.33333 0.0526 Uiso
loop_
_geom_bond_atom_site_label_1
_geom_bond_atom_site_label_2
_geom_bond_site_symmetry_1
_geom_bond_site_symmetry_2
N1 C1 1_555 1_555
C1 C2 1_555 1_555
Co1 N1 1_555 1_555
Cl1 Co1 1_555 1_555
N2 N1 1_555 1_555
C2 H1 1_555 1_555
N1U C1U 1_555 1_555
C1U C2 1_555 1_555
N2U N1U 1_555 1_555
N1I N2 1_555 1_555
C1I C1 1_555 1_555
C2I C1I 1_555 1_555
H1I C2I 1_555 1_555
N1DA N2U 1_555 1_555
C1DA C1U 1_555 1_555
Co1U N1U 1_555 1_555
Cl1M Co1 1_555 1_555
N1P Co1 1_555 1_555
N1Y Co1U 1_555 1_555
Co1E Cl1 1_555 1_555
Co1T N2U 1_555 1_555
Co1I Cl1M 1_555 1_555
Co1I_2 N1I 1_555 1_555
Co1DA N1DA 1_555 1_555
Cl1T Co1U 1_555 1_555
Cl1Y Co1U 1_555 1_555
N2E Co1 1_555 1_555
N2T Co1U 1_555 1_555
N2 Co1E 1_555 1_555
N1I C1I 1_555 1_555
C2I C1DA 1_555 1_555
N1DA C1DA 1_555 1_555
Co1T Cl1T 1_555 1_555

#END
