
#######################################################################
#
#                 Cambridge Crystallographic Data Centre
#                                CCDC 
#
#######################################################################
#
# If this CIF has been generated from an entry in the Cambridge 
# Structural Database, then it will include bibliographic, chemical, 
# crystal, experimental, refinement or atomic coordinate data resulting 
# from the CCDC's data processing and validation procedures.
#
#######################################################################

data_NEXXIZ
_chemical_formula_moiety         '(C36 H36 Li4 N4 O10)n'
_symmetry_cell_setting           orthorhombic
_symmetry_space_group_name_H-M   'I b a 2'
_symmetry_Int_Tables_number      45
_space_group_name_Hall           'I 2 -2c'
loop_
_symmetry_equiv_pos_site_id
_symmetry_equiv_pos_as_xyz
1 x,y,z
2 -x,-y,z
3 -x,y,1/2+z
4 x,-y,1/2+z
5 1/2+x,1/2+y,1/2+z
6 1/2-x,1/2-y,1/2+z
7 1/2-x,1/2+y,z
8 1/2+x,1/2-y,z
_cell_length_a                   28.467(6)
_cell_length_b                   28.594(6)
_cell_length_c                   12.960(3)
_cell_angle_alpha                90
_cell_angle_beta                 90
_cell_angle_gamma                90
_cell_volume                     10549.3
loop_
_atom_site_label
_atom_site_type_symbol
_atom_site_fract_x
_atom_site_fract_y
_atom_site_fract_z
_atom_site_U_iso_or_equiv
_atom_site_thermal_displace_type
Li1 Li 1.26735(14) 0.21850(12) 0.2654(3) 0.0419 Uani
Li2 Li 0.78419(13) 0.26177(12) 0.0686(3) 0.0397 Uani
Li3 Li 0.77847(13) 0.21516(12) 0.4172(3) 0.0409 Uani
Li4 Li 0.8369(3) -0.1418(2) -0.0887(6) 0.0907 Uani
O1 O 0.8345(2) -0.08525(14) -0.1617(3) 0.1277 Uani
N1 N 0.8631(4) -0.0166(4) -0.2283(11) 0.2340 Uani
C1 C 0.8521(3) -0.0605(3) -0.2289(6) 0.1423 Uani
H1 H 0.8586 -0.0762 -0.2919 0.1710 Uiso
C2 C 0.8878(6) 0.0077(5) -0.3072(10) 0.2320 Uani
C3 C 0.8506(9) 0.0102(5) -0.1147(10) 0.2857 Uani
O2 O 0.89370(17) -0.1276(2) -0.0107(4) 0.1380 Uani
N2 N 0.9575(2) -0.0841(3) 0.0298(8) 0.1730 Uani
C4 C 0.9226(2) -0.1139(2) 0.0498(8) 0.1430 Uani
H2 H 0.9203 -0.1254 0.1184 0.1710 Uiso
C5 C 0.9902(4) -0.0708(3) 0.1026(9) 0.1813 Uani
H3 H 0.9966 -0.0970 0.1491 0.2720 Uiso
H4 H 0.9780 -0.0443 0.1425 0.2720 Uiso
H5 H 1.0194 -0.0614 0.0680 0.2720 Uiso
C6 C 0.9582(6) -0.0554(8) -0.0806(9) 0.2653 Uani
H6 H 0.9902 -0.0552 -0.1085 0.3970 Uiso
H7 H 0.9477 -0.0232 -0.0693 0.3970 Uiso
H8 H 0.9371 -0.0708 -0.1298 0.3970 Uiso
O3 O 1.22692(5) 0.26569(5) 0.32404(11) 0.0369 Uani
O4 O 1.17698(6) 0.27767(6) 0.45366(11) 0.0466 Uani
O5 O 0.81457(5) 0.24356(6) 0.19728(11) 0.0421 Uani
O6 O 0.83538(5) 0.20153(6) 0.33477(12) 0.0491 Uani
N3 N 1.03227(8) 0.21726(17) 0.09848(18) 0.0892 Uani
C7 C 1.18572(7) 0.26755(7) 0.36117(15) 0.0382 Uani
C8 C 1.14539(7) 0.25651(9) 0.29098(16) 0.0469 Uani
C9 C 1.15321(7) 0.24428(10) 0.18898(17) 0.0518 Uani
H9 H 1.1844 0.2436 0.1629 0.0620 Uiso
C10 C 1.11577(9) 0.23297(14) 0.12411(17) 0.0667 Uani
H10 H 1.1214 0.2265 0.0533 0.0800 Uiso
C11 C 1.06984(8) 0.23118(15) 0.16321(18) 0.0696 Uani
C12 C 1.06214(8) 0.24489(15) 0.26472(19) 0.0694 Uani
H11 H 1.0310 0.2466 0.2909 0.0830 Uiso
C13 C 1.09952(8) 0.25603(12) 0.32741(17) 0.0584 Uani
H12 H 1.0938 0.2636 0.3976 0.0700 Uiso
C14 C 0.84394(7) 0.22074(8) 0.24962(16) 0.0428 Uani
C15 C 0.89293(8) 0.21765(10) 0.20634(17) 0.0520 Uani
C16 C 0.92613(8) 0.18724(12) 0.2505(2) 0.0599 Uani
H13 H 0.9173 0.1671 0.3055 0.0720 Uiso
C17 C 0.97199(9) 0.18682(14) 0.2131(2) 0.0678 Uani
H14 H 0.9942 0.1654 0.2407 0.0810 Uiso
C18 C 0.98538(9) 0.21775(17) 0.1352(2) 0.0748 Uani
C19 C 0.95238(10) 0.24829(17) 0.0899(2) 0.0783 Uani
H15 H 0.9612 0.2688 0.0357 0.0940 Uiso
C20 C 0.90671(9) 0.24749(13) 0.1267(2) 0.0637 Uani
H16 H 0.8841 0.2679 0.0969 0.0770 Uiso
C21 C 1.03869(12) 0.2222(3) -0.0143(2) 0.1339 Uani
H17 H 1.0084 0.2182 -0.0490 0.2010 Uiso
H18 H 1.0608 0.1984 -0.0389 0.2010 Uiso
H19 H 1.0512 0.2534 -0.0297 0.2010 Uiso
O7 O 0.73012(5) 0.23077(4) 0.01123(11) 0.0357 Uani
O8 O 0.70894(7) 0.18380(6) -0.11865(12) 0.0516 Uani
O9 O 0.78078(7) -0.15757(5) -0.00060(13) 0.0494 Uani
O10 O 0.74446(6) -0.18460(5) 0.13843(11) 0.0413 Uani
N4 N 0.7333(3) 0.03278(9) 0.2409(2) 0.1405 Uani
C22 C 0.72053(8) 0.19102(7) -0.02629(15) 0.0395 Uani
C23 C 0.72294(11) 0.14993(7) 0.04516(16) 0.0533 Uani
C24 C 0.73721(11) 0.15504(7) 0.14644(16) 0.0527 Uani
H20 H 0.7439 0.1854 0.1725 0.0630 Uiso
C25 C 0.74187(16) 0.11629(8) 0.21090(18) 0.0736 Uani
H21 H 0.7527 0.1203 0.2797 0.0880 Uiso
C26 C 0.7308(2) 0.07195(10) 0.1750(2) 0.1165 Uani
C27 C 0.7160(2) 0.06692(10) 0.0732(2) 0.1107 Uani
H22 H 0.7084 0.0367 0.0476 0.1330 Uiso
C28 C 0.71215(19) 0.10565(9) 0.0084(2) 0.0852 Uani
H23 H 0.7021 0.1017 -0.0610 0.1020 Uiso
C29 C 0.76153(8) -0.15206(7) 0.08573(16) 0.0428 Uani
C30 C 0.75747(12) -0.10337(7) 0.12955(18) 0.0556 Uani
C31 C 0.77824(19) -0.06561(10) 0.0824(3) 0.0873 Uani
H24 H 0.7977 -0.0700 0.0236 0.1050 Uiso
C32 C 0.7706(3) -0.02072(11) 0.1216(3) 0.1139 Uani
H25 H 0.7863 0.0049 0.0901 0.1370 Uiso
C33 C 0.7413(3) -0.01199(9) 0.2037(2) 0.1110 Uani
C34 C 0.7211(2) -0.05016(10) 0.2516(2) 0.0917 Uani
H26 H 0.7014 -0.0457 0.3098 0.1100 Uiso
C35 C 0.72975(15) -0.09516(9) 0.2149(2) 0.0706 Uani
H27 H 0.7161 -0.1210 0.2498 0.0850 Uiso
C36 C 0.7168(5) 0.03840(13) 0.3491(3) 0.2097 Uani
Li1A Li 0.73265(14) -0.21850(12) 0.2654(3) 0.0419 Uani
Li1B Li 0.73265(14) 0.21850(12) -0.2346(3) 0.0419 Uani
Li1G Li 0.76735(14) 0.28150(12) 0.2654(3) 0.0419 Uani
Li2B Li 1.21581(13) 0.26177(12) 0.5686(3) 0.0397 Uani
Li2F Li 0.71581(13) -0.23823(12) 0.0686(3) 0.0397 Uani
Li3C Li 0.77847(13) -0.21516(12) -0.0828(3) 0.0409 Uani
Li3E Li 0.72153(13) 0.28484(12) -0.0828(3) 0.0409 Uani
Li3G Li 1.27847(13) 0.28484(12) 0.4172(3) 0.0409 Uani
Li4C Li 0.8369(3) 0.1418(2) 0.4113(6) 0.0907 Uani
O3G O 0.72692(5) 0.23431(5) 0.32404(11) 0.0369 Uani
O4B O 0.82302(6) 0.27767(6) -0.04634(11) 0.0466 Uani
O5G O 1.31457(5) 0.25644(6) 0.19728(11) 0.0421 Uani
O6C O 0.83538(5) -0.20153(6) -0.16523(12) 0.0491 Uani
O7E O 0.76988(5) 0.26923(4) 0.51123(11) 0.0357 Uani
O8B O 1.29106(7) 0.18380(6) 0.38135(12) 0.0516 Uani
O9C O 0.78078(7) 0.15757(5) 0.49940(13) 0.0494 Uani
O10A O 1.25554(6) 0.18460(5) 0.13843(11) 0.0413 Uani
O10F O 0.75554(6) 0.31540(5) 0.13843(11) 0.0413 Uani
loop_
_atom_site_aniso_label
_atom_site_aniso_U_11
_atom_site_aniso_U_22
_atom_site_aniso_U_33
_atom_site_aniso_U_23
_atom_site_aniso_U_13
_atom_site_aniso_U_12
Li1 0.0552(18) 0.0391(15) 0.0314(16) -0.0018(12) 0.0022(13) -0.0038(12)
Li2 0.0486(16) 0.0425(16) 0.0279(15) -0.0045(12) -0.0008(12) 0.0057(12)
Li3 0.0479(16) 0.0424(16) 0.0324(16) 0.0026(13) 0.0013(12) 0.0009(12)
Li4 0.117(5) 0.074(3) 0.081(4) -0.018(3) 0.015(4) -0.030(3)
O1 0.204(4) 0.091(2) 0.088(2) 0.0083(18) 0.029(3) -0.048(3)
N1 0.194(7) 0.225(8) 0.283(11) 0.167(9) -0.013(8) -0.067(7)
C1 0.182(7) 0.140(5) 0.105(4) 0.032(4) 0.015(4) -0.035(5)
C2 0.313(16) 0.181(9) 0.202(11) 0.089(9) 0.043(11) -0.092(10)
C3 0.57(3) 0.159(10) 0.128(8) -0.021(7) -0.021(14) 0.107(15)
O2 0.131(3) 0.176(4) 0.107(3) -0.012(3) -0.027(2) -0.061(3)
N2 0.108(3) 0.176(6) 0.235(9) -0.078(6) 0.024(5) -0.025(4)
C4 0.115(4) 0.123(4) 0.191(8) -0.058(5) -0.009(4) -0.039(3)
C5 0.202(9) 0.114(4) 0.228(11) -0.051(6) -0.033(8) -0.017(5)
C6 0.248(14) 0.43(3) 0.118(6) 0.023(12) 0.053(8) -0.110(16)
O3 0.0396(6) 0.0400(7) 0.0310(6) 0.0061(5) -0.0001(5) -0.0004(4)
O4 0.0478(7) 0.0638(9) 0.0281(7) -0.0019(6) -0.0006(6) 0.0047(6)
O5 0.0437(7) 0.0535(7) 0.0292(6) 0.0007(6) -0.0005(5) 0.0052(5)
O6 0.0462(7) 0.0691(10) 0.0319(7) 0.0068(7) 0.0015(6) 0.0152(6)
N3 0.0384(10) 0.200(4) 0.0291(10) -0.0132(14) -0.0007(8) -0.0023(14)
C7 0.0418(9) 0.0445(9) 0.0283(8) 0.0044(6) 0.0006(6) 0.0051(6)
C8 0.0395(9) 0.0730(14) 0.0283(9) 0.0062(8) -0.0004(7) 0.0040(8)
C9 0.0388(8) 0.0881(16) 0.0284(9) 0.0025(9) 0.0015(7) 0.0039(9)
C10 0.0441(11) 0.134(3) 0.0219(9) -0.0047(11) 0.0026(8) 0.0048(12)
C11 0.0373(10) 0.146(3) 0.0255(10) -0.0056(13) -0.0006(8) 0.0034(12)
C12 0.0369(10) 0.144(3) 0.0272(10) -0.0094(13) 0.0000(8) 0.0017(13)
C13 0.0408(10) 0.112(2) 0.0225(8) -0.0041(10) -0.0029(7) 0.0036(10)
C14 0.0398(8) 0.0576(11) 0.0311(9) -0.0023(7) 0.0017(7) 0.0047(7)
C15 0.0427(10) 0.0834(15) 0.0299(9) -0.0040(9) -0.0026(7) 0.0064(9)
C16 0.0416(10) 0.100(2) 0.0380(11) -0.0097(11) -0.0011(8) 0.0127(11)
C17 0.0434(11) 0.118(2) 0.0421(12) -0.0102(13) -0.0026(9) 0.0210(13)
C18 0.0400(11) 0.154(3) 0.0303(10) -0.0111(14) -0.0032(8) 0.0042(13)
C19 0.0445(12) 0.158(3) 0.0323(11) 0.0124(16) -0.0017(9) -0.0072(15)
C20 0.0483(12) 0.107(2) 0.0357(11) 0.0068(12) 0.0005(9) -0.0033(12)
C21 0.0496(14) 0.323(9) 0.0291(13) -0.025(3) 0.0004(11) -0.014(3)
O7 0.0501(7) 0.0294(6) 0.0275(6) 0.0003(5) 0.0039(5) -0.0019(4)
O8 0.0814(11) 0.0448(8) 0.0285(7) 0.0010(6) 0.0007(7) -0.0163(7)
O9 0.0769(10) 0.0384(7) 0.0328(7) -0.0012(5) 0.0089(7) -0.0096(6)
O10 0.0621(8) 0.0299(6) 0.0318(6) 0.0002(5) 0.0012(6) -0.0034(5)
N4 0.359(8) 0.0276(12) 0.0350(13) -0.0012(9) 0.019(2) 0.0104(19)
C22 0.0605(10) 0.0328(8) 0.0252(8) 0.0020(6) 0.0056(7) -0.0076(7)
C23 0.1039(19) 0.0303(9) 0.0256(9) -0.0004(7) 0.0051(9) -0.0110(9)
C24 0.1010(18) 0.0310(9) 0.0261(9) 0.0012(7) 0.0045(9) -0.0008(9)
C25 0.163(3) 0.0323(10) 0.0256(10) -0.0004(8) 0.0030(13) 0.0043(13)
C26 0.289(7) 0.0282(11) 0.0323(13) 0.0010(9) 0.013(2) -0.0005(19)
C27 0.268(6) 0.0320(11) 0.0320(12) -0.0019(9) 0.008(2) -0.0270(19)
C28 0.188(4) 0.0360(11) 0.0315(11) 0.0008(9) 0.0028(16) -0.0242(15)
C29 0.0690(12) 0.0308(8) 0.0287(9) -0.0023(6) -0.0017(8) -0.0046(7)
C30 0.1035(19) 0.0313(9) 0.0319(9) -0.0013(7) 0.0029(10) -0.0042(10)
C31 0.178(4) 0.0378(12) 0.0460(14) -0.0048(10) 0.0171(18) -0.0260(16)
C32 0.261(7) 0.0315(12) 0.0491(16) -0.0061(11) 0.032(3) -0.030(2)
C33 0.272(6) 0.0290(12) 0.0320(13) -0.0027(9) 0.004(2) 0.0060(18)
C34 0.208(5) 0.0358(12) 0.0314(11) 0.0024(9) 0.0152(17) 0.0228(17)
C35 0.143(3) 0.0321(10) 0.0366(12) -0.0031(9) 0.0108(14) 0.0099(12)
C36 0.539(17) 0.0432(17) 0.047(2) 0.0078(15) 0.076(5) 0.029(4)
Li1A 0.0552 0.0391 0.0314 0.0018 -0.0022 -0.0038
Li1B 0.0552 0.0391 0.0314 -0.0018 -0.0022 0.0038
Li1G 0.0552 0.0391 0.0314 0.0018 0.0022 0.0038
Li2B 0.0486 0.0425 0.0279 -0.0045 0.0008 -0.0057
Li2F 0.0486 0.0425 0.0279 -0.0045 0.0008 -0.0057
Li3C 0.0479 0.0424 0.0324 -0.0026 0.0013 -0.0009
Li3E 0.0479 0.0424 0.0324 -0.0026 -0.0013 0.0009
Li3G 0.0479 0.0424 0.0324 -0.0026 0.0013 -0.0009
Li4C 0.117 0.074 0.081 0.018 0.015 0.03
O3G 0.0396 0.04 0.031 -0.0061 -0.0001 0.0004
O4B 0.0478 0.0638 0.0281 -0.0019 0.0006 -0.0047
O5G 0.0437 0.0535 0.0292 -0.0007 -0.0005 -0.0052
O6C 0.0462 0.0691 0.0319 -0.0068 0.0015 -0.0152
O7E 0.0501 0.0294 0.0275 -0.0003 -0.0039 -0.0019
O8B 0.0814 0.0448 0.0285 0.001 -0.0007 0.0163
O9C 0.0769 0.0384 0.0328 0.0012 0.0089 0.0096
O10A 0.0621 0.0299 0.0318 -0.0002 -0.0012 -0.0034
O10F 0.0621 0.0299 0.0318 0.0002 -0.0012 0.0034
loop_
_geom_bond_atom_site_label_1
_geom_bond_atom_site_label_2
_geom_bond_site_symmetry_1
_geom_bond_site_symmetry_2
Li1 O3 1_555 1_555
Li2 O5 1_555 1_555
Li3 O6 1_555 1_555
Li4 O1 1_555 1_555
O1 C1 1_555 1_555
N1 C1 1_555 1_555
C1 H1 1_555 1_555
C2 N1 1_555 1_555
C3 N1 1_555 1_555
O2 Li4 1_555 1_555
N2 C4 1_555 1_555
C4 O2 1_555 1_555
H2 C4 1_555 1_555
C5 N2 1_555 1_555
H3 C5 1_555 1_555
H4 C5 1_555 1_555
H5 C5 1_555 1_555
C6 N2 1_555 1_555
H6 C6 1_555 1_555
H7 C6 1_555 1_555
H8 C6 1_555 1_555
O3 C7 1_555 1_555
O4 C7 1_555 1_555
O5 C14 1_555 1_555
O6 C14 1_555 1_555
N3 C11 1_555 1_555
C7 C8 1_555 1_555
C8 C9 1_555 1_555
C9 H9 1_555 1_555
C10 C9 1_555 1_555
H10 C10 1_555 1_555
C11 C10 1_555 1_555
C12 C11 1_555 1_555
H11 C12 1_555 1_555
C13 C8 1_555 1_555
H12 C13 1_555 1_555
C14 C15 1_555 1_555
C15 C16 1_555 1_555
C16 H13 1_555 1_555
C17 C16 1_555 1_555
H14 C17 1_555 1_555
C18 N3 1_555 1_555
C19 C18 1_555 1_555
H15 C19 1_555 1_555
C20 C15 1_555 1_555
H16 C20 1_555 1_555
C21 N3 1_555 1_555
H17 C21 1_555 1_555
H18 C21 1_555 1_555
H19 C21 1_555 1_555
O7 Li2 1_555 1_555
O8 C22 1_555 1_555
O9 Li4 1_555 1_555
O10 C29 1_555 1_555
N4 C26 1_555 1_555
C22 O7 1_555 1_555
C23 C22 1_555 1_555
C24 C23 1_555 1_555
H20 C24 1_555 1_555
C25 C24 1_555 1_555
H21 C25 1_555 1_555
C26 C25 1_555 1_555
C27 C26 1_555 1_555
H22 C27 1_555 1_555
C28 C23 1_555 1_555
H23 C28 1_555 1_555
C29 O9 1_555 1_555
C30 C29 1_555 1_555
C31 C30 1_555 1_555
H24 C31 1_555 1_555
C32 C31 1_555 1_555
H25 C32 1_555 1_555
C33 N4 1_555 1_555
C34 C33 1_555 1_555
H26 C34 1_555 1_555
C35 C30 1_555 1_555
H27 C35 1_555 1_555
C36 N4 1_555 1_555
Li1A O10 1_555 1_555
Li1B O8 1_555 1_555
Li1G O5 1_555 1_555
Li2B O4 1_555 1_555
Li2F O10 1_555 1_555
Li3C O9 1_555 1_555
Li3E O7 1_555 1_555
Li3G O3 1_555 1_555
Li4C O6 1_555 1_555
O3G Li3 1_555 1_555
O4B Li2 1_555 1_555
O5G Li1 1_555 1_555
O6C Li4 1_555 1_555
O7E Li3 1_555 1_555
O8B Li1 1_555 1_555
O9C Li3 1_555 1_555
O10A Li1 1_555 1_555
O10F Li2 1_555 1_555
C12 C13 1_555 1_555
C17 C18 1_555 1_555
C19 C20 1_555 1_555
C27 C28 1_555 1_555
C32 C33 1_555 1_555
C34 C35 1_555 1_555
Li1G O3G 1_555 1_555
Li1G O10F 1_555 1_555
Li3C O6C 1_555 1_555
Li4C O9C 1_555 1_555

#END
