
#######################################################################
#
#                 Cambridge Crystallographic Data Centre
#                                CCDC 
#
#######################################################################
#
# If this CIF has been generated from an entry in the Cambridge 
# Structural Database, then it will include bibliographic, chemical, 
# crystal, experimental, refinement or atomic coordinate data resulting 
# from the CCDC's data processing and validation procedures.
#
#######################################################################

data_ECIVUH
_chemical_formula_moiety         'C24 H48 Ag6 N11 O14'
_symmetry_cell_setting           orthorhombic
_symmetry_space_group_name_H-M   'P n n m'
_symmetry_Int_Tables_number      58
_space_group_name_Hall           '-P 2 2n'
loop_
_symmetry_equiv_pos_site_id
_symmetry_equiv_pos_as_xyz
1 x,y,z
2 x,y,-z
3 1/2+x,1/2-y,1/2+z
4 1/2-x,1/2+y,1/2+z
5 -x,-y,-z
6 -x,-y,z
7 1/2-x,1/2+y,1/2-z
8 1/2+x,1/2-y,1/2-z
_cell_length_a                   10.092(5)
_cell_length_b                   21.818(8)
_cell_length_c                   6.523(4)
_cell_angle_alpha                90
_cell_angle_beta                 90
_cell_angle_gamma                90
_cell_volume                     1436.28
loop_
_atom_site_label
_atom_site_type_symbol
_atom_site_fract_x
_atom_site_fract_y
_atom_site_fract_z
O5 O 0.7050(6) 0.6088(3) 0.0000
H17 H 0.7289 0.5712 0.0000
H18 H 0.6210 0.6098 0.0000
O6 O 0.8534(10) 0.5019(4) 0.0000
H19 H 0.8338 0.4803 0.1041
H19A H 0.8338 0.4803 -0.1041
O7 O 0.7061(9) 0.3904(4) 0.0000
H20 H 0.6771 0.3816 0.1169
H20A H 0.6771 0.3816 -0.1169
O8 O 1.0000 0.5000 0.338(2)
H21 H 0.9829 0.5309 0.4125
H21E H 1.0171 0.4691 0.4125
Ag1 Ag 0.55524(4) 0.72995(2) 0.5000
N1 N 0.7794(4) 0.7007(2) 0.5000
N2 N 0.9871(3) 0.71649(14) 0.6892(5)
N3 N 0.9500(5) 0.6215(2) 0.5000
C1 C 0.8061(6) 0.6334(2) 0.5000
H1 H 0.7663 0.6149 0.6204
C2 C 0.8420(4) 0.72725(16) 0.6838(6)
H3 H 0.8020 0.7093 0.8050
H4 H 0.8252 0.7710 0.6871
C3 C 1.0444(6) 0.7435(3) 0.5000
H5 H 1.0282 0.7873 0.5000
H6 H 1.1396 0.7372 0.5000
C4 C 1.0091(4) 0.64909(18) 0.6837(7)
H7 H 1.1036 0.6408 0.6854
H8 H 0.9704 0.6306 0.8049
O1 O 0.3840(18) 0.6507(12) 0.551(4)
O2 O 0.469(5) 0.6272(19) 0.741(6)
C5 C 0.405(2) 0.6133(7) 0.413(5)
C6 C 0.3573(15) 0.5466(7) 0.413(5)
H9 H 0.3095 0.5393 0.5393
H10 H 0.2958 0.5407 0.3001
C7 C 0.4676(14) 0.4999(8) 0.396(3)
H11 H 0.5164 0.5079 0.2704
H12 H 0.4289 0.4593 0.3839
C2A C 0.8420(4) 0.72725(16) 0.3162(6)
N2A N 0.9871(3) 0.71649(14) 0.3108(5)
C4A C 1.0091(4) 0.64909(18) 0.3163(7)
H7A H 1.1036 0.6408 0.3146
H8A H 0.9704 0.6306 0.1951
H3A H 0.8020 0.7093 0.1950
H4A H 0.8252 0.7710 0.3129
H1A H 0.7663 0.6149 0.3796
O1A O 0.3840(18) 0.6507(12) 0.449(4)
O2A O 0.469(5) 0.6272(19) 0.259(6)
C5A C 0.405(2) 0.6133(7) 0.587(5)
C6A C 0.3573(15) 0.5466(7) 0.587(5)
H9A H 0.3095 0.5393 0.4607
C7A C 0.4676(14) 0.4999(8) 0.604(3)
H10A H 0.2958 0.5407 0.6999
C7E C 0.5324(14) 0.5001(8) 0.396(3)
C6E C 0.6427(15) 0.4534(7) 0.413(5)
C5E C 0.595(2) 0.3867(7) 0.413(5)
O1E O 0.6160(18) 0.3493(12) 0.551(4)
O1D O 0.6160(18) 0.3493(12) 0.449(4)
O2E O 0.531(5) 0.3728(19) 0.741(6)
C5D C 0.595(2) 0.3867(7) 0.587(5)
O2D O 0.531(5) 0.3728(19) 0.259(6)
C6D C 0.6427(15) 0.4534(7) 0.587(5)
H9D H 0.6905 0.4607 0.4607
H9E H 0.6905 0.4607 0.5393
H10D H 0.7042 0.4593 0.6999
C7D C 0.5324(14) 0.5001(8) 0.604(3)
H11D H 0.4836 0.4921 0.7296
H11A H 0.5164 0.5079 0.7296
H12D H 0.5711 0.5407 0.6161
H12A H 0.4289 0.4593 0.6161
H11E H 0.4836 0.4921 0.2704
H12E H 0.5711 0.5407 0.3839
H10E H 0.7042 0.4593 0.3001
N1B N 0.2794(4) 0.7993(2) 0.0000
N2B N 0.4871(3) 0.78351(14) 0.1892(5)
N3B N 0.4500(5) 0.8785(2) 0.0000
C1B C 0.3061(6) 0.8666(2) 0.0000
H1B H 0.2663 0.8851 0.1204
C2B C 0.3420(4) 0.77275(16) 0.1838(6)
H3B H 0.3020 0.7907 0.3050
H4B H 0.3252 0.7290 0.1871
C3B C 0.5444(6) 0.7565(3) 0.0000
H5B H 0.5282 0.7127 0.0000
H6B H 0.6396 0.7628 0.0000
C4B C 0.5091(4) 0.85091(18) 0.1837(7)
H7B H 0.6036 0.8592 0.1854
H8B H 0.4704 0.8694 0.3049
C2G C 0.3420(4) 0.77275(16) -0.1838(6)
N2G N 0.4871(3) 0.78351(14) -0.1892(5)
C4G C 0.5091(4) 0.85091(18) -0.1837(7)
H7G H 0.6036 0.8592 -0.1854
H8G H 0.4704 0.8694 -0.3049
H3G H 0.3020 0.7907 -0.3050
H4G H 0.3252 0.7290 -0.1871
H1G H 0.2663 0.8851 -0.1204
Ag1B Ag 0.05524(4) 0.77005(2) 0.0000
N2G_2 N 0.4871(3) 0.78351(14) 0.8108(5)
Ag1B_2 Ag 1.05524(4) 0.77005(2) 1.0000
Ag1B_3 Ag 1.05524(4) 0.77005(2) 0.0000
Ag1D Ag 0.44476(4) 0.27005(2) 0.5000
Ag1_2 Ag 0.55524(4) 0.72995(2) -0.5000
N2_2 N -0.0129(3) 0.71649(14) -0.3108(5)
N2A_2 N -0.0129(3) 0.71649(14) 0.3108(5)
O1B O -0.1160(18) 0.8493(12) 0.051(4)
O1G O -0.1160(18) 0.8493(12) -0.051(4)
loop_
_geom_bond_atom_site_label_1
_geom_bond_atom_site_label_2
_geom_bond_site_symmetry_1
_geom_bond_site_symmetry_2
Ag1 N1 1_555 1_555
N1 C1 1_555 1_555
N2 C2 1_555 1_555
N3 C1 1_555 1_555
C1 H1 1_555 1_555
C2 N1 1_555 1_555
H3 C2 1_555 1_555
H4 C2 1_555 1_555
C3 N2 1_555 1_555
H5 C3 1_555 1_555
H6 C3 1_555 1_555
C4 N2 1_555 1_555
H7 C4 1_555 1_555
H8 C4 1_555 1_555
O1 Ag1 1_555 1_555
O2 O1 1_555 1_555
C5 O1 1_555 1_555
C6 C5 1_555 1_555
H9 C6 1_555 1_555
H10 C6 1_555 1_555
C7 C6 1_555 1_555
H11 C7 1_555 1_555
H12 C7 1_555 1_555
O5 H17 1_555 1_555
H18 O5 1_555 1_555
O6 H19 1_555 1_555
O7 H20 1_555 1_555
O8 H21 1_555 1_555
C2A N1 1_555 1_555
N2A C3 1_555 1_555
C4A N3 1_555 1_555
H7A C4A 1_555 1_555
H8A C4A 1_555 1_555
H3A C2A 1_555 1_555
H4A C2A 1_555 1_555
H1A C1 1_555 1_555
O1A Ag1 1_555 1_555
O2A C5 1_555 1_555
C5A O1 1_555 1_555
C6A C6 1_555 1_555
H9A C6 1_555 1_555
C7A C7 1_555 1_555
H10A C6A 1_555 1_555
C7E C7 1_555 1_555
C6E C7E 1_555 1_555
C5E C6E 1_555 1_555
O1E C5E 1_555 1_555
O1D C5E 1_555 1_555
O2E O1E 1_555 1_555
C5D C5E 1_555 1_555
O2D C5E 1_555 1_555
C6D C6E 1_555 1_555
H9D C6E 1_555 1_555
H9E C6E 1_555 1_555
H10D C6D 1_555 1_555
C7D C7 1_555 1_555
H11D C7A 1_555 1_555
H11A C7A 1_555 1_555
H12D C7D 1_555 1_555
H12A C7A 1_555 1_555
H11E C7 1_555 1_555
H12E C7E 1_555 1_555
H10E C6E 1_555 1_555
H19A O6 1_555 1_555
H20A O7 1_555 1_555
H21E O8 1_555 1_555
N1B C1B 1_555 1_555
N2B Ag1 1_555 1_555
N3B C1B 1_555 1_555
C1B H1B 1_555 1_555
C2B N1B 1_555 1_555
H3B C2B 1_555 1_555
H4B C2B 1_555 1_555
C3B N2B 1_555 1_555
H5B C3B 1_555 1_555
H6B C3B 1_555 1_555
C4B N2B 1_555 1_555
H7B C4B 1_555 1_555
H8B C4B 1_555 1_555
C2G N1B 1_555 1_555
N2G C3B 1_555 1_555
C4G N3B 1_555 1_555
H7G C4G 1_555 1_555
H8G C4G 1_555 1_555
H3G C2G 1_555 1_555
H4G C2G 1_555 1_555
H1G C1B 1_555 1_555
Ag1B N1B 1_555 1_555
N2G_2 Ag1 1_555 1_555
Ag1B_2 N2 1_555 1_555
Ag1B_3 N2A 1_555 1_555
Ag1D O1E 1_555 1_555
Ag1_2 N2G 1_555 1_555
N2_2 Ag1B 1_555 1_555
N2A_2 Ag1B 1_555 1_555
O1B Ag1B 1_555 1_555
O1G Ag1B 1_555 1_555
N3 C4 1_555 1_555
O1 O1A 1_555 1_555
O2 C5A 1_555 1_555
C5 O1A 1_555 1_555
C5 C5A 1_555 1_555
H9 C6A 1_555 1_555
H9 H9A 1_555 1_555
H11 C7E 1_555 1_555
H11 H11E 1_555 1_555
C2A N2A 1_555 1_555
N2A C4A 1_555 1_555
O1A O2A 1_555 1_555
O1A C5A 1_555 1_555
C5A C6A 1_555 1_555
C6A H9A 1_555 1_555
C6A C7A 1_555 1_555
C7A C7E 1_555 1_555
C7A C7D 1_555 1_555
C7E H11E 1_555 1_555
C7E C7D 1_555 1_555
O1E O1D 1_555 1_555
O1E C5D 1_555 1_555
O1D O2D 1_555 1_555
O1D C5D 1_555 1_555
O1D Ag1D 1_555 1_555
O2E C5D 1_555 1_555
C5D C6D 1_555 1_555
C6D H9D 1_555 1_555
C6D C7D 1_555 1_555
C6D H9E 1_555 1_555
H9D H9E 1_555 1_555
C7D H11D 1_555 1_555
C7D H11A 1_555 1_555
H11D H11A 1_555 1_555
N2B C2B 1_555 1_555
N3B C4B 1_555 1_555
C2G N2G 1_555 1_555
N2G C4G 1_555 1_555
O1B O1G 1_555 1_555

#END
