
#######################################################################
#
#                 Cambridge Crystallographic Data Centre
#                                CCDC 
#
#######################################################################
#
# If this CIF has been generated from an entry in the Cambridge 
# Structural Database, then it will include bibliographic, chemical, 
# crystal, experimental, refinement or atomic coordinate data resulting 
# from the CCDC's data processing and validation procedures.
#
#######################################################################

data_LEZJUW
_chemical_formula_moiety         'C316 H241 Cu54 N28 O241'
_symmetry_cell_setting           trigonal
_symmetry_space_group_name_H-M   'P -3'
_symmetry_Int_Tables_number      147
_space_group_name_Hall           '-P 3'
loop_
_symmetry_equiv_pos_site_id
_symmetry_equiv_pos_as_xyz
1 x,y,z
2 -y,x-y,z
3 -x+y,-x,z
4 -x,-y,-z
5 y,-x+y,-z
6 x-y,x,-z
_cell_length_a                   28.937(3)
_cell_length_b                   28.937(3)
_cell_length_c                   10.6939(14)
_cell_angle_alpha                90
_cell_angle_beta                 90
_cell_angle_gamma                120
_cell_volume                     7754.86
loop_
_atom_site_label
_atom_site_type_symbol
_atom_site_fract_x
_atom_site_fract_y
_atom_site_fract_z
O2 O 0.96904(10) 0.06699(10) 0.1786(2)
H8 H 0.9689 0.0562 0.2525
O3 O 0.65566(12) 0.41629(11) 0.0253(3)
H9 H 0.6343 0.4043 -0.0363
H10 H 0.6383 0.4134 0.0917
O4 O 0.54426(10) 0.26947(10) 0.8230(2)
H11 H 0.5712 0.2739 0.7861
H12 H 0.5388 0.2517 0.8904
O5 O 0.05446(10) 0.09360(10) 0.1212(2)
H13 H 0.0883 0.1117 0.1158
H14 H 0.0416 0.1141 0.1125
O6 O 0.33736(12) 0.15020(12) 0.5218(2)
H15 H 0.3670 0.1667 0.4835
H16 H 0.3167 0.1610 0.4958
O7 O 0.5000 0.5000 0.5000
O8 O 1.0000 1.0000 0.0000
O9 O 0.6667 0.3333 0.3904(4)
O10 O 0.6667 0.3333 0.0963(4)
O11 O 0.6667 0.3333 0.7298(3)
O12 O 0.71654(11) 0.43328(11) 0.1764(2)
H17 H 0.7268 0.4632 0.2119
H18 H 0.7387 0.4228 0.1916
C4 C 1.01513(16) 0.30267(17) 0.1743(3)
C5 C 1.05019(16) 0.35782(15) 0.1634(3)
H19 H 1.0869 0.3716 0.1599
C6 C 1.02970(15) 0.39062(18) 0.1605(3)
C7 C 0.97408(16) 0.36974(18) 0.1682(3)
H20 H 0.9600 0.3924 0.1656
C8 C 0.94165(14) 0.31551(15) 0.1772(3)
C9 C 0.95972(16) 0.28117(17) 0.1838(3)
H21 H 0.9369 0.2446 0.1925
C10 C 1.08590(15) 0.28422(16) 0.1651(4)
H22 H 1.1055 0.3055 0.2370
H23 H 1.0985 0.3068 0.0915
C11 C 1.09653(16) 0.23928(17) 0.1477(3)
C12 C 1.04998(15) 0.48011(16) 0.1670(3)
H24 H 1.0344 0.4766 0.2493
H25 H 1.0233 0.4744 0.1046
C13 C 1.09853(15) 0.53522(16) 0.1524(3)
C14 C 0.85061(14) 0.24395(15) 0.1958(3)
H26 H 0.8536 0.2318 0.2784
H27 H 0.8581 0.2241 0.1338
C15 C 0.79658(16) 0.23599(17) 0.1753(4)
C16 C 0.65442(17) 0.03927(19) 0.1816(4)
C17 C 0.61848(16) -0.01495(17) 0.1785(4)
H28 H 0.5820 -0.0280 0.1847
C18 C 0.63981(17) -0.04958(18) 0.1624(3)
C19 C 0.69476(16) -0.02876(17) 0.1641(3)
H29 H 0.7086 -0.0516 0.1594
C20 C 0.72812(16) 0.02499(17) 0.1690(4)
C21 C 0.70936(17) 0.05956(18) 0.1792(4)
H30 H 0.7323 0.0962 0.1857
C22 C 0.58119(15) 0.05721(16) 0.1860(3)
H31 H 0.5643 0.0382 0.2625
H32 H 0.5653 0.0327 0.1164
C23 C 0.57238(18) 0.10308(17) 0.1699(4)
C24 C 0.62060(15) -0.13803(16) 0.1575(3)
H33 H 0.6404 -0.1355 0.2328
H34 H 0.6441 -0.1303 0.0863
C25 C 0.57561(16) -0.19270(18) 0.1453(3)
C26 C 0.81812(15) 0.09593(16) 0.1852(3)
H35 H 0.8138 0.1052 0.2699
H36 H 0.8124 0.1184 0.1274
C27 C 0.87433(15) 0.10296(16) 0.1647(3)
C28 C 1.01634(16) 0.14541(17) 0.4242(4)
H37 H 1.0378 0.1376 0.3741
C29 C 1.01588(15) 0.13811(17) 0.5496(3)
H38 H 1.0367 0.1254 0.5856
C30 C 0.98404(14) 0.14869(15) 0.6264(3)
H39 H 0.9833 0.1438 0.7125
C31 C 0.95266(16) 0.16820(16) 0.5721(3)
H40 H 0.9312 0.1760 0.6222
C32 C 0.95354(16) 0.17632(17) 0.4449(3)
H41 H 0.9327 0.1892 0.4088
C33 C 1.2000(4) 0.6816(4) 0.4146(7)
H42 H 1.2295 0.7040 0.3661
C34 C 1.2022(4) 0.6783(4) 0.5378(8)
H43 H 1.2351 0.6999 0.5757
C35 C 1.1642(3) 0.6489(3) 0.6193(8)
C36 C 1.1171(3) 0.6165(3) 0.5632(6)
H44 H 1.0876 0.5941 0.6116
C37 C 1.1040(3) 0.6193(3) 0.4337(7)
H45 H 1.0711 0.5977 0.3958
C38 C 1.1927(3) 0.5383(3) 0.5688(7)
H46 H 1.2026 0.5697 0.6126
C39 C 1.1968(3) 0.5475(4) 0.4250(7)
H47 H 1.2068 0.5790 0.3818
C40 C 1.1779(3) 0.4950(3) 0.3617(7)
C41 C 1.1691(3) 0.4496(3) 0.4116(6)
H48 H 1.1592 0.4182 0.3678
C42 C 1.1699(3) 0.4527(3) 0.5534(7)
H49 H 1.1600 0.4213 0.5966
N2 N 0.98633(13) 0.16410(13) 0.3687(3)
N3 N 1.1538(17) 0.6488(16) 0.365(3)
N4 N 1.1796(9) 0.4960(8) 0.6196(18)
O13 O 1.05891(10) 0.19242(11) 0.1683(2)
O14 O 1.14312(10) 0.24976(11) 0.1248(2)
O15 O 1.03154(10) 0.26547(10) 0.1821(2)
O16 O 1.08864(10) 0.57470(11) 0.1744(2)
O17 O 1.14252(10) 0.54276(11) 0.1319(2)
O18 O 1.06657(12) 0.44360(11) 0.1519(2)
O19 O 0.75940(10) 0.18716(11) 0.1950(2)
O20 O 0.78796(10) 0.27185(10) 0.14999(19)
O21 O 0.88739(10) 0.29977(11) 0.1816(2)
O22 O 0.60900(10) 0.14906(11) 0.1677(2)
O23 O 0.52404(11) 0.08786(12) 0.1487(2)
O24 O 0.63671(10) 0.07518(11) 0.1899(2)
O25 O 0.52760(12) -0.20124(12) 0.1541(2)
O26 O 0.58209(11) -0.22978(10) 0.1297(2)
O27 O 0.60295(9) -0.10067(10) 0.16222(19)
O28 O 0.90942(11) 0.15072(10) 0.1917(2)
O29 O 0.87969(10) 0.06752(10) 0.1352(2)
O30 O 0.78261(10) 0.04270(10) 0.1606(2)
O31 O 0.97771(11) 0.15953(12) 0.0039(2)
Cu1 Cu 0.983940(18) 0.16773(2) 0.18235(4)
Cu2 Cu 1.14707(4) 0.65046(4) 0.17633(8)
Cu3 Cu 1.16294(4) 0.47808(4) 0.16651(9)
Cu4 Cu 0.68437(4) 0.17100(4) 0.19115(8)
Cu5 Cu 0.84344(4) 0.35373(4) 0.20434(8)
H50 H 0.9865 0.1915 -0.0303
H51 H 0.9470 0.1383 -0.0198
O32 O 1.15077(10) 0.64505(11) -0.0083(2)
O33 O 1.17600(10) 0.48686(11) -0.0105(2)
N4E N 0.6836(12) 0.1796(9) 0.3804(18)
C38E C 0.6544(4) 0.1927(3) 0.4312(7)
H46E H 0.6329 0.2026 0.3874
C39E C 0.6493(5) 0.1968(3) 0.5750(7)
H47E H 0.6278 0.2068 0.6182
C40E C 0.6829(4) 0.1779(3) 0.6383(7)
C41E C 0.7195(4) 0.1691(3) 0.5884(6)
H48E H 0.7410 0.1592 0.6322
C42E C 0.7172(4) 0.1699(3) 0.4466(7)
H49E H 0.7387 0.1600 0.4034
Cu3E Cu 0.68486(6) 0.16294(4) 0.83349(9)
O17E O 0.59976(15) 0.14252(10) 0.8681(2)
C13E C 0.56331(22) 0.09853(15) 0.8476(3)
C12E C 0.56987(22) 0.04998(15) 0.8330(3)
H24E H 0.5578 0.0344 0.7507
H25E H 0.5489 0.0233 0.8954
O18E O 0.62297(16) 0.06657(12) 0.8481(2)
C6E C 0.63908(23) 0.02970(15) 0.8395(3)
C5E C 0.69237(22) 0.05019(16) 0.8366(3)
C4E C 0.71246(23) 0.01513(16) 0.8257(3)
C9E C 0.67855(23) -0.04028(16) 0.8162(3)
C8E C 0.62614(21) -0.05835(14) 0.8228(3)
C7E C 0.60434(24) -0.02592(16) 0.8318(3)
H20E H 0.5676 -0.0400 0.8344
O21E O 0.58762(15) -0.11261(10) 0.8184(2)
C14E C 0.60666(21) -0.14939(14) 0.8042(3)
H26E H 0.6218 -0.1464 0.7216
H27E H 0.6340 -0.1419 0.8662
C15E C 0.56059(23) -0.20342(16) 0.8247(4)
O19E O 0.57224(15) -0.24060(10) 0.8050(2)
Cu4E Cu 0.51337(6) -0.31563(4) 0.80885(8)
N4A N 0.5040(8) -0.3164(12) 0.6196(18)
C38A C 0.4617(3) -0.3456(4) 0.5688(7)
H46A H 0.4303 -0.3671 0.6126
C39A C 0.4525(4) -0.3507(5) 0.4250(7)
H47A H 0.4210 -0.3722 0.3818
C40A C 0.5050(3) -0.3171(4) 0.3617(7)
C41A C 0.5504(3) -0.2805(4) 0.4116(6)
H48A H 0.5818 -0.2590 0.3678
C42A C 0.5473(3) -0.2828(4) 0.5534(7)
H49A H 0.5787 -0.2613 0.5966
Cu3A Cu 0.52192(4) -0.31514(6) 0.16651(9)
O17A O 0.45724(11) -0.40024(15) 0.1319(2)
C13A C 0.46478(16) -0.43669(22) 0.1524(3)
C12A C 0.51989(16) -0.43013(22) 0.1670(3)
H24A H 0.5234 -0.4422 0.2493
H25A H 0.5256 -0.4511 0.1046
O18A O 0.55640(11) -0.37703(16) 0.1519(2)
C6A C 0.60938(18) -0.36092(23) 0.1605(3)
C5A C 0.64218(15) -0.30763(22) 0.1634(3)
C4A C 0.69733(17) -0.28754(23) 0.1743(3)
C9A C 0.71883(17) -0.32145(23) 0.1838(3)
C8A C 0.68449(15) -0.37386(21) 0.1772(3)
C7A C 0.63026(18) -0.39566(24) 0.1682(3)
H20A H 0.6076 -0.4324 0.1656
O21A O 0.70023(11) -0.41238(15) 0.1816(2)
C14A C 0.75605(15) -0.39334(21) 0.1958(3)
H26A H 0.7682 -0.3782 0.2784
H27A H 0.7759 -0.3660 0.1338
C15A C 0.76401(17) -0.43941(23) 0.1753(4)
O19A O 0.81284(11) -0.42776(15) 0.1950(2)
Cu4A Cu 0.82900(4) -0.48663(6) 0.19115(8)
N4C N 0.8204(9) -0.4960(8) 0.3804(18)
C38C C 0.8073(3) -0.5383(3) 0.4312(7)
H46C H 0.7974 -0.5697 0.3874
C39C C 0.8032(3) -0.5475(4) 0.5750(7)
H47C H 0.7932 -0.5790 0.6182
C40C C 0.8221(3) -0.4950(3) 0.6383(7)
C41C C 0.8309(3) -0.4496(3) 0.5884(6)
H48C H 0.8408 -0.4182 0.6322
C42C C 0.8301(3) -0.4527(3) 0.4466(7)
H49C H 0.8400 -0.4213 0.4034
Cu3C Cu 0.83706(4) -0.47808(4) 0.83349(9)
O17C O 0.85748(10) -0.54276(11) 0.8681(2)
C13C C 0.90147(15) -0.53522(16) 0.8476(3)
C12C C 0.95002(15) -0.48011(16) 0.8330(3)
H24C H 0.9656 -0.4766 0.7507
H25C H 0.9767 -0.4744 0.8954
O18C O 0.93343(12) -0.44360(11) 0.8481(2)
C6C C 0.97030(15) -0.39062(18) 0.8395(3)
C5C C 0.94981(16) -0.35782(15) 0.8366(3)
C4C C 0.98487(16) -0.30267(17) 0.8257(3)
C9C C 1.04028(16) -0.28117(17) 0.8162(3)
C8C C 1.05835(14) -0.31551(15) 0.8228(3)
C7C C 1.02592(16) -0.36974(18) 0.8318(3)
H20C H 1.0400 -0.3924 0.8344
O21C O 1.11261(10) -0.29977(11) 0.8184(2)
C14C C 1.14939(14) -0.24395(15) 0.8042(3)
H26C H 1.1464 -0.2318 0.7216
H27C H 1.1419 -0.2241 0.8662
C15C C 1.20342(16) -0.23599(17) 0.8247(4)
O19C O 1.24060(10) -0.18716(11) 0.8050(2)
Cu4C Cu 1.31563(4) -0.17100(4) 0.80885(8)
N4B N 1.3164(12) -0.1796(9) 0.6196(18)
C38B C 1.3456(4) -0.1927(3) 0.5688(7)
H46B H 1.3671 -0.2026 0.6126
C39B C 1.3507(5) -0.1968(3) 0.4250(7)
H47B H 1.3722 -0.2068 0.3818
C40B C 1.3171(4) -0.1779(3) 0.3617(7)
C41B C 1.2805(4) -0.1691(3) 0.4116(6)
H48B H 1.2590 -0.1592 0.3678
C42B C 1.2828(4) -0.1699(3) 0.5534(7)
H49B H 1.2613 -0.1600 0.5966
Cu3B Cu 1.31514(6) -0.16294(4) 0.16651(9)
O17B O 1.40024(15) -0.14252(10) 0.1319(2)
C13B C 1.43669(22) -0.09853(15) 0.1524(3)
C12B C 1.43013(22) -0.04998(15) 0.1670(3)
H24B H 1.4422 -0.0344 0.2493
H25B H 1.4511 -0.0233 0.1046
O18B O 1.37703(16) -0.06657(12) 0.1519(2)
C6B C 1.36092(23) -0.02970(15) 0.1605(3)
C5B C 1.30763(22) -0.05019(16) 0.1634(3)
C4B C 1.28754(23) -0.01513(16) 0.1743(3)
C9B C 1.32145(23) 0.04028(16) 0.1838(3)
C8B C 1.37386(21) 0.05835(14) 0.1772(3)
C7B C 1.39566(24) 0.02592(16) 0.1682(3)
H20B H 1.4324 0.0400 0.1656
O21B O 1.41238(15) 0.11261(10) 0.1816(2)
C14B C 1.39334(21) 0.14939(14) 0.1958(3)
H26B H 1.3782 0.1464 0.2784
H27B H 1.3660 0.1419 0.1338
C15B C 1.43941(23) 0.20342(16) 0.1753(4)
O19B O 1.42776(15) 0.24060(10) 0.1950(2)
Cu4B Cu 1.48663(6) 0.31563(4) 0.19115(8)
N4D N 1.4960(8) 0.3164(12) 0.3804(18)
C38D C 1.5383(3) 0.3456(4) 0.4312(7)
H46D H 1.5697 0.3671 0.3874
C39D C 1.5475(4) 0.3507(5) 0.5750(7)
H47D H 1.5790 0.3722 0.6182
C40D C 1.4950(3) 0.3171(4) 0.6383(7)
C41D C 1.4496(3) 0.2805(4) 0.5884(6)
H48D H 1.4182 0.2590 0.6322
C42D C 1.4527(3) 0.2828(4) 0.4466(7)
H49D H 1.4213 0.2613 0.4034
Cu3D Cu 1.47808(4) 0.31514(6) 0.83349(9)
O17D O 1.54276(11) 0.40024(15) 0.8681(2)
C13D C 1.53522(16) 0.43669(22) 0.8476(3)
C12D C 1.48011(16) 0.43013(22) 0.8330(3)
H24D H 1.4766 0.4422 0.7507
H25D H 1.4744 0.4511 0.8954
O18D O 1.44360(11) 0.37703(16) 0.8481(2)
C6D C 1.39062(18) 0.36092(23) 0.8395(3)
C5D C 1.35782(15) 0.30763(22) 0.8366(3)
C4D C 1.30267(17) 0.28754(23) 0.8257(3)
C9D C 1.28117(17) 0.32145(23) 0.8162(3)
C8D C 1.31551(15) 0.37386(21) 0.8228(3)
C7D C 1.36974(18) 0.39566(24) 0.8318(3)
H20D H 1.3924 0.4324 0.8344
O21D O 1.29977(11) 0.41238(15) 0.8184(2)
C14D C 1.24395(15) 0.39334(21) 0.8042(3)
H26D H 1.2318 0.3782 0.7216
H27D H 1.2241 0.3660 0.8662
C15D C 1.23599(17) 0.43941(23) 0.8247(4)
O19D O 1.18716(11) 0.42776(15) 0.8050(2)
Cu4D Cu 1.17100(4) 0.48663(6) 0.80885(8)
O26B O 1.18813(15) 0.41791(11) 0.1297(2)
C25B C 1.23169(24) 0.42439(16) 0.1453(3)
C24B C 1.24137(22) 0.37940(15) 0.1575(3)
H33B H 1.2241 0.3596 0.2328
H34B H 1.2256 0.3559 0.0863
O27B O 1.29638(13) 0.39705(9) 0.16222(19)
C18B C 1.31061(25) 0.36019(17) 0.1624(3)
C17B C 1.36657(23) 0.38152(16) 0.1785(4)
C16B C 1.38485(25) 0.34558(17) 0.1816(4)
C21B C 1.35020(25) 0.29064(17) 0.1792(4)
C20B C 1.29687(23) 0.27188(16) 0.1690(4)
C19B C 1.27648(23) 0.30524(16) 0.1641(3)
H29B H 1.2398 0.2914 0.1594
O30B O 1.26009(14) 0.21739(10) 0.1606(2)
C26B C 1.27781(22) 0.18188(15) 0.1852(3)
H35B H 1.2914 0.1862 0.2699
H36B H 1.3060 0.1876 0.1274
C27B C 1.22863(22) 0.12567(15) 0.1647(3)
O28B O 1.24130(15) 0.09058(11) 0.1917(2)
Cu1B Cu 1.183790(27) 0.016060(18) 0.18235(4)
N2B N 1.17777(18) 0.01367(13) 0.3687(3)
C28B C 1.12907(23) -0.01634(16) 0.4242(4)
H37B H 1.0998 -0.0378 0.3741
C29B C 1.12223(23) -0.01588(15) 0.5496(3)
H38B H 1.0887 -0.0367 0.5856
C30B C 1.16465(21) 0.01596(14) 0.6264(3)
H39B H 1.1605 0.0167 0.7125
C31B C 1.21554(23) 0.04734(16) 0.5721(3)
H40B H 1.2448 0.0688 0.6222
C32B C 1.22278(23) 0.04646(16) 0.4449(3)
H41B H 1.2565 0.0673 0.4088
O13B O 1.13351(15) -0.05891(10) 0.1683(2)
C11B C 1.14275(23) -0.09653(16) 0.1477(3)
C10B C 1.19832(22) -0.08590(15) 0.1651(4)
H22B H 1.2000 -0.1055 0.2370
H23B H 1.2083 -0.0985 0.0915
O15B O 1.23393(14) -0.03154(10) 0.1821(2)
O31B O 1.18182(16) 0.02229(11) 0.0039(2)
H50B H 1.2050 0.0135 -0.0303
H51B H 1.1913 0.0530 -0.0198
O14B O 1.10664(15) -0.14312(10) 0.1248(2)
O29B O 1.18783(14) 0.12031(10) 0.1352(2)
H30B H 1.3639 0.2677 0.1857
O24B O 1.43847(15) 0.36329(10) 0.1899(2)
C22B C 1.47602(22) 0.41881(15) 0.1860(3)
H31B H 1.4739 0.4357 0.2625
H32B H 1.4674 0.4347 0.1164
C23B C 1.53070(25) 0.42762(18) 0.1699(4)
O22B O 1.54006(15) 0.39100(10) 0.1677(2)
O33D O 1.48686(11) 0.31086(15) 0.0105(2)
Cu3D_2 Cu 1.47808(4) 0.31514(6) -0.16651(9)
C40D_2 C 1.4950(3) 0.3171(4) -0.3617(7)
O17D_2 O 1.54276(11) 0.40024(15) -0.1319(2)
O18D_2 O 1.44360(11) 0.37703(16) -0.1519(2)
C6D_2 C 1.39062(18) 0.36092(23) -0.1605(3)
C12D_2 C 1.48011(16) 0.43013(22) -0.1670(3)
O26C O 1.41791(11) 0.22978(10) -0.1297(2)
C25C C 1.42439(16) 0.19270(18) -0.1453(3)
C24C C 1.37940(15) 0.13803(16) -0.1575(3)
H33C H 1.3596 0.1355 -0.2328
H34C H 1.3559 0.1303 -0.0863
O27C O 1.39705(9) 0.10067(10) -0.16222(19)
C18C C 1.36019(17) 0.04958(18) -0.1624(3)
C17C C 1.38152(16) 0.01495(17) -0.1785(4)
C16C C 1.34558(17) -0.03927(19) -0.1816(4)
C21C C 1.29064(17) -0.05956(18) -0.1792(4)
C20C C 1.27188(16) -0.02499(17) -0.1690(4)
C19C C 1.30524(16) 0.02876(17) -0.1641(3)
H29C H 1.2914 0.0516 -0.1594
O30C O 1.21739(10) -0.04270(10) -0.1606(2)
C26C C 1.18188(15) -0.09593(16) -0.1852(3)
H35C H 1.1862 -0.1052 -0.2699
H36C H 1.1876 -0.1184 -0.1274
C27C C 1.12567(15) -0.10296(16) -0.1647(3)
O28C O 1.09058(11) -0.15072(10) -0.1917(2)
Cu1C Cu 1.016060(18) -0.16773(2) -0.18235(4)
N2C N 1.01367(13) -0.16410(13) -0.3687(3)
C28C C 0.98366(16) -0.14541(17) -0.4242(4)
H37C H 0.9622 -0.1376 -0.3741
C29C C 0.98412(15) -0.13811(17) -0.5496(3)
H38C H 0.9633 -0.1254 -0.5856
C30C C 1.01596(14) -0.14869(15) -0.6264(3)
H39C H 1.0167 -0.1438 -0.7125
C31C C 1.04734(16) -0.16820(16) -0.5721(3)
H40C H 1.0688 -0.1760 -0.6222
C32C C 1.04646(16) -0.17632(17) -0.4449(3)
H41C H 1.0673 -0.1892 -0.4088
O13C O 0.94109(10) -0.19242(11) -0.1683(2)
C11C C 0.90347(16) -0.23928(17) -0.1477(3)
C10C C 0.91410(15) -0.28422(16) -0.1651(4)
H22C H 0.8945 -0.3055 -0.2370
H23C H 0.9015 -0.3068 -0.0915
O15C O 0.96846(10) -0.26547(10) -0.1821(2)
C4C_2 C 0.98487(16) -0.30267(17) -0.1743(3)
C5C_2 C 0.94981(16) -0.35782(15) -0.1634(3)
C9C_2 C 1.04028(16) -0.28117(17) -0.1838(3)
O31C O 1.02229(11) -0.15953(12) -0.0039(2)
H50C H 1.0135 -0.1915 0.0303
H51C H 1.0530 -0.1383 0.0198
O14C O 0.85688(10) -0.24976(11) -0.1248(2)
O29C O 1.12031(10) -0.06752(10) -0.1352(2)
H30C H 1.2677 -0.0962 -0.1857
O24C O 1.36329(10) -0.07518(11) -0.1899(2)
C22C C 1.41881(15) -0.05721(16) -0.1860(3)
H31C H 1.4357 -0.0382 -0.2625
H32C H 1.4347 -0.0327 -0.1164
C23C C 1.42762(18) -0.10308(17) -0.1699(4)
O22C O 1.39100(10) -0.14906(11) -0.1677(2)
Cu4C_2 Cu 1.31563(4) -0.17100(4) -0.19115(8)
N4B_2 N 1.3164(12) -0.1796(9) -0.3804(18)
O19C_2 O 1.24060(10) -0.18716(11) -0.1950(2)
O33B O 1.31086(15) -0.17600(10) -0.0105(2)
O26A O 1.22978(10) -0.18813(15) 0.1297(2)
C25A C 1.19270(18) -0.23169(24) 0.1453(3)
C24A C 1.13803(16) -0.24137(22) 0.1575(3)
H33A H 1.1355 -0.2241 0.2328
H34A H 1.1303 -0.2256 0.0863
O27A O 1.10067(10) -0.29638(13) 0.16222(19)
C18A C 1.04958(18) -0.31061(25) 0.1624(3)
C17A C 1.01495(17) -0.36657(23) 0.1785(4)
C16A C 0.96073(19) -0.38485(25) 0.1816(4)
C21A C 0.94044(18) -0.35020(25) 0.1792(4)
C20A C 0.97501(17) -0.29687(23) 0.1690(4)
C19A C 1.02876(17) -0.27648(23) 0.1641(3)
H29A H 1.0516 -0.2398 0.1594
O30A O 0.95730(10) -0.26009(14) 0.1606(2)
C26A C 0.90407(16) -0.27781(22) 0.1852(3)
H35A H 0.8948 -0.2914 0.2699
H36A H 0.8816 -0.3060 0.1274
C27A C 0.89704(16) -0.22863(22) 0.1647(3)
O28A O 0.84928(10) -0.24130(15) 0.1917(2)
Cu1A Cu 0.83227(2) -0.183790(27) 0.18235(4)
N2A N 0.83590(13) -0.17777(18) 0.3687(3)
C28A C 0.85459(17) -0.12907(23) 0.4242(4)
H37A H 0.8624 -0.0998 0.3741
C29A C 0.86189(17) -0.12223(23) 0.5496(3)
H38A H 0.8746 -0.0887 0.5856
C30A C 0.85131(15) -0.16465(21) 0.6264(3)
H39A H 0.8562 -0.1605 0.7125
C31A C 0.83180(16) -0.21554(23) 0.5721(3)
H40A H 0.8240 -0.2448 0.6222
C32A C 0.82368(17) -0.22278(23) 0.4449(3)
H41A H 0.8108 -0.2565 0.4088
O13A O 0.80758(11) -0.13351(15) 0.1683(2)
C11A C 0.76072(17) -0.14275(23) 0.1477(3)
C10A C 0.71578(16) -0.19832(22) 0.1651(4)
H22A H 0.6945 -0.2000 0.2370
H23A H 0.6932 -0.2083 0.0915
O15A O 0.73453(10) -0.23393(14) 0.1821(2)
O31A O 0.84047(12) -0.18182(16) 0.0039(2)
H50A H 0.8085 -0.2050 -0.0303
H51A H 0.8617 -0.1913 -0.0198
O14A O 0.75024(11) -0.10664(15) 0.1248(2)
O29A O 0.93248(10) -0.18783(14) 0.1352(2)
H30A H 0.9038 -0.3639 0.1857
O24A O 0.92482(11) -0.43847(15) 0.1899(2)
C22A C 0.94279(16) -0.47602(22) 0.1860(3)
H31A H 0.9618 -0.4739 0.2625
H32A H 0.9673 -0.4674 0.1164
C23A C 0.89692(17) -0.53070(25) 0.1699(4)
O22A O 0.85094(11) -0.54006(15) 0.1677(2)
O33C O 0.82400(10) -0.48686(11) 0.0105(2)
Cu3C_2 Cu 0.83706(4) -0.47808(4) -0.16651(9)
C40C_2 C 0.8221(3) -0.4950(3) -0.3617(7)
O17C_2 O 0.85748(10) -0.54276(11) -0.1319(2)
O18C_2 O 0.93343(12) -0.44360(11) -0.1519(2)
C6C_2 C 0.97030(15) -0.39062(18) -0.1605(3)
C12C_2 C 0.95002(15) -0.48011(16) -0.1670(3)
O26E O 0.81187(15) -0.41791(11) -0.1297(2)
C25E C 0.76831(24) -0.42439(16) -0.1453(3)
C24E C 0.75863(22) -0.37940(15) -0.1575(3)
H33E H 0.7759 -0.3596 -0.2328
H34E H 0.7744 -0.3559 -0.0863
O27E O 0.70362(13) -0.39705(9) -0.16222(19)
C18E C 0.68939(25) -0.36019(17) -0.1624(3)
C17E C 0.63343(23) -0.38152(16) -0.1785(4)
C16E C 0.61515(25) -0.34558(17) -0.1816(4)
C21E C 0.64980(25) -0.29064(17) -0.1792(4)
C20E C 0.70313(23) -0.27188(16) -0.1690(4)
C19E C 0.72352(23) -0.30524(16) -0.1641(3)
H29E H 0.7602 -0.2914 -0.1594
O30E O 0.73991(14) -0.21739(10) -0.1606(2)
C26E C 0.72219(22) -0.18188(15) -0.1852(3)
H35E H 0.7086 -0.1862 -0.2699
H36E H 0.6940 -0.1876 -0.1274
C27E C 0.77137(22) -0.12567(15) -0.1647(3)
O28E O 0.75870(15) -0.09058(11) -0.1917(2)
Cu1E Cu 0.816210(27) -0.016060(18) -0.18235(4)
N2E N 0.82223(18) -0.01367(13) -0.3687(3)
C28E C 0.87093(23) 0.01634(16) -0.4242(4)
H37E H 0.9002 0.0378 -0.3741
C29E C 0.87777(23) 0.01588(15) -0.5496(3)
H38E H 0.9113 0.0367 -0.5856
C30E C 0.83535(21) -0.01596(14) -0.6264(3)
H39E H 0.8395 -0.0167 -0.7125
C31E C 0.78446(23) -0.04734(16) -0.5721(3)
H40E H 0.7552 -0.0688 -0.6222
C32E C 0.77722(23) -0.04646(16) -0.4449(3)
H41E H 0.7435 -0.0673 -0.4088
O13E O 0.86649(15) 0.05891(10) -0.1683(2)
C11E C 0.85725(23) 0.09653(16) -0.1477(3)
C10E C 0.80168(22) 0.08590(15) -0.1651(4)
H22E H 0.8000 0.1055 -0.2370
H23E H 0.7917 0.0985 -0.0915
O15E O 0.76607(14) 0.03154(10) -0.1821(2)
C4E_2 C 0.71246(23) 0.01513(16) -0.1743(3)
C5E_2 C 0.69237(22) 0.05019(16) -0.1634(3)
C9E_2 C 0.67855(23) -0.04028(16) -0.1838(3)
O31E O 0.81818(16) -0.02229(11) -0.0039(2)
H50E H 0.7950 -0.0135 0.0303
H51E H 0.8087 -0.0530 0.0198
O14E O 0.89336(15) 0.14312(10) -0.1248(2)
O29E O 0.81217(14) -0.12031(10) -0.1352(2)
H30E H 0.6361 -0.2677 -0.1857
O24E O 0.56153(15) -0.36329(10) -0.1899(2)
C22E C 0.52398(22) -0.41881(15) -0.1860(3)
H31E H 0.5261 -0.4357 -0.2625
H32E H 0.5326 -0.4347 -0.1164
C23E C 0.46930(25) -0.42762(18) -0.1699(4)
O22E O 0.45994(15) -0.39100(10) -0.1677(2)
Cu4E_2 Cu 0.51337(6) -0.31563(4) -0.19115(8)
N4A_2 N 0.5040(8) -0.3164(12) -0.3804(18)
O19E_2 O 0.57224(15) -0.24060(10) -0.1950(2)
O33A O 0.51314(11) -0.31086(15) -0.0105(2)
Cu2B Cu 0.50339(6) -0.14707(4) 0.17633(8)
N3B N 0.4950(23) -0.1538(17) 0.365(3)
C33B C 0.4816(6) -0.2000(4) 0.4146(7)
H42B H 0.4745 -0.2295 0.3661
C34B C 0.4761(6) -0.2022(4) 0.5378(8)
H43B H 0.4648 -0.2351 0.5757
C35B C 0.4847(4) -0.1642(3) 0.6193(8)
C36B C 0.4994(4) -0.1171(3) 0.5632(6)
H44B H 0.5065 -0.0876 0.6116
C37B C 0.5153(4) -0.1040(3) 0.4337(7)
H45B H 0.5266 -0.0711 0.3958
Cu5E Cu 0.48971(6) -0.15656(4) 0.79566(8)
O20E O 0.51611(14) -0.21204(10) 0.85001(19)
O23C O 0.47596(11) -0.08786(12) 0.8513(2)
C23C_2 C 0.42762(18) -0.10308(17) 0.8301(4)
C22C_2 C 0.41881(15) -0.05721(16) 0.8140(3)
O22C_2 O 0.39100(10) -0.14906(11) 0.8323(2)
O32B O 0.49428(15) -0.15077(10) 0.9917(2)
Cu2B_2 Cu 0.50339(6) -0.14707(4) 1.17633(8)
N3B_2 N 0.4950(23) -0.1538(17) 1.365(3)
O16B O 0.48606(15) -0.08864(10) 1.1744(2)
C13B_2 C 0.43669(22) -0.09853(15) 1.1524(3)
C12B_2 C 0.43013(22) -0.04998(15) 1.1670(3)
O17B_2 O 0.40024(15) -0.14252(10) 1.1319(2)
O25_2 O 0.52760(12) -0.20124(12) 1.1541(2)
C25_2 C 0.57561(16) -0.19270(18) 1.1453(3)
C24_2 C 0.62060(15) -0.13803(16) 1.1575(3)
O26_2 O 0.58209(11) -0.22978(10) 1.1297(2)
O27_2 O 0.60295(9) -0.10067(10) 1.16222(19)
O16B_2 O 0.48606(15) -0.08864(10) 0.1744(2)
O32B_2 O 0.49428(15) -0.15077(10) -0.0083(2)
O23E O 0.43618(16) -0.47596(11) -0.1487(2)
Cu5D Cu 0.35373(4) -0.48971(6) -0.20434(8)
C35A C 0.3511(3) -0.4847(4) -0.3807(8)
C34A C 0.3217(4) -0.4761(6) -0.4622(8)
C33A C 0.3184(4) -0.4816(6) -0.5854(7)
H42A H 0.2960 -0.4745 -0.6339
N3A N 0.3512(16) -0.4950(23) -0.635(3)
C37A C 0.3807(3) -0.5153(4) -0.5663(7)
C36A C 0.3835(3) -0.4994(4) -0.4368(6)
H44A H 0.4059 -0.5065 -0.3884
H45A H 0.4023 -0.5266 -0.6042
Cu2A Cu 0.34954(4) -0.50339(6) -0.82367(8)
O16A O 0.42530(11) -0.48606(15) -0.8256(2)
C13A_2 C 0.46478(16) -0.43669(22) -0.8476(3)
C12A_2 C 0.51989(16) -0.43013(22) -0.8330(3)
O17A_2 O 0.45724(11) -0.40024(15) -0.8681(2)
O25B O 0.27116(17) -0.52760(12) -0.8459(2)
C25B_2 C 0.23169(24) -0.57561(16) -0.8547(3)
C24B_2 C 0.24137(22) -0.62060(15) -0.8425(3)
O26B_2 O 0.18813(15) -0.58209(11) -0.8703(2)
O27B_2 O 0.29638(13) -0.60295(9) -0.83778(19)
C18B_2 C 0.31061(25) -0.63981(17) -0.8376(3)
O32A O 0.35495(11) -0.49428(15) -1.0083(2)
Cu5D_2 Cu 0.35373(4) -0.48971(6) -1.20434(8)
C35A_2 C 0.3511(3) -0.4847(4) -1.3807(8)
O20D O 0.27185(10) -0.51611(14) -1.14999(19)
C15D_2 C 0.23599(17) -0.56059(23) -1.1753(4)
C14D_2 C 0.24395(15) -0.60666(21) -1.1958(3)
O19D_2 O 0.18716(11) -0.57224(15) -1.1950(2)
O21D_2 O 0.29977(11) -0.58762(15) -1.1816(2)
C8D_2 C 0.31551(15) -0.62614(21) -1.1772(3)
O23E_2 O 0.43618(16) -0.47596(11) -1.1487(2)
H43A H 0.3001 -0.4648 -0.4243
O20D_2 O 0.27185(10) -0.51611(14) -0.14999(19)
O21D_3 O 0.29977(11) -0.58762(15) -0.1816(2)
O32A_2 O 0.35495(11) -0.49428(15) -0.0083(2)
H28E H 0.6100 -0.4180 -0.1847
Cu2D Cu 0.65046(4) -0.49661(6) -0.17633(8)
N3D N 0.6488(16) -0.5050(23) -0.365(3)
C33D C 0.6816(4) -0.5184(6) -0.4146(7)
H42D H 0.7040 -0.5255 -0.3661
C34D C 0.6783(4) -0.5239(6) -0.5378(8)
H43D H 0.6999 -0.5352 -0.5757
C35D C 0.6489(3) -0.5153(4) -0.6193(8)
C36D C 0.6165(3) -0.5006(4) -0.5632(6)
H44D H 0.5941 -0.4935 -0.6116
C37D C 0.6193(3) -0.4847(4) -0.4337(7)
H45D H 0.5977 -0.4734 -0.3958
Cu5A Cu 0.64627(4) -0.51029(6) -0.79566(8)
O20A O 0.72815(10) -0.48389(14) -0.85001(19)
C15A_2 C 0.76401(17) -0.43941(23) -0.8247(4)
C14A_2 C 0.75605(15) -0.39334(21) -0.8042(3)
O19A_2 O 0.81284(11) -0.42776(15) -0.8050(2)
O21A_2 O 0.70023(11) -0.41238(15) -0.8184(2)
C8A_2 C 0.68449(15) -0.37386(21) -0.8228(3)
O23B O 0.56382(16) -0.52404(11) -0.8513(2)
C23B_2 C 0.53070(25) -0.57238(18) -0.8301(4)
C22B_2 C 0.47602(22) -0.58119(15) -0.8140(3)
O22B_2 O 0.54006(15) -0.60900(10) -0.8323(2)
O32D O 0.64505(11) -0.50572(15) -0.9917(2)
Cu2D_2 Cu 0.65046(4) -0.49661(6) -1.17633(8)
N3D_2 N 0.6488(16) -0.5050(23) -1.365(3)
O16D O 0.57470(11) -0.51394(15) -1.1744(2)
C13D_2 C 0.53522(16) -0.56331(22) -1.1524(3)
C12D_3 C 0.48011(16) -0.56987(22) -1.1670(3)
O17D_3 O 0.54276(11) -0.59976(15) -1.1319(2)
O25E O 0.72884(17) -0.47240(12) -1.1541(2)
C25E_2 C 0.76831(24) -0.42439(16) -1.1453(3)
C24E_2 C 0.75863(22) -0.37940(15) -1.1575(3)
O26E_2 O 0.81187(15) -0.41791(11) -1.1297(2)
O27E_2 O 0.70362(13) -0.39705(9) -1.16222(19)
O16D_2 O 0.57470(11) -0.51394(15) -0.1744(2)
O25E_2 O 0.72884(17) -0.47240(12) -0.1541(2)
O32D_2 O 0.64505(11) -0.50572(15) 0.0083(2)
O23A O 0.91214(12) -0.56382(16) 0.1487(2)
Cu5_2 Cu 0.84344(4) -0.64627(4) 0.20434(8)
C35C C 0.8358(3) -0.6489(3) 0.3807(8)
C34C C 0.7978(4) -0.6783(4) 0.4622(8)
C33C C 0.8000(4) -0.6816(4) 0.5854(7)
H42C H 0.7705 -0.7040 0.6339
N3C N 0.8462(17) -0.6488(16) 0.635(3)
C37C C 0.8960(3) -0.6193(3) 0.5663(7)
C36C C 0.8829(3) -0.6165(3) 0.4368(6)
H44C H 0.9124 -0.5941 0.3884
H45C H 0.9289 -0.5977 0.6042
Cu2C Cu 0.85293(4) -0.65046(4) 0.82367(8)
O16C O 0.91136(10) -0.57470(11) 0.8256(2)
O25D O 0.79876(12) -0.72884(17) 0.8459(2)
C25D C 0.80730(18) -0.76831(24) 0.8547(3)
C24D C 0.86197(16) -0.75863(22) 0.8425(3)
H33D H 0.8645 -0.7759 0.7672
H34D H 0.8697 -0.7744 0.9137
O27D O 0.89933(10) -0.70362(13) 0.83778(19)
C18D C 0.95042(18) -0.68939(25) 0.8376(3)
C17D C 0.98505(17) -0.63343(23) 0.8215(4)
C16D C 1.03927(19) -0.61515(25) 0.8184(4)
C21D C 1.05956(18) -0.64980(25) 0.8208(4)
C20D C 1.02499(17) -0.70313(23) 0.8310(4)
C19D C 0.97124(17) -0.72352(23) 0.8359(3)
H29D H 0.9484 -0.7602 0.8406
O30D O 1.04270(10) -0.73991(14) 0.8394(2)
C26D C 1.09593(16) -0.72219(22) 0.8148(3)
H35D H 1.1052 -0.7086 0.7301
H36D H 1.1184 -0.6940 0.8726
C27D C 1.10296(16) -0.77137(22) 0.8353(3)
O28D O 1.15072(10) -0.75870(15) 0.8083(2)
Cu1D Cu 1.16773(2) -0.816210(27) 0.81765(4)
N2D N 1.16410(13) -0.82223(18) 0.6313(3)
C28D C 1.14541(17) -0.87093(23) 0.5758(4)
H37D H 1.1376 -0.9002 0.6259
C29D C 1.13811(17) -0.87777(23) 0.4504(3)
H38D H 1.1254 -0.9113 0.4144
C30D C 1.14869(15) -0.83535(21) 0.3736(3)
H39D H 1.1438 -0.8395 0.2875
C31D C 1.16820(16) -0.78446(23) 0.4279(3)
H40D H 1.1760 -0.7552 0.3778
C32D C 1.17632(17) -0.77722(23) 0.5551(3)
H41D H 1.1892 -0.7435 0.5912
O13D O 1.19242(11) -0.86649(15) 0.8317(2)
C11D C 1.23928(17) -0.85725(23) 0.8523(3)
C10D C 1.28422(16) -0.80168(22) 0.8349(4)
H22D H 1.3055 -0.8000 0.7630
H23D H 1.3068 -0.7917 0.9085
O15D O 1.26547(10) -0.76607(14) 0.8179(2)
C4D_2 C 1.30267(17) -0.71246(23) 0.8257(3)
C5D_2 C 1.35782(15) -0.69237(22) 0.8366(3)
C9D_2 C 1.28117(17) -0.67855(23) 0.8162(3)
O31D O 1.15953(12) -0.81818(16) 0.9961(2)
H50D H 1.1915 -0.7950 1.0303
H51D H 1.1383 -0.8087 1.0198
O14D O 1.24976(11) -0.89336(15) 0.8752(2)
O29D O 1.06752(10) -0.81217(14) 0.8648(2)
H30D H 1.0962 -0.6361 0.8143
O24D O 1.07518(11) -0.56153(15) 0.8101(2)
C22D C 1.05721(16) -0.52398(22) 0.8140(3)
H31D H 1.0382 -0.5261 0.7375
H32D H 1.0327 -0.5326 0.8836
C23D C 1.10308(17) -0.46930(25) 0.8301(4)
O22D O 1.14906(11) -0.45994(15) 0.8323(2)
Cu4D_2 Cu 1.17100(4) -0.51337(6) 0.80885(8)
N4_2 N 1.1796(9) -0.5040(8) 0.6196(18)
O19D_3 O 1.18716(11) -0.57224(15) 0.8050(2)
O33_2 O 1.17600(10) -0.51314(11) 0.9895(2)
Cu3_2 Cu 1.16294(4) -0.52192(4) 1.16651(9)
C40_2 C 1.1779(3) -0.5050(3) 1.3617(7)
O17_2 O 1.14252(10) -0.45724(11) 1.1319(2)
O18_2 O 1.06657(12) -0.55640(11) 1.1519(2)
O26B_3 O 1.18813(15) -0.58209(11) 1.1297(2)
O23D O 1.08786(12) -0.43618(16) 0.8513(2)
Cu5C Cu 1.15656(4) -0.35373(4) 0.79566(8)
C35_2 C 1.1642(3) -0.3511(3) 0.6193(8)
C34_2 C 1.2022(4) -0.3217(4) 0.5378(8)
C33_2 C 1.2000(4) -0.3184(4) 0.4146(7)
H42_2 H 1.2295 -0.2960 0.3661
N3_2 N 1.1538(17) -0.3512(16) 0.365(3)
C37_2 C 1.1040(3) -0.3807(3) 0.4337(7)
C36_2 C 1.1171(3) -0.3835(3) 0.5632(6)
H44_2 H 1.0876 -0.4059 0.6116
H45_2 H 1.0711 -0.4023 0.3958
Cu2_2 Cu 1.14707(4) -0.34954(4) 0.17633(8)
O16_2 O 1.08864(10) -0.42530(11) 0.1744(2)
C13_2 C 1.09853(15) -0.46478(16) 0.1524(3)
C12_2 C 1.04998(15) -0.51989(16) 0.1670(3)
O17_3 O 1.14252(10) -0.45724(11) 0.1319(2)
O25A O 1.20124(12) -0.27116(17) 0.1541(2)
O32_2 O 1.15077(10) -0.35495(11) -0.0083(2)
Cu5C_2 Cu 1.15656(4) -0.35373(4) -0.20434(8)
C35_3 C 1.1642(3) -0.3511(3) -0.3807(8)
O20C O 1.21204(10) -0.27185(10) -0.14999(19)
C15C_2 C 1.20342(16) -0.23599(17) -0.1753(4)
C14C_2 C 1.14939(14) -0.24395(15) -0.1958(3)
O21C_2 O 1.11261(10) -0.29977(11) -0.1816(2)
C8C_2 C 1.05835(14) -0.31551(15) -0.1772(3)
O23D_2 O 1.08786(12) -0.43618(16) -0.1487(2)
H43_2 H 1.2351 -0.3001 0.5757
O20C_2 O 1.21204(10) -0.27185(10) 0.85001(19)
O32_3 O 1.15077(10) -0.35495(11) 0.9917(2)
H28D H 0.9720 -0.6100 0.8153
O32C O 0.84923(10) -0.64505(11) 1.0083(2)
Cu5_3 Cu 0.84344(4) -0.64627(4) 1.20434(8)
C35C_2 C 0.8358(3) -0.6489(3) 1.3807(8)
O20_2 O 0.78796(10) -0.72815(10) 1.14999(19)
C15_2 C 0.79658(16) -0.76401(17) 1.1753(4)
C14_2 C 0.85061(14) -0.75605(15) 1.1958(3)
H26_2 H 0.8536 -0.7682 1.2784
H27_2 H 0.8581 -0.7759 1.1338
O21_2 O 0.88739(10) -0.70023(11) 1.1816(2)
C8_2 C 0.94165(14) -0.68449(15) 1.1772(3)
C7_2 C 0.97408(16) -0.63026(18) 1.1682(3)
C9_2 C 0.95972(16) -0.71883(17) 1.1838(3)
O23A_2 O 0.91214(12) -0.56382(16) 1.1487(2)
O19_2 O 0.75940(10) -0.81284(11) 1.1950(2)
Cu4_2 Cu 0.68437(4) -0.82900(4) 1.19115(8)
N4E_2 N 0.6836(12) -0.8204(9) 1.3804(18)
O22_2 O 0.60900(10) -0.85094(11) 1.1677(2)
O24_2 O 0.63671(10) -0.92482(11) 1.1899(2)
C16_2 C 0.65442(17) -0.96073(19) 1.1816(4)
C22_2 C 0.58119(15) -0.94279(16) 1.1860(3)
O33E O 0.68914(15) -0.82400(10) 1.0105(2)
Cu3E_2 Cu 0.68486(6) -0.83706(4) 0.83349(9)
C40E_2 C 0.6829(4) -0.8221(3) 0.6383(7)
O17E_2 O 0.59976(15) -0.85748(10) 0.8681(2)
O18E_2 O 0.62297(16) -0.93343(12) 0.8481(2)
C6E_2 C 0.63908(23) -0.97030(15) 0.8395(3)
C12E_2 C 0.56987(22) -0.95002(15) 0.8330(3)
O26D O 0.77022(10) -0.81187(15) 0.8703(2)
H43C H 0.7649 -0.6999 0.4243
O20_3 O 0.78796(10) -0.72815(10) 0.14999(19)
O21_3 O 0.88739(10) -0.70023(11) 0.1816(2)
O32C_2 O 0.84923(10) -0.64505(11) 0.0083(2)
H28A H 1.0280 -0.3900 0.1847
O23C_2 O 1.47596(11) -0.08786(12) -0.1487(2)
H28C H 1.4180 0.0280 -0.1847
Cu2E Cu 1.49661(6) 0.14707(4) -0.17633(8)
N3E N 1.5050(23) 0.1538(17) -0.365(3)
C33E C 1.5184(6) 0.2000(4) -0.4146(7)
H42E H 1.5255 0.2295 -0.3661
C34E C 1.5239(6) 0.2022(4) -0.5378(8)
H43E H 1.5352 0.2351 -0.5757
C35E C 1.5153(4) 0.1642(3) -0.6193(8)
C36E C 1.5006(4) 0.1171(3) -0.5632(6)
H44E H 1.4935 0.0876 -0.6116
C37E C 1.4847(4) 0.1040(3) -0.4337(7)
H45E H 1.4734 0.0711 -0.3958
Cu5B Cu 1.51029(6) 0.15656(4) -0.79566(8)
O20B O 1.48389(14) 0.21204(10) -0.85001(19)
C15B_2 C 1.43941(23) 0.20342(16) -0.8247(4)
C14B_2 C 1.39334(21) 0.14939(14) -0.8042(3)
O19B_2 O 1.42776(15) 0.24060(10) -0.8050(2)
O21B_2 O 1.41238(15) 0.11261(10) -0.8184(2)
C8B_2 C 1.37386(21) 0.05835(14) -0.8228(3)
O23_2 O 1.52404(11) 0.08786(12) -0.8513(2)
C23_2 C 1.57238(18) 0.10308(17) -0.8301(4)
C22_3 C 1.58119(15) 0.05721(16) -0.8140(3)
O22_3 O 1.60900(10) 0.14906(11) -0.8323(2)
O32E O 1.50572(15) 0.15077(10) -0.9917(2)
Cu2E_2 Cu 1.49661(6) 0.14707(4) -1.17633(8)
N3E_2 N 1.5050(23) 0.1538(17) -1.365(3)
O16E O 1.51394(15) 0.08864(10) -1.1744(2)
C13E_2 C 1.56331(22) 0.09853(15) -1.1524(3)
C12E_3 C 1.56987(22) 0.04998(15) -1.1670(3)
O17E_3 O 1.59976(15) 0.14252(10) -1.1319(2)
O25C O 1.47240(12) 0.20124(12) -1.1541(2)
C25C_2 C 1.42439(16) 0.19270(18) -1.1453(3)
C24C_2 C 1.37940(15) 0.13803(16) -1.1575(3)
O26C_2 O 1.41791(11) 0.22978(10) -1.1297(2)
O27C_2 O 1.39705(9) 0.10067(10) -1.16222(19)
O16E_2 O 1.51394(15) 0.08864(10) -0.1744(2)
O25C_2 O 1.47240(12) 0.20124(12) -0.1541(2)
O32E_2 O 1.50572(15) 0.15077(10) 0.0083(2)
O23B_2 O 1.56382(16) 0.47596(11) 0.1487(2)
H28B H 1.3900 0.4180 0.1847
Cu2A_2 Cu 1.34954(4) 0.49661(6) 0.17633(8)
O25B_2 O 1.27116(17) 0.47240(12) 0.1541(2)
O22D_2 O 1.14906(11) 0.54006(15) 0.8323(2)
O24D_2 O 1.07518(11) 0.43847(15) 0.8101(2)
O33_3 O 1.17600(10) 0.48686(11) 0.9895(2)
O20D_3 O 1.27185(10) 0.48389(14) 0.85001(19)
Cu5D_3 Cu 1.35373(4) 0.51029(6) 0.79566(8)
H21D H 1.2446 0.3077 0.8075
O15D_2 O 1.26547(10) 0.23393(14) 0.8179(2)
H19D H 1.3716 0.2847 0.8401
O16D_3 O 1.57470(11) 0.48606(15) 0.8256(2)
O26C_3 O 1.41791(11) 0.22978(10) 0.8703(2)
O33D_2 O 1.48686(11) 0.31086(15) 1.0105(2)
O20B_2 O 1.48389(14) 0.21204(10) 0.14999(19)
Cu5B_2 Cu 1.51029(6) 0.15656(4) 0.20434(8)
H21B H 1.3077 0.0631 0.1925
H19B H 1.2847 -0.0869 0.1599
O16B_3 O 1.48606(15) -0.08864(10) 0.1744(2)
O22C_3 O 1.39100(10) -0.14906(11) 0.8323(2)
O24C_2 O 1.36329(10) -0.07518(11) 0.8101(2)
O33B_2 O 1.31086(15) -0.17600(10) 0.9895(2)
H21C H 1.0631 -0.2446 0.8075
O15C_2 O 0.96846(10) -0.26547(10) 0.8179(2)
H19C H 0.9131 -0.3716 0.8401
O26E_3 O 0.81187(15) -0.41791(11) 0.8703(2)
O33C_2 O 0.82400(10) -0.48686(11) 1.0105(2)
O20A_2 O 0.72815(10) -0.48389(14) 0.14999(19)
Cu5A_2 Cu 0.64627(4) -0.51029(6) 0.20434(8)
H21A H 0.7554 -0.3077 0.1925
H19A H 0.6284 -0.2847 0.1599
O16A_2 O 0.42530(11) -0.48606(15) 0.1744(2)
O22E_2 O 0.45994(15) -0.39100(10) 0.8323(2)
O24E_2 O 0.56153(15) -0.36329(10) 0.8101(2)
O33A_2 O 0.51314(11) -0.31086(15) 0.9895(2)
H21E H 0.6923 -0.0631 0.8075
O15E_2 O 0.76607(14) 0.03154(10) 0.8179(2)
H19E H 0.7153 0.0869 0.8401
O16E_3 O 0.51394(15) 0.08864(10) 0.8256(2)
O26D_2 O 0.77022(10) 0.18813(15) 0.8703(2)
O33E_2 O 0.68914(15) 0.17600(10) 1.0105(2)
O33E_3 O 0.68914(15) 0.17600(10) 0.0105(2)
Cu5C_3 Cu 1.15656(4) 0.64627(4) 0.79566(8)
Cu5B_3 Cu 0.51029(6) 0.15656(4) 0.20434(8)
O25A_2 O 1.20124(12) 0.72884(17) 0.1541(2)
O27A_2 O 1.10067(10) 0.70362(13) 0.16222(19)
C35C_3 C 0.8358(3) 0.3511(3) 0.3807(8)
O23A_3 O 0.91214(12) 0.43618(16) 0.1487(2)
O32C_3 O 0.84923(10) 0.35495(11) 0.0083(2)
Cu5C_4 Cu 1.15656(4) 0.64627(4) -0.20434(8)
Cu4D_3 Cu 1.17100(4) 0.48663(6) -0.19115(8)
C7C_2 C 1.02592(16) -0.36974(18) -0.1682(3)
H19C_2 H 0.9131 -0.3716 -0.1599
H21C_2 H 1.0631 -0.2446 -0.1925
C18_2 C 0.63981(17) -0.04958(18) 1.1624(3)
H33_2 H 0.6404 -0.1355 1.2328
H34_2 H 0.6441 -0.1303 1.0863
C18E_2 C 0.68939(25) -0.36019(17) -1.1624(3)
H33E_2 H 0.7759 -0.3596 -1.2328
H34E_2 H 0.7744 -0.3559 -1.0863
C35D_2 C 0.6489(3) -0.5153(4) 0.3807(8)
O23B_3 O 0.56382(16) -0.52404(11) 0.1487(2)
C18C_2 C 1.36019(17) 0.04958(18) -1.1624(3)
H33C_2 H 1.3596 0.1355 -1.2328
H34C_2 H 1.3559 0.1303 -1.0863
C35E_2 C 1.5153(4) 0.1642(3) 0.3807(8)
O23_3 O 1.52404(11) 0.08786(12) 0.1487(2)
N3A_2 N 1.3512(16) 0.5050(23) 0.365(3)
O16A_3 O 1.42530(11) 0.51394(15) 0.1744(2)
O32A_3 O 1.35495(11) 0.50572(15) -0.0083(2)
C35A_3 C 1.3511(3) 0.5153(4) 0.6193(8)
O23E_3 O 1.43618(16) 0.52404(11) 0.8513(2)
O32A_4 O 1.35495(11) 0.50572(15) 0.9917(2)
O1 O 0.25126(11) 0.33777(11) 0.4857(2)
N1 N 0.33472(12) 0.33468(12) 0.4992(3)
C1 C 0.31106(15) 0.27679(15) 0.4979(3)
H1 H 0.3389 0.2680 0.5026
H2 H 0.2874 0.2614 0.5678
H3 H 0.2915 0.2629 0.4215
C2 C 0.38944(15) 0.36461(16) 0.5110(4)
H4 H 0.4006 0.3600 0.5923
H5 H 0.4057 0.3537 0.4482
H6 H 0.4001 0.4015 0.4989
C3 C 0.29953(16) 0.35355(18) 0.4888(3)
H7 H 0.3184 0.3906 0.4847
loop_
_geom_bond_atom_site_label_1
_geom_bond_atom_site_label_2
_geom_bond_site_symmetry_1
_geom_bond_site_symmetry_2
O1 C3 1_555 1_555
N1 C1 1_555 1_555
C1 H1 1_555 1_555
H2 C1 1_555 1_555
H3 C1 1_555 1_555
C2 N1 1_555 1_555
H4 C2 1_555 1_555
H5 C2 1_555 1_555
H6 C2 1_555 1_555
C3 N1 1_555 1_555
H7 C3 1_555 1_555
O2 H8 1_555 1_555
O3 H9 1_555 1_555
H10 O3 1_555 1_555
O4 H11 1_555 1_555
H12 O4 1_555 1_555
O5 H13 1_555 1_555
H14 O5 1_555 1_555
O6 H15 1_555 1_555
H16 O6 1_555 1_555
O12 H17 1_555 1_555
H18 O12 1_555 1_555
C4 C5 1_555 1_555
C5 H19 1_555 1_555
C6 C5 1_555 1_555
C7 C6 1_555 1_555
H20 C7 1_555 1_555
C8 C7 1_555 1_555
C9 C4 1_555 1_555
H21 C9 1_555 1_555
C10 H22 1_555 1_555
H23 C10 1_555 1_555
C11 C10 1_555 1_555
C12 H24 1_555 1_555
H25 C12 1_555 1_555
C13 C12 1_555 1_555
C14 H26 1_555 1_555
H27 C14 1_555 1_555
C15 C14 1_555 1_555
C16 C17 1_555 1_555
C17 H28 1_555 1_555
C18 C17 1_555 1_555
C19 C18 1_555 1_555
H29 C19 1_555 1_555
C20 C19 1_555 1_555
C21 C16 1_555 1_555
H30 C21 1_555 1_555
C22 H31 1_555 1_555
H32 C22 1_555 1_555
C23 C22 1_555 1_555
C24 H33 1_555 1_555
H34 C24 1_555 1_555
C25 C24 1_555 1_555
C26 H35 1_555 1_555
H36 C26 1_555 1_555
C27 C26 1_555 1_555
C28 H37 1_555 1_555
C29 C28 1_555 1_555
H38 C29 1_555 1_555
C30 C29 1_555 1_555
H39 C30 1_555 1_555
C31 C30 1_555 1_555
H40 C31 1_555 1_555
C32 C31 1_555 1_555
H41 C32 1_555 1_555
C33 H42 1_555 1_555
C34 C33 1_555 1_555
H43 C34 1_555 1_555
C35 C34 1_555 1_555
C36 C35 1_555 1_555
H44 C36 1_555 1_555
C37 C36 1_555 1_555
H45 C37 1_555 1_555
C38 H46 1_555 1_555
C39 C38 1_555 1_555
H47 C39 1_555 1_555
C40 C39 1_555 1_555
C41 C40 1_555 1_555
H48 C41 1_555 1_555
C42 C41 1_555 1_555
H49 C42 1_555 1_555
N2 C28 1_555 1_555
N3 C33 1_555 1_555
N4 C38 1_555 1_555
O13 C11 1_555 1_555
O14 C11 1_555 1_555
O15 C4 1_555 1_555
O16 C13 1_555 1_555
O17 C13 1_555 1_555
O18 C6 1_555 1_555
O19 C15 1_555 1_555
O20 C15 1_555 1_555
O21 C8 1_555 1_555
O22 C23 1_555 1_555
O23 C23 1_555 1_555
O24 C16 1_555 1_555
O25 C25 1_555 1_555
O26 C25 1_555 1_555
O27 C18 1_555 1_555
O28 C27 1_555 1_555
O29 C27 1_555 1_555
O30 C20 1_555 1_555
O31 Cu1 1_555 1_555
Cu1 N2 1_555 1_555
Cu2 N3 1_555 1_555
Cu3 C40 1_555 1_555
Cu4 O19 1_555 1_555
Cu5 O20 1_555 1_555
H50 O31 1_555 1_555
H51 O31 1_555 1_555
O32 Cu2 1_555 1_555
O33 Cu3 1_555 1_555
N4E Cu4 1_555 1_555
C38E N4E 1_555 1_555
H46E C38E 1_555 1_555
C39E C38E 1_555 1_555
H47E C39E 1_555 1_555
C40E C39E 1_555 1_555
C41E C40E 1_555 1_555
H48E C41E 1_555 1_555
C42E N4E 1_555 1_555
H49E C42E 1_555 1_555
Cu3E C40E 1_555 1_555
O17E Cu3E 1_555 1_555
C13E O17E 1_555 1_555
C12E C13E 1_555 1_555
H24E C12E 1_555 1_555
H25E C12E 1_555 1_555
O18E Cu3E 1_555 1_555
C6E O18E 1_555 1_555
C5E C6E 1_555 1_555
C4E C5E 1_555 1_555
C9E C4E 1_555 1_555
C8E C9E 1_555 1_555
C7E C6E 1_555 1_555
H20E C7E 1_555 1_555
O21E C8E 1_555 1_555
C14E O21E 1_555 1_555
H26E C14E 1_555 1_555
H27E C14E 1_555 1_555
C15E C14E 1_555 1_555
O19E C15E 1_555 1_555
Cu4E O19E 1_555 1_555
N4A Cu4E 1_555 1_555
C38A N4A 1_555 1_555
H46A C38A 1_555 1_555
C39A C38A 1_555 1_555
H47A C39A 1_555 1_555
C40A C39A 1_555 1_555
C41A C40A 1_555 1_555
H48A C41A 1_555 1_555
C42A N4A 1_555 1_555
H49A C42A 1_555 1_555
Cu3A O26 1_555 1_555
O17A Cu3A 1_555 1_555
C13A O17A 1_555 1_555
C12A C13A 1_555 1_555
H24A C12A 1_555 1_555
H25A C12A 1_555 1_555
O18A Cu3A 1_555 1_555
C6A O18A 1_555 1_555
C5A C6A 1_555 1_555
C4A C5A 1_555 1_555
C9A C4A 1_555 1_555
C8A C9A 1_555 1_555
C7A C6A 1_555 1_555
H20A C7A 1_555 1_555
O21A C8A 1_555 1_555
C14A O21A 1_555 1_555
H26A C14A 1_555 1_555
H27A C14A 1_555 1_555
C15A C14A 1_555 1_555
O19A C15A 1_555 1_555
Cu4A O19A 1_555 1_555
N4C Cu4A 1_555 1_555
C38C N4C 1_555 1_555
H46C C38C 1_555 1_555
C39C C38C 1_555 1_555
H47C C39C 1_555 1_555
C40C C39C 1_555 1_555
C41C C40C 1_555 1_555
H48C C41C 1_555 1_555
C42C N4C 1_555 1_555
H49C C42C 1_555 1_555
Cu3C C40C 1_555 1_555
O17C Cu3C 1_555 1_555
C13C O17C 1_555 1_555
C12C C13C 1_555 1_555
H24C C12C 1_555 1_555
H25C C12C 1_555 1_555
O18C Cu3C 1_555 1_555
C6C O18C 1_555 1_555
C5C C6C 1_555 1_555
C4C C5C 1_555 1_555
C9C C4C 1_555 1_555
C8C C9C 1_555 1_555
C7C C6C 1_555 1_555
H20C C7C 1_555 1_555
O21C C8C 1_555 1_555
C14C O21C 1_555 1_555
H26C C14C 1_555 1_555
H27C C14C 1_555 1_555
C15C C14C 1_555 1_555
O19C C15C 1_555 1_555
Cu4C O19C 1_555 1_555
N4B Cu4C 1_555 1_555
C38B N4B 1_555 1_555
H46B C38B 1_555 1_555
C39B C38B 1_555 1_555
H47B C39B 1_555 1_555
C40B C39B 1_555 1_555
C41B C40B 1_555 1_555
H48B C41B 1_555 1_555
C42B N4B 1_555 1_555
H49B C42B 1_555 1_555
Cu3B C40B 1_555 1_555
O17B Cu3B 1_555 1_555
C13B O17B 1_555 1_555
C12B C13B 1_555 1_555
H24B C12B 1_555 1_555
H25B C12B 1_555 1_555
O18B Cu3B 1_555 1_555
C6B O18B 1_555 1_555
C5B C6B 1_555 1_555
C4B C5B 1_555 1_555
C9B C4B 1_555 1_555
C8B C9B 1_555 1_555
C7B C6B 1_555 1_555
H20B C7B 1_555 1_555
O21B C8B 1_555 1_555
C14B O21B 1_555 1_555
H26B C14B 1_555 1_555
H27B C14B 1_555 1_555
C15B C14B 1_555 1_555
O19B C15B 1_555 1_555
Cu4B O19B 1_555 1_555
N4D Cu4B 1_555 1_555
C38D N4D 1_555 1_555
H46D C38D 1_555 1_555
C39D C38D 1_555 1_555
H47D C39D 1_555 1_555
C40D C39D 1_555 1_555
C41D C40D 1_555 1_555
H48D C41D 1_555 1_555
C42D N4D 1_555 1_555
H49D C42D 1_555 1_555
Cu3D C40D 1_555 1_555
O17D Cu3D 1_555 1_555
C13D O17D 1_555 1_555
C12D C13D 1_555 1_555
H24D C12D 1_555 1_555
H25D C12D 1_555 1_555
O18D Cu3D 1_555 1_555
C6D O18D 1_555 1_555
C5D C6D 1_555 1_555
C4D C5D 1_555 1_555
C9D C4D 1_555 1_555
C8D C9D 1_555 1_555
C7D C6D 1_555 1_555
H20D C7D 1_555 1_555
O21D C8D 1_555 1_555
C14D O21D 1_555 1_555
H26D C14D 1_555 1_555
H27D C14D 1_555 1_555
C15D C14D 1_555 1_555
O19D C15D 1_555 1_555
Cu4D N4 1_555 1_555
O26B Cu3 1_555 1_555
C25B O26B 1_555 1_555
C24B C25B 1_555 1_555
H33B C24B 1_555 1_555
H34B C24B 1_555 1_555
O27B C24B 1_555 1_555
C18B O27B 1_555 1_555
C17B C18B 1_555 1_555
C16B C17B 1_555 1_555
C21B C16B 1_555 1_555
C20B C21B 1_555 1_555
C19B C18B 1_555 1_555
H29B C19B 1_555 1_555
O30B C20B 1_555 1_555
C26B O30B 1_555 1_555
H35B C26B 1_555 1_555
H36B C26B 1_555 1_555
C27B C26B 1_555 1_555
O28B C27B 1_555 1_555
Cu1B O28B 1_555 1_555
N2B Cu1B 1_555 1_555
C28B N2B 1_555 1_555
H37B C28B 1_555 1_555
C29B C28B 1_555 1_555
H38B C29B 1_555 1_555
C30B C29B 1_555 1_555
H39B C30B 1_555 1_555
C31B C30B 1_555 1_555
H40B C31B 1_555 1_555
C32B N2B 1_555 1_555
H41B C32B 1_555 1_555
O13B Cu1B 1_555 1_555
C11B O13B 1_555 1_555
C10B C11B 1_555 1_555
H22B C10B 1_555 1_555
H23B C10B 1_555 1_555
O15B C4B 1_555 1_555
O31B Cu1B 1_555 1_555
H50B O31B 1_555 1_555
H51B O31B 1_555 1_555
O14B C11B 1_555 1_555
O29B C27B 1_555 1_555
H30B C21B 1_555 1_555
O24B Cu4B 1_555 1_555
C22B O24B 1_555 1_555
H31B C22B 1_555 1_555
H32B C22B 1_555 1_555
C23B C22B 1_555 1_555
O22B Cu4B 1_555 1_555
O33D Cu4B 1_555 1_555
Cu3D_2 O33D 1_555 1_555
C40D_2 Cu3D_2 1_555 1_555
O17D_2 Cu3D_2 1_555 1_555
O18D_2 Cu3D_2 1_555 1_555
C6D_2 O18D_2 1_555 1_555
C12D_2 O18D_2 1_555 1_555
O26C Cu3D_2 1_555 1_555
C25C O26C 1_555 1_555
C24C C25C 1_555 1_555
H33C C24C 1_555 1_555
H34C C24C 1_555 1_555
O27C C24C 1_555 1_555
C18C O27C 1_555 1_555
C17C C18C 1_555 1_555
C16C C17C 1_555 1_555
C21C C16C 1_555 1_555
C20C C21C 1_555 1_555
C19C C18C 1_555 1_555
H29C C19C 1_555 1_555
O30C C20C 1_555 1_555
C26C O30C 1_555 1_555
H35C C26C 1_555 1_555
H36C C26C 1_555 1_555
C27C C26C 1_555 1_555
O28C C27C 1_555 1_555
Cu1C O28C 1_555 1_555
N2C Cu1C 1_555 1_555
C28C N2C 1_555 1_555
H37C C28C 1_555 1_555
C29C C28C 1_555 1_555
H38C C29C 1_555 1_555
C30C C29C 1_555 1_555
H39C C30C 1_555 1_555
C31C C30C 1_555 1_555
H40C C31C 1_555 1_555
C32C N2C 1_555 1_555
H41C C32C 1_555 1_555
O13C Cu1C 1_555 1_555
C11C O13C 1_555 1_555
C10C C11C 1_555 1_555
H22C C10C 1_555 1_555
H23C C10C 1_555 1_555
O15C Cu1C 1_555 1_555
C4C_2 O15C 1_555 1_555
C5C_2 C4C_2 1_555 1_555
C9C_2 C4C_2 1_555 1_555
O31C Cu1C 1_555 1_555
H50C O31C 1_555 1_555
H51C O31C 1_555 1_555
O14C C11C 1_555 1_555
O29C C27C 1_555 1_555
H30C C21C 1_555 1_555
O24C C16C 1_555 1_555
C22C O24C 1_555 1_555
H31C C22C 1_555 1_555
H32C C22C 1_555 1_555
C23C C22C 1_555 1_555
O22C C23C 1_555 1_555
Cu4C_2 O24C 1_555 1_555
N4B_2 Cu4C_2 1_555 1_555
O19C_2 Cu4C_2 1_555 1_555
O33B Cu3B 1_555 1_555
O26A Cu3B 1_555 1_555
C25A O26A 1_555 1_555
C24A C25A 1_555 1_555
H33A C24A 1_555 1_555
H34A C24A 1_555 1_555
O27A C24A 1_555 1_555
C18A O27A 1_555 1_555
C17A C18A 1_555 1_555
C16A C17A 1_555 1_555
C21A C16A 1_555 1_555
C20A C21A 1_555 1_555
C19A C18A 1_555 1_555
H29A C19A 1_555 1_555
O30A C20A 1_555 1_555
C26A O30A 1_555 1_555
H35A C26A 1_555 1_555
H36A C26A 1_555 1_555
C27A C26A 1_555 1_555
O28A C27A 1_555 1_555
Cu1A O28A 1_555 1_555
N2A Cu1A 1_555 1_555
C28A N2A 1_555 1_555
H37A C28A 1_555 1_555
C29A C28A 1_555 1_555
H38A C29A 1_555 1_555
C30A C29A 1_555 1_555
H39A C30A 1_555 1_555
C31A C30A 1_555 1_555
H40A C31A 1_555 1_555
C32A N2A 1_555 1_555
H41A C32A 1_555 1_555
O13A Cu1A 1_555 1_555
C11A O13A 1_555 1_555
C10A C11A 1_555 1_555
H22A C10A 1_555 1_555
H23A C10A 1_555 1_555
O15A C4A 1_555 1_555
O31A Cu1A 1_555 1_555
H50A O31A 1_555 1_555
H51A O31A 1_555 1_555
O14A C11A 1_555 1_555
O29A C27A 1_555 1_555
H30A C21A 1_555 1_555
O24A Cu4A 1_555 1_555
C22A O24A 1_555 1_555
H31A C22A 1_555 1_555
H32A C22A 1_555 1_555
C23A C22A 1_555 1_555
O22A Cu4A 1_555 1_555
O33C Cu4A 1_555 1_555
Cu3C_2 O33C 1_555 1_555
C40C_2 Cu3C_2 1_555 1_555
O17C_2 Cu3C_2 1_555 1_555
O18C_2 Cu3C_2 1_555 1_555
C6C_2 C5C_2 1_555 1_555
C12C_2 O18C_2 1_555 1_555
O26E Cu3C_2 1_555 1_555
C25E O26E 1_555 1_555
C24E C25E 1_555 1_555
H33E C24E 1_555 1_555
H34E C24E 1_555 1_555
O27E C24E 1_555 1_555
C18E O27E 1_555 1_555
C17E C18E 1_555 1_555
C16E C17E 1_555 1_555
C21E C16E 1_555 1_555
C20E C21E 1_555 1_555
C19E C18E 1_555 1_555
H29E C19E 1_555 1_555
O30E C20E 1_555 1_555
C26E O30E 1_555 1_555
H35E C26E 1_555 1_555
H36E C26E 1_555 1_555
C27E C26E 1_555 1_555
O28E C27E 1_555 1_555
Cu1E O28E 1_555 1_555
N2E Cu1E 1_555 1_555
C28E N2E 1_555 1_555
H37E C28E 1_555 1_555
C29E C28E 1_555 1_555
H38E C29E 1_555 1_555
C30E C29E 1_555 1_555
H39E C30E 1_555 1_555
C31E C30E 1_555 1_555
H40E C31E 1_555 1_555
C32E N2E 1_555 1_555
H41E C32E 1_555 1_555
O13E Cu1E 1_555 1_555
C11E O13E 1_555 1_555
C10E C11E 1_555 1_555
H22E C10E 1_555 1_555
H23E C10E 1_555 1_555
O15E Cu1E 1_555 1_555
C4E_2 O15E 1_555 1_555
C5E_2 C4E_2 1_555 1_555
C9E_2 C4E_2 1_555 1_555
O31E Cu1E 1_555 1_555
H50E O31E 1_555 1_555
H51E O31E 1_555 1_555
O14E C11E 1_555 1_555
O29E C27E 1_555 1_555
H30E C21E 1_555 1_555
O24E C16E 1_555 1_555
C22E O24E 1_555 1_555
H31E C22E 1_555 1_555
H32E C22E 1_555 1_555
C23E C22E 1_555 1_555
O22E C23E 1_555 1_555
Cu4E_2 O24E 1_555 1_555
N4A_2 Cu4E_2 1_555 1_555
O19E_2 Cu4E_2 1_555 1_555
O33A Cu3A 1_555 1_555
Cu2B O25 1_555 1_555
N3B Cu2B 1_555 1_555
C33B N3B 1_555 1_555
H42B C33B 1_555 1_555
C34B C33B 1_555 1_555
H43B C34B 1_555 1_555
C35B C34B 1_555 1_555
C36B C35B 1_555 1_555
H44B C36B 1_555 1_555
C37B N3B 1_555 1_555
H45B C37B 1_555 1_555
Cu5E O21E 1_555 1_555
O20E C15E 1_555 1_555
O23C Cu5E 1_555 1_555
C23C_2 O23C 1_555 1_555
C22C_2 C23C_2 1_555 1_555
O22C_2 C23C_2 1_555 1_555
O32B Cu5E 1_555 1_555
Cu2B_2 O32B 1_555 1_555
N3B_2 Cu2B_2 1_555 1_555
O16B Cu2B_2 1_555 1_555
C13B_2 O16B 1_555 1_555
C12B_2 C13B_2 1_555 1_555
O17B_2 C13B_2 1_555 1_555
O25_2 Cu2B_2 1_555 1_555
C25_2 O25_2 1_555 1_555
C24_2 C25_2 1_555 1_555
O26_2 C25_2 1_555 1_555
O27_2 Cu2B_2 1_555 1_555
O16B_2 Cu2B 1_555 1_555
O32B_2 Cu2B 1_555 1_555
O23E C23E 1_555 1_555
Cu5D O23E 1_555 1_555
C35A Cu5D 1_555 1_555
C34A C35A 1_555 1_555
C33A C34A 1_555 1_555
H42A C33A 1_555 1_555
N3A C33A 1_555 1_555
C37A N3A 1_555 1_555
C36A C35A 1_555 1_555
H44A C36A 1_555 1_555
H45A C37A 1_555 1_555
Cu2A N3A 1_555 1_555
O16A Cu2A 1_555 1_555
C13A_2 O16A 1_555 1_555
C12A_2 C13A_2 1_555 1_555
O17A_2 C13A_2 1_555 1_555
O25B Cu2A 1_555 1_555
C25B_2 O25B 1_555 1_555
C24B_2 C25B_2 1_555 1_555
O26B_2 C25B_2 1_555 1_555
O27B_2 Cu2A 1_555 1_555
C18B_2 O27B_2 1_555 1_555
O32A Cu2A 1_555 1_555
Cu5D_2 O32A 1_555 1_555
C35A_2 Cu5D_2 1_555 1_555
O20D Cu5D_2 1_555 1_555
C15D_2 O20D 1_555 1_555
C14D_2 C15D_2 1_555 1_555
O19D_2 C15D_2 1_555 1_555
O21D_2 Cu5D_2 1_555 1_555
C8D_2 O21D_2 1_555 1_555
O23E_2 Cu5D_2 1_555 1_555
H43A C34A 1_555 1_555
O20D_2 Cu5D 1_555 1_555
O21D_3 Cu5D 1_555 1_555
O32A_2 Cu5D 1_555 1_555
H28E C17E 1_555 1_555
Cu2D O27E 1_555 1_555
N3D Cu2D 1_555 1_555
C33D N3D 1_555 1_555
H42D C33D 1_555 1_555
C34D C33D 1_555 1_555
H43D C34D 1_555 1_555
C35D C34D 1_555 1_555
C36D C35D 1_555 1_555
H44D C36D 1_555 1_555
C37D N3D 1_555 1_555
H45D C37D 1_555 1_555
Cu5A C35D 1_555 1_555
O20A Cu5A 1_555 1_555
C15A_2 O20A 1_555 1_555
C14A_2 C15A_2 1_555 1_555
O19A_2 C15A_2 1_555 1_555
O21A_2 Cu5A 1_555 1_555
C8A_2 O21A_2 1_555 1_555
O23B Cu5A 1_555 1_555
C23B_2 O23B 1_555 1_555
C22B_2 C23B_2 1_555 1_555
O22B_2 C23B_2 1_555 1_555
O32D Cu5A 1_555 1_555
Cu2D_2 O32D 1_555 1_555
N3D_2 Cu2D_2 1_555 1_555
O16D Cu2D_2 1_555 1_555
C13D_2 O16D 1_555 1_555
C12D_3 C13D_2 1_555 1_555
O17D_3 C13D_2 1_555 1_555
O25E Cu2D_2 1_555 1_555
C25E_2 O25E 1_555 1_555
C24E_2 C25E_2 1_555 1_555
O26E_2 C25E_2 1_555 1_555
O27E_2 Cu2D_2 1_555 1_555
O16D_2 Cu2D 1_555 1_555
O25E_2 C25E 1_555 1_555
O32D_2 Cu2D 1_555 1_555
O23A C23A 1_555 1_555
Cu5_2 O23A 1_555 1_555
C35C Cu5_2 1_555 1_555
C34C C35C 1_555 1_555
C33C C34C 1_555 1_555
H42C C33C 1_555 1_555
N3C C33C 1_555 1_555
C37C N3C 1_555 1_555
C36C C35C 1_555 1_555
H44C C36C 1_555 1_555
H45C C37C 1_555 1_555
Cu2C N3C 1_555 1_555
O16C C13C 1_555 1_555
O25D Cu2C 1_555 1_555
C25D O25D 1_555 1_555
C24D C25D 1_555 1_555
H33D C24D 1_555 1_555
H34D C24D 1_555 1_555
O27D Cu2C 1_555 1_555
C18D O27D 1_555 1_555
C17D C18D 1_555 1_555
C16D C17D 1_555 1_555
C21D C16D 1_555 1_555
C20D C21D 1_555 1_555
C19D C18D 1_555 1_555
H29D C19D 1_555 1_555
O30D C20D 1_555 1_555
C26D O30D 1_555 1_555
H35D C26D 1_555 1_555
H36D C26D 1_555 1_555
C27D C26D 1_555 1_555
O28D C27D 1_555 1_555
Cu1D O28D 1_555 1_555
N2D Cu1D 1_555 1_555
C28D N2D 1_555 1_555
H37D C28D 1_555 1_555
C29D C28D 1_555 1_555
H38D C29D 1_555 1_555
C30D C29D 1_555 1_555
H39D C30D 1_555 1_555
C31D C30D 1_555 1_555
H40D C31D 1_555 1_555
C32D N2D 1_555 1_555
H41D C32D 1_555 1_555
O13D Cu1D 1_555 1_555
C11D O13D 1_555 1_555
C10D C11D 1_555 1_555
H22D C10D 1_555 1_555
H23D C10D 1_555 1_555
O15D Cu1D 1_555 1_555
C4D_2 O15D 1_555 1_555
C5D_2 C4D_2 1_555 1_555
C9D_2 C4D_2 1_555 1_555
O31D Cu1D 1_555 1_555
H50D O31D 1_555 1_555
H51D O31D 1_555 1_555
O14D C11D 1_555 1_555
O29D C27D 1_555 1_555
H30D C21D 1_555 1_555
O24D C16D 1_555 1_555
C22D O24D 1_555 1_555
H31D C22D 1_555 1_555
H32D C22D 1_555 1_555
C23D C22D 1_555 1_555
O22D C23D 1_555 1_555
Cu4D_2 O24D 1_555 1_555
N4_2 Cu4D_2 1_555 1_555
O19D_3 Cu4D_2 1_555 1_555
O33_2 Cu4D_2 1_555 1_555
Cu3_2 O33_2 1_555 1_555
C40_2 Cu3_2 1_555 1_555
O17_2 Cu3_2 1_555 1_555
O18_2 Cu3_2 1_555 1_555
O26B_3 Cu3_2 1_555 1_555
O23D C23D 1_555 1_555
Cu5C O21C 1_555 1_555
C35_2 Cu5C 1_555 1_555
C34_2 C35_2 1_555 1_555
C33_2 C34_2 1_555 1_555
H42_2 C33_2 1_555 1_555
N3_2 C33_2 1_555 1_555
C37_2 N3_2 1_555 1_555
C36_2 C35_2 1_555 1_555
H44_2 C36_2 1_555 1_555
H45_2 C37_2 1_555 1_555
Cu2_2 O27A 1_555 1_555
O16_2 Cu2_2 1_555 1_555
C13_2 O16_2 1_555 1_555
C12_2 C13_2 1_555 1_555
O17_3 C13_2 1_555 1_555
O25A C25A 1_555 1_555
O32_2 Cu2_2 1_555 1_555
Cu5C_2 O32_2 1_555 1_555
C35_3 Cu5C_2 1_555 1_555
O20C Cu5C_2 1_555 1_555
C15C_2 O19C_2 1_555 1_555
C14C_2 C15C_2 1_555 1_555
O21C_2 Cu5C_2 1_555 1_555
C8C_2 C9C_2 1_555 1_555
O23D_2 Cu5C_2 1_555 1_555
H43_2 C34_2 1_555 1_555
O20C_2 C15C 1_555 1_555
O32_3 Cu5C 1_555 1_555
H28D C17D 1_555 1_555
O32C Cu2C 1_555 1_555
Cu5_3 O32C 1_555 1_555
C35C_2 Cu5_3 1_555 1_555
O20_2 Cu5_3 1_555 1_555
C15_2 O20_2 1_555 1_555
C14_2 C15_2 1_555 1_555
H26_2 C14_2 1_555 1_555
H27_2 C14_2 1_555 1_555
O21_2 Cu5_3 1_555 1_555
C8_2 O21_2 1_555 1_555
C7_2 C8_2 1_555 1_555
C9_2 C8_2 1_555 1_555
O23A_2 Cu5_3 1_555 1_555
O19_2 C15_2 1_555 1_555
Cu4_2 O19_2 1_555 1_555
N4E_2 Cu4_2 1_555 1_555
O22_2 Cu4_2 1_555 1_555
O24_2 Cu4_2 1_555 1_555
C16_2 O24_2 1_555 1_555
C22_2 O24_2 1_555 1_555
O33E Cu4_2 1_555 1_555
Cu3E_2 O33E 1_555 1_555
C40E_2 Cu3E_2 1_555 1_555
O17E_2 Cu3E_2 1_555 1_555
O18E_2 Cu3E_2 1_555 1_555
C6E_2 O18E_2 1_555 1_555
C12E_2 O18E_2 1_555 1_555
O26D C25D 1_555 1_555
H43C C34C 1_555 1_555
O20_3 Cu5_2 1_555 1_555
O21_3 Cu5_2 1_555 1_555
O32C_2 Cu5_2 1_555 1_555
H28A C17A 1_555 1_555
O23C_2 C23C 1_555 1_555
H28C C17C 1_555 1_555
Cu2E O27C 1_555 1_555
N3E Cu2E 1_555 1_555
C33E N3E 1_555 1_555
H42E C33E 1_555 1_555
C34E C33E 1_555 1_555
H43E C34E 1_555 1_555
C35E C34E 1_555 1_555
C36E C35E 1_555 1_555
H44E C36E 1_555 1_555
C37E N3E 1_555 1_555
H45E C37E 1_555 1_555
Cu5B C35E 1_555 1_555
O20B Cu5B 1_555 1_555
C15B_2 O20B 1_555 1_555
C14B_2 C15B_2 1_555 1_555
O19B_2 C15B_2 1_555 1_555
O21B_2 Cu5B 1_555 1_555
C8B_2 O21B_2 1_555 1_555
O23_2 Cu5B 1_555 1_555
C23_2 O23_2 1_555 1_555
C22_3 C23_2 1_555 1_555
O22_3 C23_2 1_555 1_555
O32E Cu5B 1_555 1_555
Cu2E_2 O32E 1_555 1_555
N3E_2 Cu2E_2 1_555 1_555
O16E Cu2E_2 1_555 1_555
C13E_2 O16E 1_555 1_555
C12E_3 C13E_2 1_555 1_555
O17E_3 C13E_2 1_555 1_555
O25C Cu2E_2 1_555 1_555
C25C_2 O25C 1_555 1_555
C24C_2 C25C_2 1_555 1_555
O26C_2 C25C_2 1_555 1_555
O27C_2 Cu2E_2 1_555 1_555
O16E_2 Cu2E 1_555 1_555
O25C_2 C25C 1_555 1_555
O32E_2 Cu2E 1_555 1_555
O23B_2 C23B 1_555 1_555
H28B C17B 1_555 1_555
Cu2A_2 O27B 1_555 1_555
O25B_2 C25B 1_555 1_555
O22D_2 Cu4D 1_555 1_555
O24D_2 Cu4D 1_555 1_555
O33_3 Cu4D 1_555 1_555
O20D_3 C15D 1_555 1_555
Cu5D_3 O21D 1_555 1_555
H21D C9D 1_555 1_555
O15D_2 C4D 1_555 1_555
H19D C5D 1_555 1_555
O16D_3 C13D 1_555 1_555
O26C_3 Cu3D 1_555 1_555
O33D_2 Cu3D 1_555 1_555
O20B_2 C15B 1_555 1_555
Cu5B_2 O21B 1_555 1_555
H21B C9B 1_555 1_555
H19B C5B 1_555 1_555
O16B_3 C13B 1_555 1_555
O22C_3 Cu4C 1_555 1_555
O24C_2 Cu4C 1_555 1_555
O33B_2 Cu4C 1_555 1_555
H21C C9C 1_555 1_555
O15C_2 C4C 1_555 1_555
H19C C5C 1_555 1_555
O26E_3 Cu3C 1_555 1_555
O33C_2 Cu3C 1_555 1_555
O20A_2 C15A 1_555 1_555
Cu5A_2 O21A 1_555 1_555
H21A C9A 1_555 1_555
H19A C5A 1_555 1_555
O16A_2 C13A 1_555 1_555
O22E_2 Cu4E 1_555 1_555
O24E_2 Cu4E 1_555 1_555
O33A_2 Cu4E 1_555 1_555
H21E C9E 1_555 1_555
O15E_2 C4E 1_555 1_555
H19E C5E 1_555 1_555
O16E_3 C13E 1_555 1_555
O26D_2 Cu3E 1_555 1_555
O33E_2 Cu3E 1_555 1_555
O33E_3 Cu4 1_555 1_555
Cu5C_3 C35 1_555 1_555
Cu5B_3 O23 1_555 1_555
O25A_2 Cu2 1_555 1_555
O27A_2 Cu2 1_555 1_555
C35C_3 Cu5 1_555 1_555
O23A_3 Cu5 1_555 1_555
O32C_3 Cu5 1_555 1_555
Cu5C_4 O32 1_555 1_555
Cu4D_3 O33 1_555 1_555
C7C_2 C6C_2 1_555 1_555
H19C_2 C5C_2 1_555 1_555
H21C_2 C9C_2 1_555 1_555
C18_2 O27_2 1_555 1_555
H33_2 C24_2 1_555 1_555
H34_2 C24_2 1_555 1_555
C18E_2 O27E_2 1_555 1_555
H33E_2 C24E_2 1_555 1_555
H34E_2 C24E_2 1_555 1_555
C35D_2 Cu5A_2 1_555 1_555
O23B_3 Cu5A_2 1_555 1_555
C18C_2 O27C_2 1_555 1_555
H33C_2 C24C_2 1_555 1_555
H34C_2 C24C_2 1_555 1_555
C35E_2 Cu5B_2 1_555 1_555
O23_3 Cu5B_2 1_555 1_555
N3A_2 Cu2A_2 1_555 1_555
O16A_3 Cu2A_2 1_555 1_555
O32A_3 Cu2A_2 1_555 1_555
C35A_3 Cu5D_3 1_555 1_555
O23E_3 Cu5D_3 1_555 1_555
O32A_4 Cu5D_3 1_555 1_555
C8 C9 1_555 1_555
C10 O15 1_555 1_555
C12 O18 1_555 1_555
C14 O21 1_555 1_555
C20 C21 1_555 1_555
C22 O24 1_555 1_555
C24 O27 1_555 1_555
C26 O30 1_555 1_555
C32 N2 1_555 1_555
C37 N3 1_555 1_555
C42 N4 1_555 1_555
O13 Cu1 1_555 1_555
O15 Cu1 1_555 1_555
O16 Cu2 1_555 1_555
O17 Cu3 1_555 1_555
O18 Cu3 1_555 1_555
O21 Cu5 1_555 1_555
O22 Cu4 1_555 1_555
O24 Cu4 1_555 1_555
O27 Cu2B 1_555 1_555
O28 Cu1 1_555 1_555
C41E C42E 1_555 1_555
C12E O18E 1_555 1_555
C8E C7E 1_555 1_555
C40A Cu3A 1_555 1_555
C41A C42A 1_555 1_555
C12A O18A 1_555 1_555
C8A C7A 1_555 1_555
C41C C42C 1_555 1_555
C12C O18C 1_555 1_555
C8C C7C 1_555 1_555
C41B C42B 1_555 1_555
C12B O18B 1_555 1_555
C8B C7B 1_555 1_555
C41D C42D 1_555 1_555
C12D O18D 1_555 1_555
C8D C7D 1_555 1_555
O19D Cu4D 1_555 1_555
C16B O24B 1_555 1_555
C20B C19B 1_555 1_555
Cu1B O15B 1_555 1_555
C31B C32B 1_555 1_555
C10B O15B 1_555 1_555
C23B O22B 1_555 1_555
C20C C19C 1_555 1_555
C31C C32C 1_555 1_555
C10C O15C 1_555 1_555
O22C Cu4C_2 1_555 1_555
Cu4C_2 O33B 1_555 1_555
C16A O24A 1_555 1_555
C20A C19A 1_555 1_555
Cu1A O15A 1_555 1_555
C31A C32A 1_555 1_555
C10A O15A 1_555 1_555
C23A O22A 1_555 1_555
O18C_2 C6C_2 1_555 1_555
C20E C19E 1_555 1_555
C31E C32E 1_555 1_555
C10E O15E 1_555 1_555
O22E Cu4E_2 1_555 1_555
Cu4E_2 O33A 1_555 1_555
C35B Cu5E 1_555 1_555
C36B C37B 1_555 1_555
Cu5E O20E 1_555 1_555
C24_2 O27_2 1_555 1_555
C37A C36A 1_555 1_555
C24B_2 O27B_2 1_555 1_555
C14D_2 O21D_2 1_555 1_555
Cu2D O25E_2 1_555 1_555
C36D C37D 1_555 1_555
C14A_2 O21A_2 1_555 1_555
C24E_2 O27E_2 1_555 1_555
O32D_2 Cu5A_2 1_555 1_555
C37C C36C 1_555 1_555
Cu2C O16C 1_555 1_555
C24D O27D 1_555 1_555
C20D C19D 1_555 1_555
C31D C32D 1_555 1_555
C10D O15D 1_555 1_555
O22D Cu4D_2 1_555 1_555
O23D Cu5C 1_555 1_555
Cu5C O20C_2 1_555 1_555
N3_2 Cu2_2 1_555 1_555
C37_2 C36_2 1_555 1_555
Cu2_2 O25A 1_555 1_555
O20C C15C_2 1_555 1_555
C14C_2 O21C_2 1_555 1_555
O21C_2 C8C_2 1_555 1_555
C8C_2 C7C_2 1_555 1_555
C14_2 O21_2 1_555 1_555
Cu3E_2 O26D 1_555 1_555
Cu2E O25C_2 1_555 1_555
C36E C37E 1_555 1_555
C14B_2 O21B_2 1_555 1_555
C24C_2 O27C_2 1_555 1_555
O32E_2 Cu5B_2 1_555 1_555
Cu2A_2 O25B_2 1_555 1_555
O20D_3 Cu5D_3 1_555 1_555
O20B_2 Cu5B_2 1_555 1_555
O20A_2 Cu5A_2 1_555 1_555

#END
