
#######################################################################
#
#                 Cambridge Crystallographic Data Centre
#                                CCDC 
#
#######################################################################
#
# If this CIF has been generated from an entry in the Cambridge 
# Structural Database, then it will include bibliographic, chemical, 
# crystal, experimental, refinement or atomic coordinate data resulting 
# from the CCDC's data processing and validation procedures.
#
#######################################################################

data_QAQHOG
_chemical_formula_moiety         '(C4 H10 Ga1 N2 O22 P5 Ti3 1-)n'
_symmetry_cell_setting           monoclinic
_symmetry_space_group_name_H-M   'P 21/m'
_symmetry_Int_Tables_number      11
_space_group_name_Hall           '-P 2yb'
loop_
_symmetry_equiv_pos_site_id
_symmetry_equiv_pos_as_xyz
1 x,y,z
2 -x,1/2+y,-z
3 -x,-y,-z
4 x,1/2-y,z
_cell_length_a                   5.0996(1)
_cell_length_b                   21.2595(6)
_cell_length_c                   8.9209(3)
_cell_angle_alpha                90
_cell_angle_beta                 90.2394(14)
_cell_angle_gamma                90
_cell_volume                     967.15
loop_
_atom_site_label
_atom_site_type_symbol
_atom_site_fract_x
_atom_site_fract_y
_atom_site_fract_z
N1 N 0.0113(8) 0.18687(17) 0.6494(4)
C2 C -0.1736(8) 0.21794(18) 0.5666(4)
C3 C 0.1956(8) 0.2177(2) 0.7309(4)
H3 H 0.0107 0.1398 0.6498
H4 H -0.3069 0.1940 0.5069
H5 H 0.3293 0.1937 0.7901
N1C N 0.0113(8) 0.31313(17) 0.6494(4)
C2C C -0.1736(8) 0.28206(18) 0.5666(4)
C3C C 0.1956(8) 0.2823(2) 0.7309(4)
H3C H 0.0107 0.3602 0.6498
H4C H -0.3069 0.3060 0.5069
H5C H 0.3293 0.3063 0.7901
Ga1 Ga -0.6847(1) 0.2500 0.24392(6)
Ti1 Ti -0.27219(11) 0.10040(3) 0.02196(6)
Ti2 Ti -1.0000 0.5000 0.5000
P1 P -0.1973(2) 0.2500 0.05581(13)
P2 P -0.78677(16) 0.38578(4) 0.26543(9)
P3 P 0.23973(15) 0.04614(4) -0.16009(9)
O1 O -0.3324(6) 0.2500 0.2109(4)
O2 O 0.1026(6) 0.2500 0.0786(4)
O3 O -0.7362(5) 0.3227(1) 0.3490(2)
O4 O -0.2796(4) 0.1907(1) -0.0307(2)
O5 O -0.5826(4) 0.39243(11) 0.1416(3)
O6 O 0.0249(4) 0.0914(1) -0.1063(3)
O7 O -1.0616(4) 0.38292(11) 0.1959(3)
O8 O -0.2491(4) 0.0124(1) 0.0618(3)
O9 O 0.5059(4) 0.08086(11) -0.1557(2)
O10 O -0.7653(4) 0.43885(11) 0.3799(2)
O11 O 0.1849(5) 0.02950(11) -0.3240(2)
O12 O -0.7061(5) 0.56729(12) 0.4578(3)
H1 H -0.58(1) 0.563(4) 0.518(6)
H2 H -0.650(12) 0.569(3) 0.365(5)
Ga1_2 Ga 0.3153(1) 0.2500 0.24392(6)
Ti1C Ti -0.27219(11) 0.39960(3) 0.02196(6)
Ti1C_2 Ti -1.27219(11) 0.39960(3) 0.02196(6)
Ti1B Ti 0.27219(11) -0.10040(3) -0.02196(6)
Ti1_2 Ti 0.72781(11) 0.10040(3) 0.02196(6)
Ti1_3 Ti -1.27219(11) 0.10040(3) 0.02196(6)
Ti1B_2 Ti -0.72781(11) -0.10040(3) -0.02196(6)
Ti2C Ti 0.0000 0.0000 -0.5000
Ti2C_2 Ti 0.0000 0.0000 0.5000
Ti2C_3 Ti -1.0000 0.0000 0.5000
P2C P -0.78677(16) 0.11422(4) 0.26543(9)
P3B P -0.23973(15) -0.04614(4) 0.16009(9)
O2_2 O -0.8974(6) 0.2500 0.0786(4)
O3C O -0.7362(5) 0.1773(1) 0.3490(2)
O4C O -0.2796(4) 0.3093(1) -0.0307(2)
O5C O -0.5826(4) 0.10757(11) 0.1416(3)
O6B O -0.0249(4) -0.0914(1) 0.1063(3)
O6C O 0.0249(4) 0.4086(1) -0.1063(3)
O7C O -0.0616(4) 0.11708(11) 0.1959(3)
O7C_2 O -1.0616(4) 0.11708(11) 0.1959(3)
O7_2 O -0.0616(4) 0.38292(11) 0.1959(3)
O8B O 0.2491(4) -0.0124(1) -0.0618(3)
O8C O -0.2491(4) 0.4876(1) 0.0618(3)
O9_2 O -0.4941(4) 0.08086(11) -0.1557(2)
O9B O -0.5059(4) -0.08086(11) 0.1557(2)
O9C O -0.4941(4) 0.41914(11) -0.1557(2)
O10B O -1.2347(4) 0.56115(11) 0.6201(2)
O10C O -0.7653(4) 0.06115(11) 0.3799(2)
O11C O -0.8151(5) 0.47050(11) 0.6760(2)
O11A O -1.1849(5) 0.52950(11) 0.3240(2)
O11B O -0.1849(5) -0.02950(11) 0.3240(2)
O12B O -1.2939(5) 0.43271(12) 0.5422(3)
H1B H -1.42(1) 0.437(4) 0.482(6)
H2B H -1.350(12) 0.431(3) 0.635(5)
loop_
_geom_bond_atom_site_label_1
_geom_bond_atom_site_label_2
_geom_bond_site_symmetry_1
_geom_bond_site_symmetry_2
Ga1 O1 1_555 1_555
Ti1 O4 1_555 1_555
Ti2 O10 1_555 1_555
P1 O1 1_555 1_555
P2 O3 1_555 1_555
P3 O6 1_555 1_555
O2 P1 1_555 1_555
O3 Ga1 1_555 1_555
O4 P1 1_555 1_555
O5 P2 1_555 1_555
O6 Ti1 1_555 1_555
O7 P2 1_555 1_555
O8 Ti1 1_555 1_555
O9 P3 1_555 1_555
O10 P2 1_555 1_555
O11 P3 1_555 1_555
O12 Ti2 1_555 1_555
N1 C2 1_555 1_555
C2 H4 1_555 1_555
C3 N1 1_555 1_555
H1 O12 1_555 1_555
H2 O12 1_555 1_555
H3 N1 1_555 1_555
H5 C3 1_555 1_555
Ga1_2 O2 1_555 1_555
Ti1C O5 1_555 1_555
Ti1C_2 O7 1_555 1_555
Ti1B O6B 1_555 1_555
Ti1_2 O9 1_555 1_555
Ti1_3 O7C_2 1_555 1_555
Ti1B_2 O9B 1_555 1_555
Ti2C O11 1_555 1_555
Ti2C_2 O11B 1_555 1_555
Ti2C_3 O10C 1_555 1_555
P2C O3C 1_555 1_555
P3B O8 1_555 1_555
O2_2 Ga1 1_555 1_555
O3C Ga1 1_555 1_555
O4C P1 1_555 1_555
O5C Ti1 1_555 1_555
O6B P3B 1_555 1_555
O6C Ti1C 1_555 1_555
O7C Ti1 1_555 1_555
O7C_2 P2C 1_555 1_555
O7_2 Ti1C 1_555 1_555
O8B P3 1_555 1_555
O8C Ti1C 1_555 1_555
O9_2 Ti1 1_555 1_555
O9B P3B 1_555 1_555
O9C Ti1C 1_555 1_555
O10B Ti2 1_555 1_555
O10C P2C 1_555 1_555
O11C Ti2 1_555 1_555
O11A Ti2 1_555 1_555
O11B P3B 1_555 1_555
O12B Ti2 1_555 1_555
N1C C2C 1_555 1_555
C2C C2 1_555 1_555
C3C C3 1_555 1_555
H1B O12B 1_555 1_555
H2B O12B 1_555 1_555
H3C N1C 1_555 1_555
H4C C2C 1_555 1_555
H5C C3C 1_555 1_555
Ti1C O4C 1_555 1_555
Ti1B O8B 1_555 1_555
P2C O5C 1_555 1_555
N1C C3C 1_555 1_555

#END
