
#######################################################################
#
#                 Cambridge Crystallographic Data Centre
#                                CCDC 
#
#######################################################################
#
# If this CIF has been generated from an entry in the Cambridge 
# Structural Database, then it will include bibliographic, chemical, 
# crystal, experimental, refinement or atomic coordinate data resulting 
# from the CCDC's data processing and validation procedures.
#
#######################################################################

data_QATPOR
_chemical_formula_moiety         '(C5 H9 Ga1 N1 O22 P5 Ti3)n'
_symmetry_cell_setting           monoclinic
_symmetry_space_group_name_H-M   'P 21'
_symmetry_Int_Tables_number      4
_space_group_name_Hall           'P 2yb'
loop_
_symmetry_equiv_pos_site_id
_symmetry_equiv_pos_as_xyz
1 x,y,z
2 -x,1/2+y,-z
_cell_length_a                   5.1028(2)
_cell_length_b                   21.1626(7)
_cell_length_c                   8.8581(4)
_cell_angle_alpha                90
_cell_angle_beta                 89.9965(16)
_cell_angle_gamma                90
_cell_volume                     956.573
loop_
_atom_site_label
_atom_site_type_symbol
_atom_site_fract_x
_atom_site_fract_y
_atom_site_fract_z
Ti1 Ti -0.7209(3) -0.15835(8) -0.47186(16)
Ti2 Ti -0.9832(3) -0.06454(8) 0.01000(17)
Ti3 Ti -0.2751(3) 0.04166(8) -0.51225(16)
Ga1 Ga -1.30620(12) -0.30983(8) -0.25198(7)
P1 P -1.2063(5) -0.17416(11) -0.2251(2)
P2 P -0.7939(5) 0.05294(11) 0.2423(2)
P3 P -0.7631(5) -0.01204(11) -0.3296(2)
P4 P -0.2377(5) -0.1039(1) -0.6538(2)
P5 P -0.7948(3) -0.30867(15) -0.44152(16)
O1 O -0.9388(13) -0.1769(3) -0.2985(6)
O2 O -0.7165(13) -0.2482(3) -0.5266(6)
O3 O -0.7518(11) -0.0705(3) -0.4280(6)
O4 O -1.2528(13) -0.2379(3) -0.1409(7)
O5 O -1.4188(12) -0.1666(3) -0.3442(6)
O6 O -1.2177(12) -0.1217(3) -0.1085(6)
O7 O -0.8227(11) -0.0298(3) -0.1649(6)
O8 O -0.4932(12) 0.0228(3) -0.3304(6)
O9 O -0.9764(12) 0.0333(3) -0.3828(6)
O10 O -0.7316(15) -0.1256(3) 0.0412(8)
O11 O -1.0689(13) 0.0579(3) 0.3119(6)
O12 O -0.7092(13) -0.3673(3) -0.5323(6)
O13 O -0.2472(12) -0.0467(3) -0.5506(6)
O14 O -0.7351(13) 0.1151(3) 0.1543(6)
O15 O -0.5918(12) 0.0443(3) 0.3658(6)
O16 O -0.7796(12) -0.0019(3) 0.1280(6)
O17 O -0.1997(11) -0.0844(3) -0.8187(6)
O18 O -0.4931(12) -0.1406(3) -0.6435(6)
O19 O -0.0139(12) -0.1487(3) -0.6076(7)
O20 O -1.2797(15) 0.0047(3) -0.0331(7)
O21 O -1.0955(7) -0.3091(4) -0.4177(4)
O22 O -0.6584(7) -0.3099(4) -0.2864(4)
H1 H -1.31(2) 0.010(4) -0.127(3)
H2 H -1.231(19) 0.039(2) 0.009(8)
H3 H -0.587(9) -0.116(4) 0.000(9)
Ti1_2 Ti -1.7209(3) -0.15835(8) -0.47186(16)
Ti1_3 Ti 0.2791(3) -0.15835(8) -0.47186(16)
Ti2_2 Ti 0.0168(3) -0.06454(8) -0.99000(17)
Ti3A Ti -0.7249(3) -0.45834(8) -0.48775(16)
Ti3_2 Ti -1.2751(3) 0.04166(8) -0.51225(16)
Ti3_3 Ti -1.2751(3) 0.04166(8) 0.48775(16)
Ti3_4 Ti -0.2751(3) 0.04166(8) 0.48775(16)
Ga1_2 Ga -0.30620(12) -0.30983(8) -0.25198(7)
Ga1A Ga -0.69380(12) 0.19017(8) 0.25198(7)
O5_2 O -0.4188(12) -0.1666(3) -0.3442(6)
O9_2 O 0.0236(12) 0.0333(3) -0.3828(6)
O11_2 O -0.0689(13) 0.0579(3) -0.6881(6)
O12A O -0.2908(13) 0.1327(3) -0.4677(6)
O14A O -1.2649(13) -0.3849(3) -0.1543(6)
O15_2 O -0.5918(12) 0.0443(3) -0.6342(6)
O17_2 O -1.1997(11) -0.0844(3) 0.1813(6)
O19_2 O -1.0139(12) -0.1487(3) -0.6076(7)
O22_2 O -1.6584(7) -0.3099(4) -0.2864(4)
N1 N -1.0361(18) 0.2569(4) -0.1652(9)
C1 C -0.842(2) 0.2278(5) -0.2370(11)
C2 C -0.797(2) 0.1643(5) -0.222(1)
C3 C -0.973(2) 0.1313(4) -0.1322(9)
C4 C -1.178(2) 0.1622(5) -0.0610(11)
C5 C -1.204(2) 0.2246(5) -0.074(1)
H4 H -0.9517 0.0846 -0.1188
H5 H -0.6465 0.1430 -0.2730
H6 H -0.7245 0.2532 -0.3042
H7 H -1.0595 0.3035 -0.1784
H8 H -1.3444 0.2474 -0.0178
H9 H -1.3068 0.1376 0.0005
loop_
_geom_bond_atom_site_label_1
_geom_bond_atom_site_label_2
_geom_bond_site_symmetry_1
_geom_bond_site_symmetry_2
Ti1 O1 1_555 1_555
Ti2 O6 1_555 1_555
Ti3 O8 1_555 1_555
Ga1 O4 1_555 1_555
P1 O1 1_555 1_555
P2 O11 1_555 1_555
P3 O3 1_555 1_555
P4 O13 1_555 1_555
P5 O2 1_555 1_555
O2 Ti1 1_555 1_555
O3 Ti1 1_555 1_555
O4 P1 1_555 1_555
O5 P1 1_555 1_555
O6 P1 1_555 1_555
O7 Ti2 1_555 1_555
O8 P3 1_555 1_555
O9 P3 1_555 1_555
O10 Ti2 1_555 1_555
O11 Ti3_3 1_555 1_555
O12 P5 1_555 1_555
O13 Ti3 1_555 1_555
O14 P2 1_555 1_555
O15 P2 1_555 1_555
O16 Ti2 1_555 1_555
O17 P4 1_555 1_555
O18 Ti1 1_555 1_555
O19 P4 1_555 1_555
O20 Ti2 1_555 1_555
O21 Ga1 1_555 1_555
O22 P5 1_555 1_555
N1 C1 1_555 1_555
C1 C2 1_555 1_555
C2 C3 1_555 1_555
C3 C4 1_555 1_555
C4 C5 1_555 1_555
C5 N1 1_555 1_555
H1 O20 1_555 1_555
H2 O20 1_555 1_555
H3 O10 1_555 1_555
H4 C3 1_555 1_555
H5 C2 1_555 1_555
H6 C1 1_555 1_555
H7 N1 1_555 1_555
H8 C5 1_555 1_555
H9 C4 1_555 1_555
Ti1_2 O5 1_555 1_555
Ti1_3 O19 1_555 1_555
Ti2_2 O17 1_555 1_555
Ti3A O12 1_555 1_555
Ti3_2 O9 1_555 1_555
Ti3_4 O15 1_555 1_555
Ga1_2 O22 1_555 1_555
Ga1A O14 1_555 1_555
O5_2 Ti1 1_555 1_555
O9_2 Ti3 1_555 1_555
O11_2 Ti3 1_555 1_555
O12A Ti3 1_555 1_555
O14A Ga1 1_555 1_555
O15_2 Ti3 1_555 1_555
O17_2 Ti2 1_555 1_555
O19_2 Ti1 1_555 1_555
O22_2 Ga1 1_555 1_555
P2 O16 1_555 1_555
P3 O7 1_555 1_555
P4 O18 1_555 1_555
P5 O21 1_555 1_555

#END
