
#######################################################################
#
#                 Cambridge Crystallographic Data Centre
#                                CCDC 
#
#######################################################################
#
# If this CIF has been generated from an entry in the Cambridge 
# Structural Database, then it will include bibliographic, chemical, 
# crystal, experimental, refinement or atomic coordinate data resulting 
# from the CCDC's data processing and validation procedures.
#
#######################################################################

data_DORFAS
_chemical_formula_moiety         '(C25 H32 In1 N2 O10 1-)n'
_symmetry_cell_setting           trigonal
_symmetry_space_group_name_H-M   'P 31 2 1'
_symmetry_Int_Tables_number      152
_space_group_name_Hall           'P 31 2"'
loop_
_symmetry_equiv_pos_site_id
_symmetry_equiv_pos_as_xyz
1 x,y,z
2 -y,x-y,1/3+z
3 -x+y,-x,2/3+z
4 y,x,-z
5 x-y,-y,2/3-z
6 -x,-x+y,1/3-z
_cell_length_a                   12.8708(1)
_cell_length_b                   12.8708(1)
_cell_length_c                   17.2433(4)
_cell_angle_alpha                90
_cell_angle_beta                 90
_cell_angle_gamma                120
_cell_volume                     2473.79
loop_
_atom_site_label
_atom_site_type_symbol
_atom_site_fract_x
_atom_site_fract_y
_atom_site_fract_z
_atom_site_U_iso_or_equiv
_atom_site_thermal_displace_type
O2 O 1.218(2) 0.953(2) -0.2415(13) 0.1600 Uiso
C1 C 1.0268(16) 1.1024(14) -0.2039(9) 0.1240 Uiso
C2 C 0.797(2) 1.0000 -0.1667 0.1440 Uiso
C3 C 0.9640(28) 1.1549(19) -0.0833(12) 0.1640 Uiso
N1 N 0.9430(17) 1.0400(16) -0.1463(9) 0.0750 Uiso
C1D C 0.9244(21) 0.8976(14) -0.1294(9) 0.1240 Uiso
C3D C 0.8091(34) 0.8451(19) -0.2500(12) 0.1640 Uiso
N1D N 0.9030(23) 0.9600(16) -0.1870(9) 0.0750 Uiso
In1 In 0.62470(5) 0.62470(5) 0.0000 0.0319 Uani
O3 O 0.6808(5) 0.8195(5) 0.0105(3) 0.0402 Uani
O4 O 0.4923(5) 0.6964(6) -0.0151(3) 0.0454 Uani
O5 O 0.3402(5) 0.9837(5) 0.1995(3) 0.0529 Uani
O6 O 0.5135(5) 1.0240(5) 0.2456(3) 0.0526 Uani
C4 C 0.5446(8) 0.8996(7) 0.0124(4) 0.0433 Uani
C5 C 0.4631(8) 0.8738(8) 0.0851(4) 0.0476 Uani
C6 C 0.4887(8) 1.0013(7) 0.1065(4) 0.0441 Uani
H1 H 0.4480 1.0269 0.0696 0.0530 Uiso
C7 C 0.6254(10) 1.0786(10) 0.0958(5) 0.0791 Uani
H2 H 0.6476 1.1602 0.0820 0.0950 Uiso
H3 H 0.6669 1.0803 0.1432 0.0950 Uiso
C8 C 0.6551(10) 1.0216(9) 0.0334(6) 0.0799 Uani
H4 H 0.7205 1.0095 0.0496 0.0960 Uiso
H5 H 0.6812 1.0734 -0.0118 0.0960 Uiso
C9 C 0.4861(12) 0.9071(11) -0.0620(5) 0.0789 Uani
H6 H 0.5397 0.9226 -0.1047 0.1180 Uiso
H7 H 0.4682 0.9709 -0.0580 0.1180 Uiso
H8 H 0.4132 0.8326 -0.0704 0.1180 Uiso
C10 C 0.3223(9) 0.7906(10) 0.0659(6) 0.0810 Uani
H9 H 0.2764 0.7777 0.1124 0.1210 Uiso
H10 H 0.3076 0.7148 0.0459 0.1210 Uiso
H11 H 0.2990 0.8297 0.0280 0.1210 Uiso
C11 C 0.4933(9) 0.8132(8) 0.1494(4) 0.0522 Uani
H12 H 0.5770 0.8605 0.1619 0.0790 Uiso
H13 H 0.4757 0.7349 0.1327 0.0790 Uiso
H14 H 0.4464 0.8058 0.1945 0.0790 Uiso
C12 C 0.5746(9) 0.7995(8) 0.0013(3) 0.0370 Uani
C13 C 0.4460(8) 1.0045(6) 0.1893(4) 0.0437 Uani
In1A In 0.37530(5) 1.00000(7) 0.3333 0.0319 Uani
In1B In 1.00000(7) 0.37530(5) -0.3333 0.0319 Uani
O3C O 0.8195(5) 0.6808(5) -0.0105(3) 0.0402 Uani
O4C O 0.6964(6) 0.4923(5) 0.0151(3) 0.0454 Uani
O5C O 0.9837(5) 0.3402(5) -0.1995(3) 0.0529 Uani
O5B O 0.6435(7) 0.6598(5) -0.1338(3) 0.0529 Uani
O5E O 0.6598(5) 0.6435(7) 0.1338(3) 0.0529 Uani
O6C O 1.0240(5) 0.5135(5) -0.2456(3) 0.0526 Uani
O6B O 0.5105(7) 0.4865(5) -0.0877(3) 0.0526 Uani
O6E O 0.4865(5) 0.5105(7) 0.0877(3) 0.0526 Uani
C4C C 0.8996(7) 0.5446(8) -0.0124(4) 0.0433 Uani
C5C C 0.8738(8) 0.4631(8) -0.0851(4) 0.0476 Uani
C6C C 1.0013(7) 0.4887(8) -0.1065(4) 0.0441 Uani
H1C H 1.0269 0.4480 -0.0696 0.0530 Uiso
C7C C 1.0786(10) 0.6254(10) -0.0958(5) 0.0791 Uani
H2C H 1.1602 0.6476 -0.0820 0.0950 Uiso
H3C H 1.0803 0.6669 -0.1432 0.0950 Uiso
C8C C 1.0216(9) 0.6551(10) -0.0334(6) 0.0799 Uani
H4C H 1.0095 0.7205 -0.0496 0.0960 Uiso
H5C H 1.0734 0.6812 0.0118 0.0960 Uiso
C9C C 0.9071(11) 0.4861(12) 0.0620(5) 0.0789 Uani
H6C H 0.9226 0.5397 0.1047 0.1180 Uiso
H7C H 0.9709 0.4682 0.0580 0.1180 Uiso
H8C H 0.8326 0.4132 0.0704 0.1180 Uiso
C10C C 0.7906(10) 0.3223(9) -0.0659(6) 0.0810 Uani
H9C H 0.7777 0.2764 -0.1124 0.1210 Uiso
H10C H 0.7148 0.3076 -0.0459 0.1210 Uiso
H11C H 0.8297 0.2990 -0.0280 0.1210 Uiso
C11C C 0.8132(8) 0.4933(9) -0.1494(4) 0.0522 Uani
H12C H 0.8605 0.5770 -0.1619 0.0790 Uiso
H13C H 0.7349 0.4757 -0.1327 0.0790 Uiso
H14C H 0.8058 0.4464 -0.1945 0.0790 Uiso
C12C C 0.7995(8) 0.5746(9) -0.0013(3) 0.0370 Uani
C13C C 1.0045(6) 0.4460(8) -0.1893(4) 0.0437 Uani
O1 O 1.2036(18) 0.7473(16) -0.2981(10) 0.1100 Uiso
loop_
_atom_site_aniso_label
_atom_site_aniso_U_11
_atom_site_aniso_U_22
_atom_site_aniso_U_33
_atom_site_aniso_U_23
_atom_site_aniso_U_13
_atom_site_aniso_U_12
In1 0.0343(3) 0.0343(3) 0.0273(3) -0.00018(15) 0.00018(15) 0.0174(4)
O3 0.043(4) 0.039(3) 0.038(3) -0.005(2) -0.005(3) 0.020(3)
O4 0.046(3) 0.053(4) 0.043(3) -0.005(3) 0.002(3) 0.029(4)
O5 0.067(4) 0.069(4) 0.040(3) 0.009(2) 0.016(2) 0.047(4)
O6 0.055(3) 0.054(4) 0.035(3) -0.007(2) 0.010(3) 0.017(3)
C4 0.067(6) 0.044(5) 0.030(4) 0.013(3) 0.017(3) 0.036(5)
C5 0.051(5) 0.062(6) 0.040(4) -0.005(4) 0.004(4) 0.036(5)
C6 0.063(5) 0.040(5) 0.035(4) 0.012(4) 0.015(4) 0.030(4)
C7 0.085(7) 0.061(7) 0.052(5) 0.008(5) 0.034(5) 0.007(6)
C8 0.096(8) 0.042(5) 0.105(8) 0.020(6) 0.054(7) 0.037(6)
C9 0.121(10) 0.102(9) 0.058(5) 0.006(6) -0.004(7) 0.089(8)
C10 0.061(7) 0.075(7) 0.095(8) -0.036(6) -0.010(6) 0.025(6)
C11 0.083(6) 0.054(5) 0.034(4) 0.009(4) 0.007(4) 0.045(5)
C12 0.056(5) 0.038(5) 0.023(3) 0.011(4) 0.017(4) 0.028(4)
C13 0.060(5) 0.029(4) 0.043(4) 0.003(3) 0.017(4) 0.023(4)
In1A 0.0343 0.0338 0.0273 0.00036 0.00018 0.0169
In1B 0.0338 0.0343 0.0273 -0.00018 -0.00036 0.0169
O3C 0.039 0.043 0.038 0.005 0.005 0.02
O4C 0.053 0.046 0.043 -0.002 0.005 0.029
O5C 0.069 0.067 0.04 -0.016 -0.009 0.047
O5B 0.042 0.067 0.04 -0.016 -0.007 0.02
O5E 0.067 0.042 0.04 0.007 0.016 0.02
O6C 0.054 0.055 0.035 -0.01 0.007 0.017
O6B 0.075 0.055 0.035 -0.01 -0.017 0.038
O6E 0.055 0.075 0.035 0.017 0.01 0.038
C4C 0.044 0.067 0.03 -0.017 -0.013 0.036
C5C 0.062 0.051 0.04 -0.004 0.005 0.036
C6C 0.04 0.063 0.035 -0.015 -0.012 0.03
C7C 0.061 0.085 0.052 -0.034 -0.008 0.007
C8C 0.042 0.096 0.105 -0.054 -0.02 0.037
C9C 0.102 0.121 0.058 0.004 -0.006 0.089
C10C 0.075 0.061 0.095 0.01 0.036 0.025
C11C 0.054 0.083 0.034 -0.007 -0.009 0.045
C12C 0.038 0.056 0.023 -0.017 -0.011 0.028
C13C 0.029 0.06 0.043 -0.017 -0.003 0.023
loop_
_geom_bond_atom_site_label_1
_geom_bond_atom_site_label_2
_geom_bond_site_symmetry_1
_geom_bond_site_symmetry_2
C1 N1 1_555 1_555
C2 N1 1_555 1_555
C3 N1 1_555 1_555
N1 C1D 1_555 1_555
In1 O3 1_555 1_555
O3 C12 1_555 1_555
O4 In1 1_555 1_555
O5 C13 1_555 1_555
O6 C13 1_555 1_555
C4 C5 1_555 1_555
C5 C6 1_555 1_555
C6 H1 1_555 1_555
C7 C6 1_555 1_555
H2 C7 1_555 1_555
H3 C7 1_555 1_555
C8 C4 1_555 1_555
H4 C8 1_555 1_555
H5 C8 1_555 1_555
C9 C4 1_555 1_555
H6 C9 1_555 1_555
H7 C9 1_555 1_555
H8 C9 1_555 1_555
C10 C5 1_555 1_555
H9 C10 1_555 1_555
H10 C10 1_555 1_555
H11 C10 1_555 1_555
C11 C5 1_555 1_555
H12 C11 1_555 1_555
H13 C11 1_555 1_555
H14 C11 1_555 1_555
C12 O4 1_555 1_555
C13 C6 1_555 1_555
C1D N1D 1_555 1_555
C3D N1D 1_555 1_555
N1D C1 1_555 1_555
In1A O5 1_555 1_555
In1B O5C 1_555 1_555
O3C In1 1_555 1_555
O4C In1 1_555 1_555
O5C C13C 1_555 1_555
O5B In1 1_555 1_555
O5E In1 1_555 1_555
O6C In1B 1_555 1_555
O6B In1 1_555 1_555
O6E In1 1_555 1_555
C4C C5C 1_555 1_555
C5C C6C 1_555 1_555
C6C H1C 1_555 1_555
C7C C6C 1_555 1_555
H2C C7C 1_555 1_555
H3C C7C 1_555 1_555
C8C C4C 1_555 1_555
H4C C8C 1_555 1_555
H5C C8C 1_555 1_555
C9C C4C 1_555 1_555
H6C C9C 1_555 1_555
H7C C9C 1_555 1_555
H8C C9C 1_555 1_555
C10C C5C 1_555 1_555
H9C C10C 1_555 1_555
H10C C10C 1_555 1_555
H11C C10C 1_555 1_555
C11C C5C 1_555 1_555
H12C C11C 1_555 1_555
H13C C11C 1_555 1_555
H14C C11C 1_555 1_555
C12C O3C 1_555 1_555
C13C O6C 1_555 1_555
C2 N1D 1_555 1_555
N1 N1D 1_555 1_555
O6 In1A 1_555 1_555
C4 C12 1_555 1_555
C7 C8 1_555 1_555
O4C C12C 1_555 1_555
C4C C12C 1_555 1_555
C6C C13C 1_555 1_555
C7C C8C 1_555 1_555

#END
