
#######################################################################
#
#                 Cambridge Crystallographic Data Centre
#                                CCDC 
#
#######################################################################
#
# If this CIF has been generated from an entry in the Cambridge 
# Structural Database, then it will include bibliographic, chemical, 
# crystal, experimental, refinement or atomic coordinate data resulting 
# from the CCDC's data processing and validation procedures.
#
#######################################################################

data_MUBQIJ
_chemical_formula_moiety         '(C98 H56 Ag6 Cl4 N27 O11 3+)n'
_symmetry_cell_setting           rhombohedral
_symmetry_space_group_name_H-M   'R -3'
_symmetry_Int_Tables_number      148
_space_group_name_Hall           '-R 3'
loop_
_symmetry_equiv_pos_site_id
_symmetry_equiv_pos_as_xyz
1 x,y,z
2 -y,x-y,z
3 -x+y,-x,z
4 2/3+x,1/3+y,1/3+z
5 2/3-y,1/3+x-y,1/3+z
6 2/3-x+y,1/3-x,1/3+z
7 1/3+x,2/3+y,2/3+z
8 2/3+y,1/3-x+y,1/3-z
9 2/3+x-y,1/3+x,1/3-z
10 -x,-y,-z
11 y,-x+y,-z
12 x-y,x,-z
13 1/3-x,2/3-y,2/3-z
14 1/3+y,2/3-x+y,2/3-z
15 1/3+x-y,2/3+x,2/3-z
16 2/3-x,1/3-y,1/3-z
17 1/3-y,2/3+x-y,2/3+z
18 1/3-x+y,2/3-x,2/3+z
_cell_length_a                   32.2230(19)
_cell_length_b                   32.2230(19)
_cell_length_c                   20.8273(18)
_cell_angle_alpha                90
_cell_angle_beta                 90
_cell_angle_gamma                120.00
_cell_volume                     18728.2
loop_
_atom_site_label
_atom_site_type_symbol
_atom_site_fract_x
_atom_site_fract_y
_atom_site_fract_z
_atom_site_U_iso_or_equiv
_atom_site_thermal_displace_type
Ag1 Ag 0.14932(3) 0.04590(3) 0.23113(4) 0.0489 Uani
Ag2 Ag 0.37039(3) 0.04775(3) 0.33030(4) 0.0511 Uani
N4 N 0.3039(3) 0.0585(3) 0.3094(4) 0.0422 Uani
N5 N 0.2205(3) 0.0574(3) 0.2686(4) 0.0394 Uani
C3 C 0.2459(3) 0.0473(3) 0.2283(4) 0.0319 Uani
C4 C 0.2876(3) 0.0474(3) 0.2493(4) 0.0343 Uani
C5 C 0.2789(3) 0.0709(3) 0.3494(4) 0.0408 Uani
C6 C 0.2955(4) 0.0842(4) 0.4142(5) 0.0590 Uani
H5 H 0.3241 0.0853 0.4279 0.0710 Uiso
C7 C 0.2700(5) 0.0952(5) 0.4556(5) 0.0719 Uani
H6 H 0.2803 0.1024 0.4990 0.0860 Uiso
C8 C 0.2284(5) 0.0961(5) 0.4358(5) 0.0794 Uani
H7 H 0.2122 0.1057 0.4652 0.0950 Uiso
C9 C 0.2108(4) 0.0829(4) 0.3726(5) 0.0658 Uani
H8 H 0.1825 0.0825 0.3591 0.0790 Uiso
C10 C 0.2370(3) 0.0702(4) 0.3303(4) 0.0437 Uani
N6 N 0.1890(3) 0.0333(3) 0.1456(4) 0.0380 Uani
N7 N 0.2421(3) 0.0126(3) 0.0576(3) 0.0352 Uani
C11 C 0.2565(3) 0.0244(3) 0.1172(4) 0.0297 Uani
C12 C 0.2292(3) 0.0352(3) 0.1632(4) 0.0353 Uani
C13 C 0.1737(3) 0.0223(3) 0.0829(4) 0.0362 Uani
C14 C 0.1320(3) 0.0204(4) 0.0642(5) 0.0481 Uani
H9 H 0.1134 0.0264 0.0941 0.0580 Uiso
C15 C 0.1178(4) 0.0097(4) 0.0015(6) 0.0623 Uani
H10 H 0.0889 0.0085 -0.0116 0.0750 Uiso
C16 C 0.1433(5) 0.0007(5) -0.0425(5) 0.0670 Uani
H11 H 0.1322 -0.0063 -0.0856 0.0810 Uiso
C17 C 0.1854(4) 0.0014(4) -0.0259(5) 0.0578 Uani
H12 H 0.2029 -0.0053 -0.0568 0.0690 Uiso
C18 C 0.2016(3) 0.0125(3) 0.0386(4) 0.0399 Uani
N8 N 0.3223(2) 0.0119(3) 0.0979(3) 0.0350 Uani
N9 N 0.3522(2) 0.0320(3) 0.2259(3) 0.0368 Uani
C19 C 0.3146(3) 0.0344(3) 0.2048(4) 0.0326 Uani
C20 C 0.2996(3) 0.0232(3) 0.1390(4) 0.0301 Uani
C21 C 0.3616(3) 0.0103(3) 0.1182(4) 0.0370 Uani
C22 C 0.3866(4) -0.0023(4) 0.0754(5) 0.0484 Uani
H13 H 0.3765 -0.0098 0.0320 0.0580 Uiso
C23 C 0.4268(4) -0.0038(4) 0.0971(6) 0.0541 Uani
H14 H 0.4444 -0.0115 0.0678 0.0650 Uiso
C24 C 0.4414(4) 0.0059(4) 0.1606(6) 0.0520 Uani
H15 H 0.4688 0.0046 0.1742 0.0620 Uiso
C25 C 0.4169(3) 0.0173(3) 0.2036(5) 0.0454 Uani
H16 H 0.4269 0.0237 0.2472 0.0550 Uiso
C26 C 0.3764(3) 0.0195(3) 0.1830(4) 0.0373 Uani
N10 N 0.0715(2) -0.0234(2) 0.2369(4) 0.0368 Uani
N11 N -0.0244(2) -0.0956(3) 0.2364(4) 0.0354 Uani
C27 C -0.0123(3) -0.0495(3) 0.2400(4) 0.0311 Uani
C28 C 0.0366(3) -0.0134(3) 0.2407(4) 0.0298 Uani
C29 C 0.0594(3) -0.0696(3) 0.2332(5) 0.0434 Uani
C30 C 0.0956(4) -0.0828(4) 0.2267(6) 0.0621 Uani
H17 H 0.1286 -0.0589 0.2277 0.0740 Uiso
C31 C 0.0827(4) -0.1293(4) 0.2193(7) 0.0682 Uani
H18 H 0.1069 -0.1375 0.2128 0.0810 Uiso
C32 C 0.0352(4) -0.1654(4) 0.2210(7) 0.0741 Uani
H19 H 0.0276 -0.1979 0.2176 0.0900 Uiso
C33 C -0.0012(3) -0.1552(3) 0.2274(6) 0.0558 Uani
H20 H -0.0337 -0.1802 0.2283 0.0670 Uiso
C34 C 0.0108(3) -0.1064(3) 0.2326(5) 0.0389 Uani
C28B C -0.0500(4) -0.0366(3) 0.2407(4) 0.0298 Uani
N10B N -0.0949(3) -0.0715(2) 0.2369(4) 0.0368 Uani
C29B C -0.1290(4) -0.0594(3) 0.2332(5) 0.0434 Uani
C30B C -0.1784(6) -0.0956(4) 0.2267(6) 0.0621 Uani
H17B H -0.1875 -0.1286 0.2277 0.0740 Uiso
C31B C -0.2120(6) -0.0827(4) 0.2193(7) 0.0682 Uani
H18B H -0.2444 -0.1069 0.2128 0.0810 Uiso
C32B C -0.2006(6) -0.0352(4) 0.2210(7) 0.0741 Uani
H19B H -0.2255 -0.0276 0.2176 0.0900 Uiso
C33B C -0.1540(4) 0.0012(3) 0.2274(6) 0.0558 Uani
H20B H -0.1465 0.0337 0.2283 0.0670 Uiso
C34B C -0.1172(4) -0.0108(3) 0.2326(5) 0.0389 Uani
N11B N -0.0712(4) 0.0244(2) 0.2364(4) 0.0354 Uani
C27B C -0.0372(4) 0.0123(3) 0.2400(4) 0.0311 Uani
C28A C 0.0134(3) 0.0500(4) 0.2407(4) 0.0298 Uani
N10A N 0.0234(2) 0.0949(3) 0.2369(4) 0.0368 Uani
C29A C 0.0696(3) 0.1290(4) 0.2332(5) 0.0434 Uani
C30A C 0.0828(4) 0.1784(6) 0.2267(6) 0.0621 Uani
H17A H 0.0589 0.1875 0.2277 0.0740 Uiso
C31A C 0.1293(4) 0.2120(6) 0.2193(7) 0.0682 Uani
H18A H 0.1375 0.2444 0.2128 0.0810 Uiso
C32A C 0.1654(4) 0.2006(6) 0.2210(7) 0.0741 Uani
H19A H 0.1979 0.2255 0.2176 0.0900 Uiso
C33A C 0.1552(3) 0.1540(4) 0.2274(6) 0.0558 Uani
H20A H 0.1802 0.1465 0.2283 0.0670 Uiso
C34A C 0.1064(3) 0.1172(4) 0.2326(5) 0.0389 Uani
N11A N 0.0956(3) 0.0712(4) 0.2364(4) 0.0354 Uani
C27A C 0.0495(3) 0.0372(4) 0.2400(4) 0.0311 Uani
Ag1B Ag -0.10342(4) -0.14932(3) 0.23113(4) 0.0489 Uani
Ag1A Ag -0.04590(3) 0.10342(4) 0.23113(4) 0.0489 Uani
Ag2P Ag 0.28558(3) -0.01069(4) -0.00303(4) 0.0511 Uani
N4E N 0.4213(4) 0.0294(3) 0.6427(4) 0.0422 Uani
N5E N 0.5036(4) 0.1128(3) 0.6019(4) 0.0394 Uani
C3E C 0.4681(4) 0.0874(3) 0.5616(4) 0.0319 Uani
C4E C 0.4265(4) 0.0457(3) 0.5826(4) 0.0343 Uani
C5E C 0.4587(4) 0.0544(3) 0.6827(4) 0.0408 Uani
C6E C 0.4554(6) 0.0378(4) 0.7475(5) 0.0590 Uani
H5E H 0.4279 0.0092 0.7612 0.0710 Uiso
C7E C 0.4919(7) 0.0633(5) 0.7889(5) 0.0719 Uani
H6E H 0.4888 0.0530 0.8323 0.0860 Uiso
C8E C 0.5344(7) 0.1049(5) 0.7691(5) 0.0794 Uani
H7E H 0.5602 0.1211 0.7985 0.0950 Uiso
C9E C 0.5388(6) 0.1225(4) 0.7059(5) 0.0658 Uani
H8E H 0.5667 0.1508 0.6924 0.0790 Uiso
C10E C 0.4999(5) 0.0963(3) 0.6636(4) 0.0437 Uani
N6E N 0.5110(4) 0.1443(3) 0.4789(4) 0.0380 Uani
N7E N 0.4372(4) 0.0912(3) 0.3909(3) 0.0352 Uani
C11E C 0.4346(4) 0.0768(3) 0.4505(4) 0.0297 Uani
C12E C 0.4727(4) 0.1041(3) 0.4965(4) 0.0353 Uani
C13E C 0.5153(4) 0.1596(3) 0.4162(4) 0.0362 Uani
C14E C 0.5551(5) 0.2013(3) 0.3975(5) 0.0481 Uani
H9E H 0.5797 0.2199 0.4274 0.0580 Uiso
C15E C 0.5586(6) 0.2155(4) 0.3348(6) 0.0623 Uani
H10E H 0.5863 0.2444 0.3217 0.0750 Uiso
C16E C 0.5241(7) 0.1900(5) 0.2908(5) 0.0670 Uani
H11E H 0.5282 0.2011 0.2477 0.0810 Uiso
C17E C 0.4827(6) 0.1479(4) 0.3074(5) 0.0578 Uani
H12E H 0.4585 0.1304 0.2765 0.0690 Uiso
C18E C 0.4776(4) 0.1317(3) 0.3719(4) 0.0399 Uani
N8E N 0.3563(4) 0.0110(2) 0.4312(3) 0.0350 Uani
N9E N 0.3465(4) -0.0189(2) 0.5592(3) 0.0368 Uani
C19E C 0.3865(4) 0.0187(3) 0.5381(4) 0.0326 Uani
C20E C 0.3903(4) 0.0337(3) 0.4723(4) 0.0301 Uani
C21E C 0.3154(4) -0.0283(3) 0.4515(4) 0.0370 Uani
C22E C 0.2778(6) -0.0533(4) 0.4087(5) 0.0484 Uani
H13E H 0.2804 -0.0432 0.3653 0.0580 Uiso
C23E C 0.2361(6) -0.0935(4) 0.4304(6) 0.0541 Uani
H14E H 0.2108 -0.1111 0.4011 0.0650 Uiso
C24E C 0.2312(6) -0.1081(4) 0.4939(6) 0.0520 Uani
H15E H 0.2025 -0.1355 0.5075 0.0620 Uiso
C25E C 0.2671(4) -0.0836(3) 0.5369(5) 0.0454 Uani
H16E H 0.2635 -0.0936 0.5805 0.0550 Uiso
C26E C 0.3098(4) -0.0431(3) 0.5163(4) 0.0373 Uani
N4B N -0.2454(4) -0.3039(3) 0.3094(4) 0.0422 Uani
N5B N -0.1631(4) -0.2205(3) 0.2686(4) 0.0394 Uani
C3B C -0.1986(4) -0.2459(3) 0.2283(4) 0.0319 Uani
C4B C -0.2402(4) -0.2876(3) 0.2493(4) 0.0343 Uani
C5B C -0.2080(4) -0.2789(3) 0.3494(4) 0.0408 Uani
C6B C -0.2113(6) -0.2955(4) 0.4142(5) 0.0590 Uani
H5B H -0.2388 -0.3241 0.4279 0.0710 Uiso
C7B C -0.1748(7) -0.2700(5) 0.4556(5) 0.0719 Uani
H6B H -0.1779 -0.2803 0.4990 0.0860 Uiso
C8B C -0.1323(7) -0.2284(5) 0.4358(5) 0.0794 Uani
H7B H -0.1065 -0.2122 0.4652 0.0950 Uiso
C9B C -0.1279(6) -0.2108(4) 0.3726(5) 0.0658 Uani
H8B H -0.1000 -0.1825 0.3591 0.0790 Uiso
C10B C -0.1668(5) -0.2370(3) 0.3303(4) 0.0437 Uani
N6B N -0.1557(4) -0.1890(3) 0.1456(4) 0.0380 Uani
N7B N -0.2295(4) -0.2421(3) 0.0576(3) 0.0352 Uani
C11B C -0.2321(4) -0.2565(3) 0.1172(4) 0.0297 Uani
C12B C -0.1940(4) -0.2292(3) 0.1632(4) 0.0353 Uani
C13B C -0.1514(4) -0.1737(3) 0.0829(4) 0.0362 Uani
C14B C -0.1116(5) -0.1320(3) 0.0642(5) 0.0481 Uani
H9B H -0.0870 -0.1134 0.0941 0.0580 Uiso
C15B C -0.1081(6) -0.1178(4) 0.0015(6) 0.0623 Uani
H10B H -0.0804 -0.0889 -0.0116 0.0750 Uiso
C16B C -0.1426(7) -0.1433(5) -0.0425(5) 0.0670 Uani
H11B H -0.1385 -0.1322 -0.0856 0.0810 Uiso
C17B C -0.1840(6) -0.1854(4) -0.0259(5) 0.0578 Uani
H12B H -0.2082 -0.2029 -0.0568 0.0690 Uiso
C18B C -0.1891(4) -0.2016(3) 0.0386(4) 0.0399 Uani
N8B N -0.3104(4) -0.3223(2) 0.0979(3) 0.0350 Uani
N9B N -0.3202(4) -0.3522(2) 0.2259(3) 0.0368 Uani
C19B C -0.2802(4) -0.3146(3) 0.2048(4) 0.0326 Uani
C20B C -0.2764(4) -0.2996(3) 0.1390(4) 0.0301 Uani
C21B C -0.3513(4) -0.3616(3) 0.1182(4) 0.0370 Uani
C22B C -0.3889(6) -0.3866(4) 0.0754(5) 0.0484 Uani
H13B H -0.3863 -0.3765 0.0320 0.0580 Uiso
C23B C -0.4306(6) -0.4268(4) 0.0971(6) 0.0541 Uani
H14B H -0.4559 -0.4444 0.0678 0.0650 Uiso
C24B C -0.4355(6) -0.4414(4) 0.1606(6) 0.0520 Uani
H15B H -0.4642 -0.4688 0.1742 0.0620 Uiso
C25B C -0.3996(4) -0.4169(3) 0.2036(5) 0.0454 Uani
H16B H -0.4032 -0.4269 0.2472 0.0550 Uiso
C26B C -0.3569(4) -0.3764(3) 0.1830(4) 0.0373 Uani
Ag2E Ag 0.34403(4) -0.03706(3) 0.66363(4) 0.0511 Uani
N5A N -0.0574(3) 0.1631(4) 0.2686(4) 0.0394 Uani
N6A N -0.0333(3) 0.1557(4) 0.1456(4) 0.0380 Uani
N4P N 0.2748(3) -0.0879(4) -0.0239(4) 0.0422 Uani
N9P N 0.3013(3) -0.0131(4) -0.1074(3) 0.0368 Uani
Ag1E Ag 0.56325(4) 0.18401(3) 0.56446(4) 0.0489 Uani
Ag2B Ag -0.32264(4) -0.37039(3) 0.33030(4) 0.0511 Uani
Ag2F Ag -0.29628(3) -0.28558(3) -0.00303(4) 0.0511 Uani
N7P N 0.3207(3) -0.1038(4) 0.7243(3) 0.0352 Uani
N8P N 0.3214(3) -0.0229(4) 0.7646(3) 0.0350 Uani
N1 N 0.4181(4) -0.0358(5) 0.9053(7) 0.0472 Uani
O1 O 0.3946(5) -0.0604(8) 0.8629(9) 0.0836 Uani
O2 O 0.3923(6) -0.0702(6) 0.9470(12) 0.0989 Uani
O3 O 0.4600(3) -0.0185(4) 0.9174(5) 0.0273 Uani
O5 O 0.7353(6) -0.1176(5) 0.3576(7) 0.1842 Uani
O6 O 0.8118(14) -0.1408(12) 0.3938(14) 0.3878 Uani
N2 N 0.0000 0.0000 0.0966(7) 0.0513 Uani
O7 O 0.0374(3) 0.0398(3) 0.0992(4) 0.0854 Uani
O7A O -0.0398(3) -0.0024(4) 0.0992(4) 0.0854 Uani
O7B O 0.0024(4) -0.0374(3) 0.0992(4) 0.0854 Uani
C1 C 0.8185(9) 0.2129(8) 0.3162(13) 0.1756 Uani
H1 H 0.800(8) 0.219(8) 0.283(11) 0.2100 Uiso
H2 H 0.853(8) 0.234(8) 0.308(11) 0.2100 Uiso
Cl1 Cl 0.8016(3) 0.2232(2) 0.4018(4) 0.2109 Uani
Cl2 Cl 0.8037(2) 0.1548(2) 0.3176(3) 0.1670 Uani
C2 C 0.757(2) -0.0129(7) 0.3959(15) 0.4213 Uani
H3 H 0.72(2) -0.02(2) 0.41(3) 0.5050 Uiso
H4 H 0.76(2) -0.04(2) 0.38(3) 0.5050 Uiso
Cl3 Cl 0.7804(3) 0.0416(3) 0.3336(4) 0.2099 Uani
Cl4 Cl 0.7948(5) 0.0135(5) 0.4573(8) 0.3973 Uani
O8 O 0.3467(7) 0.1322(6) 0.1770(14) 0.2738 Uani
N3 N 0.3893(7) 0.1527(6) 0.1650(9) 0.1303 Uani
O9 O 0.4063(11) 0.1927(8) 0.1451(18) 0.4378 Uani
O10 O 0.4064(9) 0.1292(15) 0.180(2) 0.5911 Uani
loop_
_atom_site_aniso_label
_atom_site_aniso_U_11
_atom_site_aniso_U_22
_atom_site_aniso_U_33
_atom_site_aniso_U_23
_atom_site_aniso_U_13
_atom_site_aniso_U_12
Ag1 0.0293(4) 0.0482(5) 0.0724(6) -0.0059(4) 0.0036(4) 0.0217(4)
Ag2 0.0408(5) 0.0695(6) 0.0377(4) 0.0016(4) -0.0084(3) 0.0236(4)
N4 0.040(5) 0.045(5) 0.040(5) -0.005(4) 0.002(4) 0.020(4)
N5 0.035(4) 0.048(5) 0.041(4) -0.004(4) 0.004(3) 0.025(4)
C3 0.030(5) 0.030(5) 0.037(5) -0.005(4) -0.002(4) 0.016(4)
C4 0.032(5) 0.037(5) 0.035(5) 0.000(4) 0.002(4) 0.018(4)
C5 0.043(5) 0.045(6) 0.033(5) -0.009(4) 0.003(4) 0.021(5)
C6 0.064(7) 0.070(8) 0.041(6) -0.011(5) -0.005(5) 0.032(6)
C7 0.094(10) 0.109(11) 0.041(6) -0.035(6) -0.018(6) 0.072(9)
C8 0.103(11) 0.113(11) 0.041(7) -0.012(7) 0.017(7) 0.068(9)
C9 0.058(7) 0.089(9) 0.056(7) -0.016(6) 0.005(6) 0.041(7)
C10 0.044(6) 0.059(6) 0.035(5) -0.014(4) 0.002(4) 0.031(5)
N6 0.031(4) 0.034(4) 0.050(5) -0.003(3) -0.002(3) 0.017(3)
N7 0.045(5) 0.041(4) 0.027(4) -0.005(3) -0.006(3) 0.027(4)
C11 0.029(4) 0.026(4) 0.033(5) 0.004(3) 0.007(3) 0.013(4)
C12 0.031(5) 0.028(5) 0.050(6) 0.003(4) 0.003(4) 0.017(4)
C13 0.036(5) 0.036(5) 0.042(5) -0.003(4) -0.004(4) 0.022(4)
C14 0.033(5) 0.055(6) 0.059(7) -0.005(5) -0.011(5) 0.024(5)
C15 0.054(7) 0.070(8) 0.075(9) 0.004(6) -0.012(6) 0.040(6)
C16 0.085(9) 0.093(10) 0.037(6) -0.003(6) -0.009(6) 0.055(8)
C17 0.063(7) 0.085(8) 0.040(6) -0.001(5) -0.009(5) 0.048(7)
C18 0.036(5) 0.052(6) 0.037(5) -0.006(4) -0.006(4) 0.026(5)
N8 0.033(4) 0.034(4) 0.041(4) -0.004(3) 0.004(3) 0.019(3)
N9 0.025(4) 0.041(4) 0.041(4) 0.003(3) 0.001(3) 0.014(3)
C19 0.026(4) 0.032(5) 0.039(5) 0.006(4) 0.001(4) 0.014(4)
C20 0.027(4) 0.027(4) 0.033(5) 0.001(4) 0.002(4) 0.011(4)
C21 0.035(5) 0.040(5) 0.043(5) -0.003(4) 0.003(4) 0.024(4)
C22 0.056(7) 0.050(6) 0.048(6) -0.005(5) 0.004(5) 0.033(5)
C23 0.036(6) 0.061(7) 0.073(8) -0.007(6) 0.010(5) 0.030(5)
C24 0.039(6) 0.053(6) 0.080(8) 0.005(6) -0.002(5) 0.035(5)
C25 0.035(5) 0.046(6) 0.055(6) -0.004(5) -0.003(5) 0.020(5)
C26 0.028(5) 0.039(5) 0.048(6) 0.005(4) 0.005(4) 0.019(4)
N10 0.026 0.03 0.057 -0.001 0.001 0.016
N11 0.037 0.02 0.049 -0.003 -0.004 0.014
C27 0.028 0.028 0.036 0 0 0.013
C28 0.031 0.035 0.028 -0.004 -0.002 0.02
C29 0.035 0.032 0.069 0 -0.001 0.021
C30 0.034 0.05 0.109 -0.009 0.003 0.026
C31 0.045 0.048 0.122 -0.002 -0.001 0.031
C32 0.068 0.033 0.125 -0.001 -0.004 0.028
C33 0.041 0.027 0.102 -0.009 -0.001 0.019
C34 0.027 0.028 0.062 -0.001 0 0.014
C28B 0.026 0.031 0.028 0.002 -0.002 0.011
N10B 0.024 0.026 0.057 -0.001 -0.002 0.01
C29B 0.025 0.035 0.069 0.001 0.001 0.014
C30B 0.032 0.034 0.109 -0.003 -0.012 0.008
C31B 0.031 0.045 0.122 0.001 -0.001 0.014
C32B 0.045 0.068 0.125 0.004 0.003 0.04
C33B 0.03 0.041 0.102 0.001 -0.008 0.022
C34B 0.027 0.027 0.062 0 -0.001 0.013
N11B 0.029 0.037 0.049 0.004 0.001 0.023
C27B 0.03 0.028 0.036 0 0 0.015
C28A 0.035(5) 0.026(4) 0.028(4) 0.002(3) 0.004(3) 0.015(4)
N10A 0.030(4) 0.024(4) 0.057(5) 0.002(3) 0.001(3) 0.014(3)
C29A 0.032(5) 0.025(5) 0.069(7) -0.001(4) 0.000(5) 0.011(4)
C30A 0.050(7) 0.032(6) 0.109(10) 0.012(6) 0.009(6) 0.024(5)
C31A 0.048(7) 0.031(6) 0.122(11) 0.001(6) 0.002(7) 0.017(5)
C32A 0.033(6) 0.045(7) 0.125(12) -0.003(7) 0.001(7) 0.005(5)
C33A 0.027(5) 0.030(5) 0.102(9) 0.008(5) 0.009(5) 0.008(4)
C34A 0.028(5) 0.027(5) 0.062(6) 0.001(4) 0.001(4) 0.014(4)
N11A 0.020(4) 0.029(4) 0.049(4) -0.001(3) 0.003(3) 0.006(3)
C27A 0.028(5) 0.030(5) 0.036(5) 0.000(4) 0.000(4) 0.015(4)
Ag1B 0.0341 0.0293 0.0724 -0.0036 -0.0095 0.0076
Ag1A 0.0482 0.0341 0.0724 0.0095 0.0059 0.0265
Ag2P 0.0695 0.0631 0.0377 -0.01 -0.0016 0.0459
N4E 0.045 0.04 0.04 -0.002 -0.007 0.02
N5E 0.033 0.035 0.041 -0.004 -0.008 0.01
C3E 0.028 0.03 0.037 0.002 -0.003 0.014
C4E 0.033 0.032 0.035 -0.002 -0.002 0.014
C5E 0.046 0.043 0.033 -0.003 -0.012 0.022
C6E 0.07 0.064 0.041 0.005 -0.006 0.032
C7E 0.059 0.094 0.041 0.018 -0.017 0.022
C8E 0.08 0.103 0.041 -0.017 -0.029 0.035
C9E 0.065 0.058 0.056 -0.005 -0.021 0.017
C10E 0.041 0.044 0.035 -0.002 -0.016 0.013
N6E 0.031 0.031 0.05 0.002 -0.001 0.014
N7E 0.032 0.045 0.027 0.006 0.001 0.018
C11E 0.029 0.029 0.033 -0.007 -0.003 0.016
C12E 0.025 0.031 0.05 -0.003 0 0.014
C13E 0.028 0.036 0.042 0.004 0.001 0.014
C14E 0.04 0.033 0.059 0.011 0.006 0.009
C15E 0.044 0.054 0.075 0.012 0.016 0.014
C16E 0.068 0.085 0.037 0.009 0.006 0.03
C17E 0.052 0.063 0.04 0.009 0.008 0.015
C18E 0.036 0.036 0.037 0.006 0 0.01
N8E 0.029 0.033 0.041 -0.004 -0.008 0.014
N9E 0.038 0.025 0.041 -0.001 0.002 0.011
C19E 0.03 0.026 0.039 -0.001 0.005 0.012
C20E 0.032 0.027 0.033 -0.002 -0.001 0.016
C21E 0.027 0.035 0.043 -0.003 -0.006 0.011
C22E 0.04 0.056 0.048 -0.004 -0.009 0.023
C23E 0.037 0.036 0.073 -0.01 -0.017 0.006
C24E 0.022 0.039 0.08 0.002 0.007 0.004
C25E 0.041 0.035 0.055 0.003 -0.001 0.015
C26E 0.029 0.028 0.048 -0.005 0 0.009
N4B 0.045 0.04 0.04 -0.002 -0.007 0.02
N5B 0.033 0.035 0.041 -0.004 -0.008 0.01
C3B 0.028 0.03 0.037 0.002 -0.003 0.014
C4B 0.033 0.032 0.035 -0.002 -0.002 0.014
C5B 0.046 0.043 0.033 -0.003 -0.012 0.022
C6B 0.07 0.064 0.041 0.005 -0.006 0.032
C7B 0.059 0.094 0.041 0.018 -0.017 0.022
C8B 0.08 0.103 0.041 -0.017 -0.029 0.035
C9B 0.065 0.058 0.056 -0.005 -0.021 0.017
C10B 0.041 0.044 0.035 -0.002 -0.016 0.013
N6B 0.031 0.031 0.05 0.002 -0.001 0.014
N7B 0.032 0.045 0.027 0.006 0.001 0.018
C11B 0.029 0.029 0.033 -0.007 -0.003 0.016
C12B 0.025 0.031 0.05 -0.003 0 0.014
C13B 0.028 0.036 0.042 0.004 0.001 0.014
C14B 0.04 0.033 0.059 0.011 0.006 0.009
C15B 0.044 0.054 0.075 0.012 0.016 0.014
C16B 0.068 0.085 0.037 0.009 0.006 0.03
C17B 0.052 0.063 0.04 0.009 0.008 0.015
C18B 0.036 0.036 0.037 0.006 0 0.01
N8B 0.029 0.033 0.041 -0.004 -0.008 0.014
N9B 0.038 0.025 0.041 -0.001 0.002 0.011
C19B 0.03 0.026 0.039 -0.001 0.005 0.012
C20B 0.032 0.027 0.033 -0.002 -0.001 0.016
C21B 0.027 0.035 0.043 -0.003 -0.006 0.011
C22B 0.04 0.056 0.048 -0.004 -0.009 0.023
C23B 0.037 0.036 0.073 -0.01 -0.017 0.006
C24B 0.022 0.039 0.08 0.002 0.007 0.004
C25B 0.041 0.035 0.055 0.003 -0.001 0.015
C26B 0.029 0.028 0.048 -0.005 0 0.009
Ag2E 0.0631 0.0408 0.0377 0.0084 0.01 0.0172
N5A 0.048 0.033 0.041 0.008 0.004 0.023
N6A 0.034 0.031 0.05 0.001 0.003 0.017
N4P 0.045 0.045 0.04 0.007 0.005 0.025
N9P 0.041 0.038 0.041 -0.002 -0.003 0.027
Ag1E 0.0341 0.0293 0.0724 -0.0036 -0.0095 0.0076
Ag2B 0.0631 0.0408 0.0377 0.0084 0.01 0.0172
Ag2F 0.0408 0.0695 0.0377 0.0016 -0.0084 0.0236
N7P 0.041 0.032 0.027 -0.001 0.005 0.014
N8P 0.034 0.029 0.041 0.008 0.004 0.015
N1 0.033(7) 0.050(8) 0.067(9) -0.012(7) 0.004(7) 0.027(7)
O1 0.028(9) 0.114(16) 0.104(14) -0.042(12) -0.039(9) 0.032(10)
O2 0.040(10) 0.047(10) 0.21(2) -0.008(13) 0.008(12) 0.022(8)
O3 0.000(5) 0.026(6) 0.050(7) -0.002(5) -0.013(4) 0.002(4)
O5 0.258(18) 0.107(10) 0.150(13) -0.020(9) 0.042(11) 0.063(11)
O6 0.64(6) 0.45(4) 0.35(4) 0.10(3) 0.08(3) 0.48(5)
N2 0.058(6) 0.058(6) 0.038(8) 0.000 0.000 0.029(3)
O7 0.061(6) 0.065(6) 0.087(6) 0.010(5) -0.006(5) -0.001(4)
O7A 0.065 0.128 0.087 -0.016 -0.01 0.066
O7B 0.128 0.061 0.087 0.006 0.016 0.062
C1 0.15(2) 0.14(2) 0.28(3) 0.05(2) 0.01(2) 0.105(18)
Cl1 0.260(9) 0.143(6) 0.238(8) 0.067(5) 0.112(7) 0.107(6)
Cl2 0.130(5) 0.134(5) 0.205(7) 0.001(4) 0.023(4) 0.042(4)
C2 0.88(13) 0.093(16) 0.26(4) -0.12(2) -0.34(7) 0.22(4)
Cl3 0.185(7) 0.234(9) 0.247(9) -0.102(7) -0.037(6) 0.132(7)
Cl4 0.416(18) 0.262(13) 0.50(2) 0.062(14) -0.121(15) 0.159(13)
O8 0.160(15) 0.120(13) 0.56(4) 0.139(19) 0.22(2) 0.084(12)
N3 0.134(15) 0.083(11) 0.147(15) 0.011(10) 0.044(12) 0.034(11)
O9 0.45(4) 0.110(16) 0.70(6) 0.12(2) 0.36(4) 0.10(2)
O10 0.18(2) 0.53(5) 1.12(10) 0.58(6) 0.20(4) 0.22(3)
loop_
_geom_bond_atom_site_label_1
_geom_bond_atom_site_label_2
_geom_bond_site_symmetry_1
_geom_bond_site_symmetry_2
Ag1 N5 1_555 1_555
Ag2 N4 1_555 1_555
N1 O1 1_555 1_555
O2 N1 1_555 1_555
O3 N1 1_555 1_555
N2 O7 1_555 1_555
C1 H1 1_555 1_555
H2 C1 1_555 1_555
Cl1 C1 1_555 1_555
Cl2 C1 1_555 1_555
C2 H3 1_555 1_555
H4 C2 1_555 1_555
Cl3 C2 1_555 1_555
Cl4 C2 1_555 1_555
O8 N3 1_555 1_555
N3 O9 1_555 1_555
O10 N3 1_555 1_555
N4 C4 1_555 1_555
N5 C3 1_555 1_555
C3 C4 1_555 1_555
C4 C19 1_555 1_555
C5 N4 1_555 1_555
C6 C5 1_555 1_555
H5 C6 1_555 1_555
C7 C6 1_555 1_555
H6 C7 1_555 1_555
C8 C7 1_555 1_555
H7 C8 1_555 1_555
C9 C8 1_555 1_555
H8 C9 1_555 1_555
C10 N5 1_555 1_555
N6 Ag1 1_555 1_555
N7 C11 1_555 1_555
C11 C12 1_555 1_555
C12 C3 1_555 1_555
C13 N6 1_555 1_555
C14 C13 1_555 1_555
H9 C14 1_555 1_555
C15 C14 1_555 1_555
H10 C15 1_555 1_555
C16 C15 1_555 1_555
H11 C16 1_555 1_555
C17 C16 1_555 1_555
H12 C17 1_555 1_555
C18 N7 1_555 1_555
N8 C20 1_555 1_555
N9 Ag2 1_555 1_555
C19 N9 1_555 1_555
C20 C11 1_555 1_555
C21 N8 1_555 1_555
C22 C21 1_555 1_555
H13 C22 1_555 1_555
C23 C22 1_555 1_555
H14 C23 1_555 1_555
C24 C23 1_555 1_555
H15 C24 1_555 1_555
C25 C24 1_555 1_555
H16 C25 1_555 1_555
C26 N9 1_555 1_555
N10 Ag1 1_555 1_555
N11 C27 1_555 1_555
C27 C28 1_555 1_555
C28 N10 1_555 1_555
C29 N10 1_555 1_555
C30 C29 1_555 1_555
H17 C30 1_555 1_555
C31 C30 1_555 1_555
H18 C31 1_555 1_555
C32 C31 1_555 1_555
H19 C32 1_555 1_555
C33 C32 1_555 1_555
H20 C33 1_555 1_555
C34 N11 1_555 1_555
O7A N2 1_555 1_555
O7B N2 1_555 1_555
C28B C27 1_555 1_555
N10B C28B 1_555 1_555
C29B N10B 1_555 1_555
C30B C29B 1_555 1_555
H17B C30B 1_555 1_555
C31B C30B 1_555 1_555
H18B C31B 1_555 1_555
C32B C31B 1_555 1_555
H19B C32B 1_555 1_555
C33B C32B 1_555 1_555
H20B C33B 1_555 1_555
C34B C29B 1_555 1_555
N11B C34B 1_555 1_555
C27B C28B 1_555 1_555
C28A C27B 1_555 1_555
N10A C28A 1_555 1_555
C29A N10A 1_555 1_555
C30A C29A 1_555 1_555
H17A C30A 1_555 1_555
C31A C30A 1_555 1_555
H18A C31A 1_555 1_555
C32A C31A 1_555 1_555
H19A C32A 1_555 1_555
C33A C32A 1_555 1_555
H20A C33A 1_555 1_555
C34A C29A 1_555 1_555
N11A Ag1 1_555 1_555
C27A C28 1_555 1_555
Ag1B N11 1_555 1_555
Ag1A N11B 1_555 1_555
Ag2P N7 1_555 1_555
N4E C4E 1_555 1_555
N5E C3E 1_555 1_555
C3E C4E 1_555 1_555
C4E C19E 1_555 1_555
C5E N4E 1_555 1_555
C6E C5E 1_555 1_555
H5E C6E 1_555 1_555
C7E C6E 1_555 1_555
H6E C7E 1_555 1_555
C8E C7E 1_555 1_555
H7E C8E 1_555 1_555
C9E C8E 1_555 1_555
H8E C9E 1_555 1_555
C10E N5E 1_555 1_555
N6E C12E 1_555 1_555
N7E Ag2 1_555 1_555
C11E N7E 1_555 1_555
C12E C3E 1_555 1_555
C13E N6E 1_555 1_555
C14E C13E 1_555 1_555
H9E C14E 1_555 1_555
C15E C14E 1_555 1_555
H10E C15E 1_555 1_555
C16E C15E 1_555 1_555
H11E C16E 1_555 1_555
C17E C16E 1_555 1_555
H12E C17E 1_555 1_555
C18E N7E 1_555 1_555
N8E Ag2 1_555 1_555
N9E C19E 1_555 1_555
C19E C20E 1_555 1_555
C20E C11E 1_555 1_555
C21E N8E 1_555 1_555
C22E C21E 1_555 1_555
H13E C22E 1_555 1_555
C23E C22E 1_555 1_555
H14E C23E 1_555 1_555
C24E C23E 1_555 1_555
H15E C24E 1_555 1_555
C25E C24E 1_555 1_555
H16E C25E 1_555 1_555
C26E N9E 1_555 1_555
N4B C4B 1_555 1_555
N5B Ag1B 1_555 1_555
C3B N5B 1_555 1_555
C4B C3B 1_555 1_555
C5B N4B 1_555 1_555
C6B C5B 1_555 1_555
H5B C6B 1_555 1_555
C7B C6B 1_555 1_555
H6B C7B 1_555 1_555
C8B C7B 1_555 1_555
H7B C8B 1_555 1_555
C9B C8B 1_555 1_555
H8B C9B 1_555 1_555
C10B N5B 1_555 1_555
N6B Ag1B 1_555 1_555
N7B C11B 1_555 1_555
C11B C12B 1_555 1_555
C12B C3B 1_555 1_555
C13B N6B 1_555 1_555
C14B C13B 1_555 1_555
H9B C14B 1_555 1_555
C15B C14B 1_555 1_555
H10B C15B 1_555 1_555
C16B C15B 1_555 1_555
H11B C16B 1_555 1_555
C17B C16B 1_555 1_555
H12B C17B 1_555 1_555
C18B N7B 1_555 1_555
N8B C20B 1_555 1_555
N9B C19B 1_555 1_555
C19B C4B 1_555 1_555
C20B C11B 1_555 1_555
C21B N8B 1_555 1_555
C22B C21B 1_555 1_555
H13B C22B 1_555 1_555
C23B C22B 1_555 1_555
H14B C23B 1_555 1_555
C24B C23B 1_555 1_555
H15B C24B 1_555 1_555
C25B C24B 1_555 1_555
H16B C25B 1_555 1_555
C26B N9B 1_555 1_555
Ag2E N4E 1_555 1_555
N5A Ag1A 1_555 1_555
N6A Ag1A 1_555 1_555
N4P Ag2P 1_555 1_555
N9P Ag2P 1_555 1_555
Ag1E N5E 1_555 1_555
Ag2B N4B 1_555 1_555
Ag2F N7B 1_555 1_555
N7P Ag2E 1_555 1_555
N8P Ag2E 1_555 1_555
C5 C10 1_555 1_555
C9 C10 1_555 1_555
N6 C12 1_555 1_555
C13 C18 1_555 1_555
C17 C18 1_555 1_555
N8 Ag2P 1_555 1_555
C19 C20 1_555 1_555
C21 C26 1_555 1_555
C25 C26 1_555 1_555
C29 C34 1_555 1_555
C33 C34 1_555 1_555
N10B Ag1B 1_555 1_555
C33B C34B 1_555 1_555
N11B C27B 1_555 1_555
C28A C27A 1_555 1_555
N10A Ag1A 1_555 1_555
C33A C34A 1_555 1_555
C34A N11A 1_555 1_555
N11A C27A 1_555 1_555
C5E C10E 1_555 1_555
C9E C10E 1_555 1_555
N6E Ag1E 1_555 1_555
C11E C12E 1_555 1_555
C13E C18E 1_555 1_555
C17E C18E 1_555 1_555
N8E C20E 1_555 1_555
N9E Ag2E 1_555 1_555
C21E C26E 1_555 1_555
C25E C26E 1_555 1_555
C5B C10B 1_555 1_555
C9B C10B 1_555 1_555
N6B C12B 1_555 1_555
C13B C18B 1_555 1_555
C17B C18B 1_555 1_555
N8B Ag2F 1_555 1_555
N9B Ag2B 1_555 1_555
C19B C20B 1_555 1_555
C21B C26B 1_555 1_555
C25B C26B 1_555 1_555

#END
