
#######################################################################
#
#                 Cambridge Crystallographic Data Centre
#                                CCDC 
#
#######################################################################
#
# If this CIF has been generated from an entry in the Cambridge 
# Structural Database, then it will include bibliographic, chemical, 
# crystal, experimental, refinement or atomic coordinate data resulting 
# from the CCDC's data processing and validation procedures.
#
#######################################################################

data_ENIHUG
_chemical_formula_moiety         '(C27 H17 Cu2 N1 O10)n'
_symmetry_cell_setting           rhombohedral
_symmetry_space_group_name_H-M   'R 3 m'
_symmetry_Int_Tables_number      160
_space_group_name_Hall           'R 3 -2"'
loop_
_symmetry_equiv_pos_site_id
_symmetry_equiv_pos_as_xyz
1 x,y,z
2 -y,x-y,z
3 -y,-x,z
4 -x+y,-x,z
5 -x+y,y,z
6 x,x-y,z
7 2/3+x,1/3+y,1/3+z
8 2/3-y,1/3+x-y,1/3+z
9 2/3-y,1/3-x,1/3+z
10 2/3-x+y,1/3-x,1/3+z
11 2/3-x+y,1/3+y,1/3+z
12 2/3+x,1/3+x-y,1/3+z
13 1/3+x,2/3+y,2/3+z
14 1/3-y,2/3+x-y,2/3+z
15 1/3-y,2/3-x,2/3+z
16 1/3-x+y,2/3-x,2/3+z
17 1/3-x+y,2/3+y,2/3+z
18 1/3+x,2/3+x-y,2/3+z
_cell_length_a                   26.2928(18)
_cell_length_b                   26.2928(18)
_cell_length_c                   26.036(2)
_cell_angle_alpha                90
_cell_angle_beta                 90
_cell_angle_gamma                120
_cell_volume                     15587.6
loop_
_atom_site_label
_atom_site_type_symbol
_atom_site_fract_x
_atom_site_fract_y
_atom_site_fract_z
Cu1 Cu 0.439306(19) 0.560694(19) 0.66675(4)
Cu2 Cu 0.468656(19) 0.531344(19) 0.57881(4)
O1 O 0.4413(2) 0.45439(18) 0.61024(18)
O2 O 0.1323(2) 0.16110(27) 0.96781(17)
O3 O 0.1588(2) 0.21306(28) 0.89508(18)
O4 O 0.4160(2) 0.47951(17) 0.68316(16)
C1 C 0.1558(4) 0.0779(2) 0.9244(3)
H1 H 0.1316 0.0658 0.9541
C2 C 0.1738(3) 0.1323(3) 0.9022(3)
O5 O 0.41956(15) 0.58044(15) 0.7408(2)
O6 O 0.48989(16) 0.51011(16) 0.5062(3)
C3 C 0.2302(6) 0.1151(3) 0.8365(5)
C4 C 0.2082(4) 0.1491(3) 0.8603(3)
H2 H 0.2185 0.1860 0.8455
C5 C 0.1532(3) 0.1722(4) 0.9233(3)
N1 N 0.3598(5) 0.1799(2) 0.7195(3)
C6 C 0.2724(5) 0.1362(2) 0.7980(5)
C7 C 0.3592(5) 0.3153(4) 0.7417(4)
H3 H 0.3444 0.3070 0.7758
C8 C 0.4210(3) 0.4443(3) 0.6542(3)
C9 C 0.3776(5) 0.3702(3) 0.7236(3)
H4 H 0.3735 0.3981 0.7438
C10 C 0.2955(4) 0.1932(3) 0.7740(3)
H5 H 0.2796 0.2174 0.7832
C11 C 0.3602(4) 0.2712(3) 0.7156(3)
C12 C 0.4060(4) 0.3417(3) 0.6486(3)
H6 H 0.4237 0.3510 0.6156
C13 C 0.4016(3) 0.3841(3) 0.6763(3)
C14 C 0.3391(4) 0.2128(3) 0.7387(3)
C15 C 0.3851(4) 0.2867(3) 0.6683(3)
H7 H 0.3881 0.2581 0.6482
O1E O 0.4413(2) -0.01309(27) 0.61024(18)
O2E O 0.1323(2) -0.02880(34) 0.96781(17)
O3E O 0.1588(2) -0.05426(34) 0.89508(18)
O4E O 0.4160(2) -0.06351(26) 0.68316(16)
C2E C 0.1738(3) 0.0415(4) 0.9022(3)
C4E C 0.2082(4) 0.0591(5) 0.8603(3)
H2E H 0.2185 0.0325 0.8455
C5E C 0.1532(3) -0.0190(5) 0.9233(3)
C7E C 0.3592(5) 0.0439(6) 0.7417(4)
H3E H 0.3444 0.0374 0.7758
C8E C 0.4210(3) -0.0233(4) 0.6542(3)
C9E C 0.3776(5) 0.0074(6) 0.7236(3)
H4E H 0.3735 -0.0246 0.7438
C10E C 0.2955(4) 0.1023(5) 0.7740(3)
H5E H 0.2796 0.0622 0.7832
C11E C 0.3602(4) 0.0890(5) 0.7156(3)
C12E C 0.4060(4) 0.0643(5) 0.6486(3)
H6E H 0.4237 0.0727 0.6156
C13E C 0.4016(3) 0.0175(4) 0.6763(3)
C14E C 0.3391(4) 0.1263(5) 0.7387(3)
C15E C 0.3851(4) 0.0984(5) 0.6683(3)
H7E H 0.3881 0.1300 0.6482
Cu1A Cu 0.439306(19) -0.121388(27) 0.66675(4)
Cu1F Cu 0.105973(19) -0.105973(19) 1.00008(4)
Cu1G Cu 0.105973(19) 0.211945(27) 1.00008(4)
Cu2A Cu 0.468656(19) -0.062688(27) 0.57881(4)
Cu2F Cu 0.135323(19) -0.135323(19) 0.91214(4)
Cu2G Cu 0.135323(19) 0.270645(27) 0.91214(4)
O1B O 0.54561(18) 0.5587(2) 0.61024(18)
O2O O 0.36213(34) 0.5344(2) 0.63448(17)
O2Q O 0.4656(2) 0.63787(34) 0.63448(17)
O3O O 0.38759(34) 0.5079(2) 0.56175(18)
O3Q O 0.4921(2) 0.61241(34) 0.56175(18)
O4B O 0.52049(17) 0.5840(2) 0.68316(16)
loop_
_geom_bond_atom_site_label_1
_geom_bond_atom_site_label_2
_geom_bond_site_symmetry_1
_geom_bond_site_symmetry_2
Cu1 Cu2 1_555 1_555
Cu2 O1 1_555 1_555
O1 C8 1_555 1_555
O2 C5 1_555 1_555
O3 C5 1_555 1_555
O4 Cu1 1_555 1_555
C1 H1 1_555 1_555
C2 C1 1_555 1_555
O5 Cu1 1_555 1_555
O6 Cu2 1_555 1_555
C3 C4 1_555 1_555
C4 C2 1_555 1_555
H2 C4 1_555 1_555
C5 C2 1_555 1_555
N1 C14 1_555 1_555
C6 C3 1_555 1_555
C7 H3 1_555 1_555
C8 O4 1_555 1_555
C9 C7 1_555 1_555
H4 C9 1_555 1_555
C10 C6 1_555 1_555
H5 C10 1_555 1_555
C11 C7 1_555 1_555
C12 H6 1_555 1_555
C13 C8 1_555 1_555
C14 C10 1_555 1_555
C15 C11 1_555 1_555
H7 C15 1_555 1_555
O1E C8E 1_555 1_555
O2E C5E 1_555 1_555
O3E C5E 1_555 1_555
O4E C8E 1_555 1_555
C2E C1 1_555 1_555
C4E C3 1_555 1_555
H2E C4E 1_555 1_555
C5E C2E 1_555 1_555
C7E H3E 1_555 1_555
C8E C13E 1_555 1_555
C9E C7E 1_555 1_555
H4E C9E 1_555 1_555
C10E C6 1_555 1_555
H5E C10E 1_555 1_555
C11E C7E 1_555 1_555
C12E H6E 1_555 1_555
C13E C9E 1_555 1_555
C14E N1 1_555 1_555
C15E C11E 1_555 1_555
H7E C15E 1_555 1_555
Cu1A O4E 1_555 1_555
Cu1F O2E 1_555 1_555
Cu1G O2 1_555 1_555
Cu2A O1E 1_555 1_555
Cu2F O3E 1_555 1_555
Cu2G O3 1_555 1_555
O1B Cu2 1_555 1_555
O2O Cu1 1_555 1_555
O2Q Cu1 1_555 1_555
O3O Cu2 1_555 1_555
O3Q Cu2 1_555 1_555
O4B Cu1 1_555 1_555
C9 C13 1_555 1_555
C11 C14 1_555 1_555
C12 C13 1_555 1_555
C12 C15 1_555 1_555
C2E C4E 1_555 1_555
C10E C14E 1_555 1_555
C11E C14E 1_555 1_555
C12E C13E 1_555 1_555
C12E C15E 1_555 1_555
Cu1A Cu2A 1_555 1_555
Cu1F Cu2F 1_555 1_555
Cu1G Cu2G 1_555 1_555

#END
