
#######################################################################
#
#                 Cambridge Crystallographic Data Centre
#                                CCDC 
#
#######################################################################
#
# If this CIF has been generated from an entry in the Cambridge 
# Structural Database, then it will include bibliographic, chemical, 
# crystal, experimental, refinement or atomic coordinate data resulting 
# from the CCDC's data processing and validation procedures.
#
#######################################################################

data_LIQFEY
_chemical_formula_moiety         '(C36 H18 Cd3 O19 2-)n'
_symmetry_cell_setting           triclinic
_symmetry_space_group_name_H-M   'P -1'
_symmetry_Int_Tables_number      2
_space_group_name_Hall           '-P 1'
loop_
_symmetry_equiv_pos_site_id
_symmetry_equiv_pos_as_xyz
1 x,y,z
2 -x,-y,-z
_cell_length_a                   9.899(2)
_cell_length_b                   10.362(2)
_cell_length_c                   13.180(3)
_cell_angle_alpha                68.87(3)
_cell_angle_beta                 70.65(3)
_cell_angle_gamma                80.77(3)
_cell_volume                     1188.5
loop_
_atom_site_label
_atom_site_type_symbol
_atom_site_fract_x
_atom_site_fract_y
_atom_site_fract_z
O9 O -0.179(2) -0.572(2) 1.0476(16)
O10 O -0.325(3) -0.566(3) 1.069(2)
O11 O 0.553(3) 0.541(3) -0.077(2)
Cd1 Cd 0.0000 0.0000 0.0000
Cd2 Cd 0.01405(4) 0.30815(3) -0.23635(3)
O1 O 0.1164(4) 0.2049(4) -0.0942(3)
O2 O 0.2850(4) 0.3196(5) -0.2419(3)
O3 O 0.7795(4) 0.2848(5) -0.1995(4)
O4 O 0.8129(4) 0.1510(5) -0.0349(4)
O5 O 0.0876(5) 0.1537(4) 0.6774(3)
O6 O 0.0449(4) -0.0362(4) 0.8318(3)
O7 O -0.0081(5) -0.4714(4) 0.7749(3)
O8 O 0.0778(5) -0.4930(4) 0.6058(3)
C1 C 0.3428(5) 0.2066(5) -0.0676(4)
C2 C 0.4871(5) 0.2290(5) -0.1162(4)
H1 H 0.5237 0.2721 -0.1944
C3 C 0.5778(5) 0.1867(5) -0.0479(4)
C4 C 0.5214(5) 0.1235(5) 0.0695(4)
H2 H 0.5823 0.0936 0.1150
C5 C 0.3760(5) 0.1050(5) 0.1188(4)
C6 C 0.2865(5) 0.1483(5) 0.0492(4)
H3 H 0.1882 0.1379 0.0814
C7 C 0.2439(5) 0.2473(5) -0.1415(4)
C8 C 0.7339(5) 0.2081(6) -0.0981(5)
C9 C 0.3159(6) 0.0409(6) 0.2395(4)
C10 C 0.2587(6) -0.0133(6) 0.3393(4)
C11 C 0.1021(5) -0.0580(5) 0.6484(4)
C12 C 0.0627(6) -0.1945(5) 0.6922(4)
H4 H 0.0198 -0.2345 0.7700
C13 C 0.0872(5) -0.2719(5) 0.6200(4)
C14 C 0.1509(6) -0.2129(5) 0.5034(4)
H5 H 0.1668 -0.2645 0.4552
C15 C 0.1907(6) -0.0756(5) 0.4594(4)
C16 C 0.1638(6) -0.0003(5) 0.5326(4)
H6 H 0.1881 0.0919 0.5028
C17 C 0.0756(6) 0.0271(6) 0.7264(4)
C18 C 0.0507(6) -0.4214(5) 0.6698(4)
Cd2A Cd -0.01405(4) -0.30815(3) 0.23635(3)
O1A O -0.1164(4) -0.2049(4) 0.0942(3)
O2A O -0.2850(4) -0.3196(5) 0.2419(3)
O3A O -0.7795(4) -0.2848(5) 0.1995(4)
O4A O -0.8129(4) -0.1510(5) 0.0349(4)
O5A O -0.0876(5) -0.1537(4) -0.6774(3)
O6A O -0.0449(4) 0.0362(4) -0.8318(3)
O7A O 0.0081(5) 0.4714(4) -0.7749(3)
O8A O -0.0778(5) 0.4930(4) -0.6058(3)
C1A C -0.3428(5) -0.2066(5) 0.0676(4)
C2A C -0.4871(5) -0.2290(5) 0.1162(4)
H1A H -0.5237 -0.2721 0.1944
C3A C -0.5778(5) -0.1867(5) 0.0479(4)
C4A C -0.5214(5) -0.1235(5) -0.0695(4)
H2A H -0.5823 -0.0936 -0.1150
C5A C -0.3760(5) -0.1050(5) -0.1188(4)
C6A C -0.2865(5) -0.1483(5) -0.0492(4)
H3A H -0.1882 -0.1379 -0.0814
C7A C -0.2439(5) -0.2473(5) 0.1415(4)
C8A C -0.7339(5) -0.2081(6) 0.0981(5)
C9A C -0.3159(6) -0.0409(6) -0.2395(4)
C10A C -0.2587(6) 0.0133(6) -0.3393(4)
C11A C -0.1021(5) 0.0580(5) -0.6484(4)
C12A C -0.0627(6) 0.1945(5) -0.6922(4)
H4A H -0.0198 0.2345 -0.7700
C13A C -0.0872(5) 0.2719(5) -0.6200(4)
C14A C -0.1509(6) 0.2129(5) -0.5034(4)
H5A H -0.1668 0.2645 -0.4552
C15A C -0.1907(6) 0.0756(5) -0.4594(4)
C16A C -0.1638(6) 0.0003(5) -0.5326(4)
H6A H -0.1881 -0.0919 -0.5028
C17A C -0.0756(6) -0.0271(6) -0.7264(4)
C18A C -0.0507(6) 0.4214(5) -0.6698(4)
Cd1_2 Cd -1.0000 0.0000 0.0000
Cd1_3 Cd -0.0000 0.0000 -1.0000
Cd1_4 Cd 0.0000 -0.0000 1.0000
Cd1_5 Cd 1.0000 0.0000 0.0000
Cd2_2 Cd 0.01405(4) -0.69185(3) 0.76365(3)
Cd2_3 Cd 0.01405(4) 0.30815(3) 0.76365(3)
Cd2_4 Cd 1.01405(4) 0.30815(3) -0.23635(3)
Cd2A_2 Cd -1.01405(4) -0.30815(3) 0.23635(3)
Cd2A_3 Cd -0.01405(4) -0.30815(3) -0.76365(3)
Cd2A_4 Cd -0.01405(4) 0.69185(3) -0.76365(3)
O3_2 O -0.2205(4) 0.2848(5) -0.1995(4)
O3A_2 O 0.2205(4) -0.2848(5) 0.1995(4)
O4_2 O -0.1871(4) 0.1510(5) -0.0349(4)
O4A_2 O 0.1871(4) -0.1510(5) 0.0349(4)
O5_2 O 0.0876(5) 0.1537(4) -0.3226(3)
O5A_2 O -0.0876(5) -0.1537(4) 0.3226(3)
O6_2 O 0.0449(4) -0.0362(4) -0.1682(3)
O6A_2 O -0.0449(4) 0.0362(4) 0.1682(3)
O7_2 O -0.0081(5) 0.5286(4) -0.2251(3)
O7A_2 O 0.0081(5) -0.5286(4) 0.2251(3)
O8_2 O 0.0778(5) 0.5070(4) -0.3942(3)
O8A_2 O -0.0778(5) -0.5070(4) 0.3942(3)
loop_
_geom_bond_atom_site_label_1
_geom_bond_atom_site_label_2
_geom_bond_site_symmetry_1
_geom_bond_site_symmetry_2
Cd1 O1 1_555 1_555
Cd2 O1 1_555 1_555
O1 C7 1_555 1_555
O2 Cd2 1_555 1_555
O3 C8 1_555 1_555
O4 C8 1_555 1_555
O5 C17 1_555 1_555
O6 C17 1_555 1_555
O7 C18 1_555 1_555
O8 C18 1_555 1_555
C1 C2 1_555 1_555
C2 H1 1_555 1_555
C3 C2 1_555 1_555
C4 C3 1_555 1_555
H2 C4 1_555 1_555
C5 C4 1_555 1_555
C6 C1 1_555 1_555
H3 C6 1_555 1_555
C7 O2 1_555 1_555
C8 C3 1_555 1_555
C9 C5 1_555 1_555
C10 C9 1_555 1_555
C11 C12 1_555 1_555
C12 H4 1_555 1_555
C13 C12 1_555 1_555
C14 C13 1_555 1_555
H5 C14 1_555 1_555
C15 C10 1_555 1_555
C16 C11 1_555 1_555
H6 C16 1_555 1_555
C17 C11 1_555 1_555
C18 C13 1_555 1_555
Cd2A O1A 1_555 1_555
O1A Cd1 1_555 1_555
O2A Cd2A 1_555 1_555
O3A C8A 1_555 1_555
O4A C8A 1_555 1_555
O5A C17A 1_555 1_555
O6A C17A 1_555 1_555
O7A C18A 1_555 1_555
O8A C18A 1_555 1_555
C1A C2A 1_555 1_555
C2A H1A 1_555 1_555
C3A C2A 1_555 1_555
C4A C3A 1_555 1_555
H2A C4A 1_555 1_555
C5A C4A 1_555 1_555
C6A C1A 1_555 1_555
H3A C6A 1_555 1_555
C7A O1A 1_555 1_555
C8A C3A 1_555 1_555
C9A C5A 1_555 1_555
C10A C9A 1_555 1_555
C11A C12A 1_555 1_555
C12A H4A 1_555 1_555
C13A C12A 1_555 1_555
C14A C13A 1_555 1_555
H5A C14A 1_555 1_555
C15A C10A 1_555 1_555
C16A C11A 1_555 1_555
H6A C16A 1_555 1_555
C17A C11A 1_555 1_555
C18A C13A 1_555 1_555
Cd1_2 O4A 1_555 1_555
Cd1_3 O6A 1_555 1_555
Cd1_4 O6 1_555 1_555
Cd1_5 O4 1_555 1_555
Cd2_2 O7 1_555 1_555
Cd2_3 O5 1_555 1_555
Cd2_4 O3 1_555 1_555
Cd2A_2 O3A 1_555 1_555
Cd2A_3 O5A 1_555 1_555
Cd2A_4 O7A 1_555 1_555
O3_2 Cd2 1_555 1_555
O3A_2 Cd2A 1_555 1_555
O4_2 Cd1 1_555 1_555
O4A_2 Cd1 1_555 1_555
O5_2 Cd2 1_555 1_555
O5A_2 Cd2A 1_555 1_555
O6_2 Cd1 1_555 1_555
O6A_2 Cd1 1_555 1_555
O7_2 Cd2 1_555 1_555
O7A_2 Cd2A 1_555 1_555
O8_2 Cd2 1_555 1_555
O8A_2 Cd2A 1_555 1_555
O8 Cd2_2 1_555 1_555
C1 C7 1_555 1_555
C5 C6 1_555 1_555
C14 C15 1_555 1_555
C15 C16 1_555 1_555
O2A C7A 1_555 1_555
O8A Cd2A_4 1_555 1_555
C1A C7A 1_555 1_555
C5A C6A 1_555 1_555
C14A C15A 1_555 1_555
C15A C16A 1_555 1_555

#END
