
#######################################################################
#
#                 Cambridge Crystallographic Data Centre
#                                CCDC 
#
#######################################################################
#
# If this CIF has been generated from an entry in the Cambridge 
# Structural Database, then it will include bibliographic, chemical, 
# crystal, experimental, refinement or atomic coordinate data resulting 
# from the CCDC's data processing and validation procedures.
#
#######################################################################

data_RIPKOS
_chemical_formula_moiety         '(C24 H26 Cu2 N4 O8)n'
_symmetry_cell_setting           monoclinic
_symmetry_space_group_name_H-M   'C 2/c'
_symmetry_Int_Tables_number      15
_space_group_name_Hall           '-C 2yc'
loop_
_symmetry_equiv_pos_site_id
_symmetry_equiv_pos_as_xyz
1 x,y,z
2 -x,y,1/2-z
3 1/2+x,1/2+y,z
4 1/2-x,1/2+y,1/2-z
5 -x,-y,-z
6 x,-y,1/2+z
7 1/2-x,1/2-y,-z
8 1/2+x,1/2-y,1/2+z
_cell_length_a                   29.2971(11)
_cell_length_b                   13.1552(4)
_cell_length_c                   8.5923(3)
_cell_angle_alpha                90
_cell_angle_beta                 90.723(4)
_cell_angle_gamma                90
_cell_volume                     3311.29
loop_
_atom_site_label
_atom_site_type_symbol
_atom_site_fract_x
_atom_site_fract_y
_atom_site_fract_z
_atom_site_U_iso_or_equiv
_atom_site_thermal_displace_type
Cu1 Cu 0.213094(14) -0.20401(4) 0.44769(5) 0.0296 Uani
O1 O 0.24830(10) -0.2055(2) 0.2542(3) 0.0408 Uani
O2 O 0.31177(10) -0.2797(2) 0.3417(3) 0.0433 Uani
O3 O 0.30919(9) 0.1581(2) 0.0994(3) 0.0411 Uani
O4 O 0.24663(10) 0.0800(2) 0.0125(4) 0.0433 Uani
N1 N 0.15718(11) -0.1254(3) 0.3325(4) 0.0373 Uani
C1 C 0.08660(13) -0.0234(4) 0.1789(5) 0.0437 Uani
N2 N 0.01833(13) -0.0268(4) 0.0368(5) 0.0669 Uani
C2 C 0.31124(15) -0.2109(3) 0.0868(5) 0.0383 Uani
H1 H 0.3045 -0.2653 0.0138 0.0460 Uiso
H2 H 0.3441 -0.2089 0.1028 0.0460 Uiso
C3 C 0.30579(15) -0.0207(3) 0.1228(5) 0.0415 Uani
H3 H 0.3387 -0.0132 0.1315 0.0500 Uiso
H4 H 0.2946 -0.0369 0.2256 0.0500 Uiso
C4 C 0.28887(13) -0.2340(3) 0.2386(5) 0.0330 Uani
C5 C 0.28561(13) 0.0808(3) 0.0729(4) 0.0320 Uani
C6 C 0.12232(15) 0.0273(4) 0.2443(6) 0.0593 Uani
H5 H 0.1236 0.0979 0.2387 0.0710 Uiso
C7 C 0.15685(15) -0.0260(4) 0.3194(6) 0.0556 Uani
H6 H 0.1811 0.0105 0.3627 0.0660 Uiso
C8 C 0.29550(15) -0.1098(3) 0.0160(5) 0.0417 Uani
H7 H 0.3107 -0.0994 -0.0824 0.0500 Uiso
H8 H 0.2629 -0.1127 -0.0047 0.0500 Uiso
C9 C 0.04819(14) 0.0311(4) 0.1020(5) 0.0491 Uani
C10 C 0.08728(16) -0.1277(4) 0.1901(6) 0.0691 Uani
H9 H 0.0638 -0.1661 0.1462 0.0830 Uiso
C11 C 0.12292(17) -0.1749(4) 0.2666(7) 0.0654 Uani
H10 H 0.1229 -0.2455 0.2722 0.0780 Uiso
C12 C 0.04760(19) 0.1442(5) 0.1082(7) 0.0800 Uani
H11 H 0.0210 0.1691 0.0539 0.1200 Uiso
H12 H 0.0745 0.1704 0.0599 0.1200 Uiso
H13 H 0.0469 0.1660 0.2148 0.1200 Uiso
N1D N -0.15718(11) 0.1254(3) -0.3325(4) 0.0373 Uani
C1D C -0.08660(13) 0.0234(4) -0.1789(5) 0.0437 Uani
N2D N -0.01833(13) 0.0268(4) -0.0368(5) 0.0669 Uani
C6D C -0.12232(15) -0.0273(4) -0.2443(6) 0.0593 Uani
H5D H -0.1236 -0.0979 -0.2387 0.0710 Uiso
C7D C -0.15685(15) 0.0260(4) -0.3194(6) 0.0556 Uani
H6D H -0.1811 -0.0105 -0.3627 0.0660 Uiso
C9D C -0.04819(14) -0.0311(4) -0.1020(5) 0.0491 Uani
C10D C -0.08728(16) 0.1277(4) -0.1901(6) 0.0691 Uani
H9D H -0.0638 0.1661 -0.1462 0.0830 Uiso
C11D C -0.12292(17) 0.1749(4) -0.2666(7) 0.0654 Uani
H10D H -0.1229 0.2455 -0.2722 0.0780 Uiso
C12D C -0.04760(19) -0.1442(5) -0.1082(7) 0.0800 Uani
H11D H -0.0210 -0.1691 -0.0539 0.1200 Uiso
H12D H -0.0745 -0.1704 -0.0599 0.1200 Uiso
H13D H -0.0469 -0.1660 -0.2148 0.1200 Uiso
Cu1D Cu -0.213094(14) 0.20401(4) -0.44769(5) 0.0296 Uani
O1D O -0.24830(10) 0.2055(2) -0.2542(3) 0.0408 Uani
O2D O -0.31177(10) 0.2797(2) -0.3417(3) 0.0433 Uani
O3D O -0.30919(9) -0.1581(2) -0.0994(3) 0.0411 Uani
O4D O -0.24663(10) -0.0800(2) -0.0125(4) 0.0433 Uani
C2D C -0.31124(15) 0.2109(3) -0.0868(5) 0.0383 Uani
H1D H -0.3045 0.2653 -0.0138 0.0460 Uiso
H2D H -0.3441 0.2089 -0.1028 0.0460 Uiso
C3D C -0.30579(15) 0.0207(3) -0.1228(5) 0.0415 Uani
H3D H -0.3387 0.0132 -0.1315 0.0500 Uiso
H4D H -0.2946 0.0369 -0.2256 0.0500 Uiso
C4D C -0.28887(13) 0.2340(3) -0.2386(5) 0.0330 Uani
C5D C -0.28561(13) -0.0808(3) -0.0729(4) 0.0320 Uani
C8D C -0.29550(15) 0.1098(3) -0.0160(5) 0.0417 Uani
H7D H -0.3107 0.0994 0.0824 0.0500 Uiso
H8D H -0.2629 0.1127 0.0047 0.0500 Uiso
Cu1A Cu -0.213094(14) -0.20401(4) 0.05231(5) 0.0296 Uani
Cu1B Cu -0.286906(14) 0.29599(4) -0.55231(5) 0.0296 Uani
Cu1C Cu 0.286906(14) 0.29599(4) 0.05231(5) 0.0296 Uani
Cu1E Cu 0.213094(14) 0.20401(4) -0.05231(5) 0.0296 Uani
Cu1F Cu 0.286906(14) -0.29599(4) 0.55231(5) 0.0296 Uani
Cu1G Cu -0.286906(14) -0.29599(4) -0.05231(5) 0.0296 Uani
O2B O -0.18823(10) 0.2203(2) -0.6583(3) 0.0433 Uani
O2F O 0.18823(10) -0.2203(2) 0.6583(3) 0.0433 Uani
O3C O 0.19081(9) -0.3419(2) 0.4006(3) 0.0411 Uani
O3G O -0.19081(9) 0.3419(2) -0.4006(3) 0.0411 Uani
O4A O -0.24663(10) 0.0800(2) -0.5125(4) 0.0433 Uani
O4E O 0.24663(10) -0.0800(2) 0.5125(4) 0.0433 Uani
loop_
_atom_site_aniso_label
_atom_site_aniso_U_11
_atom_site_aniso_U_22
_atom_site_aniso_U_33
_atom_site_aniso_U_23
_atom_site_aniso_U_13
_atom_site_aniso_U_12
Cu1 0.0318(3) 0.0253(3) 0.0314(3) 0.0023(2) -0.00993(19) 0.00418(19)
O1 0.0378(15) 0.049(2) 0.0353(17) 0.0077(14) -0.0060(12) 0.0058(13)
O2 0.0489(17) 0.049(2) 0.0320(16) 0.0076(14) -0.0016(13) 0.0171(14)
O3 0.0442(16) 0.0278(16) 0.0508(19) -0.0020(14) -0.0146(14) 0.0001(14)
O4 0.0451(16) 0.0273(16) 0.057(2) 0.0024(15) -0.0220(14) -0.0017(13)
N1 0.0357(17) 0.034(2) 0.042(2) 0.0075(17) -0.0125(15) 0.0031(15)
C1 0.034(2) 0.053(3) 0.044(3) 0.014(2) -0.0077(18) 0.012(2)
N2 0.046(2) 0.067(3) 0.087(3) 0.022(3) -0.027(2) 0.015(2)
C2 0.052(2) 0.030(2) 0.033(2) 0.0031(18) 0.0008(19) 0.0050(19)
C3 0.054(3) 0.028(2) 0.042(3) 0.001(2) -0.021(2) 0.0019(19)
C4 0.041(2) 0.024(2) 0.034(2) 0.0001(17) -0.0048(17) -0.0013(17)
C5 0.038(2) 0.033(2) 0.025(2) -0.0040(17) -0.0042(16) 0.0002(18)
C6 0.047(3) 0.039(3) 0.091(4) 0.021(3) -0.031(3) 0.000(2)
C7 0.042(2) 0.043(3) 0.081(4) 0.013(3) -0.027(2) -0.002(2)
C8 0.059(3) 0.031(2) 0.035(2) 0.0028(19) -0.003(2) 0.000(2)
C9 0.036(2) 0.059(3) 0.052(3) 0.016(2) -0.007(2) 0.015(2)
C10 0.053(3) 0.057(4) 0.096(4) 0.000(3) -0.046(3) 0.005(3)
C11 0.057(3) 0.036(3) 0.102(5) 0.009(3) -0.047(3) 0.002(2)
C12 0.070(4) 0.065(4) 0.104(5) 0.022(4) -0.034(3) 0.021(3)
N1D 0.0357 0.034 0.042 0.0075 -0.0125 0.0031
C1D 0.034 0.053 0.044 0.014 -0.0077 0.012
N2D 0.046 0.067 0.087 0.022 -0.027 0.015
C6D 0.047 0.039 0.091 0.021 -0.031 0
C7D 0.042 0.043 0.081 0.013 -0.027 -0.002
C9D 0.036 0.059 0.052 0.016 -0.007 0.015
C10D 0.053 0.057 0.096 0 -0.046 0.005
C11D 0.057 0.036 0.102 0.009 -0.047 0.002
C12D 0.07 0.065 0.104 0.022 -0.034 0.021
Cu1D 0.0318 0.0253 0.0314 0.0023 -0.00993 0.00418
O1D 0.0378 0.049 0.0353 0.0077 -0.006 0.0058
O2D 0.0489 0.049 0.032 0.0076 -0.0016 0.0171
O3D 0.0442 0.0278 0.0508 -0.002 -0.0146 0.0001
O4D 0.0451 0.0273 0.057 0.0024 -0.022 -0.0017
C2D 0.052 0.03 0.033 0.0031 0.0008 0.005
C3D 0.054 0.028 0.042 0.001 -0.021 0.0019
C4D 0.041 0.024 0.034 0.0001 -0.0048 -0.0013
C5D 0.038 0.033 0.025 -0.004 -0.0042 0.0002
C8D 0.059 0.031 0.035 0.0028 -0.003 0
Cu1A 0.0318 0.0253 0.0314 -0.0023 -0.00993 -0.00418
Cu1B 0.0318 0.0253 0.0314 0.0023 -0.00993 0.00418
Cu1C 0.0318 0.0253 0.0314 -0.0023 -0.00993 -0.00418
Cu1E 0.0318 0.0253 0.0314 -0.0023 -0.00993 -0.00418
Cu1F 0.0318 0.0253 0.0314 0.0023 -0.00993 0.00418
Cu1G 0.0318 0.0253 0.0314 -0.0023 -0.00993 -0.00418
O2B 0.0489 0.049 0.032 0.0076 -0.0016 0.0171
O2F 0.0489 0.049 0.032 0.0076 -0.0016 0.0171
O3C 0.0442 0.0278 0.0508 0.002 -0.0146 -0.0001
O3G 0.0442 0.0278 0.0508 0.002 -0.0146 -0.0001
O4A 0.0451 0.0273 0.057 -0.0024 -0.022 0.0017
O4E 0.0451 0.0273 0.057 -0.0024 -0.022 0.0017
loop_
_geom_bond_atom_site_label_1
_geom_bond_atom_site_label_2
_geom_bond_site_symmetry_1
_geom_bond_site_symmetry_2
Cu1 O1 1_555 1_555
O1 C4 1_555 1_555
O2 C4 1_555 1_555
O3 C5 1_555 1_555
O4 C5 1_555 1_555
N1 Cu1 1_555 1_555
C1 C6 1_555 1_555
N2 C9 1_555 1_555
C2 H1 1_555 1_555
H2 C2 1_555 1_555
C3 H3 1_555 1_555
H4 C3 1_555 1_555
C4 C2 1_555 1_555
C5 C3 1_555 1_555
C6 H5 1_555 1_555
C7 N1 1_555 1_555
H6 C7 1_555 1_555
C8 C2 1_555 1_555
H7 C8 1_555 1_555
H8 C8 1_555 1_555
C9 C1 1_555 1_555
C10 C1 1_555 1_555
H9 C10 1_555 1_555
C11 N1 1_555 1_555
H10 C11 1_555 1_555
C12 C9 1_555 1_555
H11 C12 1_555 1_555
H12 C12 1_555 1_555
H13 C12 1_555 1_555
N1D C7D 1_555 1_555
C1D C6D 1_555 1_555
N2D N2 1_555 1_555
C6D H5D 1_555 1_555
C7D C6D 1_555 1_555
H6D C7D 1_555 1_555
C9D C1D 1_555 1_555
C10D C1D 1_555 1_555
H9D C10D 1_555 1_555
C11D N1D 1_555 1_555
H10D C11D 1_555 1_555
C12D C9D 1_555 1_555
H11D C12D 1_555 1_555
H12D C12D 1_555 1_555
H13D C12D 1_555 1_555
Cu1D N1D 1_555 1_555
O1D Cu1D 1_555 1_555
O2D C4D 1_555 1_555
O3D C5D 1_555 1_555
O4D C5D 1_555 1_555
C2D H1D 1_555 1_555
H2D C2D 1_555 1_555
C3D H3D 1_555 1_555
H4D C3D 1_555 1_555
C4D O1D 1_555 1_555
C5D C3D 1_555 1_555
C8D C2D 1_555 1_555
H7D C8D 1_555 1_555
H8D C8D 1_555 1_555
Cu1A O4D 1_555 1_555
Cu1B Cu1D 1_555 1_555
Cu1C O3 1_555 1_555
Cu1E O4 1_555 1_555
Cu1F Cu1 1_555 1_555
Cu1G O3D 1_555 1_555
O2B Cu1D 1_555 1_555
O2F Cu1 1_555 1_555
O3C Cu1 1_555 1_555
O3G Cu1D 1_555 1_555
O4A Cu1D 1_555 1_555
O4E Cu1 1_555 1_555
O2 Cu1F 1_555 1_555
C3 C8 1_555 1_555
C6 C7 1_555 1_555
C10 C11 1_555 1_555
N2D C9D 1_555 1_555
C10D C11D 1_555 1_555
O2D Cu1B 1_555 1_555
C2D C4D 1_555 1_555
C3D C8D 1_555 1_555
Cu1A Cu1G 1_555 1_555
Cu1C Cu1E 1_555 1_555

#END
