
#######################################################################
#
#                 Cambridge Crystallographic Data Centre
#                                CCDC 
#
#######################################################################
#
# If this CIF has been generated from an entry in the Cambridge 
# Structural Database, then it will include bibliographic, chemical, 
# crystal, experimental, refinement or atomic coordinate data resulting 
# from the CCDC's data processing and validation procedures.
#
#######################################################################

data_RIPKIM
_chemical_formula_moiety         '(C24 H32 Cu2 N4 O11)n'
_symmetry_cell_setting           monoclinic
_symmetry_space_group_name_H-M   'C 2/c'
_symmetry_Int_Tables_number      15
_space_group_name_Hall           '-C 2yc'
loop_
_symmetry_equiv_pos_site_id
_symmetry_equiv_pos_as_xyz
1 x,y,z
2 -x,y,1/2-z
3 1/2+x,1/2+y,z
4 1/2-x,1/2+y,1/2-z
5 -x,-y,-z
6 x,-y,1/2+z
7 1/2-x,1/2-y,-z
8 1/2+x,1/2-y,1/2+z
_cell_length_a                   28.642(2)
_cell_length_b                   13.1862(11)
_cell_length_c                   8.5395(6)
_cell_angle_alpha                90
_cell_angle_beta                 91.660(5)
_cell_angle_gamma                90
_cell_volume                     3223.84
loop_
_atom_site_label
_atom_site_type_symbol
_atom_site_fract_x
_atom_site_fract_y
_atom_site_fract_z
_atom_site_U_iso_or_equiv
_atom_site_thermal_displace_type
C1 C 0.34606(16) -0.0262(4) 0.3393(6) 0.0242 Uani
H1 H 0.3233 0.0099 0.3914 0.0290 Uiso
C2 C 0.38013(16) 0.0272(4) 0.2630(6) 0.0252 Uani
H2 H 0.3800 0.0977 0.2639 0.0310 Uiso
C3 C 0.41442(15) -0.0247(4) 0.1852(5) 0.0217 Uani
C4 C 0.41183(18) -0.1292(4) 0.1841(6) 0.0306 Uani
H3 H 0.4339 -0.1672 0.1318 0.0370 Uiso
C5 C 0.37645(18) -0.1769(4) 0.2610(6) 0.0287 Uani
H4 H 0.3748 -0.2473 0.2569 0.0350 Uiso
C6 C 0.45244(15) 0.0304(4) 0.1032(5) 0.0234 Uani
C7 C 0.45207(18) 0.1425(4) 0.1080(7) 0.0378 Uani
H5 H 0.4781 0.1682 0.0518 0.0560 Uiso
H6 H 0.4544 0.1649 0.2149 0.0560 Uiso
H7 H 0.4235 0.1671 0.0605 0.0560 Uiso
C8 C 0.21016(15) -0.2346(3) 0.2318(5) 0.0148 Uani
C9 C 0.18721(16) -0.2111(3) 0.0744(5) 0.0173 Uani
H8 H 0.1536 -0.2089 0.0853 0.0210 Uiso
H9 H 0.1942 -0.2651 0.0015 0.0210 Uiso
C10 C 0.20374(16) -0.1099(3) 0.0076(5) 0.0184 Uani
H10 H 0.2369 -0.1140 -0.0118 0.0220 Uiso
H11 H 0.1875 -0.0973 -0.0917 0.0220 Uiso
C11 C 0.19484(16) -0.0217(3) 0.1196(5) 0.0198 Uani
H12 H 0.1614 -0.0150 0.1312 0.0240 Uiso
H13 H 0.2084 -0.0386 0.2216 0.0240 Uiso
C12 C 0.21414(14) 0.0803(3) 0.0696(5) 0.0160 Uani
N1 N 0.34433(12) -0.1269(3) 0.3416(4) 0.0172 Uani
N2 N 0.48203(14) -0.0265(3) 0.0369(5) 0.0292 Uani
O1 O 0.18559(11) -0.2781(3) 0.3329(4) 0.0239 Uani
O2 O 0.18905(10) 0.1562(2) 0.0902(4) 0.0213 Uani
O3 O 0.25200(11) -0.2084(2) 0.2527(4) 0.0201 Uani
O4 O 0.25419(11) 0.0812(2) 0.0139(4) 0.0222 Uani
Cu1 Cu 0.28809(2) -0.20535(4) 0.45252(5) 0.0131 Uani
C1D C 0.65394(16) 0.0262(4) -0.3393(6) 0.0242 Uani
H1D H 0.6767 -0.0099 -0.3914 0.0290 Uiso
C2D C 0.61987(16) -0.0272(4) -0.2630(6) 0.0252 Uani
H2D H 0.6200 -0.0977 -0.2639 0.0310 Uiso
C3D C 0.58558(15) 0.0247(4) -0.1852(5) 0.0217 Uani
C4D C 0.58817(18) 0.1292(4) -0.1841(6) 0.0306 Uani
H3D H 0.5661 0.1672 -0.1318 0.0370 Uiso
C5D C 0.62355(18) 0.1769(4) -0.2610(6) 0.0287 Uani
H4D H 0.6252 0.2473 -0.2569 0.0350 Uiso
C6D C 0.54756(15) -0.0304(4) -0.1032(5) 0.0234 Uani
C7D C 0.54793(18) -0.1425(4) -0.1080(7) 0.0378 Uani
H5D H 0.5219 -0.1682 -0.0518 0.0560 Uiso
H6D H 0.5456 -0.1649 -0.2149 0.0560 Uiso
H7D H 0.5765 -0.1671 -0.0605 0.0560 Uiso
N1D N 0.65567(12) 0.1269(3) -0.3416(4) 0.0172 Uani
N2D N 0.51797(14) 0.0265(3) -0.0369(5) 0.0292 Uani
C8D C 0.78984(15) 0.2346(3) -0.2318(5) 0.0148 Uani
C9D C 0.81279(16) 0.2111(3) -0.0744(5) 0.0173 Uani
H8D H 0.8464 0.2089 -0.0853 0.0210 Uiso
H9D H 0.8058 0.2651 -0.0015 0.0210 Uiso
C10D C 0.79626(16) 0.1099(3) -0.0076(5) 0.0184 Uani
H10D H 0.7631 0.1140 0.0118 0.0220 Uiso
H11D H 0.8125 0.0973 0.0917 0.0220 Uiso
C11D C 0.80516(16) 0.0217(3) -0.1196(5) 0.0198 Uani
H12D H 0.8386 0.0150 -0.1312 0.0240 Uiso
H13D H 0.7916 0.0386 -0.2216 0.0240 Uiso
C12D C 0.78586(14) -0.0803(3) -0.0696(5) 0.0160 Uani
O1D O 0.81441(11) 0.2781(3) -0.3329(4) 0.0239 Uani
O2D O 0.81095(10) -0.1562(2) -0.0902(4) 0.0213 Uani
O3D O 0.74800(11) 0.2084(2) -0.2527(4) 0.0201 Uani
O4D O 0.74581(11) -0.0812(2) -0.0139(4) 0.0222 Uani
Cu1D Cu 0.71191(2) 0.20535(4) -0.45252(5) 0.0131 Uani
O1B O 0.68559(11) 0.2219(3) -0.6671(4) 0.0239 Uani
O1F O 0.31441(11) -0.2219(3) 0.6671(4) 0.0239 Uani
O2C O 0.31095(10) -0.3438(2) 0.4098(4) 0.0213 Uani
O2G O 0.68905(10) 0.3438(2) -0.4098(4) 0.0213 Uani
O4A O 0.74581(11) 0.0812(2) -0.5139(4) 0.0222 Uani
O4E O 0.25419(11) -0.0812(2) 0.5139(4) 0.0222 Uani
Cu1A Cu 0.71191(2) -0.20535(4) 0.04748(5) 0.0131 Uani
Cu1B Cu 0.78809(2) 0.29465(4) -0.54748(5) 0.0131 Uani
Cu1C Cu 0.21191(2) 0.29465(4) 0.04748(5) 0.0131 Uani
Cu1E Cu 0.28809(2) 0.20535(4) -0.04748(5) 0.0131 Uani
Cu1F Cu 0.21191(2) -0.29465(4) 0.54748(5) 0.0131 Uani
Cu1G Cu 0.78809(2) -0.29465(4) -0.04748(5) 0.0131 Uani
O5 O 0.0931(6) 0.1037(12) -0.0620(17) 0.1050 Uiso
O6 O 0.4388(12) -0.388(3) 0.041(4) 0.1150 Uiso
O7 O 0.0366(13) 0.120(3) -0.262(4) 0.1350 Uiso
loop_
_atom_site_aniso_label
_atom_site_aniso_U_11
_atom_site_aniso_U_22
_atom_site_aniso_U_33
_atom_site_aniso_U_23
_atom_site_aniso_U_13
_atom_site_aniso_U_12
C1 0.019(2) 0.021(2) 0.033(2) 0.0040(19) 0.0081(18) -0.0018(18)
C2 0.022(2) 0.018(2) 0.036(3) 0.008(2) 0.0064(19) -0.0039(18)
C3 0.019(2) 0.028(3) 0.018(2) 0.0069(18) -0.0004(16) -0.0086(18)
C4 0.032(3) 0.026(3) 0.035(3) -0.002(2) 0.020(2) -0.005(2)
C5 0.032(3) 0.022(2) 0.033(3) 0.000(2) 0.016(2) -0.007(2)
C6 0.018(2) 0.033(3) 0.019(2) 0.0085(19) -0.0008(17) -0.0108(19)
C7 0.028(3) 0.039(3) 0.047(3) 0.011(3) 0.010(2) -0.014(2)
C8 0.021(2) 0.0097(19) 0.0138(19) -0.0021(15) 0.0033(16) 0.0010(16)
C9 0.022(2) 0.014(2) 0.016(2) -0.0005(16) -0.0002(16) -0.0022(16)
C10 0.027(2) 0.014(2) 0.0143(19) 0.0005(16) 0.0032(16) 0.0003(17)
C11 0.028(2) 0.014(2) 0.018(2) 0.0002(17) 0.0088(17) 0.0002(17)
C12 0.023(2) 0.014(2) 0.0110(19) -0.0012(15) 0.0015(16) 0.0006(16)
N1 0.0162(16) 0.0190(19) 0.0166(16) 0.0021(14) 0.0028(13) -0.0044(14)
N2 0.024(2) 0.037(3) 0.027(2) 0.0092(18) 0.0100(17) -0.0123(19)
O1 0.0239(16) 0.0325(19) 0.0153(15) 0.0054(13) 0.0008(13) -0.0115(14)
O2 0.0190(15) 0.0125(15) 0.0328(17) -0.0013(13) 0.0067(13) 0.0007(12)
O3 0.0185(15) 0.0271(18) 0.0148(14) 0.0033(12) 0.0029(11) -0.0042(12)
O4 0.0267(16) 0.0139(16) 0.0267(16) 0.0020(13) 0.0147(13) 0.0023(13)
Cu1 0.0153(3) 0.0114(3) 0.0128(3) 0.00142(18) 0.00379(19) -0.00231(18)
C1D 0.019 0.021 0.033 0.004 0.0081 -0.0018
C2D 0.022 0.018 0.036 0.008 0.0064 -0.0039
C3D 0.019 0.028 0.018 0.0069 -0.0004 -0.0086
C4D 0.032 0.026 0.035 -0.002 0.02 -0.005
C5D 0.032 0.022 0.033 0 0.016 -0.007
C6D 0.018 0.033 0.019 0.0085 -0.0008 -0.0108
C7D 0.028 0.039 0.047 0.011 0.01 -0.014
N1D 0.0162 0.019 0.0166 0.0021 0.0028 -0.0044
N2D 0.024 0.037 0.027 0.0092 0.01 -0.0123
C8D 0.021 0.0097 0.0138 -0.0021 0.0033 0.001
C9D 0.022 0.014 0.016 -0.0005 -0.0002 -0.0022
C10D 0.027 0.014 0.0143 0.0005 0.0032 0.0003
C11D 0.028 0.014 0.018 0.0002 0.0088 0.0002
C12D 0.023 0.014 0.011 -0.0012 0.0015 0.0006
O1D 0.0239 0.0325 0.0153 0.0054 0.0008 -0.0115
O2D 0.019 0.0125 0.0328 -0.0013 0.0067 0.0007
O3D 0.0185 0.0271 0.0148 0.0033 0.0029 -0.0042
O4D 0.0267 0.0139 0.0267 0.002 0.0147 0.0023
Cu1D 0.0153 0.0114 0.0128 0.00142 0.00379 -0.00231
O1B 0.0239 0.0325 0.0153 0.0054 0.0008 -0.0115
O1F 0.0239 0.0325 0.0153 0.0054 0.0008 -0.0115
O2C 0.019 0.0125 0.0328 0.0013 0.0067 -0.0007
O2G 0.019 0.0125 0.0328 0.0013 0.0067 -0.0007
O4A 0.0267 0.0139 0.0267 -0.002 0.0147 -0.0023
O4E 0.0267 0.0139 0.0267 -0.002 0.0147 -0.0023
Cu1A 0.0153 0.0114 0.0128 -0.00142 0.00379 0.00231
Cu1B 0.0153 0.0114 0.0128 0.00142 0.00379 -0.00231
Cu1C 0.0153 0.0114 0.0128 -0.00142 0.00379 0.00231
Cu1E 0.0153 0.0114 0.0128 -0.00142 0.00379 0.00231
Cu1F 0.0153 0.0114 0.0128 0.00142 0.00379 -0.00231
Cu1G 0.0153 0.0114 0.0128 -0.00142 0.00379 0.00231
loop_
_geom_bond_atom_site_label_1
_geom_bond_atom_site_label_2
_geom_bond_site_symmetry_1
_geom_bond_site_symmetry_2
C1 H1 1_555 1_555
C2 C1 1_555 1_555
H2 C2 1_555 1_555
C3 C2 1_555 1_555
C4 C3 1_555 1_555
H3 C4 1_555 1_555
C5 C4 1_555 1_555
H4 C5 1_555 1_555
C6 C3 1_555 1_555
C7 C6 1_555 1_555
H5 C7 1_555 1_555
H6 C7 1_555 1_555
H7 C7 1_555 1_555
C8 C9 1_555 1_555
C9 H8 1_555 1_555
H9 C9 1_555 1_555
C10 C9 1_555 1_555
H10 C10 1_555 1_555
H11 C10 1_555 1_555
C11 C10 1_555 1_555
H12 C11 1_555 1_555
H13 C11 1_555 1_555
C12 C11 1_555 1_555
N1 C1 1_555 1_555
N2 C6 1_555 1_555
O1 C8 1_555 1_555
O2 C12 1_555 1_555
O3 C8 1_555 1_555
O4 C12 1_555 1_555
Cu1 N1 1_555 1_555
C1D H1D 1_555 1_555
C2D C1D 1_555 1_555
H2D C2D 1_555 1_555
C3D C2D 1_555 1_555
C4D C3D 1_555 1_555
H3D C4D 1_555 1_555
C5D C4D 1_555 1_555
H4D C5D 1_555 1_555
C6D C3D 1_555 1_555
C7D C6D 1_555 1_555
H5D C7D 1_555 1_555
H6D C7D 1_555 1_555
H7D C7D 1_555 1_555
N1D C1D 1_555 1_555
N2D N2 1_555 1_555
C8D C9D 1_555 1_555
C9D H8D 1_555 1_555
H9D C9D 1_555 1_555
C10D C9D 1_555 1_555
H10D C10D 1_555 1_555
H11D C10D 1_555 1_555
C11D C10D 1_555 1_555
H12D C11D 1_555 1_555
H13D C11D 1_555 1_555
C12D C11D 1_555 1_555
O1D C8D 1_555 1_555
O2D C12D 1_555 1_555
O3D C8D 1_555 1_555
O4D C12D 1_555 1_555
Cu1D N1D 1_555 1_555
O1B Cu1D 1_555 1_555
O1F Cu1 1_555 1_555
O2C Cu1 1_555 1_555
O2G Cu1D 1_555 1_555
O4A Cu1D 1_555 1_555
O4E Cu1 1_555 1_555
Cu1A O4D 1_555 1_555
Cu1B O1D 1_555 1_555
Cu1C O2 1_555 1_555
Cu1E O4 1_555 1_555
Cu1F O1 1_555 1_555
Cu1G O2D 1_555 1_555
C5 N1 1_555 1_555
O3 Cu1 1_555 1_555
Cu1 Cu1F 1_555 1_555
C5D N1D 1_555 1_555
C6D N2D 1_555 1_555
O3D Cu1D 1_555 1_555
Cu1D Cu1B 1_555 1_555
Cu1A Cu1G 1_555 1_555
Cu1C Cu1E 1_555 1_555

#END
