
#######################################################################
#
#                 Cambridge Crystallographic Data Centre
#                                CCDC 
#
#######################################################################
#
# If this CIF has been generated from an entry in the Cambridge 
# Structural Database, then it will include bibliographic, chemical, 
# crystal, experimental, refinement or atomic coordinate data resulting 
# from the CCDC's data processing and validation procedures.
#
#######################################################################

data_ZIKJOU
_chemical_formula_moiety         '(C24 H19 Cu2 N1 O10)n'
_symmetry_cell_setting           triclinic
_symmetry_space_group_name_H-M   'P -1'
_symmetry_Int_Tables_number      2
_space_group_name_Hall           '-P 1'
loop_
_symmetry_equiv_pos_site_id
_symmetry_equiv_pos_as_xyz
1 x,y,z
2 -x,-y,-z
_cell_length_a                   10.6325(9)
_cell_length_b                   10.7258(8)
_cell_length_c                   18.3532(14)
_cell_angle_alpha                76.671(6)
_cell_angle_beta                 86.717(6)
_cell_angle_gamma                74.278(7)
_cell_volume                     1960.43
loop_
_atom_site_label
_atom_site_type_symbol
_atom_site_fract_x
_atom_site_fract_y
_atom_site_fract_z
Cu1 Cu 0.92931(8) 0.10292(9) 0.02452(5)
Cu2 Cu 1.09021(8) -1.08455(9) 0.54611(5)
O1 O 1.8245(4) -0.0212(4) 0.0696(3)
C1 C 1.1257(6) -0.0816(7) 0.1209(3)
O2 O 1.9409(4) -0.1934(4) 0.0242(3)
O3 O 1.1989(5) -0.9588(5) 0.5183(3)
O4 O 1.0426(5) -0.8166(5) 0.4401(3)
O5 O 1.1583(5) -0.1563(5) 0.4588(3)
O6 O 1.1629(4) -0.1508(5) 0.0722(3)
N1 N 1.4614(5) -0.4169(5) 0.2930(3)
C2 C 1.3504(6) -0.3124(6) 0.2816(4)
C3 C 1.8488(6) -0.1370(6) 0.0627(3)
O7 O 0.8112(5) 0.2685(6) 0.0658(4)
C4 C 1.2959(7) -0.2490(6) 0.2093(4)
H1 H 1.3351 -0.2819 0.1673
C5 C 1.1885(6) -0.1418(6) 0.1985(4)
C6 C 1.6965(7) -0.1844(7) 0.1661(4)
H2 H 1.7013 -0.1060 0.1803
C7 C 1.1741(6) -0.1539(6) 0.3286(3)
C8 C 1.2828(7) -0.2626(7) 0.3412(4)
H3 H 1.3120 -0.3041 0.3911
C9 C 1.6105(6) -0.3767(6) 0.1858(4)
C10 C 1.7664(6) -0.2222(6) 0.1062(4)
C11 C 1.7570(7) -0.3336(7) 0.0855(4)
H4 H 1.8036 -0.3585 0.0431
C12 C 1.4917(7) -0.5037(7) 0.3655(4)
H5 H 1.4857 -0.4486 0.4027
H6 H 1.5834 -0.5576 0.3653
C13 C 1.1555(7) -0.8540(7) 0.4700(4)
C14 C 1.6796(7) -0.4112(7) 0.1261(4)
H7 H 1.6755 -0.4895 0.1115
C15 C 1.6179(7) -0.2621(7) 0.2062(4)
H8 H 1.5693 -0.2362 0.2478
C16 C 1.5300(7) -0.4652(7) 0.2299(4)
H9 H 1.4653 -0.4735 0.1959
H10 H 1.5885 -0.5550 0.2488
C17 C 1.4045(7) -0.5978(7) 0.3912(4)
C18 C 1.2956(7) -0.5872(8) 0.3522(5)
H11 H 1.2746 -0.5215 0.3069
C19 C 1.2452(7) -0.7670(7) 0.4429(4)
C20 C 1.1260(8) -0.0947(7) 0.2596(4)
H12 H 1.0503 -0.0215 0.2524
C21 C 1.2143(8) -0.6703(7) 0.3771(5)
H13 H 1.1383 -0.6609 0.3494
C22 C 1.4386(9) -0.6981(11) 0.4554(5)
H14 H 1.5164 -0.7088 0.4819
C23 C 1.3595(10) -0.7828(10) 0.4812(5)
H15 H 1.3835 -0.8516 0.5250
O8 O 1.0428(5) 0.0255(5) 0.1131(2)
O9 O 1.2161(5) -1.2318(5) 0.6308(3)
O10 O 1.0029(5) -0.0152(5) 0.3810(2)
C24 C 1.1058(7) -0.1053(7) 0.3959(4)
Cu1_2 Cu 1.92931(8) 0.10292(9) 0.02452(5)
Cu1A Cu 1.07069(8) -0.10292(9) -0.02452(5)
Cu1A_2 Cu 2.07069(8) -0.10292(9) -0.02452(5)
Cu2_2 Cu 1.09021(8) -0.08455(9) 0.54611(5)
Cu2A Cu 0.90979(8) -0.91545(9) 0.45389(5)
Cu2A_2 Cu 0.90979(8) 0.08455(9) 0.45389(5)
O1_2 O 0.8245(4) -0.0212(4) 0.0696(3)
O2A O 1.0591(4) 0.1934(4) -0.0242(3)
O4A O 0.9574(5) -1.1834(5) 0.5599(3)
O5_2 O 1.1583(5) -1.1563(5) 0.4588(3)
O6A O 0.8371(4) 0.1508(5) -0.0722(3)
O10A O 0.9971(5) -0.9848(5) 0.6190(2)
loop_
_geom_bond_atom_site_label_1
_geom_bond_atom_site_label_2
_geom_bond_site_symmetry_1
_geom_bond_site_symmetry_2
Cu1 O7 1_555 1_555
Cu2 O3 1_555 1_555
O1 C3 1_555 1_555
C1 O6 1_555 1_555
O2 C3 1_555 1_555
O3 C13 1_555 1_555
O4 C13 1_555 1_555
O5 C24 1_555 1_555
O6 Cu1A 1_555 1_555
N1 C2 1_555 1_555
C2 C4 1_555 1_555
C3 C10 1_555 1_555
C4 H1 1_555 1_555
C5 C1 1_555 1_555
C6 H2 1_555 1_555
C7 C8 1_555 1_555
C8 C2 1_555 1_555
H3 C8 1_555 1_555
C9 C14 1_555 1_555
C10 C6 1_555 1_555
C11 C10 1_555 1_555
H4 C11 1_555 1_555
C12 N1 1_555 1_555
H5 C12 1_555 1_555
H6 C12 1_555 1_555
C13 C19 1_555 1_555
C14 C11 1_555 1_555
H7 C14 1_555 1_555
C15 C6 1_555 1_555
H8 C15 1_555 1_555
C16 N1 1_555 1_555
H9 C16 1_555 1_555
H10 C16 1_555 1_555
C17 C12 1_555 1_555
C18 C17 1_555 1_555
H11 C18 1_555 1_555
C19 C21 1_555 1_555
C20 C5 1_555 1_555
H12 C20 1_555 1_555
C21 C18 1_555 1_555
H13 C21 1_555 1_555
C22 C17 1_555 1_555
H14 C22 1_555 1_555
C23 C19 1_555 1_555
H15 C23 1_555 1_555
O8 Cu1 1_555 1_555
O9 Cu2 1_555 1_555
O10 C24 1_555 1_555
C24 C7 1_555 1_555
Cu1_2 O1 1_555 1_555
Cu1A_2 O2 1_555 1_555
Cu2_2 O5 1_555 1_555
Cu2A O4 1_555 1_555
Cu2A_2 O10 1_555 1_555
O1_2 Cu1 1_555 1_555
O2A Cu1 1_555 1_555
O4A Cu2 1_555 1_555
O5_2 Cu2 1_555 1_555
O6A Cu1 1_555 1_555
O10A Cu2 1_555 1_555
C1 O8 1_555 1_555
C4 C5 1_555 1_555
C7 C20 1_555 1_555
C9 C15 1_555 1_555
C9 C16 1_555 1_555
C22 C23 1_555 1_555

#END
