
#######################################################################
#
#                 Cambridge Crystallographic Data Centre
#                                CCDC 
#
#######################################################################
#
# If this CIF has been generated from an entry in the Cambridge 
# Structural Database, then it will include bibliographic, chemical, 
# crystal, experimental, refinement or atomic coordinate data resulting 
# from the CCDC's data processing and validation procedures.
#
#######################################################################

data_NETRIN
_chemical_formula_moiety         '(C4 H12 Al3 N1 O16 P4 Zn1)n'
_symmetry_cell_setting           orthorhombic
_symmetry_space_group_name_H-M   'P b c a'
_symmetry_Int_Tables_number      61
_space_group_name_Hall           '-P 2ac 2ab'
loop_
_symmetry_equiv_pos_site_id
_symmetry_equiv_pos_as_xyz
1 x,y,z
2 1/2-x,-y,1/2+z
3 1/2+x,1/2-y,-z
4 -x,1/2+y,1/2-z
5 -x,-y,-z
6 1/2+x,y,1/2-z
7 1/2-x,1/2+y,z
8 x,1/2-y,1/2+z
_cell_length_a                   14.226(2)
_cell_length_b                   15.117(2)
_cell_length_c                   17.557(2)
_cell_angle_alpha                90
_cell_angle_beta                 90
_cell_angle_gamma                90
_cell_volume                     3775.71
loop_
_atom_site_label
_atom_site_type_symbol
_atom_site_fract_x
_atom_site_fract_y
_atom_site_fract_z
Zn1 Zn 0.0532(5) 0.7242(5) 0.3410(3)
Al1 Al -0.0553(5) 0.4022(6) 0.4377(3)
Al2 Al 0.0766(5) 1.1045(7) 0.4306(4)
Al3 Al -0.2889(6) 0.6597(7) 0.4622(4)
P1 P 0.0501(7) 0.9048(8) 0.4262(5)
P2 P -0.0850(6) 0.6002(9) 0.4250(5)
P3 P 0.0608(7) 0.7293(8) 0.1588(5)
P4 P 0.2148(6) 0.6608(8) 0.4506(5)
O1 O 0.0432(17) 1.0001(17) 0.3975(14)
O2 O -0.0553(18) 0.5084(17) 0.3994(13)
O3 O 0.0523(19) 0.8394(15) 0.3570(13)
O4 O 0.0558(20) 0.8285(15) 0.1371(13)
O5 O -0.0494(15) 0.6703(14) 0.3703(12)
O6 O -0.0279(14) 0.6831(14) 0.1291(12)
O7 O 0.3030(14) 0.6063(26) 0.4270(15)
O8 O -0.1937(14) 0.6053(26) 0.4351(15)
O9 O -0.0427(16) 0.6168(15) 0.5049(10)
O10 O -0.0359(16) 0.8826(15) 0.4753(10)
O11 O 0.1617(13) 0.6058(17) 0.5102(11)
O12 O 0.0722(9) 0.7158(8) 0.2426(13)
O13 O 0.1514(16) 0.6715(12) 0.3817(13)
O14 O 0.2473(9) 0.7463(18) 0.4864(9)
O15 O 0.1397(13) 0.8998(17) 0.47700(11)
O16 O 0.1496(16) 0.6936(13) 0.1181(13)
O4C O -0.0558(20) 0.3285(15) 0.3629(13)
O9D O 0.0427(16) 0.3832(15) 0.4951(10)
O11D O -0.1617(13) 0.3942(17) 0.4898(11)
O6C O 0.0279(14) 1.1831(14) 0.3709(12)
O7F O 0.1970(14) 1.1063(26) 0.4270(15)
O10D O 0.0359(16) 1.1174(15) 0.5247(10)
O14B O -0.2527(9) 0.7537(18) 0.5136(9)
O15B O -0.3603(13) 0.6002(17) 0.52300(11)
O16E O -0.3504(16) 0.6936(13) 0.3819(13)
Al1C Al 0.0553(5) 0.9022(6) 0.0623(3)
Al2C Al -0.0766(5) 0.6045(7) 0.0694(4)
Al2F Al 0.4234(5) 0.6045(7) 0.4306(4)
Al1D Al 0.0553(5) 0.5978(6) 0.5623(3)
Al2D Al -0.0766(5) 0.8955(7) 0.5694(4)
Al3B Al 0.2111(6) 0.8403(7) 0.5378(4)
Al3E Al 0.2111(6) 0.6597(7) 0.0378(4)
N1 N 0.3047(15) 0.9265(12) 0.2574(24)
C1 C 0.2179(21) 0.9807(18) 0.2397(31)
C2 C 0.3954(20) 0.9834(18) 0.2517(46)
C3 C 0.3024(26) 0.8446(21) 0.2023(18)
C4 C 0.3006(25) 0.8984(22) 0.3392(20)
loop_
_geom_bond_atom_site_label_1
_geom_bond_atom_site_label_2
_geom_bond_site_symmetry_1
_geom_bond_site_symmetry_2
N1 C1 1_555 1_555
C2 N1 1_555 1_555
C3 N1 1_555 1_555
C4 N1 1_555 1_555
Zn1 O3 1_555 1_555
Al1 O2 1_555 1_555
Al2 O1 1_555 1_555
Al3 O8 1_555 1_555
P1 O1 1_555 1_555
P2 O2 1_555 1_555
P3 O4 1_555 1_555
P4 O7 1_555 1_555
O3 P1 1_555 1_555
O4 Al1C 1_555 1_555
O5 Zn1 1_555 1_555
O6 P3 1_555 1_555
O7 Al2F 1_555 1_555
O8 P2 1_555 1_555
O9 P2 1_555 1_555
O10 P1 1_555 1_555
O11 P4 1_555 1_555
O12 Zn1 1_555 1_555
O13 Zn1 1_555 1_555
O14 P4 1_555 1_555
O15 P1 1_555 1_555
O16 P3 1_555 1_555
O4C Al1 1_555 1_555
O9D Al1 1_555 1_555
O11D Al1 1_555 1_555
O6C Al2 1_555 1_555
O7F Al2 1_555 1_555
O10D Al2 1_555 1_555
O14B Al3 1_555 1_555
O15B Al3 1_555 1_555
O16E Al3 1_555 1_555
Al2C O6 1_555 1_555
Al1D O9 1_555 1_555
Al2D O10 1_555 1_555
Al3B O14 1_555 1_555
Al3E O16 1_555 1_555
P2 O5 1_555 1_555
P3 O12 1_555 1_555
P4 O13 1_555 1_555
O11 Al1D 1_555 1_555
O15 Al3B 1_555 1_555

#END
