
#######################################################################
#
#                 Cambridge Crystallographic Data Centre
#                                CCDC 
#
#######################################################################
#
# If this CIF has been generated from an entry in the Cambridge 
# Structural Database, then it will include bibliographic, chemical, 
# crystal, experimental, refinement or atomic coordinate data resulting 
# from the CCDC's data processing and validation procedures.
#
#######################################################################

data_NISCOJ
_chemical_formula_moiety         '(C25 H31 N7 O7 Zn1)n'
_symmetry_cell_setting           orthorhombic
_symmetry_space_group_name_H-M   'P c a 21'
_symmetry_Int_Tables_number      29
_space_group_name_Hall           'P 2c -2ac'
loop_
_symmetry_equiv_pos_site_id
_symmetry_equiv_pos_as_xyz
1 x,y,z
2 -x,-y,1/2+z
3 1/2-x,y,1/2+z
4 1/2+x,-y,z
_cell_length_a                   18.3139(11)
_cell_length_b                   7.8463(6)
_cell_length_c                   19.3760(11)
_cell_angle_alpha                90
_cell_angle_beta                 90
_cell_angle_gamma                90
_cell_volume                     2784.26
loop_
_atom_site_label
_atom_site_type_symbol
_atom_site_fract_x
_atom_site_fract_y
_atom_site_fract_z
_atom_site_U_iso_or_equiv
_atom_site_thermal_displace_type
C1 C 0.13057(11) 1.3773(3) 0.4989(2) 0.0311 Uani
C2 C 0.18100(12) 1.2280(3) 0.51217(14) 0.0282 Uani
C3 C 0.25554(13) 1.2535(3) 0.52138(16) 0.0382 Uani
H1 H 0.2747 1.3646 0.5192 0.0460 Uiso
C4 C 0.30198(13) 1.1174(3) 0.53368(16) 0.0346 Uani
H2 H 0.3520 1.1356 0.5414 0.0420 Uiso
C5 C 0.27311(13) 0.9532(3) 0.53433(14) 0.0275 Uani
C6 C 0.19926(13) 0.9250(3) 0.52463(14) 0.0320 Uani
H3 H 0.1805 0.8134 0.5248 0.0380 Uiso
C7 C 0.15310(12) 1.0630(3) 0.51461(13) 0.0296 Uani
H4 H 0.1026 1.0451 0.5094 0.0360 Uiso
C8 C 0.41014(15) 0.8617(4) 0.44834(15) 0.0375 Uani
H5 H 0.4388 0.9563 0.4658 0.0560 Uiso
H6 H 0.3705 0.9049 0.4201 0.0560 Uiso
H7 H 0.4410 0.7879 0.4207 0.0560 Uiso
C9 C 0.37945(11) 0.7629(3) 0.50756(16) 0.0252 Uani
C10 C 0.31138(14) 0.6822(3) 0.59400(15) 0.0325 Uani
C11 C 0.25289(19) 0.6794(5) 0.6477(2) 0.0560 Uani
H8 H 0.2075 0.6408 0.6272 0.0840 Uiso
H9 H 0.2463 0.7933 0.6663 0.0840 Uiso
H10 H 0.2669 0.6025 0.6846 0.0840 Uiso
C12 C 0.48278(16) -0.2734(4) 0.10235(17) 0.0376 Uani
C13 C 0.47662(15) -0.1265(3) 0.15301(15) 0.0335 Uani
C14 C 0.4494(2) -0.1621(4) 0.21766(18) 0.0552 Uani
H11 H 0.4349 -0.2737 0.2289 0.0660 Uiso
C15 C 0.4432(2) -0.0321(4) 0.26637(17) 0.0547 Uani
H12 H 0.4235 -0.0554 0.3101 0.0660 Uiso
C16 C 0.46612(15) 0.1304(3) 0.25041(14) 0.0296 Uani
C17 C 0.49221(17) 0.1693(3) 0.18549(15) 0.0383 Uani
H13 H 0.5063 0.2812 0.1743 0.0460 Uiso
C18 C 0.49729(16) 0.0382(4) 0.13660(14) 0.0388 Uani
H14 H 0.5150 0.0625 0.0921 0.0470 Uiso
C19 C 0.56594(16) 0.1853(4) 0.37767(17) 0.0444 Uani
H15 H 0.5936 0.2464 0.4125 0.0670 Uiso
H16 H 0.5951 0.1740 0.3362 0.0670 Uiso
H17 H 0.5534 0.0729 0.3949 0.0670 Uiso
C20 C 0.49791(14) 0.2809(3) 0.36157(14) 0.0292 Uani
C21 C 0.39993(16) 0.3716(4) 0.30845(15) 0.0385 Uani
C22 C 0.3428(2) 0.3895(6) 0.2549(2) 0.0667 Uani
H18 H 0.3067 0.4721 0.2699 0.1000 Uiso
H19 H 0.3193 0.2802 0.2475 0.1000 Uiso
H20 H 0.3649 0.4279 0.2121 0.1000 Uiso
N1 N 0.40469(10) 0.6166(2) 0.53102(11) 0.0246 Uani
N2 N 0.36175(11) 0.5660(3) 0.58678(12) 0.0314 Uani
N3 N 0.32045(10) 0.8089(2) 0.54593(12) 0.0272 Uani
N4 N 0.46740(12) 0.3979(3) 0.39988(12) 0.0289 Uani
N5 N 0.40464(13) 0.4563(3) 0.36612(13) 0.0389 Uani
N6 N 0.45757(12) 0.2603(3) 0.30237(11) 0.0303 Uani
O1 O 0.06279(8) 1.34072(19) 0.49404(14) 0.0338 Uani
O2 O 0.15606(9) 1.5232(2) 0.49280(19) 0.0488 Uani
O3 O 0.50621(11) -0.2400(2) 0.04185(11) 0.0417 Uani
O4 O 0.46658(15) -0.4197(3) 0.12061(13) 0.0565 Uani
Zn1 Zn 0.491856(10) 0.47462(3) 0.500008(18) 0.0228 Uani
O1C O 0.56279(8) 0.65928(19) 0.49404(14) 0.0338 Uani
O3A O 0.49379(11) 0.2400(2) 0.54185(11) 0.0417 Uani
O4A O 0.53342(15) 0.4197(3) 0.62061(13) 0.0565 Uani
Zn1A Zn 0.508144(10) -0.47462(3) 0.000008(18) 0.0228 Uani
Zn1C Zn -0.008144(10) 1.52538(3) 0.500008(18) 0.0228 Uani
C23 C 0.3443(3) 0.1835(7) 0.7143(3) 0.0840 Uani
H21 H 0.3445 0.2250 0.6688 0.1010 Uiso
C24 C 0.3992(4) 0.4440(7) 0.7543(3) 0.1043 Uani
H22 H 0.4489 0.4344 0.7710 0.1570 Uiso
H23 H 0.3747 0.5366 0.7781 0.1570 Uiso
H24 H 0.3997 0.4668 0.7051 0.1570 Uiso
C25 C 0.3449(5) 0.2444(10) 0.8365(3) 0.1407 Uani
H25 H 0.3094 0.1526 0.8373 0.2110 Uiso
H26 H 0.3250 0.3431 0.8601 0.2110 Uiso
H27 H 0.3892 0.2080 0.8596 0.2110 Uiso
N7 N 0.3610(3) 0.2877(6) 0.7672(2) 0.0850 Uani
O5 O 0.3280(7) 0.0246(13) 0.7266(5) 0.0984 Uiso
O7 O 0.26053(17) 0.6224(5) 0.3952(2) 0.0800 Uani
H28 H 0.3018(11) 0.573(4) 0.3963(16) 0.0340 Uiso
H29 H 0.2344(15) 0.585(4) 0.4276(14) 0.0340 Uiso
O8 O 0.2761(6) 0.9480(17) 0.3350(7) 0.0574 Uiso
loop_
_atom_site_aniso_label
_atom_site_aniso_U_11
_atom_site_aniso_U_22
_atom_site_aniso_U_33
_atom_site_aniso_U_23
_atom_site_aniso_U_13
_atom_site_aniso_U_12
C1 0.0282(9) 0.0275(10) 0.0375(12) -0.0014(17) 0.0026(16) 0.0037(7)
C2 0.0254(10) 0.0253(10) 0.0338(18) -0.0044(9) 0.0001(10) 0.0006(7)
C3 0.0290(11) 0.0235(11) 0.062(2) -0.0045(11) -0.0056(11) -0.0045(8)
C4 0.0223(10) 0.0302(13) 0.0513(17) -0.0040(11) -0.0058(11) -0.0023(9)
C5 0.0255(10) 0.0258(11) 0.0311(13) -0.0008(9) 0.0021(9) 0.0038(9)
C6 0.0280(11) 0.0230(11) 0.0451(16) -0.0032(9) 0.0026(10) -0.0026(8)
C7 0.0220(9) 0.0268(11) 0.0400(19) -0.0041(9) 0.0016(9) -0.0011(7)
C8 0.0374(14) 0.0384(15) 0.0368(15) 0.0141(11) 0.0073(11) 0.0090(10)
C9 0.0237(9) 0.0264(10) 0.0254(14) 0.0020(11) -0.0007(11) 0.0018(7)
C10 0.0297(12) 0.0323(13) 0.0355(15) 0.0068(10) 0.0076(11) -0.0019(10)
C11 0.055(2) 0.061(2) 0.052(2) 0.0165(17) 0.0291(17) 0.0098(15)
C12 0.0357(13) 0.0392(15) 0.0378(17) -0.0118(12) -0.0053(12) 0.0062(11)
C13 0.0373(13) 0.0318(13) 0.0314(14) -0.0076(10) -0.0032(11) 0.0036(10)
C14 0.097(3) 0.0315(16) 0.0370(18) -0.0016(13) 0.0134(18) -0.0137(16)
C15 0.096(3) 0.0380(16) 0.0302(17) 0.0010(12) 0.0175(16) -0.0114(17)
C16 0.0357(12) 0.0290(13) 0.0240(12) -0.0035(10) -0.0018(10) 0.0036(9)
C17 0.0560(17) 0.0286(13) 0.0303(13) -0.0024(10) 0.0053(13) -0.0068(11)
C18 0.0499(15) 0.0393(13) 0.0271(13) -0.0032(11) 0.0103(12) -0.0022(13)
C19 0.0451(16) 0.0497(17) 0.0383(17) -0.0086(13) -0.0053(13) 0.0207(13)
C20 0.0331(13) 0.0279(12) 0.0265(13) -0.0019(9) -0.0035(11) 0.0017(10)
C21 0.0434(15) 0.0402(15) 0.0320(15) -0.0053(11) -0.0067(12) 0.0165(12)
C22 0.063(2) 0.084(3) 0.053(2) -0.025(2) -0.0258(18) 0.037(2)
N1 0.0258(9) 0.0232(10) 0.0248(10) 0.0018(8) 0.0006(8) 0.0007(7)
N2 0.0316(10) 0.0274(11) 0.0351(12) 0.0077(9) 0.0053(9) -0.0010(8)
N3 0.0241(9) 0.0250(9) 0.0325(12) 0.0012(8) 0.0042(8) 0.0015(7)
N4 0.0331(10) 0.0273(10) 0.0264(11) -0.0031(9) -0.0029(9) 0.0035(8)
N5 0.0447(12) 0.0405(13) 0.0316(12) -0.0074(10) -0.0072(10) 0.0171(10)
N6 0.0360(11) 0.0301(11) 0.0247(11) -0.0048(9) -0.0044(9) 0.0065(8)
O1 0.0274(7) 0.0288(7) 0.0452(11) -0.0044(11) -0.0034(10) 0.0051(5)
O2 0.0367(8) 0.0255(7) 0.0842(17) 0.0011(13) 0.0033(15) 0.0012(6)
O3 0.0461(11) 0.0403(10) 0.0388(12) -0.0139(8) 0.0024(10) 0.0040(8)
O4 0.0803(16) 0.0304(11) 0.0588(16) -0.0116(10) 0.0006(13) 0.0016(10)
Zn1 0.02404(10) 0.01962(9) 0.02479(11) -0.00031(18) -0.00110(19) 0.00033(8)
O1C 0.0274 0.0288 0.0452 0.0044 -0.0034 -0.0051
O3A 0.0461 0.0403 0.0388 0.0139 -0.0024 0.004
O4A 0.0803 0.0304 0.0588 0.0116 -0.0006 0.0016
Zn1A 0.02404 0.01962 0.02479 0.00031 0.0011 0.00033
Zn1C 0.02404 0.01962 0.02479 0.00031 -0.0011 -0.00033
C23 0.088(3) 0.097(4) 0.067(3) -0.028(3) 0.009(3) -0.025(3)
C24 0.122(5) 0.088(4) 0.103(4) -0.029(3) -0.028(4) -0.001(3)
C25 0.229(9) 0.126(6) 0.067(4) -0.006(4) 0.021(5) 0.051(6)
N7 0.107(3) 0.091(3) 0.057(2) -0.013(2) -0.009(2) 0.023(2)
O7 0.0530(17) 0.083(2) 0.104(3) 0.0060(19) 0.0212(17) 0.0164(15)
loop_
_geom_bond_atom_site_label_1
_geom_bond_atom_site_label_2
_geom_bond_site_symmetry_1
_geom_bond_site_symmetry_2
C1 C2 1_555 1_555
C2 C3 1_555 1_555
C3 H1 1_555 1_555
C4 C3 1_555 1_555
H2 C4 1_555 1_555
C5 C4 1_555 1_555
C6 C5 1_555 1_555
H3 C6 1_555 1_555
C7 C2 1_555 1_555
H4 C7 1_555 1_555
C8 H5 1_555 1_555
H6 C8 1_555 1_555
H7 C8 1_555 1_555
C9 C8 1_555 1_555
C10 C11 1_555 1_555
C11 H8 1_555 1_555
H9 C11 1_555 1_555
H10 C11 1_555 1_555
C12 C13 1_555 1_555
C13 C14 1_555 1_555
C14 H11 1_555 1_555
C15 C14 1_555 1_555
H12 C15 1_555 1_555
C16 C15 1_555 1_555
C17 C16 1_555 1_555
H13 C17 1_555 1_555
C18 C13 1_555 1_555
H14 C18 1_555 1_555
C19 H15 1_555 1_555
H16 C19 1_555 1_555
H17 C19 1_555 1_555
C20 C19 1_555 1_555
C21 C22 1_555 1_555
C22 H18 1_555 1_555
H19 C22 1_555 1_555
H20 C22 1_555 1_555
N1 C9 1_555 1_555
N2 C10 1_555 1_555
N3 C5 1_555 1_555
N4 C20 1_555 1_555
N5 C21 1_555 1_555
N6 C16 1_555 1_555
O1 C1 1_555 1_555
O2 C1 1_555 1_555
O3 C12 1_555 1_555
O4 C12 1_555 1_555
Zn1 N1 1_555 1_555
C23 H21 1_555 1_555
C24 H22 1_555 1_555
H23 C24 1_555 1_555
H24 C24 1_555 1_555
C25 H25 1_555 1_555
H26 C25 1_555 1_555
H27 C25 1_555 1_555
N7 C23 1_555 1_555
O5 C23 1_555 1_555
O7 H28 1_555 1_555
H29 O7 1_555 1_555
O1C Zn1 1_555 1_555
O3A Zn1 1_555 1_555
O4A Zn1 1_555 1_555
Zn1A O3 1_555 1_555
Zn1C O1 1_555 1_555
C6 C7 1_555 1_555
C9 N3 1_555 1_555
C10 N3 1_555 1_555
C17 C18 1_555 1_555
C20 N6 1_555 1_555
C21 N6 1_555 1_555
N1 N2 1_555 1_555
N4 N5 1_555 1_555
N4 Zn1 1_555 1_555
O4 Zn1A 1_555 1_555
C24 N7 1_555 1_555
C25 N7 1_555 1_555

#END
