
#######################################################################
#
#                 Cambridge Crystallographic Data Centre
#                                CCDC 
#
#######################################################################
#
# If this CIF has been generated from an entry in the Cambridge 
# Structural Database, then it will include bibliographic, chemical, 
# crystal, experimental, refinement or atomic coordinate data resulting 
# from the CCDC's data processing and validation procedures.
#
#######################################################################

data_ETESIG
_chemical_formula_moiety         '(C32 H29 Cd2 N3 O9 S1)n'
_symmetry_cell_setting           monoclinic
_symmetry_space_group_name_H-M   'P 21/c'
_symmetry_Int_Tables_number      14
_space_group_name_Hall           '-P 2ybc'
loop_
_symmetry_equiv_pos_site_id
_symmetry_equiv_pos_as_xyz
1 x,y,z
2 -x,1/2+y,1/2-z
3 -x,-y,-z
4 x,1/2-y,1/2+z
_cell_length_a                   11.166(2)
_cell_length_b                   17.710(4)
_cell_length_c                   19.669(4)
_cell_angle_alpha                90
_cell_angle_beta                 97.07(3)
_cell_angle_gamma                90
_cell_volume                     3859.97
loop_
_atom_site_label
_atom_site_type_symbol
_atom_site_fract_x
_atom_site_fract_y
_atom_site_fract_z
_atom_site_U_iso_or_equiv
_atom_site_thermal_displace_type
Cd1 Cd 0.39395(5) 0.38763(3) 0.44130(3) 0.0377 Uani
Cd2 Cd 0.43559(5) 0.44073(3) 0.62264(3) 0.0370 Uani
S1 S 0.66895(16) 0.44473(12) 0.51668(10) 0.0348 Uani
O1 O 0.3939(5) 0.3390(3) 0.5506(2) 0.0422 Uani
O2 O 0.4195(5) 0.2472(3) 0.4771(3) 0.0483 Uani
O3 O 0.5430(5) 0.0442(3) 0.8061(3) 0.0570 Uani
O4 O 0.4143(5) 0.1336(4) 0.8335(3) 0.0605 Uani
O5 O 0.2562(5) 0.4130(4) 0.6625(3) 0.0630 Uani
O6 O 0.5947(4) 0.3840(3) 0.4801(3) 0.0440 Uani
O7 O 0.6001(4) 0.4792(3) 0.5708(3) 0.0485 Uani
O8 O 0.7832(4) 0.4163(3) 0.5485(3) 0.0527 Uani
O9 O 0.6871(5) 0.5074(3) 0.4684(3) 0.0477 Uani
N1 N 0.1912(5) 0.3584(4) 0.4207(3) 0.0461 Uani
N2 N -0.4606(6) 0.1199(4) 0.2155(3) 0.0461 Uani
C1 C 0.4150(6) 0.2698(5) 0.5369(4) 0.0339 Uani
C2 C 0.4333(7) 0.2176(4) 0.5972(4) 0.0388 Uani
C3 C 0.5492(7) 0.2044(4) 0.6303(4) 0.0393 Uani
C4 C 0.6532(7) 0.2367(5) 0.6051(4) 0.0470 Uani
H1 H 0.6435 0.2662 0.5658 0.0560 Uiso
C5 C 0.7658(8) 0.2246(6) 0.6382(5) 0.0685 Uani
H2 H 0.8327 0.2448 0.6208 0.0820 Uiso
C6 C 0.7815(8) 0.1809(6) 0.6998(5) 0.0771 Uani
H3 H 0.8590 0.1720 0.7216 0.0930 Uiso
C7 C 0.6852(8) 0.1520(5) 0.7271(4) 0.0587 Uani
H4 H 0.6979 0.1256 0.7682 0.0700 Uiso
C8 C 0.5648(7) 0.1614(5) 0.6940(4) 0.0405 Uani
C9 C 0.4616(7) 0.1338(4) 0.7210(4) 0.0426 Uani
C10 C 0.3461(7) 0.1429(4) 0.6851(4) 0.0404 Uani
C11 C 0.2377(8) 0.1113(6) 0.7067(5) 0.0697 Uani
H5 H 0.2437 0.0834 0.7471 0.0840 Uiso
C12 C 0.1284(9) 0.1206(6) 0.6707(5) 0.0799 Uani
H6 H 0.0612 0.0991 0.6867 0.0960 Uiso
C13 C 0.1136(9) 0.1625(7) 0.6087(5) 0.0880 Uani
H7 H 0.0378 0.1676 0.5837 0.1060 Uiso
C14 C 0.2117(8) 0.1949(5) 0.5866(5) 0.0590 Uani
H8 H 0.2011 0.2246 0.5473 0.0710 Uiso
C15 C 0.3314(7) 0.1853(5) 0.6215(4) 0.0426 Uani
C16 C 0.4754(8) 0.1005(5) 0.7933(4) 0.0441 Uani
C17 C 0.1115(8) 0.3797(5) 0.4628(4) 0.0596 Uani
H9 H 0.1372 0.4131 0.4981 0.0710 Uiso
C18 C -0.0072(8) 0.3548(6) 0.4566(5) 0.0639 Uani
H10 H -0.0590 0.3725 0.4865 0.0770 Uiso
C19 C -0.0481(8) 0.3043(5) 0.4067(5) 0.0598 Uani
C20 C 0.0336(8) 0.2805(6) 0.3642(5) 0.0716 Uani
H11 H 0.0098 0.2457 0.3298 0.0860 Uiso
C21 C 0.1516(8) 0.3081(6) 0.3720(5) 0.0661 Uani
H12 H 0.2046 0.2909 0.3425 0.0790 Uiso
C22 C -0.1766(8) 0.2737(6) 0.4000(6) 0.0769 Uani
H13 H -0.2278 0.3093 0.4203 0.0920 Uiso
H14 H -0.2069 0.2687 0.3518 0.0920 Uiso
C23 C -0.1831(8) 0.1983(7) 0.4344(5) 0.0779 Uani
H15 H -0.1557 0.2035 0.4829 0.0930 Uiso
H16 H -0.1297 0.1630 0.4153 0.0930 Uiso
C24 C -0.3129(8) 0.1665(7) 0.4249(5) 0.0807 Uani
H17 H -0.3655 0.2016 0.4448 0.0970 Uiso
H18 H -0.3140 0.1192 0.4498 0.0970 Uiso
C25 C -0.3515(9) 0.0952(6) 0.2407(5) 0.0706 Uani
H19 H -0.3078 0.0671 0.2123 0.0840 Uiso
C26 C -0.2996(8) 0.1093(6) 0.3076(5) 0.0754 Uani
H20 H -0.2239 0.0902 0.3238 0.0910 Uiso
C27 C -0.3636(9) 0.1525(6) 0.3492(4) 0.0607 Uani
C28 C -0.4738(9) 0.1804(5) 0.3236(5) 0.0637 Uani
H21 H -0.5181 0.2105 0.3501 0.0760 Uiso
C29 C -0.5173(8) 0.1621(5) 0.2568(5) 0.0583 Uani
H22 H -0.5926 0.1811 0.2395 0.0700 Uiso
C30 C 0.1734(9) 0.4563(6) 0.6656(5) 0.0666 Uani
H23 H 0.1885 0.5074 0.6600 0.0800 Uiso
N3 N 0.0634(6) 0.4368(5) 0.6764(4) 0.0644 Uani
C31 C -0.0296(9) 0.4957(7) 0.6844(6) 0.0998 Uani
H24 H 0.0049 0.5447 0.6796 0.1200 Uiso
H25 H -0.0967 0.4887 0.6496 0.1200 Uiso
H26 H -0.0567 0.4916 0.7288 0.1200 Uiso
C32 C 0.0297(11) 0.3595(7) 0.6829(8) 0.1336 Uani
H27 H 0.0978 0.3281 0.6773 0.1610 Uiso
H28 H 0.0046 0.3506 0.7272 0.1610 Uiso
H29 H -0.0355 0.3477 0.6480 0.1610 Uiso
Cd1C Cd 0.39395(5) 0.11237(3) 0.94130(3) 0.0377 Uani
Cd1B Cd 0.60605(5) 0.61237(3) 0.55870(3) 0.0377 Uani
Cd2A Cd 0.56441(5) -0.05927(3) 0.87736(3) 0.0370 Uani
Cd2B Cd 0.56441(5) 0.55927(3) 0.37736(3) 0.0370 Uani
Cd2C Cd -0.56441(5) 0.05927(3) 0.12264(3) 0.0370 Uani
O3A O 0.4570(5) 0.5442(3) 0.6939(3) 0.0570 Uani
O4C O 0.4143(5) 0.3664(4) 0.3335(3) 0.0605 Uani
O7B O 0.3999(4) 0.5208(3) 0.4292(3) 0.0485 Uani
O9B O 0.3129(5) 0.4926(3) 0.5316(3) 0.0477 Uani
N2C N 0.5394(6) 0.3801(4) 0.7155(3) 0.0461 Uani
loop_
_atom_site_aniso_label
_atom_site_aniso_U_11
_atom_site_aniso_U_22
_atom_site_aniso_U_33
_atom_site_aniso_U_23
_atom_site_aniso_U_13
_atom_site_aniso_U_12
Cd1 0.0392(3) 0.0460(4) 0.0285(3) 0.0032(3) 0.0062(3) -0.0035(3)
Cd2 0.0403(3) 0.0453(4) 0.0260(3) -0.0001(3) 0.0060(3) -0.0016(3)
S1 0.0291(10) 0.0421(12) 0.0338(11) 0.0029(10) 0.0059(9) 0.0054(10)
O1 0.047(3) 0.045(4) 0.034(3) 0.000(3) 0.003(3) -0.002(3)
O2 0.065(4) 0.053(4) 0.028(3) -0.005(3) 0.010(3) -0.002(3)
O3 0.069(4) 0.056(4) 0.048(4) 0.021(3) 0.015(3) 0.001(3)
O4 0.070(4) 0.082(5) 0.034(3) 0.009(3) 0.024(3) 0.012(4)
O5 0.044(4) 0.082(5) 0.068(4) 0.007(4) 0.027(3) 0.008(3)
O6 0.039(3) 0.034(3) 0.059(4) -0.004(3) 0.006(3) -0.002(3)
O7 0.043(3) 0.053(4) 0.053(4) -0.007(3) 0.020(3) 0.002(3)
O8 0.037(3) 0.060(4) 0.060(4) 0.002(3) 0.001(3) 0.016(3)
O9 0.047(3) 0.046(4) 0.048(3) 0.012(3) -0.002(3) -0.011(3)
N1 0.033(4) 0.064(5) 0.042(4) -0.006(4) 0.007(3) -0.007(4)
N2 0.048(4) 0.047(4) 0.043(4) -0.009(4) 0.005(4) 0.002(4)
C1 0.027(4) 0.040(5) 0.034(5) 0.000(4) 0.001(4) -0.002(4)
C2 0.048(5) 0.036(5) 0.036(5) 0.000(4) 0.020(4) 0.000(4)
C3 0.039(5) 0.040(5) 0.039(5) 0.005(4) 0.005(4) 0.003(4)
C4 0.046(5) 0.051(6) 0.046(5) 0.003(4) 0.014(5) -0.004(4)
C5 0.050(6) 0.103(9) 0.056(6) 0.017(6) 0.020(5) -0.016(6)
C6 0.038(6) 0.121(10) 0.072(7) 0.024(7) 0.005(5) -0.002(6)
C7 0.048(6) 0.088(7) 0.040(5) 0.016(5) 0.005(5) -0.005(5)
C8 0.041(5) 0.052(5) 0.028(4) -0.006(4) 0.002(4) 0.004(4)
C9 0.044(5) 0.051(6) 0.034(4) 0.011(4) 0.010(4) -0.005(4)
C10 0.041(5) 0.044(5) 0.036(5) 0.003(4) 0.004(4) -0.010(4)
C11 0.052(6) 0.093(8) 0.063(6) 0.032(6) 0.003(5) -0.024(6)
C12 0.052(6) 0.116(10) 0.074(7) 0.037(7) 0.017(6) -0.021(6)
C13 0.045(6) 0.139(11) 0.078(8) 0.038(8) 0.000(6) -0.006(7)
C14 0.049(6) 0.075(7) 0.053(6) 0.017(5) 0.006(5) -0.006(5)
C15 0.039(5) 0.053(6) 0.035(5) 0.002(4) 0.001(4) -0.002(4)
C16 0.054(6) 0.042(6) 0.037(5) 0.011(4) 0.008(5) -0.010(5)
C17 0.053(6) 0.082(7) 0.045(5) -0.019(5) 0.011(5) -0.023(5)
C18 0.042(5) 0.090(8) 0.064(6) -0.034(6) 0.024(5) -0.015(5)
C19 0.042(5) 0.074(7) 0.063(6) -0.010(6) 0.005(5) -0.003(5)
C20 0.045(6) 0.091(8) 0.078(7) -0.040(6) 0.004(6) -0.011(6)
C21 0.057(6) 0.089(8) 0.054(6) -0.030(6) 0.014(5) 0.005(6)
C22 0.035(5) 0.106(9) 0.088(8) -0.032(7) 0.001(5) 0.002(6)
C23 0.062(7) 0.131(11) 0.039(6) -0.002(6) 0.000(5) -0.031(7)
C24 0.063(7) 0.115(9) 0.062(7) -0.004(7) -0.001(6) -0.026(6)
C25 0.052(6) 0.082(8) 0.078(8) -0.023(6) 0.009(6) 0.011(6)
C26 0.043(6) 0.119(9) 0.060(7) -0.031(7) -0.011(5) 0.006(6)
C27 0.059(6) 0.082(7) 0.041(5) -0.013(5) 0.006(5) -0.034(6)
C28 0.055(6) 0.078(8) 0.059(7) -0.013(6) 0.011(5) 0.004(5)
C29 0.053(6) 0.068(7) 0.051(6) -0.008(5) -0.005(5) 0.013(5)
C30 0.060(7) 0.080(8) 0.063(7) 0.001(6) 0.020(6) -0.010(6)
N3 0.039(4) 0.083(6) 0.072(5) -0.007(5) 0.010(4) -0.001(4)
C31 0.062(7) 0.135(9) 0.104(9) -0.015(8) 0.017(7) 0.022(7)
C32 0.102(10) 0.097(7) 0.216(16) -0.004(11) 0.076(11) -0.035(8)
Cd1C 0.0392 0.046 0.0285 -0.0032 0.0062 0.0035
Cd1B 0.0392 0.046 0.0285 0.0032 0.0062 -0.0035
Cd2A 0.0403 0.0453 0.026 0.0001 0.006 0.0016
Cd2B 0.0403 0.0453 0.026 -0.0001 0.006 -0.0016
Cd2C 0.0403 0.0453 0.026 0.0001 0.006 0.0016
O3A 0.069 0.056 0.048 -0.021 0.015 -0.001
O4C 0.07 0.082 0.034 -0.009 0.024 -0.012
O7B 0.043 0.053 0.053 -0.007 0.02 0.002
O9B 0.047 0.046 0.048 0.012 -0.002 -0.011
N2C 0.048 0.047 0.043 0.009 0.005 -0.002
loop_
_geom_bond_atom_site_label_1
_geom_bond_atom_site_label_2
_geom_bond_site_symmetry_1
_geom_bond_site_symmetry_2
Cd1 O1 1_555 1_555
Cd2 O1 1_555 1_555
S1 O6 1_555 1_555
O1 C1 1_555 1_555
O2 Cd1 1_555 1_555
O3 C16 1_555 1_555
O4 C16 1_555 1_555
O5 Cd2 1_555 1_555
O6 Cd1 1_555 1_555
O7 Cd2 1_555 1_555
O8 S1 1_555 1_555
O9 S1 1_555 1_555
N1 Cd1 1_555 1_555
N2 C25 1_555 1_555
C1 O2 1_555 1_555
C2 C1 1_555 1_555
C3 C2 1_555 1_555
C4 C3 1_555 1_555
H1 C4 1_555 1_555
C5 C4 1_555 1_555
H2 C5 1_555 1_555
C6 C5 1_555 1_555
H3 C6 1_555 1_555
C7 C6 1_555 1_555
H4 C7 1_555 1_555
C8 C3 1_555 1_555
C9 C8 1_555 1_555
C10 C9 1_555 1_555
C11 C10 1_555 1_555
H5 C11 1_555 1_555
C12 C11 1_555 1_555
H6 C12 1_555 1_555
C13 C12 1_555 1_555
H7 C13 1_555 1_555
C14 C13 1_555 1_555
H8 C14 1_555 1_555
C15 C2 1_555 1_555
C16 C9 1_555 1_555
C17 N1 1_555 1_555
H9 C17 1_555 1_555
C18 C17 1_555 1_555
H10 C18 1_555 1_555
C19 C18 1_555 1_555
C20 C19 1_555 1_555
H11 C20 1_555 1_555
C21 N1 1_555 1_555
H12 C21 1_555 1_555
C22 C19 1_555 1_555
H13 C22 1_555 1_555
H14 C22 1_555 1_555
C23 C22 1_555 1_555
H15 C23 1_555 1_555
H16 C23 1_555 1_555
C24 C23 1_555 1_555
H17 C24 1_555 1_555
H18 C24 1_555 1_555
C25 H19 1_555 1_555
C26 C25 1_555 1_555
H20 C26 1_555 1_555
C27 C24 1_555 1_555
C28 C27 1_555 1_555
H21 C28 1_555 1_555
C29 N2 1_555 1_555
H22 C29 1_555 1_555
C30 O5 1_555 1_555
H23 C30 1_555 1_555
N3 C30 1_555 1_555
C31 N3 1_555 1_555
H24 C31 1_555 1_555
H25 C31 1_555 1_555
H26 C31 1_555 1_555
C32 N3 1_555 1_555
H27 C32 1_555 1_555
H28 C32 1_555 1_555
H29 C32 1_555 1_555
Cd1C O4 1_555 1_555
Cd1B O7 1_555 1_555
Cd2A O3 1_555 1_555
Cd2B O9 1_555 1_555
Cd2C N2 1_555 1_555
O3A Cd2 1_555 1_555
O4C Cd1 1_555 1_555
O7B Cd1 1_555 1_555
O9B Cd2 1_555 1_555
N2C Cd2 1_555 1_555
S1 O7 1_555 1_555
C7 C8 1_555 1_555
C10 C15 1_555 1_555
C14 C15 1_555 1_555
C20 C21 1_555 1_555
C26 C27 1_555 1_555
C28 C29 1_555 1_555
Cd2B O7B 1_555 1_555

#END
