
#######################################################################
#
#                 Cambridge Crystallographic Data Centre
#                                CCDC 
#
#######################################################################
#
# If this CIF has been generated from an entry in the Cambridge 
# Structural Database, then it will include bibliographic, chemical, 
# crystal, experimental, refinement or atomic coordinate data resulting 
# from the CCDC's data processing and validation procedures.
#
#######################################################################

data_MAKHAJ
_chemical_formula_moiety         '(C6 H20 N2 O12 P4 Zn3)n'
_symmetry_cell_setting           monoclinic
_symmetry_space_group_name_H-M   'P 21/n'
_symmetry_Int_Tables_number      14
_space_group_name_Hall           '-P 2yn'
loop_
_symmetry_equiv_pos_site_id
_symmetry_equiv_pos_as_xyz
1 x,y,z
2 1/2-x,1/2+y,1/2-z
3 -x,-y,-z
4 1/2+x,1/2-y,1/2+z
_cell_length_a                   9.6773(2)
_cell_length_b                   13.8676(2)
_cell_length_c                   15.4482(3)
_cell_angle_alpha                90
_cell_angle_beta                 90.039(1)
_cell_angle_gamma                90
_cell_volume                     2073.16
loop_
_atom_site_label
_atom_site_type_symbol
_atom_site_fract_x
_atom_site_fract_y
_atom_site_fract_z
Zn1 Zn 0.55746(4) 0.39763(3) 0.58003(3)
Zn2 Zn 0.46736(4) 0.10724(3) 0.58594(3)
Zn3 Zn 0.49578(5) 0.24586(3) 0.22530(2)
P1 P 0.75136(10) 0.21772(7) 0.59656(6)
H1 H 0.7631 0.2293 0.5121
P2 P 0.27474(10) 0.28910(7) 0.62287(6)
H2 H 0.2136 0.2742 0.5476
P3 P 0.51388(11) 0.11281(6) 0.38056(6)
H3 H 0.6139 0.1765 0.3910
P4 P 0.46666(11) 0.38585(6) 0.38358(6)
H4 H 0.3789 0.3165 0.4037
O1 O 0.6625(3) 0.12842(19) 0.61099(18)
O2 O 0.6868(3) 0.30909(19) 0.63207(18)
O3 O 0.8950(3) 0.20028(19) 0.63148(19)
O4 O 0.3664(3) 0.37758(19) 0.61271(19)
O5 O 0.3497(3) 0.19689(18) 0.64662(17)
O6 O 0.1624(3) 0.31528(18) 0.68755(19)
O7 O 0.4306(3) 0.11182(18) 0.46332(16)
O8 O 0.5822(3) 0.01593(18) 0.36111(18)
O9 O 0.4242(3) 0.14803(17) 0.30529(16)
O10 O 0.5719(3) 0.39228(19) 0.45553(17)
O11 O 0.3837(3) 0.47892(18) 0.37212(17)
O12 O 0.5372(3) 0.35762(17) 0.29895(16)
Zn1B Zn 0.44254(4) 0.60237(3) 0.41997(3)
Zn2B Zn 0.53264(4) -0.10724(3) 0.41406(3)
Zn3C Zn 0.99578(5) 0.25414(3) 0.72530(2)
Zn3C_2 Zn -0.00422(5) 0.25414(3) 0.72530(2)
O3C O 0.3950(3) 0.29972(19) 0.13148(19)
O6C O 0.6624(3) 0.18472(18) 0.18755(19)
O8B O 0.4178(3) -0.01593(18) 0.63889(18)
O11B O 0.6163(3) 0.52108(18) 0.62788(17)
N1 N 0.1911(3) 0.0226(2) 0.3004(2)
H5 H 0.1689 0.0035 0.2457
H6 H 0.2334 -0.0268 0.3287
H7 H 0.2492 0.0741 0.2978
C1 C 0.0637(5) 0.0502(4) 0.3473(3)
H8 H -0.0037 -0.0036 0.3562
C2 C 0.0715(6) 0.1176(5) 0.4170(4)
H9 H 0.1623 0.1472 0.4299
H10 H 0.0113 0.1068 0.4679
C3 C 0.0021(6) 0.1422(4) 0.3300(3)
H11 H -0.1000 0.1462 0.3283
H12 H 0.0510 0.1866 0.2903
N2 N 0.7890(4) 0.4646(2) 0.2970(2)
H13 H 0.8177 0.4850 0.2440
H14 H 0.7631 0.5163 0.3294
H15 H 0.7159 0.4239 0.2906
C4 C 0.9030(6) 0.4134(4) 0.3407(4)
H16 H 0.9316 0.3520 0.3120
C5 C 1.0180(5) 0.4702(4) 0.3761(3)
H17 H 1.0098 0.5414 0.3758
H18 H 1.1129 0.4447 0.3696
C6 C 0.9156(7) 0.4128(5) 0.4300(4)
H19 H 0.9489 0.3528 0.4578
H20 H 0.8462 0.4492 0.4639
loop_
_geom_bond_atom_site_label_1
_geom_bond_atom_site_label_2
_geom_bond_site_symmetry_1
_geom_bond_site_symmetry_2
Zn1 O2 1_555 1_555
Zn2 O1 1_555 1_555
Zn3 O9 1_555 1_555
P1 H1 1_555 1_555
P2 H2 1_555 1_555
P3 H3 1_555 1_555
P4 H4 1_555 1_555
O1 P1 1_555 1_555
O2 P1 1_555 1_555
O3 P1 1_555 1_555
O4 Zn1 1_555 1_555
O5 Zn2 1_555 1_555
O6 P2 1_555 1_555
O7 Zn2 1_555 1_555
O8 P3 1_555 1_555
O9 P3 1_555 1_555
O10 Zn1 1_555 1_555
O11 P4 1_555 1_555
O12 Zn3 1_555 1_555
N1 H5 1_555 1_555
H6 N1 1_555 1_555
H7 N1 1_555 1_555
C1 N1 1_555 1_555
H8 C1 1_555 1_555
C2 C1 1_555 1_555
H9 C2 1_555 1_555
H10 C2 1_555 1_555
C3 C1 1_555 1_555
H11 C3 1_555 1_555
H12 C3 1_555 1_555
N2 H13 1_555 1_555
H14 N2 1_555 1_555
H15 N2 1_555 1_555
C4 N2 1_555 1_555
H16 C4 1_555 1_555
C5 C4 1_555 1_555
H17 C5 1_555 1_555
H18 C5 1_555 1_555
C6 C4 1_555 1_555
H19 C6 1_555 1_555
H20 C6 1_555 1_555
Zn1B O11 1_555 1_555
Zn2B O8 1_555 1_555
Zn3C O3 1_555 1_555
Zn3C_2 O6 1_555 1_555
O3C Zn3 1_555 1_555
O6C Zn3 1_555 1_555
O8B Zn2 1_555 1_555
O11B Zn1 1_555 1_555
P2 O4 1_555 1_555
P2 O5 1_555 1_555
P3 O7 1_555 1_555
P4 O10 1_555 1_555
P4 O12 1_555 1_555
C2 C3 1_555 1_555
C5 C6 1_555 1_555

#END
