
#######################################################################
#
#                 Cambridge Crystallographic Data Centre
#                                CCDC 
#
#######################################################################
#
# If this CIF has been generated from an entry in the Cambridge 
# Structural Database, then it will include bibliographic, chemical, 
# crystal, experimental, refinement or atomic coordinate data resulting 
# from the CCDC's data processing and validation procedures.
#
#######################################################################

data_FALQIU
_chemical_formula_moiety         '(C36 H56 Cu3 N6 O25 Pr2)n'
_symmetry_cell_setting           trigonal
_symmetry_space_group_name_H-M   'P -3'
_symmetry_Int_Tables_number      147
_space_group_name_Hall           '-P 3'
loop_
_symmetry_equiv_pos_site_id
_symmetry_equiv_pos_as_xyz
1 x,y,z
2 -y,x-y,z
3 -x+y,-x,z
4 -x,-y,-z
5 y,-x+y,-z
6 x-y,x,-z
_cell_length_a                   13.6614(19)
_cell_length_b                   13.6614(19)
_cell_length_c                   7.4147(15)
_cell_angle_alpha                90
_cell_angle_beta                 90
_cell_angle_gamma                120
_cell_volume                     1198.44
loop_
_atom_site_label
_atom_site_type_symbol
_atom_site_fract_x
_atom_site_fract_y
_atom_site_fract_z
Pr1 Pr 1.3333 0.6667 0.659947(18)
Cu1 Cu 1.0000 0.5000 1.0000
O1 O 1.24429(14) 0.80070(15) 0.7588(3)
O2 O 1.18097(12) 0.63404(13) 0.8797(2)
O3 O 1.07844(13) 0.48536(13) 1.2117(2)
O4 O 1.18052(16) 0.57937(17) 1.4492(2)
N1 N 1.03667(12) 0.64959(14) 1.1062(2)
H1 H 0.9708 0.6456 1.1402
C1 C 1.17936(17) 0.72437(18) 0.8626(3)
C2 C 1.0902(2) 0.73845(19) 0.9667(4)
H2 H 1.1431 0.7983 1.0476
C3 C 1.1070(2) 0.6708(2) 1.2691(3)
H3 H 1.1826 0.7303 1.2325
C4 C 1.12209(17) 0.57065(19) 1.3149(3)
C5 C 1.0731(5) 0.7242(5) 1.4116(7)
H4 H 1.0674 0.7858 1.3607
H5 H 1.1288 0.7521 1.5058
H6 H 1.0013 0.6693 1.4604
C6 C 1.0470(7) 0.7886(9) 0.9088(17)
H7 H 0.9939 0.7870 0.9953
H8 H 1.0082 0.7540 0.7986
H9 H 1.1038 0.8656 0.8857
Pr1_2 Pr 1.3333 0.6667 -0.340053(18)
Pr1_3 Pr 1.3333 0.6667 1.659947(18)
Cu1A Cu 1.5000 0.5000 1.0000
Cu1B Cu 1.5000 1.0000 1.0000
Cu1_2 Cu 1.0000 0.5000 0.0000
Cu1A_2 Cu 1.5000 0.5000 0.0000
Cu1B_2 Cu 1.5000 1.0000 0.0000
O1A O 1.19930(15) 0.44359(21) 0.7588(3)
O1B O 1.55641(21) 0.75571(14) 0.7588(3)
O1_2 O 1.24429(14) 0.80070(15) -0.2412(3)
O1A_2 O 1.19930(15) 0.44359(21) -0.2412(3)
O1B_2 O 1.55641(21) 0.75571(14) -0.2412(3)
O2A O 1.36596(13) 0.54693(18) 0.8797(2)
O2B O 1.45307(18) 0.81903(12) 0.8797(2)
O2_2 O 1.18097(12) 0.63404(13) -0.1203(2)
O2A_2 O 1.36596(13) 0.54693(18) -0.1203(2)
O2B_2 O 1.45307(18) 0.81903(12) -0.1203(2)
O2C O 0.81903(12) 0.36596(13) 1.1203(2)
O2D O 1.63404(13) 0.45307(18) 1.1203(2)
O2E O 1.54693(18) 1.18097(12) 1.1203(2)
O3A O 1.51464(13) 0.59308(18) 1.2117(2)
O3B O 1.40692(18) 0.92156(13) 1.2117(2)
O3_2 O 1.07844(13) 0.48536(13) 0.2117(2)
O3A_2 O 1.51464(13) 0.59308(18) 0.2117(2)
O3B_2 O 1.40692(18) 0.92156(13) 0.2117(2)
O3C O 0.92156(13) 0.51464(13) 0.7883(2)
O3D O 1.48536(13) 0.40692(18) 0.7883(2)
O3E O 1.59308(18) 1.07844(13) 0.7883(2)
O4A O 1.42063(17) 0.60115(23) 1.4492(2)
O4B O 1.39885(23) 0.81948(16) 1.4492(2)
O4_2 O 1.18052(16) 0.57937(17) 0.4492(2)
O4A_2 O 1.42063(17) 0.60115(23) 0.4492(2)
O4B_2 O 1.39885(23) 0.81948(16) 0.4492(2)
O4_3 O 1.18052(16) 0.57937(17) -0.5508(2)
O4A_3 O 1.42063(17) 0.60115(23) -0.5508(2)
O4B_3 O 1.39885(23) 0.81948(16) -0.5508(2)
N1A N 1.35041(14) 0.38708(18) 1.1062(2)
N1B N 1.61292(18) 0.96333(12) 1.1062(2)
N1_2 N 1.03667(12) 0.64959(14) 0.1062(2)
N1A_2 N 1.35041(14) 0.38708(18) 0.1062(2)
N1B_2 N 1.61292(18) 0.96333(12) 0.1062(2)
N1C N 0.96333(12) 0.35041(14) 0.8938(2)
N1D N 1.64959(14) 0.61292(18) 0.8938(2)
N1E N 1.38708(18) 1.03667(12) 0.8938(2)
H1A H 1.3544 0.3252 1.1402
H1B H 1.6748 1.0292 1.1402
H1_2 H 0.9708 0.6456 0.1402
H1A_2 H 1.3544 0.3252 0.1402
H1B_2 H 1.6748 1.0292 0.1402
H1C H 1.0292 0.3544 0.8598
H1D H 1.6456 0.6748 0.8598
H1E H 1.3252 0.9708 0.8598
C1A C 1.27563(18) 0.45499(25) 0.8626(3)
C1B C 1.54501(25) 0.82064(17) 0.8626(3)
C1_2 C 1.17936(17) 0.72437(18) -0.1374(3)
C1A_2 C 1.27563(18) 0.45499(25) -0.1374(3)
C1B_2 C 1.54501(25) 0.82064(17) -0.1374(3)
C2A C 1.26155(19) 0.35175(28) 0.9667(4)
C2B C 1.64825(28) 0.9098(2) 0.9667(4)
C2_2 C 1.0902(2) 0.73845(19) -0.0333(4)
C2A_2 C 1.26155(19) 0.35175(28) -0.0333(4)
C2B_2 C 1.64825(28) 0.9098(2) -0.0333(4)
H2A H 1.2017 0.3448 1.0476
H2B H 1.6552 0.8569 1.0476
H2_2 H 1.1431 0.7983 0.0476
H2A_2 H 1.2017 0.3448 0.0476
H2B_2 H 1.6552 0.8569 0.0476
C3A C 1.3292(2) 0.4362(3) 1.2691(3)
C3B C 1.5638(3) 0.8930(2) 1.2691(3)
C3_2 C 1.1070(2) 0.6708(2) 0.2691(3)
C3A_2 C 1.3292(2) 0.4362(3) 0.2691(3)
C3B_2 C 1.5638(3) 0.8930(2) 0.2691(3)
H3A H 1.2697 0.4523 1.2325
H3B H 1.5477 0.8174 1.2325
H3_2 H 1.1826 0.7303 0.2325
H3A_2 H 1.2697 0.4523 0.2325
H3B_2 H 1.5477 0.8174 0.2325
C4A C 1.42935(19) 0.55144(25) 1.3149(3)
C4B C 1.44856(25) 0.87791(17) 1.3149(3)
C4_2 C 1.12209(17) 0.57065(19) 0.3149(3)
C4A_2 C 1.42935(19) 0.55144(25) 0.3149(3)
C4B_2 C 1.44856(25) 0.87791(17) 0.3149(3)
C5A C 1.2758(5) 0.3489(7) 1.4116(7)
C5B C 1.6511(7) 0.9269(5) 1.4116(7)
C5_2 C 1.0731(5) 0.7242(5) 0.4116(7)
C5A_2 C 1.2758(5) 0.3489(7) 0.4116(7)
C5B_2 C 1.6511(7) 0.9269(5) 0.4116(7)
H4A H 1.2142 0.2816 1.3607
H4B H 1.7184 0.9326 1.3607
H4_2 H 1.0674 0.7858 0.3607
H4A_2 H 1.2142 0.2816 0.3607
H4B_2 H 1.7184 0.9326 0.3607
H5A H 1.2479 0.3767 1.5058
H5B H 1.6233 0.8712 1.5058
H5_2 H 1.1288 0.7521 0.5058
H5A_2 H 1.2479 0.3767 0.5058
H5B_2 H 1.6233 0.8712 0.5058
H6A H 1.3307 0.3320 1.4604
H6B H 1.6680 0.9987 1.4604
H6_2 H 1.0013 0.6693 0.4604
H6A_2 H 1.3307 0.3320 0.4604
H6B_2 H 1.6680 0.9987 0.4604
C6A C 1.2114(9) 0.2584(11) 0.9088(17)
C6B C 1.7416(11) 0.9530(7) 0.9088(17)
C6_2 C 1.0470(7) 0.7886(9) -0.0912(17)
C6A_2 C 1.2114(9) 0.2584(11) -0.0912(17)
C6B_2 C 1.7416(11) 0.9530(7) -0.0912(17)
H7A H 1.2130 0.2069 0.9953
H7B H 1.7931 1.0061 0.9953
H7_2 H 0.9939 0.7870 -0.0047
H7A_2 H 1.2130 0.2069 -0.0047
H7B_2 H 1.7931 1.0061 -0.0047
H8A H 1.2460 0.2542 0.7986
H8B H 1.7458 0.9918 0.7986
H8_2 H 1.0082 0.7540 -0.2014
H8A_2 H 1.2460 0.2542 -0.2014
H8B_2 H 1.7458 0.9918 -0.2014
H9A H 1.1344 0.2382 0.8857
H9B H 1.7618 0.8962 0.8857
H9_2 H 1.1038 0.8656 -0.1143
H9A_2 H 1.1344 0.2382 -0.1143
H9B_2 H 1.7618 0.8962 -0.1143
O5 O 0.918(3) 0.703(3) 0.524(4)
loop_
_geom_bond_atom_site_label_1
_geom_bond_atom_site_label_2
_geom_bond_site_symmetry_1
_geom_bond_site_symmetry_2
Pr1 O1 1_555 1_555
Cu1 O2 1_555 1_555
O1 C1 1_555 1_555
O2 Pr1 1_555 1_555
O3 Cu1 1_555 1_555
O4 C4 1_555 1_555
N1 Cu1 1_555 1_555
H1 N1 1_555 1_555
C1 O2 1_555 1_555
C2 N1 1_555 1_555
H2 C2 1_555 1_555
C3 N1 1_555 1_555
H3 C3 1_555 1_555
C4 O3 1_555 1_555
C5 C3 1_555 1_555
H4 C5 1_555 1_555
H5 C5 1_555 1_555
H6 C5 1_555 1_555
C6 C2 1_555 1_555
H7 C6 1_555 1_555
H8 C6 1_555 1_555
H9 C6 1_555 1_555
Pr1_2 O1_2 1_555 1_555
Pr1_3 O4 1_555 1_555
Cu1A O2A 1_555 1_555
Cu1B O2B 1_555 1_555
Cu1_2 O2_2 1_555 1_555
Cu1A_2 O2A_2 1_555 1_555
Cu1B_2 O2B_2 1_555 1_555
O1A Pr1 1_555 1_555
O1B Pr1 1_555 1_555
O1_2 C1_2 1_555 1_555
O1A_2 Pr1_2 1_555 1_555
O1B_2 Pr1_2 1_555 1_555
O2A Pr1 1_555 1_555
O2B Pr1 1_555 1_555
O2_2 Pr1_2 1_555 1_555
O2A_2 Pr1_2 1_555 1_555
O2B_2 Pr1_2 1_555 1_555
O2C Cu1 1_555 1_555
O2D Cu1A 1_555 1_555
O2E Cu1B 1_555 1_555
O3A Cu1A 1_555 1_555
O3B Cu1B 1_555 1_555
O3_2 Cu1_2 1_555 1_555
O3A_2 Cu1A_2 1_555 1_555
O3B_2 Cu1B_2 1_555 1_555
O3C Cu1 1_555 1_555
O3D Cu1A 1_555 1_555
O3E Cu1B 1_555 1_555
O4A Pr1_3 1_555 1_555
O4B Pr1_3 1_555 1_555
O4_2 Pr1 1_555 1_555
O4A_2 Pr1 1_555 1_555
O4B_2 Pr1 1_555 1_555
O4_3 Pr1_2 1_555 1_555
O4A_3 Pr1_2 1_555 1_555
O4B_3 Pr1_2 1_555 1_555
N1A Cu1A 1_555 1_555
N1B Cu1B 1_555 1_555
N1_2 Cu1_2 1_555 1_555
N1A_2 Cu1A_2 1_555 1_555
N1B_2 Cu1B_2 1_555 1_555
N1C Cu1 1_555 1_555
N1D Cu1A 1_555 1_555
N1E Cu1B 1_555 1_555
H1A N1A 1_555 1_555
H1B N1B 1_555 1_555
H1_2 N1_2 1_555 1_555
H1A_2 N1A_2 1_555 1_555
H1B_2 N1B_2 1_555 1_555
H1C N1C 1_555 1_555
H1D N1D 1_555 1_555
H1E N1E 1_555 1_555
C1A O1A 1_555 1_555
C1B O1B 1_555 1_555
C1_2 O2_2 1_555 1_555
C1A_2 O1A_2 1_555 1_555
C1B_2 O1B_2 1_555 1_555
C2A N1A 1_555 1_555
C2B N1B 1_555 1_555
C2_2 N1_2 1_555 1_555
C2A_2 N1A_2 1_555 1_555
C2B_2 N1B_2 1_555 1_555
H2A C2A 1_555 1_555
H2B C2B 1_555 1_555
H2_2 C2_2 1_555 1_555
H2A_2 C2A_2 1_555 1_555
H2B_2 C2B_2 1_555 1_555
C3A N1A 1_555 1_555
C3B N1B 1_555 1_555
C3_2 N1_2 1_555 1_555
C3A_2 N1A_2 1_555 1_555
C3B_2 N1B_2 1_555 1_555
H3A C3A 1_555 1_555
H3B C3B 1_555 1_555
H3_2 C3_2 1_555 1_555
H3A_2 C3A_2 1_555 1_555
H3B_2 C3B_2 1_555 1_555
C4A O3A 1_555 1_555
C4B O3B 1_555 1_555
C4_2 O3_2 1_555 1_555
C4A_2 O3A_2 1_555 1_555
C4B_2 O3B_2 1_555 1_555
C5A C3A 1_555 1_555
C5B C3B 1_555 1_555
C5_2 C3_2 1_555 1_555
C5A_2 C3A_2 1_555 1_555
C5B_2 C3B_2 1_555 1_555
H4A C5A 1_555 1_555
H4B C5B 1_555 1_555
H4_2 C5_2 1_555 1_555
H4A_2 C5A_2 1_555 1_555
H4B_2 C5B_2 1_555 1_555
H5A C5A 1_555 1_555
H5B C5B 1_555 1_555
H5_2 C5_2 1_555 1_555
H5A_2 C5A_2 1_555 1_555
H5B_2 C5B_2 1_555 1_555
H6A C5A 1_555 1_555
H6B C5B 1_555 1_555
H6_2 C5_2 1_555 1_555
H6A_2 C5A_2 1_555 1_555
H6B_2 C5B_2 1_555 1_555
C6A C2A 1_555 1_555
C6B C2B 1_555 1_555
C6_2 C2_2 1_555 1_555
C6A_2 C2A_2 1_555 1_555
C6B_2 C2B_2 1_555 1_555
H7A C6A 1_555 1_555
H7B C6B 1_555 1_555
H7_2 C6_2 1_555 1_555
H7A_2 C6A_2 1_555 1_555
H7B_2 C6B_2 1_555 1_555
H8A C6A 1_555 1_555
H8B C6B 1_555 1_555
H8_2 C6_2 1_555 1_555
H8A_2 C6A_2 1_555 1_555
H8B_2 C6B_2 1_555 1_555
H9A C6A 1_555 1_555
H9B C6B 1_555 1_555
H9_2 C6_2 1_555 1_555
H9A_2 C6A_2 1_555 1_555
H9B_2 C6B_2 1_555 1_555
C1 C2 1_555 1_555
C3 C4 1_555 1_555
O2A C1A 1_555 1_555
O2B C1B 1_555 1_555
O2A_2 C1A_2 1_555 1_555
O2B_2 C1B_2 1_555 1_555
O4A C4A 1_555 1_555
O4B C4B 1_555 1_555
O4_2 C4_2 1_555 1_555
O4A_2 C4A_2 1_555 1_555
O4B_2 C4B_2 1_555 1_555
C1A C2A 1_555 1_555
C1B C2B 1_555 1_555
C1_2 C2_2 1_555 1_555
C1A_2 C2A_2 1_555 1_555
C1B_2 C2B_2 1_555 1_555
C3A C4A 1_555 1_555
C3B C4B 1_555 1_555
C3_2 C4_2 1_555 1_555
C3A_2 C4A_2 1_555 1_555
C3B_2 C4B_2 1_555 1_555

#END
