
#######################################################################
#
#                 Cambridge Crystallographic Data Centre
#                                CCDC 
#
#######################################################################
#
# If this CIF has been generated from an entry in the Cambridge 
# Structural Database, then it will include bibliographic, chemical, 
# crystal, experimental, refinement or atomic coordinate data resulting 
# from the CCDC's data processing and validation procedures.
#
#######################################################################

data_FALQEQ
_chemical_formula_moiety         '(C36 H56 Cu3 La2 N6 O25)n'
_symmetry_cell_setting           trigonal
_symmetry_space_group_name_H-M   'P -3'
_symmetry_Int_Tables_number      147
_space_group_name_Hall           '-P 3'
loop_
_symmetry_equiv_pos_site_id
_symmetry_equiv_pos_as_xyz
1 x,y,z
2 -y,x-y,z
3 -x+y,-x,z
4 -x,-y,-z
5 y,-x+y,-z
6 x-y,x,-z
_cell_length_a                   13.6224(3)
_cell_length_b                   13.6224(3)
_cell_length_c                   7.4935(3)
_cell_angle_alpha                90
_cell_angle_beta                 90
_cell_angle_gamma                120
_cell_volume                     1204.27
loop_
_atom_site_label
_atom_site_type_symbol
_atom_site_fract_x
_atom_site_fract_y
_atom_site_fract_z
La1 La 0.6667 0.3333 1.65898(2)
Cu1 Cu 1.0000 0.5000 2.0000
O1 O 0.75848(14) 0.55783(15) 1.7581(3)
O2 O 0.82035(12) 0.45368(13) 1.8827(2)
O3 O 0.92318(13) 0.40795(14) 2.2114(2)
O4 O 0.82233(16) 0.40055(18) 2.4481(2)
N1 N 0.96406(14) 0.61369(15) 2.1059(2)
H1 H 1.0319 0.6769 2.1399
C1 C 0.82258(17) 0.54659(19) 1.8635(3)
C2 C 0.9107(2) 0.6498(2) 1.9679(4)
H2 H 0.8577 0.6606 2.0469
C3 C 0.8944(2) 0.5648(2) 2.2678(4)
H3 H 0.8169 0.5481 2.2316
C4 C 0.87964(18) 0.4498(2) 2.3129(3)
C5 C 0.9288(6) 0.6530(5) 2.4099(7)
H4 H 0.9345 0.7219 2.3586
H5 H 1.0025 0.6705 2.4589
H6 H 0.8720 0.6246 2.5053
C6 C 0.9565(9) 0.7412(7) 1.8974(17)
H7 H 1.0101 0.7980 1.9810
H8 H 0.8994 0.7612 1.8624
H9 H 0.9972 0.7389 1.7911
La1_2 La 0.6667 0.3333 0.65898(2)
La1_3 La 0.6667 0.3333 2.65898(2)
Cu1A Cu 0.5000 0.5000 2.0000
Cu1B Cu 0.5000 -0.0000 2.0000
Cu1_2 Cu 1.0000 0.5000 1.0000
Cu1A_2 Cu 0.5000 0.5000 1.0000
Cu1B_2 Cu 0.5000 -0.0000 1.0000
O1A O 0.44217(15) 0.20065(21) 1.7581(3)
O1B O 0.79935(21) 0.24152(14) 1.7581(3)
O1_2 O 0.75848(14) 0.55783(15) 0.7581(3)
O1A_2 O 0.44217(15) 0.20065(21) 0.7581(3)
O1B_2 O 0.79935(21) 0.24152(14) 0.7581(3)
O2A O 0.54632(13) 0.36667(18) 1.8827(2)
O2B O 0.63333(18) 0.17965(12) 1.8827(2)
O2_2 O 0.82035(12) 0.45368(13) 0.8827(2)
O2A_2 O 0.54632(13) 0.36667(18) 0.8827(2)
O2B_2 O 0.63333(18) 0.17965(12) 0.8827(2)
O2C O 1.17965(12) 0.54632(13) 2.1173(2)
O2D O 0.45368(13) 0.63333(18) 2.1173(2)
O2E O 0.36667(18) -0.17965(12) 2.1173(2)
O3A O 0.59205(14) 0.51523(19) 2.2114(2)
O3B O 0.48477(19) 0.07682(13) 2.2114(2)
O3_2 O 0.92318(13) 0.40795(14) 1.2114(2)
O3A_2 O 0.59205(14) 0.51523(19) 1.2114(2)
O3B_2 O 0.48477(19) 0.07682(13) 1.2114(2)
O3C O 1.07682(13) 0.59205(14) 1.7886(2)
O3D O 0.40795(14) 0.48477(19) 1.7886(2)
O3E O 0.51523(19) -0.07682(13) 1.7886(2)
O4A O 0.59945(18) 0.42178(24) 2.4481(2)
O4B O 0.57822(24) 0.17767(16) 2.4481(2)
O4_2 O 0.82233(16) 0.40055(18) 1.4481(2)
O4A_2 O 0.59945(18) 0.42178(24) 1.4481(2)
O4B_2 O 0.57822(24) 0.17767(16) 1.4481(2)
O4_3 O 0.82233(16) 0.40055(18) 0.4481(2)
O4A_3 O 0.59945(18) 0.42178(24) 0.4481(2)
O4B_3 O 0.57822(24) 0.17767(16) 0.4481(2)
N1A N 0.38631(15) 0.35037(21) 2.1059(2)
N1B N 0.64963(21) 0.03594(14) 2.1059(2)
N1_2 N 0.96406(14) 0.61369(15) 1.1059(2)
N1A_2 N 0.38631(15) 0.35037(21) 1.1059(2)
N1B_2 N 0.64963(21) 0.03594(14) 1.1059(2)
N1C N 1.03594(14) 0.38631(15) 1.8941(2)
N1D N 0.61369(15) 0.64963(21) 1.8941(2)
N1E N 0.35037(21) -0.03594(14) 1.8941(2)
H1A H 0.3231 0.3550 2.1399
H1B H 0.6450 -0.0319 2.1399
H1_2 H 1.0319 0.6769 1.1399
H1A_2 H 0.3231 0.3550 1.1399
H1B_2 H 0.6450 -0.0319 1.1399
H1C H 0.9681 0.3231 1.8601
H1D H 0.6769 0.6450 1.8601
H1E H 0.3550 0.0319 1.8601
C1A C 0.45341(19) 0.27599(25) 1.8635(3)
C1B C 0.72401(25) 0.17742(17) 1.8635(3)
C1_2 C 0.82258(17) 0.54659(19) 0.8635(3)
C1A_2 C 0.45341(19) 0.27599(25) 0.8635(3)
C1B_2 C 0.72401(25) 0.17742(17) 0.8635(3)
C2A C 0.3502(2) 0.2609(3) 1.9679(4)
C2B C 0.7391(3) 0.0893(2) 1.9679(4)
C2_2 C 0.9107(2) 0.6498(2) 0.9679(4)
C2A_2 C 0.3502(2) 0.2609(3) 0.9679(4)
C2B_2 C 0.7391(3) 0.0893(2) 0.9679(4)
H2A H 0.3394 0.1971 2.0469
H2B H 0.8029 0.1423 2.0469
H2_2 H 0.8577 0.6606 1.0469
H2A_2 H 0.3394 0.1971 1.0469
H2B_2 H 0.8029 0.1423 1.0469
C3A C 0.4352(2) 0.3296(3) 2.2678(4)
C3B C 0.6704(3) 0.1056(2) 2.2678(4)
C3_2 C 0.8944(2) 0.5648(2) 1.2678(4)
C3A_2 C 0.4352(2) 0.3296(3) 1.2678(4)
C3B_2 C 0.6704(3) 0.1056(2) 1.2678(4)
H3A H 0.4519 0.2688 2.2316
H3B H 0.7312 0.1831 2.2316
H3_2 H 0.8169 0.5481 1.2316
H3A_2 H 0.4519 0.2688 1.2316
H3B_2 H 0.7312 0.1831 1.2316
C4A C 0.5502(2) 0.42984(27) 2.3129(3)
C4B C 0.57016(27) 0.12036(18) 2.3129(3)
C4_2 C 0.87964(18) 0.4498(2) 1.3129(3)
C4A_2 C 0.5502(2) 0.42984(27) 1.3129(3)
C4B_2 C 0.57016(27) 0.12036(18) 1.3129(3)
C5A C 0.3470(5) 0.2758(8) 2.4099(7)
C5B C 0.7242(8) 0.0712(6) 2.4099(7)
C5_2 C 0.9288(6) 0.6530(5) 1.4099(7)
C5A_2 C 0.3470(5) 0.2758(8) 1.4099(7)
C5B_2 C 0.7242(8) 0.0712(6) 1.4099(7)
H4A H 0.2781 0.2126 2.3586
H4B H 0.7874 0.0655 2.3586
H4_2 H 0.9345 0.7219 1.3586
H4A_2 H 0.2781 0.2126 1.3586
H4B_2 H 0.7874 0.0655 1.3586
H5A H 0.3295 0.3320 2.4589
H5B H 0.6680 -0.0025 2.4589
H5_2 H 1.0025 0.6705 1.4589
H5A_2 H 0.3295 0.3320 1.4589
H5B_2 H 0.6680 -0.0025 1.4589
H6A H 0.3754 0.2474 2.5053
H6B H 0.7526 0.1280 2.5053
H6_2 H 0.8720 0.6246 1.5053
H6A_2 H 0.3754 0.2474 1.5053
H6B_2 H 0.7526 0.1280 1.5053
C6A C 0.2588(7) 0.2153(11) 1.8974(17)
C6B C 0.7847(11) 0.0435(9) 1.8974(17)
C6_2 C 0.9565(9) 0.7412(7) 0.8974(17)
C6A_2 C 0.2588(7) 0.2153(11) 0.8974(17)
C6B_2 C 0.7847(11) 0.0435(9) 0.8974(17)
H7A H 0.2020 0.2121 1.9810
H7B H 0.7879 -0.0101 1.9810
H7_2 H 1.0101 0.7980 0.9810
H7A_2 H 0.2020 0.2121 0.9810
H7B_2 H 0.7879 -0.0101 0.9810
H8A H 0.2388 0.1382 1.8624
H8B H 0.8618 0.1006 1.8624
H8_2 H 0.8994 0.7612 0.8624
H8A_2 H 0.2388 0.1382 0.8624
H8B_2 H 0.8618 0.1006 0.8624
H9A H 0.2611 0.2583 1.7911
H9B H 0.7417 0.0028 1.7911
H9_2 H 0.9972 0.7389 0.7911
H9A_2 H 0.2611 0.2583 0.7911
H9B_2 H 0.7417 0.0028 0.7911
O5 O 1.0844(11) 0.800(2) 1.511(3)
loop_
_geom_bond_atom_site_label_1
_geom_bond_atom_site_label_2
_geom_bond_site_symmetry_1
_geom_bond_site_symmetry_2
La1 O1 1_555 1_555
Cu1 O2 1_555 1_555
O1 C1 1_555 1_555
O2 La1 1_555 1_555
O3 Cu1 1_555 1_555
O4 C4 1_555 1_555
N1 Cu1 1_555 1_555
H1 N1 1_555 1_555
C1 O2 1_555 1_555
C2 N1 1_555 1_555
H2 C2 1_555 1_555
C3 N1 1_555 1_555
H3 C3 1_555 1_555
C4 O3 1_555 1_555
C5 C3 1_555 1_555
H4 C5 1_555 1_555
H5 C5 1_555 1_555
H6 C5 1_555 1_555
C6 C2 1_555 1_555
H7 C6 1_555 1_555
H8 C6 1_555 1_555
H9 C6 1_555 1_555
La1_2 O1_2 1_555 1_555
La1_3 O4 1_555 1_555
Cu1A O2A 1_555 1_555
Cu1B O2B 1_555 1_555
Cu1_2 O2_2 1_555 1_555
Cu1A_2 O2A_2 1_555 1_555
Cu1B_2 O2B_2 1_555 1_555
O1A La1 1_555 1_555
O1B La1 1_555 1_555
O1_2 C1_2 1_555 1_555
O1A_2 La1_2 1_555 1_555
O1B_2 La1_2 1_555 1_555
O2A La1 1_555 1_555
O2B La1 1_555 1_555
O2_2 La1_2 1_555 1_555
O2A_2 La1_2 1_555 1_555
O2B_2 La1_2 1_555 1_555
O2C Cu1 1_555 1_555
O2D Cu1A 1_555 1_555
O2E Cu1B 1_555 1_555
O3A Cu1A 1_555 1_555
O3B Cu1B 1_555 1_555
O3_2 Cu1_2 1_555 1_555
O3A_2 Cu1A_2 1_555 1_555
O3B_2 Cu1B_2 1_555 1_555
O3C Cu1 1_555 1_555
O3D Cu1A 1_555 1_555
O3E Cu1B 1_555 1_555
O4A La1_3 1_555 1_555
O4B La1_3 1_555 1_555
O4_2 La1 1_555 1_555
O4A_2 La1 1_555 1_555
O4B_2 La1 1_555 1_555
O4_3 La1_2 1_555 1_555
O4A_3 La1_2 1_555 1_555
O4B_3 La1_2 1_555 1_555
N1A Cu1A 1_555 1_555
N1B Cu1B 1_555 1_555
N1_2 Cu1_2 1_555 1_555
N1A_2 Cu1A_2 1_555 1_555
N1B_2 Cu1B_2 1_555 1_555
N1C Cu1 1_555 1_555
N1D Cu1A 1_555 1_555
N1E Cu1B 1_555 1_555
H1A N1A 1_555 1_555
H1B N1B 1_555 1_555
H1_2 N1_2 1_555 1_555
H1A_2 N1A_2 1_555 1_555
H1B_2 N1B_2 1_555 1_555
H1C N1C 1_555 1_555
H1D N1D 1_555 1_555
H1E N1E 1_555 1_555
C1A O1A 1_555 1_555
C1B O1B 1_555 1_555
C1_2 O2_2 1_555 1_555
C1A_2 O1A_2 1_555 1_555
C1B_2 O1B_2 1_555 1_555
C2A N1A 1_555 1_555
C2B N1B 1_555 1_555
C2_2 N1_2 1_555 1_555
C2A_2 N1A_2 1_555 1_555
C2B_2 N1B_2 1_555 1_555
H2A C2A 1_555 1_555
H2B C2B 1_555 1_555
H2_2 C2_2 1_555 1_555
H2A_2 C2A_2 1_555 1_555
H2B_2 C2B_2 1_555 1_555
C3A N1A 1_555 1_555
C3B N1B 1_555 1_555
C3_2 N1_2 1_555 1_555
C3A_2 N1A_2 1_555 1_555
C3B_2 N1B_2 1_555 1_555
H3A C3A 1_555 1_555
H3B C3B 1_555 1_555
H3_2 C3_2 1_555 1_555
H3A_2 C3A_2 1_555 1_555
H3B_2 C3B_2 1_555 1_555
C4A O3A 1_555 1_555
C4B O3B 1_555 1_555
C4_2 O3_2 1_555 1_555
C4A_2 O3A_2 1_555 1_555
C4B_2 O3B_2 1_555 1_555
C5A C3A 1_555 1_555
C5B C3B 1_555 1_555
C5_2 C3_2 1_555 1_555
C5A_2 C3A_2 1_555 1_555
C5B_2 C3B_2 1_555 1_555
H4A C5A 1_555 1_555
H4B C5B 1_555 1_555
H4_2 C5_2 1_555 1_555
H4A_2 C5A_2 1_555 1_555
H4B_2 C5B_2 1_555 1_555
H5A C5A 1_555 1_555
H5B C5B 1_555 1_555
H5_2 C5_2 1_555 1_555
H5A_2 C5A_2 1_555 1_555
H5B_2 C5B_2 1_555 1_555
H6A C5A 1_555 1_555
H6B C5B 1_555 1_555
H6_2 C5_2 1_555 1_555
H6A_2 C5A_2 1_555 1_555
H6B_2 C5B_2 1_555 1_555
C6A C2A 1_555 1_555
C6B C2B 1_555 1_555
C6_2 C2_2 1_555 1_555
C6A_2 C2A_2 1_555 1_555
C6B_2 C2B_2 1_555 1_555
H7A C6A 1_555 1_555
H7B C6B 1_555 1_555
H7_2 C6_2 1_555 1_555
H7A_2 C6A_2 1_555 1_555
H7B_2 C6B_2 1_555 1_555
H8A C6A 1_555 1_555
H8B C6B 1_555 1_555
H8_2 C6_2 1_555 1_555
H8A_2 C6A_2 1_555 1_555
H8B_2 C6B_2 1_555 1_555
H9A C6A 1_555 1_555
H9B C6B 1_555 1_555
H9_2 C6_2 1_555 1_555
H9A_2 C6A_2 1_555 1_555
H9B_2 C6B_2 1_555 1_555
C1 C2 1_555 1_555
C3 C4 1_555 1_555
O2A C1A 1_555 1_555
O2B C1B 1_555 1_555
O2A_2 C1A_2 1_555 1_555
O2B_2 C1B_2 1_555 1_555
O4A C4A 1_555 1_555
O4B C4B 1_555 1_555
O4_2 C4_2 1_555 1_555
O4A_2 C4A_2 1_555 1_555
O4B_2 C4B_2 1_555 1_555
C1A C2A 1_555 1_555
C1B C2B 1_555 1_555
C1_2 C2_2 1_555 1_555
C1A_2 C2A_2 1_555 1_555
C1B_2 C2B_2 1_555 1_555
C3A C4A 1_555 1_555
C3B C4B 1_555 1_555
C3_2 C4_2 1_555 1_555
C3A_2 C4A_2 1_555 1_555
C3B_2 C4B_2 1_555 1_555

#END
