
#######################################################################
#
#                 Cambridge Crystallographic Data Centre
#                                CCDC 
#
#######################################################################
#
# If this CIF has been generated from an entry in the Cambridge 
# Structural Database, then it will include bibliographic, chemical, 
# crystal, experimental, refinement or atomic coordinate data resulting 
# from the CCDC's data processing and validation procedures.
#
#######################################################################

data_FALQOA
_chemical_formula_moiety         '(C36 H56 Cu3 N6 Nd2 O25)n'
_symmetry_cell_setting           trigonal
_symmetry_space_group_name_H-M   'P -3'
_symmetry_Int_Tables_number      147
_space_group_name_Hall           '-P 3'
loop_
_symmetry_equiv_pos_site_id
_symmetry_equiv_pos_as_xyz
1 x,y,z
2 -y,x-y,z
3 -x+y,-x,z
4 -x,-y,-z
5 y,-x+y,-z
6 x-y,x,-z
_cell_length_a                   13.6319(19)
_cell_length_b                   13.6319(19)
_cell_length_c                   7.3817(15)
_cell_angle_alpha                90
_cell_angle_beta                 90
_cell_angle_gamma                120
_cell_volume                     1187.95
loop_
_atom_site_label
_atom_site_type_symbol
_atom_site_fract_x
_atom_site_fract_y
_atom_site_fract_z
Nd1 Nd 0.6667 0.3333 0.66008(2)
Cu1 Cu 0.5000 0.0000 1.0000
O1 O 0.80034(19) 0.24473(19) 0.7572(3)
O2 O 0.63414(15) 0.18181(15) 0.8789(3)
O3 O 0.48572(16) 0.07865(17) 1.2127(3)
O4 O 0.5804(2) 0.1811(2) 1.4504(3)
N1 N 0.64974(17) 0.03706(16) 1.1060(3)
H1 H 0.6457 -0.0291 1.1398
C1 C 0.7243(2) 0.1795(2) 0.8617(4)
C2 C 0.7383(2) 0.0902(3) 0.9647(5)
H2 H 0.7956 0.1448 1.0479
C3 C 0.6706(3) 0.1066(3) 1.2700(5)
H3 H 0.7305 0.1822 1.2334
C4 C 0.5715(2) 0.1230(2) 1.3157(3)
C5 C 0.7247(6) 0.0724(6) 1.4105(8)
H4 H 0.7856 0.0661 1.3576
H5 H 0.6697 0.0006 1.4603
H6 H 0.7538 0.1283 1.5049
C6 C 0.7946(9) 0.0531(9) 0.916(2)
H7 H 0.7903 -0.0015 1.0026
H8 H 0.8717 0.1132 0.9054
H9 H 0.7682 0.0172 0.8005
Nd1_2 Nd 0.6667 0.3333 -0.33992(2)
Nd1_3 Nd 0.6667 0.3333 1.66008(2)
Cu1A Cu 1.0000 0.5000 1.0000
Cu1B Cu 0.5000 0.5000 1.0000
Cu1_2 Cu 0.5000 0.0000 0.0000
Cu1A_2 Cu 1.0000 0.5000 0.0000
Cu1B_2 Cu 0.5000 0.5000 0.0000
O1A O 0.75527(19) 0.55561(27) 0.7572(3)
O1B O 0.44439(27) 0.19966(19) 0.7572(3)
O1_2 O 0.80034(19) 0.24473(19) -0.2428(3)
O1A_2 O 0.75527(19) 0.55561(27) -0.2428(3)
O1B_2 O 0.44439(27) 0.19966(19) -0.2428(3)
O2A O 0.81819(15) 0.45233(21) 0.8789(3)
O2B O 0.54767(21) 0.36586(15) 0.8789(3)
O2_2 O 0.63414(15) 0.18181(15) -0.1211(3)
O2A_2 O 0.81819(15) 0.45233(21) -0.1211(3)
O2B_2 O 0.54767(21) 0.36586(15) -0.1211(3)
O2C O 0.36586(15) -0.18181(15) 1.1211(3)
O2D O 1.18181(15) 0.54767(21) 1.1211(3)
O2E O 0.45233(21) 0.63414(15) 1.1211(3)
O3A O 0.92135(17) 0.40707(23) 1.2127(3)
O3B O 0.59293(23) 0.51428(16) 1.2127(3)
O3_2 O 0.48572(16) 0.07865(17) 0.2127(3)
O3A_2 O 0.92135(17) 0.40707(23) 0.2127(3)
O3B_2 O 0.59293(23) 0.51428(16) 0.2127(3)
O3C O 0.51428(16) -0.07865(17) 0.7873(3)
O3D O 1.07865(17) 0.59293(23) 0.7873(3)
O3E O 0.40707(23) 0.48572(16) 0.7873(3)
O4A O 0.8189(2) 0.3993(3) 1.4504(3)
O4B O 0.6007(3) 0.4196(2) 1.4504(3)
O4_2 O 0.5804(2) 0.1811(2) 0.4504(3)
O4A_2 O 0.8189(2) 0.3993(3) 0.4504(3)
O4B_2 O 0.6007(3) 0.4196(2) 0.4504(3)
O4_3 O 0.5804(2) 0.1811(2) -0.5496(3)
O4A_3 O 0.8189(2) 0.3993(3) -0.5496(3)
O4B_3 O 0.6007(3) 0.4196(2) -0.5496(3)
N1A N 0.96294(16) 0.61268(23) 1.1060(3)
N1B N 0.38732(23) 0.35026(17) 1.1060(3)
N1_2 N 0.64974(17) 0.03706(16) 0.1060(3)
N1A_2 N 0.96294(16) 0.61268(23) 0.1060(3)
N1B_2 N 0.38732(23) 0.35026(17) 0.1060(3)
N1C N 0.35026(17) -0.03706(16) 0.8940(3)
N1D N 1.03706(16) 0.38732(23) 0.8940(3)
N1E N 0.61268(23) 0.64974(17) 0.8940(3)
H1A H 1.0291 0.6748 1.1398
H1B H 0.3252 0.3543 1.1398
H1_2 H 0.6457 -0.0291 0.1398
H1A_2 H 1.0291 0.6748 0.1398
H1B_2 H 0.3252 0.3543 0.1398
H1C H 0.3543 0.0291 0.8602
H1D H 0.9709 0.3252 0.8602
H1E H 0.6748 0.6457 0.8602
C1A C 0.8205(2) 0.5448(3) 0.8617(4)
C1B C 0.4552(3) 0.2757(2) 0.8617(4)
C1_2 C 0.7243(2) 0.1795(2) -0.1383(4)
C1A_2 C 0.8205(2) 0.5448(3) -0.1383(4)
C1B_2 C 0.4552(3) 0.2757(2) -0.1383(4)
C2A C 0.9098(3) 0.6481(4) 0.9647(5)
C2B C 0.3519(4) 0.2617(2) 0.9647(5)
C2_2 C 0.7383(2) 0.0902(3) -0.0353(5)
C2A_2 C 0.9098(3) 0.6481(4) -0.0353(5)
C2B_2 C 0.3519(4) 0.2617(2) -0.0353(5)
H2A H 0.8552 0.6508 1.0479
H2B H 0.3492 0.2044 1.0479
H2_2 H 0.7956 0.1448 0.0479
H2A_2 H 0.8552 0.6508 0.0479
H2B_2 H 0.3492 0.2044 0.0479
C3A C 0.8934(3) 0.5640(4) 1.2700(5)
C3B C 0.4360(4) 0.3294(3) 1.2700(5)
C3_2 C 0.6706(3) 0.1066(3) 0.2700(5)
C3A_2 C 0.8934(3) 0.5640(4) 0.2700(5)
C3B_2 C 0.4360(4) 0.3294(3) 0.2700(5)
H3A H 0.8178 0.5483 1.2334
H3B H 0.4517 0.2695 1.2334
H3_2 H 0.7305 0.1822 0.2334
H3A_2 H 0.8178 0.5483 0.2334
H3B_2 H 0.4517 0.2695 0.2334
C4A C 0.8770(2) 0.4485(3) 1.3157(3)
C4B C 0.5515(3) 0.4285(2) 1.3157(3)
C4_2 C 0.5715(2) 0.1230(2) 0.3157(3)
C4A_2 C 0.8770(2) 0.4485(3) 0.3157(3)
C4B_2 C 0.5515(3) 0.4285(2) 0.3157(3)
C5A C 0.9276(6) 0.6523(8) 1.4105(8)
C5B C 0.3477(8) 0.2753(6) 1.4105(8)
C5_2 C 0.7247(6) 0.0724(6) 0.4105(8)
C5A_2 C 0.9276(6) 0.6523(8) 0.4105(8)
C5B_2 C 0.3477(8) 0.2753(6) 0.4105(8)
H4A H 0.9339 0.7195 1.3576
H4B H 0.2805 0.2144 1.3576
H4_2 H 0.7856 0.0661 0.3576
H4A_2 H 0.9339 0.7195 0.3576
H4B_2 H 0.2805 0.2144 0.3576
H5A H 0.9994 0.6691 1.4603
H5B H 0.3309 0.3303 1.4603
H5_2 H 0.6697 0.0006 0.4603
H5A_2 H 0.9994 0.6691 0.4603
H5B_2 H 0.3309 0.3303 0.4603
H6A H 0.8717 0.6255 1.5049
H6B H 0.3745 0.2462 1.5049
H6_2 H 0.7538 0.1283 0.5049
H6A_2 H 0.8717 0.6255 0.5049
H6B_2 H 0.3745 0.2462 0.5049
C6A C 0.9469(9) 0.7415(13) 0.916(2)
C6B C 0.2585(13) 0.2054(9) 0.916(2)
C6_2 C 0.7946(9) 0.0531(9) -0.084(2)
C6A_2 C 0.9469(9) 0.7415(13) -0.084(2)
C6B_2 C 0.2585(13) 0.2054(9) -0.084(2)
H7A H 1.0015 0.7918 1.0026
H7B H 0.2082 0.2097 1.0026
H7_2 H 0.7903 -0.0015 0.0026
H7A_2 H 1.0015 0.7918 0.0026
H7B_2 H 0.2082 0.2097 0.0026
H8A H 0.8868 0.7585 0.9054
H8B H 0.2415 0.1283 0.9054
H8_2 H 0.8717 0.1132 -0.0946
H8A_2 H 0.8868 0.7585 -0.0946
H8B_2 H 0.2415 0.1283 -0.0946
H9A H 0.9828 0.7510 0.8005
H9B H 0.2490 0.2318 0.8005
H9_2 H 0.7682 0.0172 -0.1995
H9A_2 H 0.9828 0.7510 -0.1995
H9B_2 H 0.2490 0.2318 -0.1995
O5 O 0.710(4) -0.094(3) 1.539(5)
loop_
_geom_bond_atom_site_label_1
_geom_bond_atom_site_label_2
_geom_bond_site_symmetry_1
_geom_bond_site_symmetry_2
Nd1 O1 1_555 1_555
Cu1 O2 1_555 1_555
O1 C1 1_555 1_555
O2 Nd1 1_555 1_555
O3 Cu1 1_555 1_555
O4 C4 1_555 1_555
N1 Cu1 1_555 1_555
H1 N1 1_555 1_555
C1 O2 1_555 1_555
C2 N1 1_555 1_555
H2 C2 1_555 1_555
C3 N1 1_555 1_555
H3 C3 1_555 1_555
C4 O3 1_555 1_555
C5 C3 1_555 1_555
H4 C5 1_555 1_555
H5 C5 1_555 1_555
H6 C5 1_555 1_555
C6 C2 1_555 1_555
H7 C6 1_555 1_555
H8 C6 1_555 1_555
H9 C6 1_555 1_555
Nd1_2 O1_2 1_555 1_555
Nd1_3 O4 1_555 1_555
Cu1A O2A 1_555 1_555
Cu1B O2B 1_555 1_555
Cu1_2 O2_2 1_555 1_555
Cu1A_2 O2A_2 1_555 1_555
Cu1B_2 O2B_2 1_555 1_555
O1A Nd1 1_555 1_555
O1B Nd1 1_555 1_555
O1_2 C1_2 1_555 1_555
O1A_2 Nd1_2 1_555 1_555
O1B_2 Nd1_2 1_555 1_555
O2A Nd1 1_555 1_555
O2B Nd1 1_555 1_555
O2_2 Nd1_2 1_555 1_555
O2A_2 Nd1_2 1_555 1_555
O2B_2 Nd1_2 1_555 1_555
O2C Cu1 1_555 1_555
O2D Cu1A 1_555 1_555
O2E Cu1B 1_555 1_555
O3A Cu1A 1_555 1_555
O3B Cu1B 1_555 1_555
O3_2 Cu1_2 1_555 1_555
O3A_2 Cu1A_2 1_555 1_555
O3B_2 Cu1B_2 1_555 1_555
O3C Cu1 1_555 1_555
O3D Cu1A 1_555 1_555
O3E Cu1B 1_555 1_555
O4A Nd1_3 1_555 1_555
O4B Nd1_3 1_555 1_555
O4_2 Nd1 1_555 1_555
O4A_2 Nd1 1_555 1_555
O4B_2 Nd1 1_555 1_555
O4_3 Nd1_2 1_555 1_555
O4A_3 Nd1_2 1_555 1_555
O4B_3 Nd1_2 1_555 1_555
N1A Cu1A 1_555 1_555
N1B Cu1B 1_555 1_555
N1_2 Cu1_2 1_555 1_555
N1A_2 Cu1A_2 1_555 1_555
N1B_2 Cu1B_2 1_555 1_555
N1C Cu1 1_555 1_555
N1D Cu1A 1_555 1_555
N1E Cu1B 1_555 1_555
H1A N1A 1_555 1_555
H1B N1B 1_555 1_555
H1_2 N1_2 1_555 1_555
H1A_2 N1A_2 1_555 1_555
H1B_2 N1B_2 1_555 1_555
H1C N1C 1_555 1_555
H1D N1D 1_555 1_555
H1E N1E 1_555 1_555
C1A O1A 1_555 1_555
C1B O1B 1_555 1_555
C1_2 O2_2 1_555 1_555
C1A_2 O1A_2 1_555 1_555
C1B_2 O1B_2 1_555 1_555
C2A N1A 1_555 1_555
C2B N1B 1_555 1_555
C2_2 N1_2 1_555 1_555
C2A_2 N1A_2 1_555 1_555
C2B_2 N1B_2 1_555 1_555
H2A C2A 1_555 1_555
H2B C2B 1_555 1_555
H2_2 C2_2 1_555 1_555
H2A_2 C2A_2 1_555 1_555
H2B_2 C2B_2 1_555 1_555
C3A N1A 1_555 1_555
C3B N1B 1_555 1_555
C3_2 N1_2 1_555 1_555
C3A_2 N1A_2 1_555 1_555
C3B_2 N1B_2 1_555 1_555
H3A C3A 1_555 1_555
H3B C3B 1_555 1_555
H3_2 C3_2 1_555 1_555
H3A_2 C3A_2 1_555 1_555
H3B_2 C3B_2 1_555 1_555
C4A O3A 1_555 1_555
C4B O3B 1_555 1_555
C4_2 O3_2 1_555 1_555
C4A_2 O3A_2 1_555 1_555
C4B_2 O3B_2 1_555 1_555
C5A C3A 1_555 1_555
C5B C3B 1_555 1_555
C5_2 C3_2 1_555 1_555
C5A_2 C3A_2 1_555 1_555
C5B_2 C3B_2 1_555 1_555
H4A C5A 1_555 1_555
H4B C5B 1_555 1_555
H4_2 C5_2 1_555 1_555
H4A_2 C5A_2 1_555 1_555
H4B_2 C5B_2 1_555 1_555
H5A C5A 1_555 1_555
H5B C5B 1_555 1_555
H5_2 C5_2 1_555 1_555
H5A_2 C5A_2 1_555 1_555
H5B_2 C5B_2 1_555 1_555
H6A C5A 1_555 1_555
H6B C5B 1_555 1_555
H6_2 C5_2 1_555 1_555
H6A_2 C5A_2 1_555 1_555
H6B_2 C5B_2 1_555 1_555
C6A C2A 1_555 1_555
C6B C2B 1_555 1_555
C6_2 C2_2 1_555 1_555
C6A_2 C2A_2 1_555 1_555
C6B_2 C2B_2 1_555 1_555
H7A C6A 1_555 1_555
H7B C6B 1_555 1_555
H7_2 C6_2 1_555 1_555
H7A_2 C6A_2 1_555 1_555
H7B_2 C6B_2 1_555 1_555
H8A C6A 1_555 1_555
H8B C6B 1_555 1_555
H8_2 C6_2 1_555 1_555
H8A_2 C6A_2 1_555 1_555
H8B_2 C6B_2 1_555 1_555
H9A C6A 1_555 1_555
H9B C6B 1_555 1_555
H9_2 C6_2 1_555 1_555
H9A_2 C6A_2 1_555 1_555
H9B_2 C6B_2 1_555 1_555
C1 C2 1_555 1_555
C3 C4 1_555 1_555
O2A C1A 1_555 1_555
O2B C1B 1_555 1_555
O2A_2 C1A_2 1_555 1_555
O2B_2 C1B_2 1_555 1_555
O4A C4A 1_555 1_555
O4B C4B 1_555 1_555
O4_2 C4_2 1_555 1_555
O4A_2 C4A_2 1_555 1_555
O4B_2 C4B_2 1_555 1_555
C1A C2A 1_555 1_555
C1B C2B 1_555 1_555
C1_2 C2_2 1_555 1_555
C1A_2 C2A_2 1_555 1_555
C1B_2 C2B_2 1_555 1_555
C3A C4A 1_555 1_555
C3B C4B 1_555 1_555
C3_2 C4_2 1_555 1_555
C3A_2 C4A_2 1_555 1_555
C3B_2 C4B_2 1_555 1_555

#END
