
#######################################################################
#
#                 Cambridge Crystallographic Data Centre
#                                CCDC 
#
#######################################################################
#
# If this CIF has been generated from an entry in the Cambridge 
# Structural Database, then it will include bibliographic, chemical, 
# crystal, experimental, refinement or atomic coordinate data resulting 
# from the CCDC's data processing and validation procedures.
#
#######################################################################

data_UJEDIX
_chemical_formula_moiety         '(C18 H52 Co3 N6 O23 S6 Yb1)n'
_symmetry_cell_setting           trigonal
_symmetry_space_group_name_H-M   'P 31 2 1'
_symmetry_Int_Tables_number      152
_space_group_name_Hall           'P 31 2"'
loop_
_symmetry_equiv_pos_site_id
_symmetry_equiv_pos_as_xyz
1 x,y,z
2 -y,x-y,1/3+z
3 -x+y,-x,2/3+z
4 y,x,-z
5 x-y,-y,2/3-z
6 -x,-x+y,1/3-z
_cell_length_a                   13.5451(7)
_cell_length_b                   13.5451(7)
_cell_length_c                   23.0394(14)
_cell_angle_alpha                90
_cell_angle_beta                 90
_cell_angle_gamma                120
_cell_volume                     3660.72
loop_
_atom_site_label
_atom_site_type_symbol
_atom_site_fract_x
_atom_site_fract_y
_atom_site_fract_z
Co1 Co 0.76815(7) 0.66889(7) 0.20696(3)
Co2 Co 1.0000 0.79653(8) 0.1667
Yb1 Yb 0.39742(2) 0.39742(2) 0.0000
S1 S 0.85576(13) 0.83595(13) 0.15858(6)
S2 S 0.93046(12) 0.74645(13) 0.25793(6)
S3 S 0.86012(12) 0.62052(13) 0.14312(6)
N1 N 0.6334(4) 0.6234(4) 0.1559(2)
H1 H 0.6174 0.5573 0.1369
H2 H 0.5717 0.6073 0.1789
N2 N 0.7037(4) 0.7231(4) 0.2675(2)
H3 H 0.6832 0.7718 0.2507
H4 H 0.6383 0.6616 0.2816
N3 N 0.7075(5) 0.5127(4) 0.2434(2)
H5 H 0.7385 0.5207 0.2798
H6 H 0.6296 0.4785 0.2474
O1 O 0.5165(4) 0.5454(3) 0.05902(18)
O2 O 0.5641(4) 0.7148(4) 0.02085(18)
O3 O 0.6774(4) 0.8807(4) 0.32117(18)
O4 O 0.7883(4) 0.8988(4) 0.39692(19)
O5 O 0.6769(5) 0.2403(4) 0.2117(2)
O6 O 0.7582(5) 0.3472(4) 0.2904(2)
C1 C 0.7709(5) 0.7799(5) 0.0923(2)
H7 H 0.7811 0.8431 0.0667
H8 H 0.7942 0.7316 0.0708
C2 C 0.6464(5) 0.7093(5) 0.1120(3)
H9 H 0.6238 0.7620 0.1303
C3 C 0.5677(5) 0.6514(5) 0.0592(3)
C4 C 0.9028(5) 0.8483(5) 0.2960(3)
H10 H 0.9557 0.8823 0.3291
H11 H 0.9133 0.9103 0.2694
C5 C 0.7805(5) 0.7828(5) 0.3172(2)
H12 H 0.7740 0.7240 0.3456
C6 C 0.7467(5) 0.8609(5) 0.3480(2)
C7 C 0.8570(6) 0.5075(5) 0.1861(3)
H13 H 0.8774 0.4596 0.1622
H14 H 0.9109 0.5391 0.2190
C8 C 0.7353(6) 0.4388(5) 0.2076(3)
H15 H 0.6838 0.4130 0.1731
C9 C 0.7202(5) 0.3320(5) 0.2396(3)
O7 O 0.3213(3) 0.3690(4) 0.09463(17)
O8 O 0.5451(4) 0.3655(4) 0.02959(18)
Co1E Co 1.23185(7) 0.90074(10) 0.12637(3)
Yb1A Yb 0.60258(2) 1.00000(3) 0.3333
Yb1A_2 Yb 1.60258(2) 1.00000(3) 0.3333
Yb1_2 Yb 1.39742(2) 1.39742(2) 0.0000
S1E S 1.14424(13) 0.98019(18) 0.17475(6)
S2E S 1.06954(12) 0.81599(18) 0.07540(6)
S3E S 1.13988(12) 0.76040(18) 0.19021(6)
N1E N 1.3666(4) 0.9900(6) 0.1774(2)
H1E H 1.3826 0.9399 0.1964
H2E H 1.4283 1.0356 0.1544
N2E N 1.2963(4) 1.0194(6) 0.0658(2)
H3E H 1.3168 1.0886 0.0826
H4E H 1.3617 1.0233 0.0517
N3E N 1.2925(5) 0.8052(6) 0.0899(2)
H5E H 1.2615 0.7822 0.0535
H6E H 1.3704 0.8489 0.0859
O1E O 1.4835(4) 1.0289(5) 0.27431(18)
O1C O 0.5454(3) 0.5165(4) -0.05902(18)
O2E O 1.4359(4) 1.1507(6) 0.31248(18)
O3E O 1.3226(4) 1.2033(6) 0.01216(18)
O3B O 0.2033(6) 0.3226(4) -0.01216(18)
O3E_2 O 0.3226(4) 0.2033(6) 0.01216(18)
O4E O 1.2117(4) 1.1105(6) -0.06359(19)
O5E O 1.3231(5) 0.5634(6) 0.1216(2)
O6E O 1.2418(5) 0.5890(6) 0.0429(2)
C1E C 1.2291(5) 1.0090(7) 0.2410(2)
H7E H 1.2189 1.0620 0.2666
H8E H 1.2058 0.9374 0.2625
C2E C 1.3536(5) 1.0629(7) 0.2213(3)
H9E H 1.3762 1.1382 0.2030
C3E C 1.4323(5) 1.0837(7) 0.2741(3)
C4E C 1.0972(5) 0.9455(7) 0.0373(3)
H10E H 1.0443 0.9266 0.0042
H11E H 1.0867 0.9970 0.0639
C5E C 1.2195(5) 1.0023(7) 0.0161(2)
H12E H 1.2260 0.9500 -0.0123
C6E C 1.2533(5) 1.1142(7) -0.0147(2)
C7E C 1.1430(6) 0.6505(8) 0.1472(3)
H13E H 1.1226 0.5822 0.1711
H14E H 1.0891 0.6282 0.1143
C8E C 1.2647(6) 0.7035(8) 0.1257(3)
H15E H 1.3162 0.7292 0.1602
C9E C 1.2798(5) 0.6118(7) 0.0937(3)
O7C O 0.3690(4) 0.3213(3) -0.09463(17)
O8C O 0.3655(4) 0.5451(4) -0.02959(18)
O9 O 0.5561(4) 0.1911(4) 0.1096(2)
O10 O 0.9873(5) 0.4570(5) 0.3205(2)
O11 O 0.7308(7) 0.1762(7) 0.0422(3)
O12 O 0.4766(5) 0.3578(5) 0.1731(3)
O13 O 0.4138(7) 0.3375(6) 0.2895(3)
O14 O 0.9117(7) 0.3295(7) 0.1064(3)
O15 O 1.0000 0.2110(9) 0.1667
loop_
_geom_bond_atom_site_label_1
_geom_bond_atom_site_label_2
_geom_bond_site_symmetry_1
_geom_bond_site_symmetry_2
Co1 S1 1_555 1_555
Co2 S1 1_555 1_555
Yb1 O1 1_555 1_555
S1 C1 1_555 1_555
S2 Co1 1_555 1_555
S3 Co1 1_555 1_555
N1 Co1 1_555 1_555
H1 N1 1_555 1_555
H2 N1 1_555 1_555
N2 Co1 1_555 1_555
H3 N2 1_555 1_555
H4 N2 1_555 1_555
N3 Co1 1_555 1_555
H5 N3 1_555 1_555
H6 N3 1_555 1_555
O1 C3 1_555 1_555
O2 C3 1_555 1_555
O3 C6 1_555 1_555
O4 C6 1_555 1_555
O5 C9 1_555 1_555
O6 C9 1_555 1_555
C1 H7 1_555 1_555
H8 C1 1_555 1_555
C2 N1 1_555 1_555
H9 C2 1_555 1_555
C3 C2 1_555 1_555
C4 S2 1_555 1_555
H10 C4 1_555 1_555
H11 C4 1_555 1_555
C5 N2 1_555 1_555
H12 C5 1_555 1_555
C6 C5 1_555 1_555
C7 S3 1_555 1_555
H13 C7 1_555 1_555
H14 C7 1_555 1_555
C8 N3 1_555 1_555
H15 C8 1_555 1_555
C9 C8 1_555 1_555
O7 Yb1 1_555 1_555
O8 Yb1 1_555 1_555
Co1E S1E 1_555 1_555
Yb1A O3 1_555 1_555
Yb1A_2 O1E 1_555 1_555
Yb1_2 O3E 1_555 1_555
S1E Co2 1_555 1_555
S2E Co2 1_555 1_555
S3E Co2 1_555 1_555
N1E Co1E 1_555 1_555
H1E N1E 1_555 1_555
H2E N1E 1_555 1_555
N2E Co1E 1_555 1_555
H3E N2E 1_555 1_555
H4E N2E 1_555 1_555
N3E Co1E 1_555 1_555
H5E N3E 1_555 1_555
H6E N3E 1_555 1_555
O1E C3E 1_555 1_555
O1C Yb1 1_555 1_555
O2E C3E 1_555 1_555
O3E C6E 1_555 1_555
O3B Yb1 1_555 1_555
O3E_2 Yb1 1_555 1_555
O4E C6E 1_555 1_555
O5E C9E 1_555 1_555
O6E C9E 1_555 1_555
C1E S1E 1_555 1_555
H7E C1E 1_555 1_555
H8E C1E 1_555 1_555
C2E N1E 1_555 1_555
H9E C2E 1_555 1_555
C3E C2E 1_555 1_555
C4E S2E 1_555 1_555
H10E C4E 1_555 1_555
H11E C4E 1_555 1_555
C5E N2E 1_555 1_555
H12E C5E 1_555 1_555
C6E C5E 1_555 1_555
C7E S3E 1_555 1_555
H13E C7E 1_555 1_555
H14E C7E 1_555 1_555
C8E N3E 1_555 1_555
H15E C8E 1_555 1_555
C9E C8E 1_555 1_555
O7C Yb1 1_555 1_555
O8C Yb1 1_555 1_555
Co2 S2 1_555 1_555
Co2 S3 1_555 1_555
C1 C2 1_555 1_555
C4 C5 1_555 1_555
C7 C8 1_555 1_555
Co1E S2E 1_555 1_555
Co1E S3E 1_555 1_555
C1E C2E 1_555 1_555
C4E C5E 1_555 1_555
C7E C8E 1_555 1_555

#END
