
#######################################################################
#
#                 Cambridge Crystallographic Data Centre
#                                CCDC 
#
#######################################################################
#
# If this CIF has been generated from an entry in the Cambridge 
# Structural Database, then it will include bibliographic, chemical, 
# crystal, experimental, refinement or atomic coordinate data resulting 
# from the CCDC's data processing and validation procedures.
#
#######################################################################

data_YOCSEQ
_chemical_formula_moiety         '(C12 H14 Gd2 O18)n'
_symmetry_cell_setting           triclinic
_symmetry_space_group_name_H-M   'P -1'
_symmetry_Int_Tables_number      2
_space_group_name_Hall           '-P 1'
loop_
_symmetry_equiv_pos_site_id
_symmetry_equiv_pos_as_xyz
1 x,y,z
2 -x,-y,-z
_cell_length_a                   6.0867(15)
_cell_length_b                   9.483(2)
_cell_length_c                   10.096(3)
_cell_angle_alpha                88.612(3)
_cell_angle_beta                 74.385(3)
_cell_angle_gamma                77.132(2)
_cell_volume                     546.744
loop_
_atom_site_label
_atom_site_type_symbol
_atom_site_fract_x
_atom_site_fract_y
_atom_site_fract_z
O1 O 0.9954(19) 0.8941(13) -0.1392(11)
Gd1 Gd 0.65480(11) 1.05825(7) 0.29701(7)
O2 O 0.9371(18) 0.8301(10) 0.3067(11)
O3 O 0.6635(17) 0.8763(11) 0.5021(11)
O4 O 1.1348(17) 0.8524(10) 0.5579(11)
O5 O 1.3266(18) 0.6885(11) 0.6689(11)
O6 O 0.7472(18) 0.9379(11) 0.0738(10)
O7 O 0.3982(19) 0.9040(12) 0.2898(11)
H1 H 0.2670 0.8837 0.2954
H2 H 0.3784 0.9686 0.3514
O8 O 0.392(2) 1.2030(12) 0.1807(13)
H3 H 0.4642 1.2302 0.1035
H4 H 0.2755 1.1737 0.1701
C1 C 0.838(2) 0.5341(14) 0.4243(15)
H5 H 0.7285 0.5585 0.3738
C2 C 0.927(2) 0.6412(15) 0.4661(15)
C3 C 0.839(2) 0.7936(14) 0.4225(13)
C4 C 1.093(2) 0.6086(15) 0.5447(16)
C5 C 1.192(2) 0.7217(15) 0.5922(17)
C6 C 0.927(2) 0.9526(17) -0.0166(16)
O1A O 1.0046(19) 1.1059(13) 0.1392(11)
O6A O 1.2528(18) 1.0621(11) -0.0738(10)
C6A C 1.073(2) 1.0474(17) 0.0166(16)
O2A O 1.0629(18) 0.1699(10) 0.6933(11)
O3A O 1.3365(17) 0.1237(11) 0.4979(11)
O4A O 0.8652(17) 0.1476(10) 0.4421(11)
O5A O 0.6734(18) 0.3115(11) 0.3311(11)
C1A C 1.162(2) 0.4659(14) 0.5757(15)
H5A H 1.2715 0.4415 0.6262
C2A C 1.073(2) 0.3588(15) 0.5339(15)
C3A C 1.161(2) 0.2064(14) 0.5775(13)
C4A C 0.907(2) 0.3914(15) 0.4553(16)
C5A C 0.808(2) 0.2783(15) 0.4078(17)
Gd1A Gd 0.34520(11) 0.94175(7) 0.70299(7)
O7A O 0.6018(19) 1.0960(12) 0.7102(11)
H1A H 0.7330 1.1163 0.7046
H2A H 0.6216 1.0314 0.6486
O8A O 0.608(2) 0.7970(12) 0.8193(13)
H3A H 0.5358 0.7698 0.8965
H4A H 0.7245 0.8263 0.8299
O1_2 O -0.0046(19) 0.8941(13) 0.8608(11)
Gd1_2 Gd 0.65480(11) 0.05825(7) 0.29701(7)
Gd1_3 Gd 1.65480(11) 0.05825(7) 0.29701(7)
Gd1A_2 Gd 1.34520(11) -0.05825(7) 0.70299(7)
Gd1A_3 Gd 1.34520(11) 0.94175(7) -0.29701(7)
Gd1A_4 Gd 1.34520(11) 0.94175(7) 0.70299(7)
O2A_2 O 0.0629(18) 1.1699(10) 0.6933(11)
O3A_2 O 0.3365(17) 1.1237(11) 0.4979(11)
O4_2 O 0.1348(17) 0.8524(10) 0.5579(11)
O4A_2 O 0.8652(17) 1.1476(10) 0.4421(11)
O5_2 O 0.3266(18) 0.6885(11) 0.6689(11)
O5A_2 O 0.6734(18) 1.3115(11) 0.3311(11)
O6A_2 O 0.2528(18) 1.0621(11) 0.9262(10)
O9 O 0.379(5) 0.704(3) 0.087(2)
H6 H 0.2570 0.7409 0.1504
H7 H 0.3411 0.6507 0.0341
O10 O 0.231(6) 0.527(3) 0.913(3)
H8 H 0.3497 0.4595 0.9119
H9 H 0.2610 0.5740 0.8405
loop_
_geom_bond_atom_site_label_1
_geom_bond_atom_site_label_2
_geom_bond_site_symmetry_1
_geom_bond_site_symmetry_2
O1 C6 1_555 1_555
Gd1 O2 1_555 1_555
O2 C3 1_555 1_555
O3 Gd1 1_555 1_555
O4 C5 1_555 1_555
O5 C5 1_555 1_555
O6 Gd1 1_555 1_555
O7 Gd1 1_555 1_555
H1 O7 1_555 1_555
H2 O7 1_555 1_555
O8 Gd1 1_555 1_555
H3 O8 1_555 1_555
H4 O8 1_555 1_555
C1 H5 1_555 1_555
C2 C1 1_555 1_555
C3 O3 1_555 1_555
C4 C2 1_555 1_555
C5 C4 1_555 1_555
C6 O6 1_555 1_555
O9 H6 1_555 1_555
H7 O9 1_555 1_555
O10 H8 1_555 1_555
H9 O10 1_555 1_555
O1A Gd1 1_555 1_555
O6A C6A 1_555 1_555
C6A C6 1_555 1_555
O2A C3A 1_555 1_555
O3A C3A 1_555 1_555
O4A C5A 1_555 1_555
O5A C5A 1_555 1_555
C1A C4 1_555 1_555
H5A C1A 1_555 1_555
C2A C1A 1_555 1_555
C3A C2A 1_555 1_555
C4A C1 1_555 1_555
C5A C4A 1_555 1_555
Gd1A O3 1_555 1_555
O7A Gd1A 1_555 1_555
H1A O7A 1_555 1_555
H2A O7A 1_555 1_555
O8A Gd1A 1_555 1_555
H3A O8A 1_555 1_555
H4A O8A 1_555 1_555
O1_2 Gd1A 1_555 1_555
Gd1_2 O4A 1_555 1_555
Gd1_3 O3A 1_555 1_555
Gd1A_2 O2A 1_555 1_555
Gd1A_3 O1 1_555 1_555
Gd1A_4 O4 1_555 1_555
O2A_2 Gd1A 1_555 1_555
O3A_2 Gd1 1_555 1_555
O4_2 Gd1A 1_555 1_555
O4A_2 Gd1 1_555 1_555
O5_2 Gd1A 1_555 1_555
O5A_2 Gd1 1_555 1_555
O6A_2 Gd1A 1_555 1_555
O5 Gd1A_4 1_555 1_555
C2 C3 1_555 1_555
O1A C6A 1_555 1_555
O6A Gd1A_3 1_555 1_555
O3A Gd1A_2 1_555 1_555
O5A Gd1_2 1_555 1_555
C2A C4A 1_555 1_555
Gd1A O3A_2 1_555 1_555

#END
