
#######################################################################
#
#                 Cambridge Crystallographic Data Centre
#                                CCDC 
#
#######################################################################
#
# If this CIF has been generated from an entry in the Cambridge 
# Structural Database, then it will include bibliographic, chemical, 
# crystal, experimental, refinement or atomic coordinate data resulting 
# from the CCDC's data processing and validation procedures.
#
#######################################################################

data_KEFBII
_chemical_formula_moiety         '(C18 H10 O10 Zn2)n'
_symmetry_cell_setting           tetragonal
_symmetry_space_group_name_H-M   'P 42/n n m'
_symmetry_Int_Tables_number      134
_space_group_name_Hall           '-P 4ac 2bc'
loop_
_symmetry_equiv_pos_site_id
_symmetry_equiv_pos_as_xyz
1 x,y,z
2 1/2-x,1/2-y,z
3 1/2-y,x,1/2+z
4 y,1/2-x,1/2+z
5 1/2-x,y,1/2-z
6 x,1/2-y,1/2-z
7 y,x,-z
8 1/2-y,1/2-x,-z
9 -x,-y,-z
10 1/2+x,1/2+y,-z
11 1/2+y,-x,1/2-z
12 -y,1/2+x,1/2-z
13 1/2+x,-y,1/2+z
14 -x,1/2+y,1/2+z
15 -y,-x,z
16 1/2+y,1/2+x,z
_cell_length_a                   17.2089(12)
_cell_length_b                   17.2089(12)
_cell_length_c                   28.523(4)
_cell_angle_alpha                90
_cell_angle_beta                 90
_cell_angle_gamma                90
_cell_volume                     8446.98
loop_
_atom_site_label
_atom_site_type_symbol
_atom_site_fract_x
_atom_site_fract_y
_atom_site_fract_z
_atom_site_U_iso_or_equiv
_atom_site_thermal_displace_type
Zn1 Zn 0.16369(3) 0.2500 0.2500 0.0328 Uani
Zn2 Zn -0.046610(17) 0.046610(17) 0.466001(16) 0.0324 Uani
C1 C 0.32166(18) -0.01501(18) 0.39600(12) 0.0440 Uani
C2 C 0.32022(17) 0.04158(17) 0.35907(11) 0.0379 Uani
H1 H 0.3623 0.0466 0.3377 0.0460 Uiso
C3 C 0.25563(18) 0.08925(18) 0.35337(11) 0.0432 Uani
C4 C 0.19003(19) 0.08299(18) 0.38325(11) 0.0423 Uani
H2 H 0.1433 0.1137 0.3778 0.0510 Uiso
C5 C 0.19281(17) 0.02917(18) 0.41976(11) 0.0393 Uani
C6 C 0.25739(18) -0.01953(19) 0.42710(11) 0.0414 Uani
H3 H 0.2581 -0.0546 0.4536 0.0500 Uiso
C7 C 0.2548(2) 0.1472(2) 0.31474(13) 0.0491 Uani
C8 C 0.12320(18) 0.02358(18) 0.45146(11) 0.0403 Uani
C9 C 0.38317(19) -0.06764(18) 0.39967(12) 0.0429 Uani
O1 O 0.19084(12) 0.18011(11) 0.30550(7) 0.0373 Uani
O2 O 0.31786(12) 0.15854(12) 0.29274(7) 0.0416 Uani
O3 O 0.06116(11) 0.05486(12) 0.43827(8) 0.0411 Uani
O4 O 0.13232(12) -0.01623(13) 0.48835(8) 0.0416 Uani
O5 O 0.0491(2) 0.2500 0.2500 0.0597 Uani
O6 O -0.10735(13) 0.10735(13) 0.41917(12) 0.0540 Uani
Zn1A Zn 0.33631(3) 0.2500 0.2500 0.0328 Uani
Zn1K Zn 0.7500 -0.33631(3) 0.2500 0.0328 Uani
Zn1J Zn 0.7500 -0.16369(3) 0.2500 0.0328 Uani
Zn2F Zn 0.046610(17) -0.046610(17) 0.533999(16) 0.0324 Uani
Zn2A Zn 0.546610(17) -0.546610(17) 0.466001(16) 0.0324 Uani
Zn2G Zn 0.453390(17) -0.453390(17) 0.533999(16) 0.0324 Uani
C1O C 0.48499(18) -0.17834(18) 0.39600(12) 0.0440 Uani
C2O C 0.54158(17) -0.17978(17) 0.35907(11) 0.0379 Uani
H1O H 0.5466 -0.1377 0.3377 0.0460 Uiso
C3O C 0.58925(18) -0.24437(18) 0.35337(11) 0.0432 Uani
C4O C 0.58299(18) -0.30997(19) 0.38325(11) 0.0423 Uani
H2O H 0.6137 -0.3567 0.3778 0.0510 Uiso
C5O C 0.52917(18) -0.30719(17) 0.41976(11) 0.0393 Uani
C6O C 0.48047(19) -0.24261(18) 0.42710(11) 0.0414 Uani
H3O H 0.4454 -0.2419 0.4536 0.0500 Uiso
C7O C 0.6472(2) -0.2452(2) 0.31474(13) 0.0491 Uani
C8O C 0.52358(18) -0.37680(18) 0.45146(11) 0.0403 Uani
C9O C 0.43236(18) -0.11683(19) 0.39967(12) 0.0429 Uani
O1O O 0.68011(11) -0.30916(12) 0.30550(7) 0.0373 Uani
O1E O 0.19084(12) 0.31989(11) 0.19450(7) 0.0373 Uani
O2O O 0.65854(12) -0.18214(12) 0.29274(7) 0.0416 Uani
O2A O 0.18214(12) 0.34146(12) 0.29274(7) 0.0416 Uani
O2D O 0.18214(12) 0.15854(12) 0.20726(7) 0.0416 Uani
O3O O 0.55486(12) -0.43884(11) 0.43827(8) 0.0411 Uani
O3N O -0.05486(12) -0.06116(11) 0.43827(8) 0.0411 Uani
O4O O 0.48377(13) -0.36768(12) 0.48835(8) 0.0416 Uani
O4F O -0.01623(13) 0.13232(12) 0.51165(8) 0.0416 Uani
O4H O -0.13232(12) 0.01623(13) 0.51165(8) 0.0416 Uani
loop_
_atom_site_aniso_label
_atom_site_aniso_U_11
_atom_site_aniso_U_22
_atom_site_aniso_U_33
_atom_site_aniso_U_23
_atom_site_aniso_U_13
_atom_site_aniso_U_12
Zn1 0.0346(3) 0.0304(2) 0.0333(3) 0.00067(18) 0.000 0.000
Zn2 0.03419(19) 0.03419(19) 0.0289(3) -0.00007(11) 0.00007(11) 0.01245(18)
C1 0.0459(17) 0.0406(16) 0.0454(18) -0.0142(14) -0.0064(14) 0.0080(14)
C2 0.0322(15) 0.0396(16) 0.0420(17) -0.0142(12) -0.0081(12) 0.0153(12)
C3 0.0441(17) 0.0468(17) 0.0386(18) -0.0059(13) -0.0141(13) 0.0124(13)
C4 0.0410(17) 0.0428(17) 0.0431(18) 0.0025(13) -0.0051(14) 0.0016(14)
C5 0.0400(15) 0.0382(15) 0.0396(17) -0.0074(12) -0.0083(13) 0.0104(13)
C6 0.0484(17) 0.0439(17) 0.0318(16) -0.0119(13) -0.0085(13) 0.0164(14)
C7 0.054(2) 0.0422(17) 0.051(2) -0.0141(15) -0.0102(16) 0.0125(15)
C8 0.0476(17) 0.0358(15) 0.0374(16) -0.0172(13) -0.0175(13) -0.0028(13)
C9 0.0465(17) 0.0395(16) 0.0426(18) -0.0067(14) -0.0099(14) 0.0069(12)
O1 0.0443(11) 0.0356(11) 0.0321(11) -0.0087(8) -0.0149(9) 0.0151(8)
O2 0.0419(12) 0.0422(12) 0.0406(12) -0.0112(9) -0.0131(9) 0.0172(9)
O3 0.0332(11) 0.0470(13) 0.0431(13) -0.0084(9) -0.0034(9) 0.0080(9)
O4 0.0421(11) 0.0455(12) 0.0373(12) -0.0137(10) -0.0075(9) 0.0082(9)
O5 0.055(2) 0.053(2) 0.071(3) -0.0055(18) 0.000 0.000
O6 0.0575(13) 0.0575(13) 0.047(2) -0.0077(10) 0.0077(10) 0.0174(17)
Zn1A 0.0346 0.0304 0.0333 -0.00067 0 0
Zn1K 0.0304 0.0346 0.0333 0 0.00067 0
Zn1J 0.0304 0.0346 0.0333 0 -0.00067 0
Zn2F 0.03419 0.03419 0.0289 -7e-05 7e-05 0.01245
Zn2A 0.03419 0.03419 0.0289 7e-05 -7e-05 0.01245
Zn2G 0.03419 0.03419 0.0289 7e-05 -7e-05 0.01245
C1O 0.0406 0.0459 0.0454 -0.0064 -0.0142 0.008
C2O 0.0396 0.0322 0.042 -0.0081 -0.0142 0.0153
C3O 0.0468 0.0441 0.0386 -0.0141 -0.0059 0.0124
C4O 0.0428 0.041 0.0431 -0.0051 0.0025 0.0016
C5O 0.0382 0.04 0.0396 -0.0083 -0.0074 0.0104
C6O 0.0439 0.0484 0.0318 -0.0085 -0.0119 0.0164
C7O 0.0422 0.054 0.051 -0.0102 -0.0141 0.0125
C8O 0.0358 0.0476 0.0374 -0.0175 -0.0172 -0.0028
C9O 0.0395 0.0465 0.0426 -0.0099 -0.0067 0.0069
O1O 0.0356 0.0443 0.0321 -0.0149 -0.0087 0.0151
O1E 0.0443 0.0356 0.0321 -0.0087 0.0149 -0.0151
O2O 0.0422 0.0419 0.0406 -0.0131 -0.0112 0.0172
O2A 0.0419 0.0422 0.0406 0.0112 0.0131 0.0172
O2D 0.0419 0.0422 0.0406 0.0112 -0.0131 -0.0172
O3O 0.047 0.0332 0.0431 -0.0034 -0.0084 0.008
O3N 0.047 0.0332 0.0431 0.0034 0.0084 0.008
O4O 0.0455 0.0421 0.0373 -0.0075 -0.0137 0.0082
O4F 0.0455 0.0421 0.0373 0.0075 0.0137 0.0082
O4H 0.0421 0.0455 0.0373 -0.0137 -0.0075 0.0082
loop_
_geom_bond_atom_site_label_1
_geom_bond_atom_site_label_2
_geom_bond_site_symmetry_1
_geom_bond_site_symmetry_2
Zn1 O1 1_555 1_555
Zn2 O3 1_555 1_555
C1 C2 1_555 1_555
C2 H1 1_555 1_555
C3 C2 1_555 1_555
C4 C3 1_555 1_555
H2 C4 1_555 1_555
C5 C4 1_555 1_555
C6 C1 1_555 1_555
H3 C6 1_555 1_555
C7 C3 1_555 1_555
C8 C5 1_555 1_555
C9 C1 1_555 1_555
O1 C7 1_555 1_555
O2 C7 1_555 1_555
O3 C8 1_555 1_555
O4 C8 1_555 1_555
O5 Zn1 1_555 1_555
O6 Zn2 1_555 1_555
Zn1A O2 1_555 1_555
Zn1K O1O 1_555 1_555
Zn1J O2O 1_555 1_555
Zn2F O4 1_555 1_555
Zn2A O3O 1_555 1_555
Zn2G O4O 1_555 1_555
C1O C2O 1_555 1_555
C2O H1O 1_555 1_555
C3O C2O 1_555 1_555
C4O C3O 1_555 1_555
H2O C4O 1_555 1_555
C5O C4O 1_555 1_555
C6O C1O 1_555 1_555
H3O C6O 1_555 1_555
C7O C3O 1_555 1_555
C8O C5O 1_555 1_555
C9O C9 1_555 1_555
O1O C7O 1_555 1_555
O1E Zn1 1_555 1_555
O2O C7O 1_555 1_555
O2A Zn1 1_555 1_555
O2D Zn1 1_555 1_555
O3O C8O 1_555 1_555
O3N Zn2 1_555 1_555
O4O C8O 1_555 1_555
O4F Zn2 1_555 1_555
O4H Zn2 1_555 1_555
C5 C6 1_555 1_555
C1O C9O 1_555 1_555
C5O C6O 1_555 1_555

#END
