
#######################################################################
#
#                 Cambridge Crystallographic Data Centre
#                                CCDC 
#
#######################################################################
#
# If this CIF has been generated from an entry in the Cambridge 
# Structural Database, then it will include bibliographic, chemical, 
# crystal, experimental, refinement or atomic coordinate data resulting 
# from the CCDC's data processing and validation procedures.
#
#######################################################################

data_KEFBEE
_chemical_formula_moiety         '(C18 H10 O10 Zn2)n'
_symmetry_cell_setting           rhombohedral
_symmetry_space_group_name_H-M   'R -3 m'
_symmetry_Int_Tables_number      166
_space_group_name_Hall           '-R 3 2"'
loop_
_symmetry_equiv_pos_site_id
_symmetry_equiv_pos_as_xyz
1 x,y,z
2 -y,x-y,z
3 -x+y,-x,z
4 y,x,-z
5 x-y,-y,-z
6 -x,-x+y,-z
7 2/3+x,1/3+y,1/3+z
8 2/3-y,1/3+x-y,1/3+z
9 2/3-x+y,1/3-x,1/3+z
10 2/3+y,1/3+x,1/3-z
11 2/3+x-y,1/3-y,1/3-z
12 2/3-x,1/3-x+y,1/3-z
13 1/3+x,2/3+y,2/3+z
14 1/3-y,2/3+x-y,2/3+z
15 1/3-x+y,2/3-x,2/3+z
16 1/3+y,2/3+x,2/3-z
17 1/3+x-y,2/3-y,2/3-z
18 1/3-x,2/3-x+y,2/3-z
19 -x,-y,-z
20 y,-x+y,-z
21 x-y,x,-z
22 -y,-x,z
23 -x+y,y,z
24 x,x-y,z
25 1/3-x,2/3-y,2/3-z
26 1/3+y,2/3-x+y,2/3-z
27 1/3+x-y,2/3+x,2/3-z
28 1/3-y,2/3-x,2/3+z
29 1/3-x+y,2/3+y,2/3+z
30 1/3+x,2/3+x-y,2/3+z
31 2/3-x,1/3-y,1/3-z
32 2/3+y,1/3-x+y,1/3-z
33 2/3+x-y,1/3+x,1/3-z
34 2/3-y,1/3-x,1/3+z
35 2/3-x+y,1/3+y,1/3+z
36 2/3+x,1/3+x-y,1/3+z
_cell_length_a                   19.0504(8)
_cell_length_b                   19.0504(8)
_cell_length_c                   32.392(3)
_cell_angle_alpha                90
_cell_angle_beta                 90
_cell_angle_gamma                120
_cell_volume                     10180.7
loop_
_atom_site_label
_atom_site_type_symbol
_atom_site_fract_x
_atom_site_fract_y
_atom_site_fract_z
_atom_site_U_iso_or_equiv
_atom_site_thermal_displace_type
Zn1 Zn 0.95003(3) 0.475013(13) 0.961757(13) 0.0408 Uani
C1 C 0.90417(18) 0.5446(2) 1.03033(10) 0.0499 Uani
C2 C 0.84591(19) 0.5656(2) 1.05026(10) 0.0522 Uani
C3 C 0.8626(2) 0.5994(2) 1.08978(10) 0.0598 Uani
H1 H 0.9099 0.6097 1.1033 0.0720 Uiso
C4 C 0.80876(16) 0.6175(3) 1.10883(16) 0.0614 Uani
C5 C 0.82639(18) 0.6528(4) 1.15043(16) 0.0634 Uani
C6 C 0.77454(15) 0.5491(3) 1.03044(14) 0.0516 Uani
H2 H 0.7635 0.5270 1.0040 0.0620 Uiso
O1 O 0.96378(14) 0.55602(16) 1.05043(7) 0.0603 Uani
O2 O 0.88626(14) 0.51598(14) 0.99449(7) 0.0572 Uani
O3 O 0.8916(2) 0.44578(11) 0.90854(10) 0.0684 Uani
Zn1V Zn 0.524983(33) 0.475013(13) 0.961757(13) 0.0408 Uani
Zn1R Zn 1.04997(3) 0.524987(13) 1.038243(13) 0.0408 Uani
Zn1D Zn 0.475017(33) 0.524987(13) 1.038243(13) 0.0408 Uani
Zn1HA Zn 1.191650(33) 0.808346(13) 1.295090(13) 0.0408 Uani
Zn1J Zn 1.141684(33) 0.858320(13) 1.371576(13) 0.0408 Uani
Zn1F Zn 0.61670(3) 0.808346(13) 1.295090(13) 0.0408 Uani
Zn1DA Zn 0.71664(3) 0.858320(13) 1.371576(13) 0.0408 Uani
C1V C 0.64043(27) 0.5446(2) 1.03033(10) 0.0499 Uani
C1J C 1.02624(27) 0.7887(2) 1.30300(10) 0.0499 Uani
C1DA C 0.76250(18) 0.7887(2) 1.30300(10) 0.0499 Uani
C2V C 0.71969(28) 0.5656(2) 1.05026(10) 0.0522 Uani
C2J C 0.94698(28) 0.7677(2) 1.28307(10) 0.0522 Uani
C2DA C 0.82076(19) 0.7677(2) 1.28307(10) 0.0522 Uani
C3V C 0.7368(3) 0.5994(2) 1.08978(10) 0.0598 Uani
C3J C 0.9299(3) 0.7339(2) 1.24355(10) 0.0598 Uani
C3DA C 0.8041(2) 0.7339(2) 1.24355(10) 0.0598 Uani
H1V H 0.6998 0.6097 1.1033 0.0720 Uiso
H1DA H 0.7568 0.7236 1.2300 0.0720 Uiso
H1J H 0.9669 0.7236 1.2300 0.0720 Uiso
C4J C 0.85793(34) 0.7158(3) 1.22450(16) 0.0614 Uani
C5J C 0.84026(44) 0.6805(4) 1.18290(16) 0.0634 Uani
C6J C 0.89211(34) 0.7842(3) 1.30289(14) 0.0516 Uani
H2J H 0.9032 0.8063 1.3293 0.0620 Uiso
O1V O 0.59224(21) 0.55602(16) 1.05043(7) 0.0603 Uani
O1J O 1.07443(21) 0.77731(16) 1.28290(7) 0.0603 Uani
O1DA O 0.70289(14) 0.77731(16) 1.28290(7) 0.0603 Uani
O1R O 1.03622(14) 0.44398(16) 0.94957(7) 0.0603 Uani
O1E O 1.03622(14) 0.59224(21) 0.94957(7) 0.0603 Uani
O1D O 0.40776(21) 0.44398(16) 0.94957(7) 0.0603 Uani
O1S O 0.55602(16) 0.59224(21) 0.94957(7) 0.0603 Uani
O2V O 0.62972(20) 0.51598(14) 0.99449(7) 0.0572 Uani
O2J O 1.03695(20) 0.81735(14) 1.33884(7) 0.0572 Uani
O2DA O 0.78041(14) 0.81735(14) 1.33884(7) 0.0572 Uani
O2W O 0.88626(14) 0.37028(20) 0.99449(7) 0.0572 Uani
O2A O 0.48402(14) 0.37028(20) 0.99449(7) 0.0572 Uani
O3V O 0.55418(23) 0.44578(11) 0.90854(10) 0.0684 Uani
loop_
_atom_site_aniso_label
_atom_site_aniso_U_11
_atom_site_aniso_U_22
_atom_site_aniso_U_33
_atom_site_aniso_U_23
_atom_site_aniso_U_13
_atom_site_aniso_U_12
Zn1 0.0386(3) 0.0444(3) 0.0375(3) 0.00065(9) 0.00131(17) 0.01928(15)
C1 0.0394(15) 0.0514(17) 0.0509(17) -0.0118(14) -0.0066(13) 0.0168(13)
C2 0.0548(18) 0.0559(18) 0.0492(17) -0.0035(14) -0.0062(14) 0.0301(16)
C3 0.0515(19) 0.067(2) 0.0525(18) -0.0024(15) -0.0129(15) 0.0233(16)
C4 0.061(2) 0.082(4) 0.048(3) 0.002(2) 0.0012(11) 0.0408(18)
C5 0.0559(18) 0.079(3) 0.063(3) -0.017(3) -0.0083(13) 0.0395(17)
C6 0.0486(17) 0.061(3) 0.049(2) -0.006(2) -0.0028(10) 0.0303(13)
O1 0.0483(13) 0.0717(16) 0.0578(13) -0.0105(12) -0.0084(10) 0.0277(12)
O2 0.0576(13) 0.0678(14) 0.0516(13) -0.0094(11) -0.0089(10) 0.0355(12)
O3 0.066(2) 0.0844(19) 0.0486(18) 0.0011(8) 0.0022(16) 0.0330(11)
Zn1V 0.0444 0.04444 0.0375 0.00066 -0.00065 0.02512
Zn1R 0.0386 0.04444 0.0375 0.00066 0.00131 0.01932
Zn1D 0.04444 0.0444 0.0375 0.00065 -0.00066 0.02512
Zn1HA 0.0444 0.04444 0.0375 0.00066 -0.00065 0.02512
Zn1J 0.04444 0.0444 0.0375 0.00065 -0.00066 0.02512
Zn1F 0.0386 0.0444 0.0375 0.00065 0.00131 0.01928
Zn1DA 0.0386 0.04444 0.0375 0.00066 0.00131 0.01932
C1V 0.0572 0.0514 0.0509 -0.0118 -0.0052 0.0346
C1J 0.0572 0.0514 0.0509 -0.0118 -0.0052 0.0346
C1DA 0.0394 0.0514 0.0509 -0.0118 -0.0066 0.0168
C2V 0.0505 0.0559 0.0492 -0.0035 0.0027 0.0258
C2J 0.0505 0.0559 0.0492 -0.0035 0.0027 0.0258
C2DA 0.0548 0.0559 0.0492 -0.0035 -0.0062 0.0301
C3V 0.0719 0.067 0.0525 -0.0024 0.0105 0.0437
C3J 0.0719 0.067 0.0525 -0.0024 0.0105 0.0437
C3DA 0.0515 0.067 0.0525 -0.0024 -0.0129 0.0233
C4J 0.0614 0.082 0.048 0.002 0.0008 0.0412
C5J 0.0559 0.079 0.063 -0.017 -0.0087 0.0395
C6J 0.049 0.061 0.049 -0.006 -0.0032 0.0307
O1V 0.0646 0.0717 0.0578 -0.0105 -0.0021 0.044
O1J 0.0646 0.0717 0.0578 -0.0105 -0.0021 0.044
O1DA 0.0483 0.0717 0.0578 -0.0105 -0.0084 0.0277
O1R 0.0483 0.0717 0.0578 -0.0105 -0.0084 0.0277
O1E 0.0483 0.0646 0.0578 0.0021 -0.0084 0.0206
O1D 0.0646 0.0717 0.0578 -0.0105 -0.0021 0.044
O1S 0.0717 0.0646 0.0578 0.0021 0.0105 0.044
O2V 0.0544 0.0678 0.0516 -0.0094 -0.0005 0.0323
O2J 0.0544 0.0678 0.0516 -0.0094 -0.0005 0.0323
O2DA 0.0576 0.0678 0.0516 -0.0094 -0.0089 0.0355
O2W 0.0576 0.0544 0.0516 0.0005 -0.0089 0.0221
O2A 0.0678 0.0544 0.0516 0.0005 0.0094 0.0323
O3V 0.0844 0.0844 0.0486 0.0011 -0.0011 0.0514
loop_
_geom_bond_atom_site_label_1
_geom_bond_atom_site_label_2
_geom_bond_site_symmetry_1
_geom_bond_site_symmetry_2
Zn1 O2 1_555 1_555
C1 C2 1_555 1_555
C2 C3 1_555 1_555
C3 H1 1_555 1_555
C4 C3 1_555 1_555
C5 C4 1_555 1_555
C6 C2 1_555 1_555
H2 C6 1_555 1_555
O1 C1 1_555 1_555
O2 C1 1_555 1_555
O3 Zn1 1_555 1_555
Zn1V O1D 1_555 1_555
Zn1R O1 1_555 1_555
Zn1D O1V 1_555 1_555
Zn1HA O1J 1_555 1_555
Zn1J O2J 1_555 1_555
Zn1F O1DA 1_555 1_555
Zn1DA O2DA 1_555 1_555
C1V C2V 1_555 1_555
C1J C2J 1_555 1_555
C1DA C2DA 1_555 1_555
C2V C6 1_555 1_555
C2J C3J 1_555 1_555
C2DA C3DA 1_555 1_555
C3V C4 1_555 1_555
C3J H1J 1_555 1_555
C3DA H1DA 1_555 1_555
H1V C3V 1_555 1_555
C4J C3J 1_555 1_555
C5J C5 1_555 1_555
C6J C2J 1_555 1_555
H2J C6J 1_555 1_555
O1V C1V 1_555 1_555
O1J C1J 1_555 1_555
O1DA C1DA 1_555 1_555
O1R Zn1 1_555 1_555
O1E Zn1 1_555 1_555
O1S Zn1V 1_555 1_555
O2V Zn1V 1_555 1_555
O2J C1J 1_555 1_555
O2DA C1DA 1_555 1_555
O2W Zn1 1_555 1_555
O2A Zn1V 1_555 1_555
O3V Zn1V 1_555 1_555
C1V O2V 1_555 1_555
C2V C3V 1_555 1_555
C2DA C6J 1_555 1_555
C3DA C4J 1_555 1_555
C4J C5J 1_555 1_555

#END
