
#######################################################################
#
#                 Cambridge Crystallographic Data Centre
#                                CCDC 
#
#######################################################################
#
# If this CIF has been generated from an entry in the Cambridge 
# Structural Database, then it will include bibliographic, chemical, 
# crystal, experimental, refinement or atomic coordinate data resulting 
# from the CCDC's data processing and validation procedures.
#
#######################################################################

data_ONAWEG
_chemical_formula_moiety         '(C16 H28 Cu1 N13 O5 1+)n'
_symmetry_cell_setting           orthorhombic
_symmetry_space_group_name_H-M   'F d d d'
_symmetry_Int_Tables_number      70
_space_group_name_Hall           '-F 2uv 2vw'
loop_
_symmetry_equiv_pos_site_id
_symmetry_equiv_pos_as_xyz
1 x,y,z
2 3/4-x,3/4-y,z
3 3/4-x,y,3/4-z
4 x,3/4-y,3/4-z
5 x,1/2+y,1/2+z
6 3/4-x,1/4-y,1/2+z
7 3/4-x,1/2+y,1/4-z
8 x,1/4-y,1/4-z
9 1/2+x,y,1/2+z
10 1/4-x,3/4-y,1/2+z
11 1/4-x,y,1/4-z
12 1/2+x,3/4-y,1/4-z
13 1/2+x,1/2+y,z
14 1/4-x,1/4-y,z
15 1/4-x,1/2+y,3/4-z
16 1/2+x,1/4-y,3/4-z
17 -x,-y,-z
18 1/4+x,1/4+y,-z
19 1/4+x,-y,1/4+z
20 -x,1/4+y,1/4+z
21 -x,1/2-y,1/2-z
22 1/4+x,3/4+y,1/2-z
23 1/4+x,1/2-y,3/4+z
24 -x,3/4+y,3/4+z
25 1/2-x,-y,1/2-z
26 3/4+x,1/4+y,1/2-z
27 3/4+x,-y,3/4+z
28 1/2-x,1/4+y,3/4+z
29 1/2-x,1/2-y,-z
30 3/4+x,3/4+y,-z
31 3/4+x,1/2-y,1/4+z
32 1/2-x,3/4+y,1/4+z
_cell_length_a                   12.901(3)
_cell_length_b                   17.061(3)
_cell_length_c                   24.719(5)
_cell_angle_alpha                90
_cell_angle_beta                 90
_cell_angle_gamma                90
_cell_volume                     5440.75
loop_
_atom_site_label
_atom_site_type_symbol
_atom_site_fract_x
_atom_site_fract_y
_atom_site_fract_z
_atom_site_U_iso_or_equiv
_atom_site_thermal_displace_type
Cu1 Cu 1.3750 -0.1250 -0.1250 0.0190 Uani
O1 O 1.3750 0.01609(13) -0.1250 0.0331 Uani
H1 H 1.329(3) 0.039(2) -0.1220(13) 0.0500 Uiso
N1 N 1.26501(13) -0.12419(9) -0.06738(7) 0.0243 Uani
N2 N 1.16752(15) -0.08819(11) -0.00077(7) 0.0308 Uani
C1 C 1.18983(18) -0.17780(13) -0.05746(11) 0.0387 Uani
H2 H 1.1823 -0.2249 -0.0776 0.0460 Uiso
N3 N 1.12818(16) -0.15835(12) -0.01715(11) 0.0439 Uani
C2 C 1.24832(15) -0.06875(12) -0.03080(8) 0.0262 Uani
H3 H 1.2882 -0.0223 -0.0268 0.0310 Uiso
C3 C 1.11628(19) -0.04185(16) 0.04131(10) 0.0392 Uani
H4 H 1.0768 -0.0772 0.0655 0.0590 Uiso
H5 H 1.1693 -0.0147 0.0634 0.0590 Uiso
C4 C 1.0431(3) 0.01834(19) 0.01689(13) 0.0357 Uani
H6 H 1.0117 0.0495 0.0464 0.0540 Uiso
H7 H 1.0835 0.0546 -0.0062 0.0540 Uiso
Cu1P Cu 0.6250 0.1250 0.1250 0.0190 Uani
Cu1BA Cu 2.1250 -0.3750 0.1250 0.0190 Uani
O1A O 1.3750 -0.26609(13) -0.1250 0.0331 Uani
H1B H 1.421(3) 0.039(2) -0.1280(13) 0.0500 Uiso
H1A H 1.421(3) -0.289(2) -0.1220(13) 0.0500 Uiso
H1C H 1.329(3) -0.289(2) -0.1280(13) 0.0500 Uiso
N1P N 0.73499(13) 0.12419(9) 0.06738(7) 0.0243 Uani
N1A N 1.48499(13) -0.12581(9) -0.06738(7) 0.0243 Uani
N1CA N 2.01501(13) -0.37419(9) 0.06738(7) 0.0243 Uani
N1B N 1.48499(13) -0.12419(9) -0.18262(7) 0.0243 Uani
N1C N 1.26501(13) -0.12581(9) -0.18262(7) 0.0243 Uani
N2P N 0.83248(15) 0.08819(11) 0.00077(7) 0.0308 Uani
N2A N 1.58248(15) -0.16181(11) -0.00077(7) 0.0308 Uani
N2CA N 1.91752(15) -0.33819(11) 0.00077(7) 0.0308 Uani
C1P C 0.81017(18) 0.17780(13) 0.05746(11) 0.0387 Uani
C1A C 1.56017(18) -0.07220(13) -0.05746(11) 0.0387 Uani
C1CA C 1.93983(18) -0.42780(13) 0.05746(11) 0.0387 Uani
H2P H 0.8177 0.2249 0.0776 0.0460 Uiso
H2A H 1.5677 -0.0251 -0.0776 0.0460 Uiso
H2CA H 1.9323 -0.4749 0.0776 0.0460 Uiso
N3P N 0.87182(16) 0.15835(12) 0.01715(11) 0.0439 Uani
N3A N 1.62182(16) -0.09165(12) -0.01715(11) 0.0439 Uani
N3CA N 1.87818(16) -0.40835(12) 0.01715(11) 0.0439 Uani
C2P C 0.75168(15) 0.06875(12) 0.03080(8) 0.0262 Uani
C2A C 1.50168(15) -0.18125(12) -0.03080(8) 0.0262 Uani
C2CA C 1.99832(15) -0.31875(12) 0.03080(8) 0.0262 Uani
H3P H 0.7118 0.0223 0.0268 0.0310 Uiso
H3A H 1.4618 -0.2277 -0.0268 0.0310 Uiso
H3CA H 2.0382 -0.2723 0.0268 0.0310 Uiso
C3P C 0.88372(19) 0.04185(16) -0.04131(10) 0.0392 Uani
C3A C 1.63372(19) -0.20815(16) 0.04131(10) 0.0392 Uani
C3CA C 1.86628(19) -0.29185(16) -0.04131(10) 0.0392 Uani
H4P H 0.9232 0.0772 -0.0655 0.0590 Uiso
H4A H 1.6732 -0.1728 0.0655 0.0590 Uiso
H4CA H 1.8268 -0.3272 -0.0655 0.0590 Uiso
H5P H 0.8307 0.0147 -0.0634 0.0590 Uiso
H5A H 1.5807 -0.2353 0.0634 0.0590 Uiso
H5CA H 1.9193 -0.2647 -0.0634 0.0590 Uiso
C4P C 0.9569(3) -0.01834(19) -0.01689(13) 0.0357 Uani
C4A C 1.7069(3) -0.26834(19) 0.01689(13) 0.0357 Uani
C4CA C 1.7931(3) -0.23166(19) -0.01689(13) 0.0357 Uani
H6P H 0.9883 -0.0495 -0.0464 0.0540 Uiso
H6A H 1.7383 -0.2995 0.0464 0.0540 Uiso
H6CA H 1.7617 -0.2005 -0.0464 0.0540 Uiso
H7P H 0.9165 -0.0546 0.0062 0.0540 Uiso
H7A H 1.6665 -0.3046 -0.0062 0.0540 Uiso
H7CA H 1.8335 -0.1954 0.0062 0.0540 Uiso
N4 N 0.3750 -0.1250 0.12509(11) 0.0331 Uani
O2 O 0.4318(3) -0.0780(2) 0.14781(14) 0.0401 Uani
O5 O 0.3750 -0.1250 0.0743(5) 0.0210 Uani
O2A O 0.3182(3) -0.1720(2) 0.14781(14) 0.0401 Uani
loop_
_atom_site_aniso_label
_atom_site_aniso_U_11
_atom_site_aniso_U_22
_atom_site_aniso_U_33
_atom_site_aniso_U_23
_atom_site_aniso_U_13
_atom_site_aniso_U_12
Cu1 0.0116 0.02 0.0255 0 0 0
O1 0.0252 0.019 0.0552 0 0.0036 0
N1 0.0188 0.0219 0.0322 0.0007 0.0039 -0.0006
N2 0.0313 0.0273 0.0339 0.0016 0.0091 0.0027
C1 0.0327 0.0245 0.059 -0.0069 0.0187 -0.0065
N3 0.0412 0.027 0.0636 -0.0025 0.0266 -0.006
C2 0.0232 0.0263 0.0291 0.0007 0.0005 0.0004
C3 0.0427 0.0435 0.0314 -0.0036 0.0122 0.0081
C4 0.0392 0.0288 0.0391 -0.0077 0.0111 0.0024
Cu1P 0.0116(2) 0.0200(3) 0.0255(3) 0.000 0.000 0.000
Cu1BA 0.0116 0.02 0.0255 0 0 0
O1A 0.0252 0.019 0.0552 0 -0.0036 0
N1P 0.0188 0.0219 0.0322 0.0007 0.0039 -0.0006
N1A 0.0188 0.0219 0.0322 -0.0007 -0.0039 -0.0006
N1CA 0.0188 0.0219 0.0322 -0.0007 -0.0039 -0.0006
N1B 0.0188 0.0219 0.0322 -0.0007 0.0039 0.0006
N1C 0.0188 0.0219 0.0322 0.0007 -0.0039 0.0006
N2P 0.0313 0.0273 0.0339 0.0016 0.0091 0.0027
N2A 0.0313 0.0273 0.0339 -0.0016 -0.0091 0.0027
N2CA 0.0313 0.0273 0.0339 -0.0016 -0.0091 0.0027
C1P 0.0327 0.0245 0.059 -0.0069 0.0187 -0.0065
C1A 0.0327 0.0245 0.059 0.0069 -0.0187 -0.0065
C1CA 0.0327 0.0245 0.059 0.0069 -0.0187 -0.0065
N3P 0.0412 0.027 0.0636 -0.0025 0.0266 -0.006
N3A 0.0412 0.027 0.0636 0.0025 -0.0266 -0.006
N3CA 0.0412 0.027 0.0636 0.0025 -0.0266 -0.006
C2P 0.0232 0.0263 0.0291 0.0007 0.0005 0.0004
C2A 0.0232 0.0263 0.0291 -0.0007 -0.0005 0.0004
C2CA 0.0232 0.0263 0.0291 -0.0007 -0.0005 0.0004
C3P 0.0427 0.0435 0.0314 -0.0036 0.0122 0.0081
C3A 0.0427 0.0435 0.0314 0.0036 -0.0122 0.0081
C3CA 0.0427 0.0435 0.0314 0.0036 -0.0122 0.0081
C4P 0.0392 0.0288 0.0391 -0.0077 0.0111 0.0024
C4A 0.0392 0.0288 0.0391 0.0077 -0.0111 0.0024
C4CA 0.0392 0.0288 0.0391 0.0077 -0.0111 0.0024
N4 0.0258(14) 0.0369(15) 0.0367(14) 0.000 0.000 -0.0031(10)
O2 0.0349(17) 0.0395(17) 0.0459(18) 0.0002(14) -0.0053(14) -0.0308(15)
O5 0.032(5) 0.020(4) 0.011(4) 0.000 0.000 -0.014(4)
O2A 0.0349 0.0395 0.0459 -0.0002 0.0053 -0.0308
loop_
_geom_bond_atom_site_label_1
_geom_bond_atom_site_label_2
_geom_bond_site_symmetry_1
_geom_bond_site_symmetry_2
Cu1 O1 1_555 1_555
O1 H1 1_555 1_555
N1 Cu1 1_555 1_555
N2 N3 1_555 1_555
C1 N1 1_555 1_555
H2 C1 1_555 1_555
N3 C1 1_555 1_555
C2 N1 1_555 1_555
H3 C2 1_555 1_555
C3 N2 1_555 1_555
H4 C3 1_555 1_555
H5 C3 1_555 1_555
C4 C3 1_555 1_555
H6 C4 1_555 1_555
H7 C4 1_555 1_555
N4 O2 1_555 1_555
O5 N4 1_555 1_555
Cu1P N1P 1_555 1_555
Cu1BA N1CA 1_555 1_555
O1A Cu1 1_555 1_555
H1B O1 1_555 1_555
H1A O1A 1_555 1_555
H1C O1A 1_555 1_555
N1P C1P 1_555 1_555
N1A Cu1 1_555 1_555
N1CA C1CA 1_555 1_555
N1B Cu1 1_555 1_555
N1C Cu1 1_555 1_555
N2P N3P 1_555 1_555
N2A N3A 1_555 1_555
N2CA N3CA 1_555 1_555
C1P H2P 1_555 1_555
C1A N1A 1_555 1_555
C1CA H2CA 1_555 1_555
H2A C1A 1_555 1_555
N3P C1P 1_555 1_555
N3A C1A 1_555 1_555
N3CA C1CA 1_555 1_555
C2P N1P 1_555 1_555
C2A N1A 1_555 1_555
C2CA N1CA 1_555 1_555
H3P C2P 1_555 1_555
H3A C2A 1_555 1_555
H3CA C2CA 1_555 1_555
C3P N2P 1_555 1_555
C3A N2A 1_555 1_555
C3CA N2CA 1_555 1_555
H4P C3P 1_555 1_555
H4A C3A 1_555 1_555
H4CA C3CA 1_555 1_555
H5P C3P 1_555 1_555
H5A C3A 1_555 1_555
H5CA C3CA 1_555 1_555
C4P C4 1_555 1_555
C4A C3A 1_555 1_555
C4CA C3CA 1_555 1_555
H6P C4P 1_555 1_555
H6A C4A 1_555 1_555
H6CA C4CA 1_555 1_555
H7P C4P 1_555 1_555
H7A C4A 1_555 1_555
H7CA C4CA 1_555 1_555
O2A N4 1_555 1_555
N2 C2 1_555 1_555
N2P C2P 1_555 1_555
N2A C2A 1_555 1_555
N2CA C2CA 1_555 1_555
C3P C4P 1_555 1_555
C4A C4CA 1_555 1_555

#END
