
#######################################################################
#
#                 Cambridge Crystallographic Data Centre
#                                CCDC 
#
#######################################################################
#
# If this CIF has been generated from an entry in the Cambridge 
# Structural Database, then it will include bibliographic, chemical, 
# crystal, experimental, refinement or atomic coordinate data resulting 
# from the CCDC's data processing and validation procedures.
#
#######################################################################

data_HOQMIL02
_chemical_formula_moiety         '(C29 H23 Mg2 N3 O11)n'
_symmetry_cell_setting           monoclinic
_symmetry_space_group_name_H-M   'C 2/c'
_symmetry_Int_Tables_number      15
_space_group_name_Hall           '-C 2yc'
loop_
_symmetry_equiv_pos_site_id
_symmetry_equiv_pos_as_xyz
1 x,y,z
2 -x,y,1/2-z
3 1/2+x,1/2+y,z
4 1/2-x,1/2+y,1/2-z
5 -x,-y,-z
6 x,-y,1/2+z
7 1/2-x,1/2-y,-z
8 1/2+x,1/2-y,1/2+z
_cell_length_a                   18.1876(15)
_cell_length_b                   17.2441(14)
_cell_length_c                   13.5313(11)
_cell_angle_alpha                90
_cell_angle_beta                 129.5050(10)
_cell_angle_gamma                90
_cell_volume                     3274.39
loop_
_atom_site_label
_atom_site_type_symbol
_atom_site_fract_x
_atom_site_fract_y
_atom_site_fract_z
Mg1 Mg 0.0000 0.19446(8) 0.7500
Mg2 Mg 0.2500 0.2500 1.0000
O1 O 0.07536(16) 0.19999(13) 0.6864(2)
O2 O 0.23031(16) 0.18661(13) 0.8551(2)
O3 O 0.08853(16) -0.11185(13) 0.3799(2)
O4 O 0.23045(16) -0.14887(13) 0.5614(2)
O5 O 0.09975(16) 0.27907(13) 0.8893(2)
N1 N 0.07407(19) 0.33990(16) 0.9228(3)
C1 C 0.1619(2) 0.10229(19) 0.6775(3)
C2 C 0.2399(3) 0.0532(2) 0.7437(4)
H1 H 0.295(5) 0.071(4) 0.841(7)
C3 C 0.2405(3) -0.0128(2) 0.6844(4)
H2 H 0.290(3) -0.047(3) 0.725(4)
C4 C 0.1647(2) -0.02907(19) 0.5586(3)
C5 C 0.0875(3) 0.0215(2) 0.4913(4)
H3 H 0.035(3) 0.009(2) 0.407(5)
C6 C 0.0864(3) 0.0860(2) 0.5508(4)
H4 H 0.040(3) 0.120(2) 0.513(4)
C7 C 0.1563(2) 0.16831(19) 0.7451(3)
C8 C 0.1609(2) -0.10257(19) 0.4944(3)
C9 C 0.0862(3) 0.4118(2) 0.8976(3)
H5 H 0.111(3) 0.416(3) 0.863(4)
C10 C 0.0567(3) 0.4751(2) 0.9256(4)
H6 H 0.072(3) 0.519(3) 0.912(5)
C11 C 0.0153(2) 0.4661(2) 0.9830(3)
C12 C 0.0068(3) 0.3907(2) 1.0111(4)
H7 H -0.023(4) 0.378(3) 1.047(5)
C13 C 0.0364(3) 0.3283(2) 0.9803(4)
H8 H 0.030(3) 0.277(3) 0.991(4)
O5D O -0.09975(16) 0.72093(13) 1.1107(2)
N1D N -0.07407(19) 0.66010(16) 1.0772(3)
C9D C -0.0862(3) 0.5882(2) 1.1024(3)
H5D H -0.111(3) 0.584(3) 1.137(4)
C10D C -0.0567(3) 0.5249(2) 1.0744(4)
H6D H -0.072(3) 0.481(3) 1.088(5)
C11D C -0.0153(2) 0.5339(2) 1.0170(3)
C12D C -0.0068(3) 0.6093(2) 0.9889(4)
H7D H 0.023(4) 0.622(3) 0.953(5)
C13D C -0.0364(3) 0.6717(2) 1.0197(4)
H8D H -0.030(3) 0.723(3) 1.009(4)
O1A O -0.07536(16) 0.19999(13) 0.8136(2)
O2A O -0.23031(16) 0.18661(13) 0.6449(2)
O3A O -0.08853(16) -0.11185(13) 1.1201(2)
O4A O -0.23045(16) -0.14887(13) 0.9386(2)
C1A C -0.1619(2) 0.10229(19) 0.8225(3)
C2A C -0.2399(3) 0.0532(2) 0.7563(4)
H1A H -0.295(5) 0.071(4) 0.659(7)
C3A C -0.2405(3) -0.0128(2) 0.8156(4)
H2A H -0.290(3) -0.047(3) 0.775(4)
C4A C -0.1647(2) -0.02907(19) 0.9414(3)
C5A C -0.0875(3) 0.0215(2) 1.0087(4)
H3A H -0.035(3) 0.009(2) 1.093(5)
C6A C -0.0864(3) 0.0860(2) 0.9492(4)
H4A H -0.040(3) 0.120(2) 0.987(4)
C7A C -0.1563(2) 0.16831(19) 0.7549(3)
C8A C -0.1609(2) -0.10257(19) 1.0056(3)
Mg1D Mg 0.0000 -0.19446(8) 0.2500
Mg1D_2 Mg 0.0000 -0.19446(8) 1.2500
Mg1D_3 Mg 0.0000 0.80554(8) 1.2500
Mg2A Mg -0.2500 0.2500 0.5000
Mg2B Mg -0.2500 -0.2500 1.0000
Mg2B_2 Mg -0.2500 0.7500 1.0000
Mg2C Mg 0.2500 -0.2500 0.5000
O2F O 0.26969(16) 0.31339(13) 1.1449(2)
O3D O -0.08853(16) 0.11185(13) 0.6201(2)
O3E O 0.08853(16) 0.11185(13) 0.8799(2)
O4C O 0.26955(16) 0.35113(13) 0.9386(2)
O4E O 0.23045(16) 0.14887(13) 1.0614(2)
O5A O -0.09975(16) 0.27907(13) 0.6107(2)
O5F O 0.40025(16) 0.22093(13) 1.1107(2)
O6 O 0.3643(4) 0.1471(4) 0.5831(7)
N2 N 0.2213(4) 0.1627(4) 0.3823(6)
C14 C 0.2778(7) 0.1317(5) 0.5007(9)
H9 H 0.2509 0.0969 0.5221
C15 C 0.2521(9) 0.2123(6) 0.3398(12)
H10 H 0.1997 0.2276 0.2538
H11 H 0.3001 0.1876 0.3411
H12 H 0.2787 0.2572 0.3941
C16 C 0.1307(10) 0.1325(10) 0.2993(14)
H13 H 0.1215 0.0959 0.3441
H14 H 0.1224 0.1069 0.2299
H15 H 0.0850 0.1736 0.2662
loop_
_geom_bond_atom_site_label_1
_geom_bond_atom_site_label_2
_geom_bond_site_symmetry_1
_geom_bond_site_symmetry_2
Mg1 O1 1_555 1_555
Mg2 O2 1_555 1_555
O1 C7 1_555 1_555
O2 C7 1_555 1_555
O3 C8 1_555 1_555
O4 C8 1_555 1_555
O5 Mg1 1_555 1_555
N1 O5 1_555 1_555
C1 C2 1_555 1_555
C2 H1 1_555 1_555
C3 C2 1_555 1_555
H2 C3 1_555 1_555
C4 C3 1_555 1_555
C5 C4 1_555 1_555
H3 C5 1_555 1_555
C6 C1 1_555 1_555
H4 C6 1_555 1_555
C7 C1 1_555 1_555
C8 C4 1_555 1_555
C9 N1 1_555 1_555
H5 C9 1_555 1_555
C10 C9 1_555 1_555
H6 C10 1_555 1_555
C11 C10 1_555 1_555
C12 C11 1_555 1_555
H7 C12 1_555 1_555
C13 N1 1_555 1_555
H8 C13 1_555 1_555
O6 C14 1_555 1_555
N2 C14 1_555 1_555
C14 H9 1_555 1_555
C15 N2 1_555 1_555
H10 C15 1_555 1_555
H11 C15 1_555 1_555
H12 C15 1_555 1_555
C16 N2 1_555 1_555
H13 C16 1_555 1_555
H14 C16 1_555 1_555
H15 C16 1_555 1_555
O5D N1D 1_555 1_555
N1D C9D 1_555 1_555
C9D H5D 1_555 1_555
C10D C9D 1_555 1_555
H6D C10D 1_555 1_555
C11D C11 1_555 1_555
C12D C11D 1_555 1_555
H7D C12D 1_555 1_555
C13D N1D 1_555 1_555
H8D C13D 1_555 1_555
O1A Mg1 1_555 1_555
O2A C7A 1_555 1_555
O3A C8A 1_555 1_555
O4A C8A 1_555 1_555
C1A C2A 1_555 1_555
C2A H1A 1_555 1_555
C3A C2A 1_555 1_555
H2A C3A 1_555 1_555
C4A C3A 1_555 1_555
C5A C4A 1_555 1_555
H3A C5A 1_555 1_555
C6A C1A 1_555 1_555
H4A C6A 1_555 1_555
C7A O1A 1_555 1_555
C8A C4A 1_555 1_555
Mg1D O3 1_555 1_555
Mg1D_2 O3A 1_555 1_555
Mg1D_3 O5D 1_555 1_555
Mg2A O2A 1_555 1_555
Mg2B O4A 1_555 1_555
Mg2B_2 O5D 1_555 1_555
Mg2C O4 1_555 1_555
O2F Mg2 1_555 1_555
O3D Mg1 1_555 1_555
O3E Mg1 1_555 1_555
O4C Mg2 1_555 1_555
O4E Mg2 1_555 1_555
O5A Mg1 1_555 1_555
O5F Mg2 1_555 1_555
Mg2 O5 1_555 1_555
C5 C6 1_555 1_555
C12 C13 1_555 1_555
C10D C11D 1_555 1_555
C12D C13D 1_555 1_555
C1A C7A 1_555 1_555
C5A C6A 1_555 1_555
Mg2A O5A 1_555 1_555

#END
