
#######################################################################
#
#                 Cambridge Crystallographic Data Centre
#                                CCDC 
#
#######################################################################
#
# If this CIF has been generated from an entry in the Cambridge 
# Structural Database, then it will include bibliographic, chemical, 
# crystal, experimental, refinement or atomic coordinate data resulting 
# from the CCDC's data processing and validation procedures.
#
#######################################################################

data_HOQMUX
_chemical_formula_moiety         '(C27 H19 Mg2 N3 O12)n'
_symmetry_cell_setting           monoclinic
_symmetry_space_group_name_H-M   'C 2/c'
_symmetry_Int_Tables_number      15
_space_group_name_Hall           '-C 2yc'
loop_
_symmetry_equiv_pos_site_id
_symmetry_equiv_pos_as_xyz
1 x,y,z
2 -x,y,1/2-z
3 1/2+x,1/2+y,z
4 1/2-x,1/2+y,1/2-z
5 -x,-y,-z
6 x,-y,1/2+z
7 1/2-x,1/2-y,-z
8 1/2+x,1/2-y,1/2+z
_cell_length_a                   16.557(2)
_cell_length_b                   18.311(3)
_cell_length_c                   11.9349(17)
_cell_angle_alpha                90
_cell_angle_beta                 123.096(2)
_cell_angle_gamma                90
_cell_volume                     3031.31
loop_
_atom_site_label
_atom_site_type_symbol
_atom_site_fract_x
_atom_site_fract_y
_atom_site_fract_z
Mg1 Mg 0.0000 0.30224(10) 0.2500
Mg2 Mg 0.2500 0.2500 0.5000
O1 O 0.08439(17) 0.37990(14) 0.3820(3)
O2 O 0.22040(18) 0.34318(15) 0.5686(3)
O3 O 0.08595(18) 0.70228(14) 0.6761(3)
O4 O 0.23762(18) 0.68646(15) 0.8472(3)
O5 O 0.09758(17) 0.22253(14) 0.3883(3)
N1 N 0.0698(2) 0.16090(18) 0.4187(3)
C1 C 0.1627(3) 0.4640(2) 0.5581(4)
C2 C 0.2319(3) 0.4785(3) 0.6906(5)
H1 H 0.271(4) 0.443(3) 0.745(5)
C3 C 0.2350(3) 0.5455(3) 0.7450(5)
H2 H 0.281(4) 0.554(3) 0.842(7)
C4 C 0.1685(3) 0.5991(2) 0.6709(4)
C5 C 0.1001(4) 0.5842(3) 0.5383(5)
H3 H 0.073(5) 0.619(4) 0.499(8)
C6 C 0.0981(3) 0.5176(3) 0.4840(5)
H4 H 0.068(4) 0.507(4) 0.404(7)
C7 C 0.1547(3) 0.3900(2) 0.4982(4)
C8 C 0.1642(3) 0.6679(2) 0.7360(4)
C9 C 0.0960(3) 0.0968(2) 0.3952(4)
H5 H 0.144(3) 0.100(2) 0.370(4)
C10 C 0.0678(3) 0.0331(3) 0.4244(4)
H6 H 0.090(3) -0.009(3) 0.412(5)
C11 C 0.0139(3) 0.0345(2) 0.4813(4)
C12 C -0.0113(4) 0.1022(3) 0.5026(6)
H7 H -0.049(3) 0.111(2) 0.539(4)
C13 C 0.0160(3) 0.1650(3) 0.4715(6)
H8 H -0.005(4) 0.219(3) 0.477(5)
O5D O -0.09758(17) -0.22253(14) 0.6117(3)
N1D N -0.0698(2) -0.16090(18) 0.5813(3)
C9D C -0.0960(3) -0.0968(2) 0.6048(4)
H5D H -0.144(3) -0.100(2) 0.630(4)
C10D C -0.0678(3) -0.0331(3) 0.5756(4)
H6D H -0.090(3) 0.009(3) 0.588(5)
C11D C -0.0139(3) -0.0345(2) 0.5187(4)
C12D C 0.0113(4) -0.1022(3) 0.4974(6)
H7D H 0.049(3) -0.111(2) 0.461(4)
C13D C -0.0160(3) -0.1650(3) 0.5285(6)
H8D H 0.005(4) -0.219(3) 0.523(5)
O1A O -0.08439(17) 0.37990(14) 0.1180(3)
O2A O -0.22040(18) 0.34318(15) -0.0686(3)
O3A O -0.08595(18) 0.70228(14) -0.1761(3)
O4A O -0.23762(18) 0.68646(15) -0.3472(3)
C1A C -0.1627(3) 0.4640(2) -0.0581(4)
C2A C -0.2319(3) 0.4785(3) -0.1906(5)
H1A H -0.271(4) 0.443(3) -0.245(5)
C3A C -0.2350(3) 0.5455(3) -0.2450(5)
H2A H -0.281(4) 0.554(3) -0.342(7)
C4A C -0.1685(3) 0.5991(2) -0.1709(4)
C5A C -0.1001(4) 0.5842(3) -0.0383(5)
H3A H -0.073(5) 0.619(4) 0.001(8)
C6A C -0.0981(3) 0.5176(3) 0.0160(5)
H4A H -0.068(4) 0.507(4) 0.096(7)
C7A C -0.1547(3) 0.3900(2) 0.0018(4)
C8A C -0.1642(3) 0.6679(2) -0.2360(4)
Mg1D Mg 0.0000 -0.30224(10) 0.7500
Mg1D_2 Mg 0.0000 0.69776(10) -0.2500
Mg1D_3 Mg 0.0000 0.69776(10) 0.7500
Mg2A Mg -0.2500 0.2500 0.0000
Mg2B Mg -0.2500 -0.2500 0.5000
Mg2B_2 Mg -0.2500 0.7500 -0.5000
Mg2C Mg 0.2500 0.7500 1.0000
O2F O 0.27960(18) 0.15682(15) 0.4314(3)
O3D O -0.08595(18) 0.29772(14) 0.3239(3)
O3E O 0.08595(18) 0.29772(14) 0.1761(3)
O4C O 0.26238(18) 0.18646(15) 0.6528(3)
O4E O 0.23762(18) 0.31354(15) 0.3472(3)
O5A O -0.09758(17) 0.22253(14) 0.1117(3)
O5F O 0.40242(17) 0.27747(14) 0.6117(3)
O6 O 0.1625(9) 0.2939(7) 0.7879(12)
O7 O 0.1291(7) 0.1619(7) 0.8229(11)
N2 N 0.1292(9) 0.2343(7) 0.8439(14)
C14 C 0.1566(14) 0.2267(13) 0.9833(19)
loop_
_geom_bond_atom_site_label_1
_geom_bond_atom_site_label_2
_geom_bond_site_symmetry_1
_geom_bond_site_symmetry_2
Mg1 O1 1_555 1_555
Mg2 O2 1_555 1_555
O1 C7 1_555 1_555
O2 C7 1_555 1_555
O3 C8 1_555 1_555
O4 C8 1_555 1_555
O5 Mg1 1_555 1_555
N1 O5 1_555 1_555
C1 C2 1_555 1_555
C2 H1 1_555 1_555
C3 C2 1_555 1_555
H2 C3 1_555 1_555
C4 C3 1_555 1_555
C5 C4 1_555 1_555
H3 C5 1_555 1_555
C6 C1 1_555 1_555
H4 C6 1_555 1_555
C7 C1 1_555 1_555
C8 C4 1_555 1_555
C9 N1 1_555 1_555
H5 C9 1_555 1_555
C10 C9 1_555 1_555
H6 C10 1_555 1_555
C11 C10 1_555 1_555
C12 C11 1_555 1_555
H7 C12 1_555 1_555
C13 N1 1_555 1_555
H8 C13 1_555 1_555
O6 N2 1_555 1_555
O7 N2 1_555 1_555
N2 C14 1_555 1_555
O5D N1D 1_555 1_555
N1D C9D 1_555 1_555
C9D H5D 1_555 1_555
C10D C9D 1_555 1_555
H6D C10D 1_555 1_555
C11D C11 1_555 1_555
C12D C11D 1_555 1_555
H7D C12D 1_555 1_555
C13D N1D 1_555 1_555
H8D C13D 1_555 1_555
O1A Mg1 1_555 1_555
O2A C7A 1_555 1_555
O3A C8A 1_555 1_555
O4A C8A 1_555 1_555
C1A C2A 1_555 1_555
C2A H1A 1_555 1_555
C3A C2A 1_555 1_555
H2A C3A 1_555 1_555
C4A C3A 1_555 1_555
C5A C4A 1_555 1_555
H3A C5A 1_555 1_555
C6A C1A 1_555 1_555
H4A C6A 1_555 1_555
C7A O1A 1_555 1_555
C8A C4A 1_555 1_555
Mg1D O5D 1_555 1_555
Mg1D_2 O3A 1_555 1_555
Mg1D_3 O3 1_555 1_555
Mg2A O2A 1_555 1_555
Mg2B O5D 1_555 1_555
Mg2B_2 O4A 1_555 1_555
Mg2C O4 1_555 1_555
O2F Mg2 1_555 1_555
O3D Mg1 1_555 1_555
O3E Mg1 1_555 1_555
O4C Mg2 1_555 1_555
O4E Mg2 1_555 1_555
O5A Mg1 1_555 1_555
O5F Mg2 1_555 1_555
Mg2 O5 1_555 1_555
C5 C6 1_555 1_555
C12 C13 1_555 1_555
C10D C11D 1_555 1_555
C12D C13D 1_555 1_555
C1A C7A 1_555 1_555
C5A C6A 1_555 1_555
Mg2A O5A 1_555 1_555

#END
