
#######################################################################
#
#                 Cambridge Crystallographic Data Centre
#                                CCDC 
#
#######################################################################
#
# If this CIF has been generated from an entry in the Cambridge 
# Structural Database, then it will include bibliographic, chemical, 
# crystal, experimental, refinement or atomic coordinate data resulting 
# from the CCDC's data processing and validation procedures.
#
#######################################################################

data_FORWAL
_chemical_formula_moiety         '(C21 H39 Fe1 Na1 O23 3-)n'
_symmetry_cell_setting           cubic
_symmetry_space_group_name_H-M   'P 21 3'
_symmetry_Int_Tables_number      198
_space_group_name_Hall           'P 2ac 2ab 3'
loop_
_symmetry_equiv_pos_site_id
_symmetry_equiv_pos_as_xyz
1 x,y,z
2 1/2-x,-y,1/2+z
3 -x,1/2+y,1/2-z
4 1/2+x,1/2-y,-z
5 z,x,y
6 1/2+z,1/2-x,-y
7 1/2-z,-x,1/2+y
8 -z,1/2+x,1/2-y
9 y,z,x
10 -y,1/2+z,1/2-x
11 1/2+y,1/2-z,-x
12 1/2-y,-z,1/2+x
_cell_length_a                   15.6019(14)
_cell_length_b                   15.6019(14)
_cell_length_c                   15.6019(14)
_cell_angle_alpha                90
_cell_angle_beta                 90
_cell_angle_gamma                90
_cell_volume                     3797.8
loop_
_atom_site_label
_atom_site_type_symbol
_atom_site_fract_x
_atom_site_fract_y
_atom_site_fract_z
_atom_site_U_iso_or_equiv
_atom_site_thermal_displace_type
Fe1 Fe 0.39758(4) 0.60242(4) 1.10242(4) 0.0247 Uani
Na1 Na 0.30217(17) 0.19783(17) 0.80217(17) 0.0427 Uani
C1 C 0.2687(3) 0.5037(3) 1.0115(3) 0.0317 Uani
C2 C 0.2703(4) 0.4073(4) 1.0192(3) 0.0377 Uani
H1 H 0.2121 0.3865 1.0264 0.0450 Uiso
H2 H 0.3026 0.3914 1.0698 0.0450 Uiso
C3 C 0.3104(5) 0.3640(4) 0.9405(4) 0.0417 Uani
H3 H 0.3709 0.3804 0.9364 0.0500 Uiso
C4 C 0.2639(4) 0.3929(4) 0.8601(3) 0.0343 Uani
H4 H 0.2047 0.3722 0.8626 0.0410 Uiso
C5 C 0.2626(4) 0.4907(4) 0.8511(4) 0.0340 Uani
H5 H 0.2293 0.5058 0.8000 0.0410 Uiso
C6 C 0.2194(4) 0.5307(4) 0.9301(4) 0.0380 Uani
H6 H 0.1604 0.5115 0.9338 0.0460 Uiso
H7 H 0.2194 0.5927 0.9250 0.0460 Uiso
C7 C 0.2235(4) 0.5406(4) 1.0922(4) 0.0353 Uani
O1 O 0.3527(2) 0.5376(2) 1.0078(2) 0.0342 Uani
H8 H 0.3685 0.5400 0.9577 0.0510 Uiso
O2 O 0.2716(3) 0.5840(2) 1.1419(2) 0.0342 Uani
O3 O 0.1465(4) 0.5268(3) 1.1040(4) 0.0573 Uani
O4 O 0.3040(5) 0.2723(3) 0.9439(4) 0.0637 Uani
H9 H 0.3209 0.2553 0.9907 0.0960 Uiso
O5 O 0.3059(3) 0.3534(3) 0.7881(3) 0.0401 Uani
H10 H 0.2844 0.3709 0.7435 0.0600 Uiso
O6 O 0.3488(3) 0.5231(3) 0.8410(3) 0.0443 Uani
H11 H 0.3689 0.5343 0.8882 0.0660 Uiso
Na1B Na 0.69783(17) 0.69783(17) 0.69783(17) 0.0427 Uani
Na1C Na 0.80217(17) 0.30217(17) 1.19783(17) 0.0427 Uani
C1F C 0.4885(3) 0.7313(3) 1.0037(3) 0.0317 Uani
C1I C 0.4963(3) 0.5115(3) 1.2313(3) 0.0317 Uani
C2F C 0.4808(3) 0.7297(4) 0.9073(4) 0.0377 Uani
C2I C 0.5927(4) 0.5192(3) 1.2297(4) 0.0377 Uani
H1F H 0.4736 0.7879 0.8865 0.0450 Uiso
H1I H 0.6135 0.5264 1.2879 0.0450 Uiso
H2F H 0.4302 0.6974 0.8914 0.0450 Uiso
H2I H 0.6086 0.5698 1.1974 0.0450 Uiso
C3F C 0.5595(4) 0.6896(5) 0.8640(4) 0.0417 Uani
C3I C 0.6360(4) 0.4405(4) 1.1896(5) 0.0417 Uani
H3F H 0.5636 0.6291 0.8804 0.0500 Uiso
H3I H 0.6196 0.4364 1.1291 0.0500 Uiso
C4F C 0.6399(3) 0.7361(4) 0.8929(4) 0.0343 Uani
C4I C 0.6071(4) 0.3601(3) 1.2361(4) 0.0343 Uani
H4F H 0.6374 0.7953 0.8722 0.0410 Uiso
H4I H 0.6278 0.3626 1.2953 0.0410 Uiso
C5F C 0.6489(4) 0.7374(4) 0.9907(4) 0.0340 Uani
C5I C 0.5093(4) 0.3511(4) 1.2374(4) 0.0340 Uani
H5F H 0.7000 0.7707 1.0058 0.0410 Uiso
H5I H 0.4942 0.3000 1.2707 0.0410 Uiso
C6F C 0.5699(4) 0.7806(4) 1.0307(4) 0.0380 Uani
C6I C 0.4693(4) 0.4301(4) 1.2806(4) 0.0380 Uani
H6F H 0.5662 0.8396 1.0115 0.0460 Uiso
H6I H 0.4885 0.4338 1.3396 0.0460 Uiso
H7F H 0.5750 0.7806 1.0927 0.0460 Uiso
H7I H 0.4073 0.4250 1.2806 0.0460 Uiso
C7F C 0.4078(4) 0.7765(4) 1.0406(4) 0.0353 Uani
C7I C 0.4594(4) 0.5922(4) 1.2765(4) 0.0353 Uani
O1F O 0.4922(2) 0.6473(2) 1.0376(2) 0.0342 Uani
O1I O 0.4624(2) 0.5078(2) 1.1473(2) 0.0342 Uani
H8F H 0.5423 0.6315 1.0400 0.0510 Uiso
H8I H 0.4600 0.4577 1.1315 0.0510 Uiso
O2F O 0.3581(2) 0.7284(3) 1.0840(2) 0.0342 Uani
O2I O 0.4160(2) 0.6419(2) 1.2284(3) 0.0342 Uani
O3F O 0.3960(4) 0.8535(4) 1.0268(3) 0.0573 Uani
O3I O 0.4732(3) 0.6040(4) 1.3535(4) 0.0573 Uani
O4F O 0.5561(4) 0.6960(5) 0.7723(3) 0.0637 Uani
O4I O 0.7277(3) 0.4439(4) 1.1960(5) 0.0637 Uani
O4E O 0.4439(4) 0.1960(5) 0.7277(3) 0.0637 Uani
O4K O 0.2277(3) 0.0561(4) 0.8040(5) 0.0637 Uani
H9F H 0.5093 0.6791 0.7553 0.0960 Uiso
H9I H 0.7447 0.4907 1.1791 0.0960 Uiso
H9E H 0.4907 0.1791 0.7447 0.0960 Uiso
H9K H 0.2447 0.0093 0.8209 0.0960 Uiso
O5F O 0.7119(3) 0.6941(3) 0.8534(3) 0.0401 Uani
O5I O 0.6466(3) 0.2881(3) 1.1941(3) 0.0401 Uani
O5E O 0.2881(3) 0.1941(3) 0.6466(3) 0.0401 Uani
O5K O 0.1466(3) 0.2119(3) 0.8059(3) 0.0401 Uani
H10F H 0.7565 0.7156 0.8709 0.0600 Uiso
H10I H 0.6291 0.2435 1.2156 0.0600 Uiso
H10E H 0.2435 0.2156 0.6291 0.0600 Uiso
H10K H 0.1291 0.2565 0.7844 0.0600 Uiso
O6F O 0.6590(3) 0.6512(3) 1.0231(3) 0.0443 Uani
O6I O 0.4769(3) 0.3410(3) 1.1512(3) 0.0443 Uani
H11F H 0.6118 0.6311 1.0343 0.0660 Uiso
H11I H 0.4657 0.3882 1.1311 0.0660 Uiso
O7 O 0.3636(7) 0.2123(6) 0.1076(9) 0.1280 Uani
O8 O 0.7995(6) 0.7005(6) 0.2995(6) 0.1440 Uani
O9 O 0.9704(5) 0.5296(5) 0.4704(5) 0.1160 Uani
O10 O 0.8731(16) 0.7019(14) 0.5112(16) 0.3533 Uani
O11 O 0.8894(4) 0.6106(4) 0.3894(4) 0.0900 Uani
loop_
_atom_site_aniso_label
_atom_site_aniso_U_11
_atom_site_aniso_U_22
_atom_site_aniso_U_33
_atom_site_aniso_U_23
_atom_site_aniso_U_13
_atom_site_aniso_U_12
Fe1 0.0247(3) 0.0247(3) 0.0247(3) 0.0003(3) -0.0003(3) -0.0003(3)
Na1 0.0427(9) 0.0427(9) 0.0427(9) -0.0037(10) 0.0037(10) -0.0037(10)
C1 0.032(3) 0.033(2) 0.030(2) -0.0009(19) -0.0075(19) -0.003(2)
C2 0.053(3) 0.033(3) 0.027(2) 0.001(2) -0.007(2) -0.011(2)
C3 0.059(4) 0.028(2) 0.038(3) -0.003(2) -0.011(3) 0.002(2)
C4 0.039(3) 0.035(3) 0.029(2) -0.008(2) -0.004(2) 0.002(2)
C5 0.042(3) 0.029(2) 0.031(2) -0.0017(19) -0.011(2) 0.002(2)
C6 0.039(3) 0.040(3) 0.035(3) 0.001(2) -0.009(2) 0.008(2)
C7 0.038 0.036 0.032 -0.003 -0.002 -0.004
O1 0.0331(19) 0.040(2) 0.0295(18) -0.0081(15) 0.0017(15) -0.0015(16)
O2 0.0331 0.038 0.0314 -0.0048 0.0021 -0.0071
O3 0.03 0.087 0.055 -0.016 0.008 -0.016
O4 0.113(5) 0.026(2) 0.052(3) 0.0026(19) -0.027(3) 0.008(2)
O5 0.051(2) 0.039(2) 0.0302(18) -0.0072(16) -0.0072(17) 0.0101(18)
O6 0.049(2) 0.044(2) 0.040(2) -0.0043(17) 0.0083(18) -0.0075(19)
Na1B 0.0427 0.0427 0.0427 0.0037 0.0037 0.0037
Na1C 0.0427 0.0427 0.0427 -0.0037 -0.0037 0.0037
C1F 0.03 0.032 0.033 0.003 0.0009 -0.0075
C1I 0.033 0.03 0.032 0.0075 -0.003 0.0009
C2F 0.027 0.053 0.033 0.011 -0.001 -0.007
C2I 0.033 0.027 0.053 0.007 -0.011 -0.001
C3F 0.038 0.059 0.028 -0.002 0.003 -0.011
C3I 0.028 0.038 0.059 0.011 0.002 0.003
C4F 0.029 0.039 0.035 -0.002 0.008 -0.004
C4I 0.035 0.029 0.039 0.004 0.002 0.008
C5F 0.031 0.042 0.029 -0.002 0.0017 -0.011
C5I 0.029 0.031 0.042 0.011 0.002 0.0017
C6F 0.035 0.039 0.04 -0.008 -0.001 -0.009
C6I 0.04 0.035 0.039 0.009 0.008 -0.001
C7F 0.032 0.038 0.036 0.004 0.003 -0.002
C7I 0.036 0.032 0.038 0.002 -0.004 0.003
O1F 0.0295 0.0331 0.04 0.0015 0.0081 0.0017
O1I 0.04 0.0295 0.0331 -0.0017 -0.0015 0.0081
O2F 0.0314 0.0331 0.038 0.0071 0.0048 0.0021
O2I 0.038 0.0314 0.0331 -0.0021 -0.0071 0.0048
O3F 0.055 0.03 0.087 0.016 0.016 0.008
O3I 0.087 0.055 0.03 -0.008 -0.016 0.016
O4F 0.052 0.113 0.026 -0.008 -0.0026 -0.027
O4I 0.026 0.052 0.113 0.027 0.008 -0.0026
O4E 0.052 0.113 0.026 0.008 -0.0026 0.027
O4K 0.026 0.052 0.113 0.027 -0.008 0.0026
O5F 0.0302 0.051 0.039 -0.0101 0.0072 -0.0072
O5I 0.039 0.0302 0.051 0.0072 0.0101 0.0072
O5E 0.0302 0.051 0.039 0.0101 0.0072 0.0072
O5K 0.039 0.0302 0.051 0.0072 -0.0101 -0.0072
O6F 0.04 0.049 0.044 0.0075 0.0043 0.0083
O6I 0.044 0.04 0.049 -0.0083 -0.0075 0.0043
O7 0.123(7) 0.074(5) 0.187(11) 0.000(6) -0.058(8) 0.001(5)
O8 0.144(8) 0.144(8) 0.144(8) 0.043(6) -0.043(6) 0.043(6)
O9 0.116(5) 0.116(5) 0.116(5) 0.024(5) -0.024(5) 0.024(5)
O10 0.39(3) 0.30(2) 0.37(3) 0.24(3) 0.30(3) 0.26(3)
O11 0.090(4) 0.090(4) 0.090(4) 0.020(4) -0.020(4) 0.020(4)
loop_
_geom_bond_atom_site_label_1
_geom_bond_atom_site_label_2
_geom_bond_site_symmetry_1
_geom_bond_site_symmetry_2
Fe1 O1 1_555 1_555
Na1 O4 1_555 1_555
C1 C2 1_555 1_555
C2 H1 1_555 1_555
H2 C2 1_555 1_555
C3 C2 1_555 1_555
H3 C3 1_555 1_555
C4 C3 1_555 1_555
H4 C4 1_555 1_555
C5 C4 1_555 1_555
H5 C5 1_555 1_555
C6 C1 1_555 1_555
H6 C6 1_555 1_555
H7 C6 1_555 1_555
C7 C1 1_555 1_555
O1 C1 1_555 1_555
H8 O1 1_555 1_555
O2 Fe1 1_555 1_555
O3 C7 1_555 1_555
O4 C3 1_555 1_555
H9 O4 1_555 1_555
O5 Na1 1_555 1_555
H10 O5 1_555 1_555
O6 C5 1_555 1_555
H11 O6 1_555 1_555
Na1B O4F 1_555 1_555
Na1C O4I 1_555 1_555
C1F C2F 1_555 1_555
C1I C2I 1_555 1_555
C2F H1F 1_555 1_555
C2I H1I 1_555 1_555
H2F C2F 1_555 1_555
H2I C2I 1_555 1_555
C3F C2F 1_555 1_555
C3I C2I 1_555 1_555
H3F C3F 1_555 1_555
H3I C3I 1_555 1_555
C4F C3F 1_555 1_555
C4I C3I 1_555 1_555
H4F C4F 1_555 1_555
H4I C4I 1_555 1_555
C5F C4F 1_555 1_555
C5I C4I 1_555 1_555
H5F C5F 1_555 1_555
H5I C5I 1_555 1_555
C6F C1F 1_555 1_555
C6I C1I 1_555 1_555
H6F C6F 1_555 1_555
H6I C6I 1_555 1_555
H7F C6F 1_555 1_555
H7I C6I 1_555 1_555
C7F C1F 1_555 1_555
C7I C1I 1_555 1_555
O1F Fe1 1_555 1_555
O1I Fe1 1_555 1_555
H8F O1F 1_555 1_555
H8I O1I 1_555 1_555
O2F Fe1 1_555 1_555
O2I Fe1 1_555 1_555
O3F C7F 1_555 1_555
O3I C7I 1_555 1_555
O4F C3F 1_555 1_555
O4I C3I 1_555 1_555
O4E Na1 1_555 1_555
O4K Na1 1_555 1_555
H9F O4F 1_555 1_555
H9I O4I 1_555 1_555
H9E O4E 1_555 1_555
H9K O4K 1_555 1_555
O5F Na1B 1_555 1_555
O5I Na1C 1_555 1_555
O5E Na1 1_555 1_555
O5K Na1 1_555 1_555
H10F O5F 1_555 1_555
H10I O5I 1_555 1_555
H10E O5E 1_555 1_555
H10K O5K 1_555 1_555
O6F C5F 1_555 1_555
O6I C5I 1_555 1_555
H11F O6F 1_555 1_555
H11I O6I 1_555 1_555
C4 O5 1_555 1_555
C5 C6 1_555 1_555
C7 O2 1_555 1_555
C1F O1F 1_555 1_555
C1I O1I 1_555 1_555
C4F O5F 1_555 1_555
C4I O5I 1_555 1_555
C5F C6F 1_555 1_555
C5I C6I 1_555 1_555
C7F O2F 1_555 1_555
C7I O2I 1_555 1_555

#END
