
#######################################################################
#
#                 Cambridge Crystallographic Data Centre
#                                CCDC 
#
#######################################################################
#
# If this CIF has been generated from an entry in the Cambridge 
# Structural Database, then it will include bibliographic, chemical, 
# crystal, experimental, refinement or atomic coordinate data resulting 
# from the CCDC's data processing and validation procedures.
#
#######################################################################

data_LEYYET
_chemical_formula_moiety         '(C1 H7 Al3 N1 O13 P3)n'
_symmetry_cell_setting           orthorhombic
_symmetry_space_group_name_H-M   'P c a b'
_symmetry_Int_Tables_number      61
_space_group_name_Hall           '-P 2bc 2ac'
loop_
_symmetry_equiv_pos_site_id
_symmetry_equiv_pos_as_xyz
1 x,y,z
2 -x,1/2-y,1/2+z
3 1/2+x,-y,1/2-z
4 1/2-x,1/2+y,-z
5 -x,-y,-z
6 x,1/2+y,1/2-z
7 1/2-x,y,1/2+z
8 1/2+x,1/2-y,z
_cell_length_a                   10.281(2)
_cell_length_b                   13.844(3)
_cell_length_c                   17.064(5)
_cell_angle_alpha                90
_cell_angle_beta                 90
_cell_angle_gamma                90
_cell_volume                     2428.72
loop_
_atom_site_label
_atom_site_type_symbol
_atom_site_fract_x
_atom_site_fract_y
_atom_site_fract_z
P1 P 0.3676(1) -0.74672(9) 0.20387(7)
P2 P 0.1263(1) -0.53987(9) 0.33711(7)
P3 P 0.3707(1) -0.43332(8) 0.58027(7)
Al1 Al 0.3298(1) -0.5211(1) 0.19812(8)
Al2 Al 0.3749(1) -0.4383(1) 0.39344(8)
Al3 Al 0.1219(1) -0.7586(1) 0.30632(8)
O1 O 0.3270(3) -0.6469(2) 0.1774(2)
O2 O 0.1182(4) -0.6488(2) 0.3555(2)
O3 O 0.4036(3) -0.4818(2) 0.2892(2)
O4 O 0.3587(3) -0.8143(2) 0.1350(2)
O5 O 0.2204(3) -0.4976(3) 0.3959(2)
O6 O 0.1685(3) -0.5237(2) 0.2530(2)
O7 O 0.4667(3) -0.5167(2) 0.5845(2)
O8 O 0.4229(3) -0.3471(2) 0.6274(2)
O9 O 0.3502(3) -0.4009(2) 0.4967(2)
O10 O 0.2394(3) -0.4625(2) 0.6149(2)
O11 O 0.2779(3) -0.7807(3) 0.2703(2)
O12 O -0.0054(3) -0.4953(3) 0.3513(2)
O13 O 0.5076(3) -0.7450(3) 0.2325(2)
H1 H 0.5019(3) -0.4704(2) 0.2862(2)
O4E O 0.3587(3) -0.3143(2) 0.3650(2)
Al2E Al 0.3749(1) -0.9383(1) 0.10656(8)
O12B O 0.4946(3) -0.5047(3) 0.1487(2)
O13G O 0.0076(3) -0.7550(3) 0.2325(2)
Al3G Al 0.6219(1) -0.7414(1) 0.30632(8)
Al1B Al -0.1702(1) -0.4789(1) 0.30188(8)
Al2D Al 0.6251(1) -0.5617(1) 0.60656(8)
O7D O 0.5333(3) -0.4833(2) 0.4155(2)
O8C O 0.0771(3) -0.8471(2) 0.3726(2)
O10F O 0.2606(3) -0.4625(2) 0.1149(2)
Al3C Al 0.3781(1) -0.2586(1) 0.69368(8)
Al1F Al 0.1702(1) -0.5211(1) 0.69812(8)
N1 N 0.4452(7) -0.3621(6) -0.0060(4)
C1 C 0.396(1) -0.2614(7) -0.0152(6)
H2 H 0.4621(7) -0.3922(6) -0.0563(4)
H3 H 0.5282(7) -0.3595(6) 0.0245(4)
H4 H 0.3798(7) -0.4017(6) 0.0231(4)
H5 H 0.384(1) -0.2521(7) -0.0698(6)
H6 H 0.460(1) -0.2134(7) 0.0057(6)
H7 H 0.311(1) -0.2545(7) 0.0131(6)
loop_
_geom_bond_atom_site_label_1
_geom_bond_atom_site_label_2
_geom_bond_site_symmetry_1
_geom_bond_site_symmetry_2
P1 O1 1_555 1_555
P2 O2 1_555 1_555
P3 O7 1_555 1_555
Al1 O1 1_555 1_555
Al2 O3 1_555 1_555
Al3 O2 1_555 1_555
O3 Al1 1_555 1_555
O4 P1 1_555 1_555
O5 P2 1_555 1_555
O6 P2 1_555 1_555
O7 Al2D 1_555 1_555
O8 P3 1_555 1_555
O9 P3 1_555 1_555
O10 P3 1_555 1_555
O11 P1 1_555 1_555
O12 P2 1_555 1_555
O13 P1 1_555 1_555
H1 O3 1_555 1_555
N1 C1 1_555 1_555
C1 H5 1_555 1_555
H2 N1 1_555 1_555
H3 N1 1_555 1_555
H4 N1 1_555 1_555
H6 C1 1_555 1_555
H7 C1 1_555 1_555
O4E Al2 1_555 1_555
Al2E O4 1_555 1_555
O12B Al1 1_555 1_555
O13G Al3 1_555 1_555
Al3G O13 1_555 1_555
Al1B O12 1_555 1_555
O7D Al2 1_555 1_555
O8C Al3 1_555 1_555
O10F Al1 1_555 1_555
Al3C O8 1_555 1_555
Al1F O10 1_555 1_555
Al1 O6 1_555 1_555
Al2 O5 1_555 1_555
Al2 O9 1_555 1_555
Al3 O11 1_555 1_555

#END
