
#######################################################################
#
#                 Cambridge Crystallographic Data Centre
#                                CCDC 
#
#######################################################################
#
# If this CIF has been generated from an entry in the Cambridge 
# Structural Database, then it will include bibliographic, chemical, 
# crystal, experimental, refinement or atomic coordinate data resulting 
# from the CCDC's data processing and validation procedures.
#
#######################################################################

data_DOKBUC
_chemical_formula_moiety         '(C40 H30 Fe2 N4 O12)n'
_symmetry_cell_setting           orthorhombic
_symmetry_space_group_name_H-M   'P c c a'
_symmetry_Int_Tables_number      54
_space_group_name_Hall           '-P 2a 2ac'
loop_
_symmetry_equiv_pos_site_id
_symmetry_equiv_pos_as_xyz
1 x,y,z
2 1/2-x,-y,z
3 -x,y,1/2-z
4 1/2+x,-y,1/2-z
5 -x,-y,-z
6 1/2+x,y,-z
7 x,-y,1/2+z
8 1/2-x,y,1/2+z
_cell_length_a                   9.021(5)
_cell_length_b                   13.841(8)
_cell_length_c                   30.183(18)
_cell_angle_alpha                90
_cell_angle_beta                 90
_cell_angle_gamma                90
_cell_volume                     3768.64
loop_
_atom_site_label
_atom_site_type_symbol
_atom_site_fract_x
_atom_site_fract_y
_atom_site_fract_z
C1 C -0.0000 0.4357(3) 0.2500
H1 H -0.0000 0.3685 0.2500
C2 C 0.1333(3) 0.6739(2) 0.18996(9)
C3 C 0.1920(3) 0.6788(2) 0.14317(9)
C4 C 0.3337(4) 0.6506(3) 0.13248(11)
H2 H 0.3985 0.6325 0.1550
C5 C 0.3822(4) 0.6485(3) 0.08885(11)
H3 H 0.4785 0.6298 0.0820
C6 C 0.2843(4) 0.6749(3) 0.05567(10)
C7 C 0.1452(4) 0.7061(3) 0.06554(11)
H4 H 0.0817 0.7258 0.0430
C8 C 0.0984(4) 0.7085(3) 0.10912(11)
H5 H 0.0033 0.7301 0.1158
C9 C 0.2888(4) 0.5826(3) -0.01032(10)
C10 C 0.2500 0.5000 0.01346(14)
H6 H 0.2500 0.5000 0.0443
C11 C 0.2500 0.5000 -0.12909(13)
C12 C 0.2500 0.5000 -0.07922(13)
C13 C 0.2910(3) 0.5831(2) -0.05581(10)
H7 H 0.3196 0.6385 -0.0710
C14 C 0.3462(8) 0.8307(4) 0.28236(14)
H8 H 0.3385 0.8391 0.2519
C15 C 0.3958(10) 0.8982(4) 0.31119(16)
H9 H 0.4319 0.9592 0.3042
C16 C 0.3308(4) 0.7700(3) 0.34622(12)
H10 H 0.3119 0.7272 0.3693
C17 C 0.4166(5) 0.9012(3) 0.39473(14)
C18 C 0.3473(7) 0.8683(3) 0.43191(16)
H11 H 0.2757 0.8203 0.4296
C19 C 0.3820(7) 0.9055(3) 0.47275(15)
H12 H 0.3360 0.8803 0.4978
C20 C 0.4840(5) 0.9794(3) 0.47761(14)
C21 C 0.5470(8) 1.0123(5) 0.43987(18)
H13 H 0.6156 1.0622 0.4418
C22 C 0.5142(8) 0.9752(5) 0.39836(17)
H14 H 0.5588 1.0008 0.3732
Fe1 Fe 0.19364(5) 0.61714(3) 0.285204(12)
N1 N 0.3092(3) 0.7489(2) 0.30449(9)
N2 N 0.3826(4) 0.8592(2) 0.35236(10)
O1 O 0.2853(3) 0.57742(17) -0.14806(7)
O2 O 0.2237(3) 0.6510(2) 0.21960(7)
O3 O -0.0006(2) 0.69220(17) 0.19619(7)
O4 O 0.3301(3) 0.66730(19) 0.01138(7)
O5 O 0.1009(2) 0.47534(14) 0.27182(6)
O5B O -0.1009(2) 0.47534(14) 0.22818(6)
C2A C 0.3667(3) 0.3261(2) 0.18996(9)
C3A C 0.3080(3) 0.3212(2) 0.14317(9)
C4A C 0.1663(4) 0.3494(3) 0.13248(11)
H2A H 0.1015 0.3675 0.1550
C5A C 0.1178(4) 0.3515(3) 0.08885(11)
H3A H 0.0215 0.3702 0.0820
C6A C 0.2157(4) 0.3251(3) 0.05567(10)
C7A C 0.3548(4) 0.2939(3) 0.06554(11)
H4A H 0.4183 0.2742 0.0430
C8A C 0.4016(4) 0.2915(3) 0.10912(11)
H5A H 0.4967 0.2699 0.1158
C9A C 0.2112(4) 0.4174(3) -0.01032(10)
O2A O 0.2763(3) 0.3490(2) 0.21960(7)
O3A O 0.5006(2) 0.30780(17) 0.19619(7)
O4A O 0.1699(3) 0.33270(19) 0.01138(7)
C13A C 0.2090(3) 0.4169(2) -0.05581(10)
H7A H 0.1804 0.3615 -0.0710
O1A O 0.2147(3) 0.42258(17) -0.14806(7)
C14D C 0.6538(8) 1.1693(4) 0.71764(14)
H8D H 0.6615 1.1609 0.7481
C15D C 0.6042(10) 1.1018(4) 0.68881(16)
H9D H 0.5681 1.0408 0.6958
C16D C 0.6692(4) 1.2300(3) 0.65378(12)
H10D H 0.6881 1.2728 0.6307
C17D C 0.5834(5) 1.0988(3) 0.60527(14)
C18D C 0.6527(7) 1.1317(3) 0.56809(16)
H11D H 0.7243 1.1797 0.5704
C19D C 0.6180(7) 1.0945(3) 0.52725(15)
H12D H 0.6640 1.1197 0.5022
C20D C 0.5160(5) 1.0206(3) 0.52239(14)
C21D C 0.4530(8) 0.9877(5) 0.56013(18)
H13D H 0.3844 0.9378 0.5582
C22D C 0.4858(8) 1.0248(5) 0.60164(17)
H14D H 0.4412 0.9992 0.6268
N1D N 0.6908(3) 1.2511(2) 0.69551(9)
N2D N 0.6174(4) 1.1408(2) 0.64764(10)
Fe1A Fe 0.30636(5) 0.38286(3) 0.285204(12)
Fe1B Fe -0.19364(5) 0.61714(3) 0.214796(12)
Fe1C Fe -0.30636(5) 0.38286(3) 0.214796(12)
Fe1C_2 Fe 0.69364(5) 0.38286(3) 0.214796(12)
Fe1D Fe 0.80636(5) 1.38286(3) 0.714796(12)
Fe1F Fe 0.19364(5) 0.38286(3) -0.214796(12)
Fe1G Fe 0.30636(5) 0.61714(3) -0.214796(12)
N1A N 0.1908(3) 0.2511(2) 0.30449(9)
O1F O 0.2853(3) 0.42258(17) 0.35194(7)
O1G O 0.2147(3) 0.57742(17) 0.35194(7)
O3B O 0.0006(2) 0.69220(17) 0.30381(7)
O3C O 0.4994(2) 0.30780(17) 0.30381(7)
O5A O 0.3991(2) 0.52466(14) 0.27182(6)
O6 O 0.7500 1.0000 0.2970(6)
H15 H 0.735(6) 1.041(3) 0.3163(16)
H15A H 0.765(6) 0.959(3) 0.3163(16)
O7 O -0.0000 0.8768(8) 0.2500
H16 H 0.028(10) 0.892(5) 0.2254(11)
H16B H -0.028(10) 0.892(5) 0.2746(11)
loop_
_geom_bond_atom_site_label_1
_geom_bond_atom_site_label_2
_geom_bond_site_symmetry_1
_geom_bond_site_symmetry_2
C1 H1 1_555 1_555
C2 C3 1_555 1_555
C3 C4 1_555 1_555
C4 H2 1_555 1_555
C5 C4 1_555 1_555
H3 C5 1_555 1_555
C6 C5 1_555 1_555
C7 C6 1_555 1_555
H4 C7 1_555 1_555
C8 C3 1_555 1_555
H5 C8 1_555 1_555
C9 C10 1_555 1_555
C10 H6 1_555 1_555
C11 C12 1_555 1_555
C12 C13 1_555 1_555
C13 C9 1_555 1_555
H7 C13 1_555 1_555
C14 H8 1_555 1_555
C15 C14 1_555 1_555
H9 C15 1_555 1_555
C16 H10 1_555 1_555
C17 C18 1_555 1_555
C18 H11 1_555 1_555
C19 C18 1_555 1_555
H12 C19 1_555 1_555
C20 C19 1_555 1_555
C21 C20 1_555 1_555
H13 C21 1_555 1_555
C22 C17 1_555 1_555
H14 C22 1_555 1_555
Fe1 N1 1_555 1_555
N1 C14 1_555 1_555
N2 C15 1_555 1_555
O1 C11 1_555 1_555
O2 C2 1_555 1_555
O3 C2 1_555 1_555
O4 C6 1_555 1_555
O5 C1 1_555 1_555
O6 H15 1_555 1_555
O7 H16 1_555 1_555
O5B C1 1_555 1_555
C2A C3A 1_555 1_555
C3A C4A 1_555 1_555
C4A H2A 1_555 1_555
C5A C4A 1_555 1_555
H3A C5A 1_555 1_555
C6A C5A 1_555 1_555
C7A C6A 1_555 1_555
H4A C7A 1_555 1_555
C8A C3A 1_555 1_555
H5A C8A 1_555 1_555
C9A C10 1_555 1_555
O2A C2A 1_555 1_555
O3A C2A 1_555 1_555
O4A C6A 1_555 1_555
C13A C12 1_555 1_555
H7A C13A 1_555 1_555
O1A C11 1_555 1_555
C14D H8D 1_555 1_555
C15D C14D 1_555 1_555
H9D C15D 1_555 1_555
C16D H10D 1_555 1_555
C17D C18D 1_555 1_555
C18D H11D 1_555 1_555
C19D C18D 1_555 1_555
H12D C19D 1_555 1_555
C20D C20 1_555 1_555
C21D C20D 1_555 1_555
H13D C21D 1_555 1_555
C22D C17D 1_555 1_555
H14D C22D 1_555 1_555
N1D C14D 1_555 1_555
N2D C15D 1_555 1_555
Fe1A O5 1_555 1_555
Fe1B O3 1_555 1_555
Fe1C O5B 1_555 1_555
Fe1C_2 O3A 1_555 1_555
Fe1D N1D 1_555 1_555
Fe1F O1A 1_555 1_555
Fe1G O1 1_555 1_555
N1A Fe1A 1_555 1_555
O1F Fe1A 1_555 1_555
O1G Fe1 1_555 1_555
O3B Fe1 1_555 1_555
O3C Fe1A 1_555 1_555
O5A Fe1 1_555 1_555
H15A O6 1_555 1_555
H16B O7 1_555 1_555
C7 C8 1_555 1_555
C9 O4 1_555 1_555
C16 N1 1_555 1_555
C16 N2 1_555 1_555
C17 N2 1_555 1_555
C21 C22 1_555 1_555
Fe1 O2 1_555 1_555
Fe1 O5 1_555 1_555
O5B Fe1B 1_555 1_555
C7A C8A 1_555 1_555
C9A O4A 1_555 1_555
C9A C13A 1_555 1_555
O2A Fe1A 1_555 1_555
C16D N1D 1_555 1_555
C16D N2D 1_555 1_555
C17D N2D 1_555 1_555
C19D C20D 1_555 1_555
C21D C22D 1_555 1_555
Fe1A O5A 1_555 1_555

#END
