
#######################################################################
#
#                 Cambridge Crystallographic Data Centre
#                                CCDC 
#
#######################################################################
#
# If this CIF has been generated from an entry in the Cambridge 
# Structural Database, then it will include bibliographic, chemical, 
# crystal, experimental, refinement or atomic coordinate data resulting 
# from the CCDC's data processing and validation procedures.
#
#######################################################################

data_TIQGUW
_chemical_formula_moiety         '(C40 H46 Cl1 Eu1 N8 Na6 O43 S8)n'
_symmetry_cell_setting           tetragonal
_symmetry_space_group_name_H-M   'P -4'
_symmetry_Int_Tables_number      81
_space_group_name_Hall           'P -4'
loop_
_symmetry_equiv_pos_site_id
_symmetry_equiv_pos_as_xyz
1 x,y,z
2 -x,-y,z
3 y,-x,-z
4 -y,x,-z
_cell_length_a                   12.265(5)
_cell_length_b                   12.265(5)
_cell_length_c                   12.421(5)
_cell_angle_alpha                90
_cell_angle_beta                 90
_cell_angle_gamma                90
_cell_volume                     1868.49
loop_
_atom_site_label
_atom_site_type_symbol
_atom_site_fract_x
_atom_site_fract_y
_atom_site_fract_z
C1 C 0.1321(5) 0.7647(6) 0.1806(6)
H1 H 0.1072 0.7199 0.1232
C2 C 0.1368(6) 0.7232(6) 0.2820(6)
H2 H 0.1171 0.6494 0.2950
C3 C 0.1709(5) 0.7898(5) 0.3673(5)
C4 C 0.1997(5) 0.8975(5) 0.3456(5)
H3 H 0.2221 0.9445 0.4022
C5 C 0.1952(5) 0.9352(5) 0.2406(5)
C6 C 0.2366(5) 1.0444(5) 0.2133(5)
C7 C 0.3432(5) 1.0737(5) 0.2390(5)
H4 H 0.3915 1.0204 0.2674
C8 C 0.3795(5) 1.1789(5) 0.2237(5)
C9 C 0.3091(6) 1.2538(5) 0.1773(6)
H5 H 0.3337 1.3255 0.1618
C10 C 0.2029(5) 1.2239(5) 0.1535(6)
H6 H 0.1544 1.2764 0.1239
N1 N 0.1620(4) 0.8682(4) 0.1605(4)
N2 N 0.1675(5) 1.1219(5) 0.1717(4)
O1 O 0.1574(4) 0.9048(4) 0.0602(3)
O2 O 0.0661(3) 1.0967(4) 0.1548(4)
O3 O 0.0859(4) 0.6698(4) 0.5132(5)
O4 O 0.1898(5) 0.8279(4) 0.5715(4)
O5 O 0.2822(4) 0.6697(4) 0.4980(7)
O6 O 0.5410(4) 1.1407(5) 0.3495(4)
O7 O 0.5091(5) 1.3249(5) 0.2960(8)
O8 O 0.5824(4) 1.1952(6) 0.1682(5)
S1 S 0.18276(11) 0.73529(10) 0.4997(2)
S2 S 0.51489(13) 1.21272(13) 0.26130(15)
Eu1 Eu 0.0000 1.0000 0.0000
Na1 Na 0.0000 0.5000 0.5120(5)
Na2 Na 0.4711(3) 0.7276(5) 0.5092(7)
O9 O -0.1160(7) 0.5844(6) 0.3845(6)
O12 O 0.4892(11) 0.6523(11) 0.6790(11)
Cl1 Cl 0.5000 0.5000 0.5000
C1A C -0.1321(5) 1.2353(6) 0.1806(6)
C1B C -0.2353(6) 0.8679(5) -0.1806(6)
C1C C 0.2353(6) 1.1321(5) -0.1806(6)
H1A H -0.1072 1.2801 0.1232
H1B H -0.2801 0.8928 -0.1232
H1C H 0.2801 1.1072 -0.1232
C2A C -0.1368(6) 1.2768(6) 0.2820(6)
C2B C -0.2768(6) 0.8632(6) -0.2820(6)
C2C C 0.2768(6) 1.1368(6) -0.2820(6)
H2A H -0.1171 1.3506 0.2950
H2B H -0.3506 0.8829 -0.2950
H2C H 0.3506 1.1171 -0.2950
C3A C -0.1709(5) 1.2102(5) 0.3673(5)
C3B C -0.2102(5) 0.8291(5) -0.3673(5)
C3C C 0.2102(5) 1.1709(5) -0.3673(5)
C4A C -0.1997(5) 1.1025(5) 0.3456(5)
C4B C -0.1025(5) 0.8003(5) -0.3456(5)
C4C C 0.1025(5) 1.1997(5) -0.3456(5)
H3A H -0.2221 1.0555 0.4022
H3B H -0.0555 0.7779 -0.4022
H3C H 0.0555 1.2221 -0.4022
C5A C -0.1952(5) 1.0648(5) 0.2406(5)
C5B C -0.0648(5) 0.8048(5) -0.2406(5)
C5C C 0.0648(5) 1.1952(5) -0.2406(5)
C6A C -0.2366(5) 0.9556(5) 0.2133(5)
C6B C 0.0444(5) 0.7634(5) -0.2133(5)
C6C C -0.0444(5) 1.2366(5) -0.2133(5)
C7A C -0.3432(5) 0.9263(5) 0.2390(5)
C7B C 0.0737(5) 0.6568(5) -0.2390(5)
C7C C -0.0737(5) 1.3432(5) -0.2390(5)
H4A H -0.3915 0.9796 0.2674
H4B H 0.0204 0.6085 -0.2674
H4C H -0.0204 1.3915 -0.2674
C8A C -0.3795(5) 0.8211(5) 0.2237(5)
C8B C 0.1789(5) 0.6205(5) -0.2237(5)
C8C C -0.1789(5) 1.3795(5) -0.2237(5)
C9A C -0.3091(6) 0.7462(5) 0.1773(6)
C9B C 0.2538(5) 0.6909(6) -0.1773(6)
C9C C -0.2538(5) 1.3091(6) -0.1773(6)
H5A H -0.3337 0.6745 0.1618
H5B H 0.3255 0.6663 -0.1618
H5C H -0.3255 1.3337 -0.1618
C10A C -0.2029(5) 0.7761(5) 0.1535(6)
C10B C 0.2239(5) 0.7971(5) -0.1535(6)
C10C C -0.2239(5) 1.2029(5) -0.1535(6)
H6A H -0.1544 0.7236 0.1239
H6B H 0.2764 0.8456 -0.1239
H6C H -0.2764 1.1544 -0.1239
N1A N -0.1620(4) 1.1318(4) 0.1605(4)
N1B N -0.1318(4) 0.8380(4) -0.1605(4)
N1C N 0.1318(4) 1.1620(4) -0.1605(4)
N2A N -0.1675(5) 0.8781(5) 0.1717(4)
N2B N 0.1219(5) 0.8325(5) -0.1717(4)
N2C N -0.1219(5) 1.1675(5) -0.1717(4)
O1A O -0.1574(4) 1.0952(4) 0.0602(3)
O1B O -0.0952(4) 0.8426(4) -0.0602(3)
O1C O 0.0952(4) 1.1574(4) -0.0602(3)
O2A O -0.0661(3) 0.9033(4) 0.1548(4)
O2B O 0.0967(4) 0.9339(3) -0.1548(4)
O2C O -0.0967(4) 1.0661(3) -0.1548(4)
O3A O -0.0859(4) 1.3302(4) 0.5132(5)
O3B O -0.3302(4) 0.9141(4) -0.5132(5)
O3C O 0.3302(4) 1.0859(4) -0.5132(5)
O3A_2 O -0.0859(4) 0.3302(4) 0.5132(5)
O3_2 O 0.0859(4) 1.6698(4) 0.5132(5)
O4A O -0.1898(5) 1.1721(4) 0.5715(4)
O4B O -0.1721(4) 0.8102(5) -0.5715(4)
O4C O 0.1721(4) 1.1898(5) -0.5715(4)
O5A O -0.2822(4) 1.3303(4) 0.4980(7)
O5B O -0.3303(4) 0.7178(4) -0.4980(7)
O5C O 0.3303(4) 1.2822(4) -0.4980(7)
O5B_2 O 0.6697(4) 0.7178(4) 0.5020(7)
O5C_2 O -0.6697(4) 1.2822(4) 0.5020(7)
O5A_2 O -0.2822(4) 0.3303(4) -0.5020(7)
O5_2 O 0.2822(4) 1.6697(4) -0.5020(7)
O6A O -0.5410(4) 0.8593(5) 0.3495(4)
O6B O 0.1407(5) 0.4590(4) -0.3495(4)
O6C O -0.1407(5) 1.5410(4) -0.3495(4)
O6B_2 O 0.1407(5) 0.4590(4) 0.6505(4)
O6C_2 O -0.1407(5) 0.5410(4) 0.6505(4)
O6A_2 O 0.4590(4) 0.8593(5) 0.3495(4)
O6B_3 O 0.1407(5) 1.4590(4) 0.6505(4)
O6C_3 O -0.1407(5) 1.5410(4) 0.6505(4)
O6_2 O -0.4590(4) 1.1407(5) 0.3495(4)
O6C_4 O -0.1407(5) 0.5410(4) -0.3495(4)
O6B_4 O 0.1407(5) 1.4590(4) -0.3495(4)
O7A O -0.5091(5) 0.6751(5) 0.2960(8)
O7B O 0.3249(5) 0.4909(5) -0.2960(8)
O7C O -0.3249(5) 1.5091(5) -0.2960(8)
O7A_2 O 0.4909(5) 0.6751(5) 0.2960(8)
O7_2 O -0.4909(5) 1.3249(5) 0.2960(8)
O7C_2 O -0.3249(5) 0.5091(5) -0.2960(8)
O7B_2 O 0.3249(5) 1.4909(5) -0.2960(8)
O8A O -0.5824(4) 0.8048(6) 0.1682(5)
O8B O 0.1952(6) 0.4176(4) -0.1682(5)
O8C O -0.1952(6) 1.5824(4) -0.1682(5)
S1A S -0.18276(11) 1.26471(10) 0.4997(2)
S1B S -0.26471(10) 0.81724(11) -0.4997(2)
S1C S 0.26471(10) 1.18276(11) -0.4997(2)
S2A S -0.51489(13) 0.78728(13) 0.26130(15)
S2B S 0.21272(13) 0.48511(13) -0.26130(15)
S2C S -0.21272(13) 1.51489(13) -0.26130(15)
Na1_2 Na -0.0000 1.5000 0.5120(5)
Na1B Na 0.5000 1.0000 0.4880(5)
Na1B_2 Na -0.5000 1.0000 0.4880(5)
Na1B_3 Na -0.5000 1.0000 -0.5120(5)
Na1_3 Na -0.0000 0.5000 -0.4880(5)
Na1B_4 Na 0.5000 1.0000 -0.5120(5)
Na1_4 Na -0.0000 1.5000 -0.4880(5)
Na2A Na -0.4711(3) 1.2724(5) 0.5092(7)
Na2B Na -0.2724(5) 0.5289(3) -0.5092(7)
Na2C Na 0.2724(5) 1.4711(3) -0.5092(7)
Na2C_2 Na 0.2724(5) 0.4711(3) 0.4908(7)
Na2A_2 Na 0.5289(3) 1.2724(5) 0.5092(7)
Na2B_2 Na -0.2724(5) 0.5289(3) 0.4908(7)
Na2A_3 Na 0.5289(3) 0.2724(5) 0.5092(7)
Na2B_3 Na 0.7276(5) 0.5289(3) 0.4908(7)
Na2B_4 Na -0.2724(5) 1.5289(3) 0.4908(7)
Na2_2 Na -0.5289(3) 0.7276(5) 0.5092(7)
Na2_3 Na -0.5289(3) 0.7276(5) -0.4908(7)
Na2C_3 Na 0.2724(5) 0.4711(3) -0.5092(7)
Na2A_4 Na 0.5289(3) 1.2724(5) -0.4908(7)
Na2B_5 Na -0.2724(5) 1.5289(3) -0.5092(7)
Na2C_4 Na 0.2724(5) 1.4711(3) 0.4908(7)
O9A O 0.1160(7) 0.4156(6) 0.3845(6)
O9C O 0.4156(6) 0.8840(7) 0.6155(6)
O9A_2 O 0.1160(7) 1.4156(6) 0.3845(6)
O9_2 O -0.1160(7) 1.5844(6) 0.3845(6)
O9B O -0.4156(6) 1.1160(7) 0.6155(6)
O9_3 O -0.1160(7) 0.5844(6) -0.6155(6)
O9A_3 O 0.1160(7) 1.4156(6) -0.6155(6)
O12A O -0.4892(11) 1.3477(11) 0.6790(11)
O12B O -0.3477(11) 0.5108(11) -0.6790(11)
O12C O 0.3477(11) 1.4892(11) -0.6790(11)
Cl1_2 Cl -0.5000 1.5000 0.5000
Cl1_3 Cl -0.5000 0.5000 -0.5000
Cl1_4 Cl 0.5000 1.5000 -0.5000
O10 O 1.0000 0.5000 0.177(3)
O14 O 0.5126(19) 0.1768(19) 0.9504(18)
O15 O 0.648(2) 0.451(2) 0.140(2)
loop_
_geom_bond_atom_site_label_1
_geom_bond_atom_site_label_2
_geom_bond_site_symmetry_1
_geom_bond_site_symmetry_2
C1 H1 1_555 1_555
C2 C1 1_555 1_555
H2 C2 1_555 1_555
C3 C2 1_555 1_555
C4 C3 1_555 1_555
H3 C4 1_555 1_555
C5 C4 1_555 1_555
C6 C5 1_555 1_555
C7 C6 1_555 1_555
H4 C7 1_555 1_555
C8 C7 1_555 1_555
C9 C8 1_555 1_555
H5 C9 1_555 1_555
C10 C9 1_555 1_555
H6 C10 1_555 1_555
N1 C1 1_555 1_555
N2 C6 1_555 1_555
O1 N1 1_555 1_555
O2 N2 1_555 1_555
O3 S1 1_555 1_555
O4 S1 1_555 1_555
O5 S1 1_555 1_555
O6 S2 1_555 1_555
O7 S2 1_555 1_555
O8 S2 1_555 1_555
S1 C3 1_555 1_555
S2 C8 1_555 1_555
Eu1 O1 1_555 1_555
Na1 O3 1_555 1_555
Na2 O5 1_555 1_555
O9 Na1 1_555 1_555
O12 Na2 1_555 1_555
Cl1 Na2 1_555 1_555
C1A H1A 1_555 1_555
C1B H1B 1_555 1_555
C1C H1C 1_555 1_555
C2A C1A 1_555 1_555
C2B C1B 1_555 1_555
C2C C1C 1_555 1_555
H2A C2A 1_555 1_555
H2B C2B 1_555 1_555
H2C C2C 1_555 1_555
C3A C2A 1_555 1_555
C3B C2B 1_555 1_555
C3C C2C 1_555 1_555
C4A C3A 1_555 1_555
C4B C3B 1_555 1_555
C4C C3C 1_555 1_555
H3A C4A 1_555 1_555
H3B C4B 1_555 1_555
H3C C4C 1_555 1_555
C5A C4A 1_555 1_555
C5B C4B 1_555 1_555
C5C C4C 1_555 1_555
C6A C5A 1_555 1_555
C6B C5B 1_555 1_555
C6C C5C 1_555 1_555
C7A C6A 1_555 1_555
C7B C6B 1_555 1_555
C7C C6C 1_555 1_555
H4A C7A 1_555 1_555
H4B C7B 1_555 1_555
H4C C7C 1_555 1_555
C8A C7A 1_555 1_555
C8B C7B 1_555 1_555
C8C C7C 1_555 1_555
C9A C8A 1_555 1_555
C9B C8B 1_555 1_555
C9C C8C 1_555 1_555
H5A C9A 1_555 1_555
H5B C9B 1_555 1_555
H5C C9C 1_555 1_555
C10A C9A 1_555 1_555
C10B C9B 1_555 1_555
C10C C9C 1_555 1_555
H6A C10A 1_555 1_555
H6B C10B 1_555 1_555
H6C C10C 1_555 1_555
N1A C1A 1_555 1_555
N1B C1B 1_555 1_555
N1C C1C 1_555 1_555
N2A C6A 1_555 1_555
N2B C6B 1_555 1_555
N2C C6C 1_555 1_555
O1A Eu1 1_555 1_555
O1B Eu1 1_555 1_555
O1C Eu1 1_555 1_555
O2A Eu1 1_555 1_555
O2B Eu1 1_555 1_555
O2C Eu1 1_555 1_555
O3A S1A 1_555 1_555
O3B S1B 1_555 1_555
O3C S1C 1_555 1_555
O3A_2 Na1 1_555 1_555
O3_2 Na1_2 1_555 1_555
O4A S1A 1_555 1_555
O4B S1B 1_555 1_555
O4C S1C 1_555 1_555
O5A S1A 1_555 1_555
O5B S1B 1_555 1_555
O5C S1C 1_555 1_555
O5B_2 Na2 1_555 1_555
O5C_2 Na2A 1_555 1_555
O5A_2 Na2B 1_555 1_555
O5_2 Na2C 1_555 1_555
O6A S2A 1_555 1_555
O6B S2B 1_555 1_555
O6C S2C 1_555 1_555
O6B_2 Na1 1_555 1_555
O6C_2 Na1 1_555 1_555
O6A_2 Na2 1_555 1_555
O6B_3 Na1_2 1_555 1_555
O6C_3 Na1_2 1_555 1_555
O6_2 Na1B_2 1_555 1_555
O6C_4 Na1_3 1_555 1_555
O6B_4 Na1_4 1_555 1_555
O7A S2A 1_555 1_555
O7B S2B 1_555 1_555
O7C S2C 1_555 1_555
O7A_2 Na2 1_555 1_555
O7_2 Na2A 1_555 1_555
O7C_2 Na2B 1_555 1_555
O7B_2 Na2C 1_555 1_555
O8A S2A 1_555 1_555
O8B S2B 1_555 1_555
O8C S2C 1_555 1_555
S1A C3A 1_555 1_555
S1B C3B 1_555 1_555
S1C C3C 1_555 1_555
S2A C8A 1_555 1_555
S2B C8B 1_555 1_555
S2C C8C 1_555 1_555
Na1_2 O3A 1_555 1_555
Na1B O6 1_555 1_555
Na1B_2 O6A 1_555 1_555
Na1B_3 O3B 1_555 1_555
Na1_3 O6B 1_555 1_555
Na1B_4 O3C 1_555 1_555
Na1_4 O6C 1_555 1_555
Na2A O5A 1_555 1_555
Na2B O5B 1_555 1_555
Na2C O5C 1_555 1_555
Na2C_2 O5 1_555 1_555
Na2A_2 O6 1_555 1_555
Na2B_2 O9 1_555 1_555
Na2A_3 Cl1 1_555 1_555
Na2B_3 Cl1 1_555 1_555
Na2B_4 O5A 1_555 1_555
Na2_2 O6A 1_555 1_555
Na2_3 O5B 1_555 1_555
Na2C_3 O6B 1_555 1_555
Na2A_4 O5C 1_555 1_555
Na2B_5 O6C 1_555 1_555
Na2C_4 O6B_3 1_555 1_555
O9A Na1 1_555 1_555
O9C Na2 1_555 1_555
O9A_2 Na1_2 1_555 1_555
O9_2 Na1_2 1_555 1_555
O9B Na1B_2 1_555 1_555
O9_3 Na1_3 1_555 1_555
O9A_3 Na1_4 1_555 1_555
O12A Na2A 1_555 1_555
O12B Na2B 1_555 1_555
O12C Na2C 1_555 1_555
Cl1_2 Na2A 1_555 1_555
Cl1_3 Na2B 1_555 1_555
Cl1_4 Na2C 1_555 1_555
C5 N1 1_555 1_555
C10 N2 1_555 1_555
O2 Eu1 1_555 1_555
O7 Na2A_2 1_555 1_555
Cl1 Na2C_2 1_555 1_555
C5A N1A 1_555 1_555
C5B N1B 1_555 1_555
C5C N1C 1_555 1_555
C10A N2A 1_555 1_555
C10B N2B 1_555 1_555
C10C N2C 1_555 1_555
N1A O1A 1_555 1_555
N1B O1B 1_555 1_555
N1C O1C 1_555 1_555
N2A O2A 1_555 1_555
N2B O2B 1_555 1_555
N2C O2C 1_555 1_555
O5B_2 Na2B_3 1_555 1_555
O6B_2 Na2C_2 1_555 1_555
O6C_2 Na2B_2 1_555 1_555
O6A_2 Na1B 1_555 1_555
O6C_3 Na2B_4 1_555 1_555
O6_2 Na2A 1_555 1_555
O6C_4 Na2B 1_555 1_555
O6B_4 Na2C 1_555 1_555
O7A Na2_2 1_555 1_555
O7B Na2C_3 1_555 1_555
O7C Na2B_5 1_555 1_555
Na1B O9C 1_555 1_555
Na2A O9B 1_555 1_555
Na2B O9_3 1_555 1_555
Na2C O9A_3 1_555 1_555
Na2C_2 O9A 1_555 1_555
Na2B_4 O9_2 1_555 1_555
Na2B_4 Cl1_2 1_555 1_555
Na2_3 Cl1_3 1_555 1_555
Na2A_4 Cl1_4 1_555 1_555
Na2C_4 O9A_2 1_555 1_555

#END
