
#######################################################################
#
#                 Cambridge Crystallographic Data Centre
#                                CCDC 
#
#######################################################################
#
# If this CIF has been generated from an entry in the Cambridge 
# Structural Database, then it will include bibliographic, chemical, 
# crystal, experimental, refinement or atomic coordinate data resulting 
# from the CCDC's data processing and validation procedures.
#
#######################################################################

data_TIQHAD
_chemical_formula_moiety         '(C40 H46 Cl1 Gd1 N8 Na6 O43 S8)n'
_symmetry_cell_setting           tetragonal
_symmetry_space_group_name_H-M   'P -4'
_symmetry_Int_Tables_number      81
_space_group_name_Hall           'P -4'
loop_
_symmetry_equiv_pos_site_id
_symmetry_equiv_pos_as_xyz
1 x,y,z
2 -x,-y,z
3 y,-x,-z
4 -y,x,-z
_cell_length_a                   12.234(5)
_cell_length_b                   12.234(5)
_cell_length_c                   12.373(5)
_cell_angle_alpha                90
_cell_angle_beta                 90
_cell_angle_gamma                90
_cell_volume                     1851.88
loop_
_atom_site_label
_atom_site_type_symbol
_atom_site_fract_x
_atom_site_fract_y
_atom_site_fract_z
C1 C 0.2364(6) 0.1317(7) 0.1794(6)
H1 H 0.2801 0.1073 0.1228
C2 C 0.2788(6) 0.1362(7) 0.2817(6)
H2 H 0.3508 0.1157 0.2947
C3 C 0.2114(5) 0.1725(5) 0.3670(6)
C4 C 0.1027(6) 0.1997(6) 0.3464(6)
H3 H 0.0562 0.2202 0.4023
C5 C 0.0653(5) 0.1953(5) 0.2409(5)
C6 C -0.0452(5) 0.2364(6) 0.2141(5)
C7 C -0.0727(6) 0.3424(6) 0.2382(6)
H4 H -0.0197 0.3893 0.2656
C8 C -0.1785(6) 0.3808(6) 0.2224(6)
C9 C -0.2543(6) 0.3087(7) 0.1750(6)
H5 H -0.3247 0.3325 0.1592
C10 C -0.2239(5) 0.2034(6) 0.1523(6)
H6 H -0.2752 0.1555 0.1234
N1 N 0.1318(5) 0.1622(5) 0.1592(5)
N2 N -0.1225(5) 0.1677(5) 0.1708(4)
O1 O 0.0943(4) 0.1570(4) 0.0591(4)
O2 O -0.0968(4) 0.0654(4) 0.1537(4)
O3 O 0.3311(4) 0.0860(4) 0.5125(6)
O4 O 0.3326(4) 0.2837(4) 0.4962(7)
O5 O 0.1740(5) 0.1916(5) 0.5722(4)
O6 O -0.1437(5) 0.5400(5) 0.3501(5)
O7 O -0.1924(7) 0.5827(5) 0.1663(6)
O8 O -0.3284(5) 0.5118(5) 0.2932(9)
Na1 Na 0.5000 0.0000 0.5130(5)
Na2 Na 0.5287(3) 0.2782(6) 0.4933(6)
S1 S 0.26585(12) 0.18359(12) 0.4998(2)
S2 S -0.21338(15) 0.51576(14) 0.25965(16)
Gd1 Gd 0.0000 0.0000 0.0000
Cl1 Cl 0.5000 0.5000 0.5000
O9 O 0.5828(6) 0.1178(6) 0.3832(6)
O11 O 0.5090(14) 0.3485(14) 0.3204(14)
C1A C -0.2364(6) -0.1317(7) 0.1794(6)
C1B C 0.1317(7) -0.2364(6) -0.1794(6)
C1C C -0.1317(7) 0.2364(6) -0.1794(6)
H1A H -0.2801 -0.1073 0.1228
H1B H 0.1073 -0.2801 -0.1228
H1C H -0.1073 0.2801 -0.1228
C2A C -0.2788(6) -0.1362(7) 0.2817(6)
C2B C 0.1362(7) -0.2788(6) -0.2817(6)
C2C C -0.1362(7) 0.2788(6) -0.2817(6)
H2A H -0.3508 -0.1157 0.2947
H2B H 0.1157 -0.3508 -0.2947
H2C H -0.1157 0.3508 -0.2947
C3A C -0.2114(5) -0.1725(5) 0.3670(6)
C3B C 0.1725(5) -0.2114(5) -0.3670(6)
C3C C -0.1725(5) 0.2114(5) -0.3670(6)
C4A C -0.1027(6) -0.1997(6) 0.3464(6)
C4B C 0.1997(6) -0.1027(6) -0.3464(6)
C4C C -0.1997(6) 0.1027(6) -0.3464(6)
H3A H -0.0562 -0.2202 0.4023
H3B H 0.2202 -0.0562 -0.4023
H3C H -0.2202 0.0562 -0.4023
C5A C -0.0653(5) -0.1953(5) 0.2409(5)
C5B C 0.1953(5) -0.0653(5) -0.2409(5)
C5C C -0.1953(5) 0.0653(5) -0.2409(5)
C6A C 0.0452(5) -0.2364(6) 0.2141(5)
C6B C 0.2364(6) 0.0452(5) -0.2141(5)
C6C C -0.2364(6) -0.0452(5) -0.2141(5)
C7A C 0.0727(6) -0.3424(6) 0.2382(6)
C7B C 0.3424(6) 0.0727(6) -0.2382(6)
C7C C -0.3424(6) -0.0727(6) -0.2382(6)
H4A H 0.0197 -0.3893 0.2656
H4B H 0.3893 0.0197 -0.2656
H4C H -0.3893 -0.0197 -0.2656
C8A C 0.1785(6) -0.3808(6) 0.2224(6)
C8B C 0.3808(6) 0.1785(6) -0.2224(6)
C8C C -0.3808(6) -0.1785(6) -0.2224(6)
C9A C 0.2543(6) -0.3087(7) 0.1750(6)
C9B C 0.3087(7) 0.2543(6) -0.1750(6)
C9C C -0.3087(7) -0.2543(6) -0.1750(6)
H5A H 0.3247 -0.3325 0.1592
H5B H 0.3325 0.3247 -0.1592
H5C H -0.3325 -0.3247 -0.1592
C10A C 0.2239(5) -0.2034(6) 0.1523(6)
C10B C 0.2034(6) 0.2239(5) -0.1523(6)
C10C C -0.2034(6) -0.2239(5) -0.1523(6)
H6A H 0.2752 -0.1555 0.1234
H6B H 0.1555 0.2752 -0.1234
H6C H -0.1555 -0.2752 -0.1234
N1A N -0.1318(5) -0.1622(5) 0.1592(5)
N1B N 0.1622(5) -0.1318(5) -0.1592(5)
N1C N -0.1622(5) 0.1318(5) -0.1592(5)
N2A N 0.1225(5) -0.1677(5) 0.1708(4)
N2B N 0.1677(5) 0.1225(5) -0.1708(4)
N2C N -0.1677(5) -0.1225(5) -0.1708(4)
O1A O -0.0943(4) -0.1570(4) 0.0591(4)
O1B O 0.1570(4) -0.0943(4) -0.0591(4)
O1C O -0.1570(4) 0.0943(4) -0.0591(4)
O2A O 0.0968(4) -0.0654(4) 0.1537(4)
O2B O 0.0654(4) 0.0968(4) -0.1537(4)
O2C O -0.0654(4) -0.0968(4) -0.1537(4)
O3A O -0.3311(4) -0.0860(4) 0.5125(6)
O3B O 0.0860(4) -0.3311(4) -0.5125(6)
O3C O -0.0860(4) 0.3311(4) -0.5125(6)
O3A_2 O 0.6689(4) -0.0860(4) 0.5125(6)
O3_2 O -0.6689(4) 0.0860(4) 0.5125(6)
O4A O -0.3326(4) -0.2837(4) 0.4962(7)
O4B O 0.2837(4) -0.3326(4) -0.4962(7)
O4C O -0.2837(4) 0.3326(4) -0.4962(7)
O4C_2 O 0.7163(4) 0.3326(4) 0.5038(7)
O4B_2 O -0.7163(4) -0.3326(4) 0.5038(7)
O4_2 O 0.3326(4) -0.7163(4) -0.5038(7)
O4A_2 O -0.3326(4) 0.7163(4) -0.5038(7)
O5A O -0.1740(5) -0.1916(5) 0.5722(4)
O5B O 0.1916(5) -0.1740(5) -0.5722(4)
O5C O -0.1916(5) 0.1740(5) -0.5722(4)
O6A O 0.1437(5) -0.5400(5) 0.3501(5)
O6B O 0.5400(5) 0.1437(5) -0.3501(5)
O6C O -0.5400(5) -0.1437(5) -0.3501(5)
O6B_2 O 0.5400(5) 0.1437(5) 0.6499(5)
O6C_2 O 0.4600(5) -0.1437(5) 0.6499(5)
O6B_3 O -0.4600(5) 0.1437(5) 0.6499(5)
O6C_3 O -0.5400(5) -0.1437(5) 0.6499(5)
O6A_2 O 0.1437(5) -0.5400(5) -0.6499(5)
O6_2 O -0.1437(5) 0.5400(5) -0.6499(5)
O7A O 0.1924(7) -0.5827(5) 0.1663(6)
O7B O 0.5827(5) 0.1924(7) -0.1663(6)
O7C O -0.5827(5) -0.1924(7) -0.1663(6)
O8A O 0.3284(5) -0.5118(5) 0.2932(9)
O8B O 0.5118(5) 0.3284(5) -0.2932(9)
O8C O -0.5118(5) -0.3284(5) -0.2932(9)
O8B_2 O 0.5118(5) 0.3284(5) 0.7068(9)
O8C_2 O -0.5118(5) -0.3284(5) 0.7068(9)
O8A_2 O 0.3284(5) -0.5118(5) -0.7068(9)
O8_2 O -0.3284(5) 0.5118(5) -0.7068(9)
Na1_2 Na -0.5000 0.0000 0.5130(5)
Na1B Na 0.0000 0.5000 0.4870(5)
Na1B_2 Na -0.0000 -0.5000 0.4870(5)
Na1B_3 Na -0.0000 -0.5000 -0.5130(5)
Na1_3 Na 0.5000 0.0000 -0.4870(5)
Na1B_4 Na 0.0000 0.5000 -0.5130(5)
Na1_4 Na -0.5000 0.0000 -0.4870(5)
Na2A Na -0.5287(3) -0.2782(6) 0.4933(6)
Na2B Na 0.2782(6) -0.5287(3) -0.4933(6)
Na2C Na -0.2782(6) 0.5287(3) -0.4933(6)
Na2B_2 Na 0.2782(6) 0.4713(3) 0.5067(6)
Na2C_2 Na -0.2782(6) 0.5287(3) 0.5067(6)
Na2A_2 Na 0.4713(3) 0.7218(6) 0.4933(6)
Na2C_3 Na 0.7218(6) 0.5287(3) 0.5067(6)
Na2C_4 Na -0.2782(6) -0.4713(3) 0.5067(6)
Na2B_3 Na 0.2782(6) -0.5287(3) 0.5067(6)
Na2A_3 Na 0.4713(3) -0.2782(6) -0.5067(6)
Na2_2 Na 0.5287(3) 0.2782(6) -0.5067(6)
Na2_3 Na -0.4713(3) 0.2782(6) -0.5067(6)
Na2A_4 Na -0.5287(3) -0.2782(6) -0.5067(6)
Na2A_5 Na 0.4713(3) -0.2782(6) 0.4933(6)
Na2_4 Na -0.4713(3) 0.2782(6) 0.4933(6)
S1A S -0.26585(12) -0.18359(12) 0.4998(2)
S1B S 0.18359(12) -0.26585(12) -0.4998(2)
S1C S -0.18359(12) 0.26585(12) -0.4998(2)
S2A S 0.21338(15) -0.51576(14) 0.25965(16)
S2B S 0.51576(14) 0.21338(15) -0.25965(16)
S2C S -0.51576(14) -0.21338(15) -0.25965(16)
Cl1_2 Cl -0.5000 -0.5000 0.5000
Cl1_3 Cl 0.5000 -0.5000 -0.5000
Cl1_4 Cl -0.5000 0.5000 -0.5000
O9A O 0.4172(6) -0.1178(6) 0.3832(6)
O9A_2 O -0.5828(6) -0.1178(6) 0.3832(6)
O9_2 O -0.4172(6) 0.1178(6) 0.3832(6)
O9B O 0.1178(6) -0.5828(6) -0.3832(6)
O9C O -0.1178(6) 0.5828(6) -0.3832(6)
O11A O -0.5090(14) -0.3485(14) 0.3204(14)
O11B O 0.3485(14) -0.5090(14) -0.3204(14)
O11C O -0.3485(14) 0.5090(14) -0.3204(14)
O10 O 0.5000 0.0000 0.1770(14)
O12 O -0.5000 0.5000 0.0000
O13 O -0.174(2) 0.504(2) -0.048(2)
loop_
_geom_bond_atom_site_label_1
_geom_bond_atom_site_label_2
_geom_bond_site_symmetry_1
_geom_bond_site_symmetry_2
C1 H1 1_555 1_555
C2 C1 1_555 1_555
H2 C2 1_555 1_555
C3 C2 1_555 1_555
C4 C3 1_555 1_555
H3 C4 1_555 1_555
C5 C4 1_555 1_555
C6 C5 1_555 1_555
C7 C6 1_555 1_555
H4 C7 1_555 1_555
C8 C7 1_555 1_555
C9 C8 1_555 1_555
H5 C9 1_555 1_555
C10 C9 1_555 1_555
H6 C10 1_555 1_555
N1 C1 1_555 1_555
N2 C6 1_555 1_555
O1 N1 1_555 1_555
O2 N2 1_555 1_555
O3 Na1 1_555 1_555
O4 Na2 1_555 1_555
O5 S1 1_555 1_555
O6 S2 1_555 1_555
O7 S2 1_555 1_555
O8 S2 1_555 1_555
Na1 O9 1_555 1_555
Na2 Cl1 1_555 1_555
S1 C3 1_555 1_555
S2 C8 1_555 1_555
Gd1 O1 1_555 1_555
Cl1 Na2B_2 1_555 1_555
O9 Na2 1_555 1_555
O11 Na2 1_555 1_555
C1A H1A 1_555 1_555
C1B H1B 1_555 1_555
C1C H1C 1_555 1_555
C2A C1A 1_555 1_555
C2B C1B 1_555 1_555
C2C C1C 1_555 1_555
H2A C2A 1_555 1_555
H2B C2B 1_555 1_555
H2C C2C 1_555 1_555
C3A C2A 1_555 1_555
C3B C2B 1_555 1_555
C3C C2C 1_555 1_555
C4A C3A 1_555 1_555
C4B C3B 1_555 1_555
C4C C3C 1_555 1_555
H3A C4A 1_555 1_555
H3B C4B 1_555 1_555
H3C C4C 1_555 1_555
C5A C4A 1_555 1_555
C5B C4B 1_555 1_555
C5C C4C 1_555 1_555
C6A C5A 1_555 1_555
C6B C5B 1_555 1_555
C6C C5C 1_555 1_555
C7A C6A 1_555 1_555
C7B C6B 1_555 1_555
C7C C6C 1_555 1_555
H4A C7A 1_555 1_555
H4B C7B 1_555 1_555
H4C C7C 1_555 1_555
C8A C7A 1_555 1_555
C8B C7B 1_555 1_555
C8C C7C 1_555 1_555
C9A C8A 1_555 1_555
C9B C8B 1_555 1_555
C9C C8C 1_555 1_555
H5A C9A 1_555 1_555
H5B C9B 1_555 1_555
H5C C9C 1_555 1_555
C10A C9A 1_555 1_555
C10B C9B 1_555 1_555
C10C C9C 1_555 1_555
H6A C10A 1_555 1_555
H6B C10B 1_555 1_555
H6C C10C 1_555 1_555
N1A C1A 1_555 1_555
N1B C1B 1_555 1_555
N1C C1C 1_555 1_555
N2A C6A 1_555 1_555
N2B C6B 1_555 1_555
N2C C6C 1_555 1_555
O1A Gd1 1_555 1_555
O1B Gd1 1_555 1_555
O1C Gd1 1_555 1_555
O2A Gd1 1_555 1_555
O2B Gd1 1_555 1_555
O2C Gd1 1_555 1_555
O3A Na1_2 1_555 1_555
O3B Na1B_3 1_555 1_555
O3C Na1B_4 1_555 1_555
O3A_2 Na1 1_555 1_555
O3_2 Na1_2 1_555 1_555
O4A Na2A 1_555 1_555
O4B Na2B 1_555 1_555
O4C Na2C 1_555 1_555
O4C_2 Na2 1_555 1_555
O4B_2 Na2A 1_555 1_555
O4_2 Na2B 1_555 1_555
O4A_2 Na2C 1_555 1_555
O5A S1A 1_555 1_555
O5B S1B 1_555 1_555
O5C S1C 1_555 1_555
O6A Na1B_2 1_555 1_555
O6B Na1_3 1_555 1_555
O6C Na1_4 1_555 1_555
O6B_2 Na1 1_555 1_555
O6C_2 Na1 1_555 1_555
O6B_3 Na1_2 1_555 1_555
O6C_3 Na1_2 1_555 1_555
O6A_2 Na1B_3 1_555 1_555
O6_2 Na1B_4 1_555 1_555
O7A S2A 1_555 1_555
O7B S2B 1_555 1_555
O7C S2C 1_555 1_555
O8A Na2B_3 1_555 1_555
O8B Na2_2 1_555 1_555
O8C Na2A_4 1_555 1_555
O8B_2 Na2 1_555 1_555
O8C_2 Na2A 1_555 1_555
O8A_2 Na2B 1_555 1_555
O8_2 Na2C 1_555 1_555
Na1_2 O9A_2 1_555 1_555
Na1B O6 1_555 1_555
Na1B_3 O9B 1_555 1_555
Na1B_4 O9C 1_555 1_555
Na2A O6C_3 1_555 1_555
Na2B O6A_2 1_555 1_555
Na2C O6_2 1_555 1_555
Na2B_2 O4 1_555 1_555
Na2C_2 O6 1_555 1_555
Na2A_2 Cl1 1_555 1_555
Na2C_3 Cl1 1_555 1_555
Na2C_4 O4A 1_555 1_555
Na2B_3 O6A 1_555 1_555
Na2A_3 O4B 1_555 1_555
Na2_2 O6B 1_555 1_555
Na2_3 O4C 1_555 1_555
Na2A_4 O6C 1_555 1_555
Na2A_5 O6C_2 1_555 1_555
Na2_4 O6B_3 1_555 1_555
S1A C3A 1_555 1_555
S1B C3B 1_555 1_555
S1C C3C 1_555 1_555
S2A C8A 1_555 1_555
S2B C8B 1_555 1_555
S2C C8C 1_555 1_555
Cl1_2 Na2A 1_555 1_555
Cl1_3 Na2B 1_555 1_555
Cl1_4 Na2C 1_555 1_555
O9A Na1 1_555 1_555
O9A_2 Na2A 1_555 1_555
O9_2 Na1_2 1_555 1_555
O9B Na2B 1_555 1_555
O9C Na2C 1_555 1_555
O11A Na2A 1_555 1_555
O11B Na2B 1_555 1_555
O11C Na2C 1_555 1_555
C5 N1 1_555 1_555
C10 N2 1_555 1_555
O2 Gd1 1_555 1_555
O3 S1 1_555 1_555
O4 S1 1_555 1_555
O8 Na2C_2 1_555 1_555
Na2 O6B_2 1_555 1_555
C5A N1A 1_555 1_555
C5B N1B 1_555 1_555
C5C N1C 1_555 1_555
C10A N2A 1_555 1_555
C10B N2B 1_555 1_555
C10C N2C 1_555 1_555
N1A O1A 1_555 1_555
N1B O1B 1_555 1_555
N1C O1C 1_555 1_555
N2A O2A 1_555 1_555
N2B O2B 1_555 1_555
N2C O2C 1_555 1_555
O3A S1A 1_555 1_555
O3B S1B 1_555 1_555
O3C S1C 1_555 1_555
O4A S1A 1_555 1_555
O4B S1B 1_555 1_555
O4C S1C 1_555 1_555
O4C_2 Na2C_3 1_555 1_555
O6A S2A 1_555 1_555
O6B S2B 1_555 1_555
O6C S2C 1_555 1_555
O8A S2A 1_555 1_555
O8B S2B 1_555 1_555
O8C S2C 1_555 1_555
Na2C_4 Cl1_2 1_555 1_555
Na2A_3 Cl1_3 1_555 1_555
Na2_3 Cl1_4 1_555 1_555
Na2A_5 O9A 1_555 1_555
Na2_4 O9_2 1_555 1_555

#END
