
#######################################################################
#
#                 Cambridge Crystallographic Data Centre
#                                CCDC 
#
#######################################################################
#
# If this CIF has been generated from an entry in the Cambridge 
# Structural Database, then it will include bibliographic, chemical, 
# crystal, experimental, refinement or atomic coordinate data resulting 
# from the CCDC's data processing and validation procedures.
#
#######################################################################

data_TIQHIL
_chemical_formula_moiety         '(C40 H46 Cl1 Dy1 N8 Na6 O43 S8)n'
_symmetry_cell_setting           tetragonal
_symmetry_space_group_name_H-M   'P -4'
_symmetry_Int_Tables_number      81
_space_group_name_Hall           'P -4'
loop_
_symmetry_equiv_pos_site_id
_symmetry_equiv_pos_as_xyz
1 x,y,z
2 -x,-y,z
3 y,-x,-z
4 -y,x,-z
_cell_length_a                   12.213(5)
_cell_length_b                   12.213(5)
_cell_length_c                   12.345(5)
_cell_angle_alpha                90
_cell_angle_beta                 90
_cell_angle_gamma                90
_cell_volume                     1841.35
loop_
_atom_site_label
_atom_site_type_symbol
_atom_site_fract_x
_atom_site_fract_y
_atom_site_fract_z
C1 C 0.7644(4) 0.8696(4) 0.8204(4)
H1 H 0.7206 0.8952 0.8766
C2 C 0.7224(4) 0.8633(4) 0.7179(4)
H2 H 0.6496 0.8814 0.7051
C3 C 0.7890(4) 0.8297(4) 0.6336(4)
C4 C 0.8964(4) 0.7998(4) 0.6545(4)
H3 H 0.9418 0.7761 0.5988
C5 C 0.9349(4) 0.8058(4) 0.7599(3)
C6 C 1.0445(4) 0.7642(4) 0.7875(3)
C7 C 1.0730(4) 0.6569(4) 0.7623(4)
H4 H 1.0208 0.6095 0.7339
C8 C 1.1789(4) 0.6206(4) 0.7793(4)
C9 C 1.2542(4) 0.6914(4) 0.8248(4)
H5 H 1.3252 0.6677 0.8386
C10 C 1.2240(4) 0.7974(4) 0.8497(4)
H6 H 1.2748 0.8448 0.8805
N1 N 0.8674(3) 0.8396(3) 0.8409(3)
N2 N 1.1219(3) 0.8325(3) 0.8300(3)
O1 O 0.9051(3) 0.8453(3) 0.9417(2)
O2 O 1.0963(3) 0.9355(2) 0.8474(2)
O3 O 0.6695(3) 0.9152(3) 0.4864(4)
O4 O 0.6685(3) 0.7177(3) 0.5026(5)
O5 O 0.8270(3) 0.8089(3) 0.4276(3)
O6 O 1.1428(3) 0.4588(3) 0.6512(3)
O7 O 1.1935(4) 0.4174(3) 0.8342(3)
O8 O 1.3270(4) 0.4903(4) 0.7085(6)
Na1 Na 0.5000 1.0000 0.4879(3)
Na2 Na 0.7205(4) 0.5283(3) 0.4954(5)
S1 S 0.73480(8) 0.81708(8) 0.50002(16)
S2 S 1.21337(10) 0.48466(10) 0.74094(10)
Dy1 Dy 1.0000 1.0000 1.0000
Cl1 Cl 0.5000 0.5000 0.5000
O9 O 0.4165(4) 0.8831(4) 0.6176(4)
O12 O 0.6563(8) 0.5112(8) 0.3197(8)
C1A C 1.2356(4) 1.1304(4) 0.8204(4)
C1B C 0.8696(4) 1.2356(4) 1.1796(4)
C1C C 1.1304(4) 0.7644(4) 1.1796(4)
H1A H 1.2794 1.1048 0.8766
H1B H 0.8952 1.2794 1.1234
H1C H 1.1048 0.7206 1.1234
C2A C 1.2776(4) 1.1367(4) 0.7179(4)
C2B C 0.8633(4) 1.2776(4) 1.2821(4)
C2C C 1.1367(4) 0.7224(4) 1.2821(4)
H2A H 1.3504 1.1186 0.7051
H2B H 0.8814 1.3504 1.2949
H2C H 1.1186 0.6496 1.2949
C3A C 1.2110(4) 1.1703(4) 0.6336(4)
C3B C 0.8297(4) 1.2110(4) 1.3664(4)
C3C C 1.1703(4) 0.7890(4) 1.3664(4)
C4A C 1.1036(4) 1.2002(4) 0.6545(4)
C4B C 0.7998(4) 1.1036(4) 1.3455(4)
C4C C 1.2002(4) 0.8964(4) 1.3455(4)
H3A H 1.0582 1.2239 0.5988
H3B H 0.7761 1.0582 1.4012
H3C H 1.2239 0.9418 1.4012
C5A C 1.0651(4) 1.1942(4) 0.7599(3)
C5B C 0.8058(4) 1.0651(4) 1.2401(3)
C5C C 1.1942(4) 0.9349(4) 1.2401(3)
C6A C 0.9555(4) 1.2358(4) 0.7875(3)
C6B C 0.7642(4) 0.9555(4) 1.2125(3)
C6C C 1.2358(4) 1.0445(4) 1.2125(3)
C7A C 0.9270(4) 1.3431(4) 0.7623(4)
C7B C 0.6569(4) 0.9270(4) 1.2377(4)
C7C C 1.3431(4) 1.0730(4) 1.2377(4)
H4A H 0.9792 1.3905 0.7339
H4B H 0.6095 0.9792 1.2661
H4C H 1.3905 1.0208 1.2661
C8A C 0.8211(4) 1.3794(4) 0.7793(4)
C8B C 0.6206(4) 0.8211(4) 1.2207(4)
C8C C 1.3794(4) 1.1789(4) 1.2207(4)
C9A C 0.7458(4) 1.3086(4) 0.8248(4)
C9B C 0.6914(4) 0.7458(4) 1.1752(4)
C9C C 1.3086(4) 1.2542(4) 1.1752(4)
H5A H 0.6748 1.3323 0.8386
H5B H 0.6677 0.6748 1.1614
H5C H 1.3323 1.3252 1.1614
C10A C 0.7760(4) 1.2026(4) 0.8497(4)
C10B C 0.7974(4) 0.7760(4) 1.1503(4)
C10C C 1.2026(4) 1.2240(4) 1.1503(4)
H6A H 0.7252 1.1552 0.8805
H6B H 0.8448 0.7252 1.1195
H6C H 1.1552 1.2748 1.1195
N1A N 1.1326(3) 1.1604(3) 0.8409(3)
N1B N 0.8396(3) 1.1326(3) 1.1591(3)
N1C N 1.1604(3) 0.8674(3) 1.1591(3)
N2A N 0.8781(3) 1.1675(3) 0.8300(3)
N2B N 0.8325(3) 0.8781(3) 1.1700(3)
N2C N 1.1675(3) 1.1219(3) 1.1700(3)
O1A O 1.0949(3) 1.1547(3) 0.9417(2)
O1B O 0.8453(3) 1.0949(3) 1.0583(2)
O1C O 1.1547(3) 0.9051(3) 1.0583(2)
O2A O 0.9037(3) 1.0645(2) 0.8474(2)
O2B O 0.9355(2) 0.9037(3) 1.1526(2)
O2C O 1.0645(2) 1.0963(3) 1.1526(2)
O3A O 1.3305(3) 1.0848(3) 0.4864(4)
O3B O 0.9152(3) 1.3305(3) 1.5136(4)
O3C O 1.0848(3) 0.6695(3) 1.5136(4)
O3A_2 O 0.3305(3) 1.0848(3) 0.4864(4)
O3_2 O 1.6695(3) 0.9152(3) 0.4864(4)
O4A O 1.3315(3) 1.2823(3) 0.5026(5)
O4B O 0.7177(3) 1.3315(3) 1.4974(5)
O4C O 1.2823(3) 0.6685(3) 1.4974(5)
O4B_2 O 0.7177(3) 0.3315(3) 0.4974(5)
O4C_2 O 1.2823(3) 1.6685(3) 0.4974(5)
O4A_2 O 0.3315(3) 1.2823(3) 1.5026(5)
O4_2 O 1.6685(3) 0.7177(3) 1.5026(5)
O5A O 1.1730(3) 1.1911(3) 0.4276(3)
O5B O 0.8089(3) 1.1730(3) 1.5724(3)
O5C O 1.1911(3) 0.8270(3) 1.5724(3)
O6A O 0.8572(3) 1.5412(3) 0.6512(3)
O6B O 0.4588(3) 0.8572(3) 1.3488(3)
O6C O 1.5412(3) 1.1428(3) 1.3488(3)
O6B_2 O 0.4588(3) 0.8572(3) 0.3488(3)
O6C_2 O 0.5412(3) 1.1428(3) 0.3488(3)
O6A_2 O 0.8572(3) 0.5412(3) 0.6512(3)
O6B_3 O 1.4588(3) 0.8572(3) 0.3488(3)
O6C_3 O 1.5412(3) 1.1428(3) 0.3488(3)
O6_2 O 1.1428(3) 1.4588(3) 0.6512(3)
O6C_4 O 0.5412(3) 1.1428(3) 1.3488(3)
O6B_4 O 1.4588(3) 0.8572(3) 1.3488(3)
O7A O 0.8065(4) 1.5826(3) 0.8342(3)
O7B O 0.4174(3) 0.8065(4) 1.1658(3)
O7C O 1.5826(3) 1.1935(4) 1.1658(3)
O8A O 0.6730(4) 1.5097(4) 0.7085(6)
O8B O 0.4903(4) 0.6730(4) 1.2915(6)
O8C O 1.5097(4) 1.3270(4) 1.2915(6)
O8A_2 O 0.6730(4) 0.5097(4) 0.7085(6)
O8_2 O 1.3270(4) 1.4903(4) 0.7085(6)
O8C_2 O 0.5097(4) 1.3270(4) 1.2915(6)
O8B_2 O 1.4903(4) 0.6730(4) 1.2915(6)
Na1_2 Na 1.5000 1.0000 0.4879(3)
Na1B Na 1.0000 0.5000 0.5121(3)
Na1B_2 Na 1.0000 1.5000 0.5121(3)
Na1B_3 Na 1.0000 1.5000 1.5121(3)
Na1_3 Na 0.5000 1.0000 1.4879(3)
Na1B_4 Na 1.0000 0.5000 1.5121(3)
Na1_4 Na 1.5000 1.0000 1.4879(3)
Na2A Na 1.2795(4) 1.4717(3) 0.4954(5)
Na2B Na 0.5283(3) 1.2795(4) 1.5046(5)
Na2C Na 1.4717(3) 0.7205(4) 1.5046(5)
Na2C_2 Na 0.4717(3) 0.7205(4) 0.5046(5)
Na2A_2 Na 1.2795(4) 0.4717(3) 0.4954(5)
Na2A_3 Na 0.2795(4) 0.4717(3) 0.4954(5)
Na2B_2 Na 0.5283(3) 0.2795(4) 0.5046(5)
Na2B_3 Na 1.5283(3) 1.2795(4) 0.5046(5)
Na2_2 Na 0.7205(4) 1.5283(3) 0.4954(5)
Na2_3 Na 0.7205(4) 1.5283(3) 1.4954(5)
Na2C_3 Na 0.4717(3) 0.7205(4) 1.5046(5)
Na2A_4 Na 1.2795(4) 0.4717(3) 1.4954(5)
Na2B_4 Na 1.5283(3) 1.2795(4) 1.5046(5)
Na2B_5 Na 0.5283(3) 1.2795(4) 0.5046(5)
Na2C_4 Na 1.4717(3) 0.7205(4) 0.5046(5)
S1A S 1.26520(8) 1.18292(8) 0.50002(16)
S1B S 0.81708(8) 1.26520(8) 1.49998(16)
S1C S 1.18292(8) 0.73480(8) 1.49998(16)
S2A S 0.78663(10) 1.51534(10) 0.74094(10)
S2B S 0.48466(10) 0.78663(10) 1.25906(10)
S2C S 1.51534(10) 1.21337(10) 1.25906(10)
Cl1_2 Cl 1.5000 1.5000 0.5000
Cl1_3 Cl 0.5000 1.5000 1.5000
Cl1_4 Cl 1.5000 0.5000 1.5000
O9A O 0.5835(4) 1.1169(4) 0.6176(4)
O9B O 0.8831(4) 0.5835(4) 0.3824(4)
O9A_2 O 1.5835(4) 1.1169(4) 0.6176(4)
O9_2 O 1.4165(4) 0.8831(4) 0.6176(4)
O9C O 1.1169(4) 1.4165(4) 0.3824(4)
O9A_3 O 0.5835(4) 1.1169(4) 1.6176(4)
O9_3 O 1.4165(4) 0.8831(4) 1.6176(4)
O12A O 1.3437(8) 1.4888(8) 0.3197(8)
O12B O 0.5112(8) 1.3437(8) 1.6803(8)
O12C O 1.4888(8) 0.6563(8) 1.6803(8)
O13 O 0.5000 0.5000 0.0000
O14 O 1.2142(17) 0.4969(14) 1.0398(13)
O15 O 0.6489(18) 0.4467(18) 0.1368(18)
loop_
_geom_bond_atom_site_label_1
_geom_bond_atom_site_label_2
_geom_bond_site_symmetry_1
_geom_bond_site_symmetry_2
C1 H1 1_555 1_555
C2 C1 1_555 1_555
H2 C2 1_555 1_555
C3 C2 1_555 1_555
C4 C3 1_555 1_555
H3 C4 1_555 1_555
C5 C4 1_555 1_555
C6 C5 1_555 1_555
C7 C6 1_555 1_555
H4 C7 1_555 1_555
C8 C7 1_555 1_555
C9 C8 1_555 1_555
H5 C9 1_555 1_555
C10 C9 1_555 1_555
H6 C10 1_555 1_555
N1 C1 1_555 1_555
N2 C6 1_555 1_555
O1 N1 1_555 1_555
O2 N2 1_555 1_555
O3 Na1 1_555 1_555
O4 Na2 1_555 1_555
O5 S1 1_555 1_555
O6 S2 1_555 1_555
O7 S2 1_555 1_555
O8 S2 1_555 1_555
Na1 O9 1_555 1_555
Na2 Cl1 1_555 1_555
S1 C3 1_555 1_555
S2 C8 1_555 1_555
Dy1 O1 1_555 1_555
Cl1 Na2C_2 1_555 1_555
O9 Na2C_2 1_555 1_555
O12 Na2 1_555 1_555
C1A H1A 1_555 1_555
C1B H1B 1_555 1_555
C1C H1C 1_555 1_555
C2A C1A 1_555 1_555
C2B C1B 1_555 1_555
C2C C1C 1_555 1_555
H2A C2A 1_555 1_555
H2B C2B 1_555 1_555
H2C C2C 1_555 1_555
C3A C2A 1_555 1_555
C3B C2B 1_555 1_555
C3C C2C 1_555 1_555
C4A C3A 1_555 1_555
C4B C3B 1_555 1_555
C4C C3C 1_555 1_555
H3A C4A 1_555 1_555
H3B C4B 1_555 1_555
H3C C4C 1_555 1_555
C5A C4A 1_555 1_555
C5B C4B 1_555 1_555
C5C C4C 1_555 1_555
C6A C5A 1_555 1_555
C6B C5B 1_555 1_555
C6C C5C 1_555 1_555
C7A C6A 1_555 1_555
C7B C6B 1_555 1_555
C7C C6C 1_555 1_555
H4A C7A 1_555 1_555
H4B C7B 1_555 1_555
H4C C7C 1_555 1_555
C8A C7A 1_555 1_555
C8B C7B 1_555 1_555
C8C C7C 1_555 1_555
C9A C8A 1_555 1_555
C9B C8B 1_555 1_555
C9C C8C 1_555 1_555
H5A C9A 1_555 1_555
H5B C9B 1_555 1_555
H5C C9C 1_555 1_555
C10A C9A 1_555 1_555
C10B C9B 1_555 1_555
C10C C9C 1_555 1_555
H6A C10A 1_555 1_555
H6B C10B 1_555 1_555
H6C C10C 1_555 1_555
N1A C1A 1_555 1_555
N1B C1B 1_555 1_555
N1C C1C 1_555 1_555
N2A C6A 1_555 1_555
N2B C6B 1_555 1_555
N2C C6C 1_555 1_555
O1A Dy1 1_555 1_555
O1B Dy1 1_555 1_555
O1C Dy1 1_555 1_555
O2A Dy1 1_555 1_555
O2B Dy1 1_555 1_555
O2C Dy1 1_555 1_555
O3A Na1_2 1_555 1_555
O3B Na1B_3 1_555 1_555
O3C Na1B_4 1_555 1_555
O3A_2 Na1 1_555 1_555
O3_2 Na1_2 1_555 1_555
O4A Na2A 1_555 1_555
O4B Na2B 1_555 1_555
O4C Na2C 1_555 1_555
O4B_2 Na2 1_555 1_555
O4C_2 Na2A 1_555 1_555
O4A_2 Na2B 1_555 1_555
O4_2 Na2C 1_555 1_555
O5A S1A 1_555 1_555
O5B S1B 1_555 1_555
O5C S1C 1_555 1_555
O6A Na1B_2 1_555 1_555
O6B Na1_3 1_555 1_555
O6C Na1_4 1_555 1_555
O6B_2 Na1 1_555 1_555
O6C_2 Na1 1_555 1_555
O6A_2 Na2 1_555 1_555
O6B_3 Na1_2 1_555 1_555
O6C_3 Na1_2 1_555 1_555
O6_2 Na1B_2 1_555 1_555
O6C_4 Na1_3 1_555 1_555
O6B_4 Na1_4 1_555 1_555
O7A S2A 1_555 1_555
O7B S2B 1_555 1_555
O7C S2C 1_555 1_555
O8A Na2_2 1_555 1_555
O8B Na2C_3 1_555 1_555
O8C Na2B_4 1_555 1_555
O8A_2 Na2 1_555 1_555
O8_2 Na2A 1_555 1_555
O8C_2 Na2B 1_555 1_555
O8B_2 Na2C 1_555 1_555
Na1_2 O9A_2 1_555 1_555
Na1B O6 1_555 1_555
Na1B_2 O9C 1_555 1_555
Na1_3 O9A_3 1_555 1_555
Na1_4 O9_3 1_555 1_555
Na2A O6_2 1_555 1_555
Na2B O6C_4 1_555 1_555
Na2C O6B_4 1_555 1_555
Na2C_2 O4 1_555 1_555
Na2A_2 O6 1_555 1_555
Na2A_3 Cl1 1_555 1_555
Na2B_2 Cl1 1_555 1_555
Na2B_3 O4A 1_555 1_555
Na2_2 O6A 1_555 1_555
Na2_3 O4B 1_555 1_555
Na2C_3 O6B 1_555 1_555
Na2A_4 O4C 1_555 1_555
Na2B_4 O6C 1_555 1_555
Na2B_5 O6C_2 1_555 1_555
Na2C_4 O6B_3 1_555 1_555
S1A C3A 1_555 1_555
S1B C3B 1_555 1_555
S1C C3C 1_555 1_555
S2A C8A 1_555 1_555
S2B C8B 1_555 1_555
S2C C8C 1_555 1_555
Cl1_2 Na2A 1_555 1_555
Cl1_3 Na2B 1_555 1_555
Cl1_4 Na2C 1_555 1_555
O9A Na1 1_555 1_555
O9B Na2 1_555 1_555
O9A_2 Na2B_3 1_555 1_555
O9_2 Na1_2 1_555 1_555
O9C Na2A 1_555 1_555
O9A_3 Na2B 1_555 1_555
O9_3 Na2C 1_555 1_555
O12A Na2A 1_555 1_555
O12B Na2B 1_555 1_555
O12C Na2C 1_555 1_555
C5 N1 1_555 1_555
C10 N2 1_555 1_555
O2 Dy1 1_555 1_555
O3 S1 1_555 1_555
O4 S1 1_555 1_555
O8 Na2A_2 1_555 1_555
C5A N1A 1_555 1_555
C5B N1B 1_555 1_555
C5C N1C 1_555 1_555
C10A N2A 1_555 1_555
C10B N2B 1_555 1_555
C10C N2C 1_555 1_555
N1A O1A 1_555 1_555
N1B O1B 1_555 1_555
N1C O1C 1_555 1_555
N2A O2A 1_555 1_555
N2B O2B 1_555 1_555
N2C O2C 1_555 1_555
O3A S1A 1_555 1_555
O3B S1B 1_555 1_555
O3C S1C 1_555 1_555
O4A S1A 1_555 1_555
O4B S1B 1_555 1_555
O4C S1C 1_555 1_555
O4B_2 Na2B_2 1_555 1_555
O6A S2A 1_555 1_555
O6B S2B 1_555 1_555
O6C S2C 1_555 1_555
O6B_2 Na2C_2 1_555 1_555
O6A_2 Na1B 1_555 1_555
O6C_3 Na2B_3 1_555 1_555
O8A S2A 1_555 1_555
O8B S2B 1_555 1_555
O8C S2C 1_555 1_555
Na1B O9B 1_555 1_555
Na2B_3 Cl1_2 1_555 1_555
Na2_3 Cl1_3 1_555 1_555
Na2A_4 Cl1_4 1_555 1_555
Na2B_5 O9A 1_555 1_555
Na2C_4 O9_2 1_555 1_555

#END
