
#######################################################################
#
#                 Cambridge Crystallographic Data Centre
#                                CCDC 
#
#######################################################################
#
# If this CIF has been generated from an entry in the Cambridge 
# Structural Database, then it will include bibliographic, chemical, 
# crystal, experimental, refinement or atomic coordinate data resulting 
# from the CCDC's data processing and validation procedures.
#
#######################################################################

data_TIQHEH
_chemical_formula_moiety         '(C40 H44 Cl1 N8 Na6 O42 S8 Tb1)n'
_symmetry_cell_setting           tetragonal
_symmetry_space_group_name_H-M   'P -4'
_symmetry_Int_Tables_number      81
_space_group_name_Hall           'P -4'
loop_
_symmetry_equiv_pos_site_id
_symmetry_equiv_pos_as_xyz
1 x,y,z
2 -x,-y,z
3 y,-x,-z
4 -y,x,-z
_cell_length_a                   12.245(5)
_cell_length_b                   12.245(5)
_cell_length_c                   12.407(5)
_cell_angle_alpha                90
_cell_angle_beta                 90
_cell_angle_gamma                90
_cell_volume                     1860.31
loop_
_atom_site_label
_atom_site_type_symbol
_atom_site_fract_x
_atom_site_fract_y
_atom_site_fract_z
C1 C 0.2045(5) 1.2228(5) 0.6502(5)
H1 H 0.1566 1.2745 0.6182
C2 C 0.3093(5) 1.2539(5) 0.6747(6)
H2 H 0.3334 1.3261 0.6601
C3 C 0.3798(5) 1.1783(5) 0.7210(5)
C4 C 0.3437(5) 1.0725(5) 0.7375(5)
H3 H 0.3920 1.0194 0.7666
C5 C 0.2359(5) 1.0435(5) 0.7114(4)
C6 C 0.1941(5) 0.9356(5) 0.7393(5)
C7 C 0.1995(5) 0.8981(5) 0.8470(5)
H4 H 0.2233 0.9449 0.9033
C8 C 0.1690(5) 0.7910(5) 0.8681(5)
C9 C 0.1330(6) 0.7237(6) 0.7838(6)
H5 H 0.1120 0.6504 0.7979
C10 C 0.1284(6) 0.7644(5) 0.6805(5)
H6 H 0.1032 0.7194 0.6233
N1 N 0.1680(5) 1.1221(4) 0.6698(4)
N2 N 0.1599(4) 0.8690(4) 0.6601(4)
O1 O 0.0658(3) 1.0960(3) 0.6532(3)
O2 O 0.1552(3) 0.9047(4) 0.5594(3)
O3 O 0.2806(4) 0.6701(4) 0.9962(7)
O4 O 0.0837(4) 0.6707(4) 1.0140(5)
O5 O 0.1881(5) 0.8286(4) 1.0714(4)
O6 O 0.5833(4) 1.1977(6) 0.6685(5)
O7 O 0.5089(5) 1.3258(5) 0.7980(8)
O8 O 0.5407(4) 1.1403(5) 0.8490(4)
S1 S 0.51488(13) 1.21314(13) 0.76118(14)
S2 S 0.18118(11) 0.73636(11) 1.0004(2)
Tb1 Tb 0.0000 1.0000 0.5000
Na1 Na 0.0000 0.5000 1.0134(4)
Na2 Na 0.4716(4) 0.7269(8) 1.0062(8)
Cl1 Cl 0.5000 0.5000 1.0000
O10 O 0.1150(6) 0.4151(6) 0.8842(6)
O13 O 0.4875(11) 0.6575(12) 1.1767(11)
C1A C -0.2045(5) 0.7772(5) 0.6502(5)
C1B C 0.2228(5) 0.7955(5) 0.3498(5)
C1C C -0.2228(5) 1.2045(5) 0.3498(5)
H1A H -0.1566 0.7255 0.6182
H1B H 0.2745 0.8434 0.3818
H1C H -0.2745 1.1566 0.3818
C2A C -0.3093(5) 0.7461(5) 0.6747(6)
C2B C 0.2539(5) 0.6907(5) 0.3253(6)
C2C C -0.2539(5) 1.3093(5) 0.3253(6)
H2A H -0.3334 0.6739 0.6601
H2B H 0.3261 0.6666 0.3399
H2C H -0.3261 1.3334 0.3399
C3A C -0.3798(5) 0.8217(5) 0.7210(5)
C3B C 0.1783(5) 0.6202(5) 0.2790(5)
C3C C -0.1783(5) 1.3798(5) 0.2790(5)
C4A C -0.3437(5) 0.9275(5) 0.7375(5)
C4B C 0.0725(5) 0.6563(5) 0.2625(5)
C4C C -0.0725(5) 1.3437(5) 0.2625(5)
H3A H -0.3920 0.9806 0.7666
H3B H 0.0194 0.6080 0.2334
H3C H -0.0194 1.3920 0.2334
C5A C -0.2359(5) 0.9565(5) 0.7114(4)
C5B C 0.0435(5) 0.7641(5) 0.2886(4)
C5C C -0.0435(5) 1.2359(5) 0.2886(4)
C6A C -0.1941(5) 1.0644(5) 0.7393(5)
C6B C -0.0644(5) 0.8059(5) 0.2607(5)
C6C C 0.0644(5) 1.1941(5) 0.2607(5)
C7A C -0.1995(5) 1.1019(5) 0.8470(5)
C7B C -0.1019(5) 0.8005(5) 0.1530(5)
C7C C 0.1019(5) 1.1995(5) 0.1530(5)
H4A H -0.2233 1.0551 0.9033
H4B H -0.0551 0.7767 0.0967
H4C H 0.0551 1.2233 0.0967
C8A C -0.1690(5) 1.2090(5) 0.8681(5)
C8B C -0.2090(5) 0.8310(5) 0.1319(5)
C8C C 0.2090(5) 1.1690(5) 0.1319(5)
C9A C -0.1330(6) 1.2763(6) 0.7838(6)
C9B C -0.2763(6) 0.8670(6) 0.2162(6)
C9C C 0.2763(6) 1.1330(6) 0.2162(6)
H5A H -0.1120 1.3496 0.7979
H5B H -0.3496 0.8880 0.2021
H5C H 0.3496 1.1120 0.2021
C10A C -0.1284(6) 1.2356(5) 0.6805(5)
C10B C -0.2356(5) 0.8716(6) 0.3195(5)
C10C C 0.2356(5) 1.1284(6) 0.3195(5)
H6A H -0.1032 1.2806 0.6233
H6B H -0.2806 0.8968 0.3767
H6C H 0.2806 1.1032 0.3767
N1A N -0.1680(5) 0.8779(4) 0.6698(4)
N1B N 0.1221(4) 0.8320(5) 0.3302(4)
N1C N -0.1221(4) 1.1680(5) 0.3302(4)
N2A N -0.1599(4) 1.1310(4) 0.6601(4)
N2B N -0.1310(4) 0.8401(4) 0.3399(4)
N2C N 0.1310(4) 1.1599(4) 0.3399(4)
O1A O -0.0658(3) 0.9040(3) 0.6532(3)
O1B O 0.0960(3) 0.9342(3) 0.3468(3)
O1C O -0.0960(3) 1.0658(3) 0.3468(3)
O2A O -0.1552(3) 1.0953(4) 0.5594(3)
O2B O -0.0953(4) 0.8448(3) 0.4406(3)
O2C O 0.0953(4) 1.1552(3) 0.4406(3)
O3A O -0.2806(4) 1.3299(4) 0.9962(7)
O3B O -0.3299(4) 0.7194(4) 0.0038(7)
O3C O 0.3299(4) 1.2806(4) 0.0038(7)
O3B_2 O 0.6701(4) 0.7194(4) 1.0038(7)
O3C_2 O -0.6701(4) 1.2806(4) 1.0038(7)
O3A_2 O -0.2806(4) 0.3299(4) -0.0038(7)
O3_2 O 0.2806(4) 1.6701(4) -0.0038(7)
O4A O -0.0837(4) 1.3293(4) 1.0140(5)
O4B O -0.3293(4) 0.9163(4) -0.0140(5)
O4C O 0.3293(4) 1.0837(4) -0.0140(5)
O4A_2 O -0.0837(4) 0.3293(4) 1.0140(5)
O4_2 O 0.0837(4) 1.6707(4) 1.0140(5)
O5A O -0.1881(5) 1.1714(4) 1.0714(4)
O5B O -0.1714(4) 0.8119(5) -0.0714(4)
O5C O 0.1714(4) 1.1881(5) -0.0714(4)
O6A O -0.5833(4) 0.8023(6) 0.6685(5)
O6B O 0.1977(6) 0.4167(4) 0.3315(5)
O6C O -0.1977(6) 1.5833(4) 0.3315(5)
O7A O -0.5089(5) 0.6742(5) 0.7980(8)
O7B O 0.3258(5) 0.4911(5) 0.2020(8)
O7C O -0.3258(5) 1.5089(5) 0.2020(8)
O7A_2 O 0.4911(5) 0.6742(5) 0.7980(8)
O7_2 O -0.4911(5) 1.3258(5) 0.7980(8)
O7C_2 O -0.3258(5) 0.5089(5) 0.2020(8)
O7B_2 O 0.3258(5) 1.4911(5) 0.2020(8)
O8A O -0.5407(4) 0.8597(5) 0.8490(4)
O8B O 0.1403(5) 0.4593(4) 0.1510(4)
O8C O -0.1403(5) 1.5407(4) 0.1510(4)
O8B_2 O 0.1403(5) 0.4593(4) 1.1510(4)
O8C_2 O -0.1403(5) 0.5407(4) 1.1510(4)
O8A_2 O 0.4593(4) 0.8597(5) 0.8490(4)
O8B_3 O 0.1403(5) 1.4593(4) 1.1510(4)
O8C_3 O -0.1403(5) 1.5407(4) 1.1510(4)
O8_2 O -0.4593(4) 1.1403(5) 0.8490(4)
O8C_4 O -0.1403(5) 0.5407(4) 0.1510(4)
O8B_4 O 0.1403(5) 1.4593(4) 0.1510(4)
S1A S -0.51488(13) 0.78686(13) 0.76118(14)
S1B S 0.21314(13) 0.48512(13) 0.23882(14)
S1C S -0.21314(13) 1.51488(13) 0.23882(14)
S2A S -0.18118(11) 1.26364(11) 1.0004(2)
S2B S -0.26364(11) 0.81882(11) -0.0004(2)
S2C S 0.26364(11) 1.18118(11) -0.0004(2)
Na1_2 Na 0.0000 1.5000 1.0134(4)
Na1B Na 0.5000 1.0000 0.9866(4)
Na1B_2 Na -0.5000 1.0000 0.9866(4)
Na1B_3 Na -0.5000 1.0000 -0.0134(4)
Na1_3 Na -0.0000 0.5000 0.0134(4)
Na1B_4 Na 0.5000 1.0000 -0.0134(4)
Na1_4 Na 0.0000 1.5000 0.0134(4)
Na2A Na -0.4716(4) 1.2731(8) 1.0062(8)
Na2B Na -0.2731(8) 0.5284(4) -0.0062(8)
Na2C Na 0.2731(8) 1.4716(4) -0.0062(8)
Na2C_2 Na 0.2731(8) 0.4716(4) 0.9938(8)
Na2A_2 Na 0.5284(4) 1.2731(8) 1.0062(8)
Na2A_3 Na 0.5284(4) 0.2731(8) 1.0062(8)
Na2B_2 Na 0.7269(8) 0.5284(4) 0.9938(8)
Na2B_3 Na -0.2731(8) 1.5284(4) 0.9938(8)
Na2_2 Na -0.5284(4) 0.7269(8) 1.0062(8)
Na2_3 Na -0.5284(4) 0.7269(8) 0.0062(8)
Na2C_3 Na 0.2731(8) 0.4716(4) -0.0062(8)
Na2A_4 Na 0.5284(4) 1.2731(8) 0.0062(8)
Na2B_4 Na -0.2731(8) 1.5284(4) -0.0062(8)
Na2B_5 Na -0.2731(8) 0.5284(4) 0.9938(8)
Na2C_4 Na 0.2731(8) 1.4716(4) 0.9938(8)
Cl1_2 Cl -0.5000 1.5000 1.0000
Cl1_3 Cl -0.5000 0.5000 0.0000
Cl1_4 Cl 0.5000 1.5000 0.0000
O10A O -0.1150(6) 0.5849(6) 0.8842(6)
O10B O 0.4151(6) 0.8850(6) 1.1158(6)
O10A_2 O -0.1150(6) 1.5849(6) 0.8842(6)
O10_2 O 0.1150(6) 1.4151(6) 0.8842(6)
O10C O -0.4151(6) 1.1150(6) 1.1158(6)
O10A_3 O -0.1150(6) 0.5849(6) -0.1158(6)
O10_3 O 0.1150(6) 1.4151(6) -0.1158(6)
O13A O -0.4875(11) 1.3425(12) 1.1767(11)
O13B O -0.3425(12) 0.5125(11) -0.1767(11)
O13C O 0.3425(12) 1.4875(11) -0.1767(11)
O11 O 0.1538(16) 1.4807(16) 0.5458(15)
O12 O 0.5000 1.5000 0.5000
loop_
_geom_bond_atom_site_label_1
_geom_bond_atom_site_label_2
_geom_bond_site_symmetry_1
_geom_bond_site_symmetry_2
C1 H1 1_555 1_555
C2 C1 1_555 1_555
H2 C2 1_555 1_555
C3 C2 1_555 1_555
C4 C3 1_555 1_555
H3 C4 1_555 1_555
C5 C4 1_555 1_555
C6 C5 1_555 1_555
C7 C6 1_555 1_555
H4 C7 1_555 1_555
C8 C7 1_555 1_555
C9 C8 1_555 1_555
H5 C9 1_555 1_555
C10 C9 1_555 1_555
H6 C10 1_555 1_555
N1 C1 1_555 1_555
N2 C6 1_555 1_555
O1 N1 1_555 1_555
O2 N2 1_555 1_555
O3 S2 1_555 1_555
O4 S2 1_555 1_555
O5 S2 1_555 1_555
O6 S1 1_555 1_555
O7 S1 1_555 1_555
O8 S1 1_555 1_555
S1 C3 1_555 1_555
S2 C8 1_555 1_555
Tb1 O1 1_555 1_555
Na1 O4 1_555 1_555
Na2 O3 1_555 1_555
Cl1 Na2 1_555 1_555
O10 Na1 1_555 1_555
O13 Na2 1_555 1_555
C1A H1A 1_555 1_555
C1B H1B 1_555 1_555
C1C H1C 1_555 1_555
C2A C1A 1_555 1_555
C2B C1B 1_555 1_555
C2C C1C 1_555 1_555
H2A C2A 1_555 1_555
H2B C2B 1_555 1_555
H2C C2C 1_555 1_555
C3A C2A 1_555 1_555
C3B C2B 1_555 1_555
C3C C2C 1_555 1_555
C4A C3A 1_555 1_555
C4B C3B 1_555 1_555
C4C C3C 1_555 1_555
H3A C4A 1_555 1_555
H3B C4B 1_555 1_555
H3C C4C 1_555 1_555
C5A C4A 1_555 1_555
C5B C4B 1_555 1_555
C5C C4C 1_555 1_555
C6A C5A 1_555 1_555
C6B C5B 1_555 1_555
C6C C5C 1_555 1_555
C7A C6A 1_555 1_555
C7B C6B 1_555 1_555
C7C C6C 1_555 1_555
H4A C7A 1_555 1_555
H4B C7B 1_555 1_555
H4C C7C 1_555 1_555
C8A C7A 1_555 1_555
C8B C7B 1_555 1_555
C8C C7C 1_555 1_555
C9A C8A 1_555 1_555
C9B C8B 1_555 1_555
C9C C8C 1_555 1_555
H5A C9A 1_555 1_555
H5B C9B 1_555 1_555
H5C C9C 1_555 1_555
C10A C9A 1_555 1_555
C10B C9B 1_555 1_555
C10C C9C 1_555 1_555
H6A C10A 1_555 1_555
H6B C10B 1_555 1_555
H6C C10C 1_555 1_555
N1A C1A 1_555 1_555
N1B C1B 1_555 1_555
N1C C1C 1_555 1_555
N2A C6A 1_555 1_555
N2B C6B 1_555 1_555
N2C C6C 1_555 1_555
O1A Tb1 1_555 1_555
O1B Tb1 1_555 1_555
O1C Tb1 1_555 1_555
O2A Tb1 1_555 1_555
O2B Tb1 1_555 1_555
O2C Tb1 1_555 1_555
O3A S2A 1_555 1_555
O3B S2B 1_555 1_555
O3C S2C 1_555 1_555
O3B_2 Na2 1_555 1_555
O3C_2 Na2A 1_555 1_555
O3A_2 Na2B 1_555 1_555
O3_2 Na2C 1_555 1_555
O4A S2A 1_555 1_555
O4B S2B 1_555 1_555
O4C S2C 1_555 1_555
O4A_2 Na1 1_555 1_555
O4_2 Na1_2 1_555 1_555
O5A S2A 1_555 1_555
O5B S2B 1_555 1_555
O5C S2C 1_555 1_555
O6A S1A 1_555 1_555
O6B S1B 1_555 1_555
O6C S1C 1_555 1_555
O7A S1A 1_555 1_555
O7B S1B 1_555 1_555
O7C S1C 1_555 1_555
O7A_2 Na2 1_555 1_555
O7_2 Na2A 1_555 1_555
O7C_2 Na2B 1_555 1_555
O7B_2 Na2C 1_555 1_555
O8A S1A 1_555 1_555
O8B S1B 1_555 1_555
O8C S1C 1_555 1_555
O8B_2 Na1 1_555 1_555
O8C_2 Na1 1_555 1_555
O8A_2 Na2 1_555 1_555
O8B_3 Na1_2 1_555 1_555
O8C_3 Na1_2 1_555 1_555
O8_2 Na1B_2 1_555 1_555
O8C_4 Na1_3 1_555 1_555
O8B_4 Na1_4 1_555 1_555
S1A C3A 1_555 1_555
S1B C3B 1_555 1_555
S1C C3C 1_555 1_555
S2A C8A 1_555 1_555
S2B C8B 1_555 1_555
S2C C8C 1_555 1_555
Na1_2 O4A 1_555 1_555
Na1B O8 1_555 1_555
Na1B_2 O8A 1_555 1_555
Na1B_3 O4B 1_555 1_555
Na1_3 O8B 1_555 1_555
Na1B_4 O4C 1_555 1_555
Na1_4 O8C 1_555 1_555
Na2A O3A 1_555 1_555
Na2B O3B 1_555 1_555
Na2C O3C 1_555 1_555
Na2C_2 O3 1_555 1_555
Na2A_2 O7 1_555 1_555
Na2A_3 Cl1 1_555 1_555
Na2B_2 Cl1 1_555 1_555
Na2B_3 O3A 1_555 1_555
Na2_2 O7A 1_555 1_555
Na2_3 O3B 1_555 1_555
Na2C_3 O7B 1_555 1_555
Na2A_4 O3C 1_555 1_555
Na2B_4 O7C 1_555 1_555
Na2B_5 O8C_2 1_555 1_555
Na2C_4 O8B_3 1_555 1_555
Cl1_2 Na2A 1_555 1_555
Cl1_3 Na2B 1_555 1_555
Cl1_4 Na2C 1_555 1_555
O10A Na1 1_555 1_555
O10B Na2 1_555 1_555
O10A_2 Na1_2 1_555 1_555
O10_2 Na1_2 1_555 1_555
O10C Na1B_2 1_555 1_555
O10A_3 Na1_3 1_555 1_555
O10_3 Na1_4 1_555 1_555
O13A Na2A 1_555 1_555
O13B Na2B 1_555 1_555
O13C Na2C 1_555 1_555
C5 N1 1_555 1_555
C10 N2 1_555 1_555
O2 Tb1 1_555 1_555
O8 Na2A_2 1_555 1_555
Cl1 Na2C_2 1_555 1_555
O10 Na2C_2 1_555 1_555
C5A N1A 1_555 1_555
C5B N1B 1_555 1_555
C5C N1C 1_555 1_555
C10A N2A 1_555 1_555
C10B N2B 1_555 1_555
C10C N2C 1_555 1_555
N1A O1A 1_555 1_555
N1B O1B 1_555 1_555
N1C O1C 1_555 1_555
N2A O2A 1_555 1_555
N2B O2B 1_555 1_555
N2C O2C 1_555 1_555
O3B_2 Na2B_2 1_555 1_555
O8A Na2_2 1_555 1_555
O8B Na2C_3 1_555 1_555
O8C Na2B_4 1_555 1_555
O8B_2 Na2C_2 1_555 1_555
O8A_2 Na1B 1_555 1_555
O8C_3 Na2B_3 1_555 1_555
O8_2 Na2A 1_555 1_555
O8C_4 Na2B 1_555 1_555
O8B_4 Na2C 1_555 1_555
Na1B O10B 1_555 1_555
Na2A O10C 1_555 1_555
Na2B O10A_3 1_555 1_555
Na2C O10_3 1_555 1_555
Na2B_3 Cl1_2 1_555 1_555
Na2B_3 O10A_2 1_555 1_555
Na2_3 Cl1_3 1_555 1_555
Na2A_4 Cl1_4 1_555 1_555
Na2B_5 O10A 1_555 1_555
Na2C_4 O10_2 1_555 1_555

#END
