
#######################################################################
#
#                 Cambridge Crystallographic Data Centre
#                                CCDC 
#
#######################################################################
#
# If this CIF has been generated from an entry in the Cambridge 
# Structural Database, then it will include bibliographic, chemical, 
# crystal, experimental, refinement or atomic coordinate data resulting 
# from the CCDC's data processing and validation procedures.
#
#######################################################################

data_FEPQEW
_chemical_formula_moiety         '(C9 H22 N6 O14 P3 Ti2)n'
_symmetry_cell_setting           orthorhombic
_symmetry_space_group_name_H-M   'P n n a'
_symmetry_Int_Tables_number      52
_space_group_name_Hall           '-P 2a 2bc'
loop_
_symmetry_equiv_pos_site_id
_symmetry_equiv_pos_as_xyz
1 x,y,z
2 1/2-x,-y,z
3 1/2-x,1/2+y,1/2-z
4 x,1/2-y,1/2-z
5 -x,-y,-z
6 1/2+x,y,-z
7 1/2+x,1/2-y,1/2+z
8 -x,1/2+y,1/2+z
_cell_length_a                   12.702(5)
_cell_length_b                   9.365(4)
_cell_length_c                   11.253(8)
_cell_angle_alpha                90
_cell_angle_beta                 90
_cell_angle_gamma                90
_cell_volume                     1338.59
loop_
_atom_site_label
_atom_site_type_symbol
_atom_site_fract_x
_atom_site_fract_y
_atom_site_fract_z
Ti1 Ti 0.25799(11) 0.2500 0.2500
Ti2 Ti 0.0000 0.0000 0.0000
P1 P 0.42472(12) 0.5116(2) 0.20056(14)
P2 P 0.2500 0.0000 0.0337(2)
O1 O 0.2378(3) -0.1318(5) 0.1124(4)
O2 O 0.5141(4) 0.5306(6) 0.1095(5)
H5 H 0.5697(13) 0.5032(86) 0.1386(28)
O3 O 0.3732(3) 0.3678(5) 0.1767(4)
O4 O 0.3449(4) 0.6299(6) 0.1768(4)
O5 O 0.1534(4) 0.0148(5) -0.0441(4)
O6 O 0.0310(4) 0.4773(6) 0.3247(4)
O7 O -0.0126(4) 0.2162(6) -0.0156(4)
H6 H 0.0487 0.2526 -0.0563
H7 H -0.0742 0.2390 -0.0616
Ti1A Ti 0.24201(11) -0.2500 0.2500
O1A O 0.2622(3) 0.1318(5) 0.1124(4)
O1B O 0.2622(3) 0.3682(5) 0.3876(4)
Ti1A_2 Ti 0.24201(11) 0.7500 0.2500
O3A O 0.1268(3) 0.6322(5) 0.1767(4)
P1A P 0.07528(12) 0.4884(2) 0.20056(14)
O2A O -0.0141(4) 0.4694(6) 0.1095(5)
H5A H -0.0697(13) 0.4968(86) 0.1386(28)
O4A O 0.1551(4) 0.3701(6) 0.1768(4)
O3C O 0.3732(3) 0.1322(5) 0.3233(4)
P1B P 0.07528(12) 0.0116(2) 0.29944(14)
O4B O 0.1551(4) 0.1299(6) 0.3232(4)
O6C O 0.0310(4) 0.0227(6) 0.1753(4)
O5D O -0.1534(4) -0.0148(5) 0.0441(4)
O6G O -0.0310(4) -0.0227(6) -0.1753(4)
O7D O 0.0126(4) -0.2162(6) 0.0156(4)
H6D H -0.0487 -0.2526 0.0563
H7D H 0.0742 -0.2390 0.0616
Ti2E Ti 0.5000 0.0000 0.0000
Ti2G Ti 0.0000 0.5000 0.5000
O6A O 0.4690(4) 0.5227(6) 0.3247(4)
Ti2F Ti 0.5000 0.5000 0.5000
O5A O 0.3466(4) -0.0148(5) -0.0441(4)
C1 C -0.1934(18) -0.7500 0.2500
H1 H -0.1485(18) -0.6818 0.2906
H2 H -0.1485(18) -0.8182 0.2094
C2 C -0.2599(15) -0.8258(20) 0.3382(12)
H3 H -0.2597(15) -0.7925(20) 0.4207(12)
N1 N -0.2600(22) -0.9817(16) 0.3151(35)
H4 H -0.2189 -1.0014 0.2569
N1A N -0.2400(22) -1.0183(16) 0.3151(35)
C2A C -0.2401(15) -1.1742(20) 0.3382(12)
C1A C -0.3066(18) -1.2500 0.2500
H1A H -0.3515(18) -1.3182 0.2906
H1B H -0.3515(18) -1.1818 0.2094
C2B C -0.2401(15) -1.3258(20) 0.1618(12)
H3B H -0.2403(15) -1.2925(20) 0.0793(12)
N1B N -0.2400(22) -1.4817(16) 0.1849(35)
N1C N -0.2600(22) -1.5183(16) 0.1849(35)
C2C C -0.2599(15) -1.6742(20) 0.1618(12)
C1_2 C -0.1934(18) -1.7500 0.2500
H1C H -0.1485(18) -1.8182 0.2094
H1_2 H -0.1485(18) -1.6818 0.2906
C2_2 C -0.2599(15) -1.8258(20) 0.3382(12)
H3_2 H -0.2597(15) -1.7925(20) 0.4207(12)
N1_2 N -0.2600(22) -1.9817(16) 0.3151(35)
H3C H -0.2597(15) -1.7075(20) 0.0793(12)
H4C H -0.2189 -1.4986 0.2431
H4B H -0.2811 -1.5014 0.2431
H3A H -0.2403(15) -1.2075(20) 0.4207(12)
H4A H -0.2811 -0.9986 0.2569
C2C_2 C -0.2599(15) -0.6742(20) 0.1618(12)
H3C_2 H -0.2597(15) -0.7075(20) 0.0793(12)
N1C_2 N -0.2600(22) -0.5183(16) 0.1849(35)
loop_
_geom_bond_atom_site_label_1
_geom_bond_atom_site_label_2
_geom_bond_site_symmetry_1
_geom_bond_site_symmetry_2
C1 H1 1_555 1_555
H2 C1 1_555 1_555
C2 C1 1_555 1_555
H3 C2 1_555 1_555
N1 C2 1_555 1_555
H4 N1 1_555 1_555
Ti1 O3 1_555 1_555
Ti2 O5 1_555 1_555
P1 O2 1_555 1_555
P2 O1 1_555 1_555
O1 Ti1A 1_555 1_555
O2 H5 1_555 1_555
O3 P1 1_555 1_555
O4 P1 1_555 1_555
O5 P2 1_555 1_555
O6 P1A 1_555 1_555
O7 Ti2 1_555 1_555
H6 O7 1_555 1_555
H7 O7 1_555 1_555
N1A N1 1_555 1_555
C2A N1A 1_555 1_555
C1A C2A 1_555 1_555
H1A C1A 1_555 1_555
H1B C1A 1_555 1_555
C2B C1A 1_555 1_555
H3B C2B 1_555 1_555
N1B C2B 1_555 1_555
N1C N1B 1_555 1_555
C2C N1C 1_555 1_555
C1_2 C2C 1_555 1_555
H1C C1_2 1_555 1_555
H1_2 C1_2 1_555 1_555
C2_2 C1_2 1_555 1_555
H3_2 C2_2 1_555 1_555
N1_2 C2_2 1_555 1_555
H3C C2C 1_555 1_555
H4C N1B 1_555 1_555
H4B N1B 1_555 1_555
H3A C2A 1_555 1_555
H4A N1 1_555 1_555
C2C_2 C1 1_555 1_555
H3C_2 C2C_2 1_555 1_555
N1C_2 C2C_2 1_555 1_555
O1A Ti1 1_555 1_555
O1B Ti1 1_555 1_555
Ti1A_2 O4 1_555 1_555
O3A Ti1A_2 1_555 1_555
P1A O3A 1_555 1_555
O2A P1A 1_555 1_555
H5A O2A 1_555 1_555
O4A Ti1 1_555 1_555
O3C Ti1 1_555 1_555
P1B O4B 1_555 1_555
O4B Ti1 1_555 1_555
O6C Ti2 1_555 1_555
O5D Ti2 1_555 1_555
O6G Ti2 1_555 1_555
O7D Ti2 1_555 1_555
H6D O7D 1_555 1_555
H7D O7D 1_555 1_555
Ti2E O5A 1_555 1_555
Ti2G O6 1_555 1_555
O6A P1 1_555 1_555
Ti2F O6A 1_555 1_555
O5A P2 1_555 1_555
H4 N1A 1_555 1_555
H4 H4A 1_555 1_555
P2 O1A 1_555 1_555
N1A H4A 1_555 1_555
N1C H4C 1_555 1_555
N1C H4B 1_555 1_555
H4C H4B 1_555 1_555
P1A O4A 1_555 1_555
P1B O6C 1_555 1_555

#END
