
#######################################################################
#
#                 Cambridge Crystallographic Data Centre
#                                CCDC 
#
#######################################################################
#
# If this CIF has been generated from an entry in the Cambridge 
# Structural Database, then it will include bibliographic, chemical, 
# crystal, experimental, refinement or atomic coordinate data resulting 
# from the CCDC's data processing and validation procedures.
#
#######################################################################

data_FEXCES
_chemical_formula_moiety         '(C26 H20 Co2 N2 O11)n'
_symmetry_cell_setting           trigonal
_symmetry_space_group_name_H-M   'P 31 2 1'
_symmetry_Int_Tables_number      152
_space_group_name_Hall           'P 31 2"'
loop_
_symmetry_equiv_pos_site_id
_symmetry_equiv_pos_as_xyz
1 x,y,z
2 -y,x-y,1/3+z
3 -x+y,-x,2/3+z
4 y,x,-z
5 x-y,-y,2/3-z
6 -x,-x+y,1/3-z
_cell_length_a                   11.050(3)
_cell_length_b                   11.050(3)
_cell_length_c                   27.772(10)
_cell_angle_alpha                90
_cell_angle_beta                 90
_cell_angle_gamma                120
_cell_volume                     2936.72
loop_
_atom_site_label
_atom_site_type_symbol
_atom_site_fract_x
_atom_site_fract_y
_atom_site_fract_z
_atom_site_U_iso_or_equiv
_atom_site_thermal_displace_type
N1 N 0.1503(4) 0.6878(4) 0.28022(13) 0.0456 Uani
C1 C 0.2400(5) 0.7207(5) 0.24356(16) 0.0456 Uani
H1 H 0.2536 0.7932 0.2231 0.0550 Uiso
C2 C 0.3142(5) 0.6512(5) 0.23461(16) 0.0418 Uani
C3 C 0.2906(5) 0.5438(5) 0.26526(17) 0.0457 Uani
H2 H 0.3365 0.4938 0.2602 0.0550 Uiso
C4 C 0.1974(5) 0.5090(5) 0.30424(17) 0.0471 Uani
C5 C 0.1245(5) 0.5834(5) 0.30878(16) 0.0451 Uani
H3 H 0.0568 0.5576 0.3326 0.0540 Uiso
C6 C 0.1680(5) 0.3923(5) 0.33822(17) 0.0446 Uani
C7 C 0.4129(5) 0.6947(5) 0.19330(16) 0.0476 Uani
C8 C 0.3844(6) 0.7423(5) 0.15122(17) 0.0556 Uani
H4 H 0.3069 0.7540 0.1493 0.0670 Uiso
C9 C 0.4729(5) 0.7726(6) 0.11163(17) 0.0508 Uani
H5 H 0.4543 0.8067 0.0836 0.0600 Uiso
C10 C 0.5898(5) 0.7531(5) 0.11285(17) 0.0410 Uani
C11 C 0.6213(5) 0.7110(6) 0.15750(19) 0.0534 Uani
H6 H 0.7019 0.7047 0.1603 0.0650 Uiso
C12 C 0.5325(5) 0.6793(6) 0.19669(17) 0.0487 Uani
H7 H 0.5515 0.6479 0.2252 0.0580 Uiso
C13 C 0.6828(5) 0.7801(4) 0.07048(18) 0.0408 Uani
O1 O 0.7793(4) 0.7539(3) 0.07519(11) 0.0504 Uani
O2 O 0.6508(4) 0.8187(4) 0.03262(12) 0.0587 Uani
O3 O 0.2261(4) 0.3225(3) 0.32827(12) 0.0480 Uani
O4 O 0.0928(5) 0.3746(4) 0.37317(15) 0.0790 Uani
O5 O 0.9572(4) 0.9572(4) 0.0000 0.0410 Uani
H8 H 1.0184 0.9846 -0.0222 0.0610 Uiso
O6 O 1.0601(4) 0.8615(4) 0.08851(12) 0.0635 Uani
H9 H 1.0309 0.8050 0.1121 0.0950 Uiso
H10 H 1.1473 0.8923 0.0859 0.0950 Uiso
Co1 Co 0.92301(6) 0.75378(6) 0.02925(2) 0.0343 Uani
H8C H 0.9846 1.0184 0.0222 0.0610 Uiso
N1C N 0.6878(4) 0.1503(4) -0.28022(13) 0.0456 Uani
C1C C 0.7207(5) 0.2400(5) -0.24356(16) 0.0456 Uani
H1C H 0.7932 0.2536 -0.2231 0.0550 Uiso
C2C C 0.6512(5) 0.3142(5) -0.23461(16) 0.0418 Uani
C3C C 0.5438(5) 0.2906(5) -0.26526(17) 0.0457 Uani
H2C H 0.4938 0.3365 -0.2602 0.0550 Uiso
C4C C 0.5090(5) 0.1974(5) -0.30424(17) 0.0471 Uani
C5C C 0.5834(5) 0.1245(5) -0.30878(16) 0.0451 Uani
H3C H 0.5576 0.0568 -0.3326 0.0540 Uiso
C6C C 0.3923(5) 0.1680(5) -0.33822(17) 0.0446 Uani
C7C C 0.6947(5) 0.4129(5) -0.19330(16) 0.0476 Uani
C8C C 0.7423(5) 0.3844(6) -0.15122(17) 0.0556 Uani
H4C H 0.7540 0.3069 -0.1493 0.0670 Uiso
C9C C 0.7726(6) 0.4729(5) -0.11163(17) 0.0508 Uani
H5C H 0.8067 0.4543 -0.0836 0.0600 Uiso
C10C C 0.7531(5) 0.5898(5) -0.11285(17) 0.0410 Uani
C11C C 0.7110(6) 0.6213(5) -0.15750(19) 0.0534 Uani
H6C H 0.7047 0.7019 -0.1603 0.0650 Uiso
C12C C 0.6793(6) 0.5325(5) -0.19669(17) 0.0487 Uani
H7C H 0.6479 0.5515 -0.2252 0.0580 Uiso
C13C C 0.7801(4) 0.6828(5) -0.07048(18) 0.0408 Uani
O1C O 0.7539(3) 0.7793(4) -0.07519(11) 0.0504 Uani
O2C O 0.8187(4) 0.6508(4) -0.03262(12) 0.0587 Uani
O3C O 0.3225(3) 0.2261(4) -0.32827(12) 0.0480 Uani
O4C O 0.3746(4) 0.0928(5) -0.37317(15) 0.0790 Uani
O6C O 0.8615(4) 1.0601(4) -0.08851(12) 0.0635 Uani
H9C H 0.8050 1.0309 -0.1121 0.0950 Uiso
H10C H 0.8923 1.1473 -0.0859 0.0950 Uiso
Co1C Co 0.75378(6) 0.92301(6) -0.02925(2) 0.0343 Uani
N1B N 0.5375(6) 0.8497(4) -0.05311(13) 0.0456 Uani
N1E N 0.8497(4) 0.5375(6) 0.05311(13) 0.0456 Uani
O3B O 1.0964(5) 0.7739(4) -0.00506(12) 0.0480 Uani
O3E O 0.7739(4) 1.0964(5) 0.00506(12) 0.0480 Uani
Co1A Co 0.24622(6) 0.16923(8) 0.36258(2) 0.0343 Uani
Co1B Co 0.83077(8) 0.07699(6) -0.30408(2) 0.0343 Uani
Co1D Co 0.16923(8) 0.24622(6) -0.36258(2) 0.0343 Uani
Co1E Co 0.07699(6) 0.83077(8) 0.30408(2) 0.0343 Uani
loop_
_atom_site_aniso_label
_atom_site_aniso_U_11
_atom_site_aniso_U_22
_atom_site_aniso_U_33
_atom_site_aniso_U_23
_atom_site_aniso_U_13
_atom_site_aniso_U_12
N1 0.055(3) 0.054(2) 0.038(2) 0.0071(18) 0.0100(19) 0.035(2)
C1 0.054(3) 0.057(3) 0.030(2) 0.018(2) 0.015(2) 0.031(3)
C2 0.050(3) 0.047(3) 0.032(2) 0.014(2) 0.016(2) 0.027(3)
C3 0.044(3) 0.055(3) 0.049(3) 0.008(2) 0.009(2) 0.033(2)
C4 0.066(3) 0.047(3) 0.040(3) 0.011(2) 0.014(3) 0.037(3)
C5 0.054(3) 0.046(3) 0.042(3) 0.007(2) 0.012(2) 0.030(2)
C6 0.058(3) 0.049(3) 0.035(3) 0.009(2) 0.009(2) 0.033(2)
C7 0.060(3) 0.060(3) 0.036(3) 0.008(2) 0.012(2) 0.040(3)
C8 0.070(3) 0.055(3) 0.052(3) 0.019(3) 0.020(3) 0.039(3)
C9 0.057(3) 0.072(4) 0.039(3) 0.013(3) 0.020(2) 0.044(3)
C10 0.049(3) 0.052(3) 0.031(2) 0.008(2) 0.010(2) 0.032(2)
C11 0.055(3) 0.062(3) 0.055(3) 0.011(3) 0.005(3) 0.038(3)
C12 0.053(3) 0.071(3) 0.034(3) 0.006(2) 0.008(2) 0.040(3)
C13 0.034(3) 0.038(2) 0.045(3) 0.009(2) 0.006(2) 0.014(2)
O1 0.062(2) 0.065(2) 0.0423(19) 0.0131(17) 0.0233(17) 0.0453(19)
O2 0.059(2) 0.078(3) 0.044(2) 0.0126(19) 0.0127(18) 0.038(2)
O3 0.067(2) 0.0502(18) 0.0412(18) 0.0169(15) 0.0165(17) 0.0401(18)
O4 0.106(3) 0.076(3) 0.081(3) 0.036(2) 0.054(3) 0.065(3)
O5 0.0396(17) 0.0396(17) 0.036(2) -0.0001(10) 0.0001(10) 0.0140(19)
O6 0.045(2) 0.088(3) 0.0468(19) -0.013(2) 0.0041(17) 0.0253(18)
Co1 0.0345(3) 0.0359(3) 0.0334(3) -0.0039(3) 0.0034(3) 0.0182(3)
N1C 0.054 0.055 0.038 -0.01 -0.0071 0.035
C1C 0.057 0.054 0.03 -0.015 -0.018 0.031
C2C 0.047 0.05 0.032 -0.016 -0.014 0.027
C3C 0.055 0.044 0.049 -0.009 -0.008 0.033
C4C 0.047 0.066 0.04 -0.014 -0.011 0.037
C5C 0.046 0.054 0.042 -0.012 -0.007 0.03
C6C 0.049 0.058 0.035 -0.009 -0.009 0.033
C7C 0.06 0.06 0.036 -0.012 -0.008 0.04
C8C 0.055 0.07 0.052 -0.02 -0.019 0.039
C9C 0.072 0.057 0.039 -0.02 -0.013 0.044
C10C 0.052 0.049 0.031 -0.01 -0.008 0.032
C11C 0.062 0.055 0.055 -0.005 -0.011 0.038
C12C 0.071 0.053 0.034 -0.008 -0.006 0.04
C13C 0.038 0.034 0.045 -0.006 -0.009 0.014
O1C 0.065 0.062 0.0423 -0.0233 -0.0131 0.0453
O2C 0.078 0.059 0.044 -0.0127 -0.0126 0.038
O3C 0.0502 0.067 0.0412 -0.0165 -0.0169 0.0401
O4C 0.076 0.106 0.081 -0.054 -0.036 0.065
O6C 0.088 0.045 0.0468 -0.0041 0.013 0.0253
Co1C 0.0359 0.0345 0.0334 -0.0034 0.0039 0.0182
N1B 0.039 0.055 0.038 -0.01 -0.0029 0.02
N1E 0.055 0.039 0.038 0.0029 0.01 0.02
O3B 0.037 0.067 0.0412 -0.0165 0.0004 0.0269
O3E 0.067 0.037 0.0412 -0.0004 0.0165 0.0269
Co1A 0.0359 0.034 0.0334 0.0073 0.0039 0.0177
Co1B 0.034 0.0345 0.0334 -0.0034 -0.0073 0.0163
Co1D 0.034 0.0359 0.0334 -0.0039 -0.0073 0.0177
Co1E 0.0345 0.034 0.0334 0.0073 0.0034 0.0163
loop_
_geom_bond_atom_site_label_1
_geom_bond_atom_site_label_2
_geom_bond_site_symmetry_1
_geom_bond_site_symmetry_2
N1 C1 1_555 1_555
C1 H1 1_555 1_555
C2 C1 1_555 1_555
C3 C2 1_555 1_555
H2 C3 1_555 1_555
C4 C3 1_555 1_555
C5 N1 1_555 1_555
H3 C5 1_555 1_555
C6 C4 1_555 1_555
C7 C2 1_555 1_555
C8 C7 1_555 1_555
H4 C8 1_555 1_555
C9 C8 1_555 1_555
H5 C9 1_555 1_555
C10 C9 1_555 1_555
C11 C10 1_555 1_555
H6 C11 1_555 1_555
C12 C7 1_555 1_555
H7 C12 1_555 1_555
C13 C10 1_555 1_555
O1 C13 1_555 1_555
O2 C13 1_555 1_555
O3 C6 1_555 1_555
O4 C6 1_555 1_555
O5 H8 1_555 1_555
O6 H9 1_555 1_555
H10 O6 1_555 1_555
Co1 O1 1_555 1_555
H8C O5 1_555 1_555
N1C C1C 1_555 1_555
C1C H1C 1_555 1_555
C2C C1C 1_555 1_555
C3C C2C 1_555 1_555
H2C C3C 1_555 1_555
C4C C3C 1_555 1_555
C5C N1C 1_555 1_555
H3C C5C 1_555 1_555
C6C C4C 1_555 1_555
C7C C2C 1_555 1_555
C8C C7C 1_555 1_555
H4C C8C 1_555 1_555
C9C C8C 1_555 1_555
H5C C9C 1_555 1_555
C10C C9C 1_555 1_555
C11C C10C 1_555 1_555
H6C C11C 1_555 1_555
C12C C7C 1_555 1_555
H7C C12C 1_555 1_555
C13C C10C 1_555 1_555
O1C C13C 1_555 1_555
O2C Co1 1_555 1_555
O3C C6C 1_555 1_555
O4C C6C 1_555 1_555
O6C H9C 1_555 1_555
H10C O6C 1_555 1_555
Co1C O2 1_555 1_555
N1B Co1C 1_555 1_555
N1E Co1 1_555 1_555
O3B Co1 1_555 1_555
O3E Co1C 1_555 1_555
Co1A O3 1_555 1_555
Co1B N1C 1_555 1_555
Co1D O3C 1_555 1_555
Co1E N1 1_555 1_555
C4 C5 1_555 1_555
C11 C12 1_555 1_555
O5 Co1 1_555 1_555
O5 Co1C 1_555 1_555
O6 Co1 1_555 1_555
C4C C5C 1_555 1_555
C11C C12C 1_555 1_555
C13C O2C 1_555 1_555
O1C Co1C 1_555 1_555
O6C Co1C 1_555 1_555

#END
