
#######################################################################
#
#                 Cambridge Crystallographic Data Centre
#                                CCDC 
#
#######################################################################
#
# If this CIF has been generated from an entry in the Cambridge 
# Structural Database, then it will include bibliographic, chemical, 
# crystal, experimental, refinement or atomic coordinate data resulting 
# from the CCDC's data processing and validation procedures.
#
#######################################################################

data_QOMSAO
_chemical_formula_moiety         '(C24 H18 Cu3 N26 O1)n'
_symmetry_cell_setting           monoclinic
_symmetry_space_group_name_H-M   'P 21/n'
_symmetry_Int_Tables_number      14
_space_group_name_Hall           '-P 2yn'
loop_
_symmetry_equiv_pos_site_id
_symmetry_equiv_pos_as_xyz
1 x,y,z
2 1/2-x,1/2+y,1/2-z
3 -x,-y,-z
4 1/2+x,1/2-y,1/2+z
_cell_length_a                   13.5980(8)
_cell_length_b                   15.0950(8)
_cell_length_c                   15.2510(10)
_cell_angle_alpha                90
_cell_angle_beta                 93.613(6)
_cell_angle_gamma                90
_cell_volume                     3124.23
loop_
_atom_site_label
_atom_site_type_symbol
_atom_site_fract_x
_atom_site_fract_y
_atom_site_fract_z
O1 O -0.0077(9) -0.3482(12) 0.5205(12)
Cu1 Cu 0.0000 -0.0000 0.5000
Cu2 Cu 0.05454(4) -0.18615(4) 0.39589(4)
C1 C 0.3170(5) 0.1585(4) 0.1221(4)
H1 H 0.3391 0.1429 0.0677
C2 C 0.2581(5) 0.0998(4) 0.1639(4)
H2 H 0.2414 0.0456 0.1381
C3 C 0.2241(4) 0.1221(3) 0.2443(3)
C4 C 0.2514(5) 0.2027(4) 0.2794(4)
H3 H 0.2295 0.2202 0.3333
C5 C 0.3107(5) 0.2571(4) 0.2349(4)
H4 H 0.3293 0.3111 0.2601
C6 C 0.1628(4) 0.0619(3) 0.2935(3)
C7 C -0.4198(6) 0.1867(4) 0.1930(4)
H5 H -0.4437 0.1500 0.1476
C8 C -0.3496(5) 0.1539(4) 0.2530(4)
H6 H -0.3251 0.0968 0.2471
C9 C -0.3164(4) 0.2066(4) 0.3218(3)
C10 C -0.3549(6) 0.2891(4) 0.3265(4)
H7 H -0.3352 0.3258 0.3733
C11 C -0.4220(5) 0.3186(4) 0.2635(5)
H8 H -0.4459 0.3762 0.2674
C12 C -0.2389(4) 0.1727(3) 0.3865(3)
N1 N 0.3436(3) 0.2364(3) 0.1560(3)
N2 N 0.1499(3) -0.0236(3) 0.2753(3)
N3 N 0.0922(3) -0.0521(3) 0.3375(3)
N4 N 0.0731(3) 0.0141(3) 0.3898(3)
N5 N 0.1165(3) 0.0869(3) 0.3643(3)
N6 N -0.4548(3) 0.2680(3) 0.1967(3)
N7 N -0.1921(4) 0.0962(3) 0.3778(3)
N8 N -0.1304(3) 0.0917(3) 0.4482(3)
N9 N -0.1394(3) 0.1648(3) 0.4950(3)
N10 N -0.2091(3) 0.2171(3) 0.4580(3)
N11 N -0.0520(3) -0.1171(2) 0.4503(3)
N12 N -0.1358(4) -0.1363(3) 0.4449(4)
N13 N -0.2180(4) -0.1567(6) 0.4391(6)
Cu2B Cu -0.05454(4) 0.18615(4) 0.60411(4)
C1B C -0.3170(5) -0.1585(4) 0.8779(4)
H1B H -0.3391 -0.1429 0.9323
C2B C -0.2581(5) -0.0998(4) 0.8361(4)
H2B H -0.2414 -0.0456 0.8619
C3B C -0.2241(4) -0.1221(3) 0.7557(3)
C4B C -0.2514(5) -0.2027(4) 0.7206(4)
H3B H -0.2295 -0.2202 0.6667
C5B C -0.3107(5) -0.2571(4) 0.7651(4)
H4B H -0.3293 -0.3111 0.7399
C6B C -0.1628(4) -0.0619(3) 0.7065(3)
C7B C 0.4198(6) -0.1867(4) 0.8070(4)
H5B H 0.4437 -0.1500 0.8524
C8B C 0.3496(5) -0.1539(4) 0.7470(4)
H6B H 0.3251 -0.0968 0.7529
C9B C 0.3164(4) -0.2066(4) 0.6782(3)
C10B C 0.3549(6) -0.2891(4) 0.6735(4)
H7B H 0.3352 -0.3258 0.6267
C11B C 0.4220(5) -0.3186(4) 0.7365(5)
H8B H 0.4459 -0.3762 0.7326
C12B C 0.2389(4) -0.1727(3) 0.6135(3)
N1B N -0.3436(3) -0.2364(3) 0.8440(3)
N2B N -0.1499(3) 0.0236(3) 0.7247(3)
N3B N -0.0922(3) 0.0521(3) 0.6625(3)
N4B N -0.0731(3) -0.0141(3) 0.6102(3)
N5B N -0.1165(3) -0.0869(3) 0.6357(3)
N6B N 0.4548(3) -0.2680(3) 0.8033(3)
N7B N 0.1921(4) -0.0962(3) 0.6222(3)
N8B N 0.1304(3) -0.0917(3) 0.5518(3)
N9B N 0.1394(3) -0.1648(3) 0.5050(3)
N10B N 0.2091(3) -0.2171(3) 0.5420(3)
N11B N 0.0520(3) 0.1171(2) 0.5497(3)
N12B N 0.1358(4) 0.1363(3) 0.5551(4)
N13B N 0.2180(4) 0.1567(6) 0.5609(6)
Cu2A Cu -0.55454(4) 0.31385(4) 0.10411(4)
Cu2A_2 Cu 0.44546(4) 0.31385(4) 0.10411(4)
Cu2C Cu -0.44546(4) -0.31385(4) 0.89589(4)
Cu2C_2 Cu 0.55454(4) -0.31385(4) 0.89589(4)
N1A N 0.1564(3) -0.2636(3) 0.3440(3)
N1C N -0.1564(3) 0.2636(3) 0.6560(3)
N6A N -0.0452(3) -0.2320(3) 0.3033(3)
N6C N 0.0452(3) 0.2320(3) 0.6967(3)
loop_
_geom_bond_atom_site_label_1
_geom_bond_atom_site_label_2
_geom_bond_site_symmetry_1
_geom_bond_site_symmetry_2
Cu1 N4 1_555 1_555
Cu2 N3 1_555 1_555
C1 H1 1_555 1_555
C2 C1 1_555 1_555
H2 C2 1_555 1_555
C3 C2 1_555 1_555
C4 C3 1_555 1_555
H3 C4 1_555 1_555
C5 C4 1_555 1_555
H4 C5 1_555 1_555
C6 C3 1_555 1_555
C7 H5 1_555 1_555
C8 C7 1_555 1_555
H6 C8 1_555 1_555
C9 C8 1_555 1_555
C10 C9 1_555 1_555
H7 C10 1_555 1_555
C11 C10 1_555 1_555
H8 C11 1_555 1_555
C12 C9 1_555 1_555
N1 C1 1_555 1_555
N2 C6 1_555 1_555
N3 N2 1_555 1_555
N4 N3 1_555 1_555
N5 C6 1_555 1_555
N6 C7 1_555 1_555
N7 C12 1_555 1_555
N8 Cu1 1_555 1_555
N9 N8 1_555 1_555
N10 C12 1_555 1_555
N11 Cu1 1_555 1_555
N12 N11 1_555 1_555
N13 N12 1_555 1_555
Cu2B N9 1_555 1_555
C1B H1B 1_555 1_555
C2B C1B 1_555 1_555
H2B C2B 1_555 1_555
C3B C2B 1_555 1_555
C4B C3B 1_555 1_555
H3B C4B 1_555 1_555
C5B C4B 1_555 1_555
H4B C5B 1_555 1_555
C6B C3B 1_555 1_555
C7B H5B 1_555 1_555
C8B C7B 1_555 1_555
H6B C8B 1_555 1_555
C9B C8B 1_555 1_555
C10B C9B 1_555 1_555
H7B C10B 1_555 1_555
C11B C10B 1_555 1_555
H8B C11B 1_555 1_555
C12B C9B 1_555 1_555
N1B C1B 1_555 1_555
N2B C6B 1_555 1_555
N3B Cu2B 1_555 1_555
N4B Cu1 1_555 1_555
N5B C6B 1_555 1_555
N6B C7B 1_555 1_555
N7B C12B 1_555 1_555
N8B Cu1 1_555 1_555
N9B Cu2 1_555 1_555
N10B C12B 1_555 1_555
N11B Cu1 1_555 1_555
N12B N11B 1_555 1_555
N13B N12B 1_555 1_555
Cu2A N6 1_555 1_555
Cu2A_2 N1 1_555 1_555
Cu2C N1B 1_555 1_555
Cu2C_2 N6B 1_555 1_555
N1A Cu2 1_555 1_555
N1C Cu2B 1_555 1_555
N6A Cu2 1_555 1_555
N6C Cu2B 1_555 1_555
Cu2 N11 1_555 1_555
C5 N1 1_555 1_555
C11 N6 1_555 1_555
N4 N5 1_555 1_555
N7 N8 1_555 1_555
N9 N10 1_555 1_555
Cu2B N11B 1_555 1_555
C5B N1B 1_555 1_555
C11B N6B 1_555 1_555
N2B N3B 1_555 1_555
N3B N4B 1_555 1_555
N4B N5B 1_555 1_555
N7B N8B 1_555 1_555
N8B N9B 1_555 1_555
N9B N10B 1_555 1_555

#END
