
#######################################################################
#
#                 Cambridge Crystallographic Data Centre
#                                CCDC 
#
#######################################################################
#
# If this CIF has been generated from an entry in the Cambridge 
# Structural Database, then it will include bibliographic, chemical, 
# crystal, experimental, refinement or atomic coordinate data resulting 
# from the CCDC's data processing and validation procedures.
#
#######################################################################

data_QONLEM
_chemical_formula_moiety         '(C40 H50 Cu3 N28 O3)n'
_symmetry_cell_setting           monoclinic
_symmetry_space_group_name_H-M   'P 21/n'
_symmetry_Int_Tables_number      14
_space_group_name_Hall           '-P 2yn'
loop_
_symmetry_equiv_pos_site_id
_symmetry_equiv_pos_as_xyz
1 x,y,z
2 1/2-x,1/2+y,1/2-z
3 -x,-y,-z
4 1/2+x,1/2-y,1/2+z
_cell_length_a                   12.8250(8)
_cell_length_b                   14.9030(12)
_cell_length_c                   15.9630(12)
_cell_angle_alpha                90
_cell_angle_beta                 92.847(7)
_cell_angle_gamma                90
_cell_volume                     3047.26
loop_
_atom_site_label
_atom_site_type_symbol
_atom_site_fract_x
_atom_site_fract_y
_atom_site_fract_z
Cu1 Cu 0.0000 0.0000 0.0000
Cu2 Cu -0.02878(6) 0.19670(6) 0.10749(5)
C1 C -0.4012(7) 0.3146(6) -0.2350(6)
H1 H -0.4276 0.3726 -0.2335
C2 C -0.3326(7) 0.2865(6) -0.1708(5)
H2 H -0.3151 0.3251 -0.1265
C3 C -0.2904(5) 0.2021(5) -0.1721(4)
C4 C -0.3200(7) 0.1474(5) -0.2392(5)
H3 H -0.2938 0.0895 -0.2428
C5 C -0.3888(7) 0.1803(5) -0.3001(5)
H4 H -0.4073 0.1433 -0.3454
C6 C -0.2170(5) 0.1702(5) -0.1058(4)
C7 C 0.3225(6) 0.2526(5) -0.2687(5)
H5 H 0.3455 0.3066 -0.2451
C8 C 0.2562(7) 0.2012(5) -0.2250(5)
H6 H 0.2347 0.2205 -0.1732
C9 C 0.2211(5) 0.1206(5) -0.2577(4)
C10 C 0.2540(6) 0.0968(5) -0.3360(5)
H7 H 0.2311 0.0437 -0.3614
C11 C 0.3212(6) 0.1532(6) -0.3758(5)
H8 H 0.3432 0.1365 -0.4282
C12 C 0.1555(5) 0.0604(5) -0.2100(4)
C13 C 0.0273(7) 0.3093(7) -0.0573(7)
H9 H 0.0510 0.2506 -0.0616
C14 C -0.0459(16) 0.4418(11) -0.1242(11)
H10 H -0.0630 0.4625 -0.1801
H11 H 0.0046 0.4815 -0.0975
H12 H -0.1078 0.4410 -0.0928
C15 C -0.0107(13) 0.3015(10) -0.2084(7)
H13 H -0.0325 0.3425 -0.2523
H14 H -0.0611 0.2542 -0.2051
H15 H 0.0559 0.2764 -0.2204
N1 N -0.4305(4) 0.2616(4) -0.2985(4)
N2 N -0.1894(5) 0.2184(4) -0.0371(4)
N3 N -0.1209(4) 0.1661(4) 0.0044(3)
N4 N -0.1073(4) 0.0915(4) -0.0384(3)
N5 N -0.1673(4) 0.0924(4) -0.1078(3)
N6 N 0.3559(4) 0.2299(4) -0.3429(4)
N7 N 0.1175(5) 0.0845(4) -0.1369(4)
N8 N 0.0697(4) 0.0121(4) -0.1115(3)
N9 N 0.0792(4) -0.0544(4) -0.1663(4)
N10 N 0.1344(5) -0.0248(4) -0.2295(4)
N11 N 0.0843(4) 0.1261(4) 0.0578(4)
N12 N 0.1701(6) 0.1378(6) 0.0709(7)
N13 N 0.2560(12) 0.1453(11) 0.0868(11)
N14 N -0.0018(8) 0.3500(6) -0.1274(5)
O1 O 0.0263(6) 0.3409(5) 0.0122(4)
Cu2B Cu 0.02878(6) -0.19670(6) -0.10749(5)
C1B C 0.4012(7) -0.3146(6) 0.2350(6)
H1B H 0.4276 -0.3726 0.2335
C2B C 0.3326(7) -0.2865(6) 0.1708(5)
H2B H 0.3151 -0.3251 0.1265
C3B C 0.2904(5) -0.2021(5) 0.1721(4)
C4B C 0.3200(7) -0.1474(5) 0.2392(5)
H3B H 0.2938 -0.0895 0.2428
C5B C 0.3888(7) -0.1803(5) 0.3001(5)
H4B H 0.4073 -0.1433 0.3454
C6B C 0.2170(5) -0.1702(5) 0.1058(4)
C7B C -0.3225(6) -0.2526(5) 0.2687(5)
H5B H -0.3455 -0.3066 0.2451
C8B C -0.2562(7) -0.2012(5) 0.2250(5)
H6B H -0.2347 -0.2205 0.1732
C9B C -0.2211(5) -0.1206(5) 0.2577(4)
C10B C -0.2540(6) -0.0968(5) 0.3360(5)
H7B H -0.2311 -0.0437 0.3614
C11B C -0.3212(6) -0.1532(6) 0.3758(5)
H8B H -0.3432 -0.1365 0.4282
C12B C -0.1555(5) -0.0604(5) 0.2100(4)
C13B C -0.0273(7) -0.3093(7) 0.0573(7)
H9B H -0.0510 -0.2506 0.0616
C14B C 0.0459(16) -0.4418(11) 0.1242(11)
H10B H 0.0630 -0.4625 0.1801
H11B H -0.0046 -0.4815 0.0975
H12B H 0.1078 -0.4410 0.0928
C15B C 0.0107(13) -0.3015(10) 0.2084(7)
H13B H 0.0325 -0.3425 0.2523
H14B H 0.0611 -0.2542 0.2051
H15B H -0.0559 -0.2764 0.2204
N1B N 0.4305(4) -0.2616(4) 0.2985(4)
N2B N 0.1894(5) -0.2184(4) 0.0371(4)
N3B N 0.1209(4) -0.1661(4) -0.0044(3)
N4B N 0.1073(4) -0.0915(4) 0.0384(3)
N5B N 0.1673(4) -0.0924(4) 0.1078(3)
N6B N -0.3559(4) -0.2299(4) 0.3429(4)
N7B N -0.1175(5) -0.0845(4) 0.1369(4)
N8B N -0.0697(4) -0.0121(4) 0.1115(3)
N9B N -0.0792(4) 0.0544(4) 0.1663(4)
N10B N -0.1344(5) 0.0248(4) 0.2295(4)
N11B N -0.0843(4) -0.1261(4) -0.0578(4)
N12B N -0.1701(6) -0.1378(6) -0.0709(7)
N13B N -0.2560(12) -0.1453(11) -0.0868(11)
N14B N 0.0018(8) -0.3500(6) 0.1274(5)
O1B O -0.0263(6) -0.3409(5) -0.0122(4)
Cu2A Cu -0.47122(6) -0.30330(6) 0.39251(5)
Cu2A_2 Cu 0.52878(6) -0.30330(6) 0.39251(5)
Cu2C Cu -0.52878(6) 0.30330(6) -0.39251(5)
Cu2C_2 Cu 0.47122(6) 0.30330(6) -0.39251(5)
N1A N -0.0695(4) -0.2384(4) -0.2015(4)
N1C N 0.0695(4) 0.2384(4) 0.2015(4)
N6A N 0.1441(4) -0.2701(4) -0.1571(4)
N6C N -0.1441(4) 0.2701(4) 0.1571(4)
C16 C 0.054(2) 0.373(2) -0.4764(19)
C17 C 0.1277(17) 0.4058(16) -0.3997(14)
C18 C 0.079(2) 0.482(2) -0.3519(18)
C19 C 0.060(2) 0.557(2) -0.394(2)
C20 C -0.014(2) 0.5413(19) -0.4712(17)
C16B C -0.054(2) 0.627(2) -0.5236(19)
C17B C -0.1277(17) 0.5942(16) -0.6003(14)
C18B C -0.079(2) 0.518(2) -0.6481(18)
C19B C -0.060(2) 0.443(2) -0.606(2)
C20B C 0.014(2) 0.4587(19) -0.5288(17)
O2 O -0.122(2) 0.1074(14) -0.447(2)
loop_
_geom_bond_atom_site_label_1
_geom_bond_atom_site_label_2
_geom_bond_site_symmetry_1
_geom_bond_site_symmetry_2
Cu1 N4 1_555 1_555
Cu2 N3 1_555 1_555
C1 H1 1_555 1_555
C2 C1 1_555 1_555
H2 C2 1_555 1_555
C3 C2 1_555 1_555
C4 C3 1_555 1_555
H3 C4 1_555 1_555
C5 C4 1_555 1_555
H4 C5 1_555 1_555
C6 C3 1_555 1_555
C7 H5 1_555 1_555
C8 C7 1_555 1_555
H6 C8 1_555 1_555
C9 C8 1_555 1_555
C10 C9 1_555 1_555
H7 C10 1_555 1_555
C11 C10 1_555 1_555
H8 C11 1_555 1_555
C12 C9 1_555 1_555
C13 H9 1_555 1_555
C14 H10 1_555 1_555
H11 C14 1_555 1_555
H12 C14 1_555 1_555
C15 H13 1_555 1_555
H14 C15 1_555 1_555
H15 C15 1_555 1_555
N1 C1 1_555 1_555
N2 C6 1_555 1_555
N3 N2 1_555 1_555
N4 N3 1_555 1_555
N5 C6 1_555 1_555
N6 C7 1_555 1_555
N7 C12 1_555 1_555
N8 Cu1 1_555 1_555
N9 N8 1_555 1_555
N10 C12 1_555 1_555
N11 Cu1 1_555 1_555
N12 N11 1_555 1_555
N13 N12 1_555 1_555
N14 C13 1_555 1_555
O1 Cu2 1_555 1_555
C16 C17 1_555 1_555
C17 C18 1_555 1_555
C18 C19 1_555 1_555
C19 C20 1_555 1_555
C20 C16B 1_555 1_555
Cu2B N9 1_555 1_555
C1B H1B 1_555 1_555
C2B C1B 1_555 1_555
H2B C2B 1_555 1_555
C3B C2B 1_555 1_555
C4B C3B 1_555 1_555
H3B C4B 1_555 1_555
C5B C4B 1_555 1_555
H4B C5B 1_555 1_555
C6B C3B 1_555 1_555
C7B H5B 1_555 1_555
C8B C7B 1_555 1_555
H6B C8B 1_555 1_555
C9B C8B 1_555 1_555
C10B C9B 1_555 1_555
H7B C10B 1_555 1_555
C11B C10B 1_555 1_555
H8B C11B 1_555 1_555
C12B C9B 1_555 1_555
C13B H9B 1_555 1_555
C14B H10B 1_555 1_555
H11B C14B 1_555 1_555
H12B C14B 1_555 1_555
C15B H13B 1_555 1_555
H14B C15B 1_555 1_555
H15B C15B 1_555 1_555
N1B C1B 1_555 1_555
N2B C6B 1_555 1_555
N3B Cu2B 1_555 1_555
N4B Cu1 1_555 1_555
N5B C6B 1_555 1_555
N6B C7B 1_555 1_555
N7B C12B 1_555 1_555
N8B Cu1 1_555 1_555
N9B Cu2 1_555 1_555
N10B C12B 1_555 1_555
N11B Cu1 1_555 1_555
N12B N11B 1_555 1_555
N13B N12B 1_555 1_555
N14B C13B 1_555 1_555
O1B Cu2B 1_555 1_555
Cu2A N6B 1_555 1_555
Cu2A_2 N1B 1_555 1_555
Cu2C N1 1_555 1_555
Cu2C_2 N6 1_555 1_555
N1A Cu2B 1_555 1_555
N1C Cu2 1_555 1_555
N6A Cu2B 1_555 1_555
N6C Cu2 1_555 1_555
C16B C17B 1_555 1_555
C17B C18B 1_555 1_555
C18B C19B 1_555 1_555
C19B C20B 1_555 1_555
C20B C16 1_555 1_555
Cu2 N11 1_555 1_555
C5 N1 1_555 1_555
C11 N6 1_555 1_555
C13 O1 1_555 1_555
C14 N14 1_555 1_555
C15 N14 1_555 1_555
N4 N5 1_555 1_555
N7 N8 1_555 1_555
N9 N10 1_555 1_555
C20 C20B 1_555 1_555
Cu2B N11B 1_555 1_555
C5B N1B 1_555 1_555
C11B N6B 1_555 1_555
C13B O1B 1_555 1_555
C14B N14B 1_555 1_555
C15B N14B 1_555 1_555
N2B N3B 1_555 1_555
N3B N4B 1_555 1_555
N4B N5B 1_555 1_555
N7B N8B 1_555 1_555
N8B N9B 1_555 1_555
N9B N10B 1_555 1_555

#END
