
#######################################################################
#
#                 Cambridge Crystallographic Data Centre
#                                CCDC 
#
#######################################################################
#
# If this CIF has been generated from an entry in the Cambridge 
# Structural Database, then it will include bibliographic, chemical, 
# crystal, experimental, refinement or atomic coordinate data resulting 
# from the CCDC's data processing and validation procedures.
#
#######################################################################

data_DARCOQ
_chemical_formula_moiety         '(C43 H25 O16 P2 Y2 1-)n'
_symmetry_cell_setting           monoclinic
_symmetry_space_group_name_H-M   'P 2/c'
_symmetry_Int_Tables_number      13
_space_group_name_Hall           '-P 2yc'
loop_
_symmetry_equiv_pos_site_id
_symmetry_equiv_pos_as_xyz
1 x,y,z
2 -x,y,1/2-z
3 -x,-y,-z
4 x,-y,1/2+z
_cell_length_a                   14.539(4)
_cell_length_b                   10.546(3)
_cell_length_c                   23.378(6)
_cell_angle_alpha                90
_cell_angle_beta                 107.231(5)
_cell_angle_gamma                90
_cell_volume                     3423.63
loop_
_atom_site_label
_atom_site_type_symbol
_atom_site_fract_x
_atom_site_fract_y
_atom_site_fract_z
Y1 Y 0.34575(2) 0.43290(3) 0.272358(16)
C1 C -0.1426(3) 0.6020(4) 0.14587(17)
C2 C -0.1165(3) 0.4754(4) 0.1523(2)
H1 H -0.1642 0.4136 0.1429
C3 C -0.0188(3) 0.4382(4) 0.1731(2)
H2 H -0.0016 0.3531 0.1782
C4 C 0.0509(3) 0.5337(4) 0.18553(19)
C5 C 0.0250(3) 0.6580(4) 0.1783(2)
H3 H 0.0721 0.7206 0.1866
C6 C -0.0709(3) 0.6917(4) 0.1586(2)
H4 H -0.0874 0.7771 0.1538
C7 C 0.1561(3) 0.4935(4) 0.21195(18)
C8 C -0.2813(3) 0.8012(4) 0.14048(17)
C9 C -0.2983(4) 0.8294(4) 0.1943(2)
H5 H -0.3021 0.7641 0.2202
C10 C -0.3097(4) 0.9536(4) 0.2099(2)
H6 H -0.3201 0.9710 0.2465
C11 C -0.3057(3) 1.0517(4) 0.17205(19)
C12 C -0.2841(4) 1.0276(4) 0.1194(2)
H7 H -0.2765 1.0939 0.0949
C13 C -0.2738(4) 0.9016(4) 0.1034(2)
H8 H -0.2617 0.8846 0.0673
C14 C -0.3195(3) 1.1854(4) 0.18965(19)
C15 C -0.3093(3) 0.6278(4) 0.04167(17)
C16 C -0.2464(3) 0.6212(6) 0.0075(2)
H9 H -0.1804 0.6200 0.0262
C17 C -0.2813(3) 0.6165(7) -0.0541(2)
H10 H -0.2380 0.6129 -0.0764
C18 C -0.3785(3) 0.6170(4) -0.08328(17)
C19 C -0.4417(3) 0.6251(6) -0.0490(2)
H11 H -0.5077 0.6263 -0.0678
C20 C -0.4075(3) 0.6314(6) 0.0126(2)
H12 H -0.4507 0.6382 0.0349
C21 C -0.4154(3) 0.6132(4) -0.14936(17)
C22 C 0.5000 0.6582(6) 0.2500
H13 H 0.5000 0.7464 0.2500
O1 O 0.1776(2) 0.3822(3) 0.22738(15)
O2 O 0.2197(2) 0.5809(3) 0.21883(15)
O3 O -0.3434(2) 1.2060(3) 0.23663(13)
O4 O -0.3084(2) 1.2787(3) 0.15755(14)
O5 O -0.5036(2) 0.6197(4) -0.17342(13)
O6 O -0.3539(2) 0.6008(3) -0.17744(13)
O7 O -0.3259(2) 0.5519(3) 0.14991(12)
O8 O 0.4306(2) 0.6123(3) 0.26159(17)
P1 P -0.26829(7) 0.63919(9) 0.12221(4)
Y1A Y -0.34575(2) -0.56710(3) 0.227642(16)
Y1A_2 Y -0.34575(2) 1.43290(3) 0.227642(16)
Y1C Y -0.65425(2) 0.56710(3) -0.227642(16)
Y1B Y -0.34575(2) 0.56710(3) -0.272358(16)
Y1A_3 Y -0.34575(2) 0.43290(3) 0.227642(16)
Y1A_4 Y 0.65425(2) 0.43290(3) 0.227642(16)
Y1B_2 Y 0.65425(2) -0.43290(3) 0.727642(16)
Y1C_2 Y 0.34575(2) -0.43290(3) 0.772358(16)
Y1_2 Y 0.34575(2) -0.56710(3) 0.272358(16)
C1A C 0.1426(3) -0.3980(4) 0.35413(17)
C2A C 0.1165(3) -0.5246(4) 0.3477(2)
H1A H 0.1642 -0.5864 0.3571
C3A C 0.0188(3) -0.5618(4) 0.3269(2)
H2A H 0.0016 -0.6469 0.3218
C4A C -0.0509(3) -0.4663(4) 0.31447(19)
C5A C -0.0250(3) -0.3420(4) 0.3217(2)
H3A H -0.0721 -0.2794 0.3134
C6A C 0.0709(3) -0.3083(4) 0.3414(2)
H4A H 0.0874 -0.2229 0.3462
C7A C -0.1561(3) -0.5065(4) 0.28805(18)
C8A C 0.2813(3) -0.1988(4) 0.35952(17)
C9A C 0.2983(4) -0.1706(4) 0.3057(2)
H5A H 0.3021 -0.2359 0.2798
C10A C 0.3097(4) -0.0464(4) 0.2901(2)
H6A H 0.3201 -0.0290 0.2535
C11A C 0.3057(3) 0.0517(4) 0.32795(19)
C12A C 0.2841(4) 0.0276(4) 0.3806(2)
H7A H 0.2765 0.0939 0.4051
C13A C 0.2738(4) -0.0984(4) 0.3966(2)
H8A H 0.2617 -0.1154 0.4327
C14A C 0.3195(3) 0.1854(4) 0.31035(19)
C15A C 0.3093(3) -0.3722(4) 0.45833(17)
C16A C 0.2464(3) -0.3788(6) 0.4925(2)
H9A H 0.1804 -0.3800 0.4738
C17A C 0.2813(3) -0.3835(7) 0.5541(2)
H10A H 0.2380 -0.3871 0.5764
C18A C 0.3785(3) -0.3830(4) 0.58328(17)
C19A C 0.4417(3) -0.3749(6) 0.5490(2)
H11A H 0.5077 -0.3737 0.5678
C20A C 0.4075(3) -0.3686(6) 0.4874(2)
H12A H 0.4507 -0.3618 0.4651
C21A C 0.4154(3) -0.3868(4) 0.64936(17)
O1A O -0.1776(2) -0.6178(3) 0.27262(15)
O2A O -0.2197(2) -0.4191(3) 0.28117(15)
O3A O 0.3434(2) 0.2060(3) 0.26337(13)
O3_2 O -0.3434(2) -0.7940(3) 0.23663(13)
O4A O 0.3084(2) 0.2787(3) 0.34245(14)
O4_2 O -0.3084(2) -0.7213(3) 0.15755(14)
O5A O 0.5036(2) -0.3803(4) 0.67342(13)
O5C O 0.4964(2) 0.3803(4) 0.32658(13)
O5B O -0.4964(2) -0.6197(4) 0.17342(13)
O6A O 0.3539(2) -0.3992(3) 0.67744(13)
O6B O 0.3539(2) 0.3992(3) 0.17744(13)
O6C O -0.3539(2) -0.6008(3) 0.32256(13)
O7A O 0.3259(2) -0.4481(3) 0.35009(12)
O7A_2 O 0.3259(2) 0.5519(3) 0.35009(12)
O7_2 O -0.3259(2) -0.4481(3) 0.14991(12)
O8A O 0.5694(2) 0.6123(3) 0.23841(17)
O8A_2 O -0.4306(2) -0.3877(3) 0.23841(17)
P1A P 0.26829(7) -0.36081(9) 0.37779(4)
loop_
_geom_bond_atom_site_label_1
_geom_bond_atom_site_label_2
_geom_bond_site_symmetry_1
_geom_bond_site_symmetry_2
Y1 O1 1_555 1_555
C1 C2 1_555 1_555
C2 H1 1_555 1_555
C3 C2 1_555 1_555
H2 C3 1_555 1_555
C4 C3 1_555 1_555
C5 C4 1_555 1_555
H3 C5 1_555 1_555
C6 C1 1_555 1_555
H4 C6 1_555 1_555
C7 C4 1_555 1_555
C8 C9 1_555 1_555
C9 H5 1_555 1_555
C10 C9 1_555 1_555
H6 C10 1_555 1_555
C11 C10 1_555 1_555
C12 C11 1_555 1_555
H7 C12 1_555 1_555
C13 C8 1_555 1_555
H8 C13 1_555 1_555
C14 C11 1_555 1_555
C15 C16 1_555 1_555
C16 H9 1_555 1_555
C17 C16 1_555 1_555
H10 C17 1_555 1_555
C18 C17 1_555 1_555
C19 C18 1_555 1_555
H11 C19 1_555 1_555
C20 C15 1_555 1_555
H12 C20 1_555 1_555
C21 C18 1_555 1_555
C22 H13 1_555 1_555
O1 C7 1_555 1_555
O2 Y1 1_555 1_555
O3 C14 1_555 1_555
O4 C14 1_555 1_555
O5 C21 1_555 1_555
O6 C21 1_555 1_555
O7 P1 1_555 1_555
O8 Y1 1_555 1_555
P1 C1 1_555 1_555
Y1A O1A 1_555 1_555
Y1A_2 O3 1_555 1_555
Y1C O5 1_555 1_555
Y1B O6 1_555 1_555
Y1A_3 O7 1_555 1_555
Y1A_4 O8A 1_555 1_555
Y1B_2 O5A 1_555 1_555
Y1C_2 O6A 1_555 1_555
Y1_2 O7A 1_555 1_555
C1A C2A 1_555 1_555
C2A H1A 1_555 1_555
C3A C2A 1_555 1_555
H2A C3A 1_555 1_555
C4A C3A 1_555 1_555
C5A C4A 1_555 1_555
H3A C5A 1_555 1_555
C6A C1A 1_555 1_555
H4A C6A 1_555 1_555
C7A C4A 1_555 1_555
C8A C9A 1_555 1_555
C9A H5A 1_555 1_555
C10A C9A 1_555 1_555
H6A C10A 1_555 1_555
C11A C10A 1_555 1_555
C12A C11A 1_555 1_555
H7A C12A 1_555 1_555
C13A C8A 1_555 1_555
H8A C13A 1_555 1_555
C14A C11A 1_555 1_555
C15A C16A 1_555 1_555
C16A H9A 1_555 1_555
C17A C16A 1_555 1_555
H10A C17A 1_555 1_555
C18A C17A 1_555 1_555
C19A C18A 1_555 1_555
H11A C19A 1_555 1_555
C20A C15A 1_555 1_555
H12A C20A 1_555 1_555
C21A C18A 1_555 1_555
O1A C7A 1_555 1_555
O2A Y1A 1_555 1_555
O3A Y1 1_555 1_555
O3_2 Y1A 1_555 1_555
O4A Y1 1_555 1_555
O4_2 Y1A 1_555 1_555
O5A C21A 1_555 1_555
O5C Y1 1_555 1_555
O5B Y1A 1_555 1_555
O6A C21A 1_555 1_555
O6B Y1 1_555 1_555
O6C Y1A 1_555 1_555
O7A P1A 1_555 1_555
O7A_2 Y1 1_555 1_555
O7_2 Y1A 1_555 1_555
O8A C22 1_555 1_555
O8A_2 Y1A 1_555 1_555
P1A C1A 1_555 1_555
C5 C6 1_555 1_555
C7 O2 1_555 1_555
C8 P1 1_555 1_555
C12 C13 1_555 1_555
C15 P1 1_555 1_555
C19 C20 1_555 1_555
C22 O8 1_555 1_555
O4 Y1A_2 1_555 1_555
C5A C6A 1_555 1_555
C7A O2A 1_555 1_555
C8A P1A 1_555 1_555
C12A C13A 1_555 1_555
C14A O3A 1_555 1_555
C14A O4A 1_555 1_555
C15A P1A 1_555 1_555
C19A C20A 1_555 1_555

#END
