
#######################################################################
#
#                 Cambridge Crystallographic Data Centre
#                                CCDC 
#
#######################################################################
#
# If this CIF has been generated from an entry in the Cambridge 
# Structural Database, then it will include bibliographic, chemical, 
# crystal, experimental, refinement or atomic coordinate data resulting 
# from the CCDC's data processing and validation procedures.
#
#######################################################################

data_DARDUX
_chemical_formula_moiety         '(C43 H25 O16 P2 Tb2 1-)n'
_symmetry_cell_setting           monoclinic
_symmetry_space_group_name_H-M   'P 2/c'
_symmetry_Int_Tables_number      13
_space_group_name_Hall           '-P 2yc'
loop_
_symmetry_equiv_pos_site_id
_symmetry_equiv_pos_as_xyz
1 x,y,z
2 -x,y,1/2-z
3 -x,-y,-z
4 x,-y,1/2+z
_cell_length_a                   14.617(4)
_cell_length_b                   10.572(3)
_cell_length_c                   23.548(7)
_cell_angle_alpha                90
_cell_angle_beta                 107.787(4)
_cell_angle_gamma                90
_cell_volume                     3464.95
loop_
_atom_site_label
_atom_site_type_symbol
_atom_site_fract_x
_atom_site_fract_y
_atom_site_fract_z
Tb1 Tb 0.153943(11) 0.568541(16) 0.227971(7)
C1 C 0.2165(3) 0.1994(3) 0.14093(16)
C2 C 0.2000(4) 0.1727(4) 0.19461(19)
H1 H 0.1965 0.2384 0.2201
C3 C 0.1887(4) 0.0495(4) 0.2104(2)
H2 H 0.1780 0.0324 0.2466
C4 C 0.1933(3) -0.0491(4) 0.17254(19)
C5 C 0.2114(5) -0.0224(4) 0.1196(2)
H3 H 0.2165 -0.0885 0.0947
C6 C 0.2220(4) 0.0999(4) 0.1030(2)
H4 H 0.2328 0.1164 0.0668
C7 C 0.1792(3) -0.1835(4) 0.18988(18)
C8 C 0.3560(3) 0.4001(3) 0.14651(16)
C9 C 0.4277(3) 0.3099(4) 0.1597(2)
H5 H 0.4110 0.2248 0.1551
C10 C 0.5229(3) 0.3427(4) 0.1793(2)
H6 H 0.5698 0.2801 0.1878
C11 C 0.5493(3) 0.4687(4) 0.18643(17)
C12 C 0.4776(3) 0.5605(4) 0.1732(3)
H7 H 0.4946 0.6455 0.1780
C13 C 0.3826(3) 0.5275(4) 0.1533(2)
H8 H 0.3357 0.5901 0.1442
C14 C 0.6532(3) 0.5055(4) 0.21188(18)
C15 C 0.1903(3) 0.3716(4) 0.04207(15)
C16 C 0.2540(3) 0.3751(6) 0.00923(19)
H9 H 0.3199 0.3736 0.0283
C17 C 0.2189(3) 0.3810(6) -0.05225(19)
H10 H 0.2622 0.3846 -0.0741
C18 C 0.1229(3) 0.3818(4) -0.08193(15)
C19 C 0.0588(3) 0.3772(6) -0.04943(19)
H11 H -0.0070 0.3774 -0.0688
C20 C 0.0930(3) 0.3724(6) 0.01211(18)
H12 H 0.0495 0.3697 0.0338
C21 C 0.0875(3) 0.3856(4) -0.14894(15)
C22 C -0.0000 0.3426(7) 0.2500
H13 H -0.0000 0.2546 0.2500
O1 O 0.1723(2) 0.4490(2) 0.14847(12)
O2 O 0.1563(2) -0.2021(3) 0.23703(13)
O3 O 0.1897(2) -0.2738(3) 0.15782(14)
O4 O 0.7172(2) 0.4218(3) 0.22001(15)
O5 O 0.6757(2) 0.6181(3) 0.22689(14)
O6 O 0.1492(2) 0.3957(3) -0.17573(12)
O7 O -0.0014(2) 0.3773(3) -0.17385(13)
O8 O 0.0703(2) 0.3884(3) 0.24082(16)
P1 P 0.22991(6) 0.36158(9) 0.12210(4)
Tb1_2 Tb 0.153943(11) 1.568541(16) 0.227971(7)
Tb1_3 Tb 0.153943(11) -0.431459(16) 0.227971(7)
Tb1A Tb 0.846057(11) 0.568541(16) 0.272029(7)
Tb1C Tb 0.153943(11) 0.431459(16) -0.272029(7)
Tb1B Tb -0.153943(11) 0.431459(16) -0.227971(7)
Tb1A_2 Tb -0.153943(11) 0.568541(16) 0.272029(7)
Tb1A_3 Tb 0.846057(11) 1.568541(16) 0.272029(7)
Tb1C_2 Tb 0.153943(11) 1.431459(16) -0.272029(7)
Tb1B_2 Tb -0.153943(11) 1.431459(16) -0.227971(7)
C1_2 C 0.2165(3) 1.1994(3) 0.14093(16)
C2_2 C 0.2000(4) 1.1727(4) 0.19461(19)
H1_2 H 0.1965 1.2384 0.2201
C3_2 C 0.1887(4) 1.0495(4) 0.2104(2)
H2_2 H 0.1780 1.0324 0.2466
C4_2 C 0.1933(3) 0.9509(4) 0.17254(19)
C5_2 C 0.2114(5) 0.9776(4) 0.1196(2)
H3_2 H 0.2165 0.9115 0.0947
C6_2 C 0.2220(4) 1.0999(4) 0.1030(2)
H4_2 H 0.2328 1.1164 0.0668
C7_2 C 0.1792(3) 0.8165(4) 0.18988(18)
C8_2 C 0.3560(3) 1.4001(3) 0.14651(16)
C9_2 C 0.4277(3) 1.3099(4) 0.1597(2)
H5_2 H 0.4110 1.2248 0.1551
C10_2 C 0.5229(3) 1.3427(4) 0.1793(2)
H6_2 H 0.5698 1.2801 0.1878
C11_2 C 0.5493(3) 1.4687(4) 0.18643(17)
C12_2 C 0.4776(3) 1.5605(4) 0.1732(3)
H7_2 H 0.4946 1.6455 0.1780
C13_2 C 0.3826(3) 1.5275(4) 0.1533(2)
H8_2 H 0.3357 1.5901 0.1442
C14_2 C 0.6532(3) 1.5055(4) 0.21188(18)
C15_2 C 0.1903(3) 1.3716(4) 0.04207(15)
C16_2 C 0.2540(3) 1.3751(6) 0.00923(19)
H9_2 H 0.3199 1.3736 0.0283
C17_2 C 0.2189(3) 1.3810(6) -0.05225(19)
H10_2 H 0.2622 1.3846 -0.0741
C18_2 C 0.1229(3) 1.3818(4) -0.08193(15)
C19_2 C 0.0588(3) 1.3772(6) -0.04943(19)
H11_2 H -0.0070 1.3774 -0.0688
C20_2 C 0.0930(3) 1.3724(6) 0.01211(18)
H12_2 H 0.0495 1.3697 0.0338
C21_2 C 0.0875(3) 1.3856(4) -0.14894(15)
O1_2 O 0.1723(2) 1.4490(2) 0.14847(12)
O2_2 O 0.1563(2) 0.7979(3) 0.23703(13)
O2_3 O 0.1563(2) 1.7979(3) 0.23703(13)
O3_2 O 0.1897(2) 0.7262(3) 0.15782(14)
O3_3 O 0.1897(2) 1.7262(3) 0.15782(14)
O4_2 O 0.7172(2) 1.4218(3) 0.22001(15)
O4A O 0.2828(2) 0.4218(3) 0.27999(15)
O4A_2 O 0.2828(2) 1.4218(3) 0.27999(15)
O5_2 O 0.6757(2) 1.6181(3) 0.22689(14)
O5A O 0.3243(2) 0.6181(3) 0.27311(14)
O5A_2 O 0.3243(2) 1.6181(3) 0.27311(14)
O6_2 O 0.1492(2) 1.3957(3) -0.17573(12)
O6C O 0.1492(2) 0.6043(3) 0.32427(12)
O6C_2 O 0.1492(2) 1.6043(3) 0.32427(12)
O7_2 O -0.0014(2) 1.3773(3) -0.17385(13)
O7B O 0.0014(2) 0.6227(3) 0.17385(13)
O7B_2 O 0.0014(2) 1.6227(3) 0.17385(13)
O8A O -0.0703(2) 0.3884(3) 0.25918(16)
O8_2 O 0.0703(2) 1.3884(3) 0.24082(16)
P1_2 P 0.22991(6) 1.36158(9) 0.12210(4)
loop_
_geom_bond_atom_site_label_1
_geom_bond_atom_site_label_2
_geom_bond_site_symmetry_1
_geom_bond_site_symmetry_2
Tb1 O1 1_555 1_555
C1 C2 1_555 1_555
C2 H1 1_555 1_555
C3 C2 1_555 1_555
H2 C3 1_555 1_555
C4 C3 1_555 1_555
C5 C4 1_555 1_555
H3 C5 1_555 1_555
C6 C1 1_555 1_555
H4 C6 1_555 1_555
C7 C4 1_555 1_555
C8 C9 1_555 1_555
C9 H5 1_555 1_555
C10 C9 1_555 1_555
H6 C10 1_555 1_555
C11 C10 1_555 1_555
C12 C11 1_555 1_555
H7 C12 1_555 1_555
C13 C8 1_555 1_555
H8 C13 1_555 1_555
C14 C11 1_555 1_555
C15 C16 1_555 1_555
C16 H9 1_555 1_555
C17 C16 1_555 1_555
H10 C17 1_555 1_555
C18 C17 1_555 1_555
C19 C18 1_555 1_555
H11 C19 1_555 1_555
C20 C15 1_555 1_555
H12 C20 1_555 1_555
C21 C18 1_555 1_555
C22 H13 1_555 1_555
O1 P1 1_555 1_555
O2 C7 1_555 1_555
O3 C7 1_555 1_555
O4 C14 1_555 1_555
O5 C14 1_555 1_555
O6 C21 1_555 1_555
O7 C21 1_555 1_555
O8 Tb1 1_555 1_555
P1 C1 1_555 1_555
Tb1_2 O1_2 1_555 1_555
Tb1_3 O2 1_555 1_555
Tb1A O4 1_555 1_555
Tb1C O6 1_555 1_555
Tb1B O7 1_555 1_555
Tb1A_2 O8A 1_555 1_555
Tb1A_3 O4_2 1_555 1_555
Tb1C_2 O6_2 1_555 1_555
Tb1B_2 O7_2 1_555 1_555
C1_2 C2_2 1_555 1_555
C2_2 H1_2 1_555 1_555
C3_2 C2_2 1_555 1_555
H2_2 C3_2 1_555 1_555
C4_2 C3_2 1_555 1_555
C5_2 C4_2 1_555 1_555
H3_2 C5_2 1_555 1_555
C6_2 C1_2 1_555 1_555
H4_2 C6_2 1_555 1_555
C7_2 C4_2 1_555 1_555
C8_2 C9_2 1_555 1_555
C9_2 H5_2 1_555 1_555
C10_2 C9_2 1_555 1_555
H6_2 C10_2 1_555 1_555
C11_2 C10_2 1_555 1_555
C12_2 C11_2 1_555 1_555
H7_2 C12_2 1_555 1_555
C13_2 C8_2 1_555 1_555
H8_2 C13_2 1_555 1_555
C14_2 C11_2 1_555 1_555
C15_2 C16_2 1_555 1_555
C16_2 H9_2 1_555 1_555
C17_2 C16_2 1_555 1_555
H10_2 C17_2 1_555 1_555
C18_2 C17_2 1_555 1_555
C19_2 C18_2 1_555 1_555
H11_2 C19_2 1_555 1_555
C20_2 C15_2 1_555 1_555
H12_2 C20_2 1_555 1_555
C21_2 C18_2 1_555 1_555
O1_2 P1_2 1_555 1_555
O2_2 Tb1 1_555 1_555
O2_3 Tb1_2 1_555 1_555
O3_2 Tb1 1_555 1_555
O3_3 Tb1_2 1_555 1_555
O4_2 C14_2 1_555 1_555
O4A Tb1 1_555 1_555
O4A_2 Tb1_2 1_555 1_555
O5_2 Tb1A_3 1_555 1_555
O5A Tb1 1_555 1_555
O5A_2 Tb1_2 1_555 1_555
O6_2 C21_2 1_555 1_555
O6C Tb1 1_555 1_555
O6C_2 Tb1_2 1_555 1_555
O7_2 C21_2 1_555 1_555
O7B Tb1 1_555 1_555
O7B_2 Tb1_2 1_555 1_555
O8A C22 1_555 1_555
O8_2 Tb1_2 1_555 1_555
P1_2 C1_2 1_555 1_555
C5 C6 1_555 1_555
C8 P1 1_555 1_555
C12 C13 1_555 1_555
C15 P1 1_555 1_555
C19 C20 1_555 1_555
C22 O8 1_555 1_555
O3 Tb1_3 1_555 1_555
O5 Tb1A 1_555 1_555
C5_2 C6_2 1_555 1_555
C7_2 O2_2 1_555 1_555
C7_2 O3_2 1_555 1_555
C8_2 P1_2 1_555 1_555
C12_2 C13_2 1_555 1_555
C14_2 O5_2 1_555 1_555
C15_2 P1_2 1_555 1_555
C19_2 C20_2 1_555 1_555

#END
