
#######################################################################
#
#                 Cambridge Crystallographic Data Centre
#                                CCDC 
#
#######################################################################
#
# If this CIF has been generated from an entry in the Cambridge 
# Structural Database, then it will include bibliographic, chemical, 
# crystal, experimental, refinement or atomic coordinate data resulting 
# from the CCDC's data processing and validation procedures.
#
#######################################################################

data_DARFIN
_chemical_formula_moiety         '(C43 H25 Er2 O16 P2 1-)n'
_symmetry_cell_setting           monoclinic
_symmetry_space_group_name_H-M   'P 2/c'
_symmetry_Int_Tables_number      13
_space_group_name_Hall           '-P 2yc'
loop_
_symmetry_equiv_pos_site_id
_symmetry_equiv_pos_as_xyz
1 x,y,z
2 -x,y,1/2-z
3 -x,-y,-z
4 x,-y,1/2+z
_cell_length_a                   14.4248(11)
_cell_length_b                   10.4553(5)
_cell_length_c                   23.4323(18)
_cell_angle_alpha                90
_cell_angle_beta                 107.501(4)
_cell_angle_gamma                90
_cell_volume                     3370.38
loop_
_atom_site_label
_atom_site_type_symbol
_atom_site_fract_x
_atom_site_fract_y
_atom_site_fract_z
Er1 Er 0.15145(2) 0.07550(3) 0.226347(13)
C1 C 0.1901(5) 0.1203(7) 0.5418(3)
C2 C 0.2561(6) 0.1063(10) 0.5093(4)
H1 H 0.3221 0.0975 0.5292
C3 C 0.2232(6) 0.1057(9) 0.4478(3)
H2 H 0.2678 0.0983 0.4264
C4 C 0.1261(5) 0.1157(7) 0.4174(3)
C5 C 0.0595(6) 0.1249(9) 0.4492(4)
H3 H -0.0066 0.1291 0.4291
C6 C 0.0912(5) 0.1279(9) 0.5101(3)
H4 H 0.0461 0.1352 0.5312
C7 C 0.0913(6) 0.1174(8) 0.3501(3)
C8 C 0.2157(5) 0.2905(7) 0.6409(3)
C9 C 0.2189(8) 0.3914(9) 0.6002(4)
H5 H 0.2309 0.3737 0.5642
C10 C 0.2035(8) 0.5177(9) 0.6159(4)
H6 H 0.2022 0.5839 0.5892
C11 C 0.1901(6) 0.5441(7) 0.6707(3)
C12 C 0.1857(6) 0.4436(8) 0.7094(3)
H7 H 0.1736 0.4610 0.7455
C13 C 0.1992(6) 0.3190(8) 0.6942(3)
H8 H 0.1970 0.2532 0.7205
C14 C 0.1737(6) 0.6786(7) 0.6881(3)
C15 C 0.3563(6) 0.0899(8) 0.6467(3)
C16 C 0.3830(5) -0.0433(7) 0.6527(3)
H9 H 0.3358 -0.1069 0.6438
C17 C 0.4822(6) -0.0743(7) 0.6722(4)
H10 H 0.5009 -0.1598 0.6745
C18 C 0.5500(5) 0.0163(7) 0.6874(3)
C19 C 0.5237(5) 0.1491(8) 0.6807(3)
H11 H 0.5716 0.2119 0.6895
C20 C 0.4286(5) 0.1822(8) 0.6616(3)
H12 H 0.4115 0.2682 0.6585
C21 C 0.6544(5) -0.0176(8) 0.7134(3)
C22 C 0.0000 -0.1531(11) 0.2500
H13 H 0.0000 -0.2421 0.2500
O1 O 0.1548(4) 0.1102(6) 0.3236(2)
O2 O 0.0011(4) 0.1279(6) 0.3247(2)
O3 O 0.1828(4) 0.7703(5) 0.6553(2)
O4 O 0.1503(3) 0.6975(5) 0.7355(2)
O5 O 0.6782(3) -0.1313(6) 0.7313(2)
O6 O 0.7195(4) 0.0697(5) 0.7218(3)
O7 O 0.1715(4) 0.0424(5) 0.6482(2)
O8 O 0.0708(4) -0.1054(5) 0.2411(3)
P1 P 0.22846(12) 0.12770(18) 0.62165(7)
Er1A Er -0.15145(2) 0.07550(3) 0.273653(13)
Er1C Er 0.15145(2) 0.92450(3) 0.726347(13)
Er1B Er 0.84855(2) -0.07550(3) 0.773653(13)
Er1C_2 Er 0.15145(2) -0.07550(3) 0.726347(13)
Er1B_2 Er -0.15145(2) 0.92450(3) -0.226347(13)
Er1C_3 Er -0.84855(2) -0.07550(3) -0.273653(13)
Er1B_3 Er -0.15145(2) -0.07550(3) -0.226347(13)
C1A C -0.1901(5) 0.1203(7) -0.0418(3)
C2A C -0.2561(6) 0.1063(10) -0.0093(4)
H1A H -0.3221 0.0975 -0.0292
C3A C -0.2232(6) 0.1057(9) 0.0522(3)
H2A H -0.2678 0.0983 0.0736
C4A C -0.1261(5) 0.1157(7) 0.0826(3)
C5A C -0.0595(6) 0.1249(9) 0.0508(4)
H3A H 0.0066 0.1291 0.0709
C6A C -0.0912(5) 0.1279(9) -0.0101(3)
H4A H -0.0461 0.1352 -0.0312
C7A C -0.0913(6) 0.1174(8) 0.1499(3)
C8A C -0.2157(5) 0.2905(7) -0.1409(3)
C9A C -0.2189(8) 0.3914(9) -0.1002(4)
H5A H -0.2309 0.3737 -0.0642
C10A C -0.2035(8) 0.5177(9) -0.1159(4)
H6A H -0.2022 0.5839 -0.0892
C11A C -0.1901(6) 0.5441(7) -0.1707(3)
C12A C -0.1857(6) 0.4436(8) -0.2094(3)
H7A H -0.1736 0.4610 -0.2455
C13A C -0.1992(6) 0.3190(8) -0.1942(3)
H8A H -0.1970 0.2532 -0.2205
C14A C -0.1737(6) 0.6786(7) -0.1881(3)
C15A C -0.3563(6) 0.0899(8) -0.1467(3)
C16A C -0.3830(5) -0.0433(7) -0.1527(3)
H9A H -0.3358 -0.1069 -0.1438
C17A C -0.4822(6) -0.0743(7) -0.1722(4)
H10A H -0.5009 -0.1598 -0.1745
C18A C -0.5500(5) 0.0163(7) -0.1874(3)
C19A C -0.5237(5) 0.1491(8) -0.1807(3)
H11A H -0.5716 0.2119 -0.1895
C20A C -0.4286(5) 0.1822(8) -0.1616(3)
H12A H -0.4115 0.2682 -0.1585
C21A C -0.6544(5) -0.0176(8) -0.2134(3)
O1A O -0.1548(4) 0.1102(6) 0.1764(2)
O2A O -0.0011(4) 0.1279(6) 0.1753(2)
O3A O -0.1828(4) 0.7703(5) -0.1553(2)
O3C O 0.1828(4) 0.2297(5) 0.1553(2)
O3B O -0.1828(4) 0.2297(5) 0.3447(2)
O4A O -0.1503(3) 0.6975(5) -0.2355(2)
O4C O 0.1503(3) 0.3025(5) 0.2355(2)
O4B O -0.1503(3) 0.3025(5) 0.2645(2)
O5A O -0.6782(3) -0.1313(6) -0.2313(2)
O5B O 0.3218(3) 0.1313(6) 0.2687(2)
O5C O -0.3218(3) 0.1313(6) 0.2313(2)
O6A O -0.7195(4) 0.0697(5) -0.2218(3)
O6B O 0.2805(4) -0.0697(5) 0.2782(3)
O6C O -0.2805(4) -0.0697(5) 0.2218(3)
O7A O -0.1715(4) 0.0424(5) -0.1482(2)
O7C O 0.1715(4) -0.0424(5) 0.1482(2)
O7B O -0.1715(4) -0.0424(5) 0.3518(2)
O8A O -0.0708(4) -0.1054(5) 0.2589(3)
P1A P -0.22846(12) 0.12770(18) -0.12165(7)
loop_
_geom_bond_atom_site_label_1
_geom_bond_atom_site_label_2
_geom_bond_site_symmetry_1
_geom_bond_site_symmetry_2
Er1 O1 1_555 1_555
C1 C2 1_555 1_555
C2 H1 1_555 1_555
C3 C2 1_555 1_555
H2 C3 1_555 1_555
C4 C3 1_555 1_555
C5 C4 1_555 1_555
H3 C5 1_555 1_555
C6 C1 1_555 1_555
H4 C6 1_555 1_555
C7 C4 1_555 1_555
C8 C9 1_555 1_555
C9 H5 1_555 1_555
C10 C9 1_555 1_555
H6 C10 1_555 1_555
C11 C10 1_555 1_555
C12 C11 1_555 1_555
H7 C12 1_555 1_555
C13 C8 1_555 1_555
H8 C13 1_555 1_555
C14 C11 1_555 1_555
C15 C16 1_555 1_555
C16 H9 1_555 1_555
C17 C16 1_555 1_555
H10 C17 1_555 1_555
C18 C17 1_555 1_555
C19 C18 1_555 1_555
H11 C19 1_555 1_555
C20 C15 1_555 1_555
H12 C20 1_555 1_555
C21 C18 1_555 1_555
C22 H13 1_555 1_555
O1 C7 1_555 1_555
O2 C7 1_555 1_555
O3 C14 1_555 1_555
O4 C14 1_555 1_555
O5 C21 1_555 1_555
O6 C21 1_555 1_555
O7 P1 1_555 1_555
O8 Er1 1_555 1_555
P1 C1 1_555 1_555
Er1A O2 1_555 1_555
Er1C O3 1_555 1_555
Er1B O5 1_555 1_555
Er1C_2 O7 1_555 1_555
Er1B_2 O3A 1_555 1_555
Er1C_3 O5A 1_555 1_555
Er1B_3 O7A 1_555 1_555
C1A C2A 1_555 1_555
C2A H1A 1_555 1_555
C3A C2A 1_555 1_555
H2A C3A 1_555 1_555
C4A C3A 1_555 1_555
C5A C4A 1_555 1_555
H3A C5A 1_555 1_555
C6A C1A 1_555 1_555
H4A C6A 1_555 1_555
C7A C4A 1_555 1_555
C8A C9A 1_555 1_555
C9A H5A 1_555 1_555
C10A C9A 1_555 1_555
H6A C10A 1_555 1_555
C11A C10A 1_555 1_555
C12A C11A 1_555 1_555
H7A C12A 1_555 1_555
C13A C8A 1_555 1_555
H8A C13A 1_555 1_555
C14A C11A 1_555 1_555
C15A C16A 1_555 1_555
C16A H9A 1_555 1_555
C17A C16A 1_555 1_555
H10A C17A 1_555 1_555
C18A C17A 1_555 1_555
C19A C18A 1_555 1_555
H11A C19A 1_555 1_555
C20A C15A 1_555 1_555
H12A C20A 1_555 1_555
C21A C18A 1_555 1_555
O1A Er1A 1_555 1_555
O2A Er1 1_555 1_555
O3A C14A 1_555 1_555
O3C Er1 1_555 1_555
O3B Er1A 1_555 1_555
O4A Er1B_2 1_555 1_555
O4C Er1 1_555 1_555
O4B Er1A 1_555 1_555
O5A C21A 1_555 1_555
O5B Er1 1_555 1_555
O5C Er1A 1_555 1_555
O6A Er1C_3 1_555 1_555
O6B Er1 1_555 1_555
O6C Er1A 1_555 1_555
O7A P1A 1_555 1_555
O7C Er1 1_555 1_555
O7B Er1A 1_555 1_555
O8A C22 1_555 1_555
P1A C1A 1_555 1_555
C5 C6 1_555 1_555
C8 P1 1_555 1_555
C12 C13 1_555 1_555
C15 P1 1_555 1_555
C19 C20 1_555 1_555
C22 O8 1_555 1_555
O4 Er1C 1_555 1_555
O6 Er1B 1_555 1_555
Er1A O8A 1_555 1_555
C5A C6A 1_555 1_555
C7A O1A 1_555 1_555
C7A O2A 1_555 1_555
C8A P1A 1_555 1_555
C12A C13A 1_555 1_555
C14A O4A 1_555 1_555
C15A P1A 1_555 1_555
C19A C20A 1_555 1_555
C21A O6A 1_555 1_555

#END
