
#######################################################################
#
#                 Cambridge Crystallographic Data Centre
#                                CCDC 
#
#######################################################################
#
# If this CIF has been generated from an entry in the Cambridge 
# Structural Database, then it will include bibliographic, chemical, 
# crystal, experimental, refinement or atomic coordinate data resulting 
# from the CCDC's data processing and validation procedures.
#
#######################################################################

data_DUYVEA
_chemical_formula_moiety         '(C18 H26 Cd1 N4 O8)n'
_symmetry_cell_setting           orthorhombic
_symmetry_space_group_name_H-M   'P n a 21'
_symmetry_Int_Tables_number      33
_space_group_name_Hall           'P 2c -2n'
loop_
_symmetry_equiv_pos_site_id
_symmetry_equiv_pos_as_xyz
1 x,y,z
2 -x,-y,1/2+z
3 1/2-x,1/2+y,1/2+z
4 1/2+x,1/2-y,z
_cell_length_a                   7.087(5)
_cell_length_b                   17.669(5)
_cell_length_c                   17.793(5)
_cell_angle_alpha                90
_cell_angle_beta                 90
_cell_angle_gamma                90
_cell_volume                     2228.04
loop_
_atom_site_label
_atom_site_type_symbol
_atom_site_fract_x
_atom_site_fract_y
_atom_site_fract_z
_atom_site_U_iso_or_equiv
_atom_site_thermal_displace_type
Cd1 Cd -0.277542(18) -0.013058(8) -0.473230(13) 0.0276 Uani
C1 C -0.2070(5) -0.1854(2) -0.42149(19) 0.0449 Uani
H1 H -0.1919 -0.1609 -0.3756 0.0540 Uiso
C2 C -0.2384(3) -0.25752(16) -0.55625(17) 0.0302 Uani
N1 N -0.2374(2) -0.14373(12) -0.4820(2) 0.0327 Uani
N2 N -0.2058(3) -0.28289(14) -0.75736(13) 0.0416 Uani
N3 N -0.1999(3) -0.24857(14) -0.68535(13) 0.0414 Uani
C3 C -0.2469(3) -0.29211(15) -0.63175(16) 0.0320 Uani
C4 C -0.2128(3) -0.29954(17) -0.49094(16) 0.0413 Uani
H2 H -0.2069 -0.3521 -0.4933 0.0500 Uiso
C5 C -0.2057(3) -0.23573(15) -0.81153(15) 0.0348 Uani
C6 C -0.1963(5) -0.2632(2) -0.42287(19) 0.0469 Uani
H3 H -0.1783 -0.2906 -0.3788 0.0560 Uiso
C7 C -0.3094(4) -0.37234(16) -0.63845(18) 0.0473 Uani
H4 H -0.3078 -0.3872 -0.6904 0.0710 Uiso
H5 H -0.4351 -0.3773 -0.6190 0.0710 Uiso
H6 H -0.2255 -0.4043 -0.6103 0.0710 Uiso
C8 C -0.2513(4) -0.17917(18) -0.54765(17) 0.0286 Uani
H7 H -0.2707 -0.1500 -0.5905 0.0340 Uiso
C9 C -0.2090(4) -0.3462(2) -0.89749(18) 0.0356 Uani
H8 H -0.2074 -0.3765 -0.8548 0.0430 Uiso
C10 C -0.2076(3) -0.26819(16) -0.88852(17) 0.0335 Uani
C11 C -0.2053(5) -0.15140(17) -0.80318(19) 0.0542 Uani
H9 H -0.3172 -0.1309 -0.8257 0.0810 Uiso
H10 H -0.0961 -0.1308 -0.8277 0.0810 Uiso
H11 H -0.2022 -0.1385 -0.7508 0.0810 Uiso
N4 N -0.2127(3) -0.37991(12) -0.9652(2) 0.0375 Uani
O1 O -0.3382(3) -0.02377(12) -0.34454(12) 0.0399 Uani
O2 O -0.5932(3) -0.03332(11) -0.41292(10) 0.0450 Uani
C12 C -0.2085(4) -0.22429(18) -0.95269(17) 0.0446 Uani
H12 H -0.2059 -0.1718 -0.9491 0.0530 Uiso
C13 C -0.5148(4) -0.03190(14) -0.35081(13) 0.0315 Uani
C14 C -0.2157(5) -0.3378(3) -1.0262(2) 0.0475 Uani
H13 H -0.2194 -0.3609 -1.0731 0.0570 Uiso
C15 C -0.2133(5) -0.2585(2) -1.0212(2) 0.0531 Uani
H14 H -0.2151 -0.2293 -1.0648 0.0640 Uiso
C16 C -0.6360(4) -0.03888(15) -0.28056(13) 0.0385 Uani
H15 H -0.7540 -0.0123 -0.2887 0.0460 Uiso
H16 H -0.6653 -0.0919 -0.2722 0.0460 Uiso
C17 C -0.5437(5) -0.0079(2) -0.21229(16) 0.0535 Uani
H17 H -0.5000 0.0428 -0.2238 0.0640 Uiso
H18 H -0.4330 -0.0385 -0.2018 0.0640 Uiso
O3 O -0.8331(4) -0.00751(15) -0.14220(15) 0.0629 Uani
C18 C -0.6616(5) -0.00399(16) -0.14074(18) 0.0387 Uani
O4 O -0.5656(5) 0.00613(11) -0.08126(11) 0.0478 Uani
O5 O 0.0424(3) 0.00466(11) -0.45956(16) 0.0619 Uani
H19 H 0.0921 -0.0347 -0.4401 0.0930 Uiso
H20 H 0.0914 0.0125 -0.5026 0.0930 Uiso
Cd1A Cd -0.722458(18) 0.013058(8) 0.026770(13) 0.0276 Uani
Cd1B Cd -0.222458(18) -0.513058(8) -0.973230(13) 0.0276 Uani
N4B N -0.2873(3) 0.12009(12) -0.4652(2) 0.0375 Uani
O4A O -0.4344(5) -0.00613(11) -0.58126(11) 0.0478 Uani
O6 O -0.2319(3) -0.07674(15) -0.07025(13) 0.0626 Uani
O7 O -0.0489(4) -0.2393(2) -0.2271(2) 0.2880 Uani
H21 H -0.0632 -0.1921 -0.2343 0.4320 Uiso
H22 H 0.0340 -0.2464 -0.1933 0.4320 Uiso
O8 O -1.0951(3) -0.07806(17) -0.22867(16) 0.0926 Uani
H23 H -1.0259 -0.0599 -0.1941 0.1390 Uiso
H24 H -1.1912 -0.0992 -0.2093 0.1390 Uiso
loop_
_atom_site_aniso_label
_atom_site_aniso_U_11
_atom_site_aniso_U_22
_atom_site_aniso_U_33
_atom_site_aniso_U_23
_atom_site_aniso_U_13
_atom_site_aniso_U_12
Cd1 0.03422(8) 0.02932(8) 0.01931(8) -0.00271(12) 0.00210(16) -0.00013(5)
C1 0.055(2) 0.0474(19) 0.0324(17) -0.0047(15) -0.0017(13) 0.0059(15)
C2 0.0273(11) 0.0291(14) 0.0342(15) -0.0010(12) 0.0025(10) 0.0011(8)
N1 0.0394(9) 0.0311(9) 0.0277(15) -0.0019(11) 0.0023(9) 0.0026(6)
N2 0.0577(14) 0.0334(12) 0.0338(12) -0.0101(10) 0.0053(9) -0.0049(9)
N3 0.0557(13) 0.0340(12) 0.0345(11) -0.0102(10) 0.0027(10) -0.0067(9)
C3 0.0307(11) 0.0266(13) 0.0387(14) -0.0079(11) 0.0043(9) 0.0022(8)
C4 0.0469(14) 0.0311(13) 0.046(2) 0.0041(12) 0.0056(10) 0.0046(10)
C5 0.0355(12) 0.0301(13) 0.0388(14) -0.0066(11) 0.0026(9) -0.0003(9)
C6 0.064(2) 0.0390(18) 0.0377(18) 0.0108(14) -0.0011(14) 0.0076(15)
C7 0.0590(17) 0.0290(14) 0.0540(18) -0.0063(12) 0.0053(13) -0.0018(12)
C8 0.0335(12) 0.0220(13) 0.0303(15) -0.0003(11) 0.0028(10) 0.0018(9)
C9 0.0432(15) 0.0348(16) 0.0287(16) -0.0073(13) 0.0011(10) -0.0024(11)
C10 0.0348(12) 0.0294(13) 0.0362(15) -0.0076(12) 0.0029(11) 0.0002(9)
C11 0.087(2) 0.0281(15) 0.0474(18) -0.0087(13) -0.0033(14) 0.0061(13)
N4 0.0470(10) 0.0328(10) 0.0328(16) 0.0019(13) 0.0001(12) 0.0014(7)
O1 0.0415(10) 0.0530(12) 0.0253(10) -0.0039(9) 0.0048(9) -0.0075(9)
O2 0.0433(10) 0.0672(12) 0.0246(8) -0.0007(8) 0.0019(7) 0.0016(9)
C12 0.0596(16) 0.0292(14) 0.045(2) 0.0015(11) 0.0050(11) 0.0001(11)
C13 0.0415(13) 0.0292(11) 0.0238(11) -0.0014(9) 0.0073(10) -0.0002(10)
C14 0.073(2) 0.042(2) 0.0274(17) 0.0049(16) 0.0015(13) 0.0046(14)
C15 0.082(3) 0.040(2) 0.0372(19) 0.0076(17) 0.0009(16) 0.0000(15)
C16 0.0469(14) 0.0417(13) 0.0268(11) -0.0020(10) 0.0099(10) -0.0062(11)
C17 0.041(2) 0.094(3) 0.0254(16) -0.0027(13) 0.0037(13) 0.0024(16)
O3 0.0514(14) 0.0988(19) 0.0386(14) -0.0022(11) 0.0142(11) 0.0120(11)
C18 0.0524(17) 0.0386(14) 0.0252(14) 0.0057(11) 0.0070(12) 0.0108(12)
O4 0.0704(17) 0.0547(12) 0.0184(10) -0.0012(7) 0.0026(11) 0.0000(11)
O5 0.0351(9) 0.0826(15) 0.068(2) 0.0193(12) -0.0041(11) 0.0003(8)
Cd1A 0.03422 0.02932 0.01931 0.00271 -0.0021 -0.00013
Cd1B 0.03422 0.02932 0.01931 -0.00271 -0.0021 0.00013
N4B 0.047 0.0328 0.0328 0.0019 -0.0001 -0.0014
O4A 0.0704 0.0547 0.0184 0.0012 -0.0026 0
O6 0.0741(15) 0.0613(17) 0.0523(15) 0.0113(13) -0.0015(10) 0.0070(11)
O7 0.609(17) 0.141(5) 0.114(4) 0.002(3) -0.024(6) -0.081(8)
O8 0.0579(14) 0.112(2) 0.108(2) 0.0125(18) -0.0115(14) 0.0008(15)
loop_
_geom_bond_atom_site_label_1
_geom_bond_atom_site_label_2
_geom_bond_site_symmetry_1
_geom_bond_site_symmetry_2
Cd1 N1 1_555 1_555
C1 H1 1_555 1_555
C2 C3 1_555 1_555
N1 C1 1_555 1_555
N2 N3 1_555 1_555
N3 C3 1_555 1_555
C3 C7 1_555 1_555
C4 C2 1_555 1_555
H2 C4 1_555 1_555
C5 N2 1_555 1_555
C6 C1 1_555 1_555
H3 C6 1_555 1_555
C7 H4 1_555 1_555
H5 C7 1_555 1_555
H6 C7 1_555 1_555
C8 C2 1_555 1_555
H7 C8 1_555 1_555
C9 H8 1_555 1_555
C10 C5 1_555 1_555
C11 C5 1_555 1_555
H9 C11 1_555 1_555
H10 C11 1_555 1_555
H11 C11 1_555 1_555
N4 C9 1_555 1_555
O1 Cd1 1_555 1_555
O2 Cd1 1_555 1_555
C12 C10 1_555 1_555
H12 C12 1_555 1_555
C13 O1 1_555 1_555
C14 N4 1_555 1_555
H13 C14 1_555 1_555
C15 C12 1_555 1_555
H14 C15 1_555 1_555
C16 C13 1_555 1_555
H15 C16 1_555 1_555
H16 C16 1_555 1_555
C17 C16 1_555 1_555
H17 C17 1_555 1_555
H18 C17 1_555 1_555
O3 C18 1_555 1_555
C18 C17 1_555 1_555
O4 C18 1_555 1_555
O5 Cd1 1_555 1_555
H19 O5 1_555 1_555
H20 O5 1_555 1_555
O7 H21 1_555 1_555
H22 O7 1_555 1_555
O8 H23 1_555 1_555
H24 O8 1_555 1_555
Cd1A O4 1_555 1_555
Cd1B N4 1_555 1_555
N4B Cd1 1_555 1_555
O4A Cd1 1_555 1_555
N1 C8 1_555 1_555
C4 C6 1_555 1_555
C9 C10 1_555 1_555
O2 C13 1_555 1_555
C14 C15 1_555 1_555

#END
