
#######################################################################
#
#                 Cambridge Crystallographic Data Centre
#                                CCDC 
#
#######################################################################
#
# If this CIF has been generated from an entry in the Cambridge 
# Structural Database, then it will include bibliographic, chemical, 
# crystal, experimental, refinement or atomic coordinate data resulting 
# from the CCDC's data processing and validation procedures.
#
#######################################################################

data_MAPHAP
_chemical_formula_moiety         '(C39 H33 N1 O17 Yb2)n'
_symmetry_cell_setting           triclinic
_symmetry_space_group_name_H-M   'P -1'
_symmetry_Int_Tables_number      2
_space_group_name_Hall           '-P 1'
loop_
_symmetry_equiv_pos_site_id
_symmetry_equiv_pos_as_xyz
1 x,y,z
2 -x,-y,-z
_cell_length_a                   8.4515(2)
_cell_length_b                   12.3972(4)
_cell_length_c                   12.5680(3)
_cell_angle_alpha                110.453(2)
_cell_angle_beta                 102.132(2)
_cell_angle_gamma                109.619(3)
_cell_volume                     1079.2
loop_
_atom_site_label
_atom_site_type_symbol
_atom_site_fract_x
_atom_site_fract_y
_atom_site_fract_z
Yb1 Yb 0.70597(2) 0.54147(2) 0.40361(2)
O1 O 0.8610(4) 0.7339(3) 0.3927(3)
O2 O 1.0282(4) 0.6717(3) 0.4932(3)
C1 C 1.0143(6) 0.7489(4) 0.4500(4)
C2 C 1.1823(5) 0.8529(4) 0.4638(4)
C3 C 1.1694(6) 0.9521(4) 0.4356(4)
H1 H 1.0551 0.9511 0.4081
C4 C 1.3230(5) 1.0492(4) 0.4484(4)
H2 H 1.3149 1.1167 0.4318
C5 C 1.4934(6) 1.0494(4) 0.4863(4)
C6 C 1.6534(6) 1.1466(4) 0.4969(4)
H3 H 1.6464 1.2122 0.4764
O3 O 0.5503(4) 0.4915(3) 0.2010(2)
O4 O 0.4408(4) 0.5666(3) 0.3389(2)
C7 C 0.4301(5) 0.5213(4) 0.2275(3)
C8 C 0.2759(5) 0.5035(4) 0.1282(4)
C9 C 0.2617(6) 0.4449(5) 0.0057(4)
H4 H 0.3489 0.4167 -0.0122
C10 C 0.1234(6) 0.4283(5) -0.0876(4)
H5 H 0.1149 0.3886 -0.1697
C11 C -0.0074(5) 0.4705(4) -0.0617(3)
C12 C -0.1507(5) 0.4545(4) -0.1558(3)
H6 H -0.1614 0.4148 -0.2384
O5 O 0.7165(4) 0.6730(3) 0.5784(3)
O6 O 0.5160(4) 0.6585(3) 0.6678(3)
C13 C 0.6715(6) 0.7086(4) 0.6685(3)
C14 C 0.8179(6) 0.8210(4) 0.7851(4)
C15 C 0.9997(7) 0.8658(5) 0.7961(4)
H7 H 1.0300 0.8283 0.7283
C16 C 1.1319(6) 0.9622(5) 0.9032(4)
H8 H 1.2546 0.9892 0.9103
C17 C 1.0913(6) 1.0235(4) 1.0044(4)
C18 C 1.2265(6) 1.1270(4) 1.1167(4)
H9 H 1.3492 1.1608 1.1239
O7 O 0.8255(4) 0.4205(3) 0.2988(3)
H10 H 0.9388 0.4496 0.3428
H11 H 0.8172 0.4250 0.2305
O8 O 0.8045(4) 0.4763(3) 0.5504(2)
H12 H 0.7301 0.4673 0.5898
H13 H 0.8296 0.4163 0.5178
O1A O 2.1390(4) 1.2661(3) 0.6073(3)
O2A O 1.9718(4) 1.3283(3) 0.5068(3)
C1A C 1.9857(6) 1.2511(4) 0.5500(4)
C2A C 1.8177(5) 1.1471(4) 0.5362(4)
C3A C 1.8306(6) 1.0479(4) 0.5644(4)
H1A H 1.9449 1.0489 0.5919
C4A C 1.6770(5) 0.9508(4) 0.5516(4)
H2A H 1.6851 0.8833 0.5682
C5A C 1.5066(6) 0.9506(4) 0.5137(4)
C6A C 1.3466(6) 0.8534(4) 0.5031(4)
H3A H 1.3536 0.7878 0.5236
O3A O -0.5503(4) 0.5085(3) -0.2010(2)
O4A O -0.4408(4) 0.4334(3) -0.3389(2)
C7A C -0.4301(5) 0.4787(4) -0.2275(3)
C8A C -0.2759(5) 0.4965(4) -0.1282(4)
C9A C -0.2617(6) 0.5551(5) -0.0057(4)
H4A H -0.3489 0.5833 0.0122
C10A C -0.1234(6) 0.5717(5) 0.0876(4)
H5A H -0.1149 0.6114 0.1697
C11A C 0.0074(5) 0.5295(4) 0.0617(3)
C12A C 0.1507(5) 0.5455(4) 0.1558(3)
H6A H 0.1614 0.5852 0.2384
O5A O 1.2835(4) 1.3270(3) 1.4216(3)
O6A O 1.4840(4) 1.3415(3) 1.3322(3)
C13A C 1.3285(6) 1.2914(4) 1.3315(3)
C14A C 1.1821(6) 1.1790(4) 1.2149(4)
C15A C 1.0003(7) 1.1342(5) 1.2039(4)
H7A H 0.9700 1.1717 1.2717
C16A C 0.8681(6) 1.0378(5) 1.0968(4)
H8A H 0.7454 1.0108 1.0897
C17A C 0.9087(6) 0.9765(4) 0.9956(4)
C18A C 0.7735(6) 0.8730(4) 0.8833(4)
H9A H 0.6508 0.8392 0.8761
Yb1A Yb -0.70597(2) 0.45853(2) -0.40361(2)
O7A O -0.8255(4) 0.5795(3) -0.2988(3)
H10A H -0.9388 0.5504 -0.3428
H11A H -0.8172 0.5750 -0.2305
O8A O -0.8045(4) 0.5237(3) -0.5504(2)
H12A H -0.7301 0.5327 -0.5898
H13A H -0.8296 0.5837 -0.5178
Yb1_2 Yb 1.70597(2) 1.54147(2) 1.40361(2)
Yb1A_2 Yb 0.29403(2) 0.45853(2) 0.59639(2)
Yb1A_3 Yb 1.29403(2) 1.45853(2) 1.59639(2)
Yb1A_4 Yb 2.29403(2) 1.45853(2) 0.59639(2)
O1A_2 O -0.8610(4) 0.2661(3) -0.3927(3)
O2A_2 O -1.0282(4) 0.3283(3) -0.4932(3)
O5A_2 O -0.7165(4) 0.3270(3) -0.5784(3)
O6_2 O -0.4840(4) 0.6585(3) -0.3322(3)
O6A_2 O 0.4840(4) 0.3415(3) 0.3322(3)
O9 O 0.6806(7) 0.2435(4) 0.0747(3)
C19 C 0.5764(9) 0.2462(5) -0.0064(5)
H14 H 0.5193 0.2999 0.0175
N1 N 0.5358(8) 0.1804(5) -0.1254(4)
C20 C 0.4033(10) 0.1798(6) -0.2191(5)
H15 H 0.3533 0.2370 -0.1809
H16 H 0.3057 0.0922 -0.2700
H17 H 0.4606 0.2099 -0.2701
C21 C 0.6352(17) 0.1092(10) -0.1645(7)
H18 H 0.5548 0.0167 -0.2037
H19 H 0.7366 0.1310 -0.0934
H20 H 0.6816 0.1316 -0.2229
loop_
_geom_bond_atom_site_label_1
_geom_bond_atom_site_label_2
_geom_bond_site_symmetry_1
_geom_bond_site_symmetry_2
Yb1 O1 1_555 1_555
O1 C1 1_555 1_555
O2 Yb1 1_555 1_555
C1 O2 1_555 1_555
C2 C1 1_555 1_555
C3 C2 1_555 1_555
H1 C3 1_555 1_555
C4 C3 1_555 1_555
H2 C4 1_555 1_555
C5 C4 1_555 1_555
C6 C5 1_555 1_555
H3 C6 1_555 1_555
O3 Yb1 1_555 1_555
O4 Yb1 1_555 1_555
C7 O3 1_555 1_555
C8 C7 1_555 1_555
C9 C8 1_555 1_555
H4 C9 1_555 1_555
C10 C9 1_555 1_555
H5 C10 1_555 1_555
C11 C10 1_555 1_555
C12 C11 1_555 1_555
H6 C12 1_555 1_555
O5 Yb1 1_555 1_555
O6 C13 1_555 1_555
C13 O5 1_555 1_555
C14 C13 1_555 1_555
C15 C14 1_555 1_555
H7 C15 1_555 1_555
C16 C15 1_555 1_555
H8 C16 1_555 1_555
C17 C16 1_555 1_555
C18 C17 1_555 1_555
H9 C18 1_555 1_555
O7 Yb1 1_555 1_555
H10 O7 1_555 1_555
H11 O7 1_555 1_555
O8 Yb1 1_555 1_555
H12 O8 1_555 1_555
H13 O8 1_555 1_555
O9 C19 1_555 1_555
C19 H14 1_555 1_555
N1 C19 1_555 1_555
C20 N1 1_555 1_555
H15 C20 1_555 1_555
H16 C20 1_555 1_555
H17 C20 1_555 1_555
C21 N1 1_555 1_555
H18 C21 1_555 1_555
H19 C21 1_555 1_555
H20 C21 1_555 1_555
O1A C1A 1_555 1_555
O2A C1A 1_555 1_555
C1A C2A 1_555 1_555
C2A C6 1_555 1_555
C3A C2A 1_555 1_555
H1A C3A 1_555 1_555
C4A C3A 1_555 1_555
H2A C4A 1_555 1_555
C5A C5 1_555 1_555
C6A C2 1_555 1_555
H3A C6A 1_555 1_555
O3A C7A 1_555 1_555
O4A C7A 1_555 1_555
C7A C8A 1_555 1_555
C8A C12 1_555 1_555
C9A C8A 1_555 1_555
H4A C9A 1_555 1_555
C10A C9A 1_555 1_555
H5A C10A 1_555 1_555
C11A C11 1_555 1_555
C12A C8 1_555 1_555
H6A C12A 1_555 1_555
O5A C13A 1_555 1_555
O6A C13A 1_555 1_555
C13A C14A 1_555 1_555
C14A C18 1_555 1_555
C15A C14A 1_555 1_555
H7A C15A 1_555 1_555
C16A C15A 1_555 1_555
H8A C16A 1_555 1_555
C17A C17 1_555 1_555
C18A C14 1_555 1_555
H9A C18A 1_555 1_555
Yb1A O3A 1_555 1_555
O7A Yb1A 1_555 1_555
H10A O7A 1_555 1_555
H11A O7A 1_555 1_555
O8A Yb1A 1_555 1_555
H12A O8A 1_555 1_555
H13A O8A 1_555 1_555
Yb1_2 O6A 1_555 1_555
Yb1A_2 O6 1_555 1_555
Yb1A_3 O5A 1_555 1_555
Yb1A_4 O1A 1_555 1_555
O1A_2 Yb1A 1_555 1_555
O2A_2 Yb1A 1_555 1_555
O5A_2 Yb1A 1_555 1_555
O6_2 Yb1A 1_555 1_555
O6A_2 Yb1 1_555 1_555
O4 C7 1_555 1_555
O2A Yb1A_4 1_555 1_555
C4A C5A 1_555 1_555
C5A C6A 1_555 1_555
O4A Yb1A 1_555 1_555
C10A C11A 1_555 1_555
C11A C12A 1_555 1_555
C16A C17A 1_555 1_555
C17A C18A 1_555 1_555

#END
