
#######################################################################
#
#                 Cambridge Crystallographic Data Centre
#                                CCDC 
#
#######################################################################
#
# If this CIF has been generated from an entry in the Cambridge 
# Structural Database, then it will include bibliographic, chemical, 
# crystal, experimental, refinement or atomic coordinate data resulting 
# from the CCDC's data processing and validation procedures.
#
#######################################################################

data_ECODOQ
_chemical_formula_moiety         '(C4 H20 F4 Ga3 N3 O12 P4)n'
_symmetry_cell_setting           monoclinic
_symmetry_space_group_name_H-M   'C 2/c'
_symmetry_Int_Tables_number      15
_space_group_name_Hall           '-C 2yc'
loop_
_symmetry_equiv_pos_site_id
_symmetry_equiv_pos_as_xyz
1 x,y,z
2 1/2+x,1/2+y,z
3 -x,y,1/2-z
4 1/2-x,1/2+y,1/2-z
5 -x,-y,-z
6 1/2-x,1/2-y,-z
7 x,-y,1/2+z
8 1/2+x,1/2-y,1/2+z
_cell_length_a                   12.741(6)
_cell_length_b                   12.068(6)
_cell_length_c                   11.988(5)
_cell_angle_alpha                90
_cell_angle_beta                 94.902(8)
_cell_angle_gamma                90
_cell_volume                     1836.51
loop_
_atom_site_label
_atom_site_type_symbol
_atom_site_fract_x
_atom_site_fract_y
_atom_site_fract_z
_atom_site_U_iso_or_equiv
_atom_site_thermal_displace_type
Ga1 Ga 0.24672(4) -0.04033(4) 0.20602(4) 0.0138 Uani
Ga2 Ga 0.0000 0.08896(6) 0.2500 0.0140 Uani
P1 P 0.20215(10) 0.22384(11) 0.17758(10) 0.0167 Uani
P2 P 0.17271(10) 0.02016(10) 0.44609(11) 0.0164 Uani
F1 F 0.0925(2) -0.0272(2) 0.2026(2) 0.0191 Uani
F2 F 0.3934(2) -0.0462(2) 0.2056(3) 0.0291 Uani
O1 O 0.2640(3) 0.1174(3) 0.1687(3) 0.0253 Uani
O2 O 0.2244(3) 0.0806(3) 0.5476(3) 0.0194 Uani
O3 O 0.2543(3) -0.0057(3) 0.3647(3) 0.0271 Uani
O4 O 0.0795(3) 0.0868(3) 0.3949(3) 0.0232 Uani
O5 O 0.0876(3) 0.2044(3) 0.1930(3) 0.0246 Uani
O6 O 0.2581(2) 0.3012(3) 0.2636(3) 0.0234 Uani
H10 H 0.138(3) -0.077(3) 0.480(3) 0.0040 Uiso
H11 H 0.201(3) 0.276(3) 0.079(3) 0.0120 Uiso
Ga1B Ga -0.24672(4) -0.04033(4) 0.29398(4) 0.0138 Uani
Ga1F Ga 0.24672(4) 0.04033(4) 0.70602(4) 0.0138 Uani
Ga1C Ga 0.25328(4) 0.45967(4) 0.29398(4) 0.0138 Uani
Ga1D Ga -0.24672(4) 0.04033(4) -0.20602(4) 0.0138 Uani
Ga1A Ga -0.25328(4) 0.45967(4) 0.20602(4) 0.0138 Uani
P1B P -0.20215(10) 0.22384(11) 0.32242(10) 0.0167 Uani
P2B P -0.17271(10) 0.02016(10) 0.05391(11) 0.0164 Uani
F1B F -0.0925(2) -0.0272(2) 0.2974(2) 0.0191 Uani
F2B F -0.3934(2) -0.0462(2) 0.2944(3) 0.0291 Uani
O1B O -0.2640(3) 0.1174(3) 0.3313(3) 0.0253 Uani
O2B O -0.2244(3) 0.0806(3) -0.0476(3) 0.0194 Uani
O2F O 0.2244(3) -0.0806(3) 0.0476(3) 0.0194 Uani
O2D O -0.2244(3) -0.0806(3) 0.4524(3) 0.0194 Uani
O3B O -0.2543(3) -0.0057(3) 0.1353(3) 0.0271 Uani
O4B O -0.0795(3) 0.0868(3) 0.1051(3) 0.0232 Uani
O5B O -0.0876(3) 0.2044(3) 0.3070(3) 0.0246 Uani
O6B O -0.2581(2) 0.3012(3) 0.2364(3) 0.0234 Uani
O6C O 0.2419(2) -0.1988(3) 0.2364(3) 0.0234 Uani
O6A O -0.2419(2) -0.1988(3) 0.2636(3) 0.0234 Uani
H10B H -0.138(3) -0.077(3) 0.020(3) 0.0040 Uiso
H11B H -0.201(3) 0.276(3) 0.421(3) 0.0120 Uiso
N1 N 1.0000 0.3518(5) 0.7500 0.0287 Uani
H1 H 0.9434 0.3959 0.7364 0.0800 Uiso
H2 H 1.0566 0.3959 0.7636 0.0800 Uiso
N2 N 0.9270(4) 0.3105(4) 1.0410(4) 0.0339 Uani
H3 H 0.9235 0.3580 1.0974 0.0800 Uiso
H4 H 0.9640 0.2512 1.0649 0.0800 Uiso
H5 H 0.8622 0.2898 1.0158 0.0800 Uiso
C1 C 0.9861(4) 0.2870(4) 0.8525(4) 0.0286 Uani
H6 H 1.0453 0.2371 0.8677 0.0340 Uiso
H7 H 0.9224 0.2429 0.8417 0.0340 Uiso
C2 C 0.9789(5) 0.3643(5) 0.9499(5) 0.0328 Uani
H8 H 1.0491 0.3876 0.9778 0.0400 Uiso
H9 H 0.9394 0.4297 0.9251 0.0400 Uiso
N2B N 1.0730(4) 0.3105(4) 0.4590(4) 0.0339 Uani
H3B H 1.0765 0.3580 0.4026 0.0800 Uiso
H4B H 1.0360 0.2512 0.4351 0.0800 Uiso
H5B H 1.1378 0.2898 0.4842 0.0800 Uiso
C1B C 1.0139(4) 0.2870(4) 0.6475(4) 0.0286 Uani
H6B H 0.9547 0.2371 0.6323 0.0340 Uiso
H7B H 1.0776 0.2429 0.6583 0.0340 Uiso
C2B C 1.0211(5) 0.3643(5) 0.5501(5) 0.0328 Uani
H8B H 0.9509 0.3876 0.5222 0.0400 Uiso
H9B H 1.0606 0.4297 0.5749 0.0400 Uiso
loop_
_atom_site_aniso_label
_atom_site_aniso_U_11
_atom_site_aniso_U_22
_atom_site_aniso_U_33
_atom_site_aniso_U_23
_atom_site_aniso_U_13
_atom_site_aniso_U_12
Ga1 0.0113(3) 0.0164(3) 0.0138(3) -0.0010(2) 0.0012(2) 0.0009(2)
Ga2 0.0103(3) 0.0155(4) 0.0161(4) 0.000 0.0000(3) 0.000
P1 0.0168(6) 0.0160(7) 0.0175(7) 0.0009(5) 0.0023(5) -0.0027(5)
P2 0.0174 0.0155 0.0161 0.0001 -0.0004 -0.0005
F1 0.0130(13) 0.0191(16) 0.0249(16) -0.0044(12) 0.0007(11) 0.0010(12)
F2 0.0156(14) 0.0343(18) 0.0375(19) -0.0027(15) 0.0024(13) 0.0019(14)
O1 0.0217(18) 0.020(2) 0.035(2) -0.0052(16) 0.0070(16) -0.0040(15)
O2 0.023 0.0218 0.0133 -0.0026 0.0001 -0.0066
O3 0.0219 0.04 0.019 -0.0071 0.0002 0.0113
O4 0.0209 0.03 0.018 -0.003 -0.0028 0.0084
O5 0.0169(17) 0.0198(19) 0.037(2) 0.0053(17) 0.0021(15) -0.0031(15)
O6 0.0244 0.02 0.025 -0.0056 -0.0019 -0.0032
Ga1B 0.0113 0.0164 0.0138 0.001 0.0012 -0.0009
Ga1F 0.0113 0.0164 0.0138 0.001 0.0012 -0.0009
Ga1C 0.0113 0.0164 0.0138 0.001 0.0012 -0.0009
Ga1D 0.0113 0.0164 0.0138 -0.001 0.0012 0.0009
Ga1A 0.0113 0.0164 0.0138 -0.001 0.0012 0.0009
P1B 0.0168 0.016 0.0175 -0.0009 0.0023 0.0027
P2B 0.0174 0.0155 0.0161 -0.0001 -0.0004 0.0005
F1B 0.013 0.0191 0.0249 0.0044 0.0007 -0.001
F2B 0.0156 0.0343 0.0375 0.0027 0.0024 -0.0019
O1B 0.0217 0.02 0.035 0.0052 0.007 0.004
O2B 0.023 0.0218 0.0133 0.0026 0.0001 0.0066
O2F 0.0230(18) 0.0218(19) 0.0133(18) 0.0026(15) 0.0001(14) 0.0066(15)
O2D 0.023 0.0218 0.0133 -0.0026 0.0001 -0.0066
O3B 0.0219 0.04 0.019 0.0071 0.0002 -0.0113
O4B 0.0209 0.03 0.018 0.003 -0.0028 -0.0084
O5B 0.0169 0.0198 0.037 -0.0053 0.0021 0.0031
O6B 0.0244 0.02 0.025 0.0056 -0.0019 0.0032
O6C 0.0244 0.02 0.025 0.0056 -0.0019 0.0032
O6A 0.0244 0.02 0.025 -0.0056 -0.0019 -0.0032
N1 0.031(4) 0.028(4) 0.027(4) 0.000 0.002(3) 0.000
N2 0.036(3) 0.030(3) 0.037(3) 0.010(2) 0.011(2) 0.009(2)
C1 0.028(3) 0.024(3) 0.034(3) 0.004(3) 0.003(2) -0.003(2)
C2 0.035(3) 0.031(3) 0.033(4) 0.004(3) 0.007(3) 0.002(3)
N2B 0.036 0.03 0.037 -0.01 0.011 -0.009
C1B 0.028 0.024 0.034 -0.004 0.003 0.003
C2B 0.035 0.031 0.033 -0.004 0.007 -0.002
loop_
_geom_bond_atom_site_label_1
_geom_bond_atom_site_label_2
_geom_bond_site_symmetry_1
_geom_bond_site_symmetry_2
Ga1 F1 1_555 1_555
Ga2 F1 1_555 1_555
P1 O1 1_555 1_555
P2 O2 1_555 1_555
F2 Ga1 1_555 1_555
O1 Ga1 1_555 1_555
O2 Ga1F 1_555 1_555
O3 Ga1 1_555 1_555
O4 Ga2 1_555 1_555
O5 Ga2 1_555 1_555
O6 P1 1_555 1_555
N1 H1 1_555 1_555
H2 N1 1_555 1_555
N2 H3 1_555 1_555
H4 N2 1_555 1_555
H5 N2 1_555 1_555
C1 N1 1_555 1_555
H6 C1 1_555 1_555
H7 C1 1_555 1_555
C2 N2 1_555 1_555
H8 C2 1_555 1_555
H9 C2 1_555 1_555
H10 P2 1_555 1_555
H11 P1 1_555 1_555
Ga1B F1B 1_555 1_555
Ga1C O6 1_555 1_555
Ga1D O2B 1_555 1_555
Ga1A O6B 1_555 1_555
P1B O1B 1_555 1_555
P2B O2B 1_555 1_555
F1B Ga2 1_555 1_555
F2B Ga1B 1_555 1_555
O1B Ga1B 1_555 1_555
O2F Ga1 1_555 1_555
O2D Ga1B 1_555 1_555
O3B Ga1B 1_555 1_555
O4B Ga2 1_555 1_555
O5B Ga2 1_555 1_555
O6B P1B 1_555 1_555
O6C Ga1 1_555 1_555
O6A Ga1B 1_555 1_555
N2B H3B 1_555 1_555
H4B N2B 1_555 1_555
H5B N2B 1_555 1_555
C1B N1 1_555 1_555
H6B C1B 1_555 1_555
H7B C1B 1_555 1_555
C2B N2B 1_555 1_555
H8B C2B 1_555 1_555
H9B C2B 1_555 1_555
H10B P2B 1_555 1_555
H11B P1B 1_555 1_555
P1 O5 1_555 1_555
P2 O3 1_555 1_555
P2 O4 1_555 1_555
C1 C2 1_555 1_555
P1B O5B 1_555 1_555
P2B O3B 1_555 1_555
P2B O4B 1_555 1_555
C1B C2B 1_555 1_555

#END
