
#######################################################################
#
#                 Cambridge Crystallographic Data Centre
#                                CCDC 
#
#######################################################################
#
# If this CIF has been generated from an entry in the Cambridge 
# Structural Database, then it will include bibliographic, chemical, 
# crystal, experimental, refinement or atomic coordinate data resulting 
# from the CCDC's data processing and validation procedures.
#
#######################################################################

data_RUXKUS
_chemical_formula_moiety         '(C49 H66 Cd2 N6 O14)n'
_symmetry_cell_setting           orthorhombic
_symmetry_space_group_name_H-M   'C 2 2 21'
_symmetry_Int_Tables_number      20
_space_group_name_Hall           'C 2c 2'
loop_
_symmetry_equiv_pos_site_id
_symmetry_equiv_pos_as_xyz
1 x,y,z
2 -x,-y,1/2+z
3 x,-y,-z
4 -x,y,1/2-z
5 1/2+x,1/2+y,z
6 1/2-x,1/2-y,1/2+z
7 1/2+x,1/2-y,-z
8 1/2-x,1/2+y,1/2-z
_cell_length_a                   20.6271(8)
_cell_length_b                   13.6669(6)
_cell_length_c                   20.6839(9)
_cell_angle_alpha                90
_cell_angle_beta                 90
_cell_angle_gamma                90
_cell_volume                     5830.97
loop_
_atom_site_label
_atom_site_type_symbol
_atom_site_fract_x
_atom_site_fract_y
_atom_site_fract_z
Cd1 Cd -0.328110(19) -1.37256(3) -0.189561(19)
O1 O -0.3532(2) -1.4873(4) -0.0996(2)
O2 O -0.2578(2) -1.4995(3) -0.1450(2)
O3 O -0.4250(2) -1.3001(3) -0.1687(2)
O4 O -0.3810(2) -1.2068(4) -0.2427(2)
N1 N -0.3776(2) -1.4742(4) -0.2656(3)
N2 N -0.2825(2) -1.2677(4) -0.1091(3)
C1 C -0.2957(3) -1.5168(4) -0.0994(3)
C2 C -0.4249(2) -1.2229(5) -0.2038(3)
C3 C -0.4296(4) -1.4487(5) -0.2996(4)
C4 C -0.3580(4) -1.5668(5) -0.2709(3)
C5 C -0.2198(3) -1.2734(5) -0.0935(4)
C6 C -0.3178(3) -1.2020(5) -0.0762(4)
C7 C -0.2693(3) -1.5703(4) -0.0403(3)
C8 C -0.4794(3) -1.1522(4) -0.1926(3)
H1 H -0.4437 -1.3843 -0.2968
C9 C -0.4633(4) -1.5106(6) -0.3379(4)
C10 C -0.3888(3) -1.6351(5) -0.3089(3)
H2 H -0.3216 -1.5863 -0.2477
H3 H -0.1944 -1.3186 -0.1156
C11 C -0.1908(3) -1.2177(5) -0.0476(3)
C12 C -0.2915(3) -1.1398(6) -0.0298(4)
H4 H -0.3620 -1.1977 -0.0849
H5 H -0.2435 -1.6258 -0.0540
H6 H -0.3050 -1.5945 -0.0143
C13 C -0.2275(4) -1.5000 0.0000
H7 H -0.4669 -1.1083 -0.1579
H8 H -0.5168 -1.1889 -0.1778
C14 C -0.5000 -1.0908(6) -0.2500
H9 H -0.4998 -1.4889 -0.3600
C15 C -0.4426(3) -1.6070(5) -0.3440(3)
H10 H -0.3737 -1.6991 -0.3110
H11 H -0.1472 -1.2273 -0.0378
C16 C -0.2262(3) -1.1458(5) -0.0149(3)
H12 H -0.3178 -1.0944 -0.0088
H13 H -0.2009 -1.4686 -0.0306
H14 H -0.4645 -1.0494 -0.2622
C17 C -0.4795(4) -1.6792(6) -0.3852(4)
C18 C -0.1939(4) -1.0799(6) 0.0332(4)
H15 H -0.4516 -1.7340 -0.3962
H16 H -0.4930 -1.6480 -0.4251
C19 C -0.5385(3) -1.7156(6) -0.3485(4)
H17 H -0.1664 -1.1186 0.0613
H18 H -0.2268 -1.0489 0.0599
C20 C -0.1527(5) -1.0000 0.0000
H19 H -0.5663 -1.6602 -0.3390
H20 H -0.5243 -1.7430 -0.3076
C21 C -0.5783(3) -1.7928(6) -0.3846(4)
H21 H -0.1262 -0.9641 0.0289
C22 C -0.6380(3) -1.8193(5) -0.3455(3)
H22 H -0.5913 -1.7675 -0.4264
H23 H -0.5521 -1.8508 -0.3916
C23 C -0.6917(4) -1.7655(6) -0.3465(4)
C24 C -0.6378(4) -1.8943(7) -0.3032(5)
C25 C -0.7417(4) -1.7817(6) -0.3043(4)
H24 H -0.6953 -1.7154 -0.3766
H25 H -0.6031 -1.9377 -0.3017
C26 C -0.6894(4) -1.9055(7) -0.2625(5)
H26 H -0.7774 -1.7403 -0.3056
N3 N -0.7413(3) -1.8525(4) -0.2627(3)
H27 H -0.6871 -1.9555 -0.2320
O1B O -0.3532(2) -1.5127(4) 0.0996(2)
O2B O -0.2578(2) -1.5005(3) 0.1450(2)
C1B C -0.2957(3) -1.4832(4) 0.0994(3)
C7B C -0.2693(3) -1.4297(4) 0.0403(3)
H5B H -0.2435 -1.3742 0.0540
H6B H -0.3050 -1.4055 0.0143
H13B H -0.2009 -1.5314 0.0306
O3C O -0.5750(2) -1.3001(3) -0.3313(2)
O4C O -0.6190(2) -1.2068(4) -0.2573(2)
C2C C -0.5751(2) -1.2229(5) -0.2962(3)
C8C C -0.5206(3) -1.1522(4) -0.3074(3)
H7C H -0.5331 -1.1083 -0.3421
H8C H -0.4832 -1.1889 -0.3222
H14C H -0.5355 -1.0494 -0.2378
N2B N -0.2825(2) -0.7323(4) 0.1091(3)
C5B C -0.2198(3) -0.7266(5) 0.0935(4)
C6B C -0.3178(3) -0.7980(5) 0.0762(4)
H3B H -0.1944 -0.6814 0.1156
C11B C -0.1908(3) -0.7823(5) 0.0476(3)
C12B C -0.2915(3) -0.8602(6) 0.0298(4)
H4B H -0.3620 -0.8023 0.0849
H11B H -0.1472 -0.7727 0.0378
C16B C -0.2262(3) -0.8542(5) 0.0149(3)
H12B H -0.3178 -0.9056 0.0088
C18B C -0.1939(4) -0.9201(6) -0.0332(4)
H17B H -0.1664 -0.8814 -0.0613
H18B H -0.2268 -0.9511 -0.0599
H21B H -0.1262 -1.0359 -0.0289
Cd1B Cd -0.328110(19) -1.62744(3) 0.189561(19)
N1B N -0.3776(2) -1.5258(4) 0.2656(3)
C3B C -0.4296(4) -1.5513(5) 0.2996(4)
C4B C -0.3580(4) -1.4332(5) 0.2709(3)
H1B H -0.4437 -1.6157 0.2968
C9B C -0.4633(4) -1.4894(6) 0.3379(4)
C10B C -0.3888(3) -1.3649(5) 0.3089(3)
H2B H -0.3216 -1.4137 0.2477
H9B H -0.4998 -1.5111 0.3600
C15B C -0.4426(3) -1.3930(5) 0.3440(3)
H10B H -0.3737 -1.3009 0.3110
C17B C -0.4795(4) -1.3208(6) 0.3852(4)
H15B H -0.4516 -1.2660 0.3962
H16B H -0.4930 -1.3520 0.4251
C19B C -0.5385(3) -1.2844(6) 0.3485(4)
H19B H -0.5663 -1.3398 0.3390
H20B H -0.5243 -1.2570 0.3076
C21B C -0.5783(3) -1.2072(6) 0.3846(4)
C22B C -0.6380(3) -1.1807(5) 0.3455(3)
H22B H -0.5913 -1.2325 0.4264
H23B H -0.5521 -1.1492 0.3916
C23B C -0.6917(4) -1.2345(6) 0.3465(4)
C24B C -0.6378(4) -1.1057(7) 0.3032(5)
C25B C -0.7417(4) -1.2183(6) 0.3043(4)
H24B H -0.6953 -1.2846 0.3766
H25B H -0.6031 -1.0623 0.3017
C26B C -0.6894(4) -1.0945(7) 0.2625(5)
H26B H -0.7774 -1.2597 0.3056
N3B N -0.7413(3) -1.1475(4) 0.2627(3)
H27B H -0.6871 -1.0445 0.2320
Cd1B_2 Cd -0.328110(19) -0.62744(3) 0.189561(19)
Cd1C Cd -0.671890(19) -1.37256(3) -0.310439(19)
Cd1D Cd -0.828110(19) -1.87256(3) -0.189561(19)
Cd1F Cd -0.828110(19) -1.12744(3) 0.189561(19)
O3B O -0.4250(2) -1.6999(3) 0.1687(2)
O4B O -0.3810(2) -1.7932(4) 0.2427(2)
N2B_2 N -0.2825(2) -1.7323(4) 0.1091(3)
N3D N -0.2413(3) -1.3525(4) -0.2627(3)
N3F N -0.2413(3) -1.6475(4) 0.2627(3)
O5 O -0.4411(3) -1.5000 0.0000
O6 O -0.1373(3) -1.5969(4) -0.1429(3)
O7 O -0.4923(4) -1.3172(5) -0.0528(3)
O8 O -0.5593(4) -1.8518(6) 0.0254(4)
O9 O -0.5762(5) -2.0854(8) 0.1094(6)
O10 O -0.4429(8) -2.0000 0.0000
loop_
_geom_bond_atom_site_label_1
_geom_bond_atom_site_label_2
_geom_bond_site_symmetry_1
_geom_bond_site_symmetry_2
Cd1 O1 1_555 1_555
O1 C1 1_555 1_555
O2 Cd1 1_555 1_555
O3 Cd1 1_555 1_555
O4 Cd1 1_555 1_555
N1 Cd1 1_555 1_555
N2 Cd1 1_555 1_555
C1 O2 1_555 1_555
C2 O3 1_555 1_555
C3 N1 1_555 1_555
C4 N1 1_555 1_555
C5 N2 1_555 1_555
C6 N2 1_555 1_555
C7 C1 1_555 1_555
C8 C2 1_555 1_555
H1 C3 1_555 1_555
C9 C3 1_555 1_555
C10 C4 1_555 1_555
H2 C4 1_555 1_555
H3 C5 1_555 1_555
C11 C5 1_555 1_555
C12 C6 1_555 1_555
H4 C6 1_555 1_555
H5 C7 1_555 1_555
H6 C7 1_555 1_555
C13 C7 1_555 1_555
H7 C8 1_555 1_555
H8 C8 1_555 1_555
C14 C8 1_555 1_555
H9 C9 1_555 1_555
C15 C9 1_555 1_555
H10 C10 1_555 1_555
H11 C11 1_555 1_555
C16 C11 1_555 1_555
H12 C12 1_555 1_555
H13 C13 1_555 1_555
H14 C14 1_555 1_555
C17 C15 1_555 1_555
C18 C16 1_555 1_555
H15 C17 1_555 1_555
H16 C17 1_555 1_555
C19 C17 1_555 1_555
H17 C18 1_555 1_555
H18 C18 1_555 1_555
C20 C18 1_555 1_555
H19 C19 1_555 1_555
H20 C19 1_555 1_555
C21 C19 1_555 1_555
H21 C20 1_555 1_555
C22 C21 1_555 1_555
H22 C21 1_555 1_555
H23 C21 1_555 1_555
C23 C22 1_555 1_555
C24 C22 1_555 1_555
C25 C23 1_555 1_555
H24 C23 1_555 1_555
H25 C24 1_555 1_555
C26 C24 1_555 1_555
H26 C25 1_555 1_555
N3 C25 1_555 1_555
H27 C26 1_555 1_555
O1B C1B 1_555 1_555
O2B C1B 1_555 1_555
C1B C7B 1_555 1_555
C7B C13 1_555 1_555
H5B C7B 1_555 1_555
H6B C7B 1_555 1_555
H13B C13 1_555 1_555
O3C C2C 1_555 1_555
O4C C2C 1_555 1_555
C2C C8C 1_555 1_555
C8C C14 1_555 1_555
H7C C8C 1_555 1_555
H8C C8C 1_555 1_555
H14C C14 1_555 1_555
N2B C5B 1_555 1_555
C5B H3B 1_555 1_555
C6B N2B 1_555 1_555
C11B C5B 1_555 1_555
C12B C6B 1_555 1_555
H4B C6B 1_555 1_555
H11B C11B 1_555 1_555
C16B C11B 1_555 1_555
H12B C12B 1_555 1_555
C18B C20 1_555 1_555
H17B C18B 1_555 1_555
H18B C18B 1_555 1_555
H21B C20 1_555 1_555
Cd1B O1B 1_555 1_555
N1B Cd1B 1_555 1_555
C3B N1B 1_555 1_555
C4B N1B 1_555 1_555
H1B C3B 1_555 1_555
C9B C3B 1_555 1_555
C10B C4B 1_555 1_555
H2B C4B 1_555 1_555
H9B C9B 1_555 1_555
C15B C9B 1_555 1_555
H10B C10B 1_555 1_555
C17B C15B 1_555 1_555
H15B C17B 1_555 1_555
H16B C17B 1_555 1_555
C19B C17B 1_555 1_555
H19B C19B 1_555 1_555
H20B C19B 1_555 1_555
C21B C19B 1_555 1_555
C22B C21B 1_555 1_555
H22B C21B 1_555 1_555
H23B C21B 1_555 1_555
C23B C22B 1_555 1_555
C24B C22B 1_555 1_555
C25B C23B 1_555 1_555
H24B C23B 1_555 1_555
H25B C24B 1_555 1_555
C26B C24B 1_555 1_555
H26B C25B 1_555 1_555
N3B C25B 1_555 1_555
H27B C26B 1_555 1_555
Cd1B_2 N2B 1_555 1_555
Cd1C O3C 1_555 1_555
Cd1D N3 1_555 1_555
Cd1F N3B 1_555 1_555
O3B Cd1B 1_555 1_555
O4B Cd1B 1_555 1_555
N2B_2 Cd1B 1_555 1_555
N3D Cd1 1_555 1_555
N3F Cd1B 1_555 1_555
O4 C2 1_555 1_555
C10 C15 1_555 1_555
C12 C16 1_555 1_555
C26 N3 1_555 1_555
O2B Cd1B 1_555 1_555
O4C Cd1C 1_555 1_555
C12B C16B 1_555 1_555
C16B C18B 1_555 1_555
C10B C15B 1_555 1_555
C26B N3B 1_555 1_555

#END
