
#######################################################################
#
#                 Cambridge Crystallographic Data Centre
#                                CCDC 
#
#######################################################################
#
# If this CIF has been generated from an entry in the Cambridge 
# Structural Database, then it will include bibliographic, chemical, 
# crystal, experimental, refinement or atomic coordinate data resulting 
# from the CCDC's data processing and validation procedures.
#
#######################################################################

data_QAQSAD
_chemical_formula_moiety         '(C41 H33 N1 O15 Zn3)n'
_symmetry_cell_setting           triclinic
_symmetry_space_group_name_H-M   'P -1'
_symmetry_Int_Tables_number      2
_space_group_name_Hall           '-P 1'
loop_
_symmetry_equiv_pos_site_id
_symmetry_equiv_pos_as_xyz
1 x,y,z
2 -x,-y,-z
_cell_length_a                   10.327(3)
_cell_length_b                   11.067(6)
_cell_length_c                   11.692(10)
_cell_angle_alpha                112.33(5)
_cell_angle_beta                 97.31(6)
_cell_angle_gamma                106.79(4)
_cell_volume                     1140.21
loop_
_atom_site_label
_atom_site_type_symbol
_atom_site_fract_x
_atom_site_fract_y
_atom_site_fract_z
O8 O 0.4974(2) 0.8388(2) 0.3649(2)
N1 N 0.7135(3) 0.9937(3) 0.3983(3)
C20 C 0.5750(4) 0.9490(3) 0.3686(3)
H13 H 0.5328 1.0051 0.3491
C21 C 0.7866(4) 0.9093(5) 0.4248(4)
H14 H 0.8629 0.9129 0.3856
H15 H 0.7227 0.8138 0.3906
H16 H 0.8225 0.9454 0.5159
C22 C 0.8003(7) 1.1238(5) 0.3990(7)
H17 H 0.8661 1.1831 0.4818
H18 H 0.7417 1.1712 0.3809
H19 H 0.8504 1.1029 0.3348
Zn1 Zn 0.16664(3) -0.16711(3) 0.13998(3)
Zn2 Zn 0.0000 0.0000 0.0000
O1 O 0.0065(2) -0.19155(18) -0.10729(18)
O2 O 0.1810(2) -0.2494(2) -0.03622(18)
O3 O 0.2864(2) 0.02213(18) 0.26416(18)
O4 O 0.2087(2) 0.07819(19) 0.11192(17)
O5 O -0.0863(2) -0.07771(19) 0.12441(18)
O6 O -0.0271(2) -0.2532(2) 0.1346(2)
O7 O 0.2438(2) -0.2720(2) 0.2191(2)
C1 C 0.0895(3) -0.2553(3) -0.1247(2)
C2 C 0.0782(3) -0.3504(3) -0.2604(2)
C3 C -0.0317(3) -0.3753(3) -0.3563(3)
H1 H -0.0952 -0.3309 -0.3360
C4 C -0.0503(3) -0.4676(3) -0.4860(3)
C5 C -0.1626(3) -0.4957(3) -0.5864(3)
H2 H -0.2281 -0.4537 -0.5680
C6 C 0.1766(3) -0.4158(3) -0.2892(3)
H3 H 0.2507 -0.3989 -0.2238
C7 C 0.2792(3) 0.1121(3) 0.2217(3)
C8 C 0.3608(3) 0.2642(3) 0.3111(2)
C9 C 0.3666(3) 0.3673(3) 0.2651(3)
H4 H 0.3225 0.3398 0.1800
C10 C 0.4369(3) 0.5063(3) 0.3458(3)
H5 H 0.4419 0.5727 0.3145
C11 C 0.4267(3) 0.3045(3) 0.4365(2)
H6 H 0.4249 0.2364 0.4651
C12 C 0.5024(3) 0.5511(3) 0.4767(2)
C13 C -0.1174(3) -0.2005(3) 0.1148(3)
C14 C -0.2685(3) -0.2946(3) 0.0780(3)
C15 C -0.3762(3) -0.2407(3) 0.0657(3)
H7 H -0.3525 -0.1460 0.0858
C16 C -0.5146(3) -0.3273(3) 0.0247(3)
H8 H -0.5840 -0.2906 0.0169
C17 C -0.5537(3) -0.4727(3) -0.0064(3)
C18 C -0.3040(3) -0.4346(3) 0.0500(3)
H9 H -0.2332 -0.4691 0.0599
C19 C 0.1603(4) -0.3948(3) 0.2274(4)
H10 H 0.1931 -0.3879 0.3110
H11 H 0.1679 -0.4763 0.1635
H12 H 0.0641 -0.4025 0.2132
Zn1A Zn -0.16664(3) -0.83289(3) -1.13998(3)
Zn1A_2 Zn 0.83336(3) 1.16711(3) 0.86002(3)
Zn1A_3 Zn -1.16664(3) -0.83289(3) -0.13998(3)
Zn2_2 Zn -0.0000 -1.0000 -1.0000
Zn2_3 Zn 1.0000 1.0000 1.0000
Zn2_4 Zn -1.0000 -1.0000 0.0000
O1A O -0.0065(2) -0.80845(18) -0.89271(18)
O1A_2 O -0.0065(2) 0.19155(18) 0.10729(18)
O2A O -0.1810(2) -0.7506(2) -0.96378(18)
O3A O 0.7136(2) 0.97787(18) 0.73584(18)
O3A_2 O -0.2864(2) -1.02213(18) -1.26416(18)
O4A O 0.7913(2) 0.92181(19) 0.88808(17)
O4A_2 O -0.2087(2) -0.07819(19) -0.11192(17)
O5A O -0.9137(2) -0.92229(19) -0.12441(18)
O5A_2 O 0.0863(2) 0.07771(19) -0.12441(18)
O6A O -0.9729(2) -0.7468(2) -0.1346(2)
O6A_2 O 0.0271(2) -0.7468(2) -1.1346(2)
O7A O -0.2438(2) -0.7280(2) -1.2191(2)
C1A C -0.0895(3) -0.7447(3) -0.8753(2)
C2A C -0.0782(3) -0.6496(3) -0.7396(2)
C3A C 0.0317(3) -0.6247(3) -0.6437(3)
H1A H 0.0952 -0.6691 -0.6640
C4A C 0.0503(3) -0.5324(3) -0.5140(3)
C5A C 0.1626(3) -0.5043(3) -0.4136(3)
H2A H 0.2281 -0.5463 -0.4320
C6A C -0.1766(3) -0.5842(3) -0.7108(3)
H3A H -0.2507 -0.6011 -0.7762
C7A C 0.7208(3) 0.8879(3) 0.7783(3)
C8A C 0.6392(3) 0.7358(3) 0.6889(2)
C9A C 0.6334(3) 0.6327(3) 0.7349(3)
H4A H 0.6775 0.6602 0.8200
C10A C 0.5631(3) 0.4937(3) 0.6542(3)
H5A H 0.5581 0.4273 0.6855
C11A C 0.5733(3) 0.6955(3) 0.5635(2)
H6A H 0.5751 0.7636 0.5349
C12A C 0.4976(3) 0.4489(3) 0.5233(2)
C13A C -0.8826(3) -0.7995(3) -0.1148(3)
C14A C -0.7315(3) -0.7054(3) -0.0780(3)
C15A C -0.6238(3) -0.7593(3) -0.0657(3)
H7A H -0.6475 -0.8540 -0.0858
C16A C -0.4854(3) -0.6727(3) -0.0247(3)
H8A H -0.4160 -0.7094 -0.0169
C17A C -0.4463(3) -0.5273(3) 0.0064(3)
C18A C -0.6960(3) -0.5654(3) -0.0500(3)
H9A H -0.7668 -0.5309 -0.0599
C19A C -0.1603(4) -0.6052(3) -1.2274(4)
H10A H -0.1931 -0.6121 -1.3110
H11A H -0.1679 -0.5237 -1.1635
H12A H -0.0641 -0.5975 -1.2132
loop_
_geom_bond_atom_site_label_1
_geom_bond_atom_site_label_2
_geom_bond_site_symmetry_1
_geom_bond_site_symmetry_2
Zn1 O2 1_555 1_555
Zn2 O1 1_555 1_555
O1 C1 1_555 1_555
O2 C1 1_555 1_555
O3 Zn1 1_555 1_555
O4 Zn2 1_555 1_555
O5 Zn2 1_555 1_555
O6 Zn1 1_555 1_555
O7 Zn1 1_555 1_555
O8 C20 1_555 1_555
N1 C20 1_555 1_555
C1 C2 1_555 1_555
C2 C3 1_555 1_555
C3 H1 1_555 1_555
C4 C3 1_555 1_555
C5 C4 1_555 1_555
H2 C5 1_555 1_555
C6 C2 1_555 1_555
H3 C6 1_555 1_555
C7 O3 1_555 1_555
C8 C7 1_555 1_555
C9 C8 1_555 1_555
H4 C9 1_555 1_555
C10 C9 1_555 1_555
H5 C10 1_555 1_555
C11 C8 1_555 1_555
H6 C11 1_555 1_555
C12 C10 1_555 1_555
C13 O5 1_555 1_555
C14 C13 1_555 1_555
C15 C14 1_555 1_555
H7 C15 1_555 1_555
C16 C15 1_555 1_555
H8 C16 1_555 1_555
C17 C16 1_555 1_555
C18 C14 1_555 1_555
H9 C18 1_555 1_555
C19 O7 1_555 1_555
H10 C19 1_555 1_555
H11 C19 1_555 1_555
H12 C19 1_555 1_555
C20 H13 1_555 1_555
C21 N1 1_555 1_555
H14 C21 1_555 1_555
H15 C21 1_555 1_555
H16 C21 1_555 1_555
C22 N1 1_555 1_555
H17 C22 1_555 1_555
H18 C22 1_555 1_555
H19 C22 1_555 1_555
Zn1A O2A 1_555 1_555
Zn1A_2 O3A 1_555 1_555
Zn1A_3 O6A 1_555 1_555
Zn2_2 O1A 1_555 1_555
Zn2_3 O4A 1_555 1_555
Zn2_4 O5A 1_555 1_555
O1A C1A 1_555 1_555
O1A_2 Zn2 1_555 1_555
O2A C1A 1_555 1_555
O3A C7A 1_555 1_555
O3A_2 Zn1A 1_555 1_555
O4A C7A 1_555 1_555
O4A_2 Zn2 1_555 1_555
O5A C13A 1_555 1_555
O5A_2 Zn2 1_555 1_555
O6A C13A 1_555 1_555
O6A_2 Zn1A 1_555 1_555
O7A Zn1A 1_555 1_555
C1A C2A 1_555 1_555
C2A C3A 1_555 1_555
C3A H1A 1_555 1_555
C4A C4 1_555 1_555
C5A C6 1_555 1_555
H2A C5A 1_555 1_555
C6A C5 1_555 1_555
H3A C6A 1_555 1_555
C7A C8A 1_555 1_555
C8A C9A 1_555 1_555
C9A H4A 1_555 1_555
C10A C9A 1_555 1_555
H5A C10A 1_555 1_555
C11A C12 1_555 1_555
H6A C11A 1_555 1_555
C12A C11 1_555 1_555
C13A C14A 1_555 1_555
C14A C15A 1_555 1_555
C15A H7A 1_555 1_555
C16A C15A 1_555 1_555
H8A C16A 1_555 1_555
C17A C17 1_555 1_555
C18A C17 1_555 1_555
H9A C18A 1_555 1_555
C19A O7A 1_555 1_555
H10A C19A 1_555 1_555
H11A C19A 1_555 1_555
H12A C19A 1_555 1_555
O4 C7 1_555 1_555
O6 C13 1_555 1_555
C12 C12A 1_555 1_555
C18 C17A 1_555 1_555
C2A C6A 1_555 1_555
C3A C4A 1_555 1_555
C4A C5A 1_555 1_555
C8A C11A 1_555 1_555
C10A C12A 1_555 1_555
C14A C18A 1_555 1_555
C16A C17A 1_555 1_555

#END
