
#######################################################################
#
#                 Cambridge Crystallographic Data Centre
#                                CCDC 
#
#######################################################################
#
# If this CIF has been generated from an entry in the Cambridge 
# Structural Database, then it will include bibliographic, chemical, 
# crystal, experimental, refinement or atomic coordinate data resulting 
# from the CCDC's data processing and validation procedures.
#
#######################################################################

data_IZENOS
_chemical_formula_moiety         '(C48 H32 Fe6 N7 O36 1+)n'
_symmetry_cell_setting           cubic
_symmetry_space_group_name_H-M   'P -4 3 n'
_symmetry_Int_Tables_number      218
_space_group_name_Hall           'P -4n 2 3'
loop_
_symmetry_equiv_pos_site_id
_symmetry_equiv_pos_as_xyz
1 x,y,z
2 -x,-y,z
3 -x,y,-z
4 x,-y,-z
5 z,x,y
6 z,-x,-y
7 -z,-x,y
8 -z,x,-y
9 y,z,x
10 -y,z,-x
11 y,-z,-x
12 -y,-z,x
13 1/2+y,1/2+x,1/2+z
14 1/2-y,1/2-x,1/2+z
15 1/2+y,1/2-x,1/2-z
16 1/2-y,1/2+x,1/2-z
17 1/2+x,1/2+z,1/2+y
18 1/2-x,1/2+z,1/2-y
19 1/2-x,1/2-z,1/2+y
20 1/2+x,1/2-z,1/2-y
21 1/2+z,1/2+y,1/2+x
22 1/2+z,1/2-y,1/2-x
23 1/2-z,1/2+y,1/2-x
24 1/2-z,1/2-y,1/2+x
_cell_length_a                   21.9524(6)
_cell_length_b                   21.9524(6)
_cell_length_c                   21.9524(6)
_cell_angle_alpha                90
_cell_angle_beta                 90
_cell_angle_gamma                90
_cell_volume                     10579
loop_
_atom_site_label
_atom_site_type_symbol
_atom_site_fract_x
_atom_site_fract_y
_atom_site_fract_z
Fe1 Fe 0.76070(3) 0.30342(3) 0.17958(3)
O1 O 0.75954(14) 0.24046(14) 0.24046(14)
O2 O 0.76197(18) 0.37074(17) 0.11422(16)
O3 O 0.74561(15) 0.24954(15) 0.10698(14)
O4 O 0.70345(17) 0.16601(16) 0.14923(13)
O5 O 0.72639(17) 0.26305(15) -0.12595(15)
O6 O 0.68573(17) 0.18086(16) -0.17084(14)
C1 C 0.7215(2) 0.1978(2) 0.10424(19)
C2 C 0.7062(2) 0.2088(2) -0.12535(19)
C3 C 0.7158(2) 0.2025(2) -0.0103(2)
H1 H 0.7240 0.2450 -0.0085
C4 C 0.7133(2) 0.1692(2) 0.0427(2)
C5 C 0.7063(2) 0.1745(2) -0.0666(2)
C6 C 0.6960(3) 0.1129(2) -0.0702(2)
H2 H 0.6895 0.0936 -0.1084
C7 C 0.6955(3) 0.0793(2) -0.0163(2)
C8 C 0.7030(3) 0.1068(2) 0.0404(2)
H3 H 0.7011 0.0834 0.0767
N1 N 0.6926(3) 0.0132(2) -0.02385(18)
O3C O 0.74561(15) -0.24954(15) -0.10698(14)
O4C O 0.70345(17) -0.16601(16) -0.14923(13)
O5C O 0.72639(17) -0.26305(15) 0.12595(15)
O6C O 0.68573(17) -0.18086(16) 0.17084(14)
C1C C 0.7215(2) -0.1978(2) -0.10424(19)
C2C C 0.7062(2) -0.2088(2) 0.12535(19)
C3C C 0.7158(2) -0.2025(2) 0.0103(2)
H1C H 0.7240 -0.2450 0.0085
C4C C 0.7133(2) -0.1692(2) -0.0427(2)
C5C C 0.7063(2) -0.1745(2) 0.0666(2)
C6C C 0.6960(3) -0.1129(2) 0.0702(2)
H2C H 0.6895 -0.0936 0.1084
C7C C 0.6955(3) -0.0793(2) 0.0163(2)
C8C C 0.7030(3) -0.1068(2) -0.0404(2)
H3C H 0.7011 -0.0834 -0.0767
N1C N 0.6926(3) -0.0132(2) 0.02385(18)
Fe1C Fe 0.76070(3) -0.30342(3) -0.17958(3)
O1C O 0.75954(14) -0.24046(14) -0.24046(14)
O2C O 0.76197(18) -0.37074(17) -0.11422(16)
Fe1D Fe 1.17958(3) -0.23930(3) 0.30342(3)
O2D O 1.11422(16) -0.23803(18) 0.37074(17)
O3D O 1.10698(14) -0.25439(15) 0.24954(15)
O4D O 1.14923(13) -0.29655(17) 0.16601(16)
O5D O 0.87405(15) -0.27361(17) 0.26305(15)
O6D O 0.82916(14) -0.31427(17) 0.18086(16)
C1D C 1.10424(19) -0.2785(2) 0.1978(2)
C2D C 0.87465(19) -0.2938(2) 0.2088(2)
C3D C 0.9897(2) -0.2842(2) 0.2025(2)
H1D H 0.9915 -0.2760 0.2450
C4D C 1.0427(2) -0.2867(2) 0.1692(2)
C5D C 0.9334(2) -0.2937(2) 0.1745(2)
C6D C 0.9298(2) -0.3040(3) 0.1129(2)
H2D H 0.8916 -0.3105 0.0936
C7D C 0.9837(2) -0.3045(3) 0.0793(2)
C8D C 1.0404(2) -0.2970(3) 0.1068(2)
H3D H 1.0767 -0.2989 0.0834
N1D N 0.97615(18) -0.3074(3) 0.0132(2)
O3G O 0.89302(14) -0.25439(15) -0.24954(15)
O4G O 0.85077(13) -0.29655(17) -0.16601(16)
O5G O 1.12595(15) -0.27361(17) -0.26305(15)
O6G O 1.17084(14) -0.31427(17) -0.18086(16)
C1G C 0.89576(19) -0.2785(2) -0.1978(2)
C2G C 1.12535(19) -0.2938(2) -0.2088(2)
C3G C 1.0103(2) -0.2842(2) -0.2025(2)
H1G H 1.0085 -0.2760 -0.2450
C4G C 0.9573(2) -0.2867(2) -0.1692(2)
C5G C 1.0666(2) -0.2937(2) -0.1745(2)
C6G C 1.0702(2) -0.3040(3) -0.1129(2)
H2G H 1.1084 -0.3105 -0.0936
C7G C 1.0163(2) -0.3045(3) -0.0793(2)
C8G C 0.9596(2) -0.2970(3) -0.1068(2)
H3G H 0.9233 -0.2989 -0.0834
N1G N 1.02385(18) -0.3074(3) -0.0132(2)
Fe1E Fe 1.17958(3) 0.23930(3) -0.30342(3)
O2E O 1.11422(16) 0.23803(18) -0.37074(17)
O3E O 1.10698(14) 0.25439(15) -0.24954(15)
O4E O 1.14923(13) 0.29655(17) -0.16601(16)
O5E O 0.87405(15) 0.27361(17) -0.26305(15)
O6E O 0.82916(14) 0.31427(17) -0.18086(16)
C1E C 1.10424(19) 0.2785(2) -0.1978(2)
C2E C 0.87465(19) 0.2938(2) -0.2088(2)
C3E C 0.9897(2) 0.2842(2) -0.2025(2)
H1E H 0.9915 0.2760 -0.2450
C4E C 1.0427(2) 0.2867(2) -0.1692(2)
C5E C 0.9334(2) 0.2937(2) -0.1745(2)
C6E C 0.9298(2) 0.3040(3) -0.1129(2)
H2E H 0.8916 0.3105 -0.0936
C7E C 0.9837(2) 0.3045(3) -0.0793(2)
C8E C 1.0404(2) 0.2970(3) -0.1068(2)
H3E H 1.0767 0.2989 -0.0834
N1E N 0.97615(18) 0.3074(3) -0.0132(2)
O3F O 0.89302(14) 0.25439(15) 0.24954(15)
O4F O 0.85077(13) 0.29655(17) 0.16601(16)
O5F O 1.12595(15) 0.27361(17) 0.26305(15)
O6F O 1.17084(14) 0.31427(17) 0.18086(16)
C1F C 0.89576(19) 0.2785(2) 0.1978(2)
C2F C 1.12535(19) 0.2938(2) 0.2088(2)
C3F C 1.0103(2) 0.2842(2) 0.2025(2)
H1F H 1.0085 0.2760 0.2450
C4F C 0.9573(2) 0.2867(2) 0.1692(2)
C5F C 1.0666(2) 0.2937(2) 0.1745(2)
C6F C 1.0702(2) 0.3040(3) 0.1129(2)
H2F H 1.1084 0.3105 0.0936
C7F C 1.0163(2) 0.3045(3) 0.0793(2)
C8F C 0.9596(2) 0.2970(3) 0.1068(2)
H3F H 0.9233 0.2989 0.0834
N1F N 1.02385(18) 0.3074(3) 0.0132(2)
Fe1F Fe 0.82042(3) 0.23930(3) 0.30342(3)
O2F O 0.88578(16) 0.23803(18) 0.37074(17)
Fe1G Fe 0.82042(3) -0.23930(3) -0.30342(3)
O2G O 0.88578(16) -0.23803(18) -0.37074(17)
Fe1A Fe 1.23930(3) -0.30342(3) 0.17958(3)
Fe1B Fe 1.23930(3) 0.30342(3) -0.17958(3)
Fe1I Fe 0.69658(3) 0.17958(3) 0.23930(3)
Fe1K Fe 0.69658(3) -0.17958(3) -0.23930(3)
Fe1L Fe 0.80342(3) 0.26070(3) -0.32042(3)
Fe1M Fe 1.19658(3) -0.26070(3) -0.32042(3)
Fe1N Fe 0.80342(3) -0.26070(3) 0.32042(3)
Fe1O Fe 1.19658(3) 0.26070(3) 0.32042(3)
Fe1P Fe 1.26070(3) -0.32042(3) -0.19658(3)
Fe1Q Fe 0.73930(3) -0.32042(3) 0.19658(3)
Fe1R Fe 0.73930(3) 0.32042(3) -0.19658(3)
Fe1S Fe 1.26070(3) 0.32042(3) 0.19658(3)
Fe1T Fe 0.67958(3) -0.19658(3) 0.26070(3)
Fe1U Fe 0.67958(3) 0.19658(3) -0.26070(3)
O1A O 1.24046(14) -0.24046(14) 0.24046(14)
O1B O 1.24046(14) 0.24046(14) -0.24046(14)
O4H O 1.16601(16) 0.14923(13) -0.29655(17)
O4I O 0.83399(16) 0.14923(13) 0.29655(17)
O4J O 1.16601(16) -0.14923(13) 0.29655(17)
O4K O 0.83399(16) -0.14923(13) -0.29655(17)
O5L O 0.76305(15) 0.22639(17) 0.37405(15)
O5M O 1.23695(15) -0.22639(17) 0.37405(15)
O5N O 0.76305(15) -0.22639(17) -0.37405(15)
O5O O 1.23695(15) 0.22639(17) -0.37405(15)
O5Q O 0.77361(17) 0.37405(15) 0.23695(15)
O5R O 0.77361(17) -0.37405(15) -0.23695(15)
O6P O 1.18573(17) 0.32916(14) -0.31914(16)
O6Q O 0.81427(17) 0.32916(14) 0.31914(16)
O6R O 0.81427(17) -0.32916(14) -0.31914(16)
O6S O 1.18573(17) -0.32916(14) 0.31914(16)
O6V O 0.67084(14) -0.31914(16) -0.18573(17)
O6W O 0.67084(14) 0.31914(16) 0.18573(17)
N2 N 0.8824(7) 0.1176(7) 0.1176(7)
O7 O 0.8449(11) 0.0665(9) 0.1278(13)
O7F O 0.8722(13) 0.1551(11) 0.0665(9)
O7I O 0.9335(9) 0.1278(13) 0.1551(11)
O8 O 0.8560(9) 0.1440(9) -0.1440(9)
loop_
_geom_bond_atom_site_label_1
_geom_bond_atom_site_label_2
_geom_bond_site_symmetry_1
_geom_bond_site_symmetry_2
Fe1 O1 1_555 1_555
O1 Fe1F 1_555 1_555
O2 Fe1 1_555 1_555
O3 Fe1 1_555 1_555
O4 C1 1_555 1_555
O5 C2 1_555 1_555
O6 C2 1_555 1_555
C1 O3 1_555 1_555
C2 C5 1_555 1_555
C3 H1 1_555 1_555
C4 C1 1_555 1_555
C5 C3 1_555 1_555
C6 C5 1_555 1_555
H2 C6 1_555 1_555
C7 C6 1_555 1_555
C8 C4 1_555 1_555
H3 C8 1_555 1_555
N1 C7 1_555 1_555
N2 O7 1_555 1_555
O3C C1C 1_555 1_555
O4C C1C 1_555 1_555
O5C C2C 1_555 1_555
O6C C2C 1_555 1_555
C1C C4C 1_555 1_555
C2C C5C 1_555 1_555
C3C H1C 1_555 1_555
C4C C3C 1_555 1_555
C5C C3C 1_555 1_555
C6C C5C 1_555 1_555
H2C C6C 1_555 1_555
C7C C6C 1_555 1_555
C8C C4C 1_555 1_555
H3C C8C 1_555 1_555
N1C N1 1_555 1_555
Fe1C O3C 1_555 1_555
O1C Fe1C 1_555 1_555
O2C Fe1C 1_555 1_555
Fe1D O2D 1_555 1_555
O3D Fe1D 1_555 1_555
O4D C1D 1_555 1_555
O5D C2D 1_555 1_555
O6D C2D 1_555 1_555
C1D O3D 1_555 1_555
C2D C5D 1_555 1_555
C3D H1D 1_555 1_555
C4D C1D 1_555 1_555
C5D C3D 1_555 1_555
C6D C5D 1_555 1_555
H2D C6D 1_555 1_555
C7D C6D 1_555 1_555
C8D C4D 1_555 1_555
H3D C8D 1_555 1_555
N1D C7D 1_555 1_555
O3G C1G 1_555 1_555
O4G Fe1C 1_555 1_555
O5G C2G 1_555 1_555
O6G C2G 1_555 1_555
C1G O4G 1_555 1_555
C2G C5G 1_555 1_555
C3G H1G 1_555 1_555
C4G C1G 1_555 1_555
C5G C3G 1_555 1_555
C6G C5G 1_555 1_555
H2G C6G 1_555 1_555
C7G C6G 1_555 1_555
C8G C4G 1_555 1_555
H3G C8G 1_555 1_555
N1G N1D 1_555 1_555
Fe1E O2E 1_555 1_555
O3E Fe1E 1_555 1_555
O4E C1E 1_555 1_555
O5E C2E 1_555 1_555
O6E C2E 1_555 1_555
C1E O3E 1_555 1_555
C2E C5E 1_555 1_555
C3E H1E 1_555 1_555
C4E C1E 1_555 1_555
C5E C3E 1_555 1_555
C6E C5E 1_555 1_555
H2E C6E 1_555 1_555
C7E C6E 1_555 1_555
C8E C4E 1_555 1_555
H3E C8E 1_555 1_555
N1E C7E 1_555 1_555
O3F C1F 1_555 1_555
O4F Fe1 1_555 1_555
O5F C2F 1_555 1_555
O6F C2F 1_555 1_555
C1F O4F 1_555 1_555
C2F C5F 1_555 1_555
C3F H1F 1_555 1_555
C4F C1F 1_555 1_555
C5F C3F 1_555 1_555
C6F C5F 1_555 1_555
H2F C6F 1_555 1_555
C7F C6F 1_555 1_555
C8F C4F 1_555 1_555
H3F C8F 1_555 1_555
N1F N1E 1_555 1_555
Fe1F O3F 1_555 1_555
O2F Fe1F 1_555 1_555
Fe1G O1C 1_555 1_555
O2G Fe1G 1_555 1_555
Fe1A O4D 1_555 1_555
Fe1B O4E 1_555 1_555
Fe1I O1 1_555 1_555
Fe1K O4C 1_555 1_555
Fe1L O5E 1_555 1_555
Fe1M O5G 1_555 1_555
Fe1N O5D 1_555 1_555
Fe1O O5F 1_555 1_555
Fe1P O6G 1_555 1_555
Fe1Q O5C 1_555 1_555
Fe1R O5 1_555 1_555
Fe1S O6F 1_555 1_555
Fe1T O6C 1_555 1_555
Fe1U O6 1_555 1_555
O1A Fe1D 1_555 1_555
O1B Fe1E 1_555 1_555
O4H Fe1E 1_555 1_555
O4I Fe1F 1_555 1_555
O4J Fe1D 1_555 1_555
O4K Fe1G 1_555 1_555
O5L Fe1F 1_555 1_555
O5M Fe1D 1_555 1_555
O5N Fe1G 1_555 1_555
O5O Fe1E 1_555 1_555
O5Q Fe1 1_555 1_555
O5R Fe1C 1_555 1_555
O6P Fe1E 1_555 1_555
O6Q Fe1F 1_555 1_555
O6R Fe1G 1_555 1_555
O6S Fe1D 1_555 1_555
O6V Fe1C 1_555 1_555
O6W Fe1 1_555 1_555
O7F N2 1_555 1_555
O7I N2 1_555 1_555
O4 Fe1I 1_555 1_555
C3 C4 1_555 1_555
C7 C8 1_555 1_555
C7C C8C 1_555 1_555
C7C N1C 1_555 1_555
O1C Fe1K 1_555 1_555
O6D Fe1Q 1_555 1_555
C3D C4D 1_555 1_555
C7D C8D 1_555 1_555
O3G Fe1G 1_555 1_555
C3G C4G 1_555 1_555
C7G C8G 1_555 1_555
C7G N1G 1_555 1_555
O6E Fe1R 1_555 1_555
C3E C4E 1_555 1_555
C7E C8E 1_555 1_555
C3F C4F 1_555 1_555
C7F C8F 1_555 1_555
C7F N1F 1_555 1_555
Fe1A O1A 1_555 1_555
Fe1B O1B 1_555 1_555

#END
