
#######################################################################
#
#                 Cambridge Crystallographic Data Centre
#                                CCDC 
#
#######################################################################
#
# If this CIF has been generated from an entry in the Cambridge 
# Structural Database, then it will include bibliographic, chemical, 
# crystal, experimental, refinement or atomic coordinate data resulting 
# from the CCDC's data processing and validation procedures.
#
#######################################################################

data_ETAXUT
_chemical_formula_moiety         '(C234 H166 N6 O72 Zn16)n'
_symmetry_cell_setting           trigonal
_symmetry_space_group_name_H-M   'P 31 1 2'
_symmetry_Int_Tables_number      151
_space_group_name_Hall           'P 31 2 (0 0 4)'
loop_
_symmetry_equiv_pos_site_id
_symmetry_equiv_pos_as_xyz
1 x,y,z
2 -y,x-y,1/3+z
3 -x+y,-x,2/3+z
4 -y,-x,2/3-z
5 -x+y,y,1/3-z
6 x,x-y,-z
_cell_length_a                   29.536(2)
_cell_length_b                   29.536(2)
_cell_length_c                   41.760(6)
_cell_angle_alpha                90
_cell_angle_beta                 90
_cell_angle_gamma                120
_cell_volume                     31549.6
loop_
_atom_site_label
_atom_site_type_symbol
_atom_site_fract_x
_atom_site_fract_y
_atom_site_fract_z
Zn1 Zn 0.97792(5) 0.70753(5) 0.02442(3)
Zn2 Zn 0.96575(5) 0.59575(5) 0.02518(3)
Zn3 Zn 1.01775(6) 0.66894(6) -0.03474(4)
Zn4 Zn 1.07789(6) 0.69440(6) 0.03169(4)
O1 O 1.0083(3) 0.6662(3) 0.01243(16)
O2 O 0.9420(3) 0.7230(3) -0.01018(18)
O3 O 0.9811(3) 0.7046(3) -0.05062(17)
O4 O 0.6682(3) 0.9177(4) -0.2730(2)
O5 O 0.7478(3) 0.9736(3) -0.2894(2)
C1 C 0.9487(5) 0.7175(5) -0.0393(2)
C2 C 0.9229(3) 0.7347(4) -0.06274(17)
C3 C 0.8873(3) 0.7494(4) -0.05279(14)
H1 H 0.8798 0.7493 -0.0307
C4 C 0.8625(3) 0.7644(4) -0.0752(2)
H2 H 0.8381 0.7744 -0.0684
C5 C 0.8734(4) 0.7646(4) -0.10763(18)
C6 C 0.9091(4) 0.7498(4) -0.11758(14)
H3 H 0.9165 0.7500 -0.1397
C7 C 0.9338(3) 0.7349(4) -0.09514(18)
H4 H 0.9582 0.7248 -0.1019
C8 C 0.8500(6) 0.7837(6) -0.1306(3)
C9 C 0.8326(7) 0.7987(7) -0.1508(4)
C10 C 0.8139(7) 0.8176(8) -0.1740(4)
C11 C 0.7963(6) 0.8366(7) -0.1920(4)
C12 C 0.7747(4) 0.8585(3) -0.2140(2)
C13 C 0.7233(3) 0.8474(3) -0.21084(19)
H5 H 0.7011 0.8226 -0.1954
C14 C 0.7044(3) 0.8723(4) -0.2304(2)
H6 H 0.6693 0.8647 -0.2282
C15 C 0.7370(3) 0.9085(3) -0.2530(2)
C16 C 0.7884(3) 0.9197(3) -0.25613(19)
H7 H 0.8106 0.9444 -0.2716
C17 C 0.8073(3) 0.8947(4) -0.2366(2)
H8 H 0.8424 0.9023 -0.2388
C18 C 0.7158(4) 0.9342(5) -0.2742(3)
O6 O 0.9234(3) 0.6690(3) 0.05662(18)
O7 O 0.9006(3) 0.5880(3) 0.04388(18)
O8 O 0.4589(3) 0.4003(4) 0.3254(2)
O9 O 0.4026(3) 0.3653(4) 0.2851(2)
C19 C 0.8927(4) 0.6205(4) 0.0580(2)
C20 C 0.8465(2) 0.6008(3) 0.07905(16)
C21 C 0.8093(3) 0.5479(3) 0.07908(17)
H9 H 0.8128 0.5247 0.0648
C22 C 0.7670(3) 0.5288(2) 0.0999(2)
H10 H 0.7416 0.4927 0.1000
C23 C 0.7619(3) 0.5627(3) 0.12076(18)
C24 C 0.7990(3) 0.6156(3) 0.12074(18)
H11 H 0.7955 0.6388 0.1350
C25 C 0.8413(3) 0.6347(2) 0.09988(19)
H12 H 0.8667 0.6708 0.0999
C26 C 0.7180(5) 0.5409(5) 0.1427(3)
C27 C 0.6853(5) 0.5197(5) 0.1628(3)
C28 C 0.6455(5) 0.4973(6) 0.1839(3)
C29 C 0.6127(5) 0.4782(6) 0.2041(3)
C30 C 0.5728(3) 0.4509(4) 0.22859(17)
C31 C 0.5229(3) 0.4124(4) 0.21963(14)
H13 H 0.5162 0.4001 0.1982
C32 C 0.4827(2) 0.3919(3) 0.24206(19)
H14 H 0.4486 0.3656 0.2359
C33 C 0.4925(3) 0.4099(3) 0.27346(17)
C34 C 0.5425(3) 0.4484(3) 0.28242(15)
H15 H 0.5492 0.4607 0.3039
C35 C 0.5826(2) 0.4689(3) 0.25998(19)
H16 H 0.6168 0.4952 0.2661
C36 C 0.4489(4) 0.3920(5) 0.2966(3)
O10 O 0.9942(4) 0.5744(4) 0.0600(2)
O11 O 1.0639(5) 0.6469(5) 0.0687(3)
O12 O 1.2629(5) 0.3987(6) 0.3384(3)
O13 O 1.2639(8) 0.3536(8) 0.2973(4)
C37 C 1.0289(7) 0.6026(6) 0.0776(4)
C38 C 1.0468(5) 0.5809(5) 0.1032(3)
C39 C 1.0875(6) 0.6131(5) 0.1236(4)
H17 H 1.1081 0.6495 0.1192
C40 C 1.0982(6) 0.5922(6) 0.1504(3)
H18 H 1.1261 0.6143 0.1643
C41 C 1.0682(7) 0.5391(6) 0.1569(3)
C42 C 1.0274(6) 0.5068(5) 0.1365(4)
H19 H 1.0069 0.4705 0.1410
C43 C 1.0167(5) 0.5277(5) 0.1097(3)
H20 H 0.9888 0.5057 0.0958
C44 C 1.0864(10) 0.5193(9) 0.1822(5)
C45 C 1.1041(11) 0.4969(12) 0.1966(7)
C46 C 1.1390(11) 0.4897(12) 0.2152(7)
C47 C 1.1478(11) 0.4672(11) 0.2372(5)
C48 C 1.1717(6) 0.4443(7) 0.2564(4)
C49 C 1.1832(6) 0.4571(6) 0.2886(4)
H21 H 1.1726 0.4790 0.2988
C50 C 1.2102(7) 0.4377(6) 0.3057(3)
H22 H 1.2181 0.4464 0.3277
C51 C 1.2257(6) 0.4056(7) 0.2907(4)
C52 C 1.2142(6) 0.3929(6) 0.2586(4)
H23 H 1.2248 0.3709 0.2483
C53 C 1.1872(6) 0.4122(6) 0.2414(3)
H24 H 1.1793 0.4035 0.2194
C54 C 1.2493(10) 0.3808(9) 0.3117(4)
Zn1A Zn 1.29247(5) 1.27039(7) 0.35775(3)
Zn1B Zn 0.72961(7) 1.02208(5) -0.30891(3)
Zn1B_2 Zn 0.72961(7) 0.02208(5) -0.30891(3)
Zn2A Zn 0.40425(5) 0.37000(7) 0.35851(3)
Zn2B Zn 0.63000(7) 0.03425(5) -0.30815(3)
Zn2B_2 Zn 1.63000(7) 1.03425(5) -0.30815(3)
Zn2A_2 Zn 1.40425(5) 1.37000(7) 0.35851(3)
Zn3A Zn 1.33106(6) 1.34881(8) 0.29859(4)
Zn3A_2 Zn 0.33106(6) 0.34881(8) 0.29859(4)
Zn3A_3 Zn 1.33106(6) 0.34881(8) 0.29859(4)
Zn4B Zn 0.61651(8) 0.92211(6) -0.30164(4)
Zn4A Zn 1.30560(6) 0.38349(8) 0.36502(4)
Zn4B_2 Zn 1.61651(8) 0.92211(6) -0.30164(4)
Zn4A_2 Zn 1.30560(6) 1.38349(8) 0.36502(4)
O1A O 1.3338(3) 1.3421(4) 0.34576(16)
O1A_2 O 0.3338(3) 0.3421(4) 0.34576(16)
O1B O 0.6579(4) 0.9917(3) -0.32090(16)
O2A O 1.2770(3) 1.2190(4) 0.32315(18)
O3A O 1.2954(3) 1.2765(4) 0.28271(17)
O4A O 1.0823(4) 0.7505(5) 0.0603(2)
O5A O 1.0264(3) 0.7742(4) 0.0439(2)
O5B O 1.2258(4) 1.2522(3) 0.3773(2)
C1A C 1.2825(5) 1.2312(7) 0.2940(2)
C2A C 1.2653(4) 1.1882(5) 0.27059(17)
C3A C 1.2506(4) 1.1379(5) 0.28054(14)
H1A H 1.2507 1.1305 0.3026
C4A C 1.2356(4) 1.0981(5) 0.2581(2)
H2A H 1.2256 1.0637 0.2649
C5A C 1.2354(4) 1.1088(6) 0.22570(18)
C6A C 1.2502(4) 1.1593(6) 0.21575(14)
H3A H 1.2500 1.1665 0.1936
C7A C 1.2651(4) 1.1989(5) 0.23819(18)
H4A H 1.2752 1.2334 0.2314
C8A C 1.2163(6) 1.0663(8) 0.2027(3)
C9A C 1.2013(7) 1.0339(10) 0.1825(4)
C10A C 1.1824(8) 0.9963(11) 0.1593(4)
C11A C 1.1634(7) 0.9597(9) 0.1413(4)
C12A C 1.1415(3) 0.9162(5) 0.1193(2)
C13A C 1.1526(3) 0.8759(4) 0.12249(19)
H5A H 1.1774 0.8785 0.1379
C14A C 1.1277(4) 0.8321(5) 0.1029(2)
H6A H 1.1353 0.8046 0.1051
C15A C 1.0915(3) 0.8285(4) 0.0803(2)
C16A C 1.0803(3) 0.8687(4) 0.07720(19)
H7A H 1.0556 0.8662 0.0617
C17A C 1.1053(4) 0.9126(5) 0.0967(2)
H8A H 1.0977 0.9401 0.0945
C18A C 1.0658(5) 0.7816(6) 0.0591(3)
O6B O 0.7456(4) 0.0766(3) -0.27671(18)
O6A O 1.3310(3) 1.2544(4) 0.38995(18)
O7B O 0.6874(4) 0.0994(3) -0.28945(18)
O7A O 0.4120(3) 0.3126(4) 0.37721(18)
O8B O 0.9414(5) 0.5411(3) -0.0079(2)
O9B O 0.9627(5) 0.5974(3) -0.0482(2)
O9_2 O 1.4026(3) 1.3653(4) 0.2851(2)
C19B C 0.7278(6) 0.1073(4) -0.2753(2)
C20B C 0.7543(4) 0.1535(2) -0.25428(16)
C21B C 0.7386(4) 0.1907(3) -0.25425(17)
H9B H 0.7119 0.1872 -0.2685
C22B C 0.7618(4) 0.2330(3) -0.2334(2)
H10B H 0.7511 0.2584 -0.2333
C23B C 0.8008(4) 0.2381(3) -0.21257(18)
C24B C 0.8166(4) 0.2010(3) -0.21259(18)
H11B H 0.8433 0.2045 -0.1983
C25B C 0.7934(4) 0.1587(3) -0.23345(19)
H12B H 0.8041 0.1333 -0.2334
C26B C 0.8229(7) 0.2820(5) -0.1906(3)
C27B C 0.8344(7) 0.3147(5) -0.1705(3)
C28B C 0.8518(8) 0.3545(5) -0.1494(3)
C29B C 0.8655(8) 0.3873(5) -0.1292(3)
C30B C 0.8781(5) 0.4272(3) -0.10474(17)
C31B C 0.8895(5) 0.4771(3) -0.11370(14)
H13B H 0.8839 0.4838 -0.1351
C32B C 0.9092(4) 0.5173(2) -0.09127(19)
H14B H 0.9170 0.5514 -0.0974
C33B C 0.9174(4) 0.5075(3) -0.05987(17)
C34B C 0.9059(4) 0.4575(3) -0.05091(15)
H15B H 0.9115 0.4508 -0.0294
C35B C 0.8863(4) 0.4174(2) -0.07335(19)
H16B H 0.8784 0.3832 -0.0672
C36B C 0.9431(6) 0.5511(4) -0.0367(3)
O10B O 1.5802(6) 1.0058(4) -0.2733(2)
O10A O 0.4256(4) 0.4198(6) 0.3933(2)
O11B O 1.5830(7) 0.9361(5) -0.2646(3)
O11B_2 O 0.5830(7) 0.9361(5) -0.2646(3)
O12B O 1.1358(8) 0.7371(5) 0.0051(3)
O12A O 0.6013(6) 0.8642(8) -0.3283(3)
O13B O 1.0897(11) 0.7361(8) -0.0360(4)
O13_2 O 1.2639(8) 1.3536(8) 0.2973(4)
C37B C 1.5737(9) 0.9711(7) -0.2557(4)
C38B C 1.5341(7) 0.9532(5) -0.2301(3)
C39B C 1.5256(8) 0.9125(6) -0.2097(4)
H17B H 1.5414 0.8919 -0.2141
C40B C 1.4940(8) 0.9018(6) -0.1829(3)
H18B H 1.4882 0.8739 -0.1690
C41B C 1.4709(9) 0.9318(7) -0.1764(3)
C42B C 1.4794(8) 0.9726(6) -0.1968(4)
H19B H 1.4636 0.9931 -0.1923
C43B C 1.5110(7) 0.9833(5) -0.2236(3)
H20B H 1.5169 1.0112 -0.2375
C44B C 1.4329(13) 0.9136(10) -0.1511(5)
C45B C 1.3928(16) 0.8959(11) -0.1367(7)
C46B C 1.3507(16) 0.8610(11) -0.1181(7)
C47B C 1.3194(16) 0.8522(11) -0.0961(5)
C48B C 1.2726(9) 0.8283(6) -0.0769(4)
C49B C 1.2739(8) 0.8168(6) -0.0447(4)
H21B H 1.3064 0.8274 -0.0345
C50B C 1.2275(9) 0.7898(7) -0.0276(3)
H22B H 1.2283 0.7819 -0.0056
C51B C 1.1799(9) 0.7743(6) -0.0426(4)
C52B C 1.1787(8) 0.7858(6) -0.0747(4)
H23B H 1.1461 0.7752 -0.0850
C53B C 1.2250(8) 0.8128(6) -0.0919(3)
H24B H 1.2242 0.8207 -0.1139
C54B C 1.1315(13) 0.7507(10) -0.0216(4)
Zn5 Zn 0.62473(5) 0.93480(5) 0.01851(3)
Zn6 Zn 0.62938(5) 1.04537(5) 0.01110(3)
Zn7 Zn 0.73480(5) 1.03649(5) 0.02086(3)
Zn8 Zn 0.67131(5) 1.00142(5) -0.04285(3)
O14 O 0.6645(3) 1.0043(3) 0.00314(16)
O15 O 0.5611(3) 0.9189(3) 0.04026(19)
O16 O 0.5890(3) 1.0027(3) 0.0496(2)
O17 O 0.0706(3) 0.7010(3) 0.27614(18)
O18 O 0.1213(3) 0.7256(3) 0.32032(17)
C55 C 0.5582(4) 0.9546(4) 0.0536(3)
C56 C 0.5129(3) 0.9390(4) 0.0764(2)
C57 C 0.5122(4) 0.9750(3) 0.0974(3)
H25 H 0.5400 1.0103 0.0973
C58 C 0.4709(4) 0.9595(4) 0.1188(2)
H26 H 0.4704 0.9842 0.1332
C59 C 0.4303(4) 0.9079(4) 0.1190(3)
C60 C 0.4311(3) 0.8718(3) 0.0980(3)
H27 H 0.4033 0.8366 0.0981
C61 C 0.4724(4) 0.8874(3) 0.0766(2)
H28 H 0.4729 0.8627 0.0622
C62 C 0.3925(6) 0.8908(7) 0.1446(4)
C63 C 0.3576(7) 0.8683(7) 0.1629(4)
C64 C 0.3242(6) 0.8489(7) 0.1887(4)
C65 C 0.2901(5) 0.8281(6) 0.2077(3)
C66 C 0.2461(3) 0.7977(3) 0.22809(18)
C67 C 0.2529(2) 0.8052(3) 0.26099(19)
H29 H 0.2867 0.8277 0.2695
C68 C 0.2102(3) 0.7798(3) 0.28139(14)
H30 H 0.2148 0.7849 0.3039
C69 C 0.1607(2) 0.7468(3) 0.26890(17)
C70 C 0.1539(2) 0.7393(3) 0.23600(18)
H31 H 0.1201 0.7167 0.2275
C71 C 0.1966(3) 0.7647(4) 0.21560(14)
H32 H 0.1920 0.7595 0.1931
C72 C 0.1143(4) 0.7232(5) 0.2906(2)
O19 O 0.6664(3) 0.9212(3) 0.05034(18)
O20 O 0.7483(3) 0.9863(3) 0.04332(18)
O21 O 0.9328(3) 0.7244(3) 0.32252(19)
O22 O 0.9815(3) 0.7258(3) 0.28133(19)
C73 C 0.7147(4) 0.9434(4) 0.0556(3)
C74 C 0.7333(3) 0.9173(3) 0.07792(18)
C75 C 0.7865(3) 0.9377(3) 0.0828(2)
H33 H 0.8111 0.9675 0.0711
C76 C 0.8039(3) 0.9145(3) 0.1050(2)
H34 H 0.8403 0.9285 0.1083
C77 C 0.7679(4) 0.8710(3) 0.12214(19)
C78 C 0.7147(3) 0.8505(3) 0.1172(2)
H35 H 0.6901 0.8208 0.1290
C79 C 0.6973(2) 0.8737(3) 0.0951(2)
H36 H 0.6609 0.8597 0.0917
C80 C 0.7856(6) 0.8463(6) 0.1449(3)
C81 C 0.8043(6) 0.8314(5) 0.1645(3)
C82 C 0.8251(6) 0.8152(6) 0.1871(3)
C83 C 0.8440(6) 0.7999(6) 0.2071(3)
C84 C 0.8730(3) 0.7879(3) 0.23026(16)
C85 C 0.9143(3) 0.7818(4) 0.21986(14)
H37 H 0.9258 0.7893 0.1983
C86 C 0.9388(3) 0.7646(4) 0.24105(17)
H38 H 0.9670 0.7604 0.2339
C87 C 0.9220(3) 0.7536(3) 0.27266(16)
C88 C 0.8807(3) 0.7597(3) 0.28306(13)
H39 H 0.8692 0.7522 0.3047
C89 C 0.8562(3) 0.7769(3) 0.26186(18)
H40 H 0.8280 0.7811 0.2690
C90 C 0.9483(4) 0.7337(4) 0.2937(2)
O23 O 0.9049(3) 1.5760(3) 0.3009(2)
O24 O 0.9592(4) 1.6162(4) 0.2603(2)
O25 O 0.6844(3) 1.1036(3) 0.0381(2)
O26 O 0.7473(3) 1.0874(3) 0.05381(18)
C91 C 0.9214(6) 1.5771(5) 0.2743(3)
C92 C 0.8988(4) 1.5271(3) 0.2555(2)
C93 C 0.9258(4) 1.5210(3) 0.2302(2)
H41 H 0.9590 1.5491 0.2240
C94 C 0.9042(4) 1.4738(4) 0.2138(2)
H42 H 0.9226 1.4696 0.1965
C95 C 0.8556(4) 1.4326(4) 0.2228(2)
C96 C 0.8287(4) 1.4388(3) 0.2481(2)
H43 H 0.7955 1.4107 0.2543
C97 C 0.8503(4) 1.4860(3) 0.26455(19)
H44 H 0.8318 1.4901 0.2818
C98 C 0.8372(7) 1.3859(7) 0.2040(4)
C99 C 0.8177(8) 1.3455(8) 0.1893(5)
C100 C 0.8004(8) 1.2999(8) 0.1731(5)
C101 C 0.7858(7) 1.2674(7) 0.1521(4)
C102 C 0.7698(4) 1.2276(4) 0.1276(2)
C103 C 0.7999(4) 1.2046(4) 0.1208(2)
H45 H 0.8315 1.2152 0.1322
C104 C 0.7836(3) 1.1660(4) 0.0975(2)
H46 H 0.8042 1.1504 0.0928
C105 C 0.7373(3) 1.1505(4) 0.08096(18)
C106 C 0.7073(3) 1.1735(3) 0.0877(2)
H47 H 0.6756 1.1628 0.0764
C107 C 0.7235(3) 1.2120(4) 0.1111(2)
H48 H 0.7030 1.2278 0.1157
C108 C 0.7228(4) 1.1116(5) 0.0548(3)
O27 O 0.5715(3) 0.9912(3) -0.02148(19)
N1 N 0.5027(3) 0.9647(4) -0.0550(2)
C109 C 0.5320(3) 0.9923(3) -0.0307(2)
H49 H 0.5224 1.0144 -0.0196
C110 C 0.5169(5) 0.9321(6) -0.0736(3)
H50 H 0.4910 0.9145 -0.0906
H51 H 0.5177 0.9059 -0.0596
H52 H 0.5515 0.9539 -0.0832
C111 C 0.4579(5) 0.9690(7) -0.0657(4)
H53 H 0.4412 0.9455 -0.0839
H54 H 0.4697 1.0051 -0.0722
H55 H 0.4327 0.9591 -0.0481
O28 O 0.5882(4) 1.0821(4) 0.0102(2)
N2 N 0.5840(6) 1.1564(4) 0.0105(3)
C112 C 0.6066(4) 1.1289(4) 0.0175(3)
H56 H 0.6388 1.1457 0.0288
C113 C 0.5359(8) 1.1332(7) -0.0079(6)
H57 H 0.5246 1.1590 -0.0109
H58 H 0.5087 1.1028 0.0036
H59 H 0.5418 1.1221 -0.0288
C114 C 0.6083(9) 1.2119(4) 0.0186(5)
H60 H 0.5857 1.2254 0.0114
H61 H 0.6423 1.2312 0.0078
H62 H 0.6133 1.2163 0.0418
Zn5B Zn 0.31007(7) 0.37527(5) -0.31482(3)
Zn5A Zn 0.06520(5) 0.68993(7) 0.35184(3)
Zn5B_2 Zn 1.31007(7) 1.37527(5) -0.31482(3)
Zn6B Zn 0.41599(7) 0.37062(5) -0.32223(3)
Zn6A Zn 0.95463(5) 1.58401(7) 0.34443(3)
Zn6B_2 Zn 0.41599(7) 1.37062(5) -0.32223(3)
Zn7A Zn 0.96351(5) 0.69831(7) 0.35419(3)
Zn7B Zn 0.30169(7) 1.26520(5) -0.31247(3)
Zn7B_2 Zn 1.30169(7) 1.26520(5) -0.31247(3)
Zn7B_3 Zn 0.30169(7) 0.26520(5) -0.31247(3)
Zn8A Zn -0.00142(5) 0.66989(7) 0.29048(3)
Zn8A_2 Zn 0.99858(5) 0.66989(7) 0.29048(3)
Zn8A_3 Zn 0.99858(5) 1.66989(7) 0.29048(3)
Zn8B Zn 0.33011(7) 0.32869(5) -0.37618(3)
O14B O 0.3398(4) 0.3355(3) -0.33019(16)
O14A O 0.9957(3) 0.6602(4) 0.33647(16)
O14A_2 O -0.0043(3) 0.6602(4) 0.33647(16)
O15B O 0.3578(4) 0.4389(3) -0.29307(19)
O16B O 0.4137(4) 0.4110(3) -0.2837(2)
O17B O 0.6304(4) 0.9294(3) -0.05719(18)
O18B O 0.6043(4) 0.8787(3) -0.01301(17)
O18A O 0.2744(3) 0.3957(4) -0.34635(17)
C55B C 0.3964(6) 0.4418(4) -0.2797(3)
C56B C 0.4261(5) 0.4871(3) -0.2569(2)
C57B C 0.4628(5) 0.4878(4) -0.2359(3)
H25B H 0.4703 0.4600 -0.2360
C58B C 0.4886(6) 0.5291(4) -0.2145(2)
H26B H 0.5138 0.5296 -0.2001
C59B C 0.4776(6) 0.5697(4) -0.2143(3)
C60B C 0.4407(4) 0.5689(3) -0.2353(3)
H27B H 0.4333 0.5967 -0.2352
C61B C 0.4150(5) 0.5276(4) -0.2567(2)
H28B H 0.3898 0.5271 -0.2711
C62B C 0.4983(9) 0.6075(6) -0.1887(4)
C63B C 0.5107(10) 0.6424(7) -0.1704(4)
C64B C 0.5247(9) 0.6758(6) -0.1446(4)
C65B C 0.5380(8) 0.7099(5) -0.1256(3)
C66B C 0.5516(4) 0.7539(3) -0.10524(18)
C67B C 0.5523(4) 0.7471(2) -0.07234(19)
H29B H 0.5410 0.7133 -0.0638
C68B C 0.5696(4) 0.7898(3) -0.05194(14)
H30B H 0.5701 0.7852 -0.0294
C69B C 0.5861(4) 0.8393(2) -0.06443(17)
C70B C 0.5854(4) 0.8461(2) -0.09733(18)
H31B H 0.5966 0.8799 -0.1058
C71B C 0.5681(5) 0.8034(3) -0.11773(14)
H32B H 0.5675 0.8080 -0.1402
C72B C 0.6089(6) 0.8857(4) -0.0427(2)
O19B O 1.2548(4) 1.3336(3) -0.28299(18)
O19B_2 O 0.2548(4) 0.3336(3) -0.28299(18)
O20B O 1.2380(4) 1.2517(3) -0.29001(18)
O20A O 1.0137(3) 0.7620(4) 0.37665(18)
O21B O 0.7916(4) 1.0672(3) -0.01081(19)
O22B O 0.7443(4) 1.0185(3) -0.05200(19)
O22_2 O -0.0185(3) 0.7258(3) 0.28133(19)
C73B C 1.2287(6) 1.2853(4) -0.2777(3)
C74B C 1.1840(4) 1.2667(3) -0.25541(18)
C75B C 1.1512(4) 1.2135(3) -0.2505(2)
H33B H 1.1564 1.1889 -0.2622
C76B C 1.1106(4) 1.1961(3) -0.2283(2)
H34B H 1.0882 1.1597 -0.2250
C77B C 1.1031(5) 1.2321(4) -0.21119(19)
C78B C 1.1358(4) 1.2853(3) -0.2161(2)
H35B H 1.1307 1.3099 -0.2043
C79B C 1.1764(4) 1.3027(2) -0.2382(2)
H36B H 1.1988 1.3391 -0.2416
C80B C 1.0607(8) 1.2144(6) -0.1884(3)
C81B C 1.0271(8) 1.1957(6) -0.1688(3)
C82B C 0.9901(8) 1.1749(6) -0.1462(3)
C83B C 0.9559(8) 1.1560(6) -0.1262(3)
C84B C 0.9149(4) 1.1270(3) -0.10307(16)
C85B C 0.8675(5) 1.0857(3) -0.11347(14)
H37B H 0.8635 1.0742 -0.1350
C86B C 0.8258(5) 1.0612(3) -0.09228(17)
H38B H 0.7934 1.0330 -0.0994
C87B C 0.8316(4) 1.0780(3) -0.06067(16)
C88B C 0.8790(4) 1.1193(3) -0.05027(13)
H39B H 0.8830 1.1308 -0.0286
C89B C 0.9207(4) 1.1438(3) -0.07147(18)
H40B H 0.9531 1.1720 -0.0643
C90B C 0.7854(6) 1.0517(4) -0.0396(2)
O23B O 0.6711(4) 1.0951(3) -0.0324(2)
O23A O 0.4240(3) 0.3289(4) -0.3658(2)
O24B O 0.6570(6) 1.0408(4) -0.0730(2)
O24_2 O -0.0408(4) 0.6162(4) 0.2603(2)
O25B O 0.4192(4) 1.3156(3) -0.2952(2)
O25B_2 O 0.4192(4) 0.3156(3) -0.2952(2)
O26B O 0.3401(4) 1.2527(3) -0.27952(18)
O26A O 0.9126(3) 0.6599(4) 0.38714(18)
C91B C 0.6557(8) 1.0786(6) -0.0590(3)
C92B C 0.6283(5) 1.1012(4) -0.0778(2)
C93B C 0.5952(5) 1.0742(4) -0.1031(2)
H41B H 0.5901 1.0410 -0.1093
C94B C 0.5696(6) 1.0958(4) -0.1195(2)
H42B H 0.5470 1.0774 -0.1368
C95B C 0.5770(6) 1.1444(4) -0.1105(2)
C96B C 0.6101(5) 1.1713(4) -0.0852(2)
H43B H 0.6152 1.2045 -0.0790
C97B C 0.6357(5) 1.1497(4) -0.06878(19)
H44B H 0.6583 1.1682 -0.0515
C98B C 0.5487(10) 1.1628(7) -0.1293(4)
C99B C 0.5278(11) 1.1823(8) -0.1440(5)
C100B C 0.4995(11) 1.1996(8) -0.1602(5)
C101B C 0.4816(10) 1.2142(7) -0.1812(4)
C102B C 0.4578(6) 1.2302(4) -0.2057(2)
C103B C 0.4047(6) 1.2001(4) -0.2125(2)
H45B H 0.3837 1.1685 -0.2011
C104B C 0.3824(5) 1.2164(3) -0.2358(2)
H46B H 0.3462 1.1958 -0.2405
C105B C 0.4132(5) 1.2627(3) -0.25237(18)
C106B C 0.4662(4) 1.2927(3) -0.2456(2)
H47B H 0.4872 1.3244 -0.2569
C107B C 0.4885(5) 1.2765(3) -0.2222(2)
H48B H 0.5248 1.2970 -0.2176
C108B C 0.3888(6) 1.2772(4) -0.2785(3)
O27B O 0.4197(4) 0.4285(3) -0.35481(19)
N1B N 0.4620(5) 0.4973(3) -0.3883(2)
C109B C 0.4603(4) 0.4680(3) -0.3640(2)
H49B H 0.4920 0.4776 -0.3529
C110B C 0.4152(8) 0.4831(5) -0.4069(3)
H50B H 0.4235 0.5090 -0.4239
H51B H 0.3882 0.4823 -0.3929
H52B H 0.4024 0.4485 -0.4165
C111B C 0.5111(9) 0.5421(5) -0.3990(4)
H53B H 0.5043 0.5588 -0.4172
H54B H 0.5354 0.5303 -0.4055
H55B H 0.5264 0.5673 -0.3814
O28B O 0.4939(6) 0.4118(4) -0.3231(2)
N2B N 0.5724(7) 0.4160(6) -0.3228(3)
C112B C 0.5223(6) 0.3934(4) -0.3158(3)
H56B H 0.5069 0.3612 -0.3045
C113B C 0.5973(11) 0.4641(8) -0.3412(6)
H57B H 0.6344 0.4754 -0.3442
H58B H 0.5941 0.4913 -0.3297
H59B H 0.5803 0.4582 -0.3621
C114B C 0.6036(10) 0.3917(9) -0.3147(5)
H60B H 0.6397 0.4143 -0.3219
H61B H 0.5889 0.3577 -0.3255
H62B H 0.6030 0.3867 -0.2915
O29 O 0.7317(4) 0.2446(5) 0.0025(3)
N3 N 0.7961(3) 0.2254(3) 0.00957(18)
C115 C 0.7507(3) 0.2158(4) -0.0020(2)
H63 H 0.7312 0.1851 -0.0145
C116 C 0.8283(4) 0.2729(4) 0.0277(4)
H64 H 0.8606 0.2737 0.0344
H65 H 0.8091 0.2736 0.0466
H66 H 0.8371 0.3034 0.0142
C117 C 0.8176(5) 0.1914(5) 0.0026(4)
H67 H 0.8515 0.2050 0.0133
H68 H 0.8222 0.1903 -0.0206
H69 H 0.7936 0.1560 0.0104
O30 O 0.1001(3) 0.7299(5) 0.1637(3)
N4 N 0.0126(4) 0.6888(4) 0.1564(3)
C118 C 0.0612(4) 0.7147(4) 0.1461(2)
H70 H 0.0669 0.7221 0.1238
C119 C 0.0017(4) 0.6746(8) 0.1900(3)
H71 H -0.0362 0.6556 0.1935
H72 H 0.0179 0.7062 0.2032
H73 H 0.0161 0.6521 0.1959
C120 C -0.0318(5) 0.6700(7) 0.1345(4)
H74 H -0.0644 0.6518 0.1467
H75 H -0.0304 0.6459 0.1190
H76 H -0.0303 0.6997 0.1232
O31 O 0.7532(8) 0.8766(4) 0.0000
O32 O 0.3428(9) -0.0016(8) 0.1875(7)
O33 O 0.7497(12) 0.3365(12) 0.0681(8)
O34 O 0.6375(11) 0.3310(12) 0.0552(7)
O35 O 0.2820(19) 0.7017(18) 0.2203(11)
O36 O 0.960(2) 0.8686(19) 0.3406(12)
O37 O 0.3837(19) 0.7760(18) 0.3199(12)
O38 O 1.1228(17) 0.5316(17) 0.0401(10)
O39 O 0.9676(12) 0.4083(11) 0.1846(7)
O40 O 0.9496(18) 0.8995(18) -0.1921(11)
O41 O 0.941(2) 0.965(2) 0.2740(14)
O43 O 0.6780(7) 0.3220(7) 0.8333
O44 O 0.3181(17) -0.0026(16) 0.0335(11)
O45 O 0.307(2) -0.0627(19) -0.0299(12)
loop_
_geom_bond_atom_site_label_1
_geom_bond_atom_site_label_2
_geom_bond_site_symmetry_1
_geom_bond_site_symmetry_2
Zn1 O1 1_555 1_555
Zn2 O1 1_555 1_555
Zn3 O1 1_555 1_555
Zn4 O1 1_555 1_555
O2 Zn1 1_555 1_555
O3 Zn3 1_555 1_555
O4 C18 1_555 1_555
O5 C18 1_555 1_555
C1 O2 1_555 1_555
C2 C1 1_555 1_555
C3 C2 1_555 1_555
H1 C3 1_555 1_555
C4 C3 1_555 1_555
H2 C4 1_555 1_555
C5 C4 1_555 1_555
C6 C5 1_555 1_555
H3 C6 1_555 1_555
C7 C2 1_555 1_555
H4 C7 1_555 1_555
C8 C5 1_555 1_555
C9 C8 1_555 1_555
C10 C9 1_555 1_555
C11 C10 1_555 1_555
C12 C11 1_555 1_555
C13 C12 1_555 1_555
H5 C13 1_555 1_555
C14 C13 1_555 1_555
H6 C14 1_555 1_555
C15 C14 1_555 1_555
C16 C15 1_555 1_555
H7 C16 1_555 1_555
C17 C12 1_555 1_555
H8 C17 1_555 1_555
C18 C15 1_555 1_555
O6 Zn1 1_555 1_555
O7 Zn2 1_555 1_555
O8 C36 1_555 1_555
O9 C36 1_555 1_555
C19 O6 1_555 1_555
C20 C19 1_555 1_555
C21 C20 1_555 1_555
H9 C21 1_555 1_555
C22 C21 1_555 1_555
H10 C22 1_555 1_555
C23 C22 1_555 1_555
C24 C23 1_555 1_555
H11 C24 1_555 1_555
C25 C20 1_555 1_555
H12 C25 1_555 1_555
C26 C23 1_555 1_555
C27 C26 1_555 1_555
C28 C27 1_555 1_555
C29 C28 1_555 1_555
C30 C29 1_555 1_555
C31 C30 1_555 1_555
H13 C31 1_555 1_555
C32 C31 1_555 1_555
H14 C32 1_555 1_555
C33 C32 1_555 1_555
C34 C33 1_555 1_555
H15 C34 1_555 1_555
C35 C30 1_555 1_555
H16 C35 1_555 1_555
C36 C33 1_555 1_555
O10 Zn2 1_555 1_555
O11 Zn4 1_555 1_555
O12 C54 1_555 1_555
O13 C54 1_555 1_555
C37 O10 1_555 1_555
C38 C37 1_555 1_555
C39 C38 1_555 1_555
H17 C39 1_555 1_555
C40 C39 1_555 1_555
H18 C40 1_555 1_555
C41 C40 1_555 1_555
C42 C41 1_555 1_555
H19 C42 1_555 1_555
C43 C38 1_555 1_555
H20 C43 1_555 1_555
C44 C41 1_555 1_555
C45 C44 1_555 1_555
C46 C45 1_555 1_555
C47 C46 1_555 1_555
C48 C47 1_555 1_555
C49 C48 1_555 1_555
H21 C49 1_555 1_555
C50 C49 1_555 1_555
H22 C50 1_555 1_555
C51 C50 1_555 1_555
C52 C51 1_555 1_555
H23 C52 1_555 1_555
C53 C48 1_555 1_555
H24 C53 1_555 1_555
C54 C51 1_555 1_555
Zn5 O14 1_555 1_555
Zn6 O14 1_555 1_555
Zn7 O14 1_555 1_555
Zn8 O14 1_555 1_555
O15 Zn5 1_555 1_555
O16 Zn6 1_555 1_555
O17 C72 1_555 1_555
O18 C72 1_555 1_555
C55 O15 1_555 1_555
C56 C55 1_555 1_555
C57 C56 1_555 1_555
H25 C57 1_555 1_555
C58 C57 1_555 1_555
H26 C58 1_555 1_555
C59 C58 1_555 1_555
C60 C59 1_555 1_555
H27 C60 1_555 1_555
C61 C56 1_555 1_555
H28 C61 1_555 1_555
C62 C59 1_555 1_555
C63 C62 1_555 1_555
C64 C63 1_555 1_555
C65 C64 1_555 1_555
C66 C65 1_555 1_555
C67 C66 1_555 1_555
H29 C67 1_555 1_555
C68 C67 1_555 1_555
H30 C68 1_555 1_555
C69 C68 1_555 1_555
C70 C69 1_555 1_555
H31 C70 1_555 1_555
C71 C66 1_555 1_555
H32 C71 1_555 1_555
C72 C69 1_555 1_555
O19 Zn5 1_555 1_555
O20 Zn7 1_555 1_555
O21 C90 1_555 1_555
O22 C90 1_555 1_555
C73 O19 1_555 1_555
C74 C73 1_555 1_555
C75 C74 1_555 1_555
H33 C75 1_555 1_555
C76 C75 1_555 1_555
H34 C76 1_555 1_555
C77 C76 1_555 1_555
C78 C77 1_555 1_555
H35 C78 1_555 1_555
C79 C74 1_555 1_555
H36 C79 1_555 1_555
C80 C77 1_555 1_555
C81 C80 1_555 1_555
C82 C81 1_555 1_555
C83 C82 1_555 1_555
C84 C83 1_555 1_555
C85 C84 1_555 1_555
H37 C85 1_555 1_555
C86 C85 1_555 1_555
H38 C86 1_555 1_555
C87 C86 1_555 1_555
C88 C87 1_555 1_555
H39 C88 1_555 1_555
C89 C84 1_555 1_555
H40 C89 1_555 1_555
C90 C87 1_555 1_555
O23 C91 1_555 1_555
O24 C91 1_555 1_555
O25 Zn6 1_555 1_555
O26 Zn7 1_555 1_555
C91 C92 1_555 1_555
C92 C93 1_555 1_555
C93 H41 1_555 1_555
C94 C93 1_555 1_555
H42 C94 1_555 1_555
C95 C94 1_555 1_555
C96 C95 1_555 1_555
H43 C96 1_555 1_555
C97 C92 1_555 1_555
H44 C97 1_555 1_555
C98 C95 1_555 1_555
C99 C98 1_555 1_555
C100 C99 1_555 1_555
C101 C100 1_555 1_555
C102 C101 1_555 1_555
C103 C102 1_555 1_555
H45 C103 1_555 1_555
C104 C103 1_555 1_555
H46 C104 1_555 1_555
C105 C104 1_555 1_555
C106 C105 1_555 1_555
H47 C106 1_555 1_555
C107 C102 1_555 1_555
H48 C107 1_555 1_555
C108 O25 1_555 1_555
O27 Zn6 1_555 1_555
N1 C109 1_555 1_555
C109 O27 1_555 1_555
H49 C109 1_555 1_555
C110 N1 1_555 1_555
H50 C110 1_555 1_555
H51 C110 1_555 1_555
H52 C110 1_555 1_555
C111 N1 1_555 1_555
H53 C111 1_555 1_555
H54 C111 1_555 1_555
H55 C111 1_555 1_555
O28 Zn6 1_555 1_555
N2 C112 1_555 1_555
C112 O28 1_555 1_555
H56 C112 1_555 1_555
C113 N2 1_555 1_555
H57 C113 1_555 1_555
H58 C113 1_555 1_555
H59 C113 1_555 1_555
C114 N2 1_555 1_555
H60 C114 1_555 1_555
H61 C114 1_555 1_555
H62 C114 1_555 1_555
O29 C115 1_555 1_555
N3 C115 1_555 1_555
C115 H63 1_555 1_555
C116 N3 1_555 1_555
H64 C116 1_555 1_555
H65 C116 1_555 1_555
H66 C116 1_555 1_555
C117 N3 1_555 1_555
H67 C117 1_555 1_555
H68 C117 1_555 1_555
H69 C117 1_555 1_555
O30 C118 1_555 1_555
N4 C118 1_555 1_555
C118 H70 1_555 1_555
C119 N4 1_555 1_555
H71 C119 1_555 1_555
H72 C119 1_555 1_555
H73 C119 1_555 1_555
C120 N4 1_555 1_555
H74 C120 1_555 1_555
H75 C120 1_555 1_555
H76 C120 1_555 1_555
Zn1A O1A 1_555 1_555
Zn1B O5 1_555 1_555
Zn1B_2 O6B 1_555 1_555
Zn2A O8 1_555 1_555
Zn2B O7B 1_555 1_555
Zn2B_2 O10B 1_555 1_555
Zn2A_2 O1A 1_555 1_555
Zn3A O1A 1_555 1_555
Zn3A_2 O9 1_555 1_555
Zn3A_3 O13 1_555 1_555
Zn4B O4 1_555 1_555
Zn4A O12 1_555 1_555
Zn4B_2 O11B 1_555 1_555
Zn4A_2 O1A 1_555 1_555
O1A_2 Zn2A 1_555 1_555
O1B Zn1B 1_555 1_555
O2A Zn1A 1_555 1_555
O3A Zn3A 1_555 1_555
O4A Zn4 1_555 1_555
O5A Zn1 1_555 1_555
O5B Zn1A 1_555 1_555
C1A O2A 1_555 1_555
C2A C1A 1_555 1_555
C3A C2A 1_555 1_555
H1A C3A 1_555 1_555
C4A C3A 1_555 1_555
H2A C4A 1_555 1_555
C5A C4A 1_555 1_555
C6A C5A 1_555 1_555
H3A C6A 1_555 1_555
C7A C2A 1_555 1_555
H4A C7A 1_555 1_555
C8A C5A 1_555 1_555
C9A C8A 1_555 1_555
C10A C9A 1_555 1_555
C11A C10A 1_555 1_555
C12A C11A 1_555 1_555
C13A C12A 1_555 1_555
H5A C13A 1_555 1_555
C14A C13A 1_555 1_555
H6A C14A 1_555 1_555
C15A C14A 1_555 1_555
C16A C15A 1_555 1_555
H7A C16A 1_555 1_555
C17A C12A 1_555 1_555
H8A C17A 1_555 1_555
C18A O4A 1_555 1_555
O6B C19B 1_555 1_555
O6A Zn1A 1_555 1_555
O7B C19B 1_555 1_555
O7A Zn2A 1_555 1_555
O8B Zn2 1_555 1_555
O9B Zn3 1_555 1_555
O9_2 Zn3A 1_555 1_555
C19B C20B 1_555 1_555
C20B C21B 1_555 1_555
C21B H9B 1_555 1_555
C22B C21B 1_555 1_555
H10B C22B 1_555 1_555
C23B C22B 1_555 1_555
C24B C23B 1_555 1_555
H11B C24B 1_555 1_555
C25B C20B 1_555 1_555
H12B C25B 1_555 1_555
C26B C23B 1_555 1_555
C27B C26B 1_555 1_555
C28B C27B 1_555 1_555
C29B C28B 1_555 1_555
C30B C29B 1_555 1_555
C31B C30B 1_555 1_555
H13B C31B 1_555 1_555
C32B C31B 1_555 1_555
H14B C32B 1_555 1_555
C33B C32B 1_555 1_555
C34B C33B 1_555 1_555
H15B C34B 1_555 1_555
C35B C30B 1_555 1_555
H16B C35B 1_555 1_555
C36B O8B 1_555 1_555
O10B C37B 1_555 1_555
O10A Zn2A 1_555 1_555
O11B C37B 1_555 1_555
O11B_2 Zn4B 1_555 1_555
O12B Zn4 1_555 1_555
O12A Zn4B 1_555 1_555
O13B Zn3 1_555 1_555
O13_2 Zn3A 1_555 1_555
C37B C38B 1_555 1_555
C38B C39B 1_555 1_555
C39B H17B 1_555 1_555
C40B C39B 1_555 1_555
H18B C40B 1_555 1_555
C41B C40B 1_555 1_555
C42B C41B 1_555 1_555
H19B C42B 1_555 1_555
C43B C38B 1_555 1_555
H20B C43B 1_555 1_555
C44B C41B 1_555 1_555
C45B C44B 1_555 1_555
C46B C45B 1_555 1_555
C47B C46B 1_555 1_555
C48B C47B 1_555 1_555
C49B C48B 1_555 1_555
H21B C49B 1_555 1_555
C50B C49B 1_555 1_555
H22B C50B 1_555 1_555
C51B C50B 1_555 1_555
C52B C51B 1_555 1_555
H23B C52B 1_555 1_555
C53B C48B 1_555 1_555
H24B C53B 1_555 1_555
C54B O12B 1_555 1_555
Zn5B O14B 1_555 1_555
Zn5A O18 1_555 1_555
Zn5B_2 O19B 1_555 1_555
Zn6B O14B 1_555 1_555
Zn6A O23 1_555 1_555
Zn6B_2 O25B 1_555 1_555
Zn7A O21 1_555 1_555
Zn7B O26B 1_555 1_555
Zn7B_2 O20B 1_555 1_555
Zn7B_3 O14B 1_555 1_555
Zn8A O17 1_555 1_555
Zn8A_2 O22 1_555 1_555
Zn8A_3 O24 1_555 1_555
Zn8B O14B 1_555 1_555
O14A Zn7A 1_555 1_555
O14A_2 Zn5A 1_555 1_555
O15B Zn5B 1_555 1_555
O16B Zn6B 1_555 1_555
O17B Zn8 1_555 1_555
O18B Zn5 1_555 1_555
O18A Zn5B 1_555 1_555
C55B O15B 1_555 1_555
C56B C55B 1_555 1_555
C57B C56B 1_555 1_555
H25B C57B 1_555 1_555
C58B C57B 1_555 1_555
H26B C58B 1_555 1_555
C59B C58B 1_555 1_555
C60B C59B 1_555 1_555
H27B C60B 1_555 1_555
C61B C56B 1_555 1_555
H28B C61B 1_555 1_555
C62B C59B 1_555 1_555
C63B C62B 1_555 1_555
C64B C63B 1_555 1_555
C65B C64B 1_555 1_555
C66B C65B 1_555 1_555
C67B C66B 1_555 1_555
H29B C67B 1_555 1_555
C68B C67B 1_555 1_555
H30B C68B 1_555 1_555
C69B C68B 1_555 1_555
C70B C69B 1_555 1_555
H31B C70B 1_555 1_555
C71B C66B 1_555 1_555
H32B C71B 1_555 1_555
C72B O17B 1_555 1_555
O19B C73B 1_555 1_555
O19B_2 Zn5B 1_555 1_555
O20B C73B 1_555 1_555
O20A Zn7A 1_555 1_555
O21B Zn7 1_555 1_555
O22B Zn8 1_555 1_555
O22_2 Zn8A 1_555 1_555
C73B C74B 1_555 1_555
C74B C75B 1_555 1_555
C75B H33B 1_555 1_555
C76B C75B 1_555 1_555
H34B C76B 1_555 1_555
C77B C76B 1_555 1_555
C78B C77B 1_555 1_555
H35B C78B 1_555 1_555
C79B C74B 1_555 1_555
H36B C79B 1_555 1_555
C80B C77B 1_555 1_555
C81B C80B 1_555 1_555
C82B C81B 1_555 1_555
C83B C82B 1_555 1_555
C84B C83B 1_555 1_555
C85B C84B 1_555 1_555
H37B C85B 1_555 1_555
C86B C85B 1_555 1_555
H38B C86B 1_555 1_555
C87B C86B 1_555 1_555
C88B C87B 1_555 1_555
H39B C88B 1_555 1_555
C89B C84B 1_555 1_555
H40B C89B 1_555 1_555
C90B O21B 1_555 1_555
O23B Zn6 1_555 1_555
O23A Zn6B 1_555 1_555
O24B Zn8 1_555 1_555
O24_2 Zn8A 1_555 1_555
O25B C108B 1_555 1_555
O25B_2 Zn6B 1_555 1_555
O26B C108B 1_555 1_555
O26A Zn7A 1_555 1_555
C91B O23B 1_555 1_555
C92B C91B 1_555 1_555
C93B C92B 1_555 1_555
H41B C93B 1_555 1_555
C94B C93B 1_555 1_555
H42B C94B 1_555 1_555
C95B C94B 1_555 1_555
C96B C95B 1_555 1_555
H43B C96B 1_555 1_555
C97B C92B 1_555 1_555
H44B C97B 1_555 1_555
C98B C95B 1_555 1_555
C99B C98B 1_555 1_555
C100B C99B 1_555 1_555
C101B C100B 1_555 1_555
C102B C101B 1_555 1_555
C103B C102B 1_555 1_555
H45B C103B 1_555 1_555
C104B C103B 1_555 1_555
H46B C104B 1_555 1_555
C105B C104B 1_555 1_555
C106B C105B 1_555 1_555
H47B C106B 1_555 1_555
C107B C102B 1_555 1_555
H48B C107B 1_555 1_555
C108B C105B 1_555 1_555
O27B Zn6B 1_555 1_555
N1B C109B 1_555 1_555
C109B O27B 1_555 1_555
H49B C109B 1_555 1_555
C110B N1B 1_555 1_555
H50B C110B 1_555 1_555
H51B C110B 1_555 1_555
H52B C110B 1_555 1_555
C111B N1B 1_555 1_555
H53B C111B 1_555 1_555
H54B C111B 1_555 1_555
H55B C111B 1_555 1_555
O28B Zn6B 1_555 1_555
N2B C112B 1_555 1_555
C112B O28B 1_555 1_555
H56B C112B 1_555 1_555
C113B N2B 1_555 1_555
H57B C113B 1_555 1_555
H58B C113B 1_555 1_555
H59B C113B 1_555 1_555
C114B N2B 1_555 1_555
H60B C114B 1_555 1_555
H61B C114B 1_555 1_555
H62B C114B 1_555 1_555
O3 C1 1_555 1_555
C6 C7 1_555 1_555
C16 C17 1_555 1_555
O7 C19 1_555 1_555
C24 C25 1_555 1_555
C34 C35 1_555 1_555
O11 C37 1_555 1_555
C42 C43 1_555 1_555
C52 C53 1_555 1_555
O16 C55 1_555 1_555
C60 C61 1_555 1_555
C70 C71 1_555 1_555
O20 C73 1_555 1_555
C78 C79 1_555 1_555
C88 C89 1_555 1_555
O26 C108 1_555 1_555
C96 C97 1_555 1_555
C105 C108 1_555 1_555
C106 C107 1_555 1_555
Zn3A_2 O1A_2 1_555 1_555
Zn4B O1B 1_555 1_555
O3A C1A 1_555 1_555
O5A C18A 1_555 1_555
C6A C7A 1_555 1_555
C15A C18A 1_555 1_555
C16A C17A 1_555 1_555
O9B C36B 1_555 1_555
C24B C25B 1_555 1_555
C33B C36B 1_555 1_555
C34B C35B 1_555 1_555
O13B C54B 1_555 1_555
C42B C43B 1_555 1_555
C51B C54B 1_555 1_555
C52B C53B 1_555 1_555
Zn8A O14A_2 1_555 1_555
Zn8A_2 O14A 1_555 1_555
O16B C55B 1_555 1_555
O18B C72B 1_555 1_555
C60B C61B 1_555 1_555
C69B C72B 1_555 1_555
C70B C71B 1_555 1_555
O22B C90B 1_555 1_555
C78B C79B 1_555 1_555
C87B C90B 1_555 1_555
C88B C89B 1_555 1_555
O24B C91B 1_555 1_555
C96B C97B 1_555 1_555
C106B C107B 1_555 1_555

#END
