
#######################################################################
#
#                 Cambridge Crystallographic Data Centre
#                                CCDC 
#
#######################################################################
#
# If this CIF has been generated from an entry in the Cambridge 
# Structural Database, then it will include bibliographic, chemical, 
# crystal, experimental, refinement or atomic coordinate data resulting 
# from the CCDC's data processing and validation procedures.
#
#######################################################################

data_PIXHUB
_chemical_formula_moiety         'C84 H56 N7 O10 Zn7'
_symmetry_cell_setting           triclinic
_symmetry_space_group_name_H-M   'P -1'
_symmetry_Int_Tables_number      2
_space_group_name_Hall           '-P 1'
loop_
_symmetry_equiv_pos_site_id
_symmetry_equiv_pos_as_xyz
1 x,y,z
2 -x,-y,-z
_cell_length_a                   7.3936(8)
_cell_length_b                   14.3076(16)
_cell_length_c                   14.5432(16)
_cell_angle_alpha                103.721(8)
_cell_angle_beta                 92.319(8)
_cell_angle_gamma                93.281(8)
_cell_volume                     1489.78
loop_
_atom_site_label
_atom_site_type_symbol
_atom_site_fract_x
_atom_site_fract_y
_atom_site_fract_z
Zn1 Zn 0.55988(7) 0.73686(4) 0.73141(4)
O1 O 0.7490(4) 0.8138(3) 0.8158(2)
O2 O 0.6879(7) 0.6606(4) 0.6272(4)
N1 N 0.3761(5) 0.6872(3) 0.8139(3)
N2 N 0.3717(5) 0.7915(3) 0.6559(3)
C1 C 0.7106(6) 0.8936(4) 0.8685(4)
C2 C 0.7324(10) 0.5907(7) 0.6358(6)
C3 C 0.2296(6) 0.6295(4) 0.7753(4)
C4 C 0.3949(6) 0.7142(3) 0.9076(4)
C5 C 0.2478(6) 0.8488(4) 0.6992(4)
C6 C 0.3623(6) 0.7701(4) 0.5612(4)
O3 O 0.5609(5) 0.9259(3) 0.8669(3)
C7 C 0.8601(6) 0.9499(4) 0.9376(4)
O4 O 0.6966(7) 0.5405(4) 0.6967(4)
C8 C 0.8742(7) 0.5434(5) 0.5606(4)
H1 H 0.2123 0.6107 0.7082
C9 C 0.1029(6) 0.5962(4) 0.8295(4)
C10 C 0.2751(6) 0.6831(3) 0.9669(3)
H2 H 0.4956 0.7572 0.9357
H3 H 0.2506 0.8635 0.7665
C11 C 0.1193(6) 0.8870(4) 0.6536(4)
C12 C 0.2351(6) 0.8073(4) 0.5089(3)
H4 H 0.4457 0.7280 0.5282
C13 C 1.0350(7) 0.9156(4) 0.9373(4)
C14 C 0.8270(6) 1.0338(4) 1.0009(4)
C15 C 0.9290(9) 0.4538(6) 0.5631(5)
C16 C 0.9472(9) 0.5895(5) 0.4982(5)
H5 H -0.0014 0.5574 0.7994
C17 C 0.1276(5) 0.6194(3) 0.9281(4)
H6 H 0.2938 0.7052 1.0337
H7 H 0.0339 0.9259 0.6888
C18 C 0.1114(5) 0.8696(3) 0.5547(3)
H8 H 0.2327 0.7901 0.4416
H9 H 1.0582 0.8569 0.8942
H10 H 0.7091 1.0570 1.0023
H11 H 0.8807 0.4215 0.6076
H12 H 0.9125 0.6520 0.4967
C19 C 0.0158(5) 0.5755(4) 0.9931(3)
C20 C 0.0006(5) 0.9220(3) 0.4970(3)
H13 H -0.0424 0.6270 1.0390
C21 C 0.1238(5) 0.5102(3) 1.0485(3)
H14 H -0.0756 0.8748 0.4465
C22 C 0.1150(5) 0.9960(3) 0.4518(3)
H15 H 0.1138 0.5333 1.1185
C23 C 0.3193(5) 0.4980(3) 1.0249(3)
H16 H 0.0898 0.9813 0.3816
C24 C 0.3160(5) 1.0050(3) 0.4763(3)
C25 C 0.4333(5) 0.9695(3) 0.4078(3)
C26 C 0.3848(5) 1.0361(3) 0.5689(3)
H17 H 0.3891 0.9485 0.3435
H18 H 0.3063 1.0617 0.6174
H19 H 0.4259 0.5696 1.1541
H20 H 0.2704 0.4287 0.8874
C27 C 0.4548(5) 0.5408(3) 1.0911(3)
C28 C 0.3636(5) 0.4578(3) 0.9340(3)
O1A O 1.2510(4) 1.1862(3) 1.1842(2)
C1A C 1.2894(6) 1.1064(4) 1.1315(4)
O3A O 1.4391(5) 1.0741(3) 1.1331(3)
C7A C 1.1399(6) 1.0501(4) 1.0624(4)
C13A C 0.9650(7) 1.0844(4) 1.0627(4)
C14A C 1.1730(6) 0.9662(4) 0.9991(4)
H9A H 0.9418 1.1431 1.1058
H10A H 1.2909 0.9430 0.9977
O2A O 1.3121(7) 0.3394(4) 0.3728(4)
C2A C 1.2676(10) 0.4093(7) 0.3642(6)
O4A O 1.3034(7) 0.4595(4) 0.3033(4)
C8A C 1.1258(7) 0.4566(5) 0.4394(4)
C15A C 1.0710(9) 0.5462(6) 0.4369(5)
C16A C 1.0528(9) 0.4105(5) 0.5018(5)
H11A H 1.1193 0.5785 0.3924
H12A H 1.0875 0.3480 0.5033
N1A N -0.3761(5) 0.3128(3) 1.1861(3)
C3A C -0.2296(6) 0.3705(4) 1.2247(4)
C4A C -0.3949(6) 0.2858(3) 1.0924(4)
H1A H -0.2123 0.3893 1.2918
C9A C -0.1029(6) 0.4038(4) 1.1705(4)
C10A C -0.2751(6) 0.3169(3) 1.0331(3)
H2A H -0.4956 0.2428 1.0643
H5A H 0.0014 0.4426 1.2006
C17A C -0.1276(5) 0.3806(3) 1.0719(4)
H6A H -0.2938 0.2948 0.9663
C19A C -0.0158(5) 0.4245(4) 1.0069(3)
H13A H 0.0424 0.3730 0.9610
C21A C -0.1238(5) 0.4898(3) 0.9515(3)
H15A H -0.1138 0.4667 0.8815
C23A C -0.3193(5) 0.5020(3) 0.9751(3)
H19A H -0.4259 0.4304 0.8459
H20A H -0.2704 0.5713 1.1126
C27A C -0.4548(5) 0.4592(3) 0.9089(3)
C28A C -0.3636(5) 0.5422(3) 1.0660(3)
N2A N -0.3717(5) 1.2085(3) 0.3441(3)
C5A C -0.2478(6) 1.1512(4) 0.3008(4)
C6A C -0.3623(6) 1.2299(4) 0.4388(4)
H3A H -0.2506 1.1365 0.2335
C11A C -0.1193(6) 1.1130(4) 0.3464(4)
C12A C -0.2351(6) 1.1927(4) 0.4911(3)
H4A H -0.4457 1.2720 0.4718
H7A H -0.0339 1.0741 0.3112
C18A C -0.1114(5) 1.1304(3) 0.4453(3)
H8A H -0.2327 1.2099 0.5584
C20A C -0.0006(5) 1.0780(3) 0.5030(3)
H14A H 0.0756 1.1252 0.5535
C22A C -0.1150(5) 1.0040(3) 0.5482(3)
H16A H -0.0898 1.0187 0.6184
C24A C -0.3160(5) 0.9950(3) 0.5237(3)
C25A C -0.4333(5) 1.0305(3) 0.5922(3)
C26A C -0.3848(5) 0.9639(3) 0.4311(3)
H17A H -0.3891 1.0515 0.6565
H18A H -0.3063 0.9383 0.3826
Zn1A Zn -1.55988(7) 0.26314(4) 1.26859(4)
N1A_2 N -1.3761(5) 0.3128(3) 1.1861(3)
C3A_2 C -1.2296(6) 0.3705(4) 1.2247(4)
C4A_2 C -1.3949(6) 0.2858(3) 1.0924(4)
H1A_2 H -1.2123 0.3893 1.2918
C9A_2 C -1.1029(6) 0.4038(4) 1.1705(4)
C10A_2 C -1.2751(6) 0.3169(3) 1.0331(3)
H2A_2 H -1.4956 0.2428 1.0643
H5A_2 H -0.9986 0.4426 1.2006
C17A_2 C -1.1276(5) 0.3806(3) 1.0719(4)
H6A_2 H -1.2938 0.2948 0.9663
C19A_2 C -1.0158(5) 0.4245(4) 1.0069(3)
H13A_2 H -0.9576 0.3730 0.9610
C21A_2 C -1.1238(5) 0.4898(3) 0.9515(3)
H15A_2 H -1.1138 0.4667 0.8815
C23A_2 C -1.3193(5) 0.5020(3) 0.9751(3)
H19A_2 H -1.4259 0.4304 0.8459
H20A_2 H -1.2704 0.5713 1.1126
C27A_2 C -1.4548(5) 0.4592(3) 0.9089(3)
C28A_2 C -1.3636(5) 0.5422(3) 1.0660(3)
N1_2 N -0.6239(5) 0.6872(3) 0.8139(3)
C3_2 C -0.7704(6) 0.6295(4) 0.7753(4)
C4_2 C -0.6051(6) 0.7142(3) 0.9076(4)
H1_2 H -0.7877 0.6107 0.7082
C9_2 C -0.8971(6) 0.5962(4) 0.8295(4)
C10_2 C -0.7249(6) 0.6831(3) 0.9669(3)
H2_2 H -0.5044 0.7572 0.9357
H5_2 H -1.0014 0.5574 0.7994
C17_2 C -0.8724(5) 0.6194(3) 0.9281(4)
H6_2 H -0.7062 0.7052 1.0337
C19_2 C -0.9842(5) 0.5755(4) 0.9931(3)
H13_2 H -1.0424 0.6270 1.0390
C21_2 C -0.8762(5) 0.5102(3) 1.0485(3)
H15_2 H -0.8862 0.5333 1.1185
C23_2 C -0.6807(5) 0.4980(3) 1.0249(3)
H19_2 H -0.5741 0.5696 1.1541
H20_2 H -0.7296 0.4287 0.8874
C27_2 C -0.5452(5) 0.5408(3) 1.0911(3)
C28_2 C -0.6364(5) 0.4578(3) 0.9340(3)
Zn1_2 Zn -0.44012(7) 0.73686(4) 0.73141(4)
Zn1A_2 Zn -0.55988(7) 0.26314(4) 1.26859(4)
Zn1A_3 Zn -0.55988(7) 1.26314(4) 0.26859(4)
Zn1A_4 Zn 1.44012(7) 0.26314(4) 0.26859(4)
Zn1A_5 Zn 1.44012(7) 1.26314(4) 1.26859(4)
O1A_2 O -1.7490(4) 0.1862(3) 1.1842(2)
O2A_2 O -1.6879(7) 0.3394(4) 1.3728(4)
N2A_2 N -1.3717(5) 0.2085(3) 1.3441(3)
C25_2 C -0.5667(5) 0.9695(3) 0.4078(3)
C25A_2 C 0.5667(5) 1.0305(3) 0.5922(3)
C26_2 C -0.6152(5) 1.0361(3) 0.5689(3)
C26A_2 C 0.6152(5) 0.9639(3) 0.4311(3)
C27_3 C -1.5452(5) 0.5408(3) 1.0911(3)
C27A_3 C 0.5452(5) 0.4592(3) 0.9089(3)
C28_3 C -1.6364(5) 0.4578(3) 0.9340(3)
C28A_3 C 0.6364(5) 0.5422(3) 1.0660(3)
loop_
_geom_bond_atom_site_label_1
_geom_bond_atom_site_label_2
_geom_bond_site_symmetry_1
_geom_bond_site_symmetry_2
Zn1 O1 1_555 1_555
O1 C1 1_555 1_555
O2 Zn1 1_555 1_555
N1 Zn1 1_555 1_555
N2 Zn1 1_555 1_555
C1 O3 1_555 1_555
C2 O2 1_555 1_555
C3 N1 1_555 1_555
C4 N1 1_555 1_555
C5 N2 1_555 1_555
C6 N2 1_555 1_555
C7 C1 1_555 1_555
O4 C2 1_555 1_555
C8 C2 1_555 1_555
H1 C3 1_555 1_555
C9 C3 1_555 1_555
C10 C4 1_555 1_555
H2 C4 1_555 1_555
H3 C5 1_555 1_555
C11 C5 1_555 1_555
C12 C6 1_555 1_555
H4 C6 1_555 1_555
C13 C7 1_555 1_555
C14 C7 1_555 1_555
C15 C8 1_555 1_555
C16 C8 1_555 1_555
H5 C9 1_555 1_555
C17 C9 1_555 1_555
H6 C10 1_555 1_555
H7 C11 1_555 1_555
C18 C11 1_555 1_555
H8 C12 1_555 1_555
H9 C13 1_555 1_555
H10 C14 1_555 1_555
H11 C15 1_555 1_555
H12 C16 1_555 1_555
C19 C17 1_555 1_555
C20 C18 1_555 1_555
H13 C19 1_555 1_555
C21 C19 1_555 1_555
H14 C20 1_555 1_555
C22 C20 1_555 1_555
H15 C21 1_555 1_555
C23 C21 1_555 1_555
H16 C22 1_555 1_555
C24 C22 1_555 1_555
C25 C24 1_555 1_555
C26 C24 1_555 1_555
H17 C25 1_555 1_555
H18 C26 1_555 1_555
H19 C27 1_555 1_555
H20 C28 1_555 1_555
C27 C23 1_555 1_555
C28 C23 1_555 1_555
O1A C1A 1_555 1_555
C1A O3A 1_555 1_555
C7A C1A 1_555 1_555
C13A C14 1_555 1_555
C14A C13 1_555 1_555
H9A C13A 1_555 1_555
H10A C14A 1_555 1_555
O2A C2A 1_555 1_555
C2A O4A 1_555 1_555
C8A C2A 1_555 1_555
C15A C16 1_555 1_555
C16A C15 1_555 1_555
H11A C15A 1_555 1_555
H12A C16A 1_555 1_555
N1A C3A 1_555 1_555
C3A H1A 1_555 1_555
C4A N1A 1_555 1_555
C9A C3A 1_555 1_555
C10A C4A 1_555 1_555
H2A C4A 1_555 1_555
H5A C9A 1_555 1_555
C17A C9A 1_555 1_555
H6A C10A 1_555 1_555
C19A C21 1_555 1_555
H13A C19A 1_555 1_555
C21A C19 1_555 1_555
H15A C21A 1_555 1_555
C23A C21A 1_555 1_555
H19A C27A 1_555 1_555
H20A C28A 1_555 1_555
C27A C23A 1_555 1_555
C28A C23A 1_555 1_555
N2A C5A 1_555 1_555
C5A H3A 1_555 1_555
C6A N2A 1_555 1_555
C11A C5A 1_555 1_555
C12A C6A 1_555 1_555
H4A C6A 1_555 1_555
H7A C11A 1_555 1_555
C18A C11A 1_555 1_555
H8A C12A 1_555 1_555
C20A C22 1_555 1_555
H14A C20A 1_555 1_555
C22A C20 1_555 1_555
H16A C22A 1_555 1_555
C24A C22A 1_555 1_555
C25A C24A 1_555 1_555
C26A C24A 1_555 1_555
H17A C25A 1_555 1_555
H18A C26A 1_555 1_555
Zn1A N1A_2 1_555 1_555
N1A_2 C3A_2 1_555 1_555
C3A_2 H1A_2 1_555 1_555
C4A_2 N1A_2 1_555 1_555
C9A_2 C3A_2 1_555 1_555
C10A_2 C4A_2 1_555 1_555
H2A_2 C4A_2 1_555 1_555
H5A_2 C9A_2 1_555 1_555
C17A_2 C9A_2 1_555 1_555
H6A_2 C10A_2 1_555 1_555
C19A_2 C17A_2 1_555 1_555
H13A_2 C19A_2 1_555 1_555
C21A_2 C19A_2 1_555 1_555
H15A_2 C21A_2 1_555 1_555
C23A_2 C21A_2 1_555 1_555
H19A_2 C27A_2 1_555 1_555
H20A_2 C28A_2 1_555 1_555
C27A_2 C23A_2 1_555 1_555
C28A_2 C23A_2 1_555 1_555
N1_2 C3_2 1_555 1_555
C3_2 H1_2 1_555 1_555
C4_2 N1_2 1_555 1_555
C9_2 C3_2 1_555 1_555
C10_2 C4_2 1_555 1_555
H2_2 C4_2 1_555 1_555
H5_2 C9_2 1_555 1_555
C17_2 C9_2 1_555 1_555
H6_2 C10_2 1_555 1_555
C19_2 C21A_2 1_555 1_555
H13_2 C19_2 1_555 1_555
C21_2 C19A_2 1_555 1_555
H15_2 C21_2 1_555 1_555
C23_2 C21_2 1_555 1_555
H19_2 C27_2 1_555 1_555
H20_2 C28_2 1_555 1_555
C27_2 C28A 1_555 1_555
C28_2 C27A 1_555 1_555
Zn1_2 N1_2 1_555 1_555
Zn1A_2 N1A 1_555 1_555
Zn1A_3 N2A 1_555 1_555
Zn1A_4 O2A 1_555 1_555
Zn1A_5 O1A 1_555 1_555
O1A_2 Zn1A 1_555 1_555
O2A_2 Zn1A 1_555 1_555
N2A_2 Zn1A 1_555 1_555
C25_2 C26A 1_555 1_555
C25A_2 C26 1_555 1_555
C26_2 C25A 1_555 1_555
C26A_2 C25 1_555 1_555
C27_3 C28A_2 1_555 1_555
C27A_3 C28 1_555 1_555
C28_3 C27A_2 1_555 1_555
C28A_3 C27 1_555 1_555
C10 C17 1_555 1_555
C12 C18 1_555 1_555
C7A C13A 1_555 1_555
C7A C14A 1_555 1_555
C8A C15A 1_555 1_555
C8A C16A 1_555 1_555
C10A C17A 1_555 1_555
C17A C19A 1_555 1_555
C19A C21A 1_555 1_555
C12A C18A 1_555 1_555
C18A C20A 1_555 1_555
C20A C22A 1_555 1_555
C10A_2 C17A_2 1_555 1_555
C10_2 C17_2 1_555 1_555
C17_2 C19_2 1_555 1_555
C19_2 C21_2 1_555 1_555
C23_2 C27_2 1_555 1_555
C23_2 C28_2 1_555 1_555

#END
