
#######################################################################
#
#                 Cambridge Crystallographic Data Centre
#                                CCDC 
#
#######################################################################
#
# If this CIF has been generated from an entry in the Cambridge 
# Structural Database, then it will include bibliographic, chemical, 
# crystal, experimental, refinement or atomic coordinate data resulting 
# from the CCDC's data processing and validation procedures.
#
#######################################################################

data_NATXIR
_chemical_formula_moiety         '(C12 H12 Er2 N4 O13)n'
_symmetry_cell_setting           monoclinic
_symmetry_space_group_name_H-M   'P 21/n'
_symmetry_Int_Tables_number      14
_space_group_name_Hall           '-P 2yn'
loop_
_symmetry_equiv_pos_site_id
_symmetry_equiv_pos_as_xyz
1 x,y,z
2 1/2-x,1/2+y,1/2-z
3 -x,-y,-z
4 1/2+x,1/2-y,1/2+z
_cell_length_a                   11.706(4)
_cell_length_b                   6.151(2)
_cell_length_c                   14.063(5)
_cell_angle_alpha                90
_cell_angle_beta                 92.255(3)
_cell_angle_gamma                90
_cell_volume                     1011.8
loop_
_atom_site_label
_atom_site_type_symbol
_atom_site_fract_x
_atom_site_fract_y
_atom_site_fract_z
Er1 Er 0.153730(15) 0.49333(3) 0.754169(11)
C1 C 0.1592(4) 0.1768(7) 0.5654(3)
C2 C 0.0748(4) 0.3473(7) 0.5304(3)
C3 C 0.0195(4) 0.3339(7) 0.4416(3)
H1 H 0.0349 0.2169 0.4022
C4 C -0.0178(4) 0.8221(7) 0.8551(3)
C5 C -0.0078(4) 0.6538(7) 0.9332(3)
C6 C -0.0699(4) 0.6658(7) 1.0148(3)
H2 H -0.1180 0.7840 1.0232
H3 H -0.032(4) 0.194(6) 0.783(3)
H4 H -0.072(3) 0.331(8) 0.707(3)
H5 H 0.234(4) 0.778(7) 0.620(2)
N1 N 0.0550(3) 0.5157(5) 0.5886(2)
N2 N 0.0627(3) 0.4868(5) 0.9190(2)
O1 O 0.2111(2) 0.2167(5) 0.64540(19)
O2 O 0.1721(3) 0.0156(5) 0.5166(2)
O3 O 0.0379(3) 0.7851(5) 0.7820(2)
O4 O -0.0796(3) 0.9816(5) 0.8689(2)
O5 O -0.0174(3) 0.2967(6) 0.7457(2)
O6 O 0.2533(3) 0.7300(5) 0.67104(19)
Er1B Er -0.153730(15) 0.50667(3) 0.245831(11)
Er1A Er 0.346270(15) -0.00667(3) 0.745831(11)
Er1A_2 Er 0.346270(15) 0.99333(3) 0.745831(11)
Er1C Er -0.346270(15) 1.00667(3) 0.254169(11)
Er1B_2 Er -0.153730(15) 0.50667(3) 1.245831(11)
C1B C -0.1592(4) 0.8232(7) 0.4346(3)
C2B C -0.0748(4) 0.6527(7) 0.4696(3)
C3B C -0.0195(4) 0.6661(7) 0.5584(3)
H1B H -0.0349 0.7831 0.5978
C4B C 0.0178(4) 0.1779(7) 1.1449(3)
C5B C 0.0078(4) 0.3462(7) 1.0668(3)
C6B C 0.0699(4) 0.3342(7) 0.9852(3)
H2B H 0.1180 0.2160 0.9768
H3B H 0.032(4) 0.806(6) 0.217(3)
H4B H 0.072(3) 0.669(8) 0.293(3)
H5A H 0.266(4) 0.278(7) 0.880(2)
H5B H -0.234(4) 0.222(7) 0.380(2)
H5C H -0.266(4) 0.722(7) 0.120(2)
N1B N -0.0550(3) 0.4843(5) 0.4114(2)
N2B N -0.0627(3) 0.5132(5) 1.0810(2)
N2B_2 N -0.0627(3) 0.5132(5) 0.0810(2)
O1B O -0.2111(2) 0.7833(5) 0.35460(19)
O1A O 0.2889(2) 0.7167(5) 0.85460(19)
O1C O -0.2889(2) 0.2833(5) 0.14540(19)
O2B O -0.1721(3) 0.9844(5) 0.4834(2)
O3B O -0.0379(3) 0.2149(5) 1.2180(2)
O3B_2 O -0.0379(3) 0.2149(5) 0.2180(2)
O4B O 0.0796(3) 0.0184(5) 1.1311(2)
O5B O 0.0174(3) 0.7033(6) 0.2543(2)
O6A O 0.2467(3) 0.2300(5) 0.82896(19)
O6B O -0.2533(3) 0.2700(5) 0.32896(19)
O6C O -0.2467(3) 0.7700(5) 0.17104(19)
O7 O 0.1922(4) 0.6825(8) 0.3816(3)
H6 H 0.1869 0.7814 0.4241
H7 H 0.2597 0.6334 0.3776
loop_
_geom_bond_atom_site_label_1
_geom_bond_atom_site_label_2
_geom_bond_site_symmetry_1
_geom_bond_site_symmetry_2
Er1 N1 1_555 1_555
C1 C2 1_555 1_555
C2 C3 1_555 1_555
C3 H1 1_555 1_555
C4 C5 1_555 1_555
C5 C6 1_555 1_555
C6 H2 1_555 1_555
H3 O5 1_555 1_555
H4 O5 1_555 1_555
H5 O6 1_555 1_555
N1 C2 1_555 1_555
N2 Er1 1_555 1_555
O1 Er1 1_555 1_555
O2 C1 1_555 1_555
O3 Er1 1_555 1_555
O4 C4 1_555 1_555
O5 Er1 1_555 1_555
O6 Er1 1_555 1_555
O7 H6 1_555 1_555
H7 O7 1_555 1_555
Er1B N1B 1_555 1_555
Er1A O1 1_555 1_555
Er1A_2 O6 1_555 1_555
Er1C O1B 1_555 1_555
Er1B_2 N2B 1_555 1_555
C1B C2B 1_555 1_555
C2B C3B 1_555 1_555
C3B N1 1_555 1_555
H1B C3B 1_555 1_555
C4B C5B 1_555 1_555
C5B C6B 1_555 1_555
C6B N2 1_555 1_555
H2B C6B 1_555 1_555
H3B O5B 1_555 1_555
H4B O5B 1_555 1_555
H5A O6A 1_555 1_555
H5B O6B 1_555 1_555
H5C O6C 1_555 1_555
N1B C3 1_555 1_555
N2B C6 1_555 1_555
N2B_2 Er1B 1_555 1_555
O1B Er1B 1_555 1_555
O1A Er1 1_555 1_555
O1C Er1B 1_555 1_555
O2B C1B 1_555 1_555
O3B Er1B_2 1_555 1_555
O3B_2 Er1B 1_555 1_555
O4B C4B 1_555 1_555
O5B Er1B 1_555 1_555
O6A Er1 1_555 1_555
O6B Er1B 1_555 1_555
O6C Er1B 1_555 1_555
C1 O1 1_555 1_555
C4 O3 1_555 1_555
C5 N2 1_555 1_555
Er1A O6A 1_555 1_555
Er1A_2 O1A 1_555 1_555
Er1C O6C 1_555 1_555
C1B O1B 1_555 1_555
C2B N1B 1_555 1_555
C4B O3B 1_555 1_555
C5B N2B 1_555 1_555

#END
