
#######################################################################
#
#                 Cambridge Crystallographic Data Centre
#                                CCDC 
#
#######################################################################
#
# If this CIF has been generated from an entry in the Cambridge 
# Structural Database, then it will include bibliographic, chemical, 
# crystal, experimental, refinement or atomic coordinate data resulting 
# from the CCDC's data processing and validation procedures.
#
#######################################################################

data_ECOGEI
_chemical_formula_moiety         '(C58 H49 Cl2 N23 O10 Zn2 2+)n'
_symmetry_cell_setting           tetragonal
_symmetry_space_group_name_H-M   'P 41 21 2'
_symmetry_Int_Tables_number      92
_space_group_name_Hall           'P 4abw 2nw'
loop_
_symmetry_equiv_pos_site_id
_symmetry_equiv_pos_as_xyz
1 x,y,z
2 -x,-y,1/2+z
3 1/2-y,1/2+x,1/4+z
4 1/2+y,1/2-x,3/4+z
5 y,x,-z
6 -y,-x,1/2-z
7 1/2-x,1/2+y,1/4-z
8 1/2+x,1/2-y,3/4-z
_cell_length_a                   12.3804(7)
_cell_length_b                   12.3804(7)
_cell_length_c                   46.505(2)
_cell_angle_alpha                90
_cell_angle_beta                 90
_cell_angle_gamma                90
_cell_volume                     7128.02
loop_
_atom_site_label
_atom_site_type_symbol
_atom_site_fract_x
_atom_site_fract_y
_atom_site_fract_z
_atom_site_U_iso_or_equiv
_atom_site_thermal_displace_type
Zn1 Zn 0.18517(6) -0.1852 0.2500 0.0297 Uani
N1 N 0.0790(4) -0.1146(4) 0.28180(9) 0.0287 Uani
N2 N -0.1049(5) -0.0449(5) 0.37659(10) 0.0353 Uani
N3 N -0.0744(5) 0.1312(5) 0.3577(1) 0.0400 Uani
N4 N -0.1533(5) 0.1113(5) 0.4044(1) 0.0447 Uani
N5 N -0.2531(5) -0.2048(5) 0.46777(10) 0.0377 Uani
N6 N 0.3118(5) -0.0605(5) 0.2620(1) 0.0397 Uani
C1 C 0.0164(6) -0.1738(6) 0.2990(1) 0.0347 Uani
C2 C -0.0365(6) -0.1331(5) 0.3228(1) 0.0310 Uani
C3 C -0.0222(5) -0.0244(5) 0.3295(1) 0.0283 Uani
C4 C 0.0372(5) 0.0402(5) 0.3111(1) 0.0287 Uani
C5 C 0.0867(5) -0.0096(6) 0.2876(1) 0.0330 Uani
C6 C -0.0707(5) 0.0238(5) 0.3559(1) 0.0283 Uani
C7 C -0.1199(7) 0.1706(6) 0.3820(1) 0.0440 Uani
C8 C -0.1453(6) 0.0054(6) 0.4001(1) 0.0370 Uani
C9 C -0.1794(6) -0.0683(6) 0.4237(1) 0.0393 Uani
C10 C -0.1803(6) -0.1800(6) 0.4202(1) 0.0390 Uani
C11 C -0.2168(6) -0.2472(6) 0.4426(1) 0.0383 Uani
C12 C -0.2526(7) -0.0968(6) 0.4705(1) 0.0427 Uani
C13 C -0.2185(6) -0.0273(6) 0.4501(1) 0.0403 Uani
C14 C 0.3517(6) 0.0052(7) 0.2745(1) 0.0463 Uani
C15 C 0.4009(8) 0.096(1) 0.2923(2) 0.0763 Uani
H1 H 0.0080 -0.2496 0.2947 0.0424 Uiso
H3 H -0.0826 -0.1779 0.3340 0.0334 Uiso
H5 H 0.0432 0.1183 0.3145 0.0339 Uiso
H6 H 0.1280 0.0350 0.2746 0.0393 Uiso
H7 H -0.1282 0.2482 0.3836 0.0479 Uiso
H8 H -0.1570 -0.2117 0.4026 0.0484 Uiso
H9 H -0.2157 -0.3222 0.4397 0.0445 Uiso
H10 H -0.2784 -0.0673 0.4883 0.0509 Uiso
H11 H -0.2198 0.0494 0.4533 0.0471 Uiso
H12 H 0.4101 0.0741 0.3116 0.0969 Uiso
H13 H 0.4676 0.1170 0.2842 0.0969 Uiso
H14 H 0.3528 0.1578 0.2920 0.0969 Uiso
N1E N 0.1146(4) -0.0790(4) 0.21820(9) 0.0287 Uani
N2E N 0.0449(5) 0.1049(5) 0.12341(10) 0.0353 Uani
N3E N -0.1312(5) 0.0744(5) 0.1423(1) 0.0400 Uani
N4E N -0.1113(5) 0.1533(5) 0.0956(1) 0.0447 Uani
N5E N 0.2048(5) 0.2531(5) 0.03223(10) 0.0377 Uani
C1E C 0.1738(6) -0.0164(6) 0.2010(1) 0.0347 Uani
C2E C 0.1331(5) 0.0365(6) 0.1772(1) 0.0310 Uani
C3E C 0.0244(5) 0.0222(5) 0.1705(1) 0.0283 Uani
C4E C -0.0402(5) -0.0372(5) 0.1889(1) 0.0287 Uani
C5E C 0.0096(6) -0.0867(5) 0.2124(1) 0.0330 Uani
C6E C -0.0238(5) 0.0707(5) 0.1441(1) 0.0283 Uani
C7E C -0.1706(6) 0.1199(7) 0.1180(1) 0.0440 Uani
C8E C -0.0054(6) 0.1453(6) 0.0999(1) 0.0370 Uani
C9E C 0.0683(6) 0.1794(6) 0.0763(1) 0.0393 Uani
C10E C 0.1800(6) 0.1803(6) 0.0798(1) 0.0390 Uani
C11E C 0.2472(6) 0.2168(6) 0.0574(1) 0.0383 Uani
C12E C 0.0968(6) 0.2526(7) 0.0295(1) 0.0427 Uani
C13E C 0.0273(6) 0.2185(6) 0.0499(1) 0.0403 Uani
H1E H 0.2496 -0.0080 0.2053 0.0424 Uiso
H3E H 0.1779 0.0826 0.1660 0.0334 Uiso
H5E H -0.1183 -0.0432 0.1855 0.0339 Uiso
H6E H -0.0350 -0.1280 0.2254 0.0393 Uiso
H7E H -0.2482 0.1282 0.1164 0.0479 Uiso
H8E H 0.2117 0.1570 0.0974 0.0484 Uiso
H9E H 0.3222 0.2157 0.0603 0.0445 Uiso
H10E H 0.0673 0.2784 0.0117 0.0509 Uiso
H11E H -0.0494 0.2198 0.0467 0.0471 Uiso
N6E N 0.0605(5) -0.3118(5) 0.2380(1) 0.0397 Uani
C14E C -0.0052(7) -0.3517(6) 0.2255(1) 0.0463 Uani
C15E C -0.096(1) -0.4009(8) 0.2077(2) 0.0763 Uani
H12E H -0.0741 -0.4101 0.1884 0.0969 Uiso
H13E H -0.1170 -0.4676 0.2158 0.0969 Uiso
H14E H -0.1578 -0.3528 0.2080 0.0969 Uiso
N5C N 0.2952(5) -0.2469(5) 0.21777(10) 0.0377 Uani
N5G N 0.2469(5) -0.2952(5) 0.28223(10) 0.0377 Uani
Zn1B Zn -0.3148 -0.31483(6) 0.5000 0.0297 Uani
Zn1C Zn 0.3148 0.31483(6) 0.0000 0.0297 Uani
Zn2 Zn -0.25638(6) 0.2564 0.2500 0.0280 Uani
O1 O -0.3735(4) 0.3735 0.2500 0.0546 Uani
O2 O -0.1189(4) 0.1189 0.2500 0.0475 Uani
N7 N -0.1482(5) 0.3466(5) 0.27610(9) 0.0317 Uani
N8 N 0.0656(5) 0.4484(5) 0.36256(10) 0.0337 Uani
N9 N 0.0398(5) 0.6196(5) 0.3400(1) 0.0403 Uani
N10 N 0.1221(6) 0.6120(5) 0.3859(1) 0.0427 Uani
N11 N 0.1888(5) 0.3227(5) 0.46064(10) 0.0363 Uani
C16 C -0.0882(7) 0.2939(6) 0.2953(1) 0.0437 Uani
C17 C -0.0249(7) 0.3433(6) 0.3157(1) 0.0370 Uani
C18 C -0.0269(6) 0.4542(5) 0.3172(1) 0.0297 Uani
C19 C -0.0881(7) 0.5131(5) 0.2975(1) 0.0367 Uani
C20 C -0.1493(6) 0.4528(6) 0.2772(1) 0.0373 Uani
C21 C 0.0312(6) 0.5116(6) 0.3412(1) 0.0337 Uani
C22 C 0.0875(7) 0.6616(6) 0.3626(1) 0.0473 Uani
C23 C 0.1092(6) 0.5044(5) 0.3848(1) 0.0327 Uani
C24 C 0.1396(6) 0.4401(6) 0.4105(1) 0.0377 Uani
C25 C 0.1428(6) 0.3270(6) 0.4104(1) 0.0360 Uani
C26 C 0.1668(6) 0.2725(6) 0.4357(1) 0.0393 Uani
C27 C 0.1859(8) 0.4294(7) 0.4601(1) 0.0480 Uani
C28 C 0.1641(7) 0.4931(6) 0.4360(1) 0.0433 Uani
H2 H -0.4221 0.3730 0.2604 0.0709 Uiso
H4 H -0.1060 0.0461 0.2508 0.0580 Uiso
H15 H -0.0870 0.2179 0.2942 0.0445 Uiso
H16 H 0.0170 0.3032 0.3288 0.0462 Uiso
H17 H -0.0894 0.5895 0.2976 0.0416 Uiso
H18 H -0.1913 0.4905 0.2633 0.0397 Uiso
H19 H 0.0989 0.7393 0.3624 0.0574 Uiso
H20 H 0.1252 0.2878 0.3935 0.0416 Uiso
H21 H 0.1682 0.1966 0.4356 0.0442 Uiso
H22 H 0.1958 0.4659 0.4779 0.0614 Uiso
H23 H 0.1664 0.5702 0.4366 0.0507 Uiso
H2E H -0.3730 0.4221 0.2396 0.0709 Uiso
H4E H -0.0461 0.1060 0.2492 0.0580 Uiso
N7E N -0.3466(5) 0.1482(5) 0.22390(9) 0.0317 Uani
N8E N -0.4484(5) -0.0656(5) 0.13744(10) 0.0337 Uani
N9E N -0.6196(5) -0.0398(5) 0.1600(1) 0.0403 Uani
N10E N -0.6120(5) -0.1221(6) 0.1141(1) 0.0427 Uani
N11E N -0.3227(5) -0.1888(5) 0.03936(10) 0.0363 Uani
C16E C -0.2939(6) 0.0882(7) 0.2047(1) 0.0437 Uani
C17E C -0.3433(6) 0.0249(7) 0.1843(1) 0.0370 Uani
C18E C -0.4542(5) 0.0269(6) 0.1828(1) 0.0297 Uani
C19E C -0.5131(5) 0.0881(7) 0.2025(1) 0.0367 Uani
C20E C -0.4528(6) 0.1493(6) 0.2228(1) 0.0373 Uani
C21E C -0.5116(6) -0.0312(6) 0.1588(1) 0.0337 Uani
C22E C -0.6616(6) -0.0875(7) 0.1374(1) 0.0473 Uani
C23E C -0.5044(5) -0.1092(6) 0.1152(1) 0.0327 Uani
C24E C -0.4401(6) -0.1396(6) 0.0895(1) 0.0377 Uani
C25E C -0.3270(6) -0.1428(6) 0.0896(1) 0.0360 Uani
C26E C -0.2725(6) -0.1668(6) 0.0643(1) 0.0393 Uani
C27E C -0.4294(7) -0.1859(8) 0.0399(1) 0.0480 Uani
C28E C -0.4931(6) -0.1641(7) 0.0640(1) 0.0433 Uani
H15E H -0.2179 0.0870 0.2058 0.0445 Uiso
H16E H -0.3032 -0.0170 0.1712 0.0462 Uiso
H17E H -0.5895 0.0894 0.2024 0.0416 Uiso
H18E H -0.4905 0.1913 0.2367 0.0397 Uiso
H19E H -0.7393 -0.0989 0.1376 0.0574 Uiso
H20E H -0.2878 -0.1252 0.1065 0.0416 Uiso
H21E H -0.1966 -0.1682 0.0644 0.0442 Uiso
H22E H -0.4659 -0.1958 0.0221 0.0614 Uiso
H23E H -0.5702 -0.1664 0.0634 0.0507 Uiso
N11C N -0.1773(5) 0.3112(5) 0.21064(10) 0.0363 Uani
N11G N -0.3112(5) 0.1773(5) 0.28936(10) 0.0363 Uani
Zn2B Zn 0.2436 0.24362(6) 0.5000 0.0280 Uani
Zn2C Zn -0.2436 -0.24362(6) 0.0000 0.0280 Uani
Cl1 Cl 0.1930(2) 0.2606(2) 0.25007(4) 0.0480 Uani
O3 O 0.1653(5) 0.3676(5) 0.2405(1) 0.0643 Uani
O4 O 0.1100(5) 0.1858(5) 0.2409(1) 0.0713 Uani
O5 O 0.2935(5) 0.2268(6) 0.2382(1) 0.0823 Uani
O6 O 0.1970(6) 0.2542(6) 0.2805(1) 0.0773 Uani
Cl2 Cl 0.2724(2) -0.0124(2) 0.36589(5) 0.0677 Uani
O7 O 0.1845(6) -0.0805(6) 0.3598(1) 0.0803 Uani
O8 O 0.3711(7) -0.0512(7) 0.3504(2) 0.1023 Uani
O9 O 0.247(1) 0.0954(8) 0.3535(2) 0.1557 Uani
O10 O 0.2899(7) 0.009(1) 0.3930(2) 0.1613 Uani
N12 N -0.4966(8) 0.4208(8) 0.2018(2) 0.0870 Uani
C29 C -0.5763(9) 0.4003(9) 0.1905(2) 0.0743 Uani
C30 C -0.6773(8) 0.3773(10) 0.1769(2) 0.0767 Uani
H24 H -0.6930 0.4291 0.1624 0.0885 Uiso
H25 H -0.7349 0.3763 0.1905 0.0885 Uiso
H26 H -0.6763 0.3065 0.1676 0.0885 Uiso
loop_
_atom_site_aniso_label
_atom_site_aniso_U_11
_atom_site_aniso_U_22
_atom_site_aniso_U_33
_atom_site_aniso_U_23
_atom_site_aniso_U_13
_atom_site_aniso_U_12
Zn1 0.0378(4) 0.0378 0.0134(4) 0.0007(4) 0.0007 0.0073(5)
N1 0.036(3) 0.034(3) 0.016(2) 0.001(2) -0.004(2) 0.000(3)
N2 0.046(4) 0.038(4) 0.022(2) -0.001(2) 0.009(2) 0.004(3)
N3 0.049(4) 0.041(4) 0.030(3) 0.008(3) 0.010(3) -0.001(3)
N4 0.065(5) 0.033(3) 0.036(3) -0.001(3) 0.016(3) 0.001(3)
N5 0.048(4) 0.045(4) 0.020(2) -0.011(2) 0.001(2) -0.006(3)
N6 0.031(3) 0.055(4) 0.033(3) 0.001(3) -0.003(3) -0.003(3)
C1 0.050(4) 0.031(4) 0.023(3) 0.003(3) -0.002(3) -0.005(3)
C2 0.038(4) 0.031(4) 0.024(3) 0.005(3) 0.007(3) -0.004(3)
C3 0.030(4) 0.037(4) 0.018(2) 0.005(2) -0.001(2) 0.006(3)
C4 0.030(4) 0.031(4) 0.025(2) 0.003(3) -0.006(3) 0.004(3)
C5 0.032(4) 0.042(4) 0.025(3) 0.005(3) 0.009(3) -0.001(3)
C6 0.033(4) 0.027(4) 0.025(3) 0.007(3) 0.003(2) -0.002(3)
C7 0.063(5) 0.030(4) 0.039(3) 0.003(3) 0.015(4) 0.004(4)
C8 0.050(5) 0.041(4) 0.020(3) 0.005(3) 0.008(3) -0.009(4)
C9 0.055(5) 0.040(4) 0.023(3) 0.004(3) 0.010(3) -0.008(4)
C10 0.056(5) 0.042(5) 0.019(2) 0.002(3) 0.011(3) -0.005(3)
C11 0.054(5) 0.041(4) 0.020(2) 0.000(3) 0.005(3) -0.015(4)
C12 0.063(5) 0.048(5) 0.017(3) -0.010(3) 0.010(3) -0.011(4)
C13 0.056(5) 0.043(4) 0.022(3) 0.000(3) 0.005(3) -0.011(4)
C14 0.040(4) 0.073(6) 0.026(3) 0.011(4) 0.009(3) -0.007(4)
C15 0.068(7) 0.118(9) 0.043(4) 0.006(5) -0.014(4) -0.033(7)
N1E 0.034 0.036 0.016 -0.004 0.001 0
N2E 0.038 0.046 0.022 0.009 -0.001 0.004
N3E 0.041 0.049 0.03 0.01 0.008 -0.001
N4E 0.033 0.065 0.036 0.016 -0.001 0.001
N5E 0.045 0.048 0.02 0.001 -0.011 -0.006
C1E 0.031 0.05 0.023 -0.002 0.003 -0.005
C2E 0.031 0.038 0.024 0.007 0.005 -0.004
C3E 0.037 0.03 0.018 -0.001 0.005 0.006
C4E 0.031 0.03 0.025 -0.006 0.003 0.004
C5E 0.042 0.032 0.025 0.009 0.005 -0.001
C6E 0.027 0.033 0.025 0.003 0.007 -0.002
C7E 0.03 0.063 0.039 0.015 0.003 0.004
C8E 0.041 0.05 0.02 0.008 0.005 -0.009
C9E 0.04 0.055 0.023 0.01 0.004 -0.008
C10E 0.042 0.056 0.019 0.011 0.002 -0.005
C11E 0.041 0.054 0.02 0.005 0 -0.015
C12E 0.048 0.063 0.017 0.01 -0.01 -0.011
C13E 0.043 0.056 0.022 0.005 0 -0.011
N6E 0.055 0.031 0.033 -0.003 0.001 -0.003
C14E 0.073 0.04 0.026 0.009 0.011 -0.007
C15E 0.118 0.068 0.043 -0.014 0.006 -0.033
N5C 0.045 0.048 0.02 -0.001 -0.011 0.006
N5G 0.048 0.045 0.02 -0.011 -0.001 0.006
Zn1B 0.0378 0.0378 0.0134 0.0007 -0.0007 -0.0073
Zn1C 0.0378 0.0378 0.0134 -0.0007 0.0007 -0.0073
Zn2 0.0332(4) 0.0332 0.0175(4) 0.0006(3) 0.0006 -0.0060(5)
O1 0.064(3) 0.0639 0.036(3) 0.008(3) 0.0076 0.002(4)
O2 0.048(3) 0.0476 0.047(4) -0.012(3) -0.0121 0.004(4)
N7 0.041(3) 0.034(3) 0.020(2) 0.004(2) -0.004(2) -0.002(2)
N8 0.044(4) 0.037(4) 0.020(2) 0.000(2) -0.002(2) -0.002(3)
N9 0.056(4) 0.026(3) 0.039(3) 0.009(2) -0.017(3) -0.006(3)
N10 0.060(4) 0.034(4) 0.034(3) 0.005(3) -0.009(3) -0.009(3)
N11 0.053(4) 0.036(3) 0.020(2) -0.002(2) -0.003(3) 0.004(3)
C16 0.058(5) 0.035(4) 0.038(3) -0.005(3) -0.015(4) 0.007(4)
C17 0.055(5) 0.030(4) 0.026(3) -0.001(3) -0.012(3) 0.008(4)
C18 0.039(4) 0.027(4) 0.023(3) -0.004(3) 0.000(3) -0.009(3)
C19 0.060(5) 0.023(4) 0.027(3) 0.005(3) -0.003(3) -0.009(3)
C20 0.043(4) 0.040(4) 0.029(3) 0.005(3) -0.005(3) -0.004(3)
C21 0.040(4) 0.039(4) 0.022(2) 0.000(3) 0.003(3) -0.001(3)
C22 0.076(6) 0.034(4) 0.032(3) 0.003(3) -0.011(4) -0.016(4)
C23 0.047(4) 0.026(4) 0.025(3) 0.003(3) -0.002(3) -0.004(3)
C24 0.044(5) 0.041(4) 0.028(3) 0.010(3) -0.005(3) -0.002(4)
C25 0.053(5) 0.032(4) 0.023(3) 0.000(3) -0.004(3) -0.003(3)
C26 0.050(5) 0.040(4) 0.028(3) 0.003(3) -0.003(3) -0.006(4)
C27 0.071(6) 0.051(5) 0.022(3) -0.002(3) -0.011(4) -0.002(5)
C28 0.075(6) 0.022(4) 0.033(3) 0.001(3) -0.005(4) 0.000(4)
N7E 0.034 0.041 0.02 -0.004 0.004 -0.002
N8E 0.037 0.044 0.02 -0.002 0 -0.002
N9E 0.026 0.056 0.039 -0.017 0.009 -0.006
N10E 0.034 0.06 0.034 -0.009 0.005 -0.009
N11E 0.036 0.053 0.02 -0.003 -0.002 0.004
C16E 0.035 0.058 0.038 -0.015 -0.005 0.007
C17E 0.03 0.055 0.026 -0.012 -0.001 0.008
C18E 0.027 0.039 0.023 0 -0.004 -0.009
C19E 0.023 0.06 0.027 -0.003 0.005 -0.009
C20E 0.04 0.043 0.029 -0.005 0.005 -0.004
C21E 0.039 0.04 0.022 0.003 0 -0.001
C22E 0.034 0.076 0.032 -0.011 0.003 -0.016
C23E 0.026 0.047 0.025 -0.002 0.003 -0.004
C24E 0.041 0.044 0.028 -0.005 0.01 -0.002
C25E 0.032 0.053 0.023 -0.004 0 -0.003
C26E 0.04 0.05 0.028 -0.003 0.003 -0.006
C27E 0.051 0.071 0.022 -0.011 -0.002 -0.002
C28E 0.022 0.075 0.033 -0.005 0.001 0
N11C 0.036 0.053 0.02 0.003 -0.002 -0.004
N11G 0.053 0.036 0.02 -0.002 0.003 -0.004
Zn2B 0.0332 0.0332 0.0175 0.0006 -0.0006 0.006
Zn2C 0.0332 0.0332 0.0175 -0.0006 0.0006 0.006
Cl1 0.047(1) 0.054(1) 0.0430(8) -0.005(1) -0.006(1) 0.0042(9)
O3 0.071(4) 0.056(4) 0.066(3) 0.002(3) -0.009(3) -0.007(3)
O4 0.070(4) 0.059(4) 0.085(4) -0.005(3) -0.010(3) -0.009(3)
O5 0.065(4) 0.099(6) 0.083(4) 0.019(4) 0.026(4) 0.020(4)
O6 0.097(5) 0.081(5) 0.054(3) -0.004(3) -0.003(3) -0.005(4)
Cl2 0.068(2) 0.071(2) 0.064(1) -0.012(1) -0.020(1) -0.020(1)
O7 0.075(5) 0.070(5) 0.096(5) 0.022(4) -0.042(4) -0.033(4)
O8 0.088(6) 0.123(7) 0.096(5) -0.021(5) 0.011(4) -0.028(6)
O9 0.19(1) 0.077(7) 0.20(1) 0.001(7) 0.035(9) -0.035(8)
O10 0.090(7) 0.33(2) 0.064(4) -0.068(7) -0.009(4) -0.038(8)
N12 0.063(6) 0.095(7) 0.103(6) 0.007(6) -0.021(5) 0.004(5)
C29 0.055(6) 0.077(7) 0.091(7) 0.007(6) -0.017(5) 0.015(6)
C30 0.051(6) 0.131(10) 0.048(4) 0.007(5) -0.006(4) 0.003(6)
loop_
_geom_bond_atom_site_label_1
_geom_bond_atom_site_label_2
_geom_bond_site_symmetry_1
_geom_bond_site_symmetry_2
Zn1 N1 1_555 1_555
Zn2 O1 1_555 1_555
Cl1 O3 1_555 1_555
Cl2 O7 1_555 1_555
O1 H2 1_555 1_555
O2 Zn2 1_555 1_555
O4 Cl1 1_555 1_555
O5 Cl1 1_555 1_555
O6 Cl1 1_555 1_555
O8 Cl2 1_555 1_555
O9 Cl2 1_555 1_555
O10 Cl2 1_555 1_555
N1 C1 1_555 1_555
N2 C6 1_555 1_555
N3 C6 1_555 1_555
N4 C7 1_555 1_555
N5 C11 1_555 1_555
N6 Zn1 1_555 1_555
N7 Zn2 1_555 1_555
N8 C21 1_555 1_555
N9 C21 1_555 1_555
N10 C22 1_555 1_555
N11 C26 1_555 1_555
N12 C29 1_555 1_555
C1 C2 1_555 1_555
C2 C3 1_555 1_555
C3 C4 1_555 1_555
C4 C5 1_555 1_555
C5 N1 1_555 1_555
C6 C3 1_555 1_555
C7 N3 1_555 1_555
C8 N2 1_555 1_555
C9 C8 1_555 1_555
C10 C9 1_555 1_555
C11 C10 1_555 1_555
C12 N5 1_555 1_555
C13 C9 1_555 1_555
C14 N6 1_555 1_555
C15 C14 1_555 1_555
C16 N7 1_555 1_555
C17 C16 1_555 1_555
C18 C17 1_555 1_555
C19 C18 1_555 1_555
C20 N7 1_555 1_555
C21 C18 1_555 1_555
C22 N9 1_555 1_555
C23 N8 1_555 1_555
C24 C23 1_555 1_555
C25 C24 1_555 1_555
C26 C25 1_555 1_555
C27 N11 1_555 1_555
C28 C24 1_555 1_555
C29 C30 1_555 1_555
C30 H24 1_555 1_555
H1 C1 1_555 1_555
H3 C2 1_555 1_555
H4 O2 1_555 1_555
H5 C4 1_555 1_555
H6 C5 1_555 1_555
H7 C7 1_555 1_555
H8 C10 1_555 1_555
H9 C11 1_555 1_555
H10 C12 1_555 1_555
H11 C13 1_555 1_555
H12 C15 1_555 1_555
H13 C15 1_555 1_555
H14 C15 1_555 1_555
H15 C16 1_555 1_555
H16 C17 1_555 1_555
H17 C19 1_555 1_555
H18 C20 1_555 1_555
H19 C22 1_555 1_555
H20 C25 1_555 1_555
H21 C26 1_555 1_555
H22 C27 1_555 1_555
H23 C28 1_555 1_555
H25 C30 1_555 1_555
H26 C30 1_555 1_555
H2E O1 1_555 1_555
H4E O2 1_555 1_555
N1E Zn1 1_555 1_555
N2E C6E 1_555 1_555
N3E C6E 1_555 1_555
N4E C7E 1_555 1_555
N5E C11E 1_555 1_555
C1E N1E 1_555 1_555
C2E C1E 1_555 1_555
C3E C2E 1_555 1_555
C4E C3E 1_555 1_555
C5E N1E 1_555 1_555
C6E C3E 1_555 1_555
C7E N3E 1_555 1_555
C8E N2E 1_555 1_555
C9E C8E 1_555 1_555
C10E C9E 1_555 1_555
C11E C10E 1_555 1_555
C12E N5E 1_555 1_555
C13E C9E 1_555 1_555
H1E C1E 1_555 1_555
H3E C2E 1_555 1_555
H5E C4E 1_555 1_555
H6E C5E 1_555 1_555
H7E C7E 1_555 1_555
H8E C10E 1_555 1_555
H9E C11E 1_555 1_555
H10E C12E 1_555 1_555
H11E C13E 1_555 1_555
N6E Zn1 1_555 1_555
C14E N6E 1_555 1_555
C15E C14E 1_555 1_555
H12E C15E 1_555 1_555
H13E C15E 1_555 1_555
H14E C15E 1_555 1_555
N7E Zn2 1_555 1_555
N8E C21E 1_555 1_555
N9E C21E 1_555 1_555
N10E C22E 1_555 1_555
N11E C26E 1_555 1_555
C16E N7E 1_555 1_555
C17E C16E 1_555 1_555
C18E C17E 1_555 1_555
C19E C18E 1_555 1_555
C20E N7E 1_555 1_555
C21E C18E 1_555 1_555
C22E N9E 1_555 1_555
C23E N8E 1_555 1_555
C24E C23E 1_555 1_555
C25E C24E 1_555 1_555
C26E C25E 1_555 1_555
C27E N11E 1_555 1_555
C28E C24E 1_555 1_555
H15E C16E 1_555 1_555
H16E C17E 1_555 1_555
H17E C19E 1_555 1_555
H18E C20E 1_555 1_555
H19E C22E 1_555 1_555
H20E C25E 1_555 1_555
H21E C26E 1_555 1_555
H22E C27E 1_555 1_555
H23E C28E 1_555 1_555
N5C Zn1 1_555 1_555
N5G Zn1 1_555 1_555
N11C Zn2 1_555 1_555
N11G Zn2 1_555 1_555
Zn1B N5 1_555 1_555
Zn2B N11 1_555 1_555
Zn1C N5E 1_555 1_555
Zn2C N11E 1_555 1_555
N4 C8 1_555 1_555
N10 C23 1_555 1_555
C12 C13 1_555 1_555
C19 C20 1_555 1_555
C27 C28 1_555 1_555
N4E C8E 1_555 1_555
C4E C5E 1_555 1_555
C12E C13E 1_555 1_555
N10E C23E 1_555 1_555
C19E C20E 1_555 1_555
C27E C28E 1_555 1_555

#END
