
#######################################################################
#
#                 Cambridge Crystallographic Data Centre
#                                CCDC 
#
#######################################################################
#
# If this CIF has been generated from an entry in the Cambridge 
# Structural Database, then it will include bibliographic, chemical, 
# crystal, experimental, refinement or atomic coordinate data resulting 
# from the CCDC's data processing and validation procedures.
#
#######################################################################

data_GUXSEY
_chemical_formula_moiety         '(C16 H16 Eu1 N3 O9)n'
_symmetry_cell_setting           orthorhombic
_symmetry_space_group_name_H-M   'F d d d'
_symmetry_Int_Tables_number      70
_space_group_name_Hall           '-F 2uv 2vw'
loop_
_symmetry_equiv_pos_site_id
_symmetry_equiv_pos_as_xyz
1 x,y,z
2 1/4-x,1/4-y,z
3 x,1/4-y,1/4-z
4 1/4-x,y,1/4-z
5 x,1/2+y,1/2+z
6 1/4-x,3/4-y,1/2+z
7 x,3/4-y,3/4-z
8 1/4-x,1/2+y,3/4-z
9 1/2+x,y,1/2+z
10 3/4-x,1/4-y,1/2+z
11 1/2+x,1/4-y,3/4-z
12 3/4-x,y,3/4-z
13 1/2+x,1/2+y,z
14 3/4-x,3/4-y,z
15 1/2+x,3/4-y,1/4-z
16 3/4-x,1/2+y,1/4-z
17 -x,-y,-z
18 3/4+x,3/4+y,-z
19 -x,3/4+y,3/4+z
20 3/4+x,-y,3/4+z
21 -x,1/2-y,1/2-z
22 3/4+x,1/4+y,1/2-z
23 -x,1/4+y,1/4+z
24 3/4+x,1/2-y,1/4+z
25 1/2-x,-y,1/2-z
26 1/4+x,3/4+y,1/2-z
27 1/2-x,3/4+y,1/4+z
28 1/4+x,-y,1/4+z
29 1/2-x,1/2-y,-z
30 1/4+x,1/4+y,-z
31 1/2-x,1/4+y,3/4+z
32 1/4+x,1/2-y,3/4+z
_cell_length_a                   26.7127(8)
_cell_length_b                   17.9748(7)
_cell_length_c                   17.8024(7)
_cell_angle_alpha                90
_cell_angle_beta                 90
_cell_angle_gamma                90
_cell_volume                     8547.92
loop_
_atom_site_label
_atom_site_type_symbol
_atom_site_fract_x
_atom_site_fract_y
_atom_site_fract_z
_atom_site_U_iso_or_equiv
_atom_site_thermal_displace_type
Eu1 Eu -0.1250 0.3750 0.502045(17) 0.0122 Uani
O2 O -0.07363(15) 0.2961(2) 0.4332(2) 0.0387 Uani
N1 N 0.04515(14) 0.1335(2) 0.3331(2) 0.0167 Uani
C1 C -0.05943(18) 0.2666(3) 0.3743(3) 0.0210 Uani
O3 O -0.06981(14) 0.2879(2) 0.3098(2) 0.0360 Uani
C2 C -0.02579(19) 0.1998(3) 0.3805(3) 0.0223 Uani
O4 O 0.11357(12) 0.02812(19) 0.3412(2) 0.0246 Uani
C3 C 0.01284(18) 0.1896(3) 0.3314(3) 0.0203 Uani
H1 H 0.0169 0.2248 0.2936 0.0250 Uiso
O5 O 0.0684(2) -0.0365(4) 0.4212(5) 0.1460 Uani
C4 C -0.0317(3) 0.1478(5) 0.4335(5) 0.0943 Uani
H2 H -0.0570 0.1523 0.4692 0.1130 Uiso
C5 C 0.0001(3) 0.0874(6) 0.4345(6) 0.1267 Uani
H3 H -0.0046 0.0500 0.4699 0.1520 Uiso
C6 C 0.0385(2) 0.0818(4) 0.3842(4) 0.0477 Uani
C7 C 0.0764(3) 0.0190(4) 0.3830(4) 0.0593 Uani
Eu1R Eu 0.1250 0.1250 0.252045(17) 0.0122 Uani
Eu1F Eu -0.1250 0.3750 0.247955(17) 0.0122 Uani
Eu1P Eu 0.1250 0.6250 0.497955(17) 0.0122 Uani
O2F O -0.07363(15) 0.4539(2) 0.3168(2) 0.0387 Uani
O2M O -0.17637(15) 0.4539(2) 0.4332(2) 0.0387 Uani
N1F N 0.04515(14) 0.6165(2) 0.4169(2) 0.0167 Uani
N1V N -0.04515(14) 0.3835(2) 0.5831(2) 0.0167 Uani
N1W N -0.20485(14) 0.3665(2) 0.5831(2) 0.0167 Uani
C1F C -0.05943(18) 0.4834(3) 0.3757(3) 0.0210 Uani
O3F O -0.06981(14) 0.4621(2) 0.4402(2) 0.0360 Uani
O3K O -0.18019(14) 0.2879(2) 0.4402(2) 0.0360 Uani
C2F C -0.02579(19) 0.5502(3) 0.3695(3) 0.0223 Uani
O4F O 0.11357(12) 0.72188(19) 0.4088(2) 0.0246 Uani
O4V O -0.11357(12) 0.27812(19) 0.5912(2) 0.0246 Uani
O4W O -0.13643(12) 0.47188(19) 0.5912(2) 0.0246 Uani
C3F C 0.01284(18) 0.5604(3) 0.4186(3) 0.0203 Uani
H1F H 0.0169 0.5252 0.4564 0.0250 Uiso
O5F O 0.0684(2) 0.7865(4) 0.3288(5) 0.1460 Uani
C4F C -0.0317(3) 0.6022(5) 0.3165(5) 0.0943 Uani
H2F H -0.0570 0.5977 0.2808 0.1130 Uiso
C5F C 0.0001(3) 0.6626(6) 0.3155(6) 0.1267 Uani
H3F H -0.0046 0.7000 0.2801 0.1520 Uiso
C6F C 0.0385(2) 0.6682(4) 0.3658(4) 0.0477 Uani
C7F C 0.0764(3) 0.7310(4) 0.3670(4) 0.0593 Uani
O1 O 0.3750 0.040(2) 0.8750 0.2170 Uiso
N2 N 0.1499(3) 0.8750 0.3750 0.0613 Uani
H4 H 0.1299 0.8355 0.3832 0.0920 Uiso
C8 C 0.1774(3) 0.8885(4) 0.4413(5) 0.0683 Uani
H5 H 0.2064 0.8569 0.4423 0.1020 Uiso
H6 H 0.1568 0.8783 0.4842 0.1020 Uiso
H7 H 0.1878 0.9396 0.4424 0.1020 Uiso
H4F H 0.1299 0.9145 0.3668 0.0920 Uiso
C8F C 0.1774(3) 0.8615(4) 0.3087(5) 0.0683 Uani
H5F H 0.2064 0.8931 0.3077 0.1020 Uiso
H6F H 0.1568 0.8717 0.2658 0.1020 Uiso
H7F H 0.1878 0.8104 0.3076 0.1020 Uiso
loop_
_atom_site_aniso_label
_atom_site_aniso_U_11
_atom_site_aniso_U_22
_atom_site_aniso_U_33
_atom_site_aniso_U_23
_atom_site_aniso_U_13
_atom_site_aniso_U_12
Eu1 0.0101(2) 0.01213(19) 0.0145(2) 0.000 0.000 -0.00296(12)
O2 0.037(2) 0.050(3) 0.029(2) -0.0139(19) 0.0026(19) 0.0191(19)
N1 0.014(2) 0.017(2) 0.019(2) -0.0007(17) 0.0001(17) 0.0039(16)
C1 0.013(3) 0.025(3) 0.025(3) 0.004(2) 0.002(2) 0.003(2)
O3 0.029(2) 0.048(3) 0.031(2) 0.0126(19) 0.0053(18) 0.0248(18)
C2 0.017(3) 0.027(3) 0.023(3) 0.005(2) 0.004(2) 0.008(2)
O4 0.020(2) 0.0208(18) 0.033(2) 0.0097(16) 0.0070(17) 0.0090(15)
C3 0.023(3) 0.022(3) 0.016(3) 0.005(2) 0.002(2) 0.006(2)
O5 0.094(5) 0.111(5) 0.233(8) 0.151(6) 0.121(5) 0.081(4)
C4 0.074(6) 0.110(7) 0.099(7) 0.079(6) 0.071(5) 0.072(5)
C5 0.093(7) 0.130(9) 0.157(10) 0.125(8) 0.102(7) 0.090(7)
C6 0.031(4) 0.047(4) 0.065(5) 0.039(3) 0.029(3) 0.021(3)
C7 0.040(4) 0.053(4) 0.085(6) 0.050(4) 0.035(4) 0.027(3)
Eu1R 0.0101 0.01213 0.0145 0 0 0.00296
Eu1F 0.0101 0.01213 0.0145 0 0 0.00296
Eu1P 0.0101 0.01213 0.0145 0 0 -0.00296
O2F 0.037 0.05 0.029 -0.0139 -0.0026 -0.0191
O2M 0.037 0.05 0.029 0.0139 -0.0026 0.0191
N1F 0.014 0.017 0.019 -0.0007 -0.0001 -0.0039
N1V 0.014 0.017 0.019 -0.0007 -0.0001 -0.0039
N1W 0.014 0.017 0.019 0.0007 0.0001 -0.0039
C1F 0.013 0.025 0.025 0.004 -0.002 -0.003
O3F 0.029 0.048 0.031 0.0126 -0.0053 -0.0248
O3K 0.029 0.048 0.031 -0.0126 0.0053 -0.0248
C2F 0.017 0.027 0.023 0.005 -0.004 -0.008
O4F 0.02 0.0208 0.033 0.0097 -0.007 -0.009
O4V 0.02 0.0208 0.033 0.0097 -0.007 -0.009
O4W 0.02 0.0208 0.033 -0.0097 0.007 -0.009
C3F 0.023 0.022 0.016 0.005 -0.002 -0.006
O5F 0.094 0.111 0.233 0.151 -0.121 -0.081
C4F 0.074 0.11 0.099 0.079 -0.071 -0.072
C5F 0.093 0.13 0.157 0.125 -0.102 -0.09
C6F 0.031 0.047 0.065 0.039 -0.029 -0.021
C7F 0.04 0.053 0.085 0.05 -0.035 -0.027
N2 0.026(5) 0.039(5) 0.119(8) -0.024(5) 0.000 0.000
C8 0.065(6) 0.066(6) 0.074(6) 0.031(4) 0.011(5) 0.028(4)
C8F 0.065 0.066 0.074 0.031 -0.011 -0.028
loop_
_geom_bond_atom_site_label_1
_geom_bond_atom_site_label_2
_geom_bond_site_symmetry_1
_geom_bond_site_symmetry_2
Eu1 O2 1_555 1_555
O2 C1 1_555 1_555
N1 C3 1_555 1_555
C1 O3 1_555 1_555
O3 Eu1F 1_555 1_555
C2 C1 1_555 1_555
O4 C7 1_555 1_555
C3 C2 1_555 1_555
H1 C3 1_555 1_555
O5 C7 1_555 1_555
C4 C2 1_555 1_555
H2 C4 1_555 1_555
C5 C4 1_555 1_555
H3 C5 1_555 1_555
C6 N1 1_555 1_555
C7 C6 1_555 1_555
N2 H4 1_555 1_555
C8 N2 1_555 1_555
H5 C8 1_555 1_555
H6 C8 1_555 1_555
H7 C8 1_555 1_555
Eu1R N1 1_555 1_555
Eu1F O2F 1_555 1_555
Eu1P N1F 1_555 1_555
O2F C1F 1_555 1_555
O2M Eu1 1_555 1_555
N1F C3F 1_555 1_555
N1V Eu1 1_555 1_555
N1W Eu1 1_555 1_555
C1F O3F 1_555 1_555
O3F Eu1 1_555 1_555
O3K Eu1 1_555 1_555
C2F C1F 1_555 1_555
O4F Eu1P 1_555 1_555
O4V Eu1 1_555 1_555
O4W Eu1 1_555 1_555
C3F C2F 1_555 1_555
H1F C3F 1_555 1_555
O5F C7F 1_555 1_555
C4F C2F 1_555 1_555
H2F C4F 1_555 1_555
C5F C4F 1_555 1_555
H3F C5F 1_555 1_555
C6F N1F 1_555 1_555
C7F O4F 1_555 1_555
H4F N2 1_555 1_555
C8F N2 1_555 1_555
H5F C8F 1_555 1_555
H6F C8F 1_555 1_555
H7F C8F 1_555 1_555
O4 Eu1R 1_555 1_555
C5 C6 1_555 1_555
C5F C6F 1_555 1_555
C6F C7F 1_555 1_555

#END
