
#######################################################################
#
#                 Cambridge Crystallographic Data Centre
#                                CCDC 
#
#######################################################################
#
# If this CIF has been generated from an entry in the Cambridge 
# Structural Database, then it will include bibliographic, chemical, 
# crystal, experimental, refinement or atomic coordinate data resulting 
# from the CCDC's data processing and validation procedures.
#
#######################################################################

data_GUXSIC
_chemical_formula_moiety         '(C16 H16 Er1 N3 O9)n'
_symmetry_cell_setting           orthorhombic
_symmetry_space_group_name_H-M   'F d d d'
_symmetry_Int_Tables_number      70
_space_group_name_Hall           '-F 2uv 2vw'
loop_
_symmetry_equiv_pos_site_id
_symmetry_equiv_pos_as_xyz
1 x,y,z
2 1/4-x,1/4-y,z
3 x,1/4-y,1/4-z
4 1/4-x,y,1/4-z
5 x,1/2+y,1/2+z
6 1/4-x,3/4-y,1/2+z
7 x,3/4-y,3/4-z
8 1/4-x,1/2+y,3/4-z
9 1/2+x,y,1/2+z
10 3/4-x,1/4-y,1/2+z
11 1/2+x,1/4-y,3/4-z
12 3/4-x,y,3/4-z
13 1/2+x,1/2+y,z
14 3/4-x,3/4-y,z
15 1/2+x,3/4-y,1/4-z
16 3/4-x,1/2+y,1/4-z
17 -x,-y,-z
18 3/4+x,3/4+y,-z
19 -x,3/4+y,3/4+z
20 3/4+x,-y,3/4+z
21 -x,1/2-y,1/2-z
22 3/4+x,1/4+y,1/2-z
23 -x,1/4+y,1/4+z
24 3/4+x,1/2-y,1/4+z
25 1/2-x,-y,1/2-z
26 1/4+x,3/4+y,1/2-z
27 1/2-x,3/4+y,1/4+z
28 1/4+x,-y,1/4+z
29 1/2-x,1/2-y,-z
30 1/4+x,1/4+y,-z
31 1/2-x,1/4+y,3/4+z
32 1/4+x,1/2-y,3/4+z
_cell_length_a                   26.4473(16)
_cell_length_b                   17.9442(10)
_cell_length_c                   17.3804(11)
_cell_angle_alpha                90
_cell_angle_beta                 90
_cell_angle_gamma                90
_cell_volume                     8248.31
loop_
_atom_site_label
_atom_site_type_symbol
_atom_site_fract_x
_atom_site_fract_y
_atom_site_fract_z
_atom_site_U_iso_or_equiv
_atom_site_thermal_displace_type
Er1 Er -0.1250 0.3750 0.502830(12) 0.0105 Uani
O1 O -0.07023(12) 0.30226(19) 0.43530(19) 0.0312 Uani
O2 O -0.07425(12) 0.28598(18) 0.30908(18) 0.0289 Uani
O3 O 0.11390(11) 0.02876(17) 0.33944(18) 0.0228 Uani
O4 O 0.0675(2) -0.0369(4) 0.4195(5) 0.1610 Uani
N1 N 0.04608(13) 0.13568(19) 0.33308(19) 0.0155 Uani
C1 C -0.05963(15) 0.2690(2) 0.3750(3) 0.0167 Uani
C2 C -0.02601(17) 0.2018(3) 0.3812(3) 0.0217 Uani
C3 C 0.01407(16) 0.1929(2) 0.3321(2) 0.0187 Uani
H1 H 0.0193 0.2297 0.2953 0.0220 Uiso
C4 C -0.0334(3) 0.1478(5) 0.4343(5) 0.1017 Uani
H2 H -0.0595 0.1514 0.4699 0.1220 Uiso
C5 C -0.0014(3) 0.0876(6) 0.4345(6) 0.1390 Uani
H3 H -0.0067 0.0492 0.4695 0.1670 Uiso
C6 C 0.0383(2) 0.0834(4) 0.3842(4) 0.0547 Uani
C7 C 0.0758(2) 0.0191(4) 0.3815(4) 0.0627 Uani
Er1F Er -0.1250 0.3750 0.247170(12) 0.0105 Uani
Er1R Er 0.1250 0.1250 0.252830(12) 0.0105 Uani
Er1P Er 0.1250 0.6250 0.497170(12) 0.0105 Uani
O1F O -0.07023(12) 0.44774(19) 0.31470(19) 0.0312 Uani
O1M O -0.17977(12) 0.44774(19) 0.43530(19) 0.0312 Uani
O2F O -0.07425(12) 0.46402(18) 0.44092(18) 0.0289 Uani
O2K O -0.17575(12) 0.28598(18) 0.44092(18) 0.0289 Uani
O3F O 0.11390(11) 0.72124(17) 0.41056(18) 0.0228 Uani
O3V O -0.11390(11) 0.27876(17) 0.58944(18) 0.0228 Uani
O3W O -0.13610(11) 0.47124(17) 0.58944(18) 0.0228 Uani
O4F O 0.0675(2) 0.7869(4) 0.3305(5) 0.1610 Uani
N1F N 0.04608(13) 0.61432(19) 0.41692(19) 0.0155 Uani
N1V N -0.04608(13) 0.38568(19) 0.58308(19) 0.0155 Uani
N1W N -0.20392(13) 0.36432(19) 0.58308(19) 0.0155 Uani
C1F C -0.05963(15) 0.4810(2) 0.3750(3) 0.0167 Uani
C2F C -0.02601(17) 0.5482(3) 0.3688(3) 0.0217 Uani
C3F C 0.01407(16) 0.5571(2) 0.4179(2) 0.0187 Uani
H1F H 0.0193 0.5203 0.4547 0.0220 Uiso
C4F C -0.0334(3) 0.6022(5) 0.3157(5) 0.1017 Uani
H2F H -0.0595 0.5986 0.2801 0.1220 Uiso
C5F C -0.0014(3) 0.6624(6) 0.3155(6) 0.1390 Uani
H3F H -0.0067 0.7008 0.2805 0.1670 Uiso
C6F C 0.0383(2) 0.6666(4) 0.3658(4) 0.0547 Uani
C7F C 0.0758(2) 0.7309(4) 0.3685(4) 0.0627 Uani
N2 N 0.1499(3) 0.8750 0.3750 0.0683 Uani
H4 H 0.1297 0.9144 0.3661 0.1030 Uiso
C8 C 0.1774(3) 0.8896(4) 0.4438(4) 0.0593 Uani
H5 H 0.2091 0.8637 0.4422 0.0890 Uiso
H6 H 0.1581 0.8728 0.4873 0.0890 Uiso
H7 H 0.1834 0.9422 0.4482 0.0890 Uiso
H4F H 0.1297 0.8356 0.3839 0.1030 Uiso
C8F C 0.1774(3) 0.8604(4) 0.3062(4) 0.0593 Uani
H5F H 0.2091 0.8863 0.3078 0.0890 Uiso
H6F H 0.1581 0.8772 0.2627 0.0890 Uiso
H7F H 0.1834 0.8078 0.3018 0.0890 Uiso
O5 O 0.1250 0.958(3) 0.6250 0.2670 Uiso
loop_
_atom_site_aniso_label
_atom_site_aniso_U_11
_atom_site_aniso_U_22
_atom_site_aniso_U_33
_atom_site_aniso_U_23
_atom_site_aniso_U_13
_atom_site_aniso_U_12
Er1 0.00968(15) 0.01204(15) 0.00981(16) 0.000 0.000 -0.00284(10)
O1 0.0281(18) 0.041(2) 0.0246(18) -0.0143(15) 0.0030(14) 0.0074(16)
O2 0.0280(18) 0.0361(19) 0.0225(18) 0.0061(14) 0.0022(14) 0.0202(15)
O3 0.0187(16) 0.0227(15) 0.0270(17) 0.0113(13) 0.0058(13) 0.0052(13)
O4 0.104(5) 0.128(5) 0.251(9) 0.166(6) 0.137(6) 0.096(4)
N1 0.0123(17) 0.0193(17) 0.0149(17) 0.0012(14) -0.0009(13) 0.0025(14)
C1 0.0082(19) 0.019(2) 0.023(2) -0.0006(18) 0.0031(17) 0.0024(17)
C2 0.016(2) 0.031(2) 0.018(2) 0.0054(19) 0.0020(17) 0.0082(19)
C3 0.020(2) 0.021(2) 0.015(2) 0.0036(17) 0.0002(17) 0.0050(19)
C4 0.080(5) 0.115(7) 0.110(7) 0.093(6) 0.079(5) 0.079(5)
C5 0.103(7) 0.143(8) 0.171(10) 0.142(8) 0.117(7) 0.104(7)
C6 0.036(3) 0.058(4) 0.070(4) 0.049(3) 0.035(3) 0.028(3)
C7 0.037(3) 0.059(4) 0.092(5) 0.059(4) 0.040(3) 0.032(3)
Er1F 0.00968 0.01204 0.00981 0 0 0.00284
Er1R 0.00968 0.01204 0.00981 0 0 0.00284
Er1P 0.00968 0.01204 0.00981 0 0 -0.00284
O1F 0.0281 0.041 0.0246 -0.0143 -0.003 -0.0074
O1M 0.0281 0.041 0.0246 0.0143 -0.003 0.0074
O2F 0.028 0.0361 0.0225 0.0061 -0.0022 -0.0202
O2K 0.028 0.0361 0.0225 -0.0061 0.0022 -0.0202
O3F 0.0187 0.0227 0.027 0.0113 -0.0058 -0.0052
O3V 0.0187 0.0227 0.027 0.0113 -0.0058 -0.0052
O3W 0.0187 0.0227 0.027 -0.0113 0.0058 -0.0052
O4F 0.104 0.128 0.251 0.166 -0.137 -0.096
N1F 0.0123 0.0193 0.0149 0.0012 0.0009 -0.0025
N1V 0.0123 0.0193 0.0149 0.0012 0.0009 -0.0025
N1W 0.0123 0.0193 0.0149 -0.0012 -0.0009 -0.0025
C1F 0.0082 0.019 0.023 -0.0006 -0.0031 -0.0024
C2F 0.016 0.031 0.018 0.0054 -0.002 -0.0082
C3F 0.02 0.021 0.015 0.0036 -0.0002 -0.005
C4F 0.08 0.115 0.11 0.093 -0.079 -0.079
C5F 0.103 0.143 0.171 0.142 -0.117 -0.104
C6F 0.036 0.058 0.07 0.049 -0.035 -0.028
C7F 0.037 0.059 0.092 0.059 -0.04 -0.032
N2 0.020(4) 0.048(5) 0.137(8) -0.040(5) 0.000 0.000
C8 0.050(4) 0.065(4) 0.063(4) 0.031(4) 0.009(3) 0.022(3)
C8F 0.05 0.065 0.063 0.031 -0.009 -0.022
loop_
_geom_bond_atom_site_label_1
_geom_bond_atom_site_label_2
_geom_bond_site_symmetry_1
_geom_bond_site_symmetry_2
Er1 O1 1_555 1_555
O1 C1 1_555 1_555
O2 C1 1_555 1_555
O3 C7 1_555 1_555
O4 C7 1_555 1_555
N1 C3 1_555 1_555
C1 C2 1_555 1_555
C2 C3 1_555 1_555
C3 H1 1_555 1_555
C4 C2 1_555 1_555
H2 C4 1_555 1_555
C5 C4 1_555 1_555
H3 C5 1_555 1_555
C6 N1 1_555 1_555
C7 C6 1_555 1_555
N2 H4 1_555 1_555
C8 N2 1_555 1_555
H5 C8 1_555 1_555
H6 C8 1_555 1_555
H7 C8 1_555 1_555
Er1F O2 1_555 1_555
Er1R O3 1_555 1_555
Er1P O3F 1_555 1_555
O1F Er1F 1_555 1_555
O1M Er1 1_555 1_555
O2F Er1 1_555 1_555
O2K Er1 1_555 1_555
O3F C7F 1_555 1_555
O3V Er1 1_555 1_555
O3W Er1 1_555 1_555
O4F C7F 1_555 1_555
N1F Er1P 1_555 1_555
N1V Er1 1_555 1_555
N1W Er1 1_555 1_555
C1F O1F 1_555 1_555
C2F C1F 1_555 1_555
C3F N1F 1_555 1_555
H1F C3F 1_555 1_555
C4F C2F 1_555 1_555
H2F C4F 1_555 1_555
C5F C4F 1_555 1_555
H3F C5F 1_555 1_555
C6F N1F 1_555 1_555
C7F C6F 1_555 1_555
H4F N2 1_555 1_555
C8F N2 1_555 1_555
H5F C8F 1_555 1_555
H6F C8F 1_555 1_555
H7F C8F 1_555 1_555
N1 Er1R 1_555 1_555
C5 C6 1_555 1_555
O2F C1F 1_555 1_555
C2F C3F 1_555 1_555
C5F C6F 1_555 1_555

#END
