
#######################################################################
#
#                 Cambridge Crystallographic Data Centre
#                                CCDC 
#
#######################################################################
#
# If this CIF has been generated from an entry in the Cambridge 
# Structural Database, then it will include bibliographic, chemical, 
# crystal, experimental, refinement or atomic coordinate data resulting 
# from the CCDC's data processing and validation procedures.
#
#######################################################################

data_NIKYUC
_chemical_formula_moiety         '(C16 H20 Fe6 O25)n'
_symmetry_cell_setting           monoclinic
_symmetry_space_group_name_H-M   'P 21/c'
_symmetry_Int_Tables_number      14
_space_group_name_Hall           '-P 2ybc'
loop_
_symmetry_equiv_pos_site_id
_symmetry_equiv_pos_as_xyz
1 x,y,z
2 -x,1/2+y,1/2-z
3 -x,-y,-z
4 x,1/2-y,1/2+z
_cell_length_a                   11.4081(2)
_cell_length_b                   9.9146(2)
_cell_length_c                   18.5364(4)
_cell_angle_alpha                90
_cell_angle_beta                 126.8090(10)
_cell_angle_gamma                90
_cell_volume                     1678.61
loop_
_atom_site_label
_atom_site_type_symbol
_atom_site_fract_x
_atom_site_fract_y
_atom_site_fract_z
Fe1 Fe -0.62224(3) 0.07838(3) 0.133810(18)
Fe2 Fe -0.56989(3) 0.11204(3) -0.309030(17)
Fe3 Fe -0.5000 0.0000 0.0000
Fe4 Fe -1.0000 0.0000 0.0000
O1 O -0.55493(13) 0.19698(12) 0.24930(8)
O2 O -0.43359(14) 0.06108(13) 0.37006(8)
O3 O -0.41066(13) -0.01013(12) 0.21556(8)
O4 O -0.31881(14) -0.01409(14) 0.13765(9)
O5 O -0.54557(13) 0.25750(12) 0.10893(8)
O6 O -0.50528(14) 0.21053(13) 0.00726(9)
O7 O -0.65581(13) -0.08363(12) 0.19647(8)
O8 O -0.89728(14) -0.11458(13) 0.11868(9)
O9 O -0.66387(13) -0.02456(13) 0.02293(8)
O10 O -0.89007(14) -0.10511(13) -0.04152(9)
O11 O -0.83586(13) 0.15555(13) 0.06591(8)
O12 O -0.79736(13) 0.37562(13) 0.10176(9)
C1 C -0.48668(19) 0.1715(2) 0.33303(13)
C2 C -0.3088(2) -0.0281(2) 0.20730(14)
C3 C -0.5154(2) 0.2900(2) 0.05510(13)
C4 C -0.7693(2) -0.1360(2) 0.18343(13)
C5 C -0.7757(2) -0.09772(19) -0.03373(13)
C6 C -0.8774(2) 0.2771(2) 0.06112(13)
H1 H -0.4763(18) 0.2472(18) 0.3700(12)
H2 H -0.210(2) -0.054(2) 0.2611(14)
H3 H -0.497(2) 0.385(2) 0.0538(14)
H4 H -0.748(2) -0.200(2) 0.2288(13)
H5 H -0.7631(19) -0.1544(18) -0.0701(12)
H6 H -0.979(2) 0.2931(19) 0.0227(13)
Fe1B Fe -0.37776(3) -0.07838(3) -0.133810(18)
Fe1B_2 Fe -1.37776(3) -0.07838(3) -0.133810(18)
Fe1A Fe -0.37776(3) 0.57838(3) 0.366190(18)
Fe2B Fe -0.43011(3) -0.11204(3) 0.309030(17)
Fe2C Fe -0.56989(3) 0.38796(3) 0.190970(17)
Fe2A Fe -0.43011(3) -0.38796(3) -0.190970(17)
Fe2A_2 Fe -1.43011(3) -0.38796(3) -0.190970(17)
Fe2B_2 Fe -0.43011(3) 0.88796(3) 0.309030(17)
Fe3C Fe -0.5000 0.5000 0.5000
Fe4_2 Fe 0.0000 0.0000 0.0000
O1B O -0.44507(13) -0.19698(12) -0.24930(8)
O1C O -0.55493(13) 0.30302(12) -0.25070(8)
O1A O -0.44507(13) 0.69698(12) 0.25070(8)
O2B O -0.56641(14) -0.06108(13) -0.37006(8)
O2A O -0.56641(14) 0.56108(13) 0.12994(8)
O3B O -0.58934(13) 0.01013(12) -0.21556(8)
O3A O -0.58934(13) 0.48987(12) 0.28444(8)
O4B O -0.68119(14) 0.01409(14) -0.13765(9)
O4A O -0.68119(14) 0.48591(14) 0.36235(9)
O5B O -0.45443(13) -0.25750(12) -0.10893(8)
O5C O -0.54557(13) 0.24250(12) -0.39107(8)
O6B O -0.49472(14) -0.21053(13) -0.00726(9)
O7B O -0.34419(13) 0.08363(12) -0.19647(8)
O7A O -0.34419(13) 0.41637(12) 0.30353(8)
O8B O -1.10272(14) 0.11458(13) -0.11868(9)
O9B O -0.33613(13) 0.02456(13) -0.02293(8)
O10B O -0.10993(14) 0.10511(13) 0.04152(9)
O10B_2 O -1.10993(14) 0.10511(13) 0.04152(9)
O11B O -1.16414(13) -0.15555(13) -0.06591(8)
O11B_2 O -0.16414(13) -0.15555(13) -0.06591(8)
O12C O -0.79736(13) 0.12438(13) -0.39824(9)
O12B O -1.20264(13) -0.37562(13) -0.10176(9)
C1A C -0.51332(19) 0.6715(2) 0.16697(13)
C2B C -0.6912(2) 0.0281(2) -0.20730(14)
C2A C -0.6912(2) 0.4719(2) 0.29270(14)
C3B C -0.4846(2) -0.2900(2) -0.05510(13)
C5B C -0.2243(2) 0.09772(19) 0.03373(13)
C6B C -1.1226(2) -0.2771(2) -0.06112(13)
H1A H -0.5237(18) 0.7472(18) 0.1300(12)
H2B H -0.790(2) 0.054(2) -0.2611(14)
H2A H -0.790(2) 0.446(2) 0.2389(14)
H3B H -0.503(2) -0.385(2) -0.0538(14)
H5B H -0.2369(19) 0.1544(18) 0.0701(12)
H6B H -1.021(2) -0.2931(19) -0.0227(13)
O13 O -0.2276(2) 0.49143(18) 0.16000(12)
C7 C -0.1790(3) 0.6192(2) 0.20454(17)
H7 H -0.1489 0.6117 0.2668
H8 H -0.2583 0.6869 0.1716
C8 C -0.0513(2) 0.6591(3) 0.20538(16)
H9 H 0.0412 0.6200 0.2579
H10 H -0.0414 0.7583 0.2061
C9 C -0.0923(3) 0.5995(3) 0.11816(16)
H11 H -0.1613 0.6585 0.0663
H12 H -0.0048 0.5832 0.1202
C10 C -0.1642(3) 0.4689(3) 0.11380(16)
H13 H -0.2407 0.4433 0.0503
H14 H -0.0908 0.3956 0.1432
loop_
_geom_bond_atom_site_label_1
_geom_bond_atom_site_label_2
_geom_bond_site_symmetry_1
_geom_bond_site_symmetry_2
Fe1 O1 1_555 1_555
Fe2 O1C 1_555 1_555
Fe3 O4 1_555 1_555
Fe4 O8 1_555 1_555
O1 C1 1_555 1_555
O2 C1 1_555 1_555
O3 Fe1 1_555 1_555
O4 C2 1_555 1_555
O5 Fe1 1_555 1_555
O6 Fe3 1_555 1_555
O7 Fe1 1_555 1_555
O8 C4 1_555 1_555
O9 Fe1 1_555 1_555
O10 Fe4 1_555 1_555
O11 Fe1 1_555 1_555
O12 C6 1_555 1_555
C1 H1 1_555 1_555
C2 O3 1_555 1_555
C3 O5 1_555 1_555
C4 O7 1_555 1_555
C5 O9 1_555 1_555
C6 O11 1_555 1_555
H2 C2 1_555 1_555
H3 C3 1_555 1_555
H4 C4 1_555 1_555
H5 C5 1_555 1_555
H6 C6 1_555 1_555
O13 C7 1_555 1_555
C7 H7 1_555 1_555
H8 C7 1_555 1_555
C8 C7 1_555 1_555
H9 C8 1_555 1_555
H10 C8 1_555 1_555
C9 C8 1_555 1_555
H11 C9 1_555 1_555
H12 C9 1_555 1_555
C10 O13 1_555 1_555
H13 C10 1_555 1_555
H14 C10 1_555 1_555
Fe1B O1B 1_555 1_555
Fe1B_2 O11B 1_555 1_555
Fe1A O1A 1_555 1_555
Fe2B O2 1_555 1_555
Fe2C O1 1_555 1_555
Fe2A O1B 1_555 1_555
Fe2A_2 O12B 1_555 1_555
Fe2B_2 O1A 1_555 1_555
Fe3C O4A 1_555 1_555
Fe4_2 O10B 1_555 1_555
O1A C1A 1_555 1_555
O2B Fe2 1_555 1_555
O2A Fe2C 1_555 1_555
O3B Fe2 1_555 1_555
O3A Fe1A 1_555 1_555
O4B Fe3 1_555 1_555
O4A C2A 1_555 1_555
O5B Fe1B 1_555 1_555
O5C Fe2 1_555 1_555
O6B Fe3 1_555 1_555
O7B Fe2 1_555 1_555
O7A Fe1A 1_555 1_555
O8B Fe4 1_555 1_555
O9B Fe3 1_555 1_555
O10B C5B 1_555 1_555
O10B_2 Fe4 1_555 1_555
O11B Fe4 1_555 1_555
O11B_2 Fe1B 1_555 1_555
O12C Fe2 1_555 1_555
O12B C6B 1_555 1_555
C1A O2A 1_555 1_555
C2B O3B 1_555 1_555
C2A O3A 1_555 1_555
C3B O5B 1_555 1_555
C5B O9B 1_555 1_555
C6B O11B 1_555 1_555
H1A C1A 1_555 1_555
H2B C2B 1_555 1_555
H2A C2A 1_555 1_555
H3B C3B 1_555 1_555
H5B C5B 1_555 1_555
H6B C6B 1_555 1_555
Fe3 O9 1_555 1_555
Fe4 O11 1_555 1_555
O3 Fe2B 1_555 1_555
O5 Fe2C 1_555 1_555
O6 C3 1_555 1_555
O7 Fe2B 1_555 1_555
O10 C5 1_555 1_555
O12 Fe2C 1_555 1_555
C9 C10 1_555 1_555
Fe1B O3B 1_555 1_555
Fe1B O7B 1_555 1_555
Fe1B O9B 1_555 1_555
Fe2C O3A 1_555 1_555
Fe2C O7A 1_555 1_555
Fe2A O5B 1_555 1_555
Fe4_2 O11B_2 1_555 1_555
O4B C2B 1_555 1_555
O6B C3B 1_555 1_555

#END
