
#######################################################################
#
#                 Cambridge Crystallographic Data Centre
#                                CCDC 
#
#######################################################################
#
# If this CIF has been generated from an entry in the Cambridge 
# Structural Database, then it will include bibliographic, chemical, 
# crystal, experimental, refinement or atomic coordinate data resulting 
# from the CCDC's data processing and validation procedures.
#
#######################################################################

data_EDATOT
_chemical_formula_moiety         '(C12 Cr2 Fe2 Mn2 N12 O24 2-)n'
_symmetry_cell_setting           monoclinic
_symmetry_space_group_name_H-M   'P 21/n'
_symmetry_Int_Tables_number      14
_space_group_name_Hall           '-P 2yn'
loop_
_symmetry_equiv_pos_site_id
_symmetry_equiv_pos_as_xyz
1 x,y,z
2 1/2-x,1/2+y,1/2-z
3 -x,-y,-z
4 1/2+x,1/2-y,1/2+z
_cell_length_a                   21.0100(3)
_cell_length_b                   15.9880(4)
_cell_length_c                   21.9630(6)
_cell_angle_alpha                90.00
_cell_angle_beta                 90.3390(7)
_cell_angle_gamma                90.00
_cell_volume                     7377.42
loop_
_atom_site_label
_atom_site_type_symbol
_atom_site_fract_x
_atom_site_fract_y
_atom_site_fract_z
_atom_site_U_iso_or_equiv
_atom_site_thermal_displace_type
Fe2 Fe 0.4980(3) 0.5185(5) 0.1481(4) 0.0730 Uani
N7 N 0.491(2) 0.6676(14) 0.145(2) 0.0897 Uani
N8 N 0.4171(16) 0.556(3) 0.2187(17) 0.0897 Uani
N9 N 0.5037(19) 0.3718(15) 0.131(2) 0.0897 Uani
N10 N 0.5766(16) 0.484(3) 0.2222(17) 0.0897 Uani
N11 N 0.4226(16) 0.493(3) 0.0698(16) 0.0897 Uani
N12 N 0.5753(16) 0.544(3) 0.0726(16) 0.0897 Uani
Cr1 Cr 0.12666(14) 0.5067(2) 0.24789(13) 0.0927 Uani
Cr2 Cr -0.24727(14) 0.76192(19) 0.37722(14) 0.0933 Uani
Mn1 Mn -0.13117(16) 0.5154(2) 0.24468(16) 0.1266 Uani
Mn2 Mn 0.25869(18) 0.7512(2) 0.12613(17) 0.1400 Uani
O1 O 0.1932(6) 0.5181(11) 0.1876(7) 0.1159 Uani
O2 O 0.1351(6) 0.6323(7) 0.2462(6) 0.0809 Uani
O3 O 0.1855(7) 0.7283(12) 0.1921(7) 0.1184 Uani
O4 O 0.2549(7) 0.6141(8) 0.1421(7) 0.1128 Uani
O5 O 0.1302(6) 0.3843(11) 0.2492(7) 0.1168 Uani
O6 O 0.1913(5) 0.4830(10) 0.3156(5) 0.0850 Uani
O7 O 0.1678(6) 0.2755(11) 0.3034(5) 0.1047 Uani
O8 O 0.2380(7) 0.3874(10) 0.3664(7) 0.1140 Uani
O9 O 0.0558(7) 0.5153(8) 0.3049(6) 0.1091 Uani
O10 O 0.0582(8) 0.5141(8) 0.1937(6) 0.1250 Uani
O11 O -0.0526(8) 0.5133(9) 0.3081(7) 0.1285 Uani
O12 O -0.0509(7) 0.5270(9) 0.1816(7) 0.1141 Uani
O13 O -0.2482(7) 0.6365(9) 0.3709(7) 0.1065 Uani
O14 O -0.1839(6) 0.7521(9) 0.3108(6) 0.1033 Uani
O15 O -0.2009(8) 0.5345(11) 0.3173(7) 0.1203 Uani
O16 O -0.1426(7) 0.6555(9) 0.2472(7) 0.1180 Uani
O17 O -0.2536(7) 0.3826(8) 0.1269(7) 0.0960 Uani
O18 O -0.1837(6) 0.2794(11) 0.1838(6) 0.1067 Uani
O19 O -0.2026(6) 0.4964(11) 0.1695(7) 0.1220 Uani
O20 O -0.1383(8) 0.3764(12) 0.2393(8) 0.1277 Uani
O21 O 0.3143(6) 0.7447(7) -0.0561(7) 0.1013 Uani
O22 O 0.3209(6) 0.7408(7) 0.0456(7) 0.0946 Uani
O23 O 0.1951(7) 0.7405(8) -0.0558(8) 0.1106 Uani
O24 O 0.1919(6) 0.7464(8) 0.0500(6) 0.0986 Uani
C1 C 0.1735(10) 0.6549(17) 0.2116(11) 0.0826 Uani
C2 C 0.2126(10) 0.5927(18) 0.1759(10) 0.0941 Uani
C3 C 0.1602(11) 0.3520(13) 0.2860(11) 0.0792 Uani
C4 C 0.1984(12) 0.4138(14) 0.3266(12) 0.0899 Uani
C5 C 0.0010(12) 0.5140(13) 0.2791(11) 0.0934 Uani
C6 C -0.0028(13) 0.5203(15) 0.2125(13) 0.1198 Uani
C7 C -0.2136(11) 0.6011(19) 0.3320(12) 0.0990 Uani
C8 C -0.1735(10) 0.6800(18) 0.2915(10) 0.0873 Uani
C9 C -0.2097(13) 0.4173(19) 0.1623(11) 0.1102 Uani
C10 C -0.1750(15) 0.3558(17) 0.1990(13) 0.1048 Uani
C11 C 0.2877(11) 0.7421(10) -0.0049(10) 0.0654 Uani
C12 C 0.2201(11) 0.7413(11) -0.0021(10) 0.0737 Uani
Cr2A Cr -0.25273(14) 0.26192(19) 0.12278(14) 0.0933 Uani
Cr2C Cr 0.25273(14) 0.73808(19) -0.12278(14) 0.0933 Uani
Mn2A Mn 0.24131(18) 0.2512(2) 0.37387(17) 0.1400 Uani
O7A O 0.3322(6) 0.7755(11) 0.1966(5) 0.1047 Uani
O8A O 0.2620(7) 0.8874(10) 0.1336(7) 0.1140 Uani
O17A O -0.2464(7) 0.8826(8) 0.3731(7) 0.0960 Uani
O18A O -0.3163(6) 0.7794(11) 0.3162(6) 0.1067 Uani
O21C O -0.1857(6) 0.7553(7) 0.4439(7) 0.1013 Uani
O23C O -0.3049(7) 0.7595(8) 0.4442(8) 0.1106 Uani
Fe1 Fe 0.86400(14) 0.7201(2) -0.00053(15) 0.0730 Uani
N1 N 0.8751(8) 0.5853(8) -0.0004(9) 0.0897 Uani
N2 N 0.7879(7) 0.7095(11) -0.0704(8) 0.0897 Uani
N3 N 0.7901(7) 0.7195(12) 0.0708(8) 0.0897 Uani
N4 N 0.8469(8) 0.8582(8) 0.0027(9) 0.0897 Uani
N5 N 0.9403(7) 0.7318(12) 0.0691(8) 0.0897 Uani
N6 N 0.9331(8) 0.7358(11) -0.0772(8) 0.0897 Uani
loop_
_atom_site_aniso_label
_atom_site_aniso_U_11
_atom_site_aniso_U_22
_atom_site_aniso_U_33
_atom_site_aniso_U_23
_atom_site_aniso_U_13
_atom_site_aniso_U_12
Fe2 0.064(2) 0.073(2) 0.082(2) 0.0032(19) 0.0010(18) 0.0055(17)
N7 0.074(5) 0.083(6) 0.112(7) 0.004(5) -0.012(5) -0.003(4)
N8 0.074(5) 0.083(6) 0.112(7) 0.004(5) -0.012(5) -0.003(4)
N9 0.074(5) 0.083(6) 0.112(7) 0.004(5) -0.012(5) -0.003(4)
N10 0.074(5) 0.083(6) 0.112(7) 0.004(5) -0.012(5) -0.003(4)
N11 0.074(5) 0.083(6) 0.112(7) 0.004(5) -0.012(5) -0.003(4)
N12 0.074(5) 0.083(6) 0.112(7) 0.004(5) -0.012(5) -0.003(4)
Cr1 0.085(2) 0.122(3) 0.071(2) -0.0085(19) -0.0008(19) -0.0061(19)
Cr2 0.093(2) 0.087(3) 0.100(3) -0.0134(18) 0.011(2) -0.0015(17)
Mn1 0.105(3) 0.157(4) 0.118(3) -0.016(2) 0.005(2) -0.013(2)
Mn2 0.151(3) 0.140(4) 0.129(3) -0.001(2) 0.002(3) -0.014(2)
O1 0.098(11) 0.129(13) 0.121(12) -0.004(10) 0.014(9) -0.010(10)
O2 0.065(8) 0.089(10) 0.089(10) -0.009(7) 0.025(8) 0.021(7)
O3 0.098(11) 0.132(13) 0.125(13) -0.017(11) -0.004(9) -0.011(10)
O4 0.087(10) 0.134(13) 0.118(12) 0.010(9) 0.039(9) -0.008(8)
O5 0.089(11) 0.123(15) 0.138(14) 0.042(10) -0.028(9) 0.014(9)
O6 0.093(9) 0.080(11) 0.082(9) -0.016(8) 0.006(7) -0.015(8)
O7 0.104(10) 0.133(14) 0.077(9) -0.016(9) -0.002(7) -0.022(9)
O8 0.129(13) 0.115(14) 0.098(12) -0.001(9) 0.006(9) 0.010(9)
O9 0.106(11) 0.133(12) 0.088(10) 0.002(8) -0.018(9) -0.027(9)
O10 0.123(13) 0.143(13) 0.109(11) 0.011(9) 0.004(10) 0.042(10)
O11 0.126(13) 0.153(13) 0.107(12) -0.014(9) 0.036(11) 0.003(10)
O12 0.073(10) 0.141(12) 0.128(13) 0.011(9) -0.015(10) 0.030(9)
O13 0.105(11) 0.110(12) 0.105(11) 0.018(9) 0.039(9) 0.014(8)
O14 0.122(11) 0.072(10) 0.116(12) -0.020(9) 0.018(9) -0.014(8)
O15 0.146(14) 0.092(12) 0.123(13) -0.029(11) 0.021(10) -0.006(11)
O16 0.117(11) 0.140(13) 0.097(11) -0.031(10) 0.011(9) 0.022(9)
O17 0.104 0.079 0.105 0.018 0 0.013
O18 0.106 0.11 0.104 0.017 0 0.054
O19 0.126 0.104 0.136 -0.014 0.006 0.006
O20 0.121 0.172 0.09 0.001 -0.007 0.044
O21 0.118 0.105 0.081 -0.005 0.008 -0.01
O22 0.09 0.094 0.1 -0.011 0.022 0.007
O23 0.124 0.099 0.109 0.008 0.009 -0.017
O24 0.082 0.121 0.093 0.013 0.006 -0.005
C1 0.053(15) 0.12(2) 0.075(17) -0.030(17) 0.016(12) -0.028(16)
C2 0.064(15) 0.13(2) 0.089(16) -0.004(16) 0.054(13) -0.008(16)
C3 0.100(18) 0.028(15) 0.11(2) 0.046(16) 0.028(14) 0.010(14)
C4 0.15(2) 0.000(13) 0.12(2) -0.012(16) 0.027(17) -0.004(16)
C5 0.08(2) 0.142(19) 0.058(18) 0.020(13) -0.025(15) -0.018(14)
C6 0.07(2) 0.18(2) 0.11(3) 0.050(18) 0.058(17) 0.027(17)
C7 0.087(17) 0.12(2) 0.09(2) 0.020(19) 0.010(14) -0.004(18)
C8 0.087(16) 0.12(2) 0.055(15) -0.001(15) 0.000(12) -0.021(15)
C9 0.13 0.09 0.11 -0.02 -0.05 0.026
C10 0.16 0.065 0.09 0.02 0.046 0.06
C11 0.069 0.089 0.038 -0.01 -0.024 0.006
C12 0.067 0.104 0.05 0.002 0.001 -0.022
Cr2A 0.093 0.087 0.1 0.0134 0.011 0.0015
Cr2C 0.093 0.087 0.1 0.0134 0.011 0.0015
Mn2A 0.151 0.14 0.129 0.001 0.002 0.014
O7A 0.104 0.133 0.077 0.016 -0.002 0.022
O8A 0.129 0.115 0.098 0.001 0.006 -0.01
O17A 0.104(10) 0.079(10) 0.105(11) -0.018(8) 0.000(9) -0.013(8)
O18A 0.106(10) 0.110(12) 0.104(11) -0.017(10) 0.000(8) -0.054(10)
O21C 0.118(11) 0.105(10) 0.081(10) 0.005(8) 0.008(10) 0.010(8)
O23C 0.124(12) 0.099(10) 0.109(12) -0.008(9) 0.009(11) 0.017(8)
Fe1 0.064(2) 0.073(2) 0.082(2) 0.0032(19) 0.0010(18) 0.0055(17)
N1 0.074(5) 0.083(6) 0.112(7) 0.004(5) -0.012(5) -0.003(4)
N2 0.074(5) 0.083(6) 0.112(7) 0.004(5) -0.012(5) -0.003(4)
N3 0.074(5) 0.083(6) 0.112(7) 0.004(5) -0.012(5) -0.003(4)
N4 0.074(5) 0.083(6) 0.112(7) 0.004(5) -0.012(5) -0.003(4)
N5 0.074(5) 0.083(6) 0.112(7) 0.004(5) -0.012(5) -0.003(4)
N6 0.074(5) 0.083(6) 0.112(7) 0.004(5) -0.012(5) -0.003(4)
loop_
_geom_bond_atom_site_label_1
_geom_bond_atom_site_label_2
_geom_bond_site_symmetry_1
_geom_bond_site_symmetry_2
Fe1 N1 1_555 1_555
N2 Fe1 1_555 1_555
N3 Fe1 1_555 1_555
N4 Fe1 1_555 1_555
N5 Fe1 1_555 1_555
N6 Fe1 1_555 1_555
Fe2 N7 1_555 1_555
N8 Fe2 1_555 1_555
N9 Fe2 1_555 1_555
N10 Fe2 1_555 1_555
N11 Fe2 1_555 1_555
N12 Fe2 1_555 1_555
Cr1 O1 1_555 1_555
Cr2 O13 1_555 1_555
Mn1 O11 1_555 1_555
Mn2 O3 1_555 1_555
O1 C2 1_555 1_555
O2 Cr1 1_555 1_555
O3 C1 1_555 1_555
O4 Mn2 1_555 1_555
O5 Cr1 1_555 1_555
O6 Cr1 1_555 1_555
O7 C3 1_555 1_555
O8 C4 1_555 1_555
O9 Cr1 1_555 1_555
O10 Cr1 1_555 1_555
O11 C5 1_555 1_555
O12 Mn1 1_555 1_555
O13 C7 1_555 1_555
O14 Cr2 1_555 1_555
O15 Mn1 1_555 1_555
O16 Mn1 1_555 1_555
O17 C9 1_555 1_555
O18 C10 1_555 1_555
O19 Mn1 1_555 1_555
O20 Mn1 1_555 1_555
O21 C11 1_555 1_555
O22 Mn2 1_555 1_555
O23 C12 1_555 1_555
O24 Mn2 1_555 1_555
C1 O2 1_555 1_555
C2 O4 1_555 1_555
C3 O5 1_555 1_555
C4 O6 1_555 1_555
C5 O9 1_555 1_555
C6 O10 1_555 1_555
C7 O15 1_555 1_555
C8 O14 1_555 1_555
C9 O19 1_555 1_555
C10 O20 1_555 1_555
C11 O22 1_555 1_555
C12 O24 1_555 1_555
Cr2A O17 1_555 1_555
Cr2C O21 1_555 1_555
Mn2A O7 1_555 1_555
O7A Mn2 1_555 1_555
O8A Mn2 1_555 1_555
O17A Cr2 1_555 1_555
O18A Cr2 1_555 1_555
O21C Cr2 1_555 1_555
O23C Cr2 1_555 1_555
O8 Mn2A 1_555 1_555
O12 C6 1_555 1_555
O16 C8 1_555 1_555
O18 Cr2A 1_555 1_555
O23 Cr2C 1_555 1_555
C1 C2 1_555 1_555
C3 C4 1_555 1_555
C5 C6 1_555 1_555
C7 C8 1_555 1_555
C9 C10 1_555 1_555
C11 C12 1_555 1_555

#END
