
#######################################################################
#
#                 Cambridge Crystallographic Data Centre
#                                CCDC 
#
#######################################################################
#
# If this CIF has been generated from an entry in the Cambridge 
# Structural Database, then it will include bibliographic, chemical, 
# crystal, experimental, refinement or atomic coordinate data resulting 
# from the CCDC's data processing and validation procedures.
#
#######################################################################

data_HAFSOZ
_chemical_formula_moiety         '(C28 H24 N2 O20 Zn4)n'
_symmetry_cell_setting           monoclinic
_symmetry_space_group_name_H-M   'P 21/c'
_symmetry_Int_Tables_number      14
_space_group_name_Hall           '-P 2ybc'
loop_
_symmetry_equiv_pos_site_id
_symmetry_equiv_pos_as_xyz
1 x,y,z
2 -x,1/2+y,1/2-z
3 -x,-y,-z
4 x,1/2-y,1/2+z
_cell_length_a                   10.997(2)
_cell_length_b                   14.914(3)
_cell_length_c                   14.368(3)
_cell_angle_alpha                90
_cell_angle_beta                 109.31(3)
_cell_angle_gamma                90
_cell_volume                     2223.92
loop_
_atom_site_label
_atom_site_type_symbol
_atom_site_fract_x
_atom_site_fract_y
_atom_site_fract_z
O1 O 0.9082(3) 0.1419(3) 0.1963(3)
O2 O 0.5663(4) 0.3722(3) 0.3698(3)
Zn1 Zn 0.62034(5) 0.02999(4) -0.03366(4)
Zn2 Zn 0.07237(6) 0.15007(4) 0.16101(5)
O3 O 0.5326(3) 0.0562(2) 0.0689(2)
C1 C 0.4650(4) 0.1615(3) 0.1643(4)
O4 O 0.2522(4) 0.1791(3) 0.1576(3)
C2 C 0.6217(5) 0.2644(3) 0.2696(4)
C3 C 0.5600(4) 0.1223(3) 0.1314(3)
C4 C 0.3269(5) 0.1336(3) 0.1288(4)
C5 C 0.7146(5) 0.2255(3) 0.2374(4)
H1 H 0.7984 0.2475 0.2614
C6 C 0.4975(5) 0.2311(3) 0.2317(4)
H2 H 0.4334 0.2565 0.2523
C7 C 0.6884(5) 0.1556(3) 0.1713(4)
O5 O 0.1315(4) 0.0188(3) 0.2157(3)
H3 H 0.1782 -0.0023 0.1871
O6 O 0.7804(3) 0.0660(3) 0.0731(3)
O7 O 0.7642(4) 0.3739(3) 0.3627(3)
O8 O 0.0019(4) 0.0922(3) 0.0224(3)
H4 H 0.0492 0.1049 -0.0093
O9 O 0.2878(3) 0.0692(3) 0.0718(3)
C8 C 0.7978(5) 0.1187(3) 0.1437(4)
O10 O 0.1520(5) 0.1981(3) 0.3104(3)
H5 H 0.2028 0.2389 0.3127
C9 C 0.6553(5) 0.3421(4) 0.3386(4)
N1 N 0.0212(5) 0.2818(3) 0.0973(4)
C10 C 0.0034(6) 0.4541(4) 0.0197(5)
C11 C -0.0014(8) 0.2961(5) 0.0031(6)
H6 H -0.0089 0.2465 -0.0376
C12 C 0.0209(10) 0.4383(5) 0.1170(6)
H7 H 0.0277 0.4867 0.1593
C13 C 0.0287(9) 0.3524(5) 0.1539(6)
H8 H 0.0395 0.3441 0.2203
C14 C -0.0145(8) 0.3800(5) -0.0396(5)
H9 H -0.0352 0.3861 -0.1075
H10 H 0.091(6) -0.021(2) 0.236(5)
H11 H -0.071(3) 0.118(5) -0.001(5)
H12 H 0.114(6) 0.204(4) 0.353(4)
N1B N -0.0212(5) 0.7182(3) -0.0973(4)
C10B C -0.0034(6) 0.5459(4) -0.0197(5)
C11B C 0.0014(8) 0.7039(5) -0.0031(6)
H6B H 0.0089 0.7535 0.0376
C12B C -0.0209(10) 0.5617(5) -0.1170(6)
H7B H -0.0277 0.5133 -0.1593
C13B C -0.0287(9) 0.6476(5) -0.1539(6)
H8B H -0.0395 0.6559 -0.2203
C14B C 0.0145(8) 0.6200(5) 0.0396(5)
H9B H 0.0352 0.6139 0.1075
O1B O -0.9082(3) 0.8581(3) -0.1963(3)
O2B O -0.5663(4) 0.6278(3) -0.3698(3)
Zn1B Zn -0.62034(5) 0.97001(4) 0.03366(4)
Zn2B Zn -0.07237(6) 0.84993(4) -0.16101(5)
O3B O -0.5326(3) 0.9438(2) -0.0689(2)
C1B C -0.4650(4) 0.8385(3) -0.1643(4)
O4B O -0.2522(4) 0.8209(3) -0.1576(3)
C2B C -0.6217(5) 0.7356(3) -0.2696(4)
C3B C -0.5600(4) 0.8777(3) -0.1314(3)
C4B C -0.3269(5) 0.8664(3) -0.1288(4)
C5B C -0.7146(5) 0.7745(3) -0.2374(4)
H1B H -0.7984 0.7525 -0.2614
C6B C -0.4975(5) 0.7689(3) -0.2317(4)
H2B H -0.4334 0.7435 -0.2523
C7B C -0.6884(5) 0.8444(3) -0.1713(4)
O5B O -0.1315(4) 0.9812(3) -0.2157(3)
H3B H -0.1782 1.0023 -0.1871
O6B O -0.7804(3) 0.9340(3) -0.0731(3)
O7B O -0.7642(4) 0.6261(3) -0.3627(3)
O8B O -0.0019(4) 0.9078(3) -0.0224(3)
H4B H -0.0492 0.8951 0.0093
O9B O -0.2878(3) 0.9308(3) -0.0718(3)
C8B C -0.7978(5) 0.8813(3) -0.1437(4)
O10B O -0.1520(5) 0.8019(3) -0.3104(3)
H5B H -0.2028 0.7611 -0.3127
C9B C -0.6553(5) 0.6579(4) -0.3386(4)
H10B H -0.091(6) 1.021(2) -0.236(5)
H11B H 0.071(3) 0.882(5) 0.001(5)
H12B H -0.114(6) 0.796(4) -0.353(4)
O1_2 O -0.0918(3) 0.1419(3) 0.1963(3)
O1B_2 O 0.0918(3) 0.8581(3) -0.1963(3)
O2A O -0.5663(4) 0.8722(3) 0.1302(3)
O2C O 0.5663(4) 0.1278(3) -0.1302(3)
Zn1_2 Zn -0.37966(5) 1.02999(4) -0.03366(4)
Zn1A Zn -0.62034(5) 0.52999(4) -0.46634(4)
Zn1B_2 Zn 0.37966(5) -0.02999(4) 0.03366(4)
Zn1C Zn 0.62034(5) 0.47001(4) 0.46634(4)
Zn2_2 Zn 1.07237(6) 0.15007(4) 0.16101(5)
Zn2B_2 Zn -1.07237(6) 0.84993(4) -0.16101(5)
O3_2 O -0.4674(3) 1.0562(2) 0.0689(2)
O3B_2 O 0.4674(3) -0.0562(2) -0.0689(2)
O9_2 O -0.7122(3) 1.0692(3) 0.0718(3)
O9B_2 O 0.7122(3) -0.0692(3) -0.0718(3)
loop_
_geom_bond_atom_site_label_1
_geom_bond_atom_site_label_2
_geom_bond_site_symmetry_1
_geom_bond_site_symmetry_2
O1 C8 1_555 1_555
O2 C9 1_555 1_555
Zn1 O3 1_555 1_555
Zn2 O4 1_555 1_555
O3 C3 1_555 1_555
C1 C3 1_555 1_555
O4 C4 1_555 1_555
C2 C5 1_555 1_555
C3 C7 1_555 1_555
C4 C1 1_555 1_555
C5 H1 1_555 1_555
C6 C1 1_555 1_555
H2 C6 1_555 1_555
C7 C5 1_555 1_555
O5 Zn2 1_555 1_555
H3 O5 1_555 1_555
O6 Zn1 1_555 1_555
O7 C9 1_555 1_555
O8 Zn2 1_555 1_555
H4 O8 1_555 1_555
O9 C4 1_555 1_555
C8 C7 1_555 1_555
O10 Zn2 1_555 1_555
H5 O10 1_555 1_555
C9 C2 1_555 1_555
N1 Zn2 1_555 1_555
C10 C12 1_555 1_555
C11 N1 1_555 1_555
H6 C11 1_555 1_555
C12 H7 1_555 1_555
C13 N1 1_555 1_555
H8 C13 1_555 1_555
C14 C10 1_555 1_555
H9 C14 1_555 1_555
H10 O5 1_555 1_555
H11 O8 1_555 1_555
H12 O10 1_555 1_555
N1B C11B 1_555 1_555
C10B C10 1_555 1_555
C11B H6B 1_555 1_555
C12B C10B 1_555 1_555
H7B C12B 1_555 1_555
C13B N1B 1_555 1_555
H8B C13B 1_555 1_555
C14B C10B 1_555 1_555
H9B C14B 1_555 1_555
O1B C8B 1_555 1_555
O2B C9B 1_555 1_555
Zn1B O3B 1_555 1_555
Zn2B N1B 1_555 1_555
O3B C3B 1_555 1_555
C1B C3B 1_555 1_555
O4B Zn2B 1_555 1_555
C2B C5B 1_555 1_555
C3B C7B 1_555 1_555
C4B C1B 1_555 1_555
C5B H1B 1_555 1_555
C6B C1B 1_555 1_555
H2B C6B 1_555 1_555
C7B C5B 1_555 1_555
O5B Zn2B 1_555 1_555
H3B O5B 1_555 1_555
O6B Zn1B 1_555 1_555
O7B C9B 1_555 1_555
O8B Zn2B 1_555 1_555
H4B O8B 1_555 1_555
O9B C4B 1_555 1_555
C8B C7B 1_555 1_555
O10B Zn2B 1_555 1_555
H5B O10B 1_555 1_555
C9B C2B 1_555 1_555
H10B O5B 1_555 1_555
H11B O8B 1_555 1_555
H12B O10B 1_555 1_555
O1_2 Zn2 1_555 1_555
O1B_2 Zn2B 1_555 1_555
O2A Zn1B 1_555 1_555
O2C Zn1 1_555 1_555
Zn1_2 O3B 1_555 1_555
Zn1A O2B 1_555 1_555
Zn1B_2 O3 1_555 1_555
Zn1C O2 1_555 1_555
Zn2_2 O1 1_555 1_555
Zn2B_2 O1B 1_555 1_555
O3_2 Zn1B 1_555 1_555
O3B_2 Zn1 1_555 1_555
O9_2 Zn1B 1_555 1_555
O9B_2 Zn1 1_555 1_555
C2 C6 1_555 1_555
O6 C8 1_555 1_555
O9 Zn1B_2 1_555 1_555
C11 C14 1_555 1_555
C12 C13 1_555 1_555
C11B C14B 1_555 1_555
C12B C13B 1_555 1_555
O4B C4B 1_555 1_555
C2B C6B 1_555 1_555
O6B C8B 1_555 1_555
O9B Zn1_2 1_555 1_555
Zn1_2 O3_2 1_555 1_555
Zn1B_2 O3B_2 1_555 1_555

#END
