
#######################################################################
#
#                 Cambridge Crystallographic Data Centre
#                                CCDC 
#
#######################################################################
#
# If this CIF has been generated from an entry in the Cambridge 
# Structural Database, then it will include bibliographic, chemical, 
# crystal, experimental, refinement or atomic coordinate data resulting 
# from the CCDC's data processing and validation procedures.
#
#######################################################################

data_ARUJED
_chemical_formula_moiety         '(C60 H58 Cl2 Mn4 N20 O25 2+)n'
_symmetry_cell_setting           monoclinic
_symmetry_space_group_name_H-M   'P 21/c'
_symmetry_Int_Tables_number      14
_space_group_name_Hall           '-P 2ybc'
loop_
_symmetry_equiv_pos_site_id
_symmetry_equiv_pos_as_xyz
1 x,y,z
2 -x,1/2+y,1/2-z
3 -x,-y,-z
4 x,1/2-y,1/2+z
_cell_length_a                   14.1561(17)
_cell_length_b                   10.5239(13)
_cell_length_c                   27.033(3)
_cell_angle_alpha                90
_cell_angle_beta                 100.649(3)
_cell_angle_gamma                90
_cell_volume                     3957.95
loop_
_atom_site_label
_atom_site_type_symbol
_atom_site_fract_x
_atom_site_fract_y
_atom_site_fract_z
Mn1 Mn 0.25262(9) 0.60763(13) 0.48919(5)
Mn2 Mn 0.5000 0.5000 0.5000
Mn3 Mn 0.0000 1.0000 0.0000
C1 C 0.3408(7) 0.4753(9) 0.4033(3)
C2 C 0.3050(7) 0.4130(9) 0.3521(3)
C3 C 0.3640(7) 0.3372(10) 0.3296(4)
H1 H 0.4269 0.3218 0.3456
C4 C 0.3301(8) 0.2849(11) 0.2837(4)
H2 H 0.3703 0.2336 0.2687
C5 C 0.1820(8) 0.3767(11) 0.2811(4)
H3 H 0.1195 0.3908 0.2641
C6 C 0.2110(7) 0.4306(10) 0.3277(4)
H4 H 0.1683 0.4778 0.3426
C7 C 0.2027(10) 0.2525(11) 0.2089(4)
H5 H 0.1392 0.2167 0.2079
H6 H 0.2450 0.1849 0.2021
C8 C 0.1976(8) 0.3543(10) 0.1690(4)
H7 H 0.2620 0.3760 0.1644
H8 H 0.1681 0.4302 0.1797
C9 C 0.1394(8) 0.3072(10) 0.1198(4)
H9 H 0.1736 0.2389 0.1067
H10 H 0.0782 0.2743 0.1254
C10 C 0.1781(8) 0.4251(9) 0.0475(4)
H11 H 0.2253 0.3647 0.0455
C11 C 0.1648(7) 0.5260(10) 0.0145(4)
H12 H 0.2021 0.5324 -0.0103
C12 C 0.0957(7) 0.6188(9) 0.0181(4)
C13 C 0.0400(7) 0.6001(10) 0.0544(4)
H13 H -0.0086 0.6579 0.0569
C14 C 0.0539(7) 0.5015(10) 0.0861(4)
H14 H 0.0162 0.4927 0.1106
C15 C 0.0810(7) 0.7307(9) -0.0165(4)
C16 C 0.4316(7) 0.7707(9) 0.5113(3)
C17 C 0.4923(6) 0.8713(8) 0.5425(3)
C18 C 0.4504(7) 0.9744(9) 0.5613(4)
H15 H 0.3838 0.9801 0.5573
C19 C 0.5070(9) 1.0676(10) 0.5858(4)
H16 H 0.4786 1.1381 0.5977
C20 C 0.6459(8) 0.9589(11) 0.5764(4)
H17 H 0.7126 0.9534 0.5824
C21 C 0.5918(7) 0.8639(10) 0.5506(4)
H18 H 0.6217 0.7949 0.5385
C22 C 0.6631(9) 1.1647(11) 0.6193(4)
H19 H 0.6322 1.2460 0.6104
H20 H 0.7255 1.1654 0.6093
C23 C 0.6747(8) 1.1432(11) 0.6749(4)
H21 H 0.7035 1.0604 0.6832
H22 H 0.6120 1.1436 0.6845
C24 C 0.7377(9) 1.2454(11) 0.7044(4)
H23 H 0.7951 1.2579 0.6901
H24 H 0.7029 1.3252 0.7023
C25 C 0.6977(8) 1.1739(13) 0.7844(4)
H25 H 0.6333 1.1740 0.7688
C26 C 0.7225(8) 1.1417(13) 0.8342(4)
H26 H 0.6749 1.1247 0.8528
C27 C 0.8174(7) 1.1346(10) 0.8567(3)
C28 C 0.8855(8) 1.1648(13) 0.8279(4)
H27 H 0.9506 1.1592 0.8417
C29 C 0.8569(8) 1.2030(14) 0.7787(4)
H28 H 0.9026 1.2275 0.7600
C30 C 0.8468(7) 1.1012(10) 0.9112(4)
N1 N 0.3653(6) 0.4803(8) 0.5293(3)
N2 N 0.3506(6) 0.3973(10) 0.5566(4)
N3 N 0.3383(9) 0.3150(13) 0.5838(5)
N4 N 0.1390(5) 0.4567(8) 0.4766(3)
N5 N 0.1632(6) 0.3557(9) 0.4630(3)
N6 N 0.1897(8) 0.2590(10) 0.4511(5)
N7 N 0.2389(7) 0.3064(8) 0.2596(3)
N8 N 0.1227(6) 0.4142(7) 0.0826(3)
N9 N 0.6028(6) 1.0598(8) 0.5931(3)
N10 N 0.7652(7) 1.2053(8) 0.7581(3)
O1 O 0.4223(5) 0.4447(7) 0.4252(2)
O2 O 0.2852(4) 0.5554(6) 0.4170(2)
O3 O 0.1453(5) 0.7494(6) -0.0436(2)
O4 O 0.0086(5) 0.7957(6) -0.0170(3)
O5 O 0.4751(5) 0.6986(6) 0.4858(3)
O6 O 0.3436(5) 0.7747(7) 0.5102(3)
O7 O 0.9249(5) 1.0417(7) 0.9237(3)
O8 O 0.7927(5) 1.1397(7) 0.9388(2)
Mn1B Mn 0.74738(9) 0.39237(13) 0.51081(5)
Mn1C Mn 0.25262(9) 0.89237(13) -0.01081(5)
Mn1A Mn 0.74738(9) 1.10763(13) 1.01081(5)
Mn1A_2 Mn 0.74738(9) 0.10763(13) 1.01081(5)
Mn1C_2 Mn 0.25262(9) -0.10763(13) -0.01081(5)
Mn1A_3 Mn -0.25262(9) 1.10763(13) 0.01081(5)
Mn3A Mn 0.0000 0.5000 0.5000
Mn3_2 Mn 1.0000 1.0000 1.0000
Mn3_3 Mn 1.0000 0.0000 1.0000
Mn3_4 Mn 0.0000 0.0000 0.0000
C1B C 0.6592(7) 0.5247(9) 0.5967(3)
C2B C 0.6950(7) 0.5870(9) 0.6479(3)
C3B C 0.6360(7) 0.6628(10) 0.6704(4)
H1B H 0.5731 0.6782 0.6544
C4B C 0.6699(8) 0.7151(11) 0.7163(4)
H2B H 0.6297 0.7664 0.7313
C5B C 0.8180(8) 0.6233(11) 0.7189(4)
H3B H 0.8805 0.6092 0.7359
C6B C 0.7890(7) 0.5694(10) 0.6723(4)
H4B H 0.8317 0.5222 0.6574
C7B C 0.7973(10) 0.7475(11) 0.7911(4)
H5B H 0.8608 0.7833 0.7921
H6B H 0.7550 0.8151 0.7979
C8B C 0.8024(8) 0.6457(10) 0.8310(4)
H7B H 0.7380 0.6240 0.8356
H8B H 0.8319 0.5698 0.8203
C9B C 0.8606(8) 0.6928(10) 0.8802(4)
H9B H 0.8264 0.7611 0.8933
H10B H 0.9218 0.7257 0.8746
C10B C 0.8219(8) 0.5749(9) 0.9525(4)
H11B H 0.7747 0.6353 0.9545
C11B C 0.8352(7) 0.4740(10) 0.9855(4)
H12B H 0.7979 0.4676 1.0103
C12B C 0.9043(7) 0.3812(9) 0.9819(4)
C13B C 0.9600(7) 0.3999(10) 0.9456(4)
H13B H 1.0086 0.3421 0.9431
C14B C 0.9461(7) 0.4985(10) 0.9139(4)
H14B H 0.9838 0.5073 0.8894
C15B C 0.9190(7) 0.2693(9) 1.0165(4)
C16B C 0.5684(7) 0.2293(9) 0.4887(3)
C17B C 0.5077(6) 0.1287(8) 0.4575(3)
C18B C 0.5496(7) 0.0256(9) 0.4387(4)
H15B H 0.6162 0.0199 0.4427
C19B C 0.4930(9) -0.0676(10) 0.4142(4)
H16B H 0.5214 -0.1381 0.4023
C20B C 0.3541(8) 0.0411(11) 0.4236(4)
H17B H 0.2874 0.0466 0.4176
C21B C 0.4082(7) 0.1361(10) 0.4494(4)
H18B H 0.3783 0.2051 0.4615
C22B C 0.3369(9) -0.1647(11) 0.3807(4)
H19B H 0.3678 -0.2460 0.3896
H20B H 0.2745 -0.1654 0.3907
C23B C 0.3253(8) -0.1432(11) 0.3251(4)
H21B H 0.2965 -0.0604 0.3168
H22B H 0.3880 -0.1436 0.3155
C24B C 0.2623(9) -0.2454(11) 0.2956(4)
H23B H 0.2049 -0.2579 0.3099
H24B H 0.2971 -0.3252 0.2977
C25B C 0.3023(8) -0.1739(13) 0.2156(4)
H25B H 0.3667 -0.1740 0.2312
C26B C 0.2775(8) -0.1417(13) 0.1658(4)
H26B H 0.3251 -0.1247 0.1472
C27B C 0.1826(7) -0.1346(10) 0.1433(3)
C28B C 0.1145(8) -0.1648(13) 0.1721(4)
H27B H 0.0494 -0.1592 0.1583
C29B C 0.1431(8) -0.2030(14) 0.2213(4)
H28B H 0.0974 -0.2275 0.2400
C30B C 0.1532(7) -0.1012(10) 0.0888(4)
N1B N 0.6347(6) 0.5197(8) 0.4707(3)
N2B N 0.6494(6) 0.6027(10) 0.4434(4)
N3B N 0.6617(9) 0.6850(13) 0.4162(5)
N4A N -0.1390(5) 0.9567(8) 0.0234(3)
N4C N 0.1390(5) 1.0433(8) -0.0234(3)
N4B N 0.8610(5) 0.5433(8) 0.5234(3)
N5A N -0.1632(6) 0.8557(9) 0.0370(3)
N6A N -0.1897(8) 0.7590(10) 0.0489(5)
N7B N 0.7611(7) 0.6936(8) 0.7404(3)
N8B N 0.8773(6) 0.5858(7) 0.9174(3)
N9B N 0.3972(6) -0.0598(8) 0.4069(3)
N10B N 0.2348(7) -0.2053(8) 0.2419(3)
O1B O 0.5777(5) 0.5553(7) 0.5748(2)
O2B O 0.7148(4) 0.4446(6) 0.5830(2)
O3B O 0.8547(5) 0.2506(6) 1.0436(2)
O3C O 0.1453(5) 0.7506(6) 0.4564(2)
O3A O 0.8547(5) 0.2494(6) 0.5436(2)
O4B O 0.9914(5) 0.2043(6) 1.0170(3)
O4B_2 O -0.0086(5) 1.2043(6) 0.0170(3)
O5B O 0.5249(5) 0.3014(6) 0.5142(3)
O6B O 0.6564(5) 0.2253(7) 0.4898(3)
O7B O 0.0751(5) -0.0417(7) 0.0763(3)
O7_2 O -0.0751(5) 1.0417(7) -0.0763(3)
O7B_2 O 0.0751(5) 0.9583(7) 0.0763(3)
O8B O 0.2073(5) -0.1397(7) 0.0612(2)
O8A O 0.2073(5) 0.6397(7) 0.5612(2)
O8C O 0.7927(5) 0.3603(7) 0.4388(2)
O9 O 0.1559(10) 0.4525(13) 0.7810(6)
O10 O 0.1249(18) 0.502(3) 0.8550(10)
O11 O 0.0484(17) 0.354(2) 0.8214(12)
O12 O 0.0194(17) 0.546(3) 0.7998(10)
Cl1 Cl 0.0803(3) 0.4550(4) 0.80741(16)
O13 O 0.4728(12) 0.6138(16) 0.1833(6)
O14 O 0.5377(13) 0.545(2) 0.2590(7)
O15 O 0.4537(10) 0.4051(12) 0.2028(7)
O16 O 0.3667(8) 0.5560(11) 0.2356(5)
Cl2 Cl 0.4546(3) 0.5302(4) 0.22007(17)
O17 O 0.0436(7) 0.8852(10) -0.1355(4)
H29 H 0.024(6) 0.939(8) -0.116(3)
H30 H 0.080(11) 0.832(12) -0.1168(16)
loop_
_geom_bond_atom_site_label_1
_geom_bond_atom_site_label_2
_geom_bond_site_symmetry_1
_geom_bond_site_symmetry_2
Mn1 N1 1_555 1_555
Mn2 N1 1_555 1_555
Mn3 O4 1_555 1_555
C1 C2 1_555 1_555
C2 C3 1_555 1_555
C3 H1 1_555 1_555
C4 C3 1_555 1_555
H2 C4 1_555 1_555
C5 H3 1_555 1_555
C6 C2 1_555 1_555
H4 C6 1_555 1_555
C7 H5 1_555 1_555
H6 C7 1_555 1_555
C8 C7 1_555 1_555
H7 C8 1_555 1_555
H8 C8 1_555 1_555
C9 C8 1_555 1_555
H9 C9 1_555 1_555
H10 C9 1_555 1_555
C10 H11 1_555 1_555
C11 C10 1_555 1_555
H12 C11 1_555 1_555
C12 C11 1_555 1_555
C13 C12 1_555 1_555
H13 C13 1_555 1_555
C14 C13 1_555 1_555
H14 C14 1_555 1_555
C15 C12 1_555 1_555
C16 C17 1_555 1_555
C17 C18 1_555 1_555
C18 H15 1_555 1_555
C19 C18 1_555 1_555
H16 C19 1_555 1_555
C20 H17 1_555 1_555
C21 C17 1_555 1_555
H18 C21 1_555 1_555
C22 H19 1_555 1_555
H20 C22 1_555 1_555
C23 C22 1_555 1_555
H21 C23 1_555 1_555
H22 C23 1_555 1_555
C24 C23 1_555 1_555
H23 C24 1_555 1_555
H24 C24 1_555 1_555
C25 H25 1_555 1_555
C26 C25 1_555 1_555
H26 C26 1_555 1_555
C27 C26 1_555 1_555
C28 C27 1_555 1_555
H27 C28 1_555 1_555
C29 C28 1_555 1_555
H28 C29 1_555 1_555
C30 C27 1_555 1_555
N1 N2 1_555 1_555
N2 N3 1_555 1_555
N4 Mn1 1_555 1_555
N5 N4 1_555 1_555
N6 N5 1_555 1_555
N7 C4 1_555 1_555
N8 C9 1_555 1_555
N9 C19 1_555 1_555
N10 C24 1_555 1_555
O1 Mn2 1_555 1_555
O2 Mn1 1_555 1_555
O3 C15 1_555 1_555
O4 C15 1_555 1_555
O5 Mn2 1_555 1_555
O6 Mn1 1_555 1_555
O7 C30 1_555 1_555
O8 C30 1_555 1_555
O9 Cl1 1_555 1_555
O10 Cl1 1_555 1_555
O11 Cl1 1_555 1_555
O12 Cl1 1_555 1_555
O13 Cl2 1_555 1_555
O14 Cl2 1_555 1_555
O15 Cl2 1_555 1_555
O16 Cl2 1_555 1_555
O17 H29 1_555 1_555
H30 O17 1_555 1_555
Mn1B N1B 1_555 1_555
Mn1C O3 1_555 1_555
Mn1A O8 1_555 1_555
Mn1A_2 O3B 1_555 1_555
Mn1C_2 O8B 1_555 1_555
Mn1A_3 N4A 1_555 1_555
Mn3A N4 1_555 1_555
Mn3_2 O7 1_555 1_555
Mn3_3 O4B 1_555 1_555
Mn3_4 O7B 1_555 1_555
C1B C2B 1_555 1_555
C2B C3B 1_555 1_555
C3B H1B 1_555 1_555
C4B C3B 1_555 1_555
H2B C4B 1_555 1_555
C5B H3B 1_555 1_555
C6B C2B 1_555 1_555
H4B C6B 1_555 1_555
C7B H5B 1_555 1_555
H6B C7B 1_555 1_555
C8B C7B 1_555 1_555
H7B C8B 1_555 1_555
H8B C8B 1_555 1_555
C9B C8B 1_555 1_555
H9B C9B 1_555 1_555
H10B C9B 1_555 1_555
C10B H11B 1_555 1_555
C11B C10B 1_555 1_555
H12B C11B 1_555 1_555
C12B C11B 1_555 1_555
C13B C12B 1_555 1_555
H13B C13B 1_555 1_555
C14B C13B 1_555 1_555
H14B C14B 1_555 1_555
C15B C12B 1_555 1_555
C16B C17B 1_555 1_555
C17B C18B 1_555 1_555
C18B H15B 1_555 1_555
C19B C18B 1_555 1_555
H16B C19B 1_555 1_555
C20B H17B 1_555 1_555
C21B C17B 1_555 1_555
H18B C21B 1_555 1_555
C22B H19B 1_555 1_555
H20B C22B 1_555 1_555
C23B C22B 1_555 1_555
H21B C23B 1_555 1_555
H22B C23B 1_555 1_555
C24B C23B 1_555 1_555
H23B C24B 1_555 1_555
H24B C24B 1_555 1_555
C25B H25B 1_555 1_555
C26B C25B 1_555 1_555
H26B C26B 1_555 1_555
C27B C26B 1_555 1_555
C28B C27B 1_555 1_555
H27B C28B 1_555 1_555
C29B C28B 1_555 1_555
H28B C29B 1_555 1_555
C30B C27B 1_555 1_555
N1B Mn2 1_555 1_555
N2B N1B 1_555 1_555
N3B N2B 1_555 1_555
N4A Mn3 1_555 1_555
N4C Mn3 1_555 1_555
N4B Mn1B 1_555 1_555
N5A N4A 1_555 1_555
N6A N5A 1_555 1_555
N7B C4B 1_555 1_555
N8B C9B 1_555 1_555
N9B C19B 1_555 1_555
N10B C24B 1_555 1_555
O1B Mn2 1_555 1_555
O2B Mn1B 1_555 1_555
O3B C15B 1_555 1_555
O3C Mn1 1_555 1_555
O3A Mn1B 1_555 1_555
O4B C15B 1_555 1_555
O4B_2 Mn3 1_555 1_555
O5B Mn2 1_555 1_555
O6B Mn1B 1_555 1_555
O7B C30B 1_555 1_555
O7_2 Mn3 1_555 1_555
O7B_2 Mn3 1_555 1_555
O8B C30B 1_555 1_555
O8A Mn1 1_555 1_555
O8C Mn1B 1_555 1_555
C1 O1 1_555 1_555
C1 O2 1_555 1_555
C5 C6 1_555 1_555
C5 N7 1_555 1_555
C7 N7 1_555 1_555
C10 N8 1_555 1_555
C14 N8 1_555 1_555
C16 O5 1_555 1_555
C16 O6 1_555 1_555
C20 C21 1_555 1_555
C20 N9 1_555 1_555
C22 N9 1_555 1_555
C25 N10 1_555 1_555
C29 N10 1_555 1_555
Mn1C N4C 1_555 1_555
C1B O1B 1_555 1_555
C1B O2B 1_555 1_555
C5B C6B 1_555 1_555
C5B N7B 1_555 1_555
C7B N7B 1_555 1_555
C10B N8B 1_555 1_555
C14B N8B 1_555 1_555
C16B O5B 1_555 1_555
C16B O6B 1_555 1_555
C20B C21B 1_555 1_555
C20B N9B 1_555 1_555
C22B N9B 1_555 1_555
C25B N10B 1_555 1_555
C29B N10B 1_555 1_555

#END
