
#######################################################################
#
#                 Cambridge Crystallographic Data Centre
#                                CCDC 
#
#######################################################################
#
# If this CIF has been generated from an entry in the Cambridge 
# Structural Database, then it will include bibliographic, chemical, 
# crystal, experimental, refinement or atomic coordinate data resulting 
# from the CCDC's data processing and validation procedures.
#
#######################################################################

data_GACPUX
_chemical_formula_moiety         '(C31 H35 N3 O10 Zn2)n'
_symmetry_cell_setting           orthorhombic
_symmetry_space_group_name_H-M   'P 21 21 21'
_symmetry_Int_Tables_number      19
_space_group_name_Hall           'P 2ac 2ab'
loop_
_symmetry_equiv_pos_site_id
_symmetry_equiv_pos_as_xyz
1 x,y,z
2 1/2-x,-y,1/2+z
3 -x,1/2+y,1/2-z
4 1/2+x,1/2-y,-z
_cell_length_a                   10.1365(2)
_cell_length_b                   11.4134(3)
_cell_length_c                   29.2794(7)
_cell_angle_alpha                90
_cell_angle_beta                 90
_cell_angle_gamma                90
_cell_volume                     3387.39
loop_
_atom_site_label
_atom_site_type_symbol
_atom_site_fract_x
_atom_site_fract_y
_atom_site_fract_z
_atom_site_U_iso_or_equiv
_atom_site_thermal_displace_type
Zn1 Zn 0.65861(4) 0.68462(4) -0.006979(16) 0.0058 Uani
Zn2 Zn 0.96531(4) 0.56981(4) -0.006226(16) 0.0058 Uani
O1 O 0.8608(3) 0.7354(2) -0.00391(10) 0.0080 Uani
O2 O 0.9809(3) 0.8943(2) 0.01236(10) 0.0091 Uani
O3 O 0.6359(3) 0.8550(2) -0.00187(10) 0.0082 Uani
C1 C 0.8745(4) 0.8443(3) 0.00240(14) 0.0080 Uani
C2 C 0.7528(4) 0.9228(4) -0.00335(14) 0.0091 Uani
H1 H 0.7508 0.9813 0.0221 0.0110 Uiso
C3 C 0.7715(5) 0.9875(4) -0.04860(15) 0.0152 Uani
C4 C 0.8381(5) 1.0953(4) -0.04813(17) 0.0190 Uani
H2 H 0.8661 1.1283 -0.0200 0.0230 Uiso
C5 C 0.8633(6) 1.1543(5) -0.08905(17) 0.0218 Uani
H3 H 0.9098 1.2265 -0.0888 0.0260 Uiso
C6 C 0.8201(5) 1.1067(5) -0.13006(18) 0.0224 Uani
H4 H 0.8355 1.1475 -0.1578 0.0270 Uiso
C7 C 0.7545(6) 1.0002(5) -0.13071(17) 0.0209 Uani
H5 H 0.7259 0.9674 -0.1588 0.0250 Uiso
C8 C 0.7306(5) 0.9412(5) -0.08944(15) 0.0184 Uani
H6 H 0.6856 0.8682 -0.0898 0.0220 Uiso
O4 O 0.6799(3) 0.6087(3) 0.05416(10) 0.0081 Uani
O5 O 0.8827(3) 0.5313(3) 0.05338(10) 0.0094 Uani
C9 C 0.7767(4) 0.5632(4) 0.07316(13) 0.0075 Uani
C10 C 0.7672(5) 0.5390(4) 0.12315(14) 0.0112 Uani
C11 C 0.8814(5) 0.5158(4) 0.14845(16) 0.0147 Uani
H7 H 0.9647 0.5124 0.1337 0.0180 Uiso
C12 C 0.8723(5) 0.4978(4) 0.19512(15) 0.0157 Uani
H8 H 0.9500 0.4828 0.2123 0.0190 Uiso
C13 C 0.7509(5) 0.5013(4) 0.21719(15) 0.0130 Uani
C14 C 0.6367(5) 0.5233(4) 0.19161(15) 0.0133 Uani
H9 H 0.5531 0.5248 0.2063 0.0160 Uiso
C15 C 0.6455(5) 0.5430(4) 0.14481(14) 0.0113 Uani
H10 H 0.5680 0.5591 0.1277 0.0130 Uiso
C16 C 0.7429(5) 0.4832(4) 0.26752(14) 0.0123 Uani
C17 C 0.8191(5) 0.3992(4) 0.28916(15) 0.0140 Uani
H11 H 0.8788 0.3534 0.2716 0.0170 Uiso
C18 C 0.8101(5) 0.3804(4) 0.33582(16) 0.0157 Uani
H12 H 0.8649 0.3237 0.3501 0.0180 Uiso
C19 C 0.7207(5) 0.4447(4) 0.36164(14) 0.0095 Uani
C20 C 0.6434(5) 0.5300(4) 0.34066(14) 0.0120 Uani
H13 H 0.5830 0.5749 0.3582 0.0140 Uiso
C21 C 0.6548(5) 0.5495(4) 0.29387(14) 0.0160 Uani
H14 H 0.6024 0.6081 0.2797 0.0190 Uiso
C22 C 0.7091(5) 0.4230(4) 0.41190(14) 0.0124 Uani
O6 O 0.8061(3) 0.3709(3) 0.43022(10) 0.0130 Uani
O7 O 0.6063(3) 0.4575(3) 0.43190(10) 0.0134 Uani
O8 O 1.0368(3) 0.3960(2) -0.00972(10) 0.0119 Uani
C23 C 1.0387(5) 0.3301(4) 0.02405(15) 0.0125 Uani
H15 H 0.9997 0.3581 0.0515 0.0150 Uiso
N1 N 1.0909(4) 0.2244(4) 0.02459(13) 0.0149 Uani
C24 C 1.0885(5) 0.1532(4) 0.06555(16) 0.0165 Uani
H16 H 1.1313 0.0778 0.0594 0.0250 Uiso
H17 H 0.9969 0.1398 0.0749 0.0250 Uiso
H18 H 1.1358 0.1939 0.0901 0.0250 Uiso
C25 C 1.1626(5) 0.1756(4) -0.01473(14) 0.0154 Uani
H19 H 1.1928 0.0962 -0.0074 0.0230 Uiso
H20 H 1.2390 0.2253 -0.0216 0.0230 Uiso
H21 H 1.1040 0.1730 -0.0413 0.0230 Uiso
Zn1A Zn 0.84139(4) 0.31538(4) 0.493021(16) 0.0058 Uani
Zn1C Zn 1.15861(4) 0.81538(4) 0.006979(16) 0.0058 Uani
Zn2A Zn 0.53469(4) 0.43019(4) 0.493774(16) 0.0058 Uani
Zn2C Zn 0.46531(4) 0.93019(4) 0.006226(16) 0.0058 Uani
O2C O 0.4809(3) 0.6057(2) -0.01236(10) 0.0091 Uani
O3C O 1.1359(3) 0.6450(2) 0.00187(10) 0.0082 Uani
O6A O 0.6939(3) 0.6291(3) -0.06978(10) 0.0130 Uani
O7A O 0.8937(3) 0.5425(3) -0.06810(10) 0.0134 Uani
O9 O 0.8319(5) 0.0983(4) 0.26566(17) 0.0537 Uani
C26 C 0.7556(7) 0.1373(6) 0.2370(2) 0.0383 Uani
H22 H 0.6655 0.1453 0.2454 0.0460 Uiso
N2 N 0.7903(5) 0.1693(5) 0.19467(18) 0.0390 Uani
C27 C 0.6958(8) 0.2156(7) 0.1636(2) 0.0500 Uani
H23 H 0.7391 0.2340 0.1345 0.0750 Uiso
H24 H 0.6571 0.2871 0.1764 0.0750 Uiso
H25 H 0.6261 0.1576 0.1584 0.0750 Uiso
C28 C 0.9278(9) 0.1591(8) 0.1809(3) 0.0660 Uani
H26 H 0.9375 0.1858 0.1492 0.0990 Uiso
H27 H 0.9557 0.0771 0.1832 0.0990 Uiso
H28 H 0.9828 0.2075 0.2009 0.0990 Uiso
O10 O 0.5450(5) 0.7968(4) 0.25244(15) 0.0453 Uani
C29 C 0.5606(7) 0.8180(6) 0.2112(2) 0.0379 Uani
H29 H 0.4829 0.8213 0.1931 0.0450 Uiso
N3 N 0.6730(6) 0.8363(5) 0.18969(19) 0.0434 Uani
C30 C 0.6772(8) 0.8595(7) 0.1407(3) 0.0553 Uani
H30 H 0.7690 0.8700 0.1310 0.0830 Uiso
H31 H 0.6271 0.9309 0.1339 0.0830 Uiso
H32 H 0.6383 0.7933 0.1241 0.0830 Uiso
C31 C 0.7978(7) 0.8269(7) 0.2141(3) 0.0553 Uani
H33 H 0.8708 0.8424 0.1931 0.0830 Uiso
H34 H 0.8068 0.7477 0.2268 0.0830 Uiso
H35 H 0.7997 0.8842 0.2390 0.0830 Uiso
loop_
_atom_site_aniso_label
_atom_site_aniso_U_11
_atom_site_aniso_U_22
_atom_site_aniso_U_33
_atom_site_aniso_U_23
_atom_site_aniso_U_13
_atom_site_aniso_U_12
Zn1 0.00120(15) 0.00879(13) 0.00733(12) 0.00009(13) -0.00014(13) -0.00009(11)
Zn2 0.00120(15) 0.00879(13) 0.00733(12) 0.00009(13) -0.00014(13) -0.00009(11)
O1 0.0048(4) 0.0096(4) 0.0096(4) 0.0000(4) -0.0002(4) 0.0002(4)
O2 0.0062(6) 0.0099(6) 0.0112(6) -0.0007(5) -0.0003(5) 0.0002(5)
O3 0.0049(5) 0.0098(5) 0.0098(5) 0.0002(4) -0.0002(4) 0.0001(4)
C1 0.0051(5) 0.0095(5) 0.0094(5) 0.0001(5) -0.0002(5) 0.0002(5)
C2 0.0061(5) 0.0104(5) 0.0108(5) 0.0001(4) 0.0000(4) 0.0001(4)
C3 0.0128(7) 0.0157(7) 0.0171(7) 0.0023(6) 0.0002(6) 0.0010(6)
C4 0.0162(9) 0.0192(9) 0.0217(9) 0.0036(8) 0.0000(8) 0.0007(8)
C5 0.0198(8) 0.0218(8) 0.0237(8) 0.0034(7) 0.0003(7) 0.0003(7)
C6 0.0207(8) 0.0232(8) 0.0234(8) 0.0035(7) 0.0003(7) 0.0008(7)
C7 0.0191(8) 0.0221(8) 0.0215(8) 0.0026(7) 0.0001(7) 0.0012(7)
C8 0.0160(9) 0.0194(9) 0.0198(9) 0.0028(8) -0.0002(8) 0.0013(8)
O4 0.0048(5) 0.0102(5) 0.0092(5) 0.0006(5) -0.0001(5) 0.0001(5)
O5 0.0062(5) 0.0109(5) 0.0112(5) 0.0002(5) 0.0003(4) 0.0007(5)
C9 0.0045(5) 0.0093(5) 0.0087(5) 0.0001(5) 0.0000(4) 0.0000(5)
C10 0.012(3) 0.012(2) 0.0097(19) -0.0003(17) -0.0020(17) 0.0015(19)
C11 0.009(3) 0.019(3) 0.016(2) 0.0038(19) 0.0025(18) -0.0032(19)
C12 0.009(3) 0.029(3) 0.009(2) 0.0035(19) -0.0020(18) 0.000(2)
C13 0.015(3) 0.013(2) 0.011(2) 0.0011(18) 0.0016(19) 0.003(2)
C14 0.007(3) 0.021(2) 0.012(2) 0.0011(18) 0.0063(17) 0.0007(19)
C15 0.007(2) 0.014(2) 0.013(2) 0.0022(17) 0.0007(17) -0.0017(19)
C16 0.009(3) 0.020(3) 0.008(2) 0.0003(18) 0.0001(19) -0.001(2)
C17 0.008(3) 0.023(3) 0.011(2) 0.0018(18) 0.0024(17) 0.0044(19)
C18 0.009(3) 0.024(3) 0.014(2) 0.006(2) -0.0024(17) 0.004(2)
C19 0.0095(13) 0.0096(12) 0.0094(11) -0.0004(9) -0.0002(9) -0.0012(9)
C20 0.010(3) 0.014(2) 0.012(2) 0.0000(17) 0.0016(18) 0.003(2)
C21 0.019(3) 0.018(3) 0.011(2) 0.0045(18) 0.0016(19) 0.008(2)
C22 0.0121(9) 0.0156(9) 0.0096(8) 0.0017(7) 0.0007(7) -0.0012(7)
O6 0.0108(11) 0.0188(11) 0.0094(10) 0.0024(9) -0.0004(9) -0.0023(9)
O7 0.0140(11) 0.0175(11) 0.0088(10) 0.0020(9) 0.0028(9) 0.0004(10)
O8 0.0072(6) 0.0129(6) 0.0156(6) -0.0005(5) -0.0002(6) 0.0015(5)
C23 0.0079(6) 0.0132(6) 0.0164(6) -0.0008(6) -0.0008(6) 0.0015(6)
N1 0.0099(7) 0.0146(7) 0.0201(7) -0.0007(7) -0.0011(7) 0.0020(7)
C24 0.0118(8) 0.0159(8) 0.0217(8) -0.0002(8) -0.0014(8) 0.0019(8)
C25 0.0102(7) 0.0153(7) 0.0206(7) -0.0012(7) -0.0003(7) 0.0019(7)
Zn1A 0.0012 0.00879 0.00733 -9e-05 0.00014 -9e-05
Zn1C 0.0012 0.00879 0.00733 9e-05 0.00014 9e-05
Zn2A 0.0012 0.00879 0.00733 -9e-05 0.00014 -9e-05
Zn2C 0.0012 0.00879 0.00733 9e-05 0.00014 9e-05
O2C 0.0062 0.0099 0.0112 -0.0007 0.0003 -0.0002
O3C 0.0049 0.0098 0.0098 0.0002 0.0002 -0.0001
O6A 0.0108 0.0188 0.0094 -0.0024 0.0004 -0.0023
O7A 0.014 0.0175 0.0088 -0.002 -0.0028 0.0004
O9 0.055(2) 0.053(2) 0.053(2) 0.0066(16) -0.0003(17) 0.0031(17)
C26 0.0381(18) 0.0382(17) 0.0385(17) 0.0009(10) 0.0007(10) -0.0001(10)
N2 0.0393(16) 0.0381(16) 0.0396(15) 0.0010(10) 0.0020(10) 0.0015(10)
C27 0.053(3) 0.048(2) 0.049(2) 0.0010(18) -0.0035(18) -0.0008(19)
C28 0.065(3) 0.065(3) 0.068(3) 0.004(2) 0.0077(19) 0.0005(19)
O10 0.0468(19) 0.0431(19) 0.0461(18) 0.0045(16) -0.0019(16) 0.0069(16)
C29 0.0373(17) 0.0377(17) 0.0387(17) -0.0004(10) -0.0001(10) 0.0021(10)
N3 0.0431(17) 0.0425(16) 0.0445(16) -0.0001(10) 0.0005(10) 0.0001(10)
C30 0.056(3) 0.053(3) 0.057(3) -0.0005(19) 0.0038(19) 0.0018(19)
C31 0.052(3) 0.054(3) 0.060(3) -0.0014(19) -0.0010(19) 0.0005(19)
loop_
_geom_bond_atom_site_label_1
_geom_bond_atom_site_label_2
_geom_bond_site_symmetry_1
_geom_bond_site_symmetry_2
Zn1 O1 1_555 1_555
Zn2 O1 1_555 1_555
O1 C1 1_555 1_555
O2 C1 1_555 1_555
O3 Zn1 1_555 1_555
C1 C2 1_555 1_555
C2 O3 1_555 1_555
H1 C2 1_555 1_555
C3 C2 1_555 1_555
C4 C3 1_555 1_555
H2 C4 1_555 1_555
C5 C4 1_555 1_555
H3 C5 1_555 1_555
C6 C5 1_555 1_555
H4 C6 1_555 1_555
C7 C6 1_555 1_555
H5 C7 1_555 1_555
C8 C3 1_555 1_555
H6 C8 1_555 1_555
O4 Zn1 1_555 1_555
O5 Zn2 1_555 1_555
C9 O4 1_555 1_555
C10 C9 1_555 1_555
C11 C10 1_555 1_555
H7 C11 1_555 1_555
C12 C11 1_555 1_555
H8 C12 1_555 1_555
C13 C12 1_555 1_555
C14 C13 1_555 1_555
H9 C14 1_555 1_555
C15 C10 1_555 1_555
H10 C15 1_555 1_555
C16 C13 1_555 1_555
C17 C16 1_555 1_555
H11 C17 1_555 1_555
C18 C17 1_555 1_555
H12 C18 1_555 1_555
C19 C18 1_555 1_555
C20 C19 1_555 1_555
H13 C20 1_555 1_555
C21 C16 1_555 1_555
H14 C21 1_555 1_555
C22 C19 1_555 1_555
O6 C22 1_555 1_555
O7 C22 1_555 1_555
O8 Zn2 1_555 1_555
C23 O8 1_555 1_555
H15 C23 1_555 1_555
N1 C23 1_555 1_555
C24 N1 1_555 1_555
H16 C24 1_555 1_555
H17 C24 1_555 1_555
H18 C24 1_555 1_555
C25 N1 1_555 1_555
H19 C25 1_555 1_555
H20 C25 1_555 1_555
H21 C25 1_555 1_555
O9 C26 1_555 1_555
C26 H22 1_555 1_555
N2 C26 1_555 1_555
C27 N2 1_555 1_555
H23 C27 1_555 1_555
H24 C27 1_555 1_555
H25 C27 1_555 1_555
C28 N2 1_555 1_555
H26 C28 1_555 1_555
H27 C28 1_555 1_555
H28 C28 1_555 1_555
O10 C29 1_555 1_555
C29 H29 1_555 1_555
N3 C29 1_555 1_555
C30 N3 1_555 1_555
H30 C30 1_555 1_555
H31 C30 1_555 1_555
H32 C30 1_555 1_555
C31 N3 1_555 1_555
H33 C31 1_555 1_555
H34 C31 1_555 1_555
H35 C31 1_555 1_555
Zn1A O6 1_555 1_555
Zn1C O2 1_555 1_555
Zn2A O7 1_555 1_555
Zn2C O3 1_555 1_555
O2C Zn1 1_555 1_555
O3C Zn2 1_555 1_555
O6A Zn1 1_555 1_555
O7A Zn2 1_555 1_555
C7 C8 1_555 1_555
O5 C9 1_555 1_555
C14 C15 1_555 1_555
C20 C21 1_555 1_555
Zn1C O3C 1_555 1_555

#END
