
#######################################################################
#
#                 Cambridge Crystallographic Data Centre
#                                CCDC 
#
#######################################################################
#
# If this CIF has been generated from an entry in the Cambridge 
# Structural Database, then it will include bibliographic, chemical, 
# crystal, experimental, refinement or atomic coordinate data resulting 
# from the CCDC's data processing and validation procedures.
#
#######################################################################

data_AHOJUC
_chemical_formula_moiety         '(C2 H14 N2 O12 P4 V2)n'
_symmetry_cell_setting           monoclinic
_symmetry_space_group_name_H-M   'P 2/c'
_symmetry_Int_Tables_number      13
_space_group_name_Hall           '-P 2yc'
loop_
_symmetry_equiv_pos_site_id
_symmetry_equiv_pos_as_xyz
1 x,y,z
2 -x,y,1/2-z
3 -x,-y,-z
4 x,-y,1/2+z
_cell_length_a                   9.243(1)
_cell_length_b                   8.817(1)
_cell_length_c                   9.684(1)
_cell_angle_alpha                90
_cell_angle_beta                 120.92(2)
_cell_angle_gamma                90
_cell_volume                     677.046
loop_
_atom_site_label
_atom_site_type_symbol
_atom_site_fract_x
_atom_site_fract_y
_atom_site_fract_z
V1 V 0.0000 -0.3927(8) -0.25
V2 V 0.5000 -0.1104(8) -0.2500
P1 P 0.2576(7) -0.1017(9) -0.0735(8)
P2 P 0.1674(8) -0.3329(8) -0.4728(7)
O1 O 0.136(2) -0.399(1) -0.345(2)
O2 O 0.346(2) -0.257(1) -0.410(2)
O3 O 0.152(1) -0.448(1) -0.605(2)
O4 O 0.356(1) -0.058(2) 0.104(2)
O5 O 0.137(2) -0.232(1) -0.105(2)
O6 O 0.369(2) -0.115(1) -0.139(2)
P2A P -0.1674(8) -0.3329(8) -0.0272(7)
O1A O -0.136(2) -0.399(1) -0.155(2)
O2A O -0.346(2) -0.257(1) -0.090(2)
O3A O -0.152(1) -0.448(1) 0.105(2)
P1A P -0.2576(7) -0.1017(9) -0.4265(8)
O4A O -0.356(1) -0.058(2) -0.604(2)
O5A O -0.137(2) -0.232(1) -0.395(2)
O6A O -0.369(2) -0.115(1) -0.361(2)
O3B O -0.152(1) -0.552(1) -0.395(2)
O3C O 0.152(1) -0.552(1) -0.105(2)
O2A_2 O 0.654(2) -0.257(1) -0.090(2)
O4B O 0.644(1) 0.058(2) -0.104(2)
O4C O 0.356(1) 0.058(2) -0.396(2)
O6A_2 O 0.631(2) -0.115(1) -0.361(2)
V1B V 0.0000 -0.6073(8) -0.75
V2B V 0.5000 0.1104(8) 0.2500
V2_2 V -0.5000 -0.1104(8) -0.2500
V1B_2 V 0.0000 -0.6073(8) 0.25
V2B_2 V -0.5000 0.1104(8) -0.7500
N1 N 0.348(1) 0.697(1) 0.297(2)
C1 C 0.489(2) 0.587(2) 0.322(1)
C1A C 0.511(2) 0.587(2) 0.178(1)
N1A N 0.652(1) 0.697(1) 0.203(2)
loop_
_geom_bond_atom_site_label_1
_geom_bond_atom_site_label_2
_geom_bond_site_symmetry_1
_geom_bond_site_symmetry_2
V1 O1 1_555 1_555
V2 O2 1_555 1_555
P1 O4 1_555 1_555
P2 O1 1_555 1_555
O2 P2 1_555 1_555
O3 P2 1_555 1_555
O4 V2B 1_555 1_555
O5 V1 1_555 1_555
O6 V2 1_555 1_555
N1 C1 1_555 1_555
C1 C1A 1_555 1_555
C1A N1A 1_555 1_555
P2A O1A 1_555 1_555
O1A V1 1_555 1_555
O2A P2A 1_555 1_555
O3A P2A 1_555 1_555
P1A O4A 1_555 1_555
O4A V2B_2 1_555 1_555
O5A V1 1_555 1_555
O6A P1A 1_555 1_555
O3B V1 1_555 1_555
O3C V1 1_555 1_555
O2A_2 V2 1_555 1_555
O4B V2 1_555 1_555
O4C V2 1_555 1_555
O6A_2 V2 1_555 1_555
V1B O3 1_555 1_555
V2_2 O2A 1_555 1_555
V1B_2 O3A 1_555 1_555
P1 O5 1_555 1_555
P1 O6 1_555 1_555
P1A O5A 1_555 1_555
O6A V2_2 1_555 1_555

#END
