
#######################################################################
#
#                 Cambridge Crystallographic Data Centre
#                                CCDC 
#
#######################################################################
#
# If this CIF has been generated from an entry in the Cambridge 
# Structural Database, then it will include bibliographic, chemical, 
# crystal, experimental, refinement or atomic coordinate data resulting 
# from the CCDC's data processing and validation procedures.
#
#######################################################################

data_AHOKAJ
_chemical_formula_moiety         '(C2 H14 Fe2 N2 O12 P4)n'
_symmetry_cell_setting           monoclinic
_symmetry_space_group_name_H-M   'P 2/c'
_symmetry_Int_Tables_number      13
_space_group_name_Hall           '-P 2yc'
loop_
_symmetry_equiv_pos_site_id
_symmetry_equiv_pos_as_xyz
1 x,y,z
2 -x,y,1/2-z
3 -x,-y,-z
4 x,-y,1/2+z
_cell_length_a                   9.247(1)
_cell_length_b                   8.824(1)
_cell_length_c                   9.693(1)
_cell_angle_alpha                90
_cell_angle_beta                 120.72(1)
_cell_angle_gamma                90
_cell_volume                     679.921
loop_
_atom_site_label
_atom_site_type_symbol
_atom_site_fract_x
_atom_site_fract_y
_atom_site_fract_z
Fe1 Fe -0.0000 0.6096(7) 0.7500
Fe2 Fe 0.5000 0.8877(7) 0.7500
P1 P 0.2632(8) 0.8975(8) 0.9315(8)
P2 P 0.1647(8) 0.6676(8) 0.5269(8)
O1 O 0.143(1) 0.596(1) 0.658(2)
O2 O 0.332(1) 0.735(1) 0.586(2)
O3 O 0.149(1) 0.556(2) 0.395(2)
O4 O 0.347(1) 0.941(1) 1.107(2)
O5 O 0.138(1) 0.770(1) 0.901(1)
O6 O 0.374(1) 0.882(1) 0.868(1)
P2A P -0.1647(8) 0.6676(8) 0.9731(8)
O1A O -0.143(1) 0.596(1) 0.842(2)
O2A O -0.332(1) 0.735(1) 0.914(2)
O3A O -0.149(1) 0.556(2) 1.105(2)
P1A P -0.2632(8) 0.8975(8) 0.5685(8)
O4A O -0.347(1) 0.941(1) 0.393(2)
O5A O -0.138(1) 0.770(1) 0.599(1)
O6A O -0.374(1) 0.882(1) 0.632(1)
O3B O -0.149(1) 0.444(2) 0.605(2)
O3C O 0.149(1) 0.444(2) 0.895(2)
O2A_2 O 0.668(1) 0.735(1) 0.914(2)
O4B O 0.653(1) 1.059(1) 0.893(2)
O4C O 0.347(1) 1.059(1) 0.607(2)
O6A_2 O 0.626(1) 0.882(1) 0.632(1)
Fe1B Fe -0.0000 0.3904(7) 0.2500
Fe2B Fe 0.5000 1.1123(7) 1.2500
Fe2_2 Fe -0.5000 0.8877(7) 0.7500
Fe1B_2 Fe 0.0000 0.3904(7) 1.2500
Fe2B_2 Fe -0.5000 1.1123(7) 0.2500
N1 N 0.359(2) 0.698(1) 0.302(2)
C1 C 0.483(2) 0.587(2) 0.322(2)
C1A C 0.517(2) 0.587(2) 0.178(2)
N1A N 0.641(2) 0.698(1) 0.198(2)
loop_
_geom_bond_atom_site_label_1
_geom_bond_atom_site_label_2
_geom_bond_site_symmetry_1
_geom_bond_site_symmetry_2
Fe1 O1 1_555 1_555
Fe2 O2 1_555 1_555
P1 O4 1_555 1_555
P2 O1 1_555 1_555
O2 P2 1_555 1_555
O3 P2 1_555 1_555
O4 Fe2B 1_555 1_555
O5 Fe1 1_555 1_555
O6 Fe2 1_555 1_555
N1 C1 1_555 1_555
C1 C1A 1_555 1_555
C1A N1A 1_555 1_555
P2A O1A 1_555 1_555
O1A Fe1 1_555 1_555
O2A P2A 1_555 1_555
O3A P2A 1_555 1_555
P1A O4A 1_555 1_555
O4A Fe2B_2 1_555 1_555
O5A Fe1 1_555 1_555
O6A P1A 1_555 1_555
O3B Fe1 1_555 1_555
O3C Fe1 1_555 1_555
O2A_2 Fe2 1_555 1_555
O4B Fe2 1_555 1_555
O4C Fe2 1_555 1_555
O6A_2 Fe2 1_555 1_555
Fe1B O3 1_555 1_555
Fe2_2 O2A 1_555 1_555
Fe1B_2 O3A 1_555 1_555
P1 O5 1_555 1_555
P1 O6 1_555 1_555
P1A O5A 1_555 1_555
O6A Fe2_2 1_555 1_555

#END
