
#######################################################################
#
#                 Cambridge Crystallographic Data Centre
#                                CCDC 
#
#######################################################################
#
# If this CIF has been generated from an entry in the Cambridge 
# Structural Database, then it will include bibliographic, chemical, 
# crystal, experimental, refinement or atomic coordinate data resulting 
# from the CCDC's data processing and validation procedures.
#
#######################################################################

data_HAKSEU
_chemical_formula_moiety         'C30 H18 In11 N11 Ni2 O25'
_symmetry_cell_setting           hexagonal
_symmetry_space_group_name_H-M   'P 63/m m c'
_symmetry_Int_Tables_number      194
_space_group_name_Hall           '-P 6c 2c'
loop_
_symmetry_equiv_pos_site_id
_symmetry_equiv_pos_as_xyz
1 x,y,z
2 -y,x-y,z
3 -x+y,-x,z
4 -x,-y,1/2+z
5 y,-x+y,1/2+z
6 x-y,x,1/2+z
7 y,x,-z
8 x-y,-y,-z
9 -x,-x+y,-z
10 -y,-x,1/2-z
11 -x+y,y,1/2-z
12 x,x-y,1/2-z
13 -x,-y,-z
14 y,-x+y,-z
15 x-y,x,-z
16 x,y,1/2-z
17 -y,x-y,1/2-z
18 -x+y,-x,1/2-z
19 -y,-x,z
20 -x+y,y,z
21 x,x-y,z
22 y,x,1/2+z
23 x-y,-y,1/2+z
24 -x,-x+y,1/2+z
_cell_length_a                   13.8618(13)
_cell_length_b                   13.8618(13)
_cell_length_c                   18.5079(19)
_cell_angle_alpha                90
_cell_angle_beta                 90
_cell_angle_gamma                120
_cell_volume                     3079.83
loop_
_atom_site_label
_atom_site_type_symbol
_atom_site_fract_x
_atom_site_fract_y
_atom_site_fract_z
In1 In 0.75136(3) 0.24864(3) 0.2500
O1 O 0.6483(3) 0.1355(3) 0.1645(2)
O2 O 0.6667 0.3333 0.2500
N1 N 0.8412(3) 0.1588(3) 0.2500
C1 C 0.5567(3) 0.1134(6) 0.1378(4)
C2 C 0.8748(4) 0.1252(4) 0.3070(5)
C3 C 0.5267(3) 0.0534(6) 0.0678(4)
H1 H 0.8621 0.1379 0.3545
N2 N 0.9279(3) 0.0721(3) 0.2893(4)
C4 C 0.5988(5) 0.0266(5) 0.0333(4)
Ni1 Ni 1.0000 0.0000 0.36051(11)
H2 H 0.6662 0.0446 0.0550
O3 O 1.0833(2) 0.1666(5) 0.4312(4)
O1I O 0.8645(3) 0.3517(3) 0.3355(2)
O1O O 0.6483(3) 0.1355(3) 0.3355(2)
O1R O 0.8645(3) 0.3517(3) 0.1645(2)
In1A In 0.75136(3) 0.50272(4) 0.2500
In1B In 0.49728(4) 0.24864(3) 0.2500
C2I C 0.8748(4) 0.1252(4) 0.1930(5)
C1I C 0.8866(6) 0.4433(3) 0.3622(4)
O1S O 0.4872(4) 0.1355(3) 0.1645(2)
O1P O 0.8645(3) 0.5128(4) 0.3355(2)
O1A O 0.8645(3) 0.5128(4) 0.1645(2)
O1T O 0.6483(3) 0.5128(4) 0.1645(2)
N1A N 0.8412(3) 0.6824(4) 0.2500
O1K O 0.6483(3) 0.5128(4) 0.3355(2)
O1J O 0.4872(4) 0.1355(3) 0.3355(2)
O1B O 0.4872(4) 0.3517(3) 0.1645(2)
N1B N 0.3176(4) 0.1588(3) 0.2500
O1Q O 0.4872(4) 0.3517(3) 0.3355(2)
H1I H 0.8621 0.1379 0.1455
N2I N 0.9279(3) 0.0721(3) 0.2107(4)
C3I C 0.9466(6) 0.4733(3) 0.4322(4)
C4S C 0.4278(7) 0.0266(5) 0.0333(4)
C1B C 0.5567(7) 0.4433(3) 0.1378(4)
Ni1I Ni 1.0000 -0.0000 0.13949(11)
C4P C 0.9734(5) 0.5722(7) 0.4667(4)
C4I C 0.9734(5) 0.4012(5) 0.4667(4)
C4G C 0.5722(7) -0.0266(5) -0.0333(4)
C4L C 0.4012(5) -0.0266(5) -0.0333(4)
H2S H 0.3784 0.0446 0.0550
C3B C 0.5267(7) 0.4733(3) 0.0678(4)
N2A N 0.9279(3) -0.1442(4) 0.2893(4)
O3A O 0.8334(5) -0.0833(5) 0.4312(4)
O3B O 1.0833(5) -0.0833(2) 0.4312(4)
N2B N 1.1442(4) 0.0721(3) 0.2893(4)
N2K N 0.9279(3) -0.1442(4) 0.2107(4)
O3K O 1.0833(2) -0.0833(5) 0.0688(4)
O3J O 1.0833(5) 0.1666(5) 0.0688(4)
O3I O 0.8334(5) -0.0833(2) 0.0688(4)
N2J N 1.1442(4) 0.0721(3) 0.2107(4)
H2P H 0.9554 0.6216 0.4450
C4U C 1.0266(5) 0.5988(5) 0.5333(4)
C4D C 1.0266(5) 0.4278(7) 0.5333(4)
H2I H 0.9554 0.3338 0.4450
C3G C 0.4733(7) -0.0534(6) -0.0678(4)
H2G H 0.6216 -0.0446 -0.0550
H2L H 0.3338 -0.0446 -0.0550
C4B C 0.4278(7) 0.4012(5) 0.0333(4)
C4T C 0.5988(5) 0.5722(7) 0.0333(4)
C2A C 0.8748(4) -0.2504(6) 0.3070(5)
C2B C 1.2504(6) 0.1252(4) 0.3070(5)
C2K C 0.8748(4) -0.2504(6) 0.1930(5)
C2J C 1.2504(6) 0.1252(4) 0.1930(5)
H2U H 1.0446 0.6662 0.5550
C3D C 1.0534(6) 0.5267(7) 0.5678(4)
H2D H 1.0446 0.3784 0.5550
C1G C 0.4433(7) -0.1134(6) -0.1378(4)
C4H C 0.4012(5) 0.4278(7) -0.0333(4)
H2B H 0.3784 0.3338 0.0550
C4N C 0.5722(7) 0.5988(5) -0.0333(4)
H2T H 0.6662 0.6216 0.0550
H1A H 0.8621 -0.2758 0.3545
N1A_2 N 0.8412(3) -0.3176(4) 0.2500
N1B_2 N 1.3176(4) 0.1588(3) 0.2500
H1B H 1.2758 0.1379 0.3545
H1K H 0.8621 -0.2758 0.1455
H1J H 1.2758 0.1379 0.1455
C1D C 1.1134(6) 0.5567(7) 0.6378(4)
O1G O 0.5128(4) -0.1355(3) -0.1645(2)
O1L O 0.3517(3) -0.1355(3) -0.1645(2)
H2H H 0.3338 0.3784 -0.0550
C3H C 0.4733(3) 0.5267(7) -0.0678(4)
H2N H 0.6216 0.6662 -0.0550
In1A_2 In 0.75136(3) -0.49728(4) 0.2500
In1B_2 In 1.49728(4) 0.24864(3) 0.2500
O1U O 1.1355(3) 0.6483(3) 0.6645(2)
O1D O 1.1355(3) 0.4872(4) 0.6645(2)
In1E In 0.50272(4) -0.24864(3) -0.2500
In1C In 0.24864(3) -0.24864(3) -0.2500
C1H C 0.4433(3) 0.5567(7) -0.1378(4)
In1C_2 In 1.24864(3) 0.75136(3) 0.7500
In1D In 1.24864(3) 0.49728(4) 0.7500
O1N O 0.5128(4) 0.6483(3) -0.1645(2)
O1H O 0.3517(3) 0.4872(4) -0.1645(2)
In1E_2 In 0.50272(4) 0.75136(3) -0.2500
In1D_2 In 0.24864(3) 0.49728(4) -0.2500
loop_
_geom_bond_atom_site_label_1
_geom_bond_atom_site_label_2
_geom_bond_site_symmetry_1
_geom_bond_site_symmetry_2
In1 O1 1_555 1_555
O1 C1 1_555 1_555
O2 In1 1_555 1_555
N1 In1 1_555 1_555
C1 C3 1_555 1_555
C2 N1 1_555 1_555
C3 C4 1_555 1_555
H1 C2 1_555 1_555
N2 C2 1_555 1_555
C4 H2 1_555 1_555
Ni1 N2 1_555 1_555
O3 Ni1 1_555 1_555
O1I In1 1_555 1_555
O1O In1 1_555 1_555
O1R In1 1_555 1_555
In1A O2 1_555 1_555
In1B O2 1_555 1_555
C2I N1 1_555 1_555
C1I O1I 1_555 1_555
O1S C1 1_555 1_555
O1P In1A 1_555 1_555
O1A In1A 1_555 1_555
O1T In1A 1_555 1_555
N1A In1A 1_555 1_555
O1K In1A 1_555 1_555
O1J In1B 1_555 1_555
O1B In1B 1_555 1_555
N1B In1B 1_555 1_555
O1Q In1B 1_555 1_555
H1I C2I 1_555 1_555
N2I N2 1_555 1_555
C3I C1I 1_555 1_555
C4S C3 1_555 1_555
C1B O1T 1_555 1_555
Ni1I N2I 1_555 1_555
C4P C3I 1_555 1_555
C4I C3I 1_555 1_555
C4G C4 1_555 1_555
C4L C4S 1_555 1_555
H2S C4S 1_555 1_555
C3B C1B 1_555 1_555
N2A Ni1 1_555 1_555
O3A Ni1 1_555 1_555
O3B Ni1 1_555 1_555
N2B Ni1 1_555 1_555
N2K Ni1I 1_555 1_555
O3K Ni1I 1_555 1_555
O3J Ni1I 1_555 1_555
O3I Ni1I 1_555 1_555
N2J Ni1I 1_555 1_555
H2P C4P 1_555 1_555
C4U C4P 1_555 1_555
C4D C4I 1_555 1_555
H2I C4I 1_555 1_555
C3G C4G 1_555 1_555
H2G C4G 1_555 1_555
H2L C4L 1_555 1_555
C4B C3B 1_555 1_555
C4T C3B 1_555 1_555
C2A N2A 1_555 1_555
C2B N2B 1_555 1_555
C2K N2K 1_555 1_555
C2J N2J 1_555 1_555
H2U C4U 1_555 1_555
C3D C4U 1_555 1_555
H2D C4D 1_555 1_555
C1G C3G 1_555 1_555
C4H C4B 1_555 1_555
H2B C4B 1_555 1_555
C4N C4T 1_555 1_555
H2T C4T 1_555 1_555
H1A C2A 1_555 1_555
N1A_2 C2A 1_555 1_555
N1B_2 C2B 1_555 1_555
H1B C2B 1_555 1_555
H1K C2K 1_555 1_555
H1J C2J 1_555 1_555
C1D C3D 1_555 1_555
O1G C1G 1_555 1_555
O1L C1G 1_555 1_555
H2H C4H 1_555 1_555
C3H C4H 1_555 1_555
H2N C4N 1_555 1_555
In1A_2 N1A_2 1_555 1_555
In1B_2 N1B_2 1_555 1_555
O1U C1D 1_555 1_555
O1D C1D 1_555 1_555
In1E O1G 1_555 1_555
In1C O1L 1_555 1_555
C1H C3H 1_555 1_555
In1C_2 O1U 1_555 1_555
In1D O1D 1_555 1_555
O1N C1H 1_555 1_555
O1H C1H 1_555 1_555
In1E_2 O1N 1_555 1_555
In1D_2 O1H 1_555 1_555
In1B O1S 1_555 1_555
C2I N2I 1_555 1_555
C1I O1P 1_555 1_555
O1B C1B 1_555 1_555
C4L C3G 1_555 1_555
N2A N2K 1_555 1_555
N2B N2J 1_555 1_555
C4D C3D 1_555 1_555
C2K N1A_2 1_555 1_555
C2J N1B_2 1_555 1_555
C4N C3H 1_555 1_555

#END
