
#######################################################################
#
#                 Cambridge Crystallographic Data Centre
#                                CCDC 
#
#######################################################################
#
# If this CIF has been generated from an entry in the Cambridge 
# Structural Database, then it will include bibliographic, chemical, 
# crystal, experimental, refinement or atomic coordinate data resulting 
# from the CCDC's data processing and validation procedures.
#
#######################################################################

data_HAKVOH
_chemical_formula_moiety         'C30 H6 Cu3 Fe11 N11 O32'
_symmetry_cell_setting           hexagonal
_symmetry_space_group_name_H-M   'P 63/m m c'
_symmetry_Int_Tables_number      194
_space_group_name_Hall           '-P 6c 2c'
loop_
_symmetry_equiv_pos_site_id
_symmetry_equiv_pos_as_xyz
1 x,y,z
2 -y,x-y,z
3 -x+y,-x,z
4 -x,-y,1/2+z
5 y,-x+y,1/2+z
6 x-y,x,1/2+z
7 y,x,-z
8 x-y,-y,-z
9 -x,-x+y,-z
10 -y,-x,1/2-z
11 -x+y,y,1/2-z
12 x,x-y,1/2-z
13 -x,-y,-z
14 y,-x+y,-z
15 x-y,x,-z
16 x,y,1/2-z
17 -y,x-y,1/2-z
18 -x+y,-x,1/2-z
19 -y,-x,z
20 -x+y,y,z
21 x,x-y,z
22 y,x,1/2+z
23 x-y,-y,1/2+z
24 -x,-x+y,1/2+z
_cell_length_a                   15.7672(7)
_cell_length_b                   15.7672(7)
_cell_length_c                   16.6814(8)
_cell_angle_alpha                90
_cell_angle_beta                 90
_cell_angle_gamma                120
_cell_volume                     3591.47
loop_
_atom_site_label
_atom_site_type_symbol
_atom_site_fract_x
_atom_site_fract_y
_atom_site_fract_z
Fe1 Fe 0.74206(5) 0.48411(10) 0.7500
O1 O 0.6667 0.3333 0.7500
O2 O 0.8370(3) 0.4883(3) 0.6596(3)
C1 C 0.8633(6) 0.4316(3) 0.6333(4)
C2 C 0.9696(7) 0.5607(6) 0.5327(5)
C3 C 0.9345(7) 0.4672(3) 0.5644(5)
N1 N 0.9404(9) 0.7945(9) 0.7500
N2 N 0.8217(4) 0.6434(7) 0.7500
C4 C 0.9090(13) 0.7002(8) 0.7500
H1 H 0.9531 0.6774 0.7500
Cu1 Cu 1.07467(12) 0.92533(12) 0.7500
O3 O 1.0000 1.0000 0.7500
O4 O 0.9340(11) 0.6201(11) 0.5604(9)
O2H O 1.1630(3) 0.6513(4) 0.3404(3)
C1H C 1.1367(6) 0.5683(7) 0.3667(4)
C2H C 1.0304(7) 0.5911(9) 0.4673(5)
C3H C 1.0655(7) 0.5327(8) 0.4356(5)
O4H O 1.0660(11) 0.6861(16) 0.4396(9)
O2L O 1.1630(3) 0.5117(3) 0.3404(3)
C2L C 1.0304(7) 0.4393(6) 0.4673(5)
O4L O 1.0660(11) 0.3799(11) 0.4396(9)
O2T O 0.8370(3) 0.3487(4) 0.6596(3)
C2T C 0.9696(7) 0.4089(9) 0.5327(5)
O4T O 0.9340(11) 0.3139(16) 0.5604(9)
N1A N 1.2055(9) 1.1459(13) 0.7500
N2A N 1.3566(7) 1.1783(8) 0.7500
C4A C 1.2998(8) 1.2088(15) 0.7500
H1A H 1.3226 1.2757 0.7500
Cu1A Cu 1.07467(12) 1.14934(17) 0.7500
N1B N 0.8541(13) 1.0596(9) 0.7500
N2B N 0.8217(8) 1.1783(4) 0.7500
C4B C 0.7912(15) 1.0910(13) 0.7500
H1B H 0.7243 1.0469 0.7500
Cu1B Cu 0.85066(17) 0.92533(12) 0.7500
N1I N 1.2055(9) 1.0596(9) 0.7500
C4I C 1.2998(8) 1.0910(13) 0.7500
H1I H 1.3226 1.0469 0.7500
N1J N 0.8541(13) 0.7945(9) 0.7500
C4J C 0.7912(15) 0.7002(8) 0.7500
H1J H 0.7243 0.6774 0.7500
N1K N 0.9404(9) 1.1459(13) 0.7500
C4K C 0.9090(13) 1.2088(15) 0.7500
H1K H 0.9531 1.2757 0.7500
Fe1A Fe 0.51589(10) 0.25795(11) 0.7500
O2A O 0.5117(3) 0.3487(4) 0.6596(3)
C1A C 0.5684(3) 0.4317(7) 0.6333(4)
C2A C 0.4393(6) 0.4089(9) 0.5327(5)
C3A C 0.5328(3) 0.4673(8) 0.5644(5)
O4A O 0.3799(11) 0.3139(16) 0.5604(9)
O2G O 0.3487(4) 0.5117(3) 0.3404(3)
C1G C 0.4317(7) 0.5684(3) 0.3667(4)
C2G C 0.4089(9) 0.4393(6) 0.4673(5)
C3G C 0.4673(8) 0.5328(3) 0.4356(5)
O4G O 0.3139(16) 0.3799(11) 0.4396(9)
O2M O 0.4883(3) 0.6513(4) 0.3404(3)
C2M C 0.5607(6) 0.5911(9) 0.4673(5)
O4M O 0.6201(11) 0.6861(16) 0.4396(9)
O2S O 0.6513(4) 0.4883(3) 0.6596(3)
C2S C 0.5911(9) 0.5607(6) 0.5327(5)
O4S O 0.6861(16) 0.6201(11) 0.5604(9)
Fe1B Fe 0.74205(11) 0.25794(5) 0.7500
O2B O 0.6513(4) 0.1630(3) 0.6596(3)
C1B C 0.5683(7) 0.1367(6) 0.6333(4)
C2B C 0.5911(9) 0.0304(7) 0.5327(5)
C3B C 0.5327(8) 0.0655(7) 0.5644(5)
O4B O 0.6861(16) 0.0660(11) 0.5604(9)
O2F O 0.4883(3) -0.1630(3) 0.3404(3)
C1F C 0.4316(3) -0.1367(6) 0.3667(4)
C2F C 0.5607(6) -0.0304(7) 0.4673(5)
C3F C 0.4672(3) -0.0655(7) 0.4356(5)
O4F O 0.6201(11) -0.0660(11) 0.4396(9)
O2N O 0.3487(4) -0.1630(3) 0.3404(3)
C2N C 0.4089(9) -0.0304(7) 0.4673(5)
O4N O 0.3139(16) -0.0660(11) 0.4396(9)
O2R O 0.5117(3) 0.1630(3) 0.6596(3)
C2R C 0.4393(6) 0.0304(7) 0.5327(5)
O4R O 0.3799(11) 0.0660(11) 0.5604(9)
Fe1A_2 Fe 1.51589(10) 1.25795(11) 0.7500
Fe1B_2 Fe 0.74205(11) 1.25794(5) 0.7500
Fe1C Fe 0.25794(5) 0.51589(10) 0.2500
Fe1C_2 Fe 1.25794(5) 0.51589(10) 0.2500
Fe1D Fe 0.48411(10) -0.25795(11) 0.2500
Fe1D_2 Fe 0.48411(10) 0.74205(11) 0.2500
Fe1E Fe 0.25795(11) -0.25794(5) 0.2500
Fe1E_2 Fe 1.25795(11) 0.74206(5) 0.2500
O2I O 0.5117(3) 0.1630(3) 0.8404(3)
O2J O 0.6513(4) 0.4883(3) 0.8404(3)
O2K O 0.8370(3) 0.3487(4) 0.8404(3)
O2O O 0.8370(3) 0.4883(3) 0.8404(3)
O2P O 0.5117(3) 0.3487(4) 0.8404(3)
O2Q O 0.6513(4) 0.1630(3) 0.8404(3)
N2A_2 N 0.3566(7) 0.1783(8) 0.7500
N2B_2 N 0.8217(8) 0.1783(4) 0.7500
loop_
_geom_bond_atom_site_label_1
_geom_bond_atom_site_label_2
_geom_bond_site_symmetry_1
_geom_bond_site_symmetry_2
Fe1 O1 1_555 1_555
O1 Fe1A 1_555 1_555
O2 Fe1 1_555 1_555
C1 O2 1_555 1_555
C2 C3 1_555 1_555
C3 C1 1_555 1_555
N1 C4 1_555 1_555
N2 Fe1 1_555 1_555
C4 N2 1_555 1_555
H1 C4 1_555 1_555
Cu1 N1 1_555 1_555
O3 Cu1 1_555 1_555
O4 C2 1_555 1_555
O2H C1H 1_555 1_555
C1H C3H 1_555 1_555
C2H C2 1_555 1_555
C3H C2H 1_555 1_555
O4H C2H 1_555 1_555
O2L C1H 1_555 1_555
C2L C3H 1_555 1_555
O4L C2L 1_555 1_555
O2T C1 1_555 1_555
C2T C3 1_555 1_555
O4T C2T 1_555 1_555
N1A C4A 1_555 1_555
N2A C4A 1_555 1_555
C4A H1A 1_555 1_555
Cu1A O3 1_555 1_555
N1B C4B 1_555 1_555
N2B C4B 1_555 1_555
C4B H1B 1_555 1_555
Cu1B O3 1_555 1_555
N1I Cu1 1_555 1_555
C4I N2A 1_555 1_555
H1I C4I 1_555 1_555
N1J N1 1_555 1_555
C4J N2 1_555 1_555
H1J C4J 1_555 1_555
N1K Cu1A 1_555 1_555
C4K N2B 1_555 1_555
H1K C4K 1_555 1_555
Fe1A O2A 1_555 1_555
O2A C1A 1_555 1_555
C1A C3A 1_555 1_555
C2A C3A 1_555 1_555
C3A C2S 1_555 1_555
O4A C2A 1_555 1_555
O2G C1G 1_555 1_555
C1G C3G 1_555 1_555
C2G C2A 1_555 1_555
C3G C2G 1_555 1_555
O4G C2G 1_555 1_555
O2M C1G 1_555 1_555
C2M C3G 1_555 1_555
O4M C2M 1_555 1_555
O2S Fe1 1_555 1_555
C2S C2M 1_555 1_555
O4S C2S 1_555 1_555
Fe1B O1 1_555 1_555
O2B Fe1B 1_555 1_555
C1B O2B 1_555 1_555
C2B C3B 1_555 1_555
C3B C1B 1_555 1_555
O4B C2B 1_555 1_555
O2F C1F 1_555 1_555
C1F C3F 1_555 1_555
C2F C2B 1_555 1_555
C3F C2F 1_555 1_555
O4F C2F 1_555 1_555
O2N C1F 1_555 1_555
C2N C3F 1_555 1_555
O4N C2N 1_555 1_555
O2R Fe1A 1_555 1_555
C2R C3B 1_555 1_555
O4R C2R 1_555 1_555
Fe1A_2 N2A 1_555 1_555
Fe1B_2 N2B 1_555 1_555
Fe1C O2G 1_555 1_555
Fe1C_2 O2L 1_555 1_555
Fe1D O2F 1_555 1_555
Fe1D_2 O2M 1_555 1_555
Fe1E O2N 1_555 1_555
Fe1E_2 O2H 1_555 1_555
O2I Fe1A 1_555 1_555
O2J Fe1 1_555 1_555
O2K Fe1B 1_555 1_555
O2O Fe1 1_555 1_555
O2P Fe1A 1_555 1_555
O2Q Fe1B 1_555 1_555
N2A_2 Fe1A 1_555 1_555
N2B_2 Fe1B 1_555 1_555
C2L C2T 1_555 1_555
O2T Fe1B 1_555 1_555
N1A Cu1A 1_555 1_555
N1A N1I 1_555 1_555
N1B Cu1B 1_555 1_555
N1B N1K 1_555 1_555
Cu1B N1J 1_555 1_555
N1I C4I 1_555 1_555
N1J C4J 1_555 1_555
N1K C4K 1_555 1_555
C1A O2S 1_555 1_555
C1B O2R 1_555 1_555
C2N C2R 1_555 1_555

#END
