
#######################################################################
#
#                 Cambridge Crystallographic Data Centre
#                                CCDC 
#
#######################################################################
#
# If this CIF has been generated from an entry in the Cambridge 
# Structural Database, then it will include bibliographic, chemical, 
# crystal, experimental, refinement or atomic coordinate data resulting 
# from the CCDC's data processing and validation procedures.
#
#######################################################################

data_HAKWAU
_chemical_formula_moiety         '(C21 H16 Cu1 Mg3 N3 O16)n'
_symmetry_cell_setting           hexagonal
_symmetry_space_group_name_H-M   'P -6 2 c'
_symmetry_Int_Tables_number      190
_space_group_name_Hall           'P -6c -2c'
loop_
_symmetry_equiv_pos_site_id
_symmetry_equiv_pos_as_xyz
1 x,y,z
2 -y,x-y,z
3 -x+y,-x,z
4 x,y,1/2-z
5 -y,x-y,1/2-z
6 -x+y,-x,1/2-z
7 y,x,-z
8 x-y,-y,-z
9 -x,-x+y,-z
10 y,x,1/2+z
11 x-y,-y,1/2+z
12 -x,-x+y,1/2+z
_cell_length_a                   13.1696(12)
_cell_length_b                   13.1696(12)
_cell_length_c                   14.7973(17)
_cell_angle_alpha                90
_cell_angle_beta                 90
_cell_angle_gamma                120
_cell_volume                     2222.58
loop_
_atom_site_label
_atom_site_type_symbol
_atom_site_fract_x
_atom_site_fract_y
_atom_site_fract_z
Cu1 Cu 1.0000 1.0000 0.5000
Mg1 Mg 0.8340(2) 0.36465(19) 0.7500
O1 O 0.6667 0.3333 0.7500
O2 O 0.8822(4) 0.4901(3) 0.6478(2)
O3 O 0.7623(3) 0.5651(4) 0.6527(3)
O4 O 1.0036(5) 0.4005(6) 0.7500
C1 C 0.9276(4) 0.7591(4) 0.5543(3)
H1 H 0.8750 0.7681 0.5905
C2 C 0.9278(4) 0.6542(4) 0.5587(3)
C3 C 0.8485(4) 0.5601(5) 0.6260(3)
N1 N 1.0000 0.8490(5) 0.5000
C4 C 1.0000 0.6368(5) 0.5000
H2 H 1.0000 0.5662 0.5000
O2H O 1.1178(4) 0.6079(5) 0.3522(2)
C1H C 1.0724(4) 0.8315(6) 0.4457(3)
H1H H 1.1250 0.8931 0.4095
C2H C 1.0722(4) 0.7264(6) 0.4413(3)
C3H C 1.1515(4) 0.7116(6) 0.3740(3)
O3H O 1.2377(3) 0.8028(5) 0.3473(3)
Mg1A Mg 0.63535(19) 0.46935(28) 0.7500
O2A O 0.5099(3) 0.3921(5) 0.6478(2)
O3A O 0.4349(4) 0.1972(5) 0.6527(3)
O4A O 0.5995(6) 0.6031(8) 0.7500
C1A C 0.2409(4) 0.1685(6) 0.5543(3)
H1A H 0.2319 0.1069 0.5905
C2A C 0.3458(4) 0.2736(6) 0.5587(3)
C3A C 0.4399(5) 0.2884(6) 0.6260(3)
N1A N 0.1510(5) 0.1510(5) 0.5000
C4A C 0.3632(5) 0.3632(5) 0.5000
H2A H 0.4338 0.4338 0.5000
O2G O 0.3921(5) 0.5099(3) 0.3522(2)
C1G C 0.1685(6) 0.2409(4) 0.4457(3)
H1G H 0.1069 0.2319 0.4095
C2G C 0.2736(6) 0.3458(4) 0.4413(3)
C3G C 0.2884(6) 0.4399(5) 0.3740(3)
O3G O 0.1972(5) 0.4349(4) 0.3473(3)
Mg1B Mg 0.53065(28) 0.1660(2) 0.7500
O2B O 0.6079(5) 0.1178(4) 0.6478(2)
O3B O 0.8028(5) 0.2377(3) 0.6527(3)
O4B O 0.3969(8) -0.0036(5) 0.7500
C1B C 0.8315(6) 0.0724(4) 0.5543(3)
H1B H 0.8931 0.1250 0.5905
C2B C 0.7264(6) 0.0722(4) 0.5587(3)
C3B C 0.7116(6) 0.1515(4) 0.6260(3)
N1B N 0.8490(5) 0.0000 0.5000
C4B C 0.6368(5) 0.0000 0.5000
H2B H 0.5662 0.0000 0.5000
O2F O 0.4901(3) -0.1178(4) 0.3522(2)
C1F C 0.7591(4) -0.0724(4) 0.4457(3)
H1F H 0.7681 -0.1250 0.4095
C2F C 0.6542(4) -0.0722(4) 0.4413(3)
C3F C 0.5601(5) -0.1515(4) 0.3740(3)
O3F O 0.5651(4) -0.2377(3) 0.3473(3)
Cu1_2 Cu 0.0000 0.0000 0.5000
Cu1_3 Cu 1.0000 0.0000 0.5000
Mg1F Mg 0.36465(19) -0.1660(2) 0.2500
Mg1F_2 Mg 1.36465(19) 0.8340(2) 0.2500
Mg1G Mg 0.46935(28) -0.36465(19) 0.2500
Mg1G_2 Mg 0.46935(28) 0.63535(19) 0.2500
Mg1H Mg 0.1660(2) 0.53065(28) 0.2500
Mg1H_2 Mg 1.1660(2) 0.53065(28) 0.2500
O2C O 0.8822(4) 0.4901(3) 0.8522(2)
O2D O 0.5099(3) 0.3921(5) 0.8522(2)
O2E O 0.6079(5) 0.1178(4) 0.8522(2)
O3C O 0.7623(3) 0.5651(4) 0.8473(3)
O3D O 0.4349(4) 0.1972(5) 0.8473(3)
O3E O 0.8028(5) 0.2377(3) 0.8473(3)
N1A_2 N 1.1510(5) 1.1510(5) 0.5000
N1B_2 N 0.8490(5) 1.0000 0.5000
loop_
_geom_bond_atom_site_label_1
_geom_bond_atom_site_label_2
_geom_bond_site_symmetry_1
_geom_bond_site_symmetry_2
Cu1 N1 1_555 1_555
Mg1 O1 1_555 1_555
O1 Mg1A 1_555 1_555
O2 Mg1 1_555 1_555
O3 C3 1_555 1_555
O4 Mg1 1_555 1_555
C1 H1 1_555 1_555
C2 C1 1_555 1_555
C3 O2 1_555 1_555
N1 C1 1_555 1_555
C4 C2 1_555 1_555
H2 C4 1_555 1_555
O2H C3H 1_555 1_555
C1H N1 1_555 1_555
H1H C1H 1_555 1_555
C2H C4 1_555 1_555
C3H C2H 1_555 1_555
O3H C3H 1_555 1_555
Mg1A O3 1_555 1_555
O2A Mg1A 1_555 1_555
O3A C3A 1_555 1_555
O4A Mg1A 1_555 1_555
C1A H1A 1_555 1_555
C2A C1A 1_555 1_555
C3A O2A 1_555 1_555
N1A C1A 1_555 1_555
C4A C2A 1_555 1_555
H2A C4A 1_555 1_555
O2G C3G 1_555 1_555
C1G N1A 1_555 1_555
H1G C1G 1_555 1_555
C2G C4A 1_555 1_555
C3G C2G 1_555 1_555
O3G C3G 1_555 1_555
Mg1B O1 1_555 1_555
O2B Mg1B 1_555 1_555
O3B Mg1 1_555 1_555
O4B Mg1B 1_555 1_555
C1B H1B 1_555 1_555
C2B C1B 1_555 1_555
C3B O2B 1_555 1_555
N1B C1B 1_555 1_555
C4B C2B 1_555 1_555
H2B C4B 1_555 1_555
O2F C3F 1_555 1_555
C1F N1B 1_555 1_555
H1F C1F 1_555 1_555
C2F C4B 1_555 1_555
C3F C2F 1_555 1_555
O3F C3F 1_555 1_555
Cu1_2 N1A 1_555 1_555
Cu1_3 N1B 1_555 1_555
Mg1F O2F 1_555 1_555
Mg1F_2 O3H 1_555 1_555
Mg1G O3F 1_555 1_555
Mg1G_2 O2G 1_555 1_555
Mg1H O3G 1_555 1_555
Mg1H_2 O2H 1_555 1_555
O2C Mg1 1_555 1_555
O2D Mg1A 1_555 1_555
O2E Mg1B 1_555 1_555
O3C Mg1A 1_555 1_555
O3D Mg1B 1_555 1_555
O3E Mg1 1_555 1_555
N1A_2 Cu1 1_555 1_555
N1B_2 Cu1 1_555 1_555
C2 C3 1_555 1_555
C1H C2H 1_555 1_555
O3A Mg1B 1_555 1_555
C2A C3A 1_555 1_555
C1G C2G 1_555 1_555
O3B C3B 1_555 1_555
C2B C3B 1_555 1_555
C1F C2F 1_555 1_555

#END
