
#######################################################################
#
#                 Cambridge Crystallographic Data Centre
#                                CCDC 
#
#######################################################################
#
# If this CIF has been generated from an entry in the Cambridge 
# Structural Database, then it will include bibliographic, chemical, 
# crystal, experimental, refinement or atomic coordinate data resulting 
# from the CCDC's data processing and validation procedures.
#
#######################################################################

data_AQIXUV
_chemical_formula_moiety         '(C168 H150 N6 Ni3 O40 2-)n'
_symmetry_cell_setting           triclinic
_symmetry_space_group_name_H-M   'P -1'
_symmetry_Int_Tables_number      2
_space_group_name_Hall           '-P 1'
loop_
_symmetry_equiv_pos_site_id
_symmetry_equiv_pos_as_xyz
1 x,y,z
2 -x,-y,-z
_cell_length_a                   13.709(4)
_cell_length_b                   17.722(5)
_cell_length_c                   23.810(6)
_cell_angle_alpha                70.746(4)
_cell_angle_beta                 77.493(4)
_cell_angle_gamma                88.400(4)
_cell_volume                     5325.57
loop_
_atom_site_label
_atom_site_type_symbol
_atom_site_fract_x
_atom_site_fract_y
_atom_site_fract_z
Ni1 Ni -0.0000 1.0000 0.0000
Ni2 Ni 0.59279(4) -0.15025(3) 0.26776(2)
O1 O -0.00893(18) 0.87673(12) 0.02538(11)
O2 O 0.6145(2) -0.03967(15) 0.20333(11)
O3 O -0.02822(19) 0.98677(13) 0.09279(11)
H1 H 0.0011 0.9460 0.1119
H2 H -0.0914 0.9799 0.1079
O4 O 0.4401(2) -0.13115(15) 0.26664(11)
O5 O 0.5930(2) 0.79948(15) 0.19992(11)
N1 N 0.1561(2) 0.99316(15) 0.00161(12)
O6 O 0.7437(2) -0.16251(16) 0.26463(12)
H3 H 0.7758 -0.1506 0.2879
H4 H 0.7842 -0.1802 0.2396
O7 O 0.6451(2) 0.30346(15) 0.00830(16)
N2 N 0.5600(3) -0.26366(19) 0.33315(16)
O8 O 0.4483(2) -0.11432(17) 0.16836(12)
O9 O -0.0229(2) 0.86205(15) -0.06261(13)
O10 O -0.0033(3) 0.49919(15) 0.08977(14)
O11 O 0.7807(2) -0.02547(18) 0.17424(13)
O12 O 0.6536(3) 0.6638(2) -0.02297(16)
N3 N 0.5739(3) -0.09747(19) 0.33555(14)
O13 O 0.1479(3) 0.15049(18) 0.21140(15)
C1 C 0.2230(3) 1.0517(2) -0.03099(19)
H5 H 0.2009 1.0980 -0.0563
C2 C -0.0070(3) 0.74563(18) 0.01930(16)
O14 O 0.7362(3) 0.7433(2) 0.2014(2)
C3 C 0.1895(3) 0.9268(2) 0.0362(2)
H6 H 0.1442 0.8839 0.0590
C4 C -0.0139(2) 0.83522(19) -0.00648(17)
C5 C 0.3598(3) 0.9819(2) 0.00585(16)
C6 C -0.0020(3) 0.6973(2) -0.01637(18)
H7 H -0.0024 0.7205 -0.0575
C7 C 0.6811(3) 0.0796(2) 0.12703(16)
C8 C 0.6631(3) 0.2301(2) 0.0467(2)
C9 C 0.6950(3) -0.0009(2) 0.17093(16)
C10 C -0.0041(3) 0.7107(2) 0.08111(19)
H8 H -0.0041 0.7423 0.1055
C11 C 0.4128(3) -0.0972(2) 0.21906(16)
O15 O -0.2952(3) 0.2259(3) 0.27632(19)
C12 C 0.0005(3) 0.5810(2) 0.06882(19)
C13 C 0.6077(5) -0.2859(3) 0.3781(3)
H9 H 0.6595 -0.2529 0.3779
C14 C 0.6547(4) 0.7368(3) 0.1258(2)
C15 C 0.7652(3) 0.1309(2) 0.09458(19)
H10 H 0.8288 0.1144 0.0994
C16 C 0.4640(3) 0.9719(2) 0.01104(16)
H11 H 0.4810 0.9208 0.0320
C17 C 0.5889(3) 0.1045(2) 0.11853(19)
H12 H 0.5328 0.0707 0.1400
C18 C 0.7534(3) 0.2062(2) 0.0553(2)
H13 H 0.8092 0.2406 0.0345
C19 C 0.3221(3) 1.0496(3) -0.03036(19)
H14 H 0.3647 1.0937 -0.0543
C20 C 0.5774(3) 0.1802(2) 0.0779(2)
H15 H 0.5145 0.1969 0.0719
C21 C -0.0011(4) 0.6276(2) 0.10519(19)
H16 H -0.0002 0.6035 0.1462
C22 C 0.0436(4) 0.3223(2) 0.1583(2)
C23 C 0.6102(3) 0.5599(2) -0.05710(18)
C24 C 0.5663(3) 0.7302(2) 0.11015(19)
H17 H 0.5082 0.7433 0.1328
C25 C 0.6621(3) 0.7623(3) 0.1784(2)
C26 C 0.7297(4) 0.3581(2) -0.0255(3)
H18 H 0.7731 0.3370 -0.0541
H19 H 0.7680 0.3664 0.0020
C27 C 0.2880(3) 0.9187(2) 0.03994(19)
H20 H 0.3076 0.8713 0.0651
C28 C -0.0154(5) 0.4590(2) 0.1539(2)
H21 H -0.0713 0.4797 0.1763
H22 H 0.0446 0.4671 0.1670
C29 C -0.0348(3) 0.3705(2) 0.16532(19)
C30 C 0.2130(4) 0.0905(2) 0.20800(19)
C31 C 0.5718(3) 0.6147(3) -0.0212(2)
H23 H 0.5211 0.6478 -0.0387
H24 H 0.5419 0.5834 0.0207
C32 C 0.0035(3) 0.6158(2) 0.0077(2)
H25 H 0.0093 0.5844 -0.0173
C33 C 0.6498(4) 0.6886(3) 0.0253(2)
C34 C -0.2578(4) 0.2244(4) 0.2157(2)
H26 H -0.2969 0.2574 0.1881
H27 H -0.2605 0.1702 0.2148
C35 C 0.6883(4) 0.4360(2) -0.0590(2)
C36 C 0.3423(3) -0.0327(2) 0.21423(17)
C37 C 0.5993(4) 0.5747(2) -0.1153(2)
C38 C 0.1095(4) 0.1884(3) 0.1569(2)
H28 H 0.0854 0.1480 0.1433
H29 H 0.1622 0.2211 0.1244
C39 C 0.2404(4) 0.0530(3) 0.2627(2)
H30 H 0.2151 0.0682 0.2967
C40 C 0.6262(4) 0.5206(3) -0.1460(2)
C41 C 0.0248(4) 0.2401(2) 0.17221(19)
C42 C -0.1507(3) 0.2573(3) 0.1976(2)
C43 C 0.3077(3) -0.0091(3) 0.26558(19)
H31 H 0.3291 -0.0343 0.3014
C44 C 0.4905(5) -0.3136(3) 0.3327(2)
H32 H 0.4598 -0.2994 0.2997
C45 C 0.6581(4) 0.4901(2) -0.0281(2)
C46 C 0.4936(4) -0.1148(3) 0.3814(2)
H33 H 0.4453 -0.1508 0.3817
C47 C 0.5816(5) -0.3588(4) 0.4267(3)
H34 H 0.6128 -0.3711 0.4593
C48 C 0.5132(5) -0.4100(3) 0.4264(2)
C49 C 0.5523(5) -0.0324(3) 0.4290(2)
C50 C 0.6722(4) 0.4495(3) -0.1171(2)
C51 C 0.2465(4) 0.0684(3) 0.1579(2)
H35 H 0.2256 0.0944 0.1220
C52 C 0.5546(5) 0.6538(3) -0.1482(3)
H36 H 0.5626 0.6928 -0.1293
H37 H 0.4848 0.6445 -0.1453
H38 H 0.5888 0.6732 -0.1903
C53 C 0.4820(5) -0.4856(3) 0.4755(3)
H39 H 0.4316 -0.5163 0.4716
C54 C 0.7405(4) 0.7240(4) 0.0894(3)
H40 H 0.8018 0.7328 0.0975
C55 C -0.2208(5) 0.3941(4) 0.1848(4)
H41 H -0.2220 0.4155 0.2171
H42 H -0.2821 0.3638 0.1927
H43 H -0.2135 0.4372 0.1468
C56 C 0.3125(4) 0.0061(3) 0.1606(2)
H44 H 0.3361 -0.0090 0.1263
C57 C -0.0721(4) 0.2076(2) 0.19505(19)
C58 C 0.5591(4) 0.7042(3) 0.0604(2)
H45 H 0.4977 0.6978 0.0515
C59 C -0.1322(4) 0.3394(3) 0.1814(2)
C60 C 0.7386(4) 0.6980(4) 0.0403(3)
H46 H 0.7981 0.6871 0.0176
C61 C 0.4768(5) -0.0842(4) 0.4273(2)
H47 H 0.4176 -0.0967 0.4570
C62 C 0.6771(5) 0.4778(4) 0.0337(2)
H48 H 0.7154 0.5230 0.0325
H49 H 0.7135 0.4302 0.0459
H50 H 0.6144 0.4721 0.0625
C63 C 0.6445(4) -0.0484(3) 0.3378(2)
H51 H 0.7029 -0.0367 0.3075
C64 C 0.4610(5) -0.3865(3) 0.3790(3)
H52 H 0.4087 -0.4185 0.3786
C65 C -0.4571(5) 0.1710(4) 0.2774(3)
H53 H -0.4373 0.1692 0.2379
C66 C 0.1517(5) 0.3557(4) 0.1388(3)
H54 H 0.1549 0.4099 0.1117
H55 H 0.1927 0.3237 0.1181
H56 H 0.1756 0.3543 0.1741
C67 C -0.0903(5) 0.1173(3) 0.2159(3)
H57 H -0.0798 0.1000 0.1810
H58 H -0.1579 0.1032 0.2389
H59 H -0.0448 0.0918 0.2411
C68 C -0.4234(6) 0.2114(4) 0.3591(3)
H60 H -0.3802 0.2350 0.3744
C69 C 0.6341(5) -0.0142(4) 0.3838(3)
H61 H 0.6838 0.0210 0.3829
C70 C 0.7036(6) 0.3868(3) -0.1474(3)
H62 H 0.7752 0.3861 -0.1571
H63 H 0.6789 0.3994 -0.1840
H64 H 0.6764 0.3351 -0.1200
C71 C -0.5493(5) 0.1436(6) 0.3113(3)
H65 H -0.5904 0.1170 0.2968
C72 C 0.5419(6) 0.0045(3) 0.4774(2)
H66 H 0.5957 0.0356 0.4770
C73 C -0.3933(5) 0.2015(4) 0.3023(3)
C74 C -0.5228(6) 0.1842(5) 0.3931(4)
H67 H -0.5441 0.1872 0.4321
C75 C -0.5849(7) 0.1546(7) 0.3687(4)
O16 O -0.7323(7) 0.0653(6) 0.3935(4)
H68 H -0.7730 0.0376 0.4234
O17 O -0.7056(6) 0.1365(6) 0.4585(4)
C76 C -0.6784(8) 0.1128(7) 0.4101(5)
O18 O 0.5239(4) 0.4964(3) -0.2034(2)
C77 C 0.6186(6) 0.5341(4) -0.2081(3)
H69 H 0.6732 0.5103 -0.2288
H70 H 0.6202 0.5909 -0.2304
C78 C 0.4004(5) 0.4843(3) -0.2541(2)
H71 H 0.3676 0.4458 -0.2181
C79 C 0.3559(4) 0.5096(4) -0.3040(3)
H72 H 0.2934 0.4880 -0.3015
C80 C 0.4049(5) 0.5672(4) -0.3577(2)
C81 C 0.4983(5) 0.5994(3) -0.3614(2)
H73 H 0.5311 0.6379 -0.3974
C82 C 0.5428(5) 0.5741(4) -0.3115(3)
H74 H 0.6053 0.5957 -0.3141
C83 C 0.4938(5) 0.5165(3) -0.2578(2)
O19 O 0.2842(7) 0.5583(6) -0.4077(4)
O20 O 0.4176(8) 0.6730(6) -0.4578(4)
H75 H 0.4226 0.7086 -0.4436
C84 C 0.3585(8) 0.6081(6) -0.4128(5)
N1A N 0.8439(2) 1.00684(15) -0.00161(12)
C1A C 0.7770(3) 0.9483(2) 0.03099(19)
H5A H 0.7991 0.9020 0.0563
C3A C 0.8105(3) 1.0732(2) -0.0362(2)
H6A H 0.8558 1.1161 -0.0590
C5A C 0.6402(3) 1.0181(2) -0.00585(16)
C16A C 0.5360(3) 1.0281(2) -0.01104(16)
H11A H 0.5190 1.0792 -0.0320
C19A C 0.6779(3) 0.9504(3) 0.03036(19)
H14A H 0.6353 0.9063 0.0543
C27A C 0.7120(3) 1.0813(2) -0.03994(19)
H20A H 0.6924 1.1287 -0.0651
N2A N 0.4400(3) -0.73634(19) 0.66685(16)
C13A C 0.3923(5) -0.7141(3) 0.6219(3)
H9A H 0.3405 -0.7471 0.6221
C44A C 0.5095(5) -0.6864(3) 0.6673(2)
H32A H 0.5402 -0.7006 0.7003
C47A C 0.4184(5) -0.6412(4) 0.5733(3)
H34A H 0.3872 -0.6289 0.5407
C48A C 0.4868(5) -0.5900(3) 0.5736(2)
C53A C 0.5180(5) -0.5144(3) 0.5245(3)
H39A H 0.5684 -0.4837 0.5284
C64A C 0.5390(5) -0.6135(3) 0.6210(3)
H52A H 0.5913 -0.5815 0.6214
N3A N 0.4261(3) 0.09747(19) 0.66445(14)
C46A C 0.5064(4) 0.1148(3) 0.6186(2)
H33A H 0.5547 0.1508 0.6183
C49A C 0.4477(5) 0.0324(3) 0.5710(2)
C61A C 0.5232(5) 0.0842(4) 0.5727(2)
H47A H 0.5824 0.0967 0.5430
C63A C 0.3555(4) 0.0484(3) 0.6622(2)
H51A H 0.2971 0.0367 0.6925
C69A C 0.3659(5) 0.0142(4) 0.6162(3)
H61A H 0.3162 -0.0210 0.6171
C72A C 0.4581(6) -0.0045(3) 0.5226(2)
H66A H 0.4043 -0.0356 0.5230
Ni2A Ni -0.59279(4) 2.15025(3) -0.26776(2)
O1A O 0.00893(18) 1.12327(12) -0.02538(11)
O2A O -0.6145(2) 2.03967(15) -0.20333(11)
O3A O 0.02822(19) 1.01323(13) -0.09279(11)
H1A H -0.0011 1.0540 -0.1119
H2A H 0.0914 1.0201 -0.1079
O4A O -0.4401(2) 2.13115(15) -0.26664(11)
O5A O -0.5930(2) 1.20052(15) -0.19992(11)
O6A O -0.7437(2) 2.16251(16) -0.26463(12)
H3A H -0.7758 2.1506 -0.2879
H4A H -0.7842 2.1802 -0.2396
O7A O -0.6451(2) 1.69654(15) -0.00830(16)
O8A O -0.4483(2) 2.11432(17) -0.16836(12)
O9A O 0.0229(2) 1.13795(15) 0.06261(13)
O10A O 0.0033(3) 1.50081(15) -0.08977(14)
O11A O -0.7807(2) 2.02547(18) -0.17424(13)
O12A O -0.6536(3) 1.3362(2) 0.02297(16)
O13A O -0.1479(3) 1.84951(18) -0.21140(15)
C2A C 0.0070(3) 1.25437(18) -0.01930(16)
O14A O -0.7362(3) 1.2567(2) -0.2014(2)
C4A C 0.0139(2) 1.16478(19) 0.00648(17)
C6A C 0.0020(3) 1.3027(2) 0.01637(18)
H7A H 0.0024 1.2795 0.0575
C7A C -0.6811(3) 1.9204(2) -0.12703(16)
C8A C -0.6631(3) 1.7699(2) -0.0467(2)
C9A C -0.6950(3) 2.0009(2) -0.17093(16)
C10A C 0.0041(3) 1.2893(2) -0.08111(19)
H8A H 0.0041 1.2577 -0.1055
C11A C -0.4128(3) 2.0972(2) -0.21906(16)
O15A O 0.2952(3) 1.7741(3) -0.27632(19)
C12A C -0.0005(3) 1.4190(2) -0.06882(19)
C14A C -0.6547(4) 1.2632(3) -0.1258(2)
C15A C -0.7652(3) 1.8691(2) -0.09458(19)
H10A H -0.8288 1.8856 -0.0994
C17A C -0.5889(3) 1.8955(2) -0.11853(19)
H12A H -0.5328 1.9293 -0.1400
C18A C -0.7534(3) 1.7938(2) -0.0553(2)
H13A H -0.8092 1.7594 -0.0345
C20A C -0.5774(3) 1.8198(2) -0.0779(2)
H15A H -0.5145 1.8031 -0.0719
C21A C 0.0011(4) 1.3724(2) -0.10519(19)
H16A H 0.0002 1.3965 -0.1462
C22A C -0.0436(4) 1.6777(2) -0.1583(2)
C23A C -0.6102(3) 1.4401(2) 0.05710(18)
C24A C -0.5663(3) 1.2698(2) -0.11015(19)
H17A H -0.5082 1.2567 -0.1328
C25A C -0.6621(3) 1.2377(3) -0.1784(2)
C26A C -0.7297(4) 1.6419(2) 0.0255(3)
H18A H -0.7731 1.6630 0.0541
H19A H -0.7680 1.6336 -0.0020
C28A C 0.0154(5) 1.5410(2) -0.1539(2)
H21A H 0.0713 1.5203 -0.1763
H22A H -0.0446 1.5329 -0.1670
C29A C 0.0348(3) 1.6295(2) -0.16532(19)
C30A C -0.2130(4) 1.9095(2) -0.20800(19)
C31A C -0.5718(3) 1.3853(3) 0.0212(2)
H23A H -0.5211 1.3522 0.0387
H24A H -0.5419 1.4166 -0.0207
C32A C -0.0035(3) 1.3842(2) -0.0077(2)
H25A H -0.0093 1.4156 0.0173
C33A C -0.6498(4) 1.3114(3) -0.0253(2)
C34A C 0.2578(4) 1.7756(4) -0.2157(2)
H26A H 0.2969 1.7426 -0.1881
H27A H 0.2605 1.8298 -0.2148
C35A C -0.6883(4) 1.5640(2) 0.0590(2)
C36A C -0.3423(3) 2.0327(2) -0.21423(17)
C37A C -0.5993(4) 1.4253(2) 0.1153(2)
C38A C -0.1095(4) 1.8116(3) -0.1569(2)
H28A H -0.0854 1.8520 -0.1433
H29A H -0.1622 1.7789 -0.1244
C39A C -0.2404(4) 1.9470(3) -0.2627(2)
H30A H -0.2151 1.9318 -0.2967
C40A C -0.6262(4) 1.4794(3) 0.1460(2)
C41A C -0.0248(4) 1.7599(2) -0.17221(19)
C42A C 0.1507(3) 1.7427(3) -0.1976(2)
C43A C -0.3077(3) 2.0091(3) -0.26558(19)
H31A H -0.3291 2.0343 -0.3014
C45A C -0.6581(4) 1.5099(2) 0.0281(2)
C50A C -0.6722(4) 1.5505(3) 0.1171(2)
C51A C -0.2465(4) 1.9316(3) -0.1579(2)
H35A H -0.2256 1.9056 -0.1220
C52A C -0.5546(5) 1.3462(3) 0.1482(3)
H36A H -0.5626 1.3072 0.1293
H37A H -0.4848 1.3555 0.1453
H38A H -0.5888 1.3268 0.1903
C54A C -0.7405(4) 1.2760(4) -0.0894(3)
H40A H -0.8018 1.2672 -0.0975
C55A C 0.2208(5) 1.6059(4) -0.1848(4)
H41A H 0.2220 1.5845 -0.2171
H42A H 0.2821 1.6362 -0.1927
H43A H 0.2135 1.5628 -0.1468
C56A C -0.3125(4) 1.9939(3) -0.1606(2)
H44A H -0.3361 2.0090 -0.1263
C57A C 0.0721(4) 1.7924(2) -0.19505(19)
C58A C -0.5591(4) 1.2958(3) -0.0604(2)
H45A H -0.4977 1.3022 -0.0515
C59A C 0.1322(4) 1.6606(3) -0.1814(2)
C60A C -0.7386(4) 1.3020(4) -0.0403(3)
H46A H -0.7981 1.3129 -0.0176
C62A C -0.6771(5) 1.5222(4) -0.0337(2)
H48A H -0.7154 1.4770 -0.0325
H49A H -0.7135 1.5698 -0.0459
H50A H -0.6144 1.5279 -0.0625
C65A C 0.4571(5) 1.8290(4) -0.2774(3)
H53A H 0.4373 1.8308 -0.2379
C66A C -0.1517(5) 1.6443(4) -0.1388(3)
H54A H -0.1549 1.5901 -0.1117
H55A H -0.1927 1.6763 -0.1181
H56A H -0.1756 1.6457 -0.1741
C67A C 0.0903(5) 1.8827(3) -0.2159(3)
H57A H 0.0798 1.9000 -0.1810
H58A H 0.1579 1.8968 -0.2389
H59A H 0.0448 1.9082 -0.2411
C68A C 0.4234(6) 1.7886(4) -0.3591(3)
H60A H 0.3802 1.7650 -0.3744
C70A C -0.7036(6) 1.6132(3) 0.1474(3)
H62A H -0.7752 1.6139 0.1571
H63A H -0.6789 1.6006 0.1840
H64A H -0.6764 1.6649 0.1200
C71A C 0.5493(5) 1.8564(6) -0.3113(3)
H65A H 0.5904 1.8830 -0.2968
C73A C 0.3933(5) 1.7985(4) -0.3023(3)
C74A C 0.5228(6) 1.8158(5) -0.3931(4)
H67A H 0.5441 1.8128 -0.4321
C75A C 0.5849(7) 1.8454(7) -0.3687(4)
O16A O 0.7323(7) 1.9347(6) -0.3935(4)
H68A H 0.7730 1.9624 -0.4234
O17A O 0.7056(6) 1.8635(6) -0.4585(4)
C76A C 0.6784(8) 1.8872(7) -0.4101(5)
O18A O -0.5239(4) 1.5036(3) 0.2034(2)
C77A C -0.6186(6) 1.4659(4) 0.2081(3)
H69A H -0.6732 1.4897 0.2288
H70A H -0.6202 1.4091 0.2304
C78A C -0.4004(5) 1.5157(3) 0.2541(2)
H71A H -0.3676 1.5542 0.2181
C79A C -0.3559(4) 1.4904(4) 0.3040(3)
H72A H -0.2934 1.5120 0.3015
C80A C -0.4049(5) 1.4328(4) 0.3577(2)
C81A C -0.4983(5) 1.4006(3) 0.3614(2)
H73A H -0.5311 1.3621 0.3974
C82A C -0.5428(5) 1.4259(4) 0.3115(3)
H74A H -0.6053 1.4043 0.3141
C83A C -0.4938(5) 1.4835(3) 0.2578(2)
O19A O -0.2842(7) 1.4417(6) 0.4077(4)
O20A O -0.4176(8) 1.3270(6) 0.4578(4)
H75A H -0.4226 1.2914 0.4436
C84A C -0.3585(8) 1.3919(6) 0.4128(5)
Ni1_2 Ni 1.0000 1.0000 0.0000
Ni2_2 Ni 0.59279(4) 0.84975(3) 0.26776(2)
Ni2A_2 Ni -0.59279(4) 1.15025(3) -0.26776(2)
Ni2A_3 Ni 0.40721(4) -0.84975(3) 0.73224(2)
Ni2A_4 Ni 0.40721(4) 0.15025(3) 0.73224(2)
O5_2 O 0.5930(2) -0.20052(15) 0.19992(11)
O5A_2 O -0.5930(2) 2.20052(15) -0.19992(11)
N1A_2 N -0.1561(2) 1.00684(15) -0.00161(12)
N2A_2 N -0.5600(3) 2.26366(19) -0.33315(16)
N3A_2 N -0.5739(3) 2.09747(19) -0.33555(14)
loop_
_geom_bond_atom_site_label_1
_geom_bond_atom_site_label_2
_geom_bond_site_symmetry_1
_geom_bond_site_symmetry_2
Ni1 O1 1_555 1_555
Ni2 O2 1_555 1_555
O1 C4 1_555 1_555
O2 C9 1_555 1_555
O3 Ni1 1_555 1_555
H1 O3 1_555 1_555
H2 O3 1_555 1_555
O4 Ni2 1_555 1_555
O5 C25 1_555 1_555
N1 Ni1 1_555 1_555
O6 Ni2 1_555 1_555
H3 O6 1_555 1_555
H4 O6 1_555 1_555
O7 C8 1_555 1_555
N2 Ni2 1_555 1_555
O8 C11 1_555 1_555
O9 C4 1_555 1_555
O10 C12 1_555 1_555
O11 C9 1_555 1_555
O12 C31 1_555 1_555
N3 Ni2 1_555 1_555
O13 C30 1_555 1_555
C1 N1 1_555 1_555
H5 C1 1_555 1_555
C2 C4 1_555 1_555
O14 C25 1_555 1_555
C3 N1 1_555 1_555
H6 C3 1_555 1_555
C5 C16 1_555 1_555
C6 C2 1_555 1_555
H7 C6 1_555 1_555
C7 C9 1_555 1_555
C8 C18 1_555 1_555
C10 C2 1_555 1_555
H8 C10 1_555 1_555
C11 O4 1_555 1_555
O15 C34 1_555 1_555
C12 C21 1_555 1_555
C13 N2 1_555 1_555
H9 C13 1_555 1_555
C14 C24 1_555 1_555
C15 C7 1_555 1_555
H10 C15 1_555 1_555
C16 H11 1_555 1_555
C17 C7 1_555 1_555
H12 C17 1_555 1_555
C18 C15 1_555 1_555
H13 C18 1_555 1_555
C19 C1 1_555 1_555
H14 C19 1_555 1_555
C20 C8 1_555 1_555
H15 C20 1_555 1_555
C21 C10 1_555 1_555
H16 C21 1_555 1_555
C22 C29 1_555 1_555
C23 C31 1_555 1_555
C24 H17 1_555 1_555
C25 C14 1_555 1_555
C26 O7 1_555 1_555
H18 C26 1_555 1_555
H19 C26 1_555 1_555
C27 C3 1_555 1_555
H20 C27 1_555 1_555
C28 O10 1_555 1_555
H21 C28 1_555 1_555
H22 C28 1_555 1_555
C29 C28 1_555 1_555
C30 C39 1_555 1_555
C31 H23 1_555 1_555
H24 C31 1_555 1_555
C32 C6 1_555 1_555
H25 C32 1_555 1_555
C33 O12 1_555 1_555
C34 H26 1_555 1_555
H27 C34 1_555 1_555
C35 C26 1_555 1_555
C36 C11 1_555 1_555
C37 C23 1_555 1_555
C38 O13 1_555 1_555
H28 C38 1_555 1_555
H29 C38 1_555 1_555
C39 H30 1_555 1_555
C40 C37 1_555 1_555
C41 C22 1_555 1_555
C42 C34 1_555 1_555
C43 C36 1_555 1_555
H31 C43 1_555 1_555
C44 N2 1_555 1_555
H32 C44 1_555 1_555
C45 C23 1_555 1_555
C46 N3 1_555 1_555
H33 C46 1_555 1_555
C47 C13 1_555 1_555
H34 C47 1_555 1_555
C48 C47 1_555 1_555
C49 C61 1_555 1_555
C50 C35 1_555 1_555
C51 C30 1_555 1_555
H35 C51 1_555 1_555
C52 C37 1_555 1_555
H36 C52 1_555 1_555
H37 C52 1_555 1_555
H38 C52 1_555 1_555
C53 C48 1_555 1_555
H39 C53 1_555 1_555
C54 C14 1_555 1_555
H40 C54 1_555 1_555
C55 H41 1_555 1_555
H42 C55 1_555 1_555
H43 C55 1_555 1_555
C56 C36 1_555 1_555
H44 C56 1_555 1_555
C57 C41 1_555 1_555
C58 C24 1_555 1_555
H45 C58 1_555 1_555
C59 C29 1_555 1_555
C60 C33 1_555 1_555
H46 C60 1_555 1_555
C61 C46 1_555 1_555
H47 C61 1_555 1_555
C62 C45 1_555 1_555
H48 C62 1_555 1_555
H49 C62 1_555 1_555
H50 C62 1_555 1_555
C63 N3 1_555 1_555
H51 C63 1_555 1_555
C64 C44 1_555 1_555
H52 C64 1_555 1_555
C65 H53 1_555 1_555
C66 C22 1_555 1_555
H54 C66 1_555 1_555
H55 C66 1_555 1_555
H56 C66 1_555 1_555
C67 C57 1_555 1_555
H57 C67 1_555 1_555
H58 C67 1_555 1_555
H59 C67 1_555 1_555
C68 H60 1_555 1_555
C69 C49 1_555 1_555
H61 C69 1_555 1_555
C70 C50 1_555 1_555
H62 C70 1_555 1_555
H63 C70 1_555 1_555
H64 C70 1_555 1_555
C71 C65 1_555 1_555
H65 C71 1_555 1_555
C72 C49 1_555 1_555
H66 C72 1_555 1_555
C73 O15 1_555 1_555
C74 C68 1_555 1_555
H67 C74 1_555 1_555
C75 C71 1_555 1_555
O16 H68 1_555 1_555
O17 C76 1_555 1_555
C76 C75 1_555 1_555
O18 C77 1_555 1_555
C77 C40 1_555 1_555
H69 C77 1_555 1_555
H70 C77 1_555 1_555
C78 H71 1_555 1_555
C79 C78 1_555 1_555
H72 C79 1_555 1_555
C80 C79 1_555 1_555
C81 C80 1_555 1_555
H73 C81 1_555 1_555
C82 C81 1_555 1_555
H74 C82 1_555 1_555
C83 O18 1_555 1_555
O19 C84 1_555 1_555
O20 H75 1_555 1_555
C84 C80 1_555 1_555
N1A C1A 1_555 1_555
C1A H5A 1_555 1_555
C3A N1A 1_555 1_555
H6A C3A 1_555 1_555
C5A C16A 1_555 1_555
C16A C16 1_555 1_555
H11A C16A 1_555 1_555
C19A C1A 1_555 1_555
H14A C19A 1_555 1_555
C27A C3A 1_555 1_555
H20A C27A 1_555 1_555
N2A C13A 1_555 1_555
C13A H9A 1_555 1_555
C44A N2A 1_555 1_555
H32A C44A 1_555 1_555
C47A C13A 1_555 1_555
H34A C47A 1_555 1_555
C48A C47A 1_555 1_555
C53A C53 1_555 1_555
H39A C53A 1_555 1_555
C64A C44A 1_555 1_555
H52A C64A 1_555 1_555
N3A C46A 1_555 1_555
C46A H33A 1_555 1_555
C49A C61A 1_555 1_555
C61A C46A 1_555 1_555
H47A C61A 1_555 1_555
C63A N3A 1_555 1_555
H51A C63A 1_555 1_555
C69A C49A 1_555 1_555
H61A C69A 1_555 1_555
C72A C72 1_555 1_555
H66A C72A 1_555 1_555
Ni2A O2A 1_555 1_555
O1A Ni1 1_555 1_555
O2A C9A 1_555 1_555
O3A Ni1 1_555 1_555
H1A O3A 1_555 1_555
H2A O3A 1_555 1_555
O4A Ni2A 1_555 1_555
O5A C25A 1_555 1_555
O6A Ni2A 1_555 1_555
H3A O6A 1_555 1_555
H4A O6A 1_555 1_555
O7A C8A 1_555 1_555
O8A C11A 1_555 1_555
O9A C4A 1_555 1_555
O10A C12A 1_555 1_555
O11A C9A 1_555 1_555
O12A C31A 1_555 1_555
O13A C30A 1_555 1_555
C2A C4A 1_555 1_555
O14A C25A 1_555 1_555
C4A O1A 1_555 1_555
C6A C2A 1_555 1_555
H7A C6A 1_555 1_555
C7A C9A 1_555 1_555
C8A C18A 1_555 1_555
C10A C2A 1_555 1_555
H8A C10A 1_555 1_555
C11A O4A 1_555 1_555
O15A C34A 1_555 1_555
C12A C21A 1_555 1_555
C14A C24A 1_555 1_555
C15A C7A 1_555 1_555
H10A C15A 1_555 1_555
C17A C7A 1_555 1_555
H12A C17A 1_555 1_555
C18A C15A 1_555 1_555
H13A C18A 1_555 1_555
C20A C8A 1_555 1_555
H15A C20A 1_555 1_555
C21A C10A 1_555 1_555
H16A C21A 1_555 1_555
C22A C29A 1_555 1_555
C23A C31A 1_555 1_555
C24A H17A 1_555 1_555
C25A C14A 1_555 1_555
C26A O7A 1_555 1_555
H18A C26A 1_555 1_555
H19A C26A 1_555 1_555
C28A O10A 1_555 1_555
H21A C28A 1_555 1_555
H22A C28A 1_555 1_555
C29A C28A 1_555 1_555
C30A C39A 1_555 1_555
C31A H23A 1_555 1_555
H24A C31A 1_555 1_555
C32A C6A 1_555 1_555
H25A C32A 1_555 1_555
C33A O12A 1_555 1_555
C34A H26A 1_555 1_555
H27A C34A 1_555 1_555
C35A C26A 1_555 1_555
C36A C11A 1_555 1_555
C37A C23A 1_555 1_555
C38A O13A 1_555 1_555
H28A C38A 1_555 1_555
H29A C38A 1_555 1_555
C39A H30A 1_555 1_555
C40A C37A 1_555 1_555
C41A C22A 1_555 1_555
C42A C34A 1_555 1_555
C43A C36A 1_555 1_555
H31A C43A 1_555 1_555
C45A C23A 1_555 1_555
C50A C35A 1_555 1_555
C51A C30A 1_555 1_555
H35A C51A 1_555 1_555
C52A C37A 1_555 1_555
H36A C52A 1_555 1_555
H37A C52A 1_555 1_555
H38A C52A 1_555 1_555
C54A C14A 1_555 1_555
H40A C54A 1_555 1_555
C55A H41A 1_555 1_555
H42A C55A 1_555 1_555
H43A C55A 1_555 1_555
C56A C36A 1_555 1_555
H44A C56A 1_555 1_555
C57A C41A 1_555 1_555
C58A C24A 1_555 1_555
H45A C58A 1_555 1_555
C59A C29A 1_555 1_555
C60A C33A 1_555 1_555
H46A C60A 1_555 1_555
C62A C45A 1_555 1_555
H48A C62A 1_555 1_555
H49A C62A 1_555 1_555
H50A C62A 1_555 1_555
C65A H53A 1_555 1_555
C66A C22A 1_555 1_555
H54A C66A 1_555 1_555
H55A C66A 1_555 1_555
H56A C66A 1_555 1_555
C67A C57A 1_555 1_555
H57A C67A 1_555 1_555
H58A C67A 1_555 1_555
H59A C67A 1_555 1_555
C68A H60A 1_555 1_555
C70A C50A 1_555 1_555
H62A C70A 1_555 1_555
H63A C70A 1_555 1_555
H64A C70A 1_555 1_555
C71A C65A 1_555 1_555
H65A C71A 1_555 1_555
C73A O15A 1_555 1_555
C74A C68A 1_555 1_555
H67A C74A 1_555 1_555
C75A C71A 1_555 1_555
O16A H68A 1_555 1_555
O17A C76A 1_555 1_555
C76A C75A 1_555 1_555
O18A C77A 1_555 1_555
C77A C40A 1_555 1_555
H69A C77A 1_555 1_555
H70A C77A 1_555 1_555
C78A H71A 1_555 1_555
C79A C78A 1_555 1_555
H72A C79A 1_555 1_555
C80A C79A 1_555 1_555
C81A C80A 1_555 1_555
H73A C81A 1_555 1_555
C82A C81A 1_555 1_555
H74A C82A 1_555 1_555
C83A O18A 1_555 1_555
O19A C84A 1_555 1_555
O20A H75A 1_555 1_555
C84A C80A 1_555 1_555
Ni1_2 N1A 1_555 1_555
Ni2_2 O5 1_555 1_555
Ni2A_2 O5A 1_555 1_555
Ni2A_3 N2A 1_555 1_555
Ni2A_4 N3A 1_555 1_555
O5_2 Ni2 1_555 1_555
O5A_2 Ni2A 1_555 1_555
N1A_2 Ni1 1_555 1_555
N2A_2 Ni2A 1_555 1_555
N3A_2 Ni2A 1_555 1_555
C5 C19 1_555 1_555
C5 C27 1_555 1_555
C12 C32 1_555 1_555
C17 C20 1_555 1_555
C33 C58 1_555 1_555
C35 C45 1_555 1_555
C38 C41 1_555 1_555
C39 C43 1_555 1_555
C40 C50 1_555 1_555
C42 C57 1_555 1_555
C42 C59 1_555 1_555
C48 C64 1_555 1_555
C51 C56 1_555 1_555
C54 C60 1_555 1_555
C55 C59 1_555 1_555
C63 C69 1_555 1_555
C65 C73 1_555 1_555
C68 C73 1_555 1_555
C74 C75 1_555 1_555
O16 C76 1_555 1_555
C78 C83 1_555 1_555
C82 C83 1_555 1_555
O20 C84 1_555 1_555
C5A C19A 1_555 1_555
C5A C27A 1_555 1_555
C48A C53A 1_555 1_555
C48A C64A 1_555 1_555
C49A C72A 1_555 1_555
C63A C69A 1_555 1_555
C12A C32A 1_555 1_555
C17A C20A 1_555 1_555
C33A C58A 1_555 1_555
C35A C45A 1_555 1_555
C38A C41A 1_555 1_555
C39A C43A 1_555 1_555
C40A C50A 1_555 1_555
C42A C57A 1_555 1_555
C42A C59A 1_555 1_555
C51A C56A 1_555 1_555
C54A C60A 1_555 1_555
C55A C59A 1_555 1_555
C65A C73A 1_555 1_555
C68A C73A 1_555 1_555
C74A C75A 1_555 1_555
O16A C76A 1_555 1_555
C78A C83A 1_555 1_555
C82A C83A 1_555 1_555
O20A C84A 1_555 1_555

#END
