
#######################################################################
#
#                 Cambridge Crystallographic Data Centre
#                                CCDC 
#
#######################################################################
#
# If this CIF has been generated from an entry in the Cambridge 
# Structural Database, then it will include bibliographic, chemical, 
# crystal, experimental, refinement or atomic coordinate data resulting 
# from the CCDC's data processing and validation procedures.
#
#######################################################################

data_NUNTOH
_chemical_formula_moiety         'H2 Co6 F5 O23 P6'
_symmetry_cell_setting           tetragonal
_symmetry_space_group_name_H-M   'P -4 n 2'
_symmetry_Int_Tables_number      118
_space_group_name_Hall           'P -4 -2n'
loop_
_symmetry_equiv_pos_site_id
_symmetry_equiv_pos_as_xyz
1 x,y,z
2 -x,-y,z
3 y,-x,-z
4 -y,x,-z
5 1/2+x,1/2-y,1/2+z
6 1/2-x,1/2+y,1/2+z
7 1/2+y,1/2+x,1/2-z
8 1/2-y,1/2-x,1/2-z
_cell_length_a                   12.9145(2)
_cell_length_b                   12.9145(2)
_cell_length_c                   9.8482(2)
_cell_angle_alpha                90
_cell_angle_beta                 90
_cell_angle_gamma                90
_cell_volume                     1642.53
loop_
_atom_site_label
_atom_site_type_symbol
_atom_site_fract_x
_atom_site_fract_y
_atom_site_fract_z
O6 O 0.0000 0.0000 0.5000
O1 O 0.2549(6) 0.1095(9) 0.2505(8)
P1 P 0.3652(2) 0.1348(2) 0.2500
O2 O 0.3883(12) 0.1111(12) 0.0699(14)
F1 F 0.1046(5) -0.2637(5) 0.2802(6)
P2 P 0.07235(15) -0.17586(15) 0.1837(2)
O3 O 0.1381(5) -0.0817(5) 0.2141(8)
O4 O 0.0857(5) -0.2106(5) 0.0369(6)
O5 O -0.0428(5) -0.1543(4) 0.2146(6)
F2 F 0.0000 0.0000 0.0000
Co1 Co 0.13619(7) 0.05480(7) 0.13118(11)
O1G O 0.3905(9) 0.2451(6) 0.2495(8)
O2G O 0.3889(12) 0.1117(12) 0.4301(14)
O1A O -0.2549(6) -0.1095(9) 0.2505(8)
P1A P -0.3652(2) -0.1348(2) 0.2500
O2A O -0.3883(12) -0.1111(12) 0.0699(14)
F1A F -0.1046(5) 0.2637(5) 0.2802(6)
P2A P -0.07235(15) 0.17586(15) 0.1837(2)
O3A O -0.1381(5) 0.0817(5) 0.2141(8)
O4A O -0.0857(5) 0.2106(5) 0.0369(6)
O5A O 0.0428(5) 0.1543(4) 0.2146(6)
Co1A Co -0.13619(7) -0.05480(7) 0.13118(11)
O1F O -0.3905(9) -0.2451(6) 0.2495(8)
O2F O -0.3889(12) -0.1117(12) 0.4301(14)
F1B F -0.2637(5) -0.1046(5) -0.2802(6)
P2B P -0.17586(15) -0.07235(15) -0.1837(2)
O3B O -0.0817(5) -0.1381(5) -0.2141(8)
O4B O -0.2106(5) -0.0857(5) -0.0369(6)
O5B O -0.1543(4) 0.0428(5) -0.2146(6)
Co1B Co 0.05480(7) -0.13619(7) -0.13118(11)
F1C F 0.2637(5) 0.1046(5) -0.2802(6)
P2C P 0.17586(15) 0.07235(15) -0.1837(2)
O3C O 0.0817(5) 0.1381(5) -0.2141(8)
O4C O 0.2106(5) 0.0857(5) -0.0369(6)
O5C O 0.1543(4) -0.0428(5) -0.2146(6)
Co1C Co -0.05480(7) 0.13619(7) -0.13118(11)
O1B O 0.1095(9) -0.2549(6) -0.2505(8)
O1C O -0.1095(9) 0.2549(6) -0.2505(8)
Co1F Co -0.44520(7) -0.36381(7) 0.36882(11)
Co1G Co 0.44520(7) 0.36381(7) 0.36882(11)
loop_
_geom_bond_atom_site_label_1
_geom_bond_atom_site_label_2
_geom_bond_site_symmetry_1
_geom_bond_site_symmetry_2
O1 P1 1_555 1_555
P1 O2 1_555 1_555
F1 P2 1_555 1_555
P2 O3 1_555 1_555
O3 Co1 1_555 1_555
O4 P2 1_555 1_555
O5 P2 1_555 1_555
F2 Co1 1_555 1_555
Co1 O1 1_555 1_555
O1G P1 1_555 1_555
O2G P1 1_555 1_555
O1A P1A 1_555 1_555
P1A O2A 1_555 1_555
F1A P2A 1_555 1_555
P2A O3A 1_555 1_555
O3A Co1A 1_555 1_555
O4A P2A 1_555 1_555
O5A Co1 1_555 1_555
Co1A O5 1_555 1_555
O1F P1A 1_555 1_555
O2F P1A 1_555 1_555
F1B P2B 1_555 1_555
P2B O3B 1_555 1_555
O3B Co1B 1_555 1_555
O4B Co1A 1_555 1_555
O5B P2B 1_555 1_555
Co1B O4 1_555 1_555
F1C P2C 1_555 1_555
P2C O3C 1_555 1_555
O3C Co1C 1_555 1_555
O4C Co1 1_555 1_555
O5C Co1B 1_555 1_555
Co1C F2 1_555 1_555
O1B Co1B 1_555 1_555
O1C Co1C 1_555 1_555
Co1F O1F 1_555 1_555
Co1G O1G 1_555 1_555
F2 Co1A 1_555 1_555
F2 Co1B 1_555 1_555
O1A Co1A 1_555 1_555
P2A O5A 1_555 1_555
O4A Co1C 1_555 1_555
P2B O4B 1_555 1_555
O5B Co1C 1_555 1_555
P2C O4C 1_555 1_555
P2C O5C 1_555 1_555

#END
