
#######################################################################
#
#                 Cambridge Crystallographic Data Centre
#                                CCDC 
#
#######################################################################
#
# If this CIF has been generated from an entry in the Cambridge 
# Structural Database, then it will include bibliographic, chemical, 
# crystal, experimental, refinement or atomic coordinate data resulting 
# from the CCDC's data processing and validation procedures.
#
#######################################################################

data_NUNWIE
_chemical_formula_moiety         '(C2 H12 Co4 F3 N2 O15 P4 1-)n'
_symmetry_cell_setting           orthorhombic
_symmetry_space_group_name_H-M   'C m c m'
_symmetry_Int_Tables_number      63
_space_group_name_Hall           '-C 2c 2'
loop_
_symmetry_equiv_pos_site_id
_symmetry_equiv_pos_as_xyz
1 x,y,z
2 -x,-y,1/2+z
3 -x,y,1/2-z
4 x,-y,-z
5 1/2+x,1/2+y,z
6 1/2-x,1/2-y,1/2+z
7 1/2-x,1/2+y,1/2-z
8 1/2+x,1/2-y,-z
9 -x,-y,-z
10 x,y,1/2-z
11 x,-y,1/2+z
12 -x,y,z
13 1/2-x,1/2-y,-z
14 1/2+x,1/2+y,1/2-z
15 1/2+x,1/2-y,1/2+z
16 1/2-x,1/2+y,z
_cell_length_a                   14.8737(6)
_cell_length_b                   9.6815(4)
_cell_length_c                   13.6354(7)
_cell_angle_alpha                90
_cell_angle_beta                 90
_cell_angle_gamma                90
_cell_volume                     1963.49
loop_
_atom_site_label
_atom_site_type_symbol
_atom_site_fract_x
_atom_site_fract_y
_atom_site_fract_z
N1 N 0.1710(3) 0.0751(5) 0.6081(4)
H1 H 0.1741 0.1582 0.6357
H2 H 0.1845 0.0108 0.6523
C1 C 0.2351(4) 0.0674(6) 0.5260(5)
H3 H 0.2209 0.1397 0.4792
H4 H 0.2951 0.0850 0.5508
N1C N 0.1710(3) -0.0751(5) 0.3919(4)
H1C H 0.1741 -0.1582 0.3643
H2C H 0.1845 -0.0108 0.3477
C1C C 0.2351(4) -0.0674(6) 0.4740(5)
H3C H 0.2209 -0.1397 0.5208
H4C H 0.2951 -0.0850 0.4492
Co1 Co 0.12968(6) 0.70928(8) 0.7500
Co2 Co -0.0000 0.44880(9) 0.61241(7)
P1 P 0.0000 0.22600(17) 0.42674(13)
P2 P 0.16173(10) 0.38156(16) 0.7500
O2 O 0.1940(3) 0.5329(4) 0.7500
O3 O 0.1070(2) 0.3533(3) 0.6570(3)
O4 O 0.0000 0.3757(5) 0.4649(4)
O5 O 0.0855(2) 0.1960(3) 0.3686(3)
F1 F 0.0000 0.5822(5) 0.7500
F2 F 0.0000 0.1296(5) 0.5177(4)
O6 O 0.2430(3) 0.2874(4) 0.7500
O5K O -0.0855(2) 0.1960(3) 0.3686(3)
O3I O 0.1070(2) 0.3533(3) 0.8430(3)
Co1B Co -0.12968(6) 0.70928(8) 0.7500
Co2B Co 0.0000 0.44880(9) 0.88759(7)
P1B P 0.0000 0.22600(17) 1.07326(13)
P2B P -0.16173(10) 0.38156(16) 0.7500
O2B O -0.1940(3) 0.5329(4) 0.7500
O3B O -0.1070(2) 0.3533(3) 0.8430(3)
O4B O 0.0000 0.3757(5) 1.0351(4)
O5B O -0.0855(2) 0.1960(3) 1.1314(3)
F2B F -0.0000 0.1296(5) 0.9823(4)
O6B O -0.2430(3) 0.2874(4) 0.7500
O5I O 0.0855(2) 0.1960(3) 1.1314(3)
O3K O -0.1070(2) 0.3533(3) 0.6570(3)
Co1A Co -0.12968(6) 0.29072(8) 0.2500
Co1A_2 Co -0.12968(6) 0.29072(8) 1.2500
Co1C Co 0.12968(6) 0.29072(8) 0.2500
Co1C_2 Co 0.12968(6) 0.29072(8) 1.2500
Co1D Co -0.37032(6) 0.20928(8) 0.7500
Co1F Co 0.37032(6) 0.20928(8) 0.7500
Co2A Co 0.0000 0.55120(9) 1.11241(7)
Co2C Co 0.0000 0.55120(9) 0.38759(7)
O4A O -0.0000 0.6243(5) 0.9649(4)
O4C O -0.0000 0.6243(5) 0.5351(4)
O5A O -0.0855(2) 0.8040(3) 0.8686(3)
O5C O 0.0855(2) 0.8040(3) 0.6314(3)
O5H O -0.0855(2) 0.8040(3) 0.6314(3)
O5J O 0.0855(2) 0.8040(3) 0.8686(3)
O6D O -0.2570(3) 0.7874(4) 0.7500
O6F O 0.2570(3) 0.7874(4) 0.7500
O1 O 0.0000 0.0829(10) 0.7500
loop_
_geom_bond_atom_site_label_1
_geom_bond_atom_site_label_2
_geom_bond_site_symmetry_1
_geom_bond_site_symmetry_2
N1 H1 1_555 1_555
H2 N1 1_555 1_555
C1 N1 1_555 1_555
H3 C1 1_555 1_555
H4 C1 1_555 1_555
Co1 O2 1_555 1_555
Co2 O3 1_555 1_555
P1 O4 1_555 1_555
P2 O2 1_555 1_555
O3 P2 1_555 1_555
O4 Co2 1_555 1_555
O5 P1 1_555 1_555
F1 Co1 1_555 1_555
F2 P1 1_555 1_555
O6 P2 1_555 1_555
N1C H1C 1_555 1_555
H2C N1C 1_555 1_555
C1C C1 1_555 1_555
H3C C1C 1_555 1_555
H4C C1C 1_555 1_555
O5K P1 1_555 1_555
O3I P2 1_555 1_555
Co1B F1 1_555 1_555
Co2B F1 1_555 1_555
P1B O4B 1_555 1_555
P2B O2B 1_555 1_555
O2B Co1B 1_555 1_555
O3B Co2B 1_555 1_555
O4B Co2B 1_555 1_555
O5B P1B 1_555 1_555
F2B P1B 1_555 1_555
O6B P2B 1_555 1_555
O5I P1B 1_555 1_555
O3K Co2 1_555 1_555
Co1A O5K 1_555 1_555
Co1A_2 O5B 1_555 1_555
Co1C O5 1_555 1_555
Co1C_2 O5I 1_555 1_555
Co1D O6B 1_555 1_555
Co1F O6 1_555 1_555
Co2A O4B 1_555 1_555
Co2C O4 1_555 1_555
O4A Co2B 1_555 1_555
O4C Co2 1_555 1_555
O5A Co1B 1_555 1_555
O5C Co1 1_555 1_555
O5H Co1B 1_555 1_555
O5J Co1 1_555 1_555
O6D Co1B 1_555 1_555
O6F Co1 1_555 1_555
Co2 F1 1_555 1_555
N1C C1C 1_555 1_555
O3I Co2B 1_555 1_555
P2B O3B 1_555 1_555
P2B O3K 1_555 1_555
Co2A O4A 1_555 1_555
Co2C O4C 1_555 1_555

#END
