
#######################################################################
#
#                 Cambridge Crystallographic Data Centre
#                                CCDC 
#
#######################################################################
#
# If this CIF has been generated from an entry in the Cambridge 
# Structural Database, then it will include bibliographic, chemical, 
# crystal, experimental, refinement or atomic coordinate data resulting 
# from the CCDC's data processing and validation procedures.
#
#######################################################################

data_INOVEN
_chemical_formula_moiety         '(C18 H20 Gd1 N3 O10)n'
_symmetry_cell_setting           monoclinic
_symmetry_space_group_name_H-M   'C 2/c'
_symmetry_Int_Tables_number      15
_space_group_name_Hall           '-C 2yc'
loop_
_symmetry_equiv_pos_site_id
_symmetry_equiv_pos_as_xyz
1 x,y,z
2 -x,y,1/2-z
3 1/2+x,1/2+y,z
4 1/2-x,1/2+y,1/2-z
5 -x,-y,-z
6 x,-y,1/2+z
7 1/2-x,1/2-y,-z
8 1/2+x,1/2-y,1/2+z
_cell_length_a                   28.620(2)
_cell_length_b                   14.4797(12)
_cell_length_c                   13.6159(11)
_cell_angle_alpha                90
_cell_angle_beta                 96.990(1)
_cell_angle_gamma                90
_cell_volume                     5600.61
loop_
_atom_site_label
_atom_site_type_symbol
_atom_site_fract_x
_atom_site_fract_y
_atom_site_fract_z
_atom_site_U_iso_or_equiv
_atom_site_thermal_displace_type
O9 O 0.0806(16) 0.011(3) 0.520(3) 0.5800 Uiso
O10 O 0.1199(11) 0.361(2) 0.656(2) 0.4020 Uiso
O1 O 0.3005(2) 0.7742(4) 1.3737(4) 0.0458 Uani
C1 C 0.2740(3) 0.8348(6) 1.3339(6) 0.0428 Uani
O2 O 0.23319(18) 0.8499(4) 1.3515(4) 0.0532 Uani
O3 O 0.6098(2) 0.6792(4) 1.0360(6) 0.0662 Uani
O4 O 0.6189(2) 0.8220(5) 0.9876(6) 0.0695 Uani
C2 C 0.5963(3) 0.7611(7) 1.0269(8) 0.0564 Uani
C3 C 0.5507(3) 0.7888(6) 1.0641(8) 0.0584 Uani
C4 C 0.5217(3) 0.7188(7) 1.0946(9) 0.0660 Uani
H1 H 0.5306 0.6571 1.0936 0.0790 Uiso
C5 C 0.5362(3) 0.8776(7) 1.0652(7) 0.0616 Uani
H2 H 0.5555 0.9235 1.0443 0.0730 Uiso
Gd1 Gd 0.316900(11) 0.70895(2) 1.53438(3) 0.0326 Uani
O5 O 0.20869(19) 1.0774(4) 1.0700(5) 0.0526 Uani
C6 C 0.2524(3) 1.0903(6) 1.0831(6) 0.0466 Uani
O6 O 0.27070(18) 1.1608(4) 1.0497(4) 0.0433 Uani
O7 O 0.3503(4) 0.7654(7) 1.6954(7) 0.1221 Uani
H3 H 0.3727 0.8024 1.6887 0.1830 Uiso
H4 H 0.3289 0.7936 1.7218 0.1830 Uiso
C7 C 0.2832(3) 1.0185(6) 1.1381(6) 0.0468 Uani
C8 C 0.3288(3) 1.0060(6) 1.1190(7) 0.0511 Uani
H5 H 0.3414 1.0441 1.0740 0.0620 Uiso
N1 N 0.4025(2) 0.9271(6) 1.1372(6) 0.0629 Uani
N2 N 0.4191(3) 0.8495(6) 1.1558(6) 0.0693 Uani
C9 C 0.2647(3) 0.9607(6) 1.2059(6) 0.0457 Uani
H6 H 0.2334 0.9669 1.2170 0.0550 Uiso
C10 C 0.2928(3) 0.8943(5) 1.2566(6) 0.0439 Uani
C11 C 0.3556(3) 0.9374(6) 1.1664(7) 0.0488 Uani
C12 C 0.4657(3) 0.8352(6) 1.1260(7) 0.0559 Uani
C13 C 0.4940(3) 0.9023(7) 1.0961(7) 0.0611 Uani
H7 H 0.4849 0.9640 1.0966 0.0730 Uiso
C14 C 0.3382(3) 0.8831(6) 1.2362(6) 0.0484 Uani
H8 H 0.3573 0.8385 1.2698 0.0580 Uiso
O8 O 0.3578(3) 0.5825(6) 1.6180(8) 0.1071 Uani
C15 C 0.4793(3) 0.7449(7) 1.1263(8) 0.0651 Uani
H9 H 0.4598 0.6998 1.1482 0.0780 Uiso
C16 C 0.3490(5) 0.5216(10) 1.6314(10) 0.0910 Uiso
H10 H 0.3215 0.5000 1.5954 0.1090 Uiso
C17 C 0.3792(10) 0.4937(19) 1.805(2) 0.2520 Uiso
H11 H 0.3793 0.5580 1.7882 0.3780 Uiso
H12 H 0.4066 0.4798 1.8508 0.3780 Uiso
H13 H 0.3514 0.4798 1.8354 0.3780 Uiso
C18 C 0.3418(8) 0.3613(16) 1.7122(17) 0.1920 Uiso
H14 H 0.3325 0.3468 1.6438 0.2880 Uiso
H15 H 0.3148 0.3813 1.7420 0.2880 Uiso
H16 H 0.3550 0.3074 1.7459 0.2880 Uiso
N3 N 0.3797(12) 0.441(3) 1.720(3) 0.3380 Uiso
O2F O 0.26681(18) 0.6501(4) 1.6485(4) 0.0532 Uani
O3A O 0.3902(2) 0.6792(4) 1.4640(6) 0.0662 Uani
O4A O 0.3811(2) 0.8220(5) 1.5124(6) 0.0695 Uani
Gd1F Gd 0.183100(11) 0.79105(2) 1.46562(3) 0.0326 Uani
Gd1A Gd 0.683100(11) 0.70895(2) 0.96562(3) 0.0326 Uani
Gd1C Gd 0.183100(11) 1.20895(2) 0.96562(3) 0.0326 Uani
Gd1E Gd 0.316900(11) 1.29105(2) 1.03438(3) 0.0326 Uani
O5C O 0.29131(19) 0.5774(4) 1.4300(5) 0.0526 Uani
O6C O 0.22930(18) 0.6608(4) 1.4503(4) 0.0433 Uani
O6E O 0.27070(18) 0.8392(4) 1.5497(4) 0.0433 Uani
loop_
_atom_site_aniso_label
_atom_site_aniso_U_11
_atom_site_aniso_U_22
_atom_site_aniso_U_33
_atom_site_aniso_U_23
_atom_site_aniso_U_13
_atom_site_aniso_U_12
O1 0.045(3) 0.050(3) 0.046(3) 0.016(3) 0.020(3) 0.014(3)
C1 0.035(3) 0.044(3) 0.053(3) 0.009(3) 0.020(3) 0.004(3)
O2 0.035(3) 0.069(4) 0.060(4) 0.024(3) 0.023(3) 0.013(3)
O3 0.043(4) 0.052(4) 0.111(6) 0.001(4) 0.039(4) 0.003(3)
O4 0.040(3) 0.070(4) 0.106(6) 0.026(4) 0.039(4) 0.016(3)
C2 0.038(3) 0.059(4) 0.077(4) 0.010(3) 0.026(3) 0.010(3)
C3 0.040(3) 0.059(4) 0.081(4) 0.011(3) 0.027(3) 0.009(3)
C4 0.051(3) 0.062(4) 0.090(4) 0.016(3) 0.029(3) 0.012(3)
C5 0.043(3) 0.062(3) 0.085(4) 0.016(3) 0.029(3) 0.011(3)
Gd1 0.0232 0.0357 0.0405 0.00157 0.01046 -0.00335
O5 0.038(3) 0.048(3) 0.074(4) 0.016(3) 0.016(3) 0.008(3)
C6 0.041(3) 0.044(3) 0.059(3) 0.007(3) 0.023(3) 0.008(3)
O6 0.044(3) 0.037(3) 0.052(3) 0.011(3) 0.018(3) 0.003(2)
O7 0.135 0.151 0.073 -0.012 -0.017 -0.073
C7 0.039(3) 0.046(3) 0.059(3) 0.011(3) 0.021(3) 0.007(3)
C8 0.040(3) 0.052(3) 0.066(3) 0.011(3) 0.026(3) 0.004(2)
N1 0.040(4) 0.072(5) 0.082(6) 0.029(4) 0.029(4) 0.026(4)
N2 0.054(5) 0.071(6) 0.090(6) 0.022(5) 0.037(4) 0.019(4)
C9 0.034(3) 0.049(3) 0.059(3) 0.012(3) 0.026(3) 0.008(3)
C10 0.038(3) 0.043(3) 0.055(3) 0.010(3) 0.023(3) 0.007(3)
C11 0.037(3) 0.048(3) 0.066(3) 0.014(3) 0.025(2) 0.007(2)
C12 0.039(3) 0.057(3) 0.077(3) 0.015(3) 0.028(3) 0.010(3)
C13 0.046(3) 0.059(3) 0.083(3) 0.011(3) 0.027(3) 0.010(3)
C14 0.037(3) 0.049(3) 0.064(3) 0.012(3) 0.025(3) 0.007(3)
O8 0.089 0.067 0.173 0.076 0.047 0.023
C15 0.048(3) 0.063(3) 0.090(3) 0.016(3) 0.032(3) 0.010(3)
O2F 0.035 0.069 0.06 0.024 0.023 0.013
O3A 0.043 0.052 0.111 -0.001 0.039 -0.003
O4A 0.04 0.07 0.106 -0.026 0.039 -0.016
Gd1F 0.0232 0.0357 0.0405 0.00157 0.01046 -0.00335
Gd1A 0.0232 0.0357 0.0405 -0.00157 0.01046 0.00335
Gd1C 0.0232(2) 0.0357(3) 0.0405(3) -0.00157(16) 0.01046(16) 0.00335(14)
Gd1E 0.0232 0.0357 0.0405 -0.00157 0.01046 0.00335
O5C 0.038 0.048 0.074 -0.016 0.016 -0.008
O6C 0.044 0.037 0.052 -0.011 0.018 -0.003
O6E 0.044 0.037 0.052 -0.011 0.018 -0.003
loop_
_geom_bond_atom_site_label_1
_geom_bond_atom_site_label_2
_geom_bond_site_symmetry_1
_geom_bond_site_symmetry_2
O1 C1 1_555 1_555
C1 O2 1_555 1_555
O2 Gd1F 1_555 1_555
O3 C2 1_555 1_555
O4 C2 1_555 1_555
C2 C3 1_555 1_555
C3 C4 1_555 1_555
C4 H1 1_555 1_555
C5 C3 1_555 1_555
H2 C5 1_555 1_555
Gd1 O1 1_555 1_555
O5 C6 1_555 1_555
C6 O6 1_555 1_555
O6 Gd1C 1_555 1_555
O7 Gd1 1_555 1_555
H3 O7 1_555 1_555
H4 O7 1_555 1_555
C7 C6 1_555 1_555
C8 C7 1_555 1_555
H5 C8 1_555 1_555
N1 N2 1_555 1_555
N2 C12 1_555 1_555
C9 C7 1_555 1_555
H6 C9 1_555 1_555
C10 C1 1_555 1_555
C11 C8 1_555 1_555
C12 C13 1_555 1_555
C13 C5 1_555 1_555
H7 C13 1_555 1_555
C14 C10 1_555 1_555
H8 C14 1_555 1_555
O8 Gd1 1_555 1_555
C15 C4 1_555 1_555
H9 C15 1_555 1_555
C16 O8 1_555 1_555
H10 C16 1_555 1_555
C17 H11 1_555 1_555
H12 C17 1_555 1_555
H13 C17 1_555 1_555
C18 H14 1_555 1_555
H15 C18 1_555 1_555
H16 C18 1_555 1_555
N3 C16 1_555 1_555
O2F Gd1 1_555 1_555
O3A Gd1 1_555 1_555
O4A Gd1 1_555 1_555
Gd1F O6C 1_555 1_555
Gd1A O3 1_555 1_555
Gd1C O5 1_555 1_555
Gd1E O6 1_555 1_555
O5C Gd1 1_555 1_555
O6C Gd1 1_555 1_555
O6E Gd1 1_555 1_555
O4 Gd1A 1_555 1_555
N1 C11 1_555 1_555
C9 C10 1_555 1_555
C11 C14 1_555 1_555
C12 C15 1_555 1_555
C17 N3 1_555 1_555
C18 N3 1_555 1_555
Gd1F O6E 1_555 1_555

#END
