
#######################################################################
#
#                 Cambridge Crystallographic Data Centre
#                                CCDC 
#
#######################################################################
#
# If this CIF has been generated from an entry in the Cambridge 
# Structural Database, then it will include bibliographic, chemical, 
# crystal, experimental, refinement or atomic coordinate data resulting 
# from the CCDC's data processing and validation procedures.
#
#######################################################################

data_RUYGEZ
_chemical_formula_moiety         '(C7 H4 O3 Zn1)n'
_symmetry_cell_setting           tetragonal
_symmetry_space_group_name_H-M   'P 41 2 2'
_symmetry_Int_Tables_number      91
_space_group_name_Hall           'P 4w 2c'
loop_
_symmetry_equiv_pos_site_id
_symmetry_equiv_pos_as_xyz
1 x,y,z
2 -x,-y,1/2+z
3 -y,x,1/4+z
4 y,-x,3/4+z
5 -x,y,-z
6 x,-y,1/2-z
7 y,x,3/4-z
8 -y,-x,1/4-z
_cell_length_a                   9.1425(13)
_cell_length_b                   9.1425(13)
_cell_length_c                   12.663(3)
_cell_angle_alpha                90
_cell_angle_beta                 90
_cell_angle_gamma                90
_cell_volume                     1058.44
loop_
_atom_site_label
_atom_site_type_symbol
_atom_site_fract_x
_atom_site_fract_y
_atom_site_fract_z
_atom_site_U_iso_or_equiv
_atom_site_thermal_displace_type
Zn1 Zn 0.0367(2) 0.0367(2) 0.3750 0.0353 Uiso
C1 C 0.301(3) 0.0000 0.2500 0.0410 Uiso
C2 C 0.464(2) 0.0000 0.2500 0.0370 Uiso
O1 O 0.237(2) 0.032(3) 0.3368(16) 0.0300 Uiso
C3 C 0.771(3) 0.0000 0.2500 0.0330 Uiso
O2 O 0.9169(12) 0.0000 0.2500 0.0220 Uiso
C4 C 0.545(3) 0.030(4) 0.341(2) 0.0380 Uiso
H1 H 0.4944 0.0485 0.4033 0.0450 Uiso
C5 C 0.691(3) 0.034(4) 0.342(2) 0.0270 Uiso
H2 H 0.7406 0.0594 0.4039 0.0320 Uiso
O1E O 0.237(2) -0.032(3) 0.1632(16) 0.0300 Uiso
C4E C 0.545(3) -0.030(4) 0.159(2) 0.0380 Uiso
H1E H 0.4944 -0.0485 0.0967 0.0450 Uiso
C5E C 0.691(3) -0.034(4) 0.158(2) 0.0270 Uiso
H2E H 0.7406 -0.0594 0.0961 0.0320 Uiso
Zn1_2 Zn 1.0367(2) 0.0367(2) 0.3750 0.0353 Uiso
Zn1C Zn 0.0367(2) -0.0367(2) 0.1250 0.0353 Uiso
Zn1C_2 Zn 1.0367(2) -0.0367(2) 0.1250 0.0353 Uiso
O1F O 0.032(3) 0.237(2) 0.4132(16) 0.0300 Uiso
O2_2 O -0.0831(12) 0.0000 0.2500 0.0220 Uiso
O2B O 0.0000 -0.0831(12) 0.5000 0.0220 Uiso
loop_
_geom_bond_atom_site_label_1
_geom_bond_atom_site_label_2
_geom_bond_site_symmetry_1
_geom_bond_site_symmetry_2
Zn1 O1 1_555 1_555
C1 C2 1_555 1_555
C2 C4 1_555 1_555
O1 C1 1_555 1_555
C3 O2 1_555 1_555
O2 Zn1_2 1_555 1_555
C4 H1 1_555 1_555
C5 C3 1_555 1_555
H2 C5 1_555 1_555
O1E C1 1_555 1_555
C4E C2 1_555 1_555
H1E C4E 1_555 1_555
C5E C3 1_555 1_555
H2E C5E 1_555 1_555
Zn1C O1E 1_555 1_555
Zn1C_2 O2 1_555 1_555
O1F Zn1 1_555 1_555
O2_2 Zn1 1_555 1_555
O2B Zn1 1_555 1_555
C4 C5 1_555 1_555
C4E C5E 1_555 1_555
Zn1C O2_2 1_555 1_555

#END
