
#######################################################################
#
#                 Cambridge Crystallographic Data Centre
#                                CCDC 
#
#######################################################################
#
# If this CIF has been generated from an entry in the Cambridge 
# Structural Database, then it will include bibliographic, chemical, 
# crystal, experimental, refinement or atomic coordinate data resulting 
# from the CCDC's data processing and validation procedures.
#
#######################################################################

data_ECUDAI
_chemical_formula_moiety         '(C12 H23 Nd1 O13)n'
_symmetry_cell_setting           triclinic
_symmetry_space_group_name_H-M   'P -1'
_symmetry_Int_Tables_number      2
_space_group_name_Hall           '-P 1'
loop_
_symmetry_equiv_pos_site_id
_symmetry_equiv_pos_as_xyz
1 x,y,z
2 -x,-y,-z
_cell_length_a                   8.4735(7)
_cell_length_b                   10.8836(9)
_cell_length_c                   11.1301(2)
_cell_angle_alpha                64.333(19)
_cell_angle_beta                 80.33(3)
_cell_angle_gamma                73.76(2)
_cell_volume                     886.942
loop_
_atom_site_label
_atom_site_type_symbol
_atom_site_fract_x
_atom_site_fract_y
_atom_site_fract_z
Nd1 Nd 0.74826(3) 1.00318(3) 0.50269(3)
O1 O 0.9968(5) 0.9515(5) 0.6330(4)
O2 O 0.7620(6) 0.9408(6) 0.7519(4)
O3 O 0.7827(5) 0.9098(6) 1.3258(5)
O4 O 0.5304(5) 0.9374(5) 1.4130(4)
O5 O 1.2216(9) 0.2407(5) 1.3847(6)
O6 O 1.1889(10) 0.4591(7) 1.3570(9)
O7 O 0.7540(6) 1.2245(5) 0.5129(5)
O8 O 0.6157(7) 1.2127(5) 0.3045(5)
C1 C 0.9339(8) 0.7927(7) 0.9984(6)
C2 C 0.7979(8) 0.8512(7) 1.0628(6)
H1 H 0.7496 0.9488 1.0233
C3 C 0.7331(8) 0.7670(7) 1.1844(7)
C4 C 0.8037(8) 0.6243(7) 1.2412(7)
H2 H 0.7586 0.5670 1.3242
C5 C 0.9382(8) 0.5637(7) 1.1797(6)
C6 C 1.0030(8) 0.6486(7) 1.0577(6)
H3 H 1.0952 0.6081 1.0144
C7 C 1.0098(9) 0.8831(8) 0.8684(7)
H4 H 1.0169 0.9693 0.8749
H5 H 1.1235 0.8319 0.8558
C8 C 0.9171(7) 0.9244(6) 0.7475(6)
C9 C 0.5897(8) 0.8314(8) 1.2556(7)
H6 H 0.5320 0.7578 1.3171
H7 H 0.5113 0.9037 1.1889
C10 C 0.6377(8) 0.8977(7) 1.3348(6)
C11 C 1.0159(10) 0.4085(7) 1.2432(8)
H8 H 1.0618 0.3759 1.1713
H9 H 0.9286 0.3586 1.2939
C12 C 1.1514(10) 0.3673(8) 1.3363(8)
Nd1A Nd 1.25174(3) 0.99682(3) 0.49731(3)
Nd1_2 Nd 0.74826(3) 1.00318(3) 1.50269(3)
Nd1A_2 Nd 0.25174(3) 0.99682(3) 1.49731(3)
Nd1A_3 Nd 1.25174(3) -0.00318(3) 1.49731(3)
O1A O 1.0032(5) 1.0485(5) 0.3670(4)
O3_2 O 0.7827(5) 0.9098(6) 0.3258(5)
O4_2 O 0.5304(5) 0.9374(5) 0.4130(4)
O4A O 0.4696(5) 1.0626(5) 0.5870(4)
O5A O 0.7784(9) 0.7593(5) 0.6153(6)
O9 O 0.9028(7) 0.2627(6) 0.6839(6)
O10 O 0.4889(9) 0.4471(7) 0.4001(9)
O11 O 0.5111(12) 0.8029(12) 0.8921(7)
O12 O 0.3682(15) 0.6899(15) 1.1415(10)
O13 O 0.559(7) 0.597(7) 1.016(4)
loop_
_geom_bond_atom_site_label_1
_geom_bond_atom_site_label_2
_geom_bond_site_symmetry_1
_geom_bond_site_symmetry_2
Nd1 O1 1_555 1_555
O1 C8 1_555 1_555
O2 Nd1 1_555 1_555
O3 C10 1_555 1_555
O4 C10 1_555 1_555
O5 C12 1_555 1_555
O6 C12 1_555 1_555
O7 Nd1 1_555 1_555
O8 Nd1 1_555 1_555
C1 C2 1_555 1_555
C2 H1 1_555 1_555
C3 C2 1_555 1_555
C4 C3 1_555 1_555
H2 C4 1_555 1_555
C5 C4 1_555 1_555
C6 C1 1_555 1_555
H3 C6 1_555 1_555
C7 C1 1_555 1_555
H4 C7 1_555 1_555
H5 C7 1_555 1_555
C8 O2 1_555 1_555
C9 C3 1_555 1_555
H6 C9 1_555 1_555
H7 C9 1_555 1_555
C10 C9 1_555 1_555
C11 C5 1_555 1_555
H8 C11 1_555 1_555
H9 C11 1_555 1_555
C12 C11 1_555 1_555
Nd1A O1 1_555 1_555
Nd1_2 O3 1_555 1_555
Nd1A_2 O4 1_555 1_555
Nd1A_3 O5 1_555 1_555
O1A Nd1 1_555 1_555
O3_2 Nd1 1_555 1_555
O4_2 Nd1 1_555 1_555
O4A Nd1 1_555 1_555
O5A Nd1 1_555 1_555
O4 Nd1_2 1_555 1_555
C5 C6 1_555 1_555
C7 C8 1_555 1_555
Nd1A O1A 1_555 1_555

#END
