
#######################################################################
#
#                 Cambridge Crystallographic Data Centre
#                                CCDC 
#
#######################################################################
#
# If this CIF has been generated from an entry in the Cambridge 
# Structural Database, then it will include bibliographic, chemical, 
# crystal, experimental, refinement or atomic coordinate data resulting 
# from the CCDC's data processing and validation procedures.
#
#######################################################################

data_YARGAB
_chemical_formula_moiety         '(C48 H30 O16 Zn3 2-)n'
_symmetry_cell_setting           trigonal
_symmetry_space_group_name_H-M   'P -3 1 c'
_symmetry_Int_Tables_number      163
_space_group_name_Hall           '-P 3 2c'
loop_
_symmetry_equiv_pos_site_id
_symmetry_equiv_pos_as_xyz
1 x,y,z
2 -y,x-y,z
3 -x+y,-x,z
4 -y,-x,1/2-z
5 -x+y,y,1/2-z
6 x,x-y,1/2-z
7 -x,-y,-z
8 y,-x+y,-z
9 x-y,x,-z
10 y,x,1/2+z
11 x-y,-y,1/2+z
12 -x,-x+y,1/2+z
_cell_length_a                   15.578(3)
_cell_length_b                   15.578(3)
_cell_length_c                   16.521(3)
_cell_angle_alpha                90
_cell_angle_beta                 90
_cell_angle_gamma                120
_cell_volume                     3472.09
loop_
_atom_site_label
_atom_site_type_symbol
_atom_site_fract_x
_atom_site_fract_y
_atom_site_fract_z
Zn1 Zn 0.740920(16) 0.259080(16) 0.2500
O1 O 0.63983(15) 0.14752(14) 0.32535(12)
O2 O 0.6667 0.3333 0.2500
O3 O 0.51865(16) 0.18307(15) 0.35266(12)
O4 O 0.81912(13) 0.18088(13) 0.2500
H1 H 0.8059 0.1289 0.2768
C1 C 0.5665(2) 0.1392(2) 0.36538(16)
C2 C 0.5331(2) 0.0679(2) 0.43531(16)
C3 C 0.4509(2) -0.0274(2) 0.42453(17)
C4 C 0.4176(2) -0.0965(2) 0.49056(17)
C5 C 0.3330(2) -0.1925(2) 0.47817(19)
H2 H 0.3080 -0.2381 0.5220
C6 C 0.2880(3) -0.2197(3) 0.4052(2)
H3 H 0.2336 -0.2848 0.3976
C7 C 0.3221(3) -0.1505(3) 0.3393(2)
H4 H 0.2894 -0.1695 0.2885
C8 C 0.4005(3) -0.0583(2) 0.3493(2)
H5 H 0.4224 -0.0133 0.3050
Zn1A Zn 0.740920(16) 0.481840(23) 0.2500
Zn1B Zn 0.518160(23) 0.259080(16) 0.2500
Zn1F Zn 0.259080(16) -0.259080(16) 0.7500
Zn1F_2 Zn 1.259080(16) 0.740920(16) 0.7500
Zn1G Zn 0.259080(16) 0.518160(23) 0.7500
Zn1G_2 Zn 1.259080(16) 0.518160(23) 0.7500
Zn1H Zn 0.481840(23) -0.259080(16) 0.7500
Zn1H_2 Zn 0.481840(23) 0.740920(16) 0.7500
O1F O 0.36017(15) -0.14752(14) 0.67465(12)
O1A O 0.85248(14) 0.49231(21) 0.32535(12)
O1G O 1.14752(14) 0.50769(21) 0.67465(12)
O1B O 0.50769(21) 0.36017(15) 0.32535(12)
O1H O 0.49231(21) 0.63983(15) 0.67465(12)
O1C O 0.85248(14) 0.36017(15) 0.17465(12)
O1D O 0.50769(21) 0.14752(14) 0.17465(12)
O1E O 0.63983(15) 0.49231(21) 0.17465(12)
O3F O 0.48135(16) -0.18307(15) 0.64734(12)
O3A O 0.81693(15) 0.33558(22) 0.35266(12)
O3G O 1.18307(15) 0.66442(22) 0.64734(12)
O3B O 0.66442(22) 0.48135(16) 0.35266(12)
O3H O 0.33558(22) 0.51865(16) 0.64734(12)
O3C O 0.81693(15) 0.48135(16) 0.14734(12)
O3D O 0.66442(22) 0.18307(15) 0.14734(12)
O3E O 0.51865(16) 0.33558(22) 0.14734(12)
O4A O 0.81912(13) 0.63824(18) 0.2500
O4B O 0.36176(18) 0.18088(13) 0.2500
H1C H 0.8711 0.1941 0.2232
H1A H 0.8711 0.6770 0.2768
H1E H 0.8059 0.6770 0.2232
H1B H 0.3230 0.1941 0.2768
H1D H 0.3230 0.1289 0.2232
C1F C 0.4335(2) -0.1392(2) 0.63462(16)
C1A C 0.8608(2) 0.4273(3) 0.36538(16)
C1G C 1.1392(2) 0.5727(3) 0.63462(16)
C1B C 0.5727(3) 0.4335(2) 0.36538(16)
C1H C 0.4273(3) 0.5665(2) 0.63462(16)
C2F C 0.4669(2) -0.0679(2) 0.56469(16)
C2A C 0.9321(2) 0.4652(3) 0.43531(16)
C2G C 1.0679(2) 0.5348(3) 0.56469(16)
C2B C 0.5348(3) 0.4669(2) 0.43531(16)
C2H C 0.4652(3) 0.5331(2) 0.56469(16)
C3F C 0.5491(2) 0.0274(2) 0.57547(17)
C3A C 1.0274(2) 0.4783(3) 0.42453(17)
C3G C 0.9726(2) 0.5217(3) 0.57547(17)
C3B C 0.5217(3) 0.5491(2) 0.42453(17)
C3H C 0.4783(3) 0.4509(2) 0.57547(17)
C4F C 0.5824(2) 0.0965(2) 0.50944(17)
C4A C 1.0965(2) 0.5141(3) 0.49056(17)
C4G C 0.9035(2) 0.4859(3) 0.50944(17)
C4B C 0.4859(3) 0.5824(2) 0.49056(17)
C4H C 0.5141(3) 0.4176(2) 0.50944(17)
C5F C 0.6670(2) 0.1925(2) 0.52183(19)
C5A C 1.1925(2) 0.5255(3) 0.47817(19)
C5G C 0.8075(2) 0.4745(3) 0.52183(19)
C5B C 0.4745(3) 0.6670(2) 0.47817(19)
C5H C 0.5255(3) 0.3330(2) 0.52183(19)
H2F H 0.6920 0.2381 0.4780
H2A H 1.2381 0.5461 0.5220
H2G H 0.7619 0.4539 0.4780
H2B H 0.4539 0.6920 0.5220
H2H H 0.5461 0.3080 0.4780
C6F C 0.7120(3) 0.2197(3) 0.5948(2)
C6A C 1.2197(3) 0.5077(4) 0.4052(2)
C6G C 0.7803(3) 0.4923(4) 0.5948(2)
C6B C 0.4923(4) 0.7120(3) 0.4052(2)
C6H C 0.5077(4) 0.2880(3) 0.5948(2)
H3F H 0.7664 0.2848 0.6024
H3A H 1.2848 0.5184 0.3976
H3G H 0.7152 0.4816 0.6024
H3B H 0.4816 0.7664 0.3976
H3H H 0.5184 0.2336 0.6024
C7F C 0.6779(3) 0.1505(3) 0.6607(2)
C7A C 1.1505(3) 0.4726(4) 0.3393(2)
C7G C 0.8495(3) 0.5274(4) 0.6607(2)
C7B C 0.5274(4) 0.6779(3) 0.3393(2)
C7H C 0.4726(4) 0.3221(3) 0.6607(2)
H4F H 0.7106 0.1695 0.7115
H4A H 1.1695 0.4589 0.2885
H4G H 0.8305 0.5411 0.7115
H4B H 0.5411 0.7106 0.2885
H4H H 0.4589 0.2894 0.7115
C8F C 0.5995(3) 0.0583(2) 0.6507(2)
C8A C 1.0583(2) 0.4588(4) 0.3493(2)
C8G C 0.9417(2) 0.5412(4) 0.6507(2)
C8B C 0.5412(4) 0.5995(3) 0.3493(2)
C8H C 0.4588(4) 0.4005(3) 0.6507(2)
H5F H 0.5776 0.0133 0.6950
H5A H 1.0133 0.4357 0.3050
H5G H 0.9867 0.5643 0.6950
H5B H 0.5643 0.5776 0.3050
H5H H 0.4357 0.4224 0.6950
loop_
_geom_bond_atom_site_label_1
_geom_bond_atom_site_label_2
_geom_bond_site_symmetry_1
_geom_bond_site_symmetry_2
Zn1 O1 1_555 1_555
O1 C1 1_555 1_555
O2 Zn1 1_555 1_555
O3 C1 1_555 1_555
O4 Zn1 1_555 1_555
H1 O4 1_555 1_555
C1 C2 1_555 1_555
C2 C3 1_555 1_555
C3 C4 1_555 1_555
C4 C5 1_555 1_555
C5 H2 1_555 1_555
C6 C5 1_555 1_555
H3 C6 1_555 1_555
C7 C6 1_555 1_555
H4 C7 1_555 1_555
C8 C3 1_555 1_555
H5 C8 1_555 1_555
Zn1A O2 1_555 1_555
Zn1B O2 1_555 1_555
Zn1F O1F 1_555 1_555
Zn1F_2 O3G 1_555 1_555
Zn1G O3H 1_555 1_555
Zn1G_2 O1G 1_555 1_555
Zn1H O3F 1_555 1_555
Zn1H_2 O1H 1_555 1_555
O1F C1F 1_555 1_555
O1A Zn1A 1_555 1_555
O1G C1G 1_555 1_555
O1B Zn1B 1_555 1_555
O1H C1H 1_555 1_555
O1C Zn1 1_555 1_555
O1D Zn1B 1_555 1_555
O1E Zn1A 1_555 1_555
O3F C1F 1_555 1_555
O3A Zn1 1_555 1_555
O3G C1G 1_555 1_555
O3B Zn1A 1_555 1_555
O3H C1H 1_555 1_555
O3C Zn1A 1_555 1_555
O3D Zn1 1_555 1_555
O3E Zn1B 1_555 1_555
O4A Zn1A 1_555 1_555
O4B Zn1B 1_555 1_555
H1C O4 1_555 1_555
H1A O4A 1_555 1_555
H1E O4A 1_555 1_555
H1B O4B 1_555 1_555
H1D O4B 1_555 1_555
C1F C2F 1_555 1_555
C1A O1A 1_555 1_555
C1G C2G 1_555 1_555
C1B O1B 1_555 1_555
C1H C2H 1_555 1_555
C2F C4 1_555 1_555
C2A C1A 1_555 1_555
C2G C3G 1_555 1_555
C2B C1B 1_555 1_555
C2H C3H 1_555 1_555
C3F C2F 1_555 1_555
C3A C2A 1_555 1_555
C3G C4G 1_555 1_555
C3B C2B 1_555 1_555
C3H C4H 1_555 1_555
C4F C2 1_555 1_555
C4A C2G 1_555 1_555
C4G C2A 1_555 1_555
C4B C2H 1_555 1_555
C4H C2B 1_555 1_555
C5F C4F 1_555 1_555
C5A C4A 1_555 1_555
C5G C4G 1_555 1_555
C5B C4B 1_555 1_555
C5H C4H 1_555 1_555
H2F C5F 1_555 1_555
H2A C5A 1_555 1_555
H2G C5G 1_555 1_555
H2B C5B 1_555 1_555
H2H C5H 1_555 1_555
C6F C5F 1_555 1_555
C6A C5A 1_555 1_555
C6G C5G 1_555 1_555
C6B C5B 1_555 1_555
C6H C5H 1_555 1_555
H3F C6F 1_555 1_555
H3A C6A 1_555 1_555
H3G C6G 1_555 1_555
H3B C6B 1_555 1_555
H3H C6H 1_555 1_555
C7F C6F 1_555 1_555
C7A C6A 1_555 1_555
C7G C6G 1_555 1_555
C7B C6B 1_555 1_555
C7H C6H 1_555 1_555
H4F C7F 1_555 1_555
H4A C7A 1_555 1_555
H4G C7G 1_555 1_555
H4B C7B 1_555 1_555
H4H C7H 1_555 1_555
C8F C3F 1_555 1_555
C8A C3A 1_555 1_555
C8G C3G 1_555 1_555
C8B C3B 1_555 1_555
C8H C3H 1_555 1_555
H5F C8F 1_555 1_555
H5A C8A 1_555 1_555
H5G C8G 1_555 1_555
H5B C8B 1_555 1_555
H5H C8H 1_555 1_555
O3 Zn1B 1_555 1_555
C7 C8 1_555 1_555
O3A C1A 1_555 1_555
O3B C1B 1_555 1_555
C3F C4F 1_555 1_555
C3A C4A 1_555 1_555
C3B C4B 1_555 1_555
C7F C8F 1_555 1_555
C7A C8A 1_555 1_555
C7G C8G 1_555 1_555
C7B C8B 1_555 1_555
C7H C8H 1_555 1_555

#END
