
#######################################################################
#
#                 Cambridge Crystallographic Data Centre
#                                CCDC 
#
#######################################################################
#
# If this CIF has been generated from an entry in the Cambridge 
# Structural Database, then it will include bibliographic, chemical, 
# crystal, experimental, refinement or atomic coordinate data resulting 
# from the CCDC's data processing and validation procedures.
#
#######################################################################

data_ESIFET
_chemical_formula_moiety         '(C6 H6 Cd1 N4 O2)n'
_symmetry_cell_setting           rhombohedral
_symmetry_space_group_name_H-M   'R -3'
_symmetry_Int_Tables_number      148
_space_group_name_Hall           '-R 3'
loop_
_symmetry_equiv_pos_site_id
_symmetry_equiv_pos_as_xyz
1 x,y,z
2 -y,x-y,z
3 -x+y,-x,z
4 2/3+x,1/3+y,1/3+z
5 2/3-y,1/3+x-y,1/3+z
6 2/3-x+y,1/3-x,1/3+z
7 1/3+x,2/3+y,2/3+z
8 1/3-y,2/3+x-y,2/3+z
9 1/3-x+y,2/3-x,2/3+z
10 -x,-y,-z
11 y,-x+y,-z
12 x-y,x,-z
13 1/3-x,2/3-y,2/3-z
14 1/3+y,2/3-x+y,2/3-z
15 1/3+x-y,2/3+x,2/3-z
16 2/3-x,1/3-y,1/3-z
17 2/3+y,1/3-x+y,1/3-z
18 2/3+x-y,1/3+x,1/3-z
_cell_length_a                   18.8175(16)
_cell_length_b                   18.8175(16)
_cell_length_c                   19.0483(13)
_cell_angle_alpha                90
_cell_angle_beta                 90
_cell_angle_gamma                120
_cell_volume                     5841.32
loop_
_atom_site_label
_atom_site_type_symbol
_atom_site_fract_x
_atom_site_fract_y
_atom_site_fract_z
Cd1 Cd 0.67081(2) 0.05418(2) 0.376940(13)
N1 N 0.6889(4) 0.0649(2) 0.25837(16)
N2 N 0.5702(5) 0.0714(3) 0.33504(17)
C1 C 0.6194(3) 0.0568(4) 0.22524(19)
C2 C 0.7333(3) 0.0549(3) 0.20889(18)
C3 C 0.5577(4) 0.0640(5) 0.2680(2)
H1 H 0.529(3) 0.075(5) 0.360(3)
C4 C 0.6258(3) 0.0409(3) 0.15491(19)
N3 N 0.6980(2) 0.0406(2) 0.14545(15)
C5 C 0.8154(4) 0.0645(3) 0.2218(3)
O1 O 0.4969(4) 0.0630(2) 0.23535(15)
C6 C 0.5724(3) 0.0238(3) 0.09151(19)
H2 H 0.827(3) 0.047(3) 0.187(3)
H3 H 0.819(3) 0.041(3) 0.261(3)
H4 H 0.878(3) 0.132(3) 0.225(3)
O2 O 0.5959(3) 0.0083(2) 0.03460(14)
N4 N 0.5041(4) 0.0250(3) 0.0972(2)
H5 H 0.475(4) 0.003(4) 0.140(4)
H6 H 0.472(4) 0.007(4) 0.067(4)
Cd1H Cd 0.71670(3) -0.00414(2) 0.043607(13)
Cd1M Cd 0.38751(2) 0.05004(3) 0.289727(13)
N3D N 0.6261(2) -0.0093(3) 0.47878(15)
O1N O 0.7672(4) 0.1636(4) 0.43132(15)
O2D O 0.6584(2) -0.0791(4) 0.36793(14)
loop_
_geom_bond_atom_site_label_1
_geom_bond_atom_site_label_2
_geom_bond_site_symmetry_1
_geom_bond_site_symmetry_2
Cd1 N1 1_555 1_555
N1 C1 1_555 1_555
N2 Cd1 1_555 1_555
C1 C3 1_555 1_555
C2 N1 1_555 1_555
C3 N2 1_555 1_555
H1 N2 1_555 1_555
C4 C1 1_555 1_555
N3 C2 1_555 1_555
C5 C2 1_555 1_555
O1 C3 1_555 1_555
C6 C4 1_555 1_555
H2 C5 1_555 1_555
H3 C5 1_555 1_555
H4 C5 1_555 1_555
O2 C6 1_555 1_555
N4 C6 1_555 1_555
H5 N4 1_555 1_555
H6 N4 1_555 1_555
Cd1H N3 1_555 1_555
Cd1M O1 1_555 1_555
N3D Cd1 1_555 1_555
O1N Cd1 1_555 1_555
O2D Cd1 1_555 1_555
C4 N3 1_555 1_555
O2 Cd1H 1_555 1_555

#END
