
#######################################################################
#
#                 Cambridge Crystallographic Data Centre
#                                CCDC 
#
#######################################################################
#
# If this CIF has been generated from an entry in the Cambridge 
# Structural Database, then it will include bibliographic, chemical, 
# crystal, experimental, refinement or atomic coordinate data resulting 
# from the CCDC's data processing and validation procedures.
#
#######################################################################

data_ESIFIX
_chemical_formula_moiety         '(C6 H6 Cd1 N4 O2)n'
_symmetry_cell_setting           rhombohedral
_symmetry_space_group_name_H-M   'R -3'
_symmetry_Int_Tables_number      148
_space_group_name_Hall           '-R 3'
loop_
_symmetry_equiv_pos_site_id
_symmetry_equiv_pos_as_xyz
1 x,y,z
2 -y,x-y,z
3 -x+y,-x,z
4 2/3+x,1/3+y,1/3+z
5 2/3-y,1/3+x-y,1/3+z
6 2/3-x+y,1/3-x,1/3+z
7 1/3+x,2/3+y,2/3+z
8 1/3-y,2/3+x-y,2/3+z
9 1/3-x+y,2/3-x,2/3+z
10 -x,-y,-z
11 y,-x+y,-z
12 x-y,x,-z
13 1/3-x,2/3-y,2/3-z
14 1/3+y,2/3-x+y,2/3-z
15 1/3+x-y,2/3+x,2/3-z
16 2/3-x,1/3-y,1/3-z
17 2/3+y,1/3-x+y,1/3-z
18 2/3+x-y,1/3+x,1/3-z
_cell_length_a                   18.7794(7)
_cell_length_b                   18.7794(7)
_cell_length_c                   19.1228(7)
_cell_angle_alpha                90
_cell_angle_beta                 90
_cell_angle_gamma                120
_cell_volume                     5840.44
loop_
_atom_site_label
_atom_site_type_symbol
_atom_site_fract_x
_atom_site_fract_y
_atom_site_fract_z
C1 C 1.0520(3) 0.7291(3) 0.7891(2)
C2 C 1.0173(3) 0.5686(3) 0.9061(2)
C3 C 1.0351(3) 0.6206(3) 0.8427(2)
C4 C 1.0499(4) 0.6142(3) 0.7731(2)
C5 C 1.0561(4) 0.5513(3) 0.7312(2)
C6 C 1.0613(4) 0.8113(3) 0.7757(3)
H1 H 1.121(4) 0.859(4) 0.780(3)
H2 H 1.043(4) 0.820(4) 0.733(4)
H3 H 1.027(4) 0.829(4) 0.812(3)
Cd1 Cd 1.00147(2) 0.71851(2) 0.95528(2)
N1 N 1.0599(3) 0.6834(2) 0.73934(18)
N2 N 1.0379(2) 0.6943(2) 0.85192(17)
N3 N 1.0162(4) 0.4985(3) 0.9005(3)
H4 H 1.013(3) 0.476(3) 0.935(3)
H5 H 1.028(3) 0.483(3) 0.860(3)
N4 N 1.0645(4) 0.5633(3) 0.6641(2)
H6 H 1.067(6) 0.525(4) 0.641(4)
O1 O 1.0033(2) 0.5933(2) 0.96277(16)
O2 O 1.0517(3) 0.4890(4) 0.76331(17)
Cd1H Cd 1.05037(3) 0.66520(2) 0.62195(2)
Cd1M Cd 1.05184(2) 0.38371(3) 0.71139(2)
N1D N 0.9833(2) 0.7098(4) 1.07267(18)
N4D N 1.1034(3) 0.8345(5) 0.9974(2)
O2N O 0.8960(5) 0.7184(3) 0.90336(17)
loop_
_geom_bond_atom_site_label_1
_geom_bond_atom_site_label_2
_geom_bond_site_symmetry_1
_geom_bond_site_symmetry_2
C1 C6 1_555 1_555
C2 C3 1_555 1_555
C3 C4 1_555 1_555
C4 C5 1_555 1_555
C5 N4 1_555 1_555
C6 H1 1_555 1_555
H2 C6 1_555 1_555
H3 C6 1_555 1_555
Cd1 N2 1_555 1_555
N1 C1 1_555 1_555
N2 C1 1_555 1_555
N3 C2 1_555 1_555
H4 N3 1_555 1_555
H5 N3 1_555 1_555
N4 H6 1_555 1_555
O1 C2 1_555 1_555
O2 C5 1_555 1_555
Cd1H N1 1_555 1_555
Cd1M O2 1_555 1_555
N1D Cd1 1_555 1_555
N4D Cd1 1_555 1_555
O2N Cd1 1_555 1_555
C3 N2 1_555 1_555
C4 N1 1_555 1_555
Cd1 O1 1_555 1_555
N4 Cd1H 1_555 1_555

#END
