
#######################################################################
#
#                 Cambridge Crystallographic Data Centre
#                                CCDC 
#
#######################################################################
#
# If this CIF has been generated from an entry in the Cambridge 
# Structural Database, then it will include bibliographic, chemical, 
# crystal, experimental, refinement or atomic coordinate data resulting 
# from the CCDC's data processing and validation procedures.
#
#######################################################################

data_PUWZOX
_chemical_formula_moiety         '(C56 H56 Cr2 Fe2 Mn2 N8 O32)n'
_symmetry_cell_setting           orthorhombic
_symmetry_space_group_name_H-M   'P n a 21'
_symmetry_Int_Tables_number      33
_space_group_name_Hall           'P 2c -2n'
loop_
_symmetry_equiv_pos_site_id
_symmetry_equiv_pos_as_xyz
1 x,y,z
2 -x,-y,1/2+z
3 1/2-x,1/2+y,1/2+z
4 1/2+x,1/2-y,z
_cell_length_a                   20.8484(16)
_cell_length_b                   21.710(2)
_cell_length_c                   15.4856(13)
_cell_angle_alpha                90
_cell_angle_beta                 90
_cell_angle_gamma                90
_cell_volume                     7009.07
loop_
_atom_site_label
_atom_site_type_symbol
_atom_site_fract_x
_atom_site_fract_y
_atom_site_fract_z
_atom_site_U_iso_or_equiv
_atom_site_thermal_displace_type
C1 C 0.7649(4) 0.4576(3) 0.3539(4) 0.0477 Uani
C2 C 0.7625(4) 0.5290(3) 0.3480(5) 0.0590 Uani
C3 C 0.9134(4) 0.4493(4) 0.1721(6) 0.0540 Uani
C4 C 0.9547(4) 0.4128(4) 0.2381(5) 0.0503 Uani
C5 C 0.9328(4) 0.5422(4) 0.4836(7) 0.0730 Uani
C6 C 0.9652(4) 0.5801(4) 0.4114(6) 0.0643 Uani
C7 C 1.0304(3) 0.2399(4) 0.0816(5) 0.0553 Uani
C8 C 0.9566(4) 0.2351(4) 0.0774(5) 0.0610 Uani
C9 C 0.5853(5) 0.4509(3) 0.1911(5) 0.0593 Uani
C10 C 0.5447(4) 0.4147(4) 0.2563(5) 0.0610 Uani
C11 C 0.5800(3) 0.5373(4) 0.5188(5) 0.0473 Uani
C12 C 0.5448(4) 0.5694(4) 0.4415(5) 0.0547 Uani
O1 O 0.7107(3) 0.4305(2) 0.3628(4) 0.0683 Uani
O2 O 0.7085(2) 0.5563(2) 0.3477(3) 0.0530 Uani
O3 O 0.8171(3) 0.4348(2) 0.3467(3) 0.0540 Uani
O4 O 0.8159(2) 0.5561(2) 0.3392(3) 0.0503 Uani
O5 O 0.9125(2) 0.4333(2) 0.0947(4) 0.0633 Uani
O6 O 0.9875(3) 0.3691(3) 0.2107(3) 0.0693 Uani
O7 O 0.8799(2) 0.4916(2) 0.2053(3) 0.0523 Uani
O8 O 0.9493(2) 0.4299(2) 0.3157(3) 0.0620 Uani
O9 O 0.8990(3) 0.4973(2) 0.4584(3) 0.0547 Uani
O10 O 0.9513(2) 0.5626(2) 0.3363(3) 0.0517 Uani
O11 O 0.9442(3) 0.5593(2) 0.5605(3) 0.0613 Uani
O12 O 1.0037(3) 0.6215(3) 0.4291(3) 0.0587 Uani
O13 O 1.0580(2) 0.2916(2) 0.0775(3) 0.0627 Uani
O14 O 0.9270(3) 0.2852(3) 0.0672(3) 0.0770 Uani
O15 O 1.0589(2) 0.1881(3) 0.0914(4) 0.0697 Uani
O16 O 0.9330(2) 0.1839(2) 0.0869(3) 0.0617 Uani
O17 O 0.5701(3) 0.4409(2) 0.1107(3) 0.0643 Uani
O18 O 0.4993(2) 0.3799(2) 0.2250(3) 0.0567 Uani
O19 O 0.6288(3) 0.4842(3) 0.2157(3) 0.0660 Uani
O20 O 0.5574(3) 0.4209(2) 0.3343(4) 0.0677 Uani
O21 O 0.6205(3) 0.4977(3) 0.4960(3) 0.0627 Uani
O22 O 0.5549(2) 0.5595(2) 0.3710(3) 0.0597 Uani
O23 O 0.5662(3) 0.5521(2) 0.5931(3) 0.0580 Uani
O24 O 0.5004(3) 0.6077(3) 0.4701(3) 0.0650 Uani
Cr1 Cr 0.88668(6) 0.49556(6) 0.33304(7) 0.0540 Uani
Cr2 Cr 0.49905(7) 0.38111(6) 0.09757(8) 0.0637 Uani
Mn1 Mn 0.98780(6) 0.36483(6) 0.06949(8) 0.0684 Uani
Mn2 Mn 0.62967(5) 0.48987(6) 0.35751(8) 0.0626 Uani
O11A O 1.0558(3) 0.4407(2) 0.0605(3) 0.0613 Uani
O12A O 0.9963(3) 0.3785(3) -0.0709(3) 0.0587 Uani
O15C O 0.5589(2) 0.3119(3) 0.0914(4) 0.0697 Uani
O16C O 0.4330(2) 0.3161(2) 0.0869(3) 0.0617 Uani
O23A O 0.4338(3) 0.4479(2) 0.0931(3) 0.0580 Uani
O24A O 0.4996(3) 0.3923(3) -0.0299(3) 0.0650 Uani
Cr2A Cr 0.50095(7) 0.61889(6) 0.59757(8) 0.0637 Uani
Cr2C Cr 0.99905(7) 0.11889(6) 0.09757(8) 0.0637 Uani
Mn1A Mn 1.01220(6) 0.63517(6) 0.56949(8) 0.0684 Uani
C13 C 0.5465(4) 0.6049(3) 0.0695(4) 0.0990 Uiso
C14 C 0.4803(4) 0.6123(4) 0.0687(5) 0.1330 Uiso
H1 H 0.4564 0.5978 0.0222 0.1590 Uiso
C15 C 0.4498(3) 0.6414(4) 0.1372(6) 0.1560 Uiso
H2 H 0.4055 0.6464 0.1367 0.1870 Uiso
C16 C 0.4856(4) 0.6632(4) 0.2066(5) 0.1750 Uiso
C17 C 0.5518(4) 0.6557(4) 0.2074(4) 0.1310 Uiso
H3 H 0.5757 0.6703 0.2539 0.1570 Uiso
C18 C 0.5823(3) 0.6266(4) 0.1389(5) 0.0920 Uiso
C19 C 0.6385(7) 0.6181(7) 0.1527(9) 0.1340 Uiso
H4 H 0.6529 0.6329 0.2056 0.1610 Uiso
C20 C 0.7482(7) 0.5619(7) 0.1127(9) 0.1430 Uiso
H5 H 0.7688 0.5787 0.1636 0.1710 Uiso
H6 H 0.7419 0.5182 0.1228 0.1710 Uiso
C21 C 0.7895(6) 0.5682(6) 0.0453(8) 0.1210 Uiso
H7 H 0.8304 0.5488 0.0580 0.1450 Uiso
H8 H 0.7967 0.6112 0.0318 0.1450 Uiso
C22 C 0.7570(8) 0.4709(9) -0.0121(13) 0.1850 Uiso
H9 H 0.7643 0.4632 0.0489 0.2220 Uiso
H10 H 0.7931 0.4536 -0.0433 0.2220 Uiso
C23 C 0.6971(8) 0.4362(8) -0.0388(11) 0.1840 Uiso
H11 H 0.7061 0.4143 -0.0920 0.2210 Uiso
H12 H 0.6876 0.4057 0.0051 0.2210 Uiso
C24 C 0.6151(8) 0.4633(8) -0.1334(11) 0.1660 Uiso
H13 H 0.6420 0.4332 -0.1621 0.1990 Uiso
H14 H 0.5733 0.4444 -0.1256 0.1990 Uiso
C25 C 0.6077(8) 0.5103(7) -0.1870(9) 0.1500 Uiso
H15 H 0.5623 0.5198 -0.1906 0.1800 Uiso
H16 H 0.6214 0.4973 -0.2440 0.1800 Uiso
C26 C 0.6545(5) 0.6056(5) -0.2225(7) 0.0940 Uiso
H17 H 0.6415 0.5973 -0.2787 0.1130 Uiso
C27 C 0.6872(3) 0.6611(3) -0.2090(5) 0.0860 Uiso
C28 C 0.7002(3) 0.6962(3) -0.2820(3) 0.1080 Uiso
H18 H 0.6877 0.6822 -0.3362 0.1300 Uiso
C29 C 0.7320(4) 0.7522(3) -0.2740(4) 0.1410 Uiso
C30 C 0.7507(3) 0.7731(3) -0.1930(5) 0.1040 Uiso
H19 H 0.7719 0.8106 -0.1876 0.1250 Uiso
C31 C 0.7376(3) 0.7380(3) -0.1200(4) 0.1140 Uiso
H20 H 0.7501 0.7520 -0.0658 0.1360 Uiso
C32 C 0.7059(3) 0.6820(3) -0.1280(4) 0.0990 Uiso
C33 C 0.5006(7) 0.7322(8) 0.3272(11) 0.1750 Uiso
H21 H 0.4798 0.7551 0.3722 0.2630 Uiso
H22 H 0.5219 0.7601 0.2886 0.2630 Uiso
H23 H 0.5315 0.7046 0.3521 0.2630 Uiso
C34 C 0.7613(10) 0.8391(8) -0.3468(14) 0.2550 Uiso
H24 H 0.7718 0.8596 -0.3998 0.3820 Uiso
H25 H 0.7971 0.8416 -0.3079 0.3820 Uiso
H26 H 0.7246 0.8585 -0.3211 0.3820 Uiso
N1 N 0.6833(4) 0.5911(4) 0.1050(6) 0.1150 Uani
N2 N 0.7573(3) 0.5371(5) -0.0255(6) 0.1140 Uani
H27 H 0.7783 0.5456 -0.0756 0.1370 Uiso
N3 N 0.6407(3) 0.4733(4) -0.0518(6) 0.1053 Uani
H28 H 0.6109 0.4619 -0.0120 0.1270 Uiso
N4 N 0.6409(4) 0.5653(4) -0.1659(5) 0.0887 Uani
O25 O 0.5748(3) 0.5821(3) 0.0028(5) 0.1080 Uani
O26 O 0.6927(3) 0.6511(3) -0.0584(4) 0.1163 Uani
O27 O 0.4522(5) 0.6964(5) 0.2790(7) 0.1750 Uiso
O28 O 0.7483(6) 0.7814(7) -0.3624(9) 0.2240 Uiso
Fe1 Fe 0.66066(5) 0.57204(7) -0.03399(9) 0.0882 Uani
Fe2 Fe 0.94677(10) 0.67117(10) -0.01847(12) 0.0452 Uani
O29 O 0.8778(3) 0.7238(4) 0.0206(5) 0.0700 Uiso
O30 O 0.9265(3) 0.5888(4) -0.0570(4) 0.0560 Uiso
O31 O 0.7163(10) 0.7554(10) 0.3106(13) 0.2530 Uiso
O32 O 0.8062(4) 0.4728(5) -0.3274(6) 0.0980 Uiso
N5 N 0.9480(4) 0.6394(4) 0.1089(6) 0.0680 Uiso
N6 N 1.0467(4) 0.6378(4) -0.0033(5) 0.0590 Uiso
H29 H 1.0497 0.6033 -0.0364 0.0710 Uiso
N7 N 1.0081(5) 0.7552(4) -0.0350(6) 0.0620 Uiso
H30 H 0.9915 0.7860 -0.0019 0.0750 Uiso
N8 N 0.9201(4) 0.6965(4) -0.1433(5) 0.0530 Uiso
C35 C 0.8464(4) 0.7325(4) 0.0929(5) 0.0720 Uiso
C36 C 0.7985(5) 0.7770(4) 0.0909(7) 0.1270 Uiso
H31 H 0.7940 0.8023 0.0428 0.1520 Uiso
C37 C 0.7573(5) 0.7837(6) 0.1609(9) 0.1780 Uiso
H32 H 0.7253 0.8135 0.1596 0.2130 Uiso
C38 C 0.7641(5) 0.7460(7) 0.2328(7) 0.2140 Uiso
C39 C 0.8120(5) 0.7015(5) 0.2348(5) 0.1330 Uiso
H33 H 0.8165 0.6762 0.2829 0.1590 Uiso
C40 C 0.8532(4) 0.6947(4) 0.1648(6) 0.0660 Uiso
C41 C 0.9061(6) 0.6533(7) 0.1724(8) 0.0870 Uiso
H34 H 0.9122 0.6344 0.2256 0.1040 Uiso
C42 C 0.9968(6) 0.5916(6) 0.1237(8) 0.0700 Uiso
H35 H 0.9853 0.5537 0.0945 0.0840 Uiso
H36 H 1.0015 0.5833 0.1849 0.0840 Uiso
C43 C 1.0582(6) 0.6177(6) 0.0870(7) 0.0650 Uiso
H37 H 1.0723 0.6524 0.1216 0.0770 Uiso
H38 H 1.0916 0.5865 0.0883 0.0770 Uiso
C44 C 1.0948(6) 0.6814(6) -0.0379(9) 0.0480 Uiso
H39 H 1.0958 0.6797 -0.1005 0.0580 Uiso
H40 H 1.1372 0.6717 -0.0160 0.0580 Uiso
C45 C 1.0737(5) 0.7440(5) -0.0075(7) 0.0660 Uiso
H41 H 1.0764 0.7461 0.0549 0.0790 Uiso
H42 H 1.1017 0.7753 -0.0314 0.0790 Uiso
C46 C 1.0004(6) 0.7735(6) -0.1320(8) 0.0730 Uiso
H43 H 1.0102 0.8168 -0.1395 0.0880 Uiso
H44 H 1.0300 0.7498 -0.1672 0.0880 Uiso
C47 C 0.9351(6) 0.7613(6) -0.1591(7) 0.0750 Uiso
H45 H 0.9304 0.7706 -0.2200 0.0900 Uiso
H46 H 0.9058 0.7874 -0.1270 0.0900 Uiso
C48 C 0.8921(5) 0.6652(5) -0.2026(6) 0.0530 Uiso
H47 H 0.8806 0.6852 -0.2534 0.0630 Uiso
C49 C 0.8774(4) 0.5999(3) -0.1945(5) 0.0640 Uiso
C50 C 0.8470(4) 0.5715(4) -0.2637(4) 0.1050 Uiso
H48 H 0.8319 0.5951 -0.3096 0.1260 Uiso
C51 C 0.8390(4) 0.5079(4) -0.2644(5) 0.0730 Uiso
C52 C 0.8615(5) 0.4727(3) -0.1958(6) 0.0900 Uiso
H49 H 0.8561 0.4302 -0.1963 0.1080 Uiso
C53 C 0.8919(4) 0.5011(3) -0.1266(5) 0.0560 Uiso
H50 H 0.9070 0.4775 -0.0807 0.0680 Uiso
C54 C 0.8999(3) 0.5646(3) -0.1259(4) 0.0530 Uiso
C55 C 0.7498(11) 0.7498(11) 0.3844(11) 0.1970 Uiso
H51 H 0.7216 0.7555 0.4328 0.2950 Uiso
H52 H 0.7830 0.7804 0.3859 0.2950 Uiso
H53 H 0.7687 0.7095 0.3872 0.2950 Uiso
C56 C 0.7737(8) 0.5047(7) -0.3861(10) 0.1160 Uiso
H54 H 0.7535 0.4768 -0.4258 0.1740 Uiso
H55 H 0.8026 0.5312 -0.4169 0.1740 Uiso
H56 H 0.7415 0.5291 -0.3579 0.1740 Uiso
loop_
_atom_site_aniso_label
_atom_site_aniso_U_11
_atom_site_aniso_U_22
_atom_site_aniso_U_33
_atom_site_aniso_U_23
_atom_site_aniso_U_13
_atom_site_aniso_U_12
C1 0.061(5) 0.036(4) 0.046(4) 0.008(3) 0.003(4) -0.016(4)
C2 0.073(6) 0.031(4) 0.073(5) -0.026(4) -0.002(4) -0.005(4)
C3 0.059(5) 0.045(5) 0.058(5) 0.012(4) 0.012(4) 0.005(4)
C4 0.053(5) 0.046(5) 0.052(5) 0.015(4) -0.005(4) -0.006(4)
C5 0.058(5) 0.063(6) 0.098(7) 0.046(6) 0.009(5) 0.008(5)
C6 0.065(6) 0.051(6) 0.077(6) 0.001(4) -0.011(5) 0.005(5)
C7 0.039(4) 0.054(5) 0.073(5) -0.009(4) 0.007(4) 0.027(4)
C8 0.061(5) 0.041(5) 0.081(6) 0.006(4) -0.009(4) -0.005(5)
C9 0.105(7) 0.031(4) 0.042(5) 0.000(3) 0.001(5) 0.011(5)
C10 0.082(6) 0.038(5) 0.063(6) 0.007(4) -0.005(5) 0.003(5)
C11 0.039(4) 0.054(5) 0.049(5) -0.002(4) -0.003(4) -0.008(4)
C12 0.061(5) 0.065(6) 0.038(5) 0.021(4) 0.014(4) -0.018(5)
O1 0.069(4) 0.043(3) 0.093(4) 0.000(3) 0.014(3) -0.006(3)
O2 0.054(3) 0.044(3) 0.061(3) -0.002(2) 0.007(3) -0.001(3)
O3 0.061(3) 0.042(3) 0.059(3) 0.009(2) 0.009(3) 0.009(3)
O4 0.051(3) 0.042(3) 0.058(3) -0.006(2) 0.003(2) -0.008(3)
O5 0.075(4) 0.038(3) 0.077(4) 0.015(3) 0.005(3) 0.001(3)
O6 0.083(4) 0.070(4) 0.055(3) 0.015(3) 0.012(3) 0.019(4)
O7 0.053(3) 0.064(4) 0.040(3) 0.008(2) -0.009(2) 0.008(3)
O8 0.053(3) 0.067(4) 0.066(4) 0.020(3) -0.018(3) -0.012(3)
O9 0.071(3) 0.042(3) 0.051(3) 0.000(2) -0.008(2) -0.017(3)
O10 0.046(3) 0.065(3) 0.044(3) -0.001(2) -0.005(2) 0.003(3)
O11 0.097(4) 0.049(3) 0.038(3) 0.000(2) -0.016(3) 0.012(3)
O12 0.072(4) 0.048(3) 0.056(3) -0.003(2) -0.015(3) 0.002(3)
O13 0.049(3) 0.043(3) 0.096(4) -0.007(3) -0.004(3) -0.007(3)
O14 0.065(3) 0.080(5) 0.086(4) 0.030(3) 0.009(3) 0.004(4)
O15 0.058 0.058 0.093 0.013 -0.009 0.009
O16 0.061 0.049 0.075 0.02 -0.012 0.002
O17 0.079(4) 0.045(3) 0.069(4) 0.008(3) 0.005(3) -0.016(3)
O18 0.066(3) 0.047(3) 0.057(3) 0.000(2) -0.005(3) -0.018(3)
O19 0.083(4) 0.062(4) 0.053(3) -0.023(3) 0.004(3) -0.028(3)
O20 0.074(4) 0.059(4) 0.070(4) 0.007(3) -0.002(3) -0.022(3)
O21 0.061(3) 0.076(4) 0.051(3) 0.009(3) -0.003(3) -0.001(3)
O22 0.066(3) 0.068(4) 0.045(3) 0.014(3) 0.000(3) 0.009(3)
O23 0.086(4) 0.040(3) 0.048(3) 0.005(2) -0.010(3) -0.003(3)
O24 0.075(4) 0.061(4) 0.059(3) 0.019(3) -0.002(3) 0.007(3)
Cr1 0.0534(6) 0.0528(8) 0.0559(7) 0.0098(6) -0.0036(6) -0.0010(7)
Cr2 0.0749(8) 0.0484(7) 0.0679(8) 0.0001(6) -0.0108(6) -0.0094(8)
Mn1 0.0903(9) 0.0488(7) 0.0662(8) 0.0086(6) 0.0106(7) 0.0077(8)
Mn2 0.0561(7) 0.0686(9) 0.0631(8) -0.0044(6) 0.0048(6) -0.0108(7)
O11A 0.097 0.049 0.038 0 0.016 0.012
O12A 0.072 0.048 0.056 0.003 0.015 0.002
O15C 0.058 0.058 0.093 -0.013 -0.009 -0.009
O16C 0.061 0.049 0.075 -0.02 -0.012 -0.002
O23A 0.086 0.04 0.048 -0.005 0.01 -0.003
O24A 0.075 0.061 0.059 -0.019 0.002 0.007
Cr2A 0.0749 0.0484 0.0679 -0.0001 0.0108 -0.0094
Cr2C 0.0749 0.0484 0.0679 -0.0001 -0.0108 0.0094
Mn1A 0.0903 0.0488 0.0662 -0.0086 -0.0106 0.0077
N1 0.094(6) 0.103(7) 0.148(8) 0.083(6) -0.057(6) -0.022(6)
N2 0.064(5) 0.149(9) 0.129(7) 0.099(7) -0.001(5) -0.002(5)
N3 0.047(4) 0.139(8) 0.130(8) 0.064(6) 0.021(4) 0.013(5)
N4 0.078(5) 0.082(6) 0.106(6) 0.041(5) -0.011(4) 0.004(5)
O25 0.071(4) 0.089(5) 0.164(7) -0.024(5) 0.030(4) 0.005(4)
O26 0.103(5) 0.133(6) 0.113(5) 0.071(4) -0.027(4) -0.023(5)
Fe1 0.0511(7) 0.1088(11) 0.1046(10) 0.0512(8) -0.0064(7) -0.0011(8)
Fe2 0.0445(11) 0.0448(12) 0.0462(11) 0.0007(8) 0.0020(9) 0.0006(9)
loop_
_geom_bond_atom_site_label_1
_geom_bond_atom_site_label_2
_geom_bond_site_symmetry_1
_geom_bond_site_symmetry_2
C1 C2 1_555 1_555
C2 O2 1_555 1_555
C3 C4 1_555 1_555
C4 O6 1_555 1_555
C5 C6 1_555 1_555
C6 O10 1_555 1_555
C7 C8 1_555 1_555
C8 O14 1_555 1_555
C9 C10 1_555 1_555
C10 O18 1_555 1_555
C11 C12 1_555 1_555
C12 O22 1_555 1_555
C13 C14 1_555 1_555
C14 H1 1_555 1_555
C15 C14 1_555 1_555
H2 C15 1_555 1_555
C16 C15 1_555 1_555
C17 C16 1_555 1_555
H3 C17 1_555 1_555
C18 C13 1_555 1_555
C19 C18 1_555 1_555
H4 C19 1_555 1_555
C20 H5 1_555 1_555
H6 C20 1_555 1_555
C21 C20 1_555 1_555
H7 C21 1_555 1_555
H8 C21 1_555 1_555
C22 H9 1_555 1_555
H10 C22 1_555 1_555
C23 C22 1_555 1_555
H11 C23 1_555 1_555
H12 C23 1_555 1_555
C24 H13 1_555 1_555
H14 C24 1_555 1_555
C25 C24 1_555 1_555
H15 C25 1_555 1_555
H16 C25 1_555 1_555
C26 H17 1_555 1_555
C27 C26 1_555 1_555
C28 C27 1_555 1_555
H18 C28 1_555 1_555
C29 C28 1_555 1_555
C30 C29 1_555 1_555
H19 C30 1_555 1_555
C31 C30 1_555 1_555
H20 C31 1_555 1_555
C32 C27 1_555 1_555
C33 H21 1_555 1_555
H22 C33 1_555 1_555
H23 C33 1_555 1_555
C34 H24 1_555 1_555
H25 C34 1_555 1_555
H26 C34 1_555 1_555
N1 C19 1_555 1_555
N2 C21 1_555 1_555
H27 N2 1_555 1_555
N3 C23 1_555 1_555
H28 N3 1_555 1_555
N4 C25 1_555 1_555
O1 C1 1_555 1_555
O2 Mn2 1_555 1_555
O3 C1 1_555 1_555
O4 C2 1_555 1_555
O5 C3 1_555 1_555
O6 Mn1 1_555 1_555
O7 C3 1_555 1_555
O8 C4 1_555 1_555
O9 C5 1_555 1_555
O10 Cr1 1_555 1_555
O11 C5 1_555 1_555
O12 C6 1_555 1_555
O13 C7 1_555 1_555
O14 Mn1 1_555 1_555
O15 C7 1_555 1_555
O16 C8 1_555 1_555
O17 C9 1_555 1_555
O18 Cr2 1_555 1_555
O19 C9 1_555 1_555
O20 C10 1_555 1_555
O21 C11 1_555 1_555
O22 Mn2 1_555 1_555
O23 C11 1_555 1_555
O24 C12 1_555 1_555
O25 C13 1_555 1_555
O26 C32 1_555 1_555
O27 C16 1_555 1_555
O28 C29 1_555 1_555
Cr1 O3 1_555 1_555
Cr2 O17 1_555 1_555
Mn1 O5 1_555 1_555
Mn2 O1 1_555 1_555
Fe1 N1 1_555 1_555
Fe2 O29 1_555 1_555
O29 C35 1_555 1_555
O30 Fe2 1_555 1_555
O31 C38 1_555 1_555
O32 C51 1_555 1_555
N5 Fe2 1_555 1_555
N6 Fe2 1_555 1_555
H29 N6 1_555 1_555
N7 Fe2 1_555 1_555
H30 N7 1_555 1_555
N8 Fe2 1_555 1_555
C35 C36 1_555 1_555
C36 H31 1_555 1_555
C37 C36 1_555 1_555
H32 C37 1_555 1_555
C38 C37 1_555 1_555
C39 C38 1_555 1_555
H33 C39 1_555 1_555
C40 C35 1_555 1_555
C41 N5 1_555 1_555
H34 C41 1_555 1_555
C42 N5 1_555 1_555
H35 C42 1_555 1_555
H36 C42 1_555 1_555
C43 N6 1_555 1_555
H37 C43 1_555 1_555
H38 C43 1_555 1_555
C44 N6 1_555 1_555
H39 C44 1_555 1_555
H40 C44 1_555 1_555
C45 N7 1_555 1_555
H41 C45 1_555 1_555
H42 C45 1_555 1_555
C46 N7 1_555 1_555
H43 C46 1_555 1_555
H44 C46 1_555 1_555
C47 N8 1_555 1_555
H45 C47 1_555 1_555
H46 C47 1_555 1_555
C48 N8 1_555 1_555
H47 C48 1_555 1_555
C49 C48 1_555 1_555
C50 C49 1_555 1_555
H48 C50 1_555 1_555
C51 C50 1_555 1_555
C52 C51 1_555 1_555
H49 C52 1_555 1_555
C53 C52 1_555 1_555
H50 C53 1_555 1_555
C54 O30 1_555 1_555
C55 O31 1_555 1_555
H51 C55 1_555 1_555
H52 C55 1_555 1_555
H53 C55 1_555 1_555
C56 O32 1_555 1_555
H54 C56 1_555 1_555
H55 C56 1_555 1_555
H56 C56 1_555 1_555
O11A Mn1 1_555 1_555
O12A Mn1 1_555 1_555
O15C Cr2 1_555 1_555
O16C Cr2 1_555 1_555
O23A Cr2 1_555 1_555
O24A Cr2 1_555 1_555
Cr2A O23 1_555 1_555
Cr2C O15 1_555 1_555
Mn1A O11 1_555 1_555
C17 C18 1_555 1_555
C20 N1 1_555 1_555
C22 N2 1_555 1_555
C24 N3 1_555 1_555
C26 N4 1_555 1_555
C31 C32 1_555 1_555
C33 O27 1_555 1_555
C34 O28 1_555 1_555
N2 Fe1 1_555 1_555
N3 Fe1 1_555 1_555
N4 Fe1 1_555 1_555
O4 Cr1 1_555 1_555
O7 Cr1 1_555 1_555
O8 Cr1 1_555 1_555
O9 Cr1 1_555 1_555
O12 Mn1A 1_555 1_555
O13 Mn1 1_555 1_555
O16 Cr2C 1_555 1_555
O19 Mn2 1_555 1_555
O20 Mn2 1_555 1_555
O21 Mn2 1_555 1_555
O24 Cr2A 1_555 1_555
O25 Fe1 1_555 1_555
O26 Fe1 1_555 1_555
C39 C40 1_555 1_555
C40 C41 1_555 1_555
C42 C43 1_555 1_555
C44 C45 1_555 1_555
C46 C47 1_555 1_555
C49 C54 1_555 1_555
C53 C54 1_555 1_555

#END
