
#######################################################################
#
#                 Cambridge Crystallographic Data Centre
#                                CCDC 
#
#######################################################################
#
# If this CIF has been generated from an entry in the Cambridge 
# Structural Database, then it will include bibliographic, chemical, 
# crystal, experimental, refinement or atomic coordinate data resulting 
# from the CCDC's data processing and validation procedures.
#
#######################################################################

data_CUMLUT
_chemical_formula_moiety         '(C11 H13 Cd1 N1 O7)n'
_symmetry_cell_setting           monoclinic
_symmetry_space_group_name_H-M   'P 21/n'
_symmetry_Int_Tables_number      14
_space_group_name_Hall           '-P 2yn'
loop_
_symmetry_equiv_pos_site_id
_symmetry_equiv_pos_as_xyz
1 x,y,z
2 1/2-x,1/2+y,1/2-z
3 -x,-y,-z
4 1/2+x,1/2-y,1/2+z
_cell_length_a                   10.2117(10)
_cell_length_b                   13.870(3)
_cell_length_c                   12.3107(15)
_cell_angle_alpha                90
_cell_angle_beta                 90.198(12)
_cell_angle_gamma                90
_cell_volume                     1743.63
loop_
_atom_site_label
_atom_site_type_symbol
_atom_site_fract_x
_atom_site_fract_y
_atom_site_fract_z
Cd1 Cd 2.14715(5) 0.43769(4) 0.92096(4)
C1 C 1.6476(8) 0.2936(6) 0.6554(6)
C2 C 1.5281(7) 0.3225(6) 0.6976(7)
H1 H 1.4513 0.3001 0.6657
C3 C 1.5202(8) 0.3848(6) 0.7875(7)
C4 C 1.6381(7) 0.4189(5) 0.8324(7)
H2 H 1.6362 0.4602 0.8919
C5 C 1.7561(7) 0.3915(6) 0.7889(7)
C6 C 1.7609(8) 0.3294(6) 0.7014(7)
H3 H 1.8416 0.3114 0.6732
C7 C 1.6546(9) 0.2213(6) 0.5651(7)
C8 C 1.3911(7) 0.4117(6) 0.8321(7)
C9 C 1.8856(8) 0.4244(6) 0.8408(7)
O1 O 2.1360(6) 0.5926(5) 0.8503(6)
H4 H 2.0805 0.6058 0.7954
H5 H 2.1872 0.6394 0.8779
O2 O 1.7619(7) 0.1920(6) 0.5341(7)
O3 O 1.5499(6) 0.1891(5) 0.5255(5)
O4 O 1.2932(6) 0.3741(6) 0.7919(6)
O5 O 1.3859(6) 0.4702(4) 0.9080(5)
O6 O 1.8822(6) 0.4771(5) 0.9211(5)
O7 O 1.9904(5) 0.3946(5) 0.7973(5)
Cd1_2 Cd 1.14715(5) 0.43769(4) 0.92096(4)
Cd1B Cd 1.85285(5) 0.56231(4) 1.07904(4)
Cd1C Cd 1.64715(5) 0.06231(4) 0.42096(4)
O2C O 2.2619(7) 0.3080(6) 1.0341(7)
O3C O 2.0499(6) 0.3109(5) 1.0255(5)
O4_2 O 2.2932(6) 0.3741(6) 0.7919(6)
O5_2 O 2.3859(6) 0.4702(4) 0.9080(5)
O6B O 2.1178(6) 0.5229(5) 1.0789(5)
C10 C 1.952(4) 0.8358(17) 0.2517(13)
H6 H 1.9963 0.8833 0.2085
H7 H 1.8591 0.8451 0.2458
H8 H 1.9744 0.7725 0.2262
C11 C 1.903(2) 0.7706(19) 0.418(2)
H9 H 1.9171 0.7612 0.4942
H10 H 1.9177 0.7111 0.3801
H11 H 1.8141 0.7912 0.4057
N1 N 1.9961(10) 0.8468(7) 0.3761(10)
H12 H 2.0807 0.8313 0.3870
H13 H 1.9793 0.9058 0.4031
loop_
_geom_bond_atom_site_label_1
_geom_bond_atom_site_label_2
_geom_bond_site_symmetry_1
_geom_bond_site_symmetry_2
Cd1 O1 1_555 1_555
C1 C2 1_555 1_555
C2 H1 1_555 1_555
C3 C2 1_555 1_555
C4 C3 1_555 1_555
H2 C4 1_555 1_555
C5 C4 1_555 1_555
C6 C1 1_555 1_555
H3 C6 1_555 1_555
C7 C1 1_555 1_555
C8 C3 1_555 1_555
C9 C5 1_555 1_555
O1 H4 1_555 1_555
H5 O1 1_555 1_555
O2 C7 1_555 1_555
O3 C7 1_555 1_555
O4 C8 1_555 1_555
O5 C8 1_555 1_555
O6 Cd1 1_555 1_555
O7 Cd1 1_555 1_555
C10 H6 1_555 1_555
H7 C10 1_555 1_555
H8 C10 1_555 1_555
C11 H9 1_555 1_555
H10 C11 1_555 1_555
H11 C11 1_555 1_555
N1 C10 1_555 1_555
H12 N1 1_555 1_555
H13 N1 1_555 1_555
Cd1_2 O4 1_555 1_555
Cd1B O6 1_555 1_555
Cd1C O2 1_555 1_555
O2C Cd1 1_555 1_555
O3C Cd1 1_555 1_555
O4_2 Cd1 1_555 1_555
O5_2 Cd1 1_555 1_555
O6B Cd1 1_555 1_555
C5 C6 1_555 1_555
C9 O6 1_555 1_555
C9 O7 1_555 1_555
O3 Cd1C 1_555 1_555
O5 Cd1_2 1_555 1_555
C11 N1 1_555 1_555
Cd1B O6B 1_555 1_555

#END
