
#######################################################################
#
#                 Cambridge Crystallographic Data Centre
#                                CCDC 
#
#######################################################################
#
# If this CIF has been generated from an entry in the Cambridge 
# Structural Database, then it will include bibliographic, chemical, 
# crystal, experimental, refinement or atomic coordinate data resulting 
# from the CCDC's data processing and validation procedures.
#
#######################################################################

data_JOZWIG
_chemical_formula_moiety         'C264 H180 N12 O61 Zr25'
_symmetry_cell_setting           cubic
_symmetry_space_group_name_H-M   'P m -3 m'
_symmetry_Int_Tables_number      221
_space_group_name_Hall           '-P 4 2 3'
loop_
_symmetry_equiv_pos_site_id
_symmetry_equiv_pos_as_xyz
1 x,y,z
2 -x,-y,z
3 -x,y,-z
4 x,-y,-z
5 z,x,y
6 z,-x,-y
7 -z,-x,y
8 -z,x,-y
9 y,z,x
10 -y,z,-x
11 y,-z,-x
12 -y,-z,x
13 y,x,-z
14 -y,-x,-z
15 y,-x,z
16 -y,x,z
17 x,z,-y
18 -x,z,y
19 -x,-z,-y
20 x,-z,y
21 z,y,-x
22 z,-y,x
23 -z,y,x
24 -z,-y,-x
25 -x,-y,-z
26 x,y,-z
27 x,-y,z
28 -x,y,z
29 -z,-x,-y
30 -z,x,y
31 z,x,-y
32 z,-x,y
33 -y,-z,-x
34 y,-z,x
35 -y,z,x
36 y,z,-x
37 -y,-x,z
38 y,x,z
39 -y,x,-z
40 y,-x,-z
41 -x,-z,y
42 x,-z,-y
43 x,z,y
44 -x,z,-y
45 -z,-y,x
46 -z,y,-x
47 z,-y,-x
48 z,y,x
_cell_length_a                   25.402(4)
_cell_length_b                   25.402(4)
_cell_length_c                   25.402(4)
_cell_angle_alpha                90
_cell_angle_beta                 90
_cell_angle_gamma                90
_cell_volume                     16390.9
loop_
_atom_site_label
_atom_site_type_symbol
_atom_site_fract_x
_atom_site_fract_y
_atom_site_fract_z
Zr1 Zr -0.0000 -0.0000 0.09762(5)
O1 O 0.0488(3) 0.0488(3) 0.0488(3)
O2 O -0.0000 0.07655(18) 0.13993(19)
C1 C 0.0000 0.1240(3) 0.1240(3)
C2 C -0.0000 0.1660(3) 0.1660(3)
C3 C -0.0000 0.1524(4) 0.2166(3)
H1 H -0.0000 0.1171 0.2262
C4 C -0.0000 0.1918(4) 0.2555(4)
H2 H -0.0000 0.1822 0.2908
C5 C -0.0000 0.2427(4) 0.2427(4)
C6 C -0.0000 0.2833(5) 0.2833(5)
C7 C 0.0370(6) 0.2830(4) 0.3223(4)
H3 H 0.0628 0.2555 0.3218
C8 C 0.0401(6) 0.3247(4) 0.3621(5)
H4 H 0.0679 0.3255 0.3877
C9 C 0.0000 0.3629(4) 0.3629(4)
C10 C -0.0000 0.4044(4) 0.4044(4)
C11 C -0.0000 0.3875(4) 0.4556(4)
N1 N -0.0000 0.4188(5) 0.5000
C12 C -0.0000 0.3344(5) 0.4726(4)
H5 H -0.0000 0.3048 0.4510
H6 H 0.0000 0.4527 0.5000
O2B O -0.0000 0.07655(18) 0.86007(19)
C1B C -0.0000 0.1240(3) 0.8760(3)
C2B C -0.0000 0.1660(3) 0.8340(3)
C3B C -0.0000 0.1524(4) 0.7834(3)
H1B H -0.0000 0.1171 0.7738
C4B C -0.0000 0.1918(4) 0.7445(4)
H2B H -0.0000 0.1822 0.7092
C5B C -0.0000 0.2427(4) 0.7573(4)
C6B C -0.0000 0.2833(5) 0.7167(5)
C7B C -0.0370(6) 0.2830(4) 0.6777(4)
H3B H -0.0628 0.2555 0.6782
C8B C -0.0401(6) 0.3247(4) 0.6379(5)
H4B H -0.0679 0.3255 0.6123
C9B C -0.0000 0.3629(4) 0.6371(4)
C10B C -0.0000 0.4044(4) 0.5956(4)
C11B C -0.0000 0.3875(4) 0.5444(4)
C12B C -0.0000 0.3344(5) 0.5274(4)
H5B H -0.0000 0.3048 0.5490
O2P O -0.0000 0.13993(19) 0.92345(18)
C3P C -0.0000 0.2166(3) 0.8476(4)
H1P H -0.0000 0.2262 0.8829
C4P C -0.0000 0.2555(4) 0.8082(4)
H2P H -0.0000 0.2908 0.8178
C7P C 0.0370(6) 0.3223(4) 0.7170(4)
H3P H 0.0628 0.3218 0.7445
C8P C 0.0401(6) 0.3621(5) 0.6753(4)
H4P H 0.0679 0.3877 0.6745
C11P C -0.0000 0.4556(4) 0.6125(4)
N1P N -0.0000 0.5000 0.5812(5)
C12P C -0.0000 0.4726(4) 0.6656(5)
H5P H -0.0000 0.4510 0.6952
H6P H -0.0000 0.5000 0.5473
O2Q O -0.0000 0.13993(19) 0.07655(18)
C3Q C -0.0000 0.2166(3) 0.1524(4)
H1Q H -0.0000 0.2262 0.1171
C4Q C -0.0000 0.2555(4) 0.1918(4)
H2Q H -0.0000 0.2908 0.1822
C7Q C -0.0370(6) 0.3223(4) 0.2830(4)
H3Q H -0.0628 0.3218 0.2555
C8Q C -0.0401(6) 0.3621(5) 0.3247(4)
H4Q H -0.0679 0.3877 0.3255
C11Q C -0.0000 0.4556(4) 0.3875(4)
N1Q N -0.0000 0.5000 0.4188(5)
C12Q C -0.0000 0.4726(4) 0.3344(5)
H5Q H -0.0000 0.4510 0.3048
H6Q H 0.0000 0.5000 0.4527
O2R O -0.0000 0.86007(19) 0.92345(18)
C1C C -0.0000 0.8760(3) 0.8760(3)
C2C C -0.0000 0.8340(3) 0.8340(3)
C3R C -0.0000 0.7834(3) 0.8476(4)
H1R H -0.0000 0.7738 0.8829
C4R C -0.0000 0.7445(4) 0.8082(4)
H2R H -0.0000 0.7092 0.8178
C5C C -0.0000 0.7573(4) 0.7573(4)
C6C C -0.0000 0.7167(5) 0.7167(5)
C7R C -0.0370(6) 0.6777(4) 0.7170(4)
H3R H -0.0628 0.6782 0.7445
C8R C -0.0401(6) 0.6379(5) 0.6753(4)
H4R H -0.0679 0.6123 0.6745
C9C C -0.0000 0.6371(4) 0.6371(4)
C10C C -0.0000 0.5956(4) 0.5956(4)
C11R C -0.0000 0.5444(4) 0.6125(4)
C12R C -0.0000 0.5274(4) 0.6656(5)
H5R H 0.0000 0.5490 0.6952
O2S O -0.0000 0.86007(19) 0.07655(18)
C1A C -0.0000 0.8760(3) 0.1240(3)
C2A C -0.0000 0.8340(3) 0.1660(3)
C3S C -0.0000 0.7834(3) 0.1524(4)
H1S H -0.0000 0.7738 0.1171
C4S C -0.0000 0.7445(4) 0.1918(4)
H2S H -0.0000 0.7092 0.1822
C5A C -0.0000 0.7573(4) 0.2427(4)
C6A C -0.0000 0.7167(5) 0.2833(5)
C7S C 0.0370(6) 0.6777(4) 0.2830(4)
H3S H 0.0628 0.6782 0.2555
C8S C 0.0401(6) 0.6379(5) 0.3247(4)
H4S H 0.0679 0.6123 0.3255
C9A C -0.0000 0.6371(4) 0.3629(4)
C10A C -0.0000 0.5956(4) 0.4044(4)
C11S C -0.0000 0.5444(4) 0.3875(4)
C12S C -0.0000 0.5274(4) 0.3344(5)
H5S H -0.0000 0.5490 0.3048
C7Y C 0.0370(6) 0.2830(4) 0.6777(4)
H3Y H 0.0628 0.2555 0.6782
C8Y C 0.0401(6) 0.3247(4) 0.6379(5)
H4Y H 0.0679 0.3255 0.6123
C7AA C -0.0370(6) 0.2830(4) 0.3223(4)
H3AA H -0.0628 0.2555 0.3218
C8AA C -0.0401(6) 0.3247(4) 0.3621(5)
H4AA H -0.0679 0.3255 0.3877
C7NA C -0.0370(6) 0.6777(4) 0.2830(4)
H3NA H -0.0628 0.6782 0.2555
C8NA C -0.0401(6) 0.6379(5) 0.3247(4)
H4NA H -0.0679 0.6123 0.3255
C7OA C 0.0370(6) 0.6777(4) 0.7170(4)
H3OA H 0.0628 0.6782 0.7445
C8OA C 0.0401(6) 0.6379(5) 0.6753(4)
H4OA H 0.0679 0.6123 0.6745
C7PA C 0.0370(6) 0.3223(4) 0.2830(4)
H3PA H 0.0628 0.3218 0.2555
C8PA C 0.0401(6) 0.3621(5) 0.3247(4)
H4PA H 0.0679 0.3877 0.3255
C7QA C -0.0370(6) 0.3223(4) 0.7170(4)
H3QA H -0.0628 0.3218 0.7445
C8QA C -0.0401(6) 0.3621(5) 0.6753(4)
H4QA H -0.0679 0.3877 0.6745
O2A O -0.0000 0.92345(18) 0.13993(19)
C3A C -0.0000 0.8476(4) 0.2166(3)
H1A H -0.0000 0.8829 0.2262
C4A C -0.0000 0.8082(4) 0.2555(4)
H2A H -0.0000 0.8178 0.2908
C7A C -0.0370(6) 0.7170(4) 0.3223(4)
H3A H -0.0628 0.7445 0.3218
C8A C -0.0401(6) 0.6753(4) 0.3621(5)
H4A H -0.0679 0.6745 0.3877
C11A C -0.0000 0.6125(4) 0.4556(4)
N1A N -0.0000 0.5812(5) 0.5000
C12A C -0.0000 0.6656(5) 0.4726(4)
H5A H -0.0000 0.6952 0.4510
H6A H -0.0000 0.5473 0.5000
O2C O -0.0000 0.92345(18) 0.86007(19)
C3C C -0.0000 0.8476(4) 0.7834(3)
H1C H -0.0000 0.8829 0.7738
C4C C -0.0000 0.8082(4) 0.7445(4)
H2C H -0.0000 0.8178 0.7092
C7C C 0.0370(6) 0.7170(4) 0.6777(4)
H3C H 0.0628 0.7445 0.6782
C8C C 0.0401(6) 0.6753(4) 0.6379(5)
H4C H 0.0679 0.6745 0.6123
C11C C -0.0000 0.6125(4) 0.5444(4)
C12C C -0.0000 0.6656(5) 0.5274(4)
H5C H 0.0000 0.6952 0.5490
C7X C -0.0370(6) 0.7170(4) 0.6777(4)
H3X H -0.0628 0.7445 0.6782
C8X C -0.0401(6) 0.6753(4) 0.6379(5)
H4X H -0.0679 0.6745 0.6123
C7Z C 0.0370(6) 0.7170(4) 0.3223(4)
H3Z H 0.0628 0.7445 0.3218
C8Z C 0.0401(6) 0.6753(4) 0.3621(5)
H4Z H 0.0679 0.6745 0.3877
O1A O -0.0488(3) -0.0488(3) 0.0488(3)
O2A_2 O -0.0000 -0.07655(18) 0.13993(19)
C1A_2 C 0.0000 -0.1240(3) 0.1240(3)
C2A_2 C 0.0000 -0.1660(3) 0.1660(3)
C3A_2 C 0.0000 -0.1524(4) 0.2166(3)
H1A_2 H -0.0000 -0.1171 0.2262
C4A_2 C -0.0000 -0.1918(4) 0.2555(4)
H2A_2 H -0.0000 -0.1822 0.2908
C5A_2 C 0.0000 -0.2427(4) 0.2427(4)
C6A_2 C 0.0000 -0.2833(5) 0.2833(5)
C7A_2 C -0.0370(6) -0.2830(4) 0.3223(4)
H3A_2 H -0.0628 -0.2555 0.3218
C8A_2 C -0.0401(6) -0.3247(4) 0.3621(5)
H4A_2 H -0.0679 -0.3255 0.3877
C9A_2 C 0.0000 -0.3629(4) 0.3629(4)
C10A_2 C 0.0000 -0.4044(4) 0.4044(4)
C11A_2 C 0.0000 -0.3875(4) 0.4556(4)
N1A_2 N 0.0000 -0.4188(5) 0.5000
C12A_2 C 0.0000 -0.3344(5) 0.4726(4)
H5A_2 H -0.0000 -0.3048 0.4510
H6A_2 H 0.0000 -0.4527 0.5000
O2C_2 O -0.0000 -0.07655(18) 0.86007(19)
C1C_2 C -0.0000 -0.1240(3) 0.8760(3)
C2C_2 C -0.0000 -0.1660(3) 0.8340(3)
C3C_2 C -0.0000 -0.1524(4) 0.7834(3)
H1C_2 H -0.0000 -0.1171 0.7738
C4C_2 C 0.0000 -0.1918(4) 0.7445(4)
H2C_2 H -0.0000 -0.1822 0.7092
C5C_2 C -0.0000 -0.2427(4) 0.7573(4)
C6C_2 C -0.0000 -0.2833(5) 0.7167(5)
C7C_2 C 0.0370(6) -0.2830(4) 0.6777(4)
H3C_2 H 0.0628 -0.2555 0.6782
C8C_2 C 0.0401(6) -0.3247(4) 0.6379(5)
H4C_2 H 0.0679 -0.3255 0.6123
C9C_2 C -0.0000 -0.3629(4) 0.6371(4)
C10C_2 C -0.0000 -0.4044(4) 0.5956(4)
C11C_2 C 0.0000 -0.3875(4) 0.5444(4)
C12C_2 C 0.0000 -0.3344(5) 0.5274(4)
H5C_2 H 0.0000 -0.3048 0.5490
O2R_2 O -0.0000 -0.13993(19) 0.92345(18)
C3R_2 C -0.0000 -0.2166(3) 0.8476(4)
H1R_2 H -0.0000 -0.2262 0.8829
C4R_2 C -0.0000 -0.2555(4) 0.8082(4)
H2R_2 H -0.0000 -0.2908 0.8178
C7R_2 C -0.0370(6) -0.3223(4) 0.7170(4)
H3R_2 H -0.0628 -0.3218 0.7445
C8R_2 C -0.0401(6) -0.3621(5) 0.6753(4)
H4R_2 H -0.0679 -0.3877 0.6745
C11R_2 C -0.0000 -0.4556(4) 0.6125(4)
N1P_2 N 0.0000 -0.5000 0.5812(5)
C12R_2 C -0.0000 -0.4726(4) 0.6656(5)
H5R_2 H 0.0000 -0.4510 0.6952
H6P_2 H -0.0000 -0.5000 0.5473
O2S_2 O 0.0000 -0.13993(19) 0.07655(18)
C3S_2 C 0.0000 -0.2166(3) 0.1524(4)
H1S_2 H 0.0000 -0.2262 0.1171
C4S_2 C 0.0000 -0.2555(4) 0.1918(4)
H2S_2 H 0.0000 -0.2908 0.1822
C7S_2 C 0.0370(6) -0.3223(4) 0.2830(4)
H3S_2 H 0.0628 -0.3218 0.2555
C8S_2 C 0.0401(6) -0.3621(5) 0.3247(4)
H4S_2 H 0.0679 -0.3877 0.3255
C11S_2 C 0.0000 -0.4556(4) 0.3875(4)
N1Q_2 N 0.0000 -0.5000 0.4188(5)
C12S_2 C -0.0000 -0.4726(4) 0.3344(5)
H5S_2 H 0.0000 -0.4510 0.3048
H6Q_2 H -0.0000 -0.5000 0.4527
O2P_2 O 0.0000 -0.86007(19) 0.92345(18)
C1B_2 C 0.0000 -0.8760(3) 0.8760(3)
C2B_2 C 0.0000 -0.8340(3) 0.8340(3)
C3P_2 C -0.0000 -0.7834(3) 0.8476(4)
H1P_2 H 0.0000 -0.7738 0.8829
C4P_2 C -0.0000 -0.7445(4) 0.8082(4)
H2P_2 H 0.0000 -0.7092 0.8178
C5B_2 C 0.0000 -0.7573(4) 0.7573(4)
C6B_2 C 0.0000 -0.7167(5) 0.7167(5)
C7P_2 C 0.0370(6) -0.6777(4) 0.7170(4)
H3P_2 H 0.0628 -0.6782 0.7445
C8P_2 C 0.0401(6) -0.6379(5) 0.6753(4)
H4P_2 H 0.0679 -0.6123 0.6745
C9B_2 C 0.0000 -0.6371(4) 0.6371(4)
C10B_2 C -0.0000 -0.5956(4) 0.5956(4)
C11P_2 C -0.0000 -0.5444(4) 0.6125(4)
C12P_2 C -0.0000 -0.5274(4) 0.6656(5)
H5P_2 H 0.0000 -0.5490 0.6952
O2Q_2 O 0.0000 -0.86007(19) 0.07655(18)
C1_2 C 0.0000 -0.8760(3) 0.1240(3)
C2_2 C 0.0000 -0.8340(3) 0.1660(3)
C3Q_2 C 0.0000 -0.7834(3) 0.1524(4)
H1Q_2 H 0.0000 -0.7738 0.1171
C4Q_2 C 0.0000 -0.7445(4) 0.1918(4)
H2Q_2 H 0.0000 -0.7092 0.1822
C5_2 C 0.0000 -0.7573(4) 0.2427(4)
C6_2 C 0.0000 -0.7167(5) 0.2833(5)
C7Q_2 C -0.0370(6) -0.6777(4) 0.2830(4)
H3Q_2 H -0.0628 -0.6782 0.2555
C8Q_2 C -0.0401(6) -0.6379(5) 0.3247(4)
H4Q_2 H -0.0679 -0.6123 0.3255
C9_2 C 0.0000 -0.6371(4) 0.3629(4)
C10_2 C 0.0000 -0.5956(4) 0.4044(4)
C11Q_2 C 0.0000 -0.5444(4) 0.3875(4)
C12Q_2 C -0.0000 -0.5274(4) 0.3344(5)
H5Q_2 H 0.0000 -0.5490 0.3048
C7X_2 C -0.0370(6) -0.2830(4) 0.6777(4)
H3X_2 H -0.0628 -0.2555 0.6782
C8X_2 C -0.0401(6) -0.3247(4) 0.6379(5)
H4X_2 H -0.0679 -0.3255 0.6123
C7Z_2 C 0.0370(6) -0.2830(4) 0.3223(4)
H3Z_2 H 0.0628 -0.2555 0.3218
C8Z_2 C 0.0401(6) -0.3247(4) 0.3621(5)
H4Z_2 H 0.0679 -0.3255 0.3877
C7PA_2 C 0.0370(6) -0.6777(4) 0.2830(4)
H3PA_2 H 0.0628 -0.6782 0.2555
C8PA_2 C 0.0401(6) -0.6379(5) 0.3247(4)
H4PA_2 H 0.0679 -0.6123 0.3255
C7QA_2 C -0.0370(6) -0.6777(4) 0.7170(4)
H3QA_2 H -0.0628 -0.6782 0.7445
C8QA_2 C -0.0401(6) -0.6379(5) 0.6753(4)
H4QA_2 H -0.0679 -0.6123 0.6745
C7NA_2 C -0.0370(6) -0.3223(4) 0.2830(4)
H3NA_2 H -0.0628 -0.3218 0.2555
C8NA_2 C -0.0401(6) -0.3621(5) 0.3247(4)
H4NA_2 H -0.0679 -0.3877 0.3255
C7OA_2 C 0.0370(6) -0.3223(4) 0.7170(4)
H3OA_2 H 0.0628 -0.3218 0.7445
C8OA_2 C 0.0401(6) -0.3621(5) 0.6753(4)
H4OA_2 H 0.0679 -0.3877 0.6745
O2_2 O 0.0000 -0.92345(18) 0.13993(19)
C3_2 C 0.0000 -0.8476(4) 0.2166(3)
H1_2 H 0.0000 -0.8829 0.2262
C4_2 C 0.0000 -0.8082(4) 0.2555(4)
H2_2 H 0.0000 -0.8178 0.2908
C7_2 C 0.0370(6) -0.7170(4) 0.3223(4)
H3_2 H 0.0628 -0.7445 0.3218
C8_2 C 0.0401(6) -0.6753(4) 0.3621(5)
H4_2 H 0.0679 -0.6745 0.3877
C11_2 C 0.0000 -0.6125(4) 0.4556(4)
N1_2 N 0.0000 -0.5812(5) 0.5000
C12_2 C 0.0000 -0.6656(5) 0.4726(4)
H5_2 H -0.0000 -0.6952 0.4510
H6_2 H 0.0000 -0.5473 0.5000
O2B_2 O 0.0000 -0.92345(18) 0.86007(19)
C3B_2 C 0.0000 -0.8476(4) 0.7834(3)
H1B_2 H -0.0000 -0.8829 0.7738
C4B_2 C 0.0000 -0.8082(4) 0.7445(4)
H2B_2 H 0.0000 -0.8178 0.7092
C7B_2 C -0.0370(6) -0.7170(4) 0.6777(4)
H3B_2 H -0.0628 -0.7445 0.6782
C8B_2 C -0.0401(6) -0.6753(4) 0.6379(5)
H4B_2 H -0.0679 -0.6745 0.6123
C11B_2 C 0.0000 -0.6125(4) 0.5444(4)
C12B_2 C 0.0000 -0.6656(5) 0.5274(4)
H5B_2 H -0.0000 -0.6952 0.5490
C7Y_2 C 0.0370(6) -0.7170(4) 0.6777(4)
H3Y_2 H 0.0628 -0.7445 0.6782
C8Y_2 C 0.0401(6) -0.6753(4) 0.6379(5)
H4Y_2 H 0.0679 -0.6745 0.6123
C7AA_2 C -0.0370(6) -0.7170(4) 0.3223(4)
H3AA_2 H -0.0628 -0.7445 0.3218
C8AA_2 C -0.0401(6) -0.6753(4) 0.3621(5)
H4AA_2 H -0.0679 -0.6745 0.3877
Zr1_2 Zr 0.0000 1.0000 0.09762(5)
O1A_2 O -0.0488(3) 0.9512(3) 0.0488(3)
Zr1B Zr -0.0000 -0.0000 0.90238(5)
O1B O -0.0488(3) 0.0488(3) 0.9512(3)
O1C O 0.0488(3) -0.0488(3) 0.9512(3)
Zr1B_2 Zr -0.0000 1.0000 0.90238(5)
O1C_2 O 0.0488(3) 0.9512(3) 0.9512(3)
Zr1D Zr -0.90238(5) 1.0000 0.0000
O2D O -0.86007(19) 1.0000 0.07655(18)
C1D C -0.8760(3) 1.0000 0.1240(3)
C2D C -0.8340(3) 1.0000 0.1660(3)
C3D C -0.7834(3) 1.0000 0.1524(4)
H1D H -0.7738 1.0000 0.1171
C4D C -0.7445(4) 1.0000 0.1918(4)
H2D H -0.7092 1.0000 0.1822
C5D C -0.7573(4) 1.0000 0.2427(4)
C6D C -0.7167(5) 1.0000 0.2833(5)
C7D C -0.6777(4) 1.0370(6) 0.2830(4)
H3D H -0.6782 1.0628 0.2555
C8D C -0.6379(5) 1.0401(6) 0.3247(4)
H4D H -0.6123 1.0679 0.3255
C9D C -0.6371(4) 1.0000 0.3629(4)
C10D C -0.5956(4) 1.0000 0.4044(4)
C11D C -0.5444(4) 1.0000 0.3875(4)
N1D N -0.5000 1.0000 0.4188(5)
C12D C -0.5274(4) 1.0000 0.3344(5)
H5D H -0.5490 1.0000 0.3048
H6D H -0.5000 1.0000 0.4527
O2F O -0.13993(19) 1.0000 0.07655(18)
C1F C -0.1240(3) 1.0000 0.1240(3)
C2F C -0.1660(3) 1.0000 0.1660(3)
C3F C -0.2166(3) 1.0000 0.1524(4)
H1F H -0.2262 1.0000 0.1171
C4F C -0.2555(4) 1.0000 0.1918(4)
H2F H -0.2908 1.0000 0.1822
C5F C -0.2427(4) 1.0000 0.2427(4)
C6F C -0.2833(5) 1.0000 0.2833(5)
C7F C -0.3223(4) 0.9630(6) 0.2830(4)
H3F H -0.3218 0.9372 0.2555
C8F C -0.3621(5) 0.9599(6) 0.3247(4)
H4F H -0.3877 0.9321 0.3255
C9F C -0.3629(4) 1.0000 0.3629(4)
C10F C -0.4044(4) 1.0000 0.4044(4)
C11F C -0.4556(4) 1.0000 0.3875(4)
C12F C -0.4726(4) 1.0000 0.3344(5)
H5F H -0.4510 1.0000 0.3048
O2O O -0.07655(18) 1.0000 0.13993(19)
C3O C -0.1524(4) 1.0000 0.2166(3)
H1O H -0.1171 1.0000 0.2262
C4O C -0.1918(4) 1.0000 0.2555(4)
H2O H -0.1822 1.0000 0.2908
C7O C -0.2830(4) 1.0370(6) 0.3223(4)
H3O H -0.2555 1.0628 0.3218
C8O C -0.3247(4) 1.0401(6) 0.3621(5)
H4O H -0.3255 1.0679 0.3877
C11O C -0.3875(4) 1.0000 0.4556(4)
N1M N -0.4188(5) 1.0000 0.5000
C12O C -0.3344(5) 1.0000 0.4726(4)
H5O H -0.3048 1.0000 0.4510
H6M H -0.4527 1.0000 0.5000
O2N O -0.92345(18) 1.0000 0.13993(19)
C3N C -0.8476(4) 1.0000 0.2166(3)
H1N H -0.8829 1.0000 0.2262
C4N C -0.8082(4) 1.0000 0.2555(4)
H2N H -0.8178 1.0000 0.2908
C7N C -0.7170(4) 0.9630(6) 0.3223(4)
H3N H -0.7445 0.9372 0.3218
C8N C -0.6753(4) 0.9599(6) 0.3621(5)
H4N H -0.6745 0.9321 0.3877
C11N C -0.6125(4) 1.0000 0.4556(4)
N1L N -0.5812(5) 1.0000 0.5000
C12N C -0.6656(5) 1.0000 0.4726(4)
H5N H -0.6952 1.0000 0.4510
H6L H -0.5473 1.0000 0.5000
O2M O -0.07655(18) 1.0000 0.86007(19)
C1G C -0.1240(3) 1.0000 0.8760(3)
C2G C -0.1660(3) 1.0000 0.8340(3)
C3M C -0.1524(4) 1.0000 0.7834(3)
H1M H -0.1171 1.0000 0.7738
C4M C -0.1918(4) 1.0000 0.7445(4)
H2M H -0.1822 1.0000 0.7092
C5G C -0.2427(4) 1.0000 0.7573(4)
C6G C -0.2833(5) 1.0000 0.7167(5)
C7M C -0.2830(4) 0.9630(6) 0.6777(4)
H3M H -0.2555 0.9372 0.6782
C8M C -0.3247(4) 0.9599(6) 0.6379(5)
H4M H -0.3255 0.9321 0.6123
C9G C -0.3629(4) 1.0000 0.6371(4)
C10G C -0.4044(4) 1.0000 0.5956(4)
C11M C -0.3875(4) 1.0000 0.5444(4)
C12M C -0.3344(5) 1.0000 0.5274(4)
H5M H -0.3048 1.0000 0.5490
O2L O -0.92345(18) 1.0000 0.86007(19)
C1E C -0.8760(3) 1.0000 0.8760(3)
C2E C -0.8340(3) 1.0000 0.8340(3)
C3L C -0.8476(4) 1.0000 0.7834(3)
H1L H -0.8829 1.0000 0.7738
C4L C -0.8082(4) 1.0000 0.7445(4)
H2L H -0.8178 1.0000 0.7092
C5E C -0.7573(4) 1.0000 0.7573(4)
C6E C -0.7167(5) 1.0000 0.7167(5)
C7L C -0.7170(4) 1.0370(6) 0.6777(4)
H3L H -0.7445 1.0628 0.6782
C8L C -0.6753(4) 1.0401(6) 0.6379(5)
H4L H -0.6745 1.0679 0.6123
C9E C -0.6371(4) 1.0000 0.6371(4)
C10E C -0.5956(4) 1.0000 0.5956(4)
C11L C -0.6125(4) 1.0000 0.5444(4)
C12L C -0.6656(5) 1.0000 0.5274(4)
H5L H -0.6952 1.0000 0.5490
C7CA C -0.3223(4) 1.0370(6) 0.2830(4)
H3CA H -0.3218 1.0628 0.2555
C8CA C -0.3621(5) 1.0401(6) 0.3247(4)
H4CA H -0.3877 1.0679 0.3255
C7EA C -0.6777(4) 0.9630(6) 0.2830(4)
H3EA H -0.6782 0.9372 0.2555
C8EA C -0.6379(5) 0.9599(6) 0.3247(4)
H4EA H -0.6123 0.9321 0.3255
C7MA C -0.7170(4) 0.9630(6) 0.6777(4)
H3MA H -0.7445 0.9372 0.6782
C8MA C -0.6753(4) 0.9599(6) 0.6379(5)
H4MA H -0.6745 0.9321 0.6123
C7LA C -0.2830(4) 1.0370(6) 0.6777(4)
H3LA H -0.2555 1.0628 0.6782
C8LA C -0.3247(4) 1.0401(6) 0.6379(5)
H4LA H -0.3255 1.0679 0.6123
C7KA C -0.7170(4) 1.0370(6) 0.3223(4)
H3KA H -0.7445 1.0628 0.3218
C8KA C -0.6753(4) 1.0401(6) 0.3621(5)
H4KA H -0.6745 1.0679 0.3877
C7JA C -0.2830(4) 0.9630(6) 0.3223(4)
H3JA H -0.2555 0.9372 0.3218
C8JA C -0.3247(4) 0.9599(6) 0.3621(5)
H4JA H -0.3255 0.9321 0.3877
O2E O -0.86007(19) 1.0000 0.92345(18)
C3E C -0.7834(3) 1.0000 0.8476(4)
H1E H -0.7738 1.0000 0.8829
C4E C -0.7445(4) 1.0000 0.8082(4)
H2E H -0.7092 1.0000 0.8178
C7E C -0.6777(4) 0.9630(6) 0.7170(4)
H3E H -0.6782 0.9372 0.7445
C8E C -0.6379(5) 0.9599(6) 0.6753(4)
H4E H -0.6123 0.9321 0.6745
C11E C -0.5444(4) 1.0000 0.6125(4)
N1E N -0.5000 1.0000 0.5812(5)
C12E C -0.5274(4) 1.0000 0.6656(5)
H5E H -0.5490 1.0000 0.6952
H6E H -0.5000 1.0000 0.5473
O2G O -0.13993(19) 1.0000 0.92345(18)
C3G C -0.2166(3) 1.0000 0.8476(4)
H1G H -0.2262 1.0000 0.8829
C4G C -0.2555(4) 1.0000 0.8082(4)
H2G H -0.2908 1.0000 0.8178
C7G C -0.3223(4) 1.0370(6) 0.7170(4)
H3G H -0.3218 1.0628 0.7445
C8G C -0.3621(5) 1.0401(6) 0.6753(4)
H4G H -0.3877 1.0679 0.6745
C11G C -0.4556(4) 1.0000 0.6125(4)
C12G C -0.4726(4) 1.0000 0.6656(5)
H5G H -0.4510 1.0000 0.6952
C7BA C -0.3223(4) 0.9630(6) 0.7170(4)
H3BA H -0.3218 0.9372 0.7445
C8BA C -0.3621(5) 0.9599(6) 0.6753(4)
H4BA H -0.3877 0.9321 0.6745
C7DA C -0.6777(4) 1.0370(6) 0.7170(4)
H3DA H -0.6782 1.0628 0.7445
C8DA C -0.6379(5) 1.0401(6) 0.6753(4)
H4DA H -0.6123 1.0679 0.6745
Zr1D_2 Zr 0.09762(5) 0.0000 0.0000
O1L O 0.0488(3) 0.0488(3) 0.9512(3)
O1O O -0.0488(3) 0.0488(3) 0.0488(3)
Zr1_3 Zr -1.0000 1.0000 0.09762(5)
Zr1_4 Zr 0.0000 -1.0000 0.09762(5)
Zr1B_3 Zr -1.0000 1.0000 0.90238(5)
Zr1B_4 Zr -0.0000 -1.0000 0.90238(5)
Zr1D_3 Zr -0.90238(5) 1.0000 1.0000
Zr1D_4 Zr 0.09762(5) 0.0000 1.0000
Zr1D_5 Zr 0.09762(5) 1.0000 1.0000
Zr1F Zr -0.09762(5) 0.0000 0.0000
Zr1F_2 Zr -0.09762(5) 0.0000 1.0000
Zr1F_3 Zr -0.09762(5) 1.0000 0.0000
Zr1F_4 Zr -0.09762(5) 1.0000 1.0000
Zr1H Zr 0.0000 -0.90238(5) 0.0000
Zr1H_2 Zr 0.0000 -0.90238(5) 1.0000
Zr1H_3 Zr -0.0000 0.09762(5) 0.0000
Zr1H_4 Zr 0.0000 0.09762(5) 1.0000
Zr1J Zr 0.0000 -0.09762(5) 0.0000
Zr1J_2 Zr 0.0000 -0.09762(5) 1.0000
Zr1J_3 Zr -0.0000 0.90238(5) 0.0000
Zr1J_4 Zr -0.0000 0.90238(5) 1.0000
O1_2 O -0.9512(3) 1.0488(3) 0.0488(3)
O1_3 O 0.0488(3) 1.0488(3) 0.0488(3)
O1B_2 O -0.0488(3) 1.0488(3) 0.9512(3)
O1C_3 O -0.9512(3) 0.9512(3) -0.0488(3)
O1C_4 O 0.0488(3) -0.0488(3) -0.0488(3)
O1L_2 O -0.9512(3) 1.0488(3) -0.0488(3)
O1L_3 O 0.0488(3) 0.0488(3) -0.0488(3)
O1L_4 O 0.0488(3) 1.0488(3) 0.9512(3)
O1M O -0.0488(3) -0.0488(3) 0.9512(3)
O1M_2 O -0.0488(3) 0.9512(3) 0.9512(3)
O1N O -0.9512(3) 0.9512(3) 0.0488(3)
O1N_2 O 0.0488(3) -0.0488(3) 0.0488(3)
O1N_3 O 0.0488(3) 0.9512(3) 0.0488(3)
O1O_2 O -0.0488(3) 1.0488(3) 0.0488(3)
O2_3 O -0.0000 1.07655(18) 0.13993(19)
O2B_3 O -0.0000 1.07655(18) 0.86007(19)
O2D_2 O 0.13993(19) -0.0000 0.07655(18)
O2E_2 O -0.86007(19) 1.0000 -0.07655(18)
O2E_3 O 0.13993(19) 0.0000 -0.07655(18)
O2L_2 O 0.07655(18) -0.0000 0.86007(19)
O2L_3 O 0.07655(18) 1.0000 0.86007(19)
O2M_2 O -0.07655(18) -0.0000 0.86007(19)
O2N_2 O 0.07655(18) -0.0000 0.13993(19)
O2N_3 O 0.07655(18) 1.0000 0.13993(19)
O2O_2 O -0.07655(18) -0.0000 0.13993(19)
O2T O -0.86007(19) 1.07655(18) 0.0000
O2T_2 O 0.13993(19) 0.07655(18) 0.0000
O2U O -0.86007(19) 0.92345(18) 0.0000
O2U_2 O 0.13993(19) -0.07655(18) 0.0000
loop_
_geom_bond_atom_site_label_1
_geom_bond_atom_site_label_2
_geom_bond_site_symmetry_1
_geom_bond_site_symmetry_2
Zr1 O1 1_555 1_555
O1 Zr1D_2 1_555 1_555
O2 Zr1 1_555 1_555
C1 O2 1_555 1_555
C2 C1 1_555 1_555
C3 C2 1_555 1_555
H1 C3 1_555 1_555
C4 C3 1_555 1_555
H2 C4 1_555 1_555
C5 C4 1_555 1_555
C6 C5 1_555 1_555
C7 C6 1_555 1_555
H3 C7 1_555 1_555
C8 C7 1_555 1_555
H4 C8 1_555 1_555
C9 C8 1_555 1_555
C10 C9 1_555 1_555
C11 C10 1_555 1_555
N1 C11 1_555 1_555
C12 C11 1_555 1_555
H5 C12 1_555 1_555
H6 N1 1_555 1_555
O2B C1B 1_555 1_555
C1B C2B 1_555 1_555
C2B C3B 1_555 1_555
C3B H1B 1_555 1_555
C4B C3B 1_555 1_555
H2B C4B 1_555 1_555
C5B C4B 1_555 1_555
C6B C5B 1_555 1_555
C7B C6B 1_555 1_555
H3B C7B 1_555 1_555
C8B C7B 1_555 1_555
H4B C8B 1_555 1_555
C9B C8B 1_555 1_555
C10B C9B 1_555 1_555
C11B N1 1_555 1_555
C12B C12 1_555 1_555
H5B C12B 1_555 1_555
O2P C1B 1_555 1_555
C3P C2B 1_555 1_555
H1P C3P 1_555 1_555
C4P C5B 1_555 1_555
H2P C4P 1_555 1_555
C7P C6B 1_555 1_555
H3P C7P 1_555 1_555
C8P C9B 1_555 1_555
H4P C8P 1_555 1_555
C11P C10B 1_555 1_555
N1P C11P 1_555 1_555
C12P C11P 1_555 1_555
H5P C12P 1_555 1_555
H6P N1P 1_555 1_555
O2Q C1 1_555 1_555
C3Q C2 1_555 1_555
H1Q C3Q 1_555 1_555
C4Q C5 1_555 1_555
H2Q C4Q 1_555 1_555
C7Q C6 1_555 1_555
H3Q C7Q 1_555 1_555
C8Q C9 1_555 1_555
H4Q C8Q 1_555 1_555
C11Q C10 1_555 1_555
N1Q C11Q 1_555 1_555
C12Q C11Q 1_555 1_555
H5Q C12Q 1_555 1_555
H6Q N1Q 1_555 1_555
O2R C1C 1_555 1_555
C1C C2C 1_555 1_555
C2C C3R 1_555 1_555
C3R H1R 1_555 1_555
C4R C3R 1_555 1_555
H2R C4R 1_555 1_555
C5C C4R 1_555 1_555
C6C C5C 1_555 1_555
C7R C6C 1_555 1_555
H3R C7R 1_555 1_555
C8R C7R 1_555 1_555
H4R C8R 1_555 1_555
C9C C8R 1_555 1_555
C10C C9C 1_555 1_555
C11R N1P 1_555 1_555
C12R C12P 1_555 1_555
H5R C12R 1_555 1_555
O2S C1A 1_555 1_555
C1A C2A 1_555 1_555
C2A C3S 1_555 1_555
C3S H1S 1_555 1_555
C4S C3S 1_555 1_555
H2S C4S 1_555 1_555
C5A C4S 1_555 1_555
C6A C5A 1_555 1_555
C7S C6A 1_555 1_555
H3S C7S 1_555 1_555
C8S C7S 1_555 1_555
H4S C8S 1_555 1_555
C9A C8S 1_555 1_555
C10A C9A 1_555 1_555
C11S N1Q 1_555 1_555
C12S C12Q 1_555 1_555
H5S C12S 1_555 1_555
C7Y C6B 1_555 1_555
H3Y C7Y 1_555 1_555
C8Y C9B 1_555 1_555
H4Y C8Y 1_555 1_555
C7AA C6 1_555 1_555
H3AA C7AA 1_555 1_555
C8AA C9 1_555 1_555
H4AA C8AA 1_555 1_555
C7NA C6A 1_555 1_555
H3NA C7NA 1_555 1_555
C8NA C9A 1_555 1_555
H4NA C8NA 1_555 1_555
C7OA C6C 1_555 1_555
H3OA C7OA 1_555 1_555
C8OA C9C 1_555 1_555
H4OA C8OA 1_555 1_555
C7PA C6 1_555 1_555
H3PA C7PA 1_555 1_555
C8PA C8 1_555 1_555
H4PA C8PA 1_555 1_555
C7QA C6B 1_555 1_555
H3QA C7QA 1_555 1_555
C8QA C8B 1_555 1_555
H4QA C8QA 1_555 1_555
O2A C1A 1_555 1_555
C3A C2A 1_555 1_555
H1A C3A 1_555 1_555
C4A C5A 1_555 1_555
H2A C4A 1_555 1_555
C7A C6A 1_555 1_555
H3A C7A 1_555 1_555
C8A C9A 1_555 1_555
H4A C8A 1_555 1_555
C11A C10A 1_555 1_555
N1A C11A 1_555 1_555
C12A C11A 1_555 1_555
H5A C12A 1_555 1_555
H6A N1A 1_555 1_555
O2C C1C 1_555 1_555
C3C C2C 1_555 1_555
H1C C3C 1_555 1_555
C4C C5C 1_555 1_555
H2C C4C 1_555 1_555
C7C C6C 1_555 1_555
H3C C7C 1_555 1_555
C8C C9C 1_555 1_555
H4C C8C 1_555 1_555
C11C C10C 1_555 1_555
C12C C12A 1_555 1_555
H5C C12C 1_555 1_555
C7X C6C 1_555 1_555
H3X C7X 1_555 1_555
C8X C8R 1_555 1_555
H4X C8X 1_555 1_555
C7Z C6A 1_555 1_555
H3Z C7Z 1_555 1_555
C8Z C8S 1_555 1_555
H4Z C8Z 1_555 1_555
O1A Zr1 1_555 1_555
O2A_2 Zr1 1_555 1_555
C1A_2 O2A_2 1_555 1_555
C2A_2 C1A_2 1_555 1_555
C3A_2 C2A_2 1_555 1_555
H1A_2 C3A_2 1_555 1_555
C4A_2 C3A_2 1_555 1_555
H2A_2 C4A_2 1_555 1_555
C5A_2 C4A_2 1_555 1_555
C6A_2 C5A_2 1_555 1_555
C7A_2 C6A_2 1_555 1_555
H3A_2 C7A_2 1_555 1_555
C8A_2 C7A_2 1_555 1_555
H4A_2 C8A_2 1_555 1_555
C9A_2 C8A_2 1_555 1_555
C10A_2 C9A_2 1_555 1_555
C11A_2 C10A_2 1_555 1_555
N1A_2 C11A_2 1_555 1_555
C12A_2 C11A_2 1_555 1_555
H5A_2 C12A_2 1_555 1_555
H6A_2 N1A_2 1_555 1_555
O2C_2 C1C_2 1_555 1_555
C1C_2 C2C_2 1_555 1_555
C2C_2 C3C_2 1_555 1_555
C3C_2 H1C_2 1_555 1_555
C4C_2 C3C_2 1_555 1_555
H2C_2 C4C_2 1_555 1_555
C5C_2 C4C_2 1_555 1_555
C6C_2 C5C_2 1_555 1_555
C7C_2 C6C_2 1_555 1_555
H3C_2 C7C_2 1_555 1_555
C8C_2 C7C_2 1_555 1_555
H4C_2 C8C_2 1_555 1_555
C9C_2 C8C_2 1_555 1_555
C10C_2 C9C_2 1_555 1_555
C11C_2 N1A_2 1_555 1_555
C12C_2 C12A_2 1_555 1_555
H5C_2 C12C_2 1_555 1_555
O2R_2 C1C_2 1_555 1_555
C3R_2 C2C_2 1_555 1_555
H1R_2 C3R_2 1_555 1_555
C4R_2 C5C_2 1_555 1_555
H2R_2 C4R_2 1_555 1_555
C7R_2 C6C_2 1_555 1_555
H3R_2 C7R_2 1_555 1_555
C8R_2 C9C_2 1_555 1_555
H4R_2 C8R_2 1_555 1_555
C11R_2 C10C_2 1_555 1_555
N1P_2 C11R_2 1_555 1_555
C12R_2 C11R_2 1_555 1_555
H5R_2 C12R_2 1_555 1_555
H6P_2 N1P_2 1_555 1_555
O2S_2 C1A_2 1_555 1_555
C3S_2 C2A_2 1_555 1_555
H1S_2 C3S_2 1_555 1_555
C4S_2 C5A_2 1_555 1_555
H2S_2 C4S_2 1_555 1_555
C7S_2 C6A_2 1_555 1_555
H3S_2 C7S_2 1_555 1_555
C8S_2 C9A_2 1_555 1_555
H4S_2 C8S_2 1_555 1_555
C11S_2 C10A_2 1_555 1_555
N1Q_2 C11S_2 1_555 1_555
C12S_2 C11S_2 1_555 1_555
H5S_2 C12S_2 1_555 1_555
H6Q_2 N1Q_2 1_555 1_555
O2P_2 C1B_2 1_555 1_555
C1B_2 C2B_2 1_555 1_555
C2B_2 C3P_2 1_555 1_555
C3P_2 H1P_2 1_555 1_555
C4P_2 C3P_2 1_555 1_555
H2P_2 C4P_2 1_555 1_555
C5B_2 C4P_2 1_555 1_555
C6B_2 C5B_2 1_555 1_555
C7P_2 C6B_2 1_555 1_555
H3P_2 C7P_2 1_555 1_555
C8P_2 C7P_2 1_555 1_555
H4P_2 C8P_2 1_555 1_555
C9B_2 C8P_2 1_555 1_555
C10B_2 C9B_2 1_555 1_555
C11P_2 N1P_2 1_555 1_555
C12P_2 C12R_2 1_555 1_555
H5P_2 C12P_2 1_555 1_555
O2Q_2 C1_2 1_555 1_555
C1_2 C2_2 1_555 1_555
C2_2 C3Q_2 1_555 1_555
C3Q_2 H1Q_2 1_555 1_555
C4Q_2 C3Q_2 1_555 1_555
H2Q_2 C4Q_2 1_555 1_555
C5_2 C4Q_2 1_555 1_555
C6_2 C5_2 1_555 1_555
C7Q_2 C6_2 1_555 1_555
H3Q_2 C7Q_2 1_555 1_555
C8Q_2 C7Q_2 1_555 1_555
H4Q_2 C8Q_2 1_555 1_555
C9_2 C8Q_2 1_555 1_555
C10_2 C9_2 1_555 1_555
C11Q_2 N1Q_2 1_555 1_555
C12Q_2 C12S_2 1_555 1_555
H5Q_2 C12Q_2 1_555 1_555
C7X_2 C6C_2 1_555 1_555
H3X_2 C7X_2 1_555 1_555
C8X_2 C9C_2 1_555 1_555
H4X_2 C8X_2 1_555 1_555
C7Z_2 C6A_2 1_555 1_555
H3Z_2 C7Z_2 1_555 1_555
C8Z_2 C9A_2 1_555 1_555
H4Z_2 C8Z_2 1_555 1_555
C7PA_2 C6_2 1_555 1_555
H3PA_2 C7PA_2 1_555 1_555
C8PA_2 C9_2 1_555 1_555
H4PA_2 C8PA_2 1_555 1_555
C7QA_2 C6B_2 1_555 1_555
H3QA_2 C7QA_2 1_555 1_555
C8QA_2 C9B_2 1_555 1_555
H4QA_2 C8QA_2 1_555 1_555
C7NA_2 C6A_2 1_555 1_555
H3NA_2 C7NA_2 1_555 1_555
C8NA_2 C8A_2 1_555 1_555
H4NA_2 C8NA_2 1_555 1_555
C7OA_2 C6C_2 1_555 1_555
H3OA_2 C7OA_2 1_555 1_555
C8OA_2 C8C_2 1_555 1_555
H4OA_2 C8OA_2 1_555 1_555
O2_2 C1_2 1_555 1_555
C3_2 C2_2 1_555 1_555
H1_2 C3_2 1_555 1_555
C4_2 C5_2 1_555 1_555
H2_2 C4_2 1_555 1_555
C7_2 C6_2 1_555 1_555
H3_2 C7_2 1_555 1_555
C8_2 C9_2 1_555 1_555
H4_2 C8_2 1_555 1_555
C11_2 C10_2 1_555 1_555
N1_2 C11_2 1_555 1_555
C12_2 C11_2 1_555 1_555
H5_2 C12_2 1_555 1_555
H6_2 N1_2 1_555 1_555
O2B_2 C1B_2 1_555 1_555
C3B_2 C2B_2 1_555 1_555
H1B_2 C3B_2 1_555 1_555
C4B_2 C5B_2 1_555 1_555
H2B_2 C4B_2 1_555 1_555
C7B_2 C6B_2 1_555 1_555
H3B_2 C7B_2 1_555 1_555
C8B_2 C9B_2 1_555 1_555
H4B_2 C8B_2 1_555 1_555
C11B_2 C10B_2 1_555 1_555
C12B_2 C12_2 1_555 1_555
H5B_2 C12B_2 1_555 1_555
C7Y_2 C6B_2 1_555 1_555
H3Y_2 C7Y_2 1_555 1_555
C8Y_2 C8P_2 1_555 1_555
H4Y_2 C8Y_2 1_555 1_555
C7AA_2 C6_2 1_555 1_555
H3AA_2 C7AA_2 1_555 1_555
C8AA_2 C8Q_2 1_555 1_555
H4AA_2 C8AA_2 1_555 1_555
Zr1_2 O2A 1_555 1_555
O1A_2 Zr1_2 1_555 1_555
Zr1B O2B 1_555 1_555
O1B Zr1B 1_555 1_555
O1C Zr1B 1_555 1_555
Zr1B_2 O2C 1_555 1_555
O1C_2 Zr1B_2 1_555 1_555
Zr1D O2D 1_555 1_555
O2D C1D 1_555 1_555
C1D C2D 1_555 1_555
C2D C3D 1_555 1_555
C3D H1D 1_555 1_555
C4D C3D 1_555 1_555
H2D C4D 1_555 1_555
C5D C4D 1_555 1_555
C6D C5D 1_555 1_555
C7D C6D 1_555 1_555
H3D C7D 1_555 1_555
C8D C7D 1_555 1_555
H4D C8D 1_555 1_555
C9D C8D 1_555 1_555
C10D C9D 1_555 1_555
C11D C10D 1_555 1_555
N1D C11D 1_555 1_555
C12D C11D 1_555 1_555
H5D C12D 1_555 1_555
H6D N1D 1_555 1_555
O2F C1F 1_555 1_555
C1F C2F 1_555 1_555
C2F C3F 1_555 1_555
C3F H1F 1_555 1_555
C4F C3F 1_555 1_555
H2F C4F 1_555 1_555
C5F C4F 1_555 1_555
C6F C5F 1_555 1_555
C7F C6F 1_555 1_555
H3F C7F 1_555 1_555
C8F C7F 1_555 1_555
H4F C8F 1_555 1_555
C9F C8F 1_555 1_555
C10F C9F 1_555 1_555
C11F N1D 1_555 1_555
C12F C12D 1_555 1_555
H5F C12F 1_555 1_555
O2O Zr1_2 1_555 1_555
C3O C2F 1_555 1_555
H1O C3O 1_555 1_555
C4O C5F 1_555 1_555
H2O C4O 1_555 1_555
C7O C6F 1_555 1_555
H3O C7O 1_555 1_555
C8O C9F 1_555 1_555
H4O C8O 1_555 1_555
C11O C10F 1_555 1_555
N1M C11O 1_555 1_555
C12O C11O 1_555 1_555
H5O C12O 1_555 1_555
H6M N1M 1_555 1_555
O2N C1D 1_555 1_555
C3N C2D 1_555 1_555
H1N C3N 1_555 1_555
C4N C5D 1_555 1_555
H2N C4N 1_555 1_555
C7N C6D 1_555 1_555
H3N C7N 1_555 1_555
C8N C9D 1_555 1_555
H4N C8N 1_555 1_555
C11N C10D 1_555 1_555
N1L C11N 1_555 1_555
C12N C11N 1_555 1_555
H5N C12N 1_555 1_555
H6L N1L 1_555 1_555
O2M Zr1B_2 1_555 1_555
C1G O2M 1_555 1_555
C2G C1G 1_555 1_555
C3M C2G 1_555 1_555
H1M C3M 1_555 1_555
C4M C3M 1_555 1_555
H2M C4M 1_555 1_555
C5G C4M 1_555 1_555
C6G C5G 1_555 1_555
C7M C6G 1_555 1_555
H3M C7M 1_555 1_555
C8M C7M 1_555 1_555
H4M C8M 1_555 1_555
C9G C8M 1_555 1_555
C10G C9G 1_555 1_555
C11M N1M 1_555 1_555
C12M C12O 1_555 1_555
H5M C12M 1_555 1_555
O2L C1E 1_555 1_555
C1E C2E 1_555 1_555
C2E C3L 1_555 1_555
C3L H1L 1_555 1_555
C4L C3L 1_555 1_555
H2L C4L 1_555 1_555
C5E C4L 1_555 1_555
C6E C5E 1_555 1_555
C7L C6E 1_555 1_555
H3L C7L 1_555 1_555
C8L C7L 1_555 1_555
H4L C8L 1_555 1_555
C9E C8L 1_555 1_555
C10E C9E 1_555 1_555
C11L N1L 1_555 1_555
C12L C12N 1_555 1_555
H5L C12L 1_555 1_555
C7CA C6F 1_555 1_555
H3CA C7CA 1_555 1_555
C8CA C9F 1_555 1_555
H4CA C8CA 1_555 1_555
C7EA C6D 1_555 1_555
H3EA C7EA 1_555 1_555
C8EA C9D 1_555 1_555
H4EA C8EA 1_555 1_555
C7MA C6E 1_555 1_555
H3MA C7MA 1_555 1_555
C8MA C9E 1_555 1_555
H4MA C8MA 1_555 1_555
C7LA C6G 1_555 1_555
H3LA C7LA 1_555 1_555
C8LA C9G 1_555 1_555
H4LA C8LA 1_555 1_555
C7KA C6D 1_555 1_555
H3KA C7KA 1_555 1_555
C8KA C8D 1_555 1_555
H4KA C8KA 1_555 1_555
C7JA C6F 1_555 1_555
H3JA C7JA 1_555 1_555
C8JA C8F 1_555 1_555
H4JA C8JA 1_555 1_555
O2E C1E 1_555 1_555
C3E C2E 1_555 1_555
H1E C3E 1_555 1_555
C4E C5E 1_555 1_555
H2E C4E 1_555 1_555
C7E C6E 1_555 1_555
H3E C7E 1_555 1_555
C8E C9E 1_555 1_555
H4E C8E 1_555 1_555
C11E C10E 1_555 1_555
N1E C11E 1_555 1_555
C12E C11E 1_555 1_555
H5E C12E 1_555 1_555
H6E N1E 1_555 1_555
O2G C1G 1_555 1_555
C3G C2G 1_555 1_555
H1G C3G 1_555 1_555
C4G C5G 1_555 1_555
H2G C4G 1_555 1_555
C7G C6G 1_555 1_555
H3G C7G 1_555 1_555
C8G C9G 1_555 1_555
H4G C8G 1_555 1_555
C11G C10G 1_555 1_555
C12G C12E 1_555 1_555
H5G C12G 1_555 1_555
C7BA C6G 1_555 1_555
H3BA C7BA 1_555 1_555
C8BA C8M 1_555 1_555
H4BA C8BA 1_555 1_555
C7DA C6E 1_555 1_555
H3DA C7DA 1_555 1_555
C8DA C8L 1_555 1_555
H4DA C8DA 1_555 1_555
Zr1D_2 O1C_4 1_555 1_555
O1L Zr1B 1_555 1_555
O1O Zr1 1_555 1_555
Zr1_3 O2N 1_555 1_555
Zr1_4 O2_2 1_555 1_555
Zr1B_3 O2L 1_555 1_555
Zr1B_4 O2B_2 1_555 1_555
Zr1D_3 O2E 1_555 1_555
Zr1D_4 O1C 1_555 1_555
Zr1D_5 O1C_2 1_555 1_555
Zr1F O1A 1_555 1_555
Zr1F_2 O1B 1_555 1_555
Zr1F_3 O1A_2 1_555 1_555
Zr1F_4 O2G 1_555 1_555
Zr1H O2Q_2 1_555 1_555
Zr1H_2 O2P_2 1_555 1_555
Zr1H_3 O1 1_555 1_555
Zr1H_4 O2P 1_555 1_555
Zr1J O1A 1_555 1_555
Zr1J_2 O2R_2 1_555 1_555
Zr1J_3 O2S 1_555 1_555
Zr1J_4 O2R 1_555 1_555
O1_2 Zr1D 1_555 1_555
O1_3 Zr1_2 1_555 1_555
O1B_2 Zr1B_2 1_555 1_555
O1C_3 Zr1D 1_555 1_555
O1C_4 Zr1J 1_555 1_555
O1L_2 Zr1D 1_555 1_555
O1L_3 Zr1D_2 1_555 1_555
O1L_4 Zr1B_2 1_555 1_555
O1M Zr1B 1_555 1_555
O1M_2 Zr1B_2 1_555 1_555
O1N Zr1D 1_555 1_555
O1N_2 Zr1 1_555 1_555
O1N_3 Zr1_2 1_555 1_555
O1O_2 Zr1_2 1_555 1_555
O2_3 Zr1_2 1_555 1_555
O2B_3 Zr1B_2 1_555 1_555
O2D_2 Zr1D_2 1_555 1_555
O2E_2 Zr1D 1_555 1_555
O2E_3 Zr1D_2 1_555 1_555
O2L_2 Zr1B 1_555 1_555
O2L_3 Zr1B_2 1_555 1_555
O2M_2 Zr1B 1_555 1_555
O2N_2 Zr1 1_555 1_555
O2N_3 Zr1_2 1_555 1_555
O2O_2 Zr1 1_555 1_555
O2T Zr1D 1_555 1_555
O2T_2 Zr1D_2 1_555 1_555
O2U Zr1D 1_555 1_555
O2U_2 Zr1D_2 1_555 1_555
C7 C7PA 1_555 1_555
C9 C8PA 1_555 1_555
C7B C7QA 1_555 1_555
C9B C8QA 1_555 1_555
C10B C11B 1_555 1_555
C11B C12B 1_555 1_555
C3P C4P 1_555 1_555
C7P C8P 1_555 1_555
C7P C7Y 1_555 1_555
C8P C8Y 1_555 1_555
O2Q Zr1H_3 1_555 1_555
C3Q C4Q 1_555 1_555
C7Q C8Q 1_555 1_555
C7Q C7AA 1_555 1_555
C8Q C8AA 1_555 1_555
C7R C7X 1_555 1_555
C9C C8X 1_555 1_555
C10C C11R 1_555 1_555
C11R C12R 1_555 1_555
C7S C7Z 1_555 1_555
C9A C8Z 1_555 1_555
C10A C11S 1_555 1_555
C11S C12S 1_555 1_555
C7Y C8Y 1_555 1_555
C7AA C8AA 1_555 1_555
C7NA C8NA 1_555 1_555
C7NA C7A 1_555 1_555
C8NA C8A 1_555 1_555
C7OA C8OA 1_555 1_555
C7OA C7C 1_555 1_555
C8OA C8C 1_555 1_555
C7PA C8PA 1_555 1_555
C7QA C8QA 1_555 1_555
C3A C4A 1_555 1_555
C7A C8A 1_555 1_555
N1A C11C 1_555 1_555
C3C C4C 1_555 1_555
C7C C8C 1_555 1_555
C11C C12C 1_555 1_555
C7X C8X 1_555 1_555
C7Z C8Z 1_555 1_555
C7A_2 C7NA_2 1_555 1_555
C9A_2 C8NA_2 1_555 1_555
O2C_2 Zr1B 1_555 1_555
C7C_2 C7OA_2 1_555 1_555
C9C_2 C8OA_2 1_555 1_555
C10C_2 C11C_2 1_555 1_555
C11C_2 C12C_2 1_555 1_555
C3R_2 C4R_2 1_555 1_555
C7R_2 C8R_2 1_555 1_555
C7R_2 C7X_2 1_555 1_555
C8R_2 C8X_2 1_555 1_555
O2S_2 Zr1J 1_555 1_555
C3S_2 C4S_2 1_555 1_555
C7S_2 C8S_2 1_555 1_555
C7S_2 C7Z_2 1_555 1_555
C8S_2 C8Z_2 1_555 1_555
C7P_2 C7Y_2 1_555 1_555
C9B_2 C8Y_2 1_555 1_555
C10B_2 C11P_2 1_555 1_555
C11P_2 C12P_2 1_555 1_555
C7Q_2 C7AA_2 1_555 1_555
C9_2 C8AA_2 1_555 1_555
C10_2 C11Q_2 1_555 1_555
C11Q_2 C12Q_2 1_555 1_555
C7X_2 C8X_2 1_555 1_555
C7Z_2 C8Z_2 1_555 1_555
C7PA_2 C8PA_2 1_555 1_555
C7PA_2 C7_2 1_555 1_555
C8PA_2 C8_2 1_555 1_555
C7QA_2 C8QA_2 1_555 1_555
C7QA_2 C7B_2 1_555 1_555
C8QA_2 C8B_2 1_555 1_555
C7NA_2 C8NA_2 1_555 1_555
C7OA_2 C8OA_2 1_555 1_555
C3_2 C4_2 1_555 1_555
C7_2 C8_2 1_555 1_555
N1_2 C11B_2 1_555 1_555
C3B_2 C4B_2 1_555 1_555
C7B_2 C8B_2 1_555 1_555
C11B_2 C12B_2 1_555 1_555
C7Y_2 C8Y_2 1_555 1_555
C7AA_2 C8AA_2 1_555 1_555
O1A_2 Zr1J_3 1_555 1_555
O1B Zr1H_4 1_555 1_555
O1C Zr1J_2 1_555 1_555
O1C_2 Zr1J_4 1_555 1_555
C7D C7KA 1_555 1_555
C9D C8KA 1_555 1_555
O2F Zr1F_3 1_555 1_555
C1F O2O 1_555 1_555
C7F C7JA 1_555 1_555
C9F C8JA 1_555 1_555
C10F C11F 1_555 1_555
C11F C12F 1_555 1_555
C3O C4O 1_555 1_555
C7O C8O 1_555 1_555
C7O C7CA 1_555 1_555
C8O C8CA 1_555 1_555
C3N C4N 1_555 1_555
C7N C8N 1_555 1_555
C7N C7EA 1_555 1_555
C8N C8EA 1_555 1_555
C7M C7BA 1_555 1_555
C9G C8BA 1_555 1_555
C10G C11M 1_555 1_555
C11M C12M 1_555 1_555
C7L C7DA 1_555 1_555
C9E C8DA 1_555 1_555
C10E C11L 1_555 1_555
C11L C12L 1_555 1_555
C7CA C8CA 1_555 1_555
C7EA C8EA 1_555 1_555
C7MA C8MA 1_555 1_555
C7MA C7E 1_555 1_555
C8MA C8E 1_555 1_555
C7LA C8LA 1_555 1_555
C7LA C7G 1_555 1_555
C8LA C8G 1_555 1_555
C7KA C8KA 1_555 1_555
C7JA C8JA 1_555 1_555
C3E C4E 1_555 1_555
C7E C8E 1_555 1_555
N1E C11G 1_555 1_555
C3G C4G 1_555 1_555
C7G C8G 1_555 1_555
C11G C12G 1_555 1_555
C7BA C8BA 1_555 1_555
C7DA C8DA 1_555 1_555
Zr1D_2 O1N_2 1_555 1_555
O1L Zr1D_4 1_555 1_555
O1L Zr1H_4 1_555 1_555
O1O Zr1F 1_555 1_555
O1O Zr1H_3 1_555 1_555
Zr1_3 O1_2 1_555 1_555
Zr1_3 O1N 1_555 1_555
Zr1D_5 O1L_4 1_555 1_555
Zr1F_2 O1M 1_555 1_555
Zr1F_3 O1O_2 1_555 1_555
Zr1F_4 O1B_2 1_555 1_555
Zr1F_4 O1M_2 1_555 1_555
Zr1H_3 O1L_3 1_555 1_555
Zr1J O1N_2 1_555 1_555
Zr1J_2 O1M 1_555 1_555
Zr1J_3 O1N_3 1_555 1_555
Zr1J_4 O1M_2 1_555 1_555

#END
