
#######################################################################
#
#                 Cambridge Crystallographic Data Centre
#                                CCDC 
#
#######################################################################
#
# If this CIF has been generated from an entry in the Cambridge 
# Structural Database, then it will include bibliographic, chemical, 
# crystal, experimental, refinement or atomic coordinate data resulting 
# from the CCDC's data processing and validation procedures.
#
#######################################################################

data_JOZXAZ
_chemical_formula_moiety         'C264 H168 Cl6 Fe3 N12 O51 Zr22'
_symmetry_cell_setting           cubic
_symmetry_space_group_name_H-M   'P m -3 m'
_symmetry_Int_Tables_number      221
_space_group_name_Hall           '-P 4 2 3'
loop_
_symmetry_equiv_pos_site_id
_symmetry_equiv_pos_as_xyz
1 x,y,z
2 -x,-y,z
3 -x,y,-z
4 x,-y,-z
5 z,x,y
6 z,-x,-y
7 -z,-x,y
8 -z,x,-y
9 y,z,x
10 -y,z,-x
11 y,-z,-x
12 -y,-z,x
13 y,x,-z
14 -y,-x,-z
15 y,-x,z
16 -y,x,z
17 x,z,-y
18 -x,z,y
19 -x,-z,-y
20 x,-z,y
21 z,y,-x
22 z,-y,x
23 -z,y,x
24 -z,-y,-x
25 -x,-y,-z
26 x,y,-z
27 x,-y,z
28 -x,y,z
29 -z,-x,-y
30 -z,x,y
31 z,x,-y
32 z,-x,y
33 -y,-z,-x
34 y,-z,x
35 -y,z,x
36 y,z,-x
37 -y,-x,z
38 y,x,z
39 -y,x,-z
40 y,-x,-z
41 -x,-z,y
42 x,-z,-y
43 x,z,y
44 -x,z,-y
45 -z,-y,x
46 -z,y,-x
47 z,-y,-x
48 z,y,x
_cell_length_a                   25.4287(2)
_cell_length_b                   25.4287(2)
_cell_length_c                   25.4287(2)
_cell_angle_alpha                90
_cell_angle_beta                 90
_cell_angle_gamma                90
_cell_volume                     16442.7
loop_
_atom_site_label
_atom_site_type_symbol
_atom_site_fract_x
_atom_site_fract_y
_atom_site_fract_z
Zr1 Zr 1.0000 0.90254(4) 0.0000
Fe1 Fe 0.5000 0.5000 0.0000
O1 O 0.9520(3) 0.9520(3) -0.0480(3)
O2 O 0.92356(16) 0.85990(16) 0.0000
C1 C 0.8761(2) 0.8761(2) 0.0000
C2 C 0.8340(3) 0.8340(3) 0.0000
C3 C 0.8465(4) 0.7823(4) 0.0000
H1 H 0.8817 0.7724 0.0000
C4 C 0.7563(4) 0.7563(4) 0.0000
C5 C 0.8084(4) 0.7442(4) 0.0000
H2 H 0.8185 0.7091 0.0000
C6 C 0.7161(4) 0.7161(4) 0.0000
C7 C 0.5955(4) 0.5955(4) 0.0000
N1 N 0.5792(4) 0.5000 0.0000
C8 C 0.6116(4) 0.5430(4) 0.0000
C9 C 0.6373(4) 0.6373(4) 0.0000
C10 C 0.6646(4) 0.5264(4) 0.0000
H3 H 0.6940 0.5481 0.0000
Cl1 Cl 0.5000 0.5000 0.0870(19)
C11 C 0.6399(4) 0.6744(4) -0.0429(6)
H4 H 0.6150 0.6742 -0.0713
C12 C 0.6782(4) 0.7128(4) -0.0393(6)
H5 H 0.6789 0.7399 -0.0658
O2C O 0.92356(16) 0.14010(16) 0.0000
C1C C 0.8761(2) 0.1239(2) 0.0000
C2C C 0.8340(3) 0.1660(3) 0.0000
C3C C 0.8465(4) 0.2177(4) 0.0000
H1C H 0.8817 0.2276 0.0000
C4C C 0.7563(4) 0.2437(4) 0.0000
C5C C 0.8084(4) 0.2558(4) 0.0000
H2C H 0.8185 0.2909 0.0000
C6C C 0.7161(4) 0.2839(4) 0.0000
C7C C 0.5955(4) 0.4045(4) 0.0000
C8C C 0.6116(4) 0.4570(4) 0.0000
C9C C 0.6373(4) 0.3627(4) 0.0000
C10C C 0.6646(4) 0.4736(4) 0.0000
H3C H 0.6940 0.4519 0.0000
C11C C 0.6399(4) 0.3256(4) 0.0429(6)
H4C H 0.6150 0.3258 0.0713
C12C C 0.6782(4) 0.2872(4) 0.0393(6)
H5C H 0.6789 0.2601 0.0658
O2L O 0.85990(16) 0.92356(16) 0.0000
C3L C 0.7823(4) 0.8465(4) 0.0000
H1L H 0.7724 0.8817 0.0000
C5L C 0.7442(4) 0.8084(4) 0.0000
H2L H 0.7091 0.8185 0.0000
N1L N 0.5000 0.5792(4) 0.0000
C8L C 0.5430(4) 0.6116(4) 0.0000
C10L C 0.5264(4) 0.6646(4) 0.0000
H3L H 0.5481 0.6940 0.0000
C11L C 0.6744(4) 0.6399(4) 0.0429(6)
H4L H 0.6742 0.6150 0.0713
C12L C 0.7128(4) 0.6782(4) 0.0393(6)
H5L H 0.7399 0.6789 0.0658
C11Y C 0.6399(4) 0.6744(4) 0.0429(6)
H4Y H 0.6150 0.6742 0.0713
C12Y C 0.6782(4) 0.7128(4) 0.0393(6)
H5Y H 0.6789 0.7399 0.0658
C11Z C 0.6399(4) 0.3256(4) -0.0429(6)
H4Z H 0.6150 0.3258 -0.0713
C12Z C 0.6782(4) 0.2872(4) -0.0393(6)
H5Z H 0.6789 0.2601 -0.0658
C11KA C 0.6744(4) 0.6399(4) -0.0429(6)
H4KA H 0.6742 0.6150 -0.0713
C12KA C 0.7128(4) 0.6782(4) -0.0393(6)
H5KA H 0.7399 0.6789 -0.0658
O2N O 0.85990(16) 0.07644(16) 0.0000
C3N C 0.7823(4) 0.1535(4) 0.0000
H1N H 0.7724 0.1183 0.0000
C5N C 0.7442(4) 0.1916(4) 0.0000
H2N H 0.7091 0.1815 0.0000
N1M N 0.5000 0.4208(4) 0.0000
C8N C 0.5430(4) 0.3884(4) 0.0000
C10N C 0.5264(4) 0.3354(4) 0.0000
H3N H 0.5481 0.3060 0.0000
C11N C 0.6744(4) 0.3601(4) -0.0429(6)
H4N H 0.6742 0.3850 -0.0713
C12N C 0.7128(4) 0.3218(4) -0.0393(6)
H5N H 0.7399 0.3211 -0.0658
O2O O 0.14010(16) 0.92356(16) 0.0000
C1B C 0.1239(2) 0.8761(2) 0.0000
C2B C 0.1660(3) 0.8340(3) 0.0000
C3O C 0.2177(4) 0.8465(4) 0.0000
H1O H 0.2276 0.8817 0.0000
C4B C 0.2437(4) 0.7563(4) 0.0000
C5O C 0.2558(4) 0.8084(4) 0.0000
H2O H 0.2909 0.8185 0.0000
C6B C 0.2839(4) 0.7161(4) 0.0000
C7B C 0.4045(4) 0.5955(4) 0.0000
C8O C 0.4570(4) 0.6116(4) 0.0000
C9B C 0.3627(4) 0.6373(4) 0.0000
C10O C 0.4736(4) 0.6646(4) 0.0000
H3O H 0.4519 0.6940 0.0000
C11O C 0.3256(4) 0.6399(4) -0.0429(6)
H4O H 0.3258 0.6150 -0.0713
C12O C 0.2872(4) 0.6782(4) -0.0393(6)
H5O H 0.2601 0.6789 -0.0658
O2M O 0.14010(16) 0.07644(16) 0.0000
C1A C 0.1239(2) 0.1239(2) 0.0000
C2A C 0.1660(3) 0.1660(3) 0.0000
C3M C 0.2177(4) 0.1535(4) 0.0000
H1M H 0.2276 0.1183 0.0000
C4A C 0.2437(4) 0.2437(4) 0.0000
C5M C 0.2558(4) 0.1916(4) 0.0000
H2M H 0.2909 0.1815 0.0000
C6A C 0.2839(4) 0.2839(4) 0.0000
C7A C 0.4045(4) 0.4045(4) 0.0000
C8M C 0.4570(4) 0.3884(4) 0.0000
C9A C 0.3627(4) 0.3627(4) 0.0000
C10M C 0.4736(4) 0.3354(4) 0.0000
H3M H 0.4519 0.3060 0.0000
C11JA C 0.3256(4) 0.3601(4) -0.0429(6)
H4JA H 0.3258 0.3850 -0.0713
C12JA C 0.2872(4) 0.3218(4) -0.0393(6)
H5JA H 0.2601 0.3211 -0.0658
C11LA C 0.3256(4) 0.6399(4) 0.0429(6)
H4LA H 0.3258 0.6150 0.0713
C12LA C 0.2872(4) 0.6782(4) 0.0393(6)
H5LA H 0.2601 0.6789 0.0658
C11MA C 0.6744(4) 0.3601(4) 0.0429(6)
H4MA H 0.6742 0.3850 0.0713
C12MA C 0.7128(4) 0.3218(4) 0.0393(6)
H5MA H 0.7399 0.3211 0.0658
O2A O 0.07644(16) 0.14010(16) 0.0000
C3A C 0.1535(4) 0.2177(4) 0.0000
H1A H 0.1183 0.2276 0.0000
C5A C 0.1916(4) 0.2558(4) 0.0000
H2A H 0.1815 0.2909 0.0000
N1A N 0.4208(4) 0.5000 0.0000
C8A C 0.3884(4) 0.4570(4) 0.0000
C10A C 0.3354(4) 0.4736(4) 0.0000
H3A H 0.3060 0.4519 0.0000
C11A C 0.3601(4) 0.3256(4) -0.0429(6)
H4A H 0.3850 0.3258 -0.0713
C12A C 0.3218(4) 0.2872(4) -0.0393(6)
H5A H 0.3211 0.2601 -0.0658
O2B O 0.07644(16) 0.85990(16) 0.0000
C3B C 0.1535(4) 0.7823(4) 0.0000
H1B H 0.1183 0.7724 0.0000
C5B C 0.1916(4) 0.7442(4) 0.0000
H2B H 0.1815 0.7091 0.0000
C8B C 0.3884(4) 0.5430(4) 0.0000
C10B C 0.3354(4) 0.5264(4) 0.0000
H3B H 0.3060 0.5481 0.0000
C11B C 0.3601(4) 0.6744(4) 0.0429(6)
H4B H 0.3850 0.6742 0.0713
C12B C 0.3218(4) 0.7128(4) 0.0393(6)
H5B H 0.3211 0.7399 0.0658
C11M C 0.3256(4) 0.3601(4) 0.0429(6)
H4M H 0.3258 0.3850 0.0713
C12M C 0.2872(4) 0.3218(4) 0.0393(6)
H5M H 0.2601 0.3211 0.0658
C11X C 0.3601(4) 0.3256(4) 0.0429(6)
H4X H 0.3850 0.3258 0.0713
C12X C 0.3218(4) 0.2872(4) 0.0393(6)
H5X H 0.3211 0.2601 0.0658
C11AA C 0.3601(4) 0.6744(4) -0.0429(6)
H4AA H 0.3850 0.6742 -0.0713
C12AA C 0.3218(4) 0.7128(4) -0.0393(6)
H5AA H 0.3211 0.7399 -0.0658
Zr1A Zr 1.0000 0.09746(4) 0.0000
Fe1_2 Fe 1.5000 0.5000 0.0000
O2A_2 O 1.07644(16) 0.14010(16) 0.0000
C1A_2 C 1.1239(2) 0.1239(2) 0.0000
C2A_2 C 1.1660(3) 0.1660(3) 0.0000
C3A_2 C 1.1535(4) 0.2177(4) 0.0000
H1A_2 H 1.1183 0.2276 0.0000
C4A_2 C 1.2437(4) 0.2437(4) 0.0000
C5A_2 C 1.1916(4) 0.2558(4) 0.0000
H2A_2 H 1.1815 0.2909 0.0000
C6A_2 C 1.2839(4) 0.2839(4) 0.0000
C7A_2 C 1.4045(4) 0.4045(4) 0.0000
N1A_2 N 1.4208(4) 0.5000 0.0000
C8A_2 C 1.3884(4) 0.4570(4) 0.0000
C9A_2 C 1.3627(4) 0.3627(4) 0.0000
C10A_2 C 1.3354(4) 0.4736(4) 0.0000
H3A_2 H 1.3060 0.4519 0.0000
C11A_2 C 1.3601(4) 0.3256(4) -0.0429(6)
H4A_2 H 1.3850 0.3258 -0.0713
C12A_2 C 1.3218(4) 0.2872(4) -0.0393(6)
H5A_2 H 1.3211 0.2601 -0.0658
O2B_2 O 1.07644(16) 0.85990(16) 0.0000
C1B_2 C 1.1239(2) 0.8761(2) 0.0000
C2B_2 C 1.1660(3) 0.8340(3) 0.0000
C3B_2 C 1.1535(4) 0.7823(4) 0.0000
H1B_2 H 1.1183 0.7724 0.0000
C4B_2 C 1.2437(4) 0.7563(4) 0.0000
C5B_2 C 1.1916(4) 0.7442(4) 0.0000
H2B_2 H 1.1815 0.7091 0.0000
C6B_2 C 1.2839(4) 0.7161(4) 0.0000
C7B_2 C 1.4045(4) 0.5955(4) 0.0000
C8B_2 C 1.3884(4) 0.5430(4) 0.0000
C9B_2 C 1.3627(4) 0.6373(4) 0.0000
C10B_2 C 1.3354(4) 0.5264(4) 0.0000
H3B_2 H 1.3060 0.5481 0.0000
C11B_2 C 1.3601(4) 0.6744(4) 0.0429(6)
H4B_2 H 1.3850 0.6742 0.0713
C12B_2 C 1.3218(4) 0.7128(4) 0.0393(6)
H5B_2 H 1.3211 0.7399 0.0658
O2M_2 O 1.14010(16) 0.07644(16) 0.0000
C3M_2 C 1.2177(4) 0.1535(4) 0.0000
H1M_2 H 1.2276 0.1183 0.0000
C5M_2 C 1.2558(4) 0.1916(4) 0.0000
H2M_2 H 1.2909 0.1815 0.0000
N1M_2 N 1.5000 0.4208(4) 0.0000
C8M_2 C 1.4570(4) 0.3884(4) 0.0000
C10M_2 C 1.4736(4) 0.3354(4) 0.0000
H3M_2 H 1.4519 0.3060 0.0000
C11M_2 C 1.3256(4) 0.3601(4) 0.0429(6)
H4M_2 H 1.3258 0.3850 0.0713
C12M_2 C 1.2872(4) 0.3218(4) 0.0393(6)
H5M_2 H 1.2601 0.3211 0.0658
C11X_2 C 1.3601(4) 0.3256(4) 0.0429(6)
H4X_2 H 1.3850 0.3258 0.0713
C12X_2 C 1.3218(4) 0.2872(4) 0.0393(6)
H5X_2 H 1.3211 0.2601 0.0658
C11AA_2 C 1.3601(4) 0.6744(4) -0.0429(6)
H4AA_2 H 1.3850 0.6742 -0.0713
C12AA_2 C 1.3218(4) 0.7128(4) -0.0393(6)
H5AA_2 H 1.3211 0.7399 -0.0658
C11JA_2 C 1.3256(4) 0.3601(4) -0.0429(6)
H4JA_2 H 1.3258 0.3850 -0.0713
C12JA_2 C 1.2872(4) 0.3218(4) -0.0393(6)
H5JA_2 H 1.2601 0.3211 -0.0658
O2O_2 O 1.14010(16) 0.92356(16) 0.0000
C3O_2 C 1.2177(4) 0.8465(4) 0.0000
H1O_2 H 1.2276 0.8817 0.0000
C5O_2 C 1.2558(4) 0.8084(4) 0.0000
H2O_2 H 1.2909 0.8185 0.0000
N1L_2 N 1.5000 0.5792(4) 0.0000
C8O_2 C 1.4570(4) 0.6116(4) 0.0000
C10O_2 C 1.4736(4) 0.6646(4) 0.0000
H3O_2 H 1.4519 0.6940 0.0000
C11O_2 C 1.3256(4) 0.6399(4) -0.0429(6)
H4O_2 H 1.3258 0.6150 -0.0713
C12O_2 C 1.2872(4) 0.6782(4) -0.0393(6)
H5O_2 H 1.2601 0.6789 -0.0658
O2N_2 O 1.85990(16) 0.07644(16) 0.0000
C1C_2 C 1.8761(2) 0.1239(2) 0.0000
C2C_2 C 1.8340(3) 0.1660(3) 0.0000
C3N_2 C 1.7823(4) 0.1535(4) 0.0000
H1N_2 H 1.7724 0.1183 0.0000
C4C_2 C 1.7563(4) 0.2437(4) 0.0000
C5N_2 C 1.7442(4) 0.1916(4) 0.0000
H2N_2 H 1.7091 0.1815 0.0000
C6C_2 C 1.7161(4) 0.2839(4) 0.0000
C7C_2 C 1.5955(4) 0.4045(4) 0.0000
C8N_2 C 1.5430(4) 0.3884(4) 0.0000
C9C_2 C 1.6373(4) 0.3627(4) 0.0000
C10N_2 C 1.5264(4) 0.3354(4) 0.0000
H3N_2 H 1.5481 0.3060 0.0000
C11N_2 C 1.6744(4) 0.3601(4) -0.0429(6)
H4N_2 H 1.6742 0.3850 -0.0713
C12N_2 C 1.7128(4) 0.3218(4) -0.0393(6)
H5N_2 H 1.7399 0.3211 -0.0658
O2L_2 O 1.85990(16) 0.92356(16) 0.0000
C1_2 C 1.8761(2) 0.8761(2) 0.0000
C2_2 C 1.8340(3) 0.8340(3) 0.0000
C3L_2 C 1.7823(4) 0.8465(4) 0.0000
H1L_2 H 1.7724 0.8817 0.0000
C4_2 C 1.7563(4) 0.7563(4) 0.0000
C5L_2 C 1.7442(4) 0.8084(4) 0.0000
H2L_2 H 1.7091 0.8185 0.0000
C6_2 C 1.7161(4) 0.7161(4) 0.0000
C7_2 C 1.5955(4) 0.5955(4) 0.0000
C8L_2 C 1.5430(4) 0.6116(4) 0.0000
C9_2 C 1.6373(4) 0.6373(4) 0.0000
C10L_2 C 1.5264(4) 0.6646(4) 0.0000
H3L_2 H 1.5481 0.6940 0.0000
C11KA_2 C 1.6744(4) 0.6399(4) -0.0429(6)
H4KA_2 H 1.6742 0.6150 -0.0713
C12KA_2 C 1.7128(4) 0.6782(4) -0.0393(6)
H5KA_2 H 1.7399 0.6789 -0.0658
C11MA_2 C 1.6744(4) 0.3601(4) 0.0429(6)
H4MA_2 H 1.6742 0.3850 0.0713
C12MA_2 C 1.7128(4) 0.3218(4) 0.0393(6)
H5MA_2 H 1.7399 0.3211 0.0658
C11LA_2 C 1.3256(4) 0.6399(4) 0.0429(6)
H4LA_2 H 1.3258 0.6150 0.0713
C12LA_2 C 1.2872(4) 0.6782(4) 0.0393(6)
H5LA_2 H 1.2601 0.6789 0.0658
O2_2 O 1.92356(16) 0.85990(16) 0.0000
C3_2 C 1.8465(4) 0.7823(4) 0.0000
H1_2 H 1.8817 0.7724 0.0000
C5_2 C 1.8084(4) 0.7442(4) 0.0000
H2_2 H 1.8185 0.7091 0.0000
N1_2 N 1.5792(4) 0.5000 0.0000
C8_2 C 1.6116(4) 0.5430(4) 0.0000
C10_2 C 1.6646(4) 0.5264(4) 0.0000
H3_2 H 1.6940 0.5481 0.0000
C11_2 C 1.6399(4) 0.6744(4) -0.0429(6)
H4_2 H 1.6150 0.6742 -0.0713
C12_2 C 1.6782(4) 0.7128(4) -0.0393(6)
H5_2 H 1.6789 0.7399 -0.0658
O2C_2 O 1.92356(16) 0.14010(16) 0.0000
C3C_2 C 1.8465(4) 0.2177(4) 0.0000
H1C_2 H 1.8817 0.2276 0.0000
C5C_2 C 1.8084(4) 0.2558(4) 0.0000
H2C_2 H 1.8185 0.2909 0.0000
C8C_2 C 1.6116(4) 0.4570(4) 0.0000
C10C_2 C 1.6646(4) 0.4736(4) 0.0000
H3C_2 H 1.6940 0.4519 0.0000
C11C_2 C 1.6399(4) 0.3256(4) 0.0429(6)
H4C_2 H 1.6150 0.3258 0.0713
C12C_2 C 1.6782(4) 0.2872(4) 0.0393(6)
H5C_2 H 1.6789 0.2601 0.0658
C11L_2 C 1.6744(4) 0.6399(4) 0.0429(6)
H4L_2 H 1.6742 0.6150 0.0713
C12L_2 C 1.7128(4) 0.6782(4) 0.0393(6)
H5L_2 H 1.7399 0.6789 0.0658
C11Y_2 C 1.6399(4) 0.6744(4) 0.0429(6)
H4Y_2 H 1.6150 0.6742 0.0713
C12Y_2 C 1.6782(4) 0.7128(4) 0.0393(6)
H5Y_2 H 1.6789 0.7399 0.0658
C11Z_2 C 1.6399(4) 0.3256(4) -0.0429(6)
H4Z_2 H 1.6150 0.3258 -0.0713
C12Z_2 C 1.6782(4) 0.2872(4) -0.0393(6)
H5Z_2 H 1.6789 0.2601 -0.0658
Cl1B Cl 0.5000 0.5000 -0.0870(19)
O1B O 1.0480(3) 0.9520(3) 0.0480(3)
Zr1D Zr 1.0000 1.0000 -0.09746(4)
Zr1E Zr 1.0000 1.0000 0.09746(4)
O1C O 0.9520(3) 1.0480(3) 0.0480(3)
O1A O 1.0480(3) 1.0480(3) -0.0480(3)
O1L O 0.9520(3) 0.9520(3) 0.0480(3)
Fe1D Fe 1.0000 0.5000 0.5000
O2T O 1.0000 0.85990(16) 0.07644(16)
C1G C 1.0000 0.8761(2) 0.1239(2)
C2G C 1.0000 0.8340(3) 0.1660(3)
C3T C 1.0000 0.7823(4) 0.1535(4)
H1T H 1.0000 0.7724 0.1183
C4G C 1.0000 0.7563(4) 0.2437(4)
C5T C 1.0000 0.7442(4) 0.1916(4)
H2T H 1.0000 0.7091 0.1815
C6G C 1.0000 0.7161(4) 0.2839(4)
C7G C 1.0000 0.5955(4) 0.4045(4)
N1T N 1.0000 0.5000 0.4208(4)
C8T C 1.0000 0.5430(4) 0.3884(4)
C9G C 1.0000 0.6373(4) 0.3627(4)
C10T C 1.0000 0.5264(4) 0.3354(4)
H3T H 1.0000 0.5481 0.3060
Cl1D Cl 1.0870(19) 0.5000 0.5000
C11T C 0.9571(6) 0.6744(4) 0.3601(4)
H4T H 0.9287 0.6742 0.3850
C12T C 0.9607(6) 0.7128(4) 0.3218(4)
H5T H 0.9342 0.7399 0.3211
O2W O 1.0000 0.14010(16) 0.07644(16)
C1E C 1.0000 0.1239(2) 0.1239(2)
C2E C 1.0000 0.1660(3) 0.1660(3)
C3W C 1.0000 0.2177(4) 0.1535(4)
H1W H 1.0000 0.2276 0.1183
C4E C 1.0000 0.2437(4) 0.2437(4)
C5W C 1.0000 0.2558(4) 0.1916(4)
H2W H 1.0000 0.2909 0.1815
C6E C 1.0000 0.2839(4) 0.2839(4)
C7E C 1.0000 0.4045(4) 0.4045(4)
C8W C 1.0000 0.4570(4) 0.3884(4)
C9E C 1.0000 0.3627(4) 0.3627(4)
C10W C 1.0000 0.4736(4) 0.3354(4)
H3W H 1.0000 0.4519 0.3060
C11W C 1.0429(6) 0.3256(4) 0.3601(4)
H4W H 1.0713 0.3258 0.3850
C12W C 1.0393(6) 0.2872(4) 0.3218(4)
H5W H 1.0658 0.2601 0.3211
O2G O 1.0000 0.92356(16) 0.14010(16)
C3G C 1.0000 0.8465(4) 0.2177(4)
H1G H 1.0000 0.8817 0.2276
C5G C 1.0000 0.8084(4) 0.2558(4)
H2G H 1.0000 0.8185 0.2909
N1D N 1.0000 0.5792(4) 0.5000
C8G C 1.0000 0.6116(4) 0.4570(4)
C10G C 1.0000 0.6646(4) 0.4736(4)
H3G H 1.0000 0.6940 0.4519
C11G C 1.0429(6) 0.6399(4) 0.3256(4)
H4G H 1.0713 0.6150 0.3258
C12G C 1.0393(6) 0.6782(4) 0.2872(4)
H5G H 1.0658 0.6789 0.2601
C11SA C 1.0429(6) 0.6744(4) 0.3601(4)
H4SA H 1.0713 0.6742 0.3850
C12SA C 1.0393(6) 0.7128(4) 0.3218(4)
H5SA H 1.0658 0.7399 0.3211
C11TA C 0.9571(6) 0.3256(4) 0.3601(4)
H4TA H 0.9287 0.3258 0.3850
C12TA C 0.9607(6) 0.2872(4) 0.3218(4)
H5TA H 0.9342 0.2601 0.3211
C11DA C 0.9571(6) 0.6399(4) 0.3256(4)
H4DA H 0.9287 0.6150 0.3258
C12DA C 0.9607(6) 0.6782(4) 0.2872(4)
H5DA H 0.9342 0.6789 0.2601
O2E O 1.0000 0.07644(16) 0.14010(16)
C3E C 1.0000 0.1535(4) 0.2177(4)
H1E H 1.0000 0.1183 0.2276
C5E C 1.0000 0.1916(4) 0.2558(4)
H2E H 1.0000 0.1815 0.2909
N1E N 1.0000 0.4208(4) 0.5000
C8E C 1.0000 0.3884(4) 0.4570(4)
C10E C 1.0000 0.3354(4) 0.4736(4)
H3E H 1.0000 0.3060 0.4519
C11E C 0.9571(6) 0.3601(4) 0.3256(4)
H4E H 0.9287 0.3850 0.3258
C12E C 0.9607(6) 0.3218(4) 0.2872(4)
H5E H 0.9342 0.3211 0.2601
O2D O 1.0000 0.92356(16) 0.85990(16)
C1D C 1.0000 0.8761(2) 0.8761(2)
C2D C 1.0000 0.8340(3) 0.8340(3)
C3D C 1.0000 0.8465(4) 0.7823(4)
H1D H 1.0000 0.8817 0.7724
C4D C 1.0000 0.7563(4) 0.7563(4)
C5D C 1.0000 0.8084(4) 0.7442(4)
H2D H 1.0000 0.8185 0.7091
C6D C 1.0000 0.7161(4) 0.7161(4)
C7D C 1.0000 0.5955(4) 0.5955(4)
C8D C 1.0000 0.6116(4) 0.5430(4)
C9D C 1.0000 0.6373(4) 0.6373(4)
C10D C 1.0000 0.6646(4) 0.5264(4)
H3D H 1.0000 0.6940 0.5481
C11D C 0.9571(6) 0.6399(4) 0.6744(4)
H4D H 0.9287 0.6150 0.6742
C12D C 0.9607(6) 0.6782(4) 0.7128(4)
H5D H 0.9342 0.6789 0.7399
O2F O 1.0000 0.07644(16) 0.85990(16)
C1F C 1.0000 0.1239(2) 0.8761(2)
C2F C 1.0000 0.1660(3) 0.8340(3)
C3F C 1.0000 0.1535(4) 0.7823(4)
H1F H 1.0000 0.1183 0.7724
C4F C 1.0000 0.2437(4) 0.7563(4)
C5F C 1.0000 0.1916(4) 0.7442(4)
H2F H 1.0000 0.1815 0.7091
C6F C 1.0000 0.2839(4) 0.7161(4)
C7F C 1.0000 0.4045(4) 0.5955(4)
C8F C 1.0000 0.3884(4) 0.5430(4)
C9F C 1.0000 0.3627(4) 0.6373(4)
C10F C 1.0000 0.3354(4) 0.5264(4)
H3F H 1.0000 0.3060 0.5481
C11EA C 0.9571(6) 0.3601(4) 0.6744(4)
H4EA H 0.9287 0.3850 0.6742
C12EA C 0.9607(6) 0.3218(4) 0.7128(4)
H5EA H 0.9342 0.3211 0.7399
C11CA C 1.0429(6) 0.6399(4) 0.6744(4)
H4CA H 1.0713 0.6150 0.6742
C12CA C 1.0393(6) 0.6782(4) 0.7128(4)
H5CA H 1.0658 0.6789 0.7399
C11BA C 1.0429(6) 0.3601(4) 0.3256(4)
H4BA H 1.0713 0.3850 0.3258
C12BA C 1.0393(6) 0.3218(4) 0.2872(4)
H5BA H 1.0658 0.3211 0.2601
O2U O 1.0000 0.14010(16) 0.92356(16)
C3U C 1.0000 0.2177(4) 0.8465(4)
H1U H 1.0000 0.2276 0.8817
C5U C 1.0000 0.2558(4) 0.8084(4)
H2U H 1.0000 0.2909 0.8185
N1U N 1.0000 0.5000 0.5792(4)
C8U C 1.0000 0.4570(4) 0.6116(4)
C10U C 1.0000 0.4736(4) 0.6646(4)
H3U H 1.0000 0.4519 0.6940
C11U C 0.9571(6) 0.3256(4) 0.6399(4)
H4U H 0.9287 0.3258 0.6150
C12U C 0.9607(6) 0.2872(4) 0.6782(4)
H5U H 0.9342 0.2601 0.6789
O2V O 1.0000 0.85990(16) 0.92356(16)
C3V C 1.0000 0.7823(4) 0.8465(4)
H1V H 1.0000 0.7724 0.8817
C5V C 1.0000 0.7442(4) 0.8084(4)
H2V H 1.0000 0.7091 0.8185
C8V C 1.0000 0.5430(4) 0.6116(4)
C10V C 1.0000 0.5264(4) 0.6646(4)
H3V H 1.0000 0.5481 0.6940
C11V C 1.0429(6) 0.6744(4) 0.6399(4)
H4V H 1.0713 0.6742 0.6150
C12V C 1.0393(6) 0.7128(4) 0.6782(4)
H5V H 1.0658 0.7399 0.6789
C11F C 1.0429(6) 0.3601(4) 0.6744(4)
H4F H 1.0713 0.3850 0.6742
C12F C 1.0393(6) 0.3218(4) 0.7128(4)
H5F H 1.0658 0.3211 0.7399
C11RA C 1.0429(6) 0.3256(4) 0.6399(4)
H4RA H 1.0713 0.3258 0.6150
C12RA C 1.0393(6) 0.2872(4) 0.6782(4)
H5RA H 1.0658 0.2601 0.6789
C11UA C 0.9571(6) 0.6744(4) 0.6399(4)
H4UA H 0.9287 0.6742 0.6150
C12UA C 0.9607(6) 0.7128(4) 0.6782(4)
H5UA H 0.9342 0.7399 0.6789
Zr1I Zr 1.09746(4) 1.0000 0.0000
O1O O 1.0480(3) 0.9520(3) -0.0480(3)
Cl1_2 Cl 1.5000 0.5000 0.0870(19)
Cl1B_2 Cl 1.5000 0.5000 -0.0870(19)
Zr1H Zr 0.90254(4) 1.0000 0.0000
O1C_2 O 0.9520(3) 0.0480(3) 0.0480(3)
Cl1F Cl 0.9130(19) 0.5000 0.5000
Zr1_2 Zr -0.0000 0.90254(4) 0.0000
Zr1_3 Zr 1.0000 0.90254(4) 1.0000
Zr1_4 Zr 2.0000 0.90254(4) 0.0000
Zr1A_2 Zr -0.0000 0.09746(4) 0.0000
Zr1A_3 Zr 1.0000 0.09746(4) 1.0000
Zr1A_4 Zr 1.0000 1.09746(4) 0.0000
Zr1A_5 Zr 2.0000 0.09746(4) 0.0000
Zr1D_2 Zr 1.0000 -0.0000 0.90254(4)
Zr1D_3 Zr 1.0000 1.0000 0.90254(4)
Zr1E_2 Zr 1.0000 -0.0000 0.09746(4)
Zr1H_2 Zr 0.90254(4) 0.0000 0.0000
Zr1H_3 Zr 1.90254(4) 0.0000 0.0000
Zr1H_4 Zr 1.90254(4) 1.0000 0.0000
Zr1I_2 Zr 0.09746(4) 0.0000 0.0000
Zr1I_3 Zr 0.09746(4) 1.0000 0.0000
Zr1I_4 Zr 1.09746(4) 0.0000 0.0000
O1A_2 O 1.0480(3) 0.0480(3) -0.0480(3)
O1M O 1.0480(3) 0.0480(3) 0.0480(3)
O1M_2 O 1.0480(3) 1.0480(3) 0.0480(3)
O1N O 0.9520(3) 0.0480(3) -0.0480(3)
O1N_2 O 0.9520(3) 1.0480(3) -0.0480(3)
O2D_2 O 1.0000 0.92356(16) -0.14010(16)
O2E_2 O 1.0000 1.07644(16) 0.14010(16)
O2F_2 O 1.0000 1.07644(16) -0.14010(16)
O2H O 0.85990(16) 1.0000 -0.07644(16)
O2I O 1.14010(16) 1.0000 0.07644(16)
O2J O 0.85990(16) 1.0000 0.07644(16)
O2K O 1.14010(16) 1.0000 -0.07644(16)
O2M_3 O 1.14010(16) 1.07644(16) 0.0000
O2N_3 O 0.85990(16) 1.07644(16) 0.0000
O2P O 0.92356(16) 1.0000 0.14010(16)
O2Q O 1.07644(16) 1.0000 -0.14010(16)
O2R O 1.07644(16) 1.0000 0.14010(16)
O2S O 0.92356(16) 1.0000 -0.14010(16)
O2U_2 O 1.0000 0.14010(16) -0.07644(16)
O2V_2 O 1.0000 0.85990(16) -0.07644(16)
loop_
_geom_bond_atom_site_label_1
_geom_bond_atom_site_label_2
_geom_bond_site_symmetry_1
_geom_bond_site_symmetry_2
Zr1 O1 1_555 1_555
Fe1 N1 1_555 1_555
O1 Zr1D 1_555 1_555
O2 Zr1 1_555 1_555
C1 O2 1_555 1_555
C2 C1 1_555 1_555
C3 C2 1_555 1_555
H1 C3 1_555 1_555
C4 C5 1_555 1_555
C5 C3 1_555 1_555
H2 C5 1_555 1_555
C6 C4 1_555 1_555
C7 C8 1_555 1_555
N1 C8 1_555 1_555
C8 C10 1_555 1_555
C9 C7 1_555 1_555
C10 H3 1_555 1_555
Cl1 Fe1 1_555 1_555
C11 C9 1_555 1_555
H4 C11 1_555 1_555
C12 C6 1_555 1_555
H5 C12 1_555 1_555
O2C C1C 1_555 1_555
C1C C2C 1_555 1_555
C2C C3C 1_555 1_555
C3C H1C 1_555 1_555
C4C C5C 1_555 1_555
C5C C3C 1_555 1_555
H2C C5C 1_555 1_555
C6C C4C 1_555 1_555
C7C C8C 1_555 1_555
C8C N1 1_555 1_555
C9C C7C 1_555 1_555
C10C C10 1_555 1_555
H3C C10C 1_555 1_555
C11C C9C 1_555 1_555
H4C C11C 1_555 1_555
C12C C6C 1_555 1_555
H5C C12C 1_555 1_555
O2L C1 1_555 1_555
C3L C2 1_555 1_555
H1L C3L 1_555 1_555
C5L C4 1_555 1_555
H2L C5L 1_555 1_555
N1L Fe1 1_555 1_555
C8L C7 1_555 1_555
C10L C8L 1_555 1_555
H3L C10L 1_555 1_555
C11L C9 1_555 1_555
H4L C11L 1_555 1_555
C12L C6 1_555 1_555
H5L C12L 1_555 1_555
C11Y C9 1_555 1_555
H4Y C11Y 1_555 1_555
C12Y C6 1_555 1_555
H5Y C12Y 1_555 1_555
C11Z C9C 1_555 1_555
H4Z C11Z 1_555 1_555
C12Z C6C 1_555 1_555
H5Z C12Z 1_555 1_555
C11KA C9 1_555 1_555
H4KA C11KA 1_555 1_555
C12KA C6 1_555 1_555
H5KA C12KA 1_555 1_555
O2N C1C 1_555 1_555
C3N C2C 1_555 1_555
H1N C3N 1_555 1_555
C5N C4C 1_555 1_555
H2N C5N 1_555 1_555
N1M Fe1 1_555 1_555
C8N C7C 1_555 1_555
C10N C8N 1_555 1_555
H3N C10N 1_555 1_555
C11N C9C 1_555 1_555
H4N C11N 1_555 1_555
C12N C6C 1_555 1_555
H5N C12N 1_555 1_555
O2O C1B 1_555 1_555
C1B C2B 1_555 1_555
C2B C3O 1_555 1_555
C3O H1O 1_555 1_555
C4B C5O 1_555 1_555
C5O C3O 1_555 1_555
H2O C5O 1_555 1_555
C6B C4B 1_555 1_555
C7B C8O 1_555 1_555
C8O N1L 1_555 1_555
C9B C7B 1_555 1_555
C10O C10L 1_555 1_555
H3O C10O 1_555 1_555
C11O C9B 1_555 1_555
H4O C11O 1_555 1_555
C12O C6B 1_555 1_555
H5O C12O 1_555 1_555
O2M C1A 1_555 1_555
C1A C2A 1_555 1_555
C2A C3M 1_555 1_555
C3M H1M 1_555 1_555
C4A C5M 1_555 1_555
C5M C3M 1_555 1_555
H2M C5M 1_555 1_555
C6A C4A 1_555 1_555
C7A C8M 1_555 1_555
C8M N1M 1_555 1_555
C9A C7A 1_555 1_555
C10M C10N 1_555 1_555
H3M C10M 1_555 1_555
C11JA C9A 1_555 1_555
H4JA C11JA 1_555 1_555
C12JA C6A 1_555 1_555
H5JA C12JA 1_555 1_555
C11LA C9B 1_555 1_555
H4LA C11LA 1_555 1_555
C12LA C6B 1_555 1_555
H5LA C12LA 1_555 1_555
C11MA C9C 1_555 1_555
H4MA C11MA 1_555 1_555
C12MA C6C 1_555 1_555
H5MA C12MA 1_555 1_555
O2A C1A 1_555 1_555
C3A C2A 1_555 1_555
H1A C3A 1_555 1_555
C5A C4A 1_555 1_555
H2A C5A 1_555 1_555
N1A Fe1 1_555 1_555
C8A C7A 1_555 1_555
C10A C8A 1_555 1_555
H3A C10A 1_555 1_555
C11A C9A 1_555 1_555
H4A C11A 1_555 1_555
C12A C6A 1_555 1_555
H5A C12A 1_555 1_555
O2B C1B 1_555 1_555
C3B C2B 1_555 1_555
H1B C3B 1_555 1_555
C5B C4B 1_555 1_555
H2B C5B 1_555 1_555
C8B C7B 1_555 1_555
C10B C10A 1_555 1_555
H3B C10B 1_555 1_555
C11B C9B 1_555 1_555
H4B C11B 1_555 1_555
C12B C6B 1_555 1_555
H5B C12B 1_555 1_555
C11M C9A 1_555 1_555
H4M C11M 1_555 1_555
C12M C6A 1_555 1_555
H5M C12M 1_555 1_555
C11X C9A 1_555 1_555
H4X C11X 1_555 1_555
C12X C6A 1_555 1_555
H5X C12X 1_555 1_555
C11AA C9B 1_555 1_555
H4AA C11AA 1_555 1_555
C12AA C6B 1_555 1_555
H5AA C12AA 1_555 1_555
Zr1A O2C 1_555 1_555
Fe1_2 N1A_2 1_555 1_555
O2A_2 Zr1A 1_555 1_555
C1A_2 O2A_2 1_555 1_555
C2A_2 C1A_2 1_555 1_555
C3A_2 C2A_2 1_555 1_555
H1A_2 C3A_2 1_555 1_555
C4A_2 C5A_2 1_555 1_555
C5A_2 C3A_2 1_555 1_555
H2A_2 C5A_2 1_555 1_555
C6A_2 C4A_2 1_555 1_555
C7A_2 C8A_2 1_555 1_555
N1A_2 C8A_2 1_555 1_555
C8A_2 C10A_2 1_555 1_555
C9A_2 C7A_2 1_555 1_555
C10A_2 H3A_2 1_555 1_555
C11A_2 C9A_2 1_555 1_555
H4A_2 C11A_2 1_555 1_555
C12A_2 C6A_2 1_555 1_555
H5A_2 C12A_2 1_555 1_555
O2B_2 Zr1 1_555 1_555
C1B_2 O2B_2 1_555 1_555
C2B_2 C1B_2 1_555 1_555
C3B_2 C2B_2 1_555 1_555
H1B_2 C3B_2 1_555 1_555
C4B_2 C5B_2 1_555 1_555
C5B_2 C3B_2 1_555 1_555
H2B_2 C5B_2 1_555 1_555
C6B_2 C4B_2 1_555 1_555
C7B_2 C8B_2 1_555 1_555
C8B_2 N1A_2 1_555 1_555
C9B_2 C7B_2 1_555 1_555
C10B_2 C10A_2 1_555 1_555
H3B_2 C10B_2 1_555 1_555
C11B_2 C9B_2 1_555 1_555
H4B_2 C11B_2 1_555 1_555
C12B_2 C6B_2 1_555 1_555
H5B_2 C12B_2 1_555 1_555
O2M_2 C1A_2 1_555 1_555
C3M_2 C2A_2 1_555 1_555
H1M_2 C3M_2 1_555 1_555
C5M_2 C4A_2 1_555 1_555
H2M_2 C5M_2 1_555 1_555
N1M_2 Fe1_2 1_555 1_555
C8M_2 C7A_2 1_555 1_555
C10M_2 C8M_2 1_555 1_555
H3M_2 C10M_2 1_555 1_555
C11M_2 C9A_2 1_555 1_555
H4M_2 C11M_2 1_555 1_555
C12M_2 C6A_2 1_555 1_555
H5M_2 C12M_2 1_555 1_555
C11X_2 C9A_2 1_555 1_555
H4X_2 C11X_2 1_555 1_555
C12X_2 C6A_2 1_555 1_555
H5X_2 C12X_2 1_555 1_555
C11AA_2 C9B_2 1_555 1_555
H4AA_2 C11AA_2 1_555 1_555
C12AA_2 C6B_2 1_555 1_555
H5AA_2 C12AA_2 1_555 1_555
C11JA_2 C9A_2 1_555 1_555
H4JA_2 C11JA_2 1_555 1_555
C12JA_2 C6A_2 1_555 1_555
H5JA_2 C12JA_2 1_555 1_555
O2O_2 C1B_2 1_555 1_555
C3O_2 C2B_2 1_555 1_555
H1O_2 C3O_2 1_555 1_555
C5O_2 C4B_2 1_555 1_555
H2O_2 C5O_2 1_555 1_555
N1L_2 Fe1_2 1_555 1_555
C8O_2 C7B_2 1_555 1_555
C10O_2 C8O_2 1_555 1_555
H3O_2 C10O_2 1_555 1_555
C11O_2 C9B_2 1_555 1_555
H4O_2 C11O_2 1_555 1_555
C12O_2 C6B_2 1_555 1_555
H5O_2 C12O_2 1_555 1_555
O2N_2 C1C_2 1_555 1_555
C1C_2 C2C_2 1_555 1_555
C2C_2 C3N_2 1_555 1_555
C3N_2 H1N_2 1_555 1_555
C4C_2 C5N_2 1_555 1_555
C5N_2 C3N_2 1_555 1_555
H2N_2 C5N_2 1_555 1_555
C6C_2 C4C_2 1_555 1_555
C7C_2 C8N_2 1_555 1_555
C8N_2 N1M_2 1_555 1_555
C9C_2 C7C_2 1_555 1_555
C10N_2 C10M_2 1_555 1_555
H3N_2 C10N_2 1_555 1_555
C11N_2 C9C_2 1_555 1_555
H4N_2 C11N_2 1_555 1_555
C12N_2 C6C_2 1_555 1_555
H5N_2 C12N_2 1_555 1_555
O2L_2 C1_2 1_555 1_555
C1_2 C2_2 1_555 1_555
C2_2 C3L_2 1_555 1_555
C3L_2 H1L_2 1_555 1_555
C4_2 C5L_2 1_555 1_555
C5L_2 C3L_2 1_555 1_555
H2L_2 C5L_2 1_555 1_555
C6_2 C4_2 1_555 1_555
C7_2 C8L_2 1_555 1_555
C8L_2 N1L_2 1_555 1_555
C9_2 C7_2 1_555 1_555
C10L_2 C10O_2 1_555 1_555
H3L_2 C10L_2 1_555 1_555
C11KA_2 C9_2 1_555 1_555
H4KA_2 C11KA_2 1_555 1_555
C12KA_2 C6_2 1_555 1_555
H5KA_2 C12KA_2 1_555 1_555
C11MA_2 C9C_2 1_555 1_555
H4MA_2 C11MA_2 1_555 1_555
C12MA_2 C6C_2 1_555 1_555
H5MA_2 C12MA_2 1_555 1_555
C11LA_2 C9B_2 1_555 1_555
H4LA_2 C11LA_2 1_555 1_555
C12LA_2 C6B_2 1_555 1_555
H5LA_2 C12LA_2 1_555 1_555
O2_2 C1_2 1_555 1_555
C3_2 C2_2 1_555 1_555
H1_2 C3_2 1_555 1_555
C5_2 C4_2 1_555 1_555
H2_2 C5_2 1_555 1_555
N1_2 Fe1_2 1_555 1_555
C8_2 C7_2 1_555 1_555
C10_2 C8_2 1_555 1_555
H3_2 C10_2 1_555 1_555
C11_2 C9_2 1_555 1_555
H4_2 C11_2 1_555 1_555
C12_2 C6_2 1_555 1_555
H5_2 C12_2 1_555 1_555
O2C_2 C1C_2 1_555 1_555
C3C_2 C2C_2 1_555 1_555
H1C_2 C3C_2 1_555 1_555
C5C_2 C4C_2 1_555 1_555
H2C_2 C5C_2 1_555 1_555
C8C_2 C7C_2 1_555 1_555
C10C_2 C10_2 1_555 1_555
H3C_2 C10C_2 1_555 1_555
C11C_2 C9C_2 1_555 1_555
H4C_2 C11C_2 1_555 1_555
C12C_2 C6C_2 1_555 1_555
H5C_2 C12C_2 1_555 1_555
C11L_2 C9_2 1_555 1_555
H4L_2 C11L_2 1_555 1_555
C12L_2 C6_2 1_555 1_555
H5L_2 C12L_2 1_555 1_555
C11Y_2 C9_2 1_555 1_555
H4Y_2 C11Y_2 1_555 1_555
C12Y_2 C6_2 1_555 1_555
H5Y_2 C12Y_2 1_555 1_555
C11Z_2 C9C_2 1_555 1_555
H4Z_2 C11Z_2 1_555 1_555
C12Z_2 C6C_2 1_555 1_555
H5Z_2 C12Z_2 1_555 1_555
Cl1B Fe1 1_555 1_555
O1B Zr1 1_555 1_555
Zr1D O1A 1_555 1_555
Zr1E O1B 1_555 1_555
O1C Zr1E 1_555 1_555
O1A Zr1I 1_555 1_555
O1L Zr1 1_555 1_555
Fe1D N1T 1_555 1_555
O2T Zr1 1_555 1_555
C1G O2T 1_555 1_555
C2G C1G 1_555 1_555
C3T C2G 1_555 1_555
H1T C3T 1_555 1_555
C4G C5T 1_555 1_555
C5T C3T 1_555 1_555
H2T C5T 1_555 1_555
C6G C4G 1_555 1_555
C7G C8T 1_555 1_555
N1T C8T 1_555 1_555
C8T C10T 1_555 1_555
C9G C7G 1_555 1_555
C10T H3T 1_555 1_555
Cl1D Fe1D 1_555 1_555
C11T C9G 1_555 1_555
H4T C11T 1_555 1_555
C12T C6G 1_555 1_555
H5T C12T 1_555 1_555
O2W Zr1A 1_555 1_555
C1E O2W 1_555 1_555
C2E C1E 1_555 1_555
C3W C2E 1_555 1_555
H1W C3W 1_555 1_555
C4E C5W 1_555 1_555
C5W C3W 1_555 1_555
H2W C5W 1_555 1_555
C6E C4E 1_555 1_555
C7E C8W 1_555 1_555
C8W N1T 1_555 1_555
C9E C7E 1_555 1_555
C10W C10T 1_555 1_555
H3W C10W 1_555 1_555
C11W C9E 1_555 1_555
H4W C11W 1_555 1_555
C12W C6E 1_555 1_555
H5W C12W 1_555 1_555
O2G Zr1E 1_555 1_555
C3G C2G 1_555 1_555
H1G C3G 1_555 1_555
C5G C4G 1_555 1_555
H2G C5G 1_555 1_555
N1D Fe1D 1_555 1_555
C8G C7G 1_555 1_555
C10G C8G 1_555 1_555
H3G C10G 1_555 1_555
C11G C9G 1_555 1_555
H4G C11G 1_555 1_555
C12G C6G 1_555 1_555
H5G C12G 1_555 1_555
C11SA C9G 1_555 1_555
H4SA C11SA 1_555 1_555
C12SA C6G 1_555 1_555
H5SA C12SA 1_555 1_555
C11TA C9E 1_555 1_555
H4TA C11TA 1_555 1_555
C12TA C6E 1_555 1_555
H5TA C12TA 1_555 1_555
C11DA C9G 1_555 1_555
H4DA C11DA 1_555 1_555
C12DA C6G 1_555 1_555
H5DA C12DA 1_555 1_555
O2E C1E 1_555 1_555
C3E C2E 1_555 1_555
H1E C3E 1_555 1_555
C5E C4E 1_555 1_555
H2E C5E 1_555 1_555
N1E Fe1D 1_555 1_555
C8E C7E 1_555 1_555
C10E C8E 1_555 1_555
H3E C10E 1_555 1_555
C11E C9E 1_555 1_555
H4E C11E 1_555 1_555
C12E C6E 1_555 1_555
H5E C12E 1_555 1_555
O2D C1D 1_555 1_555
C1D C2D 1_555 1_555
C2D C3D 1_555 1_555
C3D H1D 1_555 1_555
C4D C5D 1_555 1_555
C5D C3D 1_555 1_555
H2D C5D 1_555 1_555
C6D C4D 1_555 1_555
C7D C8D 1_555 1_555
C8D N1D 1_555 1_555
C9D C7D 1_555 1_555
C10D C10G 1_555 1_555
H3D C10D 1_555 1_555
C11D C9D 1_555 1_555
H4D C11D 1_555 1_555
C12D C6D 1_555 1_555
H5D C12D 1_555 1_555
O2F C1F 1_555 1_555
C1F C2F 1_555 1_555
C2F C3F 1_555 1_555
C3F H1F 1_555 1_555
C4F C5F 1_555 1_555
C5F C3F 1_555 1_555
H2F C5F 1_555 1_555
C6F C4F 1_555 1_555
C7F C8F 1_555 1_555
C8F N1E 1_555 1_555
C9F C7F 1_555 1_555
C10F C10E 1_555 1_555
H3F C10F 1_555 1_555
C11EA C9F 1_555 1_555
H4EA C11EA 1_555 1_555
C12EA C6F 1_555 1_555
H5EA C12EA 1_555 1_555
C11CA C9D 1_555 1_555
H4CA C11CA 1_555 1_555
C12CA C6D 1_555 1_555
H5CA C12CA 1_555 1_555
C11BA C9E 1_555 1_555
H4BA C11BA 1_555 1_555
C12BA C6E 1_555 1_555
H5BA C12BA 1_555 1_555
O2U C1F 1_555 1_555
C3U C2F 1_555 1_555
H1U C3U 1_555 1_555
C5U C4F 1_555 1_555
H2U C5U 1_555 1_555
N1U Fe1D 1_555 1_555
C8U C7F 1_555 1_555
C10U C8U 1_555 1_555
H3U C10U 1_555 1_555
C11U C9F 1_555 1_555
H4U C11U 1_555 1_555
C12U C6F 1_555 1_555
H5U C12U 1_555 1_555
O2V C1D 1_555 1_555
C3V C2D 1_555 1_555
H1V C3V 1_555 1_555
C5V C4D 1_555 1_555
H2V C5V 1_555 1_555
C8V C7D 1_555 1_555
C10V C10U 1_555 1_555
H3V C10V 1_555 1_555
C11V C9D 1_555 1_555
H4V C11V 1_555 1_555
C12V C6D 1_555 1_555
H5V C12V 1_555 1_555
C11F C9F 1_555 1_555
H4F C11F 1_555 1_555
C12F C6F 1_555 1_555
H5F C12F 1_555 1_555
C11RA C9F 1_555 1_555
H4RA C11RA 1_555 1_555
C12RA C6F 1_555 1_555
H5RA C12RA 1_555 1_555
C11UA C9D 1_555 1_555
H4UA C11UA 1_555 1_555
C12UA C6D 1_555 1_555
H5UA C12UA 1_555 1_555
Zr1I O2O_2 1_555 1_555
O1O Zr1 1_555 1_555
Cl1_2 Fe1_2 1_555 1_555
Cl1B_2 Fe1_2 1_555 1_555
Zr1H O1 1_555 1_555
O1C_2 Zr1A 1_555 1_555
Cl1F Fe1D 1_555 1_555
Zr1_2 O2B 1_555 1_555
Zr1_3 O2V 1_555 1_555
Zr1_4 O2_2 1_555 1_555
Zr1A_2 O2A 1_555 1_555
Zr1A_3 O2U 1_555 1_555
Zr1A_4 O1C 1_555 1_555
Zr1A_5 O2C_2 1_555 1_555
Zr1D_2 O2F 1_555 1_555
Zr1D_3 O2D 1_555 1_555
Zr1E_2 O2E 1_555 1_555
Zr1H_2 O2N 1_555 1_555
Zr1H_3 O2N_2 1_555 1_555
Zr1H_4 O2L_2 1_555 1_555
Zr1I_2 O2M 1_555 1_555
Zr1I_3 O2O 1_555 1_555
Zr1I_4 O2M_2 1_555 1_555
O1A_2 Zr1A 1_555 1_555
O1M Zr1A 1_555 1_555
O1M_2 Zr1E 1_555 1_555
O1N Zr1A 1_555 1_555
O1N_2 Zr1D 1_555 1_555
O2D_2 Zr1D 1_555 1_555
O2E_2 Zr1E 1_555 1_555
O2F_2 Zr1D 1_555 1_555
O2H Zr1H 1_555 1_555
O2I Zr1I 1_555 1_555
O2J Zr1H 1_555 1_555
O2K Zr1I 1_555 1_555
O2M_3 Zr1I 1_555 1_555
O2N_3 Zr1H 1_555 1_555
O2P Zr1E 1_555 1_555
O2Q Zr1D 1_555 1_555
O2R Zr1E 1_555 1_555
O2S Zr1D 1_555 1_555
O2U_2 Zr1A 1_555 1_555
O2V_2 Zr1 1_555 1_555
C11 C12 1_555 1_555
C11 C11KA 1_555 1_555
C12 C12KA 1_555 1_555
C8C C10C 1_555 1_555
C11C C12C 1_555 1_555
C11C C11MA 1_555 1_555
C12C C12MA 1_555 1_555
O2L Zr1H 1_555 1_555
C3L C5L 1_555 1_555
N1L C8L 1_555 1_555
C11L C12L 1_555 1_555
C11L C11Y 1_555 1_555
C12L C12Y 1_555 1_555
C11Y C12Y 1_555 1_555
C11Z C12Z 1_555 1_555
C11Z C11N 1_555 1_555
C12Z C12N 1_555 1_555
C11KA C12KA 1_555 1_555
C3N C5N 1_555 1_555
N1M C8N 1_555 1_555
C11N C12N 1_555 1_555
C8O C10O 1_555 1_555
C11O C12O 1_555 1_555
C11O C11AA 1_555 1_555
C12O C12AA 1_555 1_555
C8M C10M 1_555 1_555
C11JA C12JA 1_555 1_555
C11JA C11A 1_555 1_555
C12JA C12A 1_555 1_555
C11LA C12LA 1_555 1_555
C11LA C11B 1_555 1_555
C12LA C12B 1_555 1_555
C11MA C12MA 1_555 1_555
C3A C5A 1_555 1_555
N1A C8A 1_555 1_555
N1A C8B 1_555 1_555
C11A C12A 1_555 1_555
C3B C5B 1_555 1_555
C8B C10B 1_555 1_555
C11B C12B 1_555 1_555
C11M C12M 1_555 1_555
C11M C11X 1_555 1_555
C12M C12X 1_555 1_555
C11X C12X 1_555 1_555
C11AA C12AA 1_555 1_555
C11A_2 C12A_2 1_555 1_555
C11A_2 C11JA_2 1_555 1_555
C12A_2 C12JA_2 1_555 1_555
C8B_2 C10B_2 1_555 1_555
C11B_2 C12B_2 1_555 1_555
C11B_2 C11LA_2 1_555 1_555
C12B_2 C12LA_2 1_555 1_555
C3M_2 C5M_2 1_555 1_555
N1M_2 C8M_2 1_555 1_555
C11M_2 C12M_2 1_555 1_555
C11M_2 C11X_2 1_555 1_555
C12M_2 C12X_2 1_555 1_555
C11X_2 C12X_2 1_555 1_555
C11AA_2 C12AA_2 1_555 1_555
C11AA_2 C11O_2 1_555 1_555
C12AA_2 C12O_2 1_555 1_555
C11JA_2 C12JA_2 1_555 1_555
C3O_2 C5O_2 1_555 1_555
N1L_2 C8O_2 1_555 1_555
C11O_2 C12O_2 1_555 1_555
C8N_2 C10N_2 1_555 1_555
C11N_2 C12N_2 1_555 1_555
C11N_2 C11Z_2 1_555 1_555
C12N_2 C12Z_2 1_555 1_555
C8L_2 C10L_2 1_555 1_555
C11KA_2 C12KA_2 1_555 1_555
C11KA_2 C11_2 1_555 1_555
C12KA_2 C12_2 1_555 1_555
C11MA_2 C12MA_2 1_555 1_555
C11MA_2 C11C_2 1_555 1_555
C12MA_2 C12C_2 1_555 1_555
C11LA_2 C12LA_2 1_555 1_555
C3_2 C5_2 1_555 1_555
N1_2 C8_2 1_555 1_555
N1_2 C8C_2 1_555 1_555
C11_2 C12_2 1_555 1_555
C3C_2 C5C_2 1_555 1_555
C8C_2 C10C_2 1_555 1_555
C11C_2 C12C_2 1_555 1_555
C11L_2 C12L_2 1_555 1_555
C11L_2 C11Y_2 1_555 1_555
C12L_2 C12Y_2 1_555 1_555
C11Y_2 C12Y_2 1_555 1_555
C11Z_2 C12Z_2 1_555 1_555
O1B Zr1I 1_555 1_555
Zr1D O1O 1_555 1_555
Zr1E O1L 1_555 1_555
O1C Zr1H 1_555 1_555
O1A Zr1A_4 1_555 1_555
O1L Zr1H 1_555 1_555
C1G O2G 1_555 1_555
C11T C12T 1_555 1_555
C11T C11DA 1_555 1_555
C12T C12DA 1_555 1_555
C8W C10W 1_555 1_555
C11W C12W 1_555 1_555
C11W C11BA 1_555 1_555
C12W C12BA 1_555 1_555
C3G C5G 1_555 1_555
N1D C8G 1_555 1_555
C11G C12G 1_555 1_555
C11G C11SA 1_555 1_555
C12G C12SA 1_555 1_555
C11SA C12SA 1_555 1_555
C11TA C12TA 1_555 1_555
C11TA C11E 1_555 1_555
C12TA C12E 1_555 1_555
C11DA C12DA 1_555 1_555
C3E C5E 1_555 1_555
N1E C8E 1_555 1_555
C11E C12E 1_555 1_555
C8D C10D 1_555 1_555
C11D C12D 1_555 1_555
C11D C11UA 1_555 1_555
C12D C12UA 1_555 1_555
C8F C10F 1_555 1_555
C11EA C12EA 1_555 1_555
C11EA C11U 1_555 1_555
C12EA C12U 1_555 1_555
C11CA C12CA 1_555 1_555
C11CA C11V 1_555 1_555
C12CA C12V 1_555 1_555
C11BA C12BA 1_555 1_555
C3U C5U 1_555 1_555
N1U C8U 1_555 1_555
N1U C8V 1_555 1_555
C11U C12U 1_555 1_555
C3V C5V 1_555 1_555
C8V C10V 1_555 1_555
C11V C12V 1_555 1_555
C11F C12F 1_555 1_555
C11F C11RA 1_555 1_555
C12F C12RA 1_555 1_555
C11RA C12RA 1_555 1_555
C11UA C12UA 1_555 1_555
Zr1I O1O 1_555 1_555
Zr1I O1M_2 1_555 1_555
Zr1H O1N_2 1_555 1_555
O1C_2 Zr1E_2 1_555 1_555
O1C_2 Zr1H_2 1_555 1_555
Zr1A_4 O1M_2 1_555 1_555
Zr1A_4 O1N_2 1_555 1_555
Zr1E_2 O1M 1_555 1_555
Zr1H_2 O1N 1_555 1_555
Zr1I_4 O1A_2 1_555 1_555
Zr1I_4 O1M 1_555 1_555

#END
