
#######################################################################
#
#                 Cambridge Crystallographic Data Centre
#                                CCDC 
#
#######################################################################
#
# If this CIF has been generated from an entry in the Cambridge 
# Structural Database, then it will include bibliographic, chemical, 
# crystal, experimental, refinement or atomic coordinate data resulting 
# from the CCDC's data processing and validation procedures.
#
#######################################################################

data_QOYYOU
_chemical_formula_moiety         '(C114 H72 N2 O70 Zn16)n'
_symmetry_cell_setting           cubic
_symmetry_space_group_name_H-M   'I a -3'
_symmetry_Int_Tables_number      206
_space_group_name_Hall           '-I 2b 2c 3'
loop_
_symmetry_equiv_pos_site_id
_symmetry_equiv_pos_as_xyz
1 x,y,z
2 1/2-x,-y,1/2+z
3 -x,1/2+y,1/2-z
4 1/2+x,1/2-y,-z
5 z,x,y
6 1/2+z,1/2-x,-y
7 1/2-z,-x,1/2+y
8 -z,1/2+x,1/2-y
9 y,z,x
10 -y,1/2+z,1/2-x
11 1/2+y,1/2-z,-x
12 1/2-y,-z,1/2+x
13 1/2+x,1/2+y,1/2+z
14 -x,1/2-y,z
15 1/2-x,y,-z
16 x,-y,1/2-z
17 1/2+z,1/2+x,1/2+y
18 z,-x,1/2-y
19 -z,1/2-x,y
20 1/2-z,x,-y
21 1/2+y,1/2+z,1/2+x
22 1/2-y,z,-x
23 y,-z,1/2-x
24 -y,1/2-z,x
25 -x,-y,-z
26 1/2+x,y,1/2-z
27 x,1/2-y,1/2+z
28 1/2-x,1/2+y,z
29 -z,-x,-y
30 1/2-z,1/2+x,y
31 1/2+z,x,1/2-y
32 z,1/2-x,1/2+y
33 -y,-z,-x
34 y,1/2-z,1/2+x
35 1/2-y,1/2+z,x
36 1/2+y,z,1/2-x
37 1/2-x,1/2-y,1/2-z
38 x,1/2+y,-z
39 1/2+x,-y,z
40 -x,y,1/2+z
41 1/2-z,1/2-x,1/2-y
42 -z,x,1/2+y
43 z,1/2+x,-y
44 1/2+z,-x,y
45 1/2-y,1/2-z,1/2-x
46 1/2+y,-z,x
47 -y,z,1/2+x
48 y,1/2+z,-x
_cell_length_a                   52.623(3)
_cell_length_b                   52.623(3)
_cell_length_c                   52.623(3)
_cell_angle_alpha                90
_cell_angle_beta                 90
_cell_angle_gamma                90
_cell_volume                     145723
loop_
_atom_site_label
_atom_site_type_symbol
_atom_site_fract_x
_atom_site_fract_y
_atom_site_fract_z
_atom_site_U_iso_or_equiv
_atom_site_thermal_displace_type
Zn1 Zn 0.21976(2) 0.37890(2) 0.87599(2) 0.0301 Uani
Zn2 Zn 0.27720(3) 0.37437(3) 0.88053(2) 0.0665 Uani
Zn3 Zn 0.24899(2) 0.42790(2) 0.87944(2) 0.0323 Uani
Zn4 Zn 0.24980(2) 0.39437(2) 0.92958(2) 0.0316 Uani
Zn5 Zn 0.11862(2) 0.37313(2) 0.76855(2) 0.0280 Uani
Zn6 Zn 0.11224(2) 0.38376(2) 0.70935(2) 0.0251 Uani
Zn7 Zn 0.09781(2) 0.42855(2) 0.74644(2) 0.0254 Uani
Zn8 Zn 0.06424(2) 0.37974(2) 0.74368(2) 0.0254 Uani
O1 O 0.24089(15) 0.38302(19) 0.83831(13) 0.0690 Uani
O2 O 0.34290(13) 0.37023(17) 0.78185(13) 0.0567 Uani
O3 O 0.33466(13) 0.38467(17) 0.74299(14) 0.0570 Uani
O4 O 0.15573(13) 0.37604(17) 0.75524(14) 0.0550 Uani
O5 O 0.14911(14) 0.3931(2) 0.71670(19) 0.0833 Uani
O6 O 0.25271(14) 0.38646(17) 0.66219(13) 0.0547 Uani
O7 O 0.21180(17) 0.3796(2) 0.65316(15) 0.0750 Uani
O8 O 0.19440(12) 0.40102(11) 0.85969(11) 0.0327 Uani
O9 O 0.21654(14) 0.43710(12) 0.86345(15) 0.0513 Uani
O10 O 0.12692(13) 0.40207(12) 0.79365(12) 0.0410 Uani
O11 O 0.11558(13) 0.43939(13) 0.77680(14) 0.0473 Uani
O12 O 0.11475(13) 0.55246(12) 0.78107(14) 0.0460 Uani
O13 O 0.18700(14) 0.58122(14) 0.87288(14) 0.0530 Uani
O14 O 0.21523(17) 0.55170(15) 0.8607(2) 0.0777 Uani
O15 O 0.19694(16) 0.37479(16) 0.90851(14) 0.0610 Uani
O16 O 0.22069(18) 0.37793(17) 0.94362(14) 0.0720 Uani
O17 O 0.1390(2) 0.27657(18) 0.94078(16) 0.0847 Uani
O18 O 0.13026(18) 0.30355(17) 0.90919(16) 0.0720 Uani
O19 O 0.19874(12) 0.36438(12) 1.09392(11) 0.0367 Uani
O20 O 0.21882(16) 0.37745(15) 1.05812(13) 0.0597 Uani
O21 O 0.13746(18) 0.27334(15) 1.05211(14) 0.0683 Uani
O22 O 0.13733(13) 0.29439(12) 1.08841(11) 0.0373 Uani
O23 O 0.04068(14) 0.40836(13) 0.7433(2) 0.0813 Uani
O24 O 0.06346(12) 0.44336(11) 0.74781(14) 0.0400 Uani
O25 O -0.04881(14) 0.40782(13) 0.74678(19) 0.0667 Uani
O26 O -0.07135(11) 0.44378(12) 0.75155(14) 0.0430 Uani
O27 O 0.09821(10) 0.39243(10) 0.74300(10) 0.0250 Uani
O28 O 0.24912(11) 0.39401(11) 0.89306(11) 0.0297 Uani
C1 C 0.2617(2) 0.3758(2) 0.83172(18) 0.0490 Uani
C2 C 0.2683(2) 0.3767(3) 0.80378(19) 0.0593 Uani
C3 C 0.2938(2) 0.3758(2) 0.79671(19) 0.0523 Uani
H1 H 0.3067 0.3742 0.8093 0.0630 Uiso
C4 C 0.30026(18) 0.3773(2) 0.77135(19) 0.0490 Uani
C5 C 0.32818(19) 0.3778(2) 0.7649(2) 0.0477 Uani
C6 C 0.2814(2) 0.3789(2) 0.75301(19) 0.0507 Uani
H2 H 0.2860 0.3796 0.7356 0.0610 Uiso
C7 C 0.24958(18) 0.3788(3) 0.78524(19) 0.0547 Uani
H3 H 0.2323 0.3799 0.7902 0.0660 Uiso
C8 C 0.25573(18) 0.3794(2) 0.75966(18) 0.0467 Uani
C9 C 0.23546(18) 0.3805(2) 0.73980(18) 0.0483 Uani
C10 C 0.24142(19) 0.3819(2) 0.71433(18) 0.0500 Uani
H4 H 0.2588 0.3821 0.7094 0.0600 Uiso
C11 C 0.20955(19) 0.3807(2) 0.74590(18) 0.0483 Uani
H5 H 0.2045 0.3791 0.7632 0.0580 Uiso
C12 C 0.19107(18) 0.3830(2) 0.7273(2) 0.0527 Uani
C13 C 0.1632(2) 0.3834(2) 0.7337(2) 0.0567 Uani
C14 C 0.1978(2) 0.3845(2) 0.7026(2) 0.0557 Uani
H6 H 0.1851 0.3867 0.6899 0.0670 Uiso
C15 C 0.22295(19) 0.3830(2) 0.69569(18) 0.0517 Uani
C16 C 0.2299(2) 0.3836(2) 0.66802(19) 0.0547 Uani
C17 C 0.19782(17) 0.42453(15) 0.85589(16) 0.0297 Uani
C18 C 0.17762(18) 0.43866(16) 0.84154(17) 0.0317 Uani
C19 C 0.16109(17) 0.42548(16) 0.82584(16) 0.0300 Uani
H7 H 0.1614 0.4074 0.8252 0.0360 Uiso
C20 C 0.14411(17) 0.43927(16) 0.81099(17) 0.0327 Uani
C21 C 0.12749(16) 0.42571(16) 0.79229(17) 0.0303 Uani
C22 C 0.14289(18) 0.46546(17) 0.81291(18) 0.0377 Uani
H8 H 0.1308 0.4746 0.8031 0.0450 Uiso
C23 C 0.17666(18) 0.46505(17) 0.84303(18) 0.0380 Uani
H9 H 0.1882 0.4738 0.8538 0.0460 Uiso
C24 C 0.15920(18) 0.47850(17) 0.82904(19) 0.0390 Uani
C25 C 0.15759(18) 0.50731(17) 0.83082(19) 0.0387 Uani
C26 C 0.13979(18) 0.52100(16) 0.81695(19) 0.0377 Uani
H10 H 0.1285 0.5122 0.8059 0.0450 Uiso
C27 C 0.13819(19) 0.54744(18) 0.81887(19) 0.0397 Uani
O29 O 0.11170(15) 0.58271(14) 0.81034(15) 0.0557 Uani
C28 C 0.15457(18) 0.56039(17) 0.83470(18) 0.0370 Uani
H11 H 0.1530 0.5783 0.8368 0.0440 Uiso
C29 C 0.1732(2) 0.54711(18) 0.8474(2) 0.0440 Uani
C30 C 0.1928(2) 0.56120(18) 0.8620(2) 0.0497 Uani
C31 C 0.1747(2) 0.52124(17) 0.8453(2) 0.0440 Uani
H12 H 0.1879 0.5125 0.8540 0.0530 Uiso
C32 C 0.2012(2) 0.3705(2) 0.9310(2) 0.0513 Uani
C33 C 0.1831(2) 0.3533(2) 0.94510(19) 0.0493 Uani
C34 C 0.1678(2) 0.3369(2) 0.93122(19) 0.0490 Uani
H13 H 0.1668 0.3381 0.9132 0.0590 Uiso
C35 C 0.1540(2) 0.3185(2) 0.94433(18) 0.0433 Uani
C36 C 0.1395(2) 0.2985(2) 0.93015(19) 0.0527 Uani
C37 C 0.1549(2) 0.3179(2) 0.97095(18) 0.0507 Uani
H14 H 0.1453 0.3054 0.9797 0.0610 Uiso
C38 C 0.1838(2) 0.35218(19) 0.97182(18) 0.0447 Uani
H15 H 0.1945 0.3635 0.9809 0.0530 Uiso
C39 C 0.1692(2) 0.33501(19) 0.98495(17) 0.0420 Uani
C40 C 0.1697(2) 0.33356(19) 1.01376(18) 0.0417 Uani
C41 C 0.18423(19) 0.35022(19) 1.02835(17) 0.0407 Uani
H16 H 0.1941 0.3629 1.0200 0.0490 Uiso
C42 C 0.18472(18) 0.34884(17) 1.05464(17) 0.0353 Uani
C43 C 0.2022(2) 0.36515(19) 1.06979(18) 0.0417 Uani
C44 C 0.17039(18) 0.33080(17) 1.06715(16) 0.0333 Uani
H17 H 0.1700 0.3302 1.0852 0.0400 Uiso
C45 C 0.15639(18) 0.31338(18) 1.05246(17) 0.0377 Uani
C46 C 0.14259(19) 0.29214(18) 1.06586(18) 0.0390 Uani
C47 C 0.1565(2) 0.31468(19) 1.02626(18) 0.0453 Uani
H18 H 0.1473 0.3024 1.0167 0.0540 Uiso
C48 C 0.04304(18) 0.43151(17) 0.7463(2) 0.0413 Uani
C49 C 0.01866(18) 0.44624(18) 0.7472(2) 0.0457 Uani
C50 C -0.00421(19) 0.43314(19) 0.7475(2) 0.0530 Uani
H19 H -0.0044 0.4151 0.7466 0.0640 Uiso
C51 C -0.02643(19) 0.44632(19) 0.7490(2) 0.0490 Uani
C52 C -0.05069(18) 0.43162(18) 0.7492(2) 0.0387 Uani
C53 C -0.02662(19) 0.4725(2) 0.7500(3) 0.0567 Uani
H20 H -0.0423 0.4813 0.7514 0.0680 Uiso
C54 C -0.00383(18) 0.48598(18) 0.7490(2) 0.0507 Uani
C55 C 0.01882(18) 0.4724(2) 0.7484(2) 0.0540 Uani
H21 H 0.0346 0.4812 0.7489 0.0650 Uiso
O30 O 0.1402(3) 0.3496(3) 0.7964(3) 0.1400 Uani
O31 O 0.1300(7) 0.3775(8) 0.6729(4) 0.4600 Uani
O32 O 0.27918(14) 0.36707(16) 0.84533(12) 0.0543 Uani
C56 C 0.11995(19) 0.56176(19) 0.8022(2) 0.0420 Uani
O23O O 0.04068(14) 0.59164(13) 0.7567(2) 0.0813 Uani
O24O O 0.06346(12) 0.55664(11) 0.75219(14) 0.0400 Uani
O25O O -0.04881(14) 0.59218(13) 0.75322(19) 0.0667 Uani
O26O O -0.07135(11) 0.55622(12) 0.74845(14) 0.0430 Uani
C48O C 0.04304(18) 0.56849(17) 0.7537(2) 0.0413 Uani
C49O C 0.01866(18) 0.55376(18) 0.7528(2) 0.0457 Uani
C50O C -0.00421(19) 0.56686(19) 0.7525(2) 0.0530 Uani
H19O H -0.0044 0.5849 0.7534 0.0640 Uiso
C51O C -0.02643(19) 0.55368(19) 0.7510(2) 0.0490 Uani
C52O C -0.05069(18) 0.56838(18) 0.7508(2) 0.0387 Uani
C53O C -0.02662(19) 0.5275(2) 0.7500(3) 0.0567 Uani
H20O H -0.0423 0.5187 0.7486 0.0680 Uiso
C54O C -0.00383(18) 0.51402(18) 0.7510(2) 0.0507 Uani
C55O C 0.01882(18) 0.5276(2) 0.7516(2) 0.0540 Uani
H21O H 0.0346 0.5188 0.7511 0.0650 Uiso
Zn1E Zn 0.37599(2) 0.28024(2) 0.62110(2) 0.0301 Uani
Zn2E Zn 0.38053(2) 0.22280(3) 0.62563(3) 0.0665 Uani
Zn3E Zn 0.37944(2) 0.25101(2) 0.57210(2) 0.0323 Uani
Zn4E Zn 0.42958(2) 0.25020(2) 0.60563(2) 0.0316 Uani
Zn5E Zn 0.26855(2) 0.38138(2) 0.62687(2) 0.0280 Uani
Zn6E Zn 0.20935(2) 0.38776(2) 0.61624(2) 0.0251 Uani
Zn7E Zn 0.24644(2) 0.40219(2) 0.57145(2) 0.0254 Uani
Zn8E Zn 0.24368(2) 0.43576(2) 0.62026(2) 0.0254 Uani
O1E O 0.33831(13) 0.25911(15) 0.61698(19) 0.0690 Uani
O2E O 0.28185(13) 0.15710(13) 0.62977(17) 0.0567 Uani
O3E O 0.24299(14) 0.16534(13) 0.61533(17) 0.0570 Uani
O4E O 0.25524(14) 0.34427(13) 0.62396(17) 0.0550 Uani
O5E O 0.21670(19) 0.35089(14) 0.6069(2) 0.0833 Uani
O6E O 0.16219(13) 0.24729(14) 0.61354(17) 0.0547 Uani
O7E O 0.15316(15) 0.28820(17) 0.6204(2) 0.0750 Uani
O8E O 0.35969(11) 0.30560(12) 0.59898(11) 0.0327 Uani
O9E O 0.36345(15) 0.28346(14) 0.56290(12) 0.0513 Uani
O10E O 0.29365(12) 0.37308(13) 0.59793(12) 0.0410 Uani
O11E O 0.27680(14) 0.38442(13) 0.56061(13) 0.0473 Uani
O12E O 0.28107(14) 0.38525(13) 0.44754(12) 0.0460 Uani
O13E O 0.37288(14) 0.31300(14) 0.41878(14) 0.0530 Uani
O14E O 0.3607(2) 0.28477(17) 0.44830(15) 0.0777 Uani
O15E O 0.40851(14) 0.30306(16) 0.62521(16) 0.0610 Uani
O16E O 0.44362(14) 0.27931(18) 0.62207(17) 0.0720 Uani
O17E O 0.44078(16) 0.3610(2) 0.72343(18) 0.0847 Uani
O18E O 0.40919(16) 0.36974(18) 0.69645(17) 0.0720 Uani
O19E O 0.59392(11) 0.30126(12) 0.63562(12) 0.0367 Uani
O20E O 0.55812(13) 0.28118(16) 0.62255(15) 0.0597 Uani
O21E O 0.55211(14) 0.36254(18) 0.72666(15) 0.0683 Uani
O22E O 0.58841(11) 0.36267(13) 0.70561(12) 0.0373 Uani
O27E O 0.24300(10) 0.40179(10) 0.60757(10) 0.0250 Uani
O28E O 0.39306(11) 0.25088(11) 0.60599(11) 0.0297 Uani
C1E C 0.33172(18) 0.2383(2) 0.6242(2) 0.0490 Uani
C2E C 0.30378(19) 0.2317(2) 0.6233(3) 0.0593 Uani
C3E C 0.29671(19) 0.2062(2) 0.6242(2) 0.0523 Uani
H1E H 0.3093 0.1933 0.6258 0.0630 Uiso
C4E C 0.27135(19) 0.19974(18) 0.6227(2) 0.0490 Uani
C5E C 0.2649(2) 0.17182(19) 0.6222(2) 0.0477 Uani
C6E C 0.25301(19) 0.2186(2) 0.6211(2) 0.0507 Uani
H2E H 0.2356 0.2140 0.6204 0.0610 Uiso
C7E C 0.28524(19) 0.25042(18) 0.6212(3) 0.0547 Uani
H3E H 0.2902 0.2677 0.6201 0.0660 Uiso
C8E C 0.25966(18) 0.24427(18) 0.6206(2) 0.0467 Uani
C9E C 0.23980(18) 0.26454(18) 0.6195(2) 0.0483 Uani
C10E C 0.21433(18) 0.25858(19) 0.6181(2) 0.0500 Uani
H4E H 0.2094 0.2412 0.6179 0.0600 Uiso
C11E C 0.24590(18) 0.29045(19) 0.6193(2) 0.0483 Uani
H5E H 0.2632 0.2955 0.6209 0.0580 Uiso
C12E C 0.2273(2) 0.30893(18) 0.6170(2) 0.0527 Uani
C13E C 0.2337(2) 0.3368(2) 0.6166(2) 0.0567 Uani
C14E C 0.2026(2) 0.3022(2) 0.6155(2) 0.0557 Uani
H6E H 0.1899 0.3149 0.6133 0.0670 Uiso
C15E C 0.19569(18) 0.27705(19) 0.6170(2) 0.0517 Uani
C16E C 0.16802(19) 0.2701(2) 0.6164(2) 0.0547 Uani
C17E C 0.35589(16) 0.30218(17) 0.57547(15) 0.0297 Uani
C18E C 0.34154(17) 0.32238(18) 0.56134(16) 0.0317 Uani
C19E C 0.32584(16) 0.33891(17) 0.57452(16) 0.0300 Uani
H7E H 0.3252 0.3386 0.5926 0.0360 Uiso
C20E C 0.31099(17) 0.35589(17) 0.56073(16) 0.0327 Uani
C21E C 0.29229(17) 0.37251(16) 0.57429(16) 0.0303 Uani
C22E C 0.31291(18) 0.35711(18) 0.53454(17) 0.0377 Uani
H8E H 0.3031 0.3692 0.5254 0.0450 Uiso
C23E C 0.34303(18) 0.32334(18) 0.53495(17) 0.0380 Uani
H9E H 0.3538 0.3118 0.5262 0.0460 Uiso
C24E C 0.32904(19) 0.34080(18) 0.52150(17) 0.0390 Uani
C25E C 0.33082(19) 0.34241(18) 0.49269(17) 0.0387 Uani
C26E C 0.31695(19) 0.36021(18) 0.47900(16) 0.0377 Uani
H10E H 0.3059 0.3715 0.4878 0.0450 Uiso
C27E C 0.31887(19) 0.36181(19) 0.45256(18) 0.0397 Uani
O29E O 0.31034(15) 0.38830(15) 0.41729(14) 0.0557 Uani
C28E C 0.33470(18) 0.34543(18) 0.43961(17) 0.0370 Uani
H11E H 0.3368 0.3470 0.4217 0.0440 Uiso
C29E C 0.3474(2) 0.3268(2) 0.45289(18) 0.0440 Uani
C30E C 0.3620(2) 0.3072(2) 0.43880(18) 0.0497 Uani
C31E C 0.3453(2) 0.3253(2) 0.47876(17) 0.0440 Uani
H12E H 0.3540 0.3121 0.4875 0.0530 Uiso
C32E C 0.4310(2) 0.2988(2) 0.6295(2) 0.0513 Uani
C33E C 0.44510(19) 0.3169(2) 0.6467(2) 0.0493 Uani
C34E C 0.43122(19) 0.3322(2) 0.6631(2) 0.0490 Uani
H13E H 0.4132 0.3332 0.6619 0.0590 Uiso
C35E C 0.44433(18) 0.3460(2) 0.6815(2) 0.0433 Uani
C36E C 0.43015(19) 0.3605(2) 0.7015(2) 0.0527 Uani
C37E C 0.47095(18) 0.3451(2) 0.6821(2) 0.0507 Uani
H14E H 0.4797 0.3547 0.6946 0.0610 Uiso
C38E C 0.47182(18) 0.3162(2) 0.64782(19) 0.0447 Uani
H15E H 0.4809 0.3055 0.6365 0.0530 Uiso
C39E C 0.48495(17) 0.3308(2) 0.66499(19) 0.0420 Uani
C40E C 0.51376(18) 0.3303(2) 0.66644(19) 0.0417 Uani
C41E C 0.52835(17) 0.31577(19) 0.64978(19) 0.0407 Uani
H16E H 0.5200 0.3059 0.6371 0.0490 Uiso
C42E C 0.55464(17) 0.31528(18) 0.65116(17) 0.0353 Uani
C43E C 0.56979(18) 0.2978(2) 0.63485(19) 0.0417 Uani
C44E C 0.56715(16) 0.32961(18) 0.66920(17) 0.0333 Uani
H17E H 0.5852 0.3300 0.6698 0.0400 Uiso
C45E C 0.55246(17) 0.34361(18) 0.68662(18) 0.0377 Uani
C46E C 0.56586(18) 0.35741(19) 0.70786(18) 0.0390 Uani
C47E C 0.52626(18) 0.3435(2) 0.68532(19) 0.0453 Uani
H18E H 0.5167 0.3527 0.6976 0.0540 Uiso
O30E O 0.2964(3) 0.3598(3) 0.6504(3) 0.1400 Uani
O31E O 0.1729(4) 0.3700(7) 0.6225(8) 0.4600 Uani
O32E O 0.34533(12) 0.22082(14) 0.63293(16) 0.0543 Uani
C56E C 0.3022(2) 0.38005(19) 0.43824(19) 0.0420 Uani
Zn1JA Zn 0.28024(2) 0.12110(2) 0.62401(2) 0.0301 Uani
Zn1UA Zn 0.37890(2) 0.37599(2) 0.78024(2) 0.0301 Uani
Zn2N Zn 0.22280(3) 0.37437(3) 1.11947(2) 0.0665 Uani
Zn2S Zn 0.61947(2) 0.27720(3) 0.62563(3) 0.0665 Uani
Zn2JA Zn 0.22280(3) 0.12563(3) 0.61947(2) 0.0665 Uani
Zn2OA Zn 0.11947(2) 0.27720(3) 0.87437(3) 0.0665 Uani
Zn2UA Zn 0.37437(3) 0.38053(2) 0.72280(3) 0.0665 Uani
Zn3J Zn -0.07210(2) 0.62056(2) 0.75101(2) 0.0323 Uani
Zn3T Zn -0.07210(2) 0.37944(2) 0.74899(2) 0.0323 Uani
Zn3OA Zn 0.12056(2) 0.24899(2) 0.92790(2) 0.0323 Uani
Zn3UA Zn 0.42790(2) 0.37944(2) 0.75101(2) 0.0323 Uani
Zn4J Zn -0.10563(2) 0.57042(2) 0.75020(2) 0.0316 Uani
Zn4N Zn 0.25020(2) 0.39437(2) 1.07042(2) 0.0316 Uani
Zn4S Zn 0.57042(2) 0.24980(2) 0.60563(2) 0.0316 Uani
Zn4T Zn -0.10563(2) 0.42958(2) 0.74980(2) 0.0316 Uani
Zn5K Zn 0.12687(2) 0.23145(2) 0.61862(2) 0.0280 Uani
Zn5Y Zn 0.61862(2) 0.37313(2) 0.73145(2) 0.0280 Uani
Zn5HA Zn 0.12687(2) 0.26855(2) 1.11862(2) 0.0280 Uani
Zn6K Zn 0.11624(2) 0.29065(2) 0.61224(2) 0.0251 Uani
Zn6O Zn 0.11224(2) 0.61624(2) 0.79065(2) 0.0251 Uani
Zn6P Zn 0.20935(2) 0.61224(2) 0.88376(2) 0.0251 Uani
Zn6R Zn 0.29065(2) 0.38776(2) 0.38376(2) 0.0251 Uani
Zn6V Zn 0.38376(2) 0.29065(2) 0.38776(2) 0.0251 Uani
Zn7O Zn 0.09781(2) 0.57145(2) 0.75356(2) 0.0254 Uani
Zn7R Zn 0.25356(2) 0.40219(2) 0.42855(2) 0.0254 Uani
Zn8O Zn 0.06424(2) 0.62026(2) 0.75632(2) 0.0254 Uani
Zn8P Zn 0.24368(2) 0.56424(2) 0.87974(2) 0.0254 Uani
Zn8V Zn 0.37974(2) 0.25632(2) 0.43576(2) 0.0254 Uani
Zn8Y Zn 0.56424(2) 0.37974(2) 0.75632(2) 0.0254 Uani
Zn8HA Zn 0.12026(2) 0.24368(2) 1.06424(2) 0.0254 Uani
O2OA O 0.21815(13) 0.34290(13) 0.87023(17) 0.0567 Uani
O2UA O 0.37023(17) 0.28185(13) 0.65710(13) 0.0567 Uani
O3OA O 0.25701(14) 0.33466(13) 0.88467(17) 0.0570 Uani
O3UA O 0.38467(17) 0.24299(14) 0.66534(13) 0.0570 Uani
O6K O 0.11354(17) 0.33781(13) 0.75271(14) 0.0547 Uani
O7K O 0.1204(2) 0.34684(15) 0.71180(17) 0.0750 Uani
O12O O 0.11475(13) 0.44754(12) 0.71893(14) 0.0460 Uani
O12R O 0.21893(14) 0.38525(13) 0.55246(12) 0.0460 Uani
O13O O 0.18700(14) 0.41878(14) 0.62712(14) 0.0530 Uani
O13T O 0.08122(14) 0.37288(14) 0.68700(14) 0.0530 Uani
O14O O 0.21523(17) 0.44830(15) 0.6393(2) 0.0777 Uani
O14T O 0.05170(15) 0.3607(2) 0.71523(17) 0.0777 Uani
O17JA O 0.3610(2) 0.22343(18) 0.55922(16) 0.0847 Uani
O17UA O 0.27657(18) 0.44078(16) 0.8610(2) 0.0847 Uani
O18JA O 0.36974(18) 0.19645(17) 0.59081(16) 0.0720 Uani
O18UA O 0.30355(17) 0.40919(16) 0.86974(18) 0.0720 Uani
O19N O 0.30126(12) 0.36438(12) 0.90608(11) 0.0367 Uani
O19S O 0.40608(11) 0.19874(12) 0.63562(12) 0.0367 Uani
O20N O 0.28118(16) 0.37745(15) 0.94188(13) 0.0597 Uani
O20S O 0.44188(13) 0.21882(16) 0.62255(15) 0.0597 Uani
O21EA O 0.05211(14) 0.36254(18) 0.77334(15) 0.0683 Uani
O21GA O 0.27334(15) 0.44789(14) 0.63746(18) 0.0683 Uani
O22EA O 0.08841(11) 0.36267(13) 0.79439(12) 0.0373 Uani
O22GA O 0.29439(12) 0.41159(11) 0.63733(13) 0.0373 Uani
O23E O 0.2433(2) 0.45932(14) 0.59164(13) 0.0813 Uani
O24E O 0.24781(14) 0.43654(12) 0.55664(11) 0.0400 Uani
O25P O 0.24678(19) 0.45119(14) 0.90782(13) 0.0667 Uani
O25V O 0.40782(13) 0.25322(19) 0.54881(14) 0.0667 Uani
O26P O 0.25155(14) 0.42865(11) 0.94378(12) 0.0430 Uani
O26V O 0.44378(12) 0.24845(14) 0.57135(11) 0.0430 Uani
O29O O 0.11170(15) 0.41729(14) 0.68966(15) 0.0557 Uani
O29R O 0.18966(15) 0.38830(15) 0.58271(14) 0.0557 Uani
C57 C 0.1159(9) 0.3772(8) 0.8666(9) 0.3300 Uani
N1 N 0.1374(6) 0.3576(6) 0.8618(5) 0.2300 Uani
C58 C 0.2474(10) 0.4972(11) 0.8176(9) 0.3333 Uani
N2 N 0.2464(6) 0.4948(5) 0.8468(9) 0.2467 Uani
O33 O 0.1296(3) 0.3704(3) 0.6296(3) 0.1280 Uani
O34 O 0.1872(12) 0.3128(12) 0.6872(12) 0.5200 Uani
O35 O 0.2195(7) 0.4091(7) 0.0008(4) 0.3407 Uani
O36 O 0.0799(7) 0.4970(5) 0.7812(7) 0.3267 Uani
O37 O 0.2499(10) 0.3019(11) 0.9547(11) 0.5533 Uani
O38 O 0.124(2) 0.5000 0.7500 0.7143 Uani
loop_
_atom_site_aniso_label
_atom_site_aniso_U_11
_atom_site_aniso_U_22
_atom_site_aniso_U_33
_atom_site_aniso_U_23
_atom_site_aniso_U_13
_atom_site_aniso_U_12
Zn1 0.0396(6) 0.0207(5) 0.0301(5) 0.0031(4) -0.0115(4) -0.0026(4)
Zn2 0.0711(9) 0.1037(12) 0.0246(6) -0.0113(7) -0.0115(6) 0.0601(9)
Zn3 0.0353(6) 0.0352(6) 0.0263(5) 0.0019(4) -0.0064(4) -0.0037(4)
Zn4 0.0329(6) 0.0259(5) 0.0359(6) -0.0084(4) -0.0054(4) 0.0038(4)
Zn5 0.0291(5) 0.0271(5) 0.0277(5) -0.0051(4) 0.0042(4) -0.0077(4)
Zn6 0.0244(5) 0.0232(5) 0.0276(5) -0.0001(4) -0.0002(4) 0.0001(4)
Zn7 0.0208(5) 0.0262(5) 0.0293(5) 0.0009(4) 0.0000(4) -0.0038(4)
Zn8 0.0208(5) 0.0254(5) 0.0300(5) 0.0023(4) 0.0023(4) -0.0041(4)
O1 0.054(5) 0.130(8) 0.023(4) 0.002(4) 0.008(3) 0.038(5)
O2 0.027(4) 0.102(6) 0.041(4) 0.021(4) -0.008(3) 0.004(4)
O3 0.028(4) 0.096(6) 0.047(4) 0.013(4) 0.011(3) 0.014(4)
O4 0.032(4) 0.086(6) 0.047(5) -0.003(4) 0.005(3) 0.007(4)
O5 0.029(4) 0.122(8) 0.099(7) 0.059(6) -0.013(4) -0.001(5)
O6 0.053(5) 0.085(6) 0.026(4) 0.000(4) 0.000(3) -0.021(4)
O7 0.064(5) 0.127(8) 0.034(4) 0.016(5) -0.002(4) -0.009(5)
O8 0.039(4) 0.024(3) 0.035(3) 0.010(3) -0.001(3) 0.003(3)
O9 0.048(4) 0.028(4) 0.078(5) -0.006(3) -0.035(4) 0.006(3)
O10 0.055(4) 0.032(4) 0.036(4) -0.005(3) -0.014(3) -0.015(3)
O11 0.049(4) 0.037(4) 0.056(4) -0.001(3) -0.030(4) 0.002(3)
O12 0.048(4) 0.032(4) 0.058(5) 0.010(3) -0.029(4) 0.001(3)
O13 0.045(4) 0.053(5) 0.061(5) -0.020(4) -0.004(4) -0.009(4)
O14 0.065(6) 0.049(5) 0.119(8) -0.034(5) -0.053(5) 0.016(4)
O15 0.068(5) 0.079(6) 0.036(4) 0.024(4) 0.011(4) -0.006(4)
O16 0.097(7) 0.086(6) 0.033(4) -0.008(4) 0.015(4) -0.054(5)
O17 0.139(9) 0.066(6) 0.049(5) 0.004(4) -0.029(5) -0.045(6)
O18 0.090(7) 0.069(6) 0.057(5) 0.002(4) -0.036(5) -0.013(5)
O19 0.036(4) 0.045(4) 0.029(3) -0.007(3) -0.004(3) -0.008(3)
O20 0.081(6) 0.063(5) 0.035(4) 0.011(4) -0.013(4) -0.051(4)
O21 0.113(7) 0.056(5) 0.036(4) -0.008(4) 0.021(4) -0.053(5)
O22 0.051(4) 0.034(4) 0.027(3) 0.006(3) 0.012(3) -0.007(3)
O23 0.026(4) 0.024(4) 0.194(11) -0.002(5) -0.007(5) 0.005(3)
O24 0.024(3) 0.022(3) 0.074(5) 0.000(3) -0.001(3) 0.002(3)
O25 0.034(4) 0.027(4) 0.139(8) -0.008(4) 0.003(4) -0.007(3)
O26 0.021(3) 0.029(3) 0.079(5) 0.002(3) 0.005(3) -0.009(3)
O27 0.019(3) 0.026(3) 0.030(3) 0.003(2) 0.003(2) -0.004(2)
O28 0.038(3) 0.024(3) 0.027(3) -0.004(2) -0.008(3) 0.004(3)
C1 0.046(6) 0.079(8) 0.022(5) 0.005(5) -0.006(5) -0.003(6)
C2 0.035(6) 0.121(11) 0.022(5) 0.004(6) -0.002(4) -0.007(6)
C3 0.035(6) 0.094(9) 0.028(5) 0.005(5) -0.011(4) -0.002(6)
C4 0.022(5) 0.093(9) 0.032(5) 0.008(5) -0.002(4) 0.003(5)
C5 0.030(5) 0.062(7) 0.051(7) 0.006(5) 0.006(5) 0.002(5)
C6 0.041(6) 0.086(9) 0.025(5) 0.008(5) 0.003(4) 0.005(6)
C7 0.021(5) 0.114(10) 0.029(5) 0.002(6) 0.008(4) 0.008(5)
C8 0.026(5) 0.091(9) 0.023(5) -0.004(5) -0.001(4) 0.004(5)
C9 0.021(5) 0.093(9) 0.031(5) -0.003(5) -0.001(4) 0.005(5)
C10 0.032(5) 0.095(9) 0.023(5) -0.001(5) 0.001(4) 0.017(5)
C11 0.029(5) 0.089(9) 0.027(5) 0.002(5) 0.003(4) 0.014(5)
C12 0.024(5) 0.098(9) 0.036(6) -0.006(6) -0.003(4) 0.008(5)
C13 0.029(6) 0.080(9) 0.061(8) 0.009(6) -0.016(5) 0.002(5)
C14 0.036(6) 0.093(9) 0.038(6) 0.010(6) -0.009(5) 0.014(6)
C15 0.033(5) 0.099(9) 0.023(5) 0.005(5) 0.002(4) 0.019(6)
C16 0.064(8) 0.077(8) 0.023(5) 0.000(5) -0.007(5) 0.003(6)
C17 0.034(5) 0.022(4) 0.033(5) -0.003(4) -0.012(4) 0.004(4)
C18 0.042(5) 0.023(4) 0.030(5) -0.001(4) -0.009(4) 0.003(4)
C19 0.036(5) 0.018(4) 0.036(5) 0.000(4) -0.009(4) 0.001(4)
C20 0.032(5) 0.028(5) 0.038(5) 0.000(4) -0.012(4) -0.003(4)
C21 0.030(5) 0.027(5) 0.034(5) -0.003(4) -0.008(4) -0.002(4)
C22 0.039(5) 0.028(5) 0.046(6) -0.005(4) -0.026(4) 0.006(4)
C23 0.042(6) 0.029(5) 0.043(6) -0.001(4) -0.023(4) -0.003(4)
C24 0.041(5) 0.024(5) 0.052(6) -0.004(4) -0.025(5) 0.003(4)
C25 0.037(5) 0.031(5) 0.048(6) -0.001(4) -0.021(4) -0.004(4)
C26 0.042(5) 0.022(4) 0.049(6) 0.004(4) -0.024(5) -0.002(4)
C27 0.040(5) 0.030(5) 0.049(6) 0.002(4) -0.017(5) 0.005(4)
O29 0.061(5) 0.046(4) 0.060(5) 0.020(4) 0.012(4) 0.028(4)
C28 0.042(6) 0.024(5) 0.045(6) 0.002(4) -0.007(4) 0.000(4)
C29 0.049(6) 0.028(5) 0.055(6) -0.003(4) -0.024(5) -0.005(4)
C30 0.065(7) 0.025(5) 0.059(7) -0.005(5) -0.028(6) 0.007(5)
C31 0.050(6) 0.024(5) 0.058(7) -0.002(4) -0.029(5) 0.001(4)
C32 0.065(8) 0.042(6) 0.047(7) -0.006(5) 0.013(6) -0.021(5)
C33 0.069(7) 0.049(6) 0.030(5) 0.001(5) 0.012(5) -0.026(6)
C34 0.064(7) 0.052(7) 0.031(5) -0.003(5) -0.005(5) -0.020(5)
C35 0.049(6) 0.050(6) 0.031(5) 0.000(4) 0.000(4) -0.016(5)
C36 0.071(8) 0.057(7) 0.030(5) 0.002(5) -0.005(5) -0.030(6)
C37 0.070(8) 0.053(7) 0.029(5) 0.002(5) 0.007(5) -0.032(6)
C38 0.064(7) 0.041(6) 0.029(5) -0.005(4) 0.009(5) -0.021(5)
C39 0.057(6) 0.046(6) 0.023(5) 0.000(4) 0.002(4) -0.018(5)
C40 0.051(6) 0.045(6) 0.029(5) 0.002(4) 0.000(4) -0.027(5)
C41 0.051(6) 0.044(6) 0.027(5) 0.002(4) 0.002(4) -0.025(5)
C42 0.041(5) 0.033(5) 0.032(5) -0.006(4) 0.000(4) -0.016(4)
C43 0.053(6) 0.044(6) 0.028(5) 0.007(4) -0.009(4) -0.012(5)
C44 0.046(5) 0.033(5) 0.021(4) -0.003(4) 0.000(4) -0.011(4)
C45 0.043(6) 0.039(5) 0.031(5) 0.000(4) 0.000(4) -0.024(4)
C46 0.047(6) 0.036(5) 0.034(5) 0.001(4) 0.001(4) -0.017(4)
C47 0.061(7) 0.045(6) 0.030(5) -0.007(4) 0.009(5) -0.026(5)
C48 0.032(5) 0.024(5) 0.068(7) -0.001(4) -0.001(5) -0.002(4)
C49 0.022(5) 0.026(5) 0.089(8) 0.001(5) 0.004(5) 0.000(4)
C50 0.031(5) 0.024(5) 0.104(10) 0.003(5) 0.001(6) -0.001(4)
C51 0.027(5) 0.032(5) 0.088(9) -0.001(5) -0.005(5) -0.006(4)
C52 0.027(5) 0.030(5) 0.059(6) -0.001(4) -0.006(4) -0.006(4)
C53 0.023(5) 0.033(5) 0.114(10) -0.005(6) 0.010(6) -0.005(4)
C54 0.023(5) 0.019(5) 0.110(10) -0.002(5) -0.003(5) 0.003(4)
C55 0.018(5) 0.035(6) 0.109(10) 0.003(6) -0.002(5) -0.001(4)
O30 0.162(13) 0.152(13) 0.106(10) 0.037(9) -0.004(9) 0.005(10)
O31 0.42(4) 0.43(4) 0.53(5) 0.12(4) -0.19(4) 0.06(3)
O32 0.047(4) 0.091(6) 0.025(4) 0.002(4) 0.001(3) 0.009(4)
C56 0.038(6) 0.035(5) 0.053(7) 0.012(5) -0.008(5) 0.003(4)
O23O 0.026 0.024 0.194 -0.002 0.007 -0.005
O24O 0.024 0.022 0.074 0 0.001 -0.002
O25O 0.034 0.027 0.139 -0.008 -0.003 0.007
O26O 0.021 0.029 0.079 0.002 -0.005 0.009
C48O 0.032 0.024 0.068 -0.001 0.001 0.002
C49O 0.022 0.026 0.089 0.001 -0.004 0
C50O 0.031 0.024 0.104 0.003 -0.001 0.001
C51O 0.027 0.032 0.088 -0.001 0.005 0.006
C52O 0.027 0.03 0.059 -0.001 0.006 0.006
C53O 0.023 0.033 0.114 -0.005 -0.01 0.005
C54O 0.023 0.019 0.11 -0.002 0.003 -0.003
C55O 0.018 0.035 0.109 0.003 0.002 0.001
Zn1E 0.0301 0.0396 0.0207 -0.0026 -0.0031 0.0115
Zn2E 0.0246 0.0711 0.1037 0.0601 0.0113 0.0115
Zn3E 0.0263 0.0353 0.0352 -0.0037 -0.0019 0.0064
Zn4E 0.0359 0.0329 0.0259 0.0038 0.0084 0.0054
Zn5E 0.0277 0.0291 0.0271 -0.0077 0.0051 -0.0042
Zn6E 0.0276 0.0244 0.0232 0.0001 0.0001 0.0002
Zn7E 0.0293 0.0208 0.0262 -0.0038 -0.0009 0
Zn8E 0.03 0.0208 0.0254 -0.0041 -0.0023 -0.0023
O1E 0.023 0.054 0.13 0.038 -0.002 -0.008
O2E 0.041 0.027 0.102 0.004 -0.021 0.008
O3E 0.047 0.028 0.096 0.014 -0.013 -0.011
O4E 0.047 0.032 0.086 0.007 0.003 -0.005
O5E 0.099 0.029 0.122 -0.001 -0.059 0.013
O6E 0.026 0.053 0.085 -0.021 0 0
O7E 0.034 0.064 0.127 -0.009 -0.016 0.002
O8E 0.035 0.039 0.024 0.003 -0.01 0.001
O9E 0.078 0.048 0.028 0.006 0.006 0.035
O10E 0.036 0.055 0.032 -0.015 0.005 0.014
O11E 0.056 0.049 0.037 0.002 0.001 0.03
O12E 0.058 0.048 0.032 0.001 -0.01 0.029
O13E 0.061 0.045 0.053 -0.009 0.02 0.004
O14E 0.119 0.065 0.049 0.016 0.034 0.053
O15E 0.036 0.068 0.079 -0.006 -0.024 -0.011
O16E 0.033 0.097 0.086 -0.054 0.008 -0.015
O17E 0.049 0.139 0.066 -0.045 -0.004 0.029
O18E 0.057 0.09 0.069 -0.013 -0.002 0.036
O19E 0.029 0.036 0.045 -0.008 0.007 0.004
O20E 0.035 0.081 0.063 -0.051 -0.011 0.013
O21E 0.036 0.113 0.056 -0.053 0.008 -0.021
O22E 0.027 0.051 0.034 -0.007 -0.006 -0.012
O27E 0.03 0.019 0.026 -0.004 -0.003 -0.003
O28E 0.027 0.038 0.024 0.004 0.004 0.008
C1E 0.022 0.046 0.079 -0.003 -0.005 0.006
C2E 0.022 0.035 0.121 -0.007 -0.004 0.002
C3E 0.028 0.035 0.094 -0.002 -0.005 0.011
C4E 0.032 0.022 0.093 0.003 -0.008 0.002
C5E 0.051 0.03 0.062 0.002 -0.006 -0.006
C6E 0.025 0.041 0.086 0.005 -0.008 -0.003
C7E 0.029 0.021 0.114 0.008 -0.002 -0.008
C8E 0.023 0.026 0.091 0.004 0.004 0.001
C9E 0.031 0.021 0.093 0.005 0.003 0.001
C10E 0.023 0.032 0.095 0.017 0.001 -0.001
C11E 0.027 0.029 0.089 0.014 -0.002 -0.003
C12E 0.036 0.024 0.098 0.008 0.006 0.003
C13E 0.061 0.029 0.08 0.002 -0.009 0.016
C14E 0.038 0.036 0.093 0.014 -0.01 0.009
C15E 0.023 0.033 0.099 0.019 -0.005 -0.002
C16E 0.023 0.064 0.077 0.003 0 0.007
C17E 0.033 0.034 0.022 0.004 0.003 0.012
C18E 0.03 0.042 0.023 0.003 0.001 0.009
C19E 0.036 0.036 0.018 0.001 0 0.009
C20E 0.038 0.032 0.028 -0.003 0 0.012
C21E 0.034 0.03 0.027 -0.002 0.003 0.008
C22E 0.046 0.039 0.028 0.006 0.005 0.026
C23E 0.043 0.042 0.029 -0.003 0.001 0.023
C24E 0.052 0.041 0.024 0.003 0.004 0.025
C25E 0.048 0.037 0.031 -0.004 0.001 0.021
C26E 0.049 0.042 0.022 -0.002 -0.004 0.024
C27E 0.049 0.04 0.03 0.005 -0.002 0.017
O29E 0.06 0.061 0.046 0.028 -0.02 -0.012
C28E 0.045 0.042 0.024 0 -0.002 0.007
C29E 0.055 0.049 0.028 -0.005 0.003 0.024
C30E 0.059 0.065 0.025 0.007 0.005 0.028
C31E 0.058 0.05 0.024 0.001 0.002 0.029
C32E 0.047 0.065 0.042 -0.021 0.006 -0.013
C33E 0.03 0.069 0.049 -0.026 -0.001 -0.012
C34E 0.031 0.064 0.052 -0.02 0.003 0.005
C35E 0.031 0.049 0.05 -0.016 0 0
C36E 0.03 0.071 0.057 -0.03 -0.002 0.005
C37E 0.029 0.07 0.053 -0.032 -0.002 -0.007
C38E 0.029 0.064 0.041 -0.021 0.005 -0.009
C39E 0.023 0.057 0.046 -0.018 0 -0.002
C40E 0.029 0.051 0.045 -0.027 -0.002 0
C41E 0.027 0.051 0.044 -0.025 -0.002 -0.002
C42E 0.032 0.041 0.033 -0.016 0.006 0
C43E 0.028 0.053 0.044 -0.012 -0.007 0.009
C44E 0.021 0.046 0.033 -0.011 0.003 0
C45E 0.031 0.043 0.039 -0.024 0 0
C46E 0.034 0.047 0.036 -0.017 -0.001 -0.001
C47E 0.03 0.061 0.045 -0.026 0.007 -0.009
O30E 0.106 0.162 0.152 0.005 -0.037 0.004
O31E 0.53 0.42 0.43 0.06 -0.12 0.19
O32E 0.025 0.047 0.091 0.009 -0.002 -0.001
C56E 0.053 0.038 0.035 0.003 -0.012 0.008
Zn1JA 0.0396 0.0207 0.0301 0.0031 -0.0115 -0.0026
Zn1UA 0.0207 0.0301 0.0396 0.0115 0.0026 0.0031
Zn2N 0.0711 0.1037 0.0246 0.0113 -0.0115 -0.0601
Zn2S 0.0246 0.0711 0.1037 -0.0601 -0.0113 0.0115
Zn2JA 0.0711 0.1037 0.0246 -0.0113 -0.0115 0.0601
Zn2OA 0.0246 0.0711 0.1037 0.0601 0.0113 0.0115
Zn2UA 0.1037 0.0246 0.0711 0.0115 -0.0601 -0.0113
Zn3J 0.0352 0.0263 0.0353 -0.0064 0.0037 -0.0019
Zn3T 0.0352 0.0263 0.0353 -0.0064 -0.0037 0.0019
Zn3OA 0.0263 0.0353 0.0352 -0.0037 -0.0019 0.0064
Zn3UA 0.0352 0.0263 0.0353 0.0064 0.0037 0.0019
Zn4J 0.0259 0.0359 0.0329 -0.0054 -0.0038 0.0084
Zn4N 0.0329 0.0259 0.0359 0.0084 -0.0054 -0.0038
Zn4S 0.0359 0.0329 0.0259 -0.0038 -0.0084 0.0054
Zn4T 0.0259 0.0359 0.0329 -0.0054 0.0038 -0.0084
Zn5K 0.0271 0.0277 0.0291 -0.0042 0.0077 -0.0051
Zn5Y 0.0291 0.0271 0.0277 0.0051 -0.0042 -0.0077
Zn5HA 0.0271 0.0277 0.0291 0.0042 0.0077 0.0051
Zn6K 0.0232 0.0276 0.0244 0.0002 -0.0001 -0.0001
Zn6O 0.0244 0.0232 0.0276 -0.0001 0.0002 -0.0001
Zn6P 0.0276 0.0244 0.0232 0.0001 -0.0001 -0.0002
Zn6R 0.0276 0.0244 0.0232 -0.0001 0.0001 -0.0002
Zn6V 0.0232 0.0276 0.0244 -0.0002 -0.0001 0.0001
Zn7O 0.0208 0.0262 0.0293 0.0009 0 0.0038
Zn7R 0.0293 0.0208 0.0262 0.0038 -0.0009 0
Zn8O 0.0208 0.0254 0.03 0.0023 -0.0023 0.0041
Zn8P 0.03 0.0208 0.0254 -0.0041 0.0023 0.0023
Zn8V 0.0254 0.03 0.0208 0.0023 0.0041 -0.0023
Zn8Y 0.0208 0.0254 0.03 -0.0023 -0.0023 -0.0041
Zn8HA 0.0254 0.03 0.0208 0.0023 0.0041 -0.0023
O2OA 0.041 0.027 0.102 0.004 -0.021 0.008
O2UA 0.102 0.041 0.027 0.008 -0.004 0.021
O3OA 0.047 0.028 0.096 0.014 -0.013 -0.011
O3UA 0.096 0.047 0.028 -0.011 -0.014 0.013
O6K 0.085 0.026 0.053 0 0.021 0
O7K 0.127 0.034 0.064 0.002 0.009 0.016
O12O 0.048 0.032 0.058 0.01 0.029 -0.001
O12R 0.058 0.048 0.032 -0.001 -0.01 -0.029
O13O 0.045 0.053 0.061 -0.02 0.004 0.009
O13T 0.053 0.061 0.045 -0.004 -0.009 -0.02
O14O 0.065 0.049 0.119 -0.034 0.053 -0.016
O14T 0.049 0.119 0.065 -0.053 0.016 -0.034
O17JA 0.139 0.066 0.049 0.004 -0.029 -0.045
O17UA 0.066 0.049 0.139 0.029 0.045 0.004
O18JA 0.09 0.069 0.057 0.002 -0.036 -0.013
O18UA 0.069 0.057 0.09 0.036 0.013 0.002
O19N 0.036 0.045 0.029 0.007 -0.004 0.008
O19S 0.029 0.036 0.045 0.008 -0.007 0.004
O20N 0.081 0.063 0.035 -0.011 -0.013 0.051
O20S 0.035 0.081 0.063 0.051 0.011 0.013
O21EA 0.036 0.113 0.056 0.053 -0.008 -0.021
O21GA 0.056 0.036 0.113 -0.021 -0.053 0.008
O22EA 0.027 0.051 0.034 0.007 0.006 -0.012
O22GA 0.034 0.027 0.051 -0.012 -0.007 -0.006
O23E 0.194 0.026 0.024 0.005 0.002 0.007
O24E 0.074 0.024 0.022 0.002 0 0.001
O25P 0.139 0.034 0.027 -0.007 -0.008 0.003
O25V 0.027 0.139 0.034 0.003 0.007 0.008
O26P 0.079 0.021 0.029 -0.009 0.002 0.005
O26V 0.029 0.079 0.021 0.005 0.009 -0.002
O29O 0.061 0.046 0.06 0.02 -0.012 -0.028
O29R 0.06 0.061 0.046 -0.028 -0.02 0.012
C57 0.35(4) 0.30(4) 0.34(4) -0.12(3) 0.17(3) 0.05(3)
N1 0.22(2) 0.27(3) 0.20(2) -0.02(2) -0.01(2) -0.03(2)
C58 0.33(4) 0.40(5) 0.27(4) -0.07(3) -0.08(3) -0.03(3)
N2 0.21(2) 0.17(2) 0.36(3) 0.02(2) 0.01(2) -0.005(17)
O33 0.128(8) 0.128(8) 0.128(8) -0.039(10) 0.039(10) -0.039(10)
O34 0.52(6) 0.52(6) 0.52(6) -0.24(7) 0.24(7) -0.24(7)
O35 0.51(4) 0.37(3) 0.142(17) 0.010(19) -0.04(2) -0.18(3)
O36 0.36(4) 0.24(3) 0.38(4) -0.04(2) -0.15(3) -0.01(2)
O37 0.64(6) 0.47(5) 0.55(5) 0.07(4) 0.05(4) 0.05(4)
O38 1.9(3) 0.17(3) 0.073(19) 0.03(2) 0.000 0.000
loop_
_geom_bond_atom_site_label_1
_geom_bond_atom_site_label_2
_geom_bond_site_symmetry_1
_geom_bond_site_symmetry_2
Zn1 O1 1_555 1_555
Zn2 O28 1_555 1_555
Zn3 O9 1_555 1_555
Zn4 O16 1_555 1_555
Zn5 O4 1_555 1_555
Zn6 O5 1_555 1_555
Zn7 O11 1_555 1_555
Zn8 O23 1_555 1_555
O1 C1 1_555 1_555
O2 C5 1_555 1_555
O3 C5 1_555 1_555
O4 C13 1_555 1_555
O5 C13 1_555 1_555
O6 C16 1_555 1_555
O7 C16 1_555 1_555
O8 Zn1 1_555 1_555
O9 C17 1_555 1_555
O10 Zn5 1_555 1_555
O11 C21 1_555 1_555
O12 C56 1_555 1_555
O13 C30 1_555 1_555
O14 C30 1_555 1_555
O15 Zn1 1_555 1_555
O16 C32 1_555 1_555
O17 C36 1_555 1_555
O18 C36 1_555 1_555
O19 C43 1_555 1_555
O20 C43 1_555 1_555
O21 C46 1_555 1_555
O22 C46 1_555 1_555
O23 C48 1_555 1_555
O24 Zn7 1_555 1_555
O25 C52 1_555 1_555
O26 C52 1_555 1_555
O27 Zn5 1_555 1_555
O28 Zn1 1_555 1_555
C1 C2 1_555 1_555
C2 C3 1_555 1_555
C3 H1 1_555 1_555
C4 C3 1_555 1_555
C5 C4 1_555 1_555
C6 C4 1_555 1_555
H2 C6 1_555 1_555
C7 C2 1_555 1_555
H3 C7 1_555 1_555
C8 C6 1_555 1_555
C9 C8 1_555 1_555
C10 C9 1_555 1_555
H4 C10 1_555 1_555
C11 C9 1_555 1_555
H5 C11 1_555 1_555
C12 C11 1_555 1_555
C13 C12 1_555 1_555
C14 C12 1_555 1_555
H6 C14 1_555 1_555
C15 C10 1_555 1_555
C16 C15 1_555 1_555
C17 O8 1_555 1_555
C18 C17 1_555 1_555
C19 C18 1_555 1_555
H7 C19 1_555 1_555
C20 C19 1_555 1_555
C21 O10 1_555 1_555
C22 C20 1_555 1_555
H8 C22 1_555 1_555
C23 C18 1_555 1_555
H9 C23 1_555 1_555
C24 C22 1_555 1_555
C25 C24 1_555 1_555
C26 C25 1_555 1_555
H10 C26 1_555 1_555
C27 C26 1_555 1_555
O29 C56 1_555 1_555
C28 C27 1_555 1_555
H11 C28 1_555 1_555
C29 C28 1_555 1_555
C30 C29 1_555 1_555
C31 C25 1_555 1_555
H12 C31 1_555 1_555
C32 O15 1_555 1_555
C33 C32 1_555 1_555
C34 C33 1_555 1_555
H13 C34 1_555 1_555
C35 C34 1_555 1_555
C36 C35 1_555 1_555
C37 C35 1_555 1_555
H14 C37 1_555 1_555
C38 C33 1_555 1_555
H15 C38 1_555 1_555
C39 C37 1_555 1_555
C40 C39 1_555 1_555
C41 C40 1_555 1_555
H16 C41 1_555 1_555
C42 C41 1_555 1_555
C43 C42 1_555 1_555
C44 C42 1_555 1_555
H17 C44 1_555 1_555
C45 C44 1_555 1_555
C46 C45 1_555 1_555
C47 C40 1_555 1_555
H18 C47 1_555 1_555
C48 O24 1_555 1_555
C49 C48 1_555 1_555
C50 C49 1_555 1_555
H19 C50 1_555 1_555
C51 C50 1_555 1_555
C52 C51 1_555 1_555
C53 C51 1_555 1_555
H20 C53 1_555 1_555
C54 C53 1_555 1_555
C55 C49 1_555 1_555
H21 C55 1_555 1_555
O30 Zn5 1_555 1_555
O31 Zn6 1_555 1_555
O32 Zn2 1_555 1_555
C56 C27 1_555 1_555
C57 N1 1_555 1_555
C58 N2 1_555 1_555
O23O C48O 1_555 1_555
O24O C48O 1_555 1_555
O25O C52O 1_555 1_555
O26O C52O 1_555 1_555
C48O C49O 1_555 1_555
C49O C50O 1_555 1_555
C50O H19O 1_555 1_555
C51O C50O 1_555 1_555
C52O C51O 1_555 1_555
C53O C51O 1_555 1_555
H20O C53O 1_555 1_555
C54O C54 1_555 1_555
C55O C49O 1_555 1_555
H21O C55O 1_555 1_555
Zn1E O1E 1_555 1_555
Zn2E O28E 1_555 1_555
Zn3E O9E 1_555 1_555
Zn4E O16E 1_555 1_555
Zn5E O6 1_555 1_555
Zn6E O7 1_555 1_555
Zn7E O11E 1_555 1_555
Zn8E O27E 1_555 1_555
O1E C1E 1_555 1_555
O2E C5E 1_555 1_555
O3E C5E 1_555 1_555
O4E Zn5E 1_555 1_555
O5E Zn6E 1_555 1_555
O6E C16E 1_555 1_555
O7E C16E 1_555 1_555
O8E Zn1E 1_555 1_555
O9E C17E 1_555 1_555
O10E Zn5E 1_555 1_555
O11E C21E 1_555 1_555
O12E C56E 1_555 1_555
O13E C30E 1_555 1_555
O14E C30E 1_555 1_555
O15E Zn1E 1_555 1_555
O16E C32E 1_555 1_555
O17E C36E 1_555 1_555
O18E C36E 1_555 1_555
O19E C43E 1_555 1_555
O20E C43E 1_555 1_555
O21E C46E 1_555 1_555
O22E C46E 1_555 1_555
O27E Zn5E 1_555 1_555
O28E Zn1E 1_555 1_555
C1E C2E 1_555 1_555
C2E C3E 1_555 1_555
C3E H1E 1_555 1_555
C4E C3E 1_555 1_555
C5E C4E 1_555 1_555
C6E C4E 1_555 1_555
H2E C6E 1_555 1_555
C7E C2E 1_555 1_555
H3E C7E 1_555 1_555
C8E C6E 1_555 1_555
C9E C8E 1_555 1_555
C10E C9E 1_555 1_555
H4E C10E 1_555 1_555
C11E C9E 1_555 1_555
H5E C11E 1_555 1_555
C12E C11E 1_555 1_555
C13E O4E 1_555 1_555
C14E C12E 1_555 1_555
H6E C14E 1_555 1_555
C15E C10E 1_555 1_555
C16E C15E 1_555 1_555
C17E O8E 1_555 1_555
C18E C17E 1_555 1_555
C19E C18E 1_555 1_555
H7E C19E 1_555 1_555
C20E C19E 1_555 1_555
C21E O10E 1_555 1_555
C22E C20E 1_555 1_555
H8E C22E 1_555 1_555
C23E C18E 1_555 1_555
H9E C23E 1_555 1_555
C24E C22E 1_555 1_555
C25E C24E 1_555 1_555
C26E C25E 1_555 1_555
H10E C26E 1_555 1_555
C27E C26E 1_555 1_555
O29E C56E 1_555 1_555
C28E C27E 1_555 1_555
H11E C28E 1_555 1_555
C29E C28E 1_555 1_555
C30E C29E 1_555 1_555
C31E C25E 1_555 1_555
H12E C31E 1_555 1_555
C32E O15E 1_555 1_555
C33E C32E 1_555 1_555
C34E C33E 1_555 1_555
H13E C34E 1_555 1_555
C35E C34E 1_555 1_555
C36E C35E 1_555 1_555
C37E C35E 1_555 1_555
H14E C37E 1_555 1_555
C38E C33E 1_555 1_555
H15E C38E 1_555 1_555
C39E C37E 1_555 1_555
C40E C39E 1_555 1_555
C41E C40E 1_555 1_555
H16E C41E 1_555 1_555
C42E C41E 1_555 1_555
C43E C42E 1_555 1_555
C44E C42E 1_555 1_555
H17E C44E 1_555 1_555
C45E C44E 1_555 1_555
C46E C45E 1_555 1_555
C47E C40E 1_555 1_555
H18E C47E 1_555 1_555
O30E Zn5E 1_555 1_555
O31E Zn6E 1_555 1_555
O32E Zn2E 1_555 1_555
C56E C27E 1_555 1_555
Zn1JA O2E 1_555 1_555
Zn1UA O2 1_555 1_555
Zn2N O19 1_555 1_555
Zn2S O19E 1_555 1_555
Zn2JA O3E 1_555 1_555
Zn2OA O18 1_555 1_555
Zn2UA O3 1_555 1_555
Zn3J O25O 1_555 1_555
Zn3T O25 1_555 1_555
Zn3OA O17 1_555 1_555
Zn3UA O17E 1_555 1_555
Zn4J O26O 1_555 1_555
Zn4N O20 1_555 1_555
Zn4S O20E 1_555 1_555
Zn4T O26 1_555 1_555
Zn5K O6E 1_555 1_555
Zn5Y O22E 1_555 1_555
Zn5HA O22 1_555 1_555
Zn6K O7E 1_555 1_555
Zn6O O29 1_555 1_555
Zn6P O13 1_555 1_555
Zn6R O29E 1_555 1_555
Zn6V O13E 1_555 1_555
Zn7O O12 1_555 1_555
Zn7R O12E 1_555 1_555
Zn8O O23O 1_555 1_555
Zn8P O14 1_555 1_555
Zn8V O14E 1_555 1_555
Zn8Y O21E 1_555 1_555
Zn8HA O21 1_555 1_555
O2OA Zn1 1_555 1_555
O2UA Zn1E 1_555 1_555
O3OA Zn2 1_555 1_555
O3UA Zn2E 1_555 1_555
O6K Zn5 1_555 1_555
O7K Zn6 1_555 1_555
O12O Zn7 1_555 1_555
O12R Zn7E 1_555 1_555
O13O Zn6E 1_555 1_555
O13T Zn6 1_555 1_555
O14O Zn8E 1_555 1_555
O14T Zn8 1_555 1_555
O17JA Zn3E 1_555 1_555
O17UA Zn3 1_555 1_555
O18JA Zn2E 1_555 1_555
O18UA Zn2 1_555 1_555
O19N Zn2 1_555 1_555
O19S Zn2E 1_555 1_555
O20N Zn4 1_555 1_555
O20S Zn4E 1_555 1_555
O21EA Zn8 1_555 1_555
O21GA Zn8E 1_555 1_555
O22EA Zn5 1_555 1_555
O22GA Zn5E 1_555 1_555
O23E Zn8E 1_555 1_555
O24E Zn7E 1_555 1_555
O25P Zn3 1_555 1_555
O25V Zn3E 1_555 1_555
O26P Zn4 1_555 1_555
O26V Zn4E 1_555 1_555
O29O Zn6 1_555 1_555
O29R Zn6E 1_555 1_555
Zn3 O28 1_555 1_555
Zn4 O28 1_555 1_555
Zn6 O27 1_555 1_555
Zn7 O27 1_555 1_555
Zn8 O27 1_555 1_555
C1 O32 1_555 1_555
C7 C8 1_555 1_555
C14 C15 1_555 1_555
C20 C21 1_555 1_555
C23 C24 1_555 1_555
C29 C31 1_555 1_555
C38 C39 1_555 1_555
C45 C47 1_555 1_555
C54 C55 1_555 1_555
O24O Zn7O 1_555 1_555
C53O C54O 1_555 1_555
C54O C55O 1_555 1_555
Zn3E O28E 1_555 1_555
Zn4E O28E 1_555 1_555
Zn6E O27E 1_555 1_555
Zn7E O27E 1_555 1_555
O5E C13E 1_555 1_555
O18E Zn2UA 1_555 1_555
C1E O32E 1_555 1_555
C7E C8E 1_555 1_555
C12E C13E 1_555 1_555
C14E C15E 1_555 1_555
C20E C21E 1_555 1_555
C23E C24E 1_555 1_555
C29E C31E 1_555 1_555
C38E C39E 1_555 1_555
C45E C47E 1_555 1_555

#END
