
#######################################################################
#
#                 Cambridge Crystallographic Data Centre
#                                CCDC 
#
#######################################################################
#
# If this CIF has been generated from an entry in the Cambridge 
# Structural Database, then it will include bibliographic, chemical, 
# crystal, experimental, refinement or atomic coordinate data resulting 
# from the CCDC's data processing and validation procedures.
#
#######################################################################

data_ALEJIM
_chemical_formula_moiety         '(C66 H48 N12 O36 Zn6)n'
_symmetry_cell_setting           tetragonal
_symmetry_space_group_name_H-M   'I 4/m'
_symmetry_Int_Tables_number      87
_space_group_name_Hall           '-I 4'
loop_
_symmetry_equiv_pos_site_id
_symmetry_equiv_pos_as_xyz
1 x,y,z
2 -y,x,z
3 -x,-y,z
4 y,-x,z
5 1/2+x,1/2+y,1/2+z
6 1/2-y,1/2+x,1/2+z
7 1/2-x,1/2-y,1/2+z
8 1/2+y,1/2-x,1/2+z
9 -x,-y,-z
10 y,-x,-z
11 x,y,-z
12 -y,x,-z
13 1/2-x,1/2-y,1/2-z
14 1/2+y,1/2-x,1/2-z
15 1/2+x,1/2+y,1/2-z
16 1/2-y,1/2+x,1/2-z
_cell_length_a                   30.5919(7)
_cell_length_b                   30.5919(7)
_cell_length_c                   44.8181(19)
_cell_angle_alpha                90
_cell_angle_beta                 90
_cell_angle_gamma                90
_cell_volume                     41943.7
loop_
_atom_site_label
_atom_site_type_symbol
_atom_site_fract_x
_atom_site_fract_y
_atom_site_fract_z
_atom_site_U_iso_or_equiv
_atom_site_thermal_displace_type
Zn1 Zn 0.07162(4) 0.34182(3) 0.5000 0.0701 Uani
Zn2 Zn 0.05326(4) 0.24633(3) 0.5000 0.0722 Uani
Zn3 Zn 0.09537(2) 0.84830(2) 0.62816(2) 0.0749 Uani
Zn4 Zn 0.13349(2) 0.78925(2) 0.67398(2) 0.0715 Uani
O1 O 0.11116(18) 0.31593(16) 0.53174(10) 0.1037 Uani
O2 O 0.10038(17) 0.24531(16) 0.53162(10) 0.0990 Uani
O3 O 0.16365(18) 0.15485(16) 0.61041(12) 0.1060 Uani
O4 O 0.20137(18) 0.18644(15) 0.64731(11) 0.1027 Uani
O5 O 0.29543(17) 0.42784(15) 0.80985(13) 0.1043 Uani
O6 O 0.34449(19) 0.45376(16) 0.84158(12) 0.1090 Uani
O7 O 0.37438(19) 0.60899(17) 0.84462(12) 0.1130 Uani
O8 O 0.35251(17) 0.65185(16) 0.80731(12) 0.1037 Uani
O9 O 0.10971(18) 0.74675(17) 0.64305(11) 0.1053 Uani
O10 O 0.07430(17) 0.79151(17) 0.61196(12) 0.1047 Uani
O11 O -0.01251(18) 0.72849(16) 0.53103(11) 0.1030 Uani
O12 O -0.02379(19) 0.65725(17) 0.53072(12) 0.1133 Uani
O13 O 0.1680(3) 0.3959(3) 0.5998(2) 0.1790 Uani
O14 O 0.2744(3) 0.4851(2) 0.71751(17) 0.1590 Uani
O15 O 0.1504(4) 0.6124(3) 0.6294(2) 0.2050 Uani
O16 O 0.0923(3) 0.4027(2) 0.5000 0.1147 Uani
O17 O 0.0341(3) 0.1846(3) 0.5000 0.1347 Uani
O18 O 0.1598(2) 0.74855(19) 0.70323(12) 0.1240 Uani
O19 O 0.0710(3) 0.8881(2) 0.59811(15) 0.1537 Uani
N1 N 0.2139(3) 0.3430(2) 0.61793(18) 0.1347 Uani
H1 H 0.2370 0.3384 0.6291 0.1610 Uiso
N2 N 0.2239(3) 0.4120(3) 0.6323(2) 0.1790 Uani
H2 H 0.2474 0.4014 0.6411 0.2150 Uiso
N3 N 0.2817(3) 0.5537(3) 0.73409(19) 0.1530 Uani
H3 H 0.2761 0.5811 0.7296 0.1830 Uiso
N4 N 0.2481(3) 0.5421(3) 0.69097(18) 0.1640 Uani
H4 H 0.2459 0.5708 0.6912 0.1970 Uiso
N5 N 0.1443(3) 0.5441(4) 0.6091(2) 0.1993 Uani
H5 H 0.1332 0.5290 0.5942 0.2390 Uiso
N6 N 0.0999(3) 0.5987(3) 0.5923(2) 0.1683 Uani
H6 H 0.0942 0.5796 0.5781 0.2020 Uiso
C1 C 0.1167(2) 0.27881(19) 0.54158(12) 0.0773 Uani
C2 C 0.1797(2) 0.1875(2) 0.62367(15) 0.0887 Uani
C3 C 0.1465(2) 0.2736(2) 0.56822(14) 0.0910 Uani
C4 C 0.1514(2) 0.2332(2) 0.58161(15) 0.0890 Uani
H7 H 0.1373 0.2083 0.5734 0.1070 Uiso
C5 C 0.1773(3) 0.2292(2) 0.60755(16) 0.0957 Uani
C6 C 0.1963(3) 0.2648(3) 0.61948(19) 0.1103 Uani
H8 H 0.2117 0.2626 0.6378 0.1330 Uiso
C7 C 0.1931(3) 0.3072(3) 0.60423(19) 0.1120 Uani
C8 C 0.1678(3) 0.3098(3) 0.57872(18) 0.1097 Uani
H9 H 0.1652 0.3368 0.5684 0.1310 Uiso
C9 C 0.3195(2) 0.4572(2) 0.82007(16) 0.0907 Uani
C10 C 0.3559(2) 0.6157(2) 0.82092(17) 0.0907 Uani
C11 C 0.3201(3) 0.5003(2) 0.80475(18) 0.0980 Uani
C12 C 0.3395(2) 0.5361(2) 0.81837(17) 0.0973 Uani
H10 H 0.3538 0.5331 0.8371 0.1170 Uiso
C13 C 0.3377(3) 0.5773(2) 0.80384(18) 0.1013 Uani
C14 C 0.3201(3) 0.5822(3) 0.77699(19) 0.1147 Uani
H11 H 0.3207 0.6099 0.7675 0.1370 Uiso
C15 C 0.3008(3) 0.5467(3) 0.7627(2) 0.1263 Uani
C16 C 0.3006(3) 0.5052(3) 0.7768(2) 0.1203 Uani
H12 H 0.2873 0.4809 0.7673 0.1450 Uiso
C17 C 0.0851(2) 0.7544(2) 0.62118(16) 0.0930 Uani
C18 C -0.0062(3) 0.6912(2) 0.54050(15) 0.0953 Uani
C19 C 0.0729(3) 0.7161(2) 0.60249(17) 0.0997 Uani
C20 C 0.0424(3) 0.7209(2) 0.57920(17) 0.0990 Uani
H13 H 0.0313 0.7491 0.5744 0.1190 Uiso
C21 C 0.0289(3) 0.6854(2) 0.56375(17) 0.1067 Uani
C22 C 0.0457(3) 0.6447(3) 0.5698(2) 0.1240 Uani
H14 H 0.0361 0.6199 0.5588 0.1490 Uiso
C23 C 0.0767(4) 0.6401(3) 0.5921(2) 0.1317 Uani
C24 C 0.0908(3) 0.6771(3) 0.6086(2) 0.1287 Uani
H15 H 0.1124 0.6743 0.6237 0.1550 Uiso
C25 C 0.1992(4) 0.3843(4) 0.6144(3) 0.1450 Uani
C26 C 0.2710(4) 0.5240(4) 0.7128(2) 0.1397 Uani
C27 C 0.1304(5) 0.5876(5) 0.6137(3) 0.1707 Uani
C28 C 0.2129(3) 0.4571(4) 0.63724(19) 0.1610 Uani
C29 C 0.2361(3) 0.4757(3) 0.66132(18) 0.1503 Uani
H16 H 0.2566 0.4593 0.6726 0.1800 Uiso
C30 C 0.2271(2) 0.5203(3) 0.66772(19) 0.1510 Uani
C31 C 0.1977(2) 0.5450(4) 0.65185(18) 0.1550 Uani
H17 H 0.1924 0.5748 0.6567 0.1860 Uiso
C32 C 0.1755(3) 0.5243(4) 0.6280(2) 0.1623 Uani
C33 C 0.1819(3) 0.4795(4) 0.6194(2) 0.1727 Uani
H18 H 0.1667 0.4662 0.6033 0.2070 Uiso
Zn3A Zn 0.15170(2) 0.09537(2) 0.62816(2) 0.0749 Uani
Zn4A Zn 0.21075(2) 0.13349(2) 0.67398(2) 0.0715 Uani
O1A O 0.68407(16) 0.11116(18) 0.53174(10) 0.1037 Uani
O2A O 0.75469(16) 0.10038(17) 0.53162(10) 0.0990 Uani
O3A O 0.84515(16) 0.16365(18) 0.61041(12) 0.1060 Uani
O4A O 0.81356(15) 0.20137(18) 0.64731(11) 0.1027 Uani
O5A O 0.57216(15) 0.29543(17) 0.80985(13) 0.1043 Uani
O6A O 0.54624(16) 0.34449(19) 0.84158(12) 0.1090 Uani
O7A O 0.39101(17) 0.37438(19) 0.84462(12) 0.1130 Uani
O8A O 0.34815(16) 0.35251(17) 0.80731(12) 0.1037 Uani
O9A O 0.25325(17) 0.10971(18) 0.64305(11) 0.1053 Uani
O10A O 0.20849(17) 0.07430(17) 0.61196(12) 0.1047 Uani
O11A O 0.27151(16) -0.01251(18) 0.53103(11) 0.1030 Uani
O12A O 0.34275(17) -0.02379(19) 0.53072(12) 0.1133 Uani
O13A O 0.6041(3) 0.1680(3) 0.5998(2) 0.1790 Uani
O14A O 0.5149(2) 0.2744(3) 0.71751(17) 0.1590 Uani
O15A O 0.3876(3) 0.1504(4) 0.6294(2) 0.2050 Uani
O18A O 0.25145(19) 0.1598(2) 0.70323(12) 0.1240 Uani
O19A O 0.1119(2) 0.0710(3) 0.59811(15) 0.1537 Uani
N1A N 0.6570(2) 0.2139(3) 0.61793(18) 0.1347 Uani
H1A H 0.6616 0.2370 0.6291 0.1610 Uiso
N2A N 0.5880(3) 0.2239(3) 0.6323(2) 0.1790 Uani
H2A H 0.5986 0.2474 0.6411 0.2150 Uiso
N3A N 0.4463(3) 0.2817(3) 0.73409(19) 0.1530 Uani
H3A H 0.4189 0.2761 0.7296 0.1830 Uiso
N4A N 0.4579(3) 0.2481(3) 0.69097(18) 0.1640 Uani
H4A H 0.4292 0.2459 0.6912 0.1970 Uiso
N5A N 0.4559(4) 0.1443(3) 0.6091(2) 0.1993 Uani
H5A H 0.4710 0.1332 0.5942 0.2390 Uiso
N6A N 0.4013(3) 0.0999(3) 0.5923(2) 0.1683 Uani
H6A H 0.4204 0.0942 0.5781 0.2020 Uiso
C1A C 0.72119(19) 0.1167(2) 0.54158(12) 0.0773 Uani
C2A C 0.8125(2) 0.1797(2) 0.62367(15) 0.0887 Uani
C3A C 0.7264(2) 0.1465(2) 0.56822(14) 0.0910 Uani
C4A C 0.7668(2) 0.1514(2) 0.58161(15) 0.0890 Uani
H7A H 0.7917 0.1373 0.5734 0.1070 Uiso
C5A C 0.7708(2) 0.1773(3) 0.60755(16) 0.0957 Uani
C6A C 0.7352(3) 0.1963(3) 0.61948(19) 0.1103 Uani
H8A H 0.7374 0.2117 0.6378 0.1330 Uiso
C7A C 0.6928(3) 0.1931(3) 0.60423(19) 0.1120 Uani
C8A C 0.6902(3) 0.1678(3) 0.57872(18) 0.1097 Uani
H9A H 0.6632 0.1652 0.5684 0.1310 Uiso
C9A C 0.5428(2) 0.3195(2) 0.82007(16) 0.0907 Uani
C10A C 0.3843(2) 0.3559(2) 0.82092(17) 0.0907 Uani
C11A C 0.4997(2) 0.3201(3) 0.80475(18) 0.0980 Uani
C12A C 0.4639(2) 0.3395(2) 0.81837(17) 0.0973 Uani
H10A H 0.4669 0.3538 0.8371 0.1170 Uiso
C13A C 0.4227(2) 0.3377(3) 0.80384(18) 0.1013 Uani
C14A C 0.4178(3) 0.3201(3) 0.77699(19) 0.1147 Uani
H11A H 0.3901 0.3207 0.7675 0.1370 Uiso
C15A C 0.4533(3) 0.3008(3) 0.7627(2) 0.1263 Uani
C16A C 0.4948(3) 0.3006(3) 0.7768(2) 0.1203 Uani
H12A H 0.5191 0.2873 0.7673 0.1450 Uiso
C17A C 0.2456(2) 0.0851(2) 0.62118(16) 0.0930 Uani
C18A C 0.3088(2) -0.0062(3) 0.54050(15) 0.0953 Uani
C19A C 0.2839(2) 0.0729(3) 0.60249(17) 0.0997 Uani
C20A C 0.2791(2) 0.0424(3) 0.57920(17) 0.0990 Uani
H13A H 0.2509 0.0313 0.5744 0.1190 Uiso
C21A C 0.3146(2) 0.0289(3) 0.56375(17) 0.1067 Uani
C22A C 0.3553(3) 0.0457(3) 0.5698(2) 0.1240 Uani
H14A H 0.3801 0.0361 0.5588 0.1490 Uiso
C23A C 0.3599(3) 0.0767(4) 0.5921(2) 0.1317 Uani
C24A C 0.3229(3) 0.0908(3) 0.6086(2) 0.1287 Uani
H15A H 0.3257 0.1124 0.6237 0.1550 Uiso
C25A C 0.6157(4) 0.1992(4) 0.6144(3) 0.1450 Uani
C26A C 0.4760(4) 0.2710(4) 0.7128(2) 0.1397 Uani
C27A C 0.4124(5) 0.1304(5) 0.6137(3) 0.1707 Uani
C28A C 0.5429(4) 0.2129(3) 0.63724(19) 0.1610 Uani
C29A C 0.5243(3) 0.2361(3) 0.66132(18) 0.1503 Uani
H16A H 0.5407 0.2566 0.6726 0.1800 Uiso
C30A C 0.4797(3) 0.2271(2) 0.66772(19) 0.1510 Uani
C31A C 0.4550(4) 0.1977(2) 0.65185(18) 0.1550 Uani
H17A H 0.4252 0.1924 0.6567 0.1860 Uiso
C32A C 0.4757(4) 0.1755(3) 0.6280(2) 0.1623 Uani
C33A C 0.5205(4) 0.1819(3) 0.6194(2) 0.1727 Uani
H18A H 0.5338 0.1667 0.6033 0.2070 Uiso
Zn1A Zn 0.65818(3) 0.07162(4) 0.5000 0.0701 Uani
Zn1B Zn -0.07162(4) 0.65818(3) 0.5000 0.0701 Uani
Zn1C Zn 0.34182(3) -0.07162(4) 0.5000 0.0701 Uani
Zn2A Zn 0.75367(3) 0.05326(4) 0.5000 0.0722 Uani
Zn2B Zn -0.05326(4) 0.75367(3) 0.5000 0.0722 Uani
Zn2C Zn 0.24633(3) -0.05326(4) 0.5000 0.0722 Uani
Zn3B Zn 0.90463(2) 0.15170(2) 0.62816(2) 0.0749 Uani
Zn3L Zn 0.40463(2) 0.65170(2) 0.87184(2) 0.0749 Uani
Zn3M Zn 0.34830(2) 0.40463(2) 0.87184(2) 0.0749 Uani
Zn3N Zn 0.59537(2) 0.34830(2) 0.87184(2) 0.0749 Uani
Zn4B Zn 0.86651(2) 0.21075(2) 0.67398(2) 0.0715 Uani
Zn4L Zn 0.36651(2) 0.71075(2) 0.82602(2) 0.0715 Uani
Zn4M Zn 0.28925(2) 0.36651(2) 0.82602(2) 0.0715 Uani
Zn4N Zn 0.63349(2) 0.28925(2) 0.82602(2) 0.0715 Uani
O1J O 0.11116(18) 0.31593(16) 0.46826(10) 0.1037 Uani
O2J O 0.10038(17) 0.24531(16) 0.46838(10) 0.0990 Uani
O3C O 0.15485(16) 0.83635(18) 0.61041(12) 0.1060 Uani
O4C O 0.18644(15) 0.79863(18) 0.64731(11) 0.1027 Uani
O5L O 0.20457(17) 0.07216(15) 0.69015(13) 0.1043 Uani
O5O O 0.07216(15) 0.79543(17) 0.69015(13) 0.1043 Uani
O6L O 0.15551(19) 0.04624(16) 0.65842(12) 0.1090 Uani
O6O O 0.04624(16) 0.84449(19) 0.65842(12) 0.1090 Uani
O7L O 0.12562(19) 0.89101(17) 0.65538(12) 0.1130 Uani
O7M O 0.10899(17) 0.12562(19) 0.65538(12) 0.1130 Uani
O8L O 0.14749(17) 0.84815(16) 0.69269(12) 0.1037 Uani
O8M O 0.15185(16) 0.14749(17) 0.69269(12) 0.1037 Uani
O11B O 0.01251(18) 0.27151(16) 0.53103(11) 0.1030 Uani
O11H O 0.01251(18) 0.27151(16) 0.46897(11) 0.1030 Uani
O12B O 0.02379(19) 0.34275(17) 0.53072(12) 0.1133 Uani
O12H O 0.02379(19) 0.34275(17) 0.46928(12) 0.1133 Uani
loop_
_atom_site_aniso_label
_atom_site_aniso_U_11
_atom_site_aniso_U_22
_atom_site_aniso_U_33
_atom_site_aniso_U_23
_atom_site_aniso_U_13
_atom_site_aniso_U_12
Zn1 0.0909(7) 0.0552(5) 0.0641(5) 0.000 0.000 -0.0088(4)
Zn2 0.0921(7) 0.0542(5) 0.0704(5) 0.000 0.000 -0.0083(4)
Zn3 0.0721(4) 0.0727(4) 0.0798(4) 0.0185(3) -0.0200(3) -0.0035(3)
Zn4 0.0687(4) 0.0690(4) 0.0769(4) 0.0167(3) -0.0185(3) -0.0038(3)
O1 0.128(4) 0.096(3) 0.087(3) 0.014(2) -0.030(3) -0.016(3)
O2 0.120(4) 0.090(3) 0.087(3) -0.005(2) -0.020(3) -0.004(3)
O3 0.122(4) 0.089(3) 0.107(3) 0.001(3) -0.027(3) 0.001(3)
O4 0.133(4) 0.080(3) 0.095(3) 0.000(2) -0.023(3) 0.018(3)
O5 0.111(4) 0.069(3) 0.133(4) -0.003(3) -0.015(3) 0.002(2)
O6 0.123(4) 0.086(3) 0.118(4) 0.005(3) -0.027(3) -0.008(3)
O7 0.136(4) 0.095(3) 0.108(3) 0.005(3) -0.044(3) -0.028(3)
O8 0.118(4) 0.084(3) 0.109(3) -0.001(3) -0.023(3) -0.024(3)
O9 0.115(4) 0.096(3) 0.105(3) -0.005(3) -0.032(3) -0.010(3)
O10 0.101(3) 0.093(3) 0.120(4) -0.008(3) -0.032(3) -0.002(2)
O11 0.124(4) 0.095(3) 0.090(3) 0.006(2) -0.032(3) 0.005(3)
O12 0.134(4) 0.099(3) 0.107(3) -0.008(3) -0.046(3) 0.002(3)
O13 0.199(5) 0.144(4) 0.194(5) -0.008(4) -0.101(4) 0.009(4)
O14 0.198(5) 0.109(4) 0.170(4) 0.005(3) -0.081(4) -0.002(4)
O15 0.225(6) 0.180(5) 0.210(5) -0.010(5) -0.087(5) 0.011(5)
O16 0.155(7) 0.073(4) 0.116(5) 0.000 0.000 -0.030(4)
O17 0.135(7) 0.086(5) 0.183(8) 0.000 0.000 -0.029(4)
O18 0.142(5) 0.122(4) 0.108(4) 0.043(3) -0.027(3) 0.025(3)
O19 0.187(5) 0.151(4) 0.123(4) 0.036(3) -0.023(4) 0.034(4)
N1 0.151(4) 0.103(4) 0.150(4) 0.000(3) -0.052(4) 0.005(3)
N2 0.194(5) 0.155(5) 0.188(5) -0.009(4) -0.045(4) 0.001(4)
N3 0.177(5) 0.133(4) 0.149(4) -0.005(4) -0.048(4) -0.004(4)
N4 0.182(5) 0.151(5) 0.159(5) 0.000(4) -0.058(4) 0.001(4)
N5 0.209(6) 0.187(6) 0.202(6) 0.003(4) -0.047(4) 0.023(4)
N6 0.180(5) 0.154(5) 0.171(5) -0.009(4) -0.057(4) 0.014(4)
C1 0.089(4) 0.074(3) 0.069(3) -0.001(3) -0.018(3) -0.008(3)
C2 0.102(5) 0.076(4) 0.088(4) -0.003(3) -0.018(3) -0.003(3)
C3 0.111(5) 0.080(4) 0.082(4) -0.007(3) -0.023(3) -0.002(3)
C4 0.099(4) 0.078(4) 0.090(4) -0.009(3) -0.011(3) 0.002(3)
C5 0.119(5) 0.074(4) 0.094(4) -0.004(3) -0.029(4) 0.017(3)
C6 0.125(4) 0.099(4) 0.107(4) -0.004(3) -0.024(3) 0.009(3)
C7 0.125(4) 0.090(4) 0.121(4) -0.006(3) -0.034(3) 0.002(3)
C8 0.122(4) 0.096(4) 0.111(4) -0.002(3) -0.025(3) 0.001(3)
C9 0.097(4) 0.074(4) 0.101(4) -0.008(3) -0.032(4) -0.006(3)
C10 0.086(4) 0.073(4) 0.113(5) -0.002(3) -0.028(4) -0.013(3)
C11 0.102(5) 0.077(4) 0.115(5) 0.001(4) -0.029(4) -0.002(3)
C12 0.096(5) 0.093(5) 0.103(5) -0.003(4) -0.008(4) 0.001(3)
C13 0.109(5) 0.085(4) 0.110(5) -0.008(4) -0.018(4) -0.009(4)
C14 0.125(4) 0.102(4) 0.117(4) -0.008(3) -0.033(3) -0.008(3)
C15 0.138(5) 0.115(4) 0.126(4) 0.003(4) -0.038(4) -0.006(4)
C16 0.128(4) 0.100(4) 0.133(4) 0.000(3) -0.024(4) 0.000(3)
C17 0.088(4) 0.085(4) 0.106(5) -0.006(3) -0.036(4) -0.001(3)
C18 0.120(5) 0.084(4) 0.082(4) -0.001(3) -0.036(4) 0.002(4)
C19 0.122(6) 0.077(4) 0.100(5) -0.003(3) -0.030(4) -0.004(4)
C20 0.104(5) 0.088(4) 0.105(5) -0.001(4) -0.019(4) -0.001(4)
C21 0.133(6) 0.086(4) 0.101(5) -0.004(4) -0.039(4) 0.008(4)
C22 0.136(4) 0.117(4) 0.119(4) -0.001(4) -0.039(4) -0.004(4)
C23 0.146(5) 0.115(4) 0.134(4) -0.006(4) -0.041(4) 0.003(4)
C24 0.139(5) 0.117(4) 0.130(4) 0.001(4) -0.038(4) -0.001(4)
C25 0.158(5) 0.125(5) 0.152(5) -0.015(4) -0.040(4) -0.008(4)
C26 0.155(5) 0.122(5) 0.142(5) 0.004(4) -0.042(4) 0.000(4)
C27 0.179(6) 0.158(6) 0.175(6) -0.002(4) -0.042(4) 0.013(4)
C28 0.170(6) 0.145(5) 0.168(5) -0.007(4) -0.045(4) 0.001(4)
C29 0.164(5) 0.136(5) 0.151(5) -0.012(4) -0.044(4) -0.002(4)
C30 0.165(5) 0.139(5) 0.149(5) -0.006(4) -0.042(4) 0.004(4)
C31 0.164(5) 0.146(5) 0.155(5) -0.001(4) -0.039(4) 0.005(4)
C32 0.175(6) 0.147(5) 0.165(5) -0.003(4) -0.045(4) 0.011(4)
C33 0.184(6) 0.159(6) 0.175(6) -0.007(4) -0.034(4) 0.004(4)
Zn3A 0.0727 0.0721 0.0798 -0.02 -0.0185 0.0035
Zn4A 0.069 0.0687 0.0769 -0.0185 -0.0167 0.0038
O1A 0.096 0.128 0.087 -0.03 -0.014 0.016
O2A 0.09 0.12 0.087 -0.02 0.005 0.004
O3A 0.089 0.122 0.107 -0.027 -0.001 -0.001
O4A 0.08 0.133 0.095 -0.023 0 -0.018
O5A 0.069 0.111 0.133 -0.015 0.003 -0.002
O6A 0.086 0.123 0.118 -0.027 -0.005 0.008
O7A 0.095 0.136 0.108 -0.044 -0.005 0.028
O8A 0.084 0.118 0.109 -0.023 0.001 0.024
O9A 0.096 0.115 0.105 -0.032 0.005 0.01
O10A 0.093 0.101 0.12 -0.032 0.008 0.002
O11A 0.095 0.124 0.09 -0.032 -0.006 -0.005
O12A 0.099 0.134 0.107 -0.046 0.008 -0.002
O13A 0.144 0.199 0.194 -0.101 0.008 -0.009
O14A 0.109 0.198 0.17 -0.081 -0.005 0.002
O15A 0.18 0.225 0.21 -0.087 0.01 -0.011
O18A 0.122 0.142 0.108 -0.027 -0.043 -0.025
O19A 0.151 0.187 0.123 -0.023 -0.036 -0.034
N1A 0.103 0.151 0.15 -0.052 0 -0.005
N2A 0.155 0.194 0.188 -0.045 0.009 -0.001
N3A 0.133 0.177 0.149 -0.048 0.005 0.004
N4A 0.151 0.182 0.159 -0.058 0 -0.001
N5A 0.187 0.209 0.202 -0.047 -0.003 -0.023
N6A 0.154 0.18 0.171 -0.057 0.009 -0.014
C1A 0.074 0.089 0.069 -0.018 0.001 0.008
C2A 0.076 0.102 0.088 -0.018 0.003 0.003
C3A 0.08 0.111 0.082 -0.023 0.007 0.002
C4A 0.078 0.099 0.09 -0.011 0.009 -0.002
C5A 0.074 0.119 0.094 -0.029 0.004 -0.017
C6A 0.099 0.125 0.107 -0.024 0.004 -0.009
C7A 0.09 0.125 0.121 -0.034 0.006 -0.002
C8A 0.096 0.122 0.111 -0.025 0.002 -0.001
C9A 0.074 0.097 0.101 -0.032 0.008 0.006
C10A 0.073 0.086 0.113 -0.028 0.002 0.013
C11A 0.077 0.102 0.115 -0.029 -0.001 0.002
C12A 0.093 0.096 0.103 -0.008 0.003 -0.001
C13A 0.085 0.109 0.11 -0.018 0.008 0.009
C14A 0.102 0.125 0.117 -0.033 0.008 0.008
C15A 0.115 0.138 0.126 -0.038 -0.003 0.006
C16A 0.1 0.128 0.133 -0.024 0 0
C17A 0.085 0.088 0.106 -0.036 0.006 0.001
C18A 0.084 0.12 0.082 -0.036 0.001 -0.002
C19A 0.077 0.122 0.1 -0.03 0.003 0.004
C20A 0.088 0.104 0.105 -0.019 0.001 0.001
C21A 0.086 0.133 0.101 -0.039 0.004 -0.008
C22A 0.117 0.136 0.119 -0.039 0.001 0.004
C23A 0.115 0.146 0.134 -0.041 0.006 -0.003
C24A 0.117 0.139 0.13 -0.038 -0.001 0.001
C25A 0.125 0.158 0.152 -0.04 0.015 0.008
C26A 0.122 0.155 0.142 -0.042 -0.004 0
C27A 0.158 0.179 0.175 -0.042 0.002 -0.013
C28A 0.145 0.17 0.168 -0.045 0.007 -0.001
C29A 0.136 0.164 0.151 -0.044 0.012 0.002
C30A 0.139 0.165 0.149 -0.042 0.006 -0.004
C31A 0.146 0.164 0.155 -0.039 0.001 -0.005
C32A 0.147 0.175 0.165 -0.045 0.003 -0.011
C33A 0.159 0.184 0.175 -0.034 0.007 -0.004
Zn1A 0.0552 0.0909 0.0641 0 0 0.0088
Zn1B 0.0909 0.0552 0.0641 0 0 -0.0088
Zn1C 0.0552 0.0909 0.0641 0 0 0.0088
Zn2A 0.0542 0.0921 0.0704 0 0 0.0083
Zn2B 0.0921 0.0542 0.0704 0 0 -0.0083
Zn2C 0.0542 0.0921 0.0704 0 0 0.0083
Zn3B 0.0721 0.0727 0.0798 -0.0185 0.02 -0.0035
Zn3L 0.0721 0.0727 0.0798 0.0185 -0.02 -0.0035
Zn3M 0.0727 0.0721 0.0798 -0.02 -0.0185 0.0035
Zn3N 0.0721 0.0727 0.0798 -0.0185 0.02 -0.0035
Zn4B 0.0687 0.069 0.0769 -0.0167 0.0185 -0.0038
Zn4L 0.0687 0.069 0.0769 0.0167 -0.0185 -0.0038
Zn4M 0.069 0.0687 0.0769 -0.0185 -0.0167 0.0038
Zn4N 0.0687 0.069 0.0769 -0.0167 0.0185 -0.0038
O1J 0.128 0.096 0.087 -0.014 0.03 -0.016
O2J 0.12 0.09 0.087 0.005 0.02 -0.004
O3C 0.089 0.122 0.107 0.027 0.001 -0.001
O4C 0.08 0.133 0.095 0.023 0 -0.018
O5L 0.111 0.069 0.133 -0.003 -0.015 0.002
O5O 0.069 0.111 0.133 0.015 -0.003 -0.002
O6L 0.123 0.086 0.118 0.005 -0.027 -0.008
O6O 0.086 0.123 0.118 0.027 0.005 0.008
O7L 0.136 0.095 0.108 0.005 -0.044 -0.028
O7M 0.095 0.136 0.108 -0.044 -0.005 0.028
O8L 0.118 0.084 0.109 -0.001 -0.023 -0.024
O8M 0.084 0.118 0.109 -0.023 0.001 0.024
O11B 0.124 0.095 0.09 -0.006 0.032 0.005
O11H 0.124 0.095 0.09 0.006 -0.032 0.005
O12B 0.134 0.099 0.107 0.008 0.046 0.002
O12H 0.134 0.099 0.107 -0.008 -0.046 0.002
loop_
_geom_bond_atom_site_label_1
_geom_bond_atom_site_label_2
_geom_bond_site_symmetry_1
_geom_bond_site_symmetry_2
Zn1 O1 1_555 1_555
Zn2 O2 1_555 1_555
Zn3 O10 1_555 1_555
Zn4 O9 1_555 1_555
O1 C1 1_555 1_555
O2 C1 1_555 1_555
O3 C2 1_555 1_555
O4 C2 1_555 1_555
O5 C9 1_555 1_555
O6 C9 1_555 1_555
O7 C10 1_555 1_555
O8 C10 1_555 1_555
O9 C17 1_555 1_555
O10 C17 1_555 1_555
O11 C18 1_555 1_555
O12 C18 1_555 1_555
O13 C25 1_555 1_555
O14 C26 1_555 1_555
O15 C27 1_555 1_555
O16 Zn1 1_555 1_555
O17 Zn2 1_555 1_555
O18 Zn4 1_555 1_555
O19 Zn3 1_555 1_555
N1 H1 1_555 1_555
N2 H2 1_555 1_555
N3 H3 1_555 1_555
N4 H4 1_555 1_555
N5 H5 1_555 1_555
N6 H6 1_555 1_555
C1 C3 1_555 1_555
C2 C5 1_555 1_555
C3 C4 1_555 1_555
C4 H7 1_555 1_555
C5 C4 1_555 1_555
C6 C5 1_555 1_555
H8 C6 1_555 1_555
C7 N1 1_555 1_555
C8 C3 1_555 1_555
H9 C8 1_555 1_555
C9 C11 1_555 1_555
C10 C13 1_555 1_555
C11 C12 1_555 1_555
C12 H10 1_555 1_555
C13 C12 1_555 1_555
C14 C13 1_555 1_555
H11 C14 1_555 1_555
C15 N3 1_555 1_555
C16 C11 1_555 1_555
H12 C16 1_555 1_555
C17 C19 1_555 1_555
C18 C21 1_555 1_555
C19 C20 1_555 1_555
C20 H13 1_555 1_555
C21 C20 1_555 1_555
C22 C21 1_555 1_555
H14 C22 1_555 1_555
C23 N6 1_555 1_555
C24 C19 1_555 1_555
H15 C24 1_555 1_555
C25 N1 1_555 1_555
C26 N3 1_555 1_555
C27 N5 1_555 1_555
C28 N2 1_555 1_555
C29 C28 1_555 1_555
H16 C29 1_555 1_555
C30 N4 1_555 1_555
C31 C30 1_555 1_555
H17 C31 1_555 1_555
C32 N5 1_555 1_555
C33 C28 1_555 1_555
H18 C33 1_555 1_555
Zn3A O3 1_555 1_555
Zn4A O4 1_555 1_555
O1A C1A 1_555 1_555
O2A C1A 1_555 1_555
O3A C2A 1_555 1_555
O4A C2A 1_555 1_555
O5A C9A 1_555 1_555
O6A C9A 1_555 1_555
O7A C10A 1_555 1_555
O8A C10A 1_555 1_555
O9A Zn4A 1_555 1_555
O10A Zn3A 1_555 1_555
O11A C18A 1_555 1_555
O12A C18A 1_555 1_555
O13A C25A 1_555 1_555
O14A C26A 1_555 1_555
O15A C27A 1_555 1_555
O18A Zn4A 1_555 1_555
O19A Zn3A 1_555 1_555
N1A H1A 1_555 1_555
N2A H2A 1_555 1_555
N3A H3A 1_555 1_555
N4A H4A 1_555 1_555
N5A H5A 1_555 1_555
N6A H6A 1_555 1_555
C1A C3A 1_555 1_555
C2A C5A 1_555 1_555
C3A C4A 1_555 1_555
C4A H7A 1_555 1_555
C5A C4A 1_555 1_555
C6A C5A 1_555 1_555
H8A C6A 1_555 1_555
C7A N1A 1_555 1_555
C8A C3A 1_555 1_555
H9A C8A 1_555 1_555
C9A C11A 1_555 1_555
C10A C13A 1_555 1_555
C11A C12A 1_555 1_555
C12A H10A 1_555 1_555
C13A C12A 1_555 1_555
C14A C13A 1_555 1_555
H11A C14A 1_555 1_555
C15A N3A 1_555 1_555
C16A C11A 1_555 1_555
H12A C16A 1_555 1_555
C17A O9A 1_555 1_555
C18A C21A 1_555 1_555
C19A C17A 1_555 1_555
C20A C19A 1_555 1_555
H13A C20A 1_555 1_555
C21A C20A 1_555 1_555
C22A C21A 1_555 1_555
H14A C22A 1_555 1_555
C23A N6A 1_555 1_555
C24A C19A 1_555 1_555
H15A C24A 1_555 1_555
C25A N1A 1_555 1_555
C26A N3A 1_555 1_555
C27A N5A 1_555 1_555
C28A N2A 1_555 1_555
C29A C28A 1_555 1_555
H16A C29A 1_555 1_555
C30A N4A 1_555 1_555
C31A C30A 1_555 1_555
H17A C31A 1_555 1_555
C32A N5A 1_555 1_555
C33A C28A 1_555 1_555
H18A C33A 1_555 1_555
Zn1A O1A 1_555 1_555
Zn1B O12 1_555 1_555
Zn1C O12A 1_555 1_555
Zn2A O2A 1_555 1_555
Zn2B O11 1_555 1_555
Zn2C O11A 1_555 1_555
Zn3B O3A 1_555 1_555
Zn3L O7 1_555 1_555
Zn3M O6 1_555 1_555
Zn3N O6A 1_555 1_555
Zn4B O4A 1_555 1_555
Zn4L O8 1_555 1_555
Zn4M O5 1_555 1_555
Zn4N O5A 1_555 1_555
O1J Zn1 1_555 1_555
O2J Zn2 1_555 1_555
O3C Zn3 1_555 1_555
O4C Zn4 1_555 1_555
O5L Zn4A 1_555 1_555
O5O Zn4 1_555 1_555
O6L Zn3A 1_555 1_555
O6O Zn3 1_555 1_555
O7L Zn3 1_555 1_555
O7M Zn3A 1_555 1_555
O8L Zn4 1_555 1_555
O8M Zn4A 1_555 1_555
O11B Zn2 1_555 1_555
O11H Zn2 1_555 1_555
O12B Zn1 1_555 1_555
O12H Zn1 1_555 1_555
N2 C25 1_555 1_555
N4 C26 1_555 1_555
N6 C27 1_555 1_555
C6 C7 1_555 1_555
C7 C8 1_555 1_555
C14 C15 1_555 1_555
C15 C16 1_555 1_555
C22 C23 1_555 1_555
C23 C24 1_555 1_555
C29 C30 1_555 1_555
C31 C32 1_555 1_555
C32 C33 1_555 1_555
O7A Zn3M 1_555 1_555
O8A Zn4M 1_555 1_555
O10A C17A 1_555 1_555
N2A C25A 1_555 1_555
N4A C26A 1_555 1_555
N6A C27A 1_555 1_555
C6A C7A 1_555 1_555
C7A C8A 1_555 1_555
C14A C15A 1_555 1_555
C15A C16A 1_555 1_555
C22A C23A 1_555 1_555
C23A C24A 1_555 1_555
C29A C30A 1_555 1_555
C31A C32A 1_555 1_555
C32A C33A 1_555 1_555

#END
