
#######################################################################
#
#                 Cambridge Crystallographic Data Centre
#                                CCDC 
#
#######################################################################
#
# If this CIF has been generated from an entry in the Cambridge 
# Structural Database, then it will include bibliographic, chemical, 
# crystal, experimental, refinement or atomic coordinate data resulting 
# from the CCDC's data processing and validation procedures.
#
#######################################################################

data_ALEJEI
_chemical_formula_moiety         '(C66 H48 Cu6 N12 O36)n'
_symmetry_cell_setting           tetragonal
_symmetry_space_group_name_H-M   'I 4/m'
_symmetry_Int_Tables_number      87
_space_group_name_Hall           '-I 4'
loop_
_symmetry_equiv_pos_site_id
_symmetry_equiv_pos_as_xyz
1 x,y,z
2 -y,x,z
3 -x,-y,z
4 y,-x,z
5 1/2+x,1/2+y,1/2+z
6 1/2-y,1/2+x,1/2+z
7 1/2-x,1/2-y,1/2+z
8 1/2+y,1/2-x,1/2+z
9 -x,-y,-z
10 y,-x,-z
11 x,y,-z
12 -y,x,-z
13 1/2-x,1/2-y,1/2-z
14 1/2+y,1/2-x,1/2-z
15 1/2+x,1/2+y,1/2-z
16 1/2-y,1/2+x,1/2-z
_cell_length_a                   30.4638(3)
_cell_length_b                   30.4638(3)
_cell_length_c                   44.2772(7)
_cell_angle_alpha                90
_cell_angle_beta                 90
_cell_angle_gamma                90
_cell_volume                     41091.2
loop_
_atom_site_label
_atom_site_type_symbol
_atom_site_fract_x
_atom_site_fract_y
_atom_site_fract_z
_atom_site_U_iso_or_equiv
_atom_site_thermal_displace_type
Cu1 Cu 0.07384(3) 0.33819(2) 0.5000 0.0546 Uani
Cu2 Cu 0.05574(3) 0.25309(2) 0.5000 0.0530 Uani
Cu3 Cu 0.09764(2) 0.84406(2) 0.62788(2) 0.0563 Uani
Cu4 Cu 0.13100(2) 0.79193(2) 0.66983(2) 0.0561 Uani
O1 O 0.11503(12) 0.31973(9) 0.53131(7) 0.0722 Uani
O2 O 0.10061(11) 0.24771(9) 0.53080(6) 0.0674 Uani
O3 O 0.16474(11) 0.15495(10) 0.60870(7) 0.0731 Uani
O4 O 0.20437(11) 0.18462(10) 0.64602(7) 0.0716 Uani
O5 O 0.29642(11) 0.42772(10) 0.81228(7) 0.0731 Uani
O6 O 0.34482(11) 0.45376(10) 0.84601(7) 0.0730 Uani
O7 O 0.37612(11) 0.60916(10) 0.84783(7) 0.0738 Uani
O8 O 0.35214(11) 0.65313(10) 0.81072(7) 0.0717 Uani
O9 O 0.10966(11) 0.74501(10) 0.64319(7) 0.0733 Uani
O10 O 0.07641(11) 0.78957(10) 0.61013(7) 0.0735 Uani
O11 O -0.01386(11) 0.72839(9) 0.53100(7) 0.0696 Uani
O12 O -0.02826(12) 0.65623(10) 0.53063(7) 0.0763 Uani
O13 O 0.1655(2) 0.39277(17) 0.60570(13) 0.1380 Uani
O14 O 0.27393(18) 0.48517(15) 0.72033(11) 0.1220 Uani
O15 O 0.1372(3) 0.6088(2) 0.63557(16) 0.1750 Uani
O16 O 0.0941(2) 0.40550(14) 0.5000 0.0917 Uani
O17 O 0.0382(2) 0.18534(17) 0.5000 0.1283 Uani
O18 O 0.15685(13) 0.75065(12) 0.70462(8) 0.0927 Uani
O19 O 0.07105(18) 0.88619(16) 0.59398(9) 0.1173 Uani
N1 N 0.21853(19) 0.34336(16) 0.61776(12) 0.1040 Uani
H1 H 0.2439 0.3393 0.6269 0.1240 Uiso
N2 N 0.2243(2) 0.41353(19) 0.63279(15) 0.1270 Uani
H2 H 0.2508 0.4057 0.6385 0.1520 Uiso
N3 N 0.2760(2) 0.55492(19) 0.73918(13) 0.1210 Uani
H3 H 0.2680 0.5821 0.7354 0.1450 Uiso
N4 N 0.2428(2) 0.5418(2) 0.69478(15) 0.1380 Uani
H4 H 0.2408 0.5706 0.6943 0.1650 Uiso
N5 N 0.1352(3) 0.5416(3) 0.61467(19) 0.1660 Uani
H5 H 0.1215 0.5245 0.6017 0.1990 Uiso
N6 N 0.0889(2) 0.5937(2) 0.59741(15) 0.1383 Uani
H6 H 0.0766 0.5723 0.5871 0.1660 Uiso
C1 C 0.11931(16) 0.28156(12) 0.54120(9) 0.0624 Uani
C2 C 0.18336(15) 0.18611(13) 0.62151(10) 0.0647 Uani
C3 C 0.14998(16) 0.27502(14) 0.56683(10) 0.0670 Uani
C4 C 0.15470(15) 0.23365(14) 0.58018(9) 0.0630 Uani
H7 H 0.1403 0.2087 0.5719 0.0760 Uiso
C5 C 0.18089(16) 0.22965(15) 0.60591(10) 0.0690 Uani
C6 C 0.2022(2) 0.26554(15) 0.61750(12) 0.0837 Uani
H8 H 0.2199 0.2624 0.6350 0.1000 Uiso
C7 C 0.1982(2) 0.30704(15) 0.60379(13) 0.0923 Uani
C8 C 0.17271(19) 0.31111(15) 0.57808(12) 0.0823 Uani
H9 H 0.1707 0.3386 0.5681 0.0990 Uiso
C9 C 0.32026(15) 0.45717(13) 0.82357(10) 0.0657 Uani
C10 C 0.35705(14) 0.61673(14) 0.82364(9) 0.0637 Uani
C11 C 0.32077(16) 0.50100(14) 0.80797(10) 0.0700 Uani
C12 C 0.34041(14) 0.53617(14) 0.82116(9) 0.0627 Uani
H10 H 0.3558 0.5326 0.8396 0.0750 Uiso
C13 C 0.33810(16) 0.57725(15) 0.80782(10) 0.0690 Uani
C14 C 0.3172(2) 0.58228(15) 0.78054(12) 0.0893 Uani
H11 H 0.3162 0.6103 0.7712 0.1070 Uiso
C15 C 0.2977(2) 0.54713(17) 0.76686(13) 0.0933 Uani
C16 C 0.2987(2) 0.50583(16) 0.78079(13) 0.0970 Uani
H12 H 0.2844 0.4814 0.7717 0.1160 Uiso
C17 C 0.08622(15) 0.75257(14) 0.62012(10) 0.0670 Uani
C18 C -0.00908(16) 0.68975(14) 0.53994(9) 0.0661 Uani
C19 C 0.07064(17) 0.71397(15) 0.60293(11) 0.0747 Uani
C20 C 0.04095(15) 0.71953(15) 0.57937(10) 0.0677 Uani
H13 H 0.0320 0.7483 0.5738 0.0810 Uiso
C21 C 0.02458(18) 0.68395(15) 0.56420(11) 0.0773 Uani
C22 C 0.0396(2) 0.64125(19) 0.57126(14) 0.0997 Uani
H14 H 0.0281 0.6162 0.5612 0.1200 Uiso
C23 C 0.0718(2) 0.6369(2) 0.59333(16) 0.1080 Uani
C24 C 0.0856(2) 0.67288(18) 0.61012(13) 0.0960 Uani
H15 H 0.1053 0.6690 0.6265 0.1150 Uiso
C25 C 0.2011(3) 0.3836(2) 0.61780(16) 0.1100 Uani
C26 C 0.2665(3) 0.5244(2) 0.71796(16) 0.1120 Uani
C27 C 0.1224(3) 0.5834(3) 0.6159(2) 0.1330 Uani
C28 C 0.2110(3) 0.4564(2) 0.64048(18) 0.1190 Uani
C29 C 0.2319(3) 0.4763(2) 0.66412(18) 0.1210 Uani
H16 H 0.2535 0.4610 0.6754 0.1450 Uiso
C30 C 0.2212(3) 0.5187(2) 0.67125(17) 0.1217 Uani
C31 C 0.1925(3) 0.5412(3) 0.65472(18) 0.1313 Uani
H17 H 0.1884 0.5716 0.6586 0.1580 Uiso
C32 C 0.1693(3) 0.5218(3) 0.6326(2) 0.1320 Uani
C33 C 0.1799(3) 0.4790(2) 0.62305(19) 0.1307 Uani
H18 H 0.1668 0.4661 0.6057 0.1570 Uiso
Cu3A Cu 0.15594(2) 0.09764(2) 0.62788(2) 0.0563 Uani
Cu4A Cu 0.20807(2) 0.13100(2) 0.66983(2) 0.0561 Uani
O1A O 0.68027(9) 0.11503(12) 0.53131(7) 0.0722 Uani
O2A O 0.75229(9) 0.10061(11) 0.53080(6) 0.0674 Uani
O3A O 0.84505(10) 0.16474(11) 0.60870(7) 0.0731 Uani
O4A O 0.81538(10) 0.20437(11) 0.64602(7) 0.0716 Uani
O5A O 0.57228(10) 0.29642(11) 0.81228(7) 0.0731 Uani
O6A O 0.54624(10) 0.34482(11) 0.84601(7) 0.0730 Uani
O7A O 0.39084(10) 0.37612(11) 0.84783(7) 0.0738 Uani
O8A O 0.34687(10) 0.35214(11) 0.81072(7) 0.0717 Uani
O9A O 0.25499(10) 0.10966(11) 0.64319(7) 0.0733 Uani
O10A O 0.21043(10) 0.07641(11) 0.61013(7) 0.0735 Uani
O11A O 0.27161(9) -0.01386(11) 0.53100(7) 0.0696 Uani
O12A O 0.34377(10) -0.02826(12) 0.53063(7) 0.0763 Uani
O13A O 0.60723(17) 0.1655(2) 0.60570(13) 0.1380 Uani
O14A O 0.51483(15) 0.27393(18) 0.72033(11) 0.1220 Uani
O15A O 0.3912(2) 0.1372(3) 0.63557(16) 0.1750 Uani
O18A O 0.24935(12) 0.15685(13) 0.70462(8) 0.0927 Uani
O19A O 0.11381(16) 0.07105(18) 0.59398(9) 0.1173 Uani
N1A N 0.65664(16) 0.21853(19) 0.61776(12) 0.1040 Uani
H1A H 0.6607 0.2439 0.6269 0.1240 Uiso
N2A N 0.58647(19) 0.2243(2) 0.63279(15) 0.1270 Uani
H2A H 0.5943 0.2508 0.6385 0.1520 Uiso
N3A N 0.44508(19) 0.2760(2) 0.73918(13) 0.1210 Uani
H3A H 0.4179 0.2680 0.7354 0.1450 Uiso
N4A N 0.4582(2) 0.2428(2) 0.69478(15) 0.1380 Uani
H4A H 0.4294 0.2408 0.6943 0.1650 Uiso
N5A N 0.4584(3) 0.1352(3) 0.61467(19) 0.1660 Uani
H5A H 0.4755 0.1215 0.6017 0.1990 Uiso
N6A N 0.4063(2) 0.0889(2) 0.59741(15) 0.1383 Uani
H6A H 0.4277 0.0766 0.5871 0.1660 Uiso
C1A C 0.71844(12) 0.11931(16) 0.54120(9) 0.0624 Uani
C2A C 0.81389(13) 0.18336(15) 0.62151(10) 0.0647 Uani
C3A C 0.72498(14) 0.14998(16) 0.56683(10) 0.0670 Uani
C4A C 0.76635(14) 0.15470(15) 0.58018(9) 0.0630 Uani
H7A H 0.7913 0.1403 0.5719 0.0760 Uiso
C5A C 0.77035(15) 0.18089(16) 0.60591(10) 0.0690 Uani
C6A C 0.73446(15) 0.2022(2) 0.61750(12) 0.0837 Uani
H8A H 0.7376 0.2199 0.6350 0.1000 Uiso
C7A C 0.69296(15) 0.1982(2) 0.60379(13) 0.0923 Uani
C8A C 0.68889(15) 0.17271(19) 0.57808(12) 0.0823 Uani
H9A H 0.6614 0.1707 0.5681 0.0990 Uiso
C9A C 0.54283(13) 0.32026(15) 0.82357(10) 0.0657 Uani
C10A C 0.38327(14) 0.35705(14) 0.82364(9) 0.0637 Uani
C11A C 0.49900(14) 0.32077(16) 0.80797(10) 0.0700 Uani
C12A C 0.46383(14) 0.34041(14) 0.82116(9) 0.0627 Uani
H10A H 0.4674 0.3558 0.8396 0.0750 Uiso
C13A C 0.42275(15) 0.33810(16) 0.80782(10) 0.0690 Uani
C14A C 0.41772(15) 0.3172(2) 0.78054(12) 0.0893 Uani
H11A H 0.3897 0.3162 0.7712 0.1070 Uiso
C15A C 0.45287(17) 0.2977(2) 0.76686(13) 0.0933 Uani
C16A C 0.49417(16) 0.2987(2) 0.78079(13) 0.0970 Uani
H12A H 0.5186 0.2844 0.7717 0.1160 Uiso
C17A C 0.24743(14) 0.08622(15) 0.62012(10) 0.0670 Uani
C18A C 0.31025(14) -0.00908(16) 0.53994(9) 0.0661 Uani
C19A C 0.28603(15) 0.07064(17) 0.60293(11) 0.0747 Uani
C20A C 0.28047(15) 0.04095(15) 0.57937(10) 0.0677 Uani
H13A H 0.2517 0.0320 0.5738 0.0810 Uiso
C21A C 0.31605(15) 0.02458(18) 0.56420(11) 0.0773 Uani
C22A C 0.35875(19) 0.0396(2) 0.57126(14) 0.0997 Uani
H14A H 0.3838 0.0281 0.5612 0.1200 Uiso
C23A C 0.3631(2) 0.0718(2) 0.59333(16) 0.1080 Uani
C24A C 0.32712(18) 0.0856(2) 0.61012(13) 0.0960 Uani
H15A H 0.3310 0.1053 0.6265 0.1150 Uiso
C25A C 0.6164(2) 0.2011(3) 0.61780(16) 0.1100 Uani
C26A C 0.4756(2) 0.2665(3) 0.71796(16) 0.1120 Uani
C27A C 0.4166(3) 0.1224(3) 0.6159(2) 0.1330 Uani
C28A C 0.5436(2) 0.2110(3) 0.64048(18) 0.1190 Uani
C29A C 0.5237(2) 0.2319(3) 0.66412(18) 0.1210 Uani
H16A H 0.5390 0.2535 0.6754 0.1450 Uiso
C30A C 0.4813(2) 0.2212(3) 0.67125(17) 0.1217 Uani
C31A C 0.4588(3) 0.1925(3) 0.65472(18) 0.1313 Uani
H17A H 0.4284 0.1884 0.6586 0.1580 Uiso
C32A C 0.4782(3) 0.1693(3) 0.6326(2) 0.1320 Uani
C33A C 0.5210(2) 0.1799(3) 0.62305(19) 0.1307 Uani
H18A H 0.5339 0.1668 0.6057 0.1570 Uiso
Cu1A Cu 0.66181(2) 0.07384(3) 0.5000 0.0546 Uani
Cu1B Cu -0.07384(3) 0.66181(2) 0.5000 0.0546 Uani
Cu1C Cu 0.33819(2) -0.07384(3) 0.5000 0.0546 Uani
Cu2A Cu 0.74691(2) 0.05574(3) 0.5000 0.0530 Uani
Cu2B Cu -0.05574(3) 0.74691(2) 0.5000 0.0530 Uani
Cu2C Cu 0.25309(2) -0.05574(3) 0.5000 0.0530 Uani
Cu3B Cu 0.90236(2) 0.15594(2) 0.62788(2) 0.0563 Uani
Cu3L Cu 0.40236(2) 0.65594(2) 0.87212(2) 0.0563 Uani
Cu3M Cu 0.34406(2) 0.40236(2) 0.87212(2) 0.0563 Uani
Cu3N Cu 0.59764(2) 0.34406(2) 0.87212(2) 0.0563 Uani
Cu4B Cu 0.86900(2) 0.20807(2) 0.66983(2) 0.0561 Uani
Cu4L Cu 0.36900(2) 0.70807(2) 0.83017(2) 0.0561 Uani
Cu4M Cu 0.29193(2) 0.36900(2) 0.83017(2) 0.0561 Uani
Cu4N Cu 0.63100(2) 0.29193(2) 0.83017(2) 0.0561 Uani
O1J O 0.11503(12) 0.31973(9) 0.46869(7) 0.0722 Uani
O2J O 0.10061(11) 0.24771(9) 0.46920(6) 0.0674 Uani
O3C O 0.15495(10) 0.83526(11) 0.60870(7) 0.0731 Uani
O4C O 0.18462(10) 0.79563(11) 0.64602(7) 0.0716 Uani
O5L O 0.20358(11) 0.07228(10) 0.68772(7) 0.0731 Uani
O5O O 0.07228(10) 0.79642(11) 0.68772(7) 0.0731 Uani
O6L O 0.15518(11) 0.04624(10) 0.65399(7) 0.0730 Uani
O6O O 0.04624(10) 0.84482(11) 0.65399(7) 0.0730 Uani
O7L O 0.12388(11) 0.89084(10) 0.65217(7) 0.0738 Uani
O7M O 0.10916(10) 0.12388(11) 0.65217(7) 0.0738 Uani
O8L O 0.14786(11) 0.84687(10) 0.68928(7) 0.0717 Uani
O8M O 0.15313(10) 0.14786(11) 0.68928(7) 0.0717 Uani
O11B O 0.01386(11) 0.27161(9) 0.53100(7) 0.0696 Uani
O11H O 0.01386(11) 0.27161(9) 0.46900(7) 0.0696 Uani
O12B O 0.02826(12) 0.34377(10) 0.53063(7) 0.0763 Uani
O12H O 0.02826(12) 0.34377(10) 0.46937(7) 0.0763 Uani
loop_
_atom_site_aniso_label
_atom_site_aniso_U_11
_atom_site_aniso_U_22
_atom_site_aniso_U_33
_atom_site_aniso_U_23
_atom_site_aniso_U_13
_atom_site_aniso_U_12
Cu1 0.0749(5) 0.0443(4) 0.0446(4) 0.000 0.000 -0.0025(3)
Cu2 0.0714(5) 0.0440(4) 0.0436(3) 0.000 0.000 -0.0018(3)
Cu3 0.0538(3) 0.0604(3) 0.0546(3) 0.0144(2) -0.0125(2) -0.0056(2)
Cu4 0.0558(3) 0.0579(3) 0.0545(3) 0.0125(2) -0.0128(2) -0.0048(2)
O1 0.098(2) 0.0558(16) 0.0629(15) 0.0061(13) -0.0153(16) -0.0074(15)
O2 0.088(2) 0.0555(15) 0.0586(14) 0.0018(12) -0.0138(14) -0.0010(14)
O3 0.092(2) 0.0624(16) 0.0648(16) -0.0005(14) -0.0264(16) 0.0005(15)
O4 0.087(2) 0.0614(16) 0.0664(17) -0.0049(14) -0.0246(15) 0.0033(14)
O5 0.0824(19) 0.0592(16) 0.0778(19) -0.0068(14) -0.0227(16) -0.0013(14)
O6 0.082(2) 0.0640(17) 0.0731(18) -0.0003(14) -0.0268(16) -0.0020(14)
O7 0.089(2) 0.0615(16) 0.0708(17) 0.0117(14) -0.0257(16) -0.0104(15)
O8 0.085(2) 0.0631(16) 0.0670(16) 0.0089(14) -0.0194(15) -0.0104(14)
O9 0.081(2) 0.0654(17) 0.0735(18) 0.0045(14) -0.0241(16) 0.0007(14)
O10 0.0774(19) 0.0663(17) 0.0768(18) 0.0061(15) -0.0281(16) 0.0002(14)
O11 0.088(2) 0.0571(16) 0.0636(15) 0.0017(13) -0.0215(15) -0.0003(14)
O12 0.100(2) 0.0582(16) 0.0706(17) -0.0017(14) -0.0256(17) 0.0013(15)
O13 0.148(3) 0.106(3) 0.160(3) -0.028(3) -0.054(3) 0.009(2)
O14 0.156(3) 0.091(2) 0.119(3) -0.004(2) -0.064(2) 0.014(2)
O15 0.191(4) 0.144(3) 0.190(4) -0.004(3) -0.084(3) 0.026(3)
O16 0.132(4) 0.045(2) 0.098(3) 0.000 0.000 -0.014(2)
O17 0.094(4) 0.054(3) 0.237(8) 0.000 0.000 -0.013(3)
O18 0.107(3) 0.090(2) 0.081(2) 0.0357(19) -0.028(2) 0.010(2)
O19 0.150(3) 0.112(3) 0.090(2) 0.024(2) -0.022(2) 0.043(2)
N1 0.119(3) 0.076(2) 0.117(3) -0.003(2) -0.046(2) 0.000(2)
N2 0.147(3) 0.096(3) 0.138(3) -0.010(3) -0.064(3) 0.005(3)
N3 0.150(3) 0.097(3) 0.116(3) 0.001(2) -0.061(3) 0.004(3)
N4 0.168(4) 0.110(3) 0.136(3) -0.001(3) -0.071(3) 0.006(3)
N5 0.185(4) 0.142(4) 0.171(4) -0.005(3) -0.081(3) 0.022(3)
N6 0.156(4) 0.117(3) 0.142(3) -0.003(3) -0.069(3) 0.019(3)
C1 0.093(3) 0.0471(19) 0.0472(18) 0.0027(16) -0.007(2) -0.0038(19)
C2 0.077(3) 0.053(2) 0.064(2) -0.0145(18) -0.014(2) 0.0139(19)
C3 0.083(3) 0.057(2) 0.061(2) -0.0128(18) -0.012(2) 0.0021(19)
C4 0.072(2) 0.061(2) 0.056(2) -0.0066(18) -0.0071(19) 0.0019(19)
C5 0.081(3) 0.063(2) 0.063(2) -0.0050(19) -0.020(2) 0.004(2)
C6 0.114(4) 0.057(2) 0.080(3) -0.011(2) -0.036(3) 0.013(2)
C7 0.120(4) 0.053(2) 0.104(4) -0.008(2) -0.055(3) -0.001(2)
C8 0.109(4) 0.051(2) 0.087(3) -0.006(2) -0.029(3) 0.005(2)
C9 0.073(2) 0.054(2) 0.070(2) -0.0100(19) -0.015(2) 0.0111(18)
C10 0.060(2) 0.067(2) 0.064(2) 0.0083(19) -0.0124(19) -0.0136(18)
C11 0.077(3) 0.060(2) 0.073(2) -0.004(2) -0.020(2) 0.006(2)
C12 0.068(2) 0.062(2) 0.058(2) -0.0005(18) -0.0142(19) 0.0011(18)
C13 0.078(3) 0.062(2) 0.067(2) 0.005(2) -0.018(2) 0.001(2)
C14 0.125(4) 0.054(2) 0.089(3) 0.007(2) -0.046(3) 0.002(3)
C15 0.119(3) 0.069(2) 0.092(3) 0.002(2) -0.042(3) 0.004(2)
C16 0.134(5) 0.057(2) 0.100(4) -0.007(2) -0.056(4) 0.004(3)
C17 0.067(2) 0.065(2) 0.069(2) 0.006(2) -0.025(2) -0.0055(19)
C18 0.086(3) 0.062(2) 0.0504(19) -0.0012(18) -0.015(2) 0.001(2)
C19 0.086(3) 0.064(2) 0.074(3) -0.005(2) -0.027(2) 0.006(2)
C20 0.073(3) 0.063(2) 0.067(2) 0.002(2) -0.016(2) 0.008(2)
C21 0.094(3) 0.065(2) 0.073(3) -0.004(2) -0.024(3) 0.008(2)
C22 0.121(4) 0.077(3) 0.101(3) -0.005(3) -0.038(3) 0.010(3)
C23 0.126(4) 0.081(3) 0.117(3) 0.001(3) -0.045(3) 0.019(3)
C24 0.112(3) 0.078(3) 0.098(3) -0.002(2) -0.039(3) 0.009(3)
C25 0.130(4) 0.080(3) 0.120(4) -0.013(3) -0.055(3) 0.003(3)
C26 0.140(4) 0.082(3) 0.114(3) 0.000(3) -0.056(3) 0.012(3)
C27 0.157(4) 0.106(4) 0.136(4) -0.004(3) -0.061(4) 0.030(3)
C28 0.142(4) 0.090(3) 0.125(4) -0.008(3) -0.054(3) 0.016(3)
C29 0.146(4) 0.090(3) 0.127(4) -0.016(3) -0.064(3) 0.005(3)
C30 0.153(4) 0.092(3) 0.120(4) -0.012(3) -0.053(3) 0.008(3)
C31 0.157(4) 0.107(4) 0.130(4) -0.010(3) -0.064(4) 0.013(3)
C32 0.157(4) 0.100(4) 0.139(4) -0.004(3) -0.056(4) 0.019(3)
C33 0.159(4) 0.098(4) 0.135(4) -0.010(3) -0.060(4) 0.018(3)
Cu3A 0.0604 0.0538 0.0546 -0.0125 -0.0144 0.0056
Cu4A 0.0579 0.0558 0.0545 -0.0128 -0.0125 0.0048
O1A 0.0558 0.098 0.0629 -0.0153 -0.0061 0.0074
O2A 0.0555 0.088 0.0586 -0.0138 -0.0018 0.001
O3A 0.0624 0.092 0.0648 -0.0264 0.0005 -0.0005
O4A 0.0614 0.087 0.0664 -0.0246 0.0049 -0.0033
O5A 0.0592 0.0824 0.0778 -0.0227 0.0068 0.0013
O6A 0.064 0.082 0.0731 -0.0268 0.0003 0.002
O7A 0.0615 0.089 0.0708 -0.0257 -0.0117 0.0104
O8A 0.0631 0.085 0.067 -0.0194 -0.0089 0.0104
O9A 0.0654 0.081 0.0735 -0.0241 -0.0045 -0.0007
O10A 0.0663 0.0774 0.0768 -0.0281 -0.0061 -0.0002
O11A 0.0571 0.088 0.0636 -0.0215 -0.0017 0.0003
O12A 0.0582 0.1 0.0706 -0.0256 0.0017 -0.0013
O13A 0.106 0.148 0.16 -0.054 0.028 -0.009
O14A 0.091 0.156 0.119 -0.064 0.004 -0.014
O15A 0.144 0.191 0.19 -0.084 0.004 -0.026
O18A 0.09 0.107 0.081 -0.028 -0.0357 -0.01
O19A 0.112 0.15 0.09 -0.022 -0.024 -0.043
N1A 0.076 0.119 0.117 -0.046 0.003 0
N2A 0.096 0.147 0.138 -0.064 0.01 -0.005
N3A 0.097 0.15 0.116 -0.061 -0.001 -0.004
N4A 0.11 0.168 0.136 -0.071 0.001 -0.006
N5A 0.142 0.185 0.171 -0.081 0.005 -0.022
N6A 0.117 0.156 0.142 -0.069 0.003 -0.019
C1A 0.0471 0.093 0.0472 -0.007 -0.0027 0.0038
C2A 0.053 0.077 0.064 -0.014 0.0145 -0.0139
C3A 0.057 0.083 0.061 -0.012 0.0128 -0.0021
C4A 0.061 0.072 0.056 -0.0071 0.0066 -0.0019
C5A 0.063 0.081 0.063 -0.02 0.005 -0.004
C6A 0.057 0.114 0.08 -0.036 0.011 -0.013
C7A 0.053 0.12 0.104 -0.055 0.008 0.001
C8A 0.051 0.109 0.087 -0.029 0.006 -0.005
C9A 0.054 0.073 0.07 -0.015 0.01 -0.0111
C10A 0.067 0.06 0.064 -0.0124 -0.0083 0.0136
C11A 0.06 0.077 0.073 -0.02 0.004 -0.006
C12A 0.062 0.068 0.058 -0.0142 0.0005 -0.0011
C13A 0.062 0.078 0.067 -0.018 -0.005 -0.001
C14A 0.054 0.125 0.089 -0.046 -0.007 -0.002
C15A 0.069 0.119 0.092 -0.042 -0.002 -0.004
C16A 0.057 0.134 0.1 -0.056 0.007 -0.004
C17A 0.065 0.067 0.069 -0.025 -0.006 0.0055
C18A 0.062 0.086 0.0504 -0.015 0.0012 -0.001
C19A 0.064 0.086 0.074 -0.027 0.005 -0.006
C20A 0.063 0.073 0.067 -0.016 -0.002 -0.008
C21A 0.065 0.094 0.073 -0.024 0.004 -0.008
C22A 0.077 0.121 0.101 -0.038 0.005 -0.01
C23A 0.081 0.126 0.117 -0.045 -0.001 -0.019
C24A 0.078 0.112 0.098 -0.039 0.002 -0.009
C25A 0.08 0.13 0.12 -0.055 0.013 -0.003
C26A 0.082 0.14 0.114 -0.056 0 -0.012
C27A 0.106 0.157 0.136 -0.061 0.004 -0.03
C28A 0.09 0.142 0.125 -0.054 0.008 -0.016
C29A 0.09 0.146 0.127 -0.064 0.016 -0.005
C30A 0.092 0.153 0.12 -0.053 0.012 -0.008
C31A 0.107 0.157 0.13 -0.064 0.01 -0.013
C32A 0.1 0.157 0.139 -0.056 0.004 -0.019
C33A 0.098 0.159 0.135 -0.06 0.01 -0.018
Cu1A 0.0443 0.0749 0.0446 0 0 0.0025
Cu1B 0.0749 0.0443 0.0446 0 0 -0.0025
Cu1C 0.0443 0.0749 0.0446 0 0 0.0025
Cu2A 0.044 0.0714 0.0436 0 0 0.0018
Cu2B 0.0714 0.044 0.0436 0 0 -0.0018
Cu2C 0.044 0.0714 0.0436 0 0 0.0018
Cu3B 0.0538 0.0604 0.0546 -0.0144 0.0125 -0.0056
Cu3L 0.0538 0.0604 0.0546 0.0144 -0.0125 -0.0056
Cu3M 0.0604 0.0538 0.0546 -0.0125 -0.0144 0.0056
Cu3N 0.0538 0.0604 0.0546 -0.0144 0.0125 -0.0056
Cu4B 0.0558 0.0579 0.0545 -0.0125 0.0128 -0.0048
Cu4L 0.0558 0.0579 0.0545 0.0125 -0.0128 -0.0048
Cu4M 0.0579 0.0558 0.0545 -0.0128 -0.0125 0.0048
Cu4N 0.0558 0.0579 0.0545 -0.0125 0.0128 -0.0048
O1J 0.098 0.0558 0.0629 -0.0061 0.0153 -0.0074
O2J 0.088 0.0555 0.0586 -0.0018 0.0138 -0.001
O3C 0.0624 0.092 0.0648 0.0264 -0.0005 -0.0005
O4C 0.0614 0.087 0.0664 0.0246 -0.0049 -0.0033
O5L 0.0824 0.0592 0.0778 -0.0068 -0.0227 -0.0013
O5O 0.0592 0.0824 0.0778 0.0227 -0.0068 0.0013
O6L 0.082 0.064 0.0731 -0.0003 -0.0268 -0.002
O6O 0.064 0.082 0.0731 0.0268 -0.0003 0.002
O7L 0.089 0.0615 0.0708 0.0117 -0.0257 -0.0104
O7M 0.0615 0.089 0.0708 -0.0257 -0.0117 0.0104
O8L 0.085 0.0631 0.067 0.0089 -0.0194 -0.0104
O8M 0.0631 0.085 0.067 -0.0194 -0.0089 0.0104
O11B 0.088 0.0571 0.0636 -0.0017 0.0215 -0.0003
O11H 0.088 0.0571 0.0636 0.0017 -0.0215 -0.0003
O12B 0.1 0.0582 0.0706 0.0017 0.0256 0.0013
O12H 0.1 0.0582 0.0706 -0.0017 -0.0256 0.0013
loop_
_geom_bond_atom_site_label_1
_geom_bond_atom_site_label_2
_geom_bond_site_symmetry_1
_geom_bond_site_symmetry_2
Cu1 O1 1_555 1_555
Cu2 O2 1_555 1_555
Cu3 O10 1_555 1_555
Cu4 O9 1_555 1_555
O1 C1 1_555 1_555
O2 C1 1_555 1_555
O3 C2 1_555 1_555
O4 C2 1_555 1_555
O5 C9 1_555 1_555
O6 C9 1_555 1_555
O7 C10 1_555 1_555
O8 C10 1_555 1_555
O9 C17 1_555 1_555
O10 C17 1_555 1_555
O11 C18 1_555 1_555
O12 C18 1_555 1_555
O13 C25 1_555 1_555
O14 C26 1_555 1_555
O15 C27 1_555 1_555
O16 Cu1 1_555 1_555
O17 Cu2 1_555 1_555
O18 Cu4 1_555 1_555
O19 Cu3 1_555 1_555
N1 H1 1_555 1_555
N2 H2 1_555 1_555
N3 H3 1_555 1_555
N4 H4 1_555 1_555
N5 H5 1_555 1_555
N6 H6 1_555 1_555
C1 C3 1_555 1_555
C2 C5 1_555 1_555
C3 C4 1_555 1_555
C4 H7 1_555 1_555
C5 C4 1_555 1_555
C6 C5 1_555 1_555
H8 C6 1_555 1_555
C7 N1 1_555 1_555
C8 C3 1_555 1_555
H9 C8 1_555 1_555
C9 C11 1_555 1_555
C10 C13 1_555 1_555
C11 C12 1_555 1_555
C12 H10 1_555 1_555
C13 C12 1_555 1_555
C14 C13 1_555 1_555
H11 C14 1_555 1_555
C15 N3 1_555 1_555
C16 C11 1_555 1_555
H12 C16 1_555 1_555
C17 C19 1_555 1_555
C18 C21 1_555 1_555
C19 C20 1_555 1_555
C20 H13 1_555 1_555
C21 C20 1_555 1_555
C22 C21 1_555 1_555
H14 C22 1_555 1_555
C23 N6 1_555 1_555
C24 C19 1_555 1_555
H15 C24 1_555 1_555
C25 N1 1_555 1_555
C26 N3 1_555 1_555
C27 N5 1_555 1_555
C28 N2 1_555 1_555
C29 C28 1_555 1_555
H16 C29 1_555 1_555
C30 N4 1_555 1_555
C31 C30 1_555 1_555
H17 C31 1_555 1_555
C32 N5 1_555 1_555
C33 C28 1_555 1_555
H18 C33 1_555 1_555
Cu3A O3 1_555 1_555
Cu4A O4 1_555 1_555
O1A C1A 1_555 1_555
O2A C1A 1_555 1_555
O3A C2A 1_555 1_555
O4A C2A 1_555 1_555
O5A C9A 1_555 1_555
O6A C9A 1_555 1_555
O7A C10A 1_555 1_555
O8A C10A 1_555 1_555
O9A Cu4A 1_555 1_555
O10A Cu3A 1_555 1_555
O11A C18A 1_555 1_555
O12A C18A 1_555 1_555
O13A C25A 1_555 1_555
O14A C26A 1_555 1_555
O15A C27A 1_555 1_555
O18A Cu4A 1_555 1_555
O19A Cu3A 1_555 1_555
N1A H1A 1_555 1_555
N2A H2A 1_555 1_555
N3A H3A 1_555 1_555
N4A H4A 1_555 1_555
N5A H5A 1_555 1_555
N6A H6A 1_555 1_555
C1A C3A 1_555 1_555
C2A C5A 1_555 1_555
C3A C4A 1_555 1_555
C4A H7A 1_555 1_555
C5A C4A 1_555 1_555
C6A C5A 1_555 1_555
H8A C6A 1_555 1_555
C7A N1A 1_555 1_555
C8A C3A 1_555 1_555
H9A C8A 1_555 1_555
C9A C11A 1_555 1_555
C10A C13A 1_555 1_555
C11A C12A 1_555 1_555
C12A H10A 1_555 1_555
C13A C12A 1_555 1_555
C14A C13A 1_555 1_555
H11A C14A 1_555 1_555
C15A N3A 1_555 1_555
C16A C11A 1_555 1_555
H12A C16A 1_555 1_555
C17A O9A 1_555 1_555
C18A C21A 1_555 1_555
C19A C17A 1_555 1_555
C20A C19A 1_555 1_555
H13A C20A 1_555 1_555
C21A C20A 1_555 1_555
C22A C21A 1_555 1_555
H14A C22A 1_555 1_555
C23A N6A 1_555 1_555
C24A C19A 1_555 1_555
H15A C24A 1_555 1_555
C25A N1A 1_555 1_555
C26A N3A 1_555 1_555
C27A N5A 1_555 1_555
C28A N2A 1_555 1_555
C29A C28A 1_555 1_555
H16A C29A 1_555 1_555
C30A N4A 1_555 1_555
C31A C30A 1_555 1_555
H17A C31A 1_555 1_555
C32A N5A 1_555 1_555
C33A C28A 1_555 1_555
H18A C33A 1_555 1_555
Cu1A O1A 1_555 1_555
Cu1B O12 1_555 1_555
Cu1C O12A 1_555 1_555
Cu2A O2A 1_555 1_555
Cu2B O11 1_555 1_555
Cu2C O11A 1_555 1_555
Cu3B O3A 1_555 1_555
Cu3L O7 1_555 1_555
Cu3M O6 1_555 1_555
Cu3N O6A 1_555 1_555
Cu4B O4A 1_555 1_555
Cu4L O8 1_555 1_555
Cu4M O5 1_555 1_555
Cu4N O5A 1_555 1_555
O1J Cu1 1_555 1_555
O2J Cu2 1_555 1_555
O3C Cu3 1_555 1_555
O4C Cu4 1_555 1_555
O5L Cu4A 1_555 1_555
O5O Cu4 1_555 1_555
O6L Cu3A 1_555 1_555
O6O Cu3 1_555 1_555
O7L Cu3 1_555 1_555
O7M Cu3A 1_555 1_555
O8L Cu4 1_555 1_555
O8M Cu4A 1_555 1_555
O11B Cu2 1_555 1_555
O11H Cu2 1_555 1_555
O12B Cu1 1_555 1_555
O12H Cu1 1_555 1_555
N2 C25 1_555 1_555
N4 C26 1_555 1_555
N6 C27 1_555 1_555
C6 C7 1_555 1_555
C7 C8 1_555 1_555
C14 C15 1_555 1_555
C15 C16 1_555 1_555
C22 C23 1_555 1_555
C23 C24 1_555 1_555
C29 C30 1_555 1_555
C31 C32 1_555 1_555
C32 C33 1_555 1_555
O7A Cu3M 1_555 1_555
O8A Cu4M 1_555 1_555
O10A C17A 1_555 1_555
N2A C25A 1_555 1_555
N4A C26A 1_555 1_555
N6A C27A 1_555 1_555
C6A C7A 1_555 1_555
C7A C8A 1_555 1_555
C14A C15A 1_555 1_555
C15A C16A 1_555 1_555
C22A C23A 1_555 1_555
C23A C24A 1_555 1_555
C29A C30A 1_555 1_555
C31A C32A 1_555 1_555
C32A C33A 1_555 1_555

#END
