
#######################################################################
#
#                 Cambridge Crystallographic Data Centre
#                                CCDC 
#
#######################################################################
#
# If this CIF has been generated from an entry in the Cambridge 
# Structural Database, then it will include bibliographic, chemical, 
# crystal, experimental, refinement or atomic coordinate data resulting 
# from the CCDC's data processing and validation procedures.
#
#######################################################################

data_ALEJAE
_chemical_formula_moiety         '(C60 H48 In3 N12 O22)n'
_symmetry_cell_setting           trigonal
_symmetry_space_group_name_H-M   'P 31 2 1'
_symmetry_Int_Tables_number      152
_space_group_name_Hall           'P 31 2"'
loop_
_symmetry_equiv_pos_site_id
_symmetry_equiv_pos_as_xyz
1 x,y,z
2 -y,x-y,1/3+z
3 -x+y,-x,2/3+z
4 x-y,-y,2/3-z
5 -x,-x+y,1/3-z
6 y,x,-z
_cell_length_a                   24.4186(5)
_cell_length_b                   24.4186(5)
_cell_length_c                   55.4757(11)
_cell_angle_alpha                90
_cell_angle_beta                 90
_cell_angle_gamma                120
_cell_volume                     28646.7
loop_
_atom_site_label
_atom_site_type_symbol
_atom_site_fract_x
_atom_site_fract_y
_atom_site_fract_z
In1 In 0.62836(4) 0.62836(4) 0.5000
In2 In 0.77849(3) 0.72900(3) 0.47478(2)
O1 O 0.7635(3) 0.6345(3) 0.47460(9)
O2 O 0.6684(3) 0.5686(3) 0.49132(9)
O3 O 0.7552(3) -0.1472(3) 0.49959(8)
O4 O 0.7969(3) -0.1778(3) 0.47021(9)
O5 O 0.9771(3) 0.3662(3) 0.20510(8)
O6 O 1.0086(3) 0.2994(4) 0.22046(8)
O7 O 0.7890(4) 0.1258(4) 0.44333(14)
O8 O 0.8071(4) 0.4104(3) 0.41900(12)
O9 O 0.8916(4) 0.2620(4) 0.33387(11)
O10 O 0.7155(3) 0.7155(3) 0.5000
O11 O 0.8455(3) 0.7461(3) 0.44819(10)
O12 O 0.5404(3) 0.5404(3) 0.5000
N1 N 0.7387(4) 0.3717(4) 0.45067(14)
H1 H 0.7161 0.3380 0.4589
N2 N 0.7648(4) 0.3063(4) 0.43047(14)
H2 H 0.7437 0.2809 0.4420
N3 N 0.8252(5) 0.0685(5) 0.42292(18)
H3 H 0.8386 0.0659 0.4089
N4 N 0.8347(5) 0.1577(5) 0.40524(17)
H4 H 0.8543 0.1503 0.3940
N5 N 0.8523(4) 0.3192(4) 0.35214(14)
H5 H 0.8474 0.3514 0.3503
N6 N 0.8909(4) 0.3439(4) 0.31408(13)
H6 H 0.8815 0.3734 0.3156
C1 C 0.7192(5) 0.5815(5) 0.48091(14)
C2 C 0.7274(5) 0.5271(5) 0.47385(12)
C3 C 0.6794(5) 0.4675(5) 0.47922(13)
H7 H 0.6450 0.4624 0.4882
C4 C 0.6815(5) 0.4135(5) 0.47118(15)
H8 H 0.6492 0.3726 0.4745
C5 C 0.7359(6) 0.4256(5) 0.45778(16)
C6 C 0.7840(5) 0.4854(6) 0.45219(17)
H9 H 0.8193 0.4913 0.4437
C7 C 0.7784(4) 0.5386(4) 0.45987(14)
H10 H 0.8084 0.5796 0.4555
C8 C 0.7732(4) 0.3664(5) 0.43216(14)
C9 C 0.7860(4) 0.2816(5) 0.41274(19)
C10 C 0.7954(4) 0.2318(5) 0.41946(16)
H11 H 0.7831 0.2134 0.4346
C11 C 0.8239(5) 0.2099(5) 0.4029(2)
C12 C 0.8428(5) 0.2366(6) 0.3802(2)
H12 H 0.8619 0.2223 0.3694
C13 C 0.8316(5) 0.2873(6) 0.37414(18)
C14 C 0.8042(5) 0.3097(5) 0.3902(2)
H13 H 0.7981 0.3431 0.3860
C15 C 0.8137(3) 0.1182(5) 0.42571(18)
C16 C 0.8186(5) 0.0223(5) 0.43898(19)
C17 C 0.7882(4) 0.0116(4) 0.46097(17)
H14 H 0.7745 0.0382 0.4669
C18 C 0.7793(4) -0.0419(4) 0.47382(15)
H15 H 0.7589 -0.0506 0.4887
C19 C 0.7987(4) -0.0809(4) 0.46571(14)
C20 C 0.8293(5) -0.0703(5) 0.44273(17)
H16 H 0.8409 -0.0986 0.4368
C21 C 0.8414(5) -0.0169(5) 0.42936(17)
H17 H 0.8632 -0.0073 0.4148
C22 C 0.7864(5) -0.1378(5) 0.47978(15)
C23 C 0.8791(3) 0.3054(4) 0.33334(17)
C24 C 0.9169(4) 0.3404(4) 0.29188(14)
C25 C 0.9445(4) 0.3049(4) 0.28745(15)
H18 H 0.9484 0.2814 0.2999
C26 C 0.9668(4) 0.3032(4) 0.26481(13)
H19 H 0.9857 0.2789 0.2621
C27 C 0.9613(4) 0.3380(4) 0.24584(12)
C28 C 0.9352(5) 0.3748(5) 0.25010(13)
H20 H 0.9339 0.3998 0.2377
C29 C 0.9102(5) 0.3762(5) 0.27290(16)
H21 H 0.8901 0.3995 0.2755
C30 C 0.9849(5) 0.3356(5) 0.22118(14)
In2E In 0.72900(3) 0.77849(3) 0.52522(2)
O1E O 0.6345(3) 0.7635(3) 0.52540(9)
O2E O 0.5686(3) 0.6684(3) 0.50868(9)
O3E O -0.1472(3) 0.7552(3) 0.50041(8)
O4E O -0.1778(3) 0.7969(3) 0.52979(9)
O5E O 0.3662(3) 0.9771(3) 0.79490(8)
O6E O 0.2994(4) 1.0086(3) 0.77954(8)
O7E O 0.1258(4) 0.7890(4) 0.55667(14)
O8E O 0.4104(3) 0.8071(4) 0.58100(12)
O9E O 0.2620(4) 0.8916(4) 0.66613(11)
O11E O 0.7461(3) 0.8455(3) 0.55181(10)
N1E N 0.3717(4) 0.7387(4) 0.54933(14)
H1E H 0.3380 0.7161 0.5411
N2E N 0.3063(4) 0.7648(4) 0.56953(14)
H2E H 0.2809 0.7437 0.5580
N3E N 0.0685(5) 0.8252(5) 0.57708(18)
H3E H 0.0659 0.8386 0.5911
N4E N 0.1577(5) 0.8347(5) 0.59476(17)
H4E H 0.1503 0.8543 0.6060
N5E N 0.3192(4) 0.8523(4) 0.64786(14)
H5E H 0.3514 0.8474 0.6497
N6E N 0.3439(4) 0.8909(4) 0.68592(13)
H6E H 0.3734 0.8815 0.6844
C1E C 0.5815(5) 0.7192(5) 0.51909(14)
C2E C 0.5271(5) 0.7274(5) 0.52615(12)
C3E C 0.4675(5) 0.6794(5) 0.52078(13)
H7E H 0.4624 0.6450 0.5118
C4E C 0.4135(5) 0.6815(5) 0.52882(15)
H8E H 0.3726 0.6492 0.5255
C5E C 0.4256(5) 0.7359(6) 0.54222(16)
C6E C 0.4854(6) 0.7840(5) 0.54781(17)
H9E H 0.4913 0.8193 0.5563
C7E C 0.5386(4) 0.7784(4) 0.54013(14)
H10E H 0.5796 0.8084 0.5445
C8E C 0.3664(5) 0.7732(4) 0.56784(14)
C9E C 0.2816(5) 0.7860(4) 0.58726(19)
C10E C 0.2318(5) 0.7954(4) 0.58054(16)
H11E H 0.2134 0.7831 0.5654
C11E C 0.2099(5) 0.8239(5) 0.5971(2)
C12E C 0.2366(6) 0.8428(5) 0.6198(2)
H12E H 0.2223 0.8619 0.6306
C13E C 0.2873(6) 0.8316(5) 0.62586(18)
C14E C 0.3097(5) 0.8042(5) 0.6098(2)
H13E H 0.3431 0.7981 0.6140
C15E C 0.1182(5) 0.8137(3) 0.57429(18)
C16E C 0.0223(5) 0.8186(5) 0.56102(19)
C17E C 0.0116(4) 0.7882(4) 0.53903(17)
H14E H 0.0382 0.7745 0.5331
C18E C -0.0419(4) 0.7793(4) 0.52618(15)
H15E H -0.0506 0.7589 0.5113
C19E C -0.0809(4) 0.7987(4) 0.53429(14)
C20E C -0.0703(5) 0.8293(5) 0.55727(17)
H16E H -0.0986 0.8409 0.5632
C21E C -0.0169(5) 0.8414(5) 0.57064(17)
H17E H -0.0073 0.8632 0.5852
C22E C -0.1378(5) 0.7864(5) 0.52022(15)
C23E C 0.3054(4) 0.8791(3) 0.66666(17)
C24E C 0.3404(4) 0.9169(4) 0.70812(14)
C25E C 0.3049(4) 0.9445(4) 0.71255(15)
H18E H 0.2814 0.9484 0.7001
C26E C 0.3032(4) 0.9668(4) 0.73519(13)
H19E H 0.2789 0.9857 0.7379
C27E C 0.3380(4) 0.9613(4) 0.75416(12)
C28E C 0.3748(5) 0.9352(5) 0.74990(13)
H20E H 0.3998 0.9339 0.7623
C29E C 0.3762(5) 0.9102(5) 0.72710(16)
H21E H 0.3995 0.8901 0.7245
C30E C 0.3356(5) 0.9849(5) 0.77882(14)
In1A In 0.37164(4) 1.00000(6) 0.8333
In1B In 1.00000(6) 0.37164(4) 0.1667
In2_2 In -0.22151(3) 0.72900(3) 0.47478(2)
In2_3 In 0.77849(3) -0.27100(3) 0.47478(2)
In2A In 0.27100(3) 1.04949(4) 0.80811(2)
In2C In 1.04949(4) 0.27100(3) 0.19189(2)
In2E_2 In -0.27100(3) 0.77849(3) 0.52522(2)
In2E_3 In 0.72900(3) -0.22151(3) 0.52522(2)
O3_2 O 0.7552(3) 0.8528(3) 0.49959(8)
O3E_2 O 0.8528(3) 0.7552(3) 0.50041(8)
O4_2 O 0.7969(3) 0.8222(3) 0.47021(9)
O4E_2 O 0.8222(3) 0.7969(3) 0.52979(9)
O5A O 0.6338(3) 0.6109(4) 0.53843(8)
O5C O 0.6109(4) 0.6338(3) 0.46157(8)
O6A O 0.7006(4) 0.7092(5) 0.55379(8)
O6C O 0.7092(5) 0.7006(4) 0.44621(8)
loop_
_geom_bond_atom_site_label_1
_geom_bond_atom_site_label_2
_geom_bond_site_symmetry_1
_geom_bond_site_symmetry_2
In1 O2 1_555 1_555
In2 O1 1_555 1_555
O1 C1 1_555 1_555
O2 C1 1_555 1_555
O3 C22 1_555 1_555
O4 C22 1_555 1_555
O5 C30 1_555 1_555
O6 C30 1_555 1_555
O7 C15 1_555 1_555
O8 C8 1_555 1_555
O9 C23 1_555 1_555
O10 In1 1_555 1_555
O11 In2 1_555 1_555
O12 In1 1_555 1_555
N1 H1 1_555 1_555
N2 H2 1_555 1_555
N3 H3 1_555 1_555
N4 H4 1_555 1_555
N5 H5 1_555 1_555
N6 H6 1_555 1_555
C1 C2 1_555 1_555
C2 C3 1_555 1_555
C3 H7 1_555 1_555
C4 C3 1_555 1_555
H8 C4 1_555 1_555
C5 N1 1_555 1_555
C6 C5 1_555 1_555
H9 C6 1_555 1_555
C7 C2 1_555 1_555
H10 C7 1_555 1_555
C8 N1 1_555 1_555
C9 N2 1_555 1_555
C10 C9 1_555 1_555
H11 C10 1_555 1_555
C11 N4 1_555 1_555
C12 C11 1_555 1_555
H12 C12 1_555 1_555
C13 N5 1_555 1_555
C14 C9 1_555 1_555
H13 C14 1_555 1_555
C15 N3 1_555 1_555
C16 N3 1_555 1_555
C17 C16 1_555 1_555
H14 C17 1_555 1_555
C18 C17 1_555 1_555
H15 C18 1_555 1_555
C19 C18 1_555 1_555
C20 C19 1_555 1_555
H16 C20 1_555 1_555
C21 C16 1_555 1_555
H17 C21 1_555 1_555
C22 C19 1_555 1_555
C23 N5 1_555 1_555
C24 N6 1_555 1_555
C25 C24 1_555 1_555
H18 C25 1_555 1_555
C26 C25 1_555 1_555
H19 C26 1_555 1_555
C27 C26 1_555 1_555
C28 C27 1_555 1_555
H20 C28 1_555 1_555
C29 C24 1_555 1_555
H21 C29 1_555 1_555
C30 C27 1_555 1_555
In2E O10 1_555 1_555
O1E In2E 1_555 1_555
O2E In1 1_555 1_555
O3E C22E 1_555 1_555
O4E C22E 1_555 1_555
O5E C30E 1_555 1_555
O6E C30E 1_555 1_555
O7E C15E 1_555 1_555
O8E C8E 1_555 1_555
O9E C23E 1_555 1_555
O11E In2E 1_555 1_555
N1E H1E 1_555 1_555
N2E H2E 1_555 1_555
N3E H3E 1_555 1_555
N4E H4E 1_555 1_555
N5E H5E 1_555 1_555
N6E H6E 1_555 1_555
C1E O1E 1_555 1_555
C2E C1E 1_555 1_555
C3E C2E 1_555 1_555
H7E C3E 1_555 1_555
C4E C3E 1_555 1_555
H8E C4E 1_555 1_555
C5E N1E 1_555 1_555
C6E C5E 1_555 1_555
H9E C6E 1_555 1_555
C7E C2E 1_555 1_555
H10E C7E 1_555 1_555
C8E N1E 1_555 1_555
C9E N2E 1_555 1_555
C10E C9E 1_555 1_555
H11E C10E 1_555 1_555
C11E N4E 1_555 1_555
C12E C11E 1_555 1_555
H12E C12E 1_555 1_555
C13E N5E 1_555 1_555
C14E C9E 1_555 1_555
H13E C14E 1_555 1_555
C15E N3E 1_555 1_555
C16E N3E 1_555 1_555
C17E C16E 1_555 1_555
H14E C17E 1_555 1_555
C18E C17E 1_555 1_555
H15E C18E 1_555 1_555
C19E C18E 1_555 1_555
C20E C19E 1_555 1_555
H16E C20E 1_555 1_555
C21E C16E 1_555 1_555
H17E C21E 1_555 1_555
C22E C19E 1_555 1_555
C23E N5E 1_555 1_555
C24E N6E 1_555 1_555
C25E C24E 1_555 1_555
H18E C25E 1_555 1_555
C26E C25E 1_555 1_555
H19E C26E 1_555 1_555
C27E C26E 1_555 1_555
C28E C27E 1_555 1_555
H20E C28E 1_555 1_555
C29E C24E 1_555 1_555
H21E C29E 1_555 1_555
C30E C27E 1_555 1_555
In1A O5E 1_555 1_555
In1B O5 1_555 1_555
In2_2 O3E 1_555 1_555
In2_3 O4 1_555 1_555
In2A O6E 1_555 1_555
In2C O6 1_555 1_555
In2E_2 O4E 1_555 1_555
In2E_3 O3 1_555 1_555
O3_2 In2E 1_555 1_555
O3E_2 In2 1_555 1_555
O4_2 In2 1_555 1_555
O4E_2 In2E 1_555 1_555
O5A In1 1_555 1_555
O5C In1 1_555 1_555
O6A In2E 1_555 1_555
O6C In2 1_555 1_555
In2 O10 1_555 1_555
N2 C8 1_555 1_555
N4 C15 1_555 1_555
N6 C23 1_555 1_555
C4 C5 1_555 1_555
C6 C7 1_555 1_555
C10 C11 1_555 1_555
C12 C13 1_555 1_555
C13 C14 1_555 1_555
C20 C21 1_555 1_555
C28 C29 1_555 1_555
O2E C1E 1_555 1_555
N2E C8E 1_555 1_555
N4E C15E 1_555 1_555
N6E C23E 1_555 1_555
C4E C5E 1_555 1_555
C6E C7E 1_555 1_555
C10E C11E 1_555 1_555
C12E C13E 1_555 1_555
C13E C14E 1_555 1_555
C20E C21E 1_555 1_555
C28E C29E 1_555 1_555

#END
