
#######################################################################
#
#                 Cambridge Crystallographic Data Centre
#                                CCDC 
#
#######################################################################
#
# If this CIF has been generated from an entry in the Cambridge 
# Structural Database, then it will include bibliographic, chemical, 
# crystal, experimental, refinement or atomic coordinate data resulting 
# from the CCDC's data processing and validation procedures.
#
#######################################################################

data_FIQCEN
_chemical_formula_moiety         '(C18 H14 Cu3 O16)n'
_symmetry_cell_setting           cubic
_symmetry_space_group_name_H-M   'F m -3 m'
_symmetry_Int_Tables_number      225
_space_group_name_Hall           '-F 4 2 3'
loop_
_symmetry_equiv_pos_site_id
_symmetry_equiv_pos_as_xyz
1 x,y,z
2 -y,x,z
3 x,-y,-z
4 z,x,y
5 -x,-y,z
6 y,x,-z
7 -x,z,y
8 y,-x,z
9 -x,y,-z
10 -z,-x,y
11 -y,-x,-z
12 x,-z,y
13 z,-x,-y
14 -x,-z,-y
15 -z,x,-y
16 x,z,-y
17 y,z,x
18 -z,y,x
19 z,y,-x
20 y,-z,-x
21 -z,-y,-x
22 -y,z,-x
23 -y,-z,x
24 x,1/2+y,1/2+z
25 -y,1/2+x,1/2+z
26 x,1/2-y,1/2-z
27 z,1/2+x,1/2+y
28 -x,1/2-y,1/2+z
29 y,1/2+x,1/2-z
30 -x,1/2+z,1/2+y
31 y,1/2-x,1/2+z
32 -x,1/2+y,1/2-z
33 -z,1/2-x,1/2+y
34 -y,1/2-x,1/2-z
35 x,1/2-z,1/2+y
36 z,1/2-x,1/2-y
37 -x,1/2-z,1/2-y
38 -z,1/2+x,1/2-y
39 x,1/2+z,1/2-y
40 y,1/2+z,1/2+x
41 -z,1/2+y,1/2+x
42 z,1/2+y,1/2-x
43 y,1/2-z,1/2-x
44 -z,1/2-y,1/2-x
45 -y,1/2+z,1/2-x
46 -y,1/2-z,1/2+x
47 1/2+x,y,1/2+z
48 1/2-y,x,1/2+z
49 1/2+x,-y,1/2-z
50 1/2+z,x,1/2+y
51 1/2-x,-y,1/2+z
52 1/2+y,x,1/2-z
53 1/2-x,z,1/2+y
54 1/2+y,-x,1/2+z
55 1/2-x,y,1/2-z
56 1/2-z,-x,1/2+y
57 1/2-y,-x,1/2-z
58 1/2+x,-z,1/2+y
59 1/2+z,-x,1/2-y
60 1/2-x,-z,1/2-y
61 1/2-z,x,1/2-y
62 1/2+x,z,1/2-y
63 1/2+y,z,1/2+x
64 1/2-z,y,1/2+x
65 1/2+z,y,1/2-x
66 1/2+y,-z,1/2-x
67 1/2-z,-y,1/2-x
68 1/2-y,z,1/2-x
69 1/2-y,-z,1/2+x
70 1/2+x,1/2+y,z
71 1/2-y,1/2+x,z
72 1/2+x,1/2-y,-z
73 1/2+z,1/2+x,y
74 1/2-x,1/2-y,z
75 1/2+y,1/2+x,-z
76 1/2-x,1/2+z,y
77 1/2+y,1/2-x,z
78 1/2-x,1/2+y,-z
79 1/2-z,1/2-x,y
80 1/2-y,1/2-x,-z
81 1/2+x,1/2-z,y
82 1/2+z,1/2-x,-y
83 1/2-x,1/2-z,-y
84 1/2-z,1/2+x,-y
85 1/2+x,1/2+z,-y
86 1/2+y,1/2+z,x
87 1/2-z,1/2+y,x
88 1/2+z,1/2+y,-x
89 1/2+y,1/2-z,-x
90 1/2-z,1/2-y,-x
91 1/2-y,1/2+z,-x
92 1/2-y,1/2-z,x
93 z,-y,x
94 z,1/2-y,1/2+x
95 1/2+z,-y,1/2+x
96 1/2+z,1/2-y,x
97 -x,-y,-z
98 y,-x,-z
99 -x,y,z
100 -z,-x,-y
101 x,y,-z
102 -y,-x,z
103 x,-z,-y
104 -y,x,-z
105 x,-y,z
106 z,x,-y
107 y,x,z
108 -x,z,-y
109 -z,x,y
110 x,z,y
111 z,-x,y
112 -x,-z,y
113 -y,-z,-x
114 z,-y,-x
115 -z,-y,x
116 -y,z,x
117 z,y,x
118 y,-z,x
119 y,z,-x
120 -x,1/2-y,1/2-z
121 y,1/2-x,1/2-z
122 -x,1/2+y,1/2+z
123 -z,1/2-x,1/2-y
124 x,1/2+y,1/2-z
125 -y,1/2-x,1/2+z
126 x,1/2-z,1/2-y
127 -y,1/2+x,1/2-z
128 x,1/2-y,1/2+z
129 z,1/2+x,1/2-y
130 y,1/2+x,1/2+z
131 -x,1/2+z,1/2-y
132 -z,1/2+x,1/2+y
133 x,1/2+z,1/2+y
134 z,1/2-x,1/2+y
135 -x,1/2-z,1/2+y
136 -y,1/2-z,1/2-x
137 z,1/2-y,1/2-x
138 -z,1/2-y,1/2+x
139 -y,1/2+z,1/2+x
140 z,1/2+y,1/2+x
141 y,1/2-z,1/2+x
142 y,1/2+z,1/2-x
143 1/2-x,-y,1/2-z
144 1/2+y,-x,1/2-z
145 1/2-x,y,1/2+z
146 1/2-z,-x,1/2-y
147 1/2+x,y,1/2-z
148 1/2-y,-x,1/2+z
149 1/2+x,-z,1/2-y
150 1/2-y,x,1/2-z
151 1/2+x,-y,1/2+z
152 1/2+z,x,1/2-y
153 1/2+y,x,1/2+z
154 1/2-x,z,1/2-y
155 1/2-z,x,1/2+y
156 1/2+x,z,1/2+y
157 1/2+z,-x,1/2+y
158 1/2-x,-z,1/2+y
159 1/2-y,-z,1/2-x
160 1/2+z,-y,1/2-x
161 1/2-z,-y,1/2+x
162 1/2-y,z,1/2+x
163 1/2+z,y,1/2+x
164 1/2+y,-z,1/2+x
165 1/2+y,z,1/2-x
166 1/2-x,1/2-y,-z
167 1/2+y,1/2-x,-z
168 1/2-x,1/2+y,z
169 1/2-z,1/2-x,-y
170 1/2+x,1/2+y,-z
171 1/2-y,1/2-x,z
172 1/2+x,1/2-z,-y
173 1/2-y,1/2+x,-z
174 1/2+x,1/2-y,z
175 1/2+z,1/2+x,-y
176 1/2+y,1/2+x,z
177 1/2-x,1/2+z,-y
178 1/2-z,1/2+x,y
179 1/2+x,1/2+z,y
180 1/2+z,1/2-x,y
181 1/2-x,1/2-z,y
182 1/2-y,1/2-z,-x
183 1/2+z,1/2-y,-x
184 1/2-z,1/2-y,x
185 1/2-y,1/2+z,x
186 1/2+z,1/2+y,x
187 1/2+y,1/2-z,x
188 1/2+y,1/2+z,-x
189 -z,y,-x
190 -z,1/2+y,1/2-x
191 1/2-z,y,1/2-x
192 1/2-z,1/2+y,-x
_cell_length_a                   26.343(5)
_cell_length_b                   26.343(5)
_cell_length_c                   26.343(5)
_cell_angle_alpha                90
_cell_angle_beta                 90
_cell_angle_gamma                90
_cell_volume                     18280.8
loop_
_atom_site_label
_atom_site_type_symbol
_atom_site_fract_x
_atom_site_fract_y
_atom_site_fract_z
Cu1 Cu 0.21473(3) 0.50000(3) -0.2853
O1 O 0.3434(2) 0.5000(2) -0.1566
O2 O 0.18336(14) 0.25687(14) -0.05224(14)
C1 C 0.1780(2) 0.6780(2) -0.1130(3)
C2 C 0.2032(2) 0.2968(2) -0.0687(3)
C3 C 0.1994(2) 0.6345(3) -0.1345(2)
H1 H 0.1198(2) 0.3802(3) -0.2280(2)
Cu1LA Cu 0.21473(3) 0.2147 0.00000(3)
O2NF O 0.24313(14) 0.31664(14) -0.05224(14)
Cu1HA Cu 0.21473(3) 0.7853 0.00000(3)
Cu1KA Cu 0.2853 0.71473(3) 0.00000(3)
O2RB O 0.24313(14) 0.68336(14) -0.05224(14)
C2RB C 0.2032(2) 0.7032(2) -0.0687(3)
O2ZC O 0.18336(14) 0.74313(14) -0.05224(14)
C1JC C 0.1780(2) 0.6130(3) -0.1780(2)
C2HA C 0.2032(2) 0.5687(3) -0.2032(2)
O2HA O 0.18336(14) 0.55224(14) -0.24313(14)
Cu1FA Cu 0.2853 0.28527(3) 0.00000(3)
Cu1FG Cu 0.2853 0.50000(3) -0.21473(3)
O2DC O 0.31664(14) 0.55224(14) -0.25687(14)
O2JE O 0.25687(14) 0.55224(14) -0.31664(14)
O1FG O 0.1566 0.5000(2) -0.3434(2)
O2MA O 0.25687(14) 0.44776(14) -0.31664(14)
O2TF O 0.31664(14) 0.44776(14) -0.25687(14)
O2LC O 0.24313(14) 0.44776(14) -0.18336(14)
C2LC C 0.2032(2) 0.4313(3) -0.2032(2)
O2BE O 0.18336(14) 0.44776(14) -0.24313(14)
C1LA C 0.1780(2) 0.3870(3) -0.1780(2)
C3LA C 0.1994(2) 0.3655(2) -0.1345(3)
C1XB C 0.1780(2) 0.3220(2) -0.1130(3)
C3XB C 0.1345(3) 0.3006(2) -0.1345(2)
C1T C 0.1130(3) 0.3220(2) -0.1780(2)
C2FG C 0.0687(3) 0.2968(2) -0.2032(2)
O2FA O 0.05224(14) 0.31664(14) -0.24313(14)
Cu1PB Cu 0.00000(3) 0.2853 -0.28527(3)
Cu1YA Cu 0.00000(3) 0.21473(3) -0.2147
O1PB O -0.0000(2) 0.1566 -0.1566(2)
O2N O 0.05224(14) 0.18336(14) -0.25687(14)
O2AD O -0.05224(14) 0.18336(14) -0.25687(14)
O2R O -0.05224(14) 0.25687(14) -0.18336(14)
O2FG O 0.05224(14) 0.25687(14) -0.18336(14)
C3T C 0.1345(2) 0.3655(3) -0.1994(2)
H1LC H 0.1198(3) 0.2720(2) -0.1198(2)
H1FG H 0.2280(2) 0.3802(3) -0.1198(2)
O2YF O 0.24313(14) 0.55224(14) -0.18336(14)
C3FG C 0.1345(2) 0.6345(3) -0.1994(2)
C1FG C 0.1130(3) 0.6780(2) -0.1780(2)
C2T C 0.0687(3) 0.7032(2) -0.2032(2)
O2T O 0.05224(14) 0.74313(14) -0.18336(14)
Cu1DB Cu 0.00000(3) 0.78527(3) -0.2147
Cu1JB Cu 0.00000(3) 0.7147 -0.28527(3)
O2AE O 0.05224(14) 0.68336(14) -0.24313(14)
C3KA C 0.1345(2) 0.6994(2) -0.1345(3)
H1HA H 0.1198(2) 0.7280(2) -0.1198(3)
H1RB H 0.1198(3) 0.6198(2) -0.2280(2)
H1T H 0.2280(2) 0.6198(3) -0.1198(2)
O3 O 0.4247(10) 0.2267(26) 0.0000
loop_
_geom_bond_atom_site_label_1
_geom_bond_atom_site_label_2
_geom_bond_site_symmetry_1
_geom_bond_site_symmetry_2
Cu1 O2HA 1_555 1_555
O1 Cu1FG 1_555 1_555
O2 C2 1_555 1_555
C1 C3 1_555 1_555
C2 O2NF 1_555 1_555
C3 C1JC 1_555 1_555
H1 C3T 1_555 1_555
Cu1LA O2 1_555 1_555
O2NF Cu1FA 1_555 1_555
Cu1HA Cu1KA 1_555 1_555
Cu1KA O2RB 1_555 1_555
O2RB C2RB 1_555 1_555
C2RB C1 1_555 1_555
O2ZC Cu1HA 1_555 1_555
C1JC C2HA 1_555 1_555
C2HA O2HA 1_555 1_555
Cu1FA Cu1LA 1_555 1_555
Cu1FG Cu1 1_555 1_555
O2DC Cu1FG 1_555 1_555
O2JE Cu1 1_555 1_555
O1FG Cu1 1_555 1_555
O2MA Cu1 1_555 1_555
O2TF Cu1FG 1_555 1_555
O2LC Cu1FG 1_555 1_555
C2LC O2LC 1_555 1_555
O2BE Cu1 1_555 1_555
C1LA C2LC 1_555 1_555
C3LA C1LA 1_555 1_555
C1XB C2 1_555 1_555
C3XB C1XB 1_555 1_555
C1T C3XB 1_555 1_555
C2FG C1T 1_555 1_555
O2FA C2FG 1_555 1_555
Cu1PB O2FA 1_555 1_555
Cu1YA Cu1PB 1_555 1_555
O1PB Cu1YA 1_555 1_555
O2N Cu1YA 1_555 1_555
O2AD Cu1YA 1_555 1_555
O2R Cu1YA 1_555 1_555
O2FG C2FG 1_555 1_555
C3T C1LA 1_555 1_555
H1LC C3XB 1_555 1_555
H1FG C3LA 1_555 1_555
O2YF C2HA 1_555 1_555
C3FG C1JC 1_555 1_555
C1FG C3FG 1_555 1_555
C2T C1FG 1_555 1_555
O2T C2T 1_555 1_555
Cu1DB O2T 1_555 1_555
Cu1JB Cu1DB 1_555 1_555
O2AE C2T 1_555 1_555
C3KA C1 1_555 1_555
H1HA C3KA 1_555 1_555
H1RB C3FG 1_555 1_555
H1T C3 1_555 1_555
C2RB O2ZC 1_555 1_555
Cu1FG O2YF 1_555 1_555
C2LC O2BE 1_555 1_555
C3LA C1XB 1_555 1_555
C1T C3T 1_555 1_555
Cu1YA O2FG 1_555 1_555
C1FG C3KA 1_555 1_555
Cu1JB O2AE 1_555 1_555

#END
