
#######################################################################
#
#                 Cambridge Crystallographic Data Centre
#                                CCDC 
#
#######################################################################
#
# If this CIF has been generated from an entry in the Cambridge 
# Structural Database, then it will include bibliographic, chemical, 
# crystal, experimental, refinement or atomic coordinate data resulting 
# from the CCDC's data processing and validation procedures.
#
#######################################################################

data_FOVPOX
_chemical_formula_moiety         '(C36 H32 Cd2 N6 O16)n'
_symmetry_cell_setting           orthorhombic
_symmetry_space_group_name_H-M   'P b c n'
_symmetry_Int_Tables_number      60
_space_group_name_Hall           '-P 2n 2ab'
loop_
_symmetry_equiv_pos_site_id
_symmetry_equiv_pos_as_xyz
1 x,y,z
2 1/2-x,1/2-y,1/2+z
3 1/2+x,1/2-y,-z
4 -x,y,1/2-z
5 -x,-y,-z
6 1/2+x,1/2+y,1/2-z
7 1/2-x,1/2+y,z
8 x,-y,1/2+z
_cell_length_a                   24.542(4)
_cell_length_b                   12.641(2)
_cell_length_c                   15.446(3)
_cell_angle_alpha                90
_cell_angle_beta                 90
_cell_angle_gamma                90
_cell_volume                     4791.9
loop_
_atom_site_label
_atom_site_type_symbol
_atom_site_fract_x
_atom_site_fract_y
_atom_site_fract_z
_atom_site_U_iso_or_equiv
_atom_site_thermal_displace_type
O8 O 0.5463(3) 0.6928(6) 0.3826(6) 0.1073 Uani
H15 H 0.5531 0.7302 0.4269 0.1610 Uiso
H16 H 0.5749 0.6574 0.3715 0.1610 Uiso
O9 O 0.5000 0.8353(8) 0.2500 0.1140 Uani
H17 H 0.5029 0.7931 0.2935 0.1710 Uiso
H17C H 0.4971 0.7931 0.2065 0.1710 Uiso
C1 C 0.6256(3) 0.5354(6) 0.0263(5) 0.0530 Uani
H1 H 0.6128 0.5172 -0.0283 0.0640 Uiso
C2 C 0.5908(3) 0.5757(7) 0.0865(5) 0.0660 Uani
H2 H 0.5542 0.5854 0.0732 0.0790 Uiso
C3 C 0.6106(3) 0.6022(7) 0.1681(5) 0.0607 Uani
H3 H 0.5871 0.6309 0.2091 0.0730 Uiso
C4 C 0.6641(3) 0.5868(5) 0.1889(4) 0.0443 Uani
C5 C 0.6985(3) 0.5456(5) 0.1263(4) 0.0377 Uani
C6 C 0.7577(3) 0.5242(5) 0.1392(4) 0.0373 Uani
C7 C 0.8006(3) 0.5884(5) 0.1128(4) 0.0390 Uani
C8 C 0.8529(3) 0.5574(6) 0.1301(5) 0.0540 Uani
H4 H 0.8822 0.5990 0.1123 0.0650 Uiso
C9 C 0.8621(3) 0.4624(6) 0.1749(5) 0.0583 Uani
H5 H 0.8974 0.4424 0.1893 0.0700 Uiso
C10 C 0.8196(3) 0.4000(6) 0.1971(4) 0.0580 Uani
H6 H 0.8258 0.3356 0.2244 0.0700 Uiso
C11 C 0.6852(3) 0.6180(5) 0.2775(4) 0.0477 Uani
C12 C 0.7880(3) 0.6872(5) 0.0604(4) 0.0403 Uani
C13 C 0.8430(3) 0.5229(6) 0.4112(5) 0.0497 Uani
H7 H 0.8172 0.4766 0.3884 0.0590 Uiso
C14 C 0.8962(3) 0.4903(7) 0.4122(5) 0.0610 Uani
H8 H 0.9058 0.4252 0.3887 0.0730 Uiso
C15 C 0.9349(3) 0.5541(6) 0.4479(5) 0.0507 Uani
C16 C 0.9179(3) 0.6521(6) 0.4786(6) 0.0650 Uani
H9 H 0.9429 0.6999 0.5011 0.0780 Uiso
C17 C 0.8630(3) 0.6772(6) 0.4753(6) 0.0583 Uani
H10 H 0.8518 0.7412 0.4991 0.0700 Uiso
C18 C 0.9936(3) 0.5235(8) 0.4546(5) 0.0660 Uani
H11 H 1.0162 0.5852 0.4447 0.0790 Uiso
H12 H 1.0021 0.4716 0.4104 0.0790 Uiso
Cd1 Cd 0.735480(17) 0.67365(3) 0.43249(3) 0.0315 Uani
N1 N 0.8254(2) 0.6151(4) 0.4401(3) 0.0417 Uani
N2 N 0.7679(2) 0.4310(4) 0.1798(3) 0.0433 Uani
N3 N 0.6780(2) 0.5222(4) 0.0457(3) 0.0410 Uani
O1 O 0.7330(2) 0.5921(4) 0.2964(3) 0.0587 Uani
O2 O 0.6558(2) 0.6687(5) 0.3265(3) 0.0760 Uani
O3 O 0.82731(19) 0.7307(4) 0.0205(3) 0.0547 Uani
O4 O 0.73989(19) 0.7185(4) 0.0551(3) 0.0450 Uani
O5 O 0.7121(2) 0.4927(3) -0.0157(3) 0.0420 Uani
O6 O 0.7266(2) 0.3709(4) 0.2037(3) 0.0580 Uani
O7 O 0.7652(2) 0.8315(3) 0.3711(3) 0.0563 Uani
H13 H 0.7946 0.8596 0.4051 0.0840 Uiso
H14 H 0.7776 0.8184 0.3132 0.0840 Uiso
C13D C 1.1570(3) 0.4771(6) 0.5888(5) 0.0497 Uani
H7D H 1.1828 0.5234 0.6116 0.0590 Uiso
C14D C 1.1038(3) 0.5097(7) 0.5878(5) 0.0610 Uani
H8D H 1.0942 0.5748 0.6113 0.0730 Uiso
C15D C 1.0651(3) 0.4459(6) 0.5521(5) 0.0507 Uani
C16D C 1.0821(3) 0.3479(6) 0.5214(6) 0.0650 Uani
H9D H 1.0571 0.3001 0.4989 0.0780 Uiso
C17D C 1.1370(3) 0.3228(6) 0.5247(6) 0.0583 Uani
H10D H 1.1482 0.2588 0.5009 0.0700 Uiso
C18D C 1.0064(3) 0.4765(8) 0.5454(5) 0.0660 Uani
H11D H 0.9838 0.4148 0.5553 0.0790 Uiso
H12D H 0.9979 0.5284 0.5896 0.0790 Uiso
N1D N 1.1746(2) 0.3849(4) 0.5599(3) 0.0417 Uani
C1D C 1.3744(3) 0.4646(6) 0.9737(5) 0.0530 Uani
H1D H 1.3872 0.4828 1.0283 0.0640 Uiso
C2D C 1.4092(3) 0.4243(7) 0.9135(5) 0.0660 Uani
H2D H 1.4458 0.4146 0.9268 0.0790 Uiso
C3D C 1.3894(3) 0.3978(7) 0.8319(5) 0.0607 Uani
H3D H 1.4129 0.3691 0.7909 0.0730 Uiso
C4D C 1.3359(3) 0.4132(5) 0.8111(4) 0.0443 Uani
C5D C 1.3015(3) 0.4544(5) 0.8737(4) 0.0377 Uani
C6D C 1.2423(3) 0.4758(5) 0.8608(4) 0.0373 Uani
C7D C 1.1994(3) 0.4116(5) 0.8872(4) 0.0390 Uani
C8D C 1.1471(3) 0.4426(6) 0.8699(5) 0.0540 Uani
H4D H 1.1178 0.4010 0.8877 0.0650 Uiso
C9D C 1.1379(3) 0.5376(6) 0.8251(5) 0.0583 Uani
H5D H 1.1026 0.5576 0.8107 0.0700 Uiso
C10D C 1.1804(3) 0.6000(6) 0.8029(4) 0.0580 Uani
H6D H 1.1742 0.6644 0.7756 0.0700 Uiso
C11D C 1.3148(3) 0.3820(5) 0.7225(4) 0.0477 Uani
C12D C 1.2120(3) 0.3128(5) 0.9396(4) 0.0403 Uani
Cd1D Cd 1.264520(17) 0.32635(3) 0.56751(3) 0.0315 Uani
N2D N 1.2321(2) 0.5690(4) 0.8202(3) 0.0433 Uani
N3D N 1.3220(2) 0.4778(4) 0.9543(3) 0.0410 Uani
O1D O 1.2670(2) 0.4079(4) 0.7036(3) 0.0587 Uani
O2D O 1.3442(2) 0.3313(5) 0.6735(3) 0.0760 Uani
O3D O 1.17269(19) 0.2693(4) 0.9795(3) 0.0547 Uani
O4D O 1.26011(19) 0.2815(4) 0.9449(3) 0.0450 Uani
O5D O 1.2879(2) 0.5073(3) 1.0157(3) 0.0420 Uani
O6D O 1.2734(2) 0.6291(4) 0.7963(3) 0.0580 Uani
O7D O 1.2348(2) 0.1685(3) 0.6289(3) 0.0563 Uani
H13D H 1.2054 0.1404 0.5949 0.0840 Uiso
H14D H 1.2224 0.1816 0.6868 0.0840 Uiso
Cd1A Cd 0.764520(17) 0.82635(3) -0.06751(3) 0.0315 Uani
Cd1C Cd 1.264520(17) 0.67365(3) 1.06751(3) 0.0315 Uani
Cd1E Cd 1.235480(17) 0.17365(3) 1.06751(3) 0.0315 Uani
Cd1G Cd 0.735480(17) 0.32635(3) -0.06751(3) 0.0315 Uani
O3A O 0.67269(19) 0.7693(4) 0.5205(3) 0.0547 Uani
O3E O 1.32731(19) 0.2307(4) 0.4795(3) 0.0547 Uani
O4A O 0.76011(19) 0.7815(4) 0.5551(3) 0.0450 Uani
O4E O 1.23989(19) 0.2185(4) 0.4449(3) 0.0450 Uani
O5C O 1.2879(2) 0.4927(3) 0.5157(3) 0.0420 Uani
O5G O 0.7121(2) 0.5073(3) 0.4843(3) 0.0420 Uani
loop_
_atom_site_aniso_label
_atom_site_aniso_U_11
_atom_site_aniso_U_22
_atom_site_aniso_U_33
_atom_site_aniso_U_23
_atom_site_aniso_U_13
_atom_site_aniso_U_12
O8 0.093(5) 0.123(6) 0.106(6) -0.006(5) 0.003(5) 0.002(4)
O9 0.126(10) 0.103(8) 0.113(9) 0.000 -0.012(7) 0.000
C1 0.054(4) 0.064(5) 0.041(4) -0.003(4) -0.010(3) -0.010(4)
C2 0.044(4) 0.082(6) 0.072(5) 0.000(5) -0.004(4) -0.002(4)
C3 0.049(4) 0.081(6) 0.052(5) 0.002(4) 0.010(4) 0.007(4)
C4 0.044(4) 0.050(4) 0.039(4) -0.002(3) 0.008(3) 0.001(3)
C5 0.049(4) 0.032(3) 0.032(3) 0.000(3) 0.000(3) -0.005(3)
C6 0.052(4) 0.034(3) 0.026(3) 0.003(3) 0.002(3) 0.006(3)
C7 0.049(4) 0.041(4) 0.027(3) 0.005(3) 0.005(3) 0.005(3)
C8 0.049(4) 0.059(4) 0.054(4) 0.015(4) -0.003(3) 0.003(3)
C9 0.046(4) 0.070(5) 0.059(5) 0.017(4) 0.000(3) 0.020(4)
C10 0.068(5) 0.063(5) 0.043(4) 0.021(4) 0.005(4) 0.027(4)
C11 0.071(5) 0.048(4) 0.024(3) -0.004(3) 0.007(3) 0.002(4)
C12 0.046(4) 0.042(4) 0.033(3) 0.003(3) -0.004(3) 0.002(3)
C13 0.051(4) 0.043(4) 0.055(4) -0.010(3) -0.007(3) 0.006(3)
C14 0.055(5) 0.066(5) 0.062(5) -0.010(4) 0.003(4) 0.021(4)
C15 0.042(4) 0.055(4) 0.055(4) 0.007(3) -0.001(3) 0.011(3)
C16 0.034(4) 0.066(5) 0.095(6) -0.017(5) -0.001(4) -0.007(4)
C17 0.045(4) 0.048(4) 0.082(6) -0.006(4) -0.008(4) 0.007(3)
C18 0.040(4) 0.091(6) 0.067(5) 0.000(5) 0.008(4) 0.018(4)
Cd1 0.0362(3) 0.0294(3) 0.0289(3) -0.00203(17) -0.00135(17) 0.00333(18)
N1 0.036(3) 0.041(3) 0.048(3) 0.002(3) -0.001(2) 0.003(2)
N2 0.060(3) 0.042(3) 0.028(3) 0.002(2) 0.007(2) 0.001(3)
N3 0.058(3) 0.036(3) 0.029(3) -0.004(2) 0.000(2) -0.004(3)
O1 0.074(4) 0.072(4) 0.030(3) -0.009(2) -0.004(2) -0.004(3)
O2 0.059(3) 0.128(5) 0.041(3) -0.030(3) -0.016(3) 0.027(3)
O3 0.051(3) 0.055(3) 0.058(3) 0.023(3) 0.007(2) 0.001(2)
O4 0.052(3) 0.042(3) 0.041(3) 0.007(2) -0.006(2) 0.002(2)
O5 0.062(3) 0.037(3) 0.027(3) -0.0083(19) 0.007(2) 0.002(2)
O6 0.086(4) 0.039(3) 0.049(3) 0.008(2) 0.002(3) -0.003(3)
O7 0.097(4) 0.035(3) 0.037(3) 0.005(2) -0.002(2) -0.007(2)
C13D 0.051 0.043 0.055 -0.01 -0.007 0.006
C14D 0.055 0.066 0.062 -0.01 0.003 0.021
C15D 0.042 0.055 0.055 0.007 -0.001 0.011
C16D 0.034 0.066 0.095 -0.017 -0.001 -0.007
C17D 0.045 0.048 0.082 -0.006 -0.008 0.007
C18D 0.04 0.091 0.067 0 0.008 0.018
N1D 0.036 0.041 0.048 0.002 -0.001 0.003
C1D 0.054 0.064 0.041 -0.003 -0.01 -0.01
C2D 0.044 0.082 0.072 0 -0.004 -0.002
C3D 0.049 0.081 0.052 0.002 0.01 0.007
C4D 0.044 0.05 0.039 -0.002 0.008 0.001
C5D 0.049 0.032 0.032 0 0 -0.005
C6D 0.052 0.034 0.026 0.003 0.002 0.006
C7D 0.049 0.041 0.027 0.005 0.005 0.005
C8D 0.049 0.059 0.054 0.015 -0.003 0.003
C9D 0.046 0.07 0.059 0.017 0 0.02
C10D 0.068 0.063 0.043 0.021 0.005 0.027
C11D 0.071 0.048 0.024 -0.004 0.007 0.002
C12D 0.046 0.042 0.033 0.003 -0.004 0.002
Cd1D 0.0362 0.0294 0.0289 -0.00203 -0.00135 0.00333
N2D 0.06 0.042 0.028 0.002 0.007 0.001
N3D 0.058 0.036 0.029 -0.004 0 -0.004
O1D 0.074 0.072 0.03 -0.009 -0.004 -0.004
O2D 0.059 0.128 0.041 -0.03 -0.016 0.027
O3D 0.051 0.055 0.058 0.023 0.007 0.001
O4D 0.052 0.042 0.041 0.007 -0.006 0.002
O5D 0.062 0.037 0.027 -0.0083 0.007 0.002
O6D 0.086 0.039 0.049 0.008 0.002 -0.003
O7D 0.097 0.035 0.037 0.005 -0.002 -0.007
Cd1A 0.0362 0.0294 0.0289 0.00203 0.00135 0.00333
Cd1C 0.0362 0.0294 0.0289 0.00203 -0.00135 -0.00333
Cd1E 0.0362 0.0294 0.0289 0.00203 0.00135 0.00333
Cd1G 0.0362 0.0294 0.0289 0.00203 -0.00135 -0.00333
O3A 0.051 0.055 0.058 -0.023 -0.007 0.001
O3E 0.051 0.055 0.058 -0.023 -0.007 0.001
O4A 0.052 0.042 0.041 -0.007 0.006 0.002
O4E 0.052 0.042 0.041 -0.007 0.006 0.002
O5C 0.062 0.037 0.027 0.0083 0.007 -0.002
O5G 0.062 0.037 0.027 0.0083 0.007 -0.002
loop_
_geom_bond_atom_site_label_1
_geom_bond_atom_site_label_2
_geom_bond_site_symmetry_1
_geom_bond_site_symmetry_2
C1 H1 1_555 1_555
C2 C1 1_555 1_555
H2 C2 1_555 1_555
C3 C2 1_555 1_555
H3 C3 1_555 1_555
C4 C3 1_555 1_555
C5 C4 1_555 1_555
C6 C5 1_555 1_555
C7 C6 1_555 1_555
C8 C7 1_555 1_555
H4 C8 1_555 1_555
C9 C8 1_555 1_555
H5 C9 1_555 1_555
C10 C9 1_555 1_555
H6 C10 1_555 1_555
C11 C4 1_555 1_555
C12 C7 1_555 1_555
C13 H7 1_555 1_555
C14 C13 1_555 1_555
H8 C14 1_555 1_555
C15 C14 1_555 1_555
C16 C15 1_555 1_555
H9 C16 1_555 1_555
C17 C16 1_555 1_555
H10 C17 1_555 1_555
C18 C15 1_555 1_555
H11 C18 1_555 1_555
H12 C18 1_555 1_555
Cd1 N1 1_555 1_555
N1 C13 1_555 1_555
N2 C6 1_555 1_555
N3 C1 1_555 1_555
O1 C11 1_555 1_555
O2 C11 1_555 1_555
O3 C12 1_555 1_555
O4 C12 1_555 1_555
O5 N3 1_555 1_555
O6 N2 1_555 1_555
O7 Cd1 1_555 1_555
H13 O7 1_555 1_555
H14 O7 1_555 1_555
O8 H15 1_555 1_555
H16 O8 1_555 1_555
O9 H17 1_555 1_555
C13D H7D 1_555 1_555
C14D C13D 1_555 1_555
H8D C14D 1_555 1_555
C15D C14D 1_555 1_555
C16D C15D 1_555 1_555
H9D C16D 1_555 1_555
C17D C16D 1_555 1_555
H10D C17D 1_555 1_555
C18D C18 1_555 1_555
H11D C18D 1_555 1_555
H12D C18D 1_555 1_555
N1D C13D 1_555 1_555
C1D H1D 1_555 1_555
C2D C1D 1_555 1_555
H2D C2D 1_555 1_555
C3D C2D 1_555 1_555
H3D C3D 1_555 1_555
C4D C3D 1_555 1_555
C5D C4D 1_555 1_555
C6D C5D 1_555 1_555
C7D C6D 1_555 1_555
C8D C7D 1_555 1_555
H4D C8D 1_555 1_555
C9D C8D 1_555 1_555
H5D C9D 1_555 1_555
C10D C9D 1_555 1_555
H6D C10D 1_555 1_555
C11D C4D 1_555 1_555
C12D C7D 1_555 1_555
Cd1D N1D 1_555 1_555
N2D C6D 1_555 1_555
N3D C1D 1_555 1_555
O1D C11D 1_555 1_555
O2D C11D 1_555 1_555
O3D C12D 1_555 1_555
O4D C12D 1_555 1_555
O5D N3D 1_555 1_555
O6D N2D 1_555 1_555
O7D Cd1D 1_555 1_555
H13D O7D 1_555 1_555
H14D O7D 1_555 1_555
Cd1A O3 1_555 1_555
Cd1C O5D 1_555 1_555
Cd1E O3D 1_555 1_555
Cd1G O5 1_555 1_555
O3A Cd1 1_555 1_555
O3E Cd1D 1_555 1_555
O4A Cd1 1_555 1_555
O4E Cd1D 1_555 1_555
O5C Cd1D 1_555 1_555
O5G Cd1 1_555 1_555
H17C O9 1_555 1_555
C5 N3 1_555 1_555
C10 N2 1_555 1_555
C17 N1 1_555 1_555
Cd1 O1 1_555 1_555
Cd1 O2 1_555 1_555
O4 Cd1A 1_555 1_555
C15D C18D 1_555 1_555
C17D N1D 1_555 1_555
C5D N3D 1_555 1_555
C10D N2D 1_555 1_555
Cd1D O1D 1_555 1_555
Cd1D O2D 1_555 1_555
O4D Cd1E 1_555 1_555

#END
