
#######################################################################
#
#                 Cambridge Crystallographic Data Centre
#                                CCDC 
#
#######################################################################
#
# If this CIF has been generated from an entry in the Cambridge 
# Structural Database, then it will include bibliographic, chemical, 
# crystal, experimental, refinement or atomic coordinate data resulting 
# from the CCDC's data processing and validation procedures.
#
#######################################################################

data_GIYSOX
_chemical_formula_moiety         'C39 H28 Cu8 Mo1 N13 O2 S4'
_symmetry_cell_setting           monoclinic
_symmetry_space_group_name_H-M   'P 2/c'
_symmetry_Int_Tables_number      13
_space_group_name_Hall           '-P 2yc'
loop_
_symmetry_equiv_pos_site_id
_symmetry_equiv_pos_as_xyz
1 x,y,z
2 -x,y,1/2-z
3 -x,-y,-z
4 x,-y,1/2+z
_cell_length_a                   9.6362(19)
_cell_length_b                   11.462(2)
_cell_length_c                   19.147(4)
_cell_angle_alpha                90
_cell_angle_beta                 97.98(3)
_cell_angle_gamma                90
_cell_volume                     2094.31
loop_
_atom_site_label
_atom_site_type_symbol
_atom_site_fract_x
_atom_site_fract_y
_atom_site_fract_z
Mo1 Mo 1.0000 -0.61647(9) 0.2500
Cu1 Cu 0.72027(11) -0.61769(10) 0.21159(6)
Cu2 Cu 1.04016(12) -0.61678(11) 0.11294(6)
S1 S 0.8819(2) -0.7255(2) 0.16561(11)
S2 S 1.1538(2) -0.5066(2) 0.20228(11)
C1 C 0.5563(9) -0.6950(8) 0.2409(5)
N2 N 0.6204(7) -0.5007(7) 0.1370(4)
N3 N 1.0054(10) -0.5254(11) 0.0258(5)
C3 C 0.6888(11) -0.4255(10) 0.1024(6)
H1 H 0.7881 -0.4243 0.1124
C4 C 0.6250(11) -0.3484(10) 0.0525(6)
H2 H 0.6806 -0.2973 0.0289
C5 C 0.4820(11) -0.3453(8) 0.0371(5)
C6 C 0.4080(11) -0.4233(10) 0.0732(6)
H3 H 0.3085 -0.4255 0.0645
C7 C 0.4803(10) -0.4979(10) 0.1221(5)
H4 H 0.4276 -0.5502 0.1465
C8 C 0.395(3) -0.2599(19) -0.0115(8)
H5 H 0.3053 -0.2973 -0.0309
H6 H 0.4458 -0.2405 -0.0515
C9 C 0.365(2) -0.1480(15) 0.0267(10)
H7 H 0.4542 -0.1108 0.0469
H8 H 0.3113 -0.1665 0.0658
C10 C 0.2807(18) -0.0643(12) -0.0248(8)
H9 H 0.3389 -0.0413 -0.0613
H10 H 0.1974 -0.1059 -0.0488
C11 C 0.2322(13) 0.0457(9) 0.0096(6)
C12 C 0.2969(11) 0.0835(10) 0.0751(6)
H11 H 0.3727 0.0403 0.0995
C13 C 0.2507(12) 0.1844(10) 0.1048(5)
H12 H 0.2949 0.2103 0.1496
N4 N 0.1398(13) 0.2476(8) 0.0691(6)
C14 C 0.0751(12) 0.2098(10) 0.0036(5)
H13 H -0.0007 0.2530 -0.0209
C15 C 0.1213(12) 0.1089(10) -0.0262(5)
H14 H 0.0771 0.0830 -0.0709
Cu1A Cu 1.27973(11) -0.61769(10) 0.28841(6)
Cu1A_2 Cu 0.27973(11) -0.61769(10) 0.28841(6)
Cu1_2 Cu 1.72027(11) -1.61769(10) 0.21159(6)
Cu2A Cu 0.95984(12) -0.61678(11) 0.38706(6)
Cu2_2 Cu 0.04016(12) 0.38322(11) 0.11294(6)
Cu2B Cu 0.95984(12) -0.38322(11) -0.11294(6)
S1A S 1.1181(2) -0.7255(2) 0.33439(11)
S2A S 0.8462(2) -0.5066(2) 0.29772(11)
C1A C 0.4437(9) -0.6950(8) 0.2591(5)
C1A_2 C 1.4437(9) -0.6950(8) 0.2591(5)
N2_2 N 1.6204(7) -1.5007(7) 0.1370(4)
N2A N 1.3796(7) -0.5007(7) 0.3630(4)
N3B N 0.9946(10) -0.4746(11) -0.0258(5)
N3A N 0.9946(10) -0.5254(11) 0.4742(5)
C3_2 C 1.6888(11) -1.4255(10) 0.1024(6)
H1_2 H 1.7881 -1.4243 0.1124
C4_2 C 1.6250(11) -1.3484(10) 0.0525(6)
H2_2 H 1.6806 -1.2973 0.0289
C5_2 C 1.4820(11) -1.3453(8) 0.0371(5)
C6_2 C 1.4080(11) -1.4233(10) 0.0732(6)
H3_2 H 1.3085 -1.4255 0.0645
C7_2 C 1.4803(10) -1.4979(10) 0.1221(5)
H4_2 H 1.4276 -1.5502 0.1465
C8_2 C 1.395(3) -1.2599(19) -0.0115(8)
H5_2 H 1.3053 -1.2973 -0.0309
H6_2 H 1.4458 -1.2405 -0.0515
C9_2 C 1.365(2) -1.1480(15) 0.0267(10)
H7_2 H 1.4542 -1.1108 0.0469
H8_2 H 1.3113 -1.1665 0.0658
C10_2 C 1.2807(18) -1.0643(12) -0.0248(8)
H9_2 H 1.3389 -1.0413 -0.0613
H10_2 H 1.1974 -1.1059 -0.0488
C11_2 C 1.2322(13) -0.9543(9) 0.0096(6)
C12_2 C 1.2969(11) -0.9165(10) 0.0751(6)
H11_2 H 1.3727 -0.9597 0.0995
C13_2 C 1.2507(12) -0.8156(10) 0.1048(5)
H12_2 H 1.2949 -0.7897 0.1496
N4_2 N 1.1398(13) -0.7524(8) 0.0691(6)
N4A N 0.8602(13) -0.7524(8) 0.4309(6)
C14_2 C 1.0751(12) -0.7902(10) 0.0036(5)
H13_2 H 0.9993 -0.7470 -0.0209
C15_2 C 1.1213(12) -0.8911(10) -0.0262(5)
H14_2 H 1.0771 -0.9170 -0.0709
C24 C -0.030(7) 0.219(5) 0.684(4)
C25 C 0.083(8) 0.182(6) 0.685(4)
N6 N -0.030(4) 0.152(4) 0.749(3)
C26 C 0.030(5) 0.045(4) 0.746(3)
O1 O 0.038(5) -0.021(4) 0.798(3)
C24A C 0.030(7) 0.219(5) 0.816(4)
C25A C -0.083(8) 0.182(6) 0.815(4)
N6A N 0.030(4) 0.152(4) 0.751(3)
C26A C -0.030(5) 0.045(4) 0.754(3)
O1A O -0.038(5) -0.021(4) 0.702(3)
N7 N 0.393(4) 0.059(3) 0.813(2)
C27 C 0.528(7) 0.234(3) 0.745(4)
C28 C 0.450(5) 0.133(4) 0.774(3)
N7A N 0.607(4) 0.059(3) 0.687(2)
C27A C 0.472(7) 0.234(3) 0.755(4)
C28A C 0.550(5) 0.133(4) 0.726(3)
loop_
_geom_bond_atom_site_label_1
_geom_bond_atom_site_label_2
_geom_bond_site_symmetry_1
_geom_bond_site_symmetry_2
Mo1 S1 1_555 1_555
Cu1 S1 1_555 1_555
Cu2 S1 1_555 1_555
S2 Mo1 1_555 1_555
C1 Cu1 1_555 1_555
N2 Cu1 1_555 1_555
N3 Cu2 1_555 1_555
C3 N2 1_555 1_555
H1 C3 1_555 1_555
C4 C3 1_555 1_555
H2 C4 1_555 1_555
C5 C4 1_555 1_555
C6 C5 1_555 1_555
H3 C6 1_555 1_555
C7 N2 1_555 1_555
H4 C7 1_555 1_555
C8 C5 1_555 1_555
H5 C8 1_555 1_555
H6 C8 1_555 1_555
C9 C8 1_555 1_555
H7 C9 1_555 1_555
H8 C9 1_555 1_555
C10 C9 1_555 1_555
H9 C10 1_555 1_555
H10 C10 1_555 1_555
C11 C10 1_555 1_555
C12 C11 1_555 1_555
H11 C12 1_555 1_555
C13 C12 1_555 1_555
H12 C13 1_555 1_555
N4 C13 1_555 1_555
C14 N4 1_555 1_555
H13 C14 1_555 1_555
C15 C11 1_555 1_555
H14 C15 1_555 1_555
C24 C25 1_555 1_555
C25 N6A 1_555 1_555
N6 C24 1_555 1_555
C26 N6 1_555 1_555
O1 C26 1_555 1_555
N7 C28 1_555 1_555
C27 C28 1_555 1_555
C28 C27A 1_555 1_555
Cu1A S2 1_555 1_555
Cu1A_2 C1A 1_555 1_555
Cu1_2 N2_2 1_555 1_555
Cu2A S1A 1_555 1_555
Cu2_2 N4 1_555 1_555
Cu2B N3B 1_555 1_555
S1A Mo1 1_555 1_555
S2A Mo1 1_555 1_555
C1A C1 1_555 1_555
C1A_2 Cu1A 1_555 1_555
N2_2 C3_2 1_555 1_555
N2A Cu1A 1_555 1_555
N3B N3 1_555 1_555
N3A Cu2A 1_555 1_555
C3_2 H1_2 1_555 1_555
C4_2 C3_2 1_555 1_555
H2_2 C4_2 1_555 1_555
C5_2 C4_2 1_555 1_555
C6_2 C5_2 1_555 1_555
H3_2 C6_2 1_555 1_555
C7_2 N2_2 1_555 1_555
H4_2 C7_2 1_555 1_555
C8_2 C5_2 1_555 1_555
H5_2 C8_2 1_555 1_555
H6_2 C8_2 1_555 1_555
C9_2 C8_2 1_555 1_555
H7_2 C9_2 1_555 1_555
H8_2 C9_2 1_555 1_555
C10_2 C9_2 1_555 1_555
H9_2 C10_2 1_555 1_555
H10_2 C10_2 1_555 1_555
C11_2 C10_2 1_555 1_555
C12_2 C11_2 1_555 1_555
H11_2 C12_2 1_555 1_555
C13_2 C12_2 1_555 1_555
H12_2 C13_2 1_555 1_555
N4_2 Cu2 1_555 1_555
N4A Cu2A 1_555 1_555
C14_2 N4_2 1_555 1_555
H13_2 C14_2 1_555 1_555
C15_2 C11_2 1_555 1_555
H14_2 C15_2 1_555 1_555
C24A N6 1_555 1_555
C25A N6 1_555 1_555
N6A C24 1_555 1_555
C26A N6 1_555 1_555
O1A C26 1_555 1_555
N7A C28A 1_555 1_555
C27A C27 1_555 1_555
C28A C27 1_555 1_555
Cu1 S2A 1_555 1_555
Cu2 S2 1_555 1_555
C6 C7 1_555 1_555
C14 C15 1_555 1_555
N6 N6A 1_555 1_555
C26 N6A 1_555 1_555
C26 C26A 1_555 1_555
O1 C26A 1_555 1_555
C28 C28A 1_555 1_555
Cu1A S1A 1_555 1_555
Cu2A S2A 1_555 1_555
C6_2 C7_2 1_555 1_555
C13_2 N4_2 1_555 1_555
C14_2 C15_2 1_555 1_555
C24A C25A 1_555 1_555
C24A N6A 1_555 1_555
N6A C26A 1_555 1_555
C26A O1A 1_555 1_555
C27A C28A 1_555 1_555

#END
