
#######################################################################
#
#                 Cambridge Crystallographic Data Centre
#                                CCDC 
#
#######################################################################
#
# If this CIF has been generated from an entry in the Cambridge 
# Structural Database, then it will include bibliographic, chemical, 
# crystal, experimental, refinement or atomic coordinate data resulting 
# from the CCDC's data processing and validation procedures.
#
#######################################################################

data_GIYSEN
_chemical_formula_moiety         'C53 H28 Cu8 Mo1 N13 S4'
_symmetry_cell_setting           monoclinic
_symmetry_space_group_name_H-M   'P 2/c'
_symmetry_Int_Tables_number      13
_space_group_name_Hall           '-P 2yc'
loop_
_symmetry_equiv_pos_site_id
_symmetry_equiv_pos_as_xyz
1 x,y,z
2 -x,y,1/2-z
3 -x,-y,-z
4 x,-y,1/2+z
_cell_length_a                   9.6701(19)
_cell_length_b                   11.742(2)
_cell_length_c                   18.852(4)
_cell_angle_alpha                90
_cell_angle_beta                 97.91(3)
_cell_angle_gamma                90
_cell_volume                     2120.21
loop_
_atom_site_label
_atom_site_type_symbol
_atom_site_fract_x
_atom_site_fract_y
_atom_site_fract_z
Mo1 Mo 0.0000 0.37281(9) 0.2500
Cu1 Cu 0.03814(13) 0.37517(10) 0.11034(6)
Cu2 Cu -0.27939(12) 0.37286(10) 0.21041(6)
S1 S -0.1184(2) 0.2672(2) 0.16378(13)
S2 S 0.1532(2) 0.4800(2) 0.20161(13)
N1 N 0.0038(10) 0.4704(8) 0.0251(5)
C2 C -0.4453(9) 0.3009(8) 0.2401(5)
N3 N 0.6208(8) -0.5095(7) 0.1368(4)
N4 N 0.1402(9) 0.2352(8) 0.0703(5)
C3 C 0.4819(10) -0.5046(9) 0.1225(6)
H1 H 0.4287 -0.5570 0.1460
C4 C 0.4114(11) -0.4275(9) 0.0755(6)
H2 H 0.3122 -0.4279 0.0673
C5 C 0.4848(11) -0.3504(8) 0.0407(6)
C6 C 0.6281(13) -0.3572(9) 0.0546(7)
H3 H 0.6833 -0.3055 0.0318
C7 C 0.6933(11) -0.4376(9) 0.1011(6)
H4 H 0.7924 -0.4420 0.1080
C8 C 0.4122(13) -0.2613(8) -0.0089(6)
H5 H 0.4736 -0.2404 -0.0447
H6 H 0.3256 -0.2944 -0.0349
C9 C 0.3756(12) -0.1550(9) 0.0293(6)
H7 H 0.3168 -0.1760 0.0664
H8 H 0.4624 -0.1201 0.0539
C10 C 0.2989(13) -0.0687(9) -0.0205(6)
H9 H 0.3621 -0.0438 -0.0546
H10 H 0.2186 -0.1075 -0.0488
C11 C 0.2455(11) 0.0349(8) 0.0124(6)
C12 C 0.1364(11) 0.0980(8) -0.0243(6)
H11 H 0.0949 0.0735 -0.0704
C13 C 0.0880(11) 0.1944(9) 0.0046(6)
H12 H 0.0139 0.2349 -0.0226
C14 C 0.2479(12) 0.1735(10) 0.1056(6)
H13 H 0.2883 0.1982 0.1518
C15 C 0.3002(13) 0.0785(10) 0.0780(6)
H14 H 0.3772 0.0409 0.1048
Cu1A Cu -0.03814(13) 0.37517(10) 0.38966(6)
Cu1B Cu -0.03814(13) 0.62483(10) -0.11034(6)
Cu1_2 Cu -0.96186(13) 1.37517(10) 0.11034(6)
Cu2A Cu 0.27939(12) 0.37286(10) 0.28959(6)
Cu2_2 Cu 0.72061(12) -0.62714(10) 0.21041(6)
Cu2A_2 Cu -0.72061(12) 0.37286(10) 0.28959(6)
S1A S 0.1184(2) 0.2672(2) 0.33622(13)
S2A S -0.1532(2) 0.4800(2) 0.29839(13)
N1B N -0.0038(10) 0.5296(8) -0.0251(5)
N1A N -0.0038(10) 0.4704(8) 0.4749(5)
C2A C -0.5547(9) 0.3009(8) 0.2599(5)
C2A_2 C 0.4453(9) 0.3009(8) 0.2599(5)
N3_2 N -0.3792(8) 0.4905(7) 0.1368(4)
N3A N 0.3792(8) 0.4905(7) 0.3632(4)
N4_2 N -0.8598(9) 1.2352(8) 0.0703(5)
N4A N -0.1402(9) 0.2352(8) 0.4297(5)
C3_2 C -0.5181(10) 0.4954(9) 0.1225(6)
H1_2 H -0.5713 0.4430 0.1460
C4_2 C -0.5886(11) 0.5725(9) 0.0755(6)
H2_2 H -0.6878 0.5721 0.0673
C5_2 C -0.5152(11) 0.6496(8) 0.0407(6)
C6_2 C -0.3719(13) 0.6428(9) 0.0546(7)
H3_2 H -0.3167 0.6945 0.0318
C7_2 C -0.3067(11) 0.5624(9) 0.1011(6)
H4_2 H -0.2076 0.5580 0.1080
C8_2 C -0.5878(13) 0.7387(8) -0.0089(6)
H5_2 H -0.5264 0.7596 -0.0447
H6_2 H -0.6744 0.7056 -0.0349
C9_2 C -0.6244(12) 0.8450(9) 0.0293(6)
H7_2 H -0.6832 0.8240 0.0664
H8_2 H -0.5376 0.8799 0.0539
C10_2 C -0.7011(13) 0.9313(9) -0.0205(6)
H9_2 H -0.6379 0.9562 -0.0546
H10_2 H -0.7814 0.8925 -0.0488
C11_2 C -0.7545(11) 1.0349(8) 0.0124(6)
C12_2 C -0.8636(11) 1.0980(8) -0.0243(6)
H11_2 H -0.9051 1.0735 -0.0704
C13_2 C -0.9120(11) 1.1944(9) 0.0046(6)
H12_2 H -0.9861 1.2349 -0.0226
C14_2 C -0.7521(12) 1.1735(10) 0.1056(6)
H13_2 H -0.7117 1.1982 0.1518
C15_2 C -0.6998(13) 1.0785(10) 0.0780(6)
H14_2 H -0.6228 1.0409 0.1048
N5 N 0.377(3) 1.037(2) 0.3008(17)
C16 C 0.436(3) 0.9543(14) 0.271(2)
C17 C 0.400(2) 0.8423(15) 0.2838(14)
C18 C 0.474(2) 0.7530(13) 0.2588(14)
C19 C 0.415(2) 0.7757(16) 0.2789(14)
C20 C 0.379(2) 0.8876(18) 0.2916(14)
C21 C 0.453(3) 0.9769(14) 0.267(2)
N5A N 0.623(3) 1.037(2) 0.1992(17)
C16A C 0.564(3) 0.9543(14) 0.229(2)
C17A C 0.600(2) 0.8423(15) 0.2162(14)
C18A C 0.526(2) 0.7530(13) 0.2412(14)
C19A C 0.585(2) 0.7757(16) 0.2211(14)
C20A C 0.621(2) 0.8876(18) 0.2084(14)
C21A C 0.547(3) 0.9769(14) 0.233(2)
N6 N -0.116(3) -0.1955(19) 0.3380(16)
C22 C -0.042(2) -0.1619(12) 0.2896(11)
C23 C 0.019(3) -0.2419(10) 0.2493(14)
C24 C -0.094(3) -0.2063(15) 0.3045(13)
C25 C -0.108(2) -0.0907(17) 0.3179(10)
C26 C -0.047(3) -0.0108(12) 0.2776(13)
C27 C -0.028(3) -0.0464(11) 0.2762(13)
N6A N 0.116(3) -0.1955(19) 0.1620(16)
C22A C 0.042(2) -0.1619(12) 0.2104(11)
C23A C -0.019(3) -0.2419(10) 0.2507(14)
C24A C 0.094(3) -0.2063(15) 0.1955(13)
C25A C 0.108(2) -0.0907(17) 0.1821(10)
C26A C 0.047(3) -0.0108(12) 0.2224(13)
C27A C 0.028(3) -0.0464(11) 0.2238(13)
loop_
_geom_bond_atom_site_label_1
_geom_bond_atom_site_label_2
_geom_bond_site_symmetry_1
_geom_bond_site_symmetry_2
Mo1 S1 1_555 1_555
Cu1 S1 1_555 1_555
Cu2 S1 1_555 1_555
S2 Mo1 1_555 1_555
N1 Cu1 1_555 1_555
C2 Cu2 1_555 1_555
N3 C3 1_555 1_555
N4 Cu1 1_555 1_555
C3 H1 1_555 1_555
C4 C3 1_555 1_555
H2 C4 1_555 1_555
C5 C4 1_555 1_555
C6 C5 1_555 1_555
H3 C6 1_555 1_555
C7 N3 1_555 1_555
H4 C7 1_555 1_555
C8 C5 1_555 1_555
H5 C8 1_555 1_555
H6 C8 1_555 1_555
C9 C8 1_555 1_555
H7 C9 1_555 1_555
H8 C9 1_555 1_555
C10 C9 1_555 1_555
H9 C10 1_555 1_555
H10 C10 1_555 1_555
C11 C10 1_555 1_555
C12 C11 1_555 1_555
H11 C12 1_555 1_555
C13 N4 1_555 1_555
H12 C13 1_555 1_555
C14 N4 1_555 1_555
H13 C14 1_555 1_555
C15 C11 1_555 1_555
H14 C15 1_555 1_555
N5 C16 1_555 1_555
C16 C17 1_555 1_555
C17 C18 1_555 1_555
C18 C19 1_555 1_555
C19 C17 1_555 1_555
C20 C16 1_555 1_555
C21 N5 1_555 1_555
N6 C22 1_555 1_555
C22 C23 1_555 1_555
C23 C24 1_555 1_555
C24 N6 1_555 1_555
C25 N6 1_555 1_555
C26 C25 1_555 1_555
C27 C22 1_555 1_555
Cu1A S1A 1_555 1_555
Cu1B N1B 1_555 1_555
Cu1_2 N4_2 1_555 1_555
Cu2A S2 1_555 1_555
Cu2_2 N3 1_555 1_555
Cu2A_2 C2A 1_555 1_555
S1A Mo1 1_555 1_555
S2A Mo1 1_555 1_555
N1B N1 1_555 1_555
N1A Cu1A 1_555 1_555
C2A C2 1_555 1_555
C2A_2 Cu2A 1_555 1_555
N3_2 Cu2 1_555 1_555
N3A Cu2A 1_555 1_555
N4_2 C13_2 1_555 1_555
N4A Cu1A 1_555 1_555
C3_2 N3_2 1_555 1_555
H1_2 C3_2 1_555 1_555
C4_2 C3_2 1_555 1_555
H2_2 C4_2 1_555 1_555
C5_2 C4_2 1_555 1_555
C6_2 C5_2 1_555 1_555
H3_2 C6_2 1_555 1_555
C7_2 N3_2 1_555 1_555
H4_2 C7_2 1_555 1_555
C8_2 C5_2 1_555 1_555
H5_2 C8_2 1_555 1_555
H6_2 C8_2 1_555 1_555
C9_2 C8_2 1_555 1_555
H7_2 C9_2 1_555 1_555
H8_2 C9_2 1_555 1_555
C10_2 C9_2 1_555 1_555
H9_2 C10_2 1_555 1_555
H10_2 C10_2 1_555 1_555
C11_2 C10_2 1_555 1_555
C12_2 C11_2 1_555 1_555
H11_2 C12_2 1_555 1_555
C13_2 C12_2 1_555 1_555
H12_2 C13_2 1_555 1_555
C14_2 N4_2 1_555 1_555
H13_2 C14_2 1_555 1_555
C15_2 C11_2 1_555 1_555
H14_2 C15_2 1_555 1_555
N5A C16A 1_555 1_555
C16A C16 1_555 1_555
C17A C16A 1_555 1_555
C18A C18 1_555 1_555
C19A C18 1_555 1_555
C20A C16A 1_555 1_555
C21A C16 1_555 1_555
N6A C22A 1_555 1_555
C22A C23 1_555 1_555
C23A C22 1_555 1_555
C24A C23 1_555 1_555
C25A N6A 1_555 1_555
C26A C26 1_555 1_555
C27A C26 1_555 1_555
Cu1 S2 1_555 1_555
Cu2 S2A 1_555 1_555
C6 C7 1_555 1_555
C12 C13 1_555 1_555
C14 C15 1_555 1_555
C16 C21 1_555 1_555
C17 C20 1_555 1_555
C17 C21 1_555 1_555
C19 C20 1_555 1_555
C19 C18A 1_555 1_555
C20 C21 1_555 1_555
C21 C16A 1_555 1_555
C21 C21A 1_555 1_555
C22 C24 1_555 1_555
C22 C25 1_555 1_555
C23 C23A 1_555 1_555
C24 C25 1_555 1_555
C24 C23A 1_555 1_555
C25 C27 1_555 1_555
C26 C27 1_555 1_555
C27 C26A 1_555 1_555
C27 C27A 1_555 1_555
Cu1A S2A 1_555 1_555
Cu2A S1A 1_555 1_555
C6_2 C7_2 1_555 1_555
C14_2 C15_2 1_555 1_555
N5A C21A 1_555 1_555
C16A C21A 1_555 1_555
C17A C18A 1_555 1_555
C17A C19A 1_555 1_555
C17A C20A 1_555 1_555
C17A C21A 1_555 1_555
C18A C19A 1_555 1_555
C19A C20A 1_555 1_555
C20A C21A 1_555 1_555
N6A C24A 1_555 1_555
C22A C23A 1_555 1_555
C22A C24A 1_555 1_555
C22A C25A 1_555 1_555
C22A C27A 1_555 1_555
C23A C24A 1_555 1_555
C24A C25A 1_555 1_555
C25A C26A 1_555 1_555
C25A C27A 1_555 1_555
C26A C27A 1_555 1_555

#END
