
#######################################################################
#
#                 Cambridge Crystallographic Data Centre
#                                CCDC 
#
#######################################################################
#
# If this CIF has been generated from an entry in the Cambridge 
# Structural Database, then it will include bibliographic, chemical, 
# crystal, experimental, refinement or atomic coordinate data resulting 
# from the CCDC's data processing and validation procedures.
#
#######################################################################

data_LEDWUN
_chemical_formula_moiety         '(C13 H16 Ag1 F3 N4 O3 S1)n'
_symmetry_cell_setting           orthorhombic
_symmetry_space_group_name_H-M   'P 21 21 21'
_symmetry_Int_Tables_number      19
_space_group_name_Hall           'P 2ac 2ab'
loop_
_symmetry_equiv_pos_site_id
_symmetry_equiv_pos_as_xyz
1 x,y,z
2 1/2-x,-y,1/2+z
3 -x,1/2+y,1/2-z
4 1/2+x,1/2-y,-z
_cell_length_a                   7.5817(8)
_cell_length_b                   10.4787(13)
_cell_length_c                   21.663(2)
_cell_angle_alpha                90
_cell_angle_beta                 90
_cell_angle_gamma                90
_cell_volume                     1721.05
loop_
_atom_site_label
_atom_site_type_symbol
_atom_site_fract_x
_atom_site_fract_y
_atom_site_fract_z
_atom_site_U_iso_or_equiv
_atom_site_thermal_displace_type
Ag1 Ag 0.72680(2) 0.770452(15) 0.130996(8) 0.0226 Uani
N1 N 0.8486(2) 0.97209(17) 0.12849(8) 0.0206 Uani
N2 N 1.1634(3) 1.1783(2) 0.27796(8) 0.0253 Uani
H1 H 1.2438 1.1969 0.2474 0.0300 Uiso
H2 H 1.1676 1.0914 0.2837 0.0300 Uiso
N3 N 0.8471(3) 0.66354(18) 0.04631(8) 0.0212 Uani
N4 N 0.9291(2) 0.75491(18) -0.15418(9) 0.0235 Uani
H3 H 0.8957 0.8350 -0.1413 0.0280 Uiso
H4 H 0.9174 0.7530 -0.1964 0.0280 Uiso
C2 C 0.9345(3) 1.0197(2) 0.07964(11) 0.0201 Uani
H5 H 0.9270 0.9751 0.0416 0.0240 Uiso
C3 C 1.0330(3) 1.1301(2) 0.08177(11) 0.0213 Uani
H6 H 1.0894 1.1618 0.0457 0.0260 Uiso
C4 C 0.8639(3) 1.0367(2) 0.18227(11) 0.0216 Uani
H7 H 0.8036 1.0046 0.2174 0.0260 Uiso
C5 C 1.0485(3) 1.1946(2) 0.13798(10) 0.0213 Uani
H8 H 1.1172 1.2702 0.1409 0.0260 Uiso
C6 C 0.9625(3) 1.1469(2) 0.18901(10) 0.0202 Uani
C7 C 0.8027(3) 0.6619(2) -0.12790(10) 0.0254 Uani
H9 H 0.7978 0.5853 -0.1546 0.0300 Uiso
H10 H 0.6835 0.7003 -0.1268 0.0300 Uiso
C8 C 0.8568(3) 0.6231(2) -0.06323(10) 0.0209 Uani
C9 C 0.9639(3) 0.5180(2) -0.05324(11) 0.0240 Uani
H11 H 1.0046 0.4682 -0.0870 0.0290 Uiso
C10 C 1.0112(3) 0.4866(2) 0.00709(11) 0.0256 Uani
H12 H 1.0838 0.4147 0.0152 0.0310 Uiso
C11 C 0.9878(3) 1.2068(2) 0.25211(11) 0.0252 Uani
H13 H 0.9731 1.3004 0.2488 0.0300 Uiso
H14 H 0.8959 1.1742 0.2805 0.0300 Uiso
C12 C 0.9500(3) 0.5624(2) 0.05496(11) 0.0237 Uani
H15 H 0.9832 0.5410 0.0960 0.0280 Uiso
C13 C 0.8030(3) 0.6929(2) -0.01245(10) 0.0204 Uani
H16 H 0.7308 0.7656 -0.0192 0.0250 Uiso
Ag1B Ag 1.27320(2) 1.270452(15) 0.369004(8) 0.0226 Uani
Ag1C Ag 1.22680(2) 0.729548(15) -0.130996(8) 0.0226 Uani
N2B N 0.8366(3) 0.6783(2) 0.22204(8) 0.0253 Uani
H1B H 0.7562 0.6969 0.2526 0.0300 Uiso
H2B H 0.8324 0.5914 0.2163 0.0300 Uiso
N4C N 0.4291(2) 0.74509(18) 0.15418(9) 0.0235 Uani
H3C H 0.3957 0.6650 0.1413 0.0280 Uiso
H4C H 0.4174 0.7470 0.1964 0.0280 Uiso
S1 S 0.50741(10) 0.36926(6) 0.17689(3) 0.0277 Uani
F1 F 0.67344(18) 0.29012(15) 0.07702(7) 0.0360 Uani
F2 F 0.39240(18) 0.30234(14) 0.06721(6) 0.0316 Uani
F3 F 0.5485(2) 0.47395(14) 0.06823(7) 0.0363 Uani
O1 O 0.6708(3) 0.4259(2) 0.19665(9) 0.0486 Uani
O2 O 0.4836(3) 0.23823(18) 0.19576(8) 0.0383 Uani
O3 O 0.3518(3) 0.44806(17) 0.18225(8) 0.0384 Uani
C1 C 0.5326(3) 0.3574(2) 0.09349(11) 0.0222 Uani
loop_
_atom_site_aniso_label
_atom_site_aniso_U_11
_atom_site_aniso_U_22
_atom_site_aniso_U_33
_atom_site_aniso_U_23
_atom_site_aniso_U_13
_atom_site_aniso_U_12
Ag1 0.02364(9) 0.02764(9) 0.01655(9) 0.00262(6) -0.00129(8) -0.00238(6)
N1 0.0210(10) 0.0264(9) 0.0144(9) 0.0016(8) -0.0008(10) -0.0010(7)
N2 0.0261(11) 0.0336(11) 0.0162(10) -0.0040(8) -0.0025(9) 0.0013(9)
N3 0.0205(10) 0.0249(10) 0.0182(10) 0.0031(8) -0.0009(9) -0.0029(8)
N4 0.0236(10) 0.0309(12) 0.0161(9) 0.0039(8) -0.0004(8) 0.0001(9)
C2 0.0179(12) 0.0293(12) 0.0132(11) -0.0018(9) -0.0035(10) 0.0004(10)
C3 0.0183(13) 0.0291(12) 0.0165(11) 0.0029(9) 0.0001(11) -0.0022(10)
C4 0.0194(13) 0.0292(12) 0.0161(11) 0.0031(9) 0.0014(11) 0.0016(10)
C5 0.0175(11) 0.0240(11) 0.0223(12) -0.0013(9) -0.0035(11) -0.0026(8)
C6 0.0141(12) 0.0286(12) 0.0179(12) -0.0048(10) 0.0010(10) 0.0063(10)
C7 0.0256(13) 0.0324(12) 0.0181(11) 0.0019(10) -0.0044(12) -0.0068(9)
C8 0.0172(12) 0.0277(12) 0.0179(11) 0.0011(9) -0.0014(10) -0.0075(9)
C9 0.0239(14) 0.0244(12) 0.0237(12) -0.0007(10) 0.0044(11) -0.0013(10)
C10 0.0252(14) 0.0232(12) 0.0285(13) 0.0060(10) 0.0044(12) 0.0033(10)
C11 0.0223(12) 0.0344(13) 0.0190(12) -0.0065(10) 0.0004(10) 0.0017(10)
C12 0.0220(14) 0.0292(13) 0.0198(12) 0.0090(10) -0.0004(11) -0.0002(10)
C13 0.0171(12) 0.0237(11) 0.0204(11) 0.0047(8) -0.0006(10) -0.0001(8)
Ag1B 0.02364 0.02764 0.01655 -0.00262 -0.00129 0.00238
Ag1C 0.02364 0.02764 0.01655 0.00262 0.00129 0.00238
N2B 0.0261 0.0336 0.0162 0.004 -0.0025 -0.0013
N4C 0.0236 0.0309 0.0161 0.0039 0.0004 -0.0001
S1 0.0357(4) 0.0314(3) 0.0161(3) -0.0013(2) 0.0005(3) -0.0030(3)
F1 0.0264(8) 0.0517(9) 0.0298(8) -0.0025(7) 0.0080(7) 0.0087(7)
F2 0.0299(8) 0.0412(9) 0.0237(7) -0.0057(6) -0.0031(7) -0.0117(6)
F3 0.0485(10) 0.0333(8) 0.0271(8) 0.0102(6) 0.0022(8) -0.0105(7)
O1 0.0497(14) 0.0593(13) 0.0367(11) -0.0080(10) -0.0170(11) -0.0152(11)
O2 0.0477(11) 0.0397(11) 0.0276(9) 0.0114(8) 0.0057(9) -0.0018(9)
O3 0.0496(13) 0.0395(10) 0.0261(9) -0.0052(8) 0.0135(10) 0.0038(9)
C1 0.0208(13) 0.0231(12) 0.0228(13) 0.0008(10) 0.0012(12) -0.0030(10)
loop_
_geom_bond_atom_site_label_1
_geom_bond_atom_site_label_2
_geom_bond_site_symmetry_1
_geom_bond_site_symmetry_2
Ag1 N1 1_555 1_555
S1 O1 1_555 1_555
F1 C1 1_555 1_555
F2 C1 1_555 1_555
F3 C1 1_555 1_555
O2 S1 1_555 1_555
O3 S1 1_555 1_555
N1 C2 1_555 1_555
N2 H1 1_555 1_555
H2 N2 1_555 1_555
N3 Ag1 1_555 1_555
N4 H3 1_555 1_555
H4 N4 1_555 1_555
C1 S1 1_555 1_555
C2 H5 1_555 1_555
C3 C2 1_555 1_555
H6 C3 1_555 1_555
C4 N1 1_555 1_555
H7 C4 1_555 1_555
C5 C3 1_555 1_555
H8 C5 1_555 1_555
C6 C4 1_555 1_555
C7 N4 1_555 1_555
H9 C7 1_555 1_555
H10 C7 1_555 1_555
C8 C7 1_555 1_555
C9 C8 1_555 1_555
H11 C9 1_555 1_555
C10 C9 1_555 1_555
H12 C10 1_555 1_555
C11 N2 1_555 1_555
H13 C11 1_555 1_555
H14 C11 1_555 1_555
C12 N3 1_555 1_555
H15 C12 1_555 1_555
C13 N3 1_555 1_555
H16 C13 1_555 1_555
Ag1B N2 1_555 1_555
Ag1C N4 1_555 1_555
N2B Ag1 1_555 1_555
H1B N2B 1_555 1_555
H2B N2B 1_555 1_555
N4C Ag1 1_555 1_555
H3C N4C 1_555 1_555
H4C N4C 1_555 1_555
C5 C6 1_555 1_555
C6 C11 1_555 1_555
C8 C13 1_555 1_555
C10 C12 1_555 1_555

#END
