
#######################################################################
#
#                 Cambridge Crystallographic Data Centre
#                                CCDC 
#
#######################################################################
#
# If this CIF has been generated from an entry in the Cambridge 
# Structural Database, then it will include bibliographic, chemical, 
# crystal, experimental, refinement or atomic coordinate data resulting 
# from the CCDC's data processing and validation procedures.
#
#######################################################################

data_OKELOH
_chemical_formula_moiety         '(C27 H25 N2 O9 Zn1 1-)n'
_symmetry_cell_setting           monoclinic
_symmetry_space_group_name_H-M   'C 2/c'
_symmetry_Int_Tables_number      15
_space_group_name_Hall           '-C 2yc'
loop_
_symmetry_equiv_pos_site_id
_symmetry_equiv_pos_as_xyz
1 x,y,z
2 -x,y,1/2-z
3 1/2+x,1/2+y,z
4 1/2-x,1/2+y,1/2-z
5 -x,-y,-z
6 x,-y,1/2+z
7 1/2-x,1/2-y,-z
8 1/2+x,1/2-y,1/2+z
_cell_length_a                   23.432(2)
_cell_length_b                   9.5422(8)
_cell_length_c                   18.9958(17)
_cell_angle_alpha                90
_cell_angle_beta                 125.964(2)
_cell_angle_gamma                90
_cell_volume                     3437.73
loop_
_atom_site_label
_atom_site_type_symbol
_atom_site_fract_x
_atom_site_fract_y
_atom_site_fract_z
_atom_site_U_iso_or_equiv
_atom_site_thermal_displace_type
Zn1 Zn 0.0000 0.00620(4) -0.2500 0.0248 Uani
O1 O 0.07198(9) 0.1441(2) -0.16352(13) 0.0410 Uani
O2 O 0.13060(11) -0.0537(2) -0.10433(15) 0.0498 Uani
O3 O 0.03949(10) 0.0546(2) 0.18887(14) 0.0439 Uani
O4 O 0.03398(11) 0.2856(2) 0.19674(14) 0.0497 Uani
C1 C 0.12665(13) 0.0747(3) -0.10788(17) 0.0294 Uani
C2 C 0.19129(12) 0.1620(3) -0.04704(16) 0.0250 Uani
C3 C 0.23597(12) 0.1812(3) -0.07138(16) 0.0280 Uani
H1 H 0.2261 0.1339 -0.1202 0.0340 Uiso
C4 C 0.20485(12) 0.2320(3) 0.02628(16) 0.0256 Uani
C5 C 0.16072(13) 0.2176(3) 0.05839(16) 0.0278 Uani
C6 C 0.14871(14) 0.3335(3) 0.09254(19) 0.0357 Uani
H2 H 0.1658 0.4208 0.0913 0.0430 Uiso
C7 C 0.11184(14) 0.3207(3) 0.12817(19) 0.0367 Uani
H3 H 0.1040 0.3997 0.1501 0.0440 Uiso
C8 C 0.08644(13) 0.1921(3) 0.13177(17) 0.0305 Uani
C9 C 0.04966(13) 0.1787(3) 0.17551(17) 0.0327 Uani
C10 C 0.09681(15) 0.0774(3) 0.09605(19) 0.0392 Uani
H4 H 0.0789 -0.0094 0.0964 0.0470 Uiso
C11 C 0.13336(15) 0.0892(3) 0.05980(19) 0.0364 Uani
H5 H 0.1397 0.0106 0.0362 0.0440 Uiso
O1F O 0.42802(9) 0.3559(2) 0.16352(13) 0.0410 Uani
O2F O 0.36940(11) 0.5537(2) 0.10433(15) 0.0498 Uani
O3F O 0.46051(10) 0.4454(2) -0.18887(14) 0.0439 Uani
O4F O 0.46602(11) 0.2144(2) -0.19674(14) 0.0497 Uani
C1F C 0.37335(13) 0.4253(3) 0.10788(17) 0.0294 Uani
C2F C 0.30871(12) 0.3380(3) 0.04704(16) 0.0250 Uani
C3F C 0.26403(12) 0.3188(3) 0.07138(16) 0.0280 Uani
H1F H 0.2739 0.3661 0.1202 0.0340 Uiso
C4F C 0.29515(12) 0.2680(3) -0.02628(16) 0.0256 Uani
C5F C 0.33928(13) 0.2824(3) -0.05839(16) 0.0278 Uani
C6F C 0.35129(14) 0.1665(3) -0.09254(19) 0.0357 Uani
H2F H 0.3342 0.0792 -0.0913 0.0430 Uiso
C7F C 0.38816(14) 0.1793(3) -0.12817(19) 0.0367 Uani
H3F H 0.3960 0.1003 -0.1501 0.0440 Uiso
C8F C 0.41356(13) 0.3079(3) -0.13177(17) 0.0305 Uani
C9F C 0.45034(13) 0.3213(3) -0.17551(17) 0.0327 Uani
C10F C 0.40319(15) 0.4226(3) -0.09605(19) 0.0392 Uani
H4F H 0.4211 0.5094 -0.0964 0.0470 Uiso
C11F C 0.36664(15) 0.4108(3) -0.05980(19) 0.0364 Uani
H5F H 0.3603 0.4894 -0.0362 0.0440 Uiso
Zn1B Zn 0.5000 0.50620(4) -0.2500 0.0248 Uani
Zn1D Zn 0.0000 -0.00620(4) 0.2500 0.0248 Uani
Zn1F Zn 0.5000 0.49380(4) 0.2500 0.0248 Uani
O1A O -0.07198(9) 0.1441(2) -0.33648(13) 0.0410 Uani
O3D O -0.03949(10) -0.0546(2) -0.18887(14) 0.0439 Uani
O3E O 0.03949(10) -0.0546(2) -0.31113(14) 0.0439 Uani
O5 O 0.14671(15) 0.6961(3) 0.03944(17) 0.0695 Uani
N1 N 0.11011(16) 0.7037(3) 0.12580(19) 0.0562 Uani
C12 C 0.1003(2) 0.6969(3) 0.0501(2) 0.0555 Uani
H6 H 0.0540 0.6924 0.0006 0.0670 Uiso
C13 C 0.0514(3) 0.7058(5) 0.1323(4) 0.1005 Uani
H7 H 0.0079 0.7067 0.0750 0.1500 Uiso
H8 H 0.0544 0.7881 0.1633 0.1500 Uiso
H9 H 0.0533 0.6238 0.1629 0.1500 Uiso
C14 C 0.1802(3) 0.7143(6) 0.2034(3) 0.1170 Uani
H10 H 0.2133 0.6940 0.1905 0.1760 Uiso
H11 H 0.1864 0.6484 0.2456 0.1760 Uiso
H12 H 0.1882 0.8075 0.2264 0.1760 Uiso
N2 N 0.12073(14) 0.3534(3) 0.37546(17) 0.0475 Uani
H13 H 0.0880 0.3056 0.3273 0.0570 Uiso
H14 H 0.1250 0.3123 0.4210 0.0570 Uiso
C15 C 0.18852(19) 0.3433(5) 0.3875(3) 0.0759 Uani
H15 H 0.1851 0.3903 0.3405 0.1140 Uiso
H16 H 0.2000 0.2464 0.3883 0.1140 Uiso
H17 H 0.2247 0.3865 0.4416 0.1140 Uiso
C16 C 0.0962(2) 0.4975(3) 0.3675(3) 0.0701 Uani
H18 H 0.0860 0.5385 0.3151 0.1050 Uiso
H19 H 0.1322 0.5512 0.4167 0.1050 Uiso
H20 H 0.0543 0.4973 0.3655 0.1050 Uiso
loop_
_atom_site_aniso_label
_atom_site_aniso_U_11
_atom_site_aniso_U_22
_atom_site_aniso_U_33
_atom_site_aniso_U_23
_atom_site_aniso_U_13
_atom_site_aniso_U_12
Zn1 0.0230(2) 0.0278(2) 0.0284(2) 0.000 0.01773(18) 0.000
O1 0.0270(10) 0.0419(12) 0.0401(11) -0.0043(9) 0.0119(9) -0.0067(9)
O2 0.0478(13) 0.0307(11) 0.0636(15) -0.0067(10) 0.0287(12) -0.0091(10)
O3 0.0516(12) 0.0495(13) 0.0530(13) 0.0003(10) 0.0432(12) -0.0062(10)
O4 0.0635(14) 0.0509(14) 0.0642(14) -0.0061(11) 0.0539(13) 0.0000(11)
C1 0.0264(13) 0.0376(17) 0.0308(15) -0.0038(12) 0.0205(13) -0.0057(12)
C2 0.0226(11) 0.0247(13) 0.0292(13) 0.0030(10) 0.0160(11) -0.0005(10)
C3 0.0281(12) 0.0338(15) 0.0268(13) -0.0031(11) 0.0188(11) -0.0033(11)
C4 0.0244(12) 0.0255(13) 0.0307(14) 0.0045(11) 0.0183(11) -0.0004(10)
C5 0.0280(12) 0.0312(14) 0.0303(14) -0.0012(11) 0.0206(12) -0.0042(11)
C6 0.0434(15) 0.0272(14) 0.0514(18) -0.0021(13) 0.0361(15) -0.0068(12)
C7 0.0470(16) 0.0286(15) 0.0538(18) -0.0042(13) 0.0404(16) -0.0014(13)
C8 0.0302(13) 0.0363(16) 0.0348(15) 0.0001(12) 0.0245(12) -0.0015(11)
C9 0.0267(13) 0.0444(17) 0.0321(15) -0.0031(13) 0.0201(12) -0.0040(12)
C10 0.0501(17) 0.0318(16) 0.0565(19) -0.0033(14) 0.0429(16) -0.0103(13)
C11 0.0503(17) 0.0269(15) 0.0541(18) -0.0071(13) 0.0430(16) -0.0064(13)
O1F 0.027 0.0419 0.0401 -0.0043 0.0119 -0.0067
O2F 0.0478 0.0307 0.0636 -0.0067 0.0287 -0.0091
O3F 0.0516 0.0495 0.053 0.0003 0.0432 -0.0062
O4F 0.0635 0.0509 0.0642 -0.0061 0.0539 0
C1F 0.0264 0.0376 0.0308 -0.0038 0.0205 -0.0057
C2F 0.0226 0.0247 0.0292 0.003 0.016 -0.0005
C3F 0.0281 0.0338 0.0268 -0.0031 0.0188 -0.0033
C4F 0.0244 0.0255 0.0307 0.0045 0.0183 -0.0004
C5F 0.028 0.0312 0.0303 -0.0012 0.0206 -0.0042
C6F 0.0434 0.0272 0.0514 -0.0021 0.0361 -0.0068
C7F 0.047 0.0286 0.0538 -0.0042 0.0404 -0.0014
C8F 0.0302 0.0363 0.0348 0.0001 0.0245 -0.0015
C9F 0.0267 0.0444 0.0321 -0.0031 0.0201 -0.004
C10F 0.0501 0.0318 0.0565 -0.0033 0.0429 -0.0103
C11F 0.0503 0.0269 0.0541 -0.0071 0.043 -0.0064
Zn1B 0.023 0.0278 0.0284 0 0.01773 0
Zn1D 0.023 0.0278 0.0284 0 0.01773 0
Zn1F 0.023 0.0278 0.0284 0 0.01773 0
O1A 0.027 0.0419 0.0401 0.0043 0.0119 0.0067
O3D 0.0516 0.0495 0.053 0.0003 0.0432 -0.0062
O3E 0.0516 0.0495 0.053 -0.0003 0.0432 0.0062
O5 0.0896(19) 0.0688(18) 0.0687(17) 0.0002(14) 0.0569(16) 0.0006(15)
N1 0.074(2) 0.0483(17) 0.0563(19) -0.0029(14) 0.0439(17) 0.0011(15)
C12 0.063(2) 0.045(2) 0.052(2) 0.0013(16) 0.0301(19) 0.0024(17)
C13 0.140(4) 0.075(3) 0.154(5) 0.017(3) 0.124(4) 0.021(3)
C14 0.118(4) 0.150(5) 0.056(3) -0.026(3) 0.036(3) -0.029(4)
N2 0.0603(17) 0.0392(15) 0.0477(16) -0.0045(12) 0.0343(14) -0.0093(13)
C15 0.065(2) 0.081(3) 0.091(3) 0.008(2) 0.051(2) -0.008(2)
C16 0.086(3) 0.040(2) 0.076(3) -0.014(2) 0.043(2) -0.007(2)
loop_
_geom_bond_atom_site_label_1
_geom_bond_atom_site_label_2
_geom_bond_site_symmetry_1
_geom_bond_site_symmetry_2
Zn1 O1 1_555 1_555
O1 C1 1_555 1_555
O2 C1 1_555 1_555
O3 C9 1_555 1_555
O4 C9 1_555 1_555
C1 C2 1_555 1_555
C2 C3 1_555 1_555
C3 H1 1_555 1_555
C4 C2 1_555 1_555
C5 C4 1_555 1_555
C6 C5 1_555 1_555
H2 C6 1_555 1_555
C7 C6 1_555 1_555
H3 C7 1_555 1_555
C8 C7 1_555 1_555
C9 C8 1_555 1_555
C10 C8 1_555 1_555
H4 C10 1_555 1_555
C11 C5 1_555 1_555
H5 C11 1_555 1_555
O5 C12 1_555 1_555
N1 C12 1_555 1_555
C12 H6 1_555 1_555
C13 N1 1_555 1_555
H7 C13 1_555 1_555
H8 C13 1_555 1_555
H9 C13 1_555 1_555
C14 N1 1_555 1_555
H10 C14 1_555 1_555
H11 C14 1_555 1_555
H12 C14 1_555 1_555
N2 H13 1_555 1_555
H14 N2 1_555 1_555
C15 N2 1_555 1_555
H15 C15 1_555 1_555
H16 C15 1_555 1_555
H17 C15 1_555 1_555
C16 N2 1_555 1_555
H18 C16 1_555 1_555
H19 C16 1_555 1_555
H20 C16 1_555 1_555
O1F C1F 1_555 1_555
O2F C1F 1_555 1_555
O3F C9F 1_555 1_555
O4F C9F 1_555 1_555
C1F C2F 1_555 1_555
C2F C3F 1_555 1_555
C3F C4 1_555 1_555
H1F C3F 1_555 1_555
C4F C3 1_555 1_555
C5F C4F 1_555 1_555
C6F C5F 1_555 1_555
H2F C6F 1_555 1_555
C7F C6F 1_555 1_555
H3F C7F 1_555 1_555
C8F C7F 1_555 1_555
C9F C8F 1_555 1_555
C10F C8F 1_555 1_555
H4F C10F 1_555 1_555
C11F C5F 1_555 1_555
H5F C11F 1_555 1_555
Zn1B O3F 1_555 1_555
Zn1D O3 1_555 1_555
Zn1F O1F 1_555 1_555
O1A Zn1 1_555 1_555
O3D Zn1 1_555 1_555
O3E Zn1 1_555 1_555
C10 C11 1_555 1_555
C2F C4F 1_555 1_555
C10F C11F 1_555 1_555

#END
