
#######################################################################
#
#                 Cambridge Crystallographic Data Centre
#                                CCDC 
#
#######################################################################
#
# If this CIF has been generated from an entry in the Cambridge 
# Structural Database, then it will include bibliographic, chemical, 
# crystal, experimental, refinement or atomic coordinate data resulting 
# from the CCDC's data processing and validation procedures.
#
#######################################################################

data_PAFMUH
_chemical_formula_moiety         '(C35 H32 Cd2 N6 O11)n'
_symmetry_cell_setting           monoclinic
_symmetry_space_group_name_H-M   'P 21/a'
_symmetry_Int_Tables_number      14
_space_group_name_Hall           '-P 2yab'
loop_
_symmetry_equiv_pos_site_id
_symmetry_equiv_pos_as_xyz
1 x,y,z
2 1/2-x,1/2+y,-z
3 -x,-y,-z
4 1/2+x,1/2-y,z
_cell_length_a                   16.095(3)
_cell_length_b                   16.492(3)
_cell_length_c                   16.308(3)
_cell_angle_alpha                90
_cell_angle_beta                 118.020(5)
_cell_angle_gamma                90
_cell_volume                     3821.37
loop_
_atom_site_label
_atom_site_type_symbol
_atom_site_fract_x
_atom_site_fract_y
_atom_site_fract_z
Cd1 Cd -0.16475(3) 0.27358(3) 0.17587(3)
Cd2 Cd 0.10988(3) 0.30290(3) 0.29048(3)
O1 O -0.0290(3) 0.3787(3) 0.2089(3)
O2 O -0.1769(3) 0.3931(3) 0.1059(4)
O3 O -0.2668(3) 0.6228(3) -0.1380(3)
O4 O -0.1998(4) 0.7316(3) -0.0564(4)
O5 O -0.2511(3) 0.3094(3) 0.2501(3)
O6 O -0.2796(4) 0.2896(3) 0.3690(4)
O7 O -0.1970(4) 0.5002(3) 0.6134(3)
O8 O -0.1512(4) 0.6195(3) 0.5845(4)
O9 O 0.2099(3) 0.3914(3) 0.2736(3)
H1 H 0.221(5) 0.408(3) 0.228(3)
H2 H 0.212(5) 0.437(2) 0.304(4)
N1 N -0.0646(4) 0.2246(3) 0.3187(4)
N2 N 0.0315(4) 0.2330(3) 0.3617(3)
N3 N -0.0082(4) 0.1655(3) 0.4521(4)
N4 N 0.0248(4) 0.2222(3) 1.1550(4)
N5 N -0.0704(4) 0.2192(4) 1.1121(4)
N6 N -0.0192(3) 0.1534(3) 1.0282(3)
C1 C -0.0046(6) -0.0353(4) 0.7400(4)
H3 H 0.0517 -0.0685 0.7660
H4 H -0.0587 -0.0711 0.7119
C2 C -0.0038(5) 0.0196(4) 0.6668(4)
C3 C 0.0749(5) 0.0278(5) 0.6548(5)
H5 H 0.1295 0.0002 0.6946
C4 C 0.0754(5) 0.0760(5) 0.5854(5)
H6 H 0.1290 0.0801 0.5776
C5 C -0.0046(5) 0.1171(4) 0.5288(4)
C6 C -0.0846(5) 0.1128(5) 0.5393(5)
H7 H -0.1379 0.1430 0.5018
C7 C -0.0829(6) 0.0622(5) 0.6075(5)
H8 H -0.1373 0.0567 0.6135
C8 C -0.0089(5) 0.0137(4) 0.8176(4)
C9 C 0.0696(5) 0.0492(6) 0.8846(5)
H9 H 0.1268 0.0421 0.8844
C10 C 0.0659(6) 0.0957(6) 0.9531(5)
H10 H 0.1201 0.1206 0.9980
C11 C -0.0170(5) 0.1052(4) 0.9548(4)
C12 C -0.0961(6) 0.0710(6) 0.8889(5)
H11 H -0.1531 0.0787 0.8895
C13 C -0.0925(5) 0.0250(5) 0.8211(5)
H12 H -0.1472 0.0007 0.7764
C14 C -0.0865(4) 0.1843(4) 0.3739(4)
H13 H -0.1473 0.1703 0.3612
C15 C 0.0641(5) 0.1976(4) 0.4411(5)
H14 H 0.1274 0.1944 0.4845
C16 C 0.0546(5) 0.1827(4) 1.1043(4)
H15 H 0.1174 0.1759 1.1188
C17 C -0.0970(5) 0.1773(5) 1.0360(5)
H16 H -0.1590 0.1655 0.9936
C18 C -0.0711(5) 0.4913(4) 0.1038(5)
C19 C -0.1422(5) 0.5350(4) 0.0337(4)
H17 H -0.2035 0.5154 0.0070
C20 C -0.1243(4) 0.6063(4) 0.0029(4)
C21 C -0.0316(5) 0.6327(5) 0.0387(5)
H18 H -0.0195 0.6816 0.0180
C22 C 0.0448(5) 0.5875(5) 0.1055(5)
C23 C 0.0200(5) 0.5183(4) 0.1377(5)
H19 H 0.0677 0.4886 0.1848
C24 C -0.0933(5) 0.4164(4) 0.1415(4)
C25 C -0.2018(5) 0.6565(4) -0.0700(5)
C26 C 0.1447(6) 0.6128(7) 0.1398(7)
H20 H 0.1857 0.5744 0.1850
H21 H 0.1542 0.6655 0.1677
H22 H 0.1586 0.6147 0.0886
C27 C -0.1963(4) 0.4084(4) 0.3712(4)
C28 C -0.2009(5) 0.4375(4) 0.4484(4)
H23 H -0.2304 0.4067 0.4749
C29 C -0.1624(5) 0.5116(4) 0.4868(5)
C30 C -0.1154(5) 0.5555(4) 0.4484(5)
H24 H -0.0882 0.6050 0.4748
C31 C -0.1077(6) 0.5277(5) 0.3716(6)
C32 C -0.1506(5) 0.4540(4) 0.3335(5)
H25 H -0.1485 0.4348 0.2809
C33 C -0.2445(4) 0.3301(4) 0.3283(4)
C34 C -0.1700(5) 0.5453(4) 0.5683(5)
C35 C -0.0581(8) 0.5748(6) 0.3291(7)
H26 H -0.0317 0.6233 0.3645
H27 H -0.1020 0.5891 0.2664
H28 H -0.0086 0.5423 0.3290
Cd1_2 Cd -0.16475(3) 0.27358(3) 1.17587(3)
Cd1A Cd -0.33525(3) 0.77358(3) -0.17587(3)
Cd2_2 Cd 0.10988(3) 0.30290(3) 1.29048(3)
Cd2B Cd -0.10988(3) 0.69710(3) 0.70952(3)
Cd2C Cd -0.39012(3) 0.19710(3) 0.29048(3)
O3A O -0.2332(3) 0.1228(3) 0.1380(3)
O4A O -0.3002(4) 0.2316(3) 0.0564(4)
O6C O 0.2204(4) 0.2104(3) 0.3690(4)
O8B O 0.1512(4) 0.3805(3) 0.4155(4)
N4_2 N 0.0248(4) 0.2222(3) 0.1550(4)
N5_2 N -0.0704(4) 0.2192(4) 0.1121(4)
O10 O 0.2273(5) 0.6644(5) 0.3802(5)
O12 O -0.1989(15) 0.7329(19) 0.1266(16)
loop_
_geom_bond_atom_site_label_1
_geom_bond_atom_site_label_2
_geom_bond_site_symmetry_1
_geom_bond_site_symmetry_2
Cd1 O1 1_555 1_555
Cd2 O1 1_555 1_555
O1 C24 1_555 1_555
O2 Cd1 1_555 1_555
O3 C25 1_555 1_555
O4 C25 1_555 1_555
O5 Cd1 1_555 1_555
O6 C33 1_555 1_555
O7 C34 1_555 1_555
O8 C34 1_555 1_555
O9 Cd2 1_555 1_555
H1 O9 1_555 1_555
H2 O9 1_555 1_555
N1 Cd1 1_555 1_555
N2 Cd2 1_555 1_555
N3 C5 1_555 1_555
N4 N5 1_555 1_555
N5 C17 1_555 1_555
N6 C11 1_555 1_555
C1 H3 1_555 1_555
H4 C1 1_555 1_555
C2 C1 1_555 1_555
C3 C2 1_555 1_555
H5 C3 1_555 1_555
C4 C3 1_555 1_555
H6 C4 1_555 1_555
C5 C4 1_555 1_555
C6 C5 1_555 1_555
H7 C6 1_555 1_555
C7 C2 1_555 1_555
H8 C7 1_555 1_555
C8 C1 1_555 1_555
C9 C8 1_555 1_555
H9 C9 1_555 1_555
C10 C9 1_555 1_555
H10 C10 1_555 1_555
C11 C10 1_555 1_555
C12 C11 1_555 1_555
H11 C12 1_555 1_555
C13 C8 1_555 1_555
H12 C13 1_555 1_555
C14 N1 1_555 1_555
H13 C14 1_555 1_555
C15 N2 1_555 1_555
H14 C15 1_555 1_555
C16 N4 1_555 1_555
H15 C16 1_555 1_555
C17 N6 1_555 1_555
H16 C17 1_555 1_555
C18 C19 1_555 1_555
C19 H17 1_555 1_555
C20 C19 1_555 1_555
C21 C20 1_555 1_555
H18 C21 1_555 1_555
C22 C21 1_555 1_555
C23 C18 1_555 1_555
H19 C23 1_555 1_555
C24 O2 1_555 1_555
C25 C20 1_555 1_555
C26 C22 1_555 1_555
H20 C26 1_555 1_555
H21 C26 1_555 1_555
H22 C26 1_555 1_555
C27 C28 1_555 1_555
C28 H23 1_555 1_555
C29 C28 1_555 1_555
C30 C29 1_555 1_555
H24 C30 1_555 1_555
C31 C30 1_555 1_555
C32 C27 1_555 1_555
H25 C32 1_555 1_555
C33 O5 1_555 1_555
C34 C29 1_555 1_555
C35 C31 1_555 1_555
H26 C35 1_555 1_555
H27 C35 1_555 1_555
H28 C35 1_555 1_555
Cd1_2 N5 1_555 1_555
Cd1A O3 1_555 1_555
Cd2_2 N4 1_555 1_555
Cd2B O8 1_555 1_555
Cd2C O6 1_555 1_555
O3A Cd1 1_555 1_555
O4A Cd1 1_555 1_555
O6C Cd2 1_555 1_555
O8B Cd2 1_555 1_555
N4_2 Cd2 1_555 1_555
N5_2 Cd1 1_555 1_555
O4 Cd1A 1_555 1_555
N1 N2 1_555 1_555
N3 C14 1_555 1_555
N3 C15 1_555 1_555
N6 C16 1_555 1_555
C6 C7 1_555 1_555
C12 C13 1_555 1_555
C18 C24 1_555 1_555
C22 C23 1_555 1_555
C27 C33 1_555 1_555
C31 C32 1_555 1_555
N4_2 N5_2 1_555 1_555

#END
