
#######################################################################
#
#                 Cambridge Crystallographic Data Centre
#                                CCDC 
#
#######################################################################
#
# If this CIF has been generated from an entry in the Cambridge 
# Structural Database, then it will include bibliographic, chemical, 
# crystal, experimental, refinement or atomic coordinate data resulting 
# from the CCDC's data processing and validation procedures.
#
#######################################################################

data_BOPHEV
_chemical_formula_moiety         '(C48 H38 Cd2 N2 O17 2-)n'
_symmetry_cell_setting           monoclinic
_symmetry_space_group_name_H-M   'P 21/c'
_symmetry_Int_Tables_number      14
_space_group_name_Hall           '-P 2ybc'
loop_
_symmetry_equiv_pos_site_id
_symmetry_equiv_pos_as_xyz
1 x,y,z
2 -x,1/2+y,1/2-z
3 -x,-y,-z
4 x,1/2-y,1/2+z
_cell_length_a                   13.5667(10)
_cell_length_b                   9.5666(8)
_cell_length_c                   23.1432(18)
_cell_angle_alpha                90
_cell_angle_beta                 122.672(6)
_cell_angle_gamma                90
_cell_volume                     2528.43
loop_
_atom_site_label
_atom_site_type_symbol
_atom_site_fract_x
_atom_site_fract_y
_atom_site_fract_z
Cd1 Cd 0.22679(4) 0.75074(3) 0.744117(19)
O1 O 0.1509(4) 0.9324(5) 0.6606(2)
O2 O 0.3213(4) 0.8414(4) 0.6923(2)
O3 O 0.5283(5) 1.2196(5) 0.6407(2)
O4 O 0.6808(4) 1.0738(4) 0.6829(2)
O5 O 0.0268(4) 0.6606(4) 0.6886(2)
O6 O 0.1367(4) 0.5895(5) 0.6514(2)
C1 C 0.2367(6) 0.9186(5) 0.6545(3)
C2 C 0.2335(5) 0.9966(5) 0.5964(3)
C3 C 0.1359(6) 1.0753(6) 0.5505(3)
H1 H 0.0736 1.0834 0.5565
C4 C 0.3263(5) 0.9848(5) 0.5869(3)
H2 H 0.3918 0.9324 0.6176
C5 C 0.3222(5) 1.0504(5) 0.5318(3)
C6 C 0.2232(5) 1.1284(6) 0.4865(3)
H3 H 0.2187 1.1725 0.4493
C7 C 0.1311(6) 1.1412(6) 0.4962(3)
H4 H 0.0659 1.1945 0.4659
C8 C 0.4162(5) 1.0279(6) 0.5176(3)
C9 C 0.3848(5) 0.9744(6) 0.4540(3)
H5 H 0.3059 0.9573 0.4220
C10 C 0.5343(6) 1.0556(6) 0.5650(3)
C11 C 0.5821(6) 1.1212(6) 0.6342(3)
C12 C -0.0608(5) 0.5103(5) 0.5918(3)
C13 C -0.1699(5) 0.5214(5) 0.5810(3)
H6 H -0.1810 0.5837 0.6078
C14 C -0.2660(5) 0.4429(5) 0.5311(3)
C15 C -0.2461(6) 0.3500(6) 0.4923(3)
H7 H -0.3072 0.2952 0.4591
C16 C -0.1363(6) 0.3384(7) 0.5025(4)
H8 H -0.1247 0.2764 0.4758
C17 C -0.0438(5) 0.4171(6) 0.5518(3)
H9 H 0.0298 0.4081 0.5582
C18 C -0.3853(5) 0.4685(5) 0.5170(3)
C19 C 0.0404(5) 0.5934(5) 0.6480(3)
C20 C -0.4061(5) 0.4876(6) 0.5692(3)
C21 C -0.4793(5) 0.4777(6) 0.4488(3)
H10 H -0.4660 0.4605 0.4140
O7 O -0.2461(4) 0.3654(4) 0.6641(2)
O8 O -0.3145(5) 0.5565(5) 0.6856(2)
C22 C -0.3137(5) 0.4678(6) 0.6460(3)
O1B O 0.8491(4) 1.0676(5) 0.3394(2)
O2B O 0.6787(4) 1.1586(4) 0.3077(2)
O3B O 0.4717(5) 0.7804(5) 0.3593(2)
O4B O 0.3192(4) 0.9262(4) 0.3171(2)
C1B C 0.7633(6) 1.0814(5) 0.3455(3)
C2B C 0.7665(5) 1.0034(5) 0.4036(3)
C3B C 0.8641(6) 0.9247(6) 0.4495(3)
H1B H 0.9264 0.9166 0.4435
C4B C 0.6737(5) 1.0152(5) 0.4131(3)
H2B H 0.6082 1.0676 0.3824
C5B C 0.6778(5) 0.9496(5) 0.4682(3)
C6B C 0.7768(5) 0.8716(6) 0.5135(3)
H3B H 0.7813 0.8275 0.5507
C7B C 0.8689(6) 0.8588(6) 0.5038(3)
H4B H 0.9341 0.8055 0.5341
C8B C 0.5838(5) 0.9721(6) 0.4824(3)
C9B C 0.6152(5) 1.0256(6) 0.5460(3)
H5B H 0.6941 1.0427 0.5780
C10B C 0.4657(6) 0.9444(6) 0.4350(3)
C11B C 0.4179(6) 0.8788(6) 0.3658(3)
O5B O -1.0268(4) 0.3394(4) 0.3114(2)
O6B O -1.1367(4) 0.4105(5) 0.3486(2)
C12B C -0.9392(5) 0.4897(5) 0.4082(3)
C13B C -0.8301(5) 0.4786(5) 0.4190(3)
H6B H -0.8190 0.4163 0.3922
C14B C -0.7340(5) 0.5571(5) 0.4689(3)
C15B C -0.7539(6) 0.6500(6) 0.5077(3)
H7B H -0.6928 0.7048 0.5409
C16B C -0.8637(6) 0.6616(7) 0.4975(4)
H8B H -0.8753 0.7236 0.5242
C17B C -0.9562(5) 0.5829(6) 0.4482(3)
H9B H -1.0298 0.5919 0.4418
C18B C -0.6147(5) 0.5315(5) 0.4830(3)
C19B C -1.0404(5) 0.4066(5) 0.3520(3)
C20B C -0.5939(5) 0.5124(6) 0.4308(3)
C21B C -0.5207(5) 0.5223(6) 0.5512(3)
H10B H -0.5340 0.5395 0.5860
O7B O -0.7539(4) 0.6346(4) 0.3359(2)
O8B O -0.6855(5) 0.4435(5) 0.3144(2)
C22B C -0.6863(5) 0.5322(6) 0.3540(3)
Cd1B Cd -1.22679(4) 0.24926(3) 0.255883(19)
Cd1A Cd -0.22679(4) 0.25074(3) 0.755883(19)
Cd1A_2 Cd 0.77321(4) 1.25074(3) 0.755883(19)
Cd1B_2 Cd 0.77321(4) 1.24926(3) 0.255883(19)
Cd1C Cd -0.77321(4) 0.74926(3) 0.244117(19)
Cd1C_2 Cd 0.22679(4) 0.74926(3) 0.244117(19)
O1B_2 O -1.1509(4) 0.0676(5) 0.3394(2)
O2B_2 O -1.3213(4) 0.1586(4) 0.3077(2)
O4A O 0.3192(4) 0.5738(4) 0.8171(2)
O4C O -1.3192(4) 0.4262(4) 0.1829(2)
O7A O 0.2461(4) 0.8654(4) 0.8359(2)
O7C O -1.2461(4) 0.1346(4) 0.1641(2)
N1 N 0.5663(5) 0.6066(5) 0.2988(3)
H11 H 0.5100 0.6427 0.3037
H12 H 0.5605 0.6480 0.2621
C23 C 0.6807(7) 0.6425(8) 0.3596(5)
H13 H 0.6888 0.5993 0.3993
H14 H 0.6867 0.7421 0.3655
H15 H 0.7416 0.6096 0.3537
C24 C 0.5453(7) 0.4560(6) 0.2850(4)
H16 H 0.5554 0.4098 0.3247
H17 H 0.5998 0.4186 0.2748
H18 H 0.4668 0.4413 0.2466
N2 N 0.9400(6) 0.6226(6) 0.7728(3)
H19 H 0.8806 0.5679 0.7658
H20 H 0.9489 0.6102 0.7373
C25 C 1.0451(8) 0.5818(14) 0.8350(5)
H21 H 1.0683 0.4906 0.8293
H22 H 1.0315 0.5795 0.8716
H23 H 1.1060 0.6478 0.8458
C26 C 0.9122(12) 0.7677(9) 0.7752(7)
H24 H 0.8457 0.7947 0.7314
H25 H 0.9781 0.8251 0.7861
H26 H 0.8944 0.7794 0.8099
O9 O 0.4020(6) 0.1920(6) 0.3060(3)
H27 H 0.3660 0.1229 0.3064
H28 H 0.386(7) 0.273(6) 0.316(4)
loop_
_geom_bond_atom_site_label_1
_geom_bond_atom_site_label_2
_geom_bond_site_symmetry_1
_geom_bond_site_symmetry_2
Cd1 O1 1_555 1_555
O1 C1 1_555 1_555
O2 Cd1 1_555 1_555
O3 C11 1_555 1_555
O4 C11 1_555 1_555
O5 Cd1 1_555 1_555
O6 Cd1 1_555 1_555
C1 O2 1_555 1_555
C2 C1 1_555 1_555
C3 C2 1_555 1_555
H1 C3 1_555 1_555
C4 C2 1_555 1_555
H2 C4 1_555 1_555
C5 C4 1_555 1_555
C6 C5 1_555 1_555
H3 C6 1_555 1_555
C7 C3 1_555 1_555
H4 C7 1_555 1_555
C8 C5 1_555 1_555
C9 C8 1_555 1_555
H5 C9 1_555 1_555
C10 C8 1_555 1_555
C11 C10 1_555 1_555
C12 C13 1_555 1_555
C13 H6 1_555 1_555
C14 C13 1_555 1_555
C15 C14 1_555 1_555
H7 C15 1_555 1_555
C16 C15 1_555 1_555
H8 C16 1_555 1_555
C17 C12 1_555 1_555
H9 C17 1_555 1_555
C18 C14 1_555 1_555
C19 O5 1_555 1_555
C20 C18 1_555 1_555
C21 C18 1_555 1_555
H10 C21 1_555 1_555
O7 C22 1_555 1_555
O8 C22 1_555 1_555
C22 C20 1_555 1_555
N1 H11 1_555 1_555
H12 N1 1_555 1_555
C23 N1 1_555 1_555
H13 C23 1_555 1_555
H14 C23 1_555 1_555
H15 C23 1_555 1_555
C24 N1 1_555 1_555
H16 C24 1_555 1_555
H17 C24 1_555 1_555
H18 C24 1_555 1_555
N2 H19 1_555 1_555
H20 N2 1_555 1_555
C25 N2 1_555 1_555
H21 C25 1_555 1_555
H22 C25 1_555 1_555
H23 C25 1_555 1_555
C26 N2 1_555 1_555
H24 C26 1_555 1_555
H25 C26 1_555 1_555
H26 C26 1_555 1_555
O9 H27 1_555 1_555
H28 O9 1_555 1_555
O1B C1B 1_555 1_555
O2B C1B 1_555 1_555
O3B C11B 1_555 1_555
O4B C11B 1_555 1_555
C1B C2B 1_555 1_555
C2B C3B 1_555 1_555
C3B H1B 1_555 1_555
C4B C2B 1_555 1_555
H2B C4B 1_555 1_555
C5B C4B 1_555 1_555
C6B C5B 1_555 1_555
H3B C6B 1_555 1_555
C7B C3B 1_555 1_555
H4B C7B 1_555 1_555
C8B C5B 1_555 1_555
C9B C10 1_555 1_555
H5B C9B 1_555 1_555
C10B C9 1_555 1_555
C11B C10B 1_555 1_555
O5B C19B 1_555 1_555
O6B C19B 1_555 1_555
C12B C13B 1_555 1_555
C13B H6B 1_555 1_555
C14B C13B 1_555 1_555
C15B C14B 1_555 1_555
H7B C15B 1_555 1_555
C16B C15B 1_555 1_555
H8B C16B 1_555 1_555
C17B C12B 1_555 1_555
H9B C17B 1_555 1_555
C18B C14B 1_555 1_555
C19B C12B 1_555 1_555
C20B C21 1_555 1_555
C21B C20 1_555 1_555
H10B C21B 1_555 1_555
O7B C22B 1_555 1_555
O8B C22B 1_555 1_555
C22B C20B 1_555 1_555
Cd1B O5B 1_555 1_555
Cd1A O7 1_555 1_555
Cd1A_2 O4 1_555 1_555
Cd1B_2 O1B 1_555 1_555
Cd1C O7B 1_555 1_555
Cd1C_2 O4B 1_555 1_555
O1B_2 Cd1B 1_555 1_555
O2B_2 Cd1B 1_555 1_555
O4A Cd1 1_555 1_555
O4C Cd1B 1_555 1_555
O7A Cd1 1_555 1_555
O7C Cd1B 1_555 1_555
O6 C19 1_555 1_555
C6 C7 1_555 1_555
C12 C19 1_555 1_555
C16 C17 1_555 1_555
O2B Cd1B_2 1_555 1_555
C6B C7B 1_555 1_555
C8B C9B 1_555 1_555
C8B C10B 1_555 1_555
O6B Cd1B 1_555 1_555
C16B C17B 1_555 1_555
C18B C20B 1_555 1_555
C18B C21B 1_555 1_555

#END
