
#######################################################################
#
#                 Cambridge Crystallographic Data Centre
#                                CCDC 
#
#######################################################################
#
# If this CIF has been generated from an entry in the Cambridge 
# Structural Database, then it will include bibliographic, chemical, 
# crystal, experimental, refinement or atomic coordinate data resulting 
# from the CCDC's data processing and validation procedures.
#
#######################################################################

data_ARADEE
_chemical_formula_moiety         '(C32 H28 Cd3 N5 O14 1-)n'
_symmetry_cell_setting           monoclinic
_symmetry_space_group_name_H-M   'C 2/c'
_symmetry_Int_Tables_number      15
_space_group_name_Hall           '-C 2yc'
loop_
_symmetry_equiv_pos_site_id
_symmetry_equiv_pos_as_xyz
1 x,y,z
2 -x,y,1/2-z
3 1/2+x,1/2+y,z
4 1/2-x,1/2+y,1/2-z
5 -x,-y,-z
6 x,-y,1/2+z
7 1/2-x,1/2-y,-z
8 1/2+x,1/2-y,1/2+z
_cell_length_a                   21.7899(9)
_cell_length_b                   16.6337(10)
_cell_length_c                   13.5149(7)
_cell_angle_alpha                90
_cell_angle_beta                 93.816(4)
_cell_angle_gamma                90
_cell_volume                     4887.57
loop_
_atom_site_label
_atom_site_type_symbol
_atom_site_fract_x
_atom_site_fract_y
_atom_site_fract_z
Cd1 Cd 0.5000 0.13271(3) 0.2500
Cd2 Cd 0.643319(14) 0.249554(18) 0.26697(2)
C1 C 0.58457(19) 0.1111(3) 0.4147(3)
C2 C 0.6360(2) -0.0954(3) 0.6799(3)
C3 C 0.7677(2) 0.1496(3) 0.6549(4)
C4 C 0.62431(19) 0.0825(3) 0.5047(3)
C5 C 0.61005(18) 0.0106(3) 0.5520(3)
H1 H 0.5757 -0.0192 0.5298
C6 C 0.64778(18) -0.0157(3) 0.6326(3)
C7 C 0.69830(19) 0.0296(3) 0.6646(3)
H2 H 0.7237 0.0114 0.7179
C8 C 0.71218(18) 0.1015(3) 0.6195(3)
C9 C 0.67440(19) 0.1278(3) 0.5390(3)
H3 H 0.6829 0.1762 0.5082
C10 C 0.5314(2) 0.3918(3) 0.2509(3)
C11 C 0.5659(2) 0.4641(3) 0.2509(4)
H4 H 0.6086 0.4641 0.2514
C12 C 0.5329(2) 0.5333(3) 0.2500(5)
H5 H 0.5536 0.5822 0.2494
N1 N 0.5000 0.2704(3) 0.2500
N2 N 0.55048(15) 0.3143(2) 0.2511(3)
O1 O 0.58995(14) 0.1829(2) 0.3894(2)
O2 O 0.54867(15) 0.0621(2) 0.3727(3)
O3 O 0.58608(15) -0.1312(2) 0.6593(2)
O4 O 0.67820(16) -0.1246(2) 0.7359(3)
O5 O 0.80588(18) 0.1168(3) 0.7154(4)
O6 O 0.77364(18) 0.2184(2) 0.6258(3)
O7 O 0.6803(4) 0.2749(5) 0.1173(5)
N3 N 0.6924(6) 0.3736(7) 0.0128(7)
C13 C 0.6622(6) 0.3091(7) 0.0673(9)
C14 C 0.6039(7) 0.3409(10) 0.0078(8)
H6 H 0.5689 0.3098 0.0242
H7 H 0.6092 0.3362 -0.0620
H8 H 0.5975 0.3963 0.0241
C15 C 0.6865(7) 0.4250(9) -0.0767(9)
H9 H 0.6442 0.4266 -0.1018
H10 H 0.7112 0.4034 -0.1265
H11 H 0.7001 0.4785 -0.0598
C16 C 0.7561(6) 0.3688(10) 0.0577(11)
H12 H 0.7572 0.3344 0.1148
H13 H 0.7700 0.4216 0.0772
H14 H 0.7825 0.3473 0.0101
C10A C 0.4686(2) 0.3918(3) 0.2491(3)
C11A C 0.4341(2) 0.4641(3) 0.2491(4)
H4A H 0.3914 0.4641 0.2486
C12A C 0.4671(2) 0.5333(3) 0.2500(5)
H5A H 0.4464 0.5822 0.2506
N2A N 0.44952(15) 0.3143(2) 0.2489(3)
Cd2A Cd 0.356681(14) 0.249554(18) 0.23303(2)
C1A C 0.41543(19) 0.1111(3) 0.0853(3)
C2A C 0.3640(2) -0.0954(3) -0.1799(3)
C3A C 0.2323(2) 0.1496(3) -0.1549(4)
C4A C 0.37569(19) 0.0825(3) -0.0047(3)
C5A C 0.38995(18) 0.0106(3) -0.0520(3)
H1A H 0.4243 -0.0192 -0.0298
C6A C 0.35222(18) -0.0157(3) -0.1326(3)
C7A C 0.30170(19) 0.0296(3) -0.1646(3)
H2A H 0.2763 0.0114 -0.2179
C8A C 0.28782(18) 0.1015(3) -0.1195(3)
C9A C 0.32560(19) 0.1278(3) -0.0390(3)
H3A H 0.3171 0.1762 -0.0082
O1A O 0.41005(14) 0.1829(2) 0.1106(2)
O2A O 0.45133(15) 0.0621(2) 0.1273(3)
O3A O 0.41392(15) -0.1312(2) -0.1593(2)
O4A O 0.32180(16) -0.1246(2) -0.2359(3)
O5A O 0.19412(18) 0.1168(3) -0.2154(4)
O6A O 0.22636(18) 0.2184(2) -0.1258(3)
O7A O 0.3197(4) 0.2749(5) 0.3827(5)
N3A N 0.3076(6) 0.3736(7) 0.4872(7)
C13A C 0.3378(6) 0.3091(7) 0.4327(9)
C14A C 0.3961(7) 0.3409(10) 0.4922(8)
H6A H 0.4311 0.3098 0.4758
H7A H 0.3908 0.3362 0.5620
H8A H 0.4025 0.3963 0.4759
C15A C 0.3135(7) 0.4250(9) 0.5767(9)
H9A H 0.3558 0.4266 0.6018
H10A H 0.2888 0.4034 0.6265
H11A H 0.2999 0.4785 0.5598
C16A C 0.2439(6) 0.3688(10) 0.4423(11)
H12A H 0.2428 0.3344 0.3852
H13A H 0.2300 0.4216 0.4228
H14A H 0.2175 0.3473 0.4899
Cd1D Cd 0.5000 -0.13271(3) -0.2500
Cd1D_2 Cd 0.5000 -0.13271(3) 0.7500
Cd2D Cd 0.356681(14) -0.249554(18) -0.26697(2)
Cd2E Cd 0.643319(14) -0.249554(18) 0.76697(2)
Cd2F Cd 0.856681(14) 0.250446(18) 0.73303(2)
Cd2G Cd 0.143319(14) 0.250446(18) -0.23303(2)
O3D O 0.41392(15) 0.1312(2) 0.3407(2)
O3E O 0.58608(15) 0.1312(2) 0.1593(2)
O4D O 0.32180(16) 0.1246(2) 0.2641(3)
O4E O 0.67820(16) 0.1246(2) 0.2359(3)
O5F O 0.69412(18) 0.3832(3) 0.2846(4)
O5G O 0.30588(18) 0.3832(3) 0.2154(4)
O6F O 0.72636(18) 0.2816(2) 0.3742(3)
O6G O 0.27364(18) 0.2816(2) 0.1258(3)
loop_
_geom_bond_atom_site_label_1
_geom_bond_atom_site_label_2
_geom_bond_site_symmetry_1
_geom_bond_site_symmetry_2
Cd1 N1 1_555 1_555
Cd2 N2 1_555 1_555
C1 C4 1_555 1_555
C2 C6 1_555 1_555
C3 C8 1_555 1_555
C4 C5 1_555 1_555
C5 H1 1_555 1_555
C6 C5 1_555 1_555
C7 C6 1_555 1_555
H2 C7 1_555 1_555
C8 C7 1_555 1_555
C9 C4 1_555 1_555
H3 C9 1_555 1_555
C10 C11 1_555 1_555
C11 H4 1_555 1_555
C12 C11 1_555 1_555
H5 C12 1_555 1_555
N1 N2 1_555 1_555
N2 C10 1_555 1_555
O1 Cd1 1_555 1_555
O2 Cd1 1_555 1_555
O3 C2 1_555 1_555
O4 C2 1_555 1_555
O5 C3 1_555 1_555
O6 C3 1_555 1_555
O7 Cd2 1_555 1_555
N3 C13 1_555 1_555
C13 O7 1_555 1_555
C14 C13 1_555 1_555
H6 C14 1_555 1_555
H7 C14 1_555 1_555
H8 C14 1_555 1_555
C15 N3 1_555 1_555
H9 C15 1_555 1_555
H10 C15 1_555 1_555
H11 C15 1_555 1_555
C16 N3 1_555 1_555
H12 C16 1_555 1_555
H13 C16 1_555 1_555
H14 C16 1_555 1_555
C10A C10 1_555 1_555
C11A C10A 1_555 1_555
H4A C11A 1_555 1_555
C12A C12 1_555 1_555
H5A C12A 1_555 1_555
N2A N1 1_555 1_555
Cd2A N2A 1_555 1_555
C1A C4A 1_555 1_555
C2A C6A 1_555 1_555
C3A C8A 1_555 1_555
C4A C5A 1_555 1_555
C5A H1A 1_555 1_555
C6A C5A 1_555 1_555
C7A C6A 1_555 1_555
H2A C7A 1_555 1_555
C8A C7A 1_555 1_555
C9A C4A 1_555 1_555
H3A C9A 1_555 1_555
O1A Cd1 1_555 1_555
O2A Cd1 1_555 1_555
O3A C2A 1_555 1_555
O4A C2A 1_555 1_555
O5A C3A 1_555 1_555
O6A C3A 1_555 1_555
O7A Cd2A 1_555 1_555
N3A C13A 1_555 1_555
C13A O7A 1_555 1_555
C14A C13A 1_555 1_555
H6A C14A 1_555 1_555
H7A C14A 1_555 1_555
H8A C14A 1_555 1_555
C15A N3A 1_555 1_555
H9A C15A 1_555 1_555
H10A C15A 1_555 1_555
H11A C15A 1_555 1_555
C16A N3A 1_555 1_555
H12A C16A 1_555 1_555
H13A C16A 1_555 1_555
H14A C16A 1_555 1_555
Cd1D O3A 1_555 1_555
Cd1D_2 O3 1_555 1_555
Cd2D O3A 1_555 1_555
Cd2E O3 1_555 1_555
Cd2F O5 1_555 1_555
Cd2G O5A 1_555 1_555
O3D Cd1 1_555 1_555
O3E Cd1 1_555 1_555
O4D Cd2A 1_555 1_555
O4E Cd2 1_555 1_555
O5F Cd2 1_555 1_555
O5G Cd2A 1_555 1_555
O6F Cd2 1_555 1_555
O6G Cd2A 1_555 1_555
Cd2 O1 1_555 1_555
Cd2 O3E 1_555 1_555
C1 O1 1_555 1_555
C1 O2 1_555 1_555
C8 C9 1_555 1_555
O4 Cd2E 1_555 1_555
O6 Cd2F 1_555 1_555
C10A N2A 1_555 1_555
C11A C12A 1_555 1_555
Cd2A O1A 1_555 1_555
Cd2A O3D 1_555 1_555
C1A O1A 1_555 1_555
C1A O2A 1_555 1_555
C8A C9A 1_555 1_555
O4A Cd2D 1_555 1_555
O6A Cd2G 1_555 1_555

#END
