
#######################################################################
#
#                 Cambridge Crystallographic Data Centre
#                                CCDC 
#
#######################################################################
#
# If this CIF has been generated from an entry in the Cambridge 
# Structural Database, then it will include bibliographic, chemical, 
# crystal, experimental, refinement or atomic coordinate data resulting 
# from the CCDC's data processing and validation procedures.
#
#######################################################################

data_TUDHUW
_chemical_formula_moiety         '(C8 H10 N4 Zn1)n'
_symmetry_cell_setting           cubic
_symmetry_space_group_name_H-M   'I -4 3 m'
_symmetry_Int_Tables_number      217
_space_group_name_Hall           'I -4 2 3'
loop_
_symmetry_equiv_pos_site_id
_symmetry_equiv_pos_as_xyz
1 x,y,z
2 1/2+x,1/2+y,1/2+z
3 y,z,x
4 1/2+y,1/2+z,1/2+x
5 z,x,y
6 1/2+z,1/2+x,1/2+y
7 y,-x,-z
8 1/2+y,1/2-x,1/2-z
9 z,-y,-x
10 1/2+z,1/2-y,1/2-x
11 x,-z,-y
12 1/2+x,1/2-z,1/2-y
13 -x,-y,z
14 1/2-x,1/2-y,1/2+z
15 -z,x,-y
16 1/2-z,1/2+x,1/2-y
17 -x,y,-z
18 1/2-x,1/2+y,1/2-z
19 -y,-z,x
20 1/2-y,1/2-z,1/2+x
21 -z,-x,y
22 1/2-z,1/2-x,1/2+y
23 -y,x,-z
24 1/2-y,1/2+x,1/2-z
25 -z,y,-x
26 1/2-z,1/2+y,1/2-x
27 -x,z,-y
28 1/2-x,1/2+z,1/2-y
29 -y,z,-x
30 1/2-y,1/2+z,1/2-x
31 z,y,x
32 1/2+z,1/2+y,1/2+x
33 x,z,y
34 1/2+x,1/2+z,1/2+y
35 y,x,z
36 1/2+y,1/2+x,1/2+z
37 y,-z,-x
38 1/2+y,1/2-z,1/2-x
39 -y,-x,z
40 1/2-y,1/2-x,1/2+z
41 -z,-y,x
42 1/2-z,1/2-y,1/2+x
43 -x,-z,y
44 1/2-x,1/2-z,1/2+y
45 x,-y,-z
46 1/2+x,1/2-y,1/2-z
47 z,-x,-y
48 1/2+z,1/2-x,1/2-y
_cell_length_a                   16.9856(16)
_cell_length_b                   16.9856(16)
_cell_length_c                   16.9856(16)
_cell_angle_alpha                90
_cell_angle_beta                 90
_cell_angle_gamma                90
_cell_volume                     4900.53
loop_
_atom_site_label
_atom_site_type_symbol
_atom_site_fract_x
_atom_site_fract_y
_atom_site_fract_z
_atom_site_U_iso_or_equiv
_atom_site_thermal_displace_type
C1 C 0.37698(12) 0.0076(4) 0.62302(12) 0.0513 Uani
C2 C 0.36906(18) -0.10159(16) 0.68667(19) 0.0724 Uani
C3 C 0.4053(2) 0.0857(3) 0.5947(2) 0.0771 Uani
N1 N 0.41000(13) -0.03202(12) 0.68272(12) 0.0562 Uani
Zn1 Zn 0.5000 0.0000 0.7500 0.0536 Uani
H1 H 0.3785 -0.1421 0.7222 0.0866 Uiso
H2 H 0.4447 0.0779 0.5553 0.0925 Uiso
H3 H 0.3628 0.1147 0.5723 0.0925 Uiso
C1H C 0.62302(12) -0.0076(4) 0.62302(12) 0.0513 Uani
C2X C 0.31333(19) -0.10159(16) 0.63094(18) 0.0724 Uani
C2L C 0.63094(18) 0.10159(16) 0.68667(19) 0.0724 Uani
C2H C 0.68667(19) 0.10159(16) 0.63094(18) 0.0724 Uani
C3H C 0.5947(2) -0.0857(3) 0.5947(2) 0.0771 Uani
N1X N 0.31728(12) -0.03202(12) 0.59000(13) 0.0562 Uani
N1L N 0.59000(13) 0.03202(12) 0.68272(12) 0.0562 Uani
N1H N 0.68272(12) 0.03202(12) 0.59000(13) 0.0562 Uani
N1G N 0.46798(12) 0.09000(13) 0.81728(12) 0.0562 Uani
N1W N 0.53202(12) -0.09000(13) 0.81728(12) 0.0562 Uani
Zn1E Zn 0.2500 0.0000 0.5000 0.0536 Uani
Zn1H Zn 0.7500 0.0000 0.5000 0.0536 Uani
H1X H 0.2778 -0.1421 0.6215 0.0866 Uiso
H1L H 0.6215 0.1421 0.7222 0.0866 Uiso
H1H H 0.7222 0.1421 0.6215 0.0866 Uiso
H2H H 0.5553 -0.0779 0.5553 0.0925 Uiso
H3X H 0.4277 0.1147 0.6372 0.0925 Uiso
H3L H 0.6372 -0.1147 0.5723 0.0925 Uiso
H3H H 0.5723 -0.1147 0.6372 0.0925 Uiso
loop_
_atom_site_aniso_label
_atom_site_aniso_U_11
_atom_site_aniso_U_22
_atom_site_aniso_U_33
_atom_site_aniso_U_23
_atom_site_aniso_U_13
_atom_site_aniso_U_12
C1 0.0544(10) 0.045(2) 0.0544(10) 0.0004(15) 0.0021(13) -0.0004(15)
C2 0.081(2) 0.0592(17) 0.077(2) 0.0224(15) -0.0162(15) -0.0127(15)
C3 0.0832(18) 0.065(3) 0.0832(18) 0.0179(18) -0.018(3) -0.0179(18)
N1 0.0594(13) 0.0557(13) 0.0535(12) 0.0059(9) -0.0067(10) -0.0030(10)
Zn1 0.0556(2) 0.0556(2) 0.0496(3) 0.0000 0.0000 0.0000
C1H 0.0544 0.045 0.0544 -0.0004 -0.0021 -0.0004
C2X 0.077 0.0592 0.081 0.0127 -0.0162 -0.0224
C2L 0.081 0.0592 0.077 -0.0224 0.0162 -0.0127
C2H 0.077 0.0592 0.081 -0.0127 0.0162 -0.0224
C3H 0.0832 0.065 0.0832 -0.0179 0.018 -0.0179
N1X 0.0535 0.0557 0.0594 0.003 -0.0067 -0.0059
N1L 0.0594 0.0557 0.0535 -0.0059 0.0067 -0.003
N1H 0.0535 0.0557 0.0594 -0.003 0.0067 -0.0059
N1G 0.0557 0.0594 0.0535 -0.0067 -0.0059 0.003
N1W 0.0557 0.0594 0.0535 0.0067 0.0059 0.003
Zn1E 0.0496 0.0556 0.0556 0 0 0
Zn1H 0.0496 0.0556 0.0556 0 0 0
loop_
_geom_bond_atom_site_label_1
_geom_bond_atom_site_label_2
_geom_bond_site_symmetry_1
_geom_bond_site_symmetry_2
C1 C3 1_555 1_555
C2 N1 1_555 1_555
C3 H2 1_555 1_555
N1 C1 1_555 1_555
Zn1 N1 1_555 1_555
H1 C2 1_555 1_555
H3 C3 1_555 1_555
C1H C3H 1_555 1_555
C2X C2 1_555 1_555
C2L C2H 1_555 1_555
C2H N1H 1_555 1_555
C3H H2H 1_555 1_555
N1X C1 1_555 1_555
N1L Zn1 1_555 1_555
N1H C1H 1_555 1_555
N1G Zn1 1_555 1_555
N1W Zn1 1_555 1_555
Zn1E N1X 1_555 1_555
Zn1H N1H 1_555 1_555
H1X C2X 1_555 1_555
H1L C2L 1_555 1_555
H1H C2H 1_555 1_555
H3X C3 1_555 1_555
H3L C3H 1_555 1_555
H3H C3H 1_555 1_555
C1H N1L 1_555 1_555
C2X N1X 1_555 1_555
C2L N1L 1_555 1_555

#END
