
#######################################################################
#
#                 Cambridge Crystallographic Data Centre
#                                CCDC 
#
#######################################################################
#
# If this CIF has been generated from an entry in the Cambridge 
# Structural Database, then it will include bibliographic, chemical, 
# crystal, experimental, refinement or atomic coordinate data resulting 
# from the CCDC's data processing and validation procedures.
#
#######################################################################

data_TUDJUY
_chemical_formula_moiety         '(C8 H10 N4 Zn1)n'
_symmetry_cell_setting           cubic
_symmetry_space_group_name_H-M   'I -4 3 m'
_symmetry_Int_Tables_number      217
_space_group_name_Hall           'I -4 2 3'
loop_
_symmetry_equiv_pos_site_id
_symmetry_equiv_pos_as_xyz
1 x,y,z
2 1/2+x,1/2+y,1/2+z
3 y,z,x
4 1/2+y,1/2+z,1/2+x
5 z,x,y
6 1/2+z,1/2+x,1/2+y
7 y,-x,-z
8 1/2+y,1/2-x,1/2-z
9 z,-y,-x
10 1/2+z,1/2-y,1/2-x
11 x,-z,-y
12 1/2+x,1/2-z,1/2-y
13 -x,-y,z
14 1/2-x,1/2-y,1/2+z
15 -z,x,-y
16 1/2-z,1/2+x,1/2-y
17 -x,y,-z
18 1/2-x,1/2+y,1/2-z
19 -y,-z,x
20 1/2-y,1/2-z,1/2+x
21 -z,-x,y
22 1/2-z,1/2-x,1/2+y
23 -y,x,-z
24 1/2-y,1/2+x,1/2-z
25 -z,y,-x
26 1/2-z,1/2+y,1/2-x
27 -x,z,-y
28 1/2-x,1/2+z,1/2-y
29 -y,z,-x
30 1/2-y,1/2+z,1/2-x
31 z,y,x
32 1/2+z,1/2+y,1/2+x
33 x,z,y
34 1/2+x,1/2+z,1/2+y
35 y,x,z
36 1/2+y,1/2+x,1/2+z
37 y,-z,-x
38 1/2+y,1/2-z,1/2-x
39 -y,-x,z
40 1/2-y,1/2-x,1/2+z
41 -z,-y,x
42 1/2-z,1/2-y,1/2+x
43 -x,-z,y
44 1/2-x,1/2-z,1/2+y
45 x,-y,-z
46 1/2+x,1/2-y,1/2-z
47 z,-x,-y
48 1/2+z,1/2-x,1/2-y
_cell_length_a                   17.042(5)
_cell_length_b                   17.042(5)
_cell_length_c                   17.042(5)
_cell_angle_alpha                90
_cell_angle_beta                 90
_cell_angle_gamma                90
_cell_volume                     4949.5
loop_
_atom_site_label
_atom_site_type_symbol
_atom_site_fract_x
_atom_site_fract_y
_atom_site_fract_z
_atom_site_U_iso_or_equiv
_atom_site_thermal_displace_type
C1 C 0.37846(19) 0.0081(4) 0.62154(19) 0.0417 Uani
C2 C 0.3634(3) -0.0941(3) 0.6913(3) 0.0743 Uani
C3 C 0.4101(2) 0.0832(4) 0.5899(2) 0.0710 Uani
N1 N 0.40982(18) -0.02878(18) 0.68338(17) 0.0450 Uani
Zn1 Zn 0.5000 -0.0000 0.7500 0.0451 Uani
H1 H 0.3696 -0.1326 0.7295 0.0891 Uiso
H2 H 0.4492 0.0719 0.5508 0.0852 Uiso
H3 H 0.3690 0.1132 0.5663 0.0852 Uiso
C1H C 0.62154(19) -0.0081(4) 0.62154(19) 0.0417 Uani
C2X C 0.3087(3) -0.0941(3) 0.6366(3) 0.0743 Uani
C2L C 0.6366(3) 0.0941(3) 0.6913(3) 0.0743 Uani
C2H C 0.6913(3) 0.0941(3) 0.6366(3) 0.0743 Uani
C3H C 0.5899(2) -0.0832(4) 0.5899(2) 0.0710 Uani
N1X N 0.31662(17) -0.02878(18) 0.59018(18) 0.0450 Uani
N1L N 0.59018(18) 0.02878(18) 0.68338(17) 0.0450 Uani
N1H N 0.68338(17) 0.02878(18) 0.59018(18) 0.0450 Uani
N1G N 0.47122(18) 0.09018(18) 0.81662(17) 0.0450 Uani
N1W N 0.52878(18) -0.09018(18) 0.81662(17) 0.0450 Uani
Zn1E Zn 0.2500 0.0000 0.5000 0.0451 Uani
Zn1H Zn 0.7500 0.0000 0.5000 0.0451 Uani
H1X H 0.2705 -0.1326 0.6304 0.0891 Uiso
H1L H 0.6304 0.1326 0.7295 0.0891 Uiso
H1H H 0.7295 0.1326 0.6304 0.0891 Uiso
H2H H 0.5508 -0.0719 0.5508 0.0852 Uiso
H3X H 0.4337 0.1132 0.6310 0.0852 Uiso
H3L H 0.6310 -0.1132 0.5663 0.0852 Uiso
H3H H 0.5663 -0.1132 0.6310 0.0852 Uiso
loop_
_atom_site_aniso_label
_atom_site_aniso_U_11
_atom_site_aniso_U_22
_atom_site_aniso_U_33
_atom_site_aniso_U_23
_atom_site_aniso_U_13
_atom_site_aniso_U_12
C1 0.048(2) 0.029(4) 0.048(2) 0.011(3) -0.006(3) -0.011(3)
C2 0.072(3) 0.070(3) 0.081(3) 0.028(2) -0.026(3) -0.023(3)
C3 0.065(3) 0.083(5) 0.065(3) 0.011(3) -0.015(4) -0.011(3)
N1 0.043(2) 0.043(3) 0.049(2) 0.0081(17) -0.0077(17) -0.0031(17)
Zn1 0.0461(5) 0.0461(5) 0.0430(6) 0.0000 0.0000 0.0000
C1H 0.048 0.029 0.048 -0.011 0.006 -0.011
C2X 0.081 0.07 0.072 0.023 -0.026 -0.028
C2L 0.072 0.07 0.081 -0.028 0.026 -0.023
C2H 0.081 0.07 0.072 -0.023 0.026 -0.028
C3H 0.065 0.083 0.065 -0.011 0.015 -0.011
N1X 0.049 0.043 0.043 0.0031 -0.0077 -0.0081
N1L 0.043 0.043 0.049 -0.0081 0.0077 -0.0031
N1H 0.049 0.043 0.043 -0.0031 0.0077 -0.0081
N1G 0.043 0.043 0.049 -0.0077 -0.0081 0.0031
N1W 0.043 0.043 0.049 0.0077 0.0081 0.0031
Zn1E 0.043 0.0461 0.0461 0 0 0
Zn1H 0.043 0.0461 0.0461 0 0 0
loop_
_geom_bond_atom_site_label_1
_geom_bond_atom_site_label_2
_geom_bond_site_symmetry_1
_geom_bond_site_symmetry_2
C1 C3 1_555 1_555
C2 N1 1_555 1_555
C3 H2 1_555 1_555
N1 C1 1_555 1_555
Zn1 N1 1_555 1_555
H1 C2 1_555 1_555
H3 C3 1_555 1_555
C1H C3H 1_555 1_555
C2X C2 1_555 1_555
C2L C2H 1_555 1_555
C2H N1H 1_555 1_555
C3H H2H 1_555 1_555
N1X C1 1_555 1_555
N1L Zn1 1_555 1_555
N1H C1H 1_555 1_555
N1G Zn1 1_555 1_555
N1W Zn1 1_555 1_555
Zn1E N1X 1_555 1_555
Zn1H N1H 1_555 1_555
H1X C2X 1_555 1_555
H1L C2L 1_555 1_555
H1H C2H 1_555 1_555
H3X C3 1_555 1_555
H3L C3H 1_555 1_555
H3H C3H 1_555 1_555
C1H N1L 1_555 1_555
C2X N1X 1_555 1_555
C2L N1L 1_555 1_555

#END
