
#######################################################################
#
#                 Cambridge Crystallographic Data Centre
#                                CCDC 
#
#######################################################################
#
# If this CIF has been generated from an entry in the Cambridge 
# Structural Database, then it will include bibliographic, chemical, 
# crystal, experimental, refinement or atomic coordinate data resulting 
# from the CCDC's data processing and validation procedures.
#
#######################################################################

data_TUDKEJ
_chemical_formula_moiety         '(C8 H10 N4 Zn1)n'
_symmetry_cell_setting           cubic
_symmetry_space_group_name_H-M   'I -4 3 m'
_symmetry_Int_Tables_number      217
_space_group_name_Hall           'I -4 2 3'
loop_
_symmetry_equiv_pos_site_id
_symmetry_equiv_pos_as_xyz
1 x,y,z
2 1/2+x,1/2+y,1/2+z
3 y,z,x
4 1/2+y,1/2+z,1/2+x
5 z,x,y
6 1/2+z,1/2+x,1/2+y
7 y,-x,-z
8 1/2+y,1/2-x,1/2-z
9 z,-y,-x
10 1/2+z,1/2-y,1/2-x
11 x,-z,-y
12 1/2+x,1/2-z,1/2-y
13 -x,-y,z
14 1/2-x,1/2-y,1/2+z
15 -z,x,-y
16 1/2-z,1/2+x,1/2-y
17 -x,y,-z
18 1/2-x,1/2+y,1/2-z
19 -y,-z,x
20 1/2-y,1/2-z,1/2+x
21 -z,-x,y
22 1/2-z,1/2-x,1/2+y
23 -y,x,-z
24 1/2-y,1/2+x,1/2-z
25 -z,y,-x
26 1/2-z,1/2+y,1/2-x
27 -x,z,-y
28 1/2-x,1/2+z,1/2-y
29 -y,z,-x
30 1/2-y,1/2+z,1/2-x
31 z,y,x
32 1/2+z,1/2+y,1/2+x
33 x,z,y
34 1/2+x,1/2+z,1/2+y
35 y,x,z
36 1/2+y,1/2+x,1/2+z
37 y,-z,-x
38 1/2+y,1/2-z,1/2-x
39 -y,-x,z
40 1/2-y,1/2-x,1/2+z
41 -z,-y,x
42 1/2-z,1/2-y,1/2+x
43 -x,-z,y
44 1/2-x,1/2-z,1/2+y
45 x,-y,-z
46 1/2+x,1/2-y,1/2-z
47 z,-x,-y
48 1/2+z,1/2-x,1/2-y
_cell_length_a                   16.9920(8)
_cell_length_b                   16.9920(8)
_cell_length_c                   16.9920(8)
_cell_angle_alpha                90
_cell_angle_beta                 90
_cell_angle_gamma                90
_cell_volume                     4906.07
loop_
_atom_site_label
_atom_site_type_symbol
_atom_site_fract_x
_atom_site_fract_y
_atom_site_fract_z
_atom_site_U_iso_or_equiv
_atom_site_thermal_displace_type
C1 C 0.37690(11) 0.0085(3) 0.62310(11) 0.0545 Uani
C2 C 0.36937(16) -0.10104(15) 0.68605(17) 0.0753 Uani
C3 C 0.40518(19) 0.0855(2) 0.59482(19) 0.0793 Uani
N1 N 0.41005(12) -0.03185(10) 0.68222(11) 0.0597 Uani
Zn1 Zn 0.5000 0.0000 0.7500 0.0557 Uani
H1 H 0.3788 -0.1416 0.7216 0.0903 Uiso
H2 H 0.4445 0.0773 0.5555 0.0951 Uiso
H3 H 0.3627 0.1147 0.5724 0.0951 Uiso
C1H C 0.62310(11) -0.0085(3) 0.62310(11) 0.0545 Uani
C2X C 0.31395(17) -0.10104(15) 0.63063(16) 0.0753 Uani
C2L C 0.63063(16) 0.10104(15) 0.68605(17) 0.0753 Uani
C2H C 0.68605(17) 0.10104(15) 0.63063(16) 0.0753 Uani
C3H C 0.59482(19) -0.0855(2) 0.59482(19) 0.0793 Uani
N1X N 0.31778(11) -0.03185(10) 0.58995(12) 0.0597 Uani
N1L N 0.58995(12) 0.03185(10) 0.68222(11) 0.0597 Uani
N1H N 0.68222(11) 0.03185(10) 0.58995(12) 0.0597 Uani
N1G N 0.46815(10) 0.08995(12) 0.81778(11) 0.0597 Uani
N1W N 0.53185(10) -0.08995(12) 0.81778(11) 0.0597 Uani
Zn1E Zn 0.2500 0.0000 0.5000 0.0557 Uani
Zn1H Zn 0.7500 0.0000 0.5000 0.0557 Uani
H1X H 0.2784 -0.1416 0.6212 0.0903 Uiso
H1L H 0.6212 0.1416 0.7216 0.0903 Uiso
H1H H 0.7216 0.1416 0.6212 0.0903 Uiso
H2H H 0.5555 -0.0773 0.5555 0.0951 Uiso
H3X H 0.4276 0.1147 0.6373 0.0951 Uiso
H3L H 0.6373 -0.1147 0.5724 0.0951 Uiso
H3H H 0.5724 -0.1147 0.6373 0.0951 Uiso
loop_
_atom_site_aniso_label
_atom_site_aniso_U_11
_atom_site_aniso_U_22
_atom_site_aniso_U_33
_atom_site_aniso_U_23
_atom_site_aniso_U_13
_atom_site_aniso_U_12
C1 0.0583(9) 0.047(2) 0.0583(9) 0.0009(12) -0.0009(12) -0.0009(12)
C2 0.0806(17) 0.0633(15) 0.0819(18) 0.0184(13) -0.0148(13) -0.0099(13)
C3 0.0860(16) 0.066(2) 0.0860(16) 0.0122(15) -0.013(2) -0.0122(15)
N1 0.0641(11) 0.0561(11) 0.0589(11) 0.0052(8) -0.0070(9) -0.0037(9)
Zn1 0.0576(2) 0.0576(2) 0.0518(2) 0.0000 0.0000 0.0000
C1H 0.0583 0.047 0.0583 -0.0009 0.0009 -0.0009
C2X 0.0819 0.0633 0.0806 0.0099 -0.0148 -0.0184
C2L 0.0806 0.0633 0.0819 -0.0184 0.0148 -0.0099
C2H 0.0819 0.0633 0.0806 -0.0099 0.0148 -0.0184
C3H 0.086 0.066 0.086 -0.0122 0.013 -0.0122
N1X 0.0589 0.0561 0.0641 0.0037 -0.007 -0.0052
N1L 0.0641 0.0561 0.0589 -0.0052 0.007 -0.0037
N1H 0.0589 0.0561 0.0641 -0.0037 0.007 -0.0052
N1G 0.0561 0.0641 0.0589 -0.007 -0.0052 0.0037
N1W 0.0561 0.0641 0.0589 0.007 0.0052 0.0037
Zn1E 0.0518 0.0576 0.0576 0 0 0
Zn1H 0.0518 0.0576 0.0576 0 0 0
loop_
_geom_bond_atom_site_label_1
_geom_bond_atom_site_label_2
_geom_bond_site_symmetry_1
_geom_bond_site_symmetry_2
C1 C3 1_555 1_555
C2 N1 1_555 1_555
C3 H2 1_555 1_555
N1 C1 1_555 1_555
Zn1 N1 1_555 1_555
H1 C2 1_555 1_555
H3 C3 1_555 1_555
C1H C3H 1_555 1_555
C2X C2 1_555 1_555
C2L C2H 1_555 1_555
C2H N1H 1_555 1_555
C3H H2H 1_555 1_555
N1X C1 1_555 1_555
N1L Zn1 1_555 1_555
N1H C1H 1_555 1_555
N1G Zn1 1_555 1_555
N1W Zn1 1_555 1_555
Zn1E N1X 1_555 1_555
Zn1H N1H 1_555 1_555
H1X C2X 1_555 1_555
H1L C2L 1_555 1_555
H1H C2H 1_555 1_555
H3X C3 1_555 1_555
H3L C3H 1_555 1_555
H3H C3H 1_555 1_555
C1H N1L 1_555 1_555
C2X N1X 1_555 1_555
C2L N1L 1_555 1_555

#END
