
#######################################################################
#
#                 Cambridge Crystallographic Data Centre
#                                CCDC 
#
#######################################################################
#
# If this CIF has been generated from an entry in the Cambridge 
# Structural Database, then it will include bibliographic, chemical, 
# crystal, experimental, refinement or atomic coordinate data resulting 
# from the CCDC's data processing and validation procedures.
#
#######################################################################

data_GOFDAH
_chemical_formula_moiety         '(C44 H60 Li4 O8)n'
_symmetry_cell_setting           tetragonal
_symmetry_space_group_name_H-M   'I 41/a'
_symmetry_Int_Tables_number      88
_space_group_name_Hall           '-I 4ad'
loop_
_symmetry_equiv_pos_site_id
_symmetry_equiv_pos_as_xyz
1 x,y,z
2 3/4-y,1/4+x,1/4+z
3 1/2+x,1/2+y,1/2+z
4 1/4-y,3/4+x,3/4+z
5 1/4+y,1/4-x,1/4+z
6 1/2-x,-y,1/2+z
7 3/4+y,3/4-x,3/4+z
8 -x,1/2-y,z
9 -x,-y,-z
10 1/4+y,3/4-x,3/4-z
11 1/2-x,1/2-y,1/2-z
12 3/4+y,1/4-x,1/4-z
13 3/4-y,3/4+x,3/4-z
14 1/2+x,y,1/2-z
15 1/4-y,1/4+x,1/4-z
16 x,1/2+y,-z
_cell_length_a                   15.2748(10)
_cell_length_b                   15.2748(10)
_cell_length_c                   24.129(3)
_cell_angle_alpha                90
_cell_angle_beta                 90
_cell_angle_gamma                90
_cell_volume                     5629.77
loop_
_atom_site_label
_atom_site_type_symbol
_atom_site_fract_x
_atom_site_fract_y
_atom_site_fract_z
_atom_site_U_iso_or_equiv
_atom_site_thermal_displace_type
Li1 Li 0.0363(2) -0.3269(2) -0.08444(13) 0.0254 Uani
O1 O -0.08900(8) -0.29306(9) -0.08292(5) 0.0217 Uani
O2 O -0.02969(9) -0.57106(10) 0.03304(5) 0.0295 Uani
C1 C 0.15291(12) -0.15824(13) -0.05959(8) 0.0245 Uani
C2 C 0.19627(13) -0.18569(15) -0.01051(8) 0.0307 Uani
C3 C 0.26246(14) -0.13360(17) 0.01261(10) 0.0394 Uani
H1 H 0.2905 -0.1531 0.0455 0.0470 Uiso
C4 C 0.28848(14) -0.05521(16) -0.01041(11) 0.0411 Uani
C5 C 0.24590(14) -0.02893(15) -0.05859(10) 0.0347 Uani
H2 H 0.2634 0.0244 -0.0756 0.0420 Uiso
C6 C 0.17917(13) -0.07696(13) -0.08296(8) 0.0272 Uani
C7 C 0.17024(16) -0.26966(17) 0.01752(9) 0.0385 Uani
H3 H 0.1122 -0.2628 0.0342 0.0580 Uiso
H4 H 0.1686 -0.3170 -0.0099 0.0580 Uiso
H5 H 0.2130 -0.2839 0.0464 0.0580 Uiso
C8 C 0.36073(16) 0.0001(2) 0.01549(14) 0.0578 Uani
H6 H 0.4172 -0.0160 -0.0009 0.0870 Uiso
H7 H 0.3490 0.0622 0.0084 0.0870 Uiso
H8 H 0.3624 -0.0104 0.0555 0.0870 Uiso
C9 C 0.13339(14) -0.04046(14) -0.13346(8) 0.0300 Uani
H9 H 0.1623 -0.0621 -0.1670 0.0450 Uiso
H10 H 0.0720 -0.0592 -0.1334 0.0450 Uiso
H11 H 0.1361 0.0236 -0.1327 0.0450 Uiso
C10 C -0.00688(14) -0.58230(15) -0.02456(8) 0.0308 Uani
H12 H -0.0599 -0.5753 -0.0477 0.0370 Uiso
H13 H 0.0160 -0.6422 -0.0304 0.0370 Uiso
C11 C -0.06120(13) -0.48358(15) 0.04222(9) 0.0320 Uani
H14 H -0.0748 -0.4755 0.0820 0.0380 Uiso
H15 H -0.1157 -0.4742 0.0208 0.0380 Uiso
Li1H Li -0.0363(2) -0.6731(2) 0.08444(13) 0.0254 Uani
Li1I Li -0.0769(2) -0.2863(2) -0.16556(13) 0.0254 Uani
Li1G Li -0.0363(2) -0.1731(2) -0.08444(13) 0.0254 Uani
Li1L Li 0.0769(2) -0.2137(2) -0.16556(13) 0.0254 Uani
Li1F Li 0.4231(2) -0.2863(2) -0.33444(13) 0.0254 Uani
O1I O -0.04306(9) -0.16100(8) -0.16708(5) 0.0217 Uani
O1G O 0.08900(8) -0.20694(9) -0.08292(5) 0.0217 Uani
O1L O 0.04306(9) -0.33900(8) -0.16708(5) 0.0217 Uani
O2H O 0.02969(9) -0.42894(10) -0.03304(5) 0.0295 Uani
O2C O -0.17894(10) -0.27969(9) -0.21696(5) 0.0295 Uani
O2F O 0.17894(10) -0.22031(9) -0.21696(5) 0.0295 Uani
O2L O 0.32106(10) -0.27969(9) -0.28304(5) 0.0295 Uani
O2O O -0.02969(9) -0.07106(10) -0.03304(5) 0.0295 Uani
C1I C 0.09176(13) -0.40291(12) -0.19041(8) 0.0245 Uani
C1L C -0.09176(13) -0.09709(12) -0.19041(8) 0.0245 Uani
C1G C -0.15291(12) -0.34176(13) -0.05959(8) 0.0245 Uani
C2I C 0.06431(15) -0.44627(13) -0.23949(8) 0.0307 Uani
C2L C -0.06431(15) -0.05373(13) -0.23949(8) 0.0307 Uani
C2G C -0.19627(13) -0.31431(15) -0.01051(8) 0.0307 Uani
C3I C 0.11640(17) -0.51246(14) -0.26261(10) 0.0394 Uani
C3L C -0.11640(17) 0.01246(14) -0.26261(10) 0.0394 Uani
C3G C -0.26246(14) -0.36640(17) 0.01261(10) 0.0394 Uani
H1I H 0.0969 -0.5405 -0.2955 0.0470 Uiso
H1L H -0.0969 0.0405 -0.2955 0.0470 Uiso
H1G H -0.2905 -0.3469 0.0455 0.0470 Uiso
C4I C 0.19479(16) -0.53848(14) -0.23959(11) 0.0411 Uani
C4L C -0.19479(16) 0.03848(14) -0.23959(11) 0.0411 Uani
C4G C -0.28848(14) -0.44479(16) -0.01041(11) 0.0411 Uani
C5I C 0.22107(15) -0.49590(14) -0.19141(10) 0.0347 Uani
C5L C -0.22107(15) -0.00410(14) -0.19141(10) 0.0347 Uani
C5G C -0.24590(14) -0.47107(15) -0.05859(10) 0.0347 Uani
H2I H 0.2744 -0.5134 -0.1744 0.0420 Uiso
H2L H -0.2744 0.0134 -0.1744 0.0420 Uiso
H2G H -0.2634 -0.5244 -0.0756 0.0420 Uiso
C6I C 0.17304(13) -0.42917(13) -0.16704(8) 0.0272 Uani
C6L C -0.17304(13) -0.07083(13) -0.16704(8) 0.0272 Uani
C6G C -0.17917(13) -0.42304(13) -0.08296(8) 0.0272 Uani
C7I C -0.01966(17) -0.42024(16) -0.26752(9) 0.0385 Uani
C7L C 0.01966(17) -0.07976(16) -0.26752(9) 0.0385 Uani
C7G C -0.17024(16) -0.23034(17) 0.01752(9) 0.0385 Uani
H3I H -0.0128 -0.3622 -0.2842 0.0580 Uiso
H3L H 0.0128 -0.1378 -0.2842 0.0580 Uiso
H3G H -0.1122 -0.2372 0.0342 0.0580 Uiso
H4I H -0.0670 -0.4186 -0.2401 0.0580 Uiso
H4L H 0.0670 -0.0814 -0.2401 0.0580 Uiso
H4G H -0.1686 -0.1830 -0.0099 0.0580 Uiso
H5I H -0.0339 -0.4630 -0.2964 0.0580 Uiso
H5L H 0.0339 -0.0370 -0.2964 0.0580 Uiso
H5G H -0.2130 -0.2161 0.0464 0.0580 Uiso
C8I C 0.2501(2) -0.61073(16) -0.26549(14) 0.0578 Uani
C8L C -0.2501(2) 0.11073(16) -0.26549(14) 0.0578 Uani
C8G C -0.36073(16) -0.5001(2) 0.01549(14) 0.0578 Uani
H6I H 0.2340 -0.6672 -0.2491 0.0870 Uiso
H6L H -0.2340 0.1672 -0.2491 0.0870 Uiso
H6G H -0.4172 -0.4840 -0.0009 0.0870 Uiso
H7I H 0.3122 -0.5990 -0.2584 0.0870 Uiso
H7L H -0.3122 0.0990 -0.2584 0.0870 Uiso
H7G H -0.3490 -0.5622 0.0084 0.0870 Uiso
H8I H 0.2396 -0.6124 -0.3055 0.0870 Uiso
H8L H -0.2396 0.1124 -0.3055 0.0870 Uiso
H8G H -0.3624 -0.4896 0.0555 0.0870 Uiso
C9I C 0.20954(14) -0.38339(14) -0.11654(8) 0.0300 Uani
C9L C -0.20954(14) -0.11661(14) -0.11654(8) 0.0300 Uani
C9G C -0.13339(14) -0.45954(14) -0.13346(8) 0.0300 Uani
H9I H 0.1879 -0.4123 -0.0830 0.0450 Uiso
H9L H -0.1879 -0.0877 -0.0830 0.0450 Uiso
H9G H -0.1623 -0.4379 -0.1670 0.0450 Uiso
H10I H 0.1908 -0.3220 -0.1166 0.0450 Uiso
H10L H -0.1908 -0.1780 -0.1166 0.0450 Uiso
H10G H -0.0720 -0.4408 -0.1334 0.0450 Uiso
H11I H 0.2736 -0.3861 -0.1173 0.0450 Uiso
H11L H -0.2736 -0.1139 -0.1173 0.0450 Uiso
H11G H -0.1361 -0.5236 -0.1327 0.0450 Uiso
C10F C 0.16770(15) -0.24312(14) -0.27456(8) 0.0308 Uani
C10L C 0.33230(15) -0.25688(14) -0.22544(8) 0.0308 Uani
C10H C 0.00688(14) -0.41770(15) 0.02456(8) 0.0308 Uani
H12F H 0.1747 -0.1901 -0.2977 0.0370 Uiso
H12L H 0.3253 -0.3099 -0.2023 0.0370 Uiso
H12H H 0.0599 -0.4247 0.0477 0.0370 Uiso
H13F H 0.1078 -0.2660 -0.2804 0.0370 Uiso
H13L H 0.3922 -0.2340 -0.2196 0.0370 Uiso
H13H H -0.0160 -0.3578 0.0304 0.0370 Uiso
C11H C 0.06120(13) -0.51642(15) -0.04222(9) 0.0320 Uani
C11L C 0.23358(15) -0.31120(13) -0.29222(9) 0.0320 Uani
C11F C 0.26642(15) -0.18880(13) -0.20778(9) 0.0320 Uani
H14F H 0.2745 -0.1752 -0.1680 0.0380 Uiso
H14L H 0.2255 -0.3248 -0.3320 0.0380 Uiso
H14H H 0.0748 -0.5245 -0.0820 0.0380 Uiso
H15F H 0.2758 -0.1343 -0.2292 0.0380 Uiso
H15L H 0.2242 -0.3657 -0.2708 0.0380 Uiso
H15H H 0.1157 -0.5258 -0.0208 0.0380 Uiso
loop_
_atom_site_aniso_label
_atom_site_aniso_U_11
_atom_site_aniso_U_22
_atom_site_aniso_U_33
_atom_site_aniso_U_23
_atom_site_aniso_U_13
_atom_site_aniso_U_12
Li1 0.0271 0.0265 0.0225 0.0067 -0.0027 -0.0031
O1 0.0171 0.0263 0.0218 0.0019 0.0011 -0.0015
O2 0.0193 0.0396 0.0296 0.0194 -0.0001 -0.0035
C1 0.0154 0.0281 0.0299 -0.009 0.0033 -0.002
C2 0.021 0.0407 0.0304 -0.005 -0.0021 0.0003
C3 0.0209 0.0499 0.0474 -0.0133 -0.0063 0.0027
C4 0.0167 0.0423 0.0643 -0.0221 -0.0012 -0.0037
C5 0.025 0.0293 0.0498 -0.0144 0.0132 -0.0049
C6 0.0193 0.0271 0.0353 -0.0116 0.0107 0.0003
C7 0.0342 0.0474 0.034 0.0058 -0.0127 -0.0032
C8 0.0225 0.0578 0.093 -0.0372 -0.0012 -0.0099
C9 0.0346 0.0225 0.0329 -0.0054 0.0116 -0.0009
C10 0.0255 0.0389 0.028 0.0132 0.0001 0
C11 0.0223 0.0418 0.0319 0.0166 0.0022 -0.0006
Li1H 0.0271 0.0265 0.0225 0.0067 -0.0027 -0.0031
Li1I 0.0265 0.0271 0.0225 -0.0027 -0.0067 0.0031
Li1G 0.0271 0.0265 0.0225 -0.0067 0.0027 -0.0031
Li1L 0.0265 0.0271 0.0225 0.0027 0.0067 0.0031
Li1F 0.0265 0.0271 0.0225 0.0027 0.0067 0.0031
O1I 0.0263 0.0171 0.0218 0.0011 -0.0019 0.0015
O1G 0.0171 0.0263 0.0218 -0.0019 -0.0011 -0.0015
O1L 0.0263 0.0171 0.0218 -0.0011 0.0019 0.0015
O2H 0.0193 0.0396 0.0296 0.0194 -0.0001 -0.0035
O2C 0.0396 0.0193 0.0296 -0.0001 -0.0194 0.0035
O2F 0.0396 0.0193 0.0296 0.0001 0.0194 0.0035
O2L 0.0396 0.0193 0.0296 0.0001 0.0194 0.0035
O2O 0.0193 0.0396 0.0296 -0.0194 0.0001 -0.0035
C1I 0.0281 0.0154 0.0299 0.0033 0.009 0.002
C1L 0.0281 0.0154 0.0299 -0.0033 -0.009 0.002
C1G 0.0154 0.0281 0.0299 0.009 -0.0033 -0.002
C2I 0.0407 0.021 0.0304 -0.0021 0.005 -0.0003
C2L 0.0407 0.021 0.0304 0.0021 -0.005 -0.0003
C2G 0.021 0.0407 0.0304 0.005 0.0021 0.0003
C3I 0.0499 0.0209 0.0474 -0.0063 0.0133 -0.0027
C3L 0.0499 0.0209 0.0474 0.0063 -0.0133 -0.0027
C3G 0.0209 0.0499 0.0474 0.0133 0.0063 0.0027
C4I 0.0423 0.0167 0.0643 -0.0012 0.0221 0.0037
C4L 0.0423 0.0167 0.0643 0.0012 -0.0221 0.0037
C4G 0.0167 0.0423 0.0643 0.0221 0.0012 -0.0037
C5I 0.0293 0.025 0.0498 0.0132 0.0144 0.0049
C5L 0.0293 0.025 0.0498 -0.0132 -0.0144 0.0049
C5G 0.025 0.0293 0.0498 0.0144 -0.0132 -0.0049
C6I 0.0271 0.0193 0.0353 0.0107 0.0116 -0.0003
C6L 0.0271 0.0193 0.0353 -0.0107 -0.0116 -0.0003
C6G 0.0193 0.0271 0.0353 0.0116 -0.0107 0.0003
C7I 0.0474 0.0342 0.034 -0.0127 -0.0058 0.0032
C7L 0.0474 0.0342 0.034 0.0127 0.0058 0.0032
C7G 0.0342 0.0474 0.034 -0.0058 0.0127 -0.0032
C8I 0.0578 0.0225 0.093 -0.0012 0.0372 0.0099
C8L 0.0578 0.0225 0.093 0.0012 -0.0372 0.0099
C8G 0.0225 0.0578 0.093 0.0372 0.0012 -0.0099
C9I 0.0225 0.0346 0.0329 0.0116 0.0054 0.0009
C9L 0.0225 0.0346 0.0329 -0.0116 -0.0054 0.0009
C9G 0.0346 0.0225 0.0329 0.0054 -0.0116 -0.0009
C10F 0.0389 0.0255 0.028 -0.0001 0.0132 0
C10L 0.0389 0.0255 0.028 -0.0001 0.0132 0
C10H 0.0255 0.0389 0.028 0.0132 0.0001 0
C11H 0.0223 0.0418 0.0319 0.0166 0.0022 -0.0006
C11L 0.0418 0.0223 0.0319 -0.0022 0.0166 0.0006
C11F 0.0418 0.0223 0.0319 -0.0022 0.0166 0.0006
loop_
_geom_bond_atom_site_label_1
_geom_bond_atom_site_label_2
_geom_bond_site_symmetry_1
_geom_bond_site_symmetry_2
Li1 O1 1_555 1_555
O1 Li1I 1_555 1_555
O2 C10 1_555 1_555
C1 C2 1_555 1_555
C2 C3 1_555 1_555
C3 H1 1_555 1_555
C4 C3 1_555 1_555
C5 C4 1_555 1_555
H2 C5 1_555 1_555
C6 C1 1_555 1_555
C7 C2 1_555 1_555
H3 C7 1_555 1_555
H4 C7 1_555 1_555
H5 C7 1_555 1_555
C8 C4 1_555 1_555
H6 C8 1_555 1_555
H7 C8 1_555 1_555
H8 C8 1_555 1_555
C9 C6 1_555 1_555
H9 C9 1_555 1_555
H10 C9 1_555 1_555
H11 C9 1_555 1_555
C10 H12 1_555 1_555
H13 C10 1_555 1_555
C11 O2 1_555 1_555
H14 C11 1_555 1_555
H15 C11 1_555 1_555
Li1H O2 1_555 1_555
Li1I O1I 1_555 1_555
Li1G O1 1_555 1_555
Li1L O1I 1_555 1_555
Li1F O2L 1_555 1_555
O1I Li1G 1_555 1_555
O1G Li1 1_555 1_555
O1L Li1 1_555 1_555
O2H Li1 1_555 1_555
O2C Li1I 1_555 1_555
O2F Li1L 1_555 1_555
O2L C10L 1_555 1_555
O2O Li1G 1_555 1_555
C1I O1L 1_555 1_555
C1L O1I 1_555 1_555
C1G O1 1_555 1_555
C2I C1I 1_555 1_555
C2L C1L 1_555 1_555
C2G C1G 1_555 1_555
C3I C2I 1_555 1_555
C3L C2L 1_555 1_555
C3G C2G 1_555 1_555
H1I C3I 1_555 1_555
H1L C3L 1_555 1_555
H1G C3G 1_555 1_555
C4I C3I 1_555 1_555
C4L C3L 1_555 1_555
C4G C3G 1_555 1_555
C5I C4I 1_555 1_555
C5L C4L 1_555 1_555
C5G C4G 1_555 1_555
H2I C5I 1_555 1_555
H2L C5L 1_555 1_555
H2G C5G 1_555 1_555
C6I C1I 1_555 1_555
C6L C1L 1_555 1_555
C6G C1G 1_555 1_555
C7I C2I 1_555 1_555
C7L C2L 1_555 1_555
C7G C2G 1_555 1_555
H3I C7I 1_555 1_555
H3L C7L 1_555 1_555
H3G C7G 1_555 1_555
H4I C7I 1_555 1_555
H4L C7L 1_555 1_555
H4G C7G 1_555 1_555
H5I C7I 1_555 1_555
H5L C7L 1_555 1_555
H5G C7G 1_555 1_555
C8I C4I 1_555 1_555
C8L C4L 1_555 1_555
C8G C4G 1_555 1_555
H6I C8I 1_555 1_555
H6L C8L 1_555 1_555
H6G C8G 1_555 1_555
H7I C8I 1_555 1_555
H7L C8L 1_555 1_555
H7G C8G 1_555 1_555
H8I C8I 1_555 1_555
H8L C8L 1_555 1_555
H8G C8G 1_555 1_555
C9I C6I 1_555 1_555
C9L C6L 1_555 1_555
C9G C6G 1_555 1_555
H9I C9I 1_555 1_555
H9L C9L 1_555 1_555
H9G C9G 1_555 1_555
H10I C9I 1_555 1_555
H10L C9L 1_555 1_555
H10G C9G 1_555 1_555
H11I C9I 1_555 1_555
H11L C9L 1_555 1_555
H11G C9G 1_555 1_555
C10F O2F 1_555 1_555
C10L H12L 1_555 1_555
C10H C11 1_555 1_555
H12F C10F 1_555 1_555
H12H C10H 1_555 1_555
H13F C10F 1_555 1_555
H13L C10L 1_555 1_555
H13H C10H 1_555 1_555
C11H C10 1_555 1_555
C11L O2L 1_555 1_555
C11F O2F 1_555 1_555
H14F C11F 1_555 1_555
H14L C11L 1_555 1_555
H14H C11H 1_555 1_555
H15F C11F 1_555 1_555
H15L C11L 1_555 1_555
H15H C11H 1_555 1_555
C1 O1G 1_555 1_555
C5 C6 1_555 1_555
Li1I O1L 1_555 1_555
Li1G O1G 1_555 1_555
Li1L O1G 1_555 1_555
Li1L O1L 1_555 1_555
O2H C10H 1_555 1_555
O2H C11H 1_555 1_555
C5I C6I 1_555 1_555
C5L C6L 1_555 1_555
C5G C6G 1_555 1_555
C10F C11L 1_555 1_555
C10L C11F 1_555 1_555

#END
