
#######################################################################
#
#                 Cambridge Crystallographic Data Centre
#                                CCDC 
#
#######################################################################
#
# If this CIF has been generated from an entry in the Cambridge 
# Structural Database, then it will include bibliographic, chemical, 
# crystal, experimental, refinement or atomic coordinate data resulting 
# from the CCDC's data processing and validation procedures.
#
#######################################################################

data_ASUWUI
_chemical_formula_moiety         '(C76 H50 N12 O14 Zn4)n'
_symmetry_cell_setting           triclinic
_symmetry_space_group_name_H-M   'P -1'
_symmetry_Int_Tables_number      2
_space_group_name_Hall           '-P 1'
loop_
_symmetry_equiv_pos_site_id
_symmetry_equiv_pos_as_xyz
1 x,y,z
2 -x,-y,-z
_cell_length_a                   14.9953(12)
_cell_length_b                   17.5335(17)
_cell_length_c                   20.2381(11)
_cell_angle_alpha                115.225(7)
_cell_angle_beta                 92.329(5)
_cell_angle_gamma                105.606(8)
_cell_volume                     4561.92
loop_
_atom_site_label
_atom_site_type_symbol
_atom_site_fract_x
_atom_site_fract_y
_atom_site_fract_z
Zn1 Zn 0.73128(4) -0.36005(4) 0.34736(4)
Zn2 Zn 0.79710(5) 0.70182(4) 0.94255(4)
Zn3 Zn 0.85808(5) -0.22187(4) 0.67850(4)
Zn4 Zn 0.68762(5) -0.44303(4) 0.60739(4)
O1 O 0.6401(3) 0.4316(3) 0.5802(2)
O2 O 0.6952(3) 1.5131(3) 1.2789(2)
O3 O 0.5669(3) -0.4040(2) 0.6306(2)
H1 H 0.5446 -0.3951 0.5949
H2 H 0.5807 -0.3545 0.6718
O4 O 0.5571(3) 1.4958(2) 1.3159(2)
O5 O 0.7527(3) 0.5810(3) 0.9291(3)
O6 O -0.0708(3) 0.7410(4) 0.9863(3)
N1 N 0.6419(3) -0.2918(3) 0.3448(3)
O7 O 0.5487(3) 0.4242(3) 0.4880(2)
O8 O -0.1415(3) -0.3261(4) 0.3269(3)
N2 N 0.7218(3) -0.3788(3) 0.5453(3)
N3 N 0.4640(3) 0.1147(3) 0.7835(3)
N4 N 0.7799(3) -0.1373(3) 0.7130(3)
N5 N 0.8159(3) 0.7140(3) 0.7399(3)
N6 N 0.3412(3) -0.0279(3) 0.4043(3)
N7 N 0.4140(3) 1.0444(3) 1.1001(2)
N8 N 0.7505(3) 0.6323(3) 0.7153(3)
N9 N 0.7922(3) -0.2991(3) 0.5715(3)
N10 N 0.7182(3) 0.7822(3) 0.9916(3)
N11 N 0.7436(3) -0.3482(3) 0.4521(3)
C1 C 0.5205(4) -0.1900(4) 0.3622(3)
C2 C 0.6333(4) 1.2337(4) 1.1805(4)
H3 H 0.6800 1.2066 1.1731
N12 N 0.7909(3) 0.6892(3) 0.8372(3)
O9 O -0.0621(4) 0.8602(4) 0.9766(3)
C3 C 0.6297(5) 0.7497(4) 1.0020(4)
H4 H 0.6075 0.6903 0.9920
O10 O 0.6093(4) 0.5634(3) 0.8850(4)
C4 C 0.5529(4) -0.3281(4) 0.3138(4)
H5 H 0.5298 -0.3896 0.2860
C5 C 0.5395(4) 0.2907(4) 0.4934(3)
C6 C 0.4716(4) 0.1053(3) 0.4405(3)
C7 C 0.4906(4) -0.2796(4) 0.3200(4)
H6 H 0.4286 -0.3088 0.2952
C8 C 0.6130(4) 1.4655(4) 1.2788(4)
O11 O -0.1276(3) -0.1935(4) 0.4160(3)
C9 C 0.4103(4) 0.1520(4) 0.4379(3)
H7 H 0.3465 0.1221 0.4191
C10 C 0.5666(4) 0.1514(3) 0.4703(3)
H8 H 0.6083 0.1210 0.4712
C11 C 0.4937(4) -0.0446(3) 0.3968(3)
H9 H 0.5581 -0.0188 0.4018
C12 C 0.5910(4) 0.0173(4) 0.7599(3)
C13 C 0.4454(4) 0.2432(4) 0.4636(3)
H10 H 0.4044 0.2736 0.4607
C14 C 0.5710(4) 1.0342(4) 1.0955(3)
H11 H 0.6355 1.0628 1.1050
C15 C 0.7490(4) -0.0016(4) 0.7382(3)
H12 H 0.7712 0.0560 0.7435
C16 C 0.5355(4) 0.9421(4) 1.0632(3)
C17 C 0.4348(4) 0.0080(3) 0.4129(3)
C18 C 0.7372(4) 0.6202(4) 0.7745(3)
H13 H 0.6953 0.5693 0.7731
C19 C 0.3611(4) -0.1719(4) 0.3619(3)
H14 H 0.3338 -0.2329 0.3436
C20 C 0.8076(4) -0.0532(4) 0.7230(3)
H15 H 0.8694 -0.0285 0.7197
C21 C 0.6567(4) 1.3268(4) 1.2209(4)
H16 H 0.7193 1.3612 1.2411
C22 C 0.5578(4) 0.1562(4) 0.8024(3)
C23 C 0.2755(4) 0.9182(4) 1.0559(3)
C24 C 0.4567(4) -0.1356(3) 0.3734(3)
C25 C 0.5891(4) 0.2547(4) 0.8338(3)
O12 O 0.8285(4) -0.4696(4) 0.5866(4)
H17 H 0.8816 -0.4345 0.5727
H18 H 0.8481 -0.5179 0.5901
C26 C 0.5891(4) 1.3670(4) 1.2308(3)
C27 C 0.5072(4) 1.0840(3) 1.1139(3)
C28 C 0.4935(4) -0.0251(4) 0.7412(3)
H19 H 0.4693 -0.0867 0.7204
C29 C 0.5775(4) 0.3892(4) 0.5217(3)
C30 C 0.5392(4) 1.1829(4) 1.1517(3)
C31 C 0.7460(5) 0.8677(4) 1.0080(4)
H20 H 0.8069 0.8926 1.0030
C32 C 0.6236(4) 0.1095(4) 0.7928(3)
H21 H 0.6878 0.1401 0.8083
C33 C 0.8380(4) 0.7433(4) 0.8107(3)
H22 H 0.8831 0.7977 0.8410
C34 C 0.6130(4) -0.1521(4) 0.3982(4)
H23 H 0.6361 -0.0913 0.4295
C35 C 0.6906(4) -0.1702(4) 0.7198(3)
H24 H 0.6693 -0.2284 0.7132
C36 C 0.6295(4) -0.1210(4) 0.7364(3)
H25 H 0.5689 -0.1464 0.7416
C37 C 0.6949(4) -0.4047(4) 0.4749(3)
H26 H 0.6470 -0.4569 0.4442
C38 C 0.8027(4) -0.2834(4) 0.5143(3)
H27 H 0.8461 -0.2329 0.5164
C39 C 0.4390(4) 0.9026(4) 1.0506(3)
H28 H 0.4134 0.8411 1.0302
C40 C 0.4722(4) 1.2265(4) 1.1604(3)
H29 H 0.4095 1.1932 1.1396
C41 C 0.6562(4) -0.0354(4) 0.7455(3)
C42 C 0.6797(4) 0.3031(4) 0.8363(4)
H30 H 0.7234 0.2736 0.8194
C43 C 0.3804(4) 0.9562(4) 1.0690(3)
C44 C 0.4333(4) 0.0257(4) 0.7541(4)
C45 C 0.0797(4) 0.8530(5) 1.0222(4)
C46 C 0.3039(4) -0.1160(4) 0.3780(3)
C47 C 0.5716(5) 0.8013(4) 1.0269(4)
H31 H 0.5118 0.7762 1.0337
C48 C 0.5238(4) 0.2994(4) 0.8551(4)
H32 H 0.4620 0.2684 0.8533
C49 C 0.1338(5) 0.7953(5) 1.0109(5)
H33 H 0.1035 0.7348 0.9930
C50 C 0.5985(4) 0.2438(4) 0.4989(3)
H34 H 0.6609 0.2748 0.5222
C51 C 0.4962(4) 1.3166(4) 1.1986(4)
H35 H 0.4502 1.3443 1.2031
C52 C 0.2204(5) 0.9714(5) 1.0736(4)
H36 H 0.2495 1.0325 1.1000
C53 C 0.6721(4) -0.2033(4) 0.3884(4)
H37 H 0.7344 -0.1758 0.4126
C54 C 0.7066(4) 0.3928(4) 0.8628(5)
H38 H 0.7691 0.4236 0.8663
C55 C 0.5516(5) 0.3924(4) 0.8798(4)
H39 H 0.5073 0.4221 0.8928
C56 C 0.2304(5) 0.8270(4) 1.0257(4)
H40 H 0.2653 0.7881 1.0158
C57 C 0.6910(4) 0.9217(4) 1.0320(4)
H41 H 0.7145 0.9810 1.0417
C58 C -0.0967(5) -0.2484(5) 0.3631(5)
C59 C 0.6005(4) 0.8885(4) 1.0417(3)
C60 C 0.6433(5) 0.4391(4) 0.8847(4)
C61 C 0.1249(5) 0.9405(5) 1.0548(5)
H42 H 0.0910 0.9803 1.0647
C62 C 0.6700(5) 0.5335(5) 0.9035(5)
C63 C -0.0264(5) 0.8147(5) 0.9934(5)
C64 C 0.1341(2) -0.0975(4) 0.6880(4)
C65 C 0.1900(3) -0.1370(3) 0.7103(3)
H43 H 0.1624 -0.1899 0.7125
C66 C 0.2871(3) -0.0973(3) 0.7292(3)
H44 H 0.3245 -0.1237 0.7441
C67 C 0.3282(2) -0.0182(3) 0.7259(3)
C68 C 0.2723(4) 0.0213(3) 0.7036(4)
H45 H 0.2999 0.0742 0.7014
C69 C 0.1753(4) -0.0184(4) 0.6847(4)
H46 H 0.1379 0.0081 0.6698
O13 O -0.0073(4) -0.1936(5) 0.6924(4)
O14 O -0.0249(5) -0.1133(5) 0.6412(5)
C70 C 0.0296(6) -0.1355(7) 0.6767(7)
C71 C 0.0552(3) -0.1243(3) 0.4038(4)
H47 H 0.0233 -0.0849 0.4292
C72 C 0.1517(3) -0.0932(2) 0.4072(4)
H48 H 0.1844 -0.0330 0.4349
C73 C 0.1993(2) -0.1522(3) 0.3693(3)
C74 C 0.1504(3) -0.2422(2) 0.3280(3)
H49 H 0.1822 -0.2816 0.3026
C75 C 0.0539(3) -0.2733(2) 0.3245(3)
H50 H 0.0211 -0.3336 0.2969
C76 C 0.0063(2) -0.2144(3) 0.3625(4)
Zn1_2 Zn -0.26872(4) -0.36005(4) 0.34736(4)
Zn1_3 Zn 0.73128(4) 1.63995(4) 1.34736(4)
Zn2_2 Zn -0.20290(5) 0.70182(4) 0.94255(4)
Zn3_2 Zn -0.14192(5) -0.22187(4) 0.67850(4)
Zn3_3 Zn 0.85808(5) 0.77813(4) 0.67850(4)
Zn4_2 Zn 0.68762(5) 0.55697(4) 0.60739(4)
O1_2 O 0.6401(3) -0.5684(3) 0.5802(2)
O2_2 O 0.6952(3) -0.4869(3) 0.2789(2)
O6_2 O 0.9292(3) 0.7410(4) 0.9863(3)
O8_2 O 0.8585(3) -0.3261(4) 0.3269(3)
N5_2 N 0.8159(3) -0.2860(3) 0.7399(3)
N8_2 N 0.7505(3) -0.3677(3) 0.7153(3)
O13_2 O 0.9927(4) -0.1936(5) 0.6924(4)
loop_
_geom_bond_atom_site_label_1
_geom_bond_atom_site_label_2
_geom_bond_site_symmetry_1
_geom_bond_site_symmetry_2
Zn1 N1 1_555 1_555
Zn2 O5 1_555 1_555
Zn3 N4 1_555 1_555
Zn4 O3 1_555 1_555
O1 C29 1_555 1_555
O2 C8 1_555 1_555
O3 H1 1_555 1_555
H2 O3 1_555 1_555
O4 C8 1_555 1_555
O5 C62 1_555 1_555
O6 C63 1_555 1_555
N1 C4 1_555 1_555
O7 C29 1_555 1_555
O8 C58 1_555 1_555
N2 Zn4 1_555 1_555
N3 C22 1_555 1_555
N4 C20 1_555 1_555
N5 N8 1_555 1_555
N6 C17 1_555 1_555
N7 C27 1_555 1_555
N8 C18 1_555 1_555
N9 Zn3 1_555 1_555
N10 Zn2 1_555 1_555
N11 Zn1 1_555 1_555
C1 C7 1_555 1_555
C2 H3 1_555 1_555
N12 Zn2 1_555 1_555
O9 C63 1_555 1_555
C3 N10 1_555 1_555
H4 C3 1_555 1_555
O10 C62 1_555 1_555
C4 H5 1_555 1_555
C5 C13 1_555 1_555
C6 C9 1_555 1_555
C7 C4 1_555 1_555
H6 C7 1_555 1_555
C8 C26 1_555 1_555
O11 C58 1_555 1_555
C9 H7 1_555 1_555
C10 C6 1_555 1_555
H8 C10 1_555 1_555
C11 H9 1_555 1_555
C12 C28 1_555 1_555
C13 C9 1_555 1_555
H10 C13 1_555 1_555
C14 H11 1_555 1_555
C15 H12 1_555 1_555
C16 C14 1_555 1_555
C17 C6 1_555 1_555
C18 N12 1_555 1_555
H13 C18 1_555 1_555
C19 H14 1_555 1_555
C20 C15 1_555 1_555
H15 C20 1_555 1_555
C21 C2 1_555 1_555
H16 C21 1_555 1_555
C22 C25 1_555 1_555
C23 C43 1_555 1_555
C24 C1 1_555 1_555
C25 C42 1_555 1_555
O12 Zn4 1_555 1_555
H17 O12 1_555 1_555
H18 O12 1_555 1_555
C26 C21 1_555 1_555
C27 C14 1_555 1_555
C28 H19 1_555 1_555
C29 C5 1_555 1_555
C30 C2 1_555 1_555
C31 N10 1_555 1_555
H20 C31 1_555 1_555
C32 C12 1_555 1_555
H21 C32 1_555 1_555
C33 N5 1_555 1_555
H22 C33 1_555 1_555
C34 C1 1_555 1_555
H23 C34 1_555 1_555
C35 N4 1_555 1_555
H24 C35 1_555 1_555
C36 C35 1_555 1_555
H25 C36 1_555 1_555
C37 N2 1_555 1_555
H26 C37 1_555 1_555
C38 N9 1_555 1_555
H27 C38 1_555 1_555
C39 C16 1_555 1_555
H28 C39 1_555 1_555
C40 C30 1_555 1_555
H29 C40 1_555 1_555
C41 C12 1_555 1_555
C42 H30 1_555 1_555
C43 N7 1_555 1_555
C44 N3 1_555 1_555
C45 C49 1_555 1_555
C46 N6 1_555 1_555
C47 C3 1_555 1_555
H31 C47 1_555 1_555
C48 C25 1_555 1_555
H32 C48 1_555 1_555
C49 H33 1_555 1_555
C50 C5 1_555 1_555
H34 C50 1_555 1_555
C51 C26 1_555 1_555
H35 C51 1_555 1_555
C52 C23 1_555 1_555
H36 C52 1_555 1_555
C53 N1 1_555 1_555
H37 C53 1_555 1_555
C54 C42 1_555 1_555
H38 C54 1_555 1_555
C55 C48 1_555 1_555
H39 C55 1_555 1_555
C56 C23 1_555 1_555
H40 C56 1_555 1_555
C57 C31 1_555 1_555
H41 C57 1_555 1_555
C58 C76 1_555 1_555
C59 C16 1_555 1_555
C60 C54 1_555 1_555
C61 C45 1_555 1_555
H42 C61 1_555 1_555
C62 C60 1_555 1_555
C63 C45 1_555 1_555
C64 C65 1_555 1_555
C65 H43 1_555 1_555
C66 C65 1_555 1_555
H44 C66 1_555 1_555
C67 C44 1_555 1_555
C68 C67 1_555 1_555
H45 C68 1_555 1_555
C69 C64 1_555 1_555
H46 C69 1_555 1_555
O13 C70 1_555 1_555
O14 C70 1_555 1_555
C70 C64 1_555 1_555
C71 H47 1_555 1_555
C72 C71 1_555 1_555
H48 C72 1_555 1_555
C73 C46 1_555 1_555
C74 C73 1_555 1_555
H49 C74 1_555 1_555
C75 C74 1_555 1_555
H50 C75 1_555 1_555
C76 C71 1_555 1_555
Zn1_2 O8 1_555 1_555
Zn1_3 O2 1_555 1_555
Zn2_2 O6 1_555 1_555
Zn3_2 O13 1_555 1_555
Zn3_3 N5 1_555 1_555
Zn4_2 O1 1_555 1_555
O1_2 Zn4 1_555 1_555
O2_2 Zn1 1_555 1_555
O6_2 Zn2 1_555 1_555
O8_2 Zn1 1_555 1_555
N5_2 Zn3 1_555 1_555
N8_2 Zn4 1_555 1_555
O13_2 Zn3 1_555 1_555
N2 N9 1_555 1_555
N8 Zn4_2 1_555 1_555
N11 C37 1_555 1_555
N11 C38 1_555 1_555
N12 C33 1_555 1_555
C10 C50 1_555 1_555
C11 C17 1_555 1_555
C11 C24 1_555 1_555
C15 C41 1_555 1_555
C19 C24 1_555 1_555
C19 C46 1_555 1_555
C22 C32 1_555 1_555
C27 C30 1_555 1_555
C28 C44 1_555 1_555
C34 C53 1_555 1_555
C36 C41 1_555 1_555
C39 C43 1_555 1_555
C40 C51 1_555 1_555
C47 C59 1_555 1_555
C49 C56 1_555 1_555
C52 C61 1_555 1_555
C55 C60 1_555 1_555
C57 C59 1_555 1_555
C66 C67 1_555 1_555
C68 C69 1_555 1_555
C72 C73 1_555 1_555
C75 C76 1_555 1_555
N5_2 N8_2 1_555 1_555

#END
