
#######################################################################
#
#                 Cambridge Crystallographic Data Centre
#                                CCDC 
#
#######################################################################
#
# If this CIF has been generated from an entry in the Cambridge 
# Structural Database, then it will include bibliographic, chemical, 
# crystal, experimental, refinement or atomic coordinate data resulting 
# from the CCDC's data processing and validation procedures.
#
#######################################################################

data_YOYZUJ
_chemical_formula_moiety         'C204 H408 Ag29 N80'
_symmetry_cell_setting           cubic
_symmetry_space_group_name_H-M   'F d -3 m'
_symmetry_Int_Tables_number      227
_space_group_name_Hall           '-F 4vw 2vw 3'
loop_
_symmetry_equiv_pos_site_id
_symmetry_equiv_pos_as_xyz
1 x,y,z
2 -y,1/4+x,1/4+z
3 1/4-x,1/4-y,z
4 1/4+y,-x,1/4+z
5 1/4+x,-z,1/4+y
6 x,1/4-y,1/4-z
7 1/4+x,1/4+z,-y
8 1/4+z,1/4+y,-x
9 1/4-x,y,1/4-z
10 -z,1/4+y,1/4+x
11 z,x,y
12 y,z,x
13 1/4-y,1/4-z,x
14 z,1/4-x,1/4-y
15 1/4-y,z,1/4-x
16 1/4-z,1/4-x,y
17 1/4-z,x,1/4-y
18 y,1/4-z,1/4-x
19 1/4+y,1/4+x,-z
20 -y,-x,-z
21 -x,1/4+z,1/4+y
22 -x,-z,-y
23 1/4+z,-y,1/4+x
24 -z,-y,-x
25 x,1/2+y,1/2+z
26 -y,3/4+x,3/4+z
27 1/4-x,3/4-y,1/2+z
28 1/4+y,1/2-x,3/4+z
29 1/4+x,1/2-z,3/4+y
30 x,3/4-y,3/4-z
31 1/4+x,3/4+z,1/2-y
32 1/4+z,3/4+y,1/2-x
33 1/4-x,1/2+y,3/4-z
34 -z,3/4+y,3/4+x
35 z,1/2+x,1/2+y
36 y,1/2+z,1/2+x
37 1/4-y,3/4-z,1/2+x
38 z,3/4-x,3/4-y
39 1/4-y,1/2+z,3/4-x
40 1/4-z,3/4-x,1/2+y
41 1/4-z,1/2+x,3/4-y
42 y,3/4-z,3/4-x
43 1/4+y,3/4+x,1/2-z
44 -y,1/2-x,1/2-z
45 -x,3/4+z,3/4+y
46 -x,1/2-z,1/2-y
47 1/4+z,1/2-y,3/4+x
48 -z,1/2-y,1/2-x
49 1/2+x,y,1/2+z
50 1/2-y,1/4+x,3/4+z
51 3/4-x,1/4-y,1/2+z
52 3/4+y,-x,3/4+z
53 3/4+x,-z,3/4+y
54 1/2+x,1/4-y,3/4-z
55 3/4+x,1/4+z,1/2-y
56 3/4+z,1/4+y,1/2-x
57 3/4-x,y,3/4-z
58 1/2-z,1/4+y,3/4+x
59 1/2+z,x,1/2+y
60 1/2+y,z,1/2+x
61 3/4-y,1/4-z,1/2+x
62 1/2+z,1/4-x,3/4-y
63 3/4-y,z,3/4-x
64 3/4-z,1/4-x,1/2+y
65 3/4-z,x,3/4-y
66 1/2+y,1/4-z,3/4-x
67 3/4+y,1/4+x,1/2-z
68 1/2-y,-x,1/2-z
69 1/2-x,1/4+z,3/4+y
70 1/2-x,-z,1/2-y
71 3/4+z,-y,3/4+x
72 1/2-z,-y,1/2-x
73 1/2+x,1/2+y,z
74 1/2-y,3/4+x,1/4+z
75 3/4-x,3/4-y,z
76 3/4+y,1/2-x,1/4+z
77 3/4+x,1/2-z,1/4+y
78 1/2+x,3/4-y,1/4-z
79 3/4+x,3/4+z,-y
80 3/4+z,3/4+y,-x
81 3/4-x,1/2+y,1/4-z
82 1/2-z,3/4+y,1/4+x
83 1/2+z,1/2+x,y
84 1/2+y,1/2+z,x
85 3/4-y,3/4-z,x
86 1/2+z,3/4-x,1/4-y
87 3/4-y,1/2+z,1/4-x
88 3/4-z,3/4-x,y
89 3/4-z,1/2+x,1/4-y
90 1/2+y,3/4-z,1/4-x
91 3/4+y,3/4+x,-z
92 1/2-y,1/2-x,-z
93 1/2-x,3/4+z,1/4+y
94 1/2-x,1/2-z,-y
95 3/4+z,1/2-y,1/4+x
96 1/2-z,1/2-y,-x
97 -x,-y,-z
98 y,3/4-x,3/4-z
99 3/4+x,3/4+y,-z
100 3/4-y,x,3/4-z
101 3/4-x,z,3/4-y
102 -x,3/4+y,3/4+z
103 3/4-x,3/4-z,y
104 3/4-z,3/4-y,x
105 3/4+x,-y,3/4+z
106 z,3/4-y,3/4-x
107 -z,-x,-y
108 -y,-z,-x
109 3/4+y,3/4+z,-x
110 -z,3/4+x,3/4+y
111 3/4+y,-z,3/4+x
112 3/4+z,3/4+x,-y
113 3/4+z,-x,3/4+y
114 -y,3/4+z,3/4+x
115 3/4-y,3/4-x,z
116 y,x,z
117 x,3/4-z,3/4-y
118 x,z,y
119 3/4-z,y,3/4-x
120 z,y,x
121 -x,1/2-y,1/2-z
122 y,1/4-x,1/4-z
123 3/4+x,1/4+y,1/2-z
124 3/4-y,1/2+x,1/4-z
125 3/4-x,1/2+z,1/4-y
126 -x,1/4+y,1/4+z
127 3/4-x,1/4-z,1/2+y
128 3/4-z,1/4-y,1/2+x
129 3/4+x,1/2-y,1/4+z
130 z,1/4-y,1/4-x
131 -z,1/2-x,1/2-y
132 -y,1/2-z,1/2-x
133 3/4+y,1/4+z,1/2-x
134 -z,1/4+x,1/4+y
135 3/4+y,1/2-z,1/4+x
136 3/4+z,1/4+x,1/2-y
137 3/4+z,1/2-x,1/4+y
138 -y,1/4+z,1/4+x
139 3/4-y,1/4-x,1/2+z
140 y,1/2+x,1/2+z
141 x,1/4-z,1/4-y
142 x,1/2+z,1/2+y
143 3/4-z,1/2+y,1/4-x
144 z,1/2+y,1/2+x
145 1/2-x,-y,1/2-z
146 1/2+y,3/4-x,1/4-z
147 1/4+x,3/4+y,1/2-z
148 1/4-y,x,1/4-z
149 1/4-x,z,1/4-y
150 1/2-x,3/4+y,1/4+z
151 1/4-x,3/4-z,1/2+y
152 1/4-z,3/4-y,1/2+x
153 1/4+x,-y,1/4+z
154 1/2+z,3/4-y,1/4-x
155 1/2-z,-x,1/2-y
156 1/2-y,-z,1/2-x
157 1/4+y,3/4+z,1/2-x
158 1/2-z,3/4+x,1/4+y
159 1/4+y,-z,1/4+x
160 1/4+z,3/4+x,1/2-y
161 1/4+z,-x,1/4+y
162 1/2-y,3/4+z,1/4+x
163 1/4-y,3/4-x,1/2+z
164 1/2+y,x,1/2+z
165 1/2+x,3/4-z,1/4-y
166 1/2+x,z,1/2+y
167 1/4-z,y,1/4-x
168 1/2+z,y,1/2+x
169 1/2-x,1/2-y,-z
170 1/2+y,1/4-x,3/4-z
171 1/4+x,1/4+y,-z
172 1/4-y,1/2+x,3/4-z
173 1/4-x,1/2+z,3/4-y
174 1/2-x,1/4+y,3/4+z
175 1/4-x,1/4-z,y
176 1/4-z,1/4-y,x
177 1/4+x,1/2-y,3/4+z
178 1/2+z,1/4-y,3/4-x
179 1/2-z,1/2-x,-y
180 1/2-y,1/2-z,-x
181 1/4+y,1/4+z,-x
182 1/2-z,1/4+x,3/4+y
183 1/4+y,1/2-z,3/4+x
184 1/4+z,1/4+x,-y
185 1/4+z,1/2-x,3/4+y
186 1/2-y,1/4+z,3/4+x
187 1/4-y,1/4-x,z
188 1/2+y,1/2+x,z
189 1/2+x,1/4-z,3/4-y
190 1/2+x,1/2+z,y
191 1/4-z,1/2+y,3/4-x
192 1/2+z,1/2+y,x
_cell_length_a                   45.826(3)
_cell_length_b                   45.826(3)
_cell_length_c                   45.826(3)
_cell_angle_alpha                90
_cell_angle_beta                 90
_cell_angle_gamma                90
_cell_volume                     96235.6
loop_
_atom_site_label
_atom_site_type_symbol
_atom_site_fract_x
_atom_site_fract_y
_atom_site_fract_z
_atom_site_U_iso_or_equiv
_atom_site_thermal_displace_type
Ag1 Ag 0.067828(9) 0.371291(13) 0.067828(9) 0.0230 Uani
N1 N 0.06228(14) 0.18772(14) 0.06228(14) 0.0250 Uani
N2 N 0.08433(10) 0.39317(11) 0.02392(10) 0.0257 Uani
N3 N 0.10457(9) 0.37241(13) 0.10457(9) 0.0173 Uani
N4 N 0.05576(11) 0.32120(14) 0.05576(11) 0.0303 Uani
C1 C 0.02554(14) 0.28730(17) 0.02554(14) 0.0373 Uani
H1 H 0.0046 0.2838 0.0293 0.0450 Uiso
N5 N 0.04354(10) 0.26651(13) 0.04354(10) 0.0240 Uani
C2 C 0.03304(16) 0.31918(19) 0.03304(16) 0.0513 Uani
H2 H 0.0399 0.3293 0.0152 0.0610 Uiso
Ag2 Ag 0.1250 0.1250 0.1250 0.0206 Uani
N6 N 0.09517(14) 0.15483(14) 0.09517(14) 0.0340 Uani
C3 C 0.06222(18) 0.3931(2) 0.00021(15) 0.0587 Uani
H3 H 0.0454 0.4053 0.0059 0.0710 Uiso
H4 H 0.0551 0.3729 -0.0031 0.0710 Uiso
C4 C 0.13225(13) 0.35685(17) 0.09428(13) 0.0370 Uani
H5 H 0.1274 0.3365 0.0890 0.0440 Uiso
H6 H 0.1398 0.3667 0.0766 0.0440 Uiso
C5 C 0.11325(12) 0.40243(18) 0.11325(12) 0.0313 Uani
H7 H 0.0959 0.4130 0.1206 0.0380 Uiso
C6 C 0.0947(2) 0.42401(18) 0.02860(14) 0.0623 Uani
H8 H 0.1102 0.4241 0.0437 0.0740 Uiso
H9 H 0.0783 0.4360 0.0359 0.0740 Uiso
C7 C 0.1108(2) 0.3769(2) 0.01406(16) 0.0700 Uani
H10 H 0.1058 0.3561 0.0112 0.0840 Uiso
H11 H 0.1260 0.3780 0.0294 0.0840 Uiso
C8 C 0.1132(2) 0.17365(15) 0.07635(15) 0.0770 Uani
H12 H 0.1259 0.1614 0.0639 0.0920 Uiso
C9 C 0.0368(3) 0.27295(14) 0.07481(15) 0.0767 Uani
H13 H 0.0489 0.2603 0.0876 0.0920 Uiso
H14 H 0.0160 0.2687 0.0788 0.0920 Uiso
C10 C 0.0941(2) 0.19282(16) 0.05718(16) 0.0777 Uani
H15 H 0.0987 0.2136 0.0611 0.0930 Uiso
C11 C 0.0432(4) 0.30569(16) 0.08172(18) 0.1143 Uani
H16 H 0.0249 0.3155 0.0877 0.1370 Uiso
H17 H 0.0572 0.3069 0.0982 0.1370 Uiso
Ag3 Ag 0.032337(13) 0.217663(13) 0.032337(13) 0.0210 Uani
C8L C 0.07635(15) 0.17365(15) 0.1132(2) 0.0770 Uani
H12L H 0.0886 0.1861 0.1259 0.0920 Uiso
C10L C 0.05718(16) 0.19282(16) 0.0941(2) 0.0777 Uani
H15L H 0.0364 0.1889 0.0987 0.0930 Uiso
C8M C 0.07635(15) 0.1368(2) 0.07635(15) 0.0770 Uani
H12M H 0.0639 0.1241 0.0886 0.0920 Uiso
C10M C 0.05718(16) 0.1559(2) 0.05718(16) 0.0777 Uani
H15M H 0.0611 0.1513 0.0364 0.0930 Uiso
H12OD H 0.0639 0.1614 0.1259 0.0920 Uiso
H15OD H 0.0611 0.2136 0.0987 0.0930 Uiso
H12JE H 0.1259 0.1861 0.0886 0.0920 Uiso
H15JE H 0.0987 0.1889 0.0364 0.0930 Uiso
H12DG H 0.0886 0.1241 0.0639 0.0920 Uiso
H15DG H 0.0364 0.1513 0.0611 0.0930 Uiso
N2MC N 0.10683(11) 0.41567(10) -0.02392(10) 0.0257 Uani
C3MC C 0.1069(2) 0.43778(18) -0.00021(15) 0.0587 Uani
H3MC H 0.0947 0.4546 -0.0059 0.0710 Uiso
H4MC H 0.1271 0.4449 0.0031 0.0710 Uiso
C6MC C 0.07599(18) 0.4053(2) -0.02860(14) 0.0623 Uani
H8MC H 0.0759 0.3898 -0.0437 0.0740 Uiso
H9MC H 0.0640 0.4217 -0.0359 0.0740 Uiso
C7MC C 0.1231(2) 0.3892(2) -0.01406(16) 0.0700 Uani
H10MC H 0.1439 0.3942 -0.0112 0.0840 Uiso
H11MC H 0.1220 0.3740 -0.0294 0.0840 Uiso
N3H N 0.14543(9) 0.37241(13) 0.14543(9) 0.0173 Uani
C4H C 0.11775(13) 0.35685(17) 0.15572(13) 0.0370 Uani
H5H H 0.1226 0.3365 0.1610 0.0440 Uiso
H6H H 0.1102 0.3667 0.1734 0.0440 Uiso
C5H C 0.13675(12) 0.40243(18) 0.13675(12) 0.0313 Uani
H7H H 0.1541 0.4130 0.1294 0.0380 Uiso
C4OD C 0.09428(13) 0.35685(17) 0.13225(13) 0.0370 Uani
H5OD H 0.0890 0.3365 0.1274 0.0440 Uiso
H6OD H 0.0766 0.3667 0.1398 0.0440 Uiso
H7OD H 0.1206 0.4130 0.0959 0.0380 Uiso
C4JF C 0.15572(13) 0.35685(17) 0.11775(13) 0.0370 Uani
H5JF H 0.1610 0.3365 0.1226 0.0440 Uiso
H6JF H 0.1734 0.3667 0.1102 0.0440 Uiso
H7JF H 0.1294 0.4130 0.1541 0.0380 Uiso
H1OD H 0.0293 0.2838 0.0046 0.0450 Uiso
H2OD H 0.0152 0.3293 0.0399 0.0610 Uiso
C9OD C 0.07481(15) 0.27295(14) 0.0368(3) 0.0767 Uani
H13OD H 0.0876 0.2603 0.0489 0.0920 Uiso
H14OD H 0.0788 0.2687 0.0160 0.0920 Uiso
C11OD C 0.08172(18) 0.30569(16) 0.0432(4) 0.1143 Uani
H16OD H 0.0877 0.3155 0.0249 0.1370 Uiso
H17OD H 0.0982 0.3069 0.0572 0.1370 Uiso
Ag1B Ag 0.182172(9) -0.121291(13) 0.067828(9) 0.0230 Uani
N1B N 0.18772(14) 0.06228(14) 0.06228(14) 0.0250 Uani
N3B N 0.14543(9) -0.12241(13) 0.10457(9) 0.0173 Uani
N4B N 0.19424(11) -0.07120(14) 0.05576(11) 0.0303 Uani
C1B C 0.22446(14) -0.03730(17) 0.02554(14) 0.0373 Uani
H1B H 0.2454 -0.0338 0.0293 0.0450 Uiso
N5B N 0.20646(10) -0.01651(13) 0.04354(10) 0.0240 Uani
C2B C 0.21696(16) -0.06918(19) 0.03304(16) 0.0513 Uani
H2B H 0.2101 -0.0793 0.0152 0.0610 Uiso
N6B N 0.15483(14) 0.09517(14) 0.09517(14) 0.0340 Uani
C4B C 0.11775(13) -0.10685(17) 0.09428(13) 0.0370 Uani
H5B H 0.1226 -0.0865 0.0890 0.0440 Uiso
H6B H 0.1102 -0.1167 0.0766 0.0440 Uiso
C5B C 0.13675(12) -0.15243(18) 0.11325(12) 0.0313 Uani
H7B H 0.1541 -0.1630 0.1206 0.0380 Uiso
C8B C 0.1368(2) 0.07635(15) 0.07635(15) 0.0770 Uani
H12B H 0.1241 0.0886 0.0639 0.0920 Uiso
C9B C 0.2132(3) -0.02295(14) 0.07481(15) 0.0767 Uani
H13B H 0.2011 -0.0103 0.0876 0.0920 Uiso
H14B H 0.2340 -0.0187 0.0788 0.0920 Uiso
C10B C 0.1559(2) 0.05718(16) 0.05718(16) 0.0777 Uani
H15B H 0.1513 0.0364 0.0611 0.0930 Uiso
C11B C 0.2068(4) -0.05569(16) 0.08172(18) 0.1143 Uani
H16B H 0.2251 -0.0655 0.0877 0.1370 Uiso
H17B H 0.1928 -0.0569 0.0982 0.1370 Uiso
Ag3B Ag 0.217663(13) 0.032337(13) 0.032337(13) 0.0210 Uani
C8K C 0.17365(15) 0.07635(15) 0.1132(2) 0.0770 Uani
H12K H 0.1614 0.0639 0.1259 0.0920 Uiso
C10K C 0.19282(16) 0.05718(16) 0.0941(2) 0.0777 Uani
H15K H 0.2136 0.0611 0.0987 0.0930 Uiso
C8P C 0.17365(15) 0.1132(2) 0.07635(15) 0.0770 Uani
H12P H 0.1861 0.1259 0.0886 0.0920 Uiso
C10P C 0.19282(16) 0.0941(2) 0.05718(16) 0.0777 Uani
H15P H 0.1889 0.0987 0.0364 0.0930 Uiso
H12SF H 0.1861 0.0886 0.1259 0.0920 Uiso
H15SF H 0.1889 0.0364 0.0987 0.0930 Uiso
H12RE H 0.1241 0.0639 0.0886 0.0920 Uiso
H15RE H 0.1513 0.0611 0.0364 0.0930 Uiso
H12KD H 0.1614 0.1259 0.0639 0.0920 Uiso
H15KD H 0.2136 0.0987 0.0611 0.0930 Uiso
N3E N 0.10457(9) -0.12241(13) 0.14543(9) 0.0173 Uani
C4E C 0.13225(13) -0.10685(17) 0.15572(13) 0.0370 Uani
H5E H 0.1274 -0.0865 0.1610 0.0440 Uiso
H6E H 0.1398 -0.1167 0.1734 0.0440 Uiso
C5E C 0.11325(12) -0.15243(18) 0.13675(12) 0.0313 Uani
H7E H 0.0959 -0.1630 0.1294 0.0380 Uiso
C4SF C 0.15572(13) -0.10685(17) 0.13225(13) 0.0370 Uani
H5SF H 0.1610 -0.0865 0.1274 0.0440 Uiso
H6SF H 0.1734 -0.1167 0.1398 0.0440 Uiso
H7SF H 0.1294 -0.1630 0.0959 0.0380 Uiso
C4YD C 0.09428(13) -0.10685(17) 0.11775(13) 0.0370 Uani
H5YD H 0.0890 -0.0865 0.1226 0.0440 Uiso
H6YD H 0.0766 -0.1167 0.1102 0.0440 Uiso
H7YD H 0.1206 -0.1630 0.1541 0.0380 Uiso
H1SF H 0.2207 -0.0338 0.0046 0.0450 Uiso
H2SF H 0.2348 -0.0793 0.0399 0.0610 Uiso
C9SF C 0.17519(15) -0.02295(14) 0.0368(3) 0.0767 Uani
H13SF H 0.1624 -0.0103 0.0489 0.0920 Uiso
H14SF H 0.1712 -0.0187 0.0160 0.0920 Uiso
C11SF C 0.16828(18) -0.05569(16) 0.0432(4) 0.1143 Uani
H16SF H 0.1623 -0.0655 0.0249 0.1370 Uiso
H17SF H 0.1518 -0.0569 0.0572 0.1370 Uiso
Ag1E Ag 0.067828(9) -0.121291(13) 0.182172(9) 0.0230 Uani
N1E N 0.06228(14) 0.06228(14) 0.18772(14) 0.0250 Uani
N4E N 0.05576(11) -0.07120(14) 0.19424(11) 0.0303 Uani
C1E C 0.02554(14) -0.03730(17) 0.22446(14) 0.0373 Uani
H1E H 0.0046 -0.0338 0.2207 0.0450 Uiso
N5E N 0.04354(10) -0.01651(13) 0.20646(10) 0.0240 Uani
C2E C 0.03304(16) -0.06918(19) 0.21696(16) 0.0513 Uani
H2E H 0.0399 -0.0793 0.2348 0.0610 Uiso
N6E N 0.09517(14) 0.09517(14) 0.15483(14) 0.0340 Uani
C8E C 0.1132(2) 0.07635(15) 0.17365(15) 0.0770 Uani
H12E H 0.1259 0.0886 0.1861 0.0920 Uiso
C9E C 0.0368(3) -0.02295(14) 0.17519(15) 0.0767 Uani
H13E H 0.0489 -0.0103 0.1624 0.0920 Uiso
H14E H 0.0160 -0.0187 0.1712 0.0920 Uiso
C10E C 0.0941(2) 0.05718(16) 0.19282(16) 0.0777 Uani
H15E H 0.0987 0.0364 0.1889 0.0930 Uiso
C11E C 0.0432(4) -0.05569(16) 0.16828(18) 0.1143 Uani
H16E H 0.0249 -0.0655 0.1623 0.1370 Uiso
H17E H 0.0572 -0.0569 0.1518 0.1370 Uiso
Ag3E Ag 0.032337(13) 0.032337(13) 0.217663(13) 0.0210 Uani
C8N C 0.07635(15) 0.07635(15) 0.1368(2) 0.0770 Uani
H12N H 0.0886 0.0639 0.1241 0.0920 Uiso
C10N C 0.05718(16) 0.05718(16) 0.1559(2) 0.0777 Uani
H15N H 0.0364 0.0611 0.1513 0.0930 Uiso
C8J C 0.07635(15) 0.1132(2) 0.17365(15) 0.0770 Uani
H12J H 0.0639 0.1259 0.1614 0.0920 Uiso
C10J C 0.05718(16) 0.0941(2) 0.19282(16) 0.0777 Uani
H15J H 0.0611 0.0987 0.2136 0.0930 Uiso
H12YD H 0.0639 0.0886 0.1241 0.0920 Uiso
H15YD H 0.0611 0.0364 0.1513 0.0930 Uiso
H12MD H 0.1259 0.0639 0.1614 0.0920 Uiso
H15MD H 0.0987 0.0611 0.2136 0.0930 Uiso
H12QE H 0.0886 0.1259 0.1861 0.0920 Uiso
H15QE H 0.0364 0.0987 0.1889 0.0930 Uiso
H1YD H 0.0293 -0.0338 0.2454 0.0450 Uiso
H2YD H 0.0152 -0.0793 0.2101 0.0610 Uiso
C9YD C 0.07481(15) -0.02295(14) 0.2132(3) 0.0767 Uani
H13YD H 0.0876 -0.0103 0.2011 0.0920 Uiso
H14YD H 0.0788 -0.0187 0.2340 0.0920 Uiso
C11YD C 0.08172(18) -0.05569(16) 0.2068(4) 0.1143 Uani
H16YD H 0.0877 -0.0655 0.2251 0.1370 Uiso
H17YD H 0.0982 -0.0569 0.1928 0.1370 Uiso
Ag1H Ag 0.182172(9) 0.371291(13) 0.182172(9) 0.0230 Uani
N1H N 0.18772(14) 0.18772(14) 0.18772(14) 0.0250 Uani
N4H N 0.19424(11) 0.32120(14) 0.19424(11) 0.0303 Uani
C1H C 0.22446(14) 0.28730(17) 0.22446(14) 0.0373 Uani
H1H H 0.2454 0.2838 0.2207 0.0450 Uiso
N5H N 0.20646(10) 0.26651(13) 0.20646(10) 0.0240 Uani
C2H C 0.21696(16) 0.31918(19) 0.21696(16) 0.0513 Uani
H2H H 0.2101 0.3293 0.2348 0.0610 Uiso
N6H N 0.15483(14) 0.15483(14) 0.15483(14) 0.0340 Uani
C8H C 0.1368(2) 0.17365(15) 0.17365(15) 0.0770 Uani
H12H H 0.1241 0.1614 0.1861 0.0920 Uiso
C9H C 0.2132(3) 0.27295(14) 0.17519(15) 0.0767 Uani
H13H H 0.2011 0.2603 0.1624 0.0920 Uiso
H14H H 0.2340 0.2687 0.1712 0.0920 Uiso
C10H C 0.1559(2) 0.19282(16) 0.19282(16) 0.0777 Uani
H15H H 0.1513 0.2136 0.1889 0.0930 Uiso
C11H C 0.2068(4) 0.30569(16) 0.16828(18) 0.1143 Uani
H16H H 0.2251 0.3155 0.1623 0.1370 Uiso
H17H H 0.1928 0.3069 0.1518 0.1370 Uiso
Ag3H Ag 0.217663(13) 0.217663(13) 0.217663(13) 0.0210 Uani
C8Q C 0.17365(15) 0.17365(15) 0.1368(2) 0.0770 Uani
H12Q H 0.1614 0.1861 0.1241 0.0920 Uiso
C10Q C 0.19282(16) 0.19282(16) 0.1559(2) 0.0777 Uani
H15Q H 0.2136 0.1889 0.1513 0.0930 Uiso
C8O C 0.17365(15) 0.1368(2) 0.17365(15) 0.0770 Uani
H12O H 0.1861 0.1241 0.1614 0.0920 Uiso
C10O C 0.19282(16) 0.1559(2) 0.19282(16) 0.0777 Uani
H15O H 0.1889 0.1513 0.2136 0.0930 Uiso
H12JF H 0.1861 0.1614 0.1241 0.0920 Uiso
H15JF H 0.1889 0.2136 0.1513 0.0930 Uiso
H12RF H 0.1241 0.1861 0.1614 0.0920 Uiso
H15RF H 0.1513 0.1889 0.2136 0.0930 Uiso
H12QD H 0.1614 0.1241 0.1861 0.0920 Uiso
H15QD H 0.2136 0.1513 0.1889 0.0930 Uiso
H1JF H 0.2207 0.2838 0.2454 0.0450 Uiso
H2JF H 0.2348 0.3293 0.2101 0.0610 Uiso
C9JF C 0.17519(15) 0.27295(14) 0.2132(3) 0.0767 Uani
H13JF H 0.1624 0.2603 0.2011 0.0920 Uiso
H14JF H 0.1712 0.2687 0.2340 0.0920 Uiso
C11JF C 0.16828(18) 0.30569(16) 0.2068(4) 0.1143 Uani
H16JF H 0.1623 0.3155 0.2251 0.1370 Uiso
H17JF H 0.1518 0.3069 0.1928 0.1370 Uiso
Ag1J Ag 0.067828(9) 0.067828(9) 0.371291(13) 0.0230 Uani
N3J N 0.10457(9) 0.10457(9) 0.37241(13) 0.0173 Uani
N4J N 0.05576(11) 0.05576(11) 0.32120(14) 0.0303 Uani
C1J C 0.02554(14) 0.02554(14) 0.28730(17) 0.0373 Uani
H1J H 0.0293 0.0046 0.2838 0.0450 Uiso
N5J N 0.04354(10) 0.04354(10) 0.26651(13) 0.0240 Uani
C2J C 0.03304(16) 0.03304(16) 0.31918(19) 0.0513 Uani
H2J H 0.0152 0.0399 0.3293 0.0610 Uiso
C4J C 0.09428(13) 0.13225(13) 0.35685(17) 0.0370 Uani
H5J H 0.0890 0.1274 0.3365 0.0440 Uiso
H6J H 0.0766 0.1398 0.3667 0.0440 Uiso
C5J C 0.11325(12) 0.11325(12) 0.40243(18) 0.0313 Uani
H7J H 0.1206 0.0959 0.4130 0.0380 Uiso
C9J C 0.07481(15) 0.0368(3) 0.27295(14) 0.0767 Uani
H13J H 0.0876 0.0489 0.2603 0.0920 Uiso
H14J H 0.0788 0.0160 0.2687 0.0920 Uiso
C11J C 0.08172(18) 0.0432(4) 0.30569(16) 0.1143 Uani
H16J H 0.0877 0.0249 0.3155 0.1370 Uiso
H17J H 0.0982 0.0572 0.3069 0.1370 Uiso
N3O N 0.14543(9) 0.14543(9) 0.37241(13) 0.0173 Uani
C4O C 0.15572(13) 0.11775(13) 0.35685(17) 0.0370 Uani
H5O H 0.1610 0.1226 0.3365 0.0440 Uiso
H6O H 0.1734 0.1102 0.3667 0.0440 Uiso
C5O C 0.13675(12) 0.13675(12) 0.40243(18) 0.0313 Uani
H7O H 0.1294 0.1541 0.4130 0.0380 Uiso
C4MD C 0.13225(13) 0.09428(13) 0.35685(17) 0.0370 Uani
H5MD H 0.1274 0.0890 0.3365 0.0440 Uiso
H6MD H 0.1398 0.0766 0.3667 0.0440 Uiso
H7MD H 0.0959 0.1206 0.4130 0.0380 Uiso
C4RF C 0.11775(13) 0.15572(13) 0.35685(17) 0.0370 Uani
H5RF H 0.1226 0.1610 0.3365 0.0440 Uiso
H6RF H 0.1102 0.1734 0.3667 0.0440 Uiso
H7RF H 0.1541 0.1294 0.4130 0.0380 Uiso
H1MD H 0.0046 0.0293 0.2838 0.0450 Uiso
H2MD H 0.0399 0.0152 0.3293 0.0610 Uiso
C9MD C 0.0368(3) 0.07481(15) 0.27295(14) 0.0767 Uani
H13MD H 0.0489 0.0876 0.2603 0.0920 Uiso
H14MD H 0.0160 0.0788 0.2687 0.0920 Uiso
C11MD C 0.0432(4) 0.08172(18) 0.30569(16) 0.1143 Uani
H16MD H 0.0249 0.0877 0.3155 0.1370 Uiso
H17MD H 0.0572 0.0982 0.3069 0.1370 Uiso
Ag1K Ag 0.371291(13) 0.067828(9) 0.067828(9) 0.0230 Uani
N3K N 0.37241(13) 0.10457(9) 0.10457(9) 0.0173 Uani
N4K N 0.32120(14) 0.05576(11) 0.05576(11) 0.0303 Uani
C1K C 0.28730(17) 0.02554(14) 0.02554(14) 0.0373 Uani
H1K H 0.2838 0.0293 0.0046 0.0450 Uiso
N5K N 0.26651(13) 0.04354(10) 0.04354(10) 0.0240 Uani
C2K C 0.31918(19) 0.03304(16) 0.03304(16) 0.0513 Uani
H2K H 0.3293 0.0152 0.0399 0.0610 Uiso
C4K C 0.35685(17) 0.09428(13) 0.13225(13) 0.0370 Uani
H5K H 0.3365 0.0890 0.1274 0.0440 Uiso
H6K H 0.3667 0.0766 0.1398 0.0440 Uiso
C5K C 0.40243(18) 0.11325(12) 0.11325(12) 0.0313 Uani
H7K H 0.4130 0.1206 0.0959 0.0380 Uiso
C9K C 0.27295(14) 0.07481(15) 0.0368(3) 0.0767 Uani
H13K H 0.2603 0.0876 0.0489 0.0920 Uiso
H14K H 0.2687 0.0788 0.0160 0.0920 Uiso
C11K C 0.30569(16) 0.08172(18) 0.0432(4) 0.1143 Uani
H16K H 0.3155 0.0877 0.0249 0.1370 Uiso
H17K H 0.3069 0.0982 0.0572 0.1370 Uiso
N3Q N 0.37241(13) 0.14543(9) 0.14543(9) 0.0173 Uani
C4Q C 0.35685(17) 0.15572(13) 0.11775(13) 0.0370 Uani
H5Q H 0.3365 0.1610 0.1226 0.0440 Uiso
H6Q H 0.3667 0.1734 0.1102 0.0440 Uiso
C5Q C 0.40243(18) 0.13675(12) 0.13675(12) 0.0313 Uani
H7Q H 0.4130 0.1294 0.1541 0.0380 Uiso
C4KD C 0.35685(17) 0.13225(13) 0.09428(13) 0.0370 Uani
H5KD H 0.3365 0.1274 0.0890 0.0440 Uiso
H6KD H 0.3667 0.1398 0.0766 0.0440 Uiso
H7KD H 0.4130 0.0959 0.1206 0.0380 Uiso
C4QD C 0.35685(17) 0.11775(13) 0.15572(13) 0.0370 Uani
H5QD H 0.3365 0.1226 0.1610 0.0440 Uiso
H6QD H 0.3667 0.1102 0.1734 0.0440 Uiso
H7QD H 0.4130 0.1541 0.1294 0.0380 Uiso
H1KD H 0.2838 0.0046 0.0293 0.0450 Uiso
H2KD H 0.3293 0.0399 0.0152 0.0610 Uiso
C9KD C 0.27295(14) 0.0368(3) 0.07481(15) 0.0767 Uani
H13KD H 0.2603 0.0489 0.0876 0.0920 Uiso
H14KD H 0.2687 0.0160 0.0788 0.0920 Uiso
C11KD C 0.30569(16) 0.0432(4) 0.08172(18) 0.1143 Uani
H16KD H 0.3155 0.0249 0.0877 0.1370 Uiso
H17KD H 0.3069 0.0572 0.0982 0.1370 Uiso
Ag1L Ag -0.121291(13) 0.182172(9) 0.067828(9) 0.0230 Uani
N3L N -0.12241(13) 0.14543(9) 0.10457(9) 0.0173 Uani
N4L N -0.07120(14) 0.19424(11) 0.05576(11) 0.0303 Uani
C1L C -0.03730(17) 0.22446(14) 0.02554(14) 0.0373 Uani
H1L H -0.0338 0.2207 0.0046 0.0450 Uiso
N5L N -0.01651(13) 0.20646(10) 0.04354(10) 0.0240 Uani
C2L C -0.06918(19) 0.21696(16) 0.03304(16) 0.0513 Uani
H2L H -0.0793 0.2348 0.0399 0.0610 Uiso
C4L C -0.10685(17) 0.15572(13) 0.13225(13) 0.0370 Uani
H5L H -0.0865 0.1610 0.1274 0.0440 Uiso
H6L H -0.1167 0.1734 0.1398 0.0440 Uiso
C5L C -0.15243(18) 0.13675(12) 0.11325(12) 0.0313 Uani
H7L H -0.1630 0.1294 0.0959 0.0380 Uiso
C9L C -0.02295(14) 0.17519(15) 0.0368(3) 0.0767 Uani
H13L H -0.0103 0.1624 0.0489 0.0920 Uiso
H14L H -0.0187 0.1712 0.0160 0.0920 Uiso
C11L C -0.05569(16) 0.16828(18) 0.0432(4) 0.1143 Uani
H16L H -0.0655 0.1623 0.0249 0.1370 Uiso
H17L H -0.0569 0.1518 0.0572 0.1370 Uiso
N3N N -0.12241(13) 0.10457(9) 0.14543(9) 0.0173 Uani
C4N C -0.10685(17) 0.09428(13) 0.11775(13) 0.0370 Uani
H5N H -0.0865 0.0890 0.1226 0.0440 Uiso
H6N H -0.1167 0.0766 0.1102 0.0440 Uiso
C5N C -0.15243(18) 0.11325(12) 0.13675(12) 0.0313 Uani
H7N H -0.1630 0.1206 0.1541 0.0380 Uiso
C4DG C -0.10685(17) 0.11775(13) 0.09428(13) 0.0370 Uani
H5DG H -0.0865 0.1226 0.0890 0.0440 Uiso
H6DG H -0.1167 0.1102 0.0766 0.0440 Uiso
H7DG H -0.1630 0.1541 0.1206 0.0380 Uiso
C4QE C -0.10685(17) 0.13225(13) 0.15572(13) 0.0370 Uani
H5QE H -0.0865 0.1274 0.1610 0.0440 Uiso
H6QE H -0.1167 0.1398 0.1734 0.0440 Uiso
H7QE H -0.1630 0.0959 0.1294 0.0380 Uiso
H1DG H -0.0338 0.2454 0.0293 0.0450 Uiso
H2DG H -0.0793 0.2101 0.0152 0.0610 Uiso
C9DG C -0.02295(14) 0.2132(3) 0.07481(15) 0.0767 Uani
H13DG H -0.0103 0.2011 0.0876 0.0920 Uiso
H14DG H -0.0187 0.2340 0.0788 0.0920 Uiso
C11DG C -0.05569(16) 0.2068(4) 0.08172(18) 0.1143 Uani
H16DG H -0.0655 0.2251 0.0877 0.1370 Uiso
H17DG H -0.0569 0.1928 0.0982 0.1370 Uiso
Ag1M Ag 0.067828(9) 0.182172(9) -0.121291(13) 0.0230 Uani
N3M N 0.10457(9) 0.14543(9) -0.12241(13) 0.0173 Uani
N4M N 0.05576(11) 0.19424(11) -0.07120(14) 0.0303 Uani
C1M C 0.02554(14) 0.22446(14) -0.03730(17) 0.0373 Uani
H1M H 0.0293 0.2454 -0.0338 0.0450 Uiso
N5M N 0.04354(10) 0.20646(10) -0.01651(13) 0.0240 Uani
C2M C 0.03304(16) 0.21696(16) -0.06918(19) 0.0513 Uani
H2M H 0.0152 0.2101 -0.0793 0.0610 Uiso
C4M C 0.09428(13) 0.11775(13) -0.10685(17) 0.0370 Uani
H5M H 0.0890 0.1226 -0.0865 0.0440 Uiso
H6M H 0.0766 0.1102 -0.1167 0.0440 Uiso
C5M C 0.11325(12) 0.13675(12) -0.15243(18) 0.0313 Uani
H7M H 0.1206 0.1541 -0.1630 0.0380 Uiso
C9M C 0.07481(15) 0.2132(3) -0.02295(14) 0.0767 Uani
H13M H 0.0876 0.2011 -0.0103 0.0920 Uiso
H14M H 0.0788 0.2340 -0.0187 0.0920 Uiso
C11M C 0.08172(18) 0.2068(4) -0.05569(16) 0.1143 Uani
H16M H 0.0877 0.2251 -0.0655 0.1370 Uiso
H17M H 0.0982 0.1928 -0.0569 0.1370 Uiso
N3P N 0.14543(9) 0.10457(9) -0.12241(13) 0.0173 Uani
C4P C 0.15572(13) 0.13225(13) -0.10685(17) 0.0370 Uani
H5P H 0.1610 0.1274 -0.0865 0.0440 Uiso
H6P H 0.1734 0.1398 -0.1167 0.0440 Uiso
C5P C 0.13675(12) 0.11325(12) -0.15243(18) 0.0313 Uani
H7P H 0.1294 0.0959 -0.1630 0.0380 Uiso
C4JE C 0.13225(13) 0.15572(13) -0.10685(17) 0.0370 Uani
H5JE H 0.1274 0.1610 -0.0865 0.0440 Uiso
H6JE H 0.1398 0.1734 -0.1167 0.0440 Uiso
H7JE H 0.0959 0.1294 -0.1630 0.0380 Uiso
C4RE C 0.11775(13) 0.09428(13) -0.10685(17) 0.0370 Uani
H5RE H 0.1226 0.0890 -0.0865 0.0440 Uiso
H6RE H 0.1102 0.0766 -0.1167 0.0440 Uiso
H7RE H 0.1541 0.1206 -0.1630 0.0380 Uiso
H1JE H 0.0046 0.2207 -0.0338 0.0450 Uiso
H2JE H 0.0399 0.2348 -0.0793 0.0610 Uiso
C9JE C 0.0368(3) 0.17519(15) -0.02295(14) 0.0767 Uani
H13JE H 0.0489 0.1624 -0.0103 0.0920 Uiso
H14JE H 0.0160 0.1712 -0.0187 0.0920 Uiso
C11JE C 0.0432(4) 0.16828(18) -0.05569(16) 0.1143 Uani
H16JE H 0.0249 0.1623 -0.0655 0.1370 Uiso
H17JE H 0.0572 0.1518 -0.0569 0.1370 Uiso
Ag1N Ag -0.121291(13) 0.067828(9) 0.182172(9) 0.0230 Uani
N4N N -0.07120(14) 0.05576(11) 0.19424(11) 0.0303 Uani
C1N C -0.03730(17) 0.02554(14) 0.22446(14) 0.0373 Uani
H1N H -0.0338 0.0293 0.2454 0.0450 Uiso
N5N N -0.01651(13) 0.04354(10) 0.20646(10) 0.0240 Uani
C2N C -0.06918(19) 0.03304(16) 0.21696(16) 0.0513 Uani
H2N H -0.0793 0.0152 0.2101 0.0610 Uiso
C9N C -0.02295(14) 0.07481(15) 0.2132(3) 0.0767 Uani
H13N H -0.0103 0.0876 0.2011 0.0920 Uiso
H14N H -0.0187 0.0788 0.2340 0.0920 Uiso
C11N C -0.05569(16) 0.08172(18) 0.2068(4) 0.1143 Uani
H16N H -0.0655 0.0877 0.2251 0.1370 Uiso
H17N H -0.0569 0.0982 0.1928 0.1370 Uiso
H1QE H -0.0338 0.0046 0.2207 0.0450 Uiso
H2QE H -0.0793 0.0399 0.2348 0.0610 Uiso
C9QE C -0.02295(14) 0.0368(3) 0.17519(15) 0.0767 Uani
H13QE H -0.0103 0.0489 0.1624 0.0920 Uiso
H14QE H -0.0187 0.0160 0.1712 0.0920 Uiso
C11QE C -0.05569(16) 0.0432(4) 0.16828(18) 0.1143 Uani
H16QE H -0.0655 0.0249 0.1623 0.1370 Uiso
H17QE H -0.0569 0.0572 0.1518 0.1370 Uiso
Ag1O Ag 0.182172(9) 0.182172(9) 0.371291(13) 0.0230 Uani
N4O N 0.19424(11) 0.19424(11) 0.32120(14) 0.0303 Uani
C1O C 0.22446(14) 0.22446(14) 0.28730(17) 0.0373 Uani
H1O H 0.2207 0.2454 0.2838 0.0450 Uiso
N5O N 0.20646(10) 0.20646(10) 0.26651(13) 0.0240 Uani
C2O C 0.21696(16) 0.21696(16) 0.31918(19) 0.0513 Uani
H2O H 0.2348 0.2101 0.3293 0.0610 Uiso
C9O C 0.17519(15) 0.2132(3) 0.27295(14) 0.0767 Uani
H13O H 0.1624 0.2011 0.2603 0.0920 Uiso
H14O H 0.1712 0.2340 0.2687 0.0920 Uiso
C11O C 0.16828(18) 0.2068(4) 0.30569(16) 0.1143 Uani
H16O H 0.1623 0.2251 0.3155 0.1370 Uiso
H17O H 0.1518 0.1928 0.3069 0.1370 Uiso
H1RF H 0.2454 0.2207 0.2838 0.0450 Uiso
H2RF H 0.2101 0.2348 0.3293 0.0610 Uiso
C9RF C 0.2132(3) 0.17519(15) 0.27295(14) 0.0767 Uani
H13RF H 0.2011 0.1624 0.2603 0.0920 Uiso
H14RF H 0.2340 0.1712 0.2687 0.0920 Uiso
C11RF C 0.2068(4) 0.16828(18) 0.30569(16) 0.1143 Uani
H16RF H 0.2251 0.1623 0.3155 0.1370 Uiso
H17RF H 0.1928 0.1518 0.3069 0.1370 Uiso
Ag1P Ag 0.182172(9) 0.067828(9) -0.121291(13) 0.0230 Uani
N2P N 0.22608(10) 0.08433(10) -0.14317(11) 0.0257 Uani
N4P N 0.19424(11) 0.05576(11) -0.07120(14) 0.0303 Uani
C1P C 0.22446(14) 0.02554(14) -0.03730(17) 0.0373 Uani
H1P H 0.2207 0.0046 -0.0338 0.0450 Uiso
N5P N 0.20646(10) 0.04354(10) -0.01651(13) 0.0240 Uani
C2P C 0.21696(16) 0.03304(16) -0.06918(19) 0.0513 Uani
H2P H 0.2348 0.0399 -0.0793 0.0610 Uiso
C3P C 0.24979(15) 0.06222(18) -0.1431(2) 0.0587 Uani
H3P H 0.2441 0.0454 -0.1553 0.0710 Uiso
H4P H 0.2531 0.0551 -0.1229 0.0710 Uiso
C6P C 0.22140(14) 0.0947(2) -0.17401(18) 0.0623 Uani
H8P H 0.2063 0.1102 -0.1741 0.0740 Uiso
H9P H 0.2141 0.0783 -0.1860 0.0740 Uiso
C7P C 0.23594(16) 0.1108(2) -0.1269(2) 0.0700 Uani
H10P H 0.2388 0.1058 -0.1061 0.0840 Uiso
H11P H 0.2206 0.1260 -0.1280 0.0840 Uiso
C9P C 0.17519(15) 0.0368(3) -0.02295(14) 0.0767 Uani
H13P H 0.1624 0.0489 -0.0103 0.0920 Uiso
H14P H 0.1712 0.0160 -0.0187 0.0920 Uiso
C11P C 0.16828(18) 0.0432(4) -0.05569(16) 0.1143 Uani
H16P H 0.1623 0.0249 -0.0655 0.1370 Uiso
H17P H 0.1518 0.0572 -0.0569 0.1370 Uiso
N2TA N 0.27392(10) 0.10683(11) -0.16567(10) 0.0257 Uani
C3TA C 0.25021(15) 0.1069(2) -0.18778(18) 0.0587 Uani
H3TA H 0.2559 0.0947 -0.2046 0.0710 Uiso
H4TA H 0.2469 0.1271 -0.1949 0.0710 Uiso
C6TA C 0.27860(14) 0.07599(18) -0.1553(2) 0.0623 Uani
H8TA H 0.2937 0.0759 -0.1398 0.0740 Uiso
H9TA H 0.2859 0.0640 -0.1717 0.0740 Uiso
C7TA C 0.26406(16) 0.1231(2) -0.1392(2) 0.0700 Uani
H10TA H 0.2612 0.1439 -0.1442 0.0840 Uiso
H11TA H 0.2794 0.1220 -0.1240 0.0840 Uiso
H1RE H 0.2454 0.0293 -0.0338 0.0450 Uiso
H2RE H 0.2101 0.0152 -0.0793 0.0610 Uiso
C9RE C 0.2132(3) 0.07481(15) -0.02295(14) 0.0767 Uani
H13RE H 0.2011 0.0876 -0.0103 0.0920 Uiso
H14RE H 0.2340 0.0788 -0.0187 0.0920 Uiso
C11RE C 0.2068(4) 0.08172(18) -0.05569(16) 0.1143 Uani
H16RE H 0.2251 0.0877 -0.0655 0.1370 Uiso
H17RE H 0.1928 0.0982 -0.0569 0.1370 Uiso
Ag1Q Ag 0.371291(13) 0.182172(9) 0.182172(9) 0.0230 Uani
N2Q N 0.39317(11) 0.22608(10) 0.16567(10) 0.0257 Uani
N4Q N 0.32120(14) 0.19424(11) 0.19424(11) 0.0303 Uani
C1Q C 0.28730(17) 0.22446(14) 0.22446(14) 0.0373 Uani
H1Q H 0.2838 0.2207 0.2454 0.0450 Uiso
N5Q N 0.26651(13) 0.20646(10) 0.20646(10) 0.0240 Uani
C2Q C 0.31918(19) 0.21696(16) 0.21696(16) 0.0513 Uani
H2Q H 0.3293 0.2348 0.2101 0.0610 Uiso
C3Q C 0.3931(2) 0.24979(15) 0.18778(18) 0.0587 Uani
H3Q H 0.4053 0.2441 0.2046 0.0710 Uiso
H4Q H 0.3729 0.2531 0.1949 0.0710 Uiso
C6Q C 0.42401(18) 0.22140(14) 0.1553(2) 0.0623 Uani
H8Q H 0.4241 0.2063 0.1398 0.0740 Uiso
H9Q H 0.4360 0.2141 0.1717 0.0740 Uiso
C7Q C 0.3769(2) 0.23594(16) 0.1392(2) 0.0700 Uani
H10Q H 0.3561 0.2388 0.1442 0.0840 Uiso
H11Q H 0.3780 0.2206 0.1240 0.0840 Uiso
C9Q C 0.27295(14) 0.17519(15) 0.2132(3) 0.0767 Uani
H13Q H 0.2603 0.1624 0.2011 0.0920 Uiso
H14Q H 0.2687 0.1712 0.2340 0.0920 Uiso
C11Q C 0.30569(16) 0.16828(18) 0.2068(4) 0.1143 Uani
H16Q H 0.3155 0.1623 0.2251 0.1370 Uiso
H17Q H 0.3069 0.1518 0.1928 0.1370 Uiso
N2PB N 0.41567(10) 0.27392(10) 0.14317(11) 0.0257 Uani
C3PB C 0.43778(18) 0.25021(15) 0.1431(2) 0.0587 Uani
H3PB H 0.4546 0.2559 0.1553 0.0710 Uiso
H4PB H 0.4449 0.2469 0.1229 0.0710 Uiso
C6PB C 0.4053(2) 0.27860(14) 0.17401(18) 0.0623 Uani
H8PB H 0.3898 0.2937 0.1741 0.0740 Uiso
H9PB H 0.4217 0.2859 0.1860 0.0740 Uiso
C7PB C 0.3892(2) 0.26406(16) 0.1269(2) 0.0700 Uani
H10PB H 0.3942 0.2612 0.1061 0.0840 Uiso
H11PB H 0.3740 0.2794 0.1280 0.0840 Uiso
H1QD H 0.2838 0.2454 0.2207 0.0450 Uiso
H2QD H 0.3293 0.2101 0.2348 0.0610 Uiso
C9QD C 0.27295(14) 0.2132(3) 0.17519(15) 0.0767 Uani
H13QD H 0.2603 0.2011 0.1624 0.0920 Uiso
H14QD H 0.2687 0.2340 0.1712 0.0920 Uiso
C11QD C 0.30569(16) 0.2068(4) 0.16828(18) 0.1143 Uani
H16QD H 0.3155 0.2251 0.1623 0.1370 Uiso
H17QD H 0.3069 0.1928 0.1518 0.1370 Uiso
N2KD N 0.39317(11) 0.08433(10) 0.02392(10) 0.0257 Uani
C3KD C 0.3931(2) 0.06222(18) 0.00021(15) 0.0587 Uani
H3KD H 0.4053 0.0454 0.0059 0.0710 Uiso
H4KD H 0.3729 0.0551 -0.0031 0.0710 Uiso
C6KD C 0.42401(18) 0.0947(2) 0.02860(14) 0.0623 Uani
H8KD H 0.4241 0.1102 0.0437 0.0740 Uiso
H9KD H 0.4360 0.0783 0.0359 0.0740 Uiso
C7KD C 0.3769(2) 0.1108(2) 0.01406(16) 0.0700 Uani
H10KD H 0.3561 0.1058 0.0112 0.0840 Uiso
H11KD H 0.3780 0.1260 0.0294 0.0840 Uiso
N2LF N 0.41567(10) 0.10683(11) -0.02392(10) 0.0257 Uani
C3LF C 0.43778(18) 0.1069(2) -0.00021(15) 0.0587 Uani
H3LF H 0.4546 0.0947 -0.0059 0.0710 Uiso
H4LF H 0.4449 0.1271 0.0031 0.0710 Uiso
C6LF C 0.4053(2) 0.07599(18) -0.02860(14) 0.0623 Uani
H8LF H 0.3898 0.0759 -0.0437 0.0740 Uiso
H9LF H 0.4217 0.0640 -0.0359 0.0740 Uiso
C7LF C 0.3892(2) 0.1231(2) -0.01406(16) 0.0700 Uani
H10LF H 0.3942 0.1439 -0.0112 0.0840 Uiso
H11LF H 0.3740 0.1220 -0.0294 0.0840 Uiso
N2MD N 0.08433(10) 0.02392(10) 0.39317(11) 0.0257 Uani
C3MD C 0.06222(18) 0.00021(15) 0.3931(2) 0.0587 Uani
H3MD H 0.0454 0.0059 0.4053 0.0710 Uiso
H4MD H 0.0551 -0.0031 0.3729 0.0710 Uiso
C6MD C 0.0947(2) 0.02860(14) 0.42401(18) 0.0623 Uani
H8MD H 0.1102 0.0437 0.4241 0.0740 Uiso
H9MD H 0.0783 0.0359 0.4360 0.0740 Uiso
C7MD C 0.1108(2) 0.01406(16) 0.3769(2) 0.0700 Uani
H10MD H 0.1058 0.0112 0.3561 0.0840 Uiso
H11MD H 0.1260 0.0294 0.3780 0.0840 Uiso
N2YE N 0.10683(11) -0.02392(10) 0.41567(10) 0.0257 Uani
C3YE C 0.1069(2) -0.00021(15) 0.43778(18) 0.0587 Uani
H3YE H 0.0947 -0.0059 0.4546 0.0710 Uiso
H4YE H 0.1271 0.0031 0.4449 0.0710 Uiso
C6YE C 0.07599(18) -0.02860(14) 0.4053(2) 0.0623 Uani
H8YE H 0.0759 -0.0437 0.3898 0.0740 Uiso
H9YE H 0.0640 -0.0359 0.4217 0.0740 Uiso
C7YE C 0.1231(2) -0.01406(16) 0.3892(2) 0.0700 Uani
H10YE H 0.1439 -0.0112 0.3942 0.0840 Uiso
H11YE H 0.1220 -0.0294 0.3740 0.0840 Uiso
N2OD N 0.02392(10) 0.39317(11) 0.08433(10) 0.0257 Uani
C3OD C 0.00021(15) 0.3931(2) 0.06222(18) 0.0587 Uani
H3OD H 0.0059 0.4053 0.0454 0.0710 Uiso
H4OD H -0.0031 0.3729 0.0551 0.0710 Uiso
C6OD C 0.02860(14) 0.42401(18) 0.0947(2) 0.0623 Uani
H8OD H 0.0437 0.4241 0.1102 0.0740 Uiso
H9OD H 0.0359 0.4360 0.0783 0.0740 Uiso
C7OD C 0.01406(16) 0.3769(2) 0.1108(2) 0.0700 Uani
H10OD H 0.0112 0.3561 0.1058 0.0840 Uiso
H11OD H 0.0294 0.3780 0.1260 0.0840 Uiso
N2ZD N -0.02392(10) 0.41567(10) 0.10683(11) 0.0257 Uani
C3ZD C -0.00021(15) 0.43778(18) 0.1069(2) 0.0587 Uani
H3ZD H -0.0059 0.4546 0.0947 0.0710 Uiso
H4ZD H 0.0031 0.4449 0.1271 0.0710 Uiso
C6ZD C -0.02860(14) 0.4053(2) 0.07599(18) 0.0623 Uani
H8ZD H -0.0437 0.3898 0.0759 0.0740 Uiso
H9ZD H -0.0359 0.4217 0.0640 0.0740 Uiso
C7ZD C -0.01406(16) 0.3892(2) 0.1231(2) 0.0700 Uani
H10ZD H -0.0112 0.3942 0.1439 0.0840 Uiso
H11ZD H -0.0294 0.3740 0.1220 0.0840 Uiso
N2YD N 0.02392(10) -0.14317(11) 0.16567(10) 0.0257 Uani
C3YD C 0.00021(15) -0.1431(2) 0.18778(18) 0.0587 Uani
H3YD H 0.0059 -0.1553 0.2046 0.0710 Uiso
H4YD H -0.0031 -0.1229 0.1949 0.0710 Uiso
C6YD C 0.02860(14) -0.17401(18) 0.1553(2) 0.0623 Uani
H8YD H 0.0437 -0.1741 0.1398 0.0740 Uiso
H9YD H 0.0359 -0.1860 0.1717 0.0740 Uiso
C7YD C 0.01406(16) -0.1269(2) 0.1392(2) 0.0700 Uani
H10YD H 0.0112 -0.1061 0.1442 0.0840 Uiso
H11YD H 0.0294 -0.1280 0.1240 0.0840 Uiso
N2ED N -0.02392(10) -0.16567(10) 0.14317(11) 0.0257 Uani
C3ED C -0.00021(15) -0.18778(18) 0.1431(2) 0.0587 Uani
H3ED H -0.0059 -0.2046 0.1553 0.0710 Uiso
H4ED H 0.0031 -0.1949 0.1229 0.0710 Uiso
C6ED C -0.02860(14) -0.1553(2) 0.17401(18) 0.0623 Uani
H8ED H -0.0437 -0.1398 0.1741 0.0740 Uiso
H9ED H -0.0359 -0.1717 0.1860 0.0740 Uiso
C7ED C -0.01406(16) -0.1392(2) 0.1269(2) 0.0700 Uani
H10ED H -0.0112 -0.1442 0.1061 0.0840 Uiso
H11ED H -0.0294 -0.1240 0.1280 0.0840 Uiso
N2JE N 0.08433(10) 0.22608(10) -0.14317(11) 0.0257 Uani
C3JE C 0.06222(18) 0.24979(15) -0.1431(2) 0.0587 Uani
H3JE H 0.0454 0.2441 -0.1553 0.0710 Uiso
H4JE H 0.0551 0.2531 -0.1229 0.0710 Uiso
C6JE C 0.0947(2) 0.22140(14) -0.17401(18) 0.0623 Uani
H8JE H 0.1102 0.2063 -0.1741 0.0740 Uiso
H9JE H 0.0783 0.2141 -0.1860 0.0740 Uiso
C7JE C 0.1108(2) 0.23594(16) -0.1269(2) 0.0700 Uani
H10JE H 0.1058 0.2388 -0.1061 0.0840 Uiso
H11JE H 0.1260 0.2206 -0.1280 0.0840 Uiso
N2CG N 0.10683(11) 0.27392(10) -0.16567(10) 0.0257 Uani
C3CG C 0.1069(2) 0.25021(15) -0.18778(18) 0.0587 Uani
H3CG H 0.0947 0.2559 -0.2046 0.0710 Uiso
H4CG H 0.1271 0.2469 -0.1949 0.0710 Uiso
C6CG C 0.07599(18) 0.27860(14) -0.1553(2) 0.0623 Uani
H8CG H 0.0759 0.2937 -0.1398 0.0740 Uiso
H9CG H 0.0640 0.2859 -0.1717 0.0740 Uiso
C7CG C 0.1231(2) 0.26406(16) -0.1392(2) 0.0700 Uani
H10CG H 0.1439 0.2612 -0.1442 0.0840 Uiso
H11CG H 0.1220 0.2794 -0.1240 0.0840 Uiso
N2RE N 0.16567(10) 0.02392(10) -0.14317(11) 0.0257 Uani
C3RE C 0.18778(18) 0.00021(15) -0.1431(2) 0.0587 Uani
H3RE H 0.2046 0.0059 -0.1553 0.0710 Uiso
H4RE H 0.1949 -0.0031 -0.1229 0.0710 Uiso
C6RE C 0.1553(2) 0.02860(14) -0.17401(18) 0.0623 Uani
H8RE H 0.1398 0.0437 -0.1741 0.0740 Uiso
H9RE H 0.1717 0.0359 -0.1860 0.0740 Uiso
C7RE C 0.1392(2) 0.01406(16) -0.1269(2) 0.0700 Uani
H10RE H 0.1442 0.0112 -0.1061 0.0840 Uiso
H11RE H 0.1240 0.0294 -0.1280 0.0840 Uiso
N2FD N 0.14317(11) -0.02392(10) -0.16567(10) 0.0257 Uani
C3FD C 0.1431(2) -0.00021(15) -0.18778(18) 0.0587 Uani
H3FD H 0.1553 -0.0059 -0.2046 0.0710 Uiso
H4FD H 0.1229 0.0031 -0.1949 0.0710 Uiso
C6FD C 0.17401(18) -0.02860(14) -0.1553(2) 0.0623 Uani
H8FD H 0.1741 -0.0437 -0.1398 0.0740 Uiso
H9FD H 0.1860 -0.0359 -0.1717 0.0740 Uiso
C7FD C 0.1269(2) -0.01406(16) -0.1392(2) 0.0700 Uani
H10FD H 0.1061 -0.0112 -0.1442 0.0840 Uiso
H11FD H 0.1280 -0.0294 -0.1240 0.0840 Uiso
N2JF N 0.22608(10) 0.39317(11) 0.16567(10) 0.0257 Uani
C3JF C 0.24979(15) 0.3931(2) 0.18778(18) 0.0587 Uani
H3JF H 0.2441 0.4053 0.2046 0.0710 Uiso
H4JF H 0.2531 0.3729 0.1949 0.0710 Uiso
C6JF C 0.22140(14) 0.42401(18) 0.1553(2) 0.0623 Uani
H8JF H 0.2063 0.4241 0.1398 0.0740 Uiso
H9JF H 0.2141 0.4360 0.1717 0.0740 Uiso
C7JF C 0.23594(16) 0.3769(2) 0.1392(2) 0.0700 Uani
H10JF H 0.2388 0.3561 0.1442 0.0840 Uiso
H11JF H 0.2206 0.3780 0.1240 0.0840 Uiso
N2BG N 0.27392(10) 0.41567(10) 0.14317(11) 0.0257 Uani
C3BG C 0.25021(15) 0.43778(18) 0.1431(2) 0.0587 Uani
H3BG H 0.2559 0.4546 0.1553 0.0710 Uiso
H4BG H 0.2469 0.4449 0.1229 0.0710 Uiso
C6BG C 0.27860(14) 0.4053(2) 0.17401(18) 0.0623 Uani
H8BG H 0.2937 0.3898 0.1741 0.0740 Uiso
H9BG H 0.2859 0.4217 0.1860 0.0740 Uiso
C7BG C 0.26406(16) 0.3892(2) 0.1269(2) 0.0700 Uani
H10BG H 0.2612 0.3942 0.1061 0.0840 Uiso
H11BG H 0.2794 0.3740 0.1280 0.0840 Uiso
N2RF N 0.16567(10) 0.22608(10) 0.39317(11) 0.0257 Uani
C3RF C 0.18778(18) 0.24979(15) 0.3931(2) 0.0587 Uani
H3RF H 0.2046 0.2441 0.4053 0.0710 Uiso
H4RF H 0.1949 0.2531 0.3729 0.0710 Uiso
C6RF C 0.1553(2) 0.22140(14) 0.42401(18) 0.0623 Uani
H8RF H 0.1398 0.2063 0.4241 0.0740 Uiso
H9RF H 0.1717 0.2141 0.4360 0.0740 Uiso
C7RF C 0.1392(2) 0.23594(16) 0.3769(2) 0.0700 Uani
H10RF H 0.1442 0.2388 0.3561 0.0840 Uiso
H11RF H 0.1240 0.2206 0.3780 0.0840 Uiso
N2BE N 0.14317(11) 0.27392(10) 0.41567(10) 0.0257 Uani
C3BE C 0.1431(2) 0.25021(15) 0.43778(18) 0.0587 Uani
H3BE H 0.1553 0.2559 0.4546 0.0710 Uiso
H4BE H 0.1229 0.2469 0.4449 0.0710 Uiso
C6BE C 0.17401(18) 0.27860(14) 0.4053(2) 0.0623 Uani
H8BE H 0.1741 0.2937 0.3898 0.0740 Uiso
H9BE H 0.1860 0.2859 0.4217 0.0740 Uiso
C7BE C 0.1269(2) 0.26406(16) 0.3892(2) 0.0700 Uani
H10BE H 0.1061 0.2612 0.3942 0.0840 Uiso
H11BE H 0.1280 0.2794 0.3740 0.0840 Uiso
N2SF N 0.22608(10) -0.14317(11) 0.08433(10) 0.0257 Uani
C3SF C 0.24979(15) -0.1431(2) 0.06222(18) 0.0587 Uani
H3SF H 0.2441 -0.1553 0.0454 0.0710 Uiso
H4SF H 0.2531 -0.1229 0.0551 0.0710 Uiso
C6SF C 0.22140(14) -0.17401(18) 0.0947(2) 0.0623 Uani
H8SF H 0.2063 -0.1741 0.1102 0.0740 Uiso
H9SF H 0.2141 -0.1860 0.0783 0.0740 Uiso
C7SF C 0.23594(16) -0.1269(2) 0.1108(2) 0.0700 Uani
H10SF H 0.2388 -0.1061 0.1058 0.0840 Uiso
H11SF H 0.2206 -0.1280 0.1260 0.0840 Uiso
N2CF N 0.27392(10) -0.16567(10) 0.10683(11) 0.0257 Uani
C3CF C 0.25021(15) -0.18778(18) 0.1069(2) 0.0587 Uani
H3CF H 0.2559 -0.2046 0.0947 0.0710 Uiso
H4CF H 0.2469 -0.1949 0.1271 0.0710 Uiso
C6CF C 0.27860(14) -0.1553(2) 0.07599(18) 0.0623 Uani
H8CF H 0.2937 -0.1398 0.0759 0.0740 Uiso
H9CF H 0.2859 -0.1717 0.0640 0.0740 Uiso
C7CF C 0.26406(16) -0.1392(2) 0.1231(2) 0.0700 Uani
H10CF H 0.2612 -0.1442 0.1439 0.0840 Uiso
H11CF H 0.2794 -0.1240 0.1220 0.0840 Uiso
Ag1BA Ag 0.317828(9) 0.432172(9) 0.121291(13) 0.0230 Uani
Ag1DA Ag 0.317828(9) -0.182172(9) 0.128709(13) 0.0230 Uani
Ag1RA Ag -0.067828(9) -0.182172(9) 0.121291(13) 0.0230 Uani
Ag1SA Ag -0.067828(9) 0.432172(9) 0.128709(13) 0.0230 Uani
Ag1TA Ag 0.317828(9) 0.128709(13) -0.182172(9) 0.0230 Uani
Ag1WA Ag 0.128709(13) 0.317828(9) -0.182172(9) 0.0230 Uani
Ag1YA Ag 0.121291(13) -0.067828(9) -0.182172(9) 0.0230 Uani
Ag1NB Ag 0.121291(13) 0.317828(9) 0.432172(9) 0.0230 Uani
Ag1OB Ag 0.128709(13) -0.067828(9) 0.432172(9) 0.0230 Uani
Ag1PB Ag 0.432172(9) 0.317828(9) 0.121291(13) 0.0230 Uani
Ag1MC Ag 0.128709(13) 0.432172(9) -0.067828(9) 0.0230 Uani
Ag1QC Ag 0.432172(9) 0.128709(13) -0.067828(9) 0.0230 Uani
N2B N 0.16567(10) -0.14317(11) 0.02392(10) 0.0257 Uani
N2E N 0.08433(10) -0.14317(11) 0.22608(10) 0.0257 Uani
N2H N 0.16567(10) 0.39317(11) 0.22608(10) 0.0257 Uani
N2J N 0.02392(10) 0.08433(10) 0.39317(11) 0.0257 Uani
N2K N 0.39317(11) 0.02392(10) 0.08433(10) 0.0257 Uani
N2L N -0.14317(11) 0.22608(10) 0.08433(10) 0.0257 Uani
N2M N 0.02392(10) 0.16567(10) -0.14317(11) 0.0257 Uani
N2N N -0.14317(11) 0.02392(10) 0.16567(10) 0.0257 Uani
N2O N 0.22608(10) 0.16567(10) 0.39317(11) 0.0257 Uani
N2QD N 0.39317(11) 0.16567(10) 0.22608(10) 0.0257 Uani
N2QE N -0.14317(11) 0.08433(10) 0.22608(10) 0.0257 Uani
N2DG N -0.14317(11) 0.16567(10) 0.02392(10) 0.0257 Uani
loop_
_atom_site_aniso_label
_atom_site_aniso_U_11
_atom_site_aniso_U_22
_atom_site_aniso_U_33
_atom_site_aniso_U_23
_atom_site_aniso_U_13
_atom_site_aniso_U_12
Ag1 0.0236(2) 0.0217(3) 0.0236(2) -0.00080(16) 0.0008(2) -0.00080(16)
N1 0.025(2) 0.025(2) 0.025(2) 0.004(3) -0.004(3) 0.004(3)
N2 0.027(2) 0.031(3) 0.019(2) 0.0079(19) 0.0029(19) -0.001(2)
N3 0.0140(17) 0.024(3) 0.0140(17) 0.0009(17) -0.001(2) 0.0009(17)
N4 0.037(2) 0.017(3) 0.037(2) -0.0028(19) -0.010(3) -0.0028(19)
C1 0.049(4) 0.014(4) 0.049(4) -0.002(2) -0.017(5) -0.002(2)
N5 0.031(2) 0.010(3) 0.031(2) -0.0074(18) -0.007(3) -0.0074(18)
C2 0.071(5) 0.012(4) 0.071(5) 0.001(3) -0.031(6) 0.001(3)
Ag2 0.0206(4) 0.0206(4) 0.0206(4) 0.000 0.000 0.000
N6 0.034(3) 0.034(3) 0.034(3) 0.013(3) -0.013(3) 0.013(3)
C3 0.057(5) 0.093(7) 0.026(3) 0.019(4) -0.005(3) -0.049(5)
C4 0.027(3) 0.058(4) 0.026(3) -0.015(3) 0.000(3) 0.007(3)
C5 0.034(3) 0.026(4) 0.034(3) 0.002(2) -0.014(4) 0.002(2)
C6 0.109(7) 0.057(5) 0.021(3) -0.016(3) 0.035(4) -0.045(5)
C7 0.097(7) 0.075(6) 0.038(4) 0.036(4) 0.047(4) 0.055(5)
C8 0.027(5) 0.102(8) 0.102(8) 0.087(9) -0.007(3) 0.007(3)
C9 0.187(11) 0.015(3) 0.028(4) 0.007(3) -0.015(5) -0.034(5)
C10 0.031(6) 0.101(8) 0.101(8) 0.081(9) -0.001(3) 0.001(3)
C11 0.297(17) 0.016(4) 0.030(4) -0.002(3) -0.009(7) -0.039(6)
Ag3 0.0210(3) 0.0210(3) 0.0210(3) -0.0014(2) 0.0014(2) -0.0014(2)
C8L 0.102 0.102 0.027 0.007 -0.007 0.087
C10L 0.101 0.101 0.031 0.001 -0.001 0.081
C8M 0.102 0.027 0.102 0.007 -0.087 0.007
C10M 0.101 0.031 0.101 0.001 -0.081 0.001
N2MC 0.031 0.027 0.019 0.0029 0.0079 -0.001
C3MC 0.093 0.057 0.026 -0.005 0.019 -0.049
C6MC 0.057 0.109 0.021 0.035 -0.016 -0.045
C7MC 0.075 0.097 0.038 0.047 0.036 0.055
N3H 0.014 0.024 0.014 -0.0009 -0.001 -0.0009
C4H 0.027 0.058 0.026 0.015 0 -0.007
C5H 0.034 0.026 0.034 -0.002 -0.014 -0.002
C4OD 0.026 0.058 0.027 0.007 0 -0.015
C4JF 0.026 0.058 0.027 -0.007 0 0.015
C9OD 0.028 0.015 0.187 -0.034 -0.015 0.007
C11OD 0.03 0.016 0.297 -0.039 -0.009 -0.002
Ag1B 0.0236 0.0217 0.0236 0.0008 -0.0008 -0.0008
N1B 0.025 0.025 0.025 -0.004 0.004 0.004
N3B 0.014 0.024 0.014 -0.0009 0.001 0.0009
N4B 0.037 0.017 0.037 0.0028 0.01 -0.0028
C1B 0.049 0.014 0.049 0.002 0.017 -0.002
N5B 0.031 0.01 0.031 0.0074 0.007 -0.0074
C2B 0.071 0.012 0.071 -0.001 0.031 0.001
N6B 0.034 0.034 0.034 -0.013 0.013 0.013
C4B 0.027 0.058 0.026 0.015 0 0.007
C5B 0.034 0.026 0.034 -0.002 0.014 0.002
C8B 0.027 0.102 0.102 -0.087 0.007 0.007
C9B 0.187 0.015 0.028 -0.007 0.015 -0.034
C10B 0.031 0.101 0.101 -0.081 0.001 0.001
C11B 0.297 0.016 0.03 0.002 0.009 -0.039
Ag3B 0.021 0.021 0.021 0.0014 -0.0014 -0.0014
C8K 0.102 0.102 0.027 -0.007 0.007 0.087
C10K 0.101 0.101 0.031 -0.001 0.001 0.081
C8P 0.102 0.027 0.102 -0.007 0.087 0.007
C10P 0.101 0.031 0.101 -0.001 0.081 0.001
N3E 0.014 0.024 0.014 0.0009 0.001 -0.0009
C4E 0.027 0.058 0.026 -0.015 0 -0.007
C5E 0.034 0.026 0.034 0.002 0.014 -0.002
C4SF 0.026 0.058 0.027 -0.007 0 -0.015
C4YD 0.026 0.058 0.027 0.007 0 0.015
C9SF 0.028 0.015 0.187 0.034 0.015 0.007
C11SF 0.03 0.016 0.297 0.039 0.009 -0.002
Ag1E 0.0236 0.0217 0.0236 -0.0008 -0.0008 0.0008
N1E 0.025 0.025 0.025 0.004 0.004 -0.004
N4E 0.037 0.017 0.037 -0.0028 0.01 0.0028
C1E 0.049 0.014 0.049 -0.002 0.017 0.002
N5E 0.031 0.01 0.031 -0.0074 0.007 0.0074
C2E 0.071 0.012 0.071 0.001 0.031 -0.001
N6E 0.034 0.034 0.034 0.013 0.013 -0.013
C8E 0.027 0.102 0.102 0.087 0.007 -0.007
C9E 0.187 0.015 0.028 0.007 0.015 0.034
C10E 0.031 0.101 0.101 0.081 0.001 -0.001
C11E 0.297 0.016 0.03 -0.002 0.009 0.039
Ag3E 0.021 0.021 0.021 -0.0014 -0.0014 0.0014
C8N 0.102 0.102 0.027 0.007 0.007 -0.087
C10N 0.101 0.101 0.031 0.001 0.001 -0.081
C8J 0.102 0.027 0.102 0.007 0.087 -0.007
C10J 0.101 0.031 0.101 0.001 0.081 -0.001
C9YD 0.028 0.015 0.187 -0.034 0.015 -0.007
C11YD 0.03 0.016 0.297 -0.039 0.009 0.002
Ag1H 0.0236 0.0217 0.0236 0.0008 0.0008 0.0008
N1H 0.025 0.025 0.025 -0.004 -0.004 -0.004
N4H 0.037 0.017 0.037 0.0028 -0.01 0.0028
C1H 0.049 0.014 0.049 0.002 -0.017 0.002
N5H 0.031 0.01 0.031 0.0074 -0.007 0.0074
C2H 0.071 0.012 0.071 -0.001 -0.031 -0.001
N6H 0.034 0.034 0.034 -0.013 -0.013 -0.013
C8H 0.027 0.102 0.102 -0.087 -0.007 -0.007
C9H 0.187 0.015 0.028 -0.007 -0.015 0.034
C10H 0.031 0.101 0.101 -0.081 -0.001 -0.001
C11H 0.297 0.016 0.03 0.002 -0.009 0.039
Ag3H 0.021 0.021 0.021 0.0014 0.0014 0.0014
C8Q 0.102 0.102 0.027 -0.007 -0.007 -0.087
C10Q 0.101 0.101 0.031 -0.001 -0.001 -0.081
C8O 0.102 0.027 0.102 -0.007 -0.087 -0.007
C10O 0.101 0.031 0.101 -0.001 -0.081 -0.001
C9JF 0.028 0.015 0.187 0.034 -0.015 -0.007
C11JF 0.03 0.016 0.297 0.039 -0.009 0.002
Ag1J 0.0236 0.0236 0.0217 -0.0008 -0.0008 0.0008
N3J 0.014 0.014 0.024 0.0009 0.0009 -0.001
N4J 0.037 0.037 0.017 -0.0028 -0.0028 -0.01
C1J 0.049 0.049 0.014 -0.002 -0.002 -0.017
N5J 0.031 0.031 0.01 -0.0074 -0.0074 -0.007
C2J 0.071 0.071 0.012 0.001 0.001 -0.031
C4J 0.026 0.027 0.058 0.007 -0.015 0
C5J 0.034 0.034 0.026 0.002 0.002 -0.014
C9J 0.028 0.187 0.015 -0.034 0.007 -0.015
C11J 0.03 0.297 0.016 -0.039 -0.002 -0.009
N3O 0.014 0.014 0.024 -0.0009 -0.0009 -0.001
C4O 0.026 0.027 0.058 -0.007 0.015 0
C5O 0.034 0.034 0.026 -0.002 -0.002 -0.014
C4MD 0.027 0.026 0.058 -0.015 0.007 0
C4RF 0.027 0.026 0.058 0.015 -0.007 0
C9MD 0.187 0.028 0.015 0.007 -0.034 -0.015
C11MD 0.297 0.03 0.016 -0.002 -0.039 -0.009
Ag1K 0.0217 0.0236 0.0236 0.0008 -0.0008 -0.0008
N3K 0.024 0.014 0.014 -0.001 0.0009 0.0009
N4K 0.017 0.037 0.037 -0.01 -0.0028 -0.0028
C1K 0.014 0.049 0.049 -0.017 -0.002 -0.002
N5K 0.01 0.031 0.031 -0.007 -0.0074 -0.0074
C2K 0.012 0.071 0.071 -0.031 0.001 0.001
C4K 0.058 0.026 0.027 0 0.007 -0.015
C5K 0.026 0.034 0.034 -0.014 0.002 0.002
C9K 0.015 0.028 0.187 -0.015 -0.034 0.007
C11K 0.016 0.03 0.297 -0.009 -0.039 -0.002
N3Q 0.024 0.014 0.014 -0.001 -0.0009 -0.0009
C4Q 0.058 0.026 0.027 0 -0.007 0.015
C5Q 0.026 0.034 0.034 -0.014 -0.002 -0.002
C4KD 0.058 0.027 0.026 0 -0.015 0.007
C4QD 0.058 0.027 0.026 0 0.015 -0.007
C9KD 0.015 0.187 0.028 -0.015 0.007 -0.034
C11KD 0.016 0.297 0.03 -0.009 -0.002 -0.039
Ag1L 0.0217 0.0236 0.0236 -0.0008 0.0008 -0.0008
N3L 0.024 0.014 0.014 0.001 -0.0009 0.0009
N4L 0.017 0.037 0.037 0.01 0.0028 -0.0028
C1L 0.014 0.049 0.049 0.017 0.002 -0.002
N5L 0.01 0.031 0.031 0.007 0.0074 -0.0074
C2L 0.012 0.071 0.071 0.031 -0.001 0.001
C4L 0.058 0.026 0.027 0 -0.007 -0.015
C5L 0.026 0.034 0.034 0.014 -0.002 0.002
C9L 0.015 0.028 0.187 0.015 0.034 0.007
C11L 0.016 0.03 0.297 0.009 0.039 -0.002
N3N 0.024 0.014 0.014 0.001 0.0009 -0.0009
C4N 0.058 0.026 0.027 0 0.007 0.015
C5N 0.026 0.034 0.034 0.014 0.002 -0.002
C4DG 0.058 0.027 0.026 0 0.015 0.007
C4QE 0.058 0.027 0.026 0 -0.015 -0.007
C9DG 0.015 0.187 0.028 0.015 -0.007 -0.034
C11DG 0.016 0.297 0.03 0.009 0.002 -0.039
Ag1M 0.0236 0.0236 0.0217 -0.0008 0.0008 -0.0008
N3M 0.014 0.014 0.024 0.0009 -0.0009 0.001
N4M 0.037 0.037 0.017 -0.0028 0.0028 0.01
C1M 0.049 0.049 0.014 -0.002 0.002 0.017
N5M 0.031 0.031 0.01 -0.0074 0.0074 0.007
C2M 0.071 0.071 0.012 0.001 -0.001 0.031
C4M 0.026 0.027 0.058 0.007 0.015 0
C5M 0.034 0.034 0.026 0.002 -0.002 0.014
C9M 0.028 0.187 0.015 -0.034 -0.007 0.015
C11M 0.03 0.297 0.016 -0.039 0.002 0.009
N3P 0.014 0.014 0.024 -0.0009 0.0009 0.001
C4P 0.026 0.027 0.058 -0.007 -0.015 0
C5P 0.034 0.034 0.026 -0.002 0.002 0.014
C4JE 0.027 0.026 0.058 -0.015 -0.007 0
C4RE 0.027 0.026 0.058 0.015 0.007 0
C9JE 0.187 0.028 0.015 0.007 0.034 0.015
C11JE 0.297 0.03 0.016 -0.002 0.039 0.009
Ag1N 0.0217 0.0236 0.0236 -0.0008 -0.0008 0.0008
N4N 0.017 0.037 0.037 0.01 -0.0028 0.0028
C1N 0.014 0.049 0.049 0.017 -0.002 0.002
N5N 0.01 0.031 0.031 0.007 -0.0074 0.0074
C2N 0.012 0.071 0.071 0.031 0.001 -0.001
C9N 0.015 0.028 0.187 0.015 -0.034 -0.007
C11N 0.016 0.03 0.297 0.009 -0.039 0.002
C9QE 0.015 0.187 0.028 0.015 0.007 0.034
C11QE 0.016 0.297 0.03 0.009 -0.002 0.039
Ag1O 0.0236 0.0236 0.0217 0.0008 0.0008 0.0008
N4O 0.037 0.037 0.017 0.0028 0.0028 -0.01
C1O 0.049 0.049 0.014 0.002 0.002 -0.017
N5O 0.031 0.031 0.01 0.0074 0.0074 -0.007
C2O 0.071 0.071 0.012 -0.001 -0.001 -0.031
C9O 0.028 0.187 0.015 0.034 -0.007 -0.015
C11O 0.03 0.297 0.016 0.039 0.002 -0.009
C9RF 0.187 0.028 0.015 -0.007 0.034 -0.015
C11RF 0.297 0.03 0.016 0.002 0.039 -0.009
Ag1P 0.0236 0.0236 0.0217 0.0008 -0.0008 -0.0008
N2P 0.019 0.027 0.031 0.001 0.0079 -0.0029
N4P 0.037 0.037 0.017 0.0028 -0.0028 0.01
C1P 0.049 0.049 0.014 0.002 -0.002 0.017
N5P 0.031 0.031 0.01 0.0074 -0.0074 0.007
C2P 0.071 0.071 0.012 -0.001 0.001 0.031
C3P 0.026 0.057 0.093 0.049 0.019 0.005
C6P 0.021 0.109 0.057 0.045 -0.016 -0.035
C7P 0.038 0.097 0.075 -0.055 0.036 -0.047
C9P 0.028 0.187 0.015 0.034 0.007 0.015
C11P 0.03 0.297 0.016 0.039 -0.002 0.009
N2TA 0.019 0.031 0.027 0.001 0.0029 -0.0079
C3TA 0.026 0.093 0.057 0.049 -0.005 -0.019
C6TA 0.021 0.057 0.109 0.045 0.035 0.016
C7TA 0.038 0.075 0.097 -0.055 0.047 -0.036
C9RE 0.187 0.028 0.015 -0.007 -0.034 0.015
C11RE 0.297 0.03 0.016 0.002 -0.039 0.009
Ag1Q 0.0217 0.0236 0.0236 0.0008 0.0008 0.0008
N2Q 0.031 0.019 0.027 0.0029 0.001 -0.0079
N4Q 0.017 0.037 0.037 -0.01 0.0028 0.0028
C1Q 0.014 0.049 0.049 -0.017 0.002 0.002
N5Q 0.01 0.031 0.031 -0.007 0.0074 0.0074
C2Q 0.012 0.071 0.071 -0.031 -0.001 -0.001
C3Q 0.093 0.026 0.057 -0.005 0.049 -0.019
C6Q 0.057 0.021 0.109 0.035 0.045 0.016
C7Q 0.075 0.038 0.097 0.047 -0.055 -0.036
C9Q 0.015 0.028 0.187 -0.015 0.034 -0.007
C11Q 0.016 0.03 0.297 -0.009 0.039 0.002
N2PB 0.027 0.019 0.031 0.0079 0.001 -0.0029
C3PB 0.057 0.026 0.093 0.019 0.049 0.005
C6PB 0.109 0.021 0.057 -0.016 0.045 -0.035
C7PB 0.097 0.038 0.075 0.036 -0.055 -0.047
C9QD 0.015 0.187 0.028 -0.015 -0.007 0.034
C11QD 0.016 0.297 0.03 -0.009 0.002 0.039
N2KD 0.031 0.027 0.019 0.0029 0.0079 -0.001
C3KD 0.093 0.057 0.026 -0.005 0.019 -0.049
C6KD 0.057 0.109 0.021 0.035 -0.016 -0.045
C7KD 0.075 0.097 0.038 0.047 0.036 0.055
N2LF 0.027 0.031 0.019 0.0079 0.0029 -0.001
C3LF 0.057 0.093 0.026 0.019 -0.005 -0.049
C6LF 0.109 0.057 0.021 -0.016 0.035 -0.045
C7LF 0.097 0.075 0.038 0.036 0.047 0.055
N2MD 0.027 0.019 0.031 0.0079 -0.001 0.0029
C3MD 0.057 0.026 0.093 0.019 -0.049 -0.005
C6MD 0.109 0.021 0.057 -0.016 -0.045 0.035
C7MD 0.097 0.038 0.075 0.036 0.055 0.047
N2YE 0.031 0.019 0.027 0.0029 -0.001 0.0079
C3YE 0.093 0.026 0.057 -0.005 -0.049 0.019
C6YE 0.057 0.021 0.109 0.035 -0.045 -0.016
C7YE 0.075 0.038 0.097 0.047 0.055 0.036
N2OD 0.019 0.031 0.027 -0.001 0.0029 0.0079
C3OD 0.026 0.093 0.057 -0.049 -0.005 0.019
C6OD 0.021 0.057 0.109 -0.045 0.035 -0.016
C7OD 0.038 0.075 0.097 0.055 0.047 0.036
N2ZD 0.019 0.027 0.031 -0.001 0.0079 0.0029
C3ZD 0.026 0.057 0.093 -0.049 0.019 -0.005
C6ZD 0.021 0.109 0.057 -0.045 -0.016 0.035
C7ZD 0.038 0.097 0.075 0.055 0.036 0.047
N2YD 0.019 0.031 0.027 -0.001 -0.0029 -0.0079
C3YD 0.026 0.093 0.057 -0.049 0.005 -0.019
C6YD 0.021 0.057 0.109 -0.045 -0.035 0.016
C7YD 0.038 0.075 0.097 0.055 -0.047 -0.036
N2ED 0.019 0.027 0.031 -0.001 -0.0079 -0.0029
C3ED 0.026 0.057 0.093 -0.049 -0.019 0.005
C6ED 0.021 0.109 0.057 -0.045 0.016 -0.035
C7ED 0.038 0.097 0.075 0.055 -0.036 -0.047
N2JE 0.027 0.019 0.031 0.0079 0.001 -0.0029
C3JE 0.057 0.026 0.093 0.019 0.049 0.005
C6JE 0.109 0.021 0.057 -0.016 0.045 -0.035
C7JE 0.097 0.038 0.075 0.036 -0.055 -0.047
N2CG 0.031 0.019 0.027 0.0029 0.001 -0.0079
C3CG 0.093 0.026 0.057 -0.005 0.049 -0.019
C6CG 0.057 0.021 0.109 0.035 0.045 0.016
C7CG 0.075 0.038 0.097 0.047 -0.055 -0.036
N2RE 0.027 0.019 0.031 -0.0079 -0.001 -0.0029
C3RE 0.057 0.026 0.093 -0.019 -0.049 0.005
C6RE 0.109 0.021 0.057 0.016 -0.045 -0.035
C7RE 0.097 0.038 0.075 -0.036 0.055 -0.047
N2FD 0.031 0.019 0.027 -0.0029 -0.001 -0.0079
C3FD 0.093 0.026 0.057 0.005 -0.049 -0.019
C6FD 0.057 0.021 0.109 -0.035 -0.045 0.016
C7FD 0.075 0.038 0.097 -0.047 0.055 -0.036
N2JF 0.019 0.031 0.027 0.001 0.0029 -0.0079
C3JF 0.026 0.093 0.057 0.049 -0.005 -0.019
C6JF 0.021 0.057 0.109 0.045 0.035 0.016
C7JF 0.038 0.075 0.097 -0.055 0.047 -0.036
N2BG 0.019 0.027 0.031 0.001 0.0079 -0.0029
C3BG 0.026 0.057 0.093 0.049 0.019 0.005
C6BG 0.021 0.109 0.057 0.045 -0.016 -0.035
C7BG 0.038 0.097 0.075 -0.055 0.036 -0.047
N2RF 0.027 0.019 0.031 -0.0079 0.001 0.0029
C3RF 0.057 0.026 0.093 -0.019 0.049 -0.005
C6RF 0.109 0.021 0.057 0.016 0.045 0.035
C7RF 0.097 0.038 0.075 -0.036 -0.055 0.047
N2BE 0.031 0.019 0.027 -0.0029 0.001 0.0079
C3BE 0.093 0.026 0.057 0.005 0.049 0.019
C6BE 0.057 0.021 0.109 -0.035 0.045 -0.016
C7BE 0.075 0.038 0.097 -0.047 -0.055 0.036
N2SF 0.019 0.031 0.027 0.001 -0.0029 0.0079
C3SF 0.026 0.093 0.057 0.049 0.005 0.019
C6SF 0.021 0.057 0.109 0.045 -0.035 -0.016
C7SF 0.038 0.075 0.097 -0.055 -0.047 0.036
N2CF 0.019 0.027 0.031 0.001 -0.0079 0.0029
C3CF 0.026 0.057 0.093 0.049 -0.019 -0.005
C6CF 0.021 0.109 0.057 0.045 0.016 0.035
C7CF 0.038 0.097 0.075 -0.055 -0.036 0.047
Ag1BA 0.0236 0.0236 0.0217 0.0008 -0.0008 -0.0008
Ag1DA 0.0236 0.0236 0.0217 0.0008 0.0008 0.0008
Ag1RA 0.0236 0.0236 0.0217 -0.0008 0.0008 -0.0008
Ag1SA 0.0236 0.0236 0.0217 -0.0008 -0.0008 0.0008
Ag1TA 0.0236 0.0217 0.0236 0.0008 0.0008 0.0008
Ag1WA 0.0217 0.0236 0.0236 0.0008 0.0008 0.0008
Ag1YA 0.0217 0.0236 0.0236 -0.0008 -0.0008 0.0008
Ag1NB 0.0217 0.0236 0.0236 -0.0008 0.0008 -0.0008
Ag1OB 0.0217 0.0236 0.0236 0.0008 -0.0008 -0.0008
Ag1PB 0.0236 0.0236 0.0217 -0.0008 0.0008 -0.0008
Ag1MC 0.0217 0.0236 0.0236 0.0008 -0.0008 -0.0008
Ag1QC 0.0236 0.0217 0.0236 -0.0008 0.0008 -0.0008
N2B 0.027 0.031 0.019 -0.0079 -0.0029 -0.001
N2E 0.027 0.031 0.019 0.0079 -0.0029 0.001
N2H 0.027 0.031 0.019 -0.0079 0.0029 0.001
N2J 0.019 0.027 0.031 -0.001 0.0079 0.0029
N2K 0.031 0.019 0.027 0.0029 -0.001 0.0079
N2L 0.031 0.019 0.027 -0.0029 0.001 0.0079
N2M 0.019 0.027 0.031 -0.001 -0.0079 -0.0029
N2N 0.031 0.019 0.027 -0.0029 -0.001 -0.0079
N2O 0.019 0.027 0.031 0.001 -0.0079 0.0029
N2QD 0.031 0.027 0.019 0.0029 -0.0079 0.001
N2QE 0.031 0.027 0.019 -0.0029 0.0079 0.001
N2DG 0.031 0.027 0.019 -0.0029 -0.0079 -0.001
loop_
_geom_bond_atom_site_label_1
_geom_bond_atom_site_label_2
_geom_bond_site_symmetry_1
_geom_bond_site_symmetry_2
Ag1 N2 1_555 1_555
N1 C10 1_555 1_555
N2 C3 1_555 1_555
N3 Ag1 1_555 1_555
N4 Ag1 1_555 1_555
C1 H1 1_555 1_555
N5 C1 1_555 1_555
C2 N4 1_555 1_555
H2 C2 1_555 1_555
Ag2 N6 1_555 1_555
N6 C8 1_555 1_555
C3 H3 1_555 1_555
H4 C3 1_555 1_555
C4 N3 1_555 1_555
H5 C4 1_555 1_555
H6 C4 1_555 1_555
C5 N3 1_555 1_555
H7 C5 1_555 1_555
C6 N2 1_555 1_555
H8 C6 1_555 1_555
H9 C6 1_555 1_555
C7 N2 1_555 1_555
H10 C7 1_555 1_555
H11 C7 1_555 1_555
C8 H12 1_555 1_555
C9 N5 1_555 1_555
H13 C9 1_555 1_555
H14 C9 1_555 1_555
C10 C8 1_555 1_555
H15 C10 1_555 1_555
C11 N4 1_555 1_555
H16 C11 1_555 1_555
H17 C11 1_555 1_555
Ag3 N1 1_555 1_555
C8L N6 1_555 1_555
H12L C8L 1_555 1_555
C10L N1 1_555 1_555
H15L C10L 1_555 1_555
C8M N6 1_555 1_555
H12M C8M 1_555 1_555
C10M N1 1_555 1_555
H15M C10M 1_555 1_555
H12OD C8L 1_555 1_555
H15OD C10L 1_555 1_555
H12JE C8 1_555 1_555
H15JE C10 1_555 1_555
H12DG C8M 1_555 1_555
H15DG C10M 1_555 1_555
N2MC C3MC 1_555 1_555
C3MC C6 1_555 1_555
H3MC C3MC 1_555 1_555
H4MC C3MC 1_555 1_555
C6MC C3 1_555 1_555
H8MC C6MC 1_555 1_555
H9MC C6MC 1_555 1_555
C7MC C7 1_555 1_555
H10MC C7MC 1_555 1_555
H11MC C7MC 1_555 1_555
N3H C4H 1_555 1_555
C4H H5H 1_555 1_555
H6H C4H 1_555 1_555
C5H C5 1_555 1_555
H7H C5H 1_555 1_555
C4OD N3 1_555 1_555
H5OD C4OD 1_555 1_555
H6OD C4OD 1_555 1_555
H7OD C5 1_555 1_555
C4JF C4 1_555 1_555
H5JF C4JF 1_555 1_555
H6JF C4JF 1_555 1_555
H7JF C5H 1_555 1_555
H1OD C1 1_555 1_555
H2OD C2 1_555 1_555
C9OD N5 1_555 1_555
H13OD C9OD 1_555 1_555
H14OD C9OD 1_555 1_555
C11OD N4 1_555 1_555
H16OD C11OD 1_555 1_555
H17OD C11OD 1_555 1_555
Ag1B N3B 1_555 1_555
N1B C10B 1_555 1_555
N3B C4B 1_555 1_555
N4B Ag1B 1_555 1_555
C1B H1B 1_555 1_555
N5B C1B 1_555 1_555
C2B N4B 1_555 1_555
H2B C2B 1_555 1_555
N6B Ag2 1_555 1_555
C4B H5B 1_555 1_555
H6B C4B 1_555 1_555
C5B N3B 1_555 1_555
H7B C5B 1_555 1_555
C8B N6B 1_555 1_555
H12B C8B 1_555 1_555
C9B N5B 1_555 1_555
H13B C9B 1_555 1_555
H14B C9B 1_555 1_555
C10B C8B 1_555 1_555
H15B C10B 1_555 1_555
C11B N4B 1_555 1_555
H16B C11B 1_555 1_555
H17B C11B 1_555 1_555
Ag3B N1B 1_555 1_555
C8K N6B 1_555 1_555
H12K C8K 1_555 1_555
C10K N1B 1_555 1_555
H15K C10K 1_555 1_555
C8P N6B 1_555 1_555
H12P C8P 1_555 1_555
C10P N1B 1_555 1_555
H15P C10P 1_555 1_555
H12SF C8K 1_555 1_555
H15SF C10K 1_555 1_555
H12RE C8B 1_555 1_555
H15RE C10B 1_555 1_555
H12KD C8P 1_555 1_555
H15KD C10P 1_555 1_555
N3E C4E 1_555 1_555
C4E H5E 1_555 1_555
H6E C4E 1_555 1_555
C5E C5B 1_555 1_555
H7E C5E 1_555 1_555
C4SF N3B 1_555 1_555
H5SF C4SF 1_555 1_555
H6SF C4SF 1_555 1_555
H7SF C5B 1_555 1_555
C4YD C4B 1_555 1_555
H5YD C4YD 1_555 1_555
H6YD C4YD 1_555 1_555
H7YD C5E 1_555 1_555
H1SF C1B 1_555 1_555
H2SF C2B 1_555 1_555
C9SF N5B 1_555 1_555
H13SF C9SF 1_555 1_555
H14SF C9SF 1_555 1_555
C11SF N4B 1_555 1_555
H16SF C11SF 1_555 1_555
H17SF C11SF 1_555 1_555
Ag1E N3E 1_555 1_555
N1E C10E 1_555 1_555
N4E Ag1E 1_555 1_555
C1E H1E 1_555 1_555
N5E C1E 1_555 1_555
C2E N4E 1_555 1_555
H2E C2E 1_555 1_555
N6E Ag2 1_555 1_555
C8E N6E 1_555 1_555
H12E C8E 1_555 1_555
C9E N5E 1_555 1_555
H13E C9E 1_555 1_555
H14E C9E 1_555 1_555
C10E C8E 1_555 1_555
H15E C10E 1_555 1_555
C11E N4E 1_555 1_555
H16E C11E 1_555 1_555
H17E C11E 1_555 1_555
Ag3E N1E 1_555 1_555
C8N N6E 1_555 1_555
H12N C8N 1_555 1_555
C10N N1E 1_555 1_555
H15N C10N 1_555 1_555
C8J N6E 1_555 1_555
H12J C8J 1_555 1_555
C10J N1E 1_555 1_555
H15J C10J 1_555 1_555
H12YD C8N 1_555 1_555
H15YD C10N 1_555 1_555
H12MD C8E 1_555 1_555
H15MD C10E 1_555 1_555
H12QE C8J 1_555 1_555
H15QE C10J 1_555 1_555
H1YD C1E 1_555 1_555
H2YD C2E 1_555 1_555
C9YD N5E 1_555 1_555
H13YD C9YD 1_555 1_555
H14YD C9YD 1_555 1_555
C11YD N4E 1_555 1_555
H16YD C11YD 1_555 1_555
H17YD C11YD 1_555 1_555
Ag1H N3H 1_555 1_555
N1H C10H 1_555 1_555
N4H Ag1H 1_555 1_555
C1H H1H 1_555 1_555
N5H C1H 1_555 1_555
C2H N4H 1_555 1_555
H2H C2H 1_555 1_555
N6H Ag2 1_555 1_555
C8H N6H 1_555 1_555
H12H C8H 1_555 1_555
C9H N5H 1_555 1_555
H13H C9H 1_555 1_555
H14H C9H 1_555 1_555
C10H C8H 1_555 1_555
H15H C10H 1_555 1_555
C11H N4H 1_555 1_555
H16H C11H 1_555 1_555
H17H C11H 1_555 1_555
Ag3H N1H 1_555 1_555
C8Q N6H 1_555 1_555
H12Q C8Q 1_555 1_555
C10Q N1H 1_555 1_555
H15Q C10Q 1_555 1_555
C8O N6H 1_555 1_555
H12O C8O 1_555 1_555
C10O N1H 1_555 1_555
H15O C10O 1_555 1_555
H12JF C8Q 1_555 1_555
H15JF C10Q 1_555 1_555
H12RF C8H 1_555 1_555
H15RF C10H 1_555 1_555
H12QD C8O 1_555 1_555
H15QD C10O 1_555 1_555
H1JF C1H 1_555 1_555
H2JF C2H 1_555 1_555
C9JF N5H 1_555 1_555
H13JF C9JF 1_555 1_555
H14JF C9JF 1_555 1_555
C11JF N4H 1_555 1_555
H16JF C11JF 1_555 1_555
H17JF C11JF 1_555 1_555
Ag1J N3J 1_555 1_555
N3J C4J 1_555 1_555
N4J Ag1J 1_555 1_555
C1J H1J 1_555 1_555
N5J Ag3E 1_555 1_555
C2J N4J 1_555 1_555
H2J C2J 1_555 1_555
C4J H5J 1_555 1_555
H6J C4J 1_555 1_555
C5J N3J 1_555 1_555
H7J C5J 1_555 1_555
C9J N5J 1_555 1_555
H13J C9J 1_555 1_555
H14J C9J 1_555 1_555
C11J N4J 1_555 1_555
H16J C11J 1_555 1_555
H17J C11J 1_555 1_555
N3O C4O 1_555 1_555
C4O H5O 1_555 1_555
H6O C4O 1_555 1_555
C5O C5J 1_555 1_555
H7O C5O 1_555 1_555
C4MD N3J 1_555 1_555
H5MD C4MD 1_555 1_555
H6MD C4MD 1_555 1_555
H7MD C5J 1_555 1_555
C4RF C4J 1_555 1_555
H5RF C4RF 1_555 1_555
H6RF C4RF 1_555 1_555
H7RF C5O 1_555 1_555
H1MD C1J 1_555 1_555
H2MD C2J 1_555 1_555
C9MD N5J 1_555 1_555
H13MD C9MD 1_555 1_555
H14MD C9MD 1_555 1_555
C11MD N4J 1_555 1_555
H16MD C11MD 1_555 1_555
H17MD C11MD 1_555 1_555
Ag1K N3K 1_555 1_555
N3K C4K 1_555 1_555
N4K Ag1K 1_555 1_555
C1K H1K 1_555 1_555
N5K Ag3B 1_555 1_555
C2K N4K 1_555 1_555
H2K C2K 1_555 1_555
C4K H5K 1_555 1_555
H6K C4K 1_555 1_555
C5K N3K 1_555 1_555
H7K C5K 1_555 1_555
C9K N5K 1_555 1_555
H13K C9K 1_555 1_555
H14K C9K 1_555 1_555
C11K N4K 1_555 1_555
H16K C11K 1_555 1_555
H17K C11K 1_555 1_555
N3Q C4Q 1_555 1_555
C4Q H5Q 1_555 1_555
H6Q C4Q 1_555 1_555
C5Q C5K 1_555 1_555
H7Q C5Q 1_555 1_555
C4KD N3K 1_555 1_555
H5KD C4KD 1_555 1_555
H6KD C4KD 1_555 1_555
H7KD C5K 1_555 1_555
C4QD C4K 1_555 1_555
H5QD C4QD 1_555 1_555
H6QD C4QD 1_555 1_555
H7QD C5Q 1_555 1_555
H1KD C1K 1_555 1_555
H2KD C2K 1_555 1_555
C9KD N5K 1_555 1_555
H13KD C9KD 1_555 1_555
H14KD C9KD 1_555 1_555
C11KD N4K 1_555 1_555
H16KD C11KD 1_555 1_555
H17KD C11KD 1_555 1_555
Ag1L N3L 1_555 1_555
N3L C4L 1_555 1_555
N4L Ag1L 1_555 1_555
C1L H1L 1_555 1_555
N5L Ag3 1_555 1_555
C2L N4L 1_555 1_555
H2L C2L 1_555 1_555
C4L H5L 1_555 1_555
H6L C4L 1_555 1_555
C5L N3L 1_555 1_555
H7L C5L 1_555 1_555
C9L N5L 1_555 1_555
H13L C9L 1_555 1_555
H14L C9L 1_555 1_555
C11L N4L 1_555 1_555
H16L C11L 1_555 1_555
H17L C11L 1_555 1_555
N3N C4N 1_555 1_555
C4N H5N 1_555 1_555
H6N C4N 1_555 1_555
C5N C5L 1_555 1_555
H7N C5N 1_555 1_555
C4DG N3L 1_555 1_555
H5DG C4DG 1_555 1_555
H6DG C4DG 1_555 1_555
H7DG C5L 1_555 1_555
C4QE C4L 1_555 1_555
H5QE C4QE 1_555 1_555
H6QE C4QE 1_555 1_555
H7QE C5N 1_555 1_555
H1DG C1L 1_555 1_555
H2DG C2L 1_555 1_555
C9DG N5L 1_555 1_555
H13DG C9DG 1_555 1_555
H14DG C9DG 1_555 1_555
C11DG N4L 1_555 1_555
H16DG C11DG 1_555 1_555
H17DG C11DG 1_555 1_555
Ag1M N3M 1_555 1_555
N3M C4M 1_555 1_555
N4M Ag1M 1_555 1_555
C1M H1M 1_555 1_555
N5M Ag3 1_555 1_555
C2M N4M 1_555 1_555
H2M C2M 1_555 1_555
C4M H5M 1_555 1_555
H6M C4M 1_555 1_555
C5M N3M 1_555 1_555
H7M C5M 1_555 1_555
C9M N5M 1_555 1_555
H13M C9M 1_555 1_555
H14M C9M 1_555 1_555
C11M N4M 1_555 1_555
H16M C11M 1_555 1_555
H17M C11M 1_555 1_555
N3P C4P 1_555 1_555
C4P H5P 1_555 1_555
H6P C4P 1_555 1_555
C5P C5M 1_555 1_555
H7P C5P 1_555 1_555
C4JE N3M 1_555 1_555
H5JE C4JE 1_555 1_555
H6JE C4JE 1_555 1_555
H7JE C5M 1_555 1_555
C4RE C4M 1_555 1_555
H5RE C4RE 1_555 1_555
H6RE C4RE 1_555 1_555
H7RE C5P 1_555 1_555
H1JE C1M 1_555 1_555
H2JE C2M 1_555 1_555
C9JE N5M 1_555 1_555
H13JE C9JE 1_555 1_555
H14JE C9JE 1_555 1_555
C11JE N4M 1_555 1_555
H16JE C11JE 1_555 1_555
H17JE C11JE 1_555 1_555
Ag1N N3N 1_555 1_555
N4N Ag1N 1_555 1_555
C1N H1N 1_555 1_555
N5N Ag3E 1_555 1_555
C2N N4N 1_555 1_555
H2N C2N 1_555 1_555
C9N N5N 1_555 1_555
H13N C9N 1_555 1_555
H14N C9N 1_555 1_555
C11N N4N 1_555 1_555
H16N C11N 1_555 1_555
H17N C11N 1_555 1_555
H1QE C1N 1_555 1_555
H2QE C2N 1_555 1_555
C9QE N5N 1_555 1_555
H13QE C9QE 1_555 1_555
H14QE C9QE 1_555 1_555
C11QE N4N 1_555 1_555
H16QE C11QE 1_555 1_555
H17QE C11QE 1_555 1_555
Ag1O N3O 1_555 1_555
N4O Ag1O 1_555 1_555
C1O H1O 1_555 1_555
N5O Ag3H 1_555 1_555
C2O N4O 1_555 1_555
H2O C2O 1_555 1_555
C9O N5O 1_555 1_555
H13O C9O 1_555 1_555
H14O C9O 1_555 1_555
C11O N4O 1_555 1_555
H16O C11O 1_555 1_555
H17O C11O 1_555 1_555
H1RF C1O 1_555 1_555
H2RF C2O 1_555 1_555
C9RF N5O 1_555 1_555
H13RF C9RF 1_555 1_555
H14RF C9RF 1_555 1_555
C11RF N4O 1_555 1_555
H16RF C11RF 1_555 1_555
H17RF C11RF 1_555 1_555
Ag1P N3P 1_555 1_555
N2P Ag1P 1_555 1_555
N4P Ag1P 1_555 1_555
C1P H1P 1_555 1_555
N5P Ag3B 1_555 1_555
C2P N4P 1_555 1_555
H2P C2P 1_555 1_555
C3P N2P 1_555 1_555
H3P C3P 1_555 1_555
H4P C3P 1_555 1_555
C6P N2P 1_555 1_555
H8P C6P 1_555 1_555
H9P C6P 1_555 1_555
C7P N2P 1_555 1_555
H10P C7P 1_555 1_555
H11P C7P 1_555 1_555
C9P N5P 1_555 1_555
H13P C9P 1_555 1_555
H14P C9P 1_555 1_555
C11P N4P 1_555 1_555
H16P C11P 1_555 1_555
H17P C11P 1_555 1_555
N2TA C3TA 1_555 1_555
C3TA C6P 1_555 1_555
H3TA C3TA 1_555 1_555
H4TA C3TA 1_555 1_555
C6TA C3P 1_555 1_555
H8TA C6TA 1_555 1_555
H9TA C6TA 1_555 1_555
C7TA C7P 1_555 1_555
H10TA C7TA 1_555 1_555
H11TA C7TA 1_555 1_555
H1RE C1P 1_555 1_555
H2RE C2P 1_555 1_555
C9RE N5P 1_555 1_555
H13RE C9RE 1_555 1_555
H14RE C9RE 1_555 1_555
C11RE N4P 1_555 1_555
H16RE C11RE 1_555 1_555
H17RE C11RE 1_555 1_555
Ag1Q N3Q 1_555 1_555
N2Q Ag1Q 1_555 1_555
N4Q Ag1Q 1_555 1_555
C1Q H1Q 1_555 1_555
N5Q Ag3H 1_555 1_555
C2Q N4Q 1_555 1_555
H2Q C2Q 1_555 1_555
C3Q N2Q 1_555 1_555
H3Q C3Q 1_555 1_555
H4Q C3Q 1_555 1_555
C6Q N2Q 1_555 1_555
H8Q C6Q 1_555 1_555
H9Q C6Q 1_555 1_555
C7Q N2Q 1_555 1_555
H10Q C7Q 1_555 1_555
H11Q C7Q 1_555 1_555
C9Q N5Q 1_555 1_555
H13Q C9Q 1_555 1_555
H14Q C9Q 1_555 1_555
C11Q N4Q 1_555 1_555
H16Q C11Q 1_555 1_555
H17Q C11Q 1_555 1_555
N2PB C3PB 1_555 1_555
C3PB C6Q 1_555 1_555
H3PB C3PB 1_555 1_555
H4PB C3PB 1_555 1_555
C6PB C3Q 1_555 1_555
H8PB C6PB 1_555 1_555
H9PB C6PB 1_555 1_555
C7PB C7Q 1_555 1_555
H10PB C7PB 1_555 1_555
H11PB C7PB 1_555 1_555
H1QD C1Q 1_555 1_555
H2QD C2Q 1_555 1_555
C9QD N5Q 1_555 1_555
H13QD C9QD 1_555 1_555
H14QD C9QD 1_555 1_555
C11QD N4Q 1_555 1_555
H16QD C11QD 1_555 1_555
H17QD C11QD 1_555 1_555
N2KD Ag1K 1_555 1_555
C3KD N2KD 1_555 1_555
H3KD C3KD 1_555 1_555
H4KD C3KD 1_555 1_555
C6KD N2KD 1_555 1_555
H8KD C6KD 1_555 1_555
H9KD C6KD 1_555 1_555
C7KD N2KD 1_555 1_555
H10KD C7KD 1_555 1_555
H11KD C7KD 1_555 1_555
N2LF C3LF 1_555 1_555
C3LF C6KD 1_555 1_555
H3LF C3LF 1_555 1_555
H4LF C3LF 1_555 1_555
C6LF C3KD 1_555 1_555
H8LF C6LF 1_555 1_555
H9LF C6LF 1_555 1_555
C7LF C7KD 1_555 1_555
H10LF C7LF 1_555 1_555
H11LF C7LF 1_555 1_555
N2MD Ag1J 1_555 1_555
C3MD N2MD 1_555 1_555
H3MD C3MD 1_555 1_555
H4MD C3MD 1_555 1_555
C6MD N2MD 1_555 1_555
H8MD C6MD 1_555 1_555
H9MD C6MD 1_555 1_555
C7MD N2MD 1_555 1_555
H10MD C7MD 1_555 1_555
H11MD C7MD 1_555 1_555
N2YE C3YE 1_555 1_555
C3YE C6MD 1_555 1_555
H3YE C3YE 1_555 1_555
H4YE C3YE 1_555 1_555
C6YE C3MD 1_555 1_555
H8YE C6YE 1_555 1_555
H9YE C6YE 1_555 1_555
C7YE C7MD 1_555 1_555
H10YE C7YE 1_555 1_555
H11YE C7YE 1_555 1_555
N2OD Ag1 1_555 1_555
C3OD N2OD 1_555 1_555
H3OD C3OD 1_555 1_555
H4OD C3OD 1_555 1_555
C6OD N2OD 1_555 1_555
H8OD C6OD 1_555 1_555
H9OD C6OD 1_555 1_555
C7OD N2OD 1_555 1_555
H10OD C7OD 1_555 1_555
H11OD C7OD 1_555 1_555
N2ZD C3ZD 1_555 1_555
C3ZD C6OD 1_555 1_555
H3ZD C3ZD 1_555 1_555
H4ZD C3ZD 1_555 1_555
C6ZD C3OD 1_555 1_555
H8ZD C6ZD 1_555 1_555
H9ZD C6ZD 1_555 1_555
C7ZD C7OD 1_555 1_555
H10ZD C7ZD 1_555 1_555
H11ZD C7ZD 1_555 1_555
N2YD Ag1E 1_555 1_555
C3YD N2YD 1_555 1_555
H3YD C3YD 1_555 1_555
H4YD C3YD 1_555 1_555
C6YD N2YD 1_555 1_555
H8YD C6YD 1_555 1_555
H9YD C6YD 1_555 1_555
C7YD N2YD 1_555 1_555
H10YD C7YD 1_555 1_555
H11YD C7YD 1_555 1_555
N2ED C3ED 1_555 1_555
C3ED C6YD 1_555 1_555
H3ED C3ED 1_555 1_555
H4ED C3ED 1_555 1_555
C6ED C3YD 1_555 1_555
H8ED C6ED 1_555 1_555
H9ED C6ED 1_555 1_555
C7ED C7YD 1_555 1_555
H10ED C7ED 1_555 1_555
H11ED C7ED 1_555 1_555
N2JE Ag1M 1_555 1_555
C3JE N2JE 1_555 1_555
H3JE C3JE 1_555 1_555
H4JE C3JE 1_555 1_555
C6JE N2JE 1_555 1_555
H8JE C6JE 1_555 1_555
H9JE C6JE 1_555 1_555
C7JE N2JE 1_555 1_555
H10JE C7JE 1_555 1_555
H11JE C7JE 1_555 1_555
N2CG C3CG 1_555 1_555
C3CG C6JE 1_555 1_555
H3CG C3CG 1_555 1_555
H4CG C3CG 1_555 1_555
C6CG C3JE 1_555 1_555
H8CG C6CG 1_555 1_555
H9CG C6CG 1_555 1_555
C7CG C7JE 1_555 1_555
H10CG C7CG 1_555 1_555
H11CG C7CG 1_555 1_555
N2RE Ag1P 1_555 1_555
C3RE N2RE 1_555 1_555
H3RE C3RE 1_555 1_555
H4RE C3RE 1_555 1_555
C6RE N2RE 1_555 1_555
H8RE C6RE 1_555 1_555
H9RE C6RE 1_555 1_555
C7RE N2RE 1_555 1_555
H10RE C7RE 1_555 1_555
H11RE C7RE 1_555 1_555
N2FD C3FD 1_555 1_555
C3FD C6RE 1_555 1_555
H3FD C3FD 1_555 1_555
H4FD C3FD 1_555 1_555
C6FD C3RE 1_555 1_555
H8FD C6FD 1_555 1_555
H9FD C6FD 1_555 1_555
C7FD C7RE 1_555 1_555
H10FD C7FD 1_555 1_555
H11FD C7FD 1_555 1_555
N2JF Ag1H 1_555 1_555
C3JF N2JF 1_555 1_555
H3JF C3JF 1_555 1_555
H4JF C3JF 1_555 1_555
C6JF N2JF 1_555 1_555
H8JF C6JF 1_555 1_555
H9JF C6JF 1_555 1_555
C7JF N2JF 1_555 1_555
H10JF C7JF 1_555 1_555
H11JF C7JF 1_555 1_555
N2BG C3BG 1_555 1_555
C3BG C6JF 1_555 1_555
H3BG C3BG 1_555 1_555
H4BG C3BG 1_555 1_555
C6BG C3JF 1_555 1_555
H8BG C6BG 1_555 1_555
H9BG C6BG 1_555 1_555
C7BG C7JF 1_555 1_555
H10BG C7BG 1_555 1_555
H11BG C7BG 1_555 1_555
N2RF Ag1O 1_555 1_555
C3RF N2RF 1_555 1_555
H3RF C3RF 1_555 1_555
H4RF C3RF 1_555 1_555
C6RF N2RF 1_555 1_555
H8RF C6RF 1_555 1_555
H9RF C6RF 1_555 1_555
C7RF N2RF 1_555 1_555
H10RF C7RF 1_555 1_555
H11RF C7RF 1_555 1_555
N2BE C3BE 1_555 1_555
C3BE C6RF 1_555 1_555
H3BE C3BE 1_555 1_555
H4BE C3BE 1_555 1_555
C6BE C3RF 1_555 1_555
H8BE C6BE 1_555 1_555
H9BE C6BE 1_555 1_555
C7BE C7RF 1_555 1_555
H10BE C7BE 1_555 1_555
H11BE C7BE 1_555 1_555
N2SF Ag1B 1_555 1_555
C3SF N2SF 1_555 1_555
H3SF C3SF 1_555 1_555
H4SF C3SF 1_555 1_555
C6SF N2SF 1_555 1_555
H8SF C6SF 1_555 1_555
H9SF C6SF 1_555 1_555
C7SF N2SF 1_555 1_555
H10SF C7SF 1_555 1_555
H11SF C7SF 1_555 1_555
N2CF C3CF 1_555 1_555
C3CF C6SF 1_555 1_555
H3CF C3CF 1_555 1_555
H4CF C3CF 1_555 1_555
C6CF C3SF 1_555 1_555
H8CF C6CF 1_555 1_555
H9CF C6CF 1_555 1_555
C7CF C7SF 1_555 1_555
H10CF C7CF 1_555 1_555
H11CF C7CF 1_555 1_555
Ag1BA N2BG 1_555 1_555
Ag1DA N2CF 1_555 1_555
Ag1RA N2ED 1_555 1_555
Ag1SA N2ZD 1_555 1_555
Ag1TA N2TA 1_555 1_555
Ag1WA N2CG 1_555 1_555
Ag1YA N2FD 1_555 1_555
Ag1NB N2BE 1_555 1_555
Ag1OB N2YE 1_555 1_555
Ag1PB N2PB 1_555 1_555
Ag1MC N2MC 1_555 1_555
Ag1QC N2LF 1_555 1_555
N2B Ag1B 1_555 1_555
N2E Ag1E 1_555 1_555
N2H Ag1H 1_555 1_555
N2J Ag1J 1_555 1_555
N2K Ag1K 1_555 1_555
N2L Ag1L 1_555 1_555
N2M Ag1M 1_555 1_555
N2N Ag1N 1_555 1_555
N2O Ag1O 1_555 1_555
N2QD Ag1Q 1_555 1_555
N2QE Ag1N 1_555 1_555
N2DG Ag1L 1_555 1_555
C1 C2 1_555 1_555
N5 Ag3 1_555 1_555
C9 C11 1_555 1_555
C8L C10L 1_555 1_555
C8M C10M 1_555 1_555
N2MC C6MC 1_555 1_555
N2MC C7MC 1_555 1_555
N3H C5H 1_555 1_555
N3H C4JF 1_555 1_555
C4H C4OD 1_555 1_555
C9OD C11OD 1_555 1_555
C1B C2B 1_555 1_555
N5B Ag3B 1_555 1_555
C9B C11B 1_555 1_555
C8K C10K 1_555 1_555
C8P C10P 1_555 1_555
N3E C5E 1_555 1_555
N3E C4YD 1_555 1_555
C4E C4SF 1_555 1_555
C9SF C11SF 1_555 1_555
C1E C2E 1_555 1_555
N5E Ag3E 1_555 1_555
C9E C11E 1_555 1_555
C8N C10N 1_555 1_555
C8J C10J 1_555 1_555
C9YD C11YD 1_555 1_555
C1H C2H 1_555 1_555
N5H Ag3H 1_555 1_555
C9H C11H 1_555 1_555
C8Q C10Q 1_555 1_555
C8O C10O 1_555 1_555
C9JF C11JF 1_555 1_555
C1J N5J 1_555 1_555
C1J C2J 1_555 1_555
C9J C11J 1_555 1_555
N3O C5O 1_555 1_555
N3O C4RF 1_555 1_555
C4O C4MD 1_555 1_555
C9MD C11MD 1_555 1_555
C1K N5K 1_555 1_555
C1K C2K 1_555 1_555
C9K C11K 1_555 1_555
N3Q C5Q 1_555 1_555
N3Q C4QD 1_555 1_555
C4Q C4KD 1_555 1_555
C9KD C11KD 1_555 1_555
C1L N5L 1_555 1_555
C1L C2L 1_555 1_555
C9L C11L 1_555 1_555
N3N C5N 1_555 1_555
N3N C4QE 1_555 1_555
C4N C4DG 1_555 1_555
C9DG C11DG 1_555 1_555
C1M N5M 1_555 1_555
C1M C2M 1_555 1_555
C9M C11M 1_555 1_555
N3P C5P 1_555 1_555
N3P C4RE 1_555 1_555
C4P C4JE 1_555 1_555
C9JE C11JE 1_555 1_555
C1N N5N 1_555 1_555
C1N C2N 1_555 1_555
C9N C11N 1_555 1_555
C9QE C11QE 1_555 1_555
C1O N5O 1_555 1_555
C1O C2O 1_555 1_555
C9O C11O 1_555 1_555
C9RF C11RF 1_555 1_555
C1P N5P 1_555 1_555
C1P C2P 1_555 1_555
C9P C11P 1_555 1_555
N2TA C6TA 1_555 1_555
N2TA C7TA 1_555 1_555
C9RE C11RE 1_555 1_555
C1Q N5Q 1_555 1_555
C1Q C2Q 1_555 1_555
C9Q C11Q 1_555 1_555
N2PB C6PB 1_555 1_555
N2PB C7PB 1_555 1_555
C9QD C11QD 1_555 1_555
N2LF C6LF 1_555 1_555
N2LF C7LF 1_555 1_555
N2YE C6YE 1_555 1_555
N2YE C7YE 1_555 1_555
N2ZD C6ZD 1_555 1_555
N2ZD C7ZD 1_555 1_555
N2ED C6ED 1_555 1_555
N2ED C7ED 1_555 1_555
N2CG C6CG 1_555 1_555
N2CG C7CG 1_555 1_555
N2FD C6FD 1_555 1_555
N2FD C7FD 1_555 1_555
N2BG C6BG 1_555 1_555
N2BG C7BG 1_555 1_555
N2BE C6BE 1_555 1_555
N2BE C7BE 1_555 1_555
N2CF C6CF 1_555 1_555
N2CF C7CF 1_555 1_555

#END
