
#######################################################################
#
#                 Cambridge Crystallographic Data Centre
#                                CCDC 
#
#######################################################################
#
# If this CIF has been generated from an entry in the Cambridge 
# Structural Database, then it will include bibliographic, chemical, 
# crystal, experimental, refinement or atomic coordinate data resulting 
# from the CCDC's data processing and validation procedures.
#
#######################################################################

data_AVILEY
_chemical_formula_moiety         'C144 H72 Cl6 Hf33 Ir3 N12 O95'
_symmetry_cell_setting           cubic
_symmetry_space_group_name_H-M   'I m -3 m'
_symmetry_Int_Tables_number      229
_space_group_name_Hall           '-I 4 2 3'
loop_
_symmetry_equiv_pos_site_id
_symmetry_equiv_pos_as_xyz
1 x,y,z
2 -y,x,z
3 -x,-y,z
4 y,-x,z
5 x,-z,y
6 x,-y,-z
7 x,z,-y
8 z,y,-x
9 -x,y,-z
10 -z,y,x
11 z,x,y
12 y,z,x
13 -y,-z,x
14 z,-x,-y
15 -y,z,-x
16 -z,-x,y
17 -z,x,-y
18 y,-z,-x
19 y,x,-z
20 -y,-x,-z
21 -x,z,y
22 -x,-z,-y
23 z,-y,x
24 -z,-y,-x
25 1/2+x,1/2+y,1/2+z
26 1/2-y,1/2+x,1/2+z
27 1/2-x,1/2-y,1/2+z
28 1/2+y,1/2-x,1/2+z
29 1/2+x,1/2-z,1/2+y
30 1/2+x,1/2-y,1/2-z
31 1/2+x,1/2+z,1/2-y
32 1/2+z,1/2+y,1/2-x
33 1/2-x,1/2+y,1/2-z
34 1/2-z,1/2+y,1/2+x
35 1/2+z,1/2+x,1/2+y
36 1/2+y,1/2+z,1/2+x
37 1/2-y,1/2-z,1/2+x
38 1/2+z,1/2-x,1/2-y
39 1/2-y,1/2+z,1/2-x
40 1/2-z,1/2-x,1/2+y
41 1/2-z,1/2+x,1/2-y
42 1/2+y,1/2-z,1/2-x
43 1/2+y,1/2+x,1/2-z
44 1/2-y,1/2-x,1/2-z
45 1/2-x,1/2+z,1/2+y
46 1/2-x,1/2-z,1/2-y
47 1/2+z,1/2-y,1/2+x
48 1/2-z,1/2-y,1/2-x
49 -x,-y,-z
50 y,-x,-z
51 x,y,-z
52 -y,x,-z
53 -x,z,-y
54 -x,y,z
55 -x,-z,y
56 -z,-y,x
57 x,-y,z
58 z,-y,-x
59 -z,-x,-y
60 -y,-z,-x
61 y,z,-x
62 -z,x,y
63 y,-z,x
64 z,x,-y
65 z,-x,y
66 -y,z,x
67 -y,-x,z
68 y,x,z
69 x,-z,-y
70 x,z,y
71 -z,y,-x
72 z,y,x
73 1/2-x,1/2-y,1/2-z
74 1/2+y,1/2-x,1/2-z
75 1/2+x,1/2+y,1/2-z
76 1/2-y,1/2+x,1/2-z
77 1/2-x,1/2+z,1/2-y
78 1/2-x,1/2+y,1/2+z
79 1/2-x,1/2-z,1/2+y
80 1/2-z,1/2-y,1/2+x
81 1/2+x,1/2-y,1/2+z
82 1/2+z,1/2-y,1/2-x
83 1/2-z,1/2-x,1/2-y
84 1/2-y,1/2-z,1/2-x
85 1/2+y,1/2+z,1/2-x
86 1/2-z,1/2+x,1/2+y
87 1/2+y,1/2-z,1/2+x
88 1/2+z,1/2+x,1/2-y
89 1/2+z,1/2-x,1/2+y
90 1/2-y,1/2+z,1/2+x
91 1/2-y,1/2-x,1/2+z
92 1/2+y,1/2+x,1/2+z
93 1/2+x,1/2-z,1/2-y
94 1/2+x,1/2+z,1/2+y
95 1/2-z,1/2+y,1/2-x
96 1/2+z,1/2+y,1/2+x
_cell_length_a                   38.3207(2)
_cell_length_b                   38.3207(2)
_cell_length_c                   38.32070(2)
_cell_angle_alpha                90
_cell_angle_beta                 90
_cell_angle_gamma                90
_cell_volume                     56273
loop_
_atom_site_label
_atom_site_type_symbol
_atom_site_fract_x
_atom_site_fract_y
_atom_site_fract_z
Hf1 Hf 0.27144(2) 0.20721(2) 0.20721(2)
Ir1 Ir 0.5000 0.2500 0.0000
Cl1 Cl 0.5000 0.3143(11) 0.0000
O1 O 0.3155(2) 0.2224(3) 0.1721(2)
O2 O 0.3056(4) 0.2422(3) 0.2422(3)
O3 O 0.2496(3) 0.1957(5) 0.1528(3)
O4 O 0.2144(3) 0.2144(3) 0.2144(3)
N1 N 0.5000 0.2479(3) 0.0522(2)
C1 C 0.4712(3) 0.2468(3) 0.0724(3)
C2 C 0.4814(3) 0.2443(4) 0.1087(3)
H1 H 0.4665 0.2429 0.1284
C3 C 0.4373(2) 0.2500 0.0627(2)
C4 C 0.4093(4) 0.2500 0.0907(4)
C5 C 0.4028(4) 0.2791(5) 0.1088(4)
H2 H 0.4163 0.2994 0.1045
C6 C 0.3764(4) 0.2798(4) 0.1339(4)
H3 H 0.3709 0.3009 0.1457
C7 C 0.3587(3) 0.2500 0.1413(3)
C8 C 0.3303(4) 0.2500 0.1697(4)
O1UA O 0.3279(2) 0.2776(3) 0.1845(2)
N1UA N 0.4478(2) 0.2521(3) 0.0000
C1UA C 0.4276(3) 0.2532(3) 0.0288(3)
C2UA C 0.3913(3) 0.2557(4) 0.0186(3)
H1UA H 0.3716 0.2571 0.0335
C5UA C 0.3912(4) 0.2209(5) 0.0972(4)
H2UA H 0.3955 0.2006 0.0837
C6UA C 0.3661(4) 0.2202(4) 0.1236(4)
H3UA H 0.3543 0.1991 0.1291
O1AB O 0.6845(2) 0.2224(3) 0.1721(2)
C1AB C 0.5288(3) 0.2468(3) 0.0724(3)
C2AB C 0.5186(3) 0.2443(4) 0.1087(3)
H1AB H 0.5335 0.2429 0.1284
C3AB C 0.5627(2) 0.2500 0.0627(2)
C4AB C 0.5907(4) 0.2500 0.0907(4)
C5AB C 0.5972(4) 0.2791(5) 0.1088(4)
H2AB H 0.5837 0.2994 0.1045
C6AB C 0.6236(4) 0.2798(4) 0.1339(4)
H3AB H 0.6291 0.3009 0.1457
C7AB C 0.6413(3) 0.2500 0.1413(3)
C8AB C 0.6697(4) 0.2500 0.1697(4)
O1AC O 0.3279(2) 0.2776(3) -0.1845(2)
C1AC C 0.4276(3) 0.2532(3) -0.0288(3)
C2AC C 0.3913(3) 0.2557(4) -0.0186(3)
H1AC H 0.3716 0.2571 -0.0335
C3XA C 0.4373(2) 0.2500 -0.0627(2)
C4XA C 0.4093(4) 0.2500 -0.0907(4)
C5AC C 0.3912(4) 0.2209(5) -0.0972(4)
H2AC H 0.3955 0.2006 -0.0837
C6AC C 0.3661(4) 0.2202(4) -0.1236(4)
H3AC H 0.3543 0.1991 -0.1291
C7XA C 0.3587(3) 0.2500 -0.1413(3)
C8XA C 0.3303(4) 0.2500 -0.1697(4)
O1CC O 0.6721(2) 0.2776(3) 0.1845(2)
N1TA N 0.5522(2) 0.2521(3) 0.0000
C1CC C 0.5724(3) 0.2532(3) 0.0288(3)
C2CC C 0.6087(3) 0.2557(4) 0.0186(3)
H1CC H 0.6284 0.2571 0.0335
C5CC C 0.6088(4) 0.2209(5) 0.0972(4)
H2CC H 0.6045 0.2006 0.0837
C6CC C 0.6339(4) 0.2202(4) 0.1236(4)
H3CC H 0.6457 0.1991 0.1291
O1TA O 0.6721(2) 0.2776(3) -0.1845(2)
C1TA C 0.5724(3) 0.2532(3) -0.0288(3)
C2TA C 0.6087(3) 0.2557(4) -0.0186(3)
H1TA H 0.6284 0.2571 -0.0335
C3H C 0.5627(2) 0.2500 -0.0627(2)
C4H C 0.5907(4) 0.2500 -0.0907(4)
C5TA C 0.6088(4) 0.2209(5) -0.0972(4)
H2TA H 0.6045 0.2006 -0.0837
C6TA C 0.6339(4) 0.2202(4) -0.1236(4)
H3TA H 0.6457 0.1991 -0.1291
C7H C 0.6413(3) 0.2500 -0.1413(3)
C8H C 0.6697(4) 0.2500 -0.1697(4)
O1XA O 0.3155(2) 0.2224(3) -0.1721(2)
N1H N 0.5000 0.2479(3) -0.0522(2)
C1XA C 0.4712(3) 0.2468(3) -0.0724(3)
C2XA C 0.4814(3) 0.2443(4) -0.1087(3)
H1XA H 0.4665 0.2429 -0.1284
C5XA C 0.4028(4) 0.2791(5) -0.1088(4)
H2XA H 0.4163 0.2994 -0.1045
C6XA C 0.3764(4) 0.2798(4) -0.1339(4)
H3XA H 0.3709 0.3009 -0.1457
O1H O 0.6845(2) 0.2224(3) -0.1721(2)
C1H C 0.5288(3) 0.2468(3) -0.0724(3)
C2H C 0.5186(3) 0.2443(4) -0.1087(3)
H1H H 0.5335 0.2429 -0.1284
C5H C 0.5972(4) 0.2791(5) -0.1088(4)
H2H H 0.5837 0.2994 -0.1045
C6H C 0.6236(4) 0.2798(4) -0.1339(4)
H3H H 0.6291 0.3009 -0.1457
Hf1D Hf 0.27144(2) -0.20721(2) 0.20721(2)
Ir1D Ir 0.5000 0.0000 0.2500
Cl1D Cl 0.5000 0.0000 0.3143(11)
O1D O 0.3155(2) -0.1721(2) 0.2224(3)
O2D O 0.3056(4) -0.2422(3) 0.2422(3)
O3D O 0.2496(3) -0.1528(3) 0.1957(5)
O4C O 0.2144(3) -0.2144(3) 0.2144(3)
N1D N 0.5000 -0.0522(2) 0.2479(3)
C1D C 0.4712(3) -0.0724(3) 0.2468(3)
C2D C 0.4814(3) -0.1087(3) 0.2443(4)
H1D H 0.4665 -0.1284 0.2429
C3D C 0.4373(2) -0.0627(2) 0.2500
C4D C 0.4093(4) -0.0907(4) 0.2500
C5D C 0.4028(4) -0.1088(4) 0.2791(5)
H2D H 0.4163 -0.1045 0.2994
C6D C 0.3764(4) -0.1339(4) 0.2798(4)
H3D H 0.3709 -0.1457 0.3009
C7D C 0.3587(3) -0.1413(3) 0.2500
C8D C 0.3303(4) -0.1697(4) 0.2500
O1NA O 0.3279(2) -0.1845(2) 0.2776(3)
N1NA N 0.4478(2) 0.0000 0.2521(3)
C1NA C 0.4276(3) -0.0288(3) 0.2532(3)
C2NA C 0.3913(3) -0.0186(3) 0.2557(4)
H1NA H 0.3716 -0.0335 0.2571
C5NA C 0.3912(4) -0.0972(4) 0.2209(5)
H2NA H 0.3955 -0.0837 0.2006
C6NA C 0.3661(4) -0.1236(4) 0.2202(4)
H3NA H 0.3543 -0.1291 0.1991
O1BB O 0.6845(2) -0.1721(2) 0.2224(3)
C1BB C 0.5288(3) -0.0724(3) 0.2468(3)
C2BB C 0.5186(3) -0.1087(3) 0.2443(4)
H1BB H 0.5335 -0.1284 0.2429
C3BB C 0.5627(2) -0.0627(2) 0.2500
C4BB C 0.5907(4) -0.0907(4) 0.2500
C5BB C 0.5972(4) -0.1088(4) 0.2791(5)
H2BB H 0.5837 -0.1045 0.2994
C6BB C 0.6236(4) -0.1339(4) 0.2798(4)
H3BB H 0.6291 -0.1457 0.3009
C7BB C 0.6413(3) -0.1413(3) 0.2500
C8BB C 0.6697(4) -0.1697(4) 0.2500
O1DC O 0.3279(2) 0.1845(2) 0.2776(3)
C1DC C 0.4276(3) 0.0288(3) 0.2532(3)
C2DC C 0.3913(3) 0.0186(3) 0.2557(4)
H1DC H 0.3716 0.0335 0.2571
C3QB C 0.4373(2) 0.0627(2) 0.2500
C4QB C 0.4093(4) 0.0907(4) 0.2500
C5DC C 0.3912(4) 0.0972(4) 0.2209(5)
H2DC H 0.3955 0.0837 0.2006
C6DC C 0.3661(4) 0.1236(4) 0.2202(4)
H3DC H 0.3543 0.1291 0.1991
C7QB C 0.3587(3) 0.1413(3) 0.2500
C8QB C 0.3303(4) 0.1697(4) 0.2500
O1IC O 0.6721(2) -0.1845(2) 0.2776(3)
N1KA N 0.5522(2) 0.0000 0.2521(3)
C1IC C 0.5724(3) -0.0288(3) 0.2532(3)
C2IC C 0.6087(3) -0.0186(3) 0.2557(4)
H1IC H 0.6284 -0.0335 0.2571
C5IC C 0.6088(4) -0.0972(4) 0.2209(5)
H2IC H 0.6045 -0.0837 0.2006
C6IC C 0.6339(4) -0.1236(4) 0.2202(4)
H3IC H 0.6457 -0.1291 0.1991
O1KA O 0.6721(2) 0.1845(2) 0.2776(3)
C1KA C 0.5724(3) 0.0288(3) 0.2532(3)
C2KA C 0.6087(3) 0.0186(3) 0.2557(4)
H1KA H 0.6284 0.0335 0.2571
C3T C 0.5627(2) 0.0627(2) 0.2500
C4T C 0.5907(4) 0.0907(4) 0.2500
C5KA C 0.6088(4) 0.0972(4) 0.2209(5)
H2KA H 0.6045 0.0837 0.2006
C6KA C 0.6339(4) 0.1236(4) 0.2202(4)
H3KA H 0.6457 0.1291 0.1991
C7T C 0.6413(3) 0.1413(3) 0.2500
C8T C 0.6697(4) 0.1697(4) 0.2500
O1QB O 0.3155(2) 0.1721(2) 0.2224(3)
N1T N 0.5000 0.0522(2) 0.2479(3)
C1QB C 0.4712(3) 0.0724(3) 0.2468(3)
C2QB C 0.4814(3) 0.1087(3) 0.2443(4)
H1QB H 0.4665 0.1284 0.2429
C5QB C 0.4028(4) 0.1088(4) 0.2791(5)
H2QB H 0.4163 0.1045 0.2994
C6QB C 0.3764(4) 0.1339(4) 0.2798(4)
H3QB H 0.3709 0.1457 0.3009
O1T O 0.6845(2) 0.1721(2) 0.2224(3)
C1T C 0.5288(3) 0.0724(3) 0.2468(3)
C2T C 0.5186(3) 0.1087(3) 0.2443(4)
H1T H 0.5335 0.1284 0.2429
C5T C 0.5972(4) 0.1088(4) 0.2791(5)
H2T H 0.5837 0.1045 0.2994
C6T C 0.6236(4) 0.1339(4) 0.2798(4)
H3T H 0.6291 0.1457 0.3009
Hf1F Hf 0.27144(2) 0.20721(2) -0.20721(2)
Ir1F Ir 0.5000 0.0000 -0.2500
Cl1F Cl 0.5000 0.0000 -0.3143(11)
O1F O 0.3155(2) 0.1721(2) -0.2224(3)
O2F O 0.3056(4) 0.2422(3) -0.2422(3)
O3F O 0.2496(3) 0.1528(3) -0.1957(5)
O4F O 0.2144(3) 0.2144(3) -0.2144(3)
N1F N 0.5000 0.0522(2) -0.2479(3)
C1F C 0.4712(3) 0.0724(3) -0.2468(3)
C2F C 0.4814(3) 0.1087(3) -0.2443(4)
H1F H 0.4665 0.1284 -0.2429
C3F C 0.4373(2) 0.0627(2) -0.2500
C4F C 0.4093(4) 0.0907(4) -0.2500
C5F C 0.4028(4) 0.1088(4) -0.2791(5)
H2F H 0.4163 0.1045 -0.2994
C6F C 0.3764(4) 0.1339(4) -0.2798(4)
H3F H 0.3709 0.1457 -0.3009
C7F C 0.3587(3) 0.1413(3) -0.2500
C8F C 0.3303(4) 0.1697(4) -0.2500
O1MA O 0.3279(2) 0.1845(2) -0.2776(3)
N1MA N 0.4478(2) 0.0000 -0.2521(3)
C1MA C 0.4276(3) 0.0288(3) -0.2532(3)
C2MA C 0.3913(3) 0.0186(3) -0.2557(4)
H1MA H 0.3716 0.0335 -0.2571
C5MA C 0.3912(4) 0.0972(4) -0.2209(5)
H2MA H 0.3955 0.0837 -0.2006
C6MA C 0.3661(4) 0.1236(4) -0.2202(4)
H3MA H 0.3543 0.1291 -0.1991
O1ZA O 0.6845(2) 0.1721(2) -0.2224(3)
C1ZA C 0.5288(3) 0.0724(3) -0.2468(3)
C2ZA C 0.5186(3) 0.1087(3) -0.2443(4)
H1ZA H 0.5335 0.1284 -0.2429
C3ZA C 0.5627(2) 0.0627(2) -0.2500
C4ZA C 0.5907(4) 0.0907(4) -0.2500
C5ZA C 0.5972(4) 0.1088(4) -0.2791(5)
H2ZA H 0.5837 0.1045 -0.2994
C6ZA C 0.6236(4) 0.1339(4) -0.2798(4)
H3ZA H 0.6291 0.1457 -0.3009
C7ZA C 0.6413(3) 0.1413(3) -0.2500
C8ZA C 0.6697(4) 0.1697(4) -0.2500
O1GC O 0.3279(2) -0.1845(2) -0.2776(3)
C1GC C 0.4276(3) -0.0288(3) -0.2532(3)
C2GC C 0.3913(3) -0.0186(3) -0.2557(4)
H1GC H 0.3716 -0.0335 -0.2571
C3PB C 0.4373(2) -0.0627(2) -0.2500
C4PB C 0.4093(4) -0.0907(4) -0.2500
C5GC C 0.3912(4) -0.0972(4) -0.2209(5)
H2GC H 0.3955 -0.0837 -0.2006
C6GC C 0.3661(4) -0.1236(4) -0.2202(4)
H3GC H 0.3543 -0.1291 -0.1991
C7PB C 0.3587(3) -0.1413(3) -0.2500
C8PB C 0.3303(4) -0.1697(4) -0.2500
O1JC O 0.6721(2) 0.1845(2) -0.2776(3)
N1HA N 0.5522(2) 0.0000 -0.2521(3)
C1JC C 0.5724(3) 0.0288(3) -0.2532(3)
C2JC C 0.6087(3) 0.0186(3) -0.2557(4)
H1JC H 0.6284 0.0335 -0.2571
C5JC C 0.6088(4) 0.0972(4) -0.2209(5)
H2JC H 0.6045 0.0837 -0.2006
C6JC C 0.6339(4) 0.1236(4) -0.2202(4)
H3JC H 0.6457 0.1291 -0.1991
O1HA O 0.6721(2) -0.1845(2) -0.2776(3)
C1HA C 0.5724(3) -0.0288(3) -0.2532(3)
C2HA C 0.6087(3) -0.0186(3) -0.2557(4)
H1HA H 0.6284 -0.0335 -0.2571
C3U C 0.5627(2) -0.0627(2) -0.2500
C4U C 0.5907(4) -0.0907(4) -0.2500
C5HA C 0.6088(4) -0.0972(4) -0.2209(5)
H2HA H 0.6045 -0.0837 -0.2006
C6HA C 0.6339(4) -0.1236(4) -0.2202(4)
H3HA H 0.6457 -0.1291 -0.1991
C7U C 0.6413(3) -0.1413(3) -0.2500
C8U C 0.6697(4) -0.1697(4) -0.2500
O1PB O 0.3155(2) -0.1721(2) -0.2224(3)
N1U N 0.5000 -0.0522(2) -0.2479(3)
C1PB C 0.4712(3) -0.0724(3) -0.2468(3)
C2PB C 0.4814(3) -0.1087(3) -0.2443(4)
H1PB H 0.4665 -0.1284 -0.2429
C5PB C 0.4028(4) -0.1088(4) -0.2791(5)
H2PB H 0.4163 -0.1045 -0.2994
C6PB C 0.3764(4) -0.1339(4) -0.2798(4)
H3PB H 0.3709 -0.1457 -0.3009
O1U O 0.6845(2) -0.1721(2) -0.2224(3)
C1U C 0.5288(3) -0.0724(3) -0.2468(3)
C2U C 0.5186(3) -0.1087(3) -0.2443(4)
H1U H 0.5335 -0.1284 -0.2429
C5U C 0.5972(4) -0.1088(4) -0.2791(5)
H2U H 0.5837 -0.1045 -0.2994
C6U C 0.6236(4) -0.1339(4) -0.2798(4)
H3U H 0.6291 -0.1457 -0.3009
Hf1G Hf 0.20721(2) 0.20721(2) -0.27144(2)
O2G O 0.2422(3) 0.2422(3) -0.3056(4)
O3G O 0.1528(3) 0.1957(5) -0.2496(3)
Hf1H Hf 0.72856(2) 0.20721(2) -0.20721(2)
O2H O 0.6944(4) 0.2422(3) -0.2422(3)
O3H O 0.7504(3) 0.1957(5) -0.1528(3)
Hf1J Hf 0.20721(2) 0.27144(2) 0.20721(2)
O2J O 0.2422(3) 0.3056(4) 0.2422(3)
O3J O 0.1528(3) 0.2496(3) 0.1957(5)
Hf1K Hf 0.20721(2) 0.20721(2) 0.27144(2)
O2K O 0.2422(3) 0.2422(3) 0.3056(4)
O3K O 0.1957(5) 0.1528(3) 0.2496(3)
Hf1R Hf 0.20721(2) 0.27144(2) -0.20721(2)
O2R O 0.2422(3) 0.3056(4) -0.2422(3)
O3R O 0.1957(5) 0.2496(3) -0.1528(3)
Hf1T Hf 0.72856(2) 0.20721(2) 0.20721(2)
O2T O 0.6944(4) 0.2422(3) 0.2422(3)
O3T O 0.7504(3) 0.1528(3) 0.1957(5)
O4A O 0.7856(3) 0.2144(3) 0.2144(3)
Hf1U Hf 0.72856(2) -0.20721(2) -0.20721(2)
O2U O 0.6944(4) -0.2422(3) -0.2422(3)
O3U O 0.7504(3) -0.1528(3) -0.1957(5)
Hf1PA Hf 0.70721(2) -0.22856(2) 0.29279(2)
O2PA O 0.7422(3) -0.1944(4) 0.2578(3)
O3PA O 0.6957(5) -0.2504(3) 0.3472(3)
Hf1QA Hf 0.29279(2) 0.22856(2) 0.29279(2)
O2QA O 0.2578(3) 0.1944(4) 0.2578(3)
O3QA O 0.3043(5) 0.2504(3) 0.3472(3)
Cl1TA Cl 0.5000 0.1857(11) 0.0000
O3XA O 0.2496(3) 0.1957(5) -0.1528(3)
O3ZA O 0.7504(3) 0.1528(3) -0.1957(5)
O3AB O 0.7504(3) 0.1957(5) 0.1528(3)
Cl1KA Cl 0.5000 0.0000 0.1857(11)
O3QB O 0.2496(3) 0.1528(3) 0.1957(5)
O3DB O 0.2496(3) -0.1957(5) 0.1528(3)
O3HB O 0.1957(5) 0.1528(3) -0.2496(3)
O3OB O 0.1957(5) 0.2496(3) 0.1528(3)
O3SB O 0.1528(3) 0.1957(5) 0.2496(3)
Cl1HA Cl 0.5000 0.0000 -0.1857(11)
O3KB O 0.1528(3) 0.2496(3) -0.1957(5)
O3VA O 0.7504(3) -0.1957(5) -0.1528(3)
O3IC O 0.6528(3) -0.2504(3) 0.3043(5)
O3DC O 0.3472(3) 0.2504(3) 0.3043(5)
Hf1A Hf 0.79279(2) 0.27144(2) 0.20721(2)
Hf1B Hf 0.72856(2) -0.20721(2) 0.20721(2)
Hf1C Hf 0.20721(2) -0.27144(2) 0.20721(2)
Hf1E Hf 0.27144(2) -0.20721(2) -0.20721(2)
Hf1I Hf 0.79279(2) 0.20721(2) 0.27144(2)
Hf1L Hf 0.79279(2) -0.20721(2) 0.27144(2)
Hf1V Hf 0.20721(2) -0.20721(2) 0.27144(2)
Hf1Y Hf 0.29279(2) -0.22856(2) -0.29279(2)
Hf1Z Hf 0.22856(2) 0.29279(2) -0.29279(2)
Hf1AA Hf 0.70721(2) 0.22856(2) -0.29279(2)
Hf1HA Hf 0.70721(2) -0.22856(2) -0.29279(2)
Hf1IA Hf 0.70721(2) -0.29279(2) -0.22856(2)
Hf1JA Hf 0.29279(2) 0.29279(2) -0.22856(2)
Hf1KA Hf 0.70721(2) 0.22856(2) 0.29279(2)
Hf1LA Hf 0.29279(2) -0.29279(2) 0.22856(2)
Hf1MA Hf 0.29279(2) 0.22856(2) -0.29279(2)
Hf1NA Hf 0.29279(2) -0.22856(2) 0.29279(2)
Hf1OA Hf 0.70721(2) 0.29279(2) 0.22856(2)
Hf1SA Hf 0.22856(2) 0.29279(2) 0.29279(2)
Hf1TA Hf 0.70721(2) 0.29279(2) -0.22856(2)
Hf1UA Hf 0.29279(2) 0.29279(2) 0.22856(2)
O1G O 0.1721(2) 0.2224(3) -0.3155(2)
O1J O 0.1721(2) 0.3155(2) 0.2224(3)
O1K O 0.2224(3) 0.1721(2) 0.3155(2)
O1R O 0.2224(3) 0.3155(2) -0.1721(2)
O1PA O 0.7224(3) -0.1845(2) 0.3279(2)
O1QA O 0.2776(3) 0.1845(2) 0.3279(2)
O1VA O 0.6845(2) -0.2224(3) -0.1721(2)
O1DB O 0.3155(2) -0.2224(3) 0.1721(2)
O1HB O 0.2224(3) 0.1721(2) -0.3155(2)
O1KB O 0.1721(2) 0.3155(2) -0.2224(3)
O1OB O 0.2224(3) 0.3155(2) 0.1721(2)
O1SB O 0.1721(2) 0.2224(3) 0.3155(2)
O2B O 0.6944(4) -0.2422(3) 0.2422(3)
O2L O 0.7578(3) -0.2422(3) 0.3056(4)
O2Z O 0.1944(4) 0.2578(3) -0.2578(3)
O2AA O 0.7422(3) 0.1944(4) -0.2578(3)
O2HA O 0.7422(3) -0.1944(4) -0.2578(3)
O2IA O 0.7422(3) -0.2578(3) -0.1944(4)
O2JA O 0.2578(3) 0.2578(3) -0.1944(4)
O2KA O 0.7422(3) 0.1944(4) 0.2578(3)
O2LA O 0.2578(3) -0.2578(3) 0.1944(4)
O2MA O 0.2578(3) 0.1944(4) -0.2578(3)
O2NA O 0.2578(3) -0.1944(4) 0.2578(3)
O2OA O 0.7422(3) 0.2578(3) 0.1944(4)
O2SA O 0.1944(4) 0.2578(3) 0.2578(3)
O2TA O 0.7422(3) 0.2578(3) -0.1944(4)
O2UA O 0.2578(3) 0.2578(3) 0.1944(4)
O4H O 0.7856(3) 0.2144(3) -0.2144(3)
O4S O 0.7856(3) -0.2144(3) -0.2144(3)
O4DA O 0.7144(3) -0.2856(3) 0.2856(3)
O4QA O 0.2856(3) 0.2856(3) 0.2856(3)
loop_
_geom_bond_atom_site_label_1
_geom_bond_atom_site_label_2
_geom_bond_site_symmetry_1
_geom_bond_site_symmetry_2
Hf1 O1 1_555 1_555
Ir1 Cl1 1_555 1_555
O1 C8 1_555 1_555
O2 Hf1 1_555 1_555
O3 Hf1 1_555 1_555
O4 Hf1 1_555 1_555
N1 Ir1 1_555 1_555
C1 N1 1_555 1_555
C2 C1 1_555 1_555
H1 C2 1_555 1_555
C3 C1 1_555 1_555
C4 C3 1_555 1_555
C5 C4 1_555 1_555
H2 C5 1_555 1_555
C6 C5 1_555 1_555
H3 C6 1_555 1_555
C7 C6 1_555 1_555
C8 C7 1_555 1_555
O1UA C8 1_555 1_555
N1UA Ir1 1_555 1_555
C1UA C3 1_555 1_555
C2UA C1UA 1_555 1_555
H1UA C2UA 1_555 1_555
C5UA C4 1_555 1_555
H2UA C5UA 1_555 1_555
C6UA C7 1_555 1_555
H3UA C6UA 1_555 1_555
O1AB C8AB 1_555 1_555
C1AB N1 1_555 1_555
C2AB C2 1_555 1_555
H1AB C2AB 1_555 1_555
C3AB C1AB 1_555 1_555
C4AB C3AB 1_555 1_555
C5AB C4AB 1_555 1_555
H2AB C5AB 1_555 1_555
C6AB C5AB 1_555 1_555
H3AB C6AB 1_555 1_555
C7AB C6AB 1_555 1_555
C8AB C7AB 1_555 1_555
O1AC C8XA 1_555 1_555
C1AC N1UA 1_555 1_555
C2AC C2UA 1_555 1_555
H1AC C2AC 1_555 1_555
C3XA C1AC 1_555 1_555
C4XA C3XA 1_555 1_555
C5AC C4XA 1_555 1_555
H2AC C5AC 1_555 1_555
C6AC C5AC 1_555 1_555
H3AC C6AC 1_555 1_555
C7XA C6AC 1_555 1_555
C8XA C7XA 1_555 1_555
O1CC C8AB 1_555 1_555
N1TA Ir1 1_555 1_555
C1CC C3AB 1_555 1_555
C2CC C1CC 1_555 1_555
H1CC C2CC 1_555 1_555
C5CC C4AB 1_555 1_555
H2CC C5CC 1_555 1_555
C6CC C7AB 1_555 1_555
H3CC C6CC 1_555 1_555
O1TA C8H 1_555 1_555
C1TA N1TA 1_555 1_555
C2TA C2CC 1_555 1_555
H1TA C2TA 1_555 1_555
C3H C1TA 1_555 1_555
C4H C3H 1_555 1_555
C5TA C4H 1_555 1_555
H2TA C5TA 1_555 1_555
C6TA C5TA 1_555 1_555
H3TA C6TA 1_555 1_555
C7H C6TA 1_555 1_555
C8H C7H 1_555 1_555
O1XA C8XA 1_555 1_555
N1H Ir1 1_555 1_555
C1XA C3XA 1_555 1_555
C2XA C1XA 1_555 1_555
H1XA C2XA 1_555 1_555
C5XA C4XA 1_555 1_555
H2XA C5XA 1_555 1_555
C6XA C7XA 1_555 1_555
H3XA C6XA 1_555 1_555
O1H C8H 1_555 1_555
C1H C3H 1_555 1_555
C2H C2XA 1_555 1_555
H1H C2H 1_555 1_555
C5H C4H 1_555 1_555
H2H C5H 1_555 1_555
C6H C7H 1_555 1_555
H3H C6H 1_555 1_555
Hf1D O1D 1_555 1_555
Ir1D Cl1D 1_555 1_555
O1D C8D 1_555 1_555
O2D Hf1D 1_555 1_555
O3D Hf1D 1_555 1_555
O4C Hf1D 1_555 1_555
N1D Ir1D 1_555 1_555
C1D N1D 1_555 1_555
C2D C1D 1_555 1_555
H1D C2D 1_555 1_555
C3D C1D 1_555 1_555
C4D C3D 1_555 1_555
C5D C4D 1_555 1_555
H2D C5D 1_555 1_555
C6D C5D 1_555 1_555
H3D C6D 1_555 1_555
C7D C6D 1_555 1_555
C8D C7D 1_555 1_555
O1NA C8D 1_555 1_555
N1NA Ir1D 1_555 1_555
C1NA C3D 1_555 1_555
C2NA C1NA 1_555 1_555
H1NA C2NA 1_555 1_555
C5NA C4D 1_555 1_555
H2NA C5NA 1_555 1_555
C6NA C7D 1_555 1_555
H3NA C6NA 1_555 1_555
O1BB C8BB 1_555 1_555
C1BB N1D 1_555 1_555
C2BB C2D 1_555 1_555
H1BB C2BB 1_555 1_555
C3BB C1BB 1_555 1_555
C4BB C3BB 1_555 1_555
C5BB C4BB 1_555 1_555
H2BB C5BB 1_555 1_555
C6BB C5BB 1_555 1_555
H3BB C6BB 1_555 1_555
C7BB C6BB 1_555 1_555
C8BB C7BB 1_555 1_555
O1DC C8QB 1_555 1_555
C1DC N1NA 1_555 1_555
C2DC C2NA 1_555 1_555
H1DC C2DC 1_555 1_555
C3QB C1DC 1_555 1_555
C4QB C3QB 1_555 1_555
C5DC C4QB 1_555 1_555
H2DC C5DC 1_555 1_555
C6DC C5DC 1_555 1_555
H3DC C6DC 1_555 1_555
C7QB C6DC 1_555 1_555
C8QB C7QB 1_555 1_555
O1IC C8BB 1_555 1_555
N1KA Ir1D 1_555 1_555
C1IC C3BB 1_555 1_555
C2IC C1IC 1_555 1_555
H1IC C2IC 1_555 1_555
C5IC C4BB 1_555 1_555
H2IC C5IC 1_555 1_555
C6IC C7BB 1_555 1_555
H3IC C6IC 1_555 1_555
O1KA C8T 1_555 1_555
C1KA N1KA 1_555 1_555
C2KA C2IC 1_555 1_555
H1KA C2KA 1_555 1_555
C3T C1KA 1_555 1_555
C4T C3T 1_555 1_555
C5KA C4T 1_555 1_555
H2KA C5KA 1_555 1_555
C6KA C5KA 1_555 1_555
H3KA C6KA 1_555 1_555
C7T C6KA 1_555 1_555
C8T C7T 1_555 1_555
O1QB Hf1 1_555 1_555
N1T Ir1D 1_555 1_555
C1QB C3QB 1_555 1_555
C2QB C1QB 1_555 1_555
H1QB C2QB 1_555 1_555
C5QB C4QB 1_555 1_555
H2QB C5QB 1_555 1_555
C6QB C7QB 1_555 1_555
H3QB C6QB 1_555 1_555
O1T C8T 1_555 1_555
C1T C3T 1_555 1_555
C2T C2QB 1_555 1_555
H1T C2T 1_555 1_555
C5T C4T 1_555 1_555
H2T C5T 1_555 1_555
C6T C7T 1_555 1_555
H3T C6T 1_555 1_555
Hf1F O1XA 1_555 1_555
Ir1F Cl1F 1_555 1_555
O1F Hf1F 1_555 1_555
O2F Hf1F 1_555 1_555
O3F Hf1F 1_555 1_555
O4F Hf1F 1_555 1_555
N1F Ir1F 1_555 1_555
C1F N1F 1_555 1_555
C2F C1F 1_555 1_555
H1F C2F 1_555 1_555
C3F C1F 1_555 1_555
C4F C3F 1_555 1_555
C5F C4F 1_555 1_555
H2F C5F 1_555 1_555
C6F C5F 1_555 1_555
H3F C6F 1_555 1_555
C7F C6F 1_555 1_555
C8F O1F 1_555 1_555
O1MA C8F 1_555 1_555
N1MA Ir1F 1_555 1_555
C1MA C3F 1_555 1_555
C2MA C1MA 1_555 1_555
H1MA C2MA 1_555 1_555
C5MA C4F 1_555 1_555
H2MA C5MA 1_555 1_555
C6MA C7F 1_555 1_555
H3MA C6MA 1_555 1_555
O1ZA C8ZA 1_555 1_555
C1ZA N1F 1_555 1_555
C2ZA C2F 1_555 1_555
H1ZA C2ZA 1_555 1_555
C3ZA C1ZA 1_555 1_555
C4ZA C3ZA 1_555 1_555
C5ZA C4ZA 1_555 1_555
H2ZA C5ZA 1_555 1_555
C6ZA C5ZA 1_555 1_555
H3ZA C6ZA 1_555 1_555
C7ZA C6ZA 1_555 1_555
C8ZA C7ZA 1_555 1_555
O1GC C8PB 1_555 1_555
C1GC N1MA 1_555 1_555
C2GC C2MA 1_555 1_555
H1GC C2GC 1_555 1_555
C3PB C1GC 1_555 1_555
C4PB C3PB 1_555 1_555
C5GC C4PB 1_555 1_555
H2GC C5GC 1_555 1_555
C6GC C5GC 1_555 1_555
H3GC C6GC 1_555 1_555
C7PB C6GC 1_555 1_555
C8PB C7PB 1_555 1_555
O1JC C8ZA 1_555 1_555
N1HA Ir1F 1_555 1_555
C1JC C3ZA 1_555 1_555
C2JC C1JC 1_555 1_555
H1JC C2JC 1_555 1_555
C5JC C4ZA 1_555 1_555
H2JC C5JC 1_555 1_555
C6JC C7ZA 1_555 1_555
H3JC C6JC 1_555 1_555
O1HA C8U 1_555 1_555
C1HA N1HA 1_555 1_555
C2HA C2JC 1_555 1_555
H1HA C2HA 1_555 1_555
C3U C1HA 1_555 1_555
C4U C3U 1_555 1_555
C5HA C4U 1_555 1_555
H2HA C5HA 1_555 1_555
C6HA C5HA 1_555 1_555
H3HA C6HA 1_555 1_555
C7U C6HA 1_555 1_555
C8U C7U 1_555 1_555
O1PB C8PB 1_555 1_555
N1U Ir1F 1_555 1_555
C1PB C3PB 1_555 1_555
C2PB C1PB 1_555 1_555
H1PB C2PB 1_555 1_555
C5PB C4PB 1_555 1_555
H2PB C5PB 1_555 1_555
C6PB C7PB 1_555 1_555
H3PB C6PB 1_555 1_555
O1U C8U 1_555 1_555
C1U C3U 1_555 1_555
C2U C2PB 1_555 1_555
H1U C2U 1_555 1_555
C5U C4U 1_555 1_555
H2U C5U 1_555 1_555
C6U C7U 1_555 1_555
H3U C6U 1_555 1_555
Hf1G O4F 1_555 1_555
O2G Hf1G 1_555 1_555
O3G Hf1G 1_555 1_555
Hf1H O1H 1_555 1_555
O2H Hf1H 1_555 1_555
O3H Hf1H 1_555 1_555
Hf1J O4 1_555 1_555
O2J Hf1J 1_555 1_555
O3J Hf1J 1_555 1_555
Hf1K O4 1_555 1_555
O2K Hf1K 1_555 1_555
O3K Hf1K 1_555 1_555
Hf1R O4F 1_555 1_555
O2R Hf1R 1_555 1_555
O3R Hf1R 1_555 1_555
Hf1T O1AB 1_555 1_555
O2T Hf1T 1_555 1_555
O3T Hf1T 1_555 1_555
O4A Hf1T 1_555 1_555
Hf1U O1U 1_555 1_555
O2U Hf1U 1_555 1_555
O3U Hf1U 1_555 1_555
Hf1PA O1IC 1_555 1_555
O2PA Hf1PA 1_555 1_555
O3PA Hf1PA 1_555 1_555
Hf1QA O2 1_555 1_555
O2QA Hf1 1_555 1_555
O3QA Hf1QA 1_555 1_555
Cl1TA Ir1 1_555 1_555
O3XA Hf1F 1_555 1_555
O3ZA Hf1H 1_555 1_555
O3AB Hf1T 1_555 1_555
Cl1KA Ir1D 1_555 1_555
O3QB Hf1 1_555 1_555
O3DB Hf1D 1_555 1_555
O3HB Hf1G 1_555 1_555
O3OB Hf1J 1_555 1_555
O3SB Hf1K 1_555 1_555
Cl1HA Ir1F 1_555 1_555
O3KB Hf1R 1_555 1_555
O3VA Hf1U 1_555 1_555
O3IC Hf1PA 1_555 1_555
O3DC Hf1QA 1_555 1_555
Hf1A O4A 1_555 1_555
Hf1B O1BB 1_555 1_555
Hf1C O4C 1_555 1_555
Hf1E O1PB 1_555 1_555
Hf1I O4A 1_555 1_555
Hf1L O2PA 1_555 1_555
Hf1V O4C 1_555 1_555
Hf1Y O1GC 1_555 1_555
Hf1Z O2G 1_555 1_555
Hf1AA O1JC 1_555 1_555
Hf1HA O1HA 1_555 1_555
Hf1IA O2U 1_555 1_555
Hf1JA O1AC 1_555 1_555
Hf1KA O1KA 1_555 1_555
Hf1LA O2D 1_555 1_555
Hf1MA O2F 1_555 1_555
Hf1NA O2D 1_555 1_555
Hf1OA O1CC 1_555 1_555
Hf1SA O2J 1_555 1_555
Hf1TA O1TA 1_555 1_555
Hf1UA O2 1_555 1_555
O1G Hf1G 1_555 1_555
O1J Hf1J 1_555 1_555
O1K Hf1K 1_555 1_555
O1R Hf1R 1_555 1_555
O1PA Hf1PA 1_555 1_555
O1QA Hf1QA 1_555 1_555
O1VA Hf1U 1_555 1_555
O1DB Hf1D 1_555 1_555
O1HB Hf1G 1_555 1_555
O1KB Hf1R 1_555 1_555
O1OB Hf1J 1_555 1_555
O1SB Hf1K 1_555 1_555
O2B Hf1PA 1_555 1_555
O2L Hf1PA 1_555 1_555
O2Z Hf1G 1_555 1_555
O2AA Hf1H 1_555 1_555
O2HA Hf1U 1_555 1_555
O2IA Hf1U 1_555 1_555
O2JA Hf1F 1_555 1_555
O2KA Hf1T 1_555 1_555
O2LA Hf1D 1_555 1_555
O2MA Hf1F 1_555 1_555
O2NA Hf1D 1_555 1_555
O2OA Hf1T 1_555 1_555
O2SA Hf1J 1_555 1_555
O2TA Hf1H 1_555 1_555
O2UA Hf1 1_555 1_555
O4H Hf1H 1_555 1_555
O4S Hf1U 1_555 1_555
O4DA Hf1PA 1_555 1_555
O4QA Hf1QA 1_555 1_555
O1UA Hf1UA 1_555 1_555
N1UA C1UA 1_555 1_555
C5UA C6UA 1_555 1_555
C1AB C2AB 1_555 1_555
C1AC C2AC 1_555 1_555
N1TA C1CC 1_555 1_555
C5CC C6CC 1_555 1_555
C1TA C2TA 1_555 1_555
N1H C1XA 1_555 1_555
N1H C1H 1_555 1_555
C5XA C6XA 1_555 1_555
C1H C2H 1_555 1_555
C5H C6H 1_555 1_555
O1NA Hf1NA 1_555 1_555
N1NA C1NA 1_555 1_555
C5NA C6NA 1_555 1_555
C1BB C2BB 1_555 1_555
O1DC Hf1QA 1_555 1_555
C1DC C2DC 1_555 1_555
C8QB O1QB 1_555 1_555
N1KA C1IC 1_555 1_555
C5IC C6IC 1_555 1_555
C1KA C2KA 1_555 1_555
N1T C1QB 1_555 1_555
N1T C1T 1_555 1_555
C5QB C6QB 1_555 1_555
O1T Hf1T 1_555 1_555
C1T C2T 1_555 1_555
C5T C6T 1_555 1_555
O2F Hf1JA 1_555 1_555
C7F C8F 1_555 1_555
O1MA Hf1MA 1_555 1_555
N1MA C1MA 1_555 1_555
C5MA C6MA 1_555 1_555
O1ZA Hf1H 1_555 1_555
C1ZA C2ZA 1_555 1_555
C1GC C2GC 1_555 1_555
N1HA C1JC 1_555 1_555
C5JC C6JC 1_555 1_555
C1HA C2HA 1_555 1_555
N1U C1PB 1_555 1_555
N1U C1U 1_555 1_555
C5PB C6PB 1_555 1_555
C1U C2U 1_555 1_555
C5U C6U 1_555 1_555
Hf1G O2MA 1_555 1_555
O2G Hf1MA 1_555 1_555
O2H Hf1AA 1_555 1_555
O2H Hf1TA 1_555 1_555
Hf1J O2UA 1_555 1_555
O2J Hf1UA 1_555 1_555
Hf1K O2QA 1_555 1_555
Hf1K O2SA 1_555 1_555
O2K Hf1QA 1_555 1_555
O2K Hf1SA 1_555 1_555
Hf1R O2Z 1_555 1_555
Hf1R O2JA 1_555 1_555
O2R Hf1Z 1_555 1_555
O2R Hf1JA 1_555 1_555
O2T Hf1KA 1_555 1_555
O2T Hf1OA 1_555 1_555
O2U Hf1HA 1_555 1_555
O2PA Hf1B 1_555 1_555
Hf1QA O2QA 1_555 1_555
Hf1A O2OA 1_555 1_555
Hf1B O2B 1_555 1_555
Hf1C O2LA 1_555 1_555
Hf1I O2KA 1_555 1_555
Hf1L O2L 1_555 1_555
Hf1V O2NA 1_555 1_555
Hf1Z O2Z 1_555 1_555
Hf1AA O2AA 1_555 1_555
Hf1HA O2HA 1_555 1_555
Hf1IA O2IA 1_555 1_555
Hf1JA O2JA 1_555 1_555
Hf1KA O2KA 1_555 1_555
Hf1LA O2LA 1_555 1_555
Hf1MA O2MA 1_555 1_555
Hf1NA O2NA 1_555 1_555
Hf1OA O2OA 1_555 1_555
Hf1SA O2SA 1_555 1_555
Hf1SA O4QA 1_555 1_555
Hf1TA O2TA 1_555 1_555
Hf1UA O2UA 1_555 1_555
Hf1UA O4QA 1_555 1_555

#END
