
#######################################################################
#
#                 Cambridge Crystallographic Data Centre
#                                CCDC 
#
#######################################################################
#
# If this CIF has been generated from an entry in the Cambridge 
# Structural Database, then it will include bibliographic, chemical, 
# crystal, experimental, refinement or atomic coordinate data resulting 
# from the CCDC's data processing and validation procedures.
#
#######################################################################

data_DITXOU
_chemical_formula_moiety         '(C20 H17 N3 O10 Zn1)n'
_symmetry_cell_setting           monoclinic
_symmetry_space_group_name_H-M   'P 21/n'
_symmetry_Int_Tables_number      14
_space_group_name_Hall           '-P 2yn'
loop_
_symmetry_equiv_pos_site_id
_symmetry_equiv_pos_as_xyz
1 x,y,z
2 1/2-x,1/2+y,1/2-z
3 -x,-y,-z
4 1/2+x,1/2-y,1/2+z
_cell_length_a                   11.5837(13)
_cell_length_b                   14.7422(17)
_cell_length_c                   11.6194(13)
_cell_angle_alpha                90
_cell_angle_beta                 102.319(2)
_cell_angle_gamma                90
_cell_volume                     1938.55
loop_
_atom_site_label
_atom_site_type_symbol
_atom_site_fract_x
_atom_site_fract_y
_atom_site_fract_z
_atom_site_U_iso_or_equiv
_atom_site_thermal_displace_type
Zn1 Zn 0.992435(17) 0.032054(14) 0.749328(17) 0.0097 Uani
O1 O 0.77412(13) 0.00999(9) 0.48566(12) 0.0191 Uani
O3 O 0.86493(12) -0.04651(9) 0.66118(11) 0.0162 Uani
O5 O 0.82222(14) -0.16598(10) 0.22180(12) 0.0248 Uani
O6 O 0.93251(12) -0.08755(9) 0.36848(11) 0.0164 Uani
O7 O 0.58823(12) -0.43298(9) 0.33444(11) 0.0162 Uani
O8 O 0.73029(12) -0.49356(9) 0.47455(12) 0.0186 Uani
O9 O 0.57525(12) -0.41348(9) 0.62525(11) 0.0155 Uani
O10 O 0.63964(15) -0.30655(11) 0.75696(12) 0.0273 Uani
C11 C 0.77315(15) -0.15044(12) 0.51788(15) 0.0107 Uani
C12 C 0.79071(15) -0.19056(12) 0.41383(15) 0.0109 Uani
C13 C 0.75550(15) -0.28040(12) 0.38914(15) 0.0118 Uani
H16 H 0.7670 -0.3066 0.3196 0.0140 Uiso
C14 C 0.70378(15) -0.33205(12) 0.46506(15) 0.0110 Uani
C15 C 0.68644(15) -0.29188(12) 0.56935(15) 0.0112 Uani
C16 C 0.72034(15) -0.20181(12) 0.59319(15) 0.0119 Uani
H17 H 0.7072 -0.1751 0.6618 0.0140 Uiso
C17 C 0.80726(16) -0.05350(12) 0.55370(16) 0.0119 Uani
C18 C 0.85216(16) -0.14465(12) 0.32751(16) 0.0128 Uani
C19 C 0.67158(16) -0.42898(12) 0.42589(15) 0.0122 Uani
C20 C 0.63045(16) -0.34026(12) 0.65769(16) 0.0129 Uani
Zn1B Zn 1.007565(17) -0.032054(14) 0.250672(17) 0.0097 Uani
Zn1C Zn 0.492435(17) -0.532054(14) 0.249328(17) 0.0097 Uani
Zn1A Zn 0.507565(17) -0.467946(14) 0.750672(17) 0.0097 Uani
O6B O 1.06749(12) 0.08755(9) 0.63152(11) 0.0164 Uani
O7C O 1.08823(12) -0.06702(9) 0.83444(11) 0.0162 Uani
O9A O 0.92475(12) 0.08652(9) 0.87475(11) 0.0155 Uani
O2 O 1.32920(13) 0.02148(10) 0.20887(13) 0.0216 Uani
H1 H 1.302(2) 0.0108(17) 0.1404(15) 0.0260 Uiso
H2 H 1.2761(18) 0.0200(17) 0.2466(19) 0.0260 Uiso
O4 O 1.35267(15) -0.02162(12) 0.74943(15) 0.0308 Uani
H3 H 1.312(2) -0.0157(19) 0.6813(16) 0.0370 Uiso
H4 H 1.316(2) -0.0019(19) 0.7968(19) 0.0370 Uiso
N1 N 1.08528(15) -0.25937(13) 0.45468(15) 0.0217 Uani
H5 H 1.108(2) -0.2397(16) 0.3918(17) 0.0260 Uiso
N2 N 0.88361(16) -0.24144(14) 1.03686(16) 0.0257 Uani
H6 H 0.868(2) -0.2196(17) 1.1019(17) 0.0310 Uiso
N3 N 0.96535(16) -0.35484(11) 0.74055(14) 0.0186 Uani
H7 H 0.948(2) -0.4117(12) 0.736(2) 0.0220 Uiso
C1 C 1.09038(17) -0.20332(14) 0.54691(17) 0.0196 Uani
H8 H 1.1205 -0.1450 0.5443 0.0230 Uiso
C2 C 1.05165(16) -0.23121(13) 0.64464(17) 0.0165 Uani
H9 H 1.0560 -0.1924 0.7086 0.0200 Uiso
C3 C 1.00544(17) -0.31873(13) 0.64721(16) 0.0153 Uani
C4 C 1.00210(18) -0.37530(14) 0.54907(17) 0.0194 Uani
H10 H 0.9726 -0.4340 0.5488 0.0230 Uiso
C5 C 1.04225(19) -0.34388(15) 0.45411(17) 0.0224 Uani
H11 H 1.0397 -0.3811 0.3890 0.0270 Uiso
C6 C 0.88637(17) -0.18674(15) 0.94460(18) 0.0219 Uani
H12 H 0.8696 -0.1253 0.9493 0.0260 Uiso
C7 C 0.91350(16) -0.22060(13) 0.84420(17) 0.0169 Uani
H13 H 0.9150 -0.1826 0.7806 0.0200 Uiso
C8 C 0.93904(16) -0.31290(13) 0.83803(16) 0.0152 Uani
C9 C 0.93252(19) -0.36829(15) 0.93461(17) 0.0231 Uani
H14 H 0.9468 -0.4302 0.9318 0.0280 Uiso
C10 C 0.9050(2) -0.33057(16) 1.03291(19) 0.0283 Uani
H15 H 0.9011 -0.3670 1.0973 0.0340 Uiso
loop_
_atom_site_aniso_label
_atom_site_aniso_U_11
_atom_site_aniso_U_22
_atom_site_aniso_U_33
_atom_site_aniso_U_23
_atom_site_aniso_U_13
_atom_site_aniso_U_12
Zn1 0.01110(11) 0.00858(11) 0.00996(11) -0.00009(7) 0.00356(7) -0.00018(7)
O1 0.0261 0.0117 0.0187 0.002 0.0028 0.0002
O3 0.0205 0.0154 0.0123 -0.0027 0.0025 -0.0063
O5 0.0381 0.0264 0.0125 -0.0031 0.011 -0.0086
O6 0.0172 0.017 0.0165 0.0018 0.0068 -0.0041
O7 0.0188 0.0127 0.0153 -0.001 -0.0003 -0.003
O8 0.0234 0.0117 0.019 0.0007 0.0007 0.0023
O9 0.0191 0.0145 0.014 0.0015 0.0058 -0.0047
O10 0.0426 0.0277 0.0164 -0.0064 0.0172 -0.0129
C11 0.01 0.0107 0.0112 0 0.0016 -0.0005
C12 0.0121 0.0117 0.009 0.0013 0.0026 -0.0005
C13 0.0134 0.0122 0.0097 -0.001 0.0025 0
C14 0.0106 0.0111 0.011 -0.0006 0.0018 -0.0008
C15 0.0103 0.0131 0.0103 0.0018 0.0023 -0.0013
C16 0.0136 0.0122 0.0103 -0.0022 0.0033 -0.0009
C17 0.0125 0.0111 0.0133 -0.0012 0.0055 -0.002
C18 0.0156 0.01 0.0142 0.0024 0.0063 0.003
C19 0.0155 0.0121 0.0111 -0.0013 0.0072 -0.003
C20 0.0111 0.0138 0.0149 0.0023 0.0055 0.0003
Zn1B 0.0111 0.00858 0.00996 -9e-05 0.00356 -0.00018
Zn1C 0.0111 0.00858 0.00996 9e-05 0.00356 0.00018
Zn1A 0.0111 0.00858 0.00996 9e-05 0.00356 0.00018
O6B 0.0172(7) 0.0170(7) 0.0165(6) 0.0018(5) 0.0068(5) -0.0041(5)
O7C 0.0188 0.0127 0.0153 0.001 -0.0003 0.003
O9A 0.0191 0.0145 0.014 -0.0015 0.0058 0.0047
O2 0.0215(7) 0.0255(8) 0.0180(7) -0.0021(6) 0.0048(6) -0.0004(6)
O4 0.0290(9) 0.0372(10) 0.0255(8) 0.0009(7) 0.0042(7) 0.0065(7)
N1 0.0204(8) 0.0294(10) 0.0171(8) 0.0088(7) 0.0083(7) 0.0054(7)
N2 0.0221(9) 0.0399(11) 0.0170(9) -0.0128(8) 0.0087(7) -0.0086(8)
N3 0.0314(9) 0.0104(8) 0.0165(8) -0.0004(6) 0.0110(7) -0.0016(7)
C1 0.0142(9) 0.0232(11) 0.0210(10) 0.0062(8) 0.0029(7) 0.0002(8)
C2 0.0144(9) 0.0176(10) 0.0167(9) 0.0006(7) 0.0018(7) 0.0004(7)
C3 0.0164(9) 0.0152(9) 0.0147(9) 0.0021(7) 0.0043(7) 0.0039(7)
C4 0.0240(10) 0.0165(10) 0.0182(9) -0.0012(8) 0.0059(8) 0.0029(8)
C5 0.0259(11) 0.0274(11) 0.0153(9) -0.0008(8) 0.0072(8) 0.0078(9)
C6 0.0147(9) 0.0261(11) 0.0242(10) -0.0097(8) 0.0023(8) -0.0004(8)
C7 0.0132(9) 0.0192(10) 0.0179(9) -0.0019(7) 0.0025(7) -0.0013(7)
C8 0.0149(9) 0.0180(9) 0.0132(9) -0.0014(7) 0.0040(7) -0.0028(7)
C9 0.0318(11) 0.0212(10) 0.0170(10) 0.0008(8) 0.0071(8) -0.0067(9)
C10 0.0323(12) 0.0361(13) 0.0188(10) -0.0022(9) 0.0105(9) -0.0149(10)
loop_
_geom_bond_atom_site_label_1
_geom_bond_atom_site_label_2
_geom_bond_site_symmetry_1
_geom_bond_site_symmetry_2
Zn1 O3 1_555 1_555
O1 C17 1_555 1_555
O2 H1 1_555 1_555
H2 O2 1_555 1_555
O3 C17 1_555 1_555
O4 H3 1_555 1_555
H4 O4 1_555 1_555
O5 C18 1_555 1_555
O6 C18 1_555 1_555
O7 C19 1_555 1_555
O8 C19 1_555 1_555
O9 C20 1_555 1_555
O10 C20 1_555 1_555
N1 H5 1_555 1_555
N2 H6 1_555 1_555
N3 H7 1_555 1_555
C1 N1 1_555 1_555
H8 C1 1_555 1_555
C2 C1 1_555 1_555
H9 C2 1_555 1_555
C3 N3 1_555 1_555
C4 C3 1_555 1_555
H10 C4 1_555 1_555
C5 N1 1_555 1_555
H11 C5 1_555 1_555
C6 N2 1_555 1_555
H12 C6 1_555 1_555
C7 C6 1_555 1_555
H13 C7 1_555 1_555
C8 N3 1_555 1_555
C9 C8 1_555 1_555
H14 C9 1_555 1_555
C10 N2 1_555 1_555
H15 C10 1_555 1_555
C11 C12 1_555 1_555
C12 C13 1_555 1_555
C13 H16 1_555 1_555
C14 C13 1_555 1_555
C15 C14 1_555 1_555
C16 C11 1_555 1_555
H17 C16 1_555 1_555
C17 C11 1_555 1_555
C18 C12 1_555 1_555
C19 C14 1_555 1_555
C20 C15 1_555 1_555
Zn1B O6 1_555 1_555
Zn1C O7 1_555 1_555
Zn1A O9 1_555 1_555
O6B Zn1 1_555 1_555
O7C Zn1 1_555 1_555
O9A Zn1 1_555 1_555
C2 C3 1_555 1_555
C4 C5 1_555 1_555
C7 C8 1_555 1_555
C9 C10 1_555 1_555
C15 C16 1_555 1_555

#END
