
#######################################################################
#
#                 Cambridge Crystallographic Data Centre
#                                CCDC 
#
#######################################################################
#
# If this CIF has been generated from an entry in the Cambridge 
# Structural Database, then it will include bibliographic, chemical, 
# crystal, experimental, refinement or atomic coordinate data resulting 
# from the CCDC's data processing and validation procedures.
#
#######################################################################

data_JALCAD
_chemical_formula_moiety         '(C48 H30 Al6 N6 O33)n'
_symmetry_cell_setting           cubic
_symmetry_space_group_name_H-M   'P -4 3 n'
_symmetry_Int_Tables_number      218
_space_group_name_Hall           'P -4n 2 3'
loop_
_symmetry_equiv_pos_site_id
_symmetry_equiv_pos_as_xyz
1 x,y,z
2 1/2+y,1/2-x,1/2-z
3 -x,-y,z
4 1/2-y,1/2+x,1/2-z
5 1/2-x,1/2+z,1/2-y
6 x,-y,-z
7 1/2-x,1/2-z,1/2+y
8 1/2-z,1/2-y,1/2+x
9 -x,y,-z
10 1/2+z,1/2-y,1/2-x
11 z,x,y
12 y,z,x
13 -y,-z,x
14 z,-x,-y
15 -y,z,-x
16 -z,-x,y
17 -z,x,-y
18 y,-z,-x
19 1/2-y,1/2-x,1/2+z
20 1/2+y,1/2+x,1/2+z
21 1/2+x,1/2-z,1/2-y
22 1/2+x,1/2+z,1/2+y
23 1/2-z,1/2+y,1/2-x
24 1/2+z,1/2+y,1/2+x
_cell_length_a                   21.4934(5)
_cell_length_b                   21.4934(5)
_cell_length_c                   21.4934(5)
_cell_angle_alpha                90
_cell_angle_beta                 90
_cell_angle_gamma                90
_cell_volume                     9929.23
loop_
_atom_site_label
_atom_site_type_symbol
_atom_site_fract_x
_atom_site_fract_y
_atom_site_fract_z
Al1 Al 0.26072(3) 0.19852(3) 0.31923(3)
C1 C 0.45670(11) 0.21435(14) 0.33007(13)
C2 C 0.51089(11) 0.21889(12) 0.29435(13)
H1 H 0.5089 0.2301 0.2516
C3 C 0.56837(11) 0.20653(13) 0.32299(13)
C4 C 0.57052(13) 0.1952(2) 0.38539(14)
H2 H 0.6096 0.1887 0.4050
C5 C 0.51682(13) 0.1930(3) 0.42029(15)
C6 C 0.45909(12) 0.2023(2) 0.39172(13)
H3 H 0.4219 0.2003 0.4155
C7 C 0.39346(10) 0.22341(11) 0.30089(12)
C8 C 0.62813(10) 0.20719(11) 0.28809(12)
N1 N 0.52400(12) 0.1912(2) 0.48586(13)
O1 O 0.34830(7) 0.19978(8) 0.33058(8)
O2 O 0.38945(7) 0.25297(8) 0.25128(9)
O3 O 0.67323(7) 0.18120(9) 0.31413(8)
O4 O 0.62961(7) 0.23320(9) 0.23604(9)
O5 O 0.25938(7) 0.25938(7) 0.25938(7)
O6 O 0.26163(9) 0.13362(10) 0.38139(9)
H4 H 0.2872(14) 0.1272(17) 0.4139(12)
C1H C 0.54330(11) 0.21435(14) 0.66993(13)
C2H C 0.48911(11) 0.21889(12) 0.70565(13)
H1H H 0.4911 0.2301 0.7484
C3H C 0.43163(11) 0.20653(13) 0.67701(13)
C4H C 0.42948(13) 0.1952(2) 0.61461(14)
H2H H 0.3904 0.1887 0.5950
C5H C 0.48318(13) 0.1930(3) 0.57971(15)
C6H C 0.54091(12) 0.2023(2) 0.60828(13)
H3H H 0.5781 0.2003 0.5845
C7H C 0.60654(10) 0.22341(11) 0.69911(12)
C8H C 0.37187(10) 0.20719(11) 0.71191(12)
N1H N 0.47600(12) 0.1912(2) 0.51414(13)
O1H O 0.65170(7) 0.19978(8) 0.66942(8)
O2H O 0.61055(7) 0.25297(8) 0.74872(9)
O3H O 0.32677(7) 0.18120(9) 0.68587(8)
O4H O 0.37039(7) 0.23320(9) 0.76396(9)
Al1A Al 0.69852(3) 0.23928(3) 0.18077(3)
O6A O 0.63362(10) 0.23837(9) 0.11861(9)
H4A H 0.6272(17) 0.2128(14) 0.0861(12)
Al1F Al 0.23928(3) 0.18077(3) 0.69852(3)
O6F O 0.23837(9) 0.11861(9) 0.63362(10)
H4F H 0.2128(14) 0.0861(12) 0.6272(17)
C1G C 1.16993(13) 0.28565(14) -0.04330(11)
C2G C 1.20565(13) 0.28111(12) 0.01089(11)
H1G H 1.2484 0.2699 0.0089
C3G C 1.17701(13) 0.29347(13) 0.06837(11)
C4G C 1.11461(14) 0.3048(2) 0.07052(13)
H2G H 1.0950 0.3113 0.1096
C5G C 1.07971(15) 0.3070(3) 0.01682(13)
C6G C 1.10828(13) 0.2977(2) -0.04091(12)
H3G H 1.0845 0.2997 -0.0781
C7G C 1.19911(12) 0.27659(11) -0.10654(10)
C8G C 1.21191(12) 0.29281(11) 0.12813(10)
N1G N 1.01414(13) 0.3088(2) 0.02400(12)
O1G O 1.16942(8) 0.30022(8) -0.15170(7)
O2G O 1.24872(9) 0.24703(8) -0.11055(7)
O3G O 1.18587(8) 0.31880(9) 0.17323(7)
O4G O 1.26396(9) 0.26680(9) 0.12961(7)
C1I C 0.83007(13) 0.28565(14) 0.04330(11)
C2I C 0.79435(13) 0.28111(12) -0.01089(11)
H1I H 0.7516 0.2699 -0.0089
C3I C 0.82299(13) 0.29347(13) -0.06837(11)
C4I C 0.88539(14) 0.3048(2) -0.07052(13)
H2I H 0.9050 0.3113 -0.1096
C5I C 0.92029(15) 0.3070(3) -0.01682(13)
C6I C 0.89172(13) 0.2977(2) 0.04091(12)
H3I H 0.9155 0.2997 0.0781
C7I C 0.80089(12) 0.27659(11) 0.10654(10)
C8I C 0.78809(12) 0.29281(11) -0.12813(10)
N1I N 0.98586(13) 0.3088(2) -0.02400(12)
O1I O 0.83058(8) 0.30022(8) 0.15170(7)
O2I O 0.75128(9) 0.24703(8) 0.11055(7)
O3I O 0.81413(8) 0.31880(9) -0.17323(7)
O4I O 0.73604(9) 0.26680(9) -0.12961(7)
Al1K Al 0.19852(3) 0.31923(3) 0.26072(3)
C1K C 0.21435(14) 0.33007(13) 0.45670(11)
C2K C 0.21889(12) 0.29435(13) 0.51089(11)
H1K H 0.2301 0.2516 0.5089
C3K C 0.20653(13) 0.32299(13) 0.56837(11)
C4K C 0.1952(2) 0.38539(14) 0.57052(13)
H2K H 0.1887 0.4050 0.6096
C5K C 0.1930(3) 0.42029(15) 0.51682(13)
C6K C 0.2023(2) 0.39172(13) 0.45909(12)
H3K H 0.2003 0.4155 0.4219
C7K C 0.22341(11) 0.30089(12) 0.39346(10)
C8K C 0.20719(11) 0.28809(12) 0.62813(10)
N1K N 0.1912(2) 0.48586(13) 0.52400(12)
O1K O 0.19978(8) 0.33058(8) 0.34830(7)
O2K O 0.25297(8) 0.25128(9) 0.38945(7)
O3K O 0.18120(9) 0.31413(8) 0.67323(7)
O4K O 0.23320(9) 0.23604(9) 0.62961(7)
O6K O 0.13362(10) 0.38139(9) 0.26163(9)
H4K H 0.1272(17) 0.4139(12) 0.2872(14)
C1Q C 0.21435(14) 0.66993(13) 0.54330(11)
C2Q C 0.21889(12) 0.70565(13) 0.48911(11)
H1Q H 0.2301 0.7484 0.4911
C3Q C 0.20653(13) 0.67701(13) 0.43163(11)
C4Q C 0.1952(2) 0.61461(14) 0.42948(13)
H2Q H 0.1887 0.5950 0.3904
C5Q C 0.1930(3) 0.57971(15) 0.48318(13)
C6Q C 0.2023(2) 0.60828(13) 0.54091(12)
H3Q H 0.2003 0.5845 0.5781
C7Q C 0.22341(11) 0.69911(12) 0.60654(10)
C8Q C 0.20719(11) 0.71191(12) 0.37187(10)
N1Q N 0.1912(2) 0.51414(13) 0.47600(12)
O1Q O 0.19978(8) 0.66942(8) 0.65170(7)
O2Q O 0.25297(8) 0.74872(9) 0.61055(7)
O3Q O 0.18120(9) 0.68587(8) 0.32677(7)
O4Q O 0.23320(9) 0.76396(9) 0.37039(7)
Al1J Al 0.31923(3) 0.26072(3) 0.19852(3)
O6J O 0.38139(9) 0.26163(9) 0.13362(10)
H4J H 0.4139(12) 0.2872(14) 0.1272(17)
Al1T Al 0.76072(3) 0.18077(3) 0.30148(3)
O6T O 0.76163(9) 0.11861(9) 0.36638(10)
H4T H 0.7872(14) 0.0861(12) 0.3728(17)
O5A O 0.75938(7) 0.24062(7) 0.24062(7)
Al1D Al 0.23928(3) 0.81923(3) 0.30148(3)
Al1E Al 0.26072(3) 0.80148(3) 0.68077(3)
Al1G Al 0.18077(3) 0.30148(3) 0.76072(3)
Al1G_2 Al 1.18077(3) 0.30148(3) -0.23928(3)
Al1H Al 0.73928(3) 0.19852(3) 0.68077(3)
Al1I Al 0.81923(3) 0.30148(3) 0.23928(3)
Al1J_2 Al 1.31923(3) 0.26072(3) 0.19852(3)
Al1K_2 Al 1.19852(3) 0.31923(3) 0.26072(3)
Al1N Al 0.80148(3) 0.31923(3) -0.26072(3)
Al1P Al 0.68077(3) 0.26072(3) -0.19852(3)
Al1P_2 Al 0.68077(3) 0.26072(3) 0.80148(3)
Al1Q Al 0.19852(3) 0.68077(3) 0.73928(3)
Al1R Al 0.30148(3) 0.23928(3) 0.81923(3)
Al1R_2 Al 1.30148(3) 0.23928(3) -0.18077(3)
Al1V Al 0.18077(3) 0.69852(3) 0.23928(3)
O1A O 0.69978(8) 0.15170(7) 0.16942(8)
O1F O 0.15170(7) 0.16942(8) 0.69978(8)
O1J O 0.33058(8) 0.34830(7) 0.19978(8)
O1T O 0.84830(7) 0.16942(8) 0.30022(8)
O2A O 0.75297(8) 0.11055(7) 0.24872(9)
O2J O 0.25128(9) 0.38945(7) 0.25297(8)
O2R O 0.24703(8) 0.11055(7) 0.75128(9)
O3C O 0.31880(9) 0.17323(7) 0.18587(8)
O3G_2 O 0.18587(8) 0.31880(9) 0.17323(7)
O3O O 0.68587(8) 0.32677(7) 0.18120(9)
O3T O 0.17323(7) 0.18587(8) 0.31880(9)
O4C O 0.26680(9) 0.12961(7) 0.26396(9)
O4G_2 O 0.26396(9) 0.26680(9) 0.12961(7)
O4N O 0.76680(9) 0.23604(9) 0.37039(7)
O4T O 0.12961(7) 0.26396(9) 0.26680(9)
O5F O 0.24062(7) 0.24062(7) 0.75938(7)
O7 O 0.3045(4) 0.1436(6) 0.5081(4)
loop_
_geom_bond_atom_site_label_1
_geom_bond_atom_site_label_2
_geom_bond_site_symmetry_1
_geom_bond_site_symmetry_2
Al1 O1 1_555 1_555
C1 C2 1_555 1_555
C2 H1 1_555 1_555
C3 C2 1_555 1_555
C4 C3 1_555 1_555
H2 C4 1_555 1_555
C5 C4 1_555 1_555
C6 C1 1_555 1_555
H3 C6 1_555 1_555
C7 C1 1_555 1_555
C8 C3 1_555 1_555
N1 C5 1_555 1_555
O1 C7 1_555 1_555
O2 C7 1_555 1_555
O3 C8 1_555 1_555
O4 C8 1_555 1_555
O5 Al1 1_555 1_555
O6 Al1 1_555 1_555
H4 O6 1_555 1_555
C1H C2H 1_555 1_555
C2H H1H 1_555 1_555
C3H C2H 1_555 1_555
C4H C3H 1_555 1_555
H2H C4H 1_555 1_555
C5H C4H 1_555 1_555
C6H C1H 1_555 1_555
H3H C6H 1_555 1_555
C7H C1H 1_555 1_555
C8H C3H 1_555 1_555
N1H N1 1_555 1_555
O1H C7H 1_555 1_555
O2H C7H 1_555 1_555
O3H C8H 1_555 1_555
O4H C8H 1_555 1_555
Al1A O4 1_555 1_555
O6A Al1A 1_555 1_555
H4A O6A 1_555 1_555
Al1F O3H 1_555 1_555
O6F Al1F 1_555 1_555
H4F O6F 1_555 1_555
C1G C2G 1_555 1_555
C2G H1G 1_555 1_555
C3G C2G 1_555 1_555
C4G C3G 1_555 1_555
H2G C4G 1_555 1_555
C5G C4G 1_555 1_555
C6G C1G 1_555 1_555
H3G C6G 1_555 1_555
C7G C1G 1_555 1_555
C8G C3G 1_555 1_555
N1G C5G 1_555 1_555
O1G C7G 1_555 1_555
O2G C7G 1_555 1_555
O3G C8G 1_555 1_555
O4G C8G 1_555 1_555
C1I C2I 1_555 1_555
C2I H1I 1_555 1_555
C3I C2I 1_555 1_555
C4I C3I 1_555 1_555
H2I C4I 1_555 1_555
C5I C4I 1_555 1_555
C6I C1I 1_555 1_555
H3I C6I 1_555 1_555
C7I C1I 1_555 1_555
C8I C3I 1_555 1_555
N1I N1G 1_555 1_555
O1I C7I 1_555 1_555
O2I Al1A 1_555 1_555
O3I C8I 1_555 1_555
O4I C8I 1_555 1_555
Al1K O5 1_555 1_555
C1K C2K 1_555 1_555
C2K H1K 1_555 1_555
C3K C2K 1_555 1_555
C4K C3K 1_555 1_555
H2K C4K 1_555 1_555
C5K C4K 1_555 1_555
C6K C1K 1_555 1_555
H3K C6K 1_555 1_555
C7K C1K 1_555 1_555
C8K C3K 1_555 1_555
N1K C5K 1_555 1_555
O1K Al1K 1_555 1_555
O2K Al1 1_555 1_555
O3K C8K 1_555 1_555
O4K Al1F 1_555 1_555
O6K Al1K 1_555 1_555
H4K O6K 1_555 1_555
C1Q C2Q 1_555 1_555
C2Q H1Q 1_555 1_555
C3Q C2Q 1_555 1_555
C4Q C3Q 1_555 1_555
H2Q C4Q 1_555 1_555
C5Q C4Q 1_555 1_555
C6Q C1Q 1_555 1_555
H3Q C6Q 1_555 1_555
C7Q C1Q 1_555 1_555
C8Q C3Q 1_555 1_555
N1Q N1K 1_555 1_555
O1Q C7Q 1_555 1_555
O2Q C7Q 1_555 1_555
O3Q C8Q 1_555 1_555
O4Q C8Q 1_555 1_555
Al1J O2 1_555 1_555
O6J Al1J 1_555 1_555
H4J O6J 1_555 1_555
Al1T O3 1_555 1_555
O6T Al1T 1_555 1_555
H4T O6T 1_555 1_555
O5A Al1A 1_555 1_555
Al1D O4Q 1_555 1_555
Al1E O2Q 1_555 1_555
Al1G O3K 1_555 1_555
Al1G_2 O1G 1_555 1_555
Al1H O1H 1_555 1_555
Al1I O1I 1_555 1_555
Al1J_2 O4G 1_555 1_555
Al1K_2 O3G 1_555 1_555
Al1N O3I 1_555 1_555
Al1P O4I 1_555 1_555
Al1P_2 O2H 1_555 1_555
Al1Q O1Q 1_555 1_555
Al1R O4H 1_555 1_555
Al1R_2 O2G 1_555 1_555
Al1V O3Q 1_555 1_555
O1A Al1A 1_555 1_555
O1F Al1F 1_555 1_555
O1J Al1J 1_555 1_555
O1T Al1T 1_555 1_555
O2A Al1T 1_555 1_555
O2J Al1K 1_555 1_555
O2R Al1F 1_555 1_555
O3C Al1J 1_555 1_555
O3G_2 Al1K 1_555 1_555
O3O Al1A 1_555 1_555
O3T Al1 1_555 1_555
O4C Al1 1_555 1_555
O4G_2 Al1J 1_555 1_555
O4N Al1T 1_555 1_555
O4T Al1K 1_555 1_555
O5F Al1F 1_555 1_555
C5 C6 1_555 1_555
O5 Al1J 1_555 1_555
C5H C6H 1_555 1_555
C5H N1H 1_555 1_555
C5G C6G 1_555 1_555
C5I C6I 1_555 1_555
C5I N1I 1_555 1_555
C7I O2I 1_555 1_555
C5K C6K 1_555 1_555
C7K O1K 1_555 1_555
C7K O2K 1_555 1_555
C8K O4K 1_555 1_555
C5Q C6Q 1_555 1_555
C5Q N1Q 1_555 1_555
Al1T O5A 1_555 1_555
O5A Al1I 1_555 1_555
Al1G O5F 1_555 1_555
Al1R O5F 1_555 1_555

#END
