
#######################################################################
#
#                 Cambridge Crystallographic Data Centre
#                                CCDC 
#
#######################################################################
#
# If this CIF has been generated from an entry in the Cambridge 
# Structural Database, then it will include bibliographic, chemical, 
# crystal, experimental, refinement or atomic coordinate data resulting 
# from the CCDC's data processing and validation procedures.
#
#######################################################################

data_BINRUN
_chemical_formula_moiety         '(C78 H48 O15 Zn3)n'
_symmetry_cell_setting           cubic
_symmetry_space_group_name_H-M   'P n -3 n'
_symmetry_Int_Tables_number      222
_space_group_name_Hall           '-P 4a 2bc 3'
loop_
_symmetry_equiv_pos_site_id
_symmetry_equiv_pos_as_xyz
1 x,y,z
2 1/2-x,1/2-y,z
3 1/2-x,y,1/2-z
4 x,1/2-y,1/2-z
5 z,x,y
6 z,1/2-x,1/2-y
7 1/2-z,1/2-x,y
8 1/2-z,x,1/2-y
9 y,z,x
10 1/2-y,z,1/2-x
11 y,1/2-z,1/2-x
12 1/2-y,1/2-z,x
13 y,x,1/2-z
14 1/2-y,1/2-x,1/2-z
15 y,1/2-x,z
16 1/2-y,x,z
17 x,z,1/2-y
18 1/2-x,z,y
19 1/2-x,1/2-z,1/2-y
20 x,1/2-z,y
21 z,y,1/2-x
22 z,1/2-y,x
23 1/2-z,y,x
24 1/2-z,1/2-y,1/2-x
25 -x,-y,-z
26 1/2+x,1/2+y,-z
27 1/2+x,-y,1/2+z
28 -x,1/2+y,1/2+z
29 -z,-x,-y
30 -z,1/2+x,1/2+y
31 1/2+z,1/2+x,-y
32 1/2+z,-x,1/2+y
33 -y,-z,-x
34 1/2+y,-z,1/2+x
35 -y,1/2+z,1/2+x
36 1/2+y,1/2+z,-x
37 -y,-x,1/2+z
38 1/2+y,1/2+x,1/2+z
39 -y,1/2+x,-z
40 1/2+y,-x,-z
41 -x,-z,1/2+y
42 1/2+x,-z,-y
43 1/2+x,1/2+z,1/2+y
44 -x,1/2+z,-y
45 -z,-y,1/2+x
46 -z,1/2+y,-x
47 1/2+z,-y,-x
48 1/2+z,1/2+y,1/2+x
_cell_length_a                   32.8643(15)
_cell_length_b                   32.8643(15)
_cell_length_c                   32.8643(15)
_cell_angle_alpha                90
_cell_angle_beta                 90
_cell_angle_gamma                90
_cell_volume                     35495.5
loop_
_atom_site_label
_atom_site_type_symbol
_atom_site_fract_x
_atom_site_fract_y
_atom_site_fract_z
_atom_site_U_iso_or_equiv
_atom_site_thermal_displace_type
Zn1 Zn 0.2500 0.7500 0.045884(13) 0.0669 Uani
O1 O 0.21607(6) 0.79849(5) 0.02870(6) 0.0957 Uani
O2 O 0.21549(6) 0.79970(5) -0.03962(6) 0.0936 Uani
O3 O 0.2500 0.7500 0.10704(10) 0.1280 Uani
C1 C 0.20583(8) 0.81293(8) -0.00526(10) 0.0875 Uani
C2 C 0.17987(8) 0.85059(8) -0.00396(8) 0.0891 Uani
C3 C 0.16978(7) 0.86765(8) 0.03249(8) 0.0874 Uani
H1 H 0.1790 0.8553 0.0570 0.1050 Uiso
C4 C 0.14619(7) 0.90287(8) 0.03439(9) 0.0951 Uani
C5 C 0.13501(8) 0.92109(9) 0.07061(9) 0.1012 Uani
H2 H 0.1451 0.9105 0.0955 0.1210 Uiso
C6 C 0.10931(9) 0.95451(9) 0.07115(10) 0.1122 Uani
H3 H 0.1020 0.9664 0.0965 0.1350 Uiso
C7 C 0.09426(10) 0.97080(10) 0.03561(11) 0.1280 Uani
C8 C 0.10429(10) 0.95316(10) -0.00077(9) 0.1173 Uani
H4 H 0.0931 0.9640 -0.0251 0.1410 Uiso
C9 C 0.13049(8) 0.91963(9) -0.00330(9) 0.1015 Uani
C10 C 0.14229(9) 0.90115(10) -0.03978(9) 0.1144 Uani
H5 H 0.1338 0.9130 -0.0647 0.1370 Uiso
C11 C 0.16523(8) 0.86720(9) -0.04095(8) 0.1020 Uani
H6 H 0.1715 0.8546 -0.0662 0.1220 Uiso
C12 C 0.06463(11) 1.00506(11) 0.03571(11) 0.1367 Uani
C13 C 0.06556(11) 1.03488(11) 0.00614(12) 0.1437 Uani
H7 H 0.0867 1.0350 -0.0135 0.1730 Uiso
O1D O 0.02870(6) 1.21607(6) -0.20151(5) 0.0957 Uani
O2D O -0.03962(6) 1.21549(6) -0.20030(5) 0.0936 Uani
C1D C -0.00526(10) 1.20583(8) -0.18707(8) 0.0875 Uani
C2D C -0.00396(8) 1.17987(8) -0.14941(8) 0.0891 Uani
C3D C 0.03249(8) 1.16978(7) -0.13235(8) 0.0874 Uani
H1D H 0.0570 1.1790 -0.1447 0.1050 Uiso
C4D C 0.03439(9) 1.14619(7) -0.09713(8) 0.0951 Uani
C5D C 0.07061(9) 1.13501(8) -0.07891(9) 0.1012 Uani
H2D H 0.0955 1.1451 -0.0895 0.1210 Uiso
C6D C 0.07115(10) 1.10931(9) -0.04549(9) 0.1122 Uani
H3D H 0.0965 1.1020 -0.0336 0.1350 Uiso
C7D C 0.03561(11) 1.09426(10) -0.02920(10) 0.1280 Uani
C8D C -0.00077(9) 1.10429(10) -0.04684(10) 0.1173 Uani
H4D H -0.0251 1.0931 -0.0360 0.1410 Uiso
C9D C -0.00330(9) 1.13049(8) -0.08037(9) 0.1015 Uani
C10D C -0.03978(9) 1.14229(9) -0.09885(10) 0.1144 Uani
H5D H -0.0647 1.1338 -0.0870 0.1370 Uiso
C11D C -0.04095(8) 1.16523(8) -0.13280(9) 0.1020 Uani
H6D H -0.0662 1.1715 -0.1454 0.1220 Uiso
C12D C 0.03571(11) 1.06463(11) 0.00506(11) 0.1367 Uani
C13D C 0.00614(12) 1.06556(11) 0.03488(11) 0.1437 Uani
H7D H -0.0135 1.0867 0.0350 0.1730 Uiso
O1H O -0.20151(5) 1.02870(6) 0.21607(6) 0.0957 Uani
O2H O -0.20030(5) 0.96038(6) 0.21549(6) 0.0936 Uani
C1H C -0.18707(8) 0.99474(10) 0.20583(8) 0.0875 Uani
C2H C -0.14941(8) 0.99604(8) 0.17987(8) 0.0891 Uani
C3H C -0.13235(8) 1.03249(8) 0.16978(7) 0.0874 Uani
H1H H -0.1447 1.0570 0.1790 0.1050 Uiso
C4H C -0.09713(8) 1.03439(9) 0.14619(7) 0.0951 Uani
C5H C -0.07891(9) 1.07061(9) 0.13501(8) 0.1012 Uani
H2H H -0.0895 1.0955 0.1451 0.1210 Uiso
C6H C -0.04549(9) 1.07115(10) 0.10931(9) 0.1122 Uani
H3H H -0.0336 1.0965 0.1020 0.1350 Uiso
C7H C -0.02920(10) 1.03561(11) 0.09426(10) 0.1280 Uani
C8H C -0.04684(10) 0.99923(9) 0.10429(10) 0.1173 Uani
H4H H -0.0360 0.9749 0.0931 0.1410 Uiso
C9H C -0.08037(9) 0.99670(9) 0.13049(8) 0.1015 Uani
C10H C -0.09885(10) 0.96022(9) 0.14229(9) 0.1144 Uani
H5H H -0.0870 0.9353 0.1338 0.1370 Uiso
C11H C -0.13280(9) 0.95905(8) 0.16523(8) 0.1020 Uani
H6H H -0.1454 0.9338 0.1715 0.1220 Uiso
C12H C 0.00506(11) 1.03571(11) 0.06463(11) 0.1367 Uani
C13H C 0.03488(11) 1.00614(12) 0.06556(11) 0.1437 Uani
H7H H 0.0350 0.9865 0.0867 0.1730 Uiso
O1A O 0.28393(6) 0.70151(5) 0.02870(6) 0.0957 Uani
O2A O 0.28451(6) 0.70030(5) -0.03962(6) 0.0936 Uani
C1A C 0.29417(8) 0.68707(8) -0.00526(10) 0.0875 Uani
C2A C 0.32013(8) 0.64941(8) -0.00396(8) 0.0891 Uani
C3A C 0.33022(7) 0.63235(8) 0.03249(8) 0.0874 Uani
H1A H 0.3210 0.6447 0.0570 0.1050 Uiso
C4A C 0.35381(7) 0.59713(8) 0.03439(9) 0.0951 Uani
C5A C 0.36499(8) 0.57891(9) 0.07061(9) 0.1012 Uani
H2A H 0.3549 0.5895 0.0955 0.1210 Uiso
C6A C 0.39069(9) 0.54549(9) 0.07115(10) 0.1122 Uani
H3A H 0.3980 0.5336 0.0965 0.1350 Uiso
C7A C 0.40574(10) 0.52920(10) 0.03561(11) 0.1280 Uani
C8A C 0.39571(10) 0.54684(10) -0.00077(9) 0.1173 Uani
H4A H 0.4069 0.5360 -0.0251 0.1410 Uiso
C9A C 0.36951(8) 0.58037(9) -0.00330(9) 0.1015 Uani
C10A C 0.35771(9) 0.59885(10) -0.03978(9) 0.1144 Uani
H5A H 0.3662 0.5870 -0.0647 0.1370 Uiso
C11A C 0.33477(8) 0.63280(9) -0.04095(8) 0.1020 Uani
H6A H 0.3285 0.6454 -0.0662 0.1220 Uiso
C12A C 0.43537(11) 0.49494(11) 0.03571(11) 0.1367 Uani
C13A C 0.43444(11) 0.46512(11) 0.00614(12) 0.1437 Uani
H7A H 0.4133 0.4650 -0.0135 0.1730 Uiso
O1F O 0.47130(6) 0.28393(6) -0.20151(5) 0.0957 Uani
O2F O 0.53962(6) 0.28451(6) -0.20030(5) 0.0936 Uani
C1F C 0.50526(10) 0.29417(8) -0.18707(8) 0.0875 Uani
C2F C 0.50396(8) 0.32013(8) -0.14941(8) 0.0891 Uani
C3F C 0.46751(8) 0.33022(7) -0.13235(8) 0.0874 Uani
H1F H 0.4430 0.3210 -0.1447 0.1050 Uiso
C4F C 0.46561(9) 0.35381(7) -0.09713(8) 0.0951 Uani
C5F C 0.42939(9) 0.36499(8) -0.07891(9) 0.1012 Uani
H2F H 0.4045 0.3549 -0.0895 0.1210 Uiso
C6F C 0.42885(10) 0.39069(9) -0.04549(9) 0.1122 Uani
H3F H 0.4035 0.3980 -0.0336 0.1350 Uiso
C7F C 0.46439(11) 0.40574(10) -0.02920(10) 0.1280 Uani
C8F C 0.50077(9) 0.39571(10) -0.04684(10) 0.1173 Uani
H4F H 0.5251 0.4069 -0.0360 0.1410 Uiso
C9F C 0.50330(9) 0.36951(8) -0.08037(9) 0.1015 Uani
C10F C 0.53978(9) 0.35771(9) -0.09885(10) 0.1144 Uani
H5F H 0.5647 0.3662 -0.0870 0.1370 Uiso
C11F C 0.54095(8) 0.33477(8) -0.13280(9) 0.1020 Uani
H6F H 0.5662 0.3285 -0.1454 0.1220 Uiso
C12F C 0.46429(11) 0.43537(11) 0.00506(11) 0.1367 Uani
C13F C 0.49386(12) 0.43444(11) 0.03488(11) 0.1437 Uani
H7F H 0.5135 0.4133 0.0350 0.1730 Uiso
O1K O 0.70151(5) 0.47130(6) 0.21607(6) 0.0957 Uani
O2K O 0.70030(5) 0.53962(6) 0.21549(6) 0.0936 Uani
C1K C 0.68707(8) 0.50526(10) 0.20583(8) 0.0875 Uani
C2K C 0.64941(8) 0.50396(8) 0.17987(8) 0.0891 Uani
C3K C 0.63235(8) 0.46751(8) 0.16978(7) 0.0874 Uani
H1K H 0.6447 0.4430 0.1790 0.1050 Uiso
C4K C 0.59713(8) 0.46561(9) 0.14619(7) 0.0951 Uani
C5K C 0.57891(9) 0.42939(9) 0.13501(8) 0.1012 Uani
H2K H 0.5895 0.4045 0.1451 0.1210 Uiso
C6K C 0.54549(9) 0.42885(10) 0.10931(9) 0.1122 Uani
H3K H 0.5336 0.4035 0.1020 0.1350 Uiso
C7K C 0.52920(10) 0.46439(11) 0.09426(10) 0.1280 Uani
C8K C 0.54684(10) 0.50077(9) 0.10429(10) 0.1173 Uani
H4K H 0.5360 0.5251 0.0931 0.1410 Uiso
C9K C 0.58037(9) 0.50330(9) 0.13049(8) 0.1015 Uani
C10K C 0.59885(10) 0.53978(9) 0.14229(9) 0.1144 Uani
H5K H 0.5870 0.5647 0.1338 0.1370 Uiso
C11K C 0.63280(9) 0.54095(8) 0.16523(8) 0.1020 Uani
H6K H 0.6454 0.5662 0.1715 0.1220 Uiso
C12K C 0.49494(11) 0.46429(11) 0.06463(11) 0.1367 Uani
C13K C 0.46512(11) 0.49386(12) 0.06556(11) 0.1437 Uani
H7K H 0.4650 0.5135 0.0867 0.1730 Uiso
Zn1LA Zn 0.2500 0.7500 -0.045884(13) 0.0669 Uani
O3LA O 0.2500 0.7500 -0.10704(10) 0.1280 Uani
Zn1D Zn 0.045884(13) 1.2500 -0.2500 0.0669 Uani
O3D O 0.10704(10) 1.2500 -0.2500 0.1280 Uani
Zn1F Zn 0.454116(13) 0.2500 -0.2500 0.0669 Uani
Zn1H Zn -0.2500 1.045884(13) 0.2500 0.0669 Uani
Zn1J Zn 0.7500 0.454116(13) 0.2500 0.0669 Uani
Zn1NA Zn -0.2500 0.954116(13) 0.2500 0.0669 Uani
Zn1PA Zn 0.7500 0.545884(13) 0.2500 0.0669 Uani
Zn1RA Zn -0.045884(13) 1.2500 -0.2500 0.0669 Uani
Zn1TA Zn 0.545884(13) 0.2500 -0.2500 0.0669 Uani
O1E O 0.02870(6) 1.28393(6) -0.29849(5) 0.0957 Uani
O1LA O 0.20151(5) 0.71607(6) -0.02870(6) 0.0957 Uani
O1MA O 0.29849(5) 0.78393(6) -0.02870(6) 0.0957 Uani
O2LA O 0.20030(5) 0.71549(6) 0.03962(6) 0.0936 Uani
O2MA O 0.29970(5) 0.78451(6) 0.03962(6) 0.0936 Uani
O2RA O 0.03962(6) 1.20030(5) -0.28451(6) 0.0936 Uani
O2SA O 0.03962(6) 1.29970(5) -0.21549(6) 0.0936 Uani
loop_
_atom_site_aniso_label
_atom_site_aniso_U_11
_atom_site_aniso_U_22
_atom_site_aniso_U_33
_atom_site_aniso_U_23
_atom_site_aniso_U_13
_atom_site_aniso_U_12
Zn1 0.0710(3) 0.0609(3) 0.0687(3) 0.000 0.000 0.00703(14)
O1 0.1019(13) 0.0783(11) 0.1069(13) 0.0216(9) 0.0026(10) 0.0302(9)
O2 0.0957(12) 0.0824(11) 0.1026(13) 0.0133(9) 0.0042(10) 0.0228(9)
O3 0.189(4) 0.117(2) 0.078(2) 0.000 0.000 0.0216(17)
C1 0.0775(15) 0.0790(15) 0.106(2) 0.0193(14) 0.0081(13) 0.0085(12)
C2 0.0753(14) 0.0869(16) 0.1050(19) 0.0321(13) 0.0065(12) 0.0161(12)
C3 0.0721(13) 0.0901(16) 0.1001(17) 0.0363(14) 0.0124(12) 0.0184(12)
C4 0.0750(14) 0.0968(17) 0.1135(19) 0.0442(15) 0.0289(13) 0.0313(13)
C5 0.0898(16) 0.1059(19) 0.1079(18) 0.0428(16) 0.0251(14) 0.0329(14)
C6 0.114(2) 0.1007(18) 0.122(2) 0.0456(17) 0.0458(18) 0.0469(17)
C7 0.116(2) 0.131(2) 0.137(2) 0.079(2) 0.072(2) 0.0745(19)
C8 0.1063(19) 0.137(2) 0.1087(19) 0.0660(18) 0.0438(17) 0.0648(18)
C9 0.0846(16) 0.1130(19) 0.1068(19) 0.0515(16) 0.0316(14) 0.0416(14)
C10 0.1032(19) 0.143(2) 0.0969(19) 0.0556(18) 0.0230(15) 0.0527(18)
C11 0.0943(17) 0.111(2) 0.1007(18) 0.0340(15) 0.0182(14) 0.0369(15)
C12 0.131(3) 0.133(3) 0.146(3) 0.084(2) 0.081(2) 0.082(2)
C13 0.137(3) 0.141(3) 0.153(3) 0.076(2) 0.093(3) 0.078(2)
O1D 0.1069 0.1019 0.0783 0.0302 0.0216 0.0026
O2D 0.1026 0.0957 0.0824 0.0228 0.0133 0.0042
C1D 0.106 0.0775 0.079 0.0085 0.0193 0.0081
C2D 0.105 0.0753 0.0869 0.0161 0.0321 0.0065
C3D 0.1001 0.0721 0.0901 0.0184 0.0363 0.0124
C4D 0.1135 0.075 0.0968 0.0313 0.0442 0.0289
C5D 0.1079 0.0898 0.1059 0.0329 0.0428 0.0251
C6D 0.122 0.114 0.1007 0.0469 0.0456 0.0458
C7D 0.137 0.116 0.131 0.0745 0.079 0.072
C8D 0.1087 0.1063 0.137 0.0648 0.066 0.0438
C9D 0.1068 0.0846 0.113 0.0416 0.0515 0.0316
C10D 0.0969 0.1032 0.143 0.0527 0.0556 0.023
C11D 0.1007 0.0943 0.111 0.0369 0.034 0.0182
C12D 0.146 0.131 0.133 0.082 0.084 0.081
C13D 0.153 0.137 0.141 0.078 0.076 0.093
O1H 0.0783 0.1069 0.1019 0.0026 0.0302 0.0216
O2H 0.0824 0.1026 0.0957 0.0042 0.0228 0.0133
C1H 0.079 0.106 0.0775 0.0081 0.0085 0.0193
C2H 0.0869 0.105 0.0753 0.0065 0.0161 0.0321
C3H 0.0901 0.1001 0.0721 0.0124 0.0184 0.0363
C4H 0.0968 0.1135 0.075 0.0289 0.0313 0.0442
C5H 0.1059 0.1079 0.0898 0.0251 0.0329 0.0428
C6H 0.1007 0.122 0.114 0.0458 0.0469 0.0456
C7H 0.131 0.137 0.116 0.072 0.0745 0.079
C8H 0.137 0.1087 0.1063 0.0438 0.0648 0.066
C9H 0.113 0.1068 0.0846 0.0316 0.0416 0.0515
C10H 0.143 0.0969 0.1032 0.023 0.0527 0.0556
C11H 0.111 0.1007 0.0943 0.0182 0.0369 0.034
C12H 0.133 0.146 0.131 0.081 0.082 0.084
C13H 0.141 0.153 0.137 0.093 0.078 0.076
O1A 0.1019 0.0783 0.1069 -0.0216 -0.0026 0.0302
O2A 0.0957 0.0824 0.1026 -0.0133 -0.0042 0.0228
C1A 0.0775 0.079 0.106 -0.0193 -0.0081 0.0085
C2A 0.0753 0.0869 0.105 -0.0321 -0.0065 0.0161
C3A 0.0721 0.0901 0.1001 -0.0363 -0.0124 0.0184
C4A 0.075 0.0968 0.1135 -0.0442 -0.0289 0.0313
C5A 0.0898 0.1059 0.1079 -0.0428 -0.0251 0.0329
C6A 0.114 0.1007 0.122 -0.0456 -0.0458 0.0469
C7A 0.116 0.131 0.137 -0.079 -0.072 0.0745
C8A 0.1063 0.137 0.1087 -0.066 -0.0438 0.0648
C9A 0.0846 0.113 0.1068 -0.0515 -0.0316 0.0416
C10A 0.1032 0.143 0.0969 -0.0556 -0.023 0.0527
C11A 0.0943 0.111 0.1007 -0.034 -0.0182 0.0369
C12A 0.131 0.133 0.146 -0.084 -0.081 0.082
C13A 0.137 0.141 0.153 -0.076 -0.093 0.078
O1F 0.1069 0.1019 0.0783 -0.0302 -0.0216 0.0026
O2F 0.1026 0.0957 0.0824 -0.0228 -0.0133 0.0042
C1F 0.106 0.0775 0.079 -0.0085 -0.0193 0.0081
C2F 0.105 0.0753 0.0869 -0.0161 -0.0321 0.0065
C3F 0.1001 0.0721 0.0901 -0.0184 -0.0363 0.0124
C4F 0.1135 0.075 0.0968 -0.0313 -0.0442 0.0289
C5F 0.1079 0.0898 0.1059 -0.0329 -0.0428 0.0251
C6F 0.122 0.114 0.1007 -0.0469 -0.0456 0.0458
C7F 0.137 0.116 0.131 -0.0745 -0.079 0.072
C8F 0.1087 0.1063 0.137 -0.0648 -0.066 0.0438
C9F 0.1068 0.0846 0.113 -0.0416 -0.0515 0.0316
C10F 0.0969 0.1032 0.143 -0.0527 -0.0556 0.023
C11F 0.1007 0.0943 0.111 -0.0369 -0.034 0.0182
C12F 0.146 0.131 0.133 -0.082 -0.084 0.081
C13F 0.153 0.137 0.141 -0.078 -0.076 0.093
O1K 0.0783 0.1069 0.1019 -0.0026 -0.0302 0.0216
O2K 0.0824 0.1026 0.0957 -0.0042 -0.0228 0.0133
C1K 0.079 0.106 0.0775 -0.0081 -0.0085 0.0193
C2K 0.0869 0.105 0.0753 -0.0065 -0.0161 0.0321
C3K 0.0901 0.1001 0.0721 -0.0124 -0.0184 0.0363
C4K 0.0968 0.1135 0.075 -0.0289 -0.0313 0.0442
C5K 0.1059 0.1079 0.0898 -0.0251 -0.0329 0.0428
C6K 0.1007 0.122 0.114 -0.0458 -0.0469 0.0456
C7K 0.131 0.137 0.116 -0.072 -0.0745 0.079
C8K 0.137 0.1087 0.1063 -0.0438 -0.0648 0.066
C9K 0.113 0.1068 0.0846 -0.0316 -0.0416 0.0515
C10K 0.143 0.0969 0.1032 -0.023 -0.0527 0.0556
C11K 0.111 0.1007 0.0943 -0.0182 -0.0369 0.034
C12K 0.133 0.146 0.131 -0.081 -0.082 0.084
C13K 0.141 0.153 0.137 -0.093 -0.078 0.076
Zn1LA 0.0609 0.071 0.0687 0 0 -0.00703
O3LA 0.117 0.189 0.078 0 0 -0.0216
Zn1D 0.0687 0.071 0.0609 0.00703 0 0
O3D 0.078 0.189 0.117 0.0216 0 0
Zn1F 0.0687 0.071 0.0609 -0.00703 0 0
Zn1H 0.0609 0.0687 0.071 0 0.00703 0
Zn1J 0.0609 0.0687 0.071 0 -0.00703 0
Zn1NA 0.071 0.0687 0.0609 0 -0.00703 0
Zn1PA 0.071 0.0687 0.0609 0 0.00703 0
Zn1RA 0.0687 0.0609 0.071 -0.00703 0 0
Zn1TA 0.0687 0.0609 0.071 0.00703 0 0
O1E 0.1069 0.1019 0.0783 0.0302 -0.0216 -0.0026
O1LA 0.0783 0.1019 0.1069 -0.0026 0.0216 -0.0302
O1MA 0.0783 0.1019 0.1069 0.0026 -0.0216 -0.0302
O2LA 0.0824 0.0957 0.1026 -0.0042 0.0133 -0.0228
O2MA 0.0824 0.0957 0.1026 0.0042 -0.0133 -0.0228
O2RA 0.1026 0.0824 0.0957 -0.0228 -0.0042 0.0133
O2SA 0.1026 0.0824 0.0957 -0.0228 0.0042 -0.0133
loop_
_geom_bond_atom_site_label_1
_geom_bond_atom_site_label_2
_geom_bond_site_symmetry_1
_geom_bond_site_symmetry_2
Zn1 O1 1_555 1_555
O1 C1 1_555 1_555
O2 C1 1_555 1_555
O3 Zn1 1_555 1_555
C1 C2 1_555 1_555
C2 C3 1_555 1_555
C3 H1 1_555 1_555
C4 C3 1_555 1_555
C5 C4 1_555 1_555
H2 C5 1_555 1_555
C6 C5 1_555 1_555
H3 C6 1_555 1_555
C7 C6 1_555 1_555
C8 C7 1_555 1_555
H4 C8 1_555 1_555
C9 C4 1_555 1_555
C10 C9 1_555 1_555
H5 C10 1_555 1_555
C11 C2 1_555 1_555
H6 C11 1_555 1_555
C12 C7 1_555 1_555
C13 C12 1_555 1_555
H7 C13 1_555 1_555
O1D C1D 1_555 1_555
O2D C1D 1_555 1_555
C1D C2D 1_555 1_555
C2D C3D 1_555 1_555
C3D H1D 1_555 1_555
C4D C3D 1_555 1_555
C5D C4D 1_555 1_555
H2D C5D 1_555 1_555
C6D C5D 1_555 1_555
H3D C6D 1_555 1_555
C7D C6D 1_555 1_555
C8D C7D 1_555 1_555
H4D C8D 1_555 1_555
C9D C4D 1_555 1_555
C10D C9D 1_555 1_555
H5D C10D 1_555 1_555
C11D C2D 1_555 1_555
H6D C11D 1_555 1_555
C12D C13 1_555 1_555
C13D C12D 1_555 1_555
H7D C13D 1_555 1_555
O1H C1H 1_555 1_555
O2H C1H 1_555 1_555
C1H C2H 1_555 1_555
C2H C3H 1_555 1_555
C3H H1H 1_555 1_555
C4H C3H 1_555 1_555
C5H C4H 1_555 1_555
H2H C5H 1_555 1_555
C6H C5H 1_555 1_555
H3H C6H 1_555 1_555
C7H C6H 1_555 1_555
C8H C7H 1_555 1_555
H4H C8H 1_555 1_555
C9H C4H 1_555 1_555
C10H C9H 1_555 1_555
H5H C10H 1_555 1_555
C11H C2H 1_555 1_555
H6H C11H 1_555 1_555
C12H C13D 1_555 1_555
C13H C12 1_555 1_555
H7H C13H 1_555 1_555
O1A Zn1 1_555 1_555
O2A C1A 1_555 1_555
C1A O1A 1_555 1_555
C2A C1A 1_555 1_555
C3A C2A 1_555 1_555
H1A C3A 1_555 1_555
C4A C3A 1_555 1_555
C5A C4A 1_555 1_555
H2A C5A 1_555 1_555
C6A C5A 1_555 1_555
H3A C6A 1_555 1_555
C7A C6A 1_555 1_555
C8A C7A 1_555 1_555
H4A C8A 1_555 1_555
C9A C4A 1_555 1_555
C10A C9A 1_555 1_555
H5A C10A 1_555 1_555
C11A C2A 1_555 1_555
H6A C11A 1_555 1_555
C12A C7A 1_555 1_555
C13A C12A 1_555 1_555
H7A C13A 1_555 1_555
O1F C1F 1_555 1_555
O2F C1F 1_555 1_555
C1F C2F 1_555 1_555
C2F C3F 1_555 1_555
C3F H1F 1_555 1_555
C4F C3F 1_555 1_555
C5F C4F 1_555 1_555
H2F C5F 1_555 1_555
C6F C5F 1_555 1_555
H3F C6F 1_555 1_555
C7F C6F 1_555 1_555
C8F C7F 1_555 1_555
H4F C8F 1_555 1_555
C9F C4F 1_555 1_555
C10F C9F 1_555 1_555
H5F C10F 1_555 1_555
C11F C2F 1_555 1_555
H6F C11F 1_555 1_555
C12F C13A 1_555 1_555
C13F C12F 1_555 1_555
H7F C13F 1_555 1_555
O1K C1K 1_555 1_555
O2K C1K 1_555 1_555
C1K C2K 1_555 1_555
C2K C3K 1_555 1_555
C3K H1K 1_555 1_555
C4K C3K 1_555 1_555
C5K C4K 1_555 1_555
H2K C5K 1_555 1_555
C6K C5K 1_555 1_555
H3K C6K 1_555 1_555
C7K C6K 1_555 1_555
C8K C7K 1_555 1_555
H4K C8K 1_555 1_555
C9K C4K 1_555 1_555
C10K C9K 1_555 1_555
H5K C10K 1_555 1_555
C11K C2K 1_555 1_555
H6K C11K 1_555 1_555
C12K C13F 1_555 1_555
C13K C12A 1_555 1_555
H7K C13K 1_555 1_555
Zn1LA O2 1_555 1_555
O3LA Zn1LA 1_555 1_555
Zn1D O1D 1_555 1_555
O3D Zn1D 1_555 1_555
Zn1F O1F 1_555 1_555
Zn1H O1H 1_555 1_555
Zn1J O1K 1_555 1_555
Zn1NA O2H 1_555 1_555
Zn1PA O2K 1_555 1_555
Zn1RA O2D 1_555 1_555
Zn1TA O2F 1_555 1_555
O1E Zn1D 1_555 1_555
O1LA Zn1LA 1_555 1_555
O1MA Zn1LA 1_555 1_555
O2LA Zn1 1_555 1_555
O2MA Zn1 1_555 1_555
O2RA Zn1D 1_555 1_555
O2SA Zn1D 1_555 1_555
C8 C9 1_555 1_555
C10 C11 1_555 1_555
C7D C12D 1_555 1_555
C8D C9D 1_555 1_555
C10D C11D 1_555 1_555
C7H C12H 1_555 1_555
C8H C9H 1_555 1_555
C10H C11H 1_555 1_555
C12H C13H 1_555 1_555
O2A Zn1LA 1_555 1_555
C8A C9A 1_555 1_555
C10A C11A 1_555 1_555
C7F C12F 1_555 1_555
C8F C9F 1_555 1_555
C10F C11F 1_555 1_555
C7K C12K 1_555 1_555
C8K C9K 1_555 1_555
C10K C11K 1_555 1_555
C12K C13K 1_555 1_555

#END
