
#######################################################################
#
#                 Cambridge Crystallographic Data Centre
#                                CCDC 
#
#######################################################################
#
# If this CIF has been generated from an entry in the Cambridge 
# Structural Database, then it will include bibliographic, chemical, 
# crystal, experimental, refinement or atomic coordinate data resulting 
# from the CCDC's data processing and validation procedures.
#
#######################################################################

data_NOFQIK
_chemical_formula_moiety         '(C10 H14 Cu1 I3 N4)n'
_symmetry_cell_setting           orthorhombic
_symmetry_space_group_name_H-M   'I m a 2'
_symmetry_Int_Tables_number      46
_space_group_name_Hall           'I 2 -2a'
loop_
_symmetry_equiv_pos_site_id
_symmetry_equiv_pos_as_xyz
1 x,y,z
2 -x,-y,z
3 1/2-x,y,z
4 1/2+x,-y,z
5 1/2+x,1/2+y,1/2+z
6 1/2-x,1/2-y,1/2+z
7 -x,1/2+y,1/2+z
8 x,1/2-y,1/2+z
_cell_length_a                   17.0405(11)
_cell_length_b                   13.6295(11)
_cell_length_c                   7.4617(5)
_cell_angle_alpha                90
_cell_angle_beta                 90
_cell_angle_gamma                90
_cell_volume                     1733.01
loop_
_atom_site_label
_atom_site_type_symbol
_atom_site_fract_x
_atom_site_fract_y
_atom_site_fract_z
_atom_site_U_iso_or_equiv
_atom_site_thermal_displace_type
C1 C 0.6115(11) 0.4690(13) 0.784(3) 0.0657 Uani
H1 H 0.6388 0.4126 0.7389 0.0990 Uiso
H2 H 0.5626 0.4487 0.8367 0.0990 Uiso
H3 H 0.6431 0.5005 0.8740 0.0990 Uiso
C2 C 0.5965(9) 0.5368(15) 0.640(3) 0.0507 Uani
C3 C 0.5332(10) 0.5359(12) 0.514(2) 0.0413 Uani
C4 C 0.5441(10) 0.6126(15) 0.401(2) 0.0533 Uani
C5 C 0.4999(14) 0.6497(18) 0.244(3) 0.0843 Uani
H4 H 0.5197 0.7130 0.2102 0.1280 Uiso
H5 H 0.4453 0.6550 0.2740 0.1280 Uiso
H6 H 0.5059 0.6050 0.1452 0.1280 Uiso
N1 N 0.6437(7) 0.6137(12) 0.5987(19) 0.0467 Uani
N2 N 0.6114(8) 0.6561(11) 0.453(2) 0.0490 Uani
H7 H 0.6316 0.7058 0.3993 0.0590 Uiso
Cu1 Cu 0.7500 0.6483(3) 0.6853(5) 0.0553 Uani
I1 I 0.7500 0.84344(13) 0.5465(2) 0.0502 Uani
I2 I 0.7500 1.05063(16) 0.7605(3) 0.0717 Uani
I3 I 0.7500 1.2162(2) 0.9701(4) 0.1408 Uani
C1A C 0.3885(11) 0.5310(13) 0.784(3) 0.0657 Uani
H1A H 0.3612 0.5874 0.7389 0.0990 Uiso
H2A H 0.4374 0.5513 0.8367 0.0990 Uiso
H3A H 0.3569 0.4995 0.8740 0.0990 Uiso
C2A C 0.4035(9) 0.4632(15) 0.640(3) 0.0507 Uani
C3A C 0.4668(10) 0.4641(12) 0.514(2) 0.0413 Uani
C4A C 0.4559(10) 0.3874(15) 0.401(2) 0.0533 Uani
C5A C 0.5001(14) 0.3503(18) 0.244(3) 0.0843 Uani
H4A H 0.4803 0.2870 0.2102 0.1280 Uiso
H5A H 0.5547 0.3450 0.2740 0.1280 Uiso
H6A H 0.4941 0.3950 0.1452 0.1280 Uiso
N1A N 0.3563(7) 0.3863(12) 0.5987(19) 0.0467 Uani
N2A N 0.3886(8) 0.3439(11) 0.453(2) 0.0490 Uani
H7A H 0.3684 0.2942 0.3993 0.0590 Uiso
N1B N 0.8563(7) 0.6137(12) 0.5987(19) 0.0467 Uani
Cu1A Cu 0.2500 0.3517(3) 0.6853(5) 0.0553 Uani
Cu1E Cu 0.7500 0.8517(3) 0.1853(5) 0.0553 Uani
I1E I 0.7500 0.65656(13) 1.0465(2) 0.0502 Uani
loop_
_atom_site_aniso_label
_atom_site_aniso_U_11
_atom_site_aniso_U_22
_atom_site_aniso_U_33
_atom_site_aniso_U_23
_atom_site_aniso_U_13
_atom_site_aniso_U_12
C1 0.072(13) 0.048(11) 0.077(16) 0.007(13) -0.013(13) -0.029(10)
C2 0.033(8) 0.075(16) 0.044(11) 0.002(11) 0.003(10) 0.001(10)
C3 0.042(9) 0.046(10) 0.036(11) -0.001(9) 0.004(8) -0.016(8)
C4 0.039(9) 0.080(15) 0.041(12) 0.005(10) -0.008(8) -0.016(9)
C5 0.080(14) 0.10(2) 0.073(15) 0.019(14) -0.020(13) -0.040(15)
N1 0.032(7) 0.059(10) 0.049(10) -0.003(7) 0.007(7) -0.012(8)
N2 0.037(8) 0.072(12) 0.038(8) 0.012(10) 0.002(7) -0.008(8)
Cu1 0.0270(17) 0.065(3) 0.074(3) -0.005(2) 0.000 0.000
I1 0.0561(13) 0.0436(11) 0.0509(10) 0.0048(10) 0.000 0.000
I2 0.0871(16) 0.0678(15) 0.0601(12) 0.0085(12) 0.000 0.000
I3 0.247(4) 0.094(2) 0.0814(19) -0.0210(18) 0.000 0.000
C1A 0.072 0.048 0.077 -0.007 0.013 -0.029
C2A 0.033 0.075 0.044 -0.002 -0.003 0.001
C3A 0.042 0.046 0.036 0.001 -0.004 -0.016
C4A 0.039 0.08 0.041 -0.005 0.008 -0.016
C5A 0.08 0.1 0.073 -0.019 0.02 -0.04
N1A 0.032 0.059 0.049 0.003 -0.007 -0.012
N2A 0.037 0.072 0.038 -0.012 -0.002 -0.008
N1B 0.032 0.059 0.049 -0.003 -0.007 0.012
Cu1A 0.027 0.065 0.074 0.005 0 0
Cu1E 0.027 0.065 0.074 0.005 0 0
I1E 0.0561 0.0436 0.0509 -0.0048 0 0
loop_
_geom_bond_atom_site_label_1
_geom_bond_atom_site_label_2
_geom_bond_site_symmetry_1
_geom_bond_site_symmetry_2
C1 H1 1_555 1_555
H2 C1 1_555 1_555
H3 C1 1_555 1_555
C2 C1 1_555 1_555
C3 C2 1_555 1_555
C4 C3 1_555 1_555
C5 C4 1_555 1_555
H4 C5 1_555 1_555
H5 C5 1_555 1_555
H6 C5 1_555 1_555
N1 C2 1_555 1_555
N2 C4 1_555 1_555
H7 N2 1_555 1_555
Cu1 N1 1_555 1_555
I1 Cu1 1_555 1_555
I2 I1 1_555 1_555
I3 I2 1_555 1_555
C1A H1A 1_555 1_555
H2A C1A 1_555 1_555
H3A C1A 1_555 1_555
C2A C1A 1_555 1_555
C3A C3 1_555 1_555
C4A C3A 1_555 1_555
C5A C4A 1_555 1_555
H4A C5A 1_555 1_555
H5A C5A 1_555 1_555
H6A C5A 1_555 1_555
N1A C2A 1_555 1_555
N2A C4A 1_555 1_555
H7A N2A 1_555 1_555
N1B Cu1 1_555 1_555
Cu1A N1A 1_555 1_555
Cu1E I1 1_555 1_555
I1E Cu1 1_555 1_555
N1 N2 1_555 1_555
C2A C3A 1_555 1_555
N1A N2A 1_555 1_555

#END
