
#######################################################################
#
#                 Cambridge Crystallographic Data Centre
#                                CCDC 
#
#######################################################################
#
# If this CIF has been generated from an entry in the Cambridge 
# Structural Database, then it will include bibliographic, chemical, 
# crystal, experimental, refinement or atomic coordinate data resulting 
# from the CCDC's data processing and validation procedures.
#
#######################################################################

data_KOMCOG
_chemical_formula_moiety         '(C27 H21 Cl1 N8 O6 Zn1 1+)n'
_symmetry_cell_setting           orthorhombic
_symmetry_space_group_name_H-M   'P n n a'
_symmetry_Int_Tables_number      52
_space_group_name_Hall           '-P 2a 2bc'
loop_
_symmetry_equiv_pos_site_id
_symmetry_equiv_pos_as_xyz
1 x,y,z
2 1/2-x,-y,z
3 1/2-x,1/2+y,1/2-z
4 x,1/2-y,1/2-z
5 -x,-y,-z
6 1/2+x,y,-z
7 1/2+x,1/2-y,1/2+z
8 -x,1/2+y,1/2+z
_cell_length_a                   28.470(7)
_cell_length_b                   27.784(7)
_cell_length_c                   9.255(2)
_cell_angle_alpha                90
_cell_angle_beta                 90
_cell_angle_gamma                90
_cell_volume                     7320.8
loop_
_atom_site_label
_atom_site_type_symbol
_atom_site_fract_x
_atom_site_fract_y
_atom_site_fract_z
_atom_site_U_iso_or_equiv
_atom_site_thermal_displace_type
N8 N 0.5000 0.5000 0.5000 0.1160 Uiso
O1 O 0.5336(2) 0.5095(3) 0.5668(8) 0.0721 Uiso
O2 O 0.4979(4) 0.4690(4) 0.4021(10) 0.1250 Uiso
O3 O 0.4646(3) 0.5281(4) 0.5036(15) 0.1500 Uiso
O1D O 0.4664(2) 0.4905(3) 0.4332(8) 0.0721 Uiso
O2D O 0.5021(4) 0.5310(4) 0.5979(10) 0.1250 Uiso
O3D O 0.5354(3) 0.4719(4) 0.4964(15) 0.1500 Uiso
Cl1 Cl 0.31677(7) 0.49924(7) -0.1071(2) 0.0961 Uani
Zn1 Zn 0.364971(17) 0.492063(18) 0.08132(6) 0.0464 Uani
C1 C 0.45563(15) 0.54215(16) 0.1372(5) 0.0530 Uani
H1 H 0.4587 0.5281 0.2279 0.0640 Uiso
C2 C 0.43067(18) 0.5597(2) -0.0717(5) 0.0677 Uani
H2 H 0.4129 0.5600 -0.1560 0.0820 Uiso
C3 C 0.46848(17) 0.5865(2) -0.0478(5) 0.0700 Uani
H3 H 0.4816 0.6090 -0.1101 0.0840 Uiso
C4 C 0.52336(13) 0.59572(15) 0.1638(4) 0.0450 Uani
C5 C 0.55238(14) 0.56772(15) 0.2460(5) 0.0540 Uani
H4 H 0.5481 0.5345 0.2482 0.0640 Uiso
C6 C 0.58757(16) 0.58826(16) 0.3249(5) 0.0563 Uani
H5 H 0.6068 0.5688 0.3815 0.0680 Uiso
C7 C 0.59518(13) 0.63728(14) 0.3222(4) 0.0420 Uani
C8 C 0.56616(14) 0.66502(14) 0.2353(4) 0.0460 Uani
H6 H 0.5712 0.6980 0.2292 0.0550 Uiso
C9 C 0.53022(14) 0.64452(15) 0.1581(5) 0.0497 Uani
H7 H 0.5106 0.6637 0.1021 0.0600 Uiso
C10 C 0.79662(14) 0.54090(14) 0.7265(4) 0.0473 Uani
H8 H 0.7771 0.5476 0.8046 0.0570 Uiso
C11 C 0.8539(2) 0.5158(3) 0.5991(6) 0.0803 Uani
H9 H 0.8822 0.5016 0.5722 0.0960 Uiso
C12 C 0.82428(18) 0.5379(2) 0.5103(6) 0.0757 Uani
H10 H 0.8278 0.5417 0.4110 0.0910 Uiso
C13 C 0.74830(13) 0.58109(16) 0.5414(5) 0.0457 Uani
C14 C 0.72486(15) 0.61114(16) 0.6368(5) 0.0553 Uani
H11 H 0.7351 0.6142 0.7318 0.0660 Uiso
C15 C 0.68642(15) 0.63623(18) 0.5893(4) 0.0523 Uani
H12 H 0.6705 0.6562 0.6533 0.0630 Uiso
C16 C 0.67093(14) 0.63244(15) 0.4485(4) 0.0440 Uani
C17 C 0.69476(17) 0.60345(17) 0.3573(5) 0.0620 Uani
H13 H 0.6851 0.6011 0.2616 0.0740 Uiso
C18 C 0.73307(18) 0.5772(2) 0.4032(5) 0.0657 Uani
H14 H 0.7485 0.5568 0.3392 0.0780 Uiso
C19 C 0.63104(15) 0.88573(15) 0.5653(4) 0.0460 Uani
H15 H 0.6552 0.8850 0.4975 0.0550 Uiso
C20 C 0.58030(15) 0.91025(16) 0.7180(5) 0.0550 Uani
H16 H 0.5627 0.9305 0.7770 0.0660 Uiso
C21 C 0.57569(15) 0.86260(16) 0.7099(5) 0.0537 Uani
H17 H 0.5543 0.8437 0.7605 0.0650 Uiso
C22 C 0.61483(14) 0.79852(14) 0.5645(4) 0.0440 Uani
C23 C 0.57733(15) 0.76714(15) 0.5665(4) 0.0470 Uani
H18 H 0.5485 0.7769 0.6036 0.0570 Uiso
C24 C 0.58276(14) 0.72131(14) 0.5134(4) 0.0460 Uani
H19 H 0.5576 0.7000 0.5154 0.0550 Uiso
C25 C 0.62521(14) 0.70679(15) 0.4575(5) 0.0433 Uani
C26 C 0.66261(16) 0.73837(16) 0.4557(5) 0.0563 Uani
H20 H 0.6913 0.7287 0.4176 0.0680 Uiso
C27 C 0.65756(15) 0.78392(16) 0.5098(5) 0.0557 Uani
H21 H 0.6829 0.8050 0.5096 0.0670 Uiso
N1 N 0.42190(12) 0.53183(13) 0.0458(4) 0.0497 Uani
N2 N 0.48420(12) 0.57435(14) 0.0857(4) 0.0490 Uani
N3 N 0.61517(12) 0.92463(12) 0.6253(4) 0.0507 Uani
N4 N 0.60846(12) 0.84696(12) 0.6128(3) 0.0447 Uani
N5 N 0.78783(12) 0.55414(13) 0.5918(3) 0.0477 Uani
N6 N 0.83619(13) 0.51715(13) 0.7361(4) 0.0513 Uani
N7 N 0.63094(12) 0.65928(13) 0.4029(4) 0.0484 Uani
Zn1E Zn 0.864971(17) 0.492063(18) 0.91868(6) 0.0464 Uani
Zn1G Zn 0.635029(17) 0.992063(18) 0.58132(6) 0.0464 Uani
N3G N 0.38483(12) 0.42463(12) 0.1253(4) 0.0507 Uani
N6E N 0.33619(13) 0.51715(13) 0.2639(4) 0.0513 Uani
loop_
_atom_site_aniso_label
_atom_site_aniso_U_11
_atom_site_aniso_U_22
_atom_site_aniso_U_33
_atom_site_aniso_U_23
_atom_site_aniso_U_13
_atom_site_aniso_U_12
Cl1 0.0843(11) 0.1186(14) 0.0854(11) -0.0189(9) -0.0293(9) 0.0036(9)
Zn1 0.0428(3) 0.0438(3) 0.0525(4) -0.0059(2) 0.0043(2) -0.00250(19)
C1 0.054(2) 0.059(3) 0.046(2) 0.011(2) -0.011(2) -0.013(2)
C2 0.062(3) 0.095(4) 0.046(3) 0.011(2) -0.012(2) -0.022(3)
C3 0.065(3) 0.097(4) 0.048(3) 0.026(3) -0.009(2) -0.031(3)
C4 0.042(2) 0.051(2) 0.042(2) 0.0027(18) -0.0019(17) -0.0069(17)
C5 0.054(2) 0.040(2) 0.068(3) 0.005(2) -0.012(2) -0.0062(18)
C6 0.062(3) 0.047(2) 0.060(3) 0.005(2) -0.018(2) 0.002(2)
C7 0.041(2) 0.042(2) 0.043(2) 0.0048(17) -0.0043(17) -0.0018(16)
C8 0.053(2) 0.040(2) 0.045(2) 0.0052(17) -0.0077(18) -0.0047(17)
C9 0.052(2) 0.053(2) 0.044(2) 0.0129(19) -0.0113(19) -0.0043(19)
C10 0.045(2) 0.051(2) 0.046(2) 0.0018(18) -0.0017(18) 0.0081(18)
C11 0.064(3) 0.112(5) 0.065(4) -0.003(3) -0.003(3) 0.040(3)
C12 0.066(3) 0.113(5) 0.048(3) 0.001(3) 0.000(2) 0.034(3)
C13 0.039(2) 0.052(2) 0.046(2) -0.0014(19) -0.0059(17) 0.0059(17)
C14 0.058(3) 0.071(3) 0.037(2) -0.003(2) -0.006(2) 0.013(2)
C15 0.049(2) 0.069(3) 0.039(2) -0.003(2) -0.0002(18) 0.014(2)
C16 0.042(2) 0.047(2) 0.043(2) -0.0001(18) -0.0069(17) 0.0022(17)
C17 0.067(3) 0.074(3) 0.045(3) -0.015(2) -0.020(2) 0.022(2)
C18 0.067(3) 0.080(3) 0.050(3) -0.019(2) -0.013(2) 0.027(3)
C19 0.051(2) 0.043(2) 0.044(2) -0.0042(18) -0.0047(18) -0.0025(18)
C20 0.057(3) 0.050(3) 0.058(3) -0.007(2) 0.001(2) 0.009(2)
C21 0.053(2) 0.055(3) 0.053(3) 0.002(2) 0.006(2) 0.003(2)
C22 0.048(2) 0.041(2) 0.043(2) 0.0020(17) -0.0062(17) 0.0014(18)
C23 0.051(2) 0.046(2) 0.044(2) 0.0092(18) 0.0008(18) 0.0041(18)
C24 0.053(2) 0.040(2) 0.045(2) 0.0105(18) -0.0077(18) -0.0043(17)
C25 0.043(2) 0.041(2) 0.046(2) 0.0019(18) -0.0082(17) 0.0020(17)
C26 0.051(2) 0.052(3) 0.066(3) -0.006(2) -0.001(2) 0.004(2)
C27 0.046(2) 0.047(2) 0.074(3) -0.004(2) -0.006(2) -0.0043(19)
N1 0.049(2) 0.052(2) 0.048(2) 0.0047(16) 0.0007(16) -0.0098(16)
N2 0.0389(18) 0.062(2) 0.046(2) 0.0079(16) -0.0026(14) -0.0069(16)
N3 0.050(2) 0.044(2) 0.058(2) -0.0017(17) -0.0050(18) 0.0013(16)
N4 0.0481(19) 0.0428(19) 0.0431(19) 0.0001(14) -0.0048(15) 0.0029(15)
N5 0.0442(19) 0.056(2) 0.043(2) -0.0009(15) -0.0027(15) 0.0097(16)
N6 0.053(2) 0.052(2) 0.049(2) 0.0001(16) -0.0088(17) 0.0063(16)
N7 0.0471(19) 0.043(2) 0.055(2) -0.0051(16) -0.0171(15) 0.0036(14)
Zn1E 0.0428 0.0438 0.0525 0.0059 -0.0043 -0.0025
Zn1G 0.0428 0.0438 0.0525 -0.0059 -0.0043 0.0025
N3G 0.05 0.044 0.058 -0.0017 0.005 -0.0013
N6E 0.053 0.052 0.049 -0.0001 0.0088 0.0063
loop_
_geom_bond_atom_site_label_1
_geom_bond_atom_site_label_2
_geom_bond_site_symmetry_1
_geom_bond_site_symmetry_2
Cl1 Zn1 1_555 1_555
Zn1 N1 1_555 1_555
C1 H1 1_555 1_555
C2 H2 1_555 1_555
C3 C2 1_555 1_555
H3 C3 1_555 1_555
C4 C5 1_555 1_555
C5 H4 1_555 1_555
C6 C5 1_555 1_555
H5 C6 1_555 1_555
C7 C6 1_555 1_555
C8 C7 1_555 1_555
H6 C8 1_555 1_555
C9 C4 1_555 1_555
H7 C9 1_555 1_555
C10 H8 1_555 1_555
C11 H9 1_555 1_555
C12 C11 1_555 1_555
H10 C12 1_555 1_555
C13 C14 1_555 1_555
C14 H11 1_555 1_555
C15 C14 1_555 1_555
H12 C15 1_555 1_555
C16 C15 1_555 1_555
C17 C16 1_555 1_555
H13 C17 1_555 1_555
C18 C13 1_555 1_555
H14 C18 1_555 1_555
C19 H15 1_555 1_555
C20 H16 1_555 1_555
C21 C20 1_555 1_555
H17 C21 1_555 1_555
C22 C23 1_555 1_555
C23 H18 1_555 1_555
C24 C23 1_555 1_555
H19 C24 1_555 1_555
C25 C24 1_555 1_555
C26 C25 1_555 1_555
H20 C26 1_555 1_555
C27 C22 1_555 1_555
H21 C27 1_555 1_555
N1 C1 1_555 1_555
N2 C1 1_555 1_555
N3 C19 1_555 1_555
N4 C19 1_555 1_555
N5 C10 1_555 1_555
N6 C10 1_555 1_555
N7 C7 1_555 1_555
N8 O1 1_555 1_555
O1 O2D 1_555 1_555
O2 N8 1_555 1_555
O3 N8 1_555 1_555
Zn1E N6 1_555 1_555
Zn1G N3 1_555 1_555
N3G Zn1 1_555 1_555
N6E Zn1 1_555 1_555
O1D N8 1_555 1_555
O2D N8 1_555 1_555
O3D N8 1_555 1_555
C2 N1 1_555 1_555
C3 N2 1_555 1_555
C4 N2 1_555 1_555
C8 C9 1_555 1_555
C11 N6 1_555 1_555
C12 N5 1_555 1_555
C13 N5 1_555 1_555
C16 N7 1_555 1_555
C17 C18 1_555 1_555
C20 N3 1_555 1_555
C21 N4 1_555 1_555
C22 N4 1_555 1_555
C25 N7 1_555 1_555
C26 C27 1_555 1_555
O1 O3D 1_555 1_555
O2 O1D 1_555 1_555
O2 O3D 1_555 1_555
O3 O1D 1_555 1_555
O3 O2D 1_555 1_555

#END
