
#######################################################################
#
#                 Cambridge Crystallographic Data Centre
#                                CCDC 
#
#######################################################################
#
# If this CIF has been generated from an entry in the Cambridge 
# Structural Database, then it will include bibliographic, chemical, 
# crystal, experimental, refinement or atomic coordinate data resulting 
# from the CCDC's data processing and validation procedures.
#
#######################################################################

data_DAPYAW
_chemical_formula_moiety         '(C108 H68 Cd5 O28 2-)n'
_symmetry_cell_setting           monoclinic
_symmetry_space_group_name_H-M   'C 2/c'
_symmetry_Int_Tables_number      15
_space_group_name_Hall           '-C 2yc'
loop_
_symmetry_equiv_pos_site_id
_symmetry_equiv_pos_as_xyz
1 x,y,z
2 -x,y,1/2-z
3 1/2+x,1/2+y,z
4 1/2-x,1/2+y,1/2-z
5 -x,-y,-z
6 x,-y,1/2+z
7 1/2-x,1/2-y,-z
8 1/2+x,1/2-y,1/2+z
_cell_length_a                   35.859(7)
_cell_length_b                   17.020(3)
_cell_length_c                   27.824(6)
_cell_angle_alpha                90
_cell_angle_beta                 122.73(3)
_cell_angle_gamma                90
_cell_volume                     14285.4
loop_
_atom_site_label
_atom_site_type_symbol
_atom_site_fract_x
_atom_site_fract_y
_atom_site_fract_z
Cd1 Cd 0.137430(15) -0.70083(3) 0.452070(17)
Cd2 Cd 0.017860(18) -0.67746(3) 0.37047(2)
Cd3 Cd 0.2500 0.2500 0.5000
O1 O 0.08179(19) -0.6140(3) 0.4420(2)
O2 O 0.0414(2) -0.6752(4) 0.3074(2)
O3 O 0.0482(2) -0.5217(3) 0.3803(3)
O4 O -0.0254(2) -0.7830(5) 0.3151(3)
O5 O 0.34484(19) 0.0961(3) 0.5772(2)
O6 O 0.27452(18) 0.1260(3) 0.5094(2)
O7 O 0.32779(15) -0.2103(3) 0.95511(17)
O8 O 0.26471(15) -0.2722(3) 0.93252(18)
O9 O 0.02731(17) -0.2409(3) -0.0513(2)
O10 O 0.07535(14) -0.2254(2) -0.07774(17)
O11 O 0.4554(2) -0.1014(5) 0.2871(3)
O12 O 0.4611(2) -0.1194(4) 0.3706(3)
O13 O 0.11730(19) 0.2487(4) 0.3587(2)
O14 O 0.17849(16) 0.2089(3) 0.43571(19)
C1 C 0.2010(3) -0.3128(4) 0.5893(3)
C2 C 0.2160(3) -0.2523(4) 0.5712(3)
H1 H 0.2063 -0.2489 0.5328
C3 C 0.2459(3) -0.1949(4) 0.6098(3)
C4 C 0.2594(3) -0.2008(4) 0.6671(3)
H2 H 0.2790 -0.1638 0.6932
C5 C 0.2442(3) -0.2605(4) 0.6861(3)
C6 C 0.2149(2) -0.3173(4) 0.6467(3)
H3 H 0.2048 -0.3580 0.6591
C7 C 0.1703(3) -0.3725(4) 0.5476(3)
C8 C 0.1365(3) -0.3500(4) 0.4927(3)
H4 H 0.1333 -0.2974 0.4822
C9 C 0.1073(3) -0.4061(4) 0.4533(3)
H5 H 0.0856 -0.3910 0.4163
C10 C 0.1112(3) -0.4853(4) 0.4700(3)
C11 C 0.1444(3) -0.5066(4) 0.5241(3)
H6 H 0.1478 -0.5591 0.5350
C12 C 0.1729(2) -0.4514(4) 0.5623(3)
H7 H 0.1946 -0.4672 0.5991
C13 C 0.2605(2) -0.1288(4) 0.5905(3)
C14 C 0.3058(2) -0.1109(4) 0.6183(3)
H8 H 0.3267 -0.1433 0.6474
C15 C 0.3197(3) -0.0453(4) 0.6026(3)
H9 H 0.3498 -0.0357 0.6199
C16 C 0.2895(2) 0.0055(3) 0.5620(3)
C17 C 0.2451(3) -0.0117(4) 0.5336(3)
H10 H 0.2248 0.0218 0.5048
C18 C 0.2296(2) -0.0782(4) 0.5469(3)
H11 H 0.1994 -0.0890 0.5273
C19 C 0.2567(2) -0.2615(3) 0.7467(2)
C20 C 0.2995(2) -0.2376(4) 0.7910(3)
H12 H 0.3209 -0.2256 0.7829
C21 C 0.3096(2) -0.2322(4) 0.8465(3)
H13 H 0.3377 -0.2153 0.8751
C22 C 0.2795(2) -0.2509(3) 0.8604(2)
C23 C 0.2377(2) -0.2773(4) 0.8176(3)
H14 H 0.2171 -0.2920 0.8265
C24 C 0.2267(2) -0.2816(3) 0.7612(2)
H15 H 0.1985 -0.2983 0.7328
C25 C 0.0786(3) -0.5430(5) 0.4277(4)
C26 C 0.3034(3) 0.0816(4) 0.5482(3)
C27 C 0.2917(2) -0.2437(4) 0.9219(3)
C28 C 0.1807(2) -0.0277(4) 0.1562(3)
C29 C 0.2251(2) -0.0339(3) 0.1765(3)
H16 H 0.2335 -0.0606 0.1546
C30 C 0.2582(2) -0.0017(4) 0.2287(3)
C31 C 0.2448(2) 0.0406(4) 0.2596(3)
H17 H 0.2661 0.0638 0.2939
C32 C 0.2001(2) 0.0487(4) 0.2401(3)
C33 C 0.1691(2) 0.0125(4) 0.1900(3)
H18 H 0.1394 0.0147 0.1782
C34 C 0.1471(2) -0.0680(4) 0.1018(3)
C35 C 0.1106(2) -0.1047(4) 0.0972(3)
H19 H 0.1056 -0.1001 0.1265
C36 C 0.0818(2) -0.1481(4) 0.0486(3)
H20 H 0.0572 -0.1723 0.0451
C37 C 0.08991(19) -0.1553(3) 0.0050(2)
C38 C 0.1257(2) -0.1170(4) 0.0096(3)
H21 H 0.1305 -0.1200 -0.0201
C39 C 0.15439(19) -0.0743(3) 0.0582(2)
H22 H 0.1788 -0.0496 0.0615
C40 C 0.3062(2) -0.0167(4) 0.2509(3)
C41 C 0.3201(2) -0.0377(4) 0.2159(3)
H23 H 0.2999 -0.0355 0.1766
C42 C 0.3632(2) -0.0624(4) 0.2362(3)
H24 H 0.3717 -0.0765 0.2112
C43 C 0.3937(2) -0.0655(4) 0.2959(3)
C44 C 0.3807(2) -0.0445(4) 0.3317(3)
H25 H 0.4012 -0.0466 0.3710
C45 C 0.3382(3) -0.0201(4) 0.3117(3)
H26 H 0.3301 -0.0060 0.3372
C46 C 0.1868(3) 0.0895(5) 0.2760(3)
C47 C 0.1500(3) 0.1342(5) 0.2528(3)
H27 H 0.1318 0.1379 0.2132
C48 C 0.1384(2) 0.1748(5) 0.2859(3)
H28 H 0.1134 0.2070 0.2687
C49 C 0.1643(2) 0.1673(5) 0.3456(3)
C50 C 0.2010(3) 0.1201(4) 0.3693(3)
H29 H 0.2181 0.1141 0.4087
C51 C 0.2133(3) 0.0813(4) 0.3368(3)
H30 H 0.2386 0.0500 0.3540
C52 C 0.0617(2) -0.2107(4) -0.0438(3)
C53 C 0.4402(2) -0.0980(5) 0.3195(4)
C54 C 0.1527(3) 0.2110(5) 0.3811(3)
Cd1E Cd 0.137430(15) 0.70083(3) -0.047930(17)
Cd1F Cd 0.362570(15) 0.20083(3) 0.547930(17)
Cd1C Cd 0.362570(15) -0.20083(3) 1.047930(17)
Cd1E_2 Cd 0.137430(15) -0.29917(3) -0.047930(17)
Cd1_2 Cd 0.137430(15) 0.29917(3) 0.452070(17)
Cd1C_2 Cd 0.362570(15) -0.20083(3) 0.047930(17)
Cd1C_3 Cd 0.362570(15) 0.79917(3) 1.047930(17)
Cd2E Cd 0.017860(18) 0.67746(3) -0.12953(2)
Cd2E_2 Cd 0.017860(18) -0.32254(3) -0.12953(2)
Cd2B Cd 0.517860(18) -0.17746(3) 0.37047(2)
Cd2C Cd 0.482140(18) 0.82254(3) 1.12953(2)
Cd2D Cd -0.017860(18) 0.67746(3) 0.62953(2)
Cd3C Cd 0.2500 -0.2500 1.0000
Cd3C_2 Cd 0.2500 -0.2500 0.0000
O1E O 0.08179(19) 0.6140(3) -0.0580(2)
O2E O 0.0414(2) 0.6752(4) -0.1926(2)
O3E O 0.0482(2) 0.5217(3) -0.1197(3)
O4E O -0.0254(2) 0.7830(5) -0.1849(3)
O5E O 0.34484(19) -0.0961(3) 0.0772(2)
O5F O 0.15516(19) -0.5961(3) 0.4228(2)
O5C O 0.15516(19) 0.5961(3) -0.0772(2)
O6E O 0.27452(18) -0.1260(3) 0.0094(2)
O6F O 0.22548(18) 0.3740(3) 0.4906(2)
O7E O 0.32779(15) 0.2103(3) 0.45511(17)
O7C O 0.17221(15) -0.7103(3) 0.54489(17)
O7F O 0.17221(15) 0.7103(3) 0.04489(17)
O8E O 0.26471(15) 0.2722(3) 0.43252(18)
O8C O 0.23529(15) 0.2278(3) 0.56748(18)
O9F O 0.47269(17) 0.7409(3) 1.0513(2)
O9E O 0.02731(17) -0.7591(3) 0.4487(2)
O9_2 O 0.02731(17) 0.7591(3) -0.0513(2)
O10F O 0.42465(14) 0.7254(2) 1.07774(17)
O10E O 0.07535(14) -0.7746(2) 0.42226(17)
O10_2 O 0.07535(14) 0.7746(2) -0.07774(17)
O11F O 0.0446(2) 0.6014(5) 0.7129(3)
O11B O -0.0446(2) -0.6014(5) 0.2871(3)
O11G O -0.0446(2) 0.6014(5) -0.2129(3)
O12F O 0.0389(2) 0.6194(4) 0.6294(3)
O12B O -0.0389(2) -0.6194(4) 0.3706(3)
O12G O -0.0389(2) 0.6194(4) -0.1294(3)
O13F O 0.38270(19) 0.2513(4) 0.6413(2)
O13_2 O 0.11730(19) -0.7513(4) 0.3587(2)
O13E O 0.11730(19) 0.7513(4) -0.1413(2)
O14F O 0.32151(16) 0.2911(3) 0.56429(19)
O14_2 O 0.17849(16) -0.7911(3) 0.43571(19)
O14E O 0.17849(16) 0.7911(3) -0.06429(19)
C1E C 0.2010(3) 0.3128(4) 0.0893(3)
C2E C 0.2160(3) 0.2523(4) 0.0712(3)
H1E H 0.2063 0.2489 0.0328
C3E C 0.2459(3) 0.1949(4) 0.1098(3)
C4E C 0.2594(3) 0.2008(4) 0.1671(3)
H2E H 0.2790 0.1638 0.1932
C5E C 0.2442(3) 0.2605(4) 0.1861(3)
C6E C 0.2149(2) 0.3173(4) 0.1467(3)
H3E H 0.2048 0.3580 0.1591
C7E C 0.1703(3) 0.3725(4) 0.0476(3)
C8E C 0.1365(3) 0.3500(4) -0.0073(3)
H4E H 0.1333 0.2974 -0.0178
C9E C 0.1073(3) 0.4061(4) -0.0467(3)
H5E H 0.0856 0.3910 -0.0837
C10E C 0.1112(3) 0.4853(4) -0.0300(3)
C11E C 0.1444(3) 0.5066(4) 0.0241(3)
H6E H 0.1478 0.5591 0.0350
C12E C 0.1729(2) 0.4514(4) 0.0623(3)
H7E H 0.1946 0.4672 0.0991
C13E C 0.2605(2) 0.1288(4) 0.0905(3)
C14E C 0.3058(2) 0.1109(4) 0.1183(3)
H8E H 0.3267 0.1433 0.1474
C15E C 0.3197(3) 0.0453(4) 0.1026(3)
H9E H 0.3498 0.0357 0.1199
C16E C 0.2895(2) -0.0055(3) 0.0620(3)
C17E C 0.2451(3) 0.0117(4) 0.0336(3)
H10E H 0.2248 -0.0218 0.0048
C18E C 0.2296(2) 0.0782(4) 0.0469(3)
H11E H 0.1994 0.0890 0.0273
C19E C 0.2567(2) 0.2615(3) 0.2467(2)
C20E C 0.2995(2) 0.2376(4) 0.2910(3)
H12E H 0.3209 0.2256 0.2829
C21E C 0.3096(2) 0.2322(4) 0.3465(3)
H13E H 0.3377 0.2153 0.3751
C22E C 0.2795(2) 0.2509(3) 0.3604(2)
C23E C 0.2377(2) 0.2773(4) 0.3176(3)
H14E H 0.2171 0.2920 0.3265
C24E C 0.2267(2) 0.2816(3) 0.2612(2)
H15E H 0.1985 0.2983 0.2328
C25E C 0.0786(3) 0.5430(5) -0.0723(4)
C26E C 0.3034(3) -0.0816(4) 0.0482(3)
C27E C 0.2917(2) 0.2437(4) 0.4219(3)
C28F C 0.3193(2) 0.5277(4) 0.8438(3)
C29F C 0.2749(2) 0.5339(3) 0.8235(3)
H16F H 0.2665 0.5606 0.8454
C30F C 0.2418(2) 0.5017(4) 0.7713(3)
C31F C 0.2552(2) 0.4594(4) 0.7404(3)
H17F H 0.2339 0.4362 0.7061
C32F C 0.2999(2) 0.4513(4) 0.7599(3)
C33F C 0.3309(2) 0.4875(4) 0.8100(3)
H18F H 0.3606 0.4853 0.8218
C34F C 0.3529(2) 0.5680(4) 0.8982(3)
C35F C 0.3894(2) 0.6047(4) 0.9028(3)
H19F H 0.3944 0.6001 0.8735
C36F C 0.4182(2) 0.6481(4) 0.9514(3)
H20F H 0.4428 0.6723 0.9549
C37F C 0.41009(19) 0.6553(3) 0.9950(2)
C38F C 0.3743(2) 0.6170(4) 0.9904(3)
H21F H 0.3695 0.6200 1.0201
C39F C 0.34561(19) 0.5743(3) 0.9418(2)
H22F H 0.3212 0.5496 0.9385
C40F C 0.1938(2) 0.5167(4) 0.7491(3)
C41F C 0.1799(2) 0.5377(4) 0.7841(3)
H23F H 0.2001 0.5355 0.8234
C42F C 0.1368(2) 0.5624(4) 0.7638(3)
H24F H 0.1283 0.5765 0.7888
C43F C 0.1063(2) 0.5655(4) 0.7041(3)
C44F C 0.1193(2) 0.5445(4) 0.6683(3)
H25F H 0.0988 0.5466 0.6290
C45F C 0.1618(3) 0.5201(4) 0.6883(3)
H26F H 0.1699 0.5060 0.6628
C46F C 0.3132(3) 0.4105(5) 0.7240(3)
C47F C 0.3500(3) 0.3658(5) 0.7472(3)
H27F H 0.3682 0.3621 0.7868
C48F C 0.3616(2) 0.3252(5) 0.7141(3)
H28F H 0.3866 0.2930 0.7313
C49F C 0.3357(2) 0.3327(5) 0.6544(3)
C50F C 0.2990(3) 0.3799(4) 0.6307(3)
H29F H 0.2819 0.3859 0.5913
C51F C 0.2867(3) 0.4187(4) 0.6632(3)
H30F H 0.2614 0.4500 0.6460
C52F C 0.4383(2) 0.7107(4) 1.0438(3)
C53F C 0.0598(2) 0.5980(5) 0.6805(4)
C54F C 0.3473(3) 0.2890(5) 0.6189(3)
loop_
_geom_bond_atom_site_label_1
_geom_bond_atom_site_label_2
_geom_bond_site_symmetry_1
_geom_bond_site_symmetry_2
Cd1 O1 1_555 1_555
Cd2 O1 1_555 1_555
Cd3 O6 1_555 1_555
O1 C25 1_555 1_555
O2 Cd2 1_555 1_555
O3 C25 1_555 1_555
O4 Cd2 1_555 1_555
O5 C26 1_555 1_555
O6 C26 1_555 1_555
O7 C27 1_555 1_555
O8 C27 1_555 1_555
O9 C52 1_555 1_555
O10 C52 1_555 1_555
O11 C53 1_555 1_555
O12 C53 1_555 1_555
O13 C54 1_555 1_555
O14 Cd3 1_555 1_555
C1 C2 1_555 1_555
C2 H1 1_555 1_555
C3 C2 1_555 1_555
C4 C3 1_555 1_555
H2 C4 1_555 1_555
C5 C4 1_555 1_555
C6 C1 1_555 1_555
H3 C6 1_555 1_555
C7 C1 1_555 1_555
C8 C7 1_555 1_555
H4 C8 1_555 1_555
C9 C8 1_555 1_555
H5 C9 1_555 1_555
C10 C9 1_555 1_555
C11 C10 1_555 1_555
H6 C11 1_555 1_555
C12 C7 1_555 1_555
H7 C12 1_555 1_555
C13 C3 1_555 1_555
C14 C13 1_555 1_555
H8 C14 1_555 1_555
C15 C14 1_555 1_555
H9 C15 1_555 1_555
C16 C15 1_555 1_555
C17 C16 1_555 1_555
H10 C17 1_555 1_555
C18 C13 1_555 1_555
H11 C18 1_555 1_555
C19 C5 1_555 1_555
C20 C19 1_555 1_555
H12 C20 1_555 1_555
C21 C20 1_555 1_555
H13 C21 1_555 1_555
C22 C21 1_555 1_555
C23 C22 1_555 1_555
H14 C23 1_555 1_555
C24 C19 1_555 1_555
H15 C24 1_555 1_555
C25 C10 1_555 1_555
C26 C16 1_555 1_555
C27 C22 1_555 1_555
C28 C29 1_555 1_555
C29 H16 1_555 1_555
C30 C29 1_555 1_555
C31 C30 1_555 1_555
H17 C31 1_555 1_555
C32 C31 1_555 1_555
C33 C28 1_555 1_555
H18 C33 1_555 1_555
C34 C28 1_555 1_555
C35 C34 1_555 1_555
H19 C35 1_555 1_555
C36 C35 1_555 1_555
H20 C36 1_555 1_555
C37 C36 1_555 1_555
C38 C37 1_555 1_555
H21 C38 1_555 1_555
C39 C34 1_555 1_555
H22 C39 1_555 1_555
C40 C30 1_555 1_555
C41 C40 1_555 1_555
H23 C41 1_555 1_555
C42 C41 1_555 1_555
H24 C42 1_555 1_555
C43 C42 1_555 1_555
C44 C43 1_555 1_555
H25 C44 1_555 1_555
C45 C40 1_555 1_555
H26 C45 1_555 1_555
C46 C32 1_555 1_555
C47 C46 1_555 1_555
H27 C47 1_555 1_555
C48 C47 1_555 1_555
H28 C48 1_555 1_555
C49 C48 1_555 1_555
C50 C49 1_555 1_555
H29 C50 1_555 1_555
C51 C46 1_555 1_555
H30 C51 1_555 1_555
C52 C37 1_555 1_555
C53 C43 1_555 1_555
C54 O14 1_555 1_555
Cd1E O1E 1_555 1_555
Cd1F O5 1_555 1_555
Cd1C O7 1_555 1_555
Cd1E_2 O10 1_555 1_555
Cd1_2 O13 1_555 1_555
Cd1C_2 O5E 1_555 1_555
Cd1C_3 O10F 1_555 1_555
Cd2E O1E 1_555 1_555
Cd2E_2 O9 1_555 1_555
Cd2B O11 1_555 1_555
Cd2C O9F 1_555 1_555
Cd2D O11F 1_555 1_555
Cd3C O8 1_555 1_555
Cd3C_2 O6E 1_555 1_555
O1E C25E 1_555 1_555
O2E Cd2E 1_555 1_555
O3E C25E 1_555 1_555
O4E Cd2E 1_555 1_555
O5E C26E 1_555 1_555
O5F Cd1 1_555 1_555
O5C Cd1E 1_555 1_555
O6E C26E 1_555 1_555
O6F Cd3 1_555 1_555
O7E Cd1F 1_555 1_555
O7C Cd1 1_555 1_555
O7F Cd1E 1_555 1_555
O8E Cd3 1_555 1_555
O8C Cd3 1_555 1_555
O9F C52F 1_555 1_555
O9E Cd2 1_555 1_555
O9_2 Cd2E 1_555 1_555
O10F Cd2C 1_555 1_555
O10E Cd1 1_555 1_555
O10_2 Cd1E 1_555 1_555
O11F C53F 1_555 1_555
O11B Cd2 1_555 1_555
O11G Cd2E 1_555 1_555
O12F Cd2D 1_555 1_555
O12B Cd2 1_555 1_555
O12G Cd2E 1_555 1_555
O13F Cd1F 1_555 1_555
O13_2 Cd1 1_555 1_555
O13E Cd1E 1_555 1_555
O14F Cd3 1_555 1_555
O14_2 Cd1 1_555 1_555
O14E Cd1E 1_555 1_555
C1E C2E 1_555 1_555
C2E H1E 1_555 1_555
C3E C2E 1_555 1_555
C4E C3E 1_555 1_555
H2E C4E 1_555 1_555
C5E C4E 1_555 1_555
C6E C1E 1_555 1_555
H3E C6E 1_555 1_555
C7E C1E 1_555 1_555
C8E C7E 1_555 1_555
H4E C8E 1_555 1_555
C9E C8E 1_555 1_555
H5E C9E 1_555 1_555
C10E C9E 1_555 1_555
C11E C10E 1_555 1_555
H6E C11E 1_555 1_555
C12E C7E 1_555 1_555
H7E C12E 1_555 1_555
C13E C3E 1_555 1_555
C14E C13E 1_555 1_555
H8E C14E 1_555 1_555
C15E C14E 1_555 1_555
H9E C15E 1_555 1_555
C16E C15E 1_555 1_555
C17E C16E 1_555 1_555
H10E C17E 1_555 1_555
C18E C13E 1_555 1_555
H11E C18E 1_555 1_555
C19E C5E 1_555 1_555
C20E C19E 1_555 1_555
H12E C20E 1_555 1_555
C21E C20E 1_555 1_555
H13E C21E 1_555 1_555
C22E C21E 1_555 1_555
C23E C22E 1_555 1_555
H14E C23E 1_555 1_555
C24E C19E 1_555 1_555
H15E C24E 1_555 1_555
C25E C10E 1_555 1_555
C26E C16E 1_555 1_555
C27E O7E 1_555 1_555
C28F C29F 1_555 1_555
C29F H16F 1_555 1_555
C30F C29F 1_555 1_555
C31F C30F 1_555 1_555
H17F C31F 1_555 1_555
C32F C31F 1_555 1_555
C33F C28F 1_555 1_555
H18F C33F 1_555 1_555
C34F C28F 1_555 1_555
C35F C34F 1_555 1_555
H19F C35F 1_555 1_555
C36F C35F 1_555 1_555
H20F C36F 1_555 1_555
C37F C36F 1_555 1_555
C38F C37F 1_555 1_555
H21F C38F 1_555 1_555
C39F C34F 1_555 1_555
H22F C39F 1_555 1_555
C40F C30F 1_555 1_555
C41F C40F 1_555 1_555
H23F C41F 1_555 1_555
C42F C41F 1_555 1_555
H24F C42F 1_555 1_555
C43F C42F 1_555 1_555
C44F C43F 1_555 1_555
H25F C44F 1_555 1_555
C45F C40F 1_555 1_555
H26F C45F 1_555 1_555
C46F C32F 1_555 1_555
C47F C46F 1_555 1_555
H27F C47F 1_555 1_555
C48F C47F 1_555 1_555
H28F C48F 1_555 1_555
C49F C48F 1_555 1_555
C50F C49F 1_555 1_555
H29F C50F 1_555 1_555
C51F C46F 1_555 1_555
H30F C51F 1_555 1_555
C52F O10F 1_555 1_555
C53F O12F 1_555 1_555
C54F O13F 1_555 1_555
Cd2 O10E 1_555 1_555
O10 Cd2E_2 1_555 1_555
O12 Cd2B 1_555 1_555
O14 Cd1_2 1_555 1_555
C5 C6 1_555 1_555
C11 C12 1_555 1_555
C17 C18 1_555 1_555
C23 C24 1_555 1_555
C32 C33 1_555 1_555
C38 C39 1_555 1_555
C44 C45 1_555 1_555
C49 C54 1_555 1_555
C50 C51 1_555 1_555
Cd1F O14F 1_555 1_555
Cd2E O10_2 1_555 1_555
O8E C27E 1_555 1_555
O14F C54F 1_555 1_555
C5E C6E 1_555 1_555
C11E C12E 1_555 1_555
C17E C18E 1_555 1_555
C22E C27E 1_555 1_555
C23E C24E 1_555 1_555
C32F C33F 1_555 1_555
C37F C52F 1_555 1_555
C38F C39F 1_555 1_555
C43F C53F 1_555 1_555
C44F C45F 1_555 1_555
C49F C54F 1_555 1_555
C50F C51F 1_555 1_555

#END
