
#######################################################################
#
#                 Cambridge Crystallographic Data Centre
#                                CCDC 
#
#######################################################################
#
# If this CIF has been generated from an entry in the Cambridge 
# Structural Database, then it will include bibliographic, chemical, 
# crystal, experimental, refinement or atomic coordinate data resulting 
# from the CCDC's data processing and validation procedures.
#
#######################################################################

data_FEWWOV
_chemical_formula_moiety         '(C95 H70 Co3 N30 O3 S6)n'
_symmetry_cell_setting           trigonal
_symmetry_space_group_name_H-M   'P 3 c 1'
_symmetry_Int_Tables_number      158
_space_group_name_Hall           'P 3 -2"c'
loop_
_symmetry_equiv_pos_site_id
_symmetry_equiv_pos_as_xyz
1 x,y,z
2 -y,x-y,z
3 -x+y,-x,z
4 -y,-x,1/2+z
5 -x+y,y,1/2+z
6 x,x-y,1/2+z
_cell_length_a                   19.652(3)
_cell_length_b                   19.652(3)
_cell_length_c                   19.074(6)
_cell_angle_alpha                90
_cell_angle_beta                 90
_cell_angle_gamma                120
_cell_volume                     6379.49
loop_
_atom_site_label
_atom_site_type_symbol
_atom_site_fract_x
_atom_site_fract_y
_atom_site_fract_z
Co1 Co 0.00043(9) 0.66444(9) 0.3986(3)
N1 N 0.0921(7) 0.6610(8) 0.3477(9)
C1 C 0.1342(8) 0.6595(10) 0.3065(12)
S1 S 0.1980(4) 0.6597(6) 0.2546(5)
N2 N -0.0902(7) 0.6696(7) 0.4493(9)
C2 C -0.1507(7) 0.6650(8) 0.4651(11)
S2 S -0.2362(3) 0.6522(3) 0.4847(4)
N3 N 0.0697(6) 0.7900(6) 0.4073(10)
C3 C 0.1465(7) 0.8248(8) 0.4270(15)
H1 H 0.1698 0.7929 0.4332
C4 C 0.1907(10) 0.9027(9) 0.4382(19)
H2 H 0.2455 0.9258 0.4464
C5 C 0.1548(9) 0.9509(9) 0.4376(17)
H3 H 0.1842 1.0052 0.4491
C6 C 0.0776(7) 0.9165(8) 0.4202(12)
C7 C 0.0348(8) 0.8340(8) 0.4046(12)
H4 H -0.0191 0.8101 0.3922
N4 N 0.0429(8) 0.3929(11) 0.0031(9)
C8 C 0.1051(8) 0.4637(12) 0.0121(11)
H5 H 0.1361 0.4900 -0.0278
C9 C 0.1268(8) 0.5003(12) 0.0737(13)
H6 H 0.1754 0.5482 0.0778
C10 C 0.0804(12) 0.4698(16) 0.1297(14)
H7 H 0.0959 0.4956 0.1737
C11 C 0.0099(8) 0.4006(12) 0.1232(12)
C12 C -0.0038(9) 0.3618(12) 0.0580(11)
H8 H -0.0487 0.3110 0.0534
N5 N -0.0754(7) 0.5349(6) 0.3945(9)
C13 C -0.1335(10) 0.4963(9) 0.4448(15)
H9 H -0.1411 0.5229 0.4830
C14 C -0.1795(13) 0.4155(10) 0.4347(15)
H10 H -0.2210 0.3892 0.4676
C15 C -0.1746(11) 0.3698(9) 0.3869(14)
H11 H -0.2077 0.3143 0.3867
C16 C -0.1162(11) 0.4104(9) 0.3361(14)
C17 C -0.0695(9) 0.4915(8) 0.3390(12)
H12 H -0.0327 0.5182 0.3025
N6 N -0.1498(11) 0.2898(7) 0.2865(12)
C18 C -0.1045(11) 0.3676(8) 0.2803(14)
N7 N -0.0426(7) 0.9178(7) 0.4109(10)
C19 C 0.0372(7) 0.9608(7) 0.4153(11)
N8 N -0.0937(8) 0.2814(11) 0.1733(9)
N9 N -0.0500(9) 0.4024(7) 0.2336(10)
C20 C -0.0482(9) 0.3613(13) 0.1824(11)
C21 C -0.1963(16) 0.1621(9) 0.2323(13)
C22 C -0.2376(14) 0.1259(9) 0.2850(15)
H13 H -0.2391 0.1595 0.3200
C23 C -0.1406(15) 0.2474(10) 0.2295(14)
C24 C -0.2449(16) 0.0347(10) 0.1800(14)
H14 H -0.2535 0.0011 0.1411
C25 C -0.1907(22) 0.1196(14) 0.1684(16)
H15 H -0.1586 0.1429 0.1284
N10 N -0.2800(9) 0.0487(6) 0.3012(9)
C26 C -0.2841(14) -0.0009(10) 0.2399(14)
H16 H -0.3135 -0.0565 0.2428
N3A N 0.2100(6) 1.2797(8) 0.4073(10)
C3A C 0.1752(8) 1.3217(11) 0.4270(15)
H1A H 0.2071 1.3769 0.4332
C4A C 0.0973(9) 1.2880(13) 0.4382(19)
H2A H 0.0742 1.3197 0.4464
C5A C 0.0491(9) 1.2039(13) 0.4376(17)
H3A H -0.0052 1.1790 0.4491
C6A C 0.0835(8) 1.1611(11) 0.4202(12)
C7A C 0.1660(8) 1.2008(11) 0.4046(12)
H4A H 0.1899 1.1708 0.3922
N7A N 0.0822(7) 1.0396(10) 0.4109(10)
C19A C 0.0392(7) 1.0764(10) 0.4153(11)
N3B N -0.2797(8) 0.9303(6) 0.4073(10)
C3B C -0.3217(11) 0.8535(7) 0.4270(15)
H1B H -0.3769 0.8302 0.4332
C4B C -0.2880(13) 0.8093(10) 0.4382(19)
H2B H -0.3197 0.7545 0.4464
C5B C -0.2039(13) 0.8452(9) 0.4376(17)
H3B H -0.1790 0.8158 0.4491
C6B C -0.1611(11) 0.9224(7) 0.4202(12)
C7B C -0.2008(11) 0.9652(8) 0.4046(12)
H4B H -0.1708 1.0191 0.3922
N7B N -0.0396(10) 1.0426(7) 0.4109(10)
C19B C -0.0764(10) 0.9628(7) 0.4153(11)
Co1A Co -0.66444(9) 0.33599(13) 0.3986(3)
N1A N -0.6610(8) 0.4311(11) 0.3477(9)
C1A C -0.6595(10) 0.4747(13) 0.3065(12)
S1A S -0.6597(6) 0.5383(7) 0.2546(5)
N2A N -0.6696(7) 0.2402(10) 0.4493(9)
C2A C -0.6650(8) 0.1843(11) 0.4651(11)
S2A S -0.6522(3) 0.1116(4) 0.4847(4)
N4A N -0.3929(11) 0.6500(14) 0.0031(9)
C8A C -0.4637(12) 0.6414(14) 0.0121(11)
H5A H -0.4900 0.6461 -0.0278
C9A C -0.5003(12) 0.6265(14) 0.0737(13)
H6A H -0.5482 0.6272 0.0778
C10A C -0.4698(16) 0.6106(20) 0.1297(14)
H7A H -0.4956 0.6003 0.1737
C11A C -0.4006(12) 0.6093(14) 0.1232(12)
C12A C -0.3618(12) 0.6344(15) 0.0580(11)
H8A H -0.3110 0.6403 0.0534
N5A N -0.5349(6) 0.3897(9) 0.3945(9)
C13A C -0.4963(9) 0.3702(13) 0.4448(15)
H9A H -0.5229 0.3360 0.4830
C14A C -0.4155(10) 0.4050(16) 0.4347(15)
H10A H -0.3892 0.3898 0.4676
C15A C -0.3698(9) 0.4556(14) 0.3869(14)
H11A H -0.3143 0.4780 0.3867
C16A C -0.4104(9) 0.4734(14) 0.3361(14)
C17A C -0.4915(8) 0.4390(12) 0.3390(12)
H12A H -0.5182 0.4491 0.3025
N6A N -0.2898(7) 0.5604(13) 0.2865(12)
C18A C -0.3676(8) 0.5279(14) 0.2803(14)
N8A N -0.2814(11) 0.6249(14) 0.1733(9)
N9A N -0.4024(7) 0.5476(11) 0.2336(10)
C20A C -0.3613(13) 0.5905(16) 0.1824(11)
C21A C -0.1621(9) 0.6416(18) 0.2323(13)
C22A C -0.1259(9) 0.6365(17) 0.2850(15)
H13A H -0.1595 0.6014 0.3200
C23A C -0.2474(10) 0.6120(18) 0.2295(14)
C24A C -0.0347(10) 0.7204(19) 0.1800(14)
H14A H -0.0011 0.7454 0.1411
C25A C -0.1196(14) 0.6897(26) 0.1684(16)
H15A H -0.1429 0.6985 0.1284
N10A N -0.0487(6) 0.6713(11) 0.3012(9)
C26A C 0.0009(10) 0.7168(17) 0.2399(14)
H16A H 0.0565 0.7430 0.2428
Co1B Co -0.33599(13) -0.00043(9) 0.3986(3)
N1B N -0.4311(11) -0.0921(7) 0.3477(9)
C1B C -0.4747(13) -0.1342(8) 0.3065(12)
S1B S -0.5383(7) -0.1980(4) 0.2546(5)
N2B N -0.2402(10) 0.0902(7) 0.4493(9)
C2B C -0.1843(11) 0.1507(7) 0.4651(11)
S2B S -0.1116(4) 0.2362(3) 0.4847(4)
N4B N -0.6500(14) -0.0429(8) 0.0031(9)
C8B C -0.6414(14) -0.1051(8) 0.0121(11)
H5B H -0.6461 -0.1361 -0.0278
C9B C -0.6265(14) -0.1268(8) 0.0737(13)
H6B H -0.6272 -0.1754 0.0778
C10B C -0.6106(20) -0.0804(12) 0.1297(14)
H7B H -0.6003 -0.0959 0.1737
C11B C -0.6093(14) -0.0099(8) 0.1232(12)
C12B C -0.6344(15) 0.0038(9) 0.0580(11)
H8B H -0.6403 0.0487 0.0534
N5B N -0.3897(9) 0.0754(7) 0.3945(9)
C13B C -0.3702(13) 0.1335(10) 0.4448(15)
H9B H -0.3360 0.1411 0.4830
C14B C -0.4050(16) 0.1795(13) 0.4347(15)
H10B H -0.3898 0.2210 0.4676
C15B C -0.4556(14) 0.1746(11) 0.3869(14)
H11B H -0.4780 0.2077 0.3867
C16B C -0.4734(14) 0.1162(11) 0.3361(14)
C17B C -0.4390(12) 0.0695(9) 0.3390(12)
H12B H -0.4491 0.0327 0.3025
N6B N -0.5604(13) 0.1498(11) 0.2865(12)
C18B C -0.5279(14) 0.1045(11) 0.2803(14)
N8B N -0.6249(14) 0.0937(8) 0.1733(9)
N9B N -0.5476(11) 0.0500(9) 0.2336(10)
C20B C -0.5905(16) 0.0482(9) 0.1824(11)
C21B C -0.6416(18) 0.1963(16) 0.2323(13)
C22B C -0.6365(17) 0.2376(14) 0.2850(15)
H13B H -0.6014 0.2391 0.3200
C23B C -0.6120(18) 0.1406(15) 0.2295(14)
C24B C -0.7204(19) 0.2449(16) 0.1800(14)
H14B H -0.7454 0.2535 0.1411
C25B C -0.6897(26) 0.1907(22) 0.1684(16)
H15B H -0.6985 0.1586 0.1284
N10B N -0.6713(11) 0.2800(9) 0.3012(9)
C26B C -0.7168(17) 0.2841(14) 0.2399(14)
H16B H -0.7430 0.3135 0.2428
Co1A_2 Co 0.33556(9) 1.33599(13) 0.3986(3)
Co1B_2 Co -0.33599(13) 0.99957(9) 0.3986(3)
Co1C Co -0.66444(9) -0.00043(9) -0.1014(3)
Co1D Co -0.33599(13) 0.66444(9) -0.1014(3)
Co1E Co 0.00043(9) 0.33599(13) -0.1014(3)
N3A_2 N -0.7900(6) 0.2797(8) 0.4073(10)
N3B_2 N -0.2797(8) -0.0697(6) 0.4073(10)
N4C N -0.3929(11) -0.0429(8) 0.5031(9)
N4D N -0.6500(14) 0.3929(11) 0.5031(9)
N4E N 0.0429(8) 0.6500(14) 0.5031(9)
C27 C 0.3360(12) 0.8378(12) 0.4656(9)
C28 C 0.3162(12) 0.8332(11) 0.5350(9)
H17 H 0.2879 0.7821 0.5549
C29 C 0.3338(14) 0.8966(14) 0.5794(10)
H18 H 0.3168 0.8901 0.6268
C30 C 0.3798(15) 0.9725(12) 0.5471(15)
H19 H 0.3976 1.0187 0.5746
C31 C 0.3978(17) 0.9789(11) 0.4784(16)
H20 H 0.4248 1.0291 0.4567
C32 C 0.3767(15) 0.9117(14) 0.4395(11)
H21 H 0.3918 0.9178 0.3916
C33 C 0.313(2) 0.7663(17) 0.4171(13)
H22 H 0.3178 0.7831 0.3676
H23 H 0.3509 0.7472 0.4246
O1 O 0.235(2) 0.7033(14) 0.4300(18)
H24 H 0.2225 0.6687 0.3990
C34 C 0.1817(14) 0.9349(13) 0.1819(14)
C35 C 0.1674(17) 0.9656(18) 0.1230(14)
H25 H 0.1738 0.9466 0.0791
C36 C 0.144(2) 1.022(2) 0.1212(19)
H26 H 0.1371 1.0433 0.0788
C37 C 0.1321(17) 1.0462(18) 0.189(2)
H27 H 0.1124 1.0815 0.1927
C38 C 0.148(2) 1.019(2) 0.2481(18)
H28 H 0.1438 1.0382 0.2927
C39 C 0.171(2) 0.963(2) 0.2433(14)
H29 H 0.1807 0.9438 0.2856
C40 C 0.210(2) 0.8740(17) 0.182(2)
H30 H 0.2332 0.8750 0.2284
H31 H 0.1641 0.8208 0.1752
O2 O 0.267(2) 0.889(2) 0.128(2)
H32 H 0.2441 0.8754 0.0894
O3 O -0.300(3) 0.487(3) 0.624(4)
C41 C -0.409(3) 0.366(2) 0.646(3)
H33 H -0.3697 0.3495 0.6507
H34 H -0.4456 0.3366 0.6083
H35 H -0.4375 0.3570 0.6902
C42 C -0.368(3) 0.451(2) 0.6291(17)
C43 C -0.414(5) 0.492(4) 0.619(4)
H36 H -0.3775 0.5479 0.6084
H37 H -0.4427 0.4885 0.6622
H38 H -0.4507 0.4681 0.5803
loop_
_geom_bond_atom_site_label_1
_geom_bond_atom_site_label_2
_geom_bond_site_symmetry_1
_geom_bond_site_symmetry_2
Co1 N1 1_555 1_555
N1 C1 1_555 1_555
C1 S1 1_555 1_555
N2 Co1 1_555 1_555
C2 N2 1_555 1_555
S2 C2 1_555 1_555
N3 Co1 1_555 1_555
C3 N3 1_555 1_555
H1 C3 1_555 1_555
C4 C3 1_555 1_555
H2 C4 1_555 1_555
C5 C4 1_555 1_555
H3 C5 1_555 1_555
C6 C5 1_555 1_555
C7 N3 1_555 1_555
H4 C7 1_555 1_555
N4 C8 1_555 1_555
C8 H5 1_555 1_555
C9 C8 1_555 1_555
H6 C9 1_555 1_555
C10 C9 1_555 1_555
H7 C10 1_555 1_555
C11 C10 1_555 1_555
C12 N4 1_555 1_555
H8 C12 1_555 1_555
N5 Co1 1_555 1_555
C13 N5 1_555 1_555
H9 C13 1_555 1_555
C14 C13 1_555 1_555
H10 C14 1_555 1_555
C15 C14 1_555 1_555
H11 C15 1_555 1_555
C16 C15 1_555 1_555
C17 N5 1_555 1_555
H12 C17 1_555 1_555
N6 C18 1_555 1_555
C18 C16 1_555 1_555
N7 C19 1_555 1_555
C19 C6 1_555 1_555
N8 C20 1_555 1_555
N9 C18 1_555 1_555
C20 C11 1_555 1_555
C21 C22 1_555 1_555
C22 H13 1_555 1_555
C23 N6 1_555 1_555
C24 H14 1_555 1_555
C25 C21 1_555 1_555
H15 C25 1_555 1_555
N10 C22 1_555 1_555
C26 C24 1_555 1_555
H16 C26 1_555 1_555
C27 C28 1_555 1_555
C28 H17 1_555 1_555
C29 C28 1_555 1_555
H18 C29 1_555 1_555
C30 C29 1_555 1_555
H19 C30 1_555 1_555
C31 C30 1_555 1_555
H20 C31 1_555 1_555
C32 C27 1_555 1_555
H21 C32 1_555 1_555
C33 C27 1_555 1_555
H22 C33 1_555 1_555
H23 C33 1_555 1_555
O1 C33 1_555 1_555
H24 O1 1_555 1_555
C34 C35 1_555 1_555
C35 H25 1_555 1_555
C36 C35 1_555 1_555
H26 C36 1_555 1_555
C37 C36 1_555 1_555
H27 C37 1_555 1_555
C38 C37 1_555 1_555
H28 C38 1_555 1_555
C39 C34 1_555 1_555
H29 C39 1_555 1_555
C40 C34 1_555 1_555
H30 C40 1_555 1_555
H31 C40 1_555 1_555
O2 C40 1_555 1_555
H32 O2 1_555 1_555
O3 C42 1_555 1_555
C41 H33 1_555 1_555
H34 C41 1_555 1_555
H35 C41 1_555 1_555
C42 C41 1_555 1_555
C43 C42 1_555 1_555
H36 C43 1_555 1_555
H37 C43 1_555 1_555
H38 C43 1_555 1_555
N3A C3A 1_555 1_555
C3A H1A 1_555 1_555
C4A C3A 1_555 1_555
H2A C4A 1_555 1_555
C5A C4A 1_555 1_555
H3A C5A 1_555 1_555
C6A C5A 1_555 1_555
C7A N3A 1_555 1_555
H4A C7A 1_555 1_555
N7A C19 1_555 1_555
C19A C6A 1_555 1_555
N3B C3B 1_555 1_555
C3B H1B 1_555 1_555
C4B C3B 1_555 1_555
H2B C4B 1_555 1_555
C5B C4B 1_555 1_555
H3B C5B 1_555 1_555
C6B C5B 1_555 1_555
C7B N3B 1_555 1_555
H4B C7B 1_555 1_555
N7B C19A 1_555 1_555
C19B N7 1_555 1_555
Co1A N1A 1_555 1_555
N1A C1A 1_555 1_555
C1A S1A 1_555 1_555
N2A Co1A 1_555 1_555
C2A N2A 1_555 1_555
S2A C2A 1_555 1_555
N4A C8A 1_555 1_555
C8A H5A 1_555 1_555
C9A C8A 1_555 1_555
H6A C9A 1_555 1_555
C10A C9A 1_555 1_555
H7A C10A 1_555 1_555
C11A C10A 1_555 1_555
C12A N4A 1_555 1_555
H8A C12A 1_555 1_555
N5A Co1A 1_555 1_555
C13A N5A 1_555 1_555
H9A C13A 1_555 1_555
C14A C13A 1_555 1_555
H10A C14A 1_555 1_555
C15A C14A 1_555 1_555
H11A C15A 1_555 1_555
C16A C15A 1_555 1_555
C17A N5A 1_555 1_555
H12A C17A 1_555 1_555
N6A C18A 1_555 1_555
C18A C16A 1_555 1_555
N8A C20A 1_555 1_555
N9A C18A 1_555 1_555
C20A C11A 1_555 1_555
C21A C22A 1_555 1_555
C22A H13A 1_555 1_555
C23A N6A 1_555 1_555
C24A H14A 1_555 1_555
C25A C21A 1_555 1_555
H15A C25A 1_555 1_555
N10A Co1 1_555 1_555
C26A C24A 1_555 1_555
H16A C26A 1_555 1_555
Co1B N10 1_555 1_555
N1B Co1B 1_555 1_555
C1B N1B 1_555 1_555
S1B C1B 1_555 1_555
N2B Co1B 1_555 1_555
C2B N2B 1_555 1_555
S2B C2B 1_555 1_555
N4B C8B 1_555 1_555
C8B H5B 1_555 1_555
C9B C8B 1_555 1_555
H6B C9B 1_555 1_555
C10B C9B 1_555 1_555
H7B C10B 1_555 1_555
C11B C10B 1_555 1_555
C12B N4B 1_555 1_555
H8B C12B 1_555 1_555
N5B Co1B 1_555 1_555
C13B N5B 1_555 1_555
H9B C13B 1_555 1_555
C14B C13B 1_555 1_555
H10B C14B 1_555 1_555
C15B C14B 1_555 1_555
H11B C15B 1_555 1_555
C16B C15B 1_555 1_555
C17B N5B 1_555 1_555
H12B C17B 1_555 1_555
N6B C18B 1_555 1_555
C18B C16B 1_555 1_555
N8B C20B 1_555 1_555
N9B C18B 1_555 1_555
C20B C11B 1_555 1_555
C21B C22B 1_555 1_555
C22B H13B 1_555 1_555
C23B N6B 1_555 1_555
C24B H14B 1_555 1_555
C25B C21B 1_555 1_555
H15B C25B 1_555 1_555
N10B Co1A 1_555 1_555
C26B C24B 1_555 1_555
H16B C26B 1_555 1_555
Co1A_2 N3A 1_555 1_555
Co1B_2 N3B 1_555 1_555
Co1C N4B 1_555 1_555
Co1D N4A 1_555 1_555
Co1E N4 1_555 1_555
N3A_2 Co1A 1_555 1_555
N3B_2 Co1B 1_555 1_555
N4C Co1B 1_555 1_555
N4D Co1A 1_555 1_555
N4E Co1 1_555 1_555
C6 C7 1_555 1_555
C11 C12 1_555 1_555
C16 C17 1_555 1_555
N8 C23 1_555 1_555
N9 C20 1_555 1_555
C21 C23 1_555 1_555
C24 C25 1_555 1_555
N10 C26 1_555 1_555
C31 C32 1_555 1_555
C38 C39 1_555 1_555
C6A C7A 1_555 1_555
N7A C19A 1_555 1_555
C6B C7B 1_555 1_555
C6B C19B 1_555 1_555
N7B C19B 1_555 1_555
C11A C12A 1_555 1_555
C16A C17A 1_555 1_555
N8A C23A 1_555 1_555
N9A C20A 1_555 1_555
C21A C23A 1_555 1_555
C22A N10A 1_555 1_555
C24A C25A 1_555 1_555
N10A C26A 1_555 1_555
C11B C12B 1_555 1_555
C16B C17B 1_555 1_555
N8B C23B 1_555 1_555
N9B C20B 1_555 1_555
C21B C23B 1_555 1_555
C22B N10B 1_555 1_555
C24B C25B 1_555 1_555
N10B C26B 1_555 1_555

#END
