
#######################################################################
#
#                 Cambridge Crystallographic Data Centre
#                                CCDC 
#
#######################################################################
#
# If this CIF has been generated from an entry in the Cambridge 
# Structural Database, then it will include bibliographic, chemical, 
# crystal, experimental, refinement or atomic coordinate data resulting 
# from the CCDC's data processing and validation procedures.
#
#######################################################################

data_FEWWUB
_chemical_formula_moiety         '(C95 H70 Fe3 N30 O3 S6)n'
_symmetry_cell_setting           cubic
_symmetry_space_group_name_H-M   'I 2 3'
_symmetry_Int_Tables_number      197
_space_group_name_Hall           'I 2 2 3'
loop_
_symmetry_equiv_pos_site_id
_symmetry_equiv_pos_as_xyz
1 x,y,z
2 -x,-y,z
3 -x,y,-z
4 x,-y,-z
5 z,x,y
6 z,-x,-y
7 -z,-x,y
8 -z,x,-y
9 y,z,x
10 -y,z,-x
11 y,-z,-x
12 -y,-z,x
13 1/2+x,1/2+y,1/2+z
14 1/2-x,1/2-y,1/2+z
15 1/2-x,1/2+y,1/2-z
16 1/2+x,1/2-y,1/2-z
17 1/2+z,1/2+x,1/2+y
18 1/2+z,1/2-x,1/2-y
19 1/2-z,1/2-x,1/2+y
20 1/2-z,1/2+x,1/2-y
21 1/2+y,1/2+z,1/2+x
22 1/2-y,1/2+z,1/2-x
23 1/2+y,1/2-z,1/2-x
24 1/2-y,1/2-z,1/2+x
_cell_length_a                   32.098(3)
_cell_length_b                   32.098(3)
_cell_length_c                   32.098(3)
_cell_angle_alpha                90
_cell_angle_beta                 90
_cell_angle_gamma                90
_cell_volume                     33070
loop_
_atom_site_label
_atom_site_type_symbol
_atom_site_fract_x
_atom_site_fract_y
_atom_site_fract_z
_atom_site_U_iso_or_equiv
_atom_site_thermal_displace_type
Fe1 Fe 0.00371(3) 0.27982(3) 0.21464(3) 0.0410 Uani
N1 N -0.0020(3) 0.2696(2) 0.1508(2) 0.0547 Uani
S1 S -0.0328(2) 0.2536(3) 0.07240(16) 0.2060 Uani
C1 C -0.0155(4) 0.2619(5) 0.1186(4) 0.0987 Uani
N2 N -0.04995(19) 0.3227(2) 0.2115(2) 0.0473 Uani
N3 N -0.1267(2) 0.3351(2) 0.3150(2) 0.0497 Uani
C2 C -0.1394(2) 0.3541(2) 0.2796(2) 0.0430 Uani
N4 N -0.1753(2) 0.3730(2) 0.2733(2) 0.0530 Uani
C3 C -0.2015(2) 0.3710(3) 0.3068(2) 0.0470 Uani
N5 N -0.1931(2) 0.3519(2) 0.3416(2) 0.0540 Uani
C4 C -0.1554(2) 0.3357(2) 0.3452(2) 0.0470 Uani
N6 N -0.2845(2) 0.4418(2) 0.2656(2) 0.0473 Uani
N7 N -0.1670(2) 0.2940(2) 0.4528(2) 0.0520 Uani
C5 C -0.0560(3) 0.3489(3) 0.1789(3) 0.0650 Uani
H1 H -0.0363 0.3488 0.1568 0.0780 Uiso
C6 C -0.0885(4) 0.3748(4) 0.1765(4) 0.0840 Uani
H2 H -0.0924 0.3911 0.1521 0.1010 Uiso
C7 C -0.1166(3) 0.3784(3) 0.2090(3) 0.0757 Uani
H3 H -0.1393 0.3974 0.2077 0.0910 Uiso
C8 C -0.1104(2) 0.3532(2) 0.2435(2) 0.0483 Uani
C9 C -0.0763(2) 0.3259(2) 0.2433(2) 0.0443 Uani
H4 H -0.0718 0.3088 0.2671 0.0530 Uiso
C10 C -0.3136(3) 0.4363(3) 0.2937(3) 0.0577 Uani
H5 H -0.3383 0.4523 0.2912 0.0690 Uiso
C11 C -0.3110(3) 0.4090(3) 0.3266(3) 0.0680 Uani
H6 H -0.3337 0.4048 0.3451 0.0820 Uiso
C12 C -0.2728(3) 0.3871(3) 0.3318(3) 0.0660 Uani
H7 H -0.2686 0.3688 0.3546 0.0790 Uiso
C13 C -0.2423(2) 0.3933(3) 0.3029(3) 0.0513 Uani
C14 C -0.2493(2) 0.4198(2) 0.2699(2) 0.0437 Uani
H8 H -0.2283 0.4226 0.2493 0.0520 Uiso
C15 C -0.1734(2) 0.3135(2) 0.4164(2) 0.0427 Uani
H9 H -0.1996 0.3265 0.4119 0.0510 Uiso
C16 C -0.1441(2) 0.3157(3) 0.3853(3) 0.0517 Uani
C17 C -0.1058(3) 0.2981(4) 0.3924(3) 0.0817 Uani
H10 H -0.0855 0.2972 0.3709 0.0980 Uiso
C18 C -0.0969(3) 0.2815(5) 0.4314(3) 0.0870 Uani
H11 H -0.0697 0.2723 0.4383 0.1040 Uiso
C19 C -0.1284(3) 0.2790(4) 0.4593(3) 0.0717 Uani
H12 H -0.1228 0.2658 0.4852 0.0860 Uiso
N8 N -0.0357(2) 0.2246(2) 0.2281(2) 0.0550 Uani
N9 N -0.1386(2) 0.1973(2) 0.1551(2) 0.0597 Uani
C20 C -0.0262(3) 0.1970(4) 0.2587(3) 0.0820 Uani
H13 H -0.0024 0.2026 0.2754 0.0990 Uiso
C21 C -0.0485(4) 0.1620(4) 0.2668(4) 0.0910 Uani
H14 H -0.0400 0.1437 0.2885 0.1090 Uiso
C22 C -0.0827(4) 0.1532(4) 0.2441(4) 0.0970 Uani
H15 H -0.0981 0.1284 0.2493 0.1160 Uiso
C23 C -0.0951(3) 0.1800(3) 0.2133(3) 0.0587 Uani
C24 C -0.0706(2) 0.2146(3) 0.2063(2) 0.0480 Uani
H16 H -0.0787 0.2329 0.1845 0.0580 Uiso
C25 C -0.1311(2) 0.1718(3) 0.1867(3) 0.0517 Uani
S2 S 0.00538(17) 0.26940(16) 0.36412(16) 0.0952 Uiso
C26 C 0.0068(3) 0.2865(6) 0.3146(3) 0.1120 Uani
N10 N 0.0079(2) 0.2894(3) 0.2787(2) 0.0573 Uani
N8F N -0.2281(2) 0.0357(2) 0.2246(2) 0.0550 Uani
N9F N -0.1551(2) 0.1386(2) 0.1973(2) 0.0597 Uani
C20F C -0.2587(3) 0.0262(3) 0.1970(4) 0.0820 Uani
H13F H -0.2754 0.0024 0.2026 0.0990 Uiso
C21F C -0.2668(4) 0.0485(4) 0.1620(4) 0.0910 Uani
H14F H -0.2885 0.0400 0.1437 0.1090 Uiso
C22F C -0.2441(4) 0.0827(4) 0.1532(4) 0.0970 Uani
H15F H -0.2493 0.0981 0.1284 0.1160 Uiso
C23F C -0.2133(3) 0.0951(3) 0.1800(3) 0.0587 Uani
C24F C -0.2063(2) 0.0706(2) 0.2146(3) 0.0480 Uani
H16F H -0.1845 0.0787 0.2329 0.0580 Uiso
C25F C -0.1867(3) 0.1311(2) 0.1718(3) 0.0517 Uani
N8I N -0.2246(2) 0.2281(2) 0.0357(2) 0.0550 Uani
N9I N -0.1973(2) 0.1551(2) 0.1386(2) 0.0597 Uani
C20I C -0.1970(4) 0.2587(3) 0.0262(3) 0.0820 Uani
H13I H -0.2026 0.2754 0.0024 0.0990 Uiso
C21I C -0.1620(4) 0.2668(4) 0.0485(4) 0.0910 Uani
H14I H -0.1437 0.2885 0.0400 0.1090 Uiso
C22I C -0.1532(4) 0.2441(4) 0.0827(4) 0.0970 Uani
H15I H -0.1284 0.2493 0.0981 0.1160 Uiso
C23I C -0.1800(3) 0.2133(3) 0.0951(3) 0.0587 Uani
C24I C -0.2146(3) 0.2063(2) 0.0706(2) 0.0480 Uani
H16I H -0.2329 0.1845 0.0787 0.0580 Uiso
C25I C -0.1718(3) 0.1867(3) 0.1311(2) 0.0517 Uani
Fe1F Fe -0.21464(3) -0.00371(3) 0.27982(3) 0.0410 Uani
N1F N -0.1508(2) 0.0020(3) 0.2696(2) 0.0547 Uani
S1F S -0.07240(16) 0.0328(2) 0.2536(3) 0.2060 Uani
C1F C -0.1186(4) 0.0155(4) 0.2619(5) 0.0987 Uani
N2F N -0.2115(2) 0.04995(19) 0.3227(2) 0.0473 Uani
N3F N -0.3150(2) 0.1267(2) 0.3351(2) 0.0497 Uani
C2F C -0.2796(2) 0.1394(2) 0.3541(2) 0.0430 Uani
N4F N -0.2733(2) 0.1753(2) 0.3730(2) 0.0530 Uani
C3F C -0.3068(2) 0.2015(2) 0.3710(3) 0.0470 Uani
N5F N -0.3416(2) 0.1931(2) 0.3519(2) 0.0540 Uani
C4F C -0.3452(2) 0.1554(2) 0.3357(2) 0.0470 Uani
N6F N -0.2656(2) 0.2845(2) 0.4418(2) 0.0473 Uani
N7F N -0.4528(2) 0.1670(2) 0.2940(2) 0.0520 Uani
C5F C -0.1789(3) 0.0560(3) 0.3489(3) 0.0650 Uani
H1F H -0.1568 0.0363 0.3488 0.0780 Uiso
C6F C -0.1765(4) 0.0885(4) 0.3748(4) 0.0840 Uani
H2F H -0.1521 0.0924 0.3911 0.1010 Uiso
C7F C -0.2090(3) 0.1166(3) 0.3784(3) 0.0757 Uani
H3F H -0.2077 0.1393 0.3974 0.0910 Uiso
C8F C -0.2435(2) 0.1104(2) 0.3532(2) 0.0483 Uani
C9F C -0.2433(2) 0.0763(2) 0.3259(2) 0.0443 Uani
H4F H -0.2671 0.0718 0.3088 0.0530 Uiso
C10F C -0.2937(3) 0.3136(3) 0.4363(3) 0.0577 Uani
H5F H -0.2912 0.3383 0.4523 0.0690 Uiso
C11F C -0.3266(3) 0.3110(3) 0.4090(3) 0.0680 Uani
H6F H -0.3451 0.3337 0.4048 0.0820 Uiso
C12F C -0.3318(3) 0.2728(3) 0.3871(3) 0.0660 Uani
H7F H -0.3546 0.2686 0.3688 0.0790 Uiso
C13F C -0.3029(3) 0.2423(2) 0.3933(3) 0.0513 Uani
C14F C -0.2699(2) 0.2493(2) 0.4198(2) 0.0437 Uani
H8F H -0.2493 0.2283 0.4226 0.0520 Uiso
C15F C -0.4164(2) 0.1734(2) 0.3135(2) 0.0427 Uani
H9F H -0.4119 0.1996 0.3265 0.0510 Uiso
C16F C -0.3853(3) 0.1441(2) 0.3157(3) 0.0517 Uani
C17F C -0.3924(3) 0.1058(3) 0.2981(4) 0.0817 Uani
H10F H -0.3709 0.0855 0.2972 0.0980 Uiso
C18F C -0.4314(3) 0.0969(3) 0.2815(5) 0.0870 Uani
H11F H -0.4383 0.0697 0.2723 0.1040 Uiso
C19F C -0.4593(3) 0.1284(3) 0.2790(4) 0.0717 Uani
H12F H -0.4852 0.1228 0.2658 0.0860 Uiso
S2F S -0.36412(16) -0.00538(17) 0.26940(16) 0.0952 Uiso
C26F C -0.3146(3) -0.0068(3) 0.2865(6) 0.1120 Uani
N10F N -0.2787(2) -0.0079(2) 0.2894(3) 0.0573 Uani
Fe1I Fe -0.27982(3) 0.21464(3) -0.00371(3) 0.0410 Uani
N1I N -0.2696(2) 0.1508(2) 0.0020(3) 0.0547 Uani
S1I S -0.2536(3) 0.07240(16) 0.0328(2) 0.2060 Uani
C1I C -0.2619(5) 0.1186(4) 0.0155(4) 0.0987 Uani
N2I N -0.3227(2) 0.2115(2) 0.04995(19) 0.0473 Uani
N3I N -0.3351(2) 0.3150(2) 0.1267(2) 0.0497 Uani
C2I C -0.3541(2) 0.2796(2) 0.1394(2) 0.0430 Uani
N4I N -0.3730(2) 0.2733(2) 0.1753(2) 0.0530 Uani
C3I C -0.3710(3) 0.3068(2) 0.2015(2) 0.0470 Uani
N5I N -0.3519(2) 0.3416(2) 0.1931(2) 0.0540 Uani
C4I C -0.3357(2) 0.3452(2) 0.1554(2) 0.0470 Uani
N6I N -0.4418(2) 0.2656(2) 0.2845(2) 0.0473 Uani
N7I N -0.2940(2) 0.4528(2) 0.1670(2) 0.0520 Uani
C5I C -0.3489(3) 0.1789(3) 0.0560(3) 0.0650 Uani
H1I H -0.3488 0.1568 0.0363 0.0780 Uiso
C6I C -0.3748(4) 0.1765(4) 0.0885(4) 0.0840 Uani
H2I H -0.3911 0.1521 0.0924 0.1010 Uiso
C7I C -0.3784(3) 0.2090(3) 0.1166(3) 0.0757 Uani
H3I H -0.3974 0.2077 0.1393 0.0910 Uiso
C8I C -0.3532(2) 0.2435(2) 0.1104(2) 0.0483 Uani
C9I C -0.3259(2) 0.2433(2) 0.0763(2) 0.0443 Uani
H4I H -0.3088 0.2671 0.0718 0.0530 Uiso
C10I C -0.4363(3) 0.2937(3) 0.3136(3) 0.0577 Uani
H5I H -0.4523 0.2912 0.3383 0.0690 Uiso
C11I C -0.4090(3) 0.3266(3) 0.3110(3) 0.0680 Uani
H6I H -0.4048 0.3451 0.3337 0.0820 Uiso
C12I C -0.3871(3) 0.3318(3) 0.2728(3) 0.0660 Uani
H7I H -0.3688 0.3546 0.2686 0.0790 Uiso
C13I C -0.3933(3) 0.3029(3) 0.2423(2) 0.0513 Uani
C14I C -0.4198(2) 0.2699(2) 0.2493(2) 0.0437 Uani
H8I H -0.4226 0.2493 0.2283 0.0520 Uiso
C15I C -0.3135(2) 0.4164(2) 0.1734(2) 0.0427 Uani
H9I H -0.3265 0.4119 0.1996 0.0510 Uiso
C16I C -0.3157(3) 0.3853(3) 0.1441(2) 0.0517 Uani
C17I C -0.2981(4) 0.3924(3) 0.1058(3) 0.0817 Uani
H10I H -0.2972 0.3709 0.0855 0.0980 Uiso
C18I C -0.2815(5) 0.4314(3) 0.0969(3) 0.0870 Uani
H11I H -0.2723 0.4383 0.0697 0.1040 Uiso
C19I C -0.2790(4) 0.4593(3) 0.1284(3) 0.0717 Uani
H12I H -0.2658 0.4852 0.1228 0.0860 Uiso
S2I S -0.26940(16) 0.36412(16) -0.00538(17) 0.0952 Uiso
C26I C -0.2865(6) 0.3146(3) -0.0068(3) 0.1120 Uani
N10I N -0.2894(3) 0.2787(2) -0.0079(2) 0.0573 Uani
Fe1O Fe -0.49629(3) 0.22018(3) 0.28536(3) 0.0410 Uani
Fe1Q Fe -0.28536(3) 0.49629(3) 0.22018(3) 0.0410 Uani
Fe1V Fe -0.22018(3) 0.28536(3) 0.49629(3) 0.0410 Uani
N6N N -0.2155(2) -0.0582(2) 0.2344(2) 0.0473 Uani
N6P N -0.2344(2) 0.2155(2) -0.0582(2) 0.0473 Uani
N6W N 0.0582(2) 0.2344(2) 0.2155(2) 0.0473 Uani
N7M N -0.3330(2) 0.2060(2) -0.0472(2) 0.0520 Uani
N7S N 0.0472(2) 0.3330(2) 0.2060(2) 0.0520 Uani
N7T N -0.2060(2) -0.0472(2) 0.3330(2) 0.0520 Uani
C27 C 0.0617(3) 0.1564(3) 0.3803(3) 0.1560 Uiso
C28 C 0.0482(4) 0.1492(3) 0.3404(3) 0.1500 Uiso
H17 H 0.0375 0.1724 0.3254 0.1800 Uiso
C29 C 0.0486(5) 0.1108(4) 0.3197(4) 0.1770 Uiso
H18 H 0.0378 0.1072 0.2924 0.2120 Uiso
C30 C 0.0668(4) 0.0773(3) 0.3433(5) 0.1620 Uiso
H19 H 0.0702 0.0507 0.3307 0.1950 Uiso
C31 C 0.0790(4) 0.0831(3) 0.3830(5) 0.1580 Uiso
H20 H 0.0891 0.0603 0.3990 0.1890 Uiso
C32 C 0.0768(4) 0.1226(4) 0.4004(4) 0.1630 Uiso
H21 H 0.0865 0.1261 0.4281 0.1950 Uiso
O1 O 0.0216(5) 0.2209(3) 0.3941(4) 0.1810 Uiso
H22 H 0.0269 0.2421 0.3797 0.2720 Uiso
C33 C 0.0595(4) 0.1990(3) 0.4029(4) 0.1780 Uiso
H23 H 0.0617 0.1945 0.4333 0.2130 Uiso
H24 H 0.0835 0.2164 0.3942 0.2130 Uiso
C34 C -0.1636(4) 0.2303(4) 0.3149(4) 0.1530 Uiso
C35 C -0.1803(5) 0.2171(6) 0.3519(5) 0.2350 Uiso
H25 H -0.2094 0.2210 0.3556 0.2820 Uiso
C36 C -0.1586(7) 0.1984(6) 0.3848(4) 0.2170 Uiso
H26 H -0.1715 0.1908 0.4103 0.2600 Uiso
C37 C -0.1150(7) 0.1916(6) 0.3766(6) 0.2500 Uiso
H27 H -0.0984 0.1771 0.3964 0.3010 Uiso
C38 C -0.0973(5) 0.2056(7) 0.3411(6) 0.2650 Uiso
H28 H -0.0682 0.2028 0.3369 0.3170 Uiso
C39 C -0.1220(4) 0.2239(5) 0.3109(5) 0.2090 Uiso
H29 H -0.1090 0.2326 0.2858 0.2510 Uiso
O2 O -0.1519(7) 0.2526(6) 0.2466(4) 0.2520 Uiso
H30 H -0.1557 0.2722 0.2296 0.3780 Uiso
C40 C -0.1882(5) 0.2522(6) 0.2796(5) 0.2190 Uiso
H31 H -0.1973 0.2806 0.2875 0.2630 Uiso
H32 H -0.2124 0.2357 0.2702 0.2630 Uiso
O3 O -0.3610(5) 0.5153(4) 0.3776(4) 0.1630 Uiso
C41 C -0.3353(5) 0.5184(4) 0.4058(4) 0.1640 Uiso
C42 C -0.3281(7) 0.4792(6) 0.4300(7) 0.1870 Uiso
H33 H -0.3503 0.4592 0.4238 0.2800 Uiso
H34 H -0.3282 0.4856 0.4599 0.2800 Uiso
H35 H -0.3011 0.4673 0.4222 0.2800 Uiso
C43 C -0.3059(10) 0.5545(8) 0.4095(10) 0.3090 Uiso
H36 H -0.3154 0.5773 0.3916 0.4640 Uiso
H37 H -0.2780 0.5457 0.4008 0.4640 Uiso
H38 H -0.3050 0.5640 0.4385 0.4640 Uiso
loop_
_atom_site_aniso_label
_atom_site_aniso_U_11
_atom_site_aniso_U_22
_atom_site_aniso_U_33
_atom_site_aniso_U_23
_atom_site_aniso_U_13
_atom_site_aniso_U_12
Fe1 0.0339(5) 0.0480(6) 0.0411(6) 0.0006(4) -0.0023(4) -0.0014(4)
N1 0.065(4) 0.061(4) 0.038(3) 0.004(3) -0.005(3) -0.001(4)
S1 0.168(5) 0.368(11) 0.082(3) -0.061(4) -0.041(3) 0.007(6)
C1 0.084(8) 0.148(12) 0.064(7) 0.002(7) 0.003(6) -0.021(8)
N2 0.038(3) 0.056(4) 0.048(4) 0.013(3) 0.002(3) 0.004(3)
N3 0.044(3) 0.058(4) 0.047(4) 0.016(3) 0.008(3) 0.011(3)
C2 0.041(4) 0.047(4) 0.041(4) 0.002(3) 0.005(3) 0.006(3)
N4 0.045(3) 0.067(4) 0.047(4) 0.010(3) 0.012(3) 0.010(3)
C3 0.046(4) 0.053(4) 0.042(4) 0.011(3) 0.013(3) 0.005(3)
N5 0.046(4) 0.069(4) 0.047(4) 0.015(3) 0.008(3) 0.011(3)
C4 0.051(4) 0.053(4) 0.037(4) 0.006(3) 0.005(3) 0.010(3)
N6 0.051(4) 0.049(3) 0.042(3) 0.003(3) -0.001(3) 0.011(3)
N7 0.053(4) 0.063(4) 0.040(3) 0.012(3) 0.001(3) 0.005(3)
C5 0.072(6) 0.073(6) 0.050(5) 0.018(4) 0.022(4) 0.017(5)
C6 0.085(7) 0.090(7) 0.077(7) 0.043(6) 0.043(6) 0.036(6)
C7 0.081(6) 0.086(7) 0.060(6) 0.028(5) 0.028(5) 0.035(6)
C8 0.051(4) 0.050(4) 0.044(4) 0.015(3) 0.012(3) 0.009(3)
C9 0.032(3) 0.053(4) 0.048(4) 0.010(3) 0.006(3) 0.004(3)
C10 0.046(4) 0.068(5) 0.059(5) 0.012(4) 0.012(4) 0.014(4)
C11 0.052(5) 0.083(7) 0.069(6) 0.016(5) 0.020(4) 0.011(5)
C12 0.052(5) 0.084(6) 0.062(5) 0.031(5) 0.018(4) 0.020(4)
C13 0.038(4) 0.068(5) 0.048(4) 0.013(4) 0.008(3) 0.007(4)
C14 0.038(4) 0.049(4) 0.044(4) 0.007(3) 0.011(3) 0.008(3)
C15 0.040(4) 0.050(4) 0.038(4) 0.011(3) 0.003(3) 0.005(3)
C16 0.041(4) 0.066(5) 0.048(4) 0.017(4) 0.002(3) 0.008(4)
C17 0.072(6) 0.118(9) 0.055(5) 0.037(6) 0.013(5) 0.041(6)
C18 0.060(6) 0.140(11) 0.061(6) 0.033(7) 0.005(5) 0.026(7)
C19 0.057(5) 0.110(8) 0.048(5) 0.027(5) -0.001(4) 0.030(5)
N8 0.053(4) 0.063(4) 0.049(4) 0.017(3) -0.016(3) -0.013(3)
N9 0.050(4) 0.071(5) 0.058(4) 0.027(3) -0.019(3) -0.018(3)
C20 0.077(7) 0.094(8) 0.075(7) 0.043(6) -0.045(5) -0.023(6)
C21 0.101(8) 0.083(7) 0.089(8) 0.043(6) -0.052(7) -0.027(6)
C22 0.101(8) 0.084(8) 0.106(9) 0.062(7) -0.039(7) -0.028(7)
C23 0.060(5) 0.049(4) 0.067(5) 0.017(4) -0.016(4) -0.010(4)
C24 0.040(4) 0.051(4) 0.053(4) 0.013(4) -0.013(3) -0.011(3)
C25 0.042(4) 0.059(5) 0.054(5) 0.017(4) -0.011(3) -0.010(3)
C26 0.04 0.241 0.055 -0.016 -0.012 0.017
N10 0.044 0.08 0.048 -0.009 -0.005 0.006
N8F 0.049 0.053 0.063 0.013 -0.017 -0.016
N9F 0.058 0.05 0.071 0.018 -0.027 -0.019
C20F 0.075 0.077 0.094 0.023 -0.043 -0.045
C21F 0.089 0.101 0.083 0.027 -0.043 -0.052
C22F 0.106 0.101 0.084 0.028 -0.062 -0.039
C23F 0.067 0.06 0.049 0.01 -0.017 -0.016
C24F 0.053 0.04 0.051 0.011 -0.013 -0.013
C25F 0.054 0.042 0.059 0.01 -0.017 -0.011
N8I 0.063 0.049 0.053 0.016 -0.013 -0.017
N9I 0.071 0.058 0.05 0.019 -0.018 -0.027
C20I 0.094 0.075 0.077 0.045 -0.023 -0.043
C21I 0.083 0.089 0.101 0.052 -0.027 -0.043
C22I 0.084 0.106 0.101 0.039 -0.028 -0.062
C23I 0.049 0.067 0.06 0.016 -0.01 -0.017
C24I 0.051 0.053 0.04 0.013 -0.011 -0.013
C25I 0.059 0.054 0.042 0.011 -0.01 -0.017
Fe1F 0.0411 0.0339 0.048 0.0014 -0.0006 -0.0023
N1F 0.038 0.065 0.061 0.001 -0.004 -0.005
S1F 0.082 0.168 0.368 -0.007 0.061 -0.041
C1F 0.064 0.084 0.148 0.021 -0.002 0.003
N2F 0.048 0.038 0.056 -0.004 -0.013 0.002
N3F 0.047 0.044 0.058 -0.011 -0.016 0.008
C2F 0.041 0.041 0.047 -0.006 -0.002 0.005
N4F 0.047 0.045 0.067 -0.01 -0.01 0.012
C3F 0.042 0.046 0.053 -0.005 -0.011 0.013
N5F 0.047 0.046 0.069 -0.011 -0.015 0.008
C4F 0.037 0.051 0.053 -0.01 -0.006 0.005
N6F 0.042 0.051 0.049 -0.011 -0.003 -0.001
N7F 0.04 0.053 0.063 -0.005 -0.012 0.001
C5F 0.05 0.072 0.073 -0.017 -0.018 0.022
C6F 0.077 0.085 0.09 -0.036 -0.043 0.043
C7F 0.06 0.081 0.086 -0.035 -0.028 0.028
C8F 0.044 0.051 0.05 -0.009 -0.015 0.012
C9F 0.048 0.032 0.053 -0.004 -0.01 0.006
C10F 0.059 0.046 0.068 -0.014 -0.012 0.012
C11F 0.069 0.052 0.083 -0.011 -0.016 0.02
C12F 0.062 0.052 0.084 -0.02 -0.031 0.018
C13F 0.048 0.038 0.068 -0.007 -0.013 0.008
C14F 0.044 0.038 0.049 -0.008 -0.007 0.011
C15F 0.038 0.04 0.05 -0.005 -0.011 0.003
C16F 0.048 0.041 0.066 -0.008 -0.017 0.002
C17F 0.055 0.072 0.118 -0.041 -0.037 0.013
C18F 0.061 0.06 0.14 -0.026 -0.033 0.005
C19F 0.048 0.057 0.11 -0.03 -0.027 -0.001
C26F 0.055 0.04 0.241 -0.017 0.016 -0.012
N10F 0.048 0.044 0.08 -0.006 0.009 -0.005
Fe1I 0.048 0.0411 0.0339 0.0023 -0.0014 -0.0006
N1I 0.061 0.038 0.065 0.005 -0.001 -0.004
S1I 0.368 0.082 0.168 0.041 0.007 0.061
C1I 0.148 0.064 0.084 -0.003 -0.021 -0.002
N2I 0.056 0.048 0.038 -0.002 0.004 -0.013
N3I 0.058 0.047 0.044 -0.008 0.011 -0.016
C2I 0.047 0.041 0.041 -0.005 0.006 -0.002
N4I 0.067 0.047 0.045 -0.012 0.01 -0.01
C3I 0.053 0.042 0.046 -0.013 0.005 -0.011
N5I 0.069 0.047 0.046 -0.008 0.011 -0.015
C4I 0.053 0.037 0.051 -0.005 0.01 -0.006
N6I 0.049 0.042 0.051 0.001 0.011 -0.003
N7I 0.063 0.04 0.053 -0.001 0.005 -0.012
C5I 0.073 0.05 0.072 -0.022 0.017 -0.018
C6I 0.09 0.077 0.085 -0.043 0.036 -0.043
C7I 0.086 0.06 0.081 -0.028 0.035 -0.028
C8I 0.05 0.044 0.051 -0.012 0.009 -0.015
C9I 0.053 0.048 0.032 -0.006 0.004 -0.01
C10I 0.068 0.059 0.046 -0.012 0.014 -0.012
C11I 0.083 0.069 0.052 -0.02 0.011 -0.016
C12I 0.084 0.062 0.052 -0.018 0.02 -0.031
C13I 0.068 0.048 0.038 -0.008 0.007 -0.013
C14I 0.049 0.044 0.038 -0.011 0.008 -0.007
C15I 0.05 0.038 0.04 -0.003 0.005 -0.011
C16I 0.066 0.048 0.041 -0.002 0.008 -0.017
C17I 0.118 0.055 0.072 -0.013 0.041 -0.037
C18I 0.14 0.061 0.06 -0.005 0.026 -0.033
C19I 0.11 0.048 0.057 0.001 0.03 -0.027
C26I 0.241 0.055 0.04 0.012 0.017 0.016
N10I 0.08 0.048 0.044 0.005 0.006 0.009
Fe1O 0.0339 0.048 0.0411 0.0006 0.0023 0.0014
Fe1Q 0.0411 0.0339 0.048 -0.0014 -0.0006 0.0023
Fe1V 0.048 0.0411 0.0339 -0.0023 0.0014 -0.0006
N6N 0.051 0.049 0.042 -0.003 -0.001 -0.011
N6P 0.042 0.051 0.049 0.011 0.003 -0.001
N6W 0.049 0.042 0.051 0.001 -0.011 0.003
N7M 0.053 0.063 0.04 -0.012 -0.001 0.005
N7S 0.04 0.053 0.063 -0.005 0.012 -0.001
N7T 0.063 0.04 0.053 0.001 0.005 0.012
loop_
_geom_bond_atom_site_label_1
_geom_bond_atom_site_label_2
_geom_bond_site_symmetry_1
_geom_bond_site_symmetry_2
Fe1 N1 1_555 1_555
N1 C1 1_555 1_555
S1 C1 1_555 1_555
N2 Fe1 1_555 1_555
N3 C2 1_555 1_555
C2 N4 1_555 1_555
N4 C3 1_555 1_555
C3 N5 1_555 1_555
N5 C4 1_555 1_555
C4 N3 1_555 1_555
N6 C10 1_555 1_555
N7 C15 1_555 1_555
C5 N2 1_555 1_555
H1 C5 1_555 1_555
C6 C5 1_555 1_555
H2 C6 1_555 1_555
C7 C6 1_555 1_555
H3 C7 1_555 1_555
C8 C2 1_555 1_555
C9 N2 1_555 1_555
H4 C9 1_555 1_555
C10 H5 1_555 1_555
C11 C10 1_555 1_555
H6 C11 1_555 1_555
C12 C11 1_555 1_555
H7 C12 1_555 1_555
C13 C3 1_555 1_555
C14 N6 1_555 1_555
H8 C14 1_555 1_555
C15 H9 1_555 1_555
C16 C4 1_555 1_555
C17 C16 1_555 1_555
H10 C17 1_555 1_555
C18 C17 1_555 1_555
H11 C18 1_555 1_555
C19 N7 1_555 1_555
H12 C19 1_555 1_555
N8 Fe1 1_555 1_555
N9 C25 1_555 1_555
C20 N8 1_555 1_555
H13 C20 1_555 1_555
C21 C20 1_555 1_555
H14 C21 1_555 1_555
C22 C21 1_555 1_555
H15 C22 1_555 1_555
C23 C22 1_555 1_555
C24 N8 1_555 1_555
H16 C24 1_555 1_555
C25 C23 1_555 1_555
S2 C26 1_555 1_555
C26 N10 1_555 1_555
N10 Fe1 1_555 1_555
C27 C28 1_555 1_555
C28 H17 1_555 1_555
C29 C28 1_555 1_555
H18 C29 1_555 1_555
C30 C29 1_555 1_555
H19 C30 1_555 1_555
C31 C30 1_555 1_555
H20 C31 1_555 1_555
C32 C27 1_555 1_555
H21 C32 1_555 1_555
O1 H22 1_555 1_555
C33 C27 1_555 1_555
H23 C33 1_555 1_555
H24 C33 1_555 1_555
C34 C35 1_555 1_555
C35 H25 1_555 1_555
C36 C35 1_555 1_555
H26 C36 1_555 1_555
C37 C36 1_555 1_555
H27 C37 1_555 1_555
C38 C37 1_555 1_555
H28 C38 1_555 1_555
C39 C34 1_555 1_555
H29 C39 1_555 1_555
O2 H30 1_555 1_555
C40 C34 1_555 1_555
H31 C40 1_555 1_555
H32 C40 1_555 1_555
O3 C41 1_555 1_555
C41 C42 1_555 1_555
C42 H33 1_555 1_555
H34 C42 1_555 1_555
H35 C42 1_555 1_555
C43 C41 1_555 1_555
H36 C43 1_555 1_555
H37 C43 1_555 1_555
H38 C43 1_555 1_555
N8F C20F 1_555 1_555
N9F C25 1_555 1_555
C20F H13F 1_555 1_555
C21F C20F 1_555 1_555
H14F C21F 1_555 1_555
C22F C21F 1_555 1_555
H15F C22F 1_555 1_555
C23F C22F 1_555 1_555
C24F N8F 1_555 1_555
H16F C24F 1_555 1_555
C25F N9F 1_555 1_555
N8I C20I 1_555 1_555
N9I C25F 1_555 1_555
C20I H13I 1_555 1_555
C21I C20I 1_555 1_555
H14I C21I 1_555 1_555
C22I C21I 1_555 1_555
H15I C22I 1_555 1_555
C23I C22I 1_555 1_555
C24I N8I 1_555 1_555
H16I C24I 1_555 1_555
C25I N9 1_555 1_555
Fe1F N8F 1_555 1_555
N1F Fe1F 1_555 1_555
S1F C1F 1_555 1_555
C1F N1F 1_555 1_555
N2F Fe1F 1_555 1_555
N3F C2F 1_555 1_555
C2F N4F 1_555 1_555
N4F C3F 1_555 1_555
C3F N5F 1_555 1_555
N5F C4F 1_555 1_555
C4F N3F 1_555 1_555
N6F C10F 1_555 1_555
N7F C15F 1_555 1_555
C5F N2F 1_555 1_555
H1F C5F 1_555 1_555
C6F C5F 1_555 1_555
H2F C6F 1_555 1_555
C7F C6F 1_555 1_555
H3F C7F 1_555 1_555
C8F C2F 1_555 1_555
C9F N2F 1_555 1_555
H4F C9F 1_555 1_555
C10F H5F 1_555 1_555
C11F C10F 1_555 1_555
H6F C11F 1_555 1_555
C12F C11F 1_555 1_555
H7F C12F 1_555 1_555
C13F C3F 1_555 1_555
C14F N6F 1_555 1_555
H8F C14F 1_555 1_555
C15F H9F 1_555 1_555
C16F C4F 1_555 1_555
C17F C16F 1_555 1_555
H10F C17F 1_555 1_555
C18F C17F 1_555 1_555
H11F C18F 1_555 1_555
C19F N7F 1_555 1_555
H12F C19F 1_555 1_555
S2F C26F 1_555 1_555
C26F N10F 1_555 1_555
N10F Fe1F 1_555 1_555
Fe1I N8I 1_555 1_555
N1I Fe1I 1_555 1_555
S1I C1I 1_555 1_555
C1I N1I 1_555 1_555
N2I Fe1I 1_555 1_555
N3I C2I 1_555 1_555
C2I N4I 1_555 1_555
N4I C3I 1_555 1_555
C3I N5I 1_555 1_555
N5I C4I 1_555 1_555
C4I N3I 1_555 1_555
N6I C10I 1_555 1_555
N7I C15I 1_555 1_555
C5I N2I 1_555 1_555
H1I C5I 1_555 1_555
C6I C5I 1_555 1_555
H2I C6I 1_555 1_555
C7I C6I 1_555 1_555
H3I C7I 1_555 1_555
C8I C2I 1_555 1_555
C9I N2I 1_555 1_555
H4I C9I 1_555 1_555
C10I H5I 1_555 1_555
C11I C10I 1_555 1_555
H6I C11I 1_555 1_555
C12I C11I 1_555 1_555
H7I C12I 1_555 1_555
C13I C3I 1_555 1_555
C14I N6I 1_555 1_555
H8I C14I 1_555 1_555
C15I H9I 1_555 1_555
C16I C4I 1_555 1_555
C17I C16I 1_555 1_555
H10I C17I 1_555 1_555
C18I C17I 1_555 1_555
H11I C18I 1_555 1_555
C19I N7I 1_555 1_555
H12I C19I 1_555 1_555
S2I C26I 1_555 1_555
C26I N10I 1_555 1_555
N10I Fe1I 1_555 1_555
Fe1O N7F 1_555 1_555
Fe1Q N6 1_555 1_555
Fe1V N7 1_555 1_555
N6N Fe1F 1_555 1_555
N6P Fe1I 1_555 1_555
N6W Fe1 1_555 1_555
N7M Fe1I 1_555 1_555
N7S Fe1 1_555 1_555
N7T Fe1F 1_555 1_555
C7 C8 1_555 1_555
C8 C9 1_555 1_555
C12 C13 1_555 1_555
C13 C14 1_555 1_555
C15 C16 1_555 1_555
C18 C19 1_555 1_555
C23 C24 1_555 1_555
C31 C32 1_555 1_555
O1 C33 1_555 1_555
C38 C39 1_555 1_555
O2 C40 1_555 1_555
C23F C24F 1_555 1_555
C23F C25F 1_555 1_555
N9I C25I 1_555 1_555
C23I C24I 1_555 1_555
C23I C25I 1_555 1_555
N6F Fe1V 1_555 1_555
C7F C8F 1_555 1_555
C8F C9F 1_555 1_555
C12F C13F 1_555 1_555
C13F C14F 1_555 1_555
C15F C16F 1_555 1_555
C18F C19F 1_555 1_555
N6I Fe1O 1_555 1_555
N7I Fe1Q 1_555 1_555
C7I C8I 1_555 1_555
C8I C9I 1_555 1_555
C12I C13I 1_555 1_555
C13I C14I 1_555 1_555
C15I C16I 1_555 1_555
C18I C19I 1_555 1_555

#END
