
#######################################################################
#
#                 Cambridge Crystallographic Data Centre
#                                CCDC 
#
#######################################################################
#
# If this CIF has been generated from an entry in the Cambridge 
# Structural Database, then it will include bibliographic, chemical, 
# crystal, experimental, refinement or atomic coordinate data resulting 
# from the CCDC's data processing and validation procedures.
#
#######################################################################

data_FEWXEM
_chemical_formula_moiety         'C84 H48 Fe9 N36'
_symmetry_cell_setting           cubic
_symmetry_space_group_name_H-M   'F m -3 m'
_symmetry_Int_Tables_number      225
_space_group_name_Hall           '-F 4 2 3'
loop_
_symmetry_equiv_pos_site_id
_symmetry_equiv_pos_as_xyz
1 x,y,z
2 -y,x,z
3 -x,-y,z
4 y,-x,z
5 x,-y,-z
6 y,x,-z
7 -x,y,-z
8 -y,-x,-z
9 z,x,y
10 -x,z,y
11 -z,-x,y
12 x,-z,y
13 z,-x,-y
14 x,z,-y
15 -z,x,-y
16 -x,-z,-y
17 y,z,x
18 -z,-y,-x
19 -z,y,x
20 z,y,-x
21 z,-y,x
22 y,-z,-x
23 -y,-z,x
24 -y,z,-x
25 x,1/2+y,1/2+z
26 -y,1/2+x,1/2+z
27 -x,1/2-y,1/2+z
28 y,1/2-x,1/2+z
29 x,1/2-y,1/2-z
30 y,1/2+x,1/2-z
31 -x,1/2+y,1/2-z
32 -y,1/2-x,1/2-z
33 z,1/2+x,1/2+y
34 -x,1/2+z,1/2+y
35 -z,1/2-x,1/2+y
36 x,1/2-z,1/2+y
37 z,1/2-x,1/2-y
38 x,1/2+z,1/2-y
39 -z,1/2+x,1/2-y
40 -x,1/2-z,1/2-y
41 y,1/2+z,1/2+x
42 -z,1/2-y,1/2-x
43 -z,1/2+y,1/2+x
44 z,1/2+y,1/2-x
45 z,1/2-y,1/2+x
46 y,1/2-z,1/2-x
47 -y,1/2-z,1/2+x
48 -y,1/2+z,1/2-x
49 1/2+x,y,1/2+z
50 1/2-y,x,1/2+z
51 1/2-x,-y,1/2+z
52 1/2+y,-x,1/2+z
53 1/2+x,-y,1/2-z
54 1/2+y,x,1/2-z
55 1/2-x,y,1/2-z
56 1/2-y,-x,1/2-z
57 1/2+z,x,1/2+y
58 1/2-x,z,1/2+y
59 1/2-z,-x,1/2+y
60 1/2+x,-z,1/2+y
61 1/2+z,-x,1/2-y
62 1/2+x,z,1/2-y
63 1/2-z,x,1/2-y
64 1/2-x,-z,1/2-y
65 1/2+y,z,1/2+x
66 1/2-z,-y,1/2-x
67 1/2-z,y,1/2+x
68 1/2+z,y,1/2-x
69 1/2+z,-y,1/2+x
70 1/2+y,-z,1/2-x
71 1/2-y,-z,1/2+x
72 1/2-y,z,1/2-x
73 1/2+x,1/2+y,z
74 1/2-y,1/2+x,z
75 1/2-x,1/2-y,z
76 1/2+y,1/2-x,z
77 1/2+x,1/2-y,-z
78 1/2+y,1/2+x,-z
79 1/2-x,1/2+y,-z
80 1/2-y,1/2-x,-z
81 1/2+z,1/2+x,y
82 1/2-x,1/2+z,y
83 1/2-z,1/2-x,y
84 1/2+x,1/2-z,y
85 1/2+z,1/2-x,-y
86 1/2+x,1/2+z,-y
87 1/2-z,1/2+x,-y
88 1/2-x,1/2-z,-y
89 1/2+y,1/2+z,x
90 1/2-z,1/2-y,-x
91 1/2-z,1/2+y,x
92 1/2+z,1/2+y,-x
93 1/2+z,1/2-y,x
94 1/2+y,1/2-z,-x
95 1/2-y,1/2-z,x
96 1/2-y,1/2+z,-x
97 -x,-y,-z
98 y,-x,-z
99 x,y,-z
100 -y,x,-z
101 -x,y,z
102 -y,-x,z
103 x,-y,z
104 y,x,z
105 -z,-x,-y
106 x,-z,-y
107 z,x,-y
108 -x,z,-y
109 -z,x,y
110 -x,-z,y
111 z,-x,y
112 x,z,y
113 -y,-z,-x
114 z,y,x
115 z,-y,-x
116 -z,-y,x
117 -z,y,-x
118 -y,z,x
119 y,z,-x
120 y,-z,x
121 -x,1/2-y,1/2-z
122 y,1/2-x,1/2-z
123 x,1/2+y,1/2-z
124 -y,1/2+x,1/2-z
125 -x,1/2+y,1/2+z
126 -y,1/2-x,1/2+z
127 x,1/2-y,1/2+z
128 y,1/2+x,1/2+z
129 -z,1/2-x,1/2-y
130 x,1/2-z,1/2-y
131 z,1/2+x,1/2-y
132 -x,1/2+z,1/2-y
133 -z,1/2+x,1/2+y
134 -x,1/2-z,1/2+y
135 z,1/2-x,1/2+y
136 x,1/2+z,1/2+y
137 -y,1/2-z,1/2-x
138 z,1/2+y,1/2+x
139 z,1/2-y,1/2-x
140 -z,1/2-y,1/2+x
141 -z,1/2+y,1/2-x
142 -y,1/2+z,1/2+x
143 y,1/2+z,1/2-x
144 y,1/2-z,1/2+x
145 1/2-x,-y,1/2-z
146 1/2+y,-x,1/2-z
147 1/2+x,y,1/2-z
148 1/2-y,x,1/2-z
149 1/2-x,y,1/2+z
150 1/2-y,-x,1/2+z
151 1/2+x,-y,1/2+z
152 1/2+y,x,1/2+z
153 1/2-z,-x,1/2-y
154 1/2+x,-z,1/2-y
155 1/2+z,x,1/2-y
156 1/2-x,z,1/2-y
157 1/2-z,x,1/2+y
158 1/2-x,-z,1/2+y
159 1/2+z,-x,1/2+y
160 1/2+x,z,1/2+y
161 1/2-y,-z,1/2-x
162 1/2+z,y,1/2+x
163 1/2+z,-y,1/2-x
164 1/2-z,-y,1/2+x
165 1/2-z,y,1/2-x
166 1/2-y,z,1/2+x
167 1/2+y,z,1/2-x
168 1/2+y,-z,1/2+x
169 1/2-x,1/2-y,-z
170 1/2+y,1/2-x,-z
171 1/2+x,1/2+y,-z
172 1/2-y,1/2+x,-z
173 1/2-x,1/2+y,z
174 1/2-y,1/2-x,z
175 1/2+x,1/2-y,z
176 1/2+y,1/2+x,z
177 1/2-z,1/2-x,-y
178 1/2+x,1/2-z,-y
179 1/2+z,1/2+x,-y
180 1/2-x,1/2+z,-y
181 1/2-z,1/2+x,y
182 1/2-x,1/2-z,y
183 1/2+z,1/2-x,y
184 1/2+x,1/2+z,y
185 1/2-y,1/2-z,-x
186 1/2+z,1/2+y,x
187 1/2+z,1/2-y,-x
188 1/2-z,1/2-y,x
189 1/2-z,1/2+y,-x
190 1/2-y,1/2+z,x
191 1/2+y,1/2+z,-x
192 1/2+y,1/2-z,x
_cell_length_a                   38.200(4)
_cell_length_b                   38.200(4)
_cell_length_c                   38.200(4)
_cell_angle_alpha                90
_cell_angle_beta                 90
_cell_angle_gamma                90
_cell_volume                     55743
loop_
_atom_site_label
_atom_site_type_symbol
_atom_site_fract_x
_atom_site_fract_y
_atom_site_fract_z
_atom_site_U_iso_or_equiv
_atom_site_thermal_displace_type
Fe1 Fe 0.2500 0.2500 0.0000 0.0380 Uani
N1 N 0.2886(3) 0.2114(3) 0.0000 0.0347 Uani
C1 C 0.3024(10) 0.1845(11) 0.0000 0.0980 Uani
N2 N 0.2214(2) 0.2214(2) 0.0435(3) 0.0513 Uani
N3 N 0.14469(19) 0.1880(3) 0.14469(19) 0.0447 Uani
C2 C 0.1906(3) 0.2325(4) 0.0553(4) 0.0933 Uani
H1 H 0.1785 0.2494 0.0427 0.1120 Uiso
C3 C 0.1764(3) 0.2196(3) 0.0858(3) 0.0873 Uani
H2 H 0.1572 0.2304 0.0962 0.1050 Uiso
C4 C 0.1908(3) 0.1908(3) 0.1003(3) 0.0520 Uani
C5 C 0.1737(2) 0.1737(2) 0.1326(3) 0.0433 Uani
C1AC C 0.3155(11) 0.1976(10) 0.0000 0.0980 Uani
N2H N 0.0435(3) 0.2214(2) 0.2214(2) 0.0513 Uani
N3H N 0.14469(19) 0.14469(19) 0.1880(3) 0.0447 Uani
C2H C 0.0553(4) 0.1906(3) 0.2325(4) 0.0933 Uani
H1H H 0.0427 0.1785 0.2494 0.1120 Uiso
C3H C 0.0858(3) 0.1764(3) 0.2196(3) 0.0873 Uani
H2H H 0.0962 0.1572 0.2304 0.1050 Uiso
C4H C 0.1003(3) 0.1908(3) 0.1908(3) 0.0520 Uani
C5H C 0.1326(3) 0.1737(2) 0.1737(2) 0.0433 Uani
N2P N 0.2214(2) 0.0435(3) 0.2214(2) 0.0513 Uani
N3P N 0.1880(3) 0.14469(19) 0.14469(19) 0.0447 Uani
C2P C 0.2325(4) 0.0553(4) 0.1906(3) 0.0933 Uani
H1P H 0.2494 0.0427 0.1785 0.1120 Uiso
C3P C 0.2196(3) 0.0858(3) 0.1764(3) 0.0873 Uani
H2P H 0.2304 0.0962 0.1572 0.1050 Uiso
C4P C 0.1908(3) 0.1003(3) 0.1908(3) 0.0520 Uani
C5P C 0.1737(2) 0.1326(3) 0.1737(2) 0.0433 Uani
C2YC C 0.2325(4) 0.1906(3) 0.0553(4) 0.0933 Uani
H1YC H 0.2494 0.1785 0.0427 0.1120 Uiso
C3YC C 0.2196(3) 0.1764(3) 0.0858(3) 0.0873 Uani
H2YC H 0.2304 0.1572 0.0962 0.1050 Uiso
C2GD C 0.1906(3) 0.0553(4) 0.2325(4) 0.0933 Uani
H1GD H 0.1785 0.0427 0.2494 0.1120 Uiso
C3GD C 0.1764(3) 0.0858(3) 0.2196(3) 0.0873 Uani
H2GD H 0.1572 0.0962 0.2304 0.1050 Uiso
C2ID C 0.0553(4) 0.2325(4) 0.1906(3) 0.0933 Uani
H1ID H 0.0427 0.2494 0.1785 0.1120 Uiso
C3ID C 0.0858(3) 0.2196(3) 0.1764(3) 0.0873 Uani
H2ID H 0.0962 0.2304 0.1572 0.1050 Uiso
N1E N 0.2114(3) 0.2886(3) 0.0000 0.0347 Uani
C1E C 0.1845(11) 0.3024(10) 0.0000 0.0980 Uani
N2E N 0.2214(2) 0.2214(2) -0.0435(3) 0.0513 Uani
N3E N 0.1880(3) 0.14469(19) -0.14469(19) 0.0447 Uani
C2E C 0.2325(4) 0.1906(3) -0.0553(4) 0.0933 Uani
H1E H 0.2494 0.1785 -0.0427 0.1120 Uiso
C3E C 0.2196(3) 0.1764(3) -0.0858(3) 0.0873 Uani
H2E H 0.2304 0.1572 -0.0962 0.1050 Uiso
C4E C 0.1908(3) 0.1908(3) -0.1003(3) 0.0520 Uani
C5E C 0.1737(2) 0.1737(2) -0.1326(3) 0.0433 Uani
C1VB C 0.1976(10) 0.3155(11) 0.0000 0.0980 Uani
N2M N 0.2214(2) 0.0435(3) -0.2214(2) 0.0513 Uani
N3M N 0.14469(19) 0.14469(19) -0.1880(3) 0.0447 Uani
C2M C 0.1906(3) 0.0553(4) -0.2325(4) 0.0933 Uani
H1M H 0.1785 0.0427 -0.2494 0.1120 Uiso
C3M C 0.1764(3) 0.0858(3) -0.2196(3) 0.0873 Uani
H2M H 0.1572 0.0962 -0.2304 0.1050 Uiso
C4M C 0.1908(3) 0.1003(3) -0.1908(3) 0.0520 Uani
C5M C 0.1737(2) 0.1326(3) -0.1737(2) 0.0433 Uani
N2S N 0.0435(3) 0.2214(2) -0.2214(2) 0.0513 Uani
N3S N 0.14469(19) 0.1880(3) -0.14469(19) 0.0447 Uani
C2S C 0.0553(4) 0.2325(4) -0.1906(3) 0.0933 Uani
H1S H 0.0427 0.2494 -0.1785 0.1120 Uiso
C3S C 0.0858(3) 0.2196(3) -0.1764(3) 0.0873 Uani
H2S H 0.0962 0.2304 -0.1572 0.1050 Uiso
C4S C 0.1003(3) 0.1908(3) -0.1908(3) 0.0520 Uani
C5S C 0.1326(3) 0.1737(2) -0.1737(2) 0.0433 Uani
C2TC C 0.1906(3) 0.2325(4) -0.0553(4) 0.0933 Uani
H1TC H 0.1785 0.2494 -0.0427 0.1120 Uiso
C3TC C 0.1764(3) 0.2196(3) -0.0858(3) 0.0873 Uani
H2TC H 0.1572 0.2304 -0.0962 0.1050 Uiso
C2BD C 0.0553(4) 0.1906(3) -0.2325(4) 0.0933 Uani
H1BD H 0.0427 0.1785 -0.2494 0.1120 Uiso
C3BD C 0.0858(3) 0.1764(3) -0.2196(3) 0.0873 Uani
H2BD H 0.0962 0.1572 -0.2304 0.1050 Uiso
C2ND C 0.2325(4) 0.0553(4) -0.1906(3) 0.0933 Uani
H1ND H 0.2494 0.0427 -0.1785 0.1120 Uiso
C3ND C 0.2196(3) 0.0858(3) -0.1764(3) 0.0873 Uani
H2ND H 0.2304 0.0962 -0.1572 0.1050 Uiso
Fe1H Fe 0.0000 0.2500 0.2500 0.0380 Uani
Fe1K Fe 0.2500 0.0000 0.2500 0.0380 Uani
N1K N 0.2886(3) -0.0000 0.2114(3) 0.0347 Uani
C1K C 0.3024(10) 0.0000 0.1845(11) 0.0980 Uani
N2K N 0.2214(2) -0.0435(3) 0.2214(2) 0.0513 Uani
N3K N 0.14469(19) -0.14469(19) 0.1880(3) 0.0447 Uani
C2K C 0.1906(3) -0.0553(4) 0.2325(4) 0.0933 Uani
H1K H 0.1785 -0.0427 0.2494 0.1120 Uiso
C3K C 0.1764(3) -0.0858(3) 0.2196(3) 0.0873 Uani
H2K H 0.1572 -0.0962 0.2304 0.1050 Uiso
C4K C 0.1908(3) -0.1003(3) 0.1908(3) 0.0520 Uani
C5K C 0.1737(2) -0.1326(3) 0.1737(2) 0.0433 Uani
C1SB C 0.3155(11) 0.0000 0.1976(10) 0.0980 Uani
N2T N 0.0435(3) -0.2214(2) 0.2214(2) 0.0513 Uani
N3T N 0.14469(19) -0.1880(3) 0.14469(19) 0.0447 Uani
C2T C 0.0553(4) -0.2325(4) 0.1906(3) 0.0933 Uani
H1T H 0.0427 -0.2494 0.1785 0.1120 Uiso
C3T C 0.0858(3) -0.2196(3) 0.1764(3) 0.0873 Uani
H2T H 0.0962 -0.2304 0.1572 0.1050 Uiso
C4T C 0.1003(3) -0.1908(3) 0.1908(3) 0.0520 Uani
C5T C 0.1326(3) -0.1737(2) 0.1737(2) 0.0433 Uani
N2C N 0.2214(2) -0.2214(2) 0.0435(3) 0.0513 Uani
N3C N 0.1880(3) -0.14469(19) 0.14469(19) 0.0447 Uani
C2C C 0.2325(4) -0.1906(3) 0.0553(4) 0.0933 Uani
H1C H 0.2494 -0.1785 0.0427 0.1120 Uiso
C3C C 0.2196(3) -0.1764(3) 0.0858(3) 0.0873 Uani
H2C H 0.2304 -0.1572 0.0962 0.1050 Uiso
C4C C 0.1908(3) -0.1908(3) 0.1003(3) 0.0520 Uani
C5C C 0.1737(2) -0.1737(2) 0.1326(3) 0.0433 Uani
C2OD C 0.2325(4) -0.0553(4) 0.1906(3) 0.0933 Uani
H1OD H 0.2494 -0.0427 0.1785 0.1120 Uiso
C3OD C 0.2196(3) -0.0858(3) 0.1764(3) 0.0873 Uani
H2OD H 0.2304 -0.0962 0.1572 0.1050 Uiso
C2XC C 0.1906(3) -0.2325(4) 0.0553(4) 0.0933 Uani
H1XC H 0.1785 -0.2494 0.0427 0.1120 Uiso
C3XC C 0.1764(3) -0.2196(3) 0.0858(3) 0.0873 Uani
H2XC H 0.1572 -0.2304 0.0962 0.1050 Uiso
C2FD C 0.0553(4) -0.1906(3) 0.2325(4) 0.0933 Uani
H1FD H 0.0427 -0.1785 0.2494 0.1120 Uiso
C3FD C 0.0858(3) -0.1764(3) 0.2196(3) 0.0873 Uani
H2FD H 0.0962 -0.1572 0.2304 0.1050 Uiso
N1R N -0.0000 0.2114(3) 0.2886(3) 0.0347 Uani
C1R C 0.0000 0.1845(11) 0.3024(10) 0.0980 Uani
N2R N -0.0435(3) 0.2214(2) 0.2214(2) 0.0513 Uani
N3R N -0.14469(19) 0.1880(3) 0.14469(19) 0.0447 Uani
C2R C -0.0553(4) 0.2325(4) 0.1906(3) 0.0933 Uani
H1R H -0.0427 0.2494 0.1785 0.1120 Uiso
C3R C -0.0858(3) 0.2196(3) 0.1764(3) 0.0873 Uani
H2R H -0.0962 0.2304 0.1572 0.1050 Uiso
C4R C -0.1003(3) 0.1908(3) 0.1908(3) 0.0520 Uani
C5R C -0.1326(3) 0.1737(2) 0.1737(2) 0.0433 Uani
C1JA C 0.0000 0.1976(10) 0.3155(11) 0.0980 Uani
N2A N -0.2214(2) 0.2214(2) 0.0435(3) 0.0513 Uani
N3A N -0.1880(3) 0.14469(19) 0.14469(19) 0.0447 Uani
C2A C -0.2325(4) 0.1906(3) 0.0553(4) 0.0933 Uani
H1A H -0.2494 0.1785 0.0427 0.1120 Uiso
C3A C -0.2196(3) 0.1764(3) 0.0858(3) 0.0873 Uani
H2A H -0.2304 0.1572 0.0962 0.1050 Uiso
C4A C -0.1908(3) 0.1908(3) 0.1003(3) 0.0520 Uani
C5A C -0.1737(2) 0.1737(2) 0.1326(3) 0.0433 Uani
N2I N -0.2214(2) 0.0435(3) 0.2214(2) 0.0513 Uani
N3I N -0.14469(19) 0.14469(19) 0.1880(3) 0.0447 Uani
C2I C -0.1906(3) 0.0553(4) 0.2325(4) 0.0933 Uani
H1I H -0.1785 0.0427 0.2494 0.1120 Uiso
C3I C -0.1764(3) 0.0858(3) 0.2196(3) 0.0873 Uani
H2I H -0.1572 0.0962 0.2304 0.1050 Uiso
C4I C -0.1908(3) 0.1003(3) 0.1908(3) 0.0520 Uani
C5I C -0.1737(2) 0.1326(3) 0.1737(2) 0.0433 Uani
C2DD C -0.0553(4) 0.1906(3) 0.2325(4) 0.0933 Uani
H1DD H -0.0427 0.1785 0.2494 0.1120 Uiso
C3DD C -0.0858(3) 0.1764(3) 0.2196(3) 0.0873 Uani
H2DD H -0.0962 0.1572 0.2304 0.1050 Uiso
C2MD C -0.2325(4) 0.0553(4) 0.1906(3) 0.0933 Uani
H1MD H -0.2494 0.0427 0.1785 0.1120 Uiso
C3MD C -0.2196(3) 0.0858(3) 0.1764(3) 0.0873 Uani
H2MD H -0.2304 0.0962 0.1572 0.1050 Uiso
C2VC C -0.1906(3) 0.2325(4) 0.0553(4) 0.0933 Uani
H1VC H -0.1785 0.2494 0.0427 0.1120 Uiso
C3VC C -0.1764(3) 0.2196(3) 0.0858(3) 0.0873 Uani
H2VC H -0.1572 0.2304 0.0962 0.1050 Uiso
N1H N -0.0000 0.2886(3) 0.2114(3) 0.0347 Uani
C1H C 0.0000 0.3024(10) 0.1845(11) 0.0980 Uani
C1OA C 0.0000 0.3155(11) 0.1976(10) 0.0980 Uani
N1P N 0.2114(3) -0.0000 0.2886(3) 0.0347 Uani
C1P C 0.1845(11) 0.0000 0.3024(10) 0.0980 Uani
C1KB C 0.1976(10) 0.0000 0.3155(11) 0.0980 Uani
Fe1A Fe -0.2500 0.2500 0.0000 0.0380 Uani
Fe1C Fe 0.2500 -0.2500 0.0000 0.0380 Uani
Fe1I Fe -0.2500 0.0000 0.2500 0.0380 Uani
Fe1J Fe 0.0000 -0.2500 0.2500 0.0380 Uani
Fe1M Fe 0.2500 0.0000 -0.2500 0.0380 Uani
Fe1N Fe 0.0000 0.2500 -0.2500 0.0380 Uani
N2JA N 0.0435(3) 0.2786(2) 0.2786(2) 0.0513 Uani
N2OA N -0.0435(3) 0.2786(2) 0.2786(2) 0.0513 Uani
N2KB N 0.2786(2) -0.0435(3) 0.2786(2) 0.0513 Uani
N2SB N 0.2786(2) 0.0435(3) 0.2786(2) 0.0513 Uani
N2VB N 0.2786(2) 0.2786(2) 0.0435(3) 0.0513 Uani
N2AC N 0.2786(2) 0.2786(2) -0.0435(3) 0.0513 Uani
loop_
_atom_site_aniso_label
_atom_site_aniso_U_11
_atom_site_aniso_U_22
_atom_site_aniso_U_33
_atom_site_aniso_U_23
_atom_site_aniso_U_13
_atom_site_aniso_U_12
Fe1 0.043(2) 0.043(2) 0.028(2) 0.000 0.000 0.0077(14)
N1 0.037(5) 0.037(5) 0.030(7) 0.000 0.000 -0.013(7)
C1 0.098(12) 0.098(12) 0.098(12) 0.000 0.000 0.0000(10)
N2 0.055(5) 0.055(5) 0.044(6) 0.022(4) 0.022(4) 0.030(6)
N3 0.042(4) 0.050(6) 0.042(4) 0.007(4) 0.014(5) 0.007(4)
C2 0.083(9) 0.095(10) 0.102(10) 0.037(8) 0.025(8) 0.015(7)
C3 0.083(8) 0.095(9) 0.084(9) 0.029(8) 0.016(7) 0.023(7)
C4 0.055(5) 0.055(5) 0.046(7) 0.021(5) 0.021(5) 0.022(7)
C5 0.043(5) 0.043(5) 0.044(7) 0.005(4) 0.005(4) 0.008(6)
C1AC 0.098 0.098 0.098 0 0 0
N2H 0.044 0.055 0.055 0.03 0.022 0.022
N3H 0.042 0.042 0.05 0.007 0.007 0.014
C2H 0.102 0.083 0.095 0.015 0.037 0.025
C3H 0.084 0.083 0.095 0.023 0.029 0.016
C4H 0.046 0.055 0.055 0.022 0.021 0.021
C5H 0.044 0.043 0.043 0.008 0.005 0.005
N2P 0.055 0.044 0.055 0.022 0.03 0.022
N3P 0.05 0.042 0.042 0.014 0.007 0.007
C2P 0.095 0.102 0.083 0.025 0.015 0.037
C3P 0.095 0.084 0.083 0.016 0.023 0.029
C4P 0.055 0.046 0.055 0.021 0.022 0.021
C5P 0.043 0.044 0.043 0.005 0.008 0.005
C2YC 0.095 0.083 0.102 0.025 0.037 0.015
C3YC 0.095 0.083 0.084 0.016 0.029 0.023
C2GD 0.083 0.102 0.095 0.037 0.015 0.025
C3GD 0.083 0.084 0.095 0.029 0.023 0.016
C2ID 0.102 0.095 0.083 0.015 0.025 0.037
C3ID 0.084 0.095 0.083 0.023 0.016 0.029
N1E 0.037 0.037 0.03 0 0 -0.013
C1E 0.098 0.098 0.098 0 0 0
N2E 0.055 0.055 0.044 -0.022 -0.022 0.03
N3E 0.05 0.042 0.042 -0.014 -0.007 0.007
C2E 0.095 0.083 0.102 -0.025 -0.037 0.015
C3E 0.095 0.083 0.084 -0.016 -0.029 0.023
C4E 0.055 0.055 0.046 -0.021 -0.021 0.022
C5E 0.043 0.043 0.044 -0.005 -0.005 0.008
C1VB 0.098 0.098 0.098 0 0 0
N2M 0.055 0.044 0.055 -0.022 -0.03 0.022
N3M 0.042 0.042 0.05 -0.007 -0.007 0.014
C2M 0.083 0.102 0.095 -0.037 -0.015 0.025
C3M 0.083 0.084 0.095 -0.029 -0.023 0.016
C4M 0.055 0.046 0.055 -0.021 -0.022 0.021
C5M 0.043 0.044 0.043 -0.005 -0.008 0.005
N2S 0.044 0.055 0.055 -0.03 -0.022 0.022
N3S 0.042 0.05 0.042 -0.007 -0.014 0.007
C2S 0.102 0.095 0.083 -0.015 -0.025 0.037
C3S 0.084 0.095 0.083 -0.023 -0.016 0.029
C4S 0.046 0.055 0.055 -0.022 -0.021 0.021
C5S 0.044 0.043 0.043 -0.008 -0.005 0.005
C2TC 0.083 0.095 0.102 -0.037 -0.025 0.015
C3TC 0.083 0.095 0.084 -0.029 -0.016 0.023
C2BD 0.102 0.083 0.095 -0.015 -0.037 0.025
C3BD 0.084 0.083 0.095 -0.023 -0.029 0.016
C2ND 0.095 0.102 0.083 -0.025 -0.015 0.037
C3ND 0.095 0.084 0.083 -0.016 -0.023 0.029
Fe1H 0.028 0.043 0.043 0.0077 0 0
Fe1K 0.043 0.028 0.043 0 0.0077 0
N1K 0.037 0.03 0.037 0 -0.013 0
C1K 0.098 0.098 0.098 0 0 0
N2K 0.055 0.044 0.055 -0.022 0.03 -0.022
N3K 0.042 0.042 0.05 -0.007 0.007 -0.014
C2K 0.083 0.102 0.095 -0.037 0.015 -0.025
C3K 0.083 0.084 0.095 -0.029 0.023 -0.016
C4K 0.055 0.046 0.055 -0.021 0.022 -0.021
C5K 0.043 0.044 0.043 -0.005 0.008 -0.005
C1SB 0.098 0.098 0.098 0 0 0
N2T 0.044 0.055 0.055 -0.03 0.022 -0.022
N3T 0.042 0.05 0.042 -0.007 0.014 -0.007
C2T 0.102 0.095 0.083 -0.015 0.025 -0.037
C3T 0.084 0.095 0.083 -0.023 0.016 -0.029
C4T 0.046 0.055 0.055 -0.022 0.021 -0.021
C5T 0.044 0.043 0.043 -0.008 0.005 -0.005
N2C 0.055 0.055 0.044 -0.022 0.022 -0.03
N3C 0.05 0.042 0.042 -0.014 0.007 -0.007
C2C 0.095 0.083 0.102 -0.025 0.037 -0.015
C3C 0.095 0.083 0.084 -0.016 0.029 -0.023
C4C 0.055 0.055 0.046 -0.021 0.021 -0.022
C5C 0.043 0.043 0.044 -0.005 0.005 -0.008
C2OD 0.095 0.102 0.083 -0.025 0.015 -0.037
C3OD 0.095 0.084 0.083 -0.016 0.023 -0.029
C2XC 0.083 0.095 0.102 -0.037 0.025 -0.015
C3XC 0.083 0.095 0.084 -0.029 0.016 -0.023
C2FD 0.102 0.083 0.095 -0.015 0.037 -0.025
C3FD 0.084 0.083 0.095 -0.023 0.029 -0.016
N1R 0.03 0.037 0.037 -0.013 0 0
C1R 0.098 0.098 0.098 0 0 0
N2R 0.044 0.055 0.055 0.03 -0.022 -0.022
N3R 0.042 0.05 0.042 0.007 -0.014 -0.007
C2R 0.102 0.095 0.083 0.015 -0.025 -0.037
C3R 0.084 0.095 0.083 0.023 -0.016 -0.029
C4R 0.046 0.055 0.055 0.022 -0.021 -0.021
C5R 0.044 0.043 0.043 0.008 -0.005 -0.005
C1JA 0.098 0.098 0.098 0 0 0
N2A 0.055 0.055 0.044 0.022 -0.022 -0.03
N3A 0.05 0.042 0.042 0.014 -0.007 -0.007
C2A 0.095 0.083 0.102 0.025 -0.037 -0.015
C3A 0.095 0.083 0.084 0.016 -0.029 -0.023
C4A 0.055 0.055 0.046 0.021 -0.021 -0.022
C5A 0.043 0.043 0.044 0.005 -0.005 -0.008
N2I 0.055 0.044 0.055 0.022 -0.03 -0.022
N3I 0.042 0.042 0.05 0.007 -0.007 -0.014
C2I 0.083 0.102 0.095 0.037 -0.015 -0.025
C3I 0.083 0.084 0.095 0.029 -0.023 -0.016
C4I 0.055 0.046 0.055 0.021 -0.022 -0.021
C5I 0.043 0.044 0.043 0.005 -0.008 -0.005
C2DD 0.102 0.083 0.095 0.015 -0.037 -0.025
C3DD 0.084 0.083 0.095 0.023 -0.029 -0.016
C2MD 0.095 0.102 0.083 0.025 -0.015 -0.037
C3MD 0.095 0.084 0.083 0.016 -0.023 -0.029
C2VC 0.083 0.095 0.102 0.037 -0.025 -0.015
C3VC 0.083 0.095 0.084 0.029 -0.016 -0.023
N1H 0.03 0.037 0.037 -0.013 0 0
C1H 0.098 0.098 0.098 0 0 0
C1OA 0.098 0.098 0.098 0 0 0
N1P 0.037 0.03 0.037 0 -0.013 0
C1P 0.098 0.098 0.098 0 0 0
C1KB 0.098 0.098 0.098 0 0 0
Fe1A 0.043 0.043 0.028 0 0 -0.0077
Fe1C 0.043 0.043 0.028 0 0 -0.0077
Fe1I 0.043 0.028 0.043 0 -0.0077 0
Fe1J 0.028 0.043 0.043 -0.0077 0 0
Fe1M 0.043 0.028 0.043 0 -0.0077 0
Fe1N 0.028 0.043 0.043 -0.0077 0 0
N2JA 0.044 0.055 0.055 0.03 -0.022 -0.022
N2OA 0.044 0.055 0.055 0.03 0.022 0.022
N2KB 0.055 0.044 0.055 0.022 0.03 0.022
N2SB 0.055 0.044 0.055 -0.022 0.03 -0.022
N2VB 0.055 0.055 0.044 -0.022 -0.022 0.03
N2AC 0.055 0.055 0.044 0.022 0.022 0.03
loop_
_geom_bond_atom_site_label_1
_geom_bond_atom_site_label_2
_geom_bond_site_symmetry_1
_geom_bond_site_symmetry_2
Fe1 N1 1_555 1_555
N1 C1 1_555 1_555
C1 C1AC 1_555 1_555
N2 Fe1 1_555 1_555
N3 C5 1_555 1_555
C2 N2 1_555 1_555
H1 C2 1_555 1_555
C3 C2 1_555 1_555
H2 C3 1_555 1_555
C4 C3 1_555 1_555
C5 C4 1_555 1_555
C1AC N1 1_555 1_555
N2H C2H 1_555 1_555
N3H C5H 1_555 1_555
C2H H1H 1_555 1_555
C3H C2H 1_555 1_555
H2H C3H 1_555 1_555
C4H C3H 1_555 1_555
C5H N3 1_555 1_555
N2P C2P 1_555 1_555
N3P C5 1_555 1_555
C2P H1P 1_555 1_555
C3P C2P 1_555 1_555
H2P C3P 1_555 1_555
C4P C3P 1_555 1_555
C5P N3H 1_555 1_555
C2YC N2 1_555 1_555
H1YC C2YC 1_555 1_555
C3YC C4 1_555 1_555
H2YC C3YC 1_555 1_555
C2GD N2P 1_555 1_555
H1GD C2GD 1_555 1_555
C3GD C4P 1_555 1_555
H2GD C3GD 1_555 1_555
C2ID N2H 1_555 1_555
H1ID C2ID 1_555 1_555
C3ID C4H 1_555 1_555
H2ID C3ID 1_555 1_555
N1E Fe1 1_555 1_555
C1E N1E 1_555 1_555
N2E Fe1 1_555 1_555
N3E C5E 1_555 1_555
C2E N2E 1_555 1_555
H1E C2E 1_555 1_555
C3E C2E 1_555 1_555
H2E C3E 1_555 1_555
C4E C3E 1_555 1_555
C5E C4E 1_555 1_555
C1VB N1E 1_555 1_555
N2M C2M 1_555 1_555
N3M C5M 1_555 1_555
C2M H1M 1_555 1_555
C3M C2M 1_555 1_555
H2M C3M 1_555 1_555
C4M C3M 1_555 1_555
C5M N3E 1_555 1_555
N2S C2S 1_555 1_555
N3S C5E 1_555 1_555
C2S H1S 1_555 1_555
C3S C2S 1_555 1_555
H2S C3S 1_555 1_555
C4S C3S 1_555 1_555
C5S N3M 1_555 1_555
C2TC N2E 1_555 1_555
H1TC C2TC 1_555 1_555
C3TC C4E 1_555 1_555
H2TC C3TC 1_555 1_555
C2BD N2S 1_555 1_555
H1BD C2BD 1_555 1_555
C3BD C4S 1_555 1_555
H2BD C3BD 1_555 1_555
C2ND N2M 1_555 1_555
H1ND C2ND 1_555 1_555
C3ND C4M 1_555 1_555
H2ND C3ND 1_555 1_555
Fe1H N2H 1_555 1_555
Fe1K N2P 1_555 1_555
N1K Fe1K 1_555 1_555
C1K N1K 1_555 1_555
N2K Fe1K 1_555 1_555
N3K C5K 1_555 1_555
C2K N2K 1_555 1_555
H1K C2K 1_555 1_555
C3K C2K 1_555 1_555
H2K C3K 1_555 1_555
C4K C3K 1_555 1_555
C5K C4K 1_555 1_555
C1SB N1K 1_555 1_555
N2T C2T 1_555 1_555
N3T C5T 1_555 1_555
C2T H1T 1_555 1_555
C3T C2T 1_555 1_555
H2T C3T 1_555 1_555
C4T C3T 1_555 1_555
C5T N3K 1_555 1_555
N2C C2C 1_555 1_555
N3C C5K 1_555 1_555
C2C H1C 1_555 1_555
C3C C2C 1_555 1_555
H2C C3C 1_555 1_555
C4C C3C 1_555 1_555
C5C N3T 1_555 1_555
C2OD N2K 1_555 1_555
H1OD C2OD 1_555 1_555
C3OD C4K 1_555 1_555
H2OD C3OD 1_555 1_555
C2XC N2C 1_555 1_555
H1XC C2XC 1_555 1_555
C3XC C4C 1_555 1_555
H2XC C3XC 1_555 1_555
C2FD N2T 1_555 1_555
H1FD C2FD 1_555 1_555
C3FD C4T 1_555 1_555
H2FD C3FD 1_555 1_555
N1R Fe1H 1_555 1_555
C1R N1R 1_555 1_555
N2R Fe1H 1_555 1_555
N3R C5R 1_555 1_555
C2R N2R 1_555 1_555
H1R C2R 1_555 1_555
C3R C2R 1_555 1_555
H2R C3R 1_555 1_555
C4R C3R 1_555 1_555
C5R C4R 1_555 1_555
C1JA N1R 1_555 1_555
N2A C2A 1_555 1_555
N3A C5A 1_555 1_555
C2A H1A 1_555 1_555
C3A C2A 1_555 1_555
H2A C3A 1_555 1_555
C4A C3A 1_555 1_555
C5A N3R 1_555 1_555
N2I C2I 1_555 1_555
N3I C5R 1_555 1_555
C2I H1I 1_555 1_555
C3I C2I 1_555 1_555
H2I C3I 1_555 1_555
C4I C3I 1_555 1_555
C5I N3A 1_555 1_555
C2DD N2R 1_555 1_555
H1DD C2DD 1_555 1_555
C3DD C4R 1_555 1_555
H2DD C3DD 1_555 1_555
C2MD N2I 1_555 1_555
H1MD C2MD 1_555 1_555
C3MD C4I 1_555 1_555
H2MD C3MD 1_555 1_555
C2VC N2A 1_555 1_555
H1VC C2VC 1_555 1_555
C3VC C4A 1_555 1_555
H2VC C3VC 1_555 1_555
N1H Fe1H 1_555 1_555
C1H N1H 1_555 1_555
C1OA N1H 1_555 1_555
N1P Fe1K 1_555 1_555
C1P N1P 1_555 1_555
C1KB N1P 1_555 1_555
Fe1A N2A 1_555 1_555
Fe1C N2C 1_555 1_555
Fe1I N2I 1_555 1_555
Fe1J N2T 1_555 1_555
Fe1M N2M 1_555 1_555
Fe1N N2S 1_555 1_555
N2JA Fe1H 1_555 1_555
N2OA Fe1H 1_555 1_555
N2KB Fe1K 1_555 1_555
N2SB Fe1K 1_555 1_555
N2VB Fe1 1_555 1_555
N2AC Fe1 1_555 1_555
C4H C5H 1_555 1_555
N3P C5P 1_555 1_555
C4P C5P 1_555 1_555
C2YC C3YC 1_555 1_555
C2GD C3GD 1_555 1_555
C2ID C3ID 1_555 1_555
C1E C1VB 1_555 1_555
C4M C5M 1_555 1_555
N3S C5S 1_555 1_555
C4S C5S 1_555 1_555
C2TC C3TC 1_555 1_555
C2BD C3BD 1_555 1_555
C2ND C3ND 1_555 1_555
C1K C1SB 1_555 1_555
C4T C5T 1_555 1_555
N3C C5C 1_555 1_555
C4C C5C 1_555 1_555
C2OD C3OD 1_555 1_555
C2XC C3XC 1_555 1_555
C2FD C3FD 1_555 1_555
C1R C1JA 1_555 1_555
C4A C5A 1_555 1_555
N3I C5I 1_555 1_555
C4I C5I 1_555 1_555
C2DD C3DD 1_555 1_555
C2MD C3MD 1_555 1_555
C2VC C3VC 1_555 1_555
C1H C1OA 1_555 1_555
C1P C1KB 1_555 1_555

#END
