
#######################################################################
#
#                 Cambridge Crystallographic Data Centre
#                                CCDC 
#
#######################################################################
#
# If this CIF has been generated from an entry in the Cambridge 
# Structural Database, then it will include bibliographic, chemical, 
# crystal, experimental, refinement or atomic coordinate data resulting 
# from the CCDC's data processing and validation procedures.
#
#######################################################################

data_AYUPOZ
_chemical_formula_moiety         '(C4 H14 F4 N2 Ni2 O5 S1)n'
_symmetry_cell_setting           tetragonal
_symmetry_space_group_name_H-M   'P 41'
_symmetry_Int_Tables_number      76
_space_group_name_Hall           'P 4w'
loop_
_symmetry_equiv_pos_site_id
_symmetry_equiv_pos_as_xyz
1 x,y,z
2 -x,-y,1/2+z
3 -y,x,1/4+z
4 y,-x,3/4+z
_cell_length_a                   10.8722(2)
_cell_length_b                   10.8722(2)
_cell_length_c                   8.9098(2)
_cell_angle_alpha                90
_cell_angle_beta                 90
_cell_angle_gamma                90
_cell_volume                     1053.18
loop_
_atom_site_label
_atom_site_type_symbol
_atom_site_fract_x
_atom_site_fract_y
_atom_site_fract_z
_atom_site_U_iso_or_equiv
_atom_site_thermal_displace_type
Ni1 Ni 0.10031(7) -0.10274(7) 0.09935(7) 0.0126 Uani
Ni2 Ni 0.44291(7) -0.38473(7) -0.07808(8) 0.0118 Uani
F1 F 0.0981(3) 0.0831(3) 0.1229(4) 0.0167 Uani
F2 F 0.0951(3) -0.0852(3) 0.3274(4) 0.0190 Uani
F3 F 0.4051(3) -0.5655(3) -0.0495(4) 0.0160 Uani
F4 F 0.4405(3) -0.3801(3) 0.1498(4) 0.0143 Uani
S1 S 0.16034(13) -0.39245(14) 0.0320(2) 0.0133 Uani
O1 O 0.2875(4) -0.1008(4) 0.0834(6) 0.0297 Uani
H1 H 0.3107(4) -0.1612(4) 0.0361(6) 0.0450 Uiso
O2 O 0.1057(3) -0.2917(4) 0.1212(4) 0.0160 Uani
O3 O 0.2613(4) -0.3409(4) -0.0615(5) 0.0197 Uani
O4 O 0.2071(3) -0.4874(3) 0.1363(4) 0.0163 Uani
O5 O 0.0660(4) -0.4460(4) -0.0647(5) 0.0233 Uani
H14 H 0.3383(55) -0.0514(58) 0.1137(71) 0.0250 Uiso
Ni1B Ni 0.10274(7) 0.10031(7) 0.34935(7) 0.0126 Uani
F2C F -0.0852(3) -0.0951(3) 0.0774(4) 0.0190 Uani
F1C F 0.0831(3) -0.0981(3) -0.1271(4) 0.0167 Uani
Ni2B Ni 0.38473(7) -0.55709(7) 0.17192(8) 0.0118 Uani
F3C F 0.4345(3) -0.4051(3) -0.2995(4) 0.0160 Uani
F4C F 0.6199(3) -0.4405(3) -0.1002(4) 0.0143 Uani
O4C O 0.5126(3) -0.2071(3) -0.1137(4) 0.0163 Uani
N1 N -0.1728(4) -0.1619(4) 0.3553(6) 0.0190 Uani
H2 H -0.1470(4) -0.1283(4) 0.4421(6) 0.0230 Uiso
H3 H -0.1363(4) -0.1212(4) 0.2794(6) 0.0230 Uiso
N2 N -0.3169(4) -0.3353(4) 0.1921(5) 0.0190 Uani
H4 H -0.3414(4) -0.3660(4) 0.1032(5) 0.0230 Uiso
H5 H -0.3557(4) -0.3776(4) 0.2649(5) 0.0230 Uiso
C1 C -0.1355(6) -0.2933(6) 0.3504(7) 0.0197 Uani
H6 H -0.1694(6) -0.3361(6) 0.4366(7) 0.0240 Uiso
H7 H -0.0466(6) -0.2993(6) 0.3553(7) 0.0240 Uiso
C2 C -0.3077(5) -0.1480(5) 0.3430(8) 0.0183 Uani
H8 H -0.3289(5) -0.0613(5) 0.3448(8) 0.0220 Uiso
H9 H -0.3471(5) -0.1874(5) 0.4280(8) 0.0220 Uiso
C3 C -0.3530(6) -0.2042(6) 0.2014(6) 0.0180 Uani
H10 H -0.4419(6) -0.1975(6) 0.1971(6) 0.0210 Uiso
H11 H -0.3192(6) -0.1599(6) 0.1163(6) 0.0210 Uiso
C4 C -0.1809(6) -0.3531(6) 0.2080(7) 0.0220 Uani
H12 H -0.1392(6) -0.3172(6) 0.1223(7) 0.0260 Uiso
H13 H -0.1622(6) -0.4403(6) 0.2102(7) 0.0260 Uiso
loop_
_atom_site_aniso_label
_atom_site_aniso_U_11
_atom_site_aniso_U_22
_atom_site_aniso_U_33
_atom_site_aniso_U_23
_atom_site_aniso_U_13
_atom_site_aniso_U_12
Ni1 0.0151 0.0146 0.0082 -0.0008 -0.0004 -0.0002
Ni2 0.0135 0.014 0.0078 0.0002 0.0002 0.0005
F1 0.026 0.019 0.005 -0.002 0.001 -0.0022
F2 0.027 0.016 0.014 -0.001 -0.001 0.0009
F3 0.023 0.015 0.01 -0.002 0.001 -0.0012
F4 0.017 0.014 0.012 0.001 -0.0041 -0.0015
S1 0.0141 0.0157 0.01 -0.0004 -0.0009 0.0028
O1 0.025 0.027 0.037 -0.025 -0.004 -0.005
O2 0.021 0.015 0.012 0 0.004 0.004
O3 0.018 0.029 0.012 0.007 0.002 0.008
O4 0.018 0.018 0.013 0.001 0 0.004
O5 0.02 0.025 0.025 -0.005 -0.014 0.003
Ni1B 0.0146 0.0151 0.0082 -0.0004 0.0008 0.0002
F2C 0.016 0.027 0.014 0.001 -0.001 -0.0009
F1C 0.019 0.026 0.005 -0.001 -0.002 0.0022
Ni2B 0.014 0.0135 0.0078 0.0002 -0.0002 -0.0005
F3C 0.015 0.023 0.01 -0.001 -0.002 0.0012
F4C 0.014 0.017 0.012 0.0041 0.001 0.0015
O4C 0.018 0.018 0.013 0 0.001 -0.004
N1 0.027 0.018 0.012 0 -0.005 -0.008
N2 0.026 0.021 0.01 0.002 -0.004 -0.006
C1 0.022 0.022 0.015 0 -0.006 0.001
C2 0.017 0.021 0.017 -0.001 -0.001 0
C3 0.021 0.016 0.017 0 0.003 -0.004
C4 0.021 0.023 0.022 -0.003 0.005 -0.002
loop_
_geom_bond_atom_site_label_1
_geom_bond_atom_site_label_2
_geom_bond_site_symmetry_1
_geom_bond_site_symmetry_2
Ni1 F1 1_555 1_555
Ni2 F3 1_555 1_555
F1 Ni1B 1_555 1_555
F2 Ni1 1_555 1_555
F3 Ni2B 1_555 1_555
F4 Ni2 1_555 1_555
S1 O2 1_555 1_555
O1 Ni1 1_555 1_555
H1 O1 1_555 1_555
O2 Ni1 1_555 1_555
O3 Ni2 1_555 1_555
O4 S1 1_555 1_555
O5 S1 1_555 1_555
N1 H2 1_555 1_555
H3 N1 1_555 1_555
N2 H4 1_555 1_555
H5 N2 1_555 1_555
C1 N1 1_555 1_555
H6 C1 1_555 1_555
H7 C1 1_555 1_555
C2 N1 1_555 1_555
H8 C2 1_555 1_555
H9 C2 1_555 1_555
C3 N2 1_555 1_555
H10 C3 1_555 1_555
H11 C3 1_555 1_555
C4 N2 1_555 1_555
H12 C4 1_555 1_555
H13 C4 1_555 1_555
H14 O1 1_555 1_555
Ni1B F2 1_555 1_555
F2C Ni1 1_555 1_555
F1C Ni1 1_555 1_555
Ni2B F4 1_555 1_555
F3C Ni2 1_555 1_555
F4C Ni2 1_555 1_555
O4C Ni2 1_555 1_555
S1 O3 1_555 1_555
O4 Ni2B 1_555 1_555
C1 C4 1_555 1_555
C2 C3 1_555 1_555

#END
