
#######################################################################
#
#                 Cambridge Crystallographic Data Centre
#                                CCDC 
#
#######################################################################
#
# If this CIF has been generated from an entry in the Cambridge 
# Structural Database, then it will include bibliographic, chemical, 
# crystal, experimental, refinement or atomic coordinate data resulting 
# from the CCDC's data processing and validation procedures.
#
#######################################################################

data_CANRIU
_chemical_formula_moiety         'C120 H86 Mg19 O54 Si4'
_symmetry_cell_setting           triclinic
_symmetry_space_group_name_H-M   'P -1'
_symmetry_Int_Tables_number      2
_space_group_name_Hall           '-P 1'
loop_
_symmetry_equiv_pos_site_id
_symmetry_equiv_pos_as_xyz
1 x,y,z
2 -x,-y,-z
_cell_length_a                   12.7279(7)
_cell_length_b                   14.5331(10)
_cell_length_c                   23.2812(15)
_cell_angle_alpha                99.815(5)
_cell_angle_beta                 92.601(5)
_cell_angle_gamma                97.071(5)
_cell_volume                     4201.44
loop_
_atom_site_label
_atom_site_type_symbol
_atom_site_fract_x
_atom_site_fract_y
_atom_site_fract_z
O20 O 0.2397(18) 0.4116(15) 0.3868(9)
Mg1 Mg 0.50451(18) 0.30192(16) 0.39138(8)
Mg2 Mg 0.5000 0.5000 0.5000
Mg3 Mg 0.0000 0.5000 1.0000
Mg4 Mg 0.05866(19) 0.68792(17) 0.92552(9)
Si1 Si 0.02696(15) 0.22392(14) 0.63331(7)
Si2 Si 0.39893(15) 0.24520(14) 0.81253(7)
C1 C 0.1476(5) 0.2436(5) 0.5907(2)
C2 C 0.1730(5) 0.3285(5) 0.5741(3)
H1 H 0.1333 0.3780 0.5880
C3 C 0.2548(5) 0.3467(5) 0.5375(3)
H2 H 0.2707 0.4064 0.5261
C4 C 0.3128(5) 0.2703(5) 0.5182(3)
C5 C 0.2922(6) 0.1869(5) 0.5361(3)
H3 H 0.3337 0.1379 0.5240
C6 C 0.2107(6) 0.1728(5) 0.5722(3)
H4 H 0.1970 0.1138 0.5847
C7 C 0.3950(6) 0.2859(5) 0.4743(3)
O1 O 0.4229(3) 0.3662(3) 0.46251(16)
O2 O 0.4300(4) 0.2155(3) 0.44718(18)
C8 C 0.0439(6) 0.2965(5) 0.7080(3)
C9 C 0.1157(6) 0.3781(6) 0.7218(3)
H5 H 0.1648 0.3917 0.6938
C10 C 0.1199(6) 0.4398(5) 0.7732(3)
H6 H 0.1694 0.4957 0.7796
C11 C 0.0534(6) 0.4219(5) 0.8159(3)
C12 C -0.0163(6) 0.3372(6) 0.8057(3)
H7 H -0.0602 0.3214 0.8354
C13 C -0.0216(6) 0.2762(5) 0.7521(3)
H8 H -0.0705 0.2199 0.7455
C14 C 0.0507(6) 0.4901(6) 0.8705(3)
O3 O 0.0885(4) 0.5742(4) 0.87121(18)
O4 O 0.0087(4) 0.4595(3) 0.91298(18)
C15 C -0.0821(5) 0.2645(4) 0.5918(3)
C16 C -0.1603(6) 0.3119(5) 0.6185(3)
H9 H -0.1614 0.3210 0.6598
C17 C -0.2367(6) 0.3463(5) 0.5870(3)
H10 H -0.2876 0.3798 0.6071
C18 C -0.2400(5) 0.3325(4) 0.5255(3)
C19 C -0.1641(5) 0.2829(5) 0.4989(3)
H11 H -0.1663 0.2692 0.4575
C20 C -0.0855(5) 0.2527(4) 0.5307(3)
H12 H -0.0320 0.2228 0.5106
C21 C -0.3244(5) 0.3651(5) 0.4921(3)
O5 O -0.3570(3) 0.4397(3) 0.51172(17)
O6 O -0.3572(3) 0.3133(3) 0.44397(17)
C22 C -0.0055(5) 0.0954(3) 0.6367(4)
C23 C 0.0271(6) 0.0586(4) 0.6848(3)
H13 H 0.0650 0.0991 0.7175
C24 C 0.0043(7) -0.0373(5) 0.6851(3)
H14 H 0.0267 -0.0624 0.7180
C25 C -0.0511(7) -0.0965(3) 0.6373(3)
C26 C -0.0838(8) -0.0597(5) 0.5891(3)
H15 H -0.1217 -0.1002 0.5564
C27 C -0.0610(7) 0.0362(5) 0.5888(3)
H16 H -0.0833 0.0613 0.5559
C28 C -0.0772(13) -0.1978(8) 0.6396(5)
O7 O -0.0547(11) -0.2295(5) 0.6831(3)
O8 O -0.1315(13) -0.2510(5) 0.5926(3)
C29 C 0.4105(5) 0.3239(5) 0.7578(3)
C30 C 0.4471(6) 0.2949(5) 0.7024(3)
H17 H 0.4648 0.2328 0.6930
C31 C 0.4582(6) 0.3518(5) 0.6617(3)
H18 H 0.4815 0.3286 0.6244
C32 C 0.4359(5) 0.4428(5) 0.6745(3)
C33 C 0.4038(6) 0.4745(5) 0.7283(3)
H19 H 0.3895 0.5377 0.7378
C34 C 0.3916(6) 0.4171(6) 0.7690(3)
H20 H 0.3694 0.4419 0.8063
C35 C 0.4535(5) 0.5071(6) 0.6317(3)
O9 O 0.4732(3) 0.4723(3) 0.57988(17)
O10 O 0.4456(4) 0.5934(4) 0.64788(18)
C36 C 0.2854(6) 0.2585(5) 0.8596(2)
C37 C 0.2848(5) 0.3437(5) 0.8975(3)
H21 H 0.3377 0.3951 0.8954
C38 C 0.2086(6) 0.3555(5) 0.9383(3)
H22 H 0.2081 0.4147 0.9630
C39 C 0.1327(6) 0.2791(5) 0.9424(3)
C40 C 0.1306(6) 0.1961(5) 0.9053(3)
H23 H 0.0778 0.1448 0.9076
C41 C 0.2073(6) 0.1859(5) 0.8630(3)
H24 H 0.2045 0.1279 0.8366
C42 C 0.0573(6) 0.2933(6) 0.9914(3)
O11 O 0.0430(3) 0.3739(3) 1.01641(16)
O12 O 0.0130(4) 0.2182(4) 1.0070(2)
C43 C 0.5225(6) 0.2741(5) 0.8636(3)
C44 C 0.6079(7) 0.3354(5) 0.8525(3)
H25 H 0.6083 0.3590 0.8169
C45 C 0.6929(6) 0.3622(5) 0.8937(3)
H26 H 0.7495 0.4068 0.8864
C46 C 0.6985(6) 0.3271(5) 0.9442(3)
C47 C 0.6179(7) 0.2643(6) 0.9529(3)
H27 H 0.6214 0.2362 0.9868
C48 C 0.5288(6) 0.2389(5) 0.9139(3)
H28 H 0.4715 0.1962 0.9226
C49 C 0.7940(6) 0.3588(6) 0.9872(3)
O13 O 0.8457(4) 0.4375(4) 0.98544(18)
O14 O 0.8115(4) 0.3023(3) 1.02037(19)
C50 C 0.3856(5) 0.1214(5) 0.7712(2)
C51 C 0.3104(6) 0.0929(5) 0.7231(3)
H29 H 0.2616 0.1347 0.7156
C52 C 0.3050(6) 0.0095(5) 0.6875(3)
H30 H 0.2515 -0.0082 0.6564
C53 C 0.3760(6) -0.0491(5) 0.6963(3)
C54 C 0.4502(6) -0.0273(5) 0.7438(3)
H31 H 0.4968 -0.0710 0.7509
C55 C 0.4555(6) 0.0570(5) 0.7801(3)
H32 H 0.5074 0.0726 0.8121
C56 C 0.3782(6) -0.1394(6) 0.6539(3)
O15 O 0.3113(4) -0.1559(3) 0.60771(19)
O16 O 0.4404(4) -0.1946(3) 0.66234(16)
O17 O 0.3652(4) 0.2737(4) 0.3392(2)
C57 C 0.3425(12) 0.3116(11) 0.2896(5)
H33 H 0.3632 0.3806 0.2991
H34 H 0.2647 0.3001 0.2805
C58 C 0.3968(16) 0.2731(13) 0.2340(6)
H35 H 0.3769 0.3052 0.2022
H36 H 0.3740 0.2053 0.2227
H37 H 0.4740 0.2846 0.2421
O18 O -0.0790(5) 0.6910(5) 0.8729(2)
C59 C -0.1024(17) 0.6422(15) 0.8155(6)
H38 H -0.0323 0.6322 0.8007
H39 H -0.1287 0.6891 0.7942
C60 C -0.1755(15) 0.5484(12) 0.7905(8)
H40 H -0.1723 0.5345 0.7479
H41 H -0.2487 0.5549 0.8000
H42 H -0.1514 0.4970 0.8077
O19 O 0.1321(5) 0.7923(4) 0.8856(2)
Mg1_2 Mg 1.50451(18) 0.30192(16) 0.39138(8)
Mg1_3 Mg -0.49549(18) 0.30192(16) 0.39138(8)
Mg1A Mg 0.49549(18) 0.69808(16) 0.60862(8)
Mg1A_2 Mg 0.49549(18) -0.30192(16) 0.60862(8)
Mg1_4 Mg 0.50451(18) 1.30192(16) 0.39138(8)
Mg2_2 Mg -0.5000 0.5000 0.5000
Mg2_3 Mg 1.5000 0.5000 0.5000
Mg3_2 Mg 1.0000 0.5000 1.0000
Mg3_3 Mg 1.0000 0.5000 0.0000
Mg3_4 Mg 0.0000 0.5000 0.0000
Mg4_2 Mg 1.05866(19) 0.68792(17) 0.92552(9)
Mg4A Mg -0.05866(19) 0.31208(17) 1.07448(9)
Mg4A_2 Mg 0.94134(19) 0.31208(17) 1.07448(9)
Mg4_3 Mg 1.05866(19) 0.68792(17) -0.07448(9)
Mg4_4 Mg 0.05866(19) 0.68792(17) -0.07448(9)
Si1_2 Si 1.02696(15) 0.22392(14) 0.63331(7)
Si2A Si 0.60107(15) 0.75480(14) 0.18747(7)
C1_2 C 1.1476(5) 0.2436(5) 0.5907(2)
C2_2 C 1.1730(5) 0.3285(5) 0.5741(3)
H1_2 H 1.1333 0.3780 0.5880
C3_2 C 1.2548(5) 0.3467(5) 0.5375(3)
H2_2 H 1.2707 0.4064 0.5261
C4_2 C 1.3128(5) 0.2703(5) 0.5182(3)
C5_2 C 1.2922(6) 0.1869(5) 0.5361(3)
H3_2 H 1.3337 0.1379 0.5240
C6_2 C 1.2107(6) 0.1728(5) 0.5722(3)
H4_2 H 1.1970 0.1138 0.5847
C7_2 C 1.3950(6) 0.2859(5) 0.4743(3)
O1_2 O 1.4229(3) 0.3662(3) 0.46251(16)
O1A O 0.5771(3) 0.6338(3) 0.53749(16)
O2_2 O 1.4300(4) 0.2155(3) 0.44718(18)
C8_2 C 1.0439(6) 0.2965(5) 0.7080(3)
C9_2 C 1.1157(6) 0.3781(6) 0.7218(3)
H5_2 H 1.1648 0.3917 0.6938
C10_2 C 1.1199(6) 0.4398(5) 0.7732(3)
H6_2 H 1.1694 0.4957 0.7796
C11_2 C 1.0534(6) 0.4219(5) 0.8159(3)
C12_2 C 0.9837(6) 0.3372(6) 0.8057(3)
H7_2 H 0.9398 0.3214 0.8354
C13_2 C 0.9784(6) 0.2762(5) 0.7521(3)
H8_2 H 0.9295 0.2199 0.7455
C14_2 C 1.0507(6) 0.4901(6) 0.8705(3)
O3_2 O 1.0885(4) 0.5742(4) 0.87121(18)
O4_2 O 1.0087(4) 0.4595(3) 0.91298(18)
O4A O -0.0087(4) 0.5405(3) 1.08702(18)
C15_2 C 0.9179(5) 0.2645(4) 0.5918(3)
C16_2 C 0.8397(6) 0.3119(5) 0.6185(3)
H9_2 H 0.8386 0.3210 0.6598
C17_2 C 0.7633(6) 0.3463(5) 0.5870(3)
H10_2 H 0.7124 0.3798 0.6071
C18_2 C 0.7600(5) 0.3325(4) 0.5255(3)
C19_2 C 0.8359(5) 0.2829(5) 0.4989(3)
H11_2 H 0.8337 0.2692 0.4575
C20_2 C 0.9145(5) 0.2527(4) 0.5307(3)
H12_2 H 0.9680 0.2228 0.5106
C21_2 C 0.6756(5) 0.3651(5) 0.4921(3)
O5_2 O 0.6430(3) 0.4397(3) 0.51172(17)
O5A O 0.3570(3) 0.5603(3) 0.48828(17)
O6_2 O 0.6428(3) 0.3133(3) 0.44397(17)
O6_3 O 1.6428(3) 0.3133(3) 0.44397(17)
C22_2 C 0.9945(5) 0.0954(3) 0.6367(4)
C23_2 C 1.0271(6) 0.0586(4) 0.6848(3)
H13_2 H 1.0650 0.0991 0.7175
C24_2 C 1.0043(7) -0.0373(5) 0.6851(3)
H14_2 H 1.0267 -0.0624 0.7180
C25_2 C 0.9489(7) -0.0965(3) 0.6373(3)
C26_2 C 0.9162(8) -0.0597(5) 0.5891(3)
H15_2 H 0.8783 -0.1002 0.5564
C27_2 C 0.9390(7) 0.0362(5) 0.5888(3)
H16_2 H 0.9167 0.0613 0.5559
C28_2 C 0.9228(13) -0.1978(8) 0.6396(5)
O7_2 O 0.9453(11) -0.2295(5) 0.6831(3)
O8_2 O 0.8685(13) -0.2510(5) 0.5926(3)
C29A C 0.5895(5) 0.6761(5) 0.2422(3)
C30A C 0.5529(6) 0.7051(5) 0.2976(3)
H17A H 0.5352 0.7672 0.3070
C31A C 0.5418(6) 0.6482(5) 0.3383(3)
H18A H 0.5185 0.6714 0.3756
C32A C 0.5641(5) 0.5572(5) 0.3255(3)
C33A C 0.5962(6) 0.5255(5) 0.2717(3)
H19A H 0.6105 0.4623 0.2622
C34A C 0.6084(6) 0.5829(6) 0.2310(3)
H20A H 0.6306 0.5581 0.1937
C35A C 0.5465(5) 0.4929(6) 0.3683(3)
O9A O 0.5268(3) 0.5277(3) 0.42012(17)
O10A O 0.5544(4) 0.4066(4) 0.35212(18)
O10A_2 O 1.5544(4) 0.4066(4) 0.35212(18)
C36A C 0.7146(6) 0.7415(5) 0.1404(2)
C37A C 0.7152(5) 0.6563(5) 0.1025(3)
H21A H 0.6623 0.6049 0.1046
C38A C 0.7914(6) 0.6445(5) 0.0617(3)
H22A H 0.7919 0.5853 0.0370
C39A C 0.8673(6) 0.7209(5) 0.0576(3)
C40A C 0.8694(6) 0.8039(5) 0.0947(3)
H23A H 0.9222 0.8552 0.0924
C41A C 0.7927(6) 0.8141(5) 0.1370(3)
H24A H 0.7955 0.8721 0.1634
C42A C 0.9427(6) 0.7067(6) 0.0086(3)
O11A O 0.9570(3) 0.6261(3) -0.01641(16)
O11A_2 O -0.0430(3) 0.6261(3) 0.98359(16)
O11A_3 O 0.9570(3) 0.6261(3) 0.98359(16)
O12A O 0.9870(4) 0.7818(4) -0.0070(2)
O12A_2 O -0.0130(4) 0.7818(4) 0.9930(2)
O12A_3 O 0.9870(4) 0.7818(4) 0.9930(2)
C43A C 0.4775(6) 0.7259(5) 0.1364(3)
C44A C 0.3921(7) 0.6646(5) 0.1475(3)
H25A H 0.3917 0.6410 0.1831
C45A C 0.3071(6) 0.6378(5) 0.1063(3)
H26A H 0.2505 0.5932 0.1136
C46A C 0.3015(6) 0.6729(5) 0.0558(3)
C47A C 0.3821(7) 0.7357(6) 0.0471(3)
H27A H 0.3786 0.7638 0.0132
C48A C 0.4712(6) 0.7611(5) 0.0861(3)
H28A H 0.5285 0.8038 0.0774
C49A C 0.2060(6) 0.6412(6) 0.0128(3)
O13A O 0.1543(4) 0.5625(4) 0.01456(18)
O13_2 O -0.1543(4) 0.4375(4) 0.98544(18)
O13A_2 O 0.1543(4) 0.5625(4) 1.01456(18)
O14A O 0.1885(4) 0.6977(3) -0.02037(19)
O14A_2 O 0.1885(4) 0.6977(3) 0.97963(19)
O14A_3 O 1.1885(4) 0.6977(3) 0.97963(19)
C50A C 0.6144(5) 0.8786(5) 0.2288(2)
C51A C 0.6896(6) 0.9071(5) 0.2769(3)
H29A H 0.7384 0.8653 0.2844
C52A C 0.6950(6) 0.9905(5) 0.3125(3)
H30A H 0.7485 1.0082 0.3436
C53A C 0.6240(6) 1.0491(5) 0.3037(3)
C54A C 0.5498(6) 1.0273(5) 0.2562(3)
H31A H 0.5032 1.0710 0.2491
C55A C 0.5445(6) 0.9430(5) 0.2199(3)
H32A H 0.4926 0.9274 0.1879
C56A C 0.6218(6) 1.1394(6) 0.3461(3)
O15A O 0.6887(4) 1.1559(3) 0.39229(19)
O16A O 0.5596(4) 1.1946(3) 0.33766(16)
O16A_2 O 0.5596(4) 0.1946(3) 0.33766(16)
O16A_3 O 1.5596(4) 0.1946(3) 0.33766(16)
O17_2 O 1.3652(4) 0.2737(4) 0.3392(2)
C57_2 C 1.3425(12) 0.3116(11) 0.2896(5)
H33_2 H 1.3632 0.3806 0.2991
H34_2 H 1.2647 0.3001 0.2805
C58_2 C 1.3968(16) 0.2731(13) 0.2340(6)
H35_2 H 1.3769 0.3052 0.2022
H36_2 H 1.3740 0.2053 0.2227
H37_2 H 1.4740 0.2846 0.2421
O18_2 O 0.9210(5) 0.6910(5) 0.8729(2)
C59_2 C 0.8976(17) 0.6422(15) 0.8155(6)
H38_2 H 0.9677 0.6322 0.8007
H39_2 H 0.8713 0.6891 0.7942
C60_2 C 0.8245(15) 0.5484(12) 0.7905(8)
H40_2 H 0.8277 0.5345 0.7479
H41_2 H 0.7513 0.5549 0.8000
H42_2 H 0.8486 0.4970 0.8077
O19_2 O 1.1321(5) 0.7923(4) 0.8856(2)
loop_
_geom_bond_atom_site_label_1
_geom_bond_atom_site_label_2
_geom_bond_site_symmetry_1
_geom_bond_site_symmetry_2
Mg1 O1 1_555 1_555
Mg2 O1 1_555 1_555
Mg3 O4 1_555 1_555
Mg4 O3 1_555 1_555
Si1 C1 1_555 1_555
Si2 C29 1_555 1_555
C1 C2 1_555 1_555
C2 H1 1_555 1_555
C3 C2 1_555 1_555
H2 C3 1_555 1_555
C4 C3 1_555 1_555
C5 C4 1_555 1_555
H3 C5 1_555 1_555
C6 C1 1_555 1_555
H4 C6 1_555 1_555
C7 C4 1_555 1_555
O1 C7 1_555 1_555
O2 Mg1 1_555 1_555
C8 Si1 1_555 1_555
C9 C8 1_555 1_555
H5 C9 1_555 1_555
C10 C9 1_555 1_555
H6 C10 1_555 1_555
C11 C10 1_555 1_555
C12 C11 1_555 1_555
H7 C12 1_555 1_555
C13 C8 1_555 1_555
H8 C13 1_555 1_555
C14 C11 1_555 1_555
O3 C14 1_555 1_555
O4 C14 1_555 1_555
C15 Si1 1_555 1_555
C16 C15 1_555 1_555
H9 C16 1_555 1_555
C17 C16 1_555 1_555
H10 C17 1_555 1_555
C18 C17 1_555 1_555
C19 C18 1_555 1_555
H11 C19 1_555 1_555
C20 C15 1_555 1_555
H12 C20 1_555 1_555
C21 C18 1_555 1_555
O5 C21 1_555 1_555
O6 C21 1_555 1_555
C22 Si1 1_555 1_555
C23 C22 1_555 1_555
H13 C23 1_555 1_555
C24 C23 1_555 1_555
H14 C24 1_555 1_555
C25 C24 1_555 1_555
C26 C25 1_555 1_555
H15 C26 1_555 1_555
C27 C22 1_555 1_555
H16 C27 1_555 1_555
C28 C25 1_555 1_555
O7 C28 1_555 1_555
O8 C28 1_555 1_555
C29 C30 1_555 1_555
C30 H17 1_555 1_555
C31 C30 1_555 1_555
H18 C31 1_555 1_555
C32 C31 1_555 1_555
C33 C32 1_555 1_555
H19 C33 1_555 1_555
C34 C29 1_555 1_555
H20 C34 1_555 1_555
C35 C32 1_555 1_555
O9 Mg2 1_555 1_555
O10 C35 1_555 1_555
C36 Si2 1_555 1_555
C37 C36 1_555 1_555
H21 C37 1_555 1_555
C38 C37 1_555 1_555
H22 C38 1_555 1_555
C39 C38 1_555 1_555
C40 C39 1_555 1_555
H23 C40 1_555 1_555
C41 C36 1_555 1_555
H24 C41 1_555 1_555
C42 C39 1_555 1_555
O11 Mg3 1_555 1_555
O12 C42 1_555 1_555
C43 Si2 1_555 1_555
C44 C43 1_555 1_555
H25 C44 1_555 1_555
C45 C44 1_555 1_555
H26 C45 1_555 1_555
C46 C45 1_555 1_555
C47 C46 1_555 1_555
H27 C47 1_555 1_555
C48 C43 1_555 1_555
H28 C48 1_555 1_555
C49 C46 1_555 1_555
O13 C49 1_555 1_555
O14 C49 1_555 1_555
C50 Si2 1_555 1_555
C51 C50 1_555 1_555
H29 C51 1_555 1_555
C52 C51 1_555 1_555
H30 C52 1_555 1_555
C53 C52 1_555 1_555
C54 C53 1_555 1_555
H31 C54 1_555 1_555
C55 C50 1_555 1_555
H32 C55 1_555 1_555
C56 C53 1_555 1_555
O15 C56 1_555 1_555
O16 C56 1_555 1_555
O17 Mg1 1_555 1_555
C57 O17 1_555 1_555
H33 C57 1_555 1_555
H34 C57 1_555 1_555
C58 C57 1_555 1_555
H35 C58 1_555 1_555
H36 C58 1_555 1_555
H37 C58 1_555 1_555
O18 Mg4 1_555 1_555
C59 O18 1_555 1_555
H38 C59 1_555 1_555
H39 C59 1_555 1_555
C60 C59 1_555 1_555
H40 C60 1_555 1_555
H41 C60 1_555 1_555
H42 C60 1_555 1_555
O19 Mg4 1_555 1_555
Mg1_2 O1_2 1_555 1_555
Mg1_3 O6 1_555 1_555
Mg1A O10 1_555 1_555
Mg1A_2 O16 1_555 1_555
Mg1_4 O16A 1_555 1_555
Mg2_2 O5 1_555 1_555
Mg2_3 O1_2 1_555 1_555
Mg3_2 O13 1_555 1_555
Mg3_3 O11A 1_555 1_555
Mg3_4 O13A 1_555 1_555
Mg4_2 O3_2 1_555 1_555
Mg4A O11 1_555 1_555
Mg4A_2 O14 1_555 1_555
Mg4_3 O11A 1_555 1_555
Mg4_4 O14A 1_555 1_555
Si1_2 C1_2 1_555 1_555
Si2A C29A 1_555 1_555
C1_2 C2_2 1_555 1_555
C2_2 H1_2 1_555 1_555
C3_2 C2_2 1_555 1_555
H2_2 C3_2 1_555 1_555
C4_2 C3_2 1_555 1_555
C5_2 C4_2 1_555 1_555
H3_2 C5_2 1_555 1_555
C6_2 C1_2 1_555 1_555
H4_2 C6_2 1_555 1_555
C7_2 C4_2 1_555 1_555
O1_2 C7_2 1_555 1_555
O1A Mg2 1_555 1_555
O2_2 Mg1_2 1_555 1_555
C8_2 Si1_2 1_555 1_555
C9_2 C8_2 1_555 1_555
H5_2 C9_2 1_555 1_555
C10_2 C9_2 1_555 1_555
H6_2 C10_2 1_555 1_555
C11_2 C10_2 1_555 1_555
C12_2 C11_2 1_555 1_555
H7_2 C12_2 1_555 1_555
C13_2 C8_2 1_555 1_555
H8_2 C13_2 1_555 1_555
C14_2 C11_2 1_555 1_555
O3_2 C14_2 1_555 1_555
O4_2 Mg3_2 1_555 1_555
O4A Mg3 1_555 1_555
C15_2 Si1_2 1_555 1_555
C16_2 C15_2 1_555 1_555
H9_2 C16_2 1_555 1_555
C17_2 C16_2 1_555 1_555
H10_2 C17_2 1_555 1_555
C18_2 C17_2 1_555 1_555
C19_2 C18_2 1_555 1_555
H11_2 C19_2 1_555 1_555
C20_2 C15_2 1_555 1_555
H12_2 C20_2 1_555 1_555
C21_2 C18_2 1_555 1_555
O5_2 Mg2 1_555 1_555
O5A Mg2 1_555 1_555
O6_2 Mg1 1_555 1_555
O6_3 Mg1_2 1_555 1_555
C22_2 Si1_2 1_555 1_555
C23_2 C22_2 1_555 1_555
H13_2 C23_2 1_555 1_555
C24_2 C23_2 1_555 1_555
H14_2 C24_2 1_555 1_555
C25_2 C24_2 1_555 1_555
C26_2 C25_2 1_555 1_555
H15_2 C26_2 1_555 1_555
C27_2 C22_2 1_555 1_555
H16_2 C27_2 1_555 1_555
C28_2 C25_2 1_555 1_555
O7_2 C28_2 1_555 1_555
O8_2 C28_2 1_555 1_555
C29A C30A 1_555 1_555
C30A H17A 1_555 1_555
C31A C30A 1_555 1_555
H18A C31A 1_555 1_555
C32A C31A 1_555 1_555
C33A C32A 1_555 1_555
H19A C33A 1_555 1_555
C34A C29A 1_555 1_555
H20A C34A 1_555 1_555
C35A C32A 1_555 1_555
O9A Mg2 1_555 1_555
O10A Mg1 1_555 1_555
O10A_2 Mg1_2 1_555 1_555
C36A Si2A 1_555 1_555
C37A C36A 1_555 1_555
H21A C37A 1_555 1_555
C38A C37A 1_555 1_555
H22A C38A 1_555 1_555
C39A C38A 1_555 1_555
C40A C39A 1_555 1_555
H23A C40A 1_555 1_555
C41A C36A 1_555 1_555
H24A C41A 1_555 1_555
C42A C39A 1_555 1_555
O11A C42A 1_555 1_555
O11A_2 Mg3 1_555 1_555
O11A_3 Mg3_2 1_555 1_555
O12A Mg4_3 1_555 1_555
O12A_2 Mg4 1_555 1_555
O12A_3 Mg4_2 1_555 1_555
C43A Si2A 1_555 1_555
C44A C43A 1_555 1_555
H25A C44A 1_555 1_555
C45A C44A 1_555 1_555
H26A C45A 1_555 1_555
C46A C45A 1_555 1_555
C47A C46A 1_555 1_555
H27A C47A 1_555 1_555
C48A C43A 1_555 1_555
H28A C48A 1_555 1_555
C49A C46A 1_555 1_555
O13A C49A 1_555 1_555
O13_2 Mg3 1_555 1_555
O13A_2 Mg3 1_555 1_555
O14A C49A 1_555 1_555
O14A_2 Mg4 1_555 1_555
O14A_3 Mg4_2 1_555 1_555
C50A Si2A 1_555 1_555
C51A C50A 1_555 1_555
H29A C51A 1_555 1_555
C52A C51A 1_555 1_555
H30A C52A 1_555 1_555
C53A C52A 1_555 1_555
C54A C53A 1_555 1_555
H31A C54A 1_555 1_555
C55A C50A 1_555 1_555
H32A C55A 1_555 1_555
C56A C53A 1_555 1_555
O15A C56A 1_555 1_555
O16A C56A 1_555 1_555
O16A_2 Mg1 1_555 1_555
O16A_3 Mg1_2 1_555 1_555
O17_2 Mg1_2 1_555 1_555
C57_2 O17_2 1_555 1_555
H33_2 C57_2 1_555 1_555
H34_2 C57_2 1_555 1_555
C58_2 C57_2 1_555 1_555
H35_2 C58_2 1_555 1_555
H36_2 C58_2 1_555 1_555
H37_2 C58_2 1_555 1_555
O18_2 Mg4_2 1_555 1_555
C59_2 O18_2 1_555 1_555
H38_2 C59_2 1_555 1_555
H39_2 C59_2 1_555 1_555
C60_2 C59_2 1_555 1_555
H40_2 C60_2 1_555 1_555
H41_2 C60_2 1_555 1_555
H42_2 C60_2 1_555 1_555
O19_2 Mg4_2 1_555 1_555
Mg4 O11A_2 1_555 1_555
C5 C6 1_555 1_555
C7 O2 1_555 1_555
C12 C13 1_555 1_555
C19 C20 1_555 1_555
C26 C27 1_555 1_555
C33 C34 1_555 1_555
C35 O9 1_555 1_555
C40 C41 1_555 1_555
C42 O11 1_555 1_555
O12 Mg4A 1_555 1_555
C47 C48 1_555 1_555
C54 C55 1_555 1_555
Mg1A O1A 1_555 1_555
Mg4_2 O11A_3 1_555 1_555
C5_2 C6_2 1_555 1_555
C7_2 O2_2 1_555 1_555
C12_2 C13_2 1_555 1_555
C14_2 O4_2 1_555 1_555
C19_2 C20_2 1_555 1_555
C21_2 O5_2 1_555 1_555
C21_2 O6_2 1_555 1_555
C26_2 C27_2 1_555 1_555
C33A C34A 1_555 1_555
C35A O9A 1_555 1_555
C35A O10A 1_555 1_555
C40A C41A 1_555 1_555
C42A O12A 1_555 1_555
C47A C48A 1_555 1_555
C54A C55A 1_555 1_555

#END
