
#######################################################################
#
#                 Cambridge Crystallographic Data Centre
#                                CCDC 
#
#######################################################################
#
# If this CIF has been generated from an entry in the Cambridge 
# Structural Database, then it will include bibliographic, chemical, 
# crystal, experimental, refinement or atomic coordinate data resulting 
# from the CCDC's data processing and validation procedures.
#
#######################################################################

data_CANRUG
_chemical_formula_moiety         '(C70 H76 Ca3 O23 Si2)n'
_symmetry_cell_setting           monoclinic
_symmetry_space_group_name_H-M   'P 21/c'
_symmetry_Int_Tables_number      14
_space_group_name_Hall           '-P 2ybc'
loop_
_symmetry_equiv_pos_site_id
_symmetry_equiv_pos_as_xyz
1 x,y,z
2 -x,1/2+y,1/2-z
3 -x,-y,-z
4 x,1/2-y,1/2+z
_cell_length_a                   13.6691(2)
_cell_length_b                   23.6874(2)
_cell_length_c                   14.5690(2)
_cell_angle_alpha                90
_cell_angle_beta                 114.939(2)
_cell_angle_gamma                90
_cell_volume                     4277.38
loop_
_atom_site_label
_atom_site_type_symbol
_atom_site_fract_x
_atom_site_fract_y
_atom_site_fract_z
Ca1 Ca 0.0000 0.5000 1.0000
Ca2 Ca -0.01577(3) 0.343138(13) 0.99868(2)
Si1 Si 0.29316(4) 0.490891(18) 0.62041(3)
C1 C 0.21062(13) 0.46110(7) 0.68368(12)
C2 C 0.13780(16) 0.41662(7) 0.64595(14)
H1 H 0.1260 0.4003 0.5826
C3 C 0.08200(16) 0.39567(8) 0.69945(14)
H2 H 0.0324 0.3654 0.6724
C4 C 0.09875(14) 0.41891(7) 0.79237(13)
C5 C 0.17000(14) 0.46374(7) 0.83070(13)
H3 H 0.1809 0.4803 0.8937
C6 C 0.22512(15) 0.48431(7) 0.77701(13)
H4 H 0.2739 0.5149 0.8040
C7 C 0.04152(14) 0.39664(7) 0.85301(13)
O1 O -0.01316(12) 0.35256(6) 0.82710(11)
O2 O 0.05321(11) 0.42331(5) 0.93255(10)
C8 C 0.43626(13) 0.46836(6) 0.69265(12)
C9 C 0.46542(14) 0.43136(7) 0.77529(14)
H5 H 0.4109 0.4164 0.7925
C10 C 0.57249(14) 0.41620(7) 0.83244(14)
H6 H 0.5901 0.3897 0.8860
C11 C 0.65338(13) 0.43979(7) 0.81120(12)
C12 C 0.62580(14) 0.47624(7) 0.72853(14)
H7 H 0.6807 0.4923 0.7129
C13 C 0.51852(14) 0.48899(7) 0.66935(13)
H8 H 0.5006 0.5124 0.6115
C14 C 0.76951(14) 0.42919(7) 0.87818(13)
O3 O 0.83100(11) 0.47085(5) 0.89801(11)
O4 O 0.80015(10) 0.37983(5) 0.91211(10)
C15 C 0.24018(13) 0.46642(6) 0.48584(12)
C16 C 0.14701(17) 0.48974(9) 0.41134(15)
H9 H 0.1121 0.5198 0.4287
C17 C 0.10397(16) 0.47019(9) 0.31248(14)
H10 H 0.0402 0.4869 0.2633
C18 C 0.15323(14) 0.42660(7) 0.28508(12)
C19 C 0.24689(16) 0.40294(8) 0.35762(13)
H11 H 0.2818 0.3731 0.3396
C20 C 0.28974(16) 0.42293(7) 0.45686(13)
H12 H 0.3541 0.4066 0.5057
C21 C 0.10450(14) 0.40484(7) 0.17847(12)
O5 O 0.14817(11) 0.36414(6) 0.15504(10)
O6 O 0.01787(10) 0.42772(5) 0.11541(9)
C22 C 0.27870(14) 0.56959(6) 0.62444(12)
C23 C 0.36389(15) 0.60789(7) 0.65570(14)
H13 H 0.4358 0.5942 0.6801
C24 C 0.34569(15) 0.66601(7) 0.65185(15)
H14 H 0.4047 0.6916 0.6731
C25 C 0.24101(15) 0.68626(7) 0.61683(13)
C26 C 0.15499(15) 0.64888(7) 0.58705(14)
H15 H 0.0833 0.6628 0.5630
C27 C 0.17383(14) 0.59142(7) 0.59236(13)
H16 H 0.1147 0.5661 0.5739
C28 C 0.21481(15) 0.74753(7) 0.60810(14)
O7 O 0.12259(11) 0.76383(5) 0.58257(11)
O8 O 0.29665(11) 0.78208(5) 0.62859(12)
H17 H 0.271(2) 0.8176(4) 0.623(2)
O9 O -0.08337(13) 0.31014(6) 1.11910(11)
C29 C -0.1227(2) 0.33963(12) 1.1829(2)
H18 H -0.0767 0.3731 1.2118
H19 H -0.1159 0.3147 1.2397
C30 C -0.2349(3) 0.35796(16) 1.1303(2)
H20 H -0.2565 0.3776 1.1780
H21 H -0.2813 0.3250 1.1026
H22 H -0.2420 0.3836 1.0751
O10 O 0.11537(14) 0.27335(7) 1.00388(14)
C31 C 0.1074(3) 0.23554(13) 0.9232(3)
H23 H 0.0317 0.2353 0.8715
H24 H 0.1249 0.1968 0.9510
C32 C 0.1775(4) 0.24959(15) 0.8737(3)
H25 H 0.1669 0.2220 0.8201
H26 H 0.2530 0.2487 0.9236
H27 H 0.1598 0.2875 0.8441
Ca1_2 Ca 1.0000 0.5000 1.0000
Ca1_3 Ca -0.0000 0.5000 0.0000
Ca1_4 Ca -1.0000 0.5000 1.0000
Ca1_5 Ca 0.0000 0.5000 2.0000
Ca2B Ca 0.01577(3) 0.656862(13) 1.00132(2)
Ca2_2 Ca 0.98423(3) 0.343138(13) 0.99868(2)
Ca2_3 Ca -0.01577(3) 0.343138(13) -0.00132(2)
Ca2A Ca 0.01577(3) 0.843138(13) 0.50132(2)
Ca2B_2 Ca -0.98423(3) 0.656862(13) 1.00132(2)
Ca2B_3 Ca 0.01577(3) 0.656862(13) 2.00132(2)
Ca2C Ca -0.01577(3) 0.156862(13) 1.49868(2)
Si1B Si -0.29316(4) 0.509109(18) 1.37959(3)
C1B C -0.21062(13) 0.53890(7) 1.31632(12)
C2B C -0.13780(16) 0.58338(7) 1.35405(14)
H1B H -0.1260 0.5997 1.4174
C3B C -0.08200(16) 0.60433(8) 1.30055(14)
H2B H -0.0324 0.6346 1.3276
C4B C -0.09875(14) 0.58109(7) 1.20763(13)
C5B C -0.17000(14) 0.53626(7) 1.16930(13)
H3B H -0.1809 0.5197 1.1063
C6B C -0.22512(15) 0.51569(7) 1.22299(13)
H4B H -0.2739 0.4851 1.1960
C7B C -0.04152(14) 0.60336(7) 1.14699(13)
O1B O 0.01316(12) 0.64744(6) 1.17290(11)
O2B O -0.05321(11) 0.57669(5) 1.06745(10)
C8B C -0.43626(13) 0.53164(6) 1.30735(12)
C9B C -0.46542(14) 0.56864(7) 1.22471(14)
H5B H -0.4109 0.5836 1.2075
C10B C -0.57249(14) 0.58380(7) 1.16756(14)
H6B H -0.5901 0.6103 1.1140
C11B C -0.65338(13) 0.56021(7) 1.18880(12)
C12B C -0.62580(14) 0.52376(7) 1.27147(14)
H7B H -0.6807 0.5077 1.2871
C13B C -0.51852(14) 0.51101(7) 1.33065(13)
H8B H -0.5006 0.4876 1.3885
C14B C -0.76951(14) 0.57081(7) 1.12182(13)
O3B O -0.83100(11) 0.52915(5) 1.10199(11)
O3_2 O -0.16900(11) 0.47085(5) 0.89801(11)
O3B_2 O 0.16900(11) 0.52915(5) 1.10199(11)
O4B O -0.80015(10) 0.62017(5) 1.08789(10)
O4_2 O -0.19985(10) 0.37983(5) 0.91211(10)
O4B_2 O 0.19985(10) 0.62017(5) 1.08789(10)
C15B C -0.24018(13) 0.53358(6) 1.51416(12)
C16B C -0.14701(17) 0.51026(9) 1.58866(15)
H9B H -0.1121 0.4802 1.5713
C17B C -0.10397(16) 0.52981(9) 1.68752(14)
H10B H -0.0402 0.5131 1.7367
C18B C -0.15323(14) 0.57340(7) 1.71492(12)
C19B C -0.24689(16) 0.59706(8) 1.64238(13)
H11B H -0.2818 0.6269 1.6604
C20B C -0.28974(16) 0.57707(7) 1.54314(13)
H12B H -0.3541 0.5934 1.4943
C21B C -0.10450(14) 0.59516(7) 1.82153(12)
O5B O -0.14817(11) 0.63586(6) 1.84496(10)
O5_2 O 0.14817(11) 0.36414(6) 1.15504(10)
O5B_2 O -0.14817(11) 0.63586(6) 0.84496(10)
O6B O -0.01787(10) 0.57228(5) 1.88459(9)
O6_2 O 0.01787(10) 0.42772(5) 1.11541(9)
O6B_2 O -0.01787(10) 0.57228(5) 0.88459(9)
C22B C -0.27870(14) 0.43041(6) 1.37556(12)
C23B C -0.36389(15) 0.39211(7) 1.34430(14)
H13B H -0.4358 0.4058 1.3199
C24B C -0.34569(15) 0.33399(7) 1.34815(15)
H14B H -0.4047 0.3084 1.3269
C25B C -0.24101(15) 0.31374(7) 1.38317(13)
C26B C -0.15499(15) 0.35112(7) 1.41295(14)
H15B H -0.0833 0.3372 1.4370
C27B C -0.17383(14) 0.40858(7) 1.40764(13)
H16B H -0.1147 0.4339 1.4261
C28B C -0.21481(15) 0.25247(7) 1.39190(14)
O7B O -0.12259(11) 0.23617(5) 1.41743(11)
O7A O -0.12259(11) 0.26383(5) 0.91743(11)
O7C O 0.12259(11) 0.73617(5) 1.08257(11)
O8B O -0.29665(11) 0.21792(5) 1.37141(12)
H17B H -0.271(2) 0.1824(4) 1.377(2)
O9B O 0.08337(13) 0.68986(6) 0.88090(11)
C29B C 0.1227(2) 0.66037(12) 0.8171(2)
H18B H 0.0767 0.6269 0.7882
H19B H 0.1159 0.6853 0.7603
C30B C 0.2349(3) 0.64204(16) 0.8697(2)
H20B H 0.2565 0.6224 0.8220
H21B H 0.2813 0.6750 0.8974
H22B H 0.2420 0.6164 0.9249
O10B O -0.11537(14) 0.72665(7) 0.99612(14)
C31B C -0.1074(3) 0.76446(13) 1.0768(3)
H23B H -0.0317 0.7647 1.1285
H24B H -0.1249 0.8032 1.0490
C32B C -0.1775(4) 0.75041(15) 1.1263(3)
H25B H -0.1669 0.7780 1.1799
H26B H -0.2530 0.7513 1.0764
H27B H -0.1598 0.7125 1.1559
O11 O -0.13487(16) 0.20428(7) 1.15220(14)
C33 C -0.2413(3) 0.19333(15) 1.1332(2)
H28 H -0.2891 0.2124 1.0696
H29 H -0.2562 0.2096 1.1886
C34 C -0.2666(4) 0.13443(18) 1.1247(3)
H30 H -0.3425 0.1294 1.1115
H31 H -0.2206 0.1153 1.1879
H32 H -0.2539 0.1182 1.0687
O12 O 0.35935(16) 0.37048(9) 0.16998(16)
C35 C 0.3501(3) 0.40268(17) 0.0849(3)
H33 H 0.2880 0.3883 0.0246
H34 H 0.3341 0.4423 0.0955
C36 C 0.4406(5) 0.4022(4) 0.0647(4)
H35 H 0.4268 0.4250 0.0044
H36 H 0.4568 0.3633 0.0528
H37 H 0.5022 0.4179 0.1226
O13 O 0.3297(5) 0.2578(2) 1.1241(5)
C37 C 0.3903(15) 0.2162(7) 1.1933(9)
H38 H 0.4633 0.2148 1.1946
H39 H 0.3558 0.1790 1.1694
C38 C 0.4009(10) 0.2259(5) 1.2979(7)
H40 H 0.4419 0.1948 1.3417
H41 H 0.3290 0.2275 1.2972
H42 H 0.4387 0.2616 1.3236
loop_
_geom_bond_atom_site_label_1
_geom_bond_atom_site_label_2
_geom_bond_site_symmetry_1
_geom_bond_site_symmetry_2
Ca1 O2 1_555 1_555
Ca2 O1 1_555 1_555
Si1 C1 1_555 1_555
C1 C2 1_555 1_555
C2 H1 1_555 1_555
C3 C2 1_555 1_555
H2 C3 1_555 1_555
C4 C3 1_555 1_555
C5 C4 1_555 1_555
H3 C5 1_555 1_555
C6 C1 1_555 1_555
H4 C6 1_555 1_555
C7 C4 1_555 1_555
O1 C7 1_555 1_555
O2 Ca2 1_555 1_555
C8 Si1 1_555 1_555
C9 C8 1_555 1_555
H5 C9 1_555 1_555
C10 C9 1_555 1_555
H6 C10 1_555 1_555
C11 C10 1_555 1_555
C12 C11 1_555 1_555
H7 C12 1_555 1_555
C13 C8 1_555 1_555
H8 C13 1_555 1_555
C14 C11 1_555 1_555
O3 C14 1_555 1_555
O4 C14 1_555 1_555
C15 Si1 1_555 1_555
C16 C15 1_555 1_555
H9 C16 1_555 1_555
C17 C16 1_555 1_555
H10 C17 1_555 1_555
C18 C17 1_555 1_555
C19 C18 1_555 1_555
H11 C19 1_555 1_555
C20 C15 1_555 1_555
H12 C20 1_555 1_555
C21 C18 1_555 1_555
O5 C21 1_555 1_555
O6 C21 1_555 1_555
C22 Si1 1_555 1_555
C23 C22 1_555 1_555
H13 C23 1_555 1_555
C24 C23 1_555 1_555
H14 C24 1_555 1_555
C25 C24 1_555 1_555
C26 C25 1_555 1_555
H15 C26 1_555 1_555
C27 C22 1_555 1_555
H16 C27 1_555 1_555
C28 C25 1_555 1_555
O7 C28 1_555 1_555
O8 C28 1_555 1_555
H17 O8 1_555 1_555
O9 Ca2 1_555 1_555
C29 O9 1_555 1_555
H18 C29 1_555 1_555
H19 C29 1_555 1_555
C30 C29 1_555 1_555
H20 C30 1_555 1_555
H21 C30 1_555 1_555
H22 C30 1_555 1_555
O10 Ca2 1_555 1_555
C31 O10 1_555 1_555
H23 C31 1_555 1_555
H24 C31 1_555 1_555
C32 C31 1_555 1_555
H25 C32 1_555 1_555
H26 C32 1_555 1_555
H27 C32 1_555 1_555
O11 C33 1_555 1_555
C33 H28 1_555 1_555
H29 C33 1_555 1_555
C34 C33 1_555 1_555
H30 C34 1_555 1_555
H31 C34 1_555 1_555
H32 C34 1_555 1_555
O12 C35 1_555 1_555
C35 H33 1_555 1_555
H34 C35 1_555 1_555
C36 C35 1_555 1_555
H35 C36 1_555 1_555
H36 C36 1_555 1_555
H37 C36 1_555 1_555
O13 C37 1_555 1_555
C37 H38 1_555 1_555
H39 C37 1_555 1_555
C38 C37 1_555 1_555
H40 C38 1_555 1_555
H41 C38 1_555 1_555
H42 C38 1_555 1_555
Ca1_2 O3 1_555 1_555
Ca1_3 O6 1_555 1_555
Ca1_4 O3B 1_555 1_555
Ca1_5 O6B 1_555 1_555
Ca2B O1B 1_555 1_555
Ca2_2 O4 1_555 1_555
Ca2_3 O5 1_555 1_555
Ca2A O7 1_555 1_555
Ca2B_2 O4B 1_555 1_555
Ca2B_3 O5B 1_555 1_555
Ca2C O7B 1_555 1_555
Si1B C1B 1_555 1_555
C1B C2B 1_555 1_555
C2B H1B 1_555 1_555
C3B C2B 1_555 1_555
H2B C3B 1_555 1_555
C4B C3B 1_555 1_555
C5B C4B 1_555 1_555
H3B C5B 1_555 1_555
C6B C1B 1_555 1_555
H4B C6B 1_555 1_555
C7B C4B 1_555 1_555
O1B C7B 1_555 1_555
O2B Ca1 1_555 1_555
C8B Si1B 1_555 1_555
C9B C8B 1_555 1_555
H5B C9B 1_555 1_555
C10B C9B 1_555 1_555
H6B C10B 1_555 1_555
C11B C10B 1_555 1_555
C12B C11B 1_555 1_555
H7B C12B 1_555 1_555
C13B C8B 1_555 1_555
H8B C13B 1_555 1_555
C14B C11B 1_555 1_555
O3B C14B 1_555 1_555
O3_2 Ca1 1_555 1_555
O3B_2 Ca1 1_555 1_555
O4B C14B 1_555 1_555
O4_2 Ca2 1_555 1_555
O4B_2 Ca2B 1_555 1_555
C15B Si1B 1_555 1_555
C16B C15B 1_555 1_555
H9B C16B 1_555 1_555
C17B C16B 1_555 1_555
H10B C17B 1_555 1_555
C18B C17B 1_555 1_555
C19B C18B 1_555 1_555
H11B C19B 1_555 1_555
C20B C15B 1_555 1_555
H12B C20B 1_555 1_555
C21B C18B 1_555 1_555
O5B C21B 1_555 1_555
O5_2 Ca2 1_555 1_555
O5B_2 Ca2B 1_555 1_555
O6B Ca2B_3 1_555 1_555
O6_2 Ca1 1_555 1_555
O6B_2 Ca1 1_555 1_555
C22B Si1B 1_555 1_555
C23B C22B 1_555 1_555
H13B C23B 1_555 1_555
C24B C23B 1_555 1_555
H14B C24B 1_555 1_555
C25B C24B 1_555 1_555
C26B C25B 1_555 1_555
H15B C26B 1_555 1_555
C27B C22B 1_555 1_555
H16B C27B 1_555 1_555
C28B C25B 1_555 1_555
O7B C28B 1_555 1_555
O7A Ca2 1_555 1_555
O7C Ca2B 1_555 1_555
O8B C28B 1_555 1_555
H17B O8B 1_555 1_555
O9B Ca2B 1_555 1_555
C29B O9B 1_555 1_555
H18B C29B 1_555 1_555
H19B C29B 1_555 1_555
C30B C29B 1_555 1_555
H20B C30B 1_555 1_555
H21B C30B 1_555 1_555
H22B C30B 1_555 1_555
O10B Ca2B 1_555 1_555
C31B O10B 1_555 1_555
H23B C31B 1_555 1_555
H24B C31B 1_555 1_555
C32B C31B 1_555 1_555
H25B C32B 1_555 1_555
H26B C32B 1_555 1_555
H27B C32B 1_555 1_555
Ca2 O6_2 1_555 1_555
C5 C6 1_555 1_555
C7 O2 1_555 1_555
C12 C13 1_555 1_555
C19 C20 1_555 1_555
O6 Ca2_3 1_555 1_555
C26 C27 1_555 1_555
Ca2B O2B 1_555 1_555
Ca2B O6B_2 1_555 1_555
C5B C6B 1_555 1_555
C7B O2B 1_555 1_555
C12B C13B 1_555 1_555
C19B C20B 1_555 1_555
C21B O6B 1_555 1_555
C26B C27B 1_555 1_555

#END
