
#######################################################################
#
#                 Cambridge Crystallographic Data Centre
#                                CCDC 
#
#######################################################################
#
# If this CIF has been generated from an entry in the Cambridge 
# Structural Database, then it will include bibliographic, chemical, 
# crystal, experimental, refinement or atomic coordinate data resulting 
# from the CCDC's data processing and validation procedures.
#
#######################################################################

data_QAMVEH
_chemical_formula_moiety         'C27 H15 Ce6 O12'
_symmetry_cell_setting           hexagonal
_symmetry_space_group_name_H-M   'P 61 2 2'
_symmetry_Int_Tables_number      178
_space_group_name_Hall           'P 61 2 (0 0 5)'
loop_
_symmetry_equiv_pos_site_id
_symmetry_equiv_pos_as_xyz
1 x,y,z
2 x-y,x,1/6+z
3 -y,x-y,1/3+z
4 -x,-y,1/2+z
5 -x+y,-x,2/3+z
6 y,-x+y,5/6+z
7 -y,-x,5/6-z
8 x-y,-y,-z
9 x,x-y,1/6-z
10 y,x,1/3-z
11 -x+y,y,1/2-z
12 -x,-x+y,2/3-z
_cell_length_a                   16.5126(7)
_cell_length_b                   16.5126(7)
_cell_length_c                   24.5098(14)
_cell_angle_alpha                90
_cell_angle_beta                 90
_cell_angle_gamma                120
_cell_volume                     5787.64
loop_
_atom_site_label
_atom_site_type_symbol
_atom_site_fract_x
_atom_site_fract_y
_atom_site_fract_z
Ce1 Ce 1.07705(4) 1.0000 1.0000
C1 C 0.9715(5) 0.8033(5) 0.9600(3)
C2 C 0.9037(6) 0.6982(6) 0.9534(3)
C3 C 0.9267(7) 0.6381(6) 0.9798(4)
H1 H 0.9782 0.6616 1.0029
C4 C 0.8707(7) 0.5405(7) 0.9711(4)
H2 H 0.8865 0.4997 0.9879
C5 C 0.7930(6) 0.5054(6) 0.9380(3)
C6 C 0.7713(6) 0.5680(6) 0.9129(4)
H3 H 0.7188 0.5446 0.8905
C7 C 0.8267(7) 0.6662(6) 0.9204(3)
H4 H 0.8114 0.7073 0.9035
C8 C 0.7408(6) 0.4043(6) 0.9272(3)
C9 C 0.6457(5) 0.3543(5) 0.9167
H5 H 0.6132 0.3868 0.9167
C10 C 0.7866(7) 0.3534(7) 0.9273(4)
H6 H 0.8503 0.3844 0.9349
C11 C 0.7419(5) 0.2581(5) 0.9167
C12 C 0.7938(5) 0.2062(5) 0.9167
C13 C 0.8623(9) 0.2243(8) 0.9556(5)
H7 H 0.8752 0.2686 0.9826
C14 C 0.9106(9) 0.1771(9) 0.9540(4)
H8 H 0.9581 0.1924 0.9793
C15 C 0.8919(4) 0.1081(4) 0.9167
C16 C 0.9431(4) 0.0569(4) 0.9167
O1 O 1.0323(5) 0.8303(4) 0.9959(3)
O2 O 0.9622(4) 0.8608(4) 0.9290(2)
O3 O 0.9990(5) 0.0718(5) 0.9547(2)
Ce1_2 Ce 0.07705(4) -0.0000 1.0000
Ce1_3 Ce 1.07705(4) -0.0000 1.0000
Ce1E Ce 0.0000 -0.07705(4) 0.8333
Ce1E_2 Ce 1.0000 -0.07705(4) 0.8333
Ce1E_3 Ce 1.0000 0.92295(4) 0.8333
C1F C 0.1967(5) 0.0285(5) 0.8733(3)
C2F C 0.3018(6) 0.0963(6) 0.8799(3)
C3F C 0.3619(6) 0.0733(7) 0.8535(4)
H1F H 0.3384 0.0218 0.8304
C4F C 0.4595(7) 0.1293(7) 0.8622(4)
H2F H 0.5003 0.1135 0.8454
C5F C 0.4946(6) 0.2070(6) 0.8953(3)
C6F C 0.4320(6) 0.2287(6) 0.9204(4)
H3F H 0.4554 0.2812 0.9428
C7F C 0.3338(6) 0.1733(7) 0.9129(3)
H4F H 0.2927 0.1886 0.9298
C8F C 0.5957(6) 0.2592(6) 0.9061(3)
C10F C 0.6466(7) 0.2134(7) 0.9060(4)
H6F H 0.6156 0.1497 0.8984
C13F C 0.7757(8) 0.1377(9) 0.8777(5)
H7F H 0.7314 0.1248 0.8507
C14F C 0.8229(9) 0.0894(9) 0.8793(4)
H8F H 0.8076 0.0419 0.8540
O1F O 0.1697(4) -0.0323(5) 0.8374(3)
O1G O 1.2020(6) 1.1697(4) 1.0041(3)
O2F O 0.1392(4) 0.0378(4) 0.9043(2)
O2A O 1.1014(6) 0.9622(4) 1.0957(2)
O2F_2 O 1.1392(4) 1.0378(4) 0.9043(2)
O2G O 1.1014(6) 1.1392(4) 1.0710(2)
O3F O 0.9282(5) 0.0010(5) 0.8786(2)
O3_2 O 0.9990(5) 1.0718(5) 0.9547(2)
O3G O 0.9272(7) 0.9282(5) 1.0453(2)
loop_
_geom_bond_atom_site_label_1
_geom_bond_atom_site_label_2
_geom_bond_site_symmetry_1
_geom_bond_site_symmetry_2
Ce1 O1 1_555 1_555
C1 C2 1_555 1_555
C2 C3 1_555 1_555
C3 H1 1_555 1_555
C4 C3 1_555 1_555
H2 C4 1_555 1_555
C5 C4 1_555 1_555
C6 C5 1_555 1_555
H3 C6 1_555 1_555
C7 C2 1_555 1_555
H4 C7 1_555 1_555
C8 C5 1_555 1_555
C9 C8 1_555 1_555
H5 C9 1_555 1_555
C10 C8 1_555 1_555
H6 C10 1_555 1_555
C11 C10 1_555 1_555
C12 C11 1_555 1_555
C13 C12 1_555 1_555
H7 C13 1_555 1_555
C14 C13 1_555 1_555
H8 C14 1_555 1_555
C15 C14 1_555 1_555
C16 C15 1_555 1_555
O1 C1 1_555 1_555
O2 Ce1 1_555 1_555
O3 C16 1_555 1_555
Ce1_2 O2F 1_555 1_555
Ce1_3 O3 1_555 1_555
Ce1E O1F 1_555 1_555
Ce1E_2 O3F 1_555 1_555
Ce1E_3 O2 1_555 1_555
C1F C2F 1_555 1_555
C2F C3F 1_555 1_555
C3F H1F 1_555 1_555
C4F C3F 1_555 1_555
H2F C4F 1_555 1_555
C5F C4F 1_555 1_555
C6F C5F 1_555 1_555
H3F C6F 1_555 1_555
C7F C2F 1_555 1_555
H4F C7F 1_555 1_555
C8F C9 1_555 1_555
C10F C11 1_555 1_555
H6F C10F 1_555 1_555
C13F C12 1_555 1_555
H7F C13F 1_555 1_555
C14F C15 1_555 1_555
H8F C14F 1_555 1_555
O1F C1F 1_555 1_555
O1G Ce1 1_555 1_555
O2F Ce1E 1_555 1_555
O2A Ce1 1_555 1_555
O2F_2 Ce1 1_555 1_555
O2G Ce1 1_555 1_555
O3F C16 1_555 1_555
O3_2 Ce1 1_555 1_555
O3G Ce1 1_555 1_555
C1 O2 1_555 1_555
C6 C7 1_555 1_555
Ce1E_3 O2F_2 1_555 1_555
C1F O2F 1_555 1_555
C5F C8F 1_555 1_555
C6F C7F 1_555 1_555
C8F C10F 1_555 1_555
C13F C14F 1_555 1_555

#END
