
#######################################################################
#
#                 Cambridge Crystallographic Data Centre
#                                CCDC 
#
#######################################################################
#
# If this CIF has been generated from an entry in the Cambridge 
# Structural Database, then it will include bibliographic, chemical, 
# crystal, experimental, refinement or atomic coordinate data resulting 
# from the CCDC's data processing and validation procedures.
#
#######################################################################

data_TOWXEK
_chemical_formula_moiety         'C132 H108 O53 Zn17'
_symmetry_cell_setting           tetragonal
_symmetry_space_group_name_H-M   'I -4'
_symmetry_Int_Tables_number      82
_space_group_name_Hall           'I -4'
loop_
_symmetry_equiv_pos_site_id
_symmetry_equiv_pos_as_xyz
1 x,y,z
2 -x,-y,z
3 y,-x,-z
4 -y,x,-z
5 1/2+x,1/2+y,1/2+z
6 1/2-x,1/2-y,1/2+z
7 1/2+y,1/2-x,1/2-z
8 1/2-y,1/2+x,1/2-z
_cell_length_a                   32.7722(5)
_cell_length_b                   32.7722(5)
_cell_length_c                   8.1576(3)
_cell_angle_alpha                90
_cell_angle_beta                 90
_cell_angle_gamma                90
_cell_volume                     8761.4
loop_
_atom_site_label
_atom_site_type_symbol
_atom_site_fract_x
_atom_site_fract_y
_atom_site_fract_z
C1 C 0.0578(2) 0.0719(2) 0.5201(9)
C2 C 0.0884(3) 0.0973(2) 0.4334(14)
H1 H 0.1147 0.0837 0.4346
H2 H 0.0803 0.1011 0.3201
C3 C 0.1153(2) 0.1652(2) 0.4359(9)
C4 C 0.1094(2) 0.2049(2) 0.4948(11)
H3 H 0.0917 0.2098 0.5815
C5 C 0.1305(2) 0.2366(3) 0.4218(11)
H4 H 0.1265 0.2631 0.4598
C6 C 0.1570(2) 0.2301(2) 0.2950(11)
C7 C 0.1632(2) 0.1911(2) 0.2386(9)
H5 H 0.1811 0.1867 0.1519
C8 C 0.1427(2) 0.1576(2) 0.3106(10)
H6 H 0.1475 0.1311 0.2745
C9 C 0.1777(2) 0.2655(2) 0.2103(11)
C10 C 0.2123(2) 0.2837(3) 0.2822(11)
C11 C 0.2284(2) 0.3190(2) 0.2077(12)
C12 C 0.2118(3) 0.3367(2) 0.0704(11)
C13 C 0.1756(2) 0.3190(2) 0.0045(13)
C14 C 0.1602(2) 0.2827(3) 0.0706(11)
C15 C 0.2630(2) 0.3414(2) 0.2914(11)
C16 C 0.2553(2) 0.3680(2) 0.4202(12)
H7 H 0.2289 0.3702 0.4614
C17 C 0.2861(2) 0.3912(3) 0.4881(11)
H8 H 0.2804 0.4095 0.5722
C18 C 0.3261(2) 0.3871(2) 0.4295(9)
C19 C 0.3344(2) 0.3594(2) 0.3058(11)
H9 H 0.3610 0.3559 0.2684
C20 C 0.3028(2) 0.3371(2) 0.2383(10)
H10 H 0.3084 0.3186 0.1549
C21 C 0.3947(2) 0.4115(3) 0.4387(9)
H11 H 0.3943 0.4155 0.3209
H12 H 0.4077 0.3856 0.4620
C22 C 0.4174(2) 0.4455(2) 0.5201(8)
C23 C 0.1578(7) 0.3372(7) -0.152(4)
C24 C 0.1611(7) 0.3305(10) -0.296(4)
H13 H 0.1787 0.3089 -0.3176
C25 C 0.1458(6) 0.3465(6) -0.432(4)
H14 H 0.1550 0.3394 -0.5361
C26 C 0.1145(7) 0.3751(7) -0.405(4)
C27 C 0.1068(6) 0.3845(6) -0.230(4)
H15 H 0.0877 0.4046 -0.2067
C28 C 0.1257(6) 0.3658(6) -0.099(4)
H16 H 0.1189 0.3706 0.0096
C29 C 0.1226(2) 0.2626(3) -0.0034(14)
H17 H 0.1028 0.2831 -0.0299
H18 H 0.1111 0.2438 0.0742
H19 H 0.1301 0.2482 -0.1012
C30 C 0.2334(2) 0.2641(3) 0.4227(12)
H20 H 0.2404 0.2365 0.3942
H21 H 0.2156 0.2639 0.5162
H22 H 0.2577 0.2790 0.4485
C31 C 0.2285(3) 0.3745(3) -0.0050(13)
H23 H 0.2516 0.3677 -0.0720
H24 H 0.2368 0.3930 0.0798
H25 H 0.2078 0.3871 -0.0714
C32 C 0.0750(6) 0.4430(5) -0.488(3)
H26 H 0.0625 0.4425 -0.3801
H27 H 0.0959 0.4640 -0.4889
C33 C 0.0434(6) 0.4520(7) -0.616(4)
O1 O 0.04201(15) 0.08557(15) 0.6476(6)
O2 O 0.0505(2) 0.03793(13) 0.4566(9)
O3 O 0.40121(15) 0.46701(16) 0.6282(6)
O4 O 0.45431(16) 0.44962(18) 0.4890(8)
O5 O 0.0606(4) 0.4270(4) -0.786(3)
O6 O 0.0273(4) 0.4704(4) -0.643(2)
O7 O 0.35367(16) 0.41186(15) 0.5028(7)
O8 O 0.09178(15) 0.13623(14) 0.5121(6)
O9 O 0.0950(4) 0.3990(4) -0.530(3)
O10 O 0.0000 0.0000 0.7460(7)
Zn1 Zn 0.00550(3) 0.05597(2) 0.80093(10)
Zn2 Zn -0.0000 -0.0000 0.5000
Zn3 Zn -0.0000 0.5000 -0.7500
C1A C -0.0578(2) -0.0719(2) 0.5201(9)
C2A C -0.0884(3) -0.0973(2) 0.4334(14)
H1A H -0.1147 -0.0837 0.4346
H2A H -0.0803 -0.1011 0.3201
C3A C -0.1153(2) -0.1652(2) 0.4359(9)
C4A C -0.1094(2) -0.2049(2) 0.4948(11)
H3A H -0.0917 -0.2098 0.5815
C5A C -0.1305(2) -0.2366(3) 0.4218(11)
H4A H -0.1265 -0.2631 0.4598
C6A C -0.1570(2) -0.2301(2) 0.2950(11)
C7A C -0.1632(2) -0.1911(2) 0.2386(9)
H5A H -0.1811 -0.1867 0.1519
C8A C -0.1427(2) -0.1576(2) 0.3106(10)
H6A H -0.1475 -0.1311 0.2745
C9A C -0.1777(2) -0.2655(2) 0.2103(11)
C10A C -0.2123(2) -0.2837(3) 0.2822(11)
C11A C -0.2284(2) -0.3190(2) 0.2077(12)
C12A C -0.2118(3) -0.3367(2) 0.0704(11)
C13A C -0.1756(2) -0.3190(2) 0.0045(13)
C14A C -0.1602(2) -0.2827(3) 0.0706(11)
C15A C -0.2630(2) -0.3414(2) 0.2914(11)
C16A C -0.2553(2) -0.3680(2) 0.4202(12)
H7A H -0.2289 -0.3702 0.4614
C17A C -0.2861(2) -0.3912(3) 0.4881(11)
H8A H -0.2804 -0.4095 0.5722
C18A C -0.3261(2) -0.3871(2) 0.4295(9)
C19A C -0.3344(2) -0.3594(2) 0.3058(11)
H9A H -0.3610 -0.3559 0.2684
C20A C -0.3028(2) -0.3371(2) 0.2383(10)
H10A H -0.3084 -0.3186 0.1549
C21A C -0.3947(2) -0.4115(3) 0.4387(9)
H11A H -0.3943 -0.4155 0.3209
H12A H -0.4077 -0.3856 0.4620
C22A C -0.4174(2) -0.4455(2) 0.5201(8)
C23A C -0.1578(7) -0.3372(7) -0.152(4)
C24A C -0.1611(7) -0.3305(10) -0.296(4)
H13A H -0.1787 -0.3089 -0.3176
C25A C -0.1458(6) -0.3465(6) -0.432(4)
H14A H -0.1550 -0.3394 -0.5361
C26A C -0.1145(7) -0.3751(7) -0.405(4)
C27A C -0.1068(6) -0.3845(6) -0.230(4)
H15A H -0.0877 -0.4046 -0.2067
C28A C -0.1257(6) -0.3658(6) -0.099(4)
H16A H -0.1189 -0.3706 0.0096
C29A C -0.1226(2) -0.2626(3) -0.0034(14)
H17A H -0.1028 -0.2831 -0.0299
H18A H -0.1111 -0.2438 0.0742
H19A H -0.1301 -0.2482 -0.1012
C30A C -0.2334(2) -0.2641(3) 0.4227(12)
H20A H -0.2404 -0.2365 0.3942
H21A H -0.2156 -0.2639 0.5162
H22A H -0.2577 -0.2790 0.4485
C31A C -0.2285(3) -0.3745(3) -0.0050(13)
H23A H -0.2516 -0.3677 -0.0720
H24A H -0.2368 -0.3930 0.0798
H25A H -0.2078 -0.3871 -0.0714
C32A C -0.0750(6) -0.4430(5) -0.488(3)
H26A H -0.0625 -0.4425 -0.3801
H27A H -0.0959 -0.4640 -0.4889
C33A C -0.0434(6) -0.4520(7) -0.616(4)
O1A O -0.04201(15) -0.08557(15) 0.6476(6)
O2A O -0.0505(2) -0.03793(13) 0.4566(9)
O3A O -0.40121(15) -0.46701(16) 0.6282(6)
O4A O -0.45431(16) -0.44962(18) 0.4890(8)
O5A O -0.0606(4) -0.4270(4) -0.786(3)
O6A O -0.0273(4) -0.4704(4) -0.643(2)
O7A O -0.35367(16) -0.41186(15) 0.5028(7)
O8A O -0.09178(15) -0.13623(14) 0.5121(6)
O9A O -0.0950(4) -0.3990(4) -0.530(3)
Zn1A Zn -0.00550(3) -0.05597(2) 0.80093(10)
C1B C 0.0719(2) -0.0578(2) 0.4799(9)
C2B C 0.0973(2) -0.0884(3) 0.5666(14)
H1B H 0.0837 -0.1147 0.5654
H2B H 0.1011 -0.0803 0.6799
C3B C 0.1652(2) -0.1153(2) 0.5641(9)
C4B C 0.2049(2) -0.1094(2) 0.5052(11)
H3B H 0.2098 -0.0917 0.4185
C5B C 0.2366(3) -0.1305(2) 0.5782(11)
H4B H 0.2631 -0.1265 0.5402
C6B C 0.2301(2) -0.1570(2) 0.7050(11)
C7B C 0.1911(2) -0.1632(2) 0.7614(9)
H5B H 0.1867 -0.1811 0.8481
C8B C 0.1576(2) -0.1427(2) 0.6894(10)
H6B H 0.1311 -0.1475 0.7255
C9B C 0.2655(2) -0.1777(2) 0.7897(11)
C10B C 0.2837(3) -0.2123(2) 0.7178(11)
C11B C 0.3190(2) -0.2284(2) 0.7923(12)
C12B C 0.3367(2) -0.2118(3) 0.9296(11)
C13B C 0.3190(2) -0.1756(2) 0.9955(13)
C14B C 0.2827(3) -0.1602(2) 0.9294(11)
C15B C 0.3414(2) -0.2630(2) 0.7086(11)
C16B C 0.3680(2) -0.2553(2) 0.5798(12)
H7B H 0.3702 -0.2289 0.5386
C17B C 0.3912(3) -0.2861(2) 0.5119(11)
H8B H 0.4095 -0.2804 0.4278
C18B C 0.3871(2) -0.3261(2) 0.5705(9)
C19B C 0.3594(2) -0.3344(2) 0.6942(11)
H9B H 0.3559 -0.3610 0.7316
C20B C 0.3371(2) -0.3028(2) 0.7617(10)
H10B H 0.3186 -0.3084 0.8451
C21B C 0.4115(3) -0.3947(2) 0.5613(9)
H11B H 0.4155 -0.3943 0.6791
H12B H 0.3856 -0.4077 0.5380
C22B C 0.4455(2) -0.4174(2) 0.4799(8)
C23B C 0.3372(7) -0.1578(7) 1.152(4)
C24B C 0.3305(10) -0.1611(7) 1.296(4)
H13B H 0.3089 -0.1787 1.3176
C25B C 0.3465(6) -0.1458(6) 1.432(4)
H14B H 0.3394 -0.1550 1.5361
C26B C 0.3751(7) -0.1145(7) 1.405(4)
C27B C 0.3845(6) -0.1068(6) 1.230(4)
H15B H 0.4046 -0.0877 1.2067
C28B C 0.3658(6) -0.1257(6) 1.099(4)
H16B H 0.3706 -0.1189 0.9904
C29B C 0.2626(3) -0.1226(2) 1.0034(14)
H17B H 0.2831 -0.1028 1.0299
H18B H 0.2438 -0.1111 0.9258
H19B H 0.2482 -0.1301 1.1012
C30B C 0.2641(3) -0.2334(2) 0.5773(12)
H20B H 0.2365 -0.2404 0.6058
H21B H 0.2639 -0.2156 0.4838
H22B H 0.2790 -0.2577 0.5515
C31B C 0.3745(3) -0.2285(3) 1.0050(13)
H23B H 0.3677 -0.2516 1.0720
H24B H 0.3930 -0.2368 0.9202
H25B H 0.3871 -0.2078 1.0714
C32B C 0.4430(5) -0.0750(6) 1.488(3)
H26B H 0.4425 -0.0625 1.3801
H27B H 0.4640 -0.0959 1.4889
C33B C 0.4520(7) -0.0434(6) 1.616(4)
O1B O 0.08557(15) -0.04201(15) 0.3524(6)
O2B O 0.03793(13) -0.0505(2) 0.5434(9)
O3B O 0.46701(16) -0.40121(15) 0.3718(6)
O4B O 0.44962(18) -0.45431(16) 0.5110(8)
O5B O 0.4270(4) -0.0606(4) 1.786(3)
O6B O 0.4704(4) -0.0273(4) 1.643(2)
O7B O 0.41186(15) -0.35367(16) 0.4972(7)
O8B O 0.13623(14) -0.09178(15) 0.4879(6)
O9B O 0.3990(4) -0.0950(4) 1.530(3)
O10B O 0.0000 0.0000 0.2540(7)
Zn1B Zn 0.05597(2) -0.00550(3) 0.19907(10)
C1C C -0.0719(2) 0.0578(2) 0.4799(9)
C2C C -0.0973(2) 0.0884(3) 0.5666(14)
H1C H -0.0837 0.1147 0.5654
H2C H -0.1011 0.0803 0.6799
C3C C -0.1652(2) 0.1153(2) 0.5641(9)
C4C C -0.2049(2) 0.1094(2) 0.5052(11)
H3C H -0.2098 0.0917 0.4185
C5C C -0.2366(3) 0.1305(2) 0.5782(11)
H4C H -0.2631 0.1265 0.5402
C6C C -0.2301(2) 0.1570(2) 0.7050(11)
C7C C -0.1911(2) 0.1632(2) 0.7614(9)
H5C H -0.1867 0.1811 0.8481
C8C C -0.1576(2) 0.1427(2) 0.6894(10)
H6C H -0.1311 0.1475 0.7255
C9C C -0.2655(2) 0.1777(2) 0.7897(11)
C10C C -0.2837(3) 0.2123(2) 0.7178(11)
C11C C -0.3190(2) 0.2284(2) 0.7923(12)
C12C C -0.3367(2) 0.2118(3) 0.9296(11)
C13C C -0.3190(2) 0.1756(2) 0.9955(13)
C14C C -0.2827(3) 0.1602(2) 0.9294(11)
C15C C -0.3414(2) 0.2630(2) 0.7086(11)
C16C C -0.3680(2) 0.2553(2) 0.5798(12)
H7C H -0.3702 0.2289 0.5386
C17C C -0.3912(3) 0.2861(2) 0.5119(11)
H8C H -0.4095 0.2804 0.4278
C18C C -0.3871(2) 0.3261(2) 0.5705(9)
C19C C -0.3594(2) 0.3344(2) 0.6942(11)
H9C H -0.3559 0.3610 0.7316
C20C C -0.3371(2) 0.3028(2) 0.7617(10)
H10C H -0.3186 0.3084 0.8451
C21C C -0.4115(3) 0.3947(2) 0.5613(9)
H11C H -0.4155 0.3943 0.6791
H12C H -0.3856 0.4077 0.5380
C22C C -0.4455(2) 0.4174(2) 0.4799(8)
C23C C -0.3372(7) 0.1578(7) 1.152(4)
C24C C -0.3305(10) 0.1611(7) 1.296(4)
H13C H -0.3089 0.1787 1.3176
C25C C -0.3465(6) 0.1458(6) 1.432(4)
H14C H -0.3394 0.1550 1.5361
C26C C -0.3751(7) 0.1145(7) 1.405(4)
C27C C -0.3845(6) 0.1068(6) 1.230(4)
H15C H -0.4046 0.0877 1.2067
C28C C -0.3658(6) 0.1257(6) 1.099(4)
H16C H -0.3706 0.1189 0.9904
C29C C -0.2626(3) 0.1226(2) 1.0034(14)
H17C H -0.2831 0.1028 1.0299
H18C H -0.2438 0.1111 0.9258
H19C H -0.2482 0.1301 1.1012
C30C C -0.2641(3) 0.2334(2) 0.5773(12)
H20C H -0.2365 0.2404 0.6058
H21C H -0.2639 0.2156 0.4838
H22C H -0.2790 0.2577 0.5515
C31C C -0.3745(3) 0.2285(3) 1.0050(13)
H23C H -0.3677 0.2516 1.0720
H24C H -0.3930 0.2368 0.9202
H25C H -0.3871 0.2078 1.0714
C32C C -0.4430(5) 0.0750(6) 1.488(3)
H26C H -0.4425 0.0625 1.3801
H27C H -0.4640 0.0959 1.4889
C33C C -0.4520(7) 0.0434(6) 1.616(4)
O1C O -0.08557(15) 0.04201(15) 0.3524(6)
O2C O -0.03793(13) 0.0505(2) 0.5434(9)
O3C O -0.46701(16) 0.40121(15) 0.3718(6)
O4C O -0.44962(18) 0.45431(16) 0.5110(8)
O5C O -0.4270(4) 0.0606(4) 1.786(3)
O6C O -0.4704(4) 0.0273(4) 1.643(2)
O7C O -0.41186(15) 0.35367(16) 0.4972(7)
O8C O -0.13623(14) 0.09178(15) 0.4879(6)
O9C O -0.3990(4) 0.0950(4) 1.530(3)
Zn1C Zn -0.05597(2) 0.00550(3) 0.19907(10)
O3D O -0.09879(15) -0.03299(16) 0.1282(6)
O3E O 0.09879(15) 0.03299(16) 0.1282(6)
O3F O -0.03299(16) 0.09879(15) 0.8718(6)
O3G O 0.03299(16) -0.09879(15) 0.8718(6)
O4D O -0.04569(16) -0.05038(18) -0.0110(8)
O4D_2 O -0.04569(16) -0.05038(18) 0.9890(8)
O4E O 0.04569(16) 0.05038(18) -0.0110(8)
O4E_2 O 0.04569(16) 0.05038(18) 0.9890(8)
O4F O -0.05038(18) 0.04569(16) 0.0110(8)
O4F_2 O -0.05038(18) 0.04569(16) 1.0110(8)
O4G O 0.05038(18) -0.04569(16) 0.0110(8)
O4G_2 O 0.05038(18) -0.04569(16) 1.0110(8)
O6A_2 O -0.0273(4) 0.5296(4) -0.643(2)
O6F O -0.0296(4) 0.4727(4) -0.857(2)
O6G O 0.0296(4) 0.5273(4) -0.857(2)
Zn1D Zn -0.49450(3) -0.44403(2) 0.30093(10)
Zn1D_2 Zn 0.50550(3) -0.44403(2) 0.30093(10)
Zn1E Zn -0.50550(3) 0.44403(2) 0.30093(10)
Zn1E_2 Zn 0.49450(3) 0.44403(2) 0.30093(10)
Zn1F Zn -0.44403(2) -0.50550(3) 0.69907(10)
Zn1F_2 Zn -0.44403(2) 0.49450(3) 0.69907(10)
Zn1G Zn 0.44403(2) -0.49450(3) 0.69907(10)
Zn1G_2 Zn 0.44403(2) 0.50550(3) 0.69907(10)
Zn3_2 Zn 0.0000 -0.5000 -0.7500
Zn3B Zn -0.5000 0.0000 1.7500
Zn3B_2 Zn 0.5000 0.0000 1.7500
loop_
_geom_bond_atom_site_label_1
_geom_bond_atom_site_label_2
_geom_bond_site_symmetry_1
_geom_bond_site_symmetry_2
C1 C2 1_555 1_555
C2 H1 1_555 1_555
H2 C2 1_555 1_555
C3 C4 1_555 1_555
C4 H3 1_555 1_555
C5 C4 1_555 1_555
H4 C5 1_555 1_555
C6 C5 1_555 1_555
C7 C6 1_555 1_555
H5 C7 1_555 1_555
C8 C3 1_555 1_555
H6 C8 1_555 1_555
C9 C6 1_555 1_555
C10 C9 1_555 1_555
C11 C10 1_555 1_555
C12 C11 1_555 1_555
C13 C12 1_555 1_555
C14 C9 1_555 1_555
C15 C11 1_555 1_555
C16 C15 1_555 1_555
H7 C16 1_555 1_555
C17 C16 1_555 1_555
H8 C17 1_555 1_555
C18 C17 1_555 1_555
C19 C18 1_555 1_555
H9 C19 1_555 1_555
C20 C15 1_555 1_555
H10 C20 1_555 1_555
C21 H11 1_555 1_555
H12 C21 1_555 1_555
C22 C21 1_555 1_555
C23 C13 1_555 1_555
C24 C23 1_555 1_555
H13 C24 1_555 1_555
C25 C24 1_555 1_555
H14 C25 1_555 1_555
C26 C25 1_555 1_555
C27 C26 1_555 1_555
H15 C27 1_555 1_555
C28 C23 1_555 1_555
H16 C28 1_555 1_555
C29 C14 1_555 1_555
H17 C29 1_555 1_555
H18 C29 1_555 1_555
H19 C29 1_555 1_555
C30 C10 1_555 1_555
H20 C30 1_555 1_555
H21 C30 1_555 1_555
H22 C30 1_555 1_555
C31 C12 1_555 1_555
H23 C31 1_555 1_555
H24 C31 1_555 1_555
H25 C31 1_555 1_555
C32 H26 1_555 1_555
H27 C32 1_555 1_555
C33 C32 1_555 1_555
O1 C1 1_555 1_555
O2 C1 1_555 1_555
O3 C22 1_555 1_555
O4 C22 1_555 1_555
O5 C33 1_555 1_555
O6 C33 1_555 1_555
O7 C18 1_555 1_555
O8 C2 1_555 1_555
O9 C26 1_555 1_555
O10 Zn1 1_555 1_555
Zn1 O1 1_555 1_555
Zn2 O2 1_555 1_555
Zn3 O6 1_555 1_555
C1A C2A 1_555 1_555
C2A H1A 1_555 1_555
H2A C2A 1_555 1_555
C3A C4A 1_555 1_555
C4A H3A 1_555 1_555
C5A C4A 1_555 1_555
H4A C5A 1_555 1_555
C6A C5A 1_555 1_555
C7A C6A 1_555 1_555
H5A C7A 1_555 1_555
C8A C3A 1_555 1_555
H6A C8A 1_555 1_555
C9A C6A 1_555 1_555
C10A C9A 1_555 1_555
C11A C10A 1_555 1_555
C12A C11A 1_555 1_555
C13A C12A 1_555 1_555
C14A C9A 1_555 1_555
C15A C11A 1_555 1_555
C16A C15A 1_555 1_555
H7A C16A 1_555 1_555
C17A C16A 1_555 1_555
H8A C17A 1_555 1_555
C18A C17A 1_555 1_555
C19A C18A 1_555 1_555
H9A C19A 1_555 1_555
C20A C15A 1_555 1_555
H10A C20A 1_555 1_555
C21A H11A 1_555 1_555
H12A C21A 1_555 1_555
C22A C21A 1_555 1_555
C23A C13A 1_555 1_555
C24A C23A 1_555 1_555
H13A C24A 1_555 1_555
C25A C24A 1_555 1_555
H14A C25A 1_555 1_555
C26A C25A 1_555 1_555
C27A C26A 1_555 1_555
H15A C27A 1_555 1_555
C28A C23A 1_555 1_555
H16A C28A 1_555 1_555
C29A C14A 1_555 1_555
H17A C29A 1_555 1_555
H18A C29A 1_555 1_555
H19A C29A 1_555 1_555
C30A C10A 1_555 1_555
H20A C30A 1_555 1_555
H21A C30A 1_555 1_555
H22A C30A 1_555 1_555
C31A C12A 1_555 1_555
H23A C31A 1_555 1_555
H24A C31A 1_555 1_555
H25A C31A 1_555 1_555
C32A H26A 1_555 1_555
H27A C32A 1_555 1_555
C33A C32A 1_555 1_555
O1A C1A 1_555 1_555
O2A Zn2 1_555 1_555
O3A C22A 1_555 1_555
O4A C22A 1_555 1_555
O5A C33A 1_555 1_555
O6A C33A 1_555 1_555
O7A C18A 1_555 1_555
O8A C2A 1_555 1_555
O9A C26A 1_555 1_555
Zn1A O10 1_555 1_555
C1B C2B 1_555 1_555
C2B H1B 1_555 1_555
H2B C2B 1_555 1_555
C3B C4B 1_555 1_555
C4B H3B 1_555 1_555
C5B C4B 1_555 1_555
H4B C5B 1_555 1_555
C6B C5B 1_555 1_555
C7B C6B 1_555 1_555
H5B C7B 1_555 1_555
C8B C3B 1_555 1_555
H6B C8B 1_555 1_555
C9B C6B 1_555 1_555
C10B C9B 1_555 1_555
C11B C10B 1_555 1_555
C12B C11B 1_555 1_555
C13B C12B 1_555 1_555
C14B C9B 1_555 1_555
C15B C11B 1_555 1_555
C16B C15B 1_555 1_555
H7B C16B 1_555 1_555
C17B C16B 1_555 1_555
H8B C17B 1_555 1_555
C18B C17B 1_555 1_555
C19B C18B 1_555 1_555
H9B C19B 1_555 1_555
C20B C15B 1_555 1_555
H10B C20B 1_555 1_555
C21B H11B 1_555 1_555
H12B C21B 1_555 1_555
C22B C21B 1_555 1_555
C23B C13B 1_555 1_555
C24B C23B 1_555 1_555
H13B C24B 1_555 1_555
C25B C24B 1_555 1_555
H14B C25B 1_555 1_555
C26B C25B 1_555 1_555
C27B C26B 1_555 1_555
H15B C27B 1_555 1_555
C28B C23B 1_555 1_555
H16B C28B 1_555 1_555
C29B C14B 1_555 1_555
H17B C29B 1_555 1_555
H18B C29B 1_555 1_555
H19B C29B 1_555 1_555
C30B C10B 1_555 1_555
H20B C30B 1_555 1_555
H21B C30B 1_555 1_555
H22B C30B 1_555 1_555
C31B C12B 1_555 1_555
H23B C31B 1_555 1_555
H24B C31B 1_555 1_555
H25B C31B 1_555 1_555
C32B H26B 1_555 1_555
H27B C32B 1_555 1_555
C33B C32B 1_555 1_555
O1B C1B 1_555 1_555
O2B Zn2 1_555 1_555
O3B C22B 1_555 1_555
O4B C22B 1_555 1_555
O5B C33B 1_555 1_555
O6B C33B 1_555 1_555
O7B C18B 1_555 1_555
O8B C2B 1_555 1_555
O9B C26B 1_555 1_555
O10B Zn2 1_555 1_555
Zn1B O2 1_555 1_555
C1C C2C 1_555 1_555
C2C H1C 1_555 1_555
H2C C2C 1_555 1_555
C3C C4C 1_555 1_555
C4C H3C 1_555 1_555
C5C C4C 1_555 1_555
H4C C5C 1_555 1_555
C6C C5C 1_555 1_555
C7C C6C 1_555 1_555
H5C C7C 1_555 1_555
C8C C3C 1_555 1_555
H6C C8C 1_555 1_555
C9C C6C 1_555 1_555
C10C C9C 1_555 1_555
C11C C10C 1_555 1_555
C12C C11C 1_555 1_555
C13C C12C 1_555 1_555
C14C C9C 1_555 1_555
C15C C11C 1_555 1_555
C16C C15C 1_555 1_555
H7C C16C 1_555 1_555
C17C C16C 1_555 1_555
H8C C17C 1_555 1_555
C18C C17C 1_555 1_555
C19C C18C 1_555 1_555
H9C C19C 1_555 1_555
C20C C15C 1_555 1_555
H10C C20C 1_555 1_555
C21C H11C 1_555 1_555
H12C C21C 1_555 1_555
C22C C21C 1_555 1_555
C23C C13C 1_555 1_555
C24C C23C 1_555 1_555
H13C C24C 1_555 1_555
C25C C24C 1_555 1_555
H14C C25C 1_555 1_555
C26C C25C 1_555 1_555
C27C C26C 1_555 1_555
H15C C27C 1_555 1_555
C28C C23C 1_555 1_555
H16C C28C 1_555 1_555
C29C C14C 1_555 1_555
H17C C29C 1_555 1_555
H18C C29C 1_555 1_555
H19C C29C 1_555 1_555
C30C C10C 1_555 1_555
H20C C30C 1_555 1_555
H21C C30C 1_555 1_555
H22C C30C 1_555 1_555
C31C C12C 1_555 1_555
H23C C31C 1_555 1_555
H24C C31C 1_555 1_555
H25C C31C 1_555 1_555
C32C H26C 1_555 1_555
H27C C32C 1_555 1_555
C33C C32C 1_555 1_555
O1C C1C 1_555 1_555
O2C Zn1 1_555 1_555
O3C C22C 1_555 1_555
O4C C22C 1_555 1_555
O5C C33C 1_555 1_555
O6C C33C 1_555 1_555
O7C C18C 1_555 1_555
O8C C2C 1_555 1_555
O9C C26C 1_555 1_555
Zn1C O2A 1_555 1_555
O3D Zn1C 1_555 1_555
O3E Zn1B 1_555 1_555
O3F Zn1 1_555 1_555
O3G Zn1A 1_555 1_555
O4D Zn1C 1_555 1_555
O4D_2 Zn1A 1_555 1_555
O4E Zn1B 1_555 1_555
O4E_2 Zn1 1_555 1_555
O4F Zn1C 1_555 1_555
O4F_2 Zn1 1_555 1_555
O4G Zn1B 1_555 1_555
O4G_2 Zn1A 1_555 1_555
O6A_2 Zn3 1_555 1_555
O6F Zn3 1_555 1_555
O6G Zn3 1_555 1_555
Zn1D O4A 1_555 1_555
Zn1D_2 O3B 1_555 1_555
Zn1E O3C 1_555 1_555
Zn1E_2 O4 1_555 1_555
Zn1F O3A 1_555 1_555
Zn1F_2 O4C 1_555 1_555
Zn1G O4B 1_555 1_555
Zn1G_2 O3 1_555 1_555
Zn3_2 O6A 1_555 1_555
Zn3B O6C 1_555 1_555
Zn3B_2 O6B 1_555 1_555
C3 O8 1_555 1_555
C7 C8 1_555 1_555
C13 C14 1_555 1_555
C19 C20 1_555 1_555
C21 O7 1_555 1_555
C27 C28 1_555 1_555
C32 O9 1_555 1_555
O4 Zn1G_2 1_555 1_555
O10 Zn2 1_555 1_555
Zn2 O2C 1_555 1_555
C1A O2A 1_555 1_555
C3A O8A 1_555 1_555
C7A C8A 1_555 1_555
C13A C14A 1_555 1_555
C19A C20A 1_555 1_555
C21A O7A 1_555 1_555
C27A C28A 1_555 1_555
C32A O9A 1_555 1_555
O1A Zn1A 1_555 1_555
O4A Zn1F 1_555 1_555
Zn1A O2B 1_555 1_555
C1B O2B 1_555 1_555
C3B O8B 1_555 1_555
C7B C8B 1_555 1_555
C13B C14B 1_555 1_555
C19B C20B 1_555 1_555
C21B O7B 1_555 1_555
C27B C28B 1_555 1_555
C32B O9B 1_555 1_555
O1B Zn1B 1_555 1_555
O4B Zn1D_2 1_555 1_555
O10B Zn1B 1_555 1_555
O10B Zn1C 1_555 1_555
C1C O2C 1_555 1_555
C3C O8C 1_555 1_555
C7C C8C 1_555 1_555
C13C C14C 1_555 1_555
C19C C20C 1_555 1_555
C21C O7C 1_555 1_555
C27C C28C 1_555 1_555
C32C O9C 1_555 1_555
O1C Zn1C 1_555 1_555
O4C Zn1E 1_555 1_555

#END
