
#######################################################################
#
#                 Cambridge Crystallographic Data Centre
#                                CCDC 
#
#######################################################################
#
# If this CIF has been generated from an entry in the Cambridge 
# Structural Database, then it will include bibliographic, chemical, 
# crystal, experimental, refinement or atomic coordinate data resulting 
# from the CCDC's data processing and validation procedures.
#
#######################################################################

data_TOXHEV
_chemical_formula_moiety         'C133 H110 Cl2 Fe4 O49 Zn13'
_symmetry_cell_setting           tetragonal
_symmetry_space_group_name_H-M   'I -4'
_symmetry_Int_Tables_number      82
_space_group_name_Hall           'I -4'
loop_
_symmetry_equiv_pos_site_id
_symmetry_equiv_pos_as_xyz
1 x,y,z
2 -x,-y,z
3 y,-x,-z
4 -y,x,-z
5 1/2+x,1/2+y,1/2+z
6 1/2-x,1/2-y,1/2+z
7 1/2+y,1/2-x,1/2-z
8 1/2-y,1/2+x,1/2-z
_cell_length_a                   32.633(3)
_cell_length_b                   32.633(3)
_cell_length_c                   8.0355(11)
_cell_angle_alpha                90
_cell_angle_beta                 90
_cell_angle_gamma                90
_cell_volume                     8557.11
loop_
_atom_site_label
_atom_site_type_symbol
_atom_site_fract_x
_atom_site_fract_y
_atom_site_fract_z
C34 C 0.3328(8) 0.4944(8) 0.355(4)
H28 H 0.3124 0.4740 0.3267
H29 H 0.3436 0.4875 0.4640
Cl1 Cl 0.3102(4) 0.5390(4) 0.3677(18)
Cl2 Cl 0.37077(17) 0.49191(17) 0.2167(8)
Zn1 Zn 0.00437(4) 0.05791(4) 0.80094(16)
O1 O 0.0412(2) 0.0870(2) 0.6499(9)
O2 O 0.0000 0.0000 0.7553(12)
O3 O -0.0388(2) 0.0494(3) 0.5443(12)
O4 O -0.0358(2) 0.0976(2) 0.8747(10)
O5 O 0.0421(3) 0.0571(3) 0.9959(10)
C1 C 0.0572(3) 0.0720(4) 0.5221(15)
Zn2 Zn 0.0000 0.0000 0.5000
C2 C 0.0892(4) 0.0994(4) 0.4383(18)
H1 H 0.1158 0.0861 0.4427
H2 H 0.0820 0.1031 0.3221
O6 O 0.0919(2) 0.1375(2) 0.5149(10)
C3 C 0.1155(4) 0.1665(4) 0.4377(15)
C4 C 0.1083(5) 0.2062(4) 0.4843(18)
C5 C 0.1433(3) 0.1587(4) 0.3126(16)
H3 H 0.0891 0.2112 0.5675
C6 C 0.1278(4) 0.2387(4) 0.4152(16)
C7 C 0.1633(4) 0.1911(4) 0.2400(14)
H4 H 0.1484 0.1320 0.2779
H5 H 0.1224 0.2651 0.4526
C8 C 0.1554(4) 0.2325(4) 0.2913(17)
H6 H 0.1823 0.1862 0.1562
C9 C 0.1760(4) 0.2667(3) 0.1971(19)
C10 C 0.2114(4) 0.2846(4) 0.2701(15)
C11 C 0.1574(4) 0.2846(4) 0.0648(17)
C12 C 0.2267(4) 0.3218(4) 0.2040(19)
C13 C 0.2331(4) 0.2652(5) 0.410(2)
C14 C 0.1732(4) 0.3207(4) -0.006(2)
C15 C 0.1193(5) 0.2646(5) -0.012(2)
C16 C 0.2077(4) 0.3387(5) 0.067(2)
C17 C 0.2625(5) 0.3419(4) 0.287(2)
H7 H 0.2280 0.2362 0.4089
H8 H 0.2234 0.2766 0.5128
H9 H 0.2620 0.2701 0.3995
C18 C 0.1537(9) 0.3408(9) -0.151(4)
H10 H 0.1112 0.2796 -0.1096
H11 H 0.0973 0.2650 0.0674
H12 H 0.1254 0.2368 -0.0419
C19 C 0.2245(4) 0.3767(4) -0.021(3)
C20 C 0.2535(5) 0.3702(4) 0.401(2)
C21 C 0.3027(4) 0.3358(5) 0.2387(19)
C22 C 0.1602(9) 0.3335(9) -0.309(4)
C23 C 0.1273(9) 0.3707(8) -0.114(4)
H13 H 0.2529 0.3726 -0.0470
H14 H 0.2219 0.4001 0.0513
H15 H 0.2094 0.3814 -0.1213
H16 H 0.2265 0.3752 0.4318
C24 C 0.2863(4) 0.3926(4) 0.4730(17)
C25 C 0.3329(4) 0.3561(4) 0.3100(16)
H17 H 0.3085 0.3171 0.1547
H18 H 0.1794 0.3137 -0.3382
C26 C 0.1391(9) 0.3547(8) -0.436(4)
C27 C 0.0972(9) 0.3891(9) -0.227(4)
H19 H 0.1282 0.3810 -0.0061
H20 H 0.2810 0.4122 0.5544
C28 C 0.3254(3) 0.3853(4) 0.4227(16)
H21 H 0.3598 0.3499 0.2816
H22 H 0.1452 0.3508 -0.5478
C29 C 0.1073(9) 0.3826(9) -0.382(4)
H23 H 0.0740 0.4034 -0.1935
O7 O 0.3540(3) 0.4093(2) 0.5093(12)
O8 O 0.0878(6) 0.4106(6) -0.490(2)
C30 C 0.3952(4) 0.4043(5) 0.4538(17)
C31 C 0.0912(9) 0.4033(9) -0.664(4)
H24 H 0.3965 0.4047 0.3332
H25 H 0.4064 0.3785 0.4932
C32 C 0.4195(4) 0.4412(3) 0.5286(14)
H26 H 0.0819 0.3759 -0.6921
H27 H 0.1192 0.4068 -0.7013
C33 C 0.0611(10) 0.4382(9) -0.745(4)
O9 O 0.0354(6) 0.4559(6) -0.651(2)
O10 O 0.0586(6) 0.4308(5) -0.903(3)
Fe1 Fe 0.0000 0.5000 -0.7500
Zn1A Zn -0.00437(4) -0.05791(4) 0.80094(16)
C1C C -0.0720(4) 0.0572(3) 0.4779(15)
O3B O 0.0494(3) 0.0388(2) 0.4557(12)
O3C O -0.0494(3) -0.0388(2) 0.4557(12)
O3A O 0.0388(2) -0.0494(3) 0.5443(12)
O2B O 0.0000 0.0000 0.2447(12)
O1A O -0.0412(2) -0.0870(2) 0.6499(9)
O4A O 0.0358(2) -0.0976(2) 0.8747(10)
O5A O -0.0421(3) -0.0571(3) 0.9959(10)
C2C C -0.0994(4) 0.0892(4) 0.5617(18)
O1C O -0.0870(2) 0.0412(2) 0.3501(9)
Zn1B Zn 0.05791(4) -0.00437(4) 0.19906(16)
C1A C -0.0572(3) -0.0720(4) 0.5221(15)
Zn1C Zn -0.05791(4) 0.00437(4) 0.19906(16)
C1B C 0.0720(4) -0.0572(3) 0.4779(15)
H1C H -0.0861 0.1158 0.5573
H2C H -0.1031 0.0820 0.6779
O6C O -0.1375(2) 0.0919(2) 0.4851(10)
O1B O 0.0870(2) -0.0412(2) 0.3501(9)
O4B O 0.0976(2) 0.0358(2) 0.1253(10)
O5B O 0.0571(3) -0.0421(3) 0.0041(10)
C2A C -0.0892(4) -0.0994(4) 0.4383(18)
O4C O -0.0976(2) -0.0358(2) 0.1253(10)
O5C O -0.0571(3) 0.0421(3) 0.0041(10)
C2B C 0.0994(4) -0.0892(4) 0.5617(18)
C3C C -0.1665(4) 0.1155(4) 0.5623(15)
H1A H -0.1158 -0.0861 0.4427
H2A H -0.0820 -0.1031 0.3221
O6A O -0.0919(2) -0.1375(2) 0.5149(10)
H1B H 0.0861 -0.1158 0.5573
H2B H 0.1031 -0.0820 0.6779
O6B O 0.1375(2) -0.0919(2) 0.4851(10)
C4C C -0.2062(4) 0.1083(5) 0.5157(18)
C5C C -0.1587(4) 0.1433(3) 0.6874(16)
C3A C -0.1155(4) -0.1665(4) 0.4377(15)
C3B C 0.1665(4) -0.1155(4) 0.5623(15)
H3C H -0.2112 0.0891 0.4325
C6C C -0.2387(4) 0.1278(4) 0.5848(16)
C7C C -0.1911(4) 0.1633(4) 0.7600(14)
H4C H -0.1320 0.1484 0.7221
C4A C -0.1083(5) -0.2062(4) 0.4843(18)
C5A C -0.1433(3) -0.1587(4) 0.3126(16)
C4B C 0.2062(4) -0.1083(5) 0.5157(18)
C5B C 0.1587(4) -0.1433(3) 0.6874(16)
H5C H -0.2651 0.1224 0.5474
C8C C -0.2325(4) 0.1554(4) 0.7087(17)
H6C H -0.1862 0.1823 0.8438
H3A H -0.0891 -0.2112 0.5675
C6A C -0.1278(4) -0.2387(4) 0.4152(16)
C7A C -0.1633(4) -0.1911(4) 0.2400(14)
H4A H -0.1484 -0.1320 0.2779
H3B H 0.2112 -0.0891 0.4325
C6B C 0.2387(4) -0.1278(4) 0.5848(16)
C7B C 0.1911(4) -0.1633(4) 0.7600(14)
H4B H 0.1320 -0.1484 0.7221
C9C C -0.2667(3) 0.1760(4) 0.8029(19)
H5A H -0.1224 -0.2651 0.4526
C8A C -0.1554(4) -0.2325(4) 0.2913(17)
H6A H -0.1823 -0.1862 0.1562
H5B H 0.2651 -0.1224 0.5474
C8B C 0.2325(4) -0.1554(4) 0.7087(17)
H6B H 0.1862 -0.1823 0.8438
C10C C -0.2846(4) 0.2114(4) 0.7299(15)
C11C C -0.2846(4) 0.1574(4) 0.9352(17)
C9A C -0.1760(4) -0.2667(3) 0.1971(19)
C9B C 0.2667(3) -0.1760(4) 0.8029(19)
C12C C -0.3218(4) 0.2267(4) 0.7960(19)
C13C C -0.2652(5) 0.2331(4) 0.590(2)
C14C C -0.3207(4) 0.1732(4) 1.006(2)
C15C C -0.2646(5) 0.1193(5) 1.012(2)
C10A C -0.2114(4) -0.2846(4) 0.2701(15)
C11A C -0.1574(4) -0.2846(4) 0.0648(17)
C10B C 0.2846(4) -0.2114(4) 0.7299(15)
C11B C 0.2846(4) -0.1574(4) 0.9352(17)
C16C C -0.3387(5) 0.2077(4) 0.933(2)
C17C C -0.3419(4) 0.2625(5) 0.713(2)
H7C H -0.2362 0.2280 0.5911
H8C H -0.2766 0.2234 0.4872
H9C H -0.2701 0.2620 0.6005
C18C C -0.3408(9) 0.1537(9) 1.151(4)
H10C H -0.2796 0.1112 1.1096
H11C H -0.2650 0.0973 0.9326
H12C H -0.2368 0.1254 1.0419
C12A C -0.2267(4) -0.3218(4) 0.2040(19)
C13A C -0.2331(4) -0.2652(5) 0.410(2)
C14A C -0.1732(4) -0.3207(4) -0.006(2)
C15A C -0.1193(5) -0.2646(5) -0.012(2)
C12B C 0.3218(4) -0.2267(4) 0.7960(19)
C13B C 0.2652(5) -0.2331(4) 0.590(2)
C14B C 0.3207(4) -0.1732(4) 1.006(2)
C15B C 0.2646(5) -0.1193(5) 1.012(2)
C19C C -0.3767(4) 0.2245(4) 1.021(3)
C20C C -0.3702(4) 0.2535(5) 0.599(2)
C21C C -0.3358(5) 0.3027(4) 0.7613(19)
C22C C -0.3335(9) 0.1602(9) 1.309(4)
C23C C -0.3707(8) 0.1273(9) 1.114(4)
C16A C -0.2077(4) -0.3387(5) 0.067(2)
C17A C -0.2625(5) -0.3419(4) 0.287(2)
H7A H -0.2280 -0.2362 0.4089
H8A H -0.2234 -0.2766 0.5128
H9A H -0.2620 -0.2701 0.3995
C18A C -0.1537(9) -0.3408(9) -0.151(4)
H10A H -0.1112 -0.2796 -0.1096
H11A H -0.0973 -0.2650 0.0674
H12A H -0.1254 -0.2368 -0.0419
C16B C 0.3387(5) -0.2077(4) 0.933(2)
C17B C 0.3419(4) -0.2625(5) 0.713(2)
H7B H 0.2362 -0.2280 0.5911
H8B H 0.2766 -0.2234 0.4872
H9B H 0.2701 -0.2620 0.6005
C18B C 0.3408(9) -0.1537(9) 1.151(4)
H10B H 0.2796 -0.1112 1.1096
H11B H 0.2650 -0.0973 0.9326
H12B H 0.2368 -0.1254 1.0419
H13C H -0.3726 0.2529 1.0470
H14C H -0.4001 0.2219 0.9487
H15C H -0.3814 0.2094 1.1213
H16C H -0.3752 0.2265 0.5682
C24C C -0.3926(4) 0.2863(4) 0.5270(17)
C25C C -0.3561(4) 0.3329(4) 0.6900(16)
H17C H -0.3171 0.3085 0.8453
H18C H -0.3137 0.1794 1.3382
C26C C -0.3547(8) 0.1391(9) 1.436(4)
C27C C -0.3891(9) 0.0972(9) 1.227(4)
H19C H -0.3810 0.1282 1.0061
C19A C -0.2245(4) -0.3767(4) -0.021(3)
C20A C -0.2535(5) -0.3702(4) 0.401(2)
C21A C -0.3027(4) -0.3358(5) 0.2387(19)
C22A C -0.1602(9) -0.3335(9) -0.309(4)
C23A C -0.1273(9) -0.3707(8) -0.114(4)
C19B C 0.3767(4) -0.2245(4) 1.021(3)
C20B C 0.3702(4) -0.2535(5) 0.599(2)
C21B C 0.3358(5) -0.3027(4) 0.7613(19)
C22B C 0.3335(9) -0.1602(9) 1.309(4)
C23B C 0.3707(8) -0.1273(9) 1.114(4)
H20C H -0.4122 0.2810 0.4456
C28C C -0.3853(4) 0.3254(3) 0.5773(16)
H21C H -0.3499 0.3598 0.7184
H22C H -0.3508 0.1452 1.5478
C29C C -0.3826(9) 0.1073(9) 1.382(4)
H23C H -0.4034 0.0740 1.1935
H13A H -0.2529 -0.3726 -0.0470
H14A H -0.2219 -0.4001 0.0513
H15A H -0.2094 -0.3814 -0.1213
H16A H -0.2265 -0.3752 0.4318
C24A C -0.2863(4) -0.3926(4) 0.4730(17)
C25A C -0.3329(4) -0.3561(4) 0.3100(16)
H17A H -0.3085 -0.3171 0.1547
H18A H -0.1794 -0.3137 -0.3382
C26A C -0.1391(9) -0.3547(8) -0.436(4)
C27A C -0.0972(9) -0.3891(9) -0.227(4)
H19A H -0.1282 -0.3810 -0.0061
H13B H 0.3726 -0.2529 1.0470
H14B H 0.4001 -0.2219 0.9487
H15B H 0.3814 -0.2094 1.1213
H16B H 0.3752 -0.2265 0.5682
C24B C 0.3926(4) -0.2863(4) 0.5270(17)
C25B C 0.3561(4) -0.3329(4) 0.6900(16)
H17B H 0.3171 -0.3085 0.8453
H18B H 0.3137 -0.1794 1.3382
C26B C 0.3547(8) -0.1391(9) 1.436(4)
C27B C 0.3891(9) -0.0972(9) 1.227(4)
H19B H 0.3810 -0.1282 1.0061
O7C O -0.4093(2) 0.3540(3) 0.4907(12)
O8C O -0.4106(6) 0.0878(6) 1.490(2)
H20A H -0.2810 -0.4122 0.5544
C28A C -0.3254(3) -0.3853(4) 0.4227(16)
H21A H -0.3598 -0.3499 0.2816
H22A H -0.1452 -0.3508 -0.5478
C29A C -0.1073(9) -0.3826(9) -0.382(4)
H23A H -0.0740 -0.4034 -0.1935
H20B H 0.4122 -0.2810 0.4456
C28B C 0.3853(4) -0.3254(3) 0.5773(16)
H21B H 0.3499 -0.3598 0.7184
H22B H 0.3508 -0.1452 1.5478
C29B C 0.3826(9) -0.1073(9) 1.382(4)
H23B H 0.4034 -0.0740 1.1935
C30C C -0.4043(5) 0.3952(4) 0.5462(17)
C31C C -0.4033(9) 0.0912(9) 1.664(4)
O7A O -0.3540(3) -0.4093(2) 0.5093(12)
O8A O -0.0878(6) -0.4106(6) -0.490(2)
O7B O 0.4093(2) -0.3540(3) 0.4907(12)
O8B O 0.4106(6) -0.0878(6) 1.490(2)
H24C H -0.4047 0.3965 0.6668
H25C H -0.3785 0.4064 0.5068
C32C C -0.4412(3) 0.4195(4) 0.4714(14)
H26C H -0.3759 0.0819 1.6921
H27C H -0.4068 0.1192 1.7013
C33C C -0.4382(9) 0.0611(10) 1.745(4)
O4G O 0.4024(2) 0.4642(2) 0.6253(10)
O5E O 0.4579(3) 0.4429(3) 0.4959(10)
C30A C -0.3952(4) -0.4043(5) 0.4538(17)
C31A C -0.0912(9) -0.4033(9) -0.664(4)
C30B C 0.4043(5) -0.3952(4) 0.5462(17)
C31B C 0.4033(9) -0.0912(9) 1.664(4)
O4E O -0.4642(2) 0.4024(2) 0.3747(10)
O5F O -0.4429(3) 0.4579(3) 0.5041(10)
O9C O -0.4559(6) 0.0354(6) 1.651(2)
O10C O -0.4308(5) 0.0586(6) 1.903(3)
Zn1G Zn 0.44209(4) 0.50437(4) 0.69906(16)
Zn1E Zn 0.49563(4) 0.44209(4) 0.30094(16)
H24A H -0.3965 -0.4047 0.3332
H25A H -0.4064 -0.3785 0.4932
C32A C -0.4195(4) -0.4412(3) 0.5286(14)
H26A H -0.0819 -0.3759 -0.6921
H27A H -0.1192 -0.4068 -0.7013
C33A C -0.0611(10) -0.4382(9) -0.745(4)
H24B H 0.4047 -0.3965 0.6668
H25B H 0.3785 -0.4064 0.5068
C32B C 0.4412(3) -0.4195(4) 0.4714(14)
H26B H 0.3759 -0.0819 1.6921
H27B H 0.4068 -0.1192 1.7013
C33B C 0.4382(9) -0.0611(10) 1.745(4)
Zn1E_2 Zn -0.50437(4) 0.44209(4) 0.30094(16)
Zn1F Zn -0.44209(4) 0.49563(4) 0.69906(16)
Fe1B Fe -0.5000 0.0000 1.7500
O9A O -0.0354(6) 0.5441(6) -0.651(2)
O9F O -0.0441(6) 0.4646(6) -0.849(2)
O9G O 0.0441(6) 0.5354(6) -0.849(2)
O4F O -0.4024(2) -0.4642(2) 0.6253(10)
O5D O -0.4579(3) -0.4429(3) 0.4959(10)
O9A_2 O -0.0354(6) -0.4559(6) -0.651(2)
O10A O -0.0586(6) -0.4308(5) -0.903(3)
O4D O 0.4642(2) -0.4024(2) 0.3747(10)
O5G O 0.4429(3) -0.4579(3) 0.5041(10)
O9B O 0.4559(6) -0.0354(6) 1.651(2)
O10B O 0.4308(5) -0.0586(6) 1.903(3)
Zn1F_2 Zn -0.44209(4) -0.50437(4) 0.69906(16)
Zn1D Zn -0.49563(4) -0.44209(4) 0.30094(16)
Fe1_2 Fe -0.0000 -0.5000 -0.7500
Zn1D_2 Zn 0.50437(4) -0.44209(4) 0.30094(16)
Zn1G_2 Zn 0.44209(4) -0.49563(4) 0.69906(16)
Fe1B_2 Fe 0.5000 0.0000 1.7500
loop_
_geom_bond_atom_site_label_1
_geom_bond_atom_site_label_2
_geom_bond_site_symmetry_1
_geom_bond_site_symmetry_2
Zn1 O1 1_555 1_555
O1 C1 1_555 1_555
O2 Zn1 1_555 1_555
O3 Zn1 1_555 1_555
O4 Zn1 1_555 1_555
O5 Zn1 1_555 1_555
C1 C2 1_555 1_555
Zn2 O2 1_555 1_555
C2 H1 1_555 1_555
H2 C2 1_555 1_555
O6 C2 1_555 1_555
C3 O6 1_555 1_555
C4 C3 1_555 1_555
C5 C3 1_555 1_555
H3 C4 1_555 1_555
C6 C4 1_555 1_555
C7 C5 1_555 1_555
H4 C5 1_555 1_555
H5 C6 1_555 1_555
C8 C6 1_555 1_555
H6 C7 1_555 1_555
C9 C8 1_555 1_555
C10 C9 1_555 1_555
C11 C9 1_555 1_555
C12 C10 1_555 1_555
C13 C10 1_555 1_555
C14 C11 1_555 1_555
C15 C11 1_555 1_555
C16 C12 1_555 1_555
C17 C12 1_555 1_555
H7 C13 1_555 1_555
H8 C13 1_555 1_555
H9 C13 1_555 1_555
C18 C14 1_555 1_555
H10 C15 1_555 1_555
H11 C15 1_555 1_555
H12 C15 1_555 1_555
C19 C16 1_555 1_555
C20 C17 1_555 1_555
C21 C17 1_555 1_555
C22 C18 1_555 1_555
C23 C18 1_555 1_555
H13 C19 1_555 1_555
H14 C19 1_555 1_555
H15 C19 1_555 1_555
H16 C20 1_555 1_555
C24 C20 1_555 1_555
C25 C21 1_555 1_555
H17 C21 1_555 1_555
H18 C22 1_555 1_555
C26 C22 1_555 1_555
C27 C23 1_555 1_555
H19 C23 1_555 1_555
H20 C24 1_555 1_555
C28 C24 1_555 1_555
H21 C25 1_555 1_555
H22 C26 1_555 1_555
C29 C26 1_555 1_555
H23 C27 1_555 1_555
O7 C28 1_555 1_555
O8 C29 1_555 1_555
C30 O7 1_555 1_555
C31 O8 1_555 1_555
H24 C30 1_555 1_555
H25 C30 1_555 1_555
C32 C30 1_555 1_555
H26 C31 1_555 1_555
H27 C31 1_555 1_555
C33 C31 1_555 1_555
O9 C33 1_555 1_555
O10 C33 1_555 1_555
Fe1 O9 1_555 1_555
C34 H28 1_555 1_555
H29 C34 1_555 1_555
Cl1 C34 1_555 1_555
Cl2 C34 1_555 1_555
Zn1A O2 1_555 1_555
C1C O3 1_555 1_555
O3B C1 1_555 1_555
O3C Zn2 1_555 1_555
O3A Zn2 1_555 1_555
O2B Zn2 1_555 1_555
O1A Zn1A 1_555 1_555
O4A Zn1A 1_555 1_555
O5A Zn1A 1_555 1_555
C2C C1C 1_555 1_555
O1C C1C 1_555 1_555
Zn1B O3B 1_555 1_555
C1A O3C 1_555 1_555
Zn1C O3C 1_555 1_555
C1B O3A 1_555 1_555
H1C C2C 1_555 1_555
H2C C2C 1_555 1_555
O6C C2C 1_555 1_555
O1B Zn1B 1_555 1_555
O4B Zn1B 1_555 1_555
O5B Zn1B 1_555 1_555
C2A C1A 1_555 1_555
O4C Zn1C 1_555 1_555
O5C Zn1C 1_555 1_555
C2B C1B 1_555 1_555
C3C O6C 1_555 1_555
H1A C2A 1_555 1_555
H2A C2A 1_555 1_555
O6A C2A 1_555 1_555
H1B C2B 1_555 1_555
H2B C2B 1_555 1_555
O6B C2B 1_555 1_555
C4C C3C 1_555 1_555
C5C C3C 1_555 1_555
C3A O6A 1_555 1_555
C3B O6B 1_555 1_555
H3C C4C 1_555 1_555
C6C C4C 1_555 1_555
C7C C5C 1_555 1_555
H4C C5C 1_555 1_555
C4A C3A 1_555 1_555
C5A C3A 1_555 1_555
C4B C3B 1_555 1_555
C5B C3B 1_555 1_555
H5C C6C 1_555 1_555
C8C C6C 1_555 1_555
H6C C7C 1_555 1_555
H3A C4A 1_555 1_555
C6A C4A 1_555 1_555
C7A C5A 1_555 1_555
H4A C5A 1_555 1_555
H3B C4B 1_555 1_555
C6B C4B 1_555 1_555
C7B C5B 1_555 1_555
H4B C5B 1_555 1_555
C9C C8C 1_555 1_555
H5A C6A 1_555 1_555
C8A C6A 1_555 1_555
H6A C7A 1_555 1_555
H5B C6B 1_555 1_555
C8B C6B 1_555 1_555
H6B C7B 1_555 1_555
C10C C9C 1_555 1_555
C11C C9C 1_555 1_555
C9A C8A 1_555 1_555
C9B C8B 1_555 1_555
C12C C10C 1_555 1_555
C13C C10C 1_555 1_555
C14C C11C 1_555 1_555
C15C C11C 1_555 1_555
C10A C9A 1_555 1_555
C11A C9A 1_555 1_555
C10B C9B 1_555 1_555
C11B C9B 1_555 1_555
C16C C12C 1_555 1_555
C17C C12C 1_555 1_555
H7C C13C 1_555 1_555
H8C C13C 1_555 1_555
H9C C13C 1_555 1_555
C18C C14C 1_555 1_555
H10C C15C 1_555 1_555
H11C C15C 1_555 1_555
H12C C15C 1_555 1_555
C12A C10A 1_555 1_555
C13A C10A 1_555 1_555
C14A C11A 1_555 1_555
C15A C11A 1_555 1_555
C12B C10B 1_555 1_555
C13B C10B 1_555 1_555
C14B C11B 1_555 1_555
C15B C11B 1_555 1_555
C19C C16C 1_555 1_555
C20C C17C 1_555 1_555
C21C C17C 1_555 1_555
C22C C18C 1_555 1_555
C23C C18C 1_555 1_555
C16A C12A 1_555 1_555
C17A C12A 1_555 1_555
H7A C13A 1_555 1_555
H8A C13A 1_555 1_555
H9A C13A 1_555 1_555
C18A C14A 1_555 1_555
H10A C15A 1_555 1_555
H11A C15A 1_555 1_555
H12A C15A 1_555 1_555
C16B C12B 1_555 1_555
C17B C12B 1_555 1_555
H7B C13B 1_555 1_555
H8B C13B 1_555 1_555
H9B C13B 1_555 1_555
C18B C14B 1_555 1_555
H10B C15B 1_555 1_555
H11B C15B 1_555 1_555
H12B C15B 1_555 1_555
H13C C19C 1_555 1_555
H14C C19C 1_555 1_555
H15C C19C 1_555 1_555
H16C C20C 1_555 1_555
C24C C20C 1_555 1_555
C25C C21C 1_555 1_555
H17C C21C 1_555 1_555
H18C C22C 1_555 1_555
C26C C22C 1_555 1_555
C27C C23C 1_555 1_555
H19C C23C 1_555 1_555
C19A C16A 1_555 1_555
C20A C17A 1_555 1_555
C21A C17A 1_555 1_555
C22A C18A 1_555 1_555
C23A C18A 1_555 1_555
C19B C16B 1_555 1_555
C20B C17B 1_555 1_555
C21B C17B 1_555 1_555
C22B C18B 1_555 1_555
C23B C18B 1_555 1_555
H20C C24C 1_555 1_555
C28C C24C 1_555 1_555
H21C C25C 1_555 1_555
H22C C26C 1_555 1_555
C29C C26C 1_555 1_555
H23C C27C 1_555 1_555
H13A C19A 1_555 1_555
H14A C19A 1_555 1_555
H15A C19A 1_555 1_555
H16A C20A 1_555 1_555
C24A C20A 1_555 1_555
C25A C21A 1_555 1_555
H17A C21A 1_555 1_555
H18A C22A 1_555 1_555
C26A C22A 1_555 1_555
C27A C23A 1_555 1_555
H19A C23A 1_555 1_555
H13B C19B 1_555 1_555
H14B C19B 1_555 1_555
H15B C19B 1_555 1_555
H16B C20B 1_555 1_555
C24B C20B 1_555 1_555
C25B C21B 1_555 1_555
H17B C21B 1_555 1_555
H18B C22B 1_555 1_555
C26B C22B 1_555 1_555
C27B C23B 1_555 1_555
H19B C23B 1_555 1_555
O7C C28C 1_555 1_555
O8C C29C 1_555 1_555
H20A C24A 1_555 1_555
C28A C24A 1_555 1_555
H21A C25A 1_555 1_555
H22A C26A 1_555 1_555
C29A C26A 1_555 1_555
H23A C27A 1_555 1_555
H20B C24B 1_555 1_555
C28B C24B 1_555 1_555
H21B C25B 1_555 1_555
H22B C26B 1_555 1_555
C29B C26B 1_555 1_555
H23B C27B 1_555 1_555
C30C O7C 1_555 1_555
C31C O8C 1_555 1_555
O7A C28A 1_555 1_555
O8A C29A 1_555 1_555
O7B C28B 1_555 1_555
O8B C29B 1_555 1_555
H24C C30C 1_555 1_555
H25C C30C 1_555 1_555
C32C C30C 1_555 1_555
H26C C31C 1_555 1_555
H27C C31C 1_555 1_555
C33C C31C 1_555 1_555
O4G C32 1_555 1_555
O5E C32 1_555 1_555
C30A O7A 1_555 1_555
C31A O8A 1_555 1_555
C30B O7B 1_555 1_555
C31B O8B 1_555 1_555
O4E C32C 1_555 1_555
O5F C32C 1_555 1_555
O9C C33C 1_555 1_555
O10C C33C 1_555 1_555
Zn1G O4G 1_555 1_555
Zn1E O5E 1_555 1_555
H24A C30A 1_555 1_555
H25A C30A 1_555 1_555
C32A C30A 1_555 1_555
H26A C31A 1_555 1_555
H27A C31A 1_555 1_555
C33A C31A 1_555 1_555
H24B C30B 1_555 1_555
H25B C30B 1_555 1_555
C32B C30B 1_555 1_555
H26B C31B 1_555 1_555
H27B C31B 1_555 1_555
C33B C31B 1_555 1_555
Zn1E_2 O4E 1_555 1_555
Zn1F O5F 1_555 1_555
Fe1B O9C 1_555 1_555
O9A Fe1 1_555 1_555
O9F Fe1 1_555 1_555
O9G Fe1 1_555 1_555
O4F C32A 1_555 1_555
O5D C32A 1_555 1_555
O9A_2 C33A 1_555 1_555
O10A C33A 1_555 1_555
O4D C32B 1_555 1_555
O5G C32B 1_555 1_555
O9B C33B 1_555 1_555
O10B C33B 1_555 1_555
Zn1F_2 O4F 1_555 1_555
Zn1D O5D 1_555 1_555
Fe1_2 O9A_2 1_555 1_555
Zn1D_2 O4D 1_555 1_555
Zn1G_2 O5G 1_555 1_555
Fe1B_2 O9B 1_555 1_555
O3 Zn2 1_555 1_555
Zn2 O3B 1_555 1_555
C7 C8 1_555 1_555
C14 C16 1_555 1_555
C25 C28 1_555 1_555
C27 C29 1_555 1_555
Zn1A O3A 1_555 1_555
O2B Zn1B 1_555 1_555
O2B Zn1C 1_555 1_555
O1A C1A 1_555 1_555
O1C Zn1C 1_555 1_555
C1B O1B 1_555 1_555
C7C C8C 1_555 1_555
C7A C8A 1_555 1_555
C7B C8B 1_555 1_555
C14C C16C 1_555 1_555
C14A C16A 1_555 1_555
C14B C16B 1_555 1_555
C25C C28C 1_555 1_555
C27C C29C 1_555 1_555
C25A C28A 1_555 1_555
C27A C29A 1_555 1_555
C25B C28B 1_555 1_555
C27B C29B 1_555 1_555

#END
