
#######################################################################
#
#                 Cambridge Crystallographic Data Centre
#                                CCDC 
#
#######################################################################
#
# If this CIF has been generated from an entry in the Cambridge 
# Structural Database, then it will include bibliographic, chemical, 
# crystal, experimental, refinement or atomic coordinate data resulting 
# from the CCDC's data processing and validation procedures.
#
#######################################################################

data_TOXHAR
_chemical_formula_moiety         '(C36 H34 N1 O10 Zn1)n'
_symmetry_cell_setting           monoclinic
_symmetry_space_group_name_H-M   'C c'
_symmetry_Int_Tables_number      9
_space_group_name_Hall           'C -2yc'
loop_
_symmetry_equiv_pos_site_id
_symmetry_equiv_pos_as_xyz
1 x,y,z
2 x,-y,1/2+z
3 1/2+x,1/2+y,z
4 1/2+x,1/2-y,1/2+z
_cell_length_a                   21.4721(11)
_cell_length_b                   23.1401(11)
_cell_length_c                   7.5883(4)
_cell_angle_alpha                90
_cell_angle_beta                 104.011(5)
_cell_angle_gamma                90
_cell_volume                     3658.2
loop_
_atom_site_label
_atom_site_type_symbol
_atom_site_fract_x
_atom_site_fract_y
_atom_site_fract_z
Zn1 Zn 0.43495(4) 0.94190(3) 0.79842(8)
O1 O 0.4123(2) 1.0089(3) 0.6397(9)
C1 C 0.3648(4) 1.0362(4) 0.5554(10)
O2 O 0.3656(2) 1.0690(3) 0.4244(7)
C2 C 0.3026(3) 1.0300(4) 0.6135(10)
H1 H 0.2888 0.9899 0.6030
H2 H 0.3088 1.0416 0.7393
O3 O 0.2555(2) 1.0650(3) 0.5015(8)
C3 C 0.1957(4) 1.0662(4) 0.5376(11)
C4 C 0.1759(4) 1.0341(4) 0.6665(12)
H3 H 0.2038 1.0077 0.7371
O4 O -0.0692(3) 1.3755(3) 1.6293(8)
O5 O -0.0707(3) 1.2990(3) 1.3671(9)
C5 C 0.0725(3) 1.0795(3) 0.5933(10)
C6 C 0.1146(4) 1.0411(4) 0.6916(12)
H4 H 0.1020 1.0187 0.7786
O6 O -0.1696(4) 1.4012(4) 1.5023(10)
C7 C 0.1532(4) 1.1049(5) 0.4342(14)
H5 H 0.1658 1.1273 0.3470
O7 O -0.4754(4) 1.0287(4) -0.0390(13)
C8 C 0.0925(4) 1.1105(4) 0.4599(11)
H6 H 0.0638 1.1357 0.3861
O8 O -0.4760(3) 0.9339(3) -0.0653(10)
C9 C -0.1071(3) 1.0867(3) 0.5426(10)
C10 C -0.0480(3) 1.0691(3) 0.5168(10)
C11 C -0.0691(4) 1.2629(4) 1.2230(12)
C12 C -0.0545(3) 1.1465(3) 0.7968(12)
C13 C -0.1107(4) 1.1242(3) 0.6822(10)
C14 C -0.0612(5) 1.2045(4) 1.2589(12)
H7 H -0.0589 1.1900 1.3746
C15 C 0.0658(4) 1.1544(5) 0.8929(14)
H8 H 0.0945 1.1678 0.8224
H9 H 0.0864 1.1245 0.9743
H10 H 0.0547 1.1859 0.9616
C16 C 0.0054(3) 1.1305(3) 0.7670(11)
C17 C -0.1755(4) 1.1405(5) 0.7194(14)
H11 H -0.1702 1.1471 0.8471
H12 H -0.2056 1.1096 0.6809
H13 H -0.1914 1.1750 0.6536
C18 C -0.0439(4) 1.0260(4) 0.3732(11)
H14 H -0.0032 1.0297 0.3430
H15 H -0.0778 1.0330 0.2670
H16 H -0.0480 0.9877 0.4175
C19 C -0.0569(4) 1.1686(4) 1.1181(11)
H17 H -0.0524 1.1292 1.1413
C20 C -0.0587(4) 1.1875(4) 0.9451(10)
C21 C -0.1692(3) 1.0675(3) 0.4171(10)
C22 C -0.1214(5) 1.3733(5) 1.5059(12)
C23 C -0.1227(7) 1.3334(8) 1.3473(17)
H18 H -0.1607 1.3092 1.3290
H19 H -0.1266 1.3566 1.2388
C24 C -0.0664(5) 1.2458(4) 0.9146(12)
H20 H -0.0682 1.2600 0.7988
C25 C -0.0715(6) 1.2845(4) 1.0512(13)
H21 H -0.0764 1.3239 1.0275
C26 C -0.1957(3) 1.0136(4) 0.4273(10)
H22 H -0.1724 0.9864 0.5069
C27 C -0.3797(4) 0.9752(5) 0.0964(12)
H23 H -0.3781 0.9613 0.2180
H24 H -0.3564 0.9484 0.0378
C28 C -0.4509(4) 0.9813(5) -0.0159(14)
C29 C -0.2553(4) 0.9989(4) 0.3237(11)
H25 H -0.2720 0.9622 0.3325
C30 C -0.2902(3) 1.0392(4) 0.2064(10)
C31 C -0.2644(4) 1.0923(4) 0.1873(13)
H26 H -0.2873 1.1191 0.1057
C32 C -0.2040(4) 1.1052(4) 0.2910(12)
H27 H -0.1861 1.1408 0.2751
C33 C 0.0087(4) 1.0929(3) 0.6293(10)
O9 O -0.3524(3) 1.0322(3) 0.1029(8)
Zn1_2 Zn -0.56505(4) 0.94190(3) -0.20158(8)
Zn1A Zn 0.43495(4) 1.05810(3) 0.29842(8)
Zn1B Zn -0.06505(4) 1.44190(3) 1.79842(8)
O2A O 0.3656(2) 0.9310(3) 0.9244(7)
O4B O 0.4308(3) 0.8755(3) 0.6293(8)
O8_2 O 0.5240(3) 0.9339(3) 0.9347(10)
O10 O 0.2169(7) 1.2781(6) 0.503(3)
N1 N 0.2288(11) 1.2316(9) 0.260(4)
C34 C 0.2388(12) 1.2391(11) 0.431(5)
H28 H 0.2649 1.2126 0.5067
C35 C 0.2653(10) 1.1883(10) 0.186(4)
H29 H 0.2370 1.1578 0.1296
H30 H 0.2984 1.1726 0.2825
H31 H 0.2844 1.2060 0.0974
C36 C 0.1837(11) 1.2719(10) 0.152(4)
H32 H 0.1840 1.2679 0.0262
H33 H 0.1957 1.3107 0.1913
H34 H 0.1414 1.2640 0.1669
loop_
_geom_bond_atom_site_label_1
_geom_bond_atom_site_label_2
_geom_bond_site_symmetry_1
_geom_bond_site_symmetry_2
Zn1 O1 1_555 1_555
O1 C1 1_555 1_555
C1 O2 1_555 1_555
O2 Zn1A 1_555 1_555
C2 C1 1_555 1_555
H1 C2 1_555 1_555
H2 C2 1_555 1_555
O3 C2 1_555 1_555
C3 O3 1_555 1_555
C4 C3 1_555 1_555
H3 C4 1_555 1_555
O4 C22 1_555 1_555
O5 C11 1_555 1_555
C5 C6 1_555 1_555
C6 C4 1_555 1_555
H4 C6 1_555 1_555
O6 C22 1_555 1_555
C7 C3 1_555 1_555
H5 C7 1_555 1_555
O7 C28 1_555 1_555
C8 C5 1_555 1_555
H6 C8 1_555 1_555
O8 C28 1_555 1_555
C9 C10 1_555 1_555
C10 C18 1_555 1_555
C11 C14 1_555 1_555
C12 C13 1_555 1_555
C13 C9 1_555 1_555
C14 H7 1_555 1_555
C15 H8 1_555 1_555
H9 C15 1_555 1_555
H10 C15 1_555 1_555
C16 C12 1_555 1_555
C17 C13 1_555 1_555
H11 C17 1_555 1_555
H12 C17 1_555 1_555
H13 C17 1_555 1_555
C18 H14 1_555 1_555
H15 C18 1_555 1_555
H16 C18 1_555 1_555
C19 C14 1_555 1_555
H17 C19 1_555 1_555
C20 C12 1_555 1_555
C21 C9 1_555 1_555
C22 C23 1_555 1_555
C23 O5 1_555 1_555
H18 C23 1_555 1_555
H19 C23 1_555 1_555
C24 C20 1_555 1_555
H20 C24 1_555 1_555
C25 C11 1_555 1_555
H21 C25 1_555 1_555
C26 C21 1_555 1_555
H22 C26 1_555 1_555
C27 H23 1_555 1_555
H24 C27 1_555 1_555
C28 C27 1_555 1_555
C29 C26 1_555 1_555
H25 C29 1_555 1_555
C30 C29 1_555 1_555
C31 C30 1_555 1_555
H26 C31 1_555 1_555
C32 C21 1_555 1_555
H27 C32 1_555 1_555
C33 C5 1_555 1_555
O9 C27 1_555 1_555
O10 C34 1_555 1_555
N1 C34 1_555 1_555
C34 H28 1_555 1_555
C35 N1 1_555 1_555
H29 C35 1_555 1_555
H30 C35 1_555 1_555
H31 C35 1_555 1_555
C36 N1 1_555 1_555
H32 C36 1_555 1_555
H33 C36 1_555 1_555
H34 C36 1_555 1_555
Zn1_2 O8 1_555 1_555
Zn1B O4 1_555 1_555
O2A Zn1 1_555 1_555
O4B Zn1 1_555 1_555
O8_2 Zn1 1_555 1_555
C7 C8 1_555 1_555
C10 C33 1_555 1_555
C15 C16 1_555 1_555
C16 C33 1_555 1_555
C19 C20 1_555 1_555
C24 C25 1_555 1_555
C30 O9 1_555 1_555
C31 C32 1_555 1_555

#END
