
#######################################################################
#
#                 Cambridge Crystallographic Data Centre
#                                CCDC 
#
#######################################################################
#
# If this CIF has been generated from an entry in the Cambridge 
# Structural Database, then it will include bibliographic, chemical, 
# crystal, experimental, refinement or atomic coordinate data resulting 
# from the CCDC's data processing and validation procedures.
#
#######################################################################

data_COMGUH
_chemical_formula_moiety         '(C32 H26 Cd3 Na2 O25)n'
_symmetry_cell_setting           triclinic
_symmetry_space_group_name_H-M   'P -1'
_symmetry_Int_Tables_number      2
_space_group_name_Hall           '-P 1'
loop_
_symmetry_equiv_pos_site_id
_symmetry_equiv_pos_as_xyz
1 x,y,z
2 -x,-y,-z
_cell_length_a                   8.649(4)
_cell_length_b                   14.763(6)
_cell_length_c                   16.033(7)
_cell_angle_alpha                104.344(5)
_cell_angle_beta                 97.349(6)
_cell_angle_gamma                105.907(6)
_cell_volume                     1864.81
loop_
_atom_site_label
_atom_site_type_symbol
_atom_site_fract_x
_atom_site_fract_y
_atom_site_fract_z
Cd1 Cd 0.76379(12) 0.46542(7) -0.00184(6)
Cd2 Cd 0.32799(13) 0.81269(7) 0.13929(6)
Cd3 Cd 0.74416(12) 0.04198(7) 0.56738(6)
Na1 Na 0.7687(8) 0.7647(5) 0.1317(4)
Na2 Na 0.6051(7) 0.8754(4) 0.3519(3)
O1 O 0.5882(13) 0.4378(7) 0.0860(6)
O2 O 0.7309(13) 0.5951(7) 0.1229(7)
O3 O 0.4340(12) 0.6458(7) 0.1190(5)
O4 O 0.4162(12) 0.7467(7) 0.2416(6)
O5 O 0.5784(14) 0.4254(6) 0.4018(6)
O6 O 0.5249(15) 0.1089(8) 0.5139(6)
O7 O 0.7345(12) 0.1080(7) 0.4502(6)
O8 O 0.4134(11) -0.0383(6) 0.3268(6)
O9 O 0.3354(13) -0.0302(7) 0.1918(6)
O10 O 1.0207(13) 0.5194(7) 0.1031(7)
O11 O 1.1803(13) 0.4263(8) 0.0787(6)
O12 O 0.8123(12) 0.3171(6) -0.0083(6)
O13 O 0.7199(19) 0.1683(8) 0.0038(7)
O14 O 1.0804(14) 0.4077(6) 0.4014(6)
O15 O 1.1485(12) 0.0771(7) 0.3952(6)
O16 O 1.1771(11) 0.0738(6) 0.5323(6)
O17 O 0.9409(11) 0.1600(6) 0.6689(6)
O18 O 1.2142(11) 0.2131(6) 0.7078(6)
C1 C 0.6317(17) 0.5260(10) 0.1370(8)
C2 C 0.5677(16) 0.5376(8) 0.2222(8)
C3 C 0.5964(17) 0.4771(9) 0.2702(9)
H1 H 0.6480 0.4312 0.2490
C4 C 0.5483(18) 0.4840(9) 0.3518(8)
C5 C 0.4810(17) 0.5547(9) 0.3851(8)
H2 H 0.4547 0.5619 0.4403
C6 C 0.4519(18) 0.6157(10) 0.3362(9)
H3 H 0.4035 0.6628 0.3588
C7 C 0.4927(15) 0.6089(9) 0.2541(8)
C8 C 0.4430(15) 0.6709(8) 0.2007(8)
C9 C 0.6011(17) 0.1247(9) 0.4548(8)
C10 C 0.5376(14) 0.1725(9) 0.3914(8)
C11 C 0.5829(17) 0.2748(9) 0.4212(9)
H4 H 0.6494 0.3097 0.4766
C12 C 0.5260(18) 0.3243(9) 0.3656(8)
C13 C 0.4240(19) 0.2736(10) 0.2843(8)
H5 H 0.3829 0.3072 0.2496
C14 C 0.3835(17) 0.1718(10) 0.2549(9)
H6 H 0.3160 0.1372 0.1997
C15 C 0.4434(16) 0.1200(9) 0.3078(8)
C16 C 0.3934(16) 0.0093(9) 0.2741(8)
C17 C 1.0673(17) 0.4479(10) 0.1123(9)
C18 C 0.9934(16) 0.3878(9) 0.1689(8)
C19 C 1.0613(18) 0.4228(10) 0.2587(9)
H7 H 1.1436 0.4835 0.2821
C20 C 1.0050(18) 0.3661(9) 0.3138(8)
C21 C 0.8801(17) 0.2763(10) 0.2798(9)
H8 H 0.8429 0.2385 0.3161
C22 C 0.8118(18) 0.2444(11) 0.1899(9)
H9 H 0.7264 0.1851 0.1668
C23 C 0.8662(17) 0.2975(9) 0.1342(8)
C24 C 0.7911(18) 0.2574(10) 0.0379(9)
C25 C 1.1488(15) 0.1153(9) 0.4739(8)
C26 C 1.1142(15) 0.2101(9) 0.5001(8)
C27 C 1.1114(17) 0.2630(10) 0.4390(9)
H10 H 1.1332 0.2388 0.3840
C28 C 1.0772(18) 0.3494(10) 0.4592(8)
C29 C 1.0464(18) 0.3875(10) 0.5394(9)
H11 H 1.0229 0.4467 0.5522
C30 C 1.0505(17) 0.3366(9) 0.6028(8)
H12 H 1.0276 0.3616 0.6574
C31 C 1.0885(15) 0.2491(9) 0.5843(8)
C32 C 1.0866(16) 0.2030(9) 0.6560(8)
O19 O 0.0649(12) 0.7529(8) 0.1672(7)
O20 O 0.6099(13) 0.8829(8) 0.1380(7)
O21 O 0.974(2) 0.9356(16) 0.1477(17)
O22 O 0.6987(18) 0.7301(9) -0.0273(8)
O23 O 0.7907(15) 1.0084(9) 0.2948(8)
Cd1A Cd 0.23621(12) 0.53458(7) 0.00184(6)
Cd1A_2 Cd 1.23621(12) 0.53458(7) 0.00184(6)
Cd2_2 Cd 0.32799(13) -0.18731(7) 0.13929(6)
Cd2A Cd 0.67201(13) 0.18731(7) -0.13929(6)
Cd3A Cd 0.25584(12) -0.04198(7) 0.43262(6)
Cd3A_2 Cd 1.25584(12) -0.04198(7) 0.43262(6)
Na1A Na 1.2313(8) 0.2353(5) 0.8683(4)
Na1_2 Na -0.2313(8) 0.7647(5) 0.1317(4)
Na2A Na 0.3949(7) 0.1246(4) 0.6481(3)
Na2_2 Na 0.6051(7) -0.1246(4) 0.3519(3)
Na2A_2 Na 1.3949(7) 0.1246(4) 0.6481(3)
O3A O 0.5660(12) 0.3542(7) -0.1190(5)
O6A O 0.4751(15) -0.1089(8) 0.4861(6)
O6A_2 O 0.4751(15) 0.8911(8) 0.4861(6)
O8A O 0.5866(11) 0.0383(6) 0.6732(6)
O8_2 O 0.4134(11) 0.9617(6) 0.3268(6)
O9_2 O 0.3354(13) 0.9698(7) 0.1918(6)
O10A O 0.9793(13) 0.4806(7) -0.1031(7)
O11A O 0.8197(13) 0.5737(8) -0.0787(6)
O12A O 0.1877(12) 0.6829(6) 0.0083(6)
O13A O 0.2801(19) 0.8317(8) -0.0038(7)
O15A O 0.8515(12) -0.0771(7) 0.6048(6)
O16A O 0.8229(11) -0.0738(6) 0.4677(6)
O16A_2 O 0.8229(11) 0.9262(6) 0.4677(6)
O18A O 0.7858(11) 0.7869(6) 0.2922(6)
O19_2 O 1.0649(12) 0.7529(8) 0.1672(7)
O24 O 0.674(4) 0.9642(18) 0.0060(15)
O25 O 0.056(7) 0.100(4) 0.063(3)
loop_
_geom_bond_atom_site_label_1
_geom_bond_atom_site_label_2
_geom_bond_site_symmetry_1
_geom_bond_site_symmetry_2
Cd1 O1 1_555 1_555
Cd2 O4 1_555 1_555
Cd3 O6 1_555 1_555
Na1 O2 1_555 1_555
Na2 O4 1_555 1_555
O1 C1 1_555 1_555
O2 Cd1 1_555 1_555
O3 Na1 1_555 1_555
O4 C8 1_555 1_555
O5 C4 1_555 1_555
O6 C9 1_555 1_555
O7 Cd3 1_555 1_555
O8 C16 1_555 1_555
O9 C16 1_555 1_555
O10 Cd1 1_555 1_555
O11 C17 1_555 1_555
O12 Cd1 1_555 1_555
O13 C24 1_555 1_555
O14 C20 1_555 1_555
O15 C25 1_555 1_555
O16 C25 1_555 1_555
O17 Cd3 1_555 1_555
O18 C32 1_555 1_555
C1 O2 1_555 1_555
C2 C1 1_555 1_555
C3 C2 1_555 1_555
H1 C3 1_555 1_555
C4 C3 1_555 1_555
C5 C4 1_555 1_555
H2 C5 1_555 1_555
C6 C5 1_555 1_555
H3 C6 1_555 1_555
C7 C2 1_555 1_555
C8 O3 1_555 1_555
C9 O7 1_555 1_555
C10 C9 1_555 1_555
C11 C10 1_555 1_555
H4 C11 1_555 1_555
C12 O5 1_555 1_555
C13 C12 1_555 1_555
H5 C13 1_555 1_555
C14 C13 1_555 1_555
H6 C14 1_555 1_555
C15 C10 1_555 1_555
C16 C15 1_555 1_555
C17 O10 1_555 1_555
C18 C17 1_555 1_555
C19 C18 1_555 1_555
H7 C19 1_555 1_555
C20 C19 1_555 1_555
C21 C20 1_555 1_555
H8 C21 1_555 1_555
C22 C21 1_555 1_555
H9 C22 1_555 1_555
C23 C18 1_555 1_555
C24 O12 1_555 1_555
C25 C26 1_555 1_555
C26 C27 1_555 1_555
C27 H10 1_555 1_555
C28 O14 1_555 1_555
C29 C28 1_555 1_555
H11 C29 1_555 1_555
C30 C29 1_555 1_555
H12 C30 1_555 1_555
C31 C26 1_555 1_555
C32 O17 1_555 1_555
O19 Cd2 1_555 1_555
O20 Cd2 1_555 1_555
O21 Na1 1_555 1_555
O22 Na1 1_555 1_555
O23 Na2 1_555 1_555
Cd1A O3 1_555 1_555
Cd1A_2 O10 1_555 1_555
Cd2_2 O9 1_555 1_555
Cd2A O12 1_555 1_555
Cd3A O6 1_555 1_555
Cd3A_2 O15 1_555 1_555
Na1A O18 1_555 1_555
Na1_2 O19 1_555 1_555
Na2A O6 1_555 1_555
Na2_2 O8 1_555 1_555
Na2A_2 O16 1_555 1_555
O3A Cd1 1_555 1_555
O6A Cd3 1_555 1_555
O6A_2 Na2 1_555 1_555
O8A Cd3 1_555 1_555
O8_2 Na2 1_555 1_555
O9_2 Cd2 1_555 1_555
O10A Cd1 1_555 1_555
O11A Cd1 1_555 1_555
O12A Cd2 1_555 1_555
O13A Cd2 1_555 1_555
O15A Cd3 1_555 1_555
O16A Cd3 1_555 1_555
O16A_2 Na2 1_555 1_555
O18A Na1 1_555 1_555
O19_2 Na1 1_555 1_555
Na1 O20 1_555 1_555
Na2 O18A 1_555 1_555
O8 Cd3A 1_555 1_555
O11 Cd1A_2 1_555 1_555
O13 Cd2A 1_555 1_555
O16 Cd3A_2 1_555 1_555
O18 Na2A_2 1_555 1_555
C6 C7 1_555 1_555
C7 C8 1_555 1_555
C11 C12 1_555 1_555
C14 C15 1_555 1_555
C22 C23 1_555 1_555
C23 C24 1_555 1_555
C27 C28 1_555 1_555
C30 C31 1_555 1_555
C31 C32 1_555 1_555
Cd1A O12A 1_555 1_555
Cd1A_2 O10A 1_555 1_555
Cd3A O6A 1_555 1_555
Na2A O8A 1_555 1_555
Na2_2 O6A 1_555 1_555
Na2_2 O16A 1_555 1_555

#END
