
#######################################################################
#
#                 Cambridge Crystallographic Data Centre
#                                CCDC 
#
#######################################################################
#
# If this CIF has been generated from an entry in the Cambridge 
# Structural Database, then it will include bibliographic, chemical, 
# crystal, experimental, refinement or atomic coordinate data resulting 
# from the CCDC's data processing and validation procedures.
#
#######################################################################

data_ECOLOX
_chemical_formula_moiety         '(C4 H12 N1 O26 P4 U5 1-)n'
_symmetry_cell_setting           monoclinic
_symmetry_space_group_name_H-M   'I 2/m'
_symmetry_Int_Tables_number      12
_space_group_name_Hall           '-I 2y'
loop_
_symmetry_equiv_pos_site_id
_symmetry_equiv_pos_as_xyz
1 x,y,z
2 1/2+x,1/2+y,1/2+z
3 x,-y,z
4 1/2+x,1/2-y,1/2+z
5 -x,-y,-z
6 1/2-x,1/2-y,1/2-z
7 -x,y,-z
8 1/2-x,1/2+y,1/2-z
_cell_length_a                   9.4442(17)
_cell_length_b                   15.449(3)
_cell_length_c                   9.5719(17)
_cell_angle_alpha                90
_cell_angle_beta                 93.268(3)
_cell_angle_gamma                90
_cell_volume                     1394.3
loop_
_atom_site_label
_atom_site_type_symbol
_atom_site_fract_x
_atom_site_fract_y
_atom_site_fract_z
U1 U 0.45078(6) 0.22963(4) 0.19832(6)
U2 U 0.0000 0.0000 0.0000
P1 P 0.2030(4) 0.2014(4) -0.0317(4)
O1 O 0.4633(14) 0.3391(9) 0.1515(11)
O2 O 0.4325(12) 0.1204(9) 0.2355(12)
O3 O 0.3645(10) 0.2011(7) -0.0507(10)
O4 O 0.1961(12) 0.2311(10) 0.1176(12)
O5 O 0.1248(12) 0.2647(10) -0.1352(12)
O6 O -0.058(3) 0.0000 -0.173(2)
O7 O 0.1476(14) 0.1092(10) -0.0536(15)
O6D O 0.058(3) 0.0000 0.173(2)
P1B P 0.2030(4) -0.2014(4) -0.0317(4)
O3B O 0.3645(10) -0.2011(7) -0.0507(10)
O4B O 0.1961(12) -0.2311(10) 0.1176(12)
O5B O 0.1248(12) -0.2647(10) -0.1352(12)
O7B O 0.1476(14) -0.1092(10) -0.0536(15)
P1D P -0.2030(4) -0.2014(4) 0.0317(4)
O3D O -0.3645(10) -0.2011(7) 0.0507(10)
O4D O -0.1961(12) -0.2311(10) -0.1176(12)
O5D O -0.1248(12) -0.2647(10) 0.1352(12)
O7D O -0.1476(14) -0.1092(10) 0.0536(15)
P1F P -0.2030(4) 0.2014(4) 0.0317(4)
O3F O -0.3645(10) 0.2011(7) 0.0507(10)
O4F O -0.1961(12) 0.2311(10) -0.1176(12)
O5F O -0.1248(12) 0.2647(10) 0.1352(12)
O7F O -0.1476(14) 0.1092(10) 0.0536(15)
U1B U 0.45078(6) -0.22963(4) 0.19832(6)
U1D U -0.45078(6) -0.22963(4) -0.19832(6)
U1F U -0.45078(6) 0.22963(4) -0.19832(6)
O1B O 0.4633(14) -0.3391(9) 0.1515(11)
O2B O 0.4325(12) -0.1204(9) 0.2355(12)
O1D O -0.4633(14) -0.3391(9) -0.1515(11)
O2D O -0.4325(12) -0.1204(9) -0.2355(12)
O1F O -0.4633(14) 0.3391(9) -0.1515(11)
O2F O -0.4325(12) 0.1204(9) -0.2355(12)
O3F_2 O 0.6355(10) 0.2011(7) 0.0507(10)
O4E O 0.3039(12) 0.2689(10) 0.3824(12)
O5C O 0.6248(12) 0.2353(10) 0.3648(12)
U1F_2 U 0.54922(6) 0.22963(4) -0.19832(6)
U1E U 0.04922(6) 0.27037(4) 0.30168(6)
U1C U -0.04922(6) 0.27037(4) -0.30168(6)
U1D_2 U 0.54922(6) -0.22963(4) -0.19832(6)
U1G U 0.04922(6) -0.27037(4) 0.30168(6)
U1A U -0.04922(6) -0.27037(4) -0.30168(6)
U1B_2 U -0.54922(6) -0.22963(4) 0.19832(6)
U1_2 U -0.54922(6) 0.22963(4) 0.19832(6)
O3D_2 O 0.6355(10) -0.2011(7) 0.0507(10)
O4G O 0.3039(12) -0.2689(10) 0.3824(12)
O5A O 0.6248(12) -0.2353(10) 0.3648(12)
O3B_2 O -0.6355(10) -0.2011(7) -0.0507(10)
O4A O -0.3039(12) -0.2689(10) -0.3824(12)
O5G O -0.6248(12) -0.2353(10) -0.3648(12)
O3_2 O -0.6355(10) 0.2011(7) -0.0507(10)
O4C O -0.3039(12) 0.2689(10) -0.3824(12)
O5E O -0.6248(12) 0.2353(10) -0.3648(12)
N1 N 0.337(5) 0.0000 0.499(4)
C1 C 0.239(5) 0.0000 0.597(4)
H1 H 0.1780 0.0518 0.5845
C2 C 0.299(6) -0.0000 0.727(4)
H3 H 0.3733 -0.0446 0.7345
C3 C 0.242(7) 0.0000 0.385(6)
H6 H 0.2559 -0.0520 0.3271
C4 C 0.102(6) 0.0000 0.434(10)
H8 H 0.0859 -0.0539 0.4847
H1B H 0.1780 -0.0518 0.5845
H3B H 0.3733 0.0446 0.7345
H6B H 0.2559 0.0520 0.3271
H8B H 0.0859 0.0539 0.4847
loop_
_geom_bond_atom_site_label_1
_geom_bond_atom_site_label_2
_geom_bond_site_symmetry_1
_geom_bond_site_symmetry_2
U1 O1 1_555 1_555
U2 O6 1_555 1_555
P1 O3 1_555 1_555
O2 U1 1_555 1_555
O3 U1 1_555 1_555
O4 U1 1_555 1_555
O5 P1 1_555 1_555
O7 U2 1_555 1_555
N1 C1 1_555 1_555
C1 H1 1_555 1_555
C2 C1 1_555 1_555
H3 C2 1_555 1_555
C3 N1 1_555 1_555
H6 C3 1_555 1_555
C4 C3 1_555 1_555
H8 C4 1_555 1_555
H1B C1 1_555 1_555
H3B C2 1_555 1_555
H6B C3 1_555 1_555
H8B C4 1_555 1_555
O6D U2 1_555 1_555
P1B O3B 1_555 1_555
O3B U1B 1_555 1_555
O4B P1B 1_555 1_555
O5B P1B 1_555 1_555
O7B U2 1_555 1_555
P1D O3D 1_555 1_555
O3D U1D 1_555 1_555
O4D P1D 1_555 1_555
O5D P1D 1_555 1_555
O7D U2 1_555 1_555
P1F O3F 1_555 1_555
O3F U1F 1_555 1_555
O4F P1F 1_555 1_555
O5F P1F 1_555 1_555
O7F U2 1_555 1_555
U1B O4B 1_555 1_555
U1D O4D 1_555 1_555
U1F O4F 1_555 1_555
O1B U1B 1_555 1_555
O2B U1B 1_555 1_555
O1D U1D 1_555 1_555
O2D U1D 1_555 1_555
O1F U1F 1_555 1_555
O2F U1F 1_555 1_555
O3F_2 U1 1_555 1_555
O4E U1 1_555 1_555
O5C U1 1_555 1_555
U1F_2 O3 1_555 1_555
U1E O4 1_555 1_555
U1C O5 1_555 1_555
U1D_2 O3B 1_555 1_555
U1G O4B 1_555 1_555
U1A O5B 1_555 1_555
U1B_2 O3D 1_555 1_555
U1_2 O3F 1_555 1_555
O3D_2 U1B 1_555 1_555
O4G U1B 1_555 1_555
O5A U1B 1_555 1_555
O3B_2 U1D 1_555 1_555
O4A U1D 1_555 1_555
O5G U1D 1_555 1_555
O3_2 U1F 1_555 1_555
O4C U1F 1_555 1_555
O5E U1F 1_555 1_555
P1 O4 1_555 1_555
P1 O7 1_555 1_555
P1B O7B 1_555 1_555
P1D O7D 1_555 1_555
O4D U1A 1_555 1_555
O5D U1G 1_555 1_555
P1F O7F 1_555 1_555
O4F U1C 1_555 1_555
O5F U1E 1_555 1_555
O3F_2 U1F_2 1_555 1_555
O4E U1E 1_555 1_555
U1C O4C 1_555 1_555
U1D_2 O3D_2 1_555 1_555
U1G O4G 1_555 1_555
U1A O4A 1_555 1_555
U1B_2 O3B_2 1_555 1_555
U1_2 O3_2 1_555 1_555

#END
