
#######################################################################
#
#                 Cambridge Crystallographic Data Centre
#                                CCDC 
#
#######################################################################
#
# If this CIF has been generated from an entry in the Cambridge 
# Structural Database, then it will include bibliographic, chemical, 
# crystal, experimental, refinement or atomic coordinate data resulting 
# from the CCDC's data processing and validation procedures.
#
#######################################################################

data_GELJAJ
_chemical_formula_moiety         '(C14 H18 N2 O5 S1 Zn1)n'
_symmetry_cell_setting           orthorhombic
_symmetry_space_group_name_H-M   'P b c a'
_symmetry_Int_Tables_number      61
_space_group_name_Hall           '-P 2ac 2ab'
loop_
_symmetry_equiv_pos_site_id
_symmetry_equiv_pos_as_xyz
1 x,y,z
2 1/2-x,-y,1/2+z
3 -x,1/2+y,1/2-z
4 1/2+x,1/2-y,-z
5 -x,-y,-z
6 1/2+x,y,1/2-z
7 x,1/2-y,1/2+z
8 1/2-x,1/2+y,z
_cell_length_a                   9.5232(16)
_cell_length_b                   15.846(3)
_cell_length_c                   22.369(4)
_cell_angle_alpha                90
_cell_angle_beta                 90
_cell_angle_gamma                90
_cell_volume                     3375.59
loop_
_atom_site_label
_atom_site_type_symbol
_atom_site_fract_x
_atom_site_fract_y
_atom_site_fract_z
_atom_site_U_iso_or_equiv
_atom_site_thermal_displace_type
Zn1 Zn 0.19047(4) 0.68826(2) 0.486336(17) 0.0328 Uani
S1 S -0.06851(8) 0.67953(5) 0.55608(4) 0.0352 Uani
O1 O 0.0498(2) 0.73746(15) 0.54027(12) 0.0421 Uani
O2 O -0.1961(2) 0.70982(17) 0.52386(13) 0.0475 Uani
O3 O -0.0928(3) 0.6839(2) 0.61955(13) 0.0633 Uani
O4 O -0.0329(3) 0.59614(16) 0.53492(13) 0.0517 Uani
N1 N 0.3098(3) 0.60054(18) 0.52610(12) 0.0335 Uani
N2 N 0.3941(3) 0.33835(18) 0.90591(12) 0.0335 Uani
C1 C 0.2762(4) 0.5191(3) 0.5288(2) 0.0460 Uani
C2 C 0.3541(5) 0.4612(3) 0.56092(19) 0.0483 Uani
C3 C 0.4719(4) 0.4860(2) 0.59126(14) 0.0362 Uani
C4 C 0.5070(5) 0.5699(3) 0.5869(2) 0.0550 Uani
C5 C 0.4261(4) 0.6242(3) 0.55425(19) 0.0500 Uani
C6 C 0.5549(4) 0.4263(3) 0.62912(17) 0.0443 Uani
C7 C 0.4956(5) 0.4218(3) 0.69261(17) 0.0495 Uani
C8 C 0.5919(5) 0.3719(3) 0.73432(19) 0.0540 Uani
C9 C 0.5241(4) 0.3602(2) 0.79510(15) 0.0427 Uani
C10 C 0.5308(5) 0.4216(3) 0.83888(19) 0.0570 Uani
C11 C 0.4663(5) 0.4085(2) 0.89331(18) 0.0507 Uani
C12 C 0.3856(4) 0.2800(2) 0.86261(17) 0.0400 Uani
C13 C 0.4497(4) 0.2880(3) 0.80797(17) 0.0474 Uani
H4 H 0.200(4) 0.508(3) 0.5092(18) 0.0430 Uiso
H5 H 0.333(5) 0.410(3) 0.560(2) 0.0780 Uiso
H6 H 0.588(4) 0.586(3) 0.6046(19) 0.0580 Uiso
H7 H 0.443(5) 0.679(3) 0.555(2) 0.0610 Uiso
H8 H 0.556(4) 0.367(3) 0.6102(18) 0.0530 Uiso
H9 H 0.642(5) 0.448(2) 0.6333(18) 0.0470 Uiso
H10 H 0.411(5) 0.396(3) 0.687(2) 0.0630 Uiso
H11 H 0.485(5) 0.486(3) 0.710(2) 0.0820 Uiso
H12 H 0.614(6) 0.326(3) 0.714(2) 0.0840 Uiso
H13 H 0.691(4) 0.397(3) 0.7345(19) 0.0540 Uiso
H14 H 0.590(4) 0.470(3) 0.8333(17) 0.0470 Uiso
H15 H 0.477(4) 0.449(2) 0.9248(17) 0.0430 Uiso
H16 H 0.328(4) 0.232(3) 0.8734(17) 0.0460 Uiso
H17 H 0.448(4) 0.238(3) 0.7768(19) 0.0600 Uiso
Zn1C Zn -0.30953(4) 0.81174(2) 0.513664(17) 0.0328 Uani
Zn1A Zn 0.30953(4) 0.31174(2) 0.986336(17) 0.0328 Uani
O2C O 0.3039(2) 0.79018(17) 0.47614(13) 0.0475 Uani
N2A N 0.1059(3) 0.66165(18) 0.40591(12) 0.0335 Uani
O5 O 0.0852(7) 0.6294(3) 0.7089(2) 0.1323 Uani
C14 C 0.2195(9) 0.6524(10) 0.6932(6) 0.2320 Uani
H1 H 0.2850 0.6452 0.7254 0.2780 Uiso
H2 H 0.2255 0.7086 0.6774 0.2780 Uiso
H3 H 0.2483 0.6148 0.6618 0.2780 Uiso
loop_
_atom_site_aniso_label
_atom_site_aniso_U_11
_atom_site_aniso_U_22
_atom_site_aniso_U_33
_atom_site_aniso_U_23
_atom_site_aniso_U_13
_atom_site_aniso_U_12
Zn1 0.0297(2) 0.0343(2) 0.0344(2) 0.00117(16) -0.00242(15) 0.00305(16)
S1 0.0287(4) 0.0335(4) 0.0434(4) 0.0032(3) 0.0029(3) 0.0033(3)
O1 0.0325(12) 0.0407(14) 0.0532(15) -0.0066(11) 0.0080(10) -0.0032(11)
O2 0.0367(13) 0.0420(14) 0.0639(18) 0.0003(12) -0.0070(12) 0.0089(11)
O3 0.0546(17) 0.088(2) 0.0473(16) 0.0137(15) 0.0136(13) 0.0121(16)
O4 0.0447(15) 0.0334(14) 0.0770(19) -0.0005(13) -0.0020(13) 0.0056(12)
N1 0.0335(14) 0.0332(15) 0.0337(13) 0.0021(11) -0.0018(11) 0.0024(12)
N2 0.0336(14) 0.0353(15) 0.0315(14) 0.0024(12) 0.0001(11) 0.0028(11)
C1 0.039(2) 0.039(2) 0.060(2) 0.0005(18) -0.0124(17) -0.0041(16)
C2 0.052(2) 0.030(2) 0.063(3) 0.0073(18) -0.0042(19) 0.0016(17)
C3 0.0375(17) 0.042(2) 0.0291(15) 0.0035(14) 0.0085(14) 0.0092(15)
C4 0.047(2) 0.052(2) 0.066(3) 0.017(2) -0.026(2) -0.0107(19)
C5 0.054(2) 0.036(2) 0.060(2) 0.0100(18) -0.0199(19) -0.0095(18)
C6 0.044(2) 0.049(2) 0.0398(19) 0.0105(17) 0.0053(15) 0.0124(18)
C7 0.044(2) 0.064(3) 0.0406(19) 0.0168(18) 0.0067(16) 0.012(2)
C8 0.045(2) 0.074(3) 0.043(2) 0.018(2) 0.0100(17) 0.017(2)
C9 0.0371(18) 0.054(2) 0.0371(18) 0.0126(16) 0.0006(14) 0.0076(17)
C10 0.065(3) 0.050(3) 0.056(2) 0.008(2) 0.013(2) -0.017(2)
C11 0.066(3) 0.043(2) 0.043(2) -0.0022(18) 0.0062(19) -0.0113(19)
C12 0.0399(19) 0.037(2) 0.043(2) 0.0007(16) 0.0028(15) -0.0052(16)
C13 0.047(2) 0.055(2) 0.0402(19) -0.0066(18) 0.0017(16) 0.0001(18)
Zn1C 0.0297 0.0343 0.0344 0.00117 0.00242 -0.00305
Zn1A 0.0297 0.0343 0.0344 -0.00117 0.00242 0.00305
O2C 0.0367 0.042 0.0639 0.0003 0.007 -0.0089
N2A 0.0336 0.0353 0.0315 -0.0024 -0.0001 0.0028
O5 0.153(5) 0.122(4) 0.122(4) -0.031(3) -0.028(4) 0.016(3)
C14 0.073(5) 0.370(18) 0.253(14) -0.169(13) 0.031(7) -0.025(8)
loop_
_geom_bond_atom_site_label_1
_geom_bond_atom_site_label_2
_geom_bond_site_symmetry_1
_geom_bond_site_symmetry_2
Zn1 O1 1_555 1_555
S1 O1 1_555 1_555
O2 S1 1_555 1_555
O3 S1 1_555 1_555
O4 S1 1_555 1_555
N1 Zn1 1_555 1_555
N2 C11 1_555 1_555
C1 N1 1_555 1_555
C2 C1 1_555 1_555
C3 C2 1_555 1_555
C4 C3 1_555 1_555
C5 N1 1_555 1_555
C6 C3 1_555 1_555
C7 C6 1_555 1_555
C8 C7 1_555 1_555
C9 C8 1_555 1_555
C10 C9 1_555 1_555
C11 C10 1_555 1_555
C12 N2 1_555 1_555
C13 C9 1_555 1_555
O5 C14 1_555 1_555
C14 H1 1_555 1_555
H2 C14 1_555 1_555
H3 C14 1_555 1_555
H4 C1 1_555 1_555
H5 C2 1_555 1_555
H6 C4 1_555 1_555
H7 C5 1_555 1_555
H8 C6 1_555 1_555
H9 C6 1_555 1_555
H10 C7 1_555 1_555
H11 C7 1_555 1_555
H12 C8 1_555 1_555
H13 C8 1_555 1_555
H14 C10 1_555 1_555
H15 C11 1_555 1_555
H16 C12 1_555 1_555
H17 C13 1_555 1_555
Zn1C O2 1_555 1_555
Zn1A N2 1_555 1_555
O2C Zn1 1_555 1_555
N2A Zn1 1_555 1_555
C4 C5 1_555 1_555
C12 C13 1_555 1_555

#END
