
#######################################################################
#
#                 Cambridge Crystallographic Data Centre
#                                CCDC 
#
#######################################################################
#
# If this CIF has been generated from an entry in the Cambridge 
# Structural Database, then it will include bibliographic, chemical, 
# crystal, experimental, refinement or atomic coordinate data resulting 
# from the CCDC's data processing and validation procedures.
#
#######################################################################

data_YUCZOM
_chemical_formula_moiety         '(C12 H20 Fe1 N2 O9)n'
_symmetry_cell_setting           monoclinic
_symmetry_space_group_name_H-M   'C c'
_symmetry_Int_Tables_number      9
_space_group_name_Hall           'C -2yc'
loop_
_symmetry_equiv_pos_site_id
_symmetry_equiv_pos_as_xyz
1 x,y,z
2 x,-y,1/2+z
3 1/2+x,1/2+y,z
4 1/2+x,1/2-y,1/2+z
_cell_length_a                   10.5021(6)
_cell_length_b                   20.1959(11)
_cell_length_c                   8.1256(4)
_cell_angle_alpha                90
_cell_angle_beta                 102.3670(10)
_cell_angle_gamma                90
_cell_volume                     1683.44
loop_
_atom_site_label
_atom_site_type_symbol
_atom_site_fract_x
_atom_site_fract_y
_atom_site_fract_z
_atom_site_U_iso_or_equiv
_atom_site_thermal_displace_type
Fe1 Fe 0.99831(11) 0.753902(16) 0.64202(13) 0.0165 Uani
C1 C 0.7398(3) 0.72764(15) 0.4049(4) 0.0273 Uani
H1 H 0.7212 0.7713 0.4273 0.0330 Uiso
C2 C 1.0318(4) 0.76341(18) 0.2832(5) 0.0340 Uani
H2 H 0.9801 0.7256 0.2686 0.0410 Uiso
C3 C 0.7896(3) 0.85353(16) 0.6887(5) 0.0341 Uani
H3 H 0.7527 0.8158 0.7245 0.0410 Uiso
C4 C 0.7264(3) 0.91325(17) 0.6933(4) 0.0337 Uani
H4 H 0.6487 0.9149 0.7306 0.0410 Uiso
C5 C 0.7789(3) 0.97064(15) 0.6424(4) 0.0293 Uani
C6 C 0.8935(4) 0.96383(17) 0.5850(5) 0.0400 Uani
H5 H 0.9321 1.0007 0.5475 0.0480 Uiso
C7 C 0.9502(4) 0.90224(16) 0.5837(5) 0.0382 Uani
H6 H 1.0269 0.8989 0.5445 0.0460 Uiso
C8 C 0.7165(3) 1.03639(15) 0.6479(4) 0.0281 Uani
C9 C 0.5937(3) 1.04287(16) 0.6846(5) 0.0359 Uani
H7 H 0.5493 1.0055 0.7090 0.0430 Uiso
C10 C 0.5377(3) 1.10457(17) 0.6847(5) 0.0354 Uani
H8 H 0.4555 1.1076 0.7096 0.0430 Uiso
C11 C 0.7777(4) 1.09450(16) 0.6157(5) 0.0356 Uani
H9 H 0.8609 1.0932 0.5932 0.0430 Uiso
C12 C 0.7138(3) 1.15402(16) 0.6174(4) 0.0327 Uani
H10 H 0.7559 1.1923 0.5938 0.0390 Uiso
N1 N 0.5956(3) 1.16024(12) 0.6509(3) 0.0277 Uani
N2 N 0.9005(3) 0.84703(12) 0.6360(3) 0.0268 Uani
O1 O 0.8405(2) 0.70271(10) 0.4923(3) 0.0311 Uani
O2 O 0.6621(2) 0.69888(11) 0.2902(3) 0.0305 Uani
O3 O 1.0696(2) 0.78393(11) 0.4317(3) 0.0330 Uani
O4 O 1.0559(3) 0.78812(16) 0.1566(4) 0.0570 Uani
O5 O 0.9382(3) 0.73151(14) 0.8633(3) 0.0370 Uani
H11 H 0.946(5) 0.7580(16) 0.942(5) 0.0800 Uiso
H12 H 0.892(4) 0.6994(13) 0.871(5) 0.0800 Uiso
Fe1B Fe 0.49831(11) 1.253902(16) 0.64202(13) 0.0165 Uani
Fe1C Fe 0.49831(11) 0.746098(16) 0.14202(13) 0.0165 Uani
N1B N 1.0956(3) 0.66024(12) 0.6509(3) 0.0277 Uani
O2C O 1.1621(2) 0.80112(11) 0.7902(3) 0.0305 Uani
O6 O 0.7891(3) 0.63516(14) 0.9637(4) 0.0483 Uani
H13 H 0.727(3) 0.660(2) 0.963(5) 0.0800 Uiso
H14 H 0.822(5) 0.620(2) 1.057(3) 0.0800 Uiso
O7 O 0.6017(4) 0.5754(3) 0.4995(8) 0.1161 Uani
H15 H 0.644(5) 0.5542(19) 0.444(7) 0.0800 Uiso
H16 H 0.626(5) 0.6138(10) 0.518(7) 0.0800 Uiso
O8 O 0.7346(5) 0.51513(19) 0.7912(5) 0.0972 Uani
H17 H 0.692(4) 0.531(2) 0.703(3) 0.0800 Uiso
H18 H 0.761(5) 0.5426(16) 0.865(4) 0.0800 Uiso
O9 O 0.8996(3) 0.40816(15) 0.7836(4) 0.0562 Uani
H19 H 0.850(4) 0.4397(15) 0.764(6) 0.0800 Uiso
H20 H 0.885(5) 0.383(2) 0.856(5) 0.0800 Uiso
loop_
_atom_site_aniso_label
_atom_site_aniso_U_11
_atom_site_aniso_U_22
_atom_site_aniso_U_33
_atom_site_aniso_U_23
_atom_site_aniso_U_13
_atom_site_aniso_U_12
Fe1 0.0162(2) 0.01436(18) 0.0163(2) -0.00061(15) -0.00227(13) 0.00272(16)
C1 0.0252(14) 0.0238(13) 0.0303(15) 0.0005(15) -0.0001(12) -0.0001(15)
C2 0.0352(19) 0.0367(16) 0.030(2) -0.0049(15) 0.0070(15) -0.0028(15)
C3 0.037(2) 0.0232(16) 0.0437(18) 0.0034(13) 0.0122(15) 0.0014(14)
C4 0.0307(19) 0.0267(17) 0.045(2) 0.0010(13) 0.0110(14) 0.0046(13)
C5 0.028(2) 0.0250(16) 0.0321(17) -0.0016(12) 0.0001(14) 0.0044(12)
C6 0.040(2) 0.0225(17) 0.061(2) 0.0044(15) 0.0188(18) 0.0034(13)
C7 0.0352(19) 0.0268(16) 0.056(2) -0.0004(15) 0.0171(15) 0.0049(13)
C8 0.032(2) 0.0226(15) 0.0276(16) 0.0007(12) 0.0014(14) 0.0048(12)
C9 0.0319(18) 0.0238(16) 0.053(2) 0.0050(14) 0.0111(16) 0.0017(12)
C10 0.0259(18) 0.0288(16) 0.053(2) 0.0011(14) 0.0121(15) 0.0048(12)
C11 0.0274(18) 0.0280(17) 0.051(2) 0.0010(14) 0.0073(15) 0.0042(13)
C12 0.0303(18) 0.0231(16) 0.0438(19) 0.0011(13) 0.0059(15) 0.0005(12)
N1 0.0275(13) 0.0231(13) 0.0300(13) 0.0000(10) 0.0009(11) 0.0046(10)
N2 0.0266(14) 0.0217(13) 0.0295(13) -0.0010(10) 0.0005(11) 0.0040(10)
O1 0.0256(12) 0.0278(11) 0.0339(12) -0.0007(9) -0.0067(10) 0.0014(9)
O2 0.0278(11) 0.0285(12) 0.0290(12) -0.0037(9) -0.0079(10) 0.0007(9)
O3 0.0379(13) 0.0348(13) 0.0252(12) -0.0025(9) 0.0040(10) -0.0003(10)
O4 0.0724(19) 0.070(2) 0.0291(13) -0.0044(13) 0.0119(12) -0.0197(15)
O5 0.0461(16) 0.0362(13) 0.0292(13) -0.0025(11) 0.0090(11) -0.0115(12)
Fe1B 0.0162 0.01436 0.0163 -0.00061 -0.00227 0.00272
Fe1C 0.0162 0.01436 0.0163 0.00061 -0.00227 -0.00272
N1B 0.0275 0.0231 0.03 0 0.0009 0.0046
O2C 0.0278 0.0285 0.029 0.0037 -0.0079 -0.0007
O6 0.0475(15) 0.0446(15) 0.0538(17) 0.0059(12) 0.0134(12) 0.0017(11)
O7 0.089(3) 0.092(3) 0.161(6) 0.057(3) 0.013(3) -0.021(3)
O8 0.124(4) 0.068(3) 0.086(3) -0.020(2) -0.008(2) 0.017(2)
O9 0.063(2) 0.0502(18) 0.0540(18) 0.0084(13) 0.0096(15) -0.0072(14)
loop_
_geom_bond_atom_site_label_1
_geom_bond_atom_site_label_2
_geom_bond_site_symmetry_1
_geom_bond_site_symmetry_2
Fe1 N2 1_555 1_555
C1 H1 1_555 1_555
C2 H2 1_555 1_555
C3 H3 1_555 1_555
C4 C3 1_555 1_555
H4 C4 1_555 1_555
C5 C4 1_555 1_555
C6 C5 1_555 1_555
H5 C6 1_555 1_555
C7 C6 1_555 1_555
H6 C7 1_555 1_555
C8 C5 1_555 1_555
C9 C8 1_555 1_555
H7 C9 1_555 1_555
C10 C9 1_555 1_555
H8 C10 1_555 1_555
C11 C8 1_555 1_555
H9 C11 1_555 1_555
C12 C11 1_555 1_555
H10 C12 1_555 1_555
N1 C10 1_555 1_555
N2 C3 1_555 1_555
O1 Fe1 1_555 1_555
O2 C1 1_555 1_555
O3 Fe1 1_555 1_555
O4 C2 1_555 1_555
O5 Fe1 1_555 1_555
O6 H13 1_555 1_555
O7 H15 1_555 1_555
O8 H17 1_555 1_555
O9 H19 1_555 1_555
H11 O5 1_555 1_555
H12 O5 1_555 1_555
H14 O6 1_555 1_555
H16 O7 1_555 1_555
H18 O8 1_555 1_555
H20 O9 1_555 1_555
Fe1B N1 1_555 1_555
Fe1C O2 1_555 1_555
N1B Fe1 1_555 1_555
O2C Fe1 1_555 1_555
C1 O1 1_555 1_555
C2 O3 1_555 1_555
C7 N2 1_555 1_555
C12 N1 1_555 1_555

#END
