
#######################################################################
#
#                 Cambridge Crystallographic Data Centre
#                                CCDC 
#
#######################################################################
#
# If this CIF has been generated from an entry in the Cambridge 
# Structural Database, then it will include bibliographic, chemical, 
# crystal, experimental, refinement or atomic coordinate data resulting 
# from the CCDC's data processing and validation procedures.
#
#######################################################################

data_HURGOR
_chemical_formula_moiety         '(C56 H32 Co3 O16 2-)n'
_symmetry_cell_setting           orthorhombic
_symmetry_space_group_name_H-M   'P n n a'
_symmetry_Int_Tables_number      52
_space_group_name_Hall           '-P 2a 2bc'
loop_
_symmetry_equiv_pos_site_id
_symmetry_equiv_pos_as_xyz
1 x,y,z
2 x,1/2-y,1/2-z
3 1/2-x,1/2+y,1/2-z
4 1/2-x,-y,z
5 -x,-y,-z
6 -x,1/2+y,1/2+z
7 1/2+x,1/2-y,1/2+z
8 1/2+x,y,-z
_cell_length_a                   26.09860(10)
_cell_length_b                   22.3068(3)
_cell_length_c                   13.8496(3)
_cell_angle_alpha                90
_cell_angle_beta                 90
_cell_angle_gamma                90
_cell_volume                     8062.91
loop_
_atom_site_label
_atom_site_type_symbol
_atom_site_fract_x
_atom_site_fract_y
_atom_site_fract_z
Co1 Co 0.406975(19) 0.2500 0.2500
O1 O 0.40899(8) 0.32136(9) 0.35178(13)
Co2 Co 0.407571(14) 0.409833(18) 0.27397(3)
O2 O 0.34322(8) 0.38790(10) 0.20555(15)
C1 C 0.32857(12) 0.33958(16) 0.1699(2)
O3 O 0.35089(9) 0.29094(11) 0.17234(16)
C2 C 0.27812(12) 0.34045(15) 0.1163(2)
C3 C 0.25235(13) 0.39333(15) 0.0997(3)
C4 C 0.20611(13) 0.39284(17) 0.0513(3)
C5 C 0.18397(13) 0.34078(17) 0.0183(3)
C6 C 0.13338(13) 0.34065(16) -0.0312(3)
C7 C 0.11841(15) 0.3881(2) -0.0887(4)
C8 C 0.07096(15) 0.3871(2) -0.1345(3)
C9 C 0.03805(13) 0.33944(15) -0.1229(3)
C10 C -0.01376(13) 0.33985(17) -0.1719(2)
O4 O -0.02816(9) 0.38827(11) -0.20864(19)
O5 O -0.03662(10) 0.29145(12) -0.17141(17)
C11 C 0.05395(15) 0.29216(17) -0.0688(3)
C12 C 0.10027(16) 0.29327(18) -0.0219(3)
C13 C 0.21071(15) 0.28817(17) 0.0332(3)
C14 C 0.25711(15) 0.28821(17) 0.0817(3)
O6 O 0.39100(10) 0.40556(11) 0.41985(15)
C15 C 0.39654(11) 0.35015(15) 0.4256(2)
C16 C 0.39074(12) 0.31934(15) 0.5212(2)
C17 C 0.37534(16) 0.35216(18) 0.6016(2)
C18 C 0.37162(17) 0.32368(16) 0.6904(2)
C19 C 0.38350(13) 0.26461(15) 0.7011(2)
C20 C 0.39808(14) 0.23223(16) 0.6200(2)
C21 C 0.40167(13) 0.25977(15) 0.5316(2)
O7 O 0.40150(11) 0.49662(11) 0.24498(18)
C22 C 0.4370(2) 0.5247(2) 0.2846(3)
O8 O 0.47191(15) 0.50098(15) 0.3315(3)
C23 C 0.43627(17) 0.59296(17) 0.2747(3)
C24 C 0.47824(17) 0.62708(18) 0.2992(3)
C25 C 0.47825(17) 0.68727(19) 0.2883(3)
C26 C 0.43393(17) 0.71692(18) 0.2564(3)
C27 C 0.39228(19) 0.6824(2) 0.2319(4)
C28 C 0.39256(18) 0.6208(2) 0.2407(3)
H1 H 0.2664 0.4289 0.1208
H2 H 0.1887 0.4291 0.0406
H3 H 0.1403 0.4206 -0.0974
H4 H 0.0607 0.4198 -0.1743
H5 H 0.0329 0.2586 -0.0628
H6 H 0.1099 0.2610 0.0170
H7 H 0.1981 0.2514 0.0112
H8 H 0.2741 0.2520 0.0928
H9 H 0.3670 0.3944 0.5976
H10 H 0.3608 0.3454 0.7450
H11 H 0.4059 0.1910 0.6244
H12 H 0.4115 0.2370 0.4779
H13 H 0.5075 0.6077 0.3252
H14 H 0.5081 0.7096 0.3022
H15 H 0.3630 0.7013 0.2100
H16 H 0.3637 0.5981 0.2239
Co1F Co -0.093025(19) 0.2500 -0.2500
Co1_2 Co 0.406975(19) 0.2500 1.2500
Co1F_2 Co -0.093025(19) 0.2500 0.7500
O1A O 0.40899(8) 0.17864(9) 1.14822(13)
O1A_2 O 0.40899(8) 0.17864(9) 0.14822(13)
Co2A Co 0.407571(14) 0.090167(18) 1.22603(3)
Co2G Co -0.092429(14) 0.409833(18) -0.27397(3)
Co2A_2 Co 0.407571(14) 1.090167(18) 0.22603(3)
Co2A_3 Co 0.407571(14) 0.090167(18) 0.22603(3)
Co2F Co -0.092429(14) 0.090167(18) 0.77397(3)
O2A O 0.34322(8) 0.11210(10) 0.29445(15)
O2A_2 O 0.34322(8) 0.11210(10) 1.29445(15)
C1A C 0.32857(12) 0.16042(16) 0.3301(2)
O3A O 0.35089(9) 0.20906(11) 0.32766(16)
C2A C 0.27812(12) 0.15955(15) 0.3837(2)
C3A C 0.25235(13) 0.10667(15) 0.4003(3)
C4A C 0.20611(13) 0.10716(17) 0.4487(3)
C5A C 0.18397(13) 0.15922(17) 0.4817(3)
C6A C 0.13338(13) 0.15935(16) 0.5312(3)
C7A C 0.11841(15) 0.1119(2) 0.5887(4)
C8A C 0.07096(15) 0.1129(2) 0.6345(3)
C9A C 0.03805(13) 0.16056(15) 0.6229(3)
C10A C -0.01376(13) 0.16015(17) 0.6719(2)
O4A O -0.02816(9) 0.11173(11) 0.70864(19)
O4G O 0.47184(9) 0.38827(11) 0.20864(19)
O4F O 0.47184(9) 0.11173(11) 1.29136(19)
O5A O -0.03662(10) 0.20855(12) 0.67141(17)
O5F O 0.46338(10) 0.20855(12) 0.32859(17)
O5G O 0.46338(10) 0.29145(12) 0.17141(17)
C11A C 0.05395(15) 0.20784(17) 0.5688(3)
C12A C 0.10027(16) 0.20673(18) 0.5219(3)
C13A C 0.21071(15) 0.21183(17) 0.4668(3)
C14A C 0.25711(15) 0.21179(17) 0.4183(3)
O6A O 0.39100(10) 0.09444(11) 1.08015(15)
C15A C 0.39654(11) 0.14985(15) 1.0744(2)
C16A C 0.39074(12) 0.18066(15) 0.9788(2)
C17A C 0.37534(16) 0.14784(18) 0.8984(2)
C18A C 0.37162(17) 0.17632(16) 0.8096(2)
C19A C 0.38350(13) 0.23539(15) 0.7989(2)
C20A C 0.39808(14) 0.26777(16) 0.8800(2)
C21A C 0.40167(13) 0.24023(15) 0.9684(2)
O7A O 0.40150(11) 1.00338(11) 0.25502(18)
O7A_2 O 0.40150(11) 0.00338(11) 1.25502(18)
C22A C 0.4370(2) 0.9753(2) 0.2154(3)
O8A O 0.47191(15) 0.99902(15) 0.1685(3)
O8A_2 O 0.47191(15) -0.00098(15) 1.1685(3)
C23A C 0.43627(17) 0.90704(17) 0.2253(3)
C24A C 0.47824(17) 0.87292(18) 0.2008(3)
C25A C 0.47825(17) 0.81273(19) 0.2117(3)
C26A C 0.43393(17) 0.78308(18) 0.2436(3)
C27A C 0.39228(19) 0.8176(2) 0.2681(4)
C28A C 0.39256(18) 0.8792(2) 0.2593(3)
H1A H 0.2664 0.0711 0.3792
H2A H 0.1887 0.0709 0.4594
H3A H 0.1403 0.0794 0.5974
H4A H 0.0607 0.0802 0.6743
H5A H 0.0329 0.2414 0.5628
H6A H 0.1099 0.2390 0.4830
H7A H 0.1981 0.2486 0.4888
H8A H 0.2741 0.2480 0.4072
H9A H 0.3670 0.1056 0.9024
H10A H 0.3608 0.1546 0.7550
H11A H 0.4059 0.3090 0.8756
H12A H 0.4115 0.2630 1.0221
H13A H 0.5075 0.8923 0.1748
H14A H 0.5081 0.7904 0.1978
H15A H 0.3630 0.7987 0.2900
H16A H 0.3637 0.9019 0.2761
loop_
_geom_bond_atom_site_label_1
_geom_bond_atom_site_label_2
_geom_bond_site_symmetry_1
_geom_bond_site_symmetry_2
Co1 O1 1_555 1_555
O1 Co2 1_555 1_555
Co2 O2 1_555 1_555
O2 C1 1_555 1_555
C1 O3 1_555 1_555
O3 Co1 1_555 1_555
C2 C1 1_555 1_555
C3 C2 1_555 1_555
C4 C3 1_555 1_555
C5 C4 1_555 1_555
C6 C5 1_555 1_555
C7 C6 1_555 1_555
C8 C7 1_555 1_555
C9 C8 1_555 1_555
C10 C9 1_555 1_555
O4 C10 1_555 1_555
O5 C10 1_555 1_555
C11 C9 1_555 1_555
C12 C6 1_555 1_555
C13 C5 1_555 1_555
C14 C2 1_555 1_555
O6 Co2 1_555 1_555
C15 O1 1_555 1_555
C16 C15 1_555 1_555
C17 C16 1_555 1_555
C18 C17 1_555 1_555
C19 C18 1_555 1_555
C20 C19 1_555 1_555
C21 C16 1_555 1_555
O7 Co2 1_555 1_555
C22 O7 1_555 1_555
O8 Co2 1_555 1_555
C23 C22 1_555 1_555
C24 C23 1_555 1_555
C25 C24 1_555 1_555
C26 C25 1_555 1_555
C27 C26 1_555 1_555
C28 C23 1_555 1_555
H1 C3 1_555 1_555
H2 C4 1_555 1_555
H3 C7 1_555 1_555
H4 C8 1_555 1_555
H5 C11 1_555 1_555
H6 C12 1_555 1_555
H7 C13 1_555 1_555
H8 C14 1_555 1_555
H9 C17 1_555 1_555
H10 C18 1_555 1_555
H11 C20 1_555 1_555
H12 C21 1_555 1_555
H13 C24 1_555 1_555
H14 C25 1_555 1_555
H15 C27 1_555 1_555
H16 C28 1_555 1_555
Co1F O5 1_555 1_555
Co1_2 O1A 1_555 1_555
Co1F_2 O5A 1_555 1_555
O1A Co2A 1_555 1_555
O1A_2 Co1 1_555 1_555
Co2A O2A_2 1_555 1_555
Co2G O4 1_555 1_555
Co2A_2 O7A 1_555 1_555
Co2A_3 O1A_2 1_555 1_555
Co2F O4A 1_555 1_555
O2A Co2A_3 1_555 1_555
C1A O2A 1_555 1_555
O3A Co1 1_555 1_555
C2A C1A 1_555 1_555
C3A C2A 1_555 1_555
C4A C3A 1_555 1_555
C5A C4A 1_555 1_555
C6A C5A 1_555 1_555
C7A C6A 1_555 1_555
C8A C7A 1_555 1_555
C9A C8A 1_555 1_555
C10A C9A 1_555 1_555
O4A C10A 1_555 1_555
O4G Co2 1_555 1_555
O4F Co2A 1_555 1_555
O5A C10A 1_555 1_555
O5F Co1 1_555 1_555
O5G Co1 1_555 1_555
C11A C9A 1_555 1_555
C12A C6A 1_555 1_555
C13A C5A 1_555 1_555
C14A C2A 1_555 1_555
O6A Co2A 1_555 1_555
C15A O1A 1_555 1_555
C16A C15A 1_555 1_555
C17A C16A 1_555 1_555
C18A C17A 1_555 1_555
C19A C19 1_555 1_555
C20A C19A 1_555 1_555
C21A C16A 1_555 1_555
O7A C22A 1_555 1_555
O7A_2 Co2A 1_555 1_555
C22A O8A 1_555 1_555
O8A Co2A_2 1_555 1_555
O8A_2 Co2A 1_555 1_555
C23A C22A 1_555 1_555
C24A C23A 1_555 1_555
C25A C24A 1_555 1_555
C26A C26 1_555 1_555
C27A C26A 1_555 1_555
C28A C23A 1_555 1_555
H1A C3A 1_555 1_555
H2A C4A 1_555 1_555
H3A C7A 1_555 1_555
H4A C8A 1_555 1_555
H5A C11A 1_555 1_555
H6A C12A 1_555 1_555
H7A C13A 1_555 1_555
H8A C14A 1_555 1_555
H9A C17A 1_555 1_555
H10A C18A 1_555 1_555
H11A C20A 1_555 1_555
H12A C21A 1_555 1_555
H13A C24A 1_555 1_555
H14A C25A 1_555 1_555
H15A C27A 1_555 1_555
H16A C28A 1_555 1_555
C11 C12 1_555 1_555
C13 C14 1_555 1_555
O6 C15 1_555 1_555
C20 C21 1_555 1_555
C22 O8 1_555 1_555
C27 C28 1_555 1_555
C1A O3A 1_555 1_555
C11A C12A 1_555 1_555
C13A C14A 1_555 1_555
O6A C15A 1_555 1_555
C18A C19A 1_555 1_555
C20A C21A 1_555 1_555
C25A C26A 1_555 1_555
C27A C28A 1_555 1_555

#END
