
#######################################################################
#
#                 Cambridge Crystallographic Data Centre
#                                CCDC 
#
#######################################################################
#
# If this CIF has been generated from an entry in the Cambridge 
# Structural Database, then it will include bibliographic, chemical, 
# crystal, experimental, refinement or atomic coordinate data resulting 
# from the CCDC's data processing and validation procedures.
#
#######################################################################

data_NIXKEM
_chemical_formula_moiety         '(C219 H159 N6 O60 Ru1 Zn12 1+)n'
_symmetry_cell_setting           rhombohedral
_symmetry_space_group_name_H-M   'R 3 2'
_symmetry_Int_Tables_number      155
_space_group_name_Hall           'R 3 2"'
loop_
_symmetry_equiv_pos_site_id
_symmetry_equiv_pos_as_xyz
1 x,y,z
2 -y,x-y,z
3 -x+y,-x,z
4 x-y,-y,-z
5 -x,-x+y,-z
6 y,x,-z
7 2/3+x,1/3+y,1/3+z
8 2/3-y,1/3+x-y,1/3+z
9 2/3-x+y,1/3-x,1/3+z
10 2/3+x-y,1/3-y,1/3-z
11 2/3-x,1/3-x+y,1/3-z
12 2/3+y,1/3+x,1/3-z
13 1/3+x,2/3+y,2/3+z
14 1/3-y,2/3+x-y,2/3+z
15 1/3-x+y,2/3-x,2/3+z
16 1/3+x-y,2/3-y,2/3-z
17 1/3-x,2/3-x+y,2/3-z
18 1/3+y,2/3+x,2/3-z
_cell_length_a                   29.151(3)
_cell_length_b                   29.151(3)
_cell_length_c                   24.933(3)
_cell_angle_alpha                90
_cell_angle_beta                 90
_cell_angle_gamma                120
_cell_volume                     18349
loop_
_atom_site_label
_atom_site_type_symbol
_atom_site_fract_x
_atom_site_fract_y
_atom_site_fract_z
Ru1 Ru 0.3333 0.6667 0.40604(5)
N1 N 0.36563(17) 0.62838(18) 0.3634(2)
N2 N 0.30181(17) 0.59627(17) 0.4490(2)
C35 C 0.3970(2) 0.6466(2) 0.3222(3)
H20 H 0.4061 0.6807 0.3091
C36 C 0.4180(2) 0.6188(3) 0.2961(3)
H21 H 0.4401 0.6330 0.2655
C37 C 0.4054(2) 0.5699(3) 0.3167(3)
H22 H 0.4189 0.5498 0.3000
C38 C 0.3743(2) 0.5506(2) 0.3598(3)
H23 H 0.3666 0.5174 0.3741
C39 C 0.3526(2) 0.5797(2) 0.3844(3)
C40 C 0.3161(2) 0.56090(19) 0.4296(2)
C41 C 0.2954(2) 0.5108(2) 0.4537(3)
H24 H 0.3048 0.4861 0.4404
C42 C 0.2628(2) 0.4980(2) 0.4948(3)
H25 H 0.2491 0.4640 0.5106
C43 C 0.2482(2) 0.5330(3) 0.5157(3)
H26 H 0.2249 0.5242 0.5454
C44 C 0.2709(3) 0.5840(3) 0.4887(3)
H27 H 0.2621 0.6093 0.5015
N1A N 0.37162(18) 0.73725(25) 0.3634(2)
N2A N 0.40373(17) 0.70554(24) 0.4490(2)
C35A C 0.3534(2) 0.7504(3) 0.3222(3)
H20A H 0.3193 0.7254 0.3091
C36A C 0.3812(3) 0.7992(4) 0.2961(3)
H21A H 0.3670 0.8071 0.2655
C37A C 0.4301(3) 0.8355(4) 0.3167(3)
H22A H 0.4502 0.8691 0.3000
C38A C 0.4494(2) 0.8237(3) 0.3598(3)
H23A H 0.4826 0.8492 0.3741
C39A C 0.4203(2) 0.7729(3) 0.3844(3)
C40A C 0.43910(19) 0.75520(28) 0.4296(2)
C41A C 0.4892(2) 0.7846(3) 0.4537(3)
H24A H 0.5139 0.8187 0.4404
C42A C 0.5020(2) 0.7648(3) 0.4948(3)
H25A H 0.5360 0.7851 0.5106
C43A C 0.4670(3) 0.7152(4) 0.5157(3)
H26A H 0.4758 0.7007 0.5454
C44A C 0.4160(3) 0.6869(4) 0.4887(3)
H27A H 0.3907 0.6528 0.5015
N1B N 0.26275(25) 0.63437(17) 0.3634(2)
N2B N 0.29446(24) 0.69819(17) 0.4490(2)
C35B C 0.2496(3) 0.6030(2) 0.3222(3)
H20B H 0.2746 0.5939 0.3091
C36B C 0.2008(4) 0.5820(2) 0.2961(3)
H21B H 0.1929 0.5599 0.2655
C37B C 0.1645(4) 0.5946(2) 0.3167(3)
H22B H 0.1309 0.5811 0.3000
C38B C 0.1763(3) 0.6257(2) 0.3598(3)
H23B H 0.1508 0.6334 0.3741
C39B C 0.2271(3) 0.6474(2) 0.3844(3)
C40B C 0.24480(28) 0.6839(2) 0.4296(2)
C41B C 0.2154(3) 0.7046(2) 0.4537(3)
H24B H 0.1813 0.6952 0.4404
C42B C 0.2352(3) 0.7372(2) 0.4948(3)
H25B H 0.2149 0.7509 0.5106
C43B C 0.2848(4) 0.7518(2) 0.5157(3)
H26B H 0.2993 0.7751 0.5454
C44B C 0.3131(4) 0.7291(3) 0.4887(3)
H27B H 0.3472 0.7379 0.5015
O10 O 0.5090(3) 0.3922(3) 0.3071(3)
O11 O 0.7715(8) 0.8055(8) 0.4837(8)
O12 O 0.7905(7) 0.8078(7) 0.4998(9)
O13 O 0.7994(7) 0.8173(7) 0.4435(7)
O14 O 0.5152(8) 0.6314(8) 0.6562(8)
O15 O 0.5150(11) 0.6667 0.6667
Zn1 Zn 0.588232(19) 0.97894(2) 0.31199(2)
Zn2 Zn 0.280172(18) 0.356347(18) 0.52556(2)
O1 O 0.30977(13) 0.34846(13) 0.59212(14)
H1 H 0.330(2) 0.3405(16) 0.5864(17)
O2 O 0.60274(15) 1.03649(18) 0.36447(15)
O3 O 0.88256(12) 0.69360(13) 0.38452(13)
O4 O 0.85496(12) 0.63916(13) 0.45531(13)
C1 C 0.84890(18) 0.66607(15) 0.41945(17)
C2 C 0.79710(17) 0.66548(15) 0.41896(16)
C3 C 0.78952(17) 0.69713(19) 0.38151(17)
H2 H 0.8168 0.7184 0.3568
C4 C 0.74174(17) 0.69714(18) 0.38078(19)
H3 H 0.7367 0.7184 0.3553
C5 C 0.70120(17) 0.66636(16) 0.41686(15)
C6 C 0.70899(16) 0.63418(17) 0.45374(18)
H4 H 0.6817 0.6124 0.4782
C7 C 0.75703(17) 0.63441(18) 0.45425(17)
H5 H 0.7622 0.6128 0.4793
C8 C 0.65062(17) 0.66729(15) 0.41598(14)
C9 C 0.65060(16) 0.71352(17) 0.40237(16)
H6 H 0.6830 0.7444 0.3934
C10 C 0.60334(14) 0.71511(15) 0.40172(15)
C11 C 0.55571(16) 0.66961(13) 0.41605(14)
H7 H 0.5235 0.6704 0.4155
C12 C 0.55510(15) 0.62293(15) 0.43114(16)
C13 C 0.60262(15) 0.62158(17) 0.42982(16)
H8 H 0.6024 0.5897 0.4383
C14 C 0.50483(16) 0.57757(16) 0.44998(17)
C15 C 0.4760(3) 0.5884(3) 0.4901(3)
H9 H 0.4905 0.6235 0.5035
C16 C 0.4283(2) 0.5496(3) 0.5097(3)
H10 H 0.4101 0.5577 0.5363
C17 C 0.4065(2) 0.4980(3) 0.4901(3)
C18 C 0.4340(3) 0.4870(2) 0.4508(3)
H11 H 0.4190 0.4521 0.4366
C19 C 0.4832(5) 0.5266(2) 0.4321(4)
H12 H 0.5019 0.5180 0.4066
C20 C 0.3556(3) 0.4549(3) 0.5107(3)
O5 O 0.33669(17) 0.46132(18) 0.55241(19)
O6 O 0.3317(2) 0.4126(2) 0.4826(2)
C21 C 0.60211(16) 0.76341(15) 0.38495(16)
C22 C 0.63738(19) 0.81296(18) 0.40620(18)
H13 H 0.6647 0.8167 0.4297
C23 C 0.6331(2) 0.85706(18) 0.39334(19)
H14 H 0.6561 0.8904 0.4094
C24 C 0.59467(18) 0.85201(16) 0.35668(18)
C25 C 0.56078(17) 0.80403(17) 0.33427(19)
H15 H 0.5352 0.8012 0.3088
C26 C 0.56344(15) 0.75923(16) 0.34857(17)
H16 H 0.5390 0.7258 0.3337
C27 C 0.5867(6) 0.8977(4) 0.3415(6)
O7 O 0.5618(2) 0.8962(2) 0.2948(3)
O8 O 0.5993(3) 0.9384(3) 0.3690(3)
O9 O 0.24566(13) 0.28839(12) 0.48769(13)
C28 C 0.24728(19) 0.24728(19) 0.5000
C29 C 0.19596(18) 0.19596(18) 0.5000
C30 C 0.15098(17) 0.19204(17) 0.47640(19)
H17 H 0.1530 0.2225 0.4601
C31 C 0.10379(17) 0.14533(17) 0.4760(2)
H18 H 0.0736 0.1436 0.4595
C32 C 0.09990(19) 0.09990(19) 0.5000
C33 C 0.0482(2) 0.0482(2) 0.5000
C34 C 0.0481(2) 0.0000 0.5000
H19 H 0.0807 0.0000 0.5000
O9A O -0.28839(12) -0.04273(18) 0.48769(13)
C28A C -0.24728(19) 0.00000(27) 0.5000
C29A C -0.19596(18) 0.00000(25) 0.5000
C30A C -0.19204(17) -0.04106(24) 0.47640(19)
H17A H -0.2225 -0.0695 0.4601
C31A C -0.14533(17) -0.04154(24) 0.4760(2)
H18A H -0.1436 -0.0700 0.4595
C32A C -0.09990(19) 0.00000(27) 0.5000
C33A C -0.0482(2) 0.0000(3) 0.5000
C34A C 0.0000 0.0481(2) 0.5000
H19A H -0.0000 0.0807 0.5000
O9B O 0.04273(18) -0.24566(13) 0.48769(13)
C28B C -0.00000(27) -0.24728(19) 0.5000
C29B C -0.00000(25) -0.19596(18) 0.5000
C30B C 0.04106(24) -0.15098(17) 0.47640(19)
H17B H 0.0695 -0.1530 0.4601
C31B C 0.04154(24) -0.10379(17) 0.4760(2)
H18B H 0.0700 -0.0736 0.4595
C32B C -0.00000(27) -0.09990(19) 0.5000
C33B C -0.0000(3) -0.0482(2) 0.5000
C34B C -0.0481(2) -0.0481(2) 0.5000
H19B H -0.0807 -0.0807 0.5000
O9C O -0.04273(18) -0.28839(12) 0.51231(13)
C30C C -0.04106(24) -0.19204(17) 0.52360(19)
H17C H -0.0695 -0.2225 0.5399
C31C C -0.04154(24) -0.14533(17) 0.5240(2)
H18C H -0.0700 -0.1436 0.5405
O9E O 0.28839(12) 0.24566(13) 0.51231(13)
C30E C 0.19204(17) 0.15098(17) 0.52360(19)
H17E H 0.2225 0.1530 0.5399
C31E C 0.14533(17) 0.10379(17) 0.5240(2)
H18E H 0.1436 0.0736 0.5405
O9D O -0.24566(13) 0.04273(18) 0.51231(13)
C30D C -0.15098(17) 0.04106(24) 0.52360(19)
H17D H -0.1530 0.0695 0.5399
C31D C -0.10379(17) 0.04154(24) 0.5240(2)
H18D H -0.0736 0.0700 0.5405
Zn1A Zn -0.97894(2) -0.390708(28) 0.31199(2)
Zn2A Zn -0.356347(18) -0.076175(25) 0.52556(2)
O1A O -0.34846(13) -0.03869(18) 0.59212(14)
H1A H -0.3405(16) -0.0105(26) 0.5864(17)
O2A O -1.03649(18) -0.43375(23) 0.36447(15)
O3A O -0.69360(13) 0.18896(18) 0.38452(13)
O4A O -0.63916(13) 0.21580(18) 0.45531(13)
C1A C -0.66607(15) 0.18283(23) 0.41945(17)
C2A C -0.66548(15) 0.13162(23) 0.41896(16)
C3A C -0.69713(19) 0.09239(25) 0.38151(17)
H2A H -0.7184 0.0984 0.3568
C4A C -0.69714(18) 0.04460(25) 0.38078(19)
H3A H -0.7184 0.0183 0.3553
C5A C -0.66636(16) 0.03484(23) 0.41686(15)
C6A C -0.63418(17) 0.07481(23) 0.45374(18)
H4A H -0.6124 0.0693 0.4782
C7A C -0.63441(18) 0.12262(25) 0.45425(17)
H5A H -0.6128 0.1494 0.4793
C8A C -0.66729(15) -0.01667(23) 0.41598(14)
C9A C -0.71352(17) -0.06292(23) 0.40237(16)
H6A H -0.7444 -0.0614 0.3934
C10A C -0.71511(15) -0.11177(21) 0.40172(15)
C11A C -0.66961(13) -0.11390(21) 0.41605(14)
H7A H -0.6704 -0.1469 0.4155
C12A C -0.62293(15) -0.06783(21) 0.43114(16)
C13A C -0.62158(17) -0.01896(23) 0.42982(16)
H8A H -0.5897 0.0127 0.4383
C14A C -0.57757(16) -0.07274(23) 0.44998(17)
C15A C -0.5884(3) -0.1124(4) 0.4901(3)
H9A H -0.6235 -0.1330 0.5035
C16A C -0.5496(3) -0.1213(4) 0.5097(3)
H10A H -0.5577 -0.1476 0.5363
C17A C -0.4980(3) -0.0915(4) 0.4901(3)
C18A C -0.4870(2) -0.0530(4) 0.4508(3)
H11A H -0.4521 -0.0331 0.4366
C19A C -0.5266(2) -0.0434(5) 0.4321(4)
H12A H -0.5180 -0.0161 0.4066
C20A C -0.4549(3) -0.0993(4) 0.5107(3)
O5A O -0.46132(18) -0.12463(25) 0.55241(19)
O6A O -0.4126(2) -0.0809(3) 0.4826(2)
C21A C -0.76341(15) -0.16130(22) 0.38495(16)
C22A C -0.81296(18) -0.17558(26) 0.40620(18)
H13A H -0.8167 -0.1520 0.4297
C23A C -0.85706(18) -0.22396(27) 0.39334(19)
H14A H -0.8904 -0.2343 0.4094
C24A C -0.85201(16) -0.25734(24) 0.35668(18)
C25A C -0.80403(17) -0.24325(24) 0.33427(19)
H15A H -0.8012 -0.2660 0.3088
C26A C -0.75923(16) -0.19579(22) 0.34857(17)
H16A H -0.7258 -0.1868 0.3337
C27A C -0.8977(4) -0.3110(7) 0.3415(6)
O7A O -0.8962(2) -0.3344(3) 0.2948(3)
O8A O -0.9384(3) -0.3391(4) 0.3690(3)
Zn1B Zn 0.390708(28) -0.588232(19) 0.31199(2)
Zn2B Zn 0.076175(25) -0.280172(18) 0.52556(2)
O1B O 0.03869(18) -0.30977(13) 0.59212(14)
H1B H 0.0105(26) -0.330(2) 0.5864(17)
O2B O 0.43375(23) -0.60274(15) 0.36447(15)
O3B O -0.18896(18) -0.88256(12) 0.38452(13)
O4B O -0.21580(18) -0.85496(12) 0.45531(13)
C1B C -0.18283(23) -0.84890(18) 0.41945(17)
C2B C -0.13162(23) -0.79710(17) 0.41896(16)
C3B C -0.09239(25) -0.78952(17) 0.38151(17)
H2B H -0.0984 -0.8168 0.3568
C4B C -0.04460(25) -0.74174(17) 0.38078(19)
H3B H -0.0183 -0.7367 0.3553
C5B C -0.03484(23) -0.70120(17) 0.41686(15)
C6B C -0.07481(23) -0.70899(16) 0.45374(18)
H4B H -0.0693 -0.6817 0.4782
C7B C -0.12262(25) -0.75703(17) 0.45425(17)
H5B H -0.1494 -0.7622 0.4793
C8B C 0.01667(23) -0.65062(17) 0.41598(14)
C9B C 0.06292(23) -0.65060(16) 0.40237(16)
H6B H 0.0614 -0.6830 0.3934
C10B C 0.11177(21) -0.60334(14) 0.40172(15)
C11B C 0.11390(21) -0.55571(16) 0.41605(14)
H7B H 0.1469 -0.5235 0.4155
C12B C 0.06783(21) -0.55510(15) 0.43114(16)
C13B C 0.01896(23) -0.60262(15) 0.42982(16)
H8B H -0.0127 -0.6024 0.4383
C14B C 0.07274(23) -0.50483(16) 0.44998(17)
C15B C 0.1124(4) -0.4760(3) 0.4901(3)
H9B H 0.1330 -0.4905 0.5035
C16B C 0.1213(4) -0.4283(2) 0.5097(3)
H10B H 0.1476 -0.4101 0.5363
C17B C 0.0915(4) -0.4065(2) 0.4901(3)
C18B C 0.0530(4) -0.4340(3) 0.4508(3)
H11B H 0.0331 -0.4190 0.4366
C19B C 0.0434(5) -0.4832(5) 0.4321(4)
H12B H 0.0161 -0.5019 0.4066
C20B C 0.0993(4) -0.3556(3) 0.5107(3)
O5B O 0.12463(25) -0.33669(17) 0.55241(19)
O6B O 0.0809(3) -0.3317(2) 0.4826(2)
C21B C 0.16130(22) -0.60211(16) 0.38495(16)
C22B C 0.17558(26) -0.63738(19) 0.40620(18)
H13B H 0.1520 -0.6647 0.4297
C23B C 0.22396(27) -0.6331(2) 0.39334(19)
H14B H 0.2343 -0.6561 0.4094
C24B C 0.25734(24) -0.59467(18) 0.35668(18)
C25B C 0.24325(24) -0.56078(17) 0.33427(19)
H15B H 0.2660 -0.5352 0.3088
C26B C 0.19579(22) -0.56344(15) 0.34857(17)
H16B H 0.1868 -0.5390 0.3337
C27B C 0.3110(7) -0.5867(6) 0.3415(6)
O7B O 0.3344(3) -0.5618(2) 0.2948(3)
O8B O 0.3391(4) -0.5993(3) 0.3690(3)
Zn1C Zn -0.390708(28) -0.97894(2) 0.68801(2)
Zn2C Zn -0.076175(25) -0.356347(18) 0.47444(2)
O1C O -0.03869(18) -0.34846(13) 0.40788(14)
H1C H -0.0105(26) -0.3405(16) 0.4136(17)
O2C O -0.43375(23) -1.03649(18) 0.63553(15)
O3C O 0.18896(18) -0.69360(13) 0.61548(13)
O4C O 0.21580(18) -0.63916(13) 0.54469(13)
C1C C 0.18283(23) -0.66607(15) 0.58055(17)
C2C C 0.13162(23) -0.66548(15) 0.58104(16)
C3C C 0.09239(25) -0.69713(19) 0.61849(17)
H2C H 0.0984 -0.7184 0.6432
C4C C 0.04460(25) -0.69714(18) 0.61922(19)
H3C H 0.0183 -0.7184 0.6447
C5C C 0.03484(23) -0.66636(16) 0.58314(15)
C6C C 0.07481(23) -0.63418(17) 0.54626(18)
H4C H 0.0693 -0.6124 0.5218
C7C C 0.12262(25) -0.63441(18) 0.54575(17)
H5C H 0.1494 -0.6128 0.5207
C8C C -0.01667(23) -0.66729(15) 0.58402(14)
C9C C -0.06292(23) -0.71352(17) 0.59763(16)
H6C H -0.0614 -0.7444 0.6066
C10C C -0.11177(21) -0.71511(15) 0.59828(15)
C11C C -0.11390(21) -0.66961(13) 0.58395(14)
H7C H -0.1469 -0.6704 0.5845
C12C C -0.06783(21) -0.62293(15) 0.56886(16)
C13C C -0.01896(23) -0.62158(17) 0.57018(16)
H8C H 0.0127 -0.5897 0.5617
C14C C -0.07274(23) -0.57757(16) 0.55002(17)
C15C C -0.1124(4) -0.5884(3) 0.5099(3)
H9C H -0.1330 -0.6235 0.4965
C16C C -0.1213(4) -0.5496(3) 0.4903(3)
H10C H -0.1476 -0.5577 0.4637
C17C C -0.0915(4) -0.4980(3) 0.5099(3)
C18C C -0.0530(4) -0.4870(2) 0.5492(3)
H11C H -0.0331 -0.4521 0.5634
C19C C -0.0434(5) -0.5266(2) 0.5679(4)
H12C H -0.0161 -0.5180 0.5934
C20C C -0.0993(4) -0.4549(3) 0.4893(3)
O5C O -0.12463(25) -0.46132(18) 0.44759(19)
O6C O -0.0809(3) -0.4126(2) 0.5174(2)
C21C C -0.16130(22) -0.76341(15) 0.61505(16)
C22C C -0.17558(26) -0.81296(18) 0.59380(18)
H13C H -0.1520 -0.8167 0.5703
C23C C -0.22396(27) -0.85706(18) 0.60666(19)
H14C H -0.2343 -0.8904 0.5906
C24C C -0.25734(24) -0.85201(16) 0.64332(18)
C25C C -0.24325(24) -0.80403(17) 0.66573(19)
H15C H -0.2660 -0.8012 0.6912
C26C C -0.19579(22) -0.75923(16) 0.65143(17)
H16C H -0.1868 -0.7258 0.6663
C27C C -0.3110(7) -0.8977(4) 0.6585(6)
O7C O -0.3344(3) -0.8962(2) 0.7052(3)
O8C O -0.3391(4) -0.9384(3) 0.6310(3)
Zn1D Zn -0.588232(19) 0.390708(28) 0.68801(2)
Zn2D Zn -0.280172(18) 0.076175(25) 0.47444(2)
O1D O -0.30977(13) 0.03869(18) 0.40788(14)
H1D H -0.330(2) 0.0105(26) 0.4136(17)
O2D O -0.60274(15) 0.43375(23) 0.63553(15)
O3D O -0.88256(12) -0.18896(18) 0.61548(13)
O4D O -0.85496(12) -0.21580(18) 0.54469(13)
C1D C -0.84890(18) -0.18283(23) 0.58055(17)
C2D C -0.79710(17) -0.13162(23) 0.58104(16)
C3D C -0.78952(17) -0.09239(25) 0.61849(17)
H2D H -0.8168 -0.0984 0.6432
C4D C -0.74174(17) -0.04460(25) 0.61922(19)
H3D H -0.7367 -0.0183 0.6447
C5D C -0.70120(17) -0.03484(23) 0.58314(15)
C6D C -0.70899(16) -0.07481(23) 0.54626(18)
H4D H -0.6817 -0.0693 0.5218
C7D C -0.75703(17) -0.12262(25) 0.54575(17)
H5D H -0.7622 -0.1494 0.5207
C8D C -0.65062(17) 0.01667(23) 0.58402(14)
C9D C -0.65060(16) 0.06292(23) 0.59763(16)
H6D H -0.6830 0.0614 0.6066
C10D C -0.60334(14) 0.11177(21) 0.59828(15)
C11D C -0.55571(16) 0.11390(21) 0.58395(14)
H7D H -0.5235 0.1469 0.5845
C12D C -0.55510(15) 0.06783(21) 0.56886(16)
C13D C -0.60262(15) 0.01896(23) 0.57018(16)
H8D H -0.6024 -0.0127 0.5617
C14D C -0.50483(16) 0.07274(23) 0.55002(17)
C15D C -0.4760(3) 0.1124(4) 0.5099(3)
H9D H -0.4905 0.1330 0.4965
C16D C -0.4283(2) 0.1213(4) 0.4903(3)
H10D H -0.4101 0.1476 0.4637
C17D C -0.4065(2) 0.0915(4) 0.5099(3)
C18D C -0.4340(3) 0.0530(4) 0.5492(3)
H11D H -0.4190 0.0331 0.5634
C19D C -0.4832(5) 0.0434(5) 0.5679(4)
H12D H -0.5019 0.0161 0.5934
C20D C -0.3556(3) 0.0993(4) 0.4893(3)
O5D O -0.33669(17) 0.12463(25) 0.44759(19)
O6D O -0.3317(2) 0.0809(3) 0.5174(2)
C21D C -0.60211(16) 0.16130(22) 0.61505(16)
C22D C -0.63738(19) 0.17558(26) 0.59380(18)
H13D H -0.6647 0.1520 0.5703
C23D C -0.6331(2) 0.22396(27) 0.60666(19)
H14D H -0.6561 0.2343 0.5906
C24D C -0.59467(18) 0.25734(24) 0.64332(18)
C25D C -0.56078(17) 0.24325(24) 0.66573(19)
H15D H -0.5352 0.2660 0.6912
C26D C -0.56344(15) 0.19579(22) 0.65143(17)
H16D H -0.5390 0.1868 0.6663
C27D C -0.5867(6) 0.3110(7) 0.6585(6)
O7D O -0.5618(2) 0.3344(3) 0.7052(3)
O8D O -0.5993(3) 0.3391(4) 0.6310(3)
Zn1E Zn 0.97894(2) 0.588232(19) 0.68801(2)
Zn2E Zn 0.356347(18) 0.280172(18) 0.47444(2)
O1E O 0.34846(13) 0.30977(13) 0.40788(14)
H1E H 0.3405(16) 0.330(2) 0.4136(17)
O2E O 1.03649(18) 0.60274(15) 0.63553(15)
O3E O 0.69360(13) 0.88256(12) 0.61548(13)
O4E O 0.63916(13) 0.85496(12) 0.54469(13)
C1E C 0.66607(15) 0.84890(18) 0.58055(17)
C2E C 0.66548(15) 0.79710(17) 0.58104(16)
C3E C 0.69713(19) 0.78952(17) 0.61849(17)
H2E H 0.7184 0.8168 0.6432
C4E C 0.69714(18) 0.74174(17) 0.61922(19)
H3E H 0.7184 0.7367 0.6447
C5E C 0.66636(16) 0.70120(17) 0.58314(15)
C6E C 0.63418(17) 0.70899(16) 0.54626(18)
H4E H 0.6124 0.6817 0.5218
C7E C 0.63441(18) 0.75703(17) 0.54575(17)
H5E H 0.6128 0.7622 0.5207
C8E C 0.66729(15) 0.65062(17) 0.58402(14)
C9E C 0.71352(17) 0.65060(16) 0.59763(16)
H6E H 0.7444 0.6830 0.6066
C10E C 0.71511(15) 0.60334(14) 0.59828(15)
C11E C 0.66961(13) 0.55571(16) 0.58395(14)
H7E H 0.6704 0.5235 0.5845
C12E C 0.62293(15) 0.55510(15) 0.56886(16)
C13E C 0.62158(17) 0.60262(15) 0.57018(16)
H8E H 0.5897 0.6024 0.5617
C14E C 0.57757(16) 0.50483(16) 0.55002(17)
C15E C 0.5884(3) 0.4760(3) 0.5099(3)
H9E H 0.6235 0.4905 0.4965
C16E C 0.5496(3) 0.4283(2) 0.4903(3)
H10E H 0.5577 0.4101 0.4637
C17E C 0.4980(3) 0.4065(2) 0.5099(3)
C18E C 0.4870(2) 0.4340(3) 0.5492(3)
H11E H 0.4521 0.4190 0.5634
C19E C 0.5266(2) 0.4832(5) 0.5679(4)
H12E H 0.5180 0.5019 0.5934
C20E C 0.4549(3) 0.3556(3) 0.4893(3)
O5E O 0.46132(18) 0.33669(17) 0.44759(19)
O6E O 0.4126(2) 0.3317(2) 0.5174(2)
C21E C 0.76341(15) 0.60211(16) 0.61505(16)
C22E C 0.81296(18) 0.63738(19) 0.59380(18)
H13E H 0.8167 0.6647 0.5703
C23E C 0.85706(18) 0.6331(2) 0.60666(19)
H14E H 0.8904 0.6561 0.5906
C24E C 0.85201(16) 0.59467(18) 0.64332(18)
C25E C 0.80403(17) 0.56078(17) 0.66573(19)
H15E H 0.8012 0.5352 0.6912
C26E C 0.75923(16) 0.56344(15) 0.65143(17)
H16E H 0.7258 0.5390 0.6663
C27E C 0.8977(4) 0.5867(6) 0.6585(6)
O7E O 0.8962(2) 0.5618(2) 0.7052(3)
O8E O 0.9384(3) 0.5993(3) 0.6310(3)
Zn1F Zn 0.254899(19) -0.68773(2) 0.64532(2)
Zn1F_2 Zn 0.254899(19) 0.31227(2) 0.64532(2)
Zn1G Zn -0.31227(2) -0.057375(28) 0.64532(2)
Zn1G_2 Zn 0.68773(2) 0.942625(28) 0.64532(2)
Zn1H Zn -0.942625(28) -0.254899(19) 0.64532(2)
Zn1H_2 Zn 0.057375(28) -0.254899(19) 0.64532(2)
Zn1O Zn -0.057375(28) -0.31227(2) 0.35468(2)
Zn1O_2 Zn 0.942625(28) 0.68773(2) 0.35468(2)
Zn1P Zn -0.254899(19) -0.942625(28) 0.35468(2)
Zn1P_2 Zn -0.254899(19) 0.057375(28) 0.35468(2)
Zn1Q Zn -0.68773(2) 0.254899(19) 0.35468(2)
Zn1Q_2 Zn 0.31227(2) 0.254899(19) 0.35468(2)
Zn2_2 Zn 0.280172(18) -0.643653(18) 0.52556(2)
Zn2A_2 Zn 0.643653(18) 0.923825(25) 0.52556(2)
Zn2B_2 Zn -0.923825(25) -0.280172(18) 0.52556(2)
Zn2C_2 Zn 0.923825(25) 0.643653(18) 0.47444(2)
Zn2D_2 Zn -0.280172(18) -0.923825(25) 0.47444(2)
Zn2E_2 Zn -0.643653(18) 0.280172(18) 0.47444(2)
O1I O -0.37202(18) -1.01513(13) 0.74121(14)
O1J O -0.64310(13) 0.37202(18) 0.74121(14)
O1K O 1.01513(13) 0.64310(13) 0.74121(14)
O1L O 0.64310(13) 1.01513(13) 0.25879(14)
O1M O -1.01513(13) -0.37202(18) 0.25879(14)
O1N O 0.37202(18) -0.64310(13) 0.25879(14)
O3F O -0.45077(12) -0.97307(13) 0.71785(13)
O3G O 0.97307(13) 0.52229(18) 0.71785(13)
O3H O -0.52229(18) 0.45077(12) 0.71785(13)
O3O O 0.52229(18) 0.97307(13) 0.28215(13)
O3P O 0.45077(12) -0.52229(18) 0.28215(13)
O3Q O -0.97307(13) -0.45077(12) 0.28215(13)
O4_2 O -0.14504(12) -0.36084(13) 0.45531(13)
O4A_2 O 0.36084(13) 0.21580(18) 0.45531(13)
O4B_2 O -0.21580(18) 0.14504(12) 0.45531(13)
O4C_2 O 0.21580(18) 0.36084(13) 0.54469(13)
O4D_2 O 0.14504(12) -0.21580(18) 0.54469(13)
O4E_2 O -0.36084(13) -0.14504(12) 0.54469(13)
loop_
_geom_bond_atom_site_label_1
_geom_bond_atom_site_label_2
_geom_bond_site_symmetry_1
_geom_bond_site_symmetry_2
Zn1 O2 1_555 1_555
Zn2 O1 1_555 1_555
O1 H1 1_555 1_555
O3 C1 1_555 1_555
O4 C1 1_555 1_555
C1 C2 1_555 1_555
C2 C3 1_555 1_555
C3 H2 1_555 1_555
C4 C3 1_555 1_555
H3 C4 1_555 1_555
C5 C4 1_555 1_555
C6 C5 1_555 1_555
H4 C6 1_555 1_555
C7 C2 1_555 1_555
H5 C7 1_555 1_555
C8 C5 1_555 1_555
C9 C8 1_555 1_555
H6 C9 1_555 1_555
C10 C9 1_555 1_555
C11 C10 1_555 1_555
H7 C11 1_555 1_555
C12 C11 1_555 1_555
C13 C8 1_555 1_555
H8 C13 1_555 1_555
C14 C12 1_555 1_555
C15 C14 1_555 1_555
H9 C15 1_555 1_555
C16 C15 1_555 1_555
H10 C16 1_555 1_555
C17 C16 1_555 1_555
C18 C17 1_555 1_555
H11 C18 1_555 1_555
C19 C14 1_555 1_555
H12 C19 1_555 1_555
C20 C17 1_555 1_555
O5 C20 1_555 1_555
O6 Zn2 1_555 1_555
C21 C10 1_555 1_555
C22 C21 1_555 1_555
H13 C22 1_555 1_555
C23 C22 1_555 1_555
H14 C23 1_555 1_555
C24 C23 1_555 1_555
C25 C24 1_555 1_555
H15 C25 1_555 1_555
C26 C21 1_555 1_555
H16 C26 1_555 1_555
C27 C24 1_555 1_555
O7 Zn1 1_555 1_555
O8 Zn1 1_555 1_555
O9 Zn2 1_555 1_555
C28 O9 1_555 1_555
C29 C28 1_555 1_555
C30 C29 1_555 1_555
H17 C30 1_555 1_555
C31 C30 1_555 1_555
H18 C31 1_555 1_555
C32 C31 1_555 1_555
C33 C32 1_555 1_555
C34 C33 1_555 1_555
H19 C34 1_555 1_555
Ru1 N1 1_555 1_555
N1 C35 1_555 1_555
N2 Ru1 1_555 1_555
C35 H20 1_555 1_555
C36 C35 1_555 1_555
H21 C36 1_555 1_555
C37 C36 1_555 1_555
H22 C37 1_555 1_555
C38 C37 1_555 1_555
H23 C38 1_555 1_555
C39 N1 1_555 1_555
C40 N2 1_555 1_555
C41 C40 1_555 1_555
H24 C41 1_555 1_555
C42 C41 1_555 1_555
H25 C42 1_555 1_555
C43 C42 1_555 1_555
H26 C43 1_555 1_555
C44 N2 1_555 1_555
H27 C44 1_555 1_555
O9A C28A 1_555 1_555
C28A C29A 1_555 1_555
C29A C30A 1_555 1_555
C30A H17A 1_555 1_555
C31A C30A 1_555 1_555
H18A C31A 1_555 1_555
C32A C31A 1_555 1_555
C33A C32A 1_555 1_555
C34A C33 1_555 1_555
H19A C34A 1_555 1_555
O9B C28B 1_555 1_555
C28B C29B 1_555 1_555
C29B C30B 1_555 1_555
C30B H17B 1_555 1_555
C31B C30B 1_555 1_555
H18B C31B 1_555 1_555
C32B C31B 1_555 1_555
C33B C34 1_555 1_555
C34B C33A 1_555 1_555
H19B C34B 1_555 1_555
O9C C28B 1_555 1_555
C30C C29B 1_555 1_555
H17C C30C 1_555 1_555
C31C C32B 1_555 1_555
H18C C31C 1_555 1_555
O9E C28 1_555 1_555
C30E C29 1_555 1_555
H17E C30E 1_555 1_555
C31E C32 1_555 1_555
H18E C31E 1_555 1_555
O9D C28A 1_555 1_555
C30D C29A 1_555 1_555
H17D C30D 1_555 1_555
C31D C32A 1_555 1_555
H18D C31D 1_555 1_555
Zn1A O2A 1_555 1_555
Zn2A O9A 1_555 1_555
O1A Zn2A 1_555 1_555
H1A O1A 1_555 1_555
O3A C1A 1_555 1_555
O4A C1A 1_555 1_555
C1A C2A 1_555 1_555
C2A C3A 1_555 1_555
C3A H2A 1_555 1_555
C4A C3A 1_555 1_555
H3A C4A 1_555 1_555
C5A C4A 1_555 1_555
C6A C5A 1_555 1_555
H4A C6A 1_555 1_555
C7A C2A 1_555 1_555
H5A C7A 1_555 1_555
C8A C5A 1_555 1_555
C9A C8A 1_555 1_555
H6A C9A 1_555 1_555
C10A C9A 1_555 1_555
C11A C10A 1_555 1_555
H7A C11A 1_555 1_555
C12A C11A 1_555 1_555
C13A C8A 1_555 1_555
H8A C13A 1_555 1_555
C14A C12A 1_555 1_555
C15A C14A 1_555 1_555
H9A C15A 1_555 1_555
C16A C15A 1_555 1_555
H10A C16A 1_555 1_555
C17A C16A 1_555 1_555
C18A C17A 1_555 1_555
H11A C18A 1_555 1_555
C19A C14A 1_555 1_555
H12A C19A 1_555 1_555
C20A C17A 1_555 1_555
O5A C20A 1_555 1_555
O6A Zn2A 1_555 1_555
C21A C10A 1_555 1_555
C22A C21A 1_555 1_555
H13A C22A 1_555 1_555
C23A C22A 1_555 1_555
H14A C23A 1_555 1_555
C24A C23A 1_555 1_555
C25A C24A 1_555 1_555
H15A C25A 1_555 1_555
C26A C21A 1_555 1_555
H16A C26A 1_555 1_555
C27A C24A 1_555 1_555
O7A Zn1A 1_555 1_555
O8A Zn1A 1_555 1_555
Zn1B O2B 1_555 1_555
Zn2B O9B 1_555 1_555
O1B Zn2B 1_555 1_555
H1B O1B 1_555 1_555
O3B C1B 1_555 1_555
O4B C1B 1_555 1_555
C1B C2B 1_555 1_555
C2B C3B 1_555 1_555
C3B H2B 1_555 1_555
C4B C3B 1_555 1_555
H3B C4B 1_555 1_555
C5B C4B 1_555 1_555
C6B C5B 1_555 1_555
H4B C6B 1_555 1_555
C7B C2B 1_555 1_555
H5B C7B 1_555 1_555
C8B C5B 1_555 1_555
C9B C8B 1_555 1_555
H6B C9B 1_555 1_555
C10B C9B 1_555 1_555
C11B C10B 1_555 1_555
H7B C11B 1_555 1_555
C12B C11B 1_555 1_555
C13B C8B 1_555 1_555
H8B C13B 1_555 1_555
C14B C12B 1_555 1_555
C15B C14B 1_555 1_555
H9B C15B 1_555 1_555
C16B C15B 1_555 1_555
H10B C16B 1_555 1_555
C17B C16B 1_555 1_555
C18B C17B 1_555 1_555
H11B C18B 1_555 1_555
C19B C14B 1_555 1_555
H12B C19B 1_555 1_555
C20B C17B 1_555 1_555
O5B C20B 1_555 1_555
O6B Zn2B 1_555 1_555
C21B C10B 1_555 1_555
C22B C21B 1_555 1_555
H13B C22B 1_555 1_555
C23B C22B 1_555 1_555
H14B C23B 1_555 1_555
C24B C23B 1_555 1_555
C25B C24B 1_555 1_555
H15B C25B 1_555 1_555
C26B C21B 1_555 1_555
H16B C26B 1_555 1_555
C27B C24B 1_555 1_555
O7B Zn1B 1_555 1_555
O8B Zn1B 1_555 1_555
Zn1C O2C 1_555 1_555
Zn2C O9C 1_555 1_555
O1C Zn2C 1_555 1_555
H1C O1C 1_555 1_555
O3C C1C 1_555 1_555
O4C C1C 1_555 1_555
C1C C2C 1_555 1_555
C2C C3C 1_555 1_555
C3C H2C 1_555 1_555
C4C C3C 1_555 1_555
H3C C4C 1_555 1_555
C5C C4C 1_555 1_555
C6C C5C 1_555 1_555
H4C C6C 1_555 1_555
C7C C2C 1_555 1_555
H5C C7C 1_555 1_555
C8C C5C 1_555 1_555
C9C C8C 1_555 1_555
H6C C9C 1_555 1_555
C10C C9C 1_555 1_555
C11C C10C 1_555 1_555
H7C C11C 1_555 1_555
C12C C11C 1_555 1_555
C13C C8C 1_555 1_555
H8C C13C 1_555 1_555
C14C C12C 1_555 1_555
C15C C14C 1_555 1_555
H9C C15C 1_555 1_555
C16C C15C 1_555 1_555
H10C C16C 1_555 1_555
C17C C16C 1_555 1_555
C18C C17C 1_555 1_555
H11C C18C 1_555 1_555
C19C C14C 1_555 1_555
H12C C19C 1_555 1_555
C20C C17C 1_555 1_555
O5C C20C 1_555 1_555
O6C Zn2C 1_555 1_555
C21C C10C 1_555 1_555
C22C C21C 1_555 1_555
H13C C22C 1_555 1_555
C23C C22C 1_555 1_555
H14C C23C 1_555 1_555
C24C C23C 1_555 1_555
C25C C24C 1_555 1_555
H15C C25C 1_555 1_555
C26C C21C 1_555 1_555
H16C C26C 1_555 1_555
C27C C24C 1_555 1_555
O7C Zn1C 1_555 1_555
O8C Zn1C 1_555 1_555
Zn1D O2D 1_555 1_555
Zn2D O9D 1_555 1_555
O1D Zn2D 1_555 1_555
H1D O1D 1_555 1_555
O3D C1D 1_555 1_555
O4D C1D 1_555 1_555
C1D C2D 1_555 1_555
C2D C3D 1_555 1_555
C3D H2D 1_555 1_555
C4D C3D 1_555 1_555
H3D C4D 1_555 1_555
C5D C4D 1_555 1_555
C6D C5D 1_555 1_555
H4D C6D 1_555 1_555
C7D C2D 1_555 1_555
H5D C7D 1_555 1_555
C8D C5D 1_555 1_555
C9D C8D 1_555 1_555
H6D C9D 1_555 1_555
C10D C9D 1_555 1_555
C11D C10D 1_555 1_555
H7D C11D 1_555 1_555
C12D C11D 1_555 1_555
C13D C8D 1_555 1_555
H8D C13D 1_555 1_555
C14D C12D 1_555 1_555
C15D C14D 1_555 1_555
H9D C15D 1_555 1_555
C16D C15D 1_555 1_555
H10D C16D 1_555 1_555
C17D C16D 1_555 1_555
C18D C17D 1_555 1_555
H11D C18D 1_555 1_555
C19D C14D 1_555 1_555
H12D C19D 1_555 1_555
C20D C17D 1_555 1_555
O5D C20D 1_555 1_555
O6D Zn2D 1_555 1_555
C21D C10D 1_555 1_555
C22D C21D 1_555 1_555
H13D C22D 1_555 1_555
C23D C22D 1_555 1_555
H14D C23D 1_555 1_555
C24D C23D 1_555 1_555
C25D C24D 1_555 1_555
H15D C25D 1_555 1_555
C26D C21D 1_555 1_555
H16D C26D 1_555 1_555
C27D C24D 1_555 1_555
O7D Zn1D 1_555 1_555
O8D Zn1D 1_555 1_555
Zn1E O2E 1_555 1_555
Zn2E O9E 1_555 1_555
O1E Zn2E 1_555 1_555
H1E O1E 1_555 1_555
O3E C1E 1_555 1_555
O4E C1E 1_555 1_555
C1E C2E 1_555 1_555
C2E C3E 1_555 1_555
C3E H2E 1_555 1_555
C4E C3E 1_555 1_555
H3E C4E 1_555 1_555
C5E C4E 1_555 1_555
C6E C5E 1_555 1_555
H4E C6E 1_555 1_555
C7E C2E 1_555 1_555
H5E C7E 1_555 1_555
C8E C5E 1_555 1_555
C9E C8E 1_555 1_555
H6E C9E 1_555 1_555
C10E C9E 1_555 1_555
C11E C10E 1_555 1_555
H7E C11E 1_555 1_555
C12E C11E 1_555 1_555
C13E C8E 1_555 1_555
H8E C13E 1_555 1_555
C14E C12E 1_555 1_555
C15E C14E 1_555 1_555
H9E C15E 1_555 1_555
C16E C15E 1_555 1_555
H10E C16E 1_555 1_555
C17E C16E 1_555 1_555
C18E C17E 1_555 1_555
H11E C18E 1_555 1_555
C19E C14E 1_555 1_555
H12E C19E 1_555 1_555
C20E C17E 1_555 1_555
O5E C20E 1_555 1_555
O6E Zn2E 1_555 1_555
C21E C10E 1_555 1_555
C22E C21E 1_555 1_555
H13E C22E 1_555 1_555
C23E C22E 1_555 1_555
H14E C23E 1_555 1_555
C24E C23E 1_555 1_555
C25E C24E 1_555 1_555
H15E C25E 1_555 1_555
C26E C21E 1_555 1_555
H16E C26E 1_555 1_555
C27E C24E 1_555 1_555
O7E Zn1E 1_555 1_555
O8E Zn1E 1_555 1_555
Zn1F O3C 1_555 1_555
Zn1F_2 O1 1_555 1_555
Zn1G O1A 1_555 1_555
Zn1G_2 O3E 1_555 1_555
Zn1H O3D 1_555 1_555
Zn1H_2 O1B 1_555 1_555
Zn1O O1C 1_555 1_555
Zn1O_2 O3 1_555 1_555
Zn1P O3B 1_555 1_555
Zn1P_2 O1D 1_555 1_555
Zn1Q O3A 1_555 1_555
Zn1Q_2 O1E 1_555 1_555
Zn2_2 O4C 1_555 1_555
Zn2A_2 O4E 1_555 1_555
Zn2B_2 O4D 1_555 1_555
Zn2C_2 O4 1_555 1_555
Zn2D_2 O4B 1_555 1_555
Zn2E_2 O4A 1_555 1_555
O1I Zn1C 1_555 1_555
O1J Zn1D 1_555 1_555
O1K Zn1E 1_555 1_555
O1L Zn1 1_555 1_555
O1M Zn1A 1_555 1_555
O1N Zn1B 1_555 1_555
O3F Zn1C 1_555 1_555
O3G Zn1E 1_555 1_555
O3H Zn1D 1_555 1_555
O3O Zn1 1_555 1_555
O3P Zn1B 1_555 1_555
O3Q Zn1A 1_555 1_555
O4_2 Zn2C 1_555 1_555
O4A_2 Zn2E 1_555 1_555
O4B_2 Zn2D 1_555 1_555
O4C_2 Zn2 1_555 1_555
O4D_2 Zn2B 1_555 1_555
O4E_2 Zn2A 1_555 1_555
N1A Ru1 1_555 1_555
N2A Ru1 1_555 1_555
C35A N1A 1_555 1_555
H20A C35A 1_555 1_555
C36A C35A 1_555 1_555
H21A C36A 1_555 1_555
C37A C36A 1_555 1_555
H22A C37A 1_555 1_555
C38A C37A 1_555 1_555
H23A C38A 1_555 1_555
C39A N1A 1_555 1_555
C40A N2A 1_555 1_555
C41A C40A 1_555 1_555
H24A C41A 1_555 1_555
C42A C41A 1_555 1_555
H25A C42A 1_555 1_555
C43A C42A 1_555 1_555
H26A C43A 1_555 1_555
C44A N2A 1_555 1_555
H27A C44A 1_555 1_555
N1B Ru1 1_555 1_555
N2B Ru1 1_555 1_555
C35B N1B 1_555 1_555
H20B C35B 1_555 1_555
C36B C35B 1_555 1_555
H21B C36B 1_555 1_555
C37B C36B 1_555 1_555
H22B C37B 1_555 1_555
C38B C37B 1_555 1_555
H23B C38B 1_555 1_555
C39B N1B 1_555 1_555
C40B N2B 1_555 1_555
C41B C40B 1_555 1_555
H24B C41B 1_555 1_555
C42B C41B 1_555 1_555
H25B C42B 1_555 1_555
C43B C42B 1_555 1_555
H26B C43B 1_555 1_555
C44B N2B 1_555 1_555
H27B C44B 1_555 1_555
C6 C7 1_555 1_555
C12 C13 1_555 1_555
C18 C19 1_555 1_555
C20 O6 1_555 1_555
C25 C26 1_555 1_555
C27 O7 1_555 1_555
C27 O8 1_555 1_555
C38 C39 1_555 1_555
C39 C40 1_555 1_555
C43 C44 1_555 1_555
C33A C34A 1_555 1_555
C32B C33B 1_555 1_555
C33B C34B 1_555 1_555
C30C C31C 1_555 1_555
C30E C31E 1_555 1_555
C30D C31D 1_555 1_555
C6A C7A 1_555 1_555
C12A C13A 1_555 1_555
C18A C19A 1_555 1_555
C20A O6A 1_555 1_555
C25A C26A 1_555 1_555
C27A O7A 1_555 1_555
C27A O8A 1_555 1_555
C6B C7B 1_555 1_555
C12B C13B 1_555 1_555
C18B C19B 1_555 1_555
C20B O6B 1_555 1_555
C25B C26B 1_555 1_555
C27B O7B 1_555 1_555
C27B O8B 1_555 1_555
C6C C7C 1_555 1_555
C12C C13C 1_555 1_555
C18C C19C 1_555 1_555
C20C O6C 1_555 1_555
C25C C26C 1_555 1_555
C27C O7C 1_555 1_555
C27C O8C 1_555 1_555
C6D C7D 1_555 1_555
C12D C13D 1_555 1_555
C18D C19D 1_555 1_555
C20D O6D 1_555 1_555
C25D C26D 1_555 1_555
C27D O7D 1_555 1_555
C27D O8D 1_555 1_555
C6E C7E 1_555 1_555
C12E C13E 1_555 1_555
C18E C19E 1_555 1_555
C20E O6E 1_555 1_555
C25E C26E 1_555 1_555
C27E O7E 1_555 1_555
C27E O8E 1_555 1_555
C38A C39A 1_555 1_555
C39A C40A 1_555 1_555
C43A C44A 1_555 1_555
C38B C39B 1_555 1_555
C39B C40B 1_555 1_555
C43B C44B 1_555 1_555

#END
