
#######################################################################
#
#                 Cambridge Crystallographic Data Centre
#                                CCDC 
#
#######################################################################
#
# If this CIF has been generated from an entry in the Cambridge 
# Structural Database, then it will include bibliographic, chemical, 
# crystal, experimental, refinement or atomic coordinate data resulting 
# from the CCDC's data processing and validation procedures.
#
#######################################################################

data_TOVKEW
_chemical_formula_moiety         '(C124 H96 Fe3 O20)n'
_symmetry_cell_setting           orthorhombic
_symmetry_space_group_name_H-M   'P b c m'
_symmetry_Int_Tables_number      57
_space_group_name_Hall           '-P 2c 2b'
loop_
_symmetry_equiv_pos_site_id
_symmetry_equiv_pos_as_xyz
1 x,y,z
2 -x,-y,1/2+z
3 x,1/2-y,-z
4 -x,1/2+y,1/2-z
5 -x,-y,-z
6 x,y,1/2-z
7 -x,1/2+y,z
8 x,1/2-y,1/2+z
_cell_length_a                   14.9208(14)
_cell_length_b                   41.280(4)
_cell_length_c                   38.398(3)
_cell_angle_alpha                90
_cell_angle_beta                 90
_cell_angle_gamma                90
_cell_volume                     23650.5
loop_
_atom_site_label
_atom_site_type_symbol
_atom_site_fract_x
_atom_site_fract_y
_atom_site_fract_z
_atom_site_U_iso_or_equiv
_atom_site_thermal_displace_type
Fe1 Fe -0.04004(6) 0.18737(2) 0.2500 0.0723 Uani
Fe2 Fe -0.07220(6) 0.10808(2) 0.2500 0.0745 Uani
Fe3 Fe -0.24727(7) 0.15692(2) 0.2500 0.0753 Uani
O1 O 0.0428(2) 0.16952(8) 0.21227(8) 0.0897 Uani
O2 O 0.0173(3) 0.11660(9) 0.21290(10) 0.1043 Uani
O3 O 0.1558(3) -0.09120(8) -0.21320(10) 0.1057 Uani
O4 O 0.2722(2) -0.12349(8) -0.21330(9) 0.0983 Uani
O5 O 0.7540(3) 0.30876(9) -0.21222(10) 0.1003 Uani
O6 O 0.8914(3) 0.28840(8) -0.21284(9) 0.0950 Uani
O7 O 1.2431(5) -0.0060(2) 0.1501(2) 0.2667 Uani
O8 O 1.2565(5) -0.0471(2) 0.1120(2) 0.2667 Uani
O9 O 0.0451(3) 0.22702(12) 0.2500 0.1067 Uani
O10 O -0.0184(3) 0.06089(12) 0.2500 0.1077 Uani
O11 O -0.3859(3) 0.16352(12) 0.2500 0.1113 Uani
O12 O -0.1205(3) 0.15085(9) 0.2500 0.0640 Uani
C1 C 0.0567(3) 0.14129(15) 0.20189(12) 0.0803 Uani
C2 C 0.1242(4) 0.13636(14) 0.17422(14) 0.0890 Uani
C3 C 0.1374(5) 0.10566(15) 0.16022(17) 0.1330 Uani
H1 H 0.1030 0.0884 0.1681 0.1600 Uiso
C4 C 0.2005(5) 0.10059(16) 0.13494(18) 0.1447 Uani
H2 H 0.2065 0.0800 0.1255 0.1730 Uiso
C5 C 0.2556(4) 0.12522(15) 0.12294(14) 0.0987 Uani
C6 C 0.2401(4) 0.15561(14) 0.13632(16) 0.1160 Uani
H3 H 0.2737 0.1730 0.1281 0.1390 Uiso
C7 C 0.1764(4) 0.16112(14) 0.16141(15) 0.1100 Uani
H4 H 0.1685 0.1820 0.1699 0.1320 Uiso
C8 C 0.3257(4) 0.11859(14) 0.09629(14) 0.0953 Uani
C9 C 0.3618(5) 0.08844(17) 0.09295(17) 0.1403 Uani
H5 H 0.3445 0.0723 0.1084 0.1680 Uiso
C10 C 0.4234(5) 0.08123(16) 0.06733(17) 0.1407 Uani
H6 H 0.4456 0.0602 0.0661 0.1690 Uiso
C11 C 0.4537(3) 0.10387(12) 0.04330(12) 0.0800 Uani
C12 C 0.4138(5) 0.13238(16) 0.04655(17) 0.1337 Uani
H7 H 0.4296 0.1485 0.0308 0.1600 Uiso
C13 C 0.3503(5) 0.14004(15) 0.07167(18) 0.1373 Uani
H8 H 0.3241 0.1605 0.0715 0.1650 Uiso
C14 C 0.5178(3) 0.09423(11) 0.01500(11) 0.0737 Uani
C15 C 0.4728(3) 0.06910(10) -0.00879(11) 0.0737 Uani
H9 H 0.4534 0.0508 0.0051 0.0880 Uiso
H10 H 0.4201 0.0787 -0.0194 0.0880 Uiso
C16 C 0.5355(3) 0.05716(11) -0.03726(12) 0.0757 Uani
C17 C 0.5644(3) 0.08695(11) -0.05918(12) 0.0823 Uani
H11 H 0.6041 0.0799 -0.0777 0.0990 Uiso
H12 H 0.5119 0.0966 -0.0698 0.0990 Uiso
C18 C 0.6122(3) 0.11229(11) -0.03692(12) 0.0797 Uani
C19 C 0.5466(3) 0.12315(11) -0.00771(12) 0.0853 Uani
H13 H 0.5755 0.1393 0.0068 0.1020 Uiso
H14 H 0.4940 0.1330 -0.0181 0.1020 Uiso
C20 C 0.6023(3) 0.07904(12) 0.03122(12) 0.0857 Uani
H15 H 0.5849 0.0610 0.0459 0.1030 Uiso
H16 H 0.6318 0.0950 0.0458 0.1030 Uiso
C21 C 0.6194(3) 0.04257(11) -0.02018(12) 0.0830 Uani
H17 H 0.6021 0.0239 -0.0064 0.1000 Uiso
H18 H 0.6600 0.0352 -0.0382 0.1000 Uiso
C22 C 0.6943(4) 0.09662(12) -0.01989(13) 0.0913 Uani
H19 H 0.7250 0.1126 -0.0057 0.1090 Uiso
H20 H 0.7354 0.0895 -0.0379 0.1090 Uiso
C23 C 0.6684(3) 0.06708(12) 0.00338(13) 0.0837 Uani
C24 C 0.4898(4) 0.03248(11) -0.06139(12) 0.0787 Uani
C25 C 0.3994(4) 0.02549(16) -0.05951(16) 0.1227 Uani
H21 H 0.3645 0.0358 -0.0428 0.1470 Uiso
C26 C 0.3597(4) 0.00374(16) -0.08168(18) 0.1300 Uani
H22 H 0.2990 -0.0007 -0.0790 0.1560 Uiso
C27 C 0.4064(4) -0.01190(12) -0.10784(13) 0.0817 Uani
C28 C 0.4948(4) -0.00648(15) -0.10787(17) 0.1190 Uani
H23 H 0.5301 -0.0177 -0.1238 0.1430 Uiso
C29 C 0.5372(4) 0.01539(15) -0.08491(17) 0.1237 Uani
H24 H 0.5990 0.0180 -0.0861 0.1480 Uiso
C30 C 0.3622(4) -0.03461(13) -0.13135(13) 0.0860 Uani
C31 C 0.2741(5) -0.03130(16) -0.14041(18) 0.1327 Uani
H25 H 0.2411 -0.0145 -0.1306 0.1590 Uiso
C32 C 0.2321(4) -0.05194(16) -0.16354(17) 0.1273 Uani
H26 H 0.1726 -0.0482 -0.1695 0.1530 Uiso
C33 C 0.2748(4) -0.07707(12) -0.17748(13) 0.0807 Uani
C34 C 0.3612(5) -0.08123(14) -0.16880(17) 0.1270 Uani
H27 H 0.3929 -0.0985 -0.1784 0.1520 Uiso
C35 C 0.4048(4) -0.06030(15) -0.14576(17) 0.1257 Uani
H28 H 0.4645 -0.0641 -0.1402 0.1510 Uiso
C36 C 0.2305(4) -0.09942(13) -0.20308(13) 0.0780 Uani
C37 C 0.6402(5) 0.14066(17) -0.0598(2) 0.1577 Uani
C38 C 0.7005(5) 0.13610(16) -0.08609(19) 0.1577 Uani
H29 H 0.7236 0.1154 -0.0895 0.1890 Uiso
C39 C 0.7292(5) 0.16119(16) -0.10832(19) 0.1577 Uani
H30 H 0.7700 0.1567 -0.1260 0.1890 Uiso
C40 C 0.6983(5) 0.19156(17) -0.1043(2) 0.1577 Uani
C41 C 0.6358(5) 0.19426(16) -0.08228(19) 0.1577 Uani
H31 H 0.6059 0.2140 -0.0808 0.1890 Uiso
C42 C 0.6085(5) 0.16882(16) -0.05957(19) 0.1577 Uani
H32 H 0.5639 0.1734 -0.0434 0.1890 Uiso
C43 C 0.7299(5) 0.21746(14) -0.12845(15) 0.1060 Uani
C44 C 0.8138(4) 0.21820(16) -0.14196(19) 0.1430 Uani
H33 H 0.8546 0.2023 -0.1355 0.1720 Uiso
C45 C 0.8403(4) 0.24168(15) -0.16484(17) 0.1277 Uani
H34 H 0.8989 0.2415 -0.1730 0.1530 Uiso
C46 C 0.7840(4) 0.26499(12) -0.17586(14) 0.0870 Uani
C47 C 0.6987(4) 0.26433(14) -0.16321(17) 0.1317 Uani
H35 H 0.6579 0.2801 -0.1703 0.1580 Uiso
C48 C 0.6718(5) 0.24068(16) -0.14014(18) 0.1397 Uani
H36 H 0.6129 0.2405 -0.1323 0.1680 Uiso
C49 C 0.8139(4) 0.28929(12) -0.20243(13) 0.0820 Uani
C50 C 0.7505(5) 0.0533(2) 0.0196(2) 0.1463 Uani
C51 C 0.7825(5) 0.02373(18) 0.01289(19) 0.1463 Uani
H37 H 0.7557 0.0115 -0.0046 0.1760 Uiso
C52 C 0.8569(5) 0.01000(19) 0.03172(19) 0.1463 Uani
H38 H 0.8725 -0.0116 0.0281 0.1760 Uiso
C53 C 0.9054(5) 0.0284(2) 0.0551(2) 0.1463 Uani
C54 C 0.8708(5) 0.05799(18) 0.06215(19) 0.1463 Uani
H39 H 0.8970 0.0706 0.0795 0.1760 Uiso
C55 C 0.7973(5) 0.07001(19) 0.04416(19) 0.1463 Uani
H40 H 0.7787 0.0910 0.0493 0.1760 Uiso
C56 C 0.9877(8) 0.0165(4) 0.0727(4) 0.2667 Uani
C57 C 1.0322(8) -0.0085(3) 0.0595(3) 0.2667 Uani
H41 H 1.0118 -0.0180 0.0390 0.3200 Uiso
C58 C 1.1112(8) -0.0212(3) 0.0760(3) 0.2667 Uani
H42 H 1.1411 -0.0391 0.0670 0.3200 Uiso
C59 C 1.1400(8) -0.0062(4) 0.1048(4) 0.2667 Uani
C60 C 1.0878(8) 0.0156(3) 0.1234(3) 0.2667 Uani
H43 H 1.1043 0.0232 0.1453 0.3200 Uiso
C61 C 1.0040(8) 0.0261(3) 0.1060(3) 0.2667 Uani
H44 H 0.9629 0.0390 0.1178 0.3200 Uiso
C62 C 1.2190(8) -0.0241(4) 0.1199(4) 0.2667 Uani
O1D O -0.0428(2) -0.16952(8) -0.21227(8) 0.0897 Uani
O2D O -0.0173(3) -0.11660(9) -0.21290(10) 0.1043 Uani
O3D O -0.1558(3) 0.09120(8) 0.21320(10) 0.1057 Uani
O4D O -0.2722(2) 0.12349(8) 0.21330(9) 0.0983 Uani
O5D O -0.7540(3) -0.30876(9) 0.21222(10) 0.1003 Uani
O6D O -0.8914(3) -0.28840(8) 0.21284(9) 0.0950 Uani
O7D O -1.2431(5) 0.0060(2) -0.1501(2) 0.2667 Uani
O8D O -1.2565(5) 0.0471(2) -0.1120(2) 0.2667 Uani
C1D C -0.0567(3) -0.14129(15) -0.20189(12) 0.0803 Uani
C2D C -0.1242(4) -0.13636(14) -0.17422(14) 0.0890 Uani
C3D C -0.1374(5) -0.10566(15) -0.16022(17) 0.1330 Uani
H1D H -0.1030 -0.0884 -0.1681 0.1600 Uiso
C4D C -0.2005(5) -0.10059(16) -0.13494(18) 0.1447 Uani
H2D H -0.2065 -0.0800 -0.1255 0.1730 Uiso
C5D C -0.2556(4) -0.12522(15) -0.12294(14) 0.0987 Uani
C6D C -0.2401(4) -0.15561(14) -0.13632(16) 0.1160 Uani
H3D H -0.2737 -0.1730 -0.1281 0.1390 Uiso
C7D C -0.1764(4) -0.16112(14) -0.16141(15) 0.1100 Uani
H4D H -0.1685 -0.1820 -0.1699 0.1320 Uiso
C8D C -0.3257(4) -0.11859(14) -0.09629(14) 0.0953 Uani
C9D C -0.3618(5) -0.08844(17) -0.09295(17) 0.1403 Uani
H5D H -0.3445 -0.0723 -0.1084 0.1680 Uiso
C10D C -0.4234(5) -0.08123(16) -0.06733(17) 0.1407 Uani
H6D H -0.4456 -0.0602 -0.0661 0.1690 Uiso
C11D C -0.4537(3) -0.10387(12) -0.04330(12) 0.0800 Uani
C12D C -0.4138(5) -0.13238(16) -0.04655(17) 0.1337 Uani
H7D H -0.4296 -0.1485 -0.0308 0.1600 Uiso
C13D C -0.3503(5) -0.14004(15) -0.07167(18) 0.1373 Uani
H8D H -0.3241 -0.1605 -0.0715 0.1650 Uiso
C14D C -0.5178(3) -0.09423(11) -0.01500(11) 0.0737 Uani
C15D C -0.4728(3) -0.06910(10) 0.00879(11) 0.0737 Uani
H9D H -0.4534 -0.0508 -0.0051 0.0880 Uiso
H10D H -0.4201 -0.0787 0.0194 0.0880 Uiso
C16D C -0.5355(3) -0.05716(11) 0.03726(12) 0.0757 Uani
C17D C -0.5644(3) -0.08695(11) 0.05918(12) 0.0823 Uani
H11D H -0.6041 -0.0799 0.0777 0.0990 Uiso
H12D H -0.5119 -0.0966 0.0698 0.0990 Uiso
C18D C -0.6122(3) -0.11229(11) 0.03692(12) 0.0797 Uani
C19D C -0.5466(3) -0.12315(11) 0.00771(12) 0.0853 Uani
H13D H -0.5755 -0.1393 -0.0068 0.1020 Uiso
H14D H -0.4940 -0.1330 0.0181 0.1020 Uiso
C20D C -0.6023(3) -0.07904(12) -0.03122(12) 0.0857 Uani
H15D H -0.5849 -0.0610 -0.0459 0.1030 Uiso
H16D H -0.6318 -0.0950 -0.0458 0.1030 Uiso
C21D C -0.6194(3) -0.04257(11) 0.02018(12) 0.0830 Uani
H17D H -0.6021 -0.0239 0.0064 0.1000 Uiso
H18D H -0.6600 -0.0352 0.0382 0.1000 Uiso
C22D C -0.6943(4) -0.09662(12) 0.01989(13) 0.0913 Uani
H19D H -0.7250 -0.1126 0.0057 0.1090 Uiso
H20D H -0.7354 -0.0895 0.0379 0.1090 Uiso
C23D C -0.6684(3) -0.06708(12) -0.00338(13) 0.0837 Uani
C24D C -0.4898(4) -0.03248(11) 0.06139(12) 0.0787 Uani
C25D C -0.3994(4) -0.02549(16) 0.05951(16) 0.1227 Uani
H21D H -0.3645 -0.0358 0.0428 0.1470 Uiso
C26D C -0.3597(4) -0.00374(16) 0.08168(18) 0.1300 Uani
H22D H -0.2990 0.0007 0.0790 0.1560 Uiso
C27D C -0.4064(4) 0.01190(12) 0.10784(13) 0.0817 Uani
C28D C -0.4948(4) 0.00648(15) 0.10787(17) 0.1190 Uani
H23D H -0.5301 0.0177 0.1238 0.1430 Uiso
C29D C -0.5372(4) -0.01539(15) 0.08491(17) 0.1237 Uani
H24D H -0.5990 -0.0180 0.0861 0.1480 Uiso
C30D C -0.3622(4) 0.03461(13) 0.13135(13) 0.0860 Uani
C31D C -0.2741(5) 0.03130(16) 0.14041(18) 0.1327 Uani
H25D H -0.2411 0.0145 0.1306 0.1590 Uiso
C32D C -0.2321(4) 0.05194(16) 0.16354(17) 0.1273 Uani
H26D H -0.1726 0.0482 0.1695 0.1530 Uiso
C33D C -0.2748(4) 0.07707(12) 0.17748(13) 0.0807 Uani
C34D C -0.3612(5) 0.08123(14) 0.16880(17) 0.1270 Uani
H27D H -0.3929 0.0985 0.1784 0.1520 Uiso
C35D C -0.4048(4) 0.06030(15) 0.14576(17) 0.1257 Uani
H28D H -0.4645 0.0641 0.1402 0.1510 Uiso
C36D C -0.2305(4) 0.09942(13) 0.20308(13) 0.0780 Uani
C37D C -0.6402(5) -0.14066(17) 0.0598(2) 0.1577 Uani
C38D C -0.7005(5) -0.13610(16) 0.08609(19) 0.1577 Uani
H29D H -0.7236 -0.1154 0.0895 0.1890 Uiso
C39D C -0.7292(5) -0.16119(16) 0.10832(19) 0.1577 Uani
H30D H -0.7700 -0.1567 0.1260 0.1890 Uiso
C40D C -0.6983(5) -0.19156(17) 0.1043(2) 0.1577 Uani
C41D C -0.6358(5) -0.19426(16) 0.08228(19) 0.1577 Uani
H31D H -0.6059 -0.2140 0.0808 0.1890 Uiso
C42D C -0.6085(5) -0.16882(16) 0.05957(19) 0.1577 Uani
H32D H -0.5639 -0.1734 0.0434 0.1890 Uiso
C43D C -0.7299(5) -0.21746(14) 0.12845(15) 0.1060 Uani
C44D C -0.8138(4) -0.21820(16) 0.14196(19) 0.1430 Uani
H33D H -0.8546 -0.2023 0.1355 0.1720 Uiso
C45D C -0.8403(4) -0.24168(15) 0.16484(17) 0.1277 Uani
H34D H -0.8989 -0.2415 0.1730 0.1530 Uiso
C46D C -0.7840(4) -0.26499(12) 0.17586(14) 0.0870 Uani
C47D C -0.6987(4) -0.26433(14) 0.16321(17) 0.1317 Uani
H35D H -0.6579 -0.2801 0.1703 0.1580 Uiso
C48D C -0.6718(5) -0.24068(16) 0.14014(18) 0.1397 Uani
H36D H -0.6129 -0.2405 0.1323 0.1680 Uiso
C49D C -0.8139(4) -0.28929(12) 0.20243(13) 0.0820 Uani
C50D C -0.7505(5) -0.0533(2) -0.0196(2) 0.1463 Uani
C51D C -0.7825(5) -0.02373(18) -0.01289(19) 0.1463 Uani
H37D H -0.7557 -0.0115 0.0046 0.1760 Uiso
C52D C -0.8569(5) -0.01000(19) -0.03172(19) 0.1463 Uani
H38D H -0.8725 0.0116 -0.0281 0.1760 Uiso
C53D C -0.9054(5) -0.0284(2) -0.0551(2) 0.1463 Uani
C54D C -0.8708(5) -0.05799(18) -0.06215(19) 0.1463 Uani
H39D H -0.8970 -0.0706 -0.0795 0.1760 Uiso
C55D C -0.7973(5) -0.07001(19) -0.04416(19) 0.1463 Uani
H40D H -0.7787 -0.0910 -0.0493 0.1760 Uiso
C56D C -0.9877(8) -0.0165(4) -0.0727(4) 0.2667 Uani
C57D C -1.0322(8) 0.0085(3) -0.0595(3) 0.2667 Uani
H41D H -1.0118 0.0180 -0.0390 0.3200 Uiso
C58D C -1.1112(8) 0.0212(3) -0.0760(3) 0.2667 Uani
H42D H -1.1411 0.0391 -0.0670 0.3200 Uiso
C59D C -1.1400(8) 0.0062(4) -0.1048(4) 0.2667 Uani
C60D C -1.0878(8) -0.0156(3) -0.1234(3) 0.2667 Uani
H43D H -1.1043 -0.0232 -0.1453 0.3200 Uiso
C61D C -1.0040(8) -0.0261(3) -0.1060(3) 0.2667 Uani
H44D H -0.9629 -0.0390 -0.1178 0.3200 Uiso
C62D C -1.2190(8) 0.0241(4) -0.1199(4) 0.2667 Uani
Fe1A Fe 0.04004(6) -0.18737(2) -0.2500 0.0723 Uani
Fe1B Fe 0.95996(6) 0.31263(2) -0.2500 0.0723 Uani
Fe1C Fe -0.95996(6) -0.31263(2) 0.2500 0.0723 Uani
Fe2A Fe 0.07220(6) -0.10808(2) -0.2500 0.0745 Uani
Fe3A Fe 0.24727(7) -0.15692(2) -0.2500 0.0753 Uani
Fe3B Fe 0.75273(7) 0.34308(2) -0.2500 0.0753 Uani
Fe3C Fe -0.75273(7) -0.34308(2) 0.2500 0.0753 Uani
O1E O 0.0428(2) 0.16952(8) 0.28773(8) 0.0897 Uani
O2E O 0.0173(3) 0.11660(9) 0.28710(10) 0.1043 Uani
O3A O -0.1558(3) 0.09120(8) 0.28680(10) 0.1057 Uani
O4A O -0.2722(2) 0.12349(8) 0.28670(9) 0.0983 Uani
O5B O -0.2460(3) 0.19124(9) 0.21222(10) 0.1003 Uani
O5G O -0.2460(3) 0.19124(9) 0.28778(10) 0.1003 Uani
O6B O -0.1086(3) 0.21160(8) 0.21284(9) 0.0950 Uani
O6G O -0.1086(3) 0.21160(8) 0.28716(9) 0.0950 Uani
loop_
_atom_site_aniso_label
_atom_site_aniso_U_11
_atom_site_aniso_U_22
_atom_site_aniso_U_33
_atom_site_aniso_U_23
_atom_site_aniso_U_13
_atom_site_aniso_U_12
Fe1 0.0791(6) 0.0740(6) 0.0639(6) 0.000 0.000 0.0199(5)
Fe2 0.0766(6) 0.0745(6) 0.0723(6) 0.000 0.000 0.0170(5)
Fe3 0.0780(6) 0.0717(6) 0.0762(6) 0.000 0.000 0.0169(5)
O1 0.097(2) 0.095(2) 0.077(2) -0.0118(19) 0.0228(19) 0.011(2)
O2 0.112(3) 0.087(3) 0.114(3) 0.005(2) 0.046(2) 0.020(2)
O3 0.107(3) 0.097(3) 0.113(3) -0.032(2) -0.029(2) 0.025(2)
O4 0.098(3) 0.090(2) 0.107(3) -0.025(2) -0.019(2) 0.020(2)
O5 0.094(3) 0.097(3) 0.110(3) 0.034(2) 0.012(2) -0.015(2)
O6 0.088(3) 0.099(3) 0.098(3) 0.036(2) 0.022(2) -0.007(2)
O7 0.210(3) 0.348(5) 0.242(4) 0.010(4) -0.034(3) 0.100(3)
O8 0.210(3) 0.348(5) 0.242(4) 0.010(4) -0.034(3) 0.100(3)
O9 0.115(4) 0.094(3) 0.111(4) 0.000 0.000 0.004(3)
O10 0.098(4) 0.095(3) 0.130(4) 0.000 0.000 0.019(3)
O11 0.092(4) 0.099(4) 0.143(5) 0.000 0.000 0.022(3)
O12 0.074(3) 0.058(2) 0.060(2) 0.000 0.000 0.008(2)
C1 0.077(4) 0.100(4) 0.064(3) -0.006(3) 0.018(3) 0.028(3)
C2 0.088(4) 0.090(4) 0.089(4) -0.004(3) 0.015(3) 0.011(3)
C3 0.159(6) 0.094(4) 0.146(6) -0.002(4) 0.075(5) -0.005(4)
C4 0.176(7) 0.102(5) 0.156(6) -0.027(4) 0.095(6) -0.001(5)
C5 0.109(4) 0.099(4) 0.088(4) -0.004(3) 0.032(3) -0.004(4)
C6 0.128(5) 0.096(4) 0.124(5) -0.013(4) 0.048(4) -0.015(4)
C7 0.132(5) 0.094(4) 0.104(4) -0.019(3) 0.048(4) 0.003(4)
C8 0.119(5) 0.089(4) 0.078(4) -0.004(3) 0.036(3) 0.009(3)
C9 0.173(7) 0.128(6) 0.120(5) 0.017(4) 0.079(5) 0.025(5)
C10 0.181(7) 0.112(5) 0.129(5) 0.022(4) 0.064(5) 0.033(5)
C11 0.098(4) 0.068(3) 0.074(3) 0.008(3) 0.019(3) 0.002(3)
C12 0.176(7) 0.101(5) 0.124(5) 0.011(4) 0.070(5) 0.004(5)
C13 0.172(7) 0.092(4) 0.148(6) -0.002(4) 0.077(5) 0.014(4)
C14 0.087(3) 0.071(3) 0.063(3) 0.001(2) 0.021(3) -0.007(3)
C15 0.086(3) 0.069(3) 0.066(3) 0.010(2) 0.011(3) -0.005(3)
C16 0.089(3) 0.074(3) 0.064(3) 0.002(2) 0.013(3) -0.008(3)
C17 0.102(4) 0.079(3) 0.066(3) 0.005(3) 0.016(3) 0.001(3)
C18 0.094(4) 0.072(3) 0.073(3) 0.006(3) 0.025(3) -0.007(3)
C19 0.108(4) 0.074(3) 0.074(3) 0.004(3) 0.015(3) -0.001(3)
C20 0.096(4) 0.086(3) 0.075(3) 0.009(3) 0.012(3) -0.009(3)
C21 0.097(4) 0.072(3) 0.080(3) 0.007(3) 0.023(3) 0.003(3)
C22 0.102(4) 0.081(3) 0.091(4) 0.002(3) 0.028(3) -0.013(3)
C23 0.091(4) 0.084(3) 0.076(3) 0.003(3) 0.024(3) -0.011(3)
C24 0.090(4) 0.072(3) 0.074(3) -0.001(3) 0.019(3) -0.008(3)
C25 0.107(5) 0.148(6) 0.113(5) -0.051(4) 0.010(4) -0.006(4)
C26 0.099(5) 0.150(6) 0.141(6) -0.047(5) 0.005(4) -0.007(4)
C27 0.085(4) 0.084(3) 0.076(3) -0.008(3) 0.007(3) 0.005(3)
C28 0.106(5) 0.115(5) 0.136(5) -0.055(4) 0.026(4) 0.004(4)
C29 0.093(4) 0.126(5) 0.152(6) -0.055(5) 0.029(4) -0.007(4)
C30 0.097(4) 0.086(4) 0.075(3) -0.009(3) -0.002(3) 0.003(3)
C31 0.122(6) 0.127(5) 0.149(6) -0.068(5) -0.010(5) 0.024(4)
C32 0.104(5) 0.134(5) 0.144(6) -0.059(5) -0.029(4) 0.026(4)
C33 0.084(4) 0.084(4) 0.074(3) -0.002(3) -0.012(3) 0.007(3)
C34 0.133(6) 0.099(4) 0.149(6) -0.049(4) -0.033(5) 0.022(4)
C35 0.116(5) 0.109(4) 0.152(6) -0.046(4) -0.040(4) 0.028(4)
C36 0.076(4) 0.085(4) 0.073(3) 0.010(3) -0.004(3) 0.001(3)
C37 0.191(3) 0.111(2) 0.171(3) 0.047(2) 0.094(2) 0.010(2)
C38 0.191(3) 0.111(2) 0.171(3) 0.047(2) 0.094(2) 0.010(2)
C39 0.191(3) 0.111(2) 0.171(3) 0.047(2) 0.094(2) 0.010(2)
C40 0.191(3) 0.111(2) 0.171(3) 0.047(2) 0.094(2) 0.010(2)
C41 0.191(3) 0.111(2) 0.171(3) 0.047(2) 0.094(2) 0.010(2)
C42 0.191(3) 0.111(2) 0.171(3) 0.047(2) 0.094(2) 0.010(2)
C43 0.133(5) 0.084(4) 0.101(4) 0.025(3) 0.024(4) -0.004(4)
C44 0.101(5) 0.145(6) 0.183(7) 0.088(5) 0.041(5) 0.010(4)
C45 0.095(4) 0.134(5) 0.154(6) 0.070(5) 0.035(4) 0.004(4)
C46 0.098(4) 0.075(3) 0.088(4) 0.014(3) 0.017(3) -0.011(3)
C47 0.124(5) 0.106(4) 0.165(6) 0.070(4) 0.055(5) 0.017(4)
C48 0.138(6) 0.120(5) 0.161(6) 0.050(5) 0.067(5) 0.006(5)
C49 0.103(4) 0.068(3) 0.075(3) 0.008(3) 0.006(3) -0.015(3)
C50 0.129(3) 0.160(3) 0.150(3) -0.008(2) -0.016(2) 0.031(2)
C51 0.129(3) 0.160(3) 0.150(3) -0.008(2) -0.016(2) 0.031(2)
C52 0.129(3) 0.160(3) 0.150(3) -0.008(2) -0.016(2) 0.031(2)
C53 0.129(3) 0.160(3) 0.150(3) -0.008(2) -0.016(2) 0.031(2)
C54 0.129(3) 0.160(3) 0.150(3) -0.008(2) -0.016(2) 0.031(2)
C55 0.129(3) 0.160(3) 0.150(3) -0.008(2) -0.016(2) 0.031(2)
C56 0.210(3) 0.348(5) 0.242(4) 0.010(4) -0.034(3) 0.100(3)
C57 0.210(3) 0.348(5) 0.242(4) 0.010(4) -0.034(3) 0.100(3)
C58 0.210(3) 0.348(5) 0.242(4) 0.010(4) -0.034(3) 0.100(3)
C59 0.210(3) 0.348(5) 0.242(4) 0.010(4) -0.034(3) 0.100(3)
C60 0.210(3) 0.348(5) 0.242(4) 0.010(4) -0.034(3) 0.100(3)
C61 0.210(3) 0.348(5) 0.242(4) 0.010(4) -0.034(3) 0.100(3)
C62 0.210(3) 0.348(5) 0.242(4) 0.010(4) -0.034(3) 0.100(3)
O1D 0.097 0.095 0.077 -0.0118 0.0228 0.011
O2D 0.112 0.087 0.114 0.005 0.046 0.02
O3D 0.107 0.097 0.113 -0.032 -0.029 0.025
O4D 0.098 0.09 0.107 -0.025 -0.019 0.02
O5D 0.094 0.097 0.11 0.034 0.012 -0.015
O6D 0.088 0.099 0.098 0.036 0.022 -0.007
O7D 0.21 0.348 0.242 0.01 -0.034 0.1
O8D 0.21 0.348 0.242 0.01 -0.034 0.1
C1D 0.077 0.1 0.064 -0.006 0.018 0.028
C2D 0.088 0.09 0.089 -0.004 0.015 0.011
C3D 0.159 0.094 0.146 -0.002 0.075 -0.005
C4D 0.176 0.102 0.156 -0.027 0.095 -0.001
C5D 0.109 0.099 0.088 -0.004 0.032 -0.004
C6D 0.128 0.096 0.124 -0.013 0.048 -0.015
C7D 0.132 0.094 0.104 -0.019 0.048 0.003
C8D 0.119 0.089 0.078 -0.004 0.036 0.009
C9D 0.173 0.128 0.12 0.017 0.079 0.025
C10D 0.181 0.112 0.129 0.022 0.064 0.033
C11D 0.098 0.068 0.074 0.008 0.019 0.002
C12D 0.176 0.101 0.124 0.011 0.07 0.004
C13D 0.172 0.092 0.148 -0.002 0.077 0.014
C14D 0.087 0.071 0.063 0.001 0.021 -0.007
C15D 0.086 0.069 0.066 0.01 0.011 -0.005
C16D 0.089 0.074 0.064 0.002 0.013 -0.008
C17D 0.102 0.079 0.066 0.005 0.016 0.001
C18D 0.094 0.072 0.073 0.006 0.025 -0.007
C19D 0.108 0.074 0.074 0.004 0.015 -0.001
C20D 0.096 0.086 0.075 0.009 0.012 -0.009
C21D 0.097 0.072 0.08 0.007 0.023 0.003
C22D 0.102 0.081 0.091 0.002 0.028 -0.013
C23D 0.091 0.084 0.076 0.003 0.024 -0.011
C24D 0.09 0.072 0.074 -0.001 0.019 -0.008
C25D 0.107 0.148 0.113 -0.051 0.01 -0.006
C26D 0.099 0.15 0.141 -0.047 0.005 -0.007
C27D 0.085 0.084 0.076 -0.008 0.007 0.005
C28D 0.106 0.115 0.136 -0.055 0.026 0.004
C29D 0.093 0.126 0.152 -0.055 0.029 -0.007
C30D 0.097 0.086 0.075 -0.009 -0.002 0.003
C31D 0.122 0.127 0.149 -0.068 -0.01 0.024
C32D 0.104 0.134 0.144 -0.059 -0.029 0.026
C33D 0.084 0.084 0.074 -0.002 -0.012 0.007
C34D 0.133 0.099 0.149 -0.049 -0.033 0.022
C35D 0.116 0.109 0.152 -0.046 -0.04 0.028
C36D 0.076 0.085 0.073 0.01 -0.004 0.001
C37D 0.191 0.111 0.171 0.047 0.094 0.01
C38D 0.191 0.111 0.171 0.047 0.094 0.01
C39D 0.191 0.111 0.171 0.047 0.094 0.01
C40D 0.191 0.111 0.171 0.047 0.094 0.01
C41D 0.191 0.111 0.171 0.047 0.094 0.01
C42D 0.191 0.111 0.171 0.047 0.094 0.01
C43D 0.133 0.084 0.101 0.025 0.024 -0.004
C44D 0.101 0.145 0.183 0.088 0.041 0.01
C45D 0.095 0.134 0.154 0.07 0.035 0.004
C46D 0.098 0.075 0.088 0.014 0.017 -0.011
C47D 0.124 0.106 0.165 0.07 0.055 0.017
C48D 0.138 0.12 0.161 0.05 0.067 0.006
C49D 0.103 0.068 0.075 0.008 0.006 -0.015
C50D 0.129 0.16 0.15 -0.008 -0.016 0.031
C51D 0.129 0.16 0.15 -0.008 -0.016 0.031
C52D 0.129 0.16 0.15 -0.008 -0.016 0.031
C53D 0.129 0.16 0.15 -0.008 -0.016 0.031
C54D 0.129 0.16 0.15 -0.008 -0.016 0.031
C55D 0.129 0.16 0.15 -0.008 -0.016 0.031
C56D 0.21 0.348 0.242 0.01 -0.034 0.1
C57D 0.21 0.348 0.242 0.01 -0.034 0.1
C58D 0.21 0.348 0.242 0.01 -0.034 0.1
C59D 0.21 0.348 0.242 0.01 -0.034 0.1
C60D 0.21 0.348 0.242 0.01 -0.034 0.1
C61D 0.21 0.348 0.242 0.01 -0.034 0.1
C62D 0.21 0.348 0.242 0.01 -0.034 0.1
Fe1A 0.0791 0.074 0.0639 0 0 0.0199
Fe1B 0.0791 0.074 0.0639 0 0 -0.0199
Fe1C 0.0791 0.074 0.0639 0 0 -0.0199
Fe2A 0.0766 0.0745 0.0723 0 0 0.017
Fe3A 0.078 0.0717 0.0762 0 0 0.0169
Fe3B 0.078 0.0717 0.0762 0 0 -0.0169
Fe3C 0.078 0.0717 0.0762 0 0 -0.0169
O1E 0.097 0.095 0.077 0.0118 -0.0228 0.011
O2E 0.112 0.087 0.114 -0.005 -0.046 0.02
O3A 0.107 0.097 0.113 0.032 0.029 0.025
O4A 0.098 0.09 0.107 0.025 0.019 0.02
O5B 0.094 0.097 0.11 0.034 -0.012 0.015
O5G 0.094 0.097 0.11 -0.034 0.012 0.015
O6B 0.088 0.099 0.098 0.036 -0.022 0.007
O6G 0.088 0.099 0.098 -0.036 0.022 0.007
loop_
_geom_bond_atom_site_label_1
_geom_bond_atom_site_label_2
_geom_bond_site_symmetry_1
_geom_bond_site_symmetry_2
Fe1 O1 1_555 1_555
Fe2 O2 1_555 1_555
Fe3 O11 1_555 1_555
O1 C1 1_555 1_555
O2 C1 1_555 1_555
O3 C36 1_555 1_555
O4 C36 1_555 1_555
O5 C49 1_555 1_555
O6 C49 1_555 1_555
O7 C62 1_555 1_555
O8 C62 1_555 1_555
O9 Fe1 1_555 1_555
O10 Fe2 1_555 1_555
O12 Fe1 1_555 1_555
C1 C2 1_555 1_555
C2 C3 1_555 1_555
C3 H1 1_555 1_555
C4 C3 1_555 1_555
H2 C4 1_555 1_555
C5 C4 1_555 1_555
C6 C5 1_555 1_555
H3 C6 1_555 1_555
C7 C2 1_555 1_555
H4 C7 1_555 1_555
C8 C5 1_555 1_555
C9 C8 1_555 1_555
H5 C9 1_555 1_555
C10 C9 1_555 1_555
H6 C10 1_555 1_555
C11 C10 1_555 1_555
C12 C11 1_555 1_555
H7 C12 1_555 1_555
C13 C8 1_555 1_555
H8 C13 1_555 1_555
C14 C11 1_555 1_555
C15 C14 1_555 1_555
H9 C15 1_555 1_555
H10 C15 1_555 1_555
C16 C15 1_555 1_555
C17 C16 1_555 1_555
H11 C17 1_555 1_555
H12 C17 1_555 1_555
C18 C17 1_555 1_555
C19 C14 1_555 1_555
H13 C19 1_555 1_555
H14 C19 1_555 1_555
C20 C14 1_555 1_555
H15 C20 1_555 1_555
H16 C20 1_555 1_555
C21 C16 1_555 1_555
H17 C21 1_555 1_555
H18 C21 1_555 1_555
C22 C18 1_555 1_555
H19 C22 1_555 1_555
H20 C22 1_555 1_555
C23 C20 1_555 1_555
C24 C16 1_555 1_555
C25 C24 1_555 1_555
H21 C25 1_555 1_555
C26 C25 1_555 1_555
H22 C26 1_555 1_555
C27 C26 1_555 1_555
C28 C27 1_555 1_555
H23 C28 1_555 1_555
C29 C24 1_555 1_555
H24 C29 1_555 1_555
C30 C27 1_555 1_555
C31 C30 1_555 1_555
H25 C31 1_555 1_555
C32 C31 1_555 1_555
H26 C32 1_555 1_555
C33 C32 1_555 1_555
C34 C33 1_555 1_555
H27 C34 1_555 1_555
C35 C30 1_555 1_555
H28 C35 1_555 1_555
C36 C33 1_555 1_555
C37 C18 1_555 1_555
C38 C37 1_555 1_555
H29 C38 1_555 1_555
C39 C38 1_555 1_555
H30 C39 1_555 1_555
C40 C39 1_555 1_555
C41 C40 1_555 1_555
H31 C41 1_555 1_555
C42 C37 1_555 1_555
H32 C42 1_555 1_555
C43 C40 1_555 1_555
C44 C43 1_555 1_555
H33 C44 1_555 1_555
C45 C44 1_555 1_555
H34 C45 1_555 1_555
C46 C45 1_555 1_555
C47 C46 1_555 1_555
H35 C47 1_555 1_555
C48 C43 1_555 1_555
H36 C48 1_555 1_555
C49 C46 1_555 1_555
C50 C23 1_555 1_555
C51 C50 1_555 1_555
H37 C51 1_555 1_555
C52 C51 1_555 1_555
H38 C52 1_555 1_555
C53 C52 1_555 1_555
C54 C53 1_555 1_555
H39 C54 1_555 1_555
C55 C50 1_555 1_555
H40 C55 1_555 1_555
C56 C53 1_555 1_555
C57 C56 1_555 1_555
H41 C57 1_555 1_555
C58 C57 1_555 1_555
H42 C58 1_555 1_555
C59 C58 1_555 1_555
C60 C59 1_555 1_555
H43 C60 1_555 1_555
C61 C56 1_555 1_555
H44 C61 1_555 1_555
C62 C59 1_555 1_555
O1D C1D 1_555 1_555
O2D C1D 1_555 1_555
O3D Fe2 1_555 1_555
O4D Fe3 1_555 1_555
O5D C49D 1_555 1_555
O6D C49D 1_555 1_555
O7D C62D 1_555 1_555
O8D C62D 1_555 1_555
C1D C2D 1_555 1_555
C2D C3D 1_555 1_555
C3D H1D 1_555 1_555
C4D C3D 1_555 1_555
H2D C4D 1_555 1_555
C5D C4D 1_555 1_555
C6D C5D 1_555 1_555
H3D C6D 1_555 1_555
C7D C2D 1_555 1_555
H4D C7D 1_555 1_555
C8D C5D 1_555 1_555
C9D C8D 1_555 1_555
H5D C9D 1_555 1_555
C10D C9D 1_555 1_555
H6D C10D 1_555 1_555
C11D C10D 1_555 1_555
C12D C11D 1_555 1_555
H7D C12D 1_555 1_555
C13D C8D 1_555 1_555
H8D C13D 1_555 1_555
C14D C11D 1_555 1_555
C15D C14D 1_555 1_555
H9D C15D 1_555 1_555
H10D C15D 1_555 1_555
C16D C15D 1_555 1_555
C17D C16D 1_555 1_555
H11D C17D 1_555 1_555
H12D C17D 1_555 1_555
C18D C17D 1_555 1_555
C19D C14D 1_555 1_555
H13D C19D 1_555 1_555
H14D C19D 1_555 1_555
C20D C14D 1_555 1_555
H15D C20D 1_555 1_555
H16D C20D 1_555 1_555
C21D C16D 1_555 1_555
H17D C21D 1_555 1_555
H18D C21D 1_555 1_555
C22D C18D 1_555 1_555
H19D C22D 1_555 1_555
H20D C22D 1_555 1_555
C23D C20D 1_555 1_555
C24D C16D 1_555 1_555
C25D C24D 1_555 1_555
H21D C25D 1_555 1_555
C26D C25D 1_555 1_555
H22D C26D 1_555 1_555
C27D C26D 1_555 1_555
C28D C27D 1_555 1_555
H23D C28D 1_555 1_555
C29D C24D 1_555 1_555
H24D C29D 1_555 1_555
C30D C27D 1_555 1_555
C31D C30D 1_555 1_555
H25D C31D 1_555 1_555
C32D C31D 1_555 1_555
H26D C32D 1_555 1_555
C33D C32D 1_555 1_555
C34D C33D 1_555 1_555
H27D C34D 1_555 1_555
C35D C30D 1_555 1_555
H28D C35D 1_555 1_555
C36D O3D 1_555 1_555
C37D C18D 1_555 1_555
C38D C37D 1_555 1_555
H29D C38D 1_555 1_555
C39D C38D 1_555 1_555
H30D C39D 1_555 1_555
C40D C39D 1_555 1_555
C41D C40D 1_555 1_555
H31D C41D 1_555 1_555
C42D C37D 1_555 1_555
H32D C42D 1_555 1_555
C43D C40D 1_555 1_555
C44D C43D 1_555 1_555
H33D C44D 1_555 1_555
C45D C44D 1_555 1_555
H34D C45D 1_555 1_555
C46D C45D 1_555 1_555
C47D C46D 1_555 1_555
H35D C47D 1_555 1_555
C48D C43D 1_555 1_555
H36D C48D 1_555 1_555
C49D C46D 1_555 1_555
C50D C23D 1_555 1_555
C51D C50D 1_555 1_555
H37D C51D 1_555 1_555
C52D C51D 1_555 1_555
H38D C52D 1_555 1_555
C53D C52D 1_555 1_555
C54D C53D 1_555 1_555
H39D C54D 1_555 1_555
C55D C50D 1_555 1_555
H40D C55D 1_555 1_555
C56D C53D 1_555 1_555
C57D C56D 1_555 1_555
H41D C57D 1_555 1_555
C58D C57D 1_555 1_555
H42D C58D 1_555 1_555
C59D C58D 1_555 1_555
C60D C59D 1_555 1_555
H43D C60D 1_555 1_555
C61D C56D 1_555 1_555
H44D C61D 1_555 1_555
C62D C59D 1_555 1_555
Fe1A O1D 1_555 1_555
Fe1B O6 1_555 1_555
Fe1C O6D 1_555 1_555
Fe2A O3 1_555 1_555
Fe3A O4 1_555 1_555
Fe3B O5 1_555 1_555
Fe3C O5D 1_555 1_555
O1E Fe1 1_555 1_555
O2E Fe2 1_555 1_555
O3A Fe2 1_555 1_555
O4A Fe3 1_555 1_555
O5B Fe3 1_555 1_555
O5G Fe3 1_555 1_555
O6B Fe1 1_555 1_555
O6G Fe1 1_555 1_555
Fe2 O12 1_555 1_555
Fe3 O12 1_555 1_555
C6 C7 1_555 1_555
C12 C13 1_555 1_555
C18 C19 1_555 1_555
C21 C23 1_555 1_555
C22 C23 1_555 1_555
C28 C29 1_555 1_555
C34 C35 1_555 1_555
C41 C42 1_555 1_555
C47 C48 1_555 1_555
C54 C55 1_555 1_555
C60 C61 1_555 1_555
O2D Fe2A 1_555 1_555
O4D C36D 1_555 1_555
C6D C7D 1_555 1_555
C12D C13D 1_555 1_555
C18D C19D 1_555 1_555
C21D C23D 1_555 1_555
C22D C23D 1_555 1_555
C28D C29D 1_555 1_555
C33D C36D 1_555 1_555
C34D C35D 1_555 1_555
C41D C42D 1_555 1_555
C47D C48D 1_555 1_555
C54D C55D 1_555 1_555
C60D C61D 1_555 1_555

#END
