
#######################################################################
#
#                 Cambridge Crystallographic Data Centre
#                                CCDC 
#
#######################################################################
#
# If this CIF has been generated from an entry in the Cambridge 
# Structural Database, then it will include bibliographic, chemical, 
# crystal, experimental, refinement or atomic coordinate data resulting 
# from the CCDC's data processing and validation procedures.
#
#######################################################################

data_TOWPEC
_chemical_formula_moiety         '(C96 H60 Fe12 N12 O64)n'
_symmetry_cell_setting           cubic
_symmetry_space_group_name_H-M   'I a -3'
_symmetry_Int_Tables_number      206
_space_group_name_Hall           '-I 2b 2c 3'
loop_
_symmetry_equiv_pos_site_id
_symmetry_equiv_pos_as_xyz
1 x,y,z
2 z,x,y
3 y,z,x
4 -y,1/2-z,x
5 z,-x,1/2-y
6 1/2-y,z,-x
7 -z,1/2-x,y
8 1/2-z,x,-y
9 y,-z,1/2-x
10 -x,1/2-y,z
11 x,-y,1/2-z
12 1/2-x,y,-z
13 1/2+x,1/2+y,1/2+z
14 1/2+z,1/2+x,1/2+y
15 1/2+y,1/2+z,1/2+x
16 1/2-y,-z,1/2+x
17 1/2+z,1/2-x,-y
18 -y,1/2+z,1/2-x
19 1/2-z,-x,1/2+y
20 -z,1/2+x,1/2-y
21 1/2+y,1/2-z,-x
22 1/2-x,-y,1/2+z
23 1/2+x,1/2-y,-z
24 -x,1/2+y,1/2-z
25 -x,-y,-z
26 -z,-x,-y
27 -y,-z,-x
28 y,1/2+z,-x
29 -z,x,1/2+y
30 1/2+y,-z,x
31 z,1/2+x,-y
32 1/2+z,-x,y
33 -y,z,1/2+x
34 x,1/2+y,-z
35 -x,y,1/2+z
36 1/2+x,-y,z
37 1/2-x,1/2-y,1/2-z
38 1/2-z,1/2-x,1/2-y
39 1/2-y,1/2-z,1/2-x
40 1/2+y,z,1/2-x
41 1/2-z,1/2+x,y
42 y,1/2-z,1/2+x
43 1/2+z,x,1/2-y
44 z,1/2-x,1/2+y
45 1/2-y,1/2+z,x
46 1/2+x,y,1/2-z
47 1/2-x,1/2+y,z
48 x,1/2-y,1/2+z
_cell_length_a                   44.043(17)
_cell_length_b                   44.043(17)
_cell_length_c                   44.043(17)
_cell_angle_alpha                90
_cell_angle_beta                 90
_cell_angle_gamma                90
_cell_volume                     85434
loop_
_atom_site_label
_atom_site_type_symbol
_atom_site_fract_x
_atom_site_fract_y
_atom_site_fract_z
_atom_site_U_iso_or_equiv
_atom_site_thermal_displace_type
Fe1 Fe 0.1480(2) 0.8961(2) 0.1324(2) 0.0205 Uani
Fe2 Fe 0.1166(2) 0.8349(2) 0.10097(16) 0.0205 Uani
Fe3 Fe 0.08638(18) 0.86572(18) 0.16332(14) 0.0205 Uani
Fe4 Fe 0.1459(2) 0.91501(17) 0.3828(3) 0.0205 Uani
O1 O 0.1424(2) 0.8620(2) -0.0495(2) 0.0328 Uani
O2 O 0.1583(3) 0.9051(2) -0.0697(2) 0.0328 Uani
O3 O 0.1262(2) 0.8631(2) 0.0672(2) 0.0328 Uani
O4 O 0.1458(3) 0.9041(2) 0.0903(2) 0.0328 Uani
O5 O 0.1603(2) 1.0788(2) -0.0911(2) 0.0328 Uani
O6 O 0.1411(2) 1.1198(2) -0.0671(2) 0.0328 Uani
O7 O 0.1429(2) 1.0743(2) 0.0701(2) 0.0328 Uani
O8 O 0.1261(3) 1.1175(2) 0.0487(2) 0.0328 Uani
O9 O 0.1136(2) 0.8754(3) 0.2012(2) 0.0393 Uani
O10 O 0.1563(2) 0.8919(3) 0.1799(2) 0.0393 Uani
O11 O 0.1107(2) 0.8943(3) 0.3188(2) 0.0393 Uani
O12 O 0.1527(2) 0.9124(3) 0.3406(2) 0.0393 Uani
O13 O 0.3275(2) 0.8932(3) 0.1582(2) 0.0393 Uani
O14 O 0.3680(2) 0.8735(3) 0.1832(2) 0.0393 Uani
O15 O 0.3256(2) 0.9084(3) 0.3197(2) 0.0393 Uani
O16 O 0.3685(2) 0.8912(3) 0.3000(2) 0.0393 Uani
O17 O 0.1801(2) 0.9310(2) 0.1361(2) 0.0293 Uani
O18 O 0.1155(2) 0.8669(2) 0.1345(2) 0.0293 Uani
O19 O 0.0523(2) 0.8649(2) 0.1981(2) 0.0293 Uani
O20 O 0.1135(2) 0.8009(2) 0.0700(2) 0.0293 Uani
O21 O 0.1802(2) 0.9494(2) 0.3849(2) 0.0293 Uani
O22 O 0.1154(2) 0.8846(2) 0.3846(2) 0.0293 Uani
N1 N 0.1518(4) 0.9847(3) 0.0113(3) 0.0538 Uani
N2 N 0.1507(4) 0.9979(3) -0.0135(3) 0.0538 Uani
N3 N 0.2343(3) 0.9059(4) 0.2621(3) 0.0571 Uani
N4 N 0.2480(3) 0.9048(4) 0.2379(3) 0.0571 Uani
C1 C 0.1500(5) 0.8905(4) -0.0488(4) 0.0538 Uani
C2 C 0.1486(5) 0.9055(4) -0.0182(4) 0.0538 Uani
C3 C 0.1545(5) 0.9366(4) -0.0187(4) 0.0538 Uani
H1 H 0.1598 0.9470 -0.0369 0.0650 Uiso
C4 C 0.1520(5) 0.9522(4) 0.0103(4) 0.0538 Uani
C5 C 0.1456(5) 0.9369(4) 0.0358(4) 0.0538 Uani
H2 H 0.1440 0.9477 0.0544 0.0650 Uiso
C6 C 0.1412(5) 0.9056(4) 0.0359(4) 0.0538 Uani
C7 C 0.1419(5) 0.8902(4) 0.0090(4) 0.0538 Uani
H3 H 0.1378 0.8690 0.0087 0.0650 Uiso
C8 C 0.1368(5) 0.8905(4) 0.0658(4) 0.0538 Uani
C9 C 0.1505(5) 1.0301(4) -0.0100(4) 0.0538 Uani
C10 C 0.1457(5) 1.0458(4) 0.0171(4) 0.0538 Uani
H4 H 0.1455 1.0348 0.0356 0.0650 Uiso
C11 C 0.1414(5) 1.0768(4) 0.0176(4) 0.0538 Uani
C12 C 0.1430(5) 1.0919(4) -0.0092(4) 0.0538 Uani
H5 H 0.1403 1.1133 -0.0092 0.0650 Uiso
C13 C 0.1486(5) 1.0774(4) -0.0371(4) 0.0538 Uani
C14 C 0.1560(5) 1.0458(4) -0.0368(4) 0.0538 Uani
H6 H 0.1643 1.0359 -0.0541 0.0650 Uiso
C15 C 0.1360(5) 1.0907(4) 0.0486(4) 0.0538 Uani
C16 C 0.1531(5) 1.0929(4) -0.0663(4) 0.0538 Uani
C17 C 0.1414(4) 0.8867(6) 0.2010(4) 0.0571 Uani
C18 C 0.1558(4) 0.8917(6) 0.2310(4) 0.0571 Uani
C19 C 0.1396(4) 0.8933(5) 0.2590(4) 0.0571 Uani
H7 H 0.1183 0.8900 0.2592 0.0690 Uiso
C20 C 0.1552(4) 0.9000(6) 0.2874(4) 0.0571 Uani
C21 C 0.1858(4) 0.9038(5) 0.2871(4) 0.0571 Uani
H8 H 0.1963 0.9089 0.3053 0.0690 Uiso
C22 C 0.2019(4) 0.9002(6) 0.2597(4) 0.0571 Uani
C23 C 0.1867(4) 0.8956(5) 0.2325(4) 0.0571 Uani
H9 H 0.1981 0.8952 0.2142 0.0690 Uiso
C24 C 0.1404(4) 0.9021(6) 0.3163(4) 0.0571 Uani
C25 C 0.2808(4) 0.8999(6) 0.2412(4) 0.0571 Uani
C26 C 0.2948(4) 0.9019(5) 0.2681(4) 0.0571 Uani
H10 H 0.2838 0.9056 0.2863 0.0690 Uiso
C27 C 0.3263(4) 0.8982(6) 0.2681(4) 0.0571 Uani
C28 C 0.3419(4) 0.8915(5) 0.2408(4) 0.0571 Uani
H11 H 0.3629 0.8867 0.2411 0.0690 Uiso
C29 C 0.3269(4) 0.8922(6) 0.2148(4) 0.0571 Uani
C30 C 0.2964(4) 0.8948(5) 0.2138(4) 0.0571 Uani
H12 H 0.2857 0.8932 0.1951 0.0690 Uiso
C31 C 0.3436(4) 0.9019(6) 0.2981(4) 0.0571 Uani
C32 C 0.3401(4) 0.8870(6) 0.1844(4) 0.0571 Uani
Fe1A Fe 0.1324(2) 1.1480(2) -0.1039(2) 0.0205 Uani
Fe2A Fe 0.10097(16) 1.1166(2) -0.1651(2) 0.0205 Uani
Fe3A Fe 0.16332(14) 1.08638(18) -0.13428(18) 0.0205 Uani
Fe4A Fe 0.3828(3) 1.1459(2) -0.08499(17) 0.0205 Uani
O1A O -0.0495(2) 1.1424(2) -0.1380(2) 0.0328 Uani
O2A O -0.0697(2) 1.1583(3) -0.0949(2) 0.0328 Uani
O3A O 0.0672(2) 1.1262(2) -0.1369(2) 0.0328 Uani
O4A O 0.0903(2) 1.1458(3) -0.0959(2) 0.0328 Uani
O5A O -0.0911(2) 1.1603(2) 0.0788(2) 0.0328 Uani
O6A O -0.0671(2) 1.1411(2) 0.1198(2) 0.0328 Uani
O7A O 0.0701(2) 1.1429(2) 0.0743(2) 0.0328 Uani
O8A O 0.0487(2) 1.1261(3) 0.1175(2) 0.0328 Uani
O9A O 0.2012(2) 1.1136(2) -0.1246(3) 0.0393 Uani
O10A O 0.1799(2) 1.1563(2) -0.1081(3) 0.0393 Uani
O11A O 0.3188(2) 1.1107(2) -0.1057(3) 0.0393 Uani
O12A O 0.3406(2) 1.1527(2) -0.0876(3) 0.0393 Uani
O13A O 0.1582(2) 1.3275(2) -0.1068(3) 0.0393 Uani
O14A O 0.1832(2) 1.3680(2) -0.1265(3) 0.0393 Uani
O15A O 0.3197(2) 1.3256(2) -0.0916(3) 0.0393 Uani
O16A O 0.3000(2) 1.3685(2) -0.1088(3) 0.0393 Uani
O17A O 0.1361(2) 1.1801(2) -0.0690(2) 0.0293 Uani
O18A O 0.1345(2) 1.1155(2) -0.1331(2) 0.0293 Uani
O19A O 0.1981(2) 1.0523(2) -0.1351(2) 0.0293 Uani
O20A O 0.0700(2) 1.1135(2) -0.1991(2) 0.0293 Uani
O21A O 0.3849(2) 1.1802(2) -0.0506(2) 0.0293 Uani
N1A N 0.0113(3) 1.1518(4) -0.0153(3) 0.0538 Uani
N2A N -0.0135(3) 1.1507(4) -0.0021(3) 0.0538 Uani
N3A N 0.2621(3) 1.2343(3) -0.0941(4) 0.0571 Uani
N4A N 0.2379(3) 1.2480(3) -0.0952(4) 0.0571 Uani
C1A C -0.0488(4) 1.1500(5) -0.1095(4) 0.0538 Uani
C2A C -0.0182(4) 1.1486(5) -0.0945(4) 0.0538 Uani
C3A C -0.0187(4) 1.1545(5) -0.0634(4) 0.0538 Uani
H1A H -0.0369 1.1598 -0.0530 0.0650 Uiso
C4A C 0.0103(4) 1.1520(5) -0.0478(4) 0.0538 Uani
C5A C 0.0358(4) 1.1456(5) -0.0631(4) 0.0538 Uani
H2A H 0.0544 1.1440 -0.0523 0.0650 Uiso
C6A C 0.0359(4) 1.1412(5) -0.0944(4) 0.0538 Uani
C7A C 0.0090(4) 1.1419(5) -0.1098(4) 0.0538 Uani
H3A H 0.0087 1.1378 -0.1310 0.0650 Uiso
C8A C 0.0658(4) 1.1368(5) -0.1095(4) 0.0538 Uani
C9A C -0.0100(4) 1.1505(5) 0.0301(4) 0.0538 Uani
C10A C 0.0171(4) 1.1457(5) 0.0458(4) 0.0538 Uani
H4A H 0.0356 1.1455 0.0348 0.0650 Uiso
C11A C 0.0176(4) 1.1414(5) 0.0768(4) 0.0538 Uani
C12A C -0.0092(4) 1.1430(5) 0.0919(4) 0.0538 Uani
H5A H -0.0092 1.1403 0.1133 0.0650 Uiso
C13A C -0.0371(4) 1.1486(5) 0.0774(4) 0.0538 Uani
C14A C -0.0368(4) 1.1560(5) 0.0458(4) 0.0538 Uani
H6A H -0.0541 1.1643 0.0359 0.0650 Uiso
C15A C 0.0486(4) 1.1360(5) 0.0907(4) 0.0538 Uani
C16A C -0.0663(4) 1.1531(5) 0.0929(4) 0.0538 Uani
C17A C 0.2010(4) 1.1414(4) -0.1133(6) 0.0571 Uani
C18A C 0.2310(4) 1.1558(4) -0.1083(6) 0.0571 Uani
C19A C 0.2590(4) 1.1396(4) -0.1067(5) 0.0571 Uani
H7A H 0.2592 1.1183 -0.1100 0.0690 Uiso
C20A C 0.2874(4) 1.1552(4) -0.1000(6) 0.0571 Uani
C21A C 0.2871(4) 1.1858(4) -0.0962(5) 0.0571 Uani
H8A H 0.3053 1.1963 -0.0911 0.0690 Uiso
C22A C 0.2597(4) 1.2019(4) -0.0998(6) 0.0571 Uani
C23A C 0.2325(4) 1.1867(4) -0.1044(5) 0.0571 Uani
H9A H 0.2142 1.1981 -0.1048 0.0690 Uiso
C24A C 0.3163(4) 1.1404(4) -0.0979(6) 0.0571 Uani
C25A C 0.2412(4) 1.2808(4) -0.1001(6) 0.0571 Uani
C26A C 0.2681(4) 1.2948(4) -0.0981(5) 0.0571 Uani
H10A H 0.2863 1.2838 -0.0944 0.0690 Uiso
C27A C 0.2681(4) 1.3263(4) -0.1018(6) 0.0571 Uani
C28A C 0.2408(4) 1.3419(4) -0.1085(5) 0.0571 Uani
H11A H 0.2411 1.3629 -0.1133 0.0690 Uiso
C29A C 0.2148(4) 1.3269(4) -0.1078(6) 0.0571 Uani
C30A C 0.2138(4) 1.2964(4) -0.1052(5) 0.0571 Uani
H12A H 0.1951 1.2857 -0.1068 0.0690 Uiso
C31A C 0.2981(4) 1.3436(4) -0.0981(6) 0.0571 Uani
C32A C 0.1844(4) 1.3401(4) -0.1130(6) 0.0571 Uani
Fe1B Fe -0.1039(2) 1.1324(2) 0.1480(2) 0.0205 Uani
Fe2B Fe -0.1651(2) 1.10097(16) 0.1166(2) 0.0205 Uani
Fe3B Fe -0.13428(18) 1.16332(14) 0.08638(18) 0.0205 Uani
Fe4B Fe -0.08499(17) 1.3828(3) 0.1459(2) 0.0205 Uani
O1B O -0.1380(2) 0.9505(2) 0.1424(2) 0.0328 Uani
O2B O -0.0949(2) 0.9303(2) 0.1583(3) 0.0328 Uani
O3B O -0.1369(2) 1.0672(2) 0.1262(2) 0.0328 Uani
O4B O -0.0959(2) 1.0903(2) 0.1458(3) 0.0328 Uani
O5B O 0.0788(2) 0.9089(2) 0.1603(2) 0.0328 Uani
O6B O 0.1198(2) 0.9329(2) 0.1411(2) 0.0328 Uani
O7B O 0.0743(2) 1.0701(2) 0.1429(2) 0.0328 Uani
O8B O 0.1175(2) 1.0487(2) 0.1261(3) 0.0328 Uani
O9B O -0.1246(3) 1.2012(2) 0.1136(2) 0.0393 Uani
O10B O -0.1081(3) 1.1799(2) 0.1563(2) 0.0393 Uani
O11B O -0.1057(3) 1.3188(2) 0.1107(2) 0.0393 Uani
O12B O -0.0876(3) 1.3406(2) 0.1527(2) 0.0393 Uani
O13B O -0.1068(3) 1.1582(2) 0.3275(2) 0.0393 Uani
O14B O -0.1265(3) 1.1832(2) 0.3680(2) 0.0393 Uani
O15B O -0.0916(3) 1.3197(2) 0.3256(2) 0.0393 Uani
O16B O -0.1088(3) 1.3000(2) 0.3685(2) 0.0393 Uani
O17B O -0.0690(2) 1.1361(2) 0.1801(2) 0.0293 Uani
O18B O -0.1331(2) 1.1345(2) 0.1155(2) 0.0293 Uani
O19B O -0.1351(2) 1.1981(2) 0.0523(2) 0.0293 Uani
O20B O -0.1991(2) 1.0700(2) 0.1135(2) 0.0293 Uani
O21B O -0.0506(2) 1.3849(2) 0.1802(2) 0.0293 Uani
N1B N -0.0153(3) 1.0113(3) 0.1518(4) 0.0538 Uani
N2B N -0.0021(3) 0.9865(3) 0.1507(4) 0.0538 Uani
N3B N -0.0941(4) 1.2621(3) 0.2343(3) 0.0571 Uani
N4B N -0.0952(4) 1.2379(3) 0.2480(3) 0.0571 Uani
C1B C -0.1095(4) 0.9512(4) 0.1500(5) 0.0538 Uani
C2B C -0.0945(4) 0.9818(4) 0.1486(5) 0.0538 Uani
C3B C -0.0634(4) 0.9813(4) 0.1545(5) 0.0538 Uani
H1B H -0.0530 0.9631 0.1598 0.0650 Uiso
C4B C -0.0478(4) 1.0103(4) 0.1520(5) 0.0538 Uani
C5B C -0.0631(4) 1.0358(4) 0.1456(5) 0.0538 Uani
H2B H -0.0523 1.0544 0.1440 0.0650 Uiso
C6B C -0.0944(4) 1.0359(4) 0.1412(5) 0.0538 Uani
C7B C -0.1098(4) 1.0090(4) 0.1419(5) 0.0538 Uani
H3B H -0.1310 1.0087 0.1378 0.0650 Uiso
C8B C -0.1095(4) 1.0658(4) 0.1368(5) 0.0538 Uani
C9B C 0.0301(4) 0.9900(4) 0.1505(5) 0.0538 Uani
C10B C 0.0458(4) 1.0171(4) 0.1457(5) 0.0538 Uani
H4B H 0.0348 1.0356 0.1455 0.0650 Uiso
C11B C 0.0768(4) 1.0176(4) 0.1414(5) 0.0538 Uani
C12B C 0.0919(4) 0.9908(4) 0.1430(5) 0.0538 Uani
H5B H 0.1133 0.9908 0.1403 0.0650 Uiso
C13B C 0.0774(4) 0.9629(4) 0.1486(5) 0.0538 Uani
C14B C 0.0458(4) 0.9632(4) 0.1560(5) 0.0538 Uani
H6B H 0.0359 0.9459 0.1643 0.0650 Uiso
C15B C 0.0907(4) 1.0486(4) 0.1360(5) 0.0538 Uani
C16B C 0.0929(4) 0.9337(4) 0.1531(5) 0.0538 Uani
C17B C -0.1133(6) 1.2010(4) 0.1414(4) 0.0571 Uani
C18B C -0.1083(6) 1.2310(4) 0.1558(4) 0.0571 Uani
C19B C -0.1067(5) 1.2590(4) 0.1396(4) 0.0571 Uani
H7B H -0.1100 1.2592 0.1183 0.0690 Uiso
C20B C -0.1000(6) 1.2874(4) 0.1552(4) 0.0571 Uani
C21B C -0.0962(5) 1.2871(4) 0.1858(4) 0.0571 Uani
H8B H -0.0911 1.3053 0.1963 0.0690 Uiso
C22B C -0.0998(6) 1.2597(4) 0.2019(4) 0.0571 Uani
C23B C -0.1044(5) 1.2325(4) 0.1867(4) 0.0571 Uani
H9B H -0.1048 1.2142 0.1981 0.0690 Uiso
C24B C -0.0979(6) 1.3163(4) 0.1404(4) 0.0571 Uani
C25B C -0.1001(6) 1.2412(4) 0.2808(4) 0.0571 Uani
C26B C -0.0981(5) 1.2681(4) 0.2948(4) 0.0571 Uani
H10B H -0.0944 1.2863 0.2838 0.0690 Uiso
C27B C -0.1018(6) 1.2681(4) 0.3263(4) 0.0571 Uani
C28B C -0.1085(5) 1.2408(4) 0.3419(4) 0.0571 Uani
H11B H -0.1133 1.2411 0.3629 0.0690 Uiso
C29B C -0.1078(6) 1.2148(4) 0.3269(4) 0.0571 Uani
C30B C -0.1052(5) 1.2138(4) 0.2964(4) 0.0571 Uani
H12B H -0.1068 1.1951 0.2857 0.0690 Uiso
C31B C -0.0981(6) 1.2981(4) 0.3436(4) 0.0571 Uani
C32B C -0.1130(6) 1.1844(4) 0.3401(4) 0.0571 Uani
Fe1BA Fe -0.1324(2) 1.1480(2) 0.3961(2) 0.0205 Uani
Fe1CA Fe 0.3961(2) 0.8676(2) 0.1480(2) 0.0205 Uani
Fe1GA Fe 0.1480(2) 1.3961(2) -0.1324(2) 0.0205 Uani
Fe2R Fe 0.39903(16) 0.8834(2) 0.3349(2) 0.0205 Uani
Fe2T Fe 0.3349(2) 1.39903(16) -0.1166(2) 0.0205 Uani
Fe2W Fe -0.1166(2) 1.3349(2) 0.39903(16) 0.0205 Uani
Fe2X Fe -0.1166(2) 1.1651(2) -0.10097(16) 0.0205 Uani
Fe2Y Fe -0.10097(16) 0.8834(2) 0.1651(2) 0.0205 Uani
Fe2Z Fe 0.1651(2) 0.89903(16) -0.1166(2) 0.0205 Uani
Fe2BA Fe -0.10097(16) 1.1166(2) 0.3349(2) 0.0205 Uani
Fe2CA Fe 0.3349(2) 0.89903(16) 0.1166(2) 0.0205 Uani
Fe2GA Fe 0.1166(2) 1.3349(2) -0.10097(16) 0.0205 Uani
Fe3R Fe 0.33668(14) 0.91362(18) 0.36572(18) 0.0205 Uani
Fe3T Fe 0.36572(18) 1.33668(14) -0.08638(18) 0.0205 Uani
Fe3W Fe -0.08638(18) 1.36572(18) 0.33668(14) 0.0205 Uani
Fe3X Fe -0.08638(18) 1.13428(18) -0.16332(14) 0.0205 Uani
Fe3Y Fe -0.16332(14) 0.91362(18) 0.13428(18) 0.0205 Uani
Fe3Z Fe 0.13428(18) 0.83668(14) -0.08638(18) 0.0205 Uani
Fe4C Fe 0.08499(17) 1.1172(3) 0.1459(2) 0.0205 Uani
Fe4G Fe 0.1172(3) 1.1459(2) 0.08499(17) 0.0205 Uani
Fe4J Fe 0.1459(2) 1.08499(17) 0.1172(3) 0.0205 Uani
Fe4P Fe -0.1172(3) 1.3541(2) 0.08499(17) 0.0205 Uani
Fe4Q Fe 0.08499(17) 0.8828(3) 0.3541(2) 0.0205 Uani
Fe4R Fe 0.1172(3) 0.8541(2) 0.41501(17) 0.0205 Uani
Fe4U Fe 0.3541(2) 1.08499(17) -0.1172(3) 0.0205 Uani
O1X O -0.1424(2) 1.1380(2) 0.0495(2) 0.0328 Uani
O1Y O 0.0495(2) 0.8576(2) 0.1380(2) 0.0328 Uani
O1Z O 0.1380(2) 1.0495(2) -0.1424(2) 0.0328 Uani
O2X O -0.1583(3) 1.0949(2) 0.0697(2) 0.0328 Uani
O2Y O 0.0697(2) 0.8417(3) 0.0949(2) 0.0328 Uani
O2Z O 0.0949(2) 1.0697(2) -0.1583(3) 0.0328 Uani
O7C O -0.0743(2) 1.4299(2) 0.1429(2) 0.0328 Uani
O7G O 0.4299(2) 1.1429(2) -0.0743(2) 0.0328 Uani
O7J O 0.1429(2) 0.9257(2) 0.4299(2) 0.0328 Uani
O8F O -0.0487(2) 1.3739(3) 0.1175(2) 0.0328 Uani
O8H O 0.1175(2) 0.9513(2) 0.3739(3) 0.0328 Uani
O8K O 0.3739(3) 1.1175(2) -0.0487(2) 0.0328 Uani
O11R O 0.1812(2) 0.8893(2) 0.3943(3) 0.0393 Uani
O11T O 0.3943(3) 1.1812(2) -0.1107(2) 0.0393 Uani
O11W O -0.1107(2) 1.3943(3) 0.1812(2) 0.0393 Uani
O13DA O 0.1582(2) 0.8275(2) 0.1068(3) 0.0393 Uani
O13FA O 0.1068(3) 1.1582(2) -0.1725(2) 0.0393 Uani
O13IA O -0.1725(2) 1.1068(3) 0.1582(2) 0.0393 Uani
O14DA O 0.1832(2) 0.8680(2) 0.1265(3) 0.0393 Uani
O14FA O 0.1265(3) 1.1832(2) -0.1320(2) 0.0393 Uani
O14IA O -0.1320(2) 1.1265(3) 0.1832(2) 0.0393 Uani
O15P O -0.1803(2) 1.1744(2) 0.0916(3) 0.0393 Uani
O15Q O 0.0916(3) 0.8197(2) 0.1744(2) 0.0393 Uani
O15U O 0.1744(2) 1.0916(3) -0.1803(2) 0.0393 Uani
O16P O -0.2000(2) 1.1315(2) 0.1088(3) 0.0393 Uani
O16Q O 0.1088(3) 0.8000(2) 0.1315(2) 0.0393 Uani
O16U O 0.1315(2) 1.1088(3) -0.2000(2) 0.0393 Uani
O22A O 0.3846(2) 1.1154(2) -0.1154(2) 0.0293 Uani
O22B O -0.1154(2) 1.3846(2) 0.1154(2) 0.0293 Uani
loop_
_atom_site_aniso_label
_atom_site_aniso_U_11
_atom_site_aniso_U_22
_atom_site_aniso_U_33
_atom_site_aniso_U_23
_atom_site_aniso_U_13
_atom_site_aniso_U_12
Fe1 0.0239(7) 0.0246(11) 0.013(3) -0.0050(15) 0.0023(14) 0.0016(7)
Fe2 0.0239(7) 0.0246(11) 0.013(3) -0.0050(15) 0.0023(14) 0.0016(7)
Fe3 0.0239(7) 0.0246(11) 0.013(3) -0.0050(15) 0.0023(14) 0.0016(7)
Fe4 0.0239(7) 0.0246(11) 0.013(3) -0.0050(15) 0.0023(14) 0.0016(7)
O1 0.050(2) 0.0236(19) 0.0247(19) -0.0053(16) -0.0021(18) 0.0080(18)
O2 0.050(2) 0.0236(19) 0.0247(19) -0.0053(16) -0.0021(18) 0.0080(18)
O3 0.050(2) 0.0236(19) 0.0247(19) -0.0053(16) -0.0021(18) 0.0080(18)
O4 0.050(2) 0.0236(19) 0.0247(19) -0.0053(16) -0.0021(18) 0.0080(18)
O5 0.050(2) 0.0236(19) 0.0247(19) -0.0053(16) -0.0021(18) 0.0080(18)
O6 0.050(2) 0.0236(19) 0.0247(19) -0.0053(16) -0.0021(18) 0.0080(18)
O7 0.050(2) 0.0236(19) 0.0247(19) -0.0053(16) -0.0021(18) 0.0080(18)
O8 0.050(2) 0.0236(19) 0.0247(19) -0.0053(16) -0.0021(18) 0.0080(18)
O9 0.034(2) 0.059(3) 0.025(2) 0.0016(19) -0.0074(17) 0.002(2)
O10 0.034(2) 0.059(3) 0.025(2) 0.0016(19) -0.0074(17) 0.002(2)
O11 0.034(2) 0.059(3) 0.025(2) 0.0016(19) -0.0074(17) 0.002(2)
O12 0.034(2) 0.059(3) 0.025(2) 0.0016(19) -0.0074(17) 0.002(2)
O13 0.034(2) 0.059(3) 0.025(2) 0.0016(19) -0.0074(17) 0.002(2)
O14 0.034(2) 0.059(3) 0.025(2) 0.0016(19) -0.0074(17) 0.002(2)
O15 0.034(2) 0.059(3) 0.025(2) 0.0016(19) -0.0074(17) 0.002(2)
O16 0.034(2) 0.059(3) 0.025(2) 0.0016(19) -0.0074(17) 0.002(2)
O17 0.020(2) 0.036(3) 0.032(3) -0.004(2) 0.008(2) -0.005(2)
O18 0.020(2) 0.036(3) 0.032(3) -0.004(2) 0.008(2) -0.005(2)
O19 0.020(2) 0.036(3) 0.032(3) -0.004(2) 0.008(2) -0.005(2)
O20 0.020(2) 0.036(3) 0.032(3) -0.004(2) 0.008(2) -0.005(2)
O21 0.020(2) 0.036(3) 0.032(3) -0.004(2) 0.008(2) -0.005(2)
O22 0.020(2) 0.036(3) 0.032(3) -0.004(2) 0.008(2) -0.005(2)
N1 0.118(4) 0.026(2) 0.0175(18) -0.0051(16) 0.002(2) -0.007(2)
N2 0.118(4) 0.026(2) 0.0175(18) -0.0051(16) 0.002(2) -0.007(2)
N3 0.0223(19) 0.131(4) 0.0179(18) -0.006(2) -0.0028(16) -0.005(2)
N4 0.0223(19) 0.131(4) 0.0179(18) -0.006(2) -0.0028(16) -0.005(2)
C1 0.118(4) 0.026(2) 0.0175(18) -0.0051(16) 0.002(2) -0.007(2)
C2 0.118(4) 0.026(2) 0.0175(18) -0.0051(16) 0.002(2) -0.007(2)
C3 0.118(4) 0.026(2) 0.0175(18) -0.0051(16) 0.002(2) -0.007(2)
C4 0.118(4) 0.026(2) 0.0175(18) -0.0051(16) 0.002(2) -0.007(2)
C5 0.118(4) 0.026(2) 0.0175(18) -0.0051(16) 0.002(2) -0.007(2)
C6 0.118(4) 0.026(2) 0.0175(18) -0.0051(16) 0.002(2) -0.007(2)
C7 0.118(4) 0.026(2) 0.0175(18) -0.0051(16) 0.002(2) -0.007(2)
C8 0.118(4) 0.026(2) 0.0175(18) -0.0051(16) 0.002(2) -0.007(2)
C9 0.118(4) 0.026(2) 0.0175(18) -0.0051(16) 0.002(2) -0.007(2)
C10 0.118(4) 0.026(2) 0.0175(18) -0.0051(16) 0.002(2) -0.007(2)
C11 0.118(4) 0.026(2) 0.0175(18) -0.0051(16) 0.002(2) -0.007(2)
C12 0.118(4) 0.026(2) 0.0175(18) -0.0051(16) 0.002(2) -0.007(2)
C13 0.118(4) 0.026(2) 0.0175(18) -0.0051(16) 0.002(2) -0.007(2)
C14 0.118(4) 0.026(2) 0.0175(18) -0.0051(16) 0.002(2) -0.007(2)
C15 0.118(4) 0.026(2) 0.0175(18) -0.0051(16) 0.002(2) -0.007(2)
C16 0.118(4) 0.026(2) 0.0175(18) -0.0051(16) 0.002(2) -0.007(2)
C17 0.0223(19) 0.131(4) 0.0179(18) -0.006(2) -0.0028(16) -0.005(2)
C18 0.0223(19) 0.131(4) 0.0179(18) -0.006(2) -0.0028(16) -0.005(2)
C19 0.0223(19) 0.131(4) 0.0179(18) -0.006(2) -0.0028(16) -0.005(2)
C20 0.0223(19) 0.131(4) 0.0179(18) -0.006(2) -0.0028(16) -0.005(2)
C21 0.0223(19) 0.131(4) 0.0179(18) -0.006(2) -0.0028(16) -0.005(2)
C22 0.0223(19) 0.131(4) 0.0179(18) -0.006(2) -0.0028(16) -0.005(2)
C23 0.0223(19) 0.131(4) 0.0179(18) -0.006(2) -0.0028(16) -0.005(2)
C24 0.0223(19) 0.131(4) 0.0179(18) -0.006(2) -0.0028(16) -0.005(2)
C25 0.0223(19) 0.131(4) 0.0179(18) -0.006(2) -0.0028(16) -0.005(2)
C26 0.0223(19) 0.131(4) 0.0179(18) -0.006(2) -0.0028(16) -0.005(2)
C27 0.0223(19) 0.131(4) 0.0179(18) -0.006(2) -0.0028(16) -0.005(2)
C28 0.0223(19) 0.131(4) 0.0179(18) -0.006(2) -0.0028(16) -0.005(2)
C29 0.0223(19) 0.131(4) 0.0179(18) -0.006(2) -0.0028(16) -0.005(2)
C30 0.0223(19) 0.131(4) 0.0179(18) -0.006(2) -0.0028(16) -0.005(2)
C31 0.0223(19) 0.131(4) 0.0179(18) -0.006(2) -0.0028(16) -0.005(2)
C32 0.0223(19) 0.131(4) 0.0179(18) -0.006(2) -0.0028(16) -0.005(2)
Fe1A 0.013 0.0239 0.0246 0.0016 -0.005 0.0023
Fe2A 0.013 0.0239 0.0246 0.0016 -0.005 0.0023
Fe3A 0.013 0.0239 0.0246 0.0016 -0.005 0.0023
Fe4A 0.013 0.0239 0.0246 0.0016 -0.005 0.0023
O1A 0.0247 0.05 0.0236 0.008 -0.0053 -0.0021
O2A 0.0247 0.05 0.0236 0.008 -0.0053 -0.0021
O3A 0.0247 0.05 0.0236 0.008 -0.0053 -0.0021
O4A 0.0247 0.05 0.0236 0.008 -0.0053 -0.0021
O5A 0.0247 0.05 0.0236 0.008 -0.0053 -0.0021
O6A 0.0247 0.05 0.0236 0.008 -0.0053 -0.0021
O7A 0.0247 0.05 0.0236 0.008 -0.0053 -0.0021
O8A 0.0247 0.05 0.0236 0.008 -0.0053 -0.0021
O9A 0.025 0.034 0.059 0.002 0.0016 -0.0074
O10A 0.025 0.034 0.059 0.002 0.0016 -0.0074
O11A 0.025 0.034 0.059 0.002 0.0016 -0.0074
O12A 0.025 0.034 0.059 0.002 0.0016 -0.0074
O13A 0.025 0.034 0.059 0.002 0.0016 -0.0074
O14A 0.025 0.034 0.059 0.002 0.0016 -0.0074
O15A 0.025 0.034 0.059 0.002 0.0016 -0.0074
O16A 0.025 0.034 0.059 0.002 0.0016 -0.0074
O17A 0.032 0.02 0.036 -0.005 -0.004 0.008
O18A 0.032 0.02 0.036 -0.005 -0.004 0.008
O19A 0.032 0.02 0.036 -0.005 -0.004 0.008
O20A 0.032 0.02 0.036 -0.005 -0.004 0.008
O21A 0.032 0.02 0.036 -0.005 -0.004 0.008
N1A 0.0175 0.118 0.026 -0.007 -0.0051 0.002
N2A 0.0175 0.118 0.026 -0.007 -0.0051 0.002
N3A 0.0179 0.0223 0.131 -0.005 -0.006 -0.0028
N4A 0.0179 0.0223 0.131 -0.005 -0.006 -0.0028
C1A 0.0175 0.118 0.026 -0.007 -0.0051 0.002
C2A 0.0175 0.118 0.026 -0.007 -0.0051 0.002
C3A 0.0175 0.118 0.026 -0.007 -0.0051 0.002
C4A 0.0175 0.118 0.026 -0.007 -0.0051 0.002
C5A 0.0175 0.118 0.026 -0.007 -0.0051 0.002
C6A 0.0175 0.118 0.026 -0.007 -0.0051 0.002
C7A 0.0175 0.118 0.026 -0.007 -0.0051 0.002
C8A 0.0175 0.118 0.026 -0.007 -0.0051 0.002
C9A 0.0175 0.118 0.026 -0.007 -0.0051 0.002
C10A 0.0175 0.118 0.026 -0.007 -0.0051 0.002
C11A 0.0175 0.118 0.026 -0.007 -0.0051 0.002
C12A 0.0175 0.118 0.026 -0.007 -0.0051 0.002
C13A 0.0175 0.118 0.026 -0.007 -0.0051 0.002
C14A 0.0175 0.118 0.026 -0.007 -0.0051 0.002
C15A 0.0175 0.118 0.026 -0.007 -0.0051 0.002
C16A 0.0175 0.118 0.026 -0.007 -0.0051 0.002
C17A 0.0179 0.0223 0.131 -0.005 -0.006 -0.0028
C18A 0.0179 0.0223 0.131 -0.005 -0.006 -0.0028
C19A 0.0179 0.0223 0.131 -0.005 -0.006 -0.0028
C20A 0.0179 0.0223 0.131 -0.005 -0.006 -0.0028
C21A 0.0179 0.0223 0.131 -0.005 -0.006 -0.0028
C22A 0.0179 0.0223 0.131 -0.005 -0.006 -0.0028
C23A 0.0179 0.0223 0.131 -0.005 -0.006 -0.0028
C24A 0.0179 0.0223 0.131 -0.005 -0.006 -0.0028
C25A 0.0179 0.0223 0.131 -0.005 -0.006 -0.0028
C26A 0.0179 0.0223 0.131 -0.005 -0.006 -0.0028
C27A 0.0179 0.0223 0.131 -0.005 -0.006 -0.0028
C28A 0.0179 0.0223 0.131 -0.005 -0.006 -0.0028
C29A 0.0179 0.0223 0.131 -0.005 -0.006 -0.0028
C30A 0.0179 0.0223 0.131 -0.005 -0.006 -0.0028
C31A 0.0179 0.0223 0.131 -0.005 -0.006 -0.0028
C32A 0.0179 0.0223 0.131 -0.005 -0.006 -0.0028
Fe1B 0.0246 0.013 0.0239 0.0023 0.0016 -0.005
Fe2B 0.0246 0.013 0.0239 0.0023 0.0016 -0.005
Fe3B 0.0246 0.013 0.0239 0.0023 0.0016 -0.005
Fe4B 0.0246 0.013 0.0239 0.0023 0.0016 -0.005
O1B 0.0236 0.0247 0.05 -0.0021 0.008 -0.0053
O2B 0.0236 0.0247 0.05 -0.0021 0.008 -0.0053
O3B 0.0236 0.0247 0.05 -0.0021 0.008 -0.0053
O4B 0.0236 0.0247 0.05 -0.0021 0.008 -0.0053
O5B 0.0236 0.0247 0.05 -0.0021 0.008 -0.0053
O6B 0.0236 0.0247 0.05 -0.0021 0.008 -0.0053
O7B 0.0236 0.0247 0.05 -0.0021 0.008 -0.0053
O8B 0.0236 0.0247 0.05 -0.0021 0.008 -0.0053
O9B 0.059 0.025 0.034 -0.0074 0.002 0.0016
O10B 0.059 0.025 0.034 -0.0074 0.002 0.0016
O11B 0.059 0.025 0.034 -0.0074 0.002 0.0016
O12B 0.059 0.025 0.034 -0.0074 0.002 0.0016
O13B 0.059 0.025 0.034 -0.0074 0.002 0.0016
O14B 0.059 0.025 0.034 -0.0074 0.002 0.0016
O15B 0.059 0.025 0.034 -0.0074 0.002 0.0016
O16B 0.059 0.025 0.034 -0.0074 0.002 0.0016
O17B 0.036 0.032 0.02 0.008 -0.005 -0.004
O18B 0.036 0.032 0.02 0.008 -0.005 -0.004
O19B 0.036 0.032 0.02 0.008 -0.005 -0.004
O20B 0.036 0.032 0.02 0.008 -0.005 -0.004
O21B 0.036 0.032 0.02 0.008 -0.005 -0.004
N1B 0.026 0.0175 0.118 0.002 -0.007 -0.0051
N2B 0.026 0.0175 0.118 0.002 -0.007 -0.0051
N3B 0.131 0.0179 0.0223 -0.0028 -0.005 -0.006
N4B 0.131 0.0179 0.0223 -0.0028 -0.005 -0.006
C1B 0.026 0.0175 0.118 0.002 -0.007 -0.0051
C2B 0.026 0.0175 0.118 0.002 -0.007 -0.0051
C3B 0.026 0.0175 0.118 0.002 -0.007 -0.0051
C4B 0.026 0.0175 0.118 0.002 -0.007 -0.0051
C5B 0.026 0.0175 0.118 0.002 -0.007 -0.0051
C6B 0.026 0.0175 0.118 0.002 -0.007 -0.0051
C7B 0.026 0.0175 0.118 0.002 -0.007 -0.0051
C8B 0.026 0.0175 0.118 0.002 -0.007 -0.0051
C9B 0.026 0.0175 0.118 0.002 -0.007 -0.0051
C10B 0.026 0.0175 0.118 0.002 -0.007 -0.0051
C11B 0.026 0.0175 0.118 0.002 -0.007 -0.0051
C12B 0.026 0.0175 0.118 0.002 -0.007 -0.0051
C13B 0.026 0.0175 0.118 0.002 -0.007 -0.0051
C14B 0.026 0.0175 0.118 0.002 -0.007 -0.0051
C15B 0.026 0.0175 0.118 0.002 -0.007 -0.0051
C16B 0.026 0.0175 0.118 0.002 -0.007 -0.0051
C17B 0.131 0.0179 0.0223 -0.0028 -0.005 -0.006
C18B 0.131 0.0179 0.0223 -0.0028 -0.005 -0.006
C19B 0.131 0.0179 0.0223 -0.0028 -0.005 -0.006
C20B 0.131 0.0179 0.0223 -0.0028 -0.005 -0.006
C21B 0.131 0.0179 0.0223 -0.0028 -0.005 -0.006
C22B 0.131 0.0179 0.0223 -0.0028 -0.005 -0.006
C23B 0.131 0.0179 0.0223 -0.0028 -0.005 -0.006
C24B 0.131 0.0179 0.0223 -0.0028 -0.005 -0.006
C25B 0.131 0.0179 0.0223 -0.0028 -0.005 -0.006
C26B 0.131 0.0179 0.0223 -0.0028 -0.005 -0.006
C27B 0.131 0.0179 0.0223 -0.0028 -0.005 -0.006
C28B 0.131 0.0179 0.0223 -0.0028 -0.005 -0.006
C29B 0.131 0.0179 0.0223 -0.0028 -0.005 -0.006
C30B 0.131 0.0179 0.0223 -0.0028 -0.005 -0.006
C31B 0.131 0.0179 0.0223 -0.0028 -0.005 -0.006
C32B 0.131 0.0179 0.0223 -0.0028 -0.005 -0.006
Fe1BA 0.013 0.0239 0.0246 0.0016 0.005 -0.0023
Fe1CA 0.0246 0.013 0.0239 -0.0023 0.0016 0.005
Fe1GA 0.0239 0.0246 0.013 0.005 -0.0023 0.0016
Fe2R 0.013 0.0239 0.0246 -0.0016 0.005 0.0023
Fe2T 0.0246 0.013 0.0239 0.0023 -0.0016 0.005
Fe2W 0.0239 0.0246 0.013 0.005 0.0023 -0.0016
Fe2X 0.0239 0.0246 0.013 -0.005 0.0023 0.0016
Fe2Y 0.013 0.0239 0.0246 0.0016 -0.005 0.0023
Fe2Z 0.0246 0.013 0.0239 0.0023 0.0016 -0.005
Fe2BA 0.013 0.0239 0.0246 0.0016 0.005 -0.0023
Fe2CA 0.0246 0.013 0.0239 -0.0023 0.0016 0.005
Fe2GA 0.0239 0.0246 0.013 0.005 -0.0023 0.0016
Fe3R 0.013 0.0239 0.0246 -0.0016 0.005 0.0023
Fe3T 0.0246 0.013 0.0239 0.0023 -0.0016 0.005
Fe3W 0.0239 0.0246 0.013 0.005 0.0023 -0.0016
Fe3X 0.0239 0.0246 0.013 -0.005 0.0023 0.0016
Fe3Y 0.013 0.0239 0.0246 0.0016 -0.005 0.0023
Fe3Z 0.0246 0.013 0.0239 0.0023 0.0016 -0.005
Fe4C 0.0246 0.013 0.0239 -0.0023 -0.0016 -0.005
Fe4G 0.013 0.0239 0.0246 -0.0016 -0.005 -0.0023
Fe4J 0.0239 0.0246 0.013 -0.005 -0.0023 -0.0016
Fe4P 0.013 0.0239 0.0246 0.0016 0.005 -0.0023
Fe4Q 0.0246 0.013 0.0239 -0.0023 0.0016 0.005
Fe4R 0.013 0.0239 0.0246 -0.0016 0.005 0.0023
Fe4U 0.0239 0.0246 0.013 0.005 -0.0023 0.0016
O1X 0.05 0.0236 0.0247 -0.0053 -0.0021 0.008
O1Y 0.0247 0.05 0.0236 0.008 -0.0053 -0.0021
O1Z 0.0236 0.0247 0.05 -0.0021 0.008 -0.0053
O2X 0.05 0.0236 0.0247 -0.0053 -0.0021 0.008
O2Y 0.0247 0.05 0.0236 0.008 -0.0053 -0.0021
O2Z 0.0236 0.0247 0.05 -0.0021 0.008 -0.0053
O7C 0.0236 0.0247 0.05 0.0021 -0.008 -0.0053
O7G 0.0247 0.05 0.0236 -0.008 -0.0053 0.0021
O7J 0.05 0.0236 0.0247 -0.0053 0.0021 -0.008
O8F 0.0247 0.05 0.0236 -0.008 0.0053 -0.0021
O8H 0.0236 0.0247 0.05 -0.0021 -0.008 0.0053
O8K 0.05 0.0236 0.0247 0.0053 -0.0021 -0.008
O11R 0.025 0.034 0.059 -0.002 -0.0016 -0.0074
O11T 0.059 0.025 0.034 -0.0074 -0.002 -0.0016
O11W 0.034 0.059 0.025 -0.0016 -0.0074 -0.002
O13DA 0.025 0.034 0.059 -0.002 -0.0016 -0.0074
O13FA 0.059 0.025 0.034 -0.0074 -0.002 -0.0016
O13IA 0.034 0.059 0.025 -0.0016 -0.0074 -0.002
O14DA 0.025 0.034 0.059 -0.002 -0.0016 -0.0074
O14FA 0.059 0.025 0.034 -0.0074 -0.002 -0.0016
O14IA 0.034 0.059 0.025 -0.0016 -0.0074 -0.002
O15P 0.025 0.034 0.059 0.002 -0.0016 0.0074
O15Q 0.059 0.025 0.034 0.0074 0.002 -0.0016
O15U 0.034 0.059 0.025 -0.0016 0.0074 0.002
O16P 0.025 0.034 0.059 0.002 -0.0016 0.0074
O16Q 0.059 0.025 0.034 0.0074 0.002 -0.0016
O16U 0.034 0.059 0.025 -0.0016 0.0074 0.002
O22A 0.032 0.02 0.036 -0.005 -0.004 0.008
O22B 0.036 0.032 0.02 0.008 -0.005 -0.004
loop_
_geom_bond_atom_site_label_1
_geom_bond_atom_site_label_2
_geom_bond_site_symmetry_1
_geom_bond_site_symmetry_2
Fe1 O4 1_555 1_555
Fe2 O3 1_555 1_555
Fe3 O9 1_555 1_555
Fe4 O12 1_555 1_555
O1 C1 1_555 1_555
O2 C1 1_555 1_555
O3 C8 1_555 1_555
O4 C8 1_555 1_555
O5 C16 1_555 1_555
O6 C16 1_555 1_555
O7 C15 1_555 1_555
O8 C15 1_555 1_555
O9 C17 1_555 1_555
O10 Fe1 1_555 1_555
O11 C24 1_555 1_555
O12 C24 1_555 1_555
O13 C32 1_555 1_555
O14 C32 1_555 1_555
O15 C31 1_555 1_555
O16 C31 1_555 1_555
O17 Fe1 1_555 1_555
O18 Fe1 1_555 1_555
O19 Fe3 1_555 1_555
O20 Fe2 1_555 1_555
O21 Fe4 1_555 1_555
O22 Fe4 1_555 1_555
N1 N2 1_555 1_555
N2 C9 1_555 1_555
N3 N4 1_555 1_555
N4 C25 1_555 1_555
C1 C2 1_555 1_555
C2 C3 1_555 1_555
C3 H1 1_555 1_555
C4 N1 1_555 1_555
C5 C4 1_555 1_555
H2 C5 1_555 1_555
C6 C5 1_555 1_555
C7 C2 1_555 1_555
H3 C7 1_555 1_555
C8 C6 1_555 1_555
C9 C10 1_555 1_555
C10 H4 1_555 1_555
C11 C10 1_555 1_555
C12 C11 1_555 1_555
H5 C12 1_555 1_555
C13 C12 1_555 1_555
C14 C9 1_555 1_555
H6 C14 1_555 1_555
C15 C11 1_555 1_555
C16 C13 1_555 1_555
C17 O10 1_555 1_555
C18 C17 1_555 1_555
C19 C18 1_555 1_555
H7 C19 1_555 1_555
C20 C19 1_555 1_555
C21 C20 1_555 1_555
H8 C21 1_555 1_555
C22 N3 1_555 1_555
C23 C18 1_555 1_555
H9 C23 1_555 1_555
C24 C20 1_555 1_555
C25 C26 1_555 1_555
C26 H10 1_555 1_555
C27 C26 1_555 1_555
C28 C27 1_555 1_555
H11 C28 1_555 1_555
C29 C28 1_555 1_555
C30 C25 1_555 1_555
H12 C30 1_555 1_555
C31 C27 1_555 1_555
C32 C29 1_555 1_555
Fe1A O6 1_555 1_555
Fe2A O3A 1_555 1_555
Fe3A O5 1_555 1_555
Fe4A O12A 1_555 1_555
O1A C1A 1_555 1_555
O2A C1A 1_555 1_555
O3A C8A 1_555 1_555
O4A Fe1A 1_555 1_555
O5A C16A 1_555 1_555
O6A C16A 1_555 1_555
O7A C15A 1_555 1_555
O8A C15A 1_555 1_555
O9A Fe3A 1_555 1_555
O10A Fe1A 1_555 1_555
O11A C24A 1_555 1_555
O12A C24A 1_555 1_555
O13A C32A 1_555 1_555
O14A C32A 1_555 1_555
O15A C31A 1_555 1_555
O16A C31A 1_555 1_555
O17A Fe1A 1_555 1_555
O18A Fe1A 1_555 1_555
O19A Fe3A 1_555 1_555
O20A Fe2A 1_555 1_555
O21A Fe4A 1_555 1_555
N1A N2A 1_555 1_555
N2A C9A 1_555 1_555
N3A N4A 1_555 1_555
N4A C25A 1_555 1_555
C1A C2A 1_555 1_555
C2A C3A 1_555 1_555
C3A H1A 1_555 1_555
C4A N1A 1_555 1_555
C5A C4A 1_555 1_555
H2A C5A 1_555 1_555
C6A C5A 1_555 1_555
C7A C2A 1_555 1_555
H3A C7A 1_555 1_555
C8A O4A 1_555 1_555
C9A C10A 1_555 1_555
C10A H4A 1_555 1_555
C11A C10A 1_555 1_555
C12A C11A 1_555 1_555
H5A C12A 1_555 1_555
C13A C12A 1_555 1_555
C14A C9A 1_555 1_555
H6A C14A 1_555 1_555
C15A C11A 1_555 1_555
C16A C13A 1_555 1_555
C17A O9A 1_555 1_555
C18A C17A 1_555 1_555
C19A C18A 1_555 1_555
H7A C19A 1_555 1_555
C20A C19A 1_555 1_555
C21A C20A 1_555 1_555
H8A C21A 1_555 1_555
C22A N3A 1_555 1_555
C23A C18A 1_555 1_555
H9A C23A 1_555 1_555
C24A C20A 1_555 1_555
C25A C26A 1_555 1_555
C26A H10A 1_555 1_555
C27A C26A 1_555 1_555
C28A C27A 1_555 1_555
H11A C28A 1_555 1_555
C29A C28A 1_555 1_555
C30A C25A 1_555 1_555
H12A C30A 1_555 1_555
C31A C27A 1_555 1_555
C32A C29A 1_555 1_555
Fe1B O6A 1_555 1_555
Fe2B O3B 1_555 1_555
Fe3B O5A 1_555 1_555
Fe4B O12B 1_555 1_555
O1B C1B 1_555 1_555
O2B C1B 1_555 1_555
O3B C8B 1_555 1_555
O4B Fe1B 1_555 1_555
O5B Fe3 1_555 1_555
O6B Fe1 1_555 1_555
O7B C15B 1_555 1_555
O8B C15B 1_555 1_555
O9B Fe3B 1_555 1_555
O10B Fe1B 1_555 1_555
O11B C24B 1_555 1_555
O12B C24B 1_555 1_555
O13B C32B 1_555 1_555
O14B C32B 1_555 1_555
O15B C31B 1_555 1_555
O16B C31B 1_555 1_555
O17B Fe1B 1_555 1_555
O18B Fe1B 1_555 1_555
O19B Fe3B 1_555 1_555
O20B Fe2B 1_555 1_555
O21B Fe4B 1_555 1_555
N1B N2B 1_555 1_555
N2B C9B 1_555 1_555
N3B N4B 1_555 1_555
N4B C25B 1_555 1_555
C1B C2B 1_555 1_555
C2B C3B 1_555 1_555
C3B H1B 1_555 1_555
C4B N1B 1_555 1_555
C5B C4B 1_555 1_555
H2B C5B 1_555 1_555
C6B C5B 1_555 1_555
C7B C2B 1_555 1_555
H3B C7B 1_555 1_555
C8B O4B 1_555 1_555
C9B C10B 1_555 1_555
C10B H4B 1_555 1_555
C11B C10B 1_555 1_555
C12B C11B 1_555 1_555
H5B C12B 1_555 1_555
C13B C12B 1_555 1_555
C14B C9B 1_555 1_555
H6B C14B 1_555 1_555
C15B C11B 1_555 1_555
C16B O5B 1_555 1_555
C17B O9B 1_555 1_555
C18B C17B 1_555 1_555
C19B C18B 1_555 1_555
H7B C19B 1_555 1_555
C20B C19B 1_555 1_555
C21B C20B 1_555 1_555
H8B C21B 1_555 1_555
C22B N3B 1_555 1_555
C23B C18B 1_555 1_555
H9B C23B 1_555 1_555
C24B C20B 1_555 1_555
C25B C26B 1_555 1_555
C26B H10B 1_555 1_555
C27B C26B 1_555 1_555
C28B C27B 1_555 1_555
H11B C28B 1_555 1_555
C29B C28B 1_555 1_555
C30B C25B 1_555 1_555
H12B C30B 1_555 1_555
C31B C27B 1_555 1_555
C32B C29B 1_555 1_555
Fe1BA O14B 1_555 1_555
Fe1CA O14 1_555 1_555
Fe1GA O14A 1_555 1_555
Fe2R O16 1_555 1_555
Fe2T O16A 1_555 1_555
Fe2W O16B 1_555 1_555
Fe2X O2A 1_555 1_555
Fe2Y O2B 1_555 1_555
Fe2Z O2 1_555 1_555
Fe2BA O13B 1_555 1_555
Fe2CA O13 1_555 1_555
Fe2GA O13A 1_555 1_555
Fe3R O15 1_555 1_555
Fe3T O15A 1_555 1_555
Fe3W O15B 1_555 1_555
Fe3X O1A 1_555 1_555
Fe3Y O1B 1_555 1_555
Fe3Z O1 1_555 1_555
Fe4C O8A 1_555 1_555
Fe4G O8 1_555 1_555
Fe4J O7 1_555 1_555
Fe4P O11B 1_555 1_555
Fe4Q O11 1_555 1_555
Fe4R O22 1_555 1_555
Fe4U O11A 1_555 1_555
O1X Fe3B 1_555 1_555
O1Y Fe3 1_555 1_555
O1Z Fe3A 1_555 1_555
O2X Fe2B 1_555 1_555
O2Y Fe2 1_555 1_555
O2Z Fe2A 1_555 1_555
O7C Fe4B 1_555 1_555
O7G Fe4A 1_555 1_555
O7J Fe4 1_555 1_555
O8F Fe4B 1_555 1_555
O8H Fe4 1_555 1_555
O8K Fe4A 1_555 1_555
O11R Fe4 1_555 1_555
O11T Fe4A 1_555 1_555
O11W Fe4B 1_555 1_555
O13DA Fe2 1_555 1_555
O13FA Fe2A 1_555 1_555
O13IA Fe2B 1_555 1_555
O14DA Fe1 1_555 1_555
O14FA Fe1A 1_555 1_555
O14IA Fe1B 1_555 1_555
O15P Fe3B 1_555 1_555
O15Q Fe3 1_555 1_555
O15U Fe3A 1_555 1_555
O16P Fe2B 1_555 1_555
O16Q Fe2 1_555 1_555
O16U Fe2A 1_555 1_555
O22A Fe4A 1_555 1_555
O22B Fe4B 1_555 1_555
Fe2 O18 1_555 1_555
Fe3 O18 1_555 1_555
O22 Fe4Q 1_555 1_555
C3 C4 1_555 1_555
C6 C7 1_555 1_555
C13 C14 1_555 1_555
C21 C22 1_555 1_555
C22 C23 1_555 1_555
C29 C30 1_555 1_555
Fe2A O18A 1_555 1_555
Fe3A O18A 1_555 1_555
O7A Fe4G 1_555 1_555
O10A C17A 1_555 1_555
C3A C4A 1_555 1_555
C6A C7A 1_555 1_555
C6A C8A 1_555 1_555
C13A C14A 1_555 1_555
C21A C22A 1_555 1_555
C22A C23A 1_555 1_555
C29A C30A 1_555 1_555
Fe2B O18B 1_555 1_555
Fe3B O18B 1_555 1_555
O6B C16B 1_555 1_555
O7B Fe4C 1_555 1_555
O8B Fe4J 1_555 1_555
O10B C17B 1_555 1_555
C3B C4B 1_555 1_555
C6B C7B 1_555 1_555
C6B C8B 1_555 1_555
C13B C14B 1_555 1_555
C13B C16B 1_555 1_555
C21B C22B 1_555 1_555
C22B C23B 1_555 1_555
C29B C30B 1_555 1_555
Fe4P O22B 1_555 1_555
Fe4U O22A 1_555 1_555

#END
