
#######################################################################
#
#                 Cambridge Crystallographic Data Centre
#                                CCDC 
#
#######################################################################
#
# If this CIF has been generated from an entry in the Cambridge 
# Structural Database, then it will include bibliographic, chemical, 
# crystal, experimental, refinement or atomic coordinate data resulting 
# from the CCDC's data processing and validation procedures.
#
#######################################################################

data_CIPLIX
_chemical_formula_moiety         '(C15 H14 Co1 N2 O6)n'
_symmetry_cell_setting           orthorhombic
_symmetry_space_group_name_H-M   'P b c a'
_symmetry_Int_Tables_number      61
_space_group_name_Hall           '-P 2ac 2ab'
loop_
_symmetry_equiv_pos_site_id
_symmetry_equiv_pos_as_xyz
1 x,y,z
2 1/2-x,-y,1/2+z
3 -x,1/2+y,1/2-z
4 1/2+x,1/2-y,-z
5 -x,-y,-z
6 1/2+x,y,1/2-z
7 x,1/2-y,1/2+z
8 1/2-x,1/2+y,z
_cell_length_a                   15.425(2)
_cell_length_b                   12.1842(16)
_cell_length_c                   16.059(2)
_cell_angle_alpha                90
_cell_angle_beta                 90
_cell_angle_gamma                90
_cell_volume                     3018.15
loop_
_atom_site_label
_atom_site_type_symbol
_atom_site_fract_x
_atom_site_fract_y
_atom_site_fract_z
_atom_site_U_iso_or_equiv
_atom_site_thermal_displace_type
Co1 Co 0.09035(7) 0.48739(8) 0.41352(6) 0.0255 Uani
O1 O 0.1062(3) 0.3899(3) 0.3181(3) 0.0420 Uani
C1 C 0.1455(3) 0.3793(4) 0.1776(3) 0.0250 Uani
C2 C 0.1444(4) 0.4302(5) 0.2653(4) 0.0330 Uani
C3 C 0.2025(3) 0.3682(5) 0.0383(3) 0.0283 Uani
C4 C 0.1466(4) 0.2817(4) 0.0219(3) 0.0293 Uani
H1 H 0.1470 0.2495 -0.0306 0.0350 Uiso
C5 C 0.0908(4) 0.2909(4) 0.1609(3) 0.0280 Uani
H2 H 0.0545 0.2640 0.2024 0.0330 Uiso
O2 O 0.1863(4) 0.5227(4) 0.2684(3) 0.0583 Uani
C6 C 0.1998(3) 0.4189(4) 0.1164(3) 0.0280 Uani
H3 H 0.2349 0.4794 0.1271 0.0340 Uiso
C12 C 0.0303(3) 0.1507(4) 0.0618(3) 0.0243 Uani
O3 O 0.0220(2) 0.1228(3) -0.0133(2) 0.0288 Uani
O4 O -0.0115(2) 0.1059(3) 0.1205(2) 0.0306 Uani
C13 C 0.2667(4) 0.4113(7) -0.0251(4) 0.0497 Uani
O5 O 0.3137(3) 0.4816(3) -0.0099(2) 0.0331 Uani
O6 O 0.2909(7) 0.3294(8) -0.0781(6) 0.0473 Uani
C15 C 0.0903(3) 0.2423(4) 0.0818(3) 0.0243 Uani
Co1F Co 0.09035(7) 0.01261(8) -0.08648(6) 0.0255 Uani
Co1B Co -0.09035(7) -0.01261(8) 0.08648(6) 0.0255 Uani
Co1A Co 0.40965(7) 0.51261(8) -0.08648(6) 0.0255 Uani
O3F O 0.0220(2) 0.3772(3) 0.4867(2) 0.0288 Uani
O4B O 0.0115(2) 0.6059(3) 0.3795(2) 0.0306 Uani
O5A O 0.1863(3) 0.5184(3) 0.4901(2) 0.0331 Uani
N1 N -0.6188(4) 0.2930(5) 0.1927(4) 0.0523 Uani
C7 C -0.6027(5) 0.3981(7) 0.1818(7) 0.0710 Uani
H4 H -0.5853 0.4310 0.1323 0.0850 Uiso
C8 C -0.6397(6) 0.2763(6) 0.2714(5) 0.0617 Uani
H5 H -0.6541 0.2094 0.2954 0.0740 Uiso
N2 N -0.6364(6) 0.3697(7) 0.3087(5) 0.0883 Uani
C9 C -0.6172(8) 0.2097(8) 0.1255(6) 0.0877 Uani
H6 H -0.6224 0.2454 0.0718 0.1050 Uiso
H7 H -0.6657 0.1598 0.1320 0.1050 Uiso
C10 C -0.6157(7) 0.4488(7) 0.2541(7) 0.0813 Uani
H8 H -0.6115 0.5237 0.2646 0.0970 Uiso
C11 C -0.5342(9) 0.1475(12) 0.1297(10) 0.1450 Uani
H9 H -0.5333 0.0929 0.0867 0.2170 Uiso
H10 H -0.5293 0.1126 0.1831 0.2170 Uiso
H11 H -0.4865 0.1971 0.1220 0.2170 Uiso
C14 C -0.6433(14) 0.3914(16) 0.3922(11) 0.0897 Uani
H12 H -0.6589 0.3254 0.4213 0.1340 Uiso
H13 H -0.6871 0.4461 0.4011 0.1340 Uiso
H14 H -0.5887 0.4177 0.4128 0.1340 Uiso
loop_
_atom_site_aniso_label
_atom_site_aniso_U_11
_atom_site_aniso_U_22
_atom_site_aniso_U_33
_atom_site_aniso_U_23
_atom_site_aniso_U_13
_atom_site_aniso_U_12
Co1 0.0310(6) 0.0261(6) 0.0193(5) -0.0026(4) -0.0012(4) 0.0019(4)
O1 0.065(3) 0.036(2) 0.025(2) -0.0088(18) -0.005(2) 0.009(2)
C1 0.031(3) 0.026(3) 0.018(2) -0.005(2) -0.001(2) 0.005(2)
C2 0.030(3) 0.037(3) 0.032(3) -0.027(3) 0.003(3) 0.006(2)
C3 0.028(3) 0.033(3) 0.024(3) -0.005(2) 0.008(2) -0.005(2)
C4 0.038(3) 0.031(3) 0.019(2) -0.007(2) 0.004(2) 0.000(2)
C5 0.029(3) 0.031(3) 0.024(3) 0.001(2) 0.008(2) 0.001(2)
O2 0.109(4) 0.037(2) 0.029(2) -0.0116(19) -0.002(3) -0.009(3)
C6 0.027(3) 0.026(3) 0.031(3) -0.005(2) 0.001(2) 0.000(2)
C12 0.027(3) 0.020(2) 0.026(3) 0.002(2) -0.001(2) 0.004(2)
O3 0.033(2) 0.0254(19) 0.028(2) -0.0044(16) -0.0059(16) -0.0002(16)
O4 0.034(2) 0.0278(19) 0.030(2) 0.0037(17) 0.0051(17) -0.0068(17)
C13 0.035(4) 0.093(6) 0.021(3) -0.013(3) 0.011(3) -0.018(4)
O5 0.049(2) 0.026(2) 0.0242(19) 0.0008(16) 0.0121(18) -0.0022(18)
O6 0.065(6) 0.039(5) 0.038(5) -0.013(4) 0.029(5) -0.016(5)
C15 0.024(2) 0.025(2) 0.024(2) 0.001(2) 0.002(2) -0.001(2)
Co1F 0.031 0.0261 0.0193 0.0026 -0.0012 -0.0019
Co1B 0.031 0.0261 0.0193 0.0026 -0.0012 -0.0019
Co1A 0.031 0.0261 0.0193 0.0026 0.0012 0.0019
O3F 0.033 0.0254 0.028 0.0044 -0.0059 0.0002
O4B 0.034 0.0278 0.03 -0.0037 0.0051 0.0068
O5A 0.049 0.026 0.0242 -0.0008 -0.0121 -0.0022
N1 0.052 0.049 0.056 0.022 0.007 -0.002
C7 0.046 0.063 0.104 0.04 -0.005 -0.006
C8 0.088 0.048 0.049 0.019 -0.001 0.004
N2 0.122 0.078 0.065 -0.002 -0.014 0.008
C9 0.117 0.071 0.075 0.014 0.019 0.011
C10 0.1 0.04 0.104 0.018 -0.034 -0.014
C11 0.145 0.131 0.159 0.064 0.03 -0.011
C14 0.119 0.082 0.068 -0.028 0.054 -0.011
loop_
_geom_bond_atom_site_label_1
_geom_bond_atom_site_label_2
_geom_bond_site_symmetry_1
_geom_bond_site_symmetry_2
Co1 O1 1_555 1_555
O1 C2 1_555 1_555
C1 C2 1_555 1_555
C2 O2 1_555 1_555
C3 C4 1_555 1_555
C4 H1 1_555 1_555
C5 C1 1_555 1_555
H2 C5 1_555 1_555
C6 C1 1_555 1_555
H3 C6 1_555 1_555
N1 C7 1_555 1_555
C7 H4 1_555 1_555
C8 N1 1_555 1_555
H5 C8 1_555 1_555
N2 C8 1_555 1_555
C9 N1 1_555 1_555
H6 C9 1_555 1_555
H7 C9 1_555 1_555
C10 C7 1_555 1_555
H8 C10 1_555 1_555
C11 C9 1_555 1_555
H9 C11 1_555 1_555
H10 C11 1_555 1_555
H11 C11 1_555 1_555
C12 O3 1_555 1_555
O3 Co1F 1_555 1_555
O4 C12 1_555 1_555
C13 C3 1_555 1_555
O5 C13 1_555 1_555
O6 C13 1_555 1_555
C14 N2 1_555 1_555
H12 C14 1_555 1_555
H13 C14 1_555 1_555
H14 C14 1_555 1_555
C15 C4 1_555 1_555
Co1B O4 1_555 1_555
Co1A O5 1_555 1_555
O3F Co1 1_555 1_555
O4B Co1 1_555 1_555
O5A Co1 1_555 1_555
C3 C6 1_555 1_555
C5 C15 1_555 1_555
N2 C10 1_555 1_555
C12 C15 1_555 1_555

#END
