
#######################################################################
#
#                 Cambridge Crystallographic Data Centre
#                                CCDC 
#
#######################################################################
#
# If this CIF has been generated from an entry in the Cambridge 
# Structural Database, then it will include bibliographic, chemical, 
# crystal, experimental, refinement or atomic coordinate data resulting 
# from the CCDC's data processing and validation procedures.
#
#######################################################################

data_VEMTAJ01
_chemical_formula_moiety         '(C22 H12 Co3 O16 2-)n'
_symmetry_cell_setting           orthorhombic
_symmetry_space_group_name_H-M   'P b c a'
_symmetry_Int_Tables_number      61
_space_group_name_Hall           '-P 2ac 2ab'
loop_
_symmetry_equiv_pos_site_id
_symmetry_equiv_pos_as_xyz
1 x,y,z
2 1/2-x,-y,1/2+z
3 -x,1/2+y,1/2-z
4 1/2+x,1/2-y,-z
5 -x,-y,-z
6 1/2+x,y,1/2-z
7 x,1/2-y,1/2+z
8 1/2-x,1/2+y,z
_cell_length_a                   14.2616(4)
_cell_length_b                   16.1525(5)
_cell_length_c                   16.4867(5)
_cell_angle_alpha                90
_cell_angle_beta                 90
_cell_angle_gamma                90
_cell_volume                     3797.88
loop_
_atom_site_label
_atom_site_type_symbol
_atom_site_fract_x
_atom_site_fract_y
_atom_site_fract_z
Co1 Co 0.5000 0.0000 0.5000
Co2 Co 0.478017(17) 0.180576(15) 0.609317(15)
C1 C 0.25588(13) 0.00323(11) 0.65704(12)
C2 C 0.21356(13) 0.04475(11) 0.72163(11)
H1 H 0.2336 0.0988 0.7362
C3 C 0.14173(13) 0.00622(11) 0.76461(11)
C4 C 0.11188(13) -0.07272(11) 0.74271(12)
H2 H 0.0658 -0.1002 0.7745
C5 C 0.14889(13) -0.11165(11) 0.67482(12)
C6 C 0.22175(13) -0.07329(11) 0.63189(12)
H3 H 0.2479 -0.0996 0.5856
C7 C 0.34072(13) 0.03968(11) 0.61636(11)
C8 C 0.09400(12) 0.04751(11) 0.83540(11)
C9 C 0.10902(13) -0.19257(11) 0.64687(12)
C10 C 0.54800(14) 0.19182(12) 0.46913(12)
C11 C 0.57907(18) 0.19411(14) 0.38223(13)
H4 H 0.6176 0.2435 0.3730
H5 H 0.5239 0.1959 0.3468
H6 H 0.6160 0.1444 0.3701
O1 O 0.36775(9) 0.00469(8) 0.55185(8)
O2 O 0.37804(10) 0.10134(8) 0.65041(9)
O3 O 0.09043(9) 0.12568(8) 0.83581(8)
O4 O 0.06050(10) -0.00049(8) 0.88762(8)
O5 O 0.04423(10) -0.22480(8) 0.68949(9)
O6 O 0.13716(11) -0.22539(9) 0.58271(9)
O7 O 0.49656(10) 0.13162(9) 0.49365(8)
O8 O 0.56694(11) 0.24871(9) 0.51732(9)
Co1E Co 0.0000 0.0000 1.0000
Co1E_2 Co 1.0000 0.0000 0.0000
Co2D Co 0.521983(17) -0.180576(15) 0.390683(15)
Co2E Co -0.021983(17) 0.180576(15) 0.890683(15)
Co2G Co 0.021983(17) -0.319424(15) 0.609317(15)
Co2A Co 1.021983(17) -0.180576(15) 0.109317(15)
Co2C Co 0.978017(17) 0.319424(15) 0.390683(15)
C1D C 0.74412(13) -0.00323(11) 0.34296(12)
C2D C 0.78644(13) -0.04475(11) 0.27837(11)
H1D H 0.7664 -0.0988 0.2638
C3D C 0.85827(13) -0.00622(11) 0.23539(11)
C4D C 0.88812(13) 0.07272(11) 0.25729(12)
H2D H 0.9342 0.1002 0.2255
C5D C 0.85111(13) 0.11165(11) 0.32518(12)
C6D C 0.77825(13) 0.07329(11) 0.36811(12)
H3D H 0.7521 0.0996 0.4144
C7D C 0.65928(13) -0.03968(11) 0.38364(11)
C8D C 0.90600(12) -0.04751(11) 0.16460(11)
C9D C 0.89098(13) 0.19257(11) 0.35313(12)
C10D C 0.45200(14) -0.19182(12) 0.53087(12)
C11D C 0.42093(18) -0.19411(14) 0.61777(13)
H4D H 0.3824 -0.2435 0.6270
H5D H 0.4761 -0.1959 0.6532
H6D H 0.3840 -0.1444 0.6299
O1D O 0.63225(9) -0.00469(8) 0.44815(8)
O2D O 0.62196(10) -0.10134(8) 0.34959(9)
O3D O 0.90957(9) -0.12568(8) 0.16419(8)
O3E O 0.59043(9) 0.12568(8) 0.66419(8)
O3A O 0.40957(9) -0.12568(8) 0.33581(8)
O4D O 0.93950(10) 0.00049(8) 0.11238(8)
O4E O 0.56050(10) -0.00049(8) 0.61238(8)
O4A O 0.43950(10) 0.00049(8) 0.38762(8)
O5D O 0.95577(10) 0.22480(8) 0.31051(9)
O5G O 0.45577(10) 0.27520(8) 0.68949(9)
O5C O 0.54423(10) -0.27520(8) 0.31051(9)
O6D O 0.86284(11) 0.22539(9) 0.41729(9)
O6G O 0.36284(11) 0.27461(9) 0.58271(9)
O6C O 0.63716(11) -0.27461(9) 0.41729(9)
O7D O 0.50344(10) -0.13162(9) 0.50635(8)
O8D O 0.43306(11) -0.24871(9) 0.48268(9)
loop_
_geom_bond_atom_site_label_1
_geom_bond_atom_site_label_2
_geom_bond_site_symmetry_1
_geom_bond_site_symmetry_2
Co1 O1 1_555 1_555
Co2 O2 1_555 1_555
C1 C2 1_555 1_555
C2 H1 1_555 1_555
C3 C2 1_555 1_555
C4 C3 1_555 1_555
H2 C4 1_555 1_555
C5 C4 1_555 1_555
C6 C1 1_555 1_555
H3 C6 1_555 1_555
C7 C1 1_555 1_555
C8 C3 1_555 1_555
C9 C5 1_555 1_555
C10 C11 1_555 1_555
C11 H4 1_555 1_555
H5 C11 1_555 1_555
H6 C11 1_555 1_555
O1 C7 1_555 1_555
O2 C7 1_555 1_555
O3 C8 1_555 1_555
O4 C8 1_555 1_555
O5 C9 1_555 1_555
O6 C9 1_555 1_555
O7 Co1 1_555 1_555
O8 Co2 1_555 1_555
Co1E O4 1_555 1_555
Co1E_2 O4D 1_555 1_555
Co2D O2D 1_555 1_555
Co2E O3 1_555 1_555
Co2G O5 1_555 1_555
Co2A O3D 1_555 1_555
Co2C O5D 1_555 1_555
C1D C2D 1_555 1_555
C2D H1D 1_555 1_555
C3D C2D 1_555 1_555
C4D C3D 1_555 1_555
H2D C4D 1_555 1_555
C5D C4D 1_555 1_555
C6D C1D 1_555 1_555
H3D C6D 1_555 1_555
C7D C1D 1_555 1_555
C8D C3D 1_555 1_555
C9D C5D 1_555 1_555
C10D C11D 1_555 1_555
C11D H4D 1_555 1_555
H5D C11D 1_555 1_555
H6D C11D 1_555 1_555
O1D Co1 1_555 1_555
O2D C7D 1_555 1_555
O3D C8D 1_555 1_555
O3E Co2 1_555 1_555
O3A Co2D 1_555 1_555
O4D C8D 1_555 1_555
O4E Co1 1_555 1_555
O4A Co1 1_555 1_555
O5D C9D 1_555 1_555
O5G Co2 1_555 1_555
O5C Co2D 1_555 1_555
O6D Co2C 1_555 1_555
O6G Co2 1_555 1_555
O6C Co2D 1_555 1_555
O7D Co1 1_555 1_555
O8D Co2D 1_555 1_555
Co2 O7 1_555 1_555
C5 C6 1_555 1_555
C10 O7 1_555 1_555
C10 O8 1_555 1_555
O6 Co2G 1_555 1_555
Co2D O7D 1_555 1_555
C5D C6D 1_555 1_555
C7D O1D 1_555 1_555
C9D O6D 1_555 1_555
C10D O7D 1_555 1_555
C10D O8D 1_555 1_555

#END
