
#######################################################################
#
#                 Cambridge Crystallographic Data Centre
#                                CCDC 
#
#######################################################################
#
# If this CIF has been generated from an entry in the Cambridge 
# Structural Database, then it will include bibliographic, chemical, 
# crystal, experimental, refinement or atomic coordinate data resulting 
# from the CCDC's data processing and validation procedures.
#
#######################################################################

data_PEJNUP
_chemical_formula_moiety         '(C34 H25 N1 O20 Zn3 2-)n'
_symmetry_cell_setting           monoclinic
_symmetry_space_group_name_H-M   'P 2/c'
_symmetry_Int_Tables_number      13
_space_group_name_Hall           '-P 2yc'
loop_
_symmetry_equiv_pos_site_id
_symmetry_equiv_pos_as_xyz
1 x,y,z
2 -x,y,1/2-z
3 -x,-y,-z
4 x,-y,1/2+z
_cell_length_a                   16.965(4)
_cell_length_b                   15.5171(13)
_cell_length_c                   14.0726(14)
_cell_angle_alpha                90
_cell_angle_beta                 108.119(18)
_cell_angle_gamma                90
_cell_volume                     3520.88
loop_
_atom_site_label
_atom_site_type_symbol
_atom_site_fract_x
_atom_site_fract_y
_atom_site_fract_z
O10 O 0.0149(10) 0.0484(10) 0.5081(14)
C21 C 0.0647(9) 0.1004(11) 0.4619(9)
H15 H 0.0333 0.1472 0.4220
H16 H 0.0906 0.0661 0.4223
O10B O -0.0149(10) -0.0484(10) 0.4919(14)
C21B C -0.0647(9) -0.1004(11) 0.5381(9)
H15B H -0.0333 -0.1472 0.5780
H16B H -0.0906 -0.0661 0.5777
C16 C -0.1256(8) -0.1312(9) 0.4427(10)
H6 H -0.1112 -0.0838 0.4051
C17 C -0.2149(8) -0.1053(10) 0.4093(14)
H7 H -0.2236 -0.0581 0.4501
H8 H -0.2313 -0.0864 0.3402
C18 C -0.2654(10) -0.1820(9) 0.4198(12)
H9 H -0.2482 -0.2026 0.4882
H10 H -0.3239 -0.1676 0.4003
C19 C -0.2489(8) -0.2485(11) 0.3509(12)
H11 H -0.2814 -0.2996 0.3527
H12 H -0.2674 -0.2263 0.2831
C20 C -0.1588(7) -0.2740(7) 0.3764(11)
H13 H -0.1505 -0.3158 0.3293
H14 H -0.1381 -0.2974 0.4436
N1 N -0.1200(7) -0.1930(6) 0.3686(7)
Zn1 Zn 0.51225(4) 0.70437(3) -0.36364(4)
Zn2 Zn 0.0000 0.95650(7) -0.7500
O1 O 0.4806(3) 0.3193(2) -0.5067(2)
O2 O 0.4988(4) 0.1947(2) -0.4323(3)
O3 O 0.5101(3) 0.5848(2) -0.3238(2)
O4 O 0.4054(3) 0.7540(3) -0.3751(3)
O5 O 0.3954(3) 0.7663(3) -0.2221(2)
O6 O 0.0556(3) 0.8836(3) -0.6372(3)
O7 O 0.1709(3) 0.8407(4) -0.6684(3)
O8 O 0.0658(3) 0.9785(4) -0.3125(3)
O9 O 0.1538(3) 0.9227(4) -0.1749(3)
C1 C 0.4973(3) 0.4069(3) -0.3359(3)
H1 H 0.4963 0.4370 -0.3935
C2 C 0.4959(4) 0.3183(3) -0.3380(3)
C3 C 0.5000 0.2740(5) -0.2500
H2 H 0.5000 0.2140 -0.2500
C4 C 0.5000 0.4526(4) -0.2500
C5 C 0.4912(4) 0.2723(3) -0.4315(3)
C6 C 0.5000 0.5484(4) -0.2500
C7 C 0.1339(4) 0.8918(5) -0.4369(4)
H3 H 0.0833 0.9196 -0.4640
C8 C 0.1700(4) 0.8546(5) -0.5001(4)
C9 C 0.2456(4) 0.8164(4) -0.4604(4)
H4 H 0.2709 0.7914 -0.5035
C10 C 0.2868(4) 0.8136(4) -0.3570(4)
C11 C 0.2438(4) 0.8502(4) -0.2945(4)
H5 H 0.2670 0.8469 -0.2254
C12 C 0.1684(4) 0.8906(5) -0.3348(4)
C13 C 0.3679(4) 0.7746(4) -0.3150(4)
C14 C 0.1313(5) 0.8598(5) -0.6089(4)
C15 C 0.1296(5) 0.9343(5) -0.2665(5)
Zn1C Zn 0.51225(4) 1.29563(3) -0.86364(4)
Zn1B Zn 0.48775(4) 0.29563(3) -0.63636(4)
Zn1A Zn 0.48775(4) 0.70437(3) -0.13636(4)
Zn1C_2 Zn 0.51225(4) 0.29563(3) 0.13636(4)
Zn1B_2 Zn 0.48775(4) 1.29563(3) -0.63636(4)
Zn2B Zn 0.0000 1.04350(7) -0.2500
Zn2B_2 Zn 0.0000 1.04350(7) -1.2500
O1A O 0.5194(3) 0.3193(2) 0.0067(2)
O1B O 0.5194(3) 0.6807(2) -0.4933(2)
O1A_2 O 0.5194(3) 1.3193(2) -0.9933(2)
O2A O 0.5012(4) 0.1947(2) -0.0677(3)
O3A O 0.4899(3) 0.5848(2) -0.1762(2)
O3C O 0.5101(3) 1.4152(2) -0.8238(2)
O4C O 0.4054(3) 1.2460(3) -0.8751(3)
O5C O 0.3954(3) 1.2337(3) -0.7221(2)
O5A O 0.6046(3) 0.7663(3) -0.2779(2)
O5B O 0.6046(3) 1.2337(3) -0.7779(2)
O6C O 0.0556(3) 1.1164(3) -1.1372(3)
O6A O -0.0556(3) 0.8836(3) -0.8628(3)
O7C O 0.1709(3) 1.1593(4) -1.1684(3)
O8C O 0.0658(3) 1.0215(4) -0.8125(3)
O8B O -0.0658(3) 1.0215(4) -0.6875(3)
O9C O 0.1538(3) 1.0773(4) -0.6749(3)
C1A C 0.5027(3) 0.4069(3) -0.1641(3)
H1A H 0.5037 0.4370 -0.1065
C2A C 0.5041(4) 0.3183(3) -0.1620(3)
C5A C 0.5088(4) 0.2723(3) -0.0685(3)
C7C C 0.1339(4) 1.1082(5) -0.9369(4)
H3C H 0.0833 1.0804 -0.9640
C8C C 0.1700(4) 1.1454(5) -1.0001(4)
C9C C 0.2456(4) 1.1836(4) -0.9604(4)
H4C H 0.2709 1.2086 -1.0035
C10C C 0.2868(4) 1.1864(4) -0.8570(4)
C11C C 0.2438(4) 1.1498(4) -0.7945(4)
H5C H 0.2670 1.1531 -0.7254
C12C C 0.1684(4) 1.1094(5) -0.8348(4)
C13C C 0.3679(4) 1.2254(4) -0.8150(4)
C14C C 0.1313(5) 1.1402(5) -1.1089(4)
C15C C 0.1296(5) 1.0657(5) -0.7665(5)
loop_
_geom_bond_atom_site_label_1
_geom_bond_atom_site_label_2
_geom_bond_site_symmetry_1
_geom_bond_site_symmetry_2
Zn1 O3 1_555 1_555
Zn2 O6 1_555 1_555
O1 C5 1_555 1_555
O2 C5 1_555 1_555
O3 C6 1_555 1_555
O4 Zn1 1_555 1_555
O5 C13 1_555 1_555
O6 C14 1_555 1_555
O7 C14 1_555 1_555
O8 C15 1_555 1_555
O9 C15 1_555 1_555
O10 C21 1_555 1_555
C1 H1 1_555 1_555
C2 C1 1_555 1_555
C3 C2 1_555 1_555
H2 C3 1_555 1_555
C4 C1 1_555 1_555
C5 C2 1_555 1_555
C6 C4 1_555 1_555
C7 H3 1_555 1_555
C8 C7 1_555 1_555
C9 C8 1_555 1_555
H4 C9 1_555 1_555
C10 C9 1_555 1_555
C11 C10 1_555 1_555
H5 C11 1_555 1_555
C12 C7 1_555 1_555
C13 O4 1_555 1_555
C14 C8 1_555 1_555
C15 C12 1_555 1_555
C16 H6 1_555 1_555
C17 C16 1_555 1_555
H7 C17 1_555 1_555
H8 C17 1_555 1_555
C18 C17 1_555 1_555
H9 C18 1_555 1_555
H10 C18 1_555 1_555
C19 C18 1_555 1_555
H11 C19 1_555 1_555
H12 C19 1_555 1_555
C20 C19 1_555 1_555
H13 C20 1_555 1_555
H14 C20 1_555 1_555
C21 H15 1_555 1_555
H16 C21 1_555 1_555
N1 C16 1_555 1_555
Zn1C O1A_2 1_555 1_555
Zn1B O1 1_555 1_555
Zn1A O5 1_555 1_555
Zn1C_2 O1A 1_555 1_555
Zn1B_2 O5C 1_555 1_555
Zn2B O8 1_555 1_555
Zn2B_2 O6C 1_555 1_555
O1A C5A 1_555 1_555
O1B Zn1 1_555 1_555
O2A C5A 1_555 1_555
O3A C6 1_555 1_555
O3C Zn1C 1_555 1_555
O4C Zn1C 1_555 1_555
O5C C13C 1_555 1_555
O5A Zn1 1_555 1_555
O5B Zn1C 1_555 1_555
O6C C14C 1_555 1_555
O6A Zn2 1_555 1_555
O7C C14C 1_555 1_555
O8C Zn2 1_555 1_555
O8B Zn2 1_555 1_555
O9C C15C 1_555 1_555
O10B O10 1_555 1_555
C1A C4 1_555 1_555
H1A C1A 1_555 1_555
C2A C3 1_555 1_555
C5A C2A 1_555 1_555
C7C H3C 1_555 1_555
C8C C7C 1_555 1_555
C9C C8C 1_555 1_555
H4C C9C 1_555 1_555
C10C C9C 1_555 1_555
C11C C10C 1_555 1_555
H5C C11C 1_555 1_555
C12C C7C 1_555 1_555
C13C O4C 1_555 1_555
C14C C8C 1_555 1_555
C15C O8C 1_555 1_555
C21B O10B 1_555 1_555
H15B C21B 1_555 1_555
H16B C21B 1_555 1_555
C10 C13 1_555 1_555
C11 C12 1_555 1_555
C20 N1 1_555 1_555
Zn1A O3A 1_555 1_555
C1A C2A 1_555 1_555
C10C C13C 1_555 1_555
C11C C12C 1_555 1_555
C12C C15C 1_555 1_555

#END
