
#######################################################################
#
#                 Cambridge Crystallographic Data Centre
#                                CCDC 
#
#######################################################################
#
# If this CIF has been generated from an entry in the Cambridge 
# Structural Database, then it will include bibliographic, chemical, 
# crystal, experimental, refinement or atomic coordinate data resulting 
# from the CCDC's data processing and validation procedures.
#
#######################################################################

data_PEJNOJ
_chemical_formula_moiety         '(C9 H3 O6 Zn1 2-)n'
_symmetry_cell_setting           cubic
_symmetry_space_group_name_H-M   'I -4 3 d'
_symmetry_Int_Tables_number      220
_space_group_name_Hall           'I -4bd 2c 3'
loop_
_symmetry_equiv_pos_site_id
_symmetry_equiv_pos_as_xyz
1 x,y,z
2 -x,1/2-y,z
3 x,-y,1/2-z
4 1/2-x,y,-z
5 z,x,y
6 y,z,x
7 -z,1/2-x,y
8 1/2-y,z,-x
9 z,-x,1/2-y
10 -y,1/2-z,x
11 1/2-z,x,-y
12 y,-z,1/2-x
13 1/4+y,1/4+x,1/4+z
14 3/4-y,1/4-x,1/4+z
15 1/4-y,1/4+x,3/4-z
16 1/4+y,3/4-x,1/4-z
17 1/4+x,1/4+z,1/4+y
18 1/4+z,1/4+y,1/4+x
19 3/4-x,1/4-z,1/4+y
20 1/4+z,3/4-y,1/4-x
21 1/4-x,1/4+z,3/4-y
22 3/4-z,1/4-y,1/4+x
23 1/4+x,3/4-z,1/4-y
24 1/4-z,1/4+y,3/4-x
25 1/2+x,1/2+y,1/2+z
26 1/2-x,-y,1/2+z
27 1/2+x,1/2-y,-z
28 -x,1/2+y,1/2-z
29 1/2+z,1/2+x,1/2+y
30 1/2+y,1/2+z,1/2+x
31 1/2-z,-x,1/2+y
32 -y,1/2+z,1/2-x
33 1/2+z,1/2-x,-y
34 1/2-y,-z,1/2+x
35 -z,1/2+x,1/2-y
36 1/2+y,1/2-z,-x
37 3/4+y,3/4+x,3/4+z
38 1/4-y,3/4-x,3/4+z
39 3/4-y,3/4+x,1/4-z
40 3/4+y,1/4-x,3/4-z
41 3/4+x,3/4+z,3/4+y
42 3/4+z,3/4+y,3/4+x
43 1/4-x,3/4-z,3/4+y
44 3/4+z,1/4-y,3/4-x
45 3/4-x,3/4+z,1/4-y
46 1/4-z,3/4-y,3/4+x
47 3/4+x,1/4-z,3/4-y
48 3/4-z,3/4+y,1/4-x
_cell_length_a                   20.413(5)
_cell_length_b                   20.413(5)
_cell_length_c                   20.413(5)
_cell_angle_alpha                90
_cell_angle_beta                 90
_cell_angle_gamma                90
_cell_volume                     8505.9
loop_
_atom_site_label
_atom_site_type_symbol
_atom_site_fract_x
_atom_site_fract_y
_atom_site_fract_z
_atom_site_U_iso_or_equiv
_atom_site_thermal_displace_type
Zn1 Zn 0.7500 0.8750 0.5000 0.0537 Uani
O1 O 0.67168(17) 0.92101(15) 0.47335(17) 0.0679 Uani
O2 O 0.68232(19) 0.9898(2) 0.55671(19) 0.0903 Uani
C1 C 0.5716(2) 1.0607(2) 0.5155(2) 0.0633 Uani
H1 H 0.5935 1.0757 0.5525 0.0760 Uiso
C2 C 0.5943(2) 1.0065(2) 0.4839(2) 0.0637 Uani
C3 C 0.6540(2) 0.9712(2) 0.5080(3) 0.0717 Uani
Zn1H Zn 0.5000 1.2500 0.6250 0.0537 Uani
Zn1N Zn 0.3750 1.0000 0.2500 0.0537 Uani
O1C O 0.82832(17) 0.92101(15) 0.52665(17) 0.0679 Uani
O1S O 0.72335(17) 0.82899(15) 0.57832(17) 0.0679 Uani
O1SA O 0.77665(17) 0.82899(15) 0.42168(17) 0.0679 Uani
O1HA O 0.52665(17) 1.17168(17) 0.57899(15) 0.0679 Uani
O1IA O 0.42101(15) 1.02665(17) 0.32832(17) 0.0679 Uani
O2HA O 0.44329(19) 1.18232(19) 0.5102(2) 0.0903 Uani
O2IA O 0.4898(2) 0.94329(19) 0.31768(19) 0.0903 Uani
C1IA C 0.5607(2) 0.9845(2) 0.4284(2) 0.0633 Uani
C1HA C 0.4845(2) 1.0716(2) 0.4393(2) 0.0633 Uani
H1IA H 0.5757 0.9475 0.4065 0.0760 Uiso
H1HA H 0.4475 1.0935 0.4243 0.0760 Uiso
C2HA C 0.5161(2) 1.0943(2) 0.4935(2) 0.0637 Uani
C2IA C 0.5065(2) 1.0161(2) 0.4057(2) 0.0637 Uani
C3HA C 0.4920(3) 1.1540(2) 0.5288(2) 0.0717 Uani
C3IA C 0.4712(2) 0.9920(3) 0.3460(2) 0.0717 Uani
loop_
_atom_site_aniso_label
_atom_site_aniso_U_11
_atom_site_aniso_U_22
_atom_site_aniso_U_33
_atom_site_aniso_U_23
_atom_site_aniso_U_13
_atom_site_aniso_U_12
Zn1 0.0596(4) 0.0418(5) 0.0596(4) 0.000 0.000 0.000
O1 0.073(2) 0.0536(17) 0.077(2) -0.0067(15) -0.0161(16) 0.0103(14)
O2 0.096(2) 0.090(3) 0.085(2) -0.027(2) -0.039(2) 0.032(2)
C1 0.075(3) 0.059(2) 0.056(3) -0.0022(19) -0.014(2) 0.004(2)
C2 0.066(2) 0.062(2) 0.063(3) -0.005(2) -0.0099(19) 0.011(2)
C3 0.076(3) 0.066(3) 0.073(3) 0.002(2) -0.011(3) 0.004(2)
Zn1H 0.0596 0.0596 0.0418 0 0 0
Zn1N 0.0418 0.0596 0.0596 0 0 0
O1C 0.073 0.0536 0.077 0.0067 -0.0161 -0.0103
O1S 0.077 0.0536 0.073 0.0103 0.0161 0.0067
O1SA 0.077 0.0536 0.073 -0.0103 0.0161 -0.0067
O1HA 0.077 0.073 0.0536 -0.0103 -0.0067 0.0161
O1IA 0.0536 0.077 0.073 -0.0161 -0.0103 0.0067
O2HA 0.085 0.096 0.09 -0.032 -0.027 0.039
O2IA 0.09 0.085 0.096 -0.039 -0.032 0.027
C1IA 0.059 0.056 0.075 -0.014 -0.004 0.0022
C1HA 0.056 0.075 0.059 -0.004 -0.0022 0.014
C2HA 0.063 0.066 0.062 -0.011 -0.005 0.0099
C2IA 0.062 0.063 0.066 -0.0099 -0.011 0.005
C3HA 0.073 0.076 0.066 -0.004 0.002 0.011
C3IA 0.066 0.073 0.076 -0.011 -0.004 -0.002
loop_
_geom_bond_atom_site_label_1
_geom_bond_atom_site_label_2
_geom_bond_site_symmetry_1
_geom_bond_site_symmetry_2
Zn1 O1 1_555 1_555
O1 C3 1_555 1_555
O2 C3 1_555 1_555
C1 H1 1_555 1_555
C2 C1 1_555 1_555
C3 C2 1_555 1_555
Zn1H O1HA 1_555 1_555
Zn1N O1IA 1_555 1_555
O1C Zn1 1_555 1_555
O1S Zn1 1_555 1_555
O1SA Zn1 1_555 1_555
O1HA C3HA 1_555 1_555
O1IA C3IA 1_555 1_555
O2HA C3HA 1_555 1_555
O2IA C3IA 1_555 1_555
C1IA C2 1_555 1_555
C1HA H1HA 1_555 1_555
H1IA C1IA 1_555 1_555
C2HA C1 1_555 1_555
C2IA C1IA 1_555 1_555
C3HA C2HA 1_555 1_555
C3IA C2IA 1_555 1_555
C1HA C2HA 1_555 1_555
C1HA C2IA 1_555 1_555

#END
