
#######################################################################
#
#                 Cambridge Crystallographic Data Centre
#                                CCDC 
#
#######################################################################
#
# If this CIF has been generated from an entry in the Cambridge 
# Structural Database, then it will include bibliographic, chemical, 
# crystal, experimental, refinement or atomic coordinate data resulting 
# from the CCDC's data processing and validation procedures.
#
#######################################################################

data_HIDMEO
_chemical_formula_moiety         '(C54 H34 N2 O18 Zn3)n'
_symmetry_cell_setting           triclinic
_symmetry_space_group_name_H-M   'P -1'
_symmetry_Int_Tables_number      2
_space_group_name_Hall           '-P 1'
loop_
_symmetry_equiv_pos_site_id
_symmetry_equiv_pos_as_xyz
1 x,y,z
2 -x,-y,-z
_cell_length_a                   10.2304(13)
_cell_length_b                   10.5293(13)
_cell_length_c                   13.0853(14)
_cell_angle_alpha                100.836(10)
_cell_angle_beta                 90.736(9)
_cell_angle_gamma                113.420(12)
_cell_volume                     1264.34
loop_
_atom_site_label
_atom_site_type_symbol
_atom_site_fract_x
_atom_site_fract_y
_atom_site_fract_z
C1 C 1.4198(10) 0.6931(9) 1.3858(6)
C2 C 1.3269(9) 0.5893(8) 1.2930(6)
C3 C 1.3501(10) 0.4696(9) 1.2508(6)
H1 H 1.4205 0.4511 1.2827
C4 C 1.2116(11) 0.6051(10) 1.2499(7)
H2 H 1.1874 0.6784 1.2819
C5 C 1.2667(11) 0.3761(10) 1.1594(6)
H3 H 1.2854 0.2983 1.1298
C6 C 1.1564(10) 0.3987(10) 1.1127(6)
C7 C 0.7365(11) -0.4353(10) 0.4785(7)
H4 H 0.6430 -0.4756 0.4472
C8 C 1.0815(10) 0.3098(9) 1.0104(6)
C9 C 1.1628(11) 0.3050(9) 0.9251(6)
H5 H 1.2616 0.3555 0.9353
C10 C 1.0990(10) 0.2264(9) 0.8253(6)
C11 C 1.1950(10) 0.2187(10) 0.7420(6)
C12 C 0.9523(10) 0.1471(9) 0.8087(6)
C13 C 0.8767(10) 0.0670(10) 0.7034(7)
C14 C 0.8723(10) 0.1488(9) 0.8941(6)
H6 H 0.7740 0.0951 0.8848
C15 C 0.9360(10) 0.2291(9) 0.9932(6)
C16 C 0.5439(10) 0.1574(10) 1.3192(6)
C17 C 0.8166(13) 0.1155(12) 1.1374(8)
H7 H 0.8683 0.0595 1.1267
C18 C 0.7178(14) 0.0942(12) 1.2109(8)
H8 H 0.7000 0.0204 1.2455
C19 C 0.6461(10) 0.1801(10) 1.2335(6)
C20 C 0.6687(12) 0.2824(10) 1.1776(7)
H9 H 0.6196 0.3406 1.1908
C21 C 0.7648(13) 0.3019(10) 1.1003(7)
H10 H 0.7786 0.3717 1.0622
C22 C 0.8388(10) 0.2159(9) 1.0814(6)
C23 C 0.8187(11) -0.5128(10) 0.4616(7)
H11 H 0.7811 -0.6021 0.4177
C24 C 0.9535(11) -0.4598(11) 0.5083(7)
C25 C 1.0033(14) -0.3249(13) 0.5690(10)
H12 H 1.0969 -0.2815 0.6003
C26 C 0.9138(14) -0.2530(13) 0.5839(10)
H13 H 0.9472 -0.1642 0.6283
C27 C 1.1324(10) 0.5139(10) 1.1605(6)
H14 H 1.0594 0.5311 1.1310
N1 N 0.7844(9) -0.3075(8) 0.5367(5)
O1 O 1.1712(8) 0.1108(7) 0.6775(5)
O2 O 1.3037(8) 0.3375(7) 0.7420(5)
H15 H 1.3477 0.3273 0.6914
O3 O 0.7923(7) -0.0587(6) 0.6946(4)
O4 O 0.8997(8) 0.1378(7) 0.6315(4)
O5 O 1.5334(7) 0.6843(6) 1.4163(4)
O6 O 1.3815(7) 0.7903(6) 1.4286(4)
O7 O 0.4963(8) 0.2513(6) 1.3490(4)
O8 O 0.5152(7) 0.0476(6) 1.3541(4)
O9 O 0.7062(6) -0.0217(6) 0.4946(4)
Zn1 Zn 0.5000 -0.0000 0.5000
Zn2 Zn 0.65810(12) -0.19524(11) 0.56107(7)
C7A C 1.2635(11) -0.5647(10) 0.5215(7)
H4A H 1.3570 -0.5244 0.5528
C23A C 1.1813(11) -0.4872(10) 0.5384(7)
H11A H 1.2189 -0.3979 0.5823
C24A C 1.0465(11) -0.5402(11) 0.4917(7)
C25A C 0.9967(14) -0.6751(13) 0.4310(10)
H12A H 0.9031 -0.7185 0.3997
C26A C 1.0862(14) -0.7470(13) 0.4161(10)
H13A H 1.0528 -0.8358 0.3717
N1A N 1.2156(9) -0.6925(8) 0.4633(5)
C1A C -0.4198(10) -0.6931(9) -0.3858(6)
C2A C -0.3269(9) -0.5893(8) -0.2930(6)
C3A C -0.3501(10) -0.4696(9) -0.2508(6)
H1A H -0.4205 -0.4511 -0.2827
C4A C -0.2116(11) -0.6051(10) -0.2499(7)
H2A H -0.1874 -0.6784 -0.2819
C5A C -0.2667(11) -0.3761(10) -0.1594(6)
H3A H -0.2854 -0.2983 -0.1298
C6A C -0.1564(10) -0.3987(10) -0.1127(6)
C8A C -0.0815(10) -0.3098(9) -0.0104(6)
C9A C -0.1628(11) -0.3050(9) 0.0749(6)
H5A H -0.2616 -0.3555 0.0647
C10A C -0.0990(10) -0.2264(9) 0.1747(6)
C11A C -0.1950(10) -0.2187(10) 0.2580(6)
C12A C 0.0477(10) -0.1471(9) 0.1913(6)
C13A C 0.1233(10) -0.0670(10) 0.2966(7)
C14A C 0.1277(10) -0.1488(9) 0.1059(6)
H6A H 0.2260 -0.0951 0.1152
C15A C 0.0640(10) -0.2291(9) 0.0068(6)
C16A C 0.4561(10) -0.1574(10) -0.3192(6)
C17A C 0.1834(13) -0.1155(12) -0.1374(8)
H7A H 0.1317 -0.0595 -0.1267
C18A C 0.2822(14) -0.0942(12) -0.2109(8)
H8A H 0.3000 -0.0204 -0.2455
C19A C 0.3539(10) -0.1801(10) -0.2335(6)
C20A C 0.3313(12) -0.2824(10) -0.1776(7)
H9A H 0.3804 -0.3406 -0.1908
C21A C 0.2352(13) -0.3019(10) -0.1003(7)
H10A H 0.2214 -0.3717 -0.0622
C22A C 0.1612(10) -0.2159(9) -0.0814(6)
C27A C -0.1324(10) -0.5139(10) -0.1605(6)
H14A H -0.0594 -0.5311 -0.1310
O1A O -0.1712(8) -0.1108(7) 0.3225(5)
O2A O -0.3037(8) -0.3375(7) 0.2580(5)
H15A H -0.3477 -0.3273 0.3086
O3A O 0.2077(7) 0.0587(6) 0.3054(4)
O4A O 0.1003(8) -0.1378(7) 0.3685(4)
O5A O -0.5334(7) -0.6843(6) -0.4163(4)
O6A O -0.3815(7) -0.7903(6) -0.4286(4)
O7A O 0.5037(8) -0.2513(6) -0.3490(4)
O8A O 0.4848(7) -0.0476(6) -0.3541(4)
O9A O 0.2938(6) 0.0217(6) 0.5054(4)
Zn2A Zn 0.34190(12) 0.19524(11) 0.43893(7)
N1A_2 N 0.2156(9) 0.3075(8) 0.4633(5)
O5_2 O 0.5334(7) -0.3157(6) 0.4163(4)
O5A_2 O 0.4666(7) 0.3157(6) 0.5837(4)
O6_2 O 0.3815(7) -0.2097(6) 0.4286(4)
O6A_2 O 0.6185(7) 0.2097(6) 0.5714(4)
O7_2 O 0.4963(8) 0.2513(6) 0.3490(4)
O7A_2 O 0.5037(8) -0.2513(6) 0.6510(4)
O8_2 O 0.5152(7) 0.0476(6) 0.3541(4)
O8A_2 O 0.4848(7) -0.0476(6) 0.6459(4)
Zn1_2 Zn -0.5000 -1.0000 -0.5000
Zn1_3 Zn 0.5000 0.0000 -0.5000
Zn1_4 Zn 0.5000 -0.0000 1.5000
Zn1_5 Zn 1.5000 1.0000 1.5000
Zn2_2 Zn 0.65810(12) -0.19524(11) -0.43893(7)
Zn2_3 Zn 1.65810(12) 0.80476(11) 1.56107(7)
Zn2A_2 Zn -0.65810(12) -0.80476(11) -0.56107(7)
Zn2A_3 Zn 0.34190(12) 0.19524(11) 1.43893(7)
Zn2A_4 Zn 1.34190(12) -0.80476(11) 0.43893(7)
loop_
_geom_bond_atom_site_label_1
_geom_bond_atom_site_label_2
_geom_bond_site_symmetry_1
_geom_bond_site_symmetry_2
C1 C2 1_555 1_555
C2 C3 1_555 1_555
C3 H1 1_555 1_555
C4 C2 1_555 1_555
H2 C4 1_555 1_555
C5 C3 1_555 1_555
H3 C5 1_555 1_555
C6 C5 1_555 1_555
C7 H4 1_555 1_555
C8 C6 1_555 1_555
C9 C8 1_555 1_555
H5 C9 1_555 1_555
C10 C9 1_555 1_555
C11 C10 1_555 1_555
C12 C10 1_555 1_555
C13 C12 1_555 1_555
C14 C12 1_555 1_555
H6 C14 1_555 1_555
C15 C8 1_555 1_555
C16 C19 1_555 1_555
C17 H7 1_555 1_555
C18 C17 1_555 1_555
H8 C18 1_555 1_555
C19 C18 1_555 1_555
C20 C19 1_555 1_555
H9 C20 1_555 1_555
C21 C20 1_555 1_555
H10 C21 1_555 1_555
C22 C15 1_555 1_555
C23 C7 1_555 1_555
H11 C23 1_555 1_555
C24 C23 1_555 1_555
C25 C24 1_555 1_555
H12 C25 1_555 1_555
C26 C25 1_555 1_555
H13 C26 1_555 1_555
C27 C4 1_555 1_555
H14 C27 1_555 1_555
N1 C7 1_555 1_555
O1 C11 1_555 1_555
O2 C11 1_555 1_555
H15 O2 1_555 1_555
O3 C13 1_555 1_555
O4 C13 1_555 1_555
O5 C1 1_555 1_555
O6 C1 1_555 1_555
O7 C16 1_555 1_555
O8 C16 1_555 1_555
O9 Zn1 1_555 1_555
Zn1 O9A 1_555 1_555
Zn2 N1 1_555 1_555
C7A H4A 1_555 1_555
C23A C7A 1_555 1_555
H11A C23A 1_555 1_555
C24A C24 1_555 1_555
C25A C24A 1_555 1_555
H12A C25A 1_555 1_555
C26A C25A 1_555 1_555
H13A C26A 1_555 1_555
N1A C7A 1_555 1_555
C1A C2A 1_555 1_555
C2A C3A 1_555 1_555
C3A H1A 1_555 1_555
C4A C2A 1_555 1_555
H2A C4A 1_555 1_555
C5A C3A 1_555 1_555
H3A C5A 1_555 1_555
C6A C5A 1_555 1_555
C8A C6A 1_555 1_555
C9A C8A 1_555 1_555
H5A C9A 1_555 1_555
C10A C9A 1_555 1_555
C11A C10A 1_555 1_555
C12A C10A 1_555 1_555
C13A C12A 1_555 1_555
C14A C12A 1_555 1_555
H6A C14A 1_555 1_555
C15A C8A 1_555 1_555
C16A C19A 1_555 1_555
C17A H7A 1_555 1_555
C18A C17A 1_555 1_555
H8A C18A 1_555 1_555
C19A C18A 1_555 1_555
C20A C19A 1_555 1_555
H9A C20A 1_555 1_555
C21A C20A 1_555 1_555
H10A C21A 1_555 1_555
C22A C15A 1_555 1_555
C27A C4A 1_555 1_555
H14A C27A 1_555 1_555
O1A C11A 1_555 1_555
O2A C11A 1_555 1_555
H15A O2A 1_555 1_555
O3A C13A 1_555 1_555
O4A C13A 1_555 1_555
O5A C1A 1_555 1_555
O6A C1A 1_555 1_555
O7A C16A 1_555 1_555
O8A C16A 1_555 1_555
O9A Zn2A 1_555 1_555
Zn2A O3A 1_555 1_555
N1A_2 Zn2A 1_555 1_555
O5_2 Zn2 1_555 1_555
O5A_2 Zn2A 1_555 1_555
O6_2 Zn1 1_555 1_555
O6A_2 Zn1 1_555 1_555
O7_2 Zn2A 1_555 1_555
O7A_2 Zn2 1_555 1_555
O8_2 Zn1 1_555 1_555
O8A_2 Zn1 1_555 1_555
Zn1_2 O6A 1_555 1_555
Zn1_3 O8A 1_555 1_555
Zn1_4 O8 1_555 1_555
Zn1_5 O6 1_555 1_555
Zn2_2 O7A 1_555 1_555
Zn2_3 O5 1_555 1_555
Zn2A_2 O5A 1_555 1_555
Zn2A_3 O7 1_555 1_555
Zn2A_4 N1A 1_555 1_555
C6 C27 1_555 1_555
C14 C15 1_555 1_555
C17 C22 1_555 1_555
C21 C22 1_555 1_555
C26 N1 1_555 1_555
O3 Zn2 1_555 1_555
O9 Zn2 1_555 1_555
C23A C24A 1_555 1_555
C26A N1A 1_555 1_555
C6A C27A 1_555 1_555
C14A C15A 1_555 1_555
C17A C22A 1_555 1_555
C21A C22A 1_555 1_555

#END
