
#######################################################################
#
#                 Cambridge Crystallographic Data Centre
#                                CCDC 
#
#######################################################################
#
# If this CIF has been generated from an entry in the Cambridge 
# Structural Database, then it will include bibliographic, chemical, 
# crystal, experimental, refinement or atomic coordinate data resulting 
# from the CCDC's data processing and validation procedures.
#
#######################################################################

data_FIFMOY
_chemical_formula_moiety         '(C25 H21 Co2 N3 O9)n'
_symmetry_cell_setting           hexagonal
_symmetry_space_group_name_H-M   'P 61'
_symmetry_Int_Tables_number      169
_space_group_name_Hall           'P 61'
loop_
_symmetry_equiv_pos_site_id
_symmetry_equiv_pos_as_xyz
1 x,y,z
2 -y,x-y,1/3+z
3 -x+y,-x,2/3+z
4 -x,-y,1/2+z
5 y,-x+y,5/6+z
6 x-y,x,1/6+z
_cell_length_a                   15.8831(4)
_cell_length_b                   15.8831(4)
_cell_length_c                   21.3791(9)
_cell_angle_alpha                90
_cell_angle_beta                 90
_cell_angle_gamma                120
_cell_volume                     4670.79
loop_
_atom_site_label
_atom_site_type_symbol
_atom_site_fract_x
_atom_site_fract_y
_atom_site_fract_z
_atom_site_U_iso_or_equiv
_atom_site_thermal_displace_type
Co1 Co 0.29525(3) 0.85161(3) 0.036968(17) 0.0205 Uani
Co2 Co 0.48236(3) 0.97205(3) 0.141583(16) 0.0187 Uani
N1 N 0.42818(19) 0.94171(18) 0.23934(11) 0.0239 Uani
N2 N 0.2243(2) 0.93165(19) 0.02075(13) 0.0330 Uani
N3 N 0.0252(2) 1.39412(19) -0.00171(12) 0.0301 Uani
O1 O 0.33781(14) 0.91753(15) 0.12389(9) 0.0240 Uani
O2 O 0.20831(19) 0.9049(2) 0.17358(12) 0.0526 Uani
O3 O 0.48567(16) 1.10523(15) 0.16691(10) 0.0289 Uani
O4 O 0.43587(18) 1.16950(17) 0.24094(11) 0.0364 Uani
O5 O 0.22467(17) 0.58969(15) 0.38368(10) 0.0372 Uani
O6 O 0.16973(15) 0.63473(14) 0.46578(9) 0.0266 Uani
O7 O 0.46243(16) 0.96309(16) 0.55615(9) 0.0331 Uani
O8 O 0.58429(15) 1.04414(16) 0.48918(10) 0.0334 Uani
O9 O 0.24981(19) 0.77885(18) -0.05486(11) 0.0454 Uani
H1 H 0.1997 0.7225 -0.0549 0.0680 Uiso
H2 H 0.2927 0.7743 -0.0760 0.0680 Uiso
C1 C 0.3154(2) 0.7512(2) 0.41472(13) 0.0211 Uani
C2 C 0.3602(2) 0.8180(2) 0.46331(13) 0.0235 Uani
H3 H 0.3338 0.8037 0.5033 0.0280 Uiso
C3 C 0.4450(2) 0.9065(2) 0.45152(13) 0.0208 Uani
C4 C 0.4814(2) 0.9292(2) 0.39099(13) 0.0221 Uani
H4 H 0.5377 0.9880 0.3834 0.0260 Uiso
C5 C 0.4352(2) 0.8657(2) 0.34165(13) 0.0213 Uani
C6 C 0.3552(2) 0.7765(2) 0.35485(13) 0.0229 Uani
H5 H 0.3268 0.7316 0.3226 0.0270 Uiso
C7 C 0.4718(2) 0.8930(2) 0.27536(13) 0.0235 Uani
H6 H 0.5418 0.9358 0.2766 0.0280 Uiso
H7 H 0.4591 0.8345 0.2532 0.0280 Uiso
C8 C 0.3222(2) 0.8801(3) 0.23164(16) 0.0392 Uani
H8 H 0.2901 0.8884 0.2678 0.0470 Uiso
H9 H 0.3057 0.8125 0.2303 0.0470 Uiso
C9 C 0.2836(2) 0.9031(2) 0.17270(15) 0.0290 Uani
C10 C 0.4523(3) 1.0355(2) 0.26874(15) 0.0384 Uani
H10 H 0.5145 1.0620 0.2898 0.0460 Uiso
H11 H 0.4035 1.0244 0.3000 0.0460 Uiso
C11 C 0.4571(2) 1.1090(2) 0.22116(14) 0.0249 Uani
C12 C 0.2294(2) 0.6501(2) 0.42271(13) 0.0215 Uani
C13 C 0.5011(2) 0.9773(2) 0.50360(14) 0.0239 Uani
C14 C 0.2784(3) 1.0281(3) 0.02595(19) 0.0460 Uani
H12 H 0.3448 1.0554 0.0328 0.0560 Uiso
C15 C 0.2406(3) 1.0886(3) 0.0216(2) 0.0538 Uani
H13 H 0.2812 1.1555 0.0250 0.0650 Uiso
C16 C 0.1412(3) 1.0498(3) 0.01213(19) 0.0474 Uani
C17 C 0.0859(3) 0.9502(3) 0.0077(2) 0.0521 Uani
H14 H 0.0191 0.9209 0.0016 0.0630 Uiso
C18 C 0.1293(3) 0.8936(3) 0.0125(2) 0.0443 Uani
H15 H 0.0905 0.8264 0.0098 0.0530 Uiso
C19 C 0.0972(3) 1.1115(3) 0.0071(2) 0.0577 Uani
H16 H 0.0314 1.0811 -0.0029 0.0690 Uiso
C20 C 0.1421(3) 1.2055(3) 0.0155(2) 0.0621 Uani
H17 H 0.2077 1.2351 0.0259 0.0750 Uiso
C21 C 0.1011(3) 1.2693(3) 0.0105(2) 0.0500 Uani
C22 C 0.1584(3) 1.3677(3) 0.0152(3) 0.0673 Uani
H18 H 0.2246 1.3949 0.0231 0.0810 Uiso
C23 C 0.1185(3) 1.4271(3) 0.0084(2) 0.0546 Uani
H19 H 0.1596 1.4940 0.0111 0.0660 Uiso
C24 C -0.0311(3) 1.2986(3) -0.0034(2) 0.0558 Uani
H20 H -0.0975 1.2732 -0.0090 0.0670 Uiso
C25 C 0.0024(3) 1.2345(3) 0.0028(3) 0.0729 Uani
H21 H -0.0408 1.1679 0.0018 0.0870 Uiso
Co1A Co 0.14839(3) 0.44364(4) 0.370301(17) 0.0205 Uani
Co1C Co 0.70475(3) 1.14839(3) 0.536968(17) 0.0205 Uani
Co1E Co 0.44364(4) 1.29525(3) 0.203635(17) 0.0205 Uani
Co2A Co 0.02795(3) 0.51031(4) 0.474916(16) 0.0187 Uani
Co2C Co 0.51764(3) 1.02795(3) 0.641583(16) 0.0187 Uani
Co2D Co -0.02795(3) 1.48969(4) -0.025084(16) 0.0187 Uani
N3E N 0.63108(28) 1.0252(2) 0.16496(12) 0.0301 Uani
O4D O 0.16950(17) 0.73363(25) 0.07427(11) 0.0364 Uani
O5B O 0.36502(23) 0.77533(17) 0.05035(10) 0.0372 Uani
O6B O 0.46500(21) 0.83027(15) 0.13245(9) 0.0266 Uani
O7C O 0.53757(16) 1.03691(16) 0.05615(9) 0.0331 Uani
O8C O 0.41571(15) 0.95586(16) -0.01082(10) 0.0334 Uani
loop_
_atom_site_aniso_label
_atom_site_aniso_U_11
_atom_site_aniso_U_22
_atom_site_aniso_U_33
_atom_site_aniso_U_23
_atom_site_aniso_U_13
_atom_site_aniso_U_12
Co1 0.0199(2) 0.0171(2) 0.02368(19) 0.00115(16) -0.00225(16) 0.00871(17)
Co2 0.0197(2) 0.0185(2) 0.01705(18) 0.00128(15) 0.00007(15) 0.00888(18)
N1 0.0297(15) 0.0193(13) 0.0214(13) 0.0018(10) 0.0029(11) 0.0113(12)
N2 0.0366(17) 0.0254(15) 0.0416(17) -0.0040(12) -0.0088(13) 0.0189(13)
N3 0.0325(16) 0.0295(16) 0.0343(15) 0.0043(12) 0.0020(12) 0.0199(14)
O1 0.0220(11) 0.0249(12) 0.0233(11) -0.0014(8) 0.0011(9) 0.0103(10)
O2 0.0370(15) 0.082(2) 0.0506(16) -0.0051(14) 0.0035(12) 0.0385(15)
O3 0.0396(13) 0.0237(12) 0.0263(12) 0.0014(9) 0.0013(10) 0.0180(11)
O4 0.0521(16) 0.0316(13) 0.0360(13) 0.0016(10) 0.0059(11) 0.0289(12)
O5 0.0385(14) 0.0181(12) 0.0379(13) -0.0073(10) 0.0125(11) 0.0013(11)
O6 0.0249(11) 0.0207(11) 0.0273(11) 0.0006(9) 0.0074(9) 0.0063(9)
O7 0.0324(13) 0.0364(14) 0.0179(12) -0.0067(9) -0.0004(9) 0.0077(11)
O8 0.0251(13) 0.0304(13) 0.0262(11) -0.0055(9) -0.0014(9) 0.0000(11)
O9 0.0458(15) 0.0439(16) 0.0309(11) -0.0058(10) -0.0023(11) 0.0108(13)
C1 0.0209(16) 0.0206(16) 0.0183(14) 0.0004(12) -0.0017(12) 0.0078(13)
C2 0.0277(17) 0.0231(16) 0.0157(14) -0.0014(12) 0.0017(12) 0.0097(14)
C3 0.0239(16) 0.0163(15) 0.0182(14) 0.0003(11) -0.0015(12) 0.0071(13)
C4 0.0222(17) 0.0158(15) 0.0207(15) -0.0007(11) 0.0014(12) 0.0039(13)
C5 0.0250(16) 0.0187(16) 0.0195(14) 0.0004(12) 0.0004(12) 0.0105(13)
C6 0.0321(18) 0.0183(15) 0.0152(14) -0.0037(11) -0.0017(12) 0.0103(14)
C7 0.0303(17) 0.0229(16) 0.0187(15) 0.0007(12) 0.0005(13) 0.0143(14)
C8 0.029(2) 0.055(2) 0.0292(18) 0.0116(17) 0.0078(15) 0.0177(18)
C9 0.0231(18) 0.0273(18) 0.0318(17) -0.0043(14) 0.0017(14) 0.0090(15)
C10 0.066(3) 0.035(2) 0.0245(17) -0.0009(14) 0.0035(16) 0.0330(19)
C11 0.0302(18) 0.0193(16) 0.0260(16) -0.0039(13) -0.0026(13) 0.0130(14)
C12 0.0210(16) 0.0195(16) 0.0198(14) 0.0012(13) -0.0023(13) 0.0070(13)
C13 0.0300(18) 0.0201(17) 0.0217(16) -0.0031(13) -0.0036(13) 0.0126(15)
C14 0.041(2) 0.032(2) 0.072(3) -0.0007(19) -0.007(2) 0.0235(19)
C15 0.057(3) 0.032(2) 0.084(3) -0.003(2) -0.007(2) 0.031(2)
C16 0.058(3) 0.052(3) 0.053(2) 0.0012(19) -0.0030(19) 0.043(2)
C17 0.042(2) 0.054(3) 0.075(3) -0.008(2) -0.018(2) 0.035(2)
C18 0.040(2) 0.037(2) 0.060(2) -0.0060(18) -0.0114(18) 0.0224(19)
C19 0.064(3) 0.054(3) 0.077(3) 0.002(2) -0.004(2) 0.046(3)
C20 0.061(3) 0.066(3) 0.085(3) 0.007(3) -0.001(2) 0.051(3)
C21 0.055(3) 0.050(3) 0.066(3) 0.008(2) 0.006(2) 0.042(2)
C22 0.036(2) 0.052(3) 0.126(4) 0.007(3) -0.005(3) 0.031(2)
C23 0.036(2) 0.033(2) 0.101(4) 0.004(2) -0.001(2) 0.0218(19)
C24 0.042(2) 0.039(2) 0.094(4) -0.004(2) -0.013(2) 0.026(2)
C25 0.062(3) 0.036(2) 0.132(5) -0.004(3) -0.011(3) 0.033(2)
Co1A 0.0171 0.01958 0.02368 -0.0034 -0.00115 0.00839
Co1C 0.0199 0.0171 0.02368 -0.00115 0.00225 0.00871
Co1E 0.01958 0.0199 0.02368 -0.00225 -0.0034 0.01119
Co2A 0.0185 0.02044 0.01705 -0.00121 -0.00128 0.00962
Co2C 0.0197 0.0185 0.01705 -0.00128 -7e-05 0.00888
Co2D 0.0185 0.02044 0.01705 0.00121 0.00128 0.00962
N3E 0.0222 0.0325 0.0343 0.002 -0.0023 0.0126
O4D 0.0316 0.0259 0.036 -0.0043 0.0016 0.0027
O5B 0.054 0.0385 0.0379 -0.0125 -0.0198 0.0372
O6B 0.033 0.0249 0.0273 -0.0074 -0.0068 0.0186
O7C 0.0324 0.0364 0.0179 0.0067 0.0004 0.0077
O8C 0.0251 0.0304 0.0262 0.0055 0.0014 0
loop_
_geom_bond_atom_site_label_1
_geom_bond_atom_site_label_2
_geom_bond_site_symmetry_1
_geom_bond_site_symmetry_2
Co1 N2 1_555 1_555
Co2 N1 1_555 1_555
N1 C7 1_555 1_555
N2 C14 1_555 1_555
N3 C23 1_555 1_555
O1 Co1 1_555 1_555
O2 C9 1_555 1_555
O3 Co2 1_555 1_555
O4 C11 1_555 1_555
O5 C12 1_555 1_555
O6 C12 1_555 1_555
O7 C13 1_555 1_555
O8 C13 1_555 1_555
O9 Co1 1_555 1_555
H1 O9 1_555 1_555
H2 O9 1_555 1_555
C1 C2 1_555 1_555
C2 H3 1_555 1_555
C3 C2 1_555 1_555
C4 C3 1_555 1_555
H4 C4 1_555 1_555
C5 C4 1_555 1_555
C6 C1 1_555 1_555
H5 C6 1_555 1_555
C7 C5 1_555 1_555
H6 C7 1_555 1_555
H7 C7 1_555 1_555
C8 N1 1_555 1_555
H8 C8 1_555 1_555
H9 C8 1_555 1_555
C9 O1 1_555 1_555
C10 N1 1_555 1_555
H10 C10 1_555 1_555
H11 C10 1_555 1_555
C11 O3 1_555 1_555
C12 C1 1_555 1_555
C13 C3 1_555 1_555
C14 H12 1_555 1_555
C15 C14 1_555 1_555
H13 C15 1_555 1_555
C16 C15 1_555 1_555
C17 C16 1_555 1_555
H14 C17 1_555 1_555
C18 N2 1_555 1_555
H15 C18 1_555 1_555
C19 C16 1_555 1_555
H16 C19 1_555 1_555
C20 C19 1_555 1_555
H17 C20 1_555 1_555
C21 C20 1_555 1_555
C22 C21 1_555 1_555
H18 C22 1_555 1_555
C23 C22 1_555 1_555
H19 C23 1_555 1_555
C24 N3 1_555 1_555
H20 C24 1_555 1_555
C25 C21 1_555 1_555
H21 C25 1_555 1_555
Co1A O5 1_555 1_555
Co1C O8 1_555 1_555
Co1E O4 1_555 1_555
Co2A O6 1_555 1_555
Co2C O7 1_555 1_555
Co2D N3 1_555 1_555
N3E Co2 1_555 1_555
O4D Co1 1_555 1_555
O5B Co1 1_555 1_555
O6B Co2 1_555 1_555
O7C Co2 1_555 1_555
O8C Co1 1_555 1_555
Co2 O1 1_555 1_555
C5 C6 1_555 1_555
C8 C9 1_555 1_555
C10 C11 1_555 1_555
C17 C18 1_555 1_555
C24 C25 1_555 1_555

#END
