
#######################################################################
#
#                 Cambridge Crystallographic Data Centre
#                                CCDC 
#
#######################################################################
#
# If this CIF has been generated from an entry in the Cambridge 
# Structural Database, then it will include bibliographic, chemical, 
# crystal, experimental, refinement or atomic coordinate data resulting 
# from the CCDC's data processing and validation procedures.
#
#######################################################################

data_FIFMUE
_chemical_formula_moiety         '(C25 H19 Co2 N3 O8)n'
_symmetry_cell_setting           hexagonal
_symmetry_space_group_name_H-M   'P 61'
_symmetry_Int_Tables_number      169
_space_group_name_Hall           'P 61'
loop_
_symmetry_equiv_pos_site_id
_symmetry_equiv_pos_as_xyz
1 x,y,z
2 x-y,x,1/6+z
3 -y,x-y,1/3+z
4 -x,-y,1/2+z
5 -x+y,-x,2/3+z
6 y,-x+y,5/6+z
_cell_length_a                   15.6888(7)
_cell_length_b                   15.6888(7)
_cell_length_c                   21.7323(17)
_cell_angle_alpha                90
_cell_angle_beta                 90
_cell_angle_gamma                120
_cell_volume                     4632.5
loop_
_atom_site_label
_atom_site_type_symbol
_atom_site_fract_x
_atom_site_fract_y
_atom_site_fract_z
_atom_site_U_iso_or_equiv
_atom_site_thermal_displace_type
Co1 Co 0.47482(6) 0.18168(5) 0.17500(4) 0.0355 Uani
Co2 Co 0.55155(6) 0.05830(5) 0.08380(3) 0.0348 Uani
N1 N 0.5036(5) 0.0572(5) -0.0121(3) 0.0537 Uani
N2 N 0.3215(5) 0.0903(6) 0.1950(4) 0.0729 Uani
N3 N -0.3550(5) -0.3490(5) 0.2338(3) 0.0591 Uani
O1 O 0.4535(3) 0.1105(3) 0.0948(2) 0.0452 Uani
O2 O 0.3806(19) 0.174(2) 0.0504(6) 0.3451 Uani
O3 O 0.4332(5) -0.0811(4) 0.0811(5) 0.0828 Uani
O4 O 0.2918(5) -0.1720(6) 0.0352(7) 0.1409 Uani
O5 O 0.6543(4) 0.3818(4) -0.1801(3) 0.0634 Uani
O6 O 0.5328(3) 0.3296(3) -0.2498(2) 0.0453 Uani
O7 O 0.4413(5) -0.0261(4) -0.3235(3) 0.0669 Uani
O8 O 0.5021(5) -0.0989(4) -0.2640(2) 0.0611 Uani
C1 C 0.5623(5) 0.2129(5) -0.1985(3) 0.0442 Uani
C2 C 0.5221(5) 0.1362(5) -0.2419(3) 0.0453 Uani
H1 H 0.5048 0.1470 -0.2809 0.0550 Uiso
C3 C 0.5084(6) 0.0444(5) -0.2265(3) 0.0449 Uani
C4 C 0.5285(6) 0.0274(5) -0.1667(3) 0.0479 Uani
H2 H 0.5165 -0.0352 -0.1563 0.0580 Uiso
C5 C 0.5657(6) 0.1000(5) -0.1227(3) 0.0506 Uani
C6 C 0.5863(6) 0.1946(5) -0.1407(3) 0.0478 Uani
H3 H 0.6171 0.2463 -0.1129 0.0580 Uiso
C7 C 0.5850(6) 0.0817(6) -0.0574(3) 0.0511 Uani
H4 H 0.5989 0.0281 -0.0577 0.0620 Uiso
H5 H 0.6437 0.1399 -0.0429 0.0620 Uiso
C8 C 0.4734(11) 0.1314(13) -0.0124(4) 0.1192 Uani
H6 H 0.4279 0.1182 -0.0461 0.1430 Uiso
H7 H 0.5306 0.1958 -0.0191 0.1430 Uiso
C9 C 0.4240(10) 0.1318(12) 0.0485(4) 0.1044 Uani
C10 C 0.4171(9) -0.0453(12) -0.0204(6) 0.1248 Uani
H8 H 0.3638 -0.0402 -0.0394 0.1500 Uiso
H9 H 0.4360 -0.0808 -0.0487 0.1500 Uiso
C11 C 0.3794(7) -0.1040(6) 0.0369(6) 0.0779 Uani
C12 C 0.5846(5) 0.3170(5) -0.2115(3) 0.0436 Uani
C13 C 0.4793(6) -0.0334(5) -0.2761(3) 0.0463 Uani
C14 C 0.2830(8) -0.0070(9) 0.1911(7) 0.1109 Uani
H10 H 0.3233 -0.0329 0.1814 0.1330 Uiso
C15 C 0.1811(11) -0.0715(12) 0.2016(9) 0.1549 Uani
H11 H 0.1570 -0.1390 0.2030 0.1860 Uiso
C16 C 0.1183(9) -0.0369(18) 0.2096(7) 0.1537 Uani
C17 C 0.1611(9) 0.0628(17) 0.2127(8) 0.1496 Uani
H12 H 0.1210 0.0895 0.2208 0.1800 Uiso
C18 C 0.2597(7) 0.1262(12) 0.2047(7) 0.1104 Uani
H13 H 0.2844 0.1938 0.2058 0.1320 Uiso
C19 C 0.0111(13) -0.0793(14) 0.2167(9) 0.2020 Uani
H14 H -0.0166 -0.0398 0.2235 0.2410 Uiso
C20 C -0.0436(8) -0.1760(15) 0.2129(9) 0.1969 Uani
H15 H -0.0167 -0.2159 0.2049 0.2370 Uiso
C21 C -0.1513(7) -0.2172(14) 0.2222(7) 0.1249 Uani
C22 C -0.1925(8) -0.3191(15) 0.2227(10) 0.1509 Uani
H16 H -0.1515 -0.3457 0.2184 0.1820 Uiso
C23 C -0.2923(7) -0.3815(10) 0.2293(7) 0.1108 Uani
H17 H -0.3163 -0.4490 0.2307 0.1330 Uiso
C24 C -0.3174(7) -0.2522(8) 0.2329(7) 0.1076 Uani
H18 H -0.3593 -0.2265 0.2365 0.1290 Uiso
C25 C -0.2161(10) -0.1880(10) 0.2267(9) 0.1354 Uani
H19 H -0.1934 -0.1208 0.2257 0.1620 Uiso
Co1C Co 0.52518(6) -0.18168(5) -0.32500(4) 0.0355 Uani
Co1D Co 0.70686(8) 0.52518(6) -0.15833(4) 0.0355 Uani
Co1E Co 0.18168(5) -0.29314(8) 0.00833(4) 0.0355 Uani
Co2A Co -0.50675(8) -0.44845(6) 0.25047(3) 0.0348 Uani
Co2C Co 0.44845(6) -0.05830(5) -0.41620(3) 0.0348 Uani
Co2D Co 0.50675(8) 0.44845(6) -0.24953(3) 0.0348 Uani
N3E N 0.6510(5) 0.0060(7) 0.0671(3) 0.0591 Uani
O4A O 0.4638(8) 0.2918(5) 0.2019(7) 0.1409 Uani
O5B O 0.6182(4) 0.2725(6) 0.1532(3) 0.0634 Uani
O6B O 0.6704(3) 0.2032(4) 0.0835(2) 0.0453 Uani
O7C O 0.5587(5) 0.0261(4) 0.1765(3) 0.0669 Uani
O8C O 0.4979(5) 0.0989(4) 0.2360(2) 0.0611 Uani
loop_
_atom_site_aniso_label
_atom_site_aniso_U_11
_atom_site_aniso_U_22
_atom_site_aniso_U_33
_atom_site_aniso_U_23
_atom_site_aniso_U_13
_atom_site_aniso_U_12
Co1 0.0396(4) 0.0296(4) 0.0377(4) 0.0016(3) 0.0069(3) 0.0176(3)
Co2 0.0399(4) 0.0315(4) 0.0326(4) 0.0031(3) 0.0060(3) 0.0176(3)
N1 0.051(3) 0.075(4) 0.037(3) -0.014(3) -0.010(2) 0.033(3)
N2 0.041(3) 0.076(5) 0.080(5) -0.004(4) 0.012(3) 0.013(3)
N3 0.045(3) 0.074(4) 0.048(4) 0.015(3) 0.005(3) 0.022(3)
O1 0.042(2) 0.052(3) 0.041(3) -0.011(2) -0.0066(19) 0.023(2)
O2 0.56(3) 0.78(5) 0.102(9) 0.079(17) 0.070(14) 0.64(4)
O3 0.062(4) 0.033(3) 0.131(6) 0.000(4) 0.017(4) 0.007(3)
O4 0.048(4) 0.064(4) 0.276(14) -0.060(6) 0.000(6) 0.002(3)
O5 0.073(3) 0.046(3) 0.081(4) -0.018(3) -0.034(3) 0.037(3)
O6 0.060(3) 0.037(2) 0.044(2) -0.0039(19) -0.009(2) 0.028(2)
O7 0.111(5) 0.080(4) 0.038(3) -0.026(3) -0.025(3) 0.069(4)
O8 0.099(4) 0.055(3) 0.046(3) -0.012(2) -0.010(3) 0.051(3)
C1 0.065(4) 0.045(3) 0.034(3) -0.006(3) -0.006(3) 0.036(3)
C2 0.067(4) 0.049(3) 0.032(3) -0.005(3) -0.010(3) 0.038(3)
C3 0.069(4) 0.045(4) 0.032(3) -0.008(3) -0.008(3) 0.037(3)
C4 0.075(5) 0.045(4) 0.037(4) -0.006(3) -0.010(3) 0.040(4)
C5 0.084(5) 0.056(4) 0.025(3) -0.001(3) -0.005(3) 0.045(4)
C6 0.068(4) 0.047(4) 0.034(3) -0.012(3) -0.014(3) 0.033(3)
C7 0.071(5) 0.062(4) 0.032(3) -0.006(3) -0.005(3) 0.042(4)
C8 0.184(13) 0.245(18) 0.035(5) 0.007(7) 0.001(6) 0.187(15)
C9 0.133(10) 0.206(14) 0.052(6) -0.005(7) 0.000(6) 0.143(11)
C10 0.060(6) 0.168(13) 0.093(9) -0.062(9) -0.024(6) 0.017(8)
C11 0.049(5) 0.039(4) 0.131(10) -0.032(5) 0.024(6) 0.011(4)
C12 0.057(4) 0.040(3) 0.044(4) -0.008(3) -0.003(3) 0.032(3)
C13 0.071(5) 0.041(3) 0.031(3) -0.004(3) 0.000(3) 0.031(3)
C14 0.055(6) 0.079(7) 0.150(13) 0.025(7) 0.008(6) -0.003(5)
C15 0.085(10) 0.113(11) 0.154(16) 0.018(10) -0.003(9) -0.035(9)
C16 0.034(6) 0.25(2) 0.097(10) 0.003(12) 0.010(6) 0.011(10)
C17 0.046(7) 0.202(19) 0.146(14) -0.042(13) 0.022(7) 0.021(9)
C18 0.049(5) 0.145(11) 0.122(10) -0.026(8) 0.023(6) 0.037(6)
C19 0.087(10) 0.29(3) 0.110(13) 0.026(16) -0.002(9) 0.005(14)
C20 0.084(10) 0.25(2) 0.128(15) 0.066(16) 0.001(9) -0.013(13)
C21 0.035(5) 0.183(16) 0.104(10) 0.048(10) -0.001(5) 0.015(7)
C22 0.044(6) 0.190(17) 0.206(19) 0.088(15) 0.030(8) 0.049(8)
C23 0.045(5) 0.129(10) 0.163(13) 0.042(9) 0.017(6) 0.047(6)
C24 0.053(5) 0.071(6) 0.164(14) 0.025(7) 0.015(6) 0.005(5)
C25 0.078(9) 0.084(8) 0.157(15) -0.005(8) 0.013(8) -0.025(7)
Co1C 0.0396 0.0296 0.0377 -0.0016 -0.0069 0.0176
Co1D 0.034 0.0396 0.0377 -0.0069 -0.0053 0.022
Co1E 0.0296 0.034 0.0377 -0.0053 0.0016 0.012
Co2A 0.0362 0.0399 0.0326 0.006 0.0029 0.0223
Co2C 0.0399 0.0315 0.0326 -0.0031 -0.006 0.0176
Co2D 0.0362 0.0399 0.0326 -0.006 -0.0029 0.0223
N3E 0.074 0.075 0.048 0.01 0.015 0.052
O4A 0.108 0.048 0.276 0 0.06 0.046
O5B 0.046 0.045 0.081 -0.016 0.018 0.009
O6B 0.037 0.041 0.044 -0.0051 0.0039 0.009
O7C 0.111 0.08 0.038 0.026 0.025 0.069
O8C 0.099 0.055 0.046 0.012 0.01 0.051
loop_
_geom_bond_atom_site_label_1
_geom_bond_atom_site_label_2
_geom_bond_site_symmetry_1
_geom_bond_site_symmetry_2
Co1 N2 1_555 1_555
Co2 N1 1_555 1_555
N1 C7 1_555 1_555
N2 C14 1_555 1_555
N3 C23 1_555 1_555
O1 Co1 1_555 1_555
O2 C9 1_555 1_555
O3 Co2 1_555 1_555
O4 C11 1_555 1_555
O5 C12 1_555 1_555
O6 C12 1_555 1_555
O7 C13 1_555 1_555
O8 C13 1_555 1_555
C1 C2 1_555 1_555
C2 H1 1_555 1_555
C3 C2 1_555 1_555
C4 C3 1_555 1_555
H2 C4 1_555 1_555
C5 C4 1_555 1_555
C6 C1 1_555 1_555
H3 C6 1_555 1_555
C7 C5 1_555 1_555
H4 C7 1_555 1_555
H5 C7 1_555 1_555
C8 N1 1_555 1_555
H6 C8 1_555 1_555
H7 C8 1_555 1_555
C9 O1 1_555 1_555
C10 N1 1_555 1_555
H8 C10 1_555 1_555
H9 C10 1_555 1_555
C11 O3 1_555 1_555
C12 C1 1_555 1_555
C13 C3 1_555 1_555
C14 H10 1_555 1_555
C15 C14 1_555 1_555
H11 C15 1_555 1_555
C16 C15 1_555 1_555
C17 C16 1_555 1_555
H12 C17 1_555 1_555
C18 N2 1_555 1_555
H13 C18 1_555 1_555
C19 C16 1_555 1_555
H14 C19 1_555 1_555
C20 C19 1_555 1_555
H15 C20 1_555 1_555
C21 C20 1_555 1_555
C22 C21 1_555 1_555
H16 C22 1_555 1_555
C23 C22 1_555 1_555
H17 C23 1_555 1_555
C24 N3 1_555 1_555
H18 C24 1_555 1_555
C25 C21 1_555 1_555
H19 C25 1_555 1_555
Co1C O8 1_555 1_555
Co1D O5 1_555 1_555
Co1E O4 1_555 1_555
Co2A N3 1_555 1_555
Co2C O7 1_555 1_555
Co2D O6 1_555 1_555
N3E Co2 1_555 1_555
O4A Co1 1_555 1_555
O5B Co1 1_555 1_555
O6B Co2 1_555 1_555
O7C Co2 1_555 1_555
O8C Co1 1_555 1_555
Co2 O1 1_555 1_555
C5 C6 1_555 1_555
C8 C9 1_555 1_555
C10 C11 1_555 1_555
C17 C18 1_555 1_555
C24 C25 1_555 1_555

#END
