
#######################################################################
#
#                 Cambridge Crystallographic Data Centre
#                                CCDC 
#
#######################################################################
#
# If this CIF has been generated from an entry in the Cambridge 
# Structural Database, then it will include bibliographic, chemical, 
# crystal, experimental, refinement or atomic coordinate data resulting 
# from the CCDC's data processing and validation procedures.
#
#######################################################################

data_FIFMIS
_chemical_formula_moiety         '(C25 H33 Co2 N3 O15)n'
_symmetry_cell_setting           hexagonal
_symmetry_space_group_name_H-M   'P 61'
_symmetry_Int_Tables_number      169
_space_group_name_Hall           'P 61'
loop_
_symmetry_equiv_pos_site_id
_symmetry_equiv_pos_as_xyz
1 x,y,z
2 x-y,x,1/6+z
3 -y,x-y,1/3+z
4 -x,-y,1/2+z
5 -x+y,-x,2/3+z
6 y,-x+y,5/6+z
_cell_length_a                   15.9288(6)
_cell_length_b                   15.9288(6)
_cell_length_c                   21.3663(11)
_cell_angle_alpha                90
_cell_angle_beta                 90
_cell_angle_gamma                120
_cell_volume                     4694.9
loop_
_atom_site_label
_atom_site_type_symbol
_atom_site_fract_x
_atom_site_fract_y
_atom_site_fract_z
_atom_site_U_iso_or_equiv
_atom_site_thermal_displace_type
Co1 Co 0.84656(5) 0.55341(5) 0.00816(3) 0.0177 Uani
Co2 Co 0.96929(5) 0.48305(5) 0.11412(3) 0.0167 Uani
N1 N 0.9418(3) 0.5059(3) 0.21157(18) 0.0198 Uani
N2 N 0.9305(3) 0.7043(3) -0.0055(2) 0.0299 Uani
N3 N 1.3911(3) 1.3658(3) -0.02793(19) 0.0251 Uani
O1 O 0.9123(3) 0.5739(3) 0.09744(15) 0.0230 Uani
O2 O 0.8953(4) 0.6854(3) 0.1493(2) 0.0529 Uani
O3 O 1.1012(3) 0.6168(3) 0.13741(16) 0.0270 Uani
O4 O 1.1655(3) 0.7271(3) 0.21294(18) 0.0390 Uani
O5 O 0.5899(3) 0.3607(4) 0.3593(2) 0.0449 Uani
O6 O 0.6396(2) 0.4701(3) 0.43671(16) 0.0249 Uani
O7 O 0.9696(3) 0.5116(3) 0.52725(15) 0.0292 Uani
O8 O 1.0446(3) 0.4603(3) 0.46331(17) 0.0327 Uani
C1 C 0.7529(4) 0.4327(4) 0.3877(2) 0.0198 Uani
C2 C 0.8192(4) 0.4567(4) 0.4357(2) 0.0203 Uani
H1 H 0.8052 0.4704 0.4753 0.0250 Uiso
C3 C 0.9073(3) 0.4604(4) 0.4244(2) 0.0193 Uani
C4 C 0.9282(4) 0.4439(4) 0.3637(2) 0.0197 Uani
H2 H 0.9868 0.4463 0.3561 0.0230 Uiso
C5 C 0.8653(4) 0.4244(4) 0.3153(2) 0.0191 Uani
C6 C 0.7762(4) 0.4159(4) 0.3277(2) 0.0206 Uani
H3 H 0.7311 0.3988 0.2955 0.0250 Uiso
C7 C 0.8911(4) 0.4136(4) 0.2484(2) 0.0204 Uani
H4 H 0.9321 0.3847 0.2494 0.0250 Uiso
H5 H 0.8319 0.3690 0.2265 0.0250 Uiso
C8 C 0.8825(5) 0.5527(5) 0.2071(3) 0.0351 Uani
H6 H 0.8962 0.5949 0.2430 0.0420 Uiso
H7 H 0.8146 0.5030 0.2092 0.0420 Uiso
C9 C 0.8993(4) 0.6118(4) 0.1477(2) 0.0241 Uani
C10 C 1.0368(4) 0.5729(4) 0.2405(2) 0.0296 Uani
H8 H 1.0644 0.5357 0.2577 0.0360 Uiso
H9 H 1.0274 0.6076 0.2746 0.0360 Uiso
C11 C 1.1073(4) 0.6459(4) 0.1928(2) 0.0241 Uani
C12 C 0.6525(3) 0.4209(4) 0.3962(2) 0.0207 Uani
C13 C 0.9798(4) 0.4790(4) 0.4763(2) 0.0213 Uani
C14 C 1.0267(5) 0.7458(4) 0.0023(3) 0.0441 Uani
H10 H 1.0528 0.7063 0.0111 0.0530 Uiso
C15 C 1.0881(5) 0.8437(4) -0.0022(4) 0.0524 Uani
H11 H 1.1543 0.8699 0.0043 0.0630 Uiso
C16 C 1.0503(6) 0.9046(5) -0.0166(3) 0.0468 Uani
C17 C 0.9519(6) 0.8606(5) -0.0243(3) 0.0490 Uani
H12 H 0.9236 0.8980 -0.0335 0.0590 Uiso
C18 C 0.8956(5) 0.7638(4) -0.0187(3) 0.0408 Uani
H13 H 0.8291 0.7366 -0.0243 0.0490 Uiso
C19 C 1.1128(6) 1.0101(5) -0.0205(3) 0.0551 Uani
H14 H 1.0828 1.0456 -0.0304 0.0660 Uiso
C20 C 1.2063(6) 1.0592(5) -0.0115(4) 0.0549 Uani
H15 H 1.2365 1.0238 -0.0020 0.0660 Uiso
C21 C 1.2685(5) 1.1653(4) -0.0149(3) 0.0421 Uani
C22 C 1.3689(5) 1.2082(5) -0.0159(4) 0.0560 Uani
H16 H 1.3974 1.1698 -0.0114 0.0670 Uiso
C23 C 1.4260(5) 1.3058(5) -0.0233(3) 0.0434 Uani
H17 H 1.4928 1.3317 -0.0252 0.0520 Uiso
C24 C 1.2933(4) 1.3250(4) -0.0235(3) 0.0369 Uani
H18 H 1.2671 1.3656 -0.0252 0.0450 Uiso
C25 C 1.2321(5) 1.2291(5) -0.0167(3) 0.0466 Uani
H19 H 1.1658 1.2053 -0.0132 0.0560 Uiso
O9 O 0.7799(3) 0.5321(3) -0.08151(18) 0.0347 Uani
H20 H 0.7196 0.5102 -0.0762 0.0520 Uiso
H21 H 0.7856 0.4976 -0.1097 0.0520 Uiso
Co1A Co 1.29315(7) 0.84656(5) 0.17483(3) 0.0177 Uani
Co1B Co 0.44659(5) 0.29315(7) 0.34149(3) 0.0177 Uani
Co1C Co 1.15344(5) 0.44659(5) 0.50816(3) 0.0177 Uani
Co2B Co 0.51695(5) 0.48624(7) 0.44745(3) 0.0167 Uani
Co2C Co 1.03071(5) 0.51695(5) 0.61412(3) 0.0167 Uani
Co2E Co 1.48305(5) 1.51376(7) -0.05255(3) 0.0167 Uani
N3A N 1.0253(4) 0.3911(3) 0.13874(19) 0.0251 Uani
O4E O 0.7271(3) 0.5616(4) 0.04627(18) 0.0390 Uani
O5D O 0.7708(5) 0.4101(3) 0.0260(2) 0.0449 Uani
O6D O 0.8305(4) 0.3604(2) 0.10338(16) 0.0249 Uani
O7C O 1.0304(3) 0.4884(3) 0.02725(15) 0.0292 Uani
O8C O 0.9554(3) 0.5397(3) -0.03669(17) 0.0327 Uani
O10 O 0.6215(7) 0.3976(7) 0.1778(5) 0.1453 Uani
H22 H 0.6244 0.4396 0.2035 0.2180 Uiso
H23 H 0.6325 0.4157 0.1398 0.2180 Uiso
O11 O 0.8014(7) 0.7921(7) 0.1094(5) 0.1460 Uani
H24 H 0.8405 0.7774 0.1266 0.2190 Uiso
H25 H 0.7942 0.7840 0.0701 0.2190 Uiso
O12 O 0.6960(9) 0.5863(8) 0.2171(6) 0.1763 Uani
H26 H 0.7526 0.6121 0.2014 0.2650 Uiso
H27 H 0.6760 0.5768 0.2548 0.2650 Uiso
O13 O 0.7020(13) 0.7059(12) 0.3187(9) 0.1778 Uani
H28 H 0.6488 0.6915 0.3366 0.2660 Uiso
H29 H 0.6969 0.7320 0.2853 0.2660 Uiso
O14 O 0.6788(12) 0.7979(15) 0.2005(8) 0.1976 Uani
H30 H 0.6853 0.8513 0.1874 0.2950 Uiso
H31 H 0.7055 0.7779 0.1746 0.2950 Uiso
O15 O 0.874(2) 0.858(2) 0.2785(15) 0.1420 Uani
H32 H 0.9155 0.8401 0.2765 0.2130 Uiso
H33 H 0.8194 0.8124 0.2911 0.2130 Uiso
loop_
_atom_site_aniso_label
_atom_site_aniso_U_11
_atom_site_aniso_U_22
_atom_site_aniso_U_33
_atom_site_aniso_U_23
_atom_site_aniso_U_13
_atom_site_aniso_U_12
Co1 0.0153(3) 0.0174(3) 0.0197(3) 0.0024(3) 0.0010(3) 0.0077(3)
Co2 0.0171(3) 0.0182(3) 0.0144(3) 0.0013(3) 0.0014(3) 0.0086(3)
N1 0.016(2) 0.019(2) 0.018(2) 0.0017(16) 0.0029(16) 0.0040(18)
N2 0.028(3) 0.022(2) 0.035(2) 0.0038(19) -0.007(2) 0.009(2)
N3 0.027(2) 0.019(2) 0.026(2) -0.0005(18) 0.0023(19) 0.009(2)
O1 0.026(2) 0.0246(19) 0.0216(18) -0.0008(14) 0.0003(15) 0.0150(16)
O2 0.104(4) 0.044(3) 0.036(2) 0.001(2) 0.012(2) 0.056(3)
O3 0.0244(19) 0.025(2) 0.0225(18) -0.0005(15) 0.0030(15) 0.0055(16)
O4 0.035(2) 0.028(2) 0.029(2) -0.0051(17) 0.0036(18) -0.0029(19)
O5 0.019(2) 0.062(3) 0.052(3) -0.034(2) -0.0120(19) 0.019(2)
O6 0.0181(18) 0.028(2) 0.0291(19) -0.0092(16) 0.0004(15) 0.0119(16)
O7 0.032(2) 0.047(2) 0.0197(19) -0.0078(16) -0.0085(15) 0.028(2)
O8 0.027(2) 0.059(3) 0.0260(18) -0.0019(18) -0.0047(16) 0.032(2)
C1 0.016(2) 0.026(3) 0.018(2) -0.001(2) -0.001(2) 0.011(2)
C2 0.019(3) 0.030(3) 0.013(2) -0.004(2) -0.0042(19) 0.013(2)
C3 0.020(3) 0.026(3) 0.014(2) 0.004(2) 0.0021(19) 0.013(2)
C4 0.013(2) 0.021(3) 0.023(3) 0.000(2) 0.0028(19) 0.007(2)
C5 0.019(3) 0.022(3) 0.016(2) 0.001(2) 0.003(2) 0.010(2)
C6 0.019(3) 0.026(3) 0.015(2) 0.001(2) -0.0012(19) 0.010(2)
C7 0.021(3) 0.021(3) 0.016(2) 0.001(2) 0.004(2) 0.008(2)
C8 0.050(4) 0.044(4) 0.024(3) 0.002(3) 0.005(3) 0.033(3)
C9 0.023(3) 0.022(3) 0.027(3) -0.005(2) -0.003(2) 0.011(2)
C10 0.024(3) 0.023(3) 0.022(2) -0.001(2) -0.003(2) -0.003(2)
C11 0.019(3) 0.021(3) 0.027(3) 0.001(2) -0.003(2) 0.006(2)
C12 0.016(3) 0.026(3) 0.022(2) 0.001(2) -0.001(2) 0.012(2)
C13 0.020(3) 0.019(3) 0.020(3) 0.002(2) -0.006(2) 0.006(2)
C14 0.041(4) 0.024(3) 0.059(4) 0.004(3) -0.009(3) 0.010(3)
C15 0.033(4) 0.021(3) 0.076(5) 0.002(3) -0.007(3) -0.007(3)
C16 0.052(4) 0.029(3) 0.043(3) 0.002(3) -0.005(3) 0.008(3)
C17 0.058(5) 0.032(4) 0.059(4) 0.004(3) -0.011(4) 0.024(4)
C18 0.036(4) 0.027(3) 0.049(3) 0.003(3) -0.004(3) 0.008(3)
C19 0.061(5) 0.025(3) 0.064(5) 0.008(3) 0.001(4) 0.010(4)
C20 0.056(5) 0.024(3) 0.074(5) 0.000(3) 0.006(4) 0.012(4)
C21 0.047(4) 0.022(3) 0.049(4) 0.001(3) 0.006(3) 0.011(3)
C22 0.050(4) 0.020(3) 0.096(6) 0.010(4) 0.009(4) 0.016(3)
C23 0.030(3) 0.031(3) 0.069(4) -0.002(3) 0.006(3) 0.015(3)
C24 0.033(3) 0.020(3) 0.048(3) 0.002(3) 0.003(3) 0.006(3)
C25 0.032(4) 0.029(3) 0.065(4) 0.008(3) 0.011(3) 0.005(3)
O9 0.029(2) 0.047(2) 0.032(2) 0.0022(18) 0.0011(17) 0.022(2)
Co1A 0.0173 0.0153 0.0197 0.001 -0.0014 0.0076
Co1B 0.0174 0.0173 0.0197 -0.0014 -0.0024 0.0097
Co1C 0.0153 0.0174 0.0197 -0.0024 -0.001 0.0077
Co2B 0.0182 0.0181 0.0144 0.0001 -0.0013 0.0096
Co2C 0.0171 0.0182 0.0144 -0.0013 -0.0014 0.0086
Co2E 0.0182 0.0181 0.0144 -0.0001 0.0013 0.0096
N3A 0.028 0.027 0.026 0.0023 0.0028 0.018
O4E 0.028 0.0688 0.029 -0.0087 -0.0051 0.0309
O5D 0.043 0.019 0.052 0.012 -0.022 0
O6D 0.0223 0.0181 0.0291 -0.0004 -0.0096 0.0062
O7C 0.032 0.047 0.0197 0.0078 0.0085 0.028
O8C 0.027 0.059 0.026 0.0019 0.0047 0.032
O10 0.147(8) 0.149(9) 0.152(8) 0.068(7) 0.054(7) 0.083(7)
O11 0.168(9) 0.168(9) 0.146(8) -0.008(7) 0.005(7) 0.117(8)
O12 0.176(4) 0.177(4) 0.177(4) -0.0008(10) 0.0006(10) 0.089(2)
O13 0.177(7) 0.178(7) 0.176(7) -0.0003(10) 0.0003(10) 0.087(3)
O14 0.122(13) 0.23(2) 0.178(17) -0.015(15) 0.054(12) 0.041(13)
O15 0.142(7) 0.142(7) 0.142(7) -0.0001(7) 0.0000(7) 0.071(3)
loop_
_geom_bond_atom_site_label_1
_geom_bond_atom_site_label_2
_geom_bond_site_symmetry_1
_geom_bond_site_symmetry_2
Co1 N2 1_555 1_555
Co2 N1 1_555 1_555
N1 C7 1_555 1_555
N2 C14 1_555 1_555
N3 C23 1_555 1_555
O1 Co1 1_555 1_555
O2 C9 1_555 1_555
O3 Co2 1_555 1_555
O4 C11 1_555 1_555
O5 C12 1_555 1_555
O6 C12 1_555 1_555
O7 C13 1_555 1_555
O8 C13 1_555 1_555
C1 C2 1_555 1_555
C2 H1 1_555 1_555
C3 C2 1_555 1_555
C4 C3 1_555 1_555
H2 C4 1_555 1_555
C5 C4 1_555 1_555
C6 C1 1_555 1_555
H3 C6 1_555 1_555
C7 C5 1_555 1_555
H4 C7 1_555 1_555
H5 C7 1_555 1_555
C8 N1 1_555 1_555
H6 C8 1_555 1_555
H7 C8 1_555 1_555
C9 O1 1_555 1_555
C10 N1 1_555 1_555
H8 C10 1_555 1_555
H9 C10 1_555 1_555
C11 O3 1_555 1_555
C12 C1 1_555 1_555
C13 C3 1_555 1_555
C14 H10 1_555 1_555
C15 C14 1_555 1_555
H11 C15 1_555 1_555
C16 C15 1_555 1_555
C17 C16 1_555 1_555
H12 C17 1_555 1_555
C18 N2 1_555 1_555
H13 C18 1_555 1_555
C19 C16 1_555 1_555
H14 C19 1_555 1_555
C20 C19 1_555 1_555
H15 C20 1_555 1_555
C21 C20 1_555 1_555
C22 C21 1_555 1_555
H16 C22 1_555 1_555
C23 C22 1_555 1_555
H17 C23 1_555 1_555
C24 N3 1_555 1_555
H18 C24 1_555 1_555
C25 C21 1_555 1_555
H19 C25 1_555 1_555
O9 Co1 1_555 1_555
H20 O9 1_555 1_555
H21 O9 1_555 1_555
O10 H22 1_555 1_555
H23 O10 1_555 1_555
O11 H24 1_555 1_555
H25 O11 1_555 1_555
O12 H26 1_555 1_555
H27 O12 1_555 1_555
O13 H28 1_555 1_555
H29 O13 1_555 1_555
O14 H30 1_555 1_555
H31 O14 1_555 1_555
O15 H32 1_555 1_555
H33 O15 1_555 1_555
Co1A O4 1_555 1_555
Co1B O5 1_555 1_555
Co1C O8 1_555 1_555
Co2B O6 1_555 1_555
Co2C O7 1_555 1_555
Co2E N3 1_555 1_555
N3A Co2 1_555 1_555
O4E Co1 1_555 1_555
O5D Co1 1_555 1_555
O6D Co2 1_555 1_555
O7C Co2 1_555 1_555
O8C Co1 1_555 1_555
Co2 O1 1_555 1_555
C5 C6 1_555 1_555
C8 C9 1_555 1_555
C10 C11 1_555 1_555
C17 C18 1_555 1_555
C24 C25 1_555 1_555

#END
