
#######################################################################
#
#                 Cambridge Crystallographic Data Centre
#                                CCDC 
#
#######################################################################
#
# If this CIF has been generated from an entry in the Cambridge 
# Structural Database, then it will include bibliographic, chemical, 
# crystal, experimental, refinement or atomic coordinate data resulting 
# from the CCDC's data processing and validation procedures.
#
#######################################################################

data_FIFMIS01
_chemical_formula_moiety         '(C25 H33 Co2 N3 O15)n'
_symmetry_cell_setting           hexagonal
_symmetry_space_group_name_H-M   'P 61'
_symmetry_Int_Tables_number      169
_space_group_name_Hall           'P 61'
loop_
_symmetry_equiv_pos_site_id
_symmetry_equiv_pos_as_xyz
1 x,y,z
2 -y,x-y,1/3+z
3 -x+y,-x,2/3+z
4 -x,-y,1/2+z
5 y,-x+y,5/6+z
6 x-y,x,1/6+z
_cell_length_a                   15.9363(6)
_cell_length_b                   15.9363(6)
_cell_length_c                   21.3380(9)
_cell_angle_alpha                90
_cell_angle_beta                 90
_cell_angle_gamma                120
_cell_volume                     4693.09
loop_
_atom_site_label
_atom_site_type_symbol
_atom_site_fract_x
_atom_site_fract_y
_atom_site_fract_z
_atom_site_U_iso_or_equiv
_atom_site_thermal_displace_type
Co1 Co 0.44665(6) 0.29302(6) 0.08815(3) 0.0224 Uani
Co2 Co 0.51712(6) 0.48611(6) 0.19393(3) 0.0219 Uani
N1 N 0.4944(4) 0.4359(4) 0.2923(2) 0.0268 Uani
N2 N 0.2961(4) 0.2261(5) 0.0747(3) 0.0383 Uani
N3 N -0.3649(4) 0.0247(4) 0.0515(2) 0.0310 Uani
O1 O 0.4260(3) 0.3386(3) 0.17716(19) 0.0289 Uani
O2 O 0.3142(4) 0.2090(4) 0.2294(2) 0.0557 Uani
O3 O 0.3834(3) 0.4853(3) 0.2174(2) 0.0317 Uani
O4 O 0.2736(4) 0.4399(4) 0.2930(2) 0.0468 Uani
O5 O 0.6391(5) 0.2289(4) 0.4389(2) 0.0518 Uani
O6 O 0.5303(3) 0.1702(3) 0.5168(2) 0.0291 Uani
O7 O 0.4887(4) 0.4586(3) 0.6068(2) 0.0354 Uani
O8 O 0.5404(4) 0.5851(3) 0.5433(2) 0.0367 Uani
C1 C 0.5684(4) 0.3207(4) 0.4678(3) 0.0236 Uani
C2 C 0.5429(5) 0.3624(4) 0.5155(3) 0.0248 Uani
H1 H 0.5276 0.3338 0.5550 0.0300 Uiso
C3 C 0.5400(5) 0.4468(4) 0.5046(3) 0.0232 Uani
C4 C 0.5565(5) 0.4847(4) 0.4437(3) 0.0223 Uani
H2 H 0.5538 0.5408 0.4362 0.0270 Uiso
C5 C 0.5764(4) 0.4415(5) 0.3951(3) 0.0247 Uani
C6 C 0.5841(4) 0.3600(4) 0.4079(3) 0.0227 Uani
H3 H 0.6000 0.3312 0.3756 0.0270 Uiso
C7 C 0.5867(4) 0.4780(5) 0.3281(3) 0.0237 Uani
H4 H 0.6152 0.5479 0.3290 0.0290 Uiso
H5 H 0.6313 0.4637 0.3060 0.0290 Uiso
C8 C 0.4480(6) 0.3295(5) 0.2875(3) 0.0397 Uani
H6 H 0.4061 0.3006 0.3235 0.0470 Uiso
H7 H 0.4979 0.3116 0.2891 0.0470 Uiso
C9 C 0.3883(5) 0.2875(5) 0.2277(3) 0.0272 Uani
C10 C 0.4269(5) 0.4638(6) 0.3212(3) 0.0357 Uani
H8 H 0.4637 0.5284 0.3388 0.0430 Uiso
H9 H 0.3916 0.4193 0.3551 0.0430 Uiso
C11 C 0.3550(5) 0.4617(5) 0.2728(3) 0.0271 Uani
C12 C 0.5795(5) 0.2323(4) 0.4756(3) 0.0267 Uani
C13 C 0.5214(5) 0.5012(5) 0.5559(3) 0.0266 Uani
C14 C 0.2547(5) 0.2807(7) 0.0823(4) 0.0504 Uani
H10 H 0.2941 0.3463 0.0909 0.0610 Uiso
C15 C 0.1552(5) 0.2432(7) 0.0778(4) 0.0554 Uani
H11 H 0.1284 0.2827 0.0842 0.0660 Uiso
C16 C 0.0956(6) 0.1444(7) 0.0633(4) 0.0532 Uani
C17 C 0.1392(6) 0.0890(7) 0.0556(4) 0.0541 Uani
H12 H 0.1020 0.0234 0.0464 0.0650 Uiso
C18 C 0.2359(5) 0.1306(6) 0.0615(4) 0.0489 Uani
H13 H 0.2635 0.0917 0.0562 0.0590 Uiso
C19 C -0.0095(7) 0.1028(8) 0.0589(4) 0.0614 Uani
H14 H -0.0445 0.0379 0.0475 0.0740 Uiso
C20 C -0.0595(6) 0.1447(7) 0.0687(5) 0.0586 Uani
H15 H -0.0245 0.2098 0.0798 0.0700 Uiso
C21 C -0.1651(6) 0.1024(6) 0.0646(4) 0.0507 Uani
C22 C -0.2090(6) 0.1584(7) 0.0638(5) 0.0609 Uani
H16 H -0.1705 0.2251 0.0687 0.0730 Uiso
C23 C -0.3060(6) 0.1201(6) 0.0562(4) 0.0481 Uani
H17 H -0.3316 0.1611 0.0541 0.0570 Uiso
C24 C -0.3244(5) -0.0311(6) 0.0562(4) 0.0409 Uani
H18 H -0.3651 -0.0979 0.0546 0.0490 Uiso
C25 C -0.2295(6) 0.0025(6) 0.0630(4) 0.0526 Uani
H19 H -0.2063 -0.0405 0.0667 0.0630 Uiso
O9 O 0.4675(4) 0.2470(4) -0.0015(2) 0.0396 Uani
H20 H 0.5133 0.2921 -0.0224 0.0590 Uiso
H21 H 0.4796 0.2009 -0.0042 0.0590 Uiso
Co1A Co 0.70698(6) 0.15363(8) 0.42148(3) 0.0224 Uani
Co1C Co 0.55335(6) 0.70698(6) 0.58815(3) 0.0224 Uani
Co1E Co 0.15363(8) 0.44665(6) 0.25482(3) 0.0224 Uani
Co2A Co 0.51389(6) 0.03101(8) 0.52726(3) 0.0219 Uani
Co2C Co 0.48288(6) 0.51389(6) 0.69393(3) 0.0219 Uani
Co2D Co -0.51389(6) -0.03101(8) 0.02726(3) 0.0219 Uani
N3E N 0.6104(6) 0.6351(4) 0.2182(2) 0.0310 Uani
O4D O 0.4399(4) 0.1663(6) 0.1263(2) 0.0468 Uani
O5B O 0.5898(6) 0.3609(5) 0.1056(2) 0.0518 Uani
O6B O 0.6399(4) 0.4697(3) 0.1835(2) 0.0291 Uani
O7C O 0.5113(4) 0.5414(3) 0.1068(2) 0.0354 Uani
O8C O 0.4596(4) 0.4149(3) 0.0433(2) 0.0367 Uani
O10 O 0.6203(8) 0.3993(9) 0.9244(6) 0.1497 Uani
H22 H 0.6360 0.4498 0.9460 0.2240 Uiso
H23 H 0.6307 0.4097 0.8853 0.2240 Uiso
O11 O 0.2092(9) 0.0109(8) 0.1906(6) 0.1576 Uani
H24 H 0.2264 -0.0109 0.1598 0.2370 Uiso
H25 H 0.2250 0.0652 0.2074 0.2370 Uiso
O12 O 0.4137(11) 0.1095(13) 0.2977(7) 0.1999 Uani
H26 H 0.3805 0.0484 0.3019 0.3000 Uiso
H27 H 0.3871 0.1377 0.2795 0.3000 Uiso
O13 O 0.2929(15) -0.0030(15) 0.3965(10) 0.1768 Uani
H28 H 0.3439 0.0055 0.4147 0.2650 Uiso
H29 H 0.2559 -0.0639 0.3931 0.2650 Uiso
O14 O 0.3182(16) 0.2038(18) 0.4470(12) 0.2347 Uani
H30 H 0.2751 0.2096 0.4271 0.3540 Uiso
H31 H 0.3206 0.1533 0.4373 0.3540 Uiso
O15 O 0.145(3) 0.015(3) 0.360(2) 0.1640 Uani
H32 H 0.1938 0.0132 0.3733 0.2470 Uiso
H33 H 0.1673 0.0645 0.3361 0.2470 Uiso
loop_
_atom_site_aniso_label
_atom_site_aniso_U_11
_atom_site_aniso_U_22
_atom_site_aniso_U_33
_atom_site_aniso_U_23
_atom_site_aniso_U_13
_atom_site_aniso_U_12
Co1 0.0224(4) 0.0218(4) 0.0248(4) -0.0019(3) -0.0026(3) 0.0124(4)
Co2 0.0238(4) 0.0236(4) 0.0192(4) 0.0007(3) -0.0008(3) 0.0125(4)
N1 0.032(3) 0.031(3) 0.023(2) 0.003(2) 0.003(2) 0.020(3)
N2 0.030(3) 0.045(4) 0.043(3) -0.019(3) -0.005(3) 0.021(3)
N3 0.017(3) 0.036(3) 0.037(3) 0.006(3) 0.004(2) 0.011(2)
O1 0.033(2) 0.027(2) 0.028(2) 0.0012(18) 0.0026(19) 0.016(2)
O2 0.050(3) 0.038(3) 0.039(3) 0.011(2) 0.000(3) -0.008(3)
O3 0.028(2) 0.045(3) 0.027(2) 0.002(2) 0.0004(19) 0.022(2)
O4 0.034(3) 0.082(4) 0.035(2) 0.009(3) 0.007(2) 0.037(3)
O5 0.079(4) 0.057(4) 0.046(3) 0.022(3) 0.034(3) 0.054(3)
O6 0.034(3) 0.023(2) 0.034(2) 0.0083(19) 0.007(2) 0.017(2)
O7 0.050(3) 0.030(3) 0.025(2) -0.002(2) 0.011(2) 0.019(2)
O8 0.061(3) 0.026(3) 0.030(2) -0.0005(19) 0.001(2) 0.027(2)
C1 0.027(3) 0.020(3) 0.024(3) 0.005(2) 0.001(3) 0.012(3)
C2 0.034(4) 0.031(3) 0.017(3) 0.005(2) 0.006(2) 0.022(3)
C3 0.035(3) 0.024(3) 0.019(3) -0.001(2) -0.002(2) 0.021(3)
C4 0.031(3) 0.020(3) 0.019(3) 0.001(2) 0.001(2) 0.015(3)
C5 0.025(3) 0.029(3) 0.022(3) 0.003(3) 0.002(3) 0.015(3)
C6 0.029(3) 0.029(3) 0.016(3) -0.004(2) 0.001(2) 0.019(3)
C7 0.025(3) 0.028(3) 0.019(3) 0.006(2) 0.001(2) 0.014(3)
C8 0.044(4) 0.037(4) 0.023(3) -0.001(3) -0.006(3) 0.009(3)
C9 0.027(3) 0.025(3) 0.031(3) -0.001(3) 0.003(3) 0.014(3)
C10 0.024(3) 0.063(5) 0.031(3) 0.000(3) 0.002(3) 0.030(4)
C11 0.025(3) 0.034(4) 0.028(3) -0.003(3) -0.001(3) 0.019(3)
C12 0.034(4) 0.023(3) 0.024(3) 0.005(3) -0.001(3) 0.015(3)
C13 0.027(3) 0.042(4) 0.021(3) -0.008(3) -0.005(3) 0.025(3)
C14 0.026(4) 0.055(5) 0.070(5) -0.009(4) 0.000(4) 0.020(4)
C15 0.024(4) 0.074(6) 0.077(6) -0.009(5) 0.003(4) 0.031(4)
C16 0.027(4) 0.066(6) 0.053(5) -0.008(4) -0.003(4) 0.013(4)
C17 0.041(5) 0.053(5) 0.065(5) -0.020(4) -0.010(4) 0.021(4)
C18 0.026(4) 0.059(5) 0.060(5) -0.009(4) -0.005(4) 0.020(4)
C19 0.040(5) 0.077(7) 0.067(6) -0.011(5) -0.011(4) 0.029(5)
C20 0.025(4) 0.062(6) 0.081(7) -0.005(5) -0.013(4) 0.016(4)
C21 0.032(4) 0.058(5) 0.052(4) -0.002(4) -0.005(4) 0.015(4)
C22 0.026(4) 0.043(5) 0.096(7) -0.008(5) -0.017(4) 0.004(4)
C23 0.040(4) 0.037(4) 0.067(5) 0.012(4) 0.009(4) 0.019(4)
C24 0.027(4) 0.047(5) 0.048(4) -0.011(4) -0.010(3) 0.018(3)
C25 0.033(4) 0.047(5) 0.071(5) 0.004(4) -0.008(4) 0.015(4)
O9 0.047(3) 0.038(3) 0.036(2) -0.002(2) -0.003(2) 0.023(2)
Co1A 0.0218 0.0194 0.0248 -0.0007 0.0019 0.0094
Co1C 0.0224 0.0218 0.0248 0.0019 0.0026 0.0124
Co1E 0.0194 0.0224 0.0248 -0.0026 -0.0007 0.01
Co2A 0.0236 0.0224 0.0192 -0.0015 -0.0007 0.0111
Co2C 0.0238 0.0236 0.0192 -0.0007 0.0008 0.0125
Co2D 0.0236 0.0224 0.0192 0.0015 0.0007 0.0111
N3E 0.031 0.017 0.037 0.004 -0.002 0.006
O4D 0.082 0.042 0.035 0.002 0.009 0.045
O5B 0.028 0.079 0.046 -0.034 -0.012 0.025
O6B 0.023 0.034 0.034 -0.007 0.0013 0.017
O7C 0.05 0.03 0.025 0.002 -0.011 0.019
O8C 0.061 0.026 0.03 0.0005 -0.001 0.027
O10 0.135(9) 0.144(10) 0.173(11) 0.084(9) 0.061(8) 0.072(8)
O11 0.192(13) 0.099(8) 0.158(11) 0.005(8) 0.030(10) 0.055(8)
O12 0.200(6) 0.200(6) 0.201(6) 0.0002(10) 0.0002(10) 0.101(3)
O13 0.177(8) 0.177(8) 0.177(8) -0.0001(10) 0.0002(10) 0.089(4)
O14 0.123(17) 0.21(3) 0.24(3) 0.05(2) -0.026(17) -0.015(17)
O15 0.164(9) 0.164(9) 0.164(9) 0.0001(7) 0.0000(7) 0.082(5)
loop_
_geom_bond_atom_site_label_1
_geom_bond_atom_site_label_2
_geom_bond_site_symmetry_1
_geom_bond_site_symmetry_2
Co1 N2 1_555 1_555
Co2 N1 1_555 1_555
N1 C7 1_555 1_555
N2 C14 1_555 1_555
N3 C23 1_555 1_555
O1 Co1 1_555 1_555
O2 C9 1_555 1_555
O3 Co2 1_555 1_555
O4 C11 1_555 1_555
O5 C12 1_555 1_555
O6 C12 1_555 1_555
O7 C13 1_555 1_555
O8 C13 1_555 1_555
C1 C2 1_555 1_555
C2 H1 1_555 1_555
C3 C2 1_555 1_555
C4 C3 1_555 1_555
H2 C4 1_555 1_555
C5 C4 1_555 1_555
C6 C1 1_555 1_555
H3 C6 1_555 1_555
C7 C5 1_555 1_555
H4 C7 1_555 1_555
H5 C7 1_555 1_555
C8 N1 1_555 1_555
H6 C8 1_555 1_555
H7 C8 1_555 1_555
C9 O1 1_555 1_555
C10 N1 1_555 1_555
H8 C10 1_555 1_555
H9 C10 1_555 1_555
C11 O3 1_555 1_555
C12 C1 1_555 1_555
C13 C3 1_555 1_555
C14 H10 1_555 1_555
C15 C14 1_555 1_555
H11 C15 1_555 1_555
C16 C15 1_555 1_555
C17 C16 1_555 1_555
H12 C17 1_555 1_555
C18 N2 1_555 1_555
H13 C18 1_555 1_555
C19 C16 1_555 1_555
H14 C19 1_555 1_555
C20 C19 1_555 1_555
H15 C20 1_555 1_555
C21 C20 1_555 1_555
C22 C21 1_555 1_555
H16 C22 1_555 1_555
C23 C22 1_555 1_555
H17 C23 1_555 1_555
C24 N3 1_555 1_555
H18 C24 1_555 1_555
C25 C21 1_555 1_555
H19 C25 1_555 1_555
O9 Co1 1_555 1_555
H20 O9 1_555 1_555
H21 O9 1_555 1_555
O10 H22 1_555 1_555
H23 O10 1_555 1_555
O11 H24 1_555 1_555
H25 O11 1_555 1_555
O12 H26 1_555 1_555
H27 O12 1_555 1_555
O13 H28 1_555 1_555
H29 O13 1_555 1_555
O14 H30 1_555 1_555
H31 O14 1_555 1_555
O15 H32 1_555 1_555
H33 O15 1_555 1_555
Co1A O5 1_555 1_555
Co1C O8 1_555 1_555
Co1E O4 1_555 1_555
Co2A O6 1_555 1_555
Co2C O7 1_555 1_555
Co2D N3 1_555 1_555
N3E Co2 1_555 1_555
O4D Co1 1_555 1_555
O5B Co1 1_555 1_555
O6B Co2 1_555 1_555
O7C Co2 1_555 1_555
O8C Co1 1_555 1_555
Co2 O1 1_555 1_555
C5 C6 1_555 1_555
C8 C9 1_555 1_555
C10 C11 1_555 1_555
C17 C18 1_555 1_555
C24 C25 1_555 1_555

#END
