
#######################################################################
#
#                 Cambridge Crystallographic Data Centre
#                                CCDC 
#
#######################################################################
#
# If this CIF has been generated from an entry in the Cambridge 
# Structural Database, then it will include bibliographic, chemical, 
# crystal, experimental, refinement or atomic coordinate data resulting 
# from the CCDC's data processing and validation procedures.
#
#######################################################################

data_LASREF
_chemical_formula_moiety         '(C114 H96 Br2 Cu6 O41 P4 Zn2)n'
_symmetry_cell_setting           monoclinic
_symmetry_space_group_name_H-M   'P 21'
_symmetry_Int_Tables_number      4
_space_group_name_Hall           'P 2yb'
loop_
_symmetry_equiv_pos_site_id
_symmetry_equiv_pos_as_xyz
1 x,y,z
2 -x,1/2+y,-z
_cell_length_a                   17.5123(5)
_cell_length_b                   18.1004(6)
_cell_length_c                   18.1084(5)
_cell_angle_alpha                90
_cell_angle_beta                 92.118(2)
_cell_angle_gamma                90
_cell_volume                     5736.07
loop_
_atom_site_label
_atom_site_type_symbol
_atom_site_fract_x
_atom_site_fract_y
_atom_site_fract_z
C1 C 0.0368(11) 0.0038(11) 0.0529(14)
C2 C -0.0366(13) -0.0143(12) 0.0733(13)
H1 H -0.0480 -0.0163 0.1230
C3 C -0.0929(10) -0.0296(11) 0.0194(15)
H2 H -0.1421 -0.0417 0.0330
C4 C -0.0759(11) -0.0266(11) -0.0549(14)
H3 H -0.1136 -0.0368 -0.0910
C5 C -0.0025(12) -0.0085(12) -0.0753(13)
H4 H 0.0089 -0.0065 -0.1250
C6 C 0.0539(10) 0.0068(11) -0.0214(15)
H5 H 0.1030 0.0189 -0.0350
C7 C 0.0633(8) 0.0635(8) 0.1978(6)
C8 C 0.0256(8) 0.1304(8) 0.1866(6)
H6 H 0.0201 0.1501 0.1393
C9 C -0.0038(7) 0.1679(7) 0.2462(8)
H7 H -0.0291 0.2126 0.2388
C10 C 0.0044(8) 0.1385(8) 0.3170(6)
H8 H -0.0153 0.1635 0.3569
C11 C 0.0421(8) 0.0716(8) 0.3281(6)
H9 H 0.0476 0.0519 0.3755
C12 C 0.0716(8) 0.0341(7) 0.2686(8)
H10 H 0.0968 -0.0106 0.2760
C13 C 0.1511(9) -0.0645(7) 0.1507(9)
C14 C 0.2197(9) -0.0616(7) 0.1918(9)
H11 H 0.2451 -0.0168 0.1982
C15 C 0.2503(8) -0.1256(9) 0.2233(9)
H12 H 0.2962 -0.1236 0.2507
C16 C 0.2124(9) -0.1926(7) 0.2137(9)
H13 H 0.2329 -0.2354 0.2347
C17 C 0.1438(9) -0.1955(7) 0.1726(9)
H14 H 0.1184 -0.2403 0.1662
C18 C 0.1132(8) -0.1315(9) 0.1411(9)
H15 H 0.0673 -0.1335 0.1136
C19 C 0.1804(8) 0.0778(8) 0.0870(8)
C20 C 0.1800(8) 0.1537(8) 0.0986(8)
H16 H 0.1447 0.1746 0.1296
C21 C 0.2323(9) 0.1985(7) 0.0640(9)
H17 H 0.2320 0.2493 0.0718
C22 C 0.2850(8) 0.1673(8) 0.0176(8)
H18 H 0.3200 0.1972 -0.0056
C23 C 0.2854(8) 0.0914(8) 0.0060(8)
H19 H 0.3207 0.0706 -0.0250
C24 C 0.2331(9) 0.0467(7) 0.0406(9)
H20 H 0.2334 -0.0041 0.0328
P1 P 0.1076(3) 0.0193(3) 0.1215(3)
C25 C 0.6099(8) 0.5264(7) 0.6562(6)
C26 C 0.6142(7) 0.5603(6) 0.7251(6)
H21 H 0.6445 0.6021 0.7325
C27 C 0.5733(8) 0.5319(7) 0.7829(5)
H22 H 0.5762 0.5545 0.8290
C28 C 0.5281(8) 0.4695(7) 0.7719(6)
H23 H 0.5007 0.4504 0.8106
C29 C 0.5237(7) 0.4356(6) 0.7030(6)
H24 H 0.4934 0.3938 0.6956
C30 C 0.5646(8) 0.4640(7) 0.6451(5)
H25 H 0.5617 0.4413 0.5990
C31 C 0.7374(6) 0.4987(6) 0.5593(7)
C32 C 0.7987(7) 0.5244(5) 0.5199(7)
H26 H 0.7990 0.5729 0.5029
C33 C 0.8595(6) 0.4777(7) 0.5060(7)
H27 H 0.9005 0.4949 0.4797
C34 C 0.8590(6) 0.4052(6) 0.5314(7)
H28 H 0.8997 0.3739 0.5221
C35 C 0.7977(7) 0.3795(5) 0.5708(7)
H29 H 0.7974 0.3310 0.5878
C36 C 0.7370(6) 0.4262(7) 0.5847(7)
H30 H 0.6960 0.4090 0.6111
C37 C 0.5944(6) 0.5764(8) 0.5055(5)
C38 C 0.6194(5) 0.5869(8) 0.4343(6)
H31 H 0.6711 0.5831 0.4250
C39 C 0.5671(6) 0.6030(8) 0.3770(5)
H32 H 0.5838 0.6100 0.3293
C40 C 0.4898(6) 0.6087(8) 0.3908(5)
H33 H 0.4548 0.6195 0.3524
C41 C 0.4647(5) 0.5982(8) 0.4620(6)
H34 H 0.4130 0.6020 0.4713
C42 C 0.5170(6) 0.5821(8) 0.5194(5)
H35 H 0.5003 0.5751 0.5670
C43 C 0.7080(6) 0.6462(5) 0.6065(7)
C44 C 0.6843(5) 0.7125(6) 0.5744(6)
H36 H 0.6438 0.7130 0.5397
C45 C 0.7212(6) 0.7780(5) 0.5940(6)
H37 H 0.7053 0.8223 0.5724
C46 C 0.7818(6) 0.7772(5) 0.6458(6)
H38 H 0.8064 0.8211 0.6589
C47 C 0.8055(5) 0.7110(6) 0.6779(6)
H39 H 0.8460 0.7105 0.7126
C48 C 0.7686(6) 0.6455(5) 0.6583(6)
H40 H 0.7845 0.6012 0.6798
P2 P 0.6623(2) 0.5614(2) 0.5812(2)
C49 C 0.8947(7) 0.2428(9) 0.0552(9)
C50 C 0.8940(7) 0.1899(8) -0.0005(10)
H41 H 0.8503 0.1614 -0.0086
C51 C 0.9557(8) 0.1781(8) -0.0444(9)
H42 H 0.9538 0.1420 -0.0810
C52 C 1.0207(7) 0.2213(9) -0.0327(9)
H43 H 1.0628 0.2139 -0.0616
C53 C 1.0233(6) 0.2722(8) 0.0187(9)
H44 H 1.0672 0.3009 0.0242
C54 C 0.9604(8) 0.2862(8) 0.0677(9)
H45 H 0.9638 0.3216 0.1049
C55 C 0.7454(8) 0.3155(9) 0.0588(8)
C56 C 0.7279(8) 0.3003(8) -0.0152(8)
H46 H 0.7537 0.2629 -0.0391
C57 C 0.6717(9) 0.3409(9) -0.0532(7)
H47 H 0.6600 0.3307 -0.1027
C58 C 0.6331(8) 0.3967(9) -0.0174(8)
H48 H 0.5956 0.4239 -0.0428
C59 C 0.6507(8) 0.4119(8) 0.0566(8)
H49 H 0.6248 0.4493 0.0806
C60 C 0.7068(9) 0.3713(10) 0.0946(7)
H50 H 0.7185 0.3815 0.1441
C61 C 0.8339(9) 0.2992(10) 0.1964(7)
C62 C 0.8710(9) 0.3671(9) 0.2002(7)
H51 H 0.8769 0.3947 0.1575
C63 C 0.8991(9) 0.3937(8) 0.2679(9)
H52 H 0.9239 0.4391 0.2704
C64 C 0.8902(9) 0.3525(9) 0.3317(7)
H53 H 0.9090 0.3703 0.3770
C65 C 0.8531(9) 0.2846(9) 0.3279(7)
H54 H 0.8471 0.2571 0.3707
C66 C 0.8250(9) 0.2580(8) 0.2603(8)
H55 H 0.8002 0.2126 0.2577
C67 C 0.7668(8) 0.1718(6) 0.1207(10)
C68 C 0.6876(8) 0.1674(6) 0.1156(10)
H56 H 0.6589 0.2086 0.1013
C69 C 0.6511(6) 0.1015(8) 0.1318(10)
H57 H 0.5981 0.0986 0.1284
C70 C 0.6939(8) 0.0399(6) 0.1532(10)
H58 H 0.6696 -0.0042 0.1641
C71 C 0.7732(8) 0.0443(6) 0.1583(10)
H59 H 0.8019 0.0031 0.1726
C72 C 0.8096(6) 0.1102(8) 0.1420(10)
H60 H 0.8627 0.1131 0.1454
P3 P 0.8114(3) 0.2584(3) 0.1070(3)
C73 C 0.5165(7) 0.3303(7) 0.4377(6)
C74 C 0.4719(7) 0.3935(7) 0.4291(6)
H61 H 0.4761 0.4228 0.3873
C75 C 0.4211(7) 0.4128(6) 0.4831(7)
H62 H 0.3913 0.4551 0.4773
C76 C 0.4149(7) 0.3690(7) 0.5456(6)
H63 H 0.3809 0.3819 0.5817
C77 C 0.4595(7) 0.3058(7) 0.5541(6)
H64 H 0.4553 0.2765 0.5960
C78 C 0.5103(7) 0.2865(6) 0.5002(7)
H65 H 0.5401 0.2442 0.5059
C79 C 0.6378(9) 0.2321(7) 0.3969(8)
C80 C 0.6425(9) 0.1636(8) 0.3597(7)
H66 H 0.6112 0.1542 0.3182
C81 C 0.6953(10) 0.1093(7) 0.3861(8)
H67 H 0.6990 0.0644 0.3616
C82 C 0.7397(9) 0.1229(8) 0.4464(8)
H68 H 0.7752 0.0876 0.4624
C83 C 0.7344(9) 0.1871(8) 0.4850(7)
H69 H 0.7642 0.1939 0.5281
C84 C 0.6828(10) 0.2451(7) 0.4597(8)
H70 H 0.6800 0.2897 0.4850
C85 C 0.6260(10) 0.3829(8) 0.3286(9)
C86 C 0.5945(9) 0.4193(9) 0.2676(9)
H71 H 0.5508 0.3995 0.2446
C87 C 0.6219(10) 0.4783(9) 0.2411(8)
H72 H 0.5951 0.5054 0.2050
C88 C 0.6935(10) 0.5007(8) 0.2683(9)
H73 H 0.7173 0.5398 0.2450
C89 C 0.7340(9) 0.4653(10) 0.3330(9)
H74 H 0.7800 0.4829 0.3533
C90 C 0.6950(11) 0.4005(9) 0.3616(8)
H75 H 0.7162 0.3726 0.4003
C91 C 0.5109(8) 0.2700(10) 0.2900(7)
C92 C 0.5429(7) 0.2447(10) 0.2233(9)
H76 H 0.5956 0.2431 0.2185
C93 C 0.4960(9) 0.2233(10) 0.1680(7)
H77 H 0.5162 0.2053 0.1248
C94 C 0.4198(8) 0.2272(10) 0.1736(7)
H78 H 0.3892 0.2077 0.1353
C95 C 0.3851(7) 0.2577(11) 0.2315(9)
H79 H 0.3330 0.2679 0.2297
C96 C 0.4325(9) 0.2739(10) 0.2959(7)
H80 H 0.4110 0.2865 0.3404
P4 P 0.5739(3) 0.3021(3) 0.3638(3)
C97 C 0.6767(9) 0.8798(9) 0.9931(8)
C98 C 0.4834(9) 1.1808(8) 0.9339(7)
C99 C 0.7486(10) 1.0867(10) 0.7033(8)
C100 C 0.8200(8) 0.9370(9) 1.4990(8)
C101 C 1.0307(10) 0.6452(10) 1.4344(9)
C102 C 0.7453(9) 0.7346(9) 1.2042(8)
C103 C 0.5962(9) 0.9055(9) 0.9721(9)
C104 C 0.4913(8) 1.1528(8) 0.8528(8)
C105 C 0.7195(8) 1.0069(10) 0.7251(8)
C106 C 0.9002(8) 0.9106(9) 1.4798(8)
C107 C 1.0139(9) 0.6715(9) 1.3523(9)
C108 C 0.7720(8) 0.8128(8) 1.2272(7)
C109 C 0.5559(9) 0.9348(9) 1.0394(9)
C110 C 0.5179(9) 1.2191(9) 0.8053(7)
C111 C 0.7877(9) 0.9601(9) 0.7526(9)
C112 C 0.9464(8) 0.8829(11) 1.5517(9)
C113 C 0.9861(10) 0.6107(11) 1.3034(9)
C114 C 0.7034(8) 0.8614(8) 1.2520(8)
O1 O 0.7283(6) 0.8947(7) 0.9503(6)
O2 O 0.5152(7) 1.1418(7) 0.9846(6)
O3 O 0.7082(6) 1.1409(6) 0.7242(6)
O4 O 0.7669(6) 0.9158(7) 1.4560(6)
O5 O 1.0018(8) 0.6822(7) 1.4855(6)
O6 O 0.7844(7) 0.6807(6) 1.2289(7)
O7 O 0.6884(5) 0.8404(6) 1.0513(5)
O8 O 0.4428(6) 1.2363(5) 0.9459(5)
O9 O 0.8054(6) 1.0945(6) 0.6645(6)
O10 O 0.8076(5) 0.9734(6) 1.5562(5)
O11 O 1.0716(6) 0.5880(6) 1.4451(6)
O12 O 0.6871(6) 0.7283(6) 1.1624(5)
O13 O 0.5985(6) 0.9597(6) 0.9164(5)
O14 O 0.5447(6) 1.0961(6) 0.8510(5)
O15 O 0.6651(6) 1.0134(6) 0.7769(5)
O16 O 0.8989(5) 0.8598(6) 1.4254(5)
O17 O 0.9597(6) 0.7289(6) 1.3543(6)
O18 O 0.8293(5) 0.8098(6) 1.2807(5)
O19 O 0.5547(6) 0.8450(6) 0.9416(6)
H81 H 0.5538 0.8115 0.9721
O20 O 0.4219(6) 1.1242(6) 0.8283(6)
H82 H 0.3892 1.1565 0.8292
O21 O 0.6886(6) 0.9748(6) 0.6607(6)
H83 H 0.7212 0.9734 0.6294
O22 O 0.9392(6) 0.9760(6) 1.4533(6)
H84 H 0.9411 1.0074 1.4859
O23 O 1.0823(7) 0.7038(7) 1.3284(6)
H85 H 1.1158 0.6722 1.3274
O24 O 0.8038(6) 0.8459(6) 1.1644(6)
H86 H 0.7709 0.8488 1.1310
O25 O 0.5406(6) 0.8922(6) 1.0904(6)
O26 O 0.4757(6) 1.2734(6) 0.7966(6)
O27 O 0.7820(7) 0.9297(7) 0.8163(6)
O28 O 0.9576(6) 0.9277(7) 1.6025(6)
O29 O 1.0305(6) 0.5549(7) 1.2938(6)
O30 O 0.6490(6) 0.8744(6) 1.2094(5)
O31 O 0.5357(6) 1.0034(7) 1.0397(6)
O32 O 0.5808(6) 1.2099(7) 0.7739(6)
O33 O 0.8445(6) 0.9488(7) 0.7152(6)
O34 O 0.9649(7) 0.8171(7) 1.5489(6)
O35 O 0.9219(7) 0.6162(7) 1.2735(7)
O36 O 0.7099(6) 0.8845(7) 1.3199(6)
Cu1 Cu 0.69372(13) 0.95805(14) 0.86792(12)
Cu2 Cu 0.56111(13) 1.05332(13) 0.94901(12)
Cu3 Cu 0.63049(12) 1.11478(13) 0.79196(12)
Cu4 Cu 0.80276(13) 0.86189(17) 1.37050(13)
Cu5 Cu 0.94458(16) 0.76664(15) 1.45514(13)
Cu6 Cu 0.86839(13) 0.70681(13) 1.29550(14)
Zn1 Zn 0.60639(10) 0.80806(11) 1.12973(10)
Zn2 Zn 0.88863(11) 1.01352(11) 0.63458(11)
Br1 Br 0.71710(11) 1.10156(12) 0.92584(11)
Br2 Br 0.79656(13) 0.70412(13) 1.42520(12)
O37 O 0.8568(15) 0.9840(13) 1.3172(13)
H87 H 0.9039 0.9604 1.2896
H88 H 0.8817 1.0165 1.3655
O8A O 0.5572(6) 0.7363(5) 1.0541(5)
O10_2 O 0.8076(5) 0.9734(6) 0.5562(5)
O11A O 0.9284(6) 1.0880(6) 0.5549(6)
O26A O 0.5243(6) 0.7734(6) 1.2034(6)
O28_2 O 0.9576(6) 0.9277(7) 0.6025(6)
O29A O 0.9695(6) 1.0549(7) 0.7062(6)
Zn1A Zn 0.39361(10) 1.30806(11) 0.87027(10)
Zn2_2 Zn 0.88863(11) 1.01352(11) 1.63458(11)
Zn2A Zn 1.11137(11) 0.51352(11) 1.36542(11)
O38 O 0.0873(19) 0.3218(14) 0.1990(19)
H89 H 0.1134 0.3608 0.1925
H90 H 0.0614 0.3335 0.2399
O39 O 0.0276(14) 0.8695(15) 0.3196(14)
O40 O 0.0681(16) 0.4244(18) 0.7942(18)
O41 O 0.6464(9) 0.2710(9) 0.6413(8)
loop_
_geom_bond_atom_site_label_1
_geom_bond_atom_site_label_2
_geom_bond_site_symmetry_1
_geom_bond_site_symmetry_2
C1 C2 1_555 1_555
C2 H1 1_555 1_555
C3 C2 1_555 1_555
H2 C3 1_555 1_555
C4 C3 1_555 1_555
H3 C4 1_555 1_555
C5 C4 1_555 1_555
H4 C5 1_555 1_555
C6 C1 1_555 1_555
H5 C6 1_555 1_555
C7 C8 1_555 1_555
C8 H6 1_555 1_555
C9 C8 1_555 1_555
H7 C9 1_555 1_555
C10 C9 1_555 1_555
H8 C10 1_555 1_555
C11 C10 1_555 1_555
H9 C11 1_555 1_555
C12 C7 1_555 1_555
H10 C12 1_555 1_555
C13 C14 1_555 1_555
C14 H11 1_555 1_555
C15 C14 1_555 1_555
H12 C15 1_555 1_555
C16 C15 1_555 1_555
H13 C16 1_555 1_555
C17 C16 1_555 1_555
H14 C17 1_555 1_555
C18 C13 1_555 1_555
H15 C18 1_555 1_555
C19 C20 1_555 1_555
C20 H16 1_555 1_555
C21 C20 1_555 1_555
H17 C21 1_555 1_555
C22 C21 1_555 1_555
H18 C22 1_555 1_555
C23 C22 1_555 1_555
H19 C23 1_555 1_555
C24 C19 1_555 1_555
H20 C24 1_555 1_555
P1 C1 1_555 1_555
C25 C26 1_555 1_555
C26 H21 1_555 1_555
C27 C26 1_555 1_555
H22 C27 1_555 1_555
C28 C27 1_555 1_555
H23 C28 1_555 1_555
C29 C28 1_555 1_555
H24 C29 1_555 1_555
C30 C25 1_555 1_555
H25 C30 1_555 1_555
C31 C32 1_555 1_555
C32 H26 1_555 1_555
C33 C32 1_555 1_555
H27 C33 1_555 1_555
C34 C33 1_555 1_555
H28 C34 1_555 1_555
C35 C34 1_555 1_555
H29 C35 1_555 1_555
C36 C31 1_555 1_555
H30 C36 1_555 1_555
C37 C38 1_555 1_555
C38 H31 1_555 1_555
C39 C38 1_555 1_555
H32 C39 1_555 1_555
C40 C39 1_555 1_555
H33 C40 1_555 1_555
C41 C40 1_555 1_555
H34 C41 1_555 1_555
C42 C37 1_555 1_555
H35 C42 1_555 1_555
C43 C44 1_555 1_555
C44 H36 1_555 1_555
C45 C44 1_555 1_555
H37 C45 1_555 1_555
C46 C45 1_555 1_555
H38 C46 1_555 1_555
C47 C46 1_555 1_555
H39 C47 1_555 1_555
C48 C43 1_555 1_555
H40 C48 1_555 1_555
P2 C25 1_555 1_555
C49 C50 1_555 1_555
C50 H41 1_555 1_555
C51 C50 1_555 1_555
H42 C51 1_555 1_555
C52 C51 1_555 1_555
H43 C52 1_555 1_555
C53 C52 1_555 1_555
H44 C53 1_555 1_555
C54 C49 1_555 1_555
H45 C54 1_555 1_555
C55 C56 1_555 1_555
C56 H46 1_555 1_555
C57 C56 1_555 1_555
H47 C57 1_555 1_555
C58 C57 1_555 1_555
H48 C58 1_555 1_555
C59 C58 1_555 1_555
H49 C59 1_555 1_555
C60 C55 1_555 1_555
H50 C60 1_555 1_555
C61 C62 1_555 1_555
C62 H51 1_555 1_555
C63 C62 1_555 1_555
H52 C63 1_555 1_555
C64 C63 1_555 1_555
H53 C64 1_555 1_555
C65 C64 1_555 1_555
H54 C65 1_555 1_555
C66 C61 1_555 1_555
H55 C66 1_555 1_555
C67 C68 1_555 1_555
C68 H56 1_555 1_555
C69 C68 1_555 1_555
H57 C69 1_555 1_555
C70 C69 1_555 1_555
H58 C70 1_555 1_555
C71 C70 1_555 1_555
H59 C71 1_555 1_555
C72 C67 1_555 1_555
H60 C72 1_555 1_555
P3 C49 1_555 1_555
C73 C74 1_555 1_555
C74 H61 1_555 1_555
C75 C74 1_555 1_555
H62 C75 1_555 1_555
C76 C75 1_555 1_555
H63 C76 1_555 1_555
C77 C76 1_555 1_555
H64 C77 1_555 1_555
C78 C73 1_555 1_555
H65 C78 1_555 1_555
C79 C80 1_555 1_555
C80 H66 1_555 1_555
C81 C80 1_555 1_555
H67 C81 1_555 1_555
C82 C81 1_555 1_555
H68 C82 1_555 1_555
C83 C82 1_555 1_555
H69 C83 1_555 1_555
C84 C79 1_555 1_555
H70 C84 1_555 1_555
C85 C86 1_555 1_555
C86 H71 1_555 1_555
C87 C86 1_555 1_555
H72 C87 1_555 1_555
C88 C87 1_555 1_555
H73 C88 1_555 1_555
C89 C88 1_555 1_555
H74 C89 1_555 1_555
C90 C85 1_555 1_555
H75 C90 1_555 1_555
C91 C92 1_555 1_555
C92 H76 1_555 1_555
C93 C92 1_555 1_555
H77 C93 1_555 1_555
C94 C93 1_555 1_555
H78 C94 1_555 1_555
C95 C94 1_555 1_555
H79 C95 1_555 1_555
C96 C91 1_555 1_555
H80 C96 1_555 1_555
P4 C73 1_555 1_555
C97 C103 1_555 1_555
C98 C104 1_555 1_555
C99 C105 1_555 1_555
C100 C106 1_555 1_555
C101 C107 1_555 1_555
C102 C108 1_555 1_555
C103 C109 1_555 1_555
C104 C110 1_555 1_555
C105 C111 1_555 1_555
C106 C112 1_555 1_555
C107 C113 1_555 1_555
C108 C114 1_555 1_555
C109 O25 1_555 1_555
C110 O26 1_555 1_555
C111 O27 1_555 1_555
C112 O28 1_555 1_555
C113 O29 1_555 1_555
C114 O30 1_555 1_555
O1 C97 1_555 1_555
O2 C98 1_555 1_555
O3 C99 1_555 1_555
O4 C100 1_555 1_555
O5 C101 1_555 1_555
O6 C102 1_555 1_555
O7 C97 1_555 1_555
O8 C98 1_555 1_555
O9 C99 1_555 1_555
O10 C100 1_555 1_555
O11 C101 1_555 1_555
O12 C102 1_555 1_555
O13 C103 1_555 1_555
O14 C104 1_555 1_555
O15 C105 1_555 1_555
O16 C106 1_555 1_555
O17 C107 1_555 1_555
O18 C108 1_555 1_555
O19 C103 1_555 1_555
H81 O19 1_555 1_555
O20 C104 1_555 1_555
H82 O20 1_555 1_555
O21 C105 1_555 1_555
H83 O21 1_555 1_555
O22 C106 1_555 1_555
H84 O22 1_555 1_555
O23 C107 1_555 1_555
H85 O23 1_555 1_555
O24 C108 1_555 1_555
H86 O24 1_555 1_555
O25 Zn1 1_555 1_555
O26 Zn1A 1_555 1_555
O27 Cu1 1_555 1_555
O28 Zn2_2 1_555 1_555
O29 Zn2A 1_555 1_555
O30 Zn1 1_555 1_555
O31 C109 1_555 1_555
O32 C110 1_555 1_555
O33 C111 1_555 1_555
O34 C112 1_555 1_555
O35 C113 1_555 1_555
O36 C114 1_555 1_555
Cu1 O1 1_555 1_555
Cu2 O2 1_555 1_555
Cu3 O3 1_555 1_555
Cu4 O4 1_555 1_555
Cu5 O5 1_555 1_555
Cu6 O6 1_555 1_555
Zn1 O7 1_555 1_555
Zn2 O9 1_555 1_555
Br1 Cu1 1_555 1_555
Br2 Cu4 1_555 1_555
O37 Cu4 1_555 1_555
H87 O37 1_555 1_555
H88 O37 1_555 1_555
O38 H89 1_555 1_555
H90 O38 1_555 1_555
O8A Zn1 1_555 1_555
O10_2 Zn2 1_555 1_555
O11A Zn2 1_555 1_555
O26A Zn1 1_555 1_555
O28_2 Zn2 1_555 1_555
O29A Zn2 1_555 1_555
Zn1A O8 1_555 1_555
Zn2_2 O10 1_555 1_555
Zn2A O11 1_555 1_555
C5 C6 1_555 1_555
C7 P1 1_555 1_555
C11 C12 1_555 1_555
C13 P1 1_555 1_555
C17 C18 1_555 1_555
C19 P1 1_555 1_555
C23 C24 1_555 1_555
C29 C30 1_555 1_555
C31 P2 1_555 1_555
C35 C36 1_555 1_555
C37 P2 1_555 1_555
C41 C42 1_555 1_555
C43 P2 1_555 1_555
C47 C48 1_555 1_555
C53 C54 1_555 1_555
C55 P3 1_555 1_555
C59 C60 1_555 1_555
C61 P3 1_555 1_555
C65 C66 1_555 1_555
C67 P3 1_555 1_555
C71 C72 1_555 1_555
C77 C78 1_555 1_555
C79 P4 1_555 1_555
C83 C84 1_555 1_555
C85 P4 1_555 1_555
C89 C90 1_555 1_555
C91 P4 1_555 1_555
C95 C96 1_555 1_555
O12 Zn1 1_555 1_555
O13 Cu1 1_555 1_555
O13 Cu2 1_555 1_555
O14 Cu2 1_555 1_555
O14 Cu3 1_555 1_555
O15 Cu1 1_555 1_555
O15 Cu3 1_555 1_555
O16 Cu4 1_555 1_555
O16 Cu5 1_555 1_555
O17 Cu5 1_555 1_555
O17 Cu6 1_555 1_555
O18 Cu4 1_555 1_555
O18 Cu6 1_555 1_555
O31 Cu2 1_555 1_555
O32 Cu3 1_555 1_555
O33 Zn2 1_555 1_555
O34 Cu5 1_555 1_555
O35 Cu6 1_555 1_555
O36 Cu4 1_555 1_555
Cu2 Br1 1_555 1_555
Cu3 Br1 1_555 1_555
Cu5 Br2 1_555 1_555
Cu6 Br2 1_555 1_555

#END
