
#######################################################################
#
#                 Cambridge Crystallographic Data Centre
#                                CCDC 
#
#######################################################################
#
# If this CIF has been generated from an entry in the Cambridge 
# Structural Database, then it will include bibliographic, chemical, 
# crystal, experimental, refinement or atomic coordinate data resulting 
# from the CCDC's data processing and validation procedures.
#
#######################################################################

data_LASRIJ
_chemical_formula_moiety         '(C9 H3 Br1 Co1 Cu3 O18 2-)n'
_symmetry_cell_setting           cubic
_symmetry_space_group_name_H-M   'P 21 3'
_symmetry_Int_Tables_number      198
_space_group_name_Hall           'P 2ac 2ab 3'
loop_
_symmetry_equiv_pos_site_id
_symmetry_equiv_pos_as_xyz
1 x,y,z
2 1/2-x,-y,1/2+z
3 1/2+x,1/2-y,-z
4 -x,1/2+y,1/2-z
5 z,x,y
6 1/2-z,-x,1/2+y
7 1/2+z,1/2-x,-y
8 -z,1/2+x,1/2-y
9 y,z,x
10 1/2+y,1/2-z,-x
11 -y,1/2+z,1/2-x
12 1/2-y,-z,1/2+x
_cell_length_a                   17.9181(7)
_cell_length_b                   17.9181(7)
_cell_length_c                   17.9181(7)
_cell_angle_alpha                90
_cell_angle_beta                 90
_cell_angle_gamma                90
_cell_volume                     5752.75
loop_
_atom_site_label
_atom_site_type_symbol
_atom_site_fract_x
_atom_site_fract_y
_atom_site_fract_z
_atom_site_U_iso_or_equiv
_atom_site_thermal_displace_type
Br1 Br 0.19836(14) 0.19836(14) 0.19836(14) 0.1500 Uani
Cu1 Cu 0.20336(15) 0.05267(16) 0.13614(14) 0.0840 Uani
Co1 Co 0.10651(14) -0.10651(14) 0.39349(14) 0.0593 Uani
O1 O 0.2328(7) -0.0083(7) 0.2200(8) 0.1013 Uani
O2 O 0.1866(6) -0.0669(7) 0.3179(7) 0.0900 Uani
O3 O 0.1068(6) 0.0414(7) 0.1795(7) 0.0707 Uani
O4 O 0.0699(6) -0.0728(8) 0.2011(7) 0.0880 Uani
H1 H 0.064519 -0.105860 0.232296 0.1320 Uiso
O5 O 0.0387(7) -0.0216(8) 0.3548(8) 0.0927 Uani
O6 O 0.0304(8) 0.0835(8) 0.2969(8) 0.0957 Uani
C1 C 0.1764(18) -0.0312(13) 0.2624(16) 0.0820 Uiso
C2 C 0.1042(15) -0.0089(14) 0.2354(14) 0.0793 Uani
C3 C 0.0521(14) 0.0143(9) 0.2935(17) 0.1233 Uani
Cu1D Cu 0.13614(14) 0.20336(15) 0.05267(16) 0.0840 Uani
O1D O 0.2200(8) 0.2328(7) -0.0083(7) 0.1013 Uani
O2D O 0.3179(7) 0.1866(6) -0.0669(7) 0.0900 Uani
O3D O 0.1795(7) 0.1068(6) 0.0414(7) 0.0707 Uani
O4D O 0.2011(7) 0.0699(6) -0.0728(8) 0.0880 Uani
H1D H 0.232296 0.064519 -0.105860 0.1320 Uiso
O5D O 0.3548(8) 0.0387(7) -0.0216(8) 0.0927 Uani
O6D O 0.2969(8) 0.0304(8) 0.0835(8) 0.0957 Uani
C1D C 0.2624(16) 0.1764(18) -0.0312(13) 0.0820 Uiso
C2D C 0.2354(14) 0.1042(15) -0.0089(14) 0.0793 Uani
C3D C 0.2935(17) 0.0521(14) 0.0143(9) 0.1233 Uani
Cu1H Cu 0.05267(16) 0.13614(14) 0.20336(15) 0.0840 Uani
O1H O -0.0083(7) 0.2200(8) 0.2328(7) 0.1013 Uani
O2H O -0.0669(7) 0.3179(7) 0.1866(6) 0.0900 Uani
O3H O 0.0414(7) 0.1795(7) 0.1068(6) 0.0707 Uani
O4H O -0.0728(8) 0.2011(7) 0.0699(6) 0.0880 Uani
H1H H -0.105860 0.232296 0.064519 0.1320 Uiso
O5H O -0.0216(8) 0.3548(8) 0.0387(7) 0.0927 Uani
O6H O 0.0835(8) 0.2969(8) 0.0304(8) 0.0957 Uani
C1H C -0.0312(13) 0.2624(16) 0.1764(18) 0.0820 Uiso
C2H C -0.0089(14) 0.2354(14) 0.1042(15) 0.0793 Uani
C3H C 0.0143(9) 0.2935(17) 0.0521(14) 0.1233 Uani
Co1A Co 0.39349(14) 0.10651(14) -0.10651(14) 0.0593 Uani
Co1C Co -0.10651(14) 0.39349(14) 0.10651(14) 0.0593 Uani
O2E O 0.1821(7) -0.1866(6) 0.4331(7) 0.0900 Uani
O2J O 0.0669(7) -0.1821(7) 0.3134(6) 0.0900 Uani
O5E O 0.1452(8) -0.0387(7) 0.4784(8) 0.0927 Uani
O5J O 0.0216(8) -0.1452(8) 0.4613(7) 0.0927 Uani
loop_
_atom_site_aniso_label
_atom_site_aniso_U_11
_atom_site_aniso_U_22
_atom_site_aniso_U_33
_atom_site_aniso_U_23
_atom_site_aniso_U_13
_atom_site_aniso_U_12
Br1 0.150(2) 0.150(2) 0.150(2) -0.0387(18) -0.0387(18) -0.0387(18)
Cu1 0.075(2) 0.098(2) 0.079(2) 0.0257(18) 0.0088(18) 0.0017(18)
Co1 0.0593(16) 0.0593(16) 0.0593(16) -0.0080(16) 0.0080(16) 0.0080(16)
O1 0.103(11) 0.091(10) 0.110(11) 0.015(9) 0.000(10) 0.001(9)
O2 0.084(10) 0.104(11) 0.082(10) 0.019(9) -0.003(8) 0.000(9)
O3 0.060(9) 0.083(10) 0.069(10) 0.010(8) 0.006(8) 0.005(8)
O4 0.071(10) 0.085(11) 0.108(11) 0.015(9) 0.000(9) 0.011(8)
O5 0.07 0.118 0.09 -0.02 0.027 -0.018
O6 0.093 0.112 0.082 -0.004 0.008 -0.012
C2 0.09(2) 0.085(19) 0.063(19) -0.008(16) 0.005(17) -0.030(18)
C3 0.1 0.19 0.08 -0.02 0.06 -0.04
Cu1D 0.079 0.075 0.098 0.0017 0.0257 0.0088
O1D 0.11 0.103 0.091 0.001 0.015 0
O2D 0.082 0.084 0.104 0 0.019 -0.003
O3D 0.069 0.06 0.083 0.005 0.01 0.006
O4D 0.108 0.071 0.085 0.011 0.015 0
O5D 0.09 0.07 0.118 -0.018 -0.02 0.027
O6D 0.082 0.093 0.112 -0.012 -0.004 0.008
C2D 0.063 0.09 0.085 -0.03 -0.008 0.005
C3D 0.08 0.1 0.19 -0.04 -0.02 0.06
Cu1H 0.098 0.079 0.075 0.0088 0.0017 0.0257
O1H 0.091 0.11 0.103 0 0.001 0.015
O2H 0.104 0.082 0.084 -0.003 0 0.019
O3H 0.083 0.069 0.06 0.006 0.005 0.01
O4H 0.085 0.108 0.071 0 0.011 0.015
O5H 0.118 0.09 0.07 0.027 -0.018 -0.02
O6H 0.112 0.082 0.093 0.008 -0.012 -0.004
C2H 0.085 0.063 0.09 0.005 -0.03 -0.008
C3H 0.19 0.08 0.1 0.06 -0.04 -0.02
Co1A 0.0593 0.0593 0.0593 0.008 -0.008 0.008
Co1C 0.0593 0.0593 0.0593 0.008 0.008 -0.008
O2E 0.082 0.084 0.104 0 -0.019 -0.003
O2J 0.104 0.082 0.084 0.003 0 -0.019
O5E 0.09 0.07 0.118 0.018 0.02 0.027
O5J 0.118 0.09 0.07 -0.027 -0.018 0.02
loop_
_geom_bond_atom_site_label_1
_geom_bond_atom_site_label_2
_geom_bond_site_symmetry_1
_geom_bond_site_symmetry_2
Br1 Cu1 1_555 1_555
Cu1 O1 1_555 1_555
Co1 O2 1_555 1_555
O1 C1 1_555 1_555
O2 C1 1_555 1_555
O3 Cu1 1_555 1_555
O4 H1 1_555 1_555
O5 Co1 1_555 1_555
O6 C3 1_555 1_555
C1 C2 1_555 1_555
C2 O3 1_555 1_555
C3 O5 1_555 1_555
Cu1D Br1 1_555 1_555
O1D Cu1D 1_555 1_555
O2D C1D 1_555 1_555
O3D Cu1 1_555 1_555
O4D H1D 1_555 1_555
O5D C3D 1_555 1_555
O6D Cu1 1_555 1_555
C1D O1D 1_555 1_555
C2D O3D 1_555 1_555
C3D O6D 1_555 1_555
Cu1H Br1 1_555 1_555
O1H Cu1H 1_555 1_555
O2H C1H 1_555 1_555
O3H Cu1D 1_555 1_555
O4H H1H 1_555 1_555
O5H C3H 1_555 1_555
O6H Cu1D 1_555 1_555
C1H O1H 1_555 1_555
C2H O3H 1_555 1_555
C3H O6H 1_555 1_555
Co1A O2D 1_555 1_555
Co1C O2H 1_555 1_555
O2E Co1 1_555 1_555
O2J Co1 1_555 1_555
O5E Co1 1_555 1_555
O5J Co1 1_555 1_555
O3 Cu1H 1_555 1_555
O4 C2 1_555 1_555
O6 Cu1H 1_555 1_555
C2 C3 1_555 1_555
Cu1D O3D 1_555 1_555
O4D C2D 1_555 1_555
O5D Co1A 1_555 1_555
C1D C2D 1_555 1_555
C2D C3D 1_555 1_555
Cu1H O3H 1_555 1_555
O4H C2H 1_555 1_555
O5H Co1C 1_555 1_555
C1H C2H 1_555 1_555
C2H C3H 1_555 1_555

#END
