
#######################################################################
#
#                 Cambridge Crystallographic Data Centre
#                                CCDC 
#
#######################################################################
#
# If this CIF has been generated from an entry in the Cambridge 
# Structural Database, then it will include bibliographic, chemical, 
# crystal, experimental, refinement or atomic coordinate data resulting 
# from the CCDC's data processing and validation procedures.
#
#######################################################################

data_POLDUQ
_chemical_formula_moiety         '(C8 H12 B1 Cu1 F4 N6 Na1 O6)n'
_symmetry_cell_setting           tetragonal
_symmetry_space_group_name_H-M   'I 41/a'
_symmetry_Int_Tables_number      88
_space_group_name_Hall           '-I 4ad'
loop_
_symmetry_equiv_pos_site_id
_symmetry_equiv_pos_as_xyz
1 x,y,z
2 3/4-y,1/4+x,1/4+z
3 1/2+x,1/2+y,1/2+z
4 1/4-y,3/4+x,3/4+z
5 1/4+y,1/4-x,1/4+z
6 1/2-x,-y,1/2+z
7 3/4+y,3/4-x,3/4+z
8 -x,1/2-y,z
9 -x,-y,-z
10 1/4+y,3/4-x,3/4-z
11 1/2-x,1/2-y,1/2-z
12 3/4+y,1/4-x,1/4-z
13 3/4-y,3/4+x,3/4-z
14 1/2+x,y,1/2-z
15 1/4-y,1/4+x,1/4-z
16 x,1/2+y,-z
_cell_length_a                   24.169(13)
_cell_length_b                   24.169(13)
_cell_length_c                   4.980(3)
_cell_angle_alpha                90
_cell_angle_beta                 90
_cell_angle_gamma                90
_cell_volume                     2909.02
loop_
_atom_site_label
_atom_site_type_symbol
_atom_site_fract_x
_atom_site_fract_y
_atom_site_fract_z
_atom_site_U_iso_or_equiv
_atom_site_thermal_displace_type
Cu1 Cu 0.5000 1.0000 1.0000 0.0310 Uani
O1 O 0.52246(14) 0.93203(14) 0.8187(7) 0.0387 Uani
N1 N 0.63824(17) 0.83781(17) 0.7984(8) 0.0357 Uani
C1 C 0.5840(2) 0.8596(2) 0.7274(9) 0.0370 Uani
H1 H 0.5566 0.8307 0.7509 0.0450 Uiso
H2 H 0.5841 0.8701 0.5394 0.0450 Uiso
C2 C 0.5677(2) 0.9097(2) 0.8966(10) 0.0363 Uani
N2 N 0.68391(18) 0.8537(2) 0.6629(9) 0.0450 Uani
C3 C 0.7241(2) 0.8279(2) 0.7902(10) 0.0423 Uani
H3 H 0.7611 0.8313 0.7426 0.0510 Uiso
C4 C 0.6518(2) 0.8040(2) 0.9952(9) 0.0350 Uani
H4 H 0.6268 0.7882 1.1150 0.0420 Uiso
O2 O 0.59541(19) 0.92547(17) 1.0878(8) 0.0587 Uani
N3 N 0.45428(17) 0.95647(17) 1.2518(7) 0.0343 Uani
Cu1A Cu 0.7500 0.7500 1.2500 0.0310 Uani
Cu1D Cu 0.2500 0.7500 1.2500 0.0310 Uani
O1N O 0.31797(14) 0.77246(14) 1.4313(7) 0.0387 Uani
O1H O 0.47754(14) 1.06797(14) 1.1813(7) 0.0387 Uani
N1N N 0.41219(17) 0.88824(17) 1.4516(8) 0.0357 Uani
C1N C 0.3904(2) 0.8340(2) 1.5226(9) 0.0370 Uani
H1N H 0.4193 0.8066 1.4991 0.0450 Uiso
H2N H 0.3799 0.8341 1.7106 0.0450 Uiso
C2N C 0.3403(2) 0.8177(2) 1.3534(10) 0.0363 Uani
N2N N 0.3963(2) 0.93391(18) 1.5871(9) 0.0450 Uani
C3N C 0.4221(2) 0.9741(2) 1.4598(10) 0.0423 Uani
H3N H 0.4187 1.0111 1.5074 0.0510 Uiso
C4N C 0.4460(2) 0.9018(2) 1.2548(9) 0.0350 Uani
H4N H 0.4618 0.8768 1.1350 0.0420 Uiso
O2N O 0.32453(17) 0.84541(19) 1.1622(8) 0.0587 Uani
N3K N 0.70647(17) 0.79572(17) 0.9982(7) 0.0343 Uani
N3H N 0.54572(17) 1.04353(17) 0.7482(7) 0.0343 Uani
F1 F 0.52911(19) 0.7864(2) 0.2816(8) 0.0827 Uani
B1 B 0.5000 0.7500 0.1250 0.0427 Uani
F1K F 0.5364(2) 0.72089(19) -0.0316(8) 0.0827 Uani
F1N F 0.4636(2) 0.77911(19) -0.0316(8) 0.0827 Uani
F1G F 0.47089(19) 0.7136(2) 0.2816(8) 0.0827 Uani
Na1 Na 0.7447(3) 0.9950(3) 0.8150(13) 0.0203 Uani
O3 O 0.6909(6) 1.0418(8) 0.937(6) 0.2977 Uani
O4 O 0.7788(14) 0.9490(10) 0.778(11) 0.6333 Uani
loop_
_atom_site_aniso_label
_atom_site_aniso_U_11
_atom_site_aniso_U_22
_atom_site_aniso_U_33
_atom_site_aniso_U_23
_atom_site_aniso_U_13
_atom_site_aniso_U_12
Cu1 0.0298(5) 0.0260(5) 0.0372(5) 0.0029(3) 0.0018(3) 0.0027(3)
O1 0.035(2) 0.0300(18) 0.051(2) 0.0037(16) 0.0051(16) 0.0072(15)
N1 0.036(2) 0.030(2) 0.041(2) 0.0001(17) -0.0003(18) 0.0079(17)
C1 0.039(3) 0.036(3) 0.036(3) -0.005(2) -0.007(2) 0.011(2)
C2 0.040(3) 0.032(3) 0.037(3) 0.005(2) 0.003(2) 0.000(2)
N2 0.041(3) 0.051(3) 0.043(2) 0.013(2) 0.005(2) 0.006(2)
C3 0.034(3) 0.048(3) 0.045(3) 0.010(2) 0.000(2) 0.002(2)
C4 0.030(2) 0.036(3) 0.039(3) 0.003(2) 0.002(2) 0.003(2)
O2 0.071(3) 0.055(3) 0.050(2) -0.019(2) -0.016(2) 0.017(2)
N3 0.036 0.031 0.036 -0.0001 0.0015 -0.001
Cu1A 0.026 0.0298 0.0372 0.0018 -0.0029 -0.0027
Cu1D 0.026 0.0298 0.0372 -0.0018 0.0029 -0.0027
O1N 0.03 0.035 0.051 -0.0051 0.0037 -0.0072
O1H 0.035 0.03 0.051 0.0037 0.0051 0.0072
N1N 0.03 0.036 0.041 0.0003 0.0001 -0.0079
C1N 0.036 0.039 0.036 0.007 -0.005 -0.011
C2N 0.032 0.04 0.037 -0.003 0.005 0
N2N 0.051 0.041 0.043 -0.005 0.013 -0.006
C3N 0.048 0.034 0.045 0 0.01 -0.002
C4N 0.036 0.03 0.039 -0.002 0.003 -0.003
O2N 0.055 0.071 0.05 0.016 -0.019 -0.017
N3K 0.031(2) 0.036(2) 0.036(2) 0.0015(18) 0.0001(17) 0.0010(17)
N3H 0.036 0.031 0.036 -0.0001 0.0015 -0.001
F1 0.070(3) 0.087(3) 0.091(3) -0.029(2) -0.011(2) -0.017(2)
B1 0.045(4) 0.045(4) 0.038(6) 0.000 0.000 0.000
F1K 0.087 0.07 0.091 -0.011 0.029 0.017
F1N 0.087 0.07 0.091 0.011 -0.029 0.017
F1G 0.07 0.087 0.091 0.029 0.011 -0.017
Na1 0.015(3) 0.013(3) 0.033(3) 0.004(3) -0.009(3) 0.005(2)
O3 0.177(12) 0.156(12) 0.56(4) 0.144(18) 0.05(2) 0.030(11)
O4 0.41(5) 0.41(3) 1.08(12) 0.37(5) -0.52(7) -0.26(3)
loop_
_geom_bond_atom_site_label_1
_geom_bond_atom_site_label_2
_geom_bond_site_symmetry_1
_geom_bond_site_symmetry_2
Cu1 O1 1_555 1_555
O1 C2 1_555 1_555
N1 C1 1_555 1_555
C1 H1 1_555 1_555
H2 C1 1_555 1_555
C2 C1 1_555 1_555
N2 N1 1_555 1_555
C3 N2 1_555 1_555
H3 C3 1_555 1_555
C4 N1 1_555 1_555
H4 C4 1_555 1_555
O2 C2 1_555 1_555
N3 Cu1 1_555 1_555
F1 B1 1_555 1_555
B1 F1K 1_555 1_555
Cu1A N3K 1_555 1_555
Cu1D O1N 1_555 1_555
O1N C2N 1_555 1_555
O1H Cu1 1_555 1_555
N1N C1N 1_555 1_555
C1N H1N 1_555 1_555
H2N C1N 1_555 1_555
C2N C1N 1_555 1_555
N2N N1N 1_555 1_555
C3N N3 1_555 1_555
H3N C3N 1_555 1_555
C4N N3 1_555 1_555
H4N C4N 1_555 1_555
O2N C2N 1_555 1_555
N3K C3 1_555 1_555
N3H Cu1 1_555 1_555
F1N B1 1_555 1_555
F1G B1 1_555 1_555
C4 N3K 1_555 1_555
N1N C4N 1_555 1_555
N2N C3N 1_555 1_555

#END
