
#######################################################################
#
#                 Cambridge Crystallographic Data Centre
#                                CCDC 
#
#######################################################################
#
# If this CIF has been generated from an entry in the Cambridge 
# Structural Database, then it will include bibliographic, chemical, 
# crystal, experimental, refinement or atomic coordinate data resulting 
# from the CCDC's data processing and validation procedures.
#
#######################################################################

data_POLDOK
_chemical_formula_moiety         '(C8 H12 Cl1 Cu1 N6 Na1 O10)n'
_symmetry_cell_setting           tetragonal
_symmetry_space_group_name_H-M   'I 41/a'
_symmetry_Int_Tables_number      88
_space_group_name_Hall           '-I 4ad'
loop_
_symmetry_equiv_pos_site_id
_symmetry_equiv_pos_as_xyz
1 x,y,z
2 3/4-y,1/4+x,1/4+z
3 1/2+x,1/2+y,1/2+z
4 1/4-y,3/4+x,3/4+z
5 1/4+y,1/4-x,1/4+z
6 1/2-x,-y,1/2+z
7 3/4+y,3/4-x,3/4+z
8 -x,1/2-y,z
9 -x,-y,-z
10 1/4+y,3/4-x,3/4-z
11 1/2-x,1/2-y,1/2-z
12 3/4+y,1/4-x,1/4-z
13 3/4-y,3/4+x,3/4-z
14 1/2+x,y,1/2-z
15 1/4-y,1/4+x,1/4-z
16 x,1/2+y,-z
_cell_length_a                   24.1428(9)
_cell_length_b                   24.1428(9)
_cell_length_c                   4.9878(4)
_cell_angle_alpha                90
_cell_angle_beta                 90
_cell_angle_gamma                90
_cell_volume                     2907.26
loop_
_atom_site_label
_atom_site_type_symbol
_atom_site_fract_x
_atom_site_fract_y
_atom_site_fract_z
_atom_site_U_iso_or_equiv
_atom_site_thermal_displace_type
Cu1 Cu 0.5000 1.0000 0.0000 0.0246 Uani
O1 O 0.47710(9) 1.06810(10) 0.1773(5) 0.0319 Uani
N1 N 0.36087(11) 1.16142(12) 0.1984(6) 0.0285 Uani
C1 C 0.43182(13) 1.08974(14) 0.0985(7) 0.0288 Uani
N2 N 0.29323(11) 1.20381(11) 0.0006(5) 0.0280 Uani
N3 N 0.31486(14) 1.14627(12) 0.3363(6) 0.0382 Uani
C2 C 0.41454(14) 1.13907(14) 0.2704(7) 0.0302 Uani
H1 H 0.4137 1.1277 0.4569 0.0360 Uiso
H2 H 0.4422 1.1680 0.2530 0.0360 Uiso
O2 O 0.40427(12) 1.07448(13) -0.0924(6) 0.0531 Uani
C3 C 0.27544(16) 1.17266(15) 0.2103(7) 0.0358 Uani
H3 H 0.2384 1.1703 0.2599 0.0430 Uiso
C4 C 0.34744(14) 1.19530(14) 0.0010(6) 0.0300 Uani
H4 H 0.3723 1.2109 -0.1197 0.0360 Uiso
Cu1D Cu 0.2500 0.7500 0.2500 0.0246 Uani
Cu1C Cu 0.2500 1.2500 -0.2500 0.0246 Uani
O1H O 0.52290(9) 0.93190(10) -0.1773(5) 0.0319 Uani
O1D O 0.31810(10) 0.77290(9) 0.4273(5) 0.0319 Uani
N1D N 0.41142(12) 0.88913(11) 0.4484(6) 0.0285 Uani
C1D C 0.33974(14) 0.81818(13) 0.3485(7) 0.0288 Uani
N2D N 0.45381(11) 0.95677(11) 0.2506(5) 0.0280 Uani
N2L N 0.54619(11) 1.04323(11) -0.2506(5) 0.0280 Uani
N3D N 0.39627(12) 0.93514(14) 0.5863(6) 0.0382 Uani
C2D C 0.38907(14) 0.83546(14) 0.5204(7) 0.0302 Uani
H1D H 0.3777 0.8363 0.7069 0.0360 Uiso
H2D H 0.4180 0.8078 0.5030 0.0360 Uiso
O2D O 0.32448(13) 0.84573(12) 0.1576(6) 0.0531 Uani
C3D C 0.42266(15) 0.97456(16) 0.4603(7) 0.0358 Uani
H3D H 0.4203 1.0116 0.5099 0.0430 Uiso
C4D C 0.44530(14) 0.90256(14) 0.2510(6) 0.0300 Uani
H4D H 0.4609 0.8777 0.1303 0.0360 Uiso
Cl1 Cl 0.5000 0.7500 -0.8750 0.0325 Uani
O3 O 0.53907(15) 0.72178(14) -1.0390(7) 0.0623 Uani
O3N O 0.52822(14) 0.78907(15) -0.7110(7) 0.0623 Uani
O3K O 0.47178(14) 0.71093(15) -0.7110(7) 0.0623 Uani
O3G O 0.46093(15) 0.77822(14) -1.0390(7) 0.0623 Uani
Na1 Na 0.25409(17) 0.99430(17) 0.4306(10) 0.0150 Uani
O4 O 0.2063(5) 0.9399(4) 0.295(4) 0.2643 Uani
O5 O 0.2991(7) 1.0269(8) 0.458(6) 0.4800 Uani
loop_
_atom_site_aniso_label
_atom_site_aniso_U_11
_atom_site_aniso_U_22
_atom_site_aniso_U_33
_atom_site_aniso_U_23
_atom_site_aniso_U_13
_atom_site_aniso_U_12
Cu1 0.0239(3) 0.0206(3) 0.0294(3) 0.0025(2) 0.0025(2) 0.00277(19)
O1 0.0314 0.0245 0.0397 0.0022 0.0057 0.0064
N1 0.0293 0.0257 0.0306 -0.0011 0.0001 0.0071
C1 0.0334 0.0245 0.0284 -0.0006 0.0038 0.0041
N2 0.0265 0.0272 0.0303 0.0019 -0.0017 0.0022
N3 0.0323 0.0453 0.0369 0.0117 0.0028 0.0039
C2 0.0294 0.0319 0.0294 -0.0009 -0.0057 0.0095
O2 0.0602 0.0548 0.0442 -0.0214 -0.0143 0.0151
C3 0.0276 0.044 0.0359 0.0105 0.0038 0.0032
C4 0.0299 0.0285 0.0315 0.0042 0.0007 0.0028
Cu1D 0.0206 0.0239 0.0294 -0.0025 0.0025 -0.00277
Cu1C 0.0206 0.0239 0.0294 0.0025 -0.0025 -0.00277
O1H 0.0314 0.0245 0.0397 0.0022 0.0057 0.0064
O1D 0.0245(11) 0.0314(12) 0.0397(13) -0.0057(10) 0.0022(10) -0.0064(9)
N1D 0.0257(14) 0.0293(14) 0.0306(14) -0.0001(11) -0.0011(11) -0.0071(11)
C1D 0.0245(16) 0.0334(17) 0.0284(16) -0.0038(14) -0.0006(13) -0.0041(13)
N2D 0.0272(14) 0.0265(14) 0.0303(14) 0.0017(11) 0.0019(11) -0.0022(11)
N2L 0.0272 0.0265 0.0303 0.0017 0.0019 -0.0022
N3D 0.0453(18) 0.0323(15) 0.0369(16) -0.0028(13) 0.0117(14) -0.0039(13)
C2D 0.0319(17) 0.0294(16) 0.0294(17) 0.0057(13) -0.0009(13) -0.0095(13)
O2D 0.0548(18) 0.0602(19) 0.0442(16) 0.0143(14) -0.0214(14) -0.0151(14)
C3D 0.044(2) 0.0276(17) 0.0359(19) -0.0038(14) 0.0105(15) -0.0032(15)
C4D 0.0285(16) 0.0299(17) 0.0315(18) -0.0007(13) 0.0042(13) -0.0028(13)
Cl1 0.0330(5) 0.0330(5) 0.0315(8) 0.000 0.000 0.000
O3 0.065(2) 0.057(2) 0.065(2) -0.0083(16) 0.0242(17) 0.0125(16)
O3N 0.057 0.065 0.065 -0.0242 -0.0083 -0.0125
O3K 0.057 0.065 0.065 0.0242 0.0083 -0.0125
O3G 0.065 0.057 0.065 0.0083 -0.0242 0.0125
Na1 0.0058(17) 0.0061(17) 0.033(2) 0.0042(17) 0.0044(17) -0.0022(14)
O4 0.177(9) 0.166(8) 0.45(2) -0.068(12) 0.158(11) -0.054(7)
O5 0.45(3) 0.47(4) 0.52(4) 0.24(3) 0.06(3) 0.29(2)
loop_
_geom_bond_atom_site_label_1
_geom_bond_atom_site_label_2
_geom_bond_site_symmetry_1
_geom_bond_site_symmetry_2
Cu1 O1 1_555 1_555
O1 C1 1_555 1_555
N1 N3 1_555 1_555
C1 C2 1_555 1_555
N2 C3 1_555 1_555
N3 C3 1_555 1_555
C2 N1 1_555 1_555
H1 C2 1_555 1_555
H2 C2 1_555 1_555
O2 C1 1_555 1_555
C3 H3 1_555 1_555
C4 N1 1_555 1_555
H4 C4 1_555 1_555
Cl1 O3 1_555 1_555
Cu1D O1D 1_555 1_555
Cu1C N2 1_555 1_555
O1H Cu1 1_555 1_555
O1D C1D 1_555 1_555
N1D N3D 1_555 1_555
C1D C2D 1_555 1_555
N2D Cu1 1_555 1_555
N2L Cu1 1_555 1_555
N3D C3D 1_555 1_555
C2D N1D 1_555 1_555
H1D C2D 1_555 1_555
H2D C2D 1_555 1_555
O2D C1D 1_555 1_555
C3D N2D 1_555 1_555
H3D C3D 1_555 1_555
C4D N1D 1_555 1_555
H4D C4D 1_555 1_555
O3N Cl1 1_555 1_555
O3K Cl1 1_555 1_555
O3G Cl1 1_555 1_555
N2 C4 1_555 1_555
N2D C4D 1_555 1_555

#END
