
#######################################################################
#
#                 Cambridge Crystallographic Data Centre
#                                CCDC 
#
#######################################################################
#
# If this CIF has been generated from an entry in the Cambridge 
# Structural Database, then it will include bibliographic, chemical, 
# crystal, experimental, refinement or atomic coordinate data resulting 
# from the CCDC's data processing and validation procedures.
#
#######################################################################

data_FASQUN
_chemical_formula_moiety         '(C58 H44 F18 N2 O17 Zn4)n'
_symmetry_cell_setting           monoclinic
_symmetry_space_group_name_H-M   'P 2/c'
_symmetry_Int_Tables_number      13
_space_group_name_Hall           '-P 2yc'
loop_
_symmetry_equiv_pos_site_id
_symmetry_equiv_pos_as_xyz
1 x,y,z
2 -x,y,1/2-z
3 -x,-y,-z
4 x,-y,1/2+z
_cell_length_a                   17.899(7)
_cell_length_b                   7.542(3)
_cell_length_c                   28.997(8)
_cell_angle_alpha                90
_cell_angle_beta                 125.408(16)
_cell_angle_gamma                90
_cell_volume                     3190.44
loop_
_atom_site_label
_atom_site_type_symbol
_atom_site_fract_x
_atom_site_fract_y
_atom_site_fract_z
O1 O 0.5000 0.499(4) 0.7500
C1 C 0.5000 0.316(4) 0.7500
O2 O -0.3954(3) 1.3451(5) 0.94342(18)
O3 O -0.4833(3) 1.1051(5) 0.90716(16)
C2 C -0.4150(4) 1.1978(7) 0.9202(2)
Zn1 Zn -0.45122(4) 1.52668(7) 0.96959(2)
Zn2 Zn -0.57764(4) 1.20991(7) 0.91268(2)
F1 F -1.0257(2) 0.4423(5) 0.82115(15)
F2 F -0.9641(2) 0.2181(4) 0.81053(17)
F3 F -1.1051(2) 0.2763(4) 0.74930(16)
F4 F -0.1705(3) 1.1699(5) 0.82417(16)
F5 F -0.0769(2) 0.9655(5) 0.83788(16)
F6 F -0.0533(2) 1.1130(5) 0.90789(15)
F7 F -0.1516(3) 0.6356(5) 0.91669(14)
F8 F -0.0418(2) 0.7155(5) 0.91173(15)
F9 F -0.0693(2) 0.8571(6) 0.96384(13)
O4 O -0.6882(2) 1.0764(5) 0.87078(15)
O5 O -0.6269(2) 0.8950(5) 0.94328(16)
O6 O -0.3749(3) 0.4095(5) 0.64101(16)
O7 O -0.4678(3) 0.6403(5) 0.60472(14)
O8 O -0.3263(3) 1.6318(5) 1.01049(17)
O9 O -0.5093(2) 1.3270(4) 0.98705(13)
N1 N -0.2141(4) 1.8227(7) 1.0354(2)
C3 C -0.6867(3) 0.9329(7) 0.8935(2)
C4 C -0.7650(3) 0.8097(6) 0.8570(2)
C5 C -0.8301(3) 0.8484(7) 0.8009(2)
H1 H -0.8237 0.9502 0.7854
C6 C -0.9045(3) 0.7398(6) 0.7672(2)
H2 H -0.9480 0.7695 0.7295
C7 C -0.9152(3) 0.5866(6) 0.7890(2)
C8 C -0.8476(4) 0.5425(7) 0.8451(2)
H3 H -0.8520 0.4376 0.8602
C9 C -1.0000 0.4710(9) 0.7500
C10 C -1.0237(4) 0.3501(7) 0.7830(3)
C11 C -0.4002(3) 0.5588(7) 0.6448(2)
C12 C -0.3441(3) 0.6455(6) 0.7009(2)
C13 C -0.2693(3) 0.5564(7) 0.7465(2)
H4 H -0.2554 0.4425 0.7414
C14 C -0.2156(3) 0.6345(7) 0.7988(2)
H5 H -0.1655 0.5737 0.8286
C15 C -0.2357(3) 0.8029(6) 0.8075(2)
C16 C -0.3096(3) 0.8914(6) 0.7623(2)
H6 H -0.3237 1.0051 0.7675
C17 C -0.3628(3) 0.8137(7) 0.7098(2)
H7 H -0.4121 0.8759 0.6798
C18 C -0.1762(3) 0.9008(7) 0.8650(2)
C19 C -0.1186(4) 1.0392(9) 0.8590(2)
C20 C -0.1095(4) 0.7766(9) 0.9142(2)
C21 C -0.2378(4) 0.9854(7) 0.8797(2)
C22 C -0.3084(4) 0.8858(7) 0.8726(2)
H8 H -0.3179 0.7716 0.8581
C23 C -0.3647(4) 0.9497(7) 0.8863(2)
H9 H -0.4108 0.8785 0.8820
C24 C -0.3527(3) 1.1224(7) 0.9067(2)
C25 C -0.2827(4) 1.2224(8) 0.9139(3)
H10 H -0.2736 1.3372 0.9279
C26 C -0.2258(4) 1.1558(8) 0.9008(2)
H11 H -0.1786 1.2258 0.9062
C27 C -0.2954(4) 1.7793(8) 1.0205(2)
H12 H -0.3331 1.8706 1.0172
C28 C -0.1548(5) 1.6853(11) 1.0376(4)
H13 H -0.1004 1.6755 1.0756
H14 H -0.1381 1.7160 1.0126
H15 H -0.1867 1.5740 1.0262
C29 C -0.1812(6) 1.9988(11) 1.0481(4)
H16 H -0.2294 2.0769 1.0406
H17 H -0.1611 2.0320 1.0249
H18 H -0.1307 2.0071 1.0872
C30 C -0.7743(4) 0.6542(7) 0.8781(2)
H19 H -0.7299 0.6239 0.9156
F1A F -0.9743(2) 0.4423(5) 0.67885(15)
F2A F -1.0359(2) 0.2181(4) 0.68947(17)
F3A F -0.8949(2) 0.2763(4) 0.75070(16)
O4A O -1.3118(2) 1.0764(5) 0.62922(15)
O5A O -1.3731(2) 0.8950(5) 0.55672(16)
C3A C -1.3133(3) 0.9329(7) 0.6065(2)
C4A C -1.2350(3) 0.8097(6) 0.6430(2)
C5A C -1.1699(3) 0.8484(7) 0.6991(2)
H1A H -1.1763 0.9502 0.7146
C6A C -1.0955(3) 0.7398(6) 0.7328(2)
H2A H -1.0520 0.7695 0.7705
C7A C -1.0848(3) 0.5866(6) 0.7110(2)
C8A C -1.1524(4) 0.5425(7) 0.6549(2)
H3A H -1.1480 0.4376 0.6398
C10A C -0.9763(4) 0.3501(7) 0.7170(3)
C30A C -1.2257(4) 0.6542(7) 0.6219(2)
H19A H -1.2701 0.6239 0.5844
O2A O -1.6046(3) 1.3451(5) 0.55658(18)
O3A O -1.5167(3) 1.1051(5) 0.59284(16)
C2A C -1.5850(4) 1.1978(7) 0.5798(2)
Zn1A Zn -1.54878(4) 1.52668(7) 0.53041(2)
Zn2A Zn -1.42236(4) 1.20991(7) 0.58732(2)
F4A F -1.8295(3) 1.1699(5) 0.67583(16)
F5A F -1.9231(2) 0.9655(5) 0.66212(16)
F6A F -1.9467(2) 1.1130(5) 0.59211(15)
F7A F -1.8484(3) 0.6356(5) 0.58331(14)
F8A F -1.9582(2) 0.7155(5) 0.58827(15)
F9A F -1.9307(2) 0.8571(6) 0.53616(13)
O6A O -1.6251(3) 0.4095(5) 0.85899(16)
O7A O -1.5322(3) 0.6403(5) 0.89528(14)
O8A O -1.6737(3) 1.6318(5) 0.48951(17)
O9A O -1.4907(2) 1.3270(4) 0.51295(13)
N1A N -1.7859(4) 1.8227(7) 0.4646(2)
C11A C -1.5998(3) 0.5588(7) 0.8552(2)
C12A C -1.6559(3) 0.6455(6) 0.7991(2)
C13A C -1.7307(3) 0.5564(7) 0.7535(2)
H4A H -1.7446 0.4425 0.7586
C14A C -1.7844(3) 0.6345(7) 0.7012(2)
H5A H -1.8345 0.5737 0.6714
C15A C -1.7643(3) 0.8029(6) 0.6925(2)
C16A C -1.6904(3) 0.8914(6) 0.7377(2)
H6A H -1.6763 1.0051 0.7325
C17A C -1.6372(3) 0.8137(7) 0.7902(2)
H7A H -1.5879 0.8759 0.8202
C18A C -1.8238(3) 0.9008(7) 0.6350(2)
C19A C -1.8814(4) 1.0392(9) 0.6410(2)
C20A C -1.8905(4) 0.7766(9) 0.5858(2)
C21A C -1.7622(4) 0.9854(7) 0.6203(2)
C22A C -1.6916(4) 0.8858(7) 0.6274(2)
H8A H -1.6821 0.7716 0.6419
C23A C -1.6353(4) 0.9497(7) 0.6137(2)
H9A H -1.5892 0.8785 0.6180
C24A C -1.6473(3) 1.1224(7) 0.5933(2)
C25A C -1.7173(4) 1.2224(8) 0.5861(3)
H10A H -1.7264 1.3372 0.5721
C26A C -1.7742(4) 1.1558(8) 0.5992(2)
H11A H -1.8214 1.2258 0.5938
C27A C -1.7046(4) 1.7793(8) 0.4795(2)
H12A H -1.6669 1.8706 0.4828
C28A C -1.8452(5) 1.6853(11) 0.4624(4)
H13A H -1.8996 1.6755 0.4244
H14A H -1.8619 1.7160 0.4874
H15A H -1.8133 1.5740 0.4738
C29A C -1.8188(6) 1.9988(11) 0.4519(4)
H16A H -1.7706 2.0769 0.4594
H17A H -1.8389 2.0320 0.4751
H18A H -1.8693 2.0071 0.4128
Zn1_2 Zn -1.45122(4) 0.52668(7) 0.96959(2)
Zn1A_2 Zn -0.54878(4) 0.52668(7) 0.53041(2)
Zn1B Zn -0.54878(4) 1.47332(7) 1.03041(2)
Zn1C Zn -1.45122(4) 1.47332(7) 0.46959(2)
Zn2_2 Zn -1.57764(4) 0.20991(7) 0.91268(2)
Zn2A_2 Zn -0.42236(4) 0.20991(7) 0.58732(2)
O6_2 O -1.3749(3) 1.4095(5) 0.64101(16)
O6A_2 O -0.6251(3) 1.4095(5) 0.85899(16)
O7_2 O -1.4678(3) 1.6403(5) 0.60472(14)
O7A_2 O -0.5322(3) 1.6403(5) 0.89528(14)
O9B O -0.4907(2) 1.6730(4) 1.01295(13)
O9C O -1.5093(2) 1.6730(4) 0.48705(13)
loop_
_geom_bond_atom_site_label_1
_geom_bond_atom_site_label_2
_geom_bond_site_symmetry_1
_geom_bond_site_symmetry_2
O1 C1 1_555 1_555
O2 C2 1_555 1_555
O3 C2 1_555 1_555
C2 C24 1_555 1_555
Zn1 O2 1_555 1_555
Zn2 O3 1_555 1_555
F1 C10 1_555 1_555
F2 C10 1_555 1_555
F3 C10 1_555 1_555
F4 C19 1_555 1_555
F5 C19 1_555 1_555
F6 C19 1_555 1_555
F7 C20 1_555 1_555
F8 C20 1_555 1_555
F9 C20 1_555 1_555
O4 Zn2 1_555 1_555
O5 C3 1_555 1_555
O6 C11 1_555 1_555
O7 C11 1_555 1_555
O8 Zn1 1_555 1_555
O9 Zn1 1_555 1_555
N1 C27 1_555 1_555
C3 O4 1_555 1_555
C4 C3 1_555 1_555
C5 C4 1_555 1_555
H1 C5 1_555 1_555
C6 C5 1_555 1_555
H2 C6 1_555 1_555
C7 C6 1_555 1_555
C8 C7 1_555 1_555
H3 C8 1_555 1_555
C9 C7 1_555 1_555
C10 C9 1_555 1_555
C11 C12 1_555 1_555
C12 C13 1_555 1_555
C13 H4 1_555 1_555
C14 C13 1_555 1_555
H5 C14 1_555 1_555
C15 C14 1_555 1_555
C16 C15 1_555 1_555
H6 C16 1_555 1_555
C17 C12 1_555 1_555
H7 C17 1_555 1_555
C18 C15 1_555 1_555
C19 C18 1_555 1_555
C20 C18 1_555 1_555
C21 C18 1_555 1_555
C22 C21 1_555 1_555
H8 C22 1_555 1_555
C23 C22 1_555 1_555
H9 C23 1_555 1_555
C24 C23 1_555 1_555
C25 C24 1_555 1_555
H10 C25 1_555 1_555
C26 C21 1_555 1_555
H11 C26 1_555 1_555
C27 O8 1_555 1_555
H12 C27 1_555 1_555
C28 N1 1_555 1_555
H13 C28 1_555 1_555
H14 C28 1_555 1_555
H15 C28 1_555 1_555
C29 N1 1_555 1_555
H16 C29 1_555 1_555
H17 C29 1_555 1_555
H18 C29 1_555 1_555
C30 C4 1_555 1_555
H19 C30 1_555 1_555
F1A C10A 1_555 1_555
F2A C10A 1_555 1_555
F3A C10A 1_555 1_555
O4A C3A 1_555 1_555
O5A C3A 1_555 1_555
C3A C4A 1_555 1_555
C4A C5A 1_555 1_555
C5A H1A 1_555 1_555
C6A C5A 1_555 1_555
H2A C6A 1_555 1_555
C7A C9 1_555 1_555
C8A C7A 1_555 1_555
H3A C8A 1_555 1_555
C10A C9 1_555 1_555
C30A C4A 1_555 1_555
H19A C30A 1_555 1_555
O2A C2A 1_555 1_555
O3A C2A 1_555 1_555
C2A C24A 1_555 1_555
Zn1A O2A 1_555 1_555
Zn2A O4A 1_555 1_555
F4A C19A 1_555 1_555
F5A C19A 1_555 1_555
F6A C19A 1_555 1_555
F7A C20A 1_555 1_555
F8A C20A 1_555 1_555
F9A C20A 1_555 1_555
O6A C11A 1_555 1_555
O7A C11A 1_555 1_555
O8A Zn1A 1_555 1_555
O9A Zn1A 1_555 1_555
N1A C27A 1_555 1_555
C11A C12A 1_555 1_555
C12A C13A 1_555 1_555
C13A H4A 1_555 1_555
C14A C13A 1_555 1_555
H5A C14A 1_555 1_555
C15A C14A 1_555 1_555
C16A C15A 1_555 1_555
H6A C16A 1_555 1_555
C17A C12A 1_555 1_555
H7A C17A 1_555 1_555
C18A C15A 1_555 1_555
C19A C18A 1_555 1_555
C20A C18A 1_555 1_555
C21A C18A 1_555 1_555
C22A C21A 1_555 1_555
H8A C22A 1_555 1_555
C23A C22A 1_555 1_555
H9A C23A 1_555 1_555
C24A C23A 1_555 1_555
C25A C24A 1_555 1_555
H10A C25A 1_555 1_555
C26A C21A 1_555 1_555
H11A C26A 1_555 1_555
C27A O8A 1_555 1_555
H12A C27A 1_555 1_555
C28A N1A 1_555 1_555
H13A C28A 1_555 1_555
H14A C28A 1_555 1_555
H15A C28A 1_555 1_555
C29A N1A 1_555 1_555
H16A C29A 1_555 1_555
H17A C29A 1_555 1_555
H18A C29A 1_555 1_555
Zn1_2 O7A 1_555 1_555
Zn1A_2 O7 1_555 1_555
Zn1B O9 1_555 1_555
Zn1C O9A 1_555 1_555
Zn2_2 O6A 1_555 1_555
Zn2A_2 O6 1_555 1_555
O6_2 Zn2A 1_555 1_555
O6A_2 Zn2 1_555 1_555
O7_2 Zn1A 1_555 1_555
O7A_2 Zn1 1_555 1_555
O9B Zn1 1_555 1_555
O9C Zn1A 1_555 1_555
Zn2 O9 1_555 1_555
C8 C30 1_555 1_555
C16 C17 1_555 1_555
C25 C26 1_555 1_555
C6A C7A 1_555 1_555
C8A C30A 1_555 1_555
O3A Zn2A 1_555 1_555
Zn2A O9A 1_555 1_555
C16A C17A 1_555 1_555
C25A C26A 1_555 1_555
Zn1B O9B 1_555 1_555
Zn1C O9C 1_555 1_555

#END
