
#######################################################################
#
#                 Cambridge Crystallographic Data Centre
#                                CCDC 
#
#######################################################################
#
# If this CIF has been generated from an entry in the Cambridge 
# Structural Database, then it will include bibliographic, chemical, 
# crystal, experimental, refinement or atomic coordinate data resulting 
# from the CCDC's data processing and validation procedures.
#
#######################################################################

data_RAYMIP
_chemical_formula_moiety         '(C66 H42 In3 O16)n'
_symmetry_cell_setting           hexagonal
_symmetry_space_group_name_H-M   'P -6 2 c'
_symmetry_Int_Tables_number      190
_space_group_name_Hall           'P -6c -2c'
loop_
_symmetry_equiv_pos_site_id
_symmetry_equiv_pos_as_xyz
1 x,y,z
2 -x+y,-x,1/2-z
3 -y,x-y,z
4 x,y,1/2-z
5 -x+y,-x,z
6 -y,x-y,1/2-z
7 y,x,1/2+z
8 x-y,-y,-z
9 -x,-x+y,1/2+z
10 y,x,-z
11 x-y,-y,1/2+z
12 -x,-x+y,-z
_cell_length_a                   19.4356(9)
_cell_length_b                   19.4356(9)
_cell_length_c                   27.893(3)
_cell_angle_alpha                90
_cell_angle_beta                 90
_cell_angle_gamma                120
_cell_volume                     9124.77
loop_
_atom_site_label
_atom_site_type_symbol
_atom_site_fract_x
_atom_site_fract_y
_atom_site_fract_z
C1 C 0.78367(8) 0.49270(9) 0.68060(5)
C2 C 0.82703(9) 0.55059(8) 0.64187(5)
C3 C 0.79790(10) 0.59675(10) 0.62256(6)
H1 H 0.7500 0.5903 0.6337
C4 C 0.83805(11) 0.65142(11) 0.58751(6)
H2 H 0.8172 0.6816 0.5752
C5 C 0.90876(9) 0.66227(9) 0.57022(6)
C6 C 0.93911(11) 0.61701(11) 0.58959(7)
H3 H 0.9882 0.6253 0.5794
C7 C 0.89671(10) 0.55955(10) 0.62406(6)
H4 H 0.9157 0.5270 0.6351
C8 C 1.0000 0.71007(10) 0.5000
H5 H 1.0000 0.6622 0.5000
C9 C 0.95475(9) 0.72309(8) 0.53377(5)
C10 C 0.95445(9) 0.79370(8) 0.53314(5)
H6 H 0.9234 0.8020 0.5552
C11 C 1.0000 0.85303(9) 0.5000
C12 C 1.0000 0.92933(11) 0.5000
C13 C 1.07034(10) 1.0000 0.5000
H7 H 1.1182 1.0000 0.5000
In1 In 0.635989(7) 0.418818(7) 0.7500
O1 O 0.72109(7) 0.48823(6) 0.69530(4)
O2 O 0.81421(6) 0.45354(7) 0.69541(4)
O3 O 0.60153(9) 0.51049(9) 0.7500
O4 O 0.6667 0.3333 0.7500
C1K C 1.21633(8) 0.70903(12) 0.31940(5)
C1B C 1.50730(9) 1.29097(12) 0.68060(5)
C1G C 1.29097(12) 1.50730(9) 0.31940(5)
C1D C 0.70903(12) 1.21633(8) 0.68060(5)
C1I C 0.49270(9) 0.78367(8) 0.31940(5)
C2K C 1.17297(9) 0.72356(12) 0.35813(5)
C2B C 1.44941(8) 1.27644(12) 0.64187(5)
C2G C 1.27644(12) 1.44941(8) 0.35813(5)
C2D C 0.72356(12) 1.17297(9) 0.64187(5)
C2I C 0.55059(8) 0.82703(9) 0.35813(5)
C3K C 1.20210(10) 0.79885(14) 0.37744(6)
C3B C 1.40325(10) 1.20115(14) 0.62256(6)
C3G C 1.20115(14) 1.40325(10) 0.37744(6)
C3D C 0.79885(14) 1.20210(10) 0.62256(6)
C3I C 0.59675(10) 0.79790(10) 0.37744(6)
H1K H 1.2500 0.8403 0.3663
H1B H 1.4097 1.1597 0.6337
H1G H 1.1597 1.4097 0.3663
H1D H 0.8403 1.2500 0.6337
H1I H 0.5903 0.7500 0.3663
C4K C 1.16195(11) 0.81337(16) 0.41249(6)
C4B C 1.34858(11) 1.18663(16) 0.58751(6)
C4G C 1.18663(16) 1.34858(11) 0.41249(6)
C4D C 0.81337(16) 1.16195(11) 0.58751(6)
C4I C 0.65142(11) 0.83805(11) 0.41249(6)
H2K H 1.1828 0.8644 0.4248
H2B H 1.3184 1.1356 0.5752
H2G H 1.1356 1.3184 0.4248
H2D H 0.8644 1.1828 0.5752
H2I H 0.6816 0.8172 0.4248
C5K C 1.09124(9) 0.75351(13) 0.42978(6)
C5B C 1.33773(9) 1.24649(13) 0.57022(6)
C5G C 1.24649(13) 1.33773(9) 0.42978(6)
C5D C 0.75351(13) 1.09124(9) 0.57022(6)
C5I C 0.66227(9) 0.90876(9) 0.42978(6)
C6K C 1.06089(11) 0.67790(16) 0.41041(7)
C6B C 1.38299(11) 1.32210(16) 0.58959(7)
C6G C 1.32210(16) 1.38299(11) 0.41041(7)
C6D C 0.67790(16) 1.06089(11) 0.58959(7)
C6I C 0.61701(11) 0.93911(11) 0.41041(7)
H3K H 1.0118 0.6371 0.4206
H3B H 1.3747 1.3629 0.5794
H3G H 1.3629 1.3747 0.4206
H3D H 0.6371 1.0118 0.5794
H3I H 0.6253 0.9882 0.4206
C7K C 1.10329(10) 0.66284(14) 0.37594(6)
C7B C 1.44045(10) 1.33716(14) 0.62406(6)
C7G C 1.33716(14) 1.44045(10) 0.37594(6)
C7D C 0.66284(14) 1.10329(10) 0.62406(6)
C7I C 0.55955(10) 0.89671(10) 0.37594(6)
H4K H 1.0843 0.6113 0.3649
H4B H 1.4730 1.3887 0.6351
H4G H 1.3887 1.4730 0.3649
H4D H 0.6113 1.0843 0.6351
H4I H 0.5270 0.9157 0.3649
C8B C 1.28993(10) 1.28993(10) 0.5000
C8D C 0.71007(10) 1.0000 0.5000
H5B H 1.3378 1.3378 0.5000
H5D H 0.6622 1.0000 0.5000
C9K C 1.04525(9) 0.76834(12) 0.46623(5)
C9B C 1.27691(8) 1.23166(12) 0.53377(5)
C9G C 1.23166(12) 1.27691(8) 0.46623(5)
C9D C 0.76834(12) 1.04525(9) 0.53377(5)
C9I C 0.72309(8) 0.95475(9) 0.46623(5)
C10K C 1.04555(9) 0.83925(12) 0.46686(5)
C10B C 1.20630(8) 1.16075(12) 0.53314(5)
C10G C 1.16075(12) 1.20630(8) 0.46686(5)
C10D C 0.83925(12) 1.04555(9) 0.53314(5)
C10I C 0.79370(8) 0.95445(9) 0.46686(5)
H6G H 1.1214 1.1980 0.4448
H6B H 1.1980 1.1214 0.5552
H6I H 0.8020 0.9234 0.4448
H6D H 0.8786 1.0766 0.5552
H6K H 1.0766 0.8786 0.4448
C11B C 1.14697(9) 1.14697(9) 0.5000
C11D C 0.85303(9) 1.0000 0.5000
C12B C 1.07067(11) 1.07067(11) 0.5000
C12D C 0.92933(11) 1.0000 0.5000
C13B C 1.0000 1.07034(10) 0.5000
C13D C 0.92966(10) 0.92966(10) 0.5000
H7D H 0.8818 0.8818 0.5000
H7B H 1.0000 1.1182 0.5000
In1B In 0.581182(7) 0.217171(10) 0.7500
In1H In 1.364011(7) 0.782829(10) 0.2500
In1A In 0.782829(10) 0.364011(7) 0.7500
In1G In 1.217171(10) 0.581182(7) 0.2500
In1B_2 In 1.581182(7) 1.217171(10) 0.7500
In1_2 In 1.635989(7) 1.418818(7) 0.7500
In1G_2 In 1.217171(10) 1.581182(7) 0.2500
In1F In 1.418818(7) 1.635989(7) 0.2500
In1A_2 In 0.782829(10) 1.364011(7) 0.7500
In1B_3 In 0.581182(7) 1.217171(10) 0.7500
In1F_2 In 0.418818(7) 0.635989(7) 0.2500
In1H_2 In 0.364011(7) 0.782829(10) 0.2500
O1K O 1.27891(7) 0.76714(9) 0.30470(4)
O1B O 1.51177(6) 1.23286(9) 0.69530(4)
O1G O 1.23286(9) 1.51177(6) 0.30470(4)
O1D O 0.76714(9) 1.27891(7) 0.69530(4)
O1I O 0.48823(6) 0.72109(7) 0.30470(4)
O1C O 0.72109(7) 0.48823(6) 0.80470(4)
O1E O 0.51177(6) 0.23286(9) 0.80470(4)
O1B_2 O 0.51177(6) 0.23286(9) 0.69530(4)
O1A O 0.76714(9) 0.27891(7) 0.80470(4)
O1D_2 O 0.76714(9) 0.27891(7) 0.69530(4)
O2K O 1.18579(6) 0.63933(9) 0.30459(4)
O2B O 1.54646(7) 1.36067(9) 0.69541(4)
O2G O 1.36067(9) 1.54646(7) 0.30459(4)
O2D O 0.63933(9) 1.18579(6) 0.69541(4)
O2I O 0.45354(7) 0.81421(6) 0.30459(4)
O2B_2 O 0.54646(7) 0.36067(9) 0.69541(4)
O2E O 0.54646(7) 0.36067(9) 0.80459(4)
O2A O 0.63933(9) 0.18579(6) 0.80459(4)
O2D_2 O 0.63933(9) 0.18579(6) 0.69541(4)
O2C O 0.81421(6) 0.45354(7) 0.80459(4)
O3B O 0.48951(9) 0.09104(13) 0.7500
O3A O 0.90896(13) 0.39847(9) 0.7500
loop_
_geom_bond_atom_site_label_1
_geom_bond_atom_site_label_2
_geom_bond_site_symmetry_1
_geom_bond_site_symmetry_2
C1 C2 1_555 1_555
C2 C3 1_555 1_555
C3 H1 1_555 1_555
C4 C3 1_555 1_555
H2 C4 1_555 1_555
C5 C4 1_555 1_555
C6 C5 1_555 1_555
H3 C6 1_555 1_555
C7 C2 1_555 1_555
H4 C7 1_555 1_555
C8 H5 1_555 1_555
C9 C5 1_555 1_555
C10 C9 1_555 1_555
H6 C10 1_555 1_555
C11 C10 1_555 1_555
C12 C11 1_555 1_555
C13 C12 1_555 1_555
H7 C13 1_555 1_555
In1 O1 1_555 1_555
O1 C1 1_555 1_555
O2 C1 1_555 1_555
O3 In1 1_555 1_555
O4 In1 1_555 1_555
C1K C2K 1_555 1_555
C1B C2B 1_555 1_555
C1G C2G 1_555 1_555
C1D C2D 1_555 1_555
C1I C2I 1_555 1_555
C2K C3K 1_555 1_555
C2B C3B 1_555 1_555
C2G C3G 1_555 1_555
C2D C3D 1_555 1_555
C2I C3I 1_555 1_555
C3K H1K 1_555 1_555
C3B H1B 1_555 1_555
C3G H1G 1_555 1_555
C3D H1D 1_555 1_555
C3I H1I 1_555 1_555
C4K C3K 1_555 1_555
C4B C3B 1_555 1_555
C4G C3G 1_555 1_555
C4D C3D 1_555 1_555
C4I C3I 1_555 1_555
H2K C4K 1_555 1_555
H2B C4B 1_555 1_555
H2G C4G 1_555 1_555
H2D C4D 1_555 1_555
H2I C4I 1_555 1_555
C5K C4K 1_555 1_555
C5B C4B 1_555 1_555
C5G C4G 1_555 1_555
C5D C4D 1_555 1_555
C5I C4I 1_555 1_555
C6K C5K 1_555 1_555
C6B C5B 1_555 1_555
C6G C5G 1_555 1_555
C6D C5D 1_555 1_555
C6I C5I 1_555 1_555
H3K C6K 1_555 1_555
H3B C6B 1_555 1_555
H3G C6G 1_555 1_555
H3D C6D 1_555 1_555
H3I C6I 1_555 1_555
C7K C2K 1_555 1_555
C7B C2B 1_555 1_555
C7G C2G 1_555 1_555
C7D C2D 1_555 1_555
C7I C2I 1_555 1_555
H4K C7K 1_555 1_555
H4B C7B 1_555 1_555
H4G C7G 1_555 1_555
H4D C7D 1_555 1_555
H4I C7I 1_555 1_555
C8B H5B 1_555 1_555
C8D H5D 1_555 1_555
C9K C8 1_555 1_555
C9B C5B 1_555 1_555
C9G C5G 1_555 1_555
C9D C5D 1_555 1_555
C9I C5I 1_555 1_555
C10K C11 1_555 1_555
C10B C9B 1_555 1_555
C10G C9G 1_555 1_555
C10D C9D 1_555 1_555
C10I C9I 1_555 1_555
H6G C10G 1_555 1_555
H6B C10B 1_555 1_555
H6I C10I 1_555 1_555
H6D C10D 1_555 1_555
H6K C10K 1_555 1_555
C11B C10B 1_555 1_555
C11D C10D 1_555 1_555
C12B C13 1_555 1_555
C12D C11D 1_555 1_555
C13B C12B 1_555 1_555
C13D C12 1_555 1_555
H7D C13D 1_555 1_555
H7B C13B 1_555 1_555
In1B O4 1_555 1_555
In1H O1K 1_555 1_555
In1A O2 1_555 1_555
In1G O2K 1_555 1_555
In1B_2 O1B 1_555 1_555
In1_2 O2B 1_555 1_555
In1G_2 O1G 1_555 1_555
In1F O2G 1_555 1_555
In1A_2 O1D 1_555 1_555
In1B_3 O2D 1_555 1_555
In1F_2 O1I 1_555 1_555
In1H_2 O2I 1_555 1_555
O1K C1K 1_555 1_555
O1B C1B 1_555 1_555
O1G C1G 1_555 1_555
O1D C1D 1_555 1_555
O1I C1I 1_555 1_555
O1C In1 1_555 1_555
O1E In1B 1_555 1_555
O1B_2 In1B 1_555 1_555
O1A In1A 1_555 1_555
O1D_2 In1A 1_555 1_555
O2K C1K 1_555 1_555
O2B C1B 1_555 1_555
O2G C1G 1_555 1_555
O2D C1D 1_555 1_555
O2I C1I 1_555 1_555
O2B_2 In1 1_555 1_555
O2E In1 1_555 1_555
O2A In1B 1_555 1_555
O2D_2 In1B 1_555 1_555
O2C In1A 1_555 1_555
O3B In1B 1_555 1_555
O3A In1A 1_555 1_555
C6 C7 1_555 1_555
C8 C9 1_555 1_555
O4 In1A 1_555 1_555
C5K C9K 1_555 1_555
C6K C7K 1_555 1_555
C6B C7B 1_555 1_555
C6G C7G 1_555 1_555
C6D C7D 1_555 1_555
C6I C7I 1_555 1_555
C8B C9B 1_555 1_555
C8B C9G 1_555 1_555
C8D C9D 1_555 1_555
C8D C9I 1_555 1_555
C9K C10K 1_555 1_555
C10G C11B 1_555 1_555
C10I C11D 1_555 1_555
C11B C12B 1_555 1_555
C12D C13B 1_555 1_555
C12D C13D 1_555 1_555

#END
