
#######################################################################
#
#                 Cambridge Crystallographic Data Centre
#                                CCDC 
#
#######################################################################
#
# If this CIF has been generated from an entry in the Cambridge 
# Structural Database, then it will include bibliographic, chemical, 
# crystal, experimental, refinement or atomic coordinate data resulting 
# from the CCDC's data processing and validation procedures.
#
#######################################################################

data_FEWGUL
_chemical_formula_moiety         '(C48 H34 La2 N12 O17)n'
_symmetry_cell_setting           monoclinic
_symmetry_space_group_name_H-M   'P 21/c'
_symmetry_Int_Tables_number      14
_space_group_name_Hall           '-P 2ybc'
loop_
_symmetry_equiv_pos_site_id
_symmetry_equiv_pos_as_xyz
1 x,y,z
2 -x,1/2+y,1/2-z
3 -x,-y,-z
4 x,1/2-y,1/2+z
_cell_length_a                   5.1474(10)
_cell_length_b                   18.232(4)
_cell_length_c                   26.783(5)
_cell_angle_alpha                90
_cell_angle_beta                 90.08(3)
_cell_angle_gamma                90
_cell_volume                     2513.51
loop_
_atom_site_label
_atom_site_type_symbol
_atom_site_fract_x
_atom_site_fract_y
_atom_site_fract_z
C1 C 0.678(5) 0.2244(11) 0.5138(7)
C2 C 0.622(5) 0.2967(10) 0.5380(7)
C3 C 0.422(4) 0.3415(10) 0.5195(9)
H1 H 0.3061 0.3237 0.4948
C4 C 0.397(5) 0.4121(10) 0.5379(6)
C5 C 0.552(5) 0.4382(13) 0.5735(8)
H2 H 0.5204 0.4856 0.5868
C6 C 0.761(5) 0.3971(13) 0.5916(8)
H3 H 0.8809 0.4163 0.6153
C7 C 0.784(5) 0.3248(11) 0.5725(7)
H4 H 0.9206 0.2947 0.5847
C8 C 0.177(5) 0.4580(11) 0.5176(8)
C9 C -0.394(7) 0.0916(11) 0.3898(8)
C10 C -0.337(7) 0.0999(13) 0.3333(8)
C11 C -0.152(6) 0.1360(10) 0.3140(7)
H5 H -0.0337 0.1595 0.3359
C12 C -0.110(6) 0.1435(12) 0.2627(8)
C13 C -0.297(6) 0.1106(14) 0.2307(10)
H6 H -0.2849 0.1175 0.1956
C14 C -0.497(7) 0.0681(16) 0.2505(10)
H7 H -0.6174 0.0436 0.2294
C15 C -0.514(6) 0.0629(13) 0.3014(8)
H8 H -0.6473 0.0338 0.3157
C16 C 0.083(5) 0.1915(12) 0.2415(8)
C17 C 0.419(5) 0.2792(12) 0.2043(8)
C18 C 0.662(6) 0.4372(11) 0.0584(7)
C19 C 0.721(5) 0.4070(10) 0.1118(7)
C20 C 0.562(5) 0.3562(11) 0.1326(7)
H9 H 0.4238 0.336 0.1134
C21 C 0.599(5) 0.3330(11) 0.1823(7)
C22 C 0.802(6) 0.3589(13) 0.2087(9)
H10 H 0.8264 0.3423 0.242
C23 C 0.981(6) 0.4105(12) 0.1885(8)
H11 H 1.1226 0.4293 0.2074
C24 C 0.936(5) 0.4321(11) 0.1382(8)
H12 H 1.0556 0.4642 0.1223
O1 O 0.487(4) 0.1989(7) 0.4890(6)
O2 O 0.880(4) 0.1934(7) 0.5222(6)
O3 O -0.612(4) 0.0851(7) 0.4016(5)
O4 O -0.189(4) 0.0960(9) 0.4164(6)
O5 O 0.441(4) 0.4334(8) 0.0448(5)
O6 O 0.854(4) 0.4666(7) 0.0370(4)
O7 O 0.072(6) 0.2322(14) 0.4193(9)
N1 N 0.147(5) 0.5232(9) 0.5397(6)
N2 N 0.041(4) 0.4351(10) 0.4791(8)
N3 N 0.234(5) 0.2311(11) 0.2712(8)
N4 N 0.413(5) 0.2781(10) 0.2536(7)
N5 N 0.276(4) 0.2365(10) 0.1730(7)
N6 N 0.114(5) 0.1921(10) 0.1925(7)
La1 La 0.1478(4) 0.10559(5) 0.47778(5)
C1B C -0.678(5) 0.7756(11) 0.4862(7)
C2B C -0.622(5) 0.7033(10) 0.4620(7)
C3B C -0.422(4) 0.6585(10) 0.4805(9)
H1B H -0.3061 0.6763 0.5052
C4B C -0.397(5) 0.5879(10) 0.4621(6)
C5B C -0.552(5) 0.5618(13) 0.4265(8)
H2B H -0.5204 0.5144 0.4132
C6B C -0.761(5) 0.6029(13) 0.4084(8)
H3B H -0.8809 0.5837 0.3847
C7B C -0.784(5) 0.6752(11) 0.4275(7)
H4B H -0.9206 0.7053 0.4153
C8B C -0.177(5) 0.5420(11) 0.4824(8)
O1B O -0.487(4) 0.8011(7) 0.5110(6)
O2B O -0.880(4) 0.8066(7) 0.4778(6)
N1B N -0.147(5) 0.4768(9) 0.4603(6)
N2B N -0.041(4) 0.5649(10) 0.5209(8)
C9B C -0.606(7) 0.9084(11) 0.6102(8)
C10B C -0.663(7) 0.9001(13) 0.6667(8)
C11B C -0.848(6) 0.8640(10) 0.6860(7)
H5B H -0.9663 0.8405 0.6641
C12B C -0.890(6) 0.8565(12) 0.7373(8)
C13B C -0.703(6) 0.8894(14) 0.7693(10)
H6B H -0.7151 0.8825 0.8044
C14B C -0.503(7) 0.9319(16) 0.7495(10)
H7B H -0.3826 0.9564 0.7706
C15B C -0.486(6) 0.9371(13) 0.6986(8)
H8B H -0.3527 0.9662 0.6843
C16B C -1.083(5) 0.8085(12) 0.7585(8)
C17B C -1.419(5) 0.7208(12) 0.7957(8)
C18B C -1.662(6) 0.5628(11) 0.9416(7)
C19B C -1.721(5) 0.5930(10) 0.8882(7)
C20B C -1.562(5) 0.6438(11) 0.8674(7)
H9B H -1.4238 0.664 0.8866
C21B C -1.599(5) 0.6670(11) 0.8177(7)
C22B C -1.802(6) 0.6411(13) 0.7913(9)
H10B H -1.8264 0.6577 0.758
C23B C -1.981(6) 0.5895(12) 0.8115(8)
H11B H -2.1226 0.5707 0.7926
C24B C -1.936(5) 0.5679(11) 0.8618(8)
H12B H -2.0556 0.5358 0.8777
O3B O -0.388(4) 0.9149(7) 0.5984(5)
O4B O -0.811(4) 0.9040(9) 0.5836(6)
O5B O -1.441(4) 0.5666(8) 0.9552(5)
O6B O -1.854(4) 0.5334(7) 0.9630(4)
O7B O -1.072(6) 0.7678(14) 0.5807(9)
N3B N -1.234(5) 0.7689(11) 0.7288(8)
N4B N -1.413(5) 0.7219(10) 0.7464(7)
N5B N -1.276(4) 0.7635(10) 0.8270(7)
N6B N -1.114(5) 0.8079(10) 0.8075(7)
La1B La -1.1478(4) 0.89441(5) 0.52222(5)
O1B_2 O -1.487(4) 0.8011(7) 0.5110(6)
O2_2 O -0.120(4) 0.1934(7) 0.5222(6)
O3_2 O 0.388(4) 0.0851(7) 0.4016(5)
O3B_2 O -1.388(4) 0.9149(7) 0.5984(5)
O5A O -1.441(4) 0.9334(8) 0.4552(5)
O5C O 0.441(4) 0.0666(8) 0.5448(5)
O6A O -0.854(4) 0.9666(7) 0.4630(4)
O6A_2 O 0.146(4) -0.0334(7) 0.4630(4)
O6C O -1.146(4) 1.0334(7) 0.5370(4)
O6C_2 O -0.146(4) 0.0334(7) 0.5370(4)
La1_2 La -0.8522(4) 0.10559(5) 0.47778(5)
La1_3 La 1.1478(4) 0.10559(5) 0.47778(5)
La1A La -2.1478(4) 0.60559(5) 1.02222(5)
La1A_2 La -1.1478(4) 0.60559(5) 1.02222(5)
La1A_3 La 0.8522(4) 0.60559(5) 0.02222(5)
La1B_2 La -0.1478(4) 0.89441(5) 0.52222(5)
La1C La -1.8522(4) 0.39441(5) 0.97778(5)
La1C_2 La 0.1478(4) 0.39441(5) -0.02222(5)
La1C_3 La 1.1478(4) 0.39441(5) -0.02222(5)
O8 O -0.010(8) 0.329(2) 0.3769(13)
O9 O 0.490(12) 0.297(3) 0.3898(18)
O10 O -0.016(9) 0.423(2) 0.3346(12)
loop_
_geom_bond_atom_site_label_1
_geom_bond_atom_site_label_2
_geom_bond_site_symmetry_1
_geom_bond_site_symmetry_2
C1 C2 1_555 1_555
C2 C3 1_555 1_555
C3 H1 1_555 1_555
C4 C3 1_555 1_555
C5 C4 1_555 1_555
H2 C5 1_555 1_555
C6 C5 1_555 1_555
H3 C6 1_555 1_555
C7 C2 1_555 1_555
H4 C7 1_555 1_555
C8 C4 1_555 1_555
C9 C10 1_555 1_555
C10 C11 1_555 1_555
C11 H5 1_555 1_555
C12 C11 1_555 1_555
C13 C12 1_555 1_555
H6 C13 1_555 1_555
C14 C13 1_555 1_555
H7 C14 1_555 1_555
C15 C10 1_555 1_555
H8 C15 1_555 1_555
C16 C12 1_555 1_555
C17 C21 1_555 1_555
C18 C19 1_555 1_555
C19 C20 1_555 1_555
C20 H9 1_555 1_555
C21 C20 1_555 1_555
C22 C21 1_555 1_555
H10 C22 1_555 1_555
C23 C22 1_555 1_555
H11 C23 1_555 1_555
C24 C19 1_555 1_555
H12 C24 1_555 1_555
O1 C1 1_555 1_555
O2 C1 1_555 1_555
O3 C9 1_555 1_555
O4 C9 1_555 1_555
O5 C18 1_555 1_555
O6 C18 1_555 1_555
O7 La1 1_555 1_555
N1 C8 1_555 1_555
N2 C8 1_555 1_555
N3 C16 1_555 1_555
N4 C17 1_555 1_555
N5 C17 1_555 1_555
N6 C16 1_555 1_555
La1 O1 1_555 1_555
C1B C2B 1_555 1_555
C2B C3B 1_555 1_555
C3B H1B 1_555 1_555
C4B C3B 1_555 1_555
C5B C4B 1_555 1_555
H2B C5B 1_555 1_555
C6B C5B 1_555 1_555
H3B C6B 1_555 1_555
C7B C2B 1_555 1_555
H4B C7B 1_555 1_555
C8B C4B 1_555 1_555
O1B C1B 1_555 1_555
O2B C1B 1_555 1_555
N1B N2 1_555 1_555
N2B N1 1_555 1_555
C9B C10B 1_555 1_555
C10B C11B 1_555 1_555
C11B H5B 1_555 1_555
C12B C11B 1_555 1_555
C13B C12B 1_555 1_555
H6B C13B 1_555 1_555
C14B C13B 1_555 1_555
H7B C14B 1_555 1_555
C15B C10B 1_555 1_555
H8B C15B 1_555 1_555
C16B C12B 1_555 1_555
C17B C21B 1_555 1_555
C18B C19B 1_555 1_555
C19B C20B 1_555 1_555
C20B H9B 1_555 1_555
C21B C20B 1_555 1_555
C22B C21B 1_555 1_555
H10B C22B 1_555 1_555
C23B C22B 1_555 1_555
H11B C23B 1_555 1_555
C24B C19B 1_555 1_555
H12B C24B 1_555 1_555
O3B C9B 1_555 1_555
O4B C9B 1_555 1_555
O5B C18B 1_555 1_555
O6B C18B 1_555 1_555
O7B La1B 1_555 1_555
N3B C16B 1_555 1_555
N4B C17B 1_555 1_555
N5B C17B 1_555 1_555
N6B C16B 1_555 1_555
La1B O2B 1_555 1_555
O1B_2 La1B 1_555 1_555
O2_2 La1 1_555 1_555
O3_2 La1 1_555 1_555
O3B_2 La1B 1_555 1_555
O5A La1B 1_555 1_555
O5C La1 1_555 1_555
O6A La1B 1_555 1_555
O6A_2 La1 1_555 1_555
O6C La1B 1_555 1_555
O6C_2 La1 1_555 1_555
La1_2 O3 1_555 1_555
La1_3 O2 1_555 1_555
La1A O6B 1_555 1_555
La1A_2 O5B 1_555 1_555
La1A_3 O6 1_555 1_555
La1B_2 O1B 1_555 1_555
La1C O6B 1_555 1_555
La1C_2 O5 1_555 1_555
La1C_3 O6 1_555 1_555
C6 C7 1_555 1_555
C14 C15 1_555 1_555
C23 C24 1_555 1_555
O4 La1 1_555 1_555
N3 N4 1_555 1_555
N5 N6 1_555 1_555
C6B C7B 1_555 1_555
C8B N1B 1_555 1_555
C8B N2B 1_555 1_555
C14B C15B 1_555 1_555
C23B C24B 1_555 1_555
O3B La1B_2 1_555 1_555
O4B La1B 1_555 1_555
N3B N4B 1_555 1_555
N5B N6B 1_555 1_555

#END
