
#######################################################################
#
#                 Cambridge Crystallographic Data Centre
#                                CCDC 
#
#######################################################################
#
# If this CIF has been generated from an entry in the Cambridge 
# Structural Database, then it will include bibliographic, chemical, 
# crystal, experimental, refinement or atomic coordinate data resulting 
# from the CCDC's data processing and validation procedures.
#
#######################################################################

data_RUTNOK01
_chemical_formula_moiety         'C78 H30 N12 O20 Zn10'
_symmetry_cell_setting           cubic
_symmetry_space_group_name_H-M   'F m -3 m'
_symmetry_Int_Tables_number      225
_space_group_name_Hall           '-F 4 2 3'
loop_
_symmetry_equiv_pos_site_id
_symmetry_equiv_pos_as_xyz
1 x,y,z
2 -x,-y,z
3 -x,y,-z
4 x,-y,-z
5 z,x,y
6 z,-x,-y
7 -z,-x,y
8 -z,x,-y
9 y,z,x
10 -y,z,-x
11 y,-z,-x
12 -y,-z,x
13 y,x,-z
14 -y,-x,-z
15 y,-x,z
16 -y,x,z
17 x,z,-y
18 -x,z,y
19 -x,-z,-y
20 x,-z,y
21 z,y,-x
22 z,-y,x
23 -z,y,x
24 -z,-y,-x
25 x,1/2+y,1/2+z
26 -x,1/2-y,1/2+z
27 -x,1/2+y,1/2-z
28 x,1/2-y,1/2-z
29 z,1/2+x,1/2+y
30 z,1/2-x,1/2-y
31 -z,1/2-x,1/2+y
32 -z,1/2+x,1/2-y
33 y,1/2+z,1/2+x
34 -y,1/2+z,1/2-x
35 y,1/2-z,1/2-x
36 -y,1/2-z,1/2+x
37 y,1/2+x,1/2-z
38 -y,1/2-x,1/2-z
39 y,1/2-x,1/2+z
40 -y,1/2+x,1/2+z
41 x,1/2+z,1/2-y
42 -x,1/2+z,1/2+y
43 -x,1/2-z,1/2-y
44 x,1/2-z,1/2+y
45 z,1/2+y,1/2-x
46 z,1/2-y,1/2+x
47 -z,1/2+y,1/2+x
48 -z,1/2-y,1/2-x
49 1/2+x,y,1/2+z
50 1/2-x,-y,1/2+z
51 1/2-x,y,1/2-z
52 1/2+x,-y,1/2-z
53 1/2+z,x,1/2+y
54 1/2+z,-x,1/2-y
55 1/2-z,-x,1/2+y
56 1/2-z,x,1/2-y
57 1/2+y,z,1/2+x
58 1/2-y,z,1/2-x
59 1/2+y,-z,1/2-x
60 1/2-y,-z,1/2+x
61 1/2+y,x,1/2-z
62 1/2-y,-x,1/2-z
63 1/2+y,-x,1/2+z
64 1/2-y,x,1/2+z
65 1/2+x,z,1/2-y
66 1/2-x,z,1/2+y
67 1/2-x,-z,1/2-y
68 1/2+x,-z,1/2+y
69 1/2+z,y,1/2-x
70 1/2+z,-y,1/2+x
71 1/2-z,y,1/2+x
72 1/2-z,-y,1/2-x
73 1/2+x,1/2+y,z
74 1/2-x,1/2-y,z
75 1/2-x,1/2+y,-z
76 1/2+x,1/2-y,-z
77 1/2+z,1/2+x,y
78 1/2+z,1/2-x,-y
79 1/2-z,1/2-x,y
80 1/2-z,1/2+x,-y
81 1/2+y,1/2+z,x
82 1/2-y,1/2+z,-x
83 1/2+y,1/2-z,-x
84 1/2-y,1/2-z,x
85 1/2+y,1/2+x,-z
86 1/2-y,1/2-x,-z
87 1/2+y,1/2-x,z
88 1/2-y,1/2+x,z
89 1/2+x,1/2+z,-y
90 1/2-x,1/2+z,y
91 1/2-x,1/2-z,-y
92 1/2+x,1/2-z,y
93 1/2+z,1/2+y,-x
94 1/2+z,1/2-y,x
95 1/2-z,1/2+y,x
96 1/2-z,1/2-y,-x
97 -x,-y,-z
98 x,y,-z
99 x,-y,z
100 -x,y,z
101 -z,-x,-y
102 -z,x,y
103 z,x,-y
104 z,-x,y
105 -y,-z,-x
106 y,-z,x
107 -y,z,x
108 y,z,-x
109 -y,-x,z
110 y,x,z
111 -y,x,-z
112 y,-x,-z
113 -x,-z,y
114 x,-z,-y
115 x,z,y
116 -x,z,-y
117 -z,-y,x
118 -z,y,-x
119 z,-y,-x
120 z,y,x
121 -x,1/2-y,1/2-z
122 x,1/2+y,1/2-z
123 x,1/2-y,1/2+z
124 -x,1/2+y,1/2+z
125 -z,1/2-x,1/2-y
126 -z,1/2+x,1/2+y
127 z,1/2+x,1/2-y
128 z,1/2-x,1/2+y
129 -y,1/2-z,1/2-x
130 y,1/2-z,1/2+x
131 -y,1/2+z,1/2+x
132 y,1/2+z,1/2-x
133 -y,1/2-x,1/2+z
134 y,1/2+x,1/2+z
135 -y,1/2+x,1/2-z
136 y,1/2-x,1/2-z
137 -x,1/2-z,1/2+y
138 x,1/2-z,1/2-y
139 x,1/2+z,1/2+y
140 -x,1/2+z,1/2-y
141 -z,1/2-y,1/2+x
142 -z,1/2+y,1/2-x
143 z,1/2-y,1/2-x
144 z,1/2+y,1/2+x
145 1/2-x,-y,1/2-z
146 1/2+x,y,1/2-z
147 1/2+x,-y,1/2+z
148 1/2-x,y,1/2+z
149 1/2-z,-x,1/2-y
150 1/2-z,x,1/2+y
151 1/2+z,x,1/2-y
152 1/2+z,-x,1/2+y
153 1/2-y,-z,1/2-x
154 1/2+y,-z,1/2+x
155 1/2-y,z,1/2+x
156 1/2+y,z,1/2-x
157 1/2-y,-x,1/2+z
158 1/2+y,x,1/2+z
159 1/2-y,x,1/2-z
160 1/2+y,-x,1/2-z
161 1/2-x,-z,1/2+y
162 1/2+x,-z,1/2-y
163 1/2+x,z,1/2+y
164 1/2-x,z,1/2-y
165 1/2-z,-y,1/2+x
166 1/2-z,y,1/2-x
167 1/2+z,-y,1/2-x
168 1/2+z,y,1/2+x
169 1/2-x,1/2-y,-z
170 1/2+x,1/2+y,-z
171 1/2+x,1/2-y,z
172 1/2-x,1/2+y,z
173 1/2-z,1/2-x,-y
174 1/2-z,1/2+x,y
175 1/2+z,1/2+x,-y
176 1/2+z,1/2-x,y
177 1/2-y,1/2-z,-x
178 1/2+y,1/2-z,x
179 1/2-y,1/2+z,x
180 1/2+y,1/2+z,-x
181 1/2-y,1/2-x,z
182 1/2+y,1/2+x,z
183 1/2-y,1/2+x,-z
184 1/2+y,1/2-x,-z
185 1/2-x,1/2-z,y
186 1/2+x,1/2-z,-y
187 1/2+x,1/2+z,y
188 1/2-x,1/2+z,-y
189 1/2-z,1/2-y,x
190 1/2-z,1/2+y,-x
191 1/2+z,1/2-y,-x
192 1/2+z,1/2+y,x
_cell_length_a                   42.9245(2)
_cell_length_b                   42.9245(2)
_cell_length_c                   42.9245(2)
_cell_angle_alpha                90
_cell_angle_beta                 90
_cell_angle_gamma                90
_cell_volume                     79088.9
loop_
_atom_site_label
_atom_site_type_symbol
_atom_site_fract_x
_atom_site_fract_y
_atom_site_fract_z
_atom_site_U_iso_or_equiv
_atom_site_thermal_displace_type
C1 C 0.2500 0.3337(3) 0.2500 0.1880 Uani
C2 C 0.2500 0.3668(4) 0.2500 0.2237 Uani
C3 C 0.23098(18) 0.3844(3) 0.26902(18) 0.3180 Uani
H1 H 0.2174 0.3743 0.2826 0.3820 Uiso
C4 C 0.2317(2) 0.4171(3) 0.2683(2) 0.4127 Uani
H2 H 0.2181 0.4272 0.2819 0.4950 Uiso
C5 C 0.2500 0.4363(8) 0.2500 0.3733 Uani
C6 C 0.2500 0.4683(5) 0.2500 0.3667 Uani
C7 C 0.2281(8) 0.4834(3) 0.2281(8) 0.7053 Uani
C8 C 0.1863(12) 0.5000 0.1863(12) 0.6100 Uiso
H3 H 0.1710 0.5000 0.1710 0.7330 Uiso
C9 C 0.1926(6) 0.4400(9) 0.1926(6) 0.5200 Uiso
N1 N 0.2026(10) 0.4739(15) 0.2026(10) 1.5200 Uiso
O1 O 0.2500 0.2500 0.2500 0.0880 Uani
O2 O 0.26883(9) 0.31966(12) 0.23117(9) 0.1783 Uani
Zn1 Zn 0.276136(15) 0.276136(15) 0.223864(15) 0.1161 Uani
C1U C 0.2500 0.6663(3) 0.2500 0.1880 Uani
C1CA C 0.2500 0.2500 0.1663(3) 0.1880 Uani
C1QA C 0.2500 0.2500 -0.1663(3) 0.1880 Uani
C1H C 0.3337(3) 0.2500 0.2500 0.1880 Uani
C1O C 0.6663(3) 0.2500 0.2500 0.1880 Uani
C2U C 0.2500 0.6332(4) 0.2500 0.2237 Uani
C2CA C 0.2500 0.2500 0.1332(4) 0.2237 Uani
C2QA C 0.2500 0.2500 -0.1332(4) 0.2237 Uani
C2H C 0.3668(4) 0.2500 0.2500 0.2237 Uani
C2O C 0.6332(4) 0.2500 0.2500 0.2237 Uani
C3XA C 0.26902(18) 0.3844(3) 0.23098(18) 0.3180 Uani
C3U C 0.26902(18) 0.6156(3) 0.23098(18) 0.3180 Uani
C3SB C 0.23098(18) 0.6156(3) 0.26902(18) 0.3180 Uani
C3CB C 0.23098(18) 0.23098(18) 0.1156(3) 0.3180 Uani
C3CA C 0.26902(18) 0.26902(18) 0.1156(3) 0.3180 Uani
C3MB C 0.26902(18) 0.26902(18) -0.1156(3) 0.3180 Uani
C3QA C 0.23098(18) 0.23098(18) -0.1156(3) 0.3180 Uani
C3HA C 0.3844(3) 0.23098(18) 0.26902(18) 0.3180 Uani
C3H C 0.3844(3) 0.26902(18) 0.23098(18) 0.3180 Uani
C3KA C 0.6156(3) 0.26902(18) 0.23098(18) 0.3180 Uani
C3O C 0.6156(3) 0.23098(18) 0.26902(18) 0.3180 Uani
H1XA H 0.2826 0.3743 0.2174 0.3820 Uiso
H1SB H 0.2174 0.6257 0.2826 0.3820 Uiso
H1U H 0.2826 0.6257 0.2174 0.3820 Uiso
H1CB H 0.2174 0.2174 0.1257 0.3820 Uiso
H1CA H 0.2826 0.2826 0.1257 0.3820 Uiso
H1QA H 0.2174 0.2174 -0.1257 0.3820 Uiso
H1MB H 0.2826 0.2826 -0.1257 0.3820 Uiso
H1HA H 0.3743 0.2174 0.2826 0.3820 Uiso
H1H H 0.3743 0.2826 0.2174 0.3820 Uiso
H1O H 0.6257 0.2174 0.2826 0.3820 Uiso
H1KA H 0.6257 0.2826 0.2174 0.3820 Uiso
C4XA C 0.2683(2) 0.4171(3) 0.2317(2) 0.4127 Uani
C4U C 0.2683(2) 0.5829(3) 0.2317(2) 0.4127 Uani
C4SB C 0.2317(2) 0.5829(3) 0.2683(2) 0.4127 Uani
C4CB C 0.2317(2) 0.2317(2) 0.0829(3) 0.4127 Uani
C4CA C 0.2683(2) 0.2683(2) 0.0829(3) 0.4127 Uani
C4MB C 0.2683(2) 0.2683(2) -0.0829(3) 0.4127 Uani
C4QA C 0.2317(2) 0.2317(2) -0.0829(3) 0.4127 Uani
C4HA C 0.4171(3) 0.2317(2) 0.2683(2) 0.4127 Uani
C4H C 0.4171(3) 0.2683(2) 0.2317(2) 0.4127 Uani
C4KA C 0.5829(3) 0.2683(2) 0.2317(2) 0.4127 Uani
C4O C 0.5829(3) 0.2317(2) 0.2683(2) 0.4127 Uani
H2XA H 0.2819 0.4272 0.2181 0.4950 Uiso
H2SB H 0.2181 0.5728 0.2819 0.4950 Uiso
H2U H 0.2819 0.5728 0.2181 0.4950 Uiso
H2CB H 0.2181 0.2181 0.0728 0.4950 Uiso
H2CA H 0.2819 0.2819 0.0728 0.4950 Uiso
H2QA H 0.2181 0.2181 -0.0728 0.4950 Uiso
H2MB H 0.2819 0.2819 -0.0728 0.4950 Uiso
H2HA H 0.4272 0.2181 0.2819 0.4950 Uiso
H2H H 0.4272 0.2819 0.2181 0.4950 Uiso
H2O H 0.5728 0.2181 0.2819 0.4950 Uiso
H2KA H 0.5728 0.2819 0.2181 0.4950 Uiso
C5U C 0.2500 0.5637(8) 0.2500 0.3733 Uani
C5CA C 0.2500 0.2500 0.0637(8) 0.3733 Uani
C5QA C 0.2500 0.2500 -0.0637(8) 0.3733 Uani
C5H C 0.4363(8) 0.2500 0.2500 0.3733 Uani
C5O C 0.5637(8) 0.2500 0.2500 0.3733 Uani
C6U C 0.2500 0.5317(5) 0.2500 0.3667 Uani
C6CA C 0.2500 0.2500 0.0317(5) 0.3667 Uani
C6QA C 0.2500 0.2500 -0.0317(5) 0.3667 Uani
C6H C 0.4683(5) 0.2500 0.2500 0.3667 Uani
C6O C 0.5317(5) 0.2500 0.2500 0.3667 Uani
C7U C 0.2281(8) 0.5166(3) 0.2281(8) 0.7053 Uani
C7SB C 0.2719(8) 0.5166(3) 0.2719(8) 0.7053 Uani
C7XA C 0.2719(8) 0.4834(3) 0.2719(8) 0.7053 Uani
C7CB C 0.2719(8) 0.2281(8) 0.0166(3) 0.7053 Uani
C7MB C 0.2719(8) 0.2281(8) -0.0166(3) 0.7053 Uani
C7QA C 0.2281(8) 0.2719(8) -0.0166(3) 0.7053 Uani
C7CA C 0.2281(8) 0.2719(8) 0.0166(3) 0.7053 Uani
C7HA C 0.4834(3) 0.2719(8) 0.2719(8) 0.7053 Uani
C7KA C 0.5166(3) 0.2719(8) 0.2719(8) 0.7053 Uani
C7O C 0.5166(3) 0.2281(8) 0.2281(8) 0.7053 Uani
C7H C 0.4834(3) 0.2281(8) 0.2281(8) 0.7053 Uani
C8XA C 0.3137(12) 0.5000 0.3137(12) 0.6100 Uiso
C8CB C 0.3137(12) 0.1863(12) 0.0000 0.6100 Uiso
C8CA C 0.1863(12) 0.3137(12) 0.0000 0.6100 Uiso
C8HA C 0.5000 0.3137(12) 0.3137(12) 0.6100 Uiso
C8H C 0.5000 0.1863(12) 0.1863(12) 0.6100 Uiso
H3XA H 0.3290 0.5000 0.3290 0.7330 Uiso
H3CB H 0.3290 0.1710 0.0000 0.7330 Uiso
H3CA H 0.1710 0.3290 0.0000 0.7330 Uiso
H3HA H 0.5000 0.3290 0.3290 0.7330 Uiso
H3H H 0.5000 0.1710 0.1710 0.7330 Uiso
C9XA C 0.3074(6) 0.4400(9) 0.3074(6) 0.5200 Uiso
C9SB C 0.3074(6) 0.5600(9) 0.3074(6) 0.5200 Uiso
C9U C 0.1926(6) 0.5600(9) 0.1926(6) 0.5200 Uiso
C9CB C 0.3074(6) 0.1926(6) 0.0600(9) 0.5200 Uiso
C9CA C 0.1926(6) 0.3074(6) 0.0600(9) 0.5200 Uiso
C9QA C 0.1926(6) 0.3074(6) -0.0600(9) 0.5200 Uiso
C9MB C 0.3074(6) 0.1926(6) -0.0600(9) 0.5200 Uiso
C9HA C 0.4400(9) 0.3074(6) 0.3074(6) 0.5200 Uiso
C9H C 0.4400(9) 0.1926(6) 0.1926(6) 0.5200 Uiso
C9O C 0.5600(9) 0.1926(6) 0.1926(6) 0.5200 Uiso
C9KA C 0.5600(9) 0.3074(6) 0.3074(6) 0.5200 Uiso
N1U N 0.2026(10) 0.5261(15) 0.2026(10) 1.5200 Uiso
N1SB N 0.2974(10) 0.5261(15) 0.2974(10) 1.5200 Uiso
N1XA N 0.2974(10) 0.4739(15) 0.2974(10) 1.5200 Uiso
N1CB N 0.2974(10) 0.2026(10) 0.0261(15) 1.5200 Uiso
N1MB N 0.2974(10) 0.2026(10) -0.0261(15) 1.5200 Uiso
N1QA N 0.2026(10) 0.2974(10) -0.0261(15) 1.5200 Uiso
N1CA N 0.2026(10) 0.2974(10) 0.0261(15) 1.5200 Uiso
N1HA N 0.4739(15) 0.2974(10) 0.2974(10) 1.5200 Uiso
N1KA N 0.5261(15) 0.2974(10) 0.2974(10) 1.5200 Uiso
N1O N 0.5261(15) 0.2026(10) 0.2026(10) 1.5200 Uiso
N1H N 0.4739(15) 0.2026(10) 0.2026(10) 1.5200 Uiso
O1N O 0.2500 0.7500 0.2500 0.0880 Uani
O2U O 0.23117(9) 0.68034(12) 0.26883(9) 0.1783 Uani
O2SB O 0.26883(9) 0.68034(12) 0.23117(9) 0.1783 Uani
O2XA O 0.23117(9) 0.31966(12) 0.26883(9) 0.1783 Uani
O2CB O 0.26883(9) 0.26883(9) 0.18034(12) 0.1783 Uani
O2MB O 0.23117(9) 0.23117(9) -0.18034(12) 0.1783 Uani
O2QA O 0.26883(9) 0.26883(9) -0.18034(12) 0.1783 Uani
O2CA O 0.23117(9) 0.23117(9) 0.18034(12) 0.1783 Uani
O2HA O 0.31966(12) 0.26883(9) 0.23117(9) 0.1783 Uani
O2KA O 0.68034(12) 0.23117(9) 0.26883(9) 0.1783 Uani
O2O O 0.68034(12) 0.26883(9) 0.23117(9) 0.1783 Uani
O2H O 0.31966(12) 0.23117(9) 0.26883(9) 0.1783 Uani
O2IB O 0.18034(12) 0.73117(9) 0.26883(9) 0.1783 Uani
O2KC O 0.23117(9) 0.73117(9) 0.31966(12) 0.1783 Uani
O2N O 0.31966(12) 0.73117(9) 0.23117(9) 0.1783 Uani
O2NA O 0.26883(9) 0.73117(9) 0.18034(12) 0.1783 Uani
O2D O 0.23117(9) 0.26883(9) 0.31966(12) 0.1783 Uani
O2EC O 0.18034(12) 0.26883(9) 0.26883(9) 0.1783 Uani
Zn1U Zn 0.223864(15) 0.723864(15) 0.276136(15) 0.1161 Uani
Zn1N Zn 0.276136(15) 0.723864(15) 0.223864(15) 0.1161 Uani
Zn1D Zn 0.223864(15) 0.276136(15) 0.276136(15) 0.1161 Uani
Zn1H Zn 0.276136(15) 0.223864(15) 0.276136(15) 0.1161 Uani
Zn1CA Zn 0.223864(15) 0.223864(15) 0.223864(15) 0.1161 Uani
Zn1SA Zn 0.223864(15) 0.223864(15) -0.223864(15) 0.1161 Uani
Zn1L Zn 0.276136(15) 0.276136(15) -0.223864(15) 0.1161 Uani
Zn1Q Zn 0.723864(15) 0.223864(15) 0.276136(15) 0.1161 Uani
Zn1O Zn 0.723864(15) 0.276136(15) 0.223864(15) 0.1161 Uani
loop_
_atom_site_aniso_label
_atom_site_aniso_U_11
_atom_site_aniso_U_22
_atom_site_aniso_U_33
_atom_site_aniso_U_23
_atom_site_aniso_U_13
_atom_site_aniso_U_12
C1 0.220(9) 0.124(14) 0.220(9) 0.000 0.071(11) 0.000
C2 0.297(11) 0.077(11) 0.297(11) 0.000 0.073(13) 0.000
C3 0.415(13) 0.124(9) 0.415(13) -0.029(6) 0.188(12) 0.029(6)
C4 0.574(19) 0.090(9) 0.574(19) -0.023(7) 0.29(2) 0.023(7)
C5 0.44(2) 0.24(3) 0.44(2) 0.000 0.28(3) 0.000
C6 0.54(3) 0.020(8) 0.54(3) 0.000 0.17(3) 0.000
C7 1.02(6) 0.076(9) 1.02(6) 0.112(13) 0.40(6) 0.112(13)
O1 0.088(3) 0.088(3) 0.088(3) 0.000 0.000 0.000
O2 0.204(3) 0.127(4) 0.204(3) 0.008(3) 0.014(3) -0.008(3)
Zn1 0.1161(11) 0.1161(11) 0.1161(11) 0.0046(4) 0.0046(4) -0.0046(4)
C1U 0.22 0.124 0.22 0 0.071 0
C1CA 0.22 0.22 0.124 0 0 -0.071
C1QA 0.22 0.22 0.124 0 0 -0.071
C1H 0.124 0.22 0.22 0.071 0 0
C1O 0.124 0.22 0.22 0.071 0 0
C2U 0.297 0.077 0.297 0 0.073 0
C2CA 0.297 0.297 0.077 0 0 -0.073
C2QA 0.297 0.297 0.077 0 0 -0.073
C2H 0.077 0.297 0.297 0.073 0 0
C2O 0.077 0.297 0.297 0.073 0 0
C3XA 0.415 0.124 0.415 0.029 0.188 -0.029
C3U 0.415 0.124 0.415 -0.029 0.188 0.029
C3SB 0.415 0.124 0.415 0.029 0.188 -0.029
C3CB 0.415 0.415 0.124 -0.029 -0.029 -0.188
C3CA 0.415 0.415 0.124 0.029 0.029 -0.188
C3MB 0.415 0.415 0.124 -0.029 -0.029 -0.188
C3QA 0.415 0.415 0.124 0.029 0.029 -0.188
C3HA 0.124 0.415 0.415 0.188 -0.029 0.029
C3H 0.124 0.415 0.415 0.188 0.029 -0.029
C3KA 0.124 0.415 0.415 0.188 -0.029 0.029
C3O 0.124 0.415 0.415 0.188 0.029 -0.029
C4XA 0.574 0.09 0.574 0.023 0.29 -0.023
C4U 0.574 0.09 0.574 -0.023 0.29 0.023
C4SB 0.574 0.09 0.574 0.023 0.29 -0.023
C4CB 0.574 0.574 0.09 -0.023 -0.023 -0.29
C4CA 0.574 0.574 0.09 0.023 0.023 -0.29
C4MB 0.574 0.574 0.09 -0.023 -0.023 -0.29
C4QA 0.574 0.574 0.09 0.023 0.023 -0.29
C4HA 0.09 0.574 0.574 0.29 -0.023 0.023
C4H 0.09 0.574 0.574 0.29 0.023 -0.023
C4KA 0.09 0.574 0.574 0.29 -0.023 0.023
C4O 0.09 0.574 0.574 0.29 0.023 -0.023
C5U 0.44 0.24 0.44 0 0.28 0
C5CA 0.44 0.44 0.24 0 0 -0.28
C5QA 0.44 0.44 0.24 0 0 -0.28
C5H 0.24 0.44 0.44 0.28 0 0
C5O 0.24 0.44 0.44 0.28 0 0
C6U 0.54 0.02 0.54 0 0.17 0
C6CA 0.54 0.54 0.02 0 0 -0.17
C6QA 0.54 0.54 0.02 0 0 -0.17
C6H 0.02 0.54 0.54 0.17 0 0
C6O 0.02 0.54 0.54 0.17 0 0
C7U 1.02 0.076 1.02 -0.112 0.4 -0.112
C7SB 1.02 0.076 1.02 0.112 0.4 0.112
C7XA 1.02 0.076 1.02 -0.112 0.4 -0.112
C7CB 1.02 1.02 0.076 -0.112 0.112 -0.4
C7MB 1.02 1.02 0.076 0.112 -0.112 -0.4
C7QA 1.02 1.02 0.076 -0.112 0.112 -0.4
C7CA 1.02 1.02 0.076 0.112 -0.112 -0.4
C7HA 0.076 1.02 1.02 0.4 -0.112 -0.112
C7KA 0.076 1.02 1.02 0.4 0.112 0.112
C7O 0.076 1.02 1.02 0.4 -0.112 -0.112
C7H 0.076 1.02 1.02 0.4 0.112 0.112
O1N 0.088 0.088 0.088 0 0 0
O2U 0.204 0.127 0.204 0.008 0.014 -0.008
O2SB 0.204 0.127 0.204 -0.008 0.014 0.008
O2XA 0.204 0.127 0.204 -0.008 0.014 0.008
O2CB 0.204 0.204 0.127 0.008 0.008 -0.014
O2MB 0.204 0.204 0.127 0.008 0.008 -0.014
O2QA 0.204 0.204 0.127 -0.008 -0.008 -0.014
O2CA 0.204 0.204 0.127 -0.008 -0.008 -0.014
O2HA 0.127 0.204 0.204 0.014 0.008 -0.008
O2KA 0.127 0.204 0.204 0.014 0.008 -0.008
O2O 0.127 0.204 0.204 0.014 -0.008 0.008
O2H 0.127 0.204 0.204 0.014 -0.008 0.008
O2IB 0.127 0.204 0.204 0.014 0.008 -0.008
O2KC 0.204 0.204 0.127 0.008 0.008 -0.014
O2N 0.127 0.204 0.204 -0.014 0.008 0.008
O2NA 0.204 0.204 0.127 -0.008 0.008 0.014
O2D 0.204 0.204 0.127 -0.008 0.008 0.014
O2EC 0.127 0.204 0.204 -0.014 0.008 0.008
Zn1U 0.1161 0.1161 0.1161 0.0046 0.0046 -0.0046
Zn1N 0.1161 0.1161 0.1161 -0.0046 0.0046 0.0046
Zn1D 0.1161 0.1161 0.1161 -0.0046 0.0046 0.0046
Zn1H 0.1161 0.1161 0.1161 0.0046 -0.0046 0.0046
Zn1CA 0.1161 0.1161 0.1161 -0.0046 -0.0046 -0.0046
Zn1SA 0.1161 0.1161 0.1161 0.0046 0.0046 -0.0046
Zn1L 0.1161 0.1161 0.1161 -0.0046 -0.0046 -0.0046
Zn1Q 0.1161 0.1161 0.1161 0.0046 0.0046 -0.0046
Zn1O 0.1161 0.1161 0.1161 0.0046 -0.0046 0.0046
loop_
_geom_bond_atom_site_label_1
_geom_bond_atom_site_label_2
_geom_bond_site_symmetry_1
_geom_bond_site_symmetry_2
C1 C2 1_555 1_555
C2 C3 1_555 1_555
C3 H1 1_555 1_555
C4 C3 1_555 1_555
H2 C4 1_555 1_555
C5 C4 1_555 1_555
C6 C5 1_555 1_555
C7 C6 1_555 1_555
C8 H3 1_555 1_555
C9 N1 1_555 1_555
N1 C7 1_555 1_555
O1 Zn1 1_555 1_555
O2 C1 1_555 1_555
Zn1 O2 1_555 1_555
C1U C2U 1_555 1_555
C1CA C2CA 1_555 1_555
C1QA C2QA 1_555 1_555
C1H C2H 1_555 1_555
C1O C2O 1_555 1_555
C2U C3U 1_555 1_555
C2CA C3CB 1_555 1_555
C2QA C3MB 1_555 1_555
C2H C3HA 1_555 1_555
C2O C3KA 1_555 1_555
C3XA C2 1_555 1_555
C3U H1U 1_555 1_555
C3SB C2U 1_555 1_555
C3CB H1CB 1_555 1_555
C3CA C2CA 1_555 1_555
C3MB H1MB 1_555 1_555
C3QA C2QA 1_555 1_555
C3HA H1HA 1_555 1_555
C3H C2H 1_555 1_555
C3KA H1KA 1_555 1_555
C3O C2O 1_555 1_555
H1XA C3XA 1_555 1_555
H1SB C3SB 1_555 1_555
H1CA C3CA 1_555 1_555
H1QA C3QA 1_555 1_555
H1H C3H 1_555 1_555
H1O C3O 1_555 1_555
C4XA C5 1_555 1_555
C4U C3U 1_555 1_555
C4SB C3SB 1_555 1_555
C4CB C3CB 1_555 1_555
C4CA C3CA 1_555 1_555
C4MB C3MB 1_555 1_555
C4QA C3QA 1_555 1_555
C4HA C3HA 1_555 1_555
C4H C3H 1_555 1_555
C4KA C3KA 1_555 1_555
C4O C3O 1_555 1_555
H2XA C4XA 1_555 1_555
H2SB C4SB 1_555 1_555
H2U C4U 1_555 1_555
H2CB C4CB 1_555 1_555
H2CA C4CA 1_555 1_555
H2QA C4QA 1_555 1_555
H2MB C4MB 1_555 1_555
H2HA C4HA 1_555 1_555
H2H C4H 1_555 1_555
H2O C4O 1_555 1_555
H2KA C4KA 1_555 1_555
C5U C4U 1_555 1_555
C5CA C4CB 1_555 1_555
C5QA C4MB 1_555 1_555
C5H C4HA 1_555 1_555
C5O C4KA 1_555 1_555
C6U C5U 1_555 1_555
C6CA C5CA 1_555 1_555
C6QA C5QA 1_555 1_555
C6H C5H 1_555 1_555
C6O C5O 1_555 1_555
C7U C7 1_555 1_555
C7SB C6U 1_555 1_555
C7XA C6 1_555 1_555
C7CB C6CA 1_555 1_555
C7MB C6QA 1_555 1_555
C7QA C6QA 1_555 1_555
C7CA C6CA 1_555 1_555
C7HA C6H 1_555 1_555
C7KA C6O 1_555 1_555
C7O C6O 1_555 1_555
C7H C6H 1_555 1_555
C8XA H3XA 1_555 1_555
C8CB H3CB 1_555 1_555
C8CA H3CA 1_555 1_555
C8HA H3HA 1_555 1_555
C8H H3H 1_555 1_555
C9XA N1XA 1_555 1_555
C9SB N1SB 1_555 1_555
C9U N1U 1_555 1_555
C9CB N1CB 1_555 1_555
C9CA N1CA 1_555 1_555
C9QA N1QA 1_555 1_555
C9MB N1MB 1_555 1_555
C9HA N1HA 1_555 1_555
C9H N1H 1_555 1_555
C9O N1O 1_555 1_555
C9KA N1KA 1_555 1_555
N1U C8 1_555 1_555
N1SB C7SB 1_555 1_555
N1XA C7XA 1_555 1_555
N1CB C7CB 1_555 1_555
N1MB C7MB 1_555 1_555
N1QA C7QA 1_555 1_555
N1CA C7CA 1_555 1_555
N1HA C7HA 1_555 1_555
N1KA C7KA 1_555 1_555
N1O C7O 1_555 1_555
N1H C7H 1_555 1_555
O1N Zn1U 1_555 1_555
O2U C1U 1_555 1_555
O2SB C1U 1_555 1_555
O2XA C1 1_555 1_555
O2CB Zn1 1_555 1_555
O2MB C1QA 1_555 1_555
O2QA C1QA 1_555 1_555
O2CA C1CA 1_555 1_555
O2HA Zn1 1_555 1_555
O2KA C1O 1_555 1_555
O2O C1O 1_555 1_555
O2H C1H 1_555 1_555
O2IB Zn1U 1_555 1_555
O2KC Zn1U 1_555 1_555
O2N Zn1N 1_555 1_555
O2NA Zn1N 1_555 1_555
O2D Zn1D 1_555 1_555
O2EC Zn1D 1_555 1_555
Zn1U O2U 1_555 1_555
Zn1N O1N 1_555 1_555
Zn1D O1 1_555 1_555
Zn1H O1 1_555 1_555
Zn1CA O1 1_555 1_555
Zn1SA O2MB 1_555 1_555
Zn1L O2QA 1_555 1_555
Zn1Q O2KA 1_555 1_555
Zn1O O2O 1_555 1_555
C8 N1 1_555 1_555
C1CA O2CB 1_555 1_555
C1H O2HA 1_555 1_555
C3XA C4XA 1_555 1_555
C4SB C5U 1_555 1_555
C4CA C5CA 1_555 1_555
C4QA C5QA 1_555 1_555
C4H C5H 1_555 1_555
C4O C5O 1_555 1_555
C6U C7U 1_555 1_555
C7U N1U 1_555 1_555
C7SB C7XA 1_555 1_555
C7CB C7MB 1_555 1_555
C7QA C7CA 1_555 1_555
C7HA C7KA 1_555 1_555
C7O C7H 1_555 1_555
C8XA N1SB 1_555 1_555
C8XA N1XA 1_555 1_555
C8CB N1CB 1_555 1_555
C8CB N1MB 1_555 1_555
C8CA N1QA 1_555 1_555
C8CA N1CA 1_555 1_555
C8HA N1HA 1_555 1_555
C8HA N1KA 1_555 1_555
C8H N1O 1_555 1_555
C8H N1H 1_555 1_555
O2SB Zn1N 1_555 1_555
O2XA Zn1D 1_555 1_555
O2CA Zn1CA 1_555 1_555
O2H Zn1H 1_555 1_555

#END
