
#######################################################################
#
#                 Cambridge Crystallographic Data Centre
#                                CCDC 
#
#######################################################################
#
# If this CIF has been generated from an entry in the Cambridge 
# Structural Database, then it will include bibliographic, chemical, 
# crystal, experimental, refinement or atomic coordinate data resulting 
# from the CCDC's data processing and validation procedures.
#
#######################################################################

data_REZJIR
_chemical_formula_moiety         '(C12 H16 Mn2 N4 O12)n'
_symmetry_cell_setting           monoclinic
_symmetry_space_group_name_H-M   'P 21/n'
_symmetry_Int_Tables_number      14
_space_group_name_Hall           '-P 2yn'
loop_
_symmetry_equiv_pos_site_id
_symmetry_equiv_pos_as_xyz
1 x,y,z
2 1/2-x,1/2+y,1/2-z
3 -x,-y,-z
4 1/2+x,1/2-y,1/2+z
_cell_length_a                   12.332(3)
_cell_length_b                   12.461(3)
_cell_length_c                   12.850(3)
_cell_angle_alpha                90
_cell_angle_beta                 91.31(3)
_cell_angle_gamma                90
_cell_volume                     1974.13
loop_
_atom_site_label
_atom_site_type_symbol
_atom_site_fract_x
_atom_site_fract_y
_atom_site_fract_z
Mn1 Mn 0.23949(2) 0.75287(2) 0.00823(2)
Mn2 Mn 0.73998(2) 0.74768(2) 0.00685(2)
C1 C 0.48867(16) 0.78333(19) 0.00373(16)
H1 H 0.4900 0.7308 0.0551
C2 C -0.00834(16) 0.72988(19) 0.04414(18)
H2 H -0.0054 0.7993 0.0706
C3 C 0.24711(17) 0.7810(2) 0.25854(16)
H3 H 0.1994 0.8388 0.2594
C4 C 0.73572(17) 0.72935(19) 0.25561(16)
H4 H 0.7880 0.6755 0.2573
C5 C 0.78179(17) 0.99722(17) -0.02302(18)
H5 H 0.7297 0.9968 -0.0765
C6 C 0.72475(17) 0.49882(17) 0.01305(17)
H6 H 0.7851 0.5006 0.0578
O1 O 0.07757(11) 0.69195(13) 0.01836(13)
O2 O 0.27906(14) 0.75159(15) 0.17279(11)
O3 O 0.39848(11) 0.81763(13) -0.02546(12)
O4 O 0.57760(10) 0.81345(13) -0.03009(11)
O5 O 0.79963(13) 0.91219(13) 0.02088(13)
O6 O 0.68150(12) 0.58561(12) -0.00958(13)
O7 O 0.70120(14) 0.75907(15) 0.17015(11)
O8 O 0.27267(15) 0.74094(15) 0.34257(11)
O9 O -0.09929(11) 0.68830(14) 0.03988(14)
O10 O 0.69399(11) 0.40918(12) -0.01921(12)
O11 O 0.70566(13) 0.76626(14) 0.34045(11)
O12 O 0.82668(11) 1.08493(12) -0.00308(12)
Mn1B Mn 0.76051(2) 0.24713(2) -0.00823(2)
Mn1B_2 Mn 0.76051(2) 1.24713(2) -0.00823(2)
Mn1C Mn 0.73949(2) 0.74713(2) 0.50823(2)
Mn2_2 Mn -0.26002(2) 0.74768(2) 0.00685(2)
Mn2C Mn 0.23998(2) 0.75232(2) 0.50685(2)
O8C O 0.77267(15) 0.75906(15) -0.15743(11)
O9_2 O 0.90071(11) 0.68830(14) 0.03988(14)
O10B O 0.30601(11) 0.59082(12) 0.01921(12)
O11C O 0.20566(13) 0.73374(14) -0.15955(11)
O12B O 0.17332(11) 0.91507(12) 0.00308(12)
N1 N 0.02918(17) 0.54480(18) 0.30825(16)
H7 H 0.0430 0.5884 0.3587
N2 N -0.04583(16) 0.42174(17) 0.21481(16)
H8 H -0.0893 0.3718 0.1940
C7 C 0.0858(2) 0.5365(2) 0.2205(2)
H9 H 0.1462 0.5769 0.2035
C8 C 0.0397(2) 0.4598(2) 0.16248(19)
H10 H 0.0624 0.4367 0.0977
C9 C -0.0511(2) 0.4751(2) 0.3041(2)
H11 H -0.1026 0.4649 0.3549
N3 N 0.44428(16) 0.5487(2) 0.19223(17)
H12 H 0.3943 0.5695 0.1491
N4 N 0.54806(16) 0.54070(19) 0.32563(16)
H13 H 0.5780 0.5553 0.3851
C10 C 0.5102(2) 0.4642(3) 0.1784(2)
H14 H 0.5104 0.4182 0.1214
C11 C 0.5755(2) 0.4597(2) 0.2629(2)
H15 H 0.6299 0.4095 0.2757
C12 C 0.4679(2) 0.5940(2) 0.2811(2)
H16 H 0.4338 0.6540 0.3083
loop_
_geom_bond_atom_site_label_1
_geom_bond_atom_site_label_2
_geom_bond_site_symmetry_1
_geom_bond_site_symmetry_2
Mn1 O1 1_555 1_555
Mn2 O4 1_555 1_555
C1 H1 1_555 1_555
C2 H2 1_555 1_555
C3 H3 1_555 1_555
C4 H4 1_555 1_555
C5 H5 1_555 1_555
C6 H6 1_555 1_555
O1 C2 1_555 1_555
O2 Mn1 1_555 1_555
O3 Mn1 1_555 1_555
O4 C1 1_555 1_555
O5 Mn2 1_555 1_555
O6 Mn2 1_555 1_555
O7 Mn2 1_555 1_555
O8 C3 1_555 1_555
O9 C2 1_555 1_555
O10 C6 1_555 1_555
O11 C4 1_555 1_555
O12 C5 1_555 1_555
N1 H7 1_555 1_555
N2 H8 1_555 1_555
C7 N1 1_555 1_555
H9 C7 1_555 1_555
C8 N2 1_555 1_555
H10 C8 1_555 1_555
C9 N1 1_555 1_555
H11 C9 1_555 1_555
N3 H12 1_555 1_555
N4 H13 1_555 1_555
C10 N3 1_555 1_555
H14 C10 1_555 1_555
C11 N4 1_555 1_555
H15 C11 1_555 1_555
C12 N3 1_555 1_555
H16 C12 1_555 1_555
Mn1B O10 1_555 1_555
Mn1B_2 O12 1_555 1_555
Mn1C O11 1_555 1_555
Mn2_2 O9 1_555 1_555
Mn2C O8 1_555 1_555
O8C Mn2 1_555 1_555
O9_2 Mn2 1_555 1_555
O10B Mn1 1_555 1_555
O11C Mn1 1_555 1_555
O12B Mn1 1_555 1_555
C1 O3 1_555 1_555
C3 O2 1_555 1_555
C4 O7 1_555 1_555
C5 O5 1_555 1_555
C6 O6 1_555 1_555
N2 C9 1_555 1_555
C7 C8 1_555 1_555
N4 C12 1_555 1_555
C10 C11 1_555 1_555

#END
