
#######################################################################
#
#                 Cambridge Crystallographic Data Centre
#                                CCDC 
#
#######################################################################
#
# If this CIF has been generated from an entry in the Cambridge 
# Structural Database, then it will include bibliographic, chemical, 
# crystal, experimental, refinement or atomic coordinate data resulting 
# from the CCDC's data processing and validation procedures.
#
#######################################################################

data_IVESOS
_chemical_formula_moiety         '(C36 H12 O24 Ru6 3+)n'
_symmetry_cell_setting           cubic
_symmetry_space_group_name_H-M   'F m -3 m'
_symmetry_Int_Tables_number      225
_space_group_name_Hall           '-F 4 2 3'
loop_
_symmetry_equiv_pos_site_id
_symmetry_equiv_pos_as_xyz
1 x,y,z
2 -x,-y,z
3 -x,y,-z
4 x,-y,-z
5 z,x,y
6 z,-x,-y
7 -z,-x,y
8 -z,x,-y
9 y,z,x
10 -y,z,-x
11 y,-z,-x
12 -y,-z,x
13 y,x,-z
14 -y,-x,-z
15 y,-x,z
16 -y,x,z
17 x,z,-y
18 -x,z,y
19 -x,-z,-y
20 x,-z,y
21 z,y,-x
22 z,-y,x
23 -z,y,x
24 -z,-y,-x
25 x,1/2+y,1/2+z
26 -x,1/2-y,1/2+z
27 -x,1/2+y,1/2-z
28 x,1/2-y,1/2-z
29 z,1/2+x,1/2+y
30 z,1/2-x,1/2-y
31 -z,1/2-x,1/2+y
32 -z,1/2+x,1/2-y
33 y,1/2+z,1/2+x
34 -y,1/2+z,1/2-x
35 y,1/2-z,1/2-x
36 -y,1/2-z,1/2+x
37 y,1/2+x,1/2-z
38 -y,1/2-x,1/2-z
39 y,1/2-x,1/2+z
40 -y,1/2+x,1/2+z
41 x,1/2+z,1/2-y
42 -x,1/2+z,1/2+y
43 -x,1/2-z,1/2-y
44 x,1/2-z,1/2+y
45 z,1/2+y,1/2-x
46 z,1/2-y,1/2+x
47 -z,1/2+y,1/2+x
48 -z,1/2-y,1/2-x
49 1/2+x,y,1/2+z
50 1/2-x,-y,1/2+z
51 1/2-x,y,1/2-z
52 1/2+x,-y,1/2-z
53 1/2+z,x,1/2+y
54 1/2+z,-x,1/2-y
55 1/2-z,-x,1/2+y
56 1/2-z,x,1/2-y
57 1/2+y,z,1/2+x
58 1/2-y,z,1/2-x
59 1/2+y,-z,1/2-x
60 1/2-y,-z,1/2+x
61 1/2+y,x,1/2-z
62 1/2-y,-x,1/2-z
63 1/2+y,-x,1/2+z
64 1/2-y,x,1/2+z
65 1/2+x,z,1/2-y
66 1/2-x,z,1/2+y
67 1/2-x,-z,1/2-y
68 1/2+x,-z,1/2+y
69 1/2+z,y,1/2-x
70 1/2+z,-y,1/2+x
71 1/2-z,y,1/2+x
72 1/2-z,-y,1/2-x
73 1/2+x,1/2+y,z
74 1/2-x,1/2-y,z
75 1/2-x,1/2+y,-z
76 1/2+x,1/2-y,-z
77 1/2+z,1/2+x,y
78 1/2+z,1/2-x,-y
79 1/2-z,1/2-x,y
80 1/2-z,1/2+x,-y
81 1/2+y,1/2+z,x
82 1/2-y,1/2+z,-x
83 1/2+y,1/2-z,-x
84 1/2-y,1/2-z,x
85 1/2+y,1/2+x,-z
86 1/2-y,1/2-x,-z
87 1/2+y,1/2-x,z
88 1/2-y,1/2+x,z
89 1/2+x,1/2+z,-y
90 1/2-x,1/2+z,y
91 1/2-x,1/2-z,-y
92 1/2+x,1/2-z,y
93 1/2+z,1/2+y,-x
94 1/2+z,1/2-y,x
95 1/2-z,1/2+y,x
96 1/2-z,1/2-y,-x
97 -x,-y,-z
98 x,y,-z
99 x,-y,z
100 -x,y,z
101 -z,-x,-y
102 -z,x,y
103 z,x,-y
104 z,-x,y
105 -y,-z,-x
106 y,-z,x
107 -y,z,x
108 y,z,-x
109 -y,-x,z
110 y,x,z
111 -y,x,-z
112 y,-x,-z
113 -x,-z,y
114 x,-z,-y
115 x,z,y
116 -x,z,-y
117 -z,-y,x
118 -z,y,-x
119 z,-y,-x
120 z,y,x
121 -x,1/2-y,1/2-z
122 x,1/2+y,1/2-z
123 x,1/2-y,1/2+z
124 -x,1/2+y,1/2+z
125 -z,1/2-x,1/2-y
126 -z,1/2+x,1/2+y
127 z,1/2+x,1/2-y
128 z,1/2-x,1/2+y
129 -y,1/2-z,1/2-x
130 y,1/2-z,1/2+x
131 -y,1/2+z,1/2+x
132 y,1/2+z,1/2-x
133 -y,1/2-x,1/2+z
134 y,1/2+x,1/2+z
135 -y,1/2+x,1/2-z
136 y,1/2-x,1/2-z
137 -x,1/2-z,1/2+y
138 x,1/2-z,1/2-y
139 x,1/2+z,1/2+y
140 -x,1/2+z,1/2-y
141 -z,1/2-y,1/2+x
142 -z,1/2+y,1/2-x
143 z,1/2-y,1/2-x
144 z,1/2+y,1/2+x
145 1/2-x,-y,1/2-z
146 1/2+x,y,1/2-z
147 1/2+x,-y,1/2+z
148 1/2-x,y,1/2+z
149 1/2-z,-x,1/2-y
150 1/2-z,x,1/2+y
151 1/2+z,x,1/2-y
152 1/2+z,-x,1/2+y
153 1/2-y,-z,1/2-x
154 1/2+y,-z,1/2+x
155 1/2-y,z,1/2+x
156 1/2+y,z,1/2-x
157 1/2-y,-x,1/2+z
158 1/2+y,x,1/2+z
159 1/2-y,x,1/2-z
160 1/2+y,-x,1/2-z
161 1/2-x,-z,1/2+y
162 1/2+x,-z,1/2-y
163 1/2+x,z,1/2+y
164 1/2-x,z,1/2-y
165 1/2-z,-y,1/2+x
166 1/2-z,y,1/2-x
167 1/2+z,-y,1/2-x
168 1/2+z,y,1/2+x
169 1/2-x,1/2-y,-z
170 1/2+x,1/2+y,-z
171 1/2+x,1/2-y,z
172 1/2-x,1/2+y,z
173 1/2-z,1/2-x,-y
174 1/2-z,1/2+x,y
175 1/2+z,1/2+x,-y
176 1/2+z,1/2-x,y
177 1/2-y,1/2-z,-x
178 1/2+y,1/2-z,x
179 1/2-y,1/2+z,x
180 1/2+y,1/2+z,-x
181 1/2-y,1/2-x,z
182 1/2+y,1/2+x,z
183 1/2-y,1/2+x,-z
184 1/2+y,1/2-x,-z
185 1/2-x,1/2-z,y
186 1/2+x,1/2-z,-y
187 1/2+x,1/2+z,y
188 1/2-x,1/2+z,-y
189 1/2-z,1/2-y,x
190 1/2-z,1/2+y,-x
191 1/2+z,1/2-y,-x
192 1/2+z,1/2+y,x
_cell_length_a                   26.553(3)
_cell_length_b                   26.553(3)
_cell_length_c                   26.553(3)
_cell_angle_alpha                90
_cell_angle_beta                 90
_cell_angle_gamma                90
_cell_volume                     18721.5
loop_
_atom_site_label
_atom_site_type_symbol
_atom_site_fract_x
_atom_site_fract_y
_atom_site_fract_z
_atom_site_U_iso_or_equiv
_atom_site_thermal_displace_type
Ru1 Ru 0.2154 0.2154 0.0000 0.0380 Uiso
O1 O 0.1830(3) 0.2571(4) -0.0525(5) 0.0380 Uiso
C1 C 0.1765(5) 0.3235(5) -0.1075(9) 0.0380 Uiso
C2 C 0.2045(3) 0.2955(3) -0.0717(5) 0.0380 Uiso
C3 C 0.1969(9) 0.3630(8) -0.1370(8) 0.0380 Uiso
Ru1UB Ru 0.2846 0.2846 0.0000 0.0380 Uiso
Ru1WB Ru 0.7154 0.2846 0.0000 0.0380 Uiso
Ru1B Ru 0.7846 0.2154 0.0000 0.0380 Uiso
Ru1YB Ru 0.5000 0.2846 -0.2154 0.0380 Uiso
Ru1ZA Ru 0.5000 0.2154 -0.2846 0.0380 Uiso
Ru1J Ru 0.2154 -0.0000 -0.2154 0.0380 Uiso
Ru1GB Ru 0.2846 0.0000 -0.2846 0.0380 Uiso
Ru1FA Ru 0.2154 0.5000 -0.2846 0.0380 Uiso
Ru1CC Ru 0.2846 0.5000 -0.2154 0.0380 Uiso
Ru1DA Ru 0.0000 0.2846 -0.2846 0.0380 Uiso
Ru1G Ru 0.0000 0.2154 -0.2154 0.0380 Uiso
Ru1Y Ru 0.7846 0.2846 -0.5000 0.0380 Uiso
Ru1VA Ru 0.7154 0.2154 -0.5000 0.0380 Uiso
Ru1DC Ru 0.7154 0.5000 -0.2154 0.0380 Uiso
Ru1IA Ru 0.7846 0.5000 -0.2846 0.0380 Uiso
Ru1G_2 Ru 1.0000 0.2154 -0.2154 0.0380 Uiso
Ru1DA_2 Ru 1.0000 0.2846 -0.2846 0.0380 Uiso
O1UB O 0.3170(3) 0.2429(4) -0.0525(5) 0.0380 Uiso
O1ED O 0.2571(4) 0.1830(3) -0.0525(5) 0.0380 Uiso
O1XF O 0.2429(4) 0.3170(3) -0.0525(5) 0.0380 Uiso
O1GC O 0.2429(4) 0.3170(3) 0.0525(5) 0.0380 Uiso
O1SC O 0.1830(3) 0.2571(4) 0.0525(5) 0.0380 Uiso
O1L O 0.2571(4) 0.1830(3) 0.0525(5) 0.0380 Uiso
O1LF O 0.3170(3) 0.2429(4) 0.0525(5) 0.0380 Uiso
O1HC O 0.7571(4) 0.3170(3) -0.0525(5) 0.0380 Uiso
O1UC O 0.8170(3) 0.2571(4) -0.0525(5) 0.0380 Uiso
O1QC O 0.5525(5) 0.2429(4) -0.1830(3) 0.0380 Uiso
O1RB O 0.5525(5) 0.2571(4) -0.3170(3) 0.0380 Uiso
O1PF O 0.5525(5) 0.3170(3) -0.2571(4) 0.0380 Uiso
O1YB O 0.4475(5) 0.3170(3) -0.2571(4) 0.0380 Uiso
O1KF O 0.4475(5) 0.2571(4) -0.3170(3) 0.0380 Uiso
O1ZA O 0.4475(5) 0.1830(3) -0.2429(4) 0.0380 Uiso
O1HG O 0.4475(5) 0.2429(4) -0.1830(3) 0.0380 Uiso
O1J O 0.2571(4) 0.0525(5) -0.1830(3) 0.0380 Uiso
O1DF O 0.3170(3) 0.0525(5) -0.2429(4) 0.0380 Uiso
O1SE O 0.5525(5) 0.1830(3) -0.2429(4) 0.0380 Uiso
O1CC O 0.2429(4) 0.4475(5) -0.1830(3) 0.0380 Uiso
O1HE O 0.1830(3) 0.4475(5) -0.2429(4) 0.0380 Uiso
O1DA O 0.0525(5) 0.3170(3) -0.2429(4) 0.0380 Uiso
O1MD O 0.0525(5) 0.2571(4) -0.1830(3) 0.0380 Uiso
O1KA O 0.7429(4) 0.3170(3) -0.4475(5) 0.0380 Uiso
O1OE O 0.6830(3) 0.2571(4) -0.4475(5) 0.0380 Uiso
O1JC O 0.6830(3) 0.4475(5) -0.2571(4) 0.0380 Uiso
O1ZD O 0.7429(4) 0.4475(5) -0.3170(3) 0.0380 Uiso
O1OA O 0.8170(3) 0.4475(5) -0.2429(4) 0.0380 Uiso
O1WF O 0.7571(4) 0.4475(5) -0.1830(3) 0.0380 Uiso
O1T O 0.9475(5) 0.2571(4) -0.1830(3) 0.0380 Uiso
O1WD O 0.9475(5) 0.3170(3) -0.2429(4) 0.0380 Uiso
O1DC O 0.7571(4) 0.5525(5) -0.1830(3) 0.0380 Uiso
O1CG O 0.6830(3) 0.5525(5) -0.2571(4) 0.0380 Uiso
O1IA O 0.7429(4) 0.5525(5) -0.3170(3) 0.0380 Uiso
O1FE O 0.8170(3) 0.5525(5) -0.2429(4) 0.0380 Uiso
C1ZA C 0.3925(9) 0.1765(5) -0.1765(5) 0.0380 Uiso
C1UB C 0.3235(5) 0.1765(5) -0.1075(9) 0.0380 Uiso
C1J C 0.3235(5) 0.1075(9) -0.1765(5) 0.0380 Uiso
C1CC C 0.1765(5) 0.3925(9) -0.1765(5) 0.0380 Uiso
C1DA C 0.1075(9) 0.3235(5) -0.1765(5) 0.0380 Uiso
C1RB C 0.6075(9) 0.3235(5) -0.3235(5) 0.0380 Uiso
C1HC C 0.8235(5) 0.3235(5) -0.1075(9) 0.0380 Uiso
C1KA C 0.6765(5) 0.3235(5) -0.3925(9) 0.0380 Uiso
C1JC C 0.6765(5) 0.3925(9) -0.3235(5) 0.0380 Uiso
C1OA C 0.8235(5) 0.3925(9) -0.1765(5) 0.0380 Uiso
C1T C 0.8925(9) 0.3235(5) -0.1765(5) 0.0380 Uiso
C2UB C 0.2955(3) 0.2045(3) -0.0717(5) 0.0380 Uiso
C2HC C 0.7955(3) 0.2955(3) -0.0717(5) 0.0380 Uiso
C2RB C 0.5717(5) 0.2955(3) -0.2955(3) 0.0380 Uiso
C2ZA C 0.4283(5) 0.2045(3) -0.2045(3) 0.0380 Uiso
C2J C 0.2955(3) 0.0717(5) -0.2045(3) 0.0380 Uiso
C2CC C 0.2045(3) 0.4283(5) -0.2045(3) 0.0380 Uiso
C2DA C 0.0717(5) 0.2955(3) -0.2045(3) 0.0380 Uiso
C2KA C 0.7045(3) 0.2955(3) -0.4283(5) 0.0380 Uiso
C2JC C 0.7045(3) 0.4283(5) -0.2955(3) 0.0380 Uiso
C2OA C 0.7955(3) 0.4283(5) -0.2045(3) 0.0380 Uiso
C2T C 0.9283(5) 0.2955(3) -0.2045(3) 0.0380 Uiso
C3ZA C 0.3630(8) 0.1969(9) -0.1370(8) 0.0380 Uiso
C3UB C 0.3031(9) 0.1370(8) -0.1370(8) 0.0380 Uiso
C3J C 0.3630(8) 0.1370(8) -0.1969(9) 0.0380 Uiso
C3CC C 0.1370(8) 0.3630(8) -0.1969(9) 0.0380 Uiso
C3DA C 0.1370(8) 0.3031(9) -0.1370(8) 0.0380 Uiso
C3KA C 0.6370(8) 0.3031(9) -0.3630(8) 0.0380 Uiso
C3RB C 0.6370(8) 0.3630(8) -0.3031(9) 0.0380 Uiso
C3OA C 0.8031(9) 0.3630(8) -0.1370(8) 0.0380 Uiso
C3HC C 0.8630(8) 0.3031(9) -0.1370(8) 0.0380 Uiso
C3JC C 0.6969(9) 0.3630(8) -0.3630(8) 0.0380 Uiso
C3T C 0.8630(8) 0.3630(8) -0.1969(9) 0.0380 Uiso
loop_
_geom_bond_atom_site_label_1
_geom_bond_atom_site_label_2
_geom_bond_site_symmetry_1
_geom_bond_site_symmetry_2
Ru1 O1 1_555 1_555
O1 C2 1_555 1_555
C1 C2 1_555 1_555
C2 O1XF 1_555 1_555
C3 C1 1_555 1_555
Ru1UB Ru1 1_555 1_555
Ru1WB Ru1B 1_555 1_555
Ru1B O1UC 1_555 1_555
Ru1YB Ru1ZA 1_555 1_555
Ru1ZA O1RB 1_555 1_555
Ru1J Ru1GB 1_555 1_555
Ru1GB O1DF 1_555 1_555
Ru1FA Ru1CC 1_555 1_555
Ru1CC O1CC 1_555 1_555
Ru1DA Ru1G 1_555 1_555
Ru1G O1MD 1_555 1_555
Ru1Y Ru1VA 1_555 1_555
Ru1VA O1OE 1_555 1_555
Ru1DC Ru1IA 1_555 1_555
Ru1IA O1ZD 1_555 1_555
Ru1G_2 Ru1DA_2 1_555 1_555
Ru1DA_2 O1WD 1_555 1_555
O1UB Ru1UB 1_555 1_555
O1ED Ru1 1_555 1_555
O1XF Ru1UB 1_555 1_555
O1GC Ru1UB 1_555 1_555
O1SC Ru1 1_555 1_555
O1L Ru1 1_555 1_555
O1LF Ru1UB 1_555 1_555
O1HC Ru1WB 1_555 1_555
O1UC C2HC 1_555 1_555
O1QC Ru1YB 1_555 1_555
O1RB C2RB 1_555 1_555
O1PF Ru1YB 1_555 1_555
O1YB Ru1YB 1_555 1_555
O1KF Ru1ZA 1_555 1_555
O1ZA Ru1ZA 1_555 1_555
O1HG Ru1YB 1_555 1_555
O1J Ru1J 1_555 1_555
O1DF C2J 1_555 1_555
O1SE Ru1ZA 1_555 1_555
O1CC C2CC 1_555 1_555
O1HE Ru1FA 1_555 1_555
O1DA Ru1DA 1_555 1_555
O1MD C2DA 1_555 1_555
O1KA Ru1Y 1_555 1_555
O1OE C2KA 1_555 1_555
O1JC Ru1DC 1_555 1_555
O1ZD C2JC 1_555 1_555
O1OA Ru1IA 1_555 1_555
O1WF Ru1DC 1_555 1_555
O1T Ru1G_2 1_555 1_555
O1WD C2T 1_555 1_555
O1DC Ru1DC 1_555 1_555
O1CG Ru1DC 1_555 1_555
O1IA Ru1IA 1_555 1_555
O1FE Ru1IA 1_555 1_555
C1ZA C2ZA 1_555 1_555
C1UB C2UB 1_555 1_555
C1J C2J 1_555 1_555
C1CC C3 1_555 1_555
C1DA C2DA 1_555 1_555
C1RB C2RB 1_555 1_555
C1HC C2HC 1_555 1_555
C1KA C2KA 1_555 1_555
C1JC C2JC 1_555 1_555
C1OA C2OA 1_555 1_555
C1T C2T 1_555 1_555
C2UB O1UB 1_555 1_555
C2HC O1HC 1_555 1_555
C2RB O1PF 1_555 1_555
C2ZA O1ZA 1_555 1_555
C2J O1J 1_555 1_555
C2CC O1HE 1_555 1_555
C2DA O1DA 1_555 1_555
C2KA O1KA 1_555 1_555
C2JC O1JC 1_555 1_555
C2OA O1OA 1_555 1_555
C2T O1T 1_555 1_555
C3ZA C1ZA 1_555 1_555
C3UB C1UB 1_555 1_555
C3J C1ZA 1_555 1_555
C3CC C1CC 1_555 1_555
C3DA C1 1_555 1_555
C3KA C1RB 1_555 1_555
C3RB C1RB 1_555 1_555
C3OA C1HC 1_555 1_555
C3HC C1HC 1_555 1_555
C3JC C1KA 1_555 1_555
C3T C1OA 1_555 1_555
O1ED C2UB 1_555 1_555
O1HG C2ZA 1_555 1_555
O1WF C2OA 1_555 1_555
C1UB C3ZA 1_555 1_555
C1J C3UB 1_555 1_555
C1J C3J 1_555 1_555
C1CC C2CC 1_555 1_555
C1DA C3CC 1_555 1_555
C1DA C3DA 1_555 1_555
C1KA C3KA 1_555 1_555
C1JC C3RB 1_555 1_555
C1JC C3JC 1_555 1_555
C1OA C3OA 1_555 1_555
C1T C3HC 1_555 1_555
C1T C3T 1_555 1_555

#END
