
#######################################################################
#
#                 Cambridge Crystallographic Data Centre
#                                CCDC 
#
#######################################################################
#
# If this CIF has been generated from an entry in the Cambridge 
# Structural Database, then it will include bibliographic, chemical, 
# crystal, experimental, refinement or atomic coordinate data resulting 
# from the CCDC's data processing and validation procedures.
#
#######################################################################

data_OTUDIS
_chemical_formula_moiety         '(C33 H23 K1 Mn3 Na1 O22)n'
_symmetry_cell_setting           hexagonal
_symmetry_space_group_name_H-M   'P 63'
_symmetry_Int_Tables_number      173
_space_group_name_Hall           'P 6c'
loop_
_symmetry_equiv_pos_site_id
_symmetry_equiv_pos_as_xyz
1 x,y,z
2 -y,x-y,z
3 -x+y,-x,z
4 -x,-y,1/2+z
5 y,-x+y,1/2+z
6 x-y,x,1/2+z
_cell_length_a                   20.4489(4)
_cell_length_b                   20.4489(4)
_cell_length_c                   10.3928(2)
_cell_angle_alpha                90
_cell_angle_beta                 90
_cell_angle_gamma                120
_cell_volume                     3763.6
loop_
_atom_site_label
_atom_site_type_symbol
_atom_site_fract_x
_atom_site_fract_y
_atom_site_fract_z
Mn1 Mn 0.619506(18) 0.165154(18) 0.49100(4)
O1 O 0.42414(9) -0.24126(9) 0.00266(19)
O2 O 0.51577(10) -0.09578(9) -0.03017(17)
C1 C 0.61570(15) 0.15359(16) -0.2243(3)
C2 C 0.55401(12) -0.01812(11) -0.0119(3)
C3 C 0.49281(15) -0.21958(13) 0.0116(2)
C4 C 0.56942(16) 0.02681(15) -0.1197(2)
H1 H 0.5587 0.0051 -0.2012
O3 O 0.63410(13) 0.19155(11) 0.27162(18)
O4 O 0.51966(12) -0.26258(10) 0.0176(2)
C5 C 0.57133(15) 0.01291(15) 0.1102(2)
H2 H 0.5616 -0.0177 0.1821
C6 C 0.61766(14) 0.12377(13) 0.2565(2)
C7 C 0.61814(15) 0.13620(14) 0.0157(2)
H3 H 0.6396 0.1881 0.0256
C8 C 0.60130(15) 0.10543(15) -0.1061(2)
O5 O 0.59863(14) 0.11666(12) -0.32943(19)
C9 C 0.60371(14) 0.09113(14) 0.1238(2)
O6 O 0.61036(12) 0.08228(10) 0.35168(16)
O7 O 0.64123(15) 0.22165(12) -0.2125(2)
C10 C 0.54985(18) -0.13601(16) 0.0227(5)
H4 H 0.5488 -0.1271 0.1152
C11 C 0.6260(4) -0.1130(4) 0.0026(9)
H5 H 0.6560 -0.0594 0.0140
H6 H 0.6326 -0.1261 -0.0832
H7 H 0.6416 -0.1379 0.0633
Na1 Na 0.3333 -0.3333 0.17752(14)
K1 K 0.6667 0.3333 0.26643(9)
O8 O 0.6667 0.3333 0.0019(5)
Mn1A Mn -0.165154(18) -0.545648(25) 0.49100(4)
O1A O 0.24126(9) -0.33460(13) 0.00266(19)
O2A O 0.09578(9) -0.38845(13) -0.03017(17)
C1A C -0.15359(16) -0.53789(22) -0.2243(3)
C2A C 0.01812(11) -0.42787(16) -0.0119(3)
C3A C 0.21958(13) -0.28761(20) 0.0116(2)
C4A C -0.02681(15) -0.45739(22) -0.1197(2)
H1A H -0.0051 -0.4464 -0.2012
O3A O -0.19155(11) -0.55745(17) 0.27162(18)
O4A O 0.26258(10) -0.21776(16) 0.0176(2)
C5A C -0.01291(15) -0.44158(21) 0.1102(2)
H2A H 0.0177 -0.4207 0.1821
C6A C -0.12377(13) -0.50611(19) 0.2565(2)
C7A C -0.13620(14) -0.51806(21) 0.0157(2)
H3A H -0.1881 -0.5485 0.0256
C8A C -0.10543(15) -0.50413(21) -0.1061(2)
O5A O -0.11666(12) -0.51803(18) -0.32943(19)
C9A C -0.09113(14) -0.48742(20) 0.1238(2)
O6A O -0.08228(10) -0.47192(16) 0.35168(16)
O7A O -0.22165(12) -0.58042(19) -0.2125(2)
C10A C 0.13601(16) -0.31414(24) 0.0227(5)
H4A H 0.1271 -0.3241 0.1152
C11A C 0.1130(4) -0.2610(6) 0.0026(9)
H5A H 0.0594 -0.2846 0.0140
H6A H 0.1261 -0.2413 -0.0832
H7A H 0.1379 -0.2205 0.0633
Mn1B Mn 0.545648(25) -0.619506(18) 0.49100(4)
O1B O 0.33460(13) -0.42414(9) 0.00266(19)
O2B O 0.38845(13) -0.51577(10) -0.03017(17)
C1B C 0.53789(22) -0.61570(15) -0.2243(3)
C2B C 0.42787(16) -0.55401(12) -0.0119(3)
C3B C 0.28761(20) -0.49281(15) 0.0116(2)
C4B C 0.45739(22) -0.56942(16) -0.1197(2)
H1B H 0.4464 -0.5587 -0.2012
O3B O 0.55745(17) -0.63410(13) 0.27162(18)
O4B O 0.21776(16) -0.51966(12) 0.0176(2)
C5B C 0.44158(21) -0.57133(15) 0.1102(2)
H2B H 0.4207 -0.5616 0.1821
C6B C 0.50611(19) -0.61766(14) 0.2565(2)
C7B C 0.51806(21) -0.61814(15) 0.0157(2)
H3B H 0.5485 -0.6396 0.0256
C8B C 0.50413(21) -0.60130(15) -0.1061(2)
O5B O 0.51803(18) -0.59863(14) -0.32943(19)
C9B C 0.48742(20) -0.60371(14) 0.1238(2)
O6B O 0.47192(16) -0.61036(12) 0.35168(16)
O7B O 0.58042(19) -0.64123(15) -0.2125(2)
C10B C 0.31414(24) -0.54985(18) 0.0227(5)
H4B H 0.3241 -0.5488 0.1152
C11B C 0.2610(6) -0.6260(4) 0.0026(9)
H5B H 0.2846 -0.6560 0.0140
H6B H 0.2413 -0.6326 -0.0832
H7B H 0.2205 -0.6416 0.0633
Mn1_2 Mn 0.619506(18) 0.165154(18) -0.50900(4)
Mn1A_2 Mn -0.165154(18) -0.545648(25) -0.50900(4)
Mn1B_2 Mn 0.545648(25) -0.619506(18) -0.50900(4)
Mn1C Mn 0.380494(18) -0.165154(18) -0.00900(4)
Mn1D Mn 0.165154(18) -0.454352(25) -0.00900(4)
Mn1E Mn 0.454352(25) -0.380494(18) -0.00900(4)
O1C O 0.57586(9) 0.24126(9) 0.50266(19)
O1D O -0.24126(9) -0.66540(13) 0.50266(19)
O1D_2 O 0.75874(9) 0.33460(13) 0.50266(19)
O1E O 0.66540(13) -0.57586(9) 0.50266(19)
O1E_2 O 0.66540(13) 0.42414(9) 0.50266(19)
O2C O 0.48423(10) 0.09578(9) 0.46983(17)
O2D O -0.09578(9) -0.61155(13) 0.46983(17)
O2E O 0.61155(13) -0.48423(10) 0.46983(17)
O3A_2 O 0.80845(11) 0.44255(17) 0.27162(18)
O3B_2 O 0.55745(17) 0.36590(13) 0.27162(18)
O4C O 0.48034(12) -0.73742(10) 0.5176(2)
O4D O 0.73742(10) 0.21776(16) 0.5176(2)
O4E O -0.21776(16) -0.48034(12) 0.5176(2)
O5_2 O 0.59863(14) 0.11666(12) 0.67057(19)
O5A_2 O -0.11666(12) -0.51803(18) 0.67057(19)
O5B_2 O 0.51803(18) -0.59863(14) 0.67057(19)
O7C O 0.35877(15) -0.22165(12) 0.2875(2)
O7D O 0.22165(12) -0.41958(19) 0.2875(2)
O7E O 0.41958(19) -0.35877(15) 0.2875(2)
Na1C Na -0.3333 -0.6667 -0.32248(14)
Na1C_2 Na 0.6667 -0.6667 -0.32248(14)
Na1C_3 Na 0.6667 0.3333 -0.32248(14)
K1_2 K -0.3333 -0.6667 0.26643(9)
K1_3 K 0.6667 -0.6667 0.26643(9)
K1C K 0.3333 -0.3333 -0.23357(9)
loop_
_geom_bond_atom_site_label_1
_geom_bond_atom_site_label_2
_geom_bond_site_symmetry_1
_geom_bond_site_symmetry_2
Mn1 O3 1_555 1_555
O1 C3 1_555 1_555
O2 C2 1_555 1_555
C1 C8 1_555 1_555
C2 C4 1_555 1_555
C3 O4 1_555 1_555
C4 H1 1_555 1_555
O3 C6 1_555 1_555
O4 Mn1E 1_555 1_555
C5 C2 1_555 1_555
H2 C5 1_555 1_555
C6 C9 1_555 1_555
C7 H3 1_555 1_555
C8 C4 1_555 1_555
O5 C1 1_555 1_555
C9 C5 1_555 1_555
O6 Mn1 1_555 1_555
O7 C1 1_555 1_555
C10 O2 1_555 1_555
H4 C10 1_555 1_555
C11 C10 1_555 1_555
H5 C11 1_555 1_555
H6 C11 1_555 1_555
H7 C11 1_555 1_555
Na1 O1 1_555 1_555
K1 O3 1_555 1_555
O8 K1 1_555 1_555
Mn1A O3A 1_555 1_555
O1A Na1 1_555 1_555
O2A C2A 1_555 1_555
C1A C8A 1_555 1_555
C2A C4A 1_555 1_555
C3A O1A 1_555 1_555
C4A H1A 1_555 1_555
O3A C6A 1_555 1_555
O4A C3A 1_555 1_555
C5A C2A 1_555 1_555
H2A C5A 1_555 1_555
C6A C9A 1_555 1_555
C7A H3A 1_555 1_555
C8A C4A 1_555 1_555
O5A C1A 1_555 1_555
C9A C5A 1_555 1_555
O6A Mn1A 1_555 1_555
O7A C1A 1_555 1_555
C10A O2A 1_555 1_555
H4A C10A 1_555 1_555
C11A C10A 1_555 1_555
H5A C11A 1_555 1_555
H6A C11A 1_555 1_555
H7A C11A 1_555 1_555
Mn1B O3B 1_555 1_555
O1B Na1 1_555 1_555
O2B C2B 1_555 1_555
C1B C8B 1_555 1_555
C2B C4B 1_555 1_555
C3B O1B 1_555 1_555
C4B H1B 1_555 1_555
O3B C6B 1_555 1_555
O4B C3B 1_555 1_555
C5B C2B 1_555 1_555
H2B C5B 1_555 1_555
C6B C9B 1_555 1_555
C7B H3B 1_555 1_555
C8B C4B 1_555 1_555
O5B C1B 1_555 1_555
C9B C5B 1_555 1_555
O6B Mn1B 1_555 1_555
O7B C1B 1_555 1_555
C10B O2B 1_555 1_555
H4B C10B 1_555 1_555
C11B C10B 1_555 1_555
H5B C11B 1_555 1_555
H6B C11B 1_555 1_555
H7B C11B 1_555 1_555
Mn1_2 O5 1_555 1_555
Mn1A_2 O5A 1_555 1_555
Mn1B_2 O5B 1_555 1_555
Mn1C O1 1_555 1_555
Mn1D O1A 1_555 1_555
Mn1E O1B 1_555 1_555
O1C Mn1 1_555 1_555
O1D Mn1A 1_555 1_555
O1D_2 K1 1_555 1_555
O1E Mn1B 1_555 1_555
O1E_2 K1 1_555 1_555
O2C Mn1 1_555 1_555
O2D Mn1A 1_555 1_555
O2E Mn1B 1_555 1_555
O3A_2 K1 1_555 1_555
O3B_2 K1 1_555 1_555
O4C Mn1B 1_555 1_555
O4D Mn1 1_555 1_555
O4E Mn1A 1_555 1_555
O5_2 Mn1 1_555 1_555
O5A_2 Mn1A 1_555 1_555
O5B_2 Mn1B 1_555 1_555
O7C Na1 1_555 1_555
O7D Na1 1_555 1_555
O7E Na1 1_555 1_555
Na1C O7A 1_555 1_555
Na1C_2 O7B 1_555 1_555
Na1C_3 O7 1_555 1_555
K1_2 O3A 1_555 1_555
K1_3 O3B 1_555 1_555
K1C O1 1_555 1_555
O2 Mn1C 1_555 1_555
C3 C10 1_555 1_555
C6 O6 1_555 1_555
C7 C8 1_555 1_555
C7 C9 1_555 1_555
K1 O1C 1_555 1_555
O1A K1C 1_555 1_555
O2A Mn1D 1_555 1_555
C3A C10A 1_555 1_555
O4A Mn1C 1_555 1_555
C6A O6A 1_555 1_555
C7A C8A 1_555 1_555
C7A C9A 1_555 1_555
O1B K1C 1_555 1_555
O2B Mn1E 1_555 1_555
C3B C10B 1_555 1_555
O4B Mn1D 1_555 1_555
C6B O6B 1_555 1_555
C7B C8B 1_555 1_555
C7B C9B 1_555 1_555
O1D K1_2 1_555 1_555
O1E K1_3 1_555 1_555

#END
