
#######################################################################
#
#                 Cambridge Crystallographic Data Centre
#                                CCDC 
#
#######################################################################
#
# If this CIF has been generated from an entry in the Cambridge 
# Structural Database, then it will include bibliographic, chemical, 
# crystal, experimental, refinement or atomic coordinate data resulting 
# from the CCDC's data processing and validation procedures.
#
#######################################################################

data_OTUDEO
_chemical_formula_moiety         '(C33 H23 K1 Mn3 Na1 O22)n'
_symmetry_cell_setting           hexagonal
_symmetry_space_group_name_H-M   'P 63'
_symmetry_Int_Tables_number      173
_space_group_name_Hall           'P 6c'
loop_
_symmetry_equiv_pos_site_id
_symmetry_equiv_pos_as_xyz
1 x,y,z
2 -y,x-y,z
3 -x+y,-x,z
4 -x,-y,1/2+z
5 y,-x+y,1/2+z
6 x-y,x,1/2+z
_cell_length_a                   20.4751(3)
_cell_length_b                   20.4751(3)
_cell_length_c                   10.4075(2)
_cell_angle_alpha                90
_cell_angle_beta                 90
_cell_angle_gamma                120
_cell_volume                     3778.58
loop_
_atom_site_label
_atom_site_type_symbol
_atom_site_fract_x
_atom_site_fract_y
_atom_site_fract_z
Mn1 Mn 0.379716(18) 0.834658(18) 0.71282(4)
O1 O 0.42351(9) 0.75904(8) 0.69959(19)
C1 C 0.49204(14) 0.78096(13) 0.6910(2)
O2 O 0.51925(12) 0.73846(10) 0.6863(2)
O3 O 0.51498(10) 0.90452(9) 0.73422(16)
C2 C 0.61539(14) 1.15371(15) 0.9276(3)
C3 C 0.60076(15) 1.10543(14) 0.8090(2)
O4 O 0.63338(13) 1.19156(11) 0.43195(19)
C4 C 0.56827(16) 1.02725(15) 0.8225(2)
H1 H 0.5570 1.0057 0.9040
C5 C 0.57070(15) 1.01362(15) 0.5929(2)
H2 H 0.5610 0.9831 0.5210
C6 C 0.55295(12) 0.98215(11) 0.7158(3)
C7 C 0.60310(15) 1.09121(14) 0.5797(2)
C8 C 0.61721(15) 1.13651(13) 0.6875(2)
H3 H 0.6380 1.1883 0.6775
O5 O 0.59971(13) 1.11777(12) 1.03277(18)
C9 C 0.61775(14) 1.12455(13) 0.4478(3)
O6 O 0.61117(12) 1.08281(11) 0.35269(17)
O7 O 0.64057(14) 1.22188(12) 0.9158(2)
C10 C 0.54854(17) 0.86457(16) 0.6784(5)
H4 H 0.5476 0.8738 0.5863
C11 C 0.6262(4) 0.8876(4) 0.7013(8)
H5 H 0.6566 0.9412 0.6895
H6 H 0.6420 0.8623 0.6421
H7 H 0.6320 0.8749 0.7877
Na1 Na 0.6667 1.3333 1.02826(16)
K1 K 0.3333 0.6667 0.93620(10)
O8 O 0.3333 0.6667 1.2035(5)
Mn1A Mn 0.165342(18) 0.545058(25) 0.71282(4)
O1A O 0.24096(8) 0.66447(12) 0.69959(19)
C1A C 0.21904(13) 0.71108(19) 0.6910(2)
O2A O 0.26154(10) 0.78079(16) 0.6863(2)
O3A O 0.09548(9) 0.61046(13) 0.73422(16)
C2A C -0.15371(15) 0.46168(21) 0.9276(3)
C3A C -0.10543(14) 0.49533(21) 0.8090(2)
O4A O -0.19156(11) 0.44182(17) 0.43195(19)
C4A C -0.02725(15) 0.54102(22) 0.8225(2)
H1A H -0.0057 0.5513 0.9040
C5A C -0.01362(15) 0.55708(21) 0.5929(2)
H2A H 0.0169 0.5779 0.5210
C6A C 0.01785(11) 0.57080(16) 0.7158(3)
C7A C -0.09121(14) 0.51189(21) 0.5797(2)
C8A C -0.13651(13) 0.48070(20) 0.6875(2)
H3A H -0.1883 0.4497 0.6775
O5A O -0.11777(12) 0.48194(18) 1.03277(18)
C9A C -0.12455(13) 0.49320(19) 0.4478(3)
O6A O -0.08281(11) 0.52836(16) 0.35269(17)
O7A O -0.22188(12) 0.41869(18) 0.9158(2)
C10A C 0.13543(16) 0.68397(23) 0.6784(5)
H4A H 0.1262 0.6738 0.5863
C11A C 0.1124(4) 0.7386(6) 0.7013(8)
H5A H 0.0588 0.7154 0.6895
H6A H 0.1377 0.7797 0.6421
H7A H 0.1251 0.7571 0.7877
Mn1B Mn 0.454942(25) 0.620284(18) 0.71282(4)
O1B O 0.33553(12) 0.57649(9) 0.69959(19)
C1B C 0.28892(19) 0.50796(14) 0.6910(2)
O2B O 0.21921(16) 0.48075(12) 0.6863(2)
O3B O 0.38954(13) 0.48502(10) 0.73422(16)
C2B C 0.53832(21) 0.38461(14) 0.9276(3)
C3B C 0.50467(21) 0.39924(15) 0.8090(2)
O4B O 0.55818(17) 0.36662(13) 0.43195(19)
C4B C 0.45898(22) 0.43173(16) 0.8225(2)
H1B H 0.4487 0.4430 0.9040
C5B C 0.44292(21) 0.42930(15) 0.5929(2)
H2B H 0.4221 0.4390 0.5210
C6B C 0.42920(16) 0.44705(12) 0.7158(3)
C7B C 0.48811(21) 0.39690(15) 0.5797(2)
C8B C 0.51930(20) 0.38279(15) 0.6875(2)
H3B H 0.5503 0.3620 0.6775
O5B O 0.51806(18) 0.40029(13) 1.03277(18)
C9B C 0.50680(19) 0.38225(14) 0.4478(3)
O6B O 0.47164(16) 0.38883(12) 0.35269(17)
O7B O 0.58131(18) 0.35943(14) 0.9158(2)
C10B C 0.31603(23) 0.45146(17) 0.6784(5)
H4B H 0.3262 0.4524 0.5863
C11B C 0.2614(6) 0.3738(4) 0.7013(8)
H5B H 0.2846 0.3434 0.6895
H6B H 0.2203 0.3580 0.6421
H7B H 0.2429 0.3680 0.7877
Mn1C Mn 0.620284(18) 1.165342(18) 0.21282(4)
Mn1C_2 Mn 0.620284(18) 1.165342(18) 1.21282(4)
Mn1D Mn -0.165342(18) 0.454942(25) 0.21282(4)
Mn1D_2 Mn -0.165342(18) 0.454942(25) 1.21282(4)
Mn1E Mn 0.545058(25) 0.379716(18) 0.21282(4)
Mn1E_2 Mn 0.545058(25) 0.379716(18) 1.21282(4)
O1C O 0.57649(9) 1.24096(8) 1.19959(19)
O1D O 0.75904(8) 1.33553(12) 1.19959(19)
O1E O 0.66447(12) 1.42351(9) 1.19959(19)
O4C O 0.36662(13) 0.80844(11) 0.93195(19)
O4D O 0.19156(11) 0.55818(17) 0.93195(19)
O4E O 0.44182(17) 0.63338(13) 0.93195(19)
O5C O 0.40029(13) 0.88223(12) 0.53277(18)
O5D O 0.11777(12) 0.51806(18) 0.53277(18)
O5E O 0.48194(18) 0.59971(13) 0.53277(18)
O6C O 0.38883(12) 0.91719(11) 0.85269(17)
O6D O 0.08281(11) 0.47164(16) 0.85269(17)
O6E O 0.52836(16) 0.61117(12) 0.85269(17)
O7A_2 O 0.77812(12) 1.41869(18) 0.9158(2)
O7B_2 O 0.58131(18) 1.35943(14) 0.9158(2)
Na1_2 Na -0.3333 0.3333 1.02826(16)
Na1_3 Na 0.6667 0.3333 1.02826(16)
Na1C Na 0.3333 0.6667 0.52826(16)
K1C K -0.3333 0.3333 0.43620(10)
K1C_2 K 0.6667 0.3333 0.43620(10)
K1C_3 K 0.6667 1.3333 0.43620(10)
loop_
_geom_bond_atom_site_label_1
_geom_bond_atom_site_label_2
_geom_bond_site_symmetry_1
_geom_bond_site_symmetry_2
Mn1 O1 1_555 1_555
O1 C1 1_555 1_555
C1 O2 1_555 1_555
O2 Mn1B 1_555 1_555
O3 Mn1 1_555 1_555
C2 C3 1_555 1_555
C3 C4 1_555 1_555
O4 C9 1_555 1_555
C4 H1 1_555 1_555
C5 H2 1_555 1_555
C6 O3 1_555 1_555
C7 C5 1_555 1_555
C8 C3 1_555 1_555
H3 C8 1_555 1_555
O5 C2 1_555 1_555
C9 C7 1_555 1_555
O6 C9 1_555 1_555
O7 C2 1_555 1_555
C10 C1 1_555 1_555
H4 C10 1_555 1_555
C11 C10 1_555 1_555
H5 C11 1_555 1_555
H6 C11 1_555 1_555
H7 C11 1_555 1_555
Na1 O7 1_555 1_555
K1 O1 1_555 1_555
O8 K1 1_555 1_555
Mn1A O1A 1_555 1_555
O1A K1 1_555 1_555
C1A O1A 1_555 1_555
O2A Mn1 1_555 1_555
O3A Mn1A 1_555 1_555
C2A C3A 1_555 1_555
C3A C4A 1_555 1_555
O4A C9A 1_555 1_555
C4A H1A 1_555 1_555
C5A H2A 1_555 1_555
C6A O3A 1_555 1_555
C7A C5A 1_555 1_555
C8A C3A 1_555 1_555
H3A C8A 1_555 1_555
O5A C2A 1_555 1_555
C9A C7A 1_555 1_555
O6A C9A 1_555 1_555
O7A C2A 1_555 1_555
C10A C1A 1_555 1_555
H4A C10A 1_555 1_555
C11A C10A 1_555 1_555
H5A C11A 1_555 1_555
H6A C11A 1_555 1_555
H7A C11A 1_555 1_555
Mn1B O1B 1_555 1_555
O1B K1 1_555 1_555
C1B O1B 1_555 1_555
O2B Mn1A 1_555 1_555
O3B Mn1B 1_555 1_555
C2B C3B 1_555 1_555
C3B C4B 1_555 1_555
O4B C9B 1_555 1_555
C4B H1B 1_555 1_555
C5B H2B 1_555 1_555
C6B O3B 1_555 1_555
C7B C5B 1_555 1_555
C8B C3B 1_555 1_555
H3B C8B 1_555 1_555
O5B C2B 1_555 1_555
C9B C7B 1_555 1_555
O6B C9B 1_555 1_555
O7B C2B 1_555 1_555
C10B C1B 1_555 1_555
H4B C10B 1_555 1_555
C11B C10B 1_555 1_555
H5B C11B 1_555 1_555
H6B C11B 1_555 1_555
H7B C11B 1_555 1_555
Mn1C O4 1_555 1_555
Mn1C_2 O5 1_555 1_555
Mn1D O4A 1_555 1_555
Mn1D_2 O5A 1_555 1_555
Mn1E O4B 1_555 1_555
Mn1E_2 O5B 1_555 1_555
O1C Na1 1_555 1_555
O1D Na1 1_555 1_555
O1E Na1 1_555 1_555
O4C Mn1 1_555 1_555
O4D K1 1_555 1_555
O4E K1 1_555 1_555
O5C Mn1 1_555 1_555
O5D Mn1A 1_555 1_555
O5E Mn1B 1_555 1_555
O6C Mn1 1_555 1_555
O6D Mn1A 1_555 1_555
O6E Mn1B 1_555 1_555
O7A_2 Na1 1_555 1_555
O7B_2 Na1 1_555 1_555
Na1_2 O7A 1_555 1_555
Na1_3 O7B 1_555 1_555
Na1C O1 1_555 1_555
K1C O4A 1_555 1_555
K1C_2 O4B 1_555 1_555
K1C_3 O4 1_555 1_555
O3 C10 1_555 1_555
C4 C6 1_555 1_555
C5 C6 1_555 1_555
C7 C8 1_555 1_555
O6 Mn1C 1_555 1_555
K1 O4C 1_555 1_555
Mn1A O4D 1_555 1_555
O1A Na1C 1_555 1_555
C1A O2A 1_555 1_555
O3A C10A 1_555 1_555
C4A C6A 1_555 1_555
C5A C6A 1_555 1_555
C7A C8A 1_555 1_555
O6A Mn1D 1_555 1_555
Mn1B O4E 1_555 1_555
O1B Na1C 1_555 1_555
C1B O2B 1_555 1_555
O3B C10B 1_555 1_555
C4B C6B 1_555 1_555
C5B C6B 1_555 1_555
C7B C8B 1_555 1_555
O6B Mn1E 1_555 1_555
Mn1C_2 O1C 1_555 1_555

#END
