
#######################################################################
#
#                 Cambridge Crystallographic Data Centre
#                                CCDC 
#
#######################################################################
#
# If this CIF has been generated from an entry in the Cambridge 
# Structural Database, then it will include bibliographic, chemical, 
# crystal, experimental, refinement or atomic coordinate data resulting 
# from the CCDC's data processing and validation procedures.
#
#######################################################################

data_PUNDUY
_chemical_formula_moiety         'C36 H14 Cd12 N11 O22'
_symmetry_cell_setting           monoclinic
_symmetry_space_group_name_H-M   'C 2/c'
_symmetry_Int_Tables_number      15
_space_group_name_Hall           '-C 2yc'
loop_
_symmetry_equiv_pos_site_id
_symmetry_equiv_pos_as_xyz
1 x,y,z
2 -x,y,1/2-z
3 1/2+x,1/2+y,z
4 1/2-x,1/2+y,1/2-z
5 -x,-y,-z
6 x,-y,1/2+z
7 1/2-x,1/2-y,-z
8 1/2+x,1/2-y,1/2+z
_cell_length_a                   10.2268(4)
_cell_length_b                   23.7126(11)
_cell_length_c                   17.4281(8)
_cell_angle_alpha                90
_cell_angle_beta                 105.803(5)
_cell_angle_gamma                90
_cell_volume                     4066.64
loop_
_atom_site_label
_atom_site_type_symbol
_atom_site_fract_x
_atom_site_fract_y
_atom_site_fract_z
O2 O 0.6388(12) 0.2854(6) 0.9815(6)
O3 O 1.276(2) 0.2274(9) 1.1694(11)
O4 O 1.398(3) 0.1512(15) 1.2101(18)
Cd1 Cd 0.5000 0.024651(17) 0.7500
Cd2 Cd 0.11373(2) -0.122220(13) 1.172780(16)
C1 C 0.1136(10) 0.1145(5) 1.2589(8)
C2 C -0.0034(6) 0.0531(3) 1.1087(5)
C3 C -0.0078(6) -0.0028(3) 1.0968(4)
C4 C 0.1204(4) 0.0103(2) 1.2192(4)
C5 C 0.0098(10) 0.1488(3) 1.2297(5)
C6 C -0.0696(10) 0.1851(5) 1.1943(7)
C7 C -0.1914(5) 0.2709(2) 1.1908(3)
C8 C -0.3285(10) 0.1955(4) 1.1727(9)
C9 C -0.4069(10) 0.2420(5) 1.1691(8)
C10 C 0.5099(4) -0.03901(17) 0.8785(2)
C11 C 0.5282(3) -0.06881(17) 0.9563(2)
C12 C 0.4219(3) -0.07372(17) 0.9923(2)
H1 H 0.3347 -0.0624 0.9647
C13 C 0.4457(3) -0.09526(17) 1.0686(2)
C14 C 0.3318(3) -0.09984(16) 1.1071(2)
C15 C 0.5749(3) -0.11293(16) 1.1100(2)
H2 H 0.5910 -0.1265 1.1618
C16 C 0.6808(3) -0.11038(17) 1.0737(2)
C17 C 0.6564(3) -0.08803(18) 0.9977(2)
H3 H 0.7272 -0.0859 0.9738
C18 C 0.8238(4) -0.1270(2) 1.1187(2)
N1 N 0.0769(12) 0.0639(5) 1.2044(7)
N2 N 0.0771(12) -0.0267(6) 1.1779(7)
N3 N -0.3305(15) 0.2909(7) 1.1863(9)
N4 N -0.1939(8) 0.2156(3) 1.1948(6)
O5 O 0.6119(3) -0.03369(14) 0.85206(17)
O6 O 0.3966(3) -0.01923(15) 0.84226(16)
O7 O 0.2153(2) -0.11002(13) 1.06463(15)
O8 O 0.3590(2) -0.09561(12) 1.18291(14)
O9 O 0.9077(3) -0.13548(15) 1.07920(18)
O10 O 0.847(2) -0.1393(7) 1.1923(14)
Cd1D Cd 0.5000 -0.024651(17) 1.2500
Cd1D_2 Cd 0.5000 -0.024651(17) 0.2500
Cd2A Cd 0.88627(2) -0.122220(13) 0.327220(16)
Cd2B Cd -0.38627(2) 0.377780(13) 1.172780(16)
Cd2_2 Cd 1.11373(2) -0.122220(13) 1.172780(16)
Cd2A_2 Cd 0.88627(2) -0.122220(13) 1.327220(16)
Cd2C Cd 0.38627(2) 0.377780(13) 1.327220(16)
Cd2A_3 Cd -0.11373(2) -0.122220(13) 1.327220(16)
Cd2A_4 Cd -0.11373(2) -0.122220(13) 0.327220(16)
Cd2_3 Cd 0.11373(2) -0.122220(13) 0.172780(16)
C1A C -0.1136(10) 0.1145(5) 1.2411(8)
C2A C 0.0034(6) 0.0531(3) 1.3913(5)
C3A C 0.0078(6) -0.0028(3) 1.4032(4)
C4A C -0.1204(4) 0.0103(2) 1.2808(4)
C5A C -0.0098(10) 0.1488(3) 1.2703(5)
C6A C 0.0696(10) 0.1851(5) 1.3057(7)
C7A C 0.1914(5) 0.2709(2) 1.3092(3)
C8A C 0.3285(10) 0.1955(4) 1.3273(9)
C9A C 0.4069(10) 0.2420(5) 1.3309(8)
C10A C 0.4901(4) -0.03901(17) 0.6215(2)
C11A C 0.4718(3) -0.06881(17) 0.5437(2)
C12A C 0.5781(3) -0.07372(17) 0.5077(2)
H1A H 0.6653 -0.0624 0.5353
C13A C 0.5543(3) -0.09526(17) 0.4314(2)
C14A C 0.6682(3) -0.09984(16) 0.3929(2)
C15A C 0.4251(3) -0.11293(16) 0.3900(2)
H2A H 0.4090 -0.1265 0.3382
C16A C 0.3192(3) -0.11038(17) 0.4263(2)
C17A C 0.3436(3) -0.08803(18) 0.5023(2)
H3A H 0.2728 -0.0859 0.5262
C18A C 0.1762(4) -0.1270(2) 0.3813(2)
N1A N -0.0769(12) 0.0639(5) 1.2956(7)
N2A N -0.0771(12) -0.0267(6) 1.3221(7)
N2A_2 N 0.9229(12) -0.0267(6) 0.3221(7)
N3A N 0.3305(15) 0.2909(7) 1.3137(9)
N3B N 0.1695(15) -0.2091(7) 1.1863(9)
N3C N 0.8305(15) -0.2091(7) 0.3137(9)
N4A N 0.1939(8) 0.2156(3) 1.3052(6)
O5A O 0.3881(3) -0.03369(14) 0.64794(17)
O6A O 0.6034(3) -0.01923(15) 0.65774(16)
O7A O 0.7847(2) -0.11002(13) 0.43537(15)
O8A O 0.6410(2) -0.09561(12) 0.31709(14)
O8D O 0.6410(2) 0.09561(12) 0.81709(14)
O8E O 0.3590(2) 0.09561(12) 0.68291(14)
O9A O 0.0923(3) -0.13548(15) 0.42080(18)
O9_2 O -0.0923(3) -0.13548(15) 1.07920(18)
O9A_2 O 1.0923(3) -0.13548(15) 0.42080(18)
O10A O 0.153(2) -0.1393(7) 0.3077(14)
O10A_2 O 0.153(2) -0.1393(7) 1.3077(14)
O10_2 O 0.847(2) -0.1393(7) 0.1923(14)
O1 O 1.1937(17) 0.2101(10) 1.0619(9)
loop_
_geom_bond_atom_site_label_1
_geom_bond_atom_site_label_2
_geom_bond_site_symmetry_1
_geom_bond_site_symmetry_2
Cd1 O5 1_555 1_555
Cd2 N2 1_555 1_555
C1 C5 1_555 1_555
C2 C3 1_555 1_555
C3 N2 1_555 1_555
C4 N1 1_555 1_555
C5 C6 1_555 1_555
C6 N4 1_555 1_555
C7 N3 1_555 1_555
C8 C9 1_555 1_555
C9 N3 1_555 1_555
C10 C11 1_555 1_555
C11 C12 1_555 1_555
C12 H1 1_555 1_555
C13 C12 1_555 1_555
C14 C13 1_555 1_555
C15 C13 1_555 1_555
H2 C15 1_555 1_555
C16 C15 1_555 1_555
C17 C11 1_555 1_555
H3 C17 1_555 1_555
C18 C16 1_555 1_555
N1 C1 1_555 1_555
N2 C4 1_555 1_555
N3 Cd2B 1_555 1_555
N4 C7 1_555 1_555
O5 C10 1_555 1_555
O6 Cd1 1_555 1_555
O7 Cd2 1_555 1_555
O8 Cd2 1_555 1_555
O9 C18 1_555 1_555
O10 C18 1_555 1_555
Cd1D O8 1_555 1_555
Cd1D_2 O8A 1_555 1_555
Cd2A N2A_2 1_555 1_555
Cd2_2 O9 1_555 1_555
Cd2A_2 O10 1_555 1_555
Cd2C N3A 1_555 1_555
Cd2A_3 N2A 1_555 1_555
Cd2A_4 O9A 1_555 1_555
Cd2_3 O10A 1_555 1_555
C1A C5 1_555 1_555
C2A C3A 1_555 1_555
C3A N2A 1_555 1_555
C4A N1A 1_555 1_555
C5A C1 1_555 1_555
C6A C5 1_555 1_555
C7A N3A 1_555 1_555
C8A C9A 1_555 1_555
C9A N3A 1_555 1_555
C10A C11A 1_555 1_555
C11A C12A 1_555 1_555
C12A H1A 1_555 1_555
C13A C12A 1_555 1_555
C14A C13A 1_555 1_555
C15A C13A 1_555 1_555
H2A C15A 1_555 1_555
C16A C15A 1_555 1_555
C17A C11A 1_555 1_555
H3A C17A 1_555 1_555
C18A C16A 1_555 1_555
N1A C1A 1_555 1_555
N2A C4A 1_555 1_555
N3B Cd2 1_555 1_555
N3C Cd2A 1_555 1_555
N4A C6A 1_555 1_555
O5A Cd1 1_555 1_555
O6A Cd1 1_555 1_555
O7A Cd2A 1_555 1_555
O8A Cd2A 1_555 1_555
O8D Cd1 1_555 1_555
O8E Cd1 1_555 1_555
O9A C18A 1_555 1_555
O9_2 Cd2 1_555 1_555
O9A_2 Cd2A 1_555 1_555
O10A C18A 1_555 1_555
O10A_2 Cd2 1_555 1_555
O10_2 Cd2A 1_555 1_555
C2 N1 1_555 1_555
C5 C5A 1_555 1_555
C6 C5A 1_555 1_555
C8 N4 1_555 1_555
C10 O6 1_555 1_555
C14 O7 1_555 1_555
C14 O8 1_555 1_555
C16 C17 1_555 1_555
C1A C5A 1_555 1_555
C2A N1A 1_555 1_555
C5A C6A 1_555 1_555
C7A N4A 1_555 1_555
C8A N4A 1_555 1_555
C10A O5A 1_555 1_555
C10A O6A 1_555 1_555
C14A O7A 1_555 1_555
C14A O8A 1_555 1_555
C16A C17A 1_555 1_555

#END
