
#######################################################################
#
#                 Cambridge Crystallographic Data Centre
#                                CCDC 
#
#######################################################################
#
# If this CIF has been generated from an entry in the Cambridge 
# Structural Database, then it will include bibliographic, chemical, 
# crystal, experimental, refinement or atomic coordinate data resulting 
# from the CCDC's data processing and validation procedures.
#
#######################################################################

data_PUNFIO
_chemical_formula_moiety         '(C64 H56 Cd7 N16 O30)n'
_symmetry_cell_setting           triclinic
_symmetry_space_group_name_H-M   'P -1'
_symmetry_Int_Tables_number      2
_space_group_name_Hall           '-P 1'
loop_
_symmetry_equiv_pos_site_id
_symmetry_equiv_pos_as_xyz
1 x,y,z
2 -x,-y,-z
_cell_length_a                   7.509(5)
_cell_length_b                   11.881(5)
_cell_length_c                   20.942(5)
_cell_angle_alpha                96.623(5)
_cell_angle_beta                 92.474(5)
_cell_angle_gamma                102.015(5)
_cell_volume                     1810.86
loop_
_atom_site_label
_atom_site_type_symbol
_atom_site_fract_x
_atom_site_fract_y
_atom_site_fract_z
Cd1 Cd 0.0000 0.0000 0.0000
Cd2 Cd 0.34831(4) 0.14636(3) -0.095780(15)
Cd3 Cd 0.25120(4) -0.01980(3) -0.478117(15)
Cd4 Cd -0.39373(4) -0.17181(3) -0.084649(15)
C1 C 0.0300(6) 0.2754(4) -0.14286(19)
H1 H -0.0546 0.2062 -0.1421
C2 C 0.2781(6) 0.4022(4) -0.1354(2)
H2 H 0.4007 0.4385 -0.1280
C3 C 0.1455(6) 0.4544(4) -0.1545(2)
H3 H 0.1596 0.5308 -0.1630
C4 C -0.2001(5) 0.3801(4) -0.17998(19)
H4 H -0.2248 0.4516 -0.1586
H5 H -0.2853 0.3164 -0.1656
C5 C -0.2388(6) 0.3768(4) -0.25423(19)
C6 C -0.1133(6) 0.3033(4) -0.2872(2)
H6 H 0.0118 0.3406 -0.2727
H7 H -0.1384 0.2284 -0.2714
C7 C -0.0367(7) 0.3521(4) -0.4000(2)
H8 H 0.0315 0.4276 -0.3905
C8 C -0.0704(6) 0.2893(4) -0.4578(2)
H9 H -0.0303 0.3153 -0.4960
C9 C -0.2009(6) 0.1813(4) -0.3922(2)
H10 H -0.2677 0.1179 -0.3753
C10 C -0.1956(6) 0.5003(4) -0.2742(2)
H11 H -0.0685 0.5352 -0.2616
H12 H -0.2110 0.4942 -0.3208
C11 C -0.4692(6) 0.5949(4) -0.2725(2)
H13 H -0.5267 0.5614 -0.3124
C12 C -0.2765(6) 0.6439(4) -0.1887(2)
H14 H -0.1746 0.6489 -0.1608
C13 C -0.5290(6) 0.6698(4) -0.2293(2)
H15 H -0.6360 0.6966 -0.2344
C14 C -0.6099(6) 0.1671(4) -0.3520(2)
H16 H -0.6269 0.1084 -0.3256
C15 C -0.6183(6) 0.2601(4) -0.4329(2)
H17 H -0.6444 0.2772 -0.4740
C16 C -0.5250(6) 0.3360(4) -0.3853(2)
H18 H -0.4731 0.4136 -0.3873
C17 C -0.4442(5) 0.3196(4) -0.26629(19)
H19 H -0.4683 0.2544 -0.2416
H20 H -0.5123 0.3753 -0.2484
C18 C -0.4380(5) -0.1314(4) -0.4092(2)
C19 C -0.3314(5) -0.0928(4) -0.34478(19)
C20 C -0.1422(5) -0.0833(3) -0.33708(19)
C21 C -0.0604(5) -0.0605(4) -0.2752(2)
H21 H 0.0635 -0.0596 -0.2695
C22 C -0.1551(5) -0.0390(3) -0.22112(19)
C23 C -0.3416(5) -0.0365(3) -0.22932(19)
C24 C -0.4266(5) -0.0672(3) -0.29177(19)
H22 H -0.5511 -0.0704 -0.2977
C25 C -0.4498(5) 0.0081(4) -0.17712(19)
C26 C -0.0473(6) -0.0156(4) -0.1567(2)
C27 C -0.0237(6) -0.0857(4) -0.3934(2)
C28 C -0.3115(6) 0.3051(4) -0.0058(2)
C29 C -0.1453(5) 0.4032(3) -0.00378(18)
C30 C 0.0337(5) 0.3908(4) 0.00888(19)
C31 C -0.1757(5) 0.5109(4) -0.01210(19)
H23 H -0.2949 0.5187 -0.0202
C32 C 0.0826(6) 0.2763(4) 0.0141(2)
O1 O -0.0822(4) -0.0725(3) -0.44740(14)
O2 O 0.1399(4) -0.0956(3) -0.38153(13)
O3 O -0.4957(4) -0.2370(3) -0.42244(15)
O4 O -0.4682(4) -0.0531(3) -0.44219(14)
O5 O 0.1198(4) 0.0206(3) -0.15708(13)
O6 O -0.1315(4) -0.0346(3) -0.10693(13)
O7 O -0.4680(4) 0.1105(3) -0.17855(14)
O8 O -0.5244(4) -0.0528(3) -0.13706(14)
O9 O -0.4062(4) 0.2818(3) -0.05728(14)
O10 O -0.3452(4) 0.2612(3) 0.04583(15)
O11 O 0.2398(4) 0.2827(3) 0.03843(18)
O12 O -0.0294(4) 0.1852(2) -0.00632(14)
N1 N 0.2083(5) 0.2883(3) -0.12832(17)
N2 N -0.0143(5) 0.3726(3) -0.15871(16)
N3 N -0.3078(4) 0.5778(3) -0.24647(17)
N4 N -0.4048(5) 0.6997(3) -0.17647(17)
N5 N -0.6704(5) 0.1531(3) -0.41279(17)
N6 N -0.5199(5) 0.2775(3) -0.33242(16)
N7 N -0.1712(5) 0.1823(3) -0.45321(17)
N8 N -0.1236(5) 0.2826(3) -0.35695(16)
O13 O 0.3045(4) 0.0526(2) -0.01155(13)
H24 H 0.339(5) -0.012(2) -0.019(2)
Cd1_2 Cd -0.0000 1.0000 0.0000
Cd2A Cd -0.34831(4) -0.14636(3) 0.095780(15)
Cd2_2 Cd -0.65169(4) 0.14636(3) -0.095780(15)
Cd2A_2 Cd 0.65169(4) 0.85364(3) 0.095780(15)
Cd2A_3 Cd 0.65169(4) -0.14636(3) 0.095780(15)
Cd2_3 Cd 1.34831(4) 0.14636(3) -0.095780(15)
Cd3A Cd -0.25120(4) 0.01980(3) 0.478117(15)
Cd3A_2 Cd -0.25120(4) 0.01980(3) -0.521883(15)
Cd3_2 Cd -0.74880(4) -0.01980(3) -0.478117(15)
Cd3_3 Cd 0.25120(4) -0.01980(3) 0.521883(15)
Cd3A_3 Cd 0.74880(4) 0.01980(3) 0.478117(15)
Cd3A_4 Cd 0.74880(4) 0.01980(3) -0.521883(15)
Cd4A Cd 0.39373(4) 0.17181(3) 0.084649(15)
Cd4A_2 Cd -0.60627(4) 0.17181(3) 0.084649(15)
Cd4_2 Cd -0.39373(4) 0.82819(3) -0.084649(15)
Cd4_3 Cd 0.60627(4) 0.82819(3) -0.084649(15)
C1_2 C 1.0300(6) 0.2754(4) -0.14286(19)
H1_2 H 0.9454 0.2062 -0.1421
C2_2 C 1.2781(6) 0.4022(4) -0.1354(2)
H2_2 H 1.4007 0.4385 -0.1280
C3_2 C 1.1455(6) 0.4544(4) -0.1545(2)
H3_2 H 1.1596 0.5308 -0.1630
C4_2 C 0.7999(5) 0.3801(4) -0.17998(19)
H4_2 H 0.7752 0.4516 -0.1586
H5_2 H 0.7147 0.3164 -0.1656
C5_2 C 0.7612(6) 0.3768(4) -0.25423(19)
C6_2 C 0.8867(6) 0.3033(4) -0.2872(2)
H6_2 H 1.0118 0.3406 -0.2727
H7_2 H 0.8616 0.2284 -0.2714
C7_2 C 0.9633(7) 0.3521(4) -0.4000(2)
H8_2 H 1.0315 0.4276 -0.3905
C8_2 C 0.9296(6) 0.2893(4) -0.4578(2)
H9_2 H 0.9697 0.3153 -0.4960
C9_2 C 0.7991(6) 0.1813(4) -0.3922(2)
H10_2 H 0.7323 0.1179 -0.3753
C10_2 C 0.8044(6) 0.5003(4) -0.2742(2)
H11_2 H 0.9315 0.5352 -0.2616
H12_2 H 0.7890 0.4942 -0.3208
C11_2 C 0.5308(6) 0.5949(4) -0.2725(2)
H13_2 H 0.4733 0.5614 -0.3124
C12_2 C 0.7235(6) 0.6439(4) -0.1887(2)
H14_2 H 0.8254 0.6489 -0.1608
C13_2 C 0.4710(6) 0.6698(4) -0.2293(2)
H15_2 H 0.3640 0.6966 -0.2344
C14_2 C 0.3901(6) 0.1671(4) -0.3520(2)
H16_2 H 0.3731 0.1084 -0.3256
C15_2 C 0.3817(6) 0.2601(4) -0.4329(2)
H17_2 H 0.3556 0.2772 -0.4740
C16_2 C 0.4750(6) 0.3360(4) -0.3853(2)
H18_2 H 0.5269 0.4136 -0.3873
C17_2 C 0.5558(5) 0.3196(4) -0.26629(19)
H19_2 H 0.5317 0.2544 -0.2416
H20_2 H 0.4877 0.3753 -0.2484
C18A C 0.4380(5) 0.1314(4) 0.4092(2)
C19A C 0.3314(5) 0.0928(4) 0.34478(19)
C20A C 0.1422(5) 0.0833(3) 0.33708(19)
C21A C 0.0604(5) 0.0605(4) 0.2752(2)
H21A H -0.0635 0.0596 0.2695
C22A C 0.1551(5) 0.0390(3) 0.22112(19)
C23A C 0.3416(5) 0.0365(3) 0.22932(19)
C24A C 0.4266(5) 0.0672(3) 0.29177(19)
H22A H 0.5511 0.0704 0.2977
C25A C 0.4498(5) -0.0081(4) 0.17712(19)
C26A C 0.0473(6) 0.0156(4) 0.1567(2)
C27A C 0.0237(6) 0.0857(4) 0.3934(2)
C28A C 0.3115(6) 0.6949(4) 0.0058(2)
C29A C 0.1453(5) 0.5968(3) 0.00378(18)
C30A C -0.0337(5) 0.6092(4) -0.00888(19)
C31A C 0.1757(5) 0.4891(4) 0.01210(19)
H23A H 0.2949 0.4813 0.0202
C32A C -0.0826(6) 0.7237(4) -0.0141(2)
O1A O 0.0822(4) 0.0725(3) 0.44740(14)
O1A_2 O 0.0822(4) 0.0725(3) -0.55260(14)
O1_2 O -0.0822(4) -0.0725(3) 0.55260(14)
O2A O -0.1399(4) 0.0956(3) 0.38153(13)
O3A O 0.4957(4) 0.2370(3) 0.42244(15)
O4A O 0.4682(4) 0.0531(3) 0.44219(14)
O4_2 O 0.5318(4) -0.0531(3) -0.44219(14)
O4A_2 O 0.4682(4) 0.0531(3) -0.55781(14)
O4A_3 O -0.5318(4) 0.0531(3) 0.44219(14)
O4_3 O -0.4682(4) -0.0531(3) 0.55781(14)
O5A O -0.1198(4) -0.0206(3) 0.15708(13)
O6A O 0.1315(4) 0.0346(3) 0.10693(13)
O7A O 0.4680(4) -0.1105(3) 0.17855(14)
O7_2 O 0.5320(4) 0.1105(3) -0.17855(14)
O7A_2 O -0.5320(4) -0.1105(3) 0.17855(14)
O8A O 0.5244(4) 0.0528(3) 0.13706(14)
O9A O 0.4062(4) 0.7182(3) 0.05728(14)
O9_2 O 0.5938(4) 0.2818(3) -0.05728(14)
O9A_2 O -0.5938(4) -0.2818(3) 0.05728(14)
O10A O 0.3452(4) 0.7388(3) -0.04583(15)
O10A_2 O -0.6548(4) -0.2612(3) -0.04583(15)
O10_2 O 0.6548(4) 0.2612(3) 0.04583(15)
O11A O -0.2398(4) 0.7173(3) -0.03843(18)
O11A_2 O -0.2398(4) -0.2827(3) -0.03843(18)
O12A O 0.0294(4) 0.8148(2) 0.00632(14)
O12A_2 O 0.0294(4) -0.1852(2) 0.00632(14)
N1_2 N 1.2083(5) 0.2883(3) -0.12832(17)
N1A N -0.2083(5) -0.2883(3) 0.12832(17)
N2_2 N 0.9857(5) 0.3726(3) -0.15871(16)
N3_2 N 0.6922(4) 0.5778(3) -0.24647(17)
N4_2 N 0.5952(5) 0.6997(3) -0.17647(17)
N4_3 N -0.4048(5) -0.3003(3) -0.17647(17)
N4A N 0.4048(5) 0.3003(3) 0.17647(17)
N5_2 N 0.3296(5) 0.1531(3) -0.41279(17)
N5A N -0.3296(5) -0.1531(3) 0.41279(17)
N6_2 N 0.4801(5) 0.2775(3) -0.33242(16)
N7_2 N 0.8288(5) 0.1823(3) -0.45321(17)
N7A N 0.1712(5) -0.1823(3) -0.54679(17)
N7_3 N -0.1712(5) 0.1823(3) 0.54679(17)
N8_2 N 0.8764(5) 0.2826(3) -0.35695(16)
O13A O -0.3045(4) -0.0526(2) 0.01155(13)
H24A H -0.339(5) 0.012(2) 0.019(2)
O14 O 0.8712(5) 0.2534(3) 0.15336(19)
H25 H 0.849(8) 0.185(3) 0.161(3)
H26 H 0.815(7) 0.263(4) 0.1157(18)
O15 O 0.7479(6) 0.6011(4) 0.5829(2)
H27 H 0.669(6) 0.641(5) 0.582(3)
H28 H 0.845(5) 0.641(5) 0.600(3)
O16 O 0.2985(7) 0.5372(4) -0.4598(3)
H29 H 0.384(8) 0.534(7) -0.431(3)
H30 H 0.338(10) 0.597(5) -0.479(3)
O17 O 0.1104(6) -0.3421(4) -0.3625(3)
H31 H 0.141(10) -0.267(2) -0.361(4)
H32 H 0.200(8) -0.369(6) -0.381(4)
loop_
_geom_bond_atom_site_label_1
_geom_bond_atom_site_label_2
_geom_bond_site_symmetry_1
_geom_bond_site_symmetry_2
Cd1 O6 1_555 1_555
Cd2 O5 1_555 1_555
Cd3 O1 1_555 1_555
Cd4 O6 1_555 1_555
C1 H1 1_555 1_555
C2 H2 1_555 1_555
C3 C2 1_555 1_555
H3 C3 1_555 1_555
C4 H4 1_555 1_555
H5 C4 1_555 1_555
C5 C4 1_555 1_555
C6 C5 1_555 1_555
H6 C6 1_555 1_555
H7 C6 1_555 1_555
C7 H8 1_555 1_555
C8 C7 1_555 1_555
H9 C8 1_555 1_555
C9 H10 1_555 1_555
C10 C5 1_555 1_555
H11 C10 1_555 1_555
H12 C10 1_555 1_555
C11 H13 1_555 1_555
C12 H14 1_555 1_555
C13 C11 1_555 1_555
H15 C13 1_555 1_555
C14 H16 1_555 1_555
C15 H17 1_555 1_555
C16 C15 1_555 1_555
H18 C16 1_555 1_555
C17 C5 1_555 1_555
H19 C17 1_555 1_555
H20 C17 1_555 1_555
C18 C19 1_555 1_555
C19 C20 1_555 1_555
C20 C21 1_555 1_555
C21 H21 1_555 1_555
C22 C21 1_555 1_555
C23 C22 1_555 1_555
C24 C19 1_555 1_555
H22 C24 1_555 1_555
C25 C23 1_555 1_555
C26 C22 1_555 1_555
C27 C20 1_555 1_555
C28 C29 1_555 1_555
C29 C30 1_555 1_555
C30 C32 1_555 1_555
C31 C29 1_555 1_555
H23 C31 1_555 1_555
C32 O11 1_555 1_555
O1 C27 1_555 1_555
O2 Cd3 1_555 1_555
O3 C18 1_555 1_555
O4 C18 1_555 1_555
O5 C26 1_555 1_555
O6 C26 1_555 1_555
O7 C25 1_555 1_555
O8 Cd4 1_555 1_555
O9 C28 1_555 1_555
O10 C28 1_555 1_555
O11 Cd4A 1_555 1_555
O12 Cd1 1_555 1_555
N1 Cd2 1_555 1_555
N2 C1 1_555 1_555
N3 C10 1_555 1_555
N4 C12 1_555 1_555
N5 C14 1_555 1_555
N6 C14 1_555 1_555
N7 C8 1_555 1_555
N8 C6 1_555 1_555
O13 Cd1 1_555 1_555
H24 O13 1_555 1_555
O14 H25 1_555 1_555
H26 O14 1_555 1_555
O15 H27 1_555 1_555
H28 O15 1_555 1_555
O16 H29 1_555 1_555
H30 O16 1_555 1_555
O17 H31 1_555 1_555
H32 O17 1_555 1_555
Cd1_2 O12A 1_555 1_555
Cd2A O5A 1_555 1_555
Cd2_2 O7 1_555 1_555
Cd2A_2 O9A 1_555 1_555
Cd2A_3 O7A 1_555 1_555
Cd2_3 N1_2 1_555 1_555
Cd3A O1A 1_555 1_555
Cd3A_2 O1 1_555 1_555
Cd3_2 O4 1_555 1_555
Cd3_3 O1A 1_555 1_555
Cd3A_3 O4A 1_555 1_555
Cd3A_4 O4_2 1_555 1_555
Cd4A O13 1_555 1_555
Cd4A_2 O10 1_555 1_555
Cd4_2 N4 1_555 1_555
Cd4_3 O10A 1_555 1_555
C1_2 H1_2 1_555 1_555
C2_2 H2_2 1_555 1_555
C3_2 C2_2 1_555 1_555
H3_2 C3_2 1_555 1_555
C4_2 H4_2 1_555 1_555
H5_2 C4_2 1_555 1_555
C5_2 C4_2 1_555 1_555
C6_2 C5_2 1_555 1_555
H6_2 C6_2 1_555 1_555
H7_2 C6_2 1_555 1_555
C7_2 H8_2 1_555 1_555
C8_2 C7_2 1_555 1_555
H9_2 C8_2 1_555 1_555
C9_2 H10_2 1_555 1_555
C10_2 C5_2 1_555 1_555
H11_2 C10_2 1_555 1_555
H12_2 C10_2 1_555 1_555
C11_2 H13_2 1_555 1_555
C12_2 H14_2 1_555 1_555
C13_2 C11_2 1_555 1_555
H15_2 C13_2 1_555 1_555
C14_2 H16_2 1_555 1_555
C15_2 H17_2 1_555 1_555
C16_2 C15_2 1_555 1_555
H18_2 C16_2 1_555 1_555
C17_2 C5_2 1_555 1_555
H19_2 C17_2 1_555 1_555
H20_2 C17_2 1_555 1_555
C18A C19A 1_555 1_555
C19A C20A 1_555 1_555
C20A C21A 1_555 1_555
C21A H21A 1_555 1_555
C22A C21A 1_555 1_555
C23A C22A 1_555 1_555
C24A C19A 1_555 1_555
H22A C24A 1_555 1_555
C25A C23A 1_555 1_555
C26A C22A 1_555 1_555
C27A C20A 1_555 1_555
C28A C29A 1_555 1_555
C29A C30A 1_555 1_555
C30A C31 1_555 1_555
C31A C30 1_555 1_555
H23A C31A 1_555 1_555
C32A C30A 1_555 1_555
O1A C27A 1_555 1_555
O1A_2 Cd3 1_555 1_555
O1_2 Cd3A 1_555 1_555
O2A Cd3A 1_555 1_555
O3A C18A 1_555 1_555
O4A Cd3_3 1_555 1_555
O4_2 Cd3 1_555 1_555
O4A_2 Cd3 1_555 1_555
O4A_3 Cd3A 1_555 1_555
O4_3 Cd3A 1_555 1_555
O5A C26A 1_555 1_555
O6A Cd1 1_555 1_555
O7A C25A 1_555 1_555
O7_2 Cd2 1_555 1_555
O7A_2 Cd2A 1_555 1_555
O8A Cd4A 1_555 1_555
O9A C28A 1_555 1_555
O9_2 Cd2 1_555 1_555
O9A_2 Cd2A 1_555 1_555
O10A C28A 1_555 1_555
O10A_2 Cd4 1_555 1_555
O10_2 Cd4A 1_555 1_555
O11A Cd4_2 1_555 1_555
O11A_2 Cd4 1_555 1_555
O12A C32A 1_555 1_555
O12A_2 Cd1 1_555 1_555
N1_2 C1_2 1_555 1_555
N1A Cd2A 1_555 1_555
N2_2 C1_2 1_555 1_555
N3_2 C10_2 1_555 1_555
N4_2 Cd4_3 1_555 1_555
N4_3 Cd4 1_555 1_555
N4A Cd4A 1_555 1_555
N5_2 Cd3 1_555 1_555
N5A Cd3A 1_555 1_555
N6_2 C14_2 1_555 1_555
N7_2 Cd3A_4 1_555 1_555
N7A Cd3 1_555 1_555
N7_3 Cd3A 1_555 1_555
N8_2 C6_2 1_555 1_555
O13A Cd1 1_555 1_555
H24A O13A 1_555 1_555
Cd2 O13 1_555 1_555
Cd4 O13A 1_555 1_555
C1 N1 1_555 1_555
C2 N1 1_555 1_555
C3 N2 1_555 1_555
C4 N2 1_555 1_555
C7 N8 1_555 1_555
C9 N7 1_555 1_555
C9 N8 1_555 1_555
C11 N3 1_555 1_555
C12 N3 1_555 1_555
C13 N4 1_555 1_555
C15 N5 1_555 1_555
C16 N6 1_555 1_555
C17 N6 1_555 1_555
C23 C24 1_555 1_555
C25 O8 1_555 1_555
C27 O2 1_555 1_555
C32 O12 1_555 1_555
O4 Cd3A_2 1_555 1_555
O9 Cd2_2 1_555 1_555
N5 Cd3_2 1_555 1_555
N7 Cd3A_2 1_555 1_555
Cd2A O13A 1_555 1_555
Cd3A_2 O1A_2 1_555 1_555
Cd3_3 O1_2 1_555 1_555
Cd3A_4 O4A_2 1_555 1_555
Cd4A O6A 1_555 1_555
C2_2 N1_2 1_555 1_555
C3_2 N2_2 1_555 1_555
C4_2 N2_2 1_555 1_555
C7_2 N8_2 1_555 1_555
C8_2 N7_2 1_555 1_555
C9_2 N7_2 1_555 1_555
C9_2 N8_2 1_555 1_555
C11_2 N3_2 1_555 1_555
C12_2 N3_2 1_555 1_555
C12_2 N4_2 1_555 1_555
C13_2 N4_2 1_555 1_555
C14_2 N5_2 1_555 1_555
C15_2 N5_2 1_555 1_555
C16_2 N6_2 1_555 1_555
C17_2 N6_2 1_555 1_555
C18A O4A 1_555 1_555
C23A C24A 1_555 1_555
C25A O8A 1_555 1_555
C26A O6A 1_555 1_555
C27A O2A 1_555 1_555
C29A C31A 1_555 1_555
C32A O11A 1_555 1_555

#END
