
#######################################################################
#
#                 Cambridge Crystallographic Data Centre
#                                CCDC 
#
#######################################################################
#
# If this CIF has been generated from an entry in the Cambridge 
# Structural Database, then it will include bibliographic, chemical, 
# crystal, experimental, refinement or atomic coordinate data resulting 
# from the CCDC's data processing and validation procedures.
#
#######################################################################

data_ROLCEC14
_chemical_formula_moiety         '(C3 H7 Cu1 N1 O6)n'
_symmetry_cell_setting           hexagonal
_symmetry_space_group_name_H-M   'P 61 2 2'
_symmetry_Int_Tables_number      178
_space_group_name_Hall           'P 61 2 (0 0 5)'
loop_
_symmetry_equiv_pos_site_id
_symmetry_equiv_pos_as_xyz
1 x,y,z
2 -y,x-y,1/3+z
3 -x+y,-x,2/3+z
4 -x,-y,1/2+z
5 y,-x+y,5/6+z
6 x-y,x,1/6+z
7 y,x,1/3-z
8 x-y,-y,-z
9 -x,-x+y,2/3-z
10 -y,-x,5/6-z
11 -x+y,y,1/2-z
12 x,x-y,1/6-z
_cell_length_a                   7.31795(10)
_cell_length_b                   7.31795(10)
_cell_length_c                   24.4190(6)
_cell_angle_alpha                90
_cell_angle_beta                 90
_cell_angle_gamma                120
_cell_volume                     1132.5
loop_
_atom_site_label
_atom_site_type_symbol
_atom_site_fract_x
_atom_site_fract_y
_atom_site_fract_z
Cu1 Cu 0.36480(11) 0.68240(6) 0.0833
O1 O 0.3384(6) 0.4508(6) 0.13215(14)
O2 O -0.0780(7) 0.2975(7) -0.0350(2)
O3 O 0.1405(8) 0.4183(9) 0.0340(2)
C1 C 0.4730(12) 0.4730(12) 0.1667
H1 H 0.6001 0.6001 0.1667
C2 C 0.0328(12) 0.4313(11) -0.0011(3)
H2 H 0.0334 0.5585 -0.0029
O1F O 0.4508(6) 0.3384(6) 0.20118(14)
O2G O 0.6245(10) 0.7025(7) 0.0350(2)
O3G O 0.7222(12) 0.5817(9) -0.0340(2)
C2G C 0.6015(16) 0.5687(11) 0.0011(3)
H2G H 0.4749 0.4415 0.0029
Cu1D Cu -0.31760(6) 0.31760(13) -0.0834
Cu1D_2 Cu 0.68240(6) 0.31760(13) -0.0834
Cu1E Cu 0.68240(13) 0.36480(11) 0.2500
O1K O 0.3384(6) 0.8876(8) 0.03452(14)
O2E O 0.6245(10) 0.9220(7) 0.1317(2)
O3K O 0.1405(8) 0.7222(12) 0.1327(2)
N1 N 0.0242(16) 0.0121(8) 0.0833
H3 H -0.1162(17) -0.0581(9) 0.0833
H4 H 0.071(2) 0.03(3) 0.0491(7)
H4K H 0.071(2) 0.041(30) 0.1176(7)
loop_
_geom_bond_atom_site_label_1
_geom_bond_atom_site_label_2
_geom_bond_site_symmetry_1
_geom_bond_site_symmetry_2
Cu1 O1 1_555 1_555
O1 C1 1_555 1_555
O2 C2 1_555 1_555
O3 Cu1 1_555 1_555
C1 H1 1_555 1_555
C2 O3 1_555 1_555
H2 C2 1_555 1_555
N1 H3 1_555 1_555
H4 N1 1_555 1_555
O1F C1 1_555 1_555
O2G Cu1 1_555 1_555
O3G C2G 1_555 1_555
C2G O2G 1_555 1_555
H2G C2G 1_555 1_555
Cu1D O2 1_555 1_555
Cu1D_2 O3G 1_555 1_555
Cu1E O1F 1_555 1_555
O1K Cu1 1_555 1_555
O2E Cu1 1_555 1_555
O3K Cu1 1_555 1_555
H4K N1 1_555 1_555

#END
