
#######################################################################
#
#                 Cambridge Crystallographic Data Centre
#                                CCDC 
#
#######################################################################
#
# If this CIF has been generated from an entry in the Cambridge 
# Structural Database, then it will include bibliographic, chemical, 
# crystal, experimental, refinement or atomic coordinate data resulting 
# from the CCDC's data processing and validation procedures.
#
#######################################################################

data_QALHIX
_chemical_formula_moiety         '(C108 H56 Cd7 N24 O52 10-)n'
_symmetry_cell_setting           tetragonal
_symmetry_space_group_name_H-M   'P -4 21 c'
_symmetry_Int_Tables_number      114
_space_group_name_Hall           'P -4 2n'
loop_
_symmetry_equiv_pos_site_id
_symmetry_equiv_pos_as_xyz
1 x,y,z
2 y,-x,-z
3 1/2+x,1/2-y,1/2-z
4 -x,-y,z
5 1/2+y,1/2+x,1/2+z
6 1/2-y,1/2-x,1/2+z
7 -y,x,-z
8 1/2-x,1/2+y,1/2-z
_cell_length_a                   32.9676(3)
_cell_length_b                   32.9676(3)
_cell_length_c                   26.6956(4)
_cell_angle_alpha                90
_cell_angle_beta                 90
_cell_angle_gamma                90
_cell_volume                     29014.5
loop_
_atom_site_label
_atom_site_type_symbol
_atom_site_fract_x
_atom_site_fract_y
_atom_site_fract_z
Cd1 Cd 0.5000 0.5000 0.661272(14)
Cd2 Cd 0.358145(11) 0.370581(12) 0.062763(13)
O1 O 0.32035(14) 0.37225(13) 0.70810(12)
O2 O 0.45824(10) 0.47416(10) 0.27291(13)
O3 O 0.17762(13) 0.19422(12) 0.54541(12)
O4 O 0.33309(11) 0.37127(13) 0.14498(13)
O5 O 0.43907(10) 0.46175(13) 0.67499(14)
O6 O 0.43874(10) 0.46219(12) 0.34995(12)
O7 O 0.45709(11) 0.47395(12) 0.59804(13)
O8 O 0.28846(14) 0.34340(13) 0.64638(13)
O9 O 0.38810(13) 0.40744(14) 0.13107(13)
O10 O 0.21012(13) 0.26122(14) 0.29409(13)
O11 O 0.16701(13) 0.21100(13) 0.31057(13)
O12 O 0.15307(16) 0.15884(14) 0.48347(15)
O13 O 0.42713(13) 0.36371(17) 0.03440(16)
O14 O 0.40061(11) 0.31608(15) 0.08173(15)
C1 C 0.43433(16) 0.45774(15) 0.30442(18)
C2 C 0.31499(18) 0.36828(19) 0.6618(2)
N1 N 0.31667(18) 0.3657(2) 0.33032(15)
H1 H 0.2992 0.3514 0.3142
O15 O 0.62085(14) 0.22783(16) 0.26260(18)
N2 N 0.2899(2) 0.3343(2) 0.39670(18)
C3 C 0.36243(15) 0.39288(17) 0.15959(19)
N3 N 0.3559(2) 0.4047(2) 0.48914(17)
H2 H 0.3692 0.4228 0.4728
C4 C 0.17476(18) 0.18779(16) 0.4994(2)
C5 C 0.34386(19) 0.3889(2) 0.3000(2)
N4 N 0.3369(2) 0.3876(2) 0.41032(16)
C6 C 0.1945(2) 0.21525(19) 0.4633(2)
C7 C 0.43438(17) 0.45761(15) 0.62919(17)
C8 C 0.39172(18) 0.4294(2) 0.55859(19)
H3 H 0.4090 0.4423 0.5361
C9 C 0.19396(19) 0.23700(19) 0.3244(2)
O16 O 0.66929(15) 0.19768(18) 0.30334(17)
C10 C 0.3736(2) 0.4138(2) 0.3180(2)
H4 H 0.3762 0.4182 0.3523
N5 N 0.3084(2) 0.3530(2) 0.47998(17)
C11 C 0.42964(19) 0.3304(2) 0.0559(2)
C12 C 0.40025(17) 0.43283(17) 0.2841(2)
C13 C 0.20244(19) 0.24006(19) 0.3788(2)
C14 C 0.3595(2) 0.4066(2) 0.54109(19)
C15 C 0.39610(16) 0.42648(16) 0.23326(18)
H5 H 0.4140 0.4387 0.2110
C16 C 0.39864(17) 0.43326(18) 0.61146(19)
C17 C 0.3338(2) 0.3863(2) 0.5746(2)
C18 C 0.6346(2) 0.1961(2) 0.2830(3)
C19 C 0.36491(17) 0.40156(17) 0.21533(18)
C20 C 0.34067(16) 0.39046(17) 0.62649(18)
C21 C 0.2208(2) 0.2450(2) 0.4800(2)
H6 H 0.2266 0.2468 0.5140
C22 C 0.3144(3) 0.3630(3) 0.3834(2)
C23 C 0.1851(2) 0.21249(17) 0.4137(2)
H7 H 0.1673 0.1925 0.4026
C24 C 0.33917(18) 0.38314(19) 0.24890(18)
H8 H 0.3184 0.3666 0.2372
C25 C 0.3337(3) 0.3776(3) 0.4599(2)
C26 C 0.2302(2) 0.2690(2) 0.39564(19)
H9 H 0.2430 0.2861 0.3728
C27 C 0.2388(2) 0.2725(3) 0.4467(2)
C28 C 0.6100(2) 0.1581(2) 0.2822(3)
C29 C 0.4679(2) 0.3063(3) 0.0537(3)
C30 C 0.4989(2) 0.3183(3) 0.0209(2)
H10 H 0.4960 0.3415 0.0016
O17 O 0.22060(14) 0.17357(18) 0.2350(2)
O18 O 0.24879(14) 0.22485(18) 0.1941(2)
C31 C 0.2884(3) 0.3295(3) 0.4466(2)
N6 N 0.2641(3) 0.3011(2) 0.46785(18)
H11 H 0.2645 0.3008 0.5001
C32 C 0.37348(17) 0.41471(18) 0.64345(17)
H12 H 0.3776 0.4178 0.6777
O19 O 0.5677(2) 0.3444(4) -0.0307(3)
N7 N 0.52006(19) 0.2188(3) 0.1150(3)
H13 H 0.5452 0.2118 0.1158
N8 N 0.39346(16) 0.1843(3) 0.1711(3)
H14 H 0.3858 0.2022 0.1497
N9 N 0.5069(2) 0.1267(3) 0.2439(4)
H15 H 0.4904 0.1099 0.2577
C33 C 0.5399(2) 0.2630(3) 0.0483(3)
H16 H 0.5645 0.2492 0.0467
C34 C 0.5466(2) 0.1254(3) 0.2609(4)
C35 C 0.4348(2) 0.1777(4) 0.1742(4)
N10 N 0.45588(19) 0.2017(3) 0.1414(3)
C36 C 0.4950(2) 0.1983(3) 0.1458(4)
C37 C 0.5706(2) 0.1596(2) 0.2596(3)
H17 H 0.5615 0.1832 0.2442
C38 C 0.47371(19) 0.2731(2) 0.0828(3)
H18 H 0.4528 0.2652 0.1040
C39 C 0.5103(2) 0.2497(3) 0.0826(3)
N11 N 0.51452(16) 0.1714(2) 0.1770(3)
C40 C 0.3665(2) 0.1337(3) 0.2292(4)
H19 H 0.3915 0.1208 0.2327
C41 C 0.2907(2) 0.1705(3) 0.2200(3)
N12 N 0.4496(2) 0.1519(2) 0.2062(3)
C42 C 0.3242(2) 0.1842(3) 0.1925(3)
H20 H 0.3214 0.2057 0.1703
C43 C 0.24995(18) 0.1917(3) 0.2137(3)
C44 C 0.2960(2) 0.1375(3) 0.2492(3)
H21 H 0.2736 0.1263 0.2653
C45 C 0.6234(2) 0.1229(3) 0.3030(3)
H22 H 0.6490 0.1222 0.3177
C46 C 0.3623(2) 0.1653(3) 0.1988(4)
C47 C 0.5340(2) 0.2954(4) 0.0173(2)
C48 C 0.6004(2) 0.0887(3) 0.3028(3)
O20 O 0.6491(3) 0.0472(3) 0.3384(6)
C49 C 0.6151(3) 0.0492(3) 0.3232(5)
O21 O 0.5961(3) 0.0201(2) 0.3252(6)
O22 O 0.3732(2) 0.0662(2) 0.2958(4)
C50 C 0.5605(2) 0.0895(3) 0.2814(4)
H23 H 0.5443 0.0663 0.2813
O23 O 0.3098(2) 0.0743(3) 0.3210(4)
C51 C 0.4904(2) 0.1519(3) 0.2070(4)
C52 C 0.3330(3) 0.1202(3) 0.2557(5)
C53 C 0.3394(3) 0.0856(3) 0.2950(5)
O24 O 0.5904(2) 0.2789(3) -0.0358(3)
C54 C 0.5668(3) 0.3069(5) -0.0193(4)
Cd3 Cd 0.65089(4) -0.01994(2) 0.35313(6)
O25 O 0.6160(6) -0.0489(5) 0.4287(4)
O26 O 0.7141(5) -0.0078(4) 0.3936(8)
Cd4 Cd 0.267138(13) 0.320368(11) 0.722943(13)
Cd2A Cd 0.370581(12) 0.641855(11) -0.062763(13)
O1A O 0.37225(13) 0.67965(14) -0.70810(12)
O2A O 0.47416(10) 0.54176(10) -0.27291(13)
O3A O 0.19422(12) 0.82238(13) -0.54541(12)
O4A O 0.37127(13) 0.66691(11) -0.14498(13)
O5A O 0.46175(13) 0.56093(10) -0.67499(14)
O6A O 0.46219(12) 0.56126(10) -0.34995(12)
O7A O 0.47395(12) 0.54291(11) -0.59804(13)
O8A O 0.34340(13) 0.71154(14) -0.64638(13)
O9A O 0.40744(14) 0.61190(13) -0.13107(13)
O10A O 0.26122(14) 0.78988(13) -0.29409(13)
O11A O 0.21100(13) 0.83299(13) -0.31057(13)
O12A O 0.15884(14) 0.84693(16) -0.48347(15)
O13A O 0.36371(17) 0.57287(13) -0.03440(16)
O14A O 0.31608(15) 0.59939(11) -0.08173(15)
C1A C 0.45774(15) 0.56567(16) -0.30442(18)
C2A C 0.36828(19) 0.68501(18) -0.6618(2)
N1A N 0.3657(2) 0.68333(18) -0.33032(15)
H1A H 0.3514 0.7008 -0.3142
O15A O 0.22783(16) 0.37915(14) -0.26260(18)
N2A N 0.3343(2) 0.7101(2) -0.39670(18)
C3A C 0.39288(17) 0.63757(15) -0.15959(19)
N3A N 0.4047(2) 0.6441(2) -0.48914(17)
H2A H 0.4228 0.6308 -0.4728
C4A C 0.18779(16) 0.82524(18) -0.4994(2)
C5A C 0.3889(2) 0.65614(19) -0.3000(2)
N4A N 0.3876(2) 0.6631(2) -0.41032(16)
C6A C 0.21525(19) 0.8055(2) -0.4633(2)
C7A C 0.45761(15) 0.56562(17) -0.62919(17)
C8A C 0.4294(2) 0.60828(18) -0.55859(19)
H3A H 0.4423 0.5910 -0.5361
C9A C 0.23700(19) 0.80604(19) -0.3244(2)
O16A O 0.19768(18) 0.33071(15) -0.30334(17)
C10A C 0.4138(2) 0.6264(2) -0.3180(2)
H4A H 0.4182 0.6238 -0.3523
N5A N 0.3530(2) 0.6916(2) -0.47998(17)
C11A C 0.3304(2) 0.57036(19) -0.0559(2)
C12A C 0.43283(17) 0.59975(17) -0.2841(2)
C13A C 0.24006(19) 0.79756(19) -0.3788(2)
C14A C 0.4066(2) 0.6405(2) -0.54109(19)
C15A C 0.42648(16) 0.60390(16) -0.23326(18)
H5A H 0.4387 0.5860 -0.2110
C16A C 0.43326(18) 0.60136(17) -0.61146(19)
C17A C 0.3863(2) 0.6662(2) -0.5746(2)
C18A C 0.1961(2) 0.3654(2) -0.2830(3)
C19A C 0.40156(17) 0.63509(17) -0.21533(18)
C20A C 0.39046(17) 0.65933(16) -0.62649(18)
C21A C 0.2450(2) 0.7792(2) -0.4800(2)
H6A H 0.2468 0.7734 -0.5140
C22A C 0.3630(3) 0.6856(3) -0.3834(2)
C23A C 0.21249(17) 0.8149(2) -0.4137(2)
H7A H 0.1925 0.8327 -0.4026
C24A C 0.38314(19) 0.66083(18) -0.24890(18)
H8A H 0.3666 0.6816 -0.2372
C25A C 0.3776(3) 0.6663(3) -0.4599(2)
C26A C 0.2690(2) 0.7698(2) -0.39564(19)
H9A H 0.2861 0.7570 -0.3728
C27A C 0.2725(3) 0.7612(2) -0.4467(2)
C28A C 0.1581(2) 0.3900(2) -0.2822(3)
C29A C 0.3063(3) 0.5321(2) -0.0537(3)
C30A C 0.3183(3) 0.5011(2) -0.0209(2)
H10A H 0.3415 0.5040 -0.0016
O17A O 0.17357(18) 0.77940(14) -0.2350(2)
O18A O 0.22485(18) 0.75121(14) -0.1941(2)
C31A C 0.3295(3) 0.7116(3) -0.4466(2)
N6A N 0.3011(2) 0.7359(3) -0.46785(18)
H11A H 0.3008 0.7355 -0.5001
C32A C 0.41471(18) 0.62652(17) -0.64345(17)
H12A H 0.4178 0.6224 -0.6777
O19A O 0.3444(4) 0.4323(2) 0.0307(3)
N7A N 0.2188(3) 0.47994(19) -0.1150(3)
H13A H 0.2118 0.4548 -0.1158
N8A N 0.1843(3) 0.60654(16) -0.1711(3)
H14A H 0.2022 0.6142 -0.1497
N9A N 0.1267(3) 0.4931(2) -0.2439(4)
H15A H 0.1099 0.5096 -0.2577
C33A C 0.2630(3) 0.4601(2) -0.0483(3)
H16A H 0.2492 0.4355 -0.0467
C34A C 0.1254(3) 0.4534(2) -0.2609(4)
C35A C 0.1777(4) 0.5652(2) -0.1742(4)
N10A N 0.2017(3) 0.54412(19) -0.1414(3)
C36A C 0.1983(3) 0.5050(2) -0.1458(4)
C37A C 0.1596(2) 0.4294(2) -0.2596(3)
H17A H 0.1832 0.4385 -0.2442
C38A C 0.2731(2) 0.52629(19) -0.0828(3)
H18A H 0.2652 0.5472 -0.1040
C39A C 0.2497(3) 0.4897(2) -0.0826(3)
N11A N 0.1714(2) 0.48548(16) -0.1770(3)
C40A C 0.1337(3) 0.6335(2) -0.2292(4)
H19A H 0.1208 0.6085 -0.2327
C41A C 0.1705(3) 0.7093(2) -0.2200(3)
N12A N 0.1519(2) 0.5504(2) -0.2062(3)
C42A C 0.1842(3) 0.6758(2) -0.1925(3)
H20A H 0.2057 0.6786 -0.1703
C43A C 0.1917(3) 0.75005(18) -0.2137(3)
C44A C 0.1375(3) 0.7040(2) -0.2492(3)
H21A H 0.1263 0.7264 -0.2653
C45A C 0.1229(3) 0.3766(2) -0.3030(3)
H22A H 0.1222 0.3510 -0.3177
C46A C 0.1653(3) 0.6377(2) -0.1988(4)
C47A C 0.2954(4) 0.4660(2) -0.0173(2)
C48A C 0.0887(3) 0.3996(2) -0.3028(3)
O20A O 0.0472(3) 0.3509(3) -0.3384(6)
C49A C 0.0492(3) 0.3849(3) -0.3232(5)
O21A O 0.0201(2) 0.4039(3) -0.3252(6)
O22A O 0.0662(2) 0.6268(2) -0.2958(4)
C50A C 0.0895(3) 0.4395(2) -0.2814(4)
H23A H 0.0663 0.4557 -0.2813
O23A O 0.0743(3) 0.6902(2) -0.3210(4)
C51A C 0.1519(3) 0.5096(2) -0.2070(4)
C52A C 0.1202(3) 0.6670(3) -0.2557(5)
C53A C 0.0856(3) 0.6606(3) -0.2950(5)
O24A O 0.2789(3) 0.4096(2) 0.0358(3)
C54A C 0.3069(5) 0.4332(3) 0.0193(4)
Cd3A Cd -0.01994(2) 0.34911(4) -0.35313(6)
O25A O -0.0489(5) 0.3840(6) -0.4287(4)
O26A O -0.0078(4) 0.2859(5) -0.3936(8)
Cd4A Cd 0.320368(11) 0.732862(13) -0.722943(13)
Cd1_2 Cd 0.5000 0.5000 -0.338728(14)
Cd1A Cd 0.5000 0.5000 -0.661272(14)
Cd1A_2 Cd 0.5000 0.5000 0.338728(14)
Cd2E Cd 0.129419(12) 0.141855(11) 0.562763(13)
Cd2F Cd 0.629419(12) 0.358145(11) -0.062763(13)
Cd2G Cd 0.141855(11) 0.870581(12) -0.562763(13)
O2A_2 O 0.47416(10) 0.54176(10) 0.72709(13)
O2F O 0.52584(10) 0.45824(10) 0.72709(13)
O3E O 0.30578(12) 0.32238(13) 0.04541(12)
O3G O 0.32238(13) 0.69422(12) -0.04541(12)
O5C O 0.56093(10) 0.53825(13) 0.67499(14)
O6A_2 O 0.46219(12) 0.56126(10) 0.65005(12)
O6F O 0.53781(12) 0.43874(10) 0.65005(12)
O7C O 0.54291(11) 0.52605(12) 0.59804(13)
O10E O 0.23878(14) 0.28988(13) 0.79409(13)
O10G O 0.28988(13) 0.76122(14) -0.79409(13)
O11E O 0.28900(13) 0.33299(13) 0.81057(13)
O11G O 0.33299(13) 0.71100(13) -0.81057(13)
O12E O 0.34116(14) 0.34693(16) -0.01653(15)
O12G O 0.34693(16) 0.65884(14) 0.01653(15)
O15A_2 O 0.22783(16) 0.37915(14) 0.73740(18)
O15C O 0.37915(14) 0.77217(16) -0.73740(18)
O16A_2 O 0.19768(18) 0.33071(15) 0.69666(17)
O16C O 0.33071(15) 0.80232(18) -0.69666(17)
O17E O 0.32643(18) 0.27940(14) 0.7350(2)
O17G O 0.27940(14) 0.67357(18) -0.7350(2)
O18E O 0.27515(18) 0.25121(14) 0.6941(2)
O18G O 0.25121(14) 0.72485(18) -0.6941(2)
O19C O 0.4323(2) 0.6556(4) -0.0307(3)
O22C O 0.6268(2) -0.0662(2) 0.2958(4)
O22F O -0.0662(2) 0.3732(2) -0.2958(4)
O23C O 0.6902(2) -0.0743(3) 0.3210(4)
O23F O -0.0743(3) 0.3098(2) -0.3210(4)
Cd3C Cd 0.34911(4) 0.01994(2) 0.35313(6)
Cd3F Cd 0.01994(2) 0.65089(4) -0.35313(6)
Cd4_2 Cd 0.267138(13) 0.320368(11) -0.277057(13)
Cd4E Cd 0.179632(11) 0.232862(13) 0.222943(13)
Cd4F Cd 0.679632(11) 0.267138(13) 0.277057(13)
Cd4G Cd 0.232862(13) 0.820368(11) -0.222943(13)
loop_
_geom_bond_atom_site_label_1
_geom_bond_atom_site_label_2
_geom_bond_site_symmetry_1
_geom_bond_site_symmetry_2
Cd1 O5 1_555 1_555
Cd2 O4 1_555 1_555
O1 C2 1_555 1_555
O2 C1 1_555 1_555
O3 C4 1_555 1_555
O4 C3 1_555 1_555
O5 C7 1_555 1_555
O6 C1 1_555 1_555
O7 Cd1 1_555 1_555
O8 C2 1_555 1_555
O9 Cd2 1_555 1_555
O10 C9 1_555 1_555
O11 C9 1_555 1_555
O12 C4 1_555 1_555
O13 Cd2 1_555 1_555
O14 Cd2 1_555 1_555
C1 C12 1_555 1_555
C2 C20 1_555 1_555
N1 H1 1_555 1_555
O15 C18 1_555 1_555
N2 C22 1_555 1_555
C3 O9 1_555 1_555
N3 H2 1_555 1_555
C4 C6 1_555 1_555
C5 N1 1_555 1_555
N4 C22 1_555 1_555
C6 C21 1_555 1_555
C7 O7 1_555 1_555
C8 H3 1_555 1_555
C9 C13 1_555 1_555
O16 C18 1_555 1_555
C10 C5 1_555 1_555
H4 C10 1_555 1_555
N5 C25 1_555 1_555
C11 O13 1_555 1_555
C12 C10 1_555 1_555
C13 C23 1_555 1_555
C14 N3 1_555 1_555
C15 C12 1_555 1_555
H5 C15 1_555 1_555
C16 C7 1_555 1_555
C17 C14 1_555 1_555
C18 C28 1_555 1_555
C19 C3 1_555 1_555
C20 C17 1_555 1_555
C21 H6 1_555 1_555
C22 N1 1_555 1_555
C23 C6 1_555 1_555
H7 C23 1_555 1_555
C24 C5 1_555 1_555
H8 C24 1_555 1_555
C25 N3 1_555 1_555
C26 C13 1_555 1_555
H9 C26 1_555 1_555
C27 C21 1_555 1_555
C28 C37 1_555 1_555
C29 C11 1_555 1_555
C30 C29 1_555 1_555
H10 C30 1_555 1_555
O17 C43 1_555 1_555
O18 C43 1_555 1_555
C31 N2 1_555 1_555
N6 C27 1_555 1_555
H11 N6 1_555 1_555
C32 C16 1_555 1_555
H12 C32 1_555 1_555
O19 C54 1_555 1_555
N7 H13 1_555 1_555
N8 H14 1_555 1_555
N9 H15 1_555 1_555
C33 H16 1_555 1_555
C34 N9 1_555 1_555
C35 N8 1_555 1_555
N10 C35 1_555 1_555
C36 N7 1_555 1_555
C37 C34 1_555 1_555
H17 C37 1_555 1_555
C38 C29 1_555 1_555
H18 C38 1_555 1_555
C39 N7 1_555 1_555
N11 C36 1_555 1_555
C40 H19 1_555 1_555
C41 C42 1_555 1_555
N12 C35 1_555 1_555
C42 H20 1_555 1_555
C43 C41 1_555 1_555
C44 C41 1_555 1_555
H21 C44 1_555 1_555
C45 C28 1_555 1_555
H22 C45 1_555 1_555
C46 N8 1_555 1_555
C47 C30 1_555 1_555
C48 C45 1_555 1_555
O20 C49 1_555 1_555
C49 C48 1_555 1_555
O21 C49 1_555 1_555
O22 C53 1_555 1_555
C50 C34 1_555 1_555
H23 C50 1_555 1_555
O23 C53 1_555 1_555
C51 N9 1_555 1_555
C52 C40 1_555 1_555
C53 C52 1_555 1_555
O24 C54 1_555 1_555
C54 C47 1_555 1_555
Cd3 O20 1_555 1_555
O25 Cd3 1_555 1_555
O26 Cd3 1_555 1_555
Cd4 O1 1_555 1_555
Cd2A O4A 1_555 1_555
O1A C2A 1_555 1_555
O2A C1A 1_555 1_555
O3A C4A 1_555 1_555
O4A C3A 1_555 1_555
O5A C7A 1_555 1_555
O6A C1A 1_555 1_555
O7A C7A 1_555 1_555
O8A C2A 1_555 1_555
O9A Cd2A 1_555 1_555
O10A C9A 1_555 1_555
O11A C9A 1_555 1_555
O12A C4A 1_555 1_555
O13A Cd2A 1_555 1_555
O14A Cd2A 1_555 1_555
C1A C12A 1_555 1_555
C2A C20A 1_555 1_555
N1A H1A 1_555 1_555
O15A C18A 1_555 1_555
N2A C22A 1_555 1_555
C3A O9A 1_555 1_555
N3A H2A 1_555 1_555
C4A C6A 1_555 1_555
C5A N1A 1_555 1_555
N4A C22A 1_555 1_555
C6A C21A 1_555 1_555
C7A C16A 1_555 1_555
C8A H3A 1_555 1_555
C9A C13A 1_555 1_555
O16A C18A 1_555 1_555
C10A C5A 1_555 1_555
H4A C10A 1_555 1_555
N5A C25A 1_555 1_555
C11A O13A 1_555 1_555
C12A C10A 1_555 1_555
C13A C23A 1_555 1_555
C14A N3A 1_555 1_555
C15A C12A 1_555 1_555
H5A C15A 1_555 1_555
C16A C8A 1_555 1_555
C17A C14A 1_555 1_555
C18A C28A 1_555 1_555
C19A C3A 1_555 1_555
C20A C17A 1_555 1_555
C21A H6A 1_555 1_555
C22A N1A 1_555 1_555
C23A C6A 1_555 1_555
H7A C23A 1_555 1_555
C24A C5A 1_555 1_555
H8A C24A 1_555 1_555
C25A N3A 1_555 1_555
C26A C13A 1_555 1_555
H9A C26A 1_555 1_555
C27A C21A 1_555 1_555
C28A C37A 1_555 1_555
C29A C11A 1_555 1_555
C30A C29A 1_555 1_555
H10A C30A 1_555 1_555
O17A C43A 1_555 1_555
O18A C43A 1_555 1_555
C31A N2A 1_555 1_555
N6A C27A 1_555 1_555
H11A N6A 1_555 1_555
C32A C16A 1_555 1_555
H12A C32A 1_555 1_555
O19A Cd2 1_555 1_555
N7A H13A 1_555 1_555
N8A H14A 1_555 1_555
N9A H15A 1_555 1_555
C33A H16A 1_555 1_555
C34A N9A 1_555 1_555
C35A N8A 1_555 1_555
N10A C35A 1_555 1_555
C36A N7A 1_555 1_555
C37A C34A 1_555 1_555
H17A C37A 1_555 1_555
C38A C29A 1_555 1_555
H18A C38A 1_555 1_555
C39A N7A 1_555 1_555
N11A C36A 1_555 1_555
C40A H19A 1_555 1_555
C41A C42A 1_555 1_555
N12A C35A 1_555 1_555
C42A H20A 1_555 1_555
C43A C41A 1_555 1_555
C44A C41A 1_555 1_555
H21A C44A 1_555 1_555
C45A C28A 1_555 1_555
H22A C45A 1_555 1_555
C46A N8A 1_555 1_555
C47A C30A 1_555 1_555
C48A C45A 1_555 1_555
O20A C49A 1_555 1_555
C49A C48A 1_555 1_555
O21A C49A 1_555 1_555
O22A C53A 1_555 1_555
C50A C34A 1_555 1_555
H23A C50A 1_555 1_555
O23A C53A 1_555 1_555
C51A N9A 1_555 1_555
C52A C40A 1_555 1_555
C53A C52A 1_555 1_555
O24A C54A 1_555 1_555
C54A O19A 1_555 1_555
Cd3A O20A 1_555 1_555
O25A Cd3A 1_555 1_555
O26A Cd3A 1_555 1_555
Cd4A O1A 1_555 1_555
Cd1_2 O2A 1_555 1_555
Cd1A O5A 1_555 1_555
Cd1A_2 O2 1_555 1_555
Cd2E O3 1_555 1_555
Cd2F O19 1_555 1_555
Cd2G O3A 1_555 1_555
O2A_2 Cd1 1_555 1_555
O2F Cd1 1_555 1_555
O3E Cd2 1_555 1_555
O3G Cd2A 1_555 1_555
O5C Cd1 1_555 1_555
O6A_2 Cd1 1_555 1_555
O6F Cd1 1_555 1_555
O7C Cd1 1_555 1_555
O10E Cd4 1_555 1_555
O10G Cd4A 1_555 1_555
O11E Cd4 1_555 1_555
O11G Cd4A 1_555 1_555
O12E Cd2 1_555 1_555
O12G Cd2A 1_555 1_555
O15A_2 Cd4 1_555 1_555
O15C Cd4A 1_555 1_555
O16A_2 Cd4 1_555 1_555
O16C Cd4A 1_555 1_555
O17E Cd4 1_555 1_555
O17G Cd4A 1_555 1_555
O18E Cd4 1_555 1_555
O18G Cd4A 1_555 1_555
O19C Cd2A 1_555 1_555
O22C Cd3 1_555 1_555
O22F Cd3A 1_555 1_555
O23C Cd3 1_555 1_555
O23F Cd3A 1_555 1_555
Cd3C O22 1_555 1_555
Cd3F O22A 1_555 1_555
Cd4_2 O15A 1_555 1_555
Cd4E O10 1_555 1_555
Cd4F O15 1_555 1_555
Cd4G O10A 1_555 1_555
O6 Cd1A_2 1_555 1_555
O8 Cd4 1_555 1_555
O11 Cd4E 1_555 1_555
O12 Cd2E 1_555 1_555
O14 C11 1_555 1_555
N4 C25 1_555 1_555
C8 C14 1_555 1_555
C8 C16 1_555 1_555
O16 Cd4F 1_555 1_555
N5 C31 1_555 1_555
C15 C19 1_555 1_555
C19 C24 1_555 1_555
C20 C32 1_555 1_555
C26 C27 1_555 1_555
O17 Cd4E 1_555 1_555
O18 Cd4E 1_555 1_555
C31 N6 1_555 1_555
C33 C39 1_555 1_555
C33 C47 1_555 1_555
N10 C36 1_555 1_555
C38 C39 1_555 1_555
N11 C51 1_555 1_555
C40 C46 1_555 1_555
N12 C51 1_555 1_555
C42 C46 1_555 1_555
C44 C52 1_555 1_555
C48 C50 1_555 1_555
O21 Cd3 1_555 1_555
O23 Cd3C 1_555 1_555
O6A Cd1_2 1_555 1_555
O7A Cd1A 1_555 1_555
O8A Cd4A 1_555 1_555
O11A Cd4G 1_555 1_555
O12A Cd2G 1_555 1_555
O14A C11A 1_555 1_555
N4A C25A 1_555 1_555
C8A C14A 1_555 1_555
O16A Cd4_2 1_555 1_555
N5A C31A 1_555 1_555
C15A C19A 1_555 1_555
C19A C24A 1_555 1_555
C20A C32A 1_555 1_555
C26A C27A 1_555 1_555
O17A Cd4G 1_555 1_555
O18A Cd4G 1_555 1_555
C31A N6A 1_555 1_555
C33A C39A 1_555 1_555
C33A C47A 1_555 1_555
N10A C36A 1_555 1_555
C38A C39A 1_555 1_555
N11A C51A 1_555 1_555
C40A C46A 1_555 1_555
N12A C51A 1_555 1_555
C42A C46A 1_555 1_555
C44A C52A 1_555 1_555
C47A C54A 1_555 1_555
C48A C50A 1_555 1_555
O21A Cd3A 1_555 1_555
O23A Cd3F 1_555 1_555

#END
