
#######################################################################
#
#                 Cambridge Crystallographic Data Centre
#                                CCDC 
#
#######################################################################
#
# If this CIF has been generated from an entry in the Cambridge 
# Structural Database, then it will include bibliographic, chemical, 
# crystal, experimental, refinement or atomic coordinate data resulting 
# from the CCDC's data processing and validation procedures.
#
#######################################################################

data_GUKNIK
_chemical_formula_moiety         '(C12 H32 Ce2 N2 O19 P2 S2)n'
_symmetry_cell_setting           triclinic
_symmetry_space_group_name_H-M   'P -1'
_symmetry_Int_Tables_number      2
_space_group_name_Hall           '-P 1'
loop_
_symmetry_equiv_pos_site_id
_symmetry_equiv_pos_as_xyz
1 x,y,z
2 -x,-y,-z
_cell_length_a                   7.3087(7)
_cell_length_b                   14.5640(12)
_cell_length_c                   6.8079(7)
_cell_angle_alpha                91.601(11)
_cell_angle_beta                 93.717(11)
_cell_angle_gamma                78.154(10)
_cell_volume                     707.655
loop_
_atom_site_label
_atom_site_type_symbol
_atom_site_fract_x
_atom_site_fract_y
_atom_site_fract_z
_atom_site_U_iso_or_equiv
_atom_site_thermal_displace_type
Ce1 Ce 0.7578(10) 0.4996(5) 0.1753(10) 0.0030 Uiso
P1 P 0.7936(22) 0.4290(9) -0.2959(24) 0.0250 Uiso
O1 O 0.9353(27) 0.4611(24) -0.1463(30) 0.0250 Uiso
O2 O 0.6028(23) 0.4453(23) -0.210(5) 0.0250 Uiso
O3 O 0.786(5) 0.4784(16) -0.4912(30) 0.0250 Uiso
C1 C 0.869(6) 0.3061(9) -0.335(4) 0.0250 Uiso
N1 N 0.849(4) 0.2263(19) -0.212(4) 0.0250 Uiso
C2 C 0.846(8) 0.1430(18) -0.343(5) 0.0250 Uiso
C3 C 1.020(8) 0.0704(24) -0.275(4) 0.0250 Uiso
C4 C 0.978(10) 0.0411(9) -0.0729(28) 0.0250 Uiso
C5 C 0.983(8) 0.1273(8) 0.0583(34) 0.0250 Uiso
C6 C 1.021(6) 0.2022(19) -0.076(5) 0.0250 Uiso
S1 S 0.5170(32) 0.7032(18) -0.144(4) 0.0250 Uiso
O4 O 0.476(6) 0.7889(24) -0.034(6) 0.0250 Uiso
O5 O 0.565(7) 0.7278(31) -0.334(5) 0.0250 Uiso
O6 O 0.661(7) 0.6466(26) -0.010(8) 0.0250 Uiso
O7 O 0.345(5) 0.6680(22) -0.166(8) 0.0250 Uiso
O8 O 1.002(6) 0.3518(22) 0.248(7) 0.0250 Uiso
Ce1A Ce 1.2422(10) -0.4996(5) -0.1753(10) 0.0030 Uiso
Ce1A_2 Ce 1.2422(10) 0.5004(5) -0.1753(10) 0.0030 Uiso
Ce1A_3 Ce 0.2422(10) 0.5004(5) -0.1753(10) 0.0030 Uiso
Ce1_2 Ce 0.7578(10) 0.4996(5) -0.8247(10) 0.0030 Uiso
Ce1_3 Ce 0.7578(10) -0.5004(5) 0.1753(10) 0.0030 Uiso
Ce1_4 Ce 1.7578(10) -0.5004(5) 0.1753(10) 0.0030 Uiso
Ce1A_4 Ce 1.2422(10) -0.4996(5) 0.8247(10) 0.0030 Uiso
P1A P 1.2064(22) -0.4290(9) 0.2959(24) 0.0250 Uiso
O1A O 1.0647(27) -0.4611(24) 0.1463(30) 0.0250 Uiso
O1A_2 O 1.0647(27) 0.5389(24) 0.1463(30) 0.0250 Uiso
O1_2 O 0.9353(27) -0.5389(24) -0.1463(30) 0.0250 Uiso
O2A O 1.3972(23) -0.4453(23) 0.210(5) 0.0250 Uiso
O2A_2 O 0.3972(23) 0.5547(23) 0.210(5) 0.0250 Uiso
O2_2 O 1.6028(23) -0.5547(23) -0.210(5) 0.0250 Uiso
O3A O 1.214(5) -0.4784(16) 0.4912(30) 0.0250 Uiso
O3_2 O 0.786(5) 0.4784(16) 0.5088(30) 0.0250 Uiso
O3A_2 O 1.214(5) -0.4784(16) -0.5088(30) 0.0250 Uiso
C1A C 1.131(6) -0.3061(9) 0.335(4) 0.0250 Uiso
N1A N 1.151(4) -0.2263(19) 0.212(4) 0.0250 Uiso
C2A C 1.154(8) -0.1430(18) 0.343(5) 0.0250 Uiso
C3A C 0.980(8) -0.0704(24) 0.275(4) 0.0250 Uiso
C4A C 1.022(10) -0.0411(9) 0.0729(28) 0.0250 Uiso
C5A C 1.017(8) -0.1273(8) -0.0583(34) 0.0250 Uiso
C6A C 0.979(6) -0.2022(19) 0.076(5) 0.0250 Uiso
S1A S 0.4830(32) 0.2968(18) 0.144(4) 0.0250 Uiso
O4A O 0.524(6) 0.2111(24) 0.034(6) 0.0250 Uiso
O5A O 0.435(7) 0.2722(31) 0.334(5) 0.0250 Uiso
O6A O 0.339(7) 0.3534(26) 0.010(8) 0.0250 Uiso
O6A_2 O 1.339(7) -0.6466(26) 0.010(8) 0.0250 Uiso
O7A O 0.655(5) 0.3320(22) 0.166(8) 0.0250 Uiso
O7_2 O 1.345(5) -0.3320(22) -0.166(8) 0.0250 Uiso
O8A O 0.998(6) -0.3518(22) -0.248(7) 0.0250 Uiso
O9 O 0.451(8) 0.0741(18) 0.108(5) 0.0250 Uiso
O10 O 0.3199(24) 0.0381(26) 0.444(6) 0.0250 Uiso
O11 O 0.778(7) 0.1211(31) 0.324(6) 0.0250 Uiso
loop_
_geom_bond_atom_site_label_1
_geom_bond_atom_site_label_2
_geom_bond_site_symmetry_1
_geom_bond_site_symmetry_2
Ce1 O1 1_555 1_555
P1 O1 1_555 1_555
O1 Ce1A_2 1_555 1_555
O2 P1 1_555 1_555
O3 P1 1_555 1_555
C1 P1 1_555 1_555
N1 C1 1_555 1_555
C2 N1 1_555 1_555
C3 C2 1_555 1_555
C4 C3 1_555 1_555
C5 C4 1_555 1_555
C6 N1 1_555 1_555
S1 O4 1_555 1_555
O5 S1 1_555 1_555
O6 Ce1 1_555 1_555
O7 S1 1_555 1_555
O8 Ce1 1_555 1_555
Ce1A O1A 1_555 1_555
Ce1A_2 O1A_2 1_555 1_555
Ce1A_3 O2 1_555 1_555
Ce1_2 O3 1_555 1_555
Ce1_3 O1A 1_555 1_555
Ce1_4 O2A 1_555 1_555
Ce1A_4 O3A 1_555 1_555
P1A O1A 1_555 1_555
O1A_2 Ce1 1_555 1_555
O1_2 Ce1A 1_555 1_555
O2A P1A 1_555 1_555
O2A_2 Ce1 1_555 1_555
O2_2 Ce1A 1_555 1_555
O3A P1A 1_555 1_555
O3_2 Ce1 1_555 1_555
O3A_2 Ce1A 1_555 1_555
C1A P1A 1_555 1_555
N1A C1A 1_555 1_555
C2A N1A 1_555 1_555
C3A C2A 1_555 1_555
C4A C4 1_555 1_555
C5A C4A 1_555 1_555
C6A N1A 1_555 1_555
S1A O4A 1_555 1_555
O5A S1A 1_555 1_555
O6A Ce1A_3 1_555 1_555
O6A_2 Ce1A 1_555 1_555
O7A Ce1 1_555 1_555
O7_2 Ce1A 1_555 1_555
O8A Ce1A 1_555 1_555
C5 C6 1_555 1_555
S1 O6 1_555 1_555
O7 Ce1A_3 1_555 1_555
Ce1_3 O1_2 1_555 1_555
C3A C4A 1_555 1_555
C5A C6A 1_555 1_555
S1A O6A 1_555 1_555
S1A O7A 1_555 1_555

#END
