
#######################################################################
#
#                 Cambridge Crystallographic Data Centre
#                                CCDC 
#
#######################################################################
#
# If this CIF has been generated from an entry in the Cambridge 
# Structural Database, then it will include bibliographic, chemical, 
# crystal, experimental, refinement or atomic coordinate data resulting 
# from the CCDC's data processing and validation procedures.
#
#######################################################################

data_ETIXIQ
_chemical_formula_moiety         '(C93 H81 N7 O14 Zn2)n'
_symmetry_cell_setting           monoclinic
_symmetry_space_group_name_H-M   'C 2/c'
_symmetry_Int_Tables_number      15
_space_group_name_Hall           '-C 2yc'
loop_
_symmetry_equiv_pos_site_id
_symmetry_equiv_pos_as_xyz
1 x,y,z
2 -x,y,1/2-z
3 1/2+x,1/2+y,z
4 1/2-x,1/2+y,1/2-z
5 -x,-y,-z
6 x,-y,1/2+z
7 1/2-x,1/2-y,-z
8 1/2+x,1/2-y,1/2+z
_cell_length_a                   44.26(3)
_cell_length_b                   15.016(9)
_cell_length_c                   14.974(9)
_cell_angle_alpha                90
_cell_angle_beta                 94.012(9)
_cell_angle_gamma                90
_cell_volume                     9927.45
loop_
_atom_site_label
_atom_site_type_symbol
_atom_site_fract_x
_atom_site_fract_y
_atom_site_fract_z
_atom_site_U_iso_or_equiv
_atom_site_thermal_displace_type
Zn1 Zn 0.21687(2) 0.25056(3) -0.00436(3) 0.0128 Uani
O1 O 0.22433(7) 0.33005(18) 0.10173(18) 0.0204 Uani
O2 O 0.23090(7) 0.64876(18) 0.41842(18) 0.0204 Uani
O3 O 0.27410(7) 0.33068(18) 0.10691(18) 0.0208 Uani
O4 O 0.28066(7) 0.64441(18) 0.42330(18) 0.0181 Uani
N1 N 0.17294(8) 0.2591(2) -0.0400(2) 0.0206 Uani
C1 C 0.27969(9) 0.4694(2) 0.3479(3) 0.0163 Uani
C2 C 0.25355(9) 0.5717(2) 0.2431(2) 0.0139 Uani
C3 C 0.25347(9) 0.5354(2) 0.3380(2) 0.0139 Uani
C4 C 0.25070(9) 0.4128(2) 0.2159(2) 0.0156 Uani
C5 C 0.25246(9) 0.5069(2) 0.1792(2) 0.0142 Uani
C6 C 0.22367(9) 0.4116(3) 0.2733(2) 0.0158 Uani
C7 C 0.22532(9) 0.4770(2) 0.3397(2) 0.0155 Uani
C8 C 0.20347(10) 0.4814(3) 0.4000(3) 0.0200 Uani
H1 H 0.2046 0.5253 0.4457 0.0240 Uiso
C9 C 0.27796(9) 0.4030(3) 0.2832(2) 0.0159 Uani
C10 C 0.25390(11) 0.6184(3) 0.0664(3) 0.0234 Uani
H2 H 0.2542 0.6344 0.0051 0.0280 Uiso
C11 C 0.25483(10) 0.6598(3) 0.2194(3) 0.0210 Uani
H3 H 0.2557 0.7046 0.2643 0.0250 Uiso
C12 C 0.30232(10) 0.4674(3) 0.4153(3) 0.0209 Uani
H4 H 0.3038 0.5133 0.4591 0.0250 Uiso
C13 C 0.25480(11) 0.6833(3) 0.1308(3) 0.0251 Uani
H5 H 0.2554 0.7444 0.1142 0.0300 Uiso
C14 C 0.29852(10) 0.3348(3) 0.2879(3) 0.0207 Uani
H6 H 0.2973 0.2889 0.2440 0.0250 Uiso
C15 C 0.32088(11) 0.3327(3) 0.3556(3) 0.0257 Uani
H7 H 0.3351 0.2852 0.3588 0.0310 Uiso
C16 C 0.24957(9) 0.3508(2) 0.1358(2) 0.0153 Uani
C17 C 0.25516(10) 0.6152(2) 0.4000(2) 0.0157 Uani
C18 C 0.32294(10) 0.3985(3) 0.4190(3) 0.0250 Uani
H8 H 0.3386 0.3967 0.4657 0.0300 Uiso
C19 C 0.20007(10) 0.3521(3) 0.2682(3) 0.0210 Uani
H9 H 0.1990 0.3071 0.2236 0.0250 Uiso
C20 C 0.16424(11) 0.2976(3) -0.1183(3) 0.0260 Uani
H10 H 0.1790 0.3287 -0.1495 0.0310 Uiso
C21 C 0.25261(10) 0.5302(3) 0.0904(3) 0.0210 Uani
H11 H 0.2518 0.4854 0.0456 0.0250 Uiso
C22 C 0.17790(11) 0.3580(3) 0.3281(3) 0.0269 Uani
H12 H 0.1613 0.3179 0.3237 0.0320 Uiso
C23 C 0.13534(11) 0.2943(3) -0.1552(3) 0.0312 Uani
H13 H 0.1301 0.3216 -0.2114 0.0370 Uiso
C24 C 0.17971(11) 0.4214(3) 0.3938(3) 0.0265 Uani
H14 H 0.1645 0.4243 0.4355 0.0310 Uiso
C25 C 0.12253(12) 0.2117(4) -0.0287(4) 0.0439 Uani
H15 H 0.1081 0.1814 0.0042 0.0530 Uiso
C26 C 0.15209(12) 0.2170(4) 0.0037(3) 0.0357 Uani
H16 H 0.1580 0.1897 0.0594 0.0430 Uiso
C27 C 0.08344(12) 0.2460(4) -0.1478(5) 0.0473 Uani
C28 C 0.05888(12) 0.2459(4) -0.1805(5) 0.0507 Uani
C29 C 0.02780(12) 0.2461(4) -0.2183(5) 0.0493 Uani
C30 C 0.02319(12) 0.2933(4) -0.3076(5) 0.0494 Uani
C31 C 0.00674(12) 0.2937(4) -0.1579(5) 0.0492 Uani
C32 C 0.11386(11) 0.2509(4) -0.1099(4) 0.0373 Uani
C33 C 0.02958(14) 0.0760(5) -0.2154(5) 0.0577 Uani
H17 H 0.0500 0.0764 -0.1914 0.0690 Uiso
C34 C 0.04485(13) 0.3326(4) -0.3549(5) 0.0573 Uani
H18 H 0.0655 0.3310 -0.3330 0.0690 Uiso
C35 C 0.03653(16) 0.3747(5) -0.4346(5) 0.0631 Uani
H19 H 0.0516 0.4030 -0.4667 0.0760 Uiso
C36 C 0.00704(15) 0.3767(5) -0.4686(5) 0.0616 Uani
H20 H 0.0016 0.4060 -0.5236 0.0740 Uiso
C37 C 0.01496(15) -0.0033(5) -0.2326(5) 0.0637 Uani
H21 H 0.0252 -0.0580 -0.2207 0.0760 Uiso
C38 C 0.01474(14) 0.3348(5) -0.0789(5) 0.0587 Uani
H22 H 0.0353 0.3350 -0.0561 0.0700 Uiso
C39 C 0.01492(12) 0.1529(4) -0.2326(4) 0.0489 Uani
N1A N -0.17294(8) 0.2591(2) -0.4600(2) 0.0206 Uani
C20A C -0.16424(11) 0.2976(3) -0.3817(3) 0.0260 Uani
H10A H -0.1790 0.3287 -0.3505 0.0310 Uiso
C23A C -0.13534(11) 0.2943(3) -0.3448(3) 0.0312 Uani
H13A H -0.1301 0.3216 -0.2886 0.0370 Uiso
C25A C -0.12253(12) 0.2117(4) -0.4713(4) 0.0439 Uani
H15A H -0.1081 0.1814 -0.5042 0.0530 Uiso
C26A C -0.15209(12) 0.2170(4) -0.5037(3) 0.0357 Uani
H16A H -0.1580 0.1897 -0.5594 0.0430 Uiso
C27A C -0.08344(12) 0.2460(4) -0.3522(5) 0.0473 Uani
C28A C -0.05888(12) 0.2459(4) -0.3195(5) 0.0507 Uani
C29A C -0.02780(12) 0.2461(4) -0.2817(5) 0.0493 Uani
C30A C -0.02319(12) 0.2933(4) -0.1924(5) 0.0494 Uani
C31A C -0.00674(12) 0.2937(4) -0.3421(5) 0.0492 Uani
C32A C -0.11386(11) 0.2509(4) -0.3901(4) 0.0373 Uani
C33A C -0.02958(14) 0.0760(5) -0.2846(5) 0.0577 Uani
H17A H -0.0500 0.0764 -0.3086 0.0690 Uiso
C34A C -0.04485(13) 0.3326(4) -0.1451(5) 0.0573 Uani
H18A H -0.0655 0.3310 -0.1670 0.0690 Uiso
C35A C -0.03653(16) 0.3747(5) -0.0654(5) 0.0631 Uani
H19A H -0.0516 0.4030 -0.0333 0.0760 Uiso
C36A C -0.00704(15) 0.3767(5) -0.0314(5) 0.0616 Uani
H20A H -0.0016 0.4060 0.0236 0.0740 Uiso
C37A C -0.01496(15) -0.0033(5) -0.2674(5) 0.0637 Uani
H21A H -0.0252 -0.0580 -0.2793 0.0760 Uiso
C38A C -0.01474(14) 0.3348(5) -0.4211(5) 0.0587 Uani
H22A H -0.0353 0.3350 -0.4439 0.0700 Uiso
C39A C -0.01492(12) 0.1529(4) -0.2674(4) 0.0489 Uani
Zn1A Zn -0.21687(2) 0.25056(3) -0.49564(3) 0.0128 Uani
O1A O -0.22433(7) 0.33005(18) -0.60173(18) 0.0204 Uani
O2A O -0.23090(7) 0.64876(18) -0.91842(18) 0.0204 Uani
O3A O -0.27410(7) 0.33068(18) -0.60691(18) 0.0208 Uani
O4A O -0.28066(7) 0.64441(18) -0.92330(18) 0.0181 Uani
C1A C -0.27969(9) 0.4694(2) -0.8479(3) 0.0163 Uani
C2A C -0.25355(9) 0.5717(2) -0.7431(2) 0.0139 Uani
C3A C -0.25347(9) 0.5354(2) -0.8380(2) 0.0139 Uani
C4A C -0.25070(9) 0.4128(2) -0.7159(2) 0.0156 Uani
C5A C -0.25246(9) 0.5069(2) -0.6792(2) 0.0142 Uani
C6A C -0.22367(9) 0.4116(3) -0.7733(2) 0.0158 Uani
C7A C -0.22532(9) 0.4770(2) -0.8397(2) 0.0155 Uani
C8A C -0.20347(10) 0.4814(3) -0.9000(3) 0.0200 Uani
H1A H -0.2046 0.5253 -0.9457 0.0240 Uiso
C9A C -0.27796(9) 0.4030(3) -0.7832(2) 0.0159 Uani
C10A C -0.25390(11) 0.6184(3) -0.5664(3) 0.0234 Uani
H2A H -0.2542 0.6344 -0.5051 0.0280 Uiso
C11A C -0.25483(10) 0.6598(3) -0.7194(3) 0.0210 Uani
H3A H -0.2557 0.7046 -0.7643 0.0250 Uiso
C12A C -0.30232(10) 0.4674(3) -0.9153(3) 0.0209 Uani
H4A H -0.3038 0.5133 -0.9591 0.0250 Uiso
C13A C -0.25480(11) 0.6833(3) -0.6308(3) 0.0251 Uani
H5A H -0.2554 0.7444 -0.6142 0.0300 Uiso
C14A C -0.29852(10) 0.3348(3) -0.7879(3) 0.0207 Uani
H6A H -0.2973 0.2889 -0.7440 0.0250 Uiso
C15A C -0.32088(11) 0.3327(3) -0.8556(3) 0.0257 Uani
H7A H -0.3351 0.2852 -0.8588 0.0310 Uiso
C16A C -0.24957(9) 0.3508(2) -0.6358(2) 0.0153 Uani
C17A C -0.25516(10) 0.6152(2) -0.9000(2) 0.0157 Uani
C18A C -0.32294(10) 0.3985(3) -0.9190(3) 0.0250 Uani
H8A H -0.3386 0.3967 -0.9657 0.0300 Uiso
C19A C -0.20007(10) 0.3521(3) -0.7682(3) 0.0210 Uani
H9A H -0.1990 0.3071 -0.7236 0.0250 Uiso
C21A C -0.25261(10) 0.5302(3) -0.5904(3) 0.0210 Uani
H11A H -0.2518 0.4854 -0.5456 0.0250 Uiso
C22A C -0.17790(11) 0.3580(3) -0.8281(3) 0.0269 Uani
H12A H -0.1613 0.3179 -0.8237 0.0320 Uiso
C24A C -0.17971(11) 0.4214(3) -0.8938(3) 0.0265 Uani
H14A H -0.1645 0.4243 -0.9355 0.0310 Uiso
Zn1B Zn -0.28313(2) 0.75056(3) -1.00436(3) 0.0128 Uani
Zn1C Zn 0.28313(2) 0.75056(3) 0.50436(3) 0.0128 Uani
Zn1D Zn -0.21687(2) 0.74944(3) -0.99564(3) 0.0128 Uani
Zn1E Zn 0.21687(2) 0.74944(3) 0.49564(3) 0.0128 Uani
Zn1F Zn 0.28313(2) 0.24944(3) 0.00436(3) 0.0128 Uani
Zn1G Zn -0.28313(2) 0.24944(3) -0.50436(3) 0.0128 Uani
O2D O -0.23090(7) 0.35124(18) -0.41842(18) 0.0204 Uani
O2E O 0.23090(7) 0.35124(18) -0.08158(18) 0.0204 Uani
O3F O 0.22590(7) 0.16932(18) -0.10691(18) 0.0208 Uani
O3G O -0.22590(7) 0.16932(18) -0.39309(18) 0.0208 Uani
O4B O -0.21934(7) 0.14441(18) -0.57670(18) 0.0181 Uani
O4C O 0.21934(7) 0.14441(18) 0.07670(18) 0.0181 Uani
O5 O 0.12148(9) 0.6599(2) 0.1271(3) 0.0453 Uani
N2 N 0.14711(9) 0.5323(3) 0.1113(3) 0.0332 Uani
C40 C 0.12372(12) 0.5842(3) 0.0958(4) 0.0376 Uani
H23 H 0.1073 0.5623 0.0579 0.0450 Uiso
C41 C 0.17303(12) 0.5616(4) 0.1644(4) 0.0433 Uani
H24 H 0.1702 0.6237 0.1821 0.0650 Uiso
H25 H 0.1909 0.5570 0.1297 0.0650 Uiso
H26 H 0.1758 0.5243 0.2181 0.0650 Uiso
C42 C 0.14718(15) 0.4427(3) 0.0776(4) 0.0470 Uani
H27 H 0.1299 0.4343 0.0338 0.0700 Uiso
H28 H 0.1456 0.4007 0.1272 0.0700 Uiso
H29 H 0.1660 0.4318 0.0488 0.0700 Uiso
O6 O 0.08623(17) 0.0107(5) 0.4167(6) 0.1323 Uani
N3 N 0.09089(17) 0.1567(5) 0.4534(6) 0.0925 Uani
C43 C 0.0881(2) 0.0932(7) 0.3947(7) 0.1047 Uani
H30 H 0.0873 0.1083 0.3330 0.1260 Uiso
C44 C 0.0910(2) 0.1415(8) 0.5454(6) 0.1097 Uani
H31 H 0.0710 0.1562 0.5660 0.1650 Uiso
H32 H 0.1064 0.1790 0.5768 0.1650 Uiso
H33 H 0.0955 0.0787 0.5580 0.1650 Uiso
C45 C 0.0924(4) 0.2479(7) 0.4201(9) 0.1611 Uani
H34 H 0.0900 0.2476 0.3546 0.2420 Uiso
H35 H 0.1120 0.2740 0.4399 0.2420 Uiso
H36 H 0.0761 0.2832 0.4437 0.2420 Uiso
O7 O 0.1445(3) 0.1687(10) 0.2047(8) 0.1003 Uani
N4 N 0.14869(13) 0.0322(4) 0.2848(4) 0.0665 Uani
C46 C 0.1290(3) 0.0115(7) 0.2201(7) 0.1233 Uani
H37 H 0.1263 -0.0532 0.2182 0.1850 Uiso
H38 H 0.1361 0.0321 0.1631 0.1850 Uiso
H39 H 0.1096 0.0401 0.2300 0.1850 Uiso
C47 C 0.16063(18) -0.0237(6) 0.3539(4) 0.0720 Uani
H40 H 0.1496 -0.0141 0.4076 0.1080 Uiso
H41 H 0.1821 -0.0101 0.3671 0.1080 Uiso
H42 H 0.1584 -0.0860 0.3350 0.1080 Uiso
C48 C 0.1610(3) 0.1160(7) 0.2734(8) 0.1200 Uani
H43 H 0.1785 0.1369 0.3073 0.1440 Uiso
O8 O 0.0790(2) 0.5222(6) 0.4348(7) 0.1665 Uani
N5 N 0.07055(18) 0.4649(6) 0.2957(7) 0.1257 Uani
C49 C 0.0910(3) 0.4877(10) 0.3572(10) 0.1695 Uani
H44 H 0.1121 0.4818 0.3507 0.2040 Uiso
C50 C 0.0393(2) 0.4588(8) 0.2927(10) 0.1405 Uani
H45 H 0.0334 0.3962 0.2966 0.2110 Uiso
H46 H 0.0306 0.4841 0.2363 0.2110 Uiso
H47 H 0.0318 0.4919 0.3431 0.2110 Uiso
C51 C 0.0821(4) 0.4297(16) 0.2114(12) 0.2618 Uani
H48 H 0.1022 0.4546 0.2035 0.3930 Uiso
H49 H 0.0682 0.4467 0.1604 0.3930 Uiso
H50 H 0.0834 0.3646 0.2147 0.3930 Uiso
O9 O -0.0129(10) 0.751(2) 0.651(3) 0.2160 Uiso
N6 N 0.01876(19) 0.8443(5) 0.5832(6) 0.1052 Uani
C52 C 0.0182(3) 0.7860(8) 0.6477(8) 0.1189 Uani
H51 H 0.0351 0.7689 0.6865 0.1430 Uiso
C53 C 0.0456(3) 0.8936(9) 0.5677(9) 0.1467 Uani
H52 H 0.0634 0.8599 0.5908 0.2200 Uiso
H53 H 0.0451 0.9511 0.5985 0.2200 Uiso
H54 H 0.0466 0.9035 0.5033 0.2200 Uiso
C54 C -0.0083(2) 0.8659(7) 0.5243(7) 0.1072 Uani
H55 H -0.0050 0.8484 0.4627 0.1610 Uiso
H56 H -0.0122 0.9300 0.5265 0.1610 Uiso
H57 H -0.0258 0.8334 0.5445 0.1610 Uiso
O10 O 0.1044(4) 0.2504(9) 0.1973(10) 0.1430 Uiso
loop_
_atom_site_aniso_label
_atom_site_aniso_U_11
_atom_site_aniso_U_22
_atom_site_aniso_U_33
_atom_site_aniso_U_23
_atom_site_aniso_U_13
_atom_site_aniso_U_12
Zn1 0.0237(2) 0.0062(2) 0.00873(19) 0.00001(17) 0.00180(15) -0.00044(18)
O1 0.0354(17) 0.0125(14) 0.0137(13) -0.0037(11) 0.0035(12) 0.0005(12)
O2 0.0344 0.0106 0.016 -0.0035 0.0008 0.0044
O3 0.0341 0.0148 0.0139 -0.0041 0.0047 -0.0007
O4 0.0295 0.011 0.0142 -0.0036 0.0034 -0.0013
N1 0.0216(17) 0.0193(18) 0.0216(16) -0.0019(14) 0.0055(13) 0.0000(14)
C1 0.026(2) 0.0086(17) 0.0147(18) 0.0003(14) 0.0041(16) 0.0005(15)
C2 0.022(2) 0.0105(18) 0.0095(16) 0.0017(14) 0.0024(14) 0.0021(15)
C3 0.025(2) 0.0082(17) 0.0085(16) -0.0003(14) 0.0003(15) 0.0029(15)
C4 0.030(2) 0.0066(17) 0.0107(17) -0.0008(14) 0.0060(15) 0.0006(15)
C5 0.023(2) 0.0073(17) 0.0124(17) -0.0001(14) 0.0024(15) 0.0008(14)
C6 0.027(2) 0.0117(18) 0.0087(16) 0.0021(14) 0.0012(15) 0.0015(15)
C7 0.027(2) 0.0086(17) 0.0109(17) 0.0006(14) 0.0015(15) 0.0038(15)
C8 0.031(2) 0.016(2) 0.0136(18) 0.0003(15) 0.0050(16) 0.0032(17)
C9 0.025(2) 0.0110(18) 0.0120(17) -0.0010(14) 0.0039(15) -0.0002(15)
C10 0.046(3) 0.014(2) 0.0104(18) 0.0005(15) 0.0026(18) -0.0003(18)
C11 0.040(3) 0.0090(18) 0.0144(18) -0.0025(15) 0.0042(17) -0.0014(17)
C12 0.030(2) 0.016(2) 0.0163(19) -0.0016(16) -0.0004(17) 0.0010(17)
C13 0.051(3) 0.0076(18) 0.0168(19) 0.0018(15) 0.0021(19) -0.0004(18)
C14 0.033(2) 0.0098(18) 0.0198(19) -0.0001(15) 0.0052(17) 0.0045(16)
C15 0.032(2) 0.020(2) 0.025(2) -0.0006(18) 0.0003(18) 0.0063(18)
C16 0.029(2) 0.0065(17) 0.0106(17) 0.0025(14) 0.0020(16) 0.0006(15)
C17 0.031 0.0097 0.0063 0.0012 0.0015 0.0016
C18 0.030(2) 0.020(2) 0.024(2) -0.0013(17) -0.0055(18) 0.0038(18)
C19 0.032(2) 0.015(2) 0.0157(18) -0.0027(15) -0.0001(17) -0.0026(17)
C20 0.033(2) 0.018(2) 0.027(2) -0.0015(18) 0.0025(19) 0.0016(18)
C21 0.038(2) 0.0138(19) 0.0115(18) -0.0032(15) 0.0047(17) 0.0004(17)
C22 0.034(3) 0.022(2) 0.025(2) -0.0015(18) 0.0047(19) -0.0081(19)
C23 0.029(3) 0.027(3) 0.037(3) -0.004(2) -0.002(2) 0.002(2)
C24 0.032(2) 0.024(2) 0.025(2) -0.0012(18) 0.0131(19) -0.0018(18)
C25 0.032(3) 0.050(3) 0.051(3) 0.001(3) 0.012(2) -0.012(2)
C26 0.039(3) 0.034(3) 0.035(3) 0.008(2) 0.010(2) -0.003(2)
C27 0.026(3) 0.045(3) 0.071(4) -0.011(3) 0.004(3) 0.002(3)
C28 0.024(3) 0.050(4) 0.078(4) -0.013(3) 0.003(3) 0.002(3)
C29 0.021(2) 0.048(3) 0.078(4) -0.005(3) -0.003(3) 0.001(2)
C30 0.029(3) 0.043(3) 0.076(4) -0.008(3) 0.003(3) -0.004(2)
C31 0.026(3) 0.045(3) 0.076(4) 0.000(3) 0.000(3) 0.004(2)
C32 0.021(2) 0.037(3) 0.053(3) -0.006(3) -0.003(2) 0.004(2)
C33 0.033(3) 0.056(4) 0.083(5) -0.010(4) -0.003(3) 0.002(3)
C34 0.027(3) 0.054(4) 0.092(5) -0.008(4) 0.011(3) -0.006(3)
C35 0.050(4) 0.056(4) 0.085(5) -0.004(4) 0.016(4) -0.012(3)
C36 0.043(4) 0.059(4) 0.083(5) 0.011(4) 0.005(3) -0.010(3)
C37 0.047(4) 0.054(4) 0.089(5) 0.004(4) -0.004(4) 0.009(3)
C38 0.033(3) 0.061(4) 0.081(5) -0.003(4) -0.004(3) 0.008(3)
C39 0.026(3) 0.051(4) 0.069(4) 0.000(3) -0.002(3) 0.004(2)
N1A 0.0216 0.0193 0.0216 0.0019 0.0055 0
C20A 0.033 0.018 0.027 0.0015 0.0025 -0.0016
C23A 0.029 0.027 0.037 0.004 -0.002 -0.002
C25A 0.032 0.05 0.051 -0.001 0.012 0.012
C26A 0.039 0.034 0.035 -0.008 0.01 0.003
C27A 0.026 0.045 0.071 0.011 0.004 -0.002
C28A 0.024 0.05 0.078 0.013 0.003 -0.002
C29A 0.021 0.048 0.078 0.005 -0.003 -0.001
C30A 0.029 0.043 0.076 0.008 0.003 0.004
C31A 0.026 0.045 0.076 0 0 -0.004
C32A 0.021 0.037 0.053 0.006 -0.003 -0.004
C33A 0.033 0.056 0.083 0.01 -0.003 -0.002
C34A 0.027 0.054 0.092 0.008 0.011 0.006
C35A 0.05 0.056 0.085 0.004 0.016 0.012
C36A 0.043 0.059 0.083 -0.011 0.005 0.01
C37A 0.047 0.054 0.089 -0.004 -0.004 -0.009
C38A 0.033 0.061 0.081 0.003 -0.004 -0.008
C39A 0.026 0.051 0.069 0 -0.002 -0.004
Zn1A 0.0237 0.0062 0.00873 -1e-05 0.0018 0.00044
O1A 0.0354 0.0125 0.0137 0.0037 0.0035 -0.0005
O2A 0.0344 0.0106 0.016 0.0035 0.0008 -0.0044
O3A 0.0341 0.0148 0.0139 0.0041 0.0047 0.0007
O4A 0.0295 0.011 0.0142 0.0036 0.0034 0.0013
C1A 0.026 0.0086 0.0147 -0.0003 0.0041 -0.0005
C2A 0.022 0.0105 0.0095 -0.0017 0.0024 -0.0021
C3A 0.025 0.0082 0.0085 0.0003 0.0003 -0.0029
C4A 0.03 0.0066 0.0107 0.0008 0.006 -0.0006
C5A 0.023 0.0073 0.0124 0.0001 0.0024 -0.0008
C6A 0.027 0.0117 0.0087 -0.0021 0.0012 -0.0015
C7A 0.027 0.0086 0.0109 -0.0006 0.0015 -0.0038
C8A 0.031 0.016 0.0136 -0.0003 0.005 -0.0032
C9A 0.025 0.011 0.012 0.001 0.0039 0.0002
C10A 0.046 0.014 0.0104 -0.0005 0.0026 0.0003
C11A 0.04 0.009 0.0144 0.0025 0.0042 0.0014
C12A 0.03 0.016 0.0163 0.0016 -0.0004 -0.001
C13A 0.051 0.0076 0.0168 -0.0018 0.0021 0.0004
C14A 0.033 0.0098 0.0198 0.0001 0.0052 -0.0045
C15A 0.032 0.02 0.025 0.0006 0.0003 -0.0063
C16A 0.029 0.0065 0.0106 -0.0025 0.002 -0.0006
C17A 0.031 0.0097 0.0063 -0.0012 0.0015 -0.0016
C18A 0.03 0.02 0.024 0.0013 -0.0055 -0.0038
C19A 0.032 0.015 0.0157 0.0027 -0.0001 0.0026
C21A 0.038 0.0138 0.0115 0.0032 0.0047 -0.0004
C22A 0.034 0.022 0.025 0.0015 0.0047 0.0081
C24A 0.032 0.024 0.025 0.0012 0.0131 0.0018
Zn1B 0.0237 0.0062 0.00873 1e-05 0.0018 -0.00044
Zn1C 0.0237 0.0062 0.00873 -1e-05 0.0018 0.00044
Zn1D 0.0237 0.0062 0.00873 1e-05 0.0018 -0.00044
Zn1E 0.0237 0.0062 0.00873 -1e-05 0.0018 0.00044
Zn1F 0.0237 0.0062 0.00873 1e-05 0.0018 -0.00044
Zn1G 0.0237 0.0062 0.00873 -1e-05 0.0018 0.00044
O2D 0.0344 0.0106 0.016 -0.0035 0.0008 0.0044
O2E 0.0344 0.0106 0.016 0.0035 0.0008 -0.0044
O3F 0.0341 0.0148 0.0139 -0.0041 0.0047 -0.0007
O3G 0.0341 0.0148 0.0139 0.0041 0.0047 0.0007
O4B 0.0295 0.011 0.0142 -0.0036 0.0034 -0.0013
O4C 0.0295 0.011 0.0142 0.0036 0.0034 0.0013
O5 0.047(2) 0.033(2) 0.055(2) -0.0107(17) -0.0029(19) 0.0092(17)
N2 0.039(2) 0.027(2) 0.034(2) 0.0007(17) 0.0062(17) 0.0036(16)
C40 0.033(3) 0.033(2) 0.046(3) -0.002(2) -0.002(2) 0.0030(19)
C41 0.040(3) 0.034(3) 0.055(3) 0.002(2) -0.004(2) 0.006(2)
C42 0.066(4) 0.027(3) 0.049(3) -0.003(2) 0.011(3) 0.005(2)
O6 0.099(5) 0.097(5) 0.204(8) -0.028(5) 0.033(5) -0.019(4)
N3 0.086(5) 0.084(4) 0.109(5) -0.012(4) 0.017(4) 0.004(4)
C43 0.092(7) 0.092(5) 0.133(7) -0.026(5) 0.029(6) -0.006(5)
C44 0.084(7) 0.140(9) 0.105(6) -0.025(5) 0.005(5) -0.001(6)
C45 0.244(18) 0.086(6) 0.163(11) -0.017(6) 0.084(11) -0.005(7)
O7 0.112(9) 0.114(10) 0.080(8) 0.027(7) 0.043(6) -0.005(7)
N4 0.061(4) 0.089(4) 0.049(3) 0.007(3) 0.001(3) -0.001(3)
C46 0.148(8) 0.119(7) 0.096(6) -0.013(5) -0.041(6) 0.030(6)
C47 0.078(5) 0.104(6) 0.035(3) 0.003(3) 0.010(3) 0.033(4)
C48 0.134(8) 0.104(6) 0.128(8) 0.017(5) 0.052(6) -0.008(5)
O8 0.156(8) 0.122(7) 0.219(9) 0.102(7) -0.004(6) 0.006(6)
N5 0.074(5) 0.099(6) 0.206(8) 0.098(6) 0.024(5) -0.003(4)
C49 0.106(8) 0.149(11) 0.251(11) 0.091(8) -0.006(7) -0.016(8)
C50 0.085(6) 0.104(8) 0.235(13) 0.051(9) 0.030(6) 0.000(5)
C51 0.182(15) 0.34(3) 0.274(13) 0.022(14) 0.092(11) 0.007(14)
N6 0.110(5) 0.083(5) 0.126(6) 0.006(4) 0.033(4) 0.029(4)
C52 0.144(9) 0.086(7) 0.126(8) 0.010(6) 0.005(6) 0.016(6)
C53 0.120(7) 0.159(10) 0.167(11) 0.009(9) 0.052(7) -0.004(7)
C54 0.116(7) 0.087(7) 0.122(7) -0.001(6) 0.033(5) 0.016(5)
loop_
_geom_bond_atom_site_label_1
_geom_bond_atom_site_label_2
_geom_bond_site_symmetry_1
_geom_bond_site_symmetry_2
Zn1 O1 1_555 1_555
O1 C16 1_555 1_555
O2 C17 1_555 1_555
O3 C16 1_555 1_555
O4 C17 1_555 1_555
N1 Zn1 1_555 1_555
C1 C3 1_555 1_555
C2 C3 1_555 1_555
C3 C7 1_555 1_555
C4 C5 1_555 1_555
C5 C2 1_555 1_555
C6 C4 1_555 1_555
C7 C6 1_555 1_555
C8 C7 1_555 1_555
H1 C8 1_555 1_555
C9 C1 1_555 1_555
C10 H2 1_555 1_555
C11 C2 1_555 1_555
H3 C11 1_555 1_555
C12 C1 1_555 1_555
H4 C12 1_555 1_555
C13 C10 1_555 1_555
H5 C13 1_555 1_555
C14 C9 1_555 1_555
H6 C14 1_555 1_555
C15 C14 1_555 1_555
H7 C15 1_555 1_555
C16 C4 1_555 1_555
C17 C3 1_555 1_555
C18 C12 1_555 1_555
H8 C18 1_555 1_555
C19 C6 1_555 1_555
H9 C19 1_555 1_555
C20 N1 1_555 1_555
H10 C20 1_555 1_555
C21 C5 1_555 1_555
H11 C21 1_555 1_555
C22 C19 1_555 1_555
H12 C22 1_555 1_555
C23 C20 1_555 1_555
H13 C23 1_555 1_555
C24 C8 1_555 1_555
H14 C24 1_555 1_555
C25 H15 1_555 1_555
C26 N1 1_555 1_555
H16 C26 1_555 1_555
C27 C28 1_555 1_555
C28 C29 1_555 1_555
C29 C30 1_555 1_555
C30 C34 1_555 1_555
C31 C29 1_555 1_555
C32 C23 1_555 1_555
C33 H17 1_555 1_555
C34 H18 1_555 1_555
C35 C34 1_555 1_555
H19 C35 1_555 1_555
C36 C35 1_555 1_555
H20 C36 1_555 1_555
C37 C33 1_555 1_555
H21 C37 1_555 1_555
C38 C31 1_555 1_555
H22 C38 1_555 1_555
C39 C29 1_555 1_555
O5 C40 1_555 1_555
N2 C40 1_555 1_555
C40 H23 1_555 1_555
C41 N2 1_555 1_555
H24 C41 1_555 1_555
H25 C41 1_555 1_555
H26 C41 1_555 1_555
C42 N2 1_555 1_555
H27 C42 1_555 1_555
H28 C42 1_555 1_555
H29 C42 1_555 1_555
O6 C43 1_555 1_555
N3 C43 1_555 1_555
C43 H30 1_555 1_555
C44 N3 1_555 1_555
H31 C44 1_555 1_555
H32 C44 1_555 1_555
H33 C44 1_555 1_555
C45 N3 1_555 1_555
H34 C45 1_555 1_555
H35 C45 1_555 1_555
H36 C45 1_555 1_555
O7 C48 1_555 1_555
N4 C46 1_555 1_555
C46 H37 1_555 1_555
H38 C46 1_555 1_555
H39 C46 1_555 1_555
C47 N4 1_555 1_555
H40 C47 1_555 1_555
H41 C47 1_555 1_555
H42 C47 1_555 1_555
C48 N4 1_555 1_555
H43 C48 1_555 1_555
O8 C49 1_555 1_555
N5 C49 1_555 1_555
C49 H44 1_555 1_555
C50 N5 1_555 1_555
H45 C50 1_555 1_555
H46 C50 1_555 1_555
H47 C50 1_555 1_555
C51 N5 1_555 1_555
H48 C51 1_555 1_555
H49 C51 1_555 1_555
H50 C51 1_555 1_555
O9 C52 1_555 1_555
N6 C52 1_555 1_555
C52 H51 1_555 1_555
C53 N6 1_555 1_555
H52 C53 1_555 1_555
H53 C53 1_555 1_555
H54 C53 1_555 1_555
C54 N6 1_555 1_555
H55 C54 1_555 1_555
H56 C54 1_555 1_555
H57 C54 1_555 1_555
N1A C20A 1_555 1_555
C20A H10A 1_555 1_555
C23A C20A 1_555 1_555
H13A C23A 1_555 1_555
C25A H15A 1_555 1_555
C26A N1A 1_555 1_555
H16A C26A 1_555 1_555
C27A C28A 1_555 1_555
C28A C29A 1_555 1_555
C29A C30A 1_555 1_555
C30A C31 1_555 1_555
C31A C30 1_555 1_555
C32A C23A 1_555 1_555
C33A H17A 1_555 1_555
C34A C30A 1_555 1_555
H18A C34A 1_555 1_555
C35A C34A 1_555 1_555
H19A C35A 1_555 1_555
C36A C38 1_555 1_555
H20A C36A 1_555 1_555
C37A C37 1_555 1_555
H21A C37A 1_555 1_555
C38A C36 1_555 1_555
H22A C38A 1_555 1_555
C39A C39 1_555 1_555
Zn1A N1A 1_555 1_555
O1A Zn1A 1_555 1_555
O2A C17A 1_555 1_555
O3A C16A 1_555 1_555
O4A C17A 1_555 1_555
C1A C3A 1_555 1_555
C2A C3A 1_555 1_555
C3A C7A 1_555 1_555
C4A C5A 1_555 1_555
C5A C2A 1_555 1_555
C6A C4A 1_555 1_555
C7A C6A 1_555 1_555
C8A C7A 1_555 1_555
H1A C8A 1_555 1_555
C9A C1A 1_555 1_555
C10A H2A 1_555 1_555
C11A C2A 1_555 1_555
H3A C11A 1_555 1_555
C12A C1A 1_555 1_555
H4A C12A 1_555 1_555
C13A C10A 1_555 1_555
H5A C13A 1_555 1_555
C14A C9A 1_555 1_555
H6A C14A 1_555 1_555
C15A C14A 1_555 1_555
H7A C15A 1_555 1_555
C16A O1A 1_555 1_555
C17A C3A 1_555 1_555
C18A C12A 1_555 1_555
H8A C18A 1_555 1_555
C19A C6A 1_555 1_555
H9A C19A 1_555 1_555
C21A C5A 1_555 1_555
H11A C21A 1_555 1_555
C22A C19A 1_555 1_555
H12A C22A 1_555 1_555
C24A C8A 1_555 1_555
H14A C24A 1_555 1_555
Zn1B O4A 1_555 1_555
Zn1C O4 1_555 1_555
Zn1D O2A 1_555 1_555
Zn1E O2 1_555 1_555
Zn1F O3 1_555 1_555
Zn1G O3A 1_555 1_555
O2D Zn1A 1_555 1_555
O2E Zn1 1_555 1_555
O3F Zn1 1_555 1_555
O3G Zn1A 1_555 1_555
O4B Zn1A 1_555 1_555
O4C Zn1 1_555 1_555
C4 C9 1_555 1_555
C10 C21 1_555 1_555
C11 C13 1_555 1_555
C15 C18 1_555 1_555
C22 C24 1_555 1_555
C25 C26 1_555 1_555
C25 C32 1_555 1_555
C27 C32 1_555 1_555
C33 C39 1_555 1_555
C25A C26A 1_555 1_555
C25A C32A 1_555 1_555
C27A C32A 1_555 1_555
C29A C31A 1_555 1_555
C29A C39A 1_555 1_555
C31A C38A 1_555 1_555
C33A C37A 1_555 1_555
C33A C39A 1_555 1_555
C35A C36A 1_555 1_555
C4A C9A 1_555 1_555
C4A C16A 1_555 1_555
C10A C21A 1_555 1_555
C11A C13A 1_555 1_555
C15A C18A 1_555 1_555
C22A C24A 1_555 1_555

#END
