
#######################################################################
#
#                 Cambridge Crystallographic Data Centre
#                                CCDC 
#
#######################################################################
#
# If this CIF has been generated from an entry in the Cambridge 
# Structural Database, then it will include bibliographic, chemical, 
# crystal, experimental, refinement or atomic coordinate data resulting 
# from the CCDC's data processing and validation procedures.
#
#######################################################################

data_KINSEH
_chemical_formula_moiety         'C164 H48 Br4 N8 O48 Zn17'
_symmetry_cell_setting           orthorhombic
_symmetry_space_group_name_H-M   'P m m m'
_symmetry_Int_Tables_number      47
_space_group_name_Hall           '-P 2 2'
loop_
_symmetry_equiv_pos_site_id
_symmetry_equiv_pos_as_xyz
1 x,y,z
2 -x,-y,z
3 x,-y,-z
4 -x,y,-z
5 -x,-y,-z
6 x,y,-z
7 -x,y,z
8 x,-y,z
_cell_length_a                   10.9619(11)
_cell_length_b                   16.0098(14)
_cell_length_c                   23.383(4)
_cell_angle_alpha                90
_cell_angle_beta                 90
_cell_angle_gamma                90
_cell_volume                     4103.67
loop_
_atom_site_label
_atom_site_type_symbol
_atom_site_fract_x
_atom_site_fract_y
_atom_site_fract_z
Zn1 Zn -0.0000 0.0000 0.06283(12)
Br1 Br -0.20229(17) -0.5000 0.0000
C1 C -0.3693(10) -0.3417(6) 0.0000
C2 C -0.2364(12) -0.1936(7) 0.0000
C3 C -0.1544(13) -0.1163(8) 0.0000
C4 C -0.4351(9) -0.4234(6) 0.0000
O1 O -0.1270(6) -0.0890(4) 0.0468(3)
C5 C -0.3404(8) -0.3036(5) -0.0500(5)
H1 H -0.3669 -0.3274 -0.0850
C6 C -0.3719(14) -0.5000 0.0000
C7 C -0.2713(9) -0.2287(5) -0.0506(5)
H2 H -0.2495 -0.2033 -0.0859
N1 N -0.0000 0.0000 0.1393(10)
C8 C -0.0000 0.0000 0.2742(11)
C9 C 0.0955(14) 0.0000 0.1777(7)
H3 H 0.1740 0.0000 0.1605
C10 C 0.0973(14) 0.0000 0.2367(7)
H4 H 0.1759 0.0000 0.2538
C11 C 0.0000 0.0000 0.3291(7)
C12 C -0.0000 -0.0000 0.3778(7)
C13 C -0.0000 0.0000 0.4329(7)
C14 C -0.0971(13) 0.0000 0.47049(2)
O2 O -0.2198(16) 0.0000 0.4473(13)
C15 C -0.352(2) 0.0000 0.4519(8)
O3 O -0.4138(18) 0.0000 0.3973(8)
O4 O -0.409(3) 0.0000 0.5000
C16 C -0.5000 0.0000 0.3503(10)
C17 C -0.434(3) -0.001(5) 0.2941(10)
C18 C -0.581(5) -0.075(2) 0.353(3)
C1B C -0.3693(10) -0.6583(6) 0.0000
C2B C -0.2364(12) -0.8064(7) 0.0000
C3B C -0.1544(13) -0.8837(8) 0.0000
C4B C -0.4351(9) -0.5766(6) 0.0000
O1B O -0.1270(6) -0.9110(4) -0.0468(3)
C5B C -0.3404(8) -0.6964(5) 0.0500(5)
H1B H -0.3669 -0.6726 0.0850
C7B C -0.2713(9) -0.7713(5) 0.0506(5)
H2B H -0.2495 -0.7967 0.0859
Br1A Br -0.79771(17) -0.5000 0.0000
C1C C -0.6307(10) -0.3417(6) 0.0000
C2C C -0.7636(12) -0.1936(7) 0.0000
C3C C -0.8456(13) -0.1163(8) 0.0000
C4C C -0.5649(9) -0.4234(6) 0.0000
O1C O -0.8730(6) -0.0890(4) -0.0468(3)
C5C C -0.6596(8) -0.3036(5) 0.0500(5)
H1C H -0.6331 -0.3274 0.0850
C6A C -0.6281(14) -0.5000 0.0000
C7C C -0.7287(9) -0.2287(5) 0.0506(5)
H2C H -0.7505 -0.2033 0.0859
C1A C -0.6307(10) -0.6583(6) 0.0000
C2A C -0.7636(12) -0.8064(7) 0.0000
C3A C -0.8456(13) -0.8837(8) 0.0000
C4A C -0.5649(9) -0.5766(6) 0.0000
O1D O -0.8730(6) -0.9110(4) -0.0468(3)
C5D C -0.6596(8) -0.6964(5) 0.0500(5)
H1D H -0.6331 -0.6726 0.0850
C7D C -0.7287(9) -0.7713(5) 0.0506(5)
H2D H -0.7505 -0.7967 0.0859
O1E O -0.1270(6) -0.0890(4) -0.0468(3)
C5E C -0.3404(8) -0.3036(5) 0.0500(5)
H1E H -0.3669 -0.3274 0.0850
C7E C -0.2713(9) -0.2287(5) 0.0506(5)
H2E H -0.2495 -0.2033 0.0859
O1F O -0.8730(6) -0.0890(4) 0.0468(3)
C5F C -0.6596(8) -0.3036(5) -0.0500(5)
H1F H -0.6331 -0.3274 -0.0850
C7F C -0.7287(9) -0.2287(5) -0.0506(5)
H2F H -0.7505 -0.2033 -0.0859
O1G O -0.1270(6) -0.9110(4) 0.0468(3)
C5G C -0.3404(8) -0.6964(5) -0.0500(5)
H1G H -0.3669 -0.6726 -0.0850
C7G C -0.2713(9) -0.7713(5) -0.0506(5)
H2G H -0.2495 -0.7967 -0.0859
O1A O -0.8730(6) -0.9110(4) 0.0468(3)
C5A C -0.6596(8) -0.6964(5) -0.0500(5)
H1A H -0.6331 -0.6726 -0.0850
C7A C -0.7287(9) -0.7713(5) -0.0506(5)
H2A H -0.7505 -0.7967 -0.0859
N1_2 N -1.0000 0.0000 0.1393(10)
C8_2 C -1.0000 0.0000 0.2742(11)
C9A C -1.0955(14) 0.0000 0.1777(7)
H3A H -1.1740 0.0000 0.1605
C10A C -1.0973(14) 0.0000 0.2367(7)
H4A H -1.1759 0.0000 0.2538
C11_2 C -1.0000 0.0000 0.3291(7)
C12_2 C -1.0000 -0.0000 0.3778(7)
C13_2 C -1.0000 0.0000 0.4329(7)
C14A C -0.9029(13) 0.0000 0.47049(2)
O2A O -0.7802(16) 0.0000 0.4473(13)
C15A C -0.648(2) 0.0000 0.4519(8)
O3A O -0.5862(18) 0.0000 0.3973(8)
O4A O -0.591(3) 0.0000 0.5000
C17A C -0.566(3) 0.001(5) 0.2941(10)
C18A C -0.419(5) 0.075(2) 0.353(3)
N1B N 0.0000 0.0000 0.8607(10)
C8B C -0.0000 0.0000 0.7258(11)
C9B C 0.0955(14) 0.0000 0.8223(7)
H3B H 0.1740 0.0000 0.8395
C10B C 0.0973(14) 0.0000 0.7633(7)
H4B H 0.1759 0.0000 0.7462
C11B C -0.0000 0.0000 0.6709(7)
C12B C 0.0000 0.0000 0.6222(7)
C13B C 0.0000 0.0000 0.5671(7)
C14B C -0.0971(13) 0.0000 0.52951(2)
O2B O -0.2198(16) 0.0000 0.5527(13)
C15B C -0.352(2) 0.0000 0.5481(8)
O3B O -0.4138(18) 0.0000 0.6027(8)
C16B C -0.5000 0.0000 0.6497(10)
C17B C -0.434(3) 0.001(5) 0.7059(10)
C18B C -0.581(5) 0.075(2) 0.647(3)
N1B_2 N -1.0000 0.0000 0.8607(10)
C8B_2 C -1.0000 0.0000 0.7258(11)
C9C C -1.0955(14) 0.0000 0.8223(7)
H3C H -1.1740 0.0000 0.8395
C10C C -1.0973(14) 0.0000 0.7633(7)
H4C H -1.1759 0.0000 0.7462
C11B_2 C -1.0000 0.0000 0.6709(7)
C12B_2 C -1.0000 0.0000 0.6222(7)
C13B_2 C -1.0000 0.0000 0.5671(7)
C14C C -0.9029(13) 0.0000 0.52951(2)
O2C O -0.7802(16) 0.0000 0.5527(13)
C15C C -0.648(2) 0.0000 0.5481(8)
O3C O -0.5862(18) 0.0000 0.6027(8)
C17C C -0.566(3) -0.001(5) 0.7059(10)
C18C C -0.419(5) -0.075(2) 0.647(3)
C18D C -0.419(5) 0.075(2) 0.647(3)
C18E C -0.581(5) -0.075(2) 0.647(3)
C18F C -0.419(5) -0.075(2) 0.353(3)
C18G C -0.581(5) 0.075(2) 0.353(3)
Zn1_2 Zn -2.0000 0.0000 0.06283(12)
Br1A_2 Br -1.79771(17) 0.5000 0.0000
C1A_2 C -1.6307(10) 0.3417(6) 0.0000
C2A_2 C -1.7636(12) 0.1936(7) 0.0000
C3A_2 C -1.8456(13) 0.1163(8) 0.0000
C4A_2 C -1.5649(9) 0.4234(6) 0.0000
O1A_2 O -1.8730(6) 0.0890(4) 0.0468(3)
C5A_2 C -1.6596(8) 0.3036(5) -0.0500(5)
H1A_2 H -1.6331 0.3274 -0.0850
C6A_2 C -1.6281(14) 0.5000 0.0000
C7A_2 C -1.7287(9) 0.2287(5) -0.0506(5)
H2A_2 H -1.7505 0.2033 -0.0859
N1_3 N -2.0000 0.0000 0.1393(10)
C8_3 C -2.0000 0.0000 0.2742(11)
C9A_2 C -2.0955(14) 0.0000 0.1777(7)
H3A_2 H -2.1740 0.0000 0.1605
C10A_2 C -2.0973(14) 0.0000 0.2367(7)
H4A_2 H -2.1759 0.0000 0.2538
C11_3 C -2.0000 0.0000 0.3291(7)
C12_3 C -2.0000 -0.0000 0.3778(7)
C13_3 C -2.0000 0.0000 0.4329(7)
C14A_2 C -1.9029(13) 0.0000 0.47049(2)
O2A_2 O -1.7802(16) 0.0000 0.4473(13)
C15A_2 C -1.648(2) 0.0000 0.4519(8)
O3A_2 O -1.5862(18) 0.0000 0.3973(8)
O4A_2 O -1.591(3) 0.0000 0.5000
C16_2 C -1.5000 0.0000 0.3503(10)
C17A_2 C -1.566(3) 0.001(5) 0.2941(10)
C18A_2 C -1.419(5) 0.075(2) 0.353(3)
C1C_2 C -1.6307(10) 0.6583(6) 0.0000
C2C_2 C -1.7636(12) 0.8064(7) 0.0000
C3C_2 C -1.8456(13) 0.8837(8) 0.0000
C4C_2 C -1.5649(9) 0.5766(6) 0.0000
O1C_2 O -1.8730(6) 0.9110(4) -0.0468(3)
C5C_2 C -1.6596(8) 0.6964(5) 0.0500(5)
H1C_2 H -1.6331 0.6726 0.0850
C7C_2 C -1.7287(9) 0.7713(5) 0.0506(5)
H2C_2 H -1.7505 0.7967 0.0859
Br1_2 Br -1.20229(17) 0.5000 0.0000
C1B_2 C -1.3693(10) 0.3417(6) 0.0000
C2B_2 C -1.2364(12) 0.1936(7) 0.0000
C3B_2 C -1.1544(13) 0.1163(8) 0.0000
C4B_2 C -1.4351(9) 0.4234(6) 0.0000
O1B_2 O -1.1270(6) 0.0890(4) -0.0468(3)
C5B_2 C -1.3404(8) 0.3036(5) 0.0500(5)
H1B_2 H -1.3669 0.3274 0.0850
C6_2 C -1.3719(14) 0.5000 0.0000
C7B_2 C -1.2713(9) 0.2287(5) 0.0506(5)
H2B_2 H -1.2495 0.2033 0.0859
C1_2 C -1.3693(10) 0.6583(6) 0.0000
C2_2 C -1.2364(12) 0.8064(7) 0.0000
C3_2 C -1.1544(13) 0.8837(8) 0.0000
C4_2 C -1.4351(9) 0.5766(6) 0.0000
O1E_2 O -1.1270(6) 0.9110(4) -0.0468(3)
C5E_2 C -1.3404(8) 0.6964(5) 0.0500(5)
H1E_2 H -1.3669 0.6726 0.0850
C7E_2 C -1.2713(9) 0.7713(5) 0.0506(5)
H2E_2 H -1.2495 0.7967 0.0859
O1D_2 O -1.8730(6) 0.0890(4) -0.0468(3)
C5D_2 C -1.6596(8) 0.3036(5) 0.0500(5)
H1D_2 H -1.6331 0.3274 0.0850
C7D_2 C -1.7287(9) 0.2287(5) 0.0506(5)
H2D_2 H -1.7505 0.2033 0.0859
O1G_2 O -1.1270(6) 0.0890(4) 0.0468(3)
C5G_2 C -1.3404(8) 0.3036(5) -0.0500(5)
H1G_2 H -1.3669 0.3274 -0.0850
C7G_2 C -1.2713(9) 0.2287(5) -0.0506(5)
H2G_2 H -1.2495 0.2033 -0.0859
O1F_2 O -1.8730(6) 0.9110(4) 0.0468(3)
C5F_2 C -1.6596(8) 0.6964(5) -0.0500(5)
H1F_2 H -1.6331 0.6726 -0.0850
C7F_2 C -1.7287(9) 0.7713(5) -0.0506(5)
H2F_2 H -1.7505 0.7967 -0.0859
O1_2 O -1.1270(6) 0.9110(4) 0.0468(3)
C5_2 C -1.3404(8) 0.6964(5) -0.0500(5)
H1_2 H -1.3669 0.6726 -0.0850
C7_2 C -1.2713(9) 0.7713(5) -0.0506(5)
H2_2 H -1.2495 0.7967 -0.0859
C9_2 C -0.9045(14) 0.0000 0.1777(7)
H3_2 H -0.8260 0.0000 0.1605
C10_2 C -0.9027(14) 0.0000 0.2367(7)
H4_2 H -0.8241 0.0000 0.2538
C14_2 C -1.0971(13) 0.0000 0.47049(2)
O2_2 O -1.2198(16) 0.0000 0.4473(13)
C15_2 C -1.352(2) 0.0000 0.4519(8)
O3_2 O -1.4138(18) 0.0000 0.3973(8)
O4_2 O -1.409(3) 0.0000 0.5000
C17_2 C -1.434(3) -0.001(5) 0.2941(10)
C18_2 C -1.581(5) -0.075(2) 0.353(3)
N1B_3 N -2.0000 0.0000 0.8607(10)
C8B_3 C -2.0000 0.0000 0.7258(11)
C9C_2 C -2.0955(14) 0.0000 0.8223(7)
H3C_2 H -2.1740 0.0000 0.8395
C10C_2 C -2.0973(14) 0.0000 0.7633(7)
H4C_2 H -2.1759 0.0000 0.7462
C11B_3 C -2.0000 0.0000 0.6709(7)
C12B_3 C -2.0000 0.0000 0.6222(7)
C13B_3 C -2.0000 0.0000 0.5671(7)
C14C_2 C -1.9029(13) 0.0000 0.52951(2)
O2C_2 O -1.7802(16) 0.0000 0.5527(13)
C15C_2 C -1.648(2) 0.0000 0.5481(8)
O3C_2 O -1.5862(18) 0.0000 0.6027(8)
C16B_2 C -1.5000 0.0000 0.6497(10)
C17C_2 C -1.566(3) -0.001(5) 0.7059(10)
C18C_2 C -1.419(5) -0.075(2) 0.647(3)
C9B_2 C -0.9045(14) 0.0000 0.8223(7)
H3B_2 H -0.8260 0.0000 0.8395
C10B_2 C -0.9027(14) 0.0000 0.7633(7)
H4B_2 H -0.8241 0.0000 0.7462
C14B_2 C -1.0971(13) 0.0000 0.52951(2)
O2B_2 O -1.2198(16) 0.0000 0.5527(13)
C15B_2 C -1.352(2) 0.0000 0.5481(8)
O3B_2 O -1.4138(18) 0.0000 0.6027(8)
C17B_2 C -1.434(3) 0.001(5) 0.7059(10)
C18B_2 C -1.581(5) 0.075(2) 0.647(3)
C18E_2 C -1.581(5) -0.075(2) 0.647(3)
C18D_2 C -1.419(5) 0.075(2) 0.647(3)
C18G_2 C -1.581(5) 0.075(2) 0.353(3)
C18F_2 C -1.419(5) -0.075(2) 0.353(3)
Zn1B Zn 0.0000 0.0000 -0.06283(12)
Zn1B_2 Zn -2.0000 0.0000 -0.06283(12)
Zn1_3 Zn -2.0000 1.0000 0.06283(12)
Zn1_4 Zn -1.0000 -1.0000 0.06283(12)
Zn1_5 Zn -1.0000 0.0000 0.06283(12)
Zn1_6 Zn -1.0000 1.0000 0.06283(12)
Zn1_7 Zn 0.0000 -1.0000 0.06283(12)
Zn1B_3 Zn -2.0000 0.0000 0.93717(12)
Zn1B_4 Zn -2.0000 1.0000 -0.06283(12)
Zn1B_5 Zn -1.0000 -1.0000 -0.06283(12)
Zn1B_6 Zn -1.0000 0.0000 -0.06283(12)
Zn1B_7 Zn -1.0000 0.0000 0.93717(12)
Zn1B_8 Zn -1.0000 1.0000 -0.06283(12)
Zn1B_9 Zn 0.0000 -1.0000 -0.06283(12)
Zn1B_10 Zn 0.0000 0.0000 0.93717(12)
O1_3 O -2.1270(6) -0.0890(4) 0.0468(3)
O1A_3 O 0.1270(6) 0.0890(4) 0.0468(3)
O1B_3 O -2.1270(6) 0.0890(4) -0.0468(3)
O1B_4 O -0.1270(6) 0.0890(4) -0.0468(3)
O1C_3 O -1.8730(6) -0.0890(4) -0.0468(3)
O1C_4 O 0.1270(6) -0.0890(4) -0.0468(3)
O1D_3 O 0.1270(6) 0.0890(4) -0.0468(3)
O1E_3 O -2.1270(6) -0.0890(4) -0.0468(3)
O1F_3 O -1.8730(6) -0.0890(4) 0.0468(3)
O1F_4 O 0.1270(6) -0.0890(4) 0.0468(3)
O1G_3 O -2.1270(6) 0.0890(4) 0.0468(3)
O1G_4 O -0.1270(6) 0.0890(4) 0.0468(3)
N1B_4 N -2.0000 -0.0000 -0.1393(10)
N1B_5 N 0.0000 -0.0000 -0.1393(10)
C9_3 C -1.9045(14) 0.0000 0.1777(7)
C9A_3 C -0.0955(14) 0.0000 0.1777(7)
C9B_3 C -1.9045(14) 0.0000 0.8223(7)
C9C_3 C -0.0955(14) 0.0000 0.8223(7)
C10_3 C -1.9027(14) 0.0000 0.2367(7)
C10A_3 C -0.0973(14) 0.0000 0.2367(7)
C10B_3 C -1.9027(14) 0.0000 0.7633(7)
C10C_3 C -0.0973(14) 0.0000 0.7633(7)
C14_3 C -2.0971(13) 0.0000 0.47049(2)
C14A_3 C 0.0971(13) 0.0000 0.47049(2)
C14B_3 C -2.0971(13) 0.0000 0.52951(2)
C14C_3 C 0.0971(13) 0.0000 0.52951(2)
loop_
_geom_bond_atom_site_label_1
_geom_bond_atom_site_label_2
_geom_bond_site_symmetry_1
_geom_bond_site_symmetry_2
Zn1 O1 1_555 1_555
Br1 C6 1_555 1_555
C1 C4 1_555 1_555
C2 C3 1_555 1_555
C3 O1 1_555 1_555
C4 C6 1_555 1_555
C5 C1 1_555 1_555
H1 C5 1_555 1_555
C6 C4B 1_555 1_555
C7 C2 1_555 1_555
H2 C7 1_555 1_555
N1 Zn1 1_555 1_555
C8 C10 1_555 1_555
C9 N1 1_555 1_555
H3 C9 1_555 1_555
C10 C9 1_555 1_555
H4 C10 1_555 1_555
C11 C8 1_555 1_555
C12 C11 1_555 1_555
C13 C12 1_555 1_555
C14 C13 1_555 1_555
O2 C14 1_555 1_555
C15 O2 1_555 1_555
O3 C15 1_555 1_555
O4 C15 1_555 1_555
C16 O3 1_555 1_555
C17 C16 1_555 1_555
C18 C16 1_555 1_555
C1B C4B 1_555 1_555
C2B C3B 1_555 1_555
C3B O1B 1_555 1_555
C4B C4A 1_555 1_555
O1B Zn1B_9 1_555 1_555
C5B C1B 1_555 1_555
H1B C5B 1_555 1_555
C7B C2B 1_555 1_555
H2B C7B 1_555 1_555
Br1A C6A 1_555 1_555
C1C C4C 1_555 1_555
C2C C3C 1_555 1_555
C3C O1C 1_555 1_555
C4C C4 1_555 1_555
O1C Zn1B_6 1_555 1_555
C5C C1C 1_555 1_555
H1C C5C 1_555 1_555
C6A C4C 1_555 1_555
C7C C2C 1_555 1_555
H2C C7C 1_555 1_555
C1A C4A 1_555 1_555
C2A C3A 1_555 1_555
C3A O1D 1_555 1_555
C4A C6A 1_555 1_555
O1D Zn1B_5 1_555 1_555
C5D C1A 1_555 1_555
H1D C5D 1_555 1_555
C7D C2A 1_555 1_555
H2D C7D 1_555 1_555
O1E C3 1_555 1_555
C5E C1 1_555 1_555
H1E C5E 1_555 1_555
C7E C2 1_555 1_555
H2E C7E 1_555 1_555
O1F C3C 1_555 1_555
C5F C1C 1_555 1_555
H1F C5F 1_555 1_555
C7F C2C 1_555 1_555
H2F C7F 1_555 1_555
O1G C3B 1_555 1_555
C5G C1B 1_555 1_555
H1G C5G 1_555 1_555
C7G C2B 1_555 1_555
H2G C7G 1_555 1_555
O1A C3A 1_555 1_555
C5A C1A 1_555 1_555
H1A C5A 1_555 1_555
C7A C2A 1_555 1_555
H2A C7A 1_555 1_555
N1_2 C9A 1_555 1_555
C8_2 C10A 1_555 1_555
C9A H3A 1_555 1_555
C10A C9A 1_555 1_555
H4A C10A 1_555 1_555
C11_2 C8_2 1_555 1_555
C12_2 C11_2 1_555 1_555
C13_2 C12_2 1_555 1_555
C14A C13_2 1_555 1_555
O2A C14A 1_555 1_555
C15A O2A 1_555 1_555
O3A C16 1_555 1_555
O4A C15A 1_555 1_555
C17A C16 1_555 1_555
C18A O3 1_555 1_555
N1B C9B 1_555 1_555
C8B C10B 1_555 1_555
C9B H3B 1_555 1_555
C10B C9B 1_555 1_555
H4B C10B 1_555 1_555
C11B C8B 1_555 1_555
C12B C11B 1_555 1_555
C13B C12B 1_555 1_555
C14B C14 1_555 1_555
O2B C14B 1_555 1_555
C15B O4 1_555 1_555
O3B C15B 1_555 1_555
C16B O3B 1_555 1_555
C17B C16B 1_555 1_555
C18B C16B 1_555 1_555
N1B_2 C9C 1_555 1_555
C8B_2 C10C 1_555 1_555
C9C H3C 1_555 1_555
C10C C9C 1_555 1_555
H4C C10C 1_555 1_555
C11B_2 C8B_2 1_555 1_555
C12B_2 C11B_2 1_555 1_555
C13B_2 C12B_2 1_555 1_555
C14C C14A 1_555 1_555
O2C C14C 1_555 1_555
C15C O4A 1_555 1_555
O3C C16B 1_555 1_555
C17C C16B 1_555 1_555
C18C O3B 1_555 1_555
C18D O3B 1_555 1_555
C18E C16B 1_555 1_555
C18F O3 1_555 1_555
C18G C16 1_555 1_555
Zn1_2 O1A_2 1_555 1_555
Br1A_2 C6A_2 1_555 1_555
C1A_2 C4A_2 1_555 1_555
C2A_2 C3A_2 1_555 1_555
C3A_2 O1A_2 1_555 1_555
C4A_2 C6A_2 1_555 1_555
C5A_2 C1A_2 1_555 1_555
H1A_2 C5A_2 1_555 1_555
C6A_2 C4C_2 1_555 1_555
C7A_2 C2A_2 1_555 1_555
H2A_2 C7A_2 1_555 1_555
N1_3 Zn1_2 1_555 1_555
C8_3 C10A_2 1_555 1_555
C9A_2 N1_3 1_555 1_555
H3A_2 C9A_2 1_555 1_555
C10A_2 C9A_2 1_555 1_555
H4A_2 C10A_2 1_555 1_555
C11_3 C8_3 1_555 1_555
C12_3 C11_3 1_555 1_555
C13_3 C12_3 1_555 1_555
C14A_2 C13_3 1_555 1_555
O2A_2 C14A_2 1_555 1_555
C15A_2 O2A_2 1_555 1_555
O3A_2 C15A_2 1_555 1_555
O4A_2 C15A_2 1_555 1_555
C16_2 O3A_2 1_555 1_555
C17A_2 C16_2 1_555 1_555
C18A_2 C16_2 1_555 1_555
C1C_2 C4C_2 1_555 1_555
C2C_2 C3C_2 1_555 1_555
C3C_2 O1C_2 1_555 1_555
C4C_2 C4_2 1_555 1_555
O1C_2 Zn1B_4 1_555 1_555
C5C_2 C1C_2 1_555 1_555
H1C_2 C5C_2 1_555 1_555
C7C_2 C2C_2 1_555 1_555
H2C_2 C7C_2 1_555 1_555
Br1_2 C6_2 1_555 1_555
C1B_2 C4B_2 1_555 1_555
C2B_2 C3B_2 1_555 1_555
C3B_2 O1B_2 1_555 1_555
C4B_2 C4A_2 1_555 1_555
O1B_2 Zn1B_6 1_555 1_555
C5B_2 C1B_2 1_555 1_555
H1B_2 C5B_2 1_555 1_555
C6_2 C4B_2 1_555 1_555
C7B_2 C2B_2 1_555 1_555
H2B_2 C7B_2 1_555 1_555
C1_2 C4_2 1_555 1_555
C2_2 C3_2 1_555 1_555
C3_2 O1E_2 1_555 1_555
C4_2 C6_2 1_555 1_555
O1E_2 Zn1B_8 1_555 1_555
C5E_2 C1_2 1_555 1_555
H1E_2 C5E_2 1_555 1_555
C7E_2 C2_2 1_555 1_555
H2E_2 C7E_2 1_555 1_555
O1D_2 C3A_2 1_555 1_555
C5D_2 C1A_2 1_555 1_555
H1D_2 C5D_2 1_555 1_555
C7D_2 C2A_2 1_555 1_555
H2D_2 C7D_2 1_555 1_555
O1G_2 C3B_2 1_555 1_555
C5G_2 C1B_2 1_555 1_555
H1G_2 C5G_2 1_555 1_555
C7G_2 C2B_2 1_555 1_555
H2G_2 C7G_2 1_555 1_555
O1F_2 C3C_2 1_555 1_555
C5F_2 C1C_2 1_555 1_555
H1F_2 C5F_2 1_555 1_555
C7F_2 C2C_2 1_555 1_555
H2F_2 C7F_2 1_555 1_555
O1_2 C3_2 1_555 1_555
C5_2 C1_2 1_555 1_555
H1_2 C5_2 1_555 1_555
C7_2 C2_2 1_555 1_555
H2_2 C7_2 1_555 1_555
C9_2 N1_2 1_555 1_555
H3_2 C9_2 1_555 1_555
C10_2 C8_2 1_555 1_555
H4_2 C10_2 1_555 1_555
C14_2 C13_2 1_555 1_555
O2_2 C14_2 1_555 1_555
C15_2 O2_2 1_555 1_555
O3_2 C16_2 1_555 1_555
O4_2 C15_2 1_555 1_555
C17_2 C16_2 1_555 1_555
C18_2 O3A_2 1_555 1_555
N1B_3 C9C_2 1_555 1_555
C8B_3 C10C_2 1_555 1_555
C9C_2 H3C_2 1_555 1_555
C10C_2 C9C_2 1_555 1_555
H4C_2 C10C_2 1_555 1_555
C11B_3 C8B_3 1_555 1_555
C12B_3 C11B_3 1_555 1_555
C13B_3 C12B_3 1_555 1_555
C14C_2 C14A_2 1_555 1_555
O2C_2 C14C_2 1_555 1_555
C15C_2 O4A_2 1_555 1_555
O3C_2 C15C_2 1_555 1_555
C16B_2 O3C_2 1_555 1_555
C17C_2 C16B_2 1_555 1_555
C18C_2 C16B_2 1_555 1_555
C9B_2 N1B_2 1_555 1_555
H3B_2 C9B_2 1_555 1_555
C10B_2 C8B_2 1_555 1_555
H4B_2 C10B_2 1_555 1_555
C14B_2 C13B_2 1_555 1_555
O2B_2 C14B_2 1_555 1_555
C15B_2 O4_2 1_555 1_555
O3B_2 C16B_2 1_555 1_555
C17B_2 C16B_2 1_555 1_555
C18B_2 O3C_2 1_555 1_555
C18E_2 O3C_2 1_555 1_555
C18D_2 C16B_2 1_555 1_555
C18G_2 O3A_2 1_555 1_555
C18F_2 C16_2 1_555 1_555
Zn1B O1E 1_555 1_555
Zn1B_2 O1D_2 1_555 1_555
Zn1_3 O1F_2 1_555 1_555
Zn1_4 O1A 1_555 1_555
Zn1_5 O1F 1_555 1_555
Zn1_6 O1_2 1_555 1_555
Zn1_7 O1G 1_555 1_555
Zn1B_3 N1B_3 1_555 1_555
Zn1B_7 N1B_2 1_555 1_555
Zn1B_10 N1B 1_555 1_555
O1_3 Zn1_2 1_555 1_555
O1A_3 Zn1 1_555 1_555
O1B_3 Zn1B_2 1_555 1_555
O1B_4 Zn1B 1_555 1_555
O1C_3 Zn1B_2 1_555 1_555
O1C_4 Zn1B 1_555 1_555
O1D_3 Zn1B 1_555 1_555
O1E_3 Zn1B_2 1_555 1_555
O1F_3 Zn1_2 1_555 1_555
O1F_4 Zn1 1_555 1_555
O1G_3 Zn1_2 1_555 1_555
O1G_4 Zn1 1_555 1_555
N1B_4 Zn1B_2 1_555 1_555
N1B_5 Zn1B 1_555 1_555
C9_3 N1_3 1_555 1_555
C9A_3 N1 1_555 1_555
C9B_3 N1B_3 1_555 1_555
C9C_3 N1B 1_555 1_555
C10_3 C8_3 1_555 1_555
C10A_3 C8 1_555 1_555
C10B_3 C8B_3 1_555 1_555
C10C_3 C8B 1_555 1_555
C14_3 C13_3 1_555 1_555
C14A_3 C13 1_555 1_555
C14B_3 C13B_3 1_555 1_555
C14C_3 C13B 1_555 1_555
C5 C7 1_555 1_555
C16 C18A 1_555 1_555
C16 C18F 1_555 1_555
C17 C17A 1_555 1_555
C18 O3A 1_555 1_555
C18 C18F 1_555 1_555
C5B C7B 1_555 1_555
C5C C7C 1_555 1_555
C5D C7D 1_555 1_555
C5E C7E 1_555 1_555
C5F C7F 1_555 1_555
C5G C7G 1_555 1_555
C5A C7A 1_555 1_555
N1_2 Zn1_5 1_555 1_555
C15A O3A 1_555 1_555
O3A C18G 1_555 1_555
C18A C18G 1_555 1_555
C13B C14B 1_555 1_555
O2B C15B 1_555 1_555
C16B C18C 1_555 1_555
C16B C18D 1_555 1_555
C17B C17C 1_555 1_555
C18B O3C 1_555 1_555
C18B C18D 1_555 1_555
C13B_2 C14C 1_555 1_555
O2C C15C 1_555 1_555
C15C O3C 1_555 1_555
O3C C18E 1_555 1_555
C18C C18E 1_555 1_555
C5A_2 C7A_2 1_555 1_555
C16_2 C18_2 1_555 1_555
C16_2 C18G_2 1_555 1_555
C17A_2 C17_2 1_555 1_555
C18A_2 O3_2 1_555 1_555
C18A_2 C18G_2 1_555 1_555
C5C_2 C7C_2 1_555 1_555
C5B_2 C7B_2 1_555 1_555
C5E_2 C7E_2 1_555 1_555
C5D_2 C7D_2 1_555 1_555
O1G_2 Zn1_5 1_555 1_555
C5G_2 C7G_2 1_555 1_555
C5F_2 C7F_2 1_555 1_555
C5_2 C7_2 1_555 1_555
C9_2 C10_2 1_555 1_555
C14_2 C14B_2 1_555 1_555
C15_2 O3_2 1_555 1_555
O3_2 C18F_2 1_555 1_555
C18_2 C18F_2 1_555 1_555
C13B_3 C14C_2 1_555 1_555
O2C_2 C15C_2 1_555 1_555
C16B_2 C18B_2 1_555 1_555
C16B_2 C18E_2 1_555 1_555
C17C_2 C17B_2 1_555 1_555
C18C_2 O3B_2 1_555 1_555
C18C_2 C18E_2 1_555 1_555
C9B_2 C10B_2 1_555 1_555
O2B_2 C15B_2 1_555 1_555
C15B_2 O3B_2 1_555 1_555
O3B_2 C18D_2 1_555 1_555
C18B_2 C18D_2 1_555 1_555
C9_3 C10_3 1_555 1_555
C9A_3 C10A_3 1_555 1_555
C9B_3 C10B_3 1_555 1_555
C9C_3 C10C_3 1_555 1_555
C14_3 C14B_3 1_555 1_555
C14A_3 C14C_3 1_555 1_555

#END
