
#######################################################################
#
#                 Cambridge Crystallographic Data Centre
#                                CCDC 
#
#######################################################################
#
# If this CIF has been generated from an entry in the Cambridge 
# Structural Database, then it will include bibliographic, chemical, 
# crystal, experimental, refinement or atomic coordinate data resulting 
# from the CCDC's data processing and validation procedures.
#
#######################################################################

data_XACZEH
_chemical_formula_moiety         '(C24 H36 Cu4 N20 O18)n'
_symmetry_cell_setting           rhombohedral
_symmetry_space_group_name_H-M   'R -3'
_symmetry_Int_Tables_number      148
_space_group_name_Hall           '-R 3'
loop_
_symmetry_equiv_pos_site_id
_symmetry_equiv_pos_as_xyz
1 x,y,z
2 -y,x-y,z
3 -x+y,-x,z
4 2/3+x,1/3+y,1/3+z
5 2/3-y,1/3+x-y,1/3+z
6 2/3-x+y,1/3-x,1/3+z
7 1/3+x,2/3+y,2/3+z
8 1/3-y,2/3+x-y,2/3+z
9 1/3-x+y,2/3-x,2/3+z
10 -x,-y,-z
11 y,-x+y,-z
12 x-y,x,-z
13 1/3-x,2/3-y,2/3-z
14 1/3+y,2/3-x+y,2/3-z
15 1/3+x-y,2/3+x,2/3-z
16 2/3-x,1/3-y,1/3-z
17 2/3+y,1/3-x+y,1/3-z
18 2/3+x-y,1/3+x,1/3-z
_cell_length_a                   31.350(1)
_cell_length_b                   31.350(1)
_cell_length_c                   14.285(1)
_cell_angle_alpha                90
_cell_angle_beta                 90
_cell_angle_gamma                120
_cell_volume                     12158.7
loop_
_atom_site_label
_atom_site_type_symbol
_atom_site_fract_x
_atom_site_fract_y
_atom_site_fract_z
Cu1 Cu 0.51485(4) 0.03713(4) 0.07435(7)
Cu2 Cu 0.27016(4) -0.12849(4) -0.06892(7)
O1 O 0.5435(2) 0.0928(2) 0.1836(5)
H1 H 0.5286 0.1036 0.2187
H2 H 0.5726 0.1194 0.1898
O2 O 0.2487(2) -0.0682(2) -0.0865(5)
H3 H 0.2162 -0.0783 -0.0979
H4 H 0.2667 -0.0409 -0.12
O3 O 0.2941(2) -0.1203(2) -0.1976(4)
O4 O 0.2103(2) -0.1815(2) -0.1213(4)
O5 O 0.2718(3) -0.1556(3) -0.3360(5)
O6 O 0.1827(2) -0.2228(3) -0.2579(5)
C1 C 0.2639(3) -0.1522(3) -0.2533(7)
C2 C 0.2134(4) -0.1897(4) -0.2093(7)
N1 N 0.3744(3) 0.0203(3) 0.1474(6)
C3 C 0.4201(4) 0.0323(4) 0.1460(8)
H5 H 0.4475 0.0661 0.1824
N2 N 0.4433(3) 0.0139(3) 0.0925(5)
C4 C 0.4103(3) -0.0235(4) 0.0367(6)
C5 C 0.3593(4) -0.0406(4) 0.0355(6)
C6 C 0.3409(4) -0.0165(4) 0.0899(7)
N3 N 0.3375(3) -0.0784(3) -0.0285(5)
C7 C 0.3761(4) -0.0800(3) -0.0649(6)
H6 H 0.3729 -0.1028 -0.1171
N4 N 0.4198(2) -0.0489(3) -0.0261(5)
N5 N 0.2946(3) -0.0266(3) 0.0886(7)
H7 H 0.2732 -0.0486 0.0534
H8 H 0.2862 -0.0096 0.1252
N6 N 0.5119(4) 0.1522(4) -0.0799(7)
C8 C 0.5176(5) 0.1224(5) -0.0177(8)
H9 H 0.5232 0.134 0.0441
N7 N 0.5135(3) 0.0801(3) -0.0291(6)
C9 C 0.5002(4) 0.0622(4) -0.1181(7)
C10 C 0.4958(4) 0.0896(4) -0.1936(7)
C11 C 0.5031(5) 0.1363(4) -0.1702(9)
N8 N 0.4838(3) 0.0613(3) -0.2730(5)
C12 C 0.4819(4) 0.0207(4) -0.2431(6)
H10 H 0.4667 -0.0155 -0.2764
N9 N 0.4916(3) 0.0194(3) -0.1507(5)
N10 N 0.5022(5) 0.1675(4) -0.2338(7)
H11 H 0.5065 0.1954 -0.2161
H12 H 0.4957 0.1587 -0.2918
Cu1I Cu 0.48515(4) -0.03713(4) -0.07435(7)
N4I N 0.5802(2) 0.0489(3) 0.0261(5)
N9I N 0.5084(3) -0.0194(3) 0.1507(5)
N8E N 0.2442(4) -0.1505(3) 0.0603(5)
Cu2G Cu 0.46182(4) 0.06532(6) -0.40225(7)
O2G O 0.4015(2) -0.0164(3) -0.4198(5)
H3G H 0.4116 -0.0388 -0.4312
H4G H 0.3742 -0.0257 -0.453333
O3G O 0.4536(2) 0.0811(3) -0.5309(4)
C1G C 0.4855(3) 0.0828(4) -0.5866(7)
O5G O 0.4889(3) 0.0941(4) -0.6693(5)
C2G C 0.5230(4) 0.0698(6) -0.5426(7)
O4G O 0.5148(2) 0.0585(3) -0.4546(4)
N3G N 0.4117(3) 0.0826(4) -0.3618(5)
C5G C 0.3739(4) 0.0666(6) -0.2978(6)
C4G C 0.3568(4) 0.1005(5) -0.2966(6)
N2G N 0.3194(3) 0.0961(4) -0.2408(5)
Cu1G Cu 0.29620(4) 0.14439(6) -0.25898(7)
Cu1M Cu 0.37046(4) 0.18895(6) -0.40768(7)
N4M N 0.2844(3) 0.1980(4) -0.3072(5)
O1G O 0.2405(2) 0.1174(3) -0.1497(5)
H1G H 0.2297 0.0917 -0.1146
H2G H 0.2139 0.1199 -0.1435
N7G N 0.2532(3) 0.1001(4) -0.3624(6)
C8G C 0.2109(5) 0.0619(7) -0.3510(8)
N6G N 0.1811(4) 0.0264(6) -0.4132(7)
C11G C 0.1970(4) 0.0335(6) -0.5035(9)
C10G C 0.2437(4) 0.0729(6) -0.5269(7)
C9G C 0.2711(4) 0.1047(6) -0.4514(7)
N9G N 0.3139(3) 0.1389(4) -0.4840(5)
N4G N 0.3822(3) 0.1354(4) -0.3594(5)
C7G C 0.4133(3) 0.1228(5) -0.3982(6)
H6G H 0.4361 0.1424 -0.4504
N9M N 0.3527(3) 0.1945(4) -0.1826(5)
C12G C 0.3126(4) 0.1279(6) -0.5764(6)
N8G N 0.2720(3) 0.0892(4) -0.6063(5)
N10G N 0.1658(4) 0.0014(6) -0.5671(7)
H11G H 0.1379 -0.0222 -0.5494
H12G H 0.1746 0.0037 -0.6251
H9G H 0.199333 0.0559 -0.2892
C3G C 0.3010(4) 0.0545(6) -0.1873(8)
N1G N 0.3130(3) 0.0208(4) -0.1859(6)
C6G C 0.3498(4) 0.0241(6) -0.2434(7)
N5G N 0.3599(3) -0.0121(4) -0.2447(7)
H7G H 0.3819 -0.0115 -0.2799
H8G H 0.3429 -0.0375 -0.2081
H5G H 0.2672 0.0481 -0.1509
O6G O 0.5561(3) 0.0722(4) -0.5912(5)
Cu2E Cu 0.26802(6) 0.06317(4) -0.73559(7)
H10G H 0.3488 0.1489 -0.6097
O7 O 0.6429(4) 0.1598(5) -0.6318(10)
O8 O 0.6262(5) 0.1856(4) 0.1919(12)
O9 O 0.5354(5) 0.1654(5) -0.4144(9)
O10 O 0.5801(5) 0.2445(5) 0.1859(10)
O11 O 0.6081(7) 0.1474(6) -0.3575(13)
O12 O 0.6427(6) 0.2290(6) -0.3247(12)
loop_
_geom_bond_atom_site_label_1
_geom_bond_atom_site_label_2
_geom_bond_site_symmetry_1
_geom_bond_site_symmetry_2
Cu1 O1 1_555 1_555
Cu2 O2 1_555 1_555
O1 H1 1_555 1_555
H2 O1 1_555 1_555
O2 H3 1_555 1_555
H4 O2 1_555 1_555
O3 Cu2 1_555 1_555
O4 Cu2 1_555 1_555
O5 C1 1_555 1_555
O6 C2 1_555 1_555
C1 O3 1_555 1_555
C2 O4 1_555 1_555
N1 C3 1_555 1_555
C3 H5 1_555 1_555
N2 Cu1 1_555 1_555
C4 N2 1_555 1_555
C5 C4 1_555 1_555
C6 N1 1_555 1_555
N3 Cu2 1_555 1_555
C7 N3 1_555 1_555
H6 C7 1_555 1_555
N4 C4 1_555 1_555
N5 C6 1_555 1_555
H7 N5 1_555 1_555
H8 N5 1_555 1_555
N6 C8 1_555 1_555
C8 H9 1_555 1_555
N7 Cu1 1_555 1_555
C9 N7 1_555 1_555
C10 C9 1_555 1_555
C11 N6 1_555 1_555
N8 C10 1_555 1_555
C12 N8 1_555 1_555
H10 C12 1_555 1_555
N9 C9 1_555 1_555
N10 C11 1_555 1_555
H11 N10 1_555 1_555
H12 N10 1_555 1_555
Cu1I Cu1 1_555 1_555
N4I Cu1 1_555 1_555
N9I Cu1 1_555 1_555
N8E Cu2 1_555 1_555
Cu2G N8 1_555 1_555
O2G Cu2G 1_555 1_555
H3G O2G 1_555 1_555
H4G O2G 1_555 1_555
O3G Cu2G 1_555 1_555
C1G O3G 1_555 1_555
O5G C1G 1_555 1_555
C2G C1G 1_555 1_555
O4G Cu2G 1_555 1_555
N3G Cu2G 1_555 1_555
C5G N3G 1_555 1_555
C4G C5G 1_555 1_555
N2G C4G 1_555 1_555
Cu1G N2G 1_555 1_555
Cu1M Cu1G 1_555 1_555
N4M Cu1G 1_555 1_555
O1G Cu1G 1_555 1_555
H1G O1G 1_555 1_555
H2G O1G 1_555 1_555
N7G Cu1G 1_555 1_555
C8G N7G 1_555 1_555
N6G C8G 1_555 1_555
C11G N6G 1_555 1_555
C10G C11G 1_555 1_555
C9G N7G 1_555 1_555
N9G Cu1M 1_555 1_555
N4G C4G 1_555 1_555
C7G N3G 1_555 1_555
H6G C7G 1_555 1_555
N9M Cu1G 1_555 1_555
C12G N9G 1_555 1_555
N8G C10G 1_555 1_555
N10G C11G 1_555 1_555
H11G N10G 1_555 1_555
H12G N10G 1_555 1_555
H9G C8G 1_555 1_555
C3G N2G 1_555 1_555
N1G C3G 1_555 1_555
C6G C5G 1_555 1_555
N5G C6G 1_555 1_555
H7G N5G 1_555 1_555
H8G N5G 1_555 1_555
H5G C3G 1_555 1_555
O6G C2G 1_555 1_555
Cu2E N8G 1_555 1_555
H10G C12G 1_555 1_555
C1 C2 1_555 1_555
C3 N2 1_555 1_555
C5 C6 1_555 1_555
C5 N3 1_555 1_555
C7 N4 1_555 1_555
N4 Cu1I 1_555 1_555
C8 N7 1_555 1_555
C10 C11 1_555 1_555
C12 N9 1_555 1_555
N9 Cu1I 1_555 1_555
C2G O4G 1_555 1_555
Cu1M N4G 1_555 1_555
C10G C9G 1_555 1_555
C9G N9G 1_555 1_555
N4G C7G 1_555 1_555
C12G N8G 1_555 1_555
N1G C6G 1_555 1_555

#END
