
#######################################################################
#
#                 Cambridge Crystallographic Data Centre
#                                CCDC 
#
#######################################################################
#
# If this CIF has been generated from an entry in the Cambridge 
# Structural Database, then it will include bibliographic, chemical, 
# crystal, experimental, refinement or atomic coordinate data resulting 
# from the CCDC's data processing and validation procedures.
#
#######################################################################

data_EXUHUC
_chemical_formula_moiety         '(C22 H26 Mn3 N4 O18)n'
_symmetry_cell_setting           rhombohedral
_symmetry_space_group_name_H-M   'R -3'
_symmetry_Int_Tables_number      148
_space_group_name_Hall           '-R 3'
loop_
_symmetry_equiv_pos_site_id
_symmetry_equiv_pos_as_xyz
1 x,y,z
2 -y,x-y,z
3 -x+y,-x,z
4 2/3+x,1/3+y,1/3+z
5 2/3-y,1/3+x-y,1/3+z
6 2/3-x+y,1/3-x,1/3+z
7 1/3+x,2/3+y,2/3+z
8 1/3-y,2/3+x-y,2/3+z
9 1/3-x+y,2/3-x,2/3+z
10 -x,-y,-z
11 y,-x+y,-z
12 x-y,x,-z
13 1/3-x,2/3-y,2/3-z
14 1/3+y,2/3-x+y,2/3-z
15 1/3+x-y,2/3+x,2/3-z
16 2/3-x,1/3-y,1/3-z
17 2/3+y,1/3-x+y,1/3-z
18 2/3+x-y,1/3+x,1/3-z
_cell_length_a                   25.4614(9)
_cell_length_b                   25.4614(9)
_cell_length_c                   14.2628(10)
_cell_angle_alpha                90
_cell_angle_beta                 90
_cell_angle_gamma                120
_cell_volume                     8007.56
loop_
_atom_site_label
_atom_site_type_symbol
_atom_site_fract_x
_atom_site_fract_y
_atom_site_fract_z
_atom_site_U_iso_or_equiv
_atom_site_thermal_displace_type
Mn1 Mn 0.08062(3) 0.40207(3) 0.18801(4) 0.0256 Uani
Mn2 Mn -0.0000 0.5000 0.5000 0.0461 Uani
O1 O 0.06808(15) 0.41727(14) 0.33383(19) 0.0341 Uani
N1 N 0.09096(16) 0.49346(16) 0.1908(2) 0.0280 Uani
O2 O 0.0591(2) 0.47636(18) 0.4368(2) 0.0542 Uani
C1 C 0.09470(19) 0.53713(18) 0.1332(3) 0.0276 Uani
C2 C 0.1144(2) 0.54213(19) 0.0345(3) 0.0342 Uani
C3 C 0.0655(2) 0.4640(2) 0.3542(3) 0.0303 Uani
C4 C 0.07294(18) 0.50515(18) 0.2755(3) 0.0260 Uani
C5 C 0.1508(3) 0.5477(3) -0.1507(4) 0.0689 Uani
H1 H 0.1634 0.5503 -0.2126 0.0820 Uiso
C6 C 0.0868(2) 0.5575(2) -0.0366(3) 0.0413 Uani
H2 H 0.0564 0.5662 -0.0219 0.0500 Uiso
C7 C 0.1047(3) 0.5599(3) -0.1285(3) 0.0580 Uani
C8 C 0.1773(3) 0.5320(3) -0.0822(4) 0.0690 Uani
H3 H 0.2077 0.5233 -0.0973 0.0830 Uiso
C9 C 0.1591(3) 0.5289(3) 0.0115(4) 0.0501 Uani
H4 H 0.1773 0.5179 0.0582 0.0600 Uiso
C10 C 0.06606(18) 0.55569(18) 0.2651(3) 0.0260 Uani
O3 O 0.0322(2) 0.57486(17) 0.4108(2) 0.0624 Uani
C11 C 0.0477(2) 0.58981(19) 0.3279(3) 0.0327 Uani
O4 O 0.0810(4) 0.5752(4) -0.2000(4) 0.1177 Uani
H5 H 0.0794 0.5557 -0.2467 0.1770 Uiso
O5 O 0.04729(16) 0.63524(14) 0.2916(2) 0.0356 Uani
N2 N 0.08010(15) 0.57557(14) 0.1739(2) 0.0261 Uani
O6 O 0.0542(2) 0.31045(16) 0.2386(3) 0.0580 Uani
H6 H 0.0280 0.3003 0.2791 0.0870 Uiso
O7 O -0.02202(17) 0.3596(3) 0.1672(3) 0.0682 Uani
H7 H -0.0312 0.3455 0.1141 0.1020 Uiso
O8 O 0.0713(3) 0.5547(3) 0.6017(3) 0.0916 Uani
H8 H 0.1024 0.5784 0.5737 0.1370 Uiso
H9 H 0.000(7) 0.3966(14) 0.148(6) 0.2630 Uiso
H10 H 0.070(5) 0.582(3) 0.636(10) 0.2630 Uiso
H11 H 0.033(4) 0.280(4) 0.203(7) 0.2630 Uiso
Mn1I Mn -0.08062(3) 0.59793(3) 0.81199(4) 0.0256 Uani
O1I O -0.06808(15) 0.58273(14) 0.66617(19) 0.0341 Uani
N1I N -0.09096(16) 0.50654(16) 0.8092(2) 0.0280 Uani
O2I O -0.0591(2) 0.52364(18) 0.5632(2) 0.0542 Uani
C1I C -0.09470(19) 0.46287(18) 0.8668(3) 0.0276 Uani
C2I C -0.1144(2) 0.45787(19) 0.9655(3) 0.0342 Uani
C3I C -0.0655(2) 0.5360(2) 0.6458(3) 0.0303 Uani
C4I C -0.07294(18) 0.49485(18) 0.7245(3) 0.0260 Uani
C5I C -0.1508(3) 0.4523(3) 1.1507(4) 0.0689 Uani
H1I H -0.1634 0.4497 1.2126 0.0820 Uiso
C6I C -0.0868(2) 0.4425(2) 1.0366(3) 0.0413 Uani
H2I H -0.0564 0.4338 1.0219 0.0500 Uiso
C7I C -0.1047(3) 0.4401(3) 1.1285(3) 0.0580 Uani
C8I C -0.1773(3) 0.4680(3) 1.0822(4) 0.0690 Uani
H3I H -0.2077 0.4767 1.0973 0.0830 Uiso
C9I C -0.1591(3) 0.4711(3) 0.9885(4) 0.0501 Uani
H4I H -0.1773 0.4821 0.9418 0.0600 Uiso
C10I C -0.06606(18) 0.44431(18) 0.7349(3) 0.0260 Uani
O3I O -0.0322(2) 0.42514(17) 0.5892(2) 0.0624 Uani
C11I C -0.0477(2) 0.41019(19) 0.6721(3) 0.0327 Uani
O4I O -0.0810(4) 0.4248(4) 1.2000(4) 0.1177 Uani
H5I H -0.0794 0.4443 1.2467 0.1770 Uiso
O5I O -0.04729(16) 0.36476(14) 0.7084(2) 0.0356 Uani
N2I N -0.08010(15) 0.42443(14) 0.8261(2) 0.0261 Uani
O6I O -0.0542(2) 0.68955(16) 0.7614(3) 0.0580 Uani
H6I H -0.0280 0.6997 0.7209 0.0870 Uiso
O7I O 0.02202(17) 0.6404(3) 0.8328(3) 0.0682 Uani
H7I H 0.0312 0.6545 0.8859 0.1020 Uiso
O8I O -0.0713(3) 0.4453(3) 0.3983(3) 0.0916 Uani
H8I H -0.1024 0.4216 0.4263 0.1370 Uiso
H9I H 0.000(7) 0.6034(14) 0.852(6) 0.2630 Uiso
H10I H -0.070(5) 0.418(3) 0.364(10) 0.2630 Uiso
H11I H -0.033(4) 0.720(4) 0.797(7) 0.2630 Uiso
Mn1G Mn -0.06874(3) 0.34522(4) 0.85468(4) 0.0256 Uani
Mn1P Mn 0.06874(3) 0.65478(4) 0.14532(4) 0.0256 Uani
O5H O -0.07872(21) 0.61938(16) 0.9583(2) 0.0356 Uani
O5Q O 0.07872(21) 0.38062(16) 0.0417(2) 0.0356 Uani
N2H N -0.17120(21) 0.58657(15) 0.8406(2) 0.0261 Uani
N2Q N 0.17120(21) 0.41343(15) 0.1594(2) 0.0261 Uani
O9 O 0.0883(5) 0.6694(5) 0.6419(10) 0.1797 Uani
H12 H 0.068(7) 0.688(7) 0.641(12) 0.2630 Uiso
H13 H 0.104(9) 0.685(9) 0.588(7) 0.2630 Uiso
O10 O 0.1700(7) 0.5388(8) 0.5798(9) 0.2196 Uani
H14 H 0.167(9) 0.527(9) 0.522(5) 0.2630 Uiso
H15 H 0.142(6) 0.548(9) 0.571(12) 0.2630 Uiso
loop_
_atom_site_aniso_label
_atom_site_aniso_U_11
_atom_site_aniso_U_22
_atom_site_aniso_U_33
_atom_site_aniso_U_23
_atom_site_aniso_U_13
_atom_site_aniso_U_12
Mn1 0.0299(4) 0.0307(4) 0.0198(3) -0.0020(2) 0.0021(2) 0.0178(3)
Mn2 0.0828(9) 0.0482(6) 0.0242(5) 0.0079(4) 0.0154(5) 0.0455(6)
O1 0.056(2) 0.0380(16) 0.0205(13) 0.0049(11) 0.0062(12) 0.0327(16)
N1 0.0400(19) 0.0335(18) 0.0174(15) 0.0022(13) 0.0040(13) 0.0235(16)
O2 0.107(3) 0.073(3) 0.0198(15) 0.0100(15) 0.0153(17) 0.073(3)
C1 0.034(2) 0.031(2) 0.0198(17) 0.0019(14) 0.0044(15) 0.0177(17)
C2 0.049(3) 0.031(2) 0.0210(19) 0.0017(15) 0.0099(17) 0.0189(19)
C3 0.041(2) 0.040(2) 0.0190(17) 0.0054(16) 0.0057(15) 0.027(2)
C4 0.035(2) 0.0276(19) 0.0188(17) 0.0018(14) 0.0029(14) 0.0183(17)
C5 0.101(5) 0.083(5) 0.032(3) 0.008(3) 0.030(3) 0.053(4)
C6 0.061(3) 0.045(3) 0.024(2) 0.0019(18) 0.0043(19) 0.031(2)
C7 0.093(5) 0.063(4) 0.022(2) 0.005(2) 0.004(2) 0.042(3)
C8 0.090(5) 0.095(5) 0.047(3) 0.015(3) 0.035(3) 0.065(4)
C9 0.065(3) 0.058(3) 0.037(3) 0.005(2) 0.015(2) 0.038(3)
C10 0.034(2) 0.0269(19) 0.0180(16) 0.0006(14) 0.0027(14) 0.0158(16)
O3 0.131(4) 0.051(2) 0.0273(16) 0.0152(15) 0.033(2) 0.062(3)
C11 0.050(3) 0.029(2) 0.0219(18) 0.0037(15) 0.0097(17) 0.0219(19)
O4 0.177(7) 0.182(7) 0.041(3) 0.006(3) 0.004(3) 0.125(6)
O5 0.060(2) 0.0316(15) 0.0246(14) 0.0075(12) 0.0129(13) 0.0299(15)
N2 0.0337(18) 0.0250(16) 0.0195(15) 0.0021(12) 0.0039(13) 0.0146(14)
O6 0.069(3) 0.0378(19) 0.068(3) 0.0192(17) 0.031(2) 0.0272(19)
O7 0.038(2) 0.118(4) 0.042(2) -0.021(2) -0.0071(16) 0.034(2)
O8 0.101(4) 0.106(4) 0.052(3) -0.013(3) -0.002(3) 0.040(4)
Mn1I 0.0299 0.0307 0.0198 -0.002 0.0021 0.0178
O1I 0.056 0.038 0.0205 0.0049 0.0062 0.0327
N1I 0.04 0.0335 0.0174 0.0022 0.004 0.0235
O2I 0.107 0.073 0.0198 0.01 0.0153 0.073
C1I 0.034 0.031 0.0198 0.0019 0.0044 0.0177
C2I 0.049 0.031 0.021 0.0017 0.0099 0.0189
C3I 0.041 0.04 0.019 0.0054 0.0057 0.027
C4I 0.035 0.0276 0.0188 0.0018 0.0029 0.0183
C5I 0.101 0.083 0.032 0.008 0.03 0.053
C6I 0.061 0.045 0.024 0.0019 0.0043 0.031
C7I 0.093 0.063 0.022 0.005 0.004 0.042
C8I 0.09 0.095 0.047 0.015 0.035 0.065
C9I 0.065 0.058 0.037 0.005 0.015 0.038
C10I 0.034 0.0269 0.018 0.0006 0.0027 0.0158
O3I 0.131 0.051 0.0273 0.0152 0.033 0.062
C11I 0.05 0.029 0.0219 0.0037 0.0097 0.0219
O4I 0.177 0.182 0.041 0.006 0.004 0.125
O5I 0.06 0.0316 0.0246 0.0075 0.0129 0.0299
N2I 0.0337 0.025 0.0195 0.0021 0.0039 0.0146
O6I 0.069 0.0378 0.068 0.0192 0.031 0.0272
O7I 0.038 0.118 0.042 -0.021 -0.0071 0.034
O8I 0.101 0.106 0.052 -0.013 -0.002 0.04
Mn1G 0.0307 0.025 0.0198 0.0041 0.002 0.0129
Mn1P 0.0307 0.025 0.0198 0.0041 0.002 0.0129
O5H 0.0318 0.06 0.0246 -0.0129 -0.0054 0.0301
O5Q 0.0318 0.06 0.0246 -0.0129 -0.0054 0.0301
N2H 0.0295 0.0337 0.0195 -0.0039 -0.0018 0.0191
N2Q 0.0295 0.0337 0.0195 -0.0039 -0.0018 0.0191
O9 0.107(7) 0.105(6) 0.335(19) 0.020(8) -0.009(7) 0.059(5)
O10 0.277(15) 0.311(16) 0.200(12) -0.068(12) -0.049(11) 0.244(14)
loop_
_geom_bond_atom_site_label_1
_geom_bond_atom_site_label_2
_geom_bond_site_symmetry_1
_geom_bond_site_symmetry_2
Mn1 O1 1_555 1_555
Mn2 O2 1_555 1_555
O1 C3 1_555 1_555
N1 Mn1 1_555 1_555
O2 C3 1_555 1_555
C1 N1 1_555 1_555
C2 C1 1_555 1_555
C3 C4 1_555 1_555
C4 N1 1_555 1_555
C5 H1 1_555 1_555
C6 C2 1_555 1_555
H2 C6 1_555 1_555
C7 C5 1_555 1_555
C8 C5 1_555 1_555
H3 C8 1_555 1_555
C9 C2 1_555 1_555
H4 C9 1_555 1_555
C10 C4 1_555 1_555
O3 Mn2 1_555 1_555
C11 C10 1_555 1_555
O4 C7 1_555 1_555
H5 O4 1_555 1_555
O5 C11 1_555 1_555
N2 C1 1_555 1_555
O6 Mn1 1_555 1_555
H6 O6 1_555 1_555
O7 Mn1 1_555 1_555
H7 O7 1_555 1_555
O8 Mn2 1_555 1_555
H8 O8 1_555 1_555
H9 O7 1_555 1_555
H10 O8 1_555 1_555
H11 O6 1_555 1_555
O9 H12 1_555 1_555
H13 O9 1_555 1_555
O10 H14 1_555 1_555
H15 O10 1_555 1_555
Mn1I O1I 1_555 1_555
O1I C3I 1_555 1_555
N1I Mn1I 1_555 1_555
O2I Mn2 1_555 1_555
C1I N1I 1_555 1_555
C2I C1I 1_555 1_555
C3I O2I 1_555 1_555
C4I N1I 1_555 1_555
C5I H1I 1_555 1_555
C6I C2I 1_555 1_555
H2I C6I 1_555 1_555
C7I C5I 1_555 1_555
C8I C5I 1_555 1_555
H3I C8I 1_555 1_555
C9I C2I 1_555 1_555
H4I C9I 1_555 1_555
C10I C4I 1_555 1_555
O3I Mn2 1_555 1_555
C11I C10I 1_555 1_555
O4I C7I 1_555 1_555
H5I O4I 1_555 1_555
O5I C11I 1_555 1_555
N2I C1I 1_555 1_555
O6I Mn1I 1_555 1_555
H6I O6I 1_555 1_555
O7I Mn1I 1_555 1_555
H7I O7I 1_555 1_555
O8I Mn2 1_555 1_555
H8I O8I 1_555 1_555
H9I O7I 1_555 1_555
H10I O8I 1_555 1_555
H11I O6I 1_555 1_555
Mn1G O5I 1_555 1_555
Mn1P O5 1_555 1_555
O5H Mn1I 1_555 1_555
O5Q Mn1 1_555 1_555
N2H Mn1I 1_555 1_555
N2Q Mn1 1_555 1_555
C6 C7 1_555 1_555
C8 C9 1_555 1_555
C10 N2 1_555 1_555
O3 C11 1_555 1_555
N2 Mn1P 1_555 1_555
C3I C4I 1_555 1_555
C6I C7I 1_555 1_555
C8I C9I 1_555 1_555
C10I N2I 1_555 1_555
O3I C11I 1_555 1_555
N2I Mn1G 1_555 1_555

#END
