
#######################################################################
#
#                 Cambridge Crystallographic Data Centre
#                                CCDC 
#
#######################################################################
#
# If this CIF has been generated from an entry in the Cambridge 
# Structural Database, then it will include bibliographic, chemical, 
# crystal, experimental, refinement or atomic coordinate data resulting 
# from the CCDC's data processing and validation procedures.
#
#######################################################################

data_JASNEX01
_chemical_formula_moiety         '(C34 H20 N2 O8 Zn2)n'
_symmetry_cell_setting           triclinic
_symmetry_space_group_name_H-M   'P -1'
_symmetry_Int_Tables_number      2
_space_group_name_Hall           '-P 1'
loop_
_symmetry_equiv_pos_site_id
_symmetry_equiv_pos_as_xyz
1 x,y,z
2 -x,-y,-z
_cell_length_a                   12.9634(18)
_cell_length_b                   13.1087(18)
_cell_length_c                   13.8909(18)
_cell_angle_alpha                85.137(5)
_cell_angle_beta                 68.466(5)
_cell_angle_gamma                84.926(4)
_cell_volume                     2183.67
loop_
_atom_site_label
_atom_site_type_symbol
_atom_site_fract_x
_atom_site_fract_y
_atom_site_fract_z
Zn1 Zn 0.2076 0.3213 0.1611
Zn2 Zn 0.1331 0.3278 0.3898
O1 O 0.3673 0.3098 0.1495
O2 O 0.2019 -0.5258 0.1739
O3 O 0.2019 0.1680 0.2008
N1 N 0.2017 0.3215 0.0162
O4 O 1.0343 0.3311 0.2292
O5 O 0.1402 -0.5206 0.3495
N2 N 0.1316 0.3241 -0.4628
O6 O 0.3025 0.3137 0.3257
O7 O 0.9703 0.3363 0.4035
O8 O 0.1352 0.1741 0.3727
C1 C 0.1531 0.3227 -0.2700
C2 C 0.1715 0.3205 -0.1725
C3 C 0.1946 0.4091 -0.0375
C4 C 0.2212 0.2471 -0.0420
H1 H 0.2575 0.1894 -0.0223
C5 C 0.1990 0.2382 -0.1239
C6 C 0.1430 0.2347 -0.3127
C7 C 0.1534 0.2407 -0.4151
H2 H 0.1774 0.1818 -0.4520
C8 C 0.1270 0.4089 -0.3177
H3 H 0.1080 0.4694 -0.2831
C9 C 0.1593 0.4108 -0.1215
C10 C 0.9565 0.3281 0.3183
C11 C 0.1280 0.4090 -0.4111
H4 H 0.1261 0.4725 -0.4461
C12 C 0.1668 0.1268 0.2911
C13 C 0.1676 0.0127 0.3003
C14 C 0.1335 -0.0391 0.4005
H5 H 0.1154 -0.0012 0.4588
C15 C 0.1270 -0.1418 0.4126
H6 H 0.1043 -0.1738 0.4788
C16 C 0.1556 -0.2030 0.3223
C17 C 0.1893 -0.1522 0.2239
C18 C 0.2154 -0.2080 0.1356
H7 H 0.2378 -0.1756 0.0696
C19 C 0.2067 -0.3140 0.1502
H8 H 0.2211 -0.3519 0.0925
C20 C 0.1781 -0.3644 0.2456
C21 C 0.1507 -0.3094 0.3348
H9 H 0.1299 -0.3428 0.4003
C22 C 0.1713 -0.4814 0.2601
C23 C 0.1925 -0.0418 0.2151
H10 H 0.2119 -0.0077 0.1500
C24 C 0.3824 0.3112 0.2337
C25 C 0.4970 0.3061 0.2347
C26 C 0.5886 0.2914 0.1393
H11 H 0.5766 0.2815 0.0789
C27 C 0.6960 0.2922 0.1390
H12 H 0.7562 0.2816 0.0779
C28 C 0.7149 0.3089 0.2302
C29 C 0.6232 0.3224 0.3269
C30 C 0.6427 0.3419 0.4138
H13 H 0.5822 0.3552 0.4741
C31 C 0.5120 0.3219 0.3240
H14 H 0.4505 0.3326 0.3841
C32 C 0.8383 0.3277 0.3200
C33 C 0.7473 0.3426 0.4159
H15 H 0.7589 0.3524 0.4766
C34 C 0.8237 0.3107 0.2308
H16 H 0.8850 0.3004 0.1704
Zn1_2 Zn 0.2076 -0.6787 0.1611
Zn1_3 Zn 1.2076 0.3213 0.1611
Zn2_2 Zn 0.1331 -0.6722 0.3898
Zn2_3 Zn 0.1331 0.3278 -0.6102
Zn2_4 Zn 1.1331 0.3278 0.3898
O2_2 O 0.2019 0.4742 0.1739
O4_2 O 0.0343 0.3311 0.2292
O5_2 O 0.1402 0.4794 0.3495
N2_2 N 0.1316 0.3241 0.5372
O7_2 O -0.0297 0.3363 0.4035
loop_
_geom_bond_atom_site_label_1
_geom_bond_atom_site_label_2
_geom_bond_site_symmetry_1
_geom_bond_site_symmetry_2
Zn1 O1 1_555 1_555
Zn2 O6 1_555 1_555
O1 C24 1_555 1_555
O2 C22 1_555 1_555
O3 Zn1 1_555 1_555
N1 Zn1 1_555 1_555
O4 C10 1_555 1_555
O5 C22 1_555 1_555
N2 C7 1_555 1_555
O6 C24 1_555 1_555
O7 C10 1_555 1_555
O8 Zn2 1_555 1_555
C1 C2 1_555 1_555
C2 C5 1_555 1_555
C3 N1 1_555 1_555
C4 N1 1_555 1_555
H1 C4 1_555 1_555
C5 C4 1_555 1_555
C6 C1 1_555 1_555
C7 C6 1_555 1_555
H2 C7 1_555 1_555
C8 C1 1_555 1_555
H3 C8 1_555 1_555
C9 C2 1_555 1_555
C10 C32 1_555 1_555
C11 N2 1_555 1_555
H4 C11 1_555 1_555
C12 O3 1_555 1_555
C13 C12 1_555 1_555
C14 C13 1_555 1_555
H5 C14 1_555 1_555
C15 C14 1_555 1_555
H6 C15 1_555 1_555
C16 C15 1_555 1_555
C17 C16 1_555 1_555
C18 C17 1_555 1_555
H7 C18 1_555 1_555
C19 C18 1_555 1_555
H8 C19 1_555 1_555
C20 C19 1_555 1_555
C21 C16 1_555 1_555
H9 C21 1_555 1_555
C22 C20 1_555 1_555
C23 C13 1_555 1_555
H10 C23 1_555 1_555
C24 C25 1_555 1_555
C25 C26 1_555 1_555
C26 H11 1_555 1_555
C27 C26 1_555 1_555
H12 C27 1_555 1_555
C28 C27 1_555 1_555
C29 C28 1_555 1_555
C30 C29 1_555 1_555
H13 C30 1_555 1_555
C31 C25 1_555 1_555
H14 C31 1_555 1_555
C32 C33 1_555 1_555
C33 C30 1_555 1_555
H15 C33 1_555 1_555
C34 C28 1_555 1_555
H16 C34 1_555 1_555
Zn1_2 O2 1_555 1_555
Zn1_3 O4 1_555 1_555
Zn2_2 O5 1_555 1_555
Zn2_3 N2 1_555 1_555
Zn2_4 O7 1_555 1_555
O2_2 Zn1 1_555 1_555
O4_2 Zn1 1_555 1_555
O5_2 Zn2 1_555 1_555
N2_2 Zn2 1_555 1_555
O7_2 Zn2 1_555 1_555
O8 C12 1_555 1_555
C3 C9 1_555 1_555
C8 C11 1_555 1_555
C17 C23 1_555 1_555
C20 C21 1_555 1_555
C29 C31 1_555 1_555
C32 C34 1_555 1_555

#END
