
#######################################################################
#
#                 Cambridge Crystallographic Data Centre
#                                CCDC 
#
#######################################################################
#
# If this CIF has been generated from an entry in the Cambridge 
# Structural Database, then it will include bibliographic, chemical, 
# crystal, experimental, refinement or atomic coordinate data resulting 
# from the CCDC's data processing and validation procedures.
#
#######################################################################

data_YAMKOP
_chemical_formula_moiety         '(C37 H31 Cl4 Mn1 N12 O4 1+)n'
_symmetry_cell_setting           monoclinic
_symmetry_space_group_name_H-M   'P 21/n'
_symmetry_Int_Tables_number      14
_space_group_name_Hall           '-P 2yn'
loop_
_symmetry_equiv_pos_site_id
_symmetry_equiv_pos_as_xyz
1 x,y,z
2 1/2-x,1/2+y,1/2-z
3 -x,-y,-z
4 1/2+x,1/2-y,1/2+z
_cell_length_a                   8.311(2)
_cell_length_b                   21.674(6)
_cell_length_c                   13.501(4)
_cell_angle_alpha                90
_cell_angle_beta                 103.323(5)
_cell_angle_gamma                90
_cell_volume                     2366.52
loop_
_atom_site_label
_atom_site_type_symbol
_atom_site_fract_x
_atom_site_fract_y
_atom_site_fract_z
Mn1 Mn 1.0000 -0.0000 0.5000
N1 N 0.8575(6) 0.0474(2) 0.6019(3)
N2 N 0.7788(6) 0.1150(2) 0.7039(4)
N3 N 0.7392(6) 0.3301(2) 0.9272(4)
N4 N 0.6443(6) 0.4129(2) 0.9895(3)
N5 N 0.8035(6) 0.0298(2) 0.3579(3)
N6 N 0.6395(6) 0.0308(2) 0.2043(3)
C1 C 0.8738(8) 0.1036(3) 0.6375(4)
H1 H 0.9437 0.1328 0.6190
C2 C 0.7422(8) 0.0197(3) 0.6485(5)
H2 H 0.7057 -0.0209 0.6386
C3 C 0.6920(8) 0.0607(3) 0.7100(5)
H3 H 0.6147 0.0540 0.7489
C4 C 0.7682(8) 0.1707(3) 0.7583(4)
C5 C 0.9060(9) 0.2061(3) 0.7938(5)
H4 H 1.0073 0.1940 0.7821
C6 C 0.8952(8) 0.2592(3) 0.8465(5)
H5 H 0.9881 0.2838 0.8690
C7 C 0.7447(8) 0.2761(3) 0.8661(4)
C8 C 0.6056(8) 0.2420(3) 0.8292(5)
H6 H 0.5042 0.2542 0.8407
C9 C 0.6183(8) 0.1892(3) 0.7746(5)
H7 H 0.5243 0.1658 0.7484
C10 C 0.6115(7) 0.3691(3) 0.9215(4)
H8 H 0.5111 0.3653 0.8743
C11 C 0.8628(8) 0.3506(3) 1.0055(5)
H9 H 0.9671 0.3333 1.0284
C12 C 0.8026(8) 0.4010(3) 1.0426(5)
H10 H 0.8606 0.4245 1.0968
C13 C 0.7744(8) 0.0060(3) 0.2652(4)
H11 H 0.8394 -0.0242 0.2449
C14 C 0.6844(8) 0.0735(3) 0.3542(5)
H12 H 0.6753 0.0989 0.4082
C15 C 0.5822(8) 0.0745(3) 0.2614(5)
H13 H 0.4905 0.0999 0.2400
C16 C 0.5691(7) 0.0146(3) 0.0995(4)
C17 C 0.4821(8) 0.0586(3) 0.0358(4)
H14 H 0.4691 0.0980 0.0600
C18 C 0.5863(8) -0.0436(3) 0.0653(5)
H15 H 0.6436 -0.0732 0.1095
N5B N 0.1965(6) -0.0298(2) -0.3579(3)
N6B N 0.3605(6) -0.0308(2) -0.2043(3)
C13B C 0.2256(8) -0.0060(3) -0.2652(4)
H11B H 0.1606 0.0242 -0.2449
C14B C 0.3156(8) -0.0735(3) -0.3542(5)
H12B H 0.3247 -0.0989 -0.4082
C15B C 0.4178(8) -0.0745(3) -0.2614(5)
H13B H 0.5095 -0.0999 -0.2400
C16B C 0.4309(7) -0.0146(3) -0.0995(4)
C17B C 0.5179(8) -0.0586(3) -0.0358(4)
H14B H 0.5309 -0.0980 -0.0600
C18B C 0.4137(8) 0.0436(3) -0.0653(5)
H15B H 0.3564 0.0732 -0.1095
N1B N 1.1425(6) -0.0474(2) 0.3981(3)
N2B N 1.2212(6) -0.1150(2) 0.2961(4)
N3B N 1.2608(6) -0.3301(2) 0.0728(4)
N4B N 1.3557(6) -0.4129(2) 0.0105(3)
C1B C 1.1262(8) -0.1036(3) 0.3625(4)
H1B H 1.0563 -0.1328 0.3810
C2B C 1.2578(8) -0.0197(3) 0.3515(5)
H2B H 1.2943 0.0209 0.3614
C3B C 1.3080(8) -0.0607(3) 0.2900(5)
H3B H 1.3853 -0.0540 0.2511
C4B C 1.2318(8) -0.1707(3) 0.2417(4)
C5B C 1.0940(9) -0.2061(3) 0.2062(5)
H4B H 0.9927 -0.1940 0.2179
C6B C 1.1048(8) -0.2592(3) 0.1535(5)
H5B H 1.0119 -0.2838 0.1310
C7B C 1.2553(8) -0.2761(3) 0.1339(4)
C8B C 1.3944(8) -0.2420(3) 0.1708(5)
H6B H 1.4958 -0.2542 0.1593
C9B C 1.3817(8) -0.1892(3) 0.2254(5)
H7B H 1.4757 -0.1658 0.2516
C10B C 1.3885(7) -0.3691(3) 0.0785(4)
H8B H 1.4889 -0.3653 0.1257
C11B C 1.1372(8) -0.3506(3) -0.0055(5)
H9B H 1.0329 -0.3333 -0.0284
C12B C 1.1974(8) -0.4010(3) -0.0426(5)
H10B H 1.1394 -0.4245 -0.0968
Mn1_2 Mn -0.0000 0.0000 -0.5000
Mn1A Mn 0.5000 0.5000 1.0000
Mn1A_2 Mn 1.5000 -0.5000 0.0000
N4A N 0.8557(6) -0.0871(2) 0.5105(3)
N4C N 1.1443(6) 0.0871(2) 0.4895(3)
N5B_2 N 1.1965(6) -0.0298(2) 0.6421(3)
C19 C 0.4791(10) 0.3738(4) 0.5616(6)
H16 H 0.5532 0.3453 0.5374
Cl1 Cl 0.4025(4) 0.42681(14) 0.4651(2)
Cl2 Cl 0.5956(3) 0.41469(15) 0.66661(19)
Cl3 Cl 0.3243(4) 0.33164(14) 0.5933(3)
Cl4 Cl 0.3246(3) 0.23770(10) 0.01501(18)
O1 O 0.1967(8) 0.2534(4) 0.0585(6)
O2 O 0.4826(9) 0.2464(5) 0.0642(7)
O3 O 0.2925(7) 0.1887(3) -0.0528(5)
O4 O 0.2978(12) 0.2888(4) -0.0603(10)
loop_
_geom_bond_atom_site_label_1
_geom_bond_atom_site_label_2
_geom_bond_site_symmetry_1
_geom_bond_site_symmetry_2
Mn1 N1 1_555 1_555
N1 C1 1_555 1_555
N2 C1 1_555 1_555
N3 C7 1_555 1_555
N4 C10 1_555 1_555
N5 Mn1 1_555 1_555
N6 C13 1_555 1_555
C1 H1 1_555 1_555
C2 N1 1_555 1_555
H2 C2 1_555 1_555
C3 N2 1_555 1_555
H3 C3 1_555 1_555
C4 N2 1_555 1_555
C5 C4 1_555 1_555
H4 C5 1_555 1_555
C6 C5 1_555 1_555
H5 C6 1_555 1_555
C7 C6 1_555 1_555
C8 C7 1_555 1_555
H6 C8 1_555 1_555
C9 C4 1_555 1_555
H7 C9 1_555 1_555
C10 N3 1_555 1_555
H8 C10 1_555 1_555
C11 N3 1_555 1_555
H9 C11 1_555 1_555
C12 N4 1_555 1_555
H10 C12 1_555 1_555
C13 N5 1_555 1_555
H11 C13 1_555 1_555
C14 N5 1_555 1_555
H12 C14 1_555 1_555
C15 N6 1_555 1_555
H13 C15 1_555 1_555
C16 N6 1_555 1_555
C17 C16 1_555 1_555
H14 C17 1_555 1_555
C18 C16 1_555 1_555
H15 C18 1_555 1_555
C19 H16 1_555 1_555
Cl1 C19 1_555 1_555
Cl2 C19 1_555 1_555
Cl3 C19 1_555 1_555
Cl4 O1 1_555 1_555
O2 Cl4 1_555 1_555
O3 Cl4 1_555 1_555
O4 Cl4 1_555 1_555
N5B C13B 1_555 1_555
N6B C13B 1_555 1_555
C13B H11B 1_555 1_555
C14B N5B 1_555 1_555
H12B C14B 1_555 1_555
C15B N6B 1_555 1_555
H13B C15B 1_555 1_555
C16B N6B 1_555 1_555
C17B C18 1_555 1_555
H14B C17B 1_555 1_555
C18B C17 1_555 1_555
H15B C18B 1_555 1_555
N1B Mn1 1_555 1_555
N2B C1B 1_555 1_555
N3B C7B 1_555 1_555
N4B C10B 1_555 1_555
C1B N1B 1_555 1_555
H1B C1B 1_555 1_555
C2B N1B 1_555 1_555
H2B C2B 1_555 1_555
C3B N2B 1_555 1_555
H3B C3B 1_555 1_555
C4B N2B 1_555 1_555
C5B C4B 1_555 1_555
H4B C5B 1_555 1_555
C6B C5B 1_555 1_555
H5B C6B 1_555 1_555
C7B C6B 1_555 1_555
C8B C7B 1_555 1_555
H6B C8B 1_555 1_555
C9B C4B 1_555 1_555
H7B C9B 1_555 1_555
C10B N3B 1_555 1_555
H8B C10B 1_555 1_555
C11B N3B 1_555 1_555
H9B C11B 1_555 1_555
C12B N4B 1_555 1_555
H10B C12B 1_555 1_555
Mn1_2 N5B 1_555 1_555
Mn1A N4 1_555 1_555
Mn1A_2 N4B 1_555 1_555
N4A Mn1 1_555 1_555
N4C Mn1 1_555 1_555
N5B_2 Mn1 1_555 1_555
C2 C3 1_555 1_555
C8 C9 1_555 1_555
C11 C12 1_555 1_555
C14 C15 1_555 1_555
C14B C15B 1_555 1_555
C16B C17B 1_555 1_555
C16B C18B 1_555 1_555
C2B C3B 1_555 1_555
C8B C9B 1_555 1_555
C11B C12B 1_555 1_555

#END
