
#######################################################################
#
#                 Cambridge Crystallographic Data Centre
#                                CCDC 
#
#######################################################################
#
# If this CIF has been generated from an entry in the Cambridge 
# Structural Database, then it will include bibliographic, chemical, 
# crystal, experimental, refinement or atomic coordinate data resulting 
# from the CCDC's data processing and validation procedures.
#
#######################################################################

data_QUSSOO
_chemical_formula_moiety         '(C130 H96 N8 O47 Zn10)n'
_symmetry_cell_setting           triclinic
_symmetry_space_group_name_H-M   'P -1'
_symmetry_Int_Tables_number      2
_space_group_name_Hall           '-P 1'
loop_
_symmetry_equiv_pos_site_id
_symmetry_equiv_pos_as_xyz
1 x,y,z
2 -x,-y,-z
_cell_length_a                   11.092(1)
_cell_length_b                   12.199(2)
_cell_length_c                   28.767(5)
_cell_angle_alpha                97.64(1)
_cell_angle_beta                 92.01(1)
_cell_angle_gamma                115.936(9)
_cell_volume                     3450.36
loop_
_atom_site_label
_atom_site_type_symbol
_atom_site_fract_x
_atom_site_fract_y
_atom_site_fract_z
O24 O 0.7060(4) 0.6066(3) 0.71892(12)
C1 C -0.7297(5) -0.0532(5) 0.8524(2)
H1 H -0.7844 -0.0167 0.8451
C2 C -0.5926(5) 0.0175(5) 0.8579(2)
H2 H -0.5561 0.0999 0.854
C3 C -0.5092(4) -0.0339(4) 0.86914(17)
C4 C -0.5677(5) -0.1541(5) 0.8762(2)
H3 H -0.5146 -0.1905 0.8856
C5 C -0.7067(4) -0.2212(5) 0.8693(2)
H4 H -0.7451 -0.3036 0.8733
C6 C -0.3607(4) 0.0399(4) 0.87087(17)
C7 C -0.3078(4) 0.1150(4) 0.83808(19)
H5 H -0.3657 0.1204 0.8153
C8 C -0.1711(5) 0.1825(4) 0.83806(18)
H6 H -0.1374 0.2334 0.8156
C9 C -0.2695(5) 0.0352(6) 0.9044(2)
H7 H -0.3008 -0.0154 0.9271
C10 C -0.1334(5) 0.1053(6) 0.9037(2)
H8 H -0.0729 0.1043 0.9266
C11 C 0.0576(4) 0.2473(4) 0.86818(18)
C12 C 0.1321(12) 0.3563(12) 0.8984(6)
H9 H 0.0938 0.3806 0.9235
C13 C 0.2651(15) 0.4302(14) 0.8914(7)
H10 H 0.3115 0.5089 0.909
C14 C 0.3252(4) 0.3898(4) 0.8603(2)
C15 C 0.2583(16) 0.2700(17) 0.8339(9)
H11 H 0.3058 0.2368 0.8157
C16 C 0.1219(15) 0.2024(14) 0.8353(9)
H12 H 0.0734 0.1282 0.8149
C17 C 0.4722(5) 0.4704(5) 0.8530(2)
C18 C 0.0222(7) 0.8670(7) 0.5802(3)
H13 H 0.0757 0.8261 0.5757
C19 C -0.1146(6) 0.7994(6) 0.5832(3)
H14 H -0.1512 0.7143 0.5822
C20 C -0.1973(4) 0.8584(5) 0.58768(18)
C21 C -0.1391(6) 0.9804(7) 0.5816(3)
H15 H -0.1925 1.021 0.5789
C22 C -0.0003(7) 1.0433(8) 0.5795(3)
H16 H 0.0367 1.1251 0.5748
C23 C -0.3441(4) 0.7877(4) 0.59146(17)
C24 C -0.3898(5) 0.6919(5) 0.61773(19)
H17 H -0.3288 0.6705 0.6322
C25 C -0.5249(5) 0.6291(5) 0.62230(19)
H18 H -0.5547 0.5655 0.64
C26 C -0.5728(4) 0.7491(5) 0.57544(17)
H19 H -0.6359 0.7675 0.5606
C27 C -0.4380(4) 0.8155(5) 0.57025(18)
H20 H -0.4107 0.879 0.5524
C28 C -0.7569(4) 0.5949(4) 0.60909(15)
C29 C -0.8176(5) 0.4687(5) 0.60638(18)
H21 H -0.7702 0.4229 0.5993
C30 C -0.9528(5) 0.4114(5) 0.61465(19)
H22 H -0.9971 0.326 0.6125
C31 C -1.0210(5) 0.4805(5) 0.62598(17)
C32 C -0.9570(5) 0.6065(5) 0.62889(19)
H23 H -1.0033 0.653 0.6366
C33 C -0.8227(5) 0.6644(5) 0.62036(19)
H24 H -0.7784 0.7498 0.6224
C34 C -1.1686(5) 0.4172(6) 0.6350(2)
C35 C 0.7127(5) 0.8667(4) 0.77728(18)
C36 C 0.6395(4) 0.9047(4) 0.74258(16)
C37 C 0.4995(4) 0.8510(4) 0.73782(17)
H25 H 0.4513 0.7902 0.7554
C38 C 0.4315(4) 0.8879(4) 0.70691(17)
H26 H 0.3378 0.8516 0.7038
C39 C 0.5030(4) 0.9795(4) 0.68027(16)
C40 C 0.6435(4) 1.0334(4) 0.68479(17)
H27 H 0.6917 1.0949 0.6675
C41 C 0.7118(4) 0.9943(4) 0.71564(18)
H28 H 0.8053 1.0282 0.7181
C42 C 0.4266(5) 1.0205(4) 0.64818(16)
C43 C 0.3310(5) 1.3020(4) 0.67358(18)
C44 C 0.2492(5) 1.3519(4) 0.70183(18)
C45 C 0.1123(5) 1.2765(4) 0.70376(17)
H29 H 0.0737 1.1951 0.6884
C46 C 0.0328(4) 1.3210(4) 0.72820(16)
H30 H -0.0583 1.2699 0.7289
C47 C 0.0905(4) 1.4426(4) 0.75163(17)
C48 C 0.2265(5) 1.5180(5) 0.7502(2)
H31 H 0.2649 1.5996 0.7654
C49 C 0.3050(5) 1.4730(4) 0.7263(2)
H32 H 0.3966 1.5238 0.7264
C50 C 0.0051(4) 1.4919(4) 0.77873(16)
C51 C 0.4414(5) 1.3102(5) 0.55788(18)
C52 C 0.4696(5) 1.4079(4) 0.52741(15)
C53 C 0.6037(5) 1.4805(5) 0.52013(16)
H33 H 0.6725 1.4667 0.5333
C54 C 0.6333(5) 1.5735(5) 0.49304(15)
H34 H 0.7223 1.6233 0.4886
C55 C 0.9126(4) 0.5274(4) 0.90751(15)
C56 C 0.9578(4) 0.5142(4) 0.95581(15)
C57 C 1.0709(5) 0.6088(5) 0.98242(16)
H35 H 1.1183 0.6819 0.9708
C58 C 1.1144(4) 0.5955(4) 1.02636(16)
H36 H 1.191 0.659 1.0438
C59 C 0.8891(5) 0.8419(4) 0.90988(15)
C60 C 0.9465(4) 0.9205(4) 0.95744(15)
C61 C 1.0846(5) 0.9963(5) 0.96609(16)
H37 H 1.1408 0.9931 0.9432
C62 C 1.1395(5) 1.0768(5) 1.00852(16)
H38 H 1.2317 1.1279 1.0142
C63 C 0.5712(5) 1.2605(4) 0.74579(17)
H39 H 0.4962 1.188 0.7325
N1 N -0.0873(3) 0.1752(3) 0.86995(14)
N2 N -0.7882(3) -0.1728(4) 0.85720(15)
N3 N 0.0791(4) 0.9912(4) 0.58377(18)
N4 N -0.6142(3) 0.6585(3) 0.60148(13)
O1 O 0.5024(3) 0.5768(3) 0.85013(17)
O2 O 0.5542(4) 0.4258(4) 0.8561(2)
O3 O -1.2270(4) 0.4837(4) 0.64578(14)
O4 O -1.2264(4) 0.3019(4) 0.63055(17)
O5 O 0.6381(3) 0.7811(3) 0.79881(12)
O6 O 0.8378(4) 0.9233(3) 0.78410(17)
O7 O 0.3031(3) 0.9564(3) 0.63769(13)
O8 O 0.4883(3) 1.1188(3) 0.63173(12)
O9 O 0.2752(4) 1.1889(3) 0.65713(13)
O10 O 0.4493(3) 1.3774(3) 0.66720(12)
O11 O -0.1064(3) 1.4148(3) 0.78894(11)
O12 O 0.0541(3) 1.6071(3) 0.78973(13)
O13 O 0.3202(4) 1.2384(4) 0.56086(15)
O14 O 0.5420(4) 1.3063(4) 0.57820(12)
O15 O 0.8090(3) 0.4378(3) 0.88542(10)
O16 O 0.9831(3) 0.6252(3) 0.89280(12)
O17 O 0.7628(3) 0.7721(3) 0.90397(11)
O18 O 0.9669(3) 0.8515(3) 0.87844(10)
O19 O 0.7903(3) 0.6098(3) 0.81060(9)
H40 H 0.7798 0.5978 0.7767
O20 O 0.6328(3) 1.3282(3) 0.71913(11)
O21 O 0.5982(3) 1.2781(3) 0.78978(12)
O22 O 0.3232(6) 0.9983(5) 0.53583(19)
H41 H 0.4208 1.0056 0.5248
Zn1 Zn 0.68440(4) 0.68858(4) 0.839893(17)
Zn2 Zn 0.74020(5) 0.43871(5) 0.821395(17)
Zn3 Zn 0.99922(4) 0.71540(4) 0.835157(17)
Zn4 Zn 0.29018(5) 1.09178(5) 0.59387(2)
Zn5 Zn 0.58611(5) 1.30869(4) 0.647698(18)
C64 C 1.0571(8) 0.8347(6) 0.7393(2)
H42 H 0.9806 0.786 0.7158
H43 H 1.1201 0.7991 0.7367
C65 C 1.1243(14) 0.9659(10) 0.7306(5)
H44 H 1.0665 1.0045 0.7377
H45 H 1.1413 0.9669 0.6981
H46 H 1.208 1.0103 0.7504
O23 O 1.0131(3) 0.8326(3) 0.78531(10)
H47 H 0.9552 0.8798 0.7849
C51A C 0.5586(5) 1.6898(5) 0.44212(18)
C52A C 0.5304(5) 1.5921(4) 0.47259(15)
C53A C 0.3963(5) 1.5195(5) 0.47987(16)
H33A H 0.3275 1.5333 0.4667
C54A C 0.3667(5) 1.4265(5) 0.50696(15)
H34A H 0.2777 1.3767 0.5114
O13A O 0.6798(4) 1.7616(4) 0.43914(15)
O14A O 0.4580(4) 1.6937(4) 0.42180(12)
C55A C 1.0874(4) 0.4726(4) 1.09249(15)
C56A C 1.0422(4) 0.4858(4) 1.04419(15)
C57A C 0.9291(5) 0.3912(5) 1.01758(16)
H35A H 0.8817 0.3181 1.0292
C58A C 0.8856(4) 0.4045(4) 0.97364(16)
H36A H 0.809 0.341 0.9562
O15A O 1.1910(3) 0.5622(3) 1.11458(10)
O16A O 1.0169(3) 0.3748(3) 1.10720(12)
C59A C 1.1109(5) 1.1581(4) 1.09012(15)
C60A C 1.0535(4) 1.0795(4) 1.04256(15)
C61A C 0.9154(5) 1.0037(5) 1.03391(16)
H37A H 0.8592 1.0069 1.0568
C62A C 0.8605(5) 0.9232(5) 0.99148(16)
H38A H 0.7683 0.8721 0.9858
O17A O 1.2372(3) 1.2279(3) 1.09603(11)
O18A O 1.0331(3) 1.1485(3) 1.12156(10)
C1A C 1.7297(5) 3.0532(5) 0.1476(2)
H1A H 1.7844 3.0167 0.1549
C2A C 1.5926(5) 2.9825(5) 0.1421(2)
H2A H 1.5561 2.9001 0.146
C3A C 1.5092(4) 3.0339(4) 0.13086(17)
C4A C 1.5677(5) 3.1541(5) 0.1238(2)
H3A H 1.5146 3.1905 0.1144
C5A C 1.7067(4) 3.2212(5) 0.1307(2)
H4A H 1.7451 3.3036 0.1267
C6A C 1.3607(4) 2.9601(4) 0.12913(17)
C7A C 1.3078(4) 2.8850(4) 0.16192(19)
H5A H 1.3657 2.8796 0.1847
C8A C 1.1711(5) 2.8175(4) 0.16194(18)
H6A H 1.1374 2.7666 0.1844
C9A C 1.2695(5) 2.9648(6) 0.0956(2)
H7A H 1.3008 3.0154 0.0729
C10A C 1.1334(5) 2.8947(6) 0.0963(2)
H8A H 1.0729 2.8957 0.0734
C11A C 0.9424(4) 2.7527(4) 0.13182(18)
C12A C 0.8679(12) 2.6437(12) 0.1016(6)
H9A H 0.9062 2.6194 0.0765
C13A C 0.7349(15) 2.5698(14) 0.1086(7)
H10A H 0.6885 2.4911 0.091
C14A C 0.6748(4) 2.6102(4) 0.1397(2)
C15A C 0.7417(16) 2.7300(17) 0.1661(9)
H11A H 0.6942 2.7632 0.1843
C16A C 0.8781(15) 2.7976(14) 0.1647(9)
H12A H 0.9266 2.8718 0.1851
C17A C 0.5278(5) 2.5296(5) 0.1470(2)
C18A C 0.9778(7) 2.1330(7) 0.4198(3)
H13A H 0.9243 2.1739 0.4243
C19A C 1.1146(6) 2.2006(6) 0.4168(3)
H14A H 1.1512 2.2857 0.4178
C20A C 1.1973(4) 2.1416(5) 0.41232(18)
C21A C 1.1391(6) 2.0196(7) 0.4184(3)
H15A H 1.1925 1.979 0.4211
C22A C 1.0003(7) 1.9567(8) 0.4205(3)
H16A H 0.9633 1.8749 0.4252
C23A C 1.3441(4) 2.2123(4) 0.40854(17)
C24A C 1.3898(5) 2.3081(5) 0.38227(19)
H17A H 1.3288 2.3295 0.3678
C25A C 1.5249(5) 2.3709(5) 0.37770(19)
H18A H 1.5547 2.4345 0.36
C26A C 1.5728(4) 2.2509(5) 0.42456(17)
H19A H 1.6359 2.2325 0.4394
C27A C 1.4380(4) 2.1845(5) 0.42975(18)
H20A H 1.4107 2.121 0.4476
C28A C 1.7569(4) 2.4051(4) 0.39091(15)
C29A C 1.8176(5) 2.5313(5) 0.39362(18)
H21A H 1.7702 2.5771 0.4007
C30A C 1.9528(5) 2.5886(5) 0.38535(19)
H22A H 1.9971 2.674 0.3875
C31A C 2.0210(5) 2.5195(5) 0.37402(17)
C32A C 1.9570(5) 2.3935(5) 0.37111(19)
H23A H 2.0033 2.347 0.3634
C33A C 1.8227(5) 2.3356(5) 0.37964(19)
H24A H 1.7784 2.2502 0.3776
C34A C 2.1686(5) 2.5828(6) 0.3650(2)
C35A C 0.2873(5) 2.1333(4) 0.22272(18)
C36A C 0.3605(4) 2.0953(4) 0.25742(16)
C37A C 0.5005(4) 2.1490(4) 0.26218(17)
H25A H 0.5487 2.2098 0.2446
C38A C 0.5685(4) 2.1121(4) 0.29309(17)
H26A H 0.6622 2.1484 0.2962
C39A C 0.4970(4) 2.0205(4) 0.31973(16)
C40A C 0.3565(4) 1.9666(4) 0.31521(17)
H27A H 0.3083 1.9051 0.3325
C41A C 0.2882(4) 2.0057(4) 0.28436(18)
H28A H 0.1947 1.9718 0.2819
C42A C 0.5734(5) 1.9795(4) 0.35182(16)
C43A C 0.6690(5) 1.6980(4) 0.32642(18)
C44A C 0.7508(5) 1.6481(4) 0.29817(18)
C45A C 0.8877(5) 1.7235(4) 0.29624(17)
H29A H 0.9263 1.8049 0.3116
C46A C 0.9672(4) 1.6790(4) 0.27180(16)
H30A H 1.0583 1.7301 0.2711
C47A C 0.9095(4) 1.5574(4) 0.24837(17)
C48A C 0.7735(5) 1.4820(5) 0.2498(2)
H31A H 0.7351 1.4004 0.2346
C49A C 0.6950(5) 1.5270(4) 0.2737(2)
H32A H 0.6034 1.4762 0.2736
C50A C 0.9949(4) 1.5081(4) 0.22127(16)
C63A C 0.4288(5) 1.7395(4) 0.25421(17)
H39A H 0.5038 1.812 0.2675
N1A N 1.0873(3) 2.8248(3) 0.13005(14)
N2A N 1.7882(3) 3.1728(4) 0.14280(15)
N3A N 0.9209(4) 2.0088(4) 0.41623(18)
N4A N 1.6142(3) 2.3415(3) 0.39852(13)
O1A O 0.4976(3) 2.4232(3) 0.14987(17)
O2A O 0.4458(4) 2.5742(4) 0.1439(2)
O3A O 2.2270(4) 2.5163(4) 0.35422(14)
O4A O 2.2264(4) 2.6981(4) 0.36945(17)
O5A O 0.3619(3) 2.2189(3) 0.20119(12)
O6A O 0.1622(4) 2.0767(3) 0.21590(17)
O7A O 0.6969(3) 2.0436(3) 0.36231(13)
O8A O 0.5117(3) 1.8812(3) 0.36827(12)
O9A O 0.7248(4) 1.8111(3) 0.34287(13)
O10A O 0.5507(3) 1.6226(3) 0.33280(12)
O11A O 1.1064(3) 1.5852(3) 0.21106(11)
O12A O 0.9459(3) 1.3929(3) 0.21027(13)
O19A O 0.2097(3) 2.3902(3) 0.18940(9)
H40A H 0.2202 2.4022 0.2233
O20A O 0.3672(3) 1.6718(3) 0.28087(11)
O21A O 0.4018(3) 1.7219(3) 0.21022(12)
O22A O 0.6768(6) 2.0017(5) 0.46417(19)
H41A H 0.5792 1.9944 0.4752
Zn1A Zn 0.31560(4) 2.31142(4) 0.160107(17)
Zn2A Zn 0.25980(5) 2.56129(5) 0.178605(17)
Zn3A Zn 0.00078(4) 2.28460(4) 0.164843(17)
Zn4A Zn 0.70982(5) 1.90822(5) 0.40613(2)
Zn5A Zn 0.41389(5) 1.69131(4) 0.352302(18)
C64A C -0.0571(8) 2.1653(6) 0.2607(2)
H42A H 0.0194 2.214 0.2842
H43A H -0.1201 2.2009 0.2633
C65A C -0.1243(14) 2.0341(10) 0.2694(5)
H44A H -0.0665 1.9955 0.2623
H45A H -0.1413 2.0331 0.3019
H46A H -0.208 1.9897 0.2496
O23A O -0.0131(3) 2.1674(3) 0.21469(10)
H47A H 0.0448 2.1202 0.2151
N2_2 N 1.2118(3) 0.8272(4) 0.85720(15)
N2A_2 N -0.2118(3) 2.1728(4) 0.14280(15)
O3_2 O 0.7730(4) 1.4837(4) 0.64578(14)
O3A_2 O 0.2270(4) 1.5163(4) 0.35422(14)
O4_2 O 0.7736(4) 1.3019(4) 0.63055(17)
O4A_2 O 0.2264(4) 1.6981(4) 0.36945(17)
O11_2 O 0.8936(3) 0.4148(3) 0.78894(11)
O11A_2 O 0.1064(3) 2.5852(3) 0.21106(11)
O12_2 O 1.0541(3) 0.6071(3) 0.78973(13)
O12A_2 O -0.0541(3) 2.3929(3) 0.21027(13)
O15A_2 O 0.1910(3) 2.5622(3) 0.11458(10)
O16A_2 O 0.0169(3) 2.3748(3) 0.10720(12)
O17A_2 O 0.2372(3) 2.2279(3) 0.09603(11)
O18A_2 O 0.0331(3) 2.1485(3) 0.12156(10)
O21_2 O 0.5982(3) 0.2781(3) 0.78978(12)
O21A_2 O 0.4018(3) 2.7219(3) 0.21022(12)
Zn1A_2 Zn 1.31560(4) 1.31142(4) 1.160107(17)
Zn2_2 Zn -0.25980(5) 1.43871(5) 0.821395(17)
Zn2_3 Zn 0.74020(5) 1.43871(5) 0.821395(17)
Zn2A_2 Zn 0.25980(5) 1.56129(5) 0.178605(17)
Zn2A_3 Zn 1.25980(5) 0.56129(5) 1.178605(17)
Zn2A_4 Zn 1.25980(5) 1.56129(5) 0.178605(17)
Zn3_2 Zn -1.00078(4) -0.28460(4) 0.835157(17)
Zn3_3 Zn -0.00078(4) 1.71540(4) 0.835157(17)
Zn3A_2 Zn 1.00078(4) 0.28460(4) 1.164843(17)
Zn3A_3 Zn 1.00078(4) 1.28460(4) 0.164843(17)
Zn3A_4 Zn 1.00078(4) 1.28460(4) 1.164843(17)
Zn3A_5 Zn 2.00078(4) 3.28460(4) 0.164843(17)
Zn5_2 Zn -1.41389(5) 0.30869(4) 0.647698(18)
Zn5A_2 Zn 2.41389(5) 2.69131(4) 0.352302(18)
loop_
_geom_bond_atom_site_label_1
_geom_bond_atom_site_label_2
_geom_bond_site_symmetry_1
_geom_bond_site_symmetry_2
C1 H1 1_555 1_555
C2 C1 1_555 1_555
H2 C2 1_555 1_555
C3 C2 1_555 1_555
C4 C3 1_555 1_555
H3 C4 1_555 1_555
C5 C4 1_555 1_555
H4 C5 1_555 1_555
C6 C3 1_555 1_555
C7 C6 1_555 1_555
H5 C7 1_555 1_555
C8 C7 1_555 1_555
H6 C8 1_555 1_555
C9 C6 1_555 1_555
H7 C9 1_555 1_555
C10 C9 1_555 1_555
H8 C10 1_555 1_555
C11 C12 1_555 1_555
C12 H9 1_555 1_555
C13 C12 1_555 1_555
H10 C13 1_555 1_555
C14 C13 1_555 1_555
C15 C14 1_555 1_555
H11 C15 1_555 1_555
C16 C11 1_555 1_555
H12 C16 1_555 1_555
C17 C14 1_555 1_555
C18 H13 1_555 1_555
C19 C18 1_555 1_555
H14 C19 1_555 1_555
C20 C19 1_555 1_555
C21 C20 1_555 1_555
H15 C21 1_555 1_555
C22 C21 1_555 1_555
H16 C22 1_555 1_555
C23 C20 1_555 1_555
C24 C23 1_555 1_555
H17 C24 1_555 1_555
C25 C24 1_555 1_555
H18 C25 1_555 1_555
C26 H19 1_555 1_555
C27 C23 1_555 1_555
H20 C27 1_555 1_555
C28 C29 1_555 1_555
C29 H21 1_555 1_555
C30 C29 1_555 1_555
H22 C30 1_555 1_555
C31 C30 1_555 1_555
C32 C31 1_555 1_555
H23 C32 1_555 1_555
C33 C28 1_555 1_555
H24 C33 1_555 1_555
C34 C31 1_555 1_555
C35 C36 1_555 1_555
C36 C37 1_555 1_555
C37 H25 1_555 1_555
C38 C37 1_555 1_555
H26 C38 1_555 1_555
C39 C38 1_555 1_555
C40 C39 1_555 1_555
H27 C40 1_555 1_555
C41 C36 1_555 1_555
H28 C41 1_555 1_555
C42 C39 1_555 1_555
C43 C44 1_555 1_555
C44 C45 1_555 1_555
C45 H29 1_555 1_555
C46 C45 1_555 1_555
H30 C46 1_555 1_555
C47 C46 1_555 1_555
C48 C47 1_555 1_555
H31 C48 1_555 1_555
C49 C44 1_555 1_555
H32 C49 1_555 1_555
C50 C47 1_555 1_555
C51 C52 1_555 1_555
C52 C53 1_555 1_555
C53 H33 1_555 1_555
C54 C53 1_555 1_555
H34 C54 1_555 1_555
C55 C56 1_555 1_555
C56 C57 1_555 1_555
C57 H35 1_555 1_555
C58 C57 1_555 1_555
H36 C58 1_555 1_555
C59 C60 1_555 1_555
C60 C61 1_555 1_555
C61 H37 1_555 1_555
C62 C61 1_555 1_555
H38 C62 1_555 1_555
C63 H39 1_555 1_555
N1 C8 1_555 1_555
N2 C1 1_555 1_555
N3 C18 1_555 1_555
N4 C25 1_555 1_555
O1 C17 1_555 1_555
O2 C17 1_555 1_555
O3 C34 1_555 1_555
O4 C34 1_555 1_555
O5 C35 1_555 1_555
O6 C35 1_555 1_555
O7 C42 1_555 1_555
O8 C42 1_555 1_555
O9 C43 1_555 1_555
O10 C43 1_555 1_555
O11 C50 1_555 1_555
O12 C50 1_555 1_555
O13 C51 1_555 1_555
O14 C51 1_555 1_555
O15 C55 1_555 1_555
O16 C55 1_555 1_555
O17 C59 1_555 1_555
O18 C59 1_555 1_555
O19 H40 1_555 1_555
O20 C63 1_555 1_555
O21 C63 1_555 1_555
O22 H41 1_555 1_555
Zn1 O1 1_555 1_555
Zn2 O2 1_555 1_555
Zn3 O16 1_555 1_555
Zn4 N3 1_555 1_555
Zn5 O8 1_555 1_555
C64 H42 1_555 1_555
H43 C64 1_555 1_555
C65 C64 1_555 1_555
H44 C65 1_555 1_555
H45 C65 1_555 1_555
H46 C65 1_555 1_555
O23 Zn3 1_555 1_555
H47 O23 1_555 1_555
C51A C52A 1_555 1_555
C52A C54 1_555 1_555
C53A C52A 1_555 1_555
H33A C53A 1_555 1_555
C54A C52 1_555 1_555
H34A C54A 1_555 1_555
O13A C51A 1_555 1_555
O14A C51A 1_555 1_555
C55A C56A 1_555 1_555
C56A C58 1_555 1_555
C57A C56A 1_555 1_555
H35A C57A 1_555 1_555
C58A C56 1_555 1_555
H36A C58A 1_555 1_555
O15A C55A 1_555 1_555
O16A C55A 1_555 1_555
C59A C60A 1_555 1_555
C60A C62 1_555 1_555
C61A C60A 1_555 1_555
H37A C61A 1_555 1_555
C62A C60 1_555 1_555
H38A C62A 1_555 1_555
O17A C59A 1_555 1_555
O18A C59A 1_555 1_555
C1A H1A 1_555 1_555
C2A C1A 1_555 1_555
H2A C2A 1_555 1_555
C3A C2A 1_555 1_555
C4A C3A 1_555 1_555
H3A C4A 1_555 1_555
C5A C4A 1_555 1_555
H4A C5A 1_555 1_555
C6A C3A 1_555 1_555
C7A C6A 1_555 1_555
H5A C7A 1_555 1_555
C8A C7A 1_555 1_555
H6A C8A 1_555 1_555
C9A C6A 1_555 1_555
H7A C9A 1_555 1_555
C10A C9A 1_555 1_555
H8A C10A 1_555 1_555
C11A C12A 1_555 1_555
C12A H9A 1_555 1_555
C13A C12A 1_555 1_555
H10A C13A 1_555 1_555
C14A C13A 1_555 1_555
C15A C14A 1_555 1_555
H11A C15A 1_555 1_555
C16A C11A 1_555 1_555
H12A C16A 1_555 1_555
C17A C14A 1_555 1_555
C18A H13A 1_555 1_555
C19A C18A 1_555 1_555
H14A C19A 1_555 1_555
C20A C19A 1_555 1_555
C21A C20A 1_555 1_555
H15A C21A 1_555 1_555
C22A C21A 1_555 1_555
H16A C22A 1_555 1_555
C23A C20A 1_555 1_555
C24A C23A 1_555 1_555
H17A C24A 1_555 1_555
C25A C24A 1_555 1_555
H18A C25A 1_555 1_555
C26A H19A 1_555 1_555
C27A C23A 1_555 1_555
H20A C27A 1_555 1_555
C28A C29A 1_555 1_555
C29A H21A 1_555 1_555
C30A C29A 1_555 1_555
H22A C30A 1_555 1_555
C31A C30A 1_555 1_555
C32A C31A 1_555 1_555
H23A C32A 1_555 1_555
C33A C28A 1_555 1_555
H24A C33A 1_555 1_555
C34A C31A 1_555 1_555
C35A C36A 1_555 1_555
C36A C37A 1_555 1_555
C37A H25A 1_555 1_555
C38A C37A 1_555 1_555
H26A C38A 1_555 1_555
C39A C38A 1_555 1_555
C40A C39A 1_555 1_555
H27A C40A 1_555 1_555
C41A C36A 1_555 1_555
H28A C41A 1_555 1_555
C42A C39A 1_555 1_555
C43A C44A 1_555 1_555
C44A C45A 1_555 1_555
C45A H29A 1_555 1_555
C46A C45A 1_555 1_555
H30A C46A 1_555 1_555
C47A C46A 1_555 1_555
C48A C47A 1_555 1_555
H31A C48A 1_555 1_555
C49A C44A 1_555 1_555
H32A C49A 1_555 1_555
C50A C47A 1_555 1_555
C63A H39A 1_555 1_555
N1A C8A 1_555 1_555
N2A C1A 1_555 1_555
N3A C18A 1_555 1_555
N4A C25A 1_555 1_555
O1A C17A 1_555 1_555
O2A C17A 1_555 1_555
O3A C34A 1_555 1_555
O4A C34A 1_555 1_555
O5A C35A 1_555 1_555
O6A C35A 1_555 1_555
O7A C42A 1_555 1_555
O8A C42A 1_555 1_555
O9A C43A 1_555 1_555
O10A C43A 1_555 1_555
O11A C50A 1_555 1_555
O12A C50A 1_555 1_555
O19A H40A 1_555 1_555
O20A C63A 1_555 1_555
O21A C63A 1_555 1_555
O22A H41A 1_555 1_555
Zn1A O1A 1_555 1_555
Zn2A O2A 1_555 1_555
Zn3A O19A 1_555 1_555
Zn4A O13A 1_555 1_555
Zn5A O14A 1_555 1_555
C64A H42A 1_555 1_555
H43A C64A 1_555 1_555
C65A C64A 1_555 1_555
H44A C65A 1_555 1_555
H45A C65A 1_555 1_555
H46A C65A 1_555 1_555
O23A Zn3A 1_555 1_555
H47A O23A 1_555 1_555
N2_2 Zn3 1_555 1_555
N2A_2 Zn3A 1_555 1_555
O3_2 Zn5 1_555 1_555
O3A_2 Zn5A 1_555 1_555
O4_2 Zn5 1_555 1_555
O4A_2 Zn5A 1_555 1_555
O11_2 Zn2 1_555 1_555
O11A_2 Zn2A 1_555 1_555
O12_2 Zn3 1_555 1_555
O12A_2 Zn3A 1_555 1_555
O15A_2 Zn2A 1_555 1_555
O16A_2 Zn3A 1_555 1_555
O17A_2 Zn1A 1_555 1_555
O18A_2 Zn3A 1_555 1_555
O21_2 Zn2 1_555 1_555
O21A_2 Zn2A 1_555 1_555
Zn1A_2 O17A 1_555 1_555
Zn2_2 O11 1_555 1_555
Zn2_3 O21 1_555 1_555
Zn2A_2 O21A 1_555 1_555
Zn2A_3 O15A 1_555 1_555
Zn2A_4 O11A 1_555 1_555
Zn3_2 N2 1_555 1_555
Zn3_3 O12 1_555 1_555
Zn3A_2 O16A 1_555 1_555
Zn3A_3 O12A 1_555 1_555
Zn3A_4 O18A 1_555 1_555
Zn3A_5 N2A 1_555 1_555
Zn5_2 O3 1_555 1_555
Zn5A_2 O3A 1_555 1_555
C5 N2 1_555 1_555
C10 N1 1_555 1_555
C11 N1 1_555 1_555
C15 C16 1_555 1_555
C22 N3 1_555 1_555
C26 C27 1_555 1_555
C26 N4 1_555 1_555
C28 N4 1_555 1_555
C32 C33 1_555 1_555
C40 C41 1_555 1_555
C48 C49 1_555 1_555
O4 Zn5_2 1_555 1_555
O5 Zn1 1_555 1_555
O7 Zn4 1_555 1_555
O8 Zn4 1_555 1_555
O9 Zn4 1_555 1_555
O10 Zn5 1_555 1_555
O13 Zn4 1_555 1_555
O14 Zn5 1_555 1_555
O15 Zn2 1_555 1_555
O17 Zn1 1_555 1_555
O18 Zn3 1_555 1_555
O19 Zn1 1_555 1_555
O19 Zn2 1_555 1_555
O19 Zn3 1_555 1_555
O20 Zn5 1_555 1_555
O22 Zn4 1_555 1_555
C64 O23 1_555 1_555
C53A C54A 1_555 1_555
C57A C58A 1_555 1_555
C61A C62A 1_555 1_555
C5A N2A 1_555 1_555
C10A N1A 1_555 1_555
C11A N1A 1_555 1_555
C15A C16A 1_555 1_555
C22A N3A 1_555 1_555
C26A C27A 1_555 1_555
C26A N4A 1_555 1_555
C28A N4A 1_555 1_555
C32A C33A 1_555 1_555
C40A C41A 1_555 1_555
C48A C49A 1_555 1_555
N3A Zn4A 1_555 1_555
O4A Zn5A_2 1_555 1_555
O5A Zn1A 1_555 1_555
O7A Zn4A 1_555 1_555
O8A Zn4A 1_555 1_555
O8A Zn5A 1_555 1_555
O9A Zn4A 1_555 1_555
O10A Zn5A 1_555 1_555
O19A Zn1A 1_555 1_555
O19A Zn2A 1_555 1_555
O20A Zn5A 1_555 1_555
O22A Zn4A 1_555 1_555
C64A O23A 1_555 1_555

#END
