
#######################################################################
#
#                 Cambridge Crystallographic Data Centre
#                                CCDC 
#
#######################################################################
#
# If this CIF has been generated from an entry in the Cambridge 
# Structural Database, then it will include bibliographic, chemical, 
# crystal, experimental, refinement or atomic coordinate data resulting 
# from the CCDC's data processing and validation procedures.
#
#######################################################################

data_QUSSII
_chemical_formula_moiety         '(C70 H54 N4 O29 Zn6)n'
_symmetry_cell_setting           monoclinic
_symmetry_space_group_name_H-M   'P 21/c'
_symmetry_Int_Tables_number      14
_space_group_name_Hall           '-P 2ybc'
loop_
_symmetry_equiv_pos_site_id
_symmetry_equiv_pos_as_xyz
1 x,y,z
2 -x,1/2+y,1/2-z
3 -x,-y,-z
4 x,1/2-y,1/2+z
_cell_length_a                   11.497(1)
_cell_length_b                   33.542(3)
_cell_length_c                   12.106(1)
_cell_angle_alpha                90
_cell_angle_beta                 116.84(1)
_cell_angle_gamma                90
_cell_volume                     4165.54
loop_
_atom_site_label
_atom_site_type_symbol
_atom_site_fract_x
_atom_site_fract_y
_atom_site_fract_z
C35 C 0.492(2) 0.2520(8) 0.806(2)
H25 H 0.4262 0.2315 0.7667
H26 H 0.4874 0.2615 0.8795
C36 C 0.476(3) 0.2872(11) 0.713(4)
H27 H 0.3922 0.2995 0.6869
H28 H 0.4829 0.2768 0.6426
H29 H 0.5432 0.3066 0.7543
O15 O 0.6354(6) 0.23643(16) 0.8360(6)
H30 H 0.6719 0.2476 0.9118
C1 C 0.9732(6) 0.1126(2) 0.6817(6)
H1 H 1.0114 0.107 0.7661
C2 C 1.0481(6) 0.1086(2) 0.6195(6)
H2 H 1.1349 0.1008 0.661
C3 C 0.9908(5) 0.1165(2) 0.4948(6)
C4 C 0.8636(6) 0.1276(2) 0.4364(6)
H3 H 0.8229 0.1327 0.3518
C5 C 0.7957(6) 0.1314(2) 0.5060(6)
H4 H 0.709 0.1395 0.4663
C6 C 1.0700(5) 0.1148(2) 0.4225(6)
C7 C 1.1666(6) 0.0863(2) 0.4473(7)
H5 H 1.1863 0.0678 0.5104
C8 C 1.2325(6) 0.0861(2) 0.3760(7)
H6 H 1.2938 0.0663 0.3887
C9 C 1.1183(6) 0.1422(2) 0.2673(6)
H7 H 1.1029 0.1616 0.2073
C10 C 1.0475(6) 0.1427(2) 0.3323(6)
H8 H 0.9837 0.1621 0.3153
C11 C 1.2836(6) 0.1146(2) 0.2165(6)
H9 H 0.649 0.1801 0.8372
C12 C 1.4168(6) 0.1104(3) 0.2777(7)
H10 H 1.4607 0.1073 0.3631
C13 C 1.4832(6) 0.1112(3) 0.2050(7)
H11 H 1.5733 0.1082 0.2422
C14 C 1.4156(6) 0.1163(2) 0.0783(7)
C15 C 1.2832(7) 0.1203(3) 0.0214(6)
H12 H 1.239 0.124 -0.0638
C16 C 1.2139(6) 0.1189(3) 0.0912(6)
H13 H 1.1235 0.1209 0.0536
C17 C 1.4861(6) 0.1195(2) -0.0023(7)
C18 C 0.3184(6) 0.1823(2) 0.5591(7)
C19 C 0.2162(6) 0.2145(2) 0.5228(7)
C20 C 0.1457(6) 0.2192(2) 0.5903(7)
H14 H 0.1585 0.2019 0.6547
C21 C 0.0566(6) 0.2500(2) 0.5600(7)
H15 H 0.0102 0.2535 0.6054
C22 C 0.0355(6) 0.27574(19) 0.4635(6)
C23 C 0.1037(6) 0.2697(2) 0.3935(7)
H16 H 0.0875 0.286 0.3258
C24 C 0.1945(6) 0.2397(2) 0.4255(7)
H17 H 0.2419 0.2364 0.3809
C25 C -0.0602(5) 0.30906(19) 0.4318(6)
C26 C 0.5350(5) 0.07371(18) 0.6332(6)
C27 C 0.5192(5) 0.03532(18) 0.5669(6)
C28 C 0.4348(6) 0.00619(18) 0.5709(6)
H18 H 0.3913 0.0104 0.6186
C29 C 0.5851(6) 0.02875(19) 0.4951(7)
H19 H 0.6419 0.0479 0.4921
C30 C 0.8655(5) 0.07688(19) 0.9485(6)
C31 C 0.9370(6) 0.0371(2) 0.9770(6)
C32 C 0.9973(6) 0.0218(2) 1.0958(7)
H20 H 0.9956 0.0362 1.1607
C33 C 0.9399(6) 0.0147(2) 0.8805(7)
H21 H 0.8993 0.0244 0.7999
C34 C 0.7612(8) 0.2156(2) 1.1655(8)
H22 H 0.7872 0.2257 1.2448
N1 N 0.8489(4) 0.12398(16) 0.6263(4)
N2 N 1.2099(4) 0.11419(18) 0.2881(5)
O1 O 1.6068(4) 0.11776(18) 0.0486(5)
O2 O 1.4133(5) 0.1225(2) -0.1144(5)
O3 O 0.3304(4) 0.16151(15) 0.6509(5)
O4 O 0.3807(5) 0.17762(18) 0.4984(5)
O5 O -0.0868(4) 0.32093(14) 0.5157(4)
O6 O -0.1040(4) 0.32267(15) 0.3251(4)
O7 O 0.5937(4) 0.10164(12) 0.6103(4)
O8 O 0.4833(4) 0.07616(13) 0.7055(4)
O9 O 0.8263(4) 0.08962(14) 0.8420(4)
O10 O 0.8519(4) 0.09381(13) 1.0383(4)
O11 O 0.6452(3) 0.15645(12) 0.8333(4)
O12 O 0.7784(5) 0.17832(16) 1.1582(5)
O13 O 0.7146(6) 0.23987(17) 1.0806(6)
O14 O 0.6445(4) 0.18325(12) 0.5983(4)
H23 H 0.5615 0.1828 0.5558
H24 H 0.6829 0.2099 0.6083
Zn1 Zn 0.74584(6) 0.13947(2) 0.73011(7)
Zn2 Zn 0.47635(7) 0.13019(2) 0.76194(7)
Zn3 Zn 0.75869(7) 0.14582(2) 1.01157(7)
C26B C 0.4650(5) -0.07371(18) 0.3668(6)
C27B C 0.4808(5) -0.03532(18) 0.4331(6)
C28B C 0.5652(6) -0.00619(18) 0.4291(6)
H18B H 0.6087 -0.0104 0.3814
C29B C 0.4149(6) -0.02875(19) 0.5049(7)
H19B H 0.3581 -0.0479 0.5079
O7B O 0.4063(4) -0.10164(12) 0.3897(4)
O8B O 0.5167(4) -0.07616(13) 0.2945(4)
C30B C 1.1345(5) -0.07688(19) 1.0515(6)
C31B C 1.0630(6) -0.0371(2) 1.0230(6)
C32B C 1.0027(6) -0.0218(2) 0.9042(7)
H20B H 1.0044 -0.0362 0.8393
C33B C 1.0601(6) -0.0147(2) 1.1195(7)
H21B H 1.1007 -0.0244 1.2001
O9B O 1.1737(4) -0.08962(14) 1.1580(4)
O10B O 1.1481(4) -0.09381(13) 0.9617(4)
C1B C 0.0268(6) -0.1126(2) 0.3183(6)
H1B H -0.0114 -0.107 0.2339
C2B C -0.0481(6) -0.1086(2) 0.3805(6)
H2B H -0.1349 -0.1008 0.339
C3B C 0.0092(5) -0.1165(2) 0.5052(6)
C4B C 0.1364(6) -0.1276(2) 0.5636(6)
H3B H 0.1771 -0.1327 0.6482
C5B C 0.2043(6) -0.1314(2) 0.4940(6)
H4B H 0.291 -0.1395 0.5337
C6B C -0.0700(5) -0.1148(2) 0.5775(6)
C7B C -0.1666(6) -0.0863(2) 0.5527(7)
H5B H -0.1863 -0.0678 0.4896
C8B C -0.2325(6) -0.0861(2) 0.6240(7)
H6B H -0.2938 -0.0663 0.6113
C9B C -0.1183(6) -0.1422(2) 0.7327(6)
H7B H -0.1029 -0.1616 0.7927
C10B C -0.0475(6) -0.1427(2) 0.6677(6)
H8B H 0.0163 -0.1621 0.6847
C11B C -0.2836(6) -0.1146(2) 0.7835(6)
H9B H 0.351 -0.1801 0.1628
C12B C -0.4168(6) -0.1104(3) 0.7223(7)
H10B H -0.4607 -0.1073 0.6369
C13B C -0.4832(6) -0.1112(3) 0.7950(7)
H11B H -0.5733 -0.1082 0.7578
C14B C -0.4156(6) -0.1163(2) 0.9217(7)
C15B C -0.2832(7) -0.1203(3) 0.9786(6)
H12B H -0.239 -0.124 1.0638
C16B C -0.2139(6) -0.1189(3) 0.9088(6)
H13B H -0.1235 -0.1209 0.9464
C17B C -0.4861(6) -0.1195(2) 1.0023(7)
C18B C 0.6816(6) -0.1823(2) 0.4409(7)
C19B C 0.7838(6) -0.2145(2) 0.4772(7)
C20B C 0.8543(6) -0.2192(2) 0.4097(7)
H14B H 0.8415 -0.2019 0.3453
C21B C 0.9434(6) -0.2500(2) 0.4400(7)
H15B H 0.9898 -0.2535 0.3946
C22B C 0.9645(6) -0.27574(19) 0.5365(6)
C23B C 0.8963(6) -0.2697(2) 0.6065(7)
H16B H 0.9125 -0.286 0.6742
C24B C 0.8055(6) -0.2397(2) 0.5745(7)
H17B H 0.7581 -0.2364 0.6191
C25B C 1.0602(5) -0.30906(19) 0.5682(6)
C34B C 0.2388(8) -0.2156(2) -0.1655(8)
H22B H 0.2128 -0.2257 -0.2448
N1B N 0.1511(4) -0.12398(16) 0.3737(4)
N2B N -0.2099(4) -0.11419(18) 0.7119(5)
O1B O -0.6068(4) -0.11776(18) 0.9514(5)
O2B O -0.4133(5) -0.1225(2) 1.1144(5)
O3B O 0.6696(4) -0.16151(15) 0.3491(5)
O4B O 0.6193(5) -0.17762(18) 0.5016(5)
O5B O 1.0868(4) -0.32093(14) 0.4843(4)
O6B O 1.1040(4) -0.32267(15) 0.6749(4)
O11B O 0.3548(3) -0.15645(12) 0.1667(4)
O12B O 0.2216(5) -0.17832(16) -0.1582(5)
O13B O 0.2854(6) -0.23987(17) -0.0806(6)
O14B O 0.3555(4) -0.18325(12) 0.4017(4)
H23B H 0.4385 -0.1828 0.4442
H24B H 0.3171 -0.2099 0.3917
Zn1B Zn 0.25416(6) -0.13947(2) 0.26989(7)
Zn2B Zn 0.52365(7) -0.13019(2) 0.23806(7)
Zn3B Zn 0.24131(7) -0.14582(2) -0.01157(7)
O1_2 O 0.6068(4) 0.11776(18) 1.0486(5)
O1B_2 O 0.3932(4) -0.11776(18) -0.0486(5)
O2_2 O 0.4133(5) 0.1225(2) 0.8856(5)
O2B_2 O 0.5867(5) -0.1225(2) 0.1144(5)
O5A O 0.0868(4) -0.17907(14) -0.0157(4)
O5C O 0.9132(4) 0.17907(14) 1.0157(4)
O6A O 0.1040(4) -0.17733(15) 0.1749(4)
O6C O 0.8960(4) 0.17733(15) 0.8251(4)
O9B_2 O 0.1737(4) -0.08962(14) 0.1580(4)
O10B_2 O 0.1481(4) -0.09381(13) -0.0383(4)
Zn1A Zn 1.25416(6) -0.36053(2) 0.76989(7)
Zn1B_2 Zn 1.25416(6) -0.13947(2) 1.26989(7)
Zn1C Zn -0.25416(6) 0.36053(2) 0.23011(7)
Zn2_2 Zn 1.47635(7) 0.13019(2) -0.23806(7)
Zn2B_2 Zn -0.47635(7) -0.13019(2) 1.23806(7)
Zn3_2 Zn 1.75869(7) 0.14582(2) 0.01157(7)
Zn3A Zn 1.24131(7) -0.35418(2) 0.48843(7)
Zn3B_2 Zn -0.75869(7) -0.14582(2) 0.98843(7)
Zn3B_3 Zn 1.24131(7) -0.14582(2) 0.98843(7)
Zn3C Zn -0.24131(7) 0.35418(2) 0.51157(7)
loop_
_geom_bond_atom_site_label_1
_geom_bond_atom_site_label_2
_geom_bond_site_symmetry_1
_geom_bond_site_symmetry_2
C1 H1 1_555 1_555
C2 C1 1_555 1_555
H2 C2 1_555 1_555
C3 C2 1_555 1_555
C4 C3 1_555 1_555
H3 C4 1_555 1_555
C5 C4 1_555 1_555
H4 C5 1_555 1_555
C6 C3 1_555 1_555
C7 C6 1_555 1_555
H5 C7 1_555 1_555
C8 C7 1_555 1_555
H6 C8 1_555 1_555
C9 H7 1_555 1_555
C10 C6 1_555 1_555
H8 C10 1_555 1_555
C11 C12 1_555 1_555
H9 O11 1_555 1_555
C12 H10 1_555 1_555
C13 C12 1_555 1_555
H11 C13 1_555 1_555
C14 C13 1_555 1_555
C15 C14 1_555 1_555
H12 C15 1_555 1_555
C16 C11 1_555 1_555
H13 C16 1_555 1_555
C17 C14 1_555 1_555
C18 C19 1_555 1_555
C19 C20 1_555 1_555
C20 H14 1_555 1_555
C21 C20 1_555 1_555
H15 C21 1_555 1_555
C22 C21 1_555 1_555
C23 C22 1_555 1_555
H16 C23 1_555 1_555
C24 C19 1_555 1_555
H17 C24 1_555 1_555
C25 C22 1_555 1_555
C26 C27 1_555 1_555
C27 C28 1_555 1_555
C28 H18 1_555 1_555
C29 C27 1_555 1_555
H19 C29 1_555 1_555
C30 C31 1_555 1_555
C31 C32 1_555 1_555
C32 H20 1_555 1_555
C33 C31 1_555 1_555
H21 C33 1_555 1_555
C34 H22 1_555 1_555
N1 C1 1_555 1_555
N2 C8 1_555 1_555
O1 C17 1_555 1_555
O2 C17 1_555 1_555
O3 C18 1_555 1_555
O4 C18 1_555 1_555
O5 C25 1_555 1_555
O6 C25 1_555 1_555
O7 C26 1_555 1_555
O8 C26 1_555 1_555
O9 C30 1_555 1_555
O10 C30 1_555 1_555
O11 Zn1 1_555 1_555
O12 C34 1_555 1_555
O13 C34 1_555 1_555
O14 H23 1_555 1_555
H24 O14 1_555 1_555
Zn1 N1 1_555 1_555
Zn2 O3 1_555 1_555
Zn3 O10 1_555 1_555
C35 H25 1_555 1_555
H26 C35 1_555 1_555
C36 C35 1_555 1_555
H27 C36 1_555 1_555
H28 C36 1_555 1_555
H29 C36 1_555 1_555
O15 C35 1_555 1_555
H30 O15 1_555 1_555
C26B C27B 1_555 1_555
C27B C28B 1_555 1_555
C28B C29 1_555 1_555
H18B C28B 1_555 1_555
C29B C28 1_555 1_555
H19B C29B 1_555 1_555
O7B C26B 1_555 1_555
O8B C26B 1_555 1_555
C30B C31B 1_555 1_555
C31B C32B 1_555 1_555
C32B C33 1_555 1_555
H20B C32B 1_555 1_555
C33B C32 1_555 1_555
H21B C33B 1_555 1_555
O9B C30B 1_555 1_555
O10B C30B 1_555 1_555
C1B H1B 1_555 1_555
C2B C1B 1_555 1_555
H2B C2B 1_555 1_555
C3B C2B 1_555 1_555
C4B C3B 1_555 1_555
H3B C4B 1_555 1_555
C5B C4B 1_555 1_555
H4B C5B 1_555 1_555
C6B C3B 1_555 1_555
C7B C6B 1_555 1_555
H5B C7B 1_555 1_555
C8B C7B 1_555 1_555
H6B C8B 1_555 1_555
C9B H7B 1_555 1_555
C10B C6B 1_555 1_555
H8B C10B 1_555 1_555
C11B C12B 1_555 1_555
H9B O11B 1_555 1_555
C12B H10B 1_555 1_555
C13B C12B 1_555 1_555
H11B C13B 1_555 1_555
C14B C13B 1_555 1_555
C15B C14B 1_555 1_555
H12B C15B 1_555 1_555
C16B C11B 1_555 1_555
H13B C16B 1_555 1_555
C17B C14B 1_555 1_555
C18B C19B 1_555 1_555
C19B C20B 1_555 1_555
C20B H14B 1_555 1_555
C21B C20B 1_555 1_555
H15B C21B 1_555 1_555
C22B C21B 1_555 1_555
C23B C22B 1_555 1_555
H16B C23B 1_555 1_555
C24B C19B 1_555 1_555
H17B C24B 1_555 1_555
C25B C22B 1_555 1_555
C34B H22B 1_555 1_555
N1B C1B 1_555 1_555
N2B C8B 1_555 1_555
O1B C17B 1_555 1_555
O2B C17B 1_555 1_555
O3B C18B 1_555 1_555
O4B C18B 1_555 1_555
O5B C25B 1_555 1_555
O6B C25B 1_555 1_555
O11B Zn1B 1_555 1_555
O12B C34B 1_555 1_555
O13B C34B 1_555 1_555
O14B H23B 1_555 1_555
H24B O14B 1_555 1_555
Zn1B O7B 1_555 1_555
Zn2B O8B 1_555 1_555
Zn3B O11B 1_555 1_555
O1_2 Zn3 1_555 1_555
O1B_2 Zn3B 1_555 1_555
O2_2 Zn2 1_555 1_555
O2B_2 Zn2B 1_555 1_555
O5A Zn3B 1_555 1_555
O5C Zn3 1_555 1_555
O6A Zn1B 1_555 1_555
O6C Zn1 1_555 1_555
O9B_2 Zn1B 1_555 1_555
O10B_2 Zn3B 1_555 1_555
Zn1A O6B 1_555 1_555
Zn1B_2 O9B 1_555 1_555
Zn1C O6 1_555 1_555
Zn2_2 O2 1_555 1_555
Zn2B_2 O2B 1_555 1_555
Zn3_2 O1 1_555 1_555
Zn3A O5B 1_555 1_555
Zn3B_2 O1B 1_555 1_555
Zn3B_3 O10B 1_555 1_555
Zn3C O5 1_555 1_555
C5 N1 1_555 1_555
C9 C10 1_555 1_555
C9 N2 1_555 1_555
C11 N2 1_555 1_555
C15 C16 1_555 1_555
C23 C24 1_555 1_555
O7 Zn1 1_555 1_555
O8 Zn2 1_555 1_555
O9 Zn1 1_555 1_555
O11 Zn2 1_555 1_555
O11 Zn3 1_555 1_555
O12 Zn3 1_555 1_555
O14 Zn1 1_555 1_555
C27B C29B 1_555 1_555
C31B C33B 1_555 1_555
C5B N1B 1_555 1_555
C9B C10B 1_555 1_555
C9B N2B 1_555 1_555
C11B N2B 1_555 1_555
C15B C16B 1_555 1_555
C23B C24B 1_555 1_555
N1B Zn1B 1_555 1_555
O3B Zn2B 1_555 1_555
O11B Zn2B 1_555 1_555
O12B Zn3B 1_555 1_555
O14B Zn1B 1_555 1_555

#END
