
#######################################################################
#
#                 Cambridge Crystallographic Data Centre
#                                CCDC 
#
#######################################################################
#
# If this CIF has been generated from an entry in the Cambridge 
# Structural Database, then it will include bibliographic, chemical, 
# crystal, experimental, refinement or atomic coordinate data resulting 
# from the CCDC's data processing and validation procedures.
#
#######################################################################

data_KEXPOU
_chemical_formula_moiety         '(C20 H23 N3 O10 Zn2)n'
_symmetry_cell_setting           monoclinic
_symmetry_space_group_name_H-M   'P 21/n'
_symmetry_Int_Tables_number      14
_space_group_name_Hall           '-P 2yn'
loop_
_symmetry_equiv_pos_site_id
_symmetry_equiv_pos_as_xyz
1 x,y,z
2 1/2-x,1/2+y,1/2-z
3 -x,-y,-z
4 1/2+x,1/2-y,1/2+z
_cell_length_a                   7.2490(14)
_cell_length_b                   23.930(5)
_cell_length_c                   7.4190(15)
_cell_angle_alpha                90
_cell_angle_beta                 90.37(3)
_cell_angle_gamma                90
_cell_volume                     1286.94
loop_
_atom_site_label
_atom_site_type_symbol
_atom_site_fract_x
_atom_site_fract_y
_atom_site_fract_z
Zn1 Zn 0.57144(4) 0.218044(11) 0.57705(4)
O1 O 0.3745(2) 0.26020(7) 0.4180(2)
O2 O 0.2877(2) 0.32326(7) 0.2142(2)
O3 O 0.7696(2) 0.26025(7) 0.4171(2)
O4 O 0.8541(2) 0.32407(7) 0.2140(2)
O5 O 0.5706(3) 0.28327(7) 0.7687(2)
H1 H 0.478(3) 0.2760(12) 0.829(4)
H2 H 0.664(5) 0.2742(13) 0.830(5)
N1 N 0.5760(3) 0.14970(9) 0.3938(3)
C1 C 0.3985(3) 0.30489(10) 0.3314(3)
C2 C 0.5716(3) 0.33919(10) 0.3692(3)
H3 H 0.5729 0.3510 0.4971
H4 H 0.5702 0.3732 0.2933
C3 C 0.7452(3) 0.30536(10) 0.3298(3)
C4 C 0.6046(4) 0.05150(12) 0.3417(4)
H5 H 0.6199 0.0151 0.3911
C5 C 0.5972(4) 0.09729(11) 0.4542(4)
H6 H 0.6077 0.0914 0.5805
C6 C 0.5626(4) 0.15667(12) 0.2146(3)
H7 H 0.5483 0.1935 0.1691
C7 C 0.5686(4) 0.11300(13) 0.0928(4)
H8 H 0.5584 0.1201 -0.0329
C8 C 0.5898(4) 0.05847(12) 0.1556(4)
C9 C 0.5949(4) 0.00958(14) 0.0277(5)
H9 H 0.6647 0.0203 -0.0812
H10 H 0.6610 -0.0218 0.0862
N1B N 0.4240(3) -0.14970(9) -0.3938(3)
C4B C 0.3954(4) -0.05150(12) -0.3417(4)
H5B H 0.3801 -0.0151 -0.3911
C5B C 0.4028(4) -0.09729(11) -0.4542(4)
H6B H 0.3923 -0.0914 -0.5805
C6B C 0.4374(4) -0.15667(12) -0.2146(3)
H7B H 0.4517 -0.1935 -0.1691
C7B C 0.4314(4) -0.11300(13) -0.0928(4)
H8B H 0.4416 -0.1201 0.0329
C8B C 0.4102(4) -0.05847(12) -0.1556(4)
C9B C 0.4051(4) -0.00958(14) -0.0277(5)
H9B H 0.3353 -0.0203 0.0812
H10B H 0.3390 0.0218 -0.0862
Zn1B Zn 0.42856(4) -0.218044(11) -0.57705(4)
O1B O 0.6255(2) -0.26020(7) -0.4180(2)
O2B O 0.7123(2) -0.32326(7) -0.2142(2)
O3B O 0.2304(2) -0.26025(7) -0.4171(2)
O4B O 0.1459(2) -0.32407(7) -0.2140(2)
O5B O 0.4294(3) -0.28327(7) -0.7687(2)
H1B H 0.522(3) -0.2760(12) -0.829(4)
H2B H 0.336(5) -0.2742(13) -0.830(5)
C1B C 0.6015(3) -0.30489(10) -0.3314(3)
C2B C 0.4284(3) -0.33919(10) -0.3692(3)
H3B H 0.4271 -0.3510 -0.4971
H4B H 0.4298 -0.3732 -0.2933
C3B C 0.2548(3) -0.30536(10) -0.3298(3)
Zn1A Zn -0.07144(4) -0.281956(11) -0.07705(4)
Zn1A_2 Zn 0.92856(4) -0.281956(11) -0.07705(4)
Zn1C Zn 0.07144(4) 0.281956(11) 0.07705(4)
Zn1C_2 Zn 1.07144(4) 0.281956(11) 0.07705(4)
O2A O 0.2123(2) -0.17674(7) -0.7142(2)
O2C O 0.7877(2) 0.17674(7) 0.7142(2)
O4A O 0.6459(2) -0.17593(7) -0.7140(2)
O4C O 0.3541(2) 0.17593(7) 0.7140(2)
N2 N 0.0409(6) -0.01468(15) 0.2634(5)
C10 C 0.0642(5) 0.02989(15) 0.3130(5)
C11 C 0.0929(6) 0.08653(15) 0.3751(6)
H11 H 0.1293 0.0860 0.5026
H12 H -0.0216 0.1079 0.3608
H13 H 0.1907 0.1041 0.3041
loop_
_geom_bond_atom_site_label_1
_geom_bond_atom_site_label_2
_geom_bond_site_symmetry_1
_geom_bond_site_symmetry_2
Zn1 O1 1_555 1_555
O1 C1 1_555 1_555
O2 C1 1_555 1_555
O3 Zn1 1_555 1_555
O4 C3 1_555 1_555
O5 Zn1 1_555 1_555
H1 O5 1_555 1_555
H2 O5 1_555 1_555
N1 Zn1 1_555 1_555
C1 C2 1_555 1_555
C2 H3 1_555 1_555
H4 C2 1_555 1_555
C3 O3 1_555 1_555
C4 H5 1_555 1_555
C5 N1 1_555 1_555
H6 C5 1_555 1_555
C6 N1 1_555 1_555
H7 C6 1_555 1_555
C7 C6 1_555 1_555
H8 C7 1_555 1_555
C8 C4 1_555 1_555
C9 C8 1_555 1_555
H9 C9 1_555 1_555
H10 C9 1_555 1_555
N2 C10 1_555 1_555
C10 C11 1_555 1_555
C11 H11 1_555 1_555
H12 C11 1_555 1_555
H13 C11 1_555 1_555
N1B C5B 1_555 1_555
C4B H5B 1_555 1_555
C5B C4B 1_555 1_555
H6B C5B 1_555 1_555
C6B N1B 1_555 1_555
H7B C6B 1_555 1_555
C7B C6B 1_555 1_555
H8B C7B 1_555 1_555
C8B C4B 1_555 1_555
C9B C9 1_555 1_555
H9B C9B 1_555 1_555
H10B C9B 1_555 1_555
Zn1B N1B 1_555 1_555
O1B Zn1B 1_555 1_555
O2B C1B 1_555 1_555
O3B Zn1B 1_555 1_555
O4B C3B 1_555 1_555
O5B Zn1B 1_555 1_555
H1B O5B 1_555 1_555
H2B O5B 1_555 1_555
C1B O1B 1_555 1_555
C2B C1B 1_555 1_555
H3B C2B 1_555 1_555
H4B C2B 1_555 1_555
C3B O3B 1_555 1_555
Zn1A O4B 1_555 1_555
Zn1A_2 O2B 1_555 1_555
Zn1C O2 1_555 1_555
Zn1C_2 O4 1_555 1_555
O2A Zn1B 1_555 1_555
O2C Zn1 1_555 1_555
O4A Zn1B 1_555 1_555
O4C Zn1 1_555 1_555
C2 C3 1_555 1_555
C4 C5 1_555 1_555
C7 C8 1_555 1_555
C7B C8B 1_555 1_555
C8B C9B 1_555 1_555
C2B C3B 1_555 1_555

#END
