
#######################################################################
#
#                 Cambridge Crystallographic Data Centre
#                                CCDC 
#
#######################################################################
#
# If this CIF has been generated from an entry in the Cambridge 
# Structural Database, then it will include bibliographic, chemical, 
# crystal, experimental, refinement or atomic coordinate data resulting 
# from the CCDC's data processing and validation procedures.
#
#######################################################################

data_VUJBIM
_chemical_formula_moiety         '(C36 H18 Cu3 O15)n'
_symmetry_cell_setting           cubic
_symmetry_space_group_name_H-M   'F m -3 m'
_symmetry_Int_Tables_number      225
_space_group_name_Hall           '-F 4 2 3'
loop_
_symmetry_equiv_pos_site_id
_symmetry_equiv_pos_as_xyz
1 x,y,z
2 -y,x,z
3 -x,-y,z
4 y,-x,z
5 x,-z,y
6 x,-y,-z
7 x,z,-y
8 z,y,-x
9 -x,y,-z
10 -z,y,x
11 z,x,y
12 y,z,x
13 -y,-z,x
14 z,-x,-y
15 -y,z,-x
16 -z,-x,y
17 -z,x,-y
18 y,-z,-x
19 y,x,-z
20 -y,-x,-z
21 -x,z,y
22 -x,-z,-y
23 z,-y,x
24 -z,-y,-x
25 x,1/2+y,1/2+z
26 -y,1/2+x,1/2+z
27 -x,1/2-y,1/2+z
28 y,1/2-x,1/2+z
29 x,1/2-z,1/2+y
30 x,1/2-y,1/2-z
31 x,1/2+z,1/2-y
32 z,1/2+y,1/2-x
33 -x,1/2+y,1/2-z
34 -z,1/2+y,1/2+x
35 z,1/2+x,1/2+y
36 y,1/2+z,1/2+x
37 -y,1/2-z,1/2+x
38 z,1/2-x,1/2-y
39 -y,1/2+z,1/2-x
40 -z,1/2-x,1/2+y
41 -z,1/2+x,1/2-y
42 y,1/2-z,1/2-x
43 y,1/2+x,1/2-z
44 -y,1/2-x,1/2-z
45 -x,1/2+z,1/2+y
46 -x,1/2-z,1/2-y
47 z,1/2-y,1/2+x
48 -z,1/2-y,1/2-x
49 1/2+x,y,1/2+z
50 1/2-y,x,1/2+z
51 1/2-x,-y,1/2+z
52 1/2+y,-x,1/2+z
53 1/2+x,-z,1/2+y
54 1/2+x,-y,1/2-z
55 1/2+x,z,1/2-y
56 1/2+z,y,1/2-x
57 1/2-x,y,1/2-z
58 1/2-z,y,1/2+x
59 1/2+z,x,1/2+y
60 1/2+y,z,1/2+x
61 1/2-y,-z,1/2+x
62 1/2+z,-x,1/2-y
63 1/2-y,z,1/2-x
64 1/2-z,-x,1/2+y
65 1/2-z,x,1/2-y
66 1/2+y,-z,1/2-x
67 1/2+y,x,1/2-z
68 1/2-y,-x,1/2-z
69 1/2-x,z,1/2+y
70 1/2-x,-z,1/2-y
71 1/2+z,-y,1/2+x
72 1/2-z,-y,1/2-x
73 1/2+x,1/2+y,z
74 1/2-y,1/2+x,z
75 1/2-x,1/2-y,z
76 1/2+y,1/2-x,z
77 1/2+x,1/2-z,y
78 1/2+x,1/2-y,-z
79 1/2+x,1/2+z,-y
80 1/2+z,1/2+y,-x
81 1/2-x,1/2+y,-z
82 1/2-z,1/2+y,x
83 1/2+z,1/2+x,y
84 1/2+y,1/2+z,x
85 1/2-y,1/2-z,x
86 1/2+z,1/2-x,-y
87 1/2-y,1/2+z,-x
88 1/2-z,1/2-x,y
89 1/2-z,1/2+x,-y
90 1/2+y,1/2-z,-x
91 1/2+y,1/2+x,-z
92 1/2-y,1/2-x,-z
93 1/2-x,1/2+z,y
94 1/2-x,1/2-z,-y
95 1/2+z,1/2-y,x
96 1/2-z,1/2-y,-x
97 -x,-y,-z
98 y,-x,-z
99 x,y,-z
100 -y,x,-z
101 -x,z,-y
102 -x,y,z
103 -x,-z,y
104 -z,-y,x
105 x,-y,z
106 z,-y,-x
107 -z,-x,-y
108 -y,-z,-x
109 y,z,-x
110 -z,x,y
111 y,-z,x
112 z,x,-y
113 z,-x,y
114 -y,z,x
115 -y,-x,z
116 y,x,z
117 x,-z,-y
118 x,z,y
119 -z,y,-x
120 z,y,x
121 -x,1/2-y,1/2-z
122 y,1/2-x,1/2-z
123 x,1/2+y,1/2-z
124 -y,1/2+x,1/2-z
125 -x,1/2+z,1/2-y
126 -x,1/2+y,1/2+z
127 -x,1/2-z,1/2+y
128 -z,1/2-y,1/2+x
129 x,1/2-y,1/2+z
130 z,1/2-y,1/2-x
131 -z,1/2-x,1/2-y
132 -y,1/2-z,1/2-x
133 y,1/2+z,1/2-x
134 -z,1/2+x,1/2+y
135 y,1/2-z,1/2+x
136 z,1/2+x,1/2-y
137 z,1/2-x,1/2+y
138 -y,1/2+z,1/2+x
139 -y,1/2-x,1/2+z
140 y,1/2+x,1/2+z
141 x,1/2-z,1/2-y
142 x,1/2+z,1/2+y
143 -z,1/2+y,1/2-x
144 z,1/2+y,1/2+x
145 1/2-x,-y,1/2-z
146 1/2+y,-x,1/2-z
147 1/2+x,y,1/2-z
148 1/2-y,x,1/2-z
149 1/2-x,z,1/2-y
150 1/2-x,y,1/2+z
151 1/2-x,-z,1/2+y
152 1/2-z,-y,1/2+x
153 1/2+x,-y,1/2+z
154 1/2+z,-y,1/2-x
155 1/2-z,-x,1/2-y
156 1/2-y,-z,1/2-x
157 1/2+y,z,1/2-x
158 1/2-z,x,1/2+y
159 1/2+y,-z,1/2+x
160 1/2+z,x,1/2-y
161 1/2+z,-x,1/2+y
162 1/2-y,z,1/2+x
163 1/2-y,-x,1/2+z
164 1/2+y,x,1/2+z
165 1/2+x,-z,1/2-y
166 1/2+x,z,1/2+y
167 1/2-z,y,1/2-x
168 1/2+z,y,1/2+x
169 1/2-x,1/2-y,-z
170 1/2+y,1/2-x,-z
171 1/2+x,1/2+y,-z
172 1/2-y,1/2+x,-z
173 1/2-x,1/2+z,-y
174 1/2-x,1/2+y,z
175 1/2-x,1/2-z,y
176 1/2-z,1/2-y,x
177 1/2+x,1/2-y,z
178 1/2+z,1/2-y,-x
179 1/2-z,1/2-x,-y
180 1/2-y,1/2-z,-x
181 1/2+y,1/2+z,-x
182 1/2-z,1/2+x,y
183 1/2+y,1/2-z,x
184 1/2+z,1/2+x,-y
185 1/2+z,1/2-x,y
186 1/2-y,1/2+z,x
187 1/2-y,1/2-x,z
188 1/2+y,1/2+x,z
189 1/2+x,1/2-z,-y
190 1/2+x,1/2+z,y
191 1/2-z,1/2+y,-x
192 1/2+z,1/2+y,x
_cell_length_a                   42.7958(6)
_cell_length_b                   42.7958(6)
_cell_length_c                   42.7958(6)
_cell_angle_alpha                90
_cell_angle_beta                 90
_cell_angle_gamma                90
_cell_volume                     78379.7
loop_
_atom_site_label
_atom_site_type_symbol
_atom_site_fract_x
_atom_site_fract_y
_atom_site_fract_z
Cu1 Cu 0.3687 0.00000(3) 0.36865(3)
Cu2 Cu 0.3249 0.17511(4) 0.50000(4)
O1 O 0.03239(14) 0.11230(15) 0.15711(19)
O2 O 0.03226(12) 0.14816(17) 0.19450(14)
O3 O 0.2874 0.21257(13) 0.50000(13)
O4 O 0.4039 0.00000(13) 0.40388(13)
C1 C 0.0442(4) 0.1222(3) 0.1837(3)
C2 C 0.0803(2) 0.0803(2) 0.1841(5)
H1 H 0.0716 0.0716 0.1656
C3 C 0.0700(3) 0.1056(3) 0.2002(4)
C4 C 0.0789(3) 0.1179(3) 0.2279(4)
H2 H 0.0692 0.1359 0.2366
C5 C 0.1026(3) 0.1026(3) 0.2424(8)
C6 C 0.1135(4) 0.1135(4) 0.2728(9)
C7 C 0.1221(3) 0.1221(3) 0.2939(6)
C8 C 0.1340(3) 0.1340(3) 0.3232(6)
C9 C 0.1215(3) 0.1613(2) 0.3387(2)
H3 H 0.1030 0.1699 0.3301
Cu1DB Cu 0.1313 0.00000(3) 0.13135(3)
Cu1LB Cu 0.13135(3) 0.3687 0.50000(3)
Cu1A Cu 0.00000(3) 0.3687 0.36865(3)
Cu1OA Cu 0.00000(3) 0.13135(3) 0.1313
Cu1BA Cu 0.3687 0.13135(3) 0.50000(3)
Cu2OA Cu 0.17511(4) 0.00000(4) 0.1751
Cu2R Cu 0.17511(4) 0.3249 0.50000(4)
Cu2LB Cu 0.00000(4) 0.3249 0.32489(4)
Cu2DA Cu 0.3249 0.00000(4) 0.32489(4)
Cu2CB Cu 0.00000(4) 0.17511(4) 0.1751
O1KD O 0.11230(15) 0.03239(14) 0.15711(19)
O1OA O 0.11230(15) 0.34289(19) 0.46761(14)
O1JE O 0.03239(14) 0.34289(19) 0.38770(15)
O1LB O 0.34289(19) 0.03239(14) 0.38770(15)
O1JF O 0.34289(19) 0.11230(15) 0.46761(14)
O1OB O 0.38770(15) -0.03239(14) 0.34289(19)
O1XE O 0.34289(19) -0.03239(14) 0.38770(15)
O1QE O 0.38770(15) 0.03239(14) 0.34289(19)
O1EF O 0.38770(15) 0.15711(19) 0.53239(14)
O1EB O 0.34289(19) 0.11230(15) 0.53239(14)
O1JB O 0.38770(15) 0.15711(19) 0.46761(14)
O2KD O 0.14816(17) 0.03226(12) 0.19450(14)
O2OA O 0.14816(17) 0.30550(14) 0.46774(12)
O2JE O 0.03226(12) 0.30550(14) 0.35184(17)
O2LB O 0.30550(14) 0.03226(12) 0.35184(17)
O2JF O 0.30550(14) 0.14816(17) 0.46774(12)
O2EF O 0.35184(17) 0.19450(14) 0.53226(12)
O2EB O 0.30550(14) 0.14816(17) 0.53226(12)
O2JB O 0.35184(17) 0.19450(14) 0.46774(12)
O4BA O 0.4039 0.09612(13) 0.50000(13)
C1KD C 0.1222(3) 0.0442(4) 0.1837(3)
C1OA C 0.1222(3) 0.3163(3) 0.4558(4)
C1JE C 0.0442(4) 0.3163(3) 0.3778(3)
C1LB C 0.3163(3) 0.0442(4) 0.3778(3)
C1JF C 0.3163(3) 0.1222(3) 0.4558(4)
C2OA C 0.0803(2) 0.3159(5) 0.4197(2)
C2LB C 0.3159(5) 0.0803(2) 0.4197(2)
H1OA H 0.0716 0.3344 0.4284
H1LB H 0.3344 0.0716 0.4284
C3KD C 0.1056(3) 0.0700(3) 0.2002(4)
C3OA C 0.1056(3) 0.2998(4) 0.4300(3)
C3JE C 0.0700(3) 0.2998(4) 0.3944(3)
C3LB C 0.2998(4) 0.0700(3) 0.3944(3)
C3JF C 0.2998(4) 0.1056(3) 0.4300(3)
C4KD C 0.1179(3) 0.0789(3) 0.2279(4)
C4OA C 0.1179(3) 0.2721(4) 0.4211(3)
C4JE C 0.0789(3) 0.2721(4) 0.3821(3)
C4LB C 0.2721(4) 0.0789(3) 0.3821(3)
C4JF C 0.2721(4) 0.1179(3) 0.4211(3)
H2KD H 0.1359 0.0692 0.2366
H2JE H 0.0692 0.2634 0.3641
H2OA H 0.1359 0.2634 0.4308
H2JF H 0.2634 0.1359 0.4308
H2LB H 0.2634 0.0692 0.3641
C5OA C 0.1026(3) 0.2576(8) 0.3974(3)
C5LB C 0.2576(8) 0.1026(3) 0.3974(3)
C6OA C 0.1135(4) 0.2272(9) 0.3865(4)
C6LB C 0.2272(9) 0.1135(4) 0.3865(4)
C7OA C 0.1221(3) 0.2061(6) 0.3779(3)
C7LB C 0.2061(6) 0.1221(3) 0.3779(3)
C8OA C 0.1340(3) 0.1768(6) 0.3660(3)
C8LB C 0.1768(6) 0.1340(3) 0.3660(3)
C9OA C 0.1613(2) 0.1613(2) 0.3785(3)
C9LB C 0.1613(2) 0.1215(3) 0.3387(2)
H3LB H 0.1699 0.1030 0.3301
H3OA H 0.1699 0.1699 0.3970
loop_
_geom_bond_atom_site_label_1
_geom_bond_atom_site_label_2
_geom_bond_site_symmetry_1
_geom_bond_site_symmetry_2
Cu1 O4 1_555 1_555
Cu2 O3 1_555 1_555
O1 C1 1_555 1_555
O2 C1 1_555 1_555
C1 C3 1_555 1_555
C2 H1 1_555 1_555
C3 C2 1_555 1_555
C4 C3 1_555 1_555
H2 C4 1_555 1_555
C5 C4 1_555 1_555
C6 C5 1_555 1_555
C7 C6 1_555 1_555
C8 C7 1_555 1_555
C9 C8 1_555 1_555
H3 C9 1_555 1_555
Cu1DB O1KD 1_555 1_555
Cu1LB O1OA 1_555 1_555
Cu1A O1JE 1_555 1_555
Cu1OA O1 1_555 1_555
Cu1BA O1JF 1_555 1_555
Cu2OA O2KD 1_555 1_555
Cu2R O2OA 1_555 1_555
Cu2LB O2JE 1_555 1_555
Cu2DA O2LB 1_555 1_555
Cu2CB O2 1_555 1_555
O1KD C1KD 1_555 1_555
O1OA C1OA 1_555 1_555
O1JE C1JE 1_555 1_555
O1LB Cu1 1_555 1_555
O1JF C1JF 1_555 1_555
O1OB Cu1 1_555 1_555
O1XE Cu1 1_555 1_555
O1QE Cu1 1_555 1_555
O1EF Cu1BA 1_555 1_555
O1EB Cu1BA 1_555 1_555
O1JB Cu1BA 1_555 1_555
O2KD C1KD 1_555 1_555
O2OA C1OA 1_555 1_555
O2JE C1JE 1_555 1_555
O2LB C1LB 1_555 1_555
O2JF Cu2 1_555 1_555
O2EF Cu2 1_555 1_555
O2EB Cu2 1_555 1_555
O2JB Cu2 1_555 1_555
O4BA Cu1BA 1_555 1_555
C1KD C3KD 1_555 1_555
C1OA C3OA 1_555 1_555
C1JE C3JE 1_555 1_555
C1LB O1LB 1_555 1_555
C1JF O2JF 1_555 1_555
C2OA H1OA 1_555 1_555
C2LB H1LB 1_555 1_555
C3KD C2 1_555 1_555
C3OA C2OA 1_555 1_555
C3JE C2OA 1_555 1_555
C3LB C1LB 1_555 1_555
C3JF C1JF 1_555 1_555
C4KD C5 1_555 1_555
C4OA C3OA 1_555 1_555
C4JE C3JE 1_555 1_555
C4LB C3LB 1_555 1_555
C4JF C3JF 1_555 1_555
H2KD C4KD 1_555 1_555
H2JE C4JE 1_555 1_555
H2OA C4OA 1_555 1_555
H2JF C4JF 1_555 1_555
H2LB C4LB 1_555 1_555
C5OA C4OA 1_555 1_555
C5LB C4LB 1_555 1_555
C6OA C5OA 1_555 1_555
C6LB C5LB 1_555 1_555
C7OA C6OA 1_555 1_555
C7LB C6LB 1_555 1_555
C8OA C9 1_555 1_555
C8LB C7LB 1_555 1_555
C9OA C8OA 1_555 1_555
C9LB C8 1_555 1_555
H3LB C9LB 1_555 1_555
H3OA C9OA 1_555 1_555
C2LB C3LB 1_555 1_555
C2LB C3JF 1_555 1_555
C3KD C4KD 1_555 1_555
C4JE C5OA 1_555 1_555
C4JF C5LB 1_555 1_555
C7OA C8OA 1_555 1_555
C8LB C9OA 1_555 1_555
C8LB C9LB 1_555 1_555

#END
