
#######################################################################
#
#                 Cambridge Crystallographic Data Centre
#                                CCDC 
#
#######################################################################
#
# If this CIF has been generated from an entry in the Cambridge 
# Structural Database, then it will include bibliographic, chemical, 
# crystal, experimental, refinement or atomic coordinate data resulting 
# from the CCDC's data processing and validation procedures.
#
#######################################################################

data_VUJBEI
_chemical_formula_moiety         '(C36 H18 O15 Zn3)n'
_symmetry_cell_setting           cubic
_symmetry_space_group_name_H-M   'F m -3 m'
_symmetry_Int_Tables_number      225
_space_group_name_Hall           '-F 4 2 3'
loop_
_symmetry_equiv_pos_site_id
_symmetry_equiv_pos_as_xyz
1 x,y,z
2 -y,x,z
3 -x,-y,z
4 y,-x,z
5 x,-z,y
6 x,-y,-z
7 x,z,-y
8 z,y,-x
9 -x,y,-z
10 -z,y,x
11 z,x,y
12 y,z,x
13 -y,-z,x
14 z,-x,-y
15 -y,z,-x
16 -z,-x,y
17 -z,x,-y
18 y,-z,-x
19 y,x,-z
20 -y,-x,-z
21 -x,z,y
22 -x,-z,-y
23 z,-y,x
24 -z,-y,-x
25 x,1/2+y,1/2+z
26 -y,1/2+x,1/2+z
27 -x,1/2-y,1/2+z
28 y,1/2-x,1/2+z
29 x,1/2-z,1/2+y
30 x,1/2-y,1/2-z
31 x,1/2+z,1/2-y
32 z,1/2+y,1/2-x
33 -x,1/2+y,1/2-z
34 -z,1/2+y,1/2+x
35 z,1/2+x,1/2+y
36 y,1/2+z,1/2+x
37 -y,1/2-z,1/2+x
38 z,1/2-x,1/2-y
39 -y,1/2+z,1/2-x
40 -z,1/2-x,1/2+y
41 -z,1/2+x,1/2-y
42 y,1/2-z,1/2-x
43 y,1/2+x,1/2-z
44 -y,1/2-x,1/2-z
45 -x,1/2+z,1/2+y
46 -x,1/2-z,1/2-y
47 z,1/2-y,1/2+x
48 -z,1/2-y,1/2-x
49 1/2+x,y,1/2+z
50 1/2-y,x,1/2+z
51 1/2-x,-y,1/2+z
52 1/2+y,-x,1/2+z
53 1/2+x,-z,1/2+y
54 1/2+x,-y,1/2-z
55 1/2+x,z,1/2-y
56 1/2+z,y,1/2-x
57 1/2-x,y,1/2-z
58 1/2-z,y,1/2+x
59 1/2+z,x,1/2+y
60 1/2+y,z,1/2+x
61 1/2-y,-z,1/2+x
62 1/2+z,-x,1/2-y
63 1/2-y,z,1/2-x
64 1/2-z,-x,1/2+y
65 1/2-z,x,1/2-y
66 1/2+y,-z,1/2-x
67 1/2+y,x,1/2-z
68 1/2-y,-x,1/2-z
69 1/2-x,z,1/2+y
70 1/2-x,-z,1/2-y
71 1/2+z,-y,1/2+x
72 1/2-z,-y,1/2-x
73 1/2+x,1/2+y,z
74 1/2-y,1/2+x,z
75 1/2-x,1/2-y,z
76 1/2+y,1/2-x,z
77 1/2+x,1/2-z,y
78 1/2+x,1/2-y,-z
79 1/2+x,1/2+z,-y
80 1/2+z,1/2+y,-x
81 1/2-x,1/2+y,-z
82 1/2-z,1/2+y,x
83 1/2+z,1/2+x,y
84 1/2+y,1/2+z,x
85 1/2-y,1/2-z,x
86 1/2+z,1/2-x,-y
87 1/2-y,1/2+z,-x
88 1/2-z,1/2-x,y
89 1/2-z,1/2+x,-y
90 1/2+y,1/2-z,-x
91 1/2+y,1/2+x,-z
92 1/2-y,1/2-x,-z
93 1/2-x,1/2+z,y
94 1/2-x,1/2-z,-y
95 1/2+z,1/2-y,x
96 1/2-z,1/2-y,-x
97 -x,-y,-z
98 y,-x,-z
99 x,y,-z
100 -y,x,-z
101 -x,z,-y
102 -x,y,z
103 -x,-z,y
104 -z,-y,x
105 x,-y,z
106 z,-y,-x
107 -z,-x,-y
108 -y,-z,-x
109 y,z,-x
110 -z,x,y
111 y,-z,x
112 z,x,-y
113 z,-x,y
114 -y,z,x
115 -y,-x,z
116 y,x,z
117 x,-z,-y
118 x,z,y
119 -z,y,-x
120 z,y,x
121 -x,1/2-y,1/2-z
122 y,1/2-x,1/2-z
123 x,1/2+y,1/2-z
124 -y,1/2+x,1/2-z
125 -x,1/2+z,1/2-y
126 -x,1/2+y,1/2+z
127 -x,1/2-z,1/2+y
128 -z,1/2-y,1/2+x
129 x,1/2-y,1/2+z
130 z,1/2-y,1/2-x
131 -z,1/2-x,1/2-y
132 -y,1/2-z,1/2-x
133 y,1/2+z,1/2-x
134 -z,1/2+x,1/2+y
135 y,1/2-z,1/2+x
136 z,1/2+x,1/2-y
137 z,1/2-x,1/2+y
138 -y,1/2+z,1/2+x
139 -y,1/2-x,1/2+z
140 y,1/2+x,1/2+z
141 x,1/2-z,1/2-y
142 x,1/2+z,1/2+y
143 -z,1/2+y,1/2-x
144 z,1/2+y,1/2+x
145 1/2-x,-y,1/2-z
146 1/2+y,-x,1/2-z
147 1/2+x,y,1/2-z
148 1/2-y,x,1/2-z
149 1/2-x,z,1/2-y
150 1/2-x,y,1/2+z
151 1/2-x,-z,1/2+y
152 1/2-z,-y,1/2+x
153 1/2+x,-y,1/2+z
154 1/2+z,-y,1/2-x
155 1/2-z,-x,1/2-y
156 1/2-y,-z,1/2-x
157 1/2+y,z,1/2-x
158 1/2-z,x,1/2+y
159 1/2+y,-z,1/2+x
160 1/2+z,x,1/2-y
161 1/2+z,-x,1/2+y
162 1/2-y,z,1/2+x
163 1/2-y,-x,1/2+z
164 1/2+y,x,1/2+z
165 1/2+x,-z,1/2-y
166 1/2+x,z,1/2+y
167 1/2-z,y,1/2-x
168 1/2+z,y,1/2+x
169 1/2-x,1/2-y,-z
170 1/2+y,1/2-x,-z
171 1/2+x,1/2+y,-z
172 1/2-y,1/2+x,-z
173 1/2-x,1/2+z,-y
174 1/2-x,1/2+y,z
175 1/2-x,1/2-z,y
176 1/2-z,1/2-y,x
177 1/2+x,1/2-y,z
178 1/2+z,1/2-y,-x
179 1/2-z,1/2-x,-y
180 1/2-y,1/2-z,-x
181 1/2+y,1/2+z,-x
182 1/2-z,1/2+x,y
183 1/2+y,1/2-z,x
184 1/2+z,1/2+x,-y
185 1/2+z,1/2-x,y
186 1/2-y,1/2+z,x
187 1/2-y,1/2-x,z
188 1/2+y,1/2+x,z
189 1/2+x,1/2-z,-y
190 1/2+x,1/2+z,y
191 1/2-z,1/2+y,-x
192 1/2+z,1/2+y,x
_cell_length_a                   42.8434(3)
_cell_length_b                   42.8434(3)
_cell_length_c                   42.8434(3)
_cell_angle_alpha                90
_cell_angle_beta                 90
_cell_angle_gamma                90
_cell_volume                     78641.5
loop_
_atom_site_label
_atom_site_type_symbol
_atom_site_fract_x
_atom_site_fract_y
_atom_site_fract_z
_atom_site_U_iso_or_equiv
_atom_site_thermal_displace_type
Zn1 Zn 0.0000 0.128867(18) 0.128867(18) 0.0922 Uani
Zn2 Zn 0.0000 0.178895(18) 0.178895(18) 0.0896 Uani
O1 O 0.03285(9) 0.11240(10) 0.15858(10) 0.1310 Uani
O2 O 0.03261(9) 0.14855(10) 0.19513(10) 0.1323 Uani
O3 O 0.0000 0.21360(10) 0.21360(10) 0.1373 Uani
O4 O 0.0000 0.09267(12) 0.09267(12) 0.1660 Uani
C1 C 0.04303(15) 0.12395(15) 0.18335(16) 0.1143 Uani
C2 C 0.08203(11) 0.08203(11) 0.18454(19) 0.1143 Uani
H1 H 0.0740 0.0740 0.1655 0.1370 Uiso
C3 C 0.06856(11) 0.10769(11) 0.19891(14) 0.1210 Uani
C4 C 0.07838(14) 0.11822(14) 0.22816(17) 0.1633 Uani
H2 H 0.0684 0.1355 0.2378 0.1960 Uiso
C5 C 0.10298(15) 0.10298(15) 0.2428(3) 0.1833 Uani
C6 C 0.11298(19) 0.11298(19) 0.2709(3) 0.2650 Uani
C7 C 0.1221(2) 0.1221(2) 0.2961(4) 0.2560 Uani
C8 C 0.13372(19) 0.13372(19) 0.3273(2) 0.2907 Uani
C9 C 0.1195(3) 0.1594(2) 0.3406(2) 0.3203 Uani
H3 H 0.1006 0.1675 0.3325 0.3840 Uiso
Zn1CA Zn 0.0000 0.371133(18) 0.371133(18) 0.0922 Uani
Zn1OA Zn 0.128867(18) 0.371133(18) 0.5000 0.0922 Uani
Zn1EB Zn 0.371133(18) 0.128867(18) 0.5000 0.0922 Uani
Zn1LB Zn 0.371133(18) 0.0000 0.371133(18) 0.0922 Uani
Zn1C Zn 0.128867(18) 0.0000 0.128867(18) 0.0922 Uani
Zn2CA Zn 0.0000 0.321105(18) 0.321105(18) 0.0896 Uani
Zn2OA Zn 0.178895(18) 0.321105(18) 0.5000 0.0896 Uani
Zn2EB Zn 0.321105(18) 0.178895(18) 0.5000 0.0896 Uani
Zn2LB Zn 0.321105(18) 0.0000 0.321105(18) 0.0896 Uani
Zn2C Zn 0.178895(18) 0.0000 0.178895(18) 0.0896 Uani
O1T O -0.03285(9) 0.15858(10) 0.11240(10) 0.1310 Uani
O1WC O -0.03285(9) 0.11240(10) 0.15858(10) 0.1310 Uani
O1MD O 0.03285(9) 0.15858(10) 0.11240(10) 0.1310 Uani
O1JE O 0.03285(9) 0.34142(10) 0.38760(10) 0.1310 Uani
O1OA O 0.11240(10) 0.34142(10) 0.46715(9) 0.1310 Uani
O1JF O 0.34142(10) 0.11240(10) 0.46715(9) 0.1310 Uani
O1LB O 0.34142(10) 0.03285(9) 0.38760(10) 0.1310 Uani
O1KD O 0.11240(10) 0.03285(9) 0.15858(10) 0.1310 Uani
O1C O 0.11240(10) -0.03285(9) 0.15858(10) 0.1310 Uani
O1J O 0.15858(10) 0.03285(9) 0.11240(10) 0.1310 Uani
O1HD O 0.15858(10) -0.03285(9) 0.11240(10) 0.1310 Uani
O2T O -0.03261(9) 0.19513(10) 0.14855(10) 0.1323 Uani
O2WC O -0.03261(9) 0.14855(10) 0.19513(10) 0.1323 Uani
O2MD O 0.03261(9) 0.19513(10) 0.14855(10) 0.1323 Uani
O2JE O 0.03261(9) 0.30487(10) 0.35145(10) 0.1323 Uani
O2OA O 0.14855(10) 0.30487(10) 0.46739(9) 0.1323 Uani
O2JF O 0.30487(10) 0.14855(10) 0.46739(9) 0.1323 Uani
O2LB O 0.30487(10) 0.03261(9) 0.35145(10) 0.1323 Uani
O2KD O 0.14855(10) 0.03261(9) 0.19513(10) 0.1323 Uani
O4C O 0.09267(12) 0.0000 0.09267(12) 0.1660 Uani
C1LB C 0.31665(16) 0.04303(15) 0.37605(15) 0.1143 Uani
C1JF C 0.31665(16) 0.12395(15) 0.45697(15) 0.1143 Uani
C1JE C 0.04303(15) 0.31665(16) 0.37605(15) 0.1143 Uani
C1OA C 0.12395(15) 0.31665(16) 0.45697(15) 0.1143 Uani
C1KD C 0.12395(15) 0.04303(15) 0.18335(16) 0.1143 Uani
C2LB C 0.31546(19) 0.08203(11) 0.41797(11) 0.1143 Uani
C2OA C 0.08203(11) 0.31546(19) 0.41797(11) 0.1143 Uani
H1LB H 0.3345 0.0740 0.4260 0.1370 Uiso
H1OA H 0.0740 0.3345 0.4260 0.1370 Uiso
C3KD C 0.10769(11) 0.06856(11) 0.19891(14) 0.1210 Uani
C3LB C 0.30109(14) 0.06856(11) 0.39231(11) 0.1210 Uani
C3JF C 0.30109(14) 0.10769(11) 0.43144(11) 0.1210 Uani
C3JE C 0.06856(11) 0.30109(14) 0.39231(11) 0.1210 Uani
C3OA C 0.10769(11) 0.30109(14) 0.43144(11) 0.1210 Uani
C4KD C 0.11822(14) 0.07838(14) 0.22816(17) 0.1633 Uani
C4LB C 0.27184(17) 0.07838(14) 0.38178(14) 0.1633 Uani
C4JF C 0.27184(17) 0.11822(14) 0.42162(14) 0.1633 Uani
C4OA C 0.11822(14) 0.27184(17) 0.42162(14) 0.1633 Uani
C4JE C 0.07838(14) 0.27184(17) 0.38178(14) 0.1633 Uani
H2LB H 0.2622 0.0684 0.3645 0.1960 Uiso
H2JF H 0.2622 0.1355 0.4316 0.1960 Uiso
H2JE H 0.0684 0.2622 0.3645 0.1960 Uiso
H2OA H 0.1355 0.2622 0.4316 0.1960 Uiso
H2KD H 0.1355 0.0684 0.2378 0.1960 Uiso
C5LB C 0.2572(3) 0.10298(15) 0.39702(15) 0.1833 Uani
C5OA C 0.10298(15) 0.2572(3) 0.39702(15) 0.1833 Uani
C6LB C 0.2291(3) 0.11298(19) 0.38702(19) 0.2650 Uani
C6OA C 0.11298(19) 0.2291(3) 0.38702(19) 0.2650 Uani
C7OA C 0.1221(2) 0.2039(4) 0.3779(2) 0.2560 Uani
C7LB C 0.2039(4) 0.1221(2) 0.3779(2) 0.2560 Uani
C8OA C 0.13372(19) 0.1727(2) 0.36628(19) 0.2907 Uani
C8LB C 0.1727(2) 0.13372(19) 0.36628(19) 0.2907 Uani
C9LB C 0.1594(2) 0.1195(3) 0.3406(2) 0.3203 Uani
C9OA C 0.1594(2) 0.1594(2) 0.3805(3) 0.3203 Uani
H3LB H 0.1675 0.1006 0.3325 0.3840 Uiso
H3OA H 0.1675 0.1675 0.3994 0.3840 Uiso
loop_
_atom_site_aniso_label
_atom_site_aniso_U_11
_atom_site_aniso_U_22
_atom_site_aniso_U_33
_atom_site_aniso_U_23
_atom_site_aniso_U_13
_atom_site_aniso_U_12
Zn1 0.0835(9) 0.0965(8) 0.0965(8) -0.0312(6) 0.000 0.000
Zn2 0.0819(9) 0.0935(8) 0.0935(8) -0.0284(6) 0.000 0.000
O1 0.115(3) 0.145(3) 0.133(3) -0.017(3) -0.024(3) 0.029(2)
O2 0.116(3) 0.126(3) 0.155(4) -0.024(3) -0.038(2) 0.029(2)
O3 0.166(6) 0.123(3) 0.123(3) -0.035(4) 0.000 0.000
O4 0.246(10) 0.126(4) 0.126(4) -0.025(5) 0.000 0.000
C1 0.101(5) 0.112(5) 0.130(5) -0.025(5) -0.003(4) 0.004(4)
C2 0.098(3) 0.098(3) 0.147(7) -0.011(3) -0.011(3) 0.023(5)
C3 0.092(4) 0.117(4) 0.154(6) -0.013(5) -0.039(4) 0.027(4)
C4 0.138(5) 0.167(6) 0.185(7) -0.065(5) -0.085(6) 0.051(4)
C5 0.183(6) 0.183(6) 0.184(10) -0.096(7) -0.096(7) 0.057(8)
C6 0.273(11) 0.273(11) 0.249(14) -0.174(12) -0.174(12) 0.161(11)
C7 0.242(11) 0.242(11) 0.284(16) -0.100(11) -0.100(11) 0.169(11)
C8 0.308(12) 0.308(12) 0.256(14) -0.210(12) -0.210(12) 0.195(14)
C9 0.347(19) 0.307(13) 0.307(13) -0.216(16) -0.226(14) 0.226(14)
Zn1CA 0.0835 0.0965 0.0965 -0.0312 0 0
Zn1OA 0.0965 0.0965 0.0835 0 0 0.0312
Zn1EB 0.0965 0.0965 0.0835 0 0 0.0312
Zn1LB 0.0965 0.0835 0.0965 0 -0.0312 0
Zn1C 0.0965 0.0835 0.0965 0 -0.0312 0
Zn2CA 0.0819 0.0935 0.0935 -0.0284 0 0
Zn2OA 0.0935 0.0935 0.0819 0 0 0.0284
Zn2EB 0.0935 0.0935 0.0819 0 0 0.0284
Zn2LB 0.0935 0.0819 0.0935 0 -0.0284 0
Zn2C 0.0935 0.0819 0.0935 0 -0.0284 0
O1T 0.115 0.133 0.145 -0.017 -0.029 0.024
O1WC 0.115 0.145 0.133 -0.017 0.024 -0.029
O1MD 0.115 0.133 0.145 -0.017 0.029 -0.024
O1JE 0.115 0.133 0.145 -0.017 -0.029 0.024
O1OA 0.145 0.133 0.115 -0.024 -0.029 0.017
O1JF 0.133 0.145 0.115 -0.029 -0.024 0.017
O1LB 0.133 0.115 0.145 -0.029 -0.017 0.024
O1KD 0.145 0.115 0.133 -0.024 -0.017 0.029
O1C 0.145 0.115 0.133 0.024 -0.017 -0.029
O1J 0.133 0.115 0.145 0.029 -0.017 -0.024
O1HD 0.133 0.115 0.145 -0.029 -0.017 0.024
O2T 0.116 0.155 0.126 -0.024 -0.029 0.038
O2WC 0.116 0.126 0.155 -0.024 0.038 -0.029
O2MD 0.116 0.155 0.126 -0.024 0.029 -0.038
O2JE 0.116 0.155 0.126 -0.024 -0.029 0.038
O2OA 0.126 0.155 0.116 -0.038 -0.029 0.024
O2JF 0.155 0.126 0.116 -0.029 -0.038 0.024
O2LB 0.155 0.116 0.126 -0.029 -0.024 0.038
O2KD 0.126 0.116 0.155 -0.038 -0.024 0.029
O4C 0.126 0.246 0.126 0 -0.025 0
C1LB 0.13 0.101 0.112 -0.004 -0.025 0.003
C1JF 0.13 0.112 0.101 -0.004 -0.003 0.025
C1JE 0.101 0.13 0.112 -0.025 -0.004 0.003
C1OA 0.112 0.13 0.101 -0.003 -0.004 0.025
C1KD 0.112 0.101 0.13 -0.003 -0.025 0.004
C2LB 0.147 0.098 0.098 -0.023 -0.011 0.011
C2OA 0.098 0.147 0.098 -0.011 -0.023 0.011
C3KD 0.117 0.092 0.154 -0.039 -0.013 0.027
C3LB 0.154 0.092 0.117 -0.027 -0.013 0.039
C3JF 0.154 0.117 0.092 -0.027 -0.039 0.013
C3JE 0.092 0.154 0.117 -0.013 -0.027 0.039
C3OA 0.117 0.154 0.092 -0.039 -0.027 0.013
C4KD 0.167 0.138 0.185 -0.085 -0.065 0.051
C4LB 0.185 0.138 0.167 -0.051 -0.065 0.085
C4JF 0.185 0.167 0.138 -0.051 -0.085 0.065
C4OA 0.167 0.185 0.138 -0.085 -0.051 0.065
C4JE 0.138 0.185 0.167 -0.065 -0.051 0.085
C5LB 0.184 0.183 0.183 -0.057 -0.096 0.096
C5OA 0.183 0.184 0.183 -0.096 -0.057 0.096
C6LB 0.249 0.273 0.273 -0.161 -0.174 0.174
C6OA 0.273 0.249 0.273 -0.174 -0.161 0.174
C7OA 0.242 0.284 0.242 -0.1 -0.169 0.1
C7LB 0.284 0.242 0.242 -0.169 -0.1 0.1
C8OA 0.308 0.256 0.308 -0.21 -0.195 0.21
C8LB 0.256 0.308 0.308 -0.195 -0.21 0.21
C9LB 0.307 0.347 0.307 -0.226 -0.216 0.226
C9OA 0.307 0.307 0.347 -0.226 -0.226 0.216
loop_
_geom_bond_atom_site_label_1
_geom_bond_atom_site_label_2
_geom_bond_site_symmetry_1
_geom_bond_site_symmetry_2
Zn1 O1 1_555 1_555
Zn2 O2 1_555 1_555
O1 C1 1_555 1_555
O2 C1 1_555 1_555
O3 Zn2 1_555 1_555
O4 Zn1 1_555 1_555
C1 C3 1_555 1_555
C2 H1 1_555 1_555
C3 C2 1_555 1_555
C4 C3 1_555 1_555
H2 C4 1_555 1_555
C5 C4 1_555 1_555
C6 C5 1_555 1_555
C7 C6 1_555 1_555
C8 C7 1_555 1_555
C9 C8 1_555 1_555
H3 C9 1_555 1_555
Zn1CA O1JE 1_555 1_555
Zn1OA O1OA 1_555 1_555
Zn1EB O1JF 1_555 1_555
Zn1LB O1LB 1_555 1_555
Zn1C O1KD 1_555 1_555
Zn2CA O2JE 1_555 1_555
Zn2OA O2OA 1_555 1_555
Zn2EB O2JF 1_555 1_555
Zn2LB O2LB 1_555 1_555
Zn2C O2KD 1_555 1_555
O1T Zn1 1_555 1_555
O1WC Zn1 1_555 1_555
O1MD Zn1 1_555 1_555
O1JE C1JE 1_555 1_555
O1OA C1OA 1_555 1_555
O1JF C1JF 1_555 1_555
O1LB C1LB 1_555 1_555
O1KD C1KD 1_555 1_555
O1C Zn1C 1_555 1_555
O1J Zn1C 1_555 1_555
O1HD Zn1C 1_555 1_555
O2T Zn2 1_555 1_555
O2WC Zn2 1_555 1_555
O2MD Zn2 1_555 1_555
O2JE C1JE 1_555 1_555
O2OA C1OA 1_555 1_555
O2JF C1JF 1_555 1_555
O2LB C1LB 1_555 1_555
O2KD C1KD 1_555 1_555
O4C Zn1C 1_555 1_555
C1LB C3LB 1_555 1_555
C1JF C3JF 1_555 1_555
C1JE C3JE 1_555 1_555
C1OA C3OA 1_555 1_555
C1KD C3KD 1_555 1_555
C2LB H1LB 1_555 1_555
C2OA H1OA 1_555 1_555
C3KD C2 1_555 1_555
C3LB C2LB 1_555 1_555
C3JF C2LB 1_555 1_555
C3JE C2OA 1_555 1_555
C3OA C2OA 1_555 1_555
C4KD C5 1_555 1_555
C4LB C3LB 1_555 1_555
C4JF C3JF 1_555 1_555
C4OA C3OA 1_555 1_555
C4JE C3JE 1_555 1_555
H2LB C4LB 1_555 1_555
H2JF C4JF 1_555 1_555
H2JE C4JE 1_555 1_555
H2OA C4OA 1_555 1_555
H2KD C4KD 1_555 1_555
C5LB C4LB 1_555 1_555
C5OA C4OA 1_555 1_555
C6LB C5LB 1_555 1_555
C6OA C5OA 1_555 1_555
C7OA C6OA 1_555 1_555
C7LB C6LB 1_555 1_555
C8OA C9 1_555 1_555
C8LB C7LB 1_555 1_555
C9LB C8 1_555 1_555
C9OA C8OA 1_555 1_555
H3LB C9LB 1_555 1_555
H3OA C9OA 1_555 1_555
C3KD C4KD 1_555 1_555
C4JF C5LB 1_555 1_555
C4JE C5OA 1_555 1_555
C7OA C8OA 1_555 1_555
C8LB C9LB 1_555 1_555
C8LB C9OA 1_555 1_555

#END
