
#######################################################################
#
#                 Cambridge Crystallographic Data Centre
#                                CCDC 
#
#######################################################################
#
# If this CIF has been generated from an entry in the Cambridge 
# Structural Database, then it will include bibliographic, chemical, 
# crystal, experimental, refinement or atomic coordinate data resulting 
# from the CCDC's data processing and validation procedures.
#
#######################################################################

data_JAKPET
_chemical_formula_moiety         '(C42 H31 N3 O17 Pb2)n'
_symmetry_cell_setting           tetragonal
_symmetry_space_group_name_H-M   'P 41'
_symmetry_Int_Tables_number      76
_space_group_name_Hall           'P 4w'
loop_
_symmetry_equiv_pos_site_id
_symmetry_equiv_pos_as_xyz
1 x,y,z
2 -y,x,1/4+z
3 -x,-y,1/2+z
4 y,-x,3/4+z
_cell_length_a                   17.4722(7)
_cell_length_b                   17.4722(7)
_cell_length_c                   14.4508(12)
_cell_angle_alpha                90
_cell_angle_beta                 90
_cell_angle_gamma                90
_cell_volume                     4411.51
loop_
_atom_site_label
_atom_site_type_symbol
_atom_site_fract_x
_atom_site_fract_y
_atom_site_fract_z
_atom_site_U_iso_or_equiv
_atom_site_thermal_displace_type
Pb1 Pb 0.033758(16) -0.123556(16) 0.397103(19) 0.0212 Uani
Pb2 Pb -0.403645(17) -0.412341(17) 0.25793(2) 0.0248 Uani
O1 O 0.0924(3) -0.0106(3) 0.4169(4) 0.0243 Uani
O2 O 0.1427(3) -0.1599(3) 0.4710(4) 0.0230 Uani
H1 H 0.1543 -0.2099 0.4765 0.0280 Uiso
H2 H 0.1743 -0.1243 0.4948 0.0280 Uiso
O3 O 0.1234(3) 0.0875(3) 0.5060(4) 0.0233 Uani
O4 O -0.4203(4) -0.2974(4) 0.3336(5) 0.0363 Uani
H3 H -0.3795 -0.2685 0.3485 0.0430 Uiso
H4 H -0.4678 -0.2813 0.3482 0.0430 Uiso
O5 O -0.0405(3) 0.0607(3) 0.1178(4) 0.0223 Uani
O6 O 0.0245(3) 0.1438(3) 0.0331(4) 0.0223 Uani
O7 O 0.1616(5) 0.3016(4) 0.2836(5) 0.0460 Uani
O8 O -0.0588(3) -0.2051(3) 0.3373(4) 0.0237 Uani
O9 O 0.0443(3) -0.2625(3) 0.3868(5) 0.0260 Uani
O10 O -0.2874(3) -0.3471(3) 0.2535(5) 0.0257 Uani
O11 O -0.2839(3) -0.4692(3) 0.2226(4) 0.0253 Uani
O12 O -0.0146(4) -0.5455(4) 0.3419(6) 0.0437 Uani
O13 O -0.3651(3) -0.4538(3) 0.3954(4) 0.0243 Uani
O14 O -0.4665(3) -0.4383(3) 0.4839(4) 0.0270 Uani
O15 O -0.4707(3) -0.5948(4) 0.7789(5) 0.0330 Uani
O16 O -0.3672(3) -0.5770(4) 0.8629(4) 0.0270 Uani
O17 O -0.1653(4) -0.5607(5) 0.5989(5) 0.0490 Uani
N1 N 0.1987(7) 0.3259(7) 0.0415(8) 0.0633 Uani
N2 N -0.0644(7) -0.6316(7) 0.1833(9) 0.0653 Uani
N3 N -0.0250(7) -0.7036(7) 0.6118(10) 0.0717 Uani
C1 C 0.0980(5) 0.1127(4) 0.3467(5) 0.0203 Uani
C2 C 0.0589(4) 0.0881(4) 0.2693(5) 0.0180 Uani
H5 H 0.0362 0.0400 0.2682 0.0220 Uiso
C3 C 0.0538(5) 0.1363(4) 0.1929(5) 0.0193 Uani
C4 C 0.0902(5) 0.2085(5) 0.1947(6) 0.0263 Uani
H6 H 0.0895 0.2396 0.1425 0.0310 Uiso
C5 C 0.1268(5) 0.2327(4) 0.2738(5) 0.0247 Uani
C6 C 0.1314(5) 0.1843(5) 0.3503(6) 0.0257 Uani
H7 H 0.1568 0.2002 0.4035 0.0310 Uiso
C7 C 0.1038(4) 0.0587(5) 0.4286(5) 0.0173 Uani
C8 C 0.0103(4) 0.1123(5) 0.1089(5) 0.0173 Uani
C9 C 0.1641(7) 0.3537(5) 0.2071(8) 0.0447 Uani
H8 H 0.1771 0.4043 0.2297 0.0540 Uiso
H9 H 0.1138 0.3565 0.1790 0.0540 Uiso
C10 C 0.2204(6) 0.3306(6) 0.1363(8) 0.0407 Uani
C11 C 0.2979(7) 0.3157(7) 0.1537(11) 0.0543 Uani
H10 H 0.3166 0.3190 0.2138 0.0650 Uiso
C12 C 0.3447(7) 0.2968(8) 0.0849(11) 0.0627 Uani
H11 H 0.3948 0.2849 0.1011 0.0750 Uiso
C13 C 0.3282(6) 0.2931(6) -0.0012(8) 0.0413 Uani
H12 H 0.3642 0.2808 -0.0462 0.0500 Uiso
C14 C 0.2543(7) 0.3085(8) -0.0219(8) 0.0540 Uani
H13 H 0.2401 0.3072 -0.0839 0.0650 Uiso
C15 C -0.0585(4) -0.3420(4) 0.3316(6) 0.0193 Uani
C16 C -0.1312(4) -0.3423(4) 0.2959(6) 0.0207 Uani
H14 H -0.1564 -0.2964 0.2843 0.0250 Uiso
C17 C -0.1670(5) -0.4118(5) 0.2771(6) 0.0240 Uani
C18 C -0.1315(5) -0.4794(5) 0.2935(6) 0.0267 Uani
H15 H -0.1571 -0.5253 0.2831 0.0320 Uiso
C19 C -0.0566(5) -0.4797(5) 0.3260(7) 0.0283 Uani
C20 C -0.0201(5) -0.4114(5) 0.3474(6) 0.0253 Uani
H16 H 0.0291 -0.4116 0.3720 0.0310 Uiso
C21 C -0.0205(5) -0.2676(4) 0.3524(5) 0.0210 Uani
C22 C -0.2499(4) -0.4092(4) 0.2466(5) 0.0197 Uani
C23 C -0.0540(8) -0.6162(6) 0.3584(8) 0.0507 Uani
H17 H -0.1008 -0.6053 0.3921 0.0610 Uiso
H18 H -0.0222 -0.6482 0.3976 0.0610 Uiso
C24 C -0.0740(5) -0.6602(5) 0.2726(7) 0.0353 Uani
C25 C -0.1038(7) -0.7336(6) 0.2804(8) 0.0437 Uani
H19 H -0.1110 -0.7556 0.3384 0.0520 Uiso
C26 C -0.1225(7) -0.7734(6) 0.2019(9) 0.0493 Uani
H20 H -0.1422 -0.8225 0.2088 0.0590 Uiso
C27 C -0.1144(5) -0.7469(6) 0.1186(7) 0.0350 Uani
H21 H -0.1277 -0.7757 0.0669 0.0420 Uiso
C28 C -0.0868(8) -0.6783(7) 0.1111(8) 0.0543 Uani
H22 H -0.0816 -0.6588 0.0516 0.0650 Uiso
C29 C -0.3580(4) -0.4978(5) 0.5492(5) 0.0177 Uani
C30 C -0.3975(4) -0.5209(4) 0.6300(5) 0.0187 Uani
H23 H -0.4501 -0.5133 0.6342 0.0220 Uiso
C31 C -0.3591(4) -0.5543(4) 0.7020(5) 0.0170 Uani
C32 C -0.2793(4) -0.5681(5) 0.6965(6) 0.0247 Uani
H24 H -0.2528 -0.5897 0.7458 0.0300 Uiso
C33 C -0.2419(5) -0.5483(5) 0.6150(6) 0.0287 Uani
C34 C -0.2807(5) -0.5138(5) 0.5441(6) 0.0237 Uani
H25 H -0.2542 -0.5008 0.4906 0.0290 Uiso
C35 C -0.4001(5) -0.4602(4) 0.4716(6) 0.0197 Uani
C36 C -0.4015(5) -0.5782(5) 0.7872(5) 0.0203 Uani
C37 C -0.1267(6) -0.6132(7) 0.6573(9) 0.0510 Uani
H26 H -0.1559 -0.6602 0.6620 0.0610 Uiso
H27 H -0.1215 -0.5917 0.7189 0.0610 Uiso
C38 C -0.0508(6) -0.6293(7) 0.6185(7) 0.0380 Uani
C39 C -0.0032(6) -0.5730(8) 0.5867(9) 0.0527 Uani
H28 H -0.0176 -0.5218 0.5870 0.0630 Uiso
C40 C 0.0704(8) -0.5972(9) 0.5529(10) 0.0667 Uani
H29 H 0.1036 -0.5586 0.5341 0.0800 Uiso
C41 C 0.0941(6) -0.6622(8) 0.5462(8) 0.0457 Uani
H30 H 0.1421 -0.6730 0.5215 0.0550 Uiso
C42 C 0.0490(8) -0.7157(9) 0.5753(10) 0.0650 Uani
H31 H 0.0666 -0.7659 0.5719 0.0780 Uiso
Pb1A Pb 0.123556(16) 0.033758(16) 0.647103(19) 0.0212 Uani
Pb1B Pb -0.033758(16) 0.123556(16) -0.102897(19) 0.0212 Uani
Pb1C Pb -0.123556(16) -0.033758(16) 0.147103(19) 0.0212 Uani
Pb2A Pb -0.587659(17) -0.403645(17) 0.50793(2) 0.0248 Uani
Pb2B Pb -0.596355(17) -0.587659(17) 0.75793(2) 0.0248 Uani
Pb2C Pb -0.412341(17) -0.596355(17) 1.00793(2) 0.0248 Uani
O3C O 0.0875(3) -0.1234(3) 0.2560(4) 0.0233 Uani
O5A O -0.0607(3) -0.0405(3) 0.3678(4) 0.0223 Uani
O6B O -0.0245(3) -0.1438(3) 0.5331(4) 0.0223 Uani
O14C O -0.4383(3) -0.5335(3) 0.2339(4) 0.0270 Uani
O15B O -0.5293(3) -0.4052(4) 0.2789(5) 0.0330 Uani
O16A O -0.4230(4) -0.3672(3) 0.1129(4) 0.0270 Uani
loop_
_atom_site_aniso_label
_atom_site_aniso_U_11
_atom_site_aniso_U_22
_atom_site_aniso_U_33
_atom_site_aniso_U_23
_atom_site_aniso_U_13
_atom_site_aniso_U_12
Pb1 0.02471(14) 0.02479(15) 0.01424(13) 0.00010(11) 0.00047(11) -0.00090(11)
Pb2 0.02738(15) 0.03095(16) 0.01607(14) 0.00217(12) -0.00280(12) -0.00246(12)
O1 0.034(3) 0.013(2) 0.026(3) 0.010(2) -0.008(3) -0.012(2)
O2 0.026(3) 0.018(3) 0.025(3) -0.004(2) -0.005(2) 0.000(2)
O3 0.039(3) 0.024(3) 0.007(2) 0.004(2) -0.002(3) 0.000(2)
O4 0.031(3) 0.029(3) 0.049(4) -0.014(3) 0.014(3) -0.001(3)
O5 0.025(3) 0.025(3) 0.017(3) 0.002(2) -0.005(2) -0.002(2)
O6 0.028(3) 0.031(3) 0.008(3) 0.001(2) -0.001(2) -0.004(2)
O7 0.074(5) 0.037(4) 0.027(4) 0.001(3) -0.012(3) -0.032(4)
O8 0.023(3) 0.022(3) 0.026(3) 0.003(2) -0.008(2) -0.005(2)
O9 0.016(2) 0.024(3) 0.038(4) -0.002(3) -0.010(3) -0.001(2)
O10 0.018(2) 0.024(3) 0.035(3) 0.003(3) 0.002(3) -0.004(2)
O11 0.022(3) 0.024(3) 0.030(3) -0.011(2) 0.002(2) -0.006(2)
O12 0.042(4) 0.021(3) 0.068(5) -0.011(3) -0.020(4) 0.008(3)
O13 0.029(3) 0.038(3) 0.006(2) 0.007(3) -0.006(2) 0.003(2)
O14 0.022(3) 0.034(3) 0.025(3) 0.004(2) -0.005(2) 0.014(2)
O15 0.015(3) 0.054(4) 0.030(4) 0.011(3) 0.003(2) -0.004(3)
O16 0.027(3) 0.047(4) 0.007(2) 0.006(2) 0.001(2) 0.002(3)
O17 0.018(3) 0.084(6) 0.045(4) 0.042(4) 0.007(3) 0.016(3)
N1 0.082(8) 0.064(7) 0.044(6) 0.010(5) -0.019(6) -0.022(6)
N2 0.072(7) 0.059(7) 0.065(8) -0.010(6) -0.018(6) 0.001(6)
N3 0.061(7) 0.066(7) 0.088(10) 0.024(7) -0.005(7) 0.003(6)
C1 0.039(4) 0.016(3) 0.006(3) 0.000(3) -0.004(3) -0.005(3)
C2 0.023(4) 0.024(3) 0.007(3) 0.005(3) -0.005(3) -0.006(3)
C3 0.026(4) 0.025(4) 0.007(3) 0.007(3) 0.000(3) -0.004(3)
C4 0.043(5) 0.023(4) 0.013(4) 0.003(3) -0.005(3) -0.010(4)
C5 0.039(4) 0.021(4) 0.014(4) 0.003(3) -0.005(3) -0.009(3)
C6 0.036(4) 0.028(4) 0.013(4) 0.000(3) -0.009(3) -0.007(4)
C7 0.020(4) 0.028(4) 0.004(3) 0.003(3) 0.000(3) 0.000(3)
C8 0.019(3) 0.028(4) 0.005(3) 0.001(3) 0.003(3) 0.003(3)
C9 0.059(7) 0.023(4) 0.052(7) 0.014(4) -0.017(6) -0.015(5)
C10 0.047(5) 0.037(5) 0.038(6) 0.006(5) -0.006(5) -0.012(4)
C11 0.050(6) 0.049(6) 0.064(8) 0.004(6) -0.012(7) -0.001(5)
C12 0.042(6) 0.073(9) 0.073(10) 0.010(8) 0.000(7) -0.010(6)
C13 0.044(5) 0.050(6) 0.030(5) 0.011(5) 0.004(5) -0.017(5)
C14 0.055(7) 0.082(9) 0.025(5) 0.007(6) 0.000(5) -0.022(6)
C15 0.021(4) 0.015(3) 0.022(4) -0.001(3) -0.001(3) -0.004(3)
C16 0.021(4) 0.018(3) 0.023(4) 0.001(3) -0.004(3) 0.003(3)
C17 0.025(4) 0.025(4) 0.022(4) -0.003(3) -0.003(3) -0.006(3)
C18 0.031(4) 0.023(4) 0.026(4) -0.007(3) -0.010(4) -0.010(3)
C19 0.026(4) 0.017(4) 0.042(5) -0.007(3) -0.009(4) 0.003(3)
C20 0.026(4) 0.031(4) 0.019(4) -0.005(3) -0.008(3) -0.002(3)
C21 0.031(4) 0.017(3) 0.015(4) 0.001(3) 0.002(3) 0.002(3)
C22 0.024(4) 0.027(4) 0.008(3) -0.002(3) 0.001(3) -0.004(3)
C23 0.082(8) 0.027(5) 0.043(6) -0.001(4) -0.024(6) 0.003(5)
C24 0.038(5) 0.024(4) 0.044(6) -0.009(4) -0.002(4) 0.001(4)
C25 0.060(7) 0.029(5) 0.042(6) -0.011(4) -0.003(5) -0.004(5)
C26 0.049(6) 0.034(5) 0.065(8) -0.023(5) 0.008(6) -0.008(5)
C27 0.036(5) 0.039(5) 0.030(5) -0.019(4) 0.006(4) 0.002(4)
C28 0.079(9) 0.047(6) 0.037(6) -0.014(5) -0.003(6) 0.002(6)
C29 0.018(3) 0.029(4) 0.006(3) 0.000(3) 0.004(3) 0.001(3)
C30 0.020(3) 0.028(4) 0.008(4) 0.004(3) 0.003(3) 0.005(3)
C31 0.018(3) 0.025(4) 0.008(3) 0.005(3) 0.004(3) 0.000(3)
C32 0.017(4) 0.042(5) 0.015(4) 0.006(3) -0.006(3) 0.003(3)
C33 0.022(4) 0.039(5) 0.025(4) 0.011(4) 0.007(3) -0.001(4)
C34 0.023(4) 0.030(4) 0.018(4) 0.010(3) 0.004(3) 0.001(3)
C35 0.023(4) 0.019(4) 0.017(4) -0.002(3) 0.000(3) 0.000(3)
C36 0.025(4) 0.028(4) 0.008(3) 0.002(3) 0.003(3) 0.011(3)
C37 0.029(5) 0.077(8) 0.047(7) 0.029(6) 0.005(5) 0.018(5)
C38 0.030(5) 0.058(6) 0.026(5) 0.002(4) 0.001(4) 0.009(4)
C39 0.036(5) 0.072(8) 0.050(7) -0.017(6) -0.001(5) 0.005(5)
C40 0.047(7) 0.088(11) 0.065(9) -0.024(8) 0.016(6) -0.023(7)
C41 0.027(5) 0.070(8) 0.040(6) 0.006(6) 0.009(4) 0.020(5)
C42 0.064(8) 0.078(9) 0.053(8) 0.007(7) 0.001(7) 0.036(8)
Pb1A 0.02479 0.02471 0.01424 0.00047 -0.0001 0.0009
Pb1B 0.02471 0.02479 0.01424 -0.0001 -0.00047 -0.0009
Pb1C 0.02479 0.02471 0.01424 -0.00047 0.0001 0.0009
Pb2A 0.03095 0.02738 0.01607 -0.0028 -0.00217 0.00246
Pb2B 0.02738 0.03095 0.01607 -0.00217 0.0028 -0.00246
Pb2C 0.03095 0.02738 0.01607 0.0028 0.00217 0.00246
O3C 0.024 0.039 0.007 0.002 0.004 0
O5A 0.025 0.025 0.017 -0.005 -0.002 0.002
O6B 0.028 0.031 0.008 -0.001 0.001 -0.004
O14C 0.034 0.022 0.025 0.005 0.004 -0.014
O15B 0.015 0.054 0.03 -0.011 -0.003 -0.004
O16A 0.047 0.027 0.007 0.001 -0.006 -0.002
loop_
_geom_bond_atom_site_label_1
_geom_bond_atom_site_label_2
_geom_bond_site_symmetry_1
_geom_bond_site_symmetry_2
Pb1 O1 1_555 1_555
Pb2 O4 1_555 1_555
O1 C7 1_555 1_555
O2 Pb1 1_555 1_555
H1 O2 1_555 1_555
H2 O2 1_555 1_555
O3 C7 1_555 1_555
O4 H3 1_555 1_555
H4 O4 1_555 1_555
O5 C8 1_555 1_555
O6 C8 1_555 1_555
O7 C5 1_555 1_555
O8 Pb1 1_555 1_555
O9 Pb1 1_555 1_555
O10 Pb2 1_555 1_555
O11 Pb2 1_555 1_555
O12 C19 1_555 1_555
O13 Pb2 1_555 1_555
O14 C35 1_555 1_555
O15 C36 1_555 1_555
O16 C36 1_555 1_555
O17 C33 1_555 1_555
N1 C10 1_555 1_555
N2 C24 1_555 1_555
N3 C38 1_555 1_555
C1 C2 1_555 1_555
C2 H5 1_555 1_555
C3 C2 1_555 1_555
C4 C3 1_555 1_555
H6 C4 1_555 1_555
C5 C4 1_555 1_555
C6 C1 1_555 1_555
H7 C6 1_555 1_555
C7 C1 1_555 1_555
C8 C3 1_555 1_555
C9 O7 1_555 1_555
H8 C9 1_555 1_555
H9 C9 1_555 1_555
C10 C9 1_555 1_555
C11 C10 1_555 1_555
H10 C11 1_555 1_555
C12 C11 1_555 1_555
H11 C12 1_555 1_555
C13 C12 1_555 1_555
H12 C13 1_555 1_555
C14 N1 1_555 1_555
H13 C14 1_555 1_555
C15 C16 1_555 1_555
C16 H14 1_555 1_555
C17 C16 1_555 1_555
C18 C17 1_555 1_555
H15 C18 1_555 1_555
C19 C18 1_555 1_555
C20 C15 1_555 1_555
H16 C20 1_555 1_555
C21 O8 1_555 1_555
C22 O10 1_555 1_555
C23 O12 1_555 1_555
H17 C23 1_555 1_555
H18 C23 1_555 1_555
C24 C23 1_555 1_555
C25 C24 1_555 1_555
H19 C25 1_555 1_555
C26 C25 1_555 1_555
H20 C26 1_555 1_555
C27 C26 1_555 1_555
H21 C27 1_555 1_555
C28 N2 1_555 1_555
H22 C28 1_555 1_555
C29 C30 1_555 1_555
C30 H23 1_555 1_555
C31 C30 1_555 1_555
C32 C31 1_555 1_555
H24 C32 1_555 1_555
C33 C32 1_555 1_555
C34 C29 1_555 1_555
H25 C34 1_555 1_555
C35 O13 1_555 1_555
C36 C31 1_555 1_555
C37 O17 1_555 1_555
H26 C37 1_555 1_555
H27 C37 1_555 1_555
C38 C37 1_555 1_555
C39 C38 1_555 1_555
H28 C39 1_555 1_555
C40 C39 1_555 1_555
H29 C40 1_555 1_555
C41 C40 1_555 1_555
H30 C41 1_555 1_555
C42 N3 1_555 1_555
H31 C42 1_555 1_555
Pb1A O3 1_555 1_555
Pb1B O6 1_555 1_555
Pb1C O5 1_555 1_555
Pb2A O14 1_555 1_555
Pb2B O15 1_555 1_555
Pb2C O16 1_555 1_555
O3C Pb1 1_555 1_555
O5A Pb1 1_555 1_555
O6B Pb1 1_555 1_555
O14C Pb2 1_555 1_555
O15B Pb2 1_555 1_555
O16A Pb2 1_555 1_555
O9 C21 1_555 1_555
O11 C22 1_555 1_555
C5 C6 1_555 1_555
C13 C14 1_555 1_555
C15 C21 1_555 1_555
C17 C22 1_555 1_555
C19 C20 1_555 1_555
C27 C28 1_555 1_555
C29 C35 1_555 1_555
C33 C34 1_555 1_555
C41 C42 1_555 1_555

#END
