
#######################################################################
#
#                 Cambridge Crystallographic Data Centre
#                                CCDC 
#
#######################################################################
#
# If this CIF has been generated from an entry in the Cambridge 
# Structural Database, then it will include bibliographic, chemical, 
# crystal, experimental, refinement or atomic coordinate data resulting 
# from the CCDC's data processing and validation procedures.
#
#######################################################################

data_HAQJIV
_chemical_formula_moiety         '(C21 H20 Cu2 N2 O10)n'
_symmetry_cell_setting           rhombohedral
_symmetry_space_group_name_H-M   'R 3'
_symmetry_Int_Tables_number      146
_space_group_name_Hall           'R 3'
loop_
_symmetry_equiv_pos_site_id
_symmetry_equiv_pos_as_xyz
1 x,y,z
2 -y,x-y,z
3 -x+y,-x,z
4 2/3+x,1/3+y,1/3+z
5 2/3-y,1/3+x-y,1/3+z
6 2/3-x+y,1/3-x,1/3+z
7 1/3+x,2/3+y,2/3+z
8 1/3-y,2/3+x-y,2/3+z
9 1/3-x+y,2/3-x,2/3+z
_cell_length_a                   18.616(5)
_cell_length_b                   18.616(5)
_cell_length_c                   37.566(5)
_cell_angle_alpha                90
_cell_angle_beta                 90
_cell_angle_gamma                120
_cell_volume                     11274.5
loop_
_atom_site_label
_atom_site_type_symbol
_atom_site_fract_x
_atom_site_fract_y
_atom_site_fract_z
Cu1 Cu 0.52331(9) 0.04654(8) 0.60803(10)
Cu2 Cu 0.47677(8) -0.04650(7) 0.66603(10)
C1 C 0.6362(8) 0.0889(7) 0.6636(4)
C2 C 0.8069(7) 0.1963(7) 0.7349(4)
C3 C 0.7184(6) 0.1532(6) 0.6831(3)
O1 O 0.5860(5) 0.0307(4) 0.6826(2)
C4 C 0.8469(6) 0.2805(6) 0.6828(3)
C5 C 0.7339(8) 0.1396(8) 0.7172(3)
H1 H 0.695207 0.091832 0.728928
O2 O 0.6285(5) 0.1109(5) 0.6322(3)
C6 C 0.8620(8) 0.2646(8) 0.7167(4)
H2 H 0.911725 0.301975 0.727644
C7 C 0.7725(7) 0.2253(7) 0.6628(3)
H3 H 0.761520 0.235536 0.639791
O3 O 0.5604(4) 0.1206(4) 0.56368(19)
C8 C 0.9109(6) 0.3636(7) 0.6647(3)
O4 O 0.8896(5) 0.3710(5) 0.6324(3)
O5 O 0.9698(4) 0.4123(5) 0.6821(2)
C9 C 0.9478(9) 0.1816(7) 0.9284(4)
C10 C 0.8871(6) 0.1103(6) 0.9438(4)
H4 H 0.894706 0.101838 0.967608
C11 C 0.9323(9) 0.1965(7) 0.8950(4)
H5 H 0.970135 0.247514 0.885235
C12 C 0.7647(7) -0.0257(8) 0.9458(3)
C13 C 1.0237(7) 0.2331(7) 0.9447(3)
C14 C 0.8061(7) 0.0648(8) 0.8942(4)
H6 H 0.759160 0.023151 0.882937
C15 C 0.8617(7) 0.1407(6) 0.8725(5)
O6 O 1.0384(5) 0.2228(5) 0.9741(3)
O7 O 0.7765(4) -0.0391(5) 0.9746(3)
O8 O 1.0737(5) 0.2989(6) 0.9267(3)
O9 O 0.7015(6) -0.0765(5) 0.9259(3)
C16 C 0.8180(8) 0.0517(8) 0.9282(4)
O10 O 0.4508(5) -0.0993(5) 0.72026(19)
N1 N 0.8205(7) 0.1803(8) 0.7691(4)
N2 N 0.8498(8) 0.1514(8) 0.8410(4)
C17 C 0.7901(16) 0.0970(11) 0.7799(5)
H7 H 0.824963 0.077164 0.769877
H8 H 0.734477 0.062735 0.770613
C18 C 0.7882(9) 0.0881(9) 0.8182(4)
H9 H 0.788998 0.037362 0.823116
H10 H 0.734630 0.078970 0.826123
C19 C 0.9133(10) 0.2161(9) 0.8192(4)
H11 H 0.891047 0.253545 0.822134
C20 C 1.003410 0.287000 0.815500
H12 H 1.027658 0.304034 0.838713
H13 H 1.034563 0.268229 0.801913
H14 H 1.004299 0.333055 0.803582
C21 C 0.9033(9) 0.2114(13) 0.7811(4)
H15 H 0.937623 0.266499 0.771260
H16 H 0.923565 0.176303 0.771740
Cu1A Cu 0.95346(8) 0.47677(12) 0.60803(10)
Cu1C Cu 1.18998(9) 0.37987(8) 0.94136(10)
Cu1D Cu 0.62013(8) -0.18990(12) 0.94136(10)
Cu2A Cu 1.04650(7) 0.52327(11) 0.66603(10)
Cu2C Cu 1.14344(8) 0.28683(7) 0.99936(10)
Cu2D Cu 0.71317(7) -0.14340(11) 0.99936(10)
O4B O 0.4814(7) 0.1104(5) 0.6324(3)
O5B O 0.4425(6) 0.0302(4) 0.6821(2)
O6F O 0.3717(5) -0.1105(5) 0.6408(3)
O7H O 0.5177(6) -0.1098(4) 0.6413(3)
O8F O 0.4070(5) -0.0344(6) 0.5934(3)
O9H O 0.5553(8) -0.0348(6) 0.5926(3)
loop_
_geom_bond_atom_site_label_1
_geom_bond_atom_site_label_2
_geom_bond_site_symmetry_1
_geom_bond_site_symmetry_2
Cu1 O2 1_555 1_555
Cu2 O1 1_555 1_555
C1 C3 1_555 1_555
C2 C5 1_555 1_555
C3 C5 1_555 1_555
O1 C1 1_555 1_555
C4 C6 1_555 1_555
C5 H1 1_555 1_555
O2 C1 1_555 1_555
C6 C2 1_555 1_555
H2 C6 1_555 1_555
C7 C3 1_555 1_555
H3 C7 1_555 1_555
O3 Cu1 1_555 1_555
C8 C4 1_555 1_555
O4 C8 1_555 1_555
O5 C8 1_555 1_555
C9 C10 1_555 1_555
C10 H4 1_555 1_555
C11 C9 1_555 1_555
H5 C11 1_555 1_555
C12 O7 1_555 1_555
C13 C9 1_555 1_555
C14 H6 1_555 1_555
C15 C11 1_555 1_555
O6 C13 1_555 1_555
O7 Cu2D 1_555 1_555
O8 C13 1_555 1_555
O9 C12 1_555 1_555
C16 C10 1_555 1_555
O10 Cu2 1_555 1_555
N1 C2 1_555 1_555
N2 C15 1_555 1_555
C17 N1 1_555 1_555
H7 C17 1_555 1_555
H8 C17 1_555 1_555
C18 N2 1_555 1_555
H9 C18 1_555 1_555
H10 C18 1_555 1_555
C19 N2 1_555 1_555
H11 C19 1_555 1_555
C20 C19 1_555 1_555
H12 C20 1_555 1_555
H13 C20 1_555 1_555
H14 C20 1_555 1_555
C21 N1 1_555 1_555
H15 C21 1_555 1_555
H16 C21 1_555 1_555
Cu1A O4 1_555 1_555
Cu1C O8 1_555 1_555
Cu1D O9 1_555 1_555
Cu2A O5 1_555 1_555
Cu2C O6 1_555 1_555
O4B Cu1 1_555 1_555
O5B Cu2 1_555 1_555
O6F Cu2 1_555 1_555
O7H Cu2 1_555 1_555
O8F Cu1 1_555 1_555
O9H Cu1 1_555 1_555
C4 C7 1_555 1_555
C12 C16 1_555 1_555
C14 C15 1_555 1_555
C14 C16 1_555 1_555
C17 C18 1_555 1_555
C19 C21 1_555 1_555

#END
