
#######################################################################
#
#                 Cambridge Crystallographic Data Centre
#                                CCDC 
#
#######################################################################
#
# If this CIF has been generated from an entry in the Cambridge 
# Structural Database, then it will include bibliographic, chemical, 
# crystal, experimental, refinement or atomic coordinate data resulting 
# from the CCDC's data processing and validation procedures.
#
#######################################################################

data_QAJKIV
_chemical_formula_moiety         '(C3 H16 Ga3 N2 O15 P3)n'
_symmetry_cell_setting           orthorhombic
_symmetry_space_group_name_H-M   'P c a b'
_symmetry_Int_Tables_number      61
_space_group_name_Hall           '-P 2bc 2ac'
loop_
_symmetry_equiv_pos_site_id
_symmetry_equiv_pos_as_xyz
1 x,y,z
2 -x,1/2-y,1/2+z
3 1/2+x,-y,1/2-z
4 1/2-x,1/2+y,-z
5 -x,-y,-z
6 x,1/2+y,1/2-z
7 1/2-x,y,1/2+z
8 1/2+x,1/2-y,z
_cell_length_a                   10.043(3)
_cell_length_b                   15.989(4)
_cell_length_c                   18.308(6)
_cell_angle_alpha                90
_cell_angle_beta                 90
_cell_angle_gamma                90
_cell_volume                     2939.85
loop_
_atom_site_label
_atom_site_type_symbol
_atom_site_fract_x
_atom_site_fract_y
_atom_site_fract_z
_atom_site_U_iso_or_equiv
_atom_site_thermal_displace_type
Ga1 Ga 0.34755(6) -0.00509(4) 0.40569(3) 0.0077 Uani
Ga2 Ga 0.31552(7) -0.03479(4) 0.21765(4) 0.0078 Uani
Ga3 Ga 0.16442(7) 0.14742(4) 0.17452(3) 0.0081 Uani
P1 P 0.11577(15) 0.06658(10) 0.31906(8) 0.0071 Uani
P2 P 0.33959(15) -0.18096(10) 0.33169(8) 0.0072 Uani
P3 P 0.36221(15) -0.01525(10) 0.57580(8) 0.0076 Uani
O1 O 0.1470(4) -0.0088(3) 0.2710(2) 0.0104 Uani
O2 O -0.0300(4) 0.0635(3) 0.3434(2) 0.0123 Uani
O3 O 0.2032(4) 0.0681(3) 0.3885(2) 0.0117 Uani
O4 O 0.1417(5) 0.1490(3) 0.2770(2) 0.0140 Uani
O5 O 0.3025(4) -0.1510(3) 0.2552(2) 0.0100 Uani
O6 O 0.2567(5) -0.2579(3) 0.3526(2) 0.0117 Uani
O7 O 0.4884(4) -0.2042(3) 0.3361(2) 0.0127 Uani
O8 O 0.3034(4) -0.1166(3) 0.3918(2) 0.0110 Uani
O9 O 0.2810(4) -0.0198(3) 0.5052(2) 0.0094 Uani
O10 O 0.2925(4) -0.0668(3) 0.6358(2) 0.0086 Uani
O11 O 0.3832(5) 0.0768(3) 0.5984(2) 0.0130 Uani
O12 O 0.5015(4) -0.0538(3) 0.5634(2) 0.0098 Uani
O13 O 0.3293(4) 0.0819(3) 0.1839(2) 0.0120 Uani
O14 O 0.4115(4) -0.0028(3) 0.3047(2) 0.0110 Uani
O2B O 0.4700(4) -0.0635(3) 0.1566(2) 0.0123 Uani
O6E O 0.2567(5) 0.2421(3) 0.1474(2) 0.0117 Uani
O7B O -0.0116(4) 0.2042(3) 0.1639(2) 0.0127 Uani
O10F O 0.2075(4) -0.0668(3) 0.1358(2) 0.0086 Uani
O11F O 0.1168(5) 0.0768(3) 0.0984(2) 0.0130 Uani
O12D O 0.4985(4) 0.0538(3) 0.4366(2) 0.0098 Uani
Ga2B Ga -0.18448(7) 0.03479(4) 0.28235(4) 0.0078 Uani
Ga3E Ga 0.16442(7) -0.35258(4) 0.32548(3) 0.0081 Uani
Ga3B Ga 0.66442(7) -0.14742(4) 0.32548(3) 0.0081 Uani
Ga2F Ga 0.18448(7) -0.03479(4) 0.71765(4) 0.0078 Uani
Ga3F Ga 0.33558(7) 0.14742(4) 0.67452(3) 0.0081 Uani
Ga1D Ga 0.65245(6) 0.00509(4) 0.59431(3) 0.0077 Uani
O15 O 0.5101(7) -0.3220(4) 0.2177(4) 0.0470 Uiso
N1 N 0.3321(9) -0.2445(6) 0.1208(5) 0.0490 Uiso
N3 N 0.4965(15) -0.0667(9) -0.0197(8) 0.0310 Uiso
C1 C 0.4953(11) -0.2278(6) 0.0223(5) 0.0420 Uiso
C2 C 0.3526(12) -0.2490(8) 0.0417(6) 0.0520 Uiso
C3 C 0.5147(14) -0.1536(9) -0.0253(8) 0.0720 Uiso
loop_
_atom_site_aniso_label
_atom_site_aniso_U_11
_atom_site_aniso_U_22
_atom_site_aniso_U_33
_atom_site_aniso_U_23
_atom_site_aniso_U_13
_atom_site_aniso_U_12
Ga1 0.0049 0.0096 0.0085 -0.0001 -0.0009 -0.0004
Ga2 0.0058 0.0093 0.0083 0.0009 -0.0008 0
Ga3 0.0065 0.0084 0.0093 -0.001 -0.0002 0.0009
P1 0.0033 0.0095 0.0086 -0.0002 -0.0002 0.0001
P2 0.0052 0.0077 0.0087 0 0.0012 0.0002
P3 0.0045 0.0107 0.0076 -0.0012 -0.0015 0.0006
O1 0.007 0.012 0.0123 0.0012 0.0005 -0.0025
O2 0.006 0.016 0.015 -0.0005 -0.0032 -0.0015
O3 0.012 0.013 0.01 0.0081 -0.0031 -0.0009
O4 0.017 0.014 0.011 0.001 0.002 0.0059
O5 0.011 0.006 0.013 0.0033 -0.0002 0.0004
O6 0.011 0.007 0.017 -0.0052 -0.0018 0.0002
O7 0.006 0.013 0.019 -0.0043 0.0018 0.0006
O8 0.013 0.011 0.009 -0.0024 0.0022 -0.0034
O9 0.0035 0.019 0.0056 -0.0006 0.001 -0.0011
O10 0.004 0.012 0.0097 -0.0031 -0.0003 0.0017
O11 0.016 0.01 0.013 -0.0033 -0.0044 0.0013
O12 0.0034 0.016 0.01 0.0013 0.0018 0.0041
O13 0.011 0.007 0.018 -0.0005 -0.0022 -0.0005
O14 0.008 0.018 0.007 -0.0052 -0.0035 -0.0012
O2B 0.006 0.016 0.015 -0.0005 0.0032 0.0015
O6E 0.011 0.007 0.017 0.0052 0.0018 0.0002
O7B 0.006 0.013 0.019 -0.0043 -0.0018 -0.0006
O10F 0.004 0.012 0.0097 -0.0031 0.0003 -0.0017
O11F 0.016 0.01 0.013 -0.0033 0.0044 -0.0013
O12D 0.0034 0.016 0.01 0.0013 0.0018 0.0041
Ga2B 0.0058 0.0093 0.0083 0.0009 0.0008 0
Ga3E 0.0065 0.0084 0.0093 0.001 0.0002 0.0009
Ga3B 0.0065 0.0084 0.0093 -0.001 0.0002 -0.0009
Ga2F 0.0058 0.0093 0.0083 0.0009 0.0008 0
Ga3F 0.0065 0.0084 0.0093 -0.001 0.0002 -0.0009
Ga1D 0.0049 0.0096 0.0085 -0.0001 -0.0009 -0.0004
loop_
_geom_bond_atom_site_label_1
_geom_bond_atom_site_label_2
_geom_bond_site_symmetry_1
_geom_bond_site_symmetry_2
Ga1 O3 1_555 1_555
Ga2 O1 1_555 1_555
Ga3 O4 1_555 1_555
P1 O1 1_555 1_555
P2 O5 1_555 1_555
P3 O9 1_555 1_555
O2 P1 1_555 1_555
O3 P1 1_555 1_555
O4 P1 1_555 1_555
O5 Ga2 1_555 1_555
O6 P2 1_555 1_555
O7 P2 1_555 1_555
O8 Ga1 1_555 1_555
O9 Ga1 1_555 1_555
O10 P3 1_555 1_555
O11 P3 1_555 1_555
O12 P3 1_555 1_555
O13 Ga2 1_555 1_555
O14 Ga1 1_555 1_555
N1 C2 1_555 1_555
N3 C3 1_555 1_555
C1 C2 1_555 1_555
C3 C1 1_555 1_555
O2B Ga2 1_555 1_555
O6E Ga3 1_555 1_555
O7B Ga3 1_555 1_555
O10F Ga2 1_555 1_555
O11F Ga3 1_555 1_555
O12D Ga1 1_555 1_555
Ga2B O2 1_555 1_555
Ga3E O6 1_555 1_555
Ga3B O7 1_555 1_555
Ga2F O10 1_555 1_555
Ga3F O11 1_555 1_555
Ga1D O12 1_555 1_555
Ga2 O14 1_555 1_555
Ga3 O13 1_555 1_555
P2 O8 1_555 1_555

#END
