
#######################################################################
#
#                 Cambridge Crystallographic Data Centre
#                                CCDC 
#
#######################################################################
#
# If this CIF has been generated from an entry in the Cambridge 
# Structural Database, then it will include bibliographic, chemical, 
# crystal, experimental, refinement or atomic coordinate data resulting 
# from the CCDC's data processing and validation procedures.
#
#######################################################################

data_LOFVUY01
_chemical_formula_moiety         '(C47 H49 N7 O28 Tb1 V6)n'
_symmetry_cell_setting           monoclinic
_symmetry_space_group_name_H-M   'P 21/c'
_symmetry_Int_Tables_number      14
_space_group_name_Hall           '-P 2ybc'
loop_
_symmetry_equiv_pos_site_id
_symmetry_equiv_pos_as_xyz
1 x,y,z
2 -x,1/2+y,1/2-z
3 -x,-y,-z
4 x,1/2-y,1/2+z
_cell_length_a                   13.102(4)
_cell_length_b                   26.279(9)
_cell_length_c                   26.104(6)
_cell_angle_alpha                90
_cell_angle_beta                 93.923(5)
_cell_angle_gamma                90
_cell_volume                     8966.74
loop_
_atom_site_label
_atom_site_type_symbol
_atom_site_fract_x
_atom_site_fract_y
_atom_site_fract_z
C1 C -1.029(2) -1.3632(9) 0.3226(12)
H1 H -0.9772 -1.3901 0.3293
H2 H -1.0681 -1.3711 0.2897
C2 C -1.1868(18) -1.3262(10) 0.3563(11)
H3 H -1.2261 -1.3353 0.3238
H4 H -1.2338 -1.3278 0.3844
C3 C -1.103(2) -1.3627(11) 0.3664(12)
C4 C -1.0455(18) -1.3577(9) 0.4176(11)
H5 H -1.0925 -1.3614 0.4455
H6 H -0.9918 -1.3842 0.4219
C5 C -1.192(3) -1.4349(16) 0.3323(16)
H7 H -1.1414 -1.4403 0.3063
H8 H -1.2389 -1.4077 0.3193
C6 C -0.919(2) -1.0847(11) 0.4037(12)
H9 H -0.8826 -1.0770 0.4374
H10 H -0.9713 -1.0582 0.3964
C7 C -0.8983(18) -1.0943(7) 0.3081(11)
H11 H -0.9491 -1.0671 0.3002
H12 H -0.8470 -1.0927 0.2820
C8 C -0.843(2) -1.0840(10) 0.3625(13)
C9 C -0.7599(18) -1.1223(9) 0.3702(11)
H13 H -0.7123 -1.1184 0.3426
H14 H -0.7209 -1.1154 0.4033
C10 C -0.734(4) -1.013(2) 0.332(2)
H15 H -0.7639 -1.0148 0.2960
H16 H -0.6713 -1.0342 0.3347
C11 C -0.709(4) -0.959(2) 0.347(2)
C12 C -0.730(3) -0.9218(18) 0.309(2)
H17 H -0.7630 -0.9317 0.2767
C13 C -0.703(2) -0.8702(18) 0.3165(14)
H18 H -0.7176 -0.8454 0.2906
C14 C -0.654(2) -0.8568(12) 0.3636(13)
C15 C -0.627(4) -0.887(3) 0.406(2)
H19 H -0.5938 -0.8775 0.4384
C16 C -0.660(4) -0.936(4) 0.390(3)
H20 H -0.6454 -0.9604 0.4165
C17 C -0.6176(16) -0.8048(7) 0.3694(10)
C18 C -1.4130(15) -1.6208(8) 0.3766(7)
C19 C -1.359(2) -1.5731(13) 0.3643(9)
C20 C -1.398(2) -1.5248(12) 0.3733(9)
H21 H -1.4610 -1.5219 0.3891
C21 C -1.345(3) -1.4791(19) 0.3592(12)
H22 H -1.3725 -1.4464 0.3656
C22 C -1.255(3) -1.4844(17) 0.3363(12)
C23 C -1.213(3) -1.5327(14) 0.3270(10)
H23 H -1.1494 -1.5348 0.3115
C24 C -1.263(2) -1.5783(12) 0.3402(9)
H24 H -1.2348 -1.6107 0.3335
C25 C -0.4691(15) -0.8098(9) 0.7432(8)
H25 H -0.4130 -0.8203 0.7657
C26 C -0.4534(14) -0.7940(8) 0.6950(8)
H26 H -0.3857 -0.7939 0.6842
C27 C -0.5301(14) -0.7786(8) 0.6620(8)
C28 C -0.6308(15) -0.7797(9) 0.6790(9)
H27 H -0.6877 -0.7699 0.6567
C29 C -0.6440(15) -0.7950(9) 0.7273(8)
H28 H -0.7108 -0.7947 0.7392
C30 C -0.5158(14) -0.7622(9) 0.6078(8)
C31 C -0.5774(14) -0.7361(11) 0.5222(9)
H29 H -0.6335 -0.7312 0.4977
C32 C -0.5931(15) -0.7565(10) 0.5728(8)
H30 H -0.6601 -0.7659 0.5809
C33 C -0.4173(17) -0.7477(11) 0.5944(9)
H31 H -0.3612 -0.7503 0.6193
C34 C -0.4016(16) -0.7306(11) 0.5483(10)
H32 H -0.3337 -0.7225 0.5405
C35 C -0.2494(15) -0.7437(10) 0.3371(10)
H33 H -0.2860 -0.7373 0.3051
C36 C -0.1472(15) -0.7352(9) 0.3437(9)
H34 H -0.1118 -0.7259 0.3146
C37 C -0.0921(14) -0.7394(10) 0.3899(8)
C38 C -0.1471(17) -0.7550(12) 0.4316(10)
H35 H -0.1137 -0.7591 0.4648
C39 C -0.2482(16) -0.7641(10) 0.4235(10)
H36 H -0.2861 -0.7727 0.4520
C40 C 0.1812(14) -0.7175(11) 0.3608(9)
H37 H 0.2228 -0.7215 0.3327
C41 C 0.0796(14) -0.7329(9) 0.3560(9)
H38 H 0.0514 -0.7477 0.3249
C42 C 0.0205(16) -0.7262(10) 0.3973(8)
C43 C 0.0636(17) -0.7073(12) 0.4393(11)
H39 H 0.0238 -0.7044 0.4683
C44 C 0.1633(18) -0.6911(12) 0.4443(9)
H40 H 0.1909 -0.6759 0.4753
N1 N -1.146(2) -1.4196(10) 0.3717(9)
H48 H -1.1371 -1.4379 0.3999
N2 N -0.800(2) -1.0301(10) 0.3636(13)
H49 H -0.8212 -1.0090 0.3869
N3 N 0.2207(11) -0.6973(7) 0.4042(6)
N4 N -0.5655(11) -0.8106(6) 0.7591(6)
N5 N -0.2970(12) -0.7614(7) 0.3774(8)
N6 N -0.4802(12) -0.7241(8) 0.5107(7)
O1 O -0.8226(13) -1.3469(7) 0.3862(8)
O2 O -0.9802(11) -1.3158(6) 0.3187(6)
O3 O -0.9989(10) -1.3061(6) 0.4186(6)
O4 O -1.1355(13) -1.2849(8) 0.2501(7)
O5 O -1.1476(10) -1.2767(6) 0.3527(6)
O6 O -1.1703(11) -1.2668(7) 0.4541(6)
O7 O -0.8017(9) -1.2636(6) 0.3282(6)
O8 O -0.9542(9) -1.2347(6) 0.2613(5)
O9 O -0.8236(10) -1.2546(6) 0.4292(6)
O10 O -0.9741(9) -1.2245(5) 0.3626(5)
O11 O -1.1237(10) -1.1938(6) 0.2951(7)
O12 O -0.9927(12) -1.2135(7) 0.4616(6)
O13 O -1.1422(11) -1.1859(7) 0.3956(7)
O14 O -0.7771(10) -1.1819(6) 0.2675(6)
O15 O -0.7968(9) -1.1739(6) 0.3702(5)
O16 O -0.9492(10) -1.1427(5) 0.3042(6)
O17 O -0.8151(14) -1.1633(8) 0.4730(6)
O18 O -0.9655(12) -1.1326(6) 0.4056(7)
O19 O -1.1164(14) -1.0999(7) 0.3408(10)
O20 O -0.6109(10) -0.7744(5) 0.3334(6)
O21 O -0.5960(13) -0.7869(7) 0.4166(7)
O22 O -1.3770(9) -1.6638(6) 0.3643(5)
O23 O -1.4995(10) -1.6184(5) 0.3953(5)
O24 O 0.3175(9) -0.6819(6) 0.4089(5)
O25 O -0.5823(9) -0.8293(5) 0.8049(5)
O26 O -0.3992(10) -0.7705(6) 0.3714(5)
O27 O -0.4611(12) -0.7033(7) 0.4670(6)
Tb1 Tb -0.52725(6) -0.70990(4) 0.38343(4)
V1 V -0.8611(2) -1.20393(14) 0.30453(15)
V2 V -0.8789(3) -1.19339(18) 0.42881(17)
V3 V -1.0682(3) -1.15427(17) 0.3486(2)
V4 V -1.0857(3) -1.24451(18) 0.41826(17)
V5 V -1.0674(3) -1.25567(17) 0.29460(16)
V6 V -0.8789(3) -1.29492(16) 0.37490(19)
O22_2 O -0.3770(9) -0.6638(6) 0.3643(5)
O23_2 O -0.4995(10) -0.6184(5) 0.3953(5)
O24_2 O -0.6825(9) -0.6819(6) 0.4089(5)
O25C O -0.5823(9) -0.6707(5) 0.3049(5)
Tb1_2 Tb 0.47275(6) -0.70990(4) 0.38343(4)
Tb1C Tb -0.52725(6) -0.79010(4) 0.88343(4)
Tb1_3 Tb -1.52725(6) -1.70990(4) 0.38343(4)
C45 C 0.476(8) 0.158(4) 0.215(4)
H41 H 0.4516 0.1778 0.2420
C46 C 0.586(9) 0.123(5) 0.160(4)
H42 H 0.5215 0.1232 0.1384
H43 H 0.6103 0.0877 0.1639
H44 H 0.6374 0.1428 0.1427
C47 C 0.621(8) 0.154(4) 0.254(4)
H45 H 0.6920 0.1443 0.2510
H46 H 0.5924 0.1336 0.2816
H47 H 0.6171 0.1902 0.2633
N7 N 0.570(3) 0.1462(16) 0.2129(17)
O28 O 0.416(5) 0.141(2) 0.177(3)
loop_
_geom_bond_atom_site_label_1
_geom_bond_atom_site_label_2
_geom_bond_site_symmetry_1
_geom_bond_site_symmetry_2
C1 H1 1_555 1_555
H2 C1 1_555 1_555
C2 H3 1_555 1_555
H4 C2 1_555 1_555
C3 C1 1_555 1_555
C4 C3 1_555 1_555
H5 C4 1_555 1_555
H6 C4 1_555 1_555
C5 H7 1_555 1_555
H8 C5 1_555 1_555
C6 H9 1_555 1_555
H10 C6 1_555 1_555
C7 H11 1_555 1_555
H12 C7 1_555 1_555
C8 C6 1_555 1_555
C9 C8 1_555 1_555
H13 C9 1_555 1_555
H14 C9 1_555 1_555
C10 H15 1_555 1_555
H16 C10 1_555 1_555
C11 C10 1_555 1_555
C12 C11 1_555 1_555
H17 C12 1_555 1_555
C13 C12 1_555 1_555
H18 C13 1_555 1_555
C14 C13 1_555 1_555
C15 C14 1_555 1_555
H19 C15 1_555 1_555
C16 C11 1_555 1_555
H20 C16 1_555 1_555
C17 C14 1_555 1_555
C18 C19 1_555 1_555
C19 C20 1_555 1_555
C20 H21 1_555 1_555
C21 C20 1_555 1_555
H22 C21 1_555 1_555
C22 C5 1_555 1_555
C23 C22 1_555 1_555
H23 C23 1_555 1_555
C24 C19 1_555 1_555
H24 C24 1_555 1_555
C25 H25 1_555 1_555
C26 C25 1_555 1_555
H26 C26 1_555 1_555
C27 C26 1_555 1_555
C28 C27 1_555 1_555
H27 C28 1_555 1_555
C29 C28 1_555 1_555
H28 C29 1_555 1_555
C30 C27 1_555 1_555
C31 H29 1_555 1_555
C32 C30 1_555 1_555
H30 C32 1_555 1_555
C33 C30 1_555 1_555
H31 C33 1_555 1_555
C34 C33 1_555 1_555
H32 C34 1_555 1_555
C35 H33 1_555 1_555
C36 C35 1_555 1_555
H34 C36 1_555 1_555
C37 C36 1_555 1_555
C38 C37 1_555 1_555
H35 C38 1_555 1_555
C39 C38 1_555 1_555
H36 C39 1_555 1_555
C40 H37 1_555 1_555
C41 C40 1_555 1_555
H38 C41 1_555 1_555
C42 C37 1_555 1_555
C43 C42 1_555 1_555
H39 C43 1_555 1_555
C44 C43 1_555 1_555
H40 C44 1_555 1_555
C45 H41 1_555 1_555
C46 H42 1_555 1_555
H43 C46 1_555 1_555
H44 C46 1_555 1_555
C47 H45 1_555 1_555
H46 C47 1_555 1_555
H47 C47 1_555 1_555
N1 C3 1_555 1_555
H48 N1 1_555 1_555
N2 C8 1_555 1_555
H49 N2 1_555 1_555
N3 C40 1_555 1_555
N4 C25 1_555 1_555
N5 C35 1_555 1_555
N6 C31 1_555 1_555
N7 C45 1_555 1_555
O1 V6 1_555 1_555
O2 C1 1_555 1_555
O3 C4 1_555 1_555
O4 V5 1_555 1_555
O5 C2 1_555 1_555
O6 V4 1_555 1_555
O7 V1 1_555 1_555
O8 V1 1_555 1_555
O9 V2 1_555 1_555
O10 V1 1_555 1_555
O11 V3 1_555 1_555
O12 V2 1_555 1_555
O13 V3 1_555 1_555
O14 V1 1_555 1_555
O15 C9 1_555 1_555
O16 C7 1_555 1_555
O17 V2 1_555 1_555
O18 C6 1_555 1_555
O19 V3 1_555 1_555
O20 C17 1_555 1_555
O21 C17 1_555 1_555
O22 C18 1_555 1_555
O23 C18 1_555 1_555
O24 N3 1_555 1_555
O25 N4 1_555 1_555
O26 N5 1_555 1_555
O27 N6 1_555 1_555
O28 C45 1_555 1_555
Tb1 O20 1_555 1_555
V1 O15 1_555 1_555
V2 O10 1_555 1_555
V3 O10 1_555 1_555
V4 O3 1_555 1_555
V5 O2 1_555 1_555
V6 O2 1_555 1_555
O22_2 Tb1 1_555 1_555
O23_2 Tb1 1_555 1_555
O24_2 Tb1 1_555 1_555
O25C Tb1 1_555 1_555
Tb1_2 O24 1_555 1_555
Tb1C O25 1_555 1_555
Tb1_3 O22 1_555 1_555
C2 C3 1_555 1_555
C5 N1 1_555 1_555
C7 C8 1_555 1_555
C10 N2 1_555 1_555
C15 C16 1_555 1_555
C21 C22 1_555 1_555
C23 C24 1_555 1_555
C29 N4 1_555 1_555
C31 C32 1_555 1_555
C34 N6 1_555 1_555
C39 N5 1_555 1_555
C41 C42 1_555 1_555
C44 N3 1_555 1_555
C46 N7 1_555 1_555
C47 N7 1_555 1_555
O3 V6 1_555 1_555
O5 V4 1_555 1_555
O5 V5 1_555 1_555
O7 V6 1_555 1_555
O8 V5 1_555 1_555
O9 V6 1_555 1_555
O10 V4 1_555 1_555
O10 V5 1_555 1_555
O10 V6 1_555 1_555
O11 V5 1_555 1_555
O12 V4 1_555 1_555
O13 V4 1_555 1_555
O15 V2 1_555 1_555
O16 V1 1_555 1_555
O16 V3 1_555 1_555
O18 V2 1_555 1_555
O18 V3 1_555 1_555
O21 Tb1 1_555 1_555
O23 Tb1_3 1_555 1_555
O26 Tb1 1_555 1_555
O27 Tb1 1_555 1_555

#END
