
#######################################################################
#
#                 Cambridge Crystallographic Data Centre
#                                CCDC 
#
#######################################################################
#
# If this CIF has been generated from an entry in the Cambridge 
# Structural Database, then it will include bibliographic, chemical, 
# crystal, experimental, refinement or atomic coordinate data resulting 
# from the CCDC's data processing and validation procedures.
#
#######################################################################

data_ETABEH
_chemical_formula_moiety         'C178 H28 Co12 F4 Fe7 O58 P4'
_symmetry_cell_setting           cubic
_symmetry_space_group_name_H-M   'F -4 3 m'
_symmetry_Int_Tables_number      216
_space_group_name_Hall           'F -4 2 3'
loop_
_symmetry_equiv_pos_site_id
_symmetry_equiv_pos_as_xyz
1 x,y,z
2 y,-x,-z
3 -x,-y,z
4 -y,x,-z
5 -x,z,-y
6 x,-y,-z
7 -x,-z,y
8 -z,-y,x
9 -x,y,-z
10 z,-y,-x
11 z,x,y
12 y,z,x
13 -y,-z,x
14 z,-x,-y
15 -y,z,-x
16 -z,-x,y
17 -z,x,-y
18 y,-z,-x
19 -y,-x,z
20 y,x,z
21 x,-z,-y
22 x,z,y
23 -z,y,-x
24 z,y,x
25 x,1/2+y,1/2+z
26 y,1/2-x,1/2-z
27 -x,1/2-y,1/2+z
28 -y,1/2+x,1/2-z
29 -x,1/2+z,1/2-y
30 x,1/2-y,1/2-z
31 -x,1/2-z,1/2+y
32 -z,1/2-y,1/2+x
33 -x,1/2+y,1/2-z
34 z,1/2-y,1/2-x
35 z,1/2+x,1/2+y
36 y,1/2+z,1/2+x
37 -y,1/2-z,1/2+x
38 z,1/2-x,1/2-y
39 -y,1/2+z,1/2-x
40 -z,1/2-x,1/2+y
41 -z,1/2+x,1/2-y
42 y,1/2-z,1/2-x
43 -y,1/2-x,1/2+z
44 y,1/2+x,1/2+z
45 x,1/2-z,1/2-y
46 x,1/2+z,1/2+y
47 -z,1/2+y,1/2-x
48 z,1/2+y,1/2+x
49 1/2+x,y,1/2+z
50 1/2+y,-x,1/2-z
51 1/2-x,-y,1/2+z
52 1/2-y,x,1/2-z
53 1/2-x,z,1/2-y
54 1/2+x,-y,1/2-z
55 1/2-x,-z,1/2+y
56 1/2-z,-y,1/2+x
57 1/2-x,y,1/2-z
58 1/2+z,-y,1/2-x
59 1/2+z,x,1/2+y
60 1/2+y,z,1/2+x
61 1/2-y,-z,1/2+x
62 1/2+z,-x,1/2-y
63 1/2-y,z,1/2-x
64 1/2-z,-x,1/2+y
65 1/2-z,x,1/2-y
66 1/2+y,-z,1/2-x
67 1/2-y,-x,1/2+z
68 1/2+y,x,1/2+z
69 1/2+x,-z,1/2-y
70 1/2+x,z,1/2+y
71 1/2-z,y,1/2-x
72 1/2+z,y,1/2+x
73 1/2+x,1/2+y,z
74 1/2+y,1/2-x,-z
75 1/2-x,1/2-y,z
76 1/2-y,1/2+x,-z
77 1/2-x,1/2+z,-y
78 1/2+x,1/2-y,-z
79 1/2-x,1/2-z,y
80 1/2-z,1/2-y,x
81 1/2-x,1/2+y,-z
82 1/2+z,1/2-y,-x
83 1/2+z,1/2+x,y
84 1/2+y,1/2+z,x
85 1/2-y,1/2-z,x
86 1/2+z,1/2-x,-y
87 1/2-y,1/2+z,-x
88 1/2-z,1/2-x,y
89 1/2-z,1/2+x,-y
90 1/2+y,1/2-z,-x
91 1/2-y,1/2-x,z
92 1/2+y,1/2+x,z
93 1/2+x,1/2-z,-y
94 1/2+x,1/2+z,y
95 1/2-z,1/2+y,-x
96 1/2+z,1/2+y,x
_cell_length_a                   24.1624(9)
_cell_length_b                   24.1624(9)
_cell_length_c                   24.1624(9)
_cell_angle_alpha                90
_cell_angle_beta                 90
_cell_angle_gamma                90
_cell_volume                     14106.5
loop_
_atom_site_label
_atom_site_type_symbol
_atom_site_fract_x
_atom_site_fract_y
_atom_site_fract_z
_atom_site_U_iso_or_equiv
_atom_site_thermal_displace_type
Co1 Co 0.20788(3) 0.20788(3) 0.10539(4) 0.0170 Uani
Fe1 Fe 0.27331(12) 0.0000 0.0000 0.0534 Uani
P1 P 0.17609(8) 0.32391(8) 0.17609(8) 0.0156 Uani
F1 F 0.1779(2) 0.1779(2) 0.1779(2) 0.0222 Uani
O1 O 0.2180(2) 0.13343(18) 0.06801(19) 0.0423 Uani
O2 O 0.2500 0.2500 0.0388(3) 0.0240 Uani
O3 O 0.20998(16) 0.29002(16) 0.1369(2) 0.0196 Uani
O4 O 0.13809(19) 0.36191(19) 0.13809(19) 0.0180 Uani
C1 C 0.2131(5) 0.0408(3) 0.0408(3) 0.0417 Uani
C2 C 0.2131(4) 0.0553(3) -0.0146(3) 0.0650 Uani
H1 H 0.2131 0.0933 -0.0249 0.0780 Uiso
C3 C 0.2171(4) 0.0854(2) 0.0854(2) 0.0300 Uani
C4 C 0.343(2) -0.0404(15) -0.0236(14) 0.0800 Uiso
C5 C 0.3389(19) -0.0495(11) 0.0343(15) 0.0790 Uiso
C6 C 0.3390(14) 0.0029(14) 0.0609(10) 0.0480 Uiso
C7 C 0.3433(16) 0.0443(11) 0.0195(13) 0.0400 Uiso
C8 C 0.3460(14) 0.0175(16) -0.0327(10) 0.0780 Uiso
Co1VB Co 0.29212(3) 0.29212(3) 0.10539(4) 0.0170 Uani
Co1ZB Co 0.29212(3) 0.39461(4) 0.20788(3) 0.0170 Uani
Co1OA Co 0.20788(3) 0.39461(4) 0.29212(3) 0.0170 Uani
Co1GA Co 0.10539(4) 0.29212(3) 0.29212(3) 0.0170 Uani
Co1J Co 0.10539(4) 0.20788(3) 0.20788(3) 0.0170 Uani
Co1K Co 0.20788(3) 0.10539(4) 0.20788(3) 0.0170 Uani
Co1ZA Co 0.29212(3) 0.10539(4) 0.29212(3) 0.0170 Uani
Co1YA Co 0.29212(3) 0.20788(3) 0.39461(4) 0.0170 Uani
Co1Y Co 0.20788(3) 0.29212(3) 0.39461(4) 0.0170 Uani
Co1LB Co 0.39461(4) 0.20788(3) 0.29212(3) 0.0170 Uani
Co1AC Co 0.39461(4) 0.29212(3) 0.20788(3) 0.0170 Uani
Fe1G Fe 0.0000 0.0000 0.27331(12) 0.0534 Uani
Fe1C Fe 0.0000 0.27331(12) 0.0000 0.0534 Uani
Fe1XA Fe 0.22669(12) -0.0000 0.5000 0.0534 Uani
Fe1EB Fe 0.5000 0.0000 0.22669(12) 0.0534 Uani
Fe1UB Fe 0.5000 0.22669(12) 0.0000 0.0534 Uani
Fe1X Fe 0.27331(12) 0.5000 0.5000 0.0534 Uani
P1Y P 0.32391(8) 0.32391(8) 0.32391(8) 0.0156 Uani
P1J P 0.17609(8) 0.17609(8) 0.32391(8) 0.0156 Uani
P1K P 0.32391(8) 0.17609(8) 0.17609(8) 0.0156 Uani
F1VB F 0.3221(2) 0.3221(2) 0.1779(2) 0.0222 Uani
F1Y F 0.1779(2) 0.3221(2) 0.3221(2) 0.0222 Uani
F1YA F 0.3221(2) 0.1779(2) 0.3221(2) 0.0222 Uani
O1U O 0.2180(2) 0.06801(19) 0.13343(18) 0.0423 Uani
O1Y O 0.13343(18) 0.2820(2) 0.43199(19) 0.0423 Uani
O1KA O 0.06801(19) 0.2820(2) 0.36657(18) 0.0423 Uani
O1GA O 0.06801(19) 0.36657(18) 0.2820(2) 0.0423 Uani
O1OA O 0.13343(18) 0.43199(19) 0.2820(2) 0.0423 Uani
O1RA O 0.2180(2) 0.43199(19) 0.36657(18) 0.0423 Uani
O1CA O 0.2180(2) 0.36657(18) 0.43199(19) 0.0423 Uani
O1YA O 0.36657(18) 0.2180(2) 0.43199(19) 0.0423 Uani
O1LB O 0.43199(19) 0.2180(2) 0.36657(18) 0.0423 Uani
O1IC O 0.43199(19) 0.2820(2) 0.13343(18) 0.0423 Uani
O1LC O 0.36657(18) 0.2820(2) 0.06801(19) 0.0423 Uani
O1VB O 0.2820(2) 0.36657(18) 0.06801(19) 0.0423 Uani
O1ZB O 0.2820(2) 0.43199(19) 0.13343(18) 0.0423 Uani
O1FC O 0.36657(18) 0.43199(19) 0.2180(2) 0.0423 Uani
O1AC O 0.43199(19) 0.36657(18) 0.2180(2) 0.0423 Uani
O1RB O 0.43199(19) 0.13343(18) 0.2820(2) 0.0423 Uani
O1JB O 0.36657(18) 0.06801(19) 0.2820(2) 0.0423 Uani
O1ZA O 0.2820(2) 0.06801(19) 0.36657(18) 0.0423 Uani
O1DB O 0.2820(2) 0.13343(18) 0.43199(19) 0.0423 Uani
O1S O 0.13343(18) 0.2180(2) 0.06801(19) 0.0423 Uani
O1J O 0.06801(19) 0.2180(2) 0.13343(18) 0.0423 Uani
O1W O 0.06801(19) 0.13343(18) 0.2180(2) 0.0423 Uani
O1K O 0.13343(18) 0.06801(19) 0.2180(2) 0.0423 Uani
O1G O -0.06801(19) -0.13343(18) 0.2180(2) 0.0423 Uani
O1L O -0.13343(18) -0.06801(19) 0.2180(2) 0.0423 Uani
O1C O -0.13343(18) 0.2180(2) -0.06801(19) 0.0423 Uani
O1P O -0.06801(19) 0.2180(2) -0.13343(18) 0.0423 Uani
O1BB O 0.2820(2) -0.06801(19) 0.63343(18) 0.0423 Uani
O1XA O 0.2820(2) -0.13343(18) 0.56801(19) 0.0423 Uani
O1EB O 0.56801(19) -0.13343(18) 0.2820(2) 0.0423 Uani
O1MB O 0.63343(18) -0.06801(19) 0.2820(2) 0.0423 Uani
O1GC O 0.56801(19) 0.2820(2) -0.13343(18) 0.0423 Uani
O1UB O 0.63343(18) 0.2820(2) -0.06801(19) 0.0423 Uani
O1SA O 0.2180(2) 0.56801(19) 0.63343(18) 0.0423 Uani
O1X O 0.2180(2) 0.63343(18) 0.56801(19) 0.0423 Uani
O2Y O 0.2500 0.2500 0.4612(3) 0.0240 Uani
O2LB O 0.4612(3) 0.2500 0.2500 0.0240 Uani
O2OA O 0.2500 0.4612(3) 0.2500 0.0240 Uani
O2K O 0.2500 0.0388(3) 0.2500 0.0240 Uani
O2J O 0.0388(3) 0.2500 0.2500 0.0240 Uani
O3CA O 0.20998(16) 0.20998(16) 0.3631(2) 0.0196 Uani
O3Y O 0.29002(16) 0.29002(16) 0.3631(2) 0.0196 Uani
O3OA O 0.29002(16) 0.3631(2) 0.29002(16) 0.0196 Uani
O3RA O 0.20998(16) 0.3631(2) 0.20998(16) 0.0196 Uani
O3K O 0.29002(16) 0.1369(2) 0.20998(16) 0.0196 Uani
O3U O 0.20998(16) 0.1369(2) 0.29002(16) 0.0196 Uani
O3J O 0.1369(2) 0.20998(16) 0.29002(16) 0.0196 Uani
O3W O 0.1369(2) 0.29002(16) 0.20998(16) 0.0196 Uani
O3LB O 0.3631(2) 0.20998(16) 0.20998(16) 0.0196 Uani
O3RB O 0.3631(2) 0.29002(16) 0.29002(16) 0.0196 Uani
O3S O 0.29002(16) 0.20998(16) 0.1369(2) 0.0196 Uani
O4J O 0.13809(19) 0.13809(19) 0.36191(19) 0.0180 Uani
O4Y O 0.36191(19) 0.36191(19) 0.36191(19) 0.0180 Uani
O4K O 0.36191(19) 0.13809(19) 0.13809(19) 0.0180 Uani
C1K C 0.0408(3) 0.0408(3) 0.2131(5) 0.0417 Uani
C1G C -0.0408(3) -0.0408(3) 0.2131(5) 0.0417 Uani
C1J C 0.0408(3) 0.2131(5) 0.0408(3) 0.0417 Uani
C1C C -0.0408(3) 0.2131(5) -0.0408(3) 0.0417 Uani
C1ZA C 0.2869(5) 0.0408(3) 0.4592(3) 0.0417 Uani
C1XA C 0.2869(5) -0.0408(3) 0.5408(3) 0.0417 Uani
C1JB C 0.4592(3) 0.0408(3) 0.2869(5) 0.0417 Uani
C1EB C 0.5408(3) -0.0408(3) 0.2869(5) 0.0417 Uani
C1AC C 0.4592(3) 0.4592(3) 0.2131(5) 0.0417 Uani
C1VB C 0.2869(5) 0.4592(3) 0.0408(3) 0.0417 Uani
C1IC C 0.4592(3) 0.2869(5) 0.0408(3) 0.0417 Uani
C1UB C 0.5408(3) 0.2869(5) -0.0408(3) 0.0417 Uani
C1YA C 0.4592(3) 0.2131(5) 0.4592(3) 0.0417 Uani
C1CA C 0.2131(5) 0.4592(3) 0.4592(3) 0.0417 Uani
C1X C 0.2131(5) 0.5408(3) 0.5408(3) 0.0417 Uani
C1GA C 0.0408(3) 0.4592(3) 0.2869(5) 0.0417 Uani
C1Y C 0.0408(3) 0.2869(5) 0.4592(3) 0.0417 Uani
C1E C 0.2131(5) -0.0408(3) -0.0408(3) 0.0417 Uani
C2G C 0.0146(3) -0.0553(3) 0.2131(4) 0.0650 Uani
C2W C -0.0146(3) 0.0553(3) 0.2131(4) 0.0650 Uani
C2K C 0.0553(3) -0.0146(3) 0.2131(4) 0.0650 Uani
C2L C -0.0553(3) 0.0146(3) 0.2131(4) 0.0650 Uani
C2C C -0.0553(3) 0.2131(4) 0.0146(3) 0.0650 Uani
C2S C 0.0553(3) 0.2131(4) -0.0146(3) 0.0650 Uani
C2J C -0.0146(3) 0.2131(4) 0.0553(3) 0.0650 Uani
C2P C 0.0146(3) 0.2131(4) -0.0553(3) 0.0650 Uani
C2BB C 0.2869(4) 0.0146(3) 0.5553(3) 0.0650 Uani
C2ZA C 0.2869(4) -0.0146(3) 0.4447(3) 0.0650 Uani
C2DB C 0.2869(4) 0.0553(3) 0.5146(3) 0.0650 Uani
C2XA C 0.2869(4) -0.0553(3) 0.4854(3) 0.0650 Uani
C2EB C 0.4854(3) -0.0553(3) 0.2869(4) 0.0650 Uani
C2RB C 0.5146(3) 0.0553(3) 0.2869(4) 0.0650 Uani
C2JB C 0.4447(3) -0.0146(3) 0.2869(4) 0.0650 Uani
C2MB C 0.5553(3) 0.0146(3) 0.2869(4) 0.0650 Uani
C2GC C 0.4854(3) 0.2869(4) -0.0553(3) 0.0650 Uani
C2IC C 0.5146(3) 0.2869(4) 0.0553(3) 0.0650 Uani
C2LC C 0.4447(3) 0.2869(4) -0.0146(3) 0.0650 Uani
C2UB C 0.5553(3) 0.2869(4) 0.0146(3) 0.0650 Uani
C2SA C 0.2131(4) 0.4854(3) 0.5553(3) 0.0650 Uani
C2RA C 0.2131(4) 0.5146(3) 0.4447(3) 0.0650 Uani
C2CA C 0.2131(4) 0.4447(3) 0.5146(3) 0.0650 Uani
C2X C 0.2131(4) 0.5553(3) 0.4854(3) 0.0650 Uani
C2E C 0.2131(4) -0.0553(3) 0.0146(3) 0.0650 Uani
C2T C 0.2131(4) 0.0146(3) -0.0553(3) 0.0650 Uani
C2U C 0.2131(4) -0.0146(3) 0.0553(3) 0.0650 Uani
H1W H -0.0249 0.0933 0.2131 0.0780 Uiso
H1L H -0.0933 0.0249 0.2131 0.0780 Uiso
H1G H 0.0249 -0.0933 0.2131 0.0780 Uiso
H1K H 0.0933 -0.0249 0.2131 0.0780 Uiso
H1S H 0.0933 0.2131 -0.0249 0.0780 Uiso
H1P H 0.0249 0.2131 -0.0933 0.0780 Uiso
H1C H -0.0933 0.2131 0.0249 0.0780 Uiso
H1J H -0.0249 0.2131 0.0933 0.0780 Uiso
H1ZA H 0.2869 -0.0249 0.4067 0.0780 Uiso
H1XA H 0.2869 -0.0933 0.4751 0.0780 Uiso
H1BB H 0.2869 0.0249 0.5933 0.0780 Uiso
H1DB H 0.2869 0.0933 0.5249 0.0780 Uiso
H1RB H 0.5249 0.0933 0.2869 0.0780 Uiso
H1MB H 0.5933 0.0249 0.2869 0.0780 Uiso
H1EB H 0.4751 -0.0933 0.2869 0.0780 Uiso
H1JB H 0.4067 -0.0249 0.2869 0.0780 Uiso
H1IC H 0.5249 0.2869 0.0933 0.0780 Uiso
H1UB H 0.5933 0.2869 0.0249 0.0780 Uiso
H1GC H 0.4751 0.2869 -0.0933 0.0780 Uiso
H1LC H 0.4067 0.2869 -0.0249 0.0780 Uiso
H1RA H 0.2131 0.5249 0.4067 0.0780 Uiso
H1X H 0.2131 0.5933 0.4751 0.0780 Uiso
H1SA H 0.2131 0.4751 0.5933 0.0780 Uiso
H1CA H 0.2131 0.4067 0.5249 0.0780 Uiso
H1E H 0.2131 -0.0933 0.0249 0.0780 Uiso
H1T H 0.2131 0.0249 -0.0933 0.0780 Uiso
H1U H 0.2131 -0.0249 0.0933 0.0780 Uiso
C3Y C 0.0854(2) 0.2829(4) 0.4146(2) 0.0300 Uani
C3GA C 0.0854(2) 0.4146(2) 0.2829(4) 0.0300 Uani
C3CA C 0.2171(4) 0.4146(2) 0.4146(2) 0.0300 Uani
C3YA C 0.4146(2) 0.2171(4) 0.4146(2) 0.0300 Uani
C3IC C 0.4146(2) 0.2829(4) 0.0854(2) 0.0300 Uani
C3VB C 0.2829(4) 0.4146(2) 0.0854(2) 0.0300 Uani
C3AC C 0.4146(2) 0.4146(2) 0.2171(4) 0.0300 Uani
C3JB C 0.4146(2) 0.0854(2) 0.2829(4) 0.0300 Uani
C3ZA C 0.2829(4) 0.0854(2) 0.4146(2) 0.0300 Uani
C3J C 0.0854(2) 0.2171(4) 0.0854(2) 0.0300 Uani
C3K C 0.0854(2) 0.0854(2) 0.2171(4) 0.0300 Uani
C3G C -0.0854(2) -0.0854(2) 0.2171(4) 0.0300 Uani
C3C C -0.0854(2) 0.2171(4) -0.0854(2) 0.0300 Uani
C3XA C 0.2829(4) -0.0854(2) 0.5854(2) 0.0300 Uani
C3EB C 0.5854(2) -0.0854(2) 0.2829(4) 0.0300 Uani
C3UB C 0.5854(2) 0.2829(4) -0.0854(2) 0.0300 Uani
C3X C 0.2171(4) 0.5854(2) 0.5854(2) 0.0300 Uani
C3E C 0.2171(4) -0.0854(2) -0.0854(2) 0.0300 Uani
C4W C -0.0236(14) -0.0404(15) 0.343(2) 0.0800 Uiso
C4K C -0.0404(15) -0.0236(14) 0.343(2) 0.0800 Uiso
C4G C 0.0236(14) 0.0404(15) 0.343(2) 0.0800 Uiso
C4L C 0.0404(15) 0.0236(14) 0.343(2) 0.0800 Uiso
C4S C -0.0404(15) 0.343(2) -0.0236(14) 0.0800 Uiso
C4J C -0.0236(14) 0.343(2) -0.0404(15) 0.0800 Uiso
C4C C 0.0404(15) 0.343(2) 0.0236(14) 0.0800 Uiso
C4P C 0.0236(14) 0.343(2) 0.0404(15) 0.0800 Uiso
C4ZA C 0.157(2) -0.0236(14) 0.5404(15) 0.0800 Uiso
C4DB C 0.157(2) -0.0404(15) 0.5236(14) 0.0800 Uiso
C4BB C 0.157(2) 0.0236(14) 0.4596(15) 0.0800 Uiso
C4XA C 0.157(2) 0.0404(15) 0.4764(14) 0.0800 Uiso
C4RB C 0.5236(14) -0.0404(15) 0.157(2) 0.0800 Uiso
C4JB C 0.5404(15) -0.0236(14) 0.157(2) 0.0800 Uiso
C4EB C 0.4764(14) 0.0404(15) 0.157(2) 0.0800 Uiso
C4MB C 0.4596(15) 0.0236(14) 0.157(2) 0.0800 Uiso
C4IC C 0.5236(14) 0.157(2) -0.0404(15) 0.0800 Uiso
C4LC C 0.5404(15) 0.157(2) -0.0236(14) 0.0800 Uiso
C4GC C 0.4764(14) 0.157(2) 0.0404(15) 0.0800 Uiso
C4UB C 0.4596(15) 0.157(2) 0.0236(14) 0.0800 Uiso
C4RA C 0.343(2) 0.5236(14) 0.5404(15) 0.0800 Uiso
C4CA C 0.343(2) 0.5404(15) 0.5236(14) 0.0800 Uiso
C4SA C 0.343(2) 0.4764(14) 0.4596(15) 0.0800 Uiso
C4X C 0.343(2) 0.4596(15) 0.4764(14) 0.0800 Uiso
C4T C 0.343(2) 0.0236(14) 0.0404(15) 0.0800 Uiso
C5W C 0.0343(15) -0.0495(11) 0.3389(19) 0.0790 Uiso
C5G C -0.0343(15) 0.0495(11) 0.3389(19) 0.0790 Uiso
C5L C 0.0495(11) -0.0343(15) 0.3389(19) 0.0790 Uiso
C5K C -0.0495(11) 0.0343(15) 0.3389(19) 0.0790 Uiso
C5S C -0.0495(11) 0.3389(19) 0.0343(15) 0.0790 Uiso
C5C C 0.0495(11) 0.3389(19) -0.0343(15) 0.0790 Uiso
C5P C -0.0343(15) 0.3389(19) 0.0495(11) 0.0790 Uiso
C5J C 0.0343(15) 0.3389(19) -0.0495(11) 0.0790 Uiso
C5ZA C 0.1611(19) 0.0343(15) 0.5495(11) 0.0790 Uiso
C5BB C 0.1611(19) -0.0343(15) 0.4505(11) 0.0790 Uiso
C5XA C 0.1611(19) 0.0495(11) 0.5343(15) 0.0790 Uiso
C5DB C 0.1611(19) -0.0495(11) 0.4657(15) 0.0790 Uiso
C5RB C 0.4657(15) -0.0495(11) 0.1611(19) 0.0790 Uiso
C5EB C 0.5343(15) 0.0495(11) 0.1611(19) 0.0790 Uiso
C5MB C 0.4505(11) -0.0343(15) 0.1611(19) 0.0790 Uiso
C5JB C 0.5495(11) 0.0343(15) 0.1611(19) 0.0790 Uiso
C5IC C 0.4657(15) 0.1611(19) -0.0495(11) 0.0790 Uiso
C5GC C 0.5343(15) 0.1611(19) 0.0495(11) 0.0790 Uiso
C5UB C 0.4505(11) 0.1611(19) -0.0343(15) 0.0790 Uiso
C5LC C 0.5495(11) 0.1611(19) 0.0343(15) 0.0790 Uiso
C5RA C 0.3389(19) 0.4657(15) 0.5495(11) 0.0790 Uiso
C5SA C 0.3389(19) 0.5343(15) 0.4505(11) 0.0790 Uiso
C5X C 0.3389(19) 0.4505(11) 0.5343(15) 0.0790 Uiso
C5CA C 0.3389(19) 0.5495(11) 0.4657(15) 0.0790 Uiso
C5T C 0.3389(19) -0.0343(15) 0.0495(11) 0.0790 Uiso
C5E C 0.3389(19) 0.0495(11) -0.0343(15) 0.0790 Uiso
C5U C 0.3389(19) 0.0343(15) -0.0495(11) 0.0790 Uiso
C6G C -0.0609(10) -0.0029(14) 0.3390(14) 0.0480 Uiso
C6W C 0.0609(10) 0.0029(14) 0.3390(14) 0.0480 Uiso
C6K C 0.0029(14) 0.0609(10) 0.3390(14) 0.0480 Uiso
C6L C -0.0029(14) -0.0609(10) 0.3390(14) 0.0480 Uiso
C6C C -0.0029(14) 0.3390(14) -0.0609(10) 0.0480 Uiso
C6S C 0.0029(14) 0.3390(14) 0.0609(10) 0.0480 Uiso
C6J C 0.0609(10) 0.3390(14) 0.0029(14) 0.0480 Uiso
C6P C -0.0609(10) 0.3390(14) -0.0029(14) 0.0480 Uiso
C6BB C 0.1610(14) -0.0609(10) 0.5029(14) 0.0480 Uiso
C6ZA C 0.1610(14) 0.0609(10) 0.4971(14) 0.0480 Uiso
C6DB C 0.1610(14) 0.0029(14) 0.4391(10) 0.0480 Uiso
C6XA C 0.1610(14) -0.0029(14) 0.5609(10) 0.0480 Uiso
C6EB C 0.5609(10) -0.0029(14) 0.1610(14) 0.0480 Uiso
C6RB C 0.4391(10) 0.0029(14) 0.1610(14) 0.0480 Uiso
C6JB C 0.4971(14) 0.0609(10) 0.1610(14) 0.0480 Uiso
C6MB C 0.5029(14) -0.0609(10) 0.1610(14) 0.0480 Uiso
C6GC C 0.5609(10) 0.1610(14) -0.0029(14) 0.0480 Uiso
C6IC C 0.4391(10) 0.1610(14) 0.0029(14) 0.0480 Uiso
C6LC C 0.4971(14) 0.1610(14) 0.0609(10) 0.0480 Uiso
C6UB C 0.5029(14) 0.1610(14) -0.0609(10) 0.0480 Uiso
C6SA C 0.3390(14) 0.5609(10) 0.5029(14) 0.0480 Uiso
C6RA C 0.3390(14) 0.4391(10) 0.4971(14) 0.0480 Uiso
C6CA C 0.3390(14) 0.4971(14) 0.4391(10) 0.0480 Uiso
C6X C 0.3390(14) 0.5029(14) 0.5609(10) 0.0480 Uiso
C6U C 0.3390(14) 0.0609(10) 0.0029(14) 0.0480 Uiso
C6E C 0.3390(14) -0.0029(14) -0.0609(10) 0.0480 Uiso
C6T C 0.3390(14) -0.0609(10) -0.0029(14) 0.0480 Uiso
C7T C 0.3433(16) -0.0195(13) -0.0443(11) 0.0400 Uiso
C8W C -0.0327(10) 0.0175(16) 0.3460(14) 0.0780 Uiso
C8L C -0.0175(16) 0.0327(10) 0.3460(14) 0.0780 Uiso
C8G C 0.0327(10) -0.0175(16) 0.3460(14) 0.0780 Uiso
C8K C 0.0175(16) -0.0327(10) 0.3460(14) 0.0780 Uiso
C8S C 0.0175(16) 0.3460(14) -0.0327(10) 0.0780 Uiso
C8P C 0.0327(10) 0.3460(14) -0.0175(16) 0.0780 Uiso
C8C C -0.0175(16) 0.3460(14) 0.0327(10) 0.0780 Uiso
C8J C -0.0327(10) 0.3460(14) 0.0175(16) 0.0780 Uiso
C8ZA C 0.1540(14) -0.0327(10) 0.4825(16) 0.0780 Uiso
C8XA C 0.1540(14) -0.0175(16) 0.4673(10) 0.0780 Uiso
C8BB C 0.1540(14) 0.0327(10) 0.5175(16) 0.0780 Uiso
C8DB C 0.1540(14) 0.0175(16) 0.5327(10) 0.0780 Uiso
C8RB C 0.5327(10) 0.0175(16) 0.1540(14) 0.0780 Uiso
C8MB C 0.5175(16) 0.0327(10) 0.1540(14) 0.0780 Uiso
C8EB C 0.4673(10) -0.0175(16) 0.1540(14) 0.0780 Uiso
C8JB C 0.4825(16) -0.0327(10) 0.1540(14) 0.0780 Uiso
C8IC C 0.5327(10) 0.1540(14) 0.0175(16) 0.0780 Uiso
C8UB C 0.5175(16) 0.1540(14) 0.0327(10) 0.0780 Uiso
C8GC C 0.4673(10) 0.1540(14) -0.0175(16) 0.0780 Uiso
C8LC C 0.4825(16) 0.1540(14) -0.0327(10) 0.0780 Uiso
C8RA C 0.3460(14) 0.5327(10) 0.4825(16) 0.0780 Uiso
C8X C 0.3460(14) 0.5175(16) 0.4673(10) 0.0780 Uiso
C8SA C 0.3460(14) 0.4673(10) 0.5175(16) 0.0780 Uiso
C8CA C 0.3460(14) 0.4825(16) 0.5327(10) 0.0780 Uiso
C8T C 0.3460(14) 0.0327(10) -0.0175(16) 0.0780 Uiso
C8U C 0.3460(14) -0.0327(10) 0.0175(16) 0.0780 Uiso
C8E C 0.3460(14) -0.0175(16) 0.0327(10) 0.0780 Uiso
loop_
_atom_site_aniso_label
_atom_site_aniso_U_11
_atom_site_aniso_U_22
_atom_site_aniso_U_33
_atom_site_aniso_U_23
_atom_site_aniso_U_13
_atom_site_aniso_U_12
Co1 0.0175(4) 0.0175(4) 0.0159(6) -0.0025(3) -0.0025(3) -0.0021(4)
Fe1 0.0548(19) 0.0527(12) 0.0527(12) -0.0260(15) 0.000 0.000
P1 0.0156(7) 0.0156(7) 0.0156(7) 0.0005(8) -0.0005(8) 0.0005(8)
F1 0.0222(17) 0.0222(17) 0.0222(17) 0.008(2) 0.008(2) 0.008(2)
O1 0.077(4) 0.023(2) 0.027(2) -0.0149(19) 0.008(2) -0.009(2)
O2 0.029(3) 0.029(3) 0.014(4) 0.000 0.000 0.001(4)
O3 0.0179(16) 0.0179(16) 0.023(3) -0.0017(16) 0.0017(16) -0.002(2)
O4 0.018(2) 0.018(2) 0.018(2) 0.007(2) -0.007(2) 0.007(2)
C1 0.077(8) 0.024(3) 0.024(3) -0.012(4) 0.003(3) 0.003(3)
C2 0.144(9) 0.024(4) 0.027(4) -0.004(3) 0.011(5) 0.006(5)
C3 0.044(6) 0.023(3) 0.023(3) -0.011(3) -0.001(3) -0.001(3)
Co1VB 0.0175 0.0175 0.0159 0.0025 0.0025 -0.0021
Co1ZB 0.0175 0.0159 0.0175 0.0025 0.0021 -0.0025
Co1OA 0.0175 0.0159 0.0175 -0.0025 0.0021 0.0025
Co1GA 0.0159 0.0175 0.0175 -0.0021 0.0025 0.0025
Co1J 0.0159 0.0175 0.0175 -0.0021 -0.0025 -0.0025
Co1K 0.0175 0.0159 0.0175 -0.0025 -0.0021 -0.0025
Co1ZA 0.0175 0.0159 0.0175 0.0025 -0.0021 0.0025
Co1YA 0.0175 0.0175 0.0159 0.0025 -0.0025 0.0021
Co1Y 0.0175 0.0175 0.0159 -0.0025 0.0025 0.0021
Co1LB 0.0159 0.0175 0.0175 0.0021 -0.0025 0.0025
Co1AC 0.0159 0.0175 0.0175 0.0021 0.0025 -0.0025
Fe1G 0.0527 0.0527 0.0548 0 0 -0.026
Fe1C 0.0527 0.0548 0.0527 0 -0.026 0
Fe1XA 0.0548 0.0527 0.0527 0.026 0 0
Fe1EB 0.0527 0.0527 0.0548 0 0 0.026
Fe1UB 0.0527 0.0548 0.0527 0 0.026 0
Fe1X 0.0548 0.0527 0.0527 -0.026 0 0
P1Y 0.0156 0.0156 0.0156 -0.0005 -0.0005 -0.0005
P1J 0.0156 0.0156 0.0156 0.0005 0.0005 -0.0005
P1K 0.0156 0.0156 0.0156 -0.0005 0.0005 0.0005
F1VB 0.0222 0.0222 0.0222 -0.008 -0.008 0.008
F1Y 0.0222 0.0222 0.0222 0.008 -0.008 -0.008
F1YA 0.0222 0.0222 0.0222 -0.008 0.008 -0.008
O1U 0.077 0.027 0.023 -0.0149 -0.009 0.008
O1Y 0.023 0.077 0.027 0.008 0.0149 0.009
O1KA 0.027 0.077 0.023 -0.009 0.0149 -0.008
O1GA 0.027 0.023 0.077 -0.009 -0.008 0.0149
O1OA 0.023 0.027 0.077 0.008 0.009 0.0149
O1RA 0.077 0.027 0.023 -0.0149 0.009 -0.008
O1CA 0.077 0.023 0.027 -0.0149 -0.008 0.009
O1YA 0.023 0.077 0.027 -0.008 -0.0149 0.009
O1LB 0.027 0.077 0.023 0.009 -0.0149 -0.008
O1IC 0.027 0.077 0.023 0.009 0.0149 0.008
O1LC 0.023 0.077 0.027 -0.008 0.0149 -0.009
O1VB 0.077 0.023 0.027 0.0149 -0.008 -0.009
O1ZB 0.077 0.027 0.023 0.0149 0.009 0.008
O1FC 0.023 0.027 0.077 -0.008 0.009 -0.0149
O1AC 0.027 0.023 0.077 0.009 -0.008 -0.0149
O1RB 0.027 0.023 0.077 0.009 0.008 0.0149
O1JB 0.023 0.027 0.077 -0.008 -0.009 0.0149
O1ZA 0.077 0.027 0.023 0.0149 -0.009 -0.008
O1DB 0.077 0.023 0.027 0.0149 0.008 0.009
O1S 0.023 0.077 0.027 0.008 -0.0149 -0.009
O1J 0.027 0.077 0.023 -0.009 -0.0149 0.008
O1W 0.027 0.023 0.077 -0.009 0.008 -0.0149
O1K 0.023 0.027 0.077 0.008 -0.009 -0.0149
O1G 0.027 0.023 0.077 0.009 -0.008 -0.0149
O1L 0.023 0.027 0.077 -0.008 0.009 -0.0149
O1C 0.023 0.077 0.027 -0.008 -0.0149 0.009
O1P 0.027 0.077 0.023 0.009 -0.0149 -0.008
O1BB 0.077 0.027 0.023 0.0149 0.009 0.008
O1XA 0.077 0.023 0.027 0.0149 -0.008 -0.009
O1EB 0.027 0.023 0.077 -0.009 -0.008 0.0149
O1MB 0.023 0.027 0.077 0.008 0.009 0.0149
O1GC 0.027 0.077 0.023 -0.009 0.0149 -0.008
O1UB 0.023 0.077 0.027 0.008 0.0149 0.009
O1SA 0.077 0.027 0.023 -0.0149 -0.009 0.008
O1X 0.077 0.023 0.027 -0.0149 0.008 -0.009
O2Y 0.029 0.029 0.014 0 0 -0.001
O2LB 0.014 0.029 0.029 -0.001 0 0
O2OA 0.029 0.014 0.029 0 -0.001 0
O2K 0.029 0.014 0.029 0 0.001 0
O2J 0.014 0.029 0.029 0.001 0 0
O3CA 0.0179 0.0179 0.023 -0.0017 -0.0017 0.002
O3Y 0.0179 0.0179 0.023 0.0017 0.0017 0.002
O3OA 0.0179 0.023 0.0179 0.0017 0.002 0.0017
O3RA 0.0179 0.023 0.0179 -0.0017 0.002 -0.0017
O3K 0.0179 0.023 0.0179 0.0017 -0.002 -0.0017
O3U 0.0179 0.023 0.0179 -0.0017 -0.002 0.0017
O3J 0.023 0.0179 0.0179 -0.002 -0.0017 0.0017
O3W 0.023 0.0179 0.0179 -0.002 0.0017 -0.0017
O3LB 0.023 0.0179 0.0179 0.002 -0.0017 -0.0017
O3RB 0.023 0.0179 0.0179 0.002 0.0017 0.0017
O3S 0.0179 0.0179 0.023 0.0017 -0.0017 -0.002
O4J 0.018 0.018 0.018 0.007 0.007 -0.007
O4Y 0.018 0.018 0.018 -0.007 -0.007 -0.007
O4K 0.018 0.018 0.018 -0.007 0.007 0.007
C1K 0.024 0.024 0.077 0.003 0.003 -0.012
C1G 0.024 0.024 0.077 -0.003 -0.003 -0.012
C1J 0.024 0.077 0.024 0.003 -0.012 0.003
C1C 0.024 0.077 0.024 -0.003 -0.012 -0.003
C1ZA 0.077 0.024 0.024 0.012 0.003 -0.003
C1XA 0.077 0.024 0.024 0.012 -0.003 0.003
C1JB 0.024 0.024 0.077 -0.003 0.003 0.012
C1EB 0.024 0.024 0.077 0.003 -0.003 0.012
C1AC 0.024 0.024 0.077 -0.003 -0.003 -0.012
C1VB 0.077 0.024 0.024 0.012 -0.003 0.003
C1IC 0.024 0.077 0.024 -0.003 0.012 0.003
C1UB 0.024 0.077 0.024 0.003 0.012 -0.003
C1YA 0.024 0.077 0.024 -0.003 -0.012 -0.003
C1CA 0.077 0.024 0.024 -0.012 -0.003 -0.003
C1X 0.077 0.024 0.024 -0.012 0.003 0.003
C1GA 0.024 0.024 0.077 0.003 -0.003 0.012
C1Y 0.024 0.077 0.024 0.003 0.012 -0.003
C1E 0.077 0.024 0.024 -0.012 -0.003 -0.003
C2G 0.027 0.024 0.144 -0.006 -0.011 -0.004
C2W 0.027 0.024 0.144 0.006 0.011 -0.004
C2K 0.024 0.027 0.144 0.011 0.006 -0.004
C2L 0.024 0.027 0.144 -0.011 -0.006 -0.004
C2C 0.024 0.144 0.027 -0.011 -0.004 -0.006
C2S 0.024 0.144 0.027 0.011 -0.004 0.006
C2J 0.027 0.144 0.024 0.006 -0.004 0.011
C2P 0.027 0.144 0.024 -0.006 -0.004 -0.011
C2BB 0.144 0.027 0.024 0.004 -0.006 0.011
C2ZA 0.144 0.027 0.024 0.004 0.006 -0.011
C2DB 0.144 0.024 0.027 0.004 0.011 -0.006
C2XA 0.144 0.024 0.027 0.004 -0.011 0.006
C2EB 0.027 0.024 0.144 0.006 -0.011 0.004
C2RB 0.027 0.024 0.144 -0.006 0.011 0.004
C2JB 0.024 0.027 0.144 -0.011 0.006 0.004
C2MB 0.024 0.027 0.144 0.011 -0.006 0.004
C2GC 0.027 0.144 0.024 0.006 0.004 -0.011
C2IC 0.027 0.144 0.024 -0.006 0.004 0.011
C2LC 0.024 0.144 0.027 -0.011 0.004 0.006
C2UB 0.024 0.144 0.027 0.011 0.004 -0.006
C2SA 0.144 0.027 0.024 -0.004 0.006 0.011
C2RA 0.144 0.027 0.024 -0.004 -0.006 -0.011
C2CA 0.144 0.024 0.027 -0.004 -0.011 -0.006
C2X 0.144 0.024 0.027 -0.004 0.011 0.006
C2E 0.144 0.024 0.027 -0.004 -0.011 -0.006
C2T 0.144 0.027 0.024 -0.004 -0.006 -0.011
C2U 0.144 0.027 0.024 -0.004 0.006 0.011
C3Y 0.023 0.044 0.023 -0.001 0.011 0.001
C3GA 0.023 0.023 0.044 -0.001 0.001 0.011
C3CA 0.044 0.023 0.023 -0.011 0.001 0.001
C3YA 0.023 0.044 0.023 0.001 -0.011 0.001
C3IC 0.023 0.044 0.023 0.001 0.011 -0.001
C3VB 0.044 0.023 0.023 0.011 0.001 -0.001
C3AC 0.023 0.023 0.044 0.001 0.001 -0.011
C3JB 0.023 0.023 0.044 0.001 -0.001 0.011
C3ZA 0.044 0.023 0.023 0.011 -0.001 0.001
C3J 0.023 0.044 0.023 -0.001 -0.011 -0.001
C3K 0.023 0.023 0.044 -0.001 -0.001 -0.011
C3G 0.023 0.023 0.044 0.001 0.001 -0.011
C3C 0.023 0.044 0.023 0.001 -0.011 0.001
C3XA 0.044 0.023 0.023 0.011 0.001 -0.001
C3EB 0.023 0.023 0.044 -0.001 0.001 0.011
C3UB 0.023 0.044 0.023 -0.001 0.011 0.001
C3X 0.044 0.023 0.023 -0.011 -0.001 -0.001
C3E 0.044 0.023 0.023 -0.011 0.001 0.001
loop_
_geom_bond_atom_site_label_1
_geom_bond_atom_site_label_2
_geom_bond_site_symmetry_1
_geom_bond_site_symmetry_2
Co1 F1 1_555 1_555
Fe1 C1 1_555 1_555
P1 O3 1_555 1_555
F1 Co1J 1_555 1_555
O1 Co1 1_555 1_555
O2 Co1 1_555 1_555
O3 Co1 1_555 1_555
O4 P1 1_555 1_555
C1 C2 1_555 1_555
C2 Fe1 1_555 1_555
H1 C2 1_555 1_555
C3 O1 1_555 1_555
C4 Fe1 1_555 1_555
C5 Fe1 1_555 1_555
C6 Fe1 1_555 1_555
C7 Fe1 1_555 1_555
C8 Fe1 1_555 1_555
Co1VB Co1 1_555 1_555
Co1ZB Co1OA 1_555 1_555
Co1OA F1Y 1_555 1_555
Co1GA Co1J 1_555 1_555
Co1J O1J 1_555 1_555
Co1K F1 1_555 1_555
Co1ZA Co1K 1_555 1_555
Co1YA Co1Y 1_555 1_555
Co1Y F1Y 1_555 1_555
Co1LB Co1AC 1_555 1_555
Co1AC F1VB 1_555 1_555
Fe1G C1K 1_555 1_555
Fe1C C1J 1_555 1_555
Fe1XA C1ZA 1_555 1_555
Fe1EB C1JB 1_555 1_555
Fe1UB C1IC 1_555 1_555
Fe1X C1CA 1_555 1_555
P1Y O3Y 1_555 1_555
P1J O3CA 1_555 1_555
P1K O3K 1_555 1_555
F1VB Co1VB 1_555 1_555
F1Y Co1GA 1_555 1_555
F1YA Co1ZA 1_555 1_555
O1U C3 1_555 1_555
O1Y Co1Y 1_555 1_555
O1KA Co1GA 1_555 1_555
O1GA Co1GA 1_555 1_555
O1OA Co1OA 1_555 1_555
O1RA Co1OA 1_555 1_555
O1CA Co1Y 1_555 1_555
O1YA Co1YA 1_555 1_555
O1LB Co1LB 1_555 1_555
O1IC Co1AC 1_555 1_555
O1LC Co1VB 1_555 1_555
O1VB Co1VB 1_555 1_555
O1ZB Co1ZB 1_555 1_555
O1FC Co1ZB 1_555 1_555
O1AC Co1AC 1_555 1_555
O1RB Co1LB 1_555 1_555
O1JB Co1ZA 1_555 1_555
O1ZA Co1ZA 1_555 1_555
O1DB Co1YA 1_555 1_555
O1S Co1 1_555 1_555
O1J C3J 1_555 1_555
O1W Co1J 1_555 1_555
O1K Co1K 1_555 1_555
O1G C3G 1_555 1_555
O1L C3G 1_555 1_555
O1C C3C 1_555 1_555
O1P C3C 1_555 1_555
O1BB C3XA 1_555 1_555
O1XA C3XA 1_555 1_555
O1EB C3EB 1_555 1_555
O1MB C3EB 1_555 1_555
O1GC C3UB 1_555 1_555
O1UB C3UB 1_555 1_555
O1SA C3X 1_555 1_555
O1X C3X 1_555 1_555
O2Y Co1YA 1_555 1_555
O2LB Co1LB 1_555 1_555
O2OA Co1ZB 1_555 1_555
O2K Co1K 1_555 1_555
O2J Co1GA 1_555 1_555
O3CA Co1YA 1_555 1_555
O3Y Co1YA 1_555 1_555
O3OA Co1ZB 1_555 1_555
O3RA P1 1_555 1_555
O3K Co1K 1_555 1_555
O3U Co1K 1_555 1_555
O3J Co1GA 1_555 1_555
O3W P1 1_555 1_555
O3LB Co1LB 1_555 1_555
O3RB Co1LB 1_555 1_555
O3S Co1 1_555 1_555
O4J P1J 1_555 1_555
O4Y P1Y 1_555 1_555
O4K P1K 1_555 1_555
C1K C2W 1_555 1_555
C1G Fe1G 1_555 1_555
C1J C2S 1_555 1_555
C1C Fe1C 1_555 1_555
C1ZA C2ZA 1_555 1_555
C1XA Fe1XA 1_555 1_555
C1JB C2RB 1_555 1_555
C1EB Fe1EB 1_555 1_555
C1AC C3AC 1_555 1_555
C1VB C3VB 1_555 1_555
C1IC C2IC 1_555 1_555
C1UB Fe1UB 1_555 1_555
C1YA C3YA 1_555 1_555
C1CA C2RA 1_555 1_555
C1X Fe1X 1_555 1_555
C1GA C3GA 1_555 1_555
C1Y C3Y 1_555 1_555
C1E Fe1 1_555 1_555
C2G Fe1G 1_555 1_555
C2W Fe1G 1_555 1_555
C2K Fe1G 1_555 1_555
C2L Fe1G 1_555 1_555
C2C Fe1C 1_555 1_555
C2S Fe1C 1_555 1_555
C2J Fe1C 1_555 1_555
C2P Fe1C 1_555 1_555
C2BB Fe1XA 1_555 1_555
C2ZA Fe1XA 1_555 1_555
C2DB Fe1XA 1_555 1_555
C2XA Fe1XA 1_555 1_555
C2EB Fe1EB 1_555 1_555
C2RB Fe1EB 1_555 1_555
C2JB Fe1EB 1_555 1_555
C2MB Fe1EB 1_555 1_555
C2GC Fe1UB 1_555 1_555
C2IC Fe1UB 1_555 1_555
C2LC Fe1UB 1_555 1_555
C2UB Fe1UB 1_555 1_555
C2SA Fe1X 1_555 1_555
C2RA Fe1X 1_555 1_555
C2CA Fe1X 1_555 1_555
C2X Fe1X 1_555 1_555
C2E Fe1 1_555 1_555
C2T Fe1 1_555 1_555
C2U Fe1 1_555 1_555
H1W C2W 1_555 1_555
H1L C2L 1_555 1_555
H1G C2G 1_555 1_555
H1K C2K 1_555 1_555
H1S C2S 1_555 1_555
H1P C2P 1_555 1_555
H1C C2C 1_555 1_555
H1J C2J 1_555 1_555
H1ZA C2ZA 1_555 1_555
H1XA C2XA 1_555 1_555
H1BB C2BB 1_555 1_555
H1DB C2DB 1_555 1_555
H1RB C2RB 1_555 1_555
H1MB C2MB 1_555 1_555
H1EB C2EB 1_555 1_555
H1JB C2JB 1_555 1_555
H1IC C2IC 1_555 1_555
H1UB C2UB 1_555 1_555
H1GC C2GC 1_555 1_555
H1LC C2LC 1_555 1_555
H1RA C2RA 1_555 1_555
H1X C2X 1_555 1_555
H1SA C2SA 1_555 1_555
H1CA C2CA 1_555 1_555
H1E C2E 1_555 1_555
H1T C2T 1_555 1_555
H1U C2U 1_555 1_555
C3Y O1Y 1_555 1_555
C3GA O1GA 1_555 1_555
C3CA O1RA 1_555 1_555
C3YA O1YA 1_555 1_555
C3IC O1IC 1_555 1_555
C3VB O1VB 1_555 1_555
C3AC O1FC 1_555 1_555
C3JB O1RB 1_555 1_555
C3ZA O1ZA 1_555 1_555
C3J O1S 1_555 1_555
C3K O1W 1_555 1_555
C3G C1G 1_555 1_555
C3C C1C 1_555 1_555
C3XA C1XA 1_555 1_555
C3EB C1EB 1_555 1_555
C3UB C1UB 1_555 1_555
C3X C1X 1_555 1_555
C3E C1E 1_555 1_555
C4W Fe1G 1_555 1_555
C4K Fe1G 1_555 1_555
C4G Fe1G 1_555 1_555
C4L Fe1G 1_555 1_555
C4S Fe1C 1_555 1_555
C4J Fe1C 1_555 1_555
C4C Fe1C 1_555 1_555
C4P Fe1C 1_555 1_555
C4ZA Fe1XA 1_555 1_555
C4DB Fe1XA 1_555 1_555
C4BB Fe1XA 1_555 1_555
C4XA Fe1XA 1_555 1_555
C4RB Fe1EB 1_555 1_555
C4JB Fe1EB 1_555 1_555
C4EB Fe1EB 1_555 1_555
C4MB Fe1EB 1_555 1_555
C4IC Fe1UB 1_555 1_555
C4LC Fe1UB 1_555 1_555
C4GC Fe1UB 1_555 1_555
C4UB Fe1UB 1_555 1_555
C4RA Fe1X 1_555 1_555
C4CA Fe1X 1_555 1_555
C4SA Fe1X 1_555 1_555
C4X Fe1X 1_555 1_555
C4T Fe1 1_555 1_555
C5W Fe1G 1_555 1_555
C5G Fe1G 1_555 1_555
C5L Fe1G 1_555 1_555
C5K Fe1G 1_555 1_555
C5S Fe1C 1_555 1_555
C5C Fe1C 1_555 1_555
C5P Fe1C 1_555 1_555
C5J Fe1C 1_555 1_555
C5ZA Fe1XA 1_555 1_555
C5BB Fe1XA 1_555 1_555
C5XA Fe1XA 1_555 1_555
C5DB Fe1XA 1_555 1_555
C5RB Fe1EB 1_555 1_555
C5EB Fe1EB 1_555 1_555
C5MB Fe1EB 1_555 1_555
C5JB Fe1EB 1_555 1_555
C5IC Fe1UB 1_555 1_555
C5GC Fe1UB 1_555 1_555
C5UB Fe1UB 1_555 1_555
C5LC Fe1UB 1_555 1_555
C5RA Fe1X 1_555 1_555
C5SA Fe1X 1_555 1_555
C5X Fe1X 1_555 1_555
C5CA Fe1X 1_555 1_555
C5T Fe1 1_555 1_555
C5E Fe1 1_555 1_555
C5U Fe1 1_555 1_555
C6G Fe1G 1_555 1_555
C6W Fe1G 1_555 1_555
C6K Fe1G 1_555 1_555
C6L Fe1G 1_555 1_555
C6C Fe1C 1_555 1_555
C6S Fe1C 1_555 1_555
C6J Fe1C 1_555 1_555
C6P Fe1C 1_555 1_555
C6BB Fe1XA 1_555 1_555
C6ZA Fe1XA 1_555 1_555
C6DB Fe1XA 1_555 1_555
C6XA Fe1XA 1_555 1_555
C6EB Fe1EB 1_555 1_555
C6RB Fe1EB 1_555 1_555
C6JB Fe1EB 1_555 1_555
C6MB Fe1EB 1_555 1_555
C6GC Fe1UB 1_555 1_555
C6IC Fe1UB 1_555 1_555
C6LC Fe1UB 1_555 1_555
C6UB Fe1UB 1_555 1_555
C6SA Fe1X 1_555 1_555
C6RA Fe1X 1_555 1_555
C6CA Fe1X 1_555 1_555
C6X Fe1X 1_555 1_555
C6U Fe1 1_555 1_555
C6E Fe1 1_555 1_555
C6T Fe1 1_555 1_555
C7T Fe1 1_555 1_555
C8W Fe1G 1_555 1_555
C8L Fe1G 1_555 1_555
C8G Fe1G 1_555 1_555
C8K Fe1G 1_555 1_555
C8S Fe1C 1_555 1_555
C8P Fe1C 1_555 1_555
C8C Fe1C 1_555 1_555
C8J Fe1C 1_555 1_555
C8ZA Fe1XA 1_555 1_555
C8XA Fe1XA 1_555 1_555
C8BB Fe1XA 1_555 1_555
C8DB Fe1XA 1_555 1_555
C8RB Fe1EB 1_555 1_555
C8MB Fe1EB 1_555 1_555
C8EB Fe1EB 1_555 1_555
C8JB Fe1EB 1_555 1_555
C8IC Fe1UB 1_555 1_555
C8UB Fe1UB 1_555 1_555
C8GC Fe1UB 1_555 1_555
C8LC Fe1UB 1_555 1_555
C8RA Fe1X 1_555 1_555
C8X Fe1X 1_555 1_555
C8SA Fe1X 1_555 1_555
C8CA Fe1X 1_555 1_555
C8T Fe1 1_555 1_555
C8U Fe1 1_555 1_555
C8E Fe1 1_555 1_555
O2 Co1VB 1_555 1_555
O3 Co1VB 1_555 1_555
C1 C3 1_555 1_555
C1 C2U 1_555 1_555
C2 C2T 1_555 1_555
C4 C5 1_555 1_555
C4 C8 1_555 1_555
C4 C5T 1_555 1_555
C4 C6E 1_555 1_555
C4 C6T 1_555 1_555
C4 C7T 1_555 1_555
C4 C8U 1_555 1_555
C4 C8E 1_555 1_555
C5 C6 1_555 1_555
C5 C4T 1_555 1_555
C5 C5T 1_555 1_555
C5 C6T 1_555 1_555
C5 C8U 1_555 1_555
C5 C8E 1_555 1_555
C6 C7 1_555 1_555
C6 C4T 1_555 1_555
C6 C5T 1_555 1_555
C6 C8U 1_555 1_555
C6 C8E 1_555 1_555
C7 C8 1_555 1_555
C7 C4T 1_555 1_555
C7 C5E 1_555 1_555
C7 C5U 1_555 1_555
C7 C6U 1_555 1_555
C7 C8T 1_555 1_555
C7 C8E 1_555 1_555
C8 C5E 1_555 1_555
C8 C5U 1_555 1_555
C8 C6U 1_555 1_555
C8 C6E 1_555 1_555
C8 C7T 1_555 1_555
C8 C8T 1_555 1_555
C8 C8U 1_555 1_555
Co1VB O3S 1_555 1_555
Co1ZB F1VB 1_555 1_555
Co1ZB O3RA 1_555 1_555
Co1OA O2OA 1_555 1_555
Co1OA O3OA 1_555 1_555
Co1OA O3RA 1_555 1_555
Co1GA O3W 1_555 1_555
Co1J O2J 1_555 1_555
Co1J O3J 1_555 1_555
Co1J O3W 1_555 1_555
Co1K O1U 1_555 1_555
Co1ZA O2K 1_555 1_555
Co1ZA O3K 1_555 1_555
Co1ZA O3U 1_555 1_555
Co1YA F1YA 1_555 1_555
Co1Y O2Y 1_555 1_555
Co1Y O3CA 1_555 1_555
Co1Y O3Y 1_555 1_555
Co1LB F1YA 1_555 1_555
Co1AC O2LB 1_555 1_555
Co1AC O3LB 1_555 1_555
Co1AC O3RB 1_555 1_555
P1Y O3OA 1_555 1_555
P1Y O3RB 1_555 1_555
P1J O3U 1_555 1_555
P1J O3J 1_555 1_555
P1K O3LB 1_555 1_555
P1K O3S 1_555 1_555
O1KA C3Y 1_555 1_555
O1OA C3GA 1_555 1_555
O1CA C3CA 1_555 1_555
O1LB C3YA 1_555 1_555
O1LC C3IC 1_555 1_555
O1ZB C3VB 1_555 1_555
O1AC C3AC 1_555 1_555
O1JB C3JB 1_555 1_555
O1DB C3ZA 1_555 1_555
O1K C3K 1_555 1_555
C1K C2K 1_555 1_555
C1K C3K 1_555 1_555
C1G C2G 1_555 1_555
C1G C2L 1_555 1_555
C1J C2J 1_555 1_555
C1J C3J 1_555 1_555
C1C C2C 1_555 1_555
C1C C2P 1_555 1_555
C1ZA C2DB 1_555 1_555
C1ZA C3ZA 1_555 1_555
C1XA C2BB 1_555 1_555
C1XA C2XA 1_555 1_555
C1JB C2JB 1_555 1_555
C1JB C3JB 1_555 1_555
C1EB C2EB 1_555 1_555
C1EB C2MB 1_555 1_555
C1IC C2LC 1_555 1_555
C1IC C3IC 1_555 1_555
C1UB C2GC 1_555 1_555
C1UB C2UB 1_555 1_555
C1CA C2CA 1_555 1_555
C1CA C3CA 1_555 1_555
C1X C2SA 1_555 1_555
C1X C2X 1_555 1_555
C1E C2E 1_555 1_555
C1E C2T 1_555 1_555
C2G C2K 1_555 1_555
C2W C2L 1_555 1_555
C2C C2J 1_555 1_555
C2S C2P 1_555 1_555
C2BB C2DB 1_555 1_555
C2ZA C2XA 1_555 1_555
C2EB C2JB 1_555 1_555
C2RB C2MB 1_555 1_555
C2GC C2LC 1_555 1_555
C2IC C2UB 1_555 1_555
C2SA C2CA 1_555 1_555
C2RA C2X 1_555 1_555
C2E C2U 1_555 1_555
C4W C4K 1_555 1_555
C4W C5W 1_555 1_555
C4W C5L 1_555 1_555
C4W C6G 1_555 1_555
C4W C6L 1_555 1_555
C4W C8W 1_555 1_555
C4W C8G 1_555 1_555
C4W C8K 1_555 1_555
C4K C5G 1_555 1_555
C4K C5K 1_555 1_555
C4K C6G 1_555 1_555
C4K C6L 1_555 1_555
C4K C8W 1_555 1_555
C4K C8L 1_555 1_555
C4K C8K 1_555 1_555
C4G C4L 1_555 1_555
C4G C5G 1_555 1_555
C4G C5K 1_555 1_555
C4G C6W 1_555 1_555
C4G C6K 1_555 1_555
C4G C8W 1_555 1_555
C4G C8L 1_555 1_555
C4G C8G 1_555 1_555
C4L C5W 1_555 1_555
C4L C5L 1_555 1_555
C4L C6W 1_555 1_555
C4L C6K 1_555 1_555
C4L C8L 1_555 1_555
C4L C8G 1_555 1_555
C4L C8K 1_555 1_555
C4S C4J 1_555 1_555
C4S C5S 1_555 1_555
C4S C5P 1_555 1_555
C4S C6C 1_555 1_555
C4S C6P 1_555 1_555
C4S C8S 1_555 1_555
C4S C8C 1_555 1_555
C4S C8J 1_555 1_555
C4J C5C 1_555 1_555
C4J C5J 1_555 1_555
C4J C6C 1_555 1_555
C4J C6P 1_555 1_555
C4J C8S 1_555 1_555
C4J C8P 1_555 1_555
C4J C8J 1_555 1_555
C4C C4P 1_555 1_555
C4C C5C 1_555 1_555
C4C C5J 1_555 1_555
C4C C6S 1_555 1_555
C4C C6J 1_555 1_555
C4C C8S 1_555 1_555
C4C C8P 1_555 1_555
C4C C8C 1_555 1_555
C4P C5S 1_555 1_555
C4P C5P 1_555 1_555
C4P C6S 1_555 1_555
C4P C6J 1_555 1_555
C4P C8P 1_555 1_555
C4P C8C 1_555 1_555
C4P C8J 1_555 1_555
C4ZA C4DB 1_555 1_555
C4ZA C5ZA 1_555 1_555
C4ZA C5XA 1_555 1_555
C4ZA C6BB 1_555 1_555
C4ZA C6XA 1_555 1_555
C4ZA C8ZA 1_555 1_555
C4ZA C8BB 1_555 1_555
C4ZA C8DB 1_555 1_555
C4DB C5BB 1_555 1_555
C4DB C5DB 1_555 1_555
C4DB C6BB 1_555 1_555
C4DB C6XA 1_555 1_555
C4DB C8ZA 1_555 1_555
C4DB C8XA 1_555 1_555
C4DB C8DB 1_555 1_555
C4BB C4XA 1_555 1_555
C4BB C5BB 1_555 1_555
C4BB C5DB 1_555 1_555
C4BB C6ZA 1_555 1_555
C4BB C6DB 1_555 1_555
C4BB C8ZA 1_555 1_555
C4BB C8XA 1_555 1_555
C4BB C8BB 1_555 1_555
C4XA C5ZA 1_555 1_555
C4XA C5XA 1_555 1_555
C4XA C6ZA 1_555 1_555
C4XA C6DB 1_555 1_555
C4XA C8XA 1_555 1_555
C4XA C8BB 1_555 1_555
C4XA C8DB 1_555 1_555
C4RB C4JB 1_555 1_555
C4RB C5RB 1_555 1_555
C4RB C5MB 1_555 1_555
C4RB C6EB 1_555 1_555
C4RB C6MB 1_555 1_555
C4RB C8RB 1_555 1_555
C4RB C8EB 1_555 1_555
C4RB C8JB 1_555 1_555
C4JB C5EB 1_555 1_555
C4JB C5JB 1_555 1_555
C4JB C6EB 1_555 1_555
C4JB C6MB 1_555 1_555
C4JB C8RB 1_555 1_555
C4JB C8MB 1_555 1_555
C4JB C8JB 1_555 1_555
C4EB C4MB 1_555 1_555
C4EB C5EB 1_555 1_555
C4EB C5JB 1_555 1_555
C4EB C6RB 1_555 1_555
C4EB C6JB 1_555 1_555
C4EB C8RB 1_555 1_555
C4EB C8MB 1_555 1_555
C4EB C8EB 1_555 1_555
C4MB C5RB 1_555 1_555
C4MB C5MB 1_555 1_555
C4MB C6RB 1_555 1_555
C4MB C6JB 1_555 1_555
C4MB C8MB 1_555 1_555
C4MB C8EB 1_555 1_555
C4MB C8JB 1_555 1_555
C4IC C4LC 1_555 1_555
C4IC C5IC 1_555 1_555
C4IC C5UB 1_555 1_555
C4IC C6GC 1_555 1_555
C4IC C6UB 1_555 1_555
C4IC C8IC 1_555 1_555
C4IC C8GC 1_555 1_555
C4IC C8LC 1_555 1_555
C4LC C5GC 1_555 1_555
C4LC C5LC 1_555 1_555
C4LC C6GC 1_555 1_555
C4LC C6UB 1_555 1_555
C4LC C8IC 1_555 1_555
C4LC C8UB 1_555 1_555
C4LC C8LC 1_555 1_555
C4GC C4UB 1_555 1_555
C4GC C5GC 1_555 1_555
C4GC C5LC 1_555 1_555
C4GC C6IC 1_555 1_555
C4GC C6LC 1_555 1_555
C4GC C8IC 1_555 1_555
C4GC C8UB 1_555 1_555
C4GC C8GC 1_555 1_555
C4UB C5IC 1_555 1_555
C4UB C5UB 1_555 1_555
C4UB C6IC 1_555 1_555
C4UB C6LC 1_555 1_555
C4UB C8UB 1_555 1_555
C4UB C8GC 1_555 1_555
C4UB C8LC 1_555 1_555
C4RA C4CA 1_555 1_555
C4RA C5RA 1_555 1_555
C4RA C5X 1_555 1_555
C4RA C6SA 1_555 1_555
C4RA C6X 1_555 1_555
C4RA C8RA 1_555 1_555
C4RA C8SA 1_555 1_555
C4RA C8CA 1_555 1_555
C4CA C5SA 1_555 1_555
C4CA C5CA 1_555 1_555
C4CA C6SA 1_555 1_555
C4CA C6X 1_555 1_555
C4CA C8RA 1_555 1_555
C4CA C8X 1_555 1_555
C4CA C8CA 1_555 1_555
C4SA C4X 1_555 1_555
C4SA C5SA 1_555 1_555
C4SA C5CA 1_555 1_555
C4SA C6RA 1_555 1_555
C4SA C6CA 1_555 1_555
C4SA C8RA 1_555 1_555
C4SA C8X 1_555 1_555
C4SA C8SA 1_555 1_555
C4X C5RA 1_555 1_555
C4X C5X 1_555 1_555
C4X C6RA 1_555 1_555
C4X C6CA 1_555 1_555
C4X C8X 1_555 1_555
C4X C8SA 1_555 1_555
C4X C8CA 1_555 1_555
C4T C5T 1_555 1_555
C4T C6U 1_555 1_555
C4T C8T 1_555 1_555
C4T C8U 1_555 1_555
C4T C8E 1_555 1_555
C5W C5L 1_555 1_555
C5W C6W 1_555 1_555
C5W C6L 1_555 1_555
C5W C8G 1_555 1_555
C5W C8K 1_555 1_555
C5G C5K 1_555 1_555
C5G C6G 1_555 1_555
C5G C6K 1_555 1_555
C5G C8W 1_555 1_555
C5G C8L 1_555 1_555
C5L C6W 1_555 1_555
C5L C6L 1_555 1_555
C5L C8G 1_555 1_555
C5L C8K 1_555 1_555
C5K C6G 1_555 1_555
C5K C6K 1_555 1_555
C5K C8W 1_555 1_555
C5K C8L 1_555 1_555
C5S C5P 1_555 1_555
C5S C6S 1_555 1_555
C5S C6P 1_555 1_555
C5S C8C 1_555 1_555
C5S C8J 1_555 1_555
C5C C5J 1_555 1_555
C5C C6C 1_555 1_555
C5C C6J 1_555 1_555
C5C C8S 1_555 1_555
C5C C8P 1_555 1_555
C5P C6S 1_555 1_555
C5P C6P 1_555 1_555
C5P C8C 1_555 1_555
C5P C8J 1_555 1_555
C5J C6C 1_555 1_555
C5J C6J 1_555 1_555
C5J C8S 1_555 1_555
C5J C8P 1_555 1_555
C5ZA C5XA 1_555 1_555
C5ZA C6ZA 1_555 1_555
C5ZA C6XA 1_555 1_555
C5ZA C8BB 1_555 1_555
C5ZA C8DB 1_555 1_555
C5BB C5DB 1_555 1_555
C5BB C6BB 1_555 1_555
C5BB C6DB 1_555 1_555
C5BB C8ZA 1_555 1_555
C5BB C8XA 1_555 1_555
C5XA C6ZA 1_555 1_555
C5XA C6XA 1_555 1_555
C5XA C8BB 1_555 1_555
C5XA C8DB 1_555 1_555
C5DB C6BB 1_555 1_555
C5DB C6DB 1_555 1_555
C5DB C8ZA 1_555 1_555
C5DB C8XA 1_555 1_555
C5RB C5MB 1_555 1_555
C5RB C6RB 1_555 1_555
C5RB C6MB 1_555 1_555
C5RB C8EB 1_555 1_555
C5RB C8JB 1_555 1_555
C5EB C5JB 1_555 1_555
C5EB C6EB 1_555 1_555
C5EB C6JB 1_555 1_555
C5EB C8RB 1_555 1_555
C5EB C8MB 1_555 1_555
C5MB C6RB 1_555 1_555
C5MB C6MB 1_555 1_555
C5MB C8EB 1_555 1_555
C5MB C8JB 1_555 1_555
C5JB C6EB 1_555 1_555
C5JB C6JB 1_555 1_555
C5JB C8RB 1_555 1_555
C5JB C8MB 1_555 1_555
C5IC C5UB 1_555 1_555
C5IC C6IC 1_555 1_555
C5IC C6UB 1_555 1_555
C5IC C8GC 1_555 1_555
C5IC C8LC 1_555 1_555
C5GC C5LC 1_555 1_555
C5GC C6GC 1_555 1_555
C5GC C6LC 1_555 1_555
C5GC C8IC 1_555 1_555
C5GC C8UB 1_555 1_555
C5UB C6IC 1_555 1_555
C5UB C6UB 1_555 1_555
C5UB C8GC 1_555 1_555
C5UB C8LC 1_555 1_555
C5LC C6GC 1_555 1_555
C5LC C6LC 1_555 1_555
C5LC C8IC 1_555 1_555
C5LC C8UB 1_555 1_555
C5RA C5X 1_555 1_555
C5RA C6RA 1_555 1_555
C5RA C6X 1_555 1_555
C5RA C8SA 1_555 1_555
C5RA C8CA 1_555 1_555
C5SA C5CA 1_555 1_555
C5SA C6SA 1_555 1_555
C5SA C6CA 1_555 1_555
C5SA C8RA 1_555 1_555
C5SA C8X 1_555 1_555
C5X C6RA 1_555 1_555
C5X C6X 1_555 1_555
C5X C8SA 1_555 1_555
C5X C8CA 1_555 1_555
C5CA C6SA 1_555 1_555
C5CA C6CA 1_555 1_555
C5CA C8RA 1_555 1_555
C5CA C8X 1_555 1_555
C5T C6T 1_555 1_555
C5T C8U 1_555 1_555
C5T C8E 1_555 1_555
C5E C5U 1_555 1_555
C5E C6U 1_555 1_555
C5E C6E 1_555 1_555
C5E C7T 1_555 1_555
C5E C8T 1_555 1_555
C5U C6U 1_555 1_555
C5U C6E 1_555 1_555
C5U C7T 1_555 1_555
C5U C8T 1_555 1_555
C6G C8W 1_555 1_555
C6G C8L 1_555 1_555
C6W C8G 1_555 1_555
C6W C8K 1_555 1_555
C6K C8W 1_555 1_555
C6K C8L 1_555 1_555
C6L C8G 1_555 1_555
C6L C8K 1_555 1_555
C6C C8S 1_555 1_555
C6C C8P 1_555 1_555
C6S C8C 1_555 1_555
C6S C8J 1_555 1_555
C6J C8S 1_555 1_555
C6J C8P 1_555 1_555
C6P C8C 1_555 1_555
C6P C8J 1_555 1_555
C6BB C8ZA 1_555 1_555
C6BB C8XA 1_555 1_555
C6ZA C8BB 1_555 1_555
C6ZA C8DB 1_555 1_555
C6DB C8ZA 1_555 1_555
C6DB C8XA 1_555 1_555
C6XA C8BB 1_555 1_555
C6XA C8DB 1_555 1_555
C6EB C8RB 1_555 1_555
C6EB C8MB 1_555 1_555
C6RB C8EB 1_555 1_555
C6RB C8JB 1_555 1_555
C6JB C8RB 1_555 1_555
C6JB C8MB 1_555 1_555
C6MB C8EB 1_555 1_555
C6MB C8JB 1_555 1_555
C6GC C8IC 1_555 1_555
C6GC C8UB 1_555 1_555
C6IC C8GC 1_555 1_555
C6IC C8LC 1_555 1_555
C6LC C8IC 1_555 1_555
C6LC C8UB 1_555 1_555
C6UB C8GC 1_555 1_555
C6UB C8LC 1_555 1_555
C6SA C8RA 1_555 1_555
C6SA C8X 1_555 1_555
C6RA C8SA 1_555 1_555
C6RA C8CA 1_555 1_555
C6CA C8RA 1_555 1_555
C6CA C8X 1_555 1_555
C6X C8SA 1_555 1_555
C6X C8CA 1_555 1_555
C6U C8T 1_555 1_555
C6E C7T 1_555 1_555
C6E C8T 1_555 1_555
C6T C7T 1_555 1_555
C6T C8U 1_555 1_555
C6T C8E 1_555 1_555
C7T C8T 1_555 1_555
C7T C8U 1_555 1_555
C8W C8L 1_555 1_555
C8W C8K 1_555 1_555
C8L C8G 1_555 1_555
C8G C8K 1_555 1_555
C8S C8P 1_555 1_555
C8S C8J 1_555 1_555
C8P C8C 1_555 1_555
C8C C8J 1_555 1_555
C8ZA C8XA 1_555 1_555
C8ZA C8DB 1_555 1_555
C8XA C8BB 1_555 1_555
C8BB C8DB 1_555 1_555
C8RB C8MB 1_555 1_555
C8RB C8JB 1_555 1_555
C8MB C8EB 1_555 1_555
C8EB C8JB 1_555 1_555
C8IC C8UB 1_555 1_555
C8IC C8LC 1_555 1_555
C8UB C8GC 1_555 1_555
C8GC C8LC 1_555 1_555
C8RA C8X 1_555 1_555
C8RA C8CA 1_555 1_555
C8X C8SA 1_555 1_555
C8SA C8CA 1_555 1_555
C8T C8E 1_555 1_555
C8U C8E 1_555 1_555

#END
