
#######################################################################
#
#                 Cambridge Crystallographic Data Centre
#                                CCDC 
#
#######################################################################
#
# If this CIF has been generated from an entry in the Cambridge 
# Structural Database, then it will include bibliographic, chemical, 
# crystal, experimental, refinement or atomic coordinate data resulting 
# from the CCDC's data processing and validation procedures.
#
#######################################################################

data_IXEJOM
_chemical_formula_moiety         '(C32 H20 F12 O16 Zr3)n'
_symmetry_cell_setting           tetragonal
_symmetry_space_group_name_H-M   'P 42/m m c'
_symmetry_Int_Tables_number      131
_space_group_name_Hall           '-P 4c 2'
loop_
_symmetry_equiv_pos_site_id
_symmetry_equiv_pos_as_xyz
1 x,y,z
2 -y,x,1/2+z
3 -x,-y,z
4 y,-x,1/2+z
5 x,-y,-z
6 -x,y,-z
7 y,x,1/2-z
8 -y,-x,1/2-z
9 -x,-y,-z
10 y,-x,1/2-z
11 x,y,-z
12 -y,x,1/2-z
13 -x,y,z
14 x,-y,z
15 -y,-x,1/2+z
16 y,x,1/2+z
_cell_length_a                   24.257(6)
_cell_length_b                   24.257(6)
_cell_length_c                   15.025(4)
_cell_angle_alpha                90
_cell_angle_beta                 90
_cell_angle_gamma                90
_cell_volume                     8840.74
loop_
_atom_site_label
_atom_site_type_symbol
_atom_site_fract_x
_atom_site_fract_y
_atom_site_fract_z
Zr1 Zr 0.39963(3) 0.0000 0.0000
Zr2 Zr 0.5000 0.07268(3) 0.11689(6)
O1 O 0.35189(14) 0.05427(14) 0.0865(3)
O2 O 0.4507(3) 0.0000 0.1160(5)
O3 O 0.5000 0.1633(3) 0.1085(6)
O4 O 0.5000 0.0723(4) 0.2591(5)
O5 O 0.41703(18) 0.1028(2) 0.1645(4)
O6 O 0.4511(3) -0.0728(3) 0.0000
C1 C 0.3666(3) 0.0930(3) 0.1393(5)
C2 C 0.3230(2) 0.1287(2) 0.1744(5)
C3 C 0.2711(2) 0.1293(2) 0.1353(4)
H1 H 0.2631 0.1043 0.0884
C4 C 0.2303(2) 0.1664(3) 0.1640(4)
C5 C 0.3346(2) 0.1651(2) 0.2429(5)
H2 H 0.3700 0.1648 0.2700
C6 C 0.2432(3) 0.2030(3) 0.2331(6)
C7 C 0.2944(3) 0.2025(3) 0.2725(5)
H3 H 0.3025 0.2274 0.3195
C8 C 0.1754(2) 0.1632(3) 0.1147(4)
F1 F 0.1322(3) 0.1512(5) 0.1667(6)
F2 F 0.1627(4) 0.2105(3) 0.0734(7)
F3 F 0.1763(3) 0.1244(3) 0.0513(6)
O1F O 0.05427(14) 0.35189(14) 0.4135(3)
O5F O 0.1028(2) 0.41703(18) 0.3355(4)
C1F C 0.0930(3) 0.3666(3) 0.3607(5)
C2F C 0.1287(2) 0.3230(2) 0.3256(5)
C3F C 0.1293(2) 0.2711(2) 0.3647(4)
H1F H 0.1043 0.2631 0.4116
C4F C 0.1664(3) 0.2303(2) 0.3360(4)
C5F C 0.1651(2) 0.3346(2) 0.2571(5)
H2F H 0.1648 0.3700 0.2300
C6F C 0.2030(3) 0.2432(3) 0.2669(6)
C7F C 0.2025(3) 0.2944(3) 0.2275(5)
H3F H 0.2274 0.3025 0.1805
C8F C 0.1632(3) 0.1754(2) 0.3853(4)
F1F F 0.1512(5) 0.1322(3) 0.3333(6)
F2F F 0.2105(3) 0.1627(4) 0.4266(7)
F3F F 0.1244(3) 0.1763(3) 0.4487(6)
Zr2B Zr 0.5000 -0.07268(3) 0.11689(6)
O2B O 0.5493(3) 0.0000 0.1160(5)
O3B O 0.5000 -0.1633(3) 0.1085(6)
O4B O 0.5000 -0.0723(4) 0.2591(5)
O6B O 0.5489(3) 0.0728(3) 0.0000
O1L O 0.64811(14) 0.05427(14) 0.0865(3)
O5L O 0.58297(18) 0.1028(2) 0.1645(4)
C1L C 0.6334(3) 0.0930(3) 0.1393(5)
C2L C 0.6770(2) 0.1287(2) 0.1744(5)
C3L C 0.7289(2) 0.1293(2) 0.1353(4)
H1L H 0.7369 0.1043 0.0884
C4L C 0.7697(2) 0.1664(3) 0.1640(4)
C5L C 0.6654(2) 0.1651(2) 0.2429(5)
H2L H 0.6300 0.1648 0.2700
C6L C 0.7568(3) 0.2030(3) 0.2331(6)
C7L C 0.7056(3) 0.2025(3) 0.2725(5)
H3L H 0.6975 0.2274 0.3195
C8L C 0.8246(2) 0.1632(3) 0.1147(4)
F1L F 0.8678(3) 0.1512(5) 0.1667(6)
F2L F 0.8373(4) 0.2105(3) 0.0734(7)
F3L F 0.8237(3) 0.1244(3) 0.0513(6)
O1K O 0.94573(14) 0.35189(14) 0.4135(3)
O5K O 0.8972(2) 0.41703(18) 0.3355(4)
C1K C 0.9070(3) 0.3666(3) 0.3607(5)
C2K C 0.8713(2) 0.3230(2) 0.3256(5)
C3K C 0.8707(2) 0.2711(2) 0.3647(4)
H1K H 0.8957 0.2631 0.4116
C4K C 0.8336(3) 0.2303(2) 0.3360(4)
C5K C 0.8349(2) 0.3346(2) 0.2571(5)
H2K H 0.8352 0.3700 0.2300
C6K C 0.7970(3) 0.2432(3) 0.2669(6)
C7K C 0.7975(3) 0.2944(3) 0.2275(5)
H3K H 0.7726 0.3025 0.1805
C8K C 0.8368(3) 0.1754(2) 0.3853(4)
F1K F 0.8488(5) 0.1322(3) 0.3333(6)
F2K F 0.7895(3) 0.1627(4) 0.4266(7)
F3K F 0.8756(3) 0.1763(3) 0.4487(6)
Zr1A Zr -0.0000 0.39963(3) 0.5000
Zr1A_2 Zr 1.0000 0.39963(3) 0.5000
Zr1B Zr 0.60037(3) 0.0000 0.0000
Zr2D Zr 0.5000 -0.07268(3) -0.11689(6)
Zr2E Zr 0.5000 0.07268(3) -0.11689(6)
Zr2F Zr 0.07268(3) 0.5000 0.38311(6)
Zr2G Zr 0.92732(3) 0.5000 0.38311(6)
O1D O 0.35189(14) -0.05427(14) -0.0865(3)
O1J O 0.35189(14) 0.05427(14) -0.0865(3)
O1M O 0.35189(14) -0.05427(14) 0.0865(3)
O2D O 0.4507(3) 0.0000 -0.1160(5)
O5B O 0.58297(18) -0.1028(2) 0.1645(4)
O5M O 0.41703(18) -0.1028(2) 0.1645(4)
O6D O 0.4511(3) 0.0728(3) 0.0000
O6E O 0.5489(3) -0.0728(3) 0.0000
loop_
_geom_bond_atom_site_label_1
_geom_bond_atom_site_label_2
_geom_bond_site_symmetry_1
_geom_bond_site_symmetry_2
Zr1 O1 1_555 1_555
Zr2 O2 1_555 1_555
O1 C1 1_555 1_555
O2 Zr1 1_555 1_555
O3 Zr2 1_555 1_555
O4 Zr2 1_555 1_555
O5 Zr2 1_555 1_555
O6 Zr1 1_555 1_555
C1 O5 1_555 1_555
C2 C1 1_555 1_555
C3 C2 1_555 1_555
H1 C3 1_555 1_555
C4 C3 1_555 1_555
C5 C2 1_555 1_555
H2 C5 1_555 1_555
C6 C4 1_555 1_555
C7 C5 1_555 1_555
H3 C7 1_555 1_555
C8 C4 1_555 1_555
F1 C8 1_555 1_555
F2 C8 1_555 1_555
F3 C8 1_555 1_555
O1F C1F 1_555 1_555
O5F C1F 1_555 1_555
C1F C2F 1_555 1_555
C2F C3F 1_555 1_555
C3F H1F 1_555 1_555
C4F C3F 1_555 1_555
C5F C2F 1_555 1_555
H2F C5F 1_555 1_555
C6F C6 1_555 1_555
C7F C5F 1_555 1_555
H3F C7F 1_555 1_555
C8F C4F 1_555 1_555
F1F C8F 1_555 1_555
F2F C8F 1_555 1_555
F3F C8F 1_555 1_555
Zr2B O2 1_555 1_555
O2B Zr2 1_555 1_555
O3B Zr2B 1_555 1_555
O4B Zr2B 1_555 1_555
O6B Zr2 1_555 1_555
O1L C1L 1_555 1_555
O5L Zr2 1_555 1_555
C1L O5L 1_555 1_555
C2L C1L 1_555 1_555
C3L C2L 1_555 1_555
H1L C3L 1_555 1_555
C4L C3L 1_555 1_555
C5L C2L 1_555 1_555
H2L C5L 1_555 1_555
C6L C4L 1_555 1_555
C7L C5L 1_555 1_555
H3L C7L 1_555 1_555
C8L C4L 1_555 1_555
F1L C8L 1_555 1_555
F2L C8L 1_555 1_555
F3L C8L 1_555 1_555
O1K C1K 1_555 1_555
O5K C1K 1_555 1_555
C1K C2K 1_555 1_555
C2K C3K 1_555 1_555
C3K H1K 1_555 1_555
C4K C3K 1_555 1_555
C5K C2K 1_555 1_555
H2K C5K 1_555 1_555
C6K C6L 1_555 1_555
C7K C5K 1_555 1_555
H3K C7K 1_555 1_555
C8K C4K 1_555 1_555
F1K C8K 1_555 1_555
F2K C8K 1_555 1_555
F3K C8K 1_555 1_555
Zr1A O1F 1_555 1_555
Zr1A_2 O1K 1_555 1_555
Zr1B O2B 1_555 1_555
Zr2D O6 1_555 1_555
Zr2E O6B 1_555 1_555
Zr2F O5F 1_555 1_555
Zr2G O5K 1_555 1_555
O1D Zr1 1_555 1_555
O1J Zr1 1_555 1_555
O1M Zr1 1_555 1_555
O2D Zr1 1_555 1_555
O5B Zr2B 1_555 1_555
O5M Zr2B 1_555 1_555
O6D Zr1 1_555 1_555
O6E Zr2B 1_555 1_555
Zr2 O6D 1_555 1_555
O6 Zr2B 1_555 1_555
C6 C7 1_555 1_555
C4F C6F 1_555 1_555
C6F C7F 1_555 1_555
Zr2B O2B 1_555 1_555
O6B Zr1B 1_555 1_555
O1L Zr1B 1_555 1_555
C6L C7L 1_555 1_555
C4K C6K 1_555 1_555
C6K C7K 1_555 1_555
Zr1B O6E 1_555 1_555
Zr2D O2D 1_555 1_555
Zr2D O6E 1_555 1_555
Zr2E O2D 1_555 1_555
Zr2E O6D 1_555 1_555

#END
