
#######################################################################
#
#                 Cambridge Crystallographic Data Centre
#                                CCDC 
#
#######################################################################
#
# If this CIF has been generated from an entry in the Cambridge 
# Structural Database, then it will include bibliographic, chemical, 
# crystal, experimental, refinement or atomic coordinate data resulting 
# from the CCDC's data processing and validation procedures.
#
#######################################################################

data_LEDLAJ
_chemical_formula_moiety         '(C68 H58 N8 O15 Zn2)n'
_symmetry_cell_setting           tetragonal
_symmetry_space_group_name_H-M   'I 41/a'
_symmetry_Int_Tables_number      88
_space_group_name_Hall           '-I 4ad'
loop_
_symmetry_equiv_pos_site_id
_symmetry_equiv_pos_as_xyz
1 x,y,z
2 3/4-y,1/4+x,1/4+z
3 1/2-x,-y,1/2+z
4 3/4+y,3/4-x,3/4+z
5 1/2+x,1/2+y,1/2+z
6 1/4-y,3/4+x,3/4+z
7 -x,1/2-y,z
8 1/4+y,1/4-x,1/4+z
9 -x,-y,-z
10 1/4+y,3/4-x,3/4-z
11 1/2+x,y,1/2-z
12 1/4-y,1/4+x,1/4-z
13 1/2-x,1/2-y,1/2-z
14 3/4+y,1/4-x,1/4-z
15 x,1/2+y,-z
16 3/4-y,3/4+x,3/4-z
_cell_length_a                   27.32(3)
_cell_length_b                   27.32(3)
_cell_length_c                   17.20(2)
_cell_angle_alpha                90
_cell_angle_beta                 90
_cell_angle_gamma                90
_cell_volume                     12837.8
loop_
_atom_site_label
_atom_site_type_symbol
_atom_site_fract_x
_atom_site_fract_y
_atom_site_fract_z
_atom_site_U_iso_or_equiv
_atom_site_thermal_displace_type
Zn1 Zn 0.14084(4) 0.89485(4) 0.49736(7) 0.0705 Uani
O1 O 0.1070(3) 0.9171(3) 0.4038(5) 0.1063 Uani
O2 O 0.1563(3) 0.8651(3) 0.3549(5) 0.1170 Uani
O3 O 0.0334(3) 0.9129(3) 0.0583(5) 0.1363 Uani
O4 O 0.1217(3) 1.0736(2) -0.1607(4) 0.0773 Uani
O5 O 0.0778(3) 1.0327(3) -0.2438(5) 0.1000 Uani
O6 O 0.0963(3) 0.9412(3) 0.5886(6) 0.1637 Uani
H1 H 0.0840 0.9655 0.5696 0.1960 Uiso
H2 H 0.1173 0.9450 0.6251 0.1960 Uiso
N1 N 0.1884(3) 0.9485(3) 0.4804(5) 0.0743 Uani
N2 N 0.3463(5) 1.1497(6) 0.4232(10) 0.1483 Uani
N3 N 0.0904(3) 0.8412(3) 0.5039(4) 0.0660 Uani
C1 C 0.1224(5) 0.8939(5) 0.3503(9) 0.0833 Uani
C2 C 0.0980(4) 0.8990(4) 0.2707(7) 0.0767 Uani
C3 C 0.1168(4) 0.8756(4) 0.2073(10) 0.0957 Uani
H9 H 0.1442 0.8557 0.2121 0.1150 Uiso
C4 C 0.0940(6) 0.8820(5) 0.1346(9) 0.1003 Uani
H10 H 0.1060 0.8655 0.0912 0.1200 Uiso
C5 C 0.0574(6) 0.9100(6) 0.1281(8) 0.0943 Uani
C6 C 0.0394(4) 0.9347(4) 0.1882(11) 0.1003 Uani
H11 H 0.0127 0.9554 0.1813 0.1210 Uiso
C7 C 0.0606(4) 0.9296(4) 0.2624(7) 0.0830 Uani
H12 H 0.0486 0.9472 0.3046 0.1000 Uiso
C8 C 0.0490(5) 0.9468(4) 0.0026(9) 0.1053 Uani
C9 C 0.0806(4) 0.9832(4) 0.0210(7) 0.0897 Uani
H13 H 0.0928 0.9872 0.0711 0.1070 Uiso
C10 C 0.0936(3) 1.0134(4) -0.0382(7) 0.0740 Uani
H14 H 0.1149 1.0391 -0.0277 0.0890 Uiso
C11 C 0.0771(3) 1.0079(3) -0.1111(7) 0.0663 Uani
C12 C 0.0459(4) 0.9695(4) -0.1243(7) 0.1007 Uani
H15 H 0.0344 0.9644 -0.1746 0.1210 Uiso
C13 C 0.0312(5) 0.9390(4) -0.0681(7) 0.1040 Uani
H16 H 0.0095 0.9135 -0.0781 0.1250 Uiso
C14 C 0.0925(4) 1.0396(4) -0.1747(8) 0.0840 Uani
C15 C 0.2342(4) 0.9429(4) 0.4502(6) 0.0833 Uani
H17 H 0.2443 0.9114 0.4378 0.1000 Uiso
C16 C 0.2659(4) 0.9800(4) 0.4371(6) 0.0813 Uani
H18 H 0.2962 0.9735 0.4150 0.0980 Uiso
C17 C 0.2535(3) 1.0271(3) 0.4563(6) 0.0727 Uani
C18 C 0.2064(4) 1.0330(4) 0.4892(7) 0.1027 Uani
H19 H 0.1958 1.0639 0.5039 0.1230 Uiso
C19 C 0.1770(4) 0.9942(4) 0.4994(7) 0.0990 Uani
H20 H 0.1464 0.9997 0.5213 0.1190 Uiso
C20 C 0.2856(3) 1.0686(3) 0.4458(7) 0.0740 Uani
C21 C 0.3182(4) 1.0710(4) 0.3874(8) 0.0980 Uani
H21 H 0.3211 1.0448 0.3532 0.1180 Uiso
C22 C 0.3477(4) 1.1120(6) 0.3772(10) 0.1170 Uani
H22 H 0.3694 1.1124 0.3356 0.1400 Uiso
C23 C 0.3164(6) 1.1479(4) 0.4788(11) 0.1327 Uani
H23 H 0.3149 1.1746 0.5122 0.1590 Uiso
C24 C 0.2841(4) 1.1070(5) 0.4944(8) 0.1097 Uani
H24 H 0.2630 1.1073 0.5369 0.1320 Uiso
C25 C 0.0998(3) 0.7972(4) 0.4886(6) 0.0847 Uani
H25 H 0.1320 0.7895 0.4765 0.1020 Uiso
C26 C 0.0670(4) 0.7599(4) 0.4880(7) 0.0980 Uani
H26 H 0.0774 0.7280 0.4797 0.1180 Uiso
C27 C 0.0184(3) 0.7698(3) 0.4999(5) 0.0710 Uani
C28 C 0.0081(4) 0.8178(4) 0.5146(7) 0.1050 Uani
H27 H -0.0240 0.8274 0.5245 0.1260 Uiso
C29 C 0.0438(4) 0.8510(4) 0.5148(7) 0.1100 Uani
H28 H 0.0351 0.8835 0.5232 0.1320 Uiso
Zn1E Zn 0.35515(4) 0.89084(4) 1.24736(7) 0.0705 Uani
Zn1G Zn 0.14485(4) 1.10916(4) -0.25264(7) 0.0705 Uani
Zn1F Zn -0.14084(4) 0.60515(4) 0.49736(7) 0.0705 Uani
O1E O 0.3329(3) 0.8570(3) 1.1538(5) 0.1063 Uani
O2E O 0.3849(3) 0.9063(3) 1.1049(5) 0.1170 Uani
O3E O 0.3371(3) 0.7834(3) 0.8083(5) 0.1363 Uani
O4E O 0.1764(2) 0.8717(3) 0.5893(4) 0.0773 Uani
O4B O 0.3783(3) 0.9264(2) 1.3393(4) 0.0773 Uani
O5E O 0.2173(3) 0.8278(3) 0.5062(5) 0.1000 Uani
O6E O 0.3088(3) 0.8463(3) 1.3386(6) 0.1637 Uani
H1E H 0.2845 0.8340 1.3196 0.1960 Uiso
H2E H 0.3050 0.8673 1.3751 0.1960 Uiso
N1E N 0.3015(3) 0.9384(3) 1.2304(5) 0.0743 Uani
N2E N 0.1003(6) 1.0963(5) 1.1732(10) 0.1483 Uani
N3F N -0.0904(3) 0.6588(3) 0.5039(4) 0.0660 Uani
N3E N 0.4088(3) 0.8404(3) 1.2539(4) 0.0660 Uani
C1E C 0.3561(5) 0.8724(5) 1.1003(9) 0.0833 Uani
C2E C 0.3510(4) 0.8480(4) 1.0207(7) 0.0767 Uani
C3E C 0.3744(4) 0.8668(4) 0.9573(10) 0.0957 Uani
H9E H 0.3943 0.8942 0.9621 0.1150 Uiso
C4E C 0.3680(5) 0.8440(6) 0.8846(9) 0.1003 Uani
H10E H 0.3845 0.8560 0.8412 0.1200 Uiso
C5E C 0.3400(6) 0.8074(6) 0.8781(8) 0.0943 Uani
C6E C 0.3153(4) 0.7894(4) 0.9382(11) 0.1003 Uani
H11E H 0.2946 0.7627 0.9313 0.1210 Uiso
C7E C 0.3204(4) 0.8106(4) 1.0124(7) 0.0830 Uani
H12E H 0.3028 0.7986 1.0546 0.1000 Uiso
C8E C 0.3032(4) 0.7990(5) 0.7526(9) 0.1053 Uani
C9E C 0.2668(4) 0.8306(4) 0.7710(7) 0.0897 Uani
H13E H 0.2628 0.8428 0.8211 0.1070 Uiso
C10E C 0.2366(4) 0.8436(3) 0.7118(7) 0.0740 Uani
H14E H 0.2109 0.8649 0.7223 0.0890 Uiso
C11E C 0.2421(3) 0.8271(3) 0.6389(7) 0.0663 Uani
C12E C 0.2805(4) 0.7959(4) 0.6257(7) 0.1007 Uani
H15E H 0.2856 0.7844 0.5754 0.1210 Uiso
C13E C 0.3110(4) 0.7812(5) 0.6819(7) 0.1040 Uani
H16E H 0.3365 0.7595 0.6719 0.1250 Uiso
C14E C 0.2104(4) 0.8425(4) 0.5753(8) 0.0840 Uani
C15E C 0.3071(4) 0.9842(4) 1.2002(6) 0.0833 Uani
H17E H 0.3386 0.9943 1.1878 0.1000 Uiso
C16E C 0.2700(4) 1.0159(4) 1.1871(6) 0.0813 Uani
H18E H 0.2765 1.0462 1.1650 0.0980 Uiso
C17E C 0.2229(3) 1.0035(3) 1.2063(6) 0.0727 Uani
C18E C 0.2170(4) 0.9564(4) 1.2392(7) 0.1027 Uani
H19E H 0.1861 0.9458 1.2539 0.1230 Uiso
C19E C 0.2558(4) 0.9270(4) 1.2494(7) 0.0990 Uani
H20E H 0.2503 0.8964 1.2713 0.1190 Uiso
C20E C 0.1814(3) 1.0356(3) 1.1958(7) 0.0740 Uani
C21E C 0.1790(4) 1.0682(4) 1.1374(8) 0.0980 Uani
H21E H 0.2052 1.0711 1.1032 0.1180 Uiso
C22E C 0.1380(6) 1.0977(4) 1.1272(10) 0.1170 Uani
H22E H 0.1376 1.1194 1.0856 0.1400 Uiso
C23E C 0.1021(4) 1.0664(6) 1.2288(11) 0.1327 Uani
H23E H 0.0754 1.0649 1.2622 0.1590 Uiso
C24E C 0.1430(5) 1.0341(4) 1.2444(8) 0.1097 Uani
H24E H 0.1427 1.0130 1.2869 0.1320 Uiso
C25F C -0.0998(3) 0.7028(4) 0.4886(6) 0.0847 Uani
H25F H -0.1320 0.7105 0.4765 0.1020 Uiso
C26F C -0.0670(4) 0.7401(4) 0.4880(7) 0.0980 Uani
H26F H -0.0774 0.7720 0.4797 0.1180 Uiso
C27F C -0.0184(3) 0.7302(3) 0.4999(5) 0.0710 Uani
C28F C -0.0081(4) 0.6822(4) 0.5146(7) 0.1050 Uani
H27F H 0.0240 0.6726 0.5245 0.1260 Uiso
C29F C -0.0438(4) 0.6490(4) 0.5148(7) 0.1100 Uani
H28F H -0.0351 0.6165 0.5232 0.1320 Uiso
O7 O 0.0546(5) 0.0128(5) 0.4224(7) 0.1033 Uani
H3 H 0.0743 -0.0134 0.4169 0.1240 Uiso
H4 H 0.0268 0.0031 0.4216 0.1240 Uiso
O8 O 0.0410(5) 0.0296(8) 0.5868(16) 0.2460 Uani
H5 H 0.0438 0.0214 0.5380 0.2920 Uiso
H6 H 0.0640 0.0485 0.5975 0.2920 Uiso
O9 O 0.1148(13) 0.9360(14) 0.7219(15) 0.1347 Uani
H7 H 0.1391 0.9451 0.7336 0.1640 Uiso
H8 H 0.0923 0.9658 0.7432 0.1640 Uiso
N4 N 0.3897(6) 0.3154(6) 0.5275(11) 0.2093 Uani
C30 C 0.3947(7) 0.2656(9) 0.4993(12) 0.1927 Uani
H29 H 0.3660 0.2505 0.4828 0.2320 Uiso
C31 C 0.4333(7) 0.2401(6) 0.4942(11) 0.1623 Uani
H30 H 0.4324 0.2073 0.4799 0.1960 Uiso
C32 C 0.4771(5) 0.2639(5) 0.5112(7) 0.1127 Uani
C33 C 0.4718(6) 0.3116(6) 0.5304(8) 0.1167 Uani
H31 H 0.4999 0.3286 0.5443 0.1400 Uiso
C34 C 0.4321(6) 0.3351(6) 0.5310(11) 0.1580 Uani
H32 H 0.4337 0.3690 0.5343 0.1880 Uiso
N4F N 0.6103(6) 0.1846(6) 0.5275(11) 0.2093 Uani
C30F C 0.6053(7) 0.2344(9) 0.4993(12) 0.1927 Uani
H29F H 0.6340 0.2495 0.4828 0.2320 Uiso
C31F C 0.5667(7) 0.2599(6) 0.4942(11) 0.1623 Uani
H30F H 0.5676 0.2927 0.4799 0.1960 Uiso
C32F C 0.5229(5) 0.2361(5) 0.5112(7) 0.1127 Uani
C33F C 0.5282(6) 0.1884(6) 0.5304(8) 0.1167 Uani
H31F H 0.5001 0.1714 0.5443 0.1400 Uiso
C34F C 0.5679(6) 0.1649(6) 0.5310(11) 0.1580 Uani
H32F H 0.5663 0.1310 0.5343 0.1880 Uiso
loop_
_atom_site_aniso_label
_atom_site_aniso_U_11
_atom_site_aniso_U_22
_atom_site_aniso_U_33
_atom_site_aniso_U_23
_atom_site_aniso_U_13
_atom_site_aniso_U_12
Zn1 0.0533(7) 0.0611(8) 0.0970(10) 0.0069(6) -0.0075(6) -0.0052(5)
O1 0.112(7) 0.095(6) 0.112(7) 0.000(5) 0.008(5) -0.027(5)
O2 0.098(6) 0.118(7) 0.135(7) 0.029(5) -0.020(5) 0.006(5)
O3 0.157(8) 0.142(8) 0.110(7) 0.056(6) -0.051(6) -0.088(6)
O4 0.083(5) 0.057(4) 0.092(5) 0.010(4) -0.002(4) -0.006(4)
O5 0.098(6) 0.103(6) 0.099(6) 0.017(5) -0.009(5) 0.004(4)
O6 0.114(7) 0.103(6) 0.274(12) -0.074(7) 0.053(7) -0.029(5)
N1 0.058(5) 0.052(5) 0.113(7) 0.006(4) -0.003(5) 0.005(4)
N2 0.092(9) 0.117(11) 0.236(17) 0.009(11) 0.040(9) -0.024(8)
N3 0.052(5) 0.057(5) 0.089(5) -0.001(4) -0.015(4) 0.002(4)
C1 0.068(8) 0.066(8) 0.116(11) 0.022(7) -0.022(8) -0.013(6)
C2 0.049(6) 0.073(7) 0.108(10) 0.032(7) -0.009(7) -0.021(6)
C3 0.071(8) 0.091(9) 0.125(11) 0.025(8) 0.006(9) -0.004(6)
C4 0.096(11) 0.106(10) 0.099(12) -0.013(8) 0.017(9) -0.045(9)
C5 0.084(10) 0.114(11) 0.085(11) 0.008(9) -0.002(9) -0.040(9)
C6 0.062(8) 0.073(8) 0.166(14) 0.047(9) -0.026(9) -0.006(6)
C7 0.071(7) 0.069(7) 0.109(10) 0.009(6) 0.007(7) -0.003(6)
C8 0.120(10) 0.082(8) 0.114(11) 0.036(8) -0.014(9) -0.031(8)
C9 0.099(8) 0.075(7) 0.095(9) 0.009(7) -0.014(6) -0.034(7)
C10 0.069(7) 0.061(6) 0.092(8) 0.013(6) -0.013(6) -0.011(5)
C11 0.063(6) 0.051(6) 0.085(8) 0.017(6) -0.007(6) -0.006(5)
C12 0.099(9) 0.086(8) 0.117(10) 0.016(8) -0.044(8) 0.008(7)
C13 0.152(11) 0.084(8) 0.076(8) 0.041(7) -0.050(8) -0.051(8)
C14 0.064(7) 0.072(8) 0.116(11) 0.003(8) -0.003(8) 0.025(6)
C15 0.074(7) 0.058(7) 0.118(9) -0.012(6) 0.011(7) 0.018(6)
C16 0.065(7) 0.058(7) 0.121(9) -0.008(6) 0.012(6) -0.006(6)
C17 0.047(6) 0.064(7) 0.107(8) 0.010(6) 0.002(6) 0.004(5)
C18 0.073(7) 0.059(7) 0.176(12) -0.010(7) 0.026(8) 0.000(6)
C19 0.051(6) 0.074(8) 0.172(11) 0.000(8) 0.017(7) 0.000(6)
C20 0.053(6) 0.046(6) 0.123(9) -0.007(6) -0.006(6) -0.003(5)
C21 0.077(8) 0.063(7) 0.154(11) 0.012(7) 0.015(8) -0.007(6)
C22 0.074(9) 0.101(11) 0.176(14) 0.005(10) 0.015(8) -0.001(8)
C23 0.109(11) 0.054(8) 0.235(18) -0.038(10) -0.021(11) -0.008(8)
C24 0.090(8) 0.083(9) 0.156(11) -0.016(9) 0.003(8) -0.012(7)
C25 0.042(5) 0.061(7) 0.151(10) 0.007(7) 0.009(6) 0.005(5)
C26 0.051(6) 0.066(7) 0.177(12) 0.009(7) -0.003(7) 0.007(5)
C27 0.045(5) 0.063(6) 0.105(7) -0.004(6) 0.000(6) -0.004(4)
C28 0.052(6) 0.070(7) 0.193(12) -0.045(8) 0.012(7) -0.008(6)
C29 0.062(7) 0.069(7) 0.199(13) -0.031(8) 0.016(8) -0.012(6)
Zn1E 0.0611 0.0533 0.097 -0.0075 -0.0069 0.0052
Zn1G 0.0611 0.0533 0.097 0.0075 0.0069 0.0052
Zn1F 0.0533 0.0611 0.097 -0.0069 0.0075 -0.0052
O1E 0.095 0.112 0.112 0.008 0 0.027
O2E 0.118 0.098 0.135 -0.02 -0.029 -0.006
O3E 0.142 0.157 0.11 -0.051 -0.056 0.088
O4E 0.057 0.083 0.092 -0.002 -0.01 0.006
O4B 0.083 0.057 0.092 -0.01 0.002 -0.006
O5E 0.103 0.098 0.099 -0.009 -0.017 -0.004
O6E 0.103 0.114 0.274 0.053 0.074 0.029
N1E 0.052 0.058 0.113 -0.003 -0.006 -0.005
N2E 0.117 0.092 0.236 0.04 -0.009 0.024
N3F 0.052 0.057 0.089 0.001 0.015 0.002
N3E 0.057 0.052 0.089 -0.015 0.001 -0.002
C1E 0.066 0.068 0.116 -0.022 -0.022 0.013
C2E 0.073 0.049 0.108 -0.009 -0.032 0.021
C3E 0.091 0.071 0.125 0.006 -0.025 0.004
C4E 0.106 0.096 0.099 0.017 0.013 0.045
C5E 0.114 0.084 0.085 -0.002 -0.008 0.04
C6E 0.073 0.062 0.166 -0.026 -0.047 0.006
C7E 0.069 0.071 0.109 0.007 -0.009 0.003
C8E 0.082 0.12 0.114 -0.014 -0.036 0.031
C9E 0.075 0.099 0.095 -0.014 -0.009 0.034
C10E 0.061 0.069 0.092 -0.013 -0.013 0.011
C11E 0.051 0.063 0.085 -0.007 -0.017 0.006
C12E 0.086 0.099 0.117 -0.044 -0.016 -0.008
C13E 0.084 0.152 0.076 -0.05 -0.041 0.051
C14E 0.072 0.064 0.116 -0.003 -0.003 -0.025
C15E 0.058 0.074 0.118 0.011 0.012 -0.018
C16E 0.058 0.065 0.121 0.012 0.008 0.006
C17E 0.064 0.047 0.107 0.002 -0.01 -0.004
C18E 0.059 0.073 0.176 0.026 0.01 0
C19E 0.074 0.051 0.172 0.017 0 0
C20E 0.046 0.053 0.123 -0.006 0.007 0.003
C21E 0.063 0.077 0.154 0.015 -0.012 0.007
C22E 0.101 0.074 0.176 0.015 -0.005 0.001
C23E 0.054 0.109 0.235 -0.021 0.038 0.008
C24E 0.083 0.09 0.156 0.003 0.016 0.012
C25F 0.042 0.061 0.151 -0.007 -0.009 0.005
C26F 0.051 0.066 0.177 -0.009 0.003 0.007
C27F 0.045 0.063 0.105 0.004 0 -0.004
C28F 0.052 0.07 0.193 0.045 -0.012 -0.008
C29F 0.062 0.069 0.199 0.031 -0.016 -0.012
O7 0.093(10) 0.106(11) 0.111(11) -0.003(9) -0.028(9) 0.011(9)
O8 0.048(9) 0.23(2) 0.46(4) -0.27(3) -0.041(15) 0.012(11)
O9 0.13(3) 0.21(4) 0.064(18) -0.03(2) -0.007(18) 0.01(3)
N4 0.169(15) 0.119(12) 0.34(2) 0.066(13) -0.139(14) -0.006(11)
C30 0.129(15) 0.159(19) 0.29(2) 0.067(18) -0.106(16) -0.050(14)
C31 0.112(12) 0.115(12) 0.26(2) 0.084(13) -0.078(14) -0.019(11)
C32 0.147(15) 0.078(11) 0.113(9) 0.019(8) -0.036(8) -0.043(8)
C33 0.112(12) 0.097(11) 0.141(11) 0.008(9) -0.037(9) -0.034(9)
C34 0.091(10) 0.113(12) 0.27(2) 0.050(12) -0.074(12) -0.004(10)
N4F 0.169 0.119 0.34 -0.066 0.139 -0.006
C30F 0.129 0.159 0.29 -0.067 0.106 -0.05
C31F 0.112 0.115 0.26 -0.084 0.078 -0.019
C32F 0.147 0.078 0.113 -0.019 0.036 -0.043
C33F 0.112 0.097 0.141 -0.008 0.037 -0.034
C34F 0.091 0.113 0.27 -0.05 0.074 -0.004
loop_
_geom_bond_atom_site_label_1
_geom_bond_atom_site_label_2
_geom_bond_site_symmetry_1
_geom_bond_site_symmetry_2
Zn1 O1 1_555 1_555
O1 C1 1_555 1_555
O2 C1 1_555 1_555
O3 C5 1_555 1_555
O4 C14 1_555 1_555
O5 C14 1_555 1_555
O6 Zn1 1_555 1_555
H1 O6 1_555 1_555
H2 O6 1_555 1_555
O7 H3 1_555 1_555
H4 O7 1_555 1_555
O8 H5 1_555 1_555
H6 O8 1_555 1_555
O9 H7 1_555 1_555
H8 O9 1_555 1_555
N1 Zn1 1_555 1_555
N2 C22 1_555 1_555
N3 Zn1 1_555 1_555
N4 C30 1_555 1_555
C1 C2 1_555 1_555
C2 C3 1_555 1_555
C3 H9 1_555 1_555
C4 C3 1_555 1_555
H10 C4 1_555 1_555
C5 C4 1_555 1_555
C6 C5 1_555 1_555
H11 C6 1_555 1_555
C7 C2 1_555 1_555
H12 C7 1_555 1_555
C8 O3 1_555 1_555
C9 C8 1_555 1_555
H13 C9 1_555 1_555
C10 C9 1_555 1_555
H14 C10 1_555 1_555
C11 C10 1_555 1_555
C12 C11 1_555 1_555
H15 C12 1_555 1_555
C13 C8 1_555 1_555
H16 C13 1_555 1_555
C14 C11 1_555 1_555
C15 N1 1_555 1_555
H17 C15 1_555 1_555
C16 C15 1_555 1_555
H18 C16 1_555 1_555
C17 C16 1_555 1_555
C18 C17 1_555 1_555
H19 C18 1_555 1_555
C19 N1 1_555 1_555
H20 C19 1_555 1_555
C20 C17 1_555 1_555
C21 C20 1_555 1_555
H21 C21 1_555 1_555
C22 C21 1_555 1_555
H22 C22 1_555 1_555
C23 N2 1_555 1_555
H23 C23 1_555 1_555
C24 C20 1_555 1_555
H24 C24 1_555 1_555
C25 N3 1_555 1_555
H25 C25 1_555 1_555
C26 C25 1_555 1_555
H26 C26 1_555 1_555
C27 C26 1_555 1_555
C28 C27 1_555 1_555
H27 C28 1_555 1_555
C29 N3 1_555 1_555
H28 C29 1_555 1_555
C30 H29 1_555 1_555
C31 C30 1_555 1_555
H30 C31 1_555 1_555
C32 C31 1_555 1_555
C33 C32 1_555 1_555
H31 C33 1_555 1_555
C34 N4 1_555 1_555
H32 C34 1_555 1_555
Zn1E O1E 1_555 1_555
Zn1G O4 1_555 1_555
Zn1F N3F 1_555 1_555
O1E C1E 1_555 1_555
O2E C1E 1_555 1_555
O3E C5E 1_555 1_555
O4E Zn1 1_555 1_555
O4B Zn1E 1_555 1_555
O5E C14E 1_555 1_555
O6E Zn1E 1_555 1_555
H1E O6E 1_555 1_555
H2E O6E 1_555 1_555
N1E Zn1E 1_555 1_555
N2E C22E 1_555 1_555
N3F C25F 1_555 1_555
N3E Zn1E 1_555 1_555
N4F C30F 1_555 1_555
C1E C2E 1_555 1_555
C2E C3E 1_555 1_555
C3E H9E 1_555 1_555
C4E C3E 1_555 1_555
H10E C4E 1_555 1_555
C5E C4E 1_555 1_555
C6E C5E 1_555 1_555
H11E C6E 1_555 1_555
C7E C2E 1_555 1_555
H12E C7E 1_555 1_555
C8E O3E 1_555 1_555
C9E C8E 1_555 1_555
H13E C9E 1_555 1_555
C10E C9E 1_555 1_555
H14E C10E 1_555 1_555
C11E C10E 1_555 1_555
C12E C11E 1_555 1_555
H15E C12E 1_555 1_555
C13E C8E 1_555 1_555
H16E C13E 1_555 1_555
C14E O4E 1_555 1_555
C15E N1E 1_555 1_555
H17E C15E 1_555 1_555
C16E C15E 1_555 1_555
H18E C16E 1_555 1_555
C17E C16E 1_555 1_555
C18E C17E 1_555 1_555
H19E C18E 1_555 1_555
C19E N1E 1_555 1_555
H20E C19E 1_555 1_555
C20E C17E 1_555 1_555
C21E C20E 1_555 1_555
H21E C21E 1_555 1_555
C22E C21E 1_555 1_555
H22E C22E 1_555 1_555
C23E N2E 1_555 1_555
H23E C23E 1_555 1_555
C24E C20E 1_555 1_555
H24E C24E 1_555 1_555
C25F H25F 1_555 1_555
C26F C25F 1_555 1_555
H26F C26F 1_555 1_555
C27F C27 1_555 1_555
C28F C27F 1_555 1_555
H27F C28F 1_555 1_555
C29F N3F 1_555 1_555
H28F C29F 1_555 1_555
C30F H29F 1_555 1_555
C31F C30F 1_555 1_555
H30F C31F 1_555 1_555
C32F C32 1_555 1_555
C33F C32F 1_555 1_555
H31F C33F 1_555 1_555
C34F N4F 1_555 1_555
H32F C34F 1_555 1_555
C6 C7 1_555 1_555
C12 C13 1_555 1_555
C18 C19 1_555 1_555
C23 C24 1_555 1_555
C28 C29 1_555 1_555
C33 C34 1_555 1_555
C6E C7E 1_555 1_555
C11E C14E 1_555 1_555
C12E C13E 1_555 1_555
C18E C19E 1_555 1_555
C23E C24E 1_555 1_555
C26F C27F 1_555 1_555
C28F C29F 1_555 1_555
C31F C32F 1_555 1_555
C33F C34F 1_555 1_555

#END
