
#######################################################################
#
#                 Cambridge Crystallographic Data Centre
#                                CCDC 
#
#######################################################################
#
# If this CIF has been generated from an entry in the Cambridge 
# Structural Database, then it will include bibliographic, chemical, 
# crystal, experimental, refinement or atomic coordinate data resulting 
# from the CCDC's data processing and validation procedures.
#
#######################################################################

data_PUPXII01
_chemical_formula_moiety         '(C10 H11 Mn1 N3 O7)n'
_symmetry_cell_setting           orthorhombic
_symmetry_space_group_name_H-M   'P n a 21'
_symmetry_Int_Tables_number      33
_space_group_name_Hall           'P 2c -2n'
loop_
_symmetry_equiv_pos_site_id
_symmetry_equiv_pos_as_xyz
1 x,y,z
2 -x,-y,1/2+z
3 1/2+x,1/2-y,z
4 1/2-x,1/2+y,1/2+z
_cell_length_a                   7.8401(5)
_cell_length_b                   10.3176(7)
_cell_length_c                   15.8809(11)
_cell_angle_alpha                90
_cell_angle_beta                 90
_cell_angle_gamma                90
_cell_volume                     1284.62
loop_
_atom_site_label
_atom_site_type_symbol
_atom_site_fract_x
_atom_site_fract_y
_atom_site_fract_z
_atom_site_U_iso_or_equiv
_atom_site_thermal_displace_type
Mn1 Mn 0.35574(4) 1.02704(3) 0.46966(3) 0.0168 Uani
O1 O 0.8499(2) 0.8593(2) -0.07739(14) 0.0266 Uani
O2 O 0.1930(3) 0.88040(19) 0.52442(16) 0.0345 Uani
H1 H 0.233(5) 0.8036(17) 0.523(3) 0.0490 Uiso
H2 H 0.0833(14) 0.877(4) 0.523(3) 0.0420 Uiso
O3 O 0.9661(3) 0.66380(19) -0.08481(11) 0.0277 Uani
O4 O 0.9319(2) 0.42267(17) 0.01617(15) 0.0287 Uani
O5 O 0.6657(2) 0.3647(2) 0.04215(17) 0.0369 Uani
N1 N 0.3842(3) 0.9241(2) 0.34353(16) 0.0257 Uani
N2 N 0.6834(3) 0.7991(2) 0.06908(14) 0.0202 Uani
N3 N 0.6302(2) 0.6076(2) 0.12522(15) 0.0192 Uani
H3 H 0.5879 0.5500 0.1583 0.0230 Uiso
C1 C 0.4504(4) 0.9910(3) 0.2794(2) 0.0300 Uani
H4 H 0.4491 1.0810 0.2824 0.0360 Uiso
C2 C 0.5204(4) 0.9339(3) 0.20903(18) 0.0268 Uani
H5 H 0.5672 0.9846 0.1664 0.0320 Uiso
C3 C 0.5203(3) 0.7998(2) 0.20250(17) 0.0211 Uani
C4 C 0.4461(4) 0.7301(3) 0.26744(19) 0.0304 Uani
H6 H 0.4400 0.6402 0.2647 0.0370 Uiso
C5 C 0.3815(4) 0.7950(3) 0.3361(2) 0.0304 Uani
H7 H 0.3335 0.7467 0.3795 0.0360 Uiso
C6 C 0.6069(3) 0.7374(3) 0.13149(18) 0.0190 Uani
C7 C 0.7659(3) 0.7046(2) 0.02278(16) 0.0186 Uani
C8 C 0.7322(3) 0.5843(2) 0.05765(16) 0.0187 Uani
C9 C 0.7816(3) 0.4469(2) 0.03549(17) 0.0214 Uani
C10 C 0.8676(3) 0.7443(3) -0.05179(16) 0.0183 Uani
Mn1A Mn 0.64426(4) 0.97296(3) -0.03034(3) 0.0168 Uani
Mn1C Mn 1.14426(4) 0.52704(3) -0.03034(3) 0.0168 Uani
O1A O 0.1501(2) 1.1407(2) 0.42261(14) 0.0266 Uani
O3C O 0.5339(3) 1.16380(19) 0.41519(11) 0.0277 Uani
O4C O 0.5681(2) 0.92267(17) 0.51617(15) 0.0287 Uani
N2A N 0.3166(3) 1.2009(2) 0.56908(14) 0.0202 Uani
O6 O 1.0339(4) 1.0839(3) 0.25560(19) 0.0602 Uani
O7 O 0.7485(5) 1.2112(4) 0.2096(3) 0.0903 Uiso
loop_
_atom_site_aniso_label
_atom_site_aniso_U_11
_atom_site_aniso_U_22
_atom_site_aniso_U_33
_atom_site_aniso_U_23
_atom_site_aniso_U_13
_atom_site_aniso_U_12
Mn1 0.0180(2) 0.0129(2) 0.0196(2) -0.00146(16) -0.00111(17) 0.00073(12)
O1 0.0278 0.0193 0.0328 0.0065 0.012 0.006
O2 0.0293(11) 0.0189(10) 0.0553(14) 0.0071(9) 0.0096(11) -0.0016(9)
O3 0.035 0.0247 0.0233 -0.0001 0.0035 0.0131
O4 0.0222 0.0163 0.0477 -0.0012 0.0108 0.0006
O5 0.0232 0.0176 0.0699 -0.0052 0.0071 -0.0025
N1 0.0290(12) 0.0256(13) 0.0225(13) -0.0087(10) 0.0017(9) 0.0012(10)
N2 0.0254 0.0165 0.0188 -0.0005 0 0.0044
N3 0.0219 0.0156 0.0201 0.0027 0.0027 -0.0003
C1 0.0416(18) 0.0209(13) 0.0275(16) -0.0037(12) -0.0029(13) 0.0052(13)
C2 0.0386(16) 0.0230(14) 0.0188(13) 0.0008(11) 0.0019(11) 0.0023(12)
C3 0.0217(13) 0.0208(13) 0.0207(12) -0.0030(11) -0.0068(10) 0.0046(10)
C4 0.0378(16) 0.0187(13) 0.0348(16) -0.0047(12) 0.0081(14) -0.0015(12)
C5 0.0372(17) 0.0247(15) 0.0292(16) -0.0026(13) 0.0072(12) -0.0030(12)
C6 0.019 0.019 0.0189 -0.0009 -0.0029 0.0034
C7 0.0195 0.0154 0.0208 -0.0015 -0.002 0.0051
C8 0.0173 0.0179 0.0208 -0.002 -0.002 0.0015
C9 0.0206 0.0151 0.0284 0.0005 0.0007 0.0013
C10 0.0234 0.0157 0.0157 -0.001 -0.0029 0.004
Mn1A 0.018 0.0129 0.0196 0.00146 0.00111 0.00073
Mn1C 0.018 0.0129 0.0196 -0.00146 0.00111 -0.00073
O1A 0.0278 0.0193 0.0328 -0.0065 -0.012 0.006
O3C 0.035 0.0247 0.0233 -0.0001 -0.0035 -0.0131
O4C 0.0222 0.0163 0.0477 -0.0012 -0.0108 -0.0006
N2A 0.0254 0.0165 0.0188 0.0005 0 0.0044
O6 0.075(2) 0.0474(15) 0.0581(17) -0.0131(13) -0.0043(14) 0.0107(14)
loop_
_geom_bond_atom_site_label_1
_geom_bond_atom_site_label_2
_geom_bond_site_symmetry_1
_geom_bond_site_symmetry_2
Mn1 O2 1_555 1_555
O1 C10 1_555 1_555
O2 H1 1_555 1_555
H2 O2 1_555 1_555
O3 C10 1_555 1_555
O4 C9 1_555 1_555
O5 C9 1_555 1_555
N1 Mn1 1_555 1_555
N2 C6 1_555 1_555
N3 H3 1_555 1_555
C1 N1 1_555 1_555
H4 C1 1_555 1_555
C2 C1 1_555 1_555
H5 C2 1_555 1_555
C3 C2 1_555 1_555
C4 C3 1_555 1_555
H6 C4 1_555 1_555
C5 N1 1_555 1_555
H7 C5 1_555 1_555
C6 N3 1_555 1_555
C7 N2 1_555 1_555
C8 N3 1_555 1_555
C9 C8 1_555 1_555
C10 C7 1_555 1_555
Mn1A O1 1_555 1_555
Mn1C O3 1_555 1_555
O1A Mn1 1_555 1_555
O3C Mn1 1_555 1_555
O4C Mn1 1_555 1_555
N2A Mn1 1_555 1_555
O4 Mn1C 1_555 1_555
N2 Mn1A 1_555 1_555
C3 C6 1_555 1_555
C4 C5 1_555 1_555
C7 C8 1_555 1_555

#END
