
#######################################################################
#
#                 Cambridge Crystallographic Data Centre
#                                CCDC 
#
#######################################################################
#
# If this CIF has been generated from an entry in the Cambridge 
# Structural Database, then it will include bibliographic, chemical, 
# crystal, experimental, refinement or atomic coordinate data resulting 
# from the CCDC's data processing and validation procedures.
#
#######################################################################

data_BABREE
_chemical_formula_moiety         '(C101 H76 Cu12 O69 S2)n'
_symmetry_cell_setting           triclinic
_symmetry_space_group_name_H-M   'P -1'
_symmetry_Int_Tables_number      2
_space_group_name_Hall           '-P 1'
loop_
_symmetry_equiv_pos_site_id
_symmetry_equiv_pos_as_xyz
1 x,y,z
2 -x,-y,-z
_cell_length_a                   22.9056(6)
_cell_length_b                   24.2276(5)
_cell_length_c                   24.8145(6)
_cell_angle_alpha                61.777(2)
_cell_angle_beta                 63.599(3)
_cell_angle_gamma                77.407(2)
_cell_volume                     10867.6
loop_
_atom_site_label
_atom_site_type_symbol
_atom_site_fract_x
_atom_site_fract_y
_atom_site_fract_z
Cu1 Cu 0.04632(4) -0.10958(3) 0.94921(3)
Cu2 Cu 0.03222(4) -0.08435(3) 0.84060(3)
Cu3 Cu 0.06949(4) 0.35986(3) 0.58604(3)
Cu4 Cu -0.01414(4) -0.35228(3) 0.77386(3)
Cu5 Cu -0.01548(4) -0.47105(3) 0.85619(3)
Cu6 Cu 0.33680(4) 0.18944(3) 0.27492(3)
Cu7 Cu -0.37977(4) 0.11653(4) 0.87658(4)
Cu8 Cu 0.05591(4) 0.26645(3) 0.56661(3)
Cu9 Cu 0.44737(4) 0.24918(3) 0.20482(4)
Cu10 Cu -0.28710(4) 0.08636(4) 0.78495(3)
Cu11 Cu 0.42672(4) -0.22341(4) 0.57067(4)
Cu12 Cu 0.31999(4) -0.16949(4) 0.55415(4)
S1 S 0.08952(14) -0.09769(12) 1.05079(12)
S2 S 0.5807(2) -0.2526(2) 0.5530(2)
O1 O 0.3142(4) -0.5272(4) 0.7694(4)
H1 H 0.3062 -0.5389 0.8089
O2 O -0.0246(2) -0.33966(17) 0.84907(18)
O3 O 0.0619(2) -0.00121(16) 0.81233(18)
O4 O 0.0984(2) 0.28949(18) 0.65478(18)
O5 O 0.0328(2) -0.19659(17) 0.97283(18)
O6 O -0.0166(2) -0.43986(16) 0.91675(18)
O7 O -0.3446(3) -0.5193(3) 1.0077(3)
H2 H -0.3420 -0.5225 1.0409
O8 O -0.5799(5) 0.2805(4) 0.7093(4)
H3 H -0.6030 0.2729 0.6962
O9 O 0.0332(2) 0.40900(18) 0.51740(18)
O10 O 0.0047(2) -0.17247(17) 0.88799(18)
O11 O 0.0177(2) -0.42830(17) 1.09764(19)
O12 O 0.0778(2) 0.21168(17) 0.64243(18)
O13 O 0.0334(2) 0.33058(18) 0.49377(19)
O14 O 0.5162(2) -0.2681(2) 0.5813(2)
O15 O -0.4150(2) 0.1637(2) 0.8080(2)
O16 O 0.1387(2) -0.11812(19) 0.8940(2)
O17 O 0.0576(2) -0.02019(17) 0.91184(18)
O18 O 0.3571(7) 0.4716(7) 0.3212(7)
H4 H 0.3278 0.4966 0.3142
O19 O 0.4681(2) 0.2035(2) 0.1508(2)
O20 O -0.2414(2) 0.1599(2) 0.7602(2)
O21 O -0.0563(2) -0.05960(18) 0.88633(18)
O22 O -0.0913(2) 0.57600(18) 0.3894(2)
O23 O 0.0802(2) -0.3645(2) 0.7532(2)
O24 O 0.0011(2) 0.37702(18) 0.29455(18)
O25 O -0.05124(19) -0.09869(18) 0.98590(18)
O26 O 0.0111(2) 0.47947(17) 0.22124(19)
O27 O 0.3174(2) 0.2368(2) 0.3267(2)
O28 O -0.0339(2) 0.2707(2) 0.6301(2)
O29 O -0.1084(2) -0.36430(18) 0.8100(2)
O30 O -0.3073(2) -0.2630(2) 0.7872(2)
O31 O -0.3568(2) 0.1862(2) 0.5248(2)
O32 O 0.3801(2) 0.12436(18) 0.3295(2)
O33 O -0.4486(2) 0.2316(2) 0.5118(2)
O34 O -0.4028(2) -0.3144(2) 0.8501(2)
O35 O 0.1225(2) -0.11252(18) 0.80884(19)
O36 O -0.1088(2) -0.46299(19) 0.8865(2)
O37 O 0.0884(2) 0.19322(18) 0.8842(2)
H5 H 0.0748 0.1673 0.9233
O38 O -0.2531(2) 0.0384(2) 0.8546(2)
O39 O -0.3353(2) 0.1377(2) 0.7298(2)
O40 O 0.4258(2) -0.0428(2) 0.0948(2)
O41 O -0.3336(2) 0.0635(2) 0.9337(2)
O42 O 0.2991(2) -0.16103(19) 0.6355(2)
O43 O 0.0800(2) -0.4676(2) 0.8163(2)
O44 O -0.0190(2) 0.3437(2) 0.6527(2)
O45 O 0.45909(19) -0.13738(19) 0.5166(2)
O46 O 0.4098(2) 0.29054(19) 0.2642(2)
O47 O 0.4737(2) 0.1762(2) 0.2718(2)
O48 O 0.5417(2) 0.2923(2) 0.1514(2)
O49 O 0.1494(2) 0.28247(19) 0.50613(19)
O50 O 0.3683(2) -0.09103(19) 0.5000(2)
O51 O 0.3453(2) -0.0169(2) 0.1750(2)
O52 O 0.1559(2) 0.36804(19) 0.51581(19)
O53 O 0.0606(2) -0.13527(19) 1.03680(18)
O54 O 0.3902(2) -0.2090(2) 0.6516(2)
O55 O 0.3729(2) 0.1526(2) 0.2107(2)
O56 O 0.3764(2) -0.3025(2) 0.6238(2)
O57 O -0.3210(2) 0.1850(2) 0.8388(2)
O58 O 0.3620(2) -0.2109(3) 0.8649(2)
H6 H 0.3655 -0.1832 0.8734
O59 O 0.5544(2) 0.1557(2) -0.0539(2)
O60 O 0.2855(2) -0.2554(2) 0.6103(2)
O61 O 0.0174(3) -0.0643(2) 0.7521(2)
H7 H -0.0128 -0.0895 0.7596
H8 H 0.0550 -0.0698 0.7199
O62 O -0.0122(3) -0.2533(2) 0.7110(3)
H9 H 0.0181 -0.2452 0.6715
H10 H -0.0037 -0.2329 0.7275
O63 O -0.2108(3) 0.0560(3) 0.7132(3)
H11 H -0.2036 0.0169 0.7329
H12 H -0.2229 0.0626 0.6827
O64 O 0.0448(3) 0.1918(3) 0.5490(3)
H13 H 0.0067 0.1771 0.5749
H14 H 0.0729 0.1632 0.5576
O65 O 0.6146(2) 0.0397(2) 0.3933(3)
H15 H 0.6195 0.0768 0.3813
O66 O 0.2290(3) -0.1260(3) 0.5429(3)
H16 H 0.2200 -0.0895 0.5466
H17 H 0.1948 -0.1510 0.5745
O67 O -0.2356(3) 0.3639(3) 0.8258(3)
H18 H -0.2294 0.4008 0.7989
O68 O 0.2435(3) 0.1428(3) 0.3279(3)
H19 H 0.2126 0.1688 0.3357
H20 H 0.2418 0.1120 0.3650
O69 O -0.2806(3) -0.0705(3) 1.1365(3)
H21 H -0.3152 -0.0865 1.1495
C1 C -0.3114(4) -0.4667(4) 0.9543(4)
C2 C -0.4848(5) 0.2237(4) 0.7291(5)
H22 H -0.5018 0.2230 0.7711
C3 C -0.5185(6) 0.2539(6) 0.6867(6)
C4 C 0.2785(5) -0.4711(5) 0.7479(5)
C5 C -0.0515(3) 0.3033(3) 0.6606(3)
C6 C -0.0165(3) -0.3824(2) 0.9000(3)
C7 C 0.0633(3) 0.0152(3) 0.8537(3)
C8 C 0.3542(3) 0.2792(3) 0.3085(3)
C9 C 0.0157(3) -0.2100(2) 0.9392(3)
C10 C 0.5619(7) -0.2068(7) 0.5861(7)
H23 H 0.5410 -0.2296 0.6336
H24 H 0.5327 -0.1751 0.5700
H25 H 0.6005 -0.1874 0.5751
C11 C -0.4006(3) 0.1915(3) 0.6455(3)
H26 H -0.3605 0.1720 0.6317
C12 C -0.0056(3) -0.2972(2) 0.9245(3)
H27 H -0.0105 -0.2678 0.8856
C13 C 0.1755(3) 0.3286(3) 0.4903(3)
C14 C -0.2662(3) 0.1922(3) 0.7929(3)
C15 C 0.6012(9) -0.2081(9) 0.4594(9)
H28 H 0.5616 -0.1981 0.4520
H29 H 0.6287 -0.2337 0.4375
H30 H 0.6234 -0.1701 0.4417
C16 C 0.3989(3) -0.0069(3) 0.1266(3)
C17 C -0.1363(3) -0.4131(3) 0.8559(3)
C18 C 0.0061(3) -0.2785(2) 0.9634(3)
C19 C 0.0865(3) 0.1682(3) 0.8454(3)
C20 C -0.0031(3) -0.4058(3) 1.0033(3)
H31 H -0.0057 -0.4484 1.0165
C21 C 0.0893(3) 0.2336(3) 0.6728(3)
C22 C -0.0101(3) -0.3623(3) 0.9452(3)
C23 C -0.4120(4) 0.2117(3) 0.5425(3)
C24 C 0.4267(4) 0.1658(3) 0.1640(3)
C25 C 0.0141(3) -0.3223(3) 1.0213(3)
H32 H 0.0236 -0.3091 1.0461
C26 C 0.0944(3) 0.2094(3) 0.7808(3)
H33 H 0.1021 0.2514 0.7652
C27 C 0.1571(3) -0.1241(3) 0.8409(3)
C28 C 0.4271(3) -0.0911(3) 0.4908(3)
C29 C 0.0005(3) 0.4355(3) 0.2784(3)
C30 C -0.0324(3) 0.4849(3) 0.4339(3)
H34 H -0.0367 0.4960 0.4666
C31 C 0.1085(3) -0.4160(3) 0.7750(3)
C32 C -0.0006(3) 0.4290(3) 0.4327(3)
C33 C 0.2687(3) 0.3057(3) 0.3998(3)
H35 H 0.2462 0.2701 0.4150
C34 C 0.0777(3) 0.1053(3) 0.8686(3)
H36 H 0.0735 0.0776 0.9118
C35 C 0.0810(3) 0.1243(3) 0.7623(3)
H37 H 0.0786 0.1091 0.7352
C36 C 0.2487(3) -0.1513(3) 0.7537(3)
H38 H 0.2237 -0.1377 0.7286
C37 C -0.2802(3) 0.0371(3) 0.9106(3)
C38 C 0.0908(3) 0.1888(3) 0.7386(3)
C39 C -0.0142(3) 0.4537(3) 0.3340(3)
C40 C 0.0080(3) -0.3855(3) 1.0422(3)
C41 C 0.0233(3) 0.3864(3) 0.4869(3)
C42 C 0.3493(3) -0.1978(3) 0.7687(3)
H39 H 0.3896 -0.2168 0.7546
C43 C 0.4163(3) 0.0808(3) 0.1400(3)
H40 H 0.3820 0.0657 0.1817
C44 C -0.2424(3) -0.3634(3) 0.8501(3)
H41 H -0.2199 -0.3273 0.8153
C45 C 0.0751(3) 0.0839(3) 0.8278(3)
C46 C 0.0065(3) 0.4123(3) 0.3843(3)
H42 H 0.0249 0.3738 0.3852
C47 C 0.3362(3) -0.1828(3) 0.6676(3)
C48 C 0.4614(3) -0.0293(3) 0.4461(3)
C49 C 0.3266(3) 0.3196(3) 0.3458(3)
C50 C 0.4379(4) 0.1299(3) 0.3155(3)
C51 C -0.1519(3) -0.0554(3) 0.9771(3)
C52 C 0.2432(3) 0.3442(3) 0.4325(3)
C53 C -0.1834(3) -0.0213(3) 0.9339(3)
H43 H -0.1619 -0.0121 0.8888
C54 C -0.2088(3) -0.4142(3) 0.8807(3)
C55 C 0.4686(3) 0.0769(3) 0.3613(3)
C56 C -0.1219(4) 0.2976(3) 0.7114(3)
C57 C 0.2246(3) -0.1465(3) 0.8138(3)
C58 C 0.2629(3) -0.1644(3) 0.8513(3)
H44 H 0.2471 -0.1597 0.8905
C59 C -0.3086(3) -0.3654(3) 0.8703(3)
C60 C 0.3173(3) -0.3021(3) 0.6350(3)
C61 C -0.0813(3) -0.0730(3) 0.9479(3)
C62 C -0.0462(3) 0.5090(3) 0.3323(3)
H45 H -0.0599 0.5357 0.2982
C63 C 0.3258(4) -0.1895(3) 0.8276(3)
C64 C 0.4344(3) 0.0211(3) 0.4071(3)
H46 H 0.3927 0.0179 0.4113
C65 C -0.3896(4) 0.1629(3) 0.7530(4)
C66 C 0.4487(3) 0.1337(3) 0.1187(3)
C67 C 0.4338(3) 0.0500(3) 0.1010(3)
C68 C 0.3105(3) -0.1767(3) 0.7317(3)
C69 C 0.5569(3) 0.0325(3) 0.3960(4)
C70 C -0.2471(4) 0.2803(4) 0.8059(4)
H47 H -0.2898 0.2755 0.8374
C71 C 0.2146(4) -0.3621(3) 0.7033(3)
H48 H 0.1918 -0.3257 0.6869
C72 C -0.4354(4) 0.2169(4) 0.6055(4)
C73 C -0.1610(3) 0.2514(3) 0.7269(3)
H49 H -0.1444 0.2256 0.7050
C74 C 0.5110(3) 0.1297(3) 0.0126(3)
C75 C -0.0574(3) 0.5238(3) 0.3862(3)
C76 C 0.4959(3) 0.1613(3) 0.0531(3)
H50 H 0.5163 0.1984 0.0370
C77 C -0.3433(3) -0.3098(3) 0.8335(4)
C78 C -0.2239(3) 0.2431(3) 0.7742(3)
C79 C 0.1811(3) -0.4174(3) 0.7495(3)
C80 C 0.2814(4) -0.3599(3) 0.6810(4)
C81 C 0.4833(3) 0.0753(3) 0.0351(3)
H51 H 0.4962 0.0545 0.0082
C82 C 0.3602(4) 0.3744(4) 0.3233(4)
H52 H 0.3998 0.3847 0.2865
C83 C -0.2457(4) -0.0016(3) 0.9582(3)
C84 C -0.2084(4) 0.3257(4) 0.7925(4)
C85 C 0.5224(4) -0.0237(3) 0.4400(4)
H53 H 0.5414 -0.0577 0.4654
C86 C 0.5286(3) 0.0819(3) 0.3587(4)
H54 H 0.5504 0.1199 0.3307
C87 C -0.4252(4) 0.1948(4) 0.7061(4)
C88 C -0.1464(4) 0.3351(3) 0.7441(4)
H55 H -0.1211 0.3669 0.7335
C89 C -0.3429(4) -0.4171(3) 0.9227(4)
H56 H -0.3878 -0.4182 0.9365
C90 C -0.2805(4) -0.0175(4) 1.0262(4)
H57 H -0.3234 -0.0044 1.0430
C91 C 0.2763(4) 0.3971(4) 0.4105(4)
H58 H 0.2595 0.4227 0.4327
C92 C -0.2473(4) -0.0542(5) 1.0676(4)
C93 C 0.2108(4) -0.4720(4) 0.7723(4)
H59 H 0.1875 -0.5089 0.8030
C94 C -0.1843(4) -0.0722(4) 1.0427(3)
H60 H -0.1634 -0.0964 1.0714
C95 C 0.3340(5) 0.4114(4) 0.3560(5)
C96 C -0.2440(4) -0.4680(4) 0.9334(4)
H61 H -0.2227 -0.5037 0.9538
C97 C 0.1732(5) -0.0888(5) 0.9946(5)
H62 H 0.1764 -0.0634 0.9498
H63 H 0.1923 -0.1293 0.9986
H64 H 0.1959 -0.0690 1.0053
C98 C 0.0997(5) -0.1500(5) 1.1276(4)
H65 H 0.1040 -0.1923 1.1327
H66 H 0.0624 -0.1466 1.1646
H67 H 0.1382 -0.1389 1.1264
C99 C 0.3149(4) -0.4160(4) 0.7012(4)
H68 H 0.3602 -0.4172 0.6844
C100 C -0.4937(5) 0.2468(5) 0.6259(5)
H69 H -0.5177 0.2628 0.5997
C101 C 0.5647(5) 0.3468(5) 0.1531(6)
H70 H 0.5556 0.3860 0.1211
H71 H 0.6107 0.3428 0.1423
H72 H 0.5420 0.3454 0.1968
Cu3A Cu -0.06949(4) 0.64014(3) 0.41396(3)
Cu4A Cu 0.01414(4) 0.35228(3) 0.22614(3)
Cu5A Cu 0.01548(4) -0.52895(3) 1.14381(3)
Cu5A_2 Cu 0.01548(4) 0.47105(3) 0.14381(3)
Cu6A Cu -0.33680(4) -0.18944(3) 0.72508(3)
Cu7_2 Cu 0.62023(4) 0.11653(4) -0.12342(4)
Cu7A Cu 0.37977(4) -0.11653(4) 0.12342(4)
Cu9A Cu -0.44737(4) -0.24918(3) 0.79518(4)
Cu10A Cu 0.28710(4) -0.08636(4) 0.21505(3)
Cu11A Cu -0.42672(4) 0.22341(4) 0.42933(4)
Cu12A Cu -0.31999(4) 0.16949(4) 0.44585(4)
O11A O -0.0177(2) -0.57170(17) 0.90236(19)
O22A O 0.0913(2) 0.42400(18) 0.6106(2)
O24A O -0.0011(2) -0.37702(18) 0.70545(18)
O26A O -0.0111(2) -0.47947(17) 0.77876(19)
O30A O 0.3073(2) 0.2630(2) 0.2128(2)
O31A O 0.3568(2) -0.1862(2) 0.4752(2)
O33A O 0.4486(2) -0.2316(2) 0.4882(2)
O34A O 0.4028(2) 0.3144(2) 0.1499(2)
O40A O -0.4258(2) 0.0428(2) 0.9052(2)
O51A O -0.3453(2) 0.0169(2) 0.8250(2)
O59_2 O -0.4456(2) 0.1557(2) 0.9461(2)
loop_
_geom_bond_atom_site_label_1
_geom_bond_atom_site_label_2
_geom_bond_site_symmetry_1
_geom_bond_site_symmetry_2
Cu1 Cu2 1_555 1_555
Cu2 O3 1_555 1_555
Cu3 Cu8 1_555 1_555
Cu4 Cu5 1_555 1_555
Cu5 O6 1_555 1_555
Cu6 Cu9 1_555 1_555
Cu7 Cu10 1_555 1_555
Cu8 O12 1_555 1_555
Cu9 O19 1_555 1_555
Cu10 O20 1_555 1_555
Cu11 Cu12 1_555 1_555
Cu12 O42 1_555 1_555
S1 O53 1_555 1_555
S2 O14 1_555 1_555
O1 H1 1_555 1_555
O2 Cu4 1_555 1_555
O3 C7 1_555 1_555
O4 Cu3 1_555 1_555
O5 Cu1 1_555 1_555
O6 C6 1_555 1_555
O7 H2 1_555 1_555
O8 H3 1_555 1_555
O9 Cu3 1_555 1_555
O10 Cu2 1_555 1_555
O11 C40 1_555 1_555
O12 C21 1_555 1_555
O13 Cu8 1_555 1_555
O14 Cu11 1_555 1_555
O15 Cu7 1_555 1_555
O16 Cu1 1_555 1_555
O17 Cu1 1_555 1_555
O18 H4 1_555 1_555
O19 C24 1_555 1_555
O20 C14 1_555 1_555
O21 Cu2 1_555 1_555
O22 C75 1_555 1_555
O23 Cu4 1_555 1_555
O24 C29 1_555 1_555
O25 Cu1 1_555 1_555
O26 C29 1_555 1_555
O27 Cu6 1_555 1_555
O28 Cu8 1_555 1_555
O29 Cu4 1_555 1_555
O30 C77 1_555 1_555
O31 C23 1_555 1_555
O32 Cu6 1_555 1_555
O33 C23 1_555 1_555
O34 C77 1_555 1_555
O35 Cu2 1_555 1_555
O36 Cu5 1_555 1_555
O37 H5 1_555 1_555
O38 Cu10 1_555 1_555
O39 Cu10 1_555 1_555
O40 C16 1_555 1_555
O41 Cu7 1_555 1_555
O42 C47 1_555 1_555
O43 Cu5 1_555 1_555
O44 Cu3 1_555 1_555
O45 Cu11 1_555 1_555
O46 Cu9 1_555 1_555
O47 Cu9 1_555 1_555
O48 Cu9 1_555 1_555
O49 Cu8 1_555 1_555
O50 Cu12 1_555 1_555
O51 C16 1_555 1_555
O52 Cu3 1_555 1_555
O53 Cu1 1_555 1_555
O54 Cu11 1_555 1_555
O55 Cu6 1_555 1_555
O56 Cu11 1_555 1_555
O57 Cu7 1_555 1_555
O58 H6 1_555 1_555
O59 C74 1_555 1_555
O60 Cu12 1_555 1_555
O61 Cu2 1_555 1_555
H7 O61 1_555 1_555
H8 O61 1_555 1_555
O62 Cu4 1_555 1_555
H9 O62 1_555 1_555
H10 O62 1_555 1_555
O63 Cu10 1_555 1_555
H11 O63 1_555 1_555
H12 O63 1_555 1_555
O64 Cu8 1_555 1_555
H13 O64 1_555 1_555
H14 O64 1_555 1_555
O65 H15 1_555 1_555
O66 Cu12 1_555 1_555
H16 O66 1_555 1_555
H17 O66 1_555 1_555
O67 H18 1_555 1_555
O68 Cu6 1_555 1_555
H19 O68 1_555 1_555
H20 O68 1_555 1_555
O69 H21 1_555 1_555
C1 O7 1_555 1_555
C2 H22 1_555 1_555
C3 O8 1_555 1_555
C4 O1 1_555 1_555
C5 O28 1_555 1_555
C6 O2 1_555 1_555
C7 O17 1_555 1_555
C8 O27 1_555 1_555
C9 O5 1_555 1_555
C10 S2 1_555 1_555
H23 C10 1_555 1_555
H24 C10 1_555 1_555
H25 C10 1_555 1_555
C11 H26 1_555 1_555
C12 H27 1_555 1_555
C13 O49 1_555 1_555
C14 O57 1_555 1_555
C15 S2 1_555 1_555
H28 C15 1_555 1_555
H29 C15 1_555 1_555
H30 C15 1_555 1_555
C16 C67 1_555 1_555
C17 O29 1_555 1_555
C18 C9 1_555 1_555
C19 O37 1_555 1_555
C20 H31 1_555 1_555
C21 O4 1_555 1_555
C22 C6 1_555 1_555
C23 C72 1_555 1_555
C24 O55 1_555 1_555
C25 C18 1_555 1_555
H32 C25 1_555 1_555
C26 C19 1_555 1_555
H33 C26 1_555 1_555
C27 O16 1_555 1_555
C28 O45 1_555 1_555
C29 C39 1_555 1_555
C30 H34 1_555 1_555
C31 O23 1_555 1_555
C32 C30 1_555 1_555
C33 H35 1_555 1_555
C34 C19 1_555 1_555
H36 C34 1_555 1_555
C35 H37 1_555 1_555
C36 H38 1_555 1_555
C37 O38 1_555 1_555
C38 C21 1_555 1_555
C39 C46 1_555 1_555
C40 C20 1_555 1_555
C41 O9 1_555 1_555
C42 H39 1_555 1_555
C43 H40 1_555 1_555
C44 H41 1_555 1_555
C45 C7 1_555 1_555
C46 C32 1_555 1_555
H42 C46 1_555 1_555
C47 O54 1_555 1_555
C48 C28 1_555 1_555
C49 C8 1_555 1_555
C50 O32 1_555 1_555
C51 C53 1_555 1_555
C52 C13 1_555 1_555
C53 H43 1_555 1_555
C54 C17 1_555 1_555
C55 C50 1_555 1_555
C56 C5 1_555 1_555
C57 C27 1_555 1_555
C58 C57 1_555 1_555
H44 C58 1_555 1_555
C59 C44 1_555 1_555
C60 O56 1_555 1_555
C61 O21 1_555 1_555
C62 C39 1_555 1_555
H45 C62 1_555 1_555
C63 O58 1_555 1_555
C64 C48 1_555 1_555
H46 C64 1_555 1_555
C65 O15 1_555 1_555
C66 C24 1_555 1_555
C67 C43 1_555 1_555
C68 C36 1_555 1_555
C69 O65 1_555 1_555
C70 H47 1_555 1_555
C71 H48 1_555 1_555
C72 C11 1_555 1_555
C73 C56 1_555 1_555
H49 C73 1_555 1_555
C74 C76 1_555 1_555
C75 C30 1_555 1_555
C76 C66 1_555 1_555
H50 C76 1_555 1_555
C77 C59 1_555 1_555
C78 C14 1_555 1_555
C79 C31 1_555 1_555
C80 C60 1_555 1_555
C81 C67 1_555 1_555
H51 C81 1_555 1_555
C82 C49 1_555 1_555
H52 C82 1_555 1_555
C83 C37 1_555 1_555
C84 O67 1_555 1_555
C85 C48 1_555 1_555
H53 C85 1_555 1_555
C86 C55 1_555 1_555
H54 C86 1_555 1_555
C87 C2 1_555 1_555
C88 C56 1_555 1_555
H55 C88 1_555 1_555
C89 C1 1_555 1_555
H56 C89 1_555 1_555
C90 C83 1_555 1_555
H57 C90 1_555 1_555
C91 C52 1_555 1_555
H58 C91 1_555 1_555
C92 O69 1_555 1_555
C93 C4 1_555 1_555
H59 C93 1_555 1_555
C94 C51 1_555 1_555
H60 C94 1_555 1_555
C95 O18 1_555 1_555
C96 C1 1_555 1_555
H61 C96 1_555 1_555
C97 S1 1_555 1_555
H62 C97 1_555 1_555
H63 C97 1_555 1_555
H64 C97 1_555 1_555
C98 S1 1_555 1_555
H65 C98 1_555 1_555
H66 C98 1_555 1_555
H67 C98 1_555 1_555
C99 C4 1_555 1_555
H68 C99 1_555 1_555
C100 C3 1_555 1_555
H69 C100 1_555 1_555
C101 O48 1_555 1_555
H70 C101 1_555 1_555
H71 C101 1_555 1_555
H72 C101 1_555 1_555
Cu3A O22 1_555 1_555
Cu4A O24 1_555 1_555
Cu5A O11 1_555 1_555
Cu5A_2 O26 1_555 1_555
Cu6A O30 1_555 1_555
Cu7_2 O59 1_555 1_555
Cu7A O40 1_555 1_555
Cu9A O34 1_555 1_555
Cu10A O51 1_555 1_555
Cu11A O33 1_555 1_555
Cu12A O31 1_555 1_555
O11A Cu5 1_555 1_555
O22A Cu3 1_555 1_555
O24A Cu4 1_555 1_555
O26A Cu5 1_555 1_555
O30A Cu6 1_555 1_555
O31A Cu12 1_555 1_555
O33A Cu11 1_555 1_555
O34A Cu9 1_555 1_555
O40A Cu7 1_555 1_555
O51A Cu10 1_555 1_555
O59_2 Cu7 1_555 1_555
O10 C9 1_555 1_555
O13 C41 1_555 1_555
O25 C61 1_555 1_555
O35 C27 1_555 1_555
O36 C17 1_555 1_555
O39 C65 1_555 1_555
O41 C37 1_555 1_555
O43 C31 1_555 1_555
O44 C5 1_555 1_555
O46 C8 1_555 1_555
O47 C50 1_555 1_555
O50 C28 1_555 1_555
O52 C13 1_555 1_555
O60 C60 1_555 1_555
C2 C3 1_555 1_555
C11 C87 1_555 1_555
C12 C18 1_555 1_555
C12 C22 1_555 1_555
C20 C22 1_555 1_555
C25 C40 1_555 1_555
C26 C38 1_555 1_555
C32 C41 1_555 1_555
C33 C49 1_555 1_555
C33 C52 1_555 1_555
C34 C45 1_555 1_555
C35 C38 1_555 1_555
C35 C45 1_555 1_555
C36 C57 1_555 1_555
C42 C63 1_555 1_555
C42 C68 1_555 1_555
C43 C66 1_555 1_555
C44 C54 1_555 1_555
C47 C68 1_555 1_555
C51 C61 1_555 1_555
C53 C83 1_555 1_555
C54 C96 1_555 1_555
C55 C64 1_555 1_555
C58 C63 1_555 1_555
C59 C89 1_555 1_555
C62 C75 1_555 1_555
C65 C87 1_555 1_555
C69 C85 1_555 1_555
C69 C86 1_555 1_555
C70 C78 1_555 1_555
C70 C84 1_555 1_555
C71 C79 1_555 1_555
C71 C80 1_555 1_555
C72 C100 1_555 1_555
C73 C78 1_555 1_555
C74 C81 1_555 1_555
C79 C93 1_555 1_555
C80 C99 1_555 1_555
C82 C95 1_555 1_555
C84 C88 1_555 1_555
C90 C92 1_555 1_555
C91 C95 1_555 1_555
C92 C94 1_555 1_555
Cu4A Cu5A_2 1_555 1_555
Cu6A Cu9A 1_555 1_555
Cu7A Cu10A 1_555 1_555
Cu11A Cu12A 1_555 1_555

#END
