
#######################################################################
#
#                 Cambridge Crystallographic Data Centre
#                                CCDC 
#
#######################################################################
#
# If this CIF has been generated from an entry in the Cambridge 
# Structural Database, then it will include bibliographic, chemical, 
# crystal, experimental, refinement or atomic coordinate data resulting 
# from the CCDC's data processing and validation procedures.
#
#######################################################################

data_GAVYAG
_chemical_formula_moiety         '(C28 H24 N11 O8 Zn2 1-)n'
_symmetry_cell_setting           monoclinic
_symmetry_space_group_name_H-M   'P 21/c'
_symmetry_Int_Tables_number      14
_space_group_name_Hall           '-P 2ybc'
loop_
_symmetry_equiv_pos_site_id
_symmetry_equiv_pos_as_xyz
1 x,y,z
2 -x,1/2+y,1/2-z
3 -x,-y,-z
4 x,1/2-y,1/2+z
_cell_length_a                   10.370(2)
_cell_length_b                   10.025(2)
_cell_length_c                   19.575(4)
_cell_angle_alpha                90
_cell_angle_beta                 92.13(3)
_cell_angle_gamma                90
_cell_volume                     2033.6
loop_
_atom_site_label
_atom_site_type_symbol
_atom_site_fract_x
_atom_site_fract_y
_atom_site_fract_z
Zn1 Zn 0.99133(9) 0.74199(9) 0.34104(5)
O1 O 0.9340(6) 0.6358(7) 0.4463(4)
O2 O 0.8034(6) 0.6816(7) 0.3602(4)
O3 O 1.0469(5) 0.9370(6) 0.4348(3)
O4 O 1.1649(5) 0.7933(6) 0.3791(3)
N1 N 1.1682(6) 0.5517(7) 0.2712(4)
N2 N 1.0397(6) 0.5817(7) 0.2827(4)
N3 N 0.8413(7) 0.4814(7) 0.2516(4)
H1 H 0.798245 0.543582 0.270595
H2 H 0.801470 0.416214 0.231509
N4 N 1.0484(6) 0.3997(7) 0.2217(4)
N5 N 1.1710(7) 0.4451(7) 0.2339(4)
C1 C 0.4844(8) 0.5382(8) 0.4711(4)
C2 C 1.5058(8) 0.9643(8) 0.4684(4)
C3 C 0.7144(8) 0.5701(8) 0.4563(4)
C4 C 0.5882(8) 0.5908(8) 0.4329(4)
H3 H 0.571042 0.638253 0.392726
C5 C 1.2748(8) 0.9387(8) 0.4595(5)
C6 C 1.6316(8) 0.9444(9) 0.4434(4)
H4 H 1.641262 0.901662 0.401767
C7 C 1.3926(7) 0.9160(8) 0.4348(4)
H5 H 1.399319 0.867432 0.394593
C8 C 0.9725(7) 0.4860(8) 0.2532(4)
C9 C 1.2625(8) 1.0128(8) 0.5202(4)
H6 H 1.180823 1.032573 0.535382
C10 C 0.3557(8) 0.5588(9) 0.4487(5)
H7 H 0.337410 0.608405 0.409361
C11 C 0.8230(9) 0.6337(9) 0.4194(5)
C12 C 1.1550(8) 0.8886(9) 0.4219(4)
C13 C 0.7442(8) 0.4947(9) 0.5150(5)
H8 H 0.829659 0.480832 0.529364
O1B O 0.0660(6) 0.3642(7) 0.5537(4)
O2B O 0.1966(6) 0.3184(7) 0.6398(4)
C1B C 0.5156(8) 0.4618(8) 0.5289(4)
C3B C 0.2856(8) 0.4299(8) 0.5437(4)
C4B C 0.4118(8) 0.4092(8) 0.5671(4)
H3B H 0.428958 0.361747 0.607274
C10B C 0.6443(8) 0.4412(9) 0.5513(5)
H7B H 0.662590 0.391595 0.590639
C11B C 0.1770(9) 0.3663(9) 0.5806(5)
C13B C 0.2558(8) 0.5053(9) 0.4850(5)
H8B H 0.170341 0.519168 0.470636
O3B O 1.9531(5) 1.0630(6) 0.5652(3)
O4B O 1.8351(5) 1.2067(6) 0.6209(3)
C2B C 1.4942(8) 1.0357(8) 0.5316(4)
C5B C 1.7252(8) 1.0613(8) 0.5405(5)
C6B C 1.3684(8) 1.0556(9) 0.5566(4)
H4B H 1.358738 1.098338 0.598233
C7B C 1.6074(7) 1.0840(8) 0.5652(4)
H5B H 1.600681 1.132568 0.605407
C9B C 1.7375(8) 0.9872(8) 0.4798(4)
H6B H 1.819177 0.967427 0.464618
C12B C 1.8450(8) 1.1114(9) 0.5781(4)
Zn1B Zn 0.00867(9) 0.25801(9) 0.65896(5)
N1B N -0.1682(6) 0.4483(7) 0.7288(4)
N2B N -0.0397(6) 0.4183(7) 0.7173(4)
N3B N 0.1587(7) 0.5186(7) 0.7484(4)
H1B H 0.201755 0.456418 0.729405
H2B H 0.198530 0.583786 0.768491
N4B N -0.0484(6) 0.6003(7) 0.7783(4)
N5B N -0.1710(7) 0.5549(7) 0.7661(4)
C8B C 0.0275(7) 0.5140(8) 0.7468(4)
Zn1A Zn 1.00867(9) 0.24199(9) 0.15896(5)
Zn1B_2 Zn 2.00867(9) 1.25801(9) 0.65896(5)
Zn1C Zn -0.00867(9) 0.75801(9) 0.84104(5)
O4B_2 O -0.1649(5) 0.2067(6) 0.6209(3)
N4A N 0.9516(6) 0.8997(7) 0.2783(4)
N4C N 0.0484(6) 0.1003(7) 0.7217(4)
N6 N 0.0287(8) 0.2163(7) 0.4313(4)
H9 H 0.028655 0.130082 0.442163
H10 H 0.041040 0.262427 0.469880
C14 C 0.1382(13) 0.2430(11) 0.3859(6)
H11 H 0.128269 0.189832 0.345264
H12 H 0.218101 0.220664 0.409505
H13 H 0.138722 0.335773 0.373699
C15 C -0.1001(12) 0.2521(11) 0.3999(7)
H14 H -0.099540 0.343812 0.385830
H15 H -0.165386 0.239150 0.432757
H16 H -0.118164 0.196259 0.360843
loop_
_geom_bond_atom_site_label_1
_geom_bond_atom_site_label_2
_geom_bond_site_symmetry_1
_geom_bond_site_symmetry_2
Zn1 O1 1_555 1_555
O1 C11 1_555 1_555
O2 Zn1 1_555 1_555
O3 C12 1_555 1_555
O4 Zn1 1_555 1_555
N1 N2 1_555 1_555
N2 Zn1 1_555 1_555
N3 H1 1_555 1_555
H2 N3 1_555 1_555
N4 N5 1_555 1_555
N5 N1 1_555 1_555
C1 C4 1_555 1_555
C2 C6 1_555 1_555
C3 C4 1_555 1_555
C4 H3 1_555 1_555
C5 C7 1_555 1_555
C6 H4 1_555 1_555
C7 C2 1_555 1_555
H5 C7 1_555 1_555
C8 N2 1_555 1_555
C9 C5 1_555 1_555
H6 C9 1_555 1_555
C10 C1 1_555 1_555
H7 C10 1_555 1_555
C11 O2 1_555 1_555
C12 O4 1_555 1_555
C13 C3 1_555 1_555
H8 C13 1_555 1_555
N6 H9 1_555 1_555
H10 N6 1_555 1_555
C14 N6 1_555 1_555
H11 C14 1_555 1_555
H12 C14 1_555 1_555
H13 C14 1_555 1_555
C15 N6 1_555 1_555
H14 C15 1_555 1_555
H15 C15 1_555 1_555
H16 C15 1_555 1_555
O1B C11B 1_555 1_555
O2B C11B 1_555 1_555
C1B C1 1_555 1_555
C3B C4B 1_555 1_555
C4B C1B 1_555 1_555
H3B C4B 1_555 1_555
C10B C13 1_555 1_555
H7B C10B 1_555 1_555
C11B C3B 1_555 1_555
C13B C10 1_555 1_555
H8B C13B 1_555 1_555
O3B C12B 1_555 1_555
O4B C12B 1_555 1_555
C2B C2 1_555 1_555
C5B C7B 1_555 1_555
C6B C9 1_555 1_555
H4B C6B 1_555 1_555
C7B C2B 1_555 1_555
H5B C7B 1_555 1_555
C9B C6 1_555 1_555
H6B C9B 1_555 1_555
C12B C5B 1_555 1_555
Zn1B O1B 1_555 1_555
N1B N2B 1_555 1_555
N2B Zn1B 1_555 1_555
N3B H1B 1_555 1_555
H2B N3B 1_555 1_555
N4B N5B 1_555 1_555
N5B N1B 1_555 1_555
C8B N2B 1_555 1_555
Zn1A N4 1_555 1_555
Zn1B_2 O4B 1_555 1_555
Zn1C N4B 1_555 1_555
O4B_2 Zn1B 1_555 1_555
N4A Zn1 1_555 1_555
N4C Zn1B 1_555 1_555
N3 C8 1_555 1_555
N4 C8 1_555 1_555
C3 C11 1_555 1_555
C5 C12 1_555 1_555
O2B Zn1B 1_555 1_555
C1B C10B 1_555 1_555
C3B C13B 1_555 1_555
C2B C6B 1_555 1_555
C5B C9B 1_555 1_555
N3B C8B 1_555 1_555
N4B C8B 1_555 1_555

#END
