
#######################################################################
#
#                 Cambridge Crystallographic Data Centre
#                                CCDC 
#
#######################################################################
#
# If this CIF has been generated from an entry in the Cambridge 
# Structural Database, then it will include bibliographic, chemical, 
# crystal, experimental, refinement or atomic coordinate data resulting 
# from the CCDC's data processing and validation procedures.
#
#######################################################################

data_IJEXUS
_chemical_formula_moiety         '(C148 H66 Cu3 Mn4 N18 Na3 O36 1+)n'
_symmetry_cell_setting           tetragonal
_symmetry_space_group_name_H-M   'P 4/m m m'
_symmetry_Int_Tables_number      123
_space_group_name_Hall           '-P 4 2'
loop_
_symmetry_equiv_pos_site_id
_symmetry_equiv_pos_as_xyz
1 x,y,z
2 -x,-y,z
3 -y,x,z
4 y,-x,z
5 -x,y,-z
6 x,-y,-z
7 y,x,-z
8 -y,-x,-z
9 -x,-y,-z
10 x,y,-z
11 y,-x,-z
12 -y,x,-z
13 x,-y,z
14 -x,y,z
15 -y,-x,z
16 y,x,z
_cell_length_a                   36.6089(19)
_cell_length_b                   36.6089(19)
_cell_length_c                   15.3988(8)
_cell_angle_alpha                90
_cell_angle_beta                 90
_cell_angle_gamma                90
_cell_volume                     20637.6
loop_
_atom_site_label
_atom_site_type_symbol
_atom_site_fract_x
_atom_site_fract_y
_atom_site_fract_z
Na1 Na 0.3632(4) 1.1577(5) 0.5000
Na2 Na 0.2692(3) 1.2692(3) 0.4315(6)
O14 O 0.2930(6) 1.1486(5) 0.4654(13)
O15 O 0.3139(6) 1.3139(6) 0.5000
O16 O 0.3248(6) 1.3038(6) 0.3619(14)
O17 O 0.2987(6) 1.2143(6) 0.5000
O18 O 0.2451(6) 1.2129(6) 0.5000
Na3 Na 0.5000 0.7512(2) 0.0000
O19 O 0.4716(7) 0.7525(7) 0.1320(15)
O20 O 0.4653(6) 0.7973(6) -0.0432(13)
O21 O 0.4162(6) 1.0000 0.1055(14)
O22 O 0.4268(5) 1.0760(5) -0.0969(12)
O23 O 0.2538(4) 1.1391(4) 0.3833(8)
O24 O 0.2978(5) 0.7022(5) 0.1832(16)
O25 O 0.3220(5) 1.1288(5) 2.0000
O26 O 0.4223(4) 1.0437(4) 0.0000
O27 O 0.4467(13) 1.0000 0.0000
Mn2 Mn 0.5000 0.5000 0.2966
N4 N 0.4790 0.5534 0.2310
C25 C 0.4615 0.5728 0.3130
C26 C 0.4522 0.5893 0.1130
C27 C 0.4491 0.5509 0.1581
N4M N 0.5210 0.5534 0.2310
C25M C 0.5385 0.5728 0.3130
C26M C 0.5478 0.5893 0.1130
C27C C 0.5509 0.5509 0.1581
N4N N 0.4466 0.5210 0.2310
C25N C 0.4272 0.5385 0.3130
C26N C 0.4107 0.5478 0.1130
N4B N 0.4466 0.4790 0.2310
C25B C 0.4272 0.4615 0.3130
C26B C 0.4107 0.4522 0.1130
C27B C 0.4491 0.4491 0.1581
N4C N 0.5534 0.5210 0.2310
C25C C 0.5728 0.5385 0.3130
C26C C 0.5893 0.5478 0.1130
N4O N 0.5534 0.4790 0.2310
C25O C 0.5728 0.4615 0.3130
C26O C 0.5893 0.4522 0.1130
C27A C 0.5509 0.4491 0.1581
N4A N 0.5210 0.4466 0.2310
C25A C 0.5385 0.4272 0.3130
C26A C 0.5478 0.4107 0.1130
N4L N 0.4790 0.4466 0.2310
C25L C 0.4615 0.4272 0.3130
C26L C 0.4522 0.4107 0.1130
C28 C 0.4259 0.6011 0.2216
C29 C 0.4341 0.6638 0.2548
C30 C 0.3916 0.6312 0.2458
C31 C 0.4487 0.6953 0.3099
C32 C 0.4515 0.6319 0.2373
C33 C 0.4766 0.6448 0.1710
C34 C 0.4280 0.6391 0.1577
C35 C 0.4293 0.6848 0.3900
C36 C 0.3887 0.6344 0.1027
C28M C 0.5741 0.6011 0.2216
C29M C 0.5659 0.6638 0.2548
C30M C 0.6084 0.6312 0.2458
C31M C 0.5513 0.6953 0.3099
C32M C 0.5485 0.6319 0.2373
C33M C 0.5234 0.6448 0.1710
C34M C 0.5720 0.6391 0.1577
C35M C 0.5707 0.6848 0.3900
C36M C 0.6113 0.6344 0.1027
C28N C 0.3989 0.5741 0.2216
C29N C 0.3362 0.5659 0.2548
C30N C 0.3688 0.6084 0.2458
C31N C 0.3047 0.5513 0.3099
C32N C 0.3681 0.5485 0.2373
C33N C 0.3552 0.5234 0.1710
C34N C 0.3609 0.5720 0.1577
C35N C 0.3152 0.5707 0.3900
C36N C 0.3656 0.6113 0.1027
C28B C 0.3989 0.4259 0.2216
C29B C 0.3362 0.4341 0.2548
C30B C 0.3688 0.3916 0.2458
C31B C 0.3047 0.4487 0.3099
C32B C 0.3681 0.4515 0.2373
C33B C 0.3552 0.4766 0.1710
C34B C 0.3609 0.4280 0.1577
C35B C 0.3152 0.4293 0.3900
C36B C 0.3656 0.3887 0.1027
C28C C 0.6011 0.5741 0.2216
C29C C 0.6638 0.5659 0.2548
C30C C 0.6312 0.6084 0.2458
C31C C 0.6953 0.5513 0.3099
C32C C 0.6319 0.5485 0.2373
C33C C 0.6448 0.5234 0.1710
C34C C 0.6391 0.5720 0.1577
C35C C 0.6848 0.5707 0.3900
C36C C 0.6344 0.6113 0.1027
C28O C 0.6011 0.4259 0.2216
C29O C 0.6638 0.4341 0.2548
C30O C 0.6312 0.3916 0.2458
C31O C 0.6953 0.4487 0.3099
C32O C 0.6319 0.4515 0.2373
C33O C 0.6448 0.4766 0.1710
C34O C 0.6391 0.4280 0.1577
C35O C 0.6848 0.4293 0.3900
C36O C 0.6344 0.3887 0.1027
C28A C 0.5741 0.3989 0.2216
C29A C 0.5659 0.3362 0.2548
C30A C 0.6084 0.3688 0.2458
C31A C 0.5513 0.3047 0.3099
C32A C 0.5485 0.3681 0.2373
C33A C 0.5234 0.3552 0.1710
C34A C 0.5720 0.3609 0.1577
C35A C 0.5707 0.3152 0.3900
C36A C 0.6113 0.3656 0.1027
C28L C 0.4259 0.3989 0.2216
C29L C 0.4341 0.3362 0.2548
C30L C 0.3916 0.3688 0.2458
C31L C 0.4487 0.3047 0.3099
C32L C 0.4515 0.3681 0.2373
C33L C 0.4766 0.3552 0.1710
C34L C 0.4280 0.3609 0.1577
C35L C 0.4293 0.3152 0.3900
C36L C 0.3887 0.3656 0.1027
C37 C 0.5000 0.6005 0.2028
Mn3 Mn -0.0000 1.0000 0.2205
N5 N 0.0394 0.9606 0.2108
C38 C 0.0718 0.9282 0.2359
N5A N -0.0394 1.0394 0.2108
C38A C -0.0718 1.0718 0.2359
N5B N 0.0394 1.0394 0.2108
C38B C 0.0718 1.0718 0.2359
N5C N -0.0394 0.9606 0.2108
C38C C -0.0718 0.9282 0.2359
C39 C 0.1180 0.9770 0.2737
C40 C 0.0700 1.0000 0.1832
C41 C 0.0777 1.0000 0.2845
C39L C 0.1180 1.0230 0.2737
C42 C 0.1672 1.0000 0.2254
C43 C 0.2009 1.0155 0.1404
C44 C 0.2098 1.0383 0.0705
C45 C 0.1710 1.0537 0.1340
C43L C 0.2009 0.9845 0.1404
C44L C 0.2098 0.9617 0.0705
C45L C 0.1710 0.9463 0.1340
C46 C 0.1205 1.0000 0.1602
Cu1 Cu 0.24093(3) 1.24093(3) 0.23031(8)
Cu2 Cu 0.33201(4) 1.0000 0.27477(9)
Cu3 Cu 0.5000 1.15086(7) 0.26973(13)
Mn1 Mn 0.35204(3) 1.14686(5) 0.24885(8)
N1 N 0.26164(18) 1.19985(19) 0.1596(4)
N2 N 0.4564(2) 1.1359(3) 0.3395(5)
N3 N 0.31636(17) 1.0442(2) 0.3425(4)
O1 O 0.31188(16) 1.16210(18) 0.1624(3)
O2 O 0.33235(18) 1.1950(2) 0.3120(3)
O3 O 0.28404(19) 1.2314(2) 0.3055(4)
O4 O 0.39453(17) 1.1394(2) 0.3355(5)
O5 O 0.39976(18) 1.1719(3) 0.1799(5)
O6 O 0.46203(17) 1.1714(2) 0.1914(5)
O7 O 0.36296(18) 1.0971(2) 0.1855(4)
O8 O 0.31789(18) 1.1072(2) 0.3244(4)
O9 O 0.3581(2) 1.0347(3) 0.2017(4)
C1 C 0.2913(2) 1.1877(2) 0.1929(4)
C2 C 0.3024(3) 1.2052(3) 0.2777(5)
C3 C 0.2493(2) 1.1848(2) 0.0770(4)
C4 C 0.2257(4) 1.1552(3) 0.0784(6)
C5 C 0.2140(6) 1.1424(5) 0.0000
H1 H 0.1965 1.1233 0.0000
C6 C 0.2626(3) 1.1975(3) 0.0000
C7 C 0.2939(4) 1.2261(5) 0.0000
C8 C 0.2127(5) 1.1385(4) 0.1635(7)
H2 H 0.2322 1.1403 0.2070
H3 H 0.2065 1.1127 0.1542
H4 H 0.1911 1.1517 0.1841
C9 C 0.4258(3) 1.1452(3) 0.3043(7)
C10 C 0.4289(3) 1.1626(4) 0.2155(7)
C11 C 0.4549(2) 1.1147(3) 0.4216(5)
C12 C 0.4524(2) 1.0776(3) 0.4212(5)
C13 C 0.4517(3) 1.0609(4) 0.5000
H5 H 0.4506 1.0349 0.5000
C14 C 0.4544(4) 1.1342(5) 0.5000
C15 C 0.4540(5) 1.1766(4) 0.5000
C16 C 0.4499(3) 1.0576(3) 0.3342(7)
H6 H 0.4266 1.0633 0.3061
H7 H 0.4515 1.0312 0.3441
H8 H 0.4701 1.0653 0.2967
C17 C 0.3528(3) 1.0675(5) 0.2228(6)
C18 C 0.3257(2) 1.0742(4) 0.3039(5)
C19 C 0.2960(2) 1.0463(2) 0.4221(4)
C20 C 0.2581(2) 1.0477(3) 0.4205(5)
C21 C 0.2399(3) 1.0483(4) 0.5000
H9 H 0.2139 1.0490 0.5000
C22 C 0.3156(3) 1.0458(4) 0.5000
C23 C 0.3575(3) 1.0478(5) 0.5000
C24 C 0.2372(2) 1.0497(4) 0.3336(6)
H10 H 0.2426 1.0729 0.3047
H11 H 0.2109 1.0480 0.3447
H12 H 0.2448 1.0294 0.2962
O10 O 0.2067(2) 1.2067(2) 0.3421(6)
O11 O 0.2862(3) 1.0000 0.1572(7)
O12 O 0.5000 1.0987(4) 0.1522(7)
O13 O 0.5000 1.2251(5) 0.3077(12)
N1I N 0.26164(18) 1.19985(19) -0.1596(4)
O1I O 0.31188(16) 1.16210(18) -0.1624(3)
O2I O 0.33235(18) 1.1950(2) -0.3120(3)
O3I O 0.28404(19) 1.2314(2) -0.3055(4)
C1I C 0.2913(2) 1.1877(2) -0.1929(4)
C2I C 0.3024(3) 1.2052(3) -0.2777(5)
C3I C 0.2493(2) 1.1848(2) -0.0770(4)
C4I C 0.2257(4) 1.1552(3) -0.0784(6)
C8I C 0.2127(5) 1.1385(4) -0.1635(7)
H2I H 0.2322 1.1403 -0.2070
H3I H 0.2065 1.1127 -0.1542
H4I H 0.1911 1.1517 -0.1841
N2I N 0.4564(2) 1.1359(3) 0.6605(5)
O4I O 0.39453(17) 1.1394(2) 0.6645(5)
O5I O 0.39976(18) 1.1719(3) 0.8201(5)
O6I O 0.46203(17) 1.1714(2) 0.8086(5)
C9I C 0.4258(3) 1.1452(3) 0.6957(7)
C10I C 0.4289(3) 1.1626(4) 0.7845(7)
C11I C 0.4549(2) 1.1147(3) 0.5784(5)
C12I C 0.4524(2) 1.0776(3) 0.5788(5)
C16I C 0.4499(3) 1.0576(3) 0.6658(7)
H6I H 0.4266 1.0633 0.6939
H7I H 0.4515 1.0312 0.6559
H8I H 0.4701 1.0653 0.7033
N3I N 0.31636(17) 1.0442(2) 0.6575(4)
O7I O 0.36296(18) 1.0971(2) 0.8145(4)
O8I O 0.31789(18) 1.1072(2) 0.6756(4)
O9I O 0.3581(2) 1.0347(3) 0.7983(4)
C17I C 0.3528(3) 1.0675(5) 0.7772(6)
C18I C 0.3257(2) 1.0742(4) 0.6961(5)
C19I C 0.2960(2) 1.0463(2) 0.5779(4)
C20I C 0.2581(2) 1.0477(3) 0.5795(5)
C24I C 0.2372(2) 1.0497(4) 0.6664(6)
H10I H 0.2426 1.0729 0.6953
H11I H 0.2109 1.0480 0.6553
H12I H 0.2448 1.0294 0.7038
Mn1I Mn 0.35204(3) 1.14686(5) -0.24885(8)
Cu1F Cu 0.24093(3) 1.24093(3) -0.23031(8)
Cu2E Cu 0.33201(4) 1.0000 0.72523(9)
Cu3D Cu 0.5000 1.15086(7) 0.73027(13)
Mn1I_2 Mn 0.35204(3) 1.14686(5) 0.75115(8)
N1O N 0.19985(19) 1.26164(18) 0.1596(4)
N2M N 0.5436(2) 1.1359(3) 0.3395(5)
N3L N 0.31636(17) 0.9558(2) 0.3425(4)
O3O O 0.2314(2) 1.28404(19) 0.3055(4)
O4I_2 O 0.39453(17) 1.1394(2) -0.3355(5)
O5I_2 O 0.39976(18) 1.1719(3) -0.1799(5)
O6M O 0.53797(17) 1.1714(2) 0.1914(5)
O7I_2 O 0.36296(18) 1.0971(2) -0.1855(4)
O8I_2 O 0.31789(18) 1.1072(2) -0.3244(4)
O9L O 0.3581(2) 0.9653(3) 0.2017(4)
loop_
_geom_bond_atom_site_label_1
_geom_bond_atom_site_label_2
_geom_bond_site_symmetry_1
_geom_bond_site_symmetry_2
Cu1 N1 1_555 1_555
Cu2 N3 1_555 1_555
Cu3 N2 1_555 1_555
Mn1 O1 1_555 1_555
N1 C1 1_555 1_555
N2 C9 1_555 1_555
N3 C18 1_555 1_555
O1 C1 1_555 1_555
O2 Mn1 1_555 1_555
O3 Cu1 1_555 1_555
O4 Mn1 1_555 1_555
O5 Mn1 1_555 1_555
O6 Cu3 1_555 1_555
O7 Mn1 1_555 1_555
O8 Mn1 1_555 1_555
O9 Cu2 1_555 1_555
C1 C2 1_555 1_555
C2 O2 1_555 1_555
C3 N1 1_555 1_555
C4 C3 1_555 1_555
C5 C4 1_555 1_555
H1 C5 1_555 1_555
C6 C3 1_555 1_555
C7 C6 1_555 1_555
C8 C4 1_555 1_555
H2 C8 1_555 1_555
H3 C8 1_555 1_555
H4 C8 1_555 1_555
C9 O4 1_555 1_555
C10 O5 1_555 1_555
C11 N2 1_555 1_555
C12 C11 1_555 1_555
C13 C12 1_555 1_555
H5 C13 1_555 1_555
C14 C11 1_555 1_555
C15 C14 1_555 1_555
C16 C12 1_555 1_555
H6 C16 1_555 1_555
H7 C16 1_555 1_555
H8 C16 1_555 1_555
C17 O7 1_555 1_555
C18 O8 1_555 1_555
C19 N3 1_555 1_555
C20 C19 1_555 1_555
C21 C20 1_555 1_555
H9 C21 1_555 1_555
C22 C19 1_555 1_555
C23 C22 1_555 1_555
C24 C20 1_555 1_555
H10 C24 1_555 1_555
H11 C24 1_555 1_555
H12 C24 1_555 1_555
O10 Cu1 1_555 1_555
O11 Cu2 1_555 1_555
O12 Cu3 1_555 1_555
O13 Cu3 1_555 1_555
Mn2 N4 1_555 1_555
N4 C25 1_555 1_555
C25 C25N 1_555 1_555
C26 C27 1_555 1_555
C27 N4 1_555 1_555
C28 C30 1_555 1_555
C29 C31 1_555 1_555
C30 C30N 1_555 1_555
C31 C35 1_555 1_555
C32 C28 1_555 1_555
C33 C32 1_555 1_555
C34 C28 1_555 1_555
C36 C34 1_555 1_555
Mn3 N5 1_555 1_555
N5 C38 1_555 1_555
C39 C41 1_555 1_555
C40 C41 1_555 1_555
C41 C39L 1_555 1_555
C43 C44 1_555 1_555
C45 C43 1_555 1_555
N1I C1I 1_555 1_555
O1I C1I 1_555 1_555
O2I C2I 1_555 1_555
O3I C2I 1_555 1_555
C1I C2I 1_555 1_555
C3I C6 1_555 1_555
C4I C5 1_555 1_555
C8I C4I 1_555 1_555
H2I C8I 1_555 1_555
H3I C8I 1_555 1_555
H4I C8I 1_555 1_555
N2I C9I 1_555 1_555
O4I C9I 1_555 1_555
O5I C10I 1_555 1_555
O6I C10I 1_555 1_555
C9I C10I 1_555 1_555
C11I C14 1_555 1_555
C12I C13 1_555 1_555
C16I C12I 1_555 1_555
H6I C16I 1_555 1_555
H7I C16I 1_555 1_555
H8I C16I 1_555 1_555
N3I C18I 1_555 1_555
O7I C17I 1_555 1_555
O8I C18I 1_555 1_555
O9I C17I 1_555 1_555
C17I C18I 1_555 1_555
C19I C22 1_555 1_555
C20I C21 1_555 1_555
C24I C20I 1_555 1_555
H10I C24I 1_555 1_555
H11I C24I 1_555 1_555
H12I C24I 1_555 1_555
Mn1I O1I 1_555 1_555
Cu1F N1I 1_555 1_555
Cu2E N3I 1_555 1_555
Cu3D N2I 1_555 1_555
Mn1I_2 O4I 1_555 1_555
N1O Cu1 1_555 1_555
N2M Cu3 1_555 1_555
N3L Cu2 1_555 1_555
O3O Cu1 1_555 1_555
O4I_2 Mn1I 1_555 1_555
O5I_2 Mn1I 1_555 1_555
O6M Cu3 1_555 1_555
O7I_2 Mn1I 1_555 1_555
O8I_2 Mn1I 1_555 1_555
O9L Cu2 1_555 1_555
N4M Mn2 1_555 1_555
C25M N4M 1_555 1_555
C26M C27C 1_555 1_555
C27C N4M 1_555 1_555
N4N Mn2 1_555 1_555
C25N N4N 1_555 1_555
C26N C27 1_555 1_555
N4B Mn2 1_555 1_555
C25B N4B 1_555 1_555
C26B C27B 1_555 1_555
C27B N4B 1_555 1_555
N4C Mn2 1_555 1_555
C25C C25M 1_555 1_555
C26C C27C 1_555 1_555
N4O Mn2 1_555 1_555
C25O N4O 1_555 1_555
C26O C27A 1_555 1_555
C27A N4O 1_555 1_555
N4A Mn2 1_555 1_555
C25A C25O 1_555 1_555
C26A C27A 1_555 1_555
N4L Mn2 1_555 1_555
C25L C25B 1_555 1_555
C26L C27B 1_555 1_555
C28M C30M 1_555 1_555
C29M C31M 1_555 1_555
C30M C30C 1_555 1_555
C31M C35M 1_555 1_555
C32M C28M 1_555 1_555
C33M C33 1_555 1_555
C34M C28M 1_555 1_555
C36M C34M 1_555 1_555
C28N C28 1_555 1_555
C29N C31N 1_555 1_555
C30N C28N 1_555 1_555
C31N C35N 1_555 1_555
C32N C28N 1_555 1_555
C33N C32N 1_555 1_555
C34N C28N 1_555 1_555
C36N C36 1_555 1_555
C28B C30B 1_555 1_555
C29B C31B 1_555 1_555
C30B C30L 1_555 1_555
C31B C35B 1_555 1_555
C32B C28B 1_555 1_555
C33B C33N 1_555 1_555
C34B C28B 1_555 1_555
C36B C34B 1_555 1_555
C28C C28M 1_555 1_555
C29C C31C 1_555 1_555
C30C C28C 1_555 1_555
C31C C35C 1_555 1_555
C32C C28C 1_555 1_555
C33C C32C 1_555 1_555
C34C C28C 1_555 1_555
C36C C36M 1_555 1_555
C28O C30O 1_555 1_555
C29O C31O 1_555 1_555
C30O C30A 1_555 1_555
C31O C35O 1_555 1_555
C32O C28O 1_555 1_555
C33O C33C 1_555 1_555
C34O C28O 1_555 1_555
C36O C34O 1_555 1_555
C28A C28O 1_555 1_555
C29A C31A 1_555 1_555
C30A C28A 1_555 1_555
C31A C35A 1_555 1_555
C32A C28A 1_555 1_555
C33A C32A 1_555 1_555
C34A C28A 1_555 1_555
C36A C36O 1_555 1_555
C28L C28B 1_555 1_555
C29L C31L 1_555 1_555
C30L C28L 1_555 1_555
C31L C35L 1_555 1_555
C32L C28L 1_555 1_555
C33L C33A 1_555 1_555
C34L C28L 1_555 1_555
C36L C36B 1_555 1_555
N5A Mn3 1_555 1_555
C38A N5A 1_555 1_555
N5B Mn3 1_555 1_555
C38B N5B 1_555 1_555
N5C Mn3 1_555 1_555
C38C N5C 1_555 1_555
C39L C39 1_555 1_555
C43L C43 1_555 1_555
C44L C43L 1_555 1_555
C45L C43L 1_555 1_555
O3 C2 1_555 1_555
O6 C10 1_555 1_555
O9 C17 1_555 1_555
C9 C10 1_555 1_555
C17 C18 1_555 1_555
N4 N4M 1_555 1_555
N4 N4N 1_555 1_555
C27 N4N 1_555 1_555
C29 C32 1_555 1_555
C29 C34 1_555 1_555
C32 C34 1_555 1_555
C33 C34 1_555 1_555
N1I C3I 1_555 1_555
O2I Mn1I 1_555 1_555
O3I Cu1F 1_555 1_555
C3I C4I 1_555 1_555
N2I C11I 1_555 1_555
O5I Mn1I_2 1_555 1_555
O6I Cu3D 1_555 1_555
C11I C12I 1_555 1_555
N3I C19I 1_555 1_555
O7I Mn1I_2 1_555 1_555
O8I Mn1I_2 1_555 1_555
O9I Cu2E 1_555 1_555
C19I C20I 1_555 1_555
N4M N4C 1_555 1_555
C27C N4C 1_555 1_555
N4N N4B 1_555 1_555
N4B N4L 1_555 1_555
C27B N4L 1_555 1_555
N4C C25C 1_555 1_555
N4C N4O 1_555 1_555
N4O N4A 1_555 1_555
C27A N4A 1_555 1_555
N4A C25A 1_555 1_555
N4A N4L 1_555 1_555
N4L C25L 1_555 1_555
C29M C32M 1_555 1_555
C29M C34M 1_555 1_555
C32M C33M 1_555 1_555
C32M C34M 1_555 1_555
C33M C34M 1_555 1_555
C29N C32N 1_555 1_555
C29N C34N 1_555 1_555
C32N C34N 1_555 1_555
C33N C34N 1_555 1_555
C34N C36N 1_555 1_555
C29B C32B 1_555 1_555
C29B C34B 1_555 1_555
C32B C33B 1_555 1_555
C32B C34B 1_555 1_555
C33B C34B 1_555 1_555
C29C C32C 1_555 1_555
C29C C34C 1_555 1_555
C32C C34C 1_555 1_555
C33C C34C 1_555 1_555
C34C C36C 1_555 1_555
C29O C32O 1_555 1_555
C29O C34O 1_555 1_555
C32O C33O 1_555 1_555
C32O C34O 1_555 1_555
C33O C34O 1_555 1_555
C29A C32A 1_555 1_555
C29A C34A 1_555 1_555
C32A C34A 1_555 1_555
C33A C34A 1_555 1_555
C34A C36A 1_555 1_555
C29L C32L 1_555 1_555
C29L C34L 1_555 1_555
C32L C33L 1_555 1_555
C32L C34L 1_555 1_555
C33L C34L 1_555 1_555
C34L C36L 1_555 1_555

#END
