
#######################################################################
#
#                 Cambridge Crystallographic Data Centre
#                                CCDC 
#
#######################################################################
#
# If this CIF has been generated from an entry in the Cambridge 
# Structural Database, then it will include bibliographic, chemical, 
# crystal, experimental, refinement or atomic coordinate data resulting 
# from the CCDC's data processing and validation procedures.
#
#######################################################################

data_DAKZUN
_chemical_formula_moiety         '(C27 H17 O7 Tb1)n'
_symmetry_cell_setting           orthorhombic
_symmetry_space_group_name_H-M   'P n a 21'
_symmetry_Int_Tables_number      33
_space_group_name_Hall           'P 2c -2n'
loop_
_symmetry_equiv_pos_site_id
_symmetry_equiv_pos_as_xyz
1 x,y,z
2 -x,-y,1/2+z
3 1/2-x,1/2+y,1/2+z
4 1/2+x,1/2-y,z
_cell_length_a                   7.2562(3)
_cell_length_b                   19.3586(8)
_cell_length_c                   25.9395(13)
_cell_angle_alpha                90
_cell_angle_beta                 90
_cell_angle_gamma                90
_cell_volume                     3643.72
loop_
_atom_site_label
_atom_site_type_symbol
_atom_site_fract_x
_atom_site_fract_y
_atom_site_fract_z
Tb1 Tb 0.62977(5) 0.692569(15) 0.73851(3)
O1 O 0.2195(7) 1.1835(3) 0.2816(2)
O2 O 0.4960(7) 1.1721(2) 0.2446(4)
O3 O 0.8316(7) 0.7668(3) 0.6667(2)
O4 O 0.9531(9) 0.8708(3) 0.6538(2)
O5 O 0.4189(8) 0.4502(3) 0.2498(3)
O6 O 0.6857(15) 0.6686(6) 0.8414(4)
H1 H 0.7340 0.7051 0.8690
H2 H 0.6624 0.6206 0.8604
O7 O 0.5716(10) 0.4986(3) 0.1854(3)
C1 C 0.3628(11) 1.1496(4) 0.2720(3)
C2 C 0.3787(10) 1.0773(4) 0.2904(3)
C3 C 0.4765(11) 1.0289(4) 0.2630(3)
H3 H 0.5278 1.0412 0.2306
C4 C 0.5021(11) 0.9621(4) 0.2817(3)
H4 H 0.5619 0.9282 0.2611
C5 C 0.4400(10) 0.9457(4) 0.3303(3)
C6 C 0.3380(11) 0.9940(4) 0.3582(3)
H5 H 0.2925 0.9824 0.3915
C7 C 0.3024(12) 1.0591(4) 0.3378(3)
H6 H 0.2267 1.0908 0.3560
C8 C 0.4871(10) 0.8768(4) 0.3536(3)
C9 C 0.4915(10) 0.8171(4) 0.3239(3)
C10 C 0.8578(11) 0.8189(4) 0.6394(3)
C11 C 0.7881(10) 0.8178(4) 0.5851(3)
C12 C 0.8200(12) 0.8747(4) 0.5512(3)
H7 H 0.8849 0.9142 0.5631
C13 C 0.7573(12) 0.8722(4) 0.5018(3)
H8 H 0.7755 0.9109 0.4800
C14 C 0.6655(10) 0.8132(4) 0.4822(3)
C15 C 0.6429(10) 0.7573(4) 0.5156(3)
H9 H 0.5841 0.7166 0.5033
C16 C 0.7031(10) 0.7592(4) 0.5658(3)
H10 H 0.6864 0.7201 0.5874
C17 C 0.5967(10) 0.8124(4) 0.4286(3)
C18 C 0.5380(10) 0.8754(4) 0.4062(3)
C19 C 0.5951(9) 0.7530(4) 0.3989(3)
C20 C 0.5416(10) 0.7543(4) 0.3468(3)
C21 C 0.5279(10) 0.6898(3) 0.3163(3)
C22 C 0.5727(13) 0.6882(4) 0.2642(3)
H11 H 0.6106 0.7297 0.2478
C23 C 0.5638(11) 0.6274(4) 0.2353(5)
H12 H 0.5955 0.6273 0.1997
C24 C 0.5074(11) 0.5669(4) 0.2597(3)
C25 C 0.4545(11) 0.5683(4) 0.3114(3)
H13 H 0.4082 0.5277 0.3273
C26 C 0.4694(10) 0.6287(4) 0.3394(3)
H14 H 0.4393 0.6285 0.3750
C27 C 0.4950(11) 0.5000(4) 0.2321(5)
Tb1A Tb 0.37023(5) 0.307431(15) 0.23851(3)
Tb1A_2 Tb 0.37023(5) 1.307431(15) 0.23851(3)
Tb1B Tb -0.12977(5) 1.192569(15) 0.23851(3)
Tb1B_2 Tb 0.87023(5) 1.192569(15) 0.23851(3)
Tb1C Tb 1.12977(5) 0.807431(15) 0.73851(3)
O1A O 0.7805(7) 0.8165(3) 0.7816(2)
O1B O 0.2805(7) 0.6835(3) 0.7816(2)
O2A O 0.5040(7) 0.8279(2) 0.7446(4)
O2B O 1.0040(7) 0.6721(2) 0.7446(4)
O4C O 0.4531(9) 0.6292(3) 0.6538(2)
O5A O 0.5811(8) 0.5498(3) 0.7498(3)
loop_
_geom_bond_atom_site_label_1
_geom_bond_atom_site_label_2
_geom_bond_site_symmetry_1
_geom_bond_site_symmetry_2
Tb1 O3 1_555 1_555
O1 C1 1_555 1_555
O2 C1 1_555 1_555
O3 C10 1_555 1_555
O4 C10 1_555 1_555
O5 C27 1_555 1_555
O6 Tb1 1_555 1_555
H1 O6 1_555 1_555
H2 O6 1_555 1_555
O7 C27 1_555 1_555
C1 C2 1_555 1_555
C2 C3 1_555 1_555
C3 H3 1_555 1_555
C4 C3 1_555 1_555
H4 C4 1_555 1_555
C5 C4 1_555 1_555
C6 C5 1_555 1_555
H5 C6 1_555 1_555
C7 C2 1_555 1_555
H6 C7 1_555 1_555
C8 C5 1_555 1_555
C9 C8 1_555 1_555
C10 C11 1_555 1_555
C11 C12 1_555 1_555
C12 H7 1_555 1_555
C13 C12 1_555 1_555
H8 C13 1_555 1_555
C14 C13 1_555 1_555
C15 C14 1_555 1_555
H9 C15 1_555 1_555
C16 C11 1_555 1_555
H10 C16 1_555 1_555
C17 C14 1_555 1_555
C18 C8 1_555 1_555
C19 C17 1_555 1_555
C20 C9 1_555 1_555
C21 C20 1_555 1_555
C22 C21 1_555 1_555
H11 C22 1_555 1_555
C23 C22 1_555 1_555
H12 C23 1_555 1_555
C24 C23 1_555 1_555
C25 C24 1_555 1_555
H13 C25 1_555 1_555
C26 C21 1_555 1_555
H14 C26 1_555 1_555
C27 C24 1_555 1_555
Tb1A O5 1_555 1_555
Tb1A_2 O1 1_555 1_555
Tb1B O1 1_555 1_555
Tb1B_2 O2 1_555 1_555
Tb1C O4 1_555 1_555
O1A Tb1 1_555 1_555
O1B Tb1 1_555 1_555
O2A Tb1 1_555 1_555
O2B Tb1 1_555 1_555
O4C Tb1 1_555 1_555
O5A Tb1 1_555 1_555
O2 Tb1A_2 1_555 1_555
C6 C7 1_555 1_555
C15 C16 1_555 1_555
C17 C18 1_555 1_555
C19 C20 1_555 1_555
C25 C26 1_555 1_555
Tb1C O1A 1_555 1_555
Tb1C O2B 1_555 1_555

#END
