
#######################################################################
#
#                 Cambridge Crystallographic Data Centre
#                                CCDC 
#
#######################################################################
#
# If this CIF has been generated from an entry in the Cambridge 
# Structural Database, then it will include bibliographic, chemical, 
# crystal, experimental, refinement or atomic coordinate data resulting 
# from the CCDC's data processing and validation procedures.
#
#######################################################################

data_KAKCEH01
_chemical_formula_moiety         '(C29 H25 Ba1 N1 O7)n'
_symmetry_cell_setting           orthorhombic
_symmetry_space_group_name_H-M   'P n a 21'
_symmetry_Int_Tables_number      33
_space_group_name_Hall           'P 2c -2n'
loop_
_symmetry_equiv_pos_site_id
_symmetry_equiv_pos_as_xyz
1 x,y,z
2 -x,-y,1/2+z
3 1/2-x,1/2+y,1/2+z
4 1/2+x,1/2-y,z
_cell_length_a                   7.2459(6)
_cell_length_b                   19.2242(16)
_cell_length_c                   25.807(2)
_cell_angle_alpha                90
_cell_angle_beta                 90
_cell_angle_gamma                90
_cell_volume                     3594.83
loop_
_atom_site_label
_atom_site_type_symbol
_atom_site_fract_x
_atom_site_fract_y
_atom_site_fract_z
Ba1 Ba 0.18198(8) 0.31140(3) 0.89257(4)
O1 O -0.3791(14) -0.2288(5) 0.4608(3)
O2 O -0.4862(14) -0.1245(4) 0.4742(3)
O3 O 0.1096(13) -0.5484(5) 0.8761(3)
O4 O -0.0289(15) -0.4962(5) 0.9401(4)
O5 O 0.0584(10) 0.1771(3) 0.8798(2)
O6 O 0.3257(13) 0.1859(5) 0.8416(4)
C1 C 0.1888(16) 0.1542(6) 0.8552(5)
C2 C 0.1590(15) 0.0807(6) 0.8316(5)
C3 C 0.2232(17) 0.0632(7) 0.7858(5)
H1 H 0.2969 0.0943 0.7676
C4 C 0.182(2) -0.0021(6) 0.7639(5)
H2 H 0.2216 -0.0132 0.7307
C5 C 0.0824(16) -0.0486(5) 0.7923(4)
C6 C 0.0269(17) -0.0334(7) 0.8420(5)
H3 H -0.0311 -0.0666 0.8625
C7 C 0.0597(17) 0.0327(6) 0.8604(4)
H4 H 0.0143 0.0453 0.8927
C8 C 0.0279(16) -0.1186(6) 0.7704(5)
C9 C -0.3946(19) -0.1764(6) 0.4890(5)
C10 C -0.3168(17) -0.1787(6) 0.5426(5)
C11 C -0.3313(19) -0.1220(6) 0.5764(5)
H5 H -0.3909 -0.0819 0.5652
C12 C -0.2620(19) -0.1239(6) 0.6242(5)
H6 H -0.2758 -0.0851 0.6454
C13 C -0.2264(18) -0.2374(6) 0.5608(5)
H7 H -0.2117 -0.2758 0.5393
C14 C -0.1586(16) -0.2390(6) 0.6103(4)
H8 H -0.1029 -0.2794 0.6225
C15 C 0.0365(14) -0.4957(5) 0.8951(7)
C16 C 0.0241(17) -0.4301(6) 0.8669(5)
C17 C 0.0616(19) -0.4278(6) 0.8133(6)
H9 H 0.0976 -0.4685 0.7966
C18 C 0.0470(17) -0.3684(6) 0.7849(5)
H10 H 0.0723 -0.3692 0.7496
C19 C -0.0046(14) -0.3077(6) 0.8082(5)
C20 C -0.039(2) -0.3094(7) 0.8612(5)
H11 H -0.0708 -0.2682 0.8779
C21 C -0.0289(18) -0.3687(5) 0.8892(7)
H12 H -0.0583 -0.3678 0.9243
C22 C -0.0240(15) -0.2416(5) 0.7770(4)
C23 C -0.0861(15) -0.2423(5) 0.7257(4)
H13 H -0.1226 -0.2843 0.7111
C24 C -0.0948(16) -0.1832(6) 0.6966(4)
C25 C -0.0323(17) -0.1212(6) 0.7175(5)
H14 H -0.0295 -0.0813 0.6973
C26 C 0.0281(17) -0.1787(5) 0.7988(5)
H15 H 0.0639 -0.1773 0.8334
O7 O 0.217(3) 0.3373(11) 0.7852(8)
C27 C -0.1717(17) -0.1805(6) 0.6434(5)
Ba1_2 Ba 0.18198(8) -0.68860(3) 0.89257(4)
Ba1A Ba -0.18198(8) -0.31140(3) 0.39257(4)
Ba1B Ba -0.68198(8) -0.18860(3) 0.39257(4)
Ba1C Ba -0.31802(8) 0.18860(3) 0.89257(4)
Ba1C_2 Ba 0.68198(8) 0.18860(3) 0.89257(4)
O1A O 0.3791(14) 0.2288(5) 0.9608(3)
O1B O -0.1209(14) 0.2712(5) 0.9608(3)
O2B O -0.0138(14) 0.3755(4) 0.9742(3)
O3_2 O 0.1096(13) 0.4516(5) 0.8761(3)
O5C O 0.5584(10) 0.3229(3) 0.8798(2)
O6C O -0.1743(13) 0.3141(5) 0.8416(4)
C28 C 0.520(13) 0.533(4) 0.518(3)
N1 N 0.664(10) 0.517(4) 0.568(3)
C29 C 0.633(16) 0.449(6) 0.602(5)
loop_
_geom_bond_atom_site_label_1
_geom_bond_atom_site_label_2
_geom_bond_site_symmetry_1
_geom_bond_site_symmetry_2
Ba1 O5 1_555 1_555
O1 C9 1_555 1_555
O2 C9 1_555 1_555
O3 C15 1_555 1_555
O4 C15 1_555 1_555
O5 C1 1_555 1_555
O6 Ba1 1_555 1_555
C1 O6 1_555 1_555
C2 C1 1_555 1_555
C3 C2 1_555 1_555
H1 C3 1_555 1_555
C4 C3 1_555 1_555
H2 C4 1_555 1_555
C5 C4 1_555 1_555
C6 C5 1_555 1_555
H3 C6 1_555 1_555
C7 C2 1_555 1_555
H4 C7 1_555 1_555
C8 C5 1_555 1_555
C9 C10 1_555 1_555
C10 C11 1_555 1_555
C11 H5 1_555 1_555
C12 C11 1_555 1_555
H6 C12 1_555 1_555
C13 C10 1_555 1_555
H7 C13 1_555 1_555
C14 C13 1_555 1_555
H8 C14 1_555 1_555
C15 C16 1_555 1_555
C16 C17 1_555 1_555
C17 H9 1_555 1_555
C18 C17 1_555 1_555
H10 C18 1_555 1_555
C19 C18 1_555 1_555
C20 C19 1_555 1_555
H11 C20 1_555 1_555
C21 C16 1_555 1_555
H12 C21 1_555 1_555
C22 C19 1_555 1_555
C23 C22 1_555 1_555
H13 C23 1_555 1_555
C24 C23 1_555 1_555
C25 C8 1_555 1_555
H14 C25 1_555 1_555
C26 C8 1_555 1_555
H15 C26 1_555 1_555
O7 Ba1 1_555 1_555
C27 C12 1_555 1_555
C28 N1 1_555 1_555
N1 C29 1_555 1_555
Ba1_2 O3 1_555 1_555
Ba1A O1 1_555 1_555
Ba1B O1 1_555 1_555
Ba1C O5 1_555 1_555
Ba1C_2 O6 1_555 1_555
O1A Ba1 1_555 1_555
O1B Ba1 1_555 1_555
O2B Ba1 1_555 1_555
O3_2 Ba1 1_555 1_555
O5C Ba1 1_555 1_555
O6C Ba1 1_555 1_555
O2 Ba1B 1_555 1_555
C6 C7 1_555 1_555
C14 C27 1_555 1_555
C20 C21 1_555 1_555
C22 C26 1_555 1_555
C24 C25 1_555 1_555
C24 C27 1_555 1_555
Ba1C O1B 1_555 1_555
Ba1C O6C 1_555 1_555
Ba1C_2 O1A 1_555 1_555
Ba1C_2 O5C 1_555 1_555

#END
