
#######################################################################
#
#                 Cambridge Crystallographic Data Centre
#                                CCDC 
#
#######################################################################
#
# If this CIF has been generated from an entry in the Cambridge 
# Structural Database, then it will include bibliographic, chemical, 
# crystal, experimental, refinement or atomic coordinate data resulting 
# from the CCDC's data processing and validation procedures.
#
#######################################################################

data_KAKCEH02
_chemical_formula_moiety         '(C31 H33 Ba1 N2 O7 1+)n'
_symmetry_cell_setting           orthorhombic
_symmetry_space_group_name_H-M   'P n a 21'
_symmetry_Int_Tables_number      33
_space_group_name_Hall           'P 2c -2n'
loop_
_symmetry_equiv_pos_site_id
_symmetry_equiv_pos_as_xyz
1 x,y,z
2 -x,-y,1/2+z
3 1/2-x,1/2+y,1/2+z
4 1/2+x,1/2-y,z
_cell_length_a                   7.2652(3)
_cell_length_b                   19.3152(9)
_cell_length_c                   26.0723(12)
_cell_angle_alpha                90
_cell_angle_beta                 90
_cell_angle_gamma                90
_cell_volume                     3658.69
loop_
_atom_site_label
_atom_site_type_symbol
_atom_site_fract_x
_atom_site_fract_y
_atom_site_fract_z
Ba1 Ba 0.36744(8) 0.30820(3) 0.41167(5)
O1 O 0.6693(12) 0.2687(5) 0.3414(3)
O2 O 0.5497(13) 0.3723(4) 0.3287(4)
O3 O 0.313(2) 0.3293(9) 0.5176(6)
O4 O -0.0097(8) 0.3265(3) 0.4213(3)
O5 O 0.7141(13) 0.3153(4) 0.4557(4)
O6 O 0.4212(13) 0.4507(4) 0.4257(4)
C1 C 0.3616(16) 0.1519(6) 0.4454(5)
C2 C 0.3758(16) 0.0772(7) 0.4669(6)
C3 C 0.3019(18) 0.0610(7) 0.5122(5)
C4 C 0.4697(17) 0.0293(6) 0.4382(5)
C5 C 0.3366(18) -0.0033(7) 0.5335(5)
H1 H 0.2259 0.0933 0.5296
C6 C 0.5010(17) -0.0358(6) 0.4584(5)
H2 H 0.5128 0.0408 0.4048
C7 C 0.4374(16) -0.0536(6) 0.5065(5)
H3 H 0.2919 -0.0135 0.5669
H4 H 0.5675 -0.0689 0.4388
C8 C 0.4865(17) -0.1223(5) 0.5298(5)
C9 C 0.5402(16) -0.1250(6) 0.5812(5)
C10 C 0.4901(16) -0.1819(5) 0.5018(5)
C11 C 0.5942(15) -0.1867(6) 0.6048(5)
H5 H 0.5399 -0.0835 0.6009
H6 H 0.4598 -0.1802 0.4664
C12 C 0.5369(15) -0.2450(6) 0.5239(5)
C13 C 0.6637(16) -0.1860(6) 0.6571(5)
C14 C 0.5937(16) -0.2458(6) 0.5747(5)
C15 C 0.5217(16) -0.3092(5) 0.4931(5)
C16 C 0.6412(16) -0.2409(6) 0.6900(5)
C17 C 0.756(2) -0.1290(7) 0.6770(6)
H7 H 0.6334 -0.2883 0.5894
C18 C 0.566(2) -0.3097(7) 0.4412(5)
C19 C 0.4660(17) -0.3702(5) 0.5150(5)
C20 C 0.7023(16) -0.2394(6) 0.7399(5)
H8 H 0.5814 -0.2815 0.6778
C21 C 0.817(2) -0.1251(6) 0.7265(6)
H9 H 0.7772 -0.0907 0.6550
C22 C 0.5580(16) -0.3712(5) 0.4140(8)
H10 H 0.6015 -0.2681 0.4245
C23 C 0.4500(17) -0.4312(6) 0.4863(5)
H11 H 0.4375 -0.3711 0.5506
C24 C 0.7859(19) -0.1817(6) 0.7599(5)
H12 H 0.6863 -0.2791 0.7610
H13 H 0.8798 -0.0849 0.7383
H14 H 0.5943 -0.3708 0.3790
C25 C 0.4997(19) -0.4335(6) 0.4353(5)
H15 H 0.4040 -0.4718 0.5024
C26 C 0.8556(18) -0.1796(7) 0.8136(5)
C27 C 0.4915(16) -0.4988(5) 0.4060(8)
O7 O 0.5639(15) -0.4978(4) 0.3605(4)
O4C O 0.4903(8) 0.1735(3) 0.4213(3)
O1C O 0.1693(12) 0.2313(5) 0.3414(3)
O5C O 0.2141(13) 0.1847(4) 0.4557(4)
Ba1C Ba 0.86744(8) 0.19180(3) 0.41167(5)
Ba1C_2 Ba -0.13256(8) 0.19180(3) 0.41167(5)
O2B O 0.9503(13) -0.1277(4) 0.8287(4)
O1B O 0.8307(12) -0.2313(5) 0.8414(3)
O6_2 O 0.4212(13) -0.5493(4) 0.4257(4)
Ba1B Ba 1.13256(8) -0.19180(3) 0.91167(5)
Ba1A Ba 0.63256(8) -0.30820(3) 0.91167(5)
Ba1_2 Ba 0.36744(8) -0.69180(3) 0.41167(5)
C28 C 0.123(7) 0.440(3) 0.294(2)
C29 C 0.200(8) 0.463(3) 0.199(2)
N1 N 0.135(7) 0.481(3) 0.253(2)
N2 N 0.142(7) 0.342(3) 0.5860(18)
C30 C 0.254(9) 0.389(3) 0.595(2)
C31 C -0.011(9) 0.321(3) 0.623(2)
loop_
_geom_bond_atom_site_label_1
_geom_bond_atom_site_label_2
_geom_bond_site_symmetry_1
_geom_bond_site_symmetry_2
Ba1 O1 1_555 1_555
O1 Ba1C 1_555 1_555
O2 Ba1 1_555 1_555
O3 Ba1 1_555 1_555
O4 Ba1 1_555 1_555
O5 Ba1 1_555 1_555
O6 Ba1 1_555 1_555
C1 C2 1_555 1_555
C2 C3 1_555 1_555
C3 C5 1_555 1_555
C4 C2 1_555 1_555
C5 C7 1_555 1_555
H1 C3 1_555 1_555
C6 C4 1_555 1_555
H2 C4 1_555 1_555
C7 C6 1_555 1_555
H3 C5 1_555 1_555
H4 C6 1_555 1_555
C8 C7 1_555 1_555
C9 C8 1_555 1_555
C10 C8 1_555 1_555
C11 C9 1_555 1_555
H5 C9 1_555 1_555
H6 C10 1_555 1_555
C12 C10 1_555 1_555
C13 C11 1_555 1_555
C14 C11 1_555 1_555
C15 C12 1_555 1_555
C16 C13 1_555 1_555
C17 C13 1_555 1_555
H7 C14 1_555 1_555
C18 C15 1_555 1_555
C19 C15 1_555 1_555
C20 C16 1_555 1_555
H8 C16 1_555 1_555
C21 C17 1_555 1_555
H9 C17 1_555 1_555
C22 C18 1_555 1_555
H10 C18 1_555 1_555
C23 C19 1_555 1_555
H11 C19 1_555 1_555
C24 C20 1_555 1_555
H12 C20 1_555 1_555
H13 C21 1_555 1_555
H14 C22 1_555 1_555
C25 C22 1_555 1_555
H15 C23 1_555 1_555
C26 C24 1_555 1_555
C27 C25 1_555 1_555
O7 C27 1_555 1_555
C28 N1 1_555 1_555
C29 N1 1_555 1_555
N2 C30 1_555 1_555
C31 N2 1_555 1_555
O4C Ba1 1_555 1_555
O1C Ba1 1_555 1_555
O5C Ba1 1_555 1_555
Ba1C O5 1_555 1_555
Ba1C_2 O4 1_555 1_555
O2B C26 1_555 1_555
O1B C26 1_555 1_555
O6_2 C27 1_555 1_555
Ba1B O2B 1_555 1_555
Ba1A O1B 1_555 1_555
Ba1_2 O6_2 1_555 1_555
C1 O4C 1_555 1_555
C1 O5C 1_555 1_555
C12 C14 1_555 1_555
C21 C24 1_555 1_555
C23 C25 1_555 1_555
O4C Ba1C 1_555 1_555
O1C Ba1C_2 1_555 1_555
O5C Ba1C_2 1_555 1_555
O1B Ba1B 1_555 1_555

#END
