
#######################################################################
#
#                 Cambridge Crystallographic Data Centre
#                                CCDC 
#
#######################################################################
#
# If this CIF has been generated from an entry in the Cambridge 
# Structural Database, then it will include bibliographic, chemical, 
# crystal, experimental, refinement or atomic coordinate data resulting 
# from the CCDC's data processing and validation procedures.
#
#######################################################################

data_GOBSUM
_chemical_formula_moiety         '(C36 H38 Co3 N4 O14)n'
_symmetry_cell_setting           monoclinic
_symmetry_space_group_name_H-M   'C 2/c'
_symmetry_Int_Tables_number      15
_space_group_name_Hall           '-C 2yc'
loop_
_symmetry_equiv_pos_site_id
_symmetry_equiv_pos_as_xyz
1 x,y,z
2 1/2+x,1/2+y,z
3 -x,y,1/2-z
4 1/2-x,1/2+y,1/2-z
5 -x,-y,-z
6 1/2-x,1/2-y,-z
7 x,-y,1/2+z
8 1/2+x,1/2-y,1/2+z
_cell_length_a                   31.717(3)
_cell_length_b                   9.4333(9)
_cell_length_c                   18.1739(18)
_cell_angle_alpha                90
_cell_angle_beta                 119.894(2)
_cell_angle_gamma                90
_cell_volume                     4714.08
loop_
_atom_site_label
_atom_site_type_symbol
_atom_site_fract_x
_atom_site_fract_y
_atom_site_fract_z
Co1 Co 0.123724(12) 0.81464(3) 0.392075(19)
Co2 Co 0.2500 0.7500 0.5000
O1 O 0.13920(7) 0.7112(2) 0.31065(11)
O2 O 0.22078(7) 0.7076(2) 0.37307(11)
O3 O 0.20767(6) 0.39891(19) 0.01773(11)
O4 O 0.12833(7) 0.3522(2) -0.03408(12)
O5 O 0.14330(7) 1.0258(2) 0.36644(12)
O6 O 0.19480(6) 0.89902(18) 0.47516(11)
N1 N 0.04677(7) 0.8050(2) 0.30252(13)
C1 C 0.17882(9) 0.6836(3) 0.31340(15)
C2 C 0.17520(9) 0.6135(3) 0.23579(16)
C3 C 0.13241(11) 0.5490(4) 0.1753(2)
H1 H 0.1046 0.5498 0.1821
C4 C 0.21559(11) 0.6093(4) 0.22518(19)
H2 H 0.2452 0.6517 0.2665
C5 C 0.16911(9) 0.4055(3) 0.01985(15)
C6 C 0.17036(10) 0.4816(3) 0.09382(16)
C7 C 0.21317(11) 0.5439(4) 0.15484(19)
H3 H 0.2411 0.5417 0.1485
C8 C 0.13024(11) 0.4834(4) 0.1050(2)
H4 H 0.1009 0.4393 0.0642
C9 C 0.18347(9) 1.0147(3) 0.43338(15)
C10 C 0.21786(9) 1.1369(3) 0.46752(16)
C11 C 0.21258(10) 1.2523(3) 0.41596(17)
H5 H 0.1869 1.2539 0.3587
C12 C 0.25508(10) 1.1346(3) 0.55160(16)
H6 H 0.2584 1.0561 0.5868
C13 C 0.01999(10) 0.7382(3) 0.34131(18)
H7 H 0.0241 0.7964 0.3898
H8 H 0.0337 0.6431 0.3631
C14 C 0.03426(10) 0.7247(3) 0.22382(18)
H9 H 0.0426 0.6235 0.2380
H10 H 0.0537 0.7613 0.1990
C15 C 0.02803(10) 0.9516(3) 0.27694(18)
H11 H 0.0419 0.9936 0.2437
H12 H 0.0384 1.0104 0.3282
O7 O 0.10300(7) 0.9367(2) 0.47057(12)
N2 N 0.11440(14) 0.9834(5) 0.6007(2)
C16 C 0.12598(12) 0.9254(4) 0.5481(2)
H13 H 0.1547 0.8694 0.5719
C17 C 0.1420(2) 0.9626(7) 0.6916(4)
H14 H 0.1266 1.0153 0.7185
H15 H 0.1753 0.9969 0.7134
H16 H 0.1426 0.8614 0.7044
C18 C 0.0647(4) 1.0411(16) 0.5684(6)
H17 H 0.0619 1.0802 0.6158
H18 H 0.0408 0.9650 0.5412
H19 H 0.0585 1.1160 0.5269
Co1E Co 0.376276(12) 0.68536(3) 0.607925(19)
Co1F Co 0.123724(12) 0.18536(3) -0.107925(19)
Co1E_2 Co 0.376276(12) 1.68536(3) 0.607925(19)
Co1B Co -0.123724(12) 0.81464(3) 0.107925(19)
Co1C Co 0.376276(12) 1.31464(3) 1.107925(19)
Co2F Co 0.2500 0.2500 0.0000
Co2_2 Co 0.2500 1.7500 0.5000
Co2F_2 Co 0.2500 1.2500 1.0000
O1E O 0.36080(7) 0.7888(2) 0.68935(11)
O2E O 0.27922(7) 0.7924(2) 0.62693(11)
O3E O 0.29233(6) 1.10109(19) 0.98227(11)
O3F O 0.20767(6) 0.60109(19) 0.51773(11)
O3C O 0.29233(6) 0.89891(19) 0.48227(11)
O4E O 0.37167(7) 1.1478(2) 1.03408(12)
O4F O 0.12833(7) 0.6478(2) 0.46592(12)
O4C O 0.37167(7) 0.8522(2) 0.53408(12)
O5E O 0.35670(7) 1.4742(2) 0.63356(12)
O5E_2 O 0.35670(7) 0.4742(2) 0.63356(12)
O6E O 0.30520(6) 1.60098(18) 0.52484(11)
O6E_2 O 0.30520(6) 0.60098(18) 0.52484(11)
N1B N -0.04677(7) 0.8050(2) 0.19748(13)
N1E N 0.45323(7) 0.6950(2) 0.69748(13)
C1E C 0.32118(9) 0.8164(3) 0.68660(15)
C2E C 0.32480(9) 0.8865(3) 0.76421(16)
C3E C 0.36759(11) 0.9510(4) 0.8247(2)
H1E H 0.3954 0.9502 0.8179
C4E C 0.28441(11) 0.8907(4) 0.77482(19)
H2E H 0.2548 0.8483 0.7335
C5E C 0.33089(9) 1.0945(3) 0.98015(15)
C6E C 0.32964(10) 1.0184(3) 0.90618(16)
C7E C 0.28683(11) 0.9561(4) 0.84516(19)
H3E H 0.2589 0.9583 0.8515
C8E C 0.36976(11) 1.0166(4) 0.8950(2)
H4E H 0.3991 1.0607 0.9358
C9E C 0.31653(9) 1.4853(3) 0.56662(15)
C10E C 0.28214(9) 1.3631(3) 0.53248(16)
C11E C 0.28742(10) 1.2477(3) 0.58404(17)
H5E H 0.3131 1.2461 0.6413
C12E C 0.24492(10) 1.3654(3) 0.44840(16)
H6E H 0.2416 1.4439 0.4132
C13B C -0.01999(10) 0.7382(3) 0.15869(18)
H7B H -0.0241 0.7964 0.1102
H8B H -0.0337 0.6431 0.1369
C14B C -0.03426(10) 0.7247(3) 0.27618(18)
H9B H -0.0426 0.6235 0.2620
H10B H -0.0537 0.7613 0.3010
C15B C -0.02803(10) 0.9516(3) 0.22306(18)
H11B H -0.0419 0.9936 0.2563
H12B H -0.0384 1.0104 0.1718
O7E O 0.39700(7) 0.5633(2) 0.52943(12)
N2E N 0.38560(14) 0.5166(5) 0.3993(2)
C16E C 0.37402(12) 0.5746(4) 0.4519(2)
H13E H 0.3453 0.6306 0.4281
C17E C 0.3580(2) 0.5374(7) 0.3084(4)
H14E H 0.3734 0.4847 0.2815
H15E H 0.3247 0.5031 0.2866
H16E H 0.3574 0.6386 0.2956
C18E C 0.4353(4) 0.4589(16) 0.4316(6)
H17E H 0.4381 0.4198 0.3842
H18E H 0.4592 0.5350 0.4588
H19E H 0.4415 0.3840 0.4731
loop_
_geom_bond_atom_site_label_1
_geom_bond_atom_site_label_2
_geom_bond_site_symmetry_1
_geom_bond_site_symmetry_2
Co1 O1 1_555 1_555
Co2 O2 1_555 1_555
O1 C1 1_555 1_555
O2 C1 1_555 1_555
O3 C5 1_555 1_555
O4 C5 1_555 1_555
O5 Co1 1_555 1_555
O6 Co1 1_555 1_555
N1 Co1 1_555 1_555
C1 C2 1_555 1_555
C2 C3 1_555 1_555
C3 H1 1_555 1_555
C4 C2 1_555 1_555
H2 C4 1_555 1_555
C5 C6 1_555 1_555
C6 C7 1_555 1_555
C7 C4 1_555 1_555
H3 C7 1_555 1_555
C8 C3 1_555 1_555
H4 C8 1_555 1_555
C9 O5 1_555 1_555
C10 C9 1_555 1_555
C11 C10 1_555 1_555
H5 C11 1_555 1_555
C12 C10 1_555 1_555
H6 C12 1_555 1_555
C13 N1 1_555 1_555
H7 C13 1_555 1_555
H8 C13 1_555 1_555
C14 N1 1_555 1_555
H9 C14 1_555 1_555
H10 C14 1_555 1_555
C15 N1 1_555 1_555
H11 C15 1_555 1_555
H12 C15 1_555 1_555
O7 Co1 1_555 1_555
N2 C16 1_555 1_555
C16 O7 1_555 1_555
H13 C16 1_555 1_555
C17 N2 1_555 1_555
H14 C17 1_555 1_555
H15 C17 1_555 1_555
H16 C17 1_555 1_555
C18 N2 1_555 1_555
H17 C18 1_555 1_555
H18 C18 1_555 1_555
H19 C18 1_555 1_555
Co1E O1E 1_555 1_555
Co1F O4 1_555 1_555
Co1E_2 O5E 1_555 1_555
Co1B N1B 1_555 1_555
Co1C O4E 1_555 1_555
Co2F O3 1_555 1_555
Co2_2 O6E 1_555 1_555
Co2F_2 O3E 1_555 1_555
O1E C1E 1_555 1_555
O2E Co2 1_555 1_555
O3E C5E 1_555 1_555
O3F Co2 1_555 1_555
O3C Co2 1_555 1_555
O4E C5E 1_555 1_555
O4F Co1 1_555 1_555
O4C Co1E 1_555 1_555
O5E C9E 1_555 1_555
O5E_2 Co1E 1_555 1_555
O6E Co1E_2 1_555 1_555
O6E_2 Co2 1_555 1_555
N1B C13B 1_555 1_555
N1E Co1E 1_555 1_555
C1E O2E 1_555 1_555
C2E C1E 1_555 1_555
C3E C2E 1_555 1_555
H1E C3E 1_555 1_555
C4E C2E 1_555 1_555
H2E C4E 1_555 1_555
C5E C6E 1_555 1_555
C6E C7E 1_555 1_555
C7E C4E 1_555 1_555
H3E C7E 1_555 1_555
C8E C3E 1_555 1_555
H4E C8E 1_555 1_555
C9E O6E 1_555 1_555
C10E C9E 1_555 1_555
C11E C12 1_555 1_555
H5E C11E 1_555 1_555
C12E C11 1_555 1_555
H6E C12E 1_555 1_555
C13B C14 1_555 1_555
H7B C13B 1_555 1_555
H8B C13B 1_555 1_555
C14B C13 1_555 1_555
H9B C14B 1_555 1_555
H10B C14B 1_555 1_555
C15B C15 1_555 1_555
H11B C15B 1_555 1_555
H12B C15B 1_555 1_555
O7E Co1E 1_555 1_555
N2E C16E 1_555 1_555
C16E O7E 1_555 1_555
H13E C16E 1_555 1_555
C17E N2E 1_555 1_555
H14E C17E 1_555 1_555
H15E C17E 1_555 1_555
H16E C17E 1_555 1_555
C18E N2E 1_555 1_555
H17E C18E 1_555 1_555
H18E C18E 1_555 1_555
H19E C18E 1_555 1_555
Co2 O6 1_555 1_555
O6 C9 1_555 1_555
C6 C8 1_555 1_555
Co1E O6E_2 1_555 1_555
N1B C14B 1_555 1_555
N1B C15B 1_555 1_555
C6E C8E 1_555 1_555
C10E C11E 1_555 1_555
C10E C12E 1_555 1_555

#END
