
#######################################################################
#
#                 Cambridge Crystallographic Data Centre
#                                CCDC 
#
#######################################################################
#
# If this CIF has been generated from an entry in the Cambridge 
# Structural Database, then it will include bibliographic, chemical, 
# crystal, experimental, refinement or atomic coordinate data resulting 
# from the CCDC's data processing and validation procedures.
#
#######################################################################

data_LETVUB
_chemical_formula_moiety         '(C20 H16 Cu1 F6 N4 P1)n'
_symmetry_cell_setting           tetragonal
_symmetry_space_group_name_H-M   'P 4/n'
_symmetry_Int_Tables_number      85
_space_group_name_Hall           '-P 4a'
loop_
_symmetry_equiv_pos_site_id
_symmetry_equiv_pos_as_xyz
1 x,y,z
2 1/2-y,x,z
3 1/2-x,1/2-y,z
4 y,1/2-x,z
5 -x,-y,-z
6 1/2+y,-x,-z
7 1/2+x,1/2+y,-z
8 -y,1/2+x,-z
_cell_length_a                   12.3251(24)
_cell_length_b                   12.3251(24)
_cell_length_c                   6.981(3)
_cell_angle_alpha                90
_cell_angle_beta                 90
_cell_angle_gamma                90
_cell_volume                     1060.47
loop_
_atom_site_label
_atom_site_type_symbol
_atom_site_fract_x
_atom_site_fract_y
_atom_site_fract_z
Cu1 Cu 0.7500 0.2500 0.0000
N1 N 0.6527(8) 0.3424(10) 0.1695(17)
C1 C 0.5944(14) 0.3007(12) 0.302(3)
C2 C 0.5300(12) 0.3579(15) 0.4300(21)
C3 C 0.5335(12) 0.4691(13) 0.4320(18)
C4 C 0.5944(13) 0.5138(11) 0.294(3)
C5 C 0.6550(12) 0.4512(14) 0.171(3)
H1 H 0.596 0.214 0.326
H2 H 0.475 0.319 0.529
H3 H 0.593 0.601 0.279
H4 H 0.706 0.493 0.069
N1E N 0.8424(10) 0.3473(8) -0.1695(17)
N1B N 0.8473(8) 0.1576(10) 0.1695(17)
N1G N 0.6576(10) 0.1527(8) -0.1695(17)
C3D C 0.4665(12) 0.5309(13) 0.5680(18)
C1E C 0.8007(12) 0.4056(14) -0.302(3)
C5E C 0.9512(14) 0.3450(12) -0.171(3)
C2D C 0.4700(12) 0.6421(15) 0.5700(21)
C4D C 0.4056(13) 0.4862(11) 0.706(3)
C2E C 0.8579(15) 0.4700(12) -0.4300(21)
H1E H 0.714 0.404 -0.326
C4E C 1.0138(11) 0.4056(13) -0.294(3)
H4E H 0.993 0.294 -0.069
C1D C 0.4056(14) 0.6993(12) 0.698(3)
H2D H 0.525 0.681 0.471
C5D C 0.3450(12) 0.5488(14) 0.829(3)
H3D H 0.407 0.399 0.721
C3E C 0.9691(13) 0.4665(12) -0.4320(18)
H2E H 0.819 0.525 -0.529
H3E H 1.101 0.407 -0.279
N1D N 0.3473(8) 0.6576(10) 0.8305(17)
H1D H 0.404 0.786 0.674
H4D H 0.294 0.507 0.931
C3A C 1.0309(13) 0.5335(12) -0.5680(18)
Cu1A Cu 0.2500 0.7500 1.0000
C2A C 1.1421(15) 0.5300(12) -0.5700(21)
C4A C 0.9862(11) 0.5944(13) -0.706(3)
C1A C 1.1993(12) 0.5944(14) -0.698(3)
H2A H 1.181 0.475 -0.471
C5A C 1.0488(14) 0.6550(12) -0.829(3)
H3A H 0.899 0.593 -0.721
N1A N 1.1576(10) 0.6527(8) -0.8305(17)
H1A H 1.286 0.596 -0.674
H4A H 1.007 0.706 -0.931
Cu1A_2 Cu 1.2500 0.7500 -1.0000
P1 P 0.2500 0.2500 0.121(3)
F1 F 0.2500 0.2500 -0.114(6)
F2 F 0.2500 0.2500 0.333(5)
F3 F 0.3382(9) 0.3361(9) 0.1021(23)
F3A F 0.1639(9) 0.3382(9) 0.1021(23)
F3B F 0.1618(9) 0.1639(9) 0.1021(23)
F3C F 0.3361(9) 0.1618(9) 0.1021(23)
loop_
_geom_bond_atom_site_label_1
_geom_bond_atom_site_label_2
_geom_bond_site_symmetry_1
_geom_bond_site_symmetry_2
Cu1 N1 1_555 1_555
N1 C1 1_555 1_555
C1 C2 1_555 1_555
C2 C3 1_555 1_555
C3 C4 1_555 1_555
C4 C5 1_555 1_555
C5 N1 1_555 1_555
H1 C1 1_555 1_555
H2 C2 1_555 1_555
H3 C4 1_555 1_555
H4 C5 1_555 1_555
P1 F1 1_555 1_555
F2 P1 1_555 1_555
F3 P1 1_555 1_555
N1E Cu1 1_555 1_555
N1B Cu1 1_555 1_555
N1G Cu1 1_555 1_555
C3D C3 1_555 1_555
C1E N1E 1_555 1_555
C5E N1E 1_555 1_555
C2D C3D 1_555 1_555
C4D C3D 1_555 1_555
C2E C1E 1_555 1_555
H1E C1E 1_555 1_555
C4E C5E 1_555 1_555
H4E C5E 1_555 1_555
C1D C2D 1_555 1_555
H2D C2D 1_555 1_555
C5D C4D 1_555 1_555
H3D C4D 1_555 1_555
C3E C2E 1_555 1_555
H2E C2E 1_555 1_555
H3E C4E 1_555 1_555
N1D C1D 1_555 1_555
H1D C1D 1_555 1_555
H4D C5D 1_555 1_555
C3A C3E 1_555 1_555
Cu1A N1D 1_555 1_555
C2A C3A 1_555 1_555
C4A C3A 1_555 1_555
C1A C2A 1_555 1_555
H2A C2A 1_555 1_555
C5A C4A 1_555 1_555
H3A C4A 1_555 1_555
N1A C1A 1_555 1_555
H1A C1A 1_555 1_555
H4A C5A 1_555 1_555
Cu1A_2 N1A 1_555 1_555
F3A P1 1_555 1_555
F3B P1 1_555 1_555
F3C P1 1_555 1_555
C4E C3E 1_555 1_555
C5D N1D 1_555 1_555
C5A N1A 1_555 1_555

#END
