
#######################################################################
#
#                 Cambridge Crystallographic Data Centre
#                                CCDC 
#
#######################################################################
#
# If this CIF has been generated from an entry in the Cambridge 
# Structural Database, then it will include bibliographic, chemical, 
# crystal, experimental, refinement or atomic coordinate data resulting 
# from the CCDC's data processing and validation procedures.
#
#######################################################################

data_LIWFAA
_chemical_formula_moiety         '(C24 H16 Cd1 N12 S2)n'
_symmetry_cell_setting           monoclinic
_symmetry_space_group_name_H-M   'C 2/c'
_symmetry_Int_Tables_number      15
_space_group_name_Hall           '-C 2yc'
loop_
_symmetry_equiv_pos_site_id
_symmetry_equiv_pos_as_xyz
1 x,y,z
2 -x,y,1/2-z
3 1/2+x,1/2+y,z
4 1/2-x,1/2+y,1/2-z
5 -x,-y,-z
6 x,-y,1/2+z
7 1/2-x,1/2-y,-z
8 1/2+x,1/2-y,1/2+z
_cell_length_a                   21.3927(6)
_cell_length_b                   24.0819(6)
_cell_length_c                   15.8047(4)
_cell_angle_alpha                90
_cell_angle_beta                 130.500(2)
_cell_angle_gamma                90
_cell_volume                     6191.39
loop_
_atom_site_label
_atom_site_type_symbol
_atom_site_fract_x
_atom_site_fract_y
_atom_site_fract_z
_atom_site_U_iso_or_equiv
_atom_site_thermal_displace_type
Cd1 Cd 0.190762(19) 0.126771(13) -0.32949(2) 0.0289 Uani
S1 S 0.17214(10) 0.06178(5) -0.46858(11) 0.0454 Uani
S2 S 0.31577(8) 0.18423(7) -0.19577(10) 0.0475 Uani
N1 N 0.1533(3) 0.11396(19) -0.5571(4) 0.0454 Uani
N2 N 0.1551(2) 0.16614(15) -0.5309(3) 0.0321 Uani
N3 N 0.0977(3) 0.19338(18) -0.7138(4) 0.0524 Uani
N4 N 0.1014(3) 0.14109(18) -0.7376(4) 0.0487 Uani
N5 N 0.1650(2) -0.05194(16) -0.7627(3) 0.0329 Uani
N6 N 0.1531(5) 0.3758(2) -0.5230(7) 0.0864 Uani
N7 N 0.3163(3) 0.18997(19) -0.0866(4) 0.0463 Uani
N8 N 0.2580(2) 0.16399(16) -0.0922(3) 0.0330 Uani
N9 N 0.3192(3) 0.1978(2) 0.0885(4) 0.0587 Uani
N10 N 0.3756(3) 0.2251(2) 0.0927(3) 0.0564 Uani
N11 N 0.5823(2) 0.31639(16) 0.1032(3) 0.0327 Uani
N12 N 0.0924(3) 0.0783(2) 0.0012(4) 0.0525 Uani
C1 C 0.1301(3) 0.20412(19) -0.6092(4) 0.0369 Uani
C2 C 0.1313(3) 0.10165(19) -0.6621(4) 0.0340 Uani
C3 C 0.1774(5) 0.3363(3) -0.4520(7) 0.0750 Uani
H1 H 0.2005 0.3467 -0.3802 0.0800 Uiso
C4 C 0.1718(4) 0.2795(2) -0.4740(5) 0.0567 Uani
H2 H 0.1914 0.2533 -0.4186 0.0800 Uiso
C5 C 0.1367(3) 0.2640(2) -0.5789(4) 0.0407 Uani
C6 C 0.1094(4) 0.3048(2) -0.6579(5) 0.0588 Uani
H3 H 0.0853 0.2961 -0.7308 0.0800 Uiso
C7 C 0.1202(6) 0.3599(3) -0.6217(8) 0.0832 Uani
H4 H 0.1016 0.3876 -0.6743 0.0800 Uiso
C8 C 0.2244(3) -0.0315(2) -0.6610(4) 0.0409 Uani
H5 H 0.2740 -0.0505 -0.6131 0.0800 Uiso
C9 C 0.2140(3) 0.0176(2) -0.6249(4) 0.0425 Uani
H6 H 0.2564 0.0310 -0.5540 0.0800 Uiso
C10 C 0.1411(3) 0.04618(19) -0.6939(4) 0.0327 Uani
C11 C 0.0800(3) 0.0245(2) -0.7993(4) 0.0353 Uani
H7 H 0.0299 0.0426 -0.8488 0.0800 Uiso
C12 C 0.0944(3) -0.02414(19) -0.8298(3) 0.0324 Uani
H8 H 0.0528 -0.0383 -0.9005 0.0800 Uiso
C13 C 0.2636(3) 0.1685(2) -0.0028(4) 0.0364 Uani
C14 C 0.3771(3) 0.2208(2) 0.0107(4) 0.0370 Uani
C15 C 0.0773(4) 0.0914(3) -0.0925(5) 0.0606 Uani
H9 H 0.0271 0.0803 -0.1592 0.0800 Uiso
C16 C 0.1300(4) 0.1198(2) -0.0986(5) 0.0509 Uani
H10 H 0.1156 0.1269 -0.1672 0.0800 Uiso
C17 C 0.2036(3) 0.1377(2) -0.0029(4) 0.0371 Uani
C18 C 0.2205(4) 0.1251(3) 0.0952(5) 0.0644 Uani
H11 H 0.2702 0.1361 0.1628 0.0800 Uiso
C19 C 0.1652(4) 0.0966(3) 0.0937(5) 0.0676 Uani
H12 H 0.1786 0.0891 0.1616 0.0800 Uiso
C20 C 0.5108(3) 0.3175(2) -0.0023(4) 0.0375 Uani
H13 H 0.5062 0.3412 -0.0525 0.0800 Uiso
C21 C 0.4442(3) 0.2853(2) -0.0394(4) 0.0403 Uani
H14 H 0.3969 0.2864 -0.1140 0.0800 Uiso
C22 C 0.4477(3) 0.2511(2) 0.0346(4) 0.0366 Uani
C23 C 0.5237(3) 0.2487(2) 0.1440(4) 0.0475 Uani
H15 H 0.5302 0.2251 0.1958 0.0800 Uiso
C24 C 0.5878(3) 0.2807(2) 0.1741(4) 0.0435 Uani
H16 H 0.6375 0.2780 0.2465 0.0800 Uiso
Cd1E Cd 0.190762(19) -0.126771(13) -0.82949(2) 0.0289 Uani
Cd1G Cd 0.690762(19) 0.373229(13) 0.17051(2) 0.0289 Uani
N5E N 0.1650(2) 0.05194(16) -0.2627(3) 0.0329 Uani
N11G N 0.0823(2) 0.18361(16) -0.3968(3) 0.0327 Uani
loop_
_atom_site_aniso_label
_atom_site_aniso_U_11
_atom_site_aniso_U_22
_atom_site_aniso_U_33
_atom_site_aniso_U_23
_atom_site_aniso_U_13
_atom_site_aniso_U_12
Cd1 0.03097(18) 0.02893(18) 0.02608(17) 0.00019(13) 0.01819(14) 0.00111(13)
S1 0.0787(10) 0.0308(6) 0.0397(7) -0.0001(5) 0.0443(7) -0.0009(6)
S2 0.0445(7) 0.0728(9) 0.0323(6) -0.0168(6) 0.0281(6) -0.0242(7)
N1 0.049(3) 0.053(3) 0.038(2) -0.001(2) 0.030(2) 0.002(2)
N2 0.044(2) 0.0281(19) 0.0303(19) -0.0036(15) 0.0268(18) -0.0016(16)
N3 0.089(4) 0.035(2) 0.044(2) 0.008(2) 0.048(3) 0.013(2)
N4 0.075(3) 0.039(2) 0.035(2) 0.0045(18) 0.037(2) 0.012(2)
N5 0.041(2) 0.034(2) 0.0279(18) -0.0066(16) 0.0243(18) -0.0039(16)
N6 0.121(6) 0.034(3) 0.117(6) -0.016(3) 0.083(5) -0.012(3)
N7 0.046(2) 0.054(3) 0.042(2) -0.001(2) 0.030(2) -0.007(2)
N8 0.0301(19) 0.039(2) 0.0303(19) -0.0016(16) 0.0198(17) -0.0062(16)
N9 0.054(3) 0.094(4) 0.035(2) -0.022(2) 0.032(2) -0.040(3)
N10 0.055(3) 0.085(4) 0.034(2) -0.018(2) 0.031(2) -0.036(3)
N11 0.0316(19) 0.038(2) 0.0253(18) -0.0013(16) 0.0170(16) -0.0060(16)
N12 0.049(3) 0.063(3) 0.055(3) -0.003(2) 0.038(2) -0.013(2)
C1 0.047(3) 0.031(2) 0.042(3) 0.004(2) 0.033(2) 0.006(2)
C2 0.042(3) 0.036(2) 0.026(2) -0.0002(19) 0.023(2) 0.004(2)
C3 0.104(6) 0.051(4) 0.085(5) -0.023(4) 0.068(5) -0.013(4)
C4 0.079(4) 0.040(3) 0.065(4) -0.013(3) 0.053(4) -0.012(3)
C5 0.048(3) 0.031(2) 0.054(3) -0.003(2) 0.038(3) -0.001(2)
C6 0.072(4) 0.038(3) 0.073(4) 0.010(3) 0.050(4) 0.005(3)
C7 0.099(6) 0.037(3) 0.111(7) 0.017(4) 0.067(6) 0.010(4)
C8 0.040(3) 0.042(3) 0.034(2) -0.007(2) 0.021(2) 0.003(2)
C9 0.044(3) 0.040(3) 0.030(2) -0.008(2) 0.018(2) 0.001(2)
C10 0.044(3) 0.032(2) 0.028(2) -0.0054(18) 0.026(2) -0.002(2)
C11 0.032(2) 0.039(3) 0.030(2) -0.0008(19) 0.018(2) 0.0003(19)
C12 0.035(2) 0.035(2) 0.026(2) -0.0050(18) 0.0193(19) -0.0021(19)
C13 0.037(2) 0.045(3) 0.030(2) -0.002(2) 0.023(2) -0.007(2)
C14 0.033(2) 0.050(3) 0.024(2) -0.002(2) 0.0167(19) -0.011(2)
C15 0.046(3) 0.090(5) 0.046(3) -0.016(3) 0.030(3) -0.029(3)
C16 0.049(3) 0.068(4) 0.039(3) -0.007(3) 0.030(3) -0.020(3)
C17 0.037(3) 0.043(3) 0.035(2) -0.004(2) 0.025(2) -0.006(2)
C18 0.048(3) 0.101(6) 0.039(3) -0.001(3) 0.026(3) -0.027(3)
C19 0.064(4) 0.101(6) 0.043(3) 0.002(3) 0.037(3) -0.025(4)
C20 0.035(2) 0.044(3) 0.028(2) 0.003(2) 0.018(2) -0.006(2)
C21 0.033(2) 0.051(3) 0.021(2) 0.006(2) 0.0105(19) -0.006(2)
C22 0.036(2) 0.047(3) 0.025(2) -0.006(2) 0.019(2) -0.017(2)
C23 0.043(3) 0.063(4) 0.025(2) 0.005(2) 0.017(2) -0.015(3)
C24 0.033(2) 0.059(3) 0.024(2) 0.006(2) 0.012(2) -0.009(2)
Cd1E 0.03097 0.02893 0.02608 -0.00019 0.01819 -0.00111
Cd1G 0.03097 0.02893 0.02608 -0.00019 0.01819 -0.00111
N5E 0.041 0.034 0.0279 0.0066 0.0243 0.0039
N11G 0.0316 0.038 0.0253 0.0013 0.017 0.006
loop_
_geom_bond_atom_site_label_1
_geom_bond_atom_site_label_2
_geom_bond_site_symmetry_1
_geom_bond_site_symmetry_2
Cd1 S1 1_555 1_555
S1 N1 1_555 1_555
S2 Cd1 1_555 1_555
N1 N2 1_555 1_555
N2 C1 1_555 1_555
N3 N4 1_555 1_555
N4 C2 1_555 1_555
N5 C8 1_555 1_555
N6 C3 1_555 1_555
N7 S2 1_555 1_555
N8 N7 1_555 1_555
N9 N10 1_555 1_555
N10 C14 1_555 1_555
N11 C20 1_555 1_555
N12 C15 1_555 1_555
C1 N3 1_555 1_555
C2 N1 1_555 1_555
C3 H1 1_555 1_555
C4 C3 1_555 1_555
H2 C4 1_555 1_555
C5 C1 1_555 1_555
C6 C5 1_555 1_555
H3 C6 1_555 1_555
C7 N6 1_555 1_555
H4 C7 1_555 1_555
C8 H5 1_555 1_555
C9 C8 1_555 1_555
H6 C9 1_555 1_555
C10 C2 1_555 1_555
C11 C10 1_555 1_555
H7 C11 1_555 1_555
C12 N5 1_555 1_555
H8 C12 1_555 1_555
C13 N8 1_555 1_555
C14 N7 1_555 1_555
C15 H9 1_555 1_555
C16 C15 1_555 1_555
H10 C16 1_555 1_555
C17 C13 1_555 1_555
C18 C17 1_555 1_555
H11 C18 1_555 1_555
C19 N12 1_555 1_555
H12 C19 1_555 1_555
C20 H13 1_555 1_555
C21 C20 1_555 1_555
H14 C21 1_555 1_555
C22 C14 1_555 1_555
C23 C22 1_555 1_555
H15 C23 1_555 1_555
C24 N11 1_555 1_555
H16 C24 1_555 1_555
Cd1E N5 1_555 1_555
Cd1G N11 1_555 1_555
N5E Cd1 1_555 1_555
N11G Cd1 1_555 1_555
N9 C13 1_555 1_555
C4 C5 1_555 1_555
C6 C7 1_555 1_555
C9 C10 1_555 1_555
C11 C12 1_555 1_555
C16 C17 1_555 1_555
C18 C19 1_555 1_555
C21 C22 1_555 1_555
C23 C24 1_555 1_555

#END
