
#######################################################################
#
#                 Cambridge Crystallographic Data Centre
#                                CCDC 
#
#######################################################################
#
# If this CIF has been generated from an entry in the Cambridge 
# Structural Database, then it will include bibliographic, chemical, 
# crystal, experimental, refinement or atomic coordinate data resulting 
# from the CCDC's data processing and validation procedures.
#
#######################################################################

data_ACUBAB
_chemical_formula_moiety         '(C6 H26 Cl1 Co1 N6 O25 P6 Zn8)n'
_symmetry_cell_setting           trigonal
_symmetry_space_group_name_H-M   'P -3 1 c'
_symmetry_Int_Tables_number      163
_space_group_name_Hall           '-P 3 2c'
loop_
_symmetry_equiv_pos_site_id
_symmetry_equiv_pos_as_xyz
1 x,y,z
2 -y,x-y,z
3 -x+y,-x,z
4 -x+y,y,1/2-z
5 x,x-y,1/2-z
6 y,x,1/2+z
7 -x,-y,-z
8 y,-x+y,-z
9 x-y,x,-z
10 x-y,-y,1/2+z
11 -x,-x+y,1/2+z
12 -y,-x,1/2-z
_cell_length_a                   8.8775(7)
_cell_length_b                   8.8775(7)
_cell_length_c                   23.775(3)
_cell_angle_alpha                90
_cell_angle_beta                 90
_cell_angle_gamma                120
_cell_volume                     1622.68
loop_
_atom_site_label
_atom_site_type_symbol
_atom_site_fract_x
_atom_site_fract_y
_atom_site_fract_z
Zn1 Zn 0.03998(8) 0.33327(7) 0.54408(3)
Zn2 Zn -0.3334 0.3333 0.64938(5)
Cl1 Cl -0.3334 0.3333 0.7500
P1 P -0.03531(17) 0.64561(18) 0.58275(7)
O1 O 0.0505(5) 0.5436(5) 0.56563(18)
O2 O -0.1450(5) 0.6507(5) 0.53186(15)
O3 O 0.1032(5) 0.8323(5) 0.59661(15)
O4 O -0.1576(5) 0.5688(5) 0.63314(16)
P1A P -0.64561(18) 0.31908(25) 0.58275(7)
O1A O -0.5436(5) 0.5069(7) 0.56563(18)
O2A O -0.6507(5) 0.2043(7) 0.53186(15)
O3A O -0.8323(5) 0.2709(7) 0.59661(15)
O4A O -0.5688(5) 0.2736(7) 0.63314(16)
P1B P -0.31908(25) 0.03531(17) 0.58275(7)
O1B O -0.5069(7) -0.0505(5) 0.56563(18)
O2B O -0.2043(7) 0.1450(5) 0.53186(15)
O3B O -0.2709(7) -0.1032(5) 0.59661(15)
O4B O -0.2736(7) 0.1576(5) 0.63314(16)
Zn2C Zn -0.3333 0.3333 0.85062(5)
Zn1A Zn -0.33327(7) 0.70671(11) 0.54408(3)
Zn1B Zn -0.70671(11) -0.03998(8) 0.54408(3)
Zn1F Zn -0.03998(8) 0.66673(7) 0.45592(3)
Zn1G Zn -0.66673(7) 0.29329(11) 0.45592(3)
Zn1H Zn -0.29329(11) 0.03998(8) 0.45592(3)
P1F P 0.03531(17) 0.35439(18) 0.41725(7)
O1F O -0.0505(5) 0.4564(5) 0.43437(18)
O2F O 0.1450(5) 0.3493(5) 0.46814(15)
O3F O -0.1032(5) 0.1677(5) 0.40339(15)
O4F O 0.1576(5) 0.4312(5) 0.36686(16)
P1A_2 P 0.35439(18) 0.31908(25) 0.58275(7)
O1A_2 O 0.4564(5) 0.5069(7) 0.56563(18)
O2A_2 O 0.3493(5) 0.2043(7) 0.53186(15)
O3A_2 O 0.1677(5) 0.2709(7) 0.59661(15)
O4A_2 O 0.4312(5) 0.2736(7) 0.63314(16)
P1C P -0.31908(25) 0.64561(18) 0.91725(7)
O1C O -0.5069(7) 0.5436(5) 0.93437(18)
O2C O -0.2043(7) 0.6507(5) 0.96814(15)
O3C O -0.2709(7) 0.8323(5) 0.90339(15)
O4C O -0.2736(7) 0.5688(5) 0.86686(16)
Zn1B_2 Zn 0.29329(11) 0.96002(8) 0.54408(3)
Zn1_2 Zn -0.96002(8) 0.33327(7) 0.54408(3)
Zn1A_2 Zn -0.33327(7) -0.29329(11) 0.54408(3)
O4D O -0.1576(5) 0.2736(7) 0.86686(16)
O4K O -0.5688(5) 0.1576(5) 0.86686(16)
O2G O -0.3493(5) 0.7957(7) 0.46814(15)
O3B_2 O -0.2709(7) 0.8968(5) 0.59661(15)
O2H O -0.7957(7) -0.1450(5) 0.46814(15)
O3_2 O -0.8968(5) -0.1677(5) 0.59661(15)
O2H_2 O 0.2043(7) 0.8550(5) 0.46814(15)
O3G O -0.1677(5) 0.7291(7) 0.40339(15)
O1G O -0.4564(5) 0.4931(7) 0.43437(18)
O2F_2 O -0.8550(5) 0.3493(5) 0.46814(15)
O3H O -0.7291(7) 0.1032(5) 0.40339(15)
O1H O -0.4931(7) 0.0505(5) 0.43437(18)
O2G_2 O -0.3493(5) -0.2043(7) 0.46814(15)
Zn1G_2 Zn 0.33327(7) 0.29329(11) 0.45592(3)
Zn2F Zn 0.3334 0.6667 0.35062(5)
Zn1A_3 Zn 0.66673(7) 0.70671(11) 0.54408(3)
Zn1B_3 Zn 0.29329(11) -0.03998(8) 0.54408(3)
Zn2_2 Zn 0.6666 0.3333 0.64938(5)
Zn1C Zn -0.70671(11) 0.33327(7) 0.95592(3)
Zn1D Zn 0.03998(8) 0.70671(11) 0.95592(3)
Zn1I Zn -0.29329(11) 0.66673(7) 1.04408(3)
Zn1K Zn -0.33327(7) 0.96002(8) 0.95592(3)
Co1 Co 0.0000 0.0000 0.2500
N1 N -0.1778(6) 0.0091(6) 0.2961(2)
H1 H -0.2628 -0.0996 0.3043
H2 H -0.1304 0.0646 0.3287
C1 C -0.2516(8) 0.1025(9) 0.2650(3)
H3 H -0.3062 0.1452 0.2908
H4 H -0.3381 0.0253 0.2381
C1K C -0.1025(9) 0.2516(8) 0.2350(3)
N1K N -0.0091(6) 0.1778(6) 0.2039(2)
H1K H 0.0996 0.2628 0.1957
H2K H -0.0646 0.1304 0.1713
H3K H -0.1452 0.3062 0.2092
H4K H -0.0253 0.3381 0.2619
N1A N -0.0091(6) -0.1869(8) 0.2961(2)
H1A H 0.0996 -0.1632 0.3043
H2A H -0.0646 -0.1950 0.3287
C1A C -0.1025(9) -0.3541(12) 0.2650(3)
H3A H -0.1452 -0.4514 0.2908
H4A H -0.0253 -0.3634 0.2381
C1D C -0.2516(8) -0.3541(12) 0.2350(3)
N1D N -0.1778(6) -0.1869(8) 0.2039(2)
H1D H -0.2628 -0.1632 0.1957
H2D H -0.1304 -0.1950 0.1713
H3D H -0.3062 -0.4514 0.2092
H4D H -0.3381 -0.3634 0.2619
N1B N 0.1869(8) 0.1778(6) 0.2961(2)
H1B H 0.1632 0.2628 0.3043
H2B H 0.1950 0.1304 0.3287
C1B C 0.3541(12) 0.2516(8) 0.2650(3)
H3B H 0.4514 0.3062 0.2908
H4B H 0.3634 0.3381 0.2381
C1C C 0.3541(12) 0.1025(9) 0.2350(3)
N1C N 0.1869(8) 0.0091(6) 0.2039(2)
H1C H 0.1632 -0.0996 0.1957
H2C H 0.1950 0.0646 0.1713
H3C H 0.4514 0.1452 0.2092
H4C H 0.3634 0.0253 0.2619
O5 O 0.3333 -0.3333 0.6531(11)
loop_
_geom_bond_atom_site_label_1
_geom_bond_atom_site_label_2
_geom_bond_site_symmetry_1
_geom_bond_site_symmetry_2
Zn1 O1 1_555 1_555
Zn2 Cl1 1_555 1_555
Co1 N1 1_555 1_555
Cl1 Zn2C 1_555 1_555
P1 O1 1_555 1_555
O2 P1 1_555 1_555
O3 P1 1_555 1_555
O4 Zn2 1_555 1_555
N1 H1 1_555 1_555
H2 N1 1_555 1_555
C1 N1 1_555 1_555
H3 C1 1_555 1_555
H4 C1 1_555 1_555
C1K C1 1_555 1_555
N1K Co1 1_555 1_555
H1K N1K 1_555 1_555
H2K N1K 1_555 1_555
H3K C1K 1_555 1_555
H4K C1K 1_555 1_555
N1A Co1 1_555 1_555
H1A N1A 1_555 1_555
H2A N1A 1_555 1_555
C1A N1A 1_555 1_555
H3A C1A 1_555 1_555
H4A C1A 1_555 1_555
C1D C1A 1_555 1_555
N1D Co1 1_555 1_555
H1D N1D 1_555 1_555
H2D N1D 1_555 1_555
H3D C1D 1_555 1_555
H4D C1D 1_555 1_555
N1B Co1 1_555 1_555
H1B N1B 1_555 1_555
H2B N1B 1_555 1_555
C1B N1B 1_555 1_555
H3B C1B 1_555 1_555
H4B C1B 1_555 1_555
C1C C1B 1_555 1_555
N1C Co1 1_555 1_555
H1C N1C 1_555 1_555
H2C N1C 1_555 1_555
H3C C1C 1_555 1_555
H4C C1C 1_555 1_555
P1A O1A 1_555 1_555
O1A Zn1A 1_555 1_555
O2A P1A 1_555 1_555
O3A P1A 1_555 1_555
O4A Zn2 1_555 1_555
P1B O1B 1_555 1_555
O1B Zn1B 1_555 1_555
O2B Zn1 1_555 1_555
O3B P1B 1_555 1_555
O4B Zn2 1_555 1_555
Zn2C O4C 1_555 1_555
Zn1A O2 1_555 1_555
Zn1B O2A 1_555 1_555
Zn1F O2 1_555 1_555
Zn1G O2A 1_555 1_555
Zn1H O2B 1_555 1_555
P1F O1F 1_555 1_555
O1F Zn1F 1_555 1_555
O2F Zn1 1_555 1_555
O3F Zn1H 1_555 1_555
O4F P1F 1_555 1_555
P1A_2 O1A_2 1_555 1_555
O1A_2 Zn1A_3 1_555 1_555
O2A_2 P1A_2 1_555 1_555
O3A_2 Zn1 1_555 1_555
O4A_2 P1A_2 1_555 1_555
P1C O1C 1_555 1_555
O1C Zn1C 1_555 1_555
O2C P1C 1_555 1_555
O3C P1C 1_555 1_555
O4C P1C 1_555 1_555
Zn1B_2 O3 1_555 1_555
Zn1_2 O3A 1_555 1_555
Zn1A_2 O3B 1_555 1_555
O4D Zn2C 1_555 1_555
O4K Zn2C 1_555 1_555
O2G Zn1A 1_555 1_555
O3B_2 Zn1A 1_555 1_555
O2H Zn1B 1_555 1_555
O3_2 Zn1B 1_555 1_555
O2H_2 Zn1F 1_555 1_555
O3G Zn1F 1_555 1_555
O1G Zn1G 1_555 1_555
O2F_2 Zn1G 1_555 1_555
O3H Zn1G 1_555 1_555
O1H Zn1H 1_555 1_555
O2G_2 Zn1H 1_555 1_555
Zn1G_2 O2F 1_555 1_555
Zn2F O4F 1_555 1_555
Zn1B_3 O2A_2 1_555 1_555
Zn2_2 O4A_2 1_555 1_555
Zn1D O2C 1_555 1_555
Zn1I O2C 1_555 1_555
Zn1K O3C 1_555 1_555
P1 O4 1_555 1_555
C1K N1K 1_555 1_555
C1D N1D 1_555 1_555
C1C N1C 1_555 1_555
P1A O4A 1_555 1_555
P1B O2B 1_555 1_555
P1B O4B 1_555 1_555
P1F O2F 1_555 1_555
P1F O3F 1_555 1_555
P1A_2 O3A_2 1_555 1_555
O2A_2 Zn1G_2 1_555 1_555
Zn1B_2 O2H_2 1_555 1_555
Zn1_2 O2F_2 1_555 1_555
Zn1A_2 O2G_2 1_555 1_555

#END
