
#######################################################################
#
#                 Cambridge Crystallographic Data Centre
#                                CCDC 
#
#######################################################################
#
# If this CIF has been generated from an entry in the Cambridge 
# Structural Database, then it will include bibliographic, chemical, 
# crystal, experimental, refinement or atomic coordinate data resulting 
# from the CCDC's data processing and validation procedures.
#
#######################################################################

data_AFOYIE
_chemical_formula_moiety         'C10 H14 Cu5 N9 O11 S1'
_symmetry_cell_setting           orthorhombic
_symmetry_space_group_name_H-M   'P n m a'
_symmetry_Int_Tables_number      62
_space_group_name_Hall           '-P 2ac 2n'
loop_
_symmetry_equiv_pos_site_id
_symmetry_equiv_pos_as_xyz
1 x,y,z
2 1/2-x,-y,1/2+z
3 -x,1/2+y,-z
4 1/2+x,1/2-y,1/2-z
5 -x,-y,-z
6 1/2+x,y,1/2-z
7 x,1/2-y,z
8 1/2-x,1/2+y,1/2+z
_cell_length_a                   7.1442(4)
_cell_length_b                   19.4387(15)
_cell_length_c                   17.3114(12)
_cell_angle_alpha                90
_cell_angle_beta                 90
_cell_angle_gamma                90
_cell_volume                     2404.1
loop_
_atom_site_label
_atom_site_type_symbol
_atom_site_fract_x
_atom_site_fract_y
_atom_site_fract_z
O6 O 0.591(2) 0.6110(7) -0.0698(8)
O8 O 0.4600(17) 0.5185(7) 0.1640(9)
O10 O 0.908(4) 0.8390(13) -0.1567(15)
Cu1 Cu 0.21540(6) 0.7500 0.25440(2)
S1 S 0.46508(16) 0.7500 0.07183(5)
O1 O 0.4674(5) 0.7500 0.15749(16)
O2 O 0.2941(9) 0.7785(3) 0.0411(3)
O3 O 0.6301(9) 0.7810(3) 0.0392(3)
O4 O 0.4696(8) 0.6734(3) 0.0540(3)
N1 N 0.0666(3) 0.67796(10) 0.19876(12)
N2 N -0.1254(3) 0.67760(9) 0.19458(11)
N3 N -0.0187(4) 0.59919(11) 0.11729(14)
C1 C 0.1296(4) 0.63046(13) 0.15152(15)
H1 H 0.2549 0.6200 0.1429
C2 C -0.1749(4) 0.62997(13) 0.14561(15)
H2 H -0.2974 0.6189 0.1323
C3 C -0.0098(4) 0.54760(14) 0.05727(17)
C4 C -0.1308(8) 0.4926(2) 0.0586(3)
H3 H -0.2187 0.4881 0.0979
C5 C 0.1193(8) 0.5558(2) -0.0007(3)
H4 H 0.1985 0.5938 -0.0008
Cu1E Cu 0.71540(6) 0.7500 0.24560(2)
Cu1E_2 Cu -0.28460(6) 0.7500 0.24560(2)
Cu1D Cu -0.21540(6) 0.2500 -0.25440(2)
Cu1G Cu 0.28460(6) 0.2500 -0.24560(2)
O1E O -0.0326(5) 0.7500 0.34251(16)
O2F O 0.2941(9) 0.7215(3) 0.0411(3)
O3F O 0.6301(9) 0.7190(3) 0.0392(3)
O4F O 0.4696(8) 0.8266(3) 0.0540(3)
N1D N -0.0666(3) 0.32204(10) -0.19876(12)
N1F N 0.0666(3) 0.82204(10) 0.19876(12)
N2D N 0.1254(3) 0.32240(9) -0.19458(11)
N2E N 0.3746(3) 0.67760(9) 0.30542(11)
N2C N 0.3746(3) 0.82240(9) 0.30542(11)
N3D N 0.0187(4) 0.40081(11) -0.11729(14)
C1D C -0.1296(4) 0.36954(13) -0.15152(15)
H1D H -0.2549 0.3800 -0.1429
C2D C 0.1749(4) 0.37003(13) -0.14561(15)
H2D H 0.2974 0.3811 -0.1323
C3D C 0.0098(4) 0.45240(14) -0.05727(17)
C4D C 0.1308(8) 0.5074(2) -0.0586(3)
H3D H 0.2187 0.5119 -0.0979
C5D C -0.1193(8) 0.4442(2) 0.0007(3)
H4D H -0.1985 0.4062 0.0008
loop_
_geom_bond_atom_site_label_1
_geom_bond_atom_site_label_2
_geom_bond_site_symmetry_1
_geom_bond_site_symmetry_2
Cu1 O1 1_555 1_555
S1 O1 1_555 1_555
O1 Cu1E 1_555 1_555
O2 S1 1_555 1_555
O3 S1 1_555 1_555
O4 S1 1_555 1_555
N1 Cu1 1_555 1_555
N2 N1 1_555 1_555
N3 C1 1_555 1_555
C1 N1 1_555 1_555
H1 C1 1_555 1_555
C2 N2 1_555 1_555
H2 C2 1_555 1_555
C3 N3 1_555 1_555
C4 C3 1_555 1_555
H3 C4 1_555 1_555
C5 C3 1_555 1_555
H4 C5 1_555 1_555
Cu1E_2 N2 1_555 1_555
Cu1D N1D 1_555 1_555
Cu1G N2D 1_555 1_555
O1E Cu1 1_555 1_555
O2F S1 1_555 1_555
O3F S1 1_555 1_555
O4F S1 1_555 1_555
N1D N2D 1_555 1_555
N1F Cu1 1_555 1_555
N2D C2D 1_555 1_555
N2E Cu1 1_555 1_555
N2C Cu1 1_555 1_555
N3D C1D 1_555 1_555
C1D N1D 1_555 1_555
H1D C1D 1_555 1_555
C2D N3D 1_555 1_555
H2D C2D 1_555 1_555
C3D N3D 1_555 1_555
C4D C5 1_555 1_555
H3D C4D 1_555 1_555
C5D C4 1_555 1_555
H4D C5D 1_555 1_555
O2 O2F 1_555 1_555
O2 O4F 1_555 1_555
O3 O3F 1_555 1_555
O3 O4F 1_555 1_555
O4 O2F 1_555 1_555
O4 O3F 1_555 1_555
N3 C2 1_555 1_555
Cu1E_2 O1E 1_555 1_555
C3D C4D 1_555 1_555
C3D C5D 1_555 1_555

#END
