
#######################################################################
#
#                 Cambridge Crystallographic Data Centre
#                                CCDC 
#
#######################################################################
#
# If this CIF has been generated from an entry in the Cambridge 
# Structural Database, then it will include bibliographic, chemical, 
# crystal, experimental, refinement or atomic coordinate data resulting 
# from the CCDC's data processing and validation procedures.
#
#######################################################################

data_LUSQIB
_chemical_formula_moiety         '(C44 H76 Cu3 N4 O17)n'
_symmetry_cell_setting           tetragonal
_symmetry_space_group_name_H-M   'P 4 21 2'
_symmetry_Int_Tables_number      90
_space_group_name_Hall           'P 4ab 2ab'
loop_
_symmetry_equiv_pos_site_id
_symmetry_equiv_pos_as_xyz
1 x,y,z
2 1/2-y,1/2+x,z
3 -x,-y,z
4 1/2+y,1/2-x,z
5 1/2+x,1/2-y,-z
6 1/2-x,1/2+y,-z
7 y,x,-z
8 -y,-x,-z
_cell_length_a                   21.5599(3)
_cell_length_b                   21.5599(3)
_cell_length_c                   12.8974(3)
_cell_angle_alpha                90
_cell_angle_beta                 90
_cell_angle_gamma                90
_cell_volume                     5995.09
loop_
_atom_site_label
_atom_site_type_symbol
_atom_site_fract_x
_atom_site_fract_y
_atom_site_fract_z
Cu1 Cu 0.20949(2) 0.20949(2) 0.5000
Cu2 Cu 0.05811(2) 0.31312(2) 0.68583(3)
O1 O 0.14609(12) 0.26223(13) 0.56017(19)
O2 O 0.05301(12) 0.30176(13) 0.5315(2)
O3 O 0.02488(13) 0.23001(13) 0.7017(2)
O4 O 0.10980(15) 0.18649(15) 0.7671(3)
O5 O 0.09447(13) 0.39403(12) -0.3344(2)
O6 O 0.28229(13) 0.28229(13) 0.5000
N1 N 0.16340(15) 0.22915(15) 0.3651(2)
H1 H 0.1632 0.1936 0.3242
N2 N 0.09806(13) 0.31816(14) -0.1741(2)
H2 H 0.1213 0.2820 -0.1676
C1 C 0.09945(17) 0.27202(17) 0.5022(3)
C2 C 0.09806(18) 0.2431(2) 0.3958(3)
H3 H 0.0801 0.2736 0.3455
C3 C 0.0578(3) 0.1858(3) 0.3981(4)
H4 H 0.0845 0.1505 0.4189
H5 H 0.0268 0.1915 0.4540
C4 C 0.0235(5) 0.1667(6) 0.3027(9)
H6 H 0.0566 0.1518 0.2545
C5 C -0.0089(9) 0.2140(17) 0.2442(14)
H7 H 0.0186 0.2496 0.2336
H8 H -0.0458 0.2273 0.2827
H9 H -0.0214 0.1971 0.1768
C6 C -0.0176(8) 0.1110(10) 0.3183(17)
H10 H 0.0049 0.0793 0.3576
H11 H -0.0297 0.0941 0.2506
H12 H -0.0549 0.1233 0.3567
C7 C 0.19145(19) 0.2804(2) 0.3038(3)
H13 H 0.2354 0.2703 0.2892
H14 H 0.1905 0.3189 0.3454
C8 C 0.15772(18) 0.2914(2) 0.2017(3)
C9 C 0.1537(2) 0.2461(2) 0.1275(3)
H15 H 0.1743 0.2077 0.1388
C10 C 0.1211(2) 0.2544(2) 0.0381(3)
H16 H 0.1192 0.2217 -0.0111
C11 C 0.09084(18) 0.30936(19) 0.0177(3)
C12 C 0.0958(2) 0.3560(2) 0.0922(3)
H17 H 0.0761 0.3948 0.0805
C13 C 0.1286(2) 0.3469(2) 0.1817(3)
H18 H 0.1312 0.3795 0.2311
C14 C 0.0558(2) 0.1850(2) 0.7364(4)
C15 C 0.0198(4) 0.1234(3) 0.7338(7)
H19 H 0.0429 0.0918 0.7723
H20 H 0.0146 0.1100 0.6618
H21 H -0.0211 0.1293 0.7657
C16 C 0.12940(18) 0.41435(18) -0.2630(3)
C17 C 0.14377(17) 0.36950(17) -0.1741(3)
H22 H 0.1412 0.3923 -0.1066
C18 C 0.20985(18) 0.34292(19) -0.1874(4)
H23 H 0.2127 0.3039 -0.1472
H24 H 0.2158 0.3322 -0.2614
C19 C 0.2624(2) 0.3851(2) -0.1543(5)
H25 H 0.2576 0.4252 -0.1922
C20 C 0.2626(3) 0.3993(3) -0.0404(5)
H26 H 0.2977 0.4264 -0.0241
H27 H 0.2664 0.3605 -0.0011
H28 H 0.2238 0.4201 -0.0216
C21 C 0.3233(2) 0.3563(3) -0.1879(6)
H29 H 0.3577 0.3833 -0.1668
H30 H 0.3236 0.3516 -0.2635
H31 H 0.3280 0.3156 -0.1553
C22 C 0.0564(2) 0.3192(2) -0.0826(3)
H32 H 0.0247 0.2864 -0.0903
H33 H 0.0347 0.3596 -0.0799
O7 O 0.15384(16) 0.46520(13) -0.2620(2)
Cu2F Cu 0.31312(2) 0.05811(2) 0.31417(3)
O1F O 0.26223(13) 0.14609(12) 0.43983(19)
O2F O 0.30176(13) 0.05301(12) 0.4685(2)
O3F O 0.23001(13) 0.02488(13) 0.2983(2)
O4F O 0.18649(15) 0.10980(15) 0.2329(3)
O5F O 0.39403(12) 0.09447(13) 1.3344(2)
N1F N 0.22915(15) 0.16340(15) 0.6349(2)
H1F H 0.1936 0.1632 0.6758
N2F N 0.31816(14) 0.09806(13) 1.1741(2)
H2F H 0.2820 0.1213 1.1676
C1F C 0.27202(17) 0.09945(17) 0.4978(3)
C2F C 0.2431(2) 0.09806(18) 0.6042(3)
H3F H 0.2736 0.0801 0.6545
C3F C 0.1858(3) 0.0578(3) 0.6019(4)
H4F H 0.1505 0.0845 0.5811
H5F H 0.1915 0.0268 0.5460
C4F C 0.1667(6) 0.0235(5) 0.6973(9)
H6F H 0.1518 0.0566 0.7455
C5F C 0.2140(17) -0.0089(9) 0.7558(14)
H7F H 0.2496 0.0186 0.7664
H8F H 0.2273 -0.0458 0.7173
H9F H 0.1971 -0.0214 0.8232
C6F C 0.1110(10) -0.0176(8) 0.6817(17)
H10F H 0.0793 0.0049 0.6424
H11F H 0.0941 -0.0297 0.7494
H12F H 0.1233 -0.0549 0.6433
C7F C 0.2804(2) 0.19145(19) 0.6962(3)
H13F H 0.2703 0.2354 0.7108
H14F H 0.3189 0.1905 0.6546
C8F C 0.2914(2) 0.15772(18) 0.7983(3)
C9F C 0.2461(2) 0.1537(2) 0.8725(3)
H15F H 0.2077 0.1743 0.8612
C10F C 0.2544(2) 0.1211(2) 0.9619(3)
H16F H 0.2217 0.1192 1.0111
C11F C 0.30936(19) 0.09084(18) 0.9823(3)
C12F C 0.3560(2) 0.0958(2) 0.9078(3)
H17F H 0.3948 0.0761 0.9195
C13F C 0.3469(2) 0.1286(2) 0.8183(3)
H18F H 0.3795 0.1312 0.7689
C14F C 0.1850(2) 0.0558(2) 0.2636(4)
C15F C 0.1234(3) 0.0198(4) 0.2662(7)
H19F H 0.0918 0.0429 0.2277
H20F H 0.1100 0.0146 0.3382
H21F H 0.1293 -0.0211 0.2343
C16F C 0.41435(18) 0.12940(18) 1.2630(3)
C17F C 0.36950(17) 0.14377(17) 1.1741(3)
H22F H 0.3923 0.1412 1.1066
C18F C 0.34292(19) 0.20985(18) 1.1874(4)
H23F H 0.3039 0.2127 1.1472
H24F H 0.3322 0.2158 1.2614
C19F C 0.3851(2) 0.2624(2) 1.1543(5)
H25F H 0.4252 0.2576 1.1922
C20F C 0.3993(3) 0.2626(3) 1.0404(5)
H26F H 0.4264 0.2977 1.0241
H27F H 0.3605 0.2664 1.0011
H28F H 0.4201 0.2238 1.0216
C21F C 0.3563(3) 0.3233(2) 1.1879(6)
H29F H 0.3833 0.3577 1.1668
H30F H 0.3516 0.3236 1.2635
H31F H 0.3156 0.3280 1.1553
C22F C 0.3192(2) 0.0564(2) 1.0826(3)
H32F H 0.2864 0.0247 1.0903
H33F H 0.3596 0.0347 1.0799
O7F O 0.46520(13) 0.15384(16) 1.2620(2)
Cu2_2 Cu 0.05811(2) 0.31312(2) -0.31417(3)
Cu2A Cu 0.18688(2) 0.55811(2) -0.31417(3)
Cu2D Cu 0.55811(2) 0.18688(2) 1.31417(3)
Cu2F_2 Cu 0.31312(2) 0.05811(2) 1.31417(3)
O5_2 O 0.09447(13) 0.39403(12) 0.6656(2)
O5F_2 O 0.39403(12) 0.09447(13) 0.3344(2)
N2_2 N 0.09806(13) 0.31816(14) 0.8259(2)
N2F_2 N 0.31816(14) 0.09806(13) 0.1741(2)
O7C O -0.03480(13) 0.34616(16) 0.7380(2)
O7E O 0.34616(16) -0.03480(13) 0.2620(2)
O8 O 0.2544(3) 0.4035(2) 0.5609(4)
O9 O 0.1400(3) 0.4307(3) 0.4635(5)
O10 O 0.0000 0.5000 -0.2170(12)
O11 O 0.0000 0.5000 -0.067(2)
loop_
_geom_bond_atom_site_label_1
_geom_bond_atom_site_label_2
_geom_bond_site_symmetry_1
_geom_bond_site_symmetry_2
Cu1 O1 1_555 1_555
Cu2 O1 1_555 1_555
O1 C1 1_555 1_555
O2 Cu2 1_555 1_555
O3 Cu2 1_555 1_555
O4 C14 1_555 1_555
O5 C16 1_555 1_555
O6 Cu1 1_555 1_555
N1 Cu1 1_555 1_555
H1 N1 1_555 1_555
N2 H2 1_555 1_555
C1 O2 1_555 1_555
C2 N1 1_555 1_555
H3 C2 1_555 1_555
C3 C2 1_555 1_555
H4 C3 1_555 1_555
H5 C3 1_555 1_555
C4 C3 1_555 1_555
H6 C4 1_555 1_555
C5 C4 1_555 1_555
H7 C5 1_555 1_555
H8 C5 1_555 1_555
H9 C5 1_555 1_555
C6 C4 1_555 1_555
H10 C6 1_555 1_555
H11 C6 1_555 1_555
H12 C6 1_555 1_555
C7 N1 1_555 1_555
H13 C7 1_555 1_555
H14 C7 1_555 1_555
C8 C7 1_555 1_555
C9 C8 1_555 1_555
H15 C9 1_555 1_555
C10 C9 1_555 1_555
H16 C10 1_555 1_555
C11 C10 1_555 1_555
C12 C11 1_555 1_555
H17 C12 1_555 1_555
C13 C8 1_555 1_555
H18 C13 1_555 1_555
C14 O3 1_555 1_555
C15 C14 1_555 1_555
H19 C15 1_555 1_555
H20 C15 1_555 1_555
H21 C15 1_555 1_555
C16 C17 1_555 1_555
C17 N2 1_555 1_555
H22 C17 1_555 1_555
C18 C17 1_555 1_555
H23 C18 1_555 1_555
H24 C18 1_555 1_555
C19 C18 1_555 1_555
H25 C19 1_555 1_555
C20 C19 1_555 1_555
H26 C20 1_555 1_555
H27 C20 1_555 1_555
H28 C20 1_555 1_555
C21 C19 1_555 1_555
H29 C21 1_555 1_555
H30 C21 1_555 1_555
H31 C21 1_555 1_555
C22 N2 1_555 1_555
H32 C22 1_555 1_555
H33 C22 1_555 1_555
O7 C16 1_555 1_555
Cu2F O1F 1_555 1_555
O1F Cu1 1_555 1_555
O2F Cu2F 1_555 1_555
O3F Cu2F 1_555 1_555
O4F C14F 1_555 1_555
O5F C16F 1_555 1_555
N1F Cu1 1_555 1_555
H1F N1F 1_555 1_555
N2F H2F 1_555 1_555
C1F O1F 1_555 1_555
C2F N1F 1_555 1_555
H3F C2F 1_555 1_555
C3F C2F 1_555 1_555
H4F C3F 1_555 1_555
H5F C3F 1_555 1_555
C4F C3F 1_555 1_555
H6F C4F 1_555 1_555
C5F C4F 1_555 1_555
H7F C5F 1_555 1_555
H8F C5F 1_555 1_555
H9F C5F 1_555 1_555
C6F C4F 1_555 1_555
H10F C6F 1_555 1_555
H11F C6F 1_555 1_555
H12F C6F 1_555 1_555
C7F N1F 1_555 1_555
H13F C7F 1_555 1_555
H14F C7F 1_555 1_555
C8F C7F 1_555 1_555
C9F C8F 1_555 1_555
H15F C9F 1_555 1_555
C10F C9F 1_555 1_555
H16F C10F 1_555 1_555
C11F C10F 1_555 1_555
C12F C11F 1_555 1_555
H17F C12F 1_555 1_555
C13F C8F 1_555 1_555
H18F C13F 1_555 1_555
C14F O3F 1_555 1_555
C15F C14F 1_555 1_555
H19F C15F 1_555 1_555
H20F C15F 1_555 1_555
H21F C15F 1_555 1_555
C16F C17F 1_555 1_555
C17F N2F 1_555 1_555
H22F C17F 1_555 1_555
C18F C17F 1_555 1_555
H23F C18F 1_555 1_555
H24F C18F 1_555 1_555
C19F C18F 1_555 1_555
H25F C19F 1_555 1_555
C20F C19F 1_555 1_555
H26F C20F 1_555 1_555
H27F C20F 1_555 1_555
H28F C20F 1_555 1_555
C21F C19F 1_555 1_555
H29F C21F 1_555 1_555
H30F C21F 1_555 1_555
H31F C21F 1_555 1_555
C22F N2F 1_555 1_555
H32F C22F 1_555 1_555
H33F C22F 1_555 1_555
O7F C16F 1_555 1_555
Cu2_2 O5 1_555 1_555
Cu2A O7 1_555 1_555
Cu2D O7F 1_555 1_555
Cu2F_2 O5F 1_555 1_555
O5_2 Cu2 1_555 1_555
O5F_2 Cu2F 1_555 1_555
N2_2 Cu2 1_555 1_555
N2F_2 Cu2F 1_555 1_555
O7C Cu2 1_555 1_555
O7E Cu2F 1_555 1_555
N2 Cu2_2 1_555 1_555
C1 C2 1_555 1_555
C11 C22 1_555 1_555
C12 C13 1_555 1_555
O2F C1F 1_555 1_555
N2F Cu2F_2 1_555 1_555
C1F C2F 1_555 1_555
C11F C22F 1_555 1_555
C12F C13F 1_555 1_555

#END
