
#######################################################################
#
#                 Cambridge Crystallographic Data Centre
#                                CCDC 
#
#######################################################################
#
# If this CIF has been generated from an entry in the Cambridge 
# Structural Database, then it will include bibliographic, chemical, 
# crystal, experimental, refinement or atomic coordinate data resulting 
# from the CCDC's data processing and validation procedures.
#
#######################################################################

data_VUKSUR
_chemical_formula_moiety         '(C87 H57 N1 Nd4 O32)n'
_symmetry_cell_setting           triclinic
_symmetry_space_group_name_H-M   'P -1'
_symmetry_Int_Tables_number      2
_space_group_name_Hall           '-P 1'
loop_
_symmetry_equiv_pos_site_id
_symmetry_equiv_pos_as_xyz
1 x,y,z
2 -x,-y,-z
_cell_length_a                   14.708(3)
_cell_length_b                   15.429(3)
_cell_length_c                   23.084(4)
_cell_angle_alpha                84.282(3)
_cell_angle_beta                 82.619(3)
_cell_angle_gamma                86.756(3)
_cell_volume                     5164.1
loop_
_atom_site_label
_atom_site_type_symbol
_atom_site_fract_x
_atom_site_fract_y
_atom_site_fract_z
C1 C 0.9644(4) 1.0363(4) 0.2100(2)
C2 C 1.0405(4) 1.0005(3) 0.1699(2)
C3 C 1.1291(4) 1.0262(4) 0.1711(3)
H1 H 1.1398 1.0644 0.1979
C4 C 1.0268(4) 0.9435(4) 0.1294(3)
H2 H 0.9680 0.9255 0.1277
C5 C 1.0990(4) 0.9130(4) 0.0914(3)
H3 H 1.0888 0.8742 0.0648
C6 C 1.2017(4) 0.9962(4) 0.1331(3)
H4 H 1.2607 1.0138 0.1347
C7 C 1.1864(4) 0.9400(4) 0.0928(2)
C8 C 1.2521(4) 0.8754(5) 0.0060(3)
C9 C 1.2067(5) 0.9210(4) -0.0366(3)
H5 H 1.1814 0.9766 -0.0312
C10 C 1.2919(5) 0.7946(5) -0.0017(3)
H6 H 1.3239 0.7648 0.0269
C11 C 1.1990(4) 0.8837(4) -0.0871(3)
H7 H 1.1679 0.9143 -0.1159
C12 C 1.2835(5) 0.7583(4) -0.0528(3)
H8 H 1.3103 0.7032 -0.0582
C13 C 1.2370(4) 0.8007(4) -0.0959(2)
C14 C 1.2258(5) 0.7605(4) -0.1511(3)
C15 C 0.7824(4) 0.9216(4) 0.3593(3)
C16 C 0.7521(4) 0.9345(3) 0.4221(2)
C17 C 0.6761(4) 0.9894(4) 0.4361(2)
H9 H 0.6455 1.0182 0.4064
C18 C 0.7966(4) 0.8919(4) 0.4659(2)
H10 H 0.8464 0.8537 0.4567
C19 C 0.6461(4) 1.0013(4) 0.4940(3)
H11 H 0.5944 1.0370 0.5035
C20 C 0.7677(4) 0.9052(4) 0.5242(3)
H12 H 0.7987 0.8774 0.5540
C21 C 0.6922(4) 0.9606(4) 0.5371(2)
C22 C 0.6029(5) 1.0345(5) 0.6128(3)
C23 C 0.6207(5) 1.1209(5) 0.5993(3)
H13 H 0.6746 1.1367 0.5760
C24 C 0.5254(4) 1.0096(4) 0.6461(3)
H14 H 0.5140 0.9508 0.6549
C25 C 0.5588(4) 1.1846(4) 0.6203(3)
H15 H 0.5713 1.2431 0.6114
C26 C 0.4780(4) 1.1611(4) 0.6544(2)
C27 C 0.4620(4) 1.0738(4) 0.6671(3)
H16 H 0.4081 1.0571 0.6901
C28 C 0.4116(4) 1.2281(4) 0.6811(3)
C29 C 0.7479(4) 0.8352(4) 0.1249(2)
C30 C 0.7194(4) 0.8295(4) 0.0656(2)
C31 C 0.7847(4) 0.8341(4) 0.0165(3)
H17 H 0.8454 0.8438 0.0204
C32 C 0.6287(4) 0.8187(4) 0.0593(3)
H18 H 0.5845 0.8167 0.0920
C33 C 0.7605(5) 0.8246(4) -0.0378(3)
H19 H 0.8047 0.8251 -0.0705
C34 C 0.6033(5) 0.8108(4) 0.0046(3)
H20 H 0.5424 0.8033 0.0000
C35 C 0.6704(5) 0.8144(4) -0.0432(3)
C36 C 0.5745(4) 0.8344(4) -0.1207(3)
C37 C 0.5387(4) 0.9165(4) -0.1088(3)
H21 H 0.5635 0.9477 -0.0825
C38 C 0.5382(4) 0.7875(4) -0.1591(3)
H22 H 0.5622 0.7318 -0.1660
C39 C 0.4658(4) 0.9510(4) -0.1366(3)
H23 H 0.4401 1.0054 -0.1280
C40 C 0.4667(4) 0.8233(4) -0.1873(3)
H24 H 0.4422 0.7918 -0.2135
C41 C 0.4299(4) 0.9069(3) -0.1770(2)
C42 C 0.3519(4) 0.9436(4) -0.2080(3)
C43 C 0.9108(4) 0.7251(4) 0.2166(2)
C44 C 0.9822(4) 0.6635(4) 0.1887(2)
C45 C 1.0712(5) 0.6864(5) 0.1814(3)
H25 H 1.0859 0.7398 0.1923
C46 C 0.9612(5) 0.5860(4) 0.1716(3)
H26 H 0.9005 0.5698 0.1763
C47 C 1.1402(5) 0.6305(6) 0.1577(4)
H27 H 1.2013 0.6453 0.1541
C48 C 1.0309(7) 0.5308(5) 0.1469(4)
H28 H 1.0170 0.4776 0.1353
C49 C 1.1184(7) 0.5551(6) 0.1400(3)
C50 C 1.2045(6) 0.4864(5) 0.0612(3)
C51 C 1.1738(6) 0.5448(5) 0.0190(3)
H29 H 1.1391 0.5944 0.0294
C52 C 1.2572(6) 0.4145(5) 0.0464(3)
H30 H 1.2787 0.3750 0.0752
C53 C 1.1943(5) 0.5299(5) -0.0393(3)
H31 H 1.1724 0.5694 -0.0680
C54 C 1.2779(6) 0.4016(4) -0.0120(3)
H32 H 1.3146 0.3530 -0.0222
C55 C 1.2467(5) 0.4573(4) -0.0556(3)
C56 C 1.2708(5) 0.4377(5) -0.1179(3)
C57 C 0.7051(4) 0.5076(4) 0.3359(3)
C58 C 0.7032(4) 0.5533(3) 0.3893(2)
C59 C 0.7569(4) 0.6247(4) 0.3898(3)
H33 H 0.7964 0.6425 0.3565
C60 C 0.6455(5) 0.5277(4) 0.4390(3)
H34 H 0.6095 0.4801 0.4392
C61 C 0.7523(5) 0.6692(4) 0.4387(3)
H35 H 0.7886 0.7166 0.4387
C62 C 0.6405(5) 0.5722(4) 0.4887(3)
H36 H 0.6016 0.5544 0.5223
C63 C 0.6936(4) 0.6428(4) 0.4877(3)
C64 C 0.6073(4) 0.7103(4) 0.5662(3)
C65 C 0.5935(4) 0.6937(4) 0.6254(3)
H37 H 0.6408 0.6690 0.6456
C66 C 0.5395(5) 0.7489(5) 0.5365(3)
H38 H 0.5499 0.7606 0.4959
C67 C 0.5091(4) 0.7138(4) 0.6555(3)
H39 H 0.4996 0.7012 0.6960
C68 C 0.4544(5) 0.7711(4) 0.5666(3)
H40 H 0.4082 0.7986 0.5466
C69 C 0.4399(4) 0.7512(3) 0.6274(2)
C70 C 0.3471(4) 0.7712(4) 0.6588(3)
C71 C 0.5184(4) 0.4817(4) 0.2381(3)
C72 C 0.4241(4) 0.4976(4) 0.2677(3)
C73 C 0.4125(4) 0.5422(4) 0.3180(3)
H41 H 0.4623 0.5675 0.3295
C74 C 0.3498(4) 0.4628(4) 0.2506(3)
H42 H 0.3574 0.4320 0.2176
C75 C 0.3278(4) 0.5492(4) 0.3504(3)
H43 H 0.3207 0.5776 0.3845
C76 C 0.2642(4) 0.4725(4) 0.2809(3)
H44 H 0.2138 0.4516 0.2671
C77 C 0.2525(4) 0.5135(4) 0.3322(3)
C78 C 0.0998(4) 0.4737(5) 0.3546(3)
C79 C 0.0340(5) 0.5187(5) 0.3260(3)
H45 H 0.0345 0.5791 0.3189
C80 C 0.0959(5) 0.3865(5) 0.3705(3)
H46 H 0.1389 0.3582 0.3929
C81 C -0.0334(4) 0.4729(4) 0.3077(3)
H47 H -0.0782 0.5024 0.2873
C82 C 0.0287(5) 0.3408(5) 0.3535(3)
H48 H 0.0251 0.2814 0.3647
C83 C -0.0344(4) 0.3835(4) 0.3194(3)
C84 C -0.1003(4) 0.3327(4) 0.2945(3)
C85 C 0.4439(10) 0.7299(10) 0.2131(6)
H49 H 0.4202 0.6753 0.2245
C86 C 0.2892(9) 0.7760(11) 0.2354(9)
H50 H 0.2607 0.8313 0.2446
H51 H 0.2843 0.7359 0.2701
H52 H 0.2590 0.7536 0.2059
N1 N 0.3793(6) 0.7862(8) 0.2150(5)
Nd1 Nd 0.81455(2) 1.13019(2) 0.28154(2)
Nd2 Nd 0.78876(2) 0.88006(2) 0.23844(2)
Nd3 Nd 0.66772(2) 0.66493(2) 0.22696(2)
Nd4 Nd 0.70391(2) 0.40303(2) 0.23495(2)
O1 O 0.9765(3) 1.0984(3) 0.23803(18)
O2 O 0.8857(3) 1.0017(2) 0.21591(16)
O3 O 1.2635(3) 0.9120(3) 0.05755(18)
O4 O 1.1749(3) 0.7970(3) -0.18559(18)
O5 O 1.2702(3) 0.6886(3) -0.15866(17)
O6 O 0.7571(3) 0.9794(2) 0.31968(16)
O7 O 0.8273(3) 0.8548(2) 0.34410(16)
O8 O 0.6668(3) 0.9691(3) 0.59626(17)
O9 O 0.4319(3) 1.3057(3) 0.67774(18)
O10 O 0.3363(3) 1.2032(2) 0.71070(16)
O11 O 0.8206(3) 0.8708(3) 0.12981(16)
O12 O 0.6962(3) 0.8049(2) 0.17037(16)
O13 O 0.6514(3) 0.7979(3) -0.0982(2)
O14 O 0.3221(3) 1.0199(2) -0.19999(17)
O15 O 0.3216(3) 0.8977(3) -0.2425(2)
O16 O 0.9338(3) 0.7960(3) 0.22995(19)
O17 O 0.8269(3) 0.7055(3) 0.22502(19)
O18 O 1.1883(4) 0.4958(4) 0.1204(2)
O19 O 1.2458(3) 0.4911(3) -0.1580(2)
O20 O 1.3148(4) 0.3687(3) -0.12832(19)
O21 O 0.7372(3) 0.5467(2) 0.28647(16)
O22 O 0.6746(3) 0.4327(3) 0.33939(18)
O23 O 0.6934(3) 0.6886(3) 0.53650(18)
O24 O 0.3251(3) 0.7345(2) 0.71016(17)
O25 O 0.2937(3) 0.8261(3) 0.63542(18)
O26 O 0.5808(3) 0.5335(3) 0.24100(19)
O27 O 0.5384(3) 0.4113(3) 0.21423(18)
O28 O 0.1720(3) 0.5211(3) 0.3683(2)
O29 O -0.1495(3) 0.3749(3) 0.2577(2)
O30 O -0.1067(3) 0.2525(3) 0.30818(18)
O31 O 0.9016(3) 1.0732(3) 0.3652(2)
H53 H 0.9573 1.0542 0.3617
H54 H 0.8854 1.0801 0.4012
O32 O 0.5209(3) 0.7217(4) 0.2026(2)
C87 C 0.4026(13) 0.8720(10) 0.2081(9)
H55 H 0.3646 0.9038 0.2365
H56 H 0.3937 0.8967 0.1693
H57 H 0.4658 0.8754 0.2137
Nd1_2 Nd -0.18545(2) 0.13019(2) 0.28154(2)
Nd1A Nd 0.18545(2) 0.86981(2) -0.28154(2)
Nd1A_2 Nd 0.18545(2) 0.86981(2) 0.71846(2)
Nd1A_3 Nd 1.18545(2) 0.86981(2) -0.28154(2)
Nd2A Nd 0.21124(2) 1.11994(2) -0.23844(2)
Nd2A_2 Nd 0.21124(2) 1.11994(2) 0.76156(2)
Nd3A Nd 0.33228(2) 1.33507(2) 0.77304(2)
Nd3A_2 Nd 1.33228(2) 0.33507(2) -0.22696(2)
Nd4_2 Nd -0.29609(2) 0.40303(2) 0.23495(2)
Nd4A Nd 0.29609(2) 0.59697(2) 0.76505(2)
Nd4A_2 Nd 1.29609(2) 0.59697(2) -0.23495(2)
O4A O 0.8251(3) 1.2030(3) 0.18559(18)
O5A O 0.7298(3) 0.3114(3) 0.15866(17)
O9A O 0.5681(3) 0.6943(3) 0.32226(18)
O10A O 0.6637(3) 0.7968(2) 0.28930(16)
O14A O 0.6779(3) 0.9801(2) 0.19999(17)
O15A O 0.6784(3) 1.1023(3) 0.2425(2)
O19A O 0.7542(3) 0.5089(3) 0.1580(2)
O20A O 0.6852(4) 0.6313(3) 0.12832(19)
O24A O 0.6749(3) 0.2655(2) 0.28984(17)
O24A_2 O 0.6749(3) 1.2655(2) 0.28984(17)
O25A O 0.7063(3) 1.1739(3) 0.36458(18)
O29_2 O 0.8505(3) 0.3749(3) 0.2577(2)
O30_2 O 0.8933(3) 1.2525(3) 0.30818(18)
loop_
_geom_bond_atom_site_label_1
_geom_bond_atom_site_label_2
_geom_bond_site_symmetry_1
_geom_bond_site_symmetry_2
C1 C2 1_555 1_555
C2 C3 1_555 1_555
C3 H1 1_555 1_555
C4 C2 1_555 1_555
H2 C4 1_555 1_555
C5 C4 1_555 1_555
H3 C5 1_555 1_555
C6 C3 1_555 1_555
H4 C6 1_555 1_555
C7 C5 1_555 1_555
C8 C9 1_555 1_555
C9 H5 1_555 1_555
C10 C8 1_555 1_555
H6 C10 1_555 1_555
C11 C9 1_555 1_555
H7 C11 1_555 1_555
C12 C10 1_555 1_555
H8 C12 1_555 1_555
C13 C11 1_555 1_555
C14 C13 1_555 1_555
C15 C16 1_555 1_555
C16 C17 1_555 1_555
C17 H9 1_555 1_555
C18 C16 1_555 1_555
H10 C18 1_555 1_555
C19 C17 1_555 1_555
H11 C19 1_555 1_555
C20 C18 1_555 1_555
H12 C20 1_555 1_555
C21 C19 1_555 1_555
C22 C23 1_555 1_555
C23 H13 1_555 1_555
C24 C22 1_555 1_555
H14 C24 1_555 1_555
C25 C23 1_555 1_555
H15 C25 1_555 1_555
C26 C25 1_555 1_555
C27 C24 1_555 1_555
H16 C27 1_555 1_555
C28 C26 1_555 1_555
C29 C30 1_555 1_555
C30 C31 1_555 1_555
C31 H17 1_555 1_555
C32 C30 1_555 1_555
H18 C32 1_555 1_555
C33 C31 1_555 1_555
H19 C33 1_555 1_555
C34 C32 1_555 1_555
H20 C34 1_555 1_555
C35 C33 1_555 1_555
C36 C37 1_555 1_555
C37 H21 1_555 1_555
C38 C36 1_555 1_555
H22 C38 1_555 1_555
C39 C37 1_555 1_555
H23 C39 1_555 1_555
C40 C38 1_555 1_555
H24 C40 1_555 1_555
C41 C39 1_555 1_555
C42 C41 1_555 1_555
C43 C44 1_555 1_555
C44 C45 1_555 1_555
C45 H25 1_555 1_555
C46 C44 1_555 1_555
H26 C46 1_555 1_555
C47 C45 1_555 1_555
H27 C47 1_555 1_555
C48 C46 1_555 1_555
H28 C48 1_555 1_555
C49 C47 1_555 1_555
C50 C51 1_555 1_555
C51 H29 1_555 1_555
C52 C50 1_555 1_555
H30 C52 1_555 1_555
C53 C51 1_555 1_555
H31 C53 1_555 1_555
C54 C52 1_555 1_555
H32 C54 1_555 1_555
C55 C53 1_555 1_555
C56 C55 1_555 1_555
C57 C58 1_555 1_555
C58 C59 1_555 1_555
C59 H33 1_555 1_555
C60 C58 1_555 1_555
H34 C60 1_555 1_555
C61 C59 1_555 1_555
H35 C61 1_555 1_555
C62 C60 1_555 1_555
H36 C62 1_555 1_555
C63 C61 1_555 1_555
C64 C65 1_555 1_555
C65 H37 1_555 1_555
C66 C64 1_555 1_555
H38 C66 1_555 1_555
C67 C65 1_555 1_555
H39 C67 1_555 1_555
C68 C66 1_555 1_555
H40 C68 1_555 1_555
C69 C67 1_555 1_555
C70 C69 1_555 1_555
C71 C72 1_555 1_555
C72 C73 1_555 1_555
C73 H41 1_555 1_555
C74 C72 1_555 1_555
H42 C74 1_555 1_555
C75 C73 1_555 1_555
H43 C75 1_555 1_555
C76 C74 1_555 1_555
H44 C76 1_555 1_555
C77 C75 1_555 1_555
C78 C79 1_555 1_555
C79 H45 1_555 1_555
C80 C78 1_555 1_555
H46 C80 1_555 1_555
C81 C79 1_555 1_555
H47 C81 1_555 1_555
C82 C80 1_555 1_555
H48 C82 1_555 1_555
C83 C81 1_555 1_555
C84 C83 1_555 1_555
C85 H49 1_555 1_555
C86 H50 1_555 1_555
H51 C86 1_555 1_555
H52 C86 1_555 1_555
N1 C85 1_555 1_555
Nd1 O1 1_555 1_555
Nd2 O2 1_555 1_555
Nd3 O12 1_555 1_555
Nd4 O21 1_555 1_555
O1 C1 1_555 1_555
O2 C1 1_555 1_555
O3 C7 1_555 1_555
O4 C14 1_555 1_555
O5 C14 1_555 1_555
O6 C15 1_555 1_555
O7 C15 1_555 1_555
O8 C21 1_555 1_555
O9 C28 1_555 1_555
O10 C28 1_555 1_555
O11 C29 1_555 1_555
O12 C29 1_555 1_555
O13 C35 1_555 1_555
O14 C42 1_555 1_555
O15 C42 1_555 1_555
O16 C43 1_555 1_555
O17 C43 1_555 1_555
O18 C49 1_555 1_555
O19 C56 1_555 1_555
O20 C56 1_555 1_555
O21 C57 1_555 1_555
O22 C57 1_555 1_555
O23 C63 1_555 1_555
O24 C70 1_555 1_555
O25 C70 1_555 1_555
O26 C71 1_555 1_555
O27 C71 1_555 1_555
O28 C77 1_555 1_555
O29 C84 1_555 1_555
O30 C84 1_555 1_555
O31 Nd1 1_555 1_555
H53 O31 1_555 1_555
H54 O31 1_555 1_555
O32 C85 1_555 1_555
C87 N1 1_555 1_555
H55 C87 1_555 1_555
H56 C87 1_555 1_555
H57 C87 1_555 1_555
Nd1_2 O30 1_555 1_555
Nd1A O15 1_555 1_555
Nd1A_2 O24 1_555 1_555
Nd1A_3 O4 1_555 1_555
Nd2A O14 1_555 1_555
Nd2A_2 O10 1_555 1_555
Nd3A O9 1_555 1_555
Nd3A_2 O20 1_555 1_555
Nd4_2 O29 1_555 1_555
Nd4A O24 1_555 1_555
Nd4A_2 O5 1_555 1_555
O4A Nd1 1_555 1_555
O5A Nd4 1_555 1_555
O9A Nd3 1_555 1_555
O10A Nd2 1_555 1_555
O14A Nd2 1_555 1_555
O15A Nd1 1_555 1_555
O19A Nd4 1_555 1_555
O20A Nd3 1_555 1_555
O24A Nd4 1_555 1_555
O24A_2 Nd1 1_555 1_555
O25A Nd1 1_555 1_555
O29_2 Nd4 1_555 1_555
O30_2 Nd1 1_555 1_555
C6 C7 1_555 1_555
C8 O3 1_555 1_555
C12 C13 1_555 1_555
C20 C21 1_555 1_555
C22 O8 1_555 1_555
C26 C27 1_555 1_555
C34 C35 1_555 1_555
C36 O13 1_555 1_555
C40 C41 1_555 1_555
C48 C49 1_555 1_555
C50 O18 1_555 1_555
C54 C55 1_555 1_555
C62 C63 1_555 1_555
C64 O23 1_555 1_555
C68 C69 1_555 1_555
C76 C77 1_555 1_555
C78 O28 1_555 1_555
C82 C83 1_555 1_555
C86 N1 1_555 1_555
Nd1 O2 1_555 1_555
Nd1 O6 1_555 1_555
Nd2 O6 1_555 1_555
Nd2 O7 1_555 1_555
Nd2 O11 1_555 1_555
Nd2 O12 1_555 1_555
Nd2 O16 1_555 1_555
Nd2 O17 1_555 1_555
Nd3 O17 1_555 1_555
Nd3 O21 1_555 1_555
Nd3 O26 1_555 1_555
Nd3 O32 1_555 1_555
Nd3 O10A 1_555 1_555
Nd4 O22 1_555 1_555
Nd4 O26 1_555 1_555
Nd4 O27 1_555 1_555
O10 Nd3A 1_555 1_555
O19 Nd4A_2 1_555 1_555
O25 Nd1A_2 1_555 1_555

#END
