
#######################################################################
#
#                 Cambridge Crystallographic Data Centre
#                                CCDC 
#
#######################################################################
#
# If this CIF has been generated from an entry in the Cambridge 
# Structural Database, then it will include bibliographic, chemical, 
# crystal, experimental, refinement or atomic coordinate data resulting 
# from the CCDC's data processing and validation procedures.
#
#######################################################################

data_HUZSUR01
_chemical_formula_moiety         'C180 H82 K29 O98 Zn15'
_symmetry_cell_setting           triclinic
_symmetry_space_group_name_H-M   'P -1'
_symmetry_Int_Tables_number      2
_space_group_name_Hall           '-P 1'
loop_
_symmetry_equiv_pos_site_id
_symmetry_equiv_pos_as_xyz
1 x,y,z
2 -x,-y,-z
_cell_length_a                   16.3656(18)
_cell_length_b                   17.979(2)
_cell_length_c                   19.232(2)
_cell_angle_alpha                65.452(2)
_cell_angle_beta                 66.275(2)
_cell_angle_gamma                69.154(2)
_cell_volume                     4589.7
loop_
_atom_site_label
_atom_site_type_symbol
_atom_site_fract_x
_atom_site_fract_y
_atom_site_fract_z
Zn1 Zn 0.61535(2) 0.20147(3) -0.03474(2)
Zn2 Zn 0.64495(2) -0.03579(2) 0.22758(2)
K1 K 0.82121(5) 0.05259(5) 0.03314(5)
K2 K 0.60369(5) 0.19430(5) 0.16965(5)
K3 K 1.0019(3) 0.0653(3) 0.0461(3)
C1 C 0.0502(2) 0.3945(2) 0.1049(2)
C2 C 0.0120(2) 0.4675(2) 0.1256(2)
H1 H 0.0473 0.4880 0.1381
C3 C -0.07856(19) 0.5110(2) 0.12824(19)
C4 C -0.12974(19) 0.4781(2) 0.1092(2)
H2 H -0.1901 0.5061 0.1107
C5 C -0.09313(19) 0.40472(19) 0.08822(19)
C6 C -0.0019(2) 0.3628(2) 0.0871(2)
H3 H 0.0236 0.3133 0.0741
C7 C 0.1504(2) 0.3553(2) 0.0938(2)
C8 C 0.1940(2) 0.3507(2) 0.1453(2)
H4 H 0.1598 0.3674 0.1905
C9 C 0.2888(2) 0.3210(2) 0.1290(2)
H5 H 0.3170 0.3167 0.1645
C10 C 0.3412(2) 0.2982(2) 0.0615(2)
C11 C 0.2976(2) 0.3016(2) 0.0105(2)
H6 H 0.3323 0.2854 -0.0349
C12 C 0.2039(2) 0.32880(19) 0.0270(2)
H7 H 0.1758 0.3295 -0.0068
C13 C -0.1171(2) 0.5920(2) 0.1434(2)
C14 C -0.2099(2) 0.6148(2) 0.1858(2)
H8 H -0.2470 0.5768 0.2079
C15 C -0.2463(2) 0.6941(2) 0.1948(2)
H9 H -0.3076 0.7081 0.2237
C16 C -0.1933(2) 0.7525(2) 0.1617(2)
C17 C -0.1016(2) 0.7298(2) 0.1202(2)
H10 H -0.0649 0.7685 0.0973
C18 C -0.0637(2) 0.6500(2) 0.1125(2)
H11 H -0.0016 0.6353 0.0863
C19 C -0.14620(19) 0.3752(2) 0.06209(19)
C20 C -0.1376(2) 0.2903(2) 0.0786(2)
H12 H -0.0981 0.2508 0.1075
C21 C -0.1864(2) 0.2636(2) 0.0531(2)
H13 H -0.1815 0.2064 0.0670
C22 C -0.2433(2) 0.3215(2) 0.0064(2)
C23 C -0.2509(2) 0.4058(2) -0.0109(2)
H14 H -0.2881 0.4454 -0.0419
C24 C -0.2042(2) 0.4326(2) 0.0170(2)
H15 H -0.2117 0.4898 0.0055
C25 C -0.2337(2) 0.8390(2) 0.1687(2)
C26 C 0.4434(2) 0.2689(2) 0.0430(2)
C27 C -0.2960(2) 0.2942(2) -0.0234(2)
C28 C 0.0758(2) 0.1071(3) 0.4151(2)
C29 C 0.0267(2) 0.0959(3) 0.3779(2)
H16 H 0.0576 0.0834 0.3302
C30 C -0.0677(2) 0.1027(3) 0.4093(2)
C31 C -0.1124(2) 0.1229(3) 0.4807(2)
H17 H -0.1758 0.1306 0.5012
C32 C -0.0650(2) 0.1318(3) 0.5217(2)
C33 C 0.0291(2) 0.1250(3) 0.4874(2)
H18 H 0.0617 0.1326 0.5130
C34 C 0.1774(2) 0.0925(3) 0.3833(2)
C35 C 0.2277(2) 0.0261(2) 0.3527(2)
H19 H 0.1969 -0.0067 0.3498
C36 C 0.3221(2) 0.0080(2) 0.3268(2)
H20 H 0.3543 -0.0371 0.3073
C37 C 0.3694(2) 0.0567(2) 0.3295(2)
C38 C 0.3200(2) 0.1247(3) 0.3580(3)
H21 H 0.3508 0.1590 0.3585
C39 C 0.2251(2) 0.1413(3) 0.3857(3)
H22 H 0.1929 0.1858 0.4062
C40 C -0.1180(2) 0.0861(3) 0.3703(2)
C41 C -0.0909(2) 0.1047(2) 0.2874(2)
H23 H -0.0431 0.1319 0.2555
C42 C -0.1337(2) 0.0835(2) 0.2520(2)
H24 H -0.1157 0.0978 0.1965
C43 C -0.2035(2) 0.0410(2) 0.2982(2)
C44 C -0.2304(2) 0.0204(3) 0.3813(2)
H25 H -0.2769 -0.0085 0.4131
C45 C -0.1879(2) 0.0431(3) 0.4167(2)
H26 H -0.2064 0.0293 0.4721
C46 C -0.1131(2) 0.1410(3) 0.6023(2)
C47 C -0.2017(2) 0.1892(3) 0.6222(2)
H27 H -0.2311 0.2195 0.5829
C48 C -0.2469(2) 0.1931(3) 0.6991(2)
H28 H -0.3051 0.2276 0.7104
C49 C -0.2061(2) 0.1463(2) 0.7595(2)
C50 C -0.1172(2) 0.0973(3) 0.7410(2)
H29 H -0.0889 0.0654 0.7809
C51 C -0.0717(2) 0.0962(3) 0.6636(2)
H30 H -0.0118 0.0649 0.6516
C52 C 0.4723(2) 0.0392(2) 0.2996(2)
C53 C -0.2504(3) 0.0208(3) 0.2586(3)
C54 C -0.2540(2) 0.1473(3) 0.8444(2)
C55 C 0.5802(2) 0.0471(2) 0.0885(3)
H31 H 0.5453 0.0068 0.1174
O1 O 0.47874(15) 0.24767(18) 0.09677(16)
O2 O 0.48859(14) 0.26697(16) -0.02809(15)
O3 O -0.18904(16) 0.89403(15) 0.12933(16)
O4 O -0.31478(15) 0.85120(15) 0.21726(15)
O5 O 0.69703(13) 0.21643(14) 0.00905(13)
O6 O -0.33262(18) 0.34528(16) -0.07475(16)
O7 O 0.51261(14) -0.03038(16) 0.28293(15)
O8 O 0.51295(15) 0.08988(16) 0.29155(16)
O9 O 0.75305(17) 0.06199(18) 0.18686(17)
O10 O 0.70671(17) -0.03750(18) 0.29957(17)
O11 O 0.77724(16) 0.09655(18) -0.10060(15)
O12 O 0.67070(15) 0.20418(17) -0.14675(15)
O13 O 0.63363(14) 0.04855(15) 0.11955(14)
O14 O 0.56989(16) 0.09481(16) 0.02239(16)
O5_2 O -0.30297(13) 0.21643(14) 0.00905(13)
Zn1_2 Zn -0.38465(2) 0.20147(3) -0.03474(2)
O2_2 O -0.51141(14) 0.26697(16) -0.02809(15)
O12_2 O -0.32930(15) 0.20418(17) -0.14675(15)
C54_2 C -0.2540(2) 0.1473(3) -0.1556(2)
C49_2 C -0.2061(2) 0.1463(2) -0.2405(2)
C48_2 C -0.2469(2) 0.1931(3) -0.3009(2)
C47_2 C -0.2017(2) 0.1892(3) -0.3778(2)
C46_2 C -0.1131(2) 0.1410(3) -0.3977(2)
C32_2 C -0.0650(2) 0.1318(3) -0.4783(2)
C31_2 C -0.1124(2) 0.1229(3) -0.5193(2)
C30_2 C -0.0677(2) 0.1027(3) -0.5907(2)
C29_2 C 0.0267(2) 0.0959(3) -0.6221(2)
C28_2 C 0.0758(2) 0.1071(3) -0.5849(2)
C33_2 C 0.0291(2) 0.1250(3) -0.5126(2)
H18_2 H 0.0617 0.1326 -0.4870
C34_2 C 0.1774(2) 0.0925(3) -0.6167(2)
C35_2 C 0.2277(2) 0.0261(2) -0.6473(2)
H19_2 H 0.1969 -0.0067 -0.6502
C36_2 C 0.3221(2) 0.0080(2) -0.6732(2)
H20_2 H 0.3543 -0.0371 -0.6927
C37_2 C 0.3694(2) 0.0567(2) -0.6705(2)
C38_2 C 0.3200(2) 0.1247(3) -0.6420(3)
H21_2 H 0.3508 0.1590 -0.6415
C39_2 C 0.2251(2) 0.1413(3) -0.6143(3)
H22_2 H 0.1929 0.1858 -0.5938
C52_2 C 0.4723(2) 0.0392(2) -0.7004(2)
O7_2 O 0.51261(14) -0.03038(16) -0.71707(15)
Zn2_2 Zn 0.64495(2) -0.03579(2) -0.77242(2)
K2_2 K 0.60369(5) 0.19430(5) -0.83035(5)
K1_2 K 0.82121(5) 0.05259(5) -0.96686(5)
K3_2 K 1.0019(3) 0.0653(3) -0.9539(3)
K1A K 1.17879(5) -0.05259(5) -1.03314(5)
K2A K 1.39631(5) -0.19430(5) -1.16965(5)
Zn2A Zn 1.35505(2) 0.03579(2) -1.22758(2)
O4A O 1.31478(15) 0.14880(15) -1.21726(15)
C25A C 1.2337(2) 0.1610(2) -1.1687(2)
C16A C 1.1933(2) 0.2475(2) -1.1617(2)
C15A C 1.2463(2) 0.3059(2) -1.1948(2)
C14A C 1.2099(2) 0.3852(2) -1.1858(2)
C13A C 1.1171(2) 0.4080(2) -1.1434(2)
C3A C 1.07856(19) 0.4890(2) -1.12824(19)
C2A C 0.9880(2) 0.5325(2) -1.1256(2)
C1A C 0.9498(2) 0.6055(2) -1.1049(2)
C6A C 1.0019(2) 0.6372(2) -1.0871(2)
C5A C 1.09313(19) 0.59528(19) -1.08822(19)
C4A C 1.12974(19) 0.5219(2) -1.1092(2)
H2A H 1.1901 0.4939 -1.1107
C19A C 1.14620(19) 0.6248(2) -1.06209(19)
C20A C 1.1376(2) 0.7097(2) -1.0786(2)
H12A H 1.0981 0.7492 -1.1075
C21A C 1.1864(2) 0.7364(2) -1.0531(2)
H13A H 1.1815 0.7936 -1.0670
C22A C 1.2433(2) 0.6785(2) -1.0064(2)
C23A C 1.2509(2) 0.5942(2) -0.9891(2)
H14A H 1.2881 0.5546 -0.9581
C24A C 1.2042(2) 0.5674(2) -1.0170(2)
H15A H 1.2117 0.5102 -1.0055
C27A C 1.2960(2) 0.7058(2) -0.9766(2)
O5A O 1.30297(13) 0.78357(14) -1.00905(13)
Zn1A Zn 1.38465(2) 0.79853(3) -0.96526(2)
O2A O 1.51141(14) 0.73303(16) -0.97191(15)
C26A C 1.5566(2) 0.7311(2) -1.0430(2)
C10A C 1.6588(2) 0.7018(2) -1.0615(2)
C9A C 1.7112(2) 0.6790(2) -1.1290(2)
C8A C 1.8060(2) 0.6493(2) -1.1453(2)
C7A C 1.8496(2) 0.6447(2) -1.0938(2)
C1A_2 C 1.9498(2) 0.6055(2) -1.1049(2)
C2A_2 C 1.9880(2) 0.5325(2) -1.1256(2)
C6A_2 C 2.0019(2) 0.6372(2) -1.0871(2)
C12A C 1.7961(2) 0.67120(19) -1.0270(2)
C11A C 1.7024(2) 0.6984(2) -1.0105(2)
H6A H 1.6677 0.7146 -0.9651
H7A H 1.8242 0.6705 -0.9932
H4A H 1.8402 0.6326 -1.1905
H5A H 1.6830 0.6833 -1.1645
O1A O 1.52126(15) 0.75233(18) -1.09677(16)
K2A_2 K 1.39631(5) 0.80570(5) -1.16965(5)
Zn2A_2 Zn 1.35505(2) 1.03579(2) -1.22758(2)
K1A_2 K 1.17879(5) 0.94741(5) -1.03314(5)
K3A K 0.9981(3) 0.9347(3) -1.0461(3)
K1_3 K 0.82121(5) 1.05259(5) -0.96686(5)
K2_3 K 0.60369(5) 1.19430(5) -0.83035(5)
K3_3 K 1.0019(3) 1.0653(3) -0.9539(3)
O3_2 O 0.81096(16) 0.89403(15) -0.87067(16)
C25_2 C 0.7663(2) 0.8390(2) -0.8313(2)
C16_2 C 0.8067(2) 0.7525(2) -0.8383(2)
C15_2 C 0.7537(2) 0.6941(2) -0.8052(2)
C14_2 C 0.7901(2) 0.6148(2) -0.8142(2)
C13_2 C 0.8829(2) 0.5920(2) -0.8566(2)
C3_2 C 0.92144(19) 0.5110(2) -0.87176(19)
C2_2 C 1.0120(2) 0.4675(2) -0.8744(2)
C4_2 C 0.87026(19) 0.4781(2) -0.8908(2)
C18_2 C 0.9363(2) 0.6500(2) -0.8875(2)
C17_2 C 0.8984(2) 0.7298(2) -0.8798(2)
H10_2 H 0.9351 0.7685 -0.9027
H11_2 H 0.9984 0.6353 -0.9137
H8_2 H 0.7530 0.5768 -0.7921
H9_2 H 0.6924 0.7081 -0.7763
O4_2 O 0.68522(15) 0.85120(15) -0.78274(15)
Zn2_3 Zn 0.64495(2) 0.96421(2) -0.77242(2)
O7_3 O 0.51261(14) 0.96962(16) -0.71707(15)
O9_2 O 0.75305(17) 1.06199(18) -0.81314(17)
O5_3 O 0.69703(13) 1.21643(14) -0.99095(13)
Zn1_3 Zn 0.61535(2) 1.20147(3) -1.03474(2)
O1_2 O 0.47874(15) 1.24767(18) -0.90323(16)
C26_2 C 0.4434(2) 1.2689(2) -0.9570(2)
C10_2 C 0.3412(2) 1.2982(2) -0.9385(2)
O2_3 O 0.48859(14) 1.26697(16) -1.02809(15)
O8_2 O 0.51295(15) 1.08988(16) -0.70845(16)
C52_3 C 0.4723(2) 1.0392(2) -0.7004(2)
C37_3 C 0.3694(2) 1.0567(2) -0.6705(2)
C53_2 C 0.7496(3) 1.0208(3) -0.7414(3)
C43_2 C 0.7965(2) 1.0410(2) -0.7018(2)
C42_2 C 0.8663(2) 1.0835(2) -0.7480(2)
C41_2 C 0.9091(2) 1.1047(2) -0.7126(2)
C40_2 C 0.8820(2) 1.0861(3) -0.6297(2)
C30_3 C 0.9323(2) 1.1027(3) -0.5907(2)
C29_3 C 1.0267(2) 1.0959(3) -0.6221(2)
C31_3 C 0.8876(2) 1.1229(3) -0.5193(2)
C45_2 C 0.8121(2) 1.0431(3) -0.5833(2)
C44_2 C 0.7696(2) 1.0204(3) -0.6187(2)
H25_2 H 0.7231 0.9915 -0.5869
H26_2 H 0.7936 1.0293 -0.5279
H23_2 H 0.9569 1.1319 -0.7445
H24_2 H 0.8843 1.0978 -0.8035
O10_2 O 0.70671(17) 0.96250(18) -0.70043(17)
O13_2 O 0.63363(14) 1.04855(15) -0.88045(14)
O11_2 O 0.77724(16) 1.09655(18) -1.10060(15)
C54_3 C 0.7460(2) 1.1473(3) -1.1556(2)
C49_3 C 0.7939(2) 1.1463(2) -1.2405(2)
O12_3 O 0.67070(15) 1.20418(17) -1.14675(15)
C55_2 C 0.5802(2) 1.0471(2) -0.9115(3)
H31_2 H 0.5453 1.0068 -0.8826
O14_2 O 0.56989(16) 1.09481(16) -0.97761(16)
C27_2 C 0.7040(2) 1.2942(2) -1.0234(2)
O3A O 1.18904(16) 1.10597(15) -1.12933(16)
C25A_2 C 1.2337(2) 1.1610(2) -1.1687(2)
C16A_2 C 1.1933(2) 1.2475(2) -1.1617(2)
O4A_2 O 1.31478(15) 1.14880(15) -1.21726(15)
O9A O 1.24695(17) 0.93801(18) -1.18686(17)
O7A O 1.48739(14) 1.03038(16) -1.28293(15)
C52A C 1.5277(2) 0.9608(2) -1.2996(2)
C37A C 1.6306(2) 0.9433(2) -1.3295(2)
C36A C 1.6779(2) 0.9920(2) -1.3268(2)
C35A C 1.7723(2) 0.9739(2) -1.3527(2)
C34A C 1.8226(2) 0.9075(3) -1.3833(2)
C28A C 1.9242(2) 0.8929(3) -1.4151(2)
C29A C 1.9733(2) 0.9041(3) -1.3779(2)
H16A H 1.9424 0.9166 -1.3302
C30A C 2.0677(2) 0.8973(3) -1.4093(2)
C31A C 2.1124(2) 0.8771(3) -1.4807(2)
H17A H 2.1758 0.8694 -1.5012
C32A C 2.0650(2) 0.8682(3) -1.5217(2)
C33A C 1.9709(2) 0.8750(3) -1.4874(2)
H18A H 1.9383 0.8674 -1.5130
C46A C 2.1131(2) 0.8590(3) -1.6023(2)
C47A C 2.2017(2) 0.8108(3) -1.6222(2)
H27A H 2.2311 0.7805 -1.5829
C48A C 2.2469(2) 0.8069(3) -1.6991(2)
H28A H 2.3051 0.7724 -1.7104
C49A C 2.2061(2) 0.8537(2) -1.7595(2)
C50A C 2.1172(2) 0.9027(3) -1.7410(2)
H29A H 2.0889 0.9346 -1.7809
C51A C 2.0717(2) 0.9038(3) -1.6636(2)
H30A H 2.0118 0.9351 -1.6516
C54A C 2.2540(2) 0.8527(3) -1.8444(2)
O11A O 2.22276(16) 0.90345(18) -1.89940(15)
K1A_3 K 2.17879(5) 0.94741(5) -2.03314(5)
K2A_3 K 2.39631(5) 0.80570(5) -2.16965(5)
K3A_2 K 1.9981(3) 0.9347(3) -2.0461(3)
K3_4 K 2.0019(3) 1.0653(3) -1.9539(3)
O3A_2 O 2.18904(16) 1.10597(15) -2.12933(16)
O5A_2 O 2.30297(13) 0.78357(14) -2.00905(13)
O9A_2 O 2.24695(17) 0.93801(18) -2.18686(17)
O13A O 2.36637(14) 0.95145(15) -2.11955(14)
Zn2A_3 Zn 2.35505(2) 1.03579(2) -2.22758(2)
O4A_3 O 2.31478(15) 1.14880(15) -2.21726(15)
O7A_2 O 2.48739(14) 1.03038(16) -2.28293(15)
O10A O 2.29329(17) 1.03750(18) -2.29957(17)
C53A C 2.2504(3) 0.9792(3) -2.2586(3)
C43A C 2.2035(2) 0.9590(2) -2.2982(2)
C42A C 2.1337(2) 0.9165(2) -2.2520(2)
C41A C 2.0909(2) 0.8953(2) -2.2874(2)
C40A C 2.1180(2) 0.9139(3) -2.3703(2)
C30A_2 C 2.0677(2) 0.8973(3) -2.4093(2)
C29A_2 C 1.9733(2) 0.9041(3) -2.3779(2)
C31A_2 C 2.1124(2) 0.8771(3) -2.4807(2)
C45A C 2.1879(2) 0.9569(3) -2.4167(2)
C44A C 2.2304(2) 0.9796(3) -2.3813(2)
H25A H 2.2769 1.0085 -2.4131
H26A H 2.2064 0.9707 -2.4721
H23A H 2.0431 0.8681 -2.2555
H24A H 2.1157 0.9022 -2.1965
O1A_2 O 2.52126(15) 0.75233(18) -2.09677(16)
O8A O 2.48705(15) 0.91012(16) -2.29155(16)
C52A_2 C 2.5277(2) 0.9608(2) -2.2996(2)
C37A_2 C 2.6306(2) 0.9433(2) -2.3295(2)
C55A C 2.4198(2) 0.9529(2) -2.0885(3)
H31A H 2.4547 0.9932 -2.1174
O14A O 2.43011(16) 0.90519(16) -2.02239(16)
Zn1A_2 Zn 2.38465(2) 0.79853(3) -1.96526(2)
O2A_2 O 2.51141(14) 0.73303(16) -1.97191(15)
O12A O 2.32930(15) 0.79582(17) -1.85325(15)
C40A_2 C 2.1180(2) 0.9139(3) -1.3703(2)
C39A C 1.7749(2) 0.8587(3) -1.3857(3)
C38A C 1.6800(2) 0.8753(3) -1.3580(3)
H21A H 1.6492 0.8410 -1.3585
H22A H 1.8071 0.8142 -1.4062
H19A H 1.8031 1.0067 -1.3498
H20A H 1.6457 1.0371 -1.3073
O8A_2 O 1.48705(15) 0.91012(16) -1.29155(16)
O10A_2 O 1.29329(17) 1.03750(18) -1.29957(17)
O13A_2 O 1.36637(14) 0.95145(15) -1.11955(14)
C53A_2 C 1.2504(3) 0.9792(3) -1.2586(3)
O11A_2 O 1.22276(16) 0.90345(18) -0.89940(15)
O12A_2 O 1.32930(15) 0.79582(17) -0.85325(15)
O14A_2 O 1.43011(16) 0.90519(16) -1.02239(16)
O6A O 1.33262(18) 0.65472(16) -0.92525(16)
H3A H 0.9764 0.6867 -1.0741
C7A_2 C 0.8496(2) 0.6447(2) -1.0938(2)
H1A H 0.9527 0.5120 -1.1381
C18A C 1.0637(2) 0.3500(2) -1.1125(2)
C17A C 1.1016(2) 0.2702(2) -1.1202(2)
H10A H 1.0649 0.2315 -1.0973
H11A H 1.0016 0.3647 -1.0863
H8A H 1.2470 0.4232 -1.2079
H9A H 1.3076 0.2919 -1.2237
O3A_3 O 1.18904(16) 0.10597(15) -1.12933(16)
O7A_3 O 1.48739(14) 0.03038(16) -1.28293(15)
O9A_3 O 1.24695(17) -0.06199(18) -1.18686(17)
O10A_3 O 1.29329(17) 0.03750(18) -1.29957(17)
O13A_3 O 1.36637(14) -0.04855(15) -1.11955(14)
O1A_3 O 1.52126(15) -0.24767(18) -1.09677(16)
O5A_3 O 1.30297(13) -0.21643(14) -1.00905(13)
O8A_3 O 1.48705(15) -0.08988(16) -1.29155(16)
K3A_3 K 0.9981(3) -0.0653(3) -1.0461(3)
O11A_3 O 1.22276(16) -0.09655(18) -0.89940(15)
O3_3 O 0.81096(16) -0.10597(15) -0.87067(16)
O5_4 O 0.69703(13) 0.21643(14) -0.99095(13)
O9_3 O 0.75305(17) 0.06199(18) -0.81314(17)
O11_3 O 0.77724(16) 0.09655(18) -1.10060(15)
O13_3 O 0.63363(14) 0.04855(15) -0.88045(14)
O1_3 O 0.47874(15) 0.24767(18) -0.90323(16)
O8_3 O 0.51295(15) 0.08988(16) -0.70845(16)
O4_3 O 0.68522(15) -0.14880(15) -0.78274(15)
O10_3 O 0.70671(17) -0.03750(18) -0.70043(17)
H16_2 H 0.0576 0.0834 -0.6698
C40_3 C -0.1180(2) 0.0861(3) -0.6297(2)
H17_2 H -0.1758 0.1306 -0.4988
C51_2 C -0.0717(2) 0.0962(3) -0.3364(2)
C50_2 C -0.1172(2) 0.0973(3) -0.2590(2)
H29_2 H -0.0889 0.0654 -0.2191
H30_2 H -0.0118 0.0649 -0.3484
H27_2 H -0.2311 0.2195 -0.4171
H28_2 H -0.3051 0.2276 -0.2896
O11_4 O -0.22276(16) 0.09655(18) -0.10060(15)
O14_3 O -0.43011(16) 0.09481(16) 0.02239(16)
K1_4 K -0.17879(5) 0.05259(5) 0.03314(5)
K2_4 K -0.39631(5) 0.19430(5) 0.16965(5)
O4_4 O 0.68522(15) -0.14880(15) 0.21726(15)
K3A_4 K 0.9981(3) -0.0653(3) -0.0461(3)
O3_4 O 0.81096(16) -0.10597(15) 0.12933(16)
K1A_4 K 1.17879(5) -0.05259(5) -0.03314(5)
O9_4 O -0.24695(17) 0.06199(18) 0.18686(17)
O10_4 O -0.29329(17) -0.03750(18) 0.29957(17)
O11_5 O -0.22276(16) 0.09655(18) 0.89940(15)
O12_4 O -0.32930(15) 0.20418(17) 0.85325(15)
K1_5 K -0.17879(5) 1.05259(5) 0.03314(5)
Zn2_4 Zn -0.35505(2) 0.96421(2) 0.22758(2)
C27_3 C 0.7040(2) 0.2942(2) -0.0234(2)
C53_3 C 0.7496(3) 0.0208(3) 0.2586(3)
C54_4 C 0.7460(2) 0.1473(3) -0.1556(2)
K1_6 K 1.82121(5) 1.05259(5) -1.96686(5)
C43A_2 C 1.2035(2) 0.9590(2) -1.2982(2)
K3_5 K 0.0019(3) 0.0653(3) 0.0461(3)
K3A_5 K -0.0019(3) -0.0653(3) -0.0461(3)
O3_5 O -0.18904(16) -0.10597(15) 0.12933(16)
O13_4 O -0.36637(14) 0.04855(15) 0.11955(14)
Zn2_5 Zn -0.35505(2) -0.03579(2) 0.22758(2)
O1_4 O -0.52126(15) 0.24767(18) 0.09677(16)
O8_4 O -0.48705(15) 0.08988(16) 0.29155(16)
K2A_4 K 1.39631(5) -0.19430(5) -0.16965(5)
O3A_4 O 1.18904(16) 0.10597(15) -0.12933(16)
O5A_4 O 1.30297(13) -0.21643(14) -0.00905(13)
O9A_4 O 1.24695(17) -0.06199(18) -0.18686(17)
O11A_4 O 1.22276(16) -0.09655(18) 0.10060(15)
O13A_4 O 1.36637(14) -0.04855(15) -0.11955(14)
O4_5 O -0.31478(15) -0.14880(15) 0.21726(15)
O7_4 O -0.48739(14) -0.03038(16) 0.28293(15)
K1A_5 K 0.17879(5) -0.05259(5) -0.03314(5)
C55_3 C -0.4198(2) 0.0471(2) 0.0885(3)
Zn1A_3 Zn 1.38465(2) -0.20147(3) 0.03474(2)
C27A_2 C 1.2960(2) -0.2942(2) 0.0234(2)
Zn2A_4 Zn 1.35505(2) 0.03579(2) -0.22758(2)
O1A_4 O 1.52126(15) -0.24767(18) -0.09677(16)
O8A_4 O 1.48705(15) -0.08988(16) -0.29155(16)
C53A_3 C 1.2504(3) -0.0208(3) -0.2586(3)
C55A_2 C 1.4198(2) -0.0471(2) -0.0885(3)
loop_
_geom_bond_atom_site_label_1
_geom_bond_atom_site_label_2
_geom_bond_site_symmetry_1
_geom_bond_site_symmetry_2
Zn1 O2 1_555 1_555
Zn2 K2 1_555 1_555
K1 K2 1_555 1_555
K2 O1 1_555 1_555
K3 K1 1_555 1_555
C1 C2 1_555 1_555
C2 H1 1_555 1_555
C3 C2 1_555 1_555
C4 C3 1_555 1_555
H2 C4 1_555 1_555
C5 C4 1_555 1_555
C6 C1 1_555 1_555
H3 C6 1_555 1_555
C7 C1 1_555 1_555
C8 C7 1_555 1_555
H4 C8 1_555 1_555
C9 C8 1_555 1_555
H5 C9 1_555 1_555
C10 C9 1_555 1_555
C11 C10 1_555 1_555
H6 C11 1_555 1_555
C12 C7 1_555 1_555
H7 C12 1_555 1_555
C13 C3 1_555 1_555
C14 C13 1_555 1_555
H8 C14 1_555 1_555
C15 C14 1_555 1_555
H9 C15 1_555 1_555
C16 C15 1_555 1_555
C17 C16 1_555 1_555
H10 C17 1_555 1_555
C18 C13 1_555 1_555
H11 C18 1_555 1_555
C19 C5 1_555 1_555
C20 C19 1_555 1_555
H12 C20 1_555 1_555
C21 C20 1_555 1_555
H13 C21 1_555 1_555
C22 C21 1_555 1_555
C23 C22 1_555 1_555
H14 C23 1_555 1_555
C24 C19 1_555 1_555
H15 C24 1_555 1_555
C25 C16 1_555 1_555
C26 C10 1_555 1_555
C27 C22 1_555 1_555
C28 C29 1_555 1_555
C29 H16 1_555 1_555
C30 C29 1_555 1_555
C31 C30 1_555 1_555
H17 C31 1_555 1_555
C32 C31 1_555 1_555
C33 C28 1_555 1_555
H18 C33 1_555 1_555
C34 C28 1_555 1_555
C35 C34 1_555 1_555
H19 C35 1_555 1_555
C36 C35 1_555 1_555
H20 C36 1_555 1_555
C37 C36 1_555 1_555
C38 C37 1_555 1_555
H21 C38 1_555 1_555
C39 C34 1_555 1_555
H22 C39 1_555 1_555
C40 C30 1_555 1_555
C41 C40 1_555 1_555
H23 C41 1_555 1_555
C42 C41 1_555 1_555
H24 C42 1_555 1_555
C43 C42 1_555 1_555
C44 C43 1_555 1_555
H25 C44 1_555 1_555
C45 C40 1_555 1_555
H26 C45 1_555 1_555
C46 C32 1_555 1_555
C47 C46 1_555 1_555
H27 C47 1_555 1_555
C48 C47 1_555 1_555
H28 C48 1_555 1_555
C49 C48 1_555 1_555
C50 C49 1_555 1_555
H29 C50 1_555 1_555
C51 C46 1_555 1_555
H30 C51 1_555 1_555
C52 C37 1_555 1_555
C53 C43 1_555 1_555
C54 C49 1_555 1_555
C55 H31 1_555 1_555
O1 C26 1_555 1_555
O2 C26 1_555 1_555
O3 C25 1_555 1_555
O4 C25 1_555 1_555
O5 Zn1 1_555 1_555
O6 C27 1_555 1_555
O7 Zn2 1_555 1_555
O8 K2 1_555 1_555
O9 Zn2 1_555 1_555
O10 Zn2 1_555 1_555
O11 K1 1_555 1_555
O12 Zn1 1_555 1_555
O13 Zn2 1_555 1_555
O14 Zn1 1_555 1_555
O5_2 C27 1_555 1_555
Zn1_2 O5_2 1_555 1_555
O2_2 Zn1_2 1_555 1_555
O12_2 Zn1_2 1_555 1_555
C54_2 O12_2 1_555 1_555
C49_2 C54_2 1_555 1_555
C48_2 C49_2 1_555 1_555
C47_2 C48_2 1_555 1_555
C46_2 C47_2 1_555 1_555
C32_2 C46_2 1_555 1_555
C31_2 C32_2 1_555 1_555
C30_2 C31_2 1_555 1_555
C29_2 C30_2 1_555 1_555
C28_2 C29_2 1_555 1_555
C33_2 C32_2 1_555 1_555
H18_2 C33_2 1_555 1_555
C34_2 C28_2 1_555 1_555
C35_2 C34_2 1_555 1_555
H19_2 C35_2 1_555 1_555
C36_2 C35_2 1_555 1_555
H20_2 C36_2 1_555 1_555
C37_2 C36_2 1_555 1_555
C38_2 C37_2 1_555 1_555
H21_2 C38_2 1_555 1_555
C39_2 C34_2 1_555 1_555
H22_2 C39_2 1_555 1_555
C52_2 C37_2 1_555 1_555
O7_2 C52_2 1_555 1_555
Zn2_2 O7_2 1_555 1_555
K2_2 Zn2_2 1_555 1_555
K1_2 K2_2 1_555 1_555
K3_2 K1_2 1_555 1_555
K1A K3_2 1_555 1_555
K2A K1A 1_555 1_555
Zn2A K2A 1_555 1_555
O4A Zn2A 1_555 1_555
C25A O4A 1_555 1_555
C16A C25A 1_555 1_555
C15A C16A 1_555 1_555
C14A C15A 1_555 1_555
C13A C14A 1_555 1_555
C3A C13A 1_555 1_555
C2A C3A 1_555 1_555
C1A C2A 1_555 1_555
C6A C1A 1_555 1_555
C5A C6A 1_555 1_555
C4A C3A 1_555 1_555
H2A C4A 1_555 1_555
C19A C5A 1_555 1_555
C20A C19A 1_555 1_555
H12A C20A 1_555 1_555
C21A C20A 1_555 1_555
H13A C21A 1_555 1_555
C22A C21A 1_555 1_555
C23A C22A 1_555 1_555
H14A C23A 1_555 1_555
C24A C19A 1_555 1_555
H15A C24A 1_555 1_555
C27A C22A 1_555 1_555
O5A C27A 1_555 1_555
Zn1A O5A 1_555 1_555
O2A Zn1A 1_555 1_555
C26A O2A 1_555 1_555
C10A C26A 1_555 1_555
C9A C10A 1_555 1_555
C8A C9A 1_555 1_555
C7A C8A 1_555 1_555
C1A_2 C7A 1_555 1_555
C2A_2 C1A_2 1_555 1_555
C6A_2 C1A_2 1_555 1_555
C12A C7A 1_555 1_555
C11A C10A 1_555 1_555
H6A C11A 1_555 1_555
H7A C12A 1_555 1_555
H4A C8A 1_555 1_555
H5A C9A 1_555 1_555
O1A C26A 1_555 1_555
K2A_2 O5A 1_555 1_555
Zn2A_2 K2A_2 1_555 1_555
K1A_2 O5A 1_555 1_555
K3A K1A_2 1_555 1_555
K1_3 K3A 1_555 1_555
K2_3 K1_3 1_555 1_555
K3_3 K1A_2 1_555 1_555
O3_2 K1_3 1_555 1_555
C25_2 O3_2 1_555 1_555
C16_2 C25_2 1_555 1_555
C15_2 C16_2 1_555 1_555
C14_2 C15_2 1_555 1_555
C13_2 C14_2 1_555 1_555
C3_2 C13_2 1_555 1_555
C2_2 C3_2 1_555 1_555
C4_2 C3_2 1_555 1_555
C18_2 C13_2 1_555 1_555
C17_2 C16_2 1_555 1_555
H10_2 C17_2 1_555 1_555
H11_2 C18_2 1_555 1_555
H8_2 C14_2 1_555 1_555
H9_2 C15_2 1_555 1_555
O4_2 C25_2 1_555 1_555
Zn2_3 K2_3 1_555 1_555
O7_3 Zn2_3 1_555 1_555
O9_2 K1_3 1_555 1_555
O5_3 K1_3 1_555 1_555
Zn1_3 O5_3 1_555 1_555
O1_2 K2_3 1_555 1_555
C26_2 O1_2 1_555 1_555
C10_2 C26_2 1_555 1_555
O2_3 Zn1_3 1_555 1_555
O8_2 K2_3 1_555 1_555
C52_3 O7_3 1_555 1_555
C37_3 C52_3 1_555 1_555
C53_2 O9_2 1_555 1_555
C43_2 C53_2 1_555 1_555
C42_2 C43_2 1_555 1_555
C41_2 C42_2 1_555 1_555
C40_2 C41_2 1_555 1_555
C30_3 C40_2 1_555 1_555
C29_3 C30_3 1_555 1_555
C31_3 C30_3 1_555 1_555
C45_2 C40_2 1_555 1_555
C44_2 C43_2 1_555 1_555
H25_2 C44_2 1_555 1_555
H26_2 C45_2 1_555 1_555
H23_2 C41_2 1_555 1_555
H24_2 C42_2 1_555 1_555
O10_2 Zn2_3 1_555 1_555
O13_2 K1_3 1_555 1_555
O11_2 K1_3 1_555 1_555
C54_3 O11_2 1_555 1_555
C49_3 C54_3 1_555 1_555
O12_3 Zn1_3 1_555 1_555
C55_2 O13_2 1_555 1_555
H31_2 C55_2 1_555 1_555
O14_2 Zn1_3 1_555 1_555
C27_2 O5_3 1_555 1_555
O3A K1A_2 1_555 1_555
C25A_2 O3A 1_555 1_555
C16A_2 C25A_2 1_555 1_555
O4A_2 Zn2A_2 1_555 1_555
O9A K2A_2 1_555 1_555
O7A Zn2A_2 1_555 1_555
C52A O7A 1_555 1_555
C37A C52A 1_555 1_555
C36A C37A 1_555 1_555
C35A C36A 1_555 1_555
C34A C35A 1_555 1_555
C28A C34A 1_555 1_555
C29A C28A 1_555 1_555
H16A C29A 1_555 1_555
C30A C29A 1_555 1_555
C31A C30A 1_555 1_555
H17A C31A 1_555 1_555
C32A C31A 1_555 1_555
C33A C28A 1_555 1_555
H18A C33A 1_555 1_555
C46A C32A 1_555 1_555
C47A C46A 1_555 1_555
H27A C47A 1_555 1_555
C48A C47A 1_555 1_555
H28A C48A 1_555 1_555
C49A C48A 1_555 1_555
C50A C49A 1_555 1_555
H29A C50A 1_555 1_555
C51A C46A 1_555 1_555
H30A C51A 1_555 1_555
C54A C49A 1_555 1_555
O11A C54A 1_555 1_555
K1A_3 O11A 1_555 1_555
K2A_3 K1A_3 1_555 1_555
K3A_2 K1A_3 1_555 1_555
K3_4 K1A_3 1_555 1_555
O3A_2 K1A_3 1_555 1_555
O5A_2 K1A_3 1_555 1_555
O9A_2 K1A_3 1_555 1_555
O13A K1A_3 1_555 1_555
Zn2A_3 K2A_3 1_555 1_555
O4A_3 Zn2A_3 1_555 1_555
O7A_2 Zn2A_3 1_555 1_555
O10A Zn2A_3 1_555 1_555
C53A O9A_2 1_555 1_555
C43A C53A 1_555 1_555
C42A C43A 1_555 1_555
C41A C42A 1_555 1_555
C40A C41A 1_555 1_555
C30A_2 C40A 1_555 1_555
C29A_2 C30A_2 1_555 1_555
C31A_2 C30A_2 1_555 1_555
C45A C40A 1_555 1_555
C44A C43A 1_555 1_555
H25A C44A 1_555 1_555
H26A C45A 1_555 1_555
H23A C41A 1_555 1_555
H24A C42A 1_555 1_555
O1A_2 K2A_3 1_555 1_555
O8A K2A_3 1_555 1_555
C52A_2 O7A_2 1_555 1_555
C37A_2 C52A_2 1_555 1_555
C55A O13A 1_555 1_555
H31A C55A 1_555 1_555
O14A C55A 1_555 1_555
Zn1A_2 O5A_2 1_555 1_555
O2A_2 Zn1A_2 1_555 1_555
O12A C54A 1_555 1_555
C40A_2 C30A 1_555 1_555
C39A C34A 1_555 1_555
C38A C37A 1_555 1_555
H21A C38A 1_555 1_555
H22A C39A 1_555 1_555
H19A C35A 1_555 1_555
H20A C36A 1_555 1_555
O8A_2 K2A_2 1_555 1_555
O10A_2 Zn2A_2 1_555 1_555
O13A_2 K2A_2 1_555 1_555
C53A_2 O9A 1_555 1_555
O11A_2 K1A_2 1_555 1_555
O12A_2 Zn1A 1_555 1_555
O14A_2 Zn1A 1_555 1_555
O6A C27A 1_555 1_555
H3A C6A 1_555 1_555
C7A_2 C1A 1_555 1_555
H1A C2A 1_555 1_555
C18A C13A 1_555 1_555
C17A C16A 1_555 1_555
H10A C17A 1_555 1_555
H11A C18A 1_555 1_555
H8A C14A 1_555 1_555
H9A C15A 1_555 1_555
O3A_3 K1A 1_555 1_555
O7A_3 Zn2A 1_555 1_555
O9A_3 K1A 1_555 1_555
O10A_3 Zn2A 1_555 1_555
O13A_3 K1A 1_555 1_555
O1A_3 K2A 1_555 1_555
O5A_3 K1A 1_555 1_555
O8A_3 K2A 1_555 1_555
K3A_3 K1_2 1_555 1_555
O11A_3 K1A 1_555 1_555
O3_3 K1_2 1_555 1_555
O5_4 K2_2 1_555 1_555
O9_3 Zn2_2 1_555 1_555
O11_3 K1_2 1_555 1_555
O13_3 Zn2_2 1_555 1_555
O1_3 K2_2 1_555 1_555
O8_3 C52_2 1_555 1_555
O4_3 Zn2_2 1_555 1_555
O10_3 Zn2_2 1_555 1_555
H16_2 C29_2 1_555 1_555
C40_3 C30_2 1_555 1_555
H17_2 C31_2 1_555 1_555
C51_2 C46_2 1_555 1_555
C50_2 C49_2 1_555 1_555
H29_2 C50_2 1_555 1_555
H30_2 C51_2 1_555 1_555
H27_2 C47_2 1_555 1_555
H28_2 C48_2 1_555 1_555
O11_4 C54_2 1_555 1_555
O14_3 Zn1_2 1_555 1_555
K1_4 O5_2 1_555 1_555
K2_4 O5_2 1_555 1_555
O4_4 Zn2 1_555 1_555
K3A_4 K1 1_555 1_555
O3_4 K1 1_555 1_555
K1A_4 K3 1_555 1_555
O9_4 C53 1_555 1_555
O10_4 C53 1_555 1_555
O11_5 C54 1_555 1_555
O12_4 C54 1_555 1_555
K1_5 O3 1_555 1_555
Zn2_4 O4 1_555 1_555
C27_3 O5 1_555 1_555
C53_3 O9 1_555 1_555
C54_4 O11 1_555 1_555
K1_6 K3A_2 1_555 1_555
C43A_2 C53A_2 1_555 1_555
K3_5 K1_4 1_555 1_555
K3A_5 K1_4 1_555 1_555
O3_5 K1_4 1_555 1_555
O13_4 K1_4 1_555 1_555
Zn2_5 K2_4 1_555 1_555
O1_4 K2_4 1_555 1_555
O8_4 K2_4 1_555 1_555
K2A_4 K1A_4 1_555 1_555
O3A_4 K1A_4 1_555 1_555
O5A_4 K1A_4 1_555 1_555
O9A_4 K1A_4 1_555 1_555
O11A_4 K1A_4 1_555 1_555
O13A_4 K1A_4 1_555 1_555
O4_5 Zn2_5 1_555 1_555
O7_4 Zn2_5 1_555 1_555
K1A_5 K3_5 1_555 1_555
C55_3 O13_4 1_555 1_555
Zn1A_3 O5A_4 1_555 1_555
C27A_2 O5A_4 1_555 1_555
Zn2A_4 K2A_4 1_555 1_555
O1A_4 K2A_4 1_555 1_555
O8A_4 K2A_4 1_555 1_555
C53A_3 O9A_4 1_555 1_555
C55A_2 O13A_4 1_555 1_555
K1 O5 1_555 1_555
K1 O9 1_555 1_555
K1 O13 1_555 1_555
K2 O5 1_555 1_555
K2 O9 1_555 1_555
K2 O13 1_555 1_555
K3 K3A_4 1_555 1_555
C5 C6 1_555 1_555
C11 C12 1_555 1_555
C17 C18 1_555 1_555
C23 C24 1_555 1_555
C32 C33 1_555 1_555
C38 C39 1_555 1_555
C44 C45 1_555 1_555
C50 C51 1_555 1_555
C52 O7 1_555 1_555
C52 O8 1_555 1_555
C55 O13 1_555 1_555
C55 O14 1_555 1_555
O10 C53_3 1_555 1_555
O12 C54_4 1_555 1_555
C28_2 C33_2 1_555 1_555
C38_2 C39_2 1_555 1_555
K2_2 O8_3 1_555 1_555
K2_2 O9_3 1_555 1_555
K2_2 O13_3 1_555 1_555
K1_2 O5_4 1_555 1_555
K1_2 O9_3 1_555 1_555
K1_2 O13_3 1_555 1_555
K3_2 K3A_3 1_555 1_555
K1A K3A_3 1_555 1_555
K2A O5A_3 1_555 1_555
K2A O9A_3 1_555 1_555
K2A O13A_3 1_555 1_555
Zn2A O9A_3 1_555 1_555
Zn2A O13A_3 1_555 1_555
C25A O3A_3 1_555 1_555
C5A C4A 1_555 1_555
C23A C24A 1_555 1_555
C12A C11A 1_555 1_555
O1A K2A_2 1_555 1_555
K2A_2 K1A_2 1_555 1_555
Zn2A_2 O13A_2 1_555 1_555
Zn2A_2 O9A 1_555 1_555
K1A_2 O9A 1_555 1_555
K1A_2 O13A_2 1_555 1_555
K3A K3_3 1_555 1_555
K1_3 K3_3 1_555 1_555
K2_3 O5_3 1_555 1_555
K2_3 O9_2 1_555 1_555
K2_3 O13_2 1_555 1_555
C18_2 C17_2 1_555 1_555
O4_2 Zn2_3 1_555 1_555
Zn2_3 O9_2 1_555 1_555
Zn2_3 O13_2 1_555 1_555
C26_2 O2_3 1_555 1_555
O8_2 C52_3 1_555 1_555
C53_2 O10_2 1_555 1_555
C45_2 C44_2 1_555 1_555
C54_3 O12_3 1_555 1_555
C55_2 O14_2 1_555 1_555
C25A_2 O4A_2 1_555 1_555
C52A O8A_2 1_555 1_555
C32A C33A 1_555 1_555
C50A C51A 1_555 1_555
K2A_3 O9A_2 1_555 1_555
K2A_3 O5A_2 1_555 1_555
K2A_3 O13A 1_555 1_555
K3A_2 K3_4 1_555 1_555
K3_4 K1_6 1_555 1_555
O9A_2 Zn2A_3 1_555 1_555
O13A Zn2A_3 1_555 1_555
O10A C53A 1_555 1_555
C45A C44A 1_555 1_555
O8A C52A_2 1_555 1_555
O14A Zn1A_2 1_555 1_555
Zn1A_2 O12A 1_555 1_555
C39A C38A 1_555 1_555
O10A_2 C53A_2 1_555 1_555
C18A C17A 1_555 1_555
C51_2 C50_2 1_555 1_555
O11_4 K1_4 1_555 1_555
K1_4 K2_4 1_555 1_555
K1_4 O9_4 1_555 1_555
K2_4 O9_4 1_555 1_555
K2_4 O13_4 1_555 1_555
K3A_4 K1A_4 1_555 1_555
O9_4 Zn2_5 1_555 1_555
O10_4 Zn2_5 1_555 1_555
K3_5 K3A_5 1_555 1_555
K3A_5 K1A_5 1_555 1_555
O13_4 Zn2_5 1_555 1_555
K2A_4 O5A_4 1_555 1_555
K2A_4 O9A_4 1_555 1_555
K2A_4 O13A_4 1_555 1_555
O9A_4 Zn2A_4 1_555 1_555
O13A_4 Zn2A_4 1_555 1_555

#END
