
#######################################################################
#
#                 Cambridge Crystallographic Data Centre
#                                CCDC 
#
#######################################################################
#
# If this CIF has been generated from an entry in the Cambridge 
# Structural Database, then it will include bibliographic, chemical, 
# crystal, experimental, refinement or atomic coordinate data resulting 
# from the CCDC's data processing and validation procedures.
#
#######################################################################

data_HUZSOL
_chemical_formula_moiety         '(C63 H55 N3 Na2 O18 Zn3)n'
_symmetry_cell_setting           orthorhombic
_symmetry_space_group_name_H-M   'P n m a'
_symmetry_Int_Tables_number      62
_space_group_name_Hall           '-P 2ac 2n'
loop_
_symmetry_equiv_pos_site_id
_symmetry_equiv_pos_as_xyz
1 x,y,z
2 1/2-x,-y,1/2+z
3 -x,1/2+y,-z
4 1/2+x,1/2-y,1/2-z
5 -x,-y,-z
6 1/2+x,y,1/2-z
7 x,1/2-y,z
8 1/2-x,1/2+y,1/2+z
_cell_length_a                   17.108(4)
_cell_length_b                   21.644(5)
_cell_length_c                   25.258(6)
_cell_angle_alpha                90
_cell_angle_beta                 90
_cell_angle_gamma                90
_cell_volume                     9352.67
loop_
_atom_site_label
_atom_site_type_symbol
_atom_site_fract_x
_atom_site_fract_y
_atom_site_fract_z
Zn1 Zn 0.88078(7) 1.7500 0.31365(5)
Zn2 Zn 0.99284(5) 1.66538(5) 0.38424(4)
Na1 Na 1.1039(9) 1.7500 0.2894(6)
Na2 Na 0.7848(5) 1.7500 0.2651(3)
C1 C 0.9986(5) 1.4705(5) 0.0945(4)
C2 C 0.9334(5) 1.4501(6) 0.0654(4)
H1 H 0.8832 1.4600 0.0768
C3 C 0.9431(5) 1.4156(6) 0.0200(4)
C4 C 1.0178(6) 1.4017(6) 0.0022(4)
H2 H 1.0240 1.3778 -0.0281
C5 C 1.0828(5) 1.4227(6) 0.0286(4)
C6 C 1.0723(5) 1.4549(5) 0.0762(4)
H3 H 1.1160 1.4660 0.0959
C7 C 0.9879(5) 1.5112(5) 0.1413(4)
C8 C 0.9320(5) 1.5553(6) 0.1425(4)
H4 H 0.8981 1.5595 0.1140
C9 C 0.9245(5) 1.5940(6) 0.1849(4)
H5 H 0.8872 1.6253 0.1840
C10 C 0.9714(5) 1.5875(4) 0.2292(4)
C11 C 1.0280(5) 1.5421(5) 0.2293(4)
H6 H 1.0611 1.5377 0.2582
C12 C 1.0352(6) 1.5030(5) 0.1863(4)
H7 H 1.0716 1.4712 0.1871
C13 C 0.8727(6) 1.3928(6) -0.0092(5)
C14 C 0.8011(6) 1.3818(7) 0.0163(5)
H8 H 0.7989 1.3858 0.0529
C15 C 0.7342(6) 1.3653(6) -0.0103(4)
H9 H 0.6873 1.3601 0.0077
C16 C 0.7381(6) 1.3565(5) -0.0657(4)
C17 C 0.8073(6) 1.3673(5) -0.0912(4)
H10 H 0.8096 1.3620 -0.1277
C18 C 0.8738(6) 1.3856(6) -0.0645(5)
H11 H 0.9196 1.3933 -0.0832
C19 C 1.1634(6) 1.4117(6) 0.0066(4)
C20 C 1.1850(6) 1.3588(5) -0.0181(4)
H12 H 1.1495 1.3264 -0.0205
C21 C 1.2607(5) 1.3517(5) -0.0405(4)
H13 H 1.2735 1.3156 -0.0584
C22 C 1.3139(6) 1.3972(6) -0.0358(5)
C23 C 1.2942(6) 1.4530(7) -0.0117(6)
H14 H 1.3294 1.4858 -0.0108
C24 C 1.2197(6) 1.4583(7) 0.0109(5)
H15 H 1.2072 1.4941 0.0294
C25 C 0.9627(5) 1.6314(4) 0.2754(3)
C26 C 0.6654(5) 1.3383(5) -0.0946(4)
C27 C 1.3954(6) 1.3893(7) -0.0610(5)
C28 C 1.1908(15) 1.6201(18) 0.291(2)
H16 H 1.1480 1.6211 0.3141
C29 C 1.213(2) 1.503(2) 0.322(2)
H17 H 1.1856 1.4692 0.3061
H18 H 1.2634 1.4888 0.3343
H19 H 1.1837 1.5183 0.3517
C30 C 1.2593(15) 1.534(3) 0.2354(17)
H20 H 1.2837 1.5678 0.2173
H21 H 1.2980 1.5034 0.2440
H22 H 1.2202 1.5159 0.2129
N1 N 1.2246(10) 1.5550(9) 0.2814(10)
O1 O 0.9946(4) 1.6157(3) 0.3190(3)
O2 O 0.9263(4) 1.6808(3) 0.2666(2)
O3 O 1.4412(6) 1.4343(5) -0.0598(6)
O4 O 1.4078(4) 1.3405(4) -0.0810(3)
O5 O 0.6754(4) 1.3173(4) -0.1403(3)
O6 O 0.6009(4) 1.3459(3) -0.0720(2)
O7 O 0.9853(4) 1.7500 0.3559(3)
O8 O 1.209(2) 1.666(3) 0.276(3)
Zn1A Zn 0.61922(7) 1.2500 -0.18635(5)
Zn1A_2 Zn 0.61922(7) 2.2500 -0.18635(5)
Zn2F Zn 0.99284(5) 1.83462(5) 0.38424(4)
Zn2A Zn 1.50716(5) 1.33462(5) -0.11576(4)
Zn2A_2 Zn 0.50716(5) 1.33462(5) -0.11576(4)
Zn2G Zn 1.50716(5) 2.16538(5) -0.11576(4)
Zn2G_2 Zn 0.50716(5) 2.16538(5) -0.11576(4)
Na1C Na 0.6039(9) 1.7500 0.2106(6)
Na2C Na 1.2848(5) 1.7500 0.2349(3)
C1F C 0.9986(5) 2.0295(5) 0.0945(4)
C2F C 0.9334(5) 2.0499(6) 0.0654(4)
H1F H 0.8832 2.0400 0.0768
C3F C 0.9431(5) 2.0844(6) 0.0200(4)
C4F C 1.0178(6) 2.0983(6) 0.0022(4)
H2F H 1.0240 2.1222 -0.0281
C5F C 1.0828(5) 2.0773(6) 0.0286(4)
C6F C 1.0723(5) 2.0451(5) 0.0762(4)
H3F H 1.1160 2.0340 0.0959
C7F C 0.9879(5) 1.9888(5) 0.1413(4)
C8F C 0.9320(5) 1.9447(6) 0.1425(4)
H4F H 0.8981 1.9405 0.1140
C9F C 0.9245(5) 1.9060(6) 0.1849(4)
H5F H 0.8872 1.8747 0.1840
C10F C 0.9714(5) 1.9125(4) 0.2292(4)
C11F C 1.0280(5) 1.9579(5) 0.2293(4)
H6F H 1.0611 1.9623 0.2582
C12F C 1.0352(6) 1.9970(5) 0.1863(4)
H7F H 1.0716 2.0288 0.1871
C13F C 0.8727(6) 2.1072(6) -0.0092(5)
C14F C 0.8011(6) 2.1182(7) 0.0163(5)
H8F H 0.7989 2.1142 0.0529
C15F C 0.7342(6) 2.1347(6) -0.0103(4)
H9F H 0.6873 2.1399 0.0077
C16F C 0.7381(6) 2.1435(5) -0.0657(4)
C17F C 0.8073(6) 2.1327(5) -0.0912(4)
H10F H 0.8096 2.1380 -0.1277
C18F C 0.8738(6) 2.1144(6) -0.0645(5)
H11F H 0.9196 2.1067 -0.0832
C19F C 1.1634(6) 2.0883(6) 0.0066(4)
C20F C 1.1850(6) 2.1412(5) -0.0181(4)
H12F H 1.1495 2.1736 -0.0205
C21F C 1.2607(5) 2.1483(5) -0.0405(4)
H13F H 1.2735 2.1844 -0.0584
C22F C 1.3139(6) 2.1028(6) -0.0358(5)
C23F C 1.2942(6) 2.0470(7) -0.0117(6)
H14F H 1.3294 2.0142 -0.0108
C24F C 1.2197(6) 2.0417(7) 0.0109(5)
H15F H 1.2072 2.0059 0.0294
C25F C 0.9627(5) 1.8686(4) 0.2754(3)
C26F C 0.6654(5) 2.1617(5) -0.0946(4)
C27F C 1.3954(6) 2.1107(7) -0.0610(5)
C28F C 1.1908(15) 1.8799(18) 0.291(2)
H16F H 1.1480 1.8789 0.3141
C29F C 1.213(2) 1.997(2) 0.322(2)
H17F H 1.1856 2.0308 0.3061
H18F H 1.2634 2.0112 0.3343
H19F H 1.1837 1.9817 0.3517
C30F C 1.2593(15) 1.966(3) 0.2354(17)
H20F H 1.2837 1.9322 0.2173
H21F H 1.2980 1.9966 0.2440
H22F H 1.2202 1.9841 0.2129
N1F N 1.2246(10) 1.9450(9) 0.2814(10)
O1F O 0.9946(4) 1.8843(3) 0.3190(3)
O2F O 0.9263(4) 1.8192(3) 0.2666(2)
O3F O 1.4412(6) 2.0657(5) -0.0598(6)
O4F O 1.4078(4) 2.1595(4) -0.0810(3)
O4A O 1.0922(4) 1.6595(4) 0.4190(3)
O4G O 1.0922(4) 1.8405(4) 0.4190(3)
O5F O 0.6754(4) 2.1827(4) -0.1403(3)
O5A O 0.8246(4) 1.6827(4) 0.3597(3)
O5G O 0.8246(4) 1.8173(4) 0.3597(3)
O6F O 0.6009(4) 2.1541(3) -0.0720(2)
O6A O 0.8991(4) 1.6541(3) 0.4280(2)
O6G O 0.8991(4) 1.8459(3) 0.4280(2)
O8F O 1.209(2) 1.834(3) 0.276(3)
O8C O 0.709(2) 1.834(3) 0.224(3)
O8E O 0.709(2) 1.666(3) 0.224(3)
C31 C 0.4853(15) 0.2500 0.5689(8)
H23 H 0.4320 0.2500 0.5614
C32 C 0.5930(14) 0.2500 0.6318(13)
C33 C 0.4517(18) 0.2500 0.6626(12)
N2 N 0.5130(14) 0.2500 0.6225(7)
O9 O 0.5340(10) 0.2500 0.5329(5)
O10 O 0.359(5) 0.051(3) 0.1355(15)
H30 H 0.3408 0.0832 0.1233
H31 H 0.4051 0.0471 0.1269
O11 O 0.987(2) 0.2500 0.425(3)
H32 H 1.0343 0.2500 0.4294
H33 H 0.9634 0.2500 0.4530
loop_
_geom_bond_atom_site_label_1
_geom_bond_atom_site_label_2
_geom_bond_site_symmetry_1
_geom_bond_site_symmetry_2
Zn1 Na2 1_555 1_555
Zn2 O1 1_555 1_555
Na1 O7 1_555 1_555
Na2 Na1C 1_555 1_555
C1 C2 1_555 1_555
C2 H1 1_555 1_555
C3 C2 1_555 1_555
C4 C3 1_555 1_555
H2 C4 1_555 1_555
C5 C4 1_555 1_555
C6 C1 1_555 1_555
H3 C6 1_555 1_555
C7 C1 1_555 1_555
C8 C7 1_555 1_555
H4 C8 1_555 1_555
C9 C8 1_555 1_555
H5 C9 1_555 1_555
C10 C9 1_555 1_555
C11 C10 1_555 1_555
H6 C11 1_555 1_555
C12 C7 1_555 1_555
H7 C12 1_555 1_555
C13 C3 1_555 1_555
C14 C13 1_555 1_555
H8 C14 1_555 1_555
C15 C14 1_555 1_555
H9 C15 1_555 1_555
C16 C15 1_555 1_555
C17 C16 1_555 1_555
H10 C17 1_555 1_555
C18 C13 1_555 1_555
H11 C18 1_555 1_555
C19 C5 1_555 1_555
C20 C19 1_555 1_555
H12 C20 1_555 1_555
C21 C20 1_555 1_555
H13 C21 1_555 1_555
C22 C21 1_555 1_555
C23 C22 1_555 1_555
H14 C23 1_555 1_555
C24 C19 1_555 1_555
H15 C24 1_555 1_555
C25 C10 1_555 1_555
C26 C16 1_555 1_555
C27 C22 1_555 1_555
C28 H16 1_555 1_555
C29 H17 1_555 1_555
H18 C29 1_555 1_555
H19 C29 1_555 1_555
C30 H20 1_555 1_555
H21 C30 1_555 1_555
H22 C30 1_555 1_555
C31 H23 1_555 1_555
C32 N2 1_555 1_555
C33 N2 1_555 1_555
N1 C28 1_555 1_555
N2 C31 1_555 1_555
O1 C25 1_555 1_555
O2 Zn1 1_555 1_555
O3 C27 1_555 1_555
O4 C27 1_555 1_555
O5 C26 1_555 1_555
O6 C26 1_555 1_555
O7 Zn1 1_555 1_555
O8 Na1 1_555 1_555
O9 C31 1_555 1_555
O10 H30 1_555 1_555
H31 O10 1_555 1_555
O11 H32 1_555 1_555
H33 O11 1_555 1_555
Zn1A O5 1_555 1_555
Zn1A_2 O5F 1_555 1_555
Zn2F O7 1_555 1_555
Zn2A O4 1_555 1_555
Zn2A_2 O6 1_555 1_555
Zn2G O4F 1_555 1_555
Zn2G_2 O6F 1_555 1_555
Na1C O8C 1_555 1_555
Na2C Na1 1_555 1_555
C1F C2F 1_555 1_555
C2F H1F 1_555 1_555
C3F C2F 1_555 1_555
C4F C3F 1_555 1_555
H2F C4F 1_555 1_555
C5F C4F 1_555 1_555
C6F C1F 1_555 1_555
H3F C6F 1_555 1_555
C7F C1F 1_555 1_555
C8F C7F 1_555 1_555
H4F C8F 1_555 1_555
C9F C8F 1_555 1_555
H5F C9F 1_555 1_555
C10F C9F 1_555 1_555
C11F C10F 1_555 1_555
H6F C11F 1_555 1_555
C12F C7F 1_555 1_555
H7F C12F 1_555 1_555
C13F C3F 1_555 1_555
C14F C13F 1_555 1_555
H8F C14F 1_555 1_555
C15F C14F 1_555 1_555
H9F C15F 1_555 1_555
C16F C15F 1_555 1_555
C17F C16F 1_555 1_555
H10F C17F 1_555 1_555
C18F C13F 1_555 1_555
H11F C18F 1_555 1_555
C19F C5F 1_555 1_555
C20F C19F 1_555 1_555
H12F C20F 1_555 1_555
C21F C20F 1_555 1_555
H13F C21F 1_555 1_555
C22F C21F 1_555 1_555
C23F C22F 1_555 1_555
H14F C23F 1_555 1_555
C24F C19F 1_555 1_555
H15F C24F 1_555 1_555
C25F C10F 1_555 1_555
C26F C16F 1_555 1_555
C27F C22F 1_555 1_555
C28F H16F 1_555 1_555
C29F H17F 1_555 1_555
H18F C29F 1_555 1_555
H19F C29F 1_555 1_555
C30F H20F 1_555 1_555
H21F C30F 1_555 1_555
H22F C30F 1_555 1_555
N1F C28F 1_555 1_555
O1F Zn2F 1_555 1_555
O2F Zn1 1_555 1_555
O3F C27F 1_555 1_555
O4F C27F 1_555 1_555
O4A Zn2 1_555 1_555
O4G Zn2F 1_555 1_555
O5F C26F 1_555 1_555
O5A Zn1 1_555 1_555
O5G Zn1 1_555 1_555
O6F C26F 1_555 1_555
O6A Zn2 1_555 1_555
O6G Zn2F 1_555 1_555
O8F Na1 1_555 1_555
O8C Na2 1_555 1_555
O8E Na2 1_555 1_555
Zn2 O7 1_555 1_555
C5 C6 1_555 1_555
C11 C12 1_555 1_555
C17 C18 1_555 1_555
C23 C24 1_555 1_555
C25 O2 1_555 1_555
C28 O8 1_555 1_555
C29 N1 1_555 1_555
C30 N1 1_555 1_555
O8 Na2C 1_555 1_555
Na1C O8E 1_555 1_555
Na2C O8F 1_555 1_555
C5F C6F 1_555 1_555
C11F C12F 1_555 1_555
C17F C18F 1_555 1_555
C23F C24F 1_555 1_555
C25F O1F 1_555 1_555
C25F O2F 1_555 1_555
C28F O8F 1_555 1_555
C29F N1F 1_555 1_555
C30F N1F 1_555 1_555

#END
