
#######################################################################
#
#                 Cambridge Crystallographic Data Centre
#                                CCDC 
#
#######################################################################
#
# If this CIF has been generated from an entry in the Cambridge 
# Structural Database, then it will include bibliographic, chemical, 
# crystal, experimental, refinement or atomic coordinate data resulting 
# from the CCDC's data processing and validation procedures.
#
#######################################################################

data_HUZSOL01
_chemical_formula_moiety         'C301 H135 Na26 O119 Zn35'
_symmetry_cell_setting           orthorhombic
_symmetry_space_group_name_H-M   'P n m a'
_symmetry_Int_Tables_number      62
_space_group_name_Hall           '-P 2ac 2n'
loop_
_symmetry_equiv_pos_site_id
_symmetry_equiv_pos_as_xyz
1 x,y,z
2 1/2-x,-y,1/2+z
3 -x,1/2+y,-z
4 1/2+x,1/2-y,1/2-z
5 -x,-y,-z
6 1/2+x,y,1/2-z
7 x,1/2-y,z
8 1/2-x,1/2+y,1/2+z
_cell_length_a                   17.108(4)
_cell_length_b                   21.644(5)
_cell_length_c                   25.258(6)
_cell_angle_alpha                90
_cell_angle_beta                 90
_cell_angle_gamma                90
_cell_volume                     9352.67
loop_
_atom_site_label
_atom_site_type_symbol
_atom_site_fract_x
_atom_site_fract_y
_atom_site_fract_z
Zn1 Zn 0.38082(2) -0.2500 0.186337(17)
Zn2 Zn 0.492909(19) -0.165397(17) 0.115756(13)
Na1 Na 0.1026(3) -0.2500 0.28837(18)
Na2 Na 0.2842(2) -0.2500 0.23407(16)
C1 C 0.49798(18) 0.02960(19) 0.40608(16)
C2 C 0.43360(19) 0.0505(2) 0.43405(14)
H1 H 0.3837 0.0409 0.4219
C3 C 0.4419(2) 0.0850(2) 0.47957(15)
C4 C 0.5179(2) 0.0998(2) 0.49778(16)
H2 H 0.5242 0.1243 0.5277
C5 C 0.58338(19) 0.07751(19) 0.47088(15)
C6 C 0.57291(18) 0.04502(18) 0.42456(14)
H3 H 0.6165 0.0330 0.4051
C7 C 0.48873(16) -0.01104(19) 0.35826(14)
C8 C 0.43212(18) -0.05540(19) 0.35750(14)
H4 H 0.3983 -0.0593 0.3861
C9 C 0.42463(19) -0.0946(2) 0.31453(13)
H5 H 0.3871 -0.1257 0.3152
C10 C 0.47191(18) -0.08820(17) 0.27103(13)
C11 C 0.5278(2) -0.04125(17) 0.27077(14)
H6 H 0.5598 -0.0358 0.2413
C12 C 0.5358(2) -0.00326(18) 0.31360(15)
H7 H 0.5729 0.0281 0.3130
C13 C 0.3719(2) 0.1065(2) 0.50990(16)
C14 C 0.3008(2) 0.1172(2) 0.48389(16)
H8 H 0.2983 0.1120 0.4474
C15 C 0.2352(2) 0.1349(2) 0.51057(14)
H9 H 0.1888 0.1420 0.4924
C16 C 0.2383(2) 0.14247(18) 0.56538(14)
C17 C 0.30729(19) 0.13267(17) 0.59132(14)
H10 H 0.3097 0.1385 0.6278
C18 C 0.3738(2) 0.1141(2) 0.56410(16)
H11 H 0.4199 0.1068 0.5825
C19 C 0.6641(2) 0.0880(2) 0.49362(15)
C20 C 0.6838(2) 0.1415(2) 0.51796(16)
H12 H 0.6476 0.1734 0.5202
C21 C 0.7605(2) 0.14909(18) 0.54043(14)
H13 H 0.7735 0.1852 0.5584
C22 C 0.8130(2) 0.1034(2) 0.53512(16)
C23 C 0.7939(2) 0.0488(2) 0.51133(19)
H14 H 0.8298 0.0166 0.5099
C24 C 0.7196(2) 0.0421(2) 0.48920(19)
H15 H 0.7072 0.0059 0.4712
C25 C 0.46349(17) -0.13185(16) 0.22519(12)
C26 C 0.16513(19) 0.16213(16) 0.59484(14)
C27 C 0.8953(2) 0.1111(2) 0.56020(18)
O1 O 0.49476(13) -0.11550(11) 0.18085(9)
O2 O 0.42571(13) -0.18012(11) 0.23323(8)
O3 O 0.9418(2) 0.06719(19) 0.55884(19)
O4 O 0.90794(14) 0.15959(13) 0.58078(10)
O5 O 0.32490(14) -0.18251(12) 0.14004(9)
O6 O 0.10075(13) 0.15419(11) 0.57196(9)
O7 O 0.48562(13) -0.2500 0.14382(10)
O7C O -0.01438(13) -0.2500 0.35618(10)
Zn1C Zn -0.11918(2) -0.2500 0.313663(17)
Na2C Na -0.2158(2) -0.2500 0.26593(16)
Na1C Na -0.3974(3) -0.2500 0.21163(18)
O7_2 O -0.51438(13) -0.2500 0.14382(10)
Zn1_2 Zn -0.61918(2) -0.2500 0.186337(17)
Na2_2 Na -0.7158(2) -0.2500 0.23407(16)
O2_2 O -0.57429(13) -0.18012(11) 0.23323(8)
Na1_2 Na -0.8974(3) -0.2500 0.28837(18)
O2F O -0.57429(13) -0.31988(11) 0.23323(8)
O5_2 O -0.67510(14) -0.18251(12) 0.14004(9)
O5F O -0.67510(14) -0.31749(12) 0.14004(9)
C26G C -0.66513(19) -0.33787(16) 0.09484(14)
C16G C -0.7383(2) -0.35753(18) 0.06538(14)
C15G C -0.7352(2) -0.3651(2) 0.01057(14)
C14G C -0.8008(2) -0.3828(2) -0.01611(16)
C13G C -0.8719(2) -0.3935(2) 0.00990(16)
C3G C -0.9419(2) -0.4150(2) -0.02043(15)
C2G C -0.93360(19) -0.4495(2) -0.06595(14)
C1G C -0.99798(18) -0.47040(19) -0.09392(16)
C6G C -1.07291(18) -0.45498(18) -0.07544(14)
C5G C -1.08338(19) -0.42249(19) -0.02912(15)
C4G C -1.0179(2) -0.4002(2) -0.00222(16)
H2G H -1.0242 -0.3757 0.0277
C19G C -1.1641(2) -0.4120(2) -0.00638(15)
C20G C -1.1838(2) -0.3585(2) 0.01796(16)
H12G H -1.1476 -0.3266 0.0202
C21G C -1.2605(2) -0.35091(18) 0.04043(14)
H13G H -1.2735 -0.3148 0.0584
C22G C -1.3130(2) -0.3966(2) 0.03512(16)
C23G C -1.2939(2) -0.4512(2) 0.01133(19)
H14G H -1.3298 -0.4834 0.0099
C24G C -1.2196(2) -0.4579(2) -0.01080(19)
H15G H -1.2072 -0.4941 -0.0288
C27G C -1.3953(2) -0.3889(2) 0.06020(18)
O3G O -1.4418(2) -0.43281(19) 0.05884(19)
O4G O -1.40794(14) -0.34041(13) 0.08078(10)
Zn2F Zn -1.507091(19) -0.334603(17) 0.115756(13)
O1F O -1.50524(13) -0.38450(11) 0.18085(9)
C25F C -1.53651(17) -0.36815(16) 0.22519(12)
C10F C -1.52809(18) -0.41180(17) 0.27103(13)
C9F C -1.57537(19) -0.4054(2) 0.31453(13)
C8F C -1.56788(18) -0.44460(19) 0.35750(14)
C7F C -1.51127(16) -0.48896(19) 0.35826(14)
C1F C -1.50202(18) -0.52960(19) 0.40608(16)
C2F C -1.56640(19) -0.5505(2) 0.43405(14)
H1F H -1.6163 -0.5409 0.4219
C3F C -1.5581(2) -0.5850(2) 0.47957(15)
C4F C -1.4821(2) -0.5998(2) 0.49778(16)
H2F H -1.4758 -0.6243 0.5277
C5F C -1.41662(19) -0.57751(19) 0.47088(15)
C6F C -1.42709(18) -0.54502(18) 0.42456(14)
H3F H -1.3835 -0.5330 0.4051
C19F C -1.3359(2) -0.5880(2) 0.49362(15)
C20F C -1.3162(2) -0.6415(2) 0.51796(16)
H12F H -1.3524 -0.6734 0.5202
C21F C -1.2395(2) -0.64909(18) 0.54043(14)
H13F H -1.2265 -0.6852 0.5584
C22F C -1.1870(2) -0.6034(2) 0.53512(16)
C23F C -1.2061(2) -0.5488(2) 0.51133(19)
H14F H -1.1702 -0.5166 0.5099
C24F C -1.2804(2) -0.5421(2) 0.48920(19)
H15F H -1.2928 -0.5059 0.4712
C27F C -1.1047(2) -0.6111(2) 0.56020(18)
O3F O -1.0582(2) -0.56719(19) 0.55884(19)
O4F O -1.09206(14) -0.65959(13) 0.58078(10)
Zn2G Zn -0.992909(19) -0.665397(17) 0.615756(13)
O1G O -0.99476(13) -0.61550(11) 0.68085(9)
C25G C -0.96349(17) -0.63185(16) 0.72519(12)
C10G C -0.97191(18) -0.58820(17) 0.77103(13)
C9G C -0.92463(19) -0.5946(2) 0.81453(13)
C8G C -0.93212(18) -0.55540(19) 0.85750(14)
C7G C -0.98873(16) -0.51104(19) 0.85826(14)
C1G_2 C -0.99798(18) -0.47040(19) 0.90608(16)
C2G_2 C -0.93360(19) -0.4495(2) 0.93405(14)
C6G_2 C -1.07291(18) -0.45498(18) 0.92456(14)
C12G C -1.0358(2) -0.50326(18) 0.81360(15)
C11G C -1.0278(2) -0.54125(17) 0.77077(14)
H6G H -1.0598 -0.5358 0.7413
H7G H -1.0729 -0.4719 0.8130
H4G H -0.8983 -0.5593 0.8861
H5G H -0.8871 -0.6257 0.8152
O2G O -0.92571(13) -0.68012(11) 0.73323(8)
Zn1G Zn -0.88082(2) -0.7500 0.686337(17)
Na2G Na -0.7842(2) -0.7500 0.73407(16)
Na1G Na -0.6026(3) -0.7500 0.78837(18)
O7D O -0.48562(13) -0.7500 0.85618(10)
Zn1D Zn -0.38082(2) -0.7500 0.813663(17)
Na2D Na -0.2842(2) -0.7500 0.76593(16)
Na1D Na -0.1026(3) -0.7500 0.71163(18)
O7G O 0.01438(13) -0.7500 0.64382(10)
Zn1G_2 Zn 0.11918(2) -0.7500 0.686337(17)
Na2G_2 Na 0.2158(2) -0.7500 0.73407(16)
O2G_2 O 0.07429(13) -0.68012(11) 0.73323(8)
O2A O 0.07429(13) -0.81988(11) 0.73323(8)
Na1G_2 Na 0.3974(3) -0.7500 0.78837(18)
C25G_2 C 0.03651(17) -0.63185(16) 0.72519(12)
O5G O 0.17510(14) -0.68251(12) 0.64004(9)
O5A O 0.17510(14) -0.81749(12) 0.64004(9)
C26_2 C 0.16513(19) -0.83787(16) 0.59484(14)
C16_2 C 0.2383(2) -0.85753(18) 0.56538(14)
C15_2 C 0.2352(2) -0.8651(2) 0.51057(14)
C14_2 C 0.3008(2) -0.8828(2) 0.48389(16)
C13_2 C 0.3719(2) -0.8935(2) 0.50990(16)
C3_2 C 0.4419(2) -0.9150(2) 0.47957(15)
C2_2 C 0.43360(19) -0.9495(2) 0.43405(14)
C1_2 C 0.49798(18) -0.97040(19) 0.40608(16)
C6_2 C 0.57291(18) -0.95498(18) 0.42456(14)
C5_2 C 0.58338(19) -0.92249(19) 0.47088(15)
C4_2 C 0.5179(2) -0.9002(2) 0.49778(16)
H2_2 H 0.5242 -0.8757 0.5277
C19_2 C 0.6641(2) -0.9120(2) 0.49362(15)
C20_2 C 0.6838(2) -0.8585(2) 0.51796(16)
H12_2 H 0.6476 -0.8266 0.5202
C21_2 C 0.7605(2) -0.85091(18) 0.54043(14)
H13_2 H 0.7735 -0.8148 0.5584
C22_2 C 0.8130(2) -0.8966(2) 0.53512(16)
C23_2 C 0.7939(2) -0.9512(2) 0.51133(19)
H14_2 H 0.8298 -0.9834 0.5099
C24_2 C 0.7196(2) -0.9579(2) 0.48920(19)
H15_2 H 0.7072 -0.9941 0.4712
C27_2 C 0.8953(2) -0.8889(2) 0.56020(18)
O3_2 O 0.9418(2) -0.93281(19) 0.55884(19)
O4_2 O 0.90794(14) -0.84041(13) 0.58078(10)
Zn2A Zn 1.007091(19) -0.834603(17) 0.615756(13)
O1A O 1.00524(13) -0.88450(11) 0.68085(9)
C25A C 1.03651(17) -0.86815(16) 0.72519(12)
C10A C 1.02809(18) -0.91180(17) 0.77103(13)
C9A C 1.07537(19) -0.9054(2) 0.81453(13)
C8A C 1.06788(18) -0.94460(19) 0.85750(14)
C7A C 1.01127(16) -0.98896(19) 0.85826(14)
C1A C 1.00202(18) -1.02960(19) 0.90608(16)
C2A C 1.06640(19) -1.0505(2) 0.93405(14)
H1A H 1.1163 -1.0409 0.9219
C3A C 1.0581(2) -1.0850(2) 0.97957(15)
C4A C 0.9821(2) -1.0998(2) 0.99778(16)
H2A H 0.9758 -1.1243 1.0277
C5A C 0.91662(19) -1.07751(19) 0.97088(15)
C6A C 0.92709(18) -1.04502(18) 0.92456(14)
H3A H 0.8835 -1.0330 0.9051
C19A C 0.8359(2) -1.0880(2) 0.99362(15)
C20A C 0.8162(2) -1.1415(2) 1.01796(16)
H12A H 0.8524 -1.1734 1.0202
C21A C 0.7395(2) -1.14909(18) 1.04043(14)
H13A H 0.7265 -1.1852 1.0584
C22A C 0.6870(2) -1.1034(2) 1.03512(16)
C23A C 0.7061(2) -1.0488(2) 1.01133(19)
H14A H 0.6702 -1.0166 1.0099
C24A C 0.7804(2) -1.0421(2) 0.98920(19)
H15A H 0.7928 -1.0059 0.9712
C27A C 0.6047(2) -1.1111(2) 1.06020(18)
O3A O 0.5582(2) -1.06719(19) 1.05884(19)
O4A O 0.59206(14) -1.15959(13) 1.08078(10)
Zn2_2 Zn 0.492909(19) -1.165397(17) 1.115756(13)
O1_2 O 0.49476(13) -1.11550(11) 1.18085(9)
C25_2 C 0.46349(17) -1.13185(16) 1.22519(12)
C10_2 C 0.47191(18) -1.08820(17) 1.27103(13)
C9_2 C 0.42463(19) -1.0946(2) 1.31453(13)
C8_2 C 0.43212(18) -1.05540(19) 1.35750(14)
C7_2 C 0.48873(16) -1.01104(19) 1.35826(14)
C1_3 C 0.49798(18) -0.97040(19) 1.40608(16)
C2_3 C 0.43360(19) -0.9495(2) 1.43405(14)
C6_3 C 0.57291(18) -0.95498(18) 1.42456(14)
C12_2 C 0.5358(2) -1.00326(18) 1.31360(15)
C11_2 C 0.5278(2) -1.04125(17) 1.27077(14)
H6_2 H 0.5598 -1.0358 1.2413
H7_2 H 0.5729 -0.9719 1.3130
H4_2 H 0.3983 -1.0593 1.3861
H5_2 H 0.3871 -1.1257 1.3152
O2_3 O 0.42571(13) -1.18012(11) 1.23323(8)
Zn1_3 Zn 0.38082(2) -1.2500 1.186337(17)
Na2_3 Na 0.2842(2) -1.2500 1.23407(16)
O6A O 0.39925(13) -1.15419(11) 1.07196(9)
C26A C 0.33487(19) -1.16213(16) 1.09484(14)
C16A C 0.2617(2) -1.14247(18) 1.06538(14)
C15A C 0.2648(2) -1.1349(2) 1.01057(14)
C14A C 0.1992(2) -1.1172(2) 0.98389(16)
C13A C 0.1281(2) -1.1065(2) 1.00990(16)
C3A_2 C 0.0581(2) -1.0850(2) 0.97957(15)
C2A_2 C 0.06640(19) -1.0505(2) 0.93405(14)
C4A_2 C -0.0179(2) -1.0998(2) 0.99778(16)
C18A C 0.1262(2) -1.1141(2) 1.06410(16)
C17A C 0.19271(19) -1.13267(17) 1.09132(14)
H10A H 0.1903 -1.1385 1.1278
H11A H 0.0801 -1.1068 1.0825
H8A H 0.2017 -1.1120 0.9474
H9A H 0.3112 -1.1420 0.9924
O5_3 O 0.32490(14) -1.18251(12) 1.14004(9)
O7_3 O 0.48562(13) -1.2500 1.14382(10)
Zn2F_2 Zn 0.492909(19) -1.334603(17) 1.115756(13)
O1F_2 O 0.49476(13) -1.38450(11) 1.18085(9)
O4G_2 O 0.59206(14) -1.34041(13) 1.08078(10)
O6G O 0.39925(13) -1.34581(11) 1.07196(9)
C26G_2 C 0.33487(19) -1.33787(16) 1.09484(14)
C16G_2 C 0.2617(2) -1.35753(18) 1.06538(14)
O5F_2 O 0.32490(14) -1.31749(12) 1.14004(9)
Na1C_2 Na 0.6026(3) -1.2500 1.21163(18)
C13A_2 C 1.1281(2) -1.1065(2) 1.00990(16)
C12A C 0.9642(2) -0.99674(18) 0.81360(15)
C11A C 0.9722(2) -0.95875(17) 0.77077(14)
H6A H 0.9402 -0.9642 0.7413
H7A H 0.9271 -1.0281 0.8130
H4A H 1.1017 -0.9407 0.8861
H5A H 1.1129 -0.8743 0.8152
O2A_2 O 1.07429(13) -0.81988(11) 0.73323(8)
Zn1A Zn 1.11918(2) -0.7500 0.686337(17)
Na2A Na 1.2158(2) -0.7500 0.73407(16)
O6_2 O 1.10075(13) -0.84581(11) 0.57196(9)
C26_3 C 1.16513(19) -0.83787(16) 0.59484(14)
C16_3 C 1.2383(2) -0.85753(18) 0.56538(14)
O5A_2 O 1.17510(14) -0.81749(12) 0.64004(9)
O7A O 1.01438(13) -0.7500 0.64382(10)
Zn2G_2 Zn 1.007091(19) -0.665397(17) 0.615756(13)
O1G_2 O 1.00524(13) -0.61550(11) 0.68085(9)
O4F_2 O 0.90794(14) -0.65959(13) 0.58078(10)
O6F O 1.10075(13) -0.65419(11) 0.57196(9)
C26F C 1.16513(19) -0.66213(16) 0.59484(14)
C16F C 1.2383(2) -0.64247(18) 0.56538(14)
C15F C 1.2352(2) -0.6349(2) 0.51057(14)
C14F C 1.3008(2) -0.6172(2) 0.48389(16)
C13F C 1.3719(2) -0.6065(2) 0.50990(16)
C3F_2 C 1.4419(2) -0.5850(2) 0.47957(15)
C2F_2 C 1.43360(19) -0.5505(2) 0.43405(14)
C4F_2 C 1.5179(2) -0.5998(2) 0.49778(16)
C18F C 1.3738(2) -0.6141(2) 0.56410(16)
C17F C 1.30729(19) -0.63267(17) 0.59132(14)
H10F H 1.3097 -0.6385 0.6278
H11F H 1.4199 -0.6068 0.5825
H8F H 1.2983 -0.6120 0.4474
H9F H 1.1888 -0.6420 0.4924
O5G_2 O 1.17510(14) -0.68251(12) 0.64004(9)
Na1B Na 0.8974(3) -0.7500 0.71163(18)
H3_2 H 0.6165 -0.9670 0.4051
C7_3 C 0.48873(16) -1.01104(19) 0.35826(14)
H1_2 H 0.3837 -0.9591 0.4219
C18_2 C 0.3738(2) -0.8859(2) 0.56410(16)
C17_2 C 0.30729(19) -0.86733(17) 0.59132(14)
H10_2 H 0.3097 -0.8615 0.6278
H11_2 H 0.4199 -0.8932 0.5825
H8_2 H 0.2983 -0.8880 0.4474
H9_2 H 0.1888 -0.8580 0.4924
O6_3 O 0.10075(13) -0.84581(11) 0.57196(9)
C26F_2 C 0.16513(19) -0.66213(16) 0.59484(14)
C25A_2 C 0.03651(17) -0.86815(16) 0.72519(12)
Zn2G_3 Zn 0.007091(19) -0.665397(17) 0.615756(13)
Zn2A_2 Zn 0.007091(19) -0.834603(17) 0.615756(13)
O2D O -0.42571(13) -0.81988(11) 0.76677(8)
O2B O -0.42571(13) -0.68012(11) 0.76677(8)
O5D O -0.32490(14) -0.81749(12) 0.85996(9)
O5B O -0.32490(14) -0.68251(12) 0.85996(9)
C26C C -0.33487(19) -0.66213(16) 0.90516(14)
C16C C -0.2617(2) -0.64247(18) 0.93462(14)
C15C C -0.2648(2) -0.6349(2) 0.98943(14)
C14C C -0.1992(2) -0.6172(2) 1.01611(16)
C13C C -0.1281(2) -0.6065(2) 0.99010(16)
C3C C -0.0581(2) -0.5850(2) 1.02043(15)
C2C C -0.06640(19) -0.5505(2) 1.06595(14)
C1C C -0.00202(18) -0.52960(19) 1.09392(16)
C6C C 0.07291(18) -0.54502(18) 1.07544(14)
C5C C 0.08338(19) -0.57751(19) 1.02912(15)
C4C C 0.0179(2) -0.5998(2) 1.00222(16)
H2C H 0.0242 -0.6243 0.9723
C19C C 0.1641(2) -0.5880(2) 1.00638(15)
C20C C 0.1838(2) -0.6415(2) 0.98204(16)
H12C H 0.1476 -0.6734 0.9798
C21C C 0.2605(2) -0.64909(18) 0.95957(14)
H13C H 0.2735 -0.6852 0.9416
C22C C 0.3130(2) -0.6034(2) 0.96488(16)
C23C C 0.2939(2) -0.5488(2) 0.98867(19)
H14C H 0.3298 -0.5166 0.9901
C24C C 0.2196(2) -0.5421(2) 1.01080(19)
H15C H 0.2072 -0.5059 1.0288
C27C C 0.3953(2) -0.6111(2) 0.93980(18)
O3C O 0.4418(2) -0.56719(19) 0.94116(19)
O4C O 0.40794(14) -0.65959(13) 0.91922(10)
Zn2B Zn 0.507091(19) -0.665397(17) 0.884244(13)
O1B O 0.50524(13) -0.61550(11) 0.81915(9)
C25B C 0.53651(17) -0.63185(16) 0.77481(12)
C10B C 0.52809(18) -0.58820(17) 0.72897(13)
C9B C 0.57537(19) -0.5946(2) 0.68547(13)
C8B C 0.56788(18) -0.55540(19) 0.64250(14)
C7B C 0.51127(16) -0.51104(19) 0.64174(14)
C1B C 0.50202(18) -0.47040(19) 0.59392(16)
C2B C 0.56640(19) -0.4495(2) 0.56595(14)
H1B H 0.6163 -0.4591 0.5781
C3B C 0.5581(2) -0.4150(2) 0.52043(15)
C4B C 0.4821(2) -0.4002(2) 0.50222(16)
H2B H 0.4758 -0.3757 0.4723
C5B C 0.41662(19) -0.42249(19) 0.52912(15)
C6B C 0.42709(18) -0.45498(18) 0.57544(14)
H3B H 0.3835 -0.4670 0.5949
C19B C 0.3359(2) -0.4120(2) 0.50638(15)
C20B C 0.3162(2) -0.3585(2) 0.48204(16)
H12B H 0.3524 -0.3266 0.4798
C21B C 0.2395(2) -0.35091(18) 0.45957(14)
H13B H 0.2265 -0.3148 0.4416
C22B C 0.1870(2) -0.3966(2) 0.46488(16)
C23B C 0.2061(2) -0.4512(2) 0.48867(19)
H14B H 0.1702 -0.4834 0.4901
C24B C 0.2804(2) -0.4579(2) 0.51080(19)
H15B H 0.2928 -0.4941 0.5288
C27B C 0.1047(2) -0.3889(2) 0.43980(18)
O3B O 0.0582(2) -0.43281(19) 0.44116(19)
O4B O 0.09206(14) -0.34041(13) 0.41922(10)
Zn2C Zn -0.007091(19) -0.334603(17) 0.384244(13)
O1C O -0.00524(13) -0.38450(11) 0.31915(9)
C25C C -0.03651(17) -0.36815(16) 0.27481(12)
C10C C -0.02809(18) -0.41180(17) 0.22897(13)
C9C C -0.07537(19) -0.4054(2) 0.18547(13)
C8C C -0.06788(18) -0.44460(19) 0.14250(14)
C7C C -0.01127(16) -0.48896(19) 0.14174(14)
C1C_2 C -0.00202(18) -0.52960(19) 0.09392(16)
C2C_2 C -0.06640(19) -0.5505(2) 0.06595(14)
C6C_2 C 0.07291(18) -0.54502(18) 0.07544(14)
C12C C 0.0358(2) -0.49674(18) 0.18640(15)
C11C C 0.0278(2) -0.45875(17) 0.22923(14)
H6C H 0.0598 -0.4642 0.2587
H7C H 0.0729 -0.5281 0.1870
H4C H -0.1017 -0.4407 0.1139
H5C H -0.1129 -0.3743 0.1848
O2C O -0.07429(13) -0.31988(11) 0.26677(8)
O2E O -0.07429(13) -0.18012(11) 0.26677(8)
O5C O -0.17510(14) -0.31749(12) 0.35996(9)
O5E O -0.17510(14) -0.18251(12) 0.35996(9)
C26D C -0.16513(19) -0.16213(16) 0.40516(14)
C16D C -0.2383(2) -0.14247(18) 0.43462(14)
C15D C -0.2352(2) -0.1349(2) 0.48943(14)
C14D C -0.3008(2) -0.1172(2) 0.51611(16)
C13D C -0.3719(2) -0.1065(2) 0.49010(16)
C3D C -0.4419(2) -0.0850(2) 0.52043(15)
C2D C -0.43360(19) -0.0505(2) 0.56595(14)
C1D C -0.49798(18) -0.02960(19) 0.59392(16)
C6D C -0.57291(18) -0.04502(18) 0.57544(14)
C5D C -0.58338(19) -0.07751(19) 0.52912(15)
C4D C -0.5179(2) -0.0998(2) 0.50222(16)
H2D H -0.5242 -0.1243 0.4723
C19D C -0.6641(2) -0.0880(2) 0.50638(15)
C20D C -0.6838(2) -0.1415(2) 0.48204(16)
H12D H -0.6476 -0.1734 0.4798
C21D C -0.7605(2) -0.14909(18) 0.45957(14)
H13D H -0.7735 -0.1852 0.4416
C22D C -0.8130(2) -0.1034(2) 0.46488(16)
C23D C -0.7939(2) -0.0488(2) 0.48867(19)
H14D H -0.8298 -0.0166 0.4901
C24D C -0.7196(2) -0.0421(2) 0.51080(19)
H15D H -0.7072 -0.0059 0.5288
C27D C -0.8953(2) -0.1111(2) 0.43980(18)
O3D O -0.9418(2) -0.06719(19) 0.44116(19)
O4D O -0.90794(14) -0.15959(13) 0.41922(10)
Zn2E Zn -1.007091(19) -0.165397(17) 0.384244(13)
O1E O -1.00524(13) -0.11550(11) 0.31915(9)
C25E C -1.03651(17) -0.13185(16) 0.27481(12)
C10E C -1.02809(18) -0.08820(17) 0.22897(13)
C9E C -1.07537(19) -0.0946(2) 0.18547(13)
C8E C -1.06788(18) -0.05540(19) 0.14250(14)
C7E C -1.01127(16) -0.01104(19) 0.14174(14)
C1E C -1.00202(18) 0.02960(19) 0.09392(16)
C2E C -1.06640(19) 0.0505(2) 0.06595(14)
H1E H -1.1163 0.0409 0.0781
C3E C -1.0581(2) 0.0850(2) 0.02043(15)
C4E C -0.9821(2) 0.0998(2) 0.00222(16)
H2E H -0.9758 0.1243 -0.0277
C5E C -0.91662(19) 0.07751(19) 0.02912(15)
C6E C -0.92709(18) 0.04502(18) 0.07544(14)
H3E H -0.8835 0.0330 0.0949
C19E C -0.8359(2) 0.0880(2) 0.00638(15)
C20E C -0.8162(2) 0.1415(2) -0.01796(16)
H12E H -0.8524 0.1734 -0.0202
C21E C -0.7395(2) 0.14909(18) -0.04043(14)
H13E H -0.7265 0.1852 -0.0584
C22E C -0.6870(2) 0.1034(2) -0.03512(16)
C23E C -0.7061(2) 0.0488(2) -0.01133(19)
H14E H -0.6702 0.0166 -0.0099
C24E C -0.7804(2) 0.0421(2) 0.01080(19)
H15E H -0.7928 0.0059 0.0288
C27E C -0.6047(2) 0.1111(2) -0.06020(18)
O3E O -0.5582(2) 0.06719(19) -0.05884(19)
O4E O -0.59206(14) 0.15959(13) -0.08078(10)
Zn2D Zn -0.492909(19) 0.165397(17) -0.115756(13)
O1D O -0.49476(13) 0.11550(11) -0.18085(9)
C25D C -0.46349(17) 0.13185(16) -0.22519(12)
C10D C -0.47191(18) 0.08820(17) -0.27103(13)
C9D C -0.42463(19) 0.0946(2) -0.31453(13)
C8D C -0.43212(18) 0.05540(19) -0.35750(14)
C7D C -0.48873(16) 0.01104(19) -0.35826(14)
C1D_2 C -0.49798(18) -0.02960(19) -0.40608(16)
C2D_2 C -0.43360(19) -0.0505(2) -0.43405(14)
C6D_2 C -0.57291(18) -0.04502(18) -0.42456(14)
C12D C -0.5358(2) 0.00326(18) -0.31360(15)
C11D C -0.5278(2) 0.04125(17) -0.27077(14)
H6D H -0.5598 0.0358 -0.2413
H7D H -0.5729 -0.0281 -0.3130
H4D H -0.3983 0.0593 -0.3861
H5D H -0.3871 0.1257 -0.3152
O2D_2 O -0.42571(13) 0.18012(11) -0.23323(8)
Zn1D_2 Zn -0.38082(2) 0.2500 -0.186337(17)
Na2D_2 Na -0.2842(2) 0.2500 -0.23407(16)
O6E O -0.39925(13) 0.15419(11) -0.07196(9)
C26E C -0.33487(19) 0.16213(16) -0.09484(14)
C16E C -0.2617(2) 0.14247(18) -0.06538(14)
C15E C -0.2648(2) 0.1349(2) -0.01057(14)
C14E C -0.1992(2) 0.1172(2) 0.01611(16)
C13E C -0.1281(2) 0.1065(2) -0.00990(16)
C3E_2 C -0.0581(2) 0.0850(2) 0.02043(15)
C2E_2 C -0.06640(19) 0.0505(2) 0.06595(14)
C4E_2 C 0.0179(2) 0.0998(2) 0.00222(16)
C18E C -0.1262(2) 0.1141(2) -0.06410(16)
C17E C -0.19271(19) 0.13267(17) -0.09132(14)
H10E H -0.1903 0.1385 -0.1278
H11E H -0.0801 0.1068 -0.0825
H8E H -0.2017 0.1120 0.0526
H9E H -0.3112 0.1420 0.0076
O5D_2 O -0.32490(14) 0.18251(12) -0.14004(9)
O7D_2 O -0.48562(13) 0.2500 -0.14382(10)
Zn2B_2 Zn -0.492909(19) 0.334603(17) -0.115756(13)
O1B_2 O -0.49476(13) 0.38450(11) -0.18085(9)
O4C_2 O -0.59206(14) 0.34041(13) -0.08078(10)
O6C O -0.39925(13) 0.34581(11) -0.07196(9)
C26C_2 C -0.33487(19) 0.33787(16) -0.09484(14)
C16C_2 C -0.2617(2) 0.35753(18) -0.06538(14)
O5B_2 O -0.32490(14) 0.31749(12) -0.14004(9)
Na1G_3 Na -0.6026(3) 0.2500 -0.21163(18)
C13E_2 C -1.1281(2) 0.1065(2) -0.00990(16)
C12E C -0.9642(2) -0.00326(18) 0.18640(15)
C11E C -0.9722(2) -0.04125(17) 0.22923(14)
H6E H -0.9402 -0.0358 0.2587
H7E H -0.9271 0.0281 0.1870
H4E H -1.1017 -0.0593 0.1139
H5E H -1.1129 -0.1257 0.1848
O2E_2 O -1.07429(13) -0.18012(11) 0.26677(8)
Zn1E Zn -1.11918(2) -0.2500 0.313663(17)
Na2E Na -1.2158(2) -0.2500 0.26593(16)
O6D O -1.10075(13) -0.15419(11) 0.42804(9)
C26D_2 C -1.16513(19) -0.16213(16) 0.40516(14)
C16D_2 C -1.2383(2) -0.14247(18) 0.43462(14)
O5E_2 O -1.17510(14) -0.18251(12) 0.35996(9)
O7E O -1.01438(13) -0.2500 0.35618(10)
Zn2C_2 Zn -1.007091(19) -0.334603(17) 0.384244(13)
O1C_2 O -1.00524(13) -0.38450(11) 0.31915(9)
O4B_2 O -0.90794(14) -0.34041(13) 0.41922(10)
O6B O -1.10075(13) -0.34581(11) 0.42804(9)
C26B C -1.16513(19) -0.33787(16) 0.40516(14)
C16B C -1.2383(2) -0.35753(18) 0.43462(14)
C15B C -1.2352(2) -0.3651(2) 0.48943(14)
C14B C -1.3008(2) -0.3828(2) 0.51611(16)
C13B C -1.3719(2) -0.3935(2) 0.49010(16)
C3B_2 C -1.4419(2) -0.4150(2) 0.52043(15)
C2B_2 C -1.43360(19) -0.4495(2) 0.56595(14)
C4B_2 C -1.5179(2) -0.4002(2) 0.50222(16)
C18B C -1.3738(2) -0.3859(2) 0.43590(16)
C17B C -1.30729(19) -0.36733(17) 0.40868(14)
H10B H -1.3097 -0.3615 0.3722
H11B H -1.4199 -0.3932 0.4175
H8B H -1.2983 -0.3880 0.5526
H9B H -1.1888 -0.3580 0.5076
O5C_2 O -1.17510(14) -0.31749(12) 0.35996(9)
H3D H -0.6165 -0.0330 0.5949
C7D_2 C -0.48873(16) 0.01104(19) 0.64174(14)
H1D H -0.3837 -0.0409 0.5781
C18D C -0.3738(2) -0.1141(2) 0.43590(16)
C17D C -0.30729(19) -0.13267(17) 0.40868(14)
H10D H -0.3097 -0.1385 0.3722
H11D H -0.4199 -0.1068 0.4175
H8D H -0.2983 -0.1120 0.5526
H9D H -0.1888 -0.1420 0.5076
O6D_2 O -0.10075(13) -0.15419(11) 0.42804(9)
C26B_2 C -0.16513(19) -0.33787(16) 0.40516(14)
C25E_2 C -0.03651(17) -0.13185(16) 0.27481(12)
O6B_2 O -0.10075(13) -0.34581(11) 0.42804(9)
C13B_2 C 0.6281(2) -0.3935(2) 0.49010(16)
C12B C 0.4642(2) -0.50326(18) 0.68640(15)
C11B C 0.4722(2) -0.54125(17) 0.72923(14)
H6B H 0.4402 -0.5358 0.7587
H7B H 0.4271 -0.4719 0.6870
H4B H 0.6017 -0.5593 0.6139
H5B H 0.6129 -0.6257 0.6848
O2B_2 O 0.57429(13) -0.68012(11) 0.76677(8)
Zn1B Zn 0.61918(2) -0.7500 0.813663(17)
Na2B Na 0.7158(2) -0.7500 0.76593(16)
O6C_2 O 0.60075(13) -0.65419(11) 0.92804(9)
O7B O 0.51438(13) -0.7500 0.85618(10)
H3C H 0.1165 -0.5330 1.0949
C7C_2 C -0.01127(16) -0.48896(19) 1.14174(14)
H1C H -0.1163 -0.5409 1.0781
C18C C -0.1262(2) -0.6141(2) 0.93590(16)
C17C C -0.19271(19) -0.63267(17) 0.90868(14)
H10C H -0.1903 -0.6385 0.8722
H11C H -0.0801 -0.6068 0.9175
H8C H -0.2017 -0.6120 1.0526
H9C H -0.3112 -0.6420 1.0076
O6C_3 O -0.39925(13) -0.65419(11) 0.92804(9)
C26E_2 C -0.33487(19) -0.83787(16) 0.90516(14)
C25B_2 C -0.46349(17) -0.63185(16) 0.77481(12)
C25D_2 C -0.46349(17) -0.86815(16) 0.77481(12)
Zn2D_2 Zn -0.492909(19) -0.834603(17) 0.884244(13)
Zn2B_3 Zn -0.492909(19) -0.665397(17) 0.884244(13)
O2A_3 O -0.92571(13) -0.81988(11) 0.73323(8)
O5G_3 O -0.82490(14) -0.68251(12) 0.64004(9)
O5A_3 O -0.82490(14) -0.81749(12) 0.64004(9)
O7G_2 O -0.98562(13) -0.7500 0.64382(10)
O6F_2 O -0.89925(13) -0.65419(11) 0.57196(9)
C13F_2 C -1.6281(2) -0.6065(2) 0.50990(16)
C12F C -1.4642(2) -0.49674(18) 0.31360(15)
C11F C -1.4722(2) -0.45875(17) 0.27077(14)
H6F H -1.4402 -0.4642 0.2413
H7F H -1.4271 -0.5281 0.3130
H4F H -1.6017 -0.4407 0.3861
H5F H -1.6129 -0.3743 0.3152
O2F_2 O -1.57429(13) -0.31988(11) 0.23323(8)
Zn1F Zn -1.61918(2) -0.2500 0.186337(17)
Na2F Na -1.7158(2) -0.2500 0.23407(16)
O6G_2 O -1.60075(13) -0.34581(11) 0.07196(9)
O7F O -1.51438(13) -0.2500 0.14382(10)
H3G H -1.1165 -0.4670 -0.0949
C7G_2 C -0.98873(16) -0.51104(19) -0.14174(14)
H1G H -0.8837 -0.4591 -0.0781
C18G C -0.8738(2) -0.3859(2) 0.06410(16)
C17G C -0.80729(19) -0.36733(17) 0.09132(14)
H10G H -0.8097 -0.3615 0.1278
H11G H -0.9199 -0.3932 0.0825
H8G H -0.7983 -0.3880 -0.0526
H9G H -0.6888 -0.3580 -0.0076
O6G_3 O -0.60075(13) -0.34581(11) 0.07196(9)
C26A_2 C -0.66513(19) -0.16213(16) 0.09484(14)
C25F_2 C -0.53651(17) -0.36815(16) 0.22519(12)
C25_3 C -0.53651(17) -0.13185(16) 0.22519(12)
Zn2_3 Zn -0.507091(19) -0.165397(17) 0.115756(13)
Zn2F_3 Zn -0.507091(19) -0.334603(17) 0.115756(13)
Zn2E_2 Zn -0.007091(19) -0.165397(17) 0.384244(13)
O2F_3 O 0.42571(13) -0.31988(11) 0.23323(8)
O5F_3 O 0.32490(14) -0.31749(12) 0.14004(9)
O4A_2 O 0.59206(14) -0.15959(13) 0.08078(10)
O6A_2 O 0.39925(13) -0.15419(11) 0.07196(9)
O5A_4 O 0.17510(14) 0.18251(12) 0.64004(9)
Zn2A_3 Zn 1.007091(19) 0.165397(17) 0.615756(13)
C26A_3 C 0.33487(19) -0.16213(16) 0.09484(14)
Zn2A_4 Zn 0.007091(19) 0.165397(17) 0.615756(13)
Na1C_3 Na 0.6026(3) -0.2500 0.21163(18)
Zn2D_3 Zn 0.507091(19) -0.834603(17) 0.884244(13)
Na1_3 Na 0.1026(3) -1.2500 1.28837(18)
Na1A Na 1.3974(3) -0.7500 0.78837(18)
O2G_3 O 1.07429(13) -0.68012(11) 0.73323(8)
O2D_3 O 0.57429(13) -0.81988(11) 0.76677(8)
O5B_3 O 0.67510(14) -0.68251(12) 0.85996(9)
O5D_3 O 0.67510(14) -0.81749(12) 0.85996(9)
O1A_2 O 0.00524(13) -0.88450(11) 0.68085(9)
O4_3 O -0.09206(14) -0.84041(13) 0.58078(10)
Na1D_2 Na -0.1026(3) 0.2500 -0.28837(18)
O2B_3 O -0.42571(13) 0.31988(11) -0.23323(8)
Na1E Na -1.3974(3) -0.2500 0.21163(18)
O2C_2 O -1.07429(13) -0.31988(11) 0.26677(8)
O1E_2 O -0.00524(13) -0.11550(11) 0.31915(9)
O4D_2 O 0.09206(14) -0.15959(13) 0.41922(10)
C16B_2 C -0.2383(2) -0.35753(18) 0.43462(14)
O1B_3 O -0.49476(13) -0.61550(11) 0.81915(9)
O4C_3 O -0.59206(14) -0.65959(13) 0.91922(10)
O1F_3 O -0.50524(13) -0.38450(11) 0.18085(9)
O4G_3 O -0.40794(14) -0.34041(13) 0.08078(10)
C16A_2 C 0.2617(2) -0.14247(18) 0.06538(14)
C10A_2 C 0.02809(18) -0.91180(17) 0.77103(13)
C10E_2 C -0.02809(18) -0.08820(17) 0.22897(13)
C10B_2 C -0.47191(18) -0.58820(17) 0.72897(13)
C10F_2 C -0.52809(18) -0.41180(17) 0.27103(13)
loop_
_geom_bond_atom_site_label_1
_geom_bond_atom_site_label_2
_geom_bond_site_symmetry_1
_geom_bond_site_symmetry_2
Zn1 Na2 1_555 1_555
Zn2 O1 1_555 1_555
Na1 Na2 1_555 1_555
Na2 O2 1_555 1_555
C1 C2 1_555 1_555
C2 H1 1_555 1_555
C3 C2 1_555 1_555
C4 C3 1_555 1_555
H2 C4 1_555 1_555
C5 C4 1_555 1_555
C6 C1 1_555 1_555
H3 C6 1_555 1_555
C7 C1 1_555 1_555
C8 C7 1_555 1_555
H4 C8 1_555 1_555
C9 C8 1_555 1_555
H5 C9 1_555 1_555
C10 C9 1_555 1_555
C11 C10 1_555 1_555
H6 C11 1_555 1_555
C12 C7 1_555 1_555
H7 C12 1_555 1_555
C13 C3 1_555 1_555
C14 C13 1_555 1_555
H8 C14 1_555 1_555
C15 C14 1_555 1_555
H9 C15 1_555 1_555
C16 C15 1_555 1_555
C17 C16 1_555 1_555
H10 C17 1_555 1_555
C18 C13 1_555 1_555
H11 C18 1_555 1_555
C19 C5 1_555 1_555
C20 C19 1_555 1_555
H12 C20 1_555 1_555
C21 C20 1_555 1_555
H13 C21 1_555 1_555
C22 C21 1_555 1_555
C23 C22 1_555 1_555
H14 C23 1_555 1_555
C24 C19 1_555 1_555
H15 C24 1_555 1_555
C25 C10 1_555 1_555
C26 C16 1_555 1_555
C27 C22 1_555 1_555
O1 C25 1_555 1_555
O2 Zn1 1_555 1_555
O3 C27 1_555 1_555
O4 C27 1_555 1_555
O5 Zn1 1_555 1_555
O6 C26 1_555 1_555
O7 Zn1 1_555 1_555
O7C Na1 1_555 1_555
Zn1C O7C 1_555 1_555
Na2C Zn1C 1_555 1_555
Na1C Na2C 1_555 1_555
O7_2 Na1C 1_555 1_555
Zn1_2 O7_2 1_555 1_555
Na2_2 Zn1_2 1_555 1_555
O2_2 Zn1_2 1_555 1_555
Na1_2 Na2_2 1_555 1_555
O2F Zn1_2 1_555 1_555
O5_2 Zn1_2 1_555 1_555
O5F Zn1_2 1_555 1_555
C26G O5F 1_555 1_555
C16G C26G 1_555 1_555
C15G C16G 1_555 1_555
C14G C15G 1_555 1_555
C13G C14G 1_555 1_555
C3G C13G 1_555 1_555
C2G C3G 1_555 1_555
C1G C2G 1_555 1_555
C6G C1G 1_555 1_555
C5G C6G 1_555 1_555
C4G C3G 1_555 1_555
H2G C4G 1_555 1_555
C19G C5G 1_555 1_555
C20G C19G 1_555 1_555
H12G C20G 1_555 1_555
C21G C20G 1_555 1_555
H13G C21G 1_555 1_555
C22G C21G 1_555 1_555
C23G C22G 1_555 1_555
H14G C23G 1_555 1_555
C24G C19G 1_555 1_555
H15G C24G 1_555 1_555
C27G C22G 1_555 1_555
O3G C27G 1_555 1_555
O4G C27G 1_555 1_555
Zn2F O4G 1_555 1_555
O1F Zn2F 1_555 1_555
C25F O1F 1_555 1_555
C10F C25F 1_555 1_555
C9F C10F 1_555 1_555
C8F C9F 1_555 1_555
C7F C8F 1_555 1_555
C1F C7F 1_555 1_555
C2F C1F 1_555 1_555
H1F C2F 1_555 1_555
C3F C2F 1_555 1_555
C4F C3F 1_555 1_555
H2F C4F 1_555 1_555
C5F C4F 1_555 1_555
C6F C1F 1_555 1_555
H3F C6F 1_555 1_555
C19F C5F 1_555 1_555
C20F C19F 1_555 1_555
H12F C20F 1_555 1_555
C21F C20F 1_555 1_555
H13F C21F 1_555 1_555
C22F C21F 1_555 1_555
C23F C22F 1_555 1_555
H14F C23F 1_555 1_555
C24F C19F 1_555 1_555
H15F C24F 1_555 1_555
C27F C22F 1_555 1_555
O3F C27F 1_555 1_555
O4F C27F 1_555 1_555
Zn2G O4F 1_555 1_555
O1G Zn2G 1_555 1_555
C25G O1G 1_555 1_555
C10G C25G 1_555 1_555
C9G C10G 1_555 1_555
C8G C9G 1_555 1_555
C7G C8G 1_555 1_555
C1G_2 C7G 1_555 1_555
C2G_2 C1G_2 1_555 1_555
C6G_2 C1G_2 1_555 1_555
C12G C7G 1_555 1_555
C11G C10G 1_555 1_555
H6G C11G 1_555 1_555
H7G C12G 1_555 1_555
H4G C8G 1_555 1_555
H5G C9G 1_555 1_555
O2G C25G 1_555 1_555
Zn1G O2G 1_555 1_555
Na2G O2G 1_555 1_555
Na1G Na2G 1_555 1_555
O7D Na1G 1_555 1_555
Zn1D O7D 1_555 1_555
Na2D Zn1D 1_555 1_555
Na1D Na2D 1_555 1_555
O7G Na1D 1_555 1_555
Zn1G_2 O7G 1_555 1_555
Na2G_2 Zn1G_2 1_555 1_555
O2G_2 Zn1G_2 1_555 1_555
O2A Zn1G_2 1_555 1_555
Na1G_2 Na2G_2 1_555 1_555
C25G_2 O2G_2 1_555 1_555
O5G Zn1G_2 1_555 1_555
O5A Zn1G_2 1_555 1_555
C26_2 O5A 1_555 1_555
C16_2 C26_2 1_555 1_555
C15_2 C16_2 1_555 1_555
C14_2 C15_2 1_555 1_555
C13_2 C14_2 1_555 1_555
C3_2 C13_2 1_555 1_555
C2_2 C3_2 1_555 1_555
C1_2 C2_2 1_555 1_555
C6_2 C1_2 1_555 1_555
C5_2 C6_2 1_555 1_555
C4_2 C3_2 1_555 1_555
H2_2 C4_2 1_555 1_555
C19_2 C5_2 1_555 1_555
C20_2 C19_2 1_555 1_555
H12_2 C20_2 1_555 1_555
C21_2 C20_2 1_555 1_555
H13_2 C21_2 1_555 1_555
C22_2 C21_2 1_555 1_555
C23_2 C22_2 1_555 1_555
H14_2 C23_2 1_555 1_555
C24_2 C19_2 1_555 1_555
H15_2 C24_2 1_555 1_555
C27_2 C22_2 1_555 1_555
O3_2 C27_2 1_555 1_555
O4_2 C27_2 1_555 1_555
Zn2A O4_2 1_555 1_555
O1A Zn2A 1_555 1_555
C25A O1A 1_555 1_555
C10A C25A 1_555 1_555
C9A C10A 1_555 1_555
C8A C9A 1_555 1_555
C7A C8A 1_555 1_555
C1A C7A 1_555 1_555
C2A C1A 1_555 1_555
H1A C2A 1_555 1_555
C3A C2A 1_555 1_555
C4A C3A 1_555 1_555
H2A C4A 1_555 1_555
C5A C4A 1_555 1_555
C6A C1A 1_555 1_555
H3A C6A 1_555 1_555
C19A C5A 1_555 1_555
C20A C19A 1_555 1_555
H12A C20A 1_555 1_555
C21A C20A 1_555 1_555
H13A C21A 1_555 1_555
C22A C21A 1_555 1_555
C23A C22A 1_555 1_555
H14A C23A 1_555 1_555
C24A C19A 1_555 1_555
H15A C24A 1_555 1_555
C27A C22A 1_555 1_555
O3A C27A 1_555 1_555
O4A C27A 1_555 1_555
Zn2_2 O4A 1_555 1_555
O1_2 Zn2_2 1_555 1_555
C25_2 O1_2 1_555 1_555
C10_2 C25_2 1_555 1_555
C9_2 C10_2 1_555 1_555
C8_2 C9_2 1_555 1_555
C7_2 C8_2 1_555 1_555
C1_3 C7_2 1_555 1_555
C2_3 C1_3 1_555 1_555
C6_3 C1_3 1_555 1_555
C12_2 C7_2 1_555 1_555
C11_2 C10_2 1_555 1_555
H6_2 C11_2 1_555 1_555
H7_2 C12_2 1_555 1_555
H4_2 C8_2 1_555 1_555
H5_2 C9_2 1_555 1_555
O2_3 C25_2 1_555 1_555
Zn1_3 O2_3 1_555 1_555
Na2_3 O2_3 1_555 1_555
O6A Zn2_2 1_555 1_555
C26A O6A 1_555 1_555
C16A C26A 1_555 1_555
C15A C16A 1_555 1_555
C14A C15A 1_555 1_555
C13A C14A 1_555 1_555
C3A_2 C13A 1_555 1_555
C2A_2 C3A_2 1_555 1_555
C4A_2 C3A_2 1_555 1_555
C18A C13A 1_555 1_555
C17A C16A 1_555 1_555
H10A C17A 1_555 1_555
H11A C18A 1_555 1_555
H8A C14A 1_555 1_555
H9A C15A 1_555 1_555
O5_3 Zn1_3 1_555 1_555
O7_3 Zn2_2 1_555 1_555
Zn2F_2 O7_3 1_555 1_555
O1F_2 Zn2F_2 1_555 1_555
O4G_2 Zn2F_2 1_555 1_555
O6G Zn2F_2 1_555 1_555
C26G_2 O6G 1_555 1_555
C16G_2 C26G_2 1_555 1_555
O5F_2 Zn1_3 1_555 1_555
Na1C_2 O7_3 1_555 1_555
C13A_2 C3A 1_555 1_555
C12A C7A 1_555 1_555
C11A C10A 1_555 1_555
H6A C11A 1_555 1_555
H7A C12A 1_555 1_555
H4A C8A 1_555 1_555
H5A C9A 1_555 1_555
O2A_2 C25A 1_555 1_555
Zn1A O2A_2 1_555 1_555
Na2A O2A_2 1_555 1_555
O6_2 Zn2A 1_555 1_555
C26_3 O6_2 1_555 1_555
C16_3 C26_3 1_555 1_555
O5A_2 Zn1A 1_555 1_555
O7A Zn2A 1_555 1_555
Zn2G_2 O7A 1_555 1_555
O1G_2 Zn2G_2 1_555 1_555
O4F_2 Zn2G_2 1_555 1_555
O6F Zn2G_2 1_555 1_555
C26F O6F 1_555 1_555
C16F C26F 1_555 1_555
C15F C16F 1_555 1_555
C14F C15F 1_555 1_555
C13F C14F 1_555 1_555
C3F_2 C13F 1_555 1_555
C2F_2 C3F_2 1_555 1_555
C4F_2 C3F_2 1_555 1_555
C18F C13F 1_555 1_555
C17F C16F 1_555 1_555
H10F C17F 1_555 1_555
H11F C18F 1_555 1_555
H8F C14F 1_555 1_555
H9F C15F 1_555 1_555
O5G_2 Zn1A 1_555 1_555
Na1B O7A 1_555 1_555
H3_2 C6_2 1_555 1_555
C7_3 C1_2 1_555 1_555
H1_2 C2_2 1_555 1_555
C18_2 C13_2 1_555 1_555
C17_2 C16_2 1_555 1_555
H10_2 C17_2 1_555 1_555
H11_2 C18_2 1_555 1_555
H8_2 C14_2 1_555 1_555
H9_2 C15_2 1_555 1_555
O6_3 C26_2 1_555 1_555
C26F_2 O5G 1_555 1_555
C25A_2 O2A 1_555 1_555
Zn2G_3 O7G 1_555 1_555
Zn2A_2 O7G 1_555 1_555
O2D Zn1D 1_555 1_555
O2B Zn1D 1_555 1_555
O5D Zn1D 1_555 1_555
O5B Zn1D 1_555 1_555
C26C O5B 1_555 1_555
C16C C26C 1_555 1_555
C15C C16C 1_555 1_555
C14C C15C 1_555 1_555
C13C C14C 1_555 1_555
C3C C13C 1_555 1_555
C2C C3C 1_555 1_555
C1C C2C 1_555 1_555
C6C C1C 1_555 1_555
C5C C6C 1_555 1_555
C4C C3C 1_555 1_555
H2C C4C 1_555 1_555
C19C C5C 1_555 1_555
C20C C19C 1_555 1_555
H12C C20C 1_555 1_555
C21C C20C 1_555 1_555
H13C C21C 1_555 1_555
C22C C21C 1_555 1_555
C23C C22C 1_555 1_555
H14C C23C 1_555 1_555
C24C C19C 1_555 1_555
H15C C24C 1_555 1_555
C27C C22C 1_555 1_555
O3C C27C 1_555 1_555
O4C C27C 1_555 1_555
Zn2B O4C 1_555 1_555
O1B Zn2B 1_555 1_555
C25B O1B 1_555 1_555
C10B C25B 1_555 1_555
C9B C10B 1_555 1_555
C8B C9B 1_555 1_555
C7B C8B 1_555 1_555
C1B C7B 1_555 1_555
C2B C1B 1_555 1_555
H1B C2B 1_555 1_555
C3B C2B 1_555 1_555
C4B C3B 1_555 1_555
H2B C4B 1_555 1_555
C5B C4B 1_555 1_555
C6B C1B 1_555 1_555
H3B C6B 1_555 1_555
C19B C5B 1_555 1_555
C20B C19B 1_555 1_555
H12B C20B 1_555 1_555
C21B C20B 1_555 1_555
H13B C21B 1_555 1_555
C22B C21B 1_555 1_555
C23B C22B 1_555 1_555
H14B C23B 1_555 1_555
C24B C19B 1_555 1_555
H15B C24B 1_555 1_555
C27B C22B 1_555 1_555
O3B C27B 1_555 1_555
O4B C27B 1_555 1_555
Zn2C O7C 1_555 1_555
O1C Zn2C 1_555 1_555
C25C O1C 1_555 1_555
C10C C25C 1_555 1_555
C9C C10C 1_555 1_555
C8C C9C 1_555 1_555
C7C C8C 1_555 1_555
C1C_2 C7C 1_555 1_555
C2C_2 C1C_2 1_555 1_555
C6C_2 C1C_2 1_555 1_555
C12C C7C 1_555 1_555
C11C C10C 1_555 1_555
H6C C11C 1_555 1_555
H7C C12C 1_555 1_555
H4C C8C 1_555 1_555
H5C C9C 1_555 1_555
O2C Zn1C 1_555 1_555
O2E Zn1C 1_555 1_555
O5C Zn1C 1_555 1_555
O5E Zn1C 1_555 1_555
C26D O5E 1_555 1_555
C16D C26D 1_555 1_555
C15D C16D 1_555 1_555
C14D C15D 1_555 1_555
C13D C14D 1_555 1_555
C3D C13D 1_555 1_555
C2D C3D 1_555 1_555
C1D C2D 1_555 1_555
C6D C1D 1_555 1_555
C5D C6D 1_555 1_555
C4D C3D 1_555 1_555
H2D C4D 1_555 1_555
C19D C5D 1_555 1_555
C20D C19D 1_555 1_555
H12D C20D 1_555 1_555
C21D C20D 1_555 1_555
H13D C21D 1_555 1_555
C22D C21D 1_555 1_555
C23D C22D 1_555 1_555
H14D C23D 1_555 1_555
C24D C19D 1_555 1_555
H15D C24D 1_555 1_555
C27D C22D 1_555 1_555
O3D C27D 1_555 1_555
O4D C27D 1_555 1_555
Zn2E O4D 1_555 1_555
O1E Zn2E 1_555 1_555
C25E O1E 1_555 1_555
C10E C25E 1_555 1_555
C9E C10E 1_555 1_555
C8E C9E 1_555 1_555
C7E C8E 1_555 1_555
C1E C7E 1_555 1_555
C2E C1E 1_555 1_555
H1E C2E 1_555 1_555
C3E C2E 1_555 1_555
C4E C3E 1_555 1_555
H2E C4E 1_555 1_555
C5E C4E 1_555 1_555
C6E C1E 1_555 1_555
H3E C6E 1_555 1_555
C19E C5E 1_555 1_555
C20E C19E 1_555 1_555
H12E C20E 1_555 1_555
C21E C20E 1_555 1_555
H13E C21E 1_555 1_555
C22E C21E 1_555 1_555
C23E C22E 1_555 1_555
H14E C23E 1_555 1_555
C24E C19E 1_555 1_555
H15E C24E 1_555 1_555
C27E C22E 1_555 1_555
O3E C27E 1_555 1_555
O4E C27E 1_555 1_555
Zn2D O4E 1_555 1_555
O1D Zn2D 1_555 1_555
C25D O1D 1_555 1_555
C10D C25D 1_555 1_555
C9D C10D 1_555 1_555
C8D C9D 1_555 1_555
C7D C8D 1_555 1_555
C1D_2 C7D 1_555 1_555
C2D_2 C1D_2 1_555 1_555
C6D_2 C1D_2 1_555 1_555
C12D C7D 1_555 1_555
C11D C10D 1_555 1_555
H6D C11D 1_555 1_555
H7D C12D 1_555 1_555
H4D C8D 1_555 1_555
H5D C9D 1_555 1_555
O2D_2 C25D 1_555 1_555
Zn1D_2 O2D_2 1_555 1_555
Na2D_2 O2D_2 1_555 1_555
O6E Zn2D 1_555 1_555
C26E O6E 1_555 1_555
C16E C26E 1_555 1_555
C15E C16E 1_555 1_555
C14E C15E 1_555 1_555
C13E C14E 1_555 1_555
C3E_2 C13E 1_555 1_555
C2E_2 C3E_2 1_555 1_555
C4E_2 C3E_2 1_555 1_555
C18E C13E 1_555 1_555
C17E C16E 1_555 1_555
H10E C17E 1_555 1_555
H11E C18E 1_555 1_555
H8E C14E 1_555 1_555
H9E C15E 1_555 1_555
O5D_2 Zn1D_2 1_555 1_555
O7D_2 Zn2D 1_555 1_555
Zn2B_2 O7D_2 1_555 1_555
O1B_2 Zn2B_2 1_555 1_555
O4C_2 Zn2B_2 1_555 1_555
O6C Zn2B_2 1_555 1_555
C26C_2 O6C 1_555 1_555
C16C_2 C26C_2 1_555 1_555
O5B_2 Zn1D_2 1_555 1_555
Na1G_3 O7D_2 1_555 1_555
C13E_2 C3E 1_555 1_555
C12E C7E 1_555 1_555
C11E C10E 1_555 1_555
H6E C11E 1_555 1_555
H7E C12E 1_555 1_555
H4E C8E 1_555 1_555
H5E C9E 1_555 1_555
O2E_2 C25E 1_555 1_555
Zn1E O2E_2 1_555 1_555
Na2E O2E_2 1_555 1_555
O6D Zn2E 1_555 1_555
C26D_2 O6D 1_555 1_555
C16D_2 C26D_2 1_555 1_555
O5E_2 Zn1E 1_555 1_555
O7E Na1_2 1_555 1_555
Zn2C_2 O7E 1_555 1_555
O1C_2 Zn2C_2 1_555 1_555
O4B_2 Zn2C_2 1_555 1_555
O6B Zn2C_2 1_555 1_555
C26B O6B 1_555 1_555
C16B C26B 1_555 1_555
C15B C16B 1_555 1_555
C14B C15B 1_555 1_555
C13B C14B 1_555 1_555
C3B_2 C13B 1_555 1_555
C2B_2 C3B_2 1_555 1_555
C4B_2 C3B_2 1_555 1_555
C18B C13B 1_555 1_555
C17B C16B 1_555 1_555
H10B C17B 1_555 1_555
H11B C18B 1_555 1_555
H8B C14B 1_555 1_555
H9B C15B 1_555 1_555
O5C_2 Zn1E 1_555 1_555
H3D C6D 1_555 1_555
C7D_2 C1D 1_555 1_555
H1D C2D 1_555 1_555
C18D C13D 1_555 1_555
C17D C16D 1_555 1_555
H10D C17D 1_555 1_555
H11D C18D 1_555 1_555
H8D C14D 1_555 1_555
H9D C15D 1_555 1_555
O6D_2 C26D 1_555 1_555
C26B_2 O5C 1_555 1_555
C25E_2 O2E 1_555 1_555
O6B_2 Zn2C 1_555 1_555
C13B_2 C3B 1_555 1_555
C12B C7B 1_555 1_555
C11B C10B 1_555 1_555
H6B C11B 1_555 1_555
H7B C12B 1_555 1_555
H4B C8B 1_555 1_555
H5B C9B 1_555 1_555
O2B_2 C25B 1_555 1_555
Zn1B O2B_2 1_555 1_555
Na2B Na1B 1_555 1_555
O6C_2 Zn2B 1_555 1_555
O7B Na1G_2 1_555 1_555
H3C C6C 1_555 1_555
C7C_2 C1C 1_555 1_555
H1C C2C 1_555 1_555
C18C C13C 1_555 1_555
C17C C16C 1_555 1_555
H10C C17C 1_555 1_555
H11C C18C 1_555 1_555
H8C C14C 1_555 1_555
H9C C15C 1_555 1_555
O6C_3 C26C 1_555 1_555
C26E_2 O5D 1_555 1_555
C25B_2 O2B 1_555 1_555
C25D_2 O2D 1_555 1_555
Zn2D_2 O7D 1_555 1_555
Zn2B_3 O7D 1_555 1_555
O2A_3 Zn1G 1_555 1_555
O5G_3 Zn1G 1_555 1_555
O5A_3 Zn1G 1_555 1_555
O7G_2 Zn2G 1_555 1_555
O6F_2 Zn2G 1_555 1_555
C13F_2 C3F 1_555 1_555
C12F C7F 1_555 1_555
C11F C10F 1_555 1_555
H6F C11F 1_555 1_555
H7F C12F 1_555 1_555
H4F C8F 1_555 1_555
H5F C9F 1_555 1_555
O2F_2 C25F 1_555 1_555
Zn1F O2F_2 1_555 1_555
Na2F O2F_2 1_555 1_555
O6G_2 Zn2F 1_555 1_555
O7F Zn2F 1_555 1_555
H3G C6G 1_555 1_555
C7G_2 C1G 1_555 1_555
H1G C2G 1_555 1_555
C18G C13G 1_555 1_555
C17G C16G 1_555 1_555
H10G C17G 1_555 1_555
H11G C18G 1_555 1_555
H8G C14G 1_555 1_555
H9G C15G 1_555 1_555
O6G_3 C26G 1_555 1_555
C26A_2 O5_2 1_555 1_555
C25F_2 O2F 1_555 1_555
C25_3 O2_2 1_555 1_555
Zn2_3 O7_2 1_555 1_555
Zn2F_3 O7_2 1_555 1_555
Zn2E_2 O7C 1_555 1_555
O2F_3 Zn1 1_555 1_555
O5F_3 Zn1 1_555 1_555
O4A_2 Zn2 1_555 1_555
O6A_2 Zn2 1_555 1_555
O5A_4 C26 1_555 1_555
Zn2A_3 O4 1_555 1_555
C26A_3 O5 1_555 1_555
Zn2A_4 O6 1_555 1_555
Na1C_3 O7 1_555 1_555
Zn2D_3 O7B 1_555 1_555
Na1_3 Na2_3 1_555 1_555
Na1A Na2A 1_555 1_555
O2G_3 Zn1A 1_555 1_555
O2D_3 Zn1B 1_555 1_555
O5B_3 Zn1B 1_555 1_555
O5D_3 Zn1B 1_555 1_555
O1A_2 C25A_2 1_555 1_555
O4_3 Zn2A_2 1_555 1_555
Na1D_2 Na2D_2 1_555 1_555
O2B_3 Zn1D_2 1_555 1_555
Na1E Na2E 1_555 1_555
O2C_2 Zn1E 1_555 1_555
O1E_2 C25E_2 1_555 1_555
O4D_2 Zn2E_2 1_555 1_555
C16B_2 C26B_2 1_555 1_555
O1B_3 C25B_2 1_555 1_555
O4C_3 Zn2B_3 1_555 1_555
O1F_3 C25F_2 1_555 1_555
O4G_3 Zn2F_3 1_555 1_555
C16A_2 C26A_3 1_555 1_555
C10A_2 C25A_2 1_555 1_555
C10E_2 C25E_2 1_555 1_555
C10B_2 C25B_2 1_555 1_555
C10F_2 C25F_2 1_555 1_555
Zn2 O7 1_555 1_555
Na2 O5 1_555 1_555
Na2 O2F_3 1_555 1_555
Na2 O5F_3 1_555 1_555
C5 C6 1_555 1_555
C11 C12 1_555 1_555
C17 C18 1_555 1_555
C23 C24 1_555 1_555
C25 O2 1_555 1_555
Na2C O5C 1_555 1_555
Na2C O2E 1_555 1_555
Na2C O2C 1_555 1_555
Na2C O5E 1_555 1_555
Na2_2 O2F 1_555 1_555
Na2_2 O5F 1_555 1_555
Na2_2 O2_2 1_555 1_555
Na2_2 O5_2 1_555 1_555
C5G C4G 1_555 1_555
C23G C24G 1_555 1_555
C5F C6F 1_555 1_555
C23F C24F 1_555 1_555
C12G C11G 1_555 1_555
Zn1G Na2G 1_555 1_555
Zn1G O7G_2 1_555 1_555
Na2G O2A_3 1_555 1_555
Na2G O5G_3 1_555 1_555
Na2G O5A_3 1_555 1_555
Na2D O2D 1_555 1_555
Na2D O5D 1_555 1_555
Na2D O2B 1_555 1_555
Na2D O5B 1_555 1_555
Na2G_2 O5G 1_555 1_555
Na2G_2 O2A 1_555 1_555
Na2G_2 O2G_2 1_555 1_555
Na2G_2 O5A 1_555 1_555
C5_2 C4_2 1_555 1_555
C23_2 C24_2 1_555 1_555
C5A C6A 1_555 1_555
C23A C24A 1_555 1_555
C12_2 C11_2 1_555 1_555
Zn1_3 O7_3 1_555 1_555
Zn1_3 Na2_3 1_555 1_555
Na2_3 O5_3 1_555 1_555
Na2_3 O5F_2 1_555 1_555
C26A O5_3 1_555 1_555
C18A C17A 1_555 1_555
C26G_2 O5F_2 1_555 1_555
C12A C11A 1_555 1_555
Zn1A O7A 1_555 1_555
Zn1A Na2A 1_555 1_555
Na2A O2G_3 1_555 1_555
Na2A O5G_2 1_555 1_555
Na2A O5A_2 1_555 1_555
C26_3 O5A_2 1_555 1_555
C26F O5G_2 1_555 1_555
C18F C17F 1_555 1_555
C18_2 C17_2 1_555 1_555
O6_3 Zn2A_2 1_555 1_555
Zn2A_2 O1A_2 1_555 1_555
C5C C4C 1_555 1_555
C23C C24C 1_555 1_555
Zn2B O7B 1_555 1_555
C5B C6B 1_555 1_555
C23B C24B 1_555 1_555
O4B Zn2C 1_555 1_555
C25C O2C 1_555 1_555
C12C C11C 1_555 1_555
C5D C4D 1_555 1_555
C23D C24D 1_555 1_555
Zn2E O7E 1_555 1_555
C5E C6E 1_555 1_555
C23E C24E 1_555 1_555
C12D C11D 1_555 1_555
Zn1D_2 O7D_2 1_555 1_555
Zn1D_2 Na2D_2 1_555 1_555
Na2D_2 O2B_3 1_555 1_555
Na2D_2 O5D_2 1_555 1_555
Na2D_2 O5B_2 1_555 1_555
C26E O5D_2 1_555 1_555
C18E C17E 1_555 1_555
C26C_2 O5B_2 1_555 1_555
C12E C11E 1_555 1_555
Zn1E O7E 1_555 1_555
Zn1E Na2E 1_555 1_555
Na2E O2C_2 1_555 1_555
Na2E O5C_2 1_555 1_555
Na2E O5E_2 1_555 1_555
C26D_2 O5E_2 1_555 1_555
C26B O5C_2 1_555 1_555
C18B C17B 1_555 1_555
C18D C17D 1_555 1_555
O6D_2 Zn2E_2 1_555 1_555
C26B_2 O6B_2 1_555 1_555
C12B C11B 1_555 1_555
O2B_2 Na2B 1_555 1_555
Zn1B Na2B 1_555 1_555
Zn1B O7B 1_555 1_555
Na2B O2D_3 1_555 1_555
Na2B O5B_3 1_555 1_555
Na2B O5D_3 1_555 1_555
C18C C17C 1_555 1_555
O6C_3 Zn2B_3 1_555 1_555
Zn2B_3 O1B_3 1_555 1_555
C12F C11F 1_555 1_555
Zn1F Na2F 1_555 1_555
Zn1F O7F 1_555 1_555
O7F Na1E 1_555 1_555
C18G C17G 1_555 1_555
O6G_3 Zn2F_3 1_555 1_555
Zn2F_3 O1F_3 1_555 1_555
Zn2E_2 O1E_2 1_555 1_555
O6A_2 C26A_3 1_555 1_555

#END
