
#######################################################################
#
#                 Cambridge Crystallographic Data Centre
#                                CCDC 
#
#######################################################################
#
# If this CIF has been generated from an entry in the Cambridge 
# Structural Database, then it will include bibliographic, chemical, 
# crystal, experimental, refinement or atomic coordinate data resulting 
# from the CCDC's data processing and validation procedures.
#
#######################################################################

data_PAPNUR
_chemical_formula_moiety         '(C28 H34 Br2 Cu1 N8 O7)n'
_symmetry_cell_setting           trigonal
_symmetry_space_group_name_H-M   'P 32 2 1'
_symmetry_Int_Tables_number      154
_space_group_name_Hall           'P 32 2"'
loop_
_symmetry_equiv_pos_site_id
_symmetry_equiv_pos_as_xyz
1 x,y,z
2 -y,x-y,2/3+z
3 -x+y,-x,1/3+z
4 y,x,-z
5 x-y,-y,1/3-z
6 -x,-x+y,2/3-z
_cell_length_a                   13.6744(8)
_cell_length_b                   13.6744(8)
_cell_length_c                   15.0225(12)
_cell_angle_alpha                90
_cell_angle_beta                 90
_cell_angle_gamma                120
_cell_volume                     2432.7
loop_
_atom_site_label
_atom_site_type_symbol
_atom_site_fract_x
_atom_site_fract_y
_atom_site_fract_z
Cu1 Cu 1.00000(13) 0.73534(9) -0.6667
Br1 Br 1.00000(9) 0.53739(9) -0.6667
N1 N 0.8430(5) 0.6592(5) -0.7161(4)
C1 C 0.7666(8) 0.6856(7) -0.6870(5)
H1 H 0.7850 0.7352 -0.6394
C2 C 0.6608(8) 0.6411(7) -0.7256(6)
H2 H 0.6063 0.6542 -0.7005
C3 C 0.6373(7) 0.5762(7) -0.8028(6)
H3 H 0.5692 0.5505 -0.8328
C4 C 0.7162(7) 0.5513(7) -0.8332(5)
C5 C 0.8187(6) 0.5914(6) -0.7885(5)
H4 H 0.8708 0.5715 -0.8085
N2 N 0.6923(6) 0.4894(6) -0.9148(4)
H5 H 0.6274 0.4688 -0.9382
C6 C 0.7584(10) 0.4594(8) -0.9595(7)
O1 O 0.8452(9) 0.4667(6) -0.9313(6)
C7 C 0.7292(11) 0.4416(11) -1.0665(9)
C8 C 0.7830(12) 0.5501(11) -1.1228(8)
N3 N 0.7491(9) 0.3436(9) -1.0886(9)
C9 C 0.7211(13) 0.2694(14) -1.0597(8)
O2 O 0.6637(9) 0.2433(8) -0.9928(6)
C10 C 0.7432(11) 0.1601(9) -1.0833(8)
C11 C 0.7442(8) 0.1405(7) -1.1733(6)
H6 H 0.7255 0.1802 -1.2135
N4 N 0.7719(5) 0.0640(7) -1.2042(4)
C12 C 0.8059(7) 0.0155(7) -1.1446(5)
H7 H 0.8288 -0.0342 -1.1648
C13 C 0.8090(9) 0.0350(9) -1.0553(6)
H8 H 0.8374 0.0020 -1.0167
C14 C 0.7707(13) 0.1024(9) -1.0224(7)
H9 H 0.7635 0.1093 -0.9615
O3 O 1.0000(5) 0.9135(5) -0.6667
Cu1B Cu 0.73534(16) -0.00000(13) -1.3334
Cu1D Cu 1.26466(16) 0.26466(9) 0.0000
N1E N 1.1570(5) 0.8162(7) -0.6172(4)
C1E C 1.2334(8) 0.9190(11) -0.6463(5)
H1E H 1.2150 0.9502 -0.6939
C2E C 1.3392(8) 0.9803(11) -0.6077(6)
H2E H 1.3937 1.0479 -0.6328
C3E C 1.3627(7) 0.9389(10) -0.5305(6)
H3E H 1.4308 0.9813 -0.5005
C4E C 1.2838(7) 0.8351(10) -0.5001(5)
C5E C 1.1813(6) 0.7727(8) -0.5448(5)
H4E H 1.1292 0.7007 -0.5248
N2E N 1.3077(6) 0.7971(8) -0.4185(4)
H5E H 1.3726 0.8414 -0.3951
C6E C 1.2416(10) 0.7010(13) -0.3738(7)
O1E O 1.1548(9) 0.6215(11) -0.4020(6)
C7E C 1.2708(11) 0.7124(16) -0.2668(9)
C8E C 1.2170(12) 0.7671(16) -0.2105(8)
N3E N 1.2509(9) 0.5945(13) -0.2447(9)
C9E C 1.2789(13) 0.5483(19) -0.2736(8)
O2E O 1.3363(9) 0.5796(12) -0.3405(6)
C10E C 1.2568(11) 0.4169(14) -0.2500(8)
C11E C 1.2558(8) 0.3963(11) -0.1600(6)
H6E H 1.2745 0.4547 -0.1198
N4A N 0.9360(7) 0.7079(9) -0.5375(4)
N4C N 1.0640(7) 0.7719(5) -0.7958(4)
N4E N 1.2281(5) 0.2921(9) -0.1291(4)
C12E C 1.1941(7) 0.2096(10) -0.1887(5)
H7E H 1.1712 0.1370 -0.1685
C13E C 1.1910(9) 0.2260(13) -0.2780(6)
H8E H 1.1626 0.1646 -0.3166
C14E C 1.2293(13) 0.3317(16) -0.3109(7)
H9E H 1.2365 0.3458 -0.3718
Br2 Br 0.90038(8) 0.0000 0.1667
O4 O 0.4679(10) 0.4391(12) 0.4071(8)
O5 O -0.0000 0.2213(16) 0.3333
loop_
_geom_bond_atom_site_label_1
_geom_bond_atom_site_label_2
_geom_bond_site_symmetry_1
_geom_bond_site_symmetry_2
Cu1 Br1 1_555 1_555
N1 Cu1 1_555 1_555
C1 N1 1_555 1_555
H1 C1 1_555 1_555
C2 C1 1_555 1_555
H2 C2 1_555 1_555
C3 C2 1_555 1_555
H3 C3 1_555 1_555
C4 C3 1_555 1_555
C5 N1 1_555 1_555
H4 C5 1_555 1_555
N2 C4 1_555 1_555
H5 N2 1_555 1_555
C6 N2 1_555 1_555
O1 C6 1_555 1_555
C7 C6 1_555 1_555
C8 C7 1_555 1_555
N3 C7 1_555 1_555
C9 N3 1_555 1_555
O2 C9 1_555 1_555
C10 C9 1_555 1_555
C11 C10 1_555 1_555
H6 C11 1_555 1_555
N4 C11 1_555 1_555
C12 N4 1_555 1_555
H7 C12 1_555 1_555
C13 C12 1_555 1_555
H8 C13 1_555 1_555
C14 C10 1_555 1_555
H9 C14 1_555 1_555
O3 Cu1 1_555 1_555
Cu1B N4 1_555 1_555
Cu1D N4E 1_555 1_555
N1E Cu1 1_555 1_555
C1E N1E 1_555 1_555
H1E C1E 1_555 1_555
C2E C1E 1_555 1_555
H2E C2E 1_555 1_555
C3E C2E 1_555 1_555
H3E C3E 1_555 1_555
C4E C3E 1_555 1_555
C5E N1E 1_555 1_555
H4E C5E 1_555 1_555
N2E C4E 1_555 1_555
H5E N2E 1_555 1_555
C6E N2E 1_555 1_555
O1E C6E 1_555 1_555
C7E C6E 1_555 1_555
C8E C7E 1_555 1_555
N3E C7E 1_555 1_555
C9E N3E 1_555 1_555
O2E C9E 1_555 1_555
C10E C9E 1_555 1_555
C11E C10E 1_555 1_555
H6E C11E 1_555 1_555
N4A Cu1 1_555 1_555
N4C Cu1 1_555 1_555
N4E C11E 1_555 1_555
C12E N4E 1_555 1_555
H7E C12E 1_555 1_555
C13E C12E 1_555 1_555
H8E C13E 1_555 1_555
C14E C10E 1_555 1_555
H9E C14E 1_555 1_555
C4 C5 1_555 1_555
C13 C14 1_555 1_555
C4E C5E 1_555 1_555
C13E C14E 1_555 1_555

#END
