
#######################################################################
#
#                 Cambridge Crystallographic Data Centre
#                                CCDC 
#
#######################################################################
#
# If this CIF has been generated from an entry in the Cambridge 
# Structural Database, then it will include bibliographic, chemical, 
# crystal, experimental, refinement or atomic coordinate data resulting 
# from the CCDC's data processing and validation procedures.
#
#######################################################################

data_PAPPAZ
_chemical_formula_moiety         '(C40 H38 Br2 Cu1 N8 O5)n'
_symmetry_cell_setting           trigonal
_symmetry_space_group_name_H-M   'P 32 2 1'
_symmetry_Int_Tables_number      154
_space_group_name_Hall           'P 32 2"'
loop_
_symmetry_equiv_pos_site_id
_symmetry_equiv_pos_as_xyz
1 x,y,z
2 -y,x-y,2/3+z
3 -x+y,-x,1/3+z
4 y,x,-z
5 x-y,-y,1/3-z
6 -x,-x+y,2/3-z
_cell_length_a                   13.0842(11)
_cell_length_b                   13.0842(11)
_cell_length_c                   19.878(2)
_cell_angle_alpha                90
_cell_angle_beta                 90
_cell_angle_gamma                120
_cell_volume                     2947.12
loop_
_atom_site_label
_atom_site_type_symbol
_atom_site_fract_x
_atom_site_fract_y
_atom_site_fract_z
_atom_site_U_iso_or_equiv
_atom_site_thermal_displace_type
Cu1 Cu 0.6184(2) 0.6184(2) 0.0000 0.0252 Uiso
Br1 Br 0.7408(2) 0.4867(2) 0.02556(13) 0.0729 Uiso
N1 N 0.2889(11) 0.0291(12) 0.5937(6) 0.0170 Uiso
C1 C 0.1788(15) -0.0427(16) 0.5848(9) 0.0280 Uiso
C2 C 0.1192(18) -0.0393(19) 0.5273(10) 0.0500 Uiso
C3 C 0.1865(19) 0.0502(17) 0.4763(10) 0.0440 Uiso
C4 C 0.3053(16) 0.1255(16) 0.4901(9) 0.0340 Uiso
C5 C 0.3536(15) 0.1162(16) 0.5506(9) 0.0270 Uiso
N2 N 0.3835(14) 0.2196(14) 0.4477(7) 0.0400 Uiso
C6 C 0.3585(19) 0.2732(17) 0.3977(10) 0.0410 Uiso
O1 O 0.2571(13) 0.2381(13) 0.3773(6) 0.0520 Uiso
C7 C 0.4674(16) 0.3770(17) 0.3663(9) 0.0370 Uiso
C8 C 0.5022(19) 0.4770(19) 0.4117(10) 0.0460 Uiso
C9 C 0.6142(19) 0.5804(19) 0.3992(10) 0.0480 Uiso
C10 C 0.722(2) 0.583(2) 0.3924(13) 0.0840 Uiso
C11 C 0.838(2) 0.696(2) 0.3867(12) 0.0800 Uiso
C12 C 0.843(2) 0.799(3) 0.3858(12) 0.0840 Uiso
C13 C 0.735(3) 0.795(3) 0.3975(15) 0.1100 Uiso
C14 C 0.626(2) 0.690(2) 0.4005(12) 0.0750 Uiso
N3 N 0.4353(13) 0.4035(13) 0.2996(7) 0.0330 Uiso
C15 C 0.4962(17) 0.4070(16) 0.2439(9) 0.0330 Uiso
O2 O 0.5766(12) 0.3881(10) 0.2434(6) 0.0460 Uiso
C16 C 0.4475(17) 0.4290(16) 0.1794(9) 0.0310 Uiso
C17 C 0.3311(18) 0.3943(16) 0.1712(9) 0.0360 Uiso
C18 C 0.2975(18) 0.4260(18) 0.1097(11) 0.0480 Uiso
C19 C 0.3850(16) 0.4885(16) 0.0629(9) 0.0320 Uiso
N4 N 0.5001(12) 0.5203(12) 0.0710(7) 0.0220 Uiso
C20 C 0.5293(16) 0.4907(16) 0.1277(9) 0.0270 Uiso
Cu1A Cu 0.3816(2) -0.0000(3) 0.6667 0.0252 Uiso
Cu1B Cu -0.0000(3) 0.3816(2) -0.6667 0.0252 Uiso
Br1C Br 0.4867(2) 0.7408(2) -0.02556(13) 0.0729 Uiso
N1C N 0.0291(12) 0.2889(11) -0.5937(6) 0.0170 Uiso
N1B N 0.7402(16) 0.7111(11) -0.0730(6) 0.0170 Uiso
N1E N 0.7111(11) 0.7402(16) 0.0730(6) 0.0170 Uiso
C1C C -0.0427(16) 0.1788(15) -0.5848(9) 0.0280 Uiso
C2C C -0.0393(19) 0.1192(18) -0.5273(10) 0.0500 Uiso
C3C C 0.0502(17) 0.1865(19) -0.4763(10) 0.0440 Uiso
C4C C 0.1255(16) 0.3053(16) -0.4901(9) 0.0340 Uiso
C5C C 0.1162(16) 0.3536(15) -0.5506(9) 0.0270 Uiso
N2C N 0.2196(14) 0.3835(14) -0.4477(7) 0.0400 Uiso
C6C C 0.2732(17) 0.3585(19) -0.3977(10) 0.0410 Uiso
O1C O 0.2381(13) 0.2571(13) -0.3773(6) 0.0520 Uiso
C7C C 0.3770(17) 0.4674(16) -0.3663(9) 0.0370 Uiso
C8C C 0.4770(19) 0.5022(19) -0.4117(10) 0.0460 Uiso
C9C C 0.5804(19) 0.6142(19) -0.3992(10) 0.0480 Uiso
C10C C 0.583(2) 0.722(2) -0.3924(13) 0.0840 Uiso
C11C C 0.696(2) 0.838(2) -0.3867(12) 0.0800 Uiso
C12C C 0.799(3) 0.843(2) -0.3858(12) 0.0840 Uiso
C13C C 0.795(3) 0.735(3) -0.3975(15) 0.1100 Uiso
C14C C 0.690(2) 0.626(2) -0.4005(12) 0.0750 Uiso
N3C N 0.4035(13) 0.4353(13) -0.2996(7) 0.0330 Uiso
C15C C 0.4070(16) 0.4962(17) -0.2439(9) 0.0330 Uiso
O2C O 0.3881(10) 0.5766(12) -0.2434(6) 0.0460 Uiso
C16C C 0.4290(16) 0.4475(17) -0.1794(9) 0.0310 Uiso
C17C C 0.3943(16) 0.3311(18) -0.1712(9) 0.0360 Uiso
C18C C 0.4260(18) 0.2975(18) -0.1097(11) 0.0480 Uiso
C19C C 0.4885(16) 0.3850(16) -0.0629(9) 0.0320 Uiso
N4C N 0.5203(12) 0.5001(12) -0.0710(7) 0.0220 Uiso
C20C C 0.4907(16) 0.5293(16) -0.1277(9) 0.0270 Uiso
O3 O 0.6864(14) 0.3099(14) 0.1513(7) 0.0690 Uiso
loop_
_geom_bond_atom_site_label_1
_geom_bond_atom_site_label_2
_geom_bond_site_symmetry_1
_geom_bond_site_symmetry_2
Cu1 Br1 1_555 1_555
N1 C1 1_555 1_555
C1 C2 1_555 1_555
C2 C3 1_555 1_555
C3 C4 1_555 1_555
C4 C5 1_555 1_555
C5 N1 1_555 1_555
N2 C4 1_555 1_555
C6 N2 1_555 1_555
O1 C6 1_555 1_555
C7 C6 1_555 1_555
C8 C7 1_555 1_555
C9 C8 1_555 1_555
C10 C9 1_555 1_555
C11 C10 1_555 1_555
C12 C11 1_555 1_555
C13 C12 1_555 1_555
C14 C9 1_555 1_555
N3 C7 1_555 1_555
C15 N3 1_555 1_555
O2 C15 1_555 1_555
C16 C15 1_555 1_555
C17 C16 1_555 1_555
C18 C17 1_555 1_555
C19 C18 1_555 1_555
N4 Cu1 1_555 1_555
C20 C16 1_555 1_555
Cu1A N1 1_555 1_555
Cu1B N1C 1_555 1_555
Br1C Cu1 1_555 1_555
N1C C1C 1_555 1_555
N1B Cu1 1_555 1_555
N1E Cu1 1_555 1_555
C1C C2C 1_555 1_555
C2C C3C 1_555 1_555
C3C C4C 1_555 1_555
C4C C5C 1_555 1_555
C5C N1C 1_555 1_555
N2C C4C 1_555 1_555
C6C N2C 1_555 1_555
O1C C6C 1_555 1_555
C7C C6C 1_555 1_555
C8C C7C 1_555 1_555
C9C C8C 1_555 1_555
C10C C9C 1_555 1_555
C11C C10C 1_555 1_555
C12C C11C 1_555 1_555
C13C C12C 1_555 1_555
C14C C9C 1_555 1_555
N3C C7C 1_555 1_555
C15C N3C 1_555 1_555
O2C C15C 1_555 1_555
C16C C15C 1_555 1_555
C17C C16C 1_555 1_555
C18C C17C 1_555 1_555
C19C C18C 1_555 1_555
N4C Cu1 1_555 1_555
C20C C16C 1_555 1_555
C13 C14 1_555 1_555
C19 N4 1_555 1_555
N4 C20 1_555 1_555
C13C C14C 1_555 1_555
C19C N4C 1_555 1_555
N4C C20C 1_555 1_555

#END
