
#######################################################################
#
#                 Cambridge Crystallographic Data Centre
#                                CCDC 
#
#######################################################################
#
# If this CIF has been generated from an entry in the Cambridge 
# Structural Database, then it will include bibliographic, chemical, 
# crystal, experimental, refinement or atomic coordinate data resulting 
# from the CCDC's data processing and validation procedures.
#
#######################################################################

data_NUSVEE
_chemical_formula_moiety         'C228 H48 N12 O27 Zn3 Zr12'
_symmetry_cell_setting           cubic
_symmetry_space_group_name_H-M   'F m -3 m'
_symmetry_Int_Tables_number      225
_space_group_name_Hall           '-F 4 2 3'
loop_
_symmetry_equiv_pos_site_id
_symmetry_equiv_pos_as_xyz
1 x,y,z
2 -x,-y,z
3 -x,y,-z
4 x,-y,-z
5 z,x,y
6 z,-x,-y
7 -z,-x,y
8 -z,x,-y
9 y,z,x
10 -y,z,-x
11 y,-z,-x
12 -y,-z,x
13 y,x,-z
14 -y,-x,-z
15 y,-x,z
16 -y,x,z
17 x,z,-y
18 -x,z,y
19 -x,-z,-y
20 x,-z,y
21 z,y,-x
22 z,-y,x
23 -z,y,x
24 -z,-y,-x
25 x,1/2+y,1/2+z
26 -x,1/2-y,1/2+z
27 -x,1/2+y,1/2-z
28 x,1/2-y,1/2-z
29 z,1/2+x,1/2+y
30 z,1/2-x,1/2-y
31 -z,1/2-x,1/2+y
32 -z,1/2+x,1/2-y
33 y,1/2+z,1/2+x
34 -y,1/2+z,1/2-x
35 y,1/2-z,1/2-x
36 -y,1/2-z,1/2+x
37 y,1/2+x,1/2-z
38 -y,1/2-x,1/2-z
39 y,1/2-x,1/2+z
40 -y,1/2+x,1/2+z
41 x,1/2+z,1/2-y
42 -x,1/2+z,1/2+y
43 -x,1/2-z,1/2-y
44 x,1/2-z,1/2+y
45 z,1/2+y,1/2-x
46 z,1/2-y,1/2+x
47 -z,1/2+y,1/2+x
48 -z,1/2-y,1/2-x
49 1/2+x,y,1/2+z
50 1/2-x,-y,1/2+z
51 1/2-x,y,1/2-z
52 1/2+x,-y,1/2-z
53 1/2+z,x,1/2+y
54 1/2+z,-x,1/2-y
55 1/2-z,-x,1/2+y
56 1/2-z,x,1/2-y
57 1/2+y,z,1/2+x
58 1/2-y,z,1/2-x
59 1/2+y,-z,1/2-x
60 1/2-y,-z,1/2+x
61 1/2+y,x,1/2-z
62 1/2-y,-x,1/2-z
63 1/2+y,-x,1/2+z
64 1/2-y,x,1/2+z
65 1/2+x,z,1/2-y
66 1/2-x,z,1/2+y
67 1/2-x,-z,1/2-y
68 1/2+x,-z,1/2+y
69 1/2+z,y,1/2-x
70 1/2+z,-y,1/2+x
71 1/2-z,y,1/2+x
72 1/2-z,-y,1/2-x
73 1/2+x,1/2+y,z
74 1/2-x,1/2-y,z
75 1/2-x,1/2+y,-z
76 1/2+x,1/2-y,-z
77 1/2+z,1/2+x,y
78 1/2+z,1/2-x,-y
79 1/2-z,1/2-x,y
80 1/2-z,1/2+x,-y
81 1/2+y,1/2+z,x
82 1/2-y,1/2+z,-x
83 1/2+y,1/2-z,-x
84 1/2-y,1/2-z,x
85 1/2+y,1/2+x,-z
86 1/2-y,1/2-x,-z
87 1/2+y,1/2-x,z
88 1/2-y,1/2+x,z
89 1/2+x,1/2+z,-y
90 1/2-x,1/2+z,y
91 1/2-x,1/2-z,-y
92 1/2+x,1/2-z,y
93 1/2+z,1/2+y,-x
94 1/2+z,1/2-y,x
95 1/2-z,1/2+y,x
96 1/2-z,1/2-y,-x
97 -x,-y,-z
98 x,y,-z
99 x,-y,z
100 -x,y,z
101 -z,-x,-y
102 -z,x,y
103 z,x,-y
104 z,-x,y
105 -y,-z,-x
106 y,-z,x
107 -y,z,x
108 y,z,-x
109 -y,-x,z
110 y,x,z
111 -y,x,-z
112 y,-x,-z
113 -x,-z,y
114 x,-z,-y
115 x,z,y
116 -x,z,-y
117 -z,-y,x
118 -z,y,-x
119 z,-y,-x
120 z,y,x
121 -x,1/2-y,1/2-z
122 x,1/2+y,1/2-z
123 x,1/2-y,1/2+z
124 -x,1/2+y,1/2+z
125 -z,1/2-x,1/2-y
126 -z,1/2+x,1/2+y
127 z,1/2+x,1/2-y
128 z,1/2-x,1/2+y
129 -y,1/2-z,1/2-x
130 y,1/2-z,1/2+x
131 -y,1/2+z,1/2+x
132 y,1/2+z,1/2-x
133 -y,1/2-x,1/2+z
134 y,1/2+x,1/2+z
135 -y,1/2+x,1/2-z
136 y,1/2-x,1/2-z
137 -x,1/2-z,1/2+y
138 x,1/2-z,1/2-y
139 x,1/2+z,1/2+y
140 -x,1/2+z,1/2-y
141 -z,1/2-y,1/2+x
142 -z,1/2+y,1/2-x
143 z,1/2-y,1/2-x
144 z,1/2+y,1/2+x
145 1/2-x,-y,1/2-z
146 1/2+x,y,1/2-z
147 1/2+x,-y,1/2+z
148 1/2-x,y,1/2+z
149 1/2-z,-x,1/2-y
150 1/2-z,x,1/2+y
151 1/2+z,x,1/2-y
152 1/2+z,-x,1/2+y
153 1/2-y,-z,1/2-x
154 1/2+y,-z,1/2+x
155 1/2-y,z,1/2+x
156 1/2+y,z,1/2-x
157 1/2-y,-x,1/2+z
158 1/2+y,x,1/2+z
159 1/2-y,x,1/2-z
160 1/2+y,-x,1/2-z
161 1/2-x,-z,1/2+y
162 1/2+x,-z,1/2-y
163 1/2+x,z,1/2+y
164 1/2-x,z,1/2-y
165 1/2-z,-y,1/2+x
166 1/2-z,y,1/2-x
167 1/2+z,-y,1/2-x
168 1/2+z,y,1/2+x
169 1/2-x,1/2-y,-z
170 1/2+x,1/2+y,-z
171 1/2+x,1/2-y,z
172 1/2-x,1/2+y,z
173 1/2-z,1/2-x,-y
174 1/2-z,1/2+x,y
175 1/2+z,1/2+x,-y
176 1/2+z,1/2-x,y
177 1/2-y,1/2-z,-x
178 1/2+y,1/2-z,x
179 1/2-y,1/2+z,x
180 1/2+y,1/2+z,-x
181 1/2-y,1/2-x,z
182 1/2+y,1/2+x,z
183 1/2-y,1/2+x,-z
184 1/2+y,1/2-x,-z
185 1/2-x,1/2-z,y
186 1/2+x,1/2-z,-y
187 1/2+x,1/2+z,y
188 1/2-x,1/2+z,-y
189 1/2-z,1/2-y,x
190 1/2-z,1/2+y,-x
191 1/2+z,1/2-y,-x
192 1/2+z,1/2+y,x
_cell_length_a                   38.758(2)
_cell_length_b                   38.758(2)
_cell_length_c                   38.758(2)
_cell_angle_alpha                90
_cell_angle_beta                 90
_cell_angle_gamma                90
_cell_volume                     58221.6
loop_
_atom_site_label
_atom_site_type_symbol
_atom_site_fract_x
_atom_site_fract_y
_atom_site_fract_z
C1 C 0.5000 0.1861(4) 0.1861(4)
C2 C 0.5320(6) 0.1973(5) 0.1973(5)
C3 C 0.5658(7) 0.1794(5) 0.1794(5)
H1 H 0.5680 0.1625 0.1625
C4 C 0.6003(10) 0.2055(6) 0.2055(6)
H2 H 0.6242 0.2060 0.2060
C5 C 0.5673(8) 0.2278(5) 0.2278(5)
N1 N 0.5329(6) 0.2223(4) 0.2223(4)
C6 C 0.5850(11) 0.2500 0.2500
C7 C 0.6250(8) 0.2500 0.2500
C8 C 0.6463(16) 0.238(2) 0.2757(14)
C9 C 0.6808(14) 0.248(3) 0.2768(18)
C10 C 0.6938(7) 0.270(2) 0.252(3)
C11 C 0.6724(14) 0.282(3) 0.226(3)
C12 C 0.6380(12) 0.273(2) 0.225(2)
Zr1 Zr 0.5000 0.0000 0.064049(17)
O1 O 0.5000 0.04917(12) 0.09281(11)
C13 C 0.5000 0.1435(4) 0.0982(4)
H3 H 0.5000 0.1507 0.0754
C14 C 0.5000 0.1670(4) 0.1280(4)
H4 H 0.5000 0.1904 0.1227
C15 C 0.5000 0.08222(16) 0.08222(16)
C16 C 0.5000 0.1086(2) 0.1086(2)
C17 C 0.5000 0.1599(3) 0.1599(3)
O2 O 0.53140(15) 0.03140(15) 0.03140(15)
Zn1 Zn 0.5000 0.2500 0.2500
C2Q C 0.4680(6) 0.1973(5) 0.1973(5)
C3Q C 0.4342(7) 0.1794(5) 0.1794(5)
H1Q H 0.4320 0.1625 0.1625
C4Q C 0.3997(10) 0.2055(6) 0.2055(6)
H2Q H 0.3758 0.2060 0.2060
C5Q C 0.4327(8) 0.2278(5) 0.2278(5)
N1Q N 0.4671(6) 0.2223(4) 0.2223(4)
C6Q C 0.4150(11) 0.2500 0.2500
C7Q C 0.3750(8) 0.2500 0.2500
C8Q C 0.3537(16) 0.2757(14) 0.238(2)
C9Q C 0.3192(14) 0.2768(18) 0.248(3)
C10Q C 0.3062(7) 0.252(3) 0.270(2)
C11Q C 0.3276(14) 0.226(3) 0.282(3)
C12Q C 0.3620(12) 0.225(2) 0.273(2)
O1Q O 0.5000 0.09281(11) 0.04917(12)
C13Q C 0.5000 0.0982(4) 0.1435(4)
H3Q H 0.5000 0.0754 0.1507
C14Q C 0.5000 0.1280(4) 0.1670(4)
H4Q H 0.5000 0.1227 0.1904
C1AA C 0.5000 0.3139(4) 0.3139(4)
C2AA C 0.5320(6) 0.3027(5) 0.3027(5)
C3AA C 0.5658(7) 0.3206(5) 0.3206(5)
H1AA H 0.5680 0.3375 0.3375
C4AA C 0.6003(10) 0.2945(6) 0.2945(6)
H2AA H 0.6242 0.2940 0.2940
C5AA C 0.5673(8) 0.2722(5) 0.2722(5)
N1AA N 0.5329(6) 0.2777(4) 0.2777(4)
C8AA C 0.6463(16) 0.262(2) 0.2243(14)
C9AA C 0.6808(14) 0.252(3) 0.2232(18)
C10AA C 0.6938(7) 0.230(2) 0.248(3)
C11AA C 0.6724(14) 0.218(3) 0.274(3)
C12AA C 0.6380(12) 0.227(2) 0.275(2)
O1AA O 0.5000 0.45083(12) 0.40719(11)
C13AA C 0.5000 0.3565(4) 0.4018(4)
H3AA H 0.5000 0.3493 0.4246
C14AA C 0.5000 0.3330(4) 0.3720(4)
H4AA H 0.5000 0.3096 0.3773
C15AA C 0.5000 0.41778(16) 0.41778(16)
C16AA C 0.5000 0.3914(2) 0.3914(2)
C17AA C 0.5000 0.3401(3) 0.3401(3)
C2PA C 0.4680(6) 0.3027(5) 0.3027(5)
C3PA C 0.4342(7) 0.3206(5) 0.3206(5)
H1PA H 0.4320 0.3375 0.3375
C4PA C 0.3997(10) 0.2945(6) 0.2945(6)
H2PA H 0.3758 0.2940 0.2940
C5PA C 0.4327(8) 0.2722(5) 0.2722(5)
N1PA N 0.4671(6) 0.2777(4) 0.2777(4)
C8PA C 0.3537(16) 0.2243(14) 0.262(2)
C9PA C 0.3192(14) 0.2232(18) 0.252(3)
C10PA C 0.3062(7) 0.248(3) 0.230(2)
C11PA C 0.3276(14) 0.274(3) 0.218(3)
C12PA C 0.3620(12) 0.275(2) 0.227(2)
O1PA O 0.5000 0.40719(11) 0.45083(12)
C13PA C 0.5000 0.4018(4) 0.3565(4)
H3PA H 0.5000 0.4246 0.3493
C14PA C 0.5000 0.3720(4) 0.3330(4)
H4PA H 0.5000 0.3773 0.3096
C8UC C 0.3537(16) 0.238(2) 0.2757(14)
C9UC C 0.3192(14) 0.248(3) 0.2768(18)
C10UC C 0.3062(7) 0.270(2) 0.252(3)
C11UC C 0.3276(14) 0.282(3) 0.226(3)
C12UC C 0.3620(12) 0.273(2) 0.225(2)
C8JD C 0.6463(16) 0.2757(14) 0.238(2)
C9JD C 0.6808(14) 0.2768(18) 0.248(3)
C10JD C 0.6938(7) 0.252(3) 0.270(2)
C11JD C 0.6724(14) 0.226(3) 0.282(3)
C12JD C 0.6380(12) 0.225(2) 0.273(2)
C8PD C 0.3537(16) 0.262(2) 0.2243(14)
C9PD C 0.3192(14) 0.252(3) 0.2232(18)
C10PD C 0.3062(7) 0.230(2) 0.248(3)
C11PD C 0.3276(14) 0.218(3) 0.274(3)
C12PD C 0.3620(12) 0.227(2) 0.275(2)
C8GE C 0.6463(16) 0.2243(14) 0.262(2)
C9GE C 0.6808(14) 0.2232(18) 0.252(3)
C10GE C 0.6938(7) 0.248(3) 0.230(2)
C11GE C 0.6724(14) 0.274(3) 0.218(3)
C12GE C 0.6380(12) 0.275(2) 0.227(2)
C1A C 0.5000 -0.1861(4) 0.1861(4)
C2A C 0.4680(6) -0.1973(5) 0.1973(5)
C3A C 0.4342(7) -0.1794(5) 0.1794(5)
H1A H 0.4320 -0.1625 0.1625
C4A C 0.3997(10) -0.2055(6) 0.2055(6)
H2A H 0.3758 -0.2060 0.2060
C5A C 0.4327(8) -0.2278(5) 0.2278(5)
N1A N 0.4671(6) -0.2223(4) 0.2223(4)
C6A C 0.4150(11) -0.2500 0.2500
C7A C 0.3750(8) -0.2500 0.2500
C8A C 0.3537(16) -0.238(2) 0.2757(14)
C9A C 0.3192(14) -0.248(3) 0.2768(18)
C10A C 0.3062(7) -0.270(2) 0.252(3)
C11A C 0.3276(14) -0.282(3) 0.226(3)
C12A C 0.3620(12) -0.273(2) 0.225(2)
O1A O 0.5000 -0.04917(12) 0.09281(11)
C13A C 0.5000 -0.1435(4) 0.0982(4)
H3A H 0.5000 -0.1507 0.0754
C14A C 0.5000 -0.1670(4) 0.1280(4)
H4A H 0.5000 -0.1904 0.1227
C15A C 0.5000 -0.08222(16) 0.08222(16)
C16A C 0.5000 -0.1086(2) 0.1086(2)
C17A C 0.5000 -0.1599(3) 0.1599(3)
O2A O 0.46860(15) -0.03140(15) 0.03140(15)
Zn1A Zn 0.5000 -0.2500 0.2500
C2S C 0.5320(6) -0.1973(5) 0.1973(5)
C3S C 0.5658(7) -0.1794(5) 0.1794(5)
H1S H 0.5680 -0.1625 0.1625
C4S C 0.6003(10) -0.2055(6) 0.2055(6)
H2S H 0.6242 -0.2060 0.2060
C5S C 0.5673(8) -0.2278(5) 0.2278(5)
N1S N 0.5329(6) -0.2223(4) 0.2223(4)
C6S C 0.5850(11) -0.2500 0.2500
C7S C 0.6250(8) -0.2500 0.2500
C8S C 0.6463(16) -0.2757(14) 0.238(2)
C9S C 0.6808(14) -0.2768(18) 0.248(3)
C10S C 0.6938(7) -0.252(3) 0.270(2)
C11S C 0.6724(14) -0.226(3) 0.282(3)
C12S C 0.6380(12) -0.225(2) 0.273(2)
O1S O 0.5000 -0.09281(11) 0.04917(12)
C13S C 0.5000 -0.0982(4) 0.1435(4)
H3S H 0.5000 -0.0754 0.1507
C14S C 0.5000 -0.1280(4) 0.1670(4)
H4S H 0.5000 -0.1227 0.1904
C1Z C 0.5000 -0.3139(4) 0.3139(4)
C2Z C 0.4680(6) -0.3027(5) 0.3027(5)
C3Z C 0.4342(7) -0.3206(5) 0.3206(5)
H1Z H 0.4320 -0.3375 0.3375
C4Z C 0.3997(10) -0.2945(6) 0.2945(6)
H2Z H 0.3758 -0.2940 0.2940
C5Z C 0.4327(8) -0.2722(5) 0.2722(5)
N1Z N 0.4671(6) -0.2777(4) 0.2777(4)
C8Z C 0.3537(16) -0.262(2) 0.2243(14)
C9Z C 0.3192(14) -0.252(3) 0.2232(18)
C10Z C 0.3062(7) -0.230(2) 0.248(3)
C11Z C 0.3276(14) -0.218(3) 0.274(3)
C12Z C 0.3620(12) -0.227(2) 0.275(2)
O1Z O 0.5000 -0.45083(12) 0.40719(11)
C13Z C 0.5000 -0.3565(4) 0.4018(4)
H3Z H 0.5000 -0.3493 0.4246
C14Z C 0.5000 -0.3330(4) 0.3720(4)
H4Z H 0.5000 -0.3096 0.3773
C15Z C 0.5000 -0.41778(16) 0.41778(16)
C16Z C 0.5000 -0.3914(2) 0.3914(2)
C17Z C 0.5000 -0.3401(3) 0.3401(3)
C2NA C 0.5320(6) -0.3027(5) 0.3027(5)
C3NA C 0.5658(7) -0.3206(5) 0.3206(5)
H1NA H 0.5680 -0.3375 0.3375
C4NA C 0.6003(10) -0.2945(6) 0.2945(6)
H2NA H 0.6242 -0.2940 0.2940
C5NA C 0.5673(8) -0.2722(5) 0.2722(5)
N1NA N 0.5329(6) -0.2777(4) 0.2777(4)
C8NA C 0.6463(16) -0.2243(14) 0.262(2)
C9NA C 0.6808(14) -0.2232(18) 0.252(3)
C10NA C 0.6938(7) -0.248(3) 0.230(2)
C11NA C 0.6724(14) -0.274(3) 0.218(3)
C12NA C 0.6380(12) -0.275(2) 0.227(2)
O1NA O 0.5000 -0.40719(11) 0.45083(12)
C13NA C 0.5000 -0.4018(4) 0.3565(4)
H3NA H 0.5000 -0.4246 0.3493
C14NA C 0.5000 -0.3720(4) 0.3330(4)
H4NA H 0.5000 -0.3773 0.3096
C8TC C 0.6463(16) -0.238(2) 0.2757(14)
C9TC C 0.6808(14) -0.248(3) 0.2768(18)
C10TC C 0.6938(7) -0.270(2) 0.252(3)
C11TC C 0.6724(14) -0.282(3) 0.226(3)
C12TC C 0.6380(12) -0.273(2) 0.225(2)
C8HD C 0.3537(16) -0.2757(14) 0.238(2)
C9HD C 0.3192(14) -0.2768(18) 0.248(3)
C10HD C 0.3062(7) -0.252(3) 0.270(2)
C11HD C 0.3276(14) -0.226(3) 0.282(3)
C12HD C 0.3620(12) -0.225(2) 0.273(2)
C8QD C 0.6463(16) -0.262(2) 0.2243(14)
C9QD C 0.6808(14) -0.252(3) 0.2232(18)
C10QD C 0.6938(7) -0.230(2) 0.248(3)
C11QD C 0.6724(14) -0.218(3) 0.274(3)
C12QD C 0.6380(12) -0.227(2) 0.275(2)
C8IE C 0.3537(16) -0.2243(14) 0.262(2)
C9IE C 0.3192(14) -0.2232(18) 0.252(3)
C10IE C 0.3062(7) -0.248(3) 0.230(2)
C11IE C 0.3276(14) -0.274(3) 0.218(3)
C12IE C 0.3620(12) -0.275(2) 0.227(2)
C1B C 0.5000 0.1861(4) -0.1861(4)
C2P C 0.5320(6) 0.1973(5) -0.1973(5)
C3P C 0.5658(7) 0.1794(5) -0.1794(5)
H1P H 0.5680 0.1625 -0.1625
C4P C 0.6003(10) 0.2055(6) -0.2055(6)
H2P H 0.6242 0.2060 -0.2060
C5P C 0.5673(8) 0.2278(5) -0.2278(5)
N1P N 0.5329(6) 0.2223(4) -0.2223(4)
C6P C 0.5850(11) 0.2500 -0.2500
C7P C 0.6250(8) 0.2500 -0.2500
C8P C 0.6463(16) 0.2757(14) -0.238(2)
C9P C 0.6808(14) 0.2768(18) -0.248(3)
C10P C 0.6938(7) 0.252(3) -0.270(2)
C11P C 0.6724(14) 0.226(3) -0.282(3)
C12P C 0.6380(12) 0.225(2) -0.273(2)
Zr1P Zr 0.5000 0.064049(17) 0.0000
O1P O 0.5000 0.09281(11) -0.04917(12)
C13P C 0.5000 0.0982(4) -0.1435(4)
H3P H 0.5000 0.0754 -0.1507
C14P C 0.5000 0.1280(4) -0.1670(4)
H4P H 0.5000 0.1227 -0.1904
C15B C 0.5000 0.08222(16) -0.08222(16)
C16B C 0.5000 0.1086(2) -0.1086(2)
C17B C 0.5000 0.1599(3) -0.1599(3)
O2P O 0.53140(15) 0.03140(15) -0.03140(15)
Zn1B Zn 0.5000 0.2500 -0.2500
C2B C 0.4680(6) 0.1973(5) -0.1973(5)
C3B C 0.4342(7) 0.1794(5) -0.1794(5)
H1B H 0.4320 0.1625 -0.1625
C4B C 0.3997(10) 0.2055(6) -0.2055(6)
H2B H 0.3758 0.2060 -0.2060
C5B C 0.4327(8) 0.2278(5) -0.2278(5)
N1B N 0.4671(6) 0.2223(4) -0.2223(4)
C6B C 0.4150(11) 0.2500 -0.2500
C7B C 0.3750(8) 0.2500 -0.2500
C8B C 0.3537(16) 0.238(2) -0.2757(14)
C9B C 0.3192(14) 0.248(3) -0.2768(18)
C10B C 0.3062(7) 0.270(2) -0.252(3)
C11B C 0.3276(14) 0.282(3) -0.226(3)
C12B C 0.3620(12) 0.273(2) -0.225(2)
O1B O 0.5000 0.04917(12) -0.09281(11)
C13B C 0.5000 0.1435(4) -0.0982(4)
H3B H 0.5000 0.1507 -0.0754
C14B C 0.5000 0.1670(4) -0.1280(4)
H4B H 0.5000 0.1904 -0.1227
C1Y C 0.5000 0.3139(4) -0.3139(4)
C2QA C 0.5320(6) 0.3027(5) -0.3027(5)
C3QA C 0.5658(7) 0.3206(5) -0.3206(5)
H1QA H 0.5680 0.3375 -0.3375
C4QA C 0.6003(10) 0.2945(6) -0.2945(6)
H2QA H 0.6242 0.2940 -0.2940
C5QA C 0.5673(8) 0.2722(5) -0.2722(5)
N1QA N 0.5329(6) 0.2777(4) -0.2777(4)
C8QA C 0.6463(16) 0.2243(14) -0.262(2)
C9QA C 0.6808(14) 0.2232(18) -0.252(3)
C10QA C 0.6938(7) 0.248(3) -0.230(2)
C11QA C 0.6724(14) 0.274(3) -0.218(3)
C12QA C 0.6380(12) 0.275(2) -0.227(2)
O1QA O 0.5000 0.40719(11) -0.45083(12)
C13QA C 0.5000 0.4018(4) -0.3565(4)
H3QA H 0.5000 0.4246 -0.3493
C14QA C 0.5000 0.3720(4) -0.3330(4)
H4QA H 0.5000 0.3773 -0.3096
C15Y C 0.5000 0.41778(16) -0.41778(16)
C16Y C 0.5000 0.3914(2) -0.3914(2)
C17Y C 0.5000 0.3401(3) -0.3401(3)
C2Y C 0.4680(6) 0.3027(5) -0.3027(5)
C3Y C 0.4342(7) 0.3206(5) -0.3206(5)
H1Y H 0.4320 0.3375 -0.3375
C4Y C 0.3997(10) 0.2945(6) -0.2945(6)
H2Y H 0.3758 0.2940 -0.2940
C5Y C 0.4327(8) 0.2722(5) -0.2722(5)
N1Y N 0.4671(6) 0.2777(4) -0.2777(4)
C8Y C 0.3537(16) 0.262(2) -0.2243(14)
C9Y C 0.3192(14) 0.252(3) -0.2232(18)
C10Y C 0.3062(7) 0.230(2) -0.248(3)
C11Y C 0.3276(14) 0.218(3) -0.274(3)
C12Y C 0.3620(12) 0.227(2) -0.275(2)
O1Y O 0.5000 0.45083(12) -0.40719(11)
C13Y C 0.5000 0.3565(4) -0.4018(4)
H3Y H 0.5000 0.3493 -0.4246
C14Y C 0.5000 0.3330(4) -0.3720(4)
H4Y H 0.5000 0.3096 -0.3773
C8KD C 0.3537(16) 0.2757(14) -0.238(2)
C9KD C 0.3192(14) 0.2768(18) -0.248(3)
C10KD C 0.3062(7) 0.252(3) -0.270(2)
C11KD C 0.3276(14) 0.226(3) -0.282(3)
C12KD C 0.3620(12) 0.225(2) -0.273(2)
C8SC C 0.6463(16) 0.238(2) -0.2757(14)
C9SC C 0.6808(14) 0.248(3) -0.2768(18)
C10SC C 0.6938(7) 0.270(2) -0.252(3)
C11SC C 0.6724(14) 0.282(3) -0.226(3)
C12SC C 0.6380(12) 0.273(2) -0.225(2)
C8FE C 0.3537(16) 0.2243(14) -0.262(2)
C9FE C 0.3192(14) 0.2232(18) -0.252(3)
C10FE C 0.3062(7) 0.248(3) -0.230(2)
C11FE C 0.3276(14) 0.274(3) -0.218(3)
C12FE C 0.3620(12) 0.275(2) -0.227(2)
C8RD C 0.6463(16) 0.262(2) -0.2243(14)
C9RD C 0.6808(14) 0.252(3) -0.2232(18)
C10RD C 0.6938(7) 0.230(2) -0.248(3)
C11RD C 0.6724(14) 0.218(3) -0.274(3)
C12RD C 0.6380(12) 0.227(2) -0.275(2)
O2Q O 0.46860(15) 0.03140(15) 0.03140(15)
Zr1R Zr 0.5000 -0.064049(17) 0.0000
Zr1B Zr 0.5000 0.0000 -0.064049(17)
Zr1X Zr 0.5000 0.5000 -0.435951(17)
Zr1Z Zr 0.5000 -0.5000 0.435951(17)
Zr1Z_2 Zr 0.5000 0.5000 0.435951(17)
Zr1NA Zr 0.5000 -0.435951(17) 0.5000
Zr1PA Zr 0.5000 0.435951(17) -0.5000
Zr1PA_2 Zr 0.5000 0.435951(17) 0.5000
Zr1PB Zr 0.564049(17) 0.0000 0.0000
Zr1RB Zr 0.435951(17) 0.0000 0.0000
O1R O 0.5000 -0.09281(11) -0.04917(12)
O1DB O 0.54917(12) 0.09281(11) 0.0000
O1EB O 0.45083(12) 0.09281(11) 0.0000
O1FB O 0.54917(12) -0.09281(11) 0.0000
O1GB O 0.45083(12) -0.09281(11) 0.0000
O1HC O 0.54917(12) -0.0000 0.09281(11)
O1IC O 0.45083(12) -0.0000 0.09281(11)
O2B O 0.46860(15) 0.03140(15) -0.03140(15)
O2C O 0.53140(15) -0.03140(15) -0.03140(15)
O2R O 0.46860(15) -0.03140(15) -0.03140(15)
O2S O 0.53140(15) -0.03140(15) 0.03140(15)
loop_
_geom_bond_atom_site_label_1
_geom_bond_atom_site_label_2
_geom_bond_site_symmetry_1
_geom_bond_site_symmetry_2
C1 C2 1_555 1_555
C2 C3 1_555 1_555
C3 H1 1_555 1_555
C4 C3 1_555 1_555
H2 C4 1_555 1_555
C5 C4 1_555 1_555
N1 C2 1_555 1_555
C6 C5 1_555 1_555
C7 C6 1_555 1_555
C8 C7 1_555 1_555
C9 C11AA 1_555 1_555
C10 C11 1_555 1_555
C11 C12 1_555 1_555
C12 C7 1_555 1_555
Zr1 O1 1_555 1_555
O1 C15 1_555 1_555
C13 H3 1_555 1_555
C14 C13 1_555 1_555
H4 C14 1_555 1_555
C15 C16 1_555 1_555
C16 C13 1_555 1_555
C17 C1 1_555 1_555
O2 Zr1 1_555 1_555
Zn1 N1 1_555 1_555
C2Q C1 1_555 1_555
C3Q C2Q 1_555 1_555
H1Q C3Q 1_555 1_555
C4Q C3Q 1_555 1_555
H2Q C4Q 1_555 1_555
C5Q C4Q 1_555 1_555
N1Q Zn1 1_555 1_555
C6Q C5Q 1_555 1_555
C7Q C6Q 1_555 1_555
C8Q C7Q 1_555 1_555
C9Q C11PA 1_555 1_555
C10Q C11Q 1_555 1_555
C11Q C12Q 1_555 1_555
C12Q C7Q 1_555 1_555
O1Q C15 1_555 1_555
C13Q C16 1_555 1_555
H3Q C13Q 1_555 1_555
C14Q C17 1_555 1_555
H4Q C14Q 1_555 1_555
C1AA C2AA 1_555 1_555
C2AA C3AA 1_555 1_555
C3AA H1AA 1_555 1_555
C4AA C3AA 1_555 1_555
H2AA C4AA 1_555 1_555
C5AA C6 1_555 1_555
N1AA Zn1 1_555 1_555
C8AA C7 1_555 1_555
C9AA C11 1_555 1_555
C10AA C11AA 1_555 1_555
C11AA C8 1_555 1_555
C12AA C7 1_555 1_555
O1AA C15AA 1_555 1_555
C13AA H3AA 1_555 1_555
C14AA C13AA 1_555 1_555
H4AA C14AA 1_555 1_555
C15AA C16AA 1_555 1_555
C16AA C13AA 1_555 1_555
C17AA C1AA 1_555 1_555
C2PA C1AA 1_555 1_555
C3PA C2PA 1_555 1_555
H1PA C3PA 1_555 1_555
C4PA C3PA 1_555 1_555
H2PA C4PA 1_555 1_555
C5PA C6Q 1_555 1_555
N1PA Zn1 1_555 1_555
C8PA C7Q 1_555 1_555
C9PA C11Q 1_555 1_555
C10PA C11PA 1_555 1_555
C11PA C8Q 1_555 1_555
C12PA C7Q 1_555 1_555
O1PA C15AA 1_555 1_555
C13PA C16AA 1_555 1_555
H3PA C13PA 1_555 1_555
C14PA C17AA 1_555 1_555
H4PA C14PA 1_555 1_555
C8UC C7Q 1_555 1_555
C9UC C9Q 1_555 1_555
C10UC C11PA 1_555 1_555
C11UC C8Q 1_555 1_555
C12UC C7Q 1_555 1_555
C8JD C7 1_555 1_555
C9JD C9 1_555 1_555
C10JD C11AA 1_555 1_555
C11JD C8 1_555 1_555
C12JD C7 1_555 1_555
C8PD C7Q 1_555 1_555
C9PD C9Q 1_555 1_555
C10PD C11Q 1_555 1_555
C11PD C10Q 1_555 1_555
C12PD C7Q 1_555 1_555
C8GE C7 1_555 1_555
C9GE C9 1_555 1_555
C10GE C11 1_555 1_555
C11GE C10 1_555 1_555
C12GE C7 1_555 1_555
C1A C2A 1_555 1_555
C2A C3A 1_555 1_555
C3A H1A 1_555 1_555
C4A C3A 1_555 1_555
H2A C4A 1_555 1_555
C5A C4A 1_555 1_555
N1A C2A 1_555 1_555
C6A C5A 1_555 1_555
C7A C6A 1_555 1_555
C8A C7A 1_555 1_555
C9A C11Z 1_555 1_555
C10A C11A 1_555 1_555
C11A C12A 1_555 1_555
C12A C7A 1_555 1_555
O1A Zr1 1_555 1_555
C13A H3A 1_555 1_555
C14A C13A 1_555 1_555
H4A C14A 1_555 1_555
C15A O1A 1_555 1_555
C16A C13A 1_555 1_555
C17A C1A 1_555 1_555
O2A Zr1 1_555 1_555
Zn1A N1A 1_555 1_555
C2S C1A 1_555 1_555
C3S C2S 1_555 1_555
H1S C3S 1_555 1_555
C4S C3S 1_555 1_555
H2S C4S 1_555 1_555
C5S C4S 1_555 1_555
N1S Zn1A 1_555 1_555
C6S C5S 1_555 1_555
C7S C6S 1_555 1_555
C8S C7S 1_555 1_555
C9S C11NA 1_555 1_555
C10S C11S 1_555 1_555
C11S C12S 1_555 1_555
C12S C7S 1_555 1_555
O1S C15A 1_555 1_555
C13S C16A 1_555 1_555
H3S C13S 1_555 1_555
C14S C17A 1_555 1_555
H4S C14S 1_555 1_555
C1Z C2Z 1_555 1_555
C2Z C3Z 1_555 1_555
C3Z H1Z 1_555 1_555
C4Z C3Z 1_555 1_555
H2Z C4Z 1_555 1_555
C5Z C6A 1_555 1_555
N1Z Zn1A 1_555 1_555
C8Z C7A 1_555 1_555
C9Z C11A 1_555 1_555
C10Z C11Z 1_555 1_555
C11Z C8A 1_555 1_555
C12Z C7A 1_555 1_555
O1Z C15Z 1_555 1_555
C13Z H3Z 1_555 1_555
C14Z C13Z 1_555 1_555
H4Z C14Z 1_555 1_555
C15Z C16Z 1_555 1_555
C16Z C13Z 1_555 1_555
C17Z C1Z 1_555 1_555
C2NA C1Z 1_555 1_555
C3NA C2NA 1_555 1_555
H1NA C3NA 1_555 1_555
C4NA C3NA 1_555 1_555
H2NA C4NA 1_555 1_555
C5NA C6S 1_555 1_555
N1NA Zn1A 1_555 1_555
C8NA C7S 1_555 1_555
C9NA C11S 1_555 1_555
C10NA C11NA 1_555 1_555
C11NA C8S 1_555 1_555
C12NA C7S 1_555 1_555
O1NA C15Z 1_555 1_555
C13NA C16Z 1_555 1_555
H3NA C13NA 1_555 1_555
C14NA C17Z 1_555 1_555
H4NA C14NA 1_555 1_555
C8TC C7S 1_555 1_555
C9TC C9S 1_555 1_555
C10TC C11NA 1_555 1_555
C11TC C8S 1_555 1_555
C12TC C7S 1_555 1_555
C8HD C7A 1_555 1_555
C9HD C9A 1_555 1_555
C10HD C11Z 1_555 1_555
C11HD C8A 1_555 1_555
C12HD C7A 1_555 1_555
C8QD C7S 1_555 1_555
C9QD C9S 1_555 1_555
C10QD C11S 1_555 1_555
C11QD C10S 1_555 1_555
C12QD C7S 1_555 1_555
C8IE C7A 1_555 1_555
C9IE C9A 1_555 1_555
C10IE C11A 1_555 1_555
C11IE C10A 1_555 1_555
C12IE C7A 1_555 1_555
C1B C2P 1_555 1_555
C2P C3P 1_555 1_555
C3P H1P 1_555 1_555
C4P C3P 1_555 1_555
H2P C4P 1_555 1_555
C5P C4P 1_555 1_555
N1P C2P 1_555 1_555
C6P C5P 1_555 1_555
C7P C6P 1_555 1_555
C8P C7P 1_555 1_555
C9P C11QA 1_555 1_555
C10P C11P 1_555 1_555
C11P C12P 1_555 1_555
C12P C7P 1_555 1_555
Zr1P O2 1_555 1_555
O1P Zr1P 1_555 1_555
C13P H3P 1_555 1_555
C14P C13P 1_555 1_555
H4P C14P 1_555 1_555
C15B O1P 1_555 1_555
C16B C13P 1_555 1_555
C17B C1B 1_555 1_555
O2P Zr1P 1_555 1_555
Zn1B N1P 1_555 1_555
C2B C1B 1_555 1_555
C3B C2B 1_555 1_555
H1B C3B 1_555 1_555
C4B C3B 1_555 1_555
H2B C4B 1_555 1_555
C5B C4B 1_555 1_555
N1B Zn1B 1_555 1_555
C6B C5B 1_555 1_555
C7B C6B 1_555 1_555
C8B C7B 1_555 1_555
C9B C11Y 1_555 1_555
C10B C11B 1_555 1_555
C11B C12B 1_555 1_555
C12B C7B 1_555 1_555
O1B C15B 1_555 1_555
C13B C16B 1_555 1_555
H3B C13B 1_555 1_555
C14B C17B 1_555 1_555
H4B C14B 1_555 1_555
C1Y C2QA 1_555 1_555
C2QA C3QA 1_555 1_555
C3QA H1QA 1_555 1_555
C4QA C3QA 1_555 1_555
H2QA C4QA 1_555 1_555
C5QA C6P 1_555 1_555
N1QA Zn1B 1_555 1_555
C8QA C7P 1_555 1_555
C9QA C11P 1_555 1_555
C10QA C11QA 1_555 1_555
C11QA C8P 1_555 1_555
C12QA C7P 1_555 1_555
O1QA C15Y 1_555 1_555
C13QA H3QA 1_555 1_555
C14QA C13QA 1_555 1_555
H4QA C14QA 1_555 1_555
C15Y C16Y 1_555 1_555
C16Y C13QA 1_555 1_555
C17Y C1Y 1_555 1_555
C2Y C1Y 1_555 1_555
C3Y C2Y 1_555 1_555
H1Y C3Y 1_555 1_555
C4Y C3Y 1_555 1_555
H2Y C4Y 1_555 1_555
C5Y C6B 1_555 1_555
N1Y Zn1B 1_555 1_555
C8Y C7B 1_555 1_555
C9Y C11B 1_555 1_555
C10Y C11Y 1_555 1_555
C11Y C8B 1_555 1_555
C12Y C7B 1_555 1_555
O1Y C15Y 1_555 1_555
C13Y C16Y 1_555 1_555
H3Y C13Y 1_555 1_555
C14Y C17Y 1_555 1_555
H4Y C14Y 1_555 1_555
C8KD C7B 1_555 1_555
C9KD C9B 1_555 1_555
C10KD C11Y 1_555 1_555
C11KD C8B 1_555 1_555
C12KD C7B 1_555 1_555
C8SC C7P 1_555 1_555
C9SC C9P 1_555 1_555
C10SC C11QA 1_555 1_555
C11SC C8P 1_555 1_555
C12SC C7P 1_555 1_555
C8FE C7B 1_555 1_555
C9FE C9B 1_555 1_555
C10FE C11B 1_555 1_555
C11FE C10B 1_555 1_555
C12FE C7B 1_555 1_555
C8RD C7P 1_555 1_555
C9RD C9P 1_555 1_555
C10RD C11P 1_555 1_555
C11RD C10P 1_555 1_555
C12RD C7P 1_555 1_555
O2Q Zr1 1_555 1_555
Zr1R O2A 1_555 1_555
Zr1B O2P 1_555 1_555
Zr1X O1Y 1_555 1_555
Zr1Z O1Z 1_555 1_555
Zr1Z_2 O1AA 1_555 1_555
Zr1NA O1NA 1_555 1_555
Zr1PA O1QA 1_555 1_555
Zr1PA_2 O1PA 1_555 1_555
Zr1PB O2 1_555 1_555
Zr1RB O2A 1_555 1_555
O1R Zr1R 1_555 1_555
O1DB Zr1P 1_555 1_555
O1EB Zr1P 1_555 1_555
O1FB Zr1R 1_555 1_555
O1GB Zr1R 1_555 1_555
O1HC Zr1 1_555 1_555
O1IC Zr1 1_555 1_555
O2B Zr1P 1_555 1_555
O2C Zr1R 1_555 1_555
O2R Zr1R 1_555 1_555
O2S Zr1 1_555 1_555
C5 N1 1_555 1_555
C8 C12JD 1_555 1_555
C8 C8GE 1_555 1_555
C9 C11JD 1_555 1_555
C11 C8AA 1_555 1_555
C11 C8JD 1_555 1_555
C11 C9JD 1_555 1_555
C11 C12GE 1_555 1_555
C12 C8JD 1_555 1_555
C12 C11GE 1_555 1_555
C14 C17 1_555 1_555
C2Q N1Q 1_555 1_555
C5Q N1Q 1_555 1_555
C8Q C12UC 1_555 1_555
C8Q C8PD 1_555 1_555
C9Q C11UC 1_555 1_555
C11Q C8PA 1_555 1_555
C11Q C8UC 1_555 1_555
C11Q C9UC 1_555 1_555
C11Q C12PD 1_555 1_555
C12Q C8UC 1_555 1_555
C12Q C11PD 1_555 1_555
O1Q Zr1P 1_555 1_555
C13Q C14Q 1_555 1_555
C2AA N1AA 1_555 1_555
C4AA C5AA 1_555 1_555
C5AA N1AA 1_555 1_555
C8AA C8JD 1_555 1_555
C8AA C11GE 1_555 1_555
C8AA C12GE 1_555 1_555
C9AA C9JD 1_555 1_555
C9AA C9GE 1_555 1_555
C9AA C11GE 1_555 1_555
C10AA C11JD 1_555 1_555
C11AA C12AA 1_555 1_555
C11AA C12JD 1_555 1_555
C11AA C8GE 1_555 1_555
C11AA C9GE 1_555 1_555
C12AA C11JD 1_555 1_555
C12AA C8GE 1_555 1_555
C14AA C17AA 1_555 1_555
C2PA N1PA 1_555 1_555
C4PA C5PA 1_555 1_555
C5PA N1PA 1_555 1_555
C8PA C8UC 1_555 1_555
C8PA C11PD 1_555 1_555
C8PA C12PD 1_555 1_555
C9PA C9UC 1_555 1_555
C9PA C9PD 1_555 1_555
C9PA C11PD 1_555 1_555
C10PA C11UC 1_555 1_555
C11PA C12PA 1_555 1_555
C11PA C12UC 1_555 1_555
C11PA C8PD 1_555 1_555
C11PA C9PD 1_555 1_555
C12PA C11UC 1_555 1_555
C12PA C8PD 1_555 1_555
C13PA C14PA 1_555 1_555
C8UC C11PD 1_555 1_555
C9UC C11PD 1_555 1_555
C10UC C11UC 1_555 1_555
C11UC C12UC 1_555 1_555
C11UC C8PD 1_555 1_555
C11UC C9PD 1_555 1_555
C8JD C11GE 1_555 1_555
C9JD C11GE 1_555 1_555
C10JD C11JD 1_555 1_555
C11JD C12JD 1_555 1_555
C11JD C8GE 1_555 1_555
C11JD C9GE 1_555 1_555
C10PD C11PD 1_555 1_555
C11PD C12PD 1_555 1_555
C10GE C11GE 1_555 1_555
C11GE C12GE 1_555 1_555
C5A N1A 1_555 1_555
C8A C12HD 1_555 1_555
C8A C8IE 1_555 1_555
C9A C11HD 1_555 1_555
C11A C8Z 1_555 1_555
C11A C8HD 1_555 1_555
C11A C9HD 1_555 1_555
C11A C12IE 1_555 1_555
C12A C8HD 1_555 1_555
C12A C11IE 1_555 1_555
C14A C17A 1_555 1_555
C15A C16A 1_555 1_555
C2S N1S 1_555 1_555
C5S N1S 1_555 1_555
C8S C12TC 1_555 1_555
C8S C8QD 1_555 1_555
C9S C11TC 1_555 1_555
C11S C8NA 1_555 1_555
C11S C8TC 1_555 1_555
C11S C9TC 1_555 1_555
C11S C12QD 1_555 1_555
C12S C8TC 1_555 1_555
C12S C11QD 1_555 1_555
O1S Zr1R 1_555 1_555
C13S C14S 1_555 1_555
C2Z N1Z 1_555 1_555
C4Z C5Z 1_555 1_555
C5Z N1Z 1_555 1_555
C8Z C8HD 1_555 1_555
C8Z C11IE 1_555 1_555
C8Z C12IE 1_555 1_555
C9Z C9HD 1_555 1_555
C9Z C9IE 1_555 1_555
C9Z C11IE 1_555 1_555
C10Z C11HD 1_555 1_555
C11Z C12Z 1_555 1_555
C11Z C12HD 1_555 1_555
C11Z C8IE 1_555 1_555
C11Z C9IE 1_555 1_555
C12Z C11HD 1_555 1_555
C12Z C8IE 1_555 1_555
C14Z C17Z 1_555 1_555
C2NA N1NA 1_555 1_555
C4NA C5NA 1_555 1_555
C5NA N1NA 1_555 1_555
C8NA C8TC 1_555 1_555
C8NA C11QD 1_555 1_555
C8NA C12QD 1_555 1_555
C9NA C9TC 1_555 1_555
C9NA C9QD 1_555 1_555
C9NA C11QD 1_555 1_555
C10NA C11TC 1_555 1_555
C11NA C12NA 1_555 1_555
C11NA C12TC 1_555 1_555
C11NA C8QD 1_555 1_555
C11NA C9QD 1_555 1_555
C12NA C11TC 1_555 1_555
C12NA C8QD 1_555 1_555
C13NA C14NA 1_555 1_555
C8TC C11QD 1_555 1_555
C9TC C11QD 1_555 1_555
C10TC C11TC 1_555 1_555
C11TC C12TC 1_555 1_555
C11TC C8QD 1_555 1_555
C11TC C9QD 1_555 1_555
C8HD C11IE 1_555 1_555
C9HD C11IE 1_555 1_555
C10HD C11HD 1_555 1_555
C11HD C12HD 1_555 1_555
C11HD C8IE 1_555 1_555
C11HD C9IE 1_555 1_555
C10QD C11QD 1_555 1_555
C11QD C12QD 1_555 1_555
C10IE C11IE 1_555 1_555
C11IE C12IE 1_555 1_555
C5P N1P 1_555 1_555
C8P C12SC 1_555 1_555
C8P C8RD 1_555 1_555
C9P C11SC 1_555 1_555
C11P C8QA 1_555 1_555
C11P C8SC 1_555 1_555
C11P C9SC 1_555 1_555
C11P C12RD 1_555 1_555
C12P C8SC 1_555 1_555
C12P C11RD 1_555 1_555
Zr1P O2Q 1_555 1_555
C14P C17B 1_555 1_555
C15B C16B 1_555 1_555
O2P Zr1PB 1_555 1_555
C2B N1B 1_555 1_555
C5B N1B 1_555 1_555
C8B C12KD 1_555 1_555
C8B C8FE 1_555 1_555
C9B C11KD 1_555 1_555
C11B C8Y 1_555 1_555
C11B C8KD 1_555 1_555
C11B C9KD 1_555 1_555
C11B C12FE 1_555 1_555
C12B C8KD 1_555 1_555
C12B C11FE 1_555 1_555
O1B Zr1B 1_555 1_555
C13B C14B 1_555 1_555
C2QA N1QA 1_555 1_555
C4QA C5QA 1_555 1_555
C5QA N1QA 1_555 1_555
C8QA C8SC 1_555 1_555
C8QA C11RD 1_555 1_555
C8QA C12RD 1_555 1_555
C9QA C9SC 1_555 1_555
C9QA C9RD 1_555 1_555
C9QA C11RD 1_555 1_555
C10QA C11SC 1_555 1_555
C11QA C12QA 1_555 1_555
C11QA C12SC 1_555 1_555
C11QA C8RD 1_555 1_555
C11QA C9RD 1_555 1_555
C12QA C11SC 1_555 1_555
C12QA C8RD 1_555 1_555
C14QA C17Y 1_555 1_555
C2Y N1Y 1_555 1_555
C4Y C5Y 1_555 1_555
C5Y N1Y 1_555 1_555
C8Y C8KD 1_555 1_555
C8Y C11FE 1_555 1_555
C8Y C12FE 1_555 1_555
C9Y C9KD 1_555 1_555
C9Y C9FE 1_555 1_555
C9Y C11FE 1_555 1_555
C10Y C11KD 1_555 1_555
C11Y C12Y 1_555 1_555
C11Y C12KD 1_555 1_555
C11Y C8FE 1_555 1_555
C11Y C9FE 1_555 1_555
C12Y C11KD 1_555 1_555
C12Y C8FE 1_555 1_555
C13Y C14Y 1_555 1_555
C8KD C11FE 1_555 1_555
C9KD C11FE 1_555 1_555
C10KD C11KD 1_555 1_555
C11KD C12KD 1_555 1_555
C11KD C8FE 1_555 1_555
C11KD C9FE 1_555 1_555
C8SC C11RD 1_555 1_555
C9SC C11RD 1_555 1_555
C10SC C11SC 1_555 1_555
C11SC C12SC 1_555 1_555
C11SC C8RD 1_555 1_555
C11SC C9RD 1_555 1_555
C10FE C11FE 1_555 1_555
C11FE C12FE 1_555 1_555
C10RD C11RD 1_555 1_555
C11RD C12RD 1_555 1_555
O2Q Zr1RB 1_555 1_555
Zr1R O2S 1_555 1_555
Zr1B O2B 1_555 1_555
Zr1B O2C 1_555 1_555
Zr1B O2R 1_555 1_555
Zr1PB O2C 1_555 1_555
Zr1PB O2S 1_555 1_555
Zr1RB O2B 1_555 1_555
Zr1RB O2R 1_555 1_555

#END
