
#######################################################################
#
#                 Cambridge Crystallographic Data Centre
#                                CCDC 
#
#######################################################################
#
# If this CIF has been generated from an entry in the Cambridge 
# Structural Database, then it will include bibliographic, chemical, 
# crystal, experimental, refinement or atomic coordinate data resulting 
# from the CCDC's data processing and validation procedures.
#
#######################################################################

data_PUWCIT
_chemical_formula_moiety         'C38 H38 O28 Zn6'
_symmetry_cell_setting           orthorhombic
_symmetry_space_group_name_H-M   'I m m a'
_symmetry_Int_Tables_number      74
_space_group_name_Hall           '-I 2b 2'
loop_
_symmetry_equiv_pos_site_id
_symmetry_equiv_pos_as_xyz
1 x,y,z
2 -x,1/2-y,z
3 x,-y,-z
4 -x,1/2+y,-z
5 1/2+x,1/2+y,1/2+z
6 1/2-x,-y,1/2+z
7 1/2+x,1/2-y,1/2-z
8 1/2-x,y,1/2-z
9 -x,-y,-z
10 x,1/2+y,-z
11 -x,y,z
12 x,1/2-y,z
13 1/2-x,1/2-y,1/2-z
14 1/2+x,y,1/2-z
15 1/2-x,1/2+y,1/2+z
16 1/2+x,-y,1/2+z
_cell_length_a                   19.561(6)
_cell_length_b                   15.255(5)
_cell_length_c                   23.404(7)
_cell_angle_alpha                90
_cell_angle_beta                 90
_cell_angle_gamma                90
_cell_volume                     6983.83
loop_
_atom_site_label
_atom_site_type_symbol
_atom_site_fract_x
_atom_site_fract_y
_atom_site_fract_z
O3 O 0.2500 0.9640(30) 1.2500
O4 O 0.2110(30) 0.7500 0.8680(20)
O5 O 0.2600(40) 0.5000 1.0000
O6 O -0.0000 0.0330(50) 0.6390(30)
O7 O 0.1640(60) 0.7500 0.7600(50)
Zn1 Zn 0.0765(1) 0.2500 0.7162(1)
O1 O 0.0561(6) 0.3507(7) 0.7677(5)
O2 O 0.0000 0.2500 0.6650(9)
C1 C 0.0653(11) 0.7500 1.0225(9)
C2 C 0.0633(7) 0.6677(10) 0.9861(6)
C3 C 0.0000 0.6694(16) 0.9479(9)
C4 C -0.0000 0.7500 0.9092(11)
C5 C -0.0000 0.7500 1.0592(11)
C6 C 0.1292(12) 0.7500 1.0608(10)
C7 C 0.1895(11) 0.7500 1.0331(11)
C8 C 0.2493(12) 0.7500 1.0616(11)
C9 C 0.2526(15) 0.7500 1.1190(10)
C10 C 0.1942(13) 0.7500 1.1490(11)
C11 C 0.1364(12) 0.7500 1.1179(10)
C12 C 0.3270(20) 0.7500 1.1441(9)
C13 C 0.0000 0.5914(18) 0.9088(10)
C14 C 0.0571(9) 0.5540(15) 0.8871(10)
C15 C 0.0572(9) 0.4867(15) 0.8474(10)
C16 C 0.0000 0.4498(17) 0.8259(10)
C17 C 0.0000 0.3783(17) 0.7830(11)
O8 O 0.3276(8) 0.7804(12) 1.1933(7)
O9 O 0.3611(17) 0.8190(20) 1.1397(15)
H1 H 0.0634 0.6145 1.0105
H2 H 0.1054 0.6619 0.9630
H3 H -0.0399 0.7500 0.8838
H4 H 0.0000 0.8011 1.0865
H5 H 0.1933 0.7500 0.9910
H6 H 0.2932 0.7500 1.0436
H7 H 0.1888 0.7500 1.1922
H8 H 0.0914 0.7500 1.1374
H9 H 0.1015 0.5750 0.9012
H10 H 0.1025 0.4647 0.8341
O1J O -0.0561(6) 0.3507(7) 0.7677(5)
C2K C 0.0633(7) 0.8323(10) 0.9861(6)
C3K C 0.0000 0.8306(16) 0.9479(9)
C2A C -0.0633(7) 0.8323(10) 0.9861(6)
C1A C -0.0653(11) 0.7500 1.0225(9)
C2J C -0.0633(7) 0.6677(10) 0.9861(6)
C13K C -0.0000 0.9086(18) 0.9088(10)
C14K C 0.0571(9) 0.9460(15) 0.8871(10)
C15K C 0.0572(9) 1.0133(15) 0.8474(10)
C16K C 0.0000 1.0502(17) 0.8259(10)
C15A C -0.0572(9) 1.0133(15) 0.8474(10)
C14A C -0.0571(9) 0.9460(15) 0.8871(10)
H9A H -0.1015 0.9250 0.9012
H10A H -0.1025 1.0353 0.8341
C17K C 0.0000 1.1217(17) 0.7830(11)
O1K O 0.0561(6) 1.1493(7) 0.7677(5)
O1A O -0.0561(6) 1.1493(7) 0.7677(5)
H10K H 0.1025 1.0353 0.8341
H9K H 0.1015 0.9250 0.9012
H3A H 0.0399 0.7500 0.8838
H1J H -0.0634 0.6145 1.0105
H2J H -0.1054 0.6619 0.9630
O8K O 0.3276(8) 0.7196(12) 1.1933(7)
O9K O 0.3611(17) 0.6810(20) 1.1397(15)
H4A H 0.0000 0.6989 1.0865
C6A C -0.1292(12) 0.7500 1.0608(10)
C7A C -0.1895(11) 0.7500 1.0331(11)
C8A C -0.2493(12) 0.7500 1.0616(11)
C9A C -0.2526(15) 0.7500 1.1190(10)
C10A C -0.1942(13) 0.7500 1.1490(11)
C11A C -0.1364(12) 0.7500 1.1179(10)
H8A H -0.0914 0.7500 1.1374
H7A H -0.1888 0.7500 1.1922
C12A C -0.3270(20) 0.7500 1.1441(9)
O8A O -0.3276(8) 0.7196(12) 1.1933(7)
O8J O -0.3276(8) 0.7804(12) 1.1933(7)
O9A O -0.3611(17) 0.6810(20) 1.1397(15)
O9J O -0.3611(17) 0.8190(20) 1.1397(15)
H6A H -0.2932 0.7500 1.0436
H5A H -0.1933 0.7500 0.9910
H1A H -0.0634 0.8855 1.0105
H2A H -0.1054 0.8381 0.9630
H1K H 0.0634 0.8855 1.0105
H2K H 0.1054 0.8381 0.9630
C14J C -0.0571(9) 0.5540(15) 0.8871(10)
C15J C -0.0572(9) 0.4867(15) 0.8474(10)
H10J H -0.1025 0.4647 0.8341
H9J H -0.1015 0.5750 0.9012
Zn1J Zn -0.0765(1) 0.2500 0.7162(1)
O1K_2 O 0.0561(6) 0.1493(7) 0.7677(5)
O8E O 0.1724(8) 0.2196(12) 0.6933(7)
O8N O 0.1724(8) 0.2804(12) 0.6933(7)
O9E O 0.1389(17) 0.1810(20) 0.6397(15)
O9N O 0.1389(17) 0.3190(20) 0.6397(15)
Zn1E Zn 0.4235(1) 0.7500 1.2162(1)
Zn1_2 Zn 0.0765(1) 1.2500 0.7162(1)
Zn1A Zn -0.0765(1) 1.2500 0.7162(1)
Zn1D Zn -0.4235(1) 0.7500 1.2162(1)
O1A_2 O -0.0561(6) 0.1493(7) 0.7677(5)
O8D O -0.1724(8) 0.2804(12) 0.6933(7)
O8O O -0.1724(8) 0.2196(12) 0.6933(7)
O9D O -0.1389(17) 0.3190(20) 0.6397(15)
O9O O -0.1389(17) 0.1810(20) 0.6397(15)
loop_
_geom_bond_atom_site_label_1
_geom_bond_atom_site_label_2
_geom_bond_site_symmetry_1
_geom_bond_site_symmetry_2
Zn1 O1 1_555 1_555
O1 C17 1_555 1_555
O2 Zn1 1_555 1_555
C1 C2 1_555 1_555
C2 C3 1_555 1_555
C3 C4 1_555 1_555
C4 H3 1_555 1_555
C5 C1 1_555 1_555
C6 C1 1_555 1_555
C7 C6 1_555 1_555
C8 C7 1_555 1_555
C9 C8 1_555 1_555
C10 C9 1_555 1_555
C11 C6 1_555 1_555
C12 C9 1_555 1_555
C13 C3 1_555 1_555
C14 C13 1_555 1_555
C15 C14 1_555 1_555
C16 C15 1_555 1_555
C17 C16 1_555 1_555
O8 C12 1_555 1_555
O9 C12 1_555 1_555
H1 C2 1_555 1_555
H2 C2 1_555 1_555
H4 C5 1_555 1_555
H5 C7 1_555 1_555
H6 C8 1_555 1_555
H7 C10 1_555 1_555
H8 C11 1_555 1_555
H9 C14 1_555 1_555
H10 C15 1_555 1_555
O1J C17 1_555 1_555
C2K C1 1_555 1_555
C3K C4 1_555 1_555
C2A C3K 1_555 1_555
C1A C5 1_555 1_555
C2J C3 1_555 1_555
C13K C3K 1_555 1_555
C14K C13K 1_555 1_555
C15K C14K 1_555 1_555
C16K C15K 1_555 1_555
C15A C16K 1_555 1_555
C14A C13K 1_555 1_555
H9A C14A 1_555 1_555
H10A C15A 1_555 1_555
C17K C16K 1_555 1_555
O1K C17K 1_555 1_555
O1A C17K 1_555 1_555
H10K C15K 1_555 1_555
H9K C14K 1_555 1_555
H3A C4 1_555 1_555
H1J C2J 1_555 1_555
H2J C2J 1_555 1_555
O8K C12 1_555 1_555
O9K C12 1_555 1_555
H4A C5 1_555 1_555
C6A C1A 1_555 1_555
C7A C6A 1_555 1_555
C8A C7A 1_555 1_555
C9A C8A 1_555 1_555
C10A C9A 1_555 1_555
C11A C6A 1_555 1_555
H8A C11A 1_555 1_555
H7A C10A 1_555 1_555
C12A C9A 1_555 1_555
O8A C12A 1_555 1_555
O8J C12A 1_555 1_555
O9A C12A 1_555 1_555
O9J C12A 1_555 1_555
H6A C8A 1_555 1_555
H5A C7A 1_555 1_555
H1A C2A 1_555 1_555
H2A C2A 1_555 1_555
H1K C2K 1_555 1_555
H2K C2K 1_555 1_555
C14J C13 1_555 1_555
C15J C16 1_555 1_555
H10J C15J 1_555 1_555
H9J C14J 1_555 1_555
Zn1J O2 1_555 1_555
O1K_2 Zn1 1_555 1_555
O8E Zn1 1_555 1_555
O8N Zn1 1_555 1_555
O9E Zn1 1_555 1_555
O9N Zn1 1_555 1_555
Zn1E O8 1_555 1_555
Zn1_2 O1K 1_555 1_555
Zn1A O1A 1_555 1_555
Zn1D O8A 1_555 1_555
O1A_2 Zn1J 1_555 1_555
O8D Zn1J 1_555 1_555
O8O Zn1J 1_555 1_555
O9D Zn1J 1_555 1_555
O9O Zn1J 1_555 1_555
C10 C11 1_555 1_555
O8 O8K 1_555 1_555
O8 O9 1_555 1_555
O9 Zn1E 1_555 1_555
O1J Zn1J 1_555 1_555
C2K C3K 1_555 1_555
C2A C1A 1_555 1_555
C1A C2J 1_555 1_555
C15A C14A 1_555 1_555
O8K O9K 1_555 1_555
O8K Zn1E 1_555 1_555
O9K Zn1E 1_555 1_555
C10A C11A 1_555 1_555
O8A O8J 1_555 1_555
O8A O9A 1_555 1_555
O8J O9J 1_555 1_555
O8J Zn1D 1_555 1_555
O9A Zn1D 1_555 1_555
O9J Zn1D 1_555 1_555
C14J C15J 1_555 1_555
O8E O8N 1_555 1_555
O8E O9E 1_555 1_555
O8N O9N 1_555 1_555
O8D O8O 1_555 1_555
O8D O9D 1_555 1_555
O8O O9O 1_555 1_555

#END
