
#######################################################################
#
#                 Cambridge Crystallographic Data Centre
#                                CCDC 
#
#######################################################################
#
# If this CIF has been generated from an entry in the Cambridge 
# Structural Database, then it will include bibliographic, chemical, 
# crystal, experimental, refinement or atomic coordinate data resulting 
# from the CCDC's data processing and validation procedures.
#
#######################################################################

data_PUWCOZ
_chemical_formula_moiety         '(C14 H30 Ni2 O17)n'
_symmetry_cell_setting           orthorhombic
_symmetry_space_group_name_H-M   'P 21 21 21'
_symmetry_Int_Tables_number      19
_space_group_name_Hall           'P 2ac 2ab'
loop_
_symmetry_equiv_pos_site_id
_symmetry_equiv_pos_as_xyz
1 x,y,z
2 1/2-x,-y,1/2+z
3 1/2+x,1/2-y,-z
4 -x,1/2+y,1/2-z
_cell_length_a                   10.0656(3)
_cell_length_b                   11.1625(3)
_cell_length_c                   19.2011(2)
_cell_angle_alpha                90
_cell_angle_beta                 90
_cell_angle_gamma                90
_cell_volume                     2157.38
loop_
_atom_site_label
_atom_site_type_symbol
_atom_site_fract_x
_atom_site_fract_y
_atom_site_fract_z
Ni1 Ni 0.03679(7) -0.12971(6) 0.47894(3)
Ni2 Ni 0.24838(7) -0.01502(5) 0.60180(3)
O1 O 0.1647(4) -0.0156(3) 0.43033(17)
O2 O 0.2432(4) 0.0961(3) 0.51842(16)
O3 O 0.5695(3) 0.4621(3) 0.36753(17)
O4 O 0.4502(3) 0.5052(3) 0.46209(16)
O5 O -0.0420(3) 0.5242(3) 0.40880(16)
O6 O -0.1347(3) 0.3829(3) 0.34721(16)
O7 O 0.3128(4) 0.2876(3) 0.16081(17)
O8 O 0.2331(4) 0.1106(3) 0.19137(16)
O9 O 0.1934(3) -0.1688(3) 0.54721(16)
O10 O -0.1099(4) -0.0766(3) 0.4080(2)
O11 O -0.0857(4) -0.2579(3) 0.52797(17)
O12 O 0.0964(4) -0.2615(3) 0.4120(2)
C1 C 0.2133(5) 0.0794(4) 0.4561(3)
C2 C 0.2289(5) 0.1870(4) 0.4060(2)
C3 C 0.3463(5) 0.2673(5) 0.4261(3)
C4 C 0.3516(5) 0.3783(5) 0.3781(2)
C5 C 0.2198(4) 0.4468(4) 0.3845(2)
C6 C 0.1020(5) 0.3684(5) 0.3632(2)
C7 C 0.0978(5) 0.2583(4) 0.4120(2)
C8 C 0.2465(5) 0.1463(4) 0.3295(2)
C9 C 0.2547(6) 0.2553(4) 0.2816(2)
C10 C 0.3699(5) 0.3367(5) 0.3021(2)
C11 C 0.1237(5) 0.3264(5) 0.2878(3)
C12 C 0.4676(5) 0.4564(4) 0.4033(2)
C13 C -0.0313(5) 0.4299(4) 0.3726(3)
C14 C 0.2679(5) 0.2124(4) 0.2057(2)
H1 H 0.3362 0.2927 0.4730
H2 H 0.4266 0.2233 0.4215
H3 H 0.2084 0.4714 0.4314
H4 H 0.2228 0.5152 0.3552
H5 H 0.0254 0.2083 0.3992
H6 H 0.0864 0.2845 0.4587
H7 H 0.3259 0.1009 0.3254
H8 H 0.1728 0.0983 0.3162
H9 H 0.3716 0.4046 0.2723
H10 H 0.4511 0.2941 0.2979
H11 H 0.0517 0.2766 0.2742
H12 H 0.1276 0.3943 0.2580
H13 H 0.2495 -0.2017 0.5160
H14 H 0.1714 -0.2150 0.5771
H15 H -0.1542 0.0062 0.4169
H16 H -0.1100 -0.2197 0.5809
H17 H -0.0328 -0.3458 0.5287
H18 H 0.0564 -0.3334 0.4032
H19 H 0.1824 -0.2797 0.3990
H21 H -0.1752 -0.1362 0.3834
O4B O -0.0498(3) -0.0052(3) 0.53791(16)
O3B O 0.0695(3) 0.0379(3) 0.63247(17)
O5B O 0.4580(3) -0.0242(3) 0.59120(16)
O6B O 0.3653(3) 0.1171(3) 0.65279(16)
O8A O 0.2669(4) -0.1106(3) 0.69137(16)
Ni2B Ni 0.74838(7) 0.51502(5) 0.39820(3)
Ni1B Ni 0.53679(7) 0.62971(6) 0.52106(3)
Ni2B_2 Ni -0.25162(7) 0.51502(5) 0.39820(3)
Ni2A Ni 0.25162(7) 0.01502(5) 0.10180(3)
O13 O 0.1969(4) -0.1462(4) 0.2977(2)
H20 H 0.1846 -0.1296 0.2483
H22 H 0.2252 -0.2425 0.2680
O14 O -0.0989(5) -0.2127(6) 0.6667(3)
O15 O -0.2791(5) 0.1523(5) 0.4003(3)
O16 O 0.0235(7) 0.5233(6) 0.5565(6)
O17 O -0.226(4) 0.145(3) 0.2836(17)
loop_
_geom_bond_atom_site_label_1
_geom_bond_atom_site_label_2
_geom_bond_site_symmetry_1
_geom_bond_site_symmetry_2
Ni1 O1 1_555 1_555
Ni2 O2 1_555 1_555
O1 C1 1_555 1_555
O2 C1 1_555 1_555
O3 C12 1_555 1_555
O4 C12 1_555 1_555
O5 C13 1_555 1_555
O6 C13 1_555 1_555
O7 C14 1_555 1_555
O8 C14 1_555 1_555
O9 Ni1 1_555 1_555
O10 Ni1 1_555 1_555
O11 Ni1 1_555 1_555
O12 Ni1 1_555 1_555
O13 H20 1_555 1_555
C1 C2 1_555 1_555
C2 C3 1_555 1_555
C3 C4 1_555 1_555
C4 C5 1_555 1_555
C5 C6 1_555 1_555
C6 C7 1_555 1_555
C7 C2 1_555 1_555
C8 C2 1_555 1_555
C9 C8 1_555 1_555
C10 C4 1_555 1_555
C11 C6 1_555 1_555
C12 C4 1_555 1_555
C13 C6 1_555 1_555
C14 C9 1_555 1_555
H1 C3 1_555 1_555
H2 C3 1_555 1_555
H3 C5 1_555 1_555
H4 C5 1_555 1_555
H5 C7 1_555 1_555
H6 C7 1_555 1_555
H7 C8 1_555 1_555
H8 C8 1_555 1_555
H9 C10 1_555 1_555
H10 C10 1_555 1_555
H11 C11 1_555 1_555
H12 C11 1_555 1_555
H13 O9 1_555 1_555
H14 O9 1_555 1_555
H15 O10 1_555 1_555
H16 O11 1_555 1_555
H17 O11 1_555 1_555
H18 O12 1_555 1_555
H19 O12 1_555 1_555
H21 O10 1_555 1_555
H22 O13 1_555 1_555
O4B Ni1 1_555 1_555
O3B Ni2 1_555 1_555
O5B Ni2 1_555 1_555
O6B Ni2 1_555 1_555
O8A Ni2 1_555 1_555
Ni2B O3 1_555 1_555
Ni1B O4 1_555 1_555
Ni2B_2 O5 1_555 1_555
Ni2A O8 1_555 1_555
Ni2 O9 1_555 1_555
O6 Ni2B_2 1_555 1_555
C9 C10 1_555 1_555
C9 C11 1_555 1_555

#END
