
#######################################################################
#
#                 Cambridge Crystallographic Data Centre
#                                CCDC 
#
#######################################################################
#
# If this CIF has been generated from an entry in the Cambridge 
# Structural Database, then it will include bibliographic, chemical, 
# crystal, experimental, refinement or atomic coordinate data resulting 
# from the CCDC's data processing and validation procedures.
#
#######################################################################

data_PUWCUF
_chemical_formula_moiety         '(C18 H28 O12 Zn2)n'
_symmetry_cell_setting           orthorhombic
_symmetry_space_group_name_H-M   'P b c a'
_symmetry_Int_Tables_number      61
_space_group_name_Hall           '-P 2ac 2ab'
loop_
_symmetry_equiv_pos_site_id
_symmetry_equiv_pos_as_xyz
1 x,y,z
2 1/2-x,-y,1/2+z
3 1/2+x,1/2-y,-z
4 -x,1/2+y,1/2-z
5 -x,-y,-z
6 1/2+x,y,1/2-z
7 1/2-x,1/2+y,z
8 x,1/2-y,1/2+z
_cell_length_a                   15.745(7)
_cell_length_b                   16.907(7)
_cell_length_c                   18.167(8)
_cell_angle_alpha                90
_cell_angle_beta                 90
_cell_angle_gamma                90
_cell_volume                     4836.07
loop_
_atom_site_label
_atom_site_type_symbol
_atom_site_fract_x
_atom_site_fract_y
_atom_site_fract_z
Zn1 Zn 0.5659(1) 0.1769(1) 0.3556(1)
Zn2 Zn 0.5207(1) 0.3579(1) 0.4108(1)
O1 O 0.4919(6) 0.1862(5) 0.4421(4)
O2 O 0.4792(6) 0.3024(5) 0.4960(4)
O3 O 0.5102(5) 0.2717(5) 0.7695(4)
O4 O 0.4503(6) 0.1696(5) 0.8261(4)
O5 O 0.4334(5) -0.0660(5) 0.6699(4)
O6 O 0.3632(6) -0.0643(5) 0.5662(5)
O7 O 0.1407(5) 0.1498(6) 0.6080(5)
O8 O 0.1773(5) 0.2705(5) 0.6418(5)
O9 O 0.5086(5) 0.4731(5) 0.4159(5)
C1 C 0.4697(8) 0.2299(8) 0.4941(6)
C2 C 0.4264(7) 0.1908(7) 0.5597(6)
C3 C 0.4700(8) 0.2202(7) 0.6316(6)
C4 C 0.4249(7) 0.1831(7) 0.6985(6)
C5 C 0.4324(7) 0.0921(7) 0.6946(6)
C6 C 0.3886(8) 0.0610(7) 0.6232(6)
C7 C 0.2963(7) 0.0871(7) 0.6240(6)
C8 C 0.2872(7) 0.1764(7) 0.6282(6)
C9 C 0.3321(7) 0.2140(7) 0.5621(6)
C10 C 0.4343(8) 0.0986(7) 0.5556(6)
C11 C 0.3312(7) 0.2059(7) 0.6974(6)
C12 C 0.4672(8) 0.2101(8) 0.7694(6)
C13 C 0.3936(8) -0.0289(8) 0.6182(7)
C14 C 0.1939(8) 0.2007(8) 0.6259(6)
C15 C 0.5765(9) 0.5268(8) 0.4042(8)
C16 C 0.5937(10) 0.5385(9) 0.3216(8)
H1 H 0.5306 0.2048 0.6315
H2 H 0.4666 0.2786 0.6346
H3 H 0.4050 0.0682 0.7383
H4 H 0.4930 0.0766 0.6946
H5 H 0.2673 0.0629 0.6667
H6 H 0.2679 0.0678 0.5788
H7 H 0.3271 0.2723 0.5652
H8 H 0.3040 0.1966 0.5161
H9 H 0.4081 0.0791 0.5095
H10 H 0.4950 0.0832 0.5555
H11 H 0.3027 0.1833 0.7412
H12 H 0.3261 0.2642 0.7000
H13 H 0.6284 0.5063 0.4284
H14 H 0.5623 0.5784 0.4268
H15 H 0.6012 0.4868 0.2980
H16 H 0.6453 0.5701 0.3151
H17 H 0.5455 0.5659 0.2990
O3G O 0.5102(5) 0.2283(5) 0.2695(4)
O5D O 0.5666(5) 0.0660(5) 0.3301(4)
O8B O 0.6773(5) 0.2295(5) 0.3582(5)
O4G O 0.4503(6) 0.3304(5) 0.3261(4)
O7B O 0.6407(5) 0.3502(6) 0.3920(5)
Zn1G Zn 0.5659(1) 0.3231(1) 0.8556(1)
Zn2G Zn 0.5207(1) 0.1421(1) 0.9108(1)
Zn1D Zn 0.4341(1) -0.1769(1) 0.6444(1)
Zn2B Zn 0.0207(1) 0.1421(1) 0.5892(1)
Zn1B Zn 0.0659(1) 0.3231(1) 0.6444(1)
O10 O 0.1317(8) 0.0509(8) 0.4209(7)
C17 C 0.1483(17) 0.1133(16) 0.3731(15)
C18 C 0.2080(20) 0.1260(20) 0.3292(18)
H18 H 0.0838 0.0317 0.4114
H19 H 0.0964 0.1171 0.3425
H20 H 0.1478 0.1607 0.4050
H21 H 0.1857 0.1531 0.2857
H22 H 0.2326 0.0749 0.3142
H23 H 0.2510 0.1582 0.3530
O11 O 0.7590(20) 0.0620(20) 0.5368(17)
O15 O 0.7190(20) 0.1550(20) 0.5869(19)
loop_
_geom_bond_atom_site_label_1
_geom_bond_atom_site_label_2
_geom_bond_site_symmetry_1
_geom_bond_site_symmetry_2
Zn1 O1 1_555 1_555
Zn2 O2 1_555 1_555
O1 C1 1_555 1_555
O2 C1 1_555 1_555
O3 C12 1_555 1_555
O4 C12 1_555 1_555
O5 C13 1_555 1_555
O6 C13 1_555 1_555
O7 C14 1_555 1_555
O8 C14 1_555 1_555
O9 Zn2 1_555 1_555
C1 C2 1_555 1_555
C2 C3 1_555 1_555
C3 C4 1_555 1_555
C4 C5 1_555 1_555
C5 C6 1_555 1_555
C6 C7 1_555 1_555
C7 C8 1_555 1_555
C8 C9 1_555 1_555
C9 C2 1_555 1_555
C10 C2 1_555 1_555
C11 C4 1_555 1_555
C12 C4 1_555 1_555
C13 C6 1_555 1_555
C14 C8 1_555 1_555
C15 O9 1_555 1_555
C16 C15 1_555 1_555
O10 C17 1_555 1_555
C17 C18 1_555 1_555
C18 H21 1_555 1_555
H1 C3 1_555 1_555
H2 C3 1_555 1_555
H3 C5 1_555 1_555
H4 C5 1_555 1_555
H5 C7 1_555 1_555
H6 C7 1_555 1_555
H7 C9 1_555 1_555
H8 C9 1_555 1_555
H9 C10 1_555 1_555
H10 C10 1_555 1_555
H11 C11 1_555 1_555
H12 C11 1_555 1_555
H13 C15 1_555 1_555
H14 C15 1_555 1_555
H15 C16 1_555 1_555
H16 C16 1_555 1_555
H17 C16 1_555 1_555
H18 O10 1_555 1_555
H19 C17 1_555 1_555
H20 C17 1_555 1_555
H22 C18 1_555 1_555
H23 C18 1_555 1_555
O3G Zn1 1_555 1_555
O5D Zn1 1_555 1_555
O8B Zn1 1_555 1_555
O4G Zn2 1_555 1_555
O7B Zn2 1_555 1_555
Zn1G O3 1_555 1_555
Zn2G O4 1_555 1_555
Zn1D O5 1_555 1_555
Zn2B O7 1_555 1_555
Zn1B O8 1_555 1_555
C6 C10 1_555 1_555
C8 C11 1_555 1_555

#END
