
#######################################################################
#
#                 Cambridge Crystallographic Data Centre
#                                CCDC 
#
#######################################################################
#
# If this CIF has been generated from an entry in the Cambridge 
# Structural Database, then it will include bibliographic, chemical, 
# crystal, experimental, refinement or atomic coordinate data resulting 
# from the CCDC's data processing and validation procedures.
#
#######################################################################

data_ILUFOL
_chemical_formula_moiety         '(C42 H34 Co3 Dy2 N6 O32)n'
_symmetry_cell_setting           hexagonal
_symmetry_space_group_name_H-M   'P 6/m c c'
_symmetry_Int_Tables_number      192
_space_group_name_Hall           '-P 6 2c'
loop_
_symmetry_equiv_pos_site_id
_symmetry_equiv_pos_as_xyz
1 x,y,z
2 -y,x-y,z
3 -x+y,-x,z
4 -x,-y,z
5 y,-x+y,z
6 x-y,x,z
7 y,x,1/2-z
8 x-y,-y,1/2-z
9 -x,-x+y,1/2-z
10 -y,-x,1/2-z
11 -x+y,y,1/2-z
12 x,x-y,1/2-z
13 -x,-y,-z
14 y,-x+y,-z
15 x-y,x,-z
16 x,y,-z
17 -y,x-y,-z
18 -x+y,-x,-z
19 -y,-x,1/2+z
20 -x+y,y,1/2+z
21 x,x-y,1/2+z
22 y,x,1/2+z
23 x-y,-y,1/2+z
24 -x,-x+y,1/2+z
_cell_length_a                   15.2196(8)
_cell_length_b                   15.2196(8)
_cell_length_c                   15.4737(15)
_cell_angle_alpha                90
_cell_angle_beta                 90
_cell_angle_gamma                120
_cell_volume                     3104.07
loop_
_atom_site_label
_atom_site_type_symbol
_atom_site_fract_x
_atom_site_fract_y
_atom_site_fract_z
Dy1 Dy 0.3333 0.6667 0.2500
Co1 Co 0.5000 0.5000 0.5000
O1 O 0.3871(3) 0.4487(2) 0.4075(2)
O2 O 0.3888(2) 0.5878(2) 0.35662(18)
O3 O 0.4856(3) 0.3507(3) 0.5000
H1 H 0.5129 0.3490 0.5469
N1 N 0.23940(16) 0.4788(3) 0.2500
C1 C 0.3547(3) 0.4927(3) 0.3608(3)
C2 C 0.2661(3) 0.4274(3) 0.3036(3)
C3 C 0.2148(4) 0.3226(3) 0.3062(3)
H2 H 0.2339 0.2884 0.3449
C4 C 0.1348(2) 0.2695(5) 0.2500
H3 H 0.0995 0.1990 0.2500
Dy1C Dy 0.6667 0.3333 0.2500
Dy1O Dy 0.3333 0.6667 0.7500
Co1G Co 0.0000 0.5000 0.0000
Co1B Co 0.0000 0.5000 0.5000
Co1H Co 0.5000 1.0000 0.0000
Co1A Co 0.5000 1.0000 0.5000
Co1F Co 0.5000 0.5000 0.0000
Co1G_2 Co 1.0000 0.5000 0.0000
Co1G_3 Co 0.0000 0.5000 1.0000
Co1H_2 Co 0.5000 1.0000 1.0000
O1J O 0.0616(4) 0.4487(2) 0.0925(2)
O1B O 0.0616(4) 0.6129(3) 0.4075(2)
O1K O 0.3871(3) 0.9384(4) 0.0925(2)
O1A O 0.5513(2) 0.9384(4) 0.4075(2)
O1I O 0.5513(2) 0.6129(3) 0.0925(2)
O1C O 0.6129(3) 0.5513(2) 0.4075(2)
O1G O 0.9384(4) 0.5513(2) 0.0925(2)
O1L O 0.6129(3) 0.5513(2) 0.5925(2)
O1O O 0.3871(3) 0.4487(2) 0.5925(2)
O1S O 0.0616(4) 0.4487(2) 0.9075(2)
O1E O -0.0616(4) 0.3871(3) 0.4075(2)
O1N O -0.0616(4) 0.3871(3) 0.5925(2)
O1Q O 0.0616(4) 0.6129(3) 0.5925(2)
O1T O 0.3871(3) 0.9384(4) 0.9075(2)
O1D O 0.4487(2) 1.0616(4) 0.4075(2)
O1M O 0.4487(2) 1.0616(4) 0.5925(2)
O1P O 0.5513(2) 0.9384(4) 0.5925(2)
O2J O 0.1990(3) 0.5878(2) 0.14338(18)
O2B O 0.1990(3) 0.6112(2) 0.35662(18)
O2K O 0.3888(2) 0.8010(3) 0.14338(18)
O2A O 0.4122(2) 0.8010(3) 0.35662(18)
O2I O 0.4122(2) 0.6112(2) 0.14338(18)
O2C O 0.6112(2) 0.4122(2) 0.35662(18)
O2G O 0.8010(3) 0.4122(2) 0.14338(18)
O2O O 0.3888(2) 0.5878(2) 0.64338(18)
O2S O 0.1990(3) 0.5878(2) 0.85662(18)
O2Q O 0.1990(3) 0.6112(2) 0.64338(18)
O2T O 0.3888(2) 0.8010(3) 0.85662(18)
O2P O 0.4122(2) 0.8010(3) 0.64338(18)
O2R O 0.4122(2) 0.6112(2) 0.85662(18)
O3C O 0.5144(3) 0.6493(3) 0.5000
O3B O -0.1349(4) 0.5144(3) 0.5000
O3E O 0.1349(4) 0.4856(3) 0.5000
O3A O 0.6493(3) 1.1349(4) 0.5000
O3D O 0.3507(3) 0.8651(4) 0.5000
H1O H 0.5129 0.3490 0.4531
H1C H 0.4871 0.6510 0.5469
H1L H 0.4871 0.6510 0.4531
H1B H -0.1639 0.4871 0.5469
H1Q H -0.1639 0.4871 0.4531
H1E H 0.1639 0.5129 0.5469
H1N H 0.1639 0.5129 0.4531
H1A H 0.6510 1.1639 0.5469
H1P H 0.6510 1.1639 0.4531
H1D H 0.3490 0.8361 0.5469
H1M H 0.3490 0.8361 0.4531
N1B N 0.23940(34) 0.76060(16) 0.2500
N1A N 0.5212(3) 0.76060(34) 0.2500
N1C N 0.76060(16) 0.5212(3) 0.2500
N1O N 0.23940(16) 0.4788(3) 0.7500
N1Q N 0.23940(34) 0.76060(16) 0.7500
N1P N 0.5212(3) 0.76060(34) 0.7500
C1J C 0.1380(4) 0.4927(3) 0.1392(3)
C1B C 0.1380(4) 0.6453(3) 0.3608(3)
C1K C 0.3547(3) 0.8620(4) 0.1392(3)
C1A C 0.5073(3) 0.8620(4) 0.3608(3)
C1I C 0.5073(3) 0.6453(3) 0.1392(3)
C1C C 0.6453(3) 0.5073(3) 0.3608(3)
C1G C 0.8620(4) 0.5073(3) 0.1392(3)
C1O C 0.3547(3) 0.4927(3) 0.6392(3)
C1S C 0.1380(4) 0.4927(3) 0.8608(3)
C1Q C 0.1380(4) 0.6453(3) 0.6392(3)
C1T C 0.3547(3) 0.8620(4) 0.8608(3)
C2J C 0.1613(4) 0.4274(3) 0.1964(3)
C2B C 0.1613(4) 0.7339(3) 0.3036(3)
C2K C 0.2661(3) 0.8387(4) 0.1964(3)
C2A C 0.5726(3) 0.8387(4) 0.3036(3)
C2I C 0.5726(3) 0.7339(3) 0.1964(3)
C2C C 0.7339(3) 0.5726(3) 0.3036(3)
C2G C 0.8387(4) 0.5726(3) 0.1964(3)
C2O C 0.2661(3) 0.4274(3) 0.6964(3)
C2S C 0.1613(4) 0.4274(3) 0.8036(3)
C2Q C 0.1613(4) 0.7339(3) 0.6964(3)
C2T C 0.2661(3) 0.8387(4) 0.8036(3)
C3J C 0.1078(5) 0.3226(3) 0.1938(3)
C3B C 0.1078(5) 0.7852(4) 0.3062(3)
C3K C 0.2148(4) 0.8922(5) 0.1938(3)
C3A C 0.6774(3) 0.8922(5) 0.3062(3)
C3I C 0.6774(3) 0.7852(4) 0.1938(3)
C3C C 0.7852(4) 0.6774(3) 0.3062(3)
C3G C 0.8922(5) 0.6774(3) 0.1938(3)
C3O C 0.2148(4) 0.3226(3) 0.6938(3)
C3S C 0.1078(5) 0.3226(3) 0.8062(3)
C3Q C 0.1078(5) 0.7852(4) 0.6938(3)
C3T C 0.2148(4) 0.8922(5) 0.8062(3)
H2J H 0.0545 0.2884 0.1551
H2B H 0.0545 0.7661 0.3449
H2K H 0.2339 0.9455 0.1551
H2A H 0.7116 0.9455 0.3449
H2I H 0.7116 0.7661 0.1551
H2C H 0.7661 0.7116 0.3449
H2G H 0.9455 0.7116 0.1551
H2O H 0.2339 0.2884 0.6551
H2S H 0.0545 0.2884 0.8449
H2Q H 0.0545 0.7661 0.6551
H2T H 0.2339 0.9455 0.8449
C4B C 0.1347(5) 0.8652(2) 0.2500
C4A C 0.7305(5) 0.8653(5) 0.2500
C4C C 0.8652(2) 0.7305(5) 0.2500
C4O C 0.1348(2) 0.2695(5) 0.7500
C4Q C 0.1347(5) 0.8652(2) 0.7500
H3B H 0.0995 0.9005 0.2500
H3A H 0.8010 0.9005 0.2500
H3C H 0.9005 0.8010 0.2500
H3O H 0.0995 0.1990 0.7500
H3Q H 0.0995 0.9005 0.7500
O4 O 0.2654(9) 0.2114(10) 0.5000
O5 O 0.0000 0.0000 0.177(5)
loop_
_geom_bond_atom_site_label_1
_geom_bond_atom_site_label_2
_geom_bond_site_symmetry_1
_geom_bond_site_symmetry_2
Dy1 O2 1_555 1_555
Co1 O1 1_555 1_555
O1 C1 1_555 1_555
O2 C1 1_555 1_555
O3 Co1 1_555 1_555
H1 O3 1_555 1_555
N1 Dy1 1_555 1_555
C1 C2 1_555 1_555
C2 N1 1_555 1_555
C3 C2 1_555 1_555
H2 C3 1_555 1_555
C4 C3 1_555 1_555
H3 C4 1_555 1_555
Dy1C O2C 1_555 1_555
Dy1O O2O 1_555 1_555
Co1G O1J 1_555 1_555
Co1B O1B 1_555 1_555
Co1H O1K 1_555 1_555
Co1A O1A 1_555 1_555
Co1F O1I 1_555 1_555
Co1G_2 O1G 1_555 1_555
Co1G_3 O1S 1_555 1_555
Co1H_2 O1T 1_555 1_555
O1J C1J 1_555 1_555
O1B C1B 1_555 1_555
O1K C1K 1_555 1_555
O1A C1A 1_555 1_555
O1I C1I 1_555 1_555
O1C Co1 1_555 1_555
O1G C1G 1_555 1_555
O1L Co1 1_555 1_555
O1O Co1 1_555 1_555
O1S C1S 1_555 1_555
O1E Co1B 1_555 1_555
O1N Co1B 1_555 1_555
O1Q Co1B 1_555 1_555
O1T C1T 1_555 1_555
O1D Co1A 1_555 1_555
O1M Co1A 1_555 1_555
O1P Co1A 1_555 1_555
O2J Dy1 1_555 1_555
O2B Dy1 1_555 1_555
O2K Dy1 1_555 1_555
O2A Dy1 1_555 1_555
O2I Dy1 1_555 1_555
O2C C1C 1_555 1_555
O2G Dy1C 1_555 1_555
O2O C1O 1_555 1_555
O2S Dy1O 1_555 1_555
O2Q Dy1O 1_555 1_555
O2T Dy1O 1_555 1_555
O2P Dy1O 1_555 1_555
O2R Dy1O 1_555 1_555
O3C Co1 1_555 1_555
O3B Co1B 1_555 1_555
O3E Co1B 1_555 1_555
O3A Co1A 1_555 1_555
O3D Co1A 1_555 1_555
H1O O3 1_555 1_555
H1C O3C 1_555 1_555
H1L O3C 1_555 1_555
H1B O3B 1_555 1_555
H1Q O3B 1_555 1_555
H1E O3E 1_555 1_555
H1N O3E 1_555 1_555
H1A O3A 1_555 1_555
H1P O3A 1_555 1_555
H1D O3D 1_555 1_555
H1M O3D 1_555 1_555
N1B Dy1 1_555 1_555
N1A Dy1 1_555 1_555
N1C Dy1C 1_555 1_555
N1O Dy1O 1_555 1_555
N1Q Dy1O 1_555 1_555
N1P Dy1O 1_555 1_555
C1J O2J 1_555 1_555
C1B O2B 1_555 1_555
C1K O2K 1_555 1_555
C1A O2A 1_555 1_555
C1I O2I 1_555 1_555
C1C O1C 1_555 1_555
C1G O2G 1_555 1_555
C1O O1O 1_555 1_555
C1S O2S 1_555 1_555
C1Q O1Q 1_555 1_555
C1T O2T 1_555 1_555
C2J N1 1_555 1_555
C2B N1B 1_555 1_555
C2K N1B 1_555 1_555
C2A N1A 1_555 1_555
C2I N1A 1_555 1_555
C2C N1C 1_555 1_555
C2G N1C 1_555 1_555
C2O N1O 1_555 1_555
C2S N1O 1_555 1_555
C2Q N1Q 1_555 1_555
C2T N1Q 1_555 1_555
C3J C4 1_555 1_555
C3B C2B 1_555 1_555
C3K C2K 1_555 1_555
C3A C2A 1_555 1_555
C3I C2I 1_555 1_555
C3C C2C 1_555 1_555
C3G C2G 1_555 1_555
C3O C2O 1_555 1_555
C3S C2S 1_555 1_555
C3Q C2Q 1_555 1_555
C3T C2T 1_555 1_555
H2J C3J 1_555 1_555
H2B C3B 1_555 1_555
H2K C3K 1_555 1_555
H2A C3A 1_555 1_555
H2I C3I 1_555 1_555
H2C C3C 1_555 1_555
H2G C3G 1_555 1_555
H2O C3O 1_555 1_555
H2S C3S 1_555 1_555
H2Q C3Q 1_555 1_555
H2T C3T 1_555 1_555
C4B C3B 1_555 1_555
C4A C3A 1_555 1_555
C4C C3C 1_555 1_555
C4O C3O 1_555 1_555
C4Q C3Q 1_555 1_555
H3B C4B 1_555 1_555
H3A C4A 1_555 1_555
H3C C4C 1_555 1_555
H3O C4O 1_555 1_555
H3Q C4Q 1_555 1_555
O2Q C1Q 1_555 1_555
C1J C2J 1_555 1_555
C1B C2B 1_555 1_555
C1K C2K 1_555 1_555
C1A C2A 1_555 1_555
C1I C2I 1_555 1_555
C1C C2C 1_555 1_555
C1G C2G 1_555 1_555
C1O C2O 1_555 1_555
C1S C2S 1_555 1_555
C1Q C2Q 1_555 1_555
C1T C2T 1_555 1_555
C2J C3J 1_555 1_555
C3K C4B 1_555 1_555
C3I C4A 1_555 1_555
C3G C4C 1_555 1_555
C3S C4O 1_555 1_555
C3T C4Q 1_555 1_555

#END
