
#######################################################################
#
#                 Cambridge Crystallographic Data Centre
#                                CCDC 
#
#######################################################################
#
# If this CIF has been generated from an entry in the Cambridge 
# Structural Database, then it will include bibliographic, chemical, 
# crystal, experimental, refinement or atomic coordinate data resulting 
# from the CCDC's data processing and validation procedures.
#
#######################################################################

data_ILUGAY
_chemical_formula_moiety         '(C42 H32 Co3 N6 O31 Yb2)n'
_symmetry_cell_setting           hexagonal
_symmetry_space_group_name_H-M   'P 6/m c c'
_symmetry_Int_Tables_number      192
_space_group_name_Hall           '-P 6 2c'
loop_
_symmetry_equiv_pos_site_id
_symmetry_equiv_pos_as_xyz
1 x,y,z
2 -y,x-y,z
3 -x+y,-x,z
4 -x,-y,z
5 y,-x+y,z
6 x-y,x,z
7 y,x,1/2-z
8 x-y,-y,1/2-z
9 -x,-x+y,1/2-z
10 -y,-x,1/2-z
11 -x+y,y,1/2-z
12 x,x-y,1/2-z
13 -x,-y,-z
14 y,-x+y,-z
15 x-y,x,-z
16 x,y,-z
17 -y,x-y,-z
18 -x+y,-x,-z
19 -y,-x,1/2+z
20 -x+y,y,1/2+z
21 x,x-y,1/2+z
22 y,x,1/2+z
23 x-y,-y,1/2+z
24 -x,-x+y,1/2+z
_cell_length_a                   15.0144(8)
_cell_length_b                   15.0144(8)
_cell_length_c                   15.6165(17)
_cell_angle_alpha                90
_cell_angle_beta                 90
_cell_angle_gamma                120
_cell_volume                     3048.81
loop_
_atom_site_label
_atom_site_type_symbol
_atom_site_fract_x
_atom_site_fract_y
_atom_site_fract_z
Yb1 Yb 0.3333 0.6667 -0.2500
Co1 Co 0.5000 0.5000 -0.5000
O1 O 0.3908(3) 0.5904(5) -0.3554(2)
O2 O 0.3870(3) 0.4495(5) -0.4084(2)
O3 O 0.5144(4) 0.6507(6) -0.5000
N1 N 0.2400(4) 0.4800(4) -0.2500
C1 C 0.1342(7) 0.2684(6) -0.2500
H3 H 0.0984 0.1968 -0.2500
C2 C 0.2142(7) 0.3218(4) -0.3073(4)
H4 H 0.2322 0.2872 -0.3468
C3 C 0.2660(7) 0.4276(4) -0.3039(3)
C4 C 0.3556(7) 0.4941(4) -0.3613(3)
Yb1C Yb 0.6667 0.3333 -0.2500
Yb1O Yb 0.3333 0.6667 -0.7500
Co1G Co 0.0000 0.5000 0.0000
Co1A Co 0.5000 1.0000 -0.5000
Co1F Co 0.5000 0.5000 0.0000
Co1B Co -0.0000 0.5000 -0.5000
Co1H Co 0.5000 1.0000 0.0000
Co1G_2 Co 1.0000 0.5000 0.0000
Co1G_3 Co -0.0000 0.5000 -1.0000
Co1F_2 Co 0.5000 0.5000 -1.0000
O1J O 0.1996(6) 0.5904(5) -0.1446(2)
O1A O 0.4096(5) 0.8004(6) -0.3554(2)
O1I O 0.4096(5) 0.6092(3) -0.1446(2)
O1B O 0.1996(6) 0.6092(3) -0.3554(2)
O1K O 0.3908(3) 0.8004(6) -0.1446(2)
O1C O 0.6092(3) 0.4096(5) -0.3554(2)
O1G O 0.8004(6) 0.4096(5) -0.1446(2)
O1O O 0.3908(3) 0.5904(5) -0.6446(2)
O1S O 0.1996(6) 0.5904(5) -0.8554(2)
O1P O 0.4096(5) 0.8004(6) -0.6446(2)
O1R O 0.4096(5) 0.6092(3) -0.8554(2)
O1Q O 0.1996(6) 0.6092(3) -0.6446(2)
O1T O 0.3908(3) 0.8004(6) -0.8554(2)
O2J O 0.0625(6) 0.4495(5) -0.0916(2)
O2A O 0.5505(5) 0.9375(6) -0.4084(2)
O2I O 0.5505(5) 0.6130(3) -0.0916(2)
O2B O 0.0625(6) 0.6130(3) -0.4084(2)
O2K O 0.3870(3) 0.9375(6) -0.0916(2)
O2C O 0.6130(3) 0.5505(5) -0.4084(2)
O2G O 0.9375(6) 0.5505(5) -0.0916(2)
O2L O 0.6130(3) 0.5505(5) -0.5916(2)
O2O O 0.3870(3) 0.4495(5) -0.5916(2)
O2S O 0.0625(6) 0.4495(5) -0.9084(2)
O2D O 0.4495(5) 1.0625(6) -0.4084(2)
O2M O 0.4495(5) 1.0625(6) -0.5916(2)
O2P O 0.5505(5) 0.9375(6) -0.5916(2)
O2R O 0.5505(5) 0.6130(3) -0.9084(2)
O2E O -0.0625(6) 0.3870(3) -0.4084(2)
O2N O -0.0625(6) 0.3870(3) -0.5916(2)
O2Q O 0.0625(6) 0.6130(3) -0.5916(2)
O3C O 0.4856(4) 0.3493(6) -0.5000
O3A O 0.3493(6) 0.8637(7) -0.5000
O3D O 0.6507(6) 1.1363(7) -0.5000
O3B O 0.1363(7) 0.4856(4) -0.5000
O3E O -0.1363(7) 0.5144(4) -0.5000
N1A N 0.5200(4) 0.7600(6) -0.2500
N1B N 0.2400(6) 0.7600(4) -0.2500
N1C N 0.7600(4) 0.5200(4) -0.2500
N1O N 0.2400(4) 0.4800(4) -0.7500
N1P N 0.5200(4) 0.7600(6) -0.7500
N1Q N 0.2400(6) 0.7600(4) -0.7500
C1A C 0.7316(6) 0.8658(9) -0.2500
C1B C 0.1342(9) 0.8658(7) -0.2500
C1C C 0.8658(7) 0.7316(6) -0.2500
C1O C 0.1342(7) 0.2684(6) -0.7500
C1P C 0.7316(6) 0.8658(9) -0.7500
H3A H 0.8032 0.9016 -0.2500
H3B H 0.0984 0.9016 -0.2500
H3C H 0.9016 0.8032 -0.2500
H3O H 0.0984 0.1968 -0.7500
H3P H 0.8032 0.9016 -0.7500
C2J C 0.1076(8) 0.3218(4) -0.1927(4)
C2A C 0.6782(4) 0.8924(8) -0.3073(4)
C2I C 0.6782(4) 0.7858(7) -0.1927(4)
C2B C 0.1076(8) 0.7858(7) -0.3073(4)
C2K C 0.2142(7) 0.8924(8) -0.1927(4)
C2C C 0.7858(7) 0.6782(4) -0.3073(4)
C2G C 0.8924(8) 0.6782(4) -0.1927(4)
C2O C 0.2142(7) 0.3218(4) -0.6927(4)
C2S C 0.1076(8) 0.3218(4) -0.8073(4)
C2P C 0.6782(4) 0.8924(8) -0.6927(4)
C2R C 0.6782(4) 0.7858(7) -0.8073(4)
H4J H 0.0550 0.2872 -0.1532
H4A H 0.7128 0.9450 -0.3468
H4I H 0.7128 0.7678 -0.1532
H4B H 0.0550 0.7678 -0.3468
H4K H 0.2322 0.9450 -0.1532
H4C H 0.7678 0.7128 -0.3468
H4G H 0.9450 0.7128 -0.1532
H4O H 0.2322 0.2872 -0.6532
H4S H 0.0550 0.2872 -0.8468
H4P H 0.7128 0.9450 -0.6532
H4R H 0.7128 0.7678 -0.8468
C3J C 0.1616(8) 0.4276(4) -0.1961(3)
C3A C 0.5724(4) 0.8384(8) -0.3039(3)
C3I C 0.5724(4) 0.7340(7) -0.1961(3)
C3B C 0.1616(8) 0.7340(7) -0.3039(3)
C3K C 0.2660(7) 0.8384(8) -0.1961(3)
C3C C 0.7340(7) 0.5724(4) -0.3039(3)
C3G C 0.8384(8) 0.5724(4) -0.1961(3)
C3O C 0.2660(7) 0.4276(4) -0.6961(3)
C3S C 0.1616(8) 0.4276(4) -0.8039(3)
C3P C 0.5724(4) 0.8384(8) -0.6961(3)
C3R C 0.5724(4) 0.7340(7) -0.8039(3)
C4J C 0.1385(8) 0.4941(4) -0.1387(3)
C4A C 0.5059(4) 0.8615(8) -0.3613(3)
C4I C 0.5059(4) 0.6444(7) -0.1387(3)
C4B C 0.1385(8) 0.6444(7) -0.3613(3)
C4K C 0.3556(7) 0.8615(8) -0.1387(3)
C4C C 0.6444(7) 0.5059(4) -0.3613(3)
C4G C 0.8615(8) 0.5059(4) -0.1387(3)
C4O C 0.3556(7) 0.4941(4) -0.6387(3)
C4S C 0.1385(8) 0.4941(4) -0.8613(3)
C4P C 0.5059(4) 0.8615(8) -0.6387(3)
C4R C 0.5059(4) 0.6444(7) -0.8613(3)
O4 O 0.7942(12) 0.7455(10) 0.0000
loop_
_geom_bond_atom_site_label_1
_geom_bond_atom_site_label_2
_geom_bond_site_symmetry_1
_geom_bond_site_symmetry_2
Yb1 O1 1_555 1_555
Co1 O2 1_555 1_555
O1 C4 1_555 1_555
O2 C4 1_555 1_555
O3 Co1 1_555 1_555
N1 Yb1 1_555 1_555
C1 H3 1_555 1_555
C2 C1 1_555 1_555
H4 C2 1_555 1_555
C3 N1 1_555 1_555
C4 C3 1_555 1_555
Yb1C O1C 1_555 1_555
Yb1O O1O 1_555 1_555
Co1G O2J 1_555 1_555
Co1A O2A 1_555 1_555
Co1F O2I 1_555 1_555
Co1B O2B 1_555 1_555
Co1H O2K 1_555 1_555
Co1G_2 O2G 1_555 1_555
Co1G_3 O2S 1_555 1_555
Co1F_2 O2R 1_555 1_555
O1J Yb1 1_555 1_555
O1A Yb1 1_555 1_555
O1I Yb1 1_555 1_555
O1B Yb1 1_555 1_555
O1K Yb1 1_555 1_555
O1C C4C 1_555 1_555
O1G Yb1C 1_555 1_555
O1O C4O 1_555 1_555
O1S Yb1O 1_555 1_555
O1P Yb1O 1_555 1_555
O1R Yb1O 1_555 1_555
O1Q Yb1O 1_555 1_555
O1T Yb1O 1_555 1_555
O2J C4J 1_555 1_555
O2A C4A 1_555 1_555
O2I C4I 1_555 1_555
O2B C4B 1_555 1_555
O2K C4K 1_555 1_555
O2C Co1 1_555 1_555
O2G C4G 1_555 1_555
O2L Co1 1_555 1_555
O2O Co1 1_555 1_555
O2S C4S 1_555 1_555
O2D Co1A 1_555 1_555
O2M Co1A 1_555 1_555
O2P Co1A 1_555 1_555
O2R C4R 1_555 1_555
O2E Co1B 1_555 1_555
O2N Co1B 1_555 1_555
O2Q Co1B 1_555 1_555
O3C Co1 1_555 1_555
O3A Co1A 1_555 1_555
O3D Co1A 1_555 1_555
O3B Co1B 1_555 1_555
O3E Co1B 1_555 1_555
N1A Yb1 1_555 1_555
N1B Yb1 1_555 1_555
N1C Yb1C 1_555 1_555
N1O Yb1O 1_555 1_555
N1P Yb1O 1_555 1_555
N1Q Yb1O 1_555 1_555
C1A H3A 1_555 1_555
C1B H3B 1_555 1_555
C1C H3C 1_555 1_555
C1O H3O 1_555 1_555
C1P H3P 1_555 1_555
C2J C1 1_555 1_555
C2A C1A 1_555 1_555
C2I C1A 1_555 1_555
C2B C1B 1_555 1_555
C2K C1B 1_555 1_555
C2C C1C 1_555 1_555
C2G C1C 1_555 1_555
C2O C1O 1_555 1_555
C2S C1O 1_555 1_555
C2P C1P 1_555 1_555
C2R C1P 1_555 1_555
H4J C2J 1_555 1_555
H4A C2A 1_555 1_555
H4I C2I 1_555 1_555
H4B C2B 1_555 1_555
H4K C2K 1_555 1_555
H4C C2C 1_555 1_555
H4G C2G 1_555 1_555
H4O C2O 1_555 1_555
H4S C2S 1_555 1_555
H4P C2P 1_555 1_555
H4R C2R 1_555 1_555
C3J N1 1_555 1_555
C3A N1A 1_555 1_555
C3I N1A 1_555 1_555
C3B N1B 1_555 1_555
C3K N1B 1_555 1_555
C3C N1C 1_555 1_555
C3G N1C 1_555 1_555
C3O N1O 1_555 1_555
C3S N1O 1_555 1_555
C3P N1P 1_555 1_555
C3R N1P 1_555 1_555
C4J O1J 1_555 1_555
C4A O1A 1_555 1_555
C4I O1I 1_555 1_555
C4B O1B 1_555 1_555
C4K O1K 1_555 1_555
C4C O2C 1_555 1_555
C4G O1G 1_555 1_555
C4O O2O 1_555 1_555
C4S O1S 1_555 1_555
C4P O1P 1_555 1_555
C4R O1R 1_555 1_555
C2 C3 1_555 1_555
O2P C4P 1_555 1_555
C2J C3J 1_555 1_555
C2A C3A 1_555 1_555
C2I C3I 1_555 1_555
C2B C3B 1_555 1_555
C2K C3K 1_555 1_555
C2C C3C 1_555 1_555
C2G C3G 1_555 1_555
C2O C3O 1_555 1_555
C2S C3S 1_555 1_555
C2P C3P 1_555 1_555
C2R C3R 1_555 1_555
C3J C4J 1_555 1_555
C3A C4A 1_555 1_555
C3I C4I 1_555 1_555
C3B C4B 1_555 1_555
C3K C4K 1_555 1_555
C3C C4C 1_555 1_555
C3G C4G 1_555 1_555
C3O C4O 1_555 1_555
C3S C4S 1_555 1_555
C3P C4P 1_555 1_555
C3R C4R 1_555 1_555

#END
