
#######################################################################
#
#                 Cambridge Crystallographic Data Centre
#                                CCDC 
#
#######################################################################
#
# If this CIF has been generated from an entry in the Cambridge 
# Structural Database, then it will include bibliographic, chemical, 
# crystal, experimental, refinement or atomic coordinate data resulting 
# from the CCDC's data processing and validation procedures.
#
#######################################################################

data_ILUGOM
_chemical_formula_moiety         '(C42 H34 Er2 Fe3 N6 O32)n'
_symmetry_cell_setting           hexagonal
_symmetry_space_group_name_H-M   'P 6/m c c'
_symmetry_Int_Tables_number      192
_space_group_name_Hall           '-P 6 2c'
loop_
_symmetry_equiv_pos_site_id
_symmetry_equiv_pos_as_xyz
1 x,y,z
2 x-y,x,z
3 -y,x-y,z
4 -x,-y,z
5 -x+y,-x,z
6 y,-x+y,z
7 -y,-x,1/2-z
8 x-y,-y,1/2-z
9 x,x-y,1/2-z
10 y,x,1/2-z
11 -x+y,y,1/2-z
12 -x,-x+y,1/2-z
13 -x,-y,-z
14 -x+y,-x,-z
15 y,-x+y,-z
16 x,y,-z
17 x-y,x,-z
18 -y,x-y,-z
19 y,x,1/2+z
20 -x+y,y,1/2+z
21 -x,-x+y,1/2+z
22 -y,-x,1/2+z
23 x-y,-y,1/2+z
24 x,x-y,1/2+z
_cell_length_a                   15.165(7)
_cell_length_b                   15.165(7)
_cell_length_c                   15.713(8)
_cell_angle_alpha                90
_cell_angle_beta                 90
_cell_angle_gamma                120
_cell_volume                     3129.5
loop_
_atom_site_label
_atom_site_type_symbol
_atom_site_fract_x
_atom_site_fract_y
_atom_site_fract_z
Er1 Er 0.3333 0.6667 0.2500
Fe1 Fe 0.5000 0.5000 0.0000
O1 O 0.4107(2) 0.6104(2) 0.1445(2)
O2 O 0.5508(2) 0.6157(2) 0.0912(2)
O3 O 0.6524(3) 0.5125(3) 0.0000
N1 N 0.5209(3) 0.76047(17) 0.2500
C1 C 0.7293(5) 0.8647(2) 0.2500
H1 H 0.8001 0.9001 0.2500
C2 C 0.6771(3) 0.7860(4) 0.1934(4)
H2 H 0.7115 0.7680 0.1544
C3 C 0.5727(3) 0.7351(3) 0.1964(3)
C4 C 0.5066(4) 0.6466(3) 0.1393(3)
Er1M Er 0.3334 0.6667 -0.2500
Er1P Er 0.6666 0.3333 -0.2500
Fe1A Fe 0.0000 0.5000 0.0000
Fe1B Fe 0.5000 1.0000 0.0000
Fe1F Fe 0.5000 0.5000 -0.5000
Fe1F_2 Fe 0.5000 0.5000 0.5000
Fe1G Fe -0.0000 0.5000 0.5000
Fe1H Fe 0.5000 0.0000 -0.5000
Fe1H_2 Fe 0.5000 1.0000 -0.5000
Fe1H_3 Fe 0.5000 1.0000 0.5000
O1H O 0.4107(2) 0.8003(3) 0.3555(2)
O1O O 0.4107(2) 0.6104(2) -0.1445(2)
O1W O 0.4107(2) 0.8003(3) -0.3555(2)
O1D O 0.1997(3) 0.5893(2) 0.1445(2)
O1F O 0.3896(2) 0.5893(2) 0.3555(2)
O1M O 0.1997(3) 0.5893(2) -0.1445(2)
O1U O 0.3896(2) 0.5893(2) -0.3555(2)
O1B O 0.3896(2) 0.8003(3) 0.1445(2)
O1J O 0.1997(3) 0.6104(2) 0.3555(2)
O1L O 0.5893(2) 0.3896(2) -0.1445(2)
O1T O 0.5893(2) 0.1997(3) -0.3555(2)
O1S O 0.1997(3) 0.6104(2) -0.3555(2)
O1Q O 0.3896(2) 0.8003(3) -0.1445(2)
O2H O 0.5508(2) 0.9351(3) 0.4088(2)
O2O O 0.5508(2) 0.6157(2) -0.0912(2)
O2W O 0.5508(2) 0.9351(3) -0.4088(2)
O2D O 0.0649(3) 0.4492(2) 0.0912(2)
O2F O 0.3843(2) 0.4492(2) 0.4088(2)
O2M O 0.0649(3) 0.4492(2) -0.0912(2)
O2U O 0.3843(2) 0.4492(2) -0.4088(2)
O2B O 0.3843(2) 0.9351(3) 0.0912(2)
O2J O 0.0649(3) 0.6157(2) 0.4088(2)
O2L O 0.4492(2) 0.3843(2) -0.0912(2)
O2T O 0.4492(2) 0.0649(3) -0.4088(2)
O2E O 0.6157(2) 1.0649(3) 0.0912(2)
O2N O 0.6157(2) 1.0649(3) -0.0912(2)
O2A O -0.0649(3) 0.5508(2) 0.0912(2)
O2C O 0.4492(2) 0.3843(2) 0.0912(2)
O2P O -0.0649(3) 0.5508(2) -0.0912(2)
O2Q O 0.3843(2) 0.9351(3) -0.0912(2)
O3C O 0.3476(3) 0.4875(3) 0.0000
O3A O 0.1399(4) 0.6524(3) 0.0000
O3D O -0.1399(4) 0.3476(3) 0.0000
O3B O 0.4875(3) 1.1399(4) 0.0000
O3E O 0.5125(3) 0.8601(4) 0.0000
N1O N 0.5209(3) 0.76047(17) -0.2500
N1D N 0.23957(34) 0.4791(3) 0.2500
N1M N 0.23957(34) 0.4791(3) -0.2500
N1B N 0.23953(17) 0.76043(34) 0.2500
N1L N 0.4791(3) 0.23953(17) -0.2500
N1S N 0.23957(34) 0.76047(17) -0.2500
C1O C 0.7293(5) 0.8647(2) -0.2500
C1D C 0.1354(5) 0.2707(5) 0.2500
C1M C 0.1354(5) 0.2707(5) -0.2500
C1B C 0.1353(2) 0.8646(5) 0.2500
C1L C 0.2707(5) 0.1353(2) -0.2500
H1O H 0.8001 0.9001 -0.2500
H1D H 0.1000 0.1999 0.2500
H1M H 0.1000 0.1999 -0.2500
H1B H 0.0999 0.9000 0.2500
H1L H 0.1999 0.0999 -0.2500
C2H C 0.6771(3) 0.8911(5) 0.3066(4)
C2O C 0.6771(3) 0.7860(4) -0.1934(4)
C2W C 0.6771(3) 0.8911(5) -0.3066(4)
C2D C 0.1089(5) 0.3229(3) 0.1934(4)
C2F C 0.2140(4) 0.3229(3) 0.3066(4)
C2M C 0.1089(5) 0.3229(3) -0.1934(4)
C2U C 0.2140(4) 0.3229(3) -0.3066(4)
C2B C 0.2140(4) 0.8911(5) 0.1934(4)
C2J C 0.1089(5) 0.7860(4) 0.3066(4)
C2L C 0.3229(3) 0.2140(4) -0.1934(4)
C2T C 0.3229(3) 0.1089(5) -0.3066(4)
H2H H 0.7115 0.9435 0.3456
H2O H 0.7115 0.7680 -0.1544
H2W H 0.7115 0.9435 -0.3456
H2D H 0.0565 0.2885 0.1544
H2F H 0.2320 0.2885 0.3456
H2M H 0.0565 0.2885 -0.1544
H2U H 0.2320 0.2885 -0.3456
H2B H 0.2320 0.9435 0.1544
H2J H 0.0565 0.7680 0.3456
H2L H 0.2885 0.2320 -0.1544
H2T H 0.2885 0.0565 -0.3456
C3H C 0.5727(3) 0.8376(4) 0.3036(3)
C3O C 0.5727(3) 0.7351(3) -0.1964(3)
C3W C 0.5727(3) 0.8376(4) -0.3036(3)
C3D C 0.1624(4) 0.4273(3) 0.1964(3)
C3F C 0.2649(3) 0.4273(3) 0.3036(3)
C3M C 0.1624(4) 0.4273(3) -0.1964(3)
C3U C 0.2649(3) 0.4273(3) -0.3036(3)
C3B C 0.2649(3) 0.8376(4) 0.1964(3)
C3J C 0.1624(4) 0.7351(3) 0.3036(3)
C3L C 0.4273(3) 0.2649(3) -0.1964(3)
C3T C 0.4273(3) 0.1624(4) -0.3036(3)
C4H C 0.5066(4) 0.8600(5) 0.3607(3)
C4O C 0.5066(4) 0.6466(3) -0.1393(3)
C4W C 0.5066(4) 0.8600(5) -0.3607(3)
C4D C 0.1400(5) 0.4934(4) 0.1393(3)
C4F C 0.3534(3) 0.4934(4) 0.3607(3)
C4M C 0.1400(5) 0.4934(4) -0.1393(3)
C4U C 0.3534(3) 0.4934(4) -0.3607(3)
C4B C 0.3534(3) 0.8600(5) 0.1393(3)
C4J C 0.1400(5) 0.6466(3) 0.3607(3)
C4L C 0.4934(4) 0.3534(3) -0.1393(3)
C4T C 0.4934(4) 0.1400(5) -0.3607(3)
O4 O 0.0000 0.0000 0.2500
O5 O 0.7920(11) 0.7380(9) 1.0000
loop_
_geom_bond_atom_site_label_1
_geom_bond_atom_site_label_2
_geom_bond_site_symmetry_1
_geom_bond_site_symmetry_2
Er1 O1 1_555 1_555
Fe1 O2 1_555 1_555
O1 C4 1_555 1_555
O2 C4 1_555 1_555
O3 Fe1 1_555 1_555
N1 Er1 1_555 1_555
C1 H1 1_555 1_555
C2 C1 1_555 1_555
H2 C2 1_555 1_555
C3 N1 1_555 1_555
C4 C3 1_555 1_555
Er1M O1O 1_555 1_555
Er1P O1L 1_555 1_555
Fe1A O2D 1_555 1_555
Fe1B O2B 1_555 1_555
Fe1F O2U 1_555 1_555
Fe1F_2 O2F 1_555 1_555
Fe1G O2J 1_555 1_555
Fe1H O2T 1_555 1_555
Fe1H_2 O2W 1_555 1_555
Fe1H_3 O2H 1_555 1_555
O1H Er1 1_555 1_555
O1O C4O 1_555 1_555
O1W Er1M 1_555 1_555
O1D Er1 1_555 1_555
O1F Er1 1_555 1_555
O1M Er1M 1_555 1_555
O1U Er1M 1_555 1_555
O1B Er1 1_555 1_555
O1J Er1 1_555 1_555
O1L C4L 1_555 1_555
O1T Er1P 1_555 1_555
O1S Er1M 1_555 1_555
O1Q Er1M 1_555 1_555
O2H C4H 1_555 1_555
O2O Fe1 1_555 1_555
O2W C4W 1_555 1_555
O2D C4D 1_555 1_555
O2F C4F 1_555 1_555
O2M Fe1A 1_555 1_555
O2U C4U 1_555 1_555
O2B C4B 1_555 1_555
O2J C4J 1_555 1_555
O2L Fe1 1_555 1_555
O2T C4T 1_555 1_555
O2E Fe1B 1_555 1_555
O2N Fe1B 1_555 1_555
O2A Fe1A 1_555 1_555
O2C Fe1 1_555 1_555
O2P Fe1A 1_555 1_555
O2Q Fe1B 1_555 1_555
O3C Fe1 1_555 1_555
O3A Fe1A 1_555 1_555
O3D Fe1A 1_555 1_555
O3B Fe1B 1_555 1_555
O3E Fe1B 1_555 1_555
N1O Er1M 1_555 1_555
N1D Er1 1_555 1_555
N1M Er1M 1_555 1_555
N1B Er1 1_555 1_555
N1L Er1P 1_555 1_555
N1S Er1M 1_555 1_555
C1O H1O 1_555 1_555
C1D H1D 1_555 1_555
C1M H1M 1_555 1_555
C1B H1B 1_555 1_555
C1L H1L 1_555 1_555
C2H C1 1_555 1_555
C2O C1O 1_555 1_555
C2W C1O 1_555 1_555
C2D C1D 1_555 1_555
C2F C1D 1_555 1_555
C2M C1M 1_555 1_555
C2U C1M 1_555 1_555
C2B C1B 1_555 1_555
C2J C1B 1_555 1_555
C2L C1L 1_555 1_555
C2T C1L 1_555 1_555
H2H C2H 1_555 1_555
H2O C2O 1_555 1_555
H2W C2W 1_555 1_555
H2D C2D 1_555 1_555
H2F C2F 1_555 1_555
H2M C2M 1_555 1_555
H2U C2U 1_555 1_555
H2B C2B 1_555 1_555
H2J C2J 1_555 1_555
H2L C2L 1_555 1_555
H2T C2T 1_555 1_555
C3H N1 1_555 1_555
C3O N1O 1_555 1_555
C3W N1O 1_555 1_555
C3D N1D 1_555 1_555
C3F N1D 1_555 1_555
C3M N1M 1_555 1_555
C3U N1M 1_555 1_555
C3B N1B 1_555 1_555
C3J N1B 1_555 1_555
C3L N1L 1_555 1_555
C3T N1L 1_555 1_555
C4H O1H 1_555 1_555
C4O O2O 1_555 1_555
C4W O1W 1_555 1_555
C4D O1D 1_555 1_555
C4F O1F 1_555 1_555
C4M O1M 1_555 1_555
C4U O1U 1_555 1_555
C4B O1B 1_555 1_555
C4J O1J 1_555 1_555
C4L O2L 1_555 1_555
C4T O1T 1_555 1_555
C2 C3 1_555 1_555
O2M C4M 1_555 1_555
C2H C3H 1_555 1_555
C2O C3O 1_555 1_555
C2W C3W 1_555 1_555
C2D C3D 1_555 1_555
C2F C3F 1_555 1_555
C2M C3M 1_555 1_555
C2U C3U 1_555 1_555
C2B C3B 1_555 1_555
C2J C3J 1_555 1_555
C2L C3L 1_555 1_555
C2T C3T 1_555 1_555
C3H C4H 1_555 1_555
C3O C4O 1_555 1_555
C3W C4W 1_555 1_555
C3D C4D 1_555 1_555
C3F C4F 1_555 1_555
C3M C4M 1_555 1_555
C3U C4U 1_555 1_555
C3B C4B 1_555 1_555
C3J C4J 1_555 1_555
C3L C4L 1_555 1_555
C3T C4T 1_555 1_555

#END
