
#######################################################################
#
#                 Cambridge Crystallographic Data Centre
#                                CCDC 
#
#######################################################################
#
# If this CIF has been generated from an entry in the Cambridge 
# Structural Database, then it will include bibliographic, chemical, 
# crystal, experimental, refinement or atomic coordinate data resulting 
# from the CCDC's data processing and validation procedures.
#
#######################################################################

data_ILUHON
_chemical_formula_moiety         '(C42 H34 Fe3 N6 Nd2 O32)n'
_symmetry_cell_setting           hexagonal
_symmetry_space_group_name_H-M   'P 6/m c c'
_symmetry_Int_Tables_number      192
_space_group_name_Hall           '-P 6 2c'
loop_
_symmetry_equiv_pos_site_id
_symmetry_equiv_pos_as_xyz
1 x,y,z
2 x-y,x,z
3 -y,x-y,z
4 -x,-y,z
5 -x+y,-x,z
6 y,-x+y,z
7 -y,-x,1/2-z
8 x-y,-y,1/2-z
9 x,x-y,1/2-z
10 y,x,1/2-z
11 -x+y,y,1/2-z
12 -x,-x+y,1/2-z
13 -x,-y,-z
14 -x+y,-x,-z
15 y,-x+y,-z
16 x,y,-z
17 x-y,x,-z
18 -y,x-y,-z
19 y,x,1/2+z
20 -x+y,y,1/2+z
21 -x,-x+y,1/2+z
22 -y,-x,1/2+z
23 x-y,-y,1/2+z
24 x,x-y,1/2+z
_cell_length_a                   15.329(3)
_cell_length_b                   15.329(3)
_cell_length_c                   15.403(6)
_cell_angle_alpha                90
_cell_angle_beta                 90
_cell_angle_gamma                120
_cell_volume                     3134.47
loop_
_atom_site_label
_atom_site_type_symbol
_atom_site_fract_x
_atom_site_fract_y
_atom_site_fract_z
Nd1 Nd 0.6667 0.3333 0.2500
Fe1 Fe 1.0000 0.5000 0.0000
O1 O 0.8037(3) 0.4183(3) 0.1419(2)
O2 O 0.9397(3) 0.5558(3) 0.0927(3)
O3 O 1.1378(4) 0.6481(4) 0.0000
N1 N 0.7628(2) 0.5256(4) 0.2500
C1 C 0.8635(4) 0.5123(4) 0.1387(3)
C2 C 0.8400(4) 0.5769(4) 0.1961(3)
C3 C 0.8928(5) 0.6796(4) 0.1941(4)
H1 H 0.9460 0.7137 0.1555
C4 C 0.8657(3) 0.7315(6) 0.2500
H2 H 0.9008 0.8015 0.2500
Nd1M Nd 0.6666 0.3333 -0.2500
Nd1A Nd 0.3334 0.6667 0.2500
Fe1A Fe 0.5000 0.0000 0.0000
Fe1B Fe 0.5000 0.5000 0.0000
Fe1F Fe 0.5000 -0.0000 0.5000
Fe1F_2 Fe 0.5000 1.0000 0.5000
Fe1G Fe 0.5000 0.5000 0.5000
Fe1H Fe 1.0000 0.5000 -0.5000
Fe1H_2 Fe 1.0000 0.5000 0.5000
Fe1F_3 Fe 0.5000 0.0000 -0.5000
O1J O 0.6146(4) 0.4183(3) 0.3581(2)
O1O O 0.8037(3) 0.4183(3) -0.1419(2)
O1S O 0.6146(4) 0.4183(3) -0.3581(2)
O1D O 0.6146(4) 0.1963(3) 0.1419(2)
O1H O 0.8037(3) 0.3854(4) 0.3581(2)
O1M O 0.6146(4) 0.1963(3) -0.1419(2)
O1W O 0.8037(3) 0.3854(4) -0.3581(2)
O1B O 0.5817(3) 0.3854(4) 0.1419(2)
O1F O 0.5817(3) 0.1963(3) 0.3581(2)
O1E O 0.4183(3) 0.6146(4) 0.1419(2)
O1I O 0.4183(3) 0.8037(3) 0.3581(2)
O1U O 0.5817(3) 0.1963(3) -0.3581(2)
O1Q O 0.5817(3) 0.3854(4) -0.1419(2)
O2J O 0.6161(4) 0.5558(3) 0.4073(3)
O2O O 0.9397(3) 0.5558(3) -0.0927(3)
O2D O 0.6161(4) 0.0603(3) 0.0927(3)
O2H O 0.9397(3) 0.3839(4) 0.4073(3)
O2M O 0.6161(4) 0.0603(3) -0.0927(3)
O2W O 0.9397(3) 0.3839(4) -0.4073(3)
O2B O 0.4442(3) 0.3839(4) 0.0927(3)
O2F O 0.4442(3) 0.0603(3) 0.4073(3)
O2E O 0.5558(3) 0.6161(4) 0.0927(3)
O2I O 0.5558(3) 0.9397(3) 0.4073(3)
O2C O 1.0603(3) 0.4442(3) 0.0927(3)
O2A O 0.3839(4) -0.0603(3) 0.0927(3)
O2N O 0.5558(3) 0.6161(4) -0.0927(3)
O2P O 0.3839(4) -0.0603(3) -0.0927(3)
O2Q O 0.4442(3) 0.3839(4) -0.0927(3)
O2L O 1.0603(3) 0.4442(3) -0.0927(3)
O2U O 0.4442(3) 0.0603(3) -0.4073(3)
O3C O 0.8622(4) 0.3519(4) 0.0000
O3A O 0.4897(6) 0.1378(4) 0.0000
O3D O 0.5103(6) -0.1378(4) 0.0000
O3E O 0.6481(4) 0.5103(6) 0.0000
O3B O 0.3519(4) 0.4897(6) 0.0000
N1O N 0.7628(2) 0.5256(4) -0.2500
N1D N 0.7628(4) 0.2372(2) 0.2500
N1M N 0.7628(4) 0.2372(2) -0.2500
N1B N 0.4744(4) 0.2372(4) 0.2500
N1E N 0.5256(4) 0.7628(4) 0.2500
N1Q N 0.4744(4) 0.2372(4) -0.2500
C1J C 0.6488(6) 0.5123(4) 0.3613(3)
C1D C 0.6488(6) 0.1365(4) 0.1387(3)
C1H C 0.8635(4) 0.3512(6) 0.3613(3)
C1M C 0.6488(6) 0.1365(4) -0.1387(3)
C1W C 0.8635(4) 0.3512(6) -0.3613(3)
C1B C 0.4877(4) 0.3512(6) 0.1387(3)
C1F C 0.4877(4) 0.1365(4) 0.3613(3)
C1E C 0.5123(4) 0.6488(6) 0.1387(3)
C1I C 0.5123(4) 0.8635(4) 0.3613(3)
C1U C 0.4877(4) 0.1365(4) -0.3613(3)
C1Q C 0.4877(4) 0.3512(6) -0.1387(3)
C2J C 0.7369(6) 0.5769(4) 0.3039(3)
C2D C 0.7369(6) 0.1600(4) 0.1961(3)
C2H C 0.8400(4) 0.2631(6) 0.3039(3)
C2M C 0.7369(6) 0.1600(4) -0.1961(3)
C2W C 0.8400(4) 0.2631(6) -0.3039(3)
C2B C 0.4231(4) 0.2631(6) 0.1961(3)
C2F C 0.4231(4) 0.1600(4) 0.3039(3)
C2E C 0.5769(4) 0.7369(6) 0.1961(3)
C2I C 0.5769(4) 0.8400(4) 0.3039(3)
C2Q C 0.4231(4) 0.2631(6) -0.1961(3)
C2U C 0.4231(4) 0.1600(4) -0.3039(3)
C3J C 0.7868(6) 0.6796(4) 0.3059(4)
C3D C 0.7868(6) 0.1072(5) 0.1941(4)
C3H C 0.8928(5) 0.2132(6) 0.3059(4)
C3M C 0.7868(6) 0.1072(5) -0.1941(4)
C3W C 0.8928(5) 0.2132(6) -0.3059(4)
C3B C 0.3204(4) 0.2132(6) 0.1941(4)
C3F C 0.3204(4) 0.1072(5) 0.3059(4)
C3E C 0.6796(4) 0.7868(6) 0.1941(4)
C3I C 0.6796(4) 0.8928(5) 0.3059(4)
C3Q C 0.3204(4) 0.2132(6) -0.1941(4)
C3U C 0.3204(4) 0.1072(5) -0.3059(4)
H1J H 0.7677 0.7137 0.3445
H1D H 0.7677 0.0540 0.1555
H1H H 0.9460 0.2323 0.3445
H1M H 0.7677 0.0540 -0.1555
H1W H 0.9460 0.2323 -0.3445
H1B H 0.2863 0.2323 0.1555
H1F H 0.2863 0.0540 0.3445
H1E H 0.7137 0.7677 0.1555
H1I H 0.7137 0.9460 0.3445
H1Q H 0.2863 0.2323 -0.1555
H1U H 0.2863 0.0540 -0.3445
C4D C 0.8658(7) 0.1343(3) 0.2500
C4M C 0.8658(7) 0.1343(3) -0.2500
C4B C 0.2685(6) 0.1342(7) 0.2500
C4E C 0.7315(6) 0.8658(7) 0.2500
C4Q C 0.2685(6) 0.1342(7) -0.2500
H2D H 0.9007 0.0992 0.2500
H2M H 0.9007 0.0992 -0.2500
H2B H 0.1985 0.0993 0.2500
H2E H 0.8015 0.9007 0.2500
H2Q H 0.1985 0.0993 -0.2500
O4 O 0.7321(13) 0.9445(18) 0.0000
O5 O 0.0000 -0.0000 0.178(7)
loop_
_geom_bond_atom_site_label_1
_geom_bond_atom_site_label_2
_geom_bond_site_symmetry_1
_geom_bond_site_symmetry_2
Nd1 O1 1_555 1_555
Fe1 O2 1_555 1_555
O1 C1 1_555 1_555
O2 C1 1_555 1_555
O3 Fe1 1_555 1_555
N1 Nd1 1_555 1_555
C1 C2 1_555 1_555
C2 N1 1_555 1_555
C3 C2 1_555 1_555
H1 C3 1_555 1_555
C4 C3 1_555 1_555
H2 C4 1_555 1_555
Nd1M O1O 1_555 1_555
Nd1A O1E 1_555 1_555
Fe1A O2D 1_555 1_555
Fe1B O2B 1_555 1_555
Fe1F O2F 1_555 1_555
Fe1F_2 O2I 1_555 1_555
Fe1G O2J 1_555 1_555
Fe1H O2W 1_555 1_555
Fe1H_2 O2H 1_555 1_555
Fe1F_3 O2U 1_555 1_555
O1J Nd1 1_555 1_555
O1S Nd1M 1_555 1_555
O1D Nd1 1_555 1_555
O1H Nd1 1_555 1_555
O1M Nd1M 1_555 1_555
O1W Nd1M 1_555 1_555
O1B Nd1 1_555 1_555
O1F Nd1 1_555 1_555
O1E C1E 1_555 1_555
O1I Nd1A 1_555 1_555
O1U Nd1M 1_555 1_555
O1Q Nd1M 1_555 1_555
O2J C1J 1_555 1_555
O2O Fe1 1_555 1_555
O2D C1D 1_555 1_555
O2H C1H 1_555 1_555
O2M Fe1A 1_555 1_555
O2W C1W 1_555 1_555
O2B C1B 1_555 1_555
O2F C1F 1_555 1_555
O2E Fe1B 1_555 1_555
O2I C1I 1_555 1_555
O2C Fe1 1_555 1_555
O2A Fe1A 1_555 1_555
O2N Fe1B 1_555 1_555
O2P Fe1A 1_555 1_555
O2Q Fe1B 1_555 1_555
O2L Fe1 1_555 1_555
O2U C1U 1_555 1_555
O3C Fe1 1_555 1_555
O3A Fe1A 1_555 1_555
O3D Fe1A 1_555 1_555
O3E Fe1B 1_555 1_555
O3B Fe1B 1_555 1_555
N1O Nd1M 1_555 1_555
N1D Nd1 1_555 1_555
N1M Nd1M 1_555 1_555
N1B Nd1 1_555 1_555
N1E Nd1A 1_555 1_555
N1Q Nd1M 1_555 1_555
C1J O1J 1_555 1_555
C1D O1D 1_555 1_555
C1H O1H 1_555 1_555
C1M O1M 1_555 1_555
C1W O1W 1_555 1_555
C1B O1B 1_555 1_555
C1F O1F 1_555 1_555
C1E O2E 1_555 1_555
C1I O1I 1_555 1_555
C1U O1U 1_555 1_555
C1Q O1Q 1_555 1_555
C2J N1 1_555 1_555
C2D N1D 1_555 1_555
C2H N1D 1_555 1_555
C2M N1M 1_555 1_555
C2W N1M 1_555 1_555
C2B N1B 1_555 1_555
C2F N1B 1_555 1_555
C2E N1E 1_555 1_555
C2I N1E 1_555 1_555
C2Q N1Q 1_555 1_555
C2U N1Q 1_555 1_555
C3J C4 1_555 1_555
C3D C2D 1_555 1_555
C3H C2H 1_555 1_555
C3M C2M 1_555 1_555
C3W C2W 1_555 1_555
C3B C2B 1_555 1_555
C3F C2F 1_555 1_555
C3E C2E 1_555 1_555
C3I C2I 1_555 1_555
C3Q C2Q 1_555 1_555
C3U C2U 1_555 1_555
H1J C3J 1_555 1_555
H1D C3D 1_555 1_555
H1H C3H 1_555 1_555
H1M C3M 1_555 1_555
H1W C3W 1_555 1_555
H1B C3B 1_555 1_555
H1F C3F 1_555 1_555
H1E C3E 1_555 1_555
H1I C3I 1_555 1_555
H1Q C3Q 1_555 1_555
H1U C3U 1_555 1_555
C4D C3D 1_555 1_555
C4M C3M 1_555 1_555
C4B C3B 1_555 1_555
C4E C3E 1_555 1_555
C4Q C3Q 1_555 1_555
H2D C4D 1_555 1_555
H2M C4M 1_555 1_555
H2B C4B 1_555 1_555
H2E C4E 1_555 1_555
H2Q C4Q 1_555 1_555
O2M C1M 1_555 1_555
O2Q C1Q 1_555 1_555
C1J C2J 1_555 1_555
C1D C2D 1_555 1_555
C1H C2H 1_555 1_555
C1M C2M 1_555 1_555
C1W C2W 1_555 1_555
C1B C2B 1_555 1_555
C1F C2F 1_555 1_555
C1E C2E 1_555 1_555
C1I C2I 1_555 1_555
C1U C2U 1_555 1_555
C1Q C2Q 1_555 1_555
C2J C3J 1_555 1_555
C3H C4D 1_555 1_555
C3W C4M 1_555 1_555
C3F C4B 1_555 1_555
C3I C4E 1_555 1_555
C3U C4Q 1_555 1_555

#END
