
#######################################################################
#
#                 Cambridge Crystallographic Data Centre
#                                CCDC 
#
#######################################################################
#
# If this CIF has been generated from an entry in the Cambridge 
# Structural Database, then it will include bibliographic, chemical, 
# crystal, experimental, refinement or atomic coordinate data resulting 
# from the CCDC's data processing and validation procedures.
#
#######################################################################

data_ILUHIH
_chemical_formula_moiety         '(C42 H34 Fe3 Ho2 N6 O32)n'
_symmetry_cell_setting           hexagonal
_symmetry_space_group_name_H-M   'P 6/m c c'
_symmetry_Int_Tables_number      192
_space_group_name_Hall           '-P 6 2c'
loop_
_symmetry_equiv_pos_site_id
_symmetry_equiv_pos_as_xyz
1 x,y,z
2 -y,x-y,z
3 -x+y,-x,z
4 -x,-y,z
5 y,-x+y,z
6 x-y,x,z
7 y,x,1/2-z
8 x-y,-y,1/2-z
9 -x,-x+y,1/2-z
10 -y,-x,1/2-z
11 -x+y,y,1/2-z
12 x,x-y,1/2-z
13 -x,-y,-z
14 y,-x+y,-z
15 x-y,x,-z
16 x,y,-z
17 -y,x-y,-z
18 -x+y,-x,-z
19 -y,-x,1/2+z
20 -x+y,y,1/2+z
21 x,x-y,1/2+z
22 y,x,1/2+z
23 x-y,-y,1/2+z
24 -x,-x+y,1/2+z
_cell_length_a                   15.187(2)
_cell_length_b                   15.187(2)
_cell_length_c                   15.616(4)
_cell_angle_alpha                90
_cell_angle_beta                 90
_cell_angle_gamma                120
_cell_volume                     3119.21
loop_
_atom_site_label
_atom_site_type_symbol
_atom_site_fract_x
_atom_site_fract_y
_atom_site_fract_z
Ho1 Ho 0.3333 0.6667 -0.2500
Fe1 Fe 0.5000 1.0000 -0.5000
O1 O 0.4119(2) 0.8002(2) -0.35573(17)
O2 O 0.5505(2) 0.9356(3) -0.4084(2)
O3 O 0.3487(4) 0.8619(3) -0.5000
H1 H 0.3437 0.8265 -0.4585
N1 N 0.52062(16) 0.76031(16) -0.2500
C1 C 0.5063(4) 0.8604(3) -0.3610(3)
C2 C 0.5723(4) 0.8385(3) -0.3039(3)
C3 C 0.6764(5) 0.8914(3) -0.3061(3)
H2 H 0.7107 0.9444 -0.3447
C4 C 0.7302(3) 0.8651(2) -0.2500
H3 H 0.8008 0.9004 -0.2500
Ho1O Ho 0.3333 0.6667 -0.7500
Ho1C Ho 0.6667 0.3333 -0.2500
Fe1B Fe 0.5000 0.5000 -0.5000
Fe1A Fe -0.0000 0.5000 -0.5000
Fe1F Fe -0.0000 0.5000 -1.0000
Fe1F_2 Fe 0.0000 0.5000 0.0000
Fe1F_3 Fe 1.0000 0.5000 0.0000
Fe1G Fe 0.5000 1.0000 0.0000
Fe1H Fe 0.5000 0.5000 0.0000
Fe1G_2 Fe 0.5000 1.0000 -1.0000
O1K O 0.4119(2) 0.6117(3) -0.14427(17)
O1A O 0.1998(2) 0.6117(3) -0.35573(17)
O1J O 0.3883(3) 0.8002(2) -0.14427(17)
O1B O 0.3883(3) 0.5881(2) -0.35573(17)
O1I O 0.1998(2) 0.5881(2) -0.14427(17)
O1E O 0.6117(3) 0.4119(2) -0.35573(17)
O1F O 0.8002(2) 0.4119(2) -0.14427(17)
O1Q O 0.3883(3) 0.5881(2) -0.64427(17)
O1R O 0.1998(2) 0.5881(2) -0.85573(17)
O1S O 0.3883(3) 0.8002(2) -0.85573(17)
O1T O 0.4119(2) 0.6117(3) -0.85573(17)
O1P O 0.1998(2) 0.6117(3) -0.64427(17)
O1O O 0.4119(2) 0.8002(2) -0.64427(17)
O2K O 0.5505(2) 0.6149(4) -0.0916(2)
O2A O 0.0644(3) 0.6149(4) -0.4084(2)
O2J O 0.3851(4) 0.9356(3) -0.0916(2)
O2B O 0.3851(4) 0.4495(2) -0.4084(2)
O2I O 0.0644(3) 0.4495(2) -0.0916(2)
O2E O 0.6149(4) 0.5505(2) -0.4084(2)
O2F O 0.9356(3) 0.5505(2) -0.0916(2)
O2Q O 0.3851(4) 0.4495(2) -0.5916(2)
O2R O 0.0644(3) 0.4495(2) -0.9084(2)
O2C O 0.4495(2) 1.0644(3) -0.4084(2)
O2O O 0.5505(2) 0.9356(3) -0.5916(2)
O2N O 0.6149(4) 0.5505(2) -0.5916(2)
O2L O 0.4495(2) 1.0644(3) -0.5916(2)
O2D O -0.0644(3) 0.3851(4) -0.4084(2)
O2M O -0.0644(3) 0.3851(4) -0.5916(2)
O2P O 0.0644(3) 0.6149(4) -0.5916(2)
O2S O 0.3851(4) 0.9356(3) -0.9084(2)
O3B O 0.5132(5) 0.6513(4) -0.5000
O3C O 0.6513(4) 1.1381(3) -0.5000
O3E O 0.4868(5) 0.3487(4) -0.5000
O3A O 0.1381(3) 0.4868(5) -0.5000
O3D O -0.1381(3) 0.5132(5) -0.5000
H1O H 0.3437 0.8265 -0.5415
H1B H 0.4828 0.6563 -0.4585
H1Q H 0.4828 0.6563 -0.5415
H1C H 0.6563 1.1735 -0.4585
H1L H 0.6563 1.1735 -0.5415
H1E H 0.5172 0.3437 -0.4585
H1N H 0.5172 0.3437 -0.5415
H1A H 0.1735 0.5172 -0.4585
H1P H 0.1735 0.5172 -0.5415
H1D H -0.1735 0.4828 -0.4585
H1M H -0.1735 0.4828 -0.5415
N1A N 0.23969(16) 0.76031(23) -0.2500
N1B N 0.23969(23) 0.47938(16) -0.2500
N1E N 0.76031(23) 0.52062(16) -0.2500
N1Q N 0.23969(23) 0.47938(16) -0.7500
N1P N 0.23969(16) 0.76031(23) -0.7500
N1O N 0.52062(16) 0.76031(16) -0.7500
C1K C 0.5063(4) 0.6459(5) -0.1390(3)
C1A C 0.1396(3) 0.6459(5) -0.3610(3)
C1J C 0.3541(5) 0.8604(3) -0.1390(3)
C1B C 0.3541(5) 0.4937(4) -0.3610(3)
C1I C 0.1396(3) 0.4937(4) -0.1390(3)
C1E C 0.6459(5) 0.5063(4) -0.3610(3)
C1F C 0.8604(3) 0.5063(4) -0.1390(3)
C1Q C 0.3541(5) 0.4937(4) -0.6390(3)
C1R C 0.1396(3) 0.4937(4) -0.8610(3)
C1S C 0.3541(5) 0.8604(3) -0.8610(3)
C1P C 0.1396(3) 0.6459(5) -0.6390(3)
C2K C 0.5723(4) 0.7338(5) -0.1961(3)
C2A C 0.1615(3) 0.7338(5) -0.3039(3)
C2J C 0.2662(5) 0.8385(3) -0.1961(3)
C2B C 0.2662(5) 0.4277(4) -0.3039(3)
C2I C 0.1615(3) 0.4277(4) -0.1961(3)
C2E C 0.7338(5) 0.5723(4) -0.3039(3)
C2F C 0.8385(3) 0.5723(4) -0.1961(3)
C2Q C 0.2662(5) 0.4277(4) -0.6961(3)
C2R C 0.1615(3) 0.4277(4) -0.8039(3)
C2P C 0.1615(3) 0.7338(5) -0.6961(3)
C2S C 0.2662(5) 0.8385(3) -0.8039(3)
C3K C 0.6764(5) 0.7850(6) -0.1939(3)
C3A C 0.1086(3) 0.7850(6) -0.3061(3)
C3J C 0.2150(6) 0.8914(3) -0.1939(3)
C3B C 0.2150(6) 0.3236(5) -0.3061(3)
C3I C 0.1086(3) 0.3236(5) -0.1939(3)
C3E C 0.7850(6) 0.6764(5) -0.3061(3)
C3F C 0.8914(3) 0.6764(5) -0.1939(3)
C3Q C 0.2150(6) 0.3236(5) -0.6939(3)
C3R C 0.1086(3) 0.3236(5) -0.8061(3)
C3P C 0.1086(3) 0.7850(6) -0.6939(3)
C3S C 0.2150(6) 0.8914(3) -0.8061(3)
H2K H 0.7107 0.7663 -0.1553
H2A H 0.0556 0.7663 -0.3447
H2J H 0.2337 0.9444 -0.1553
H2B H 0.2337 0.2893 -0.3447
H2I H 0.0556 0.2893 -0.1553
H2E H 0.7663 0.7107 -0.3447
H2F H 0.9444 0.7107 -0.1553
H2Q H 0.2337 0.2893 -0.6553
H2R H 0.0556 0.2893 -0.8447
H2P H 0.0556 0.7663 -0.6553
H2S H 0.2337 0.9444 -0.8447
C4A C 0.1349(2) 0.8651(4) -0.2500
C4B C 0.1349(4) 0.2698(3) -0.2500
C4E C 0.8651(4) 0.7302(3) -0.2500
C4Q C 0.1349(4) 0.2698(3) -0.7500
C4P C 0.1349(2) 0.8651(4) -0.7500
H3A H 0.0996 0.9004 -0.2500
H3B H 0.0996 0.1992 -0.2500
H3E H 0.9004 0.8008 -0.2500
H3Q H 0.0996 0.1992 -0.7500
H3P H 0.0996 0.9004 -0.7500
O4 O 0.2638(10) 0.0544(13) 0.0000
O5 O -0.0000 0.0000 0.190(6)
loop_
_geom_bond_atom_site_label_1
_geom_bond_atom_site_label_2
_geom_bond_site_symmetry_1
_geom_bond_site_symmetry_2
Ho1 O1 1_555 1_555
Fe1 O2 1_555 1_555
O1 C1 1_555 1_555
O2 C1 1_555 1_555
O3 Fe1 1_555 1_555
H1 O3 1_555 1_555
N1 Ho1 1_555 1_555
C1 C2 1_555 1_555
C2 N1 1_555 1_555
C3 C2 1_555 1_555
H2 C3 1_555 1_555
C4 C3 1_555 1_555
H3 C4 1_555 1_555
Ho1O O1Q 1_555 1_555
Ho1C O1E 1_555 1_555
Fe1B O2B 1_555 1_555
Fe1A O2A 1_555 1_555
Fe1F O2R 1_555 1_555
Fe1F_2 O2I 1_555 1_555
Fe1F_3 O2F 1_555 1_555
Fe1G O2J 1_555 1_555
Fe1H O2K 1_555 1_555
Fe1G_2 O2S 1_555 1_555
O1K Ho1 1_555 1_555
O1A Ho1 1_555 1_555
O1J Ho1 1_555 1_555
O1B Ho1 1_555 1_555
O1I Ho1 1_555 1_555
O1E C1E 1_555 1_555
O1F Ho1C 1_555 1_555
O1Q C1Q 1_555 1_555
O1R Ho1O 1_555 1_555
O1S Ho1O 1_555 1_555
O1T Ho1O 1_555 1_555
O1P Ho1O 1_555 1_555
O1O Ho1O 1_555 1_555
O2K C1K 1_555 1_555
O2A C1A 1_555 1_555
O2J C1J 1_555 1_555
O2B C1B 1_555 1_555
O2I C1I 1_555 1_555
O2E Fe1B 1_555 1_555
O2F C1F 1_555 1_555
O2Q Fe1B 1_555 1_555
O2R C1R 1_555 1_555
O2C Fe1 1_555 1_555
O2O Fe1 1_555 1_555
O2N Fe1B 1_555 1_555
O2L Fe1 1_555 1_555
O2D Fe1A 1_555 1_555
O2M Fe1A 1_555 1_555
O2P Fe1A 1_555 1_555
O2S C1S 1_555 1_555
O3B Fe1B 1_555 1_555
O3C Fe1 1_555 1_555
O3E Fe1B 1_555 1_555
O3A Fe1A 1_555 1_555
O3D Fe1A 1_555 1_555
H1O O3 1_555 1_555
H1B O3B 1_555 1_555
H1Q O3B 1_555 1_555
H1C O3C 1_555 1_555
H1L O3C 1_555 1_555
H1E O3E 1_555 1_555
H1N O3E 1_555 1_555
H1A O3A 1_555 1_555
H1P O3A 1_555 1_555
H1D O3D 1_555 1_555
H1M O3D 1_555 1_555
N1A Ho1 1_555 1_555
N1B Ho1 1_555 1_555
N1E Ho1C 1_555 1_555
N1Q Ho1O 1_555 1_555
N1P Ho1O 1_555 1_555
N1O Ho1O 1_555 1_555
C1K O1K 1_555 1_555
C1A O1A 1_555 1_555
C1J O1J 1_555 1_555
C1B O1B 1_555 1_555
C1I O1I 1_555 1_555
C1E O2E 1_555 1_555
C1F O1F 1_555 1_555
C1Q O2Q 1_555 1_555
C1R O1R 1_555 1_555
C1S O1S 1_555 1_555
C1P O1P 1_555 1_555
C2K N1 1_555 1_555
C2A N1A 1_555 1_555
C2J N1A 1_555 1_555
C2B N1B 1_555 1_555
C2I N1B 1_555 1_555
C2E N1E 1_555 1_555
C2F N1E 1_555 1_555
C2Q N1Q 1_555 1_555
C2R N1Q 1_555 1_555
C2P N1P 1_555 1_555
C2S N1P 1_555 1_555
C3K C4 1_555 1_555
C3A C2A 1_555 1_555
C3J C2J 1_555 1_555
C3B C2B 1_555 1_555
C3I C2I 1_555 1_555
C3E C2E 1_555 1_555
C3F C2F 1_555 1_555
C3Q C2Q 1_555 1_555
C3R C2R 1_555 1_555
C3P C2P 1_555 1_555
C3S C2S 1_555 1_555
H2K C3K 1_555 1_555
H2A C3A 1_555 1_555
H2J C3J 1_555 1_555
H2B C3B 1_555 1_555
H2I C3I 1_555 1_555
H2E C3E 1_555 1_555
H2F C3F 1_555 1_555
H2Q C3Q 1_555 1_555
H2R C3R 1_555 1_555
H2P C3P 1_555 1_555
H2S C3S 1_555 1_555
C4A C3A 1_555 1_555
C4B C3B 1_555 1_555
C4E C3E 1_555 1_555
C4Q C3Q 1_555 1_555
C4P C3P 1_555 1_555
H3A C4A 1_555 1_555
H3B C4B 1_555 1_555
H3E C4E 1_555 1_555
H3Q C4Q 1_555 1_555
H3P C4P 1_555 1_555
O2P C1P 1_555 1_555
C1K C2K 1_555 1_555
C1A C2A 1_555 1_555
C1J C2J 1_555 1_555
C1B C2B 1_555 1_555
C1I C2I 1_555 1_555
C1E C2E 1_555 1_555
C1F C2F 1_555 1_555
C1Q C2Q 1_555 1_555
C1R C2R 1_555 1_555
C1S C2S 1_555 1_555
C1P C2P 1_555 1_555
C2K C3K 1_555 1_555
C3J C4A 1_555 1_555
C3I C4B 1_555 1_555
C3F C4E 1_555 1_555
C3R C4Q 1_555 1_555
C3S C4P 1_555 1_555

#END
