
#######################################################################
#
#                 Cambridge Crystallographic Data Centre
#                                CCDC 
#
#######################################################################
#
# If this CIF has been generated from an entry in the Cambridge 
# Structural Database, then it will include bibliographic, chemical, 
# crystal, experimental, refinement or atomic coordinate data resulting 
# from the CCDC's data processing and validation procedures.
#
#######################################################################

data_ILUJAB
_chemical_formula_moiety         '(C42 H34 Fe3 N6 O32 Pr2)n'
_symmetry_cell_setting           hexagonal
_symmetry_space_group_name_H-M   'P 6/m c c'
_symmetry_Int_Tables_number      192
_space_group_name_Hall           '-P 6 2c'
loop_
_symmetry_equiv_pos_site_id
_symmetry_equiv_pos_as_xyz
1 x,y,z
2 -y,x-y,z
3 -x+y,-x,z
4 -x,-y,z
5 y,-x+y,z
6 x-y,x,z
7 y,x,1/2-z
8 x-y,-y,1/2-z
9 -x,-x+y,1/2-z
10 -y,-x,1/2-z
11 -x+y,y,1/2-z
12 x,x-y,1/2-z
13 -x,-y,-z
14 y,-x+y,-z
15 x-y,x,-z
16 x,y,-z
17 -y,x-y,-z
18 -x+y,-x,-z
19 -y,-x,1/2+z
20 -x+y,y,1/2+z
21 x,x-y,1/2+z
22 y,x,1/2+z
23 x-y,-y,1/2+z
24 -x,-x+y,1/2+z
_cell_length_a                   15.514(2)
_cell_length_b                   15.514(2)
_cell_length_c                   15.354(4)
_cell_angle_alpha                90
_cell_angle_beta                 90
_cell_angle_gamma                120
_cell_volume                     3200.37
loop_
_atom_site_label
_atom_site_type_symbol
_atom_site_fract_x
_atom_site_fract_y
_atom_site_fract_z
Pr1 Pr 0.3333 0.6667 0.2500
Fe1 Fe 0.5000 1.0000 0.0000
N1 N 0.23709(17) 0.76291(17) 0.2500
O1 O 0.3860(2) 0.8046(2) 0.14102(19)
O2 O 0.3874(2) 0.9424(2) 0.0943(2)
O3 O 0.4892(3) 1.1339(3) 0.0000
C1 C 0.2643(3) 0.8408(3) 0.1964(3)
C2 C 0.2144(4) 0.8935(3) 0.1939(4)
H1 H 0.2337 0.9465 0.1556
C3 C 0.1347(2) 0.8653(2) 0.2500
H2 H 0.1001 0.8999 0.2500
C4 C 0.3530(3) 0.8654(3) 0.1390(3)
Pr1O Pr 0.3333 0.6667 -0.2500
Pr1C Pr -0.3333 0.3333 0.2500
Fe1A Fe -0.0000 0.5000 0.0000
Fe1B Fe 0.5000 0.5000 0.0000
Fe1F Fe -0.0000 0.5000 0.5000
Fe1G Fe 0.5000 1.0000 -0.5000
Fe1G_2 Fe 0.5000 1.0000 0.5000
Fe1H Fe -0.5000 0.5000 0.5000
Fe1H_2 Fe 0.5000 0.5000 -0.5000
Fe1H_3 Fe 0.5000 0.5000 0.5000
N1A N 0.23709(17) 0.47418(24) 0.2500
N1B N 0.52582(24) 0.76291(17) 0.2500
N1D N -0.23709(17) 0.52582(24) 0.2500
N1P N 0.23709(17) 0.47418(24) -0.2500
N1Q N 0.52582(24) 0.76291(17) -0.2500
N1O N 0.23709(17) 0.76291(17) -0.2500
O1I O 0.1954(2) 0.6140(2) 0.35898(19)
O1A O 0.1954(2) 0.5814(3) 0.14102(19)
O1K O 0.3860(2) 0.5814(3) 0.35898(19)
O1B O 0.4186(3) 0.6140(2) 0.14102(19)
O1J O 0.4186(3) 0.8046(2) 0.35898(19)
O1D O -0.1954(2) 0.4186(3) 0.14102(19)
O1H O -0.3860(2) 0.4186(3) 0.35898(19)
O1P O 0.1954(2) 0.5814(3) -0.14102(19)
O1T O 0.3860(2) 0.5814(3) -0.35898(19)
O1Q O 0.4186(3) 0.6140(2) -0.14102(19)
O1S O 0.4186(3) 0.8046(2) -0.35898(19)
O1R O 0.1954(2) 0.6140(2) -0.35898(19)
O1O O 0.3860(2) 0.8046(2) -0.14102(19)
O2I O 0.0576(2) 0.6126(2) 0.4057(2)
O2A O 0.0576(2) 0.4450(3) 0.0943(2)
O2K O 0.3874(2) 0.4450(3) 0.4057(2)
O2B O 0.5550(3) 0.6126(2) 0.0943(2)
O2J O 0.5550(3) 0.9424(2) 0.4057(2)
O2D O -0.0576(2) 0.5550(3) 0.0943(2)
O2H O -0.3874(2) 0.5550(3) 0.4057(2)
O2P O 0.0576(2) 0.4450(3) -0.0943(2)
O2T O 0.3874(2) 0.4450(3) -0.4057(2)
O2Q O 0.5550(3) 0.6126(2) -0.0943(2)
O2S O 0.5550(3) 0.9424(2) -0.4057(2)
O2C O 0.6126(2) 1.0576(2) 0.0943(2)
O2E O 0.4450(3) 0.3874(2) 0.0943(2)
O2O O 0.3874(2) 0.9424(2) -0.0943(2)
O2L O 0.6126(2) 1.0576(2) -0.0943(2)
O2N O 0.4450(3) 0.3874(2) -0.0943(2)
O2M O -0.0576(2) 0.5550(3) -0.0943(2)
O3A O -0.1339(3) 0.3553(4) 0.0000
O3B O 0.6447(4) 0.5108(3) 0.0000
O3C O 0.5108(3) 0.8661(3) 0.0000
O3D O 0.1339(3) 0.6447(4) 0.0000
O3E O 0.3553(4) 0.4892(3) 0.0000
C1I C 0.1592(3) 0.7357(3) 0.3036(3)
C1A C 0.1592(3) 0.4235(4) 0.1964(3)
C1K C 0.2643(3) 0.4235(4) 0.3036(3)
C1B C 0.5765(4) 0.7357(3) 0.1964(3)
C1J C 0.5765(4) 0.8408(3) 0.3036(3)
C1D C -0.1592(3) 0.5765(4) 0.1964(3)
C1H C -0.2643(3) 0.5765(4) 0.3036(3)
C1P C 0.1592(3) 0.4235(4) -0.1964(3)
C1T C 0.2643(3) 0.4235(4) -0.3036(3)
C1Q C 0.5765(4) 0.7357(3) -0.1964(3)
C1S C 0.5765(4) 0.8408(3) -0.3036(3)
C2I C 0.1065(3) 0.7856(4) 0.3061(4)
C2A C 0.1065(3) 0.3209(5) 0.1939(4)
C2K C 0.2144(4) 0.3209(5) 0.3061(4)
C2B C 0.6791(5) 0.7856(4) 0.1939(4)
C2J C 0.6791(5) 0.8935(3) 0.3061(4)
C2D C -0.1065(3) 0.6791(5) 0.1939(4)
C2H C -0.2144(4) 0.6791(5) 0.3061(4)
C2P C 0.1065(3) 0.3209(5) -0.1939(4)
C2T C 0.2144(4) 0.3209(5) -0.3061(4)
C2Q C 0.6791(5) 0.7856(4) -0.1939(4)
C2S C 0.6791(5) 0.8935(3) -0.3061(4)
H1I H 0.0535 0.7663 0.3444
H1A H 0.0535 0.2872 0.1556
H1K H 0.2337 0.2872 0.3444
H1B H 0.7128 0.7663 0.1556
H1J H 0.7128 0.9465 0.3444
H1D H -0.0535 0.7128 0.1556
H1H H -0.2337 0.7128 0.3444
H1P H 0.0535 0.2872 -0.1556
H1T H 0.2337 0.2872 -0.3444
H1Q H 0.7128 0.7663 -0.1556
H1S H 0.7128 0.9465 -0.3444
C3A C 0.1347(2) 0.2694(3) 0.2500
C3B C 0.7306(3) 0.8653(2) 0.2500
C3D C -0.1347(2) 0.7306(3) 0.2500
C3P C 0.1347(2) 0.2694(3) -0.2500
C3Q C 0.7306(3) 0.8653(2) -0.2500
H2A H 0.1001 0.2002 0.2500
H2B H 0.7998 0.8999 0.2500
H2D H -0.1001 0.7998 0.2500
H2P H 0.1001 0.2002 -0.2500
H2Q H 0.7998 0.8999 -0.2500
C4I C 0.1346(3) 0.6470(3) 0.3610(3)
C4A C 0.1346(3) 0.4876(4) 0.1390(3)
C4K C 0.3530(3) 0.4876(4) 0.3610(3)
C4B C 0.5124(4) 0.6470(3) 0.1390(3)
C4J C 0.5124(4) 0.8654(3) 0.3610(3)
C4D C -0.1346(3) 0.5124(4) 0.1390(3)
C4H C -0.3530(3) 0.5124(4) 0.3610(3)
C4P C 0.1346(3) 0.4876(4) -0.1390(3)
C4T C 0.3530(3) 0.4876(4) -0.3610(3)
C4Q C 0.5124(4) 0.6470(3) -0.1390(3)
C4S C 0.5124(4) 0.8654(3) -0.3610(3)
O4 O 0.2726(10) 0.0565(14) 0.0000
O5 O 0.0000 0.0000 0.2500
loop_
_geom_bond_atom_site_label_1
_geom_bond_atom_site_label_2
_geom_bond_site_symmetry_1
_geom_bond_site_symmetry_2
Pr1 N1 1_555 1_555
Fe1 O2 1_555 1_555
N1 C1 1_555 1_555
O1 Pr1 1_555 1_555
O2 C4 1_555 1_555
O3 Fe1 1_555 1_555
C1 C2 1_555 1_555
C2 H1 1_555 1_555
C3 C2 1_555 1_555
H2 C3 1_555 1_555
C4 O1 1_555 1_555
Pr1O N1P 1_555 1_555
Pr1C N1D 1_555 1_555
Fe1A O2A 1_555 1_555
Fe1B O2B 1_555 1_555
Fe1F O2I 1_555 1_555
Fe1G O2S 1_555 1_555
Fe1G_2 O2J 1_555 1_555
Fe1H O2H 1_555 1_555
Fe1H_2 O2T 1_555 1_555
Fe1H_3 O2K 1_555 1_555
N1A Pr1 1_555 1_555
N1B Pr1 1_555 1_555
N1D C1D 1_555 1_555
N1P C1P 1_555 1_555
N1Q Pr1O 1_555 1_555
N1O Pr1O 1_555 1_555
O1I Pr1 1_555 1_555
O1A Pr1 1_555 1_555
O1K Pr1 1_555 1_555
O1B Pr1 1_555 1_555
O1J Pr1 1_555 1_555
O1D Pr1C 1_555 1_555
O1H Pr1C 1_555 1_555
O1P Pr1O 1_555 1_555
O1T Pr1O 1_555 1_555
O1Q Pr1O 1_555 1_555
O1S Pr1O 1_555 1_555
O1R Pr1O 1_555 1_555
O1O Pr1O 1_555 1_555
O2I C4I 1_555 1_555
O2A C4A 1_555 1_555
O2K C4K 1_555 1_555
O2B C4B 1_555 1_555
O2J C4J 1_555 1_555
O2D Fe1A 1_555 1_555
O2H C4H 1_555 1_555
O2P Fe1A 1_555 1_555
O2T C4T 1_555 1_555
O2Q Fe1B 1_555 1_555
O2S C4S 1_555 1_555
O2C Fe1 1_555 1_555
O2E Fe1B 1_555 1_555
O2O Fe1 1_555 1_555
O2L Fe1 1_555 1_555
O2N Fe1B 1_555 1_555
O2M Fe1A 1_555 1_555
O3A Fe1A 1_555 1_555
O3B Fe1B 1_555 1_555
O3C Fe1 1_555 1_555
O3D Fe1A 1_555 1_555
O3E Fe1B 1_555 1_555
C1I N1 1_555 1_555
C1A N1A 1_555 1_555
C1K N1A 1_555 1_555
C1B N1B 1_555 1_555
C1J N1B 1_555 1_555
C1D C2D 1_555 1_555
C1H N1D 1_555 1_555
C1P C2P 1_555 1_555
C1T N1P 1_555 1_555
C1Q N1Q 1_555 1_555
C1S N1Q 1_555 1_555
C2I C3 1_555 1_555
C2A C1A 1_555 1_555
C2K C1K 1_555 1_555
C2B C1B 1_555 1_555
C2J C1J 1_555 1_555
C2D H1D 1_555 1_555
C2H C1H 1_555 1_555
C2P H1P 1_555 1_555
C2T C1T 1_555 1_555
C2Q C1Q 1_555 1_555
C2S C1S 1_555 1_555
H1I C2I 1_555 1_555
H1A C2A 1_555 1_555
H1K C2K 1_555 1_555
H1B C2B 1_555 1_555
H1J C2J 1_555 1_555
H1H C2H 1_555 1_555
H1T C2T 1_555 1_555
H1Q C2Q 1_555 1_555
H1S C2S 1_555 1_555
C3A C2A 1_555 1_555
C3B C2B 1_555 1_555
C3D C2D 1_555 1_555
C3P C2P 1_555 1_555
C3Q C2Q 1_555 1_555
H2A C3A 1_555 1_555
H2B C3B 1_555 1_555
H2D C3D 1_555 1_555
H2P C3P 1_555 1_555
H2Q C3Q 1_555 1_555
C4I O1I 1_555 1_555
C4A O1A 1_555 1_555
C4K O1K 1_555 1_555
C4B O1B 1_555 1_555
C4J O1J 1_555 1_555
C4D O1D 1_555 1_555
C4H O1H 1_555 1_555
C4P O1P 1_555 1_555
C4T O1T 1_555 1_555
C4Q O1Q 1_555 1_555
C4S O1S 1_555 1_555
C1 C4 1_555 1_555
O2D C4D 1_555 1_555
O2P C4P 1_555 1_555
O2Q C4Q 1_555 1_555
C1I C2I 1_555 1_555
C1I C4I 1_555 1_555
C1A C4A 1_555 1_555
C1K C4K 1_555 1_555
C1B C4B 1_555 1_555
C1J C4J 1_555 1_555
C1D C4D 1_555 1_555
C1H C4H 1_555 1_555
C1P C4P 1_555 1_555
C1T C4T 1_555 1_555
C1Q C4Q 1_555 1_555
C1S C4S 1_555 1_555
C2K C3A 1_555 1_555
C2J C3B 1_555 1_555
C2H C3D 1_555 1_555
C2T C3P 1_555 1_555
C2S C3Q 1_555 1_555

#END
