
#######################################################################
#
#                 Cambridge Crystallographic Data Centre
#                                CCDC 
#
#######################################################################
#
# If this CIF has been generated from an entry in the Cambridge 
# Structural Database, then it will include bibliographic, chemical, 
# crystal, experimental, refinement or atomic coordinate data resulting 
# from the CCDC's data processing and validation procedures.
#
#######################################################################

data_ILUJIJ
_chemical_formula_moiety         '(C42 H34 Fe3 N6 O32 Sm2)n'
_symmetry_cell_setting           hexagonal
_symmetry_space_group_name_H-M   'P 6/m c c'
_symmetry_Int_Tables_number      192
_space_group_name_Hall           '-P 6 2c'
loop_
_symmetry_equiv_pos_site_id
_symmetry_equiv_pos_as_xyz
1 x,y,z
2 -y,x-y,z
3 -x+y,-x,z
4 -x,-y,z
5 y,-x+y,z
6 x-y,x,z
7 y,x,1/2-z
8 x-y,-y,1/2-z
9 -x,-x+y,1/2-z
10 -y,-x,1/2-z
11 -x+y,y,1/2-z
12 x,x-y,1/2-z
13 -x,-y,-z
14 y,-x+y,-z
15 x-y,x,-z
16 x,y,-z
17 -y,x-y,-z
18 -x+y,-x,-z
19 -y,-x,1/2+z
20 -x+y,y,1/2+z
21 x,x-y,1/2+z
22 y,x,1/2+z
23 x-y,-y,1/2+z
24 -x,-x+y,1/2+z
_cell_length_a                   15.4050(14)
_cell_length_b                   15.4050(14)
_cell_length_c                   15.456(3)
_cell_angle_alpha                90
_cell_angle_beta                 90
_cell_angle_gamma                120
_cell_volume                     3176.52
loop_
_atom_site_label
_atom_site_type_symbol
_atom_site_fract_x
_atom_site_fract_y
_atom_site_fract_z
Sm1 Sm 0.6667 0.3333 0.2500
Fe1 Fe 0.5000 0.5000 0.0000
N1 N 0.4757(5) 0.2379(2) 0.2500
O1 O 0.4466(3) 0.3872(4) 0.0934(3)
O2 O 0.5846(3) 0.3879(3) 0.1429(3)
O3 O 0.6470(4) 0.5125(5) 0.0000
C1 C 0.4900(5) 0.3540(5) 0.1384(4)
C2 C 0.4247(4) 0.2648(4) 0.1965(4)
C3 C 0.3212(5) 0.2144(5) 0.1938(5)
H1 H 0.2872 0.2335 0.1555
C4 C 0.2696(7) 0.1348(3) 0.2500
H2 H 0.1999 0.1000 0.2500
Sm1O Sm 0.6667 0.3333 -0.2500
Sm1M Sm 0.3333 0.6666 -0.2500
Fe1B Fe 1.0000 0.5000 0.0000
Fe1H Fe 0.5000 -0.0000 0.5000
Fe1F Fe 0.5000 0.5000 0.5000
Fe1G Fe 1.0000 0.5000 -0.5000
Fe1G_2 Fe 1.0000 0.5000 0.5000
Fe1H_2 Fe 0.5000 0.0000 -0.5000
Fe1H_3 Fe 0.5000 1.0000 -0.5000
Fe1A Fe 0.5000 0.0000 0.0000
N1L N 0.5243(5) 0.7621(2) -0.2500
N1O N 0.4757(5) 0.2379(2) -0.2500
N1P N 0.7621(2) 0.2378(5) -0.2500
N1B N 0.7622(5) 0.5243(5) 0.2500
N1A N 0.7621(2) 0.2378(5) 0.2500
N1R N 0.7621(2) 0.5243(5) -0.2500
O1K O 0.4466(3) 0.0594(5) 0.4066(3)
O1L O 0.5534(3) 0.6128(4) -0.0934(3)
O1W O 0.5534(3) 0.9406(5) -0.4066(3)
O1O O 0.4466(3) 0.3872(4) -0.0934(3)
O1T O 0.4466(3) 0.0594(5) -0.4066(3)
O1P O 0.6128(4) 0.0594(5) -0.0934(3)
O1S O 0.9406(5) 0.3872(4) -0.4066(3)
O1B O 0.9406(5) 0.5534(3) 0.0934(3)
O1I O 0.6128(4) 0.5534(3) 0.4066(3)
O1A O 0.6128(4) 0.0594(5) 0.0934(3)
O1J O 0.9406(5) 0.3872(4) 0.4066(3)
O1E O 1.0594(5) 0.4466(3) 0.0934(3)
O1N O 1.0594(5) 0.4466(3) -0.0934(3)
O1C O 0.5534(3) 0.6128(4) 0.0934(3)
O1Q O 0.9406(5) 0.5534(3) -0.0934(3)
O1D O 0.3872(4) -0.0594(5) 0.0934(3)
O1M O 0.3872(4) -0.0594(5) -0.0934(3)
O2K O 0.5846(3) 0.1967(4) 0.3571(3)
O2L O 0.4154(3) 0.6121(3) -0.1429(3)
O2W O 0.4154(3) 0.8033(4) -0.3571(3)
O2O O 0.5846(3) 0.3879(3) -0.1429(3)
O2T O 0.5846(3) 0.1967(4) -0.3571(3)
O2P O 0.6121(3) 0.1967(4) -0.1429(3)
O2S O 0.8033(4) 0.3879(3) -0.3571(3)
O2B O 0.8033(4) 0.4154(3) 0.1429(3)
O2I O 0.6121(3) 0.4154(3) 0.3571(3)
O2A O 0.6121(3) 0.1967(4) 0.1429(3)
O2J O 0.8033(4) 0.3879(3) 0.3571(3)
O2R O 0.6121(3) 0.4154(3) -0.3571(3)
O2Q O 0.8033(4) 0.4154(3) -0.1429(3)
O3C O 0.3530(4) 0.4875(5) 0.0000
O3B O 0.8655(6) 0.3530(4) 0.0000
O3E O 1.1345(6) 0.6470(4) 0.0000
O3A O 0.4875(5) 0.1345(6) 0.0000
O3D O 0.5125(5) -0.1345(6) 0.0000
C1K C 0.4900(5) 0.1360(7) 0.3616(4)
C1L C 0.5100(5) 0.6460(5) -0.1384(4)
C1W C 0.5100(5) 0.8640(7) -0.3616(4)
C1O C 0.4900(5) 0.3540(5) -0.1384(4)
C1T C 0.4900(5) 0.1360(7) -0.3616(4)
C1P C 0.6460(5) 0.1360(7) -0.1384(4)
C1S C 0.8640(7) 0.3540(5) -0.3616(4)
C1B C 0.8640(7) 0.5100(5) 0.1384(4)
C1I C 0.6460(5) 0.5100(5) 0.3616(4)
C1A C 0.6460(5) 0.1360(7) 0.1384(4)
C1J C 0.8640(7) 0.3540(5) 0.3616(4)
C2K C 0.4247(4) 0.1599(6) 0.3035(4)
C2L C 0.5753(4) 0.7352(4) -0.1965(4)
C2W C 0.5753(4) 0.8401(6) -0.3035(4)
C2O C 0.4247(4) 0.2648(4) -0.1965(4)
C2T C 0.4247(4) 0.1599(6) -0.3035(4)
C2P C 0.7352(4) 0.1599(6) -0.1965(4)
C2S C 0.8401(6) 0.2648(4) -0.3035(4)
C2B C 0.8401(6) 0.5753(4) 0.1965(4)
C2I C 0.7352(4) 0.5753(4) 0.3035(4)
C2A C 0.7352(4) 0.1599(6) 0.1965(4)
C2J C 0.8401(6) 0.2648(4) 0.3035(4)
C3K C 0.3212(5) 0.1068(7) 0.3062(5)
C3L C 0.6788(5) 0.7856(5) -0.1938(5)
C3W C 0.6788(5) 0.8932(7) -0.3062(5)
C3O C 0.3212(5) 0.2144(5) -0.1938(5)
C3T C 0.3212(5) 0.1068(7) -0.3062(5)
C3P C 0.7856(5) 0.1068(7) -0.1938(5)
C3S C 0.8932(7) 0.2144(5) -0.3062(5)
C3B C 0.8932(7) 0.6788(5) 0.1938(5)
C3I C 0.7856(5) 0.6788(5) 0.3062(5)
C3A C 0.7856(5) 0.1068(7) 0.1938(5)
C3J C 0.8932(7) 0.2144(5) 0.3062(5)
H1K H 0.2872 0.0537 0.3445
H1L H 0.7128 0.7665 -0.1555
H1W H 0.7128 0.9463 -0.3445
H1O H 0.2872 0.2335 -0.1555
H1T H 0.2872 0.0537 -0.3445
H1P H 0.7665 0.0537 -0.1555
H1S H 0.9463 0.2335 -0.3445
H1B H 0.9463 0.7128 0.1555
H1I H 0.7665 0.7128 0.3445
H1A H 0.7665 0.0537 0.1555
H1J H 0.9463 0.2335 0.3445
C4L C 0.7304(7) 0.8652(3) -0.2500
C4O C 0.2696(7) 0.1348(3) -0.2500
C4P C 0.8652(3) 0.1348(8) -0.2500
C4B C 0.8652(8) 0.7304(7) 0.2500
C4A C 0.8652(3) 0.1348(8) 0.2500
H2L H 0.8001 0.9000 -0.2500
H2O H 0.1999 0.1000 -0.2500
H2P H 0.9000 0.0999 -0.2500
H2B H 0.9001 0.8001 0.2500
H2A H 0.9000 0.0999 0.2500
O4 O 0.7871(14) 0.7314(13) 0.0000
O5 O 0.0000 -0.0000 0.2500
loop_
_geom_bond_atom_site_label_1
_geom_bond_atom_site_label_2
_geom_bond_site_symmetry_1
_geom_bond_site_symmetry_2
Sm1 N1 1_555 1_555
Fe1 O1 1_555 1_555
N1 C2 1_555 1_555
O1 C1 1_555 1_555
O2 Sm1 1_555 1_555
O3 Fe1 1_555 1_555
C1 O2 1_555 1_555
C2 C1 1_555 1_555
C3 C2 1_555 1_555
H1 C3 1_555 1_555
C4 C3 1_555 1_555
H2 C4 1_555 1_555
Sm1O N1O 1_555 1_555
Sm1M N1L 1_555 1_555
Fe1B O1B 1_555 1_555
Fe1H O1K 1_555 1_555
Fe1F O1I 1_555 1_555
Fe1G O1S 1_555 1_555
Fe1G_2 O1J 1_555 1_555
Fe1H_2 O1T 1_555 1_555
Fe1H_3 O1W 1_555 1_555
Fe1A O1P 1_555 1_555
N1L C2L 1_555 1_555
N1O C2O 1_555 1_555
N1P Sm1O 1_555 1_555
N1B Sm1 1_555 1_555
N1A Sm1 1_555 1_555
N1R Sm1O 1_555 1_555
O1K C1K 1_555 1_555
O1L Fe1 1_555 1_555
O1W C1W 1_555 1_555
O1O Fe1 1_555 1_555
O1T C1T 1_555 1_555
O1P C1P 1_555 1_555
O1S C1S 1_555 1_555
O1B C1B 1_555 1_555
O1I C1I 1_555 1_555
O1A Fe1A 1_555 1_555
O1J C1J 1_555 1_555
O1E Fe1B 1_555 1_555
O1N Fe1B 1_555 1_555
O1C Fe1 1_555 1_555
O1Q Fe1B 1_555 1_555
O1D Fe1A 1_555 1_555
O1M Fe1A 1_555 1_555
O2K Sm1 1_555 1_555
O2L Sm1M 1_555 1_555
O2W Sm1M 1_555 1_555
O2O Sm1O 1_555 1_555
O2T Sm1O 1_555 1_555
O2P Sm1O 1_555 1_555
O2S Sm1O 1_555 1_555
O2B Sm1 1_555 1_555
O2I Sm1 1_555 1_555
O2A Sm1 1_555 1_555
O2J Sm1 1_555 1_555
O2R Sm1O 1_555 1_555
O2Q Sm1O 1_555 1_555
O3C Fe1 1_555 1_555
O3B Fe1B 1_555 1_555
O3E Fe1B 1_555 1_555
O3A Fe1A 1_555 1_555
O3D Fe1A 1_555 1_555
C1K O2K 1_555 1_555
C1L O1L 1_555 1_555
C1W O2W 1_555 1_555
C1O O1O 1_555 1_555
C1T O2T 1_555 1_555
C1P O2P 1_555 1_555
C1S O2S 1_555 1_555
C1B O2B 1_555 1_555
C1I O2I 1_555 1_555
C1A O1A 1_555 1_555
C1J O2J 1_555 1_555
C2K N1 1_555 1_555
C2L C1L 1_555 1_555
C2W N1L 1_555 1_555
C2O C1O 1_555 1_555
C2T N1O 1_555 1_555
C2P N1P 1_555 1_555
C2S N1P 1_555 1_555
C2B N1B 1_555 1_555
C2I N1B 1_555 1_555
C2A N1A 1_555 1_555
C2J N1A 1_555 1_555
C3K C4 1_555 1_555
C3L C2L 1_555 1_555
C3W C2W 1_555 1_555
C3O C2O 1_555 1_555
C3T C2T 1_555 1_555
C3P C2P 1_555 1_555
C3S C2S 1_555 1_555
C3B C2B 1_555 1_555
C3I C2I 1_555 1_555
C3A C2A 1_555 1_555
C3J C2J 1_555 1_555
H1K C3K 1_555 1_555
H1L C3L 1_555 1_555
H1W C3W 1_555 1_555
H1O C3O 1_555 1_555
H1T C3T 1_555 1_555
H1P C3P 1_555 1_555
H1S C3S 1_555 1_555
H1B C3B 1_555 1_555
H1I C3I 1_555 1_555
H1A C3A 1_555 1_555
H1J C3J 1_555 1_555
C4L C3L 1_555 1_555
C4O C3O 1_555 1_555
C4P C3P 1_555 1_555
C4B C3B 1_555 1_555
C4A C3A 1_555 1_555
H2L C4L 1_555 1_555
H2O C4O 1_555 1_555
H2P C4P 1_555 1_555
H2B C4B 1_555 1_555
H2A C4A 1_555 1_555
O2L C1L 1_555 1_555
O2O C1O 1_555 1_555
O2A C1A 1_555 1_555
C1K C2K 1_555 1_555
C1W C2W 1_555 1_555
C1T C2T 1_555 1_555
C1P C2P 1_555 1_555
C1S C2S 1_555 1_555
C1B C2B 1_555 1_555
C1I C2I 1_555 1_555
C1A C2A 1_555 1_555
C1J C2J 1_555 1_555
C2K C3K 1_555 1_555
C3W C4L 1_555 1_555
C3T C4O 1_555 1_555
C3S C4P 1_555 1_555
C3I C4B 1_555 1_555
C3J C4A 1_555 1_555

#END
