
#######################################################################
#
#                 Cambridge Crystallographic Data Centre
#                                CCDC 
#
#######################################################################
#
# If this CIF has been generated from an entry in the Cambridge 
# Structural Database, then it will include bibliographic, chemical, 
# crystal, experimental, refinement or atomic coordinate data resulting 
# from the CCDC's data processing and validation procedures.
#
#######################################################################

data_ILUJEF
_chemical_formula_moiety         '(C42 H34 Co3 N6 O32 Sm2)n'
_symmetry_cell_setting           hexagonal
_symmetry_space_group_name_H-M   'P 6/m c c'
_symmetry_Int_Tables_number      192
_space_group_name_Hall           '-P 6 2c'
loop_
_symmetry_equiv_pos_site_id
_symmetry_equiv_pos_as_xyz
1 x,y,z
2 -y,x-y,z
3 -x+y,-x,z
4 -x,-y,z
5 y,-x+y,z
6 x-y,x,z
7 y,x,1/2-z
8 x-y,-y,1/2-z
9 -x,-x+y,1/2-z
10 -y,-x,1/2-z
11 -x+y,y,1/2-z
12 x,x-y,1/2-z
13 -x,-y,-z
14 y,-x+y,-z
15 x-y,x,-z
16 x,y,-z
17 -y,x-y,-z
18 -x+y,-x,-z
19 -y,-x,1/2+z
20 -x+y,y,1/2+z
21 x,x-y,1/2+z
22 y,x,1/2+z
23 x-y,-y,1/2+z
24 -x,-x+y,1/2+z
_cell_length_a                   15.3092(14)
_cell_length_b                   15.3092(14)
_cell_length_c                   15.346(3)
_cell_angle_alpha                90
_cell_angle_beta                 90
_cell_angle_gamma                120
_cell_volume                     3114.8
loop_
_atom_site_label
_atom_site_type_symbol
_atom_site_fract_x
_atom_site_fract_y
_atom_site_fract_z
Sm1 Sm 0.6667 0.3333 0.2500
Co1 Co 0.5000 -0.0000 0.5000
O1 O 0.6123(4) 0.1969(3) 0.3574(2)
O2 O 0.6130(3) 0.0593(5) 0.4069(3)
O3 O 0.5123(4) -0.1336(6) 0.5000
N1 N 0.7621(2) 0.2379(4) 0.2500
C1 C 0.6459(6) 0.1359(7) 0.3616(4)
C2 C 0.7352(6) 0.1600(7) 0.3036(4)
C3 C 0.7855(7) 0.1069(9) 0.3061(5)
H3 H 0.7664 0.0535 0.3447
C4 C 0.8651(3) 0.1349(7) 0.2500
H4 H 0.8999 0.1002 0.2500
Sm1C Sm 0.3333 -0.3333 0.2500
Sm1O Sm 0.6667 0.3333 0.7500
Co1F Co 1.0000 0.5000 0.0000
Co1A Co 1.0000 0.5000 0.5000
Co1H Co 0.5000 0.5000 0.0000
Co1B Co 0.5000 0.5000 0.5000
Co1G Co 0.5000 0.0000 0.0000
Co1F_2 Co 0.0000 -0.5000 0.0000
Co1F_3 Co 1.0000 0.5000 1.0000
Co1H_2 Co 0.5000 0.5000 1.0000
O1I O 0.8031(3) 0.3877(4) 0.1426(2)
O1A O 0.8031(3) 0.4154(5) 0.3574(2)
O1K O 0.6123(4) 0.4154(5) 0.1426(2)
O1B O 0.5846(5) 0.3877(4) 0.3574(2)
O1J O 0.5846(5) 0.1969(3) 0.1426(2)
O1C O 0.3877(4) -0.1969(3) 0.3574(2)
O1F O 0.1969(3) -0.3877(4) 0.1426(2)
O1O O 0.6123(4) 0.1969(3) 0.6426(2)
O1R O 0.8031(3) 0.3877(4) 0.8574(2)
O1P O 0.8031(3) 0.4154(5) 0.6426(2)
O1T O 0.6123(4) 0.4154(5) 0.8574(2)
O1Q O 0.5846(5) 0.3877(4) 0.6426(2)
O1S O 0.5846(5) 0.1969(3) 0.8574(2)
O2I O 0.9407(5) 0.3870(3) 0.0931(3)
O2A O 0.9407(5) 0.5537(6) 0.4069(3)
O2K O 0.6130(3) 0.5537(6) 0.0931(3)
O2B O 0.4463(6) 0.3870(3) 0.4069(3)
O2J O 0.4463(6) 0.0593(5) 0.0931(3)
O2C O 0.3870(3) -0.0593(5) 0.4069(3)
O2F O 0.0593(5) -0.3870(3) 0.0931(3)
O2L O 0.3870(3) -0.0593(5) 0.5931(3)
O2O O 0.6130(3) 0.0593(5) 0.5931(3)
O2R O 0.9407(5) 0.3870(3) 0.9069(3)
O2D O 1.0593(5) 0.4463(6) 0.4069(3)
O2M O 1.0593(5) 0.4463(6) 0.5931(3)
O2P O 0.9407(5) 0.5537(6) 0.5931(3)
O2T O 0.6130(3) 0.5537(6) 0.9069(3)
O2E O 0.5537(6) 0.6130(3) 0.4069(3)
O2N O 0.5537(6) 0.6130(3) 0.5931(3)
O2Q O 0.4463(6) 0.3870(3) 0.5931(3)
O3C O 0.4877(4) 0.1336(6) 0.5000
O3A O 1.1336(6) 0.6459(7) 0.5000
O3D O 0.8664(6) 0.3541(7) 0.5000
O3B O 0.3541(7) 0.4877(4) 0.5000
O3E O 0.6459(7) 0.5123(4) 0.5000
N1A N 0.7621(4) 0.5242(4) 0.2500
N1B N 0.4758(4) 0.2379(2) 0.2500
N1C N 0.2379(2) -0.2379(4) 0.2500
N1O N 0.7621(2) 0.2379(4) 0.7500
N1P N 0.7621(4) 0.5242(4) 0.7500
N1Q N 0.4758(4) 0.2379(2) 0.7500
C1I C 0.8641(7) 0.3541(6) 0.1384(4)
C1A C 0.8641(7) 0.5100(9) 0.3616(4)
C1K C 0.6459(6) 0.5100(9) 0.1384(4)
C1B C 0.4900(9) 0.3541(6) 0.3616(4)
C1J C 0.4900(9) 0.1359(7) 0.1384(4)
C1C C 0.3541(6) -0.1359(7) 0.3616(4)
C1F C 0.1359(7) -0.3541(6) 0.1384(4)
C1O C 0.6459(6) 0.1359(7) 0.6384(4)
C1R C 0.8641(7) 0.3541(6) 0.8616(4)
C1P C 0.8641(7) 0.5100(9) 0.6384(4)
C1T C 0.6459(6) 0.5100(9) 0.8616(4)
C2I C 0.8400(7) 0.2648(6) 0.1964(4)
C2A C 0.8400(7) 0.5752(9) 0.3036(4)
C2K C 0.7352(6) 0.5752(9) 0.1964(4)
C2B C 0.4248(9) 0.2648(6) 0.3036(4)
C2J C 0.4248(9) 0.1600(7) 0.1964(4)
C2C C 0.2648(6) -0.1600(7) 0.3036(4)
C2F C 0.1600(7) -0.2648(6) 0.1964(4)
C2O C 0.7352(6) 0.1600(7) 0.6964(4)
C2R C 0.8400(7) 0.2648(6) 0.8036(4)
C2P C 0.8400(7) 0.5752(9) 0.6964(4)
C2T C 0.7352(6) 0.5752(9) 0.8036(4)
C3I C 0.8931(9) 0.2145(7) 0.1939(5)
C3A C 0.8931(9) 0.6786(11) 0.3061(5)
C3K C 0.7855(7) 0.6786(11) 0.1939(5)
C3B C 0.3214(11) 0.2145(7) 0.3061(5)
C3J C 0.3214(11) 0.1069(9) 0.1939(5)
C3C C 0.2145(7) -0.1069(9) 0.3061(5)
C3F C 0.1069(9) -0.2145(7) 0.1939(5)
C3O C 0.7855(7) 0.1069(9) 0.6939(5)
C3R C 0.8931(9) 0.2145(7) 0.8061(5)
C3P C 0.8931(9) 0.6786(11) 0.6939(5)
C3T C 0.7855(7) 0.6786(11) 0.8061(5)
H3I H 0.9465 0.2336 0.1553
H3A H 0.9465 0.7129 0.3447
H3K H 0.7664 0.7129 0.1553
H3B H 0.2871 0.2336 0.3447
H3J H 0.2871 0.0535 0.1553
H3C H 0.2336 -0.0535 0.3447
H3F H 0.0535 -0.2336 0.1553
H3O H 0.7664 0.0535 0.6553
H3R H 0.9465 0.2336 0.8447
H3P H 0.9465 0.7129 0.6553
H3T H 0.7664 0.7129 0.8447
C4A C 0.8651(7) 0.7302(8) 0.2500
C4B C 0.2698(8) 0.1349(3) 0.2500
C4C C 0.1349(3) -0.1349(7) 0.2500
C4O C 0.8651(3) 0.1349(7) 0.7500
C4P C 0.8651(7) 0.7302(8) 0.7500
H4A H 0.8998 0.7997 0.2500
H4B H 0.2003 0.1001 0.2500
H4C H 0.1001 -0.1002 0.2500
H4O H 0.8999 0.1002 0.7500
H4P H 0.8998 0.7997 0.7500
O4 O 0.7882(12) 0.0564(16) 0.0000
O5 O -0.0000 -0.0000 0.2500
loop_
_geom_bond_atom_site_label_1
_geom_bond_atom_site_label_2
_geom_bond_site_symmetry_1
_geom_bond_site_symmetry_2
Sm1 O1 1_555 1_555
Co1 O2 1_555 1_555
O1 C1 1_555 1_555
O2 C1 1_555 1_555
O3 Co1 1_555 1_555
N1 Sm1 1_555 1_555
C1 C2 1_555 1_555
C2 N1 1_555 1_555
C3 C2 1_555 1_555
H3 C3 1_555 1_555
C4 C3 1_555 1_555
H4 C4 1_555 1_555
Sm1C O1C 1_555 1_555
Sm1O O1O 1_555 1_555
Co1F O2I 1_555 1_555
Co1A O2A 1_555 1_555
Co1H O2K 1_555 1_555
Co1B O2B 1_555 1_555
Co1G O2J 1_555 1_555
Co1F_2 O2F 1_555 1_555
Co1F_3 O2R 1_555 1_555
Co1H_2 O2T 1_555 1_555
O1I Sm1 1_555 1_555
O1A Sm1 1_555 1_555
O1K Sm1 1_555 1_555
O1B Sm1 1_555 1_555
O1J Sm1 1_555 1_555
O1C C1C 1_555 1_555
O1F Sm1C 1_555 1_555
O1O C1O 1_555 1_555
O1R Sm1O 1_555 1_555
O1P Sm1O 1_555 1_555
O1T Sm1O 1_555 1_555
O1Q Sm1O 1_555 1_555
O1S Sm1O 1_555 1_555
O2I C1I 1_555 1_555
O2A C1A 1_555 1_555
O2K C1K 1_555 1_555
O2B C1B 1_555 1_555
O2J C1J 1_555 1_555
O2C Co1 1_555 1_555
O2F C1F 1_555 1_555
O2L Co1 1_555 1_555
O2O Co1 1_555 1_555
O2R C1R 1_555 1_555
O2D Co1A 1_555 1_555
O2M Co1A 1_555 1_555
O2P Co1A 1_555 1_555
O2T C1T 1_555 1_555
O2E Co1B 1_555 1_555
O2N Co1B 1_555 1_555
O2Q Co1B 1_555 1_555
O3C Co1 1_555 1_555
O3A Co1A 1_555 1_555
O3D Co1A 1_555 1_555
O3B Co1B 1_555 1_555
O3E Co1B 1_555 1_555
N1A Sm1 1_555 1_555
N1B Sm1 1_555 1_555
N1C Sm1C 1_555 1_555
N1O Sm1O 1_555 1_555
N1P Sm1O 1_555 1_555
N1Q Sm1O 1_555 1_555
C1I O1I 1_555 1_555
C1A O1A 1_555 1_555
C1K O1K 1_555 1_555
C1B O1B 1_555 1_555
C1J O1J 1_555 1_555
C1C O2C 1_555 1_555
C1F O1F 1_555 1_555
C1O O2O 1_555 1_555
C1R O1R 1_555 1_555
C1P O1P 1_555 1_555
C1T O1T 1_555 1_555
C2I N1 1_555 1_555
C2A N1A 1_555 1_555
C2K N1A 1_555 1_555
C2B N1B 1_555 1_555
C2J N1B 1_555 1_555
C2C N1C 1_555 1_555
C2F N1C 1_555 1_555
C2O N1O 1_555 1_555
C2R N1O 1_555 1_555
C2P N1P 1_555 1_555
C2T N1P 1_555 1_555
C3I C4 1_555 1_555
C3A C2A 1_555 1_555
C3K C2K 1_555 1_555
C3B C2B 1_555 1_555
C3J C2J 1_555 1_555
C3C C2C 1_555 1_555
C3F C2F 1_555 1_555
C3O C2O 1_555 1_555
C3R C2R 1_555 1_555
C3P C2P 1_555 1_555
C3T C2T 1_555 1_555
H3I C3I 1_555 1_555
H3A C3A 1_555 1_555
H3K C3K 1_555 1_555
H3B C3B 1_555 1_555
H3J C3J 1_555 1_555
H3C C3C 1_555 1_555
H3F C3F 1_555 1_555
H3O C3O 1_555 1_555
H3R C3R 1_555 1_555
H3P C3P 1_555 1_555
H3T C3T 1_555 1_555
C4A C3A 1_555 1_555
C4B C3B 1_555 1_555
C4C C3C 1_555 1_555
C4O C3O 1_555 1_555
C4P C3P 1_555 1_555
H4A C4A 1_555 1_555
H4B C4B 1_555 1_555
H4C C4C 1_555 1_555
H4O C4O 1_555 1_555
H4P C4P 1_555 1_555
O2P C1P 1_555 1_555
C1I C2I 1_555 1_555
C1A C2A 1_555 1_555
C1K C2K 1_555 1_555
C1B C2B 1_555 1_555
C1J C2J 1_555 1_555
C1C C2C 1_555 1_555
C1F C2F 1_555 1_555
C1O C2O 1_555 1_555
C1R C2R 1_555 1_555
C1P C2P 1_555 1_555
C1T C2T 1_555 1_555
C2I C3I 1_555 1_555
C3K C4A 1_555 1_555
C3J C4B 1_555 1_555
C3F C4C 1_555 1_555
C3R C4O 1_555 1_555
C3T C4P 1_555 1_555

#END
