
#######################################################################
#
#                 Cambridge Crystallographic Data Centre
#                                CCDC 
#
#######################################################################
#
# If this CIF has been generated from an entry in the Cambridge 
# Structural Database, then it will include bibliographic, chemical, 
# crystal, experimental, refinement or atomic coordinate data resulting 
# from the CCDC's data processing and validation procedures.
#
#######################################################################

data_PARMIG
_chemical_formula_moiety         '(C16 H16 N4 Ni1 O7)n'
_symmetry_cell_setting           tetragonal
_symmetry_space_group_name_H-M   'P 43 21 2'
_symmetry_Int_Tables_number      96
_space_group_name_Hall           'P 4nw 2abw'
loop_
_symmetry_equiv_pos_site_id
_symmetry_equiv_pos_as_xyz
1 x,y,z
2 -x,-y,1/2+z
3 1/2-y,1/2+x,3/4+z
4 1/2+y,1/2-x,1/4+z
5 1/2-x,1/2+y,3/4-z
6 1/2+x,1/2-y,1/4-z
7 y,x,-z
8 -y,-x,1/2-z
_cell_length_a                   15.0363(3)
_cell_length_b                   15.0363(3)
_cell_length_c                   8.3862(4)
_cell_angle_alpha                90
_cell_angle_beta                 90
_cell_angle_gamma                90
_cell_volume                     1896.04
loop_
_atom_site_label
_atom_site_type_symbol
_atom_site_fract_x
_atom_site_fract_y
_atom_site_fract_z
_atom_site_U_iso_or_equiv
_atom_site_thermal_displace_type
C1 C 0.7590(3) 1.1223(2) 0.5519(4) 0.0351 Uani
C2 C 0.7578(3) 1.0552(2) 0.4210(4) 0.0355 Uani
C3 C 0.7670(3) 0.9640(2) 0.4575(4) 0.0446 Uani
C4 C 0.7627(3) 0.8989(2) 0.3422(4) 0.0403 Uani
C5 C 0.7487(3) 0.9258(2) 0.1843(4) 0.0327 Uani
C6 C 0.7432(3) 1.0165(2) 0.1502(4) 0.0406 Uani
C7 C 0.7470(3) 1.0818(2) 0.2661(4) 0.0397 Uani
C8 C 0.7314(3) 0.9371(3) -0.0679(5) 0.0525 Uani
H1 H 0.7258 0.9229 -0.1754 0.0630 Uiso
N1 N 0.7398(3) 0.87748(19) 0.0446(3) 0.0376 Uani
N2 N 0.7319(3) 1.0209(2) -0.0126(4) 0.0570 Uani
H2 H 0.7262 1.0685 -0.0685 0.0680 Uiso
Ni1 Ni 0.74420(3) 0.74420(3) 0.0000 0.0309 Uani
O1 O 0.7607(2) 1.09966(16) 0.6952(3) 0.0454 Uani
O2 O 0.75505(18) 1.20412(15) 0.5153(3) 0.0412 Uani
H3 H 0.742(3) 1.139(3) 0.243(5) 0.0520 Uiso
H4 H 0.779(2) 0.949(2) 0.563(5) 0.0300 Uiso
H5 H 0.769(2) 0.837(2) 0.366(4) 0.0240 Uiso
C1F C 1.1223(2) 0.7590(3) -0.5519(4) 0.0351 Uani
C2F C 1.0552(2) 0.7578(3) -0.4210(4) 0.0355 Uani
C3F C 0.9640(2) 0.7670(3) -0.4575(4) 0.0446 Uani
C4F C 0.8989(2) 0.7627(3) -0.3422(4) 0.0403 Uani
C5F C 0.9258(2) 0.7487(3) -0.1843(4) 0.0327 Uani
C6F C 1.0165(2) 0.7432(3) -0.1502(4) 0.0406 Uani
C7F C 1.0818(2) 0.7470(3) -0.2661(4) 0.0397 Uani
C8F C 0.9371(3) 0.7314(3) 0.0679(5) 0.0525 Uani
H1F H 0.9229 0.7258 0.1754 0.0630 Uiso
N1F N 0.87748(19) 0.7398(3) -0.0446(3) 0.0376 Uani
N2F N 1.0209(2) 0.7319(3) 0.0126(4) 0.0570 Uani
H2F H 1.0685 0.7262 0.0685 0.0680 Uiso
Ni1B Ni 0.75580(3) 1.24420(3) 0.7500 0.0309 Uani
Ni1C Ni 1.24420(3) 0.75580(3) -0.7500 0.0309 Uani
O1C O 0.59966(16) 0.7393(2) -0.0548(3) 0.0454 Uani
O1D O 0.7393(2) 0.59966(16) 0.0548(3) 0.0454 Uani
O1F O 1.09966(16) 0.7607(2) -0.6952(3) 0.0454 Uani
O2C O 0.70412(15) 0.74495(18) -0.2347(3) 0.0412 Uani
O2D O 0.74495(18) 0.70412(15) 0.2347(3) 0.0412 Uani
O2F O 1.20412(15) 0.75505(18) -0.5153(3) 0.0412 Uani
H3F H 1.139(3) 0.742(3) -0.243(5) 0.0520 Uiso
H4F H 0.949(2) 0.779(2) -0.563(5) 0.0300 Uiso
H5F H 0.837(2) 0.769(2) -0.366(4) 0.0240 Uiso
O3 O 0.5168(10) -0.0042(12) 0.733(2) 0.2810 Uiso
O4 O 0.0044(13) -0.0044(13) 0.2500 0.3110 Uiso
O5 O 0.0226(11) 0.0226(11) 0.5000 0.3410 Uiso
loop_
_atom_site_aniso_label
_atom_site_aniso_U_11
_atom_site_aniso_U_22
_atom_site_aniso_U_33
_atom_site_aniso_U_23
_atom_site_aniso_U_13
_atom_site_aniso_U_12
C1 0.040(2) 0.0337(17) 0.0315(18) 0.0041(13) 0.0016(17) -0.0026(18)
C2 0.045(2) 0.0339(16) 0.0276(17) -0.0010(14) 0.0030(18) 0.0021(19)
C3 0.071(3) 0.0368(19) 0.026(2) 0.0069(15) -0.0030(19) 0.000(2)
C4 0.063(3) 0.0293(17) 0.0286(19) 0.0024(14) -0.0037(19) 0.0025(19)
C5 0.042(2) 0.0309(16) 0.0252(16) -0.0003(12) 0.0013(17) -0.0062(19)
C6 0.057(2) 0.0372(17) 0.0276(18) 0.0066(14) 0.0025(19) -0.001(2)
C7 0.058(2) 0.0292(17) 0.0318(19) 0.0053(14) 0.001(2) -0.0003(19)
C8 0.088(4) 0.044(2) 0.0254(18) 0.0020(16) -0.004(2) -0.002(2)
N1 0.052(2) 0.0355(15) 0.0254(15) 0.0008(11) 0.0023(16) -0.0011(16)
N2 0.108(3) 0.0387(16) 0.0244(16) 0.0089(13) -0.001(2) 0.000(2)
Ni1 0.0354(3) 0.0354(3) 0.0219(3) -0.00196(17) 0.00196(17) -0.0002(3)
O1 0.076 0.0375 0.0228 0.0029 -0.0009 0.0005
O2 0.0662 0.03 0.0274 -0.0001 0.0043 -0.0009
C1F 0.0337 0.04 0.0315 -0.0016 -0.0041 -0.0026
C2F 0.0339 0.045 0.0276 -0.003 0.001 0.0021
C3F 0.0368 0.071 0.026 0.003 -0.0069 0
C4F 0.0293 0.063 0.0286 0.0037 -0.0024 0.0025
C5F 0.0309 0.042 0.0252 -0.0013 0.0003 -0.0062
C6F 0.0372 0.057 0.0276 -0.0025 -0.0066 -0.001
C7F 0.0292 0.058 0.0318 -0.001 -0.0053 -0.0003
C8F 0.044 0.088 0.0254 0.004 -0.002 -0.002
N1F 0.0355 0.052 0.0254 -0.0023 -0.0008 -0.0011
N2F 0.0387 0.108 0.0244 0.001 -0.0089 0
Ni1B 0.0354 0.0354 0.0219 0.00196 0.00196 0.0002
Ni1C 0.0354 0.0354 0.0219 -0.00196 -0.00196 0.0002
O1C 0.0375 0.076 0.0228 0.0009 0.0029 -0.0005
O1D 0.076 0.0375 0.0228 -0.0029 -0.0009 -0.0005
O1F 0.0375 0.076 0.0228 0.0009 -0.0029 0.0005
O2C 0.03 0.0662 0.0274 -0.0043 -0.0001 0.0009
O2D 0.0662 0.03 0.0274 0.0001 0.0043 0.0009
O2F 0.03 0.0662 0.0274 -0.0043 0.0001 -0.0009
loop_
_geom_bond_atom_site_label_1
_geom_bond_atom_site_label_2
_geom_bond_site_symmetry_1
_geom_bond_site_symmetry_2
C1 C2 1_555 1_555
C2 C3 1_555 1_555
C3 C4 1_555 1_555
C4 C5 1_555 1_555
C5 C6 1_555 1_555
C6 C7 1_555 1_555
C7 C2 1_555 1_555
C8 H1 1_555 1_555
N1 C5 1_555 1_555
N2 C6 1_555 1_555
H2 N2 1_555 1_555
Ni1 N1 1_555 1_555
O1 C1 1_555 1_555
O2 C1 1_555 1_555
H3 C7 1_555 1_555
H4 C3 1_555 1_555
H5 C4 1_555 1_555
C1F C2F 1_555 1_555
C2F C3F 1_555 1_555
C3F C4F 1_555 1_555
C4F C5F 1_555 1_555
C5F C6F 1_555 1_555
C6F C7F 1_555 1_555
C7F C2F 1_555 1_555
C8F H1F 1_555 1_555
N1F Ni1 1_555 1_555
N2F C6F 1_555 1_555
H2F N2F 1_555 1_555
Ni1B O1 1_555 1_555
Ni1C O1F 1_555 1_555
O1C Ni1 1_555 1_555
O1D Ni1 1_555 1_555
O1F C1F 1_555 1_555
O2C Ni1 1_555 1_555
O2D Ni1 1_555 1_555
O2F C1F 1_555 1_555
H3F C7F 1_555 1_555
H4F C3F 1_555 1_555
H5F C4F 1_555 1_555
C8 N1 1_555 1_555
C8 N2 1_555 1_555
O2 Ni1B 1_555 1_555
C5F N1F 1_555 1_555
C8F N1F 1_555 1_555
C8F N2F 1_555 1_555
Ni1C O2F 1_555 1_555

#END
