
#######################################################################
#
#                 Cambridge Crystallographic Data Centre
#                                CCDC 
#
#######################################################################
#
# If this CIF has been generated from an entry in the Cambridge 
# Structural Database, then it will include bibliographic, chemical, 
# crystal, experimental, refinement or atomic coordinate data resulting 
# from the CCDC's data processing and validation procedures.
#
#######################################################################

data_WOLREV
_chemical_formula_moiety         'C174 H114 Mn33 N121 O33'
_symmetry_cell_setting           cubic
_symmetry_space_group_name_H-M   'I a -3 d'
_symmetry_Int_Tables_number      230
_space_group_name_Hall           '-I 4bd 2c 3'
loop_
_symmetry_equiv_pos_site_id
_symmetry_equiv_pos_as_xyz
1 x,y,z
2 z,x,y
3 y,z,x
4 3/4+y,1/4+x,1/4-z
5 1/4+y,1/4-x,3/4+z
6 1/4-y,3/4+x,1/4+z
7 3/4+x,1/4+z,1/4-y
8 1/4-x,3/4+z,1/4+y
9 1/4+x,1/4-z,3/4+y
10 3/4+z,1/4+y,1/4-x
11 1/4+z,1/4-y,3/4+x
12 1/4-z,3/4+y,1/4+x
13 1/2+x,1/2+y,1/2+z
14 1/2+z,1/2+x,1/2+y
15 1/2+y,1/2+z,1/2+x
16 1/4+y,3/4+x,3/4-z
17 1/4-y,1/4-x,1/4-z
18 3/4+y,3/4-x,1/4+z
19 3/4-y,1/4+x,3/4+z
20 1/4+x,3/4+z,3/4-y
21 3/4-x,1/4+z,3/4+y
22 1/4-x,1/4-z,1/4-y
23 3/4+x,3/4-z,1/4+y
24 1/4+z,3/4+y,3/4-x
25 3/4+z,3/4-y,1/4+x
26 3/4-z,1/4+y,3/4+x
27 1/4-z,1/4-y,1/4-x
28 1/2-x,-y,1/2+z
29 -x,1/2+y,1/2-z
30 1/2+x,1/2-y,-z
31 1/2+z,1/2-x,-y
32 1/2-z,-x,1/2+y
33 -z,1/2+x,1/2-y
34 -y,1/2+z,1/2-x
35 1/2+y,1/2-z,-x
36 1/2-y,-z,1/2+x
37 3/4-y,3/4-x,3/4-z
38 3/4-x,3/4-z,3/4-y
39 3/4-z,3/4-y,3/4-x
40 -x,1/2-y,z
41 1/2-x,y,-z
42 x,-y,1/2-z
43 z,-x,1/2-y
44 -z,1/2-x,y
45 1/2-z,x,-y
46 1/2-y,z,-x
47 y,-z,1/2-x
48 -y,1/2-z,x
49 -x,-y,-z
50 -z,-x,-y
51 -y,-z,-x
52 1/4-y,3/4-x,3/4+z
53 3/4-y,3/4+x,1/4-z
54 3/4+y,1/4-x,3/4-z
55 1/4-x,3/4-z,3/4+y
56 3/4+x,1/4-z,3/4-y
57 3/4-x,3/4+z,1/4-y
58 1/4-z,3/4-y,3/4+x
59 3/4-z,3/4+y,1/4-x
60 3/4+z,1/4-y,3/4-x
61 1/2-x,1/2-y,1/2-z
62 1/2-z,1/2-x,1/2-y
63 1/2-y,1/2-z,1/2-x
64 3/4-y,1/4-x,1/4+z
65 3/4+y,3/4+x,3/4+z
66 1/4-y,1/4+x,3/4-z
67 1/4+y,3/4-x,1/4-z
68 3/4-x,1/4-z,1/4+y
69 1/4+x,3/4-z,1/4-y
70 3/4+x,3/4+z,3/4+y
71 1/4-x,1/4+z,3/4-y
72 3/4-z,1/4-y,1/4+x
73 1/4-z,1/4+y,3/4-x
74 1/4+z,3/4-y,1/4-x
75 3/4+z,3/4+y,3/4+x
76 1/2+x,y,1/2-z
77 x,1/2-y,1/2+z
78 1/2-x,1/2+y,z
79 1/2-z,1/2+x,y
80 1/2+z,x,1/2-y
81 z,1/2-x,1/2+y
82 y,1/2-z,1/2+x
83 1/2-y,1/2+z,x
84 1/2+y,z,1/2-x
85 1/4+y,1/4+x,1/4+z
86 1/4+x,1/4+z,1/4+y
87 1/4+z,1/4+y,1/4+x
88 x,1/2+y,-z
89 1/2+x,-y,z
90 -x,y,1/2+z
91 -z,x,1/2+y
92 z,1/2+x,-y
93 1/2+z,-x,y
94 1/2+y,-z,x
95 -y,z,1/2+x
96 y,1/2+z,-x
_cell_length_a                   35.4514(8)
_cell_length_b                   35.4514(8)
_cell_length_c                   35.4514(8)
_cell_angle_alpha                90
_cell_angle_beta                 90
_cell_angle_gamma                90
_cell_volume                     44555.4
loop_
_atom_site_label
_atom_site_type_symbol
_atom_site_fract_x
_atom_site_fract_y
_atom_site_fract_z
O3 O 0.227(4) 0.371(2) -0.193(2)
O4 O 0.1250 0.2973(11) -0.0473(11)
O6 O 0.1250 0.3358(17) -0.0858(17)
O7 O 0.1800(9) 0.3493(10) -0.1898(8)
O8 O 0.1428(14) 0.5046(16) -0.1372(15)
O9 O 0.1828(19) 0.4161(19) -0.1498(19)
O10 O 0.2275(17) 0.2228(18) -0.0118(19)
O11 O 0.2816(16) 0.1898(16) -0.0567(16)
O12 O 0.1250 0.244(4) 0.006(4)
Mn1 Mn 0.0000 0.5000 0.0000
Mn2 Mn 0.06598(8) 0.56598(8) -0.06598(8)
O1 O 0.0964(5) 0.5461(5) -0.1147(4)
N1 N -0.0350(4) 0.4992(4) -0.0832(6)
N2 N -0.0062(5) 0.5127(5) -0.0643(4)
N3 N 0.0148(4) 0.5339(5) -0.0848(7)
N4 N 0.0016(6) 0.5352(4) -0.1185(5)
C1 C -0.1250 0.5000 -0.2500
C2 C -0.0298(7) 0.5141(5) -0.1193(6)
C3 C -0.0525(5) 0.5100(6) -0.1521(6)
C4 C -0.0718(6) 0.5268(6) -0.2130(5)
H1 H -0.0695 0.5430 -0.2335
C5 C -0.0983(5) 0.5008(5) -0.2153(5)
C6 C -0.0471(5) 0.5325(5) -0.1832(6)
H2 H -0.0280 0.5505 -0.1843
C7 C -0.1029(5) 0.4776(5) -0.1841(6)
H3 H -0.1215 0.4590 -0.1839
C8 C -0.0799(7) 0.4823(5) -0.1538(5)
H4 H -0.0827 0.4661 -0.1333
Mn1O Mn -0.2500 0.7500 -0.2500
Mn1D Mn -0.2500 0.2500 -0.2500
Mn1N Mn 0.0000 0.5000 -0.5000
Mn1E Mn -0.2500 0.7500 0.2500
Mn1M Mn -0.5000 0.5000 0.0000
Mn1R Mn 0.2500 0.2500 -0.2500
Mn1IC Mn 0.0000 0.0000 0.0000
Mn1C Mn 0.2500 0.2500 0.2500
Mn1Q Mn 0.2500 0.7500 0.2500
Mn1N_2 Mn 0.0000 0.5000 0.5000
Mn1M_2 Mn 0.5000 0.5000 0.0000
Mn1IC_2 Mn 0.0000 1.0000 0.0000
Mn2YA Mn -0.31598(8) 0.68402(8) -0.31598(8)
Mn2MB Mn -0.31598(8) 0.31598(8) -0.18402(8)
Mn2N Mn 0.06598(8) 0.43402(8) -0.43402(8)
Mn2BC Mn -0.06598(8) 0.43402(8) 0.06598(8)
Mn2E Mn -0.31598(8) 0.81598(8) 0.18402(8)
Mn2O Mn -0.18402(8) 0.81598(8) -0.18402(8)
Mn2JC Mn -0.43402(8) 0.43402(8) -0.06598(8)
Mn2D Mn -0.18402(8) 0.18402(8) -0.31598(8)
Mn2R Mn 0.18402(8) 0.31598(8) -0.31598(8)
Mn2IC Mn 0.06598(8) 0.06598(8) 0.06598(8)
Mn2C Mn 0.31598(8) 0.31598(8) 0.31598(8)
Mn2Q Mn 0.31598(8) 0.68402(8) 0.18402(8)
Mn2KC Mn -0.06598(8) 0.56598(8) 0.43402(8)
Mn2GC Mn 0.31598(8) 0.18402(8) -0.18402(8)
Mn2KB Mn 0.18402(8) 0.18402(8) 0.18402(8)
Mn2M Mn 0.43402(8) 0.56598(8) 0.06598(8)
Mn2HC Mn 0.18402(8) 0.81598(8) 0.31598(8)
Mn2NB Mn -0.18402(8) 0.68402(8) 0.31598(8)
Mn2MA Mn -0.06598(8) 0.93402(8) -0.06598(8)
O1FA O 0.1147(4) 0.5964(5) -0.0461(5)
O1HA O 0.0461(5) 0.6147(4) -0.0964(5)
O1DB O -0.3464(5) 0.6353(4) -0.2961(5)
O1GB O -0.3647(4) 0.7039(5) -0.3464(5)
O1YA O -0.2961(5) 0.6536(5) -0.3647(4)
O1OB O -0.3464(5) 0.3647(4) -0.2039(5)
O1VB O -0.3647(4) 0.2961(5) -0.1536(5)
O1MB O -0.2961(5) 0.3464(5) -0.1353(4)
O1OA O 0.0964(5) 0.4539(5) -0.3853(4)
O1QA O 0.1147(4) 0.4036(5) -0.4539(5)
O1N O 0.0461(5) 0.3853(4) -0.4036(5)
O1BC O -0.1147(4) 0.4036(5) 0.0461(5)
O1DC O -0.0461(5) 0.3853(4) 0.0964(5)
O1VA O -0.0964(5) 0.4539(5) 0.1147(4)
O1E O -0.2961(5) 0.8464(5) 0.1353(4)
O1KA O -0.3464(5) 0.8647(4) 0.2039(5)
O1I O -0.3647(4) 0.7961(5) 0.1536(5)
O1O O -0.2039(5) 0.8464(5) -0.1353(4)
O1V O -0.1536(5) 0.8647(4) -0.2039(5)
O1Y O -0.1353(4) 0.7961(5) -0.1536(5)
O1IB O -0.3853(4) 0.4036(5) -0.0461(5)
O1QC O -0.4539(5) 0.3853(4) -0.0964(5)
O1JC O -0.4036(5) 0.4539(5) -0.1147(4)
N1DB N -0.2150(4) 0.6668(6) -0.2492(4)
N1OB N -0.2150(4) 0.3332(6) -0.2508(4)
N1OA N -0.0350(4) 0.5008(4) -0.4168(6)
N1BC N -0.0832(6) 0.5350(4) -0.0008(4)
N1E N -0.2492(4) 0.7150(4) 0.1668(6)
N1O N -0.2508(4) 0.7150(4) -0.1668(6)
N1IB N -0.4168(6) 0.5350(4) 0.0008(4)
N1DC N 0.0008(4) 0.4168(6) -0.0350(4)
N1LA N -0.1668(6) 0.2508(4) -0.2150(4)
N1W N 0.1668(6) 0.2492(4) -0.2150(4)
N1OC N -0.0008(4) 0.0832(6) -0.0350(4)
N1VA N 0.0350(4) 0.5008(4) 0.0832(6)
N1H N 0.2150(4) 0.3332(6) 0.2492(4)
N1S N 0.2150(4) 0.6668(6) 0.2508(4)
N1KC N 0.0350(4) 0.4992(4) 0.4168(6)
N1FA N 0.0832(6) 0.4650(4) 0.0008(4)
N1AB N 0.2492(4) 0.2850(4) -0.1668(6)
N1KB N 0.2508(4) 0.2850(4) 0.1668(6)
N1M N 0.4168(6) 0.4650(4) -0.0008(4)
N1HA N -0.0008(4) 0.5832(6) 0.0350(4)
N1HC N 0.1668(6) 0.7492(4) 0.2150(4)
N1SB N -0.1668(6) 0.7508(4) 0.2150(4)
N1SA N 0.0008(4) 0.9168(6) 0.0350(4)
N2DB N -0.2438(5) 0.6857(4) -0.2627(5)
N2OB N -0.2438(5) 0.3143(4) -0.2373(5)
N2OA N -0.0062(5) 0.4873(5) -0.4357(4)
N2BC N -0.0643(4) 0.5062(5) 0.0127(5)
N2E N -0.2627(5) 0.7438(5) 0.1857(4)
N2O N -0.2373(5) 0.7438(5) -0.1857(4)
N2IB N -0.4357(4) 0.5062(5) -0.0127(5)
N2DC N -0.0127(5) 0.4357(4) -0.0062(5)
N2LA N -0.1857(4) 0.2373(5) -0.2438(5)
N2W N 0.1857(4) 0.2627(5) -0.2438(5)
N2OC N 0.0127(5) 0.0643(4) -0.0062(5)
N2VA N 0.0062(5) 0.4873(5) 0.0643(4)
N2H N 0.2438(5) 0.3143(4) 0.2627(5)
N2S N 0.2438(5) 0.6857(4) 0.2373(5)
N2KC N 0.0062(5) 0.5127(5) 0.4357(4)
N2FA N 0.0643(4) 0.4938(5) -0.0127(5)
N2AB N 0.2627(5) 0.2562(5) -0.1857(4)
N2KB N 0.2373(5) 0.2562(5) 0.1857(4)
N2M N 0.4357(4) 0.4938(5) 0.0127(5)
N2HA N 0.0127(5) 0.5643(4) 0.0062(5)
N2HC N 0.1857(4) 0.7627(5) 0.2438(5)
N2SB N -0.1857(4) 0.7373(5) 0.2438(5)
N2SA N -0.0127(5) 0.9357(4) 0.0062(5)
N2Y N -0.1857(4) 0.7627(5) -0.2562(5)
N2V N -0.2562(5) 0.8143(4) -0.2373(5)
N2GB N -0.3143(4) 0.7373(5) -0.2438(5)
N2YA N -0.2627(5) 0.7562(5) -0.3143(4)
N2D N -0.2373(5) 0.2562(5) -0.3143(4)
N2F N -0.2562(5) 0.1857(4) -0.2627(5)
N2VB N -0.3143(4) 0.2627(5) -0.2562(5)
N2MB N -0.2627(5) 0.2438(5) -0.1857(4)
N2MC N -0.0643(4) 0.4938(5) -0.5127(5)
N2JB N -0.0127(5) 0.5643(4) -0.4938(5)
N2KC_2 N 0.0062(5) 0.5127(5) -0.5643(4)
N2QA N 0.0643(4) 0.5062(5) -0.4873(5)
N2N N 0.0127(5) 0.4357(4) -0.5062(5)
N3DB N -0.2648(4) 0.6652(7) -0.2839(5)
N3OB N -0.2648(4) 0.3348(7) -0.2161(5)
N3OA N 0.0148(4) 0.4661(5) -0.4152(7)
N3BC N -0.0848(7) 0.4852(4) 0.0339(5)
N3E N -0.2839(5) 0.7648(4) 0.1652(7)
N3O N -0.2161(5) 0.7648(4) -0.1652(7)
N3IB N -0.4152(7) 0.4852(4) -0.0339(5)
N3DC N -0.0339(5) 0.4152(7) 0.0148(4)
N3LA N -0.1652(7) 0.2161(5) -0.2648(4)
N3W N 0.1652(7) 0.2839(5) -0.2648(4)
N3OC N 0.0339(5) 0.0848(7) 0.0148(4)
N3VA N -0.0148(4) 0.4661(5) 0.0848(7)
N3H N 0.2648(4) 0.3348(7) 0.2839(5)
N3S N 0.2648(4) 0.6652(7) 0.2161(5)
N3KC N -0.0148(4) 0.5339(5) 0.4152(7)
N3FA N 0.0848(7) 0.5148(4) -0.0339(5)
N3AB N 0.2839(5) 0.2352(4) -0.1652(7)
N3KB N 0.2161(5) 0.2352(4) 0.1652(7)
N3M N 0.4152(7) 0.5148(4) 0.0339(5)
N3HA N 0.0339(5) 0.5848(7) -0.0148(4)
N3HC N 0.1652(7) 0.7839(5) 0.2648(4)
N3SB N -0.1652(7) 0.7161(5) 0.2648(4)
N3SA N -0.0339(5) 0.9152(7) -0.0148(4)
N3GB N -0.3348(7) 0.7161(5) -0.2648(4)
N3YA N -0.2839(5) 0.7352(4) -0.3348(7)
N3VB N -0.3348(7) 0.2839(5) -0.2352(4)
N3MB N -0.2839(5) 0.2648(4) -0.1652(7)
N3QA N 0.0848(7) 0.4852(4) -0.4661(5)
N3N N 0.0339(5) 0.4152(7) -0.4852(4)
N3KA N -0.2648(4) 0.8348(7) 0.2161(5)
N3I N -0.3348(7) 0.7839(5) 0.2352(4)
N3V N -0.2352(4) 0.8348(7) -0.2161(5)
N3Y N -0.1652(7) 0.7839(5) -0.2352(4)
N3QC N -0.4661(5) 0.4152(7) -0.0148(4)
N3JC N -0.4852(4) 0.4661(5) -0.0848(7)
N4DB N -0.2516(6) 0.6315(5) -0.2852(4)
N4OB N -0.2516(6) 0.3685(5) -0.2148(4)
N4OA N 0.0016(6) 0.4648(4) -0.3815(5)
N4BC N -0.1185(5) 0.4984(6) 0.0352(4)
N4E N -0.2852(4) 0.7516(6) 0.1315(5)
N4O N -0.2148(4) 0.7516(6) -0.1315(5)
N4IB N -0.3815(5) 0.4984(6) -0.0352(4)
N4DC N -0.0352(4) 0.3815(5) 0.0016(6)
N4LA N -0.1315(5) 0.2148(4) -0.2516(6)
N4W N 0.1315(5) 0.2852(4) -0.2516(6)
N4OC N 0.0352(4) 0.1185(5) 0.0016(6)
N4VA N -0.0016(6) 0.4648(4) 0.1185(5)
N4H N 0.2516(6) 0.3685(5) 0.2852(4)
N4S N 0.2516(6) 0.6315(5) 0.2148(4)
N4KC N -0.0016(6) 0.5352(4) 0.3815(5)
N4FA N 0.1185(5) 0.5016(6) -0.0352(4)
N4AB N 0.2852(4) 0.2484(6) -0.1315(5)
N4KB N 0.2148(4) 0.2484(6) 0.1315(5)
N4M N 0.3815(5) 0.5016(6) 0.0352(4)
N4HA N 0.0352(4) 0.6185(5) -0.0016(6)
N4HC N 0.1315(5) 0.7852(4) 0.2516(6)
N4SB N -0.1315(5) 0.7148(4) 0.2516(6)
N4SA N -0.0352(4) 0.8815(5) -0.0016(6)
C1E C -0.2500 0.6250 0.0000
C1W C 0.0000 0.2500 -0.1250
C1H C 0.1250 0.5000 0.2500
C1M C 0.2500 0.3750 0.0000
C1HC C 0.0000 0.7500 0.1250
C2DB C -0.2202(7) 0.6307(6) -0.2641(5)
C2OB C -0.2202(7) 0.3693(6) -0.2359(5)
C2OA C -0.0298(7) 0.4859(5) -0.3807(6)
C2BC C -0.1193(6) 0.5298(7) 0.0141(5)
C2E C -0.2641(5) 0.7202(7) 0.1307(6)
C2O C -0.2359(5) 0.7202(7) -0.1307(6)
C2IB C -0.3807(6) 0.5298(7) -0.0141(5)
C2DC C -0.0141(5) 0.3807(6) -0.0298(7)
C2LA C -0.1307(6) 0.2359(5) -0.2202(7)
C2W C 0.1307(6) 0.2641(5) -0.2202(7)
C2OC C 0.0141(5) 0.1193(6) -0.0298(7)
C2VA C 0.0298(7) 0.4859(5) 0.1193(6)
C2H C 0.2202(7) 0.3693(6) 0.2641(5)
C2S C 0.2202(7) 0.6307(6) 0.2359(5)
C2KC C 0.0298(7) 0.5141(5) 0.3807(6)
C2FA C 0.1193(6) 0.4702(7) -0.0141(5)
C2AB C 0.2641(5) 0.2798(7) -0.1307(6)
C2KB C 0.2359(5) 0.2798(7) 0.1307(6)
C2M C 0.3807(6) 0.4702(7) 0.0141(5)
C2HA C 0.0141(5) 0.6193(6) 0.0298(7)
C2HC C 0.1307(6) 0.7641(5) 0.2202(7)
C2SB C -0.1307(6) 0.7359(5) 0.2202(7)
C2SA C -0.0141(5) 0.8807(6) 0.0298(7)
C3DB C -0.1975(5) 0.5979(6) -0.2600(6)
C3OB C -0.1975(5) 0.4021(6) -0.2400(6)
C3OA C -0.0525(5) 0.4900(6) -0.3479(6)
C3BC C -0.1521(6) 0.5525(5) 0.0100(6)
C3E C -0.2600(6) 0.6975(5) 0.0979(6)
C3O C -0.2400(6) 0.6975(5) -0.0979(6)
C3IB C -0.3479(6) 0.5525(5) -0.0100(6)
C3DC C -0.0100(6) 0.3479(6) -0.0525(5)
C3LA C -0.0979(6) 0.2400(6) -0.1975(5)
C3W C 0.0979(6) 0.2600(6) -0.1975(5)
C3OC C 0.0100(6) 0.1521(6) -0.0525(5)
C3VA C 0.0525(5) 0.4900(6) 0.1521(6)
C3H C 0.1975(5) 0.4021(6) 0.2600(6)
C3S C 0.1975(5) 0.5979(6) 0.2400(6)
C3KC C 0.0525(5) 0.5100(6) 0.3479(6)
C3FA C 0.1521(6) 0.4475(5) -0.0100(6)
C3AB C 0.2600(6) 0.3025(5) -0.0979(6)
C3KB C 0.2400(6) 0.3025(5) 0.0979(6)
C3M C 0.3479(6) 0.4475(5) 0.0100(6)
C3HA C 0.0100(6) 0.6521(6) 0.0525(5)
C3HC C 0.0979(6) 0.7600(6) 0.1975(5)
C3SB C -0.0979(6) 0.7400(6) 0.1975(5)
C3SA C -0.0100(6) 0.8479(6) 0.0525(5)
C4DB C -0.1782(6) 0.5370(5) -0.2768(6)
C4OB C -0.1782(6) 0.4630(5) -0.2232(6)
C4OA C -0.0718(6) 0.4732(6) -0.2870(5)
C4BC C -0.2130(5) 0.5718(6) 0.0268(6)
C4E C -0.2768(6) 0.6782(6) 0.0370(5)
C4O C -0.2232(6) 0.6782(6) -0.0370(5)
C4IB C -0.2870(5) 0.5718(6) -0.0268(6)
C4DC C -0.0268(6) 0.2870(5) -0.0718(6)
C4LA C -0.0370(5) 0.2232(6) -0.1782(6)
C4W C 0.0370(5) 0.2768(6) -0.1782(6)
C4OC C 0.0268(6) 0.2130(5) -0.0718(6)
C4VA C 0.0718(6) 0.4732(6) 0.2130(5)
C4H C 0.1782(6) 0.4630(5) 0.2768(6)
C4S C 0.1782(6) 0.5370(5) 0.2232(6)
C4KC C 0.0718(6) 0.5268(6) 0.2870(5)
C4FA C 0.2130(5) 0.4282(6) -0.0268(6)
C4AB C 0.2768(6) 0.3218(6) -0.0370(5)
C4KB C 0.2232(6) 0.3218(6) 0.0370(5)
C4M C 0.2870(5) 0.4282(6) 0.0268(6)
C4HA C 0.0268(6) 0.7130(5) 0.0718(6)
C4HC C 0.0370(5) 0.7768(6) 0.1782(6)
C4SB C -0.0370(5) 0.7232(6) 0.1782(6)
C4SA C -0.0268(6) 0.7870(5) 0.0718(6)
H1DB H -0.1805 0.5165 -0.2930
H1OB H -0.1805 0.4835 -0.2070
H1OA H -0.0695 0.4570 -0.2665
H1BC H -0.2335 0.5695 0.0430
H1E H -0.2930 0.6805 0.0165
H1O H -0.2070 0.6805 -0.0165
H1IB H -0.2665 0.5695 -0.0430
H1DC H -0.0430 0.2665 -0.0695
H1LA H -0.0165 0.2070 -0.1805
H1W H 0.0165 0.2930 -0.1805
H1OC H 0.0430 0.2335 -0.0695
H1VA H 0.0695 0.4570 0.2335
H1H H 0.1805 0.4835 0.2930
H1S H 0.1805 0.5165 0.2070
H1KC H 0.0695 0.5430 0.2665
H1FA H 0.2335 0.4305 -0.0430
H1AB H 0.2930 0.3195 -0.0165
H1KB H 0.2070 0.3195 0.0165
H1M H 0.2665 0.4305 0.0430
H1HA H 0.0430 0.7335 0.0695
H1HC H 0.0165 0.7930 0.1805
H1SB H -0.0165 0.7070 0.1805
H1SA H -0.0430 0.7665 0.0695
C5DB C -0.1517(5) 0.5347(5) -0.2508(5)
C5OB C -0.1517(5) 0.4653(5) -0.2492(5)
C5OA C -0.0983(5) 0.4992(5) -0.2847(5)
C5BC C -0.2153(5) 0.5983(5) 0.0008(5)
C5E C -0.2508(5) 0.6517(5) 0.0347(5)
C5O C -0.2492(5) 0.6517(5) -0.0347(5)
C5IB C -0.2847(5) 0.5983(5) -0.0008(5)
C5DC C -0.0008(5) 0.2847(5) -0.0983(5)
C5LA C -0.0347(5) 0.2492(5) -0.1517(5)
C5W C 0.0347(5) 0.2508(5) -0.1517(5)
C5OC C 0.0008(5) 0.2153(5) -0.0983(5)
C5VA C 0.0983(5) 0.4992(5) 0.2153(5)
C5H C 0.1517(5) 0.4653(5) 0.2508(5)
C5S C 0.1517(5) 0.5347(5) 0.2492(5)
C5KC C 0.0983(5) 0.5008(5) 0.2847(5)
C5FA C 0.2153(5) 0.4017(5) -0.0008(5)
C5AB C 0.2508(5) 0.3483(5) -0.0347(5)
C5KB C 0.2492(5) 0.3483(5) 0.0347(5)
C5M C 0.2847(5) 0.4017(5) 0.0008(5)
C5HA C 0.0008(5) 0.7153(5) 0.0983(5)
C5HC C 0.0347(5) 0.7508(5) 0.1517(5)
C5SB C -0.0347(5) 0.7492(5) 0.1517(5)
C5SA C -0.0008(5) 0.7847(5) 0.0983(5)
C6DB C -0.2029(5) 0.5668(6) -0.2825(5)
C6OB C -0.2029(5) 0.4332(6) -0.2175(5)
C6OA C -0.0471(5) 0.4675(5) -0.3168(6)
C6BC C -0.1832(6) 0.5471(5) 0.0325(5)
C6E C -0.2825(5) 0.7029(5) 0.0668(6)
C6O C -0.2175(5) 0.7029(5) -0.0668(6)
C6IB C -0.3168(6) 0.5471(5) -0.0325(5)
C6DC C -0.0325(5) 0.3168(6) -0.0471(5)
C6LA C -0.0668(6) 0.2175(5) -0.2029(5)
C6W C 0.0668(6) 0.2825(5) -0.2029(5)
C6OC C 0.0325(5) 0.1832(6) -0.0471(5)
C6VA C 0.0471(5) 0.4675(5) 0.1832(6)
C6H C 0.2029(5) 0.4332(6) 0.2825(5)
C6S C 0.2029(5) 0.5668(6) 0.2175(5)
C6KC C 0.0471(5) 0.5325(5) 0.3168(6)
C6FA C 0.1832(6) 0.4529(5) -0.0325(5)
C6AB C 0.2825(5) 0.2971(5) -0.0668(6)
C6KB C 0.2175(5) 0.2971(5) 0.0668(6)
C6M C 0.3168(6) 0.4529(5) 0.0325(5)
C6HA C 0.0325(5) 0.6832(6) 0.0471(5)
C6HC C 0.0668(6) 0.7825(5) 0.2029(5)
C6SB C -0.0668(6) 0.7175(5) 0.2029(5)
C6SA C -0.0325(5) 0.8168(6) 0.0471(5)
H2DB H -0.2220 0.5657 -0.3005
H2OB H -0.2220 0.4343 -0.1995
H2OA H -0.0280 0.4495 -0.3157
H2BC H -0.1843 0.5280 0.0505
H2E H -0.3005 0.7220 0.0657
H2O H -0.1995 0.7220 -0.0657
H2IB H -0.3157 0.5280 -0.0505
H2DC H -0.0505 0.3157 -0.0280
H2LA H -0.0657 0.1995 -0.2220
H2W H 0.0657 0.3005 -0.2220
H2OC H 0.0505 0.1843 -0.0280
H2VA H 0.0280 0.4495 0.1843
H2H H 0.2220 0.4343 0.3005
H2S H 0.2220 0.5657 0.1995
H2KC H 0.0280 0.5505 0.3157
H2FA H 0.1843 0.4720 -0.0505
H2AB H 0.3005 0.2780 -0.0657
H2KB H 0.1995 0.2780 0.0657
H2M H 0.3157 0.4720 0.0505
H2HA H 0.0505 0.6843 0.0280
H2HC H 0.0657 0.8005 0.2220
H2SB H -0.0657 0.6995 0.2220
H2SA H -0.0505 0.8157 0.0280
C7DB C -0.1471(5) 0.5659(6) -0.2276(5)
C7OB C -0.1471(5) 0.4341(6) -0.2724(5)
C7OA C -0.1029(5) 0.5224(5) -0.3159(6)
C7BC C -0.1841(6) 0.6029(5) -0.0224(5)
C7E C -0.2276(5) 0.6471(5) 0.0659(6)
C7O C -0.2724(5) 0.6471(5) -0.0659(6)
C7IB C -0.3159(6) 0.6029(5) 0.0224(5)
C7DC C 0.0224(5) 0.3159(6) -0.1029(5)
C7LA C -0.0659(6) 0.2724(5) -0.1471(5)
C7W C 0.0659(6) 0.2276(5) -0.1471(5)
C7OC C -0.0224(5) 0.1841(6) -0.1029(5)
C7VA C 0.1029(5) 0.5224(5) 0.1841(6)
C7H C 0.1471(5) 0.4341(6) 0.2276(5)
C7S C 0.1471(5) 0.5659(6) 0.2724(5)
C7KC C 0.1029(5) 0.4776(5) 0.3159(6)
C7FA C 0.1841(6) 0.3971(5) 0.0224(5)
C7AB C 0.2276(5) 0.3529(5) -0.0659(6)
C7KB C 0.2724(5) 0.3529(5) 0.0659(6)
C7M C 0.3159(6) 0.3971(5) -0.0224(5)
C7HA C -0.0224(5) 0.6841(6) 0.1029(5)
C7HC C 0.0659(6) 0.7276(5) 0.1471(5)
C7SB C -0.0659(6) 0.7724(5) 0.1471(5)
C7SA C 0.0224(5) 0.8159(6) 0.1029(5)
H3DB H -0.1285 0.5661 -0.2090
H3OB H -0.1285 0.4339 -0.2910
H3OA H -0.1215 0.5410 -0.3161
H3BC H -0.1839 0.6215 -0.0410
H3E H -0.2090 0.6285 0.0661
H3O H -0.2910 0.6285 -0.0661
H3IB H -0.3161 0.6215 0.0410
H3DC H 0.0410 0.3161 -0.1215
H3LA H -0.0661 0.2910 -0.1285
H3W H 0.0661 0.2090 -0.1285
H3OC H -0.0410 0.1839 -0.1215
H3VA H 0.1215 0.5410 0.1839
H3H H 0.1285 0.4339 0.2090
H3S H 0.1285 0.5661 0.2910
H3KC H 0.1215 0.4590 0.3161
H3FA H 0.1839 0.3785 0.0410
H3AB H 0.2090 0.3715 -0.0661
H3KB H 0.2910 0.3715 0.0661
H3M H 0.3161 0.3785 -0.0410
H3HA H -0.0410 0.6839 0.1215
H3HC H 0.0661 0.7090 0.1285
H3SB H -0.0661 0.7910 0.1285
H3SA H 0.0410 0.8161 0.1215
C8DB C -0.1701(7) 0.5962(5) -0.2323(5)
C8OB C -0.1701(7) 0.4038(5) -0.2677(5)
C8OA C -0.0799(7) 0.5177(5) -0.3462(5)
C8BC C -0.1538(5) 0.5799(7) -0.0177(5)
C8E C -0.2323(5) 0.6701(7) 0.0962(5)
C8O C -0.2677(5) 0.6701(7) -0.0962(5)
C8IB C -0.3462(5) 0.5799(7) 0.0177(5)
C8DC C 0.0177(5) 0.3462(5) -0.0799(7)
C8LA C -0.0962(5) 0.2677(5) -0.1701(7)
C8W C 0.0962(5) 0.2323(5) -0.1701(7)
C8OC C -0.0177(5) 0.1538(5) -0.0799(7)
C8VA C 0.0799(7) 0.5177(5) 0.1538(5)
C8H C 0.1701(7) 0.4038(5) 0.2323(5)
C8S C 0.1701(7) 0.5962(5) 0.2677(5)
C8KC C 0.0799(7) 0.4823(5) 0.3462(5)
C8FA C 0.1538(5) 0.4201(7) 0.0177(5)
C8AB C 0.2323(5) 0.3299(7) -0.0962(5)
C8KB C 0.2677(5) 0.3299(7) 0.0962(5)
C8M C 0.3462(5) 0.4201(7) -0.0177(5)
C8HA C -0.0177(5) 0.6538(5) 0.0799(7)
C8HC C 0.0962(5) 0.7323(5) 0.1701(7)
C8SB C -0.0962(5) 0.7677(5) 0.1701(7)
C8SA C 0.0177(5) 0.8462(5) 0.0799(7)
H4DB H -0.1673 0.6167 -0.2161
H4OB H -0.1673 0.3833 -0.2839
H4OA H -0.0827 0.5339 -0.3667
H4BC H -0.1333 0.5827 -0.0339
H4E H -0.2161 0.6673 0.1167
H4O H -0.2839 0.6673 -0.1167
H4IB H -0.3667 0.5827 0.0339
H4DC H 0.0339 0.3667 -0.0827
H4LA H -0.1167 0.2839 -0.1673
H4W H 0.1167 0.2161 -0.1673
H4OC H -0.0339 0.1333 -0.0827
H4VA H 0.0827 0.5339 0.1333
H4H H 0.1673 0.3833 0.2161
H4S H 0.1673 0.6167 0.2839
H4KC H 0.0827 0.4661 0.3667
H4FA H 0.1333 0.4173 0.0339
H4AB H 0.2161 0.3327 -0.1167
H4KB H 0.2839 0.3327 0.1167
H4M H 0.3667 0.4173 -0.0339
H4HA H -0.0339 0.6333 0.0827
H4HC H 0.1167 0.7161 0.1673
H4SB H -0.1167 0.7839 0.1673
H4SA H 0.0339 0.8667 0.0827
loop_
_geom_bond_atom_site_label_1
_geom_bond_atom_site_label_2
_geom_bond_site_symmetry_1
_geom_bond_site_symmetry_2
Mn1 N2 1_555 1_555
Mn2 O1 1_555 1_555
N1 N2 1_555 1_555
N2 N3 1_555 1_555
N3 Mn2 1_555 1_555
N4 N3 1_555 1_555
C1 C5 1_555 1_555
C2 N1 1_555 1_555
C3 C2 1_555 1_555
C4 H1 1_555 1_555
C5 C4 1_555 1_555
C6 C3 1_555 1_555
H2 C6 1_555 1_555
C7 C5 1_555 1_555
H3 C7 1_555 1_555
C8 C3 1_555 1_555
H4 C8 1_555 1_555
Mn1O N2DB 1_555 1_555
Mn1D N2OB 1_555 1_555
Mn1N N2OA 1_555 1_555
Mn1E N2E 1_555 1_555
Mn1M N2IB 1_555 1_555
Mn1R N2W 1_555 1_555
Mn1IC N2OC 1_555 1_555
Mn1C N2H 1_555 1_555
Mn1Q N2S 1_555 1_555
Mn1N_2 N2KC 1_555 1_555
Mn1M_2 N2M 1_555 1_555
Mn1IC_2 N2SA 1_555 1_555
Mn2YA O1DB 1_555 1_555
Mn2MB O1OB 1_555 1_555
Mn2N O1OA 1_555 1_555
Mn2BC O1BC 1_555 1_555
Mn2E O1E 1_555 1_555
Mn2O O1O 1_555 1_555
Mn2JC O1IB 1_555 1_555
Mn2D N3LA 1_555 1_555
Mn2R N3W 1_555 1_555
Mn2IC N3OC 1_555 1_555
Mn2C N3H 1_555 1_555
Mn2Q N3S 1_555 1_555
Mn2KC N3KC 1_555 1_555
Mn2GC N3AB 1_555 1_555
Mn2KB N3KB 1_555 1_555
Mn2M N3M 1_555 1_555
Mn2HC N3HC 1_555 1_555
Mn2NB N3SB 1_555 1_555
Mn2MA N3SA 1_555 1_555
O1FA Mn2 1_555 1_555
O1HA Mn2 1_555 1_555
O1GB Mn2YA 1_555 1_555
O1YA Mn2YA 1_555 1_555
O1VB Mn2MB 1_555 1_555
O1MB Mn2MB 1_555 1_555
O1QA Mn2N 1_555 1_555
O1N Mn2N 1_555 1_555
O1DC Mn2BC 1_555 1_555
O1VA Mn2BC 1_555 1_555
O1KA Mn2E 1_555 1_555
O1I Mn2E 1_555 1_555
O1V Mn2O 1_555 1_555
O1Y Mn2O 1_555 1_555
O1QC Mn2JC 1_555 1_555
O1JC Mn2JC 1_555 1_555
N1DB N2DB 1_555 1_555
N1OB N2OB 1_555 1_555
N1OA N2OA 1_555 1_555
N1BC N2BC 1_555 1_555
N1E N2E 1_555 1_555
N1O N2O 1_555 1_555
N1IB N2IB 1_555 1_555
N1DC N2DC 1_555 1_555
N1LA N2LA 1_555 1_555
N1W N2W 1_555 1_555
N1OC N2OC 1_555 1_555
N1VA N2VA 1_555 1_555
N1H N2H 1_555 1_555
N1S N2S 1_555 1_555
N1KC N2KC 1_555 1_555
N1FA N2FA 1_555 1_555
N1AB N2AB 1_555 1_555
N1KB N2KB 1_555 1_555
N1M N2M 1_555 1_555
N1HA N2HA 1_555 1_555
N1HC N2HC 1_555 1_555
N1SB N2SB 1_555 1_555
N1SA N2SA 1_555 1_555
N2DB N3DB 1_555 1_555
N2OB N3OB 1_555 1_555
N2OA N3OA 1_555 1_555
N2BC Mn1 1_555 1_555
N2E N3E 1_555 1_555
N2O Mn1O 1_555 1_555
N2IB N3IB 1_555 1_555
N2DC Mn1 1_555 1_555
N2LA Mn1D 1_555 1_555
N2W N3W 1_555 1_555
N2OC N3OC 1_555 1_555
N2VA Mn1 1_555 1_555
N2H N3H 1_555 1_555
N2S N3S 1_555 1_555
N2KC N3KC 1_555 1_555
N2FA Mn1 1_555 1_555
N2AB Mn1R 1_555 1_555
N2KB Mn1C 1_555 1_555
N2M N3M 1_555 1_555
N2HA Mn1 1_555 1_555
N2HC Mn1Q 1_555 1_555
N2SB Mn1E 1_555 1_555
N2SA N3SA 1_555 1_555
N2Y Mn1O 1_555 1_555
N2V Mn1O 1_555 1_555
N2GB Mn1O 1_555 1_555
N2YA Mn1O 1_555 1_555
N2D Mn1D 1_555 1_555
N2F Mn1D 1_555 1_555
N2VB Mn1D 1_555 1_555
N2MB Mn1D 1_555 1_555
N2MC Mn1N 1_555 1_555
N2JB Mn1N 1_555 1_555
N2KC_2 Mn1N 1_555 1_555
N2QA Mn1N 1_555 1_555
N2N Mn1N 1_555 1_555
N3DB Mn2YA 1_555 1_555
N3OB Mn2MB 1_555 1_555
N3OA Mn2N 1_555 1_555
N3BC Mn2BC 1_555 1_555
N3E Mn2E 1_555 1_555
N3O Mn2O 1_555 1_555
N3IB Mn2JC 1_555 1_555
N3DC Mn2BC 1_555 1_555
N3LA N2LA 1_555 1_555
N3W N4W 1_555 1_555
N3OC N4OC 1_555 1_555
N3VA Mn2BC 1_555 1_555
N3H N4H 1_555 1_555
N3S N4S 1_555 1_555
N3KC N4KC 1_555 1_555
N3FA Mn2 1_555 1_555
N3AB N2AB 1_555 1_555
N3KB N2KB 1_555 1_555
N3M N4M 1_555 1_555
N3HA Mn2 1_555 1_555
N3HC N2HC 1_555 1_555
N3SB N2SB 1_555 1_555
N3SA N4SA 1_555 1_555
N3GB Mn2YA 1_555 1_555
N3YA Mn2YA 1_555 1_555
N3VB Mn2MB 1_555 1_555
N3MB Mn2MB 1_555 1_555
N3QA Mn2N 1_555 1_555
N3N Mn2N 1_555 1_555
N3KA Mn2E 1_555 1_555
N3I Mn2E 1_555 1_555
N3V Mn2O 1_555 1_555
N3Y Mn2O 1_555 1_555
N3QC Mn2JC 1_555 1_555
N3JC Mn2JC 1_555 1_555
N4DB N3DB 1_555 1_555
N4OB N3OB 1_555 1_555
N4OA N3OA 1_555 1_555
N4BC N3BC 1_555 1_555
N4E N3E 1_555 1_555
N4O N3O 1_555 1_555
N4IB N3IB 1_555 1_555
N4DC N3DC 1_555 1_555
N4LA N3LA 1_555 1_555
N4W C2W 1_555 1_555
N4OC C2OC 1_555 1_555
N4VA N3VA 1_555 1_555
N4H C2H 1_555 1_555
N4S C2S 1_555 1_555
N4KC C2KC 1_555 1_555
N4FA N3FA 1_555 1_555
N4AB N3AB 1_555 1_555
N4KB N3KB 1_555 1_555
N4M C2M 1_555 1_555
N4HA N3HA 1_555 1_555
N4HC N3HC 1_555 1_555
N4SB N3SB 1_555 1_555
N4SA C2SA 1_555 1_555
C1E C5BC 1_555 1_555
C1W C5DC 1_555 1_555
C1H C5VA 1_555 1_555
C1M C5FA 1_555 1_555
C1HC C5HA 1_555 1_555
C2DB N1DB 1_555 1_555
C2OB N1OB 1_555 1_555
C2OA N1OA 1_555 1_555
C2BC N1BC 1_555 1_555
C2E N1E 1_555 1_555
C2O N1O 1_555 1_555
C2IB N1IB 1_555 1_555
C2DC N1DC 1_555 1_555
C2LA N1LA 1_555 1_555
C2W N1W 1_555 1_555
C2OC N1OC 1_555 1_555
C2VA N1VA 1_555 1_555
C2H N1H 1_555 1_555
C2S N1S 1_555 1_555
C2KC N1KC 1_555 1_555
C2FA N1FA 1_555 1_555
C2AB N1AB 1_555 1_555
C2KB N1KB 1_555 1_555
C2M N1M 1_555 1_555
C2HA N1HA 1_555 1_555
C2HC N1HC 1_555 1_555
C2SB N1SB 1_555 1_555
C2SA N1SA 1_555 1_555
C3DB C2DB 1_555 1_555
C3OB C2OB 1_555 1_555
C3OA C2OA 1_555 1_555
C3BC C2BC 1_555 1_555
C3E C2E 1_555 1_555
C3O C2O 1_555 1_555
C3IB C2IB 1_555 1_555
C3DC C2DC 1_555 1_555
C3LA C2LA 1_555 1_555
C3W C2W 1_555 1_555
C3OC C2OC 1_555 1_555
C3VA C2VA 1_555 1_555
C3H C2H 1_555 1_555
C3S C2S 1_555 1_555
C3KC C2KC 1_555 1_555
C3FA C2FA 1_555 1_555
C3AB C2AB 1_555 1_555
C3KB C2KB 1_555 1_555
C3M C2M 1_555 1_555
C3HA C2HA 1_555 1_555
C3HC C2HC 1_555 1_555
C3SB C2SB 1_555 1_555
C3SA C2SA 1_555 1_555
C4DB H1DB 1_555 1_555
C4OB H1OB 1_555 1_555
C4OA H1OA 1_555 1_555
C4BC H1BC 1_555 1_555
C4E H1E 1_555 1_555
C4O H1O 1_555 1_555
C4IB H1IB 1_555 1_555
C4DC H1DC 1_555 1_555
C4LA H1LA 1_555 1_555
C4W H1W 1_555 1_555
C4OC H1OC 1_555 1_555
C4VA H1VA 1_555 1_555
C4H H1H 1_555 1_555
C4S H1S 1_555 1_555
C4KC H1KC 1_555 1_555
C4FA H1FA 1_555 1_555
C4AB H1AB 1_555 1_555
C4KB H1KB 1_555 1_555
C4M H1M 1_555 1_555
C4HA H1HA 1_555 1_555
C4HC H1HC 1_555 1_555
C4SB H1SB 1_555 1_555
C4SA H1SA 1_555 1_555
C5DB C1 1_555 1_555
C5OB C1 1_555 1_555
C5OA C1 1_555 1_555
C5BC C4BC 1_555 1_555
C5E C1E 1_555 1_555
C5O C1E 1_555 1_555
C5IB C1E 1_555 1_555
C5DC C4DC 1_555 1_555
C5LA C1W 1_555 1_555
C5W C1W 1_555 1_555
C5OC C1W 1_555 1_555
C5VA C4VA 1_555 1_555
C5H C1H 1_555 1_555
C5S C1H 1_555 1_555
C5KC C1H 1_555 1_555
C5FA C4FA 1_555 1_555
C5AB C1M 1_555 1_555
C5KB C1M 1_555 1_555
C5M C1M 1_555 1_555
C5HA C4HA 1_555 1_555
C5HC C1HC 1_555 1_555
C5SB C1HC 1_555 1_555
C5SA C1HC 1_555 1_555
C6DB C3DB 1_555 1_555
C6OB C3OB 1_555 1_555
C6OA C3OA 1_555 1_555
C6BC C3BC 1_555 1_555
C6E C3E 1_555 1_555
C6O C3O 1_555 1_555
C6IB C3IB 1_555 1_555
C6DC C3DC 1_555 1_555
C6LA C3LA 1_555 1_555
C6W C3W 1_555 1_555
C6OC C3OC 1_555 1_555
C6VA C3VA 1_555 1_555
C6H C3H 1_555 1_555
C6S C3S 1_555 1_555
C6KC C3KC 1_555 1_555
C6FA C3FA 1_555 1_555
C6AB C3AB 1_555 1_555
C6KB C3KB 1_555 1_555
C6M C3M 1_555 1_555
C6HA C3HA 1_555 1_555
C6HC C3HC 1_555 1_555
C6SB C3SB 1_555 1_555
C6SA C3SA 1_555 1_555
H2DB C6DB 1_555 1_555
H2OB C6OB 1_555 1_555
H2OA C6OA 1_555 1_555
H2BC C6BC 1_555 1_555
H2E C6E 1_555 1_555
H2O C6O 1_555 1_555
H2IB C6IB 1_555 1_555
H2DC C6DC 1_555 1_555
H2LA C6LA 1_555 1_555
H2W C6W 1_555 1_555
H2OC C6OC 1_555 1_555
H2VA C6VA 1_555 1_555
H2H C6H 1_555 1_555
H2S C6S 1_555 1_555
H2KC C6KC 1_555 1_555
H2FA C6FA 1_555 1_555
H2AB C6AB 1_555 1_555
H2KB C6KB 1_555 1_555
H2M C6M 1_555 1_555
H2HA C6HA 1_555 1_555
H2HC C6HC 1_555 1_555
H2SB C6SB 1_555 1_555
H2SA C6SA 1_555 1_555
C7DB C5DB 1_555 1_555
C7OB C5OB 1_555 1_555
C7OA C5OA 1_555 1_555
C7BC C5BC 1_555 1_555
C7E C5E 1_555 1_555
C7O C5O 1_555 1_555
C7IB C5IB 1_555 1_555
C7DC C5DC 1_555 1_555
C7LA C5LA 1_555 1_555
C7W C5W 1_555 1_555
C7OC C5OC 1_555 1_555
C7VA C5VA 1_555 1_555
C7H C5H 1_555 1_555
C7S C5S 1_555 1_555
C7KC C5KC 1_555 1_555
C7FA C5FA 1_555 1_555
C7AB C5AB 1_555 1_555
C7KB C5KB 1_555 1_555
C7M C5M 1_555 1_555
C7HA C5HA 1_555 1_555
C7HC C5HC 1_555 1_555
C7SB C5SB 1_555 1_555
C7SA C5SA 1_555 1_555
H3DB C7DB 1_555 1_555
H3OB C7OB 1_555 1_555
H3OA C7OA 1_555 1_555
H3BC C7BC 1_555 1_555
H3E C7E 1_555 1_555
H3O C7O 1_555 1_555
H3IB C7IB 1_555 1_555
H3DC C7DC 1_555 1_555
H3LA C7LA 1_555 1_555
H3W C7W 1_555 1_555
H3OC C7OC 1_555 1_555
H3VA C7VA 1_555 1_555
H3H C7H 1_555 1_555
H3S C7S 1_555 1_555
H3KC C7KC 1_555 1_555
H3FA C7FA 1_555 1_555
H3AB C7AB 1_555 1_555
H3KB C7KB 1_555 1_555
H3M C7M 1_555 1_555
H3HA C7HA 1_555 1_555
H3HC C7HC 1_555 1_555
H3SB C7SB 1_555 1_555
H3SA C7SA 1_555 1_555
C8DB C3DB 1_555 1_555
C8OB C3OB 1_555 1_555
C8OA C3OA 1_555 1_555
C8BC C3BC 1_555 1_555
C8E C3E 1_555 1_555
C8O C3O 1_555 1_555
C8IB C3IB 1_555 1_555
C8DC C3DC 1_555 1_555
C8LA C3LA 1_555 1_555
C8W C3W 1_555 1_555
C8OC C3OC 1_555 1_555
C8VA C3VA 1_555 1_555
C8H C3H 1_555 1_555
C8S C3S 1_555 1_555
C8KC C3KC 1_555 1_555
C8FA C3FA 1_555 1_555
C8AB C3AB 1_555 1_555
C8KB C3KB 1_555 1_555
C8M C3M 1_555 1_555
C8HA C3HA 1_555 1_555
C8HC C3HC 1_555 1_555
C8SB C3SB 1_555 1_555
C8SA C3SA 1_555 1_555
H4DB C8DB 1_555 1_555
H4OB C8OB 1_555 1_555
H4OA C8OA 1_555 1_555
H4BC C8BC 1_555 1_555
H4E C8E 1_555 1_555
H4O C8O 1_555 1_555
H4IB C8IB 1_555 1_555
H4DC C8DC 1_555 1_555
H4LA C8LA 1_555 1_555
H4W C8W 1_555 1_555
H4OC C8OC 1_555 1_555
H4VA C8VA 1_555 1_555
H4H C8H 1_555 1_555
H4S C8S 1_555 1_555
H4KC C8KC 1_555 1_555
H4FA C8FA 1_555 1_555
H4AB C8AB 1_555 1_555
H4KB C8KB 1_555 1_555
H4M C8M 1_555 1_555
H4HA C8HA 1_555 1_555
H4HC C8HC 1_555 1_555
H4SB C8SB 1_555 1_555
H4SA C8SA 1_555 1_555
N4 C2 1_555 1_555
C4 C6 1_555 1_555
C7 C8 1_555 1_555
N2BC N3BC 1_555 1_555
N2O N3O 1_555 1_555
N2DC N3DC 1_555 1_555
N2VA N3VA 1_555 1_555
N2FA N3FA 1_555 1_555
N2HA N3HA 1_555 1_555
N2Y N3Y 1_555 1_555
N2V N3V 1_555 1_555
N2GB N3GB 1_555 1_555
N2YA N3YA 1_555 1_555
N2VB N3VB 1_555 1_555
N2MB N3MB 1_555 1_555
N2QA N3QA 1_555 1_555
N2N N3N 1_555 1_555
N4DB C2DB 1_555 1_555
N4OB C2OB 1_555 1_555
N4OA C2OA 1_555 1_555
N4BC C2BC 1_555 1_555
N4E C2E 1_555 1_555
N4O C2O 1_555 1_555
N4IB C2IB 1_555 1_555
N4DC C2DC 1_555 1_555
N4LA C2LA 1_555 1_555
N4VA C2VA 1_555 1_555
N4FA C2FA 1_555 1_555
N4AB C2AB 1_555 1_555
N4KB C2KB 1_555 1_555
N4HA C2HA 1_555 1_555
N4HC C2HC 1_555 1_555
N4SB C2SB 1_555 1_555
C4DB C5DB 1_555 1_555
C4DB C6DB 1_555 1_555
C4OB C5OB 1_555 1_555
C4OB C6OB 1_555 1_555
C4OA C5OA 1_555 1_555
C4OA C6OA 1_555 1_555
C4BC C6BC 1_555 1_555
C4E C5E 1_555 1_555
C4E C6E 1_555 1_555
C4O C5O 1_555 1_555
C4O C6O 1_555 1_555
C4IB C5IB 1_555 1_555
C4IB C6IB 1_555 1_555
C4DC C6DC 1_555 1_555
C4LA C5LA 1_555 1_555
C4LA C6LA 1_555 1_555
C4W C5W 1_555 1_555
C4W C6W 1_555 1_555
C4OC C5OC 1_555 1_555
C4OC C6OC 1_555 1_555
C4VA C6VA 1_555 1_555
C4H C5H 1_555 1_555
C4H C6H 1_555 1_555
C4S C5S 1_555 1_555
C4S C6S 1_555 1_555
C4KC C5KC 1_555 1_555
C4KC C6KC 1_555 1_555
C4FA C6FA 1_555 1_555
C4AB C5AB 1_555 1_555
C4AB C6AB 1_555 1_555
C4KB C5KB 1_555 1_555
C4KB C6KB 1_555 1_555
C4M C5M 1_555 1_555
C4M C6M 1_555 1_555
C4HA C6HA 1_555 1_555
C4HC C5HC 1_555 1_555
C4HC C6HC 1_555 1_555
C4SB C5SB 1_555 1_555
C4SB C6SB 1_555 1_555
C4SA C5SA 1_555 1_555
C4SA C6SA 1_555 1_555
C7DB C8DB 1_555 1_555
C7OB C8OB 1_555 1_555
C7OA C8OA 1_555 1_555
C7BC C8BC 1_555 1_555
C7E C8E 1_555 1_555
C7O C8O 1_555 1_555
C7IB C8IB 1_555 1_555
C7DC C8DC 1_555 1_555
C7LA C8LA 1_555 1_555
C7W C8W 1_555 1_555
C7OC C8OC 1_555 1_555
C7VA C8VA 1_555 1_555
C7H C8H 1_555 1_555
C7S C8S 1_555 1_555
C7KC C8KC 1_555 1_555
C7FA C8FA 1_555 1_555
C7AB C8AB 1_555 1_555
C7KB C8KB 1_555 1_555
C7M C8M 1_555 1_555
C7HA C8HA 1_555 1_555
C7HC C8HC 1_555 1_555
C7SB C8SB 1_555 1_555
C7SA C8SA 1_555 1_555

#END
