
#######################################################################
#
#                 Cambridge Crystallographic Data Centre
#                                CCDC 
#
#######################################################################
#
# If this CIF has been generated from an entry in the Cambridge 
# Structural Database, then it will include bibliographic, chemical, 
# crystal, experimental, refinement or atomic coordinate data resulting 
# from the CCDC's data processing and validation procedures.
#
#######################################################################

data_YANBAR02
_chemical_formula_moiety         '(C15 H19 Co6 N1 O25)n'
_symmetry_cell_setting           monoclinic
_symmetry_space_group_name_H-M   'P 21/n'
_symmetry_Int_Tables_number      14
_space_group_name_Hall           '-P 2yn'
loop_
_symmetry_equiv_pos_site_id
_symmetry_equiv_pos_as_xyz
1 x,y,z
2 1/2-x,1/2+y,1/2-z
3 -x,-y,-z
4 1/2+x,1/2-y,1/2+z
_cell_length_a                   11.418(3)
_cell_length_b                   10.076(2)
_cell_length_c                   14.908(5)
_cell_angle_alpha                90
_cell_angle_beta                 91.42(2)
_cell_angle_gamma                90
_cell_volume                     1714.61
loop_
_atom_site_label
_atom_site_type_symbol
_atom_site_fract_x
_atom_site_fract_y
_atom_site_fract_z
Co1 Co 0.26053(3) 0.12246(4) 0.69525(2)
Co2 Co 0.24508(3) -0.07254(4) 0.86597(2)
Co3 Co 0.0000 0.0000 1.0000
Co4 Co 0.5000 0.0000 1.0000
O1 O -0.0063(2) 0.1275(2) 0.88941(16)
O2 O 0.15251(18) 0.0899(2) 0.80733(14)
O3 O 0.15155(19) 0.0969(3) 1.04413(17)
O4 O 0.31490(18) 0.0267(2) 0.97701(14)
O5 O 0.5415(2) 0.0101(3) 0.86365(15)
O6 O 0.37131(18) 0.0165(2) 0.78518(14)
O7 O 0.3966(2) 0.1365(2) 0.60704(15)
O8 O 0.40180(17) 0.3528(2) 0.56898(14)
O9 O 0.30498(19) 0.3120(2) 0.74889(13)
O10 O 0.3061(2) 0.4535(2) 0.86546(14)
O11 O 0.15696(18) 0.2508(2) 0.61292(13)
O12 O 0.01912(19) 0.2952(2) 0.50617(15)
C1 C 0.0582(3) 0.1515(3) 0.8259(2)
H1 H 0.0359 0.2209 0.7880
C2 C 0.2589(3) 0.0957(3) 1.0351(2)
H2 H 0.3034 0.1494 1.0735
C3 C 0.4824(3) 0.0274(3) 0.7940(2)
H3 H 0.5229 0.0508 0.7430
C4 C 0.4389(3) 0.2336(3) 0.5674(2)
H4 H 0.5043 0.2173 0.5331
C5 C 0.3212(3) 0.3421(3) 0.8316(2)
H5 H 0.3464 0.2746 0.8700
C6 C 0.0766(3) 0.2184(3) 0.5559(2)
H6 H 0.0593 0.1284 0.5509
Co1B Co -0.26053(3) -0.12246(4) 1.30475(2)
Co1A Co 0.23947(3) 0.62246(4) 0.80475(2)
Co1C Co -0.23947(3) -0.62246(4) 1.19525(2)
Co2B Co -0.24508(3) 0.07254(4) 1.13403(2)
Co2A Co 0.25492(3) 0.42746(4) 0.63403(2)
Co2C Co -0.25492(3) -0.42746(4) 1.36597(2)
Co3A Co -0.5000 -0.5000 1.5000
Co3A_2 Co 0.5000 0.5000 0.5000
Co4_2 Co -0.5000 0.0000 1.0000
Co4A Co -0.0000 -0.5000 1.5000
Co4A_2 Co 0.0000 0.5000 0.5000
O1B O 0.0063(2) -0.1275(2) 1.11059(16)
O2B O -0.15251(18) -0.0899(2) 1.19267(14)
O3B O -0.15155(19) -0.0969(3) 0.95587(17)
O4B O -0.31490(18) -0.0267(2) 1.02299(14)
O4B_2 O 0.68510(18) -0.0267(2) 1.02299(14)
O5B O -0.5415(2) -0.0101(3) 1.13635(15)
O5B_2 O 0.4585(2) -0.0101(3) 1.13635(15)
O6B O -0.37131(18) -0.0165(2) 1.21482(14)
O7B O -0.3966(2) -0.1365(2) 1.39296(15)
O8B O -0.40180(17) -0.3528(2) 1.43102(14)
O8A O 0.09820(17) -0.1472(2) 0.93102(14)
O8C O -0.09820(17) 0.1472(2) 1.06898(14)
O9B O -0.30498(19) -0.3120(2) 1.25111(13)
O9A O 0.19502(19) -0.1880(2) 0.75111(13)
O9C O -0.19502(19) 0.1880(2) 1.24889(13)
O10B O -0.3061(2) -0.4535(2) 1.13454(14)
O10A O 0.1939(2) -0.0465(2) 0.63454(14)
O10C O -0.1939(2) 0.0465(2) 1.36546(14)
O11B O -0.15696(18) -0.2508(2) 1.38708(13)
O11A O 0.34304(18) -0.2492(2) 0.88708(13)
O11C O -0.34304(18) 0.2492(2) 1.11292(13)
O12B O -0.01912(19) -0.2952(2) 1.49383(15)
O12A O 0.48088(19) -0.2048(2) 0.99383(15)
O12C O 0.51912(19) 0.2048(2) 1.00617(15)
C1B C -0.0582(3) -0.1515(3) 1.1741(2)
H1B H -0.0359 -0.2209 1.2120
C2B C -0.2589(3) -0.0957(3) 0.9649(2)
H2B H -0.3034 -0.1494 0.9265
C3B C -0.4824(3) -0.0274(3) 1.2060(2)
H3B H -0.5229 -0.0508 1.2570
C4B C -0.4389(3) -0.2336(3) 1.4326(2)
H4B H -0.5043 -0.2173 1.4669
C5B C -0.3212(3) -0.3421(3) 1.1684(2)
H5B H -0.3464 -0.2746 1.1300
C6B C -0.0766(3) -0.2184(3) 1.4441(2)
H6B H -0.0593 -0.1284 1.4491
O13 O 0.1276(6) -0.1414(6) 0.3345(5)
N1 N 0.2102(4) 0.0670(5) 0.3395(3)
C7 C 0.1217(13) 0.090(3) 0.2823(11)
H7 H 0.1266 0.1787 0.2599
H8 H 0.0490 0.0781 0.3123
H9 H 0.1254 0.0282 0.2332
C8 C 0.2741(15) 0.1730(16) 0.3574(13)
H10 H 0.2502 0.2440 0.3180
H11 H 0.3552 0.1530 0.3486
H12 H 0.2635 0.1993 0.4185
C9 C 0.220(2) -0.0478(19) 0.3768(12)
H13 H 0.2738 -0.0705 0.4220
loop_
_geom_bond_atom_site_label_1
_geom_bond_atom_site_label_2
_geom_bond_site_symmetry_1
_geom_bond_site_symmetry_2
Co1 O2 1_555 1_555
Co2 O2 1_555 1_555
Co3 O1 1_555 1_555
Co4 O4 1_555 1_555
O1 C1 1_555 1_555
O2 C1 1_555 1_555
O3 Co3 1_555 1_555
O4 Co2 1_555 1_555
O5 Co4 1_555 1_555
O6 Co1 1_555 1_555
O7 Co1 1_555 1_555
O8 C4 1_555 1_555
O9 Co1 1_555 1_555
O10 C5 1_555 1_555
O11 Co1 1_555 1_555
O12 C6 1_555 1_555
C1 H1 1_555 1_555
C2 O3 1_555 1_555
H2 C2 1_555 1_555
C3 O5 1_555 1_555
H3 C3 1_555 1_555
C4 O7 1_555 1_555
H4 C4 1_555 1_555
C5 O9 1_555 1_555
H5 C5 1_555 1_555
C6 O11 1_555 1_555
H6 C6 1_555 1_555
O13 C9 1_555 1_555
N1 C7 1_555 1_555
C7 H7 1_555 1_555
H8 C7 1_555 1_555
H9 C7 1_555 1_555
C8 N1 1_555 1_555
H10 C8 1_555 1_555
H11 C8 1_555 1_555
H12 C8 1_555 1_555
C9 N1 1_555 1_555
H13 C9 1_555 1_555
Co1B O2B 1_555 1_555
Co1A O10 1_555 1_555
Co1C O10B 1_555 1_555
Co2B O2B 1_555 1_555
Co2A O8 1_555 1_555
Co2C O8B 1_555 1_555
Co3A O8B 1_555 1_555
Co3A_2 O8 1_555 1_555
Co4_2 O4B 1_555 1_555
Co4A O12B 1_555 1_555
Co4A_2 O12 1_555 1_555
O1B Co3 1_555 1_555
O2B C1B 1_555 1_555
O3B Co3 1_555 1_555
O4B Co2B 1_555 1_555
O4B_2 Co4 1_555 1_555
O5B Co4_2 1_555 1_555
O5B_2 Co4 1_555 1_555
O6B Co1B 1_555 1_555
O7B Co1B 1_555 1_555
O8B C4B 1_555 1_555
O8A Co2 1_555 1_555
O8C Co3 1_555 1_555
O9B Co1B 1_555 1_555
O9A Co2 1_555 1_555
O9C Co2B 1_555 1_555
O10B C5B 1_555 1_555
O10A Co1 1_555 1_555
O10C Co1B 1_555 1_555
O11B Co1B 1_555 1_555
O11A Co2 1_555 1_555
O11C Co2B 1_555 1_555
O12B C6B 1_555 1_555
O12A Co4 1_555 1_555
O12C Co4 1_555 1_555
C1B O1B 1_555 1_555
H1B C1B 1_555 1_555
C2B O3B 1_555 1_555
H2B C2B 1_555 1_555
C3B O5B 1_555 1_555
H3B C3B 1_555 1_555
C4B O7B 1_555 1_555
H4B C4B 1_555 1_555
C5B O9B 1_555 1_555
H5B C5B 1_555 1_555
C6B O11B 1_555 1_555
H6B C6B 1_555 1_555
Co2 O6 1_555 1_555
Co3 O8A 1_555 1_555
O4 C2 1_555 1_555
O6 C3 1_555 1_555
O9 Co2A 1_555 1_555
O11 Co2A 1_555 1_555
Co2B O6B 1_555 1_555
Co2B O8C 1_555 1_555
Co2C O9B 1_555 1_555
Co2C O11B 1_555 1_555
O4B C2B 1_555 1_555
O6B C3B 1_555 1_555

#END
