
#######################################################################
#
#                 Cambridge Crystallographic Data Centre
#                                CCDC 
#
#######################################################################
#
# If this CIF has been generated from an entry in the Cambridge 
# Structural Database, then it will include bibliographic, chemical, 
# crystal, experimental, refinement or atomic coordinate data resulting 
# from the CCDC's data processing and validation procedures.
#
#######################################################################

data_YEKXET
_chemical_formula_moiety         '(C26 H14 N4 O12 Zn3)n'
_symmetry_cell_setting           tetragonal
_symmetry_space_group_name_H-M   'P 41 21 2'
_symmetry_Int_Tables_number      92
_space_group_name_Hall           'P 4abw 2nw'
loop_
_symmetry_equiv_pos_site_id
_symmetry_equiv_pos_as_xyz
1 x,y,z
2 -x,-y,1/2+z
3 1/2-y,1/2+x,1/4+z
4 1/2+y,1/2-x,3/4+z
5 1/2-x,1/2+y,1/4-z
6 1/2+x,1/2-y,3/4-z
7 y,x,-z
8 -y,-x,1/2-z
_cell_length_a                   15.1751(3)
_cell_length_b                   15.1751(3)
_cell_length_c                   22.5604(8)
_cell_angle_alpha                90
_cell_angle_beta                 90
_cell_angle_gamma                90
_cell_volume                     5195.29
loop_
_atom_site_label
_atom_site_type_symbol
_atom_site_fract_x
_atom_site_fract_y
_atom_site_fract_z
Zn1 Zn 0.24247(3) 0.33321(3) 0.143905(16)
Zn2 Zn 0.27872(3) 0.27872(3) 0.0000
O1 O 0.1460(2) 0.27400(17) 0.01773(11)
O2 O 0.12191(19) 0.33380(17) 0.10748(10)
O3 O -0.5850(17) 0.2782(11) -0.0145(6)
O4 O -0.54587(19) 0.28038(15) -0.11228(10)
O5 O 0.31348(16) 0.25493(18) 0.08823(10)
N1 N -0.1173(11) 0.2857(5) -0.0212(3)
N2 N -0.2848(15) 0.2869(4) -0.0550(4)
C1 C -0.0335(13) 0.2827(5) -0.0084(5)
H1 H 0.0059 0.2591 -0.0371
C2 C 0.0011(12) 0.3123(6) 0.0448(5)
C3 C -0.0577(8) 0.3459(6) 0.0855(4)
H2 H -0.0366 0.3672 0.1225
C4 C -0.1470(9) 0.3492(6) 0.0732(4)
H3 H -0.1879 0.3710 0.1015
C5 C -0.1750(8) 0.3195(5) 0.0181(3)
C6 C -0.2686(7) 0.3196(5) 0.0010(4)
C7 C -0.3369(8) 0.3436(5) 0.0375(4)
H4 H -0.3246 0.3645 0.0763
C8 C -0.4223(8) 0.3378(5) 0.0187(4)
H5 H -0.4693 0.3543 0.0442
C9 C -0.4396(9) 0.3074(5) -0.0383(4)
C10 C -0.368(2) 0.2830(5) -0.0734(5)
H6 H -0.3793 0.2627 -0.1125
C11 C 0.0987(3) 0.3047(2) 0.05724(15)
C12 C -0.5327(3) 0.2882(2) -0.05780(16)
O6 O 0.4067(3) 0.2820(4) 0.16047(18)
C13 C 0.3880(3) 0.2443(5) 0.1127(2)
H7 H 0.4304 0.2071 0.0944
Zn1F Zn 0.33321(3) 0.24247(3) -0.143905(16)
Zn1F_2 Zn -0.66679(3) 0.24247(3) -0.143905(16)
Zn1C Zn -0.16679(3) 0.25753(3) -0.106095(16)
Zn1_2 Zn 0.24247(3) -0.66679(3) 0.143905(16)
Zn1D Zn 0.25753(3) -0.16679(3) 0.106095(16)
Zn2_2 Zn -0.72128(3) 0.27872(3) 0.0000
Zn2_3 Zn 0.27872(3) -0.72128(3) 0.0000
O1F O 0.27400(17) 0.1460(2) -0.01773(11)
O2F O 0.33380(17) 0.12191(19) -0.10748(10)
O3F O 0.2782(11) -0.5850(17) 0.0145(6)
O3_2 O 0.4150(17) 0.2782(11) -0.0145(6)
O3F_2 O 0.2782(11) 0.4150(17) 0.0145(6)
O4F O 0.28038(15) -0.54587(19) 0.11228(10)
O4F_2 O 0.28038(15) 0.45413(19) 0.11228(10)
O4_2 O 0.45413(19) 0.28038(15) -0.11228(10)
O5F O 0.25493(18) 0.31348(16) -0.08823(10)
N1F N 0.2857(5) -0.1173(11) 0.0212(3)
N1B N 0.2143(5) 0.3827(11) 0.2288(3)
N1E N 0.3827(11) 0.2143(5) -0.2288(3)
N2F N 0.2869(4) -0.2848(15) 0.0550(4)
N2B N 0.2131(4) 0.2152(15) 0.1950(4)
N2E N 0.2152(15) 0.2131(4) -0.1950(4)
C1F C 0.2827(5) -0.0335(13) 0.0084(5)
H1F H 0.2591 0.0059 0.0371
C2F C 0.3123(6) 0.0011(12) -0.0448(5)
C3F C 0.3459(6) -0.0577(8) -0.0855(4)
H2F H 0.3672 -0.0366 -0.1225
C4F C 0.3492(6) -0.1470(9) -0.0732(4)
H3F H 0.3710 -0.1879 -0.1015
C5F C 0.3195(5) -0.1750(8) -0.0181(3)
C6F C 0.3196(5) -0.2686(7) -0.0010(4)
C7F C 0.3436(5) -0.3369(8) -0.0375(4)
H4F H 0.3645 -0.3246 -0.0763
C8F C 0.3378(5) -0.4223(8) -0.0187(4)
H5F H 0.3543 -0.4693 -0.0442
C9F C 0.3074(5) -0.4396(9) 0.0383(4)
C10F C 0.2830(5) -0.368(2) 0.0734(5)
H6F H 0.2627 -0.3793 0.1125
C11F C 0.3047(2) 0.0987(3) -0.05724(15)
C12F C 0.2882(2) -0.5327(3) 0.05780(16)
O6F O 0.2820(4) 0.4067(3) -0.16047(18)
C13F C 0.2443(5) 0.3880(3) -0.1127(2)
H7F H 0.2071 0.4304 -0.0944
loop_
_geom_bond_atom_site_label_1
_geom_bond_atom_site_label_2
_geom_bond_site_symmetry_1
_geom_bond_site_symmetry_2
Zn1 O2 1_555 1_555
Zn2 O1 1_555 1_555
O1 C11 1_555 1_555
O2 C11 1_555 1_555
O3 C12 1_555 1_555
O4 C12 1_555 1_555
O5 Zn1 1_555 1_555
N1 C1 1_555 1_555
N2 C6 1_555 1_555
C1 H1 1_555 1_555
C2 C1 1_555 1_555
C3 C2 1_555 1_555
H2 C3 1_555 1_555
C4 C3 1_555 1_555
H3 C4 1_555 1_555
C5 N1 1_555 1_555
C6 C5 1_555 1_555
C7 C6 1_555 1_555
H4 C7 1_555 1_555
C8 C7 1_555 1_555
H5 C8 1_555 1_555
C9 C8 1_555 1_555
C10 N2 1_555 1_555
H6 C10 1_555 1_555
C11 C2 1_555 1_555
C12 C9 1_555 1_555
O6 C13 1_555 1_555
C13 O5 1_555 1_555
H7 C13 1_555 1_555
Zn1F O2F 1_555 1_555
Zn1F_2 O4 1_555 1_555
Zn1C N1 1_555 1_555
Zn1_2 O4F 1_555 1_555
Zn1D N1F 1_555 1_555
Zn2_2 O3 1_555 1_555
Zn2_3 O3F 1_555 1_555
O1F Zn2 1_555 1_555
O2F C11F 1_555 1_555
O3F C12F 1_555 1_555
O3_2 Zn2 1_555 1_555
O3F_2 Zn2 1_555 1_555
O4F C12F 1_555 1_555
O4F_2 Zn1 1_555 1_555
O4_2 Zn1F 1_555 1_555
O5F Zn2 1_555 1_555
N1F C1F 1_555 1_555
N1B Zn1 1_555 1_555
N1E Zn1F 1_555 1_555
N2F Zn1D 1_555 1_555
N2B Zn1 1_555 1_555
N2E Zn1F 1_555 1_555
C1F H1F 1_555 1_555
C2F C1F 1_555 1_555
C3F C2F 1_555 1_555
H2F C3F 1_555 1_555
C4F C3F 1_555 1_555
H3F C4F 1_555 1_555
C5F N1F 1_555 1_555
C6F N2F 1_555 1_555
C7F C6F 1_555 1_555
H4F C7F 1_555 1_555
C8F C7F 1_555 1_555
H5F C8F 1_555 1_555
C9F C8F 1_555 1_555
C10F N2F 1_555 1_555
H6F C10F 1_555 1_555
C11F O1F 1_555 1_555
C12F C9F 1_555 1_555
O6F C13F 1_555 1_555
C13F O5F 1_555 1_555
H7F C13F 1_555 1_555
Zn2 O5 1_555 1_555
N2 Zn1C 1_555 1_555
C4 C5 1_555 1_555
C9 C10 1_555 1_555
Zn1F O5F 1_555 1_555
C2F C11F 1_555 1_555
C4F C5F 1_555 1_555
C5F C6F 1_555 1_555
C9F C10F 1_555 1_555

#END
