
#######################################################################
#
#                 Cambridge Crystallographic Data Centre
#                                CCDC 
#
#######################################################################
#
# If this CIF has been generated from an entry in the Cambridge 
# Structural Database, then it will include bibliographic, chemical, 
# crystal, experimental, refinement or atomic coordinate data resulting 
# from the CCDC's data processing and validation procedures.
#
#######################################################################

data_VAGNUP
_chemical_formula_moiety         '(C34 H86 Cs4 Cu4 O32 Si12)n'
_symmetry_cell_setting           orthorhombic
_symmetry_space_group_name_H-M   'P n m a'
_symmetry_Int_Tables_number      62
_space_group_name_Hall           '-P 2ac 2n'
loop_
_symmetry_equiv_pos_site_id
_symmetry_equiv_pos_as_xyz
1 x,y,z
2 1/2-x,-y,1/2+z
3 -x,1/2+y,-z
4 1/2+x,1/2-y,1/2-z
5 -x,-y,-z
6 1/2+x,y,1/2-z
7 x,1/2-y,z
8 1/2-x,1/2+y,1/2+z
_cell_length_a                   21.717(3)
_cell_length_b                   23.369(4)
_cell_length_c                   15.071(2)
_cell_angle_alpha                90
_cell_angle_beta                 90
_cell_angle_gamma                90
_cell_volume                     7648.6
loop_
_atom_site_label
_atom_site_type_symbol
_atom_site_fract_x
_atom_site_fract_y
_atom_site_fract_z
Cs1 Cs 0.75085(4) 0.7500 0.54064(6)
Cs2 Cs 0.31026(3) 0.7500 0.70572(5)
Cs3 Cs 0.55817(2) 0.52697(2) 0.85943(3)
Si1 Si 0.69306(9) 0.62504(9) 0.72359(13)
Si2 Si 0.56325(9) 0.63730(9) 0.67961(12)
Si3 Si 0.43255(9) 0.62408(9) 0.71886(13)
Si4 Si 0.42346(9) 0.62932(9) 0.92011(14)
Si5 Si 0.43446(12) 0.7500 0.95647(18)
Si6 Si 0.69322(9) 0.62921(9) 0.92514(13)
Si7 Si 0.68013(13) 0.7500 0.96761(18)
O1 O 0.6930(2) 0.6920(2) 0.7036(3)
O2 O 0.5624(2) 0.6956(2) 0.7372(3)
O3 O 0.4325(2) 0.6914(2) 0.7042(4)
O4 O 0.6177(3) 0.7500 0.9068(4)
O5 O 0.4997(3) 0.7500 0.9024(5)
O6 O 0.6230(2) 0.5988(2) 0.7076(3)
O7 O 0.5031(2) 0.5982(2) 0.7039(3)
O8 O 0.4117(2) 0.6056(2) 0.8197(3)
O9 O 0.4952(2) 0.6316(2) 0.9441(4)
O10 O 0.6204(2) 0.6300(2) 0.9380(3)
O11 O 0.7136(2) 0.6095(2) 0.8250(3)
O12 O 0.7216(2) 0.6941(2) 0.9418(3)
O13 O 0.3932(2) 0.6942(2) 0.9281(3)
O14 O 0.5328(3) 0.5626(3) 1.0789(4)
H1 H 0.5159 0.5859 1.0432
C1 C 0.7323(4) 0.5795(4) 1.0025(5)
H2 H 0.7251 0.5919 1.0637
H3 H 0.7767 0.5795 0.9904
H4 H 0.7159 0.5408 0.9943
C2 C 0.7460(4) 0.5859(4) 0.6501(5)
H5 H 0.7377 0.5964 0.5883
H6 H 0.7399 0.5446 0.6578
H7 H 0.7886 0.5958 0.6651
C3 C 0.5653(4) 0.6511(4) 0.5592(5)
H8 H 0.5718 0.6150 0.5275
H9 H 0.5990 0.6775 0.5457
H10 H 0.5261 0.6681 0.5405
C4 C 0.3804(4) 0.5853(4) 0.6430(6)
H11 H 0.3376 0.5950 0.6570
H12 H 0.3865 0.5440 0.6501
H13 H 0.3895 0.5962 0.5816
C5 C 0.3811(3) 0.5808(4) 0.9959(5)
H14 H 0.3371 0.5898 0.9936
H15 H 0.3963 0.5860 1.0566
H16 H 0.3876 0.5411 0.9774
C6 C 0.4456(6) 0.7500 1.0777(7)
C7 C 0.6624(6) 0.7500 1.0869(7)
C8 C 0.5827(5) 0.5746(6) 1.1296(7)
H17 H 0.5957 0.5401 1.1613
H18 H 0.5722 0.6046 1.1724
H19 H 0.6164 0.5879 1.0915
Cu1 Cu 0.63265(5) 0.7500 0.73002(8)
Cu2 Cu 0.49184(5) 0.7500 0.72817(8)
Cu3 Cu 0.55865(4) 0.68578(4) 0.91513(5)
O15 O 0.6007(4) 0.4344(4) 0.7238(6)
C9 C 0.5997(16) 0.4471(16) 0.637(2)
H20 H 0.6265 0.4203 0.6044
H21 H 0.6155 0.4864 0.6280
C10 C 0.5385(16) 0.4431(16) 0.606(2)
H22 H 0.5373 0.4352 0.5410
H23 H 0.5146 0.4782 0.6184
C11 C 0.516(2) 0.395(2) 0.657(3)
H24 H 0.5149 0.3600 0.6188
H25 H 0.4742 0.4024 0.6785
C12 C 0.5595(18) 0.3847(18) 0.735(3)
H26 H 0.5373 0.3857 0.7922
H27 H 0.5821 0.3480 0.7293
O16 O 0.7328(5) 0.6366(6) 0.4103(6)
C13 C 0.7685(7) 0.6546(7) 0.3382(9)
H28 H 0.8129 0.6532 0.3526
H29 H 0.7574 0.6939 0.3200
C14 C 0.7522(8) 0.6111(9) 0.2655(10)
H30 H 0.7175 0.6250 0.2286
H31 H 0.7881 0.6034 0.2268
C15 C 0.7348(13) 0.5602(11) 0.3153(13)
H32 H 0.7060 0.5363 0.2804
H33 H 0.7716 0.5371 0.3299
C16 C 0.7064(9) 0.5801(9) 0.3928(12)
H34 H 0.7147 0.5538 0.4429
H35 H 0.6613 0.5829 0.3843
O17 O 0.6390(8) 0.7500 0.3796(12)
C17 C 0.6152(10) 0.7976(8) 0.3354(13)
H36 H 0.6406 0.8069 0.2828
H37 H 0.6146 0.8313 0.3753
C18 C 0.5508(11) 0.7818(10) 0.3079(17)
H38 H 0.5202 0.7969 0.3505
H39 H 0.5413 0.7969 0.2481
Si1F Si 0.69306(9) 0.87496(9) 0.72359(13)
Si2F Si 0.56325(9) 0.86270(9) 0.67961(12)
Si3F Si 0.43255(9) 0.87592(9) 0.71886(13)
Si4F Si 0.42346(9) 0.87068(9) 0.92011(14)
Si6F Si 0.69322(9) 0.87079(9) 0.92514(13)
O1F O 0.6930(2) 0.8080(2) 0.7036(3)
O2F O 0.5624(2) 0.8044(2) 0.7372(3)
O3F O 0.4325(2) 0.8086(2) 0.7042(4)
O6F O 0.6230(2) 0.9012(2) 0.7076(3)
O7F O 0.5031(2) 0.9018(2) 0.7039(3)
O8F O 0.4117(2) 0.8944(2) 0.8197(3)
O9F O 0.4952(2) 0.8684(2) 0.9441(4)
O10F O 0.6204(2) 0.8700(2) 0.9380(3)
O11F O 0.7136(2) 0.8905(2) 0.8250(3)
O12F O 0.7216(2) 0.8059(2) 0.9418(3)
O13F O 0.3932(2) 0.8058(2) 0.9281(3)
C1F C 0.7323(4) 0.9205(4) 1.0025(5)
H2F H 0.7251 0.9081 1.0637
H3F H 0.7767 0.9205 0.9904
H4F H 0.7159 0.9592 0.9943
C2F C 0.7460(4) 0.9141(4) 0.6501(5)
H5F H 0.7377 0.9036 0.5883
H6F H 0.7399 0.9554 0.6578
H7F H 0.7886 0.9042 0.6651
C3F C 0.5653(4) 0.8489(4) 0.5592(5)
H8F H 0.5718 0.8850 0.5275
H9F H 0.5990 0.8225 0.5457
H10F H 0.5261 0.8319 0.5405
C4F C 0.3804(4) 0.9147(4) 0.6430(6)
H11F H 0.3376 0.9050 0.6570
H12F H 0.3865 0.9560 0.6501
H13F H 0.3895 0.9038 0.5816
C5F C 0.3811(3) 0.9192(4) 0.9959(5)
H14F H 0.3371 0.9102 0.9936
H15F H 0.3963 0.9140 1.0566
H16F H 0.3876 0.9589 0.9774
C17F C 0.6152(10) 0.7024(8) 0.3354(13)
H36F H 0.6406 0.6931 0.2828
H37F H 0.6146 0.6687 0.3753
C18F C 0.5508(11) 0.7182(10) 0.3079(17)
H38F H 0.5202 0.7031 0.3505
H39F H 0.5413 0.7031 0.2481
Cs3D Cs 0.44183(2) 0.47303(2) 1.14057(3)
O14D O 0.4672(3) 0.4374(3) 0.9211(4)
H1D H 0.4841 0.4141 0.9568
C8D C 0.4173(5) 0.4254(6) 0.8704(7)
H17D H 0.4043 0.4599 0.8387
H18D H 0.4278 0.3954 0.8276
H19D H 0.3836 0.4121 0.9085
O15D O 0.3993(4) 0.5656(4) 1.2762(6)
C9D C 0.4003(16) 0.5529(16) 1.363(2)
H20D H 0.3735 0.5797 1.3956
H21D H 0.3845 0.5136 1.3720
C10D C 0.4615(16) 0.5569(16) 1.394(2)
H22D H 0.4627 0.5648 1.4590
H23D H 0.4854 0.5218 1.3816
C11D C 0.484(2) 0.605(2) 1.343(3)
H24D H 0.4851 0.6400 1.3812
H25D H 0.5258 0.5976 1.3215
C12D C 0.4405(18) 0.6153(18) 1.265(3)
H26D H 0.4627 0.6143 1.2078
H27D H 0.4179 0.6520 1.2707
O16F O 0.7328(5) 0.8634(6) 0.4103(6)
C13F C 0.7685(7) 0.8454(7) 0.3382(9)
H28F H 0.8129 0.8468 0.3526
H29F H 0.7574 0.8061 0.3200
C14F C 0.7522(8) 0.8889(9) 0.2655(10)
H30F H 0.7175 0.8750 0.2286
H31F H 0.7881 0.8966 0.2268
C15F C 0.7348(13) 0.9398(11) 0.3153(13)
H32F H 0.7060 0.9637 0.2804
H33F H 0.7716 0.9629 0.3299
C16F C 0.7064(9) 0.9199(9) 0.3928(12)
H34F H 0.7147 0.9462 0.4429
H35F H 0.6613 0.9171 0.3843
Cu3F Cu 0.55865(4) 0.81422(4) 0.91513(5)
Cs1C Cs 0.25085(4) 0.7500 0.95936(6)
Cs2C Cs 0.81026(3) 0.7500 0.79428(5)
Cs3F Cs 0.55817(2) 0.97303(2) 0.85943(3)
O1C O 0.1930(2) 0.8080(2) 0.7964(3)
O1E O 0.1930(2) 0.6920(2) 0.7964(3)
O6D O 0.3770(2) 0.4012(2) 1.2924(3)
O7D O 0.4969(2) 0.4018(2) 1.2961(3)
O9D O 0.5048(2) 0.3684(2) 1.0559(4)
O10D O 0.3796(2) 0.3700(2) 1.0620(3)
O12C O 0.2216(2) 0.8059(2) 0.5582(3)
O12E O 0.2216(2) 0.6941(2) 0.5582(3)
O13C O 0.8932(2) 0.8058(2) 0.5719(3)
O13E O 0.8932(2) 0.6942(2) 0.5719(3)
O18 O 0.4068(16) 0.7500 0.486(2)
H40 H 0.4460 0.7500 0.4832
H41 H 0.3922 0.7500 0.4335
loop_
_geom_bond_atom_site_label_1
_geom_bond_atom_site_label_2
_geom_bond_site_symmetry_1
_geom_bond_site_symmetry_2
Cs1 O1 1_555 1_555
Cs2 O3 1_555 1_555
Cs3 O6 1_555 1_555
Si1 O1 1_555 1_555
Si2 O2 1_555 1_555
Si3 O3 1_555 1_555
Si4 O8 1_555 1_555
Si5 O5 1_555 1_555
Si6 O10 1_555 1_555
Si7 O4 1_555 1_555
O1 Cu1 1_555 1_555
O2 Cu1 1_555 1_555
O3 Cu2 1_555 1_555
O4 Cu1 1_555 1_555
O5 Cu2 1_555 1_555
O6 Si1 1_555 1_555
O7 Cs3 1_555 1_555
O8 Si3 1_555 1_555
O9 Cs3 1_555 1_555
O10 Cs3 1_555 1_555
O11 Si1 1_555 1_555
O12 Si6 1_555 1_555
O13 Si4 1_555 1_555
O14 Cs3 1_555 1_555
H1 O14 1_555 1_555
C1 Si6 1_555 1_555
H2 C1 1_555 1_555
H3 C1 1_555 1_555
H4 C1 1_555 1_555
C2 Si1 1_555 1_555
H5 C2 1_555 1_555
H6 C2 1_555 1_555
H7 C2 1_555 1_555
C3 Si2 1_555 1_555
H8 C3 1_555 1_555
H9 C3 1_555 1_555
H10 C3 1_555 1_555
C4 Si3 1_555 1_555
H11 C4 1_555 1_555
H12 C4 1_555 1_555
H13 C4 1_555 1_555
C5 Si4 1_555 1_555
H14 C5 1_555 1_555
H15 C5 1_555 1_555
H16 C5 1_555 1_555
C6 Si5 1_555 1_555
C7 Si7 1_555 1_555
C8 O14 1_555 1_555
H17 C8 1_555 1_555
H18 C8 1_555 1_555
H19 C8 1_555 1_555
Cu1 O1F 1_555 1_555
Cu2 O2 1_555 1_555
Cu3 O2 1_555 1_555
O15 Cs3 1_555 1_555
C9 O15 1_555 1_555
H20 C9 1_555 1_555
H21 C9 1_555 1_555
C10 C9 1_555 1_555
H22 C10 1_555 1_555
H23 C10 1_555 1_555
C11 C10 1_555 1_555
H24 C11 1_555 1_555
H25 C11 1_555 1_555
C12 O15 1_555 1_555
H26 C12 1_555 1_555
H27 C12 1_555 1_555
O16 Cs1 1_555 1_555
C13 O16 1_555 1_555
H28 C13 1_555 1_555
H29 C13 1_555 1_555
C14 C13 1_555 1_555
H30 C14 1_555 1_555
H31 C14 1_555 1_555
C15 C14 1_555 1_555
H32 C15 1_555 1_555
H33 C15 1_555 1_555
C16 O16 1_555 1_555
H34 C16 1_555 1_555
H35 C16 1_555 1_555
O17 Cs1 1_555 1_555
C17 O17 1_555 1_555
H36 C17 1_555 1_555
H37 C17 1_555 1_555
C18 C17 1_555 1_555
H38 C18 1_555 1_555
H39 C18 1_555 1_555
O18 H40 1_555 1_555
H41 O18 1_555 1_555
Si1F O1F 1_555 1_555
Si2F O2F 1_555 1_555
Si3F O3F 1_555 1_555
Si4F O8F 1_555 1_555
Si6F O10F 1_555 1_555
O1F Cs1 1_555 1_555
O2F Cu1 1_555 1_555
O3F Cs2 1_555 1_555
O6F Si1F 1_555 1_555
O7F Si2F 1_555 1_555
O8F Si3F 1_555 1_555
O9F Si4F 1_555 1_555
O10F Cu3F 1_555 1_555
O11F Si1F 1_555 1_555
O12F Si7 1_555 1_555
O13F Si5 1_555 1_555
C1F Si6F 1_555 1_555
H2F C1F 1_555 1_555
H3F C1F 1_555 1_555
H4F C1F 1_555 1_555
C2F Si1F 1_555 1_555
H5F C2F 1_555 1_555
H6F C2F 1_555 1_555
H7F C2F 1_555 1_555
C3F Si2F 1_555 1_555
H8F C3F 1_555 1_555
H9F C3F 1_555 1_555
H10F C3F 1_555 1_555
C4F Si3F 1_555 1_555
H11F C4F 1_555 1_555
H12F C4F 1_555 1_555
H13F C4F 1_555 1_555
C5F Si4F 1_555 1_555
H14F C5F 1_555 1_555
H15F C5F 1_555 1_555
H16F C5F 1_555 1_555
C17F O17 1_555 1_555
H36F C17F 1_555 1_555
H37F C17F 1_555 1_555
C18F C18 1_555 1_555
H38F C18F 1_555 1_555
H39F C18F 1_555 1_555
Cs3D O14 1_555 1_555
O14D Cs3 1_555 1_555
H1D O14D 1_555 1_555
C8D O14D 1_555 1_555
H17D C8D 1_555 1_555
H18D C8D 1_555 1_555
H19D C8D 1_555 1_555
O15D Cs3D 1_555 1_555
C9D O15D 1_555 1_555
H20D C9D 1_555 1_555
H21D C9D 1_555 1_555
C10D C9D 1_555 1_555
H22D C10D 1_555 1_555
H23D C10D 1_555 1_555
C11D C10D 1_555 1_555
H24D C11D 1_555 1_555
H25D C11D 1_555 1_555
C12D O15D 1_555 1_555
H26D C12D 1_555 1_555
H27D C12D 1_555 1_555
O16F Cs1 1_555 1_555
C13F O16F 1_555 1_555
H28F C13F 1_555 1_555
H29F C13F 1_555 1_555
C14F C13F 1_555 1_555
H30F C14F 1_555 1_555
H31F C14F 1_555 1_555
C15F C14F 1_555 1_555
H32F C15F 1_555 1_555
H33F C15F 1_555 1_555
C16F O16F 1_555 1_555
H34F C16F 1_555 1_555
H35F C16F 1_555 1_555
Cu3F O4 1_555 1_555
Cs1C O13 1_555 1_555
Cs2C O1 1_555 1_555
Cs3F O6F 1_555 1_555
O1C Cs2 1_555 1_555
O1E Cs2 1_555 1_555
O6D Cs3D 1_555 1_555
O7D Cs3D 1_555 1_555
O9D Cs3D 1_555 1_555
O10D Cs3D 1_555 1_555
O12C Cs2 1_555 1_555
O12E Cs2 1_555 1_555
O13C Cs1 1_555 1_555
O13E Cs1 1_555 1_555
Si2 O6 1_555 1_555
Si2 O7 1_555 1_555
Si3 O7 1_555 1_555
Si4 O9 1_555 1_555
Si5 O13 1_555 1_555
Si6 O11 1_555 1_555
Si7 O12 1_555 1_555
O4 Cu3 1_555 1_555
O5 Cu3 1_555 1_555
O5 Cu3F 1_555 1_555
O9 Cu3 1_555 1_555
O10 Cu3 1_555 1_555
O12 Cs2C 1_555 1_555
Cu2 O2F 1_555 1_555
Cu2 O3F 1_555 1_555
C11 C12 1_555 1_555
C15 C16 1_555 1_555
Si2F O6F 1_555 1_555
Si3F O7F 1_555 1_555
Si4F O13F 1_555 1_555
Si6F O11F 1_555 1_555
Si6F O12F 1_555 1_555
O1F Cs2C 1_555 1_555
O2F Cu3F 1_555 1_555
O7F Cs3F 1_555 1_555
O9F Cu3F 1_555 1_555
O9F Cs3F 1_555 1_555
O10F Cs3F 1_555 1_555
O12F Cs2C 1_555 1_555
O13F Cs1C 1_555 1_555
C17F C18F 1_555 1_555
Cs3D O14D 1_555 1_555
C11D C12D 1_555 1_555
C15F C16F 1_555 1_555
Cs1C O1C 1_555 1_555
Cs1C O1E 1_555 1_555

#END
