
#######################################################################
#
#                 Cambridge Crystallographic Data Centre
#                                CCDC 
#
#######################################################################
#
# If this CIF has been generated from an entry in the Cambridge 
# Structural Database, then it will include bibliographic, chemical, 
# crystal, experimental, refinement or atomic coordinate data resulting 
# from the CCDC's data processing and validation procedures.
#
#######################################################################

data_DALSAN
_chemical_formula_moiety         '(C5 H13 Cl2 Fe2 N1 O12)n'
_symmetry_cell_setting           monoclinic
_symmetry_space_group_name_H-M   'C c'
_symmetry_Int_Tables_number      9
_space_group_name_Hall           'C -2yc'
loop_
_symmetry_equiv_pos_site_id
_symmetry_equiv_pos_as_xyz
1 x,y,z
2 x,-y,1/2+z
3 1/2+x,1/2+y,z
4 1/2+x,1/2-y,1/2+z
_cell_length_a                   8.945(3)
_cell_length_b                   14.936(5)
_cell_length_c                   12.408(5)
_cell_angle_alpha                90
_cell_angle_beta                 108.531(8)
_cell_angle_gamma                90
_cell_volume                     1571.79
loop_
_atom_site_label
_atom_site_type_symbol
_atom_site_fract_x
_atom_site_fract_y
_atom_site_fract_z
_atom_site_U_iso_or_equiv
_atom_site_thermal_displace_type
Fe1 Fe 0.12132(9) 0.04953(5) 0.67924(7) 0.0124 Uani
Fe2 Fe 0.23500(9) 0.20554(5) 0.90427(7) 0.0119 Uani
Cl1 Cl 0.0852(2) -0.05055(9) 0.80424(14) 0.0224 Uani
Cl2 Cl 0.0809(2) 0.31250(10) 0.79043(14) 0.0219 Uani
O1 O 0.2482(5) 0.2849(3) 1.0487(4) 0.0157 Uani
O2 O 0.2588(5) 0.1339(3) 0.7811(4) 0.0150 Uani
O3 O 0.3056(5) -0.0077(3) 0.6415(4) 0.0162 Uani
O4 O 0.6139(5) 0.3609(3) 1.0452(4) 0.0151 Uani
O5 O 0.3579(5) -0.1103(3) 0.5249(4) 0.0157 Uani
O6 O 0.0515(5) -0.1418(3) 0.4325(4) 0.0140 Uani
O7 O -0.0031(5) -0.0358(3) 0.5433(4) 0.0146 Uani
O8 O 0.4507(5) 0.2626(3) 0.9307(4) 0.0151 Uani
O9 O 0.4091(5) 0.3882(3) 1.1577(4) 0.0160 Uani
C1 C 0.4890(7) 0.3171(4) 1.0129(5) 0.0137 Uani
C2 C 0.2663(7) -0.0652(3) 0.5624(5) 0.0129 Uani
C3 C 0.0876(7) -0.0814(4) 0.5079(5) 0.0125 Uani
C4 C 0.3702(7) 0.3303(3) 1.0785(5) 0.0103 Uani
H1 H 0.3143 0.1637 0.7494 0.0500 Uiso
Fe1C Fe 0.62132(9) 0.45047(5) 1.17924(7) 0.0124 Uani
Fe2A Fe 0.23500(9) -0.20554(5) 0.40427(7) 0.0119 Uani
O4C O 0.1139(5) 0.1391(3) 0.5452(4) 0.0151 Uani
O5A O 0.3579(5) 0.1103(3) 1.0249(4) 0.0157 Uani
O6A O 0.0515(5) 0.1418(3) 0.9325(4) 0.0140 Uani
O9C O -0.0909(5) 0.1118(3) 0.6577(4) 0.0160 Uani
O10 O 0.4351(8) 0.2282(5) 0.6806(5) 0.0371 Uani
H2 H 0.421(12) 0.216(8) 0.602(4) 0.0500 Uiso
H3 H 0.334(7) 0.251(8) 0.676(8) 0.0500 Uiso
O11 O 0.3701(10) 0.1824(7) 0.4600(7) 0.0617 Uani
H4 H 0.434(10) 0.130(5) 0.493(10) 0.0500 Uiso
H5 H 0.269(6) 0.154(6) 0.431(10) 0.0500 Uiso
N1 N 0.7028(10) 0.1515(6) 0.8368(9) 0.0501 Uani
H6 H 0.7877 0.1677 0.8190 0.0750 Uiso
H7 H 0.7227 0.1564 0.9116 0.0750 Uiso
H8 H 0.6223 0.1870 0.8011 0.0750 Uiso
C5 C 0.6631(11) 0.0600(7) 0.8027(12) 0.0524 Uani
H9 H 0.5639 0.0451 0.8126 0.0790 Uiso
H10 H 0.7437 0.0210 0.8485 0.0790 Uiso
H11 H 0.6554 0.0530 0.7242 0.0790 Uiso
O12 O 0.2218(11) 0.3780(6) 0.5763(8) 0.0572 Uani
H12 H 0.269(10) 0.422(6) 0.634(8) 0.0500 Uiso
H13 H 0.112(4) 0.390(7) 0.562(10) 0.0500 Uiso
loop_
_atom_site_aniso_label
_atom_site_aniso_U_11
_atom_site_aniso_U_22
_atom_site_aniso_U_33
_atom_site_aniso_U_23
_atom_site_aniso_U_13
_atom_site_aniso_U_12
Fe1 0.0159(4) 0.0078(3) 0.0134(4) -0.0001(3) 0.0046(3) 0.0017(3)
Fe2 0.0158(4) 0.0069(3) 0.0134(4) -0.0004(3) 0.0051(3) -0.0012(3)
Cl1 0.0366(9) 0.0130(6) 0.0184(7) 0.0040(5) 0.0100(6) 0.0005(5)
Cl2 0.0300(8) 0.0145(5) 0.0209(7) 0.0052(5) 0.0077(6) 0.0058(5)
O1 0.019(2) 0.0128(18) 0.018(2) -0.0022(15) 0.0099(17) -0.0061(15)
O2 0.017(2) 0.0128(17) 0.016(2) -0.0032(15) 0.0063(16) -0.0029(14)
O3 0.019(2) 0.0090(17) 0.021(2) -0.0062(15) 0.0068(17) 0.0009(14)
O4 0.017 0.0134 0.018 0.0012 0.0099 -0.0003
O5 0.017 0.0103 0.02 -0.0027 0.0062 0.0018
O6 0.013 0.0109 0.016 -0.0027 0.0016 -0.0005
O7 0.015 0.0108 0.017 -0.0005 0.0037 -0.0001
O8 0.017 0.0126 0.018 -0.0027 0.0087 -0.003
O9 0.021 0.0094 0.019 -0.0041 0.0083 -0.0026
C1 0.018 0.009 0.012 0.0031 0.002 0.0019
C2 0.019(3) 0.006(2) 0.013(3) -0.0008(18) 0.004(2) -0.0032(17)
C3 0.017 0.008 0.012 0.0013 0.004 0.0022
C4 0.011(3) 0.0046(19) 0.017(3) -0.0004(17) 0.007(2) 0.0010(15)
Fe1C 0.0159 0.0078 0.0134 0.0001 0.0046 -0.0017
Fe2A 0.0158 0.0069 0.0134 0.0004 0.0051 0.0012
O4C 0.017 0.0134 0.018 -0.0012 0.0099 0.0003
O5A 0.017 0.0103 0.02 0.0027 0.0062 -0.0018
O6A 0.013 0.0109 0.016 0.0027 0.0016 0.0005
O9C 0.021 0.0094 0.019 0.0041 0.0083 0.0026
O10 0.038(3) 0.047(3) 0.030(3) 0.003(3) 0.016(3) -0.006(3)
O11 0.041(4) 0.102(7) 0.049(5) -0.016(4) 0.024(4) -0.039(4)
N1 0.028(4) 0.045(5) 0.073(7) -0.019(4) 0.010(4) -0.007(3)
C5 0.022(4) 0.048(6) 0.078(8) -0.007(5) 0.003(5) -0.014(4)
O12 0.054(5) 0.057(5) 0.068(5) -0.010(4) 0.030(4) -0.031(4)
loop_
_geom_bond_atom_site_label_1
_geom_bond_atom_site_label_2
_geom_bond_site_symmetry_1
_geom_bond_site_symmetry_2
Fe1 Cl1 1_555 1_555
Fe2 Cl2 1_555 1_555
O1 Fe2 1_555 1_555
O2 Fe1 1_555 1_555
O3 Fe1 1_555 1_555
O4 C1 1_555 1_555
O5 C2 1_555 1_555
O6 C3 1_555 1_555
O7 Fe1 1_555 1_555
O8 Fe2 1_555 1_555
O9 C4 1_555 1_555
C1 O8 1_555 1_555
C2 O3 1_555 1_555
C3 O7 1_555 1_555
C4 O1 1_555 1_555
H1 O2 1_555 1_555
O10 H2 1_555 1_555
H3 O10 1_555 1_555
O11 H4 1_555 1_555
H5 O11 1_555 1_555
N1 H6 1_555 1_555
H7 N1 1_555 1_555
H8 N1 1_555 1_555
C5 N1 1_555 1_555
H9 C5 1_555 1_555
H10 C5 1_555 1_555
H11 C5 1_555 1_555
O12 H12 1_555 1_555
H13 O12 1_555 1_555
Fe1C O4 1_555 1_555
Fe2A O5 1_555 1_555
O4C Fe1 1_555 1_555
O5A Fe2 1_555 1_555
O6A Fe2 1_555 1_555
O9C Fe1 1_555 1_555
Fe2 O2 1_555 1_555
O6 Fe2A 1_555 1_555
O9 Fe1C 1_555 1_555
C1 C4 1_555 1_555
C2 C3 1_555 1_555

#END
