
#######################################################################
#
#                 Cambridge Crystallographic Data Centre
#                                CCDC 
#
#######################################################################
#
# If this CIF has been generated from an entry in the Cambridge 
# Structural Database, then it will include bibliographic, chemical, 
# crystal, experimental, refinement or atomic coordinate data resulting 
# from the CCDC's data processing and validation procedures.
#
#######################################################################

data_DALSER
_chemical_formula_moiety         '(C6 H5 Cl2 Fe2 N2 O11 1-)n'
_symmetry_cell_setting           orthorhombic
_symmetry_space_group_name_H-M   'F d d 2'
_symmetry_Int_Tables_number      43
_space_group_name_Hall           'F 2 -2d'
loop_
_symmetry_equiv_pos_site_id
_symmetry_equiv_pos_as_xyz
1 x,y,z
2 -x,-y,z
3 1/4+x,1/4-y,1/4+z
4 1/4-x,1/4+y,1/4+z
5 x,1/2+y,1/2+z
6 -x,1/2-y,1/2+z
7 1/4+x,3/4-y,3/4+z
8 1/4-x,3/4+y,3/4+z
9 1/2+x,y,1/2+z
10 1/2-x,-y,1/2+z
11 3/4+x,1/4-y,3/4+z
12 3/4-x,1/4+y,3/4+z
13 1/2+x,1/2+y,z
14 1/2-x,1/2-y,z
15 3/4+x,3/4-y,1/4+z
16 3/4-x,3/4+y,1/4+z
_cell_length_a                   14.914(4)
_cell_length_b                   23.507(8)
_cell_length_c                   9.261(4)
_cell_angle_alpha                90
_cell_angle_beta                 90
_cell_angle_gamma                90
_cell_volume                     3246.75
loop_
_atom_site_label
_atom_site_type_symbol
_atom_site_fract_x
_atom_site_fract_y
_atom_site_fract_z
_atom_site_U_iso_or_equiv
_atom_site_thermal_displace_type
O6 O 0.1039(12) 0.5512(6) 0.240(2) 0.1000 Uiso
O7 O 0.0553(15) 0.6614(10) 0.186(3) 0.2600 Uiso
N1 N 0.097(4) 0.489(2) 0.046(8) 0.2500 Uiso
C3 C 0.013(4) 0.472(2) 0.046(8) 0.1930 Uiso
N1A N -0.097(4) 0.511(2) 0.046(8) 0.2500 Uiso
C3A C -0.013(4) 0.528(2) 0.046(8) 0.1930 Uiso
Fe1 Fe 0.07694(4) 0.44385(2) 0.55071(5) 0.0314 Uani
Cl1 Cl 0.18137(10) 0.50420(7) 0.6446(2) 0.0610 Uani
O1 O -0.0169(2) 0.37976(14) 0.4956(4) 0.0356 Uani
O2 O 0.0170(2) 0.43018(14) 0.7459(4) 0.0347 Uani
O3 O -0.0874(2) 0.37596(15) 0.8529(4) 0.0362 Uani
O4 O -0.1168(2) 0.32280(14) 0.6033(4) 0.0362 Uani
O5 O 0.0000 0.5000 0.4703(6) 0.0480 Uani
C1 C -0.0601(3) 0.36218(17) 0.6028(5) 0.0295 Uani
C2 C -0.0427(3) 0.39225(17) 0.7471(5) 0.0290 Uani
Fe1A Fe -0.07694(4) 0.55615(2) 0.55071(5) 0.0314 Uani
Cl1A Cl -0.18137(10) 0.49580(7) 0.6446(2) 0.0610 Uani
O1A O 0.0169(2) 0.62024(14) 0.4956(4) 0.0356 Uani
O2A O -0.0170(2) 0.56982(14) 0.7459(4) 0.0347 Uani
O3A O 0.0874(2) 0.62404(15) 0.8529(4) 0.0362 Uani
O4A O 0.1168(2) 0.67720(14) 0.6033(4) 0.0362 Uani
C1A C 0.0601(3) 0.63782(17) 0.6028(5) 0.0295 Uani
C2A C 0.0427(3) 0.60775(17) 0.7471(5) 0.0290 Uani
Fe1C Fe 0.17306(4) 0.69385(2) 0.80071(5) 0.0314 Uani
Fe1N Fe -0.17306(4) 0.30615(2) 0.80071(5) 0.0314 Uani
O3F O 0.1626(2) 0.37404(15) 0.6029(4) 0.0362 Uani
O3K O -0.1626(2) 0.62596(15) 0.6029(4) 0.0362 Uani
O4F O 0.1332(2) 0.42720(14) 0.3533(4) 0.0362 Uani
O4K O -0.1332(2) 0.57280(14) 0.3533(4) 0.0362 Uani
loop_
_atom_site_aniso_label
_atom_site_aniso_U_11
_atom_site_aniso_U_22
_atom_site_aniso_U_33
_atom_site_aniso_U_23
_atom_site_aniso_U_13
_atom_site_aniso_U_12
Fe1 0.0277(3) 0.0272(3) 0.0394(3) 0.0012(2) 0.0047(2) 0.0001(2)
Cl1 0.0436(7) 0.0457(7) 0.0937(12) -0.0139(8) 0.0027(7) -0.0142(5)
O1 0.0348(15) 0.0357(15) 0.0362(14) -0.0037(12) 0.0057(12) -0.0031(12)
O2 0.0319(15) 0.0344(14) 0.0377(14) -0.0038(13) 0.0014(12) -0.0069(12)
O3 0.0374 0.0352 0.0359 -0.0031 0.0033 -0.0054
O4 0.0334 0.035 0.0403 -0.0098 0.0075 -0.0085
O5 0.060(3) 0.038(2) 0.046(3) 0.000 0.000 0.025(2)
C1 0.0267(16) 0.0274(17) 0.0345(18) -0.0046(14) 0.0014(15) 0.0028(14)
C2 0.0243(16) 0.0282(17) 0.0346(18) -0.0038(14) -0.0001(14) 0.0011(13)
Fe1A 0.0277 0.0272 0.0394 -0.0012 -0.0047 0.0001
Cl1A 0.0436 0.0457 0.0937 0.0139 -0.0027 -0.0142
O1A 0.0348 0.0357 0.0362 0.0037 -0.0057 -0.0031
O2A 0.0319 0.0344 0.0377 0.0038 -0.0014 -0.0069
O3A 0.0374 0.0352 0.0359 0.0031 -0.0033 -0.0054
O4A 0.0334 0.035 0.0403 0.0098 -0.0075 -0.0085
C1A 0.0267 0.0274 0.0345 0.0046 -0.0014 0.0028
C2A 0.0243 0.0282 0.0346 0.0038 0.0001 0.0011
Fe1C 0.0277 0.0272 0.0394 0.0012 -0.0047 -0.0001
Fe1N 0.0277 0.0272 0.0394 -0.0012 0.0047 -0.0001
O3F 0.0374 0.0352 0.0359 0.0031 0.0033 0.0054
O3K 0.0374 0.0352 0.0359 -0.0031 -0.0033 0.0054
O4F 0.0334 0.035 0.0403 0.0098 0.0075 0.0085
O4K 0.0334 0.035 0.0403 -0.0098 -0.0075 0.0085
loop_
_geom_bond_atom_site_label_1
_geom_bond_atom_site_label_2
_geom_bond_site_symmetry_1
_geom_bond_site_symmetry_2
Fe1 Cl1 1_555 1_555
O1 Fe1 1_555 1_555
O2 Fe1 1_555 1_555
O3 C2 1_555 1_555
O4 C1 1_555 1_555
O5 Fe1 1_555 1_555
C1 O1 1_555 1_555
C2 O2 1_555 1_555
N1 C3 1_555 1_555
C3 C3A 1_555 1_555
Fe1A O5 1_555 1_555
Cl1A Fe1A 1_555 1_555
O1A Fe1A 1_555 1_555
O2A Fe1A 1_555 1_555
O3A C2A 1_555 1_555
O4A C1A 1_555 1_555
C1A O1A 1_555 1_555
C2A O2A 1_555 1_555
Fe1C O3A 1_555 1_555
Fe1N O3 1_555 1_555
O3F Fe1 1_555 1_555
O3K Fe1A 1_555 1_555
O4F Fe1 1_555 1_555
O4K Fe1A 1_555 1_555
N1A C3A 1_555 1_555
O4 Fe1N 1_555 1_555
C1 C2 1_555 1_555
O4A Fe1C 1_555 1_555
C1A C2A 1_555 1_555

#END
