
#######################################################################
#
#                 Cambridge Crystallographic Data Centre
#                                CCDC 
#
#######################################################################
#
# If this CIF has been generated from an entry in the Cambridge 
# Structural Database, then it will include bibliographic, chemical, 
# crystal, experimental, refinement or atomic coordinate data resulting 
# from the CCDC's data processing and validation procedures.
#
#######################################################################

data_KEFWAV
_chemical_formula_moiety         '(C28 H24 Co3 N1 O22 1-)n'
_symmetry_cell_setting           monoclinic
_symmetry_space_group_name_H-M   'P 21/c'
_symmetry_Int_Tables_number      14
_space_group_name_Hall           '-P 2ybc'
loop_
_symmetry_equiv_pos_site_id
_symmetry_equiv_pos_as_xyz
1 x,y,z
2 -x,1/2+y,1/2-z
3 -x,-y,-z
4 x,1/2-y,1/2+z
_cell_length_a                   12.7949(4)
_cell_length_b                   8.2582(2)
_cell_length_c                   18.2006(5)
_cell_angle_alpha                90
_cell_angle_beta                 107.778(3)
_cell_angle_gamma                90
_cell_volume                     1831.29
loop_
_atom_site_label
_atom_site_type_symbol
_atom_site_fract_x
_atom_site_fract_y
_atom_site_fract_z
Co1 Co 0.0000 1.0000 0.5000
Co2 Co 0.25856(4) 0.80963(5) 0.55834(3)
O1 O 0.41652(17) 0.7554(3) 0.56480(13)
O2 O 0.44277(17) 0.4993(3) 0.60903(13)
O3 O 0.61079(16) 0.7538(2) 0.53536(12)
O4 O 0.26889(17) 0.6611(3) 0.18659(13)
O5 O 0.11813(17) 0.6287(2) 0.08973(12)
O6 O 0.70204(17) 0.9509(2) 0.45467(13)
O7 O 0.19615(18) 0.7884(3) 0.44080(12)
O8 O 0.14888(16) 0.7052(2) 0.28856(11)
O9 O 0.87151(17) 0.8588(2) 0.51962(12)
O10 O 0.01528(17) 0.8284(3) 0.42325(12)
O11 O 0.2294(2) 0.5653(3) 0.57354(16)
H1 H 0.2881(14) 0.511(3) 0.589(2)
C1 C 0.4730(3) 0.6278(4) 0.58428(19)
C2 C 0.5863(3) 0.6322(4) 0.57905(19)
C3 C 0.6759(3) 0.5437(4) 0.6117(2)
H4 H 0.6801 0.4539 0.6433
C4 C 0.7627(3) 0.6111(4) 0.58972(19)
H5 H 0.8351 0.5752 0.6044
C5 C 0.7212(3) 0.7376(4) 0.54331(18)
C6 C 0.1671(3) 0.6457(4) 0.16198(19)
C7 C 0.0981(3) 0.6632(4) 0.21312(17)
C8 C -0.0120(3) 0.6624(4) 0.19849(19)
H6 H -0.0643 0.6368 0.1519
C9 C -0.0321(3) 0.7081(4) 0.26766(19)
H7 H -0.1004 0.7194 0.2753
C10 C 0.0667(3) 0.7325(4) 0.32072(19)
C11 C 0.0957(3) 0.7877(4) 0.40173(18)
C12 C 0.7691(3) 0.8581(4) 0.50270(19)
C13 C 0.1595(8) 0.4835(10) 0.6094(8)
H8 H 0.0872 0.5295 0.5917
H9 H 0.1883 0.4953 0.6644
H10 H 0.1559 0.3706 0.5962
Co1_2 Co -1.0000 1.0000 0.5000
Co1_3 Co 1.0000 1.0000 0.5000
Co1A Co -0.0000 0.5000 0.0000
Co1A_2 Co 0.0000 1.5000 1.0000
Co2B Co -0.25856(4) 1.19037(5) 0.44166(3)
Co2_2 Co -0.74144(4) 0.80963(5) 0.55834(3)
Co2A Co -0.25856(4) 1.30963(5) 0.94166(3)
Co2B_2 Co 0.74144(4) 1.19037(5) 0.44166(3)
Co2C Co 0.25856(4) 0.69037(5) 0.05834(3)
O1B O -0.41652(17) 1.2446(3) 0.43520(13)
O2B O -0.44277(17) 1.5007(3) 0.39097(13)
O3B O -0.61079(16) 1.2462(2) 0.46464(12)
O4B O -0.26889(17) 1.3389(3) 0.81341(13)
O4A O -0.26889(17) 1.1611(3) 0.31341(13)
O4C O 0.26889(17) 0.8389(3) 0.68659(13)
O5B O -0.11813(17) 1.3713(2) 0.91027(12)
O5A O -0.11813(17) 1.1287(2) 0.41027(12)
O5C O 0.11813(17) 0.8713(2) 0.58973(12)
O6B O -0.70204(17) 1.0491(2) 0.54533(13)
O6_2 O -0.29796(17) 0.9509(2) 0.45467(13)
O6B_2 O 0.29796(17) 1.0491(2) 0.54533(13)
O7B O -0.19615(18) 1.2116(3) 0.55920(12)
O8B O -0.14888(16) 1.2948(2) 0.71144(11)
O9B O -0.87151(17) 1.1412(2) 0.48038(12)
O9_2 O -0.12849(17) 0.8588(2) 0.51962(12)
O9B_2 O 0.12849(17) 1.1412(2) 0.48038(12)
O10B O -0.01528(17) 1.1716(3) 0.57675(12)
O11B O -0.2294(2) 1.4347(3) 0.42646(16)
H1B H -0.2881(14) 1.489(3) 0.411(2)
C1B C -0.4730(3) 1.3722(4) 0.41572(19)
C2B C -0.5863(3) 1.3678(4) 0.42095(19)
C3B C -0.6759(3) 1.4563(4) 0.3883(2)
H4B H -0.6801 1.5461 0.3567
C4B C -0.7627(3) 1.3889(4) 0.41028(19)
H5B H -0.8351 1.4248 0.3956
C5B C -0.7212(3) 1.2624(4) 0.45669(18)
C6B C -0.1671(3) 1.3543(4) 0.83802(19)
C7B C -0.0981(3) 1.3368(4) 0.78688(17)
C8B C 0.0120(3) 1.3376(4) 0.80151(19)
H6B H 0.0643 1.3632 0.8481
C9B C 0.0321(3) 1.2919(4) 0.73234(19)
H7B H 0.1004 1.2806 0.7247
C10B C -0.0667(3) 1.2675(4) 0.67928(19)
C11B C -0.0957(3) 1.2123(4) 0.59827(18)
C12B C -0.7691(3) 1.1419(4) 0.49730(19)
C13B C -0.1595(8) 1.5165(10) 0.3906(8)
H8B H -0.0872 1.4705 0.4083
H9B H -0.1883 1.5047 0.3356
H10B H -0.1559 1.6294 0.4038
N1 N 0.4987(2) 0.1681(3) 0.63436(16)
H2 H 0.4405 0.1240 0.5988
H3 H 0.4968 0.2755 0.6258
C14 C 0.4873(3) 0.1391(5) 0.7120(2)
H11 H 0.4219 0.1911 0.7155
H12 H 0.5499 0.1827 0.7506
H13 H 0.4827 0.0248 0.7201
C15 C 0.5996(3) 0.1020(4) 0.6232(2)
H14 H 0.6010 0.1266 0.5720
H15 H 0.6012 -0.0132 0.6303
H16 H 0.6623 0.1496 0.6602
loop_
_geom_bond_atom_site_label_1
_geom_bond_atom_site_label_2
_geom_bond_site_symmetry_1
_geom_bond_site_symmetry_2
Co1 O10 1_555 1_555
Co2 O1 1_555 1_555
O1 C1 1_555 1_555
O2 C1 1_555 1_555
O3 C2 1_555 1_555
O4 C6 1_555 1_555
O5 C6 1_555 1_555
O6 C12 1_555 1_555
O7 Co2 1_555 1_555
O8 C7 1_555 1_555
O9 C12 1_555 1_555
O10 C11 1_555 1_555
O11 Co2 1_555 1_555
H1 O11 1_555 1_555
N1 H2 1_555 1_555
H3 N1 1_555 1_555
C1 C2 1_555 1_555
C2 C3 1_555 1_555
C3 H4 1_555 1_555
C4 C3 1_555 1_555
H5 C4 1_555 1_555
C5 O3 1_555 1_555
C6 C7 1_555 1_555
C7 C8 1_555 1_555
C8 H6 1_555 1_555
C9 C8 1_555 1_555
H7 C9 1_555 1_555
C10 O8 1_555 1_555
C11 O7 1_555 1_555
C12 C5 1_555 1_555
C13 O11 1_555 1_555
H8 C13 1_555 1_555
H9 C13 1_555 1_555
H10 C13 1_555 1_555
C14 N1 1_555 1_555
H11 C14 1_555 1_555
H12 C14 1_555 1_555
H13 C14 1_555 1_555
C15 N1 1_555 1_555
H14 C15 1_555 1_555
H15 C15 1_555 1_555
H16 C15 1_555 1_555
Co1_2 O9B 1_555 1_555
Co1_3 O9 1_555 1_555
Co1A O5 1_555 1_555
Co1A_2 O5B 1_555 1_555
Co2B O1B 1_555 1_555
Co2_2 O6B 1_555 1_555
Co2A O4B 1_555 1_555
Co2B_2 O6 1_555 1_555
Co2C O4 1_555 1_555
O1B C1B 1_555 1_555
O2B C1B 1_555 1_555
O3B C2B 1_555 1_555
O4B C6B 1_555 1_555
O4A Co2B 1_555 1_555
O4C Co2 1_555 1_555
O5B Co2A 1_555 1_555
O5A Co1 1_555 1_555
O5C Co1 1_555 1_555
O6B C12B 1_555 1_555
O6_2 Co2B 1_555 1_555
O6B_2 Co2 1_555 1_555
O7B Co2B 1_555 1_555
O8B C7B 1_555 1_555
O9B C12B 1_555 1_555
O9_2 Co1 1_555 1_555
O9B_2 Co1 1_555 1_555
O10B Co1 1_555 1_555
O11B Co2B 1_555 1_555
H1B O11B 1_555 1_555
C1B C2B 1_555 1_555
C2B C3B 1_555 1_555
C3B H4B 1_555 1_555
C4B C3B 1_555 1_555
H5B C4B 1_555 1_555
C5B O3B 1_555 1_555
C6B O5B 1_555 1_555
C7B C6B 1_555 1_555
C8B C7B 1_555 1_555
H6B C8B 1_555 1_555
C9B C8B 1_555 1_555
H7B C9B 1_555 1_555
C10B O8B 1_555 1_555
C11B O7B 1_555 1_555
C12B C5B 1_555 1_555
C13B O11B 1_555 1_555
H8B C13B 1_555 1_555
H9B C13B 1_555 1_555
H10B C13B 1_555 1_555
Co2 O5C 1_555 1_555
O5 Co2C 1_555 1_555
C4 C5 1_555 1_555
C9 C10 1_555 1_555
C10 C11 1_555 1_555
Co2B O5A 1_555 1_555
O10B C11B 1_555 1_555
C4B C5B 1_555 1_555
C9B C10B 1_555 1_555
C10B C11B 1_555 1_555

#END
