
#######################################################################
#
#                 Cambridge Crystallographic Data Centre
#                                CCDC 
#
#######################################################################
#
# If this CIF has been generated from an entry in the Cambridge 
# Structural Database, then it will include bibliographic, chemical, 
# crystal, experimental, refinement or atomic coordinate data resulting 
# from the CCDC's data processing and validation procedures.
#
#######################################################################

data_DUXSIA
_chemical_formula_moiety         '(C74 H48 Co4 N12 O18)n'
_symmetry_cell_setting           triclinic
_symmetry_space_group_name_H-M   'P -1'
_symmetry_Int_Tables_number      2
_space_group_name_Hall           '-P 1'
loop_
_symmetry_equiv_pos_site_id
_symmetry_equiv_pos_as_xyz
1 x,y,z
2 -x,-y,-z
_cell_length_a                   11.573(3)
_cell_length_b                   13.892(4)
_cell_length_c                   14.655(4)
_cell_angle_alpha                62.631(4)
_cell_angle_beta                 68.977(4)
_cell_angle_gamma                68.800(4)
_cell_volume                     1897.32
loop_
_atom_site_label
_atom_site_type_symbol
_atom_site_fract_x
_atom_site_fract_y
_atom_site_fract_z
C1 C 0.9420(4) 0.3519(3) 0.3440(3)
H1 H 0.8898 0.3900 0.3881
C2 C 0.8928(4) 0.2971(3) 0.3136(3)
C3 C 0.9690(4) 0.2397(3) 0.2484(3)
H2 H 0.9343 0.2043 0.2276
C4 C 1.0966(4) 0.2362(3) 0.2152(3)
C5 C 1.1502(4) 0.2899(4) 0.2436(3)
H3 H 1.2371 0.2866 0.2206
C6 C 1.0708(4) 0.3486(3) 0.3074(3)
C7 C 1.0862(7) 0.5144(5) 0.3212(7)
H4 H 1.0170 0.5658 0.2938
C8 C 1.2889(4) 0.2006(4) 0.0759(4)
H5 H 1.3276 0.2550 0.0636
C9 C 1.1555(4) 0.0926(4) 0.1405(4)
H6 H 1.0858 0.0613 0.1803
C10 C 0.6637(4) 0.3766(3) 0.3774(3)
H7 H 0.6723 0.4430 0.3721
C11 C 0.7103(4) 0.2131(4) 0.3701(4)
H8 H 0.7545 0.1470 0.3593
C12 C 0.5840(4) 0.2454(4) 0.4065(4)
H9 H 0.5250 0.2043 0.4260
C13 C 1.2256(4) 0.3664(4) 0.3764(4)
H10 H 1.2719 0.2925 0.3946
C14 C 1.1651(6) 0.5353(5) 0.3534(6)
H11 H 1.1604 0.6042 0.3520
C15 C 0.5393(4) 1.0165(4) 0.1915(4)
C16 C 0.4460(4) 0.9432(3) 0.2591(3)
C17 C 0.4724(4) 0.8388(3) 0.2574(3)
H12 H 0.5472 0.8134 0.2143
C18 C 0.3870(4) 0.7725(3) 0.3199(3)
C19 C 0.2725(4) 0.8138(3) 0.3792(3)
H13 H 0.2146 0.7692 0.4210
C20 C 0.2437(4) 0.9192(3) 0.3772(3)
C21 C 0.3320(4) 0.9830(4) 0.3189(3)
H14 H 0.3147 1.0535 0.3198
C22 C 0.1174(4) 0.9621(4) 0.4400(3)
C23 C 0.0097(4) 0.9326(4) 0.4515(4)
H15 H 0.0157 0.8874 0.4181
C24 C 0.1065(4) 1.0313(4) 0.4887(4)
H16 H 0.1775 1.0533 0.4810
C25 C 0.4171(4) 0.6556(4) 0.3261(4)
C26 C 0.2736(4) 0.3114(4) 0.6460(3)
C27 C 0.1843(4) 0.2886(3) 0.7514(3)
C28 C 0.1103(4) 0.2143(4) 0.7867(3)
H17 H 0.1244 0.1716 0.7484
C29 C 0.0150(4) 0.2025(4) 0.8787(3)
C30 C -0.0062(4) 0.2678(4) 0.9346(3)
H18 H -0.0707 0.2608 0.9959
C31 C 0.0669(4) 0.3430(4) 0.9005(3)
C32 C 0.1623(4) 0.3519(4) 0.8090(3)
H19 H 0.2128 0.4015 0.7856
C33 C 0.0330(4) 0.4232(4) 0.9530(3)
C34 C -0.0907(4) 0.4560(4) 1.0034(3)
H20 H -0.1533 0.4268 1.0063
C35 C 0.1235(4) 0.4674(4) 0.9499(3)
H21 H 0.2078 0.4460 0.9160
C36 C -0.0723(5) 0.1324(4) 0.9078(4)
C37 C 1.3317(4) 0.1281(4) 0.0289(4)
H22 H 1.4058 0.1244 -0.0239
Co1 Co 0.38401(4) 0.43284(4) 0.45397(4)
Co2 Co 0.72718(6) 1.05665(5) -0.01559(5)
N1 N 0.5563(3) 0.3472(3) 0.4103(3)
N2 N 0.7600(3) 0.2964(3) 0.3523(3)
N3 N 1.1756(3) 0.1794(3) 0.1465(3)
N4 N 1.1237(3) 0.4064(3) 0.3351(3)
O1 O 0.5256(4) 1.0987(4) 0.2075(4)
O2 O 0.6228(3) 0.9858(3) 0.1219(3)
O3 O 0.4765(4) 0.6341(3) 0.2474(3)
O4 O 0.3759(3) 0.5880(2) 0.4153(2)
O5 O 0.3063(3) 0.4036(3) 0.6045(2)
O6 O 0.3076(3) 0.2485(3) 0.5990(3)
O7 O -0.0777(5) 0.1027(5) 0.8425(4)
O8 O 0.6031(4) 1.2039(4) -0.0684(3)
N5 N 1.2522(3) 0.4415(3) 0.3880(3)
O9 O -0.1456(4) 0.1084(3) 0.9974(3)
N6 N 1.2497(4) 0.0591(3) 0.0700(3)
C15A C -0.5393(4) 0.9835(4) 0.8085(4)
C16A C -0.4460(4) 1.0568(3) 0.7409(3)
C17A C -0.4724(4) 1.1612(3) 0.7426(3)
H12A H -0.5472 1.1866 0.7857
C18A C -0.3870(4) 1.2275(3) 0.6801(3)
C19A C -0.2725(4) 1.1862(3) 0.6208(3)
H13A H -0.2146 1.2308 0.5790
C20A C -0.2437(4) 1.0808(3) 0.6228(3)
C21A C -0.3320(4) 1.0170(4) 0.6811(3)
H14A H -0.3147 0.9465 0.6802
C22A C -0.1174(4) 1.0379(4) 0.5600(3)
C23A C -0.0097(4) 1.0674(4) 0.5485(4)
H15A H -0.0157 1.1126 0.5819
C24A C -0.1065(4) 0.9687(4) 0.5113(4)
H16A H -0.1775 0.9467 0.5190
C25A C -0.4171(4) 1.3444(4) 0.6739(4)
O1A O -0.5256(4) 0.9013(4) 0.7925(4)
O2A O -0.6228(3) 1.0142(3) 0.8781(3)
O3A O -0.4765(4) 1.3659(3) 0.7526(3)
O4A O -0.3759(3) 1.4120(2) 0.5847(2)
C26A C -0.2736(4) 0.6886(4) 1.3540(3)
C27A C -0.1843(4) 0.7114(3) 1.2486(3)
C28A C -0.1103(4) 0.7857(4) 1.2133(3)
H17A H -0.1244 0.8284 1.2516
C29A C -0.0150(4) 0.7975(4) 1.1213(3)
C30A C 0.0062(4) 0.7322(4) 1.0654(3)
H18A H 0.0707 0.7392 1.0041
C31A C -0.0669(4) 0.6570(4) 1.0995(3)
C32A C -0.1623(4) 0.6481(4) 1.1910(3)
H19A H -0.2128 0.5985 1.2144
C33A C -0.0330(4) 0.5768(4) 1.0470(3)
C34A C 0.0907(4) 0.5440(4) 0.9966(3)
H20A H 0.1533 0.5732 0.9937
C35A C -0.1235(4) 0.5326(4) 1.0501(3)
H21A H -0.2078 0.5540 1.0840
C36A C 0.0723(5) 0.8676(4) 1.0922(4)
O5A O -0.3063(3) 0.5964(3) 1.3955(2)
O6A O -0.3076(3) 0.7515(3) 1.4010(3)
O7A O 0.0777(5) 0.8973(5) 1.1575(4)
O9A O 0.1456(4) 0.8916(3) 1.0026(3)
C1A C -0.9420(4) 0.6481(3) 1.6560(3)
H1A H -0.8898 0.6100 1.6119
C2A C -0.8928(4) 0.7029(3) 1.6864(3)
C3A C -0.9690(4) 0.7603(3) 1.7516(3)
H2A H -0.9343 0.7957 1.7724
C4A C -1.0966(4) 0.7638(3) 1.7848(3)
C5A C -1.1502(4) 0.7101(4) 1.7564(3)
H3A H -1.2371 0.7134 1.7794
C6A C -1.0708(4) 0.6514(3) 1.6926(3)
C7A C -1.0862(7) 0.4856(5) 1.6788(7)
H4A H -1.0170 0.4342 1.7062
C8A C -1.2889(4) 0.7994(4) 1.9241(4)
H5A H -1.3276 0.7450 1.9364
C9A C -1.1555(4) 0.9074(4) 1.8595(4)
H6A H -1.0858 0.9387 1.8197
C10A C -0.6637(4) 0.6234(3) 1.6226(3)
H7A H -0.6723 0.5570 1.6279
C11A C -0.7103(4) 0.7869(4) 1.6299(4)
H8A H -0.7545 0.8530 1.6407
C12A C -0.5840(4) 0.7546(4) 1.5935(4)
H9A H -0.5250 0.7957 1.5740
C13A C -1.2256(4) 0.6336(4) 1.6236(4)
H10A H -1.2719 0.7075 1.6054
C14A C -1.1651(6) 0.4647(5) 1.6466(6)
H11A H -1.1604 0.3958 1.6480
C37A C -1.3317(4) 0.8719(4) 1.9711(4)
H22A H -1.4058 0.8756 2.0239
Co1A Co -0.38401(4) 0.56716(4) 1.54603(4)
N1A N -0.5563(3) 0.6528(3) 1.5897(3)
N2A N -0.7600(3) 0.7036(3) 1.6477(3)
N3A N -1.1756(3) 0.8206(3) 1.8535(3)
N4A N -1.1237(3) 0.5936(3) 1.6649(3)
N5A N -1.2522(3) 0.5585(3) 1.6120(3)
N6A N -1.2497(4) 0.9409(3) 1.9300(3)
Co2_2 Co -0.27282(6) 0.05665(5) 0.98441(5)
O8_2 O -0.3969(4) 0.2039(4) 0.9316(3)
Co1_2 Co 1.38401(4) 0.43284(4) 0.45397(4)
Co1A_2 Co -1.38401(4) 0.56716(4) 1.54603(4)
Co1A_3 Co -0.38401(4) 1.56716(4) 0.54603(4)
Co2_3 Co -1.27282(6) 1.05665(5) 1.98441(5)
Co2A Co -0.72718(6) 0.94335(5) 1.01559(5)
Co2A_2 Co 0.27282(6) 0.94335(5) 1.01559(5)
Co2A_3 Co 1.27282(6) -0.05665(5) 0.01559(5)
O2_2 O -0.3772(3) -0.0142(3) 1.1219(3)
O4A_2 O -0.3759(3) 0.4120(2) 1.5847(2)
N5_2 N 0.2522(3) 0.4415(3) 0.3880(3)
N5A_2 N -0.2522(3) 0.5585(3) 1.6120(3)
O9_2 O 0.8544(4) 1.1084(3) -0.0026(3)
N6A_2 N -0.2497(4) -0.0591(3) 0.9300(3)
N6A_3 N 0.7503(4) 0.9409(3) -0.0700(3)
loop_
_geom_bond_atom_site_label_1
_geom_bond_atom_site_label_2
_geom_bond_site_symmetry_1
_geom_bond_site_symmetry_2
C1 H1 1_555 1_555
C2 C1 1_555 1_555
C3 C2 1_555 1_555
H2 C3 1_555 1_555
C4 C3 1_555 1_555
C5 C4 1_555 1_555
H3 C5 1_555 1_555
C6 C1 1_555 1_555
C7 H4 1_555 1_555
C8 H5 1_555 1_555
C9 H6 1_555 1_555
C10 H7 1_555 1_555
C11 H8 1_555 1_555
C12 C11 1_555 1_555
H9 C12 1_555 1_555
C13 H10 1_555 1_555
C14 C7 1_555 1_555
H11 C14 1_555 1_555
C15 C16 1_555 1_555
C16 C17 1_555 1_555
C17 H12 1_555 1_555
C18 C17 1_555 1_555
C19 C18 1_555 1_555
H13 C19 1_555 1_555
C20 C19 1_555 1_555
C21 C16 1_555 1_555
H14 C21 1_555 1_555
C22 C20 1_555 1_555
C23 C22 1_555 1_555
H15 C23 1_555 1_555
C24 C22 1_555 1_555
H16 C24 1_555 1_555
C25 C18 1_555 1_555
C26 C27 1_555 1_555
C27 C28 1_555 1_555
C28 H17 1_555 1_555
C29 C28 1_555 1_555
C30 C29 1_555 1_555
H18 C30 1_555 1_555
C31 C30 1_555 1_555
C32 C27 1_555 1_555
H19 C32 1_555 1_555
C33 C31 1_555 1_555
C34 C33 1_555 1_555
H20 C34 1_555 1_555
C35 C33 1_555 1_555
H21 C35 1_555 1_555
C36 C29 1_555 1_555
C37 C8 1_555 1_555
H22 C37 1_555 1_555
Co1 N1 1_555 1_555
Co2 O2 1_555 1_555
N1 C10 1_555 1_555
N2 C2 1_555 1_555
N3 C4 1_555 1_555
N4 C6 1_555 1_555
O1 C15 1_555 1_555
O2 C15 1_555 1_555
O3 C25 1_555 1_555
O4 C25 1_555 1_555
O5 C26 1_555 1_555
O6 C26 1_555 1_555
O7 C36 1_555 1_555
O8 Co2 1_555 1_555
N5 C13 1_555 1_555
O9 C36 1_555 1_555
N6 C9 1_555 1_555
C15A C16A 1_555 1_555
C16A C17A 1_555 1_555
C17A H12A 1_555 1_555
C18A C17A 1_555 1_555
C19A C18A 1_555 1_555
H13A C19A 1_555 1_555
C20A C19A 1_555 1_555
C21A C16A 1_555 1_555
H14A C21A 1_555 1_555
C22A C20A 1_555 1_555
C23A C24 1_555 1_555
H15A C23A 1_555 1_555
C24A C23 1_555 1_555
H16A C24A 1_555 1_555
C25A C18A 1_555 1_555
O1A C15A 1_555 1_555
O2A C15A 1_555 1_555
O3A C25A 1_555 1_555
O4A C25A 1_555 1_555
C26A C27A 1_555 1_555
C27A C28A 1_555 1_555
C28A H17A 1_555 1_555
C29A C28A 1_555 1_555
C30A C29A 1_555 1_555
H18A C30A 1_555 1_555
C31A C30A 1_555 1_555
C32A C27A 1_555 1_555
H19A C32A 1_555 1_555
C33A C31A 1_555 1_555
C34A C35 1_555 1_555
H20A C34A 1_555 1_555
C35A C34 1_555 1_555
H21A C35A 1_555 1_555
C36A C29A 1_555 1_555
O5A C26A 1_555 1_555
O6A C26A 1_555 1_555
O7A C36A 1_555 1_555
O9A C36A 1_555 1_555
C1A H1A 1_555 1_555
C2A C1A 1_555 1_555
C3A C2A 1_555 1_555
H2A C3A 1_555 1_555
C4A C3A 1_555 1_555
C5A C4A 1_555 1_555
H3A C5A 1_555 1_555
C6A C1A 1_555 1_555
C7A H4A 1_555 1_555
C8A H5A 1_555 1_555
C9A H6A 1_555 1_555
C10A H7A 1_555 1_555
C11A H8A 1_555 1_555
C12A C11A 1_555 1_555
H9A C12A 1_555 1_555
C13A H10A 1_555 1_555
C14A C7A 1_555 1_555
H11A C14A 1_555 1_555
C37A C8A 1_555 1_555
H22A C37A 1_555 1_555
Co1A O5A 1_555 1_555
N1A C10A 1_555 1_555
N2A C2A 1_555 1_555
N3A C4A 1_555 1_555
N4A C6A 1_555 1_555
N5A C13A 1_555 1_555
N6A C9A 1_555 1_555
Co2_2 O9 1_555 1_555
O8_2 Co2_2 1_555 1_555
Co1_2 N5 1_555 1_555
Co1A_2 N5A 1_555 1_555
Co1A_3 O4A 1_555 1_555
Co2_3 N6A 1_555 1_555
Co2A O2A 1_555 1_555
Co2A_2 O9A 1_555 1_555
Co2A_3 N6 1_555 1_555
O2_2 Co2_2 1_555 1_555
O4A_2 Co1A 1_555 1_555
N5_2 Co1 1_555 1_555
N5A_2 Co1A 1_555 1_555
O9_2 Co2 1_555 1_555
N6A_2 Co2_2 1_555 1_555
N6A_3 Co2 1_555 1_555
C5 C6 1_555 1_555
C7 N4 1_555 1_555
C8 N3 1_555 1_555
C9 N3 1_555 1_555
C10 N2 1_555 1_555
C11 N2 1_555 1_555
C12 N1 1_555 1_555
C13 N4 1_555 1_555
C14 N5 1_555 1_555
C20 C21 1_555 1_555
C31 C32 1_555 1_555
C37 N6 1_555 1_555
Co1 O4 1_555 1_555
Co1 O5 1_555 1_555
C20A C21A 1_555 1_555
C22A C23A 1_555 1_555
C22A C24A 1_555 1_555
C31A C32A 1_555 1_555
C33A C34A 1_555 1_555
C33A C35A 1_555 1_555
C5A C6A 1_555 1_555
C7A N4A 1_555 1_555
C8A N3A 1_555 1_555
C9A N3A 1_555 1_555
C10A N2A 1_555 1_555
C11A N2A 1_555 1_555
C12A N1A 1_555 1_555
C13A N4A 1_555 1_555
C14A N5A 1_555 1_555
C37A N6A 1_555 1_555
Co1A N1A 1_555 1_555

#END
