
#######################################################################
#
#                 Cambridge Crystallographic Data Centre
#                                CCDC 
#
#######################################################################
#
# If this CIF has been generated from an entry in the Cambridge 
# Structural Database, then it will include bibliographic, chemical, 
# crystal, experimental, refinement or atomic coordinate data resulting 
# from the CCDC's data processing and validation procedures.
#
#######################################################################

data_UQEFED
_chemical_formula_moiety         '(C14 H8 Ca1 O6 S1 Xe1)n'
_symmetry_cell_setting           monoclinic
_symmetry_space_group_name_H-M   'P 21/n'
_symmetry_Int_Tables_number      14
_space_group_name_Hall           '-P 2yn'
loop_
_symmetry_equiv_pos_site_id
_symmetry_equiv_pos_as_xyz
1 x,y,z
2 1/2-x,1/2+y,1/2-z
3 -x,-y,-z
4 1/2+x,1/2-y,1/2+z
_cell_length_a                   11.6193(5)
_cell_length_b                   5.5667(2)
_cell_length_c                   22.9312(10)
_cell_angle_alpha                90
_cell_angle_beta                 100.897(4)
_cell_angle_gamma                90
_cell_volume                     1456.47
loop_
_atom_site_label
_atom_site_type_symbol
_atom_site_fract_x
_atom_site_fract_y
_atom_site_fract_z
C1 C 0.4932(5) 0.2586(9) 0.2620(2)
C2 C 0.3998(5) 0.2111(10) 0.2991(2)
C3 C 0.3121(5) 0.3789(10) 0.3001(2)
H1 H 0.3142 0.5287 0.2804
C4 C 0.2208(5) 0.3282(11) 0.3299(2)
H2 H 0.1597 0.4413 0.3304
C5 C 0.2209(5) 0.1096(10) 0.3589(2)
C6 C 0.3109(5) -0.0587(10) 0.3603(2)
H3 H 0.3110 -0.2042 0.3820
C7 C 0.4002(5) -0.0088(10) 0.3293(2)
H4 H 0.4609 -0.1223 0.3286
C8 C 0.1490(4) 0.1119(10) 0.4702(2)
C9 C 0.1194(5) 0.3340(10) 0.4901(2)
H5 H 0.0803 0.4502 0.4630
C10 C 0.1482(5) 0.3837(10) 0.5508(2)
H6 H 0.1298 0.5361 0.5652
C11 C 0.2036(5) 0.2114(10) 0.5900(2)
C12 C 0.2367(5) -0.0095(10) 0.5693(2)
H7 H 0.2775 -0.1241 0.5962
C13 C 0.2095(5) -0.0602(10) 0.5088(2)
H8 H 0.2317 -0.2090 0.4939
C14 C 0.2275(4) 0.2624(9) 0.6557(2)
O1 O 0.5124(3) 0.4755(7) 0.25221(16)
O2 O 0.5409(3) 0.0808(7) 0.24372(16)
O3 O 0.0054(3) 0.1958(7) 0.37124(15)
O4 O 0.0866(3) -0.2204(7) 0.39054(16)
O5 O 0.2371(3) 0.4768(7) 0.67265(16)
O6 O 0.2406(3) 0.0850(7) 0.69066(16)
S1 S 0.10323(11) 0.0364(2) 0.39414(5)
Ca1 Ca 0.63720(8) 0.74331(17) 0.22117(4)
O2_2 O 0.5409(3) 1.0808(7) 0.24372(16)
O3A O 0.4946(3) 0.6958(7) 0.12876(15)
O5C O 0.7371(3) 1.0232(7) 0.17265(16)
O6B O 0.7594(3) 0.9150(7) 0.30934(16)
O6C O 0.7406(3) 0.4150(7) 0.19066(16)
Ca1_2 Ca 0.63720(8) -0.25669(17) 0.22117(4)
Ca1A Ca -0.13720(8) 0.24331(17) 0.27883(4)
Ca1B Ca 0.36280(8) 0.25669(17) 0.77883(4)
Ca1C Ca 0.13720(8) -0.24331(17) 0.72117(4)
Ca1C_2 Ca 0.13720(8) 0.75669(17) 0.72117(4)
Xe1 Xe 0.5153(2) 0.5594(5) 0.51174(13)
loop_
_geom_bond_atom_site_label_1
_geom_bond_atom_site_label_2
_geom_bond_site_symmetry_1
_geom_bond_site_symmetry_2
C1 C2 1_555 1_555
C2 C3 1_555 1_555
C3 H1 1_555 1_555
C4 C3 1_555 1_555
H2 C4 1_555 1_555
C5 C4 1_555 1_555
C6 C5 1_555 1_555
H3 C6 1_555 1_555
C7 C2 1_555 1_555
H4 C7 1_555 1_555
C8 C9 1_555 1_555
C9 H5 1_555 1_555
C10 C9 1_555 1_555
H6 C10 1_555 1_555
C11 C10 1_555 1_555
C12 C11 1_555 1_555
H7 C12 1_555 1_555
C13 C8 1_555 1_555
H8 C13 1_555 1_555
C14 C11 1_555 1_555
O1 C1 1_555 1_555
O2 C1 1_555 1_555
O3 S1 1_555 1_555
O4 S1 1_555 1_555
O5 C14 1_555 1_555
O6 C14 1_555 1_555
S1 C5 1_555 1_555
Ca1 O1 1_555 1_555
O2_2 Ca1 1_555 1_555
O3A Ca1 1_555 1_555
O5C Ca1 1_555 1_555
O6B Ca1 1_555 1_555
O6C Ca1 1_555 1_555
Ca1_2 O2 1_555 1_555
Ca1A O3 1_555 1_555
Ca1B O6 1_555 1_555
Ca1C O6 1_555 1_555
Ca1C_2 O5 1_555 1_555
C6 C7 1_555 1_555
C8 S1 1_555 1_555
C12 C13 1_555 1_555

#END
