
#######################################################################
#
#                 Cambridge Crystallographic Data Centre
#                                CCDC 
#
#######################################################################
#
# If this CIF has been generated from an entry in the Cambridge 
# Structural Database, then it will include bibliographic, chemical, 
# crystal, experimental, refinement or atomic coordinate data resulting 
# from the CCDC's data processing and validation procedures.
#
#######################################################################

data_QOVXEG02
_chemical_formula_moiety         '(C14 H10 Co1 N4)n'
_symmetry_cell_setting           rhombohedral
_symmetry_space_group_name_H-M   'R -3'
_symmetry_Int_Tables_number      148
_space_group_name_Hall           '-R 3'
loop_
_symmetry_equiv_pos_site_id
_symmetry_equiv_pos_as_xyz
1 x,y,z
2 1/3+x,2/3+y,2/3+z
3 2/3+x,1/3+y,1/3+z
4 -y,x-y,z
5 1/3-y,2/3+x-y,2/3+z
6 2/3-y,1/3+x-y,1/3+z
7 -x+y,-x,z
8 1/3-x+y,2/3-x,2/3+z
9 2/3-x+y,1/3-x,1/3+z
10 -x,-y,-z
11 2/3-x,1/3-y,1/3-z
12 1/3-x,2/3-y,2/3-z
13 y,-x+y,-z
14 2/3+y,1/3-x+y,1/3-z
15 1/3+y,2/3-x+y,2/3-z
16 x-y,x,-z
17 2/3+x-y,1/3+x,1/3-z
18 1/3+x-y,2/3+x,2/3-z
_cell_length_a                   23.0110(8)
_cell_length_b                   23.0110(8)
_cell_length_c                   15.7647(7)
_cell_angle_alpha                90
_cell_angle_beta                 90
_cell_angle_gamma                120
_cell_volume                     7229.15
loop_
_atom_site_label
_atom_site_type_symbol
_atom_site_fract_x
_atom_site_fract_y
_atom_site_fract_z
_atom_site_U_iso_or_equiv
_atom_site_thermal_displace_type
Co1 Co 0.40361(2) 0.065623(19) 0.32560(2) 0.0427 Uani
C1 C 0.33781(15) 0.03327(15) 0.15800(19) 0.0480 Uani
C2 C 0.36156(15) -0.04313(15) 0.18766(19) 0.0463 Uani
C3 C 0.38137(16) -0.08591(17) 0.2236(2) 0.0617 Uani
C4 C 0.36852(19) -0.14204(19) 0.1785(3) 0.0754 Uani
C5 C 0.39309(15) 0.19221(15) 0.33969(17) 0.0468 Uani
C6 C 0.45281(15) 0.19628(15) 0.23332(19) 0.0501 Uani
C7 C 0.48890(19) 0.18533(18) 0.1707(2) 0.0733 Uani
C8 C 0.5233(2) 0.2365(2) 0.1136(2) 0.0893 Uani
C9 C 0.45173(15) 0.25596(15) 0.23785(19) 0.0490 Uani
C10 C 0.48772(18) 0.30791(18) 0.1802(2) 0.0668 Uani
C11 C 0.5232(2) 0.2964(2) 0.1183(2) 0.0850 Uani
C12 C 0.32895(14) -0.05759(14) 0.10899(19) 0.0455 Uani
C13 C 0.31701(16) -0.11424(17) 0.0628(2) 0.0593 Uani
C14 C 0.3376(2) -0.15532(18) 0.1000(3) 0.0754 Uani
N1 N 0.36676(12) 0.01551(12) 0.21802(14) 0.0467 Uani
N2 N 0.41394(12) 0.15530(12) 0.30014(14) 0.0472 Uani
N3 N 0.41264(12) 0.25292(12) 0.30727(14) 0.0477 Uani
N4 N 0.31388(12) -0.00784(12) 0.09108(14) 0.0458 Uani
H1 H 0.3335 0.0719 0.1614 0.0585 Uiso
H2 H 0.4024 -0.0758 0.2776 0.0752 Uiso
H3 H 0.3821 -0.1708 0.2015 0.0911 Uiso
H4 H 0.3664 0.1766 0.3891 0.0575 Uiso
H5 H 0.4884 0.1441 0.1674 0.0888 Uiso
H6 H 0.5473 0.2308 0.0682 0.1106 Uiso
H7 H 0.4884 0.3497 0.1842 0.0834 Uiso
H8 H 0.5482 0.3311 0.0780 0.0986 Uiso
H9 H 0.2943 -0.1240 0.0104 0.0724 Uiso
H10 H 0.3309 -0.1940 0.0692 0.0927 Uiso
Co1D Co 0.267710(19) 0.004654(28) -0.00773(2) 0.0427 Uani
Co1N Co 0.398956(19) 0.328680(28) 0.34107(2) 0.0427 Uani
N3Q N 0.49305(17) 0.07931(12) 0.35940(14) 0.0477 Uani
N4H N 0.34495(17) 0.01945(12) 0.42441(14) 0.0458 Uani
loop_
_atom_site_aniso_label
_atom_site_aniso_U_11
_atom_site_aniso_U_22
_atom_site_aniso_U_33
_atom_site_aniso_U_23
_atom_site_aniso_U_13
_atom_site_aniso_U_12
Co1 0.0455(3) 0.0457(3) 0.0399(2) 0.00175(19) -0.00097(19) 0.0251(2)
C1 0.0512(19) 0.0478(18) 0.0491(17) -0.0046(15) -0.0064(15) 0.0278(16)
C2 0.0419(18) 0.0455(18) 0.0509(18) 0.0022(15) -0.0014(14) 0.0213(16)
C3 0.057(2) 0.058(2) 0.073(2) 0.0023(19) -0.0137(18) 0.0309(19)
C4 0.078(3) 0.061(2) 0.097(3) -0.004(2) -0.017(2) 0.042(2)
C5 0.0522(19) 0.0461(19) 0.0416(16) 0.0031(14) 0.0055(14) 0.0242(16)
C6 0.0525(19) 0.0505(19) 0.0473(18) 0.0060(15) 0.0078(15) 0.0257(16)
C7 0.089(3) 0.073(3) 0.072(2) 0.010(2) 0.032(2) 0.051(2)
C8 0.109(3) 0.095(3) 0.080(3) 0.018(2) 0.050(3) 0.063(3)
C9 0.0483(19) 0.0503(19) 0.0489(18) 0.0079(16) 0.0060(15) 0.0251(16)
C10 0.075(2) 0.061(2) 0.067(2) 0.0208(19) 0.021(2) 0.036(2)
C11 0.095(3) 0.090(3) 0.075(3) 0.035(2) 0.042(2) 0.050(3)
C12 0.0405(17) 0.0450(19) 0.0499(18) -0.0005(14) 0.0050(15) 0.0205(15)
C13 0.061(2) 0.057(2) 0.063(2) -0.0094(18) -0.0050(17) 0.0319(18)
C14 0.079(3) 0.057(2) 0.097(3) -0.014(2) -0.003(2) 0.039(2)
N1 0.0508(15) 0.0482(16) 0.0421(14) -0.0002(12) -0.0030(12) 0.0254(13)
N2 0.0585(16) 0.0449(15) 0.0430(14) 0.0042(12) 0.0081(12) 0.0294(13)
N3 0.0568(16) 0.0463(16) 0.0443(14) 0.0034(12) 0.0031(12) 0.0290(13)
N4 0.0490(15) 0.0484(15) 0.0424(14) -0.0046(12) -0.0025(12) 0.0261(13)
Co1D 0.0457 0.041 0.0399 -0.00272 -0.00175 0.0206
Co1N 0.0457 0.041 0.0399 -0.00272 -0.00175 0.0206
N3Q 0.0451 0.0568 0.0443 -0.0031 0.0003 0.0278
N4H 0.0452 0.049 0.0424 0.0025 -0.0021 0.0229
loop_
_geom_bond_atom_site_label_1
_geom_bond_atom_site_label_2
_geom_bond_site_symmetry_1
_geom_bond_site_symmetry_2
Co1 N1 1_555 1_555
C1 N1 1_555 1_555
C2 C3 1_555 1_555
C3 C4 1_555 1_555
C4 C14 1_555 1_555
C5 N2 1_555 1_555
C6 C7 1_555 1_555
C7 C8 1_555 1_555
C8 C11 1_555 1_555
C9 C6 1_555 1_555
C10 C9 1_555 1_555
C11 C10 1_555 1_555
C12 C2 1_555 1_555
C13 C12 1_555 1_555
C14 C13 1_555 1_555
N1 C2 1_555 1_555
N2 Co1 1_555 1_555
N3 C5 1_555 1_555
N4 C1 1_555 1_555
H1 C1 1_555 1_555
H2 C3 1_555 1_555
H3 C4 1_555 1_555
H4 C5 1_555 1_555
H5 C7 1_555 1_555
H6 C8 1_555 1_555
H7 C10 1_555 1_555
H8 C11 1_555 1_555
H9 C13 1_555 1_555
H10 C14 1_555 1_555
Co1D N4 1_555 1_555
Co1N N3 1_555 1_555
N3Q Co1 1_555 1_555
N4H Co1 1_555 1_555
C6 N2 1_555 1_555
C9 N3 1_555 1_555
C12 N4 1_555 1_555

#END
