
#######################################################################
#
#                 Cambridge Crystallographic Data Centre
#                                CCDC 
#
#######################################################################
#
# If this CIF has been generated from an entry in the Cambridge 
# Structural Database, then it will include bibliographic, chemical, 
# crystal, experimental, refinement or atomic coordinate data resulting 
# from the CCDC's data processing and validation procedures.
#
#######################################################################

data_KARLEW
_chemical_formula_moiety         'C180 H96 N30 Ni33 O75'
_symmetry_cell_setting           cubic
_symmetry_space_group_name_H-M   'I -4 3 m'
_symmetry_Int_Tables_number      217
_space_group_name_Hall           'I -4 2 3'
loop_
_symmetry_equiv_pos_site_id
_symmetry_equiv_pos_as_xyz
1 x,y,z
2 -x,-y,z
3 -x,y,-z
4 x,-y,-z
5 z,x,y
6 z,-x,-y
7 -z,-x,y
8 -z,x,-y
9 y,z,x
10 -y,z,-x
11 y,-z,-x
12 -y,-z,x
13 y,x,z
14 -y,-x,z
15 y,-x,-z
16 -y,x,-z
17 x,z,y
18 -x,z,-y
19 -x,-z,y
20 x,-z,-y
21 z,y,x
22 z,-y,-x
23 -z,y,-x
24 -z,-y,x
25 1/2+x,1/2+y,1/2+z
26 1/2-x,1/2-y,1/2+z
27 1/2-x,1/2+y,1/2-z
28 1/2+x,1/2-y,1/2-z
29 1/2+z,1/2+x,1/2+y
30 1/2+z,1/2-x,1/2-y
31 1/2-z,1/2-x,1/2+y
32 1/2-z,1/2+x,1/2-y
33 1/2+y,1/2+z,1/2+x
34 1/2-y,1/2+z,1/2-x
35 1/2+y,1/2-z,1/2-x
36 1/2-y,1/2-z,1/2+x
37 1/2+y,1/2+x,1/2+z
38 1/2-y,1/2-x,1/2+z
39 1/2+y,1/2-x,1/2-z
40 1/2-y,1/2+x,1/2-z
41 1/2+x,1/2+z,1/2+y
42 1/2-x,1/2+z,1/2-y
43 1/2-x,1/2-z,1/2+y
44 1/2+x,1/2-z,1/2-y
45 1/2+z,1/2+y,1/2+x
46 1/2+z,1/2-y,1/2-x
47 1/2-z,1/2+y,1/2-x
48 1/2-z,1/2-y,1/2+x
_cell_length_a                   24.6399(3)
_cell_length_b                   24.6399(3)
_cell_length_c                   24.6399(3)
_cell_angle_alpha                90
_cell_angle_beta                 90
_cell_angle_gamma                90
_cell_volume                     14959.5
loop_
_atom_site_label
_atom_site_type_symbol
_atom_site_fract_x
_atom_site_fract_y
_atom_site_fract_z
Ni1 Ni 0.10550(2) 0.203956(18) 0.203956(18)
O1 O 0.17104(14) 0.17104(14) 0.17104(14)
O2 O 0.13726(11) 0.28073(9) 0.20090(13)
O3 O 0.06698(11) 0.21324(16) 0.13045(11)
N1 N 0.25404(15) 0.53659(14) 0.27188(16)
C1 C 0.2108(2) 0.5141(2) 0.3003(2)
H1 H 0.1975 0.5314 0.3320
C2 C 0.1870(2) 0.4662(2) 0.2821(3)
H2 H 0.1575 0.4508 0.3015
C3 C 0.2065(2) 0.44092(18) 0.2356(2)
C6 C 0.1816(3) 0.3870(3) 0.2201(4)
H5 H 0.1531 0.3734 0.2423
C7 C 0.1958(3) 0.3587(2) 0.1799(3)
C8 C 0.17301(14) 0.30260(19) 0.17301(14)
C9 C 0.08342(14) 0.2151(2) 0.08342(14)
C10 C 0.03960(14) 0.2182(3) 0.03960(14)
C11 C -0.01307(19) 0.2212(3) 0.0542(2)
H7 H -0.0228 0.2232 0.0914
Ni1H Ni 0.203956(18) 0.203956(18) 0.10550(2)
Ni1HA Ni -0.296044(18) 0.296044(18) 0.39450(2)
Ni1CA Ni -0.296044(18) 0.39450(2) 0.296044(18)
Ni1D Ni 0.203956(18) 0.10550(2) 0.203956(18)
Ni1I Ni -0.203956(18) 0.203956(18) -0.10550(2)
Ni1B Ni -0.10550(2) 0.203956(18) -0.203956(18)
Ni1F Ni -0.203956(18) -0.10550(2) 0.203956(18)
Ni1A Ni -0.10550(2) -0.203956(18) 0.203956(18)
Ni1EA Ni 0.296044(18) 0.60550(2) 0.296044(18)
Ni1IA Ni 0.296044(18) 0.296044(18) 0.60550(2)
Ni1DA Ni 0.296044(18) 0.39450(2) -0.296044(18)
Ni1AA Ni 0.60550(2) 0.296044(18) 0.296044(18)
Ni1E Ni 0.203956(18) -0.10550(2) -0.203956(18)
Ni1J Ni 0.203956(18) -0.203956(18) -0.10550(2)
Ni1Y Ni 0.39450(2) 0.296044(18) -0.296044(18)
Ni1AA_2 Ni -0.39450(2) 0.296044(18) 0.296044(18)
Ni1BA Ni -0.296044(18) 0.60550(2) 0.703956(18)
Ni1FA Ni -0.296044(18) 0.703956(18) 0.60550(2)
Ni1G Ni -0.203956(18) 0.10550(2) 0.796044(18)
Ni1B_2 Ni -0.10550(2) 0.203956(18) 0.796044(18)
Ni1Y_2 Ni -0.60550(2) 0.296044(18) 0.703956(18)
Ni1IA_2 Ni -0.703956(18) 0.296044(18) 0.60550(2)
Ni1K Ni -0.203956(18) 0.796044(18) 0.10550(2)
Ni1A_2 Ni -0.10550(2) 0.796044(18) 0.203956(18)
Ni1Z Ni -0.60550(2) 0.703956(18) 0.296044(18)
Ni1EA_2 Ni -0.703956(18) 0.60550(2) 0.296044(18)
Ni1Z_2 Ni 0.39450(2) -0.296044(18) 0.296044(18)
Ni1GA Ni 0.296044(18) -0.296044(18) 0.39450(2)
Ni1G_2 Ni -0.203956(18) 0.10550(2) -0.203956(18)
Ni1BA_2 Ni -0.296044(18) 0.60550(2) -0.296044(18)
Ni1Y_3 Ni -0.60550(2) 0.296044(18) -0.296044(18)
Ni1K_2 Ni -0.203956(18) -0.203956(18) 0.10550(2)
O1AA O -0.32896(14) 0.32896(14) 0.32896(14)
O1B O -0.17104(14) 0.17104(14) -0.17104(14)
O1A O -0.17104(14) -0.17104(14) 0.17104(14)
O1Z O 0.32896(14) 0.67104(14) 0.32896(14)
O1Y O 0.32896(14) 0.32896(14) 0.67104(14)
O1Y_2 O 0.32896(14) 0.32896(14) -0.32896(14)
O2T O 0.20090(13) 0.28073(9) 0.13726(11)
O2HA O -0.21927(9) 0.29910(13) 0.36274(11)
O2LA O -0.21927(9) 0.36274(11) 0.29910(13)
O2P O 0.13726(11) 0.20090(13) 0.28073(9)
O2D O 0.20090(13) 0.13726(11) 0.28073(9)
O2H O 0.28073(9) 0.20090(13) 0.13726(11)
O2L O 0.28073(9) 0.13726(11) 0.20090(13)
O2DA O 0.29910(13) 0.36274(11) -0.21927(9)
O2PA O 0.36274(11) 0.29910(13) -0.21927(9)
O2G O -0.20090(13) 0.13726(11) 0.71927(9)
O2Q O -0.13726(11) 0.20090(13) 0.71927(9)
O2SA O -0.29910(13) 0.21927(9) 0.36274(11)
O2AA O -0.36274(11) 0.21927(9) 0.29910(13)
O2W O -0.20090(13) 0.71927(9) 0.13726(11)
O2A O -0.13726(11) 0.71927(9) 0.20090(13)
O2CA O -0.29910(13) 0.36274(11) 0.21927(9)
O2QA O -0.36274(11) 0.29910(13) 0.21927(9)
O2Z O 0.36274(11) -0.21927(9) 0.29910(13)
O2TA O 0.29910(13) -0.21927(9) 0.36274(11)
O2V O -0.20090(13) 0.28073(9) -0.13726(11)
O2B O -0.13726(11) 0.28073(9) -0.20090(13)
O2I O -0.28073(9) 0.20090(13) -0.13726(11)
O2O O -0.28073(9) 0.13726(11) -0.20090(13)
O2Q_2 O -0.13726(11) 0.20090(13) -0.28073(9)
O2F O -0.20090(13) -0.13726(11) 0.28073(9)
O2M O -0.28073(9) -0.13726(11) 0.20090(13)
O2R O -0.13726(11) -0.20090(13) 0.28073(9)
O2A_2 O -0.13726(11) -0.28073(9) 0.20090(13)
O2EA O 0.29910(13) 0.63726(11) 0.21927(9)
O2MA O 0.21927(9) 0.63726(11) 0.29910(13)
O2UA O 0.29910(13) 0.21927(9) 0.63726(11)
O2IA O 0.21927(9) 0.29910(13) 0.63726(11)
O2KA O 0.21927(9) 0.36274(11) -0.29910(13)
O3T O 0.13045(11) 0.21324(16) 0.06698(11)
O3V O -0.13045(11) 0.21324(16) -0.06698(11)
O3B O -0.06698(11) 0.21324(16) -0.13045(11)
O3P O 0.06698(11) 0.13045(11) 0.21324(16)
O3D O 0.13045(11) 0.06698(11) 0.21324(16)
O3F O -0.13045(11) -0.06698(11) 0.21324(16)
O3R O -0.06698(11) -0.13045(11) 0.21324(16)
O3H O 0.21324(16) 0.13045(11) 0.06698(11)
O3L O 0.21324(16) 0.06698(11) 0.13045(11)
O3N O 0.21324(16) -0.06698(11) -0.13045(11)
O3J O 0.21324(16) -0.13045(11) -0.06698(11)
O3HA O -0.28676(16) 0.36955(11) 0.43302(11)
O3LA O -0.28676(16) 0.43302(11) 0.36955(11)
O3JA O -0.28676(16) 0.56698(11) 0.63045(11)
O3FA O -0.28676(16) 0.63045(11) 0.56698(11)
O3SA O -0.36955(11) 0.28676(16) 0.43302(11)
O3AA O -0.43302(11) 0.28676(16) 0.36955(11)
O3Y O -0.56698(11) 0.28676(16) 0.63045(11)
O3UA O -0.63045(11) 0.28676(16) 0.56698(11)
O3CA O -0.36955(11) 0.43302(11) 0.28676(16)
O3QA O -0.43302(11) 0.36955(11) 0.28676(16)
O3OA O -0.56698(11) 0.63045(11) 0.28676(16)
O3EA O -0.63045(11) 0.56698(11) 0.28676(16)
O3I O -0.21324(16) 0.13045(11) -0.06698(11)
O3Q O -0.06698(11) 0.13045(11) -0.21324(16)
O3M O -0.21324(16) -0.06698(11) 0.13045(11)
O3A O -0.06698(11) -0.21324(16) 0.13045(11)
O3EA_2 O 0.36955(11) 0.56698(11) 0.28676(16)
O3MA O 0.28676(16) 0.56698(11) 0.36955(11)
O3UA_2 O 0.36955(11) 0.28676(16) 0.56698(11)
O3IA O 0.28676(16) 0.36955(11) 0.56698(11)
O3DA O 0.36955(11) 0.43302(11) -0.28676(16)
O3KA O 0.28676(16) 0.43302(11) -0.36955(11)
N1T N 0.27188(16) 0.53659(14) 0.25404(15)
N1HA N 0.03659(14) 0.22812(16) 0.24596(15)
N1LA N 0.03659(14) 0.24596(15) 0.22812(16)
N1P N 0.25404(15) 0.27188(16) 0.53659(14)
N1D N 0.27188(16) 0.25404(15) 0.53659(14)
N1H N 0.53659(14) 0.27188(16) 0.25404(15)
N1L N 0.53659(14) 0.25404(15) 0.27188(16)
N1DA N 0.22812(16) 0.24596(15) 0.03659(14)
N1PA N 0.24596(15) 0.22812(16) 0.03659(14)
N1G N -0.27188(16) 0.25404(15) 0.46341(14)
N1Q N -0.25404(15) 0.27188(16) 0.46341(14)
N1SA N -0.22812(16) -0.03659(14) 0.24596(15)
N1AA N -0.24596(15) -0.03659(14) 0.22812(16)
N1W N -0.27188(16) 0.46341(14) 0.25404(15)
N1A N -0.25404(15) 0.46341(14) 0.27188(16)
N1CA N -0.22812(16) 0.24596(15) -0.03659(14)
N1QA N -0.24596(15) 0.22812(16) -0.03659(14)
N1Z N 0.24596(15) 0.03659(14) 0.22812(16)
N1TA N 0.22812(16) 0.03659(14) 0.24596(15)
N1V N -0.27188(16) 0.53659(14) -0.25404(15)
N1B N -0.25404(15) 0.53659(14) -0.27188(16)
N1I N -0.53659(14) 0.27188(16) -0.25404(15)
N1O N -0.53659(14) 0.25404(15) -0.27188(16)
N1IA N -0.03659(14) 0.22812(16) -0.24596(15)
N1KA N -0.03659(14) 0.24596(15) -0.22812(16)
N1MA N -0.03659(14) -0.24596(15) 0.22812(16)
N1GA N -0.03659(14) -0.22812(16) 0.24596(15)
N1C N 0.25404(15) 0.46341(14) -0.27188(16)
N1U N 0.27188(16) 0.46341(14) -0.25404(15)
C1T C 0.3003(2) 0.5141(2) 0.2108(2)
C1HA C 0.0141(2) 0.1997(2) 0.2892(2)
C1LA C 0.0141(2) 0.2892(2) 0.1997(2)
C1P C 0.2108(2) 0.3003(2) 0.5141(2)
C1D C 0.3003(2) 0.2108(2) 0.5141(2)
C1H C 0.5141(2) 0.3003(2) 0.2108(2)
C1L C 0.5141(2) 0.2108(2) 0.3003(2)
C1DA C 0.1997(2) 0.2892(2) 0.0141(2)
C1PA C 0.2892(2) 0.1997(2) 0.0141(2)
C1G C -0.3003(2) 0.2108(2) 0.4859(2)
C1Q C -0.2108(2) 0.3003(2) 0.4859(2)
C1SA C -0.1997(2) -0.0141(2) 0.2892(2)
C1AA C -0.2892(2) -0.0141(2) 0.1997(2)
C1W C -0.3003(2) 0.4859(2) 0.2108(2)
C1A C -0.2108(2) 0.4859(2) 0.3003(2)
C1CA C -0.1997(2) 0.2892(2) -0.0141(2)
C1QA C -0.2892(2) 0.1997(2) -0.0141(2)
C1Z C 0.2892(2) 0.0141(2) 0.1997(2)
C1TA C 0.1997(2) 0.0141(2) 0.2892(2)
C1V C -0.3003(2) 0.5141(2) -0.2108(2)
C1B C -0.2108(2) 0.5141(2) -0.3003(2)
C1I C -0.5141(2) 0.3003(2) -0.2108(2)
C1O C -0.5141(2) 0.2108(2) -0.3003(2)
H1T H 0.3320 0.5314 0.1975
H1HA H 0.0314 0.1680 0.3025
H1LA H 0.0314 0.3025 0.1680
H1P H 0.1975 0.3320 0.5314
H1D H 0.3320 0.1975 0.5314
H1H H 0.5314 0.3320 0.1975
H1L H 0.5314 0.1975 0.3320
H1DA H 0.1680 0.3025 0.0314
H1PA H 0.3025 0.1680 0.0314
H1G H -0.3320 0.1975 0.4686
H1Q H -0.1975 0.3320 0.4686
H1SA H -0.1680 -0.0314 0.3025
H1AA H -0.3025 -0.0314 0.1680
H1W H -0.3320 0.4686 0.1975
H1A H -0.1975 0.4686 0.3320
H1CA H -0.1680 0.3025 -0.0314
H1QA H -0.3025 0.1680 -0.0314
H1Z H 0.3025 0.0314 0.1680
H1TA H 0.1680 0.0314 0.3025
H1V H -0.3320 0.5314 -0.1975
H1B H -0.1975 0.5314 -0.3320
H1I H -0.5314 0.3320 -0.1975
H1O H -0.5314 0.1975 -0.3320
C2T C 0.2821(3) 0.4662(2) 0.1870(2)
C2HA C -0.0338(2) 0.2179(3) 0.3130(2)
C2LA C -0.0338(2) 0.3130(2) 0.2179(3)
C2P C 0.1870(2) 0.2821(3) 0.4662(2)
C2D C 0.2821(3) 0.1870(2) 0.4662(2)
C2H C 0.4662(2) 0.2821(3) 0.1870(2)
C2L C 0.4662(2) 0.1870(2) 0.2821(3)
C2DA C 0.2179(3) 0.3130(2) -0.0338(2)
C2PA C 0.3130(2) 0.2179(3) -0.0338(2)
C2G C -0.2821(3) 0.1870(2) 0.5338(2)
C2Q C -0.1870(2) 0.2821(3) 0.5338(2)
C2SA C -0.2179(3) 0.0338(2) 0.3130(2)
C2AA C -0.3130(2) 0.0338(2) 0.2179(3)
C2W C -0.2821(3) 0.5338(2) 0.1870(2)
C2A C -0.1870(2) 0.5338(2) 0.2821(3)
C2CA C -0.2179(3) 0.3130(2) 0.0338(2)
C2QA C -0.3130(2) 0.2179(3) 0.0338(2)
C2Z C 0.3130(2) -0.0338(2) 0.2179(3)
C2TA C 0.2179(3) -0.0338(2) 0.3130(2)
C2V C -0.2821(3) 0.4662(2) -0.1870(2)
C2B C -0.1870(2) 0.4662(2) -0.2821(3)
C2I C -0.4662(2) 0.2821(3) -0.1870(2)
C2O C -0.4662(2) 0.1870(2) -0.2821(3)
H2T H 0.3015 0.4508 0.1575
H2HA H -0.0492 0.1985 0.3425
H2LA H -0.0492 0.3425 0.1985
H2P H 0.1575 0.3015 0.4508
H2D H 0.3015 0.1575 0.4508
H2H H 0.4508 0.3015 0.1575
H2L H 0.4508 0.1575 0.3015
H2DA H 0.1985 0.3425 -0.0492
H2PA H 0.3425 0.1985 -0.0492
H2G H -0.3015 0.1575 0.5492
H2Q H -0.1575 0.3015 0.5492
H2SA H -0.1985 0.0492 0.3425
H2AA H -0.3425 0.0492 0.1985
H2W H -0.3015 0.5492 0.1575
H2A H -0.1575 0.5492 0.3015
H2CA H -0.1985 0.3425 0.0492
H2QA H -0.3425 0.1985 0.0492
H2Z H 0.3425 -0.0492 0.1985
H2TA H 0.1985 -0.0492 0.3425
H2V H -0.3015 0.4508 -0.1575
H2B H -0.1575 0.4508 -0.3015
H2I H -0.4508 0.3015 -0.1575
H2O H -0.4508 0.1575 -0.3015
C3T C 0.2356(2) 0.44092(18) 0.2065(2)
C3HA C -0.05908(18) 0.2644(2) 0.2935(2)
C3LA C -0.05908(18) 0.2935(2) 0.2644(2)
C3P C 0.2065(2) 0.2356(2) 0.44092(18)
C3D C 0.2356(2) 0.2065(2) 0.44092(18)
C3H C 0.44092(18) 0.2356(2) 0.2065(2)
C3L C 0.44092(18) 0.2065(2) 0.2356(2)
C3DA C 0.2644(2) 0.2935(2) -0.05908(18)
C3PA C 0.2935(2) 0.2644(2) -0.05908(18)
C3G C -0.2356(2) 0.2065(2) 0.55908(18)
C3Q C -0.2065(2) 0.2356(2) 0.55908(18)
C3SA C -0.2644(2) 0.05908(18) 0.2935(2)
C3AA C -0.2935(2) 0.05908(18) 0.2644(2)
C3W C -0.2356(2) 0.55908(18) 0.2065(2)
C3A C -0.2065(2) 0.55908(18) 0.2356(2)
C3CA C -0.2644(2) 0.2935(2) 0.05908(18)
C3QA C -0.2935(2) 0.2644(2) 0.05908(18)
C3Z C 0.2935(2) -0.05908(18) 0.2644(2)
C3TA C 0.2644(2) -0.05908(18) 0.2935(2)
C3V C -0.2356(2) 0.44092(18) -0.2065(2)
C3B C -0.2065(2) 0.44092(18) -0.2356(2)
C3I C -0.44092(18) 0.2356(2) -0.2065(2)
C3O C -0.44092(18) 0.2065(2) -0.2356(2)
C6T C 0.2201(4) 0.3870(3) 0.1816(3)
C6HA C -0.1130(3) 0.2799(4) 0.3184(3)
C6LA C -0.1130(3) 0.3184(3) 0.2799(4)
C6P C 0.1816(3) 0.2201(4) 0.3870(3)
C6D C 0.2201(4) 0.1816(3) 0.3870(3)
C6H C 0.3870(3) 0.2201(4) 0.1816(3)
C6L C 0.3870(3) 0.1816(3) 0.2201(4)
C6DA C 0.2799(4) 0.3184(3) -0.1130(3)
C6PA C 0.3184(3) 0.2799(4) -0.1130(3)
C6G C -0.2201(4) 0.1816(3) 0.6130(3)
C6Q C -0.1816(3) 0.2201(4) 0.6130(3)
C6SA C -0.2799(4) 0.1130(3) 0.3184(3)
C6AA C -0.3184(3) 0.1130(3) 0.2799(4)
C6W C -0.2201(4) 0.6130(3) 0.1816(3)
C6A C -0.1816(3) 0.6130(3) 0.2201(4)
C6CA C -0.2799(4) 0.3184(3) 0.1130(3)
C6QA C -0.3184(3) 0.2799(4) 0.1130(3)
C6Z C 0.3184(3) -0.1130(3) 0.2799(4)
C6TA C 0.2799(4) -0.1130(3) 0.3184(3)
C6V C -0.2201(4) 0.3870(3) -0.1816(3)
C6B C -0.1816(3) 0.3870(3) -0.2201(4)
C6I C -0.3870(3) 0.2201(4) -0.1816(3)
C6O C -0.3870(3) 0.1816(3) -0.2201(4)
H5T H 0.2423 0.3734 0.1531
H5HA H -0.1266 0.2577 0.3469
H5LA H -0.1266 0.3469 0.2577
H5P H 0.1531 0.2423 0.3734
H5D H 0.2423 0.1531 0.3734
H5H H 0.3734 0.2423 0.1531
H5L H 0.3734 0.1531 0.2423
H5DA H 0.2577 0.3469 -0.1266
H5PA H 0.3469 0.2577 -0.1266
H5G H -0.2423 0.1531 0.6266
H5Q H -0.1531 0.2423 0.6266
H5SA H -0.2577 0.1266 0.3469
H5AA H -0.3469 0.1266 0.2577
H5W H -0.2423 0.6266 0.1531
H5A H -0.1531 0.6266 0.2423
H5CA H -0.2577 0.3469 0.1266
H5QA H -0.3469 0.2577 0.1266
H5Z H 0.3469 -0.1266 0.2577
H5TA H 0.2577 -0.1266 0.3469
H5V H -0.2423 0.3734 -0.1531
H5B H -0.1531 0.3734 -0.2423
H5I H -0.3734 0.2423 -0.1531
H5O H -0.3734 0.1531 -0.2423
C7T C 0.1799(3) 0.3587(2) 0.1958(3)
C7HA C -0.1413(2) 0.3201(3) 0.3042(3)
C7LA C -0.1413(2) 0.3042(3) 0.3201(3)
C7P C 0.1958(3) 0.1799(3) 0.3587(2)
C7D C 0.1799(3) 0.1958(3) 0.3587(2)
C7H C 0.3587(2) 0.1799(3) 0.1958(3)
C7L C 0.3587(2) 0.1958(3) 0.1799(3)
C7DA C 0.3201(3) 0.3042(3) -0.1413(2)
C7PA C 0.3042(3) 0.3201(3) -0.1413(2)
C7G C -0.1799(3) 0.1958(3) 0.6413(2)
C7Q C -0.1958(3) 0.1799(3) 0.6413(2)
C7SA C -0.3201(3) 0.1413(2) 0.3042(3)
C7AA C -0.3042(3) 0.1413(2) 0.3201(3)
C7W C -0.1799(3) 0.6413(2) 0.1958(3)
C7A C -0.1958(3) 0.6413(2) 0.1799(3)
C7CA C -0.3201(3) 0.3042(3) 0.1413(2)
C7QA C -0.3042(3) 0.3201(3) 0.1413(2)
C7Z C 0.3042(3) -0.1413(2) 0.3201(3)
C7TA C 0.3201(3) -0.1413(2) 0.3042(3)
C7V C -0.1799(3) 0.3587(2) -0.1958(3)
C7B C -0.1958(3) 0.3587(2) -0.1799(3)
C7I C -0.3587(2) 0.1799(3) -0.1958(3)
C7O C -0.3587(2) 0.1958(3) -0.1799(3)
C8HA C -0.19740(19) 0.32699(14) 0.32699(14)
C8D C 0.17301(14) 0.17301(14) 0.30260(19)
C8H C 0.30260(19) 0.17301(14) 0.17301(14)
C8DA C 0.32699(14) 0.32699(14) -0.19740(19)
C8G C -0.17301(14) 0.17301(14) 0.69740(19)
C8AA C -0.32699(14) 0.19740(19) 0.32699(14)
C8A C -0.17301(14) 0.69740(19) 0.17301(14)
C8CA C -0.32699(14) 0.32699(14) 0.19740(19)
C8Z C 0.32699(14) -0.19740(19) 0.32699(14)
C8B C -0.17301(14) 0.30260(19) -0.17301(14)
C8I C -0.30260(19) 0.17301(14) -0.17301(14)
C9B C -0.08342(14) 0.2151(2) -0.08342(14)
C9D C 0.08342(14) 0.08342(14) 0.2151(2)
C9F C -0.08342(14) -0.08342(14) 0.2151(2)
C9H C 0.2151(2) 0.08342(14) 0.08342(14)
C9J C 0.2151(2) -0.08342(14) -0.08342(14)
C9HA C -0.2849(2) 0.41658(14) 0.41658(14)
C9FA C -0.2849(2) 0.58342(14) 0.58342(14)
C9AA C -0.41658(14) 0.2849(2) 0.41658(14)
C9Y C -0.58342(14) 0.2849(2) 0.58342(14)
C9CA C -0.41658(14) 0.41658(14) 0.2849(2)
C9EA C -0.58342(14) 0.58342(14) 0.2849(2)
C10B C -0.03960(14) 0.2182(3) -0.03960(14)
C10D C 0.03960(14) 0.03960(14) 0.2182(3)
C10F C -0.03960(14) -0.03960(14) 0.2182(3)
C10H C 0.2182(3) 0.03960(14) 0.03960(14)
C10J C 0.2182(3) -0.03960(14) -0.03960(14)
C10HA C -0.2818(3) 0.46040(14) 0.46040(14)
C10FA C -0.2818(3) 0.53960(14) 0.53960(14)
C10AA C -0.46040(14) 0.2818(3) 0.46040(14)
C10Y C -0.53960(14) 0.2818(3) 0.53960(14)
C10CA C -0.46040(14) 0.46040(14) 0.2818(3)
C10EA C -0.53960(14) 0.53960(14) 0.2818(3)
C11V C -0.0542(2) 0.2212(3) 0.01307(19)
C11B C 0.01307(19) 0.2212(3) -0.0542(2)
C11T C 0.0542(2) 0.2212(3) -0.01307(19)
C11P C -0.01307(19) 0.0542(2) 0.2212(3)
C11F C -0.0542(2) 0.01307(19) 0.2212(3)
C11R C 0.01307(19) -0.0542(2) 0.2212(3)
C11D C 0.0542(2) -0.01307(19) 0.2212(3)
C11H C 0.2212(3) 0.0542(2) -0.01307(19)
C11N C 0.2212(3) 0.01307(19) -0.0542(2)
C11J C 0.2212(3) -0.0542(2) 0.01307(19)
C11L C 0.2212(3) -0.01307(19) 0.0542(2)
C11HA C -0.2788(3) 0.4458(2) 0.51307(19)
C11JA C -0.2788(3) 0.48693(19) 0.5542(2)
C11FA C -0.2788(3) 0.5542(2) 0.48693(19)
C11LA C -0.2788(3) 0.51307(19) 0.4458(2)
C11SA C -0.4458(2) 0.2788(3) 0.51307(19)
C11Y C -0.48693(19) 0.2788(3) 0.5542(2)
C11UA C -0.5542(2) 0.2788(3) 0.48693(19)
C11AA C -0.51307(19) 0.2788(3) 0.4458(2)
C11CA C -0.4458(2) 0.51307(19) 0.2788(3)
C11OA C -0.48693(19) 0.5542(2) 0.2788(3)
C11EA C -0.5542(2) 0.48693(19) 0.2788(3)
C11QA C -0.51307(19) 0.4458(2) 0.2788(3)
H7B H 0.0228 0.2232 -0.0914
H7T H 0.0914 0.2232 -0.0228
H7V H -0.0914 0.2232 0.0228
H7P H -0.0228 0.0914 0.2232
H7R H 0.0228 -0.0914 0.2232
H7D H 0.0914 -0.0228 0.2232
H7F H -0.0914 0.0228 0.2232
H7H H 0.2232 0.0914 -0.0228
H7J H 0.2232 -0.0914 0.0228
H7L H 0.2232 -0.0228 0.0914
H7N H 0.2232 0.0228 -0.0914
H7HA H -0.2768 0.4086 0.5228
H7FA H -0.2768 0.5914 0.4772
H7LA H -0.2768 0.5228 0.4086
H7JA H -0.2768 0.4772 0.5914
H7SA H -0.4086 0.2768 0.5228
H7UA H -0.5914 0.2768 0.4772
H7AA H -0.5228 0.2768 0.4086
H7Y H -0.4772 0.2768 0.5914
H7CA H -0.4086 0.5228 0.2768
H7EA H -0.5914 0.4772 0.2768
H7QA H -0.5228 0.4086 0.2768
H7OA H -0.4772 0.5914 0.2768
loop_
_geom_bond_atom_site_label_1
_geom_bond_atom_site_label_2
_geom_bond_site_symmetry_1
_geom_bond_site_symmetry_2
Ni1 O1 1_555 1_555
O1 Ni1H 1_555 1_555
O2 Ni1 1_555 1_555
O3 Ni1 1_555 1_555
N1 C1 1_555 1_555
C1 H1 1_555 1_555
C2 C1 1_555 1_555
H2 C2 1_555 1_555
C3 C2 1_555 1_555
C6 C3 1_555 1_555
H5 C6 1_555 1_555
C7 C6 1_555 1_555
C8 O2 1_555 1_555
C9 O3 1_555 1_555
C10 C9 1_555 1_555
C11 C10 1_555 1_555
H7 C11 1_555 1_555
Ni1H O2T 1_555 1_555
Ni1HA O1AA 1_555 1_555
Ni1CA O1AA 1_555 1_555
Ni1D O1 1_555 1_555
Ni1I O1B 1_555 1_555
Ni1B O1B 1_555 1_555
Ni1F O1A 1_555 1_555
Ni1A O1A 1_555 1_555
Ni1EA N1 1_555 1_555
Ni1IA O1Y 1_555 1_555
Ni1DA O1Y_2 1_555 1_555
Ni1AA N1H 1_555 1_555
Ni1E O3N 1_555 1_555
Ni1J O3J 1_555 1_555
Ni1Y O1Y_2 1_555 1_555
Ni1AA_2 O1AA 1_555 1_555
Ni1BA O3JA 1_555 1_555
Ni1FA O3FA 1_555 1_555
Ni1G O2G 1_555 1_555
Ni1B_2 O2Q 1_555 1_555
Ni1Y_2 O3Y 1_555 1_555
Ni1IA_2 O3UA 1_555 1_555
Ni1K O2W 1_555 1_555
Ni1A_2 O2A 1_555 1_555
Ni1Z O3OA 1_555 1_555
Ni1EA_2 O3EA 1_555 1_555
Ni1Z_2 O2Z 1_555 1_555
Ni1GA O2TA 1_555 1_555
Ni1G_2 O1B 1_555 1_555
Ni1BA_2 N1V 1_555 1_555
Ni1Y_3 N1I 1_555 1_555
Ni1K_2 O1A 1_555 1_555
O1Z Ni1EA 1_555 1_555
O2T C8 1_555 1_555
O2HA Ni1HA 1_555 1_555
O2LA Ni1CA 1_555 1_555
O2P Ni1 1_555 1_555
O2D Ni1D 1_555 1_555
O2H Ni1H 1_555 1_555
O2L Ni1D 1_555 1_555
O2DA Ni1DA 1_555 1_555
O2PA Ni1Y 1_555 1_555
O2G C8G 1_555 1_555
O2Q C8G 1_555 1_555
O2SA Ni1HA 1_555 1_555
O2AA Ni1AA_2 1_555 1_555
O2W C8A 1_555 1_555
O2A C8A 1_555 1_555
O2CA Ni1CA 1_555 1_555
O2QA Ni1AA_2 1_555 1_555
O2Z C8Z 1_555 1_555
O2TA C8Z 1_555 1_555
O2V Ni1I 1_555 1_555
O2B Ni1B 1_555 1_555
O2I Ni1I 1_555 1_555
O2O Ni1G_2 1_555 1_555
O2Q_2 Ni1B 1_555 1_555
O2F Ni1F 1_555 1_555
O2M Ni1F 1_555 1_555
O2R Ni1A 1_555 1_555
O2A_2 Ni1A 1_555 1_555
O2EA Ni1EA 1_555 1_555
O2MA Ni1EA 1_555 1_555
O2UA Ni1IA 1_555 1_555
O2IA Ni1IA 1_555 1_555
O2KA Ni1DA 1_555 1_555
O3T C9 1_555 1_555
O3V Ni1I 1_555 1_555
O3B Ni1B 1_555 1_555
O3P Ni1 1_555 1_555
O3D Ni1D 1_555 1_555
O3F Ni1F 1_555 1_555
O3R Ni1A 1_555 1_555
O3H Ni1H 1_555 1_555
O3L Ni1D 1_555 1_555
O3N C9J 1_555 1_555
O3J C9J 1_555 1_555
O3HA Ni1HA 1_555 1_555
O3LA Ni1CA 1_555 1_555
O3JA C9FA 1_555 1_555
O3FA C9FA 1_555 1_555
O3SA Ni1HA 1_555 1_555
O3AA Ni1AA_2 1_555 1_555
O3Y C9Y 1_555 1_555
O3UA C9Y 1_555 1_555
O3CA Ni1CA 1_555 1_555
O3QA Ni1AA_2 1_555 1_555
O3OA C9EA 1_555 1_555
O3EA C9EA 1_555 1_555
O3I Ni1I 1_555 1_555
O3Q Ni1B 1_555 1_555
O3M Ni1F 1_555 1_555
O3A Ni1A 1_555 1_555
O3EA_2 Ni1EA 1_555 1_555
O3MA Ni1EA 1_555 1_555
O3UA_2 Ni1IA 1_555 1_555
O3IA Ni1IA 1_555 1_555
O3DA Ni1DA 1_555 1_555
O3KA Ni1DA 1_555 1_555
N1T N1 1_555 1_555
N1HA Ni1 1_555 1_555
N1LA Ni1 1_555 1_555
N1P Ni1IA 1_555 1_555
N1D Ni1IA 1_555 1_555
N1H N1L 1_555 1_555
N1L Ni1AA 1_555 1_555
N1DA Ni1H 1_555 1_555
N1PA Ni1H 1_555 1_555
N1G Ni1HA 1_555 1_555
N1Q Ni1HA 1_555 1_555
N1SA Ni1F 1_555 1_555
N1AA Ni1F 1_555 1_555
N1W Ni1CA 1_555 1_555
N1A Ni1CA 1_555 1_555
N1CA Ni1I 1_555 1_555
N1QA Ni1I 1_555 1_555
N1Z Ni1D 1_555 1_555
N1TA Ni1D 1_555 1_555
N1V N1B 1_555 1_555
N1B Ni1BA_2 1_555 1_555
N1I N1O 1_555 1_555
N1O Ni1Y_3 1_555 1_555
N1IA Ni1B 1_555 1_555
N1KA Ni1B 1_555 1_555
N1MA Ni1A 1_555 1_555
N1GA Ni1A 1_555 1_555
N1C Ni1DA 1_555 1_555
N1U Ni1DA 1_555 1_555
C1T N1T 1_555 1_555
C1HA N1HA 1_555 1_555
C1LA N1LA 1_555 1_555
C1P N1P 1_555 1_555
C1D N1D 1_555 1_555
C1H N1H 1_555 1_555
C1L N1L 1_555 1_555
C1DA N1DA 1_555 1_555
C1PA N1PA 1_555 1_555
C1G N1G 1_555 1_555
C1Q N1Q 1_555 1_555
C1SA N1SA 1_555 1_555
C1AA N1AA 1_555 1_555
C1W N1W 1_555 1_555
C1A N1A 1_555 1_555
C1CA N1CA 1_555 1_555
C1QA N1QA 1_555 1_555
C1Z N1Z 1_555 1_555
C1TA N1TA 1_555 1_555
C1V N1V 1_555 1_555
C1B N1B 1_555 1_555
C1I N1I 1_555 1_555
C1O N1O 1_555 1_555
H1T C1T 1_555 1_555
H1HA C1HA 1_555 1_555
H1LA C1LA 1_555 1_555
H1P C1P 1_555 1_555
H1D C1D 1_555 1_555
H1H C1H 1_555 1_555
H1L C1L 1_555 1_555
H1DA C1DA 1_555 1_555
H1PA C1PA 1_555 1_555
H1G C1G 1_555 1_555
H1Q C1Q 1_555 1_555
H1SA C1SA 1_555 1_555
H1AA C1AA 1_555 1_555
H1W C1W 1_555 1_555
H1A C1A 1_555 1_555
H1CA C1CA 1_555 1_555
H1QA C1QA 1_555 1_555
H1Z C1Z 1_555 1_555
H1TA C1TA 1_555 1_555
H1V C1V 1_555 1_555
H1B C1B 1_555 1_555
H1I C1I 1_555 1_555
H1O C1O 1_555 1_555
C2T C1T 1_555 1_555
C2HA C1HA 1_555 1_555
C2LA C1LA 1_555 1_555
C2P C1P 1_555 1_555
C2D C1D 1_555 1_555
C2H C1H 1_555 1_555
C2L C1L 1_555 1_555
C2DA C1DA 1_555 1_555
C2PA C1PA 1_555 1_555
C2G C1G 1_555 1_555
C2Q C1Q 1_555 1_555
C2SA C1SA 1_555 1_555
C2AA C1AA 1_555 1_555
C2W C1W 1_555 1_555
C2A C1A 1_555 1_555
C2CA C1CA 1_555 1_555
C2QA C1QA 1_555 1_555
C2Z C1Z 1_555 1_555
C2TA C1TA 1_555 1_555
C2V C1V 1_555 1_555
C2B C1B 1_555 1_555
C2I C1I 1_555 1_555
C2O C1O 1_555 1_555
H2T C2T 1_555 1_555
H2HA C2HA 1_555 1_555
H2LA C2LA 1_555 1_555
H2P C2P 1_555 1_555
H2D C2D 1_555 1_555
H2H C2H 1_555 1_555
H2L C2L 1_555 1_555
H2DA C2DA 1_555 1_555
H2PA C2PA 1_555 1_555
H2G C2G 1_555 1_555
H2Q C2Q 1_555 1_555
H2SA C2SA 1_555 1_555
H2AA C2AA 1_555 1_555
H2W C2W 1_555 1_555
H2A C2A 1_555 1_555
H2CA C2CA 1_555 1_555
H2QA C2QA 1_555 1_555
H2Z C2Z 1_555 1_555
H2TA C2TA 1_555 1_555
H2V C2V 1_555 1_555
H2B C2B 1_555 1_555
H2I C2I 1_555 1_555
H2O C2O 1_555 1_555
C3T C3 1_555 1_555
C3HA C2HA 1_555 1_555
C3LA C2LA 1_555 1_555
C3P C2P 1_555 1_555
C3D C2D 1_555 1_555
C3H C2H 1_555 1_555
C3L C2L 1_555 1_555
C3DA C2DA 1_555 1_555
C3PA C2PA 1_555 1_555
C3G C2G 1_555 1_555
C3Q C2Q 1_555 1_555
C3SA C2SA 1_555 1_555
C3AA C2AA 1_555 1_555
C3W C2W 1_555 1_555
C3A C2A 1_555 1_555
C3CA C2CA 1_555 1_555
C3QA C2QA 1_555 1_555
C3Z C2Z 1_555 1_555
C3TA C2TA 1_555 1_555
C3V C2V 1_555 1_555
C3B C2B 1_555 1_555
C3I C2I 1_555 1_555
C3O C2O 1_555 1_555
C6T C6 1_555 1_555
C6HA C3HA 1_555 1_555
C6LA C3LA 1_555 1_555
C6P C3P 1_555 1_555
C6D C3D 1_555 1_555
C6H C3H 1_555 1_555
C6L C3L 1_555 1_555
C6DA C3DA 1_555 1_555
C6PA C3PA 1_555 1_555
C6G C3G 1_555 1_555
C6Q C3Q 1_555 1_555
C6SA C3SA 1_555 1_555
C6AA C3AA 1_555 1_555
C6W C3W 1_555 1_555
C6A C3A 1_555 1_555
C6CA C3CA 1_555 1_555
C6QA C3QA 1_555 1_555
C6Z C3Z 1_555 1_555
C6TA C3TA 1_555 1_555
C6V C3V 1_555 1_555
C6B C3B 1_555 1_555
C6I C3I 1_555 1_555
C6O C3O 1_555 1_555
H5T C6T 1_555 1_555
H5HA C6HA 1_555 1_555
H5LA C6LA 1_555 1_555
H5P C6P 1_555 1_555
H5D C6D 1_555 1_555
H5H C6H 1_555 1_555
H5L C6L 1_555 1_555
H5DA C6DA 1_555 1_555
H5PA C6PA 1_555 1_555
H5G C6G 1_555 1_555
H5Q C6Q 1_555 1_555
H5SA C6SA 1_555 1_555
H5AA C6AA 1_555 1_555
H5W C6W 1_555 1_555
H5A C6A 1_555 1_555
H5CA C6CA 1_555 1_555
H5QA C6QA 1_555 1_555
H5Z C6Z 1_555 1_555
H5TA C6TA 1_555 1_555
H5V C6V 1_555 1_555
H5B C6B 1_555 1_555
H5I C6I 1_555 1_555
H5O C6O 1_555 1_555
C7T C6 1_555 1_555
C7HA C6HA 1_555 1_555
C7LA C6HA 1_555 1_555
C7P C6P 1_555 1_555
C7D C6P 1_555 1_555
C7H C6H 1_555 1_555
C7L C6H 1_555 1_555
C7DA C6DA 1_555 1_555
C7PA C6DA 1_555 1_555
C7G C6G 1_555 1_555
C7Q C6G 1_555 1_555
C7SA C6SA 1_555 1_555
C7AA C6SA 1_555 1_555
C7W C6W 1_555 1_555
C7A C6W 1_555 1_555
C7CA C6CA 1_555 1_555
C7QA C6CA 1_555 1_555
C7Z C6Z 1_555 1_555
C7TA C6Z 1_555 1_555
C7V C6V 1_555 1_555
C7B C6V 1_555 1_555
C7I C6I 1_555 1_555
C7O C6I 1_555 1_555
C8HA O2HA 1_555 1_555
C8D O2P 1_555 1_555
C8H O2H 1_555 1_555
C8DA O2DA 1_555 1_555
C8G C7G 1_555 1_555
C8AA O2SA 1_555 1_555
C8A C7W 1_555 1_555
C8CA O2CA 1_555 1_555
C8Z C7Z 1_555 1_555
C8B O2V 1_555 1_555
C8I O2I 1_555 1_555
C9B O3V 1_555 1_555
C9D O3P 1_555 1_555
C9F O3F 1_555 1_555
C9H O3H 1_555 1_555
C9J C10J 1_555 1_555
C9HA O3HA 1_555 1_555
C9FA C10FA 1_555 1_555
C9AA O3SA 1_555 1_555
C9Y C10Y 1_555 1_555
C9CA O3CA 1_555 1_555
C9EA C10EA 1_555 1_555
C10B C9B 1_555 1_555
C10D C9D 1_555 1_555
C10F C9F 1_555 1_555
C10H C9H 1_555 1_555
C10J C11N 1_555 1_555
C10HA C9HA 1_555 1_555
C10FA C11JA 1_555 1_555
C10AA C9AA 1_555 1_555
C10Y C11Y 1_555 1_555
C10CA C9CA 1_555 1_555
C10EA C11OA 1_555 1_555
C11V C11 1_555 1_555
C11B C10B 1_555 1_555
C11T C10 1_555 1_555
C11P C10D 1_555 1_555
C11F C10F 1_555 1_555
C11R C10F 1_555 1_555
C11D C10D 1_555 1_555
C11H C10H 1_555 1_555
C11N C11H 1_555 1_555
C11J C10J 1_555 1_555
C11L C10H 1_555 1_555
C11HA C10HA 1_555 1_555
C11JA C11HA 1_555 1_555
C11FA C10FA 1_555 1_555
C11LA C10HA 1_555 1_555
C11SA C10AA 1_555 1_555
C11Y C11SA 1_555 1_555
C11UA C10Y 1_555 1_555
C11AA C10AA 1_555 1_555
C11CA C10CA 1_555 1_555
C11OA C11CA 1_555 1_555
C11EA C10EA 1_555 1_555
C11QA C10CA 1_555 1_555
H7B C11B 1_555 1_555
H7T C11T 1_555 1_555
H7V C11V 1_555 1_555
H7P C11P 1_555 1_555
H7R C11R 1_555 1_555
H7D C11D 1_555 1_555
H7F C11F 1_555 1_555
H7H C11H 1_555 1_555
H7J C11J 1_555 1_555
H7L C11L 1_555 1_555
H7N C11N 1_555 1_555
H7HA C11HA 1_555 1_555
H7FA C11FA 1_555 1_555
H7LA C11LA 1_555 1_555
H7JA C11JA 1_555 1_555
H7SA C11SA 1_555 1_555
H7UA C11UA 1_555 1_555
H7AA C11AA 1_555 1_555
H7Y C11Y 1_555 1_555
H7CA C11CA 1_555 1_555
H7EA C11EA 1_555 1_555
H7QA C11QA 1_555 1_555
H7OA C11OA 1_555 1_555
C7 C8 1_555 1_555
C7 C6T 1_555 1_555
C7 C7T 1_555 1_555
C8 C7T 1_555 1_555
Ni1H O3T 1_555 1_555
Ni1EA N1T 1_555 1_555
O2LA C8HA 1_555 1_555
O2D C8D 1_555 1_555
O2L C8H 1_555 1_555
O2PA C8DA 1_555 1_555
O2AA C8AA 1_555 1_555
O2QA C8CA 1_555 1_555
O2B C8B 1_555 1_555
O2O C8I 1_555 1_555
O3B C9B 1_555 1_555
O3D C9D 1_555 1_555
O3R C9F 1_555 1_555
O3L C9H 1_555 1_555
O3LA C9HA 1_555 1_555
O3AA C9AA 1_555 1_555
O3QA C9CA 1_555 1_555
N1HA N1LA 1_555 1_555
N1P N1D 1_555 1_555
N1DA N1PA 1_555 1_555
N1G N1Q 1_555 1_555
N1SA N1AA 1_555 1_555
N1W N1A 1_555 1_555
N1CA N1QA 1_555 1_555
N1Z N1TA 1_555 1_555
N1IA N1KA 1_555 1_555
N1MA N1GA 1_555 1_555
N1C N1U 1_555 1_555
C2T C3T 1_555 1_555
C3T C6T 1_555 1_555
C3HA C3LA 1_555 1_555
C3P C3D 1_555 1_555
C3H C3L 1_555 1_555
C3DA C3PA 1_555 1_555
C3G C3Q 1_555 1_555
C3SA C3AA 1_555 1_555
C3W C3A 1_555 1_555
C3CA C3QA 1_555 1_555
C3Z C3TA 1_555 1_555
C3V C3B 1_555 1_555
C3I C3O 1_555 1_555
C6T C7T 1_555 1_555
C6HA C6LA 1_555 1_555
C6LA C7HA 1_555 1_555
C6LA C7LA 1_555 1_555
C6P C6D 1_555 1_555
C6D C7P 1_555 1_555
C6D C7D 1_555 1_555
C6H C6L 1_555 1_555
C6L C7H 1_555 1_555
C6L C7L 1_555 1_555
C6DA C6PA 1_555 1_555
C6PA C7DA 1_555 1_555
C6PA C7PA 1_555 1_555
C6G C6Q 1_555 1_555
C6Q C7G 1_555 1_555
C6Q C7Q 1_555 1_555
C6SA C6AA 1_555 1_555
C6AA C7SA 1_555 1_555
C6AA C7AA 1_555 1_555
C6W C6A 1_555 1_555
C6A C7W 1_555 1_555
C6A C7A 1_555 1_555
C6CA C6QA 1_555 1_555
C6QA C7CA 1_555 1_555
C6QA C7QA 1_555 1_555
C6Z C6TA 1_555 1_555
C6TA C7Z 1_555 1_555
C6TA C7TA 1_555 1_555
C6V C6B 1_555 1_555
C6B C7V 1_555 1_555
C6B C7B 1_555 1_555
C6I C6O 1_555 1_555
C6O C7I 1_555 1_555
C6O C7O 1_555 1_555
C7HA C7LA 1_555 1_555
C7HA C8HA 1_555 1_555
C7LA C8HA 1_555 1_555
C7P C7D 1_555 1_555
C7P C8D 1_555 1_555
C7D C8D 1_555 1_555
C7H C7L 1_555 1_555
C7H C8H 1_555 1_555
C7L C8H 1_555 1_555
C7DA C7PA 1_555 1_555
C7DA C8DA 1_555 1_555
C7PA C8DA 1_555 1_555
C7G C7Q 1_555 1_555
C7Q C8G 1_555 1_555
C7SA C7AA 1_555 1_555
C7SA C8AA 1_555 1_555
C7AA C8AA 1_555 1_555
C7W C7A 1_555 1_555
C7A C8A 1_555 1_555
C7CA C7QA 1_555 1_555
C7CA C8CA 1_555 1_555
C7QA C8CA 1_555 1_555
C7Z C7TA 1_555 1_555
C7TA C8Z 1_555 1_555
C7V C7B 1_555 1_555
C7V C8B 1_555 1_555
C7B C8B 1_555 1_555
C7I C7O 1_555 1_555
C7I C8I 1_555 1_555
C7O C8I 1_555 1_555
C10B C11V 1_555 1_555
C11B C11T 1_555 1_555
C11P C11F 1_555 1_555
C11R C11D 1_555 1_555
C11J C11L 1_555 1_555
C11FA C11LA 1_555 1_555
C11UA C11AA 1_555 1_555
C11EA C11QA 1_555 1_555

#END
