
#######################################################################
#
#                 Cambridge Crystallographic Data Centre
#                                CCDC 
#
#######################################################################
#
# If this CIF has been generated from an entry in the Cambridge 
# Structural Database, then it will include bibliographic, chemical, 
# crystal, experimental, refinement or atomic coordinate data resulting 
# from the CCDC's data processing and validation procedures.
#
#######################################################################

data_KARLOG
_chemical_formula_moiety         'C192 H120 N17 Ni27 O72'
_symmetry_cell_setting           cubic
_symmetry_space_group_name_H-M   'I -4 3 m'
_symmetry_Int_Tables_number      217
_space_group_name_Hall           'I -4 2 3'
loop_
_symmetry_equiv_pos_site_id
_symmetry_equiv_pos_as_xyz
1 x,y,z
2 -x,-y,z
3 -x,y,-z
4 x,-y,-z
5 z,x,y
6 z,-x,-y
7 -z,-x,y
8 -z,x,-y
9 y,z,x
10 -y,z,-x
11 y,-z,-x
12 -y,-z,x
13 y,x,z
14 -y,-x,z
15 y,-x,-z
16 -y,x,-z
17 x,z,y
18 -x,z,-y
19 -x,-z,y
20 x,-z,-y
21 z,y,x
22 z,-y,-x
23 -z,y,-x
24 -z,-y,x
25 1/2+x,1/2+y,1/2+z
26 1/2-x,1/2-y,1/2+z
27 1/2-x,1/2+y,1/2-z
28 1/2+x,1/2-y,1/2-z
29 1/2+z,1/2+x,1/2+y
30 1/2+z,1/2-x,1/2-y
31 1/2-z,1/2-x,1/2+y
32 1/2-z,1/2+x,1/2-y
33 1/2+y,1/2+z,1/2+x
34 1/2-y,1/2+z,1/2-x
35 1/2+y,1/2-z,1/2-x
36 1/2-y,1/2-z,1/2+x
37 1/2+y,1/2+x,1/2+z
38 1/2-y,1/2-x,1/2+z
39 1/2+y,1/2-x,1/2-z
40 1/2-y,1/2+x,1/2-z
41 1/2+x,1/2+z,1/2+y
42 1/2-x,1/2+z,1/2-y
43 1/2-x,1/2-z,1/2+y
44 1/2+x,1/2-z,1/2-y
45 1/2+z,1/2+y,1/2+x
46 1/2+z,1/2-y,1/2-x
47 1/2-z,1/2+y,1/2-x
48 1/2-z,1/2-y,1/2+x
_cell_length_a                   27.2280(10)
_cell_length_b                   27.2280(10)
_cell_length_c                   27.2280(10)
_cell_angle_alpha                90
_cell_angle_beta                 90
_cell_angle_gamma                90
_cell_volume                     20185.9
loop_
_atom_site_label
_atom_site_type_symbol
_atom_site_fract_x
_atom_site_fract_y
_atom_site_fract_z
Ni1 Ni 0.096066(6) -0.185505(6) -0.185505(7)
O1 O 0.15090(5) -0.15090(5) -0.15090(5)
O2 O 0.06083(4) -0.19359(5) -0.11860(4)
O3 O 0.13132(12) -0.25036(14) -0.19063(13)
N1 N 0.28188(5) -0.53482(4) -0.28188(4)
C1 C 0.30083(12) -0.51476(11) -0.24033(10)
H1 H 0.3293 -0.5289 -0.2260
C2 C 0.27982(12) -0.47481(11) -0.21885(12)
H2 H 0.2933 -0.4619 -0.1894
C3 C 0.23940(6) -0.45305(8) -0.23940(6)
C4 C 0.17931(6) -0.32008(7) -0.17931(6)
C7 C 0.21710(8) -0.40802(9) -0.21710(8)
C8 C 0.2197(2) -0.39649(16) -0.16804(16)
H5 H 0.2334 -0.4195 -0.1457
C9 C 0.20283(18) -0.35253(14) -0.15087(14)
H6 H 0.2080 -0.3446 -0.1173
C10 C 0.16061(5) -0.27167(7) -0.16061(5)
C11 C 0.07572(5) -0.19523(8) -0.07572(5)
C12 C 0.03638(5) -0.19897(7) -0.03638(5)
C13 C -0.01098(8) -0.19892(9) -0.04752(8)
H7 H -0.0205 -0.1989 -0.0811
Ni1I Ni 0.185505(6) -0.185505(7) -0.096066(6)
Ni1H Ni -0.185505(6) -0.185505(7) 0.096066(6)
Ni1B Ni -0.096066(6) -0.185505(6) 0.185505(7)
Ni1F Ni 0.185505(7) -0.096066(6) -0.185505(6)
Ni1D Ni -0.185505(7) 0.096066(6) -0.185505(6)
Ni1A Ni -0.096066(6) 0.185505(6) -0.185505(7)
Ni1IA Ni -0.314495(6) -0.314495(7) -0.403934(6)
Ni1EA Ni -0.314495(7) -0.403934(6) -0.314495(6)
Ni1CA Ni 0.314495(7) -0.596066(6) -0.314495(6)
Ni1HA Ni 0.314495(6) -0.314495(7) -0.596066(6)
Ni1G Ni 0.185505(7) 0.096066(6) 0.185505(6)
Ni1K Ni 0.185505(6) 0.185505(7) 0.096066(6)
Ni1AA Ni 0.596066(6) -0.314495(6) -0.314495(7)
Ni1BA Ni 0.314495(7) -0.403934(6) 0.314495(6)
Ni1Y Ni 0.403934(6) -0.314495(6) 0.314495(7)
Ni1E Ni -0.185505(7) -0.096066(6) 0.185505(6)
Ni1DA Ni -0.314495(7) -0.596066(6) 0.314495(6)
Ni1AA_2 Ni -0.403934(6) -0.314495(6) -0.314495(7)
Ni1J Ni -0.185505(6) 0.185505(7) -0.096066(6)
Ni1Y_2 Ni -0.596066(6) -0.314495(6) 0.314495(7)
Ni1HA_2 Ni 0.314495(6) -0.314495(7) 0.403934(6)
Ni1C Ni 0.096066(6) 0.185505(6) 0.185505(7)
Ni1IA_2 Ni -0.314495(6) -0.314495(7) 0.596066(6)
Ni1Z Ni 0.403934(6) 0.314495(6) -0.314495(7)
Ni1FA Ni 0.314495(6) 0.314495(7) -0.403934(6)
Ni1GA Ni -0.314495(6) 0.314495(7) -0.596066(6)
O1B O -0.15090(5) -0.15090(5) 0.15090(5)
O1A O -0.15090(5) 0.15090(5) -0.15090(5)
O1AA O -0.34910(5) -0.34910(5) -0.34910(5)
O1Z O 0.34910(5) -0.65090(5) -0.34910(5)
O1Y O 0.34910(5) -0.34910(5) -0.65090(5)
O1C O 0.15090(5) 0.15090(5) 0.15090(5)
O2V O 0.11860(4) -0.19359(5) -0.06083(4)
O2T O -0.11860(4) -0.19359(5) 0.06083(4)
O2B O -0.06083(4) -0.19359(5) 0.11860(4)
O2P O 0.06083(4) -0.11860(4) -0.19359(5)
O2F O 0.11860(4) -0.06083(4) -0.19359(5)
O2D O -0.11860(4) 0.06083(4) -0.19359(5)
O2R O -0.06083(4) 0.11860(4) -0.19359(5)
O2I O 0.19359(5) -0.11860(4) -0.06083(4)
O2M O 0.19359(5) -0.06083(4) -0.11860(4)
O2O O 0.19359(5) 0.06083(4) 0.11860(4)
O2K O 0.19359(5) 0.11860(4) 0.06083(4)
O2H O -0.19359(5) -0.11860(4) 0.06083(4)
O2N O -0.19359(5) -0.06083(4) 0.11860(4)
O2L O -0.19359(5) 0.06083(4) -0.11860(4)
O2J O -0.19359(5) 0.11860(4) -0.06083(4)
O2Q O -0.06083(4) -0.11860(4) 0.19359(5)
O2E O -0.11860(4) -0.06083(4) 0.19359(5)
O2G O 0.11860(4) 0.06083(4) 0.19359(5)
O2S O 0.06083(4) 0.11860(4) 0.19359(5)
O2A O -0.06083(4) 0.19359(5) -0.11860(4)
O2U O -0.11860(4) 0.19359(5) -0.06083(4)
O2W O 0.11860(4) 0.19359(5) 0.06083(4)
O2C O 0.06083(4) 0.19359(5) 0.11860(4)
O2IA O -0.30641(5) -0.38140(4) -0.43917(4)
O2UA O -0.38140(4) -0.30641(5) -0.43917(4)
O2MA O -0.30641(5) -0.43917(4) -0.38140(4)
O2EA O -0.38140(4) -0.43917(4) -0.30641(5)
O2CA O 0.38140(4) -0.56083(4) -0.30641(5)
O2LA O 0.30641(5) -0.56083(4) -0.38140(4)
O2SA O 0.38140(4) -0.30641(5) -0.56083(4)
O2HA O 0.30641(5) -0.38140(4) -0.56083(4)
O3V O 0.19063(13) -0.25036(14) -0.13132(12)
O3IA O -0.24964(14) -0.30937(13) -0.36868(12)
O3MA O -0.24964(14) -0.36868(12) -0.30937(13)
O3P O 0.13132(12) -0.19063(13) -0.25036(14)
O3F O 0.19063(13) -0.13132(12) -0.25036(14)
O3I O 0.25036(14) -0.19063(13) -0.13132(12)
O3M O 0.25036(14) -0.13132(12) -0.19063(13)
O3BA O 0.30937(13) -0.36868(12) 0.24964(14)
O3PA O 0.36868(12) -0.30937(13) 0.24964(14)
O3T O -0.19063(13) -0.25036(14) 0.13132(12)
O3B O -0.13132(12) -0.25036(14) 0.19063(13)
O3QA O -0.36868(12) -0.30937(13) -0.24964(14)
O3EA O -0.30937(13) -0.36868(12) -0.24964(14)
O3H O -0.25036(14) -0.19063(13) 0.13132(12)
O3N O -0.25036(14) -0.13132(12) 0.19063(13)
O3HA O 0.24964(14) -0.30937(13) 0.36868(12)
O3JA O 0.24964(14) -0.36868(12) 0.30937(13)
O3Q O -0.13132(12) -0.19063(13) 0.25036(14)
O3E O -0.19063(13) -0.13132(12) 0.25036(14)
O3Z O 0.36868(12) 0.24964(14) -0.30937(13)
O3RA O 0.30937(13) 0.24964(14) -0.36868(12)
O3D O -0.19063(13) 0.13132(12) -0.25036(14)
O3R O -0.13132(12) 0.19063(13) -0.25036(14)
O3L O -0.25036(14) 0.13132(12) -0.19063(13)
O3A O -0.13132(12) 0.25036(14) -0.19063(13)
O3UA O -0.30937(13) -0.24964(14) -0.36868(12)
O3CA O 0.30937(13) -0.63132(12) -0.24964(14)
O3LA O 0.24964(14) -0.63132(12) -0.30937(13)
O3SA O 0.30937(13) -0.24964(14) -0.63132(12)
O3HA_2 O 0.24964(14) -0.30937(13) -0.63132(12)
O3O O 0.25036(14) 0.13132(12) 0.19063(13)
O3G O 0.19063(13) 0.13132(12) 0.25036(14)
N1IA N 0.03482(4) -0.21812(4) -0.21812(5)
N1F N 0.28188(4) -0.28188(5) -0.53482(4)
N1I N 0.53482(4) -0.28188(4) -0.28188(5)
N1BA N 0.21812(4) -0.21812(5) -0.03482(4)
N1B N -0.28188(5) -0.53482(4) 0.28188(4)
N1EA N -0.21812(4) -0.21812(5) 0.03482(4)
N1H N -0.53482(4) -0.28188(4) 0.28188(5)
N1HA N -0.03482(4) -0.21812(4) 0.21812(5)
N1E N -0.28188(4) -0.28188(5) 0.53482(4)
N1Z N 0.21812(5) -0.03482(4) -0.21812(4)
N1D N -0.28188(4) 0.28188(5) -0.53482(4)
N1AA N -0.21812(5) 0.03482(4) -0.21812(4)
N1FA N -0.03482(4) 0.21812(4) -0.21812(5)
N1E_2 N -0.28188(4) -0.28188(5) -0.46518(4)
N1A N -0.28188(5) -0.46518(4) -0.28188(4)
N1Y N 0.21812(5) 0.03482(4) 0.21812(4)
C1V C 0.24033(10) -0.51476(11) -0.30083(12)
C1IA C 0.01476(11) -0.25967(10) -0.19917(12)
C1MA C 0.01476(11) -0.19917(12) -0.25967(10)
C1P C 0.30083(12) -0.24033(10) -0.51476(11)
C1F C 0.24033(10) -0.30083(12) -0.51476(11)
C1I C 0.51476(11) -0.24033(10) -0.30083(12)
C1M C 0.51476(11) -0.30083(12) -0.24033(10)
C1BA C 0.25967(10) -0.19917(12) -0.01476(11)
C1PA C 0.19917(12) -0.25967(10) -0.01476(11)
C1T C -0.24033(10) -0.51476(11) 0.30083(12)
C1B C -0.30083(12) -0.51476(11) 0.24033(10)
C1QA C -0.19917(12) -0.25967(10) 0.01476(11)
C1EA C -0.25967(10) -0.19917(12) 0.01476(11)
C1H C -0.51476(11) -0.24033(10) 0.30083(12)
C1N C -0.51476(11) -0.30083(12) 0.24033(10)
C1HA C -0.01476(11) -0.25967(10) 0.19917(12)
C1JA C -0.01476(11) -0.19917(12) 0.25967(10)
C1Q C -0.30083(12) -0.24033(10) 0.51476(11)
C1E C -0.24033(10) -0.30083(12) 0.51476(11)
C1Z C 0.19917(12) -0.01476(11) -0.25967(10)
C1RA C 0.25967(10) -0.01476(11) -0.19917(12)
C1D C -0.24033(10) 0.30083(12) -0.51476(11)
C1R C -0.30083(12) 0.24033(10) -0.51476(11)
H1V H 0.2260 -0.5289 -0.3293
H1IA H 0.0289 -0.2740 -0.1707
H1MA H 0.0289 -0.1707 -0.2740
H1P H 0.3293 -0.2260 -0.5289
H1F H 0.2260 -0.3293 -0.5289
H1I H 0.5289 -0.2260 -0.3293
H1M H 0.5289 -0.3293 -0.2260
H1BA H 0.2740 -0.1707 -0.0289
H1PA H 0.1707 -0.2740 -0.0289
H1T H -0.2260 -0.5289 0.3293
H1B H -0.3293 -0.5289 0.2260
H1QA H -0.1707 -0.2740 0.0289
H1EA H -0.2740 -0.1707 0.0289
H1H H -0.5289 -0.2260 0.3293
H1N H -0.5289 -0.3293 0.2260
H1HA H -0.0289 -0.2740 0.1707
H1JA H -0.0289 -0.1707 0.2740
H1Q H -0.3293 -0.2260 0.5289
H1E H -0.2260 -0.3293 0.5289
H1Z H 0.1707 -0.0289 -0.2740
H1RA H 0.2740 -0.0289 -0.1707
H1D H -0.2260 0.3293 -0.5289
H1R H -0.3293 0.2260 -0.5289
C2V C 0.21885(12) -0.47481(11) -0.27982(12)
C2IA C -0.02519(11) -0.28115(12) -0.22018(12)
C2MA C -0.02519(11) -0.22018(12) -0.28115(12)
C2P C 0.27982(12) -0.21885(12) -0.47481(11)
C2F C 0.21885(12) -0.27982(12) -0.47481(11)
C2I C 0.47481(11) -0.21885(12) -0.27982(12)
C2M C 0.47481(11) -0.27982(12) -0.21885(12)
C2BA C 0.28115(12) -0.22018(12) 0.02519(11)
C2PA C 0.22018(12) -0.28115(12) 0.02519(11)
C2T C -0.21885(12) -0.47481(11) 0.27982(12)
C2B C -0.27982(12) -0.47481(11) 0.21885(12)
C2QA C -0.22018(12) -0.28115(12) -0.02519(11)
C2EA C -0.28115(12) -0.22018(12) -0.02519(11)
C2H C -0.47481(11) -0.21885(12) 0.27982(12)
C2N C -0.47481(11) -0.27982(12) 0.21885(12)
C2HA C 0.02519(11) -0.28115(12) 0.22018(12)
C2JA C 0.02519(11) -0.22018(12) 0.28115(12)
C2Q C -0.27982(12) -0.21885(12) 0.47481(11)
C2E C -0.21885(12) -0.27982(12) 0.47481(11)
C2Z C 0.22018(12) 0.02519(11) -0.28115(12)
C2RA C 0.28115(12) 0.02519(11) -0.22018(12)
C2D C -0.21885(12) 0.27982(12) -0.47481(11)
C2R C -0.27982(12) 0.21885(12) -0.47481(11)
H2V H 0.1894 -0.4619 -0.2933
H2IA H -0.0381 -0.3106 -0.2067
H2MA H -0.0381 -0.2067 -0.3106
H2P H 0.2933 -0.1894 -0.4619
H2F H 0.1894 -0.2933 -0.4619
H2I H 0.4619 -0.1894 -0.2933
H2M H 0.4619 -0.2933 -0.1894
H2BA H 0.3106 -0.2067 0.0381
H2PA H 0.2067 -0.3106 0.0381
H2T H -0.1894 -0.4619 0.2933
H2B H -0.2933 -0.4619 0.1894
H2QA H -0.2067 -0.3106 -0.0381
H2EA H -0.3106 -0.2067 -0.0381
H2H H -0.4619 -0.1894 0.2933
H2N H -0.4619 -0.2933 0.1894
H2HA H 0.0381 -0.3106 0.2067
H2JA H 0.0381 -0.2067 0.3106
H2Q H -0.2933 -0.1894 0.4619
H2E H -0.1894 -0.2933 0.4619
H2Z H 0.2067 0.0381 -0.3106
H2RA H 0.3106 0.0381 -0.2067
H2D H -0.1894 0.2933 -0.4619
H2R H -0.2933 0.1894 -0.4619
C3IA C -0.04695(8) -0.26060(6) -0.26060(6)
C3F C 0.23940(6) -0.23940(6) -0.45305(8)
C3I C 0.45305(8) -0.23940(6) -0.23940(6)
C3BA C 0.26060(6) -0.26060(6) 0.04695(8)
C3B C -0.23940(6) -0.45305(8) 0.23940(6)
C3EA C -0.26060(6) -0.26060(6) -0.04695(8)
C3H C -0.45305(8) -0.23940(6) 0.23940(6)
C3HA C 0.04695(8) -0.26060(6) 0.26060(6)
C3E C -0.23940(6) -0.23940(6) 0.45305(8)
C3Z C 0.26060(6) 0.04695(8) -0.26060(6)
C3D C -0.23940(6) 0.23940(6) -0.45305(8)
C4IA C -0.17992(7) -0.32069(6) -0.32069(6)
C4F C 0.17931(6) -0.17931(6) -0.32008(7)
C4I C 0.32008(7) -0.17931(6) -0.17931(6)
C4BA C 0.32069(6) -0.32069(6) 0.17992(7)
C4B C -0.17931(6) -0.32008(7) 0.17931(6)
C4EA C -0.32069(6) -0.32069(6) -0.17992(7)
C4H C -0.32008(7) -0.17931(6) 0.17931(6)
C4HA C 0.17992(7) -0.32069(6) 0.32069(6)
C4E C -0.17931(6) -0.17931(6) 0.32008(7)
C4Z C 0.32069(6) 0.17992(7) -0.32069(6)
C4D C -0.17931(6) 0.17931(6) -0.32008(7)
C7IA C -0.09198(9) -0.28290(8) -0.28290(8)
C7F C 0.21710(8) -0.21710(8) -0.40802(9)
C7I C 0.40802(9) -0.21710(8) -0.21710(8)
C7BA C 0.28290(8) -0.28290(8) 0.09198(9)
C7B C -0.21710(8) -0.40802(9) 0.21710(8)
C7EA C -0.28290(8) -0.28290(8) -0.09198(9)
C7H C -0.40802(9) -0.21710(8) 0.21710(8)
C7HA C 0.09198(9) -0.28290(8) 0.28290(8)
C7E C -0.21710(8) -0.21710(8) 0.40802(9)
C7Z C 0.28290(8) 0.09198(9) -0.28290(8)
C7D C -0.21710(8) 0.21710(8) -0.40802(9)
C8V C 0.16804(16) -0.39649(16) -0.2197(2)
C8IA C -0.10351(16) -0.33196(16) -0.2803(2)
C8MA C -0.10351(16) -0.2803(2) -0.33196(16)
C8P C 0.2197(2) -0.16804(16) -0.39649(16)
C8F C 0.16804(16) -0.2197(2) -0.39649(16)
C8I C 0.39649(16) -0.16804(16) -0.2197(2)
C8M C 0.39649(16) -0.2197(2) -0.16804(16)
C8BA C 0.33196(16) -0.2803(2) 0.10351(16)
C8PA C 0.2803(2) -0.33196(16) 0.10351(16)
C8T C -0.16804(16) -0.39649(16) 0.2197(2)
C8B C -0.2197(2) -0.39649(16) 0.16804(16)
C8QA C -0.2803(2) -0.33196(16) -0.10351(16)
C8EA C -0.33196(16) -0.2803(2) -0.10351(16)
C8H C -0.39649(16) -0.16804(16) 0.2197(2)
C8N C -0.39649(16) -0.2197(2) 0.16804(16)
C8HA C 0.10351(16) -0.33196(16) 0.2803(2)
C8JA C 0.10351(16) -0.2803(2) 0.33196(16)
C8Q C -0.2197(2) -0.16804(16) 0.39649(16)
C8E C -0.16804(16) -0.2197(2) 0.39649(16)
C8Z C 0.2803(2) 0.10351(16) -0.33196(16)
C8RA C 0.33196(16) 0.10351(16) -0.2803(2)
C8D C -0.16804(16) 0.2197(2) -0.39649(16)
C8R C -0.2197(2) 0.16804(16) -0.39649(16)
H5V H 0.1457 -0.4195 -0.2334
H5IA H -0.0805 -0.3543 -0.2666
H5MA H -0.0805 -0.2666 -0.3543
H5P H 0.2334 -0.1457 -0.4195
H5F H 0.1457 -0.2334 -0.4195
H5I H 0.4195 -0.1457 -0.2334
H5M H 0.4195 -0.2334 -0.1457
H5BA H 0.3543 -0.2666 0.0805
H5PA H 0.2666 -0.3543 0.0805
H5T H -0.1457 -0.4195 0.2334
H5B H -0.2334 -0.4195 0.1457
H5QA H -0.2666 -0.3543 -0.0805
H5EA H -0.3543 -0.2666 -0.0805
H5H H -0.4195 -0.1457 0.2334
H5N H -0.4195 -0.2334 0.1457
H5HA H 0.0805 -0.3543 0.2666
H5JA H 0.0805 -0.2666 0.3543
H5Q H -0.2334 -0.1457 0.4195
H5E H -0.1457 -0.2334 0.4195
H5Z H 0.2666 0.0805 -0.3543
H5RA H 0.3543 0.0805 -0.2666
H5D H -0.1457 0.2334 -0.4195
H5R H -0.2334 0.1457 -0.4195
C9V C 0.15087(14) -0.35253(14) -0.20283(18)
C9IA C -0.14747(14) -0.34913(14) -0.29717(18)
C9MA C -0.14747(14) -0.29717(18) -0.34913(14)
C9P C 0.20283(18) -0.15087(14) -0.35253(14)
C9F C 0.15087(14) -0.20283(18) -0.35253(14)
C9I C 0.35253(14) -0.15087(14) -0.20283(18)
C9M C 0.35253(14) -0.20283(18) -0.15087(14)
C9BA C 0.34913(14) -0.29717(18) 0.14747(14)
C9PA C 0.29717(18) -0.34913(14) 0.14747(14)
C9T C -0.15087(14) -0.35253(14) 0.20283(18)
C9B C -0.20283(18) -0.35253(14) 0.15087(14)
C9QA C -0.29717(18) -0.34913(14) -0.14747(14)
C9EA C -0.34913(14) -0.29717(18) -0.14747(14)
C9H C -0.35253(14) -0.15087(14) 0.20283(18)
C9N C -0.35253(14) -0.20283(18) 0.15087(14)
C9HA C 0.14747(14) -0.34913(14) 0.29717(18)
C9JA C 0.14747(14) -0.29717(18) 0.34913(14)
C9Q C -0.20283(18) -0.15087(14) 0.35253(14)
C9E C -0.15087(14) -0.20283(18) 0.35253(14)
C9Z C 0.29717(18) 0.14747(14) -0.34913(14)
C9RA C 0.34913(14) 0.14747(14) -0.29717(18)
C9D C -0.15087(14) 0.20283(18) -0.35253(14)
C9R C -0.20283(18) 0.15087(14) -0.35253(14)
H6V H 0.1173 -0.3446 -0.2080
H6IA H -0.1554 -0.3827 -0.2920
H6MA H -0.1554 -0.2920 -0.3827
H6P H 0.2080 -0.1173 -0.3446
H6F H 0.1173 -0.2080 -0.3446
H6I H 0.3446 -0.1173 -0.2080
H6M H 0.3446 -0.2080 -0.1173
H6BA H 0.3827 -0.2920 0.1554
H6PA H 0.2920 -0.3827 0.1554
H6T H -0.1173 -0.3446 0.2080
H6B H -0.2080 -0.3446 0.1173
H6QA H -0.2920 -0.3827 -0.1554
H6EA H -0.3827 -0.2920 -0.1554
H6H H -0.3446 -0.1173 0.2080
H6N H -0.3446 -0.2080 0.1173
H6HA H 0.1554 -0.3827 0.2920
H6JA H 0.1554 -0.2920 0.3827
H6Q H -0.2080 -0.1173 0.3446
H6E H -0.1173 -0.2080 0.3446
H6Z H 0.2920 0.1554 -0.3827
H6RA H 0.3827 0.1554 -0.2920
H6D H -0.1173 0.2080 -0.3446
H6R H -0.2080 0.1173 -0.3446
C10IA C -0.22833(7) -0.33939(5) -0.33939(5)
C10F C 0.16061(5) -0.16061(5) -0.27167(7)
C10I C 0.27167(7) -0.16061(5) -0.16061(5)
C10BA C 0.33939(5) -0.33939(5) 0.22833(7)
C10B C -0.16061(5) -0.27167(7) 0.16061(5)
C10EA C -0.33939(5) -0.33939(5) -0.22833(7)
C10H C -0.27167(7) -0.16061(5) 0.16061(5)
C10HA C 0.22833(7) -0.33939(5) 0.33939(5)
C10E C -0.16061(5) -0.16061(5) 0.27167(7)
C10Z C 0.33939(5) 0.22833(7) -0.33939(5)
C10D C -0.16061(5) 0.16061(5) -0.27167(7)
C11B C -0.07572(5) -0.19523(8) 0.07572(5)
C11F C 0.07572(5) -0.07572(5) -0.19523(8)
C11D C -0.07572(5) 0.07572(5) -0.19523(8)
C11I C 0.19523(8) -0.07572(5) -0.07572(5)
C11K C 0.19523(8) 0.07572(5) 0.07572(5)
C11H C -0.19523(8) -0.07572(5) 0.07572(5)
C11J C -0.19523(8) 0.07572(5) -0.07572(5)
C11E C -0.07572(5) -0.07572(5) 0.19523(8)
C11G C 0.07572(5) 0.07572(5) 0.19523(8)
C11A C -0.07572(5) 0.19523(8) -0.07572(5)
C11C C 0.07572(5) 0.19523(8) 0.07572(5)
C12B C -0.03638(5) -0.19897(7) 0.03638(5)
C12F C 0.03638(5) -0.03638(5) -0.19897(7)
C12D C -0.03638(5) 0.03638(5) -0.19897(7)
C12I C 0.19897(7) -0.03638(5) -0.03638(5)
C12K C 0.19897(7) 0.03638(5) 0.03638(5)
C12H C -0.19897(7) -0.03638(5) 0.03638(5)
C12J C -0.19897(7) 0.03638(5) -0.03638(5)
C12E C -0.03638(5) -0.03638(5) 0.19897(7)
C12G C 0.03638(5) 0.03638(5) 0.19897(7)
C12A C -0.03638(5) 0.19897(7) -0.03638(5)
C12C C 0.03638(5) 0.19897(7) 0.03638(5)
C13T C -0.04752(8) -0.19892(9) -0.01098(8)
C13B C 0.01098(8) -0.19892(9) 0.04752(8)
C13V C 0.04752(8) -0.19892(9) 0.01098(8)
C13P C -0.01098(8) -0.04752(8) -0.19892(9)
C13D C -0.04752(8) -0.01098(8) -0.19892(9)
C13R C 0.01098(8) 0.04752(8) -0.19892(9)
C13F C 0.04752(8) 0.01098(8) -0.19892(9)
C13I C 0.19892(9) -0.04752(8) 0.01098(8)
C13O C 0.19892(9) -0.01098(8) 0.04752(8)
C13K C 0.19892(9) 0.04752(8) -0.01098(8)
C13M C 0.19892(9) 0.01098(8) -0.04752(8)
C13H C -0.19892(9) -0.04752(8) -0.01098(8)
C13L C -0.19892(9) -0.01098(8) -0.04752(8)
C13J C -0.19892(9) 0.04752(8) 0.01098(8)
C13N C -0.19892(9) 0.01098(8) 0.04752(8)
C13Q C 0.01098(8) -0.04752(8) 0.19892(9)
C13G C 0.04752(8) -0.01098(8) 0.19892(9)
C13S C -0.01098(8) 0.04752(8) 0.19892(9)
C13E C -0.04752(8) 0.01098(8) 0.19892(9)
C13A C 0.01098(8) 0.19892(9) -0.04752(8)
C13W C 0.04752(8) 0.19892(9) -0.01098(8)
C13C C -0.01098(8) 0.19892(9) 0.04752(8)
C13U C -0.04752(8) 0.19892(9) 0.01098(8)
H7B H 0.0205 -0.1989 0.0811
H7V H 0.0811 -0.1989 0.0205
H7T H -0.0811 -0.1989 -0.0205
H7P H -0.0205 -0.0811 -0.1989
H7R H 0.0205 0.0811 -0.1989
H7F H 0.0811 0.0205 -0.1989
H7D H -0.0811 -0.0205 -0.1989
H7I H 0.1989 -0.0811 0.0205
H7K H 0.1989 0.0811 -0.0205
H7M H 0.1989 0.0205 -0.0811
H7O H 0.1989 -0.0205 0.0811
H7H H -0.1989 -0.0811 -0.0205
H7J H -0.1989 0.0811 0.0205
H7N H -0.1989 0.0205 0.0811
H7L H -0.1989 -0.0205 -0.0811
H7Q H 0.0205 -0.0811 0.1989
H7S H -0.0205 0.0811 0.1989
H7E H -0.0811 0.0205 0.1989
H7G H 0.0811 -0.0205 0.1989
H7A H 0.0205 0.1989 -0.0811
H7C H -0.0205 0.1989 0.0811
H7U H -0.0811 0.1989 0.0205
H7W H 0.0811 0.1989 -0.0205
loop_
_geom_bond_atom_site_label_1
_geom_bond_atom_site_label_2
_geom_bond_site_symmetry_1
_geom_bond_site_symmetry_2
Ni1 O1 1_555 1_555
O1 Ni1I 1_555 1_555
O2 Ni1 1_555 1_555
O3 Ni1 1_555 1_555
N1 C1 1_555 1_555
C1 H1 1_555 1_555
C2 C1 1_555 1_555
H2 C2 1_555 1_555
C3 C2 1_555 1_555
C4 C9 1_555 1_555
C7 C3 1_555 1_555
C8 C7 1_555 1_555
H5 C8 1_555 1_555
C9 C8 1_555 1_555
H6 C9 1_555 1_555
C10 O3 1_555 1_555
C11 O2 1_555 1_555
C12 C11 1_555 1_555
C13 C12 1_555 1_555
H7 C13 1_555 1_555
Ni1I O2V 1_555 1_555
Ni1H O1B 1_555 1_555
Ni1B O1B 1_555 1_555
Ni1F O1 1_555 1_555
Ni1D O1A 1_555 1_555
Ni1A O1A 1_555 1_555
Ni1IA O1AA 1_555 1_555
Ni1EA O1AA 1_555 1_555
Ni1CA N1 1_555 1_555
Ni1HA O1Y 1_555 1_555
Ni1G O1C 1_555 1_555
Ni1K O1C 1_555 1_555
Ni1AA N1I 1_555 1_555
Ni1BA O3BA 1_555 1_555
Ni1Y O3PA 1_555 1_555
Ni1E O1B 1_555 1_555
Ni1DA N1B 1_555 1_555
Ni1AA_2 O1AA 1_555 1_555
Ni1J O1A 1_555 1_555
Ni1Y_2 N1H 1_555 1_555
Ni1HA_2 O3HA 1_555 1_555
Ni1C O1C 1_555 1_555
Ni1IA_2 N1E 1_555 1_555
Ni1Z O3Z 1_555 1_555
Ni1FA O3RA 1_555 1_555
Ni1GA N1D 1_555 1_555
O1Z Ni1CA 1_555 1_555
O2V C11 1_555 1_555
O2T Ni1H 1_555 1_555
O2B Ni1B 1_555 1_555
O2P Ni1 1_555 1_555
O2F Ni1F 1_555 1_555
O2D Ni1D 1_555 1_555
O2R Ni1A 1_555 1_555
O2I Ni1I 1_555 1_555
O2M Ni1F 1_555 1_555
O2O Ni1G 1_555 1_555
O2K Ni1K 1_555 1_555
O2H Ni1H 1_555 1_555
O2N Ni1E 1_555 1_555
O2L Ni1D 1_555 1_555
O2J Ni1J 1_555 1_555
O2Q Ni1B 1_555 1_555
O2E Ni1E 1_555 1_555
O2G Ni1G 1_555 1_555
O2S Ni1C 1_555 1_555
O2A Ni1A 1_555 1_555
O2U Ni1J 1_555 1_555
O2W Ni1K 1_555 1_555
O2C Ni1C 1_555 1_555
O2IA Ni1IA 1_555 1_555
O2UA Ni1IA 1_555 1_555
O2MA Ni1EA 1_555 1_555
O2EA Ni1EA 1_555 1_555
O2CA Ni1CA 1_555 1_555
O2LA Ni1CA 1_555 1_555
O2SA Ni1HA 1_555 1_555
O2HA Ni1HA 1_555 1_555
O3V C10 1_555 1_555
O3IA Ni1IA 1_555 1_555
O3MA Ni1EA 1_555 1_555
O3P Ni1 1_555 1_555
O3F Ni1F 1_555 1_555
O3I Ni1I 1_555 1_555
O3M Ni1F 1_555 1_555
O3BA C10BA 1_555 1_555
O3PA C10BA 1_555 1_555
O3T Ni1H 1_555 1_555
O3B Ni1B 1_555 1_555
O3QA Ni1AA_2 1_555 1_555
O3EA Ni1EA 1_555 1_555
O3H Ni1H 1_555 1_555
O3N Ni1E 1_555 1_555
O3HA C10HA 1_555 1_555
O3JA Ni1BA 1_555 1_555
O3Q Ni1B 1_555 1_555
O3E Ni1E 1_555 1_555
O3Z C10Z 1_555 1_555
O3RA C10Z 1_555 1_555
O3D Ni1D 1_555 1_555
O3R Ni1A 1_555 1_555
O3L Ni1D 1_555 1_555
O3A Ni1A 1_555 1_555
O3UA Ni1IA 1_555 1_555
O3CA Ni1CA 1_555 1_555
O3LA Ni1CA 1_555 1_555
O3SA Ni1HA 1_555 1_555
O3HA_2 Ni1HA 1_555 1_555
O3O Ni1G 1_555 1_555
O3G Ni1G 1_555 1_555
N1IA Ni1 1_555 1_555
N1F Ni1HA 1_555 1_555
N1I C1I 1_555 1_555
N1BA Ni1I 1_555 1_555
N1B C1T 1_555 1_555
N1EA Ni1H 1_555 1_555
N1H C1H 1_555 1_555
N1HA Ni1B 1_555 1_555
N1E C1Q 1_555 1_555
N1Z Ni1F 1_555 1_555
N1D C1D 1_555 1_555
N1AA Ni1D 1_555 1_555
N1FA Ni1A 1_555 1_555
N1E_2 Ni1IA 1_555 1_555
N1A Ni1EA 1_555 1_555
N1Y Ni1G 1_555 1_555
C1V N1 1_555 1_555
C1IA N1IA 1_555 1_555
C1MA N1IA 1_555 1_555
C1P N1F 1_555 1_555
C1F N1F 1_555 1_555
C1I H1I 1_555 1_555
C1M N1I 1_555 1_555
C1BA N1BA 1_555 1_555
C1PA N1BA 1_555 1_555
C1T H1T 1_555 1_555
C1B N1B 1_555 1_555
C1QA N1EA 1_555 1_555
C1EA N1EA 1_555 1_555
C1H H1H 1_555 1_555
C1N N1H 1_555 1_555
C1HA N1HA 1_555 1_555
C1JA N1HA 1_555 1_555
C1Q H1Q 1_555 1_555
C1E N1E 1_555 1_555
C1Z N1Z 1_555 1_555
C1RA N1Z 1_555 1_555
C1D H1D 1_555 1_555
C1R N1D 1_555 1_555
H1V C1V 1_555 1_555
H1IA C1IA 1_555 1_555
H1MA C1MA 1_555 1_555
H1P C1P 1_555 1_555
H1F C1F 1_555 1_555
H1M C1M 1_555 1_555
H1BA C1BA 1_555 1_555
H1PA C1PA 1_555 1_555
H1B C1B 1_555 1_555
H1QA C1QA 1_555 1_555
H1EA C1EA 1_555 1_555
H1N C1N 1_555 1_555
H1HA C1HA 1_555 1_555
H1JA C1JA 1_555 1_555
H1E C1E 1_555 1_555
H1Z C1Z 1_555 1_555
H1RA C1RA 1_555 1_555
H1R C1R 1_555 1_555
C2V C3 1_555 1_555
C2IA C1IA 1_555 1_555
C2MA C1MA 1_555 1_555
C2P C1P 1_555 1_555
C2F C1F 1_555 1_555
C2I C1I 1_555 1_555
C2M C1M 1_555 1_555
C2BA C1BA 1_555 1_555
C2PA C1PA 1_555 1_555
C2T C1T 1_555 1_555
C2B C1B 1_555 1_555
C2QA C1QA 1_555 1_555
C2EA C1EA 1_555 1_555
C2H C1H 1_555 1_555
C2N C1N 1_555 1_555
C2HA C1HA 1_555 1_555
C2JA C1JA 1_555 1_555
C2Q C1Q 1_555 1_555
C2E C1E 1_555 1_555
C2Z C1Z 1_555 1_555
C2RA C1RA 1_555 1_555
C2D C1D 1_555 1_555
C2R C1R 1_555 1_555
H2V C2V 1_555 1_555
H2IA C2IA 1_555 1_555
H2MA C2MA 1_555 1_555
H2P C2P 1_555 1_555
H2F C2F 1_555 1_555
H2I C2I 1_555 1_555
H2M C2M 1_555 1_555
H2BA C2BA 1_555 1_555
H2PA C2PA 1_555 1_555
H2T C2T 1_555 1_555
H2B C2B 1_555 1_555
H2QA C2QA 1_555 1_555
H2EA C2EA 1_555 1_555
H2H C2H 1_555 1_555
H2N C2N 1_555 1_555
H2HA C2HA 1_555 1_555
H2JA C2JA 1_555 1_555
H2Q C2Q 1_555 1_555
H2E C2E 1_555 1_555
H2Z C2Z 1_555 1_555
H2RA C2RA 1_555 1_555
H2D C2D 1_555 1_555
H2R C2R 1_555 1_555
C3IA C2IA 1_555 1_555
C3F C2P 1_555 1_555
C3I C2I 1_555 1_555
C3BA C2BA 1_555 1_555
C3B C2T 1_555 1_555
C3EA C2QA 1_555 1_555
C3H C2H 1_555 1_555
C3HA C2HA 1_555 1_555
C3E C2Q 1_555 1_555
C3Z C2Z 1_555 1_555
C3D C2D 1_555 1_555
C4IA C9IA 1_555 1_555
C4F C9P 1_555 1_555
C4I C9I 1_555 1_555
C4BA C9BA 1_555 1_555
C4B C9T 1_555 1_555
C4EA C9QA 1_555 1_555
C4H C9H 1_555 1_555
C4HA C9HA 1_555 1_555
C4E C9Q 1_555 1_555
C4Z C9Z 1_555 1_555
C4D C9D 1_555 1_555
C7IA C3IA 1_555 1_555
C7F C3F 1_555 1_555
C7I C3I 1_555 1_555
C7BA C3BA 1_555 1_555
C7B C3B 1_555 1_555
C7EA C3EA 1_555 1_555
C7H C3H 1_555 1_555
C7HA C3HA 1_555 1_555
C7E C3E 1_555 1_555
C7Z C3Z 1_555 1_555
C7D C3D 1_555 1_555
C8V C7 1_555 1_555
C8IA C7IA 1_555 1_555
C8MA C7IA 1_555 1_555
C8P C7F 1_555 1_555
C8F C7F 1_555 1_555
C8I C7I 1_555 1_555
C8M C7I 1_555 1_555
C8BA C7BA 1_555 1_555
C8PA C7BA 1_555 1_555
C8T C7B 1_555 1_555
C8B C7B 1_555 1_555
C8QA C7EA 1_555 1_555
C8EA C7EA 1_555 1_555
C8H C7H 1_555 1_555
C8N C7H 1_555 1_555
C8HA C7HA 1_555 1_555
C8JA C7HA 1_555 1_555
C8Q C7E 1_555 1_555
C8E C7E 1_555 1_555
C8Z C7Z 1_555 1_555
C8RA C7Z 1_555 1_555
C8D C7D 1_555 1_555
C8R C7D 1_555 1_555
H5V C8V 1_555 1_555
H5IA C8IA 1_555 1_555
H5MA C8MA 1_555 1_555
H5P C8P 1_555 1_555
H5F C8F 1_555 1_555
H5I C8I 1_555 1_555
H5M C8M 1_555 1_555
H5BA C8BA 1_555 1_555
H5PA C8PA 1_555 1_555
H5T C8T 1_555 1_555
H5B C8B 1_555 1_555
H5QA C8QA 1_555 1_555
H5EA C8EA 1_555 1_555
H5H C8H 1_555 1_555
H5N C8N 1_555 1_555
H5HA C8HA 1_555 1_555
H5JA C8JA 1_555 1_555
H5Q C8Q 1_555 1_555
H5E C8E 1_555 1_555
H5Z C8Z 1_555 1_555
H5RA C8RA 1_555 1_555
H5D C8D 1_555 1_555
H5R C8R 1_555 1_555
C9V C4 1_555 1_555
C9IA C8IA 1_555 1_555
C9MA C4IA 1_555 1_555
C9P C8P 1_555 1_555
C9F C4F 1_555 1_555
C9I C8I 1_555 1_555
C9M C4I 1_555 1_555
C9BA C8BA 1_555 1_555
C9PA C4BA 1_555 1_555
C9T C8T 1_555 1_555
C9B C4B 1_555 1_555
C9QA C8QA 1_555 1_555
C9EA C4EA 1_555 1_555
C9H C8H 1_555 1_555
C9N C4H 1_555 1_555
C9HA C8HA 1_555 1_555
C9JA C4HA 1_555 1_555
C9Q C8Q 1_555 1_555
C9E C4E 1_555 1_555
C9Z C8Z 1_555 1_555
C9RA C4Z 1_555 1_555
C9D C8D 1_555 1_555
C9R C4D 1_555 1_555
H6V C9V 1_555 1_555
H6IA C9IA 1_555 1_555
H6MA C9MA 1_555 1_555
H6P C9P 1_555 1_555
H6F C9F 1_555 1_555
H6I C9I 1_555 1_555
H6M C9M 1_555 1_555
H6BA C9BA 1_555 1_555
H6PA C9PA 1_555 1_555
H6T C9T 1_555 1_555
H6B C9B 1_555 1_555
H6QA C9QA 1_555 1_555
H6EA C9EA 1_555 1_555
H6H C9H 1_555 1_555
H6N C9N 1_555 1_555
H6HA C9HA 1_555 1_555
H6JA C9JA 1_555 1_555
H6Q C9Q 1_555 1_555
H6E C9E 1_555 1_555
H6Z C9Z 1_555 1_555
H6RA C9RA 1_555 1_555
H6D C9D 1_555 1_555
H6R C9R 1_555 1_555
C10IA O3IA 1_555 1_555
C10F O3P 1_555 1_555
C10I O3I 1_555 1_555
C10BA C4BA 1_555 1_555
C10B O3T 1_555 1_555
C10EA O3QA 1_555 1_555
C10H O3H 1_555 1_555
C10HA O3JA 1_555 1_555
C10E O3Q 1_555 1_555
C10Z C4Z 1_555 1_555
C10D O3D 1_555 1_555
C11B O2T 1_555 1_555
C11F O2P 1_555 1_555
C11D O2D 1_555 1_555
C11I O2I 1_555 1_555
C11K O2O 1_555 1_555
C11H O2H 1_555 1_555
C11J O2L 1_555 1_555
C11E O2Q 1_555 1_555
C11G O2G 1_555 1_555
C11A O2A 1_555 1_555
C11C O2W 1_555 1_555
C12B C11B 1_555 1_555
C12F C11F 1_555 1_555
C12D C11D 1_555 1_555
C12I C11I 1_555 1_555
C12K C11K 1_555 1_555
C12H C11H 1_555 1_555
C12J C11J 1_555 1_555
C12E C11E 1_555 1_555
C12G C11G 1_555 1_555
C12A C11A 1_555 1_555
C12C C11C 1_555 1_555
C13T C13 1_555 1_555
C13B C12B 1_555 1_555
C13V C12 1_555 1_555
C13P C12F 1_555 1_555
C13D C12D 1_555 1_555
C13R C12D 1_555 1_555
C13F C12F 1_555 1_555
C13I C12I 1_555 1_555
C13O C12K 1_555 1_555
C13K C12K 1_555 1_555
C13M C12I 1_555 1_555
C13H C12H 1_555 1_555
C13L C12J 1_555 1_555
C13J C12J 1_555 1_555
C13N C12H 1_555 1_555
C13Q C12E 1_555 1_555
C13G C12G 1_555 1_555
C13S C12G 1_555 1_555
C13E C12E 1_555 1_555
C13A C12A 1_555 1_555
C13W C12C 1_555 1_555
C13C C12C 1_555 1_555
C13U C12A 1_555 1_555
H7B C13B 1_555 1_555
H7V C13V 1_555 1_555
H7T C13T 1_555 1_555
H7P C13P 1_555 1_555
H7R C13R 1_555 1_555
H7F C13F 1_555 1_555
H7D C13D 1_555 1_555
H7I C13I 1_555 1_555
H7K C13K 1_555 1_555
H7M C13M 1_555 1_555
H7O C13O 1_555 1_555
H7H C13H 1_555 1_555
H7J C13J 1_555 1_555
H7N C13N 1_555 1_555
H7L C13L 1_555 1_555
H7Q C13Q 1_555 1_555
H7S C13S 1_555 1_555
H7E C13E 1_555 1_555
H7G C13G 1_555 1_555
H7A C13A 1_555 1_555
H7C C13C 1_555 1_555
H7U C13U 1_555 1_555
H7W C13W 1_555 1_555
C4 C10 1_555 1_555
Ni1I O3V 1_555 1_555
O2B C11B 1_555 1_555
O2F C11F 1_555 1_555
O2R C11D 1_555 1_555
O2M C11I 1_555 1_555
O2K C11K 1_555 1_555
O2N C11H 1_555 1_555
O2J C11J 1_555 1_555
O2E C11E 1_555 1_555
O2S C11G 1_555 1_555
O2U C11A 1_555 1_555
O2C C11C 1_555 1_555
O3MA C10IA 1_555 1_555
O3F C10F 1_555 1_555
O3M C10I 1_555 1_555
O3B C10B 1_555 1_555
O3EA C10EA 1_555 1_555
O3N C10H 1_555 1_555
O3E C10E 1_555 1_555
O3R C10D 1_555 1_555
C1V C2V 1_555 1_555
C2MA C3IA 1_555 1_555
C2F C3F 1_555 1_555
C2M C3I 1_555 1_555
C2PA C3BA 1_555 1_555
C2B C3B 1_555 1_555
C2EA C3EA 1_555 1_555
C2N C3H 1_555 1_555
C2JA C3HA 1_555 1_555
C2E C3E 1_555 1_555
C2RA C3Z 1_555 1_555
C2R C3D 1_555 1_555
C4IA C10IA 1_555 1_555
C4F C10F 1_555 1_555
C4I C10I 1_555 1_555
C4B C10B 1_555 1_555
C4EA C10EA 1_555 1_555
C4H C10H 1_555 1_555
C4HA C10HA 1_555 1_555
C4E C10E 1_555 1_555
C4D C10D 1_555 1_555
C8V C9V 1_555 1_555
C8MA C9MA 1_555 1_555
C8F C9F 1_555 1_555
C8M C9M 1_555 1_555
C8PA C9PA 1_555 1_555
C8B C9B 1_555 1_555
C8EA C9EA 1_555 1_555
C8N C9N 1_555 1_555
C8JA C9JA 1_555 1_555
C8E C9E 1_555 1_555
C8RA C9RA 1_555 1_555
C8R C9R 1_555 1_555
C12B C13T 1_555 1_555
C13B C13V 1_555 1_555
C13P C13D 1_555 1_555
C13R C13F 1_555 1_555
C13I C13O 1_555 1_555
C13K C13M 1_555 1_555
C13H C13L 1_555 1_555
C13J C13N 1_555 1_555
C13Q C13G 1_555 1_555
C13S C13E 1_555 1_555
C13A C13W 1_555 1_555
C13C C13U 1_555 1_555

#END
