
#######################################################################
#
#                 Cambridge Crystallographic Data Centre
#                                CCDC 
#
#######################################################################
#
# If this CIF has been generated from an entry in the Cambridge 
# Structural Database, then it will include bibliographic, chemical, 
# crystal, experimental, refinement or atomic coordinate data resulting 
# from the CCDC's data processing and validation procedures.
#
#######################################################################

data_KARLUM
_chemical_formula_moiety         'C108 H66 N10 Ni17 O35'
_symmetry_cell_setting           cubic
_symmetry_space_group_name_H-M   'I 2 3'
_symmetry_Int_Tables_number      197
_space_group_name_Hall           'I 2 2 3'
loop_
_symmetry_equiv_pos_site_id
_symmetry_equiv_pos_as_xyz
1 x,y,z
2 -x,-y,z
3 -x,y,-z
4 x,-y,-z
5 z,x,y
6 z,-x,-y
7 -z,-x,y
8 -z,x,-y
9 y,z,x
10 -y,z,-x
11 y,-z,-x
12 -y,-z,x
13 1/2+x,1/2+y,1/2+z
14 1/2-x,1/2-y,1/2+z
15 1/2-x,1/2+y,1/2-z
16 1/2+x,1/2-y,1/2-z
17 1/2+z,1/2+x,1/2+y
18 1/2+z,1/2-x,1/2-y
19 1/2-z,1/2-x,1/2+y
20 1/2-z,1/2+x,1/2-y
21 1/2+y,1/2+z,1/2+x
22 1/2-y,1/2+z,1/2-x
23 1/2+y,1/2-z,1/2-x
24 1/2-y,1/2-z,1/2+x
_cell_length_a                   28.482(2)
_cell_length_b                   28.482(2)
_cell_length_c                   28.482(2)
_cell_angle_alpha                90
_cell_angle_beta                 90
_cell_angle_gamma                90
_cell_volume                     23105.3
loop_
_atom_site_label
_atom_site_type_symbol
_atom_site_fract_x
_atom_site_fract_y
_atom_site_fract_z
Ni1 Ni 0.881424(9) 0.791858(10) 0.801323(9)
O1 O 0.82561(8) 0.82561(8) 0.82561(8)
O2 O 0.85479(7) 0.72583(6) 0.81458(8)
O3 O 0.78808(8) 0.73562(7) 0.85330(7)
O4 O 0.91282(6) 0.79145(9) 0.86663(6)
O5 O 0.85350(7) 0.78645(9) 0.91671(6)
N1 N 0.72495(7) 0.44082(7) 0.74135(7)
C1 C 0.76638(17) 0.45926(15) 0.72598(16)
H1 H 0.7837 0.4430 0.7026
C2 C 0.78384(16) 0.50090(14) 0.74347(15)
H2 H 0.8125 0.5134 0.7319
C3 C 0.75882(10) 0.52458(9) 0.77846(10)
C4 C 0.71835(17) 0.50506(15) 0.79374(17)
H3 H 0.7006 0.5204 0.8175
C5 C 0.70284(18) 0.46406(15) 0.77566(16)
H4 H 0.6747 0.4510 0.7880
C6 C 0.77633(11) 0.57110(9) 0.79648(11)
C7 C 0.82122(17) 0.58503(18) 0.7898(3)
H5 H 0.8433 0.5635 0.7770
C8 C 0.83589(18) 0.63095(17) 0.8014(3)
H6 H 0.8675 0.6402 0.7963
C9 C 0.80420(9) 0.66219(8) 0.82032(9)
C10 C 0.75806(18) 0.64792(18) 0.8279(3)
H7 H 0.7361 0.6692 0.8413
C11 C 0.74381(19) 0.60232(17) 0.8159(3)
H8 H 0.7123 0.5927 0.8209
C12 C 0.81739(8) 0.71243(8) 0.83038(8)
C13 C 0.89526(9) 0.78616(10) 0.90605(8)
C14 C 0.92877(10) 0.78021(15) 0.94693(10)
C15 C 0.97656(10) 0.77907(14) 0.93919(11)
H9 H 0.9880 0.7790 0.9079
C16 C 1.00883(10) 0.77799(14) 0.97693(9)
C17 C 1.05724(10) 0.77661(15) 0.96908(11)
H10 H 1.0689 0.7750 0.9379
C18 C 0.91152(10) 0.77760(15) 0.99320(10)
H11 H 0.8786 0.7765 0.9987
Ni1D Ni 0.801323(9) 0.881424(9) 0.791858(10)
Ni1V Ni 1.291858(10) 0.698677(9) 0.618576(9)
Ni1H Ni 0.791858(10) 0.801323(9) 0.881424(9)
Ni1Q Ni 1.301323(9) 0.618576(9) 0.708142(10)
Ni1B Ni 1.118576(9) 0.791858(10) 1.198677(9)
Ni1S Ni 0.698677(9) 0.381424(9) 0.708142(10)
Ni1I Ni 1.208142(10) 0.801323(9) 1.118576(9)
Ni1W Ni 0.708142(10) 0.698677(9) 0.381424(9)
Ni1F Ni 1.198677(9) 1.118576(9) 0.791858(10)
Ni1A Ni 1.118576(9) 1.208142(10) 0.801323(9)
Ni1O Ni 0.381424(9) 0.708142(10) 0.698677(9)
Ni1J Ni 0.791858(10) 1.198677(9) 1.118576(9)
Ni1E Ni 0.801323(9) 1.118576(9) 1.208142(10)
Ni1N Ni 0.618576(9) 1.291858(10) 0.698677(9)
Ni1U Ni 0.708142(10) 1.301323(9) 0.618576(9)
Ni1O_2 Ni 1.381424(9) 0.708142(10) 0.698677(9)
O1O O 1.32561(8) 0.67439(8) 0.67439(8)
O1B O 1.17439(8) 0.82561(8) 1.17439(8)
O2D O 0.81458(8) 0.85479(7) 0.72583(6)
O2V O 1.22583(6) 0.68542(8) 0.64521(7)
O2H O 0.72583(6) 0.81458(8) 0.85479(7)
O2N O 0.64521(7) 1.22583(6) 0.68542(8)
O2O O 1.35479(7) 0.77417(6) 0.68542(8)
O2Q O 1.31458(8) 0.64521(7) 0.77417(6)
O2B O 1.14521(7) 0.72583(6) 1.18542(8)
O3D O 0.85330(7) 0.78808(8) 0.73562(7)
O3V O 1.23562(7) 0.64670(7) 0.71192(8)
O3H O 0.73562(7) 0.85330(7) 0.78808(8)
O3N O 0.71192(8) 1.23562(7) 0.64670(7)
O3O O 1.28808(8) 0.76438(7) 0.64670(7)
O3G O 1.14670(7) 0.78808(8) 1.26438(7)
O4B O 1.08718(6) 0.79145(9) 1.13337(6)
O4D O 0.86663(6) 0.91282(6) 0.79145(9)
O4F O 1.13337(6) 1.08718(6) 0.79145(9)
O4H O 0.79145(9) 0.86663(6) 0.91282(6)
O4J O 0.79145(9) 1.13337(6) 1.08718(6)
O4V O 1.29145(9) 0.63337(6) 0.58718(6)
O4Q O 1.36663(6) 0.58718(6) 0.70855(9)
O5B O 1.14650(7) 0.78645(9) 1.08329(6)
O5D O 0.91671(6) 0.85350(7) 0.78645(9)
O5F O 1.08329(6) 1.14650(7) 0.78645(9)
O5H O 0.78645(9) 0.91671(6) 0.85350(7)
O5J O 0.78645(9) 1.08329(6) 1.14650(7)
O5O O 1.35350(7) 0.71355(9) 0.58329(6)
O5V O 1.28645(9) 0.58329(6) 0.64650(7)
O5G O 1.08329(6) 0.85350(7) 1.21355(9)
N1D N 0.74135(7) 0.72495(7) 0.44082(7)
N1V N 0.94082(7) 0.75865(7) 0.77505(7)
N1H N 0.44082(7) 0.74135(7) 0.72495(7)
N1N N 0.77505(7) 0.94082(7) 0.75865(7)
N1O N 1.22495(7) 1.05918(7) 0.75865(7)
N1G N 1.25865(7) 0.72495(7) 0.55918(7)
N1R N 0.75865(7) 0.77505(7) 0.94082(7)
N1A N 1.27505(7) 0.55918(7) 0.74135(7)
N1W N 1.05918(7) 0.75865(7) 1.22495(7)
C1D C 0.72598(16) 0.76638(17) 0.45926(15)
C1V C 0.95926(15) 0.77402(16) 0.73362(17)
C1H C 0.45926(15) 0.72598(16) 0.76638(17)
C1N C 0.73362(17) 0.95926(15) 0.77402(16)
C1O C 1.26638(17) 1.04074(15) 0.77402(16)
H1D H 0.7026 0.7837 0.4430
H1V H 0.9430 0.7974 0.7163
H1H H 0.4430 0.7026 0.7837
H1N H 0.7163 0.9430 0.7974
H1O H 1.2837 1.0570 0.7974
C2D C 0.74347(15) 0.78384(16) 0.50090(14)
C2V C 1.00090(14) 0.75653(15) 0.71616(16)
C2H C 0.50090(14) 0.74347(15) 0.78384(16)
C2N C 0.71616(16) 1.00090(14) 0.75653(15)
C2O C 1.28384(16) 0.99910(14) 0.75653(15)
H2D H 0.7319 0.8125 0.5134
H2V H 1.0134 0.7681 0.6875
H2H H 0.5134 0.7319 0.8125
H2N H 0.6875 1.0134 0.7681
H2O H 1.3125 0.9866 0.7681
C3D C 0.77846(10) 0.75882(10) 0.52458(9)
C3V C 1.02458(9) 0.72154(10) 0.74118(10)
C3H C 0.52458(9) 0.77846(10) 0.75882(10)
C3N C 0.74118(10) 1.02458(9) 0.72154(10)
C3O C 1.25882(10) 0.97542(9) 0.72154(10)
C4D C 0.79374(17) 0.71835(17) 0.50506(15)
C4V C 1.00506(15) 0.70626(17) 0.78165(17)
C4H C 0.50506(15) 0.79374(17) 0.71835(17)
C4N C 0.78165(17) 1.00506(15) 0.70626(17)
C4O C 1.21835(17) 0.99494(15) 0.70626(17)
H3D H 0.8175 0.7006 0.5204
H3V H 1.0204 0.6825 0.7994
H3H H 0.5204 0.8175 0.7006
H3N H 0.7994 1.0204 0.6825
H3O H 1.2006 0.9796 0.6825
C5D C 0.77566(16) 0.70284(18) 0.46406(15)
C5V C 0.96406(15) 0.72434(16) 0.79716(18)
C5H C 0.46406(15) 0.77566(16) 0.70284(18)
C5N C 0.79716(18) 0.96406(15) 0.72434(16)
C5O C 1.20284(18) 1.03594(15) 0.72434(16)
H4D H 0.7880 0.6747 0.4510
H4V H 0.9510 0.7120 0.8253
H4H H 0.4510 0.7880 0.6747
H4N H 0.8253 0.9510 0.7120
H4O H 1.1747 1.0490 0.7120
C6D C 0.79648(11) 0.77633(11) 0.57110(9)
C6V C 1.07110(9) 0.70352(11) 0.72367(11)
C6H C 0.57110(9) 0.79648(11) 0.77633(11)
C6N C 0.72367(11) 1.07110(9) 0.70352(11)
C6O C 1.27633(11) 0.92890(9) 0.70352(11)
C7D C 0.7898(3) 0.82122(17) 0.58503(18)
C7V C 1.08503(18) 0.7102(3) 0.67878(17)
C7H C 0.58503(18) 0.7898(3) 0.82122(17)
C7N C 0.67878(17) 1.08503(18) 0.7102(3)
C7O C 1.32122(17) 0.91497(18) 0.7102(3)
H5D H 0.7770 0.8433 0.5635
H5V H 1.0635 0.7230 0.6567
H5H H 0.5635 0.7770 0.8433
H5N H 0.6567 1.0635 0.7230
H5O H 1.3433 0.9365 0.7230
C8D C 0.8014(3) 0.83589(18) 0.63095(17)
C8V C 1.13095(17) 0.6986(3) 0.66411(18)
C8H C 0.63095(17) 0.8014(3) 0.83589(18)
C8N C 0.66411(18) 1.13095(17) 0.6986(3)
C8O C 1.33589(18) 0.86905(17) 0.6986(3)
H6D H 0.7963 0.8675 0.6402
H6V H 1.1402 0.7037 0.6325
H6H H 0.6402 0.7963 0.8675
H6N H 0.6325 1.1402 0.7037
H6O H 1.3675 0.8598 0.7037
C9D C 0.82032(9) 0.80420(9) 0.66219(8)
C9V C 1.16219(8) 0.67968(9) 0.69580(9)
C9H C 0.66219(8) 0.82032(9) 0.80420(9)
C9N C 0.69580(9) 1.16219(8) 0.67968(9)
C9O C 1.30420(9) 0.83781(8) 0.67968(9)
C10D C 0.8279(3) 0.75806(18) 0.64792(18)
C10V C 1.14792(18) 0.6721(3) 0.74194(18)
C10H C 0.64792(18) 0.8279(3) 0.75806(18)
C10N C 0.74194(18) 1.14792(18) 0.6721(3)
C10O C 1.25806(18) 0.85208(18) 0.6721(3)
H7D H 0.8413 0.7361 0.6692
H7V H 1.1692 0.6587 0.7639
H7H H 0.6692 0.8413 0.7361
H7N H 0.7639 1.1692 0.6587
H7O H 1.2361 0.8308 0.6587
C11D C 0.8159(3) 0.74381(19) 0.60232(17)
C11V C 1.10232(17) 0.6841(3) 0.75619(19)
C11H C 0.60232(17) 0.8159(3) 0.74381(19)
C11N C 0.75619(19) 1.10232(17) 0.6841(3)
C11O C 1.24381(19) 0.89768(17) 0.6841(3)
H8D H 0.8209 0.7123 0.5927
H8V H 1.0927 0.6791 0.7877
H8H H 0.5927 0.8209 0.7123
H8N H 0.7877 1.0927 0.6791
H8O H 1.2123 0.9073 0.6791
C12D C 0.83038(8) 0.81739(8) 0.71243(8)
C12V C 1.21243(8) 0.66962(8) 0.68261(8)
C12H C 0.71243(8) 0.83038(8) 0.81739(8)
C12N C 0.68261(8) 1.21243(8) 0.66962(8)
C12O C 1.31739(8) 0.78757(8) 0.66962(8)
C13B C 1.10474(9) 0.78616(10) 1.09395(8)
C13D C 0.90605(8) 0.89526(9) 0.78616(10)
C13F C 1.09395(8) 1.10474(9) 0.78616(10)
C13H C 0.78616(10) 0.90605(8) 0.89526(9)
C13J C 0.78616(10) 1.09395(8) 1.10474(9)
C14B C 1.07123(10) 0.78021(15) 1.05307(10)
C14D C 0.94693(10) 0.92877(10) 0.78021(15)
C14F C 1.05307(10) 1.07123(10) 0.78021(15)
C14H C 0.78021(15) 0.94693(10) 0.92877(10)
C14J C 0.78021(15) 1.05307(10) 1.07123(10)
C15B C 1.02344(10) 0.77907(14) 1.06081(11)
C15D C 0.93919(11) 0.97656(10) 0.77907(14)
C15F C 1.06081(11) 1.02344(10) 0.77907(14)
C15H C 0.77907(14) 0.93919(11) 0.97656(10)
C15J C 0.77907(14) 1.06081(11) 1.02344(10)
H9B H 1.0120 0.7790 1.0921
H9D H 0.9079 0.9880 0.7790
H9F H 1.0921 1.0120 0.7790
H9H H 0.7790 0.9079 0.9880
H9J H 0.7790 1.0921 1.0120
C16B C 0.99117(10) 0.77799(14) 1.02307(9)
C16D C 0.97693(9) 1.00883(10) 0.77799(14)
C16F C 1.02307(9) 0.99117(10) 0.77799(14)
C16H C 0.77799(14) 0.97693(9) 1.00883(10)
C16J C 0.77799(14) 1.02307(9) 0.99117(10)
C17B C 0.94276(10) 0.77661(15) 1.03092(11)
C17D C 0.96908(11) 1.05724(10) 0.77661(15)
C17F C 1.03092(11) 0.94276(10) 0.77661(15)
C17H C 0.77661(15) 0.96908(11) 1.05724(10)
C17J C 0.77661(15) 1.03092(11) 0.94276(10)
H10B H 0.9311 0.7750 1.0621
H10D H 0.9379 1.0689 0.7750
H10F H 1.0621 0.9311 0.7750
H10H H 0.7750 0.9379 1.0689
H10J H 0.7750 1.0621 0.9311
C18B C 1.08848(10) 0.77760(15) 1.00680(10)
C18D C 0.99320(10) 0.91152(10) 0.77760(15)
C18F C 1.00680(10) 1.08848(10) 0.77760(15)
C18H C 0.77760(15) 0.99320(10) 0.91152(10)
C18J C 0.77760(15) 1.00680(10) 1.08848(10)
H11B H 1.1214 0.7765 1.0013
H11D H 0.9987 0.8786 0.7765
H11F H 1.0013 1.1214 0.7765
H11H H 0.7765 0.9987 0.8786
H11J H 0.7765 1.0013 1.1214
loop_
_geom_bond_atom_site_label_1
_geom_bond_atom_site_label_2
_geom_bond_site_symmetry_1
_geom_bond_site_symmetry_2
Ni1 O1 1_555 1_555
O1 Ni1D 1_555 1_555
O2 Ni1 1_555 1_555
O3 C12 1_555 1_555
O4 Ni1 1_555 1_555
O5 C13 1_555 1_555
N1 C1 1_555 1_555
C1 H1 1_555 1_555
C2 C1 1_555 1_555
H2 C2 1_555 1_555
C3 C2 1_555 1_555
C4 C3 1_555 1_555
H3 C4 1_555 1_555
C5 N1 1_555 1_555
H4 C5 1_555 1_555
C6 C3 1_555 1_555
C7 C6 1_555 1_555
H5 C7 1_555 1_555
C8 C7 1_555 1_555
H6 C8 1_555 1_555
C9 C8 1_555 1_555
C10 C9 1_555 1_555
H7 C10 1_555 1_555
C11 C6 1_555 1_555
H8 C11 1_555 1_555
C12 O2 1_555 1_555
C13 O4 1_555 1_555
C14 C13 1_555 1_555
C15 C14 1_555 1_555
H9 C15 1_555 1_555
C16 C15 1_555 1_555
C17 C16 1_555 1_555
H10 C17 1_555 1_555
C18 C14 1_555 1_555
H11 C18 1_555 1_555
Ni1D O2D 1_555 1_555
Ni1V O1O 1_555 1_555
Ni1H O1 1_555 1_555
Ni1Q O1O 1_555 1_555
Ni1B O1B 1_555 1_555
Ni1S N1 1_555 1_555
Ni1I O1B 1_555 1_555
Ni1W N1D 1_555 1_555
Ni1F O4F 1_555 1_555
Ni1A O5F 1_555 1_555
Ni1O N1H 1_555 1_555
Ni1J O4J 1_555 1_555
Ni1E O5J 1_555 1_555
Ni1N O2N 1_555 1_555
Ni1U O3N 1_555 1_555
Ni1O_2 O1O 1_555 1_555
O2D C12D 1_555 1_555
O2V Ni1V 1_555 1_555
O2H Ni1H 1_555 1_555
O2N C12N 1_555 1_555
O2O Ni1O_2 1_555 1_555
O2Q Ni1Q 1_555 1_555
O2B Ni1B 1_555 1_555
O3D Ni1 1_555 1_555
O3V Ni1Q 1_555 1_555
O3H Ni1D 1_555 1_555
O3N C12N 1_555 1_555
O3O Ni1V 1_555 1_555
O3G Ni1B 1_555 1_555
O4B Ni1B 1_555 1_555
O4D Ni1D 1_555 1_555
O4F C13F 1_555 1_555
O4H Ni1H 1_555 1_555
O4J C13J 1_555 1_555
O4V Ni1V 1_555 1_555
O4Q Ni1Q 1_555 1_555
O5B Ni1I 1_555 1_555
O5D Ni1 1_555 1_555
O5F C13F 1_555 1_555
O5H Ni1D 1_555 1_555
O5J C13J 1_555 1_555
O5O Ni1V 1_555 1_555
O5V Ni1Q 1_555 1_555
O5G Ni1B 1_555 1_555
N1D C1D 1_555 1_555
N1V Ni1 1_555 1_555
N1H C1H 1_555 1_555
N1N Ni1D 1_555 1_555
N1O Ni1F 1_555 1_555
N1G Ni1V 1_555 1_555
N1R Ni1H 1_555 1_555
N1A Ni1Q 1_555 1_555
N1W Ni1B 1_555 1_555
C1D H1D 1_555 1_555
C1V N1V 1_555 1_555
C1H H1H 1_555 1_555
C1N N1N 1_555 1_555
C1O N1O 1_555 1_555
H1V C1V 1_555 1_555
H1N C1N 1_555 1_555
H1O C1O 1_555 1_555
C2D C1D 1_555 1_555
C2V C1V 1_555 1_555
C2H C1H 1_555 1_555
C2N C1N 1_555 1_555
C2O C1O 1_555 1_555
H2D C2D 1_555 1_555
H2V C2V 1_555 1_555
H2H C2H 1_555 1_555
H2N C2N 1_555 1_555
H2O C2O 1_555 1_555
C3D C2D 1_555 1_555
C3V C2V 1_555 1_555
C3H C2H 1_555 1_555
C3N C2N 1_555 1_555
C3O C2O 1_555 1_555
C4D C3D 1_555 1_555
C4V C3V 1_555 1_555
C4H C3H 1_555 1_555
C4N C3N 1_555 1_555
C4O C3O 1_555 1_555
H3D C4D 1_555 1_555
H3V C4V 1_555 1_555
H3H C4H 1_555 1_555
H3N C4N 1_555 1_555
H3O C4O 1_555 1_555
C5D N1D 1_555 1_555
C5V N1V 1_555 1_555
C5H N1H 1_555 1_555
C5N N1N 1_555 1_555
C5O N1O 1_555 1_555
H4D C5D 1_555 1_555
H4V C5V 1_555 1_555
H4H C5H 1_555 1_555
H4N C5N 1_555 1_555
H4O C5O 1_555 1_555
C6D C3D 1_555 1_555
C6V C3V 1_555 1_555
C6H C3H 1_555 1_555
C6N C3N 1_555 1_555
C6O C3O 1_555 1_555
C7D C6D 1_555 1_555
C7V C6V 1_555 1_555
C7H C6H 1_555 1_555
C7N C6N 1_555 1_555
C7O C6O 1_555 1_555
H5D C7D 1_555 1_555
H5V C7V 1_555 1_555
H5H C7H 1_555 1_555
H5N C7N 1_555 1_555
H5O C7O 1_555 1_555
C8D C7D 1_555 1_555
C8V C7V 1_555 1_555
C8H C7H 1_555 1_555
C8N C7N 1_555 1_555
C8O C7O 1_555 1_555
H6D C8D 1_555 1_555
H6V C8V 1_555 1_555
H6H C8H 1_555 1_555
H6N C8N 1_555 1_555
H6O C8O 1_555 1_555
C9D C8D 1_555 1_555
C9V C8V 1_555 1_555
C9H C8H 1_555 1_555
C9N C8N 1_555 1_555
C9O C8O 1_555 1_555
C10D C9D 1_555 1_555
C10V C9V 1_555 1_555
C10H C9H 1_555 1_555
C10N C9N 1_555 1_555
C10O C9O 1_555 1_555
H7D C10D 1_555 1_555
H7V C10V 1_555 1_555
H7H C10H 1_555 1_555
H7N C10N 1_555 1_555
H7O C10O 1_555 1_555
C11D C6D 1_555 1_555
C11V C6V 1_555 1_555
C11H C6H 1_555 1_555
C11N C6N 1_555 1_555
C11O C6O 1_555 1_555
H8D C11D 1_555 1_555
H8V C11V 1_555 1_555
H8H C11H 1_555 1_555
H8N C11N 1_555 1_555
H8O C11O 1_555 1_555
C12D O3D 1_555 1_555
C12V O2V 1_555 1_555
C12H O2H 1_555 1_555
C12N C9N 1_555 1_555
C12O O2O 1_555 1_555
C13B O4B 1_555 1_555
C13D O4D 1_555 1_555
C13F C14F 1_555 1_555
C13H O4H 1_555 1_555
C13J C14J 1_555 1_555
C14B C13B 1_555 1_555
C14D C13D 1_555 1_555
C14F C15F 1_555 1_555
C14H C13H 1_555 1_555
C14J C15J 1_555 1_555
C15B C14B 1_555 1_555
C15D C14D 1_555 1_555
C15F H9F 1_555 1_555
C15H C14H 1_555 1_555
C15J H9J 1_555 1_555
H9B C15B 1_555 1_555
H9D C15D 1_555 1_555
H9H C15H 1_555 1_555
C16B C16 1_555 1_555
C16D C15D 1_555 1_555
C16F C15F 1_555 1_555
C16H C15H 1_555 1_555
C16J C15J 1_555 1_555
C17B C18 1_555 1_555
C17D C16D 1_555 1_555
C17F C16F 1_555 1_555
C17H C16H 1_555 1_555
C17J C16J 1_555 1_555
H10B C17B 1_555 1_555
H10D C17D 1_555 1_555
H10F C17F 1_555 1_555
H10H C17H 1_555 1_555
H10J C17J 1_555 1_555
C18B C17 1_555 1_555
C18D C14D 1_555 1_555
C18F C14F 1_555 1_555
C18H C14H 1_555 1_555
C18J C14J 1_555 1_555
H11B C18B 1_555 1_555
H11D C18D 1_555 1_555
H11F C18F 1_555 1_555
H11H C18H 1_555 1_555
H11J C18J 1_555 1_555
O3 Ni1H 1_555 1_555
O5 Ni1H 1_555 1_555
C4 C5 1_555 1_555
C9 C12 1_555 1_555
C10 C11 1_555 1_555
O3V C12V 1_555 1_555
O3H C12H 1_555 1_555
O3O C12O 1_555 1_555
O5B C13B 1_555 1_555
O5D C13D 1_555 1_555
O5H C13H 1_555 1_555
C4D C5D 1_555 1_555
C4V C5V 1_555 1_555
C4H C5H 1_555 1_555
C4N C5N 1_555 1_555
C4O C5O 1_555 1_555
C9D C12D 1_555 1_555
C9V C12V 1_555 1_555
C9H C12H 1_555 1_555
C9O C12O 1_555 1_555
C10D C11D 1_555 1_555
C10V C11V 1_555 1_555
C10H C11H 1_555 1_555
C10N C11N 1_555 1_555
C10O C11O 1_555 1_555
C14B C18B 1_555 1_555
C15B C16B 1_555 1_555
C16B C17B 1_555 1_555
C16D C16F 1_555 1_555
C16H C16J 1_555 1_555
C17D C18F 1_555 1_555
C17F C18D 1_555 1_555
C17H C18J 1_555 1_555
C17J C18H 1_555 1_555

#END
