
#######################################################################
#
#                 Cambridge Crystallographic Data Centre
#                                CCDC 
#
#######################################################################
#
# If this CIF has been generated from an entry in the Cambridge 
# Structural Database, then it will include bibliographic, chemical, 
# crystal, experimental, refinement or atomic coordinate data resulting 
# from the CCDC's data processing and validation procedures.
#
#######################################################################

data_KARMOH
_chemical_formula_moiety         'C276 H192 N19 Ni30 O70'
_symmetry_cell_setting           cubic
_symmetry_space_group_name_H-M   'I -4 3 m'
_symmetry_Int_Tables_number      217
_space_group_name_Hall           'I -4 2 3'
loop_
_symmetry_equiv_pos_site_id
_symmetry_equiv_pos_as_xyz
1 x,y,z
2 -x,-y,z
3 -x,y,-z
4 x,-y,-z
5 z,x,y
6 z,-x,-y
7 -z,-x,y
8 -z,x,-y
9 y,z,x
10 -y,z,-x
11 y,-z,-x
12 -y,-z,x
13 y,x,z
14 -y,-x,z
15 y,-x,-z
16 -y,x,-z
17 x,z,y
18 -x,z,-y
19 -x,-z,y
20 x,-z,-y
21 z,y,x
22 z,-y,-x
23 -z,y,-x
24 -z,-y,x
25 1/2+x,1/2+y,1/2+z
26 1/2-x,1/2-y,1/2+z
27 1/2-x,1/2+y,1/2-z
28 1/2+x,1/2-y,1/2-z
29 1/2+z,1/2+x,1/2+y
30 1/2+z,1/2-x,1/2-y
31 1/2-z,1/2-x,1/2+y
32 1/2-z,1/2+x,1/2-y
33 1/2+y,1/2+z,1/2+x
34 1/2-y,1/2+z,1/2-x
35 1/2+y,1/2-z,1/2-x
36 1/2-y,1/2-z,1/2+x
37 1/2+y,1/2+x,1/2+z
38 1/2-y,1/2-x,1/2+z
39 1/2+y,1/2-x,1/2-z
40 1/2-y,1/2+x,1/2-z
41 1/2+x,1/2+z,1/2+y
42 1/2-x,1/2+z,1/2-y
43 1/2-x,1/2-z,1/2+y
44 1/2+x,1/2-z,1/2-y
45 1/2+z,1/2+y,1/2+x
46 1/2+z,1/2-y,1/2-x
47 1/2-z,1/2+y,1/2-x
48 1/2-z,1/2-y,1/2+x
_cell_length_a                   32.5478(18)
_cell_length_b                   32.5478(18)
_cell_length_c                   32.5478(18)
_cell_angle_alpha                90
_cell_angle_beta                 90
_cell_angle_gamma                90
_cell_volume                     34479.8
loop_
_atom_site_label
_atom_site_type_symbol
_atom_site_fract_x
_atom_site_fract_y
_atom_site_fract_z
Ni1 Ni 0.299694(6) -0.625816(6) -0.299694(7)
O1 O 0.32548(7) -0.67452(7) -0.32548(7)
C1 C 0.28930(5) -0.60910(8) -0.39090(5)
N1 N 0.27294(6) -0.57548(5) -0.27294(5)
C2 C 0.18311(6) -0.31945(9) -0.18311(6)
C3 C 0.28153(5) -0.57693(8) -0.42307(5)
C4 C 0.17502(5) -0.27483(7) -0.17502(5)
C5 C 0.27230(6) -0.51616(10) -0.48384(6)
C6 C 0.21325(9) -0.34015(7) -0.16170(8)
H1 H 0.2281 -0.3264 -0.1406
C7 C 0.27910(7) -0.53597(7) -0.41321(7)
H2 H 0.2806 -0.5282 -0.3851
C8 C 0.27460(7) -0.50582(8) -0.44236(8)
H3 H 0.2730 -0.4778 -0.4342
C9 C 0.20127(10) -0.40155(10) -0.20127(10)
C10 C 0.29008(10) -0.55777(6) -0.23850(8)
H4 H 0.3135 -0.5699 -0.2259
C11 C 0.27287(11) -0.52172(7) -0.22203(10)
H5 H 0.2853 -0.5097 -0.1985
C12 C 0.22212(12) -0.38088(8) -0.17062(10)
H6 H 0.2428 -0.3947 -0.1554
C13 C 0.2335(2) -0.46724(15) -0.21191(19)
H7 H 0.2496 -0.4631 -0.1879
C14 C 0.23868(8) -0.50328(10) -0.23868(8)
C15 C 0.2044(2) -0.44062(15) -0.2238(2)
H8 H 0.2459 -0.4468 -0.1864
O2 O 0.29241(4) -0.59708(6) -0.35506(4)
O3 O 0.19666(7) -0.25853(4) -0.14929(5)
Ni1J Ni 0.374184(6) -0.700306(7) -0.299694(6)
Ni1FA Ni -0.125816(6) -0.799694(7) -0.200306(6)
Ni1CA Ni 0.200306(7) -0.799694(6) 0.125816(6)
Ni1F Ni 0.299694(7) -0.299694(6) -0.625816(6)
Ni1C Ni 0.299694(6) -0.374184(6) -0.700306(7)
Ni1G Ni 0.299694(7) -0.700306(6) -0.374184(6)
Ni1I Ni 0.625816(6) -0.299694(7) -0.299694(6)
Ni1A Ni 0.700306(6) -0.374184(6) -0.299694(7)
Ni1BA Ni 0.200306(7) -0.200306(6) -0.125816(6)
Ni1IA Ni 0.125816(6) -0.200306(7) -0.200306(6)
Ni1DA Ni -0.200306(7) -0.799694(6) -0.125816(6)
Ni1AA Ni 0.799694(6) -0.874184(6) -0.200306(7)
Ni1DA_2 Ni 0.799694(7) -0.799694(6) -0.125816(6)
Ni1D Ni 0.700306(7) -0.700306(6) -0.625816(6)
Ni1K Ni 0.625816(6) -0.700306(7) -0.700306(6)
Ni1Z Ni 0.200306(6) -1.125816(6) -0.200306(7)
Ni1AA_2 Ni -0.200306(6) -0.874184(6) -0.200306(7)
Ni1IA_2 Ni 0.125816(6) -1.200306(7) -0.200306(6)
Ni1D_2 Ni -0.299694(7) -0.700306(6) -0.625816(6)
Ni1GA Ni 0.125816(6) -0.799694(7) 0.200306(6)
Ni1A_2 Ni -0.299694(6) -0.374184(6) -0.299694(7)
Ni1Y Ni 0.200306(6) -0.874184(6) 0.200306(7)
Ni1BA_2 Ni 0.200306(7) -1.200306(6) -0.125816(6)
Ni1K_2 Ni 0.625816(6) -0.700306(7) 0.299694(6)
Ni1C_2 Ni 0.299694(6) -0.374184(6) 0.299694(7)
Ni1H Ni 0.374184(6) -0.299694(7) -0.700306(6)
Ni1Z_2 Ni 0.200306(6) -0.125816(6) -0.200306(7)
Ni1HA Ni -0.125816(6) -0.200306(7) -0.799694(6)
Ni1Y_2 Ni 0.200306(6) 0.125816(6) -0.799694(7)
O1AA O -0.17452(7) -0.82548(7) -0.17452(7)
O1Y O 0.17452(7) -0.82548(7) 0.17452(7)
O1C O 0.32548(7) -0.32548(7) -0.67452(7)
O1A O 0.67452(7) -0.32548(7) -0.32548(7)
O1Z O 0.17452(7) -0.17452(7) -0.17452(7)
C1C C 0.28930(5) -0.39090(8) -0.60910(5)
C1J C 0.39090(8) -0.60910(5) -0.28930(5)
C1I C 0.60910(8) -0.39090(5) -0.28930(5)
C1G C 0.39090(5) -0.71070(5) -0.39090(8)
C1D C 0.60910(5) -0.71070(5) -0.60910(8)
C1FA C -0.10910(8) -0.89090(5) -0.21070(5)
C1IA C 0.10910(8) -1.10910(5) -0.21070(5)
C1DA C -0.10910(5) -0.78930(5) -0.10910(8)
C1CA C 0.10910(5) -0.78930(5) 0.10910(8)
C1Y C 0.21070(5) -0.89090(8) 0.10910(5)
C1Z C 0.21070(5) -1.10910(8) -0.10910(5)
N1FA N -0.07548(5) -0.77294(5) -0.22706(6)
N1CA N 0.22706(5) -0.77294(6) 0.07548(5)
N1J N 0.42452(5) -0.72706(5) -0.27294(6)
N1Z N 0.22706(6) -1.07548(5) -0.22706(5)
N1D N -0.27294(5) -0.72706(6) -0.57548(5)
N1A N -0.27294(6) -0.42452(5) -0.27294(5)
N1K N 0.57548(5) -0.72706(5) 0.27294(6)
N1C N 0.27294(6) -0.42452(5) 0.27294(5)
N1F N 0.27294(5) -0.27294(6) -0.57548(5)
N1HA N -0.07548(5) -0.22706(5) -0.77294(6)
N1Y N 0.22706(6) 0.07548(5) -0.77294(5)
N1C_2 N 0.27294(6) -0.42452(5) -0.72706(5)
N1G N 0.27294(5) -0.72706(6) -0.42452(5)
N1I N 0.57548(5) -0.27294(5) -0.27294(6)
N1A_2 N 0.72706(6) -0.42452(5) -0.27294(5)
N1BA N 0.22706(5) -0.22706(6) -0.07548(5)
N1IA N 0.07548(5) -0.22706(5) -0.22706(6)
N1DA N -0.22706(5) -0.77294(6) -0.07548(5)
C2FA C 0.18055(9) -0.68311(6) -0.31689(6)
C2CA C 0.31689(6) -0.68311(6) -0.18055(9)
C2J C 0.68055(9) -0.81689(6) -0.18311(6)
C2Z C 0.31689(6) -0.81945(9) -0.31689(6)
C2D C -0.18311(6) -0.81689(6) -0.31945(9)
C2A C -0.18311(6) -0.68055(9) -0.18311(6)
C2K C 0.31945(9) -0.81689(6) 0.18311(6)
C2C C 0.18311(6) -0.68055(9) 0.18311(6)
C2F C 0.18311(6) -0.18311(6) -0.31945(9)
C2HA C 0.18055(9) -0.31689(6) -0.68311(6)
C2Y C 0.31689(6) -0.18055(9) -0.68311(6)
C3C C 0.28153(5) -0.42307(8) -0.57693(5)
C3J C 0.42307(8) -0.57693(5) -0.28153(5)
C3I C 0.57693(8) -0.42307(5) -0.28153(5)
C3G C 0.42307(5) -0.71847(5) -0.42307(8)
C3D C 0.57693(5) -0.71847(5) -0.57693(8)
C3FA C -0.07693(8) -0.92307(5) -0.21847(5)
C3IA C 0.07693(8) -1.07693(5) -0.21847(5)
C3DA C -0.07693(5) -0.78153(5) -0.07693(8)
C3CA C 0.07693(5) -0.78153(5) 0.07693(8)
C3Y C 0.21847(5) -0.92307(8) 0.07693(5)
C3Z C 0.21847(5) -1.07693(8) -0.07693(5)
C4FA C 0.22517(7) -0.67502(5) -0.32498(5)
C4CA C 0.32498(5) -0.67502(5) -0.22517(7)
C4J C 0.72517(7) -0.82498(5) -0.17502(5)
C4Z C 0.32498(5) -0.77483(7) -0.32498(5)
C4D C -0.17502(5) -0.82498(5) -0.27483(7)
C4A C -0.17502(5) -0.72517(7) -0.17502(5)
C4K C 0.27483(7) -0.82498(5) 0.17502(5)
C4C C 0.17502(5) -0.72517(7) 0.17502(5)
C4F C 0.17502(5) -0.17502(5) -0.27483(7)
C4HA C 0.22517(7) -0.32498(5) -0.67502(5)
C4Y C 0.32498(5) -0.22517(7) -0.67502(5)
C5C C 0.27230(6) -0.48384(10) -0.51616(6)
C5J C 0.48384(10) -0.51616(6) -0.27230(6)
C5I C 0.51616(10) -0.48384(6) -0.27230(6)
C5G C 0.48384(6) -0.72770(6) -0.48384(10)
C5D C 0.51616(6) -0.72770(6) -0.51616(10)
C5FA C -0.01616(10) -0.98384(6) -0.22770(6)
C5IA C 0.01616(10) -1.01616(6) -0.22770(6)
C5DA C -0.01616(6) -0.77230(6) -0.01616(10)
C5CA C 0.01616(6) -0.77230(6) 0.01616(10)
C5Y C 0.22770(6) -0.98384(10) 0.01616(6)
C5Z C 0.22770(6) -1.01616(10) -0.01616(6)
C6V C 0.16170(8) -0.34015(7) -0.21325(9)
C6FA C 0.15985(7) -0.66170(8) -0.28675(9)
C6LA C 0.15985(7) -0.71325(9) -0.33830(8)
C6OA C 0.28675(9) -0.66170(8) -0.15985(7)
C6CA C 0.33830(8) -0.71325(9) -0.15985(7)
C6J C 0.65985(7) -0.83830(8) -0.21325(9)
C6L C 0.65985(7) -0.78675(9) -0.16170(8)
C6RA C 0.33830(8) -0.84015(7) -0.28675(9)
C6Z C 0.28675(9) -0.84015(7) -0.33830(8)
C6D C -0.16170(8) -0.78675(9) -0.34015(7)
C6R C -0.21325(9) -0.83830(8) -0.34015(7)
C6U C -0.16170(8) -0.65985(7) -0.21325(9)
C6A C -0.21325(9) -0.65985(7) -0.16170(8)
C6O C 0.34015(7) -0.78675(9) 0.16170(8)
C6K C 0.34015(7) -0.83830(8) 0.21325(9)
C6C C 0.21325(9) -0.65985(7) 0.16170(8)
C6W C 0.16170(8) -0.65985(7) 0.21325(9)
C6P C 0.21325(9) -0.16170(8) -0.34015(7)
C6F C 0.16170(8) -0.21325(9) -0.34015(7)
C6JA C 0.15985(7) -0.28675(9) -0.66170(8)
C6HA C 0.15985(7) -0.33830(8) -0.71325(9)
C6Y C 0.28675(9) -0.15985(7) -0.66170(8)
C6SA C 0.33830(8) -0.15985(7) -0.71325(9)
H1V H 0.1406 -0.3264 -0.2281
H1FA H 0.1736 -0.6406 -0.2719
H1LA H 0.1736 -0.7281 -0.3594
H1OA H 0.2719 -0.6406 -0.1736
H1CA H 0.3594 -0.7281 -0.1736
H1J H 0.6736 -0.8594 -0.2281
H1L H 0.6736 -0.7719 -0.1406
H1RA H 0.3594 -0.8264 -0.2719
H1Z H 0.2719 -0.8264 -0.3594
H1D H -0.1406 -0.7719 -0.3264
H1R H -0.2281 -0.8594 -0.3264
H1U H -0.1406 -0.6736 -0.2281
H1A H -0.2281 -0.6736 -0.1406
H1O H 0.3264 -0.7719 0.1406
H1K H 0.3264 -0.8594 0.2281
H1C H 0.2281 -0.6736 0.1406
H1W H 0.1406 -0.6736 0.2281
H1P H 0.2281 -0.1406 -0.3264
H1F H 0.1406 -0.2281 -0.3264
H1JA H 0.1736 -0.2719 -0.6406
H1HA H 0.1736 -0.3594 -0.7281
H1Y H 0.2719 -0.1736 -0.6406
H1SA H 0.3594 -0.1736 -0.7281
C7C C 0.27910(7) -0.46403(7) -0.58679(7)
C7P C 0.27910(7) -0.41321(7) -0.53597(7)
C7S C 0.27910(7) -0.58679(7) -0.46403(7)
C7V C 0.41321(7) -0.53597(7) -0.27910(7)
C7U C 0.58679(7) -0.46403(7) -0.27910(7)
C7I C 0.53597(7) -0.41321(7) -0.27910(7)
C7J C 0.46403(7) -0.58679(7) -0.27910(7)
C7L C 0.46403(7) -0.72090(7) -0.41321(7)
C7O C 0.53597(7) -0.72090(7) -0.58679(7)
C7D C 0.58679(7) -0.72090(7) -0.53597(7)
C7G C 0.41321(7) -0.72090(7) -0.46403(7)
C7FA C -0.03597(7) -0.91321(7) -0.22090(7)
C7IA C 0.03597(7) -1.08679(7) -0.22090(7)
C7RA C 0.08679(7) -1.03597(7) -0.22090(7)
C7UA C -0.08679(7) -0.96403(7) -0.22090(7)
C7LA C -0.03597(7) -0.77910(7) -0.08679(7)
C7KA C 0.03597(7) -0.77910(7) 0.08679(7)
C7CA C 0.08679(7) -0.77910(7) 0.03597(7)
C7DA C -0.08679(7) -0.77910(7) -0.03597(7)
C7OA C 0.22090(7) -0.91321(7) 0.03597(7)
C7PA C 0.22090(7) -1.08679(7) -0.03597(7)
C7Z C 0.22090(7) -1.03597(7) -0.08679(7)
C7Y C 0.22090(7) -0.96403(7) 0.08679(7)
H2P H 0.2806 -0.3851 -0.5282
H2C H 0.2806 -0.4718 -0.6149
H2S H 0.2806 -0.6149 -0.4718
H2V H 0.3851 -0.5282 -0.2806
H2I H 0.5282 -0.3851 -0.2806
H2U H 0.6149 -0.4718 -0.2806
H2J H 0.4718 -0.6149 -0.2806
H2L H 0.4718 -0.7194 -0.3851
H2D H 0.6149 -0.7194 -0.5282
H2O H 0.5282 -0.7194 -0.6149
H2G H 0.3851 -0.7194 -0.4718
H2FA H -0.0282 -0.8851 -0.2194
H2RA H 0.1149 -1.0282 -0.2194
H2IA H 0.0282 -1.1149 -0.2194
H2UA H -0.1149 -0.9718 -0.2194
H2LA H -0.0282 -0.7806 -0.1149
H2CA H 0.1149 -0.7806 0.0282
H2KA H 0.0282 -0.7806 0.1149
H2DA H -0.1149 -0.7806 -0.0282
H2OA H 0.2194 -0.8851 0.0282
H2Z H 0.2194 -1.0282 -0.1149
H2PA H 0.2194 -1.1149 -0.0282
H2Y H 0.2194 -0.9718 0.1149
C8C C 0.27460(7) -0.49418(8) -0.55764(8)
C8P C 0.27460(7) -0.44236(8) -0.50582(8)
C8S C 0.27460(7) -0.55764(8) -0.49418(8)
C8V C 0.44236(8) -0.50582(8) -0.27460(7)
C8U C 0.55764(8) -0.49418(8) -0.27460(7)
C8I C 0.50582(8) -0.44236(8) -0.27460(7)
C8J C 0.49418(8) -0.55764(8) -0.27460(7)
C8L C 0.49418(8) -0.72540(7) -0.44236(8)
C8O C 0.50582(8) -0.72540(7) -0.55764(8)
C8D C 0.55764(8) -0.72540(7) -0.50582(8)
C8G C 0.44236(8) -0.72540(7) -0.49418(8)
C8FA C -0.00582(8) -0.94236(8) -0.22540(7)
C8IA C 0.00582(8) -1.05764(8) -0.22540(7)
C8RA C 0.05764(8) -1.00582(8) -0.22540(7)
C8UA C -0.05764(8) -0.99418(8) -0.22540(7)
C8LA C -0.00582(8) -0.77460(7) -0.05764(8)
C8KA C 0.00582(8) -0.77460(7) 0.05764(8)
C8CA C 0.05764(8) -0.77460(7) 0.00582(8)
C8DA C -0.05764(8) -0.77460(7) -0.00582(8)
C8OA C 0.22540(7) -0.94236(8) 0.00582(8)
C8PA C 0.22540(7) -1.05764(8) -0.00582(8)
C8Z C 0.22540(7) -1.00582(8) -0.05764(8)
C8Y C 0.22540(7) -0.99418(8) 0.05764(8)
H3P H 0.2730 -0.4342 -0.4778
H3C H 0.2730 -0.5222 -0.5658
H3S H 0.2730 -0.5658 -0.5222
H3V H 0.4342 -0.4778 -0.2730
H3I H 0.4778 -0.4342 -0.2730
H3U H 0.5658 -0.5222 -0.2730
H3J H 0.5222 -0.5658 -0.2730
H3L H 0.5222 -0.7270 -0.4342
H3D H 0.5658 -0.7270 -0.4778
H3O H 0.4778 -0.7270 -0.5658
H3G H 0.4342 -0.7270 -0.5222
H3FA H 0.0222 -0.9342 -0.2270
H3RA H 0.0658 -0.9778 -0.2270
H3IA H -0.0222 -1.0658 -0.2270
H3UA H -0.0658 -1.0222 -0.2270
H3LA H 0.0222 -0.7730 -0.0658
H3CA H 0.0658 -0.7730 -0.0222
H3KA H -0.0222 -0.7730 0.0658
H3DA H -0.0658 -0.7730 0.0222
H3OA H 0.2270 -0.9342 -0.0222
H3Z H 0.2270 -0.9778 -0.0658
H3PA H 0.2270 -1.0658 0.0222
H3Y H 0.2270 -1.0222 0.0658
C9FA C 0.09845(10) -0.70127(10) -0.29873(10)
C9CA C 0.29873(10) -0.70127(10) -0.09845(10)
C9J C 0.59845(10) -0.79873(10) -0.20127(10)
C9Z C 0.29873(10) -0.90155(10) -0.29873(10)
C9D C -0.20127(10) -0.79873(10) -0.40155(10)
C9A C -0.20127(10) -0.59845(10) -0.20127(10)
C9K C 0.40155(10) -0.79873(10) 0.20127(10)
C9C C 0.20127(10) -0.59845(10) 0.20127(10)
C9F C 0.20127(10) -0.20127(10) -0.40155(10)
C9HA C 0.09845(10) -0.29873(10) -0.70127(10)
C9Y C 0.29873(10) -0.09845(10) -0.70127(10)
C10V C 0.23850(8) -0.55777(6) -0.29008(10)
C10FA C -0.05777(6) -0.73850(8) -0.20992(10)
C10LA C -0.05777(6) -0.79008(10) -0.26150(8)
C10OA C 0.20992(10) -0.73850(8) 0.05777(6)
C10CA C 0.26150(8) -0.79008(10) 0.05777(6)
C10J C 0.44223(6) -0.76150(8) -0.29008(10)
C10L C 0.44223(6) -0.70992(10) -0.23850(8)
C10RA C 0.26150(8) -1.05777(6) -0.20992(10)
C10Z C 0.20992(10) -1.05777(6) -0.26150(8)
C10D C -0.23850(8) -0.70992(10) -0.55777(6)
C10R C -0.29008(10) -0.76150(8) -0.55777(6)
C10U C -0.23850(8) -0.44223(6) -0.29008(10)
C10A C -0.29008(10) -0.44223(6) -0.23850(8)
C10O C 0.55777(6) -0.70992(10) 0.23850(8)
C10K C 0.55777(6) -0.76150(8) 0.29008(10)
C10C C 0.29008(10) -0.44223(6) 0.23850(8)
C10W C 0.23850(8) -0.44223(6) 0.29008(10)
C10P C 0.29008(10) -0.23850(8) -0.55777(6)
C10F C 0.23850(8) -0.29008(10) -0.55777(6)
C10JA C -0.05777(6) -0.20992(10) -0.73850(8)
C10HA C -0.05777(6) -0.26150(8) -0.79008(10)
C10Y C 0.20992(10) 0.05777(6) -0.73850(8)
C10SA C 0.26150(8) 0.05777(6) -0.79008(10)
H4V H 0.2259 -0.5699 -0.3135
H4FA H -0.0699 -0.7259 -0.1865
H4LA H -0.0699 -0.8135 -0.2741
H4OA H 0.1865 -0.7259 0.0699
H4CA H 0.2741 -0.8135 0.0699
H4J H 0.4301 -0.7741 -0.3135
H4L H 0.4301 -0.6865 -0.2259
H4RA H 0.2741 -1.0699 -0.1865
H4Z H 0.1865 -1.0699 -0.2741
H4D H -0.2259 -0.6865 -0.5699
H4R H -0.3135 -0.7741 -0.5699
H4U H -0.2259 -0.4301 -0.3135
H4A H -0.3135 -0.4301 -0.2259
H4O H 0.5699 -0.6865 0.2259
H4K H 0.5699 -0.7741 0.3135
H4C H 0.3135 -0.4301 0.2259
H4W H 0.2259 -0.4301 0.3135
H4P H 0.3135 -0.2259 -0.5699
H4F H 0.2259 -0.3135 -0.5699
H4JA H -0.0699 -0.1865 -0.7259
H4HA H -0.0699 -0.2741 -0.8135
H4Y H 0.1865 0.0699 -0.7259
H4SA H 0.2741 0.0699 -0.8135
C11V C 0.22203(10) -0.52172(7) -0.27287(11)
C11FA C -0.02172(7) -0.72203(10) -0.22713(11)
C11LA C -0.02172(7) -0.77287(11) -0.27797(10)
C11OA C 0.22713(11) -0.72203(10) 0.02172(7)
C11CA C 0.27797(10) -0.77287(11) 0.02172(7)
C11J C 0.47828(7) -0.77797(10) -0.27287(11)
C11L C 0.47828(7) -0.72713(11) -0.22203(10)
C11RA C 0.27797(10) -1.02172(7) -0.22713(11)
C11Z C 0.22713(11) -1.02172(7) -0.27797(10)
C11D C -0.22203(10) -0.72713(11) -0.52172(7)
C11R C -0.27287(11) -0.77797(10) -0.52172(7)
C11U C -0.22203(10) -0.47828(7) -0.27287(11)
C11A C -0.27287(11) -0.47828(7) -0.22203(10)
C11O C 0.52172(7) -0.72713(11) 0.22203(10)
C11K C 0.52172(7) -0.77797(10) 0.27287(11)
C11C C 0.27287(11) -0.47828(7) 0.22203(10)
C11W C 0.22203(10) -0.47828(7) 0.27287(11)
C11P C 0.27287(11) -0.22203(10) -0.52172(7)
C11F C 0.22203(10) -0.27287(11) -0.52172(7)
C11JA C -0.02172(7) -0.22713(11) -0.72203(10)
C11HA C -0.02172(7) -0.27797(10) -0.77287(11)
C11Y C 0.22713(11) 0.02172(7) -0.72203(10)
C11SA C 0.27797(10) 0.02172(7) -0.77287(11)
H5V H 0.1985 -0.5097 -0.2853
H5FA H -0.0097 -0.6985 -0.2147
H5LA H -0.0097 -0.7853 -0.3015
H5OA H 0.2147 -0.6985 0.0097
H5CA H 0.3015 -0.7853 0.0097
H5J H 0.4903 -0.8015 -0.2853
H5L H 0.4903 -0.7147 -0.1985
H5RA H 0.3015 -1.0097 -0.2147
H5Z H 0.2147 -1.0097 -0.3015
H5D H -0.1985 -0.7147 -0.5097
H5R H -0.2853 -0.8015 -0.5097
H5U H -0.1985 -0.4903 -0.2853
H5A H -0.2853 -0.4903 -0.1985
H5O H 0.5097 -0.7147 0.1985
H5K H 0.5097 -0.8015 0.2853
H5C H 0.2853 -0.4903 0.1985
H5W H 0.1985 -0.4903 0.2853
H5P H 0.2853 -0.1985 -0.5097
H5F H 0.1985 -0.2853 -0.5097
H5JA H -0.0097 -0.2147 -0.6985
H5HA H -0.0097 -0.3015 -0.7853
H5Y H 0.2147 0.0097 -0.6985
H5SA H 0.3015 0.0097 -0.7853
C12V C 0.17062(10) -0.38088(8) -0.22212(12)
C12FA C 0.11912(8) -0.67062(10) -0.27788(12)
C12LA C 0.11912(8) -0.72212(12) -0.32938(10)
C12OA C 0.27788(12) -0.67062(10) -0.11912(8)
C12CA C 0.32938(10) -0.72212(12) -0.11912(8)
C12J C 0.61912(8) -0.82938(10) -0.22212(12)
C12L C 0.61912(8) -0.77788(12) -0.17062(10)
C12RA C 0.32938(10) -0.88088(8) -0.27788(12)
C12Z C 0.27788(12) -0.88088(8) -0.32938(10)
C12D C -0.17062(10) -0.77788(12) -0.38088(8)
C12R C -0.22212(12) -0.82938(10) -0.38088(8)
C12U C -0.17062(10) -0.61912(8) -0.22212(12)
C12A C -0.22212(12) -0.61912(8) -0.17062(10)
C12O C 0.38088(8) -0.77788(12) 0.17062(10)
C12K C 0.38088(8) -0.82938(10) 0.22212(12)
C12C C 0.22212(12) -0.61912(8) 0.17062(10)
C12W C 0.17062(10) -0.61912(8) 0.22212(12)
C12P C 0.22212(12) -0.17062(10) -0.38088(8)
C12F C 0.17062(10) -0.22212(12) -0.38088(8)
C12JA C 0.11912(8) -0.27788(12) -0.67062(10)
C12HA C 0.11912(8) -0.32938(10) -0.72212(12)
C12Y C 0.27788(12) -0.11912(8) -0.67062(10)
C12SA C 0.32938(10) -0.11912(8) -0.72212(12)
H6V H 0.1554 -0.3947 -0.2428
H6FA H 0.1053 -0.6554 -0.2572
H6LA H 0.1053 -0.7428 -0.3446
H6OA H 0.2572 -0.6554 -0.1053
H6CA H 0.3446 -0.7428 -0.1053
H6J H 0.6053 -0.8446 -0.2428
H6L H 0.6053 -0.7572 -0.1554
H6RA H 0.3446 -0.8947 -0.2572
H6Z H 0.2572 -0.8947 -0.3446
H6D H -0.1554 -0.7572 -0.3947
H6R H -0.2428 -0.8446 -0.3947
H6U H -0.1554 -0.6053 -0.2428
H6A H -0.2428 -0.6053 -0.1554
H6O H 0.3947 -0.7572 0.1554
H6K H 0.3947 -0.8446 0.2428
H6C H 0.2428 -0.6053 0.1554
H6W H 0.1554 -0.6053 0.2428
H6P H 0.2428 -0.1554 -0.3947
H6F H 0.1554 -0.2428 -0.3947
H6JA H 0.1053 -0.2572 -0.6554
H6HA H 0.1053 -0.3446 -0.7428
H6Y H 0.2572 -0.1053 -0.6554
H6SA H 0.3446 -0.1053 -0.7428
C13V C 0.21191(19) -0.46724(15) -0.2335(2)
C13FA C 0.03276(15) -0.71191(19) -0.2665(2)
C13LA C 0.03276(15) -0.7335(2) -0.28809(19)
C13OA C 0.2665(2) -0.71191(19) -0.03276(15)
C13CA C 0.28809(19) -0.7335(2) -0.03276(15)
C13J C 0.53276(15) -0.78809(19) -0.2335(2)
C13L C 0.53276(15) -0.7665(2) -0.21191(19)
C13RA C 0.28809(19) -0.96724(15) -0.2665(2)
C13Z C 0.2665(2) -0.96724(15) -0.28809(19)
C13D C -0.21191(19) -0.7665(2) -0.46724(15)
C13R C -0.2335(2) -0.78809(19) -0.46724(15)
C13U C -0.21191(19) -0.53276(15) -0.2335(2)
C13A C -0.2335(2) -0.53276(15) -0.21191(19)
C13O C 0.46724(15) -0.7665(2) 0.21191(19)
C13K C 0.46724(15) -0.78809(19) 0.2335(2)
C13C C 0.2335(2) -0.53276(15) 0.21191(19)
C13W C 0.21191(19) -0.53276(15) 0.2335(2)
C13P C 0.2335(2) -0.21191(19) -0.46724(15)
C13F C 0.21191(19) -0.2335(2) -0.46724(15)
C13JA C 0.03276(15) -0.2665(2) -0.71191(19)
C13HA C 0.03276(15) -0.28809(19) -0.7335(2)
C13Y C 0.2665(2) -0.03276(15) -0.71191(19)
C13SA C 0.28809(19) -0.03276(15) -0.7335(2)
H7V H 0.1879 -0.4631 -0.2496
H7FA H 0.0369 -0.6879 -0.2504
H7LA H 0.0369 -0.7496 -0.3121
H7OA H 0.2504 -0.6879 -0.0369
H7CA H 0.3121 -0.7496 -0.0369
H7J H 0.5369 -0.8121 -0.2496
H7L H 0.5369 -0.7504 -0.1879
H7RA H 0.3121 -0.9631 -0.2504
H7Z H 0.2504 -0.9631 -0.3121
H7D H -0.1879 -0.7504 -0.4631
H7R H -0.2496 -0.8121 -0.4631
H7U H -0.1879 -0.5369 -0.2496
H7A H -0.2496 -0.5369 -0.1879
H7O H 0.4631 -0.7504 0.1879
H7K H 0.4631 -0.8121 0.2496
H7C H 0.2496 -0.5369 0.1879
H7W H 0.1879 -0.5369 0.2496
H7P H 0.2496 -0.1879 -0.4631
H7F H 0.1879 -0.2496 -0.4631
H7JA H 0.0369 -0.2504 -0.6879
H7HA H 0.0369 -0.3121 -0.7496
H7Y H 0.2504 -0.0369 -0.6879
H7SA H 0.3121 -0.0369 -0.7496
C14FA C -0.00328(10) -0.73868(8) -0.26132(8)
C14CA C 0.26132(8) -0.73868(8) 0.00328(10)
C14J C 0.49672(10) -0.76132(8) -0.23868(8)
C14Z C 0.26132(8) -1.00328(10) -0.26132(8)
C14D C -0.23868(8) -0.76132(8) -0.50328(10)
C14A C -0.23868(8) -0.49672(10) -0.23868(8)
C14K C 0.50328(10) -0.76132(8) 0.23868(8)
C14C C 0.23868(8) -0.49672(10) 0.23868(8)
C14F C 0.23868(8) -0.23868(8) -0.50328(10)
C14HA C -0.00328(10) -0.26132(8) -0.73868(8)
C14Y C 0.26132(8) 0.00328(10) -0.73868(8)
C15V C 0.2238(2) -0.44062(15) -0.2044(2)
C15FA C 0.05938(15) -0.7238(2) -0.2956(2)
C15LA C 0.05938(15) -0.7044(2) -0.2762(2)
C15OA C 0.2956(2) -0.7238(2) -0.05938(15)
C15CA C 0.2762(2) -0.7044(2) -0.05938(15)
C15J C 0.55938(15) -0.7762(2) -0.2044(2)
C15L C 0.55938(15) -0.7956(2) -0.2238(2)
C15RA C 0.2762(2) -0.94062(15) -0.2956(2)
C15Z C 0.2956(2) -0.94062(15) -0.2762(2)
C15D C -0.2238(2) -0.7956(2) -0.44062(15)
C15R C -0.2044(2) -0.7762(2) -0.44062(15)
C15U C -0.2238(2) -0.55938(15) -0.2044(2)
C15A C -0.2044(2) -0.55938(15) -0.2238(2)
C15O C 0.44062(15) -0.7956(2) 0.2238(2)
C15K C 0.44062(15) -0.7762(2) 0.2044(2)
C15C C 0.2044(2) -0.55938(15) 0.2238(2)
C15W C 0.2238(2) -0.55938(15) 0.2044(2)
C15P C 0.2044(2) -0.2238(2) -0.44062(15)
C15F C 0.2238(2) -0.2044(2) -0.44062(15)
C15JA C 0.05938(15) -0.2956(2) -0.7238(2)
C15HA C 0.05938(15) -0.2762(2) -0.7044(2)
C15Y C 0.2956(2) -0.05938(15) -0.7238(2)
C15SA C 0.2762(2) -0.05938(15) -0.7044(2)
H8V H 0.1864 -0.4468 -0.2459
H8FA H 0.0532 -0.6864 -0.2541
H8LA H 0.0532 -0.7459 -0.3136
H8OA H 0.2541 -0.6864 -0.0532
H8CA H 0.3136 -0.7459 -0.0532
H8J H 0.5532 -0.8136 -0.2459
H8L H 0.5532 -0.7541 -0.1864
H8RA H 0.3136 -0.9468 -0.2541
H8Z H 0.2541 -0.9468 -0.3136
H8D H -0.1864 -0.7541 -0.4468
H8R H -0.2459 -0.8136 -0.4468
H8U H -0.1864 -0.5532 -0.2459
H8A H -0.2459 -0.5532 -0.1864
H8O H 0.4468 -0.7541 0.1864
H8K H 0.4468 -0.8136 0.2459
H8C H 0.2459 -0.5532 0.1864
H8W H 0.1864 -0.5532 0.2459
H8P H 0.2459 -0.1864 -0.4468
H8F H 0.1864 -0.2459 -0.4468
H8JA H 0.0532 -0.2541 -0.6864
H8HA H 0.0532 -0.3136 -0.7459
H8Y H 0.2541 -0.0532 -0.6864
H8SA H 0.3136 -0.0532 -0.7459
O2P O 0.29241(4) -0.35506(4) -0.59708(6)
O2C O 0.29241(4) -0.40292(6) -0.64494(4)
O2S O 0.29241(4) -0.64494(4) -0.40292(6)
O2V O 0.35506(4) -0.59708(6) -0.29241(4)
O2I O 0.59708(6) -0.35506(4) -0.29241(4)
O2U O 0.64494(4) -0.40292(6) -0.29241(4)
O2J O 0.40292(6) -0.64494(4) -0.29241(4)
O2L O 0.40292(6) -0.70759(4) -0.35506(4)
O2D O 0.64494(4) -0.70759(4) -0.59708(6)
O2O O 0.59708(6) -0.70759(4) -0.64494(4)
O2G O 0.35506(4) -0.70759(4) -0.40292(6)
O2FA O -0.09708(6) -0.85506(4) -0.20759(4)
O2RA O 0.14494(4) -1.09708(6) -0.20759(4)
O2IA O 0.09708(6) -1.14494(4) -0.20759(4)
O2UA O -0.14494(4) -0.90292(6) -0.20759(4)
O2LA O -0.09708(6) -0.79241(4) -0.14494(4)
O2CA O 0.14494(4) -0.79241(4) 0.09708(6)
O2KA O 0.09708(6) -0.79241(4) 0.14494(4)
O2DA O -0.14494(4) -0.79241(4) -0.09708(6)
O2OA O 0.20759(4) -0.85506(4) 0.09708(6)
O2Z O 0.20759(4) -1.09708(6) -0.14494(4)
O2PA O 0.20759(4) -1.14494(4) -0.09708(6)
O2Y O 0.20759(4) -0.90292(6) 0.14494(4)
O2F O 0.35506(4) -0.29241(4) -0.59708(6)
O2W O 0.35506(4) -0.40292(6) -0.70759(4)
O2M O 0.59708(6) -0.29241(4) -0.35506(4)
O2A O 0.70759(4) -0.40292(6) -0.35506(4)
O2BA O 0.14494(4) -0.20759(4) -0.09708(6)
O2PA_2 O 0.20759(4) -0.14494(4) -0.09708(6)
O2MA O 0.09708(6) -0.20759(4) -0.14494(4)
O2IA_2 O 0.09708(6) -0.14494(4) -0.20759(4)
O2NA O -0.20759(4) -0.85506(4) -0.09708(6)
O3V O 0.14929(5) -0.25853(4) -0.19666(7)
O3FA O 0.24147(4) -0.64929(5) -0.30334(7)
O3LA O 0.24147(4) -0.69666(7) -0.35071(5)
O3OA O 0.30334(7) -0.64929(5) -0.24147(4)
O3CA O 0.35071(5) -0.69666(7) -0.24147(4)
O3J O 0.74147(4) -0.85071(5) -0.19666(7)
O3L O 0.74147(4) -0.80334(7) -0.14929(5)
O3RA O 0.35071(5) -0.75853(4) -0.30334(7)
O3Z O 0.30334(7) -0.75853(4) -0.35071(5)
O3D O -0.14929(5) -0.80334(7) -0.25853(4)
O3R O -0.19666(7) -0.85071(5) -0.25853(4)
O3U O -0.14929(5) -0.74147(4) -0.19666(7)
O3A O -0.19666(7) -0.74147(4) -0.14929(5)
O3O O 0.25853(4) -0.80334(7) 0.14929(5)
O3K O 0.25853(4) -0.85071(5) 0.19666(7)
O3C O 0.19666(7) -0.74147(4) 0.14929(5)
O3W O 0.14929(5) -0.74147(4) 0.19666(7)
O3P O 0.19666(7) -0.14929(5) -0.25853(4)
O3F O 0.14929(5) -0.19666(7) -0.25853(4)
O3JA O 0.24147(4) -0.30334(7) -0.64929(5)
O3HA O 0.24147(4) -0.35071(5) -0.69666(7)
O3Y O 0.30334(7) -0.24147(4) -0.64929(5)
O3SA O 0.35071(5) -0.24147(4) -0.69666(7)
O3PA O 0.30334(7) -0.35071(5) -0.75853(4)
O3EA O 0.64929(5) -0.30334(7) -0.24147(4)
O3UA O 0.64929(5) -0.24147(4) -0.30334(7)
O3QA O 0.69666(7) -0.35071(5) -0.24147(4)
O3IA O 0.75853(4) -0.35071(5) -0.30334(7)
O3M O 0.25853(4) -0.19666(7) -0.14929(5)
O3L_2 O -0.25853(4) -0.80334(7) -0.14929(5)
loop_
_geom_bond_atom_site_label_1
_geom_bond_atom_site_label_2
_geom_bond_site_symmetry_1
_geom_bond_site_symmetry_2
Ni1 O1 1_555 1_555
O1 Ni1J 1_555 1_555
C1 C3 1_555 1_555
N1 Ni1 1_555 1_555
C2 C4 1_555 1_555
C3 C7 1_555 1_555
C4 O3 1_555 1_555
C5 C8 1_555 1_555
C6 C2 1_555 1_555
H1 C6 1_555 1_555
C7 H2 1_555 1_555
C8 C7 1_555 1_555
H3 C8 1_555 1_555
C9 C12 1_555 1_555
C10 N1 1_555 1_555
H4 C10 1_555 1_555
C11 C10 1_555 1_555
H5 C11 1_555 1_555
C12 C6 1_555 1_555
H6 C12 1_555 1_555
C13 H7 1_555 1_555
H7 H8 1_555 1_555
C14 C11 1_555 1_555
C15 C9 1_555 1_555
H8 C13 1_555 1_555
O2 Ni1 1_555 1_555
O3 Ni1BA 1_555 1_555
Ni1J N1J 1_555 1_555
Ni1FA O1AA 1_555 1_555
Ni1CA O1Y 1_555 1_555
Ni1F O1C 1_555 1_555
Ni1C O1C 1_555 1_555
Ni1G O1 1_555 1_555
Ni1I O1A 1_555 1_555
Ni1A O1A 1_555 1_555
Ni1BA O1Z 1_555 1_555
Ni1IA O1Z 1_555 1_555
Ni1DA O1AA 1_555 1_555
Ni1AA O3J 1_555 1_555
Ni1DA_2 O3L 1_555 1_555
Ni1D O2D 1_555 1_555
Ni1K O2O 1_555 1_555
Ni1Z N1Z 1_555 1_555
Ni1AA_2 O1AA 1_555 1_555
Ni1IA_2 O2IA 1_555 1_555
Ni1D_2 N1D 1_555 1_555
Ni1GA O1Y 1_555 1_555
Ni1A_2 N1A 1_555 1_555
Ni1Y O1Y 1_555 1_555
Ni1BA_2 O2PA 1_555 1_555
Ni1K_2 N1K 1_555 1_555
Ni1C_2 N1C 1_555 1_555
Ni1H O1C 1_555 1_555
Ni1Z_2 O1Z 1_555 1_555
Ni1HA N1HA 1_555 1_555
Ni1Y_2 N1Y 1_555 1_555
C1C C3C 1_555 1_555
C1J C3J 1_555 1_555
C1I C3I 1_555 1_555
C1G C3G 1_555 1_555
C1D C3D 1_555 1_555
C1FA C3FA 1_555 1_555
C1IA C3IA 1_555 1_555
C1DA C3DA 1_555 1_555
C1CA C3CA 1_555 1_555
C1Y C3Y 1_555 1_555
C1Z C3Z 1_555 1_555
N1FA Ni1FA 1_555 1_555
N1CA Ni1CA 1_555 1_555
N1J C10J 1_555 1_555
N1Z C10RA 1_555 1_555
N1D C10D 1_555 1_555
N1A C10U 1_555 1_555
N1K C10O 1_555 1_555
N1C C10C 1_555 1_555
N1F Ni1F 1_555 1_555
N1HA C10JA 1_555 1_555
N1Y C10Y 1_555 1_555
N1C_2 Ni1C 1_555 1_555
N1G Ni1G 1_555 1_555
N1I Ni1I 1_555 1_555
N1A_2 Ni1A 1_555 1_555
N1BA Ni1BA 1_555 1_555
N1IA Ni1IA 1_555 1_555
N1DA Ni1DA 1_555 1_555
C2FA C4FA 1_555 1_555
C2CA C4CA 1_555 1_555
C2J C4J 1_555 1_555
C2Z C4Z 1_555 1_555
C2D C4D 1_555 1_555
C2A C4A 1_555 1_555
C2K C4K 1_555 1_555
C2C C4C 1_555 1_555
C2F C4F 1_555 1_555
C2HA C4HA 1_555 1_555
C2Y C4Y 1_555 1_555
C3C C7C 1_555 1_555
C3J C7V 1_555 1_555
C3I C7U 1_555 1_555
C3G C7L 1_555 1_555
C3D C7O 1_555 1_555
C3FA C7FA 1_555 1_555
C3IA C7IA 1_555 1_555
C3DA C7LA 1_555 1_555
C3CA C7KA 1_555 1_555
C3Y C7OA 1_555 1_555
C3Z C7PA 1_555 1_555
C4FA O3FA 1_555 1_555
C4CA O3OA 1_555 1_555
C4J O3J 1_555 1_555
C4Z O3RA 1_555 1_555
C4D O3D 1_555 1_555
C4A O3U 1_555 1_555
C4K O3O 1_555 1_555
C4C O3C 1_555 1_555
C4F O3P 1_555 1_555
C4HA O3JA 1_555 1_555
C4Y O3Y 1_555 1_555
C5C C5 1_555 1_555
C5J C5I 1_555 1_555
C5I C8U 1_555 1_555
C5G C5D 1_555 1_555
C5D C8O 1_555 1_555
C5FA C5IA 1_555 1_555
C5IA C8IA 1_555 1_555
C5DA C5CA 1_555 1_555
C5CA C8KA 1_555 1_555
C5Y C5Z 1_555 1_555
C5Z C8PA 1_555 1_555
C6V C2 1_555 1_555
C6FA C2FA 1_555 1_555
C6LA C2FA 1_555 1_555
C6OA C2CA 1_555 1_555
C6CA C2CA 1_555 1_555
C6J C2J 1_555 1_555
C6L C2J 1_555 1_555
C6RA C2Z 1_555 1_555
C6Z C2Z 1_555 1_555
C6D C2D 1_555 1_555
C6R C2D 1_555 1_555
C6U C2A 1_555 1_555
C6A C2A 1_555 1_555
C6O C2K 1_555 1_555
C6K C2K 1_555 1_555
C6C C2C 1_555 1_555
C6W C2C 1_555 1_555
C6P C2F 1_555 1_555
C6F C2F 1_555 1_555
C6JA C2HA 1_555 1_555
C6HA C2HA 1_555 1_555
C6Y C2Y 1_555 1_555
C6SA C2Y 1_555 1_555
H1V C6V 1_555 1_555
H1FA C6FA 1_555 1_555
H1LA C6LA 1_555 1_555
H1OA C6OA 1_555 1_555
H1CA C6CA 1_555 1_555
H1J C6J 1_555 1_555
H1L C6L 1_555 1_555
H1RA C6RA 1_555 1_555
H1Z C6Z 1_555 1_555
H1D C6D 1_555 1_555
H1R C6R 1_555 1_555
H1U C6U 1_555 1_555
H1A C6A 1_555 1_555
H1O C6O 1_555 1_555
H1K C6K 1_555 1_555
H1C C6C 1_555 1_555
H1W C6W 1_555 1_555
H1P C6P 1_555 1_555
H1F C6F 1_555 1_555
H1JA C6JA 1_555 1_555
H1HA C6HA 1_555 1_555
H1Y C6Y 1_555 1_555
H1SA C6SA 1_555 1_555
C7C H2C 1_555 1_555
C7P C3C 1_555 1_555
C7S C3 1_555 1_555
C7V H2V 1_555 1_555
C7U H2U 1_555 1_555
C7I C3I 1_555 1_555
C7J C3J 1_555 1_555
C7L H2L 1_555 1_555
C7O H2O 1_555 1_555
C7D C3D 1_555 1_555
C7G C3G 1_555 1_555
C7FA H2FA 1_555 1_555
C7IA H2IA 1_555 1_555
C7RA C3IA 1_555 1_555
C7UA C3FA 1_555 1_555
C7LA H2LA 1_555 1_555
C7KA H2KA 1_555 1_555
C7CA C3CA 1_555 1_555
C7DA C3DA 1_555 1_555
C7OA H2OA 1_555 1_555
C7PA H2PA 1_555 1_555
C7Z C3Z 1_555 1_555
C7Y C3Y 1_555 1_555
H2P C7P 1_555 1_555
H2S C7S 1_555 1_555
H2I C7I 1_555 1_555
H2J C7J 1_555 1_555
H2D C7D 1_555 1_555
H2G C7G 1_555 1_555
H2RA C7RA 1_555 1_555
H2UA C7UA 1_555 1_555
H2CA C7CA 1_555 1_555
H2DA C7DA 1_555 1_555
H2Z C7Z 1_555 1_555
H2Y C7Y 1_555 1_555
C8C C5C 1_555 1_555
C8P C5C 1_555 1_555
C8S C5 1_555 1_555
C8V C5J 1_555 1_555
C8U C7U 1_555 1_555
C8I C5I 1_555 1_555
C8J C5J 1_555 1_555
C8L C5G 1_555 1_555
C8O C7O 1_555 1_555
C8D C5D 1_555 1_555
C8G C5G 1_555 1_555
C8FA C5FA 1_555 1_555
C8IA C7IA 1_555 1_555
C8RA C5IA 1_555 1_555
C8UA C5FA 1_555 1_555
C8LA C5DA 1_555 1_555
C8KA C7KA 1_555 1_555
C8CA C5CA 1_555 1_555
C8DA C5DA 1_555 1_555
C8OA C5Y 1_555 1_555
C8PA C7PA 1_555 1_555
C8Z C5Z 1_555 1_555
C8Y C5Y 1_555 1_555
H3P C8P 1_555 1_555
H3C C8C 1_555 1_555
H3S C8S 1_555 1_555
H3V C8V 1_555 1_555
H3I C8I 1_555 1_555
H3U C8U 1_555 1_555
H3J C8J 1_555 1_555
H3L C8L 1_555 1_555
H3D C8D 1_555 1_555
H3O C8O 1_555 1_555
H3G C8G 1_555 1_555
H3FA C8FA 1_555 1_555
H3RA C8RA 1_555 1_555
H3IA C8IA 1_555 1_555
H3UA C8UA 1_555 1_555
H3LA C8LA 1_555 1_555
H3CA C8CA 1_555 1_555
H3KA C8KA 1_555 1_555
H3DA C8DA 1_555 1_555
H3OA C8OA 1_555 1_555
H3Z C8Z 1_555 1_555
H3PA C8PA 1_555 1_555
H3Y C8Y 1_555 1_555
C9FA C12FA 1_555 1_555
C9CA C12OA 1_555 1_555
C9J C12J 1_555 1_555
C9Z C12RA 1_555 1_555
C9D C12D 1_555 1_555
C9A C12U 1_555 1_555
C9K C12O 1_555 1_555
C9C C12C 1_555 1_555
C9F C12P 1_555 1_555
C9HA C12JA 1_555 1_555
C9Y C12Y 1_555 1_555
C10V N1 1_555 1_555
C10FA N1FA 1_555 1_555
C10LA N1FA 1_555 1_555
C10OA N1CA 1_555 1_555
C10CA N1CA 1_555 1_555
C10J H4J 1_555 1_555
C10L N1J 1_555 1_555
C10RA H4RA 1_555 1_555
C10Z N1Z 1_555 1_555
C10D H4D 1_555 1_555
C10R N1D 1_555 1_555
C10U H4U 1_555 1_555
C10A N1A 1_555 1_555
C10O H4O 1_555 1_555
C10K N1K 1_555 1_555
C10C H4C 1_555 1_555
C10W N1C 1_555 1_555
C10P N1F 1_555 1_555
C10F N1F 1_555 1_555
C10JA H4JA 1_555 1_555
C10HA N1HA 1_555 1_555
C10Y H4Y 1_555 1_555
C10SA N1Y 1_555 1_555
H4V C10V 1_555 1_555
H4FA C10FA 1_555 1_555
H4LA C10LA 1_555 1_555
H4OA C10OA 1_555 1_555
H4CA C10CA 1_555 1_555
H4L C10L 1_555 1_555
H4Z C10Z 1_555 1_555
H4R C10R 1_555 1_555
H4A C10A 1_555 1_555
H4K C10K 1_555 1_555
H4W C10W 1_555 1_555
H4P C10P 1_555 1_555
H4F C10F 1_555 1_555
H4HA C10HA 1_555 1_555
H4SA C10SA 1_555 1_555
C11V C14 1_555 1_555
C11FA C10FA 1_555 1_555
C11LA C10LA 1_555 1_555
C11OA C10OA 1_555 1_555
C11CA C10CA 1_555 1_555
C11J C10J 1_555 1_555
C11L C10L 1_555 1_555
C11RA C10RA 1_555 1_555
C11Z C10Z 1_555 1_555
C11D C10D 1_555 1_555
C11R C10R 1_555 1_555
C11U C10U 1_555 1_555
C11A C10A 1_555 1_555
C11O C10O 1_555 1_555
C11K C10K 1_555 1_555
C11C C10C 1_555 1_555
C11W C10W 1_555 1_555
C11P C10P 1_555 1_555
C11F C10F 1_555 1_555
C11JA C10JA 1_555 1_555
C11HA C10HA 1_555 1_555
C11Y C10Y 1_555 1_555
C11SA C10SA 1_555 1_555
H5V C11V 1_555 1_555
H5FA C11FA 1_555 1_555
H5LA C11LA 1_555 1_555
H5OA C11OA 1_555 1_555
H5CA C11CA 1_555 1_555
H5J C11J 1_555 1_555
H5L C11L 1_555 1_555
H5RA C11RA 1_555 1_555
H5Z C11Z 1_555 1_555
H5D C11D 1_555 1_555
H5R C11R 1_555 1_555
H5U C11U 1_555 1_555
H5A C11A 1_555 1_555
H5O C11O 1_555 1_555
H5K C11K 1_555 1_555
H5C C11C 1_555 1_555
H5W C11W 1_555 1_555
H5P C11P 1_555 1_555
H5F C11F 1_555 1_555
H5JA C11JA 1_555 1_555
H5HA C11HA 1_555 1_555
H5Y C11Y 1_555 1_555
H5SA C11SA 1_555 1_555
C12V C9 1_555 1_555
C12FA C6FA 1_555 1_555
C12LA C6LA 1_555 1_555
C12OA C6OA 1_555 1_555
C12CA C6CA 1_555 1_555
C12J C6J 1_555 1_555
C12L C6L 1_555 1_555
C12RA C6RA 1_555 1_555
C12Z C6Z 1_555 1_555
C12D C6D 1_555 1_555
C12R C6R 1_555 1_555
C12U C6U 1_555 1_555
C12A C6A 1_555 1_555
C12O C6O 1_555 1_555
C12K C6K 1_555 1_555
C12C C6C 1_555 1_555
C12W C6W 1_555 1_555
C12P C6P 1_555 1_555
C12F C6F 1_555 1_555
C12JA C6JA 1_555 1_555
C12HA C6HA 1_555 1_555
C12Y C6Y 1_555 1_555
C12SA C6SA 1_555 1_555
H6V C12V 1_555 1_555
H6FA C12FA 1_555 1_555
H6LA C12LA 1_555 1_555
H6OA C12OA 1_555 1_555
H6CA C12CA 1_555 1_555
H6J C12J 1_555 1_555
H6L C12L 1_555 1_555
H6RA C12RA 1_555 1_555
H6Z C12Z 1_555 1_555
H6D C12D 1_555 1_555
H6R C12R 1_555 1_555
H6U C12U 1_555 1_555
H6A C12A 1_555 1_555
H6O C12O 1_555 1_555
H6K C12K 1_555 1_555
H6C C12C 1_555 1_555
H6W C12W 1_555 1_555
H6P C12P 1_555 1_555
H6F C12F 1_555 1_555
H6JA C12JA 1_555 1_555
H6HA C12HA 1_555 1_555
H6Y C12Y 1_555 1_555
H6SA C12SA 1_555 1_555
C13V C13 1_555 1_555
C13FA C13LA 1_555 1_555
C13LA H7LA 1_555 1_555
C13OA C13CA 1_555 1_555
C13CA H7CA 1_555 1_555
C13J C13L 1_555 1_555
C13L H7L 1_555 1_555
C13RA C13Z 1_555 1_555
C13Z H7Z 1_555 1_555
C13D C13R 1_555 1_555
C13R H7R 1_555 1_555
C13U C13A 1_555 1_555
C13A H7A 1_555 1_555
C13O C13K 1_555 1_555
C13K H7K 1_555 1_555
C13C C13W 1_555 1_555
C13W H7W 1_555 1_555
C13P C13F 1_555 1_555
C13F H7F 1_555 1_555
C13JA C13HA 1_555 1_555
C13HA H7HA 1_555 1_555
C13Y C13SA 1_555 1_555
C13SA H7SA 1_555 1_555
H7V C15 1_555 1_555
H7FA C13FA 1_555 1_555
H7LA C15FA 1_555 1_555
H7OA C13OA 1_555 1_555
H7CA C15OA 1_555 1_555
H7J C13J 1_555 1_555
H7L C15J 1_555 1_555
H7RA C13RA 1_555 1_555
H7Z C15RA 1_555 1_555
H7D C13D 1_555 1_555
H7R C15D 1_555 1_555
H7U C13U 1_555 1_555
H7A C15U 1_555 1_555
H7O C13O 1_555 1_555
H7K C15O 1_555 1_555
H7C C13C 1_555 1_555
H7W C15C 1_555 1_555
H7P C13P 1_555 1_555
H7F C15P 1_555 1_555
H7JA C13JA 1_555 1_555
H7HA C15JA 1_555 1_555
H7Y C13Y 1_555 1_555
H7SA C15Y 1_555 1_555
C14FA C11FA 1_555 1_555
C14CA C11OA 1_555 1_555
C14J C11J 1_555 1_555
C14Z C11RA 1_555 1_555
C14D C11D 1_555 1_555
C14A C11U 1_555 1_555
C14K C11O 1_555 1_555
C14C C11C 1_555 1_555
C14F C11P 1_555 1_555
C14HA C11JA 1_555 1_555
C14Y C11Y 1_555 1_555
C15V C9 1_555 1_555
C15FA C9FA 1_555 1_555
C15LA C9FA 1_555 1_555
C15OA C9CA 1_555 1_555
C15CA C9CA 1_555 1_555
C15J C9J 1_555 1_555
C15L C9J 1_555 1_555
C15RA C9Z 1_555 1_555
C15Z C9Z 1_555 1_555
C15D C9D 1_555 1_555
C15R C9D 1_555 1_555
C15U C9A 1_555 1_555
C15A C9A 1_555 1_555
C15O C9K 1_555 1_555
C15K C9K 1_555 1_555
C15C C9C 1_555 1_555
C15W C9C 1_555 1_555
C15P C9F 1_555 1_555
C15F C9F 1_555 1_555
C15JA C9HA 1_555 1_555
C15HA C9HA 1_555 1_555
C15Y C9Y 1_555 1_555
C15SA C9Y 1_555 1_555
H8V C15 1_555 1_555
H8FA C13FA 1_555 1_555
H8LA C13LA 1_555 1_555
H8OA C13OA 1_555 1_555
H8CA C13CA 1_555 1_555
H8J C13J 1_555 1_555
H8L C13L 1_555 1_555
H8RA C13RA 1_555 1_555
H8Z C13Z 1_555 1_555
H8D C13D 1_555 1_555
H8R C13R 1_555 1_555
H8U C13U 1_555 1_555
H8A C13A 1_555 1_555
H8O C13O 1_555 1_555
H8K C13K 1_555 1_555
H8C C13C 1_555 1_555
H8W C13W 1_555 1_555
H8P C13P 1_555 1_555
H8F C13F 1_555 1_555
H8JA C13JA 1_555 1_555
H8HA C13HA 1_555 1_555
H8Y C13Y 1_555 1_555
H8SA C13SA 1_555 1_555
O2P Ni1F 1_555 1_555
O2C Ni1C 1_555 1_555
O2S C1 1_555 1_555
O2V Ni1 1_555 1_555
O2I Ni1I 1_555 1_555
O2U Ni1A 1_555 1_555
O2J Ni1J 1_555 1_555
O2L Ni1J 1_555 1_555
O2D C1D 1_555 1_555
O2O C1D 1_555 1_555
O2G Ni1G 1_555 1_555
O2FA Ni1FA 1_555 1_555
O2RA Ni1Z 1_555 1_555
O2IA C1IA 1_555 1_555
O2UA Ni1AA_2 1_555 1_555
O2LA Ni1FA 1_555 1_555
O2CA Ni1CA 1_555 1_555
O2KA Ni1GA 1_555 1_555
O2DA Ni1DA 1_555 1_555
O2OA Ni1CA 1_555 1_555
O2Z Ni1Z 1_555 1_555
O2PA C1Z 1_555 1_555
O2Y Ni1Y 1_555 1_555
O2F Ni1F 1_555 1_555
O2W Ni1C 1_555 1_555
O2M Ni1I 1_555 1_555
O2A Ni1A 1_555 1_555
O2BA Ni1BA 1_555 1_555
O2PA_2 Ni1BA 1_555 1_555
O2MA Ni1IA 1_555 1_555
O2IA_2 Ni1IA 1_555 1_555
O2NA Ni1DA 1_555 1_555
O3V C4 1_555 1_555
O3FA Ni1 1_555 1_555
O3LA Ni1G 1_555 1_555
O3OA Ni1 1_555 1_555
O3CA Ni1J 1_555 1_555
O3L C4J 1_555 1_555
O3RA Ni1J 1_555 1_555
O3Z Ni1G 1_555 1_555
O3D Ni1FA 1_555 1_555
O3R Ni1AA_2 1_555 1_555
O3U Ni1FA 1_555 1_555
O3A Ni1DA 1_555 1_555
O3O Ni1CA 1_555 1_555
O3K Ni1Y 1_555 1_555
O3C Ni1CA 1_555 1_555
O3W Ni1GA 1_555 1_555
O3P Ni1Z_2 1_555 1_555
O3F Ni1IA 1_555 1_555
O3JA Ni1F 1_555 1_555
O3HA Ni1C 1_555 1_555
O3Y Ni1F 1_555 1_555
O3SA Ni1H 1_555 1_555
O3PA Ni1C 1_555 1_555
O3EA Ni1I 1_555 1_555
O3UA Ni1I 1_555 1_555
O3QA Ni1A 1_555 1_555
O3IA Ni1A 1_555 1_555
O3M Ni1BA 1_555 1_555
O3L_2 Ni1DA 1_555 1_555
C1 O2 1_555 1_555
C13 C14 1_555 1_555
C13 C15 1_555 1_555
C13 C15V 1_555 1_555
H7 C15V 1_555 1_555
C14 C13V 1_555 1_555
C15 C13V 1_555 1_555
C15 C15V 1_555 1_555
H8 C15V 1_555 1_555
Ni1G O2S 1_555 1_555
Ni1IA O3V 1_555 1_555
C1C O2P 1_555 1_555
C1C O2C 1_555 1_555
C1J O2V 1_555 1_555
C1J O2J 1_555 1_555
C1I O2I 1_555 1_555
C1I O2U 1_555 1_555
C1G O2L 1_555 1_555
C1G O2G 1_555 1_555
C1FA O2FA 1_555 1_555
C1FA O2UA 1_555 1_555
C1IA O2RA 1_555 1_555
C1DA O2LA 1_555 1_555
C1DA O2DA 1_555 1_555
C1CA O2CA 1_555 1_555
C1CA O2KA 1_555 1_555
C1Y O2OA 1_555 1_555
C1Y O2Y 1_555 1_555
C1Z O2Z 1_555 1_555
C4FA O3LA 1_555 1_555
C4CA O3CA 1_555 1_555
C4Z O3Z 1_555 1_555
C4D O3R 1_555 1_555
C4A O3A 1_555 1_555
C4K O3K 1_555 1_555
C4C O3W 1_555 1_555
C4F O3F 1_555 1_555
C4HA O3HA 1_555 1_555
C4Y O3SA 1_555 1_555
C6V C12V 1_555 1_555
C7C C8C 1_555 1_555
C7P C8P 1_555 1_555
C7S C8S 1_555 1_555
C7V C8V 1_555 1_555
C7I C8I 1_555 1_555
C7J C8J 1_555 1_555
C7L C8L 1_555 1_555
C7D C8D 1_555 1_555
C7G C8G 1_555 1_555
C7FA C8FA 1_555 1_555
C7RA C8RA 1_555 1_555
C7UA C8UA 1_555 1_555
C7LA C8LA 1_555 1_555
C7CA C8CA 1_555 1_555
C7DA C8DA 1_555 1_555
C7OA C8OA 1_555 1_555
C7Z C8Z 1_555 1_555
C7Y C8Y 1_555 1_555
C9FA C12LA 1_555 1_555
C9CA C12CA 1_555 1_555
C9J C12L 1_555 1_555
C9Z C12Z 1_555 1_555
C9D C12R 1_555 1_555
C9A C12A 1_555 1_555
C9K C12K 1_555 1_555
C9C C12W 1_555 1_555
C9F C12F 1_555 1_555
C9HA C12HA 1_555 1_555
C9Y C12SA 1_555 1_555
C10V C11V 1_555 1_555
C11LA C14FA 1_555 1_555
C11CA C14CA 1_555 1_555
C11L C14J 1_555 1_555
C11Z C14Z 1_555 1_555
C11R C14D 1_555 1_555
C11A C14A 1_555 1_555
C11K C14K 1_555 1_555
C11W C14C 1_555 1_555
C11F C14F 1_555 1_555
C11HA C14HA 1_555 1_555
C11SA C14Y 1_555 1_555
C13V H7V 1_555 1_555
C13V C15V 1_555 1_555
C13V H8V 1_555 1_555
C13FA C14FA 1_555 1_555
C13FA C15FA 1_555 1_555
C13FA C15LA 1_555 1_555
C13LA C14FA 1_555 1_555
C13LA C15FA 1_555 1_555
C13LA C15LA 1_555 1_555
C13OA C14CA 1_555 1_555
C13OA C15OA 1_555 1_555
C13OA C15CA 1_555 1_555
C13CA C14CA 1_555 1_555
C13CA C15OA 1_555 1_555
C13CA C15CA 1_555 1_555
C13J C14J 1_555 1_555
C13J C15J 1_555 1_555
C13J C15L 1_555 1_555
C13L C14J 1_555 1_555
C13L C15J 1_555 1_555
C13L C15L 1_555 1_555
C13RA C14Z 1_555 1_555
C13RA C15RA 1_555 1_555
C13RA C15Z 1_555 1_555
C13Z C14Z 1_555 1_555
C13Z C15RA 1_555 1_555
C13Z C15Z 1_555 1_555
C13D C14D 1_555 1_555
C13D C15D 1_555 1_555
C13D C15R 1_555 1_555
C13R C14D 1_555 1_555
C13R C15D 1_555 1_555
C13R C15R 1_555 1_555
C13U C14A 1_555 1_555
C13U C15U 1_555 1_555
C13U C15A 1_555 1_555
C13A C14A 1_555 1_555
C13A C15U 1_555 1_555
C13A C15A 1_555 1_555
C13O C14K 1_555 1_555
C13O C15O 1_555 1_555
C13O C15K 1_555 1_555
C13K C14K 1_555 1_555
C13K C15O 1_555 1_555
C13K C15K 1_555 1_555
C13C C14C 1_555 1_555
C13C C15C 1_555 1_555
C13C C15W 1_555 1_555
C13W C14C 1_555 1_555
C13W C15C 1_555 1_555
C13W C15W 1_555 1_555
C13P C14F 1_555 1_555
C13P C15P 1_555 1_555
C13P C15F 1_555 1_555
C13F C14F 1_555 1_555
C13F C15P 1_555 1_555
C13F C15F 1_555 1_555
C13JA C14HA 1_555 1_555
C13JA C15JA 1_555 1_555
C13JA C15HA 1_555 1_555
C13HA C14HA 1_555 1_555
C13HA C15JA 1_555 1_555
C13HA C15HA 1_555 1_555
C13Y C14Y 1_555 1_555
C13Y C15Y 1_555 1_555
C13Y C15SA 1_555 1_555
C13SA C14Y 1_555 1_555
C13SA C15Y 1_555 1_555
C13SA C15SA 1_555 1_555
H7V H8V 1_555 1_555
H7FA C15LA 1_555 1_555
H7FA H8FA 1_555 1_555
H7LA H8LA 1_555 1_555
H7OA C15CA 1_555 1_555
H7OA H8OA 1_555 1_555
H7CA H8CA 1_555 1_555
H7J C15L 1_555 1_555
H7J H8J 1_555 1_555
H7L H8L 1_555 1_555
H7RA C15Z 1_555 1_555
H7RA H8RA 1_555 1_555
H7Z H8Z 1_555 1_555
H7D C15R 1_555 1_555
H7D H8D 1_555 1_555
H7R H8R 1_555 1_555
H7U C15A 1_555 1_555
H7U H8U 1_555 1_555
H7A H8A 1_555 1_555
H7O C15K 1_555 1_555
H7O H8O 1_555 1_555
H7K H8K 1_555 1_555
H7C C15W 1_555 1_555
H7C H8C 1_555 1_555
H7W H8W 1_555 1_555
H7P C15F 1_555 1_555
H7P H8P 1_555 1_555
H7F H8F 1_555 1_555
H7JA C15HA 1_555 1_555
H7JA H8JA 1_555 1_555
H7HA H8HA 1_555 1_555
H7Y C15SA 1_555 1_555
H7Y H8Y 1_555 1_555
H7SA H8SA 1_555 1_555
C15FA C15LA 1_555 1_555
C15FA H8LA 1_555 1_555
C15LA H8FA 1_555 1_555
C15OA C15CA 1_555 1_555
C15OA H8CA 1_555 1_555
C15CA H8OA 1_555 1_555
C15J C15L 1_555 1_555
C15J H8L 1_555 1_555
C15L H8J 1_555 1_555
C15RA C15Z 1_555 1_555
C15RA H8Z 1_555 1_555
C15Z H8RA 1_555 1_555
C15D C15R 1_555 1_555
C15D H8R 1_555 1_555
C15R H8D 1_555 1_555
C15U C15A 1_555 1_555
C15U H8A 1_555 1_555
C15A H8U 1_555 1_555
C15O C15K 1_555 1_555
C15O H8K 1_555 1_555
C15K H8O 1_555 1_555
C15C C15W 1_555 1_555
C15C H8W 1_555 1_555
C15W H8C 1_555 1_555
C15P C15F 1_555 1_555
C15P H8F 1_555 1_555
C15F H8P 1_555 1_555
C15JA C15HA 1_555 1_555
C15JA H8HA 1_555 1_555
C15HA H8JA 1_555 1_555
C15Y C15SA 1_555 1_555
C15Y H8SA 1_555 1_555
C15SA H8Y 1_555 1_555

#END
