
#######################################################################
#
#                 Cambridge Crystallographic Data Centre
#                                CCDC 
#
#######################################################################
#
# If this CIF has been generated from an entry in the Cambridge 
# Structural Database, then it will include bibliographic, chemical, 
# crystal, experimental, refinement or atomic coordinate data resulting 
# from the CCDC's data processing and validation procedures.
#
#######################################################################

data_KARMIB
_chemical_formula_moiety         'C324 H192 N32 Ni28 O74'
_symmetry_cell_setting           cubic
_symmetry_space_group_name_H-M   'I -4 3 m'
_symmetry_Int_Tables_number      217
_space_group_name_Hall           'I -4 2 3'
loop_
_symmetry_equiv_pos_site_id
_symmetry_equiv_pos_as_xyz
1 x,y,z
2 -x,-y,z
3 -x,y,-z
4 x,-y,-z
5 z,x,y
6 z,-x,-y
7 -z,-x,y
8 -z,x,-y
9 y,z,x
10 -y,z,-x
11 y,-z,-x
12 -y,-z,x
13 y,x,z
14 -y,-x,z
15 y,-x,-z
16 -y,x,-z
17 x,z,y
18 -x,z,-y
19 -x,-z,y
20 x,-z,-y
21 z,y,x
22 z,-y,-x
23 -z,y,-x
24 -z,-y,x
25 1/2+x,1/2+y,1/2+z
26 1/2-x,1/2-y,1/2+z
27 1/2-x,1/2+y,1/2-z
28 1/2+x,1/2-y,1/2-z
29 1/2+z,1/2+x,1/2+y
30 1/2+z,1/2-x,1/2-y
31 1/2-z,1/2-x,1/2+y
32 1/2-z,1/2+x,1/2-y
33 1/2+y,1/2+z,1/2+x
34 1/2-y,1/2+z,1/2-x
35 1/2+y,1/2-z,1/2-x
36 1/2-y,1/2-z,1/2+x
37 1/2+y,1/2+x,1/2+z
38 1/2-y,1/2-x,1/2+z
39 1/2+y,1/2-x,1/2-z
40 1/2-y,1/2+x,1/2-z
41 1/2+x,1/2+z,1/2+y
42 1/2-x,1/2+z,1/2-y
43 1/2-x,1/2-z,1/2+y
44 1/2+x,1/2-z,1/2-y
45 1/2+z,1/2+y,1/2+x
46 1/2+z,1/2-y,1/2-x
47 1/2-z,1/2+y,1/2-x
48 1/2-z,1/2-y,1/2+x
_cell_length_a                   31.3091(4)
_cell_length_b                   31.3091(4)
_cell_length_c                   31.3091(4)
_cell_angle_alpha                90
_cell_angle_beta                 90
_cell_angle_gamma                90
_cell_volume                     30691.1
loop_
_atom_site_label
_atom_site_type_symbol
_atom_site_fract_x
_atom_site_fract_y
_atom_site_fract_z
Ni1 Ni 0.892032(10) 0.814990(8) 0.814990(8)
O1 O 0.84273(5) 0.84273(5) 0.84273(5)
O2 O 0.92224(4) 0.80757(5) 0.87226(5)
N1 N 0.94268(14) 0.79217(7) 0.78017(16)
C1 C 0.95583(11) 0.75042(11) 0.78758(16)
H1 H 0.9410 0.7332 0.8077
C2 C 0.99063(13) 0.73386(12) 0.76555(13)
H2 H 0.9996 0.7053 0.7706
C3 C 1.01229(12) 0.75905(10) 0.73609(13)
C4 C 0.99914(16) 0.72868(11) 0.80080(12)
C5 C 0.96434(18) 0.81736(11) 0.75071(12)
C6 C 1.0552(2) 0.74940(17) 0.7194(2)
H5 H 1.0742 0.7725 0.7143
C7 C 1.06854(15) 0.71135(14) 0.71135(15)
H6 H 1.0480 0.6893 0.7150
C8 C 1.11186(10) 0.69701(12) 0.69701(10)
C9 C 1.13163(11) 0.71734(9) 0.66359(12)
H7 H 1.1179 0.7403 0.6493
C10 C 1.17172(10) 0.70407(9) 0.65091(12)
H8 H 1.1852 0.7177 0.6274
C11 C 1.19234(8) 0.67159(10) 0.67159(8)
C12 C 1.23870(7) 0.66065(10) 0.66065(7)
C13 C 0.90989(6) 0.80528(11) 0.90989(6)
C14 C 0.95106(11) 0.79994(12) 0.93618(11)
C15 C 0.99254(11) 0.80018(11) 0.91981(13)
H9 H 0.9973 0.8012 0.8905
C16 C 1.02757(12) 0.79808(12) 0.94817(11)
H10 H 1.0554 0.7976 0.9377
O3 O 1.25493(7) 0.68052(8) 0.63245(14)
Ni1H Ni 0.814990(8) 0.814990(8) 0.892032(10)
Ni1I Ni 1.185010(8) 0.814990(8) 1.107968(10)
Ni1B Ni 1.107968(10) 0.814990(8) 1.185010(8)
Ni1D Ni 0.814990(8) 0.892032(10) 0.814990(8)
Ni1F Ni 1.185010(8) 1.107968(10) 0.814990(8)
Ni1A Ni 1.107968(10) 1.185010(8) 0.814990(8)
Ni1EA Ni 0.685010(8) 0.392032(10) 0.685010(8)
Ni1IA Ni 0.685010(8) 0.685010(8) 0.392032(10)
Ni1HA Ni 1.314990(8) 0.685010(8) 0.607968(10)
Ni1CA Ni 1.314990(8) 0.607968(10) 0.685010(8)
Ni1Z Ni 0.607968(10) 0.314990(8) 0.685010(8)
Ni1E Ni 0.814990(8) 1.107968(10) 1.185010(8)
Ni1J Ni 0.814990(8) 1.185010(8) 1.107968(10)
Ni1DA Ni 0.685010(8) 0.607968(10) 1.314990(8)
Ni1Y Ni 0.607968(10) 0.685010(8) 1.314990(8)
Ni1AA Ni 0.392032(10) 0.685010(8) 0.685010(8)
Ni1G Ni 1.185010(8) 0.892032(10) 1.185010(8)
Ni1AA_2 Ni 1.392032(10) 0.685010(8) 0.685010(8)
Ni1BA Ni 1.314990(8) 0.392032(10) 1.314990(8)
Ni1K Ni 1.185010(8) 1.185010(8) 0.892032(10)
Ni1Y_2 Ni 1.607968(10) 0.685010(8) 1.314990(8)
Ni1IA_2 Ni 0.685010(8) 0.685010(8) 1.392032(10)
Ni1C Ni 0.892032(10) 1.185010(8) 1.185010(8)
Ni1HA_2 Ni 1.314990(8) 0.685010(8) 1.607968(10)
Ni1Z_2 Ni 0.607968(10) 1.314990(8) 0.685010(8)
Ni1GA Ni 0.685010(8) 1.314990(8) 0.607968(10)
Ni1GA_2 Ni 0.685010(8) 0.314990(8) 0.607968(10)
O1B O 1.15727(5) 0.84273(5) 1.15727(5)
O1A O 1.15727(5) 1.15727(5) 0.84273(5)
O1Z O 0.65727(5) 0.34273(5) 0.65727(5)
O1Y O 0.65727(5) 0.65727(5) 0.34273(5)
O1AA O 1.34273(5) 0.65727(5) 0.65727(5)
O2T O 0.87226(5) 0.80757(5) 0.92224(4)
O2V O 1.12774(5) 0.80757(5) 1.07776(4)
O2B O 1.07776(4) 0.80757(5) 1.12774(5)
O2P O 0.92224(4) 0.87226(5) 0.80757(5)
O2D O 0.87226(5) 0.92224(4) 0.80757(5)
O2F O 1.12774(5) 1.07776(4) 0.80757(5)
O2R O 1.07776(4) 1.12774(5) 0.80757(5)
O2H O 0.80757(5) 0.87226(5) 0.92224(4)
O2L O 0.80757(5) 0.92224(4) 0.87226(5)
O2N O 0.80757(5) 1.07776(4) 1.12774(5)
O2J O 0.80757(5) 1.12774(5) 1.07776(4)
O2I O 1.19243(5) 0.87226(5) 1.07776(4)
O2O O 1.19243(5) 0.92224(4) 1.12774(5)
O2M O 1.19243(5) 1.07776(4) 0.87226(5)
O2K O 1.19243(5) 1.12774(5) 0.92224(4)
O2Q O 1.07776(4) 0.87226(5) 1.19243(5)
O2G O 1.12774(5) 0.92224(4) 1.19243(5)
O2E O 0.87226(5) 1.07776(4) 1.19243(5)
O2S O 0.92224(4) 1.12774(5) 1.19243(5)
O2A O 1.07776(4) 1.19243(5) 0.87226(5)
O2W O 1.12774(5) 1.19243(5) 0.92224(4)
O2U O 0.87226(5) 1.19243(5) 1.07776(4)
O2C O 0.92224(4) 1.19243(5) 1.12774(5)
O2EA O 0.62774(5) 0.42224(4) 0.69243(5)
O2MA O 0.69243(5) 0.42224(4) 0.62774(5)
O2UA O 0.62774(5) 0.69243(5) 0.42224(4)
O2IA O 0.69243(5) 0.62774(5) 0.42224(4)
O2HA O 1.30757(5) 0.62774(5) 0.57776(4)
O2SA O 1.37226(5) 0.69243(5) 0.57776(4)
O2LA O 1.30757(5) 0.57776(4) 0.62774(5)
O2CA O 1.37226(5) 0.57776(4) 0.69243(5)
O2Z O 0.57776(4) 0.30757(5) 0.62774(5)
O2OA O 0.57776(4) 0.37226(5) 0.69243(5)
N1P N 0.94268(14) 0.78017(16) 0.79217(7)
N1EA N 0.71983(16) 0.44268(14) 0.70783(7)
N1MA N 0.70783(7) 0.44268(14) 0.71983(16)
N1UA N 0.71983(16) 0.70783(7) 0.44268(14)
N1IA N 0.70783(7) 0.71983(16) 0.44268(14)
N1H N 0.79217(7) 0.78017(16) 0.94268(14)
N1T N 0.78017(16) 0.79217(7) 0.94268(14)
N1AA N 0.44268(14) 0.70783(7) 0.71983(16)
N1QA N 0.44268(14) 0.71983(16) 0.70783(7)
N1V N 1.21983(16) 0.79217(7) 1.05732(14)
N1I N 1.20783(7) 0.78017(16) 1.05732(14)
N1JA N 1.29217(7) 0.44268(14) 1.28017(16)
N1BA N 1.28017(16) 0.44268(14) 1.29217(7)
N1Y N 1.55732(14) 0.70783(7) 1.28017(16)
N1PA N 1.55732(14) 0.71983(16) 1.29217(7)
N1B N 1.05732(14) 0.79217(7) 1.21983(16)
N1Q N 1.05732(14) 0.78017(16) 1.20783(7)
N1SA N 1.28017(16) 0.70783(7) 1.55732(14)
N1HA N 1.29217(7) 0.71983(16) 1.55732(14)
N1D N 0.78017(16) 0.94268(14) 0.79217(7)
N1L N 0.79217(7) 0.94268(14) 0.78017(16)
N1F N 1.21983(16) 1.05732(14) 0.79217(7)
N1M N 1.20783(7) 1.05732(14) 0.78017(16)
N1R N 1.05732(14) 1.21983(16) 0.79217(7)
N1A N 1.05732(14) 1.20783(7) 0.78017(16)
N1HA_2 N 1.29217(7) 0.71983(16) 0.55732(14)
N1SA_2 N 1.28017(16) 0.70783(7) 0.55732(14)
N1LA N 1.29217(7) 0.55732(14) 0.71983(16)
N1CA N 1.28017(16) 0.55732(14) 0.70783(7)
N1Z N 0.55732(14) 0.29217(7) 0.71983(16)
N1OA N 0.55732(14) 0.28017(16) 0.70783(7)
C1P C 0.95583(11) 0.78758(16) 0.75042(11)
C1EA C 0.71242(16) 0.45583(11) 0.74958(11)
C1MA C 0.74958(11) 0.45583(11) 0.71242(16)
C1UA C 0.71242(16) 0.74958(11) 0.45583(11)
C1IA C 0.74958(11) 0.71242(16) 0.45583(11)
C1H C 0.75042(11) 0.78758(16) 0.95583(11)
C1T C 0.78758(16) 0.75042(11) 0.95583(11)
C1AA C 0.45583(11) 0.74958(11) 0.71242(16)
C1QA C 0.45583(11) 0.71242(16) 0.74958(11)
C1V C 1.21242(16) 0.75042(11) 1.04417(11)
C1I C 1.24958(11) 0.78758(16) 1.04417(11)
C1JA C 1.25042(11) 0.45583(11) 1.28758(16)
C1BA C 1.28758(16) 0.45583(11) 1.25042(11)
C1Y C 1.54417(11) 0.74958(11) 1.28758(16)
C1PA C 1.54417(11) 0.71242(16) 1.25042(11)
C1B C 1.04417(11) 0.75042(11) 1.21242(16)
C1Q C 1.04417(11) 0.78758(16) 1.24958(11)
C1SA C 1.28758(16) 0.74958(11) 1.54417(11)
C1HA C 1.25042(11) 0.71242(16) 1.54417(11)
C1D C 0.78758(16) 0.95583(11) 0.75042(11)
C1L C 0.75042(11) 0.95583(11) 0.78758(16)
C1F C 1.21242(16) 1.04417(11) 0.75042(11)
C1M C 1.24958(11) 1.04417(11) 0.78758(16)
H1P H 0.9410 0.8077 0.7332
H1EA H 0.6923 0.4410 0.7668
H1MA H 0.7668 0.4410 0.6923
H1UA H 0.6923 0.7668 0.4410
H1IA H 0.7668 0.6923 0.4410
H1H H 0.7332 0.8077 0.9410
H1T H 0.8077 0.7332 0.9410
H1AA H 0.4410 0.7668 0.6923
H1QA H 0.4410 0.6923 0.7668
H1V H 1.1923 0.7332 1.0590
H1I H 1.2668 0.8077 1.0590
H1JA H 1.2332 0.4410 1.3077
H1BA H 1.3077 0.4410 1.2332
H1Y H 1.5590 0.7668 1.3077
H1PA H 1.5590 0.6923 1.2332
H1B H 1.0590 0.7332 1.1923
H1Q H 1.0590 0.8077 1.2668
H1SA H 1.3077 0.7668 1.5590
H1HA H 1.2332 0.6923 1.5590
H1D H 0.8077 0.9410 0.7332
H1L H 0.7332 0.9410 0.8077
H1F H 1.1923 1.0590 0.7332
H1M H 1.2668 1.0590 0.8077
C2P C 0.99063(13) 0.76555(13) 0.73386(12)
C2EA C 0.73445(13) 0.49063(13) 0.76614(12)
C2MA C 0.76614(12) 0.49063(13) 0.73445(13)
C2UA C 0.73445(13) 0.76614(12) 0.49063(13)
C2IA C 0.76614(12) 0.73445(13) 0.49063(13)
C2H C 0.73386(12) 0.76555(13) 0.99063(13)
C2T C 0.76555(13) 0.73386(12) 0.99063(13)
C2AA C 0.49063(13) 0.76614(12) 0.73445(13)
C2QA C 0.49063(13) 0.73445(13) 0.76614(12)
C2V C 1.23445(13) 0.73386(12) 1.00937(13)
C2I C 1.26614(12) 0.76555(13) 1.00937(13)
C2JA C 1.23386(12) 0.49063(13) 1.26555(13)
C2BA C 1.26555(13) 0.49063(13) 1.23386(12)
C2Y C 1.50937(13) 0.76614(12) 1.26555(13)
C2PA C 1.50937(13) 0.73445(13) 1.23386(12)
C2B C 1.00937(13) 0.73386(12) 1.23445(13)
C2Q C 1.00937(13) 0.76555(13) 1.26614(12)
C2SA C 1.26555(13) 0.76614(12) 1.50937(13)
C2HA C 1.23386(12) 0.73445(13) 1.50937(13)
C2D C 0.76555(13) 0.99063(13) 0.73386(12)
C2L C 0.73386(12) 0.99063(13) 0.76555(13)
C2F C 1.23445(13) 1.00937(13) 0.73386(12)
C2M C 1.26614(12) 1.00937(13) 0.76555(13)
H2P H 0.9996 0.7706 0.7053
H2EA H 0.7294 0.4996 0.7947
H2MA H 0.7947 0.4996 0.7294
H2UA H 0.7294 0.7947 0.4996
H2IA H 0.7947 0.7294 0.4996
H2H H 0.7053 0.7706 0.9996
H2T H 0.7706 0.7053 0.9996
H2AA H 0.4996 0.7947 0.7294
H2QA H 0.4996 0.7294 0.7947
H2V H 1.2294 0.7053 1.0004
H2I H 1.2947 0.7706 1.0004
H2JA H 1.2053 0.4996 1.2706
H2BA H 1.2706 0.4996 1.2053
H2Y H 1.5004 0.7947 1.2706
H2PA H 1.5004 0.7294 1.2053
H2B H 1.0004 0.7053 1.2294
H2Q H 1.0004 0.7706 1.2947
H2SA H 1.2706 0.7947 1.5004
H2HA H 1.2053 0.7294 1.5004
H2D H 0.7706 0.9996 0.7053
H2L H 0.7053 0.9996 0.7706
H2F H 1.2294 1.0004 0.7053
H2M H 1.2947 1.0004 0.7706
C3P C 1.01229(12) 0.73609(13) 0.75905(10)
C3EA C 0.76391(13) 0.51229(12) 0.74095(10)
C3MA C 0.74095(10) 0.51229(12) 0.76391(13)
C3UA C 0.76391(13) 0.74095(10) 0.51229(12)
C3IA C 0.74095(10) 0.76391(13) 0.51229(12)
C3H C 0.75905(10) 0.73609(13) 1.01229(12)
C3T C 0.73609(13) 0.75905(10) 1.01229(12)
C3AA C 0.51229(12) 0.74095(10) 0.76391(13)
C3QA C 0.51229(12) 0.76391(13) 0.74095(10)
C3V C 1.26391(13) 0.75905(10) 0.98771(12)
C3I C 1.24095(10) 0.73609(13) 0.98771(12)
C3JA C 1.25905(10) 0.51229(12) 1.23609(13)
C3BA C 1.23609(13) 0.51229(12) 1.25905(10)
C3Y C 1.48771(12) 0.74095(10) 1.23609(13)
C3PA C 1.48771(12) 0.76391(13) 1.25905(10)
C3B C 0.98771(12) 0.75905(10) 1.26391(13)
C3Q C 0.98771(12) 0.73609(13) 1.24095(10)
C3SA C 1.23609(13) 0.74095(10) 1.48771(12)
C3HA C 1.25905(10) 0.76391(13) 1.48771(12)
C3D C 0.73609(13) 1.01229(12) 0.75905(10)
C3L C 0.75905(10) 1.01229(12) 0.73609(13)
C3F C 1.26391(13) 0.98771(12) 0.75905(10)
C3M C 1.24095(10) 0.98771(12) 0.73609(13)
C4P C 0.99914(16) 0.80080(12) 0.72868(11)
C4EA C 0.69920(12) 0.49914(16) 0.77132(11)
C4MA C 0.77132(11) 0.49914(16) 0.69920(12)
C4UA C 0.69920(12) 0.77132(11) 0.49914(16)
C4IA C 0.77132(11) 0.69920(12) 0.49914(16)
C4H C 0.72868(11) 0.80080(12) 0.99914(16)
C4T C 0.80080(12) 0.72868(11) 0.99914(16)
C4AA C 0.49914(16) 0.77132(11) 0.69920(12)
C4QA C 0.49914(16) 0.69920(12) 0.77132(11)
C4V C 1.19920(12) 0.72868(11) 1.00086(16)
C4I C 1.27132(11) 0.80080(12) 1.00086(16)
C4JA C 1.22868(11) 0.49914(16) 1.30080(12)
C4BA C 1.30080(12) 0.49914(16) 1.22868(11)
C4Y C 1.50086(16) 0.77132(11) 1.30080(12)
C4PA C 1.50086(16) 0.69920(12) 1.22868(11)
C4B C 1.00086(16) 0.72868(11) 1.19920(12)
C4Q C 1.00086(16) 0.80080(12) 1.27132(11)
C4SA C 1.30080(12) 0.77132(11) 1.50086(16)
C4HA C 1.22868(11) 0.69920(12) 1.50086(16)
C4D C 0.80080(12) 0.99914(16) 0.72868(11)
C4L C 0.72868(11) 0.99914(16) 0.80080(12)
C4F C 1.19920(12) 1.00086(16) 0.72868(11)
C4M C 1.27132(11) 1.00086(16) 0.80080(12)
C5P C 0.96434(18) 0.75071(12) 0.81736(11)
C5EA C 0.74929(12) 0.46434(18) 0.68264(11)
C5MA C 0.68264(11) 0.46434(18) 0.74929(12)
C5UA C 0.74929(12) 0.68264(11) 0.46434(18)
C5IA C 0.68264(11) 0.74929(12) 0.46434(18)
C5H C 0.81736(11) 0.75071(12) 0.96434(18)
C5T C 0.75071(12) 0.81736(11) 0.96434(18)
C5AA C 0.46434(18) 0.68264(11) 0.74929(12)
C5QA C 0.46434(18) 0.74929(12) 0.68264(11)
C5V C 1.24929(12) 0.81736(11) 1.03566(18)
C5I C 1.18264(11) 0.75071(12) 1.03566(18)
C5JA C 1.31736(11) 0.46434(18) 1.25071(12)
C5BA C 1.25071(12) 0.46434(18) 1.31736(11)
C5Y C 1.53566(18) 0.68264(11) 1.25071(12)
C5PA C 1.53566(18) 0.74929(12) 1.31736(11)
C5B C 1.03566(18) 0.81736(11) 1.24929(12)
C5Q C 1.03566(18) 0.75071(12) 1.18264(11)
C5SA C 1.25071(12) 0.68264(11) 1.53566(18)
C5HA C 1.31736(11) 0.74929(12) 1.53566(18)
C5D C 0.75071(12) 0.96434(18) 0.81736(11)
C5L C 0.81736(11) 0.96434(18) 0.75071(12)
C5F C 1.24929(12) 1.03566(18) 0.81736(11)
C5M C 1.18264(11) 1.03566(18) 0.75071(12)
C6P C 1.0552(2) 0.7194(2) 0.74940(17)
C6EA C 0.7806(2) 0.5552(2) 0.75060(17)
C6MA C 0.75060(17) 0.5552(2) 0.7806(2)
C6UA C 0.7806(2) 0.75060(17) 0.5552(2)
C6IA C 0.75060(17) 0.7806(2) 0.5552(2)
C6H C 0.74940(17) 0.7194(2) 1.0552(2)
C6T C 0.7194(2) 0.74940(17) 1.0552(2)
C6AA C 0.5552(2) 0.75060(17) 0.7806(2)
C6QA C 0.5552(2) 0.7806(2) 0.75060(17)
C6V C 1.2806(2) 0.74940(17) 0.9448(2)
C6I C 1.25060(17) 0.7194(2) 0.9448(2)
C6JA C 1.24940(17) 0.5552(2) 1.2194(2)
C6BA C 1.2194(2) 0.5552(2) 1.24940(17)
C6Y C 1.4448(2) 0.75060(17) 1.2194(2)
C6PA C 1.4448(2) 0.7806(2) 1.24940(17)
C6B C 0.9448(2) 0.74940(17) 1.2806(2)
C6Q C 0.9448(2) 0.7194(2) 1.25060(17)
C6SA C 1.2194(2) 0.75060(17) 1.4448(2)
C6HA C 1.24940(17) 0.7806(2) 1.4448(2)
C6D C 0.7194(2) 1.0552(2) 0.74940(17)
C6L C 0.74940(17) 1.0552(2) 0.7194(2)
C6F C 1.2806(2) 0.9448(2) 0.74940(17)
C6M C 1.25060(17) 0.9448(2) 0.7194(2)
H5P H 1.0742 0.7143 0.7725
H5EA H 0.7857 0.5742 0.7275
H5MA H 0.7275 0.5742 0.7857
H5UA H 0.7857 0.7275 0.5742
H5IA H 0.7275 0.7857 0.5742
H5H H 0.7725 0.7143 1.0742
H5T H 0.7143 0.7725 1.0742
H5AA H 0.5742 0.7275 0.7857
H5QA H 0.5742 0.7857 0.7275
H5V H 1.2857 0.7725 0.9258
H5I H 1.2275 0.7143 0.9258
H5JA H 1.2725 0.5742 1.2143
H5BA H 1.2143 0.5742 1.2725
H5Y H 1.4258 0.7275 1.2143
H5PA H 1.4258 0.7857 1.2725
H5B H 0.9258 0.7725 1.2857
H5Q H 0.9258 0.7143 1.2275
H5SA H 1.2143 0.7275 1.4258
H5HA H 1.2725 0.7857 1.4258
H5D H 0.7143 1.0742 0.7725
H5L H 0.7725 1.0742 0.7143
H5F H 1.2857 0.9258 0.7725
H5M H 1.2275 0.9258 0.7143
C7EA C 0.78865(15) 0.56854(15) 0.78865(14)
C7IA C 0.78865(14) 0.78865(15) 0.56854(15)
C7H C 0.71135(14) 0.71135(15) 1.06854(15)
C7AA C 0.56854(15) 0.78865(14) 0.78865(15)
C7I C 1.28865(14) 0.71135(15) 0.93146(15)
C7BA C 1.21135(15) 0.56854(15) 1.21135(14)
C7Y C 1.43146(15) 0.78865(14) 1.21135(15)
C7B C 0.93146(15) 0.71135(14) 1.28865(15)
C7HA C 1.21135(14) 0.78865(15) 1.43146(15)
C7D C 0.71135(15) 1.06854(15) 0.71135(14)
C7F C 1.28865(15) 0.93146(15) 0.71135(14)
H6P H 1.0480 0.7150 0.6893
H6EA H 0.7850 0.5480 0.8107
H6MA H 0.8107 0.5480 0.7850
H6UA H 0.7850 0.8107 0.5480
H6IA H 0.8107 0.7850 0.5480
H6H H 0.6893 0.7150 1.0480
H6T H 0.7150 0.6893 1.0480
H6AA H 0.5480 0.8107 0.7850
H6QA H 0.5480 0.7850 0.8107
H6V H 1.2850 0.6893 0.9520
H6I H 1.3107 0.7150 0.9520
H6JA H 1.1893 0.5480 1.2150
H6BA H 1.2150 0.5480 1.1893
H6Y H 1.4520 0.8107 1.2150
H6PA H 1.4520 0.7850 1.1893
H6B H 0.9520 0.6893 1.2850
H6Q H 0.9520 0.7150 1.3107
H6SA H 1.2150 0.8107 1.4520
H6HA H 1.1893 0.7850 1.4520
H6D H 0.7150 1.0480 0.6893
H6L H 0.6893 1.0480 0.7150
H6F H 1.2850 0.9520 0.6893
H6M H 1.3107 0.9520 0.7150
C8EA C 0.80299(10) 0.61186(10) 0.80299(12)
C8IA C 0.80299(12) 0.80299(10) 0.61186(10)
C8H C 0.69701(12) 0.69701(10) 1.11186(10)
C8AA C 0.61186(10) 0.80299(12) 0.80299(10)
C8I C 1.30299(12) 0.69701(10) 0.88814(10)
C8BA C 1.19701(10) 0.61186(10) 1.19701(12)
C8Y C 1.38814(10) 0.80299(12) 1.19701(10)
C8B C 0.88814(10) 0.69701(12) 1.30299(10)
C8HA C 1.19701(12) 0.80299(10) 1.38814(10)
C8D C 0.69701(10) 1.11186(10) 0.69701(12)
C8F C 1.30299(10) 0.88814(10) 0.69701(12)
C9P C 1.13163(11) 0.66359(12) 0.71734(9)
C9EA C 0.83641(12) 0.63163(11) 0.78266(9)
C9MA C 0.78266(9) 0.63163(11) 0.83641(12)
C9UA C 0.83641(12) 0.78266(9) 0.63163(11)
C9IA C 0.78266(9) 0.83641(12) 0.63163(11)
C9H C 0.71734(9) 0.66359(12) 1.13163(11)
C9T C 0.66359(12) 0.71734(9) 1.13163(11)
C9AA C 0.63163(11) 0.78266(9) 0.83641(12)
C9QA C 0.63163(11) 0.83641(12) 0.78266(9)
C9V C 1.33641(12) 0.71734(9) 0.86837(11)
C9I C 1.28266(9) 0.66359(12) 0.86837(11)
C9JA C 1.21734(9) 0.63163(11) 1.16359(12)
C9BA C 1.16359(12) 0.63163(11) 1.21734(9)
C9Y C 1.36837(11) 0.78266(9) 1.16359(12)
C9PA C 1.36837(11) 0.83641(12) 1.21734(9)
C9B C 0.86837(11) 0.71734(9) 1.33641(12)
C9Q C 0.86837(11) 0.66359(12) 1.28266(9)
C9SA C 1.16359(12) 0.78266(9) 1.36837(11)
C9HA C 1.21734(9) 0.83641(12) 1.36837(11)
C9D C 0.66359(12) 1.13163(11) 0.71734(9)
C9L C 0.71734(9) 1.13163(11) 0.66359(12)
C9F C 1.33641(12) 0.86837(11) 0.71734(9)
C9M C 1.28266(9) 0.86837(11) 0.66359(12)
H7P H 1.1179 0.6493 0.7403
H7EA H 0.8507 0.6179 0.7597
H7MA H 0.7597 0.6179 0.8507
H7UA H 0.8507 0.7597 0.6179
H7IA H 0.7597 0.8507 0.6179
H7H H 0.7403 0.6493 1.1179
H7T H 0.6493 0.7403 1.1179
H7AA H 0.6179 0.7597 0.8507
H7QA H 0.6179 0.8507 0.7597
H7V H 1.3507 0.7403 0.8821
H7I H 1.2597 0.6493 0.8821
H7JA H 1.2403 0.6179 1.1493
H7BA H 1.1493 0.6179 1.2403
H7Y H 1.3821 0.7597 1.1493
H7PA H 1.3821 0.8507 1.2403
H7B H 0.8821 0.7403 1.3507
H7Q H 0.8821 0.6493 1.2597
H7SA H 1.1493 0.7597 1.3821
H7HA H 1.2403 0.8507 1.3821
H7D H 0.6493 1.1179 0.7403
H7L H 0.7403 1.1179 0.6493
H7F H 1.3507 0.8821 0.7403
H7M H 1.2597 0.8821 0.6493
C10P C 1.17172(10) 0.65091(12) 0.70407(9)
C10EA C 0.84909(12) 0.67172(10) 0.79593(9)
C10MA C 0.79593(9) 0.67172(10) 0.84909(12)
C10UA C 0.84909(12) 0.79593(9) 0.67172(10)
C10IA C 0.79593(9) 0.84909(12) 0.67172(10)
C10H C 0.70407(9) 0.65091(12) 1.17172(10)
C10T C 0.65091(12) 0.70407(9) 1.17172(10)
C10AA C 0.67172(10) 0.79593(9) 0.84909(12)
C10QA C 0.67172(10) 0.84909(12) 0.79593(9)
C10V C 1.34909(12) 0.70407(9) 0.82828(10)
C10I C 1.29593(9) 0.65091(12) 0.82828(10)
C10JA C 1.20407(9) 0.67172(10) 1.15091(12)
C10BA C 1.15091(12) 0.67172(10) 1.20407(9)
C10Y C 1.32828(10) 0.79593(9) 1.15091(12)
C10PA C 1.32828(10) 0.84909(12) 1.20407(9)
C10B C 0.82828(10) 0.70407(9) 1.34909(12)
C10Q C 0.82828(10) 0.65091(12) 1.29593(9)
C10SA C 1.15091(12) 0.79593(9) 1.32828(10)
C10HA C 1.20407(9) 0.84909(12) 1.32828(10)
C10D C 0.65091(12) 1.17172(10) 0.70407(9)
C10L C 0.70407(9) 1.17172(10) 0.65091(12)
C10F C 1.34909(12) 0.82828(10) 0.70407(9)
C10M C 1.29593(9) 0.82828(10) 0.65091(12)
H8P H 1.1852 0.6274 0.7177
H8EA H 0.8726 0.6852 0.7823
H8MA H 0.7823 0.6852 0.8726
H8UA H 0.8726 0.7823 0.6852
H8IA H 0.7823 0.8726 0.6852
H8H H 0.7177 0.6274 1.1852
H8T H 0.6274 0.7177 1.1852
H8AA H 0.6852 0.7823 0.8726
H8QA H 0.6852 0.8726 0.7823
H8V H 1.3726 0.7177 0.8148
H8I H 1.2823 0.6274 0.8148
H8JA H 1.2177 0.6852 1.1274
H8BA H 1.1274 0.6852 1.2177
H8Y H 1.3148 0.7823 1.1274
H8PA H 1.3148 0.8726 1.2177
H8B H 0.8148 0.7177 1.3726
H8Q H 0.8148 0.6274 1.2823
H8SA H 1.1274 0.7823 1.3148
H8HA H 1.2177 0.8726 1.3148
H8D H 0.6274 1.1852 0.7177
H8L H 0.7177 1.1852 0.6274
H8F H 1.3726 0.8148 0.7177
H8M H 1.2823 0.8148 0.6274
C11EA C 0.82841(8) 0.69234(8) 0.82841(10)
C11IA C 0.82841(10) 0.82841(8) 0.69234(8)
C11H C 0.67159(10) 0.67159(8) 1.19234(8)
C11AA C 0.69234(8) 0.82841(10) 0.82841(8)
C11I C 1.32841(10) 0.67159(8) 0.80766(8)
C11BA C 1.17159(8) 0.69234(8) 1.17159(10)
C11Y C 1.30766(8) 0.82841(10) 1.17159(8)
C11B C 0.80766(8) 0.67159(10) 1.32841(8)
C11HA C 1.17159(10) 0.82841(8) 1.30766(8)
C11D C 0.67159(8) 1.19234(8) 0.67159(10)
C11F C 1.32841(8) 0.80766(8) 0.67159(10)
C12EA C 0.83935(7) 0.73870(7) 0.83935(10)
C12IA C 0.83935(10) 0.83935(7) 0.73870(7)
C12H C 0.66065(10) 0.66065(7) 1.23870(7)
C12AA C 0.73870(7) 0.83935(10) 0.83935(7)
C12I C 1.33935(10) 0.66065(7) 0.76130(7)
C12BA C 1.16065(7) 0.73870(7) 1.16065(10)
C12Y C 1.26130(7) 0.83935(10) 1.16065(7)
C12B C 0.76130(7) 0.66065(10) 1.33935(7)
C12HA C 1.16065(10) 0.83935(7) 1.26130(7)
C12D C 0.66065(7) 1.23870(7) 0.66065(10)
C12F C 1.33935(7) 0.76130(7) 0.66065(10)
C13B C 1.09011(6) 0.80528(11) 1.09011(6)
C13D C 0.90989(6) 0.90989(6) 0.80528(11)
C13F C 1.09011(6) 1.09011(6) 0.80528(11)
C13H C 0.80528(11) 0.90989(6) 0.90989(6)
C13J C 0.80528(11) 1.09011(6) 1.09011(6)
C13I C 1.19472(11) 0.90989(6) 1.09011(6)
C13K C 1.19472(11) 1.09011(6) 0.90989(6)
C13G C 1.09011(6) 0.90989(6) 1.19472(11)
C13E C 0.90989(6) 1.09011(6) 1.19472(11)
C13A C 1.09011(6) 1.19472(11) 0.90989(6)
C13C C 0.90989(6) 1.19472(11) 1.09011(6)
C14V C 1.06382(11) 0.79994(12) 1.04894(11)
C14B C 1.04894(11) 0.79994(12) 1.06382(11)
C14T C 0.93618(11) 0.79994(12) 0.95106(11)
C14P C 0.95106(11) 0.93618(11) 0.79994(12)
C14F C 1.06382(11) 1.04894(11) 0.79994(12)
C14R C 1.04894(11) 1.06382(11) 0.79994(12)
C14D C 0.93618(11) 0.95106(11) 0.79994(12)
C14H C 0.79994(12) 0.93618(11) 0.95106(11)
C14N C 0.79994(12) 1.04894(11) 1.06382(11)
C14J C 0.79994(12) 1.06382(11) 1.04894(11)
C14L C 0.79994(12) 0.95106(11) 0.93618(11)
C14I C 1.20006(12) 0.93618(11) 1.04894(11)
C14M C 1.20006(12) 1.04894(11) 0.93618(11)
C14K C 1.20006(12) 1.06382(11) 0.95106(11)
C14O C 1.20006(12) 0.95106(11) 1.06382(11)
C14Q C 1.04894(11) 0.93618(11) 1.20006(12)
C14E C 0.93618(11) 1.04894(11) 1.20006(12)
C14S C 0.95106(11) 1.06382(11) 1.20006(12)
C14G C 1.06382(11) 0.95106(11) 1.20006(12)
C14A C 1.04894(11) 1.20006(12) 0.93618(11)
C14U C 0.93618(11) 1.20006(12) 1.04894(11)
C14C C 0.95106(11) 1.20006(12) 1.06382(11)
C14W C 1.06382(11) 1.20006(12) 0.95106(11)
C15V C 1.08019(13) 0.80018(11) 1.00746(11)
C15B C 1.00746(11) 0.80018(11) 1.08019(13)
C15T C 0.91981(13) 0.80018(11) 0.99254(11)
C15P C 0.99254(11) 0.91981(13) 0.80018(11)
C15F C 1.08019(13) 1.00746(11) 0.80018(11)
C15R C 1.00746(11) 1.08019(13) 0.80018(11)
C15D C 0.91981(13) 0.99254(11) 0.80018(11)
C15H C 0.80018(11) 0.91981(13) 0.99254(11)
C15N C 0.80018(11) 1.00746(11) 1.08019(13)
C15J C 0.80018(11) 1.08019(13) 1.00746(11)
C15L C 0.80018(11) 0.99254(11) 0.91981(13)
C15I C 1.19982(11) 0.91981(13) 1.00746(11)
C15M C 1.19982(11) 1.00746(11) 0.91981(13)
C15K C 1.19982(11) 1.08019(13) 0.99254(11)
C15O C 1.19982(11) 0.99254(11) 1.08019(13)
C15Q C 1.00746(11) 0.91981(13) 1.19982(11)
C15E C 0.91981(13) 1.00746(11) 1.19982(11)
C15S C 0.99254(11) 1.08019(13) 1.19982(11)
C15G C 1.08019(13) 0.99254(11) 1.19982(11)
C15A C 1.00746(11) 1.19982(11) 0.91981(13)
C15U C 0.91981(13) 1.19982(11) 1.00746(11)
C15C C 0.99254(11) 1.19982(11) 1.08019(13)
C15W C 1.08019(13) 1.19982(11) 0.99254(11)
H9B H 1.0027 0.8012 1.1095
H9T H 0.8905 0.8012 0.9973
H9V H 1.1095 0.8012 1.0027
H9P H 0.9973 0.8905 0.8012
H9R H 1.0027 1.1095 0.8012
H9D H 0.8905 0.9973 0.8012
H9F H 1.1095 1.0027 0.8012
H9H H 0.8012 0.8905 0.9973
H9J H 0.8012 1.1095 1.0027
H9L H 0.8012 0.9973 0.8905
H9N H 0.8012 1.0027 1.1095
H9I H 1.1988 0.8905 1.0027
H9K H 1.1988 1.1095 0.9973
H9O H 1.1988 0.9973 1.1095
H9M H 1.1988 1.0027 0.8905
H9Q H 1.0027 0.8905 1.1988
H9S H 0.9973 1.1095 1.1988
H9G H 1.1095 0.9973 1.1988
H9E H 0.8905 1.0027 1.1988
H9A H 1.0027 1.1988 0.8905
H9C H 0.9973 1.1988 1.1095
H9W H 1.1095 1.1988 0.9973
H9U H 0.8905 1.1988 1.0027
C16V C 1.05183(11) 0.79808(12) 0.97243(12)
C16B C 0.97243(12) 0.79808(12) 1.05183(11)
C16T C 0.94817(11) 0.79808(12) 1.02757(12)
C16P C 1.02757(12) 0.94817(11) 0.79808(12)
C16F C 1.05183(11) 0.97243(12) 0.79808(12)
C16R C 0.97243(12) 1.05183(11) 0.79808(12)
C16D C 0.94817(11) 1.02757(12) 0.79808(12)
C16H C 0.79808(12) 0.94817(11) 1.02757(12)
C16N C 0.79808(12) 0.97243(12) 1.05183(11)
C16J C 0.79808(12) 1.05183(11) 0.97243(12)
C16L C 0.79808(12) 1.02757(12) 0.94817(11)
C16I C 1.20192(12) 0.94817(11) 0.97243(12)
C16M C 1.20192(12) 0.97243(12) 0.94817(11)
C16K C 1.20192(12) 1.05183(11) 1.02757(12)
C16O C 1.20192(12) 1.02757(12) 1.05183(11)
C16Q C 0.97243(12) 0.94817(11) 1.20192(12)
C16E C 0.94817(11) 0.97243(12) 1.20192(12)
C16S C 1.02757(12) 1.05183(11) 1.20192(12)
C16G C 1.05183(11) 1.02757(12) 1.20192(12)
C16A C 0.97243(12) 1.20192(12) 0.94817(11)
C16U C 0.94817(11) 1.20192(12) 0.97243(12)
C16C C 1.02757(12) 1.20192(12) 1.05183(11)
C16W C 1.05183(11) 1.20192(12) 1.02757(12)
H10B H 0.9446 0.7976 1.0623
H10T H 0.9377 0.7976 1.0554
H10V H 1.0623 0.7976 0.9446
H10P H 1.0554 0.9377 0.7976
H10R H 0.9446 1.0623 0.7976
H10D H 0.9377 1.0554 0.7976
H10F H 1.0623 0.9446 0.7976
H10H H 0.7976 0.9377 1.0554
H10J H 0.7976 1.0623 0.9446
H10L H 0.7976 1.0554 0.9377
H10N H 0.7976 0.9446 1.0623
H10I H 1.2024 0.9377 0.9446
H10K H 1.2024 1.0623 1.0554
H10O H 1.2024 1.0554 1.0623
H10M H 1.2024 0.9446 0.9377
H10Q H 0.9446 0.9377 1.2024
H10S H 1.0554 1.0623 1.2024
H10G H 1.0623 1.0554 1.2024
H10E H 0.9377 0.9446 1.2024
H10A H 0.9446 1.2024 0.9377
H10C H 1.0554 1.2024 1.0623
H10W H 1.0623 1.2024 1.0554
H10U H 0.9377 1.2024 0.9446
O3P O 1.25493(7) 0.63245(14) 0.68052(8)
O3EA O 0.86755(14) 0.75493(7) 0.81948(8)
O3MA O 0.81948(8) 0.75493(7) 0.86755(14)
O3UA O 0.86755(14) 0.81948(8) 0.75493(7)
O3IA O 0.81948(8) 0.86755(14) 0.75493(7)
O3H O 0.68052(8) 0.63245(14) 1.25493(7)
O3T O 0.63245(14) 0.68052(8) 1.25493(7)
O3AA O 0.75493(7) 0.81948(8) 0.86755(14)
O3QA O 0.75493(7) 0.86755(14) 0.81948(8)
O3V O 1.36755(14) 0.68052(8) 0.74507(7)
O3I O 1.31948(8) 0.63245(14) 0.74507(7)
O3JA O 1.18052(8) 0.75493(7) 1.13245(14)
O3BA O 1.13245(14) 0.75493(7) 1.18052(8)
O3Y O 1.24507(7) 0.81948(8) 1.13245(14)
O3PA O 1.24507(7) 0.86755(14) 1.18052(8)
O3B O 0.74507(7) 0.68052(8) 1.36755(14)
O3Q O 0.74507(7) 0.63245(14) 1.31948(8)
O3SA O 1.13245(14) 0.81948(8) 1.24507(7)
O3HA O 1.18052(8) 0.86755(14) 1.24507(7)
O3D O 0.63245(14) 1.25493(7) 0.68052(8)
O3L O 0.68052(8) 1.25493(7) 0.63245(14)
O3F O 1.36755(14) 0.74507(7) 0.68052(8)
O3M O 1.31948(8) 0.74507(7) 0.63245(14)
O3FA O 1.18052(8) 1.13245(14) 0.75493(7)
O3OA O 1.24507(7) 1.13245(14) 0.81948(8)
O3RA O 1.13245(14) 1.18052(8) 0.75493(7)
O3CA O 1.13245(14) 1.24507(7) 0.81948(8)
O3J O 0.68052(8) 0.36755(14) 0.74507(7)
O3R O 0.74507(7) 0.36755(14) 0.68052(8)
O3N O 0.68052(8) 0.74507(7) 0.36755(14)
O3B_2 O 0.74507(7) 0.68052(8) 0.36755(14)
O3D_2 O 0.63245(14) 0.25493(7) 0.68052(8)
O3U O 0.63245(14) 0.31948(8) 0.74507(7)
loop_
_geom_bond_atom_site_label_1
_geom_bond_atom_site_label_2
_geom_bond_site_symmetry_1
_geom_bond_site_symmetry_2
Ni1 O1 1_555 1_555
O1 Ni1H 1_555 1_555
O2 Ni1 1_555 1_555
N1 Ni1 1_555 1_555
C1 N1 1_555 1_555
H1 C1 1_555 1_555
C2 C1 1_555 1_555
H2 C2 1_555 1_555
C3 C2 1_555 1_555
C4 C1 1_555 1_555
C5 N1 1_555 1_555
C6 C3 1_555 1_555
H5 C6 1_555 1_555
C7 C6 1_555 1_555
H6 C7 1_555 1_555
C8 C7 1_555 1_555
C9 C8 1_555 1_555
H7 C9 1_555 1_555
C10 C9 1_555 1_555
H8 C10 1_555 1_555
C11 C10 1_555 1_555
C12 C11 1_555 1_555
C13 O2 1_555 1_555
C14 C13 1_555 1_555
C15 C14 1_555 1_555
H9 C15 1_555 1_555
C16 C15 1_555 1_555
H10 C16 1_555 1_555
O3 C12 1_555 1_555
Ni1H O2T 1_555 1_555
Ni1I O1B 1_555 1_555
Ni1B O1B 1_555 1_555
Ni1D O1 1_555 1_555
Ni1F O1A 1_555 1_555
Ni1A O1A 1_555 1_555
Ni1EA O1Z 1_555 1_555
Ni1IA O1Y 1_555 1_555
Ni1HA O3 1_555 1_555
Ni1CA O1AA 1_555 1_555
Ni1Z O1Z 1_555 1_555
Ni1E O2N 1_555 1_555
Ni1J O2J 1_555 1_555
Ni1DA O3H 1_555 1_555
Ni1Y O3T 1_555 1_555
Ni1AA N1AA 1_555 1_555
Ni1G O1B 1_555 1_555
Ni1AA_2 O1AA 1_555 1_555
Ni1BA N1JA 1_555 1_555
Ni1K O1A 1_555 1_555
Ni1Y_2 N1Y 1_555 1_555
Ni1IA_2 O3B 1_555 1_555
Ni1C O2S 1_555 1_555
Ni1HA_2 N1SA 1_555 1_555
Ni1Z_2 O3D 1_555 1_555
Ni1GA O3L 1_555 1_555
Ni1GA_2 O1Z 1_555 1_555
O1AA Ni1HA 1_555 1_555
O2T C13 1_555 1_555
O2V Ni1I 1_555 1_555
O2B Ni1B 1_555 1_555
O2P Ni1 1_555 1_555
O2D Ni1D 1_555 1_555
O2F Ni1F 1_555 1_555
O2R Ni1A 1_555 1_555
O2H Ni1H 1_555 1_555
O2L Ni1D 1_555 1_555
O2N C13J 1_555 1_555
O2J C13J 1_555 1_555
O2I Ni1I 1_555 1_555
O2O Ni1G 1_555 1_555
O2M Ni1F 1_555 1_555
O2K Ni1K 1_555 1_555
O2Q Ni1B 1_555 1_555
O2G Ni1G 1_555 1_555
O2E Ni1E 1_555 1_555
O2S C13E 1_555 1_555
O2A Ni1A 1_555 1_555
O2W Ni1K 1_555 1_555
O2U Ni1J 1_555 1_555
O2C Ni1C 1_555 1_555
O2EA Ni1EA 1_555 1_555
O2MA Ni1EA 1_555 1_555
O2UA Ni1IA 1_555 1_555
O2IA Ni1IA 1_555 1_555
O2HA Ni1HA 1_555 1_555
O2SA Ni1HA 1_555 1_555
O2LA Ni1CA 1_555 1_555
O2CA Ni1CA 1_555 1_555
O2Z Ni1Z 1_555 1_555
O2OA Ni1Z 1_555 1_555
N1P Ni1 1_555 1_555
N1EA Ni1EA 1_555 1_555
N1MA Ni1EA 1_555 1_555
N1UA Ni1IA 1_555 1_555
N1IA Ni1IA 1_555 1_555
N1H Ni1H 1_555 1_555
N1T Ni1H 1_555 1_555
N1AA N1QA 1_555 1_555
N1QA Ni1AA 1_555 1_555
N1V Ni1I 1_555 1_555
N1I Ni1I 1_555 1_555
N1JA N1BA 1_555 1_555
N1BA Ni1BA 1_555 1_555
N1Y N1PA 1_555 1_555
N1PA Ni1Y_2 1_555 1_555
N1B Ni1B 1_555 1_555
N1Q Ni1B 1_555 1_555
N1SA N1HA 1_555 1_555
N1HA Ni1HA_2 1_555 1_555
N1D Ni1D 1_555 1_555
N1L Ni1D 1_555 1_555
N1F Ni1F 1_555 1_555
N1M Ni1F 1_555 1_555
N1R Ni1A 1_555 1_555
N1A Ni1A 1_555 1_555
N1HA_2 Ni1HA 1_555 1_555
N1SA_2 Ni1HA 1_555 1_555
N1LA Ni1CA 1_555 1_555
N1CA Ni1CA 1_555 1_555
N1Z Ni1Z 1_555 1_555
N1OA Ni1Z 1_555 1_555
C1P N1 1_555 1_555
C1EA N1EA 1_555 1_555
C1MA N1EA 1_555 1_555
C1UA N1UA 1_555 1_555
C1IA N1UA 1_555 1_555
C1H N1H 1_555 1_555
C1T N1H 1_555 1_555
C1AA N1AA 1_555 1_555
C1QA N1AA 1_555 1_555
C1V N1V 1_555 1_555
C1I N1V 1_555 1_555
C1JA N1JA 1_555 1_555
C1BA N1JA 1_555 1_555
C1Y N1Y 1_555 1_555
C1PA N1Y 1_555 1_555
C1B N1B 1_555 1_555
C1Q N1B 1_555 1_555
C1SA N1SA 1_555 1_555
C1HA N1SA 1_555 1_555
C1D N1D 1_555 1_555
C1L N1D 1_555 1_555
C1F N1F 1_555 1_555
C1M N1F 1_555 1_555
H1P C5 1_555 1_555
H1EA C1EA 1_555 1_555
H1MA C1MA 1_555 1_555
H1UA C1UA 1_555 1_555
H1IA C1IA 1_555 1_555
H1H C1H 1_555 1_555
H1T C1T 1_555 1_555
H1AA C1AA 1_555 1_555
H1QA C1QA 1_555 1_555
H1V C1V 1_555 1_555
H1I C1I 1_555 1_555
H1JA C1JA 1_555 1_555
H1BA C1BA 1_555 1_555
H1Y C1Y 1_555 1_555
H1PA C1PA 1_555 1_555
H1B C1B 1_555 1_555
H1Q C1Q 1_555 1_555
H1SA C1SA 1_555 1_555
H1HA C1HA 1_555 1_555
H1D C1D 1_555 1_555
H1L C1L 1_555 1_555
H1F C1F 1_555 1_555
H1M C1M 1_555 1_555
C2P C2 1_555 1_555
C2EA C1EA 1_555 1_555
C2MA C1MA 1_555 1_555
C2UA C1UA 1_555 1_555
C2IA C1IA 1_555 1_555
C2H C1H 1_555 1_555
C2T C1T 1_555 1_555
C2AA C1AA 1_555 1_555
C2QA C1QA 1_555 1_555
C2V C1V 1_555 1_555
C2I C1I 1_555 1_555
C2JA C1JA 1_555 1_555
C2BA C1BA 1_555 1_555
C2Y C1Y 1_555 1_555
C2PA C1PA 1_555 1_555
C2B C1B 1_555 1_555
C2Q C1Q 1_555 1_555
C2SA C1SA 1_555 1_555
C2HA C1HA 1_555 1_555
C2D C1D 1_555 1_555
C2L C1L 1_555 1_555
C2F C1F 1_555 1_555
C2M C1M 1_555 1_555
H2P C3 1_555 1_555
H2EA C2EA 1_555 1_555
H2MA C2MA 1_555 1_555
H2UA C2UA 1_555 1_555
H2IA C2IA 1_555 1_555
H2H C2H 1_555 1_555
H2T C2T 1_555 1_555
H2AA C2AA 1_555 1_555
H2QA C2QA 1_555 1_555
H2V C2V 1_555 1_555
H2I C2I 1_555 1_555
H2JA C2JA 1_555 1_555
H2BA C2BA 1_555 1_555
H2Y C2Y 1_555 1_555
H2PA C2PA 1_555 1_555
H2B C2B 1_555 1_555
H2Q C2Q 1_555 1_555
H2SA C2SA 1_555 1_555
H2HA C2HA 1_555 1_555
H2D C2D 1_555 1_555
H2L C2L 1_555 1_555
H2F C2F 1_555 1_555
H2M C2M 1_555 1_555
C3P C2 1_555 1_555
C3EA C2EA 1_555 1_555
C3MA C2EA 1_555 1_555
C3UA C2UA 1_555 1_555
C3IA C2UA 1_555 1_555
C3H C2H 1_555 1_555
C3T C2H 1_555 1_555
C3AA C2AA 1_555 1_555
C3QA C2AA 1_555 1_555
C3V C2V 1_555 1_555
C3I C2V 1_555 1_555
C3JA C2JA 1_555 1_555
C3BA C2JA 1_555 1_555
C3Y C2Y 1_555 1_555
C3PA C2Y 1_555 1_555
C3B C2B 1_555 1_555
C3Q C2B 1_555 1_555
C3SA C2SA 1_555 1_555
C3HA C2SA 1_555 1_555
C3D C2D 1_555 1_555
C3L C2D 1_555 1_555
C3F C2F 1_555 1_555
C3M C2F 1_555 1_555
C4P C3 1_555 1_555
C4EA C1EA 1_555 1_555
C4MA C1MA 1_555 1_555
C4UA C1UA 1_555 1_555
C4IA C1IA 1_555 1_555
C4H C1H 1_555 1_555
C4T C1T 1_555 1_555
C4AA C1AA 1_555 1_555
C4QA C1QA 1_555 1_555
C4V C1V 1_555 1_555
C4I C1I 1_555 1_555
C4JA C1JA 1_555 1_555
C4BA C1BA 1_555 1_555
C4Y C1Y 1_555 1_555
C4PA C1PA 1_555 1_555
C4B C1B 1_555 1_555
C4Q C1Q 1_555 1_555
C4SA C1SA 1_555 1_555
C4HA C1HA 1_555 1_555
C4D C1D 1_555 1_555
C4L C1L 1_555 1_555
C4F C1F 1_555 1_555
C4M C1M 1_555 1_555
C5P C1 1_555 1_555
C5EA N1EA 1_555 1_555
C5MA N1MA 1_555 1_555
C5UA N1UA 1_555 1_555
C5IA N1IA 1_555 1_555
C5H N1H 1_555 1_555
C5T N1T 1_555 1_555
C5AA N1AA 1_555 1_555
C5QA N1QA 1_555 1_555
C5V N1V 1_555 1_555
C5I N1I 1_555 1_555
C5JA N1JA 1_555 1_555
C5BA N1BA 1_555 1_555
C5Y N1Y 1_555 1_555
C5PA N1PA 1_555 1_555
C5B N1B 1_555 1_555
C5Q N1Q 1_555 1_555
C5SA N1SA 1_555 1_555
C5HA N1HA 1_555 1_555
C5D N1D 1_555 1_555
C5L N1L 1_555 1_555
C5F N1F 1_555 1_555
C5M N1M 1_555 1_555
C6P C6 1_555 1_555
C6EA C3EA 1_555 1_555
C6MA C3MA 1_555 1_555
C6UA C3UA 1_555 1_555
C6IA C3IA 1_555 1_555
C6H C3H 1_555 1_555
C6T C3T 1_555 1_555
C6AA C3AA 1_555 1_555
C6QA C3QA 1_555 1_555
C6V C3V 1_555 1_555
C6I C3I 1_555 1_555
C6JA C3JA 1_555 1_555
C6BA C3BA 1_555 1_555
C6Y C3Y 1_555 1_555
C6PA C3PA 1_555 1_555
C6B C3B 1_555 1_555
C6Q C3Q 1_555 1_555
C6SA C3SA 1_555 1_555
C6HA C3HA 1_555 1_555
C6D C3D 1_555 1_555
C6L C3L 1_555 1_555
C6F C3F 1_555 1_555
C6M C3M 1_555 1_555
H5P C6P 1_555 1_555
H5EA C6EA 1_555 1_555
H5MA C6MA 1_555 1_555
H5UA C6UA 1_555 1_555
H5IA C6IA 1_555 1_555
H5H C6H 1_555 1_555
H5T C6T 1_555 1_555
H5AA C6AA 1_555 1_555
H5QA C6QA 1_555 1_555
H5V C6V 1_555 1_555
H5I C6I 1_555 1_555
H5JA C6JA 1_555 1_555
H5BA C6BA 1_555 1_555
H5Y C6Y 1_555 1_555
H5PA C6PA 1_555 1_555
H5B C6B 1_555 1_555
H5Q C6Q 1_555 1_555
H5SA C6SA 1_555 1_555
H5HA C6HA 1_555 1_555
H5D C6D 1_555 1_555
H5L C6L 1_555 1_555
H5F C6F 1_555 1_555
H5M C6M 1_555 1_555
C7EA C6EA 1_555 1_555
C7IA C6UA 1_555 1_555
C7H C6H 1_555 1_555
C7AA C6AA 1_555 1_555
C7I C6V 1_555 1_555
C7BA C6JA 1_555 1_555
C7Y C6Y 1_555 1_555
C7B C6B 1_555 1_555
C7HA C6SA 1_555 1_555
C7D C6D 1_555 1_555
C7F C6F 1_555 1_555
H6P C7 1_555 1_555
H6EA C7EA 1_555 1_555
H6MA C7EA 1_555 1_555
H6UA C7IA 1_555 1_555
H6IA C7IA 1_555 1_555
H6H C7H 1_555 1_555
H6T C7H 1_555 1_555
H6AA C7AA 1_555 1_555
H6QA C7AA 1_555 1_555
H6V C7I 1_555 1_555
H6I C7I 1_555 1_555
H6JA C7BA 1_555 1_555
H6BA C7BA 1_555 1_555
H6Y C7Y 1_555 1_555
H6PA C7Y 1_555 1_555
H6B C7B 1_555 1_555
H6Q C7B 1_555 1_555
H6SA C7HA 1_555 1_555
H6HA C7HA 1_555 1_555
H6D C7D 1_555 1_555
H6L C7D 1_555 1_555
H6F C7F 1_555 1_555
H6M C7F 1_555 1_555
C8EA C7EA 1_555 1_555
C8IA C7IA 1_555 1_555
C8H C7H 1_555 1_555
C8AA C7AA 1_555 1_555
C8I C7I 1_555 1_555
C8BA C7BA 1_555 1_555
C8Y C7Y 1_555 1_555
C8B C7B 1_555 1_555
C8HA C7HA 1_555 1_555
C8D C7D 1_555 1_555
C8F C7F 1_555 1_555
C9P C8 1_555 1_555
C9EA C8EA 1_555 1_555
C9MA C8EA 1_555 1_555
C9UA C8IA 1_555 1_555
C9IA C8IA 1_555 1_555
C9H C8H 1_555 1_555
C9T C8H 1_555 1_555
C9AA C8AA 1_555 1_555
C9QA C8AA 1_555 1_555
C9V C8I 1_555 1_555
C9I C8I 1_555 1_555
C9JA C8BA 1_555 1_555
C9BA C8BA 1_555 1_555
C9Y C8Y 1_555 1_555
C9PA C8Y 1_555 1_555
C9B C8B 1_555 1_555
C9Q C8B 1_555 1_555
C9SA C8HA 1_555 1_555
C9HA C8HA 1_555 1_555
C9D C8D 1_555 1_555
C9L C8D 1_555 1_555
C9F C8F 1_555 1_555
C9M C8F 1_555 1_555
H7P C9P 1_555 1_555
H7EA C9EA 1_555 1_555
H7MA C9MA 1_555 1_555
H7UA C9UA 1_555 1_555
H7IA C9IA 1_555 1_555
H7H C9H 1_555 1_555
H7T C9T 1_555 1_555
H7AA C9AA 1_555 1_555
H7QA C9QA 1_555 1_555
H7V C9V 1_555 1_555
H7I C9I 1_555 1_555
H7JA C9JA 1_555 1_555
H7BA C9BA 1_555 1_555
H7Y C9Y 1_555 1_555
H7PA C9PA 1_555 1_555
H7B C9B 1_555 1_555
H7Q C9Q 1_555 1_555
H7SA C9SA 1_555 1_555
H7HA C9HA 1_555 1_555
H7D C9D 1_555 1_555
H7L C9L 1_555 1_555
H7F C9F 1_555 1_555
H7M C9M 1_555 1_555
C10P C11 1_555 1_555
C10EA C9EA 1_555 1_555
C10MA C9MA 1_555 1_555
C10UA C9UA 1_555 1_555
C10IA C9IA 1_555 1_555
C10H C9H 1_555 1_555
C10T C9T 1_555 1_555
C10AA C9AA 1_555 1_555
C10QA C9QA 1_555 1_555
C10V C9V 1_555 1_555
C10I C9I 1_555 1_555
C10JA C9JA 1_555 1_555
C10BA C9BA 1_555 1_555
C10Y C9Y 1_555 1_555
C10PA C9PA 1_555 1_555
C10B C9B 1_555 1_555
C10Q C9Q 1_555 1_555
C10SA C9SA 1_555 1_555
C10HA C9HA 1_555 1_555
C10D C9D 1_555 1_555
C10L C9L 1_555 1_555
C10F C9F 1_555 1_555
C10M C9M 1_555 1_555
H8P C10P 1_555 1_555
H8EA C10EA 1_555 1_555
H8MA C10MA 1_555 1_555
H8UA C10UA 1_555 1_555
H8IA C10IA 1_555 1_555
H8H C10H 1_555 1_555
H8T C10T 1_555 1_555
H8AA C10AA 1_555 1_555
H8QA C10QA 1_555 1_555
H8V C10V 1_555 1_555
H8I C10I 1_555 1_555
H8JA C10JA 1_555 1_555
H8BA C10BA 1_555 1_555
H8Y C10Y 1_555 1_555
H8PA C10PA 1_555 1_555
H8B C10B 1_555 1_555
H8Q C10Q 1_555 1_555
H8SA C10SA 1_555 1_555
H8HA C10HA 1_555 1_555
H8D C10D 1_555 1_555
H8L C10L 1_555 1_555
H8F C10F 1_555 1_555
H8M C10M 1_555 1_555
C11EA C10EA 1_555 1_555
C11IA C10UA 1_555 1_555
C11H C10H 1_555 1_555
C11AA C10AA 1_555 1_555
C11I C10V 1_555 1_555
C11BA C10JA 1_555 1_555
C11Y C10Y 1_555 1_555
C11B C10B 1_555 1_555
C11HA C10SA 1_555 1_555
C11D C10D 1_555 1_555
C11F C10F 1_555 1_555
C12EA C11EA 1_555 1_555
C12IA C11IA 1_555 1_555
C12H C11H 1_555 1_555
C12AA C11AA 1_555 1_555
C12I C11I 1_555 1_555
C12BA C11BA 1_555 1_555
C12Y C11Y 1_555 1_555
C12B C11B 1_555 1_555
C12HA C11HA 1_555 1_555
C12D C11D 1_555 1_555
C12F C11F 1_555 1_555
C13B O2V 1_555 1_555
C13D O2P 1_555 1_555
C13F O2F 1_555 1_555
C13H O2H 1_555 1_555
C13J C14N 1_555 1_555
C13I O2I 1_555 1_555
C13K O2M 1_555 1_555
C13G O2Q 1_555 1_555
C13E O2E 1_555 1_555
C13A O2A 1_555 1_555
C13C O2U 1_555 1_555
C14V C13B 1_555 1_555
C14B C13B 1_555 1_555
C14T C13 1_555 1_555
C14P C13D 1_555 1_555
C14F C13F 1_555 1_555
C14R C13F 1_555 1_555
C14D C13D 1_555 1_555
C14H C13H 1_555 1_555
C14N C14J 1_555 1_555
C14J C13J 1_555 1_555
C14L C13H 1_555 1_555
C14I C13I 1_555 1_555
C14M C13K 1_555 1_555
C14K C13K 1_555 1_555
C14O C13I 1_555 1_555
C14Q C13G 1_555 1_555
C14E C13E 1_555 1_555
C14S C13E 1_555 1_555
C14G C13G 1_555 1_555
C14A C13A 1_555 1_555
C14U C13C 1_555 1_555
C14C C13C 1_555 1_555
C14W C13A 1_555 1_555
C15V C14V 1_555 1_555
C15B C14B 1_555 1_555
C15T C14T 1_555 1_555
C15P C14P 1_555 1_555
C15F C14F 1_555 1_555
C15R C14R 1_555 1_555
C15D C14D 1_555 1_555
C15H C14H 1_555 1_555
C15N C14N 1_555 1_555
C15J C14J 1_555 1_555
C15L C14L 1_555 1_555
C15I C14I 1_555 1_555
C15M C14M 1_555 1_555
C15K C14K 1_555 1_555
C15O C14O 1_555 1_555
C15Q C14Q 1_555 1_555
C15E C14E 1_555 1_555
C15S C14S 1_555 1_555
C15G C14G 1_555 1_555
C15A C14A 1_555 1_555
C15U C14U 1_555 1_555
C15C C14C 1_555 1_555
C15W C14W 1_555 1_555
H9B C15B 1_555 1_555
H9T C15T 1_555 1_555
H9V C15V 1_555 1_555
H9P C15P 1_555 1_555
H9R C15R 1_555 1_555
H9D C15D 1_555 1_555
H9F C15F 1_555 1_555
H9H C15H 1_555 1_555
H9J C15J 1_555 1_555
H9L C15L 1_555 1_555
H9N C15N 1_555 1_555
H9I C15I 1_555 1_555
H9K C15K 1_555 1_555
H9O C15O 1_555 1_555
H9M C15M 1_555 1_555
H9Q C15Q 1_555 1_555
H9S C15S 1_555 1_555
H9G C15G 1_555 1_555
H9E C15E 1_555 1_555
H9A C15A 1_555 1_555
H9C C15C 1_555 1_555
H9W C15W 1_555 1_555
H9U C15U 1_555 1_555
C16V C16 1_555 1_555
C16B C15B 1_555 1_555
C16T C15T 1_555 1_555
C16P C15P 1_555 1_555
C16F C15F 1_555 1_555
C16R C15R 1_555 1_555
C16D C15D 1_555 1_555
C16H C15H 1_555 1_555
C16N C15N 1_555 1_555
C16J C15J 1_555 1_555
C16L C15L 1_555 1_555
C16I C15I 1_555 1_555
C16M C15M 1_555 1_555
C16K C15K 1_555 1_555
C16O C15O 1_555 1_555
C16Q C15Q 1_555 1_555
C16E C15E 1_555 1_555
C16S C15S 1_555 1_555
C16G C15G 1_555 1_555
C16A C15A 1_555 1_555
C16U C15U 1_555 1_555
C16C C15C 1_555 1_555
C16W C15W 1_555 1_555
H10B C16B 1_555 1_555
H10T C16B 1_555 1_555
H10V C16 1_555 1_555
H10P C16P 1_555 1_555
H10R C16R 1_555 1_555
H10D C16R 1_555 1_555
H10F C16P 1_555 1_555
H10H C16H 1_555 1_555
H10J C16J 1_555 1_555
H10L C16J 1_555 1_555
H10N C16H 1_555 1_555
H10I C16I 1_555 1_555
H10K C16K 1_555 1_555
H10O C16K 1_555 1_555
H10M C16I 1_555 1_555
H10Q C16Q 1_555 1_555
H10S C16S 1_555 1_555
H10G C16S 1_555 1_555
H10E C16Q 1_555 1_555
H10A C16A 1_555 1_555
H10C C16C 1_555 1_555
H10W C16C 1_555 1_555
H10U C16A 1_555 1_555
O3P C12 1_555 1_555
O3EA Ni1 1_555 1_555
O3MA Ni1H 1_555 1_555
O3UA Ni1 1_555 1_555
O3IA Ni1D 1_555 1_555
O3H C12H 1_555 1_555
O3T C12H 1_555 1_555
O3AA Ni1H 1_555 1_555
O3QA Ni1D 1_555 1_555
O3V Ni1AA_2 1_555 1_555
O3I Ni1CA 1_555 1_555
O3JA Ni1I 1_555 1_555
O3BA Ni1B 1_555 1_555
O3Y Ni1I 1_555 1_555
O3PA Ni1G 1_555 1_555
O3B C12B 1_555 1_555
O3Q Ni1DA 1_555 1_555
O3SA Ni1B 1_555 1_555
O3HA Ni1G 1_555 1_555
O3D C12D 1_555 1_555
O3L C12D 1_555 1_555
O3F Ni1AA_2 1_555 1_555
O3M Ni1HA 1_555 1_555
O3FA Ni1F 1_555 1_555
O3OA Ni1F 1_555 1_555
O3RA Ni1A 1_555 1_555
O3CA Ni1A 1_555 1_555
O3J Ni1EA 1_555 1_555
O3R Ni1EA 1_555 1_555
O3N Ni1IA 1_555 1_555
O3B_2 Ni1IA 1_555 1_555
O3D_2 Ni1Z 1_555 1_555
O3U Ni1Z 1_555 1_555
N1 N1P 1_555 1_555
C1 N1P 1_555 1_555
C1 C1P 1_555 1_555
H1 C5P 1_555 1_555
C2 C4 1_555 1_555
H2 C4 1_555 1_555
H2 C3P 1_555 1_555
C3 C2P 1_555 1_555
C3 C3P 1_555 1_555
C4 C3P 1_555 1_555
C4 C5P 1_555 1_555
C5 C1P 1_555 1_555
C5 C4P 1_555 1_555
C7 C6P 1_555 1_555
C14 C14T 1_555 1_555
H10 C16V 1_555 1_555
H10 H10V 1_555 1_555
Ni1CA O3P 1_555 1_555
O2B C13B 1_555 1_555
O2D C13D 1_555 1_555
O2R C13F 1_555 1_555
O2L C13H 1_555 1_555
O2O C13I 1_555 1_555
O2K C13K 1_555 1_555
O2G C13G 1_555 1_555
O2W C13A 1_555 1_555
O2C C13C 1_555 1_555
N1P C1P 1_555 1_555
N1P C5P 1_555 1_555
N1EA N1MA 1_555 1_555
N1MA C1EA 1_555 1_555
N1MA C1MA 1_555 1_555
N1UA N1IA 1_555 1_555
N1IA C1UA 1_555 1_555
N1IA C1IA 1_555 1_555
N1H N1T 1_555 1_555
N1T C1H 1_555 1_555
N1T C1T 1_555 1_555
N1QA C1AA 1_555 1_555
N1QA C1QA 1_555 1_555
N1V N1I 1_555 1_555
N1I C1V 1_555 1_555
N1I C1I 1_555 1_555
N1BA C1JA 1_555 1_555
N1BA C1BA 1_555 1_555
N1PA C1Y 1_555 1_555
N1PA C1PA 1_555 1_555
N1B N1Q 1_555 1_555
N1Q C1B 1_555 1_555
N1Q C1Q 1_555 1_555
N1HA C1SA 1_555 1_555
N1HA C1HA 1_555 1_555
N1D N1L 1_555 1_555
N1L C1D 1_555 1_555
N1L C1L 1_555 1_555
N1F N1M 1_555 1_555
N1M C1F 1_555 1_555
N1M C1M 1_555 1_555
N1R N1A 1_555 1_555
N1HA_2 N1SA_2 1_555 1_555
N1LA N1CA 1_555 1_555
N1Z N1OA 1_555 1_555
C1P H1P 1_555 1_555
C1P C2P 1_555 1_555
C1P C4P 1_555 1_555
C1EA C1MA 1_555 1_555
C1EA C5MA 1_555 1_555
C1MA C5EA 1_555 1_555
C1UA C1IA 1_555 1_555
C1UA C5IA 1_555 1_555
C1IA C5UA 1_555 1_555
C1H C1T 1_555 1_555
C1H C5T 1_555 1_555
C1T C5H 1_555 1_555
C1AA C1QA 1_555 1_555
C1AA C5QA 1_555 1_555
C1QA C5AA 1_555 1_555
C1V C1I 1_555 1_555
C1V C5I 1_555 1_555
C1I C5V 1_555 1_555
C1JA C1BA 1_555 1_555
C1JA C5BA 1_555 1_555
C1BA C5JA 1_555 1_555
C1Y C1PA 1_555 1_555
C1Y C5PA 1_555 1_555
C1PA C5Y 1_555 1_555
C1B C1Q 1_555 1_555
C1B C5Q 1_555 1_555
C1Q C5B 1_555 1_555
C1SA C1HA 1_555 1_555
C1SA C5HA 1_555 1_555
C1HA C5SA 1_555 1_555
C1D C1L 1_555 1_555
C1D C5L 1_555 1_555
C1L C5D 1_555 1_555
C1F C1M 1_555 1_555
C1F C5M 1_555 1_555
C1M C5F 1_555 1_555
H1EA C5MA 1_555 1_555
H1MA C5EA 1_555 1_555
H1UA C5IA 1_555 1_555
H1IA C5UA 1_555 1_555
H1H C5T 1_555 1_555
H1T C5H 1_555 1_555
H1AA C5QA 1_555 1_555
H1QA C5AA 1_555 1_555
H1V C5I 1_555 1_555
H1I C5V 1_555 1_555
H1JA C5BA 1_555 1_555
H1BA C5JA 1_555 1_555
H1Y C5PA 1_555 1_555
H1PA C5Y 1_555 1_555
H1B C5Q 1_555 1_555
H1Q C5B 1_555 1_555
H1SA C5HA 1_555 1_555
H1HA C5SA 1_555 1_555
H1D C5L 1_555 1_555
H1L C5D 1_555 1_555
H1F C5M 1_555 1_555
H1M C5F 1_555 1_555
C2P H2P 1_555 1_555
C2P C3P 1_555 1_555
C2P C4P 1_555 1_555
C2EA C2MA 1_555 1_555
C2EA C4EA 1_555 1_555
C2MA C3EA 1_555 1_555
C2MA C3MA 1_555 1_555
C2MA C4MA 1_555 1_555
C2UA C2IA 1_555 1_555
C2UA C4UA 1_555 1_555
C2IA C3UA 1_555 1_555
C2IA C3IA 1_555 1_555
C2IA C4IA 1_555 1_555
C2H C2T 1_555 1_555
C2H C4H 1_555 1_555
C2T C3H 1_555 1_555
C2T C3T 1_555 1_555
C2T C4T 1_555 1_555
C2AA C2QA 1_555 1_555
C2AA C4AA 1_555 1_555
C2QA C3AA 1_555 1_555
C2QA C3QA 1_555 1_555
C2QA C4QA 1_555 1_555
C2V C2I 1_555 1_555
C2V C4V 1_555 1_555
C2I C3V 1_555 1_555
C2I C3I 1_555 1_555
C2I C4I 1_555 1_555
C2JA C2BA 1_555 1_555
C2JA C4JA 1_555 1_555
C2BA C3JA 1_555 1_555
C2BA C3BA 1_555 1_555
C2BA C4BA 1_555 1_555
C2Y C2PA 1_555 1_555
C2Y C4Y 1_555 1_555
C2PA C3Y 1_555 1_555
C2PA C3PA 1_555 1_555
C2PA C4PA 1_555 1_555
C2B C2Q 1_555 1_555
C2B C4B 1_555 1_555
C2Q C3B 1_555 1_555
C2Q C3Q 1_555 1_555
C2Q C4Q 1_555 1_555
C2SA C2HA 1_555 1_555
C2SA C4SA 1_555 1_555
C2HA C3SA 1_555 1_555
C2HA C3HA 1_555 1_555
C2HA C4HA 1_555 1_555
C2D C2L 1_555 1_555
C2D C4D 1_555 1_555
C2L C3D 1_555 1_555
C2L C3L 1_555 1_555
C2L C4L 1_555 1_555
C2F C2M 1_555 1_555
C2F C4F 1_555 1_555
C2M C3F 1_555 1_555
C2M C3M 1_555 1_555
C2M C4M 1_555 1_555
H2P C4P 1_555 1_555
H2EA C3MA 1_555 1_555
H2EA C4EA 1_555 1_555
H2MA C3EA 1_555 1_555
H2MA C4MA 1_555 1_555
H2UA C3IA 1_555 1_555
H2UA C4UA 1_555 1_555
H2IA C3UA 1_555 1_555
H2IA C4IA 1_555 1_555
H2H C3T 1_555 1_555
H2H C4H 1_555 1_555
H2T C3H 1_555 1_555
H2T C4T 1_555 1_555
H2AA C3QA 1_555 1_555
H2AA C4AA 1_555 1_555
H2QA C3AA 1_555 1_555
H2QA C4QA 1_555 1_555
H2V C3I 1_555 1_555
H2V C4V 1_555 1_555
H2I C3V 1_555 1_555
H2I C4I 1_555 1_555
H2JA C3BA 1_555 1_555
H2JA C4JA 1_555 1_555
H2BA C3JA 1_555 1_555
H2BA C4BA 1_555 1_555
H2Y C3PA 1_555 1_555
H2Y C4Y 1_555 1_555
H2PA C3Y 1_555 1_555
H2PA C4PA 1_555 1_555
H2B C3Q 1_555 1_555
H2B C4B 1_555 1_555
H2Q C3B 1_555 1_555
H2Q C4Q 1_555 1_555
H2SA C3HA 1_555 1_555
H2SA C4SA 1_555 1_555
H2HA C3SA 1_555 1_555
H2HA C4HA 1_555 1_555
H2D C3L 1_555 1_555
H2D C4D 1_555 1_555
H2L C3D 1_555 1_555
H2L C4L 1_555 1_555
H2F C3M 1_555 1_555
H2F C4F 1_555 1_555
H2M C3F 1_555 1_555
H2M C4M 1_555 1_555
C3P C6P 1_555 1_555
C3EA C3MA 1_555 1_555
C3EA C4MA 1_555 1_555
C3MA C4EA 1_555 1_555
C3UA C3IA 1_555 1_555
C3UA C4IA 1_555 1_555
C3IA C4UA 1_555 1_555
C3H C3T 1_555 1_555
C3H C4T 1_555 1_555
C3T C4H 1_555 1_555
C3AA C3QA 1_555 1_555
C3AA C4QA 1_555 1_555
C3QA C4AA 1_555 1_555
C3V C3I 1_555 1_555
C3V C4I 1_555 1_555
C3I C4V 1_555 1_555
C3JA C3BA 1_555 1_555
C3JA C4BA 1_555 1_555
C3BA C4JA 1_555 1_555
C3Y C3PA 1_555 1_555
C3Y C4PA 1_555 1_555
C3PA C4Y 1_555 1_555
C3B C3Q 1_555 1_555
C3B C4Q 1_555 1_555
C3Q C4B 1_555 1_555
C3SA C3HA 1_555 1_555
C3SA C4HA 1_555 1_555
C3HA C4SA 1_555 1_555
C3D C3L 1_555 1_555
C3D C4L 1_555 1_555
C3L C4D 1_555 1_555
C3F C3M 1_555 1_555
C3F C4M 1_555 1_555
C3M C4F 1_555 1_555
C4EA C5MA 1_555 1_555
C4MA C5EA 1_555 1_555
C4UA C5IA 1_555 1_555
C4IA C5UA 1_555 1_555
C4H C5T 1_555 1_555
C4T C5H 1_555 1_555
C4AA C5QA 1_555 1_555
C4QA C5AA 1_555 1_555
C4V C5I 1_555 1_555
C4I C5V 1_555 1_555
C4JA C5BA 1_555 1_555
C4BA C5JA 1_555 1_555
C4Y C5PA 1_555 1_555
C4PA C5Y 1_555 1_555
C4B C5Q 1_555 1_555
C4Q C5B 1_555 1_555
C4SA C5HA 1_555 1_555
C4HA C5SA 1_555 1_555
C4D C5L 1_555 1_555
C4L C5D 1_555 1_555
C4F C5M 1_555 1_555
C4M C5F 1_555 1_555
C6EA C6MA 1_555 1_555
C6MA C7EA 1_555 1_555
C6UA C6IA 1_555 1_555
C6IA C7IA 1_555 1_555
C6H C6T 1_555 1_555
C6T C7H 1_555 1_555
C6AA C6QA 1_555 1_555
C6QA C7AA 1_555 1_555
C6V C6I 1_555 1_555
C6I C7I 1_555 1_555
C6JA C6BA 1_555 1_555
C6BA C7BA 1_555 1_555
C6Y C6PA 1_555 1_555
C6PA C7Y 1_555 1_555
C6B C6Q 1_555 1_555
C6Q C7B 1_555 1_555
C6SA C6HA 1_555 1_555
C6HA C7HA 1_555 1_555
C6D C6L 1_555 1_555
C6L C7D 1_555 1_555
C6F C6M 1_555 1_555
C6M C7F 1_555 1_555
C9P C10P 1_555 1_555
C10MA C11EA 1_555 1_555
C10IA C11IA 1_555 1_555
C10T C11H 1_555 1_555
C10QA C11AA 1_555 1_555
C10I C11I 1_555 1_555
C10BA C11BA 1_555 1_555
C10PA C11Y 1_555 1_555
C10Q C11B 1_555 1_555
C10HA C11HA 1_555 1_555
C10L C11D 1_555 1_555
C10M C11F 1_555 1_555
C12EA O3EA 1_555 1_555
C12EA O3MA 1_555 1_555
C12IA O3UA 1_555 1_555
C12IA O3IA 1_555 1_555
C12AA O3AA 1_555 1_555
C12AA O3QA 1_555 1_555
C12I O3V 1_555 1_555
C12I O3I 1_555 1_555
C12BA O3JA 1_555 1_555
C12BA O3BA 1_555 1_555
C12Y O3Y 1_555 1_555
C12Y O3PA 1_555 1_555
C12B O3Q 1_555 1_555
C12HA O3SA 1_555 1_555
C12HA O3HA 1_555 1_555
C12F O3F 1_555 1_555
C12F O3M 1_555 1_555
C14V C14B 1_555 1_555
C14P C14D 1_555 1_555
C14F C14R 1_555 1_555
C14H C14L 1_555 1_555
C14I C14O 1_555 1_555
C14M C14K 1_555 1_555
C14Q C14G 1_555 1_555
C14E C14S 1_555 1_555
C14A C14W 1_555 1_555
C14U C14C 1_555 1_555
C15V C16V 1_555 1_555
C16V H10V 1_555 1_555
C16B C16T 1_555 1_555
C16T H10B 1_555 1_555
C16T H10T 1_555 1_555
C16P C16F 1_555 1_555
C16F H10P 1_555 1_555
C16F H10F 1_555 1_555
C16R C16D 1_555 1_555
C16D H10R 1_555 1_555
C16D H10D 1_555 1_555
C16H C16N 1_555 1_555
C16N H10H 1_555 1_555
C16N H10N 1_555 1_555
C16J C16L 1_555 1_555
C16L H10J 1_555 1_555
C16L H10L 1_555 1_555
C16I C16M 1_555 1_555
C16M H10I 1_555 1_555
C16M H10M 1_555 1_555
C16K C16O 1_555 1_555
C16O H10K 1_555 1_555
C16O H10O 1_555 1_555
C16Q C16E 1_555 1_555
C16E H10Q 1_555 1_555
C16E H10E 1_555 1_555
C16S C16G 1_555 1_555
C16G H10S 1_555 1_555
C16G H10G 1_555 1_555
C16A C16U 1_555 1_555
C16U H10A 1_555 1_555
C16U H10U 1_555 1_555
C16C C16W 1_555 1_555
C16W H10C 1_555 1_555
C16W H10W 1_555 1_555
H10B H10T 1_555 1_555
H10P H10F 1_555 1_555
H10R H10D 1_555 1_555
H10H H10N 1_555 1_555
H10J H10L 1_555 1_555
H10I H10M 1_555 1_555
H10K H10O 1_555 1_555
H10Q H10E 1_555 1_555
H10S H10G 1_555 1_555
H10A H10U 1_555 1_555
H10C H10W 1_555 1_555

#END
