
#######################################################################
#
#                 Cambridge Crystallographic Data Centre
#                                CCDC 
#
#######################################################################
#
# If this CIF has been generated from an entry in the Cambridge 
# Structural Database, then it will include bibliographic, chemical, 
# crystal, experimental, refinement or atomic coordinate data resulting 
# from the CCDC's data processing and validation procedures.
#
#######################################################################

data_KARMEX
_chemical_formula_moiety         '(C216 H148 N12 Ni12 O52)n'
_symmetry_cell_setting           cubic
_symmetry_space_group_name_H-M   'I -4 3 m'
_symmetry_Int_Tables_number      217
_space_group_name_Hall           'I -4 2 3'
loop_
_symmetry_equiv_pos_site_id
_symmetry_equiv_pos_as_xyz
1 x,y,z
2 -x,-y,z
3 -x,y,-z
4 x,-y,-z
5 z,x,y
6 z,-x,-y
7 -z,-x,y
8 -z,x,-y
9 y,z,x
10 -y,z,-x
11 y,-z,-x
12 -y,-z,x
13 y,x,z
14 -y,-x,z
15 y,-x,-z
16 -y,x,-z
17 x,z,y
18 -x,z,-y
19 -x,-z,y
20 x,-z,-y
21 z,y,x
22 z,-y,-x
23 -z,y,-x
24 -z,-y,x
25 1/2+x,1/2+y,1/2+z
26 1/2-x,1/2-y,1/2+z
27 1/2-x,1/2+y,1/2-z
28 1/2+x,1/2-y,1/2-z
29 1/2+z,1/2+x,1/2+y
30 1/2+z,1/2-x,1/2-y
31 1/2-z,1/2-x,1/2+y
32 1/2-z,1/2+x,1/2-y
33 1/2+y,1/2+z,1/2+x
34 1/2-y,1/2+z,1/2-x
35 1/2+y,1/2-z,1/2-x
36 1/2-y,1/2-z,1/2+x
37 1/2+y,1/2+x,1/2+z
38 1/2-y,1/2-x,1/2+z
39 1/2+y,1/2-x,1/2-z
40 1/2-y,1/2+x,1/2-z
41 1/2+x,1/2+z,1/2+y
42 1/2-x,1/2+z,1/2-y
43 1/2-x,1/2-z,1/2+y
44 1/2+x,1/2-z,1/2-y
45 1/2+z,1/2+y,1/2+x
46 1/2+z,1/2-y,1/2-x
47 1/2-z,1/2+y,1/2-x
48 1/2-z,1/2-y,1/2+x
_cell_length_a                   29.8085(3)
_cell_length_b                   29.8085(3)
_cell_length_c                   29.8085(3)
_cell_angle_alpha                90
_cell_angle_beta                 90
_cell_angle_gamma                90
_cell_volume                     26486.2
loop_
_atom_site_label
_atom_site_type_symbol
_atom_site_fract_x
_atom_site_fract_y
_atom_site_fract_z
Ni1 Ni -0.912217(17) -0.831714(13) -0.831714(13)
N1 N -0.96723(9) -0.80095(12) -0.80095(9)
O1 O -0.86472(8) -0.86472(8) -0.86472(8)
O2 O -0.94525(6) -0.82364(9) -0.89213(6)
O3 O -1.26885(9) -0.66789(8) -0.61582(10)
C1 C -0.96699(8) -0.81628(14) -0.96699(8)
C2 C -0.93059(9) -0.82071(14) -0.93059(9)
C3 C -1.01106(11) -0.81522(13) -0.95616(10)
H1 H -1.0196 -0.8145 -0.9255
C4 C -1.0181(2) -0.79800(19) -0.7430(3)
H2 H -1.0292 -0.8094 -0.7154
C5 C -1.1519(2) -0.7184(2) -0.6636(2)
H3 H -1.1381 -0.7434 -0.6495
C6 C -1.0357(2) -0.7604(2) -0.7604(2)
C7 C -1.0719(3) -0.7375(4) -0.7375(3)
H4 H -1.0975 -0.7509 -0.7509
C8 C -0.98451(16) -0.81970(18) -0.7647(2)
H5 H -0.9737 -0.8477 -0.7541
C9 C -1.1322(3) -0.6995(3) -0.6995(3)
C10 C -1.1916(2) -0.70230(18) -0.6473(2)
H6 H -1.2054 -0.7164 -0.6223
C11 C -1.25352(12) -0.64709(15) -0.64709(12)
C12 C -1.21102(17) -0.66654(17) -0.66654(17)
C16 C -1.0872(3) -0.7139(4) -0.7139(3)
H10 H -1.0647 -0.6979 -0.6979
Ni1EA Ni -0.668286(13) -0.412217(17) -0.668286(13)
Ni1IA Ni -0.668286(13) -0.668286(13) -0.412217(17)
Ni1H Ni -0.831714(13) -0.831714(13) -0.912217(17)
Ni1I Ni -1.168286(13) -0.831714(13) -1.087783(17)
Ni1B Ni -1.087783(17) -0.831714(13) -1.168286(13)
Ni1D Ni -0.831714(13) -0.912217(17) -0.831714(13)
Ni1F Ni -1.168286(13) -1.087783(17) -0.831714(13)
Ni1A Ni -1.087783(17) -1.168286(13) -0.831714(13)
Ni1HA Ni -1.331714(13) -0.668286(13) -0.587783(17)
Ni1CA Ni -1.331714(13) -0.587783(17) -0.668286(13)
Ni1J Ni -0.831714(13) -0.168286(13) -1.087783(17)
Ni1Z Ni -0.587783(17) -0.331714(13) -0.668286(13)
Ni1GA Ni -0.668286(13) -0.331714(13) -0.587783(17)
Ni1AA Ni -0.412217(17) -0.668286(13) -0.668286(13)
Ni1CA_2 Ni -0.331714(13) -0.587783(17) -0.668286(13)
Ni1DA Ni -0.668286(13) -0.587783(17) -0.331714(13)
Ni1A_2 Ni -1.087783(17) -0.168286(13) -0.831714(13)
Ni1Y Ni -0.587783(17) -0.668286(13) -0.331714(13)
Ni1HA_2 Ni -0.331714(13) -0.668286(13) -0.587783(17)
Ni1E Ni -0.831714(13) -1.087783(17) -0.168286(13)
Ni1B_2 Ni -1.087783(17) -0.831714(13) -0.168286(13)
Ni1Y_2 Ni -0.587783(17) -0.668286(13) -1.331714(13)
Ni1DA_2 Ni -0.668286(13) -0.587783(17) -1.331714(13)
Ni1E_2 Ni -0.831714(13) -1.087783(17) -1.168286(13)
Ni1J_2 Ni -0.831714(13) -1.168286(13) -1.087783(17)
Ni1AA_2 Ni -1.412217(17) -0.668286(13) -0.668286(13)
Ni1G Ni -1.168286(13) -0.912217(17) -1.168286(13)
Ni1BA Ni -1.331714(13) -0.412217(17) -1.331714(13)
Ni1Y_3 Ni -1.587783(17) -0.668286(13) -1.331714(13)
N1EA N -0.69905(9) -0.46723(9) -0.69905(12)
N1IA N -0.69905(12) -0.69905(9) -0.46723(9)
N1J N -0.80095(12) -0.19905(9) -1.03277(9)
N1A N -1.03277(9) -0.19905(12) -0.80095(9)
N1E N -0.80095(9) -1.03277(9) -0.19905(12)
N1B N -1.03277(9) -0.80095(12) -0.19905(9)
N1H N -0.80095(12) -0.80095(9) -0.96723(9)
N1AA N -0.46723(9) -0.69905(12) -0.69905(9)
N1I N -1.19905(12) -0.80095(9) -1.03277(9)
N1BA N -1.30095(9) -0.46723(9) -1.30095(12)
N1Y N -1.53277(9) -0.69905(12) -1.30095(9)
N1B_2 N -1.03277(9) -0.80095(12) -1.19905(9)
N1D N -0.80095(9) -0.96723(9) -0.80095(12)
N1F N -1.19905(9) -1.03277(9) -0.80095(12)
N1A_2 N -1.03277(9) -1.19905(12) -0.80095(9)
N1HA N -1.30095(12) -0.69905(9) -0.53277(9)
N1CA N -1.30095(9) -0.53277(9) -0.69905(12)
O1Z O -0.63528(8) -0.36472(8) -0.63528(8)
O1Y O -0.63528(8) -0.63528(8) -0.36472(8)
O1B O -1.13528(8) -0.86472(8) -1.13528(8)
O1A O -1.13528(8) -1.13528(8) -0.86472(8)
O1AA O -1.36472(8) -0.63528(8) -0.63528(8)
O1C O -0.86472(8) -0.13528(8) -1.13528(8)
O2T O -0.89213(6) -0.82364(9) -0.94525(6)
O2V O -1.10787(6) -0.82364(9) -1.05475(6)
O2B O -1.05475(6) -0.82364(9) -1.10787(6)
O2P O -0.94525(6) -0.89213(6) -0.82364(9)
O2D O -0.89213(6) -0.94525(6) -0.82364(9)
O2F O -1.10787(6) -1.05475(6) -0.82364(9)
O2R O -1.05475(6) -1.10787(6) -0.82364(9)
O2EA O -0.60787(6) -0.44525(6) -0.67636(9)
O2OA O -0.55475(6) -0.39213(6) -0.67636(9)
O2QA O -0.44525(6) -0.60787(6) -0.67636(9)
O2CA O -0.39213(6) -0.55475(6) -0.67636(9)
O2MA O -0.67636(9) -0.44525(6) -0.60787(6)
O2GA O -0.67636(9) -0.39213(6) -0.55475(6)
O2IA O -0.67636(9) -0.60787(6) -0.44525(6)
O2KA O -0.67636(9) -0.55475(6) -0.39213(6)
O2UA O -0.60787(6) -0.67636(9) -0.44525(6)
O2Y O -0.55475(6) -0.67636(9) -0.39213(6)
O2AA O -0.44525(6) -0.67636(9) -0.60787(6)
O2SA O -0.39213(6) -0.67636(9) -0.55475(6)
O2H O -0.82364(9) -0.89213(6) -0.94525(6)
O2L O -0.82364(9) -0.94525(6) -0.89213(6)
O2N O -0.82364(9) -1.05475(6) -1.10787(6)
O2J O -0.82364(9) -1.10787(6) -1.05475(6)
O2I O -1.17636(9) -0.89213(6) -1.05475(6)
O2Q O -1.05475(6) -0.89213(6) -1.17636(9)
O2M O -1.17636(9) -1.05475(6) -0.89213(6)
O2A O -1.05475(6) -1.17636(9) -0.89213(6)
O2HA O -1.32364(9) -0.60787(6) -0.55475(6)
O2SA_2 O -1.39213(6) -0.67636(9) -0.55475(6)
O2LA O -1.32364(9) -0.55475(6) -0.60787(6)
O2CA_2 O -1.39213(6) -0.55475(6) -0.67636(9)
O2J_2 O -0.82364(9) -0.10787(6) -1.05475(6)
O2U O -0.89213(6) -0.17636(9) -1.05475(6)
O3P O -1.26885(9) -0.61582(10) -0.66789(8)
O3EA O -0.88418(10) -0.76885(9) -0.83211(8)
O3MA O -0.83211(8) -0.76885(9) -0.88418(10)
O3UA O -0.88418(10) -0.83211(8) -0.76885(9)
O3IA O -0.83211(8) -0.88418(10) -0.76885(9)
O3J O -0.66789(8) -0.38418(10) -0.73115(9)
O3U O -0.61582(10) -0.33211(8) -0.73115(9)
O3R O -0.73115(9) -0.38418(10) -0.66789(8)
O3A O -0.73115(9) -0.33211(8) -0.61582(10)
O3N O -0.66789(8) -0.73115(9) -0.38418(10)
O3E O -0.61582(10) -0.73115(9) -0.33211(8)
O3B O -0.73115(9) -0.66789(8) -0.38418(10)
O3Q O -0.73115(9) -0.61582(10) -0.33211(8)
O3T O -0.61582(10) -0.66789(8) -1.26885(9)
O3H O -0.66789(8) -0.61582(10) -1.26885(9)
O3AA O -0.76885(9) -0.83211(8) -0.88418(10)
O3QA O -0.76885(9) -0.88418(10) -0.83211(8)
O3V O -1.38418(10) -0.66789(8) -0.73115(9)
O3I O -1.33211(8) -0.61582(10) -0.73115(9)
O3JA O -1.16789(8) -0.76885(9) -1.11582(10)
O3BA O -1.11582(10) -0.76885(9) -1.16789(8)
O3Y O -1.23115(9) -0.83211(8) -1.11582(10)
O3PA O -1.23115(9) -0.88418(10) -1.16789(8)
O3SA O -1.11582(10) -0.83211(8) -1.23115(9)
O3FA O -1.16789(8) -1.11582(10) -0.76885(9)
O3OA O -1.23115(9) -1.11582(10) -0.83211(8)
O3RA O -1.11582(10) -1.16789(8) -0.76885(9)
O3CA O -1.11582(10) -1.23115(9) -0.83211(8)
O3M O -1.33211(8) -0.73115(9) -0.61582(10)
O3X O -0.76885(9) -0.16789(8) -1.11582(10)
O3KA O -0.83211(8) -0.23115(9) -1.11582(10)
C1B C -1.03301(8) -0.81628(14) -1.03301(8)
C1D C -0.96699(8) -0.96699(8) -0.81628(14)
C1F C -1.03301(8) -1.03301(8) -0.81628(14)
C1EA C -0.53301(8) -0.46699(8) -0.68372(14)
C1CA C -0.46699(8) -0.53301(8) -0.68372(14)
C1GA C -0.68372(14) -0.46699(8) -0.53301(8)
C1IA C -0.68372(14) -0.53301(8) -0.46699(8)
C1Y C -0.53301(8) -0.68372(14) -0.46699(8)
C1AA C -0.46699(8) -0.68372(14) -0.53301(8)
C1H C -0.81628(14) -0.96699(8) -0.96699(8)
C1J C -0.81628(14) -1.03301(8) -1.03301(8)
C2B C -1.06941(9) -0.82071(14) -1.06941(9)
C2D C -0.93059(9) -0.93059(9) -0.82071(14)
C2F C -1.06941(9) -1.06941(9) -0.82071(14)
C2EA C -0.56941(9) -0.43059(9) -0.67929(14)
C2CA C -0.43059(9) -0.56941(9) -0.67929(14)
C2GA C -0.67929(14) -0.43059(9) -0.56941(9)
C2IA C -0.67929(14) -0.56941(9) -0.43059(9)
C2Y C -0.56941(9) -0.67929(14) -0.43059(9)
C2AA C -0.43059(9) -0.67929(14) -0.56941(9)
C2H C -0.82071(14) -0.93059(9) -0.93059(9)
C2J C -0.82071(14) -1.06941(9) -1.06941(9)
C3V C -1.04384(10) -0.81522(13) -0.98894(11)
C3B C -0.98894(11) -0.81522(13) -1.04384(10)
C3T C -0.95616(10) -0.81522(13) -1.01106(11)
C3P C -1.01106(11) -0.95616(10) -0.81522(13)
C3F C -1.04384(10) -0.98894(11) -0.81522(13)
C3R C -0.98894(11) -1.04384(10) -0.81522(13)
C3D C -0.95616(10) -1.01106(11) -0.81522(13)
C3EA C -0.54384(10) -0.51106(11) -0.68478(13)
C3QA C -0.51106(11) -0.54384(10) -0.68478(13)
C3CA C -0.45616(10) -0.48894(11) -0.68478(13)
C3OA C -0.48894(11) -0.45616(10) -0.68478(13)
C3MA C -0.68478(13) -0.51106(11) -0.54384(10)
C3IA C -0.68478(13) -0.54384(10) -0.51106(11)
C3KA C -0.68478(13) -0.48894(11) -0.45616(10)
C3GA C -0.68478(13) -0.45616(10) -0.48894(11)
C3UA C -0.54384(10) -0.68478(13) -0.51106(11)
C3AA C -0.51106(11) -0.68478(13) -0.54384(10)
C3SA C -0.45616(10) -0.68478(13) -0.48894(11)
C3Y C -0.48894(11) -0.68478(13) -0.45616(10)
C3H C -0.81522(13) -0.95616(10) -1.01106(11)
C3N C -0.81522(13) -0.98894(11) -1.04384(10)
C3J C -0.81522(13) -1.04384(10) -0.98894(11)
C3L C -0.81522(13) -1.01106(11) -0.95616(10)
H1T H -0.9255 -0.8145 -1.0196
H1B H -0.9804 -0.8145 -1.0745
H1V H -1.0745 -0.8145 -0.9804
H1P H -1.0196 -0.9255 -0.8145
H1D H -0.9255 -1.0196 -0.8145
H1R H -0.9804 -1.0745 -0.8145
H1F H -1.0745 -0.9804 -0.8145
H1EA H -0.5745 -0.5196 -0.6855
H1OA H -0.4804 -0.4255 -0.6855
H1CA H -0.4255 -0.4804 -0.6855
H1QA H -0.5196 -0.5745 -0.6855
H1MA H -0.6855 -0.5196 -0.5745
H1GA H -0.6855 -0.4255 -0.4804
H1KA H -0.6855 -0.4804 -0.4255
H1IA H -0.6855 -0.5745 -0.5196
H1UA H -0.5745 -0.6855 -0.5196
H1Y H -0.4804 -0.6855 -0.4255
H1SA H -0.4255 -0.6855 -0.4804
H1AA H -0.5196 -0.6855 -0.5745
H1H H -0.8145 -0.9255 -1.0196
H1L H -0.8145 -1.0196 -0.9255
H1J H -0.8145 -1.0745 -0.9804
H1N H -0.8145 -0.9804 -1.0745
C4P C -1.0181(2) -0.7430(3) -0.79800(19)
C4EA C -0.7570(3) -0.5181(2) -0.70200(19)
C4MA C -0.70200(19) -0.5181(2) -0.7570(3)
C4UA C -0.7570(3) -0.70200(19) -0.5181(2)
C4IA C -0.70200(19) -0.7570(3) -0.5181(2)
C4J C -0.79800(19) -0.2570(3) -0.9819(2)
C4U C -0.7430(3) -0.20200(19) -0.9819(2)
C4R C -0.9819(2) -0.2570(3) -0.79800(19)
C4A C -0.9819(2) -0.20200(19) -0.7430(3)
C4N C -0.79800(19) -0.9819(2) -0.2570(3)
C4E C -0.7430(3) -0.9819(2) -0.20200(19)
C4B C -0.9819(2) -0.79800(19) -0.2570(3)
C4Q C -0.9819(2) -0.7430(3) -0.20200(19)
C4T C -0.7430(3) -0.79800(19) -1.0181(2)
C4H C -0.79800(19) -0.7430(3) -1.0181(2)
C4AA C -0.5181(2) -0.70200(19) -0.7570(3)
C4QA C -0.5181(2) -0.7570(3) -0.70200(19)
C4V C -1.2570(3) -0.79800(19) -0.9819(2)
C4I C -1.20200(19) -0.7430(3) -0.9819(2)
C4JA C -1.29800(19) -0.5181(2) -1.2430(3)
C4BA C -1.2430(3) -0.5181(2) -1.29800(19)
C4Y C -1.4819(2) -0.70200(19) -1.2430(3)
C4PA C -1.4819(2) -0.7570(3) -1.29800(19)
H2P H -1.0292 -0.7154 -0.8094
H2EA H -0.7846 -0.5292 -0.6906
H2MA H -0.6906 -0.5292 -0.7846
H2UA H -0.7846 -0.6906 -0.5292
H2IA H -0.6906 -0.7846 -0.5292
H2J H -0.8094 -0.2846 -0.9708
H2U H -0.7154 -0.1906 -0.9708
H2R H -0.9708 -0.2846 -0.8094
H2A H -0.9708 -0.1906 -0.7154
H2N H -0.8094 -0.9708 -0.2846
H2E H -0.7154 -0.9708 -0.1906
H2B H -0.9708 -0.8094 -0.2846
H2Q H -0.9708 -0.7154 -0.1906
H2T H -0.7154 -0.8094 -1.0292
H2H H -0.8094 -0.7154 -1.0292
H2AA H -0.5292 -0.6906 -0.7846
H2QA H -0.5292 -0.7846 -0.6906
H2V H -1.2846 -0.8094 -0.9708
H2I H -1.1906 -0.7154 -0.9708
H2JA H -1.3094 -0.5292 -1.2154
H2BA H -1.2154 -0.5292 -1.3094
H2Y H -1.4708 -0.6906 -1.2154
H2PA H -1.4708 -0.7846 -1.3094
C5P C -1.1519(2) -0.6636(2) -0.7184(2)
C5EA C -0.8364(2) -0.6519(2) -0.7816(2)
C5MA C -0.7816(2) -0.6519(2) -0.8364(2)
C5UA C -0.8364(2) -0.7816(2) -0.6519(2)
C5IA C -0.7816(2) -0.8364(2) -0.6519(2)
C5J C -0.7184(2) -0.3364(2) -0.8481(2)
C5U C -0.6636(2) -0.2816(2) -0.8481(2)
C5R C -0.8481(2) -0.3364(2) -0.7184(2)
C5A C -0.8481(2) -0.2816(2) -0.6636(2)
C5N C -0.7184(2) -0.8481(2) -0.3364(2)
C5E C -0.6636(2) -0.8481(2) -0.2816(2)
C5B C -0.8481(2) -0.7184(2) -0.3364(2)
C5Q C -0.8481(2) -0.6636(2) -0.2816(2)
C5T C -0.6636(2) -0.7184(2) -1.1519(2)
C5H C -0.7184(2) -0.6636(2) -1.1519(2)
C5AA C -0.6519(2) -0.7816(2) -0.8364(2)
C5QA C -0.6519(2) -0.8364(2) -0.7816(2)
C5V C -1.3364(2) -0.7184(2) -0.8481(2)
C5I C -1.2816(2) -0.6636(2) -0.8481(2)
C5JA C -1.2184(2) -0.6519(2) -1.1636(2)
C5BA C -1.1636(2) -0.6519(2) -1.2184(2)
C5Y C -1.3481(2) -0.7816(2) -1.1636(2)
C5PA C -1.3481(2) -0.8364(2) -1.2184(2)
H3P H -1.1381 -0.6495 -0.7434
H3EA H -0.8505 -0.6381 -0.7566
H3MA H -0.7566 -0.6381 -0.8505
H3UA H -0.8505 -0.7566 -0.6381
H3IA H -0.7566 -0.8505 -0.6381
H3J H -0.7434 -0.3505 -0.8619
H3U H -0.6495 -0.2566 -0.8619
H3R H -0.8619 -0.3505 -0.7434
H3A H -0.8619 -0.2566 -0.6495
H3N H -0.7434 -0.8619 -0.3505
H3E H -0.6495 -0.8619 -0.2566
H3B H -0.8619 -0.7434 -0.3505
H3Q H -0.8619 -0.6495 -0.2566
H3T H -0.6495 -0.7434 -1.1381
H3H H -0.7434 -0.6495 -1.1381
H3AA H -0.6381 -0.7566 -0.8505
H3QA H -0.6381 -0.8505 -0.7566
H3V H -1.3505 -0.7434 -0.8619
H3I H -1.2566 -0.6495 -0.8619
H3JA H -1.2434 -0.6381 -1.1495
H3BA H -1.1495 -0.6381 -1.2434
H3Y H -1.3619 -0.7566 -1.1495
H3PA H -1.3619 -0.8505 -1.2434
C6EA C -0.7396(2) -0.5357(2) -0.7396(2)
C6IA C -0.7396(2) -0.7396(2) -0.5357(2)
C6J C -0.7604(2) -0.2396(2) -0.9643(2)
C6A C -0.9643(2) -0.2396(2) -0.7604(2)
C6E C -0.7604(2) -0.9643(2) -0.2396(2)
C6B C -0.9643(2) -0.7604(2) -0.2396(2)
C6H C -0.7604(2) -0.7604(2) -1.0357(2)
C6AA C -0.5357(2) -0.7396(2) -0.7396(2)
C6I C -1.2396(2) -0.7604(2) -0.9643(2)
C6BA C -1.2604(2) -0.5357(2) -1.2604(2)
C6Y C -1.4643(2) -0.7396(2) -1.2604(2)
C7EA C -0.7625(3) -0.5719(3) -0.7625(4)
C7IA C -0.7625(4) -0.7625(3) -0.5719(3)
C7J C -0.7375(4) -0.2625(3) -0.9281(3)
C7A C -0.9281(3) -0.2625(4) -0.7375(3)
C7E C -0.7375(3) -0.9281(3) -0.2625(4)
C7B C -0.9281(3) -0.7375(4) -0.2625(3)
C7H C -0.7375(4) -0.7375(3) -1.0719(3)
C7AA C -0.5719(3) -0.7625(4) -0.7625(3)
C7I C -1.2625(4) -0.7375(3) -0.9281(3)
C7BA C -1.2375(3) -0.5719(3) -1.2375(4)
C7Y C -1.4281(3) -0.7625(4) -1.2375(3)
H4EA H -0.7491 -0.5975 -0.7491
H4IA H -0.7491 -0.7491 -0.5975
H4J H -0.7509 -0.2491 -0.9025
H4A H -0.9025 -0.2491 -0.7509
H4E H -0.7509 -0.9025 -0.2491
H4B H -0.9025 -0.7509 -0.2491
H4H H -0.7509 -0.7509 -1.0975
H4AA H -0.5975 -0.7491 -0.7491
H4I H -1.2491 -0.7509 -0.9025
H4BA H -1.2509 -0.5975 -1.2509
H4Y H -1.4025 -0.7491 -1.2509
C8P C -0.98451(16) -0.7647(2) -0.81970(18)
C8EA C -0.7353(2) -0.48451(16) -0.68030(18)
C8MA C -0.68030(18) -0.48451(16) -0.7353(2)
C8UA C -0.7353(2) -0.68030(18) -0.48451(16)
C8IA C -0.68030(18) -0.7353(2) -0.48451(16)
C8J C -0.81970(18) -0.2353(2) -1.01549(16)
C8U C -0.7647(2) -0.18030(18) -1.01549(16)
C8R C -1.01549(16) -0.2353(2) -0.81970(18)
C8A C -1.01549(16) -0.18030(18) -0.7647(2)
C8N C -0.81970(18) -1.01549(16) -0.2353(2)
C8E C -0.7647(2) -1.01549(16) -0.18030(18)
C8B C -1.01549(16) -0.81970(18) -0.2353(2)
C8Q C -1.01549(16) -0.7647(2) -0.18030(18)
C8T C -0.7647(2) -0.81970(18) -0.98451(16)
C8H C -0.81970(18) -0.7647(2) -0.98451(16)
C8AA C -0.48451(16) -0.68030(18) -0.7353(2)
C8QA C -0.48451(16) -0.7353(2) -0.68030(18)
C8V C -1.2353(2) -0.81970(18) -1.01549(16)
C8I C -1.18030(18) -0.7647(2) -1.01549(16)
C8JA C -1.31970(18) -0.48451(16) -1.2647(2)
C8BA C -1.2647(2) -0.48451(16) -1.31970(18)
C8Y C -1.51549(16) -0.68030(18) -1.2647(2)
C8PA C -1.51549(16) -0.7353(2) -1.31970(18)
H5P H -0.9737 -0.7541 -0.8477
H5EA H -0.7459 -0.4737 -0.6523
H5MA H -0.6523 -0.4737 -0.7459
H5UA H -0.7459 -0.6523 -0.4737
H5IA H -0.6523 -0.7459 -0.4737
H5J H -0.8477 -0.2459 -1.0263
H5U H -0.7541 -0.1523 -1.0263
H5R H -1.0263 -0.2459 -0.8477
H5A H -1.0263 -0.1523 -0.7541
H5N H -0.8477 -1.0263 -0.2459
H5E H -0.7541 -1.0263 -0.1523
H5B H -1.0263 -0.8477 -0.2459
H5Q H -1.0263 -0.7541 -0.1523
H5T H -0.7541 -0.8477 -0.9737
H5H H -0.8477 -0.7541 -0.9737
H5AA H -0.4737 -0.6523 -0.7459
H5QA H -0.4737 -0.7459 -0.6523
H5V H -1.2459 -0.8477 -1.0263
H5I H -1.1523 -0.7541 -1.0263
H5JA H -1.3477 -0.4737 -1.2541
H5BA H -1.2541 -0.4737 -1.3477
H5Y H -1.5263 -0.6523 -1.2541
H5PA H -1.5263 -0.7459 -1.3477
C9EA C -0.8005(3) -0.6322(3) -0.8005(3)
C9IA C -0.8005(3) -0.8005(3) -0.6322(3)
C9J C -0.6995(3) -0.3005(3) -0.8678(3)
C9A C -0.8678(3) -0.3005(3) -0.6995(3)
C9E C -0.6995(3) -0.8678(3) -0.3005(3)
C9B C -0.8678(3) -0.6995(3) -0.3005(3)
C9H C -0.6995(3) -0.6995(3) -1.1322(3)
C9AA C -0.6322(3) -0.8005(3) -0.8005(3)
C9I C -1.3005(3) -0.6995(3) -0.8678(3)
C9BA C -1.1995(3) -0.6322(3) -1.1995(3)
C9Y C -1.3678(3) -0.8005(3) -1.1995(3)
C10P C -1.1916(2) -0.6473(2) -0.70230(18)
C10EA C -0.8527(2) -0.6916(2) -0.79770(18)
C10MA C -0.79770(18) -0.6916(2) -0.8527(2)
C10UA C -0.8527(2) -0.79770(18) -0.6916(2)
C10IA C -0.79770(18) -0.8527(2) -0.6916(2)
C10J C -0.70230(18) -0.3527(2) -0.8084(2)
C10U C -0.6473(2) -0.29770(18) -0.8084(2)
C10R C -0.8084(2) -0.3527(2) -0.70230(18)
C10A C -0.8084(2) -0.29770(18) -0.6473(2)
C10N C -0.70230(18) -0.8084(2) -0.3527(2)
C10E C -0.6473(2) -0.8084(2) -0.29770(18)
C10B C -0.8084(2) -0.70230(18) -0.3527(2)
C10Q C -0.8084(2) -0.6473(2) -0.29770(18)
C10T C -0.6473(2) -0.70230(18) -1.1916(2)
C10H C -0.70230(18) -0.6473(2) -1.1916(2)
C10AA C -0.6916(2) -0.79770(18) -0.8527(2)
C10QA C -0.6916(2) -0.8527(2) -0.79770(18)
C10V C -1.3527(2) -0.70230(18) -0.8084(2)
C10I C -1.29770(18) -0.6473(2) -0.8084(2)
C10JA C -1.20230(18) -0.6916(2) -1.1473(2)
C10BA C -1.1473(2) -0.6916(2) -1.20230(18)
C10Y C -1.3084(2) -0.79770(18) -1.1473(2)
C10PA C -1.3084(2) -0.8527(2) -1.20230(18)
H6P H -1.2054 -0.6223 -0.7164
H6EA H -0.8777 -0.7054 -0.7836
H6MA H -0.7836 -0.7054 -0.8777
H6UA H -0.8777 -0.7836 -0.7054
H6IA H -0.7836 -0.8777 -0.7054
H6J H -0.7164 -0.3777 -0.7946
H6U H -0.6223 -0.2836 -0.7946
H6R H -0.7946 -0.3777 -0.7164
H6A H -0.7946 -0.2836 -0.6223
H6N H -0.7164 -0.7946 -0.3777
H6E H -0.6223 -0.7946 -0.2836
H6B H -0.7946 -0.7164 -0.3777
H6Q H -0.7946 -0.6223 -0.2836
H6T H -0.6223 -0.7164 -1.2054
H6H H -0.7164 -0.6223 -1.2054
H6AA H -0.7054 -0.7836 -0.8777
H6QA H -0.7054 -0.8777 -0.7836
H6V H -1.3777 -0.7164 -0.7946
H6I H -1.2836 -0.6223 -0.7946
H6JA H -1.2164 -0.7054 -1.1223
H6BA H -1.1223 -0.7054 -1.2164
H6Y H -1.2946 -0.7836 -1.1223
H6PA H -1.2946 -0.8777 -1.2164
C11EA C -0.85291(12) -0.75352(12) -0.85291(15)
C11IA C -0.85291(15) -0.85291(12) -0.75352(12)
C11J C -0.64709(15) -0.35291(12) -0.74648(12)
C11A C -0.74648(12) -0.35291(15) -0.64709(12)
C11E C -0.64709(12) -0.74648(12) -0.35291(15)
C11B C -0.74648(12) -0.64709(15) -0.35291(12)
C11H C -0.64709(15) -0.64709(12) -1.25352(12)
C11AA C -0.75352(12) -0.85291(15) -0.85291(12)
C11I C -1.35291(15) -0.64709(12) -0.74648(12)
C11BA C -1.14709(12) -0.75352(12) -1.14709(15)
C11Y C -1.24648(12) -0.85291(15) -1.14709(12)
C12EA C -0.83346(17) -0.71102(17) -0.83346(17)
C12IA C -0.83346(17) -0.83346(17) -0.71102(17)
C12J C -0.66654(17) -0.33346(17) -0.78898(17)
C12A C -0.78898(17) -0.33346(17) -0.66654(17)
C12E C -0.66654(17) -0.78898(17) -0.33346(17)
C12B C -0.78898(17) -0.66654(17) -0.33346(17)
C12H C -0.66654(17) -0.66654(17) -1.21102(17)
C12AA C -0.71102(17) -0.83346(17) -0.83346(17)
C12I C -1.33346(17) -0.66654(17) -0.78898(17)
C12BA C -1.16654(17) -0.71102(17) -1.16654(17)
C12Y C -1.28898(17) -0.83346(17) -1.16654(17)
C16EA C -0.7861(3) -0.5872(3) -0.7861(4)
C16IA C -0.7861(4) -0.7861(3) -0.5872(3)
C16J C -0.7139(4) -0.2861(3) -0.9128(3)
C16A C -0.9128(3) -0.2861(4) -0.7139(3)
C16E C -0.7139(3) -0.9128(3) -0.2861(4)
C16B C -0.9128(3) -0.7139(4) -0.2861(3)
C16H C -0.7139(4) -0.7139(3) -1.0872(3)
C16AA C -0.5872(3) -0.7861(4) -0.7861(3)
C16I C -1.2861(4) -0.7139(3) -0.9128(3)
C16BA C -1.2139(3) -0.5872(3) -1.2139(4)
C16Y C -1.4128(3) -0.7861(4) -1.2139(3)
H10EA H -0.8021 -0.5647 -0.8021
H10IA H -0.8021 -0.8021 -0.5647
H10J H -0.6979 -0.3021 -0.9353
H10A H -0.9353 -0.3021 -0.6979
H10E H -0.6979 -0.9353 -0.3021
H10B H -0.9353 -0.6979 -0.3021
H10H H -0.6979 -0.6979 -1.0647
H10AA H -0.5647 -0.8021 -0.8021
H10I H -1.3021 -0.6979 -0.9353
H10BA H -1.1979 -0.5647 -1.1979
H10Y H -1.4353 -0.8021 -1.1979
loop_
_geom_bond_atom_site_label_1
_geom_bond_atom_site_label_2
_geom_bond_site_symmetry_1
_geom_bond_site_symmetry_2
Ni1 N1 1_555 1_555
N1 C8 1_555 1_555
O1 Ni1 1_555 1_555
O2 Ni1 1_555 1_555
O3 C11 1_555 1_555
C1 C2 1_555 1_555
C2 O2 1_555 1_555
C3 C1 1_555 1_555
H1 C3 1_555 1_555
C4 H2 1_555 1_555
C5 H3 1_555 1_555
C6 C4 1_555 1_555
C7 C6 1_555 1_555
H4 C7 1_555 1_555
C8 C4 1_555 1_555
H5 C8 1_555 1_555
C9 C5 1_555 1_555
C10 C5 1_555 1_555
H6 C10 1_555 1_555
C11 C12 1_555 1_555
C12 C10 1_555 1_555
C16 C7 1_555 1_555
H10 C16 1_555 1_555
Ni1EA N1EA 1_555 1_555
Ni1IA N1IA 1_555 1_555
Ni1H O1 1_555 1_555
Ni1I N1I 1_555 1_555
Ni1B N1B_2 1_555 1_555
Ni1D O1 1_555 1_555
Ni1F N1F 1_555 1_555
Ni1A N1A_2 1_555 1_555
Ni1HA O3 1_555 1_555
Ni1CA N1CA 1_555 1_555
Ni1J N1J 1_555 1_555
Ni1Z O1Z 1_555 1_555
Ni1GA O1Z 1_555 1_555
Ni1AA N1AA 1_555 1_555
Ni1CA_2 O2CA 1_555 1_555
Ni1DA O1Y 1_555 1_555
Ni1A_2 N1A 1_555 1_555
Ni1Y O1Y 1_555 1_555
Ni1HA_2 O2SA 1_555 1_555
Ni1E N1E 1_555 1_555
Ni1B_2 N1B 1_555 1_555
Ni1Y_2 O3T 1_555 1_555
Ni1DA_2 O3H 1_555 1_555
Ni1E_2 O2N 1_555 1_555
Ni1J_2 O2J 1_555 1_555
Ni1AA_2 O1AA 1_555 1_555
Ni1G O1B 1_555 1_555
Ni1BA N1BA 1_555 1_555
Ni1Y_3 N1Y 1_555 1_555
N1EA C8EA 1_555 1_555
N1IA C8UA 1_555 1_555
N1J C8J 1_555 1_555
N1A C8R 1_555 1_555
N1E C8N 1_555 1_555
N1B C8B 1_555 1_555
N1H Ni1H 1_555 1_555
N1AA C8AA 1_555 1_555
N1I C8V 1_555 1_555
N1BA C8JA 1_555 1_555
N1Y C8Y 1_555 1_555
N1D Ni1D 1_555 1_555
N1HA Ni1HA 1_555 1_555
O1Z Ni1EA 1_555 1_555
O1Y Ni1IA 1_555 1_555
O1B Ni1I 1_555 1_555
O1A Ni1F 1_555 1_555
O1AA Ni1HA 1_555 1_555
O1C Ni1J 1_555 1_555
O2T C2 1_555 1_555
O2V Ni1I 1_555 1_555
O2B Ni1B 1_555 1_555
O2P Ni1 1_555 1_555
O2D Ni1D 1_555 1_555
O2F Ni1F 1_555 1_555
O2R Ni1A 1_555 1_555
O2EA Ni1EA 1_555 1_555
O2OA Ni1Z 1_555 1_555
O2QA Ni1AA 1_555 1_555
O2CA C2CA 1_555 1_555
O2MA Ni1EA 1_555 1_555
O2GA Ni1GA 1_555 1_555
O2IA Ni1IA 1_555 1_555
O2KA Ni1DA 1_555 1_555
O2UA Ni1IA 1_555 1_555
O2Y Ni1Y 1_555 1_555
O2AA Ni1AA 1_555 1_555
O2SA C2AA 1_555 1_555
O2H Ni1H 1_555 1_555
O2L Ni1D 1_555 1_555
O2N C2J 1_555 1_555
O2J C2J 1_555 1_555
O2I Ni1I 1_555 1_555
O2Q Ni1B 1_555 1_555
O2M Ni1F 1_555 1_555
O2A Ni1A 1_555 1_555
O2HA Ni1HA 1_555 1_555
O2SA_2 Ni1HA 1_555 1_555
O2LA Ni1CA 1_555 1_555
O2CA_2 Ni1CA 1_555 1_555
O2J_2 Ni1J 1_555 1_555
O2U Ni1J 1_555 1_555
O3P C11 1_555 1_555
O3EA Ni1 1_555 1_555
O3MA Ni1H 1_555 1_555
O3UA Ni1 1_555 1_555
O3IA Ni1D 1_555 1_555
O3J Ni1EA 1_555 1_555
O3U Ni1Z 1_555 1_555
O3R Ni1EA 1_555 1_555
O3A Ni1GA 1_555 1_555
O3N Ni1IA 1_555 1_555
O3E Ni1Y 1_555 1_555
O3B Ni1IA 1_555 1_555
O3Q Ni1DA 1_555 1_555
O3T C11H 1_555 1_555
O3H C11H 1_555 1_555
O3AA Ni1H 1_555 1_555
O3QA Ni1D 1_555 1_555
O3V Ni1AA_2 1_555 1_555
O3I Ni1CA 1_555 1_555
O3JA Ni1I 1_555 1_555
O3BA Ni1B 1_555 1_555
O3Y Ni1I 1_555 1_555
O3PA Ni1G 1_555 1_555
O3SA Ni1B 1_555 1_555
O3FA Ni1F 1_555 1_555
O3OA Ni1F 1_555 1_555
O3RA Ni1A 1_555 1_555
O3CA Ni1A 1_555 1_555
O3M Ni1HA 1_555 1_555
O3X Ni1J 1_555 1_555
O3KA Ni1J 1_555 1_555
C1B C2B 1_555 1_555
C1D C2D 1_555 1_555
C1F C2F 1_555 1_555
C1EA C2EA 1_555 1_555
C1CA C2CA 1_555 1_555
C1GA C2GA 1_555 1_555
C1IA C2IA 1_555 1_555
C1Y C2Y 1_555 1_555
C1AA C2AA 1_555 1_555
C1H C2H 1_555 1_555
C1J C2J 1_555 1_555
C2B O2V 1_555 1_555
C2D O2P 1_555 1_555
C2F O2F 1_555 1_555
C2EA O2EA 1_555 1_555
C2CA O2QA 1_555 1_555
C2GA O2MA 1_555 1_555
C2IA O2IA 1_555 1_555
C2Y O2UA 1_555 1_555
C2AA O2AA 1_555 1_555
C2H O2H 1_555 1_555
C3V C3 1_555 1_555
C3B C1B 1_555 1_555
C3T C1 1_555 1_555
C3P C1D 1_555 1_555
C3F C1F 1_555 1_555
C3R C1F 1_555 1_555
C3D C1D 1_555 1_555
C3EA C1EA 1_555 1_555
C3QA C1CA 1_555 1_555
C3CA C1CA 1_555 1_555
C3OA C1EA 1_555 1_555
C3MA C1GA 1_555 1_555
C3IA C1IA 1_555 1_555
C3KA C1IA 1_555 1_555
C3GA C1GA 1_555 1_555
C3UA C1Y 1_555 1_555
C3AA C1AA 1_555 1_555
C3SA C1AA 1_555 1_555
C3Y C1Y 1_555 1_555
C3H C1H 1_555 1_555
C3N C1J 1_555 1_555
C3J C1J 1_555 1_555
C3L C1H 1_555 1_555
H1T C3T 1_555 1_555
H1B C3B 1_555 1_555
H1V C3V 1_555 1_555
H1P C3P 1_555 1_555
H1D C3D 1_555 1_555
H1R C3R 1_555 1_555
H1F C3F 1_555 1_555
H1EA C3EA 1_555 1_555
H1OA C3OA 1_555 1_555
H1CA C3CA 1_555 1_555
H1QA C3QA 1_555 1_555
H1MA C3MA 1_555 1_555
H1GA C3GA 1_555 1_555
H1KA C3KA 1_555 1_555
H1IA C3IA 1_555 1_555
H1UA C3UA 1_555 1_555
H1Y C3Y 1_555 1_555
H1SA C3SA 1_555 1_555
H1AA C3AA 1_555 1_555
H1H C3H 1_555 1_555
H1L C3L 1_555 1_555
H1J C3J 1_555 1_555
H1N C3N 1_555 1_555
C4P C6 1_555 1_555
C4EA H2EA 1_555 1_555
C4MA H2MA 1_555 1_555
C4UA H2UA 1_555 1_555
C4IA H2IA 1_555 1_555
C4J H2J 1_555 1_555
C4U H2U 1_555 1_555
C4R H2R 1_555 1_555
C4A H2A 1_555 1_555
C4N H2N 1_555 1_555
C4E H2E 1_555 1_555
C4B H2B 1_555 1_555
C4Q H2Q 1_555 1_555
C4T H2T 1_555 1_555
C4H H2H 1_555 1_555
C4AA H2AA 1_555 1_555
C4QA H2QA 1_555 1_555
C4V H2V 1_555 1_555
C4I H2I 1_555 1_555
C4JA H2JA 1_555 1_555
C4BA H2BA 1_555 1_555
C4Y H2Y 1_555 1_555
C4PA H2PA 1_555 1_555
H2P C4P 1_555 1_555
C5P C9 1_555 1_555
C5EA H3EA 1_555 1_555
C5MA H3MA 1_555 1_555
C5UA H3UA 1_555 1_555
C5IA H3IA 1_555 1_555
C5J H3J 1_555 1_555
C5U H3U 1_555 1_555
C5R H3R 1_555 1_555
C5A H3A 1_555 1_555
C5N H3N 1_555 1_555
C5E H3E 1_555 1_555
C5B H3B 1_555 1_555
C5Q H3Q 1_555 1_555
C5T H3T 1_555 1_555
C5H H3H 1_555 1_555
C5AA H3AA 1_555 1_555
C5QA H3QA 1_555 1_555
C5V H3V 1_555 1_555
C5I H3I 1_555 1_555
C5JA H3JA 1_555 1_555
C5BA H3BA 1_555 1_555
C5Y H3Y 1_555 1_555
C5PA H3PA 1_555 1_555
H3P C5P 1_555 1_555
C6EA C4EA 1_555 1_555
C6IA C4UA 1_555 1_555
C6J C4J 1_555 1_555
C6A C4R 1_555 1_555
C6E C4N 1_555 1_555
C6B C4B 1_555 1_555
C6H C4T 1_555 1_555
C6AA C4AA 1_555 1_555
C6I C4V 1_555 1_555
C6BA C4JA 1_555 1_555
C6Y C4Y 1_555 1_555
C7EA C6EA 1_555 1_555
C7IA C6IA 1_555 1_555
C7J C6J 1_555 1_555
C7A C6A 1_555 1_555
C7E C6E 1_555 1_555
C7B C6B 1_555 1_555
C7H C6H 1_555 1_555
C7AA C6AA 1_555 1_555
C7I C6I 1_555 1_555
C7BA C6BA 1_555 1_555
C7Y C6Y 1_555 1_555
H4EA C7EA 1_555 1_555
H4IA C7IA 1_555 1_555
H4J C7J 1_555 1_555
H4A C7A 1_555 1_555
H4E C7E 1_555 1_555
H4B C7B 1_555 1_555
H4H C7H 1_555 1_555
H4AA C7AA 1_555 1_555
H4I C7I 1_555 1_555
H4BA C7BA 1_555 1_555
H4Y C7Y 1_555 1_555
C8P N1 1_555 1_555
C8EA C4EA 1_555 1_555
C8MA N1EA 1_555 1_555
C8UA C4UA 1_555 1_555
C8IA N1IA 1_555 1_555
C8J C4J 1_555 1_555
C8U N1J 1_555 1_555
C8R C4R 1_555 1_555
C8A N1A 1_555 1_555
C8N C4N 1_555 1_555
C8E N1E 1_555 1_555
C8B C4B 1_555 1_555
C8Q N1B 1_555 1_555
C8T N1H 1_555 1_555
C8H N1H 1_555 1_555
C8AA C4AA 1_555 1_555
C8QA N1AA 1_555 1_555
C8V C4V 1_555 1_555
C8I N1I 1_555 1_555
C8JA C4JA 1_555 1_555
C8BA N1BA 1_555 1_555
C8Y C4Y 1_555 1_555
C8PA N1Y 1_555 1_555
H5P C8P 1_555 1_555
H5EA C8EA 1_555 1_555
H5MA C8MA 1_555 1_555
H5UA C8UA 1_555 1_555
H5IA C8IA 1_555 1_555
H5J C8J 1_555 1_555
H5U C8U 1_555 1_555
H5R C8R 1_555 1_555
H5A C8A 1_555 1_555
H5N C8N 1_555 1_555
H5E C8E 1_555 1_555
H5B C8B 1_555 1_555
H5Q C8Q 1_555 1_555
H5T C8T 1_555 1_555
H5H C8H 1_555 1_555
H5AA C8AA 1_555 1_555
H5QA C8QA 1_555 1_555
H5V C8V 1_555 1_555
H5I C8I 1_555 1_555
H5JA C8JA 1_555 1_555
H5BA C8BA 1_555 1_555
H5Y C8Y 1_555 1_555
H5PA C8PA 1_555 1_555
C9EA C5EA 1_555 1_555
C9IA C5UA 1_555 1_555
C9J C5J 1_555 1_555
C9A C5R 1_555 1_555
C9E C5N 1_555 1_555
C9B C5B 1_555 1_555
C9H C5T 1_555 1_555
C9AA C5AA 1_555 1_555
C9I C5V 1_555 1_555
C9BA C5JA 1_555 1_555
C9Y C5Y 1_555 1_555
C10P C12 1_555 1_555
C10EA C5EA 1_555 1_555
C10MA C5MA 1_555 1_555
C10UA C5UA 1_555 1_555
C10IA C5IA 1_555 1_555
C10J C5J 1_555 1_555
C10U C5U 1_555 1_555
C10R C5R 1_555 1_555
C10A C5A 1_555 1_555
C10N C5N 1_555 1_555
C10E C5E 1_555 1_555
C10B C5B 1_555 1_555
C10Q C5Q 1_555 1_555
C10T C5T 1_555 1_555
C10H C5H 1_555 1_555
C10AA C5AA 1_555 1_555
C10QA C5QA 1_555 1_555
C10V C5V 1_555 1_555
C10I C5I 1_555 1_555
C10JA C5JA 1_555 1_555
C10BA C5BA 1_555 1_555
C10Y C5Y 1_555 1_555
C10PA C5PA 1_555 1_555
H6P C10P 1_555 1_555
H6EA C10EA 1_555 1_555
H6MA C10MA 1_555 1_555
H6UA C10UA 1_555 1_555
H6IA C10IA 1_555 1_555
H6J C10J 1_555 1_555
H6U C10U 1_555 1_555
H6R C10R 1_555 1_555
H6A C10A 1_555 1_555
H6N C10N 1_555 1_555
H6E C10E 1_555 1_555
H6B C10B 1_555 1_555
H6Q C10Q 1_555 1_555
H6T C10T 1_555 1_555
H6H C10H 1_555 1_555
H6AA C10AA 1_555 1_555
H6QA C10QA 1_555 1_555
H6V C10V 1_555 1_555
H6I C10I 1_555 1_555
H6JA C10JA 1_555 1_555
H6BA C10BA 1_555 1_555
H6Y C10Y 1_555 1_555
H6PA C10PA 1_555 1_555
C11EA O3EA 1_555 1_555
C11IA O3UA 1_555 1_555
C11J O3J 1_555 1_555
C11A O3R 1_555 1_555
C11E O3N 1_555 1_555
C11B O3B 1_555 1_555
C11H C12H 1_555 1_555
C11AA O3AA 1_555 1_555
C11I O3V 1_555 1_555
C11BA O3JA 1_555 1_555
C11Y O3Y 1_555 1_555
C12EA C10EA 1_555 1_555
C12IA C10UA 1_555 1_555
C12J C10J 1_555 1_555
C12A C10R 1_555 1_555
C12E C10N 1_555 1_555
C12B C10B 1_555 1_555
C12H C10T 1_555 1_555
C12AA C10AA 1_555 1_555
C12I C10V 1_555 1_555
C12BA C10JA 1_555 1_555
C12Y C10Y 1_555 1_555
C16EA C7EA 1_555 1_555
C16IA C7IA 1_555 1_555
C16J C7J 1_555 1_555
C16A C7A 1_555 1_555
C16E C7E 1_555 1_555
C16B C7B 1_555 1_555
C16H C7H 1_555 1_555
C16AA C7AA 1_555 1_555
C16I C7I 1_555 1_555
C16BA C7BA 1_555 1_555
C16Y C7Y 1_555 1_555
H10EA C16EA 1_555 1_555
H10IA C16IA 1_555 1_555
H10J C16J 1_555 1_555
H10A C16A 1_555 1_555
H10E C16E 1_555 1_555
H10B C16B 1_555 1_555
H10H C16H 1_555 1_555
H10AA C16AA 1_555 1_555
H10I C16I 1_555 1_555
H10BA C16BA 1_555 1_555
H10Y C16Y 1_555 1_555
C9 C16 1_555 1_555
Ni1H O2T 1_555 1_555
Ni1B O1B 1_555 1_555
Ni1A O1A 1_555 1_555
Ni1CA O1AA 1_555 1_555
Ni1CA O3P 1_555 1_555
O2B C2B 1_555 1_555
O2D C2D 1_555 1_555
O2R C2F 1_555 1_555
O2OA C2EA 1_555 1_555
O2GA C2GA 1_555 1_555
O2KA C2IA 1_555 1_555
O2Y C2Y 1_555 1_555
O2L C2H 1_555 1_555
O3MA C11EA 1_555 1_555
O3IA C11IA 1_555 1_555
O3U C11J 1_555 1_555
O3A C11A 1_555 1_555
O3E C11E 1_555 1_555
O3Q C11B 1_555 1_555
O3QA C11AA 1_555 1_555
O3I C11I 1_555 1_555
O3BA C11BA 1_555 1_555
O3PA C11Y 1_555 1_555
C1B C3V 1_555 1_555
C3B C3T 1_555 1_555
C3P C3F 1_555 1_555
C3R C3D 1_555 1_555
C3EA C3QA 1_555 1_555
C3CA C3OA 1_555 1_555
C3MA C3IA 1_555 1_555
C3KA C3GA 1_555 1_555
C3UA C3AA 1_555 1_555
C3SA C3Y 1_555 1_555
C3H C3N 1_555 1_555
C3J C3L 1_555 1_555
C4P C8P 1_555 1_555
C4MA C6EA 1_555 1_555
C4MA C8MA 1_555 1_555
C4IA C6IA 1_555 1_555
C4IA C8IA 1_555 1_555
C4U C6J 1_555 1_555
C4U C8U 1_555 1_555
C4A C6A 1_555 1_555
C4A C8A 1_555 1_555
C4E C6E 1_555 1_555
C4E C8E 1_555 1_555
C4Q C6B 1_555 1_555
C4Q C8Q 1_555 1_555
C4T C8T 1_555 1_555
C4H C6H 1_555 1_555
C4H C8H 1_555 1_555
C4QA C6AA 1_555 1_555
C4QA C8QA 1_555 1_555
C4I C6I 1_555 1_555
C4I C8I 1_555 1_555
C4BA C6BA 1_555 1_555
C4BA C8BA 1_555 1_555
C4PA C6Y 1_555 1_555
C4PA C8PA 1_555 1_555
C5P C10P 1_555 1_555
C5MA C9EA 1_555 1_555
C5IA C9IA 1_555 1_555
C5U C9J 1_555 1_555
C5A C9A 1_555 1_555
C5E C9E 1_555 1_555
C5Q C9B 1_555 1_555
C5H C9H 1_555 1_555
C5QA C9AA 1_555 1_555
C5I C9I 1_555 1_555
C5BA C9BA 1_555 1_555
C5PA C9Y 1_555 1_555
C9EA C16EA 1_555 1_555
C9IA C16IA 1_555 1_555
C9J C16J 1_555 1_555
C9A C16A 1_555 1_555
C9E C16E 1_555 1_555
C9B C16B 1_555 1_555
C9H C16H 1_555 1_555
C9AA C16AA 1_555 1_555
C9I C16I 1_555 1_555
C9BA C16BA 1_555 1_555
C9Y C16Y 1_555 1_555
C10MA C12EA 1_555 1_555
C10IA C12IA 1_555 1_555
C10U C12J 1_555 1_555
C10A C12A 1_555 1_555
C10E C12E 1_555 1_555
C10Q C12B 1_555 1_555
C10H C12H 1_555 1_555
C10QA C12AA 1_555 1_555
C10I C12I 1_555 1_555
C10BA C12BA 1_555 1_555
C10PA C12Y 1_555 1_555
C11EA C12EA 1_555 1_555
C11IA C12IA 1_555 1_555
C11J C12J 1_555 1_555
C11A C12A 1_555 1_555
C11E C12E 1_555 1_555
C11B C12B 1_555 1_555
C11AA C12AA 1_555 1_555
C11I C12I 1_555 1_555
C11BA C12BA 1_555 1_555
C11Y C12Y 1_555 1_555

#END
