
#######################################################################
#
#                 Cambridge Crystallographic Data Centre
#                                CCDC 
#
#######################################################################
#
# If this CIF has been generated from an entry in the Cambridge 
# Structural Database, then it will include bibliographic, chemical, 
# crystal, experimental, refinement or atomic coordinate data resulting 
# from the CCDC's data processing and validation procedures.
#
#######################################################################

data_LOTDIJ
_chemical_formula_moiety         '(C58 H60 Cl12 Co1 N8 O2 S2)n'
_symmetry_cell_setting           orthorhombic
_symmetry_space_group_name_H-M   'P n a 21'
_symmetry_Int_Tables_number      33
_space_group_name_Hall           'P 2c -2n'
loop_
_symmetry_equiv_pos_site_id
_symmetry_equiv_pos_as_xyz
1 x,y,z
2 1/2-x,1/2+y,1/2+z
3 1/2+x,1/2-y,z
4 -x,-y,1/2+z
_cell_length_a                   17.8916(15)
_cell_length_b                   19.6745(17)
_cell_length_c                   19.088(2)
_cell_angle_alpha                90
_cell_angle_beta                 90
_cell_angle_gamma                90
_cell_volume                     6719.13
loop_
_atom_site_label
_atom_site_type_symbol
_atom_site_fract_x
_atom_site_fract_y
_atom_site_fract_z
_atom_site_U_iso_or_equiv
_atom_site_thermal_displace_type
Co1 Co 0.18159(8) 0.50004(7) -0.76535(11) 0.0303 Uani
S1 S 0.14759(17) 0.61424(14) -0.98611(15) 0.0512 Uani
S2 S 0.27142(18) 0.40611(18) -0.55495(17) 0.0603 Uani
N1 N 0.1122(4) 0.4245(4) -0.8184(5) 0.0343 Uani
N2 N -0.0393(4) 0.2234(4) -0.7979(5) 0.0383 Uani
N3 N -0.2160(4) 0.0450(4) -0.8108(4) 0.0343 Uani
N4 N -0.0799(4) 0.4566(4) -0.2179(5) 0.0363 Uani
N5 N 0.2558(4) 0.0776(4) -0.2086(5) 0.0373 Uani
N6 N 0.0861(4) 0.2632(4) -0.2210(5) 0.0407 Uani
N7 N 0.1728(4) 0.5657(4) -0.8514(4) 0.0317 Uani
N8 N 0.1916(4) 0.4393(4) -0.6767(4) 0.0330 Uani
O1 O 0.1222(5) 0.2069(5) -0.6020(4) 0.0583 Uani
O2 O -0.1025(3) 0.2268(3) -0.4065(3) 0.0350 Uani
C1 C 0.0937(7) 0.4321(6) -0.8836(6) 0.0473 Uani
C2 C 0.0347(9) 0.3910(7) -0.9146(7) 0.0653 Uani
C3 C 0.0052(7) 0.3365(6) -0.8724(7) 0.0547 Uani
C4 C 0.0285(6) 0.3282(5) -0.8072(6) 0.0387 Uani
C5 C 0.0828(6) 0.3732(5) -0.7825(6) 0.0393 Uani
C6 C 0.0007(5) 0.2722(4) -0.7611(6) 0.0400 Uani
C7 C 0.0101(5) 0.2676(5) -0.6918(6) 0.0380 Uani
C8 C -0.0177(5) 0.2171(5) -0.6528(5) 0.0360 Uani
C9 C -0.0654(5) 0.1687(5) -0.6889(5) 0.0380 Uani
C10 C -0.0704(5) 0.1741(5) -0.7589(6) 0.0373 Uani
C11 C -0.1102(5) 0.1238(4) -0.8034(5) 0.0357 Uani
C12 C -0.0933(6) 0.1121(6) -0.8706(6) 0.0480 Uani
C13 C -0.1339(6) 0.0640(5) -0.9081(6) 0.0443 Uani
C14 C -0.1948(6) 0.0322(6) -0.8781(6) 0.0423 Uani
C15 C -0.1713(5) 0.0880(4) -0.7746(5) 0.0327 Uani
C16 C 0.0711(6) 0.2101(6) -0.5522(6) 0.0443 Uani
C17 C -0.0057(6) 0.2145(4) -0.5745(6) 0.0400 Uani
C18 C -0.0635(5) 0.2154(4) -0.5260(5) 0.0370 Uani
C19 C 0.1965(8) 0.2209(8) -0.5844(7) 0.0717 Uiso
C20 C 0.2404(9) 0.2392(8) -0.6488(7) 0.0749 Uiso
C21 C 0.2475(10) 0.1733(9) -0.6929(7) 0.0781 Uiso
C22 C 0.2832(10) 0.1823(9) -0.7637(7) 0.0811 Uiso
C23 C 0.2395(10) 0.2276(10) -0.8154(9) 0.0818 Uiso
C24 C 0.2718(11) 0.2278(10) -0.8887(10) 0.0840 Uiso
C25 C 0.2360(11) 0.2745(11) -0.9432(10) 0.0870 Uiso
C26 C 0.1606(11) 0.2449(11) -0.9545(10) 0.0890 Uiso
C27 C -0.0395(6) 0.4854(6) -0.1636(6) 0.0440 Uani
C28 C 0.0267(7) 0.4564(6) -0.1374(6) 0.0503 Uani
C29 C 0.0508(5) 0.3953(5) -0.1644(6) 0.0400 Uani
C30 C 0.0117(5) 0.3679(4) -0.2221(5) 0.0340 Uani
C31 C -0.0560(4) 0.4003(4) -0.2448(5) 0.0327 Uani
C32 C 0.0386(4) 0.3054(4) -0.2569(5) 0.0323 Uani
C33 C 0.0178(5) 0.2913(5) -0.3256(5) 0.0347 Uani
C34 C 0.0422(5) 0.2337(5) -0.3594(5) 0.0333 Uani
C35 C 0.0257(5) 0.2222(4) -0.4328(5) 0.0343 Uani
C36 C 0.0843(5) 0.2139(5) -0.4812(5) 0.0387 Uani
C37 C -0.0489(5) 0.2192(4) -0.4573(6) 0.0377 Uani
C38 C -0.1776(5) 0.2106(6) -0.4250(6) 0.0450 Uani
C39 C -0.2297(7) 0.2279(7) -0.3674(6) 0.0543 Uani
C40 C -0.2206(7) 0.1870(7) -0.2968(7) 0.0553 Uani
C41 C -0.1610(6) 0.2114(7) -0.2495(7) 0.0540 Uani
C42 C -0.1569(6) 0.1709(7) -0.1839(7) 0.0557 Uani
C43 C -0.0915(8) 0.1863(8) -0.1316(8) 0.0650 Uani
C44 C -0.0989(8) 0.2550(8) -0.1058(8) 0.0710 Uani
C45 C -0.0348(12) 0.2656(14) -0.0502(12) 0.1157 Uani
C46 C 0.2646(5) 0.0866(5) -0.1428(6) 0.0390 Uani
C47 C 0.2247(5) 0.1385(5) -0.1054(5) 0.0403 Uani
C48 C 0.1768(6) 0.1782(6) -0.1410(6) 0.0477 Uani
C49 C 0.1641(4) 0.1652(5) -0.2127(5) 0.0340 Uani
C50 C 0.2074(5) 0.1166(4) -0.2451(5) 0.0353 Uani
C51 C 0.1100(5) 0.2107(5) -0.2544(5) 0.0380 Uani
C52 C 0.0913(5) 0.1911(5) -0.3205(5) 0.0363 Uani
C53 C 0.1645(6) 0.5840(5) -0.9053(5) 0.0380 Uani
C54 C 0.2204(6) 0.4251(5) -0.6273(6) 0.0407 Uani
H1 H 0.1152 0.4679 -0.9103 0.0561 Uiso
H2 H 0.0195 0.3970 -0.9618 0.0710 Uiso
H3 H -0.0329 0.3078 -0.8905 0.0619 Uiso
H4 H 0.0991 0.3677 -0.7355 0.0438 Uiso
H5 H 0.0391 0.3014 -0.6688 0.0470 Uiso
H6 H -0.0906 0.1335 -0.6643 0.0415 Uiso
H7 H -0.0549 0.1379 -0.8923 0.0539 Uiso
H8 H -0.1185 0.0527 -0.9543 0.0597 Uiso
H9 H -0.2240 0.0017 -0.9054 0.0481 Uiso
H10 H -0.1825 0.0951 -0.7266 0.0384 Uiso
H11 H -0.1140 0.2133 -0.5412 0.0436 Uiso
H12 H 0.1997 0.2574 -0.5519 0.0803 Uiso
H13 H 0.2168 0.1810 -0.5640 0.0803 Uiso
H14 H 0.2144 0.2730 -0.6747 0.0863 Uiso
H15 H 0.2885 0.2558 -0.6364 0.0863 Uiso
H16 H 0.1989 0.1548 -0.6990 0.0921 Uiso
H17 H 0.2775 0.1422 -0.6671 0.0921 Uiso
H18 H 0.3313 0.2018 -0.7579 0.0967 Uiso
H19 H 0.2880 0.1380 -0.7830 0.0967 Uiso
H20 H 0.2375 0.2727 -0.7977 0.0986 Uiso
H21 H 0.1903 0.2099 -0.8190 0.0986 Uiso
H22 H 0.3229 0.2399 -0.8834 0.1012 Uiso
H23 H 0.2684 0.1831 -0.9073 0.1012 Uiso
H24 H 0.2641 0.2714 -0.9853 0.1043 Uiso
H25 H 0.2364 0.3202 -0.9270 0.1043 Uiso
H26 H 0.1373 0.2726 -0.9889 0.1069 Uiso
H27 H 0.1612 0.1990 -0.9702 0.1069 Uiso
H28 H 0.1334 0.2478 -0.9118 0.1069 Uiso
H29 H -0.0566 0.5271 -0.1444 0.0475 Uiso
H30 H 0.0533 0.4780 -0.1006 0.0579 Uiso
H31 H 0.0936 0.3732 -0.1458 0.0467 Uiso
H32 H -0.0835 0.3802 -0.2819 0.0374 Uiso
H33 H -0.0147 0.3215 -0.3499 0.0393 Uiso
H34 H 0.1343 0.2107 -0.4647 0.0414 Uiso
H35 H -0.1909 0.2353 -0.4659 0.0555 Uiso
H36 H -0.1811 0.1633 -0.4343 0.0555 Uiso
H37 H -0.2793 0.2206 -0.3832 0.0611 Uiso
H38 H -0.2229 0.2747 -0.3568 0.0611 Uiso
H39 H -0.2665 0.1882 -0.2717 0.0648 Uiso
H40 H -0.2096 0.1415 -0.3097 0.0648 Uiso
H41 H -0.1700 0.2576 -0.2376 0.0693 Uiso
H42 H -0.1143 0.2077 -0.2727 0.0693 Uiso
H43 H -0.2027 0.1777 -0.1598 0.0681 Uiso
H44 H -0.1525 0.1245 -0.1969 0.0681 Uiso
H45 H -0.0451 0.1815 -0.1553 0.0764 Uiso
H46 H -0.0937 0.1550 -0.0938 0.0764 Uiso
H47 H -0.0910 0.2864 -0.1429 0.0897 Uiso
H48 H -0.1474 0.2615 -0.0868 0.0897 Uiso
H49 H -0.0402 0.3108 -0.0336 0.1159 Uiso
H50 H 0.0141 0.2596 -0.0687 0.1159 Uiso
H51 H -0.0423 0.2347 -0.0126 0.1159 Uiso
H52 H 0.2985 0.0587 -0.1176 0.0444 Uiso
H53 H 0.2336 0.1460 -0.0570 0.0506 Uiso
H54 H 0.1493 0.2126 -0.1175 0.0524 Uiso
H55 H 0.2023 0.1099 -0.2941 0.0394 Uiso
H56 H 0.1112 0.1511 -0.3412 0.0394 Uiso
Co1A Co 0.31841(8) 0.00004(7) -0.26535(11) 0.0303 Uani
Co1B Co -0.31841(8) -0.00004(7) -0.76535(11) 0.0303 Uani
Co1C Co -0.18159(8) 0.49996(7) -0.26535(11) 0.0303 Uani
N3B N 0.2840(4) 0.4550(4) -0.8108(4) 0.0343 Uani
N4C N 0.0799(4) 0.5434(4) -0.7179(5) 0.0363 Uani
N5A N 0.2442(4) 0.5776(4) -0.7086(5) 0.0373 Uani
C55 C 0.1251(9) 0.4643(8) -0.4396(9) 0.0733 Uani
Cl1 Cl 0.1238(3) 0.4630(4) -0.3479(3) 0.1190 Uani
Cl2 Cl 0.0398(3) 0.4317(2) -0.4715(2) 0.0827 Uani
Cl3 Cl 0.1423(3) 0.5464(2) -0.4707(3) 0.0880 Uani
H57 H 0.1640 0.4352 -0.4554 0.0861 Uiso
C56 C 0.5761(12) 0.4917(10) -0.8494(11) 0.0857 Uiso
Cl4 Cl 0.5858(3) 0.4279(3) -0.7766(3) 0.1053 Uani
Cl5 Cl 0.6715(3) 0.4944(3) -0.8843(3) 0.1020 Uani
Cl6 Cl 0.5461(3) 0.5627(3) -0.8222(3) 0.1007 Uani
H58 H 0.5441 0.4744 -0.8849 0.0994 Uiso
C57 C 0.5717(10) 0.4778(8) -1.0595(9) 0.0713 Uani
Cl7 Cl 0.5498(2) 0.40120(17) -1.0180(2) 0.0778 Uani
Cl8 Cl 0.5167(2) 0.54521(18) -1.0194(3) 0.0782 Uani
Cl9 Cl 0.5496(3) 0.4757(2) -1.1483(2) 0.0873 Uani
H59 H 0.6234 0.4874 -1.0535 0.0810 Uiso
C58 C -0.2473(7) 0.5001(6) -0.6011(7) 0.0490 Uani
Cl10 Cl -0.33890(19) 0.4859(2) -0.5909(2) 0.0740 Uani
Cl11 Cl -0.21748(19) 0.57387(17) -0.55248(18) 0.0650 Uani
Cl12 Cl -0.2195(2) 0.51089(17) -0.68888(17) 0.0645 Uani
H60 H -0.2210 0.4620 -0.5830 0.0590 Uiso
loop_
_atom_site_aniso_label
_atom_site_aniso_U_11
_atom_site_aniso_U_22
_atom_site_aniso_U_33
_atom_site_aniso_U_23
_atom_site_aniso_U_13
_atom_site_aniso_U_12
Co1 0.0279(6) 0.0202(5) 0.0427(7) 0.0021(5) -0.0015(6) 0.0008(5)
S1 0.0604(16) 0.0476(13) 0.0455(13) 0.0092(11) 0.0030(12) 0.0073(12)
S2 0.0572(16) 0.0721(18) 0.0517(15) 0.0075(13) -0.0155(12) 0.0125(15)
N1 0.028(3) 0.026(3) 0.049(3) 0.002(2) -0.002(2) -0.004(2)
N2 0.031(4) 0.034(4) 0.050(4) 0.001(3) -0.003(3) -0.012(3)
N3 0.037(3) 0.029(3) 0.037(3) 0.000(3) 0.000(2) -0.009(3)
N4 0.03 0.031 0.048 -0.001 -0.001 0.001
N5 0.032 0.032 0.048 0.001 0.003 0.007
N6 0.031 0.044 0.047 -0.004 -0.003 0.01
N7 0.030(3) 0.018(3) 0.047(3) 0.003(2) 0.000(2) 0.001(2)
N8 0.033(3) 0.027(3) 0.039(3) 0.002(2) 0.001(2) 0.000(2)
O1 0.056(2) 0.077(5) 0.042(4) -0.001(3) 0.003(2) 0.031(3)
O2 0.025(2) 0.038(3) 0.042(3) -0.004(2) -0.003(2) -0.009(2)
C1 0.053(6) 0.044(5) 0.045(3) 0.001(4) 0.000(4) -0.018(4)
C2 0.082(8) 0.059(7) 0.055(6) 0.018(5) -0.026(5) -0.036(6)
C3 0.069(7) 0.036(5) 0.059(5) 0.005(4) -0.012(5) -0.021(4)
C4 0.043(5) 0.022(3) 0.051(4) -0.008(3) 0.002(3) -0.005(3)
C5 0.046(5) 0.025(4) 0.047(4) 0.001(3) -0.004(4) -0.008(3)
C6 0.041(5) 0.026(3) 0.053(3) -0.006(3) -0.002(4) -0.008(3)
C7 0.033(4) 0.029(4) 0.052(3) -0.010(3) 0.003(4) -0.003(3)
C8 0.021(4) 0.033(4) 0.054(3) -0.005(3) -0.001(3) 0.002(3)
C9 0.025(4) 0.041(4) 0.048(3) -0.008(3) 0.006(3) -0.005(3)
C10 0.029(4) 0.034(4) 0.049(3) -0.001(3) 0.002(3) -0.009(3)
C11 0.040(4) 0.024(4) 0.043(3) 0.002(3) 0.003(3) -0.007(3)
C12 0.043(5) 0.055(6) 0.046(4) -0.003(4) 0.006(4) -0.021(4)
C13 0.048(5) 0.040(5) 0.045(5) -0.012(4) 0.013(4) -0.011(4)
C14 0.038(5) 0.046(5) 0.043(4) -0.014(4) 0.002(3) -0.013(3)
C15 0.033(4) 0.020(3) 0.045(4) -0.005(3) 0.003(3) -0.005(2)
C16 0.046(3) 0.047(5) 0.040(3) -0.007(3) -0.002(2) -0.001(4)
C17 0.043(3) 0.023(3) 0.054(3) -0.006(3) -0.001(2) 0.000(4)
C18 0.031(3) 0.031(4) 0.049(3) -0.004(3) -0.011(3) -0.007(3)
C27 0.036 0.048 0.048 -0.016 -0.001 0.013
C28 0.062 0.048 0.041 -0.015 -0.014 0.026
C29 0.027 0.034 0.059 -0.013 -0.003 0.002
C30 0.02 0.033 0.049 -0.005 0.001 -0.001
C31 0.023 0.032 0.043 -0.002 -0.001 -0.001
C32 0.021 0.029 0.047 0.003 0.003 0.002
C33 0.023 0.036 0.045 0.006 0.003 0.002
C34 0.022 0.034 0.044 0.006 0.001 -0.001
C35 0.034(3) 0.024(3) 0.045(4) 0.000(3) 0.006(3) -0.001(3)
C36 0.018(3) 0.047(4) 0.051(5) 0.002(3) -0.001(3) -0.001(3)
C37 0.029(3) 0.023(4) 0.061(5) 0.002(3) 0.009(3) 0.004(3)
C38 0.015(3) 0.064(6) 0.056(5) -0.003(5) -0.004(3) 0.006(4)
C39 0.045(4) 0.066(6) 0.052(4) -0.004(4) 0.008(3) 0.004(5)
C40 0.045(5) 0.063(7) 0.058(4) -0.003(4) -0.005(4) 0.008(5)
C41 0.036(5) 0.065(7) 0.061(5) 0.000(4) 0.000(4) -0.001(4)
C42 0.038(5) 0.069(7) 0.060(5) 0.001(4) -0.003(4) -0.006(5)
C43 0.055(6) 0.078(6) 0.062(6) 0.008(5) -0.011(4) -0.020(6)
C44 0.065(7) 0.075(6) 0.073(8) 0.008(6) -0.006(6) -0.028(6)
C45 0.101(13) 0.148(18) 0.098(13) -0.007(10) -0.025(9) -0.079(14)
C46 0.028 0.039 0.05 -0.005 -0.001 0.008
C47 0.029 0.052 0.04 -0.01 -0.006 0.012
C48 0.051 0.048 0.044 -0.005 -0.004 0.021
C49 0.012 0.043 0.047 -0.006 -0.001 0.003
C50 0.042 0.02 0.044 0.004 0.003 0.003
C51 0.032 0.042 0.04 0.002 0.006 0.009
C52 0.032 0.032 0.045 0.002 -0.002 0.013
C53 0.044(5) 0.026(4) 0.044(3) -0.001(3) -0.008(4) -0.001(4)
C54 0.044(5) 0.036(4) 0.042(4) 0.005(4) -0.006(3) -0.003(4)
Co1A 0.0279 0.0202 0.0427 0.0021 0.0015 -0.0008
Co1B 0.0279 0.0202 0.0427 -0.0021 -0.0015 -0.0008
Co1C 0.0279 0.0202 0.0427 -0.0021 0.0015 0.0008
N3B 0.037 0.029 0.037 0 0 0.009
N4C 0.03 0.031 0.048 0.001 0.001 0.001
N5A 0.032 0.032 0.048 0.001 -0.003 -0.007
C55 0.062(6) 0.078(6) 0.080(3) 0.010(7) 0.025(5) -0.014(6)
Cl1 0.093(3) 0.184(6) 0.080(3) 0.034(3) -0.014(2) -0.044(4)
Cl2 0.087(2) 0.076(2) 0.085(2) 0.0145(19) -0.0077(19) -0.0143(18)
Cl3 0.085(3) 0.079(2) 0.100(3) 0.0135(19) 0.021(2) -0.0149(19)
Cl4 0.077(3) 0.103(3) 0.136(4) 0.033(3) -0.012(3) -0.019(2)
Cl5 0.090(3) 0.104(3) 0.112(4) -0.012(3) 0.017(2) -0.024(2)
Cl6 0.106(3) 0.082(2) 0.114(3) -0.008(2) -0.005(3) -0.001(2)
C57 0.082(9) 0.055(5) 0.077(4) 0.006(5) 0.009(6) 0.003(5)
Cl7 0.091(2) 0.0554(16) 0.087(2) 0.0090(16) 0.0190(19) 0.0085(16)
Cl8 0.0689(19) 0.0556(15) 0.110(3) -0.0098(18) 0.000(2) 0.0003(14)
Cl9 0.117(3) 0.068(2) 0.077(2) 0.0024(16) 0.004(2) 0.004(2)
C58 0.047(3) 0.046(5) 0.054(3) 0.009(4) 0.001(4) 0.004(4)
Cl10 0.0509(16) 0.084(2) 0.087(2) -0.0126(18) 0.0125(15) -0.0098(14)
Cl11 0.0665(18) 0.0659(17) 0.0625(17) -0.0070(14) 0.0015(15) -0.0032(14)
Cl12 0.0686(18) 0.0707(18) 0.0541(16) -0.0018(13) 0.0090(14) -0.0042(14)
loop_
_geom_bond_atom_site_label_1
_geom_bond_atom_site_label_2
_geom_bond_site_symmetry_1
_geom_bond_site_symmetry_2
Co1 N1 1_555 1_555
S1 C53 1_555 1_555
S2 C54 1_555 1_555
N1 C1 1_555 1_555
N2 C6 1_555 1_555
N3 C14 1_555 1_555
N4 C27 1_555 1_555
N5 C46 1_555 1_555
N6 C32 1_555 1_555
N7 Co1 1_555 1_555
N8 Co1 1_555 1_555
O1 C16 1_555 1_555
O2 C37 1_555 1_555
C1 C2 1_555 1_555
C2 C3 1_555 1_555
C3 C4 1_555 1_555
C4 C5 1_555 1_555
C5 N1 1_555 1_555
C6 C4 1_555 1_555
C7 C6 1_555 1_555
C8 C7 1_555 1_555
C9 C8 1_555 1_555
C10 N2 1_555 1_555
C11 C10 1_555 1_555
C12 C11 1_555 1_555
C13 C12 1_555 1_555
C14 C13 1_555 1_555
C15 N3 1_555 1_555
C16 C17 1_555 1_555
C17 C8 1_555 1_555
C18 C17 1_555 1_555
C19 O1 1_555 1_555
C20 C19 1_555 1_555
C21 C20 1_555 1_555
C22 C21 1_555 1_555
C23 C22 1_555 1_555
C24 C23 1_555 1_555
C25 C24 1_555 1_555
C26 C25 1_555 1_555
C27 C28 1_555 1_555
C28 C29 1_555 1_555
C29 C30 1_555 1_555
C30 C31 1_555 1_555
C31 N4 1_555 1_555
C32 C30 1_555 1_555
C33 C32 1_555 1_555
C34 C33 1_555 1_555
C35 C34 1_555 1_555
C36 C16 1_555 1_555
C37 C18 1_555 1_555
C38 O2 1_555 1_555
C39 C38 1_555 1_555
C40 C39 1_555 1_555
C41 C40 1_555 1_555
C42 C41 1_555 1_555
C43 C42 1_555 1_555
C44 C43 1_555 1_555
C45 C44 1_555 1_555
C46 C47 1_555 1_555
C47 C48 1_555 1_555
C48 C49 1_555 1_555
C49 C50 1_555 1_555
C50 N5 1_555 1_555
C51 N6 1_555 1_555
C52 C34 1_555 1_555
C53 N7 1_555 1_555
C54 N8 1_555 1_555
H1 C1 1_555 1_555
H2 C2 1_555 1_555
H3 C3 1_555 1_555
H4 C5 1_555 1_555
H5 C7 1_555 1_555
H6 C9 1_555 1_555
H7 C12 1_555 1_555
H8 C13 1_555 1_555
H9 C14 1_555 1_555
H10 C15 1_555 1_555
H11 C18 1_555 1_555
H12 C19 1_555 1_555
H13 C19 1_555 1_555
H14 C20 1_555 1_555
H15 C20 1_555 1_555
H16 C21 1_555 1_555
H17 C21 1_555 1_555
H18 C22 1_555 1_555
H19 C22 1_555 1_555
H20 C23 1_555 1_555
H21 C23 1_555 1_555
H22 C24 1_555 1_555
H23 C24 1_555 1_555
H24 C25 1_555 1_555
H25 C25 1_555 1_555
H26 C26 1_555 1_555
H27 C26 1_555 1_555
H28 C26 1_555 1_555
H29 C27 1_555 1_555
H30 C28 1_555 1_555
H31 C29 1_555 1_555
H32 C31 1_555 1_555
H33 C33 1_555 1_555
H34 C36 1_555 1_555
H35 C38 1_555 1_555
H36 C38 1_555 1_555
H37 C39 1_555 1_555
H38 C39 1_555 1_555
H39 C40 1_555 1_555
H40 C40 1_555 1_555
H41 C41 1_555 1_555
H42 C41 1_555 1_555
H43 C42 1_555 1_555
H44 C42 1_555 1_555
H45 C43 1_555 1_555
H46 C43 1_555 1_555
H47 C44 1_555 1_555
H48 C44 1_555 1_555
H49 C45 1_555 1_555
H50 C45 1_555 1_555
H51 C45 1_555 1_555
H52 C46 1_555 1_555
H53 C47 1_555 1_555
H54 C48 1_555 1_555
H55 C50 1_555 1_555
H56 C52 1_555 1_555
C55 Cl1 1_555 1_555
Cl2 C55 1_555 1_555
Cl3 C55 1_555 1_555
H57 C55 1_555 1_555
C56 Cl4 1_555 1_555
Cl5 C56 1_555 1_555
Cl6 C56 1_555 1_555
H58 C56 1_555 1_555
C57 Cl7 1_555 1_555
Cl8 C57 1_555 1_555
Cl9 C57 1_555 1_555
H59 C57 1_555 1_555
C58 Cl10 1_555 1_555
Cl11 C58 1_555 1_555
Cl12 C58 1_555 1_555
H60 C58 1_555 1_555
Co1A N5 1_555 1_555
Co1B N3 1_555 1_555
Co1C N4 1_555 1_555
N3B Co1 1_555 1_555
N4C Co1 1_555 1_555
N5A Co1 1_555 1_555
C9 C10 1_555 1_555
C11 C15 1_555 1_555
C35 C36 1_555 1_555
C35 C37 1_555 1_555
C49 C51 1_555 1_555
C51 C52 1_555 1_555

#END
