
#######################################################################
#
#                 Cambridge Crystallographic Data Centre
#                                CCDC 
#
#######################################################################
#
# If this CIF has been generated from an entry in the Cambridge 
# Structural Database, then it will include bibliographic, chemical, 
# crystal, experimental, refinement or atomic coordinate data resulting 
# from the CCDC's data processing and validation procedures.
#
#######################################################################

data_ESIWAF
_chemical_formula_moiety         'C7 H10 Al9 F2 N1 O18 P3 1+'
_symmetry_cell_setting           triclinic
_symmetry_space_group_name_H-M   'P -1'
_symmetry_Int_Tables_number      2
_space_group_name_Hall           '-P 1'
loop_
_symmetry_equiv_pos_site_id
_symmetry_equiv_pos_as_xyz
1 x,y,z
2 -x,-y,-z
_cell_length_a                   9.154(4)
_cell_length_b                   9.239(4)
_cell_length_c                   9.345(4)
_cell_angle_alpha                78.231(5)
_cell_angle_beta                 87.485(6)
_cell_angle_gamma                87.179(5)
_cell_volume                     772.327
loop_
_atom_site_label
_atom_site_type_symbol
_atom_site_fract_x
_atom_site_fract_y
_atom_site_fract_z
C1 C 0.2430(13) 0.7712(13) 0.4904(13)
H1 H 0.2724 0.8208 0.5607
N1 N 0.1554(9) 0.6212(9) 0.2906(10)
C2 C 0.0784(11) 0.7429(11) 0.3127(11)
H2 H -0.0070 0.7718 0.2624
C3 C -0.0133(13) 0.4230(12) 0.2907(13)
H3 H -0.0559 0.3618 0.2334
H4 H -0.0894 0.4796 0.3309
H5 H 0.0395 0.3617 0.3687
C4 C 0.2720(10) 0.5723(11) 0.3689(11)
H6 H 0.3223 0.4861 0.3547
C5 C 0.0898(11) 0.5261(12) 0.1953(11)
H7 H 0.0374 0.5886 0.1160
H8 H 0.1668 0.4699 0.1535
C6 C 0.1223(13) 0.8228(12) 0.4055(13)
H9 H 0.0733 0.9116 0.4134
C7 C 0.3179(11) 0.6430(11) 0.4663(11)
H10 H 0.4005 0.6073 0.5191
P1 P 0.6170(2) -0.1397(2) 0.6786(2)
P2 P 0.8126(2) 0.1111(2) 0.1054(2)
P3 P 0.6487(2) -0.3306(2) 0.1381(2)
Al1 Al 0.6307(3) -0.1032(3) 0.3397(3)
Al2 Al 0.8371(3) -0.1327(3) -0.0732(3)
Al3 Al 0.4385(3) -0.3684(2) -0.0920(3)
F1 F 0.6053(5) -0.4977(4) -0.0805(5)
O1 O 0.5360(6) -0.2652(5) 0.0261(6)
O2 O 0.7875(6) 0.0351(6) -0.0223(6)
O3 O 0.6484(6) -0.4978(6) 0.1870(6)
O4 O 0.7310(6) 0.2580(5) 0.0871(6)
O5 O 0.7680(6) 0.0094(6) 0.2497(6)
O6 O 0.5145(6) -0.2644(6) 0.7339(6)
O7 O 0.9768(6) 0.1353(6) 0.1120(6)
O8 O 0.8015(6) -0.2814(6) 0.0709(6)
O9 O 0.7526(6) -0.1491(6) 0.7708(6)
O10 O 0.6740(6) -0.1490(6) 0.5234(5)
O11 O 0.6250(6) -0.2647(6) 0.2770(6)
O12 O 0.5392(6) 0.0104(6) 0.6752(6)
Al1A Al 0.3693(3) 0.1032(3) 0.6603(3)
Al2A Al 1.1629(3) 0.1327(3) 0.0732(3)
Al2_2 Al 0.8371(3) -0.1327(3) 0.9268(3)
Al3A Al 0.5615(3) -0.6316(2) 0.0920(3)
Al3A_2 Al 0.5615(3) 0.3684(2) 0.0920(3)
Al3_2 Al 0.4385(3) -0.3684(2) 0.9080(3)
F1A F 0.3947(5) -0.5023(4) 0.0805(5)
O3A O 0.3516(6) -0.5022(6) -0.1870(6)
O4A O 0.2690(6) -0.2580(5) -0.0871(6)
O6_2 O 0.5145(6) -0.2644(6) -0.2661(6)
O7A O 1.0232(6) -0.1353(6) -0.1120(6)
O9_2 O 0.7526(6) -0.1491(6) -0.2292(6)
O12A O 0.4608(6) -0.0104(6) 0.3248(6)
loop_
_geom_bond_atom_site_label_1
_geom_bond_atom_site_label_2
_geom_bond_site_symmetry_1
_geom_bond_site_symmetry_2
P1 O6 1_555 1_555
P2 O2 1_555 1_555
P3 O1 1_555 1_555
Al1 O5 1_555 1_555
Al2 O2 1_555 1_555
Al3 F1 1_555 1_555
F1 Al3A 1_555 1_555
O1 Al3 1_555 1_555
O3 P3 1_555 1_555
O4 P2 1_555 1_555
O5 P2 1_555 1_555
O6 Al3_2 1_555 1_555
O7 P2 1_555 1_555
O8 P3 1_555 1_555
O9 P1 1_555 1_555
O10 P1 1_555 1_555
O11 P3 1_555 1_555
O12 P1 1_555 1_555
C1 H1 1_555 1_555
N1 C2 1_555 1_555
C2 H2 1_555 1_555
C3 H3 1_555 1_555
H4 C3 1_555 1_555
H5 C3 1_555 1_555
C4 N1 1_555 1_555
H6 C4 1_555 1_555
C5 N1 1_555 1_555
H7 C5 1_555 1_555
H8 C5 1_555 1_555
C6 C1 1_555 1_555
H9 C6 1_555 1_555
C7 C1 1_555 1_555
H10 C7 1_555 1_555
Al1A O12 1_555 1_555
Al2A O7 1_555 1_555
Al2_2 O9 1_555 1_555
Al3A O3 1_555 1_555
Al3A_2 O4 1_555 1_555
F1A Al3 1_555 1_555
O3A Al3 1_555 1_555
O4A Al3 1_555 1_555
O6_2 Al3 1_555 1_555
O7A Al2 1_555 1_555
O9_2 Al2 1_555 1_555
O12A Al1 1_555 1_555
Al1 O10 1_555 1_555
Al1 O11 1_555 1_555
Al2 O8 1_555 1_555
C2 C6 1_555 1_555
C3 C5 1_555 1_555
C4 C7 1_555 1_555
Al3A F1A 1_555 1_555

#END
