
#######################################################################
#
#                 Cambridge Crystallographic Data Centre
#                                CCDC 
#
#######################################################################
#
# If this CIF has been generated from an entry in the Cambridge 
# Structural Database, then it will include bibliographic, chemical, 
# crystal, experimental, refinement or atomic coordinate data resulting 
# from the CCDC's data processing and validation procedures.
#
#######################################################################

data_MUHNUA
_chemical_formula_moiety         '(C71 H96 Br1 Cu6 N31)n'
_symmetry_cell_setting           hexagonal
_symmetry_space_group_name_H-M   'P 63/m'
_symmetry_Int_Tables_number      176
_space_group_name_Hall           '-P 6c'
loop_
_symmetry_equiv_pos_site_id
_symmetry_equiv_pos_as_xyz
1 x,y,z
2 x-y,x,1/2+z
3 -y,x-y,z
4 -x,-y,1/2+z
5 -x+y,-x,z
6 y,-x+y,1/2+z
7 -x,-y,-z
8 -x+y,-x,1/2-z
9 y,-x+y,-z
10 x,y,1/2-z
11 x-y,x,-z
12 -y,x-y,1/2-z
_cell_length_a                   19.003(5)
_cell_length_b                   19.003
_cell_length_c                   16.916(5)
_cell_angle_alpha                90
_cell_angle_beta                 90
_cell_angle_gamma                120
_cell_volume                     5290.21
loop_
_atom_site_label
_atom_site_type_symbol
_atom_site_fract_x
_atom_site_fract_y
_atom_site_fract_z
Cu1 Cu 0.66932(7) 0.66706(7) 0.7500
Cu2 Cu 0.54774(6) 0.36667(6) 0.7500
Br1 Br 0.6667 0.3333 0.7500
N1 N 0.4857(3) 0.2298(3) 0.6338(3)
H1 H 0.5071 0.2077 0.6619
N2 N 0.4890(3) 0.3002(3) 0.6536(3)
N3 N 0.2808(3) 0.2033(3) 0.3757(3)
H2 H 0.2357 0.1743 0.3512
C1 C 0.6183(5) 0.5537(6) 0.7500
N4 N 0.5929(5) 0.4823(6) 0.7500
C2 C 0.3742(4) 0.2443(3) 0.4662(3)
N5 N 0.7920(6) 0.7079(6) 0.7500
C3 C 0.2984(4) 0.1824(4) 0.4462(3)
C4 C 0.2417(4) 0.1049(4) 0.4857(5)
H3 H 0.1868 0.0912 0.4744
H4 H 0.2506 0.1108 0.5418
H5 H 0.2510 0.0627 0.4666
C5 C 0.4010(4) 0.3010(3) 0.4020(3)
C6 C 0.4215(3) 0.2515(3) 0.5383(3)
C7 C 0.4457(4) 0.1977(4) 0.5656(4)
C8 C 0.4498(4) 0.3144(4) 0.5953(4)
C9 C 0.8528(7) 0.7151(7) 0.7500
C10 C 0.4375(5) 0.1224(4) 0.5313(4)
H6 H 0.4510 0.0946 0.5705
H7 H 0.4735 0.1359 0.4870
H8 H 0.3825 0.0879 0.5141
C11 C 0.4376(4) 0.3860(4) 0.5988(4)
H9 H 0.4549 0.4118 0.6495
H10 H 0.3811 0.3684 0.5913
H11 H 0.4690 0.4239 0.5580
C12 C 0.4795(4) 0.3780(4) 0.3904(4)
H12 H 0.4749 0.4228 0.4104
H13 H 0.4922 0.3859 0.3350
H14 H 0.5219 0.3749 0.4181
N6 N 0.3428(3) 0.2760(3) 0.3474(3)
C13 C 0.9383(10) 0.7264(13) 0.7500
H15 H 0.9777 0.7834 0.7500
H16 H 0.9454 0.7015 0.7037
H16I H 0.9454 0.7015 0.7963
Cu1B Cu 0.33294(7) 0.00226(10) 0.7500
Cu2B Cu 0.63333(6) 0.18107(8) 0.7500
N1B N 0.7702(3) 0.2559(4) 0.6338(3)
H1B H 0.7923 0.2994 0.6619
N2B N 0.6998(3) 0.1888(4) 0.6536(3)
N3B N 0.7967(3) 0.0775(4) 0.3757(3)
H2B H 0.8257 0.0614 0.3512
C1B C 0.4463(6) 0.0646(8) 0.7500
N4B N 0.5177(6) 0.1106(8) 0.7500
C2B C 0.7557(3) 0.1299(5) 0.4662(3)
N5B N 0.2921(6) 0.0841(8) 0.7500
C3B C 0.8176(4) 0.1160(6) 0.4462(3)
C4B C 0.8951(4) 0.1368(6) 0.4857(5)
H3B H 0.9088 0.0956 0.4744
H4B H 0.8892 0.1398 0.5418
H5B H 0.9373 0.1883 0.4666
C5B C 0.6990(3) 0.1000(5) 0.4020(3)
C6B C 0.7485(3) 0.1700(4) 0.5383(3)
C7B C 0.8023(4) 0.2480(6) 0.5656(4)
C8B C 0.6856(4) 0.1354(6) 0.5953(4)
C9B C 0.2849(7) 0.1377(10) 0.7500
C10B C 0.8776(4) 0.3151(6) 0.5313(4)
H6B H 0.9054 0.3564 0.5705
H7B H 0.8641 0.3376 0.4870
H8B H 0.9121 0.2946 0.5141
C11B C 0.6140(4) 0.0516(6) 0.5988(4)
H9B H 0.5882 0.0431 0.6495
H10B H 0.6316 0.0127 0.5913
H11B H 0.5761 0.0451 0.5580
C12B C 0.6220(4) 0.1015(6) 0.3904(4)
H12B H 0.5772 0.0521 0.4104
H13B H 0.6141 0.1063 0.3350
H14B H 0.6251 0.1470 0.4181
N6B N 0.7240(3) 0.0668(4) 0.3474(3)
C13B C 0.2736(13) 0.2119(16) 0.7500
H15B H 0.2166 0.1943 0.7500
H16B H 0.2985 0.2439 0.7037
H16K H 0.2985 0.2439 0.7963
Cu1D Cu 0.99774(10) 0.33068(7) 0.7500
Cu2D Cu 0.81893(8) 0.45226(6) 0.7500
N1D N 0.7441(4) 0.5143(3) 0.6338(3)
H1D H 0.7006 0.4929 0.6619
N2D N 0.8112(4) 0.5110(3) 0.6536(3)
N3D N 0.9225(4) 0.7192(3) 0.3757(3)
H2D H 0.9386 0.7643 0.3512
C1D C 0.9354(8) 0.3817(5) 0.7500
N4D N 0.8894(8) 0.4071(5) 0.7500
C2D C 0.8701(5) 0.6258(4) 0.4662(3)
N5D N 0.9159(8) 0.2080(6) 0.7500
C3D C 0.8840(6) 0.7016(4) 0.4462(3)
C4D C 0.8632(6) 0.7583(4) 0.4857(5)
H3D H 0.9044 0.8132 0.4744
H4D H 0.8602 0.7494 0.5418
H5D H 0.8117 0.7490 0.4666
C5D C 0.9000(5) 0.5990(4) 0.4020(3)
C6D C 0.8300(4) 0.5785(3) 0.5383(3)
C7D C 0.7520(6) 0.5543(4) 0.5656(4)
C8D C 0.8646(6) 0.5502(4) 0.5953(4)
C9D C 0.8623(10) 0.1472(7) 0.7500
C10D C 0.6849(6) 0.5625(5) 0.5313(4)
H6D H 0.6436 0.5490 0.5705
H7D H 0.6624 0.5265 0.4870
H8D H 0.7054 0.6175 0.5141
C11D C 0.9484(6) 0.5624(4) 0.5988(4)
H9D H 0.9569 0.5451 0.6495
H10D H 0.9873 0.6189 0.5913
H11D H 0.9549 0.5310 0.5580
C12D C 0.8985(6) 0.5205(4) 0.3904(4)
H12D H 0.9479 0.5251 0.4104
H13D H 0.8937 0.5078 0.3350
H14D H 0.8530 0.4781 0.4181
N6D N 0.9332(4) 0.6572(3) 0.3474(3)
C13D C 0.7881(16) 0.0617(10) 0.7500
H15D H 0.8057 0.0223 0.7500
H16D H 0.7561 0.0546 0.7037
H16G H 0.7561 0.0546 0.7963
N1F N 0.5143(3) 0.7702(3) 0.3662(3)
H1F H 0.4929 0.7923 0.3381
N2F N 0.5110(3) 0.6998(3) 0.3464(3)
N3F N 0.7192(3) 0.7967(3) 0.6243(3)
H2F H 0.7643 0.8257 0.6488
C2F C 0.6258(4) 0.7557(3) 0.5338(3)
C3F C 0.7016(4) 0.8176(4) 0.5538(3)
C4F C 0.7583(4) 0.8951(4) 0.5143(5)
H3F H 0.8132 0.9088 0.5256
H4F H 0.7494 0.8892 0.4582
H5F H 0.7490 0.9373 0.5334
C5F C 0.5990(4) 0.6990(3) 0.5980(3)
C6F C 0.5785(3) 0.7485(3) 0.4617(3)
C7F C 0.5543(4) 0.8023(4) 0.4344(4)
C8F C 0.5502(4) 0.6856(4) 0.4047(4)
C10F C 0.5625(5) 0.8776(4) 0.4687(4)
H6F H 0.5490 0.9054 0.4295
H7F H 0.5265 0.8641 0.5130
H8F H 0.6175 0.9121 0.4859
C11F C 0.5624(4) 0.6140(4) 0.4012(4)
H9F H 0.5451 0.5882 0.3505
H10F H 0.6189 0.6316 0.4087
H11F H 0.5310 0.5761 0.4420
C12F C 0.5205(4) 0.6220(4) 0.6096(4)
H12F H 0.5251 0.5772 0.5896
H13F H 0.5078 0.6141 0.6650
H14F H 0.4781 0.6251 0.5819
N6F N 0.6572(3) 0.7240(3) 0.6526(3)
N1H N 0.2298(3) -0.2559(4) 0.3662(3)
H1H H 0.2077 -0.2994 0.3381
N2H N 0.3002(3) -0.1888(4) 0.3464(3)
N3H N 0.2033(3) -0.0775(4) 0.6243(3)
H2H H 0.1743 -0.0614 0.6488
C2H C 0.2443(3) -0.1299(5) 0.5338(3)
C3H C 0.1824(4) -0.1160(6) 0.5538(3)
C4H C 0.1049(4) -0.1368(6) 0.5143(5)
H3H H 0.0912 -0.0956 0.5256
H4H H 0.1108 -0.1398 0.4582
H5H H 0.0627 -0.1883 0.5334
C5H C 0.3010(3) -0.1000(5) 0.5980(3)
C6H C 0.2515(3) -0.1700(4) 0.4617(3)
C7H C 0.1977(4) -0.2480(6) 0.4344(4)
C8H C 0.3144(4) -0.1354(6) 0.4047(4)
C10H C 0.1224(4) -0.3151(6) 0.4687(4)
H6H H 0.0946 -0.3564 0.4295
H7H H 0.1359 -0.3376 0.5130
H8H H 0.0879 -0.2946 0.4859
C11H C 0.3860(4) -0.0516(6) 0.4012(4)
H9H H 0.4118 -0.0431 0.3505
H10H H 0.3684 -0.0127 0.4087
H11H H 0.4239 -0.0451 0.4420
C12H C 0.3780(4) -0.1015(6) 0.6096(4)
H12H H 0.4228 -0.0521 0.5896
H13H H 0.3859 -0.1063 0.6650
H14H H 0.3749 -0.1470 0.5819
N6H N 0.2760(3) -0.0668(4) 0.6526(3)
N1C N 0.5143(3) 0.7702(3) 1.1338(3)
H1C H 0.4929 0.7923 1.1619
N2C N 0.5110(3) 0.6998(3) 1.1536(3)
N3C N 0.7192(3) 0.7967(3) 0.8757(3)
H2C H 0.7643 0.8257 0.8512
C2C C 0.6258(4) 0.7557(3) 0.9662(3)
C3C C 0.7016(4) 0.8176(4) 0.9462(3)
C4C C 0.7583(4) 0.8951(4) 0.9857(5)
H3C H 0.8132 0.9088 0.9744
H4C H 0.7494 0.8892 1.0418
H5C H 0.7490 0.9373 0.9666
C5C C 0.5990(4) 0.6990(3) 0.9020(3)
C6C C 0.5785(3) 0.7485(3) 1.0383(3)
C7C C 0.5543(4) 0.8023(4) 1.0656(4)
C8C C 0.5502(4) 0.6856(4) 1.0953(4)
C10C C 0.5625(5) 0.8776(4) 1.0313(4)
H6C H 0.5490 0.9054 1.0705
H7C H 0.5265 0.8641 0.9870
H8C H 0.6175 0.9121 1.0141
C11C C 0.5624(4) 0.6140(4) 1.0988(4)
H9C H 0.5451 0.5882 1.1495
H10C H 0.6189 0.6316 1.0913
H11C H 0.5310 0.5761 1.0580
C12C C 0.5205(4) 0.6220(4) 0.8904(4)
H12C H 0.5251 0.5772 0.9104
H13C H 0.5078 0.6141 0.8350
H14C H 0.4781 0.6251 0.9181
N6C N 0.6572(3) 0.7240(3) 0.8474(3)
Cu1A Cu 1.00226(10) 0.66932(7) 0.2500
Cu1C Cu 0.33068(7) 0.33294(7) 0.2500
Cu1E Cu 0.66706(7) -0.00226(10) 0.2500
Cu2C Cu 0.45226(6) 0.63333(6) 0.2500
Cu2C_2 Cu 0.45226(6) 0.63333(6) 1.2500
Cu2E Cu 0.36667(6) -0.18107(8) 0.2500
N2G N 0.8112(4) 0.5110(3) 0.8464(3)
N2I N 0.4890(3) 0.3002(3) 0.8464(3)
N2K N 0.6998(3) 0.1888(4) 0.8464(3)
N6A N 1.0668(4) 0.3428(3) 0.8474(3)
N6E N 0.2760(3) -0.0668(4) 0.8474(3)
N6J N 1.0668(4) 0.3428(3) 0.6526(3)
C14 C 0.6667 0.3333 0.4448(8)
C15 C 0.6667 0.3333 0.5344(9)
H17 H 0.6392 0.2783 0.5534
N7 N 0.6667 0.3333 0.3782(9)
H17B H 0.7217 0.3609 0.5534
H17D H 0.6391 0.3608 0.5534
loop_
_geom_bond_atom_site_label_1
_geom_bond_atom_site_label_2
_geom_bond_site_symmetry_1
_geom_bond_site_symmetry_2
Cu1 C1 1_555 1_555
Cu2 Br1 1_555 1_555
Br1 Cu2B 1_555 1_555
N1 H1 1_555 1_555
N2 Cu2 1_555 1_555
N3 H2 1_555 1_555
C1 N4 1_555 1_555
N4 Cu2 1_555 1_555
C2 C3 1_555 1_555
N5 Cu1 1_555 1_555
C3 N3 1_555 1_555
C4 C3 1_555 1_555
H3 C4 1_555 1_555
H4 C4 1_555 1_555
H5 C4 1_555 1_555
C5 C2 1_555 1_555
C6 C2 1_555 1_555
C7 N1 1_555 1_555
C8 N2 1_555 1_555
C9 N5 1_555 1_555
C10 C7 1_555 1_555
H6 C10 1_555 1_555
H7 C10 1_555 1_555
H8 C10 1_555 1_555
C11 C8 1_555 1_555
H9 C11 1_555 1_555
H10 C11 1_555 1_555
H11 C11 1_555 1_555
C12 C5 1_555 1_555
H12 C12 1_555 1_555
H13 C12 1_555 1_555
H14 C12 1_555 1_555
N6 N3 1_555 1_555
C13 C9 1_555 1_555
H15 C13 1_555 1_555
H16 C13 1_555 1_555
C14 C15 1_555 1_555
C15 H17 1_555 1_555
N7 C14 1_555 1_555
H16I C13 1_555 1_555
Cu1B C1B 1_555 1_555
Cu2B N2B 1_555 1_555
N1B H1B 1_555 1_555
N2B N1B 1_555 1_555
N3B H2B 1_555 1_555
C1B N4B 1_555 1_555
N4B Cu2B 1_555 1_555
C2B C3B 1_555 1_555
N5B Cu1B 1_555 1_555
C3B N3B 1_555 1_555
C4B C3B 1_555 1_555
H3B C4B 1_555 1_555
H4B C4B 1_555 1_555
H5B C4B 1_555 1_555
C5B C2B 1_555 1_555
C6B C2B 1_555 1_555
C7B N1B 1_555 1_555
C8B N2B 1_555 1_555
C9B N5B 1_555 1_555
C10B C7B 1_555 1_555
H6B C10B 1_555 1_555
H7B C10B 1_555 1_555
H8B C10B 1_555 1_555
C11B C8B 1_555 1_555
H9B C11B 1_555 1_555
H10B C11B 1_555 1_555
H11B C11B 1_555 1_555
C12B C5B 1_555 1_555
H12B C12B 1_555 1_555
H13B C12B 1_555 1_555
H14B C12B 1_555 1_555
N6B N3B 1_555 1_555
C13B C9B 1_555 1_555
H15B C13B 1_555 1_555
H16B C13B 1_555 1_555
H16K C13B 1_555 1_555
Cu1D C1D 1_555 1_555
Cu2D Br1 1_555 1_555
N1D H1D 1_555 1_555
N2D Cu2D 1_555 1_555
N3D H2D 1_555 1_555
C1D N4D 1_555 1_555
N4D Cu2D 1_555 1_555
C2D C3D 1_555 1_555
N5D Cu1D 1_555 1_555
C3D N3D 1_555 1_555
C4D C3D 1_555 1_555
H3D C4D 1_555 1_555
H4D C4D 1_555 1_555
H5D C4D 1_555 1_555
C5D C2D 1_555 1_555
C6D C2D 1_555 1_555
C7D N1D 1_555 1_555
C8D N2D 1_555 1_555
C9D N5D 1_555 1_555
C10D C7D 1_555 1_555
H6D C10D 1_555 1_555
H7D C10D 1_555 1_555
H8D C10D 1_555 1_555
C11D C8D 1_555 1_555
H9D C11D 1_555 1_555
H10D C11D 1_555 1_555
H11D C11D 1_555 1_555
C12D C5D 1_555 1_555
H12D C12D 1_555 1_555
H13D C12D 1_555 1_555
H14D C12D 1_555 1_555
N6D N3D 1_555 1_555
C13D C9D 1_555 1_555
H15D C13D 1_555 1_555
H16D C13D 1_555 1_555
H16G C13D 1_555 1_555
N1F H1F 1_555 1_555
N2F N1F 1_555 1_555
N3F H2F 1_555 1_555
C2F C3F 1_555 1_555
C3F N3F 1_555 1_555
C4F C3F 1_555 1_555
H3F C4F 1_555 1_555
H4F C4F 1_555 1_555
H5F C4F 1_555 1_555
C5F C2F 1_555 1_555
C6F C2F 1_555 1_555
C7F N1F 1_555 1_555
C8F N2F 1_555 1_555
C10F C7F 1_555 1_555
H6F C10F 1_555 1_555
H7F C10F 1_555 1_555
H8F C10F 1_555 1_555
C11F C8F 1_555 1_555
H9F C11F 1_555 1_555
H10F C11F 1_555 1_555
H11F C11F 1_555 1_555
C12F C5F 1_555 1_555
H12F C12F 1_555 1_555
H13F C12F 1_555 1_555
H14F C12F 1_555 1_555
N6F Cu1 1_555 1_555
N1H H1H 1_555 1_555
N2H N1H 1_555 1_555
N3H H2H 1_555 1_555
C2H C3H 1_555 1_555
C3H N3H 1_555 1_555
C4H C3H 1_555 1_555
H3H C4H 1_555 1_555
H4H C4H 1_555 1_555
H5H C4H 1_555 1_555
C5H C2H 1_555 1_555
C6H C2H 1_555 1_555
C7H N1H 1_555 1_555
C8H N2H 1_555 1_555
C10H C7H 1_555 1_555
H6H C10H 1_555 1_555
H7H C10H 1_555 1_555
H8H C10H 1_555 1_555
C11H C8H 1_555 1_555
H9H C11H 1_555 1_555
H10H C11H 1_555 1_555
H11H C11H 1_555 1_555
C12H C5H 1_555 1_555
H12H C12H 1_555 1_555
H13H C12H 1_555 1_555
H14H C12H 1_555 1_555
N6H Cu1B 1_555 1_555
N1C H1C 1_555 1_555
N2C N1C 1_555 1_555
N3C H2C 1_555 1_555
C2C C3C 1_555 1_555
C3C N3C 1_555 1_555
C4C C3C 1_555 1_555
H3C C4C 1_555 1_555
H4C C4C 1_555 1_555
H5C C4C 1_555 1_555
C5C C2C 1_555 1_555
C6C C2C 1_555 1_555
C7C N1C 1_555 1_555
C8C N2C 1_555 1_555
C10C C7C 1_555 1_555
H6C C10C 1_555 1_555
H7C C10C 1_555 1_555
H8C C10C 1_555 1_555
C11C C8C 1_555 1_555
H9C C11C 1_555 1_555
H10C C11C 1_555 1_555
H11C C11C 1_555 1_555
C12C C5C 1_555 1_555
H12C C12C 1_555 1_555
H13C C12C 1_555 1_555
H14C C12C 1_555 1_555
N6C Cu1 1_555 1_555
Cu1A N6D 1_555 1_555
Cu1C N6 1_555 1_555
Cu1E N6B 1_555 1_555
Cu2C N2F 1_555 1_555
Cu2C_2 N2C 1_555 1_555
Cu2E N2H 1_555 1_555
N2G Cu2D 1_555 1_555
N2I Cu2 1_555 1_555
N2K Cu2B 1_555 1_555
N6A Cu1D 1_555 1_555
N6E Cu1B 1_555 1_555
N6J Cu1D 1_555 1_555
H17B C15 1_555 1_555
H17D C15 1_555 1_555
N1 N2 1_555 1_555
C5 N6 1_555 1_555
C6 C7 1_555 1_555
C6 C8 1_555 1_555
C5B N6B 1_555 1_555
C6B C7B 1_555 1_555
C6B C8B 1_555 1_555
N1D N2D 1_555 1_555
C5D N6D 1_555 1_555
C6D C7D 1_555 1_555
C6D C8D 1_555 1_555
N3F N6F 1_555 1_555
C5F N6F 1_555 1_555
C6F C7F 1_555 1_555
C6F C8F 1_555 1_555
N3H N6H 1_555 1_555
C5H N6H 1_555 1_555
C6H C7H 1_555 1_555
C6H C8H 1_555 1_555
N3C N6C 1_555 1_555
C5C N6C 1_555 1_555
C6C C7C 1_555 1_555
C6C C8C 1_555 1_555

#END
