
#######################################################################
#
#                 Cambridge Crystallographic Data Centre
#                                CCDC 
#
#######################################################################
#
# If this CIF has been generated from an entry in the Cambridge 
# Structural Database, then it will include bibliographic, chemical, 
# crystal, experimental, refinement or atomic coordinate data resulting 
# from the CCDC's data processing and validation procedures.
#
#######################################################################

data_NALYEG
_chemical_formula_moiety         '(C29 H14 N1 O22 U3)n'
_symmetry_cell_setting           hexagonal
_symmetry_space_group_name_H-M   'P 63/m'
_symmetry_Int_Tables_number      176
_space_group_name_Hall           '-P 6c'
loop_
_symmetry_equiv_pos_site_id
_symmetry_equiv_pos_as_xyz
1 x,y,z
2 -y,x-y,z
3 -x+y,-x,z
4 -x,-y,1/2+z
5 y,-x+y,1/2+z
6 x-y,x,1/2+z
7 -x,-y,-z
8 y,-x+y,-z
9 x-y,x,-z
10 x,y,1/2-z
11 -y,x-y,1/2-z
12 -x+y,-x,1/2-z
_cell_length_a                   18.3539(5)
_cell_length_b                   18.3539(5)
_cell_length_c                   9.7736(4)
_cell_angle_alpha                90
_cell_angle_beta                 90
_cell_angle_gamma                120
_cell_volume                     2851.29
loop_
_atom_site_label
_atom_site_type_symbol
_atom_site_fract_x
_atom_site_fract_y
_atom_site_fract_z
C7 C 0.688(5) 0.066(5) 0.374(8)
N1 N 0.709(7) 0.056(8) 0.2500
C7I C 0.688(5) 0.066(5) 0.126(8)
U1 U 0.35708(5) 0.79803(4) 0.2500
O1 O 0.3120(6) 0.7738(6) 0.0087(11)
O2 O 0.3333 0.6667 0.2500
O3 O -0.0650(8) 0.5060(6) -0.3620(10)
O4 O 0.2038(6) 0.6708(6) 0.1160(10)
O5 O 0.2512(9) 0.8439(9) 0.2500
C1 C 0.0663(13) 0.5939(12) -0.2500
C2 C 0.1953(8) 0.6824(8) -0.1270(14)
C3 C 0.2369(11) 0.7139(12) -0.2500
H1 H 0.2930 0.7563 -0.2500
C4 C 0.1111(8) 0.6218(9) -0.1243(14)
H2 H 0.0841 0.5996 -0.0415
C5 C 0.2398(9) 0.7117(9) 0.0064(16)
C6 C -0.0256(12) 0.5326(12) -0.2500
U1_2 U 0.35708(5) 0.79803(4) -0.7500
U1_3 U 0.35708(5) 0.79803(4) 1.2500
U1B U 0.44095(6) 0.64292(5) 0.2500
U1A U 0.20197(4) 0.55905(6) 0.2500
U1D U -0.20197(4) 0.44095(6) -0.2500
U1A_2 U 0.20197(4) 0.55905(6) -0.7500
U1D_2 U -0.20197(4) 0.44095(6) 0.7500
U1A_3 U 0.20197(4) 0.55905(6) 1.2500
U1E U 0.55905(6) 1.35708(5) 0.7500
U1C U 0.64292(5) 1.20197(4) 0.7500
U1E_2 U 0.55905(6) 1.35708(5) -0.2500
U1C_2 U 0.64292(5) 1.20197(4) -0.2500
O1I O 0.3120(6) 0.7738(6) -0.5087(11)
O1I_2 O 0.3120(6) 0.7738(6) 0.4913(11)
O1_2 O 0.3120(6) 0.7738(6) 1.0087(11)
O1E O 0.5382(8) 1.3120(6) 0.5087(11)
O1H O 0.5382(8) 1.3120(6) -0.0087(11)
O1_3 O 0.3120(6) 0.7738(6) -0.9913(11)
O1I_3 O 0.3120(6) 0.7738(6) 1.4913(11)
O2_2 O 0.3333 0.6667 -0.7500
O2_3 O 0.3333 0.6667 1.2500
O3I O -0.0650(8) 0.5060(6) -0.1380(10)
O3I_2 O -0.0650(8) 0.5060(6) 0.8620(10)
O3_2 O -0.0650(8) 0.5060(6) 0.6380(10)
O3E O 0.4290(10) 0.9350(8) 0.1380(10)
O3H O 0.4290(10) 0.9350(8) 0.3620(10)
O3H_2 O 0.4290(10) 0.9350(8) -0.6380(10)
O3E_2 O 0.4290(10) 0.9350(8) -0.8620(10)
O3E_3 O 0.4290(10) 0.9350(8) 1.1380(10)
O3H_3 O 0.4290(10) 0.9350(8) 1.3620(10)
O4I O 0.2038(6) 0.6708(6) -0.6160(10)
O4I_2 O 0.2038(6) 0.6708(6) 0.3840(10)
O4_2 O 0.2038(6) 0.6708(6) 1.1160(10)
O4E O 0.5330(8) 1.2038(6) 0.6160(10)
O4H O 0.5330(8) 1.2038(6) -0.1160(10)
O4B O 0.4670(8) 0.7962(6) 0.1160(10)
O4K O 0.4670(8) 0.7962(6) 0.3840(10)
O4K_2 O 0.4670(8) 0.7962(6) -0.6160(10)
O4B_2 O 0.4670(8) 0.7962(6) -0.8840(10)
O4B_3 O 0.4670(8) 0.7962(6) 1.1160(10)
O4K_3 O 0.4670(8) 0.7962(6) 1.3840(10)
O5_2 O 0.2512(9) 0.8439(9) -0.7500
O5_3 O 0.2512(9) 0.8439(9) 1.2500
C1_2 C 0.0663(13) 0.5939(12) 0.7500
C1E C 0.4724(18) 1.0663(13) 0.2500
C2I C 0.1953(8) 0.6824(8) -0.3730(14)
C2I_2 C 0.1953(8) 0.6824(8) 0.6270(14)
C2_2 C 0.1953(8) 0.6824(8) 0.8730(14)
C2E C 0.5129(11) 1.1953(8) 0.3730(14)
C2H C 0.5129(11) 1.1953(8) 0.1270(14)
C3_2 C 0.2369(11) 0.7139(12) 0.7500
C3E C 0.5230(16) 1.2369(11) 0.2500
H1_2 H 0.2930 0.7563 0.7500
H1E H 0.5367 1.2930 0.2500
C4I C 0.1111(8) 0.6218(9) -0.3757(14)
C4I_2 C 0.1111(8) 0.6218(9) 0.6243(14)
C4_2 C 0.1111(8) 0.6218(9) 0.8757(14)
C4E C 0.4893(12) 1.1111(8) 0.3757(14)
C4H C 0.4893(12) 1.1111(8) 0.1243(14)
H2I H 0.0841 0.5996 -0.4585
H2I_2 H 0.0841 0.5996 0.5415
H2_2 H 0.0841 0.5996 0.9585
H2E H 0.4845 1.0841 0.4585
H2H H 0.4845 1.0841 0.0415
C5I C 0.2398(9) 0.7117(9) -0.5064(16)
C5I_2 C 0.2398(9) 0.7117(9) 0.4936(16)
C5_2 C 0.2398(9) 0.7117(9) 1.0064(16)
C5E C 0.5281(13) 1.2398(9) 0.5064(16)
C5H C 0.5281(13) 1.2398(9) -0.0064(16)
C6_2 C -0.0256(12) 0.5326(12) 0.7500
C6E C 0.4418(17) 0.9744(12) 0.2500
loop_
_geom_bond_atom_site_label_1
_geom_bond_atom_site_label_2
_geom_bond_site_symmetry_1
_geom_bond_site_symmetry_2
U1 O1 1_555 1_555
O1 C5 1_555 1_555
O2 U1 1_555 1_555
O3 C6 1_555 1_555
O4 C5 1_555 1_555
O5 U1 1_555 1_555
C1 C4 1_555 1_555
C2 C3 1_555 1_555
C3 H1 1_555 1_555
C4 C2 1_555 1_555
H2 C4 1_555 1_555
C5 C2 1_555 1_555
C6 C1 1_555 1_555
C7 N1 1_555 1_555
N1 C7I 1_555 1_555
U1_2 O1I 1_555 1_555
U1_3 O1_2 1_555 1_555
U1B O2 1_555 1_555
U1A O2 1_555 1_555
U1D O3 1_555 1_555
U1A_2 O2_2 1_555 1_555
U1D_2 O3I_2 1_555 1_555
U1A_3 O2_3 1_555 1_555
U1E O1E 1_555 1_555
U1C O4E 1_555 1_555
U1E_2 O1H 1_555 1_555
U1C_2 O4H 1_555 1_555
O1I C5I 1_555 1_555
O1I_2 U1 1_555 1_555
O1_2 C5_2 1_555 1_555
O1E C5E 1_555 1_555
O1H C5H 1_555 1_555
O1_3 U1_2 1_555 1_555
O1I_3 U1_3 1_555 1_555
O2_2 U1_2 1_555 1_555
O2_3 U1_3 1_555 1_555
O3I C6 1_555 1_555
O3I_2 C6_2 1_555 1_555
O3_2 U1D_2 1_555 1_555
O3E U1 1_555 1_555
O3H U1 1_555 1_555
O3H_2 U1_2 1_555 1_555
O3E_2 U1_2 1_555 1_555
O3E_3 U1_3 1_555 1_555
O3H_3 U1_3 1_555 1_555
O4I U1A_2 1_555 1_555
O4I_2 U1A 1_555 1_555
O4_2 U1A_3 1_555 1_555
O4E C5E 1_555 1_555
O4H C5H 1_555 1_555
O4B U1 1_555 1_555
O4K U1 1_555 1_555
O4K_2 U1_2 1_555 1_555
O4B_2 U1_2 1_555 1_555
O4B_3 U1_3 1_555 1_555
O4K_3 U1_3 1_555 1_555
O5_2 U1_2 1_555 1_555
O5_3 U1_3 1_555 1_555
C1_2 C4I_2 1_555 1_555
C1E C4E 1_555 1_555
C2I C3 1_555 1_555
C2I_2 C3_2 1_555 1_555
C2_2 C3_2 1_555 1_555
C2E C3E 1_555 1_555
C2H C3E 1_555 1_555
C3_2 H1_2 1_555 1_555
C3E H1E 1_555 1_555
C4I C1 1_555 1_555
C4I_2 C2I_2 1_555 1_555
C4_2 C1_2 1_555 1_555
C4E C2E 1_555 1_555
C4H C1E 1_555 1_555
H2I C4I 1_555 1_555
H2I_2 C4I_2 1_555 1_555
H2_2 C4_2 1_555 1_555
H2E C4E 1_555 1_555
H2H C4H 1_555 1_555
C5I O4I 1_555 1_555
C5I_2 O1I_2 1_555 1_555
C5_2 O4_2 1_555 1_555
C5E C2E 1_555 1_555
C5H C2H 1_555 1_555
C6_2 O3_2 1_555 1_555
C6E O3E 1_555 1_555
O4 U1A 1_555 1_555
U1D O3I 1_555 1_555
O3H C6E 1_555 1_555
O4I_2 C5I_2 1_555 1_555
C1_2 C6_2 1_555 1_555
C1E C6E 1_555 1_555
C2I C4I 1_555 1_555
C2I C5I 1_555 1_555
C2I_2 C5I_2 1_555 1_555
C2_2 C4_2 1_555 1_555
C2_2 C5_2 1_555 1_555
C2H C4H 1_555 1_555

#END
