
#######################################################################
#
#                 Cambridge Crystallographic Data Centre
#                                CCDC 
#
#######################################################################
#
# If this CIF has been generated from an entry in the Cambridge 
# Structural Database, then it will include bibliographic, chemical, 
# crystal, experimental, refinement or atomic coordinate data resulting 
# from the CCDC's data processing and validation procedures.
#
#######################################################################

data_DAWMUL
_chemical_formula_moiety         'C288 H144 Cu36 O72'
_symmetry_cell_setting           cubic
_symmetry_space_group_name_H-M   'F m 3 m'
_symmetry_Int_Tables_number      225
_space_group_name_Hall           '-F 4 2 3'
loop_
_symmetry_equiv_pos_site_id
_symmetry_equiv_pos_as_xyz
1 x,y,z
2 -y,x,z
3 -x,-y,z
4 y,-x,z
5 x,-z,y
6 x,-y,-z
7 x,z,-y
8 z,y,-x
9 -x,y,-z
10 -z,y,x
11 z,x,y
12 y,z,x
13 -y,-z,x
14 z,-x,-y
15 -y,z,-x
16 -z,-x,y
17 -z,x,-y
18 y,-z,-x
19 y,x,-z
20 -y,-x,-z
21 -x,z,y
22 -x,-z,-y
23 z,-y,x
24 -z,-y,-x
25 x,1/2+y,1/2+z
26 -y,1/2+x,1/2+z
27 -x,1/2-y,1/2+z
28 y,1/2-x,1/2+z
29 x,1/2-z,1/2+y
30 x,1/2-y,1/2-z
31 x,1/2+z,1/2-y
32 z,1/2+y,1/2-x
33 -x,1/2+y,1/2-z
34 -z,1/2+y,1/2+x
35 z,1/2+x,1/2+y
36 y,1/2+z,1/2+x
37 -y,1/2-z,1/2+x
38 z,1/2-x,1/2-y
39 -y,1/2+z,1/2-x
40 -z,1/2-x,1/2+y
41 -z,1/2+x,1/2-y
42 y,1/2-z,1/2-x
43 y,1/2+x,1/2-z
44 -y,1/2-x,1/2-z
45 -x,1/2+z,1/2+y
46 -x,1/2-z,1/2-y
47 z,1/2-y,1/2+x
48 -z,1/2-y,1/2-x
49 1/2+x,y,1/2+z
50 1/2-y,x,1/2+z
51 1/2-x,-y,1/2+z
52 1/2+y,-x,1/2+z
53 1/2+x,-z,1/2+y
54 1/2+x,-y,1/2-z
55 1/2+x,z,1/2-y
56 1/2+z,y,1/2-x
57 1/2-x,y,1/2-z
58 1/2-z,y,1/2+x
59 1/2+z,x,1/2+y
60 1/2+y,z,1/2+x
61 1/2-y,-z,1/2+x
62 1/2+z,-x,1/2-y
63 1/2-y,z,1/2-x
64 1/2-z,-x,1/2+y
65 1/2-z,x,1/2-y
66 1/2+y,-z,1/2-x
67 1/2+y,x,1/2-z
68 1/2-y,-x,1/2-z
69 1/2-x,z,1/2+y
70 1/2-x,-z,1/2-y
71 1/2+z,-y,1/2+x
72 1/2-z,-y,1/2-x
73 1/2+x,1/2+y,z
74 1/2-y,1/2+x,z
75 1/2-x,1/2-y,z
76 1/2+y,1/2-x,z
77 1/2+x,1/2-z,y
78 1/2+x,1/2-y,-z
79 1/2+x,1/2+z,-y
80 1/2+z,1/2+y,-x
81 1/2-x,1/2+y,-z
82 1/2-z,1/2+y,x
83 1/2+z,1/2+x,y
84 1/2+y,1/2+z,x
85 1/2-y,1/2-z,x
86 1/2+z,1/2-x,-y
87 1/2-y,1/2+z,-x
88 1/2-z,1/2-x,y
89 1/2-z,1/2+x,-y
90 1/2+y,1/2-z,-x
91 1/2+y,1/2+x,-z
92 1/2-y,1/2-x,-z
93 1/2-x,1/2+z,y
94 1/2-x,1/2-z,-y
95 1/2+z,1/2-y,x
96 1/2-z,1/2-y,-x
97 -x,-y,-z
98 y,-x,-z
99 x,y,-z
100 -y,x,-z
101 -x,z,-y
102 -x,y,z
103 -x,-z,y
104 -z,-y,x
105 x,-y,z
106 z,-y,-x
107 -z,-x,-y
108 -y,-z,-x
109 y,z,-x
110 -z,x,y
111 y,-z,x
112 z,x,-y
113 z,-x,y
114 -y,z,x
115 -y,-x,z
116 y,x,z
117 x,-z,-y
118 x,z,y
119 -z,y,-x
120 z,y,x
121 -x,1/2-y,1/2-z
122 y,1/2-x,1/2-z
123 x,1/2+y,1/2-z
124 -y,1/2+x,1/2-z
125 -x,1/2+z,1/2-y
126 -x,1/2+y,1/2+z
127 -x,1/2-z,1/2+y
128 -z,1/2-y,1/2+x
129 x,1/2-y,1/2+z
130 z,1/2-y,1/2-x
131 -z,1/2-x,1/2-y
132 -y,1/2-z,1/2-x
133 y,1/2+z,1/2-x
134 -z,1/2+x,1/2+y
135 y,1/2-z,1/2+x
136 z,1/2+x,1/2-y
137 z,1/2-x,1/2+y
138 -y,1/2+z,1/2+x
139 -y,1/2-x,1/2+z
140 y,1/2+x,1/2+z
141 x,1/2-z,1/2-y
142 x,1/2+z,1/2+y
143 -z,1/2+y,1/2-x
144 z,1/2+y,1/2+x
145 1/2-x,-y,1/2-z
146 1/2+y,-x,1/2-z
147 1/2+x,y,1/2-z
148 1/2-y,x,1/2-z
149 1/2-x,z,1/2-y
150 1/2-x,y,1/2+z
151 1/2-x,-z,1/2+y
152 1/2-z,-y,1/2+x
153 1/2+x,-y,1/2+z
154 1/2+z,-y,1/2-x
155 1/2-z,-x,1/2-y
156 1/2-y,-z,1/2-x
157 1/2+y,z,1/2-x
158 1/2-z,x,1/2+y
159 1/2+y,-z,1/2+x
160 1/2+z,x,1/2-y
161 1/2+z,-x,1/2+y
162 1/2-y,z,1/2+x
163 1/2-y,-x,1/2+z
164 1/2+y,x,1/2+z
165 1/2+x,-z,1/2-y
166 1/2+x,z,1/2+y
167 1/2-z,y,1/2-x
168 1/2+z,y,1/2+x
169 1/2-x,1/2-y,-z
170 1/2+y,1/2-x,-z
171 1/2+x,1/2+y,-z
172 1/2-y,1/2+x,-z
173 1/2-x,1/2+z,-y
174 1/2-x,1/2+y,z
175 1/2-x,1/2-z,y
176 1/2-z,1/2-y,x
177 1/2+x,1/2-y,z
178 1/2+z,1/2-y,-x
179 1/2-z,1/2-x,-y
180 1/2-y,1/2-z,-x
181 1/2+y,1/2+z,-x
182 1/2-z,1/2+x,y
183 1/2+y,1/2-z,x
184 1/2+z,1/2+x,-y
185 1/2+z,1/2-x,y
186 1/2-y,1/2+z,x
187 1/2-y,1/2-x,z
188 1/2+y,1/2+x,z
189 1/2+x,1/2-z,-y
190 1/2+x,1/2+z,y
191 1/2-z,1/2+y,-x
192 1/2+z,1/2+y,x
_cell_length_a                   63.515(5)
_cell_length_b                   63.515(5)
_cell_length_c                   63.515(5)
_cell_angle_alpha                90
_cell_angle_beta                 90
_cell_angle_gamma                90
_cell_volume                     256229
loop_
_atom_site_label
_atom_site_type_symbol
_atom_site_fract_x
_atom_site_fract_y
_atom_site_fract_z
_atom_site_U_iso_or_equiv
_atom_site_thermal_displace_type
Cu1 Cu 0.69990(3) 0.30010(3) 0.5000 0.1357 Uani
Cu2 Cu 0.67093(3) 0.32907(3) 0.5000 0.1443 Uani
O1 O 0.68265(9) 0.28745(8) 0.47878(7) 0.1707 Uani
O2 O 0.65867(10) 0.31382(11) 0.47940(10) 0.1747 Uani
C1 C 0.6542(2) 0.2828(2) 0.4535(2) 0.1763 Uani
C2 C 0.6358(2) 0.29013(19) 0.44871(18) 0.2397 Uani
H1 H 0.6307 0.3025 0.4549 0.2870 Uiso
C3 C 0.66243(18) 0.26574(19) 0.44641(18) 0.2133 Uani
H2 H 0.6753 0.2605 0.4514 0.2560 Uiso
C4 C 0.62457(18) 0.2796(2) 0.4348(2) 0.2373 Uani
H3 H 0.6109 0.2848 0.4323 0.2850 Uiso
C5 C 0.65035(19) 0.25495(17) 0.42988(17) 0.2133 Uani
H4 H 0.6562 0.2430 0.4233 0.2560 Uiso
C6 C 0.6303(2) 0.2620(2) 0.4236(2) 0.2070 Uani
C7 C 0.62103(18) 0.2489(2) 0.40587(19) 0.2087 Uani
C8 C 0.66520(19) 0.2956(2) 0.47125(18) 0.1437 Uani
C9 C 0.62801(19) 0.22832(16) 0.40028(17) 0.2347 Uani
H5 H 0.6393 0.2217 0.4072 0.2820 Uiso
C10 C 0.6166(2) 0.2184(3) 0.3834(2) 0.2533 Uani
C11 C 0.60276(14) 0.2603(2) 0.39724(14) 0.2203 Uani
H6 H 0.5974 0.2730 0.4026 0.2640 Uiso
C12 C 0.6239(2) 0.1998(3) 0.3761(2) 0.2780 Uani
C13 C 0.63023(19) 0.1863(3) 0.36977(19) 0.2890 Uani
C14 C 0.63765(19) 0.1641(3) 0.36235(19) 0.2927 Uani
C15 C 0.6284(3) 0.15362(17) 0.34638(17) 0.2823 Uani
H7 H 0.6148 0.1577 0.3423 0.3390 Uiso
Cu1G Cu 0.5000 0.30010(3) 0.30010(3) 0.1357 Uani
Cu1NA Cu 0.5000 0.19990(3) 0.19990(3) 0.1357 Uani
Cu1DA Cu 0.69990(3) -0.0000 0.19990(3) 0.1357 Uani
Cu1KC Cu 0.80010(3) -0.0000 0.30010(3) 0.1357 Uani
Cu1VB Cu 0.80010(3) 0.19990(3) 0.5000 0.1357 Uani
Cu1F Cu 0.69990(3) 0.5000 0.69990(3) 0.1357 Uani
Cu1MB Cu 0.80010(3) 0.5000 0.80010(3) 0.1357 Uani
Cu1CB Cu 1.0000 0.30010(3) 0.80010(3) 0.1357 Uani
Cu1JC Cu 1.0000 0.19990(3) 0.69990(3) 0.1357 Uani
Cu1I Cu 0.5000 0.30010(3) 0.69990(3) 0.1357 Uani
Cu1HA Cu 0.5000 0.19990(3) 0.80010(3) 0.1357 Uani
Cu1BA Cu 0.69990(3) -0.0000 0.80010(3) 0.1357 Uani
Cu1EC Cu 0.80010(3) -0.0000 0.69990(3) 0.1357 Uani
Cu1D Cu 0.69990(3) 0.5000 0.30010(3) 0.1357 Uani
Cu1GB Cu 0.80010(3) 0.5000 0.19990(3) 0.1357 Uani
Cu1EB Cu 1.0000 0.30010(3) 0.19990(3) 0.1357 Uani
Cu1DC Cu 1.0000 0.19990(3) 0.30010(3) 0.1357 Uani
Cu2G Cu 0.5000 0.32907(3) 0.32907(3) 0.1443 Uani
Cu2NA Cu 0.5000 0.17093(3) 0.17093(3) 0.1443 Uani
Cu2DA Cu 0.67093(3) -0.0000 0.17093(3) 0.1443 Uani
Cu2KC Cu 0.82907(3) -0.0000 0.32907(3) 0.1443 Uani
Cu2VB Cu 0.82907(3) 0.17093(3) 0.5000 0.1443 Uani
Cu2F Cu 0.67093(3) 0.5000 0.67093(3) 0.1443 Uani
Cu2MB Cu 0.82907(3) 0.5000 0.82907(3) 0.1443 Uani
Cu2CB Cu 1.0000 0.32907(3) 0.82907(3) 0.1443 Uani
Cu2JC Cu 1.0000 0.17093(3) 0.67093(3) 0.1443 Uani
Cu2I Cu 0.5000 0.32907(3) 0.67093(3) 0.1443 Uani
Cu2HA Cu 0.5000 0.17093(3) 0.82907(3) 0.1443 Uani
Cu2BA Cu 0.67093(3) 0.0000 0.82907(3) 0.1443 Uani
Cu2EC Cu 0.82907(3) -0.0000 0.67093(3) 0.1443 Uani
Cu2D Cu 0.67093(3) 0.5000 0.32907(3) 0.1443 Uani
Cu2GB Cu 0.82907(3) 0.5000 0.17093(3) 0.1443 Uani
Cu2EB Cu 1.0000 0.32907(3) 0.17093(3) 0.1443 Uani
Cu2DC Cu 1.0000 0.17093(3) 0.32907(3) 0.1443 Uani
O1ND O 0.52122(7) 0.28745(8) 0.31735(9) 0.1707 Uani
O1NA O 0.52122(7) 0.18265(9) 0.21255(8) 0.1707 Uani
O1JE O 0.68265(9) 0.02122(7) 0.21255(8) 0.1707 Uani
O1KC O 0.78745(8) 0.02122(7) 0.31735(9) 0.1707 Uani
O1EG O 0.78745(8) 0.18265(9) 0.47878(7) 0.1707 Uani
O1S O 0.71255(8) 0.31735(9) 0.52122(7) 0.1707 Uani
O1ID O 0.71255(8) 0.47878(7) 0.68265(9) 0.1707 Uani
O1PB O 0.81735(9) 0.47878(7) 0.78745(8) 0.1707 Uani
O1DF O 0.97878(7) 0.31735(9) 0.78745(8) 0.1707 Uani
O1PC O 0.97878(7) 0.21255(8) 0.68265(9) 0.1707 Uani
O1LF O 0.81735(9) 0.21255(8) 0.52122(7) 0.1707 Uani
O1TC O 0.68265(9) 0.28745(8) 0.52122(7) 0.1707 Uani
O1I O 0.52122(7) 0.28745(8) 0.68265(9) 0.1707 Uani
O1CE O 0.52122(7) 0.18265(9) 0.78745(8) 0.1707 Uani
O1BA O 0.68265(9) 0.02122(7) 0.78745(8) 0.1707 Uani
O1ZF O 0.78745(8) 0.02122(7) 0.68265(9) 0.1707 Uani
O1LC O 0.78745(8) 0.18265(9) 0.52122(7) 0.1707 Uani
O1JD O 0.71255(8) 0.31735(9) 0.47878(7) 0.1707 Uani
O1N O 0.71255(8) 0.47878(7) 0.31735(9) 0.1707 Uani
O1RE O 0.81735(9) 0.47878(7) 0.21255(8) 0.1707 Uani
O1IB O 0.97878(7) 0.31735(9) 0.21255(8) 0.1707 Uani
O1UF O 0.97878(7) 0.21255(8) 0.31735(9) 0.1707 Uani
O1VB O 0.81735(9) 0.21255(8) 0.47878(7) 0.1707 Uani
O1HD O 0.47878(7) 0.31735(9) 0.28745(8) 0.1707 Uani
O1G O 0.47878(7) 0.28745(8) 0.31735(9) 0.1707 Uani
O1O O 0.52122(7) 0.31735(9) 0.28745(8) 0.1707 Uani
O1TA O 0.47878(7) 0.21255(8) 0.18265(9) 0.1707 Uani
O1EE O 0.47878(7) 0.18265(9) 0.21255(8) 0.1707 Uani
O1WD O 0.52122(7) 0.21255(8) 0.18265(9) 0.1707 Uani
O1GE O 0.71255(8) -0.02122(7) 0.18265(9) 0.1707 Uani
O1DA O 0.68265(9) -0.02122(7) 0.21255(8) 0.1707 Uani
O1JA O 0.71255(8) 0.02122(7) 0.18265(9) 0.1707 Uani
O1NC O 0.81735(9) -0.02122(7) 0.28745(8) 0.1707 Uani
O1XF O 0.78745(8) -0.02122(7) 0.31735(9) 0.1707 Uani
O1RF O 0.81735(9) 0.02122(7) 0.28745(8) 0.1707 Uani
O2ND O 0.52060(10) 0.31382(11) 0.34133(10) 0.1747 Uani
O2NA O 0.52060(10) 0.15867(10) 0.18618(11) 0.1747 Uani
O2JE O 0.65867(10) 0.02060(10) 0.18618(11) 0.1747 Uani
O2KC O 0.81382(11) 0.02060(10) 0.34133(10) 0.1747 Uani
O2EG O 0.81382(11) 0.15867(10) 0.47940(10) 0.1747 Uani
O2S O 0.68618(11) 0.34133(10) 0.52060(10) 0.1747 Uani
O2ID O 0.68618(11) 0.47940(10) 0.65867(10) 0.1747 Uani
O2PB O 0.84133(10) 0.47940(10) 0.81382(11) 0.1747 Uani
O2DF O 0.97940(10) 0.34133(10) 0.81382(11) 0.1747 Uani
O2PC O 0.97940(10) 0.18618(11) 0.65867(10) 0.1747 Uani
O2LF O 0.84133(10) 0.18618(11) 0.52060(10) 0.1747 Uani
O2TC O 0.65867(10) 0.31382(11) 0.52060(10) 0.1747 Uani
O2I O 0.52060(10) 0.31382(11) 0.65867(10) 0.1747 Uani
O2CE O 0.52060(10) 0.15867(10) 0.81382(11) 0.1747 Uani
O2BA O 0.65867(10) 0.02060(10) 0.81382(11) 0.1747 Uani
O2ZF O 0.81382(11) 0.02060(10) 0.65867(10) 0.1747 Uani
O2LC O 0.81382(11) 0.15867(10) 0.52060(10) 0.1747 Uani
O2JD O 0.68618(11) 0.34133(10) 0.47940(10) 0.1747 Uani
O2N O 0.68618(11) 0.47940(10) 0.34133(10) 0.1747 Uani
O2RE O 0.84133(10) 0.47940(10) 0.18618(11) 0.1747 Uani
O2IB O 0.97940(10) 0.34133(10) 0.18618(11) 0.1747 Uani
O2UF O 0.97940(10) 0.18618(11) 0.34133(10) 0.1747 Uani
O2VB O 0.84133(10) 0.18618(11) 0.47940(10) 0.1747 Uani
O2HD O 0.47940(10) 0.34133(10) 0.31382(11) 0.1747 Uani
O2G O 0.47940(10) 0.31382(11) 0.34133(10) 0.1747 Uani
O2O O 0.52060(10) 0.34133(10) 0.31382(11) 0.1747 Uani
O2TA O 0.47940(10) 0.18618(11) 0.15867(10) 0.1747 Uani
O2EE O 0.47940(10) 0.15867(10) 0.18618(11) 0.1747 Uani
O2WD O 0.52060(10) 0.18618(11) 0.15867(10) 0.1747 Uani
O2GE O 0.68618(11) -0.02060(10) 0.15867(10) 0.1747 Uani
O2DA O 0.65867(10) -0.02060(10) 0.18618(11) 0.1747 Uani
O2JA O 0.68618(11) 0.02060(10) 0.15867(10) 0.1747 Uani
O2NC O 0.84133(10) -0.02060(10) 0.31382(11) 0.1747 Uani
O2XF O 0.81382(11) -0.02060(10) 0.34133(10) 0.1747 Uani
O2RF O 0.84133(10) 0.02060(10) 0.31382(11) 0.1747 Uani
C1ND C 0.5465(2) 0.2828(2) 0.3458(2) 0.1763 Uani
C1NA C 0.5465(2) 0.1542(2) 0.2172(2) 0.1763 Uani
C1JE C 0.6542(2) 0.0465(2) 0.2172(2) 0.1763 Uani
C1KC C 0.7828(2) 0.0465(2) 0.3458(2) 0.1763 Uani
C1EG C 0.7828(2) 0.1542(2) 0.4535(2) 0.1763 Uani
C1S C 0.7172(2) 0.3458(2) 0.5465(2) 0.1763 Uani
C1ID C 0.7172(2) 0.4535(2) 0.6542(2) 0.1763 Uani
C1PB C 0.8458(2) 0.4535(2) 0.7828(2) 0.1763 Uani
C1DF C 0.9535(2) 0.3458(2) 0.7828(2) 0.1763 Uani
C1PC C 0.9535(2) 0.2172(2) 0.6542(2) 0.1763 Uani
C1LF C 0.8458(2) 0.2172(2) 0.5465(2) 0.1763 Uani
C1TC C 0.6542(2) 0.2828(2) 0.5465(2) 0.1763 Uani
C1I C 0.5465(2) 0.2828(2) 0.6542(2) 0.1763 Uani
C1CE C 0.5465(2) 0.1542(2) 0.7828(2) 0.1763 Uani
C1BA C 0.6542(2) 0.0465(2) 0.7828(2) 0.1763 Uani
C1ZF C 0.7828(2) 0.0465(2) 0.6542(2) 0.1763 Uani
C1LC C 0.7828(2) 0.1542(2) 0.5465(2) 0.1763 Uani
C1JD C 0.7172(2) 0.3458(2) 0.4535(2) 0.1763 Uani
C1N C 0.7172(2) 0.4535(2) 0.3458(2) 0.1763 Uani
C1RE C 0.8458(2) 0.4535(2) 0.2172(2) 0.1763 Uani
C1IB C 0.9535(2) 0.3458(2) 0.2172(2) 0.1763 Uani
C1UF C 0.9535(2) 0.2172(2) 0.3458(2) 0.1763 Uani
C1VB C 0.8458(2) 0.2172(2) 0.4535(2) 0.1763 Uani
C2ND C 0.55129(18) 0.29013(19) 0.3642(2) 0.2397 Uani
C2NA C 0.55129(18) 0.1358(2) 0.20987(19) 0.2397 Uani
C2JE C 0.6358(2) 0.05129(18) 0.20987(19) 0.2397 Uani
C2KC C 0.79013(19) 0.05129(18) 0.3642(2) 0.2397 Uani
C2EG C 0.79013(19) 0.1358(2) 0.44871(18) 0.2397 Uani
C2S C 0.70987(19) 0.3642(2) 0.55129(18) 0.2397 Uani
C2ID C 0.70987(19) 0.44871(18) 0.6358(2) 0.2397 Uani
C2PB C 0.8642(2) 0.44871(18) 0.79013(19) 0.2397 Uani
C2DF C 0.94871(18) 0.3642(2) 0.79013(19) 0.2397 Uani
C2PC C 0.94871(18) 0.20987(19) 0.6358(2) 0.2397 Uani
C2LF C 0.8642(2) 0.20987(19) 0.55129(18) 0.2397 Uani
C2TC C 0.6358(2) 0.29013(19) 0.55129(18) 0.2397 Uani
C2I C 0.55129(18) 0.29013(19) 0.6358(2) 0.2397 Uani
C2CE C 0.55129(18) 0.1358(2) 0.79013(19) 0.2397 Uani
C2BA C 0.6358(2) 0.05129(18) 0.79013(19) 0.2397 Uani
C2ZF C 0.79013(19) 0.05129(18) 0.6358(2) 0.2397 Uani
C2LC C 0.79013(19) 0.1358(2) 0.55129(18) 0.2397 Uani
C2JD C 0.70987(19) 0.3642(2) 0.44871(18) 0.2397 Uani
C2N C 0.70987(19) 0.44871(18) 0.3642(2) 0.2397 Uani
C2RE C 0.8642(2) 0.44871(18) 0.20987(19) 0.2397 Uani
C2IB C 0.94871(18) 0.3642(2) 0.20987(19) 0.2397 Uani
C2UF C 0.94871(18) 0.20987(19) 0.3642(2) 0.2397 Uani
C2VB C 0.8642(2) 0.20987(19) 0.44871(18) 0.2397 Uani
H1ND H 0.5451 0.3025 0.3693 0.2870 Uiso
H1NA H 0.5451 0.1307 0.1975 0.2870 Uiso
H1JE H 0.6307 0.0451 0.1975 0.2870 Uiso
H1KC H 0.8025 0.0451 0.3693 0.2870 Uiso
H1EG H 0.8025 0.1307 0.4549 0.2870 Uiso
H1S H 0.6975 0.3693 0.5451 0.2870 Uiso
H1ID H 0.6975 0.4549 0.6307 0.2870 Uiso
H1PB H 0.8693 0.4549 0.8025 0.2870 Uiso
H1DF H 0.9549 0.3693 0.8025 0.2870 Uiso
H1PC H 0.9549 0.1975 0.6307 0.2870 Uiso
H1LF H 0.8693 0.1975 0.5451 0.2870 Uiso
H1TC H 0.6307 0.3025 0.5451 0.2870 Uiso
H1I H 0.5451 0.3025 0.6307 0.2870 Uiso
H1CE H 0.5451 0.1307 0.8025 0.2870 Uiso
H1BA H 0.6307 0.0451 0.8025 0.2870 Uiso
H1ZF H 0.8025 0.0451 0.6307 0.2870 Uiso
H1LC H 0.8025 0.1307 0.5451 0.2870 Uiso
H1JD H 0.6975 0.3693 0.4549 0.2870 Uiso
H1N H 0.6975 0.4549 0.3693 0.2870 Uiso
H1RE H 0.8693 0.4549 0.1975 0.2870 Uiso
H1IB H 0.9549 0.3693 0.1975 0.2870 Uiso
H1UF H 0.9549 0.1975 0.3693 0.2870 Uiso
H1VB H 0.8693 0.1975 0.4549 0.2870 Uiso
C3ND C 0.55359(18) 0.26574(19) 0.33757(18) 0.2133 Uani
C3NA C 0.55359(18) 0.16243(18) 0.23426(19) 0.2133 Uani
C3JE C 0.66243(18) 0.05359(18) 0.23426(19) 0.2133 Uani
C3KC C 0.76574(19) 0.05359(18) 0.33757(18) 0.2133 Uani
C3EG C 0.76574(19) 0.16243(18) 0.44641(18) 0.2133 Uani
C3S C 0.73426(19) 0.33757(18) 0.55359(18) 0.2133 Uani
C3ID C 0.73426(19) 0.44641(18) 0.66243(18) 0.2133 Uani
C3PB C 0.83757(18) 0.44641(18) 0.76574(19) 0.2133 Uani
C3DF C 0.94641(18) 0.33757(18) 0.76574(19) 0.2133 Uani
C3PC C 0.94641(18) 0.23426(19) 0.66243(18) 0.2133 Uani
C3LF C 0.83757(18) 0.23426(19) 0.55359(18) 0.2133 Uani
C3TC C 0.66243(18) 0.26574(19) 0.55359(18) 0.2133 Uani
C3I C 0.55359(18) 0.26574(19) 0.66243(18) 0.2133 Uani
C3CE C 0.55359(18) 0.16243(18) 0.76574(19) 0.2133 Uani
C3BA C 0.66243(18) 0.05359(18) 0.76574(19) 0.2133 Uani
C3ZF C 0.76574(19) 0.05359(18) 0.66243(18) 0.2133 Uani
C3LC C 0.76574(19) 0.16243(18) 0.55359(18) 0.2133 Uani
C3JD C 0.73426(19) 0.33757(18) 0.44641(18) 0.2133 Uani
C3N C 0.73426(19) 0.44641(18) 0.33757(18) 0.2133 Uani
C3RE C 0.83757(18) 0.44641(18) 0.23426(19) 0.2133 Uani
C3IB C 0.94641(18) 0.33757(18) 0.23426(19) 0.2133 Uani
C3UF C 0.94641(18) 0.23426(19) 0.33757(18) 0.2133 Uani
C3VB C 0.83757(18) 0.23426(19) 0.44641(18) 0.2133 Uani
H2ND H 0.5486 0.2605 0.3247 0.2560 Uiso
H2NA H 0.5486 0.1753 0.2395 0.2560 Uiso
H2JE H 0.6753 0.0486 0.2395 0.2560 Uiso
H2KC H 0.7605 0.0486 0.3247 0.2560 Uiso
H2EG H 0.7605 0.1753 0.4514 0.2560 Uiso
H2S H 0.7395 0.3247 0.5486 0.2560 Uiso
H2ID H 0.7395 0.4514 0.6753 0.2560 Uiso
H2PB H 0.8247 0.4514 0.7605 0.2560 Uiso
H2DF H 0.9514 0.3247 0.7605 0.2560 Uiso
H2PC H 0.9514 0.2395 0.6753 0.2560 Uiso
H2LF H 0.8247 0.2395 0.5486 0.2560 Uiso
H2TC H 0.6753 0.2605 0.5486 0.2560 Uiso
H2I H 0.5486 0.2605 0.6753 0.2560 Uiso
H2CE H 0.5486 0.1753 0.7605 0.2560 Uiso
H2BA H 0.6753 0.0486 0.7605 0.2560 Uiso
H2ZF H 0.7605 0.0486 0.6753 0.2560 Uiso
H2LC H 0.7605 0.1753 0.5486 0.2560 Uiso
H2JD H 0.7395 0.3247 0.4514 0.2560 Uiso
H2N H 0.7395 0.4514 0.3247 0.2560 Uiso
H2RE H 0.8247 0.4514 0.2395 0.2560 Uiso
H2IB H 0.9514 0.3247 0.2395 0.2560 Uiso
H2UF H 0.9514 0.2395 0.3247 0.2560 Uiso
H2VB H 0.8247 0.2395 0.4514 0.2560 Uiso
C4ND C 0.5652(2) 0.2796(2) 0.37543(18) 0.2373 Uani
C4NA C 0.5652(2) 0.12457(18) 0.2204(2) 0.2373 Uani
C4JE C 0.62457(18) 0.0652(2) 0.2204(2) 0.2373 Uani
C4KC C 0.7796(2) 0.0652(2) 0.37543(18) 0.2373 Uani
C4EG C 0.7796(2) 0.12457(18) 0.4348(2) 0.2373 Uani
C4S C 0.7204(2) 0.37543(18) 0.5652(2) 0.2373 Uani
C4ID C 0.7204(2) 0.4348(2) 0.62457(18) 0.2373 Uani
C4PB C 0.87543(18) 0.4348(2) 0.7796(2) 0.2373 Uani
C4DF C 0.9348(2) 0.37543(18) 0.7796(2) 0.2373 Uani
C4PC C 0.9348(2) 0.2204(2) 0.62457(18) 0.2373 Uani
C4LF C 0.87543(18) 0.2204(2) 0.5652(2) 0.2373 Uani
C4TC C 0.62457(18) 0.2796(2) 0.5652(2) 0.2373 Uani
C4I C 0.5652(2) 0.2796(2) 0.62457(18) 0.2373 Uani
C4CE C 0.5652(2) 0.12457(18) 0.7796(2) 0.2373 Uani
C4BA C 0.62457(18) 0.0652(2) 0.7796(2) 0.2373 Uani
C4ZF C 0.7796(2) 0.0652(2) 0.62457(18) 0.2373 Uani
C4LC C 0.7796(2) 0.12457(18) 0.5652(2) 0.2373 Uani
C4JD C 0.7204(2) 0.37543(18) 0.4348(2) 0.2373 Uani
C4N C 0.7204(2) 0.4348(2) 0.37543(18) 0.2373 Uani
C4RE C 0.87543(18) 0.4348(2) 0.2204(2) 0.2373 Uani
C4IB C 0.9348(2) 0.37543(18) 0.2204(2) 0.2373 Uani
C4UF C 0.9348(2) 0.2204(2) 0.37543(18) 0.2373 Uani
C4VB C 0.87543(18) 0.2204(2) 0.4348(2) 0.2373 Uani
H3ND H 0.5677 0.2848 0.3891 0.2850 Uiso
H3NA H 0.5677 0.1109 0.2152 0.2850 Uiso
H3JE H 0.6109 0.0677 0.2152 0.2850 Uiso
H3KC H 0.7848 0.0677 0.3891 0.2850 Uiso
H3EG H 0.7848 0.1109 0.4323 0.2850 Uiso
H3S H 0.7152 0.3891 0.5677 0.2850 Uiso
H3ID H 0.7152 0.4323 0.6109 0.2850 Uiso
H3PB H 0.8891 0.4323 0.7848 0.2850 Uiso
H3DF H 0.9323 0.3891 0.7848 0.2850 Uiso
H3PC H 0.9323 0.2152 0.6109 0.2850 Uiso
H3LF H 0.8891 0.2152 0.5677 0.2850 Uiso
H3TC H 0.6109 0.2848 0.5677 0.2850 Uiso
H3I H 0.5677 0.2848 0.6109 0.2850 Uiso
H3CE H 0.5677 0.1109 0.7848 0.2850 Uiso
H3BA H 0.6109 0.0677 0.7848 0.2850 Uiso
H3ZF H 0.7848 0.0677 0.6109 0.2850 Uiso
H3LC H 0.7848 0.1109 0.5677 0.2850 Uiso
H3JD H 0.7152 0.3891 0.4323 0.2850 Uiso
H3N H 0.7152 0.4323 0.3891 0.2850 Uiso
H3RE H 0.8891 0.4323 0.2152 0.2850 Uiso
H3IB H 0.9323 0.3891 0.2152 0.2850 Uiso
H3UF H 0.9323 0.2152 0.3891 0.2850 Uiso
H3VB H 0.8891 0.2152 0.4323 0.2850 Uiso
C5ND C 0.57012(17) 0.25495(17) 0.34965(19) 0.2133 Uani
C5NA C 0.57012(17) 0.15035(19) 0.24505(17) 0.2133 Uani
C5JE C 0.65035(19) 0.07012(17) 0.24505(17) 0.2133 Uani
C5KC C 0.75495(17) 0.07012(17) 0.34965(19) 0.2133 Uani
C5EG C 0.75495(17) 0.15035(19) 0.42988(17) 0.2133 Uani
C5S C 0.74505(17) 0.34965(19) 0.57012(17) 0.2133 Uani
C5ID C 0.74505(17) 0.42988(17) 0.65035(19) 0.2133 Uani
C5PB C 0.84965(19) 0.42988(17) 0.75495(17) 0.2133 Uani
C5DF C 0.92988(17) 0.34965(19) 0.75495(17) 0.2133 Uani
C5PC C 0.92988(17) 0.24505(17) 0.65035(19) 0.2133 Uani
C5LF C 0.84965(19) 0.24505(17) 0.57012(17) 0.2133 Uani
C5TC C 0.65035(19) 0.25495(17) 0.57012(17) 0.2133 Uani
C5I C 0.57012(17) 0.25495(17) 0.65035(19) 0.2133 Uani
C5CE C 0.57012(17) 0.15035(19) 0.75495(17) 0.2133 Uani
C5BA C 0.65035(19) 0.07012(17) 0.75495(17) 0.2133 Uani
C5ZF C 0.75495(17) 0.07012(17) 0.65035(19) 0.2133 Uani
C5LC C 0.75495(17) 0.15035(19) 0.57012(17) 0.2133 Uani
C5JD C 0.74505(17) 0.34965(19) 0.42988(17) 0.2133 Uani
C5N C 0.74505(17) 0.42988(17) 0.34965(19) 0.2133 Uani
C5RE C 0.84965(19) 0.42988(17) 0.24505(17) 0.2133 Uani
C5IB C 0.92988(17) 0.34965(19) 0.24505(17) 0.2133 Uani
C5UF C 0.92988(17) 0.24505(17) 0.34965(19) 0.2133 Uani
C5VB C 0.84965(19) 0.24505(17) 0.42988(17) 0.2133 Uani
H4ND H 0.5767 0.2430 0.3438 0.2560 Uiso
H4NA H 0.5767 0.1562 0.2570 0.2560 Uiso
H4JE H 0.6562 0.0767 0.2570 0.2560 Uiso
H4KC H 0.7430 0.0767 0.3438 0.2560 Uiso
H4EG H 0.7430 0.1562 0.4233 0.2560 Uiso
H4S H 0.7570 0.3438 0.5767 0.2560 Uiso
H4ID H 0.7570 0.4233 0.6562 0.2560 Uiso
H4PB H 0.8438 0.4233 0.7430 0.2560 Uiso
H4DF H 0.9233 0.3438 0.7430 0.2560 Uiso
H4PC H 0.9233 0.2570 0.6562 0.2560 Uiso
H4LF H 0.8438 0.2570 0.5767 0.2560 Uiso
H4TC H 0.6562 0.2430 0.5767 0.2560 Uiso
H4I H 0.5767 0.2430 0.6562 0.2560 Uiso
H4CE H 0.5767 0.1562 0.7430 0.2560 Uiso
H4BA H 0.6562 0.0767 0.7430 0.2560 Uiso
H4ZF H 0.7430 0.0767 0.6562 0.2560 Uiso
H4LC H 0.7430 0.1562 0.5767 0.2560 Uiso
H4JD H 0.7570 0.3438 0.4233 0.2560 Uiso
H4N H 0.7570 0.4233 0.3438 0.2560 Uiso
H4RE H 0.8438 0.4233 0.2570 0.2560 Uiso
H4IB H 0.9233 0.3438 0.2570 0.2560 Uiso
H4UF H 0.9233 0.2570 0.3438 0.2560 Uiso
H4VB H 0.8438 0.2570 0.4233 0.2560 Uiso
C6ND C 0.5764(2) 0.2620(2) 0.3697(2) 0.2070 Uani
C6NA C 0.5764(2) 0.1303(2) 0.2380(2) 0.2070 Uani
C6JE C 0.6303(2) 0.0764(2) 0.2380(2) 0.2070 Uani
C6KC C 0.7620(2) 0.0764(2) 0.3697(2) 0.2070 Uani
C6EG C 0.7620(2) 0.1303(2) 0.4236(2) 0.2070 Uani
C6S C 0.7380(2) 0.3697(2) 0.5764(2) 0.2070 Uani
C6ID C 0.7380(2) 0.4236(2) 0.6303(2) 0.2070 Uani
C6PB C 0.8697(2) 0.4236(2) 0.7620(2) 0.2070 Uani
C6DF C 0.9236(2) 0.3697(2) 0.7620(2) 0.2070 Uani
C6PC C 0.9236(2) 0.2380(2) 0.6303(2) 0.2070 Uani
C6LF C 0.8697(2) 0.2380(2) 0.5764(2) 0.2070 Uani
C6TC C 0.6303(2) 0.2620(2) 0.5764(2) 0.2070 Uani
C6I C 0.5764(2) 0.2620(2) 0.6303(2) 0.2070 Uani
C6CE C 0.5764(2) 0.1303(2) 0.7620(2) 0.2070 Uani
C6BA C 0.6303(2) 0.0764(2) 0.7620(2) 0.2070 Uani
C6ZF C 0.7620(2) 0.0764(2) 0.6303(2) 0.2070 Uani
C6LC C 0.7620(2) 0.1303(2) 0.5764(2) 0.2070 Uani
C6JD C 0.7380(2) 0.3697(2) 0.4236(2) 0.2070 Uani
C6N C 0.7380(2) 0.4236(2) 0.3697(2) 0.2070 Uani
C6RE C 0.8697(2) 0.4236(2) 0.2380(2) 0.2070 Uani
C6IB C 0.9236(2) 0.3697(2) 0.2380(2) 0.2070 Uani
C6UF C 0.9236(2) 0.2380(2) 0.3697(2) 0.2070 Uani
C6VB C 0.8697(2) 0.2380(2) 0.4236(2) 0.2070 Uani
C7ND C 0.59413(19) 0.2489(2) 0.37897(18) 0.2087 Uani
C7NA C 0.59413(19) 0.12103(18) 0.2511(2) 0.2087 Uani
C7JE C 0.62103(18) 0.09413(19) 0.2511(2) 0.2087 Uani
C7KC C 0.7489(2) 0.09413(19) 0.37897(18) 0.2087 Uani
C7EG C 0.7489(2) 0.12103(18) 0.40587(19) 0.2087 Uani
C7S C 0.7511(2) 0.37897(18) 0.59413(19) 0.2087 Uani
C7ID C 0.7511(2) 0.40587(19) 0.62103(18) 0.2087 Uani
C7PB C 0.87897(18) 0.40587(19) 0.7489(2) 0.2087 Uani
C7DF C 0.90587(19) 0.37897(18) 0.7489(2) 0.2087 Uani
C7PC C 0.90587(19) 0.2511(2) 0.62103(18) 0.2087 Uani
C7LF C 0.87897(18) 0.2511(2) 0.59413(19) 0.2087 Uani
C7TC C 0.62103(18) 0.2489(2) 0.59413(19) 0.2087 Uani
C7I C 0.59413(19) 0.2489(2) 0.62103(18) 0.2087 Uani
C7CE C 0.59413(19) 0.12103(18) 0.7489(2) 0.2087 Uani
C7BA C 0.62103(18) 0.09413(19) 0.7489(2) 0.2087 Uani
C7ZF C 0.7489(2) 0.09413(19) 0.62103(18) 0.2087 Uani
C7LC C 0.7489(2) 0.12103(18) 0.59413(19) 0.2087 Uani
C7JD C 0.7511(2) 0.37897(18) 0.40587(19) 0.2087 Uani
C7N C 0.7511(2) 0.40587(19) 0.37897(18) 0.2087 Uani
C7RE C 0.87897(18) 0.40587(19) 0.2511(2) 0.2087 Uani
C7IB C 0.90587(19) 0.37897(18) 0.2511(2) 0.2087 Uani
C7UF C 0.90587(19) 0.2511(2) 0.37897(18) 0.2087 Uani
C7VB C 0.87897(18) 0.2511(2) 0.40587(19) 0.2087 Uani
C8ND C 0.52875(18) 0.2956(2) 0.33480(19) 0.1437 Uani
C8NA C 0.52875(18) 0.16520(19) 0.2044(2) 0.1437 Uani
C8JE C 0.66520(19) 0.02875(18) 0.2044(2) 0.1437 Uani
C8KC C 0.7956(2) 0.02875(18) 0.33480(19) 0.1437 Uani
C8EG C 0.7956(2) 0.16520(19) 0.47125(18) 0.1437 Uani
C8S C 0.7044(2) 0.33480(19) 0.52875(18) 0.1437 Uani
C8ID C 0.7044(2) 0.47125(18) 0.66520(19) 0.1437 Uani
C8PB C 0.83480(19) 0.47125(18) 0.7956(2) 0.1437 Uani
C8DF C 0.97125(18) 0.33480(19) 0.7956(2) 0.1437 Uani
C8PC C 0.97125(18) 0.2044(2) 0.66520(19) 0.1437 Uani
C8LF C 0.83480(19) 0.2044(2) 0.52875(18) 0.1437 Uani
C8TC C 0.66520(19) 0.2956(2) 0.52875(18) 0.1437 Uani
C8I C 0.52875(18) 0.2956(2) 0.66520(19) 0.1437 Uani
C8CE C 0.52875(18) 0.16520(19) 0.7956(2) 0.1437 Uani
C8BA C 0.66520(19) 0.02875(18) 0.7956(2) 0.1437 Uani
C8ZF C 0.7956(2) 0.02875(18) 0.66520(19) 0.1437 Uani
C8LC C 0.7956(2) 0.16520(19) 0.52875(18) 0.1437 Uani
C8JD C 0.7044(2) 0.33480(19) 0.47125(18) 0.1437 Uani
C8N C 0.7044(2) 0.47125(18) 0.33480(19) 0.1437 Uani
C8RE C 0.83480(19) 0.47125(18) 0.2044(2) 0.1437 Uani
C8IB C 0.97125(18) 0.33480(19) 0.2044(2) 0.1437 Uani
C8UF C 0.97125(18) 0.2044(2) 0.33480(19) 0.1437 Uani
C8VB C 0.83480(19) 0.2044(2) 0.47125(18) 0.1437 Uani
C9ND C 0.59972(17) 0.22832(16) 0.37199(19) 0.2347 Uani
C9NA C 0.59972(17) 0.12801(19) 0.27168(16) 0.2347 Uani
C9JE C 0.62801(19) 0.09972(17) 0.27168(16) 0.2347 Uani
C9KC C 0.72832(16) 0.09972(17) 0.37199(19) 0.2347 Uani
C9EG C 0.72832(16) 0.12801(19) 0.40028(17) 0.2347 Uani
C9S C 0.77168(16) 0.37199(19) 0.59972(17) 0.2347 Uani
C9ID C 0.77168(16) 0.40028(17) 0.62801(19) 0.2347 Uani
C9PB C 0.87199(19) 0.40028(17) 0.72832(16) 0.2347 Uani
C9DF C 0.90028(17) 0.37199(19) 0.72832(16) 0.2347 Uani
C9PC C 0.90028(17) 0.27168(16) 0.62801(19) 0.2347 Uani
C9LF C 0.87199(19) 0.27168(16) 0.59972(17) 0.2347 Uani
C9TC C 0.62801(19) 0.22832(16) 0.59972(17) 0.2347 Uani
C9I C 0.59972(17) 0.22832(16) 0.62801(19) 0.2347 Uani
C9CE C 0.59972(17) 0.12801(19) 0.72832(16) 0.2347 Uani
C9BA C 0.62801(19) 0.09972(17) 0.72832(16) 0.2347 Uani
C9ZF C 0.72832(16) 0.09972(17) 0.62801(19) 0.2347 Uani
C9LC C 0.72832(16) 0.12801(19) 0.59972(17) 0.2347 Uani
C9JD C 0.77168(16) 0.37199(19) 0.40028(17) 0.2347 Uani
C9N C 0.77168(16) 0.40028(17) 0.37199(19) 0.2347 Uani
C9RE C 0.87199(19) 0.40028(17) 0.27168(16) 0.2347 Uani
C9IB C 0.90028(17) 0.37199(19) 0.27168(16) 0.2347 Uani
C9UF C 0.90028(17) 0.27168(16) 0.37199(19) 0.2347 Uani
C9VB C 0.87199(19) 0.27168(16) 0.40028(17) 0.2347 Uani
H5ND H 0.5928 0.2217 0.3607 0.2820 Uiso
H5JE H 0.6393 0.0928 0.2783 0.2820 Uiso
H5NA H 0.5928 0.1393 0.2783 0.2820 Uiso
H5EG H 0.7217 0.1393 0.4072 0.2820 Uiso
H5KC H 0.7217 0.0928 0.3607 0.2820 Uiso
H5S H 0.7783 0.3607 0.5928 0.2820 Uiso
H5ID H 0.7783 0.4072 0.6393 0.2820 Uiso
H5DF H 0.9072 0.3607 0.7217 0.2820 Uiso
H5PB H 0.8607 0.4072 0.7217 0.2820 Uiso
H5LF H 0.8607 0.2783 0.5928 0.2820 Uiso
H5PC H 0.9072 0.2783 0.6393 0.2820 Uiso
H5TC H 0.6393 0.2217 0.5928 0.2820 Uiso
H5I H 0.5928 0.2217 0.6393 0.2820 Uiso
H5BA H 0.6393 0.0928 0.7217 0.2820 Uiso
H5CE H 0.5928 0.1393 0.7217 0.2820 Uiso
H5LC H 0.7217 0.1393 0.5928 0.2820 Uiso
H5ZF H 0.7217 0.0928 0.6393 0.2820 Uiso
H5JD H 0.7783 0.3607 0.4072 0.2820 Uiso
H5N H 0.7783 0.4072 0.3607 0.2820 Uiso
H5IB H 0.9072 0.3607 0.2783 0.2820 Uiso
H5RE H 0.8607 0.4072 0.2783 0.2820 Uiso
H5VB H 0.8607 0.2783 0.4072 0.2820 Uiso
H5UF H 0.9072 0.2783 0.3607 0.2820 Uiso
C10NA C 0.6166(2) 0.1166(2) 0.2816(3) 0.2533 Uani
C10KC C 0.7184(3) 0.1166(2) 0.3834(2) 0.2533 Uani
C10S C 0.7816(3) 0.3834(2) 0.6166(2) 0.2533 Uani
C10PB C 0.8834(2) 0.3834(2) 0.7184(3) 0.2533 Uani
C10PC C 0.8834(2) 0.2816(3) 0.6166(2) 0.2533 Uani
C10I C 0.6166(2) 0.2184(3) 0.6166(2) 0.2533 Uani
C10BA C 0.6166(2) 0.1166(2) 0.7184(3) 0.2533 Uani
C10LC C 0.7184(3) 0.1166(2) 0.6166(2) 0.2533 Uani
C10N C 0.7816(3) 0.3834(2) 0.3834(2) 0.2533 Uani
C10IB C 0.8834(2) 0.3834(2) 0.2816(3) 0.2533 Uani
C10VB C 0.8834(2) 0.2816(3) 0.3834(2) 0.2533 Uani
C11NA C 0.60276(14) 0.10276(14) 0.2397(2) 0.2203 Uani
C11KC C 0.7603(2) 0.10276(14) 0.39724(14) 0.2203 Uani
C11S C 0.7397(2) 0.39724(14) 0.60276(14) 0.2203 Uani
C11PB C 0.89724(14) 0.39724(14) 0.7603(2) 0.2203 Uani
C11PC C 0.89724(14) 0.2397(2) 0.60276(14) 0.2203 Uani
C11I C 0.60276(14) 0.2603(2) 0.60276(14) 0.2203 Uani
C11BA C 0.60276(14) 0.10276(14) 0.7603(2) 0.2203 Uani
C11LC C 0.7603(2) 0.10276(14) 0.60276(14) 0.2203 Uani
C11N C 0.7397(2) 0.39724(14) 0.39724(14) 0.2203 Uani
C11IB C 0.89724(14) 0.39724(14) 0.2397(2) 0.2203 Uani
C11VB C 0.89724(14) 0.2397(2) 0.39724(14) 0.2203 Uani
H6NA H 0.5974 0.0974 0.2270 0.2640 Uiso
H6KC H 0.7730 0.0974 0.4026 0.2640 Uiso
H6S H 0.7270 0.4026 0.5974 0.2640 Uiso
H6PB H 0.9026 0.4026 0.7730 0.2640 Uiso
H6PC H 0.9026 0.2270 0.5974 0.2640 Uiso
H6I H 0.5974 0.2730 0.5974 0.2640 Uiso
H6BA H 0.5974 0.0974 0.7730 0.2640 Uiso
H6LC H 0.7730 0.0974 0.5974 0.2640 Uiso
H6N H 0.7270 0.4026 0.4026 0.2640 Uiso
H6IB H 0.9026 0.4026 0.2270 0.2640 Uiso
H6VB H 0.9026 0.2270 0.4026 0.2640 Uiso
C12NA C 0.6239(2) 0.1239(2) 0.3002(3) 0.2780 Uani
C12KC C 0.6998(3) 0.1239(2) 0.3761(2) 0.2780 Uani
C12S C 0.8002(3) 0.3761(2) 0.6239(2) 0.2780 Uani
C12PB C 0.8761(2) 0.3761(2) 0.6998(3) 0.2780 Uani
C12PC C 0.8761(2) 0.3002(3) 0.6239(2) 0.2780 Uani
C12I C 0.6239(2) 0.1998(3) 0.6239(2) 0.2780 Uani
C12BA C 0.6239(2) 0.1239(2) 0.6998(3) 0.2780 Uani
C12LC C 0.6998(3) 0.1239(2) 0.6239(2) 0.2780 Uani
C12N C 0.8002(3) 0.3761(2) 0.3761(2) 0.2780 Uani
C12IB C 0.8761(2) 0.3761(2) 0.3002(3) 0.2780 Uani
C12VB C 0.8761(2) 0.3002(3) 0.3761(2) 0.2780 Uani
C13NA C 0.63023(19) 0.13023(19) 0.3137(3) 0.2890 Uani
C13KC C 0.6863(3) 0.13023(19) 0.36977(19) 0.2890 Uani
C13S C 0.8137(3) 0.36977(19) 0.63023(19) 0.2890 Uani
C13PB C 0.86977(19) 0.36977(19) 0.6863(3) 0.2890 Uani
C13PC C 0.86977(19) 0.3137(3) 0.63023(19) 0.2890 Uani
C13I C 0.63023(19) 0.1863(3) 0.63023(19) 0.2890 Uani
C13BA C 0.63023(19) 0.13023(19) 0.6863(3) 0.2890 Uani
C13LC C 0.6863(3) 0.13023(19) 0.63023(19) 0.2890 Uani
C13N C 0.8137(3) 0.36977(19) 0.36977(19) 0.2890 Uani
C13IB C 0.86977(19) 0.36977(19) 0.3137(3) 0.2890 Uani
C13VB C 0.86977(19) 0.3137(3) 0.36977(19) 0.2890 Uani
C14NA C 0.63765(19) 0.13765(19) 0.3359(3) 0.2927 Uani
C14KC C 0.6641(3) 0.13765(19) 0.36235(19) 0.2927 Uani
C14S C 0.8359(3) 0.36235(19) 0.63765(19) 0.2927 Uani
C14PB C 0.86235(19) 0.36235(19) 0.6641(3) 0.2927 Uani
C14PC C 0.86235(19) 0.3359(3) 0.63765(19) 0.2927 Uani
C14I C 0.63765(19) 0.1641(3) 0.63765(19) 0.2927 Uani
C14BA C 0.63765(19) 0.13765(19) 0.6641(3) 0.2927 Uani
C14LC C 0.6641(3) 0.13765(19) 0.63765(19) 0.2927 Uani
C14N C 0.8359(3) 0.36235(19) 0.36235(19) 0.2927 Uani
C14IB C 0.86235(19) 0.36235(19) 0.3359(3) 0.2927 Uani
C14VB C 0.86235(19) 0.3359(3) 0.36235(19) 0.2927 Uani
C15NA C 0.65362(17) 0.1284(3) 0.34638(17) 0.2823 Uani
C15KC C 0.65362(17) 0.15362(17) 0.3716(3) 0.2823 Uani
C15S C 0.84638(17) 0.3716(3) 0.65362(17) 0.2823 Uani
C15PB C 0.8716(3) 0.34638(17) 0.65362(17) 0.2823 Uani
C15PC C 0.84638(17) 0.34638(17) 0.6284(3) 0.2823 Uani
C15BA C 0.6284(3) 0.15362(17) 0.65362(17) 0.2823 Uani
C15LC C 0.65362(17) 0.1284(3) 0.65362(17) 0.2823 Uani
C15I C 0.65362(17) 0.15362(17) 0.6284(3) 0.2823 Uani
C15IB C 0.84638(17) 0.3716(3) 0.34638(17) 0.2823 Uani
C15VB C 0.8716(3) 0.34638(17) 0.34638(17) 0.2823 Uani
C15N C 0.84638(17) 0.34638(17) 0.3716(3) 0.2823 Uani
H7KC H 0.6577 0.1577 0.3852 0.3390 Uiso
H7NA H 0.6577 0.1148 0.3423 0.3390 Uiso
H7S H 0.8423 0.3852 0.6577 0.3390 Uiso
H7PC H 0.8423 0.3423 0.6148 0.3390 Uiso
H7PB H 0.8852 0.3423 0.6577 0.3390 Uiso
H7BA H 0.6148 0.1577 0.6577 0.3390 Uiso
H7I H 0.6577 0.1577 0.6148 0.3390 Uiso
H7LC H 0.6577 0.1148 0.6577 0.3390 Uiso
H7IB H 0.8423 0.3852 0.3423 0.3390 Uiso
H7N H 0.8423 0.3423 0.3852 0.3390 Uiso
H7VB H 0.8852 0.3423 0.3423 0.3390 Uiso
loop_
_atom_site_aniso_label
_atom_site_aniso_U_11
_atom_site_aniso_U_22
_atom_site_aniso_U_33
_atom_site_aniso_U_23
_atom_site_aniso_U_13
_atom_site_aniso_U_12
Cu1 0.155(2) 0.155(2) 0.097(3) 0.000 0.000 0.004(2)
Cu2 0.160(2) 0.160(2) 0.113(3) 0.000 0.000 0.010(2)
O1 0.214(7) 0.170(5) 0.128(6) -0.008(4) -0.045(4) 0.005(4)
O2 0.159(5) 0.222(7) 0.143(7) -0.035(5) -0.008(4) 0.006(5)
C1 0.184(9) 0.190(10) 0.155(9) -0.043(6) -0.055(7) 0.051(8)
C2 0.263(11) 0.245(11) 0.211(11) -0.137(8) -0.127(8) 0.117(9)
C3 0.211(10) 0.225(11) 0.204(11) -0.076(7) -0.083(8) 0.077(8)
C4 0.221(9) 0.217(12) 0.274(13) -0.141(8) -0.121(8) 0.096(8)
C5 0.210(10) 0.236(10) 0.194(10) -0.091(7) -0.079(8) 0.094(8)
C6 0.212(9) 0.196(10) 0.213(10) -0.103(7) -0.083(8) 0.085(8)
C7 0.188(9) 0.226(11) 0.212(9) -0.121(7) -0.078(8) 0.100(7)
C8 0.172(8) 0.175(9) 0.084(8) 0.008(5) -0.011(6) 0.004(7)
C9 0.254(10) 0.206(11) 0.244(11) -0.117(8) -0.105(9) 0.113(8)
C10 0.271(10) 0.218(14) 0.271(10) -0.134(8) -0.139(11) 0.134(8)
C11 0.209(8) 0.243(14) 0.209(8) -0.132(8) -0.074(9) 0.132(8)
C12 0.305(11) 0.224(16) 0.305(11) -0.148(9) -0.143(12) 0.148(9)
C13 0.311(10) 0.245(15) 0.311(10) -0.163(9) -0.163(12) 0.163(9)
C14 0.305(9) 0.268(14) 0.305(9) -0.178(9) -0.168(10) 0.178(9)
C15 0.275(14) 0.286(10) 0.286(10) -0.184(10) -0.127(10) 0.127(10)
Cu1G 0.097 0.155 0.155 -0.004 0 0
Cu1NA 0.097 0.155 0.155 -0.004 0 0
Cu1DA 0.155 0.097 0.155 0 -0.004 0
Cu1KC 0.155 0.097 0.155 0 -0.004 0
Cu1VB 0.155 0.155 0.097 0 0 0.004
Cu1F 0.155 0.097 0.155 0 -0.004 0
Cu1MB 0.155 0.097 0.155 0 -0.004 0
Cu1CB 0.097 0.155 0.155 -0.004 0 0
Cu1JC 0.097 0.155 0.155 -0.004 0 0
Cu1I 0.097 0.155 0.155 0.004 0 0
Cu1HA 0.097 0.155 0.155 0.004 0 0
Cu1BA 0.155 0.097 0.155 0 0.004 0
Cu1EC 0.155 0.097 0.155 0 0.004 0
Cu1D 0.155 0.097 0.155 0 0.004 0
Cu1GB 0.155 0.097 0.155 0 0.004 0
Cu1EB 0.097 0.155 0.155 0.004 0 0
Cu1DC 0.097 0.155 0.155 0.004 0 0
Cu2G 0.113 0.16 0.16 -0.01 0 0
Cu2NA 0.113 0.16 0.16 -0.01 0 0
Cu2DA 0.16 0.113 0.16 0 -0.01 0
Cu2KC 0.16 0.113 0.16 0 -0.01 0
Cu2VB 0.16 0.16 0.113 0 0 0.01
Cu2F 0.16 0.113 0.16 0 -0.01 0
Cu2MB 0.16 0.113 0.16 0 -0.01 0
Cu2CB 0.113 0.16 0.16 -0.01 0 0
Cu2JC 0.113 0.16 0.16 -0.01 0 0
Cu2I 0.113 0.16 0.16 0.01 0 0
Cu2HA 0.113 0.16 0.16 0.01 0 0
Cu2BA 0.16 0.113 0.16 0 0.01 0
Cu2EC 0.16 0.113 0.16 0 0.01 0
Cu2D 0.16 0.113 0.16 0 0.01 0
Cu2GB 0.16 0.113 0.16 0 0.01 0
Cu2EB 0.113 0.16 0.16 0.01 0 0
Cu2DC 0.113 0.16 0.16 0.01 0 0
O1ND 0.128 0.17 0.214 -0.005 -0.045 0.008
O1NA 0.128 0.214 0.17 -0.005 -0.008 0.045
O1JE 0.214 0.128 0.17 -0.008 -0.005 0.045
O1KC 0.17 0.128 0.214 -0.045 -0.005 0.008
O1EG 0.17 0.214 0.128 -0.045 -0.008 0.005
O1S 0.17 0.214 0.128 -0.045 -0.008 0.005
O1ID 0.17 0.128 0.214 -0.045 -0.005 0.008
O1PB 0.214 0.128 0.17 -0.008 -0.005 0.045
O1DF 0.128 0.214 0.17 -0.005 -0.008 0.045
O1PC 0.128 0.17 0.214 -0.005 -0.045 0.008
O1LF 0.214 0.17 0.128 -0.008 -0.045 0.005
O1TC 0.214 0.17 0.128 0.008 0.045 0.005
O1I 0.128 0.17 0.214 0.005 0.045 0.008
O1CE 0.128 0.214 0.17 0.005 0.008 0.045
O1BA 0.214 0.128 0.17 0.008 0.005 0.045
O1ZF 0.17 0.128 0.214 0.045 0.005 0.008
O1LC 0.17 0.214 0.128 0.045 0.008 0.005
O1JD 0.17 0.214 0.128 0.045 0.008 0.005
O1N 0.17 0.128 0.214 0.045 0.005 0.008
O1RE 0.214 0.128 0.17 0.008 0.005 0.045
O1IB 0.128 0.214 0.17 0.005 0.008 0.045
O1UF 0.128 0.17 0.214 0.005 0.045 0.008
O1VB 0.214 0.17 0.128 0.008 0.045 0.005
O1HD 0.128 0.214 0.17 -0.005 -0.008 0.045
O1G 0.128 0.17 0.214 -0.005 0.045 -0.008
O1O 0.128 0.214 0.17 -0.005 0.008 -0.045
O1TA 0.128 0.17 0.214 -0.005 -0.045 0.008
O1EE 0.128 0.214 0.17 -0.005 0.008 -0.045
O1WD 0.128 0.17 0.214 -0.005 0.045 -0.008
O1GE 0.17 0.128 0.214 -0.045 -0.005 0.008
O1DA 0.214 0.128 0.17 0.008 -0.005 -0.045
O1JA 0.17 0.128 0.214 0.045 -0.005 -0.008
O1NC 0.214 0.128 0.17 -0.008 -0.005 0.045
O1XF 0.17 0.128 0.214 0.045 -0.005 -0.008
O1RF 0.214 0.128 0.17 0.008 -0.005 -0.045
O2ND 0.143 0.222 0.159 -0.006 -0.008 0.035
O2NA 0.143 0.159 0.222 -0.006 -0.035 0.008
O2JE 0.159 0.143 0.222 -0.035 -0.006 0.008
O2KC 0.222 0.143 0.159 -0.008 -0.006 0.035
O2EG 0.222 0.159 0.143 -0.008 -0.035 0.006
O2S 0.222 0.159 0.143 -0.008 -0.035 0.006
O2ID 0.222 0.143 0.159 -0.008 -0.006 0.035
O2PB 0.159 0.143 0.222 -0.035 -0.006 0.008
O2DF 0.143 0.159 0.222 -0.006 -0.035 0.008
O2PC 0.143 0.222 0.159 -0.006 -0.008 0.035
O2LF 0.159 0.222 0.143 -0.035 -0.008 0.006
O2TC 0.159 0.222 0.143 0.035 0.008 0.006
O2I 0.143 0.222 0.159 0.006 0.008 0.035
O2CE 0.143 0.159 0.222 0.006 0.035 0.008
O2BA 0.159 0.143 0.222 0.035 0.006 0.008
O2ZF 0.222 0.143 0.159 0.008 0.006 0.035
O2LC 0.222 0.159 0.143 0.008 0.035 0.006
O2JD 0.222 0.159 0.143 0.008 0.035 0.006
O2N 0.222 0.143 0.159 0.008 0.006 0.035
O2RE 0.159 0.143 0.222 0.035 0.006 0.008
O2IB 0.143 0.159 0.222 0.006 0.035 0.008
O2UF 0.143 0.222 0.159 0.006 0.008 0.035
O2VB 0.159 0.222 0.143 0.035 0.008 0.006
O2HD 0.143 0.159 0.222 -0.006 -0.035 0.008
O2G 0.143 0.222 0.159 -0.006 0.008 -0.035
O2O 0.143 0.159 0.222 -0.006 0.035 -0.008
O2TA 0.143 0.222 0.159 -0.006 -0.008 0.035
O2EE 0.143 0.159 0.222 -0.006 0.035 -0.008
O2WD 0.143 0.222 0.159 -0.006 0.008 -0.035
O2GE 0.222 0.143 0.159 -0.008 -0.006 0.035
O2DA 0.159 0.143 0.222 0.035 -0.006 -0.008
O2JA 0.222 0.143 0.159 0.008 -0.006 -0.035
O2NC 0.159 0.143 0.222 -0.035 -0.006 0.008
O2XF 0.222 0.143 0.159 0.008 -0.006 -0.035
O2RF 0.159 0.143 0.222 0.035 -0.006 -0.008
C1ND 0.155 0.19 0.184 -0.051 -0.055 0.043
C1NA 0.155 0.184 0.19 -0.051 -0.043 0.055
C1JE 0.184 0.155 0.19 -0.043 -0.051 0.055
C1KC 0.19 0.155 0.184 -0.055 -0.051 0.043
C1EG 0.19 0.184 0.155 -0.055 -0.043 0.051
C1S 0.19 0.184 0.155 -0.055 -0.043 0.051
C1ID 0.19 0.155 0.184 -0.055 -0.051 0.043
C1PB 0.184 0.155 0.19 -0.043 -0.051 0.055
C1DF 0.155 0.184 0.19 -0.051 -0.043 0.055
C1PC 0.155 0.19 0.184 -0.051 -0.055 0.043
C1LF 0.184 0.19 0.155 -0.043 -0.055 0.051
C1TC 0.184 0.19 0.155 0.043 0.055 0.051
C1I 0.155 0.19 0.184 0.051 0.055 0.043
C1CE 0.155 0.184 0.19 0.051 0.043 0.055
C1BA 0.184 0.155 0.19 0.043 0.051 0.055
C1ZF 0.19 0.155 0.184 0.055 0.051 0.043
C1LC 0.19 0.184 0.155 0.055 0.043 0.051
C1JD 0.19 0.184 0.155 0.055 0.043 0.051
C1N 0.19 0.155 0.184 0.055 0.051 0.043
C1RE 0.184 0.155 0.19 0.043 0.051 0.055
C1IB 0.155 0.184 0.19 0.051 0.043 0.055
C1UF 0.155 0.19 0.184 0.051 0.055 0.043
C1VB 0.184 0.19 0.155 0.043 0.055 0.051
C2ND 0.211 0.245 0.263 -0.117 -0.127 0.137
C2NA 0.211 0.263 0.245 -0.117 -0.137 0.127
C2JE 0.263 0.211 0.245 -0.137 -0.117 0.127
C2KC 0.245 0.211 0.263 -0.127 -0.117 0.137
C2EG 0.245 0.263 0.211 -0.127 -0.137 0.117
C2S 0.245 0.263 0.211 -0.127 -0.137 0.117
C2ID 0.245 0.211 0.263 -0.127 -0.117 0.137
C2PB 0.263 0.211 0.245 -0.137 -0.117 0.127
C2DF 0.211 0.263 0.245 -0.117 -0.137 0.127
C2PC 0.211 0.245 0.263 -0.117 -0.127 0.137
C2LF 0.263 0.245 0.211 -0.137 -0.127 0.117
C2TC 0.263 0.245 0.211 0.137 0.127 0.117
C2I 0.211 0.245 0.263 0.117 0.127 0.137
C2CE 0.211 0.263 0.245 0.117 0.137 0.127
C2BA 0.263 0.211 0.245 0.137 0.117 0.127
C2ZF 0.245 0.211 0.263 0.127 0.117 0.137
C2LC 0.245 0.263 0.211 0.127 0.137 0.117
C2JD 0.245 0.263 0.211 0.127 0.137 0.117
C2N 0.245 0.211 0.263 0.127 0.117 0.137
C2RE 0.263 0.211 0.245 0.137 0.117 0.127
C2IB 0.211 0.263 0.245 0.117 0.137 0.127
C2UF 0.211 0.245 0.263 0.117 0.127 0.137
C2VB 0.263 0.245 0.211 0.137 0.127 0.117
C3ND 0.204 0.225 0.211 -0.077 -0.083 0.076
C3NA 0.204 0.211 0.225 -0.077 -0.076 0.083
C3JE 0.211 0.204 0.225 -0.076 -0.077 0.083
C3KC 0.225 0.204 0.211 -0.083 -0.077 0.076
C3EG 0.225 0.211 0.204 -0.083 -0.076 0.077
C3S 0.225 0.211 0.204 -0.083 -0.076 0.077
C3ID 0.225 0.204 0.211 -0.083 -0.077 0.076
C3PB 0.211 0.204 0.225 -0.076 -0.077 0.083
C3DF 0.204 0.211 0.225 -0.077 -0.076 0.083
C3PC 0.204 0.225 0.211 -0.077 -0.083 0.076
C3LF 0.211 0.225 0.204 -0.076 -0.083 0.077
C3TC 0.211 0.225 0.204 0.076 0.083 0.077
C3I 0.204 0.225 0.211 0.077 0.083 0.076
C3CE 0.204 0.211 0.225 0.077 0.076 0.083
C3BA 0.211 0.204 0.225 0.076 0.077 0.083
C3ZF 0.225 0.204 0.211 0.083 0.077 0.076
C3LC 0.225 0.211 0.204 0.083 0.076 0.077
C3JD 0.225 0.211 0.204 0.083 0.076 0.077
C3N 0.225 0.204 0.211 0.083 0.077 0.076
C3RE 0.211 0.204 0.225 0.076 0.077 0.083
C3IB 0.204 0.211 0.225 0.077 0.076 0.083
C3UF 0.204 0.225 0.211 0.077 0.083 0.076
C3VB 0.211 0.225 0.204 0.076 0.083 0.077
C4ND 0.274 0.217 0.221 -0.096 -0.121 0.141
C4NA 0.274 0.221 0.217 -0.096 -0.141 0.121
C4JE 0.221 0.274 0.217 -0.141 -0.096 0.121
C4KC 0.217 0.274 0.221 -0.121 -0.096 0.141
C4EG 0.217 0.221 0.274 -0.121 -0.141 0.096
C4S 0.217 0.221 0.274 -0.121 -0.141 0.096
C4ID 0.217 0.274 0.221 -0.121 -0.096 0.141
C4PB 0.221 0.274 0.217 -0.141 -0.096 0.121
C4DF 0.274 0.221 0.217 -0.096 -0.141 0.121
C4PC 0.274 0.217 0.221 -0.096 -0.121 0.141
C4LF 0.221 0.217 0.274 -0.141 -0.121 0.096
C4TC 0.221 0.217 0.274 0.141 0.121 0.096
C4I 0.274 0.217 0.221 0.096 0.121 0.141
C4CE 0.274 0.221 0.217 0.096 0.141 0.121
C4BA 0.221 0.274 0.217 0.141 0.096 0.121
C4ZF 0.217 0.274 0.221 0.121 0.096 0.141
C4LC 0.217 0.221 0.274 0.121 0.141 0.096
C4JD 0.217 0.221 0.274 0.121 0.141 0.096
C4N 0.217 0.274 0.221 0.121 0.096 0.141
C4RE 0.221 0.274 0.217 0.141 0.096 0.121
C4IB 0.274 0.221 0.217 0.096 0.141 0.121
C4UF 0.274 0.217 0.221 0.096 0.121 0.141
C4VB 0.221 0.217 0.274 0.141 0.121 0.096
C5ND 0.194 0.236 0.21 -0.094 -0.079 0.091
C5NA 0.194 0.21 0.236 -0.094 -0.091 0.079
C5JE 0.21 0.194 0.236 -0.091 -0.094 0.079
C5KC 0.236 0.194 0.21 -0.079 -0.094 0.091
C5EG 0.236 0.21 0.194 -0.079 -0.091 0.094
C5S 0.236 0.21 0.194 -0.079 -0.091 0.094
C5ID 0.236 0.194 0.21 -0.079 -0.094 0.091
C5PB 0.21 0.194 0.236 -0.091 -0.094 0.079
C5DF 0.194 0.21 0.236 -0.094 -0.091 0.079
C5PC 0.194 0.236 0.21 -0.094 -0.079 0.091
C5LF 0.21 0.236 0.194 -0.091 -0.079 0.094
C5TC 0.21 0.236 0.194 0.091 0.079 0.094
C5I 0.194 0.236 0.21 0.094 0.079 0.091
C5CE 0.194 0.21 0.236 0.094 0.091 0.079
C5BA 0.21 0.194 0.236 0.091 0.094 0.079
C5ZF 0.236 0.194 0.21 0.079 0.094 0.091
C5LC 0.236 0.21 0.194 0.079 0.091 0.094
C5JD 0.236 0.21 0.194 0.079 0.091 0.094
C5N 0.236 0.194 0.21 0.079 0.094 0.091
C5RE 0.21 0.194 0.236 0.091 0.094 0.079
C5IB 0.194 0.21 0.236 0.094 0.091 0.079
C5UF 0.194 0.236 0.21 0.094 0.079 0.091
C5VB 0.21 0.236 0.194 0.091 0.079 0.094
C6ND 0.213 0.196 0.212 -0.085 -0.083 0.103
C6NA 0.213 0.212 0.196 -0.085 -0.103 0.083
C6JE 0.212 0.213 0.196 -0.103 -0.085 0.083
C6KC 0.196 0.213 0.212 -0.083 -0.085 0.103
C6EG 0.196 0.212 0.213 -0.083 -0.103 0.085
C6S 0.196 0.212 0.213 -0.083 -0.103 0.085
C6ID 0.196 0.213 0.212 -0.083 -0.085 0.103
C6PB 0.212 0.213 0.196 -0.103 -0.085 0.083
C6DF 0.213 0.212 0.196 -0.085 -0.103 0.083
C6PC 0.213 0.196 0.212 -0.085 -0.083 0.103
C6LF 0.212 0.196 0.213 -0.103 -0.083 0.085
C6TC 0.212 0.196 0.213 0.103 0.083 0.085
C6I 0.213 0.196 0.212 0.085 0.083 0.103
C6CE 0.213 0.212 0.196 0.085 0.103 0.083
C6BA 0.212 0.213 0.196 0.103 0.085 0.083
C6ZF 0.196 0.213 0.212 0.083 0.085 0.103
C6LC 0.196 0.212 0.213 0.083 0.103 0.085
C6JD 0.196 0.212 0.213 0.083 0.103 0.085
C6N 0.196 0.213 0.212 0.083 0.085 0.103
C6RE 0.212 0.213 0.196 0.103 0.085 0.083
C6IB 0.213 0.212 0.196 0.085 0.103 0.083
C6UF 0.213 0.196 0.212 0.085 0.083 0.103
C6VB 0.212 0.196 0.213 0.103 0.083 0.085
C7ND 0.212 0.226 0.188 -0.1 -0.078 0.121
C7NA 0.212 0.188 0.226 -0.1 -0.121 0.078
C7JE 0.188 0.212 0.226 -0.121 -0.1 0.078
C7KC 0.226 0.212 0.188 -0.078 -0.1 0.121
C7EG 0.226 0.188 0.212 -0.078 -0.121 0.1
C7S 0.226 0.188 0.212 -0.078 -0.121 0.1
C7ID 0.226 0.212 0.188 -0.078 -0.1 0.121
C7PB 0.188 0.212 0.226 -0.121 -0.1 0.078
C7DF 0.212 0.188 0.226 -0.1 -0.121 0.078
C7PC 0.212 0.226 0.188 -0.1 -0.078 0.121
C7LF 0.188 0.226 0.212 -0.121 -0.078 0.1
C7TC 0.188 0.226 0.212 0.121 0.078 0.1
C7I 0.212 0.226 0.188 0.1 0.078 0.121
C7CE 0.212 0.188 0.226 0.1 0.121 0.078
C7BA 0.188 0.212 0.226 0.121 0.1 0.078
C7ZF 0.226 0.212 0.188 0.078 0.1 0.121
C7LC 0.226 0.188 0.212 0.078 0.121 0.1
C7JD 0.226 0.188 0.212 0.078 0.121 0.1
C7N 0.226 0.212 0.188 0.078 0.1 0.121
C7RE 0.188 0.212 0.226 0.121 0.1 0.078
C7IB 0.212 0.188 0.226 0.1 0.121 0.078
C7UF 0.212 0.226 0.188 0.1 0.078 0.121
C7VB 0.188 0.226 0.212 0.121 0.078 0.1
C8ND 0.084 0.175 0.172 -0.004 -0.011 -0.008
C8NA 0.084 0.172 0.175 -0.004 0.008 0.011
C8JE 0.172 0.084 0.175 0.008 -0.004 0.011
C8KC 0.175 0.084 0.172 -0.011 -0.004 -0.008
C8EG 0.175 0.172 0.084 -0.011 0.008 0.004
C8S 0.175 0.172 0.084 -0.011 0.008 0.004
C8ID 0.175 0.084 0.172 -0.011 -0.004 -0.008
C8PB 0.172 0.084 0.175 0.008 -0.004 0.011
C8DF 0.084 0.172 0.175 -0.004 0.008 0.011
C8PC 0.084 0.175 0.172 -0.004 -0.011 -0.008
C8LF 0.172 0.175 0.084 0.008 -0.011 0.004
C8TC 0.172 0.175 0.084 -0.008 0.011 0.004
C8I 0.084 0.175 0.172 0.004 0.011 -0.008
C8CE 0.084 0.172 0.175 0.004 -0.008 0.011
C8BA 0.172 0.084 0.175 -0.008 0.004 0.011
C8ZF 0.175 0.084 0.172 0.011 0.004 -0.008
C8LC 0.175 0.172 0.084 0.011 -0.008 0.004
C8JD 0.175 0.172 0.084 0.011 -0.008 0.004
C8N 0.175 0.084 0.172 0.011 0.004 -0.008
C8RE 0.172 0.084 0.175 -0.008 0.004 0.011
C8IB 0.084 0.172 0.175 0.004 -0.008 0.011
C8UF 0.084 0.175 0.172 0.004 0.011 -0.008
C8VB 0.172 0.175 0.084 -0.008 0.011 0.004
C9ND 0.244 0.206 0.254 -0.113 -0.105 0.117
C9NA 0.244 0.254 0.206 -0.113 -0.117 0.105
C9JE 0.254 0.244 0.206 -0.117 -0.113 0.105
C9KC 0.206 0.244 0.254 -0.105 -0.113 0.117
C9EG 0.206 0.254 0.244 -0.105 -0.117 0.113
C9S 0.206 0.254 0.244 -0.105 -0.117 0.113
C9ID 0.206 0.244 0.254 -0.105 -0.113 0.117
C9PB 0.254 0.244 0.206 -0.117 -0.113 0.105
C9DF 0.244 0.254 0.206 -0.113 -0.117 0.105
C9PC 0.244 0.206 0.254 -0.113 -0.105 0.117
C9LF 0.254 0.206 0.244 -0.117 -0.105 0.113
C9TC 0.254 0.206 0.244 0.117 0.105 0.113
C9I 0.244 0.206 0.254 0.113 0.105 0.117
C9CE 0.244 0.254 0.206 0.113 0.117 0.105
C9BA 0.254 0.244 0.206 0.117 0.113 0.105
C9ZF 0.206 0.244 0.254 0.105 0.113 0.117
C9LC 0.206 0.254 0.244 0.105 0.117 0.113
C9JD 0.206 0.254 0.244 0.105 0.117 0.113
C9N 0.206 0.244 0.254 0.105 0.113 0.117
C9RE 0.254 0.244 0.206 0.117 0.113 0.105
C9IB 0.244 0.254 0.206 0.113 0.117 0.105
C9UF 0.244 0.206 0.254 0.113 0.105 0.117
C9VB 0.254 0.206 0.244 0.117 0.105 0.113
C10NA 0.271 0.271 0.218 -0.134 -0.134 0.139
C10KC 0.218 0.271 0.271 -0.139 -0.134 0.134
C10S 0.218 0.271 0.271 -0.139 -0.134 0.134
C10PB 0.271 0.271 0.218 -0.134 -0.134 0.139
C10PC 0.271 0.218 0.271 -0.134 -0.139 0.134
C10I 0.271 0.218 0.271 0.134 0.139 0.134
C10BA 0.271 0.271 0.218 0.134 0.134 0.139
C10LC 0.218 0.271 0.271 0.139 0.134 0.134
C10N 0.218 0.271 0.271 0.139 0.134 0.134
C10IB 0.271 0.271 0.218 0.134 0.134 0.139
C10VB 0.271 0.218 0.271 0.134 0.139 0.134
C11NA 0.209 0.209 0.243 -0.132 -0.132 0.074
C11KC 0.243 0.209 0.209 -0.074 -0.132 0.132
C11S 0.243 0.209 0.209 -0.074 -0.132 0.132
C11PB 0.209 0.209 0.243 -0.132 -0.132 0.074
C11PC 0.209 0.243 0.209 -0.132 -0.074 0.132
C11I 0.209 0.243 0.209 0.132 0.074 0.132
C11BA 0.209 0.209 0.243 0.132 0.132 0.074
C11LC 0.243 0.209 0.209 0.074 0.132 0.132
C11N 0.243 0.209 0.209 0.074 0.132 0.132
C11IB 0.209 0.209 0.243 0.132 0.132 0.074
C11VB 0.209 0.243 0.209 0.132 0.074 0.132
C12NA 0.305 0.305 0.224 -0.148 -0.148 0.143
C12KC 0.224 0.305 0.305 -0.143 -0.148 0.148
C12S 0.224 0.305 0.305 -0.143 -0.148 0.148
C12PB 0.305 0.305 0.224 -0.148 -0.148 0.143
C12PC 0.305 0.224 0.305 -0.148 -0.143 0.148
C12I 0.305 0.224 0.305 0.148 0.143 0.148
C12BA 0.305 0.305 0.224 0.148 0.148 0.143
C12LC 0.224 0.305 0.305 0.143 0.148 0.148
C12N 0.224 0.305 0.305 0.143 0.148 0.148
C12IB 0.305 0.305 0.224 0.148 0.148 0.143
C12VB 0.305 0.224 0.305 0.148 0.143 0.148
C13NA 0.311 0.311 0.245 -0.163 -0.163 0.163
C13KC 0.245 0.311 0.311 -0.163 -0.163 0.163
C13S 0.245 0.311 0.311 -0.163 -0.163 0.163
C13PB 0.311 0.311 0.245 -0.163 -0.163 0.163
C13PC 0.311 0.245 0.311 -0.163 -0.163 0.163
C13I 0.311 0.245 0.311 0.163 0.163 0.163
C13BA 0.311 0.311 0.245 0.163 0.163 0.163
C13LC 0.245 0.311 0.311 0.163 0.163 0.163
C13N 0.245 0.311 0.311 0.163 0.163 0.163
C13IB 0.311 0.311 0.245 0.163 0.163 0.163
C13VB 0.311 0.245 0.311 0.163 0.163 0.163
C14NA 0.305 0.305 0.268 -0.178 -0.178 0.168
C14KC 0.268 0.305 0.305 -0.168 -0.178 0.178
C14S 0.268 0.305 0.305 -0.168 -0.178 0.178
C14PB 0.305 0.305 0.268 -0.178 -0.178 0.168
C14PC 0.305 0.268 0.305 -0.178 -0.168 0.178
C14I 0.305 0.268 0.305 0.178 0.168 0.178
C14BA 0.305 0.305 0.268 0.178 0.178 0.168
C14LC 0.268 0.305 0.305 0.168 0.178 0.178
C14N 0.268 0.305 0.305 0.168 0.178 0.178
C14IB 0.305 0.305 0.268 0.178 0.178 0.168
C14VB 0.305 0.268 0.305 0.178 0.168 0.178
C15NA 0.286 0.275 0.286 -0.127 -0.184 0.127
C15KC 0.286 0.286 0.275 -0.127 -0.127 0.184
C15S 0.286 0.275 0.286 -0.127 -0.184 0.127
C15PB 0.275 0.286 0.286 -0.184 -0.127 0.127
C15PC 0.286 0.286 0.275 -0.127 -0.127 0.184
C15BA 0.275 0.286 0.286 0.184 0.127 0.127
C15LC 0.286 0.275 0.286 0.127 0.184 0.127
C15I 0.286 0.286 0.275 0.127 0.127 0.184
C15IB 0.286 0.275 0.286 0.127 0.184 0.127
C15VB 0.275 0.286 0.286 0.184 0.127 0.127
C15N 0.286 0.286 0.275 0.127 0.127 0.184
loop_
_geom_bond_atom_site_label_1
_geom_bond_atom_site_label_2
_geom_bond_site_symmetry_1
_geom_bond_site_symmetry_2
Cu1 Cu2 1_555 1_555
Cu2 O2 1_555 1_555
O1 Cu1 1_555 1_555
O2 C8 1_555 1_555
C1 C2 1_555 1_555
C2 H1 1_555 1_555
C3 C1 1_555 1_555
H2 C3 1_555 1_555
C4 C2 1_555 1_555
H3 C4 1_555 1_555
C5 C3 1_555 1_555
H4 C5 1_555 1_555
C6 C4 1_555 1_555
C7 C6 1_555 1_555
C8 O1 1_555 1_555
C9 C7 1_555 1_555
H5 C9 1_555 1_555
C10 C9 1_555 1_555
C11 C7 1_555 1_555
H6 C11 1_555 1_555
C12 C10 1_555 1_555
C13 C12 1_555 1_555
C14 C13 1_555 1_555
C15 C14 1_555 1_555
H7 C15 1_555 1_555
Cu1G Cu2G 1_555 1_555
Cu1NA Cu2NA 1_555 1_555
Cu1DA Cu2DA 1_555 1_555
Cu1KC Cu2KC 1_555 1_555
Cu1VB Cu2VB 1_555 1_555
Cu1F Cu2F 1_555 1_555
Cu1MB Cu2MB 1_555 1_555
Cu1CB Cu2CB 1_555 1_555
Cu1JC Cu2JC 1_555 1_555
Cu1I Cu2I 1_555 1_555
Cu1HA Cu2HA 1_555 1_555
Cu1BA Cu2BA 1_555 1_555
Cu1EC Cu2EC 1_555 1_555
Cu1D Cu2D 1_555 1_555
Cu1GB Cu2GB 1_555 1_555
Cu1EB Cu2EB 1_555 1_555
Cu1DC Cu2DC 1_555 1_555
Cu2G O2ND 1_555 1_555
Cu2NA O2NA 1_555 1_555
Cu2DA O2JE 1_555 1_555
Cu2KC O2KC 1_555 1_555
Cu2VB O2EG 1_555 1_555
Cu2F O2ID 1_555 1_555
Cu2MB O2PB 1_555 1_555
Cu2CB O2DF 1_555 1_555
Cu2JC O2PC 1_555 1_555
Cu2I O2I 1_555 1_555
Cu2HA O2CE 1_555 1_555
Cu2BA O2BA 1_555 1_555
Cu2EC O2ZF 1_555 1_555
Cu2D O2N 1_555 1_555
Cu2GB O2RE 1_555 1_555
Cu2EB O2IB 1_555 1_555
Cu2DC O2UF 1_555 1_555
O1ND Cu1G 1_555 1_555
O1NA Cu1NA 1_555 1_555
O1JE Cu1DA 1_555 1_555
O1KC Cu1KC 1_555 1_555
O1EG Cu1VB 1_555 1_555
O1S Cu1 1_555 1_555
O1ID Cu1F 1_555 1_555
O1PB Cu1MB 1_555 1_555
O1DF Cu1CB 1_555 1_555
O1PC Cu1JC 1_555 1_555
O1LF Cu1VB 1_555 1_555
O1TC Cu1 1_555 1_555
O1I Cu1I 1_555 1_555
O1CE Cu1HA 1_555 1_555
O1BA Cu1BA 1_555 1_555
O1ZF Cu1EC 1_555 1_555
O1LC Cu1VB 1_555 1_555
O1JD Cu1 1_555 1_555
O1N Cu1D 1_555 1_555
O1RE Cu1GB 1_555 1_555
O1IB Cu1EB 1_555 1_555
O1UF Cu1DC 1_555 1_555
O1VB Cu1VB 1_555 1_555
O1HD Cu1G 1_555 1_555
O1G Cu1G 1_555 1_555
O1O Cu1G 1_555 1_555
O1TA Cu1NA 1_555 1_555
O1EE Cu1NA 1_555 1_555
O1WD Cu1NA 1_555 1_555
O1GE Cu1DA 1_555 1_555
O1DA Cu1DA 1_555 1_555
O1JA Cu1DA 1_555 1_555
O1NC Cu1KC 1_555 1_555
O1XF Cu1KC 1_555 1_555
O1RF Cu1KC 1_555 1_555
O2ND C8ND 1_555 1_555
O2NA C8NA 1_555 1_555
O2JE C8JE 1_555 1_555
O2KC C8KC 1_555 1_555
O2EG C8EG 1_555 1_555
O2S Cu2 1_555 1_555
O2ID C8ID 1_555 1_555
O2PB C8PB 1_555 1_555
O2DF C8DF 1_555 1_555
O2PC C8PC 1_555 1_555
O2LF Cu2VB 1_555 1_555
O2TC Cu2 1_555 1_555
O2I C8I 1_555 1_555
O2CE C8CE 1_555 1_555
O2BA C8BA 1_555 1_555
O2ZF C8ZF 1_555 1_555
O2LC Cu2VB 1_555 1_555
O2JD Cu2 1_555 1_555
O2N C8N 1_555 1_555
O2RE C8RE 1_555 1_555
O2IB C8IB 1_555 1_555
O2UF C8UF 1_555 1_555
O2VB Cu2VB 1_555 1_555
O2HD Cu2G 1_555 1_555
O2G Cu2G 1_555 1_555
O2O Cu2G 1_555 1_555
O2TA Cu2NA 1_555 1_555
O2EE Cu2NA 1_555 1_555
O2WD Cu2NA 1_555 1_555
O2GE Cu2DA 1_555 1_555
O2DA Cu2DA 1_555 1_555
O2JA Cu2DA 1_555 1_555
O2NC Cu2KC 1_555 1_555
O2XF Cu2KC 1_555 1_555
O2RF Cu2KC 1_555 1_555
C1ND C2ND 1_555 1_555
C1NA C2NA 1_555 1_555
C1JE C2JE 1_555 1_555
C1KC C2KC 1_555 1_555
C1EG C2EG 1_555 1_555
C1S C2S 1_555 1_555
C1ID C2ID 1_555 1_555
C1PB C2PB 1_555 1_555
C1DF C2DF 1_555 1_555
C1PC C2PC 1_555 1_555
C1LF C2LF 1_555 1_555
C1TC C2TC 1_555 1_555
C1I C2I 1_555 1_555
C1CE C2CE 1_555 1_555
C1BA C2BA 1_555 1_555
C1ZF C2ZF 1_555 1_555
C1LC C2LC 1_555 1_555
C1JD C2JD 1_555 1_555
C1N C2N 1_555 1_555
C1RE C2RE 1_555 1_555
C1IB C2IB 1_555 1_555
C1UF C2UF 1_555 1_555
C1VB C2VB 1_555 1_555
C2ND H1ND 1_555 1_555
C2NA H1NA 1_555 1_555
C2JE H1JE 1_555 1_555
C2KC H1KC 1_555 1_555
C2EG H1EG 1_555 1_555
C2S H1S 1_555 1_555
C2ID H1ID 1_555 1_555
C2PB H1PB 1_555 1_555
C2DF H1DF 1_555 1_555
C2PC H1PC 1_555 1_555
C2LF H1LF 1_555 1_555
C2TC H1TC 1_555 1_555
C2I H1I 1_555 1_555
C2CE H1CE 1_555 1_555
C2BA H1BA 1_555 1_555
C2ZF H1ZF 1_555 1_555
C2LC H1LC 1_555 1_555
C2JD H1JD 1_555 1_555
C2N H1N 1_555 1_555
C2RE H1RE 1_555 1_555
C2IB H1IB 1_555 1_555
C2UF H1UF 1_555 1_555
C2VB H1VB 1_555 1_555
C3ND C1ND 1_555 1_555
C3NA C1NA 1_555 1_555
C3JE C1JE 1_555 1_555
C3KC C1KC 1_555 1_555
C3EG C1EG 1_555 1_555
C3S C1S 1_555 1_555
C3ID C1ID 1_555 1_555
C3PB C1PB 1_555 1_555
C3DF C1DF 1_555 1_555
C3PC C1PC 1_555 1_555
C3LF C1LF 1_555 1_555
C3TC C1TC 1_555 1_555
C3I C1I 1_555 1_555
C3CE C1CE 1_555 1_555
C3BA C1BA 1_555 1_555
C3ZF C1ZF 1_555 1_555
C3LC C1LC 1_555 1_555
C3JD C1JD 1_555 1_555
C3N C1N 1_555 1_555
C3RE C1RE 1_555 1_555
C3IB C1IB 1_555 1_555
C3UF C1UF 1_555 1_555
C3VB C1VB 1_555 1_555
H2ND C3ND 1_555 1_555
H2NA C3NA 1_555 1_555
H2JE C3JE 1_555 1_555
H2KC C3KC 1_555 1_555
H2EG C3EG 1_555 1_555
H2S C3S 1_555 1_555
H2ID C3ID 1_555 1_555
H2PB C3PB 1_555 1_555
H2DF C3DF 1_555 1_555
H2PC C3PC 1_555 1_555
H2LF C3LF 1_555 1_555
H2TC C3TC 1_555 1_555
H2I C3I 1_555 1_555
H2CE C3CE 1_555 1_555
H2BA C3BA 1_555 1_555
H2ZF C3ZF 1_555 1_555
H2LC C3LC 1_555 1_555
H2JD C3JD 1_555 1_555
H2N C3N 1_555 1_555
H2RE C3RE 1_555 1_555
H2IB C3IB 1_555 1_555
H2UF C3UF 1_555 1_555
H2VB C3VB 1_555 1_555
C4ND C2ND 1_555 1_555
C4NA C2NA 1_555 1_555
C4JE C2JE 1_555 1_555
C4KC C2KC 1_555 1_555
C4EG C2EG 1_555 1_555
C4S C2S 1_555 1_555
C4ID C2ID 1_555 1_555
C4PB C2PB 1_555 1_555
C4DF C2DF 1_555 1_555
C4PC C2PC 1_555 1_555
C4LF C2LF 1_555 1_555
C4TC C2TC 1_555 1_555
C4I C2I 1_555 1_555
C4CE C2CE 1_555 1_555
C4BA C2BA 1_555 1_555
C4ZF C2ZF 1_555 1_555
C4LC C2LC 1_555 1_555
C4JD C2JD 1_555 1_555
C4N C2N 1_555 1_555
C4RE C2RE 1_555 1_555
C4IB C2IB 1_555 1_555
C4UF C2UF 1_555 1_555
C4VB C2VB 1_555 1_555
H3ND C4ND 1_555 1_555
H3NA C4NA 1_555 1_555
H3JE C4JE 1_555 1_555
H3KC C4KC 1_555 1_555
H3EG C4EG 1_555 1_555
H3S C4S 1_555 1_555
H3ID C4ID 1_555 1_555
H3PB C4PB 1_555 1_555
H3DF C4DF 1_555 1_555
H3PC C4PC 1_555 1_555
H3LF C4LF 1_555 1_555
H3TC C4TC 1_555 1_555
H3I C4I 1_555 1_555
H3CE C4CE 1_555 1_555
H3BA C4BA 1_555 1_555
H3ZF C4ZF 1_555 1_555
H3LC C4LC 1_555 1_555
H3JD C4JD 1_555 1_555
H3N C4N 1_555 1_555
H3RE C4RE 1_555 1_555
H3IB C4IB 1_555 1_555
H3UF C4UF 1_555 1_555
H3VB C4VB 1_555 1_555
C5ND C3ND 1_555 1_555
C5NA C3NA 1_555 1_555
C5JE C3JE 1_555 1_555
C5KC C3KC 1_555 1_555
C5EG C3EG 1_555 1_555
C5S C3S 1_555 1_555
C5ID C3ID 1_555 1_555
C5PB C3PB 1_555 1_555
C5DF C3DF 1_555 1_555
C5PC C3PC 1_555 1_555
C5LF C3LF 1_555 1_555
C5TC C3TC 1_555 1_555
C5I C3I 1_555 1_555
C5CE C3CE 1_555 1_555
C5BA C3BA 1_555 1_555
C5ZF C3ZF 1_555 1_555
C5LC C3LC 1_555 1_555
C5JD C3JD 1_555 1_555
C5N C3N 1_555 1_555
C5RE C3RE 1_555 1_555
C5IB C3IB 1_555 1_555
C5UF C3UF 1_555 1_555
C5VB C3VB 1_555 1_555
H4ND C5ND 1_555 1_555
H4NA C5NA 1_555 1_555
H4JE C5JE 1_555 1_555
H4KC C5KC 1_555 1_555
H4EG C5EG 1_555 1_555
H4S C5S 1_555 1_555
H4ID C5ID 1_555 1_555
H4PB C5PB 1_555 1_555
H4DF C5DF 1_555 1_555
H4PC C5PC 1_555 1_555
H4LF C5LF 1_555 1_555
H4TC C5TC 1_555 1_555
H4I C5I 1_555 1_555
H4CE C5CE 1_555 1_555
H4BA C5BA 1_555 1_555
H4ZF C5ZF 1_555 1_555
H4LC C5LC 1_555 1_555
H4JD C5JD 1_555 1_555
H4N C5N 1_555 1_555
H4RE C5RE 1_555 1_555
H4IB C5IB 1_555 1_555
H4UF C5UF 1_555 1_555
H4VB C5VB 1_555 1_555
C6ND C4ND 1_555 1_555
C6NA C4NA 1_555 1_555
C6JE C4JE 1_555 1_555
C6KC C4KC 1_555 1_555
C6EG C4EG 1_555 1_555
C6S C4S 1_555 1_555
C6ID C4ID 1_555 1_555
C6PB C4PB 1_555 1_555
C6DF C4DF 1_555 1_555
C6PC C4PC 1_555 1_555
C6LF C4LF 1_555 1_555
C6TC C4TC 1_555 1_555
C6I C4I 1_555 1_555
C6CE C4CE 1_555 1_555
C6BA C4BA 1_555 1_555
C6ZF C4ZF 1_555 1_555
C6LC C4LC 1_555 1_555
C6JD C4JD 1_555 1_555
C6N C4N 1_555 1_555
C6RE C4RE 1_555 1_555
C6IB C4IB 1_555 1_555
C6UF C4UF 1_555 1_555
C6VB C4VB 1_555 1_555
C7ND C11 1_555 1_555
C7NA C6NA 1_555 1_555
C7JE C6JE 1_555 1_555
C7KC C6KC 1_555 1_555
C7EG C6EG 1_555 1_555
C7S C6S 1_555 1_555
C7ID C6ID 1_555 1_555
C7PB C6PB 1_555 1_555
C7DF C6DF 1_555 1_555
C7PC C6PC 1_555 1_555
C7LF C6LF 1_555 1_555
C7TC C6TC 1_555 1_555
C7I C6I 1_555 1_555
C7CE C6CE 1_555 1_555
C7BA C6BA 1_555 1_555
C7ZF C6ZF 1_555 1_555
C7LC C6LC 1_555 1_555
C7JD C6JD 1_555 1_555
C7N C6N 1_555 1_555
C7RE C6RE 1_555 1_555
C7IB C6IB 1_555 1_555
C7UF C6UF 1_555 1_555
C7VB C6VB 1_555 1_555
C8ND O1ND 1_555 1_555
C8NA O1NA 1_555 1_555
C8JE O1JE 1_555 1_555
C8KC O1KC 1_555 1_555
C8EG O1EG 1_555 1_555
C8S O1S 1_555 1_555
C8ID O1ID 1_555 1_555
C8PB O1PB 1_555 1_555
C8DF O1DF 1_555 1_555
C8PC O1PC 1_555 1_555
C8LF O1LF 1_555 1_555
C8TC O1TC 1_555 1_555
C8I O1I 1_555 1_555
C8CE O1CE 1_555 1_555
C8BA O1BA 1_555 1_555
C8ZF O1ZF 1_555 1_555
C8LC O1LC 1_555 1_555
C8JD O1JD 1_555 1_555
C8N O1N 1_555 1_555
C8RE O1RE 1_555 1_555
C8IB O1IB 1_555 1_555
C8UF O1UF 1_555 1_555
C8VB O1VB 1_555 1_555
C9ND C10 1_555 1_555
C9NA C7NA 1_555 1_555
C9JE C7JE 1_555 1_555
C9KC C7KC 1_555 1_555
C9EG C7EG 1_555 1_555
C9S C7S 1_555 1_555
C9ID C7ID 1_555 1_555
C9PB C7PB 1_555 1_555
C9DF C7DF 1_555 1_555
C9PC C7PC 1_555 1_555
C9LF C7LF 1_555 1_555
C9TC C7TC 1_555 1_555
C9I C7I 1_555 1_555
C9CE C7CE 1_555 1_555
C9BA C7BA 1_555 1_555
C9ZF C7ZF 1_555 1_555
C9LC C7LC 1_555 1_555
C9JD C7JD 1_555 1_555
C9N C7N 1_555 1_555
C9RE C7RE 1_555 1_555
C9IB C7IB 1_555 1_555
C9UF C7UF 1_555 1_555
C9VB C7VB 1_555 1_555
H5ND C9ND 1_555 1_555
H5JE C9JE 1_555 1_555
H5NA C9NA 1_555 1_555
H5EG C9EG 1_555 1_555
H5KC C9KC 1_555 1_555
H5S C9S 1_555 1_555
H5ID C9ID 1_555 1_555
H5DF C9DF 1_555 1_555
H5PB C9PB 1_555 1_555
H5LF C9LF 1_555 1_555
H5PC C9PC 1_555 1_555
H5TC C9TC 1_555 1_555
H5I C9I 1_555 1_555
H5BA C9BA 1_555 1_555
H5CE C9CE 1_555 1_555
H5LC C9LC 1_555 1_555
H5ZF C9ZF 1_555 1_555
H5JD C9JD 1_555 1_555
H5N C9N 1_555 1_555
H5IB C9IB 1_555 1_555
H5RE C9RE 1_555 1_555
H5VB C9VB 1_555 1_555
H5UF C9UF 1_555 1_555
C10NA C9NA 1_555 1_555
C10KC C9KC 1_555 1_555
C10S C9S 1_555 1_555
C10PB C9PB 1_555 1_555
C10PC C9PC 1_555 1_555
C10I C9TC 1_555 1_555
C10BA C9CE 1_555 1_555
C10LC C9ZF 1_555 1_555
C10N C9JD 1_555 1_555
C10IB C9RE 1_555 1_555
C10VB C9UF 1_555 1_555
C11NA C7NA 1_555 1_555
C11KC C7KC 1_555 1_555
C11S C7S 1_555 1_555
C11PB C7PB 1_555 1_555
C11PC C7PC 1_555 1_555
C11I C7TC 1_555 1_555
C11BA C7CE 1_555 1_555
C11LC C7ZF 1_555 1_555
C11N C7JD 1_555 1_555
C11IB C7RE 1_555 1_555
C11VB C7UF 1_555 1_555
H6NA C11NA 1_555 1_555
H6KC C11KC 1_555 1_555
H6S C11S 1_555 1_555
H6PB C11PB 1_555 1_555
H6PC C11PC 1_555 1_555
H6I C11I 1_555 1_555
H6BA C11BA 1_555 1_555
H6LC C11LC 1_555 1_555
H6N C11N 1_555 1_555
H6IB C11IB 1_555 1_555
H6VB C11VB 1_555 1_555
C12NA C10NA 1_555 1_555
C12KC C10KC 1_555 1_555
C12S C10S 1_555 1_555
C12PB C10PB 1_555 1_555
C12PC C10PC 1_555 1_555
C12I C10I 1_555 1_555
C12BA C10BA 1_555 1_555
C12LC C10LC 1_555 1_555
C12N C10N 1_555 1_555
C12IB C10IB 1_555 1_555
C12VB C10VB 1_555 1_555
C13NA C12NA 1_555 1_555
C13KC C12KC 1_555 1_555
C13S C12S 1_555 1_555
C13PB C12PB 1_555 1_555
C13PC C12PC 1_555 1_555
C13I C12I 1_555 1_555
C13BA C12BA 1_555 1_555
C13LC C12LC 1_555 1_555
C13N C12N 1_555 1_555
C13IB C12IB 1_555 1_555
C13VB C12VB 1_555 1_555
C14NA C15 1_555 1_555
C14KC C13KC 1_555 1_555
C14S C13S 1_555 1_555
C14PB C13PB 1_555 1_555
C14PC C13PC 1_555 1_555
C14I C13I 1_555 1_555
C14BA C13BA 1_555 1_555
C14LC C13LC 1_555 1_555
C14N C13N 1_555 1_555
C14IB C13IB 1_555 1_555
C14VB C13VB 1_555 1_555
C15NA C14NA 1_555 1_555
C15KC C14 1_555 1_555
C15S C14S 1_555 1_555
C15PB C14PB 1_555 1_555
C15PC C14S 1_555 1_555
C15BA C14I 1_555 1_555
C15LC C14BA 1_555 1_555
C15I C14I 1_555 1_555
C15IB C14N 1_555 1_555
C15VB C14IB 1_555 1_555
C15N C14N 1_555 1_555
H7KC C15KC 1_555 1_555
H7NA C15NA 1_555 1_555
H7S C15S 1_555 1_555
H7PC C15PC 1_555 1_555
H7PB C15PB 1_555 1_555
H7BA C15BA 1_555 1_555
H7I C15I 1_555 1_555
H7LC C15LC 1_555 1_555
H7IB C15IB 1_555 1_555
H7N C15N 1_555 1_555
H7VB C15VB 1_555 1_555
C1 C8 1_555 1_555
C5 C6 1_555 1_555
O2S C8S 1_555 1_555
O2LF C8LF 1_555 1_555
O2TC C8TC 1_555 1_555
O2LC C8LC 1_555 1_555
O2JD C8JD 1_555 1_555
O2VB C8VB 1_555 1_555
C1ND C8ND 1_555 1_555
C1NA C8NA 1_555 1_555
C1JE C8JE 1_555 1_555
C1KC C8KC 1_555 1_555
C1EG C8EG 1_555 1_555
C1S C8S 1_555 1_555
C1ID C8ID 1_555 1_555
C1PB C8PB 1_555 1_555
C1DF C8DF 1_555 1_555
C1PC C8PC 1_555 1_555
C1LF C8LF 1_555 1_555
C1TC C8TC 1_555 1_555
C1I C8I 1_555 1_555
C1CE C8CE 1_555 1_555
C1BA C8BA 1_555 1_555
C1ZF C8ZF 1_555 1_555
C1LC C8LC 1_555 1_555
C1JD C8JD 1_555 1_555
C1N C8N 1_555 1_555
C1RE C8RE 1_555 1_555
C1IB C8IB 1_555 1_555
C1UF C8UF 1_555 1_555
C1VB C8VB 1_555 1_555
C5ND C6ND 1_555 1_555
C5NA C6NA 1_555 1_555
C5JE C6JE 1_555 1_555
C5KC C6KC 1_555 1_555
C5EG C6EG 1_555 1_555
C5S C6S 1_555 1_555
C5ID C6ID 1_555 1_555
C5PB C6PB 1_555 1_555
C5DF C6DF 1_555 1_555
C5PC C6PC 1_555 1_555
C5LF C6LF 1_555 1_555
C5TC C6TC 1_555 1_555
C5I C6I 1_555 1_555
C5CE C6CE 1_555 1_555
C5BA C6BA 1_555 1_555
C5ZF C6ZF 1_555 1_555
C5LC C6LC 1_555 1_555
C5JD C6JD 1_555 1_555
C5N C6N 1_555 1_555
C5RE C6RE 1_555 1_555
C5IB C6IB 1_555 1_555
C5UF C6UF 1_555 1_555
C5VB C6VB 1_555 1_555
C6ND C7ND 1_555 1_555
C7ND C9ND 1_555 1_555
C7JE C11NA 1_555 1_555
C7EG C11KC 1_555 1_555
C7ID C11S 1_555 1_555
C7DF C11PB 1_555 1_555
C7LF C11PC 1_555 1_555
C7I C11I 1_555 1_555
C7BA C11BA 1_555 1_555
C7LC C11LC 1_555 1_555
C7N C11N 1_555 1_555
C7IB C11IB 1_555 1_555
C7VB C11VB 1_555 1_555
C9JE C10NA 1_555 1_555
C9EG C10KC 1_555 1_555
C9ID C10S 1_555 1_555
C9DF C10PB 1_555 1_555
C9LF C10PC 1_555 1_555
C9I C10I 1_555 1_555
C9BA C10BA 1_555 1_555
C9LC C10LC 1_555 1_555
C9N C10N 1_555 1_555
C9IB C10IB 1_555 1_555
C9VB C10VB 1_555 1_555
C13NA C14NA 1_555 1_555
C14KC C15NA 1_555 1_555
C14KC C15KC 1_555 1_555
C14PB C15S 1_555 1_555
C14PC C15PB 1_555 1_555
C14PC C15PC 1_555 1_555
C14BA C15BA 1_555 1_555
C14LC C15LC 1_555 1_555
C14LC C15I 1_555 1_555
C14IB C15IB 1_555 1_555
C14VB C15VB 1_555 1_555
C14VB C15N 1_555 1_555

#END
