
#######################################################################
#
#                 Cambridge Crystallographic Data Centre
#                                CCDC 
#
#######################################################################
#
# If this CIF has been generated from an entry in the Cambridge 
# Structural Database, then it will include bibliographic, chemical, 
# crystal, experimental, refinement or atomic coordinate data resulting 
# from the CCDC's data processing and validation procedures.
#
#######################################################################

data_INOMIJ
_chemical_formula_moiety         '(C24 H33 Ca2 N3 O12 S2)n'
_symmetry_cell_setting           orthorhombic
_symmetry_space_group_name_H-M   'P c a 21'
_symmetry_Int_Tables_number      29
_space_group_name_Hall           'P 2c -2ac'
loop_
_symmetry_equiv_pos_site_id
_symmetry_equiv_pos_as_xyz
1 x,y,z
2 -x,-y,1/2+z
3 1/2-x,y,1/2+z
4 1/2+x,-y,z
_cell_length_a                   22.6505(6)
_cell_length_b                   11.2352(3)
_cell_length_c                   12.7961(3)
_cell_angle_alpha                90
_cell_angle_beta                 90
_cell_angle_gamma                90
_cell_volume                     3256.39
loop_
_atom_site_label
_atom_site_type_symbol
_atom_site_fract_x
_atom_site_fract_y
_atom_site_fract_z
Ca1 Ca 0.43405(3) 0.62210(8) 0.07690(7)
Ca2 Ca 0.50857(3) 0.49376(7) 0.31274(7)
S1 S 0.50879(5) 1.03255(10) 0.22685(8)
S2 S 0.27489(4) 0.48743(12) 0.40768(9)
C1 C 0.2830(2) 0.4997(5) 0.2079(4)
H1 H 0.2985 0.5028 0.1389
C2 C 0.22239(19) 0.5095(4) 0.2317(4)
H2 H 0.1925 0.5179 0.1801
O1 O 0.48510(13) 0.4493(3) -0.0080(2)
O2 O 0.41051(12) 0.4961(3) 0.2170(2)
C3 C 0.49555(19) 0.7862(4) 0.2357(4)
C4 C 0.38205(18) 0.4735(4) 0.2995(3)
O3 O 0.50929(16) 1.2907(3) 0.2528(2)
O4 O 0.49504(14) 0.7899(3) 0.1369(2)
O5 O 0.48640(16) 0.6948(3) 0.2893(3)
O6 O 0.53030(13) 0.5232(3) 0.1296(2)
C5 C 0.31680(18) 0.4851(4) 0.2953(3)
O7 O 0.40658(12) 0.4433(3) 0.3832(2)
O8 O 0.52925(14) 1.2987(3) 0.4228(2)
O9 O 0.10931(13) 0.4948(3) 0.3266(3)
O10 O 0.14891(13) 0.5485(3) 0.4803(2)
O11 O 0.36387(14) 0.7545(3) 0.1434(3)
C6 C 0.50683(19) 0.8993(4) 0.2930(4)
C7 C 0.21089(18) 0.5059(4) 0.3367(3)
C8 C 0.5209(2) 1.1096(4) 0.3413(3)
C9 C 0.2658(3) 0.7844(5) 0.0663(5)
H3 H 0.2574 0.8660 0.0438
H4 H 0.2293 0.7467 0.0908
H5 H 0.2818 0.7391 0.0073
N1 N 0.2923(2) 0.8261(5) 0.2461(4)
C10 C 0.15150(18) 0.5174(5) 0.3861(3)
C11 C 0.3346(3) 0.8236(6) 0.3339(5)
H6 H 0.3257 0.7558 0.3794
H7 H 0.3314 0.8977 0.3739
H8 H 0.3748 0.8157 0.3065
C12 C 0.5234(2) 1.0349(4) 0.4261(4)
H9 H 0.5301 1.0612 0.4957
C13 C 0.5207(2) 1.2415(4) 0.3381(4)
C14 C 0.5148(2) 0.9145(4) 0.3985(4)
H10 H 0.5146 0.8510 0.4475
C15 C 0.3126(3) 0.7866(6) 0.1581(5)
C16 C 0.2294(3) 0.8577(6) 0.2641(6)
H11 H 0.2074 0.7862 0.2842
H12 H 0.2126 0.8907 0.1997
H13 H 0.2268 0.9169 0.3201
C17 C 0.52744(17) 0.4474(4) 0.0566(3)
C18 C 0.5742(2) 0.3529(4) 0.0465(4)
H14 H 0.6127 0.3864 0.0656
H15 H 0.5755 0.3244 -0.0259
H16 H 0.5648 0.2864 0.0931
Ca1A Ca 0.56595(3) 1.37790(8) 0.57690(7)
Ca1B Ca 0.06595(3) 0.62210(8) 0.57690(7)
Ca2_2 Ca 0.50857(3) 1.49376(7) 0.31274(7)
Ca2A Ca 0.49143(3) 0.50624(7) -0.18726(7)
Ca2C Ca 0.00857(3) 0.50624(7) 0.31274(7)
O1A O 0.51490(13) 0.5507(3) 0.4920(2)
O3_2 O 0.50929(16) 0.2907(3) 0.2528(2)
O8_2 O 0.52925(14) 0.2987(3) 0.4228(2)
O8A O 0.47075(14) 0.7013(3) -0.0772(2)
O9C O 0.60931(13) 0.5052(3) 0.3266(3)
O10B O 0.35109(13) 0.5485(3) -0.0197(2)
N2 N 0.40101(17) 0.2605(4) 0.5277(3)
H17 H 0.4396 0.2494 0.5479
H18 H 0.3994 0.3285 0.4877
C19 C 0.3817(2) 0.1570(6) 0.4635(5)
H19 H 0.4036 0.1562 0.3975
H20 H 0.3393 0.1636 0.4490
H21 H 0.3894 0.0831 0.5018
C20 C 0.3638(2) 0.2765(5) 0.6218(4)
H22 H 0.3232 0.2943 0.6006
H23 H 0.3793 0.3425 0.6638
H24 H 0.3643 0.2033 0.6634
C21 C 0.6156(2) 0.7469(5) 0.5655(5)
H25 H 0.6055 0.7308 0.4924
H26 H 0.5826 0.7880 0.5995
H27 H 0.6233 0.6717 0.6017
N3 N 0.6686(2) 0.8225(5) 0.5699(5)
C22 C 0.6989(3) 0.8596(6) 0.4888(6)
O12 O 0.74435(17) 0.9207(4) 0.4981(5)
C23 C 0.6888(4) 0.8570(8) 0.6764(6)
H28 H 0.6576 0.9020 0.7117
H29 H 0.7243 0.9064 0.6709
H30 H 0.6979 0.7852 0.7168
C24 C 0.6759(3) 0.8243(6) 0.3828(5)
H31 H 0.6718 0.7376 0.3796
H32 H 0.7037 0.8508 0.3289
H33 H 0.6374 0.8616 0.3711
loop_
_geom_bond_atom_site_label_1
_geom_bond_atom_site_label_2
_geom_bond_site_symmetry_1
_geom_bond_site_symmetry_2
Ca1 O1 1_555 1_555
Ca2 O2 1_555 1_555
S1 C6 1_555 1_555
S2 C5 1_555 1_555
C1 H1 1_555 1_555
C2 C1 1_555 1_555
H2 C2 1_555 1_555
O1 C17 1_555 1_555
O2 Ca1 1_555 1_555
C3 O4 1_555 1_555
C4 O2 1_555 1_555
O3 C13 1_555 1_555
O4 Ca1 1_555 1_555
O5 Ca2 1_555 1_555
O6 Ca1 1_555 1_555
C5 C1 1_555 1_555
O7 Ca2 1_555 1_555
O8 C13 1_555 1_555
O9 C10 1_555 1_555
O10 C10 1_555 1_555
O11 Ca1 1_555 1_555
C6 C3 1_555 1_555
C7 S2 1_555 1_555
C8 S1 1_555 1_555
C9 H3 1_555 1_555
H4 C9 1_555 1_555
H5 C9 1_555 1_555
N1 C11 1_555 1_555
C10 C7 1_555 1_555
C11 H6 1_555 1_555
H7 C11 1_555 1_555
H8 C11 1_555 1_555
C12 C8 1_555 1_555
H9 C12 1_555 1_555
C13 C8 1_555 1_555
C14 C6 1_555 1_555
H10 C14 1_555 1_555
C15 O11 1_555 1_555
C16 N1 1_555 1_555
H11 C16 1_555 1_555
H12 C16 1_555 1_555
H13 C16 1_555 1_555
C17 O6 1_555 1_555
C18 C17 1_555 1_555
H14 C18 1_555 1_555
H15 C18 1_555 1_555
H16 C18 1_555 1_555
N2 H17 1_555 1_555
H18 N2 1_555 1_555
C19 N2 1_555 1_555
H19 C19 1_555 1_555
H20 C19 1_555 1_555
H21 C19 1_555 1_555
C20 N2 1_555 1_555
H22 C20 1_555 1_555
H23 C20 1_555 1_555
H24 C20 1_555 1_555
C21 H25 1_555 1_555
H26 C21 1_555 1_555
H27 C21 1_555 1_555
N3 C21 1_555 1_555
C22 N3 1_555 1_555
O12 C22 1_555 1_555
C23 N3 1_555 1_555
H28 C23 1_555 1_555
H29 C23 1_555 1_555
H30 C23 1_555 1_555
C24 C22 1_555 1_555
H31 C24 1_555 1_555
H32 C24 1_555 1_555
H33 C24 1_555 1_555
Ca1A O8 1_555 1_555
Ca1B O10 1_555 1_555
Ca2_2 O3 1_555 1_555
Ca2A O1 1_555 1_555
Ca2C O9 1_555 1_555
O1A Ca2 1_555 1_555
O3_2 Ca2 1_555 1_555
O8_2 Ca2 1_555 1_555
O8A Ca1 1_555 1_555
O9C Ca2 1_555 1_555
O10B Ca1 1_555 1_555
Ca2 O6 1_555 1_555
C2 C7 1_555 1_555
C3 O5 1_555 1_555
C4 C5 1_555 1_555
C4 O7 1_555 1_555
O8 Ca2_2 1_555 1_555
C9 C15 1_555 1_555
N1 C15 1_555 1_555
C12 C14 1_555 1_555
Ca2A O8A 1_555 1_555

#END
