
#######################################################################
#
#                 Cambridge Crystallographic Data Centre
#                                CCDC 
#
#######################################################################
#
# If this CIF has been generated from an entry in the Cambridge 
# Structural Database, then it will include bibliographic, chemical, 
# crystal, experimental, refinement or atomic coordinate data resulting 
# from the CCDC's data processing and validation procedures.
#
#######################################################################

data_TIRLIQ
_chemical_formula_moiety         '(C35 H26 N2 O13 Zn3)n'
_symmetry_cell_setting           monoclinic
_symmetry_space_group_name_H-M   'P 21/c'
_symmetry_Int_Tables_number      14
_space_group_name_Hall           '-P 2ybc'
loop_
_symmetry_equiv_pos_site_id
_symmetry_equiv_pos_as_xyz
1 x,y,z
2 -x,1/2+y,1/2-z
3 -x,-y,-z
4 x,1/2-y,1/2+z
_cell_length_a                   17.142(3)
_cell_length_b                   21.544(4)
_cell_length_c                   11.805(2)
_cell_angle_alpha                90
_cell_angle_beta                 106.441(3)
_cell_angle_gamma                90
_cell_volume                     4181.41
loop_
_atom_site_label
_atom_site_type_symbol
_atom_site_fract_x
_atom_site_fract_y
_atom_site_fract_z
Zn1 Zn 0.27275(4) 0.42794(3) 0.17676(6)
Zn2 Zn 0.17148(4) 0.37960(4) 0.35976(7)
Zn3 Zn -0.36568(4) 0.46748(3) -0.06487(6)
O1 O 0.0790(3) 0.3926(2) 0.2171(4)
O2 O 0.1551(2) 0.4171(2) 0.0965(4)
O3 O -0.2236(3) 0.4287(3) 0.0537(5)
O4 O -0.2684(3) 0.4697(2) -0.1251(4)
O5 O 0.3933(3) 0.4388(2) 0.2613(4)
O6 O 0.4564(3) 0.5194(2) 0.2110(4)
O7 O 0.7563(3) 0.5456(2) 0.6625(4)
O8 O 0.7267(3) 0.5796(3) 0.4823(5)
O9 O 0.3776(3) 0.4671(2) -0.0421(4)
O10 O 0.2909(3) 0.4067(2) 0.0165(4)
O11 O 0.2274(3) 0.1982(2) -0.1519(5)
O12 O 0.2936(3) 0.1632(2) -0.2758(5)
N1 N 0.1070(4) 0.3511(3) 0.4683(5)
N2 N -0.4051(3) 0.3900(3) -0.0037(5)
C2 C 0.1421(6) 0.3243(8) 0.5688(11)
H1 H 0.1984 0.3202 0.5909
C3 C 0.0997(9) 0.3013(9) 0.6457(13)
H2 H 0.1279 0.2823 0.7162
C4 C 0.0226(10) 0.3063(11) 0.6191(16)
H3 H -0.0057 0.2889 0.6677
C5 C -0.0196(9) 0.3382(11) 0.5160(17)
H4 H -0.0755 0.3447 0.4963
C6 C 0.0296(7) 0.3607(10) 0.4419(13)
H5 H 0.0043 0.3826 0.3734
C7 C -0.3958(6) 0.3333(4) -0.0427(9)
H6 H -0.3676 0.3295 -0.0990
C8 C -0.4243(8) 0.2816(4) -0.0067(12)
H7 H -0.4155 0.2431 -0.0366
C9 C -0.4666(7) 0.2864(5) 0.0751(12)
H8 H -0.4863 0.2509 0.1026
C10 C -0.4801(6) 0.3433(5) 0.1164(9)
H9 H -0.5105 0.3478 0.1697
C11 C -0.4472(5) 0.3933(4) 0.0764(7)
H10 H -0.4543 0.4322 0.1064
C12 C 0.0882(4) 0.4076(3) 0.1178(6)
C13 C 0.0135(4) 0.4159(3) 0.0162(6)
C14 C 0.0213(4) 0.4208(4) -0.0963(6)
H11 H 0.0723 0.4159 -0.1083
C15 C -0.0443(5) 0.4329(4) -0.1904(7)
H12 H -0.0379 0.4367 -0.2657
C16 C -0.1199(4) 0.4394(4) -0.1738(6)
H13 H -0.1649 0.4469 -0.2380
C17 C -0.1293(4) 0.4348(3) -0.0596(6)
C18 C -0.0622(4) 0.4220(3) 0.0345(5)
H14 H -0.0680 0.4174 0.1100
C19 C -0.2113(4) 0.4442(3) -0.0397(6)
C20 C 0.4527(4) 0.4739(3) 0.2772(5)
C21 C 0.5230(4) 0.4612(3) 0.3806(5)
C22 C 0.5257(4) 0.4082(3) 0.4485(6)
H15 H 0.4845 0.3788 0.4259
C23 C 0.5895(5) 0.3987(3) 0.5502(7)
H16 H 0.5913 0.3627 0.5943
C24 C 0.6501(4) 0.4426(3) 0.5857(6)
H17 H 0.6917 0.4370 0.6552
C25 C 0.6488(4) 0.4943(3) 0.5186(5)
C26 C 0.5862(4) 0.5039(3) 0.4160(5)
H18 H 0.5864 0.5391 0.3706
C27 C 0.7131(4) 0.5434(3) 0.5553(6)
C28 C 0.3378(4) 0.4171(3) -0.0435(5)
C29 C 0.3483(4) 0.3669(3) -0.1270(6)
C30 C 0.3997(4) 0.3779(3) -0.1986(6)
H19 H 0.4279 0.4152 -0.1935
C31 C 0.4075(5) 0.3321(3) -0.2775(7)
H20 H 0.4391 0.3392 -0.3285
C32 C 0.3683(5) 0.2759(3) -0.2799(7)
H21 H 0.3754 0.2450 -0.3311
C33 C 0.3184(4) 0.2644(3) -0.2072(6)
C34 C 0.3088(4) 0.3110(3) -0.1315(5)
H22 H 0.2751 0.3044 -0.0831
C35 C 0.2760(4) 0.2038(3) -0.2135(6)
Zn1B Zn -0.27275(4) 0.57206(3) -0.17676(6)
Zn1B_2 Zn 0.72725(4) 0.57206(3) 0.82324(6)
Zn1C Zn 0.27275(4) 0.07206(3) -0.32324(6)
Zn2B Zn 0.82852(4) 0.62040(4) 0.64024(7)
Zn2C Zn 0.17148(4) 0.12040(4) -0.14024(7)
Zn3B Zn 0.36568(4) 0.53252(3) 0.06487(6)
O4B O 0.2684(3) 0.5303(2) 0.1251(4)
O6B O -0.4564(3) 0.4806(2) -0.2110(4)
O7B O 0.2437(3) 0.4544(2) 0.3375(4)
O8B O 0.2733(3) 0.4204(3) 0.5177(5)
O9B O -0.3776(3) 0.5329(2) 0.0421(4)
O11C O 0.2274(3) 0.3018(2) 0.3481(5)
O12C O 0.2936(3) 0.3368(2) 0.2242(5)
O13 O 0.1525(11) 0.5188(8) 0.6260(16)
C1 C 0.2152(17) 0.4946(13) 0.717(2)
loop_
_geom_bond_atom_site_label_1
_geom_bond_atom_site_label_2
_geom_bond_site_symmetry_1
_geom_bond_site_symmetry_2
Zn1 O2 1_555 1_555
Zn2 O1 1_555 1_555
Zn3 O4 1_555 1_555
O1 C12 1_555 1_555
O2 C12 1_555 1_555
O3 C19 1_555 1_555
O4 C19 1_555 1_555
O5 Zn1 1_555 1_555
O6 C20 1_555 1_555
O7 C27 1_555 1_555
O8 C27 1_555 1_555
O9 C28 1_555 1_555
O10 Zn1 1_555 1_555
O11 C35 1_555 1_555
O12 C35 1_555 1_555
O13 C1 1_555 1_555
N1 Zn2 1_555 1_555
N2 Zn3 1_555 1_555
C2 N1 1_555 1_555
H1 C2 1_555 1_555
C3 C2 1_555 1_555
H2 C3 1_555 1_555
C4 C3 1_555 1_555
H3 C4 1_555 1_555
C5 C4 1_555 1_555
H4 C5 1_555 1_555
C6 N1 1_555 1_555
H5 C6 1_555 1_555
C7 N2 1_555 1_555
H6 C7 1_555 1_555
C8 C7 1_555 1_555
H7 C8 1_555 1_555
C9 C8 1_555 1_555
H8 C9 1_555 1_555
C10 C9 1_555 1_555
H9 C10 1_555 1_555
C11 N2 1_555 1_555
H10 C11 1_555 1_555
C12 C13 1_555 1_555
C13 C14 1_555 1_555
C14 H11 1_555 1_555
C15 C14 1_555 1_555
H12 C15 1_555 1_555
C16 C15 1_555 1_555
H13 C16 1_555 1_555
C17 C16 1_555 1_555
C18 C13 1_555 1_555
H14 C18 1_555 1_555
C19 C17 1_555 1_555
C20 O5 1_555 1_555
C21 C20 1_555 1_555
C22 C21 1_555 1_555
H15 C22 1_555 1_555
C23 C22 1_555 1_555
H16 C23 1_555 1_555
C24 C23 1_555 1_555
H17 C24 1_555 1_555
C25 C24 1_555 1_555
C26 C21 1_555 1_555
H18 C26 1_555 1_555
C27 C25 1_555 1_555
C28 O10 1_555 1_555
C29 C28 1_555 1_555
C30 C29 1_555 1_555
H19 C30 1_555 1_555
C31 C30 1_555 1_555
H20 C31 1_555 1_555
C32 C31 1_555 1_555
H21 C32 1_555 1_555
C33 C32 1_555 1_555
C34 C29 1_555 1_555
H22 C34 1_555 1_555
C35 C33 1_555 1_555
Zn1B O4 1_555 1_555
Zn1B_2 O7 1_555 1_555
Zn1C O12 1_555 1_555
Zn2B O7 1_555 1_555
Zn2C O11 1_555 1_555
Zn3B O6 1_555 1_555
O4B Zn1 1_555 1_555
O6B Zn3 1_555 1_555
O7B Zn1 1_555 1_555
O8B Zn2 1_555 1_555
O9B Zn3 1_555 1_555
O11C Zn2 1_555 1_555
O12C Zn1 1_555 1_555
Zn2 O7B 1_555 1_555
O8 Zn2B 1_555 1_555
O9 Zn3B 1_555 1_555
C5 C6 1_555 1_555
C10 C11 1_555 1_555
C17 C18 1_555 1_555
C25 C26 1_555 1_555
C33 C34 1_555 1_555
Zn3B O4B 1_555 1_555

#END
