
#######################################################################
#
#                 Cambridge Crystallographic Data Centre
#                                CCDC 
#
#######################################################################
#
# If this CIF has been generated from an entry in the Cambridge 
# Structural Database, then it will include bibliographic, chemical, 
# crystal, experimental, refinement or atomic coordinate data resulting 
# from the CCDC's data processing and validation procedures.
#
#######################################################################

data_UZUZOF
_chemical_formula_moiety         '(C17 H18 N4 O7 S1 Zn1)n'
_symmetry_cell_setting           orthorhombic
_symmetry_space_group_name_H-M   'P 21 21 21'
_symmetry_Int_Tables_number      19
_space_group_name_Hall           'P 2ac 2ab'
loop_
_symmetry_equiv_pos_site_id
_symmetry_equiv_pos_as_xyz
1 x,y,z
2 1/2-x,-y,1/2+z
3 -x,1/2+y,1/2-z
4 1/2+x,1/2-y,-z
_cell_length_a                   8.1331(6)
_cell_length_b                   14.6556(10)
_cell_length_c                   16.8257(12)
_cell_angle_alpha                90
_cell_angle_beta                 90
_cell_angle_gamma                90
_cell_volume                     2005.55
loop_
_atom_site_label
_atom_site_type_symbol
_atom_site_fract_x
_atom_site_fract_y
_atom_site_fract_z
_atom_site_U_iso_or_equiv
_atom_site_thermal_displace_type
Zn1 Zn 0.56025(4) 0.472488(18) 0.954753(17) 0.0279 Uani
S1 S 0.16898(10) 0.13599(5) 1.21019(4) 0.0362 Uani
O1 O 0.4679(3) 0.38246(13) 1.03073(11) 0.0436 Uani
O2 O 0.4271(3) 0.51686(13) 1.08373(13) 0.0521 Uani
O3 O 0.0248(3) 0.42780(14) 1.39049(12) 0.0459 Uani
O4 O 0.2267(3) 0.52606(15) 1.36863(12) 0.0499 Uani
O5 O 0.1367(3) 0.12159(13) 1.12585(12) 0.0502 Uani
O6 O 0.3135(3) 0.08923(14) 1.23653(16) 0.0642 Uani
O7 O 0.0254(3) 0.12088(16) 1.25922(13) 0.0582 Uani
N1 N 0.7819(3) 0.50984(16) 0.99560(15) 0.0368 Uani
N2 N 0.9723(5) 0.5556(2) 1.0776(2) 0.0890 Uani
H1 H 1.0205 0.5778 1.1187 0.1060 Uiso
C1 C 0.3333(4) 0.38743(17) 1.15514(16) 0.0307 Uani
C2 C 0.2891(4) 0.43733(17) 1.22199(16) 0.0334 Uani
H2 H 0.3176 0.4987 1.2251 0.0400 Uiso
C3 C 0.2041(4) 0.39773(17) 1.28354(16) 0.0310 Uani
C4 C 0.1634(4) 0.30549(18) 1.27956(16) 0.0310 Uani
H3 H 0.1040 0.2782 1.3204 0.0370 Uiso
C5 C 0.2124(3) 0.25449(16) 1.21395(16) 0.0273 Uani
C6 C 0.2954(4) 0.29475(17) 1.15237(16) 0.0304 Uani
H4 H 0.3266 0.2601 1.1086 0.0360 Uiso
C7 C 0.4143(4) 0.4327(2) 1.08611(17) 0.0368 Uani
C8 C 0.1520(4) 0.45601(19) 1.35300(17) 0.0367 Uani
C9 C 0.8128(5) 0.5482(2) 1.0662(2) 0.0487 Uani
H5 H 0.7328 0.5670 1.1022 0.0580 Uiso
C10 C 0.9311(4) 0.4944(2) 0.9627(2) 0.0519 Uani
H6 H 0.9467 0.4685 0.9128 0.0620 Uiso
C11 C 1.0490(4) 0.5200(3) 1.0089(3) 0.0650 Uani
H7 H 1.1613 0.5158 0.9990 0.0780 Uiso
Zn1A Zn -0.06025(4) 0.527512(18) 1.454753(17) 0.0279 Uani
Zn1C Zn 0.06025(4) 0.027512(18) 1.045247(17) 0.0279 Uani
O3A O 0.4752(3) 0.57220(14) 0.89049(12) 0.0459 Uani
O5C O 0.6367(3) 0.37841(13) 0.87415(12) 0.0502 Uani
N3 N -0.3386(5) 0.2662(2) 1.2859(2) 0.0687 Uani
N4 N -0.2472(5) 0.2813(2) 1.1671(2) 0.0713 Uani
C12 C -0.3096(7) 0.2230(3) 1.2186(3) 0.0787 Uani
H8 H -0.3299 0.1615 1.2090 0.0940 Uiso
C13 C -0.2408(5) 0.3640(3) 1.2024(3) 0.0750 Uani
H9 H -0.2039 0.4178 1.1792 0.0900 Uiso
C14 C -0.2971(6) 0.3550(3) 1.2769(3) 0.0721 Uani
H10 H -0.3060 0.4008 1.3149 0.0860 Uiso
C15 C -0.4151(9) 0.2257(4) 1.3582(4) 0.1333 Uani
H11 H -0.5248 0.2507 1.3643 0.1600 Uiso
H12 H -0.4259 0.1604 1.3505 0.1600 Uiso
C16 C -0.3275(12) 0.2413(4) 1.4274(4) 0.1477 Uani
H13 H -0.3823 0.2123 1.4711 0.2210 Uiso
H14 H -0.3208 0.3058 1.4370 0.2210 Uiso
H15 H -0.2187 0.2167 1.4220 0.2210 Uiso
C17 C -0.1988(9) 0.2616(4) 1.0851(3) 0.1360 Uani
H16 H -0.2129 0.1977 1.0746 0.2040 Uiso
H17 H -0.0855 0.2779 1.0776 0.2040 Uiso
H18 H -0.2662 0.2963 1.0493 0.2040 Uiso
loop_
_atom_site_aniso_label
_atom_site_aniso_U_11
_atom_site_aniso_U_22
_atom_site_aniso_U_33
_atom_site_aniso_U_23
_atom_site_aniso_U_13
_atom_site_aniso_U_12
Zn1 0.03357(16) 0.02728(13) 0.02272(14) 0.00435(13) -0.00151(14) 0.00095(15)
S1 0.0533(5) 0.0294(3) 0.0258(4) 0.0000(3) -0.0025(3) -0.0054(3)
O1 0.0598(15) 0.0435(10) 0.0275(11) 0.0031(8) 0.0105(10) -0.0061(10)
O2 0.0596(15) 0.0362(11) 0.0605(14) 0.0114(10) 0.0112(13) -0.0019(14)
O3 0.0627(16) 0.0410(11) 0.0339(11) -0.0099(9) 0.0139(11) 0.0088(11)
O4 0.0582(14) 0.0458(11) 0.0458(13) -0.0194(11) -0.0064(11) 0.0022(12)
O5 0.0826(17) 0.0397(11) 0.0282(11) -0.0066(9) -0.0018(11) -0.0161(11)
O6 0.0784(18) 0.0343(11) 0.0799(18) 0.0086(11) -0.0229(16) 0.0075(13)
O7 0.0758(18) 0.0572(13) 0.0417(13) 0.0021(10) 0.0133(12) -0.0302(13)
N1 0.0326(13) 0.0435(13) 0.0343(13) 0.0024(11) -0.0069(11) -0.0023(11)
N2 0.097(3) 0.086(3) 0.084(3) 0.018(2) -0.058(2) -0.037(2)
C1 0.0345(16) 0.0325(13) 0.0250(14) 0.0036(11) 0.0002(12) 0.0025(12)
C2 0.0435(17) 0.0271(12) 0.0297(15) -0.0027(11) -0.0018(13) 0.0019(12)
C3 0.0338(15) 0.0335(13) 0.0258(14) -0.0050(11) -0.0011(12) 0.0083(12)
C4 0.0339(16) 0.0385(14) 0.0205(13) 0.0008(11) 0.0041(12) 0.0031(12)
C5 0.0328(15) 0.0258(12) 0.0232(14) 0.0016(10) -0.0007(12) 0.0007(11)
C6 0.0356(17) 0.0321(13) 0.0234(14) -0.0030(11) 0.0036(12) 0.0060(12)
C7 0.0326(18) 0.0441(15) 0.0338(16) 0.0109(13) -0.0010(13) -0.0011(14)
C8 0.0413(18) 0.0406(16) 0.0282(15) -0.0067(12) -0.0035(13) 0.0146(14)
C9 0.058(2) 0.0452(18) 0.0430(19) -0.0023(14) -0.0068(16) -0.0051(16)
C10 0.0432(18) 0.0634(18) 0.0491(19) 0.0074(15) 0.0047(19) 0.0134(16)
C11 0.0261(16) 0.087(3) 0.082(3) 0.025(2) -0.008(2) -0.003(2)
Zn1A 0.03357 0.02728 0.02272 -0.00435 0.00151 0.00095
Zn1C 0.03357 0.02728 0.02272 0.00435 0.00151 -0.00095
O3A 0.0627 0.041 0.0339 0.0099 -0.0139 0.0088
O5C 0.0826 0.0397 0.0282 -0.0066 0.0018 0.0161
N3 0.084(3) 0.0502(17) 0.072(2) 0.0051(17) -0.019(2) -0.0042(17)
N4 0.076(3) 0.070(2) 0.068(2) 0.0041(18) -0.0068(19) 0.0411(19)
C12 0.114(4) 0.045(2) 0.077(3) -0.003(2) -0.035(3) 0.022(2)
C13 0.068(3) 0.061(2) 0.096(4) 0.013(2) -0.012(3) 0.004(2)
C14 0.087(3) 0.0424(19) 0.087(3) 0.000(2) -0.024(3) -0.010(2)
C15 0.160(6) 0.124(5) 0.116(5) 0.056(4) -0.057(5) -0.055(5)
C16 0.244(9) 0.095(4) 0.104(5) 0.000(4) -0.015(6) -0.021(5)
C17 0.180(7) 0.159(5) 0.069(3) 0.008(3) 0.011(4) 0.115(5)
loop_
_geom_bond_atom_site_label_1
_geom_bond_atom_site_label_2
_geom_bond_site_symmetry_1
_geom_bond_site_symmetry_2
Zn1 O1 1_555 1_555
S1 O5 1_555 1_555
O1 C7 1_555 1_555
O2 C7 1_555 1_555
O3 C8 1_555 1_555
O4 C8 1_555 1_555
O5 Zn1C 1_555 1_555
O6 S1 1_555 1_555
O7 S1 1_555 1_555
N1 Zn1 1_555 1_555
N2 H1 1_555 1_555
N3 C12 1_555 1_555
N4 C12 1_555 1_555
C1 C2 1_555 1_555
C2 H2 1_555 1_555
C3 C2 1_555 1_555
C4 C3 1_555 1_555
H3 C4 1_555 1_555
C5 S1 1_555 1_555
C6 C1 1_555 1_555
H4 C6 1_555 1_555
C7 C1 1_555 1_555
C8 C3 1_555 1_555
C9 N1 1_555 1_555
H5 C9 1_555 1_555
C10 N1 1_555 1_555
H6 C10 1_555 1_555
C11 N2 1_555 1_555
H7 C11 1_555 1_555
C12 H8 1_555 1_555
C13 N4 1_555 1_555
H9 C13 1_555 1_555
C14 N3 1_555 1_555
H10 C14 1_555 1_555
C15 N3 1_555 1_555
H11 C15 1_555 1_555
H12 C15 1_555 1_555
C16 C15 1_555 1_555
H13 C16 1_555 1_555
H14 C16 1_555 1_555
H15 C16 1_555 1_555
C17 N4 1_555 1_555
H16 C17 1_555 1_555
H17 C17 1_555 1_555
H18 C17 1_555 1_555
Zn1A O3 1_555 1_555
O3A Zn1 1_555 1_555
O5C Zn1 1_555 1_555
N2 C9 1_555 1_555
C4 C5 1_555 1_555
C5 C6 1_555 1_555
C10 C11 1_555 1_555
C13 C14 1_555 1_555

#END
