
#######################################################################
#
#                 Cambridge Crystallographic Data Centre
#                                CCDC 
#
#######################################################################
#
# If this CIF has been generated from an entry in the Cambridge 
# Structural Database, then it will include bibliographic, chemical, 
# crystal, experimental, refinement or atomic coordinate data resulting 
# from the CCDC's data processing and validation procedures.
#
#######################################################################

data_FIFNUE
_chemical_formula_moiety         '(C12 H20 Co1 N2 O9)n'
_symmetry_cell_setting           monoclinic
_symmetry_space_group_name_H-M   'C c'
_symmetry_Int_Tables_number      9
_space_group_name_Hall           'C -2yc'
loop_
_symmetry_equiv_pos_site_id
_symmetry_equiv_pos_as_xyz
1 x,y,z
2 x,-y,1/2+z
3 1/2+x,1/2+y,z
4 1/2+x,1/2-y,1/2+z
_cell_length_a                   10.5108(3)
_cell_length_b                   20.2765(7)
_cell_length_c                   8.1309(2)
_cell_angle_alpha                90
_cell_angle_beta                 102.223(2)
_cell_angle_gamma                90
_cell_volume                     1693.59
loop_
_atom_site_label
_atom_site_type_symbol
_atom_site_fract_x
_atom_site_fract_y
_atom_site_fract_z
_atom_site_U_iso_or_equiv
_atom_site_thermal_displace_type
Co1 Co 0.94204(8) 0.25379(2) 0.51007(9) 0.0216 Uani
O1 O 0.7852(2) 0.20249(11) 0.3612(3) 0.0297 Uani
O2 O 0.6063(2) 0.19831(12) 0.1595(3) 0.0319 Uani
O3 O 1.0129(2) 0.28389(12) 0.3003(3) 0.0320 Uani
O4 O 1.0000(3) 0.28831(14) 0.0250(3) 0.0531 Uani
O5 O 0.8806(3) 0.23149(13) 0.7332(3) 0.0376 Uani
N1 N 0.8445(3) 0.34789(13) 0.5035(3) 0.0260 Uani
N2 N 0.5399(3) 0.66019(13) 0.5192(4) 0.0273 Uani
C1 C 0.8929(4) 0.40251(17) 0.4519(5) 0.0384 Uani
H1 H 0.9694 0.3995 0.4122 0.0460 Uiso
C2 C 0.7326(4) 0.35492(17) 0.5581(5) 0.0327 Uani
H2 H 0.6956 0.3175 0.5945 0.0390 Uiso
C3 C 0.8356(5) 0.46393(18) 0.4540(6) 0.0401 Uani
H3 H 0.8740 0.5007 0.4165 0.0480 Uiso
C4 C 0.6710(4) 0.41338(17) 0.5629(5) 0.0339 Uani
H4 H 0.5938 0.4150 0.6014 0.0410 Uiso
C5 C 0.7222(4) 0.47075(17) 0.5110(5) 0.0274 Uani
C6 C 0.6592(4) 0.53610(16) 0.5168(4) 0.0280 Uani
C7 C 0.7216(4) 0.59439(18) 0.4844(5) 0.0352 Uani
H5 H 0.8047 0.5928 0.4619 0.0420 Uiso
C8 C 0.5373(4) 0.54267(18) 0.5533(5) 0.0352 Uani
H6 H 0.4923 0.5056 0.5770 0.0420 Uiso
C9 C 0.6589(4) 0.65387(16) 0.4863(5) 0.0316 Uani
H7 H 0.7015 0.6919 0.4633 0.0380 Uiso
C10 C 0.4825(4) 0.60479(18) 0.5543(5) 0.0360 Uani
H8 H 0.4009 0.6080 0.5810 0.0430 Uiso
C11 C 0.6840(4) 0.22743(14) 0.2747(5) 0.0266 Uani
H9 H 0.6651 0.2708 0.2976 0.0320 Uiso
C12 C 0.9746(3) 0.26346(16) 0.1522(4) 0.0345 Uani
H10 H 0.9221 0.2261 0.1375 0.0410 Uiso
Co1C Co 0.44204(8) 0.24621(2) 0.01007(9) 0.0216 Uani
Co1B Co 0.44204(8) 0.75379(2) 0.51007(9) 0.0216 Uani
O2C O 1.1063(2) 0.30169(12) 0.6595(3) 0.0319 Uani
N2B N 1.0399(3) 0.16019(13) 0.5192(4) 0.0273 Uani
O6 O 0.7329(3) 0.13534(12) 0.8328(3) 0.0466 Uani
O7 O 0.8407(4) 0.09170(15) 0.1523(4) 0.0573 Uani
O8 O 0.6762(4) -0.01586(17) 0.1568(5) 0.0934 Uani
O9 O 1.0471(4) 0.4235(2) 0.8681(6) 0.1042 Uani
loop_
_atom_site_aniso_label
_atom_site_aniso_U_11
_atom_site_aniso_U_22
_atom_site_aniso_U_33
_atom_site_aniso_U_23
_atom_site_aniso_U_13
_atom_site_aniso_U_12
Co1 0.02124(16) 0.02004(19) 0.02222(16) -0.00022(17) 0.00156(10) 0.0034(2)
O1 0.0215(15) 0.0260(13) 0.0379(14) -0.0025(10) -0.0020(11) 0.0023(11)
O2 0.0294(16) 0.0303(14) 0.0303(14) -0.0030(10) -0.0063(11) 0.0025(11)
O3 0.0374(16) 0.0354(15) 0.0232(12) -0.0042(10) 0.0067(10) 0.0026(11)
O4 0.0711(19) 0.0610(18) 0.0302(13) -0.0037(12) 0.0172(12) -0.0178(15)
O5 0.0506(18) 0.0379(14) 0.0255(13) 0.0005(10) 0.0108(12) -0.0052(12)
N1 0.0260(19) 0.0218(14) 0.0306(16) 0.0013(11) 0.0066(14) 0.0050(12)
N2 0.0269(19) 0.0215(15) 0.0311(17) -0.0015(11) 0.0004(14) 0.0008(12)
C1 0.034(3) 0.0240(18) 0.064(3) 0.0025(16) 0.0259(19) 0.0071(16)
C2 0.034(3) 0.0205(18) 0.045(2) 0.0035(14) 0.0116(17) 0.0011(16)
C3 0.043(3) 0.0208(18) 0.061(3) 0.0055(16) 0.021(2) 0.0036(17)
C4 0.032(2) 0.0259(19) 0.048(2) 0.0030(15) 0.0177(18) 0.0049(16)
C5 0.029(3) 0.0217(18) 0.031(2) 0.0002(12) 0.0054(17) 0.0050(14)
C6 0.031(3) 0.0197(18) 0.031(2) -0.0022(13) 0.0016(17) 0.0065(15)
C7 0.029(2) 0.031(2) 0.047(2) 0.0003(15) 0.0110(18) 0.0058(16)
C8 0.029(2) 0.0236(18) 0.055(2) 0.0036(15) 0.0134(18) 0.0041(15)
C9 0.025(2) 0.0212(17) 0.050(2) -0.0020(15) 0.0108(17) 0.0018(14)
C10 0.028(3) 0.0281(19) 0.053(3) -0.0008(15) 0.0111(17) 0.0038(15)
C11 0.0262(16) 0.0244(13) 0.0270(16) -0.0050(15) 0.0008(12) -0.0041(17)
C12 0.0335(19) 0.0303(19) 0.040(2) -0.0078(14) 0.0083(14) 0.0037(14)
Co1C 0.02124 0.02004 0.02222 0.00022 0.00156 -0.0034
Co1B 0.02124 0.02004 0.02222 -0.00022 0.00156 0.0034
O2C 0.0294 0.0303 0.0303 0.003 -0.0063 -0.0025
N2B 0.0269 0.0215 0.0311 -0.0015 0.0004 0.0008
O6 0.0494(16) 0.0404(15) 0.0537(15) 0.0030(12) 0.0194(11) -0.0032(12)
O7 0.063(2) 0.0524(19) 0.0571(19) -0.0014(13) 0.0144(16) 0.0088(16)
O8 0.117(3) 0.065(2) 0.089(3) 0.0196(19) 0.001(2) -0.009(2)
O9 0.077(3) 0.096(3) 0.132(4) -0.053(3) 0.005(3) 0.028(2)
loop_
_geom_bond_atom_site_label_1
_geom_bond_atom_site_label_2
_geom_bond_site_symmetry_1
_geom_bond_site_symmetry_2
Co1 O1 1_555 1_555
O1 C11 1_555 1_555
O2 C11 1_555 1_555
O3 Co1 1_555 1_555
O4 C12 1_555 1_555
O5 Co1 1_555 1_555
N1 Co1 1_555 1_555
N2 C9 1_555 1_555
C1 N1 1_555 1_555
H1 C1 1_555 1_555
C2 N1 1_555 1_555
H2 C2 1_555 1_555
C3 C1 1_555 1_555
H3 C3 1_555 1_555
C4 C2 1_555 1_555
H4 C4 1_555 1_555
C5 C3 1_555 1_555
C6 C5 1_555 1_555
C7 C6 1_555 1_555
H5 C7 1_555 1_555
C8 C6 1_555 1_555
H6 C8 1_555 1_555
C9 C7 1_555 1_555
H7 C9 1_555 1_555
C10 N2 1_555 1_555
H8 C10 1_555 1_555
C11 H9 1_555 1_555
C12 O3 1_555 1_555
H10 C12 1_555 1_555
Co1C O2 1_555 1_555
Co1B N2 1_555 1_555
O2C Co1 1_555 1_555
N2B Co1 1_555 1_555
C4 C5 1_555 1_555
C8 C10 1_555 1_555

#END
