
#######################################################################
#
#                 Cambridge Crystallographic Data Centre
#                                CCDC 
#
#######################################################################
#
# If this CIF has been generated from an entry in the Cambridge 
# Structural Database, then it will include bibliographic, chemical, 
# crystal, experimental, refinement or atomic coordinate data resulting 
# from the CCDC's data processing and validation procedures.
#
#######################################################################

data_FIFPAM
_chemical_formula_moiety         '(C12 H20 N2 Ni1 O9)n'
_symmetry_cell_setting           monoclinic
_symmetry_space_group_name_H-M   'C c'
_symmetry_Int_Tables_number      9
_space_group_name_Hall           'C -2yc'
loop_
_symmetry_equiv_pos_site_id
_symmetry_equiv_pos_as_xyz
1 x,y,z
2 x,-y,1/2+z
3 1/2+x,1/2+y,z
4 1/2+x,1/2-y,1/2+z
_cell_length_a                   10.4815(2)
_cell_length_b                   20.0601(4)
_cell_length_c                   8.1266(2)
_cell_angle_alpha                90
_cell_angle_beta                 102.633(9)
_cell_angle_gamma                90
_cell_volume                     1667.33
loop_
_atom_site_label
_atom_site_type_symbol
_atom_site_fract_x
_atom_site_fract_y
_atom_site_fract_z
_atom_site_U_iso_or_equiv
_atom_site_thermal_displace_type
Ni1 Ni 0.94204(6) 0.253886(13) 0.51023(7) 0.0189 Uani
O1 O 0.78412(18) 0.20359(7) 0.3619(2) 0.0274 Uani
O2 O 0.60551(18) 0.19932(8) 0.1568(2) 0.0269 Uani
O3 O 1.01202(17) 0.28371(8) 0.3018(2) 0.0282 Uani
O4 O 1.0020(2) 0.28747(10) 0.0268(2) 0.0489 Uani
O5 O 0.8828(2) 0.23164(9) 0.7305(2) 0.0325 Uani
N1 N 0.8448(2) 0.34603(9) 0.5043(3) 0.0226 Uani
N2 N 0.5369(2) 0.66150(9) 0.5181(3) 0.0248 Uani
C1 C 0.8945(3) 0.40165(11) 0.4526(4) 0.0346 Uani
H1 H 0.968(3) 0.3949(14) 0.400(4) 0.0410 Uiso
C2 C 0.7340(3) 0.35271(12) 0.5567(4) 0.0294 Uani
H2 H 0.695(3) 0.3137(14) 0.585(4) 0.0350 Uiso
C3 C 0.8380(3) 0.46412(12) 0.4561(4) 0.0362 Uani
H3 H 0.874(3) 0.4996(14) 0.394(4) 0.0430 Uiso
C4 C 0.6703(3) 0.41225(12) 0.5618(4) 0.0298 Uani
H4 H 0.5926 0.4137 0.5992 0.0360 Uiso
C5 C 0.7230(3) 0.47042(11) 0.5105(4) 0.0258 Uani
C6 C 0.6596(3) 0.53653(11) 0.5163(3) 0.0249 Uani
C7 C 0.7206(3) 0.59533(12) 0.4827(4) 0.0318 Uani
H5 H 0.816(3) 0.5952(13) 0.472(3) 0.0380 Uiso
C8 C 0.5368(3) 0.54326(12) 0.5544(4) 0.0325 Uani
H6 H 0.491(3) 0.5049(15) 0.582(3) 0.0390 Uiso
C9 C 0.6567(3) 0.65531(12) 0.4828(4) 0.0282 Uani
H7 H 0.692(3) 0.6975(14) 0.445(4) 0.0340 Uiso
C10 C 0.4808(3) 0.60525(11) 0.5545(4) 0.0303 Uani
H8 H 0.385(3) 0.6090(14) 0.575(4) 0.0370 Uiso
C11 C 0.6834(3) 0.22880(9) 0.2724(4) 0.0239 Uani
H9 H 0.661(2) 0.2797(11) 0.291(3) 0.0290 Uiso
C12 C 0.9744(3) 0.26363(14) 0.1525(4) 0.0335 Uani
H10 H 0.918(3) 0.2196(16) 0.148(4) 0.0400 Uiso
H11 H 0.924(3) 0.2490(13) 0.838(3) 0.0510 Uiso
H12 H 0.830(3) 0.1966(12) 0.745(4) 0.0620 Uiso
Ni1C Ni 0.44204(6) 0.246114(13) 0.01023(7) 0.0189 Uani
Ni1B Ni 0.44204(6) 0.753886(13) 0.51023(7) 0.0189 Uani
O2C O 1.10551(18) 0.30068(8) 0.6568(2) 0.0269 Uani
N2B N 1.0369(2) 0.16150(9) 0.5181(3) 0.0248 Uani
O6 O 0.7331(2) 0.13531(9) 0.8330(3) 0.0438 Uani
H13 H 0.656(3) 0.1596(19) 0.826(5) 0.1060 Uiso
H14 H 0.776(3) 0.131(2) 0.946(3) 0.0890 Uiso
O7 O 0.8438(3) 0.09199(11) 0.1538(3) 0.0517 Uani
H15 H 0.835(4) 0.1171(18) 0.253(4) 0.1090 Uiso
H16 H 0.780(3) 0.0582(15) 0.159(5) 0.0820 Uiso
O8 O 0.6767(4) -0.01531(13) 0.1596(4) 0.0900 Uani
H17 H 0.709(6) -0.055(2) 0.221(7) 0.1500 Uiso
H18 H 0.657(17) -0.029(4) 0.044(3) 0.4700 Uiso
O9 O 1.0458(4) 0.4228(2) 0.8733(6) 0.1029 Uani
H19 H 1.056(7) 0.3769(11) 0.878(8) 0.1800 Uiso
H20 H 1.083(5) 0.438(2) 0.782(5) 0.1400 Uiso
loop_
_atom_site_aniso_label
_atom_site_aniso_U_11
_atom_site_aniso_U_22
_atom_site_aniso_U_33
_atom_site_aniso_U_23
_atom_site_aniso_U_13
_atom_site_aniso_U_12
Ni1 0.01798(11) 0.01681(11) 0.02070(11) -0.00043(13) 0.00161(7) 0.00262(13)
O1 0.0233(11) 0.0225(8) 0.0334(11) -0.0007(7) -0.0001(9) 0.0020(7)
O2 0.0226(10) 0.0269(9) 0.0262(11) -0.0019(7) -0.0057(9) 0.0011(7)
O3 0.0320(11) 0.0294(9) 0.0231(10) -0.0029(7) 0.0060(8) -0.0013(8)
O4 0.0606(13) 0.0612(12) 0.0278(10) -0.0028(9) 0.0158(10) -0.0168(10)
O5 0.0404(12) 0.0321(9) 0.0257(11) -0.0005(8) 0.0089(9) -0.0088(8)
N1 0.0219(13) 0.0190(9) 0.0269(13) -0.0011(8) 0.0053(10) 0.0038(8)
N2 0.0238(13) 0.0219(9) 0.0268(13) -0.0006(8) 0.0011(10) 0.0015(8)
C1 0.0289(18) 0.0225(11) 0.057(2) 0.0008(11) 0.0195(15) 0.0043(10)
C2 0.0289(17) 0.0199(11) 0.0412(17) 0.0026(11) 0.0118(13) 0.0022(11)
C3 0.0348(18) 0.0194(11) 0.058(2) 0.0052(12) 0.0181(16) 0.0047(11)
C4 0.0253(16) 0.0237(12) 0.0436(18) 0.0006(10) 0.0143(13) 0.0063(10)
C5 0.0261(17) 0.0207(11) 0.0298(17) -0.0021(9) 0.0043(14) 0.0036(9)
C6 0.0242(17) 0.0199(11) 0.0289(17) 0.0011(10) 0.0020(14) 0.0075(10)
C7 0.0287(17) 0.0255(12) 0.0434(18) 0.0014(11) 0.0124(14) 0.0031(11)
C8 0.0283(16) 0.0209(11) 0.051(2) 0.0031(11) 0.0143(14) 0.0017(10)
C9 0.0242(16) 0.0201(11) 0.0417(18) 0.0009(11) 0.0100(13) 0.0021(10)
C10 0.0231(17) 0.0242(11) 0.045(2) -0.0005(10) 0.0103(13) 0.0051(10)
C11 0.0218(11) 0.0229(9) 0.0249(11) 0.0002(12) 0.0006(9) -0.0004(12)
C12 0.0365(16) 0.0348(13) 0.0311(15) -0.0056(11) 0.0113(12) -0.0026(11)
Ni1C 0.01798 0.01681 0.0207 0.00043 0.00161 -0.00262
Ni1B 0.01798 0.01681 0.0207 -0.00043 0.00161 0.00262
O2C 0.0226 0.0269 0.0262 0.0019 -0.0057 -0.0011
N2B 0.0238 0.0219 0.0268 -0.0006 0.0011 0.0015
O6 0.0432(12) 0.0416(11) 0.0488(13) 0.0045(9) 0.0150(9) 0.0013(9)
O7 0.0576(16) 0.0471(13) 0.0513(15) -0.0051(10) 0.0136(13) 0.0038(11)
O8 0.111(2) 0.0629(18) 0.088(2) 0.0188(15) 0.0040(18) -0.0097(18)
O9 0.080(3) 0.091(2) 0.133(4) -0.047(2) 0.013(3) 0.025(2)
loop_
_geom_bond_atom_site_label_1
_geom_bond_atom_site_label_2
_geom_bond_site_symmetry_1
_geom_bond_site_symmetry_2
Ni1 O1 1_555 1_555
O1 C11 1_555 1_555
O2 C11 1_555 1_555
O3 Ni1 1_555 1_555
O4 C12 1_555 1_555
O5 Ni1 1_555 1_555
N1 Ni1 1_555 1_555
N2 C9 1_555 1_555
C1 N1 1_555 1_555
H1 C1 1_555 1_555
C2 N1 1_555 1_555
H2 C2 1_555 1_555
C3 C1 1_555 1_555
H3 C3 1_555 1_555
C4 C2 1_555 1_555
H4 C4 1_555 1_555
C5 C3 1_555 1_555
C6 C5 1_555 1_555
C7 C6 1_555 1_555
H5 C7 1_555 1_555
C8 C6 1_555 1_555
H6 C8 1_555 1_555
C9 C7 1_555 1_555
H7 C9 1_555 1_555
C10 N2 1_555 1_555
H8 C10 1_555 1_555
C11 H9 1_555 1_555
C12 O3 1_555 1_555
H10 C12 1_555 1_555
H11 O5 1_555 1_555
H12 O5 1_555 1_555
O6 H13 1_555 1_555
H14 O6 1_555 1_555
O7 H15 1_555 1_555
H16 O7 1_555 1_555
O8 H17 1_555 1_555
H18 O8 1_555 1_555
O9 H19 1_555 1_555
H20 O9 1_555 1_555
Ni1C O2 1_555 1_555
Ni1B N2 1_555 1_555
O2C Ni1 1_555 1_555
N2B Ni1 1_555 1_555
C4 C5 1_555 1_555
C8 C10 1_555 1_555

#END
