
#######################################################################
#
#                 Cambridge Crystallographic Data Centre
#                                CCDC 
#
#######################################################################
#
# If this CIF has been generated from an entry in the Cambridge 
# Structural Database, then it will include bibliographic, chemical, 
# crystal, experimental, refinement or atomic coordinate data resulting 
# from the CCDC's data processing and validation procedures.
#
#######################################################################

data_OFESIC
_chemical_formula_moiety         '(C24 H34 Cu3 N6 O26 Sm2)n'
_symmetry_cell_setting           trigonal
_symmetry_space_group_name_H-M   'P -3 c 1'
_symmetry_Int_Tables_number      165
_space_group_name_Hall           '-P 3 2"c'
loop_
_symmetry_equiv_pos_site_id
_symmetry_equiv_pos_as_xyz
1 x,y,z
2 -y,x-y,z
3 y,x,1/2-z
4 -x+y,-x,z
5 -x,-x+y,1/2-z
6 x-y,-y,1/2-z
7 -x,-y,-z
8 y,-x+y,-z
9 -y,-x,1/2+z
10 x-y,x,-z
11 x,x-y,1/2+z
12 -x+y,y,1/2+z
_cell_length_a                   13.454(3)
_cell_length_b                   13.454(3)
_cell_length_c                   14.856(4)
_cell_angle_alpha                90
_cell_angle_beta                 90
_cell_angle_gamma                120
_cell_volume                     2328.82
loop_
_atom_site_label
_atom_site_type_symbol
_atom_site_fract_x
_atom_site_fract_y
_atom_site_fract_z
Cu1 Cu 0.5000 1.0000 0.0000
Sm1 Sm 0.3333 0.6667 0.330751(19)
O1 O 0.4025(2) 0.9265(2) 0.10497(17)
O2 O 0.3853(3) 0.8217(3) 0.2249(2)
O3 O 0.4530(2) 0.8161(2) -0.05678(17)
O4 O 0.5619(3) 0.7582(3) -0.12340(19)
N1 N 0.6112(2) 0.9598(2) 0.05788(19)
H1 H 0.6740 1.0257 0.0765
C1 C 0.4395(3) 0.8780(3) 0.1572(3)
C2 C 0.5539(3) 0.8878(3) 0.1377(2)
H2 H 0.5429 0.8116 0.1280
H3 H 0.6034 0.9205 0.1897
C3 C 0.6480(3) 0.9033(3) -0.0097(2)
H4 H 0.7068 0.9611 -0.0480
H5 H 0.6807 0.8626 0.0210
C4 C 0.5480(3) 0.8198(3) -0.0668(2)
Cu1A Cu -0.0000 0.5000 0.0000
Cu1C Cu 0.5000 0.5000 0.0000
Cu1J Cu 0.5000 0.5000 0.5000
Cu1K Cu 0.5000 1.0000 0.5000
Cu1B Cu -0.0000 0.5000 0.5000
Sm1J Sm 0.3333 0.6666 0.830751(19)
Sm1J_2 Sm 0.3333 0.6666 -0.169249(19)
O1A O 0.0735(2) 0.4760(3) 0.10497(17)
O1C O 0.5240(3) 0.5975(2) 0.10497(17)
O1J O 0.4025(2) 0.4760(3) 0.60497(17)
O1K O 0.5240(3) 0.9265(2) 0.60497(17)
O1H O 0.0735(2) 0.5975(2) 0.60497(17)
O1F O 0.5975(2) 1.0735(2) -0.10497(17)
O1G O -0.0735(2) 0.5240(3) -0.10497(17)
O1I O 0.4760(3) 0.4025(2) -0.10497(17)
O2A O 0.1783(3) 0.5636(4) 0.2249(2)
O2C O 0.4364(4) 0.6147(3) 0.2249(2)
O2J O 0.3853(3) 0.5636(4) 0.7249(2)
O2K O 0.4364(4) 0.8217(3) 0.7249(2)
O2H O 0.1783(3) 0.6147(3) 0.7249(2)
O3A O 0.1839(2) 0.6369(3) -0.05678(17)
O3C O 0.3631(3) 0.5470(2) -0.05678(17)
O3J O 0.4530(2) 0.6369(3) 0.44322(17)
O3K O 0.3631(3) 0.8161(2) 0.44322(17)
O3H O 0.1839(2) 0.5470(2) 0.44322(17)
O3F O 0.5470(2) 1.1839(2) 0.05678(17)
O3_2 O 0.4530(2) 0.8161(2) 0.94322(17)
O3A_2 O 0.1839(2) 0.6369(3) 0.94322(17)
O3C_2 O 0.3631(3) 0.5470(2) 0.94322(17)
O3G O -0.1839(2) 0.3631(3) 0.05678(17)
O3I O 0.6369(3) 0.4530(2) 0.05678(17)
O4A O 0.2418(3) 0.8037(4) -0.12340(19)
O4C O 0.1963(4) 0.4381(3) -0.12340(19)
O4J O 0.5619(3) 0.8037(4) 0.37660(19)
O4K O 0.1963(4) 0.7582(3) 0.37660(19)
O4H O 0.2418(3) 0.4381(3) 0.37660(19)
O4_2 O 0.5619(3) 0.7582(3) 0.87660(19)
O4A_2 O 0.2418(3) 0.8037(4) 0.87660(19)
O4C_2 O 0.1963(4) 0.4381(3) 0.87660(19)
N1A N 0.0402(2) 0.6514(3) 0.05788(19)
N1C N 0.3486(3) 0.3888(2) 0.05788(19)
N1J N 0.6112(2) 0.6514(3) 0.55788(19)
N1K N 0.3486(3) 0.9598(2) 0.55788(19)
N1H N 0.0402(2) 0.3888(2) 0.55788(19)
N1F N 0.3888(2) 1.0402(2) -0.05788(19)
N1G N -0.0402(2) 0.3486(3) -0.05788(19)
N1I N 0.6514(3) 0.6112(2) -0.05788(19)
H1A H -0.0257 0.6483 0.0765
H1C H 0.3517 0.3260 0.0765
H1J H 0.6740 0.6483 0.5765
H1K H 0.3517 1.0257 0.5765
H1H H -0.0257 0.3260 0.5765
H1F H 0.3260 0.9743 -0.0765
H1G H 0.0257 0.3517 -0.0765
H1I H 0.6483 0.6740 -0.0765
C1A C 0.1220(3) 0.5615(4) 0.1572(3)
C1C C 0.4385(4) 0.5605(3) 0.1572(3)
C1J C 0.4395(3) 0.5615(4) 0.6572(3)
C1K C 0.4385(4) 0.8780(3) 0.6572(3)
C1H C 0.1220(3) 0.5605(3) 0.6572(3)
C2A C 0.1122(3) 0.6661(4) 0.1377(2)
C2C C 0.3339(4) 0.4461(3) 0.1377(2)
C2J C 0.5539(3) 0.6661(4) 0.6377(2)
C2K C 0.3339(4) 0.8878(3) 0.6377(2)
C2H C 0.1122(3) 0.4461(3) 0.6377(2)
H2A H 0.1884 0.7313 0.1280
H2C H 0.2687 0.4571 0.1280
H2J H 0.5429 0.7313 0.6280
H2K H 0.2687 0.8116 0.6280
H2H H 0.1884 0.4571 0.6280
H3A H 0.0795 0.6829 0.1897
H3C H 0.3171 0.3966 0.1897
H3J H 0.6034 0.6829 0.6897
H3K H 0.3171 0.9205 0.6897
H3H H 0.0795 0.3966 0.6897
C3A C 0.0967(3) 0.7447(4) -0.0097(2)
C3C C 0.2553(4) 0.3520(3) -0.0097(2)
C3J C 0.6480(3) 0.7447(4) 0.4903(2)
C3K C 0.2553(4) 0.9033(3) 0.4903(2)
C3H C 0.0967(3) 0.3520(3) 0.4903(2)
H4A H 0.0389 0.7457 -0.0480
H4C H 0.2543 0.2932 -0.0480
H4J H 0.7068 0.7457 0.4520
H4K H 0.2543 0.9611 0.4520
H4H H 0.0389 0.2932 0.4520
H5A H 0.1374 0.8181 0.0210
H5C H 0.1819 0.3193 0.0210
H5J H 0.6807 0.8181 0.5210
H5K H 0.1819 0.8626 0.5210
H5H H 0.1374 0.3193 0.5210
C4A C 0.1802(3) 0.7282(4) -0.0668(2)
C4C C 0.2718(4) 0.4520(3) -0.0668(2)
C4J C 0.5480(3) 0.7282(4) 0.4332(2)
C4K C 0.2718(4) 0.8198(3) 0.4332(2)
C4H C 0.1802(3) 0.4520(3) 0.4332(2)
O5 O 0.2796(7) 0.2796(7) 0.7500
O6 O 0.1833(17) 0.0321(19) 0.6660(11)
loop_
_geom_bond_atom_site_label_1
_geom_bond_atom_site_label_2
_geom_bond_site_symmetry_1
_geom_bond_site_symmetry_2
Cu1 O1 1_555 1_555
Sm1 O2 1_555 1_555
O1 C1 1_555 1_555
O2 C1 1_555 1_555
O3 Cu1 1_555 1_555
O4 C4 1_555 1_555
N1 Cu1 1_555 1_555
H1 N1 1_555 1_555
C1 C2 1_555 1_555
C2 N1 1_555 1_555
H2 C2 1_555 1_555
H3 C2 1_555 1_555
C3 N1 1_555 1_555
H4 C3 1_555 1_555
H5 C3 1_555 1_555
C4 O3 1_555 1_555
Cu1A O1A 1_555 1_555
Cu1C O1C 1_555 1_555
Cu1J O1J 1_555 1_555
Cu1K O1K 1_555 1_555
Cu1B O1H 1_555 1_555
Sm1J O2J 1_555 1_555
Sm1J_2 O3 1_555 1_555
O1A C1A 1_555 1_555
O1C C1C 1_555 1_555
O1J C1J 1_555 1_555
O1K C1K 1_555 1_555
O1H C1H 1_555 1_555
O1F Cu1 1_555 1_555
O1G Cu1A 1_555 1_555
O1I Cu1C 1_555 1_555
O2A Sm1 1_555 1_555
O2C Sm1 1_555 1_555
O2J C1J 1_555 1_555
O2K Sm1J 1_555 1_555
O2H Sm1J 1_555 1_555
O3A Cu1A 1_555 1_555
O3C Cu1C 1_555 1_555
O3J Sm1 1_555 1_555
O3K Sm1 1_555 1_555
O3H Sm1 1_555 1_555
O3F Cu1 1_555 1_555
O3_2 Sm1J 1_555 1_555
O3A_2 Sm1J 1_555 1_555
O3C_2 Sm1J 1_555 1_555
O3G Cu1A 1_555 1_555
O3I Cu1C 1_555 1_555
O4A Sm1J_2 1_555 1_555
O4C Sm1J_2 1_555 1_555
O4J Sm1 1_555 1_555
O4K Sm1 1_555 1_555
O4H Sm1 1_555 1_555
O4_2 Sm1J 1_555 1_555
O4A_2 Sm1J 1_555 1_555
O4C_2 Sm1J 1_555 1_555
N1A Cu1A 1_555 1_555
N1C Cu1C 1_555 1_555
N1J Cu1J 1_555 1_555
N1K Cu1K 1_555 1_555
N1H Cu1B 1_555 1_555
N1F Cu1 1_555 1_555
N1G Cu1A 1_555 1_555
N1I Cu1C 1_555 1_555
H1A N1A 1_555 1_555
H1C N1C 1_555 1_555
H1J N1J 1_555 1_555
H1K N1K 1_555 1_555
H1H N1H 1_555 1_555
H1F N1F 1_555 1_555
H1G N1G 1_555 1_555
H1I N1I 1_555 1_555
C1A O2A 1_555 1_555
C1C O2C 1_555 1_555
C1J C2J 1_555 1_555
C1K O2K 1_555 1_555
C1H O2H 1_555 1_555
C2A N1A 1_555 1_555
C2C N1C 1_555 1_555
C2J N1J 1_555 1_555
C2K N1K 1_555 1_555
C2H N1H 1_555 1_555
H2A C2A 1_555 1_555
H2C C2C 1_555 1_555
H2J C2J 1_555 1_555
H2K C2K 1_555 1_555
H2H C2H 1_555 1_555
H3A C2A 1_555 1_555
H3C C2C 1_555 1_555
H3J C2J 1_555 1_555
H3K C2K 1_555 1_555
H3H C2H 1_555 1_555
C3A N1A 1_555 1_555
C3C N1C 1_555 1_555
C3J N1J 1_555 1_555
C3K N1K 1_555 1_555
C3H N1H 1_555 1_555
H4A C3A 1_555 1_555
H4C C3C 1_555 1_555
H4J C3J 1_555 1_555
H4K C3K 1_555 1_555
H4H C3H 1_555 1_555
H5A C3A 1_555 1_555
H5C C3C 1_555 1_555
H5J C3J 1_555 1_555
H5K C3K 1_555 1_555
H5H C3H 1_555 1_555
C4A O3A 1_555 1_555
C4C O3C 1_555 1_555
C4J O3J 1_555 1_555
C4K O3K 1_555 1_555
C4H O3H 1_555 1_555
O4 Sm1J_2 1_555 1_555
C3 C4 1_555 1_555
Cu1J O3J 1_555 1_555
Cu1K O3K 1_555 1_555
Cu1B O3H 1_555 1_555
Sm1J_2 O3A 1_555 1_555
Sm1J_2 O3C 1_555 1_555
O4A C4A 1_555 1_555
O4C C4C 1_555 1_555
O4J C4J 1_555 1_555
O4K C4K 1_555 1_555
O4H C4H 1_555 1_555
C1A C2A 1_555 1_555
C1C C2C 1_555 1_555
C1K C2K 1_555 1_555
C1H C2H 1_555 1_555
C3A C4A 1_555 1_555
C3C C4C 1_555 1_555
C3J C4J 1_555 1_555
C3K C4K 1_555 1_555
C3H C4H 1_555 1_555

#END
