
#######################################################################
#
#                 Cambridge Crystallographic Data Centre
#                                CCDC 
#
#######################################################################
#
# If this CIF has been generated from an entry in the Cambridge 
# Structural Database, then it will include bibliographic, chemical, 
# crystal, experimental, refinement or atomic coordinate data resulting 
# from the CCDC's data processing and validation procedures.
#
#######################################################################

data_OFESEY
_chemical_formula_moiety         '(C24 H34 Cu3 N6 Nd2 O26)n'
_symmetry_cell_setting           trigonal
_symmetry_space_group_name_H-M   'P -3 c 1'
_symmetry_Int_Tables_number      165
_space_group_name_Hall           '-P 3 2"c'
loop_
_symmetry_equiv_pos_site_id
_symmetry_equiv_pos_as_xyz
1 x,y,z
2 -y,x-y,z
3 y,x,1/2-z
4 -x+y,-x,z
5 -x,-x+y,1/2-z
6 x-y,-y,1/2-z
7 -x,-y,-z
8 y,-x+y,-z
9 -y,-x,1/2+z
10 x-y,x,-z
11 x,x-y,1/2+z
12 -x+y,y,1/2+z
_cell_length_a                   13.414(3)
_cell_length_b                   13.414(3)
_cell_length_c                   14.706(4)
_cell_angle_alpha                90
_cell_angle_beta                 90
_cell_angle_gamma                120
_cell_volume                     2291.62
loop_
_atom_site_label
_atom_site_type_symbol
_atom_site_fract_x
_atom_site_fract_y
_atom_site_fract_z
Cu1 Cu 0.5000 1.0000 0.0000
Nd1 Nd 0.3333 0.6667 0.33097(5)
O1 O 0.4017(4) 0.9254(4) 0.1054(4)
O2 O 0.3850(5) 0.8211(5) 0.2250(4)
O3 O 0.4525(4) 0.8147(4) -0.0571(3)
O4 O 0.5603(5) 0.7582(4) -0.1237(4)
N1 N 0.6112(4) 0.9596(4) 0.0582(4)
H1 H 0.6743 1.0254 0.0775
C1 C 0.4386(5) 0.8756(5) 0.1581(6)
C2 C 0.5525(6) 0.8861(6) 0.1382(5)
H2 H 0.5416 0.8099 0.1277
H3 H 0.6017 0.9181 0.1911
C3 C 0.6473(5) 0.9024(5) -0.0091(5)
H4 H 0.7073 0.9604 -0.0474
H5 H 0.6792 0.8611 0.0223
C4 C 0.5468(6) 0.8185(6) -0.0687(5)
Cu1A Cu 0.0000 0.5000 0.0000
Cu1C Cu 0.5000 0.5000 0.0000
Cu1J Cu 0.5000 0.5000 0.5000
Cu1K Cu 0.5000 1.0000 0.5000
Cu1B Cu 0.0000 0.5000 0.5000
Nd1J Nd 0.3333 0.6666 0.83097(5)
Nd1J_2 Nd 0.3333 0.6666 -0.16903(5)
O1A O 0.0746(4) 0.4763(6) 0.1054(4)
O1C O 0.5237(6) 0.5983(4) 0.1054(4)
O1J O 0.4017(4) 0.4763(6) 0.6054(4)
O1K O 0.5237(6) 0.9254(4) 0.6054(4)
O1H O 0.0746(4) 0.5983(4) 0.6054(4)
O1F O 0.5983(4) 1.0746(4) -0.1054(4)
O1G O -0.0746(4) 0.5237(6) -0.1054(4)
O1I O 0.4763(6) 0.4017(4) -0.1054(4)
O2A O 0.1789(5) 0.5639(7) 0.2250(4)
O2C O 0.4361(7) 0.6150(5) 0.2250(4)
O2J O 0.3850(5) 0.5639(7) 0.7250(4)
O2K O 0.4361(7) 0.8211(5) 0.7250(4)
O2H O 0.1789(5) 0.6150(5) 0.7250(4)
O3A O 0.1853(4) 0.6378(6) -0.0571(3)
O3C O 0.3622(6) 0.5475(4) -0.0571(3)
O3J O 0.4525(4) 0.6378(6) 0.4429(3)
O3K O 0.3622(6) 0.8147(4) 0.4429(3)
O3H O 0.1853(4) 0.5475(4) 0.4429(3)
O3F O 0.5475(4) 1.1853(4) 0.0571(3)
O3_2 O 0.4525(4) 0.8147(4) 0.9429(3)
O3A_2 O 0.1853(4) 0.6378(6) 0.9429(3)
O3C_2 O 0.3622(6) 0.5475(4) 0.9429(3)
O3G O -0.1853(4) 0.3622(6) 0.0571(3)
O3I O 0.6378(6) 0.4525(4) 0.0571(3)
O4A O 0.2418(4) 0.8021(6) -0.1237(4)
O4C O 0.1979(6) 0.4397(5) -0.1237(4)
O4J O 0.5603(5) 0.8021(6) 0.3763(4)
O4K O 0.1979(6) 0.7582(4) 0.3763(4)
O4H O 0.2418(4) 0.4397(5) 0.3763(4)
O4_2 O 0.5603(5) 0.7582(4) 0.8763(4)
O4A_2 O 0.2418(4) 0.8021(6) 0.8763(4)
O4C_2 O 0.1979(6) 0.4397(5) 0.8763(4)
N1A N 0.0404(4) 0.6516(6) 0.0582(4)
N1C N 0.3484(6) 0.3888(4) 0.0582(4)
N1J N 0.6112(4) 0.6516(6) 0.5582(4)
N1K N 0.3484(6) 0.9596(4) 0.5582(4)
N1H N 0.0404(4) 0.3888(4) 0.5582(4)
N1F N 0.3888(4) 1.0404(4) -0.0582(4)
N1G N -0.0404(4) 0.3484(6) -0.0582(4)
N1I N 0.6516(6) 0.6112(4) -0.0582(4)
H1A H -0.0254 0.6489 0.0775
H1C H 0.3511 0.3257 0.0775
H1J H 0.6743 0.6489 0.5775
H1K H 0.3511 1.0254 0.5775
H1H H -0.0254 0.3257 0.5775
H1F H 0.3257 0.9746 -0.0775
H1G H 0.0254 0.3511 -0.0775
H1I H 0.6489 0.6743 -0.0775
C1A C 0.1244(5) 0.5630(7) 0.1581(6)
C1C C 0.4370(7) 0.5614(5) 0.1581(6)
C1J C 0.4386(5) 0.5630(7) 0.6581(6)
C1K C 0.4370(7) 0.8756(5) 0.6581(6)
C1H C 0.1244(5) 0.5614(5) 0.6581(6)
C2A C 0.1139(6) 0.6664(8) 0.1382(5)
C2C C 0.3336(8) 0.4475(6) 0.1382(5)
C2J C 0.5525(6) 0.6664(8) 0.6382(5)
C2K C 0.3336(8) 0.8861(6) 0.6382(5)
C2H C 0.1139(6) 0.4475(6) 0.6382(5)
H2A H 0.1901 0.7317 0.1277
H2C H 0.2683 0.4584 0.1277
H2J H 0.5416 0.7317 0.6277
H2K H 0.2683 0.8099 0.6277
H2H H 0.1901 0.4584 0.6277
H3A H 0.0819 0.6836 0.1911
H3C H 0.3164 0.3983 0.1911
H3J H 0.6017 0.6836 0.6911
H3K H 0.3164 0.9181 0.6911
H3H H 0.0819 0.3983 0.6911
C3A C 0.0976(5) 0.7449(7) -0.0091(5)
C3C C 0.2551(7) 0.3527(5) -0.0091(5)
C3J C 0.6473(5) 0.7449(7) 0.4909(5)
C3K C 0.2551(7) 0.9024(5) 0.4909(5)
C3H C 0.0976(5) 0.3527(5) 0.4909(5)
H4A H 0.0396 0.7469 -0.0474
H4C H 0.2531 0.2927 -0.0474
H4J H 0.7073 0.7469 0.4526
H4K H 0.2531 0.9604 0.4526
H4H H 0.0396 0.2927 0.4526
H5A H 0.1389 0.8181 0.0223
H5C H 0.1819 0.3208 0.0223
H5J H 0.6792 0.8181 0.5223
H5K H 0.1819 0.8611 0.5223
H5H H 0.1389 0.3208 0.5223
C4A C 0.1815(6) 0.7283(8) -0.0687(5)
C4C C 0.2717(8) 0.4532(6) -0.0687(5)
C4J C 0.5468(6) 0.7283(8) 0.4313(5)
C4K C 0.2717(8) 0.8185(6) 0.4313(5)
C4H C 0.1815(6) 0.4532(6) 0.4313(5)
O5 O 0.2744(12) 0.2744(12) 0.7500
O6 O 0.187(3) 0.044(5) 0.666(3)
loop_
_geom_bond_atom_site_label_1
_geom_bond_atom_site_label_2
_geom_bond_site_symmetry_1
_geom_bond_site_symmetry_2
Cu1 O1 1_555 1_555
Nd1 O2 1_555 1_555
O1 C1 1_555 1_555
O2 C1 1_555 1_555
O3 Cu1 1_555 1_555
O4 C4 1_555 1_555
N1 Cu1 1_555 1_555
H1 N1 1_555 1_555
C1 C2 1_555 1_555
C2 N1 1_555 1_555
H2 C2 1_555 1_555
H3 C2 1_555 1_555
C3 N1 1_555 1_555
H4 C3 1_555 1_555
H5 C3 1_555 1_555
C4 O3 1_555 1_555
Cu1A O1A 1_555 1_555
Cu1C O1C 1_555 1_555
Cu1J O1J 1_555 1_555
Cu1K O1K 1_555 1_555
Cu1B O1H 1_555 1_555
Nd1J O2J 1_555 1_555
Nd1J_2 O3 1_555 1_555
O1A C1A 1_555 1_555
O1C C1C 1_555 1_555
O1J C1J 1_555 1_555
O1K C1K 1_555 1_555
O1H C1H 1_555 1_555
O1F Cu1 1_555 1_555
O1G Cu1A 1_555 1_555
O1I Cu1C 1_555 1_555
O2A Nd1 1_555 1_555
O2C Nd1 1_555 1_555
O2J C1J 1_555 1_555
O2K Nd1J 1_555 1_555
O2H Nd1J 1_555 1_555
O3A Cu1A 1_555 1_555
O3C Cu1C 1_555 1_555
O3J Nd1 1_555 1_555
O3K Nd1 1_555 1_555
O3H Nd1 1_555 1_555
O3F Cu1 1_555 1_555
O3_2 Nd1J 1_555 1_555
O3A_2 Nd1J 1_555 1_555
O3C_2 Nd1J 1_555 1_555
O3G Cu1A 1_555 1_555
O3I Cu1C 1_555 1_555
O4A Nd1J_2 1_555 1_555
O4C Nd1J_2 1_555 1_555
O4J Nd1 1_555 1_555
O4K Nd1 1_555 1_555
O4H Nd1 1_555 1_555
O4_2 Nd1J 1_555 1_555
O4A_2 Nd1J 1_555 1_555
O4C_2 Nd1J 1_555 1_555
N1A Cu1A 1_555 1_555
N1C Cu1C 1_555 1_555
N1J Cu1J 1_555 1_555
N1K Cu1K 1_555 1_555
N1H Cu1B 1_555 1_555
N1F Cu1 1_555 1_555
N1G Cu1A 1_555 1_555
N1I Cu1C 1_555 1_555
H1A N1A 1_555 1_555
H1C N1C 1_555 1_555
H1J N1J 1_555 1_555
H1K N1K 1_555 1_555
H1H N1H 1_555 1_555
H1F N1F 1_555 1_555
H1G N1G 1_555 1_555
H1I N1I 1_555 1_555
C1A O2A 1_555 1_555
C1C O2C 1_555 1_555
C1J C2J 1_555 1_555
C1K O2K 1_555 1_555
C1H O2H 1_555 1_555
C2A N1A 1_555 1_555
C2C N1C 1_555 1_555
C2J N1J 1_555 1_555
C2K N1K 1_555 1_555
C2H N1H 1_555 1_555
H2A C2A 1_555 1_555
H2C C2C 1_555 1_555
H2J C2J 1_555 1_555
H2K C2K 1_555 1_555
H2H C2H 1_555 1_555
H3A C2A 1_555 1_555
H3C C2C 1_555 1_555
H3J C2J 1_555 1_555
H3K C2K 1_555 1_555
H3H C2H 1_555 1_555
C3A N1A 1_555 1_555
C3C N1C 1_555 1_555
C3J N1J 1_555 1_555
C3K N1K 1_555 1_555
C3H N1H 1_555 1_555
H4A C3A 1_555 1_555
H4C C3C 1_555 1_555
H4J C3J 1_555 1_555
H4K C3K 1_555 1_555
H4H C3H 1_555 1_555
H5A C3A 1_555 1_555
H5C C3C 1_555 1_555
H5J C3J 1_555 1_555
H5K C3K 1_555 1_555
H5H C3H 1_555 1_555
C4A O3A 1_555 1_555
C4C O3C 1_555 1_555
C4J O3J 1_555 1_555
C4K O3K 1_555 1_555
C4H O3H 1_555 1_555
O4 Nd1J_2 1_555 1_555
C3 C4 1_555 1_555
Cu1J O3J 1_555 1_555
Cu1K O3K 1_555 1_555
Cu1B O3H 1_555 1_555
Nd1J_2 O3A 1_555 1_555
Nd1J_2 O3C 1_555 1_555
O4A C4A 1_555 1_555
O4C C4C 1_555 1_555
O4J C4J 1_555 1_555
O4K C4K 1_555 1_555
O4H C4H 1_555 1_555
C1A C2A 1_555 1_555
C1C C2C 1_555 1_555
C1K C2K 1_555 1_555
C1H C2H 1_555 1_555
C3A C4A 1_555 1_555
C3C C4C 1_555 1_555
C3J C4J 1_555 1_555
C3K C4K 1_555 1_555
C3H C4H 1_555 1_555

#END
