
#######################################################################
#
#                 Cambridge Crystallographic Data Centre
#                                CCDC 
#
#######################################################################
#
# If this CIF has been generated from an entry in the Cambridge 
# Structural Database, then it will include bibliographic, chemical, 
# crystal, experimental, refinement or atomic coordinate data resulting 
# from the CCDC's data processing and validation procedures.
#
#######################################################################

data_OFESAU
_chemical_formula_moiety         '(C24 H32 Cu3 Gd2 N6 O25)n'
_symmetry_cell_setting           trigonal
_symmetry_space_group_name_H-M   'P -3 c 1'
_symmetry_Int_Tables_number      165
_space_group_name_Hall           '-P 3 2"c'
loop_
_symmetry_equiv_pos_site_id
_symmetry_equiv_pos_as_xyz
1 x,y,z
2 -y,x-y,z
3 y,x,1/2-z
4 -x+y,-x,z
5 -x,-x+y,1/2-z
6 x-y,-y,1/2-z
7 -x,-y,-z
8 y,-x+y,-z
9 -y,-x,1/2+z
10 x-y,x,-z
11 x,x-y,1/2+z
12 -x+y,y,1/2+z
_cell_length_a                   13.343(3)
_cell_length_b                   13.343(3)
_cell_length_c                   14.515(4)
_cell_angle_alpha                90
_cell_angle_beta                 90
_cell_angle_gamma                120
_cell_volume                     2237.97
loop_
_atom_site_label
_atom_site_type_symbol
_atom_site_fract_x
_atom_site_fract_y
_atom_site_fract_z
Cu1 Cu 0.5000 1.0000 0.0000
Gd1 Gd 0.3333 0.6667 0.33200(4)
O1 O 0.4012(4) 0.9253(3) 0.1076(3)
O2 O 0.3821(5) 0.8173(4) 0.2283(3)
O3 O 0.4507(3) 0.8128(4) -0.0584(3)
O4 O 0.5609(5) 0.7561(4) -0.1269(3)
N1 N 0.6108(4) 0.9580(4) 0.0582(3)
H1 H 0.6740 1.0241 0.0779
C1 C 0.4380(5) 0.8746(4) 0.1592(5)
C2 C 0.5529(5) 0.8856(6) 0.1392(4)
H2 H 0.5422 0.8089 0.1291
H3 H 0.6026 0.9186 0.1925
C3 C 0.6486(5) 0.9024(5) -0.0106(4)
H4 H 0.7073 0.9612 -0.0499
H5 H 0.6825 0.8621 0.0206
C4 C 0.5471(5) 0.8172(5) -0.0690(4)
Cu1A Cu 0.0000 0.5000 0.0000
Cu1C Cu 0.5000 0.5000 0.0000
Cu1J Cu 0.5000 0.5000 0.5000
Cu1K Cu 0.5000 1.0000 0.5000
Cu1B Cu 0.0000 0.5000 0.5000
Gd1J Gd 0.3333 0.6666 0.83200(4)
Gd1J_2 Gd 0.3333 0.6666 -0.16800(4)
O1A O 0.0747(3) 0.4759(5) 0.1076(3)
O1C O 0.5241(5) 0.5988(4) 0.1076(3)
O1J O 0.4012(4) 0.4759(5) 0.6076(3)
O1K O 0.5241(5) 0.9253(3) 0.6076(3)
O1H O 0.0747(3) 0.5988(4) 0.6076(3)
O1F O 0.5988(4) 1.0747(3) -0.1076(3)
O1G O -0.0747(3) 0.5241(5) -0.1076(3)
O1I O 0.4759(5) 0.4012(4) -0.1076(3)
O2A O 0.1827(4) 0.5648(6) 0.2283(3)
O2C O 0.4352(6) 0.6179(5) 0.2283(3)
O2J O 0.3821(5) 0.5648(6) 0.7283(3)
O2K O 0.4352(6) 0.8173(4) 0.7283(3)
O2H O 0.1827(4) 0.6179(5) 0.7283(3)
O3A O 0.1872(4) 0.6379(5) -0.0584(3)
O3C O 0.3621(5) 0.5493(3) -0.0584(3)
O3J O 0.4507(3) 0.6379(5) 0.4416(3)
O3K O 0.3621(5) 0.8128(4) 0.4416(3)
O3H O 0.1872(4) 0.5493(3) 0.4416(3)
O3F O 0.5493(3) 1.1872(4) 0.0584(3)
O3_2 O 0.4507(3) 0.8128(4) 0.9416(3)
O3A_2 O 0.1872(4) 0.6379(5) 0.9416(3)
O3C_2 O 0.3621(5) 0.5493(3) 0.9416(3)
O3G O -0.1872(4) 0.3621(5) 0.0584(3)
O3I O 0.6379(5) 0.4507(3) 0.0584(3)
O4A O 0.2439(4) 0.8048(6) -0.1269(3)
O4C O 0.1952(6) 0.4391(5) -0.1269(3)
O4J O 0.5609(5) 0.8048(6) 0.3731(3)
O4K O 0.1952(6) 0.7561(4) 0.3731(3)
O4H O 0.2439(4) 0.4391(5) 0.3731(3)
O4_2 O 0.5609(5) 0.7561(4) 0.8731(3)
O4A_2 O 0.2439(4) 0.8048(6) 0.8731(3)
O4C_2 O 0.1952(6) 0.4391(5) 0.8731(3)
N1A N 0.0420(4) 0.6528(6) 0.0582(3)
N1C N 0.3472(6) 0.3892(4) 0.0582(3)
N1J N 0.6108(4) 0.6528(6) 0.5582(3)
N1K N 0.3472(6) 0.9580(4) 0.5582(3)
N1H N 0.0420(4) 0.3892(4) 0.5582(3)
N1F N 0.3892(4) 1.0420(4) -0.0582(3)
N1G N -0.0420(4) 0.3472(6) -0.0582(3)
N1I N 0.6528(6) 0.6108(4) -0.0582(3)
H1A H -0.0241 0.6499 0.0779
H1C H 0.3501 0.3260 0.0779
H1J H 0.6740 0.6499 0.5779
H1K H 0.3501 1.0241 0.5779
H1H H -0.0241 0.3260 0.5779
H1F H 0.3260 0.9759 -0.0779
H1G H 0.0241 0.3501 -0.0779
H1I H 0.6499 0.6740 -0.0779
C1A C 0.1254(4) 0.5634(6) 0.1592(5)
C1C C 0.4366(6) 0.5620(5) 0.1592(5)
C1J C 0.4380(5) 0.5634(6) 0.6592(5)
C1K C 0.4366(6) 0.8746(4) 0.6592(5)
C1H C 0.1254(4) 0.5620(5) 0.6592(5)
C2A C 0.1144(6) 0.6673(8) 0.1392(4)
C2C C 0.3327(8) 0.4471(5) 0.1392(4)
C2J C 0.5529(5) 0.6673(8) 0.6392(4)
C2K C 0.3327(8) 0.8856(6) 0.6392(4)
C2H C 0.1144(6) 0.4471(5) 0.6392(4)
H2A H 0.1911 0.7333 0.1291
H2C H 0.2667 0.4578 0.1291
H2J H 0.5422 0.7333 0.6291
H2K H 0.2667 0.8089 0.6291
H2H H 0.1911 0.4578 0.6291
H3A H 0.0814 0.6840 0.1925
H3C H 0.3160 0.3974 0.1925
H3J H 0.6026 0.6840 0.6925
H3K H 0.3160 0.9186 0.6925
H3H H 0.0814 0.3974 0.6925
C3A C 0.0976(5) 0.7462(7) -0.0106(4)
C3C C 0.2538(7) 0.3514(5) -0.0106(4)
C3J C 0.6486(5) 0.7462(7) 0.4894(4)
C3K C 0.2538(7) 0.9024(5) 0.4894(4)
C3H C 0.0976(5) 0.3514(5) 0.4894(4)
H4A H 0.0388 0.7461 -0.0499
H4C H 0.2539 0.2927 -0.0499
H4J H 0.7073 0.7461 0.4501
H4K H 0.2539 0.9612 0.4501
H4H H 0.0388 0.2927 0.4501
H5A H 0.1379 0.8204 0.0206
H5C H 0.1796 0.3175 0.0206
H5J H 0.6825 0.8204 0.5206
H5K H 0.1796 0.8621 0.5206
H5H H 0.1379 0.3175 0.5206
C4A C 0.1828(5) 0.7299(7) -0.0690(4)
C4C C 0.2701(7) 0.4529(5) -0.0690(4)
C4J C 0.5471(5) 0.7299(7) 0.4310(4)
C4K C 0.2701(7) 0.8172(5) 0.4310(4)
C4H C 0.1828(5) 0.4529(5) 0.4310(4)
O5 O 0.7313(10) 0.7313(10) 0.2500
loop_
_geom_bond_atom_site_label_1
_geom_bond_atom_site_label_2
_geom_bond_site_symmetry_1
_geom_bond_site_symmetry_2
Cu1 O1 1_555 1_555
Gd1 O2 1_555 1_555
O1 C1 1_555 1_555
O2 C1 1_555 1_555
O3 Cu1 1_555 1_555
O4 C4 1_555 1_555
N1 Cu1 1_555 1_555
H1 N1 1_555 1_555
C1 C2 1_555 1_555
C2 N1 1_555 1_555
H2 C2 1_555 1_555
H3 C2 1_555 1_555
C3 N1 1_555 1_555
H4 C3 1_555 1_555
H5 C3 1_555 1_555
C4 O3 1_555 1_555
Cu1A O1A 1_555 1_555
Cu1C O1C 1_555 1_555
Cu1J O1J 1_555 1_555
Cu1K O1K 1_555 1_555
Cu1B O1H 1_555 1_555
Gd1J O2J 1_555 1_555
Gd1J_2 O3 1_555 1_555
O1A C1A 1_555 1_555
O1C C1C 1_555 1_555
O1J C1J 1_555 1_555
O1K C1K 1_555 1_555
O1H C1H 1_555 1_555
O1F Cu1 1_555 1_555
O1G Cu1A 1_555 1_555
O1I Cu1C 1_555 1_555
O2A Gd1 1_555 1_555
O2C Gd1 1_555 1_555
O2J C1J 1_555 1_555
O2K Gd1J 1_555 1_555
O2H Gd1J 1_555 1_555
O3A Cu1A 1_555 1_555
O3C Cu1C 1_555 1_555
O3J Gd1 1_555 1_555
O3K Gd1 1_555 1_555
O3H Gd1 1_555 1_555
O3F Cu1 1_555 1_555
O3_2 Gd1J 1_555 1_555
O3A_2 Gd1J 1_555 1_555
O3C_2 Gd1J 1_555 1_555
O3G Cu1A 1_555 1_555
O3I Cu1C 1_555 1_555
O4A Gd1J_2 1_555 1_555
O4C Gd1J_2 1_555 1_555
O4J Gd1 1_555 1_555
O4K Gd1 1_555 1_555
O4H Gd1 1_555 1_555
O4_2 Gd1J 1_555 1_555
O4A_2 Gd1J 1_555 1_555
O4C_2 Gd1J 1_555 1_555
N1A Cu1A 1_555 1_555
N1C Cu1C 1_555 1_555
N1J Cu1J 1_555 1_555
N1K Cu1K 1_555 1_555
N1H Cu1B 1_555 1_555
N1F Cu1 1_555 1_555
N1G Cu1A 1_555 1_555
N1I Cu1C 1_555 1_555
H1A N1A 1_555 1_555
H1C N1C 1_555 1_555
H1J N1J 1_555 1_555
H1K N1K 1_555 1_555
H1H N1H 1_555 1_555
H1F N1F 1_555 1_555
H1G N1G 1_555 1_555
H1I N1I 1_555 1_555
C1A O2A 1_555 1_555
C1C O2C 1_555 1_555
C1J C2J 1_555 1_555
C1K O2K 1_555 1_555
C1H O2H 1_555 1_555
C2A N1A 1_555 1_555
C2C N1C 1_555 1_555
C2J N1J 1_555 1_555
C2K N1K 1_555 1_555
C2H N1H 1_555 1_555
H2A C2A 1_555 1_555
H2C C2C 1_555 1_555
H2J C2J 1_555 1_555
H2K C2K 1_555 1_555
H2H C2H 1_555 1_555
H3A C2A 1_555 1_555
H3C C2C 1_555 1_555
H3J C2J 1_555 1_555
H3K C2K 1_555 1_555
H3H C2H 1_555 1_555
C3A N1A 1_555 1_555
C3C N1C 1_555 1_555
C3J N1J 1_555 1_555
C3K N1K 1_555 1_555
C3H N1H 1_555 1_555
H4A C3A 1_555 1_555
H4C C3C 1_555 1_555
H4J C3J 1_555 1_555
H4K C3K 1_555 1_555
H4H C3H 1_555 1_555
H5A C3A 1_555 1_555
H5C C3C 1_555 1_555
H5J C3J 1_555 1_555
H5K C3K 1_555 1_555
H5H C3H 1_555 1_555
C4A O3A 1_555 1_555
C4C O3C 1_555 1_555
C4J O3J 1_555 1_555
C4K O3K 1_555 1_555
C4H O3H 1_555 1_555
O4 Gd1J_2 1_555 1_555
C3 C4 1_555 1_555
Cu1J O3J 1_555 1_555
Cu1K O3K 1_555 1_555
Cu1B O3H 1_555 1_555
Gd1J_2 O3A 1_555 1_555
Gd1J_2 O3C 1_555 1_555
O4A C4A 1_555 1_555
O4C C4C 1_555 1_555
O4J C4J 1_555 1_555
O4K C4K 1_555 1_555
O4H C4H 1_555 1_555
C1A C2A 1_555 1_555
C1C C2C 1_555 1_555
C1K C2K 1_555 1_555
C1H C2H 1_555 1_555
C3A C4A 1_555 1_555
C3C C4C 1_555 1_555
C3J C4J 1_555 1_555
C3K C4K 1_555 1_555
C3H C4H 1_555 1_555

#END
