
#######################################################################
#
#                 Cambridge Crystallographic Data Centre
#                                CCDC 
#
#######################################################################
#
# If this CIF has been generated from an entry in the Cambridge 
# Structural Database, then it will include bibliographic, chemical, 
# crystal, experimental, refinement or atomic coordinate data resulting 
# from the CCDC's data processing and validation procedures.
#
#######################################################################

data_HULRIR
_chemical_formula_moiety         '(C24 H14 Cd3 N3 O14)n'
_symmetry_cell_setting           monoclinic
_symmetry_space_group_name_H-M   'C 2/c'
_symmetry_Int_Tables_number      15
_space_group_name_Hall           '-C 2yc'
loop_
_symmetry_equiv_pos_site_id
_symmetry_equiv_pos_as_xyz
1 x,y,z
2 -x,y,1/2-z
3 1/2+x,1/2+y,z
4 1/2-x,1/2+y,1/2-z
5 -x,-y,-z
6 x,-y,1/2+z
7 1/2-x,1/2-y,-z
8 1/2+x,1/2-y,1/2+z
_cell_length_a                   18.873(4)
_cell_length_b                   19.329(4)
_cell_length_c                   25.911(5)
_cell_angle_alpha                90
_cell_angle_beta                 101.04(3)
_cell_angle_gamma                90
_cell_volume                     9277.31
loop_
_atom_site_label
_atom_site_type_symbol
_atom_site_fract_x
_atom_site_fract_y
_atom_site_fract_z
_atom_site_U_iso_or_equiv
_atom_site_thermal_displace_type
O1 O 0.2343(4) 0.0594(4) 0.5173(3) 0.0781 Uani
O2 O 0.3132(3) 0.0292(4) 0.4695(2) 0.0678 Uani
C1 C 0.2969(5) 0.0475(6) 0.5118(4) 0.0670 Uani
O3 O 0.3057(6) 0.0816(6) 0.7065(4) 0.1421 Uani
O4 O 0.4098(4) 0.1101(5) 0.7409(3) 0.0881 Uani
C2 C 0.3697(6) 0.0905(7) 0.7034(4) 0.0815 Uani
O5 O 0.6708(4) 0.4315(4) 0.4524(3) 0.0671 Uani
O6 O 0.7633(4) 0.3692(4) 0.4955(3) 0.0776 Uani
C3 C 0.6993(5) 0.3902(6) 0.4885(4) 0.0546 Uani
O7 O 0.4445(4) 0.3941(4) 0.6011(4) 0.1008 Uani
O8 O 0.4451(4) 0.4426(5) 0.5297(4) 0.0958 Uani
C4 C 0.4725(5) 0.4046(6) 0.5629(4) 0.0607 Uani
C5 C 0.5448(5) 0.3720(5) 0.5620(3) 0.0461 Uani
C6 C 0.8646(15) -0.0615(15) 0.8007(11) 0.2398 Uani
H1 H 0.8767 -0.0680 0.8369 0.2880 Uiso
Cd1 Cd 0.69654(3) 0.07855(4) 0.57095(2) 0.0477 Uani
Cd2 Cd 0.67811(4) 0.11975(4) 0.70645(3) 0.0570 Uani
Cd3 Cd 0.83646(3) -0.05260(4) 0.56226(3) 0.0563 Uani
O9 O 0.5750(3) 0.0854(4) 0.5515(3) 0.0689 Uani
C7 C 0.4809(4) 0.0691(5) 0.5989(3) 0.0459 Uani
C8 C 0.4620(5) 0.0772(6) 0.6477(4) 0.0630 Uani
H2 H 0.4978 0.0839 0.6774 0.0750 Uiso
C9 C 0.3377(5) 0.0674(6) 0.6073(4) 0.0756 Uani
H3 H 0.2894 0.0698 0.6102 0.0910 Uiso
C10 C 0.5589(5) 0.0694(5) 0.5955(4) 0.0563 Uani
N1 N 0.7683(4) 0.0281(5) 0.6436(3) 0.0582 Uani
O10 O 0.7036(3) 0.1829(4) 0.6179(2) 0.0634 Uani
O11 O 0.6190(4) 0.2098(3) 0.6636(2) 0.0629 Uani
C11 C 0.6741(4) 0.3065(5) 0.5572(3) 0.0407 Uani
H4 H 0.7177 0.2846 0.5561 0.0490 Uiso
C12 C 0.6540(5) 0.3619(5) 0.5262(3) 0.0501 Uani
N2 N 0.7581(4) 0.0412(5) 0.6917(3) 0.0663 Uani
C13 C 0.6307(5) 0.2818(5) 0.5906(3) 0.0438 Uani
C14 C 0.3544(4) 0.0561(6) 0.5590(3) 0.0554 Uani
C15 C 0.6522(5) 0.2221(5) 0.6258(4) 0.0552 Uani
C16 C 0.4270(5) 0.0572(5) 0.5553(4) 0.0614 Uani
H5 H 0.4397 0.0499 0.5228 0.0730 Uiso
C17 C 0.5874(5) 0.3960(5) 0.5274(4) 0.0467 Uani
H6 H 0.5727 0.4336 0.5056 0.0560 Uiso
N3 N 0.8160(4) -0.0188(5) 0.6418(3) 0.0665 Uani
O12 O 0.6058(3) 0.0553(4) 0.6344(3) 0.0696 Uani
C18 C 0.5675(5) 0.3160(5) 0.5942(3) 0.0483 Uani
H7 H 0.5401 0.3013 0.6184 0.0580 Uiso
C19 C 0.3906(5) 0.0755(6) 0.6523(4) 0.0603 Uani
C20 C 0.8389(7) -0.0407(7) 0.6909(5) 0.0924 Uani
C21 C 0.8021(7) -0.0022(7) 0.7214(4) 0.0900 Uani
O13 O 0.7670(8) 0.2043(7) 0.7439(5) 0.2142 Uani
O14 O 0.7901(8) -0.1698(8) 0.5745(7) 0.2477 Uani
C22 C 0.8155(9) -0.0124(10) 0.7796(7) 0.1454 Uani
H8 H 0.7911 0.0137 0.8008 0.1750 Uiso
C23 C 0.8885(12) -0.0933(11) 0.7087(9) 0.1921 Uani
H9 H 0.9127 -0.1189 0.6871 0.2300 Uiso
C24 C 0.8973(14) -0.1029(13) 0.7652(11) 0.2278 Uani
H10 H 0.9268 -0.1392 0.7799 0.2730 Uiso
O1D O 0.7657(4) -0.0594(4) 0.4827(3) 0.0781 Uani
O2D O 0.6868(3) -0.0292(4) 0.5305(2) 0.0678 Uani
O3A O 0.6943(6) 0.0816(6) 0.7935(4) 0.1421 Uani
O4A O 0.5902(4) 0.1101(5) 0.7591(3) 0.0881 Uani
O5F O 0.8292(4) 0.0685(4) 0.5476(3) 0.0671 Uani
O6F O 0.7367(4) 0.1308(4) 0.5045(3) 0.0776 Uani
O7B O 0.9445(4) -0.1059(4) 0.6011(4) 0.1008 Uani
O8B O 0.9451(4) -0.0574(5) 0.5297(4) 0.0958 Uani
Cd1D Cd 0.30346(3) -0.07855(4) 0.42905(2) 0.0477 Uani
Cd1F Cd 0.80346(3) 0.42145(4) 0.42905(2) 0.0477 Uani
Cd2A Cd 0.32189(4) 0.11975(4) 0.79355(3) 0.0570 Uani
Cd3B Cd 0.33646(3) 0.44740(4) 0.56226(3) 0.0563 Uani
Cd3D Cd 0.16354(3) 0.05260(4) 0.43774(3) 0.0563 Uani
Cd3F Cd 0.66354(3) 0.55260(4) 0.43774(3) 0.0563 Uani
loop_
_atom_site_aniso_label
_atom_site_aniso_U_11
_atom_site_aniso_U_22
_atom_site_aniso_U_33
_atom_site_aniso_U_23
_atom_site_aniso_U_13
_atom_site_aniso_U_12
O1 0.045(4) 0.128(6) 0.059(4) -0.030(4) 0.004(3) 0.013(4)
O2 0.057(4) 0.112(6) 0.036(4) -0.016(4) 0.013(3) -0.013(4)
C1 0.037(6) 0.113(10) 0.049(7) -0.006(6) 0.003(5) 0.005(6)
O3 0.119(7) 0.224(8) 0.094(6) -0.037(6) 0.047(5) -0.037(6)
O4 0.041(4) 0.183(9) 0.042(4) -0.037(5) 0.012(4) -0.003(5)
C2 0.035(6) 0.173(13) 0.042(7) -0.015(7) 0.021(5) -0.025(7)
O5 0.070(5) 0.091(6) 0.044(4) 0.026(4) 0.020(4) 0.009(4)
O6 0.054(4) 0.139(7) 0.051(4) 0.022(4) 0.038(4) 0.024(5)
C3 0.046(6) 0.076(8) 0.050(6) -0.013(6) 0.030(5) 0.002(6)
O7 0.079(5) 0.125(6) 0.111(6) 0.030(5) 0.050(5) 0.050(5)
O8 0.061(5) 0.129(6) 0.100(6) 0.052(5) 0.022(4) 0.039(4)
C4 0.050(6) 0.080(8) 0.061(7) 0.021(6) 0.033(6) 0.027(6)
C5 0.036(5) 0.067(7) 0.037(5) 0.006(5) 0.011(4) 0.002(5)
C6 0.252(14) 0.248(14) 0.220(14) 0.004(10) 0.047(10) 0.048(10)
Cd1 0.0306(4) 0.0866(6) 0.0289(4) 0.0095(4) 0.0129(3) 0.0142(4)
Cd2 0.0497(5) 0.0945(6) 0.0309(4) 0.0114(4) 0.0180(3) 0.0175(4)
Cd3 0.0313(4) 0.0968(6) 0.0418(4) -0.0019(4) 0.0094(3) 0.0103(4)
O9 0.034(4) 0.127(6) 0.049(4) 0.002(4) 0.016(3) 0.014(4)
C7 0.023(4) 0.075(7) 0.039(5) 0.000(5) 0.004(4) 0.007(5)
C8 0.038(5) 0.122(9) 0.030(5) -0.003(6) 0.009(4) 0.000(6)
C9 0.026(5) 0.161(12) 0.043(6) -0.035(7) 0.015(5) -0.022(6)
C10 0.030(5) 0.084(8) 0.058(7) -0.014(6) 0.016(5) 0.008(5)
N1 0.036(4) 0.109(7) 0.030(4) 0.022(5) 0.007(3) 0.028(5)
O10 0.053(4) 0.082(5) 0.059(4) -0.004(4) 0.020(4) 0.015(4)
O11 0.075(5) 0.074(5) 0.049(4) 0.014(4) 0.035(4) 0.027(4)
C11 0.036(5) 0.057(6) 0.029(5) 0.008(5) 0.006(4) 0.011(5)
C12 0.039(5) 0.075(7) 0.037(5) -0.005(5) 0.009(4) -0.002(5)
N2 0.059(5) 0.113(7) 0.026(4) 0.019(5) 0.006(4) 0.052(5)
C13 0.041(5) 0.046(5) 0.044(5) -0.006(4) 0.007(4) 0.009(4)
C14 0.031(5) 0.104(9) 0.034(5) -0.021(5) 0.013(4) -0.013(5)
C15 0.049(6) 0.067(7) 0.054(6) -0.014(6) 0.021(5) 0.006(6)
C16 0.043(6) 0.110(9) 0.036(5) -0.002(6) 0.020(5) 0.009(6)
C17 0.047(6) 0.053(6) 0.045(6) -0.005(5) 0.021(5) -0.004(5)
N3 0.065(5) 0.111(7) 0.026(4) 0.016(4) 0.015(4) 0.055(5)
O12 0.033(4) 0.114(6) 0.060(5) -0.004(4) 0.004(3) 0.014(4)
C18 0.040(5) 0.071(7) 0.042(5) 0.010(5) 0.028(4) -0.007(5)
C19 0.046(6) 0.104(9) 0.035(5) -0.017(6) 0.018(5) -0.005(6)
C20 0.095(7) 0.112(8) 0.066(7) 0.009(6) 0.005(6) 0.063(6)
C21 0.097(7) 0.123(8) 0.051(6) -0.010(6) 0.017(6) 0.036(7)
O13 0.192(13) 0.233(15) 0.177(13) 0.004(11) -0.067(10) -0.026(11)
O14 0.198(14) 0.250(17) 0.266(18) 0.051(14) -0.029(12) -0.127(13)
C22 0.153(10) 0.167(10) 0.115(9) 0.007(8) 0.023(8) 0.063(8)
C23 0.209(12) 0.205(12) 0.166(11) 0.011(9) 0.045(9) 0.052(9)
C24 0.240(14) 0.228(14) 0.213(14) 0.005(10) 0.037(10) 0.057(9)
O1D 0.045 0.128 0.059 -0.03 0.004 0.013
O2D 0.057 0.112 0.036 -0.016 0.013 -0.013
O3A 0.119 0.224 0.094 0.037 0.047 0.037
O4A 0.041 0.183 0.042 0.037 0.012 0.003
O5F 0.07 0.091 0.044 0.026 0.02 0.009
O6F 0.054 0.139 0.051 0.022 0.038 0.024
O7B 0.079 0.125 0.111 0.03 0.05 0.05
O8B 0.061 0.129 0.1 0.052 0.022 0.039
Cd1D 0.0306 0.0866 0.0289 0.0095 0.0129 0.0142
Cd1F 0.0306 0.0866 0.0289 0.0095 0.0129 0.0142
Cd2A 0.0497 0.0945 0.0309 -0.0114 0.018 -0.0175
Cd3B 0.0313 0.0968 0.0418 -0.0019 0.0094 0.0103
Cd3D 0.0313 0.0968 0.0418 -0.0019 0.0094 0.0103
Cd3F 0.0313 0.0968 0.0418 -0.0019 0.0094 0.0103
loop_
_geom_bond_atom_site_label_1
_geom_bond_atom_site_label_2
_geom_bond_site_symmetry_1
_geom_bond_site_symmetry_2
O1 C1 1_555 1_555
O2 C1 1_555 1_555
C1 C14 1_555 1_555
O3 C2 1_555 1_555
O4 C2 1_555 1_555
C2 C19 1_555 1_555
O5 C3 1_555 1_555
O6 C3 1_555 1_555
C3 C12 1_555 1_555
O7 C4 1_555 1_555
O8 C4 1_555 1_555
C4 C5 1_555 1_555
C5 C17 1_555 1_555
C6 H1 1_555 1_555
Cd1 O9 1_555 1_555
Cd2 O10 1_555 1_555
Cd3 N3 1_555 1_555
O9 C10 1_555 1_555
C7 C8 1_555 1_555
C8 H2 1_555 1_555
C9 H3 1_555 1_555
C10 C7 1_555 1_555
N1 Cd1 1_555 1_555
O10 Cd1 1_555 1_555
O11 Cd2 1_555 1_555
C11 H4 1_555 1_555
C12 C11 1_555 1_555
N2 Cd2 1_555 1_555
C13 C11 1_555 1_555
C14 C9 1_555 1_555
C15 O10 1_555 1_555
C16 C7 1_555 1_555
H5 C16 1_555 1_555
C17 C12 1_555 1_555
H6 C17 1_555 1_555
N3 N1 1_555 1_555
O12 Cd1 1_555 1_555
C18 C5 1_555 1_555
H7 C18 1_555 1_555
C19 C8 1_555 1_555
C20 N3 1_555 1_555
C21 N2 1_555 1_555
O13 Cd2 1_555 1_555
O14 Cd3 1_555 1_555
C22 C6 1_555 1_555
H8 C22 1_555 1_555
C23 C20 1_555 1_555
H9 C23 1_555 1_555
C24 C6 1_555 1_555
H10 C24 1_555 1_555
O1D Cd3 1_555 1_555
O2D Cd1 1_555 1_555
O3A Cd2 1_555 1_555
O4A Cd2 1_555 1_555
O5F Cd1 1_555 1_555
O6F Cd1 1_555 1_555
O7B Cd3 1_555 1_555
O8B Cd3 1_555 1_555
Cd1D O2 1_555 1_555
Cd1F O5 1_555 1_555
Cd2A O3 1_555 1_555
Cd3B O7 1_555 1_555
Cd3D O1 1_555 1_555
Cd3F O5 1_555 1_555
O4 Cd2A 1_555 1_555
O6 Cd1F 1_555 1_555
O8 Cd3B 1_555 1_555
Cd2 O12 1_555 1_555
Cd3 O5F 1_555 1_555
C9 C19 1_555 1_555
C10 O12 1_555 1_555
N1 N2 1_555 1_555
O11 C15 1_555 1_555
C13 C15 1_555 1_555
C13 C18 1_555 1_555
C14 C16 1_555 1_555
C20 C21 1_555 1_555
C21 C22 1_555 1_555
C23 C24 1_555 1_555

#END
