
#######################################################################
#
#                 Cambridge Crystallographic Data Centre
#                                CCDC 
#
#######################################################################
#
# If this CIF has been generated from an entry in the Cambridge 
# Structural Database, then it will include bibliographic, chemical, 
# crystal, experimental, refinement or atomic coordinate data resulting 
# from the CCDC's data processing and validation procedures.
#
#######################################################################

data_XUNJEW
_chemical_formula_moiety         '(C6 H6 N4 O2 Zn1)n'
_symmetry_cell_setting           rhombohedral
_symmetry_space_group_name_H-M   'R -3'
_symmetry_Int_Tables_number      148
_space_group_name_Hall           '-R 3'
loop_
_symmetry_equiv_pos_site_id
_symmetry_equiv_pos_as_xyz
1 x,y,z
2 -y,x-y,z
3 -x+y,-x,z
4 2/3+x,1/3+y,1/3+z
5 2/3-y,1/3+x-y,1/3+z
6 2/3-x+y,1/3-x,1/3+z
7 1/3+x,2/3+y,2/3+z
8 1/3-y,2/3+x-y,2/3+z
9 1/3-x+y,2/3-x,2/3+z
10 -x,-y,-z
11 y,-x+y,-z
12 x-y,x,-z
13 1/3-x,2/3-y,2/3-z
14 1/3+y,2/3-x+y,2/3-z
15 1/3+x-y,2/3+x,2/3-z
16 2/3-x,1/3-y,1/3-z
17 2/3+y,1/3-x+y,1/3-z
18 2/3+x-y,1/3+x,1/3-z
_cell_length_a                   17.9244(14)
_cell_length_b                   17.9244(14)
_cell_length_c                   18.4454(16)
_cell_angle_alpha                90
_cell_angle_beta                 90
_cell_angle_gamma                120
_cell_volume                     5132.25
loop_
_atom_site_label
_atom_site_type_symbol
_atom_site_fract_x
_atom_site_fract_y
_atom_site_fract_z
Zn1 Zn 0.28253(2) 0.28958(2) 0.043710(13)
N1 N 0.33257(15) 0.30205(22) 0.14707(10)
O1 O 0.40203(15) 0.40919(21) 0.03671(9)
C1 C 0.31014(19) 0.26192(19) 0.21116(13)
C2 C 0.40551(18) 0.37848(18) 0.15918(13)
C3 C 0.4426(2) 0.4348(2) 0.09540(13)
N2 N 0.36569(21) 0.30903(15) 0.26406(11)
C4 C 0.2344(2) 0.1746(2) 0.22232(16)
C5 C 0.42676(19) 0.38281(18) 0.23162(12)
N3 N 0.5139(2) 0.5083(2) 0.10170(13)
H1 H 0.2311 0.1588 0.2724
H2 H 0.2405 0.1338 0.1929
H3 H 0.1829 0.1749 0.2088
C6 C 0.4963(2) 0.4478(2) 0.27789(13)
H4 H 0.543(2) 0.539(2) 0.0668(18)
H5 H 0.539(2) 0.523(3) 0.1435(14)
O2 O 0.55694(23) 0.51449(29) 0.24763(9)
N4 N 0.48797(24) 0.42894(18) 0.34572(11)
H6 H 0.530(2) 0.4574(16) 0.3693(17)
Zn1D Zn 0.37709(2) 0.32628(3) 0.377043(13)
Zn1Q Zn 0.65962(3) 0.61586(2) 0.289623(13)
N2H N 0.27667(26) 0.30098(21) -0.06927(11)
O2P O 0.18116(29) 0.29088(37) 0.08570(9)
N4H N 0.27430(30) 0.17870(24) 0.01239(11)
loop_
_geom_bond_atom_site_label_1
_geom_bond_atom_site_label_2
_geom_bond_site_symmetry_1
_geom_bond_site_symmetry_2
Zn1 N1 1_555 1_555
N1 C1 1_555 1_555
O1 Zn1 1_555 1_555
C1 N2 1_555 1_555
C2 N1 1_555 1_555
C3 O1 1_555 1_555
N2 C5 1_555 1_555
C4 C1 1_555 1_555
C5 C2 1_555 1_555
N3 C3 1_555 1_555
H1 C4 1_555 1_555
H2 C4 1_555 1_555
H3 C4 1_555 1_555
C6 C5 1_555 1_555
H4 N3 1_555 1_555
H5 N3 1_555 1_555
O2 C6 1_555 1_555
N4 C6 1_555 1_555
H6 N4 1_555 1_555
Zn1D N2 1_555 1_555
Zn1Q O2 1_555 1_555
N2H Zn1 1_555 1_555
O2P Zn1 1_555 1_555
N4H Zn1 1_555 1_555
C2 C3 1_555 1_555
N4 Zn1D 1_555 1_555

#END
