
#######################################################################
#
#                 Cambridge Crystallographic Data Centre
#                                CCDC 
#
#######################################################################
#
# If this CIF has been generated from an entry in the Cambridge 
# Structural Database, then it will include bibliographic, chemical, 
# crystal, experimental, refinement or atomic coordinate data resulting 
# from the CCDC's data processing and validation procedures.
#
#######################################################################

data_NIRDEX
_chemical_formula_moiety         '(C8 H12 Cd2 O22 Zr1)n'
_symmetry_cell_setting           orthorhombic
_symmetry_space_group_name_H-M   'I m m 2'
_symmetry_Int_Tables_number      44
_space_group_name_Hall           'I 2 -2'
loop_
_symmetry_equiv_pos_site_id
_symmetry_equiv_pos_as_xyz
1 x,y,z
2 -x,-y,z
3 -x,y,z
4 x,-y,z
5 1/2+x,1/2+y,1/2+z
6 1/2-x,1/2-y,1/2+z
7 1/2-x,1/2+y,1/2+z
8 1/2+x,1/2-y,1/2+z
_cell_length_a                   11.2089(7)
_cell_length_b                   11.2083(6)
_cell_length_c                   8.4747(5)
_cell_angle_alpha                90
_cell_angle_beta                 90
_cell_angle_gamma                90
_cell_volume                     1064.7
loop_
_atom_site_label
_atom_site_type_symbol
_atom_site_fract_x
_atom_site_fract_y
_atom_site_fract_z
Zr1 Zr 0.5000 0.0000 0.1723(5)
Cd1 Cd 0.0000 0.0000 0.42336(14)
Cd2 Cd 0.0000 0.0000 -0.0752(3)
O1 O 0.1218(7) 0.0000 0.157(3)
O2 O 0.5000 -0.3785(6) 0.179(3)
O3 O 0.1982(16) 0.0000 0.486(3)
O4 O 0.3848(9) 0.0000 0.3808(14)
O5 O 0.5000 -0.3033(13) -0.148(3)
O6 O 0.3139(9) -0.0000 0.0934(16)
O7 O 0.5000 -0.1864(9) 0.2460(15)
O8 O 0.196(2) 0.0000 -0.155(2)
O9 O 0.0000 0.195(3) -0.005(3)
O10 O 0.5000 -0.1136(10) -0.0384(16)
C1 C 0.2288(12) 0.0000 0.189(3)
C2 C 0.2707(11) -0.0000 0.3650(17)
C3 C 0.5000 -0.2713(11) 0.154(5)
C4 C 0.5000 -0.2298(14) -0.023(2)
O1A O 0.8782(7) 0.0000 0.157(3)
O3A O 0.8018(16) 0.0000 0.486(3)
O4A O 0.6152(9) 0.0000 0.3808(14)
O6A O 0.6861(9) -0.0000 0.0934(16)
C1A C 0.7712(12) 0.0000 0.189(3)
C2A C 0.7293(11) -0.0000 0.3650(17)
O2A O 0.5000 0.3785(6) 0.179(3)
O5A O 0.5000 0.3033(13) -0.148(3)
O7A O 0.5000 0.1864(9) 0.2460(15)
O10A O 0.5000 0.1136(10) -0.0384(16)
C3A C 0.5000 0.2713(11) 0.154(5)
C4A C 0.5000 0.2298(14) -0.023(2)
O8A O -0.196(2) 0.0000 -0.155(2)
O9A O -0.0000 -0.195(3) -0.005(3)
O1A_2 O -0.1218(7) 0.0000 0.157(3)
O2D O 0.0000 0.1215(6) 0.679(3)
O2E O 0.0000 -0.1215(6) 0.679(3)
O3A_2 O -0.1982(16) 0.0000 0.486(3)
O5D O -0.0000 0.1967(13) 0.352(3)
O5E O 0.0000 -0.1967(13) 0.352(3)
O2D_2 O 0.0000 0.1215(6) -0.321(3)
O2E_2 O -0.0000 -0.1215(6) -0.321(3)
Cd1D Cd 0.5000 -0.5000 -0.07664(14)
Cd2D Cd 0.5000 -0.5000 0.4248(3)
Cd1_2 Cd 1.0000 0.0000 0.42336(14)
Cd2_2 Cd 1.0000 0.0000 -0.0752(3)
Cd1D_2 Cd 0.5000 0.5000 -0.07664(14)
Cd2D_2 Cd 0.5000 0.5000 0.4248(3)
O11 O 0.5000 0.0000 0.714(2)
O12 O 0.246(3) 0.259(3) 0.119(7)
loop_
_geom_bond_atom_site_label_1
_geom_bond_atom_site_label_2
_geom_bond_site_symmetry_1
_geom_bond_site_symmetry_2
Zr1 O4 1_555 1_555
Cd1 O1 1_555 1_555
Cd2 O1 1_555 1_555
O1 C1 1_555 1_555
O2 C3 1_555 1_555
O3 Cd1 1_555 1_555
O4 C2 1_555 1_555
O5 C4 1_555 1_555
O6 Zr1 1_555 1_555
O7 Zr1 1_555 1_555
O8 Cd2 1_555 1_555
O9 Cd2 1_555 1_555
O10 Zr1 1_555 1_555
C1 O6 1_555 1_555
C2 O3 1_555 1_555
C3 O7 1_555 1_555
C4 O10 1_555 1_555
O1A C1A 1_555 1_555
O3A C2A 1_555 1_555
O4A Zr1 1_555 1_555
O6A Zr1 1_555 1_555
C1A O6A 1_555 1_555
C2A O4A 1_555 1_555
O2A C3A 1_555 1_555
O5A C4A 1_555 1_555
O7A Zr1 1_555 1_555
O10A Zr1 1_555 1_555
C3A O7A 1_555 1_555
C4A O10A 1_555 1_555
O8A Cd2 1_555 1_555
O9A Cd2 1_555 1_555
O1A_2 Cd1 1_555 1_555
O2D Cd1 1_555 1_555
O2E Cd1 1_555 1_555
O3A_2 Cd1 1_555 1_555
O5D Cd1 1_555 1_555
O5E Cd1 1_555 1_555
O2D_2 Cd2 1_555 1_555
O2E_2 Cd2 1_555 1_555
Cd1D O2 1_555 1_555
Cd2D O2 1_555 1_555
Cd1_2 O1A 1_555 1_555
Cd2_2 O1A 1_555 1_555
Cd1D_2 O2A 1_555 1_555
Cd2D_2 O2A 1_555 1_555
Cd2 O1A_2 1_555 1_555
O5 Cd1D 1_555 1_555
C1 C2 1_555 1_555
C3 C4 1_555 1_555
O3A Cd1_2 1_555 1_555
C1A C2A 1_555 1_555
O5A Cd1D_2 1_555 1_555
C3A C4A 1_555 1_555

#END
