
#######################################################################
#
#                 Cambridge Crystallographic Data Centre
#                                CCDC 
#
#######################################################################
#
# If this CIF has been generated from an entry in the Cambridge 
# Structural Database, then it will include bibliographic, chemical, 
# crystal, experimental, refinement or atomic coordinate data resulting 
# from the CCDC's data processing and validation procedures.
#
#######################################################################

data_HUFHUN
_chemical_formula_moiety         '(C16 H16 Ag1 F6 N4 P1)n'
_symmetry_cell_setting           rhombohedral
_symmetry_space_group_name_H-M   'R -3'
_symmetry_Int_Tables_number      148
_space_group_name_Hall           '-R 3'
loop_
_symmetry_equiv_pos_site_id
_symmetry_equiv_pos_as_xyz
1 x,y,z
2 -y,x-y,z
3 -x+y,-x,z
4 2/3+x,1/3+y,1/3+z
5 2/3-y,1/3+x-y,1/3+z
6 2/3-x+y,1/3-x,1/3+z
7 1/3+x,2/3+y,2/3+z
8 1/3-y,2/3+x-y,2/3+z
9 1/3-x+y,2/3-x,2/3+z
10 -x,-y,-z
11 y,-x+y,-z
12 x-y,x,-z
13 1/3-x,2/3-y,2/3-z
14 1/3+y,2/3-x+y,2/3-z
15 1/3+x-y,2/3+x,2/3-z
16 2/3-x,1/3-y,1/3-z
17 2/3+y,1/3-x+y,1/3-z
18 2/3+x-y,1/3+x,1/3-z
_cell_length_a                   29.4645(9)
_cell_length_b                   29.4645(9)
_cell_length_c                   14.2632(6)
_cell_angle_alpha                90
_cell_angle_beta                 90
_cell_angle_gamma                120
_cell_volume                     10723.7
loop_
_atom_site_label
_atom_site_type_symbol
_atom_site_fract_x
_atom_site_fract_y
_atom_site_fract_z
Ag1 Ag 0.46208(2) 0.07037(3) 0.74835(5)
C1 C 0.4491(3) 0.1643(3) 0.6553(5)
H1 H 0.4834 0.1663 0.6463
H2 H 0.4499 0.1939 0.6210
N1 N 0.4484(3) 0.1395(3) 0.8168(4)
C2 C 0.4409(3) 0.1690(3) 0.7567(5)
C3 C 0.4265(3) 0.2053(3) 0.7891(5)
H3 H 0.4201 0.2254 0.7445
N2 N 0.4215(2) 0.2123(2) 0.8802(4)
C4 C 0.4286(4) 0.1814(3) 0.9391(6)
H4 H 0.4241 0.1842 1.0044
C5 C 0.4422(4) 0.1453(4) 0.9078(7)
H5 H 0.4473 0.1242 0.9522
N3 N 0.4058(2) 0.0692(2) 0.6378(4)
C6 C 0.4063(3) 0.1131(3) 0.6152(5)
C7 C 0.3677(3) 0.1114(3) 0.5553(5)
H6 H 0.3679 0.1430 0.5412
N4 N 0.3309(3) 0.0670(2) 0.5178(4)
C8 C 0.3302(4) 0.0230(3) 0.5433(6)
H7 H 0.3034 -0.0098 0.5204
C9 C 0.3680(3) 0.0249(3) 0.6026(5)
H8 H 0.3669 -0.0069 0.6188
Ag1G Ag 0.26296(3) 0.05838(4) 0.41502(5)
Ag1M Ag 0.40370(3) 0.27496(4) 0.91832(5)
N2N N 0.5425(3) 0.0882(2) 0.7865(4)
N4E N 0.4028(4) 0.0024(3) 0.8511(4)
P1 P 0.46196(7) 0.06618(9) 1.13786(15)
F1 F 0.4816(3) 0.0392(4) 1.0595(5)
F2 F 0.4103(2) 0.0495(3) 1.0790(4)
F3 F 0.4922(3) 0.1149(4) 1.0776(7)
F4 F 0.4402(3) 0.0823(5) 1.2158(6)
F5 F 0.51382(19) 0.0804(2) 1.1932(3)
F6 F 0.4331(2) 0.0096(3) 1.1806(6)
C10 C 0.5422(9) 0.2362(8) 0.4629(14)
C11 C 0.5076(8) 0.1886(11) 0.4210(11)
H9 H 0.4821 0.1866 0.3777
C12 C 0.5103(10) 0.1440(8) 0.4423(15)
H10 H 0.4866 0.1115 0.4137
C13 C 0.5475(11) 0.1469(9) 0.5056(17)
H11 H 0.5494 0.1164 0.5202
C14 C 0.5821(8) 0.1945(11) 0.5475(16)
H12 H 0.6076 0.1965 0.5907
C15 C 0.5794(7) 0.2391(8) 0.5261(15)
H13 H 0.6031 0.2716 0.5548
C16 C 0.5348(16) 0.2816(12) 0.438(3)
H14 H 0.5587 0.3122 0.4752
H15 H 0.4985 0.2724 0.4506
H16 H 0.5424 0.2898 0.3710
loop_
_geom_bond_atom_site_label_1
_geom_bond_atom_site_label_2
_geom_bond_site_symmetry_1
_geom_bond_site_symmetry_2
Ag1 N1 1_555 1_555
C1 H1 1_555 1_555
H2 C1 1_555 1_555
N1 C2 1_555 1_555
C2 C1 1_555 1_555
C3 C2 1_555 1_555
H3 C3 1_555 1_555
N2 C3 1_555 1_555
C4 N2 1_555 1_555
H4 C4 1_555 1_555
C5 N1 1_555 1_555
H5 C5 1_555 1_555
N3 Ag1 1_555 1_555
C6 C1 1_555 1_555
C7 C6 1_555 1_555
H6 C7 1_555 1_555
N4 C7 1_555 1_555
C8 N4 1_555 1_555
H7 C8 1_555 1_555
C9 N3 1_555 1_555
H8 C9 1_555 1_555
P1 F1 1_555 1_555
F2 P1 1_555 1_555
F3 P1 1_555 1_555
F4 P1 1_555 1_555
F5 P1 1_555 1_555
F6 P1 1_555 1_555
C10 C11 1_555 1_555
C11 H9 1_555 1_555
C12 C11 1_555 1_555
H10 C12 1_555 1_555
C13 C12 1_555 1_555
H11 C13 1_555 1_555
C14 C13 1_555 1_555
H12 C14 1_555 1_555
C15 C10 1_555 1_555
H13 C15 1_555 1_555
C16 C10 1_555 1_555
H14 C16 1_555 1_555
H15 C16 1_555 1_555
H16 C16 1_555 1_555
Ag1G N4 1_555 1_555
Ag1M N2 1_555 1_555
N2N Ag1 1_555 1_555
N4E Ag1 1_555 1_555
C4 C5 1_555 1_555
N3 C6 1_555 1_555
C8 C9 1_555 1_555
C14 C15 1_555 1_555

#END
