
#######################################################################
#
#                 Cambridge Crystallographic Data Centre
#                                CCDC 
#
#######################################################################
#
# If this CIF has been generated from an entry in the Cambridge 
# Structural Database, then it will include bibliographic, chemical, 
# crystal, experimental, refinement or atomic coordinate data resulting 
# from the CCDC's data processing and validation procedures.
#
#######################################################################

data_HUFHEX
_chemical_formula_moiety         '(C11 H14 Ag1 F6 N4 O1 P1 S1)n'
_symmetry_cell_setting           rhombohedral
_symmetry_space_group_name_H-M   'R -3'
_symmetry_Int_Tables_number      148
_space_group_name_Hall           '-R 3'
loop_
_symmetry_equiv_pos_site_id
_symmetry_equiv_pos_as_xyz
1 x,y,z
2 -y,x-y,z
3 -x+y,-x,z
4 2/3+x,1/3+y,1/3+z
5 2/3-y,1/3+x-y,1/3+z
6 2/3-x+y,1/3-x,1/3+z
7 1/3+x,2/3+y,2/3+z
8 1/3-y,2/3+x-y,2/3+z
9 1/3-x+y,2/3-x,2/3+z
10 -x,-y,-z
11 y,-x+y,-z
12 x-y,x,-z
13 1/3-x,2/3-y,2/3-z
14 1/3+y,2/3-x+y,2/3-z
15 1/3+x-y,2/3+x,2/3-z
16 2/3-x,1/3-y,1/3-z
17 2/3+y,1/3-x+y,1/3-z
18 2/3+x-y,1/3+x,1/3-z
_cell_length_a                   28.9105(14)
_cell_length_b                   28.9105(14)
_cell_length_c                   14.3863(6)
_cell_angle_alpha                90
_cell_angle_beta                 90
_cell_angle_gamma                120
_cell_volume                     10413.4
loop_
_atom_site_label
_atom_site_type_symbol
_atom_site_fract_x
_atom_site_fract_y
_atom_site_fract_z
_atom_site_U_iso_or_equiv
_atom_site_thermal_displace_type
Ag1 Ag 0.80207(2) 0.06580(2) 0.39295(3) 0.0351 Uani
N1 N 0.73293(18) -0.00297(17) 0.2981(3) 0.0363 Uani
C1 C 0.7684(2) -0.0734(2) 0.6006(3) 0.0400 Uani
H1 H 0.7650 -0.0773 0.6662 0.0480 Uiso
C2 C 0.7380(2) -0.04478(19) 0.2714(3) 0.0304 Uani
C3 C 0.77775(19) -0.05861(18) 0.4157(3) 0.0286 Uani
C4 C 0.78267(19) -0.0510(2) 0.3121(3) 0.0301 Uani
H2 H 0.7824 -0.0822 0.2831 0.0360 Uiso
H3 H 0.8173 -0.0189 0.2973 0.0360 Uiso
C5 C 0.7582(2) -0.10872(18) 0.4555(3) 0.0312 Uani
H4 H 0.7472 -0.1388 0.4160 0.0380 Uiso
N2 N 0.7925(2) -0.01567(17) 0.4685(3) 0.0427 Uani
C6 C 0.6587(2) -0.0341(2) 0.1972(4) 0.0471 Uani
H5 H 0.6311 -0.0292 0.1723 0.0560 Uiso
N3 N 0.75429(18) -0.11617(16) 0.5472(3) 0.0345 Uani
C7 C 0.7023(2) -0.0814(2) 0.2071(3) 0.0361 Uani
H6 H 0.7061 -0.1111 0.1899 0.0430 Uiso
C8 C 0.7879(3) -0.0235(2) 0.5610(4) 0.0512 Uani
H7 H 0.7984 0.0064 0.6006 0.0610 Uiso
N4 N 0.6627(2) -0.07602(18) 0.1688(3) 0.0454 Uani
C9 C 0.6935(2) 0.0023(2) 0.2616(4) 0.0449 Uani
H8 H 0.6891 0.0314 0.2800 0.0540 Uiso
S1 S 0.83114(9) 0.08242(9) 0.14664(13) 0.0788 Uani
O1 O 0.8377(2) 0.1082(2) 0.2408(3) 0.1000 Uani
C10 C 0.7856(4) 0.0936(4) 0.0840(5) 0.0923 Uani
H9 H 0.7512 0.0770 0.1167 0.1390 Uiso
H10 H 0.7806 0.0779 0.0219 0.1390 Uiso
H11 H 0.7994 0.1321 0.0785 0.1390 Uiso
C11 C 0.8882(4) 0.1250(5) 0.0837(6) 0.1246 Uani
H12 H 0.8871 0.1573 0.0667 0.1870 Uiso
H13 H 0.8898 0.1069 0.0272 0.1870 Uiso
H14 H 0.9199 0.1349 0.1218 0.1870 Uiso
Ag1H Ag 0.59706(3) -0.13540(2) 0.05962(3) 0.0351 Uani
Ag1K Ag 0.73627(3) -0.19793(2) 0.60705(3) 0.0351 Uani
N3J N 0.88383(16) 0.12954(24) 0.4528(3) 0.0345 Uani
N4D N 0.74269(18) 0.07205(27) 0.5021(3) 0.0454 Uani
P1 P 0.79429(6) 0.04752(6) 0.81089(10) 0.0418 Uani
F1 F 0.84874(15) 0.08823(16) 0.8613(3) 0.0643 Uani
F2 F 0.76833(17) 0.08102(17) 0.8482(3) 0.0674 Uani
F3 F 0.74001(16) 0.00781(19) 0.7601(3) 0.0831 Uani
F4 F 0.81333(18) 0.0824(2) 0.7196(3) 0.0860 Uani
F5 F 0.7746(2) 0.01212(17) 0.9018(3) 0.0837 Uani
F6 F 0.8197(2) 0.0139(2) 0.7729(4) 0.0997 Uani
loop_
_atom_site_aniso_label
_atom_site_aniso_U_11
_atom_site_aniso_U_22
_atom_site_aniso_U_33
_atom_site_aniso_U_23
_atom_site_aniso_U_13
_atom_site_aniso_U_12
Ag1 0.0335(2) 0.0288(2) 0.0307(2) -0.00523(14) 0.00043(14) 0.00645(16)
N1 0.044(2) 0.032(2) 0.037(2) -0.0103(17) -0.0106(18) 0.022(2)
C1 0.062(4) 0.036(3) 0.024(2) -0.0045(19) -0.005(2) 0.026(3)
C2 0.038(3) 0.033(2) 0.022(2) 0.0002(17) -0.0001(18) 0.019(2)
C3 0.034(2) 0.030(2) 0.023(2) -0.0021(17) -0.0035(18) 0.017(2)
C4 0.037(3) 0.035(2) 0.021(2) -0.0017(17) -0.0004(18) 0.020(2)
C5 0.045(3) 0.026(2) 0.027(2) -0.0070(17) -0.0044(19) 0.021(2)
N2 0.061(3) 0.028(2) 0.032(2) -0.0018(17) -0.006(2) 0.017(2)
C6 0.053(3) 0.046(3) 0.056(3) -0.012(3) -0.022(3) 0.035(3)
N3 0.049(3) 0.027(2) 0.032(2) -0.0024(16) -0.0024(18) 0.0224(19)
C7 0.048(3) 0.033(3) 0.035(3) -0.009(2) -0.010(2) 0.026(2)
C8 0.089(5) 0.030(3) 0.031(3) -0.009(2) -0.011(3) 0.027(3)
N4 0.053(3) 0.038(2) 0.051(3) -0.014(2) -0.021(2) 0.027(2)
C9 0.047(3) 0.035(3) 0.060(4) -0.011(2) -0.013(3) 0.026(3)
S1 0.0731(13) 0.0799(13) 0.0476(10) -0.0090(9) -0.0131(9) 0.0113(10)
O1 0.083(4) 0.100(4) 0.032(2) 0.000(3) -0.011(2) -0.018(3)
C10 0.090(6) 0.121(8) 0.041(4) -0.020(4) -0.011(4) 0.034(6)
C11 0.061(5) 0.196(12) 0.055(5) -0.016(6) 0.004(4) 0.018(7)
Ag1H 0.0494 0.0335 0.0307 -0.00043 -0.00566 0.02705
Ag1K 0.0494 0.0335 0.0307 -0.00043 -0.00566 0.02705
N3J 0.027 0.0312 0.032 0 0.0024 0.0046
N4D 0.038 0.037 0.051 -0.007 0.014 0.011
P1 0.0370(7) 0.0418(8) 0.0319(7) -0.0073(6) 0.0073(5) 0.0087(6)
F1 0.047(2) 0.069(2) 0.051(2) -0.0108(18) -0.0106(16) 0.0096(18)
F2 0.074(3) 0.071(3) 0.065(2) -0.015(2) 0.000(2) 0.042(2)
F3 0.044(2) 0.084(3) 0.088(3) -0.038(2) -0.004(2) 0.007(2)
F4 0.072(3) 0.108(4) 0.038(2) 0.022(2) 0.0102(19) 0.015(3)
F5 0.106(4) 0.057(2) 0.075(3) 0.022(2) 0.023(3) 0.031(2)
F6 0.102(4) 0.143(5) 0.087(3) -0.061(3) -0.020(3) 0.086(4)
loop_
_geom_bond_atom_site_label_1
_geom_bond_atom_site_label_2
_geom_bond_site_symmetry_1
_geom_bond_site_symmetry_2
Ag1 N1 1_555 1_555
N1 C2 1_555 1_555
C1 H1 1_555 1_555
C2 C4 1_555 1_555
C3 C4 1_555 1_555
C4 H2 1_555 1_555
H3 C4 1_555 1_555
C5 C3 1_555 1_555
H4 C5 1_555 1_555
N2 Ag1 1_555 1_555
C6 H5 1_555 1_555
N3 C1 1_555 1_555
C7 C2 1_555 1_555
H6 C7 1_555 1_555
C8 C1 1_555 1_555
H7 C8 1_555 1_555
N4 C6 1_555 1_555
C9 N1 1_555 1_555
H8 C9 1_555 1_555
S1 O1 1_555 1_555
O1 Ag1 1_555 1_555
C10 S1 1_555 1_555
H9 C10 1_555 1_555
H10 C10 1_555 1_555
H11 C10 1_555 1_555
C11 S1 1_555 1_555
H12 C11 1_555 1_555
H13 C11 1_555 1_555
H14 C11 1_555 1_555
P1 F1 1_555 1_555
F2 P1 1_555 1_555
F3 P1 1_555 1_555
F4 P1 1_555 1_555
F5 P1 1_555 1_555
F6 P1 1_555 1_555
Ag1H N4 1_555 1_555
Ag1K N3 1_555 1_555
N3J Ag1 1_555 1_555
N4D Ag1 1_555 1_555
C3 N2 1_555 1_555
C5 N3 1_555 1_555
N2 C8 1_555 1_555
C6 C9 1_555 1_555
C7 N4 1_555 1_555

#END
