
#######################################################################
#
#                 Cambridge Crystallographic Data Centre
#                                CCDC 
#
#######################################################################
#
# If this CIF has been generated from an entry in the Cambridge 
# Structural Database, then it will include bibliographic, chemical, 
# crystal, experimental, refinement or atomic coordinate data resulting 
# from the CCDC's data processing and validation procedures.
#
#######################################################################

data_HUFHIB
_chemical_formula_moiety         '(C11 H12 Ag1 Cl4 F6 N4 P1)n'
_symmetry_cell_setting           rhombohedral
_symmetry_space_group_name_H-M   'R -3'
_symmetry_Int_Tables_number      148
_space_group_name_Hall           '-R 3'
loop_
_symmetry_equiv_pos_site_id
_symmetry_equiv_pos_as_xyz
1 x,y,z
2 -y,x-y,z
3 -x+y,-x,z
4 2/3+x,1/3+y,1/3+z
5 2/3-y,1/3+x-y,1/3+z
6 2/3-x+y,1/3-x,1/3+z
7 1/3+x,2/3+y,2/3+z
8 1/3-y,2/3+x-y,2/3+z
9 1/3-x+y,2/3-x,2/3+z
10 -x,-y,-z
11 y,-x+y,-z
12 x-y,x,-z
13 1/3-x,2/3-y,2/3-z
14 1/3+y,2/3-x+y,2/3-z
15 1/3+x-y,2/3+x,2/3-z
16 2/3-x,1/3-y,1/3-z
17 2/3+y,1/3-x+y,1/3-z
18 2/3+x-y,1/3+x,1/3-z
_cell_length_a                   29.054(2)
_cell_length_b                   29.054(2)
_cell_length_c                   12.6638(16)
_cell_angle_alpha                90
_cell_angle_beta                 90
_cell_angle_gamma                120
_cell_volume                     9257.77
loop_
_atom_site_label
_atom_site_type_symbol
_atom_site_fract_x
_atom_site_fract_y
_atom_site_fract_z
_atom_site_U_iso_or_equiv
_atom_site_thermal_displace_type
Ag1 Ag 0.47070(3) 0.07052(3) 0.21322(6) 0.0432 Uani
N1 N 0.4440(4) 0.1304(3) 0.2982(7) 0.0486 Uani
N2 N 0.4180(3) 0.2018(3) 0.3865(7) 0.0429 Uani
N3 N 0.3440(3) 0.0782(3) -0.0489(6) 0.0368 Uani
N4 N 0.4256(3) 0.0796(3) 0.0712(6) 0.0380 Uani
C1 C 0.4432(4) 0.1693(3) 0.2399(7) 0.0347 Uani
C2 C 0.3784(4) 0.1209(4) 0.0058(7) 0.0391 Uani
H1 H 0.3748 0.1516 0.0044 0.0470 Uiso
C3 C 0.3925(4) 0.0370(4) 0.0151(8) 0.0394 Uani
H2 H 0.3966 0.0066 0.0168 0.0480 Uiso
C4 C 0.4194(4) 0.1223(4) 0.0647(7) 0.0368 Uani
C5 C 0.3526(4) 0.0359(4) -0.0451(8) 0.0373 Uani
H3 H 0.3303 0.0049 -0.0851 0.0450 Uiso
C6 C 0.4153(4) 0.1625(4) 0.4416(9) 0.0444 Uani
H4 H 0.4038 0.1582 0.5129 0.0540 Uiso
C7 C 0.4286(5) 0.1277(4) 0.3999(8) 0.0480 Uani
H5 H 0.4271 0.1004 0.4437 0.0580 Uiso
C8 C 0.4305(4) 0.2044(4) 0.2841(8) 0.0421 Uani
H6 H 0.4307 0.2313 0.2412 0.0510 Uiso
C9 C 0.4581(4) 0.1713(3) 0.1260(8) 0.0417 Uani
H7 H 0.4939 0.1752 0.1217 0.0500 Uiso
H8 H 0.4599 0.2030 0.0927 0.0500 Uiso
Ag1G Ag 0.26281(3) 0.06685(4) -0.12011(6) 0.0432 Uani
Ag1M Ag 0.40385(3) 0.26649(4) 0.45345(6) 0.0432 Uani
N2N N 0.5495(4) 0.0847(3) 0.2802(7) 0.0429 Uani
N3E N 0.4009(4) -0.0107(3) 0.2844(6) 0.0368 Uani
P1 P 0.45097(13) 0.06786(14) 0.6755(3) 0.0607 Uani
F1 F 0.4176(3) 0.0943(3) 0.6379(6) 0.0701 Uani
F2 F 0.4700(4) 0.1048(4) 0.7735(6) 0.0967 Uani
F3 F 0.4018(3) 0.0248(3) 0.7419(5) 0.0687 Uani
F4 F 0.4827(4) 0.0395(4) 0.7184(9) 0.1248 Uani
F5 F 0.5012(3) 0.1087(4) 0.6094(9) 0.1204 Uani
F6 F 0.4296(4) 0.0289(4) 0.5765(7) 0.1032 Uani
Cl1 Cl 0.4698(3) 0.2427(2) 0.6693(5) 0.0600 Uani
Cl2 Cl 0.3547(4) 0.1709(4) 0.6951(9) 0.1068 Uani
C10 C 0.4180(7) 0.1968(10) 0.7420(18) 0.3200 Uani
H9 H 0.4242 0.1668 0.7548 0.3820 Uiso
H10 H 0.4194 0.2131 0.8116 0.3820 Uiso
Cl1O Cl 0.1969(3) 0.0906(2) 0.6640(5) 0.0600 Uani
Cl2O Cl 0.3120(4) 0.1624(4) 0.6382(9) 0.1068 Uani
C10O C 0.2487(7) 0.1365(10) 0.5913(18) 0.3200 Uani
H9O H 0.2425 0.1665 0.5785 0.3820 Uiso
H10O H 0.2473 0.1202 0.5217 0.3820 Uiso
loop_
_atom_site_aniso_label
_atom_site_aniso_U_11
_atom_site_aniso_U_22
_atom_site_aniso_U_33
_atom_site_aniso_U_23
_atom_site_aniso_U_13
_atom_site_aniso_U_12
Ag1 0.0347(5) 0.0412(5) 0.0562(6) 0.0035(3) -0.0029(3) 0.0209(4)
N1 0.058(6) 0.037(5) 0.051(6) 0.001(4) 0.000(4) 0.024(4)
N2 0.046(5) 0.042(5) 0.050(5) -0.001(4) -0.004(4) 0.029(4)
N3 0.033(4) 0.033(4) 0.041(5) -0.002(3) -0.002(3) 0.014(4)
N4 0.026(4) 0.034(4) 0.054(5) -0.003(4) -0.003(3) 0.015(3)
C1 0.036(5) 0.023(4) 0.044(6) -0.005(4) -0.012(4) 0.014(4)
C2 0.043(6) 0.036(5) 0.044(6) -0.003(4) -0.007(4) 0.024(5)
C3 0.047(6) 0.023(5) 0.053(6) -0.001(4) -0.004(5) 0.021(4)
C4 0.036(5) 0.027(5) 0.037(5) 0.009(4) 0.002(4) 0.008(4)
C5 0.039(5) 0.028(5) 0.044(6) 0.000(4) -0.007(4) 0.016(4)
C6 0.053(6) 0.042(6) 0.048(6) -0.007(5) 0.005(5) 0.031(5)
C7 0.069(7) 0.035(6) 0.040(6) -0.001(4) 0.006(5) 0.026(5)
C8 0.041(6) 0.042(6) 0.045(6) 0.000(5) -0.005(5) 0.022(5)
C9 0.048(6) 0.017(4) 0.053(6) 0.004(4) -0.003(5) 0.011(4)
Ag1G 0.0412 0.0341 0.0562 -0.0064 -0.0035 0.0203
Ag1M 0.0412 0.0341 0.0562 -0.0064 -0.0035 0.0203
N2N 0.03 0.046 0.05 0.004 0.003 0.017
N3E 0.038 0.033 0.041 0.002 0 0.019
P1 0.0416(17) 0.074(2) 0.073(2) -0.0061(18) 0.0035(15) 0.0337(16)
F1 0.051(4) 0.094(5) 0.073(5) 0.023(4) 0.013(3) 0.042(4)
F2 0.095(6) 0.126(8) 0.082(5) -0.036(5) -0.038(5) 0.065(6)
F3 0.066(5) 0.083(5) 0.070(4) 0.019(4) 0.012(4) 0.047(4)
F4 0.081(6) 0.118(8) 0.213(12) 0.002(7) 0.013(7) 0.078(6)
F5 0.039(4) 0.119(8) 0.164(10) -0.011(6) 0.031(5) 0.010(5)
F6 0.100(7) 0.107(7) 0.091(6) -0.029(5) 0.015(5) 0.043(6)
Cl1 0.097(5) 0.029(3) 0.048(3) -0.001(2) -0.025(3) 0.027(3)
Cl2 0.106(7) 0.074(5) 0.147(9) -0.008(5) 0.039(6) 0.050(6)
C10 0.65(14) 0.51(11) 0.12(4) -0.22(6) -0.18(6) 0.53(11)
Cl1O 0.097 0.029 0.048 -0.001 -0.025 0.027
Cl2O 0.106 0.074 0.147 -0.008 0.039 0.05
C10O 0.65 0.51 0.12 -0.22 -0.18 0.53
loop_
_geom_bond_atom_site_label_1
_geom_bond_atom_site_label_2
_geom_bond_site_symmetry_1
_geom_bond_site_symmetry_2
Ag1 N1 1_555 1_555
N1 C1 1_555 1_555
N2 C6 1_555 1_555
N3 C2 1_555 1_555
N4 Ag1 1_555 1_555
C1 C8 1_555 1_555
C2 H1 1_555 1_555
C3 N4 1_555 1_555
H2 C3 1_555 1_555
C4 N4 1_555 1_555
C5 N3 1_555 1_555
H3 C5 1_555 1_555
C6 H4 1_555 1_555
C7 N1 1_555 1_555
H5 C7 1_555 1_555
C8 N2 1_555 1_555
H6 C8 1_555 1_555
C9 C1 1_555 1_555
H7 C9 1_555 1_555
H8 C9 1_555 1_555
P1 F1 1_555 1_555
F2 P1 1_555 1_555
F3 P1 1_555 1_555
F4 P1 1_555 1_555
F5 P1 1_555 1_555
F6 P1 1_555 1_555
Cl1 C10 1_555 1_555
Cl2 C10 1_555 1_555
C10 H9 1_555 1_555
H10 C10 1_555 1_555
Ag1G N3 1_555 1_555
Ag1M N2 1_555 1_555
N2N Ag1 1_555 1_555
N3E Ag1 1_555 1_555
Cl1O C10O 1_555 1_555
Cl2O C10O 1_555 1_555
C10O H9O 1_555 1_555
H10O C10O 1_555 1_555
C2 C4 1_555 1_555
C3 C5 1_555 1_555
C4 C9 1_555 1_555
C6 C7 1_555 1_555

#END
