
#######################################################################
#
#                 Cambridge Crystallographic Data Centre
#                                CCDC 
#
#######################################################################
#
# If this CIF has been generated from an entry in the Cambridge 
# Structural Database, then it will include bibliographic, chemical, 
# crystal, experimental, refinement or atomic coordinate data resulting 
# from the CCDC's data processing and validation procedures.
#
#######################################################################

data_HUFHOH
_chemical_formula_moiety         '(C12 H14 Ag1 F6 N4 O1 P1)n'
_symmetry_cell_setting           rhombohedral
_symmetry_space_group_name_H-M   'R -3'
_symmetry_Int_Tables_number      148
_space_group_name_Hall           '-R 3'
loop_
_symmetry_equiv_pos_site_id
_symmetry_equiv_pos_as_xyz
1 x,y,z
2 -y,x-y,z
3 -x+y,-x,z
4 2/3+x,1/3+y,1/3+z
5 2/3-y,1/3+x-y,1/3+z
6 2/3-x+y,1/3-x,1/3+z
7 1/3+x,2/3+y,2/3+z
8 1/3-y,2/3+x-y,2/3+z
9 1/3-x+y,2/3-x,2/3+z
10 -x,-y,-z
11 y,-x+y,-z
12 x-y,x,-z
13 1/3-x,2/3-y,2/3-z
14 1/3+y,2/3-x+y,2/3-z
15 1/3+x-y,2/3+x,2/3-z
16 2/3-x,1/3-y,1/3-z
17 2/3+y,1/3-x+y,1/3-z
18 2/3+x-y,1/3+x,1/3-z
_cell_length_a                   28.9589(17)
_cell_length_b                   28.9589(17)
_cell_length_c                   14.5653(9)
_cell_angle_alpha                90
_cell_angle_beta                 90
_cell_angle_gamma                120
_cell_volume                     10578.3
loop_
_atom_site_label
_atom_site_type_symbol
_atom_site_fract_x
_atom_site_fract_y
_atom_site_fract_z
_atom_site_U_iso_or_equiv
_atom_site_thermal_displace_type
Ag1 Ag 0.60166(2) 0.06353(2) 0.74324(3) 0.0505 Uani
C1 C 0.7025(2) 0.1146(2) 0.6083(3) 0.0402 Uani
N1 N 0.79136(18) 0.20348(18) 0.8767(3) 0.0484 Uani
N2 N 0.65483(17) 0.06975(17) 0.6221(3) 0.0450 Uani
C2 C 0.72775(19) 0.16557(19) 0.7559(3) 0.0403 Uani
N3 N 0.69089(19) 0.1284(2) 0.8120(3) 0.0549 Uani
C3 C 0.7777(2) 0.20186(19) 0.7873(4) 0.0427 Uani
H1 H 0.8032 0.2265 0.7454 0.0520 Uiso
C4 C 0.7125(2) 0.1643(2) 0.6573(4) 0.0471 Uani
H2 H 0.7414 0.1956 0.6254 0.0560 Uiso
H3 H 0.6799 0.1672 0.6541 0.0560 Uiso
N4 N 0.73122(19) 0.06960(18) 0.5057(3) 0.0548 Uani
C5 C 0.7548(3) 0.1665(3) 0.9315(4) 0.0640 Uani
H4 H 0.7631 0.1665 0.9946 0.0770 Uiso
C6 C 0.7403(2) 0.1137(2) 0.5507(4) 0.0459 Uani
H5 H 0.7736 0.1454 0.5429 0.0560 Uiso
C7 C 0.7058(2) 0.1287(3) 0.9006(4) 0.0673 Uani
H6 H 0.6817 0.1020 0.9417 0.0810 Uiso
C8 C 0.6834(2) 0.0263(2) 0.5184(5) 0.0659 Uani
H7 H 0.6749 -0.0053 0.4858 0.0790 Uiso
C9 C 0.6462(2) 0.0262(2) 0.5775(5) 0.0626 Uani
H8 H 0.6134 -0.0060 0.5866 0.0750 Uiso
Ag1H Ag 0.79520(3) 0.06501(2) 0.40991(3) 0.0505 Uani
Ag1N Ag 0.87146(3) 0.26833(2) 0.92343(3) 0.0505 Uani
N1M N 0.53681(18) 0.07879(25) 0.7900(3) 0.0484 Uani
N4D N 0.59707(18) -0.00505(26) 0.8390(3) 0.0548 Uani
P1 P 0.61919(8) 0.08250(9) 1.13891(13) 0.0660 Uani
F1 F 0.6207(3) 0.0406(3) 1.0738(4) 0.1362 Uani
F2 F 0.6281(3) 0.0557(3) 1.2264(3) 0.1200 Uani
F3 F 0.6271(3) 0.1302(3) 1.2048(4) 0.1346 Uani
F4 F 0.6818(2) 0.1108(3) 1.1257(4) 0.1278 Uani
F5 F 0.6163(3) 0.1137(2) 1.0520(3) 0.1101 Uani
F6 F 0.5622(2) 0.0604(5) 1.1671(5) 0.1972 Uani
O1 O 0.5215(2) -0.0086(3) 0.6255(4) 0.1103 Uani
C10 C 0.4832(3) -0.0518(5) 0.6195(6) 0.1037 Uani
C11 C 0.4327(4) -0.0593(7) 0.5737(9) 0.1954 Uani
H9 H 0.4294 -0.0276 0.5843 0.2960 Uiso
H10 H 0.4016 -0.0907 0.5997 0.2960 Uiso
H11 H 0.4345 -0.0644 0.5075 0.2960 Uiso
C12 C 0.4841(5) -0.0992(5) 0.6549(9) 0.1487 Uani
H12 H 0.5205 -0.0890 0.6736 0.2230 Uiso
H13 H 0.4723 -0.1263 0.6066 0.2230 Uiso
H14 H 0.4602 -0.1136 0.7078 0.2230 Uiso
loop_
_atom_site_aniso_label
_atom_site_aniso_U_11
_atom_site_aniso_U_22
_atom_site_aniso_U_33
_atom_site_aniso_U_23
_atom_site_aniso_U_13
_atom_site_aniso_U_12
Ag1 0.0393(3) 0.0616(3) 0.0535(3) 0.01090(19) 0.00939(17) 0.0274(2)
C1 0.039(3) 0.041(3) 0.038(3) 0.003(2) 0.005(2) 0.018(2)
N1 0.049(3) 0.040(2) 0.048(3) -0.004(2) 0.009(2) 0.016(2)
N2 0.037(2) 0.038(2) 0.049(3) -0.0041(19) 0.0054(19) 0.0105(18)
C2 0.037(2) 0.035(2) 0.049(3) -0.007(2) 0.007(2) 0.018(2)
N3 0.045(3) 0.060(3) 0.046(3) -0.002(2) 0.007(2) 0.016(2)
C3 0.047(3) 0.032(2) 0.044(3) -0.004(2) 0.008(2) 0.016(2)
C4 0.050(3) 0.044(3) 0.048(3) 0.005(2) 0.008(2) 0.024(2)
N4 0.051(3) 0.045(3) 0.055(3) -0.008(2) 0.013(2) 0.014(2)
C5 0.059(4) 0.066(4) 0.036(3) -0.007(3) 0.010(3) 0.008(3)
C6 0.038(3) 0.040(3) 0.047(3) -0.003(2) 0.009(2) 0.010(2)
C7 0.044(3) 0.073(4) 0.050(4) 0.002(3) 0.011(3) 0.003(3)
C8 0.050(3) 0.048(3) 0.079(4) -0.015(3) 0.014(3) 0.009(3)
C9 0.043(3) 0.050(3) 0.069(4) -0.011(3) 0.009(3) 0.004(3)
Ag1H 0.0461 0.0393 0.0535 -0.00939 0.00151 0.0119
Ag1N 0.0461 0.0393 0.0535 -0.00939 0.00151 0.0119
N1M 0.04 0.057 0.048 0.013 0.004 0.024
N4D 0.045 0.068 0.055 0.021 0.008 0.031
P1 0.0668(11) 0.0863(13) 0.0653(11) 0.0215(10) 0.0164(9) 0.0535(10)
F1 0.225(8) 0.133(5) 0.098(4) -0.028(3) -0.050(4) 0.125(5)
F2 0.162(5) 0.179(6) 0.080(3) 0.041(3) 0.036(3) 0.131(5)
F3 0.205(7) 0.126(5) 0.101(4) -0.004(3) 0.030(4) 0.104(5)
F4 0.085(4) 0.182(6) 0.098(4) 0.012(4) 0.007(3) 0.053(4)
F5 0.153(5) 0.142(5) 0.077(3) 0.025(3) -0.014(3) 0.105(4)
F6 0.070(4) 0.358(13) 0.149(6) 0.026(7) -0.001(4) 0.096(6)
O1 0.055(3) 0.142(6) 0.083(4) -0.023(4) 0.000(3) 0.011(4)
C10 0.056(5) 0.141(9) 0.067(5) -0.019(6) 0.011(4) 0.014(6)
C11 0.070(7) 0.27(2) 0.117(9) 0.047(10) -0.006(6) -0.012(9)
C12 0.094(8) 0.157(12) 0.154(11) -0.062(10) 0.035(7) 0.032(8)
loop_
_geom_bond_atom_site_label_1
_geom_bond_atom_site_label_2
_geom_bond_site_symmetry_1
_geom_bond_site_symmetry_2
Ag1 N2 1_555 1_555
C1 N2 1_555 1_555
N1 C3 1_555 1_555
N2 C9 1_555 1_555
C2 N3 1_555 1_555
N3 Ag1 1_555 1_555
C3 C2 1_555 1_555
H1 C3 1_555 1_555
C4 C1 1_555 1_555
H2 C4 1_555 1_555
H3 C4 1_555 1_555
N4 C6 1_555 1_555
C5 N1 1_555 1_555
H4 C5 1_555 1_555
C6 C1 1_555 1_555
H5 C6 1_555 1_555
C7 N3 1_555 1_555
H6 C7 1_555 1_555
C8 N4 1_555 1_555
H7 C8 1_555 1_555
C9 C8 1_555 1_555
H8 C9 1_555 1_555
P1 F1 1_555 1_555
F2 P1 1_555 1_555
F3 P1 1_555 1_555
F4 P1 1_555 1_555
F5 P1 1_555 1_555
F6 P1 1_555 1_555
O1 C10 1_555 1_555
C10 C11 1_555 1_555
C11 H9 1_555 1_555
H10 C11 1_555 1_555
H11 C11 1_555 1_555
C12 C10 1_555 1_555
H12 C12 1_555 1_555
H13 C12 1_555 1_555
H14 C12 1_555 1_555
Ag1H N4 1_555 1_555
Ag1N N1 1_555 1_555
N1M Ag1 1_555 1_555
N4D Ag1 1_555 1_555
C2 C4 1_555 1_555
C5 C7 1_555 1_555

#END
