
#######################################################################
#
#                 Cambridge Crystallographic Data Centre
#                                CCDC 
#
#######################################################################
#
# If this CIF has been generated from an entry in the Cambridge 
# Structural Database, then it will include bibliographic, chemical, 
# crystal, experimental, refinement or atomic coordinate data resulting 
# from the CCDC's data processing and validation procedures.
#
#######################################################################

data_COMZAH
_chemical_formula_moiety         '(C30 H36 N4 O10 Zn1)n'
_symmetry_cell_setting           orthorhombic
_symmetry_space_group_name_H-M   'P c c n'
_symmetry_Int_Tables_number      56
_space_group_name_Hall           '-P 2ab 2ac'
loop_
_symmetry_equiv_pos_site_id
_symmetry_equiv_pos_as_xyz
1 x,y,z
2 1/2-x,1/2-y,z
3 1/2+x,-y,1/2-z
4 -x,1/2+y,1/2-z
5 -x,-y,-z
6 1/2+x,1/2+y,-z
7 1/2-x,y,1/2+z
8 x,1/2-y,1/2+z
_cell_length_a                   23.2667(14)
_cell_length_b                   15.2352(9)
_cell_length_c                   16.8347(10)
_cell_angle_alpha                90
_cell_angle_beta                 90
_cell_angle_gamma                90
_cell_volume                     5967.44
loop_
_atom_site_label
_atom_site_type_symbol
_atom_site_fract_x
_atom_site_fract_y
_atom_site_fract_z
_atom_site_U_iso_or_equiv
_atom_site_thermal_displace_type
Zn1 Zn 0.01173(5) 0.58342(6) 0.24360(7) 0.0428 Uani
O1 O -0.0472(4) 0.6689(5) 0.2657(6) 0.0773 Uani
O2 O -0.0961(4) 0.6235(8) 0.1628(10) 0.1490 Uani
O3 O -0.4019(4) 1.3494(6) 0.1760(7) 0.0957 Uani
O4 O -0.4247(4) 1.3440(5) 0.3012(6) 0.0753 Uani
O5 O -0.2119(6) 1.0257(8) 0.3602(5) 0.1287 Uani
N1 N -0.2320(4) 0.9766(5) 0.2380(6) 0.0583 Uani
H1 H -0.2518 0.9860 0.1957 0.0700 Uiso
N2 N 0.0079(4) -0.0017(5) -0.1606(5) 0.0473 Uani
N3 N 0.0076(4) 0.4921(5) 0.1540(5) 0.0467 Uani
C1 C -0.3539(4) 1.2457(6) 0.2578(7) 0.0447 Uani
C2 C -0.3257(5) 1.2090(7) 0.1954(7) 0.0553 Uani
H2 H -0.3319 1.2304 0.1444 0.0660 Uiso
C3 C -0.2880(5) 1.1401(6) 0.2071(7) 0.0527 Uani
H3 H -0.2687 1.1161 0.1639 0.0630 Uiso
C4 C -0.2789(4) 1.1077(6) 0.2795(6) 0.0467 Uani
C5 C -0.3048(6) 1.1458(9) 0.3435(7) 0.0850 Uani
H4 H -0.2969 1.1258 0.3945 0.1020 Uiso
C6 C -0.3428(6) 1.2142(9) 0.3323(8) 0.0800 Uani
H5 H -0.3611 1.2392 0.3760 0.0960 Uiso
C7 C -0.1956(5) 0.9019(7) 0.2388(9) 0.0737 Uani
C8 C -0.2033(7) 0.8445(11) 0.1774(12) 0.1253 Uani
H6 H -0.2317 0.8545 0.1396 0.1500 Uiso
C9 C -0.1677(7) 0.7699(10) 0.1719(13) 0.1403 Uani
H7 H -0.1739 0.7301 0.1309 0.1680 Uiso
C10 C -0.1253(5) 0.7546(8) 0.2242(9) 0.0770 Uani
C11 C -0.1146(5) 0.8163(7) 0.2791(7) 0.0603 Uani
H8 H -0.0836 0.8097 0.3135 0.0730 Uiso
C12 C -0.1501(5) 0.8910(7) 0.2851(7) 0.0580 Uani
H9 H -0.1414 0.9339 0.3225 0.0700 Uiso
C13 C -0.3962(4) 1.3196(7) 0.2409(8) 0.0497 Uani
C14 C -0.0874(5) 0.6736(7) 0.2212(8) 0.0613 Uani
C15 C -0.2376(5) 1.0315(7) 0.2954(7) 0.0587 Uani
C16 C 0.0462(5) 0.4864(6) 0.0990(7) 0.0490 Uani
H10 H 0.0757 0.5277 0.0976 0.0590 Uiso
C17 C 0.0451(5) 0.4202(6) 0.0416(7) 0.0523 Uani
H11 H 0.0733 0.4188 0.0024 0.0630 Uiso
C18 C 0.0032(5) 0.3578(6) 0.0425(7) 0.0597 Uani
C19 C -0.0372(6) 0.3642(7) 0.1009(9) 0.0757 Uani
H12 H -0.0669 0.3234 0.1033 0.0910 Uiso
C20 C -0.0344(5) 0.4311(7) 0.1568(9) 0.0693 Uani
H13 H -0.0619 0.4339 0.1968 0.0830 Uiso
C21 C 0.0018(6) 0.2841(6) -0.0177(8) 0.0740 Uani
H14 H 0.0355 0.2879 -0.0514 0.0890 Uiso
H15 H -0.0319 0.2906 -0.0511 0.0890 Uiso
C22 C 0.0003(7) 0.1943(7) 0.0222(8) 0.0873 Uani
H16 H 0.0331 0.1882 0.0575 0.1050 Uiso
H17 H -0.0344 0.1887 0.0536 0.1050 Uiso
C23 C 0.0020(7) 0.1226(7) -0.0409(8) 0.0760 Uani
C24 C 0.0542(6) 0.0965(7) -0.0722(8) 0.0690 Uani
H18 H 0.0882 0.1206 -0.0531 0.0830 Uiso
C25 C 0.0557(5) 0.0346(7) -0.1319(8) 0.0630 Uani
H19 H 0.0910 0.0178 -0.1528 0.0760 Uiso
C26 C -0.0408(5) 0.0198(7) -0.1262(8) 0.0617 Uani
H20 H -0.0740 -0.0089 -0.1430 0.0740 Uiso
C27 C -0.0464(6) 0.0815(8) -0.0673(10) 0.0850 Uani
H21 H -0.0822 0.0949 -0.0459 0.1020 Uiso
Zn1B Zn -0.48827(5) 1.41658(6) 0.25640(7) 0.0428 Uani
Zn1G Zn 0.01173(5) -0.08342(6) -0.25640(7) 0.0428 Uani
O4B O 0.0753(4) 0.6560(5) 0.1988(6) 0.0753 Uani
N2G N 0.0079(4) 0.5017(5) 0.3394(5) 0.0473 Uani
O6 O -0.2500 1.2500 0.0206(6) 0.0770 Uani
O7 O -0.1695(4) 1.1124(6) 0.4913(6) 0.0843 Uani
O8 O -0.1847(4) 0.5335(6) 0.0994(6) 0.0790 Uani
O9 O -0.3264(5) 1.3887(7) 0.0582(6) 0.1030 Uani
N4 N -0.2274(13) 0.851(2) -0.049(2) 0.1700 Uani
O10 O -0.1812(11) 0.9620(16) -0.0294(16) 0.1217 Uani
C28 C -0.2177(10) 0.9364(15) -0.011(2) 0.0827 Uani
C29 C -0.187(2) 0.801(4) -0.099(4) 0.2367 Uani
C30 C -0.2849(16) 0.815(3) -0.031(3) 0.1500 Uani
loop_
_atom_site_aniso_label
_atom_site_aniso_U_11
_atom_site_aniso_U_22
_atom_site_aniso_U_33
_atom_site_aniso_U_23
_atom_site_aniso_U_13
_atom_site_aniso_U_12
Zn1 0.0481(7) 0.0191(5) 0.0612(7) -0.0030(5) -0.0047(6) 0.0009(4)
O1 0.075(6) 0.051(5) 0.106(8) -0.017(5) -0.023(5) 0.039(4)
O2 0.072(7) 0.108(8) 0.267(17) -0.120(10) -0.043(9) 0.040(6)
O3 0.080(6) 0.072(6) 0.135(9) 0.048(6) 0.022(6) 0.035(5)
O4 0.075(5) 0.052(5) 0.099(7) -0.026(5) 0.000(5) 0.026(4)
O5 0.185(11) 0.151(10) 0.050(6) -0.041(6) -0.050(7) 0.116(9)
N1 0.055(5) 0.044(5) 0.076(7) -0.014(5) -0.024(5) 0.012(4)
N2 0.052(5) 0.023(4) 0.067(6) -0.004(4) -0.006(5) 0.004(4)
N3 0.048(5) 0.021(4) 0.071(6) -0.012(4) -0.016(5) 0.001(3)
C1 0.039(5) 0.029(4) 0.066(7) -0.002(5) -0.001(5) 0.000(4)
C2 0.059(7) 0.051(6) 0.056(7) 0.020(5) 0.009(5) 0.013(5)
C3 0.064(7) 0.034(5) 0.060(7) 0.002(5) 0.010(6) 0.014(5)
C4 0.046(6) 0.031(5) 0.063(7) 0.000(5) -0.001(5) 0.012(4)
C5 0.126(12) 0.093(10) 0.036(6) 0.003(6) -0.005(7) 0.060(9)
C6 0.093(10) 0.081(9) 0.066(8) -0.010(7) 0.013(7) 0.050(8)
C7 0.050(6) 0.035(5) 0.136(12) -0.032(7) -0.021(7) 0.016(5)
C8 0.090(11) 0.100(11) 0.186(19) -0.079(12) -0.079(12) 0.049(9)
C9 0.097(11) 0.094(12) 0.23(2) -0.114(14) -0.062(14) 0.052(10)
C10 0.053(6) 0.041(6) 0.137(13) -0.034(7) -0.029(8) 0.015(5)
C11 0.059(7) 0.048(6) 0.074(8) -0.014(6) -0.021(6) 0.016(5)
C12 0.056(6) 0.039(5) 0.079(8) -0.019(5) -0.020(6) 0.010(5)
C13 0.041(5) 0.037(5) 0.071(8) -0.017(6) 0.007(6) -0.004(4)
C14 0.061(7) 0.040(6) 0.083(9) -0.032(6) 0.000(6) 0.012(5)
C15 0.067(8) 0.058(7) 0.051(7) -0.015(6) -0.005(6) 0.030(6)
C16 0.051(6) 0.031(5) 0.065(7) -0.001(5) 0.002(5) 0.006(4)
C17 0.071(7) 0.038(5) 0.048(6) 0.002(5) -0.002(5) 0.009(5)
C18 0.080(9) 0.026(5) 0.073(8) -0.007(5) -0.022(7) 0.011(5)
C19 0.073(8) 0.034(6) 0.120(12) -0.026(7) -0.005(8) -0.010(6)
C20 0.059(7) 0.042(6) 0.107(10) -0.026(6) 0.015(7) -0.009(5)
C21 0.111(11) 0.031(5) 0.080(9) -0.013(5) -0.028(8) 0.007(6)
C22 0.148(14) 0.029(6) 0.085(10) -0.013(6) 0.010(10) 0.011(7)
C23 0.108(12) 0.026(5) 0.094(10) -0.004(6) 0.011(9) 0.014(6)
C24 0.078(9) 0.046(6) 0.083(9) -0.015(6) 0.006(7) -0.013(6)
C25 0.061(7) 0.041(6) 0.087(9) -0.021(6) 0.003(6) -0.003(5)
C26 0.058(7) 0.034(5) 0.093(10) -0.005(6) 0.010(7) 0.004(5)
C27 0.074(9) 0.043(7) 0.138(14) -0.005(8) 0.028(9) 0.015(6)
Zn1B 0.0481 0.0191 0.0612 -0.003 0.0047 -0.0009
Zn1G 0.0481 0.0191 0.0612 0.003 -0.0047 -0.0009
O4B 0.075 0.052 0.099 -0.026 0 -0.026
N2G 0.052 0.023 0.067 0.004 -0.006 -0.004
O6 0.094(9) 0.091(9) 0.046(7) 0.000 0.000 0.004(8)
O7 0.093(7) 0.087(7) 0.073(6) 0.007(5) -0.003(5) 0.010(5)
O8 0.085(6) 0.068(5) 0.084(6) -0.006(5) 0.015(5) -0.008(5)
O9 0.105(8) 0.105(8) 0.099(8) 0.028(7) -0.005(6) 0.018(6)
N4 0.13(2) 0.15(2) 0.23(3) -0.01(2) 0.03(2) 0.01(2)
O10 0.13(2) 0.085(15) 0.15(2) -0.042(16) -0.041(18) 0.019(15)
C28 0.037(13) 0.041(12) 0.17(3) 0.001(15) 0.031(16) -0.014(10)
C29 0.21(5) 0.21(5) 0.29(6) -0.07(5) 0.05(5) 0.07(4)
C30 0.13(3) 0.17(4) 0.15(3) 0.01(3) -0.01(3) -0.09(3)
loop_
_geom_bond_atom_site_label_1
_geom_bond_atom_site_label_2
_geom_bond_site_symmetry_1
_geom_bond_site_symmetry_2
Zn1 O1 1_555 1_555
O1 C14 1_555 1_555
O2 C14 1_555 1_555
O3 C13 1_555 1_555
O4 C13 1_555 1_555
O5 C15 1_555 1_555
N1 H1 1_555 1_555
N2 C25 1_555 1_555
N3 Zn1 1_555 1_555
C1 C2 1_555 1_555
C2 H2 1_555 1_555
C3 C2 1_555 1_555
H3 C3 1_555 1_555
C4 C3 1_555 1_555
C5 C4 1_555 1_555
H4 C5 1_555 1_555
C6 C1 1_555 1_555
H5 C6 1_555 1_555
C7 N1 1_555 1_555
C8 C7 1_555 1_555
H6 C8 1_555 1_555
C9 C8 1_555 1_555
H7 C9 1_555 1_555
C10 C9 1_555 1_555
C11 C10 1_555 1_555
H8 C11 1_555 1_555
C12 C7 1_555 1_555
H9 C12 1_555 1_555
C13 C1 1_555 1_555
C14 C10 1_555 1_555
C15 N1 1_555 1_555
C16 N3 1_555 1_555
H10 C16 1_555 1_555
C17 C16 1_555 1_555
H11 C17 1_555 1_555
C18 C17 1_555 1_555
C19 C18 1_555 1_555
H12 C19 1_555 1_555
C20 N3 1_555 1_555
H13 C20 1_555 1_555
C21 C18 1_555 1_555
H14 C21 1_555 1_555
H15 C21 1_555 1_555
C22 C21 1_555 1_555
H16 C22 1_555 1_555
H17 C22 1_555 1_555
C23 C22 1_555 1_555
C24 C23 1_555 1_555
H18 C24 1_555 1_555
C25 C24 1_555 1_555
H19 C25 1_555 1_555
C26 N2 1_555 1_555
H20 C26 1_555 1_555
C27 C23 1_555 1_555
H21 C27 1_555 1_555
N4 C28 1_555 1_555
O10 C28 1_555 1_555
C29 N4 1_555 1_555
C30 N4 1_555 1_555
Zn1B O4 1_555 1_555
Zn1G N2 1_555 1_555
O4B Zn1 1_555 1_555
N2G Zn1 1_555 1_555
C4 C15 1_555 1_555
C5 C6 1_555 1_555
C11 C12 1_555 1_555
C19 C20 1_555 1_555
C26 C27 1_555 1_555

#END
