
#######################################################################
#
#                 Cambridge Crystallographic Data Centre
#                                CCDC 
#
#######################################################################
#
# If this CIF has been generated from an entry in the Cambridge 
# Structural Database, then it will include bibliographic, chemical, 
# crystal, experimental, refinement or atomic coordinate data resulting 
# from the CCDC's data processing and validation procedures.
#
#######################################################################

data_PAFPUK
_chemical_formula_moiety         'C192 H96 In9 N24 O72'
_symmetry_cell_setting           cubic
_symmetry_space_group_name_H-M   'F m -3 m'
_symmetry_Int_Tables_number      225
_space_group_name_Hall           '-F 4 2 3'
loop_
_symmetry_equiv_pos_site_id
_symmetry_equiv_pos_as_xyz
1 x,y,z
2 -y,x,z
3 -x,-y,z
4 y,-x,z
5 x,-z,y
6 x,-y,-z
7 x,z,-y
8 z,y,-x
9 -x,y,-z
10 -z,y,x
11 z,x,y
12 y,z,x
13 -y,-z,x
14 z,-x,-y
15 -y,z,-x
16 -z,-x,y
17 -z,x,-y
18 y,-z,-x
19 y,x,-z
20 -y,-x,-z
21 -x,z,y
22 -x,-z,-y
23 z,-y,x
24 -z,-y,-x
25 x,1/2+y,1/2+z
26 -y,1/2+x,1/2+z
27 -x,1/2-y,1/2+z
28 y,1/2-x,1/2+z
29 x,1/2-z,1/2+y
30 x,1/2-y,1/2-z
31 x,1/2+z,1/2-y
32 z,1/2+y,1/2-x
33 -x,1/2+y,1/2-z
34 -z,1/2+y,1/2+x
35 z,1/2+x,1/2+y
36 y,1/2+z,1/2+x
37 -y,1/2-z,1/2+x
38 z,1/2-x,1/2-y
39 -y,1/2+z,1/2-x
40 -z,1/2-x,1/2+y
41 -z,1/2+x,1/2-y
42 y,1/2-z,1/2-x
43 y,1/2+x,1/2-z
44 -y,1/2-x,1/2-z
45 -x,1/2+z,1/2+y
46 -x,1/2-z,1/2-y
47 z,1/2-y,1/2+x
48 -z,1/2-y,1/2-x
49 1/2+x,y,1/2+z
50 1/2-y,x,1/2+z
51 1/2-x,-y,1/2+z
52 1/2+y,-x,1/2+z
53 1/2+x,-z,1/2+y
54 1/2+x,-y,1/2-z
55 1/2+x,z,1/2-y
56 1/2+z,y,1/2-x
57 1/2-x,y,1/2-z
58 1/2-z,y,1/2+x
59 1/2+z,x,1/2+y
60 1/2+y,z,1/2+x
61 1/2-y,-z,1/2+x
62 1/2+z,-x,1/2-y
63 1/2-y,z,1/2-x
64 1/2-z,-x,1/2+y
65 1/2-z,x,1/2-y
66 1/2+y,-z,1/2-x
67 1/2+y,x,1/2-z
68 1/2-y,-x,1/2-z
69 1/2-x,z,1/2+y
70 1/2-x,-z,1/2-y
71 1/2+z,-y,1/2+x
72 1/2-z,-y,1/2-x
73 1/2+x,1/2+y,z
74 1/2-y,1/2+x,z
75 1/2-x,1/2-y,z
76 1/2+y,1/2-x,z
77 1/2+x,1/2-z,y
78 1/2+x,1/2-y,-z
79 1/2+x,1/2+z,-y
80 1/2+z,1/2+y,-x
81 1/2-x,1/2+y,-z
82 1/2-z,1/2+y,x
83 1/2+z,1/2+x,y
84 1/2+y,1/2+z,x
85 1/2-y,1/2-z,x
86 1/2+z,1/2-x,-y
87 1/2-y,1/2+z,-x
88 1/2-z,1/2-x,y
89 1/2-z,1/2+x,-y
90 1/2+y,1/2-z,-x
91 1/2+y,1/2+x,-z
92 1/2-y,1/2-x,-z
93 1/2-x,1/2+z,y
94 1/2-x,1/2-z,-y
95 1/2+z,1/2-y,x
96 1/2-z,1/2-y,-x
97 -x,-y,-z
98 y,-x,-z
99 x,y,-z
100 -y,x,-z
101 -x,z,-y
102 -x,y,z
103 -x,-z,y
104 -z,-y,x
105 x,-y,z
106 z,-y,-x
107 -z,-x,-y
108 -y,-z,-x
109 y,z,-x
110 -z,x,y
111 y,-z,x
112 z,x,-y
113 z,-x,y
114 -y,z,x
115 -y,-x,z
116 y,x,z
117 x,-z,-y
118 x,z,y
119 -z,y,-x
120 z,y,x
121 -x,1/2-y,1/2-z
122 y,1/2-x,1/2-z
123 x,1/2+y,1/2-z
124 -y,1/2+x,1/2-z
125 -x,1/2+z,1/2-y
126 -x,1/2+y,1/2+z
127 -x,1/2-z,1/2+y
128 -z,1/2-y,1/2+x
129 x,1/2-y,1/2+z
130 z,1/2-y,1/2-x
131 -z,1/2-x,1/2-y
132 -y,1/2-z,1/2-x
133 y,1/2+z,1/2-x
134 -z,1/2+x,1/2+y
135 y,1/2-z,1/2+x
136 z,1/2+x,1/2-y
137 z,1/2-x,1/2+y
138 -y,1/2+z,1/2+x
139 -y,1/2-x,1/2+z
140 y,1/2+x,1/2+z
141 x,1/2-z,1/2-y
142 x,1/2+z,1/2+y
143 -z,1/2+y,1/2-x
144 z,1/2+y,1/2+x
145 1/2-x,-y,1/2-z
146 1/2+y,-x,1/2-z
147 1/2+x,y,1/2-z
148 1/2-y,x,1/2-z
149 1/2-x,z,1/2-y
150 1/2-x,y,1/2+z
151 1/2-x,-z,1/2+y
152 1/2-z,-y,1/2+x
153 1/2+x,-y,1/2+z
154 1/2+z,-y,1/2-x
155 1/2-z,-x,1/2-y
156 1/2-y,-z,1/2-x
157 1/2+y,z,1/2-x
158 1/2-z,x,1/2+y
159 1/2+y,-z,1/2+x
160 1/2+z,x,1/2-y
161 1/2+z,-x,1/2+y
162 1/2-y,z,1/2+x
163 1/2-y,-x,1/2+z
164 1/2+y,x,1/2+z
165 1/2+x,-z,1/2-y
166 1/2+x,z,1/2+y
167 1/2-z,y,1/2-x
168 1/2+z,y,1/2+x
169 1/2-x,1/2-y,-z
170 1/2+y,1/2-x,-z
171 1/2+x,1/2+y,-z
172 1/2-y,1/2+x,-z
173 1/2-x,1/2+z,-y
174 1/2-x,1/2+y,z
175 1/2-x,1/2-z,y
176 1/2-z,1/2-y,x
177 1/2+x,1/2-y,z
178 1/2+z,1/2-y,-x
179 1/2-z,1/2-x,-y
180 1/2-y,1/2-z,-x
181 1/2+y,1/2+z,-x
182 1/2-z,1/2+x,y
183 1/2+y,1/2-z,x
184 1/2+z,1/2+x,-y
185 1/2+z,1/2-x,y
186 1/2-y,1/2+z,x
187 1/2-y,1/2-x,z
188 1/2+y,1/2+x,z
189 1/2+x,1/2-z,-y
190 1/2+x,1/2+z,y
191 1/2-z,1/2+y,-x
192 1/2+z,1/2+y,x
_cell_length_a                   43.645(3)
_cell_length_b                   43.645(3)
_cell_length_c                   43.645(3)
_cell_angle_alpha                90
_cell_angle_beta                 90
_cell_angle_gamma                90
_cell_volume                     83138.8
loop_
_atom_site_label
_atom_site_type_symbol
_atom_site_fract_x
_atom_site_fract_y
_atom_site_fract_z
_atom_site_U_iso_or_equiv
_atom_site_thermal_displace_type
In1 In 0.2500 0.2500 0.0000 0.0554 Uani
C1 C 0.32584(8) 0.17416(8) -0.13455(9) 0.1153 Uani
C2 C 0.35184(8) 0.18655(9) -0.14816(8) 0.1217 Uani
N1 N 0.36599(16) 0.21056(14) -0.13752(18) 0.1313 Uani
H1 H 0.3824 0.2195 -0.1450 0.1580 Uiso
O1 O 0.29576(15) 0.26159(14) -0.02423(14) 0.0668 Uani
O2 O 0.26782(13) 0.21952(12) -0.03827(12) 0.0668 Uani
C3 C 0.33808(16) 0.24861(15) -0.06922(17) 0.1063 Uani
H2 H 0.3422 0.2653 -0.0559 0.1270 Uiso
C4 C 0.35654(16) 0.24327(15) -0.09358(18) 0.1063 Uani
H3 H 0.3736 0.2562 -0.0975 0.1270 Uiso
C5 C 0.35021(15) 0.21847(14) -0.11293(14) 0.1063 Uani
C6 C 0.32522(15) 0.19894(14) -0.10815(13) 0.1063 Uani
C7 C 0.30684(15) 0.20483(15) -0.08312(15) 0.1063 Uani
H4 H 0.2898 0.1919 -0.0791 0.1270 Uiso
C8 C 0.29018(13) 0.23760(13) -0.03995(12) 0.0668 Uani
C9 C 0.31265(16) 0.22928(17) -0.06359(15) 0.1063 Uani
C1HB C 0.32584(8) 0.13455(9) -0.17416(8) 0.1153 Uani
C2HB C 0.31345(9) 0.14816(8) -0.14816(8) 0.1217 Uani
N1HB N 0.28944(14) 0.13752(18) -0.13401(16) 0.1313 Uani
H1HB H 0.2805 0.1450 -0.1176 0.1580 Uiso
O1HB O 0.23841(14) 0.02423(14) -0.20424(15) 0.0668 Uani
O2HB O 0.28048(12) 0.03827(12) -0.23218(13) 0.0668 Uani
C3HB C 0.25139(15) 0.06922(17) -0.16192(16) 0.1063 Uani
H2HB H 0.2347 0.0559 -0.1578 0.1270 Uiso
C4HB C 0.25673(15) 0.09358(18) -0.14346(16) 0.1063 Uani
H3HB H 0.2438 0.0975 -0.1264 0.1270 Uiso
C5HB C 0.28153(14) 0.11293(14) -0.14979(15) 0.1063 Uani
C6HB C 0.30106(14) 0.10815(13) -0.17478(15) 0.1063 Uani
C7HB C 0.29517(15) 0.08312(15) -0.19316(15) 0.1063 Uani
H4HB H 0.3081 0.0791 -0.2102 0.1270 Uiso
C8HB C 0.26240(13) 0.03995(12) -0.20982(13) 0.0668 Uani
C9HB C 0.27072(17) 0.06359(15) -0.18735(16) 0.1063 Uani
C1GC C 0.36545(9) 0.17416(8) -0.17416(8) 0.1153 Uani
C2GC C 0.35184(8) 0.14816(8) -0.18655(9) 0.1217 Uani
N1GC N 0.36248(18) 0.13401(16) -0.21056(14) 0.1313 Uani
H1GC H 0.3550 0.1176 -0.2195 0.1580 Uiso
O1GC O 0.47577(14) 0.20424(15) -0.26159(14) 0.0668 Uani
O2GC O 0.46173(12) 0.23218(13) -0.21952(12) 0.0668 Uani
C3GC C 0.43078(17) 0.16192(16) -0.24861(15) 0.1063 Uani
H2GC H 0.4441 0.1578 -0.2653 0.1270 Uiso
C4GC C 0.40642(18) 0.14346(16) -0.24327(15) 0.1063 Uani
H3GC H 0.4025 0.1264 -0.2562 0.1270 Uiso
C5GC C 0.38707(14) 0.14979(15) -0.21847(14) 0.1063 Uani
C6GC C 0.39185(13) 0.17478(15) -0.19894(14) 0.1063 Uani
C7GC C 0.41688(15) 0.19316(15) -0.20483(15) 0.1063 Uani
H4GC H 0.4209 0.2102 -0.1919 0.1270 Uiso
C8GC C 0.46005(12) 0.20982(13) -0.23760(13) 0.0668 Uani
C9GC C 0.43641(15) 0.18735(16) -0.22928(17) 0.1063 Uani
N1LD N 0.36599(16) 0.13752(18) -0.21056(14) 0.1313 Uani
H1LD H 0.3824 0.1450 -0.2195 0.1580 Uiso
O1LD O 0.29576(15) 0.02423(14) -0.26159(14) 0.0668 Uani
O2LD O 0.26782(13) 0.03827(12) -0.21952(12) 0.0668 Uani
C3LD C 0.33808(16) 0.06922(17) -0.24861(15) 0.1063 Uani
H2LD H 0.3422 0.0559 -0.2653 0.1270 Uiso
C4LD C 0.35654(16) 0.09358(18) -0.24327(15) 0.1063 Uani
H3LD H 0.3736 0.0975 -0.2562 0.1270 Uiso
C5LD C 0.35021(15) 0.11293(14) -0.21847(14) 0.1063 Uani
C6LD C 0.32522(15) 0.10815(13) -0.19894(14) 0.1063 Uani
C7LD C 0.30684(15) 0.08312(15) -0.20483(15) 0.1063 Uani
H4LD H 0.2898 0.0791 -0.1919 0.1270 Uiso
C8LD C 0.29018(13) 0.03995(12) -0.23760(13) 0.0668 Uani
C9LD C 0.31265(16) 0.06359(15) -0.22928(17) 0.1063 Uani
N1KF N 0.36248(18) 0.21056(14) -0.13401(16) 0.1313 Uani
H1KF H 0.3550 0.2195 -0.1176 0.1580 Uiso
O1KF O 0.47577(14) 0.26159(14) -0.20424(15) 0.0668 Uani
O2KF O 0.46173(12) 0.21952(12) -0.23218(13) 0.0668 Uani
C3KF C 0.43078(17) 0.24861(15) -0.16192(16) 0.1063 Uani
H2KF H 0.4441 0.2653 -0.1578 0.1270 Uiso
C4KF C 0.40642(18) 0.24327(15) -0.14346(16) 0.1063 Uani
H3KF H 0.4025 0.2562 -0.1264 0.1270 Uiso
C5KF C 0.38707(14) 0.21847(14) -0.14979(15) 0.1063 Uani
C6KF C 0.39185(13) 0.19894(14) -0.17478(15) 0.1063 Uani
C7KF C 0.41688(15) 0.20483(15) -0.19316(15) 0.1063 Uani
H4KF H 0.4209 0.1919 -0.2102 0.1270 Uiso
C8KF C 0.46005(12) 0.23760(13) -0.20982(13) 0.0668 Uani
C9KF C 0.43641(15) 0.22928(17) -0.18735(16) 0.1063 Uani
N1DG N 0.28944(14) 0.13401(16) -0.13752(18) 0.1313 Uani
H1DG H 0.2805 0.1176 -0.1450 0.1580 Uiso
O1DG O 0.23841(14) 0.20424(15) -0.02423(14) 0.0668 Uani
O2DG O 0.28048(12) 0.23218(13) -0.03827(12) 0.0668 Uani
C3DG C 0.25139(15) 0.16192(16) -0.06922(17) 0.1063 Uani
H2DG H 0.2347 0.1578 -0.0559 0.1270 Uiso
C4DG C 0.25673(15) 0.14346(16) -0.09358(18) 0.1063 Uani
H3DG H 0.2438 0.1264 -0.0975 0.1270 Uiso
C5DG C 0.28153(14) 0.14979(15) -0.11293(14) 0.1063 Uani
C6DG C 0.30106(14) 0.17478(15) -0.10815(13) 0.1063 Uani
C7DG C 0.29517(15) 0.19316(15) -0.08312(15) 0.1063 Uani
H4DG H 0.3081 0.2102 -0.0791 0.1270 Uiso
C8DG C 0.26240(13) 0.20982(13) -0.03995(12) 0.0668 Uani
C9DG C 0.27072(17) 0.18735(16) -0.06359(15) 0.1063 Uani
In1D In 0.2500 0.0000 0.2500 0.0554 Uani
C1D C 0.32584(8) 0.13455(9) 0.17416(8) 0.1153 Uani
C2D C 0.35184(8) 0.14816(8) 0.18655(9) 0.1217 Uani
N1D N 0.36599(16) 0.13752(18) 0.21056(14) 0.1313 Uani
H1D H 0.3824 0.1450 0.2195 0.1580 Uiso
O1D O 0.29576(15) 0.02423(14) 0.26159(14) 0.0668 Uani
O2D O 0.26782(13) 0.03827(12) 0.21952(12) 0.0668 Uani
C3D C 0.33808(16) 0.06922(17) 0.24861(15) 0.1063 Uani
H2D H 0.3422 0.0559 0.2653 0.1270 Uiso
C4D C 0.35654(16) 0.09358(18) 0.24327(15) 0.1063 Uani
H3D H 0.3736 0.0975 0.2562 0.1270 Uiso
C5D C 0.35021(15) 0.11293(14) 0.21847(14) 0.1063 Uani
C6D C 0.32522(15) 0.10815(13) 0.19894(14) 0.1063 Uani
C7D C 0.30684(15) 0.08312(15) 0.20483(15) 0.1063 Uani
H4D H 0.2898 0.0791 0.1919 0.1270 Uiso
C8D C 0.29018(13) 0.03995(12) 0.23760(13) 0.0668 Uani
C9D C 0.31265(16) 0.06359(15) 0.22928(17) 0.1063 Uani
C1MC C 0.32584(8) 0.17416(8) 0.13455(9) 0.1153 Uani
C2MC C 0.31345(9) 0.14816(8) 0.14816(8) 0.1217 Uani
N1MC N 0.28944(14) 0.13401(16) 0.13752(18) 0.1313 Uani
H1MC H 0.2805 0.1176 0.1450 0.1580 Uiso
O1MC O 0.23841(14) 0.20424(15) 0.02423(14) 0.0668 Uani
O2MC O 0.28048(12) 0.23218(13) 0.03827(12) 0.0668 Uani
C3MC C 0.25139(15) 0.16192(16) 0.06922(17) 0.1063 Uani
H2MC H 0.2347 0.1578 0.0559 0.1270 Uiso
C4MC C 0.25673(15) 0.14346(16) 0.09358(18) 0.1063 Uani
H3MC H 0.2438 0.1264 0.0975 0.1270 Uiso
C5MC C 0.28153(14) 0.14979(15) 0.11293(14) 0.1063 Uani
C6MC C 0.30106(14) 0.17478(15) 0.10815(13) 0.1063 Uani
C7MC C 0.29517(15) 0.19316(15) 0.08312(15) 0.1063 Uani
H4MC H 0.3081 0.2102 0.0791 0.1270 Uiso
C8MC C 0.26240(13) 0.20982(13) 0.03995(12) 0.0668 Uani
C9MC C 0.27072(17) 0.18735(16) 0.06359(15) 0.1063 Uani
C1CB C 0.36545(9) 0.17416(8) 0.17416(8) 0.1153 Uani
C2CB C 0.35184(8) 0.18655(9) 0.14816(8) 0.1217 Uani
N1CB N 0.36248(18) 0.21056(14) 0.13401(16) 0.1313 Uani
H1CB H 0.3550 0.2195 0.1176 0.1580 Uiso
O1CB O 0.47577(14) 0.26159(14) 0.20424(15) 0.0668 Uani
O2CB O 0.46173(12) 0.21952(12) 0.23218(13) 0.0668 Uani
C3CB C 0.43078(17) 0.24861(15) 0.16192(16) 0.1063 Uani
H2CB H 0.4441 0.2653 0.1578 0.1270 Uiso
C4CB C 0.40642(18) 0.24327(15) 0.14346(16) 0.1063 Uani
H3CB H 0.4025 0.2562 0.1264 0.1270 Uiso
C5CB C 0.38707(14) 0.21847(14) 0.14979(15) 0.1063 Uani
C6CB C 0.39185(13) 0.19894(14) 0.17478(15) 0.1063 Uani
C7CB C 0.41688(15) 0.20483(15) 0.19316(15) 0.1063 Uani
H4CB H 0.4209 0.1919 0.2102 0.1270 Uiso
C8CB C 0.46005(12) 0.23760(13) 0.20982(13) 0.0668 Uani
C9CB C 0.43641(15) 0.22928(17) 0.18735(16) 0.1063 Uani
N1TC N 0.36599(16) 0.21056(14) 0.13752(18) 0.1313 Uani
H1TC H 0.3824 0.2195 0.1450 0.1580 Uiso
O1TC O 0.29576(15) 0.26159(14) 0.02423(14) 0.0668 Uani
O2TC O 0.26782(13) 0.21952(12) 0.03827(12) 0.0668 Uani
C3TC C 0.33808(16) 0.24861(15) 0.06922(17) 0.1063 Uani
H2TC H 0.3422 0.2653 0.0559 0.1270 Uiso
C4TC C 0.35654(16) 0.24327(15) 0.09358(18) 0.1063 Uani
H3TC H 0.3736 0.2562 0.0975 0.1270 Uiso
C5TC C 0.35021(15) 0.21847(14) 0.11293(14) 0.1063 Uani
C6TC C 0.32522(15) 0.19894(14) 0.10815(13) 0.1063 Uani
C7TC C 0.30684(15) 0.20483(15) 0.08312(15) 0.1063 Uani
H4TC H 0.2898 0.1919 0.0791 0.1270 Uiso
C8TC C 0.29018(13) 0.23760(13) 0.03995(12) 0.0668 Uani
C9TC C 0.31265(16) 0.22928(17) 0.06359(15) 0.1063 Uani
N1BG N 0.36248(18) 0.13401(16) 0.21056(14) 0.1313 Uani
H1BG H 0.3550 0.1176 0.2195 0.1580 Uiso
O1BG O 0.47577(14) 0.20424(15) 0.26159(14) 0.0668 Uani
O2BG O 0.46173(12) 0.23218(13) 0.21952(12) 0.0668 Uani
C3BG C 0.43078(17) 0.16192(16) 0.24861(15) 0.1063 Uani
H2BG H 0.4441 0.1578 0.2653 0.1270 Uiso
C4BG C 0.40642(18) 0.14346(16) 0.24327(15) 0.1063 Uani
H3BG H 0.4025 0.1264 0.2562 0.1270 Uiso
C5BG C 0.38707(14) 0.14979(15) 0.21847(14) 0.1063 Uani
C6BG C 0.39185(13) 0.17478(15) 0.19894(14) 0.1063 Uani
C7BG C 0.41688(15) 0.19316(15) 0.20483(15) 0.1063 Uani
H4BG H 0.4209 0.2102 0.1919 0.1270 Uiso
C8BG C 0.46005(12) 0.20982(13) 0.23760(13) 0.0668 Uani
C9BG C 0.43641(15) 0.18735(16) 0.22928(17) 0.1063 Uani
N1YE N 0.28944(14) 0.13752(18) 0.13401(16) 0.1313 Uani
H1YE H 0.2805 0.1450 0.1176 0.1580 Uiso
O1YE O 0.23841(14) 0.02423(14) 0.20424(15) 0.0668 Uani
O2YE O 0.28048(12) 0.03827(12) 0.23218(13) 0.0668 Uani
C3YE C 0.25139(15) 0.06922(17) 0.16192(16) 0.1063 Uani
H2YE H 0.2347 0.0559 0.1578 0.1270 Uiso
C4YE C 0.25673(15) 0.09358(18) 0.14346(16) 0.1063 Uani
H3YE H 0.2438 0.0975 0.1264 0.1270 Uiso
C5YE C 0.28153(14) 0.11293(14) 0.14979(15) 0.1063 Uani
C6YE C 0.30106(14) 0.10815(13) 0.17478(15) 0.1063 Uani
C7YE C 0.29517(15) 0.08312(15) 0.19316(15) 0.1063 Uani
H4YE H 0.3081 0.0791 0.2102 0.1270 Uiso
C8YE C 0.26240(13) 0.03995(12) 0.20982(13) 0.0668 Uani
C9YE C 0.27072(17) 0.06359(15) 0.18735(16) 0.1063 Uani
In1F In 0.2500 0.0000 -0.2500 0.0554 Uani
C1F C 0.32584(8) -0.13455(9) -0.17416(8) 0.1153 Uani
C2F C 0.35184(8) -0.14816(8) -0.18655(9) 0.1217 Uani
N1F N 0.36599(16) -0.13752(18) -0.21056(14) 0.1313 Uani
H1F H 0.3824 -0.1450 -0.2195 0.1580 Uiso
O1F O 0.29576(15) -0.02423(14) -0.26159(14) 0.0668 Uani
O2F O 0.26782(13) -0.03827(12) -0.21952(12) 0.0668 Uani
C3F C 0.33808(16) -0.06922(17) -0.24861(15) 0.1063 Uani
H2F H 0.3422 -0.0559 -0.2653 0.1270 Uiso
C4F C 0.35654(16) -0.09358(18) -0.24327(15) 0.1063 Uani
H3F H 0.3736 -0.0975 -0.2562 0.1270 Uiso
C5F C 0.35021(15) -0.11293(14) -0.21847(14) 0.1063 Uani
C6F C 0.32522(15) -0.10815(13) -0.19894(14) 0.1063 Uani
C7F C 0.30684(15) -0.08312(15) -0.20483(15) 0.1063 Uani
H4F H 0.2898 -0.0791 -0.1919 0.1270 Uiso
C8F C 0.29018(13) -0.03995(12) -0.23760(13) 0.0668 Uani
C9F C 0.31265(16) -0.06359(15) -0.22928(17) 0.1063 Uani
C1UB C 0.32584(8) -0.17416(8) -0.13455(9) 0.1153 Uani
C2UB C 0.31345(9) -0.14816(8) -0.14816(8) 0.1217 Uani
N1UB N 0.28944(14) -0.13401(16) -0.13752(18) 0.1313 Uani
H1UB H 0.2805 -0.1176 -0.1450 0.1580 Uiso
O1UB O 0.23841(14) -0.20424(15) -0.02423(14) 0.0668 Uani
O2UB O 0.28048(12) -0.23218(13) -0.03827(12) 0.0668 Uani
C3UB C 0.25139(15) -0.16192(16) -0.06922(17) 0.1063 Uani
H2UB H 0.2347 -0.1578 -0.0559 0.1270 Uiso
C4UB C 0.25673(15) -0.14346(16) -0.09358(18) 0.1063 Uani
H3UB H 0.2438 -0.1264 -0.0975 0.1270 Uiso
C5UB C 0.28153(14) -0.14979(15) -0.11293(14) 0.1063 Uani
C6UB C 0.30106(14) -0.17478(15) -0.10815(13) 0.1063 Uani
C7UB C 0.29517(15) -0.19316(15) -0.08312(15) 0.1063 Uani
H4UB H 0.3081 -0.2102 -0.0791 0.1270 Uiso
C8UB C 0.26240(13) -0.20982(13) -0.03995(12) 0.0668 Uani
C9UB C 0.27072(17) -0.18735(16) -0.06359(15) 0.1063 Uani
C1RB C 0.36545(9) -0.17416(8) -0.17416(8) 0.1153 Uani
C2RB C 0.35184(8) -0.18655(9) -0.14816(8) 0.1217 Uani
N1RB N 0.36248(18) -0.21056(14) -0.13401(16) 0.1313 Uani
H1RB H 0.3550 -0.2195 -0.1176 0.1580 Uiso
O1RB O 0.47577(14) -0.26159(14) -0.20424(15) 0.0668 Uani
O2RB O 0.46173(12) -0.21952(12) -0.23218(13) 0.0668 Uani
C3RB C 0.43078(17) -0.24861(15) -0.16192(16) 0.1063 Uani
H2RB H 0.4441 -0.2653 -0.1578 0.1270 Uiso
C4RB C 0.40642(18) -0.24327(15) -0.14346(16) 0.1063 Uani
H3RB H 0.4025 -0.2562 -0.1264 0.1270 Uiso
C5RB C 0.38707(14) -0.21847(14) -0.14979(15) 0.1063 Uani
C6RB C 0.39185(13) -0.19894(14) -0.17478(15) 0.1063 Uani
C7RB C 0.41688(15) -0.20483(15) -0.19316(15) 0.1063 Uani
H4RB H 0.4209 -0.1919 -0.2102 0.1270 Uiso
C8RB C 0.46005(12) -0.23760(13) -0.20982(13) 0.0668 Uani
C9RB C 0.43641(15) -0.22928(17) -0.18735(16) 0.1063 Uani
N1ZC N 0.36599(16) -0.21056(14) -0.13752(18) 0.1313 Uani
H1ZC H 0.3824 -0.2195 -0.1450 0.1580 Uiso
O1ZC O 0.29576(15) -0.26159(14) -0.02423(14) 0.0668 Uani
O2ZC O 0.26782(13) -0.21952(12) -0.03827(12) 0.0668 Uani
C3ZC C 0.33808(16) -0.24861(15) -0.06922(17) 0.1063 Uani
H2ZC H 0.3422 -0.2653 -0.0559 0.1270 Uiso
C4ZC C 0.35654(16) -0.24327(15) -0.09358(18) 0.1063 Uani
H3ZC H 0.3736 -0.2562 -0.0975 0.1270 Uiso
C5ZC C 0.35021(15) -0.21847(14) -0.11293(14) 0.1063 Uani
C6ZC C 0.32522(15) -0.19894(14) -0.10815(13) 0.1063 Uani
C7ZC C 0.30684(15) -0.20483(15) -0.08312(15) 0.1063 Uani
H4ZC H 0.2898 -0.1919 -0.0791 0.1270 Uiso
C8ZC C 0.29018(13) -0.23760(13) -0.03995(12) 0.0668 Uani
C9ZC C 0.31265(16) -0.22928(17) -0.06359(15) 0.1063 Uani
N1AG N 0.36248(18) -0.13401(16) -0.21056(14) 0.1313 Uani
H1AG H 0.3550 -0.1176 -0.2195 0.1580 Uiso
O1AG O 0.47577(14) -0.20424(15) -0.26159(14) 0.0668 Uani
O2AG O 0.46173(12) -0.23218(13) -0.21952(12) 0.0668 Uani
C3AG C 0.43078(17) -0.16192(16) -0.24861(15) 0.1063 Uani
H2AG H 0.4441 -0.1578 -0.2653 0.1270 Uiso
C4AG C 0.40642(18) -0.14346(16) -0.24327(15) 0.1063 Uani
H3AG H 0.4025 -0.1264 -0.2562 0.1270 Uiso
C5AG C 0.38707(14) -0.14979(15) -0.21847(14) 0.1063 Uani
C6AG C 0.39185(13) -0.17478(15) -0.19894(14) 0.1063 Uani
C7AG C 0.41688(15) -0.19316(15) -0.20483(15) 0.1063 Uani
H4AG H 0.4209 -0.2102 -0.1919 0.1270 Uiso
C8AG C 0.46005(12) -0.20982(13) -0.23760(13) 0.0668 Uani
C9AG C 0.43641(15) -0.18735(16) -0.22928(17) 0.1063 Uani
N1EF N 0.28944(14) -0.13752(18) -0.13401(16) 0.1313 Uani
H1EF H 0.2805 -0.1450 -0.1176 0.1580 Uiso
O1EF O 0.23841(14) -0.02423(14) -0.20424(15) 0.0668 Uani
O2EF O 0.28048(12) -0.03827(12) -0.23218(13) 0.0668 Uani
C3EF C 0.25139(15) -0.06922(17) -0.16192(16) 0.1063 Uani
H2EF H 0.2347 -0.0559 -0.1578 0.1270 Uiso
C4EF C 0.25673(15) -0.09358(18) -0.14346(16) 0.1063 Uani
H3EF H 0.2438 -0.0975 -0.1264 0.1270 Uiso
C5EF C 0.28153(14) -0.11293(14) -0.14979(15) 0.1063 Uani
C6EF C 0.30106(14) -0.10815(13) -0.17478(15) 0.1063 Uani
C7EF C 0.29517(15) -0.08312(15) -0.19316(15) 0.1063 Uani
H4EF H 0.3081 -0.0791 -0.2102 0.1270 Uiso
C8EF C 0.26240(13) -0.03995(12) -0.20982(13) 0.0668 Uani
C9EF C 0.27072(17) -0.06359(15) -0.18735(16) 0.1063 Uani
C1P C 0.13455(9) 0.32584(8) -0.17416(8) 0.1153 Uani
C2P C 0.14816(8) 0.35184(8) -0.18655(9) 0.1217 Uani
N1P N 0.13752(18) 0.36599(16) -0.21056(14) 0.1313 Uani
H1P H 0.1450 0.3824 -0.2195 0.1580 Uiso
O1P O 0.02423(14) 0.29576(15) -0.26159(14) 0.0668 Uani
O2P O 0.03827(12) 0.26782(13) -0.21952(12) 0.0668 Uani
C3P C 0.06922(17) 0.33808(16) -0.24861(15) 0.1063 Uani
H2P H 0.0559 0.3422 -0.2653 0.1270 Uiso
C4P C 0.09358(18) 0.35654(16) -0.24327(15) 0.1063 Uani
H3P H 0.0975 0.3736 -0.2562 0.1270 Uiso
C5P C 0.11293(14) 0.35021(15) -0.21847(14) 0.1063 Uani
C6P C 0.10815(13) 0.32522(15) -0.19894(14) 0.1063 Uani
C7P C 0.08312(15) 0.30684(15) -0.20483(15) 0.1063 Uani
H4P H 0.0791 0.2898 -0.1919 0.1270 Uiso
C8P C 0.03995(12) 0.29018(13) -0.23760(13) 0.0668 Uani
C9P C 0.06359(15) 0.31265(16) -0.22928(17) 0.1063 Uani
C1VB C 0.17416(8) 0.32584(8) -0.13455(9) 0.1153 Uani
C2VB C 0.14816(8) 0.31345(9) -0.14816(8) 0.1217 Uani
N1VB N 0.13401(16) 0.28944(14) -0.13752(18) 0.1313 Uani
H1VB H 0.1176 0.2805 -0.1450 0.1580 Uiso
O1VB O 0.20424(15) 0.23841(14) -0.02423(14) 0.0668 Uani
O2VB O 0.23218(13) 0.28048(12) -0.03827(12) 0.0668 Uani
C3VB C 0.16192(16) 0.25139(15) -0.06922(17) 0.1063 Uani
H2VB H 0.1578 0.2347 -0.0559 0.1270 Uiso
C4VB C 0.14346(16) 0.25673(15) -0.09358(18) 0.1063 Uani
H3VB H 0.1264 0.2438 -0.0975 0.1270 Uiso
C5VB C 0.14979(15) 0.28153(14) -0.11293(14) 0.1063 Uani
C6VB C 0.17478(15) 0.30106(14) -0.10815(13) 0.1063 Uani
C7VB C 0.19316(15) 0.29517(15) -0.08312(15) 0.1063 Uani
H4VB H 0.2102 0.3081 -0.0791 0.1270 Uiso
C8VB C 0.20982(13) 0.26240(13) -0.03995(12) 0.0668 Uani
C9VB C 0.18735(16) 0.27072(17) -0.06359(15) 0.1063 Uani
C1IA C 0.17416(8) 0.36545(9) -0.17416(8) 0.1153 Uani
C2IA C 0.18655(9) 0.35184(8) -0.14816(8) 0.1217 Uani
N1IA N 0.21056(14) 0.36248(18) -0.13401(16) 0.1313 Uani
H1IA H 0.2195 0.3550 -0.1176 0.1580 Uiso
O1IA O 0.26159(14) 0.47577(14) -0.20424(15) 0.0668 Uani
O2IA O 0.21952(12) 0.46173(12) -0.23218(13) 0.0668 Uani
C3IA C 0.24861(15) 0.43078(17) -0.16192(16) 0.1063 Uani
H2IA H 0.2653 0.4441 -0.1578 0.1270 Uiso
C4IA C 0.24327(15) 0.40642(18) -0.14346(16) 0.1063 Uani
H3IA H 0.2562 0.4025 -0.1264 0.1270 Uiso
C5IA C 0.21847(14) 0.38707(14) -0.14979(15) 0.1063 Uani
C6IA C 0.19894(14) 0.39185(13) -0.17478(15) 0.1063 Uani
C7IA C 0.20483(15) 0.41688(15) -0.19316(15) 0.1063 Uani
H4IA H 0.1919 0.4209 -0.2102 0.1270 Uiso
C8IA C 0.23760(13) 0.46005(12) -0.20982(13) 0.0668 Uani
C9IA C 0.22928(17) 0.43641(15) -0.18735(16) 0.1063 Uani
N1KD N 0.21056(14) 0.36599(16) -0.13752(18) 0.1313 Uani
H1KD H 0.2195 0.3824 -0.1450 0.1580 Uiso
O1KD O 0.26159(14) 0.29576(15) -0.02423(14) 0.0668 Uani
O2KD O 0.21952(12) 0.26782(13) -0.03827(12) 0.0668 Uani
C3KD C 0.24861(15) 0.33808(16) -0.06922(17) 0.1063 Uani
H2KD H 0.2653 0.3422 -0.0559 0.1270 Uiso
C4KD C 0.24327(15) 0.35654(16) -0.09358(18) 0.1063 Uani
H3KD H 0.2562 0.3736 -0.0975 0.1270 Uiso
C5KD C 0.21847(14) 0.35021(15) -0.11293(14) 0.1063 Uani
C6KD C 0.19894(14) 0.32522(15) -0.10815(13) 0.1063 Uani
C7KD C 0.20483(15) 0.30684(15) -0.08312(15) 0.1063 Uani
H4KD H 0.1919 0.2898 -0.0791 0.1270 Uiso
C8KD C 0.23760(13) 0.29018(13) -0.03995(12) 0.0668 Uani
C9KD C 0.22928(17) 0.31265(16) -0.06359(15) 0.1063 Uani
N1PF N 0.13401(16) 0.36248(18) -0.21056(14) 0.1313 Uani
H1PF H 0.1176 0.3550 -0.2195 0.1580 Uiso
O1PF O 0.20424(15) 0.47577(14) -0.26159(14) 0.0668 Uani
O2PF O 0.23218(13) 0.46173(12) -0.21952(12) 0.0668 Uani
C3PF C 0.16192(16) 0.43078(17) -0.24861(15) 0.1063 Uani
H2PF H 0.1578 0.4441 -0.2653 0.1270 Uiso
C4PF C 0.14346(16) 0.40642(18) -0.24327(15) 0.1063 Uani
H3PF H 0.1264 0.4025 -0.2562 0.1270 Uiso
C5PF C 0.14979(15) 0.38707(14) -0.21847(14) 0.1063 Uani
C6PF C 0.17478(15) 0.39185(13) -0.19894(14) 0.1063 Uani
C7PF C 0.19316(15) 0.41688(15) -0.20483(15) 0.1063 Uani
H4PF H 0.2102 0.4209 -0.1919 0.1270 Uiso
C8PF C 0.20982(13) 0.46005(12) -0.23760(13) 0.0668 Uani
C9PF C 0.18735(16) 0.43641(15) -0.22928(17) 0.1063 Uani
N1WD N 0.13752(18) 0.28944(14) -0.13401(16) 0.1313 Uani
H1WD H 0.1450 0.2805 -0.1176 0.1580 Uiso
O1WD O 0.02423(14) 0.23841(14) -0.20424(15) 0.0668 Uani
O2WD O 0.03827(12) 0.28048(12) -0.23218(13) 0.0668 Uani
C3WD C 0.06922(17) 0.25139(15) -0.16192(16) 0.1063 Uani
H2WD H 0.0559 0.2347 -0.1578 0.1270 Uiso
C4WD C 0.09358(18) 0.25673(15) -0.14346(16) 0.1063 Uani
H3WD H 0.0975 0.2438 -0.1264 0.1270 Uiso
C5WD C 0.11293(14) 0.28153(14) -0.14979(15) 0.1063 Uani
C6WD C 0.10815(13) 0.30106(14) -0.17478(15) 0.1063 Uani
C7WD C 0.08312(15) 0.29517(15) -0.19316(15) 0.1063 Uani
H4WD H 0.0791 0.3081 -0.2102 0.1270 Uiso
C8WD C 0.03995(12) 0.26240(13) -0.20982(13) 0.0668 Uani
C9WD C 0.06359(15) 0.27072(17) -0.18735(16) 0.1063 Uani
In1C In 0.2500 -0.2500 0.0000 0.0554 Uani
In1G In 0.0000 0.2500 -0.2500 0.0554 Uani
In1BA In 0.2500 0.5000 -0.2500 0.0554 Uani
In1CB In 0.5000 0.2500 0.2500 0.0554 Uani
In1EB In 0.5000 0.2500 -0.2500 0.0554 Uani
In1KB In 0.5000 -0.2500 -0.2500 0.0554 Uani
O1K O 0.26159(14) -0.02423(14) 0.29576(15) 0.0668 Uani
O1Q O 0.26159(14) 0.02423(14) -0.29576(15) 0.0668 Uani
O1R O 0.26159(14) 0.29576(15) 0.02423(14) 0.0668 Uani
O1JB O 0.23841(14) -0.02423(14) 0.20424(15) 0.0668 Uani
O1PB O 0.20424(15) -0.02423(14) -0.23841(14) 0.0668 Uani
O1QB O 0.20424(15) 0.02423(14) 0.23841(14) 0.0668 Uani
O1DD O 0.26159(14) -0.02423(14) -0.29576(15) 0.0668 Uani
O1FD O 0.26159(14) 0.02423(14) 0.29576(15) 0.0668 Uani
O1MD O 0.29576(15) -0.02423(14) 0.26159(14) 0.0668 Uani
O1RE O 0.20424(15) -0.02423(14) 0.23841(14) 0.0668 Uani
O1TE O 0.20424(15) 0.02423(14) -0.23841(14) 0.0668 Uani
O1LF O 0.20424(15) 0.23841(14) 0.02423(14) 0.0668 Uani
O2K O 0.21952(12) -0.03827(12) 0.26782(13) 0.0668 Uani
O2Q O 0.21952(12) 0.03827(12) -0.26782(13) 0.0668 Uani
O2R O 0.21952(12) 0.26782(13) 0.03827(12) 0.0668 Uani
O2JB O 0.28048(12) -0.03827(12) 0.23218(13) 0.0668 Uani
O2PB O 0.23218(13) -0.03827(12) -0.28048(12) 0.0668 Uani
O2QB O 0.23218(13) 0.03827(12) 0.28048(12) 0.0668 Uani
O2DD O 0.21952(12) -0.03827(12) -0.26782(13) 0.0668 Uani
O2FD O 0.21952(12) 0.03827(12) 0.26782(13) 0.0668 Uani
O2MD O 0.26782(13) -0.03827(12) 0.21952(12) 0.0668 Uani
O2RE O 0.23218(13) -0.03827(12) 0.28048(12) 0.0668 Uani
O2TE O 0.23218(13) 0.03827(12) -0.28048(12) 0.0668 Uani
O2LF O 0.23218(13) 0.28048(12) 0.03827(12) 0.0668 Uani
loop_
_atom_site_aniso_label
_atom_site_aniso_U_11
_atom_site_aniso_U_22
_atom_site_aniso_U_33
_atom_site_aniso_U_23
_atom_site_aniso_U_13
_atom_site_aniso_U_12
In1 0.0635(6) 0.0635(6) 0.0393(6) 0.000 0.000 -0.0239(4)
C1 0.145(5) 0.145(5) 0.056(5) -0.034(4) 0.034(4) 0.018(8)
C2 0.143(5) 0.079(6) 0.143(5) -0.063(4) 0.001(8) -0.063(4)
N1 0.138(8) 0.117(6) 0.139(8) -0.021(7) 0.012(5) -0.027(7)
O1 0.068(3) 0.084(3) 0.0485(19) -0.0092(17) 0.0093(19) -0.015(2)
O2 0.068(3) 0.084(3) 0.0485(19) -0.0092(17) 0.0093(19) -0.015(2)
C3 0.107(4) 0.098(3) 0.114(4) -0.025(3) 0.013(3) -0.025(3)
C4 0.107(4) 0.098(3) 0.114(4) -0.025(3) 0.013(3) -0.025(3)
C5 0.107(4) 0.098(3) 0.114(4) -0.025(3) 0.013(3) -0.025(3)
C6 0.107(4) 0.098(3) 0.114(4) -0.025(3) 0.013(3) -0.025(3)
C7 0.107(4) 0.098(3) 0.114(4) -0.025(3) 0.013(3) -0.025(3)
C8 0.068(3) 0.084(3) 0.0485(19) -0.0092(17) 0.0093(19) -0.015(2)
C9 0.107(4) 0.098(3) 0.114(4) -0.025(3) 0.013(3) -0.025(3)
C1HB 0.145 0.056 0.145 -0.034 -0.018 -0.034
C2HB 0.079 0.143 0.143 -0.001 0.063 -0.063
N1HB 0.117 0.139 0.138 -0.012 0.027 -0.021
O1HB 0.084 0.0485 0.068 -0.0093 0.015 -0.0092
O2HB 0.084 0.0485 0.068 -0.0093 0.015 -0.0092
C3HB 0.098 0.114 0.107 -0.013 0.025 -0.025
C4HB 0.098 0.114 0.107 -0.013 0.025 -0.025
C5HB 0.098 0.114 0.107 -0.013 0.025 -0.025
C6HB 0.098 0.114 0.107 -0.013 0.025 -0.025
C7HB 0.098 0.114 0.107 -0.013 0.025 -0.025
C8HB 0.084 0.0485 0.068 -0.0093 0.015 -0.0092
C9HB 0.098 0.114 0.107 -0.013 0.025 -0.025
C1GC 0.056 0.145 0.145 0.018 0.034 -0.034
C2GC 0.143 0.143 0.079 -0.063 0.063 -0.001
N1GC 0.139 0.138 0.117 -0.027 0.021 -0.012
O1GC 0.0485 0.068 0.084 -0.015 0.0092 -0.0093
O2GC 0.0485 0.068 0.084 -0.015 0.0092 -0.0093
C3GC 0.114 0.107 0.098 -0.025 0.025 -0.013
C4GC 0.114 0.107 0.098 -0.025 0.025 -0.013
C5GC 0.114 0.107 0.098 -0.025 0.025 -0.013
C6GC 0.114 0.107 0.098 -0.025 0.025 -0.013
C7GC 0.114 0.107 0.098 -0.025 0.025 -0.013
C8GC 0.0485 0.068 0.084 -0.015 0.0092 -0.0093
C9GC 0.114 0.107 0.098 -0.025 0.025 -0.013
N1LD 0.138 0.139 0.117 -0.021 0.027 -0.012
O1LD 0.068 0.0485 0.084 -0.0092 0.015 -0.0093
O2LD 0.068 0.0485 0.084 -0.0092 0.015 -0.0093
C3LD 0.107 0.114 0.098 -0.025 0.025 -0.013
C4LD 0.107 0.114 0.098 -0.025 0.025 -0.013
C5LD 0.107 0.114 0.098 -0.025 0.025 -0.013
C6LD 0.107 0.114 0.098 -0.025 0.025 -0.013
C7LD 0.107 0.114 0.098 -0.025 0.025 -0.013
C8LD 0.068 0.0485 0.084 -0.0092 0.015 -0.0093
C9LD 0.107 0.114 0.098 -0.025 0.025 -0.013
N1KF 0.139 0.117 0.138 -0.027 0.012 -0.021
O1KF 0.0485 0.084 0.068 -0.015 0.0093 -0.0092
O2KF 0.0485 0.084 0.068 -0.015 0.0093 -0.0092
C3KF 0.114 0.098 0.107 -0.025 0.013 -0.025
C4KF 0.114 0.098 0.107 -0.025 0.013 -0.025
C5KF 0.114 0.098 0.107 -0.025 0.013 -0.025
C6KF 0.114 0.098 0.107 -0.025 0.013 -0.025
C7KF 0.114 0.098 0.107 -0.025 0.013 -0.025
C8KF 0.0485 0.084 0.068 -0.015 0.0093 -0.0092
C9KF 0.114 0.098 0.107 -0.025 0.013 -0.025
N1DG 0.117 0.138 0.139 -0.012 0.021 -0.027
O1DG 0.084 0.068 0.0485 -0.0093 0.0092 -0.015
O2DG 0.084 0.068 0.0485 -0.0093 0.0092 -0.015
C3DG 0.098 0.107 0.114 -0.013 0.025 -0.025
C4DG 0.098 0.107 0.114 -0.013 0.025 -0.025
C5DG 0.098 0.107 0.114 -0.013 0.025 -0.025
C6DG 0.098 0.107 0.114 -0.013 0.025 -0.025
C7DG 0.098 0.107 0.114 -0.013 0.025 -0.025
C8DG 0.084 0.068 0.0485 -0.0093 0.0092 -0.015
C9DG 0.098 0.107 0.114 -0.013 0.025 -0.025
In1D 0.0635 0.0393 0.0635 0 -0.0239 0
C1D 0.145 0.056 0.145 0.034 0.018 -0.034
C2D 0.143 0.143 0.079 0.063 -0.063 -0.001
N1D 0.138 0.139 0.117 0.021 -0.027 -0.012
O1D 0.068 0.0485 0.084 0.0092 -0.015 -0.0093
O2D 0.068 0.0485 0.084 0.0092 -0.015 -0.0093
C3D 0.107 0.114 0.098 0.025 -0.025 -0.013
C4D 0.107 0.114 0.098 0.025 -0.025 -0.013
C5D 0.107 0.114 0.098 0.025 -0.025 -0.013
C6D 0.107 0.114 0.098 0.025 -0.025 -0.013
C7D 0.107 0.114 0.098 0.025 -0.025 -0.013
C8D 0.068 0.0485 0.084 0.0092 -0.015 -0.0093
C9D 0.107 0.114 0.098 0.025 -0.025 -0.013
C1MC 0.145 0.145 0.056 0.034 -0.034 0.018
C2MC 0.079 0.143 0.143 0.001 -0.063 -0.063
N1MC 0.117 0.138 0.139 0.012 -0.021 -0.027
O1MC 0.084 0.068 0.0485 0.0093 -0.0092 -0.015
O2MC 0.084 0.068 0.0485 0.0093 -0.0092 -0.015
C3MC 0.098 0.107 0.114 0.013 -0.025 -0.025
C4MC 0.098 0.107 0.114 0.013 -0.025 -0.025
C5MC 0.098 0.107 0.114 0.013 -0.025 -0.025
C6MC 0.098 0.107 0.114 0.013 -0.025 -0.025
C7MC 0.098 0.107 0.114 0.013 -0.025 -0.025
C8MC 0.084 0.068 0.0485 0.0093 -0.0092 -0.015
C9MC 0.098 0.107 0.114 0.013 -0.025 -0.025
C1CB 0.056 0.145 0.145 -0.018 -0.034 -0.034
C2CB 0.143 0.079 0.143 0.063 -0.001 -0.063
N1CB 0.139 0.117 0.138 0.027 -0.012 -0.021
O1CB 0.0485 0.084 0.068 0.015 -0.0093 -0.0092
O2CB 0.0485 0.084 0.068 0.015 -0.0093 -0.0092
C3CB 0.114 0.098 0.107 0.025 -0.013 -0.025
C4CB 0.114 0.098 0.107 0.025 -0.013 -0.025
C5CB 0.114 0.098 0.107 0.025 -0.013 -0.025
C6CB 0.114 0.098 0.107 0.025 -0.013 -0.025
C7CB 0.114 0.098 0.107 0.025 -0.013 -0.025
C8CB 0.0485 0.084 0.068 0.015 -0.0093 -0.0092
C9CB 0.114 0.098 0.107 0.025 -0.013 -0.025
N1TC 0.138 0.117 0.139 0.021 -0.012 -0.027
O1TC 0.068 0.084 0.0485 0.0092 -0.0093 -0.015
O2TC 0.068 0.084 0.0485 0.0092 -0.0093 -0.015
C3TC 0.107 0.098 0.114 0.025 -0.013 -0.025
C4TC 0.107 0.098 0.114 0.025 -0.013 -0.025
C5TC 0.107 0.098 0.114 0.025 -0.013 -0.025
C6TC 0.107 0.098 0.114 0.025 -0.013 -0.025
C7TC 0.107 0.098 0.114 0.025 -0.013 -0.025
C8TC 0.068 0.084 0.0485 0.0092 -0.0093 -0.015
C9TC 0.107 0.098 0.114 0.025 -0.013 -0.025
N1BG 0.139 0.138 0.117 0.027 -0.021 -0.012
O1BG 0.0485 0.068 0.084 0.015 -0.0092 -0.0093
O2BG 0.0485 0.068 0.084 0.015 -0.0092 -0.0093
C3BG 0.114 0.107 0.098 0.025 -0.025 -0.013
C4BG 0.114 0.107 0.098 0.025 -0.025 -0.013
C5BG 0.114 0.107 0.098 0.025 -0.025 -0.013
C6BG 0.114 0.107 0.098 0.025 -0.025 -0.013
C7BG 0.114 0.107 0.098 0.025 -0.025 -0.013
C8BG 0.0485 0.068 0.084 0.015 -0.0092 -0.0093
C9BG 0.114 0.107 0.098 0.025 -0.025 -0.013
N1YE 0.117 0.139 0.138 0.012 -0.027 -0.021
O1YE 0.084 0.0485 0.068 0.0093 -0.015 -0.0092
O2YE 0.084 0.0485 0.068 0.0093 -0.015 -0.0092
C3YE 0.098 0.114 0.107 0.013 -0.025 -0.025
C4YE 0.098 0.114 0.107 0.013 -0.025 -0.025
C5YE 0.098 0.114 0.107 0.013 -0.025 -0.025
C6YE 0.098 0.114 0.107 0.013 -0.025 -0.025
C7YE 0.098 0.114 0.107 0.013 -0.025 -0.025
C8YE 0.084 0.0485 0.068 0.0093 -0.015 -0.0092
C9YE 0.098 0.114 0.107 0.013 -0.025 -0.025
In1F 0.0635 0.0393 0.0635 0 0.0239 0
C1F 0.145 0.056 0.145 0.034 -0.018 0.034
C2F 0.143 0.143 0.079 0.063 0.063 0.001
N1F 0.138 0.139 0.117 0.021 0.027 0.012
O1F 0.068 0.0485 0.084 0.0092 0.015 0.0093
O2F 0.068 0.0485 0.084 0.0092 0.015 0.0093
C3F 0.107 0.114 0.098 0.025 0.025 0.013
C4F 0.107 0.114 0.098 0.025 0.025 0.013
C5F 0.107 0.114 0.098 0.025 0.025 0.013
C6F 0.107 0.114 0.098 0.025 0.025 0.013
C7F 0.107 0.114 0.098 0.025 0.025 0.013
C8F 0.068 0.0485 0.084 0.0092 0.015 0.0093
C9F 0.107 0.114 0.098 0.025 0.025 0.013
C1UB 0.145 0.145 0.056 0.034 0.034 -0.018
C2UB 0.079 0.143 0.143 0.001 0.063 0.063
N1UB 0.117 0.138 0.139 0.012 0.021 0.027
O1UB 0.084 0.068 0.0485 0.0093 0.0092 0.015
O2UB 0.084 0.068 0.0485 0.0093 0.0092 0.015
C3UB 0.098 0.107 0.114 0.013 0.025 0.025
C4UB 0.098 0.107 0.114 0.013 0.025 0.025
C5UB 0.098 0.107 0.114 0.013 0.025 0.025
C6UB 0.098 0.107 0.114 0.013 0.025 0.025
C7UB 0.098 0.107 0.114 0.013 0.025 0.025
C8UB 0.084 0.068 0.0485 0.0093 0.0092 0.015
C9UB 0.098 0.107 0.114 0.013 0.025 0.025
C1RB 0.056 0.145 0.145 -0.018 0.034 0.034
C2RB 0.143 0.079 0.143 0.063 0.001 0.063
N1RB 0.139 0.117 0.138 0.027 0.012 0.021
O1RB 0.0485 0.084 0.068 0.015 0.0093 0.0092
O2RB 0.0485 0.084 0.068 0.015 0.0093 0.0092
C3RB 0.114 0.098 0.107 0.025 0.013 0.025
C4RB 0.114 0.098 0.107 0.025 0.013 0.025
C5RB 0.114 0.098 0.107 0.025 0.013 0.025
C6RB 0.114 0.098 0.107 0.025 0.013 0.025
C7RB 0.114 0.098 0.107 0.025 0.013 0.025
C8RB 0.0485 0.084 0.068 0.015 0.0093 0.0092
C9RB 0.114 0.098 0.107 0.025 0.013 0.025
N1ZC 0.138 0.117 0.139 0.021 0.012 0.027
O1ZC 0.068 0.084 0.0485 0.0092 0.0093 0.015
O2ZC 0.068 0.084 0.0485 0.0092 0.0093 0.015
C3ZC 0.107 0.098 0.114 0.025 0.013 0.025
C4ZC 0.107 0.098 0.114 0.025 0.013 0.025
C5ZC 0.107 0.098 0.114 0.025 0.013 0.025
C6ZC 0.107 0.098 0.114 0.025 0.013 0.025
C7ZC 0.107 0.098 0.114 0.025 0.013 0.025
C8ZC 0.068 0.084 0.0485 0.0092 0.0093 0.015
C9ZC 0.107 0.098 0.114 0.025 0.013 0.025
N1AG 0.139 0.138 0.117 0.027 0.021 0.012
O1AG 0.0485 0.068 0.084 0.015 0.0092 0.0093
O2AG 0.0485 0.068 0.084 0.015 0.0092 0.0093
C3AG 0.114 0.107 0.098 0.025 0.025 0.013
C4AG 0.114 0.107 0.098 0.025 0.025 0.013
C5AG 0.114 0.107 0.098 0.025 0.025 0.013
C6AG 0.114 0.107 0.098 0.025 0.025 0.013
C7AG 0.114 0.107 0.098 0.025 0.025 0.013
C8AG 0.0485 0.068 0.084 0.015 0.0092 0.0093
C9AG 0.114 0.107 0.098 0.025 0.025 0.013
N1EF 0.117 0.139 0.138 0.012 0.027 0.021
O1EF 0.084 0.0485 0.068 0.0093 0.015 0.0092
O2EF 0.084 0.0485 0.068 0.0093 0.015 0.0092
C3EF 0.098 0.114 0.107 0.013 0.025 0.025
C4EF 0.098 0.114 0.107 0.013 0.025 0.025
C5EF 0.098 0.114 0.107 0.013 0.025 0.025
C6EF 0.098 0.114 0.107 0.013 0.025 0.025
C7EF 0.098 0.114 0.107 0.013 0.025 0.025
C8EF 0.084 0.0485 0.068 0.0093 0.015 0.0092
C9EF 0.098 0.114 0.107 0.013 0.025 0.025
C1P 0.056 0.145 0.145 -0.018 -0.034 -0.034
C2P 0.143 0.143 0.079 0.063 -0.063 -0.001
N1P 0.139 0.138 0.117 0.027 -0.021 -0.012
O1P 0.0485 0.068 0.084 0.015 -0.0092 -0.0093
O2P 0.0485 0.068 0.084 0.015 -0.0092 -0.0093
C3P 0.114 0.107 0.098 0.025 -0.025 -0.013
C4P 0.114 0.107 0.098 0.025 -0.025 -0.013
C5P 0.114 0.107 0.098 0.025 -0.025 -0.013
C6P 0.114 0.107 0.098 0.025 -0.025 -0.013
C7P 0.114 0.107 0.098 0.025 -0.025 -0.013
C8P 0.0485 0.068 0.084 0.015 -0.0092 -0.0093
C9P 0.114 0.107 0.098 0.025 -0.025 -0.013
C1VB 0.145 0.145 0.056 0.034 -0.034 0.018
C2VB 0.143 0.079 0.143 0.063 -0.001 -0.063
N1VB 0.138 0.117 0.139 0.021 -0.012 -0.027
O1VB 0.068 0.084 0.0485 0.0092 -0.0093 -0.015
O2VB 0.068 0.084 0.0485 0.0092 -0.0093 -0.015
C3VB 0.107 0.098 0.114 0.025 -0.013 -0.025
C4VB 0.107 0.098 0.114 0.025 -0.013 -0.025
C5VB 0.107 0.098 0.114 0.025 -0.013 -0.025
C6VB 0.107 0.098 0.114 0.025 -0.013 -0.025
C7VB 0.107 0.098 0.114 0.025 -0.013 -0.025
C8VB 0.068 0.084 0.0485 0.0092 -0.0093 -0.015
C9VB 0.107 0.098 0.114 0.025 -0.013 -0.025
C1IA 0.145 0.056 0.145 0.034 0.018 -0.034
C2IA 0.079 0.143 0.143 0.001 -0.063 -0.063
N1IA 0.117 0.139 0.138 0.012 -0.027 -0.021
O1IA 0.084 0.0485 0.068 0.0093 -0.015 -0.0092
O2IA 0.084 0.0485 0.068 0.0093 -0.015 -0.0092
C3IA 0.098 0.114 0.107 0.013 -0.025 -0.025
C4IA 0.098 0.114 0.107 0.013 -0.025 -0.025
C5IA 0.098 0.114 0.107 0.013 -0.025 -0.025
C6IA 0.098 0.114 0.107 0.013 -0.025 -0.025
C7IA 0.098 0.114 0.107 0.013 -0.025 -0.025
C8IA 0.084 0.0485 0.068 0.0093 -0.015 -0.0092
C9IA 0.098 0.114 0.107 0.013 -0.025 -0.025
N1KD 0.117 0.138 0.139 0.012 -0.021 -0.027
O1KD 0.084 0.068 0.0485 0.0093 -0.0092 -0.015
O2KD 0.084 0.068 0.0485 0.0093 -0.0092 -0.015
C3KD 0.098 0.107 0.114 0.013 -0.025 -0.025
C4KD 0.098 0.107 0.114 0.013 -0.025 -0.025
C5KD 0.098 0.107 0.114 0.013 -0.025 -0.025
C6KD 0.098 0.107 0.114 0.013 -0.025 -0.025
C7KD 0.098 0.107 0.114 0.013 -0.025 -0.025
C8KD 0.084 0.068 0.0485 0.0093 -0.0092 -0.015
C9KD 0.098 0.107 0.114 0.013 -0.025 -0.025
N1PF 0.138 0.139 0.117 0.021 -0.027 -0.012
O1PF 0.068 0.0485 0.084 0.0092 -0.015 -0.0093
O2PF 0.068 0.0485 0.084 0.0092 -0.015 -0.0093
C3PF 0.107 0.114 0.098 0.025 -0.025 -0.013
C4PF 0.107 0.114 0.098 0.025 -0.025 -0.013
C5PF 0.107 0.114 0.098 0.025 -0.025 -0.013
C6PF 0.107 0.114 0.098 0.025 -0.025 -0.013
C7PF 0.107 0.114 0.098 0.025 -0.025 -0.013
C8PF 0.068 0.0485 0.084 0.0092 -0.015 -0.0093
C9PF 0.107 0.114 0.098 0.025 -0.025 -0.013
N1WD 0.139 0.117 0.138 0.027 -0.012 -0.021
O1WD 0.0485 0.084 0.068 0.015 -0.0093 -0.0092
O2WD 0.0485 0.084 0.068 0.015 -0.0093 -0.0092
C3WD 0.114 0.098 0.107 0.025 -0.013 -0.025
C4WD 0.114 0.098 0.107 0.025 -0.013 -0.025
C5WD 0.114 0.098 0.107 0.025 -0.013 -0.025
C6WD 0.114 0.098 0.107 0.025 -0.013 -0.025
C7WD 0.114 0.098 0.107 0.025 -0.013 -0.025
C8WD 0.0485 0.084 0.068 0.015 -0.0093 -0.0092
C9WD 0.114 0.098 0.107 0.025 -0.013 -0.025
In1C 0.0635 0.0635 0.0393 0 0 0.0239
In1G 0.0393 0.0635 0.0635 0.0239 0 0
In1BA 0.0635 0.0393 0.0635 0 -0.0239 0
In1CB 0.0393 0.0635 0.0635 0.0239 0 0
In1EB 0.0393 0.0635 0.0635 -0.0239 0 0
In1KB 0.0393 0.0635 0.0635 0.0239 0 0
O1K 0.084 0.0485 0.068 0.0093 -0.015 -0.0092
O1Q 0.084 0.0485 0.068 0.0093 0.015 0.0092
O1R 0.084 0.068 0.0485 -0.0093 0.0092 -0.015
O1JB 0.084 0.0485 0.068 -0.0093 -0.015 0.0092
O1PB 0.068 0.0485 0.084 -0.0092 0.015 -0.0093
O1QB 0.068 0.0485 0.084 -0.0092 -0.015 0.0093
O1DD 0.084 0.0485 0.068 -0.0093 0.015 -0.0092
O1FD 0.084 0.0485 0.068 -0.0093 -0.015 0.0092
O1MD 0.068 0.0485 0.084 -0.0092 -0.015 0.0093
O1RE 0.068 0.0485 0.084 0.0092 -0.015 -0.0093
O1TE 0.068 0.0485 0.084 0.0092 0.015 0.0093
O1LF 0.068 0.084 0.0485 -0.0092 0.0093 -0.015
O2K 0.084 0.0485 0.068 0.0093 -0.015 -0.0092
O2Q 0.084 0.0485 0.068 0.0093 0.015 0.0092
O2R 0.084 0.068 0.0485 -0.0093 0.0092 -0.015
O2JB 0.084 0.0485 0.068 -0.0093 -0.015 0.0092
O2PB 0.068 0.0485 0.084 -0.0092 0.015 -0.0093
O2QB 0.068 0.0485 0.084 -0.0092 -0.015 0.0093
O2DD 0.084 0.0485 0.068 -0.0093 0.015 -0.0092
O2FD 0.084 0.0485 0.068 -0.0093 -0.015 0.0092
O2MD 0.068 0.0485 0.084 -0.0092 -0.015 0.0093
O2RE 0.068 0.0485 0.084 0.0092 -0.015 -0.0093
O2TE 0.068 0.0485 0.084 0.0092 0.015 0.0093
O2LF 0.068 0.084 0.0485 -0.0092 0.0093 -0.015
loop_
_geom_bond_atom_site_label_1
_geom_bond_atom_site_label_2
_geom_bond_site_symmetry_1
_geom_bond_site_symmetry_2
In1 O1 1_555 1_555
C1 C2 1_555 1_555
C2 N1 1_555 1_555
N1 H1 1_555 1_555
H1 N1KF 1_555 1_555
O1 C8 1_555 1_555
O2 In1 1_555 1_555
C3 H2 1_555 1_555
C4 C3 1_555 1_555
H3 C4 1_555 1_555
C5 N1 1_555 1_555
C6 C1 1_555 1_555
C7 C6 1_555 1_555
H4 C7 1_555 1_555
C8 O2 1_555 1_555
C9 C3 1_555 1_555
C1HB C2HB 1_555 1_555
C2HB C1 1_555 1_555
N1HB C2HB 1_555 1_555
H1HB N1HB 1_555 1_555
O1HB C8HB 1_555 1_555
O2HB C8HB 1_555 1_555
C3HB H2HB 1_555 1_555
C4HB C3HB 1_555 1_555
H3HB C4HB 1_555 1_555
C5HB N1HB 1_555 1_555
C6HB C1HB 1_555 1_555
C7HB C6HB 1_555 1_555
H4HB C7HB 1_555 1_555
C8HB C9HB 1_555 1_555
C9HB C3HB 1_555 1_555
C1GC C2 1_555 1_555
C2GC C1HB 1_555 1_555
N1GC C2GC 1_555 1_555
H1GC N1GC 1_555 1_555
O1GC C8GC 1_555 1_555
O2GC C8GC 1_555 1_555
C3GC H2GC 1_555 1_555
C4GC C3GC 1_555 1_555
H3GC C4GC 1_555 1_555
C5GC N1GC 1_555 1_555
C6GC C1GC 1_555 1_555
C7GC C6GC 1_555 1_555
H4GC C7GC 1_555 1_555
C8GC C9GC 1_555 1_555
C9GC C3GC 1_555 1_555
N1LD C2GC 1_555 1_555
H1LD N1GC 1_555 1_555
O1LD O2HB 1_555 1_555
O2LD O1HB 1_555 1_555
C3LD H2LD 1_555 1_555
C4LD C3LD 1_555 1_555
H3LD C4LD 1_555 1_555
C5LD N1GC 1_555 1_555
C6LD C1HB 1_555 1_555
C7LD C7HB 1_555 1_555
H4LD C9HB 1_555 1_555
C8LD C8HB 1_555 1_555
C9LD O2HB 1_555 1_555
N1KF C2 1_555 1_555
H1KF N1 1_555 1_555
O1KF O2GC 1_555 1_555
O2KF O1GC 1_555 1_555
C3KF H2KF 1_555 1_555
C4KF C3KF 1_555 1_555
H3KF C4KF 1_555 1_555
C5KF N1 1_555 1_555
C6KF C1GC 1_555 1_555
C7KF C7GC 1_555 1_555
H4KF C9GC 1_555 1_555
C8KF C8GC 1_555 1_555
C9KF O2GC 1_555 1_555
N1DG C2HB 1_555 1_555
H1DG N1HB 1_555 1_555
O1DG In1 1_555 1_555
O2DG In1 1_555 1_555
C3DG H2DG 1_555 1_555
C4DG C3DG 1_555 1_555
H3DG C4DG 1_555 1_555
C5DG N1HB 1_555 1_555
C6DG C1 1_555 1_555
C7DG C7 1_555 1_555
H4DG C9 1_555 1_555
C8DG C8 1_555 1_555
C9DG O2 1_555 1_555
In1D O1D 1_555 1_555
C1D C2D 1_555 1_555
C2D N1D 1_555 1_555
N1D H1D 1_555 1_555
H1D N1BG 1_555 1_555
O1D C8D 1_555 1_555
O2D In1D 1_555 1_555
C3D H2D 1_555 1_555
C4D C3D 1_555 1_555
H3D C4D 1_555 1_555
C5D N1D 1_555 1_555
C6D C1D 1_555 1_555
C7D C6D 1_555 1_555
H4D C7D 1_555 1_555
C8D O2D 1_555 1_555
C9D C3D 1_555 1_555
C1MC C2MC 1_555 1_555
C2MC C1D 1_555 1_555
N1MC C2MC 1_555 1_555
H1MC N1MC 1_555 1_555
O1MC In1 1_555 1_555
O2MC In1 1_555 1_555
C3MC H2MC 1_555 1_555
C4MC C3MC 1_555 1_555
H3MC C4MC 1_555 1_555
C5MC N1MC 1_555 1_555
C6MC C1MC 1_555 1_555
C7MC C6MC 1_555 1_555
H4MC C7MC 1_555 1_555
C8MC O1MC 1_555 1_555
C9MC C3MC 1_555 1_555
C1CB C2D 1_555 1_555
C2CB C1MC 1_555 1_555
N1CB C2CB 1_555 1_555
H1CB N1CB 1_555 1_555
O1CB C8CB 1_555 1_555
O2CB C8CB 1_555 1_555
C3CB H2CB 1_555 1_555
C4CB C3CB 1_555 1_555
H3CB C4CB 1_555 1_555
C5CB N1CB 1_555 1_555
C6CB C1CB 1_555 1_555
C7CB C6CB 1_555 1_555
H4CB C7CB 1_555 1_555
C8CB C9CB 1_555 1_555
C9CB C3CB 1_555 1_555
N1TC C2CB 1_555 1_555
H1TC N1CB 1_555 1_555
O1TC In1 1_555 1_555
O2TC In1 1_555 1_555
C3TC H2TC 1_555 1_555
C4TC C3TC 1_555 1_555
H3TC C4TC 1_555 1_555
C5TC N1CB 1_555 1_555
C6TC C1MC 1_555 1_555
C7TC C7MC 1_555 1_555
H4TC C9MC 1_555 1_555
C8TC C8MC 1_555 1_555
C9TC O2MC 1_555 1_555
N1BG C2D 1_555 1_555
H1BG N1D 1_555 1_555
O1BG O2CB 1_555 1_555
O2BG O1CB 1_555 1_555
C3BG H2BG 1_555 1_555
C4BG C3BG 1_555 1_555
H3BG C4BG 1_555 1_555
C5BG N1D 1_555 1_555
C6BG C1CB 1_555 1_555
C7BG C7CB 1_555 1_555
H4BG C9CB 1_555 1_555
C8BG C8CB 1_555 1_555
C9BG O2CB 1_555 1_555
N1YE C2MC 1_555 1_555
H1YE N1MC 1_555 1_555
O1YE In1D 1_555 1_555
O2YE In1D 1_555 1_555
C3YE H2YE 1_555 1_555
C4YE C3YE 1_555 1_555
H3YE C4YE 1_555 1_555
C5YE N1MC 1_555 1_555
C6YE C1D 1_555 1_555
C7YE C7D 1_555 1_555
H4YE C9D 1_555 1_555
C8YE C8D 1_555 1_555
C9YE O2D 1_555 1_555
In1F O1HB 1_555 1_555
C1F C2F 1_555 1_555
C2F N1F 1_555 1_555
N1F H1F 1_555 1_555
H1F N1AG 1_555 1_555
O1F In1F 1_555 1_555
O2F In1F 1_555 1_555
C3F H2F 1_555 1_555
C4F C3F 1_555 1_555
H3F C4F 1_555 1_555
C5F N1F 1_555 1_555
C6F C1F 1_555 1_555
C7F C6F 1_555 1_555
H4F C7F 1_555 1_555
C8F O1F 1_555 1_555
C9F C3F 1_555 1_555
C1UB C2UB 1_555 1_555
C2UB C1F 1_555 1_555
N1UB C2UB 1_555 1_555
H1UB N1UB 1_555 1_555
O1UB C8UB 1_555 1_555
O2UB C8UB 1_555 1_555
C3UB H2UB 1_555 1_555
C4UB C3UB 1_555 1_555
H3UB C4UB 1_555 1_555
C5UB N1UB 1_555 1_555
C6UB C1UB 1_555 1_555
C7UB C6UB 1_555 1_555
H4UB C7UB 1_555 1_555
C8UB C9UB 1_555 1_555
C9UB C3UB 1_555 1_555
C1RB C2F 1_555 1_555
C2RB C1UB 1_555 1_555
N1RB C2RB 1_555 1_555
H1RB N1RB 1_555 1_555
O1RB C8RB 1_555 1_555
O2RB C8RB 1_555 1_555
C3RB H2RB 1_555 1_555
C4RB C3RB 1_555 1_555
H3RB C4RB 1_555 1_555
C5RB N1RB 1_555 1_555
C6RB C1RB 1_555 1_555
C7RB C6RB 1_555 1_555
H4RB C7RB 1_555 1_555
C8RB C9RB 1_555 1_555
C9RB C3RB 1_555 1_555
N1ZC C2RB 1_555 1_555
H1ZC N1RB 1_555 1_555
O1ZC O2UB 1_555 1_555
O2ZC O1UB 1_555 1_555
C3ZC H2ZC 1_555 1_555
C4ZC C3ZC 1_555 1_555
H3ZC C4ZC 1_555 1_555
C5ZC N1RB 1_555 1_555
C6ZC C1UB 1_555 1_555
C7ZC C7UB 1_555 1_555
H4ZC C9UB 1_555 1_555
C8ZC C8UB 1_555 1_555
C9ZC O2UB 1_555 1_555
N1AG C2F 1_555 1_555
H1AG N1F 1_555 1_555
O1AG O2RB 1_555 1_555
O2AG O1RB 1_555 1_555
C3AG H2AG 1_555 1_555
C4AG C3AG 1_555 1_555
H3AG C4AG 1_555 1_555
C5AG N1F 1_555 1_555
C6AG C1RB 1_555 1_555
C7AG C7RB 1_555 1_555
H4AG C9RB 1_555 1_555
C8AG C8RB 1_555 1_555
C9AG O2RB 1_555 1_555
N1EF C2UB 1_555 1_555
H1EF N1UB 1_555 1_555
O1EF In1F 1_555 1_555
O2EF In1F 1_555 1_555
C3EF H2EF 1_555 1_555
C4EF C3EF 1_555 1_555
H3EF C4EF 1_555 1_555
C5EF N1UB 1_555 1_555
C6EF C1F 1_555 1_555
C7EF C7F 1_555 1_555
H4EF C9F 1_555 1_555
C8EF C8F 1_555 1_555
C9EF O2F 1_555 1_555
C1P C2P 1_555 1_555
C2P N1P 1_555 1_555
N1P H1P 1_555 1_555
H1P N1PF 1_555 1_555
O1P C8P 1_555 1_555
O2P C8P 1_555 1_555
C3P H2P 1_555 1_555
C4P C3P 1_555 1_555
H3P C4P 1_555 1_555
C5P N1P 1_555 1_555
C6P C1P 1_555 1_555
C7P C6P 1_555 1_555
H4P C7P 1_555 1_555
C8P C9P 1_555 1_555
C9P C3P 1_555 1_555
C1VB C2VB 1_555 1_555
C2VB C1P 1_555 1_555
N1VB C2VB 1_555 1_555
H1VB N1VB 1_555 1_555
O1VB In1 1_555 1_555
O2VB In1 1_555 1_555
C3VB H2VB 1_555 1_555
C4VB C3VB 1_555 1_555
H3VB C4VB 1_555 1_555
C5VB N1VB 1_555 1_555
C6VB C1VB 1_555 1_555
C7VB C6VB 1_555 1_555
H4VB C7VB 1_555 1_555
C8VB O1VB 1_555 1_555
C9VB C3VB 1_555 1_555
C1IA C2P 1_555 1_555
C2IA C1VB 1_555 1_555
N1IA C2IA 1_555 1_555
H1IA N1IA 1_555 1_555
O1IA C8IA 1_555 1_555
O2IA C8IA 1_555 1_555
C3IA H2IA 1_555 1_555
C4IA C3IA 1_555 1_555
H3IA C4IA 1_555 1_555
C5IA N1IA 1_555 1_555
C6IA C1IA 1_555 1_555
C7IA C6IA 1_555 1_555
H4IA C7IA 1_555 1_555
C8IA C9IA 1_555 1_555
C9IA C3IA 1_555 1_555
N1KD C2IA 1_555 1_555
H1KD N1IA 1_555 1_555
O1KD In1 1_555 1_555
O2KD In1 1_555 1_555
C3KD H2KD 1_555 1_555
C4KD C3KD 1_555 1_555
H3KD C4KD 1_555 1_555
C5KD N1IA 1_555 1_555
C6KD C1VB 1_555 1_555
C7KD C7VB 1_555 1_555
H4KD C9VB 1_555 1_555
C8KD C8VB 1_555 1_555
C9KD O2VB 1_555 1_555
N1PF C2P 1_555 1_555
H1PF N1P 1_555 1_555
O1PF O2IA 1_555 1_555
O2PF O1IA 1_555 1_555
C3PF H2PF 1_555 1_555
C4PF C3PF 1_555 1_555
H3PF C4PF 1_555 1_555
C5PF N1P 1_555 1_555
C6PF C1IA 1_555 1_555
C7PF C7IA 1_555 1_555
H4PF C9IA 1_555 1_555
C8PF C8IA 1_555 1_555
C9PF O2IA 1_555 1_555
N1WD C2VB 1_555 1_555
H1WD N1VB 1_555 1_555
O1WD O2P 1_555 1_555
O2WD O1P 1_555 1_555
C3WD H2WD 1_555 1_555
C4WD C3WD 1_555 1_555
H3WD C4WD 1_555 1_555
C5WD N1VB 1_555 1_555
C6WD C1P 1_555 1_555
C7WD C7P 1_555 1_555
H4WD C9P 1_555 1_555
C8WD C8P 1_555 1_555
C9WD O2P 1_555 1_555
In1C O1UB 1_555 1_555
In1G O1P 1_555 1_555
In1BA O1IA 1_555 1_555
In1CB O1CB 1_555 1_555
In1EB O1GC 1_555 1_555
In1KB O1RB 1_555 1_555
O1K In1D 1_555 1_555
O1Q In1F 1_555 1_555
O1R In1 1_555 1_555
O1JB In1D 1_555 1_555
O1PB In1F 1_555 1_555
O1QB In1D 1_555 1_555
O1DD In1F 1_555 1_555
O1FD In1D 1_555 1_555
O1MD In1D 1_555 1_555
O1RE In1D 1_555 1_555
O1TE In1F 1_555 1_555
O1LF In1 1_555 1_555
O2K In1D 1_555 1_555
O2Q In1F 1_555 1_555
O2R In1 1_555 1_555
O2JB In1D 1_555 1_555
O2PB In1F 1_555 1_555
O2QB In1D 1_555 1_555
O2DD In1F 1_555 1_555
O2FD In1D 1_555 1_555
O2MD In1D 1_555 1_555
O2RE In1D 1_555 1_555
O2TE In1F 1_555 1_555
O2LF In1 1_555 1_555
O1 O2DG 1_555 1_555
O2 O1DG 1_555 1_555
O2 O2DG 1_555 1_555
C4 C5 1_555 1_555
C5 C6 1_555 1_555
C5 N1KF 1_555 1_555
C6 C6DG 1_555 1_555
C7 C9 1_555 1_555
H4 C9DG 1_555 1_555
C8 C9 1_555 1_555
C9 O2DG 1_555 1_555
H1HB N1DG 1_555 1_555
O2HB O2LD 1_555 1_555
O2HB In1F 1_555 1_555
C4HB C5HB 1_555 1_555
C5HB C6HB 1_555 1_555
C5HB N1DG 1_555 1_555
C6HB C6LD 1_555 1_555
C7HB C9HB 1_555 1_555
H4HB C9LD 1_555 1_555
C9HB O2LD 1_555 1_555
C1GC C2GC 1_555 1_555
H1GC N1LD 1_555 1_555
O2GC O2KF 1_555 1_555
O2GC In1EB 1_555 1_555
C4GC C5GC 1_555 1_555
C5GC C6GC 1_555 1_555
C5GC N1LD 1_555 1_555
C6GC C6KF 1_555 1_555
C7GC C9GC 1_555 1_555
H4GC C9KF 1_555 1_555
C9GC O2KF 1_555 1_555
N1LD H1LD 1_555 1_555
N1LD C5LD 1_555 1_555
O1LD C8LD 1_555 1_555
O1LD In1F 1_555 1_555
O2LD C8LD 1_555 1_555
O2LD In1F 1_555 1_555
C3LD C9LD 1_555 1_555
C4LD C5LD 1_555 1_555
C5LD C6LD 1_555 1_555
C6LD C7LD 1_555 1_555
C7LD H4LD 1_555 1_555
C7LD C9LD 1_555 1_555
C8LD C9LD 1_555 1_555
N1KF H1KF 1_555 1_555
N1KF C5KF 1_555 1_555
O1KF C8KF 1_555 1_555
O1KF In1EB 1_555 1_555
O2KF C8KF 1_555 1_555
O2KF In1EB 1_555 1_555
C3KF C9KF 1_555 1_555
C4KF C5KF 1_555 1_555
C5KF C6KF 1_555 1_555
C6KF C7KF 1_555 1_555
C7KF H4KF 1_555 1_555
C7KF C9KF 1_555 1_555
C8KF C9KF 1_555 1_555
N1DG H1DG 1_555 1_555
N1DG C5DG 1_555 1_555
O1DG C8DG 1_555 1_555
O2DG C8DG 1_555 1_555
C3DG C9DG 1_555 1_555
C4DG C5DG 1_555 1_555
C5DG C6DG 1_555 1_555
C6DG C7DG 1_555 1_555
C7DG H4DG 1_555 1_555
C7DG C9DG 1_555 1_555
C8DG C9DG 1_555 1_555
O1D O2YE 1_555 1_555
O2D O1YE 1_555 1_555
O2D O2YE 1_555 1_555
C4D C5D 1_555 1_555
C5D C6D 1_555 1_555
C5D N1BG 1_555 1_555
C6D C6YE 1_555 1_555
C7D C9D 1_555 1_555
H4D C9YE 1_555 1_555
C8D C9D 1_555 1_555
C9D O2YE 1_555 1_555
H1MC N1YE 1_555 1_555
O1MC O2TC 1_555 1_555
O2MC C8MC 1_555 1_555
O2MC O1TC 1_555 1_555
O2MC O2TC 1_555 1_555
C4MC C5MC 1_555 1_555
C5MC C6MC 1_555 1_555
C5MC N1YE 1_555 1_555
C6MC C6TC 1_555 1_555
C7MC C9MC 1_555 1_555
H4MC C9TC 1_555 1_555
C8MC C9MC 1_555 1_555
C9MC O2TC 1_555 1_555
C1CB C2CB 1_555 1_555
H1CB N1TC 1_555 1_555
O2CB O2BG 1_555 1_555
O2CB In1CB 1_555 1_555
C4CB C5CB 1_555 1_555
C5CB C6CB 1_555 1_555
C5CB N1TC 1_555 1_555
C6CB C6BG 1_555 1_555
C7CB C9CB 1_555 1_555
H4CB C9BG 1_555 1_555
C9CB O2BG 1_555 1_555
N1TC H1TC 1_555 1_555
N1TC C5TC 1_555 1_555
O1TC C8TC 1_555 1_555
O2TC C8TC 1_555 1_555
C3TC C9TC 1_555 1_555
C4TC C5TC 1_555 1_555
C5TC C6TC 1_555 1_555
C6TC C7TC 1_555 1_555
C7TC H4TC 1_555 1_555
C7TC C9TC 1_555 1_555
C8TC C9TC 1_555 1_555
N1BG H1BG 1_555 1_555
N1BG C5BG 1_555 1_555
O1BG C8BG 1_555 1_555
O1BG In1CB 1_555 1_555
O2BG C8BG 1_555 1_555
O2BG In1CB 1_555 1_555
C3BG C9BG 1_555 1_555
C4BG C5BG 1_555 1_555
C5BG C6BG 1_555 1_555
C6BG C7BG 1_555 1_555
C7BG H4BG 1_555 1_555
C7BG C9BG 1_555 1_555
C8BG C9BG 1_555 1_555
N1YE H1YE 1_555 1_555
N1YE C5YE 1_555 1_555
O1YE C8YE 1_555 1_555
O2YE C8YE 1_555 1_555
C3YE C9YE 1_555 1_555
C4YE C5YE 1_555 1_555
C5YE C6YE 1_555 1_555
C6YE C7YE 1_555 1_555
C7YE H4YE 1_555 1_555
C7YE C9YE 1_555 1_555
C8YE C9YE 1_555 1_555
O1F O2EF 1_555 1_555
O2F C8F 1_555 1_555
O2F O1EF 1_555 1_555
O2F O2EF 1_555 1_555
C4F C5F 1_555 1_555
C5F C6F 1_555 1_555
C5F N1AG 1_555 1_555
C6F C6EF 1_555 1_555
C7F C9F 1_555 1_555
H4F C9EF 1_555 1_555
C8F C9F 1_555 1_555
C9F O2EF 1_555 1_555
H1UB N1EF 1_555 1_555
O2UB O2ZC 1_555 1_555
O2UB In1C 1_555 1_555
C4UB C5UB 1_555 1_555
C5UB C6UB 1_555 1_555
C5UB N1EF 1_555 1_555
C6UB C6ZC 1_555 1_555
C7UB C9UB 1_555 1_555
H4UB C9ZC 1_555 1_555
C9UB O2ZC 1_555 1_555
C1RB C2RB 1_555 1_555
H1RB N1ZC 1_555 1_555
O2RB O2AG 1_555 1_555
O2RB In1KB 1_555 1_555
C4RB C5RB 1_555 1_555
C5RB C6RB 1_555 1_555
C5RB N1ZC 1_555 1_555
C6RB C6AG 1_555 1_555
C7RB C9RB 1_555 1_555
H4RB C9AG 1_555 1_555
C9RB O2AG 1_555 1_555
N1ZC H1ZC 1_555 1_555
N1ZC C5ZC 1_555 1_555
O1ZC C8ZC 1_555 1_555
O1ZC In1C 1_555 1_555
O2ZC C8ZC 1_555 1_555
O2ZC In1C 1_555 1_555
C3ZC C9ZC 1_555 1_555
C4ZC C5ZC 1_555 1_555
C5ZC C6ZC 1_555 1_555
C6ZC C7ZC 1_555 1_555
C7ZC H4ZC 1_555 1_555
C7ZC C9ZC 1_555 1_555
C8ZC C9ZC 1_555 1_555
N1AG H1AG 1_555 1_555
N1AG C5AG 1_555 1_555
O1AG C8AG 1_555 1_555
O1AG In1KB 1_555 1_555
O2AG C8AG 1_555 1_555
O2AG In1KB 1_555 1_555
C3AG C9AG 1_555 1_555
C4AG C5AG 1_555 1_555
C5AG C6AG 1_555 1_555
C6AG C7AG 1_555 1_555
C7AG H4AG 1_555 1_555
C7AG C9AG 1_555 1_555
C8AG C9AG 1_555 1_555
N1EF H1EF 1_555 1_555
N1EF C5EF 1_555 1_555
O1EF C8EF 1_555 1_555
O2EF C8EF 1_555 1_555
C3EF C9EF 1_555 1_555
C4EF C5EF 1_555 1_555
C5EF C6EF 1_555 1_555
C6EF C7EF 1_555 1_555
C7EF H4EF 1_555 1_555
C7EF C9EF 1_555 1_555
C8EF C9EF 1_555 1_555
O2P O2WD 1_555 1_555
O2P In1G 1_555 1_555
C4P C5P 1_555 1_555
C5P C6P 1_555 1_555
C5P N1PF 1_555 1_555
C6P C6WD 1_555 1_555
C7P C9P 1_555 1_555
H4P C9WD 1_555 1_555
C9P O2WD 1_555 1_555
H1VB N1WD 1_555 1_555
O1VB O2KD 1_555 1_555
O2VB C8VB 1_555 1_555
O2VB O1KD 1_555 1_555
O2VB O2KD 1_555 1_555
C4VB C5VB 1_555 1_555
C5VB C6VB 1_555 1_555
C5VB N1WD 1_555 1_555
C6VB C6KD 1_555 1_555
C7VB C9VB 1_555 1_555
H4VB C9KD 1_555 1_555
C8VB C9VB 1_555 1_555
C9VB O2KD 1_555 1_555
C1IA C2IA 1_555 1_555
H1IA N1KD 1_555 1_555
O2IA O2PF 1_555 1_555
O2IA In1BA 1_555 1_555
C4IA C5IA 1_555 1_555
C5IA C6IA 1_555 1_555
C5IA N1KD 1_555 1_555
C6IA C6PF 1_555 1_555
C7IA C9IA 1_555 1_555
H4IA C9PF 1_555 1_555
C9IA O2PF 1_555 1_555
N1KD H1KD 1_555 1_555
N1KD C5KD 1_555 1_555
O1KD C8KD 1_555 1_555
O2KD C8KD 1_555 1_555
C3KD C9KD 1_555 1_555
C4KD C5KD 1_555 1_555
C5KD C6KD 1_555 1_555
C6KD C7KD 1_555 1_555
C7KD H4KD 1_555 1_555
C7KD C9KD 1_555 1_555
C8KD C9KD 1_555 1_555
N1PF H1PF 1_555 1_555
N1PF C5PF 1_555 1_555
O1PF C8PF 1_555 1_555
O1PF In1BA 1_555 1_555
O2PF C8PF 1_555 1_555
O2PF In1BA 1_555 1_555
C3PF C9PF 1_555 1_555
C4PF C5PF 1_555 1_555
C5PF C6PF 1_555 1_555
C6PF C7PF 1_555 1_555
C7PF H4PF 1_555 1_555
C7PF C9PF 1_555 1_555
C8PF C9PF 1_555 1_555
N1WD H1WD 1_555 1_555
N1WD C5WD 1_555 1_555
O1WD C8WD 1_555 1_555
O1WD In1G 1_555 1_555
O2WD C8WD 1_555 1_555
O2WD In1G 1_555 1_555
C3WD C9WD 1_555 1_555
C4WD C5WD 1_555 1_555
C5WD C6WD 1_555 1_555
C6WD C7WD 1_555 1_555
C7WD H4WD 1_555 1_555
C7WD C9WD 1_555 1_555
C8WD C9WD 1_555 1_555
O1K O2RE 1_555 1_555
O1Q O2TE 1_555 1_555
O1R O2LF 1_555 1_555
O1JB O2MD 1_555 1_555
O1PB O2DD 1_555 1_555
O1QB O2FD 1_555 1_555
O1DD O2PB 1_555 1_555
O1FD O2QB 1_555 1_555
O1MD O2JB 1_555 1_555
O1RE O2K 1_555 1_555
O1TE O2Q 1_555 1_555
O1LF O2R 1_555 1_555
O2K O2RE 1_555 1_555
O2Q O2TE 1_555 1_555
O2R O2LF 1_555 1_555
O2JB O2MD 1_555 1_555
O2PB O2DD 1_555 1_555
O2QB O2FD 1_555 1_555

#END
