
#######################################################################
#
#                 Cambridge Crystallographic Data Centre
#                                CCDC 
#
#######################################################################
#
# If this CIF has been generated from an entry in the Cambridge 
# Structural Database, then it will include bibliographic, chemical, 
# crystal, experimental, refinement or atomic coordinate data resulting 
# from the CCDC's data processing and validation procedures.
#
#######################################################################

data_AJAYIT
_chemical_formula_moiety         '(C24 H36 Cu3 Er2 N6 O27)n'
_symmetry_cell_setting           trigonal
_symmetry_space_group_name_H-M   'P 3 c 1'
_symmetry_Int_Tables_number      158
_space_group_name_Hall           'P 3 -2"c'
loop_
_symmetry_equiv_pos_site_id
_symmetry_equiv_pos_as_xyz
1 x,y,z
2 -y,x-y,z
3 -x+y,-x,z
4 -y,-x,1/2+z
5 -x+y,y,1/2+z
6 x,x-y,1/2+z
_cell_length_a                   13.3169(19)
_cell_length_b                   13.3169(19)
_cell_length_c                   14.297(3)
_cell_angle_alpha                90
_cell_angle_beta                 90
_cell_angle_gamma                120
_cell_volume                     2195.74
loop_
_atom_site_label
_atom_site_type_symbol
_atom_site_fract_x
_atom_site_fract_y
_atom_site_fract_z
Er1 Er 0.6667 0.3333 0.15432(2)
Er2 Er 1.3333 0.6667 -0.18054(2)
Cu1 Cu 0.9995(6) 0.4997(4) -0.0133(2)
O1 O 0.8094(12) 0.3652(11) 0.0450(8)
O2 O 0.9239(10) 0.5222(11) -0.1236(8)
O3 O 1.1887(10) 0.6446(10) -0.0746(8)
N1 N 1.0472(10) 0.6516(12) 0.0458(9)
H1 H 0.9812 0.6503 0.0643
O4 O 1.0718(10) 0.4742(9) 0.0939(7)
C1 C 0.8703(12) 0.4343(13) -0.1785(10)
N2 N 0.9607(11) 0.3468(10) -0.0712(9)
H2 H 1.0264 0.3503 -0.0934
C2 C 1.1257(12) 0.5619(12) 0.1461(9)
C3 C 1.1137(12) 0.6712(12) 0.1243(8)
H3 H 1.0780 0.6872 0.1771
H4 H 1.1899 0.7383 0.1146
C4 C 0.8765(14) 0.3324(12) -0.1564(10)
H5 H 0.9025 0.3094 -0.2115
H6 H 0.7991 0.2701 -0.1416
C5 C 1.1023(14) 0.7433(15) -0.0240(11)
H7 H 1.0419 0.7432 -0.0619
H8 H 1.1417 0.8171 0.0085
C6 C 0.9044(12) 0.2514(11) -0.0013(9)
H9 H 0.9618 0.2523 0.0409
H10 H 0.8647 0.1768 -0.0324
O6 O 0.7476(11) 0.1938(12) 0.1157(8)
C7 C 0.8128(12) 0.2749(13) 0.0555(9)
C8 C 1.1852(15) 0.7372(13) -0.0863(12)
O7 O 1.2411(12) 0.8091(12) -0.1411(8)
O8 O 1.1852(12) 0.5621(11) 0.2156(9)
O9 O 0.8147(11) 0.4306(11) -0.2454(7)
O1A O 0.6348(11) 0.4442(16) 0.0450(8)
O2A O 0.4778(11) 0.4017(15) -0.1236(8)
C1A C 0.5657(13) 0.4360(18) -0.1785(10)
N2A N 0.6532(10) 0.6139(15) -0.0712(9)
H2A H 0.6497 0.6761 -0.0934
C4A C 0.6676(12) 0.5441(18) -0.1564(10)
H5A H 0.6906 0.5931 -0.2115
H6A H 0.7299 0.5290 -0.1416
C6A C 0.7486(11) 0.6530(16) -0.0013(9)
H9A H 0.7477 0.7095 0.0409
H10A H 0.8232 0.6879 -0.0324
O6A O 0.8062(12) 0.5538(16) 0.1157(8)
C7A C 0.7251(13) 0.5379(18) 0.0555(9)
O9A O 0.5694(11) 0.3841(16) -0.2454(7)
O1B O 0.5558(16) 0.1906(12) 0.0450(8)
O2B O 0.5983(15) 0.0761(10) -0.1236(8)
C1B C 0.5640(18) 0.1297(12) -0.1785(10)
N2B N 0.3861(15) 0.0393(11) -0.0712(9)
H2B H 0.3239 -0.0264 -0.0934
C4B C 0.4559(18) 0.1235(14) -0.1564(10)
H5B H 0.4069 0.0975 -0.2115
H6B H 0.4710 0.2009 -0.1416
C6B C 0.3470(16) 0.0956(12) -0.0013(9)
H9B H 0.2905 0.0382 0.0409
H10B H 0.3121 0.1353 -0.0324
O6B O 0.4462(16) 0.2524(11) 0.1157(8)
C7B C 0.4621(18) 0.1872(12) 0.0555(9)
O9B O 0.6159(16) 0.1853(11) -0.2454(7)
Cu1A Cu 0.5003(4) 0.4998(7) -0.0133(2)
Cu1B Cu 0.5002(7) 0.0005(6) -0.0133(2)
O3A O 0.3554(10) 0.5441(14) -0.0746(8)
N1A N 0.3484(12) 0.3956(16) 0.0458(9)
H1A H 0.3497 0.3309 0.0643
O4A O 0.5258(9) 0.5976(13) 0.0939(7)
C2A C 0.4381(12) 0.5638(17) 0.1461(9)
C3A C 0.3288(12) 0.4425(17) 0.1243(8)
H3A H 0.3128 0.3908 0.1771
H4A H 0.2617 0.4516 0.1146
C5A C 0.2567(15) 0.3590(21) -0.0240(11)
H7A H 0.2568 0.2987 -0.0619
H8A H 0.1829 0.3246 0.0085
C8A C 0.2628(13) 0.4480(20) -0.0863(12)
O7A O 0.1909(12) 0.4320(17) -0.1411(8)
O8A O 0.4379(11) 0.6231(16) 0.2156(9)
O3B O 0.4559(14) -0.1887(10) -0.0746(8)
N1B N 0.6044(16) -0.0472(10) 0.0458(9)
H1B H 0.6691 0.0188 0.0643
O4B O 0.4024(13) -0.0718(10) 0.0939(7)
C2B C 0.4362(17) -0.1257(12) 0.1461(9)
C3B C 0.5575(17) -0.1137(12) 0.1243(8)
H3B H 0.6092 -0.0780 0.1771
H4B H 0.5484 -0.1899 0.1146
C5B C 0.6410(21) -0.1023(14) -0.0240(11)
H7B H 0.7013 -0.0419 -0.0619
H8B H 0.6754 -0.1417 0.0085
C8B C 0.5520(20) -0.1852(15) -0.0863(12)
O7B O 0.5680(17) -0.2411(12) -0.1411(8)
O8B O 0.3769(16) -0.1852(12) 0.2156(9)
O9C O 0.5694(11) 0.1853(11) 0.2546(7)
O9D O 0.6159(16) 0.4306(11) 0.2546(7)
O9E O 0.8147(11) 0.3841(16) 0.2546(7)
O3A_2 O 1.3554(10) 0.5441(14) -0.0746(8)
O3B_2 O 1.4559(14) 0.8113(10) -0.0746(8)
O7A_2 O 1.1909(12) 0.4320(17) -0.1411(8)
O7B_2 O 1.5680(17) 0.7589(12) -0.1411(8)
O8C O 1.4379(11) 0.8148(12) -0.2844(9)
O8D O 1.3769(16) 0.5621(11) -0.2844(9)
O8E O 1.1852(12) 0.6231(16) -0.2844(9)
Er2C Er 1.3333 0.6667 0.31946(2)
Er1C Er 0.6667 0.3333 -0.34568(2)
Er2_2 Er 0.3333 0.6667 -0.18054(2)
Er2C_2 Er 0.3333 0.6667 0.31946(2)
Er2_3 Er 0.3333 -0.3333 -0.18054(2)
Er2C_3 Er 0.3333 -0.3333 0.31946(2)
O5 O -0.0000 -0.0000 0.5509(14)
H11 H -0.0000 -0.0000 0.483(2)
O10 O 1.013(3) 0.2733(13) 0.2269(18)
H13 H 1.086(13) 0.282(13) 0.199(11)
H15 H 0.975(16) 0.334(5) 0.181(16)
O11 O 1.1503(15) 0.9946(19) -0.1798(17)
H14 H 1.148(8) 0.965(6) -0.244(3)
H16 H 1.192(11) 0.964(10) -0.147(5)
loop_
_geom_bond_atom_site_label_1
_geom_bond_atom_site_label_2
_geom_bond_site_symmetry_1
_geom_bond_site_symmetry_2
Er1 O1 1_555 1_555
Er2 O3 1_555 1_555
Cu1 O1 1_555 1_555
O1 C7 1_555 1_555
O2 Cu1 1_555 1_555
O3 Cu1 1_555 1_555
N1 Cu1 1_555 1_555
H1 N1 1_555 1_555
O4 Cu1 1_555 1_555
C1 O2 1_555 1_555
N2 Cu1 1_555 1_555
H2 N2 1_555 1_555
C2 O4 1_555 1_555
C3 N1 1_555 1_555
H3 C3 1_555 1_555
H4 C3 1_555 1_555
C4 C1 1_555 1_555
H5 C4 1_555 1_555
H6 C4 1_555 1_555
C5 N1 1_555 1_555
H7 C5 1_555 1_555
H8 C5 1_555 1_555
C6 N2 1_555 1_555
H9 C6 1_555 1_555
H10 C6 1_555 1_555
O5 H11 1_555 1_555
O6 Er1 1_555 1_555
C7 C6 1_555 1_555
C8 O3 1_555 1_555
O7 Er2 1_555 1_555
O8 C2 1_555 1_555
O9 C1 1_555 1_555
O10 H13 1_555 1_555
O11 H14 1_555 1_555
H15 O10 1_555 1_555
H16 O11 1_555 1_555
O1A Er1 1_555 1_555
O2A C1A 1_555 1_555
C1A C4A 1_555 1_555
N2A H2A 1_555 1_555
C4A N2A 1_555 1_555
H5A C4A 1_555 1_555
H6A C4A 1_555 1_555
C6A N2A 1_555 1_555
H9A C6A 1_555 1_555
H10A C6A 1_555 1_555
O6A Er1 1_555 1_555
C7A O1A 1_555 1_555
O9A C1A 1_555 1_555
O1B Er1 1_555 1_555
O2B C1B 1_555 1_555
C1B C4B 1_555 1_555
N2B H2B 1_555 1_555
C4B N2B 1_555 1_555
H5B C4B 1_555 1_555
H6B C4B 1_555 1_555
C6B N2B 1_555 1_555
H9B C6B 1_555 1_555
H10B C6B 1_555 1_555
O6B Er1 1_555 1_555
C7B O1B 1_555 1_555
O9B C1B 1_555 1_555
Cu1A O1A 1_555 1_555
Cu1B O1B 1_555 1_555
O3A Cu1A 1_555 1_555
N1A Cu1A 1_555 1_555
H1A N1A 1_555 1_555
O4A Cu1A 1_555 1_555
C2A O4A 1_555 1_555
C3A N1A 1_555 1_555
H3A C3A 1_555 1_555
H4A C3A 1_555 1_555
C5A N1A 1_555 1_555
H7A C5A 1_555 1_555
H8A C5A 1_555 1_555
C8A O3A 1_555 1_555
O7A C8A 1_555 1_555
O8A C2A 1_555 1_555
O3B Cu1B 1_555 1_555
N1B Cu1B 1_555 1_555
H1B N1B 1_555 1_555
O4B Cu1B 1_555 1_555
C2B O4B 1_555 1_555
C3B N1B 1_555 1_555
H3B C3B 1_555 1_555
H4B C3B 1_555 1_555
C5B N1B 1_555 1_555
H7B C5B 1_555 1_555
H8B C5B 1_555 1_555
C8B O3B 1_555 1_555
O7B C8B 1_555 1_555
O8B C2B 1_555 1_555
O9C Er1 1_555 1_555
O9D Er1 1_555 1_555
O9E Er1 1_555 1_555
O3A_2 Er2 1_555 1_555
O3B_2 Er2 1_555 1_555
O7A_2 Er2 1_555 1_555
O7B_2 Er2 1_555 1_555
O8C Er2 1_555 1_555
O8D Er2 1_555 1_555
O8E Er2 1_555 1_555
Er2C O8 1_555 1_555
Er1C O9 1_555 1_555
Er2_2 O3A 1_555 1_555
Er2C_2 O8A 1_555 1_555
Er2_3 O3B 1_555 1_555
Er2C_3 O8B 1_555 1_555
N2 C4 1_555 1_555
C2 C3 1_555 1_555
C5 C8 1_555 1_555
O6 C7 1_555 1_555
C8 O7 1_555 1_555
O2A Cu1A 1_555 1_555
N2A Cu1A 1_555 1_555
C6A C7A 1_555 1_555
O6A C7A 1_555 1_555
O9A Er1C 1_555 1_555
O2B Cu1B 1_555 1_555
N2B Cu1B 1_555 1_555
C6B C7B 1_555 1_555
O6B C7B 1_555 1_555
O9B Er1C 1_555 1_555
C2A C3A 1_555 1_555
C5A C8A 1_555 1_555
O7A Er2_2 1_555 1_555
C2B C3B 1_555 1_555
C5B C8B 1_555 1_555
O7B Er2_3 1_555 1_555

#END
