
#######################################################################
#
#                 Cambridge Crystallographic Data Centre
#                                CCDC 
#
#######################################################################
#
# If this CIF has been generated from an entry in the Cambridge 
# Structural Database, then it will include bibliographic, chemical, 
# crystal, experimental, refinement or atomic coordinate data resulting 
# from the CCDC's data processing and validation procedures.
#
#######################################################################

data_EFAYIU
_chemical_formula_moiety         '(C176 H136 O48 Zn8)n'
_symmetry_cell_setting           monoclinic
_symmetry_space_group_name_H-M   'C 2/c'
_symmetry_Int_Tables_number      15
_space_group_name_Hall           '-C 2yc'
loop_
_symmetry_equiv_pos_site_id
_symmetry_equiv_pos_as_xyz
1 x,y,z
2 1/2+x,1/2+y,z
3 -x,y,1/2-z
4 1/2-x,1/2+y,1/2-z
5 -x,-y,-z
6 1/2-x,1/2-y,-z
7 x,-y,1/2+z
8 1/2+x,1/2-y,1/2+z
_cell_length_a                   41.8120(19)
_cell_length_b                   41.8148(19)
_cell_length_c                   31.1563(15)
_cell_angle_alpha                90
_cell_angle_beta                 109.607(3)
_cell_angle_gamma                90
_cell_volume                     51313.9
loop_
_atom_site_label
_atom_site_type_symbol
_atom_site_fract_x
_atom_site_fract_y
_atom_site_fract_z
Zn1 Zn 0.26268(2) -0.27041(2) 0.97018(3)
Zn2 Zn 0.40273(2) -0.10471(2) 0.52963(4)
Zn3 Zn -0.01301(2) -0.02026(2) 0.52960(3)
Zn4 Zn 0.34725(2) -0.14533(2) 0.47018(3)
C1 C 0.25478(14) -0.06376(16) 0.77415(16)
C2 C 0.25154(14) -0.09098(11) 0.7991(2)
C3 C 0.26434(15) -0.09047(11) 0.8471(2)
C4 C 0.28039(14) -0.06274(16) 0.87020(16)
H1 H 0.2888 -0.0624 0.9019
C5 C 0.28363(13) -0.03552(11) 0.8453(2)
C6 C 0.27083(14) -0.03603(12) 0.7972(2)
C7 C 0.24493(17) -0.06406(14) 0.72559(17)
C8 C 0.21138(16) -0.05386(12) 0.7027(2)
C9 C 0.19869(12) -0.05320(12) 0.6546(2)
C10 C 0.21954(17) -0.06275(13) 0.62955(17)
H2 H 0.2112 -0.0623 0.5979
C11 C 0.25310(16) -0.07295(13) 0.6525(2)
C12 C 0.26579(11) -0.07361(14) 0.7005(2)
C13 C 0.25973(14) -0.11810(11) 0.8722(2)
C14 C 0.25077(14) -0.11437(10) 0.9117(2)
H3 H 0.2467 -0.0941 0.9209
C15 C 0.24802(14) -0.14141(16) 0.93727(16)
H4 H 0.2421 -0.1389 0.9633
C16 C 0.25423(13) -0.17220(12) 0.92334(19)
C17 C 0.26319(12) -0.17593(10) 0.8838(2)
H5 H 0.2673 -0.1962 0.8747
C18 C 0.26594(13) -0.14889(15) 0.85828(16)
H6 H 0.2718 -0.1514 0.8322
C19 C 0.30093(15) -0.00708(12) 0.8719(2)
C20 C 0.32996(15) -0.01057(11) 0.9110(2)
H7 H 0.3389 -0.0308 0.9202
C21 C 0.34550(12) 0.01662(16) 0.93619(16)
H8 H 0.3646 0.0143 0.9620
C22 C 0.33201(15) 0.04729(12) 0.92225(19)
C23 C 0.30298(15) 0.05079(11) 0.8831(2)
H9 H 0.2941 0.0710 0.8739
C24 C 0.28744(11) 0.02360(16) 0.85793(16)
H10 H 0.2683 0.0259 0.8321
C25 C 0.16306(11) -0.04257(13) 0.62766(19)
C26 C 0.13583(17) -0.05215(11) 0.64181(16)
H11 H 0.1399 -0.0646 0.6679
C27 C 0.10238(14) -0.04291(13) 0.6164(2)
H12 H 0.0844 -0.0492 0.6258
C28 C 0.09617(11) -0.02410(13) 0.5769(2)
C29 C 0.12340(16) -0.01451(12) 0.56277(16)
H13 H 0.1193 -0.0021 0.5367
C30 C 0.15685(13) -0.02375(13) 0.5881(2)
H14 H 0.1748 -0.0174 0.5788
C31 C 0.49233(18) -0.18889(14) 1.22415(16)
C32 C 0.51336(12) -0.17641(12) 1.2010(2)
C33 C 0.50176(16) -0.17553(13) 1.1530(2)
C34 C 0.46913(17) -0.18713(15) 1.12811(16)
H15 H 0.4615 -0.1865 1.0964
C35 C 0.44811(12) -0.19962(14) 1.1512(2)
C36 C 0.45971(16) -0.20050(13) 1.1992(2)
C37 C 0.52512(14) -0.16653(14) 1.1281(2)
C38 C 0.55955(15) -0.17573(11) 1.14246(16)
H16 H 0.5687 -0.1878 1.1688
C39 C 0.58017(11) -0.16665(12) 1.1168(2)
H17 H 0.6029 -0.1727 1.1263
C40 C 0.56636(15) -0.14835(13) 1.07683(19)
C41 C 0.53194(16) -0.13914(12) 1.06248(16)
H18 H 0.5228 -0.1271 1.0361
C42 C 0.51132(11) -0.14823(14) 1.0881(2)
H19 H 0.4886 -0.1422 1.0787
C43 C 0.41359(11) -0.20865(14) 1.1275(2)
C44 C 0.40728(13) -0.22771(14) 1.0882(2)
H20 H 0.4252 -0.2341 1.0789
C45 C 0.37380(17) -0.23702(12) 1.06308(17)
H21 H 0.3696 -0.2496 1.0372
C46 C 0.34664(11) -0.22726(13) 1.07726(19)
C47 C 0.35295(13) -0.20820(13) 1.1166(2)
H22 H 0.3350 -0.2018 1.1259
C48 C 0.38643(16) -0.19889(12) 1.14170(17)
H23 H 0.3906 -0.1863 1.1676
C49 C 0.49211(15) -0.31133(16) 0.72346(16)
C50 C 0.47442(15) -0.28491(12) 0.6985(2)
C51 C 0.46327(14) -0.28541(12) 0.6504(2)
C52 C 0.46981(16) -0.31234(16) 0.62742(16)
H24 H 0.4624 -0.3127 0.5958
C53 C 0.48749(16) -0.33876(12) 0.6524(2)
C54 C 0.49865(14) -0.33826(12) 0.7004(2)
C55 C 0.49097(15) -0.36870(11) 0.62694(19)
C56 C 0.49986(15) -0.36492(10) 0.5874(2)
H25 H 0.5040 -0.3446 0.5783
C57 C 0.50251(14) -0.39194(15) 0.56172(17)
H26 H 0.5084 -0.3894 0.5356
C58 C 0.49628(13) -0.42273(12) 0.57559(19)
C59 C 0.48739(13) -0.42651(10) 0.6151(2)
H27 H 0.4833 -0.4468 0.6243
C60 C 0.48474(14) -0.39950(15) 0.64081(16)
H28 H 0.4789 -0.4020 0.6669
C61 C 0.44807(15) -0.25679(11) 0.62656(19)
C62 C 0.46093(11) -0.22603(14) 0.64124(16)
H29 H 0.4797 -0.2237 0.6675
C63 C 0.44531(14) -0.19885(10) 0.6161(2)
H30 H 0.4538 -0.1786 0.6258
C64 C 0.41683(14) -0.20243(12) 0.57629(19)
C65 C 0.40397(12) -0.23320(15) 0.56161(16)
H31 H 0.3852 -0.2356 0.5353
C66 C 0.41958(15) -0.26037(10) 0.5867(2)
H32 H 0.4111 -0.2807 0.5771
C67 C 0.27432(15) -0.08385(14) 0.6262(2)
C68 C 0.26113(11) -0.10313(14) 0.5871(2)
H33 H 0.2386 -0.1097 0.5777
C69 C 0.28214(15) -0.11249(12) 0.56210(17)
H34 H 0.2734 -0.1252 0.5363
C70 C 0.31634(14) -0.10257(13) 0.57626(19)
C71 C 0.32953(10) -0.08329(13) 0.6154(2)
H35 H 0.3521 -0.0767 0.6247
C72 C 0.30851(16) -0.07393(12) 0.64033(16)
H36 H 0.3172 -0.0612 0.6661
C73 C 0.2514(2) -0.2005(3) 0.9521(4)
C74 C 0.3499(3) 0.0759(3) 0.9521(4)
C75 C 0.3362(3) -0.1125(2) 0.5469(4)
C76 C 0.4993(3) -0.4508(3) 0.5474(4)
C77 C 0.5876(3) -0.1385(2) 1.0491(4)
C78 C 0.0612(3) -0.0146(2) 0.5490(4)
C79 C 0.3110(3) -0.2368(3) 1.0493(4)
C80 C 0.4002(3) -0.1740(2) 0.5476(4)
O1 O 0.36695(14) -0.09970(12) 0.5608(2)
O2 O 0.32555(16) -0.13074(15) 0.5156(3)
O3 O 0.57548(14) -0.12050(14) 1.0158(2)
O4 O 0.61759(14) -0.15062(13) 1.0617(2)
O5 O 0.33381(14) 0.10235(13) 0.9378(2)
O6 O 0.37634(15) 0.07208(12) 0.9837(2)
O7 O 0.41595(14) -0.14754(12) 0.56206(19)
O8 O 0.37452(16) -0.17828(14) 0.5157(2)
O9 O 0.50940(17) -0.44651(13) 0.5160(3)
O10 O 0.48999(15) -0.47704(12) 0.5617(2)
O11 O 0.26021(14) -0.22719(13) 0.9390(2)
O12 O 0.24124(16) -0.19674(13) 0.9842(2)
O13 O 0.03729(14) -0.02537(13) 0.5608(2)
O14 O 0.05670(14) 0.00426(14) 0.5160(2)
O15 O 0.30713(14) -0.25547(15) 1.0157(2)
O16 O 0.28757(13) -0.22457(13) 1.0612(2)
O17 O 0.30821(14) -0.17368(13) 0.4281(2)
O18 O 0.44233(15) -0.07478(15) 0.5692(2)
O19 O 0.28009(16) -0.29869(13) 0.9295(2)
O20 O -0.03303(16) -0.05082(15) 0.5699(2)
O21 O 0.1915(2) -0.0424(2) 0.7252(3)
C81 C 0.1907(6) -0.0068(4) 0.7255(9)
C82 C 0.1661(7) -0.0010(6) 0.7551(10)
O22 O 0.2354(3) -0.1156(2) 0.7740(4)
C83 C 0.1976(4) -0.1137(4) 0.7658(7)
C84 C 0.1802(6) -0.1444(6) 0.7364(10)
O23 O 0.5181(2) -0.3643(2) 0.7236(4)
C85 C 0.5541(4) -0.3641(4) 0.7235(7)
C86 C 0.5698(5) -0.3961(5) 0.7541(8)
O24 O 0.5446(2) -0.1625(2) 1.2251(3)
C87 C 0.5413(5) -0.1276(4) 1.2237(7)
C88 C 0.5798(5) -0.1177(5) 1.2502(9)
Zn1E Zn 0.23732(2) -0.22959(2) 1.02982(3)
Zn1B Zn 0.73732(2) -0.27041(2) 1.52982(3)
Zn1G Zn 0.76268(2) -0.22959(2) 1.47018(3)
Zn2E Zn 0.09727(2) -0.39529(2) 1.47037(4)
Zn2B Zn 0.59727(2) -0.10471(2) 0.97037(4)
Zn2F Zn 0.40273(2) 0.10471(2) 1.02963(4)
Zn2_2 Zn 0.40273(2) -0.10471(2) 1.52963(4)
Zn2C Zn 0.09727(2) -0.60471(2) 0.97037(4)
Zn3E Zn 0.51301(2) -0.47974(2) 1.47040(3)
Zn3E_2 Zn 0.51301(2) -0.47974(2) 0.47040(3)
Zn3A Zn 0.48699(2) -0.52026(2) 0.52960(3)
Zn3D Zn 0.01301(2) 0.02026(2) 0.47040(3)
Zn3G Zn 0.48699(2) -0.47974(2) 1.02960(3)
Zn3C Zn 0.51301(2) -0.52026(2) 0.97040(3)
Zn3A_2 Zn 0.48699(2) -0.52026(2) 1.52960(3)
Zn4E Zn 0.15275(2) -0.35467(2) 1.52982(3)
Zn4B Zn 0.65275(2) -0.14533(2) 1.02982(3)
Zn4F Zn 0.34725(2) 0.14533(2) 0.97018(3)
Zn4_2 Zn 0.34725(2) -0.14533(2) 1.47018(3)
Zn4C Zn 0.15275(2) -0.64533(2) 1.02982(3)
C1E C 0.24522(14) -0.43624(16) 1.22585(16)
C2E C 0.24846(14) -0.40902(11) 1.2009(2)
C3E C 0.23566(15) -0.40953(11) 1.1529(2)
C4E C 0.21961(14) -0.43726(16) 1.12980(16)
H1E H 0.2112 -0.4376 1.0981
C5E C 0.21637(13) -0.46448(11) 1.1547(2)
C6E C 0.22917(14) -0.46397(12) 1.2028(2)
C7E C 0.25507(17) -0.43594(14) 1.27441(17)
C8E C 0.28862(16) -0.44614(12) 1.2973(2)
C9E C 0.30131(12) -0.44680(12) 1.3454(2)
C10E C 0.28046(17) -0.43725(13) 1.37045(17)
H2E H 0.2888 -0.4377 1.4021
C11E C 0.24690(16) -0.42705(13) 1.3475(2)
C12E C 0.23421(11) -0.42639(14) 1.2995(2)
C13E C 0.24027(14) -0.38190(11) 1.1278(2)
C14E C 0.24923(14) -0.38563(10) 1.0883(2)
H3E H 0.2533 -0.4059 1.0791
C15E C 0.25198(14) -0.35859(16) 1.06273(16)
H4E H 0.2579 -0.3611 1.0367
C16E C 0.24577(13) -0.32780(12) 1.07666(19)
C17E C 0.23681(12) -0.32407(10) 1.1162(2)
H5E H 0.2327 -0.3038 1.1253
C18E C 0.23406(13) -0.35111(15) 1.14172(16)
H6E H 0.2282 -0.3486 1.1678
C19E C 0.19907(15) -0.49292(12) 1.1281(2)
C20E C 0.17004(15) -0.48943(11) 1.0890(2)
H7E H 0.1611 -0.4692 1.0798
C21E C 0.15450(12) -0.51662(16) 1.06381(16)
H8E H 0.1354 -0.5143 1.0380
C22E C 0.16799(15) -0.54729(12) 1.07775(19)
C23E C 0.19702(15) -0.55079(11) 1.1169(2)
H9E H 0.2059 -0.5710 1.1261
C24E C 0.21256(11) -0.52360(16) 1.14207(16)
H10E H 0.2317 -0.5259 1.1679
C25E C 0.33694(11) -0.45743(13) 1.37234(19)
C26E C 0.36417(17) -0.44785(11) 1.35819(16)
H11E H 0.3601 -0.4354 1.3321
C27E C 0.39762(14) -0.45709(13) 1.3836(2)
H12E H 0.4156 -0.4508 1.3742
C28E C 0.40383(11) -0.47590(13) 1.4231(2)
C29E C 0.37660(16) -0.48549(12) 1.43723(16)
H13E H 0.3807 -0.4979 1.4633
C30E C 0.34315(13) -0.47625(13) 1.4119(2)
H14E H 0.3252 -0.4826 1.4212
C31B C 0.50767(18) -0.18889(14) 1.27585(16)
C32B C 0.48664(12) -0.17641(12) 1.2990(2)
C33B C 0.49824(16) -0.17553(13) 1.3470(2)
C34B C 0.53087(17) -0.18713(15) 1.37189(16)
H15B H 0.5385 -0.1865 1.4036
C35B C 0.55189(12) -0.19962(14) 1.3488(2)
C36B C 0.54029(16) -0.20050(13) 1.3008(2)
C37B C 0.47488(14) -0.16653(14) 1.3719(2)
C38B C 0.44045(15) -0.17573(11) 1.35754(16)
H16B H 0.4313 -0.1878 1.3312
C39B C 0.41983(11) -0.16665(12) 1.3832(2)
H17B H 0.3971 -0.1727 1.3737
C40B C 0.43364(15) -0.14835(13) 1.42317(19)
C41B C 0.46806(16) -0.13914(12) 1.43752(16)
H18B H 0.4772 -0.1271 1.4639
C42B C 0.48868(11) -0.14823(14) 1.4119(2)
H19B H 0.5114 -0.1422 1.4213
C43B C 0.58641(11) -0.20865(14) 1.3725(2)
C44B C 0.59272(13) -0.22771(14) 1.4118(2)
H20B H 0.5748 -0.2341 1.4211
C45B C 0.62620(17) -0.23702(12) 1.43692(17)
H21B H 0.6304 -0.2496 1.4628
C46B C 0.65336(11) -0.22726(13) 1.42274(19)
C47B C 0.64705(13) -0.20820(13) 1.3834(2)
H22B H 0.6650 -0.2018 1.3741
C48B C 0.61357(16) -0.19889(12) 1.35830(17)
H23B H 0.6094 -0.1863 1.3324
C49B C 0.50789(15) -0.31133(16) 0.77654(16)
C50B C 0.52558(15) -0.28491(12) 0.8015(2)
C51B C 0.53673(14) -0.28541(12) 0.8496(2)
C52B C 0.53019(16) -0.31234(16) 0.87258(16)
H24B H 0.5376 -0.3127 0.9042
C53B C 0.51251(16) -0.33876(12) 0.8476(2)
C54B C 0.50135(14) -0.33826(12) 0.7996(2)
C55B C 0.50903(15) -0.36870(11) 0.87306(19)
C56B C 0.50014(15) -0.36492(10) 0.9126(2)
H25B H 0.4960 -0.3446 0.9217
C57B C 0.49749(14) -0.39194(15) 0.93828(17)
H26B H 0.4916 -0.3894 0.9644
C58B C 0.50372(13) -0.42273(12) 0.92441(19)
C59B C 0.51261(13) -0.42651(10) 0.8849(2)
H27B H 0.5167 -0.4468 0.8757
C60B C 0.51526(14) -0.39950(15) 0.85919(16)
H28B H 0.5211 -0.4020 0.8331
C61B C 0.55193(15) -0.25679(11) 0.87344(19)
C62B C 0.53907(11) -0.22603(14) 0.85876(16)
H29B H 0.5203 -0.2237 0.8325
C63B C 0.55469(14) -0.19885(10) 0.8839(2)
H30B H 0.5462 -0.1786 0.8742
C64B C 0.58317(14) -0.20243(12) 0.92371(19)
C65B C 0.59603(12) -0.23320(15) 0.93839(16)
H31B H 0.6148 -0.2356 0.9647
C66B C 0.58042(15) -0.26037(10) 0.9133(2)
H32B H 0.5889 -0.2807 0.9229
C67E C 0.22568(15) -0.41615(14) 1.3738(2)
C68E C 0.23887(11) -0.39687(14) 1.4129(2)
H33E H 0.2614 -0.3903 1.4223
C69E C 0.21786(15) -0.38751(12) 1.43790(17)
H34E H 0.2266 -0.3748 1.4637
C70E C 0.18366(14) -0.39743(13) 1.42374(19)
C71E C 0.17047(10) -0.41671(13) 1.3846(2)
H35E H 0.1479 -0.4233 1.3753
C72E C 0.19149(16) -0.42607(12) 1.35967(16)
H36E H 0.1828 -0.4388 1.3339
C73E C 0.2486(2) -0.2995(3) 1.0479(4)
C74E C 0.1501(3) -0.5759(3) 1.0479(4)
C75E C 0.1638(3) -0.3875(2) 1.4531(4)
C76B C 0.5007(3) -0.4508(3) 0.9526(4)
C77B C 0.4124(3) -0.1385(2) 1.4509(4)
C78E C 0.4388(3) -0.4854(2) 1.4510(4)
C79B C 0.6890(3) -0.2368(3) 1.4507(4)
C80B C 0.5998(3) -0.1740(2) 0.9524(4)
O1E O 0.13305(14) -0.40030(12) 1.4392(2)
O2E O 0.17445(16) -0.36926(15) 1.4844(3)
O3B O 0.42452(14) -0.12050(14) 1.4842(2)
O3B_2 O 0.42452(14) -0.12050(14) 0.4842(2)
O3G O 0.07548(14) -0.37950(14) 1.5158(2)
O4B O 0.38241(14) -0.15062(13) 1.4383(2)
O4B_2 O 0.38241(14) -0.15062(13) 0.4383(2)
O4G O 0.11759(14) -0.34938(13) 1.5617(2)
O5E O 0.16619(14) -0.60235(13) 1.0622(2)
O5F O 0.33381(14) -0.10235(13) 0.4378(2)
O5C O 0.16619(14) -0.39765(13) 1.5622(2)
O6E O 0.12366(15) -0.57208(12) 1.0163(2)
O6F O 0.37634(15) -0.07208(12) 0.4837(2)
O6C O 0.12366(15) -0.42792(12) 1.5163(2)
O7B O 0.58405(14) -0.14754(12) 0.93794(19)
O7E O 0.08405(14) -0.35246(12) 1.43794(19)
O8B O 0.62548(16) -0.17828(14) 0.9843(2)
O8E O 0.12548(16) -0.32172(14) 1.4843(2)
O9B O 0.49060(17) -0.44651(13) 0.9840(3)
O9E O -0.00940(17) -0.05349(13) 0.4840(3)
O9_2 O 0.50940(17) -0.44651(13) 1.5160(3)
O10B O 0.51001(15) -0.47704(12) 0.9383(2)
O10A O -0.01001(15) 0.02296(12) 0.5617(2)
O10D O 0.51001(15) -0.52296(12) 1.4383(2)
O11E O 0.23979(14) -0.27281(13) 1.0610(2)
O12E O 0.25876(16) -0.30326(13) 1.0158(2)
O13E O 0.46271(14) -0.47463(13) 1.4392(2)
O14E O 0.44330(14) -0.50426(14) 1.4840(2)
O14D O -0.05670(14) -0.00426(14) 0.4840(2)
O14A O 0.55670(14) -0.49574(14) 1.5160(2)
O15B O 0.69287(14) -0.25547(15) 1.4843(2)
O15E O 0.19287(14) -0.24453(15) 0.9843(2)
O16B O 0.71243(13) -0.22457(13) 1.4388(2)
O16E O 0.21243(13) -0.27543(13) 0.9388(2)
O17E O 0.19179(14) -0.32632(13) 1.5719(2)
O18E O 0.05767(15) -0.42522(15) 1.4308(2)
O19E O 0.21991(16) -0.20131(13) 1.0705(2)
O20E O 0.53303(16) -0.44918(15) 1.4301(2)
O21E O 0.3085(2) -0.4576(2) 1.2748(3)
C81E C 0.3093(6) -0.4932(4) 1.2745(9)
C82E C 0.3339(7) -0.4990(6) 1.2449(10)
O22E O 0.2646(3) -0.3844(2) 1.2260(4)
C83E C 0.3024(4) -0.3863(4) 1.2342(7)
C84E C 0.3198(6) -0.3556(6) 1.2636(10)
O23B O 0.4819(2) -0.3643(2) 0.7764(4)
C85B C 0.4459(4) -0.3641(4) 0.7765(7)
C86B C 0.4302(5) -0.3961(5) 0.7459(8)
O24B O 0.4554(2) -0.1625(2) 1.2749(3)
C87B C 0.4587(5) -0.1276(4) 1.2763(7)
C88B C 0.4202(5) -0.1177(5) 1.2498(9)
loop_
_geom_bond_atom_site_label_1
_geom_bond_atom_site_label_2
_geom_bond_site_symmetry_1
_geom_bond_site_symmetry_2
Zn1 O11 1_555 1_555
Zn2 O1 1_555 1_555
Zn3 O13 1_555 1_555
Zn4 O2 1_555 1_555
C1 C2 1_555 1_555
C2 C3 1_555 1_555
C3 C4 1_555 1_555
C4 H1 1_555 1_555
C5 C4 1_555 1_555
C6 C1 1_555 1_555
C7 C1 1_555 1_555
C8 C7 1_555 1_555
C9 C8 1_555 1_555
C10 C9 1_555 1_555
H2 C10 1_555 1_555
C11 C10 1_555 1_555
C12 C7 1_555 1_555
C13 C3 1_555 1_555
C14 C13 1_555 1_555
H3 C14 1_555 1_555
C15 C14 1_555 1_555
H4 C15 1_555 1_555
C16 C15 1_555 1_555
C17 C16 1_555 1_555
H5 C17 1_555 1_555
C18 C13 1_555 1_555
H6 C18 1_555 1_555
C19 C5 1_555 1_555
C20 C19 1_555 1_555
H7 C20 1_555 1_555
C21 C20 1_555 1_555
H8 C21 1_555 1_555
C22 C21 1_555 1_555
C23 C22 1_555 1_555
H9 C23 1_555 1_555
C24 C19 1_555 1_555
H10 C24 1_555 1_555
C25 C9 1_555 1_555
C26 C25 1_555 1_555
H11 C26 1_555 1_555
C27 C26 1_555 1_555
H12 C27 1_555 1_555
C28 C27 1_555 1_555
C29 C28 1_555 1_555
H13 C29 1_555 1_555
C30 C25 1_555 1_555
H14 C30 1_555 1_555
C31 C32 1_555 1_555
C32 C33 1_555 1_555
C33 C34 1_555 1_555
C34 H15 1_555 1_555
C35 C34 1_555 1_555
C36 C31 1_555 1_555
C37 C33 1_555 1_555
C38 C37 1_555 1_555
H16 C38 1_555 1_555
C39 C38 1_555 1_555
H17 C39 1_555 1_555
C40 C39 1_555 1_555
C41 C40 1_555 1_555
H18 C41 1_555 1_555
C42 C37 1_555 1_555
H19 C42 1_555 1_555
C43 C35 1_555 1_555
C44 C43 1_555 1_555
H20 C44 1_555 1_555
C45 C44 1_555 1_555
H21 C45 1_555 1_555
C46 C45 1_555 1_555
C47 C46 1_555 1_555
H22 C47 1_555 1_555
C48 C43 1_555 1_555
H23 C48 1_555 1_555
C49 C50 1_555 1_555
C50 C51 1_555 1_555
C51 C52 1_555 1_555
C52 H24 1_555 1_555
C53 C52 1_555 1_555
C54 C49 1_555 1_555
C55 C53 1_555 1_555
C56 C55 1_555 1_555
H25 C56 1_555 1_555
C57 C56 1_555 1_555
H26 C57 1_555 1_555
C58 C57 1_555 1_555
C59 C58 1_555 1_555
H27 C59 1_555 1_555
C60 C55 1_555 1_555
H28 C60 1_555 1_555
C61 C51 1_555 1_555
C62 C61 1_555 1_555
H29 C62 1_555 1_555
C63 C62 1_555 1_555
H30 C63 1_555 1_555
C64 C63 1_555 1_555
C65 C64 1_555 1_555
H31 C65 1_555 1_555
C66 C61 1_555 1_555
H32 C66 1_555 1_555
C67 C11 1_555 1_555
C68 C67 1_555 1_555
H33 C68 1_555 1_555
C69 C68 1_555 1_555
H34 C69 1_555 1_555
C70 C69 1_555 1_555
C71 C70 1_555 1_555
H35 C71 1_555 1_555
C72 C67 1_555 1_555
H36 C72 1_555 1_555
C73 C16 1_555 1_555
C74 C22 1_555 1_555
C75 C70 1_555 1_555
C76 C58 1_555 1_555
C77 C40 1_555 1_555
C78 C28 1_555 1_555
C79 C46 1_555 1_555
C80 C64 1_555 1_555
O1 C75 1_555 1_555
O2 C75 1_555 1_555
O3 C77 1_555 1_555
O4 C77 1_555 1_555
O5 C74 1_555 1_555
O6 C74 1_555 1_555
O7 Zn2 1_555 1_555
O8 Zn4 1_555 1_555
O9 C76 1_555 1_555
O10 C76 1_555 1_555
O11 C73 1_555 1_555
O12 C73 1_555 1_555
O13 C78 1_555 1_555
O14 C78 1_555 1_555
O15 Zn1 1_555 1_555
O16 C79 1_555 1_555
O17 Zn4 1_555 1_555
O18 Zn2 1_555 1_555
O19 Zn1 1_555 1_555
O20 Zn3 1_555 1_555
O21 C8 1_555 1_555
C81 O21 1_555 1_555
C82 C81 1_555 1_555
O22 C2 1_555 1_555
C83 O22 1_555 1_555
C84 C83 1_555 1_555
O23 C54 1_555 1_555
C85 O23 1_555 1_555
C86 C85 1_555 1_555
O24 C32 1_555 1_555
C87 O24 1_555 1_555
C88 C87 1_555 1_555
Zn1E O12 1_555 1_555
Zn1B O15B 1_555 1_555
Zn1G O16B 1_555 1_555
Zn2E O1E 1_555 1_555
Zn2B O3 1_555 1_555
Zn2F O6 1_555 1_555
Zn2_2 O3B 1_555 1_555
Zn2C O6E 1_555 1_555
Zn3E O9_2 1_555 1_555
Zn3E_2 O9 1_555 1_555
Zn3A O10 1_555 1_555
Zn3D O14 1_555 1_555
Zn3G O9B 1_555 1_555
Zn3C O10B 1_555 1_555
Zn3A_2 O14E 1_555 1_555
Zn4E O2E 1_555 1_555
Zn4B O4 1_555 1_555
Zn4F O5 1_555 1_555
Zn4_2 O4B 1_555 1_555
Zn4C O5E 1_555 1_555
C1E C2E 1_555 1_555
C2E C3E 1_555 1_555
C3E C4E 1_555 1_555
C4E H1E 1_555 1_555
C5E C4E 1_555 1_555
C6E C1E 1_555 1_555
C7E C1E 1_555 1_555
C8E C7E 1_555 1_555
C9E C8E 1_555 1_555
C10E C9E 1_555 1_555
H2E C10E 1_555 1_555
C11E C10E 1_555 1_555
C12E C7E 1_555 1_555
C13E C3E 1_555 1_555
C14E C13E 1_555 1_555
H3E C14E 1_555 1_555
C15E C14E 1_555 1_555
H4E C15E 1_555 1_555
C16E C15E 1_555 1_555
C17E C16E 1_555 1_555
H5E C17E 1_555 1_555
C18E C13E 1_555 1_555
H6E C18E 1_555 1_555
C19E C5E 1_555 1_555
C20E C19E 1_555 1_555
H7E C20E 1_555 1_555
C21E C20E 1_555 1_555
H8E C21E 1_555 1_555
C22E C21E 1_555 1_555
C23E C22E 1_555 1_555
H9E C23E 1_555 1_555
C24E C19E 1_555 1_555
H10E C24E 1_555 1_555
C25E C9E 1_555 1_555
C26E C25E 1_555 1_555
H11E C26E 1_555 1_555
C27E C26E 1_555 1_555
H12E C27E 1_555 1_555
C28E C27E 1_555 1_555
C29E C28E 1_555 1_555
H13E C29E 1_555 1_555
C30E C25E 1_555 1_555
H14E C30E 1_555 1_555
C31B C31 1_555 1_555
C32B C31B 1_555 1_555
C33B C32B 1_555 1_555
C34B C33B 1_555 1_555
H15B C34B 1_555 1_555
C35B C34B 1_555 1_555
C36B C31B 1_555 1_555
C37B C33B 1_555 1_555
C38B C37B 1_555 1_555
H16B C38B 1_555 1_555
C39B C38B 1_555 1_555
H17B C39B 1_555 1_555
C40B C39B 1_555 1_555
C41B C40B 1_555 1_555
H18B C41B 1_555 1_555
C42B C37B 1_555 1_555
H19B C42B 1_555 1_555
C43B C35B 1_555 1_555
C44B C43B 1_555 1_555
H20B C44B 1_555 1_555
C45B C44B 1_555 1_555
H21B C45B 1_555 1_555
C46B C45B 1_555 1_555
C47B C46B 1_555 1_555
H22B C47B 1_555 1_555
C48B C43B 1_555 1_555
H23B C48B 1_555 1_555
C49B C49 1_555 1_555
C50B C49B 1_555 1_555
C51B C50B 1_555 1_555
C52B C51B 1_555 1_555
H24B C52B 1_555 1_555
C53B C52B 1_555 1_555
C54B C49B 1_555 1_555
C55B C53B 1_555 1_555
C56B C55B 1_555 1_555
H25B C56B 1_555 1_555
C57B C56B 1_555 1_555
H26B C57B 1_555 1_555
C58B C57B 1_555 1_555
C59B C58B 1_555 1_555
H27B C59B 1_555 1_555
C60B C55B 1_555 1_555
H28B C60B 1_555 1_555
C61B C51B 1_555 1_555
C62B C61B 1_555 1_555
H29B C62B 1_555 1_555
C63B C62B 1_555 1_555
H30B C63B 1_555 1_555
C64B C63B 1_555 1_555
C65B C64B 1_555 1_555
H31B C65B 1_555 1_555
C66B C61B 1_555 1_555
H32B C66B 1_555 1_555
C67E C11E 1_555 1_555
C68E C67E 1_555 1_555
H33E C68E 1_555 1_555
C69E C68E 1_555 1_555
H34E C69E 1_555 1_555
C70E C69E 1_555 1_555
C71E C70E 1_555 1_555
H35E C71E 1_555 1_555
C72E C67E 1_555 1_555
H36E C72E 1_555 1_555
C73E C16E 1_555 1_555
C74E C22E 1_555 1_555
C75E C70E 1_555 1_555
C76B C58B 1_555 1_555
C77B C40B 1_555 1_555
C78E C28E 1_555 1_555
C79B C46B 1_555 1_555
C80B C64B 1_555 1_555
O1E C75E 1_555 1_555
O2E C75E 1_555 1_555
O3B C77B 1_555 1_555
O3B_2 Zn2 1_555 1_555
O3G Zn2E 1_555 1_555
O4B C77B 1_555 1_555
O4B_2 Zn4 1_555 1_555
O4G Zn4E 1_555 1_555
O5E C74E 1_555 1_555
O5F Zn4 1_555 1_555
O5C Zn4E 1_555 1_555
O6E C74E 1_555 1_555
O6F Zn2 1_555 1_555
O6C Zn2E 1_555 1_555
O7B Zn2B 1_555 1_555
O7E Zn2E 1_555 1_555
O8B Zn4B 1_555 1_555
O8E Zn4E 1_555 1_555
O9B C76B 1_555 1_555
O9E Zn3 1_555 1_555
O10B C76B 1_555 1_555
O10A Zn3 1_555 1_555
O10D Zn3E 1_555 1_555
O11E Zn1E 1_555 1_555
O12E Zn1 1_555 1_555
O13E Zn3E 1_555 1_555
O14E C78E 1_555 1_555
O14D Zn3 1_555 1_555
O14A Zn3E 1_555 1_555
O15B C79B 1_555 1_555
O15E Zn1E 1_555 1_555
O16B C79B 1_555 1_555
O16E Zn1 1_555 1_555
O17E Zn4E 1_555 1_555
O18E Zn2E 1_555 1_555
O19E Zn1E 1_555 1_555
O20E Zn3E 1_555 1_555
O21E C8E 1_555 1_555
C81E O21E 1_555 1_555
C82E C81E 1_555 1_555
O22E C2E 1_555 1_555
C83E O22E 1_555 1_555
C84E C83E 1_555 1_555
O23B C54B 1_555 1_555
C85B O23B 1_555 1_555
C86B C85B 1_555 1_555
O24B C32B 1_555 1_555
C87B O24B 1_555 1_555
C88B C87B 1_555 1_555
C5 C6 1_555 1_555
C11 C12 1_555 1_555
C17 C18 1_555 1_555
C23 C24 1_555 1_555
C29 C30 1_555 1_555
C35 C36 1_555 1_555
C41 C42 1_555 1_555
C47 C48 1_555 1_555
C53 C54 1_555 1_555
C59 C60 1_555 1_555
C65 C66 1_555 1_555
C71 C72 1_555 1_555
C79 O15 1_555 1_555
C80 O7 1_555 1_555
C80 O8 1_555 1_555
O16 Zn1E 1_555 1_555
C5E C6E 1_555 1_555
C11E C12E 1_555 1_555
C17E C18E 1_555 1_555
C23E C24E 1_555 1_555
C29E C30E 1_555 1_555
C35B C36B 1_555 1_555
C41B C42B 1_555 1_555
C47B C48B 1_555 1_555
C53B C54B 1_555 1_555
C59B C60B 1_555 1_555
C65B C66B 1_555 1_555
C71E C72E 1_555 1_555
C73E O11E 1_555 1_555
C73E O12E 1_555 1_555
C78E O13E 1_555 1_555
C80B O7B 1_555 1_555
C80B O8B 1_555 1_555

#END
