
#######################################################################
#
#                 Cambridge Crystallographic Data Centre
#                                CCDC 
#
#######################################################################
#
# If this CIF has been generated from an entry in the Cambridge 
# Structural Database, then it will include bibliographic, chemical, 
# crystal, experimental, refinement or atomic coordinate data resulting 
# from the CCDC's data processing and validation procedures.
#
#######################################################################

data_GIRXUC
_chemical_formula_moiety         '(C18 H26 N3 O10 Zn2)n'
_symmetry_cell_setting           cubic
_symmetry_space_group_name_H-M   'P 21 3'
_symmetry_Int_Tables_number      198
_space_group_name_Hall           'P 2ac 2ab 3'
loop_
_symmetry_equiv_pos_site_id
_symmetry_equiv_pos_as_xyz
1 x,y,z
2 1/2-x,-y,1/2+z
3 1/2+x,1/2-y,-z
4 -x,1/2+y,1/2-z
5 z,x,y
6 1/2-z,-x,1/2+y
7 1/2+z,1/2-x,-y
8 -z,1/2+x,1/2-y
9 y,z,x
10 1/2+y,1/2-z,-x
11 -y,1/2+z,1/2-x
12 1/2-y,-z,1/2+x
_cell_length_a                   14.2941(8)
_cell_length_b                   14.2941(8)
_cell_length_c                   14.2941(8)
_cell_angle_alpha                90
_cell_angle_beta                 90
_cell_angle_gamma                90
_cell_volume                     2920.59
loop_
_atom_site_label
_atom_site_type_symbol
_atom_site_fract_x
_atom_site_fract_y
_atom_site_fract_z
_atom_site_U_iso_or_equiv
_atom_site_thermal_displace_type
C1 C 0.3486(3) 0.8944(3) 0.5165(3) 0.0623 Uani
C2 C 0.4255(3) 0.8328(3) 0.5317(3) 0.0656 Uani
H1 H 0.4359 0.7826 0.4917 0.0790 Uiso
C3 C 0.2792(4) 0.8764(3) 0.4391(3) 0.0760 Uani
C4 C 0.1254(6) 0.9532(9) 0.7918(7) 0.1837 Uani
H2 H 0.0943 0.9379 0.8493 0.2760 Uiso
H3 H 0.1664 1.0054 0.8018 0.2760 Uiso
H4 H 0.1611 0.9003 0.7709 0.2760 Uiso
C5 C 0.0725(8) 1.0671(7) 0.6870(8) 0.1797 Uani
H5 H 0.0177 1.1042 0.6981 0.2700 Uiso
H6 H 0.0836 1.0627 0.6209 0.2700 Uiso
H7 H 0.1255 1.0958 0.7167 0.2700 Uiso
C6 C 0.0841(9) 0.9294(9) 0.6448(5) 0.1767 Uani
H8 H 0.1098 0.8736 0.6664 0.2120 Uiso
N1 N 0.0590(6) 0.9765(7) 0.7241(5) 0.1777 Uani
O1 O 0.2990(2) 0.8071(2) 0.3855(2) 0.0789 Uani
O2 O 0.3003(5) 0.6997(5) 0.1997(5) 0.1830 Uani
O3 O 0.2178(3) 0.9326(2) 0.4254(3) 0.0844 Uani
O4 O 0.0893(10) 0.9244(11) 0.5665(6) 0.1527 Uani
Zn1 Zn 0.22027(3) 0.77973(3) 0.27973(3) 0.0613 Uani
Zn2 Zn 0.07348(4) 0.92652(4) 0.42652(4) 0.0818 Uani
C1G C 0.4835(3) 0.8486(3) 0.6056(3) 0.0623 Uani
C2G C 0.4683(3) 0.9255(3) 0.6672(3) 0.0656 Uani
H1G H 0.5083 0.9359 0.7174 0.0790 Uiso
C3G C 0.5609(3) 0.7792(4) 0.6236(3) 0.0760 Uani
O1G O 0.6145(2) 0.7990(2) 0.6929(2) 0.0789 Uani
O3G O 0.5746(3) 0.7178(3) 0.5674(2) 0.0844 Uani
C1I C 0.3944(3) 0.9835(3) 0.6514(3) 0.0623 Uani
C2I C 0.3328(3) 0.9683(3) 0.5745(3) 0.0656 Uani
H1I H 0.2826 1.0083 0.5641 0.0790 Uiso
C3I C 0.3764(3) 1.0609(3) 0.7208(4) 0.0760 Uani
O1I O 0.3071(2) 1.1145(2) 0.7010(2) 0.0789 Uani
O3I O 0.4326(2) 1.0746(3) 0.7822(3) 0.0844 Uani
C4E C -0.2918(7) 0.8746(6) 0.4532(9) 0.1837 Uani
H2E H -0.3493 0.9057 0.4379 0.2760 Uiso
H3E H -0.3018 0.8336 0.5054 0.2760 Uiso
H4E H -0.2709 0.8389 0.4003 0.2760 Uiso
C5E C -0.1870(8) 0.9275(8) 0.5671(7) 0.1797 Uani
H5E H -0.1981 0.9823 0.6042 0.2700 Uiso
H6E H -0.1209 0.9164 0.5627 0.2700 Uiso
H7E H -0.2167 0.8745 0.5958 0.2700 Uiso
C6E C -0.1448(5) 0.9159(9) 0.4294(9) 0.1767 Uani
H8E H -0.1664 0.8902 0.3736 0.2120 Uiso
N1E N -0.2241(5) 0.9410(6) 0.4765(7) 0.1777 Uani
O4E O -0.0665(6) 0.9107(10) 0.4244(11) 0.1527 Uani
C4J C 0.0468(9) 1.2918(7) 0.3746(6) 0.1837 Uani
H2J H 0.0621 1.3493 0.4057 0.2760 Uiso
H3J H -0.0054 1.3018 0.3336 0.2760 Uiso
H4J H 0.0997 1.2709 0.3389 0.2760 Uiso
C5J C -0.0671(7) 1.1870(8) 0.4275(8) 0.1797 Uani
H5J H -0.1042 1.1981 0.4823 0.2700 Uiso
H6J H -0.0627 1.1209 0.4164 0.2700 Uiso
H7J H -0.0958 1.2167 0.3745 0.2700 Uiso
C6J C 0.0706(9) 1.1448(5) 0.4159(9) 0.1767 Uani
H8J H 0.1264 1.1664 0.3902 0.2120 Uiso
N1J N 0.0235(7) 1.2241(5) 0.4410(6) 0.1777 Uani
O4J O 0.0756(11) 1.0665(6) 0.4107(10) 0.1527 Uani
O1E O 0.1145(2) 0.7010(2) 0.3071(2) 0.0789 Uani
O1J O 0.1929(2) 0.8855(2) 0.2010(2) 0.0789 Uani
O3E O 0.0746(3) 0.7822(3) 0.4326(2) 0.0844 Uani
O3J O 0.0674(2) 0.9254(3) 0.2822(3) 0.0844 Uani
Zn1A Zn 0.27973(3) 1.22027(3) 0.77973(3) 0.0613 Uani
Zn1B Zn 0.72027(3) 0.72027(3) 0.72027(3) 0.0613 Uani
Zn2A Zn 0.42652(4) 1.07348(4) 0.92652(4) 0.0818 Uani
Zn2B Zn 0.57348(4) 0.57348(4) 0.57348(4) 0.0818 Uani
loop_
_atom_site_aniso_label
_atom_site_aniso_U_11
_atom_site_aniso_U_22
_atom_site_aniso_U_33
_atom_site_aniso_U_23
_atom_site_aniso_U_13
_atom_site_aniso_U_12
C1 0.0674(19) 0.0546(18) 0.065(2) 0.0035(16) -0.0078(17) 0.0001(16)
C2 0.076(2) 0.063(2) 0.0579(18) 0.0017(17) 0.0067(19) 0.0017(19)
C3 0.092(2) 0.0699(19) 0.066(2) 0.0044(18) 0.001(2) -0.003(2)
C4 0.183(3) 0.230(3) 0.138(3) -0.011(3) 0.002(3) -0.037(3)
C5 0.175(3) 0.225(3) 0.139(3) -0.012(3) 0.005(3) -0.031(3)
C6 0.172(3) 0.226(3) 0.132(3) -0.013(3) 0.011(3) -0.036(3)
N1 0.176(3) 0.228(3) 0.129(3) -0.014(3) 0.008(3) -0.037(3)
O1 0.084(2) 0.0756(19) 0.0772(19) -0.0038(16) -0.0163(16) -0.0003(16)
O2 0.183(5) 0.183(5) 0.183(5) -0.040(4) 0.040(4) 0.040(4)
O3 0.0698(16) 0.0773(18) 0.106(2) 0.0032(19) -0.0261(18) -0.0008(16)
O4 0.157(3) 0.199(3) 0.102(3) -0.020(3) 0.008(3) -0.032(3)
Zn1 0.06126(18) 0.06126(18) 0.06126(18) -0.0005(2) 0.0005(2) 0.0005(2)
Zn2 0.0818(3) 0.0818(3) 0.0818(3) -0.0126(3) 0.0126(3) 0.0126(3)
C1G 0.065 0.0674 0.0546 -0.0001 0.0035 0.0078
C2G 0.0579 0.076 0.063 -0.0017 0.0017 -0.0067
C3G 0.066 0.092 0.0699 0.003 0.0044 -0.001
O1G 0.0772 0.084 0.0756 0.0003 -0.0038 0.0163
O3G 0.106 0.0698 0.0773 0.0008 0.0032 0.0261
C1I 0.0546 0.065 0.0674 -0.0078 -0.0001 -0.0035
C2I 0.063 0.0579 0.076 0.0067 -0.0017 -0.0017
C3I 0.0699 0.066 0.092 0.001 0.003 -0.0044
O1I 0.0756 0.0772 0.084 -0.0163 0.0003 0.0038
O3I 0.0773 0.106 0.0698 -0.0261 0.0008 -0.0032
C4E 0.138 0.183 0.23 0.037 0.011 0.002
C5E 0.139 0.175 0.225 0.031 0.012 0.005
C6E 0.132 0.172 0.226 0.036 0.013 0.011
N1E 0.129 0.176 0.228 0.037 0.014 0.008
O4E 0.102 0.157 0.199 0.032 0.02 0.008
C4J 0.23 0.138 0.183 -0.002 -0.037 0.011
C5J 0.225 0.139 0.175 -0.005 -0.031 0.012
C6J 0.226 0.132 0.172 -0.011 -0.036 0.013
N1J 0.228 0.129 0.176 -0.008 -0.037 0.014
O4J 0.199 0.102 0.157 -0.008 -0.032 0.02
O1E 0.0772 0.084 0.0756 0.0003 0.0038 -0.0163
O1J 0.0756 0.0772 0.084 0.0163 -0.0003 0.0038
O3E 0.106 0.0698 0.0773 0.0008 -0.0032 -0.0261
O3J 0.0773 0.106 0.0698 0.0261 -0.0008 -0.0032
Zn1A 0.06126 0.06126 0.06126 0.0005 -0.0005 0.0005
Zn1B 0.06126 0.06126 0.06126 -0.0005 -0.0005 -0.0005
Zn2A 0.0818 0.0818 0.0818 0.0126 -0.0126 0.0126
Zn2B 0.0818 0.0818 0.0818 -0.0126 -0.0126 -0.0126
loop_
_geom_bond_atom_site_label_1
_geom_bond_atom_site_label_2
_geom_bond_site_symmetry_1
_geom_bond_site_symmetry_2
C1 C2 1_555 1_555
C2 H1 1_555 1_555
C3 C1 1_555 1_555
C4 H2 1_555 1_555
H3 C4 1_555 1_555
H4 C4 1_555 1_555
C5 H5 1_555 1_555
H6 C5 1_555 1_555
H7 C5 1_555 1_555
C6 H8 1_555 1_555
N1 C4 1_555 1_555
O1 C3 1_555 1_555
O2 Zn1 1_555 1_555
O3 C3 1_555 1_555
O4 C6 1_555 1_555
Zn1 O1 1_555 1_555
Zn2 O3 1_555 1_555
C1G C2 1_555 1_555
C2G C1G 1_555 1_555
H1G C2G 1_555 1_555
C3G C1G 1_555 1_555
O1G C3G 1_555 1_555
O3G C3G 1_555 1_555
C1I C2G 1_555 1_555
C2I C1 1_555 1_555
H1I C2I 1_555 1_555
C3I C1I 1_555 1_555
O1I C3I 1_555 1_555
O3I C3I 1_555 1_555
C4E H2E 1_555 1_555
H3E C4E 1_555 1_555
H4E C4E 1_555 1_555
C5E H5E 1_555 1_555
H6E C5E 1_555 1_555
H7E C5E 1_555 1_555
C6E H8E 1_555 1_555
N1E C4E 1_555 1_555
O4E Zn2 1_555 1_555
C4J H2J 1_555 1_555
H3J C4J 1_555 1_555
H4J C4J 1_555 1_555
C5J H5J 1_555 1_555
H6J C5J 1_555 1_555
H7J C5J 1_555 1_555
C6J H8J 1_555 1_555
N1J C4J 1_555 1_555
O4J Zn2 1_555 1_555
O1E Zn1 1_555 1_555
O1J Zn1 1_555 1_555
O3E Zn2 1_555 1_555
O3J Zn2 1_555 1_555
Zn1A O1I 1_555 1_555
Zn1B O1G 1_555 1_555
Zn2A O3I 1_555 1_555
Zn2B O3G 1_555 1_555
C5 N1 1_555 1_555
C6 N1 1_555 1_555
O4 Zn2 1_555 1_555
C1I C2I 1_555 1_555
C5E N1E 1_555 1_555
C6E N1E 1_555 1_555
C6E O4E 1_555 1_555
C5J N1J 1_555 1_555
C6J N1J 1_555 1_555
C6J O4J 1_555 1_555

#END
