
#######################################################################
#
#                 Cambridge Crystallographic Data Centre
#                                CCDC 
#
#######################################################################
#
# If this CIF has been generated from an entry in the Cambridge 
# Structural Database, then it will include bibliographic, chemical, 
# crystal, experimental, refinement or atomic coordinate data resulting 
# from the CCDC's data processing and validation procedures.
#
#######################################################################

data_GIXGOK
_chemical_formula_moiety         '(C10 H24 Cd1 N4 O13)n'
_symmetry_cell_setting           cubic
_symmetry_space_group_name_H-M   'I m -3 m'
_symmetry_Int_Tables_number      229
_space_group_name_Hall           '-I 4 2 3'
loop_
_symmetry_equiv_pos_site_id
_symmetry_equiv_pos_as_xyz
1 x,y,z
2 z,x,y
3 y,z,x
4 y,x,-z
5 y,-x,z
6 -y,x,z
7 x,z,-y
8 -x,z,y
9 x,-z,y
10 z,y,-x
11 z,-y,x
12 -z,y,x
13 1/2+x,1/2+y,1/2+z
14 1/2+z,1/2+x,1/2+y
15 1/2+y,1/2+z,1/2+x
16 1/2+y,1/2+x,1/2-z
17 1/2+y,1/2-x,1/2+z
18 1/2-y,1/2+x,1/2+z
19 1/2+x,1/2+z,1/2-y
20 1/2-x,1/2+z,1/2+y
21 1/2+x,1/2-z,1/2+y
22 1/2+z,1/2+y,1/2-x
23 1/2+z,1/2-y,1/2+x
24 1/2-z,1/2+y,1/2+x
25 -x,-y,z
26 -x,y,-z
27 x,-y,-z
28 z,-x,-y
29 -z,-x,y
30 -z,x,-y
31 -y,z,-x
32 y,-z,-x
33 -y,-z,x
34 -y,-x,-z
35 -x,-z,-y
36 -z,-y,-x
37 1/2-x,1/2-y,1/2+z
38 1/2-x,1/2+y,1/2-z
39 1/2+x,1/2-y,1/2-z
40 1/2+z,1/2-x,1/2-y
41 1/2-z,1/2-x,1/2+y
42 1/2-z,1/2+x,1/2-y
43 1/2-y,1/2+z,1/2-x
44 1/2+y,1/2-z,1/2-x
45 1/2-y,1/2-z,1/2+x
46 1/2-y,1/2-x,1/2-z
47 1/2-x,1/2-z,1/2-y
48 1/2-z,1/2-y,1/2-x
49 -x,-y,-z
50 -z,-x,-y
51 -y,-z,-x
52 -y,-x,z
53 -y,x,-z
54 y,-x,-z
55 -x,-z,y
56 x,-z,-y
57 -x,z,-y
58 -z,-y,x
59 -z,y,-x
60 z,-y,-x
61 1/2-x,1/2-y,1/2-z
62 1/2-z,1/2-x,1/2-y
63 1/2-y,1/2-z,1/2-x
64 1/2-y,1/2-x,1/2+z
65 1/2-y,1/2+x,1/2-z
66 1/2+y,1/2-x,1/2-z
67 1/2-x,1/2-z,1/2+y
68 1/2+x,1/2-z,1/2-y
69 1/2-x,1/2+z,1/2-y
70 1/2-z,1/2-y,1/2+x
71 1/2-z,1/2+y,1/2-x
72 1/2+z,1/2-y,1/2-x
73 x,y,-z
74 x,-y,z
75 -x,y,z
76 -z,x,y
77 z,x,-y
78 z,-x,y
79 y,-z,x
80 -y,z,x
81 y,z,-x
82 y,x,z
83 x,z,y
84 z,y,x
85 1/2+x,1/2+y,1/2-z
86 1/2+x,1/2-y,1/2+z
87 1/2-x,1/2+y,1/2+z
88 1/2-z,1/2+x,1/2+y
89 1/2+z,1/2+x,1/2-y
90 1/2+z,1/2-x,1/2+y
91 1/2+y,1/2-z,1/2+x
92 1/2-y,1/2+z,1/2+x
93 1/2+y,1/2+z,1/2-x
94 1/2+y,1/2+x,1/2+z
95 1/2+x,1/2+z,1/2+y
96 1/2+z,1/2+y,1/2+x
_cell_length_a                   30.1740(10)
_cell_length_b                   30.1740(10)
_cell_length_c                   30.1740(10)
_cell_angle_alpha                90
_cell_angle_beta                 90
_cell_angle_gamma                90
_cell_volume                     27472.5
loop_
_atom_site_label
_atom_site_type_symbol
_atom_site_fract_x
_atom_site_fract_y
_atom_site_fract_z
_atom_site_U_iso_or_equiv
_atom_site_thermal_displace_type
Cd1 Cd 0.10487(2) 0.2500 0.39513(2) 0.0599 Uani
C1 C 0.0000 0.2290(4) 0.3825(4) 0.0617 Uani
C2 C 0.0000 0.2755(4) 0.4031(3) 0.0557 Uani
C3 C 0.0394(3) 0.3343(3) 0.4288(3) 0.0677 Uani
H1 H 0.0663 0.3481 0.4350 0.0810 Uiso
C4 C 0.0000 0.3561(4) 0.4384(4) 0.0683 Uani
H2 H 0.0000 0.3844 0.4508 0.0820 Uiso
C5 C 0.1636(3) 0.1636(3) 0.3760(3) 0.0570 Uani
C6 C 0.1975(3) 0.1975(3) 0.3939(4) 0.0567 Uani
C7 C 0.2118(3) 0.2680(3) 0.4148(3) 0.0860 Uani
H3 H 0.2028 0.2971 0.4198 0.1030 Uiso
C8 C 0.2553(3) 0.2553(3) 0.4220(5) 0.0947 Uani
H4 H 0.2761 0.2761 0.4316 0.1130 Uiso
N1 N 0.0393(2) 0.2934(2) 0.4106(2) 0.0593 Uani
N2 N 0.1832(2) 0.2381(2) 0.4009(2) 0.0703 Uani
O1 O 0.03698(16) 0.21146(16) 0.37510(17) 0.0657 Uani
O2 O 0.12535(17) 0.17734(15) 0.36993(17) 0.0613 Uani
Cd1VB Cd -0.10487(2) 0.2500 0.39513(2) 0.0599 Uani
Cd1CC Cd 0.2500 0.10487(2) 0.39513(2) 0.0599 Uani
C3VB C -0.0394(3) 0.3343(3) 0.4288(3) 0.0677 Uani
H1VB H -0.0663 0.3481 0.4350 0.0810 Uiso
C7CC C 0.2680(3) 0.2118(3) 0.4148(3) 0.0860 Uani
H3CC H 0.2971 0.2028 0.4198 0.1030 Uiso
N1UA N 0.0894(2) 0.2066(2) 0.4607(2) 0.0593 Uani
N1VB N -0.0393(2) 0.2934(2) 0.4106(2) 0.0593 Uani
N2UA N 0.0991(2) 0.2619(2) 0.3168(2) 0.0703 Uani
N2CC N 0.2381(2) 0.1832(2) 0.4009(2) 0.0703 Uani
O1UA O 0.12490(17) 0.28854(16) 0.46302(16) 0.0657 Uani
O1VB O -0.03698(16) 0.21146(16) 0.37510(17) 0.0657 Uani
O2UA O 0.13007(17) 0.32266(15) 0.37465(17) 0.0613 Uani
O2CC O 0.17734(15) 0.12535(17) 0.36993(17) 0.0613 Uani
O3 O 0.2500 0.2500 0.2500 0.1800 Uiso
O4 O 0.2073(13) 0.2073(13) 0.2777(17) 0.2300 Uiso
O5 O 0.0000 -0.0000 0.304(2) 0.2200 Uiso
O6 O -0.0539(5) 0.0539(5) 0.4302(7) 0.1270 Uiso
O7 O 0.0000 0.090(3) 0.403(4) 0.3200 Uiso
O8 O 0.0452(7) 0.1203(6) 0.3507(7) 0.1740 Uiso
O9 O 0.157(2) 0.157(2) 0.246(3) 0.3200 Uiso
O10 O 0.1126(15) 0.1126(15) 0.241(2) 0.1700 Uiso
O11 O 0.2663(14) 0.3647(15) 0.4508(14) 0.2130 Uiso
loop_
_atom_site_aniso_label
_atom_site_aniso_U_11
_atom_site_aniso_U_22
_atom_site_aniso_U_33
_atom_site_aniso_U_23
_atom_site_aniso_U_13
_atom_site_aniso_U_12
Cd1 0.0638(5) 0.0521(6) 0.0638(5) -0.0019(3) -0.0032(5) -0.0019(3)
C1 0.069(10) 0.063(10) 0.053(8) 0.018(7) 0.000 0.000
C2 0.081(10) 0.034(8) 0.052(8) -0.002(6) 0.000 0.000
C3 0.073(7) 0.058(6) 0.072(6) -0.005(5) -0.007(5) -0.004(5)
C4 0.088(10) 0.045(8) 0.072(9) -0.004(6) 0.000 0.000
C5 0.061(5) 0.061(5) 0.049(8) 0.009(5) 0.009(5) 0.003(8)
C6 0.055(4) 0.055(4) 0.060(8) 0.000(5) 0.000(5) -0.005(7)
C7 0.067(7) 0.059(6) 0.132(9) 0.000(6) -0.010(6) -0.016(6)
C8 0.081(7) 0.081(7) 0.122(13) -0.013(6) -0.013(6) -0.032(9)
N1 0.063(5) 0.040(4) 0.075(5) -0.009(4) -0.006(4) -0.002(4)
N2 0.065(5) 0.055(5) 0.091(5) 0.002(4) -0.004(4) -0.002(4)
O1 0.055(4) 0.053(3) 0.089(4) -0.011(3) -0.004(3) 0.002(3)
O2 0.056(4) 0.050(4) 0.078(4) -0.007(3) -0.001(3) 0.009(3)
Cd1VB 0.0638 0.0521 0.0638 -0.0019 0.0032 0.0019
Cd1CC 0.0521 0.0638 0.0638 -0.0032 -0.0019 -0.0019
C3VB 0.073 0.058 0.072 -0.005 0.007 0.004
C7CC 0.059 0.067 0.132 -0.01 0 -0.016
N1UA 0.075 0.04 0.063 -0.002 -0.006 -0.009
N1VB 0.063 0.04 0.075 -0.009 0.006 0.002
N2UA 0.091 0.055 0.065 -0.002 -0.004 0.002
N2CC 0.055 0.065 0.091 -0.004 0.002 -0.002
O1UA 0.089 0.053 0.055 0.002 -0.004 -0.011
O1VB 0.055 0.053 0.089 -0.011 0.004 -0.002
O2UA 0.078 0.05 0.056 0.009 -0.001 -0.007
O2CC 0.05 0.056 0.078 -0.001 -0.007 0.009
loop_
_geom_bond_atom_site_label_1
_geom_bond_atom_site_label_2
_geom_bond_site_symmetry_1
_geom_bond_site_symmetry_2
Cd1 N1 1_555 1_555
C1 C2 1_555 1_555
C2 N1 1_555 1_555
C3 H1 1_555 1_555
C4 C3 1_555 1_555
H2 C4 1_555 1_555
C5 C6 1_555 1_555
C6 N2 1_555 1_555
C7 H3 1_555 1_555
C8 C7 1_555 1_555
H4 C8 1_555 1_555
N1 C3 1_555 1_555
N2 Cd1 1_555 1_555
O1 Cd1 1_555 1_555
O2 Cd1 1_555 1_555
Cd1VB N1VB 1_555 1_555
Cd1CC N2CC 1_555 1_555
C3VB C4 1_555 1_555
H1VB C3VB 1_555 1_555
C7CC C8 1_555 1_555
H3CC C7CC 1_555 1_555
N1UA Cd1 1_555 1_555
N1VB C2 1_555 1_555
N2UA Cd1 1_555 1_555
N2CC C6 1_555 1_555
O1UA Cd1 1_555 1_555
O1VB C1 1_555 1_555
O2UA Cd1 1_555 1_555
O2CC C5 1_555 1_555
C1 O1 1_555 1_555
C5 O2 1_555 1_555
C7 N2 1_555 1_555
Cd1VB O1VB 1_555 1_555
Cd1CC O2CC 1_555 1_555
C3VB N1VB 1_555 1_555
C7CC N2CC 1_555 1_555

#END
