
#######################################################################
#
#                 Cambridge Crystallographic Data Centre
#                                CCDC 
#
#######################################################################
#
# If this CIF has been generated from an entry in the Cambridge 
# Structural Database, then it will include bibliographic, chemical, 
# crystal, experimental, refinement or atomic coordinate data resulting 
# from the CCDC's data processing and validation procedures.
#
#######################################################################

data_AJIGIL
_chemical_formula_moiety         '(C71 H125 Br1 Co1 N22 Na2 O27 P1)n'
_symmetry_cell_setting           orthorhombic
_symmetry_space_group_name_H-M   'P 21 21 21'
_symmetry_Int_Tables_number      19
_space_group_name_Hall           'P 2ac 2ab'
loop_
_symmetry_equiv_pos_site_id
_symmetry_equiv_pos_as_xyz
1 x,y,z
2 1/2-x,-y,1/2+z
3 1/2+x,1/2-y,-z
4 -x,1/2+y,1/2-z
_cell_length_a                   15.3745(4)
_cell_length_b                   23.4023(6)
_cell_length_c                   25.3443(7)
_cell_angle_alpha                90
_cell_angle_beta                 90
_cell_angle_gamma                90
_cell_volume                     9118.85
loop_
_atom_site_label
_atom_site_type_symbol
_atom_site_fract_x
_atom_site_fract_y
_atom_site_fract_z
_atom_site_U_iso_or_equiv
_atom_site_thermal_displace_type
Br1 Br 0.39305(6) 0.62701(3) 0.76485(4) 0.0465 Uani
C1 C 0.3459(5) 0.5533(3) 0.7521(3) 0.0247 Uani
C2 C 0.2580(5) 0.5526(3) 0.7429(3) 0.0270 Uani
C3 C 0.4007(5) 0.5054(3) 0.7590(3) 0.0223 Uani
C4 C 0.1996(4) 0.6043(3) 0.7406(3) 0.0267 Uani
N1 N 0.2084(3) 0.5041(2) 0.7386(2) 0.0187 Uani
C5 C 0.4908(5) 0.5042(3) 0.7841(3) 0.0293 Uani
N2 N 0.3735(3) 0.4523(2) 0.7498(2) 0.0165 Uiso
C6 C 0.1165(4) 0.5786(2) 0.7685(3) 0.0223 Uani
H1 H 0.2244 0.6363 0.7620 0.0320 Uiso
C7 C 0.1801(5) 0.6242(3) 0.6845(3) 0.0240 Uani
C8 C 0.1219(5) 0.5171(3) 0.7492(3) 0.0277 Uani
Co1 Co 0.25556(6) 0.42933(4) 0.73348(4) 0.0194 Uani
C9 C 0.5258(4) 0.4475(3) 0.7618(3) 0.0273 Uani
C10 C 0.5562(4) 0.5527(3) 0.7776(3) 0.0437 Uani
C11 C 0.4752(5) 0.4958(3) 0.8445(3) 0.0420 Uani
C12 C 0.4416(4) 0.4123(3) 0.7541(3) 0.0243 Uani
C13 C 0.1318(5) 0.5766(3) 0.8297(3) 0.0280 Uani
C14 C 0.0338(4) 0.6132(3) 0.7551(3) 0.0307 Uani
H2 H 0.1449 0.5945 0.6667 0.0290 Uiso
H3 H 0.1443 0.6593 0.6865 0.0290 Uiso
C15 C 0.2592(5) 0.6366(3) 0.6508(3) 0.0370 Uani
C16 C 0.0552(5) 0.4784(3) 0.7461(3) 0.0213 Uani
N3 N 0.1428(4) 0.3988(2) 0.7183(2) 0.0148 Uiso
N4 N 0.2277(4) 0.4239(3) 0.8081(3) 0.0317 Uani
N5 N 0.2876(3) 0.3515(2) 0.7316(2) 0.0173 Uani
N6 N 0.2815(4) 0.4423(2) 0.6581(2) 0.0220 Uani
H4 H 0.5655 0.4285 0.7876 0.0320 Uiso
C17 C 0.5692(5) 0.4525(3) 0.7073(3) 0.0360 Uani
H5 H 0.6137 0.5398 0.7893 0.0650 Uiso
H6 H 0.5379 0.5855 0.7989 0.0650 Uiso
H7 H 0.5590 0.5639 0.7404 0.0650 Uiso
H8 H 0.5311 0.4902 0.8623 0.0630 Uiso
H9 H 0.4383 0.4622 0.8502 0.0630 Uiso
H10 H 0.4463 0.5297 0.8590 0.0630 Uiso
C18 C 0.4410(5) 0.3552(3) 0.7485(3) 0.0240 Uani
H11 H 0.0867 0.5521 0.8461 0.0330 Uiso
H12 H 0.1891 0.5590 0.8369 0.0330 Uiso
C19 C 0.1289(6) 0.6351(3) 0.8550(3) 0.0353 Uani
H13 H 0.0162 0.6052 0.7187 0.0460 Uiso
H14 H 0.0459 0.6541 0.7589 0.0460 Uiso
H15 H -0.0132 0.6023 0.7792 0.0460 Uiso
H16 H 0.2987 0.6625 0.6702 0.0450 Uiso
H17 H 0.2908 0.6005 0.6440 0.0450 Uiso
C20 C 0.2343(6) 0.6637(3) 0.5990(4) 0.0390 Uani
C21 C 0.0674(4) 0.4224(3) 0.7270(3) 0.0183 Uani
C22 C -0.0336(4) 0.4943(3) 0.7691(3) 0.0303 Uani
C23 C 0.1389(5) 0.3370(3) 0.7034(3) 0.0217 Uani
N7 N 0.2691(6) 0.3958(3) 0.8346(3) 0.0447 Uani
C24 C 0.3605(5) 0.3246(2) 0.7404(3) 0.0200 Uani
C25 C 0.2150(4) 0.3113(2) 0.7346(3) 0.0173 Uani
C26 C 0.3547(5) 0.4275(3) 0.6357(3) 0.0227 Uani
C27 C 0.2345(5) 0.4704(3) 0.6171(3) 0.0177 Uiso
H18 H 0.5427 0.4854 0.6887 0.0430 Uiso
H19 H 0.5545 0.4178 0.6869 0.0430 Uiso
C28 C 0.6693(5) 0.4601(3) 0.7060(3) 0.0423 Uani
C29 C 0.5257(4) 0.3229(3) 0.7526(3) 0.0310 Uani
N8 N 0.0565(5) 0.6469(3) 0.8807(3) 0.0427 Uani
O1 O 0.1898(4) 0.6686(2) 0.8515(3) 0.0580 Uani
N9 N 0.2851(5) 0.6503(3) 0.5577(3) 0.0630 Uani
O2 O 0.1736(4) 0.6974(3) 0.5950(2) 0.0613 Uani
C30 C -0.0040(4) 0.3795(3) 0.7137(3) 0.0203 Uani
H20 H -0.0253 0.5170 0.8013 0.0460 Uiso
H21 H -0.0659 0.4594 0.7776 0.0460 Uiso
H22 H -0.0663 0.5168 0.7433 0.0460 Uiso
C31 C 0.0429(4) 0.3214(3) 0.7207(3) 0.0150 Uani
C32 C 0.1550(5) 0.3298(3) 0.6439(3) 0.0270 Uani
N10 N 0.3116(6) 0.3681(4) 0.8635(3) 0.0830 Uani
C33 C 0.3482(4) 0.2593(3) 0.7422(3) 0.0207 Uani
C34 C 0.2559(4) 0.2550(2) 0.7181(3) 0.0207 Uani
H23 H 0.1969 0.3080 0.7724 0.0210 Uiso
H24 H 0.3981 0.4062 0.6537 0.0270 Uiso
N11 N 0.3640(4) 0.4447(2) 0.5857(3) 0.0220 Uani
C35 C 0.1546(5) 0.4958(3) 0.6154(3) 0.0263 Uani
C36 C 0.2885(5) 0.4727(3) 0.5724(3) 0.0193 Uani
H25 H 0.6871 0.4754 0.6712 0.0510 Uiso
H26 H 0.6871 0.4879 0.7334 0.0510 Uiso
C37 C 0.7149(5) 0.4026(4) 0.7159(4) 0.0387 Uani
H27 H 0.5714 0.3487 0.7653 0.0460 Uiso
H28 H 0.5418 0.3079 0.7178 0.0460 Uiso
H29 H 0.5190 0.2911 0.7774 0.0460 Uiso
H30 H 0.0504 0.6802 0.8965 0.0510 Uiso
H31 H 0.0144 0.6215 0.8822 0.0510 Uiso
Na1 Na 0.27044(18) 0.75784(11) 0.83861(12) 0.0325 Uani
H32 H 0.2754 0.6659 0.5267 0.0760 Uiso
H33 H 0.3283 0.6260 0.5617 0.0760 Uiso
H34 H -0.0501 0.3824 0.7414 0.0240 Uiso
C38 C -0.0469(5) 0.3892(3) 0.6597(3) 0.0333 Uani
C39 C 0.0003(5) 0.2736(3) 0.6902(3) 0.0257 Uani
C40 C 0.0421(5) 0.3066(3) 0.7805(3) 0.0277 Uani
H35 H 0.1124 0.3525 0.6241 0.0400 Uiso
H36 H 0.1489 0.2894 0.6343 0.0400 Uiso
H37 H 0.2139 0.3429 0.6352 0.0400 Uiso
C41 C 0.3500(5) 0.2421(3) 0.8010(3) 0.0293 Uani
C42 C 0.4134(5) 0.2231(3) 0.7117(3) 0.0183 Uani
H38 H 0.2617 0.2551 0.6788 0.0250 Uiso
C43 C 0.2031(5) 0.2014(3) 0.7341(3) 0.0303 Uani
C44 C 0.4329(5) 0.4254(3) 0.5492(3) 0.0247 Uani
H39 H 0.1181 0.4947 0.6457 0.0310 Uiso
C45 C 0.1264(5) 0.5228(3) 0.5705(3) 0.0253 Uani
C46 C 0.2614(5) 0.4977(3) 0.5254(3) 0.0297 Uani
N12 N 0.7589(4) 0.3995(3) 0.7612(3) 0.0503 Uani
O3 O 0.7099(4) 0.3639(2) 0.6840(2) 0.0517 Uani
H40 H -0.0015 0.3855 0.6322 0.0400 Uiso
H41 H -0.0898 0.3583 0.6538 0.0400 Uiso
C47 C -0.0928(5) 0.4464(3) 0.6521(3) 0.0260 Uani
H42 H -0.0605 0.2698 0.7012 0.0390 Uiso
H43 H 0.0311 0.2377 0.6971 0.0390 Uiso
H44 H 0.0028 0.2821 0.6523 0.0390 Uiso
H45 H 0.0841 0.2752 0.7868 0.0330 Uiso
H46 H 0.0630 0.3404 0.8004 0.0330 Uiso
C48 C -0.0457(6) 0.2887(3) 0.8031(3) 0.0313 Uani
H47 H 0.4041 0.2557 0.8171 0.0440 Uiso
H48 H 0.3469 0.2004 0.8040 0.0440 Uiso
H49 H 0.3002 0.2592 0.8191 0.0440 Uiso
H50 H 0.4699 0.2247 0.7303 0.0220 Uiso
H51 H 0.3934 0.1829 0.7123 0.0220 Uiso
C49 C 0.4278(4) 0.2404(3) 0.6545(3) 0.0243 Uani
H52 H 0.2149 0.1924 0.7716 0.0360 Uiso
H53 H 0.1402 0.2098 0.7307 0.0360 Uiso
C50 C 0.2255(5) 0.1495(3) 0.7001(4) 0.0287 Uani
C51 C 0.4148(4) 0.3644(3) 0.5303(3) 0.0210 Uani
H54 H 0.4364 0.4518 0.5183 0.0300 Uiso
O4 O 0.5128(3) 0.42519(19) 0.57665(19) 0.0277 Uani
C52 C 0.1817(5) 0.5224(3) 0.5239(3) 0.0300 Uani
C53 C 0.0392(5) 0.5526(3) 0.5687(3) 0.0457 Uani
H55 H 0.2978 0.4975 0.4951 0.0360 Uiso
H56 H 0.7867 0.3679 0.7696 0.0600 Uiso
H57 H 0.7601 0.4290 0.7827 0.0600 Uiso
H58 H -0.0494 0.4776 0.6543 0.0310 Uiso
H59 H -0.1354 0.4520 0.6809 0.0310 Uiso
C54 C -0.1402(5) 0.4502(3) 0.5989(3) 0.0327 Uani
N13 N -0.0421(4) 0.2481(2) 0.8395(3) 0.0427 Uani
O5 O -0.1150(4) 0.3111(2) 0.7907(2) 0.0443 Uani
H60 H 0.3773 0.2284 0.6331 0.0290 Uiso
H61 H 0.4327 0.2825 0.6522 0.0290 Uiso
C55 C 0.5094(6) 0.2134(3) 0.6328(3) 0.0290 Uani
N14 N 0.2214(4) 0.1000(2) 0.7248(3) 0.0387 Uani
O6 O 0.2452(4) 0.1546(2) 0.6527(2) 0.0403 Uani
C56 C 0.5075(5) 0.3429(3) 0.5237(3) 0.0243 Uani
H62 H 0.3824 0.3640 0.4961 0.0250 Uiso
O7 O 0.3706(3) 0.33425(18) 0.56938(19) 0.0253 Uani
C57 C 0.5545(5) 0.3706(3) 0.5699(3) 0.0233 Uani
C58 C 0.1473(6) 0.5485(3) 0.4737(3) 0.0493 Uani
H63 H 0.0114 0.5501 0.6034 0.0680 Uiso
H64 H 0.0021 0.5341 0.5423 0.0680 Uiso
H65 H 0.0476 0.5928 0.5593 0.0680 Uiso
O8 O 0.5824(3) 0.2309(2) 0.6468(2) 0.0293 Uani
O9 O 0.7379(4) 0.2495(2) 0.7582(3) 0.0737 Uani
O10 O 0.8157(4) 0.2921(2) 0.5848(3) 0.0693 Uani
N15 N -0.1803(4) 0.4988(3) 0.5909(3) 0.0433 Uani
O11 O -0.1395(4) 0.4096(2) 0.5669(2) 0.0427 Uani
H66 H -0.0900 0.2366 0.8553 0.0510 Uiso
H67 H 0.0082 0.2326 0.8479 0.0510 Uiso
N16 N 0.4982(4) 0.1694(2) 0.6001(2) 0.0290 Uani
H68 H 0.2330 0.0681 0.7077 0.0460 Uiso
H69 H 0.2071 0.0988 0.7584 0.0460 Uiso
Na2 Na 0.2122(2) 0.14309(12) 0.56683(12) 0.0392 Uani
H70 H 0.5322 0.3572 0.4897 0.0290 Uiso
O12 O 0.5151(3) 0.28328(17) 0.52605(18) 0.0227 Uani
H71 H 0.3612 0.3007 0.5590 0.0380 Uiso
H72 H 0.5467 0.3469 0.6024 0.0280 Uiso
C59 C 0.6517(5) 0.3802(4) 0.5593(4) 0.0470 Uani
H73 H 0.0883 0.5629 0.4797 0.0740 Uiso
H74 H 0.1462 0.5195 0.4459 0.0740 Uiso
H75 H 0.1852 0.5801 0.4630 0.0740 Uiso
H76 H 0.7882 0.2701 0.7688 0.1100 Uiso
H77 H 0.7012 0.2542 0.7880 0.1100 Uiso
H78 H 0.8300 0.3311 0.5791 0.1040 Uiso
H79 H 0.8714 0.2763 0.5778 0.1040 Uiso
H80 H -0.2092 0.5045 0.5614 0.0520 Uiso
H81 H -0.1783 0.5258 0.6150 0.0520 Uiso
C60 C 0.5718(5) 0.1392(3) 0.5764(3) 0.0300 Uani
H82 H 0.4450 0.1583 0.5924 0.0350 Uiso
P1 P 0.54432(16) 0.25021(8) 0.47375(8) 0.0296 Uani
H83 H 0.6766 0.4039 0.5880 0.0570 Uiso
H84 H 0.6822 0.3429 0.5594 0.0570 Uiso
O13 O 0.6655(4) 0.4073(2) 0.5110(3) 0.0593 Uani
H85 H 0.5507 0.1028 0.5610 0.0360 Uiso
H86 H 0.6142 0.1296 0.6044 0.0360 Uiso
C61 C 0.6171(5) 0.1730(3) 0.5342(3) 0.0230 Uani
O14 O 0.5524(3) 0.18760(19) 0.49453(19) 0.0300 Uani
O15 O 0.6291(4) 0.27469(19) 0.4555(2) 0.0410 Uani
O16 O 0.4717(4) 0.2511(2) 0.4352(2) 0.0497 Uani
H87 H 0.6825 0.4461 0.5065 0.0890 Uiso
H88 H 0.6448 0.2081 0.5491 0.0280 Uiso
C62 C 0.6837(5) 0.1356(3) 0.5071(3) 0.0520 Uani
O17 O 0.6024(4) 0.4290(2) 0.3962(2) 0.0577 Uani
O18 O 0.8006(4) 0.2653(2) 0.4694(2) 0.0433 Uani
O19 O 0.8535(3) 0.3995(2) 0.4520(2) 0.0443 Uani
H89 H 0.7248 0.1208 0.5333 0.0780 Uiso
H90 H 0.7153 0.1581 0.4808 0.0780 Uiso
H91 H 0.6543 0.1036 0.4897 0.0780 Uiso
H92 H 0.5624 0.4562 0.4099 0.0870 Uiso
H93 H 0.6432 0.4532 0.3790 0.0870 Uiso
H94 H 0.8560 0.4024 0.4894 0.0670 Uiso
H95 H 0.8431 0.4366 0.4383 0.0670 Uiso
Na1C Na 0.72956(18) 0.25784(11) 0.66139(12) 0.0325 Uani
O1C O 0.8102(4) 0.1686(2) 0.6485(3) 0.0580 Uani
Na2B Na 0.7122(2) 0.35691(12) 0.43317(12) 0.0392 Uani
O6B O 0.7452(4) 0.3454(2) 0.3473(2) 0.0403 Uani
C63 C 0.0191(9) 0.4362(5) 0.9247(5) 0.0900 Uani
C64 C 0.0925(8) 0.3985(6) 0.9281(6) 0.1547 Uani
H96 H 0.1427 0.4194 0.9420 0.2320 Uiso
H97 H 0.1062 0.3837 0.8929 0.2320 Uiso
H98 H 0.0786 0.3666 0.9517 0.2320 Uiso
C65 C -0.0636(8) 0.4035(5) 0.9086(6) 0.1793 Uani
H99 H -0.1134 0.4297 0.9087 0.2710 Uiso
H100 H -0.0742 0.3725 0.9337 0.2710 Uiso
H101 H -0.0560 0.3876 0.8732 0.2710 Uiso
O20 O 0.0162(6) 0.4886(4) 0.9368(3) 0.1097 Uani
C66 C 0.6271(11) 0.3079(6) 0.8845(6) 0.1027 Uani
C67 C 0.7152(9) 0.3290(4) 0.8965(5) 0.1217 Uani
H102 H 0.7577 0.3080 0.8752 0.1820 Uiso
H103 H 0.7276 0.3231 0.9340 0.1820 Uiso
H104 H 0.7187 0.3698 0.8882 0.1820 Uiso
C68 C 0.5524(10) 0.3349(6) 0.9125(6) 0.1647 Uani
H105 H 0.4980 0.3173 0.9006 0.2470 Uiso
H106 H 0.5512 0.3759 0.9046 0.2470 Uiso
H107 H 0.5590 0.3293 0.9506 0.2470 Uiso
O21 O 0.6221(6) 0.2660(4) 0.8539(4) 0.1097 Uani
C69 C 0.5086(9) 0.6597(6) 0.6069(7) 0.1917 Uani
H108 H 0.4542 0.6773 0.5950 0.2900 Uiso
H109 H 0.5579 0.6791 0.5903 0.2900 Uiso
H110 H 0.5132 0.6632 0.6453 0.2900 Uiso
C70 C 0.5092(9) 0.5987(6) 0.5920(6) 0.1000 Uani
C71 C 0.5891(9) 0.5656(5) 0.5996(6) 0.1703 Uani
H111 H 0.5809 0.5269 0.5857 0.2570 Uiso
H112 H 0.6029 0.5636 0.6373 0.2570 Uiso
H113 H 0.6371 0.5842 0.5807 0.2570 Uiso
O22 O 0.4452(6) 0.5781(4) 0.5690(4) 0.1380 Uani
N17 N 0.7671(7) 0.4922(4) 0.8407(4) 0.0697 Uani
N18 N 0.7291(5) 0.4913(3) 0.8714(3) 0.0280 Uani
N19 N 0.6790(7) 0.4841(4) 0.9093(5) 0.1007 Uani
N20 N 0.1384(6) 0.1388(5) 0.8522(4) 0.0733 Uani
N21 N 0.1189(7) 0.1875(4) 0.8685(5) 0.1137 Uani
N22 N 0.1649(7) 0.0952(4) 0.8357(4) 0.0910 Uani
O23 O 0.7182(6) 0.5289(3) 0.4970(3) 0.1303 Uani
H114 H 0.7541 0.5240 0.4668 0.1950 Uiso
H115 H 0.7127 0.5684 0.5049 0.1950 Uiso
O24 O 0.0919(9) 0.7550(4) 0.5118(4) 0.2297 Uani
H116 H 0.1185 0.7350 0.5401 0.3460 Uiso
H117 H 0.1278 0.7857 0.5004 0.3460 Uiso
O25 O 0.250(3) 0.7038(7) 0.4500(7) 0.1340 Uiso
O26 O 0.086(2) 0.2480(12) 0.9675(9) 0.2260 Uiso
O27 O 0.7063(13) 0.6531(7) 0.5213(7) 0.3720 Uiso
loop_
_atom_site_aniso_label
_atom_site_aniso_U_11
_atom_site_aniso_U_22
_atom_site_aniso_U_33
_atom_site_aniso_U_23
_atom_site_aniso_U_13
_atom_site_aniso_U_12
Br1 0.0288(5) 0.0228(4) 0.0878(8) -0.0071(5) -0.0184(6) -0.0034(4)
C1 0.014(4) 0.021(4) 0.039(6) 0.005(4) 0.001(4) -0.004(4)
C2 0.022(5) 0.027(4) 0.032(5) -0.001(4) 0.005(4) 0.008(4)
C3 0.019(5) 0.023(4) 0.025(5) -0.007(4) -0.001(4) -0.003(4)
C4 0.023(5) 0.021(4) 0.036(6) -0.007(4) 0.003(4) 0.007(4)
N1 0.008(3) 0.024(3) 0.024(4) -0.006(3) -0.003(3) -0.004(3)
C5 0.012(5) 0.027(4) 0.049(6) -0.006(4) -0.008(4) 0.000(4)
C6 0.016(4) 0.013(3) 0.038(5) 0.005(4) -0.001(4) 0.000(3)
C7 0.015(5) 0.020(4) 0.037(5) 0.002(4) 0.002(4) 0.005(4)
C8 0.034(6) 0.023(4) 0.026(6) -0.010(4) 0.005(4) 0.007(4)
Co1 0.0101(6) 0.0180(5) 0.0300(6) -0.0033(5) 0.0013(5) -0.0003(5)
C9 0.010(4) 0.028(4) 0.044(6) -0.004(4) 0.004(4) -0.002(3)
C10 0.006(4) 0.034(5) 0.091(8) -0.008(5) -0.009(5) 0.003(4)
C11 0.036(6) 0.044(5) 0.046(6) -0.013(5) -0.002(5) 0.019(5)
C12 0.008(4) 0.041(5) 0.024(5) -0.007(4) 0.003(4) 0.005(4)
C13 0.023(5) 0.026(4) 0.035(5) -0.004(4) -0.006(4) 0.004(4)
C14 0.027(5) 0.024(4) 0.041(6) 0.002(4) 0.001(4) 0.010(4)
C15 0.040(6) 0.025(4) 0.046(6) -0.003(4) 0.003(5) 0.000(4)
C16 0.015(5) 0.021(4) 0.028(5) -0.004(4) -0.001(4) 0.004(4)
N4 0.034(5) 0.027(4) 0.034(5) 0.012(3) -0.009(4) 0.011(4)
N5 0.011(3) 0.014(3) 0.027(4) -0.001(3) -0.003(3) 0.003(3)
N6 0.005(3) 0.019(4) 0.042(4) -0.005(3) 0.006(3) 0.002(3)
C17 0.018(5) 0.046(6) 0.044(6) 0.000(4) -0.004(5) -0.007(4)
C18 0.022(5) 0.014(4) 0.036(6) -0.001(4) 0.001(4) 0.002(4)
C19 0.041(7) 0.034(5) 0.031(6) -0.014(4) 0.002(5) 0.013(5)
C20 0.043(7) 0.034(5) 0.040(6) -0.003(5) 0.010(6) -0.013(5)
C21 0.008(4) 0.023(4) 0.024(5) 0.001(4) -0.001(4) 0.007(3)
C22 0.017(5) 0.033(4) 0.041(5) -0.015(5) 0.008(5) -0.012(4)
C23 0.022(5) 0.014(4) 0.029(5) -0.008(4) -0.006(4) -0.004(4)
N7 0.068(7) 0.043(5) 0.023(5) 0.000(4) 0.004(5) 0.005(5)
C24 0.019(5) 0.010(3) 0.031(5) 0.000(4) 0.007(4) -0.002(3)
C25 0.011(4) 0.019(4) 0.022(4) 0.000(4) 0.005(4) -0.003(3)
C26 0.015(5) 0.013(4) 0.040(6) -0.003(4) -0.007(4) -0.005(4)
C28 0.031(6) 0.046(5) 0.050(6) 0.009(5) 0.007(5) -0.003(5)
C29 0.022(5) 0.026(4) 0.045(6) -0.011(4) -0.007(5) 0.001(4)
N8 0.054(6) 0.027(4) 0.047(5) -0.007(4) 0.009(4) -0.003(4)
O1 0.053(5) 0.051(4) 0.070(5) -0.032(4) 0.005(4) -0.010(4)
N9 0.072(7) 0.068(5) 0.049(6) -0.003(4) 0.017(5) 0.024(5)
O2 0.061(5) 0.068(4) 0.055(5) 0.013(4) 0.008(4) 0.030(4)
C30 0.009(4) 0.022(4) 0.030(5) -0.001(4) -0.002(4) -0.009(4)
C31 0.004(4) 0.020(4) 0.021(5) 0.000(3) 0.003(4) 0.002(3)
C32 0.030(5) 0.016(4) 0.035(6) -0.003(4) 0.001(4) -0.002(4)
N10 0.112(9) 0.081(7) 0.056(7) -0.004(6) 0.019(6) 0.019(6)
C33 0.019(4) 0.015(4) 0.028(5) 0.001(4) 0.002(4) 0.002(3)
C34 0.014(4) 0.017(4) 0.031(5) 0.000(3) 0.002(4) 0.006(4)
N11 0.019(4) 0.018(3) 0.029(4) 0.004(3) 0.008(3) 0.003(3)
C35 0.020(5) 0.021(4) 0.038(6) 0.003(4) 0.005(4) -0.002(4)
C36 0.011(5) 0.014(4) 0.033(5) -0.003(4) -0.001(4) -0.008(4)
C37 0.020(5) 0.034(5) 0.062(8) 0.007(5) 0.007(5) 0.005(5)
Na1 0.0132 0.0333 0.051 -0.0074 -0.0097 -0.0013
C38 0.016(5) 0.028(5) 0.056(6) -0.007(4) -0.013(5) 0.007(4)
C39 0.018(5) 0.018(4) 0.041(6) 0.004(4) 0.001(4) 0.001(4)
C40 0.015(5) 0.026(4) 0.042(6) -0.004(4) 0.000(4) -0.003(4)
C41 0.030(5) 0.030(5) 0.028(5) -0.002(4) 0.004(4) 0.002(4)
C42 0.017(5) 0.018(4) 0.020(5) 0.001(3) -0.005(4) -0.001(3)
C43 0.026(5) 0.025(4) 0.040(5) 0.003(4) -0.004(5) 0.005(4)
C44 0.019(5) 0.021(4) 0.034(5) 0.000(4) 0.007(4) 0.003(4)
C45 0.009(5) 0.018(4) 0.049(6) 0.002(4) -0.004(4) -0.001(4)
C46 0.033(6) 0.025(4) 0.031(5) -0.001(4) -0.004(5) 0.003(4)
N12 0.028(5) 0.057(4) 0.066(6) 0.006(5) -0.005(5) 0.004(4)
O3 0.046(4) 0.045(4) 0.064(5) -0.004(4) 0.010(4) 0.013(3)
C47 0.016(5) 0.033(5) 0.029(5) 0.004(4) -0.002(4) -0.004(4)
C48 0.035(6) 0.025(5) 0.034(6) -0.004(4) 0.010(5) -0.008(5)
C49 0.015(5) 0.024(4) 0.034(5) 0.005(4) 0.012(4) 0.011(4)
C50 0.008(5) 0.024(5) 0.054(6) -0.001(5) 0.000(4) -0.003(4)
C51 0.016(5) 0.017(4) 0.030(5) 0.006(4) 0.004(4) 0.003(4)
O4 0.012(3) 0.026(3) 0.045(4) -0.006(3) 0.001(3) 0.000(3)
C52 0.026(6) 0.028(5) 0.036(6) -0.001(4) 0.002(5) 0.003(4)
C53 0.034(6) 0.049(6) 0.054(7) 0.011(5) -0.007(5) 0.004(5)
C54 0.025(5) 0.028(5) 0.045(6) -0.004(5) -0.011(5) -0.009(4)
N13 0.034(5) 0.038(4) 0.056(5) 0.014(4) 0.007(4) -0.011(4)
O5 0.011(3) 0.069(4) 0.053(4) 0.018(3) 0.007(3) 0.008(3)
C55 0.037(6) 0.016(4) 0.034(6) -0.005(4) 0.007(5) 0.008(4)
N14 0.035(5) 0.009(3) 0.072(6) 0.000(4) 0.009(4) 0.005(3)
O6 0.044(4) 0.040(3) 0.037(4) -0.011(3) 0.003(4) -0.005(3)
C56 0.027(5) 0.023(4) 0.023(5) -0.001(4) 0.010(4) 0.000(4)
O7 0.019(3) 0.025(3) 0.032(3) 0.000(3) 0.006(3) -0.005(3)
C57 0.009(4) 0.031(4) 0.030(5) 0.002(4) -0.003(4) 0.005(4)
C58 0.059(7) 0.057(6) 0.032(6) 0.011(5) -0.004(5) 0.012(5)
O8 0.020(3) 0.032(3) 0.036(4) 0.001(3) 0.002(3) 0.002(3)
O9 0.053(4) 0.054(4) 0.114(6) -0.016(4) -0.014(4) -0.010(3)
O10 0.049(5) 0.041(4) 0.118(6) -0.010(4) -0.033(4) 0.020(3)
N15 0.043(5) 0.035(4) 0.052(5) -0.008(4) -0.028(4) 0.008(4)
O11 0.044(4) 0.034(3) 0.050(4) -0.002(3) -0.016(3) 0.001(3)
N16 0.022(4) 0.033(4) 0.032(5) 0.009(4) 0.011(3) 0.000(4)
Na2 0.038 0.0395 0.04 -0.0044 -0.0027 0.0027
O12 0.032(3) 0.012(3) 0.024(3) -0.004(2) 0.005(3) 0.008(2)
C59 0.033(6) 0.051(6) 0.057(7) -0.010(6) -0.008(5) 0.011(5)
C60 0.020(5) 0.037(5) 0.033(5) 0.003(4) 0.006(4) 0.014(4)
P1 0.0368(15) 0.0228(12) 0.0291(14) -0.0009(11) 0.0001(12) 0.0098(12)
O13 0.034(4) 0.064(4) 0.080(5) -0.025(4) 0.024(4) -0.027(3)
C61 0.006(4) 0.025(4) 0.038(5) 0.008(4) 0.010(4) 0.002(4)
O14 0.029(3) 0.024(3) 0.037(4) -0.005(3) -0.006(3) -0.007(3)
O15 0.049(5) 0.032(3) 0.042(4) 0.003(3) 0.017(3) 0.013(3)
O16 0.071(5) 0.034(3) 0.044(4) 0.007(3) -0.026(4) -0.001(3)
C62 0.050(7) 0.058(6) 0.048(6) 0.020(5) 0.019(5) 0.024(5)
O17 0.051(4) 0.052(4) 0.070(5) 0.005(3) -0.003(4) -0.006(4)
O18 0.055(4) 0.029(3) 0.046(4) -0.003(3) -0.003(3) 0.014(3)
O19 0.025(4) 0.056(4) 0.052(4) 0.001(3) 0.008(3) 0.010(3)
Na1C 0.0132(19) 0.0333(17) 0.051(2) 0.0074(16) -0.0097(16) 0.0013(14)
O1C 0.053 0.051 0.07 0.032 0.005 0.01
Na2B 0.038(2) 0.0395(19) 0.040(2) -0.0044(16) 0.0027(17) -0.0027(16)
O6B 0.044 0.04 0.037 -0.011 -0.003 0.005
C63 0.125(13) 0.069(8) 0.076(9) -0.010(8) -0.020(8) 0.006(9)
C64 0.080(11) 0.199(15) 0.185(16) -0.087(12) -0.036(11) 0.073(11)
C65 0.089(12) 0.139(13) 0.31(2) -0.104(14) -0.064(14) -0.014(10)
O20 0.120(8) 0.105(7) 0.104(7) -0.012(6) -0.038(6) 0.013(6)
C66 0.097(13) 0.087(11) 0.124(14) 0.001(9) -0.023(11) 0.013(11)
C67 0.116(14) 0.061(8) 0.188(16) -0.004(9) 0.005(12) 0.000(8)
C68 0.113(14) 0.202(17) 0.179(17) 0.048(13) 0.043(13) 0.059(13)
O21 0.109(8) 0.104(7) 0.116(8) 0.008(6) -0.016(6) 0.013(6)
C69 0.114(15) 0.131(13) 0.33(2) -0.140(15) -0.049(15) -0.012(11)
C70 0.054(10) 0.120(12) 0.126(12) -0.037(10) -0.001(9) -0.018(9)
C71 0.106(13) 0.135(12) 0.27(2) 0.087(14) 0.018(13) 0.045(11)
O22 0.091(8) 0.099(7) 0.224(12) -0.052(7) -0.002(8) 0.002(6)
N17 0.066(9) 0.048(5) 0.095(9) 0.007(7) -0.020(6) -0.006(6)
N18 0.020(6) 0.026(4) 0.038(6) -0.001(5) 0.005(4) 0.006(4)
N19 0.074(9) 0.076(7) 0.152(11) -0.027(8) -0.042(8) 0.008(6)
N20 0.040(7) 0.103(9) 0.077(8) 0.042(7) 0.007(5) -0.004(7)
N21 0.106(10) 0.086(8) 0.149(11) 0.036(8) 0.031(8) 0.035(8)
N22 0.123(10) 0.079(7) 0.071(7) 0.042(6) 0.033(7) 0.029(7)
O23 0.150(9) 0.135(7) 0.106(7) 0.003(6) -0.014(6) 0.070(6)
O24 0.40(2) 0.178(9) 0.111(9) -0.004(8) -0.060(11) 0.037(12)
loop_
_geom_bond_atom_site_label_1
_geom_bond_atom_site_label_2
_geom_bond_site_symmetry_1
_geom_bond_site_symmetry_2
Br1 C1 1_555 1_555
C1 C2 1_555 1_555
C2 C4 1_555 1_555
C3 C1 1_555 1_555
C4 C6 1_555 1_555
N1 C2 1_555 1_555
C5 C3 1_555 1_555
N2 C3 1_555 1_555
C6 C8 1_555 1_555
H1 C4 1_555 1_555
C7 C4 1_555 1_555
C8 N1 1_555 1_555
Co1 N1 1_555 1_555
C9 C5 1_555 1_555
C10 C5 1_555 1_555
C11 C5 1_555 1_555
C12 N2 1_555 1_555
C13 C6 1_555 1_555
C14 C6 1_555 1_555
H2 C7 1_555 1_555
H3 C7 1_555 1_555
C15 C7 1_555 1_555
C16 C8 1_555 1_555
N3 Co1 1_555 1_555
N4 Co1 1_555 1_555
N5 Co1 1_555 1_555
N6 Co1 1_555 1_555
H4 C9 1_555 1_555
C17 C9 1_555 1_555
H5 C10 1_555 1_555
H6 C10 1_555 1_555
H7 C10 1_555 1_555
H8 C11 1_555 1_555
H9 C11 1_555 1_555
H10 C11 1_555 1_555
C18 C12 1_555 1_555
H11 C13 1_555 1_555
H12 C13 1_555 1_555
C19 C13 1_555 1_555
H13 C14 1_555 1_555
H14 C14 1_555 1_555
H15 C14 1_555 1_555
H16 C15 1_555 1_555
H17 C15 1_555 1_555
C20 C15 1_555 1_555
C21 C16 1_555 1_555
C22 C16 1_555 1_555
C23 N3 1_555 1_555
N7 N4 1_555 1_555
C24 N5 1_555 1_555
C25 N5 1_555 1_555
C26 N6 1_555 1_555
C27 N6 1_555 1_555
H18 C17 1_555 1_555
H19 C17 1_555 1_555
C28 C17 1_555 1_555
C29 C18 1_555 1_555
N8 C19 1_555 1_555
O1 C19 1_555 1_555
N9 C20 1_555 1_555
O2 C20 1_555 1_555
C30 C21 1_555 1_555
H20 C22 1_555 1_555
H21 C22 1_555 1_555
H22 C22 1_555 1_555
C31 C23 1_555 1_555
C32 C23 1_555 1_555
N10 N7 1_555 1_555
C33 C24 1_555 1_555
C34 C25 1_555 1_555
H23 C25 1_555 1_555
H24 C26 1_555 1_555
N11 C26 1_555 1_555
C35 C27 1_555 1_555
C36 C27 1_555 1_555
H25 C28 1_555 1_555
H26 C28 1_555 1_555
C37 C28 1_555 1_555
H27 C29 1_555 1_555
H28 C29 1_555 1_555
H29 C29 1_555 1_555
H30 N8 1_555 1_555
H31 N8 1_555 1_555
Na1 O1 1_555 1_555
H32 N9 1_555 1_555
H33 N9 1_555 1_555
H34 C30 1_555 1_555
C38 C30 1_555 1_555
C39 C31 1_555 1_555
C40 C31 1_555 1_555
H35 C32 1_555 1_555
H36 C32 1_555 1_555
H37 C32 1_555 1_555
C41 C33 1_555 1_555
C42 C33 1_555 1_555
H38 C34 1_555 1_555
C43 C34 1_555 1_555
C44 N11 1_555 1_555
H39 C35 1_555 1_555
C45 C35 1_555 1_555
C46 C36 1_555 1_555
N12 C37 1_555 1_555
O3 C37 1_555 1_555
H40 C38 1_555 1_555
H41 C38 1_555 1_555
C47 C38 1_555 1_555
H42 C39 1_555 1_555
H43 C39 1_555 1_555
H44 C39 1_555 1_555
H45 C40 1_555 1_555
H46 C40 1_555 1_555
C48 C40 1_555 1_555
H47 C41 1_555 1_555
H48 C41 1_555 1_555
H49 C41 1_555 1_555
H50 C42 1_555 1_555
H51 C42 1_555 1_555
C49 C42 1_555 1_555
H52 C43 1_555 1_555
H53 C43 1_555 1_555
C50 C43 1_555 1_555
C51 C44 1_555 1_555
H54 C44 1_555 1_555
O4 C44 1_555 1_555
C52 C45 1_555 1_555
C53 C45 1_555 1_555
H55 C46 1_555 1_555
H56 N12 1_555 1_555
H57 N12 1_555 1_555
H58 C47 1_555 1_555
H59 C47 1_555 1_555
C54 C47 1_555 1_555
N13 C48 1_555 1_555
O5 C48 1_555 1_555
H60 C49 1_555 1_555
H61 C49 1_555 1_555
C55 C49 1_555 1_555
N14 C50 1_555 1_555
O6 C50 1_555 1_555
C56 C51 1_555 1_555
H62 C51 1_555 1_555
O7 C51 1_555 1_555
C57 O4 1_555 1_555
C58 C52 1_555 1_555
H63 C53 1_555 1_555
H64 C53 1_555 1_555
H65 C53 1_555 1_555
O8 C55 1_555 1_555
O9 H76 1_555 1_555
O10 H78 1_555 1_555
N15 C54 1_555 1_555
O11 C54 1_555 1_555
H66 N13 1_555 1_555
H67 N13 1_555 1_555
N16 C55 1_555 1_555
H68 N14 1_555 1_555
H69 N14 1_555 1_555
Na2 O6 1_555 1_555
H70 C56 1_555 1_555
O12 C56 1_555 1_555
H71 O7 1_555 1_555
H72 C57 1_555 1_555
C59 C57 1_555 1_555
H73 C58 1_555 1_555
H74 C58 1_555 1_555
H75 C58 1_555 1_555
H77 O9 1_555 1_555
H79 O10 1_555 1_555
H80 N15 1_555 1_555
H81 N15 1_555 1_555
C60 N16 1_555 1_555
H82 N16 1_555 1_555
P1 O12 1_555 1_555
H83 C59 1_555 1_555
H84 C59 1_555 1_555
O13 C59 1_555 1_555
H85 C60 1_555 1_555
H86 C60 1_555 1_555
C61 C60 1_555 1_555
O14 P1 1_555 1_555
O15 P1 1_555 1_555
O16 P1 1_555 1_555
H87 O13 1_555 1_555
H88 C61 1_555 1_555
C62 C61 1_555 1_555
O17 H92 1_555 1_555
O18 Na2B 1_555 1_555
O19 H94 1_555 1_555
H89 C62 1_555 1_555
H90 C62 1_555 1_555
H91 C62 1_555 1_555
H93 O17 1_555 1_555
H95 O19 1_555 1_555
C63 C64 1_555 1_555
C64 H96 1_555 1_555
H97 C64 1_555 1_555
H98 C64 1_555 1_555
C65 C63 1_555 1_555
H99 C65 1_555 1_555
H100 C65 1_555 1_555
H101 C65 1_555 1_555
O20 C63 1_555 1_555
C66 C67 1_555 1_555
C67 H102 1_555 1_555
H103 C67 1_555 1_555
H104 C67 1_555 1_555
C68 C66 1_555 1_555
H105 C68 1_555 1_555
H106 C68 1_555 1_555
H107 C68 1_555 1_555
O21 C66 1_555 1_555
C69 H108 1_555 1_555
H109 C69 1_555 1_555
H110 C69 1_555 1_555
C70 C69 1_555 1_555
C71 C70 1_555 1_555
H111 C71 1_555 1_555
H112 C71 1_555 1_555
H113 C71 1_555 1_555
O22 C70 1_555 1_555
N17 N18 1_555 1_555
N18 N19 1_555 1_555
N20 N21 1_555 1_555
N22 N20 1_555 1_555
O23 H114 1_555 1_555
H115 O23 1_555 1_555
O24 H116 1_555 1_555
H117 O24 1_555 1_555
Na1C O3 1_555 1_555
O1C Na1C 1_555 1_555
Na2B O13 1_555 1_555
O6B Na2B 1_555 1_555
N2 Co1 1_555 1_555
C9 C12 1_555 1_555
N3 C21 1_555 1_555
C18 C24 1_555 1_555
C23 C25 1_555 1_555
C30 C31 1_555 1_555
C33 C34 1_555 1_555
N11 C36 1_555 1_555
C46 C52 1_555 1_555
C56 C57 1_555 1_555
O8 Na1C 1_555 1_555
O9 Na1C 1_555 1_555
O10 Na1C 1_555 1_555
C61 O14 1_555 1_555
O15 Na2B 1_555 1_555
O17 Na2B 1_555 1_555
O19 Na2B 1_555 1_555

#END
