
#######################################################################
#
#                 Cambridge Crystallographic Data Centre
#                                CCDC 
#
#######################################################################
#
# If this CIF has been generated from an entry in the Cambridge 
# Structural Database, then it will include bibliographic, chemical, 
# crystal, experimental, refinement or atomic coordinate data resulting 
# from the CCDC's data processing and validation procedures.
#
#######################################################################

data_OPOKEL
_chemical_formula_moiety         '(C48 H58 Cu2 N6 O16)n'
_symmetry_cell_setting           monoclinic
_symmetry_space_group_name_H-M   'P 21'
_symmetry_Int_Tables_number      4
_space_group_name_Hall           'P 2yb'
loop_
_symmetry_equiv_pos_site_id
_symmetry_equiv_pos_as_xyz
1 x,y,z
2 -x,1/2+y,-z
_cell_length_a                   13.193(3)
_cell_length_b                   16.490(4)
_cell_length_c                   13.241(3)
_cell_angle_alpha                90
_cell_angle_beta                 118.137(4)
_cell_angle_gamma                90
_cell_volume                     2540.19
loop_
_atom_site_label
_atom_site_type_symbol
_atom_site_fract_x
_atom_site_fract_y
_atom_site_fract_z
C1 C 0.5822(8) 0.8487(5) 0.1783(7)
C2 C 0.5965(7) 0.7600(5) 0.2209(6)
H1 H 0.6778 0.7450 0.2541
C3 C 0.5257(8) 0.6996(5) 0.1269(7)
H2 H 0.4447 0.7126 0.0957
H3 H 0.5376 0.6455 0.1593
C4 C 0.5590(9) 0.7007(5) 0.0293(8)
H4 H 0.5270 0.7487 -0.0175
H5 H 0.6419 0.7031 0.0619
C5 C 0.5136(11) 0.6245(8) -0.0461(10)
C6 C 0.6089(9) 0.7102(7) 0.4021(8)
C7 C 0.5785(10) 0.7190(6) 0.4990(9)
C8 C 0.6390(11) 0.6796(8) 0.5986(10)
H6 H 0.6985 0.6458 0.6056
C9 C 0.6185(14) 0.6860(9) 0.6896(10)
H7 H 0.6647 0.6594 0.7580
C10 C 0.5311(15) 0.7311(9) 0.6783(11)
H8 H 0.5135 0.7346 0.7384
C11 C 0.4659(12) 0.7728(8) 0.5785(10)
H9 H 0.4065 0.8063 0.5721
C12 C 0.4892(12) 0.7646(8) 0.4878(10)
H10 H 0.4431 0.7907 0.4189
C13 C 1.0190(10) 1.2365(6) 0.5706(8)
C14 C 1.0250(8) 1.1626(5) 0.5089(7)
H11 H 0.9708 1.1224 0.5077
H12 H 1.1016 1.1394 0.5483
C15 C 0.9966(9) 1.1848(5) 0.3863(7)
H13 H 0.9171 1.2024 0.3458
H14 H 1.0443 1.2304 0.3888
C16 C 1.0137(8) 1.1170(5) 0.3190(7)
H15 H 1.0946 1.1004 0.3592
C17 C 0.9408(9) 1.0444(6) 0.3078(7)
C18 C 1.0429(15) 1.1136(8) 0.1513(13)
C19 C 1.0018(11) 1.1385(6) 0.0296(7)
C20 C 0.9041(11) 1.1856(6) -0.0312(10)
H16 H 0.8613 1.2032 0.0038
C21 C 0.8705(9) 1.2064(6) -0.1443(10)
H17 H 0.8052 1.2379 -0.1850
C22 C 0.9345(11) 1.1801(7) -0.1966(6)
H18 H 0.9120 1.1941 -0.2723
C23 C 1.0321(10) 1.1330(7) -0.1358(9)
H19 H 1.0750 1.1155 -0.1708
C24 C 1.0658(9) 1.1122(6) -0.0227(9)
H20 H 1.1311 1.0807 0.0180
C25 C 0.7030(7) 1.0296(5) -0.0143(6)
H21 H 0.7628 1.0586 0.0432
C26 C 0.6911(8) 1.0317(5) -0.1243(7)
H22 H 0.7433 1.0604 -0.1392
C27 C 0.6015(8) 0.9908(6) -0.2108(7)
C28 C 0.5290(8) 0.9470(6) -0.1830(8)
H23 H 0.4682 0.9178 -0.2391
C29 C 0.5476(9) 0.9469(6) -0.0712(7)
H24 H 0.4982 0.9169 -0.0538
C30 C 0.5796(9) 0.9935(7) -0.3354(7)
H25 H 0.6015 0.9416 -0.3537
H26 H 0.4978 1.0004 -0.3850
C31 C 0.6419(10) 1.0587(6) -0.3618(8)
H27 H 0.7228 1.0568 -0.3062
H28 H 0.6122 1.1111 -0.3549
C32 C 0.6293(10) 1.0503(6) -0.4835(9)
C33 C 0.7084(9) 1.0891(6) -0.5050(8)
H29 H 0.7638 1.1221 -0.4495
C34 C 0.7058(8) 1.0792(6) -0.6085(8)
H30 H 0.7603 1.1059 -0.6219
C35 C 0.5435(9) 0.9995(7) -0.6766(7)
H31 H 0.4832 0.9724 -0.7363
C36 C 0.5444(8) 1.0057(7) -0.5728(7)
H32 H 0.4877 0.9798 -0.5619
C37 C 0.9905(8) 0.8960(6) 0.1666(7)
H33 H 1.0500 0.9238 0.2262
C38 C 0.9901(8) 0.8910(7) 0.0619(8)
H34 H 1.0479 0.9147 0.0506
C39 C 0.9011(10) 0.8496(5) -0.0245(7)
C40 C 0.8187(9) 0.8177(6) -0.0044(8)
H35 H 0.7563 0.7911 -0.0625
C41 C 0.8275(8) 0.8248(6) 0.1030(8)
H36 H 0.7710 0.8008 0.1163
C42 C 0.8967(13) 0.8437(7) -0.1422(9)
H37 H 0.9588 0.8085 -0.1348
H38 H 0.8252 0.8173 -0.1943
C43 C 0.9044(12) 0.9148(7) -0.1919(8)
H39 H 0.9757 0.9412 -0.1393
H40 H 0.8421 0.9498 -0.1993
C44 C 0.9007(11) 0.9103(6) -0.3084(8)
C45 C 0.9902(9) 0.9404(6) -0.3210(8)
H41 H 1.0518 0.9650 -0.2594
C46 C 0.9895(8) 0.9342(5) -0.4270(7)
H42 H 1.0511 0.9545 -0.4348
C47 C 0.8133(8) 0.8731(6) -0.5039(7)
H43 H 0.7502 0.8521 -0.5678
C48 C 0.8095(8) 0.8745(6) -0.4032(7)
H44 H 0.7476 0.8522 -0.3975
Cu1 Cu 0.91415(10) 0.87967(6) 0.33869(8)
Cu2 Cu 0.63717(9) 1.00800(6) 0.16361(7)
N1 N 0.5624(6) 0.7592(4) 0.3124(6)
H45 H 0.5098 0.7923 0.3072
N2 N 0.9881(9) 1.1454(5) 0.2056(7)
H46 H 0.9376 1.1828 0.1730
N3 N 0.9090(7) 0.8625(4) 0.1850(6)
N4 N 0.9013(7) 0.8996(4) -0.5170(5)
N5 N 0.6322(6) 0.9875(4) 0.0125(5)
N6 N 0.6257(7) 1.0312(4) -0.6939(5)
O1 O 0.9248(6) 1.2704(5) 0.5408(6)
O2 O 1.1124(5) 1.2647(3) 0.6474(5)
O3 O 0.9958(6) 0.9829(4) 0.3623(5)
O4 O 0.8329(6) 1.0470(4) 0.2480(5)
O5 O 1.1226(10) 1.0673(7) 0.1980(11)
O6 O 0.4076(7) 0.6220(4) -0.1077(5)
O7 O 0.5733(8) 0.5711(5) -0.0414(8)
O8 O 0.6727(5) 0.8900(4) 0.2118(4)
O9 O 0.4832(5) 0.8743(4) 0.1184(5)
O10 O 0.6827(8) 0.6603(5) 0.4112(7)
Cu1_2 Cu 0.91415(10) 0.87967(6) -0.66131(8)
Cu1A Cu 1.08585(10) 1.37967(6) 0.66131(8)
Cu2_2 Cu 0.63717(9) 1.00800(6) -0.83639(7)
Cu2A Cu 0.36283(9) 0.50800(6) -0.16361(7)
N4_2 N 0.9013(7) 0.8996(4) 0.4830(5)
N6_2 N 0.6257(7) 1.0312(4) 0.3061(5)
O1A O 1.0752(6) 0.7704(5) 0.4592(6)
O2A O 0.8876(5) 0.7647(3) 0.3526(5)
O6A O 0.5924(7) 1.1220(4) 0.1077(5)
O7A O 0.4267(8) 1.0711(5) 0.0414(8)
O11 O 0.2386(11) 0.7426(7) 0.8638(10)
H47 H 0.2461 0.6958 0.8935
H48 H 0.2069 0.7782 0.8860
O12 O 0.2543(10) 0.8861(12) 0.9830(11)
H49 H 0.2775 0.8751 0.9345
H50 H 0.2532 0.9360 0.9986
O13 O 0.2617(10) 0.8304(8) 0.6753(13)
H51 H 0.2624 0.8536 0.6183
H52 H 0.2625 0.8624 0.7260
O14 O 0.3298(14) 0.8573(12) 0.2457(14)
H53 H 0.3260 0.9088 0.2450
H54 H 0.2939 0.8343 0.1809
O15 O 0.2445(14) 0.0117(18) 0.866(2)
H55 H 0.1861 0.0290 0.8709
H56 H 0.2746 -0.0014 0.9367
O17 O 0.254(2) -0.012(2) 0.505(3)
H59 H 0.2628 -0.0080 0.4459
H60 H 0.2883 0.0240 0.5553
loop_
_geom_bond_atom_site_label_1
_geom_bond_atom_site_label_2
_geom_bond_site_symmetry_1
_geom_bond_site_symmetry_2
C1 C2 1_555 1_555
C2 H1 1_555 1_555
C3 C2 1_555 1_555
H2 C3 1_555 1_555
H3 C3 1_555 1_555
C4 C3 1_555 1_555
H4 C4 1_555 1_555
H5 C4 1_555 1_555
C5 C4 1_555 1_555
C6 C7 1_555 1_555
C7 C8 1_555 1_555
C8 H6 1_555 1_555
C9 C8 1_555 1_555
H7 C9 1_555 1_555
C10 C9 1_555 1_555
H8 C10 1_555 1_555
C11 C10 1_555 1_555
H9 C11 1_555 1_555
C12 C7 1_555 1_555
H10 C12 1_555 1_555
C13 C14 1_555 1_555
C14 H11 1_555 1_555
H12 C14 1_555 1_555
C15 C14 1_555 1_555
H13 C15 1_555 1_555
H14 C15 1_555 1_555
C16 C15 1_555 1_555
H15 C16 1_555 1_555
C17 C16 1_555 1_555
C18 C19 1_555 1_555
C19 C20 1_555 1_555
C20 H16 1_555 1_555
C21 C20 1_555 1_555
H17 C21 1_555 1_555
C22 C21 1_555 1_555
H18 C22 1_555 1_555
C23 C22 1_555 1_555
H19 C23 1_555 1_555
C24 C19 1_555 1_555
H20 C24 1_555 1_555
C25 H21 1_555 1_555
C26 C25 1_555 1_555
H22 C26 1_555 1_555
C27 C26 1_555 1_555
C28 C27 1_555 1_555
H23 C28 1_555 1_555
C29 C28 1_555 1_555
H24 C29 1_555 1_555
C30 C27 1_555 1_555
H25 C30 1_555 1_555
H26 C30 1_555 1_555
C31 C30 1_555 1_555
H27 C31 1_555 1_555
H28 C31 1_555 1_555
C32 C31 1_555 1_555
C33 C32 1_555 1_555
H29 C33 1_555 1_555
C34 C33 1_555 1_555
H30 C34 1_555 1_555
C35 H31 1_555 1_555
C36 C32 1_555 1_555
H32 C36 1_555 1_555
C37 H33 1_555 1_555
C38 C37 1_555 1_555
H34 C38 1_555 1_555
C39 C38 1_555 1_555
C40 C39 1_555 1_555
H35 C40 1_555 1_555
C41 C40 1_555 1_555
H36 C41 1_555 1_555
C42 C39 1_555 1_555
H37 C42 1_555 1_555
H38 C42 1_555 1_555
C43 C42 1_555 1_555
H39 C43 1_555 1_555
H40 C43 1_555 1_555
C44 C43 1_555 1_555
C45 C44 1_555 1_555
H41 C45 1_555 1_555
C46 C45 1_555 1_555
H42 C46 1_555 1_555
C47 H43 1_555 1_555
C48 C44 1_555 1_555
H44 C48 1_555 1_555
Cu1 N3 1_555 1_555
Cu2 N5 1_555 1_555
N1 C2 1_555 1_555
H45 N1 1_555 1_555
N2 C16 1_555 1_555
H46 N2 1_555 1_555
N3 C37 1_555 1_555
N4 C46 1_555 1_555
N5 C25 1_555 1_555
N6 C34 1_555 1_555
O1 C13 1_555 1_555
O2 C13 1_555 1_555
O3 C17 1_555 1_555
O4 C17 1_555 1_555
O5 C18 1_555 1_555
O6 C5 1_555 1_555
O7 C5 1_555 1_555
O8 C1 1_555 1_555
O9 C1 1_555 1_555
O10 C6 1_555 1_555
O11 H47 1_555 1_555
H48 O11 1_555 1_555
O12 H49 1_555 1_555
H50 O12 1_555 1_555
O13 H51 1_555 1_555
H52 O13 1_555 1_555
O14 H53 1_555 1_555
H54 O14 1_555 1_555
O15 H55 1_555 1_555
H56 O15 1_555 1_555
O17 H59 1_555 1_555
H60 O17 1_555 1_555
Cu1_2 N4 1_555 1_555
Cu1A O1 1_555 1_555
Cu2_2 N6 1_555 1_555
Cu2A O6 1_555 1_555
N4_2 Cu1 1_555 1_555
N6_2 Cu2 1_555 1_555
O1A Cu1 1_555 1_555
O2A Cu1 1_555 1_555
O6A Cu2 1_555 1_555
O7A Cu2 1_555 1_555
C6 N1 1_555 1_555
C11 C12 1_555 1_555
C18 N2 1_555 1_555
C23 C24 1_555 1_555
C29 N5 1_555 1_555
C35 C36 1_555 1_555
C35 N6 1_555 1_555
C41 N3 1_555 1_555
C47 C48 1_555 1_555
C47 N4 1_555 1_555
Cu1 O3 1_555 1_555
Cu2 O4 1_555 1_555
Cu2 O8 1_555 1_555
O2 Cu1A 1_555 1_555
O7 Cu2A 1_555 1_555

#END
