
#######################################################################
#
#                 Cambridge Crystallographic Data Centre
#                                CCDC 
#
#######################################################################
#
# If this CIF has been generated from an entry in the Cambridge 
# Structural Database, then it will include bibliographic, chemical, 
# crystal, experimental, refinement or atomic coordinate data resulting 
# from the CCDC's data processing and validation procedures.
#
#######################################################################

data_BUKRUW01
_chemical_formula_moiety         '(C24 H12 N12 O14 Zn8)n'
_symmetry_cell_setting           cubic
_symmetry_space_group_name_H-M   'P 21 3'
_symmetry_Int_Tables_number      198
_space_group_name_Hall           'P 2ac 2ab 3'
loop_
_symmetry_equiv_pos_site_id
_symmetry_equiv_pos_as_xyz
1 x,y,z
2 1/2-x,-y,1/2+z
3 -x,1/2+y,1/2-z
4 1/2+x,1/2-y,-z
5 z,x,y
6 1/2+z,1/2-x,-y
7 1/2-z,-x,1/2+y
8 -z,1/2+x,1/2-y
9 y,z,x
10 -y,1/2+z,1/2-x
11 1/2+y,1/2-z,-x
12 1/2-y,-z,1/2+x
_cell_length_a                   20.1619(3)
_cell_length_b                   20.1619(3)
_cell_length_c                   20.1619(3)
_cell_angle_alpha                90
_cell_angle_beta                 90
_cell_angle_gamma                90
_cell_volume                     8195.86
loop_
_atom_site_label
_atom_site_type_symbol
_atom_site_fract_x
_atom_site_fract_y
_atom_site_fract_z
_atom_site_U_iso_or_equiv
_atom_site_thermal_displace_type
Zn1 Zn 0.30080(5) 0.69920(5) 0.19920(5) 0.0413 Uani
O1 O 0.24486(18) 0.75514(18) 0.25514(18) 0.0250 Uani
N1 N 0.2730(3) 0.7374(3) 0.1078(3) 0.0627 Uani
Zn2 Zn 0.19008(4) 0.80983(5) 0.19582(4) 0.0405 Uani
N2 N 0.22307(19) 0.77977(18) 0.10224(18) 0.0280 Uani
C1 C 0.2929(4) 0.7215(4) 0.0472(4) 0.1247 Uani
N3 N 0.2077(3) 0.9008(2) 0.2197(3) 0.0409 Uani
N4 N 0.0986(3) 0.7900(3) 0.2194(4) 0.0517 Uani
C2 C 0.2121(3) 0.7900(3) 0.0383(3) 0.1307 Uani
H1 H 0.3280 0.6919 0.0364 0.1500 Uiso
C3 C 0.2552(3) 0.7539(4) 0.0042(4) 0.0563 Uani
C4 C 0.2100(3) 0.9597(3) 0.2134(4) 0.0383 Uani
C5 C 0.2908(3) 0.9585(4) 0.2893(3) 0.0420 Uani
H2 H 0.1790 0.8182 0.0200 0.1570 Uiso
C6 C 0.2577(5) 0.7359(5) -0.0673(5) 0.0700 Uani
H3 H 0.1864 0.9800 0.1780 0.0460 Uiso
C7 C 0.2497(3) 1.0027(4) 0.2603(3) 0.0333 Uani
H4 H 0.3299 0.9745 0.3101 0.0500 Uiso
O2 O 0.2571(6) 0.7036(6) -0.1089(5) 0.1417 Uani
C8 C 0.2506(3) 1.0812(4) 0.2642(3) 0.0397 Uani
Zn3 Zn 0.30404(5) 0.69229(5) -0.19082(5) 0.0480 Uani
O3 O 0.21795(19) 1.10533(18) 0.2200(2) 0.0268 Uani
O4 O 0.2914(6) 1.1115(6) 0.2920(6) 0.1667 Uani
O5 O 0.2444(2) 0.7444(2) -0.2444(2) 0.0420 Uani
O6 O 0.2857(8) 0.6121(9) -0.1902(8) 0.2480 Uani
Zn4 Zn 0.19662(4) 1.19662(4) 0.19662(4) 0.0366 Uani
N1F N 0.3922(3) 0.7270(3) 0.2374(3) 0.0627 Uani
N1I N 0.2626(3) 0.6078(3) 0.2270(3) 0.0627 Uani
Zn2F Zn 0.30418(4) 0.80992(4) 0.30983(5) 0.0405 Uani
Zn2I Zn 0.19017(5) 0.69582(4) 0.30992(4) 0.0405 Uani
N4F N 0.2806(4) 0.9014(3) 0.2900(3) 0.0517 Uani
O4K O 0.3885(6) 0.7080(6) -0.2086(6) 0.1667 Uani
Zn3E Zn 0.30918(5) 1.19596(5) 0.30771(5) 0.0480 Uani
Zn4A Zn 0.30338(4) 0.80338(4) -0.30338(4) 0.0366 Uani
Zn3G Zn 0.19082(5) 0.80404(5) -0.19229(5) 0.0480 Uani
Zn3J Zn 0.19229(5) 0.69082(5) -0.30404(5) 0.0480 Uani
C8K C 0.4188(4) 0.7358(3) -0.2494(3) 0.0397 Uani
O5A O 0.2556(2) 1.2556(2) 0.2556(2) 0.0420 Uani
O2E O 0.3911(5) 1.2429(6) 0.2964(6) 0.1417 Uani
O6E O 0.3098(8) 1.2143(8) 0.3879(9) 0.2480 Uani
O3K O 0.39467(18) 0.7800(2) -0.28205(19) 0.0268 Uani
O3A O 0.28205(19) 0.89467(18) -0.2800(2) 0.0268 Uani
O3F O 0.2800(2) 0.78205(19) -0.39467(18) 0.0268 Uani
C7K C 0.4973(4) 0.7397(3) -0.2503(3) 0.0333 Uani
C6E C 0.4327(5) 1.2423(5) 0.2641(5) 0.0700 Uani
C4K C 0.5403(3) 0.7866(4) -0.2900(3) 0.0383 Uani
C5K C 0.5415(4) 0.7107(3) -0.2092(3) 0.0420 Uani
C3E C 0.5042(4) 1.2448(3) 0.2461(4) 0.0563 Uani
N3K N 0.5992(2) 0.7803(3) -0.2923(3) 0.0409 Uani
H3K H 0.5200 0.8220 -0.3136 0.0460 Uiso
N4C N 0.5986(3) 0.7100(3) -0.2194(4) 0.0517 Uani
H4K H 0.5255 0.6899 -0.1701 0.0500 Uiso
C1E C 0.5472(4) 1.2071(4) 0.2785(4) 0.1247 Uani
C2E C 0.5383(3) 1.2879(3) 0.2100(3) 0.1307 Uani
Zn2K Zn 0.69017(5) 0.80418(4) -0.30992(4) 0.0405 Uani
Zn2C Zn 0.69008(4) 0.69017(5) -0.19582(4) 0.0405 Uani
N1E N 0.6078(3) 1.2270(3) 0.2626(3) 0.0627 Uani
H1E H 0.5364 1.1720 0.3081 0.1500 Uiso
N2E N 0.60224(18) 1.27693(19) 0.22023(18) 0.0280 Uani
H2E H 0.5200 1.3210 0.1818 0.1570 Uiso
N2K N 0.72023(18) 0.89776(18) -0.27693(19) 0.0280 Uani
O1C O 0.74486(18) 0.74486(18) -0.25514(18) 0.0250 Uani
N4K N 0.7100(3) 0.7806(4) -0.4014(3) 0.0517 Uani
Zn1B Zn 0.69920(5) 1.19920(5) 0.30080(5) 0.0413 Uani
Zn2E Zn 0.69582(4) 1.30992(4) 0.19017(5) 0.0405 Uani
N1K N 0.7626(3) 0.8922(3) -0.2270(3) 0.0627 Uani
C2K C 0.7100(3) 0.9617(3) -0.2879(3) 0.1307 Uani
Zn1C Zn 0.80080(5) 0.80080(5) -0.19920(5) 0.0413 Uani
Zn2H Zn 0.80983(5) 1.19582(4) 0.19008(4) 0.0405 Uani
O1B O 0.75514(18) 1.25514(18) 0.24486(18) 0.0250 Uani
N3E N 0.7197(3) 1.2923(3) 0.0992(2) 0.0409 Uani
N4E N 0.7194(4) 1.4014(3) 0.2100(3) 0.0517 Uani
C1K C 0.7785(4) 0.9528(4) -0.2071(4) 0.1247 Uani
C3K C 0.7461(4) 0.9958(4) -0.2448(3) 0.0563 Uani
H2K H 0.6818 0.9800 -0.3210 0.1570 Uiso
N4H N 0.7900(3) 1.2194(4) 0.0986(3) 0.0517 Uani
C4E C 0.7134(4) 1.2900(3) 0.0403(3) 0.0383 Uani
H1K H 0.8081 0.9636 -0.1720 0.1500 Uiso
C6K C 0.7641(5) 1.0673(5) -0.2423(5) 0.0700 Uani
C5E C 0.7893(3) 1.2092(3) 0.0415(4) 0.0420 Uani
H3E H 0.6780 1.3136 0.0200 0.0460 Uiso
C7E C 0.7603(3) 1.2503(3) -0.0027(4) 0.0333 Uani
O2K O 0.7964(6) 1.1089(5) -0.2429(6) 0.1417 Uani
H4E H 0.8101 1.1701 0.0255 0.0500 Uiso
C8E C 0.7642(3) 1.2494(3) -0.0812(4) 0.0397 Uani
Zn3K Zn 0.80771(5) 1.19082(5) -0.19596(5) 0.0480 Uani
O3E O 0.7200(2) 1.28205(19) -0.10533(18) 0.0268 Uani
O4E O 0.7920(6) 1.2086(6) -0.1115(6) 0.1667 Uani
O6K O 0.8879(9) 1.1902(8) -0.2143(8) 0.2480 Uani
O5B O 0.7556(2) 1.2444(2) -0.2556(2) 0.0420 Uani
Zn4C Zn 0.69662(4) 1.30338(4) -0.19662(4) 0.0366 Uani
loop_
_atom_site_aniso_label
_atom_site_aniso_U_11
_atom_site_aniso_U_22
_atom_site_aniso_U_33
_atom_site_aniso_U_23
_atom_site_aniso_U_13
_atom_site_aniso_U_12
Zn1 0.0413(4) 0.0413(4) 0.0413(4) 0.0101(4) -0.0101(4) -0.0101(4)
O1 0.0250(15) 0.0250(15) 0.0250(15) -0.0052(15) 0.0052(15) 0.0052(15)
N1 0.067(3) 0.074(4) 0.047(3) -0.006(3) -0.020(3) -0.036(3)
Zn2 0.0400(4) 0.0429(5) 0.0385(5) 0.0111(4) -0.0162(4) -0.0169(4)
N2 0.040(2) 0.020(2) 0.024(2) 0.0133(18) -0.011(2) -0.014(2)
C1 0.114(8) 0.132(8) 0.128(8) 0.006(8) -0.003(8) 0.004(8)
N3 0.067(3) 0.0108(19) 0.045(3) 0.006(2) 0.003(3) -0.014(2)
N4 0.02 0.05 0.085 -0.019 -0.002 0.003
C2 0.133(5) 0.140(6) 0.119(5) -0.002(5) 0.005(5) 0.011(5)
C3 0.034(3) 0.071(3) 0.064(3) 0.012(3) 0.001(3) 0.010(3)
C4 0.028(3) 0.043(3) 0.044(3) 0.011(3) -0.005(3) 0.006(3)
C5 0.034 0.052 0.04 -0.008 0 -0.02
C6 0.057(3) 0.072(3) 0.081(3) -0.001(3) 0.007(2) 0.000(2)
C7 0.044(3) 0.042(3) 0.014(2) 0.000(2) 0.011(2) -0.020(3)
O2 0.154(5) 0.141(5) 0.130(5) 0.018(4) -0.005(4) -0.007(4)
C8 0.038 0.045 0.036 0.015 0.016 0
Zn3 0.0514(5) 0.0413(5) 0.0512(5) -0.0063(4) 0.0118(4) -0.0199(4)
O3 0.0235 0.0178 0.039 -0.0004 0.0002 0.0098
O4 0.172 0.164 0.164 0 0.003 -0.002
O5 0.0420(19) 0.0420(19) 0.0420(19) 0.0101(19) 0.0101(19) -0.0101(19)
O6 0.249 0.246 0.249 0 0.001 0.002
Zn4 0.0366 0.0366 0.0366 -0.0021 -0.0021 -0.0021
N1F 0.047 0.067 0.074 0.036 0.006 -0.02
N1I 0.074 0.047 0.067 0.02 -0.036 0.006
Zn2F 0.0385 0.04 0.0429 0.0169 -0.0111 -0.0162
Zn2I 0.0429 0.0385 0.04 0.0162 -0.0169 -0.0111
N4F 0.085 0.02 0.05 -0.003 0.019 -0.002
O4K 0.164 0.164 0.172 -0.003 0.002 0
Zn3E 0.0512 0.0514 0.0413 -0.0199 0.0063 -0.0118
Zn4A 0.0366(3) 0.0366(3) 0.0366(3) 0.0021(4) 0.0021(4) -0.0021(4)
Zn3G 0.0512 0.0514 0.0413 0.0199 -0.0063 -0.0118
Zn3J 0.0413 0.0512 0.0514 0.0118 0.0199 0.0063
C8K 0.045 0.036 0.038 -0.016 0 0.015
O5A 0.042 0.042 0.042 -0.0101 -0.0101 -0.0101
O2E 0.13 0.154 0.141 -0.007 -0.018 0.005
O6E 0.249 0.249 0.246 0.002 0 -0.001
O3K 0.0178 0.039 0.0235 -0.0002 -0.0098 -0.0004
O3A 0.0235 0.0178 0.039 0.0004 -0.0002 0.0098
O3F 0.039 0.0235 0.0178 -0.0098 0.0004 0.0002
C7K 0.042 0.014 0.044 -0.011 0.02 0
C6E 0.081 0.057 0.072 0 0.001 -0.007
C4K 0.043 0.044 0.028 0.005 -0.006 0.011
C5K 0.052 0.04 0.034 0 0.02 -0.008
C3E 0.064 0.034 0.071 0.01 -0.012 -0.001
N3K 0.0108 0.045 0.067 -0.003 0.014 0.006
N4C 0.02 0.05 0.085 -0.019 0.002 -0.003
C1E 0.128 0.114 0.132 0.004 -0.006 0.003
C2E 0.119 0.133 0.14 0.011 0.002 -0.005
Zn2K 0.0429 0.0385 0.04 0.0162 0.0169 0.0111
Zn2C 0.04 0.0429 0.0385 0.0111 0.0162 0.0169
N1E 0.047 0.067 0.074 -0.036 0.006 0.02
N2E 0.024 0.04 0.02 -0.014 -0.0133 0.011
N2K 0.02 0.024 0.04 0.011 0.014 0.0133
O1C 0.025 0.025 0.025 -0.0052 -0.0052 -0.0052
N4K 0.05 0.085 0.02 0.002 -0.003 -0.019
Zn1B 0.0413 0.0413 0.0413 -0.0101 -0.0101 0.0101
Zn2E 0.0385 0.04 0.0429 -0.0169 -0.0111 0.0162
N1K 0.074 0.047 0.067 0.02 0.036 -0.006
C2K 0.14 0.119 0.133 -0.005 -0.011 -0.002
Zn1C 0.0413 0.0413 0.0413 0.0101 0.0101 0.0101
Zn2H 0.0429 0.0385 0.04 -0.0162 -0.0169 0.0111
O1B 0.025 0.025 0.025 0.0052 0.0052 -0.0052
N3E 0.045 0.067 0.0108 -0.014 -0.006 -0.003
N4E 0.085 0.02 0.05 0.003 0.019 0.002
C1K 0.132 0.128 0.114 0.003 -0.004 0.006
C3K 0.071 0.064 0.034 -0.001 -0.01 0.012
N4H 0.05 0.085 0.02 -0.002 0.003 -0.019
C4E 0.044 0.028 0.043 0.006 -0.011 0.005
C6K 0.072 0.081 0.057 -0.007 0 -0.001
C5E 0.04 0.034 0.052 -0.02 0.008 0
C7E 0.014 0.044 0.042 -0.02 0 -0.011
O2K 0.141 0.13 0.154 0.005 0.007 0.018
C8E 0.036 0.038 0.045 0 -0.015 -0.016
Zn3K 0.0413 0.0512 0.0514 -0.0118 0.0199 -0.0063
O3E 0.039 0.0235 0.0178 0.0098 0.0004 -0.0002
O4E 0.164 0.172 0.164 -0.002 0 -0.003
O6K 0.246 0.249 0.249 -0.001 -0.002 0
O5B 0.042 0.042 0.042 -0.0101 0.0101 0.0101
Zn4C 0.0366 0.0366 0.0366 -0.0021 0.0021 0.0021
loop_
_geom_bond_atom_site_label_1
_geom_bond_atom_site_label_2
_geom_bond_site_symmetry_1
_geom_bond_site_symmetry_2
Zn1 O1 1_555 1_555
O1 Zn2 1_555 1_555
N1 Zn1 1_555 1_555
Zn2 N2 1_555 1_555
N2 N1 1_555 1_555
C1 N1 1_555 1_555
N3 Zn2 1_555 1_555
N4 Zn2 1_555 1_555
C2 N2 1_555 1_555
H1 C1 1_555 1_555
C3 C1 1_555 1_555
C4 N3 1_555 1_555
C5 C7 1_555 1_555
H2 C2 1_555 1_555
C6 C3 1_555 1_555
H3 C4 1_555 1_555
C7 C4 1_555 1_555
H4 C5 1_555 1_555
O2 C6 1_555 1_555
C8 C7 1_555 1_555
Zn3 O2 1_555 1_555
O3 C8 1_555 1_555
O4 C8 1_555 1_555
O5 Zn3 1_555 1_555
O6 Zn3 1_555 1_555
Zn4 O3 1_555 1_555
N1F Zn1 1_555 1_555
N1I Zn1 1_555 1_555
Zn2F O1 1_555 1_555
Zn2I O1 1_555 1_555
N4F N3 1_555 1_555
O4K Zn3 1_555 1_555
Zn3E O4 1_555 1_555
Zn4A O5 1_555 1_555
Zn3G O5 1_555 1_555
Zn3J O5 1_555 1_555
C8K O4K 1_555 1_555
O5A Zn4 1_555 1_555
O2E Zn3E 1_555 1_555
O6E Zn3E 1_555 1_555
O3K Zn4A 1_555 1_555
O3A Zn4A 1_555 1_555
O3F Zn4A 1_555 1_555
C7K C8K 1_555 1_555
C6E O2E 1_555 1_555
C4K C7K 1_555 1_555
C5K C7K 1_555 1_555
C3E C6E 1_555 1_555
N3K C4K 1_555 1_555
H3K C4K 1_555 1_555
N4C C5K 1_555 1_555
H4K C5K 1_555 1_555
C1E C3E 1_555 1_555
C2E C3E 1_555 1_555
Zn2K N3K 1_555 1_555
Zn2C N4C 1_555 1_555
N1E C1E 1_555 1_555
H1E C1E 1_555 1_555
N2E C2E 1_555 1_555
H2E C2E 1_555 1_555
N2K Zn2K 1_555 1_555
O1C Zn2K 1_555 1_555
N4K Zn2K 1_555 1_555
Zn1B N1E 1_555 1_555
Zn2E N2E 1_555 1_555
N1K N2K 1_555 1_555
C2K N2K 1_555 1_555
Zn1C O1C 1_555 1_555
Zn2H O1B 1_555 1_555
O1B Zn1B 1_555 1_555
N3E Zn2E 1_555 1_555
N4E Zn2E 1_555 1_555
C1K N1K 1_555 1_555
C3K C2K 1_555 1_555
H2K C2K 1_555 1_555
N4H Zn2H 1_555 1_555
C4E N3E 1_555 1_555
H1K C1K 1_555 1_555
C6K C3K 1_555 1_555
C5E N4H 1_555 1_555
H3E C4E 1_555 1_555
C7E C4E 1_555 1_555
O2K C6K 1_555 1_555
H4E C5E 1_555 1_555
C8E C7E 1_555 1_555
Zn3K O2K 1_555 1_555
O3E C8E 1_555 1_555
O4E C8E 1_555 1_555
O6K Zn3K 1_555 1_555
O5B Zn3K 1_555 1_555
Zn4C O3E 1_555 1_555
C2 C3 1_555 1_555
C5 N4F 1_555 1_555
Zn2F N4F 1_555 1_555
Zn3E O5A 1_555 1_555
C8K O3K 1_555 1_555
N3K N4C 1_555 1_555
Zn2C O1C 1_555 1_555
N1E N2E 1_555 1_555
Zn2E O1B 1_555 1_555
N1K Zn1C 1_555 1_555
N3E N4H 1_555 1_555
C1K C3K 1_555 1_555
C5E C7E 1_555 1_555
Zn3K O4E 1_555 1_555
O5B Zn4C 1_555 1_555

#END
