
#######################################################################
#
#                 Cambridge Crystallographic Data Centre
#                                CCDC 
#
#######################################################################
#
# If this CIF has been generated from an entry in the Cambridge 
# Structural Database, then it will include bibliographic, chemical, 
# crystal, experimental, refinement or atomic coordinate data resulting 
# from the CCDC's data processing and validation procedures.
#
#######################################################################

data_HUWHOY
_chemical_formula_moiety         '(C64 H50 Cd3 N10 O15)n'
_symmetry_cell_setting           monoclinic
_symmetry_space_group_name_H-M   'P 21'
_symmetry_Int_Tables_number      4
_space_group_name_Hall           'P 2yb'
loop_
_symmetry_equiv_pos_site_id
_symmetry_equiv_pos_as_xyz
1 x,y,z
2 -x,1/2+y,-z
_cell_length_a                   15.0810(5)
_cell_length_b                   14.5380(4)
_cell_length_c                   17.9350(5)
_cell_angle_alpha                90
_cell_angle_beta                 95.951(3)
_cell_angle_gamma                90
_cell_volume                     3911.01
loop_
_atom_site_label
_atom_site_type_symbol
_atom_site_fract_x
_atom_site_fract_y
_atom_site_fract_z
Cd1 Cd 0.37838(4) 0.81752(4) 0.44631(3)
Cd2 Cd 0.46582(4) 1.10405(4) 0.47998(3)
Cd3 Cd 0.09343(5) 1.13285(6) -0.16500(4)
O1 O 0.5188(4) 0.8231(5) 0.5251(3)
C1 C 0.6935(6) 1.0339(6) 0.5961(5)
N1 N 0.4544(5) 0.8200(6) 1.3450(3)
O2 O 0.3677(4) 0.9892(4) 0.4378(3)
C2 C 0.6347(6) 0.9639(5) 0.5713(4)
H1 H 0.5794 0.9797 0.5468
N2 N 0.3176(5) 0.8045(7) 0.5547(3)
O3 O 0.6213(5) 0.7171(4) 0.5610(4)
O4 O 0.7227(5) 1.1944(5) 0.6066(4)
C3 C 0.2436(6) 1.0649(7) 0.3667(4)
H2 H 0.2867 1.1130 0.3576
C4 C 0.3559(5) 0.8191(6) 0.6176(4)
H3 H 0.4124 0.8451 0.6256
N3 N 0.4180(5) 1.0743(5) -0.4072(4)
C5 C 0.8036(6) 0.9204(7) 0.6317(5)
O5 O 0.5930(4) 1.1520(4) 0.5465(3)
C6 C 0.5925(6) 0.7995(5) 0.5531(4)
O6 O 0.2600(4) 0.9020(4) 0.3839(4)
C7 C 0.7453(6) 0.8509(7) 0.6145(5)
H4 H 0.7622 0.7901 0.6236
N4 N 0.5441(5) 1.0662(6) 0.3835(4)
N5 N 0.4704(6) 0.8178(6) 1.2237(4)
O7 O 0.9134(5) 0.8569(6) 0.7257(5)
C8 C 0.4127(7) 0.8175(8) 1.2752(5)
H5 H 0.3511 0.8159 1.2641
N6 N 0.4105(5) 1.0593(5) -0.2853(4)
C9 C 0.5466(6) 0.8230(7) 1.3413(6)
H6 H 0.5915 0.8274 1.3808
O8 O 0.1755(4) 1.0857(5) -0.0478(4)
C10 C 0.6688(6) 1.1337(6) 0.5821(5)
N7 N 0.1865(4) 1.0450(5) 0.2977(4)
C11 C 0.8975(7) 0.8992(7) 0.6653(6)
C12 C 0.1796(6) 1.0999(7) 0.4190(5)
H7 H 0.2049 1.1521 0.4475
H8 H 0.1657 1.0521 0.4536
C13 C 0.4028(8) 0.8117(9) 0.9918(6)
C14 C 0.4421(9) 0.8101(10) 0.8577(6)
H9 H 0.5023 0.8154 0.8744
C15 C 0.3313(7) 0.8004(9) 0.7537(6)
C16 C 0.3692(7) 1.0609(8) -0.1580(5)
H10 H 0.3095 1.0671 -0.1762
C17 C 0.4614(6) 1.0802(6) -0.3407(5)
H11 H 0.5211 1.0970 -0.3323
C18 C 0.0579(6) 0.8714(8) 0.1203(5)
O9 O 0.0412(6) 1.0247(6) -0.0801(4)
C19 C 0.3253(6) 1.0374(7) -0.3212(5)
H12 H 0.2746 1.0200 -0.2992
C20 C 0.5054(5) 1.0619(6) 0.3157(4)
H13 H 0.4440 1.0621 0.3030
C21 C 0.4822(7) 1.0496(7) -0.0522(5)
C22 C 0.3942(6) 1.0571(8) -0.0825(5)
H14 H 0.3501 1.0596 -0.0501
C23 C 0.5062(7) 0.7838(8) 1.0993(5)
H15 H 0.5602 0.7591 1.1199
C24 C 0.1664(7) 0.9810(7) 0.1721(5)
C25 C 0.5461(6) 1.0414(8) -0.1028(5)
H16 H 0.6055 1.0341 -0.0841
C26 C 0.6316(7) 1.0681(8) 0.3774(4)
H17 H 0.6745 1.0734 0.4183
O10 O 0.3069(4) 1.0135(6) 0.2370(4)
N8 N 0.5665(5) 1.0571(5) 0.2657(4)
N9 N 0.3065(6) 0.7928(7) 0.6756(4)
C27 C 0.5250(6) 1.0436(7) -0.1781(5)
H18 H 0.5695 1.0374 -0.2099
C28 C 0.2927(5) 0.9782(6) 0.3977(5)
C29 C 0.6513(6) 1.0614(8) 0.3059(6)
H19 H 0.7069 1.0600 0.2878
O11 O 1.1427(5) 1.0083(9) 0.7585(5)
O12 O 1.0091(6) 1.0632(6) 0.7320(5)
C30 C 0.1114(8) 1.0390(8) -0.0366(6)
C31 C 0.2245(6) 1.0139(7) 0.2368(5)
N10 N 0.9604(6) 0.9337(8) 0.6243(5)
C32 C 0.3786(8) 0.8112(11) 0.9094(5)
C33 C 0.0946(6) 1.0580(8) 0.3079(6)
H20 H 0.0683 1.0010 0.3232
H21 H 0.0615 1.0791 0.2618
C34 C 1.0587(8) 0.9393(10) 0.6556(7)
H22 H 1.0785 0.8782 0.6735
C35 C 0.4160(10) 0.8011(9) 0.7827(5)
H23 H 0.4599 0.7951 0.7503
C36 C 1.0699(7) 1.0069(9) 0.7217(6)
C37 C 0.3343(7) 1.0476(7) -0.3943(5)
H24 H 0.2884 1.0374 -0.4321
C38 C 0.0571(7) 0.9181(10) 0.0505(5)
H25 H 0.0171 0.8990 0.0105
C39 C 0.7794(7) 1.0117(7) 0.6243(5)
H26 H 0.8206 1.0578 0.6381
C40 C 0.2354(7) 0.7601(11) 0.5621(6)
H27 H 0.1955 0.7367 0.5238
C41 C 0.1085(7) 0.9076(7) 0.1813(6)
H28 H 0.1043 0.8834 0.2288
C42 C 0.5556(7) 0.8179(9) 1.2644(5)
H29 H 0.6094 0.8149 1.2434
C43 C 0.4358(6) 1.0553(6) -0.2082(5)
C44 C 0.5479(6) 1.0519(6) 0.1863(5)
C45 C 0.5071(7) 1.0477(7) 0.0310(5)
C46 C 0.4492(7) 0.8198(9) 1.1448(4)
C47 C 0.1709(6) 1.0208(7) 0.1018(5)
H30 H 0.2118 1.0674 0.0955
C48 C 0.4853(9) 0.7834(8) 1.0228(5)
H31 H 0.5273 0.7637 0.9919
C49 C 0.2914(8) 0.8174(15) 0.8792(6)
H32 H 0.2472 0.8280 0.9106
C50 C 0.6550(7) 0.8733(6) 0.5814(5)
C51 C 0.4648(8) 1.0890(15) 0.1534(6)
H33 H 0.4245 1.1177 0.1817
C52 C 0.6060(8) 1.0213(14) 0.1413(6)
H34 H 0.6618 1.0018 0.1624
O13 O 0.0077(8) 0.7456(8) 0.1896(7)
C53 C 0.0940(7) 1.1293(8) 0.3680(6)
H35 H 0.0410 1.1252 0.3941
H36 H 0.0992 1.1910 0.3483
C54 C 0.2681(10) 0.8083(13) 0.8029(6)
H37 H 0.2081 0.8074 0.7846
C55 C 0.5861(9) 1.0174(15) 0.0632(6)
H38 H 0.6278 0.9937 0.0336
C56 C 0.1126(6) 0.9894(8) 0.0403(5)
C57 C 1.1052(10) 0.9635(13) 0.5912(8)
H39 H 1.1627 0.9331 0.5940
H40 H 1.1145 1.0294 0.5893
C58 C 0.4489(7) 1.0793(14) 0.0770(6)
H41 H 0.3927 1.0962 0.0550
C59 C 0.0013(8) 0.7915(10) 0.1314(6)
O14 O -0.0577(10) 0.7625(11) 0.0815(8)
C60 C 0.2269(8) 0.7587(12) 0.6398(6)
H42 H 0.1776 0.7389 0.6626
C61 C 0.3708(10) 0.8606(12) 1.1145(8)
H43 H 0.3335 0.8900 1.1451
C62 C 0.9494(9) 0.9679(18) 0.5509(8)
H44 H 0.9446 1.0344 0.5497
H45 H 0.8982 0.9410 0.5217
C63 C 1.0460(11) 0.9315(14) 0.5221(11)
H46 H 1.0475 0.8653 0.5155
H47 H 1.0599 0.9621 0.4767
C64 C 0.3486(9) 0.8569(11) 1.0365(7)
H48 H 0.2969 0.8853 1.0151
O15 O 0.1918(8) 1.2099(10) -0.2229(7)
Cd1_2 Cd 0.37838(4) 0.81752(4) 1.44631(3)
Cd1A Cd 0.62162(4) 1.31752(4) 0.55369(3)
Cd2_2 Cd 0.46582(4) 1.10405(4) -0.52002(3)
Cd2A Cd 0.53418(4) 0.60405(4) 0.52002(3)
Cd3_2 Cd 1.09343(5) 1.13285(6) 0.83500(4)
Cd3A Cd -0.09343(5) 0.63285(6) 0.16500(4)
N1_2 N 0.4544(5) 0.8200(6) 0.3450(3)
O3A O 0.3787(5) 1.2171(4) 0.4390(4)
O4A O 0.2773(5) 0.6944(5) 0.3934(4)
N3_2 N 0.4180(5) 1.0743(5) 0.5928(4)
O5A O 0.4070(4) 0.6520(4) 0.4535(3)
O11_2 O 0.1427(5) 1.0083(9) -0.2415(5)
O12_2 O 0.0091(6) 1.0632(6) -0.2680(5)
O13A O -0.0077(8) 1.2456(8) -0.1896(7)
O14A O 0.0577(10) 1.2625(11) -0.0815(8)
loop_
_geom_bond_atom_site_label_1
_geom_bond_atom_site_label_2
_geom_bond_site_symmetry_1
_geom_bond_site_symmetry_2
Cd1 O1 1_555 1_555
Cd2 O2 1_555 1_555
Cd3 O8 1_555 1_555
O1 C6 1_555 1_555
C1 C2 1_555 1_555
N1 C8 1_555 1_555
O2 Cd1 1_555 1_555
C2 H1 1_555 1_555
N2 Cd1 1_555 1_555
O3 C6 1_555 1_555
O4 C10 1_555 1_555
C3 H2 1_555 1_555
C4 N2 1_555 1_555
H3 C4 1_555 1_555
N3 C17 1_555 1_555
C5 C7 1_555 1_555
O5 Cd2 1_555 1_555
C6 C50 1_555 1_555
O6 Cd1 1_555 1_555
C7 H4 1_555 1_555
N4 Cd2 1_555 1_555
N5 C8 1_555 1_555
O7 C11 1_555 1_555
C8 H5 1_555 1_555
N6 C17 1_555 1_555
C9 N1 1_555 1_555
H6 C9 1_555 1_555
O8 C30 1_555 1_555
C10 C1 1_555 1_555
N7 C3 1_555 1_555
C11 C5 1_555 1_555
C12 C3 1_555 1_555
H7 C12 1_555 1_555
H8 C12 1_555 1_555
C13 C32 1_555 1_555
C14 H9 1_555 1_555
C15 N9 1_555 1_555
C16 H10 1_555 1_555
C17 H11 1_555 1_555
C18 C38 1_555 1_555
O9 Cd3 1_555 1_555
C19 N6 1_555 1_555
H12 C19 1_555 1_555
C20 N4 1_555 1_555
H13 C20 1_555 1_555
C21 C22 1_555 1_555
C22 C16 1_555 1_555
H14 C22 1_555 1_555
C23 H15 1_555 1_555
C24 C31 1_555 1_555
C25 C21 1_555 1_555
H16 C25 1_555 1_555
C26 N4 1_555 1_555
H17 C26 1_555 1_555
O10 C31 1_555 1_555
N8 C20 1_555 1_555
N9 C4 1_555 1_555
C27 C25 1_555 1_555
H18 C27 1_555 1_555
C28 O2 1_555 1_555
C29 C26 1_555 1_555
H19 C29 1_555 1_555
O11 C36 1_555 1_555
O12 C36 1_555 1_555
C30 O9 1_555 1_555
C31 N7 1_555 1_555
N10 C11 1_555 1_555
C32 C14 1_555 1_555
C33 N7 1_555 1_555
H20 C33 1_555 1_555
H21 C33 1_555 1_555
C34 N10 1_555 1_555
H22 C34 1_555 1_555
C35 C14 1_555 1_555
H23 C35 1_555 1_555
C36 C34 1_555 1_555
C37 N3 1_555 1_555
H24 C37 1_555 1_555
C38 H25 1_555 1_555
C39 C1 1_555 1_555
H26 C39 1_555 1_555
C40 N2 1_555 1_555
H27 C40 1_555 1_555
C41 C18 1_555 1_555
H28 C41 1_555 1_555
C42 N5 1_555 1_555
H29 C42 1_555 1_555
C43 N6 1_555 1_555
C44 N8 1_555 1_555
C45 C21 1_555 1_555
C46 N5 1_555 1_555
C47 C24 1_555 1_555
H30 C47 1_555 1_555
C48 C13 1_555 1_555
H31 C48 1_555 1_555
C49 C32 1_555 1_555
H32 C49 1_555 1_555
C50 C2 1_555 1_555
C51 C44 1_555 1_555
H33 C51 1_555 1_555
C52 C44 1_555 1_555
H34 C52 1_555 1_555
O13 C59 1_555 1_555
C53 C12 1_555 1_555
H35 C53 1_555 1_555
H36 C53 1_555 1_555
C54 C15 1_555 1_555
H37 C54 1_555 1_555
C55 C45 1_555 1_555
H38 C55 1_555 1_555
C56 C30 1_555 1_555
C57 C34 1_555 1_555
H39 C57 1_555 1_555
H40 C57 1_555 1_555
C58 C45 1_555 1_555
H41 C58 1_555 1_555
C59 C18 1_555 1_555
O14 C59 1_555 1_555
C60 N9 1_555 1_555
H42 C60 1_555 1_555
C61 C46 1_555 1_555
H43 C61 1_555 1_555
C62 N10 1_555 1_555
H44 C62 1_555 1_555
H45 C62 1_555 1_555
C63 C57 1_555 1_555
H46 C63 1_555 1_555
H47 C63 1_555 1_555
C64 C13 1_555 1_555
H48 C64 1_555 1_555
O15 Cd3 1_555 1_555
Cd1_2 N1 1_555 1_555
Cd1A O4 1_555 1_555
Cd2_2 N3 1_555 1_555
Cd2A O3 1_555 1_555
Cd3_2 O11 1_555 1_555
Cd3A O13 1_555 1_555
N1_2 Cd1 1_555 1_555
O3A Cd2 1_555 1_555
O4A Cd1 1_555 1_555
N3_2 Cd2 1_555 1_555
O5A Cd1 1_555 1_555
O11_2 Cd3 1_555 1_555
O12_2 Cd3 1_555 1_555
O13A Cd3 1_555 1_555
O14A Cd3 1_555 1_555
C3 C28 1_555 1_555
C5 C39 1_555 1_555
O5 C10 1_555 1_555
O5 Cd1A 1_555 1_555
O6 C28 1_555 1_555
C7 C50 1_555 1_555
C9 C42 1_555 1_555
C15 C35 1_555 1_555
C16 C43 1_555 1_555
C19 C37 1_555 1_555
C23 C46 1_555 1_555
C23 C48 1_555 1_555
C24 C41 1_555 1_555
N8 C29 1_555 1_555
C27 C43 1_555 1_555
O12 Cd3_2 1_555 1_555
C33 C53 1_555 1_555
C38 C56 1_555 1_555
C40 C60 1_555 1_555
C47 C56 1_555 1_555
C49 C54 1_555 1_555
C51 C58 1_555 1_555
C52 C55 1_555 1_555
O14 Cd3A 1_555 1_555
C61 C64 1_555 1_555
C62 C63 1_555 1_555
Cd2A O5A 1_555 1_555

#END
