
#######################################################################
#
#                 Cambridge Crystallographic Data Centre
#                                CCDC 
#
#######################################################################
#
# If this CIF has been generated from an entry in the Cambridge 
# Structural Database, then it will include bibliographic, chemical, 
# crystal, experimental, refinement or atomic coordinate data resulting 
# from the CCDC's data processing and validation procedures.
#
#######################################################################

data_HUXHOZ
_chemical_formula_moiety         'C66 H46 Cd11 N11 O19'
_symmetry_cell_setting           orthorhombic
_symmetry_space_group_name_H-M   'P 21 21 2'
_symmetry_Int_Tables_number      18
_space_group_name_Hall           'P 2 2ab'
loop_
_symmetry_equiv_pos_site_id
_symmetry_equiv_pos_as_xyz
1 x,y,z
2 -x,-y,z
3 1/2-x,1/2+y,-z
4 1/2+x,1/2-y,-z
_cell_length_a                   15.8454(12)
_cell_length_b                   20.9947(15)
_cell_length_c                   13.9809(7)
_cell_angle_alpha                90
_cell_angle_beta                 90
_cell_angle_gamma                90
_cell_volume                     4651.02
loop_
_atom_site_label
_atom_site_type_symbol
_atom_site_fract_x
_atom_site_fract_y
_atom_site_fract_z
Cd1 Cd 0.25303(3) 0.089965(19) 0.60111(3)
Cd2 Cd 0.5000 0.0000 0.58015(4)
N1 N 0.5000 0.0000 -0.2534(4)
N2 N 0.2664(4) 0.0864(2) 0.4343(2)
C1 C 0.2600(5) 0.02767(18) 0.3891(3)
H1 H 0.2570 -0.0094 0.4252
C2 C 0.2582(6) 0.0244(2) 0.2898(3)
H2 H 0.2539 -0.0149 0.2595
C3 C 0.2627(5) 0.0798(3) 0.2358(2)
C4 C 0.2691(7) 0.1386(2) 0.2810(3)
H3 H 0.2721 0.1757 0.2448
C5 C 0.2710(6) 0.14190(18) 0.3803(3)
H4 H 0.2753 0.1812 0.4105
N3 N 0.2479(5) 0.1015(3) -0.2335(3)
O1 O 0.3556(2) -0.0040(2) 0.5921(3)
O2 O 0.2205(3) -0.0177(2) 0.6204(3)
C6 C 0.2936(4) -0.0397(3) 0.6098(5)
O3 O 0.1233(3) -0.3602(2) 0.3749(3)
O4 O -0.1791(3) -0.2043(2) 0.5720(4)
O5 O -0.1153(3) -0.1123(3) 0.5826(4)
O6 O 0.2222(4) -0.1188(3) 0.4477(4)
O7 O 0.0001(3) -0.38974(19) 0.4365(3)
N4 N 0.5000 0.0000 0.4138(5)
N5 N 0.2321(3) -0.1456(3) 0.6025(5)
C7 C 0.0485(4) -0.2839(3) 0.4648(5)
C8 C 0.5000 -0.0000 -0.0562(8)
C9 C 0.2502(8) 0.1114(4) -0.0351(5)
C10 C 0.2643(7) 0.1533(4) -0.1909(5)
H5 H 0.2761 0.1888 -0.2285
C11 C -0.0346(4) -0.1992(3) 0.5354(5)
C12 C 0.0572(4) -0.3511(3) 0.4219(4)
C13 C 0.5304(7) 0.0513(6) 0.3665(5)
H6 H 0.5493 0.0871 0.3993
C14 C 0.2337(10) 0.0522(5) -0.1749(6)
H7 H 0.2260 0.0121 -0.2018
C15 C 0.2661(7) 0.1612(5) -0.0917(5)
H8 H 0.2782 0.2008 -0.0653
C16 C 0.2568(9) 0.1177(5) 0.0720(5)
H9 H 0.2580 0.1593 0.0948
C17 C 0.1197(4) -0.2447(3) 0.4689(5)
H10 H 0.1711 -0.2594 0.4454
C18 C -0.0273(4) -0.2611(3) 0.5002(5)
H11 H -0.0744 -0.2876 0.5005
C19 C 0.4644(5) 0.0467(4) -0.2073(5)
H12 H 0.4378 0.0794 -0.2404
C20 C 0.3087(4) -0.1101(3) 0.6165(6)
H13 H 0.3514 -0.1233 0.5699
C21 C -0.1149(4) -0.1709(4) 0.5670(5)
C22 C 0.1147(4) -0.1870(3) 0.5059(5)
C23 C 0.2301(11) 0.0578(6) -0.0784(6)
H14 H 0.2130 0.0230 -0.0420
C24 C 0.1944(5) -0.1474(3) 0.5139(6)
C25 C 0.2608(8) 0.0777(6) 0.1316(5)
H15 H 0.2631 0.0366 0.1068
C26 C 0.0406(5) -0.1630(3) 0.5380(6)
H16 H 0.0391 -0.1218 0.5622
C27 C 0.4665(6) 0.0469(6) -0.1093(6)
H17 H 0.4432 0.0816 -0.0776
C28 C 0.5324(8) 0.0487(6) 0.2623(6)
C29 C 0.5000 0.0000 0.2134(10)
C30 C 0.2039(6) -0.1812(5) 0.6923(7)
H18 H 0.1582 -0.1590 0.7240
H19 H 0.1857 -0.2241 0.6769
C31 C 0.3355(6) -0.1291(5) 0.7168(8)
H20 H 0.3940 -0.1427 0.7160
H21 H 0.3308 -0.0927 0.7592
C32 C 0.2811(11) -0.1822(8) 0.7530(12)
H22 H 0.3100 -0.2227 0.7473
H23 H 0.2666 -0.1754 0.8197
C33 C 0.519(4) -0.028(3) 0.133(4)
C34 C 0.503(4) 0.0310(18) 0.072(3)
C13A C 0.4696(7) -0.0513(6) 0.3665(5)
H6A H 0.4507 -0.0871 0.3993
C28A C 0.4676(8) -0.0487(6) 0.2623(6)
C33A C 0.481(4) 0.028(3) 0.133(4)
C34A C 0.497(4) -0.0310(18) 0.072(3)
C19A C 0.5356(5) -0.0467(4) -0.2073(5)
H12A H 0.5622 -0.0794 -0.2404
C27A C 0.5335(6) -0.0469(6) -0.1093(6)
H17A H 0.5568 -0.0816 -0.0776
Cd1A Cd -0.25303(3) -0.089965(19) 0.60111(3)
N2A N -0.2664(4) -0.0864(2) 0.4343(2)
C1A C -0.2600(5) -0.02767(18) 0.3891(3)
H1A H -0.2570 0.0094 0.4252
C2A C -0.2582(6) -0.0244(2) 0.2898(3)
H2A H -0.2539 0.0149 0.2595
C3A C -0.2627(5) -0.0798(3) 0.2358(2)
C4A C -0.2691(7) -0.1386(2) 0.2810(3)
H3A H -0.2721 -0.1757 0.2448
C5A C -0.2710(6) -0.14190(18) 0.3803(3)
H4A H -0.2753 -0.1812 0.4105
N3A N -0.2479(5) -0.1015(3) -0.2335(3)
O1A O -0.3556(2) 0.0040(2) 0.5921(3)
O2A O -0.2205(3) 0.0177(2) 0.6204(3)
C6A C -0.2936(4) 0.0397(3) 0.6098(5)
O3A O -0.1233(3) 0.3602(2) 0.3749(3)
O4A O 0.1791(3) 0.2043(2) 0.5720(4)
O5A O 0.1153(3) 0.1123(3) 0.5826(4)
O6A O -0.2222(4) 0.1188(3) 0.4477(4)
O7A O -0.0001(3) 0.38974(19) 0.4365(3)
N5A N -0.2321(3) 0.1456(3) 0.6025(5)
C7A C -0.0485(4) 0.2839(3) 0.4648(5)
C9A C -0.2502(8) -0.1114(4) -0.0351(5)
C10A C -0.2643(7) -0.1533(4) -0.1909(5)
H5A H -0.2761 -0.1888 -0.2285
C11A C 0.0346(4) 0.1992(3) 0.5354(5)
C12A C -0.0572(4) 0.3511(3) 0.4219(4)
C14A C -0.2337(10) -0.0522(5) -0.1749(6)
H7A H -0.2260 -0.0121 -0.2018
C15A C -0.2661(7) -0.1612(5) -0.0917(5)
H8A H -0.2782 -0.2008 -0.0653
C16A C -0.2568(9) -0.1177(5) 0.0720(5)
H9A H -0.2580 -0.1593 0.0948
C17A C -0.1197(4) 0.2447(3) 0.4689(5)
H10A H -0.1711 0.2594 0.4454
C18A C 0.0273(4) 0.2611(3) 0.5002(5)
H11A H 0.0744 0.2876 0.5005
C20A C -0.3087(4) 0.1101(3) 0.6165(6)
H13A H -0.3514 0.1233 0.5699
C21A C 0.1149(4) 0.1709(4) 0.5670(5)
C22A C -0.1147(4) 0.1870(3) 0.5059(5)
C23A C -0.2301(11) -0.0578(6) -0.0784(6)
H14A H -0.2130 -0.0230 -0.0420
C24A C -0.1944(5) 0.1474(3) 0.5139(6)
C25A C -0.2608(8) -0.0777(6) 0.1316(5)
H15A H -0.2631 -0.0366 0.1068
C26A C -0.0406(5) 0.1630(3) 0.5380(6)
H16A H -0.0391 0.1218 0.5622
C30A C -0.2039(6) 0.1812(5) 0.6923(7)
H18A H -0.1582 0.1590 0.7240
H19A H -0.1857 0.2241 0.6769
C31A C -0.3355(6) 0.1291(5) 0.7168(8)
H20A H -0.3940 0.1427 0.7160
H21A H -0.3308 0.0927 0.7592
C32A C -0.2811(11) 0.1822(8) 0.7530(12)
H22A H -0.3100 0.2227 0.7473
H23A H -0.2666 0.1754 0.8197
Cd1_2 Cd 0.25303(3) 0.089965(19) -0.39889(3)
Cd1A_2 Cd -0.25303(3) -0.089965(19) -0.39889(3)
Cd1B Cd 0.24697(3) -0.410035(19) 0.39889(3)
Cd1C Cd -0.24697(3) 0.410035(19) 0.39889(3)
Cd2_2 Cd -0.5000 0.0000 0.58015(4)
Cd2_3 Cd 0.5000 0.0000 -0.41985(4)
Cd2B Cd 0.0000 -0.5000 0.41985(4)
Cd2B_2 Cd 0.0000 0.5000 0.41985(4)
N1_2 N 0.5000 -0.0000 0.7466(4)
N3_2 N 0.2479(5) 0.1015(3) 0.7665(3)
N3A_2 N -0.2479(5) -0.1015(3) 0.7665(3)
O1A_2 O 0.6444(2) 0.0040(2) 0.5921(3)
O3B O 0.3767(3) 0.1398(2) 0.6251(3)
O3C O -0.3767(3) -0.1398(2) 0.6251(3)
O7B O 0.4999(3) 0.11026(19) 0.5635(3)
O7C O 0.5001(3) -0.11026(19) 0.5635(3)
loop_
_geom_bond_atom_site_label_1
_geom_bond_atom_site_label_2
_geom_bond_site_symmetry_1
_geom_bond_site_symmetry_2
Cd1 N2 1_555 1_555
Cd2 O1 1_555 1_555
N1 C19 1_555 1_555
N2 C1 1_555 1_555
C1 H1 1_555 1_555
C2 C1 1_555 1_555
H2 C2 1_555 1_555
C3 C2 1_555 1_555
C4 C3 1_555 1_555
H3 C4 1_555 1_555
C5 N2 1_555 1_555
H4 C5 1_555 1_555
N3 C10 1_555 1_555
O1 Cd1 1_555 1_555
O2 Cd1 1_555 1_555
C6 O1 1_555 1_555
O3 C12 1_555 1_555
O4 C21 1_555 1_555
O5 C21 1_555 1_555
O6 C24 1_555 1_555
O7 C12 1_555 1_555
N4 Cd2 1_555 1_555
N5 C20 1_555 1_555
C7 C12 1_555 1_555
C8 C27 1_555 1_555
C9 C15 1_555 1_555
C10 H5 1_555 1_555
C11 C18 1_555 1_555
C13 N4 1_555 1_555
H6 C13 1_555 1_555
C14 N3 1_555 1_555
H7 C14 1_555 1_555
C15 C10 1_555 1_555
H8 C15 1_555 1_555
C16 C9 1_555 1_555
H9 C16 1_555 1_555
C17 C7 1_555 1_555
H10 C17 1_555 1_555
C18 C7 1_555 1_555
H11 C18 1_555 1_555
C19 H12 1_555 1_555
C20 C6 1_555 1_555
H13 C20 1_555 1_555
C21 C11 1_555 1_555
C22 C17 1_555 1_555
C23 C9 1_555 1_555
H14 C23 1_555 1_555
C24 N5 1_555 1_555
C25 C3 1_555 1_555
H15 C25 1_555 1_555
C26 C11 1_555 1_555
H16 C26 1_555 1_555
C27 C19 1_555 1_555
H17 C27 1_555 1_555
C28 C13 1_555 1_555
C29 C28 1_555 1_555
C30 N5 1_555 1_555
H18 C30 1_555 1_555
H19 C30 1_555 1_555
C31 C20 1_555 1_555
H20 C31 1_555 1_555
H21 C31 1_555 1_555
C32 C30 1_555 1_555
H22 C32 1_555 1_555
H23 C32 1_555 1_555
C33 C29 1_555 1_555
C34 C8 1_555 1_555
C13A N4 1_555 1_555
H6A C13A 1_555 1_555
C28A C29 1_555 1_555
C33A C29 1_555 1_555
C34A C8 1_555 1_555
C19A N1 1_555 1_555
H12A C19A 1_555 1_555
C27A C8 1_555 1_555
H17A C27A 1_555 1_555
Cd1A O4 1_555 1_555
N2A Cd1A 1_555 1_555
C1A N2A 1_555 1_555
H1A C1A 1_555 1_555
C2A C1A 1_555 1_555
H2A C2A 1_555 1_555
C3A C2A 1_555 1_555
C4A C3A 1_555 1_555
H3A C4A 1_555 1_555
C5A N2A 1_555 1_555
H4A C5A 1_555 1_555
N3A C10A 1_555 1_555
O1A Cd1A 1_555 1_555
O2A Cd1A 1_555 1_555
C6A O1A 1_555 1_555
O3A C12A 1_555 1_555
O4A Cd1 1_555 1_555
O5A Cd1 1_555 1_555
O6A C24A 1_555 1_555
O7A C12A 1_555 1_555
N5A C20A 1_555 1_555
C7A C12A 1_555 1_555
C9A C15A 1_555 1_555
C10A H5A 1_555 1_555
C11A C18A 1_555 1_555
C14A N3A 1_555 1_555
H7A C14A 1_555 1_555
C15A C10A 1_555 1_555
H8A C15A 1_555 1_555
C16A C9A 1_555 1_555
H9A C16A 1_555 1_555
C17A C7A 1_555 1_555
H10A C17A 1_555 1_555
C18A C7A 1_555 1_555
H11A C18A 1_555 1_555
C20A C6A 1_555 1_555
H13A C20A 1_555 1_555
C21A O4A 1_555 1_555
C22A C17A 1_555 1_555
C23A C9A 1_555 1_555
H14A C23A 1_555 1_555
C24A N5A 1_555 1_555
C25A C3A 1_555 1_555
H15A C25A 1_555 1_555
C26A C11A 1_555 1_555
H16A C26A 1_555 1_555
C30A N5A 1_555 1_555
H18A C30A 1_555 1_555
H19A C30A 1_555 1_555
C31A C20A 1_555 1_555
H20A C31A 1_555 1_555
H21A C31A 1_555 1_555
C32A C30A 1_555 1_555
H22A C32A 1_555 1_555
H23A C32A 1_555 1_555
Cd1_2 N3 1_555 1_555
Cd1A_2 N3A 1_555 1_555
Cd1B O3 1_555 1_555
Cd1C O3A 1_555 1_555
Cd2_2 O1A 1_555 1_555
Cd2_3 N1 1_555 1_555
Cd2B O7 1_555 1_555
Cd2B_2 O7A 1_555 1_555
N1_2 Cd2 1_555 1_555
N3_2 Cd1 1_555 1_555
N3A_2 Cd1A 1_555 1_555
O1A_2 Cd2 1_555 1_555
O3B Cd1 1_555 1_555
O3C Cd1A 1_555 1_555
O7B Cd2 1_555 1_555
O7C Cd2 1_555 1_555
C4 C5 1_555 1_555
O2 C6 1_555 1_555
O5 Cd1A 1_555 1_555
C14 C23 1_555 1_555
C16 C25 1_555 1_555
C22 C24 1_555 1_555
C22 C26 1_555 1_555
C31 C32 1_555 1_555
C33 C34 1_555 1_555
C33 C33A 1_555 1_555
C33 C34A 1_555 1_555
C34 C33A 1_555 1_555
C34 C34A 1_555 1_555
C13A C28A 1_555 1_555
C33A C34A 1_555 1_555
C19A C27A 1_555 1_555
C4A C5A 1_555 1_555
O2A C6A 1_555 1_555
O5A C21A 1_555 1_555
C11A C21A 1_555 1_555
C14A C23A 1_555 1_555
C16A C25A 1_555 1_555
C22A C24A 1_555 1_555
C22A C26A 1_555 1_555
C31A C32A 1_555 1_555

#END
