
#######################################################################
#
#                 Cambridge Crystallographic Data Centre
#                                CCDC 
#
#######################################################################
#
# If this CIF has been generated from an entry in the Cambridge 
# Structural Database, then it will include bibliographic, chemical, 
# crystal, experimental, refinement or atomic coordinate data resulting 
# from the CCDC's data processing and validation procedures.
#
#######################################################################

data_HUXHUF01
_chemical_formula_moiety         'C67 H50 Cd10 N10 O19'
_symmetry_cell_setting           orthorhombic
_symmetry_space_group_name_H-M   'P 21 21 2'
_symmetry_Int_Tables_number      18
_space_group_name_Hall           'P 2 2ab'
loop_
_symmetry_equiv_pos_site_id
_symmetry_equiv_pos_as_xyz
1 x,y,z
2 -x,-y,z
3 1/2-x,1/2+y,-z
4 1/2+x,1/2-y,-z
_cell_length_a                   15.9133(8)
_cell_length_b                   20.9595(9)
_cell_length_c                   13.9143(6)
_cell_angle_alpha                90
_cell_angle_beta                 90
_cell_angle_gamma                90
_cell_volume                     4640.9
loop_
_atom_site_label
_atom_site_type_symbol
_atom_site_fract_x
_atom_site_fract_y
_atom_site_fract_z
Cd1 Cd 0.74856(3) 1.409186(19) 1.10109(3)
Cd2 Cd 0.5000 2.0000 0.91742(4)
N1 N 0.5000 2.0000 0.7510(4)
C1 C 0.5000 2.0000 1.2817(7)
N2 N 0.7626(4) 1.4139(3) 1.9337(3)
N3 N 0.7354(4) 1.3998(3) 1.2688(4)
O1 O 0.8548(2) 1.5021(2) 1.0930(3)
O2 O 0.7208(3) 1.5178(2) 1.1226(4)
O3 O 0.5031(3) 1.88854(17) 0.9335(3)
O4 O 0.3927(3) 1.6092(2) 1.0843(4)
O5 O 0.3265(3) 1.6996(2) 1.0706(4)
N4 N 0.5000 2.0000 1.0808(5)
C2 C 0.5613(4) 1.8497(3) 0.9182(4)
C3 C 0.3910(4) 1.6682(3) 1.0666(4)
C4 C 0.7943(4) 1.5379(3) 1.1131(5)
N5 N 0.7376(4) 1.6468(3) 1.1061(5)
C5 C 0.6261(4) 1.7462(3) 0.9691(5)
H1 H 0.6770 1.7617 0.9460
C6 C 0.4783(4) 1.7595(3) 0.9970(5)
H2 H 0.4307 1.7852 0.9950
C7 C 0.5528(4) 1.7830(3) 0.9624(5)
O6 O 0.6262(3) 1.86000(19) 0.8701(3)
C8 C 0.7610(7) 1.4653(4) 1.8864(5)
H3 H 0.7579 1.5029 1.9217
C9 C 0.6214(4) 1.6867(3) 1.0106(5)
C10 C 0.4715(4) 1.6972(3) 1.0356(5)
C11 C 0.7036(5) 1.6492(3) 1.0201(6)
C12 C 0.7616(6) 1.3509(4) 1.3188(5)
H4 H 0.7862 1.3172 1.2854
C13 C 0.7555(6) 1.3456(4) 1.4154(5)
H5 H 0.7802 1.3113 1.4471
C14 C 0.5496(4) 1.6631(3) 1.0442(5)
H6 H 0.5499 1.6235 1.0741
C15 C 0.5509(5) 1.9613(4) 0.7052(4)
H7 H 0.5857 1.9343 0.7403
C16 C 0.7775(7) 1.4228(5) 1.6259(5)
H8 H 0.7782 1.4673 1.6068
H9 H 0.8305 1.4038 1.6069
C17 C 0.7143(6) 1.3893(5) 1.4643(7)
O7 O 0.7312(3) 1.6208(2) 0.9540(4)
C18 C 0.7053(5) 1.6783(5) 1.1965(8)
H10 H 0.6616 1.6529 1.2264
H11 H 0.6836 1.7206 1.1832
C19 C 0.7634(7) 1.4712(4) 1.7892(5)
H12 H 0.7624 1.5114 1.7608
C20 C 0.5345(6) 2.0477(5) 1.1298(5)
H13 H 0.5574 2.0821 1.0965
C21 C 0.8108(4) 1.6077(3) 1.1264(6)
H14 H 0.8563 1.6205 1.0830
C22 C 0.6995(6) 1.4452(5) 1.3218(6)
H15 H 0.6834 1.4829 1.2918
C23 C 0.8362(6) 1.6232(4) 1.2277(8)
H16 H 0.8960 1.6320 1.2301
H17 H 0.8247 1.5871 1.2692
C24 C 0.7674(6) 1.4180(5) 1.7341(5)
C25 C 0.6851(7) 1.4389(5) 1.4197(6)
H18 H 0.6549 1.4698 1.4529
C26 C 0.7703(8) 1.3633(6) 1.7808(6)
H19 H 0.7721 1.3250 1.7471
C27 C 0.7707(6) 1.3632(5) 1.8795(7)
H20 H 0.7773 1.3240 1.9102
C28 C 0.7087(7) 1.3902(7) 1.5778(6)
H21 H 0.6564 1.4105 1.5962
H22 H 0.7068 1.3464 1.6006
C29 C 0.7869(9) 1.6817(8) 1.2627(11)
H23 H 0.8181 1.7209 1.2520
H24 H 0.7727 1.6782 1.3302
C30 C 0.5536(8) 1.9597(6) 0.6103(9)
C31 C 0.5373(6) 2.0475(6) 1.2330(9)
H25 H 0.5647 2.0801 1.2658
C32 C 0.505(3) 1.9750(14) 1.382(2)
C33 C 0.4775(10) 1.9820(7) 0.5585(11)
C34 C 0.5295(16) 2.0310(12) 1.4254(19)
C15A C 0.4491(5) 2.0387(4) 0.7052(4)
H7A H 0.4143 2.0657 0.7403
C30A C 0.4464(8) 2.0403(6) 0.6103(9)
C33A C 0.5225(10) 2.0180(7) 0.5585(11)
C20A C 0.4655(6) 1.9523(5) 1.1298(5)
H13A H 0.4426 1.9179 1.0965
C31A C 0.4627(6) 1.9525(6) 1.2330(9)
H25A H 0.4353 1.9199 1.2658
C32A C 0.495(3) 2.0250(14) 1.382(2)
C34A C 0.4705(16) 1.9690(12) 1.4254(19)
Cd1A Cd 0.25144(3) 1.590814(19) 1.10109(3)
N2A N 0.2374(4) 1.5861(3) 1.9337(3)
N3A N 0.2646(4) 1.6002(3) 1.2688(4)
O1A O 0.1452(2) 1.4979(2) 1.0930(3)
O2A O 0.2792(3) 1.4822(2) 1.1226(4)
O3A O 0.4969(3) 1.11146(17) 0.9335(3)
O4A O 0.6073(3) 1.3908(2) 1.0843(4)
O5A O 0.6735(3) 1.3004(2) 1.0706(4)
C2A C 0.4387(4) 1.1503(3) 0.9182(4)
C3A C 0.6090(4) 1.3318(3) 1.0666(4)
C4A C 0.2057(4) 1.4621(3) 1.1131(5)
N5A N 0.2624(4) 1.3532(3) 1.1061(5)
C5A C 0.3739(4) 1.2538(3) 0.9691(5)
H1A H 0.3230 1.2383 0.9460
C6A C 0.5217(4) 1.2405(3) 0.9970(5)
H2A H 0.5693 1.2148 0.9950
C7A C 0.4472(4) 1.2170(3) 0.9624(5)
O6A O 0.3738(3) 1.14000(19) 0.8701(3)
C8A C 0.2390(7) 1.5347(4) 1.8864(5)
H3A H 0.2421 1.4971 1.9217
C9A C 0.3786(4) 1.3133(3) 1.0106(5)
C10A C 0.5285(4) 1.3028(3) 1.0356(5)
C11A C 0.2964(5) 1.3508(3) 1.0201(6)
C12A C 0.2384(6) 1.6491(4) 1.3188(5)
H4A H 0.2138 1.6828 1.2854
C13A C 0.2445(6) 1.6544(4) 1.4154(5)
H5A H 0.2198 1.6887 1.4471
C14A C 0.4504(4) 1.3369(3) 1.0442(5)
H6A H 0.4501 1.3765 1.0741
C16A C 0.2225(7) 1.5772(5) 1.6259(5)
H8A H 0.2218 1.5327 1.6068
H9A H 0.1695 1.5962 1.6069
C17A C 0.2857(6) 1.6107(5) 1.4643(7)
O7A O 0.2688(3) 1.3792(2) 0.9540(4)
C18A C 0.2947(5) 1.3217(5) 1.1965(8)
H10A H 0.3384 1.3471 1.2264
H11A H 0.3164 1.2794 1.1832
C19A C 0.2366(7) 1.5288(4) 1.7892(5)
H12A H 0.2376 1.4886 1.7608
C21A C 0.1892(4) 1.3923(3) 1.1264(6)
H14A H 0.1437 1.3795 1.0830
C22A C 0.3005(6) 1.5548(5) 1.3218(6)
H15A H 0.3166 1.5171 1.2918
C23A C 0.1638(6) 1.3768(4) 1.2277(8)
H16A H 0.1040 1.3680 1.2301
H17A H 0.1753 1.4129 1.2692
C24A C 0.2326(6) 1.5820(5) 1.7341(5)
C25A C 0.3149(7) 1.5611(5) 1.4197(6)
H18A H 0.3451 1.5302 1.4529
C26A C 0.2297(8) 1.6367(6) 1.7808(6)
H19A H 0.2279 1.6750 1.7471
C27A C 0.2293(6) 1.6368(5) 1.8795(7)
H20A H 0.2227 1.6760 1.9102
C28A C 0.2913(7) 1.6098(7) 1.5778(6)
H21A H 0.3436 1.5895 1.5962
H22A H 0.2932 1.6536 1.6006
C29A C 0.2131(9) 1.3183(8) 1.2627(11)
H23A H 0.1819 1.2791 1.2520
H24A H 0.2273 1.3218 1.3302
Cd1_2 Cd 0.74856(3) 1.409186(19) 2.10109(3)
Cd1A_2 Cd 0.25144(3) 1.590814(19) 2.10109(3)
Cd1B Cd 0.75144(3) 1.909186(19) 0.89891(3)
Cd1C Cd 0.24856(3) 1.090814(19) 0.89891(3)
Cd2_2 Cd 0.5000 1.0000 0.91742(4)
Cd2B Cd 0.0000 1.5000 1.08258(4)
Cd2B_2 Cd 1.0000 1.5000 1.08258(4)
N2_2 N 0.7626(4) 1.4139(3) 0.9337(3)
N2A_2 N 0.2374(4) 1.5861(3) 0.9337(3)
O1B O 0.6452(2) 2.0021(2) 0.9070(3)
O1C O 0.3548(2) 1.9979(2) 0.9070(3)
O3A_2 O 0.4969(3) 2.11146(17) 0.9335(3)
O6B O 0.8738(3) 1.36000(19) 1.1299(3)
O6C O 0.1262(3) 1.64000(19) 1.1299(3)
loop_
_geom_bond_atom_site_label_1
_geom_bond_atom_site_label_2
_geom_bond_site_symmetry_1
_geom_bond_site_symmetry_2
Cd1 N3 1_555 1_555
Cd2 N1 1_555 1_555
N1 C15 1_555 1_555
C1 C31 1_555 1_555
N2 C8 1_555 1_555
N3 C12 1_555 1_555
O1 Cd1 1_555 1_555
O2 Cd1 1_555 1_555
O3 Cd2 1_555 1_555
O4 C3 1_555 1_555
O5 C3 1_555 1_555
N4 Cd2 1_555 1_555
C2 O3 1_555 1_555
C3 C10 1_555 1_555
C4 O1 1_555 1_555
N5 C11 1_555 1_555
C5 H1 1_555 1_555
C6 H2 1_555 1_555
C7 C2 1_555 1_555
O6 C2 1_555 1_555
C8 H3 1_555 1_555
C9 C5 1_555 1_555
C10 C6 1_555 1_555
C11 C9 1_555 1_555
C12 H4 1_555 1_555
C13 C12 1_555 1_555
H5 C13 1_555 1_555
C14 C9 1_555 1_555
H6 C14 1_555 1_555
C15 H7 1_555 1_555
C16 H8 1_555 1_555
H9 C16 1_555 1_555
C17 C13 1_555 1_555
O7 C11 1_555 1_555
C18 N5 1_555 1_555
H10 C18 1_555 1_555
H11 C18 1_555 1_555
C19 C8 1_555 1_555
H12 C19 1_555 1_555
C20 N4 1_555 1_555
H13 C20 1_555 1_555
C21 C4 1_555 1_555
H14 C21 1_555 1_555
C22 N3 1_555 1_555
H15 C22 1_555 1_555
C23 C21 1_555 1_555
H16 C23 1_555 1_555
H17 C23 1_555 1_555
C24 C16 1_555 1_555
C25 C17 1_555 1_555
H18 C25 1_555 1_555
C26 C24 1_555 1_555
H19 C26 1_555 1_555
C27 N2 1_555 1_555
H20 C27 1_555 1_555
C28 C16 1_555 1_555
H21 C28 1_555 1_555
H22 C28 1_555 1_555
C29 C18 1_555 1_555
H23 C29 1_555 1_555
H24 C29 1_555 1_555
C30 C15 1_555 1_555
C31 C20 1_555 1_555
H25 C31 1_555 1_555
C32 C1 1_555 1_555
C33 C30 1_555 1_555
C34 C32 1_555 1_555
C15A N1 1_555 1_555
H7A C15A 1_555 1_555
C30A C33 1_555 1_555
C33A C30 1_555 1_555
C20A N4 1_555 1_555
H13A C20A 1_555 1_555
C31A C1 1_555 1_555
H25A C31A 1_555 1_555
C32A C1 1_555 1_555
C34A C32 1_555 1_555
Cd1A O4 1_555 1_555
N2A C8A 1_555 1_555
N3A Cd1A 1_555 1_555
O1A Cd1A 1_555 1_555
O2A Cd1A 1_555 1_555
O3A C2A 1_555 1_555
O4A Cd1 1_555 1_555
O5A Cd1 1_555 1_555
C2A C7A 1_555 1_555
C3A O4A 1_555 1_555
C4A O1A 1_555 1_555
N5A C11A 1_555 1_555
C5A H1A 1_555 1_555
C6A H2A 1_555 1_555
C7A C5A 1_555 1_555
O6A C2A 1_555 1_555
C8A H3A 1_555 1_555
C9A C5A 1_555 1_555
C10A C3A 1_555 1_555
C11A C9A 1_555 1_555
C12A N3A 1_555 1_555
H4A C12A 1_555 1_555
C13A C12A 1_555 1_555
H5A C13A 1_555 1_555
C14A C9A 1_555 1_555
H6A C14A 1_555 1_555
C16A H8A 1_555 1_555
H9A C16A 1_555 1_555
C17A C13A 1_555 1_555
O7A C11A 1_555 1_555
C18A N5A 1_555 1_555
H10A C18A 1_555 1_555
H11A C18A 1_555 1_555
C19A C8A 1_555 1_555
H12A C19A 1_555 1_555
C21A C4A 1_555 1_555
H14A C21A 1_555 1_555
C22A N3A 1_555 1_555
H15A C22A 1_555 1_555
C23A C21A 1_555 1_555
H16A C23A 1_555 1_555
H17A C23A 1_555 1_555
C24A C16A 1_555 1_555
C25A C17A 1_555 1_555
H18A C25A 1_555 1_555
C26A C24A 1_555 1_555
H19A C26A 1_555 1_555
C27A N2A 1_555 1_555
H20A C27A 1_555 1_555
C28A C16A 1_555 1_555
H21A C28A 1_555 1_555
H22A C28A 1_555 1_555
C29A C18A 1_555 1_555
H23A C29A 1_555 1_555
H24A C29A 1_555 1_555
Cd1_2 N2 1_555 1_555
Cd1A_2 N2A 1_555 1_555
Cd1B O6 1_555 1_555
Cd1C O6A 1_555 1_555
Cd2_2 O3A 1_555 1_555
Cd2B O1A 1_555 1_555
Cd2B_2 O1 1_555 1_555
N2_2 Cd1 1_555 1_555
N2A_2 Cd1A 1_555 1_555
O1B Cd2 1_555 1_555
O1C Cd2 1_555 1_555
O3A_2 Cd2 1_555 1_555
O6B Cd1 1_555 1_555
O6C Cd1A 1_555 1_555
O2 C4 1_555 1_555
O5 Cd1A 1_555 1_555
N5 C21 1_555 1_555
C5 C7 1_555 1_555
C6 C7 1_555 1_555
C10 C14 1_555 1_555
C17 C28 1_555 1_555
C19 C24 1_555 1_555
C22 C25 1_555 1_555
C23 C29 1_555 1_555
C26 C27 1_555 1_555
C32 C32A 1_555 1_555
C33 C33A 1_555 1_555
C34 C32A 1_555 1_555
C34 C34A 1_555 1_555
C15A C30A 1_555 1_555
C30A C33A 1_555 1_555
C20A C31A 1_555 1_555
C32A C34A 1_555 1_555
O2A C4A 1_555 1_555
O5A C3A 1_555 1_555
N5A C21A 1_555 1_555
C6A C7A 1_555 1_555
C6A C10A 1_555 1_555
C10A C14A 1_555 1_555
C17A C28A 1_555 1_555
C19A C24A 1_555 1_555
C22A C25A 1_555 1_555
C23A C29A 1_555 1_555
C26A C27A 1_555 1_555
Cd1B O1B 1_555 1_555

#END
