
#######################################################################
#
#                 Cambridge Crystallographic Data Centre
#                                CCDC 
#
#######################################################################
#
# If this CIF has been generated from an entry in the Cambridge 
# Structural Database, then it will include bibliographic, chemical, 
# crystal, experimental, refinement or atomic coordinate data resulting 
# from the CCDC's data processing and validation procedures.
#
#######################################################################

data_MOYQIB
_chemical_formula_moiety         'C52 H48 Cl1 Co3 N12 O6 1-'
_symmetry_cell_setting           orthorhombic
_symmetry_space_group_name_H-M   'F d d d'
_symmetry_Int_Tables_number      70
_space_group_name_Hall           '-F 2uv 2vw'
loop_
_symmetry_equiv_pos_site_id
_symmetry_equiv_pos_as_xyz
1 x,y,z
2 3/4-x,3/4-y,z
3 3/4-x,y,3/4-z
4 x,3/4-y,3/4-z
5 x,1/2+y,1/2+z
6 3/4-x,1/4-y,1/2+z
7 3/4-x,1/2+y,1/4-z
8 x,1/4-y,1/4-z
9 1/2+x,y,1/2+z
10 1/4-x,3/4-y,1/2+z
11 1/4-x,y,1/4-z
12 1/2+x,3/4-y,1/4-z
13 1/2+x,1/2+y,z
14 1/4-x,1/4-y,z
15 1/4-x,1/2+y,3/4-z
16 1/2+x,1/4-y,3/4-z
17 -x,-y,-z
18 1/4+x,1/4+y,-z
19 1/4+x,-y,1/4+z
20 -x,1/4+y,1/4+z
21 -x,1/2-y,1/2-z
22 1/4+x,3/4+y,1/2-z
23 1/4+x,1/2-y,3/4+z
24 -x,3/4+y,3/4+z
25 1/2-x,-y,1/2-z
26 3/4+x,1/4+y,1/2-z
27 3/4+x,-y,3/4+z
28 1/2-x,1/4+y,3/4+z
29 1/2-x,1/2-y,-z
30 3/4+x,3/4+y,-z
31 3/4+x,1/2-y,1/4+z
32 1/2-x,3/4+y,1/4+z
_cell_length_a                   13.5179(9)
_cell_length_b                   25.9084(17)
_cell_length_c                   30.351(2)
_cell_angle_alpha                90
_cell_angle_beta                 90
_cell_angle_gamma                90
_cell_volume                     10629.7
loop_
_atom_site_label
_atom_site_type_symbol
_atom_site_fract_x
_atom_site_fract_y
_atom_site_fract_z
_atom_site_U_iso_or_equiv
_atom_site_thermal_displace_type
Cl1 Cl 0.6250 0.39208(4) 0.6250 0.1149 Uani
O1 O 0.6305(4) 0.42085(16) 0.66316(14) 0.2453 Uani
O2 O 0.5467(3) 0.3646(2) 0.62867(16) 0.3110 Uani
O1J O 0.6195(4) 0.42085(16) 0.58684(14) 0.2453 Uani
O2J O 0.7033(3) 0.3646(2) 0.62133(16) 0.3110 Uani
Co1 Co 1.3750 0.8750 0.8750 0.0593 Uani
O3 O 1.3750 0.8750 0.94636(8) 0.1094 Uani
N1 N 1.25800(13) 0.81355(7) 0.87851(6) 0.0569 Uani
N2 N 1.16221(14) 0.75227(7) 0.84906(6) 0.0583 Uani
N3 N 1.3750 0.8750 1.01959(9) 0.1757 Uani
C1 C 1.16432(17) 0.81507(9) 0.89869(8) 0.0589 Uani
C2 C 1.1272(2) 0.84754(12) 0.93093(9) 0.0768 Uani
H1 H 1.1665 0.8728 0.9439 0.0920 Uiso
C3 C 1.0298(2) 0.84093(14) 0.94307(10) 0.0943 Uani
H2 H 1.0029 0.8624 0.9645 0.1130 Uiso
C4 C 0.9709(2) 0.80308(13) 0.92423(11) 0.0948 Uani
H3 H 0.9058 0.7997 0.9337 0.1140 Uiso
C5 C 1.00562(19) 0.77016(11) 0.89194(10) 0.0774 Uani
H4 H 0.9659 0.7450 0.8791 0.0930 Uiso
C6 C 1.10396(16) 0.77721(9) 0.87990(8) 0.0580 Uani
C7 C 1.25184(16) 0.77583(9) 0.85038(8) 0.0583 Uani
H5 H 1.3045 0.7658 0.8326 0.0700 Uiso
C8 C 1.13122(19) 0.71170(10) 0.81892(9) 0.0697 Uani
H6 H 1.1892 0.6965 0.8053 0.0840 Uiso
H7 H 1.0976 0.6848 0.8354 0.0840 Uiso
C9 C 1.06260(16) 0.73209(8) 0.78329(8) 0.0561 Uani
C10 C 1.08769(19) 0.77404(10) 0.75749(9) 0.0714 Uani
H8 H 1.1477 0.7906 0.7624 0.0860 Uiso
C11 C 0.97346(19) 0.70830(10) 0.77497(8) 0.0681 Uani
H9 H 0.9547 0.6798 0.7917 0.0820 Uiso
C12 C 1.3649(5) 0.8524(2) 0.97917(10) 0.1057 Uani
C13 C 1.3692(7) 0.8282(3) 1.0429(3) 0.4120 Uani
H10 H 1.4235 0.8258 1.0632 0.6180 Uiso
H11 H 1.3079 0.8268 1.0588 0.6180 Uiso
H12 H 1.3722 0.7998 1.0225 0.6180 Uiso
Co1T Co 0.6250 0.6250 0.6250 0.0593 Uani
Co1X Co 2.1250 1.1250 0.6250 0.0593 Uani
O3B O 1.3750 0.8750 0.80364(8) 0.1094 Uani
N1T N 0.74200(13) 0.68645(7) 0.62149(6) 0.0569 Uani
N1A N 1.49200(13) 0.93645(7) 0.87851(6) 0.0569 Uani
N1Y N 2.00800(13) 1.06355(7) 0.62149(6) 0.0569 Uani
N1B N 1.49200(13) 0.81355(7) 0.87149(6) 0.0569 Uani
N1C N 1.25800(13) 0.93645(7) 0.87149(6) 0.0569 Uani
N2T N 0.83779(14) 0.74773(7) 0.65094(6) 0.0583 Uani
N2A N 1.58779(14) 0.99773(7) 0.84906(6) 0.0583 Uani
N2Y N 1.91221(14) 1.00227(7) 0.65094(6) 0.0583 Uani
N3B N 1.3750 0.8750 0.73041(9) 0.1757 Uani
C1T C 0.83568(17) 0.68493(9) 0.60131(8) 0.0589 Uani
C1A C 1.58568(17) 0.93493(9) 0.89869(8) 0.0589 Uani
C1Y C 1.91432(17) 1.06507(9) 0.60131(8) 0.0589 Uani
C2T C 0.8728(2) 0.65246(12) 0.56907(9) 0.0768 Uani
C2A C 1.6228(2) 0.90246(12) 0.93093(9) 0.0768 Uani
C2Y C 1.8772(2) 1.09754(12) 0.56907(9) 0.0768 Uani
H1T H 0.8335 0.6272 0.5561 0.0920 Uiso
H1A H 1.5835 0.8772 0.9439 0.0920 Uiso
H1Y H 1.9165 1.1228 0.5561 0.0920 Uiso
C3T C 0.9702(2) 0.65907(14) 0.55693(10) 0.0943 Uani
C3A C 1.7202(2) 0.90907(14) 0.94307(10) 0.0943 Uani
C3Y C 1.7798(2) 1.09093(14) 0.55693(10) 0.0943 Uani
H2T H 0.9971 0.6376 0.5355 0.1130 Uiso
H2A H 1.7471 0.8876 0.9645 0.1130 Uiso
H2Y H 1.7529 1.1124 0.5355 0.1130 Uiso
C4T C 1.0291(2) 0.69692(13) 0.57577(11) 0.0948 Uani
C4A C 1.7791(2) 0.94692(13) 0.92423(11) 0.0948 Uani
C4Y C 1.7209(2) 1.05308(13) 0.57577(11) 0.0948 Uani
H3T H 1.0942 0.7003 0.5663 0.1140 Uiso
H3A H 1.8442 0.9503 0.9337 0.1140 Uiso
H3Y H 1.6558 1.0497 0.5663 0.1140 Uiso
C5T C 0.99438(19) 0.72984(11) 0.60806(10) 0.0774 Uani
C5A C 1.74438(19) 0.97984(11) 0.89194(10) 0.0774 Uani
C5Y C 1.75562(19) 1.02016(11) 0.60806(10) 0.0774 Uani
H4T H 1.0341 0.7550 0.6209 0.0930 Uiso
H4A H 1.7841 1.0050 0.8791 0.0930 Uiso
H4Y H 1.7159 0.9950 0.6209 0.0930 Uiso
C6T C 0.89604(16) 0.72279(9) 0.62010(8) 0.0580 Uani
C6A C 1.64604(16) 0.97279(9) 0.87990(8) 0.0580 Uani
C6Y C 1.85396(16) 1.02721(9) 0.62010(8) 0.0580 Uani
C7T C 0.74816(16) 0.72417(9) 0.64962(8) 0.0583 Uani
C7A C 1.49816(16) 0.97417(9) 0.85038(8) 0.0583 Uani
C7Y C 2.00184(16) 1.02583(9) 0.64962(8) 0.0583 Uani
H5T H 0.6955 0.7342 0.6674 0.0700 Uiso
H5A H 1.4455 0.9842 0.8326 0.0700 Uiso
H5Y H 2.0545 1.0158 0.6674 0.0700 Uiso
C8T C 0.86878(19) 0.78830(10) 0.68108(9) 0.0697 Uani
C8A C 1.61878(19) 1.03830(10) 0.81892(9) 0.0697 Uani
C8Y C 1.88122(19) 0.96170(10) 0.68108(9) 0.0697 Uani
H6T H 0.8108 0.8035 0.6947 0.0840 Uiso
H6A H 1.5608 1.0535 0.8053 0.0840 Uiso
H6Y H 1.9392 0.9465 0.6947 0.0840 Uiso
H7T H 0.9024 0.8152 0.6646 0.0840 Uiso
H7A H 1.6524 1.0652 0.8354 0.0840 Uiso
H7Y H 1.8476 0.9348 0.6646 0.0840 Uiso
C9T C 0.93740(16) 0.76791(8) 0.71671(8) 0.0561 Uani
C9A C 1.68740(16) 1.01791(8) 0.78329(8) 0.0561 Uani
C9Y C 1.81260(16) 0.98209(8) 0.71671(8) 0.0561 Uani
C10T C 0.91231(19) 0.72596(10) 0.74251(9) 0.0714 Uani
C10A C 1.66231(19) 0.97596(10) 0.75749(9) 0.0714 Uani
C10Y C 1.83769(19) 1.02404(10) 0.74251(9) 0.0714 Uani
H8T H 0.8523 0.7094 0.7376 0.0860 Uiso
H8A H 1.6023 0.9594 0.7624 0.0860 Uiso
H8Y H 1.8977 1.0406 0.7376 0.0860 Uiso
C11T C 1.02654(19) 0.79170(10) 0.72503(8) 0.0681 Uani
C11A C 1.77654(19) 1.04170(10) 0.77497(8) 0.0681 Uani
C11Y C 1.72346(19) 0.95830(10) 0.72503(8) 0.0681 Uani
H9T H 1.0453 0.8202 0.7083 0.0820 Uiso
H9A H 1.7953 1.0702 0.7917 0.0820 Uiso
H9Y H 1.7047 0.9298 0.7083 0.0820 Uiso
C12A C 1.3851(5) 0.8976(2) 0.97917(10) 0.1057 Uani
C12B C 1.3851(5) 0.8524(2) 0.77083(10) 0.1057 Uani
C12C C 1.3649(5) 0.8976(2) 0.77083(10) 0.1057 Uani
C13A C 1.3808(7) 0.9218(3) 1.0429(3) 0.4120 Uani
C13B C 1.3808(7) 0.8282(3) 0.7071(3) 0.4120 Uani
C13C C 1.3692(7) 0.9218(3) 0.7071(3) 0.4120 Uani
H10A H 1.3265 0.9242 1.0632 0.6180 Uiso
H10B H 1.3265 0.8258 0.6868 0.6180 Uiso
H10C H 1.4235 0.9242 0.6868 0.6180 Uiso
H11A H 1.4421 0.9232 1.0588 0.6180 Uiso
H11B H 1.4421 0.8268 0.6912 0.6180 Uiso
H11C H 1.3079 0.9232 0.6912 0.6180 Uiso
H12A H 1.3778 0.9502 1.0225 0.6180 Uiso
H12B H 1.3778 0.7998 0.7275 0.6180 Uiso
H12C H 1.3722 0.9502 0.7275 0.6180 Uiso
loop_
_atom_site_aniso_label
_atom_site_aniso_U_11
_atom_site_aniso_U_22
_atom_site_aniso_U_33
_atom_site_aniso_U_23
_atom_site_aniso_U_13
_atom_site_aniso_U_12
Cl1 0.1061(7) 0.0631(6) 0.1756(11) 0.000 0.0570(8) 0.000
O1 0.267 0.214 0.255 -0.111 -0.044 0.119
O2 0.312 0.402 0.219 0.109 -0.018 -0.257
O1J 0.267(4) 0.214(3) 0.255(4) 0.111(3) -0.044(4) -0.119(3)
O2J 0.312(3) 0.402(4) 0.219(4) -0.109(3) -0.018(3) 0.257(3)
Co1 0.049 0.0708 0.0581 0 0 0
O3 0.0918 0.186 0.0505 0 0 -0.051
N1 0.043 0.0655 0.0623 -0.0044 -0.0051 -0.0076
N2 0.0513 0.0587 0.0648 -0.0023 -0.0168 -0.0018
N3 0.15 0.327 0.05 0 0 0.058
C1 0.0532 0.0675 0.0561 0.0016 -0.0099 -0.012
C2 0.0715 0.09 0.0688 -0.0129 0.0083 -0.0233
C3 0.0796 0.115 0.0883 -0.0242 0.0279 -0.025
C4 0.0593 0.119 0.106 -0.009 0.0156 -0.0227
C5 0.0521 0.0832 0.097 -0.0003 -0.0051 -0.0169
C6 0.048 0.063 0.0629 0.0041 -0.0094 -0.0048
C7 0.0421 0.0669 0.0659 0.001 -0.0123 0.002
C8 0.0677 0.0606 0.0809 -0.0105 -0.0268 0.0015
C9 0.0511 0.053 0.0642 -0.0109 -0.0101 0.0031
C10 0.054 0.0786 0.0816 0.0013 -0.0196 -0.0182
C11 0.0681 0.063 0.0731 0.0047 -0.0171 -0.0195
C12 0.064 0.177 0.076 0.022 0.012 0.023
C13 0.399 0.44 0.397 0.265 0.219 0.214
Co1T 0.0490(3) 0.0708(4) 0.0581(3) 0.000 0.000 0.000
Co1X 0.049 0.0708 0.0581 0 0 0
O3B 0.0918 0.186 0.0505 0 0 0.051
N1T 0.043 0.0655 0.0623 -0.0044 -0.0051 -0.0076
N1A 0.043 0.0655 0.0623 0.0044 0.0051 -0.0076
N1Y 0.043 0.0655 0.0623 0.0044 0.0051 -0.0076
N1B 0.043 0.0655 0.0623 0.0044 -0.0051 0.0076
N1C 0.043 0.0655 0.0623 -0.0044 0.0051 0.0076
N2T 0.0513 0.0587 0.0648 -0.0023 -0.0168 -0.0018
N2A 0.0513 0.0587 0.0648 0.0023 0.0168 -0.0018
N2Y 0.0513 0.0587 0.0648 0.0023 0.0168 -0.0018
N3B 0.15 0.327 0.05 0 0 -0.058
C1T 0.0532 0.0675 0.0561 0.0016 -0.0099 -0.012
C1A 0.0532 0.0675 0.0561 -0.0016 0.0099 -0.012
C1Y 0.0532 0.0675 0.0561 -0.0016 0.0099 -0.012
C2T 0.0715 0.09 0.0688 -0.0129 0.0083 -0.0233
C2A 0.0715 0.09 0.0688 0.0129 -0.0083 -0.0233
C2Y 0.0715 0.09 0.0688 0.0129 -0.0083 -0.0233
C3T 0.0796 0.115 0.0883 -0.0242 0.0279 -0.025
C3A 0.0796 0.115 0.0883 0.0242 -0.0279 -0.025
C3Y 0.0796 0.115 0.0883 0.0242 -0.0279 -0.025
C4T 0.0593 0.119 0.106 -0.009 0.0156 -0.0227
C4A 0.0593 0.119 0.106 0.009 -0.0156 -0.0227
C4Y 0.0593 0.119 0.106 0.009 -0.0156 -0.0227
C5T 0.0521 0.0832 0.097 -0.0003 -0.0051 -0.0169
C5A 0.0521 0.0832 0.097 0.0003 0.0051 -0.0169
C5Y 0.0521 0.0832 0.097 0.0003 0.0051 -0.0169
C6T 0.048 0.063 0.0629 0.0041 -0.0094 -0.0048
C6A 0.048 0.063 0.0629 -0.0041 0.0094 -0.0048
C6Y 0.048 0.063 0.0629 -0.0041 0.0094 -0.0048
C7T 0.0421 0.0669 0.0659 0.001 -0.0123 0.002
C7A 0.0421 0.0669 0.0659 -0.001 0.0123 0.002
C7Y 0.0421 0.0669 0.0659 -0.001 0.0123 0.002
C8T 0.0677 0.0606 0.0809 -0.0105 -0.0268 0.0015
C8A 0.0677 0.0606 0.0809 0.0105 0.0268 0.0015
C8Y 0.0677 0.0606 0.0809 0.0105 0.0268 0.0015
C9T 0.0511 0.053 0.0642 -0.0109 -0.0101 0.0031
C9A 0.0511 0.053 0.0642 0.0109 0.0101 0.0031
C9Y 0.0511 0.053 0.0642 0.0109 0.0101 0.0031
C10T 0.054 0.0786 0.0816 0.0013 -0.0196 -0.0182
C10A 0.054 0.0786 0.0816 -0.0013 0.0196 -0.0182
C10Y 0.054 0.0786 0.0816 -0.0013 0.0196 -0.0182
C11T 0.0681 0.063 0.0731 0.0047 -0.0171 -0.0195
C11A 0.0681 0.063 0.0731 -0.0047 0.0171 -0.0195
C11Y 0.0681 0.063 0.0731 -0.0047 0.0171 -0.0195
C12A 0.064 0.177 0.076 -0.022 -0.012 0.023
C12B 0.064 0.177 0.076 -0.022 0.012 -0.023
C12C 0.064 0.177 0.076 0.022 -0.012 -0.023
C13A 0.399 0.44 0.397 -0.265 -0.219 0.214
C13B 0.399 0.44 0.397 -0.265 0.219 -0.214
C13C 0.399 0.44 0.397 0.265 -0.219 -0.214
loop_
_geom_bond_atom_site_label_1
_geom_bond_atom_site_label_2
_geom_bond_site_symmetry_1
_geom_bond_site_symmetry_2
Co1 O3 1_555 1_555
Cl1 O1 1_555 1_555
O2 Cl1 1_555 1_555
O3 C12 1_555 1_555
N1 Co1 1_555 1_555
N2 C6 1_555 1_555
N3 C12 1_555 1_555
C1 N1 1_555 1_555
C2 C1 1_555 1_555
H1 C2 1_555 1_555
C3 C2 1_555 1_555
H2 C3 1_555 1_555
C4 C3 1_555 1_555
H3 C4 1_555 1_555
C5 C4 1_555 1_555
H4 C5 1_555 1_555
C6 C1 1_555 1_555
C7 N1 1_555 1_555
H5 C7 1_555 1_555
C8 N2 1_555 1_555
H6 C8 1_555 1_555
H7 C8 1_555 1_555
C9 C8 1_555 1_555
C10 C9 1_555 1_555
H8 C10 1_555 1_555
C11 C9 1_555 1_555
H9 C11 1_555 1_555
C12 C12A 1_555 1_555
C13 N3 1_555 1_555
H10 C13 1_555 1_555
H11 C13 1_555 1_555
H12 C13 1_555 1_555
Co1T N1T 1_555 1_555
Co1X N1Y 1_555 1_555
O1J Cl1 1_555 1_555
O2J Cl1 1_555 1_555
O3B Co1 1_555 1_555
N1T C1T 1_555 1_555
N1A Co1 1_555 1_555
N1Y C1Y 1_555 1_555
N1B Co1 1_555 1_555
N1C Co1 1_555 1_555
N2T C6T 1_555 1_555
N2A C6A 1_555 1_555
N2Y C6Y 1_555 1_555
N3B C12B 1_555 1_555
C1T C2T 1_555 1_555
C1A N1A 1_555 1_555
C1Y C2Y 1_555 1_555
C2T H1T 1_555 1_555
C2A C1A 1_555 1_555
C2Y H1Y 1_555 1_555
H1A C2A 1_555 1_555
C3T C2T 1_555 1_555
C3A C2A 1_555 1_555
C3Y C2Y 1_555 1_555
H2T C3T 1_555 1_555
H2A C3A 1_555 1_555
H2Y C3Y 1_555 1_555
C4T C3T 1_555 1_555
C4A C3A 1_555 1_555
C4Y C3Y 1_555 1_555
H3T C4T 1_555 1_555
H3A C4A 1_555 1_555
H3Y C4Y 1_555 1_555
C5T C4T 1_555 1_555
C5A C4A 1_555 1_555
C5Y C4Y 1_555 1_555
H4T C5T 1_555 1_555
H4A C5A 1_555 1_555
H4Y C5Y 1_555 1_555
C6T C1T 1_555 1_555
C6A C1A 1_555 1_555
C6Y C1Y 1_555 1_555
C7T N1T 1_555 1_555
C7A N1A 1_555 1_555
C7Y N1Y 1_555 1_555
H5T C7T 1_555 1_555
H5A C7A 1_555 1_555
H5Y C7Y 1_555 1_555
C8T N2T 1_555 1_555
C8A N2A 1_555 1_555
C8Y N2Y 1_555 1_555
H6T C8T 1_555 1_555
H6A C8A 1_555 1_555
H6Y C8Y 1_555 1_555
H7T C8T 1_555 1_555
H7A C8A 1_555 1_555
H7Y C8Y 1_555 1_555
C9T C8T 1_555 1_555
C9A C8A 1_555 1_555
C9Y C8Y 1_555 1_555
C10T C11 1_555 1_555
C10A C9A 1_555 1_555
C10Y C9Y 1_555 1_555
H8T C10T 1_555 1_555
H8A C10A 1_555 1_555
H8Y C10Y 1_555 1_555
C11T C10 1_555 1_555
C11A C9A 1_555 1_555
C11Y C9Y 1_555 1_555
H9T C11T 1_555 1_555
H9A C11A 1_555 1_555
H9Y C11Y 1_555 1_555
C12A O3 1_555 1_555
C12B O3B 1_555 1_555
C12C O3B 1_555 1_555
C13A N3 1_555 1_555
C13B N3B 1_555 1_555
C13C N3B 1_555 1_555
H10A C13A 1_555 1_555
H10B C13B 1_555 1_555
H10C C13C 1_555 1_555
H11A C13A 1_555 1_555
H11B C13B 1_555 1_555
H11C C13C 1_555 1_555
H12A C13A 1_555 1_555
H12B C13B 1_555 1_555
H12C C13C 1_555 1_555
N2 C7 1_555 1_555
N3 C12A 1_555 1_555
C5 C6 1_555 1_555
N2T C7T 1_555 1_555
N2A C7A 1_555 1_555
N2Y C7Y 1_555 1_555
N3B C12C 1_555 1_555
C5T C6T 1_555 1_555
C5A C6A 1_555 1_555
C5Y C6Y 1_555 1_555
C9T C10T 1_555 1_555
C9T C11T 1_555 1_555
C10A C11Y 1_555 1_555
C10Y C11A 1_555 1_555
C12B C12C 1_555 1_555

#END
