
#######################################################################
#
#                 Cambridge Crystallographic Data Centre
#                                CCDC 
#
#######################################################################
#
# If this CIF has been generated from an entry in the Cambridge 
# Structural Database, then it will include bibliographic, chemical, 
# crystal, experimental, refinement or atomic coordinate data resulting 
# from the CCDC's data processing and validation procedures.
#
#######################################################################

data_JESDIV
_chemical_formula_moiety         '(C8 H32 F6 Ga4 N4 O18 P6)n'
_symmetry_cell_setting           triclinic
_symmetry_space_group_name_H-M   'P -1'
_symmetry_Int_Tables_number      2
_space_group_name_Hall           '-P 1'
loop_
_symmetry_equiv_pos_site_id
_symmetry_equiv_pos_as_xyz
1 x,y,z
2 -x,-y,-z
_cell_length_a                   7.1072(3)
_cell_length_b                   9.4094(6)
_cell_length_c                   11.7847(5)
_cell_angle_alpha                71.602(3)
_cell_angle_beta                 78.165(3)
_cell_angle_gamma                70.296(3)
_cell_volume                     699.719
loop_
_atom_site_label
_atom_site_type_symbol
_atom_site_fract_x
_atom_site_fract_y
_atom_site_fract_z
Ga1 Ga 1.46521(6) -0.62435(4) 0.83957(3)
Ga2 Ga 1.0000 -0.0000 0.5000
Ga3 Ga 1.5000 -0.0000 0.5000
P1 P 0.64571(13) 0.09833(10) 0.69775(8)
P2 P 1.30990(13) -0.26573(10) 0.67125(8)
P3 P 1.71292(14) -0.45286(11) 0.90563(8)
F1 F 1.2058(3) 0.0887(2) 0.50998(18)
F2 F 1.5254(3) -0.8118(3) 0.96434(19)
F3 F 1.2208(3) -0.6619(3) 0.83680(19)
O1 O 1.7092(4) -0.5790(3) 0.8515(2)
O2 O 1.4009(4) -0.4427(3) 0.7007(2)
O3 O 1.6825(4) -0.4976(3) 1.0416(2)
O4 O 0.6108(4) 0.2561(3) 0.7220(2)
O5 O 0.8666(4) 0.0343(3) 0.6540(2)
O6 O 1.4694(4) -0.1801(3) 0.6310(2)
O7 O 0.4999(4) 0.1070(3) 0.6164(2)
O8 O 1.1573(4) -0.2112(3) 0.5803(2)
O9 O 1.9143(5) -0.4099(4) 0.8571(3)
H13 H 1.586(5) -0.311(4) 0.861(3)
H14 H 1.219(5) -0.227(4) 0.768(3)
H15 H 0.609(10) -0.006(8) 0.807(5)
H16 H 2.028(9) -0.478(7) 0.856(5)
Ga1A Ga 0.53479(6) 0.62435(4) 0.16043(3)
Ga1A_2 Ga 1.53479(6) -0.37565(4) 1.16043(3)
Ga1_2 Ga 0.46521(6) 0.37565(4) 0.83957(3)
Ga1A_3 Ga 1.53479(6) -0.37565(4) 0.16043(3)
Ga3_2 Ga 0.5000 -0.0000 0.5000
P1A P 1.35429(13) -0.09833(10) 0.30225(8)
P2A P 0.69010(13) 0.26573(10) 0.32875(8)
P3A P 1.28708(14) -0.54714(11) 1.09437(8)
F1A F 0.7942(3) -0.0887(2) 0.49002(18)
F1A_2 F 1.7942(3) -0.0887(2) 0.49002(18)
F2A F 0.4746(3) 0.8118(3) 0.03566(19)
F3A F 0.7792(3) 0.6619(3) 0.16320(19)
O1A O 1.2908(4) -0.4210(3) 1.1485(2)
O1A_2 O 0.2908(4) 0.5790(3) 0.1485(2)
O2A O 0.5991(4) 0.4427(3) 0.2993(2)
O3A O 1.3175(4) -0.5024(3) 0.9584(2)
O3_2 O 0.6825(4) 0.5024(3) 0.0416(2)
O4A O 1.3892(4) -0.2561(3) 0.2780(2)
O4_2 O 1.6108(4) -0.7439(3) 0.7220(2)
O4A_2 O 0.3892(4) 0.7439(3) 0.2780(2)
O5A O 1.1334(4) -0.0343(3) 0.3460(2)
O6A O 0.5306(4) 0.1801(3) 0.3690(2)
O6A_2 O 1.5306(4) 0.1801(3) 0.3690(2)
O7A O 1.5001(4) -0.1070(3) 0.3836(2)
O7_2 O 1.4999(4) 0.1070(3) 0.6164(2)
O8A O 0.8427(4) 0.2112(3) 0.4197(2)
O9A O 1.0857(5) -0.5901(4) 1.1429(3)
H13A H 1.414(5) -0.689(4) 1.139(3)
H14A H 0.781(5) 0.227(4) 0.232(3)
H15A H 1.391(10) 0.006(8) 0.193(5)
H16A H 0.972(9) -0.522(7) 1.144(5)
N1 N 0.1667(5) 0.0647(4) 0.9622(3)
H1 H 0.2172 0.1456 0.9247
H2 H 0.2682 -0.0192 0.9916
C1 C 0.0759(6) 0.0297(5) 0.8740(3)
H5 H 0.1782 0.0025 0.8096
H6 H -0.0288 0.1218 0.8390
C2 C 0.0121(6) 0.1048(4) 1.0636(3)
H7 H -0.0940 0.1986 1.0327
H8 H 0.0734 0.1254 1.1207
N1A N -0.1667(5) -0.0647(4) 1.0378(3)
H1A H -0.2172 -0.1456 1.0753
H2A H -0.2682 0.0192 1.0084
C1A C -0.0759(6) -0.0297(5) 1.1260(3)
H5A H -0.1782 -0.0025 1.1904
H6A H 0.0288 -0.1218 1.1610
C2A C -0.0121(6) -0.1048(4) 0.9364(3)
H7A H 0.0940 -0.1986 0.9673
H8A H -0.0734 -0.1254 0.8793
N2 N 0.8737(5) 0.4009(4) 0.5540(3)
H3 H 0.7794 0.3711 0.6117
H4 H 0.9088 0.3383 0.5044
C3 C 1.0521(6) 0.3817(5) 0.6101(3)
H9 H 1.1059 0.2726 0.6528
H10 H 1.0130 0.4434 0.6679
C4 C 0.7881(6) 0.5660(5) 0.4848(4)
H11 H 0.7408 0.6332 0.5389
H12 H 0.6747 0.5742 0.4468
N2A N 1.1263(5) 0.5991(4) 0.4460(3)
H3A H 1.2206 0.6289 0.3883
H4A H 1.0912 0.6617 0.4956
C3A C 0.9479(6) 0.6183(5) 0.3899(3)
H9A H 0.8941 0.7274 0.3472
H10A H 0.9870 0.5566 0.3321
C4A C 1.2119(6) 0.4340(5) 0.5152(4)
H11A H 1.2592 0.3668 0.4611
H12A H 1.3253 0.4258 0.5532
loop_
_geom_bond_atom_site_label_1
_geom_bond_atom_site_label_2
_geom_bond_site_symmetry_1
_geom_bond_site_symmetry_2
Ga1 F2 1_555 1_555
Ga2 F1 1_555 1_555
Ga3 F1 1_555 1_555
P1 O4 1_555 1_555
P2 O2 1_555 1_555
P3 O1 1_555 1_555
F3 Ga1 1_555 1_555
O1 Ga1 1_555 1_555
O2 Ga1 1_555 1_555
O3 P3 1_555 1_555
O4 Ga1_2 1_555 1_555
O5 Ga2 1_555 1_555
N1 H1 1_555 1_555
H2 N1 1_555 1_555
O6 Ga3 1_555 1_555
O7 P1 1_555 1_555
O8 Ga2 1_555 1_555
O9 P3 1_555 1_555
N2 H3 1_555 1_555
H4 N2 1_555 1_555
C1 N1 1_555 1_555
H5 C1 1_555 1_555
H6 C1 1_555 1_555
C2 N1 1_555 1_555
H7 C2 1_555 1_555
H8 C2 1_555 1_555
C3 N2 1_555 1_555
H9 C3 1_555 1_555
H10 C3 1_555 1_555
C4 N2 1_555 1_555
H11 C4 1_555 1_555
H12 C4 1_555 1_555
H13 P3 1_555 1_555
H14 P2 1_555 1_555
H15 P1 1_555 1_555
H16 O9 1_555 1_555
Ga1A F2A 1_555 1_555
Ga1A_2 O3 1_555 1_555
Ga1A_3 O4A 1_555 1_555
Ga3_2 O7 1_555 1_555
P1A O4A 1_555 1_555
P2A O2A 1_555 1_555
P3A O1A 1_555 1_555
F1A Ga2 1_555 1_555
F1A_2 Ga3 1_555 1_555
F3A Ga1A 1_555 1_555
O1A Ga1A_2 1_555 1_555
O1A_2 Ga1A 1_555 1_555
O2A Ga1A 1_555 1_555
O3A Ga1 1_555 1_555
O3_2 Ga1A 1_555 1_555
O4_2 Ga1 1_555 1_555
O4A_2 Ga1A 1_555 1_555
O5A Ga2 1_555 1_555
N1A H1A 1_555 1_555
H2A N1A 1_555 1_555
O6A Ga3_2 1_555 1_555
O6A_2 Ga3 1_555 1_555
O7A Ga3 1_555 1_555
O7_2 Ga3 1_555 1_555
O8A Ga2 1_555 1_555
O9A P3A 1_555 1_555
N2A H3A 1_555 1_555
H4A N2A 1_555 1_555
C1A C2 1_555 1_555
H5A C1A 1_555 1_555
H6A C1A 1_555 1_555
C2A C1 1_555 1_555
H7A C2A 1_555 1_555
H8A C2A 1_555 1_555
C3A C4 1_555 1_555
H9A C3A 1_555 1_555
H10A C3A 1_555 1_555
C4A C3 1_555 1_555
H11A C4A 1_555 1_555
H12A C4A 1_555 1_555
H13A P3A 1_555 1_555
H14A P2A 1_555 1_555
H15A P1A 1_555 1_555
H16A O9A 1_555 1_555
P1 O5 1_555 1_555
P2 O6 1_555 1_555
P2 O8 1_555 1_555
Ga3_2 F1A 1_555 1_555
P1A O5A 1_555 1_555
P1A O7A 1_555 1_555
P2A O6A 1_555 1_555
P2A O8A 1_555 1_555
P3A O3A 1_555 1_555
N1A C1A 1_555 1_555
N1A C2A 1_555 1_555
N2A C3A 1_555 1_555
N2A C4A 1_555 1_555

#END
