
#######################################################################
#
#                 Cambridge Crystallographic Data Centre
#                                CCDC 
#
#######################################################################
#
# If this CIF has been generated from an entry in the Cambridge 
# Structural Database, then it will include bibliographic, chemical, 
# crystal, experimental, refinement or atomic coordinate data resulting 
# from the CCDC's data processing and validation procedures.
#
#######################################################################

data_VEJYIT01
_chemical_formula_moiety         '(C21 H33 N11 O3 Zn2)n'
_symmetry_cell_setting           orthorhombic
_symmetry_space_group_name_H-M   'P b c a'
_symmetry_Int_Tables_number      61
_space_group_name_Hall           '-P 2ac 2ab'
loop_
_symmetry_equiv_pos_site_id
_symmetry_equiv_pos_as_xyz
1 x,y,z
2 1/2-x,-y,1/2+z
3 -x,1/2+y,1/2-z
4 1/2+x,1/2-y,-z
5 -x,-y,-z
6 1/2+x,y,1/2-z
7 x,1/2-y,1/2+z
8 1/2-x,1/2+y,z
_cell_length_a                   9.801(3)
_cell_length_b                   24.104(8)
_cell_length_c                   24.356(8)
_cell_angle_alpha                90
_cell_angle_beta                 90
_cell_angle_gamma                90
_cell_volume                     5753.94
loop_
_atom_site_label
_atom_site_type_symbol
_atom_site_fract_x
_atom_site_fract_y
_atom_site_fract_z
_atom_site_U_iso_or_equiv
_atom_site_thermal_displace_type
Zn1 Zn -0.02466(7) 0.17578(3) 0.50056(3) 0.0359 Uani
Zn2 Zn -0.00040(8) -0.00059(3) 0.67663(3) 0.0359 Uani
N1 N 0.1068(5) 0.2381(2) 0.5158(2) 0.0397 Uani
N2 N 0.2909(5) 0.2919(2) 0.5156(2) 0.0397 Uani
N3 N -0.0436(6) 0.1318(2) 0.5693(2) 0.0463 Uani
N4 N -0.0351(6) 0.0684(2) 0.6357(2) 0.0440 Uani
N5 N 0.0362(6) 0.0675(2) 0.3699(2) 0.0407 Uani
N6 N 0.0309(6) 0.1327(2) 0.4348(2) 0.0423 Uani
N7 N -0.1252(5) -0.0072(2) 0.7411(2) 0.0380 Uani
N8 N -0.3091(5) -0.0082(2) 0.7954(2) 0.0397 Uani
C1 C 0.2288(6) 0.2467(3) 0.4952(3) 0.0443 Uani
H1 H 0.2685 0.2237 0.4691 0.0530 Uiso
C2 C 0.2004(8) 0.3119(3) 0.5522(3) 0.0657 Uani
H2 H 0.2130 0.3433 0.5738 0.0790 Uiso
C3 C 0.0885(7) 0.2793(3) 0.5526(3) 0.0647 Uani
H3 H 0.0118 0.2844 0.5745 0.0780 Uiso
C4 C -0.0127(6) 0.0801(3) 0.5825(3) 0.0420 Uani
H4 H 0.0212 0.0544 0.5575 0.0510 Uiso
C5 C -0.0106(6) 0.0827(3) 0.4190(3) 0.0423 Uani
H5 H -0.0671 0.0604 0.4403 0.0510 Uiso
C6 C 0.1081(9) 0.1513(3) 0.3924(3) 0.0670 Uani
H6 H 0.1516 0.1856 0.3907 0.0810 Uiso
C7 C 0.1114(9) 0.1122(3) 0.3533(3) 0.0630 Uani
H7 H 0.1576 0.1150 0.3201 0.0760 Uiso
C8 C -0.2541(6) 0.0093(3) 0.7484(3) 0.0403 Uani
H8 H -0.3010 0.0310 0.7231 0.0480 Uiso
C9 C -0.0966(7) -0.0375(3) 0.7876(3) 0.0533 Uani
H9 H -0.0148 -0.0555 0.7950 0.0640 Uiso
C10 C -0.2076(7) -0.0365(3) 0.8206(3) 0.0567 Uani
H10 H -0.2133 -0.0528 0.8552 0.0680 Uiso
C20 C -0.0861(12) 0.1162(4) 0.6567(3) 0.0897 Uani
H32 H -0.1127 0.1218 0.6929 0.1070 Uiso
C21 C -0.0917(12) 0.1541(4) 0.6162(3) 0.0987 Uani
H33 H -0.1240 0.1902 0.6200 0.1180 Uiso
Zn1C Zn 0.47534(7) 0.32422(3) 0.49944(3) 0.0359 Uani
Zn2D Zn 0.00040(8) 0.00059(3) 0.32337(3) 0.0359 Uani
Zn2E Zn -0.50040(8) -0.00059(3) 0.82337(3) 0.0359 Uani
N2C N -0.2091(5) 0.2081(2) 0.4844(2) 0.0397 Uani
N5D N -0.0362(6) -0.0675(2) 0.6301(2) 0.0407 Uani
N8E N 0.1909(5) -0.0082(2) 0.7046(2) 0.0397 Uani
N9 N 0.4254(9) 0.1476(3) 0.6369(4) 0.0920 Uani
C11 C 0.2899(17) 0.1326(9) 0.6180(9) 0.2683 Uani
H11 H 0.2503 0.1064 0.6430 0.4030 Uiso
H12 H 0.2960 0.1163 0.5821 0.4030 Uiso
H13 H 0.2338 0.1652 0.6164 0.4030 Uiso
C12 C 0.5009(18) 0.1853(7) 0.6081(7) 0.2220 Uani
H14 H 0.5879 0.1901 0.6257 0.3320 Uiso
H15 H 0.4537 0.2202 0.6072 0.3320 Uiso
H16 H 0.5144 0.1721 0.5713 0.3320 Uiso
C13 C 0.4541(15) 0.1186(6) 0.6873(6) 0.1653 Uani
H17 H 0.3917 0.0964 0.7058 0.1980 Uiso
O1 O 0.5734(11) 0.1271(6) 0.7031(5) 0.1753 Uani
N10 N -0.3525(10) -0.0152(6) 0.5472(4) 0.1537 Uani
C14 C -0.379(2) 0.0197(9) 0.5954(8) 0.2633 Uani
H18 H -0.3444 0.0564 0.5889 0.3970 Uiso
H19 H -0.3339 0.0040 0.6268 0.3970 Uiso
H20 H -0.4752 0.0214 0.6021 0.3970 Uiso
C15 C -0.411(2) -0.0689(10) 0.5668(12) 0.3867 Uani
H21 H -0.4024 -0.0963 0.5384 0.5800 Uiso
H22 H -0.5054 -0.0639 0.5758 0.5800 Uiso
H23 H -0.3622 -0.0810 0.5989 0.5800 Uiso
C16 C -0.2205(16) -0.0147(12) 0.5186(7) 0.8933 Uani
H24 H -0.1360 -0.0246 0.5329 1.0550 Uiso
O2 O -0.2461(12) 0.0021(4) 0.4706(5) 0.1727 Uani
N11 N -0.2937(13) -0.2143(5) 0.7510(4) 0.1430 Uani
C17 C -0.357(3) -0.1644(9) 0.7752(9) 0.5033 Uani
H25 H -0.4093 -0.1456 0.7477 0.7570 Uiso
H26 H -0.2864 -0.1401 0.7886 0.7570 Uiso
H27 H -0.4150 -0.1751 0.8050 0.7570 Uiso
C18 C -0.300(2) -0.2388(7) 0.6960(7) 0.3433 Uani
H28 H -0.2596 -0.2710 0.6826 0.4110 Uiso
C19 C -0.221(3) -0.2358(13) 0.8011(9) 0.4800 Uani
H29 H -0.1724 -0.2692 0.7919 0.7180 Uiso
H30 H -0.2861 -0.2436 0.8294 0.7180 Uiso
H31 H -0.1573 -0.2084 0.8139 0.7180 Uiso
O3 O -0.3747(19) -0.2034(8) 0.6716(7) 0.3010 Uani
loop_
_atom_site_aniso_label
_atom_site_aniso_U_11
_atom_site_aniso_U_22
_atom_site_aniso_U_33
_atom_site_aniso_U_23
_atom_site_aniso_U_13
_atom_site_aniso_U_12
Zn1 0.0391(4) 0.0362(4) 0.0325(4) 0.0001(4) 0.0006(4) 0.0008(3)
Zn2 0.0373(4) 0.0433(4) 0.0271(4) -0.0005(4) 0.0002(3) 0.0010(3)
N1 0.041(3) 0.041(3) 0.037(3) -0.004(2) 0.004(2) -0.004(2)
N2 0.040(3) 0.037(3) 0.042(3) -0.005(2) 0.001(2) -0.006(2)
N3 0.065(4) 0.041(3) 0.033(3) 0.006(3) 0.008(3) 0.006(3)
N4 0.057(3) 0.045(3) 0.030(3) 0.002(3) 0.005(3) 0.008(3)
N5 0.046 0.046 0.03 -0.006 0.002 -0.004
N6 0.05 0.041 0.036 -0.002 0.005 -0.001
N7 0.039(3) 0.048(3) 0.027(3) -0.001(2) 0.002(2) 0.002(2)
N8 0.037(3) 0.053(4) 0.029(3) 0.003(3) 0.000(2) 0.002(2)
C1 0.044(3) 0.043(4) 0.046(4) -0.008(3) 0.002(4) 0.000(3)
C2 0.064(5) 0.067(6) 0.066(5) -0.033(4) 0.015(4) -0.015(4)
C3 0.049(4) 0.075(6) 0.070(5) -0.027(5) 0.022(4) -0.010(4)
C4 0.049(4) 0.045(4) 0.032(4) 0.002(3) 0.006(3) 0.006(3)
C5 0.048 0.04 0.039 0 0.01 -0.007
C6 0.093 0.06 0.048 -0.016 0.016 -0.022
C7 0.089 0.061 0.039 -0.004 0.023 -0.022
C8 0.037(3) 0.056(5) 0.028(3) 0.002(3) -0.002(3) 0.005(3)
C9 0.044(4) 0.078(6) 0.038(4) 0.017(4) -0.003(3) 0.010(4)
C10 0.052(4) 0.085(6) 0.033(4) 0.019(4) 0.008(3) 0.008(4)
C20 0.165(10) 0.064(6) 0.040(5) 0.009(4) 0.028(6) 0.031(6)
C21 0.189(12) 0.048(5) 0.059(6) 0.007(4) 0.049(7) 0.035(6)
Zn1C 0.0391 0.0362 0.0325 0.0001 -0.0006 -0.0008
Zn2D 0.0373 0.0433 0.0271 -0.0005 0.0002 0.001
Zn2E 0.0373 0.0433 0.0271 0.0005 -0.0002 0.001
N2C 0.04 0.037 0.042 -0.005 -0.001 0.006
N5D 0.046(3) 0.046(3) 0.030(3) -0.006(3) 0.002(3) -0.004(3)
N8E 0.037 0.053 0.029 -0.003 0 0.002
N9 0.100(6) 0.084(6) 0.092(6) 0.031(5) -0.013(5) -0.020(5)
C11 0.125(14) 0.28(2) 0.40(3) -0.09(2) -0.077(18) -0.050(15)
C12 0.28(2) 0.190(17) 0.196(18) 0.111(15) 0.085(16) -0.031(15)
C13 0.173(17) 0.152(15) 0.171(17) 0.016(13) 0.019(15) 0.005(14)
O1 0.124(8) 0.261(14) 0.141(9) 0.026(9) -0.016(7) 0.013(9)
N10 0.074(6) 0.311(19) 0.076(7) 0.012(9) -0.011(6) 0.015(9)
C14 0.19(2) 0.36(3) 0.24(3) -0.12(2) 0.01(2) -0.01(2)
C15 0.25(3) 0.40(5) 0.51(6) 0.14(5) -0.12(4) 0.04(3)
C16 1.2(2) 1.30(19) 0.18(4) 0.15(6) -0.04(7) -0.514
O2 0.146(9) 0.185(11) 0.187(11) -0.017(8) 0.027(9) -0.033(7)
N11 0.141(9) 0.176(12) 0.112(8) -0.026(8) 0.039(7) -0.081(9)
C17 0.38(5) 0.27(3) 0.86(10) -0.31(5) 0.39(6) -0.15(3)
C18 0.43(5) 0.18(2) 0.42(4) -0.21(3) 0.27(4) -0.20(2)
C19 0.40(5) 0.74(9) 0.30(4) 0.06(5) -0.14(4) -0.27(6)
O3 0.203(15) 0.35(3) 0.35(2) 0.16(2) -0.066(15) -0.148(16)
loop_
_geom_bond_atom_site_label_1
_geom_bond_atom_site_label_2
_geom_bond_site_symmetry_1
_geom_bond_site_symmetry_2
Zn1 N1 1_555 1_555
Zn2 N4 1_555 1_555
N1 C1 1_555 1_555
N2 C1 1_555 1_555
N3 Zn1 1_555 1_555
N4 C4 1_555 1_555
N5 C5 1_555 1_555
N6 Zn1 1_555 1_555
N7 Zn2 1_555 1_555
N8 C8 1_555 1_555
N9 C11 1_555 1_555
N10 C14 1_555 1_555
N11 C17 1_555 1_555
C1 H1 1_555 1_555
C2 N2 1_555 1_555
H2 C2 1_555 1_555
C3 N1 1_555 1_555
H3 C3 1_555 1_555
C4 N3 1_555 1_555
H4 C4 1_555 1_555
C5 N6 1_555 1_555
H5 C5 1_555 1_555
C6 N6 1_555 1_555
H6 C6 1_555 1_555
C7 N5 1_555 1_555
H7 C7 1_555 1_555
C8 N7 1_555 1_555
H8 C8 1_555 1_555
C9 N7 1_555 1_555
H9 C9 1_555 1_555
C10 N8 1_555 1_555
H10 C10 1_555 1_555
C11 H11 1_555 1_555
H12 C11 1_555 1_555
H13 C11 1_555 1_555
C12 N9 1_555 1_555
H14 C12 1_555 1_555
H15 C12 1_555 1_555
H16 C12 1_555 1_555
C13 N9 1_555 1_555
H17 C13 1_555 1_555
C14 H18 1_555 1_555
H19 C14 1_555 1_555
H20 C14 1_555 1_555
C15 N10 1_555 1_555
H21 C15 1_555 1_555
H22 C15 1_555 1_555
H23 C15 1_555 1_555
C16 N10 1_555 1_555
H24 C16 1_555 1_555
C17 H25 1_555 1_555
H26 C17 1_555 1_555
H27 C17 1_555 1_555
C18 N11 1_555 1_555
H28 C18 1_555 1_555
C19 N11 1_555 1_555
H29 C19 1_555 1_555
H30 C19 1_555 1_555
H31 C19 1_555 1_555
O1 C13 1_555 1_555
O2 C16 1_555 1_555
O3 C18 1_555 1_555
C20 N4 1_555 1_555
H32 C20 1_555 1_555
C21 N3 1_555 1_555
H33 C21 1_555 1_555
Zn1C N2 1_555 1_555
Zn2D N5 1_555 1_555
Zn2E N8 1_555 1_555
N2C Zn1 1_555 1_555
N5D Zn2 1_555 1_555
N8E Zn2 1_555 1_555
C2 C3 1_555 1_555
C6 C7 1_555 1_555
C9 C10 1_555 1_555
C20 C21 1_555 1_555

#END
