
#######################################################################
#
#                 Cambridge Crystallographic Data Centre
#                                CCDC 
#
#######################################################################
#
# If this CIF has been generated from an entry in the Cambridge 
# Structural Database, then it will include bibliographic, chemical, 
# crystal, experimental, refinement or atomic coordinate data resulting 
# from the CCDC's data processing and validation procedures.
#
#######################################################################

data_VEJYUF01
_chemical_formula_moiety         '(C15 H19 N9 O1 Zn2)n'
_symmetry_cell_setting           orthorhombic
_symmetry_space_group_name_H-M   'P b c a'
_symmetry_Int_Tables_number      61
_space_group_name_Hall           '-P 2ac 2ab'
loop_
_symmetry_equiv_pos_site_id
_symmetry_equiv_pos_as_xyz
1 x,y,z
2 1/2-x,-y,1/2+z
3 -x,1/2+y,1/2-z
4 1/2+x,1/2-y,-z
5 -x,-y,-z
6 1/2+x,y,1/2-z
7 x,1/2-y,1/2+z
8 1/2-x,1/2+y,z
_cell_length_a                   15.379(5)
_cell_length_b                   15.449(5)
_cell_length_c                   18.407(6)
_cell_angle_alpha                90
_cell_angle_beta                 90
_cell_angle_gamma                90
_cell_volume                     4373.32
loop_
_atom_site_label
_atom_site_type_symbol
_atom_site_fract_x
_atom_site_fract_y
_atom_site_fract_z
_atom_site_U_iso_or_equiv
_atom_site_thermal_displace_type
Zn1 Zn 0.20052(3) 0.13963(3) 0.40614(3) 0.0504 Uani
Zn2 Zn 0.50879(3) 0.33582(3) 0.31534(3) 0.0505 Uani
N1 N 0.4424(2) 0.2358(2) 0.3542(2) 0.0551 Uani
N2 N 0.3259(2) 0.1619(2) 0.3882(2) 0.0565 Uani
N3 N 0.1000(2) 0.1330(2) 0.61329(18) 0.0532 Uani
N4 N 0.1723(2) 0.1238(2) 0.50974(18) 0.0549 Uani
N5 N 0.0765(2) -0.0678(2) 0.30859(18) 0.0555 Uani
N6 N 0.1626(2) 0.0371(2) 0.34885(19) 0.0570 Uani
N7 N 0.0617(2) 0.3115(2) 0.27986(18) 0.0559 Uani
N8 N 0.1336(2) 0.2390(2) 0.36498(18) 0.0536 Uani
C1 C 0.3565(3) 0.2346(3) 0.3606(2) 0.0527 Uani
H1 H 0.3212 0.2806 0.3468 0.0630 Uiso
C2 C 0.3966(3) 0.1135(3) 0.4031(3) 0.0763 Uani
H2 H 0.3964 0.0588 0.4243 0.0920 Uiso
C3 C 0.4684(3) 0.1582(4) 0.3820(3) 0.0780 Uani
H3 H 0.5255 0.1391 0.3859 0.0940 Uiso
C4 C 0.1049(3) 0.1541(3) 0.5448(2) 0.0557 Uani
H4 H 0.0632 0.1884 0.5223 0.0670 Uiso
C5 C 0.2155(4) 0.0787(5) 0.5614(3) 0.1180 Uani
H5 H 0.2670 0.0482 0.5546 0.1410 Uiso
C6 C 0.1716(4) 0.0854(5) 0.6240(3) 0.1150 Uani
H6 H 0.1883 0.0609 0.6680 0.1380 Uiso
C7 C 0.0952(3) -0.0127(3) 0.3620(2) 0.0567 Uani
H7 H 0.0633 -0.0097 0.4048 0.0680 Uiso
C8 C 0.1895(4) 0.0127(4) 0.2823(3) 0.0943 Uani
H8 H 0.2364 0.0360 0.2572 0.1140 Uiso
C9 C 0.1373(4) -0.0510(4) 0.2579(3) 0.0907 Uani
H9 H 0.1424 -0.0788 0.2133 0.1090 Uiso
C10 C 0.0979(3) 0.2375(3) 0.2994(2) 0.0557 Uani
H10 H 0.0982 0.1887 0.2698 0.0670 Uiso
C11 C 0.0759(4) 0.3644(3) 0.3371(3) 0.0803 Uani
H11 H 0.0585 0.4219 0.3401 0.0960 Uiso
C12 C 0.1195(4) 0.3206(4) 0.3894(3) 0.0813 Uani
H12 H 0.1367 0.3426 0.4342 0.0980 Uiso
Zn2C Zn 0.00879(3) 0.16418(3) 0.68466(3) 0.0505 Uani
Zn2G Zn -0.00879(3) -0.16418(3) 0.31534(3) 0.0505 Uani
Zn2E Zn 0.00879(3) 0.33582(3) 0.18466(3) 0.0505 Uani
N3C N 0.6000(2) 0.3670(2) 0.38671(18) 0.0532 Uani
N5G N 0.4235(2) 0.4322(2) 0.30859(18) 0.0555 Uani
N7E N 0.5617(2) 0.3115(2) 0.22014(18) 0.0559 Uani
N9 N 0.8209(5) 0.1823(6) 0.4001(4) 0.1267 Uani
C13 C 0.7285(7) 0.1624(9) 0.3883(7) 0.2850 Uani
H13 H 0.7019 0.1734 0.3439 0.3410 Uiso
C14 C 0.8662(13) 0.1910(15) 0.3282(8) 0.4350 Uani
H14 H 0.9271 0.2010 0.3360 0.6510 Uiso
H15 H 0.8418 0.2389 0.3019 0.6510 Uiso
H16 H 0.8585 0.1388 0.3007 0.6510 Uiso
C15 C 0.8677(13) 0.1621(15) 0.4668(8) 0.4900 Uani
H17 H 0.8273 0.1590 0.5065 0.7390 Uiso
H18 H 0.9099 0.2064 0.4762 0.7390 Uiso
H19 H 0.8966 0.1074 0.4615 0.7390 Uiso
O1 O 0.6900(5) 0.1327(5) 0.4362(5) 0.1913 Uani
loop_
_atom_site_aniso_label
_atom_site_aniso_U_11
_atom_site_aniso_U_22
_atom_site_aniso_U_33
_atom_site_aniso_U_23
_atom_site_aniso_U_13
_atom_site_aniso_U_12
Zn1 0.0442(3) 0.0550(3) 0.0519(3) 0.0019(2) 0.0011(2) -0.0041(2)
Zn2 0.0445(3) 0.0580(3) 0.0489(3) -0.0038(2) 0.00475(19) 0.0006(2)
N1 0.0442(18) 0.056(2) 0.065(2) 0.0009(18) 0.0049(16) -0.0008(15)
N2 0.0426(18) 0.060(2) 0.067(2) 0.0009(18) 0.0057(16) -0.0014(16)
N3 0.0456 0.068 0.0461 0.0045 -0.0009 0.0087
N4 0.0489 0.066 0.0499 0.0097 0.0019 0.0069
N5 0.0544 0.057 0.055 -0.0073 0.0043 -0.0054
N6 0.054 0.056 0.061 -0.0064 0.01 -0.0083
N7 0.059 0.06 0.0486 0.002 -0.0072 0.0034
N8 0.0531 0.059 0.0487 -0.0037 -0.0067 0.0018
C1 0.042(2) 0.057(3) 0.059(2) 0.004(2) 0.0025(18) 0.0000(18)
C2 0.055(3) 0.060(3) 0.114(4) 0.018(3) 0.008(3) 0.006(2)
C3 0.049(3) 0.072(4) 0.113(4) 0.011(3) 0.009(3) 0.009(2)
C4 0.041 0.07 0.056 0.005 -0.0055 0.0077
C5 0.094 0.174 0.086 0.05 0.024 0.083
C6 0.1 0.179 0.066 0.056 0.017 0.075
C7 0.053 0.065 0.052 -0.003 0.0085 -0.004
C8 0.099 0.087 0.097 -0.032 0.056 -0.037
C9 0.107 0.086 0.079 -0.03 0.039 -0.029
C10 0.059 0.058 0.05 -0.0062 -0.0061 0.002
C11 0.103 0.059 0.079 -0.012 -0.034 0.015
C12 0.108 0.068 0.068 -0.016 -0.04 0.011
Zn2C 0.0445 0.058 0.0489 -0.0038 -0.00475 -0.0006
Zn2G 0.0445 0.058 0.0489 -0.0038 -0.00475 -0.0006
Zn2E 0.0445 0.058 0.0489 0.0038 -0.00475 0.0006
N3C 0.0456(18) 0.068(2) 0.0461(18) 0.0045(16) 0.0009(14) -0.0087(16)
N5G 0.0544(19) 0.057(2) 0.055(2) -0.0073(17) -0.0043(16) 0.0054(17)
N7E 0.059(2) 0.060(2) 0.0486(19) -0.0020(17) 0.0072(16) 0.0034(17)
N9 0.093(4) 0.185(7) 0.102(4) -0.003(4) 0.001(4) 0.009(5)
C13 0.258(19) 0.167(13) 0.43(3) 0.050(14) 0.23(2) 0.057(12)
C14 0.61(4) 0.46(3) 0.235(17) 0.03(2) 0.15(2) -0.26(3)
C15 0.42(3) 0.70(5) 0.35(3) -0.31(3) -0.25(3) 0.23(3)
O1 0.135(6) 0.187(8) 0.252(9) -0.026(7) 0.050(6) 0.012(5)
loop_
_geom_bond_atom_site_label_1
_geom_bond_atom_site_label_2
_geom_bond_site_symmetry_1
_geom_bond_site_symmetry_2
Zn1 N2 1_555 1_555
Zn2 N1 1_555 1_555
N1 C1 1_555 1_555
N2 C1 1_555 1_555
N3 C4 1_555 1_555
N4 Zn1 1_555 1_555
N5 C7 1_555 1_555
N6 Zn1 1_555 1_555
N7 C10 1_555 1_555
N8 Zn1 1_555 1_555
C1 H1 1_555 1_555
C2 N2 1_555 1_555
H2 C2 1_555 1_555
C3 N1 1_555 1_555
H3 C3 1_555 1_555
C4 N4 1_555 1_555
H4 C4 1_555 1_555
C5 N4 1_555 1_555
H5 C5 1_555 1_555
C6 N3 1_555 1_555
H6 C6 1_555 1_555
C7 N6 1_555 1_555
H7 C7 1_555 1_555
C8 N6 1_555 1_555
H8 C8 1_555 1_555
C9 N5 1_555 1_555
H9 C9 1_555 1_555
C10 N8 1_555 1_555
H10 C10 1_555 1_555
C11 N7 1_555 1_555
H11 C11 1_555 1_555
C12 N8 1_555 1_555
H12 C12 1_555 1_555
N9 C13 1_555 1_555
C13 H13 1_555 1_555
C14 N9 1_555 1_555
H14 C14 1_555 1_555
H15 C14 1_555 1_555
H16 C14 1_555 1_555
C15 N9 1_555 1_555
H17 C15 1_555 1_555
H18 C15 1_555 1_555
H19 C15 1_555 1_555
O1 C13 1_555 1_555
Zn2C N3 1_555 1_555
Zn2G N5 1_555 1_555
Zn2E N7 1_555 1_555
N3C Zn2 1_555 1_555
N5G Zn2 1_555 1_555
N7E Zn2 1_555 1_555
C2 C3 1_555 1_555
C5 C6 1_555 1_555
C8 C9 1_555 1_555
C11 C12 1_555 1_555

#END
