
#######################################################################
#
#                 Cambridge Crystallographic Data Centre
#                                CCDC 
#
#######################################################################
#
# If this CIF has been generated from an entry in the Cambridge 
# Structural Database, then it will include bibliographic, chemical, 
# crystal, experimental, refinement or atomic coordinate data resulting 
# from the CCDC's data processing and validation procedures.
#
#######################################################################

data_NENHEU
_chemical_formula_moiety         '(C42 H22 O14 Zn3)n'
_symmetry_cell_setting           cubic
_symmetry_space_group_name_H-M   'P 43 3 2'
_symmetry_Int_Tables_number      212
_space_group_name_Hall           'P 4acd 2ab 3'
loop_
_symmetry_equiv_pos_site_id
_symmetry_equiv_pos_as_xyz
1 x,y,z
2 1/2-x,-y,1/2+z
3 -x,1/2+y,1/2-z
4 1/2+x,1/2-y,-z
5 z,x,y
6 1/2+z,1/2-x,-y
7 1/2-z,-x,1/2+y
8 -z,1/2+x,1/2-y
9 y,z,x
10 -y,1/2+z,1/2-x
11 1/2+y,1/2-z,-x
12 1/2-y,-z,1/2+x
13 1/4+y,3/4+x,3/4-z
14 1/4-y,1/4-x,1/4-z
15 3/4+y,3/4-x,1/4+z
16 3/4-y,1/4+x,3/4+z
17 1/4+x,3/4+z,3/4-y
18 3/4-x,1/4+z,3/4+y
19 1/4-x,1/4-z,1/4-y
20 3/4+x,3/4-z,1/4+y
21 1/4+z,3/4+y,3/4-x
22 3/4+z,3/4-y,1/4+x
23 3/4-z,1/4+y,3/4+x
24 1/4-z,1/4-y,1/4-x
_cell_length_a                   20.1401(2)
_cell_length_b                   20.1401(2)
_cell_length_c                   20.1401(2)
_cell_angle_alpha                90
_cell_angle_beta                 90
_cell_angle_gamma                90
_cell_volume                     8169.3
loop_
_atom_site_label
_atom_site_type_symbol
_atom_site_fract_x
_atom_site_fract_y
_atom_site_fract_z
Zn1 Zn 0.8750 0.3750 0.1250
Zn2 Zn 0.97477(6) 0.47477(6) 0.02523(6)
O1 O 1.0338(4) 0.5338(4) -0.0338(4)
O2 O 0.9538(4) 0.5386(3) 0.0942(3)
O3 O 0.8710(4) 0.4780(3) 0.1246(4)
C1 C 0.9051(5) 0.5269(5) 0.1297(4)
C2 C 0.8557(12) 0.5591(10) 0.1830(10)
C3 C 0.8821(11) 0.6164(11) 0.2111(12)
H1 H 0.9212 0.6344 0.1944
C4 C 0.8501(14) 0.6467(11) 0.2642(12)
C5 C 0.7916(14) 0.6198(11) 0.2892(10)
C6 C 0.7652(12) 0.5625(11) 0.2610(10)
H2 H 0.7261 0.5445 0.2777
C7 C 0.7972(13) 0.5322(9) 0.2079(10)
H3 H 0.7795 0.4940 0.1891
Zn1A Zn 0.6250 0.6250 0.6250
Zn1B Zn 1.1250 0.8750 0.3750
Zn1C Zn 0.3750 0.1250 -0.1250
Zn1A_2 Zn 0.6250 0.6250 -0.3750
Zn2A Zn 0.52523(6) 0.52523(6) 0.52523(6)
Zn2B Zn 1.02523(6) 0.97477(6) 0.47477(6)
Zn2C Zn 0.47477(6) 0.02523(6) -0.02523(6)
Zn2A_2 Zn 0.52523(6) 0.52523(6) -0.47477(6)
O1A O 0.4662(4) 0.4662(4) 0.4662(4)
O2E O 0.5942(3) 0.5462(4) 0.4614(3)
O2K O 0.9614(3) 0.9058(3) 0.4538(4)
O2G O 0.9058(3) 0.4538(4) -0.0386(3)
O2H O 0.5386(3) 0.0942(3) -0.0462(4)
O2A O 0.5462(4) 0.4614(3) -0.4058(3)
O2J O 1.0386(3) 0.4058(3) 0.0462(4)
O2A_2 O 0.5462(4) 0.4614(3) 0.5942(3)
O2I O 0.4614(3) 0.5942(3) 0.5462(4)
O3E O 0.6246(4) 0.6290(4) 0.5220(3)
O3K O 1.0220(3) 0.8754(4) 0.3710(4)
O3G O 0.8754(4) 0.3710(4) 0.0220(3)
O3H O 0.4780(3) 0.1246(4) -0.1290(4)
O3A O 0.6290(4) 0.5220(3) -0.3754(4)
O3J O 0.9780(3) 0.3754(4) 0.1290(4)
O3M O 0.7720(3) 0.3790(4) 0.1254(4)
O3Q O 0.8790(4) 0.3746(4) 0.2280(3)
O3U O 0.8746(4) 0.2720(3) 0.1210(4)
C1E C 0.6297(4) 0.5949(5) 0.4731(5)
C1K C 0.9731(5) 0.8703(4) 0.4051(5)
C1G C 0.8703(4) 0.4051(5) -0.0269(5)
C1H C 0.5269(5) 0.1297(4) -0.0949(5)
C1A C 0.5949(5) 0.4731(5) -0.3703(4)
C2E C 0.6830(10) 0.6443(12) 0.4409(10)
C2K C 0.9409(10) 0.8170(10) 0.3557(12)
C2G C 0.8170(10) 0.3557(12) -0.0591(10)
C2H C 0.5591(10) 0.1830(10) -0.1443(12)
C2A C 0.6443(12) 0.4409(10) -0.3170(10)
C3E C 0.7111(12) 0.6179(11) 0.3836(11)
C3K C 0.8836(11) 0.7889(12) 0.3821(11)
C3G C 0.7889(12) 0.3821(11) -0.1164(11)
C3H C 0.6164(11) 0.2111(12) -0.1179(11)
C3A C 0.6179(11) 0.3836(11) -0.2889(12)
H1K H 0.8656 0.8056 0.4212
H1E H 0.6944 0.5788 0.3656
H1G H 0.8056 0.4212 -0.1344
H1A H 0.5788 0.3656 -0.3056
H1H H 0.6344 0.1944 -0.0788
C4E C 0.7642(12) 0.6499(14) 0.3533(11)
C4K C 0.8533(11) 0.7358(12) 0.3501(14)
C4G C 0.7358(12) 0.3501(14) -0.1467(11)
C4H C 0.6467(11) 0.2642(12) -0.1499(14)
C4A C 0.6499(14) 0.3533(11) -0.2358(12)
C5E C 0.7892(10) 0.7084(14) 0.3802(11)
C5K C 0.8802(11) 0.7108(10) 0.2916(14)
C5G C 0.7108(10) 0.2916(14) -0.1198(11)
C5H C 0.6198(11) 0.2892(10) -0.2084(14)
C5A C 0.7084(14) 0.3802(11) -0.2108(10)
C6E C 0.7610(10) 0.7348(12) 0.4375(11)
C6K C 0.9375(11) 0.7390(10) 0.2652(12)
C6G C 0.7390(10) 0.2652(12) -0.0625(11)
C6H C 0.5625(11) 0.2610(10) -0.2348(12)
C6A C 0.7348(12) 0.4375(11) -0.2390(10)
H2K H 0.9555 0.7223 0.2261
H2E H 0.7777 0.7739 0.4555
H2G H 0.7223 0.2261 -0.0445
H2A H 0.7739 0.4555 -0.2223
H2H H 0.5445 0.2777 -0.2739
C7E C 0.7079(10) 0.7028(13) 0.4678(9)
C7K C 0.9678(9) 0.7921(10) 0.2972(13)
C7G C 0.7921(10) 0.2972(13) -0.0322(9)
C7H C 0.5322(9) 0.2079(10) -0.2028(13)
C7A C 0.7028(13) 0.4678(9) -0.2921(10)
H3K H 1.0060 0.8109 0.2795
H3E H 0.6891 0.7205 0.5060
H3G H 0.8109 0.2795 0.0060
H3A H 0.7205 0.5060 -0.3109
H3H H 0.4940 0.1891 -0.2205
loop_
_geom_bond_atom_site_label_1
_geom_bond_atom_site_label_2
_geom_bond_site_symmetry_1
_geom_bond_site_symmetry_2
Zn1 O3 1_555 1_555
Zn2 O1 1_555 1_555
O2 Zn2 1_555 1_555
O3 C1 1_555 1_555
C1 O2 1_555 1_555
C2 C1 1_555 1_555
C3 C2 1_555 1_555
H1 C3 1_555 1_555
C4 C3 1_555 1_555
C5 C4 1_555 1_555
C6 C5 1_555 1_555
H2 C6 1_555 1_555
C7 C2 1_555 1_555
H3 C7 1_555 1_555
Zn1A O3E 1_555 1_555
Zn1B O3K 1_555 1_555
Zn1C O3H 1_555 1_555
Zn1A_2 O3A 1_555 1_555
Zn2A O1A 1_555 1_555
Zn2B O2K 1_555 1_555
Zn2C O2H 1_555 1_555
Zn2A_2 O2A 1_555 1_555
O2E Zn2A 1_555 1_555
O2K C1K 1_555 1_555
O2G Zn2 1_555 1_555
O2H C1H 1_555 1_555
O2A C1A 1_555 1_555
O2J Zn2 1_555 1_555
O2A_2 Zn2A 1_555 1_555
O2I Zn2A 1_555 1_555
O3E C1E 1_555 1_555
O3K C1K 1_555 1_555
O3G Zn1 1_555 1_555
O3H C1H 1_555 1_555
O3A C1A 1_555 1_555
O3J Zn1 1_555 1_555
O3M Zn1 1_555 1_555
O3Q Zn1 1_555 1_555
O3U Zn1 1_555 1_555
C1E O2E 1_555 1_555
C1K C2K 1_555 1_555
C1G O2G 1_555 1_555
C1H C2H 1_555 1_555
C1A C2A 1_555 1_555
C2E C1E 1_555 1_555
C2K C3K 1_555 1_555
C2G C1G 1_555 1_555
C2H C3H 1_555 1_555
C2A C3A 1_555 1_555
C3E C2E 1_555 1_555
C3K H1K 1_555 1_555
C3G C2G 1_555 1_555
C3H H1H 1_555 1_555
C3A H1A 1_555 1_555
H1E C3E 1_555 1_555
H1G C3G 1_555 1_555
C4E C5 1_555 1_555
C4K C3K 1_555 1_555
C4G C3G 1_555 1_555
C4H C3H 1_555 1_555
C4A C3A 1_555 1_555
C5E C4E 1_555 1_555
C5K C4 1_555 1_555
C5G C4G 1_555 1_555
C5H C4H 1_555 1_555
C5A C4G 1_555 1_555
C6E C5E 1_555 1_555
C6K C5K 1_555 1_555
C6G C5G 1_555 1_555
C6H C5H 1_555 1_555
C6A C5A 1_555 1_555
H2K C6K 1_555 1_555
H2E C6E 1_555 1_555
H2G C6G 1_555 1_555
H2A C6A 1_555 1_555
H2H C6H 1_555 1_555
C7E C2E 1_555 1_555
C7K C2K 1_555 1_555
C7G C2G 1_555 1_555
C7H C2H 1_555 1_555
C7A C2A 1_555 1_555
H3K C7K 1_555 1_555
H3E C7E 1_555 1_555
H3G C7G 1_555 1_555
H3A C7A 1_555 1_555
H3H C7H 1_555 1_555
C6 C7 1_555 1_555
O3G C1G 1_555 1_555
C3E C4E 1_555 1_555
C4K C5E 1_555 1_555
C4K C5K 1_555 1_555
C4H C5G 1_555 1_555
C4A C5H 1_555 1_555
C4A C5A 1_555 1_555
C6E C7E 1_555 1_555
C6K C7K 1_555 1_555
C6G C7G 1_555 1_555
C6H C7H 1_555 1_555
C6A C7A 1_555 1_555

#END
