
#######################################################################
#
#                 Cambridge Crystallographic Data Centre
#                                CCDC 
#
#######################################################################
#
# If this CIF has been generated from an entry in the Cambridge 
# Structural Database, then it will include bibliographic, chemical, 
# crystal, experimental, refinement or atomic coordinate data resulting 
# from the CCDC's data processing and validation procedures.
#
#######################################################################

data_NENHAQ
_chemical_formula_moiety         '(C42 H22 Cd3 O14)n'
_symmetry_cell_setting           cubic
_symmetry_space_group_name_H-M   'P 43 3 2'
_symmetry_Int_Tables_number      212
_space_group_name_Hall           'P 4acd 2ab 3'
loop_
_symmetry_equiv_pos_site_id
_symmetry_equiv_pos_as_xyz
1 x,y,z
2 1/2-x,-y,1/2+z
3 -x,1/2+y,1/2-z
4 1/2+x,1/2-y,-z
5 z,x,y
6 1/2+z,1/2-x,-y
7 1/2-z,-x,1/2+y
8 -z,1/2+x,1/2-y
9 y,z,x
10 -y,1/2+z,1/2-x
11 1/2+y,1/2-z,-x
12 1/2-y,-z,1/2+x
13 1/4+y,3/4+x,3/4-z
14 1/4-y,1/4-x,1/4-z
15 3/4+y,3/4-x,1/4+z
16 3/4-y,1/4+x,3/4+z
17 1/4+x,3/4+z,3/4-y
18 3/4-x,1/4+z,3/4+y
19 1/4-x,1/4-z,1/4-y
20 3/4+x,3/4-z,1/4+y
21 1/4+z,3/4+y,3/4-x
22 3/4+z,3/4-y,1/4+x
23 3/4-z,1/4+y,3/4+x
24 1/4-z,1/4-y,1/4-x
_cell_length_a                   20.487(2)
_cell_length_b                   20.487(2)
_cell_length_c                   20.487(2)
_cell_angle_alpha                90
_cell_angle_beta                 90
_cell_angle_gamma                90
_cell_volume                     8598.75
loop_
_atom_site_label
_atom_site_type_symbol
_atom_site_fract_x
_atom_site_fract_y
_atom_site_fract_z
Cd1 Cd 0.8750 0.3750 0.1250
Cd2 Cd 0.97578(5) 0.47578(5) 0.02422(5)
O1 O 1.0382(8) 0.5382(8) -0.0382(8)
O2 O 0.9483(6) 0.5476(5) 0.1018(5)
O3 O 0.8704(5) 0.4830(5) 0.1167(6)
C1 C 0.8999(6) 0.5321(7) 0.1335(6)
C2 C 0.8639(8) 0.5636(8) 0.1860(8)
C3 C 0.8871(7) 0.6209(8) 0.2139(8)
H1 H 0.9250 0.6401 0.1980
C4 C 0.8535(9) 0.6495(8) 0.2655(9)
C5 C 0.7968(9) 0.6208(10) 0.2892(8)
C6 C 0.7736(7) 0.5635(9) 0.2613(8)
H2 H 0.7357 0.5443 0.2771
C7 C 0.8071(9) 0.5349(7) 0.2097(9)
H3 H 0.7916 0.4965 0.1910
Cd1A Cd 0.6250 0.6250 0.6250
Cd1B Cd 1.1250 0.8750 0.3750
Cd1C Cd 0.3750 0.1250 -0.1250
Cd1A_2 Cd 0.6250 0.6250 -0.3750
Cd2A Cd 0.52422(5) 0.52422(5) 0.52422(5)
Cd2M Cd 0.77422(5) 0.27422(5) 0.22578(5)
Cd2B Cd 1.02422(5) 0.97578(5) 0.47578(5)
Cd2C Cd 0.47578(5) 0.02422(5) -0.02422(5)
Cd2A_2 Cd 0.52422(5) 0.52422(5) -0.47578(5)
O1A O 0.4618(8) 0.4618(8) 0.4618(8)
O2E O 0.6018(5) 0.5517(6) 0.4524(5)
O2K O 0.9524(5) 0.8982(5) 0.4483(6)
O2G O 0.8982(5) 0.4483(6) -0.0476(5)
O2H O 0.5476(5) 0.1018(5) -0.0517(6)
O2A O 0.5517(6) 0.4524(5) -0.3982(5)
O2J O 1.0476(5) 0.3982(5) 0.0517(6)
O2A_2 O 0.5517(6) 0.4524(5) 0.6018(5)
O2I O 0.4524(5) 0.6018(5) 0.5517(6)
O3E O 0.6167(6) 0.6296(5) 0.5170(5)
O3K O 1.0170(5) 0.8833(6) 0.3704(5)
O3G O 0.8833(6) 0.3704(5) 0.0170(5)
O3H O 0.4830(5) 0.1167(6) -0.1296(5)
O3A O 0.6296(5) 0.5170(5) -0.3833(6)
O3J O 0.9830(5) 0.3833(6) 0.1296(5)
O3M O 0.7670(5) 0.3796(5) 0.1333(6)
O3Q O 0.8796(5) 0.3667(6) 0.2330(5)
O3U O 0.8667(6) 0.2670(5) 0.1204(5)
C1E C 0.6335(6) 0.6001(6) 0.4679(7)
C1K C 0.9679(7) 0.8665(6) 0.3999(6)
C1G C 0.8665(6) 0.3999(6) -0.0321(7)
C1H C 0.5321(7) 0.1335(6) -0.1001(6)
C1A C 0.6001(6) 0.4679(7) -0.3665(6)
C2E C 0.6860(8) 0.6361(8) 0.4364(8)
C2K C 0.9364(8) 0.8140(8) 0.3639(8)
C2G C 0.8140(8) 0.3639(8) -0.0636(8)
C2H C 0.5636(8) 0.1860(8) -0.1361(8)
C2A C 0.6361(8) 0.4364(8) -0.3140(8)
C3E C 0.7139(8) 0.6129(7) 0.3791(8)
C3K C 0.8791(8) 0.7861(8) 0.3871(7)
C3G C 0.7861(8) 0.3871(7) -0.1209(8)
C3H C 0.6209(8) 0.2139(8) -0.1129(7)
C3A C 0.6129(7) 0.3791(8) -0.2861(8)
H1K H 0.8599 0.8020 0.4250
H1E H 0.6980 0.5750 0.3599
H1G H 0.8020 0.4250 -0.1401
H1A H 0.5750 0.3599 -0.3020
H1H H 0.6401 0.1980 -0.0750
C4E C 0.7655(9) 0.6465(9) 0.3505(8)
C4K C 0.8505(8) 0.7345(9) 0.3535(9)
C4G C 0.7345(9) 0.3535(9) -0.1495(8)
C4H C 0.6495(8) 0.2655(9) -0.1465(9)
C4A C 0.6465(9) 0.3505(8) -0.2345(9)
C5E C 0.7892(8) 0.7032(9) 0.3792(10)
C5K C 0.8792(10) 0.7108(8) 0.2968(9)
C5G C 0.7108(8) 0.2968(9) -0.1208(10)
C5H C 0.6208(10) 0.2892(8) -0.2032(9)
C5A C 0.7032(9) 0.3792(10) -0.2108(8)
C6E C 0.7613(8) 0.7264(7) 0.4365(9)
C6K C 0.9365(9) 0.7387(8) 0.2736(7)
C6G C 0.7387(8) 0.2736(7) -0.0635(9)
C6H C 0.5635(9) 0.2613(8) -0.2264(7)
C6A C 0.7264(7) 0.4365(9) -0.2387(8)
H2K H 0.9557 0.7229 0.2357
H2E H 0.7771 0.7643 0.4557
H2G H 0.7229 0.2357 -0.0443
H2A H 0.7643 0.4557 -0.2229
H2H H 0.5443 0.2771 -0.2643
C7E C 0.7097(9) 0.6929(9) 0.4651(7)
C7K C 0.9651(7) 0.7903(9) 0.3071(9)
C7G C 0.7903(9) 0.3071(9) -0.0349(7)
C7H C 0.5349(7) 0.2097(9) -0.1929(9)
C7A C 0.6929(9) 0.4651(7) -0.2903(9)
H3K H 1.0035 0.8090 0.2916
H3E H 0.6910 0.7084 0.5035
H3G H 0.8090 0.2916 0.0035
H3A H 0.7084 0.5035 -0.3090
H3H H 0.4965 0.1910 -0.2084
loop_
_geom_bond_atom_site_label_1
_geom_bond_atom_site_label_2
_geom_bond_site_symmetry_1
_geom_bond_site_symmetry_2
Cd1 Cd2 1_555 1_555
Cd2 O1 1_555 1_555
O2 Cd2 1_555 1_555
O3 Cd1 1_555 1_555
C1 O2 1_555 1_555
C2 C1 1_555 1_555
C3 C2 1_555 1_555
H1 C3 1_555 1_555
C4 C3 1_555 1_555
C5 C4 1_555 1_555
C6 C5 1_555 1_555
H2 C6 1_555 1_555
C7 C2 1_555 1_555
H3 C7 1_555 1_555
Cd1A Cd2A 1_555 1_555
Cd1B Cd2B 1_555 1_555
Cd1C Cd2C 1_555 1_555
Cd1A_2 Cd2A_2 1_555 1_555
Cd2A O1A 1_555 1_555
Cd2M Cd1 1_555 1_555
Cd2B O2K 1_555 1_555
Cd2C O2H 1_555 1_555
Cd2A_2 O2A 1_555 1_555
O2E Cd2A 1_555 1_555
O2K C1K 1_555 1_555
O2G Cd2 1_555 1_555
O2H C1H 1_555 1_555
O2A C1A 1_555 1_555
O2J Cd2 1_555 1_555
O2A_2 Cd2A 1_555 1_555
O2I Cd2A 1_555 1_555
O3E Cd1A 1_555 1_555
O3K Cd1B 1_555 1_555
O3G Cd1 1_555 1_555
O3H Cd1C 1_555 1_555
O3A Cd1A_2 1_555 1_555
O3J Cd1 1_555 1_555
O3M Cd1 1_555 1_555
O3Q Cd1 1_555 1_555
O3U Cd1 1_555 1_555
C1E O2E 1_555 1_555
C1K O3K 1_555 1_555
C1G O2G 1_555 1_555
C1H O3H 1_555 1_555
C1A O3A 1_555 1_555
C2E C1E 1_555 1_555
C2K C1K 1_555 1_555
C2G C1G 1_555 1_555
C2H C1H 1_555 1_555
C2A C1A 1_555 1_555
C3E C2E 1_555 1_555
C3K C2K 1_555 1_555
C3G C2G 1_555 1_555
C3H C2H 1_555 1_555
C3A C2A 1_555 1_555
H1K C3K 1_555 1_555
H1E C3E 1_555 1_555
H1G C3G 1_555 1_555
H1A C3A 1_555 1_555
H1H C3H 1_555 1_555
C4E C5 1_555 1_555
C4K C3K 1_555 1_555
C4G C3G 1_555 1_555
C4H C3H 1_555 1_555
C4A C3A 1_555 1_555
C5E C4E 1_555 1_555
C5K C4 1_555 1_555
C5G C4G 1_555 1_555
C5H C4H 1_555 1_555
C5A C4G 1_555 1_555
C6E C5E 1_555 1_555
C6K C5K 1_555 1_555
C6G C5G 1_555 1_555
C6H C5H 1_555 1_555
C6A C5A 1_555 1_555
H2K C6K 1_555 1_555
H2E C6E 1_555 1_555
H2G C6G 1_555 1_555
H2A C6A 1_555 1_555
H2H C6H 1_555 1_555
C7E C2E 1_555 1_555
C7K C2K 1_555 1_555
C7G C2G 1_555 1_555
C7H C2H 1_555 1_555
C7A C2A 1_555 1_555
H3K C7K 1_555 1_555
H3E C7E 1_555 1_555
H3G C7G 1_555 1_555
H3A C7A 1_555 1_555
H3H C7H 1_555 1_555
O3 C1 1_555 1_555
C6 C7 1_555 1_555
O3E C1E 1_555 1_555
O3G C1G 1_555 1_555
C3E C4E 1_555 1_555
C4K C5E 1_555 1_555
C4K C5K 1_555 1_555
C4H C5G 1_555 1_555
C4A C5H 1_555 1_555
C4A C5A 1_555 1_555
C6E C7E 1_555 1_555
C6K C7K 1_555 1_555
C6G C7G 1_555 1_555
C6H C7H 1_555 1_555
C6A C7A 1_555 1_555

#END
