
#######################################################################
#
#                 Cambridge Crystallographic Data Centre
#                                CCDC 
#
#######################################################################
#
# If this CIF has been generated from an entry in the Cambridge 
# Structural Database, then it will include bibliographic, chemical, 
# crystal, experimental, refinement or atomic coordinate data resulting 
# from the CCDC's data processing and validation procedures.
#
#######################################################################

data_GARLUJ
_chemical_formula_moiety         '(C28 H26 Eu1 N2 O10)n'
_symmetry_cell_setting           monoclinic
_symmetry_space_group_name_H-M   'P 2/c'
_symmetry_Int_Tables_number      13
_space_group_name_Hall           '-P 2yc'
loop_
_symmetry_equiv_pos_site_id
_symmetry_equiv_pos_as_xyz
1 x,y,z
2 -x,y,1/2-z
3 -x,-y,-z
4 x,-y,1/2+z
_cell_length_a                   15.854(5)
_cell_length_b                   10.515(5)
_cell_length_c                   20.947(5)
_cell_angle_alpha                90
_cell_angle_beta                 107.587(5)
_cell_angle_gamma                90
_cell_volume                     3328.75
loop_
_atom_site_label
_atom_site_type_symbol
_atom_site_fract_x
_atom_site_fract_y
_atom_site_fract_z
C1 C 0.7476(3) 0.7278(5) 0.7548(2)
C2 C 0.7313(3) 0.8005(5) 0.8060(2)
H1 H 0.7652 0.7865 0.8501
C3 C 0.6661(3) 0.8922(5) 0.7924(2)
C4 C 0.6133(3) 0.9143(5) 0.7273(3)
H2 H 0.5684 0.9747 0.7183
C5 C 0.6292(3) 0.8435(5) 0.6757(2)
C6 C 0.6959(3) 0.7532(5) 0.6893(2)
H3 H 0.7065 0.7087 0.6541
C7 C 0.5753(3) 0.8675(4) 0.6040(2)
C8 C 0.6187(3) 0.1682(5) 0.5687(2)
C9 C 0.6781(3) 0.2680(5) 0.6088(2)
C10 C 0.6528(4) 0.3350(5) 0.6567(3)
H4 H 0.6003 0.3145 0.6654
C11 C 0.7053(4) 0.4327(5) 0.6918(3)
H5 H 0.6879 0.4764 0.7242
C12 C 0.7828(3) 0.4661(5) 0.6795(3)
C13 C 0.8086(4) 0.3970(6) 0.6324(4)
H6 H 0.8616 0.4165 0.6243
C14 C 0.7568(4) 0.2994(6) 0.5974(3)
H7 H 0.7751 0.2542 0.5658
C15 C 0.8399(3) 0.5766(5) 0.7142(3)
H8 H 0.9005 0.5474 0.7323
H9 H 0.8389 0.6419 0.6813
C16 C 0.8653(4) 0.6018(5) 0.8353(3)
H10 H 0.8807 0.5123 0.8371
H11 H 0.8300 0.6150 0.8653
C17 C 0.9496(3) 0.6792(5) 0.8602(3)
C18 C 0.9646(4) 0.7852(6) 0.8282(3)
H12 H 0.9219 0.8114 0.7893
C19 C 1.0422(4) 0.8559(6) 0.8521(3)
H13 H 1.0512 0.9275 0.8289
C20 C 1.1049(3) 0.8193(5) 0.9097(3)
C21 C 1.0923(4) 0.7114(7) 0.9417(3)
H14 H 1.1359 0.6849 0.9800
C22 C 1.0153(4) 0.6408(6) 0.9177(3)
H15 H 1.0075 0.5675 0.9402
C23 C 1.1875(4) 0.8958(6) 0.9374(3)
C24 C 0.6530(3) 0.9676(5) 0.8497(2)
C25 C 0.3818(8) 0.4064(8) 0.5640(6)
C26 C 0.3925(10) 0.4689(16) 0.6655(8)
H16 H 0.4002 0.5450 0.6920
H17 H 0.4395 0.4104 0.6857
H18 H 0.3367 0.4306 0.6631
C27 C 0.3941(8) 0.6343(12) 0.5856(6)
H19 H 0.4068 0.6781 0.6277
H20 H 0.3369 0.6597 0.5571
H21 H 0.4383 0.6550 0.5645
O1 O 0.5020(3) 0.9203(3) 0.59256(19)
O2 O 0.6079(2) 0.8312(4) 0.55943(16)
O3 O 0.5395(2) 0.1701(4) 0.5669(2)
O4 O 0.6514(3) 0.0881(3) 0.53819(19)
O5 O 1.1955(3) 0.9919(5) 0.9005(3)
O6 O 1.2419(2) 0.8668(4) 0.98970(18)
O7 O 0.6886(3) 0.9295(4) 0.90836(18)
O8 O 0.6056(3) 1.0660(3) 0.83851(18)
O9 O 0.3808(3) 0.2948(4) 0.5734(2)
Eu1 Eu 0.399114(14) 0.07866(2) 0.545770(10)
N1 N 0.8122(3) 0.6326(4) 0.7679(2)
N2 N 0.3944(5) 0.5013(6) 0.5967(4)
C28 C 0.4194(11) 0.4510(15) 0.5014(8)
H22 H 0.4245 0.5420 0.5013
H23 H 0.3790 0.4233 0.4597
H24 H 0.4764 0.4134 0.5072
O1_2 O 0.5020(3) -0.0797(3) 0.59256(19)
O2B O 0.3921(2) 0.1688(4) 0.44057(16)
O4B O 0.3486(3) -0.0881(3) 0.46181(19)
O6C O 0.2419(2) 0.1332(4) 0.48970(18)
O7A O 0.3114(3) -0.0705(4) 0.59164(18)
O8A O 0.3944(3) 0.0660(3) 0.66149(18)
Eu1_2 Eu 0.399114(14) 1.07866(2) 0.545770(10)
Eu1A Eu 0.600886(14) 1.07866(2) 0.954230(10)
Eu1B Eu 0.600886(14) -0.07866(2) 0.454230(10)
Eu1B_2 Eu 0.600886(14) 0.92134(2) 0.454230(10)
Eu1C Eu 1.399114(14) 0.92134(2) 1.045770(10)
O10 O 0.5000 0.2424(9) 0.7500
loop_
_geom_bond_atom_site_label_1
_geom_bond_atom_site_label_2
_geom_bond_site_symmetry_1
_geom_bond_site_symmetry_2
C1 C2 1_555 1_555
C2 H1 1_555 1_555
C3 C2 1_555 1_555
C4 C3 1_555 1_555
H2 C4 1_555 1_555
C5 C4 1_555 1_555
C6 C1 1_555 1_555
H3 C6 1_555 1_555
C7 C5 1_555 1_555
C8 C9 1_555 1_555
C9 C10 1_555 1_555
C10 H4 1_555 1_555
C11 C10 1_555 1_555
H5 C11 1_555 1_555
C12 C11 1_555 1_555
C13 C12 1_555 1_555
H6 C13 1_555 1_555
C14 C9 1_555 1_555
H7 C14 1_555 1_555
C15 C12 1_555 1_555
H8 C15 1_555 1_555
H9 C15 1_555 1_555
C16 H10 1_555 1_555
H11 C16 1_555 1_555
C17 C16 1_555 1_555
C18 C17 1_555 1_555
H12 C18 1_555 1_555
C19 C18 1_555 1_555
H13 C19 1_555 1_555
C20 C19 1_555 1_555
C21 C20 1_555 1_555
H14 C21 1_555 1_555
C22 C17 1_555 1_555
H15 C22 1_555 1_555
C23 C20 1_555 1_555
C24 C3 1_555 1_555
C25 O9 1_555 1_555
C26 H16 1_555 1_555
H17 C26 1_555 1_555
H18 C26 1_555 1_555
C27 H19 1_555 1_555
H20 C27 1_555 1_555
H21 C27 1_555 1_555
O1 C7 1_555 1_555
O2 C7 1_555 1_555
O3 C8 1_555 1_555
O4 C8 1_555 1_555
O5 C23 1_555 1_555
O6 C23 1_555 1_555
O7 C24 1_555 1_555
O8 C24 1_555 1_555
O9 Eu1 1_555 1_555
Eu1 O3 1_555 1_555
N1 C1 1_555 1_555
N2 C25 1_555 1_555
C28 C25 1_555 1_555
H22 C28 1_555 1_555
H23 C28 1_555 1_555
H24 C28 1_555 1_555
O1_2 Eu1 1_555 1_555
O2B Eu1 1_555 1_555
O4B Eu1 1_555 1_555
O6C Eu1 1_555 1_555
O7A Eu1 1_555 1_555
O8A Eu1 1_555 1_555
Eu1_2 O1 1_555 1_555
Eu1A O7 1_555 1_555
Eu1B O4 1_555 1_555
Eu1B_2 O2 1_555 1_555
Eu1C O6 1_555 1_555
C5 C6 1_555 1_555
C13 C14 1_555 1_555
C15 N1 1_555 1_555
C16 N1 1_555 1_555
C21 C22 1_555 1_555
C26 N2 1_555 1_555
C27 N2 1_555 1_555
O8 Eu1A 1_555 1_555

#END
