
#######################################################################
#
#                 Cambridge Crystallographic Data Centre
#                                CCDC 
#
#######################################################################
#
# If this CIF has been generated from an entry in the Cambridge 
# Structural Database, then it will include bibliographic, chemical, 
# crystal, experimental, refinement or atomic coordinate data resulting 
# from the CCDC's data processing and validation procedures.
#
#######################################################################

data_GARLAP
_chemical_formula_moiety         '(C28 H24 La1 N2 O9)n'
_symmetry_cell_setting           monoclinic
_symmetry_space_group_name_H-M   'P 2/c'
_symmetry_Int_Tables_number      13
_space_group_name_Hall           '-P 2yc'
loop_
_symmetry_equiv_pos_site_id
_symmetry_equiv_pos_as_xyz
1 x,y,z
2 -x,y,1/2-z
3 -x,-y,-z
4 x,-y,1/2+z
_cell_length_a                   15.861(5)
_cell_length_b                   10.599(5)
_cell_length_c                   21.235(5)
_cell_angle_alpha                90
_cell_angle_beta                 106.914(5)
_cell_angle_gamma                90
_cell_volume                     3415.41
loop_
_atom_site_label
_atom_site_type_symbol
_atom_site_fract_x
_atom_site_fract_y
_atom_site_fract_z
C1 C 0.3168(6) 0.3916(8) -0.4363(5)
C2 C 0.3989(5) 0.3163(9) -0.4082(4)
C3 C 0.4128(6) 0.2091(10) -0.4402(5)
H1 H 0.3711 0.1841 -0.4788
C4 C 0.4887(6) 0.1378(10) -0.4153(5)
H2 H 0.4974 0.0644 -0.4366
C5 C 0.5517(5) 0.1771(8) -0.3580(4)
C6 C 0.5360(6) 0.2809(9) -0.3261(5)
H3 H 0.5769 0.3052 -0.2869
C7 C 0.4595(6) 0.3520(10) -0.3509(5)
H4 H 0.4498 0.4233 -0.3285
C8 C 0.6356(5) 0.1008(7) -0.3325(4)
H5 H 0.6201 0.0121 -0.3349
H6 H 0.6720 0.1145 -0.3615
C9 C 0.6590(5) 0.0730(8) -0.2140(5)
H7 H 0.5987 0.0441 -0.2320
H8 H 0.6590 0.1380 -0.1819
C10 C 0.7141(5) -0.0361(8) -0.1791(4)
C11 C 0.6864(6) -0.1051(9) -0.1336(5)
H9 H 0.6328 -0.0858 -0.1263
C12 C 0.7369(6) -0.2020(9) -0.0988(5)
H10 H 0.7166 -0.2484 -0.0689
C13 C 0.8179(5) -0.2307(7) -0.1080(4)
C14 C 0.8757(5) -0.3303(7) -0.0681(4)
C15 C 0.8441(6) -0.1638(9) -0.1549(4)
H11 H 0.8970 -0.1840 -0.1631
C16 C 0.7929(6) -0.0678(8) -0.1896(4)
H12 H 0.8120 -0.0235 -0.2208
C17 C 0.9196(5) 0.3637(7) -0.1048(4)
C18 C 0.8682(5) 0.3407(7) -0.1755(4)
C19 C 0.8016(5) 0.2502(7) -0.1889(4)
H13 H 0.7905 0.2059 -0.1543
C20 C 0.7514(5) 0.2251(7) -0.2531(4)
C21 C 0.7667(5) 0.2963(8) -0.3036(4)
H14 H 0.7327 0.2827 -0.3468
C22 C 0.8326(5) 0.3878(7) -0.2901(4)
C23 C 0.8841(5) 0.4097(8) -0.2260(4)
H15 H 0.9286 0.4699 -0.2173
C24 C 0.8452(5) 0.4643(8) -0.3460(4)
C25 C 0.8850(13) 0.0866(13) 0.0683(10)
N1 N 0.8978(8) -0.0069(13) 0.0980(6)
C26 C 0.8940(18) -0.1420(15) 0.0844(10)
H16 H 0.9123 -0.1878 0.1251
H17 H 0.9325 -0.1619 0.0583
H18 H 0.8347 -0.1653 0.0608
C27 C 0.903(2) 0.0223(18) 0.1651(10)
H19 H 0.9143 -0.0535 0.1909
H20 H 0.8486 0.0590 0.1670
H21 H 0.9503 0.0811 0.1824
N2 N 0.6871(5) 0.1287(7) -0.2666(3)
O1 O 0.3080(4) 0.4888(7) -0.4009(4)
O2 O 0.2641(4) 0.3662(6) -0.4893(3)
O3 O 0.9921(4) 0.4223(6) -0.0933(3)
O4 O 0.8889(4) 0.3238(6) -0.0609(3)
O5 O 0.9552(4) -0.3258(6) -0.0638(3)
O6 O 0.8422(4) -0.4126(5) -0.0393(3)
O7 O 0.8819(4) 0.1954(6) 0.0772(3)
O8 O 0.8917(4) 0.5629(5) -0.3341(3)
La1 La 0.89925(2) 0.41834(4) 0.047558(19)
O9 O 0.8088(4) 0.4286(6) -0.4040(3)
C28 C 0.886(2) 0.052(3) -0.0036(12)
H22 H 0.8746 0.1266 -0.0305
H23 H 0.8410 -0.0095 -0.0217
H24 H 0.9424 0.0183 -0.0024
O2A O 0.7359(4) 0.3662(6) -0.0107(3)
O3B O 1.0079(4) 0.5777(6) 0.0933(3)
O5B O 1.0448(4) 0.3258(6) 0.0638(3)
O6_2 O 0.8422(4) 0.5874(5) -0.0393(3)
O8C O 0.8917(4) 0.4371(5) 0.1659(3)
La1_2 La 0.89925(2) -0.58166(4) 0.047558(19)
La1A La 0.10075(2) 0.41834(4) -0.547558(19)
La1B La 1.10075(2) -0.41834(4) -0.047558(19)
La1B_2 La 1.10075(2) 0.58166(4) -0.047558(19)
La1C La 0.89925(2) 0.58166(4) -0.452442(19)
O9C O 0.8088(4) 0.5714(6) 0.0960(3)
loop_
_geom_bond_atom_site_label_1
_geom_bond_atom_site_label_2
_geom_bond_site_symmetry_1
_geom_bond_site_symmetry_2
C1 C2 1_555 1_555
C2 C3 1_555 1_555
C3 H1 1_555 1_555
C4 C3 1_555 1_555
H2 C4 1_555 1_555
C5 C4 1_555 1_555
C6 C5 1_555 1_555
H3 C6 1_555 1_555
C7 C2 1_555 1_555
H4 C7 1_555 1_555
C8 C5 1_555 1_555
H5 C8 1_555 1_555
H6 C8 1_555 1_555
C9 H7 1_555 1_555
H8 C9 1_555 1_555
C10 C9 1_555 1_555
C11 C10 1_555 1_555
H9 C11 1_555 1_555
C12 C11 1_555 1_555
H10 C12 1_555 1_555
C13 C12 1_555 1_555
C14 C13 1_555 1_555
C15 C13 1_555 1_555
H11 C15 1_555 1_555
C16 C10 1_555 1_555
H12 C16 1_555 1_555
C17 C18 1_555 1_555
C18 C19 1_555 1_555
C19 H13 1_555 1_555
C20 C19 1_555 1_555
C21 C20 1_555 1_555
H14 C21 1_555 1_555
C22 C21 1_555 1_555
C23 C18 1_555 1_555
H15 C23 1_555 1_555
C24 C22 1_555 1_555
C25 N1 1_555 1_555
N1 C26 1_555 1_555
C26 H16 1_555 1_555
H17 C26 1_555 1_555
H18 C26 1_555 1_555
C27 N1 1_555 1_555
H19 C27 1_555 1_555
H20 C27 1_555 1_555
H21 C27 1_555 1_555
N2 C8 1_555 1_555
O1 C1 1_555 1_555
O2 C1 1_555 1_555
O3 C17 1_555 1_555
O4 C17 1_555 1_555
O5 C14 1_555 1_555
O6 C14 1_555 1_555
O7 C25 1_555 1_555
O8 C24 1_555 1_555
La1 O4 1_555 1_555
O9 C24 1_555 1_555
C28 C25 1_555 1_555
H22 C28 1_555 1_555
H23 C28 1_555 1_555
H24 C28 1_555 1_555
O2A La1 1_555 1_555
O3B La1 1_555 1_555
O5B La1 1_555 1_555
O6_2 La1 1_555 1_555
O8C La1 1_555 1_555
La1_2 O6 1_555 1_555
La1A O2 1_555 1_555
La1B O5 1_555 1_555
La1B_2 O3 1_555 1_555
La1C O8 1_555 1_555
O9C La1 1_555 1_555
C6 C7 1_555 1_555
C9 N2 1_555 1_555
C15 C16 1_555 1_555
C20 N2 1_555 1_555
C22 C23 1_555 1_555
O7 La1 1_555 1_555
O9 La1C 1_555 1_555

#END
