
#######################################################################
#
#                 Cambridge Crystallographic Data Centre
#                                CCDC 
#
#######################################################################
#
# If this CIF has been generated from an entry in the Cambridge 
# Structural Database, then it will include bibliographic, chemical, 
# crystal, experimental, refinement or atomic coordinate data resulting 
# from the CCDC's data processing and validation procedures.
#
#######################################################################

data_GARLET
_chemical_formula_moiety         '(C28 H24 N2 O9 Pr1)n'
_symmetry_cell_setting           monoclinic
_symmetry_space_group_name_H-M   'P 2/c'
_symmetry_Int_Tables_number      13
_space_group_name_Hall           '-P 2yc'
loop_
_symmetry_equiv_pos_site_id
_symmetry_equiv_pos_as_xyz
1 x,y,z
2 -x,y,1/2-z
3 -x,-y,-z
4 x,-y,1/2+z
_cell_length_a                   15.837(5)
_cell_length_b                   10.568(5)
_cell_length_c                   21.099(5)
_cell_angle_alpha                90
_cell_angle_beta                 107.098(5)
_cell_angle_gamma                90
_cell_volume                     3375.17
loop_
_atom_site_label
_atom_site_type_symbol
_atom_site_fract_x
_atom_site_fract_y
_atom_site_fract_z
Pr1 Pr 0.39919(2) 0.08118(3) 0.546968(14)
O1 O 0.5428(3) 0.1722(5) 0.5646(3)
O2 O 0.3813(4) 0.3014(5) 0.5756(3)
O3 O 0.5053(4) -0.0782(4) 0.5928(2)
O4 O 0.3901(3) 0.1727(5) 0.4396(2)
O5 O 0.2380(3) 0.1362(5) 0.4893(2)
O6 O 0.3444(3) -0.0873(4) 0.4613(2)
O7 O 0.3931(4) 0.0644(4) 0.6638(2)
O8 O 0.3098(4) -0.0710(5) 0.5940(2)
C1 C 0.3824(10) 0.4130(10) 0.5666(7)
C2 C 0.5785(4) -0.1350(6) 0.6042(3)
C3 C 0.4108(14) 0.4553(18) 0.4998(8)
N1 N 0.3957(6) 0.5049(8) 0.5973(5)
C4 C 0.6311(4) -0.1572(6) 0.6759(3)
H1 H 0.4156 0.5457 0.4986
H2 H 0.3666 0.4267 0.4607
H3 H 0.4666 0.4178 0.5015
C5 C 0.4119(12) 0.4843(18) 0.6681(9)
C6 C 0.3945(10) 0.6396(14) 0.5845(7)
C7 C 0.6973(4) -0.2499(7) 0.6906(3)
C8 C 0.6147(4) -0.0883(6) 0.7266(3)
H4 H 0.4229 0.5640 0.6908
H5 H 0.4624 0.4302 0.6844
H6 H 0.3611 0.4451 0.6757
H7 H 0.4113 0.6846 0.6258
H8 H 0.3361 0.6647 0.5591
H9 H 0.4354 0.6587 0.5601
C9 C 0.7484(4) -0.2738(6) 0.7541(3)
H10 H 0.7069 -0.2968 0.6561
C10 C 0.6672(4) -0.1104(6) 0.7913(3)
H11 H 0.5696 -0.0286 0.7178
C11 C 0.7326(4) -0.2020(6) 0.8044(3)
N2 N 0.8118(4) -0.3690(5) 0.7668(3)
C12 C 0.6535(4) -0.0341(7) 0.8475(3)
H12 H 0.7667 -0.2156 0.8479
C13 C 0.8650(5) -0.4006(6) 0.8339(4)
C14 C 0.8412(5) -0.4248(6) 0.7140(4)
C15 C 0.9479(4) -0.3232(7) 0.8589(3)
H13 H 0.8811 -0.4893 0.8352
H14 H 0.8292 -0.3891 0.8638
H15 H 0.8409 -0.3600 0.6813
C16 C 0.7843(4) -0.5357(6) 0.6792(3)
H16 H 0.9016 -0.4538 0.7323
C17 C 0.9636(5) -0.2170(7) 0.8271(4)
C18 C 1.0125(5) -0.3608(8) 0.9166(4)
C19 C 0.7069(5) -0.5681(7) 0.6908(4)
C20 C 0.8121(5) -0.6036(8) 0.6335(5)
H17 H 0.9220 -0.1920 0.7880
C21 C 1.0399(5) -0.1455(8) 0.8514(4)
C22 C 1.0887(5) -0.2919(9) 0.9413(4)
H18 H 1.0038 -0.4337 0.9387
C23 C 0.6547(5) -0.6668(7) 0.6558(3)
H19 H 0.6884 -0.5240 0.7226
C24 C 0.7608(5) -0.7010(7) 0.5976(4)
H20 H 0.8659 -0.5841 0.6264
C25 C 1.1027(4) -0.1827(7) 0.9094(3)
H21 H 1.0489 -0.0734 0.8289
H22 H 1.1311 -0.3186 0.9796
C26 C 0.6809(4) -0.7321(6) 0.6083(3)
H23 H 0.6023 -0.6882 0.6646
H24 H 0.7800 -0.7454 0.5664
C27 C 1.1842(5) -0.1090(7) 0.9371(4)
C28 C 0.6222(4) -0.8311(6) 0.5678(3)
O9 O 1.1932(4) -0.0115(6) 0.9008(3)
O4B O 0.6099(3) -0.1727(5) 0.5604(2)
Pr1B Pr 0.60081(2) -0.08118(3) 0.453032(14)
O8A O 0.6902(4) -0.0710(5) 0.9060(2)
O7A O 0.6069(4) 0.0644(4) 0.8362(2)
Pr1A Pr 0.60081(2) 0.08118(3) 0.953032(14)
O5C O 1.2380(3) -0.1362(5) 0.9893(2)
O1_2 O 0.5428(3) -0.8278(5) 0.5646(3)
O6B O 0.6556(3) -0.9127(4) 0.5387(2)
Pr1C Pr 1.39919(2) -0.08118(3) 1.046968(14)
Pr1_2 Pr 0.39919(2) -0.91882(3) 0.546968(14)
Pr1B_2 Pr 0.60081(2) -1.08118(3) 0.453032(14)
loop_
_geom_bond_atom_site_label_1
_geom_bond_atom_site_label_2
_geom_bond_site_symmetry_1
_geom_bond_site_symmetry_2
Pr1 O1 1_555 1_555
O2 Pr1 1_555 1_555
O3 Pr1 1_555 1_555
O4 Pr1 1_555 1_555
O5 Pr1 1_555 1_555
O6 Pr1 1_555 1_555
O7 Pr1 1_555 1_555
O8 Pr1 1_555 1_555
C1 O2 1_555 1_555
C2 O3 1_555 1_555
C3 C1 1_555 1_555
N1 C1 1_555 1_555
C4 C2 1_555 1_555
H1 C3 1_555 1_555
H2 C3 1_555 1_555
H3 C3 1_555 1_555
C5 N1 1_555 1_555
C6 N1 1_555 1_555
C7 C4 1_555 1_555
C8 C4 1_555 1_555
H4 C5 1_555 1_555
H5 C5 1_555 1_555
H6 C5 1_555 1_555
H7 C6 1_555 1_555
H8 C6 1_555 1_555
H9 C6 1_555 1_555
C9 C7 1_555 1_555
H10 C7 1_555 1_555
C10 C8 1_555 1_555
H11 C8 1_555 1_555
C11 C9 1_555 1_555
N2 C9 1_555 1_555
C12 C10 1_555 1_555
H12 C11 1_555 1_555
C13 N2 1_555 1_555
C14 N2 1_555 1_555
C15 C13 1_555 1_555
H13 C13 1_555 1_555
H14 C13 1_555 1_555
H15 C14 1_555 1_555
C16 C14 1_555 1_555
H16 C14 1_555 1_555
C17 C15 1_555 1_555
C18 C15 1_555 1_555
C19 C16 1_555 1_555
C20 C16 1_555 1_555
H17 C17 1_555 1_555
C21 C17 1_555 1_555
C22 C18 1_555 1_555
H18 C18 1_555 1_555
C23 C19 1_555 1_555
H19 C19 1_555 1_555
C24 C20 1_555 1_555
H20 C20 1_555 1_555
C25 C21 1_555 1_555
H21 C21 1_555 1_555
H22 C22 1_555 1_555
C26 C23 1_555 1_555
H23 C23 1_555 1_555
H24 C24 1_555 1_555
C27 C25 1_555 1_555
C28 C26 1_555 1_555
O9 C27 1_555 1_555
O4B C2 1_555 1_555
Pr1B O4B 1_555 1_555
O8A C12 1_555 1_555
O7A C12 1_555 1_555
Pr1A O8A 1_555 1_555
O5C C27 1_555 1_555
O1_2 C28 1_555 1_555
O6B C28 1_555 1_555
Pr1C O5C 1_555 1_555
Pr1_2 O1_2 1_555 1_555
Pr1B_2 O6B 1_555 1_555
C10 C11 1_555 1_555
C22 C25 1_555 1_555
C24 C26 1_555 1_555
O7A Pr1A 1_555 1_555

#END
