
#######################################################################
#
#                 Cambridge Crystallographic Data Centre
#                                CCDC 
#
#######################################################################
#
# If this CIF has been generated from an entry in the Cambridge 
# Structural Database, then it will include bibliographic, chemical, 
# crystal, experimental, refinement or atomic coordinate data resulting 
# from the CCDC's data processing and validation procedures.
#
#######################################################################

data_GARLOD
_chemical_formula_moiety         '(C28 H30 N2 O12 Sm1)n'
_symmetry_cell_setting           monoclinic
_symmetry_space_group_name_H-M   'P 2/c'
_symmetry_Int_Tables_number      13
_space_group_name_Hall           '-P 2yc'
loop_
_symmetry_equiv_pos_site_id
_symmetry_equiv_pos_as_xyz
1 x,y,z
2 -x,y,1/2-z
3 -x,-y,-z
4 x,-y,1/2+z
_cell_length_a                   15.858(5)
_cell_length_b                   10.522(5)
_cell_length_c                   20.970(5)
_cell_angle_alpha                90
_cell_angle_beta                 107.520(5)
_cell_angle_gamma                90
_cell_volume                     3336.7
loop_
_atom_site_label
_atom_site_type_symbol
_atom_site_fract_x
_atom_site_fract_y
_atom_site_fract_z
C1 C 0.7487(4) 0.7279(7) 0.7551(4)
C2 C 0.6965(5) 0.7527(7) 0.6890(3)
H1 H 0.7068 0.7081 0.6538
C3 C 0.6294(5) 0.8437(7) 0.6760(3)
C4 C 0.6133(5) 0.9138(7) 0.7272(4)
H2 H 0.5685 0.9742 0.7182
C5 C 0.6662(5) 0.8912(7) 0.7920(4)
C6 C 0.7312(5) 0.8002(7) 0.8063(4)
H3 H 0.7643 0.7860 0.8505
C7 C 0.6540(5) 0.9683(8) 0.8495(4)
C8 C 0.5760(5) 0.8665(7) 0.6040(3)
C9 C 0.8646(5) 0.6015(8) 0.8356(4)
H4 H 0.8795 0.5119 0.8375
H5 H 0.8296 0.6158 0.8657
C10 C 0.9495(5) 0.6785(8) 0.8597(4)
C11 C 0.9652(6) 0.7848(9) 0.8272(4)
H6 H 0.9230 0.8105 0.7880
C12 C 1.0417(6) 0.8543(9) 0.8511(5)
H7 H 1.0510 0.9257 0.8279
C13 C 1.1046(5) 0.8178(8) 0.9094(4)
C14 C 1.0914(6) 0.7098(10) 0.9414(4)
H8 H 1.1346 0.6830 0.9798
C15 C 1.0150(6) 0.6405(10) 0.9174(5)
H9 H 1.0069 0.5674 0.9398
C16 C 1.1873(5) 0.8930(8) 0.9373(4)
C17 C 0.8397(5) 0.5777(8) 0.7138(4)
H10 H 0.9005 0.5496 0.7316
H11 H 0.8378 0.6432 0.6809
C18 C 0.7831(5) 0.4661(7) 0.6794(4)
C19 C 0.7055(6) 0.4321(8) 0.6919(4)
H12 H 0.6877 0.4755 0.7243
C20 C 0.6536(5) 0.3340(8) 0.6567(4)
H13 H 0.6012 0.3130 0.6655
C21 C 0.6786(5) 0.2679(7) 0.6094(4)
C22 C 0.6194(5) 0.1679(7) 0.5690(4)
C23 C 0.7587(6) 0.2981(9) 0.5976(5)
H14 H 0.7778 0.2511 0.5670
C24 C 0.8092(6) 0.3984(10) 0.6317(5)
H15 H 0.8611 0.4205 0.6225
C25 C 0.3817(12) 0.4070(13) 0.5605(8)
C26 C 0.3940(11) 0.6366(17) 0.5858(9)
H16 H 0.4060 0.6799 0.6279
H17 H 0.3369 0.6616 0.5572
H18 H 0.4384 0.6584 0.5651
C27 C 0.4005(14) 0.474(2) 0.6673(10)
H19 H 0.4070 0.5514 0.6924
H20 H 0.4506 0.4199 0.6865
H21 H 0.3475 0.4311 0.6685
C28 C 0.3257(12) 0.4314(17) 0.4892(8)
H22 H 0.3292 0.5196 0.4787
H23 H 0.2653 0.4095 0.4844
H24 H 0.3470 0.3805 0.4593
N1 N 0.8116(4) 0.6327(6) 0.7681(3)
N2 N 0.3950(8) 0.5033(10) 0.5966(6)
O1 O 1.2413(3) 0.8656(6) 0.9897(3)
O2 O 1.1954(4) 0.9898(7) 0.9011(4)
O3 O 0.6056(4) 1.0657(5) 0.8379(3)
O4 O 0.5024(4) 0.9214(6) 0.5930(3)
O5 O 0.6084(4) 0.8307(5) 0.5594(2)
O6 O 0.3815(4) 0.2958(6) 0.5742(3)
O7 O 0.6889(4) 0.9292(6) 0.9084(3)
O8 O 0.5403(4) 0.1701(6) 0.5664(3)
O9 O 0.6526(4) 0.0874(5) 0.5386(3)
Sm1 Sm 0.39932(2) 0.07927(3) 0.546077(16)
O1C O 0.2413(3) 0.1344(6) 0.4897(3)
O3A O 0.3944(4) 0.0657(5) 0.6621(3)
O4_2 O 0.5024(4) -0.0786(6) 0.5930(3)
O5B O 0.3916(4) 0.1693(5) 0.4406(2)
O7A O 0.3111(4) -0.0708(6) 0.5916(3)
O9B O 0.3474(4) -0.0874(5) 0.4614(3)
Sm1_2 Sm 0.39932(2) 1.07927(3) 0.546077(16)
Sm1A Sm 0.60068(2) 1.07927(3) 0.953923(16)
Sm1B Sm 0.60068(2) -0.07927(3) 0.453923(16)
Sm1B_2 Sm 0.60068(2) 0.92073(3) 0.453923(16)
Sm1C Sm 1.39932(2) 0.92073(3) 1.046077(16)
O10 O 0.5000 0.2398(14) 0.7500
O11 O 0.9783(16) 0.291(2) 0.8907(12)
O12 O 0.840(3) 0.147(4) 0.793(2)
loop_
_geom_bond_atom_site_label_1
_geom_bond_atom_site_label_2
_geom_bond_site_symmetry_1
_geom_bond_site_symmetry_2
C1 C2 1_555 1_555
C2 H1 1_555 1_555
C3 C2 1_555 1_555
C4 C3 1_555 1_555
H2 C4 1_555 1_555
C5 C4 1_555 1_555
C6 C1 1_555 1_555
H3 C6 1_555 1_555
C7 C5 1_555 1_555
C8 C3 1_555 1_555
C9 H4 1_555 1_555
H5 C9 1_555 1_555
C10 C9 1_555 1_555
C11 C10 1_555 1_555
H6 C11 1_555 1_555
C12 C11 1_555 1_555
H7 C12 1_555 1_555
C13 C12 1_555 1_555
C14 C13 1_555 1_555
H8 C14 1_555 1_555
C15 C10 1_555 1_555
H9 C15 1_555 1_555
C16 C13 1_555 1_555
C17 H10 1_555 1_555
H11 C17 1_555 1_555
C18 C17 1_555 1_555
C19 C18 1_555 1_555
H12 C19 1_555 1_555
C20 C19 1_555 1_555
H13 C20 1_555 1_555
C21 C20 1_555 1_555
C22 C21 1_555 1_555
C23 C21 1_555 1_555
H14 C23 1_555 1_555
C24 C18 1_555 1_555
H15 C24 1_555 1_555
C25 C28 1_555 1_555
C26 H16 1_555 1_555
H17 C26 1_555 1_555
H18 C26 1_555 1_555
C27 H19 1_555 1_555
H20 C27 1_555 1_555
H21 C27 1_555 1_555
C28 H22 1_555 1_555
H23 C28 1_555 1_555
H24 C28 1_555 1_555
N1 C1 1_555 1_555
N2 C25 1_555 1_555
O1 C16 1_555 1_555
O2 C16 1_555 1_555
O3 C7 1_555 1_555
O4 C8 1_555 1_555
O5 C8 1_555 1_555
O6 C25 1_555 1_555
O7 C7 1_555 1_555
O8 C22 1_555 1_555
O9 C22 1_555 1_555
Sm1 O6 1_555 1_555
O1C Sm1 1_555 1_555
O3A Sm1 1_555 1_555
O4_2 Sm1 1_555 1_555
O5B Sm1 1_555 1_555
O7A Sm1 1_555 1_555
O9B Sm1 1_555 1_555
Sm1_2 O4 1_555 1_555
Sm1A O3 1_555 1_555
Sm1B O9 1_555 1_555
Sm1B_2 O5 1_555 1_555
Sm1C O1 1_555 1_555
C5 C6 1_555 1_555
C9 N1 1_555 1_555
C14 C15 1_555 1_555
C17 N1 1_555 1_555
C23 C24 1_555 1_555
C26 N2 1_555 1_555
C27 N2 1_555 1_555
O7 Sm1A 1_555 1_555
O8 Sm1 1_555 1_555

#END
