
#######################################################################
#
#                 Cambridge Crystallographic Data Centre
#                                CCDC 
#
#######################################################################
#
# If this CIF has been generated from an entry in the Cambridge 
# Structural Database, then it will include bibliographic, chemical, 
# crystal, experimental, refinement or atomic coordinate data resulting 
# from the CCDC's data processing and validation procedures.
#
#######################################################################

data_GARLIX
_chemical_formula_moiety         '(C28 H24 N2 Nd1 O9)n'
_symmetry_cell_setting           monoclinic
_symmetry_space_group_name_H-M   'P 2/c'
_symmetry_Int_Tables_number      13
_space_group_name_Hall           '-P 2yc'
loop_
_symmetry_equiv_pos_site_id
_symmetry_equiv_pos_as_xyz
1 x,y,z
2 -x,y,1/2-z
3 -x,-y,-z
4 x,-y,1/2+z
_cell_length_a                   15.838(5)
_cell_length_b                   10.548(5)
_cell_length_c                   21.074(5)
_cell_angle_alpha                90
_cell_angle_beta                 107.247(5)
_cell_angle_gamma                90
_cell_volume                     3362.3
loop_
_atom_site_label
_atom_site_type_symbol
_atom_site_fract_x
_atom_site_fract_y
_atom_site_fract_z
Nd1 Nd 0.399195(17) 0.08038(3) 0.546673(13)
O1 O 0.5046(3) 0.9220(4) 0.5930(2)
O2 O 0.6543(3) 0.0873(4) 0.5386(2)
O3 O 0.6095(3) 0.8279(4) 0.56030(19)
O4 O 0.5417(3) 0.1717(5) 0.5650(2)
O5 O 0.6070(3) 1.0651(4) 0.8369(2)
O6 O 0.6895(3) 0.9291(4) 0.9064(2)
C1 C 0.5773(4) 0.8661(5) 0.6043(3)
O7 O 0.3813(4) 0.2995(4) 0.5751(3)
C2 C 0.7486(4) 0.7271(5) 0.7542(3)
C3 C 0.6305(4) 0.8428(5) 0.6758(3)
N1 N 0.8119(3) 0.6319(5) 0.7672(2)
O8 O 1.2392(3) 0.8642(5) 0.9896(2)
C4 C 0.6968(4) 0.7511(6) 0.6906(3)
H1 H 0.7064 0.7044 0.6560
C5 C 0.3831(9) 0.4111(8) 0.5641(6)
C6 C 0.6665(4) 0.8904(6) 0.7915(3)
C7 C 0.6141(4) 0.9127(6) 0.7267(3)
H2 H 0.5693 0.9730 0.7177
O9 O 1.1941(4) 0.9887(6) 0.9007(3)
C8 C 0.8648(4) 0.5999(6) 0.8342(3)
H3 H 0.8809 0.5111 0.8353
H4 H 0.8291 0.6114 0.8640
C9 C 0.7064(4) 0.4322(6) 0.6912(3)
H5 H 0.6885 0.4756 0.7233
C10 C 0.7834(4) 0.4646(6) 0.6790(3)
C11 C 0.6799(4) 0.2685(5) 0.6083(3)
C12 C 0.6212(4) 0.1684(6) 0.5680(3)
C13 C 0.9642(4) 0.7843(7) 0.8273(4)
H6 H 0.9225 0.8097 0.7881
C14 C 0.7322(4) 0.7983(6) 0.8050(3)
H7 H 0.7658 0.7839 0.8488
C15 C 0.9483(4) 0.6780(6) 0.8594(3)
C16 C 1.1038(4) 0.8182(6) 0.9094(3)
C17 C 0.8407(4) 0.5754(6) 0.7142(3)
H8 H 0.9010 0.5459 0.7325
H9 H 0.8406 0.6403 0.6816
C18 C 1.0407(5) 0.8548(7) 0.8516(4)
H10 H 1.0497 0.9269 0.8290
N2 N 0.3956(6) 0.5058(7) 0.5985(4)
C19 C 0.8109(5) 0.3956(7) 0.6331(4)
H11 H 0.8648 0.4150 0.6261
C20 C 0.6539(4) 0.9657(6) 0.8484(3)
C21 C 1.1844(4) 0.8928(7) 0.9372(3)
C22 C 0.6545(4) 0.3341(6) 0.6557(3)
H12 H 0.6020 0.3129 0.6643
C23 C 0.7605(5) 0.2991(7) 0.5975(4)
H13 H 0.7798 0.2542 0.5665
C24 C 1.0136(5) 0.6396(8) 0.9168(4)
H14 H 1.0051 0.5663 0.9387
C25 C 1.0898(4) 0.7081(8) 0.9413(3)
H15 H 1.1325 0.6809 0.9795
C26 C 0.3938(14) 0.6379(10) 0.5844(7)
H16 H 0.4090 0.6848 0.6253
H17 H 0.3356 0.6616 0.5577
H18 H 0.4357 0.6565 0.5608
C27 C 0.4052(17) 0.4784(15) 0.6664(7)
H19 H 0.4159 0.5556 0.6917
H20 H 0.4540 0.4216 0.6833
H21 H 0.3520 0.4395 0.6701
C28 C 0.4216(13) 0.4500(17) 0.5057(8)
H22 H 0.4193 0.5406 0.5007
H23 H 0.3870 0.4113 0.4651
H24 H 0.4818 0.4220 0.5158
Nd1_2 Nd 0.399195(17) 1.08038(3) 0.546673(13)
Nd1A Nd 0.600805(17) 1.08038(3) 0.953327(13)
Nd1B Nd 0.600805(17) -0.08038(3) 0.453327(13)
Nd1B_2 Nd 0.600805(17) 0.91962(3) 0.453327(13)
Nd1C Nd 1.399195(17) 0.91962(3) 1.046673(13)
O1_2 O 0.5046(3) -0.0780(4) 0.5930(2)
O2B O 0.3457(3) -0.0873(4) 0.4614(2)
O3B O 0.3905(3) 0.1721(4) 0.43970(19)
O5A O 0.3930(3) 0.0651(4) 0.6631(2)
O6A O 0.3105(3) -0.0709(4) 0.5936(2)
O8C O 0.2392(3) 0.1358(5) 0.4896(2)
loop_
_geom_bond_atom_site_label_1
_geom_bond_atom_site_label_2
_geom_bond_site_symmetry_1
_geom_bond_site_symmetry_2
Nd1 O4 1_555 1_555
O1 C1 1_555 1_555
O2 C12 1_555 1_555
O3 C1 1_555 1_555
O4 C12 1_555 1_555
O5 C20 1_555 1_555
O6 C20 1_555 1_555
C1 C3 1_555 1_555
O7 Nd1 1_555 1_555
C2 N1 1_555 1_555
C3 C4 1_555 1_555
N1 C8 1_555 1_555
O8 C21 1_555 1_555
C4 C2 1_555 1_555
H1 C4 1_555 1_555
C5 O7 1_555 1_555
C6 C7 1_555 1_555
C7 C3 1_555 1_555
H2 C7 1_555 1_555
O9 C21 1_555 1_555
C8 H3 1_555 1_555
H4 C8 1_555 1_555
C9 H5 1_555 1_555
C10 C9 1_555 1_555
C11 C12 1_555 1_555
C13 H6 1_555 1_555
C14 C2 1_555 1_555
H7 C14 1_555 1_555
C15 C8 1_555 1_555
C16 C18 1_555 1_555
C17 N1 1_555 1_555
H8 C17 1_555 1_555
H9 C17 1_555 1_555
C18 C13 1_555 1_555
H10 C18 1_555 1_555
N2 C5 1_555 1_555
C19 C10 1_555 1_555
H11 C19 1_555 1_555
C20 C6 1_555 1_555
C21 C16 1_555 1_555
C22 C9 1_555 1_555
H12 C22 1_555 1_555
C23 C11 1_555 1_555
H13 C23 1_555 1_555
C24 C15 1_555 1_555
H14 C24 1_555 1_555
C25 C16 1_555 1_555
H15 C25 1_555 1_555
C26 N2 1_555 1_555
H16 C26 1_555 1_555
H17 C26 1_555 1_555
H18 C26 1_555 1_555
C27 N2 1_555 1_555
H19 C27 1_555 1_555
H20 C27 1_555 1_555
H21 C27 1_555 1_555
C28 C5 1_555 1_555
H22 C28 1_555 1_555
H23 C28 1_555 1_555
H24 C28 1_555 1_555
Nd1_2 O1 1_555 1_555
Nd1A O5 1_555 1_555
Nd1B O2 1_555 1_555
Nd1B_2 O3 1_555 1_555
Nd1C O8 1_555 1_555
O1_2 Nd1 1_555 1_555
O2B Nd1 1_555 1_555
O3B Nd1 1_555 1_555
O5A Nd1 1_555 1_555
O6A Nd1 1_555 1_555
O8C Nd1 1_555 1_555
O6 Nd1A 1_555 1_555
C6 C14 1_555 1_555
C10 C17 1_555 1_555
C11 C22 1_555 1_555
C13 C15 1_555 1_555
C19 C23 1_555 1_555
C24 C25 1_555 1_555

#END
