
#######################################################################
#
#                 Cambridge Crystallographic Data Centre
#                                CCDC 
#
#######################################################################
#
# If this CIF has been generated from an entry in the Cambridge 
# Structural Database, then it will include bibliographic, chemical, 
# crystal, experimental, refinement or atomic coordinate data resulting 
# from the CCDC's data processing and validation procedures.
#
#######################################################################

data_GARMAQ
_chemical_formula_moiety         '(C28 H30 Gd1 N2 O12)n'
_symmetry_cell_setting           monoclinic
_symmetry_space_group_name_H-M   'P 2/c'
_symmetry_Int_Tables_number      13
_space_group_name_Hall           '-P 2yc'
loop_
_symmetry_equiv_pos_site_id
_symmetry_equiv_pos_as_xyz
1 x,y,z
2 -x,y,1/2-z
3 -x,-y,-z
4 x,-y,1/2+z
_cell_length_a                   15.894(5)
_cell_length_b                   10.491(5)
_cell_length_c                   20.909(5)
_cell_angle_alpha                90
_cell_angle_beta                 107.841(5)
_cell_angle_gamma                90
_cell_volume                     3318.79
loop_
_atom_site_label
_atom_site_type_symbol
_atom_site_fract_x
_atom_site_fract_y
_atom_site_fract_z
C1 C 0.8661(5) 0.6025(7) 0.8361(4)
H1 H 0.8815 0.5128 0.8378
H2 H 0.8314 0.6157 0.8665
C2 C 0.9504(5) 0.6803(8) 0.8606(4)
C3 C 1.0158(5) 0.6410(9) 0.9175(4)
H3 H 1.0080 0.5673 0.9397
C4 C 1.0932(5) 0.7109(9) 0.9418(4)
H4 H 1.1368 0.6836 0.9801
C5 C 1.1059(5) 0.8206(8) 0.9095(4)
C6 C 1.0423(5) 0.8568(9) 0.8512(5)
H5 H 1.0511 0.9282 0.8277
C7 C 0.9649(5) 0.7865(9) 0.8276(4)
H6 H 0.9220 0.8123 0.7885
C8 C 1.1876(5) 0.8948(8) 0.9365(4)
C9 C 0.7482(4) 0.7282(6) 0.7558(3)
C10 C 0.7315(4) 0.8010(7) 0.8070(3)
H7 H 0.7655 0.7875 0.8513
C11 C 0.6660(4) 0.8919(7) 0.7928(3)
C12 C 0.6130(5) 0.9143(6) 0.7278(4)
H8 H 0.5680 0.9746 0.7188
C13 C 0.6288(4) 0.8443(6) 0.6760(3)
C14 C 0.6956(4) 0.7539(7) 0.6894(3)
H9 H 0.7059 0.7095 0.6540
C15 C 0.5750(4) 0.8673(7) 0.6037(3)
C16 C 0.6531(4) 0.9684(7) 0.8509(3)
C17 C 0.8388(5) 0.5770(7) 0.7149(4)
H10 H 0.8992 0.5472 0.7332
H11 H 0.8382 0.6424 0.6820
C18 C 0.7052(5) 0.4328(8) 0.6926(4)
H12 H 0.6883 0.4762 0.7254
C19 C 0.7820(4) 0.4673(7) 0.6797(4)
C20 C 0.6528(5) 0.3348(7) 0.6575(4)
H13 H 0.6007 0.3138 0.6665
C21 C 0.6773(4) 0.2686(6) 0.6095(3)
C22 C 0.6179(4) 0.1671(7) 0.5688(3)
C23 C 0.7555(5) 0.2983(9) 0.5978(5)
H14 H 0.7739 0.2508 0.5670
C24 C 0.8074(6) 0.3989(9) 0.6318(5)
H15 H 0.8591 0.4204 0.6223
C25 C 0.3831(10) 0.4053(11) 0.5629(8)
C26 C 0.4300(14) 0.4434(19) 0.5111(10)
H16 H 0.4304 0.5345 0.5073
H17 H 0.3990 0.4070 0.4682
H18 H 0.4896 0.4123 0.5256
C27 C 0.3978(14) 0.465(2) 0.6647(11)
H19 H 0.4049 0.5400 0.6920
H20 H 0.4470 0.4086 0.6831
H21 H 0.3440 0.4223 0.6641
C28 C 0.3928(11) 0.6360(17) 0.5850(9)
H22 H 0.4045 0.6794 0.6273
H23 H 0.3358 0.6611 0.5559
H24 H 0.4373 0.6580 0.5647
N1 N 0.8119(4) 0.6335(6) 0.7684(3)
N2 N 0.3938(7) 0.5005(9) 0.5959(6)
O1 O 0.3817(4) 0.2934(5) 0.5728(3)
O2 O 0.6051(4) 1.0665(5) 0.8388(2)
O3 O 0.5393(3) 0.1686(6) 0.5679(3)
O4 O 0.6510(3) 0.0873(4) 0.5386(3)
O5 O 0.6072(3) 0.8313(5) 0.5593(2)
O6 O 0.5009(4) 0.9205(5) 0.5925(3)
O7 O 0.6884(4) 0.9299(5) 0.9095(2)
O8 O 1.1964(4) 0.9907(7) 0.8996(4)
O9 O 1.2433(3) 0.8664(6) 0.9892(2)
Gd1 Gd 0.399375(19) 0.07818(3) 0.545543(14)
O2A O 0.3949(4) 0.0665(5) 0.6612(2)
O4B O 0.3490(3) -0.0873(4) 0.4614(3)
O5B O 0.3928(3) 0.1687(5) 0.4407(2)
O6_2 O 0.5009(4) -0.0795(5) 0.5925(3)
O7A O 0.3116(4) -0.0701(5) 0.5905(2)
O9C O 0.2433(3) 0.1336(6) 0.4892(2)
Gd1_2 Gd 0.399375(19) 1.07818(3) 0.545543(14)
Gd1A Gd 0.600625(19) 1.07818(3) 0.954457(14)
Gd1B Gd 0.600625(19) -0.07818(3) 0.454457(14)
Gd1B_2 Gd 0.600625(19) 0.92182(3) 0.454457(14)
Gd1C Gd 1.399375(19) 0.92182(3) 1.045543(14)
O10 O 0.5000 0.2408(12) 0.7500
O11 O 0.9787(16) 0.255(4) 0.8989(14)
O12 O 0.836(2) 0.150(4) 0.7874(19)
loop_
_geom_bond_atom_site_label_1
_geom_bond_atom_site_label_2
_geom_bond_site_symmetry_1
_geom_bond_site_symmetry_2
C1 H1 1_555 1_555
H2 C1 1_555 1_555
C2 C1 1_555 1_555
C3 C2 1_555 1_555
H3 C3 1_555 1_555
C4 C3 1_555 1_555
H4 C4 1_555 1_555
C5 C4 1_555 1_555
C6 C5 1_555 1_555
H5 C6 1_555 1_555
C7 C2 1_555 1_555
H6 C7 1_555 1_555
C8 C5 1_555 1_555
C9 C10 1_555 1_555
C10 H7 1_555 1_555
C11 C10 1_555 1_555
C12 C11 1_555 1_555
H8 C12 1_555 1_555
C13 C12 1_555 1_555
C14 C9 1_555 1_555
H9 C14 1_555 1_555
C15 C13 1_555 1_555
C16 C11 1_555 1_555
C17 H10 1_555 1_555
H11 C17 1_555 1_555
C18 H12 1_555 1_555
C19 C17 1_555 1_555
C20 C18 1_555 1_555
H13 C20 1_555 1_555
C21 C20 1_555 1_555
C22 C21 1_555 1_555
C23 C21 1_555 1_555
H14 C23 1_555 1_555
C24 C19 1_555 1_555
H15 C24 1_555 1_555
C25 C26 1_555 1_555
C26 H16 1_555 1_555
H17 C26 1_555 1_555
H18 C26 1_555 1_555
C27 H19 1_555 1_555
H20 C27 1_555 1_555
H21 C27 1_555 1_555
C28 H22 1_555 1_555
H23 C28 1_555 1_555
H24 C28 1_555 1_555
N1 C1 1_555 1_555
N2 C25 1_555 1_555
O1 C25 1_555 1_555
O2 C16 1_555 1_555
O3 C22 1_555 1_555
O4 C22 1_555 1_555
O5 C15 1_555 1_555
O6 C15 1_555 1_555
O7 C16 1_555 1_555
O8 C8 1_555 1_555
O9 C8 1_555 1_555
Gd1 O1 1_555 1_555
O2A Gd1 1_555 1_555
O4B Gd1 1_555 1_555
O5B Gd1 1_555 1_555
O6_2 Gd1 1_555 1_555
O7A Gd1 1_555 1_555
O9C Gd1 1_555 1_555
Gd1_2 O6 1_555 1_555
Gd1A O2 1_555 1_555
Gd1B O4 1_555 1_555
Gd1B_2 O5 1_555 1_555
Gd1C O9 1_555 1_555
C6 C7 1_555 1_555
C9 N1 1_555 1_555
C13 C14 1_555 1_555
C17 N1 1_555 1_555
C18 C19 1_555 1_555
C23 C24 1_555 1_555
C27 N2 1_555 1_555
C28 N2 1_555 1_555
O3 Gd1 1_555 1_555
O7 Gd1A 1_555 1_555

#END
