
#######################################################################
#
#                 Cambridge Crystallographic Data Centre
#                                CCDC 
#
#######################################################################
#
# If this CIF has been generated from an entry in the Cambridge 
# Structural Database, then it will include bibliographic, chemical, 
# crystal, experimental, refinement or atomic coordinate data resulting 
# from the CCDC's data processing and validation procedures.
#
#######################################################################

data_OPAPEB
_chemical_formula_moiety         '(C30 H54 N24 O21 S6 Sm2)n'
_symmetry_cell_setting           triclinic
_symmetry_space_group_name_H-M   'P -1'
_symmetry_Int_Tables_number      2
_space_group_name_Hall           '-P 1'
loop_
_symmetry_equiv_pos_site_id
_symmetry_equiv_pos_as_xyz
1 x,y,z
2 -x,-y,-z
_cell_length_a                   9.5104(19)
_cell_length_b                   11.515(2)
_cell_length_c                   14.575(3)
_cell_angle_alpha                69.47(3)
_cell_angle_beta                 85.29(3)
_cell_angle_gamma                86.39(3)
_cell_volume                     1488.72
loop_
_atom_site_label
_atom_site_type_symbol
_atom_site_fract_x
_atom_site_fract_y
_atom_site_fract_z
Sm1 Sm 1.20382(3) 0.04475(2) -0.002242(19)
S1 S 0.95196(16) -0.22620(15) -0.23741(12)
S2 S 1.43274(15) 0.36630(14) 0.14956(12)
S3 S 1.22193(16) -0.25957(16) 0.24659(11)
O1 O 1.1730(4) -0.0444(4) -0.1270(3)
O2 O 1.0443(4) -0.1180(3) 0.0745(3)
O3 O 0.8693(4) -0.2438(3) 0.1272(3)
O4 O 0.9496(4) -0.1032(4) -0.1121(3)
C1 C 1.0762(6) -0.0981(5) -0.1471(4)
C2 C 1.1134(6) -0.1958(5) 0.3199(4)
N1 N 1.6923(5) 0.4669(4) 0.0949(3)
N2 N 1.7935(5) 0.3696(4) 0.0018(4)
N3 N 0.9243(5) -0.3477(5) -0.3622(3)
N4 N 0.9766(5) -0.2035(5) 0.3380(4)
C3 C 0.9955(6) -0.2211(5) 0.1294(4)
C4 C 1.0880(6) -0.3192(5) 0.1966(4)
H1 H 1.1334 -0.3697 0.1608
H2 H 1.0291 -0.3727 0.2504
N5 N 1.6567(5) 0.3262(4) 0.0322(4)
N6 N 1.1685(5) -0.1263(5) 0.3661(4)
N7 N 1.6635(6) 0.5457(5) 0.1509(4)
H3 H 1.664(8) 0.607(6) 0.117(5)
H4 H 1.729(7) 0.525(6) 0.198(5)
C5 C 1.0726(7) -0.0180(6) 0.4811(5)
H5 H 1.1227 0.0564 0.4434
H6 H 1.1275 -0.0651 0.5363
C6 C 1.0175(6) -0.3037(5) -0.3160(4)
N8 N 0.7777(6) -0.3252(6) -0.3572(5)
H7 H 0.7252 -0.3503 -0.3913
H8 H 0.7403 -0.2862 -0.3201
C7 C 1.1127(6) -0.1611(5) -0.2215(4)
H9 H 1.1479 -0.1016 -0.2834
H10 H 1.1847 -0.2262 -0.1981
N9 N 0.9418(6) -0.1367(5) 0.4029(4)
N10 N 1.1362(6) -0.3995(6) -0.4030(4)
C8 C 1.0571(7) -0.0945(6) 0.4179(4)
N11 N 1.1452(6) -0.3320(6) -0.3396(5)
C9 C 1.0037(7) -0.4066(5) -0.4153(4)
C10 C 0.9440(7) -0.4703(6) -0.4755(4)
H11 H 0.8811 -0.5334 -0.4337
H12 H 0.8888 -0.4105 -0.5252
N12 N 1.3077(6) -0.0932(5) 0.3619(4)
H13 H 1.3298 -0.0481 0.3943
H14 H 1.3716 -0.1178 0.3268
O5 O 1.3141(4) 0.2229(3) 0.0309(3)
O6 O 1.3566(4) 0.0362(4) 0.1350(3)
C11 C 1.4215(6) 0.2002(5) 0.1818(4)
H15 H 1.5158 0.1634 0.1937
H16 H 1.3651 0.1693 0.2434
C12 C 1.3609(5) 0.1531(5) 0.1095(4)
C13 C 1.5987(6) 0.3860(5) 0.0880(4)
C14 C 1.8108(6) 0.4554(5) 0.0396(4)
C15 C 1.9412(6) 0.5244(6) 0.0281(5)
H17 H 1.9713 0.5154 0.0923
H18 H 1.9222 0.6119 -0.0071
O7 O 1.3713(4) -0.1276(3) 0.0197(3)
H19 H 1.3745 -0.1958 0.0061
H20 H 1.4307 -0.1626 0.0716
O8 O 1.4037(4) 0.1189(3) -0.1308(3)
Sm1A Sm 0.79618(3) -1.04475(2) -0.997758(19)
Sm1A_2 Sm 0.79618(3) -0.04475(2) 0.002242(19)
Sm1_2 Sm 1.20382(3) -0.95525(2) -1.002242(19)
Sm1A_3 Sm 2.79618(3) 0.95525(2) 0.002242(19)
Sm1A_4 Sm 0.79618(3) -0.04475(2) 1.002242(19)
Sm1_3 Sm 1.20382(3) 0.04475(2) 0.997758(19)
S1A S 1.04804(16) -0.77380(15) -0.76259(12)
S2A S 2.56726(15) 0.63370(14) -0.14956(12)
S3A S 0.77807(16) 0.25957(16) 0.75341(11)
O1A O 0.8270(4) -0.9556(4) -0.8730(3)
O1A_2 O 0.8270(4) 0.0444(4) 0.1270(3)
O2A O 0.9557(4) 0.1180(3) 0.9255(3)
O2A_2 O 0.9557(4) 0.1180(3) -0.0745(3)
O3A O 1.1307(4) 0.2438(3) 0.8728(3)
O3A_2 O 1.1307(4) 0.2438(3) -0.1272(3)
O4A O 1.0504(4) -0.8968(4) -0.8879(3)
O4A_2 O 1.0504(4) 0.1032(4) 0.1121(3)
C1A C 0.9238(6) -0.9019(5) -0.8529(4)
C2A C 0.8866(6) 0.1958(5) 0.6801(4)
N1A N 2.3077(5) 0.5331(4) -0.0949(3)
N2A N 2.2065(5) 0.6304(4) -0.0018(4)
N3A N 1.0757(5) -0.6523(5) -0.6378(3)
N4A N 1.0234(5) 0.2035(5) 0.6620(4)
C3A C 1.0045(6) 0.2211(5) 0.8706(4)
C4A C 0.9120(6) 0.3192(5) 0.8034(4)
H1A H 0.8666 0.3697 0.8392
H2A H 0.9709 0.3727 0.7496
N5A N 2.3433(5) 0.6738(4) -0.0322(4)
N6A N 0.8315(5) 0.1263(5) 0.6339(4)
N7A N 2.3365(6) 0.4543(5) -0.1509(4)
H3A H 2.336(8) 0.393(6) -0.117(5)
H4A H 2.271(7) 0.475(6) -0.198(5)
C5A C 0.9274(7) 0.0180(6) 0.5189(5)
H5A H 0.8773 -0.0564 0.5566
H6A H 0.8725 0.0651 0.4637
C6A C 0.9825(6) -0.6963(5) -0.6840(4)
N8A N 1.2223(6) -0.6748(6) -0.6428(5)
H7A H 1.2748 -0.6497 -0.6087
H8A H 1.2597 -0.7138 -0.6799
C7A C 0.8873(6) -0.8389(5) -0.7785(4)
H9A H 0.8521 -0.8984 -0.7166
H10A H 0.8153 -0.7738 -0.8019
N9A N 1.0582(6) 0.1367(5) 0.5971(4)
N10A N 0.8638(6) -0.6005(6) -0.5970(4)
C8A C 0.9429(7) 0.0945(6) 0.5821(4)
N11A N 0.8548(6) -0.6680(6) -0.6604(5)
C9A C 0.9963(7) -0.5934(5) -0.5847(4)
C10A C 1.0560(7) -0.5297(6) -0.5245(4)
H11A H 1.1189 -0.4666 -0.5663
H12A H 1.1112 -0.5895 -0.4748
N12A N 0.6923(6) 0.0932(5) 0.6381(4)
H13A H 0.6702 0.0481 0.6057
H14A H 0.6284 0.1178 0.6732
O5A O 2.6859(4) 0.7771(3) -0.0309(3)
O5A_2 O 0.6859(4) -0.2229(3) -0.0309(3)
O6A O 2.6434(4) 0.9638(4) -0.1350(3)
O6A_2 O 0.6434(4) -0.0362(4) -0.1350(3)
C11A C 2.5785(6) 0.7998(5) -0.1818(4)
H15A H 2.4842 0.8366 -0.1937
H16A H 2.6349 0.8307 -0.2434
C12A C 2.6391(5) 0.8469(5) -0.1095(4)
C13A C 2.4013(6) 0.6140(5) -0.0880(4)
C14A C 2.1892(6) 0.5446(5) -0.0396(4)
C15A C 2.0588(6) 0.4756(6) -0.0281(5)
H17A H 2.0287 0.4846 -0.0923
H18A H 2.0778 0.3881 0.0071
O7A O 0.6287(4) 0.1276(3) -0.0197(3)
H19A H 0.6255 0.1958 -0.0061
H20A H 0.5693 0.1626 -0.0716
O8A O 0.5963(4) -0.1189(3) 0.1308(3)
O9 O 1.3240(6) 0.2655(6) -0.3100(4)
O10 O 0.6042(7) 0.3598(6) 0.5249(5)
O11 O 1.4541(7) 0.4884(6) 0.3484(5)
O12 O 0.5920(9) 0.1666(10) 0.3876(6)
O13 O 0.6403(9) -0.1186(11) 0.4417(8)
loop_
_geom_bond_atom_site_label_1
_geom_bond_atom_site_label_2
_geom_bond_site_symmetry_1
_geom_bond_site_symmetry_2
Sm1 O1 1_555 1_555
S1 C6 1_555 1_555
S2 C11 1_555 1_555
S3 C2 1_555 1_555
O1 C1 1_555 1_555
O2 Sm1 1_555 1_555
O3 C3 1_555 1_555
O4 C1 1_555 1_555
C1 C7 1_555 1_555
C2 N4 1_555 1_555
N1 N7 1_555 1_555
N2 N5 1_555 1_555
N3 C6 1_555 1_555
N4 N9 1_555 1_555
C3 O2 1_555 1_555
C4 S3 1_555 1_555
H1 C4 1_555 1_555
H2 C4 1_555 1_555
N5 C13 1_555 1_555
N6 C2 1_555 1_555
N7 H3 1_555 1_555
H4 N7 1_555 1_555
C5 H5 1_555 1_555
H6 C5 1_555 1_555
C6 N11 1_555 1_555
N8 N3 1_555 1_555
H7 N8 1_555 1_555
H8 N8 1_555 1_555
C7 S1 1_555 1_555
H9 C7 1_555 1_555
H10 C7 1_555 1_555
N9 C8 1_555 1_555
N10 N11 1_555 1_555
C8 N6 1_555 1_555
C9 N3 1_555 1_555
C10 C9 1_555 1_555
H11 C10 1_555 1_555
H12 C10 1_555 1_555
N12 N6 1_555 1_555
H13 N12 1_555 1_555
H14 N12 1_555 1_555
O5 Sm1 1_555 1_555
O6 Sm1 1_555 1_555
C11 H15 1_555 1_555
H16 C11 1_555 1_555
C12 O5 1_555 1_555
C13 S2 1_555 1_555
C14 N1 1_555 1_555
C15 C14 1_555 1_555
H17 C15 1_555 1_555
H18 C15 1_555 1_555
O7 Sm1 1_555 1_555
H19 O7 1_555 1_555
H20 O7 1_555 1_555
O8 Sm1 1_555 1_555
Sm1A O1A 1_555 1_555
Sm1A_2 O2 1_555 1_555
Sm1_2 O4A 1_555 1_555
Sm1A_3 O5A 1_555 1_555
Sm1A_4 O2A 1_555 1_555
Sm1_3 O2A 1_555 1_555
S1A C6A 1_555 1_555
S2A C11A 1_555 1_555
S3A C2A 1_555 1_555
O1A C1A 1_555 1_555
O1A_2 Sm1A_2 1_555 1_555
O2A C3A 1_555 1_555
O2A_2 Sm1 1_555 1_555
O3A Sm1_3 1_555 1_555
O3A_2 Sm1 1_555 1_555
O4A C1A 1_555 1_555
O4A_2 Sm1 1_555 1_555
C1A C7A 1_555 1_555
C2A N4A 1_555 1_555
N1A N7A 1_555 1_555
N2A N5A 1_555 1_555
N3A C6A 1_555 1_555
N4A N9A 1_555 1_555
C3A O3A 1_555 1_555
C4A S3A 1_555 1_555
H1A C4A 1_555 1_555
H2A C4A 1_555 1_555
N5A C13A 1_555 1_555
N6A C2A 1_555 1_555
N7A H3A 1_555 1_555
H4A N7A 1_555 1_555
C5A C5 1_555 1_555
H5A C5A 1_555 1_555
H6A C5A 1_555 1_555
C6A N11A 1_555 1_555
N8A N3A 1_555 1_555
H7A N8A 1_555 1_555
H8A N8A 1_555 1_555
C7A S1A 1_555 1_555
H9A C7A 1_555 1_555
H10A C7A 1_555 1_555
N9A C8A 1_555 1_555
N10A N11A 1_555 1_555
C8A N6A 1_555 1_555
C9A N3A 1_555 1_555
C10A C10 1_555 1_555
H11A C10A 1_555 1_555
H12A C10A 1_555 1_555
N12A N6A 1_555 1_555
H13A N12A 1_555 1_555
H14A N12A 1_555 1_555
O5A C12A 1_555 1_555
O5A_2 Sm1A_2 1_555 1_555
O6A Sm1A_3 1_555 1_555
O6A_2 Sm1A_2 1_555 1_555
C11A H15A 1_555 1_555
H16A C11A 1_555 1_555
C12A O6A 1_555 1_555
C13A S2A 1_555 1_555
C14A N1A 1_555 1_555
C15A C15 1_555 1_555
H17A C15A 1_555 1_555
H18A C15A 1_555 1_555
O7A Sm1A_2 1_555 1_555
H19A O7A 1_555 1_555
H20A O7A 1_555 1_555
O8A Sm1A_2 1_555 1_555
O3 Sm1A_2 1_555 1_555
O4 Sm1A_2 1_555 1_555
N1 C13 1_555 1_555
N2 C14 1_555 1_555
C3 C4 1_555 1_555
C5 C8 1_555 1_555
N10 C9 1_555 1_555
O6 C12 1_555 1_555
C11 C12 1_555 1_555
Sm1A_2 O2A_2 1_555 1_555
N1A C13A 1_555 1_555
N2A C14A 1_555 1_555
C3A C4A 1_555 1_555
C5A C8A 1_555 1_555
N10A C9A 1_555 1_555
C9A C10A 1_555 1_555
C11A C12A 1_555 1_555
C14A C15A 1_555 1_555

#END
