
#######################################################################
#
#                 Cambridge Crystallographic Data Centre
#                                CCDC 
#
#######################################################################
#
# If this CIF has been generated from an entry in the Cambridge 
# Structural Database, then it will include bibliographic, chemical, 
# crystal, experimental, refinement or atomic coordinate data resulting 
# from the CCDC's data processing and validation procedures.
#
#######################################################################

data_ODIVUU
_chemical_formula_moiety         '(C20 H22 N6 O10 Zn2)n'
_symmetry_cell_setting           monoclinic
_symmetry_space_group_name_H-M   'C 2/m'
_symmetry_Int_Tables_number      12
_space_group_name_Hall           '-C 2y'
loop_
_symmetry_equiv_pos_site_id
_symmetry_equiv_pos_as_xyz
1 x,y,z
2 -x,y,-z
3 1/2+x,1/2+y,z
4 1/2-x,1/2+y,-z
5 -x,-y,-z
6 x,-y,z
7 1/2-x,1/2-y,-z
8 1/2+x,1/2-y,z
_cell_length_a                   17.724(5)
_cell_length_b                   19.705(5)
_cell_length_c                   13.139(6)
_cell_angle_alpha                90
_cell_angle_beta                 127.496(2)
_cell_angle_gamma                90
_cell_volume                     3640.75
loop_
_atom_site_label
_atom_site_type_symbol
_atom_site_fract_x
_atom_site_fract_y
_atom_site_fract_z
Zn1 Zn 0.40437(3) 0.5000 0.36862(4)
Zn2 Zn 0.0000 0.40852(2) 0.0000
O1 O 0.45455(19) 0.42353(14) 0.3212(3)
O2 O 0.59419(17) 0.42848(14) 0.5148(3)
O3 O 0.4049(2) 0.22206(18) 0.0335(3)
O4 O 0.5212(2) 0.14670(15) 0.1356(3)
N1 N 0.2656(2) 0.5000 0.2173(3)
N2 N 0.11609(17) 0.46438(12) 0.0838(2)
N3 N 0.2362(2) 0.38032(14) 0.1894(3)
H1 H 0.1953 0.3479 0.1531
H2 H 0.2959 0.3713 0.2421
C1 C 0.5374(2) 0.40273(17) 0.4064(3)
C2 C 0.5709(2) 0.34051(18) 0.3778(3)
C3 C 0.6641(3) 0.31913(19) 0.4697(4)
H3 H 0.7031 0.3438 0.5453
C4 C 0.7003(2) 0.2616(2) 0.4511(4)
C5 C 0.6384(3) 0.2262(2) 0.3372(4)
H4 H 0.6604 0.1874 0.3225
C6 C 0.5453(3) 0.2461(2) 0.2450(4)
C7 C 0.5113(3) 0.3046(2) 0.2645(4)
H5 H 0.4494 0.3193 0.2022
C8 C 0.4842(3) 0.2034(2) 0.1262(4)
C9 C 0.2062(2) 0.44616(15) 0.1633(3)
O1F O 1.04545(19) 0.07647(14) 0.6788(3)
O2F O 0.90581(17) 0.07152(14) 0.4852(3)
O3F O 1.0951(2) 0.27794(18) 0.9665(3)
O4F O 0.9788(2) 0.35330(15) 0.8644(3)
C1F C 0.9626(2) 0.09727(17) 0.5936(3)
C2F C 0.9291(2) 0.15949(18) 0.6222(3)
C3F C 0.8359(3) 0.18087(19) 0.5303(4)
H3F H 0.7969 0.1562 0.4547
C4F C 0.7997(2) 0.2384(2) 0.5489(4)
C5F C 0.8616(3) 0.2738(2) 0.6628(4)
H4F H 0.8396 0.3126 0.6775
C6F C 0.9547(3) 0.2539(2) 0.7550(4)
C7F C 0.9887(3) 0.1954(2) 0.7355(4)
H5F H 1.0506 0.1807 0.7978
C8F C 1.0158(3) 0.2966(2) 0.8738(4)
N2E N 0.11609(17) 0.53562(12) 0.0838(2)
N3E N 0.2362(2) 0.61968(14) 0.1894(3)
H1E H 0.1953 0.6521 0.1531
H2E H 0.2959 0.6287 0.2421
C9E C 0.2062(2) 0.55384(15) 0.1633(3)
Zn1A Zn 0.59563(3) 0.5000 0.63138(4)
Zn1B Zn 0.90437(3) -0.0000 0.36862(4)
Zn1C Zn 1.09563(3) 0.0000 0.63138(4)
Zn2_2 Zn 1.0000 0.40852(2) 1.0000
Zn2D Zn 0.0000 0.59148(2) 0.0000
Zn2F Zn 0.5000 0.09148(2) 0.0000
O1E O 0.45455(19) 0.57647(14) 0.3212(3)
O2A O 0.40581(17) 0.42848(14) 0.4852(3)
O2D O 0.40581(17) 0.57152(14) 0.4852(3)
O4F_2 O -0.0212(2) 0.35330(15) -0.1356(3)
O4G O 0.0212(2) 0.35330(15) 0.1356(3)
N2A N -0.11609(17) 0.46438(12) -0.0838(2)
O5 O 0.8187(17) 0.5000 0.598(2)
N4 N 0.175(3) 0.3614(18) 0.767(4)
H6 H 0.1096 0.3775 0.7179
H7 H 0.2076 0.3856 0.7401
C10 C 0.229(2) 0.3674(19) 0.918(3)
H8 H 0.2348 0.4143 0.9412
H9 H 0.2911 0.3476 0.9629
H10 H 0.1936 0.3437 0.9403
C11 C 0.179(2) 0.2888(17) 0.756(3)
H11 H 0.1543 0.2774 0.6701
H12 H 0.1418 0.2668 0.7773
H13 H 0.2439 0.2740 0.8145
O7 O 0.5000 0.387(3) 0.0000
loop_
_geom_bond_atom_site_label_1
_geom_bond_atom_site_label_2
_geom_bond_site_symmetry_1
_geom_bond_site_symmetry_2
Zn1 O1 1_555 1_555
Zn2 N2 1_555 1_555
O1 C1 1_555 1_555
O2 C1 1_555 1_555
O3 C8 1_555 1_555
O4 C8 1_555 1_555
N1 Zn1 1_555 1_555
N2 C9 1_555 1_555
N3 H1 1_555 1_555
H2 N3 1_555 1_555
C1 C2 1_555 1_555
C2 C3 1_555 1_555
C3 H3 1_555 1_555
C4 C3 1_555 1_555
C5 C4 1_555 1_555
H4 C5 1_555 1_555
C6 C5 1_555 1_555
C7 C2 1_555 1_555
H5 C7 1_555 1_555
C8 C6 1_555 1_555
C9 N1 1_555 1_555
N4 H6 1_555 1_555
H7 N4 1_555 1_555
C10 N4 1_555 1_555
H8 C10 1_555 1_555
H9 C10 1_555 1_555
H10 C10 1_555 1_555
C11 N4 1_555 1_555
H11 C11 1_555 1_555
H12 C11 1_555 1_555
H13 C11 1_555 1_555
O1F C1F 1_555 1_555
O2F C1F 1_555 1_555
O3F C8F 1_555 1_555
O4F C8F 1_555 1_555
C1F C2F 1_555 1_555
C2F C3F 1_555 1_555
C3F H3F 1_555 1_555
C4F C4 1_555 1_555
C5F C4F 1_555 1_555
H4F C5F 1_555 1_555
C6F C5F 1_555 1_555
C7F C2F 1_555 1_555
H5F C7F 1_555 1_555
C8F C6F 1_555 1_555
N2E N2 1_555 1_555
N3E H1E 1_555 1_555
H2E N3E 1_555 1_555
C9E N1 1_555 1_555
Zn1A O2 1_555 1_555
Zn1B O2F 1_555 1_555
Zn1C O1F 1_555 1_555
Zn2_2 O4F 1_555 1_555
Zn2D N2E 1_555 1_555
Zn2F O4 1_555 1_555
O1E Zn1 1_555 1_555
O2A Zn1 1_555 1_555
O2D Zn1 1_555 1_555
O4F_2 Zn2 1_555 1_555
O4G Zn2 1_555 1_555
N2A Zn2 1_555 1_555
N3 C9 1_555 1_555
C6 C7 1_555 1_555
C3F C4F 1_555 1_555
C6F C7F 1_555 1_555
N2E C9E 1_555 1_555
N3E C9E 1_555 1_555

#END
