
#######################################################################
#
#                 Cambridge Crystallographic Data Centre
#                                CCDC 
#
#######################################################################
#
# If this CIF has been generated from an entry in the Cambridge 
# Structural Database, then it will include bibliographic, chemical, 
# crystal, experimental, refinement or atomic coordinate data resulting 
# from the CCDC's data processing and validation procedures.
#
#######################################################################

data_HAWVIM
_chemical_formula_moiety         '(C17 H18 Eu1 N1 O9 S2)n'
_symmetry_cell_setting           monoclinic
_symmetry_space_group_name_H-M   'P 21/c'
_symmetry_Int_Tables_number      14
_space_group_name_Hall           '-P 2ybc'
loop_
_symmetry_equiv_pos_site_id
_symmetry_equiv_pos_as_xyz
1 x,y,z
2 -x,1/2+y,1/2-z
3 -x,-y,-z
4 x,1/2-y,1/2+z
_cell_length_a                   11.5776(8)
_cell_length_b                   16.2984(11)
_cell_length_c                   12.0326(9)
_cell_angle_alpha                90
_cell_angle_beta                 112.500(2)
_cell_angle_gamma                90
_cell_volume                     2097.68
loop_
_atom_site_label
_atom_site_type_symbol
_atom_site_fract_x
_atom_site_fract_y
_atom_site_fract_z
Eu1 Eu -0.80580(3) 0.027221(18) -0.42190(2)
S1 S -0.94630(14) 0.21823(10) -0.78859(14)
S2 S -0.51031(16) 0.28276(11) -0.24847(15)
O1 O -0.8671(4) 0.0781(3) -0.6228(3)
O2 O -1.0576(4) 0.0309(3) -0.6540(4)
O3 O -0.9441(4) 0.3629(2) -0.9324(4)
O4 O -1.1434(4) 0.3995(3) -0.9773(4)
O5 O -0.7249(4) 0.1042(3) -0.2190(4)
O6 O -0.6586(4) 0.1394(3) -0.3613(4)
O7 O -0.3542(4) 0.4332(3) -0.2084(4)
O8 O -0.3787(4) 0.4759(3) -0.0433(4)
C1 C -1.0415(6) 0.1522(4) -0.7511(5)
C2 C -1.1637(6) 0.1762(4) -0.7983(6)
H2 H -1.2279 0.1482 -0.7863
C3 C -1.1811(6) 0.2483(4) -0.8670(6)
H3 H -1.2584 0.2732 -0.9057
C4 C -1.0714(5) 0.2780(4) -0.8708(5)
C5 C -0.9845(6) 0.0828(4) -0.6717(5)
C6 C -1.0512(6) 0.3527(4) -0.9313(5)
C7 C -0.6060(6) 0.2277(4) -0.1968(5)
C8 C -0.6165(6) 0.2648(4) -0.0976(5)
H4 H -0.6634 0.2437 -0.0564
C9 C -0.5480(6) 0.3378(4) -0.0668(5)
H5 H -0.5467 0.3715 -0.0040
C10 C -0.4843(5) 0.3542(4) -0.1373(5)
C11 C -0.6678(5) 0.1523(4) -0.2621(6)
C12 C -0.4011(5) 0.4255(4) -0.1293(6)
Eu1B Eu -1.19420(3) -0.027221(18) -0.57810(2)
Eu1C Eu -0.80580(3) 0.472779(18) -0.92190(2)
Eu1A Eu -1.19420(3) 0.527221(18) -1.07810(2)
Eu1A_2 Eu -0.19420(3) 0.527221(18) -0.07810(2)
O2B O -0.9424(4) -0.0309(3) -0.3460(4)
O3C O -0.9441(4) 0.1371(2) -0.4324(4)
O4A O -0.8566(4) -0.1005(3) -0.5227(4)
O7A O -0.6458(4) -0.0668(3) -0.2916(4)
O8A O -0.6213(4) -0.0241(3) -0.4567(4)
O9 O -0.1277(6) -0.0532(5) 0.0843(6)
H1 H -0.1263 -0.0780 0.1441
C13 C -0.2182(8) -0.0476(5) -0.1349(7)
H6 H -0.1356 -0.0468 -0.1377
H7 H -0.2723 -0.0786 -0.2040
C14 C -0.2099(10) -0.0934(6) -0.0204(8)
H8 H -0.2925 -0.0967 -0.0177
H9 H -0.1806 -0.1489 -0.0225
C15 C -0.3118(9) 0.0608(6) -0.2765(7)
H10 H -0.3444 0.1156 -0.2876
H11 H -0.3767 0.0233 -0.3218
H12 H -0.2443 0.0575 -0.3040
C16 C -0.1632(8) 0.0968(6) -0.0799(8)
H13 H -0.1959 0.1516 -0.0880
H14 H -0.0990 0.0944 -0.1119
H15 H -0.1287 0.0818 0.0036
C17 C -0.3702(8) 0.0477(6) -0.1042(9)
H16 H -0.3984 0.1036 -0.1136
H17 H -0.3414 0.0326 -0.0208
H18 H -0.4380 0.0125 -0.1505
N1 N -0.2656(6) 0.0390(4) -0.1472(5)
loop_
_geom_bond_atom_site_label_1
_geom_bond_atom_site_label_2
_geom_bond_site_symmetry_1
_geom_bond_site_symmetry_2
Eu1 O1 1_555 1_555
S1 C1 1_555 1_555
S2 C7 1_555 1_555
O1 C5 1_555 1_555
O2 C5 1_555 1_555
O3 C6 1_555 1_555
O4 C6 1_555 1_555
O5 Eu1 1_555 1_555
O6 Eu1 1_555 1_555
O7 C12 1_555 1_555
O8 C12 1_555 1_555
O9 H1 1_555 1_555
C1 C2 1_555 1_555
C2 H2 1_555 1_555
C3 C2 1_555 1_555
H3 C3 1_555 1_555
C4 S1 1_555 1_555
C5 C1 1_555 1_555
C6 C4 1_555 1_555
C7 C8 1_555 1_555
C8 H4 1_555 1_555
C9 C8 1_555 1_555
H5 C9 1_555 1_555
C10 S2 1_555 1_555
C11 O5 1_555 1_555
C12 C10 1_555 1_555
C13 H6 1_555 1_555
H7 C13 1_555 1_555
C14 O9 1_555 1_555
H8 C14 1_555 1_555
H9 C14 1_555 1_555
C15 H10 1_555 1_555
H11 C15 1_555 1_555
H12 C15 1_555 1_555
C16 H13 1_555 1_555
H14 C16 1_555 1_555
H15 C16 1_555 1_555
C17 H16 1_555 1_555
H17 C17 1_555 1_555
H18 C17 1_555 1_555
N1 C13 1_555 1_555
Eu1B O2 1_555 1_555
Eu1C O3 1_555 1_555
Eu1A O4 1_555 1_555
Eu1A_2 O7 1_555 1_555
O2B Eu1 1_555 1_555
O3C Eu1 1_555 1_555
O4A Eu1 1_555 1_555
O7A Eu1 1_555 1_555
O8A Eu1 1_555 1_555
O6 C11 1_555 1_555
O8 Eu1A_2 1_555 1_555
C3 C4 1_555 1_555
C7 C11 1_555 1_555
C9 C10 1_555 1_555
C13 C14 1_555 1_555
C15 N1 1_555 1_555
C16 N1 1_555 1_555
C17 N1 1_555 1_555

#END
