
#######################################################################
#
#                 Cambridge Crystallographic Data Centre
#                                CCDC 
#
#######################################################################
#
# If this CIF has been generated from an entry in the Cambridge 
# Structural Database, then it will include bibliographic, chemical, 
# crystal, experimental, refinement or atomic coordinate data resulting 
# from the CCDC's data processing and validation procedures.
#
#######################################################################

data_HAWVAE
_chemical_formula_moiety         '(C17 H18 Gd1 N1 O9 S2)n'
_symmetry_cell_setting           monoclinic
_symmetry_space_group_name_H-M   'P 21/c'
_symmetry_Int_Tables_number      14
_space_group_name_Hall           '-P 2ybc'
loop_
_symmetry_equiv_pos_site_id
_symmetry_equiv_pos_as_xyz
1 x,y,z
2 -x,1/2+y,1/2-z
3 -x,-y,-z
4 x,1/2-y,1/2+z
_cell_length_a                   11.6054(4)
_cell_length_b                   16.2662(5)
_cell_length_c                   12.0479(4)
_cell_angle_alpha                90
_cell_angle_beta                 112.497(2)
_cell_angle_gamma                90
_cell_volume                     2101.27
loop_
_atom_site_label
_atom_site_type_symbol
_atom_site_fract_x
_atom_site_fract_y
_atom_site_fract_z
Gd1 Gd 0.194172(18) 0.027350(13) 0.078247(18)
S1 S 0.05329(10) 0.21858(8) -0.28804(11)
S2 S 0.48992(11) 0.28305(8) 0.25164(11)
O1 O 0.1317(3) 0.0779(2) -0.1212(3)
O2 O -0.0589(3) 0.03046(19) -0.1540(3)
O3 O 0.0562(3) 0.36320(18) -0.4316(3)
O4 O -0.1424(3) 0.40046(19) -0.4758(3)
O5 O 0.2750(3) 0.1044(2) 0.2793(3)
O6 O 0.3393(3) 0.1400(2) 0.1365(3)
O7 O 0.6473(3) 0.4335(2) 0.2923(3)
O8 O 0.6231(3) 0.47571(19) 0.4575(3)
C1 C -0.0412(4) 0.1526(3) -0.2508(4)
C2 C -0.1628(4) 0.1766(3) -0.2980(4)
H2 H -0.2271 0.1485 -0.2863
C3 C -0.1797(4) 0.2490(3) -0.3668(4)
H3 H -0.2567 0.2740 -0.4057
C4 C -0.0715(4) 0.2783(3) -0.3703(4)
C5 C 0.0148(5) 0.0821(3) -0.1701(4)
C6 C -0.0506(4) 0.3533(3) -0.4304(4)
C7 C 0.3941(4) 0.2280(3) 0.3031(4)
C8 C 0.3839(4) 0.2645(3) 0.4008(4)
H4 H 0.3364 0.2432 0.4412
C9 C 0.4527(4) 0.3374(3) 0.4339(4)
H5 H 0.4545 0.3703 0.4976
C10 C 0.5168(4) 0.3549(3) 0.3624(4)
C11 C 0.3332(4) 0.1525(3) 0.2373(4)
C12 C 0.6001(4) 0.4257(3) 0.3709(4)
Gd1B Gd -0.194172(18) -0.027350(13) -0.078247(18)
Gd1C Gd 0.194172(18) 0.472650(13) -0.421753(18)
Gd1A Gd -0.194172(18) 0.527350(13) -0.578247(18)
Gd1A_2 Gd 0.805828(18) 0.527350(13) 0.421753(18)
O2B O 0.0589(3) -0.03046(19) 0.1540(3)
O3C O 0.0562(3) 0.13680(18) 0.0684(3)
O4A O 0.1424(3) -0.09954(19) -0.0242(3)
O7A O 0.3527(3) -0.0665(2) 0.2077(3)
O8A O 0.3769(3) -0.02429(19) 0.0425(3)
O9 O 0.8736(5) -0.0533(4) 0.5849(4)
H1 H 0.8744 -0.0784 0.6442
C13 C 0.7837(6) -0.0472(4) 0.3661(6)
H6 H 0.8661 -0.0461 0.3633
H7 H 0.7301 -0.0783 0.2970
C14 C 0.7925(7) -0.0938(5) 0.4791(6)
H8 H 0.7101 -0.0983 0.4813
H9 H 0.8232 -0.1489 0.4766
C15 C 0.6897(7) 0.0598(4) 0.2238(5)
H10 H 0.6567 0.1147 0.2116
H11 H 0.6252 0.0218 0.1794
H12 H 0.7571 0.0562 0.1964
C16 C 0.8367(6) 0.0972(5) 0.4190(6)
H13 H 0.8038 0.1520 0.4108
H14 H 0.9006 0.0949 0.3869
H15 H 0.8714 0.0823 0.5025
C17 C 0.6308(6) 0.0477(5) 0.3972(7)
H16 H 0.6021 0.1036 0.3880
H17 H 0.6602 0.0325 0.4805
H18 H 0.5633 0.0121 0.3513
N1 N 0.7358(4) 0.0394(3) 0.3529(4)
loop_
_geom_bond_atom_site_label_1
_geom_bond_atom_site_label_2
_geom_bond_site_symmetry_1
_geom_bond_site_symmetry_2
Gd1 O1 1_555 1_555
S1 C1 1_555 1_555
S2 C7 1_555 1_555
O1 C5 1_555 1_555
O2 C5 1_555 1_555
O3 C6 1_555 1_555
O4 C6 1_555 1_555
O5 Gd1 1_555 1_555
O6 Gd1 1_555 1_555
O7 C12 1_555 1_555
O8 C12 1_555 1_555
O9 H1 1_555 1_555
C1 C2 1_555 1_555
C2 H2 1_555 1_555
C3 C2 1_555 1_555
H3 C3 1_555 1_555
C4 S1 1_555 1_555
C5 C1 1_555 1_555
C6 C4 1_555 1_555
C7 C8 1_555 1_555
C8 H4 1_555 1_555
C9 C8 1_555 1_555
H5 C9 1_555 1_555
C10 S2 1_555 1_555
C11 O5 1_555 1_555
C12 C10 1_555 1_555
C13 H6 1_555 1_555
H7 C13 1_555 1_555
C14 O9 1_555 1_555
H8 C14 1_555 1_555
H9 C14 1_555 1_555
C15 H10 1_555 1_555
H11 C15 1_555 1_555
H12 C15 1_555 1_555
C16 H13 1_555 1_555
H14 C16 1_555 1_555
H15 C16 1_555 1_555
C17 H16 1_555 1_555
H17 C17 1_555 1_555
H18 C17 1_555 1_555
N1 C13 1_555 1_555
Gd1B O2 1_555 1_555
Gd1C O3 1_555 1_555
Gd1A O4 1_555 1_555
Gd1A_2 O7 1_555 1_555
O2B Gd1 1_555 1_555
O3C Gd1 1_555 1_555
O4A Gd1 1_555 1_555
O7A Gd1 1_555 1_555
O8A Gd1 1_555 1_555
O6 C11 1_555 1_555
O8 Gd1A_2 1_555 1_555
C3 C4 1_555 1_555
C7 C11 1_555 1_555
C9 C10 1_555 1_555
C13 C14 1_555 1_555
C15 N1 1_555 1_555
C16 N1 1_555 1_555
C17 N1 1_555 1_555

#END
