
#######################################################################
#
#                 Cambridge Crystallographic Data Centre
#                                CCDC 
#
#######################################################################
#
# If this CIF has been generated from an entry in the Cambridge 
# Structural Database, then it will include bibliographic, chemical, 
# crystal, experimental, refinement or atomic coordinate data resulting 
# from the CCDC's data processing and validation procedures.
#
#######################################################################

data_HAWWOT
_chemical_formula_moiety         '(C38 H48 N12 Nd2 O19 S3)n'
_symmetry_cell_setting           monoclinic
_symmetry_space_group_name_H-M   'P 2/c'
_symmetry_Int_Tables_number      13
_space_group_name_Hall           '-P 2yc'
loop_
_symmetry_equiv_pos_site_id
_symmetry_equiv_pos_as_xyz
1 x,y,z
2 -x,y,1/2-z
3 -x,-y,-z
4 x,-y,1/2+z
_cell_length_a                   16.9836(6)
_cell_length_b                   12.1799(4)
_cell_length_c                   27.7375(11)
_cell_angle_alpha                90
_cell_angle_beta                 114.666(3)
_cell_angle_gamma                90
_cell_volume                     5214.2
loop_
_atom_site_label
_atom_site_type_symbol
_atom_site_fract_x
_atom_site_fract_y
_atom_site_fract_z
Nd1 Nd 0.93282(3) -0.47639(5) 0.41848(2)
Nd2 Nd 0.45692(3) 0.00155(4) 0.41749(2)
S1 S 0.74050(16) -0.7822(2) 0.46236(10)
S2 S 0.76126(16) -0.7324(2) 0.24149(10)
S3 S 0.71047(17) -0.2894(2) 0.47207(10)
O1 O 0.9524(4) -0.6085(7) 0.5056(3)
O2 O 0.8448(5) -0.6335(7) 0.4276(3)
O3 O 0.6016(4) -0.9235(6) 0.4650(3)
O4 O 0.6455(5) -0.9190(7) 0.5527(3)
O5 O 0.8856(4) -0.6106(7) 0.3380(3)
O6 O 0.7977(5) -0.4777(6) 0.3345(3)
O7 O 0.5528(5) -0.7989(7) 0.1126(3)
O8 O 0.6708(5) -0.8962(6) 0.1533(3)
O9 O 0.8579(5) -0.4095(7) 0.4711(3)
O10 O 0.9425(4) -0.4000(7) 0.5580(3)
O11 O 0.5493(5) -0.1651(6) 0.4360(3)
O12 O 0.5561(5) -0.1128(6) 0.5135(3)
O13 O 0.9007(6) -0.2801(7) 0.4002(3)
O14 O 0.9983(6) -0.4133(7) 0.3596(3)
O15 O 0.5126(6) 0.0035(7) 0.3484(3)
O16 O 0.3798(5) -0.1417(7) 0.3546(3)
N1 N 0.8083(9) -0.1423(10) 0.3970(5)
H1 H 0.7707 -0.1553 0.3652
N2 N 0.9273(8) -0.1560(10) 0.4678(5)
H2 H 0.9790 -0.1764 0.4885
N3 N 1.0544(17) -0.554(3) 0.3321(10)
H3 H 1.0265 -0.6086 0.3370
N4 N 1.082(2) -0.397(3) 0.3128(11)
H4 H 1.0730 -0.3279 0.3074
N5 N 0.6026(10) 0.0252(12) 0.3096(6)
H5 H 0.6080 -0.0437 0.3050
N6 N 0.5616(7) 0.1702(11) 0.3341(5)
H6 H 0.5333 0.2117 0.3464
N7 N 0.2767(12) -0.2533(16) 0.2968(7)
H7 H 0.2930 -0.3153 0.3127
N8 N 0.2704(16) -0.090(2) 0.2788(10)
H8 H 0.2862 -0.0222 0.2798
C1 C 0.8353(7) -0.7200(11) 0.4996(4)
C2 C 0.8583(11) -0.740(2) 0.5522(5)
H13 H 0.9092 -0.7147 0.5792
C3 C 0.7957(10) -0.8051(18) 0.5611(5)
H14 H 0.8006 -0.8250 0.5946
C4 C 0.7293(7) -0.8341(10) 0.5159(4)
C5 C 0.8797(6) -0.6503(9) 0.4754(4)
C6 C 0.6527(6) -0.8973(9) 0.5112(4)
C7 C 0.7492(6) -0.6067(9) 0.2653(4)
C8 C 0.6753(7) -0.5587(10) 0.2326(4)
H15 H 0.6582 -0.4897 0.2390
C9 C 0.6258(7) -0.6221(10) 0.1878(5)
H16 H 0.5729 -0.6000 0.1615
C10 C 0.6647(6) -0.7202(9) 0.1876(4)
C11 C 0.8152(6) -0.5631(9) 0.3156(4)
C12 C 0.6286(7) -0.8107(10) 0.1494(4)
C13 C 0.8072(7) -0.3148(9) 0.5252(4)
C14 C 0.8101(7) -0.2652(10) 0.5700(4)
H17 H 0.8582 -0.2683 0.6024
C15 C 0.7335(7) -0.2090(10) 0.5624(4)
H18 H 0.7246 -0.1732 0.5893
C16 C 0.6737(6) -0.2134(8) 0.5108(4)
C17 C 0.8743(6) -0.3812(9) 0.5173(4)
C18 C 0.5875(7) -0.1600(8) 0.4852(4)
C19 C 0.8807(13) -0.0688(14) 0.4794(7)
H19 H 0.9144 -0.0016 0.4881
H20 H 0.8669 -0.0885 0.5089
C20 C 0.7998(13) -0.0553(13) 0.4295(7)
H21 H 0.7483 -0.0647 0.4360
H22 H 0.7978 0.0160 0.4134
C21 C 0.8804(9) -0.2007(11) 0.4211(5)
C22 C 1.132(2) -0.560(3) 0.3092(14)
H23 H 1.1871 -0.5817 0.3374
H24 H 1.1169 -0.6125 0.2806
C23 C 1.139(2) -0.461(3) 0.2921(14)
H25 H 1.1167 -0.4586 0.2538
H26 H 1.1986 -0.4350 0.3076
C24 C 1.0452(11) -0.4556(16) 0.3402(7)
C25 C 0.6204(10) 0.2113(15) 0.3135(6)
H27 H 0.6703 0.2458 0.3412
H28 H 0.5922 0.2639 0.2853
C26 C 0.6462(11) 0.1082(14) 0.2927(7)
H29 H 0.6254 0.1098 0.2544
H30 H 0.7085 0.0976 0.3087
C27 C 0.5551(8) 0.0611(13) 0.3322(5)
C28 C 0.2051(14) -0.2391(17) 0.2449(8)
H31 H 0.2178 -0.2763 0.2180
H32 H 0.1525 -0.2703 0.2449
C29 C 0.1941(14) -0.1294(17) 0.2341(8)
H33 H 0.1409 -0.1020 0.2347
H34 H 0.1955 -0.1115 0.2004
C30 C 0.3141(9) -0.1553(12) 0.3167(6)
Nd1B Nd 1.06718(3) -0.52361(5) 0.58152(2)
Nd2B Nd 0.54308(3) -1.00155(4) 0.58251(2)
Nd2A Nd 0.54308(3) -0.99845(4) 0.08251(2)
Nd2_2 Nd 0.45692(3) -0.99845(4) 0.41749(2)
Nd2B_2 Nd 0.54308(3) -0.00155(4) 0.58251(2)
O1B O 1.0476(4) -0.3915(7) 0.4944(3)
O3_2 O 0.6016(4) 0.0765(6) 0.4650(3)
O4B O 0.3545(5) -0.0810(7) 0.4473(3)
O7A O 0.4472(5) 0.2011(7) 0.3874(3)
O8A O 0.3292(5) 0.1038(6) 0.3467(3)
O10B O 1.0575(4) -0.6000(7) 0.4420(3)
O12B O 0.4439(5) 0.1128(6) 0.4865(3)
O17 O -0.3509(7) -0.1989(9) 0.3104(4)
N9 N -0.4624(8) -0.2617(12) 0.3275(5)
H9 H -0.4910 -0.2014 0.3230
N10 N -0.3683(8) -0.3788(10) 0.3243(5)
H10 H -0.3239 -0.4046 0.3208
C31 C -0.4280(12) -0.4438(15) 0.3355(8)
H35 H -0.3981 -0.4882 0.3669
H36 H -0.4604 -0.4917 0.3059
C32 C -0.4864(10) -0.3630(14) 0.3444(7)
H37 H -0.5468 -0.3805 0.3231
H38 H -0.4762 -0.3600 0.3815
C33 C -0.3896(9) -0.2729(13) 0.3198(5)
O18 O -0.6815(14) -0.4247(17) 0.3708(9)
N11 N -0.6528(14) -0.4810(17) 0.4568(9)
H11 H -0.6823 -0.5407 0.4474
N12 N -0.5836(9) -0.3449(12) 0.4506(6)
H12 H -0.5634 -0.2970 0.4360
C34 C -0.6096(15) -0.4490(19) 0.5092(9)
H39 H -0.5752 -0.5088 0.5309
H40 H -0.6500 -0.4244 0.5233
C35 C -0.5514(11) -0.3540(13) 0.5069(6)
H41 H -0.5609 -0.2875 0.5230
H42 H -0.4904 -0.3733 0.5232
C36 C -0.6448(17) -0.412(2) 0.4225(11)
O19 O 1.054(2) -1.170(2) 0.5947(12)
C37 C 1.053(7) -1.146(5) 0.650(3)
C38 C 1.005(5) -1.029(5) 0.640(3)
loop_
_geom_bond_atom_site_label_1
_geom_bond_atom_site_label_2
_geom_bond_site_symmetry_1
_geom_bond_site_symmetry_2
Nd1 O1 1_555 1_555
Nd2 O11 1_555 1_555
S1 C1 1_555 1_555
S2 C7 1_555 1_555
S3 C13 1_555 1_555
O1 C5 1_555 1_555
O2 Nd1 1_555 1_555
O3 C6 1_555 1_555
O4 C6 1_555 1_555
O5 Nd1 1_555 1_555
O6 Nd1 1_555 1_555
O7 C12 1_555 1_555
O8 C12 1_555 1_555
O9 Nd1 1_555 1_555
O10 C17 1_555 1_555
O11 C18 1_555 1_555
O12 Nd2 1_555 1_555
O13 Nd1 1_555 1_555
O14 Nd1 1_555 1_555
O15 Nd2 1_555 1_555
O16 Nd2 1_555 1_555
O17 C33 1_555 1_555
O18 C36 1_555 1_555
O19 C37 1_555 1_555
N1 H1 1_555 1_555
N2 H2 1_555 1_555
N3 H3 1_555 1_555
N4 H4 1_555 1_555
N5 H5 1_555 1_555
N6 H6 1_555 1_555
N7 H7 1_555 1_555
N8 H8 1_555 1_555
N9 H9 1_555 1_555
N10 H10 1_555 1_555
N11 H11 1_555 1_555
N12 H12 1_555 1_555
C1 C2 1_555 1_555
C2 H13 1_555 1_555
C3 C2 1_555 1_555
H14 C3 1_555 1_555
C4 S1 1_555 1_555
C5 O2 1_555 1_555
C6 C4 1_555 1_555
C7 C8 1_555 1_555
C8 H15 1_555 1_555
C9 C8 1_555 1_555
H16 C9 1_555 1_555
C10 S2 1_555 1_555
C11 O5 1_555 1_555
C12 C10 1_555 1_555
C13 C14 1_555 1_555
C14 H17 1_555 1_555
C15 C14 1_555 1_555
H18 C15 1_555 1_555
C16 S3 1_555 1_555
C17 O9 1_555 1_555
C18 O12 1_555 1_555
C19 N2 1_555 1_555
H19 C19 1_555 1_555
H20 C19 1_555 1_555
C20 N1 1_555 1_555
H21 C20 1_555 1_555
H22 C20 1_555 1_555
C21 O13 1_555 1_555
C22 N3 1_555 1_555
H23 C22 1_555 1_555
H24 C22 1_555 1_555
C23 N4 1_555 1_555
H25 C23 1_555 1_555
H26 C23 1_555 1_555
C24 O14 1_555 1_555
C25 N6 1_555 1_555
H27 C25 1_555 1_555
H28 C25 1_555 1_555
C26 N5 1_555 1_555
H29 C26 1_555 1_555
H30 C26 1_555 1_555
C27 O15 1_555 1_555
C28 N7 1_555 1_555
H31 C28 1_555 1_555
H32 C28 1_555 1_555
C29 N8 1_555 1_555
H33 C29 1_555 1_555
H34 C29 1_555 1_555
C30 O16 1_555 1_555
C31 N10 1_555 1_555
H35 C31 1_555 1_555
H36 C31 1_555 1_555
C32 N9 1_555 1_555
H37 C32 1_555 1_555
H38 C32 1_555 1_555
C33 N9 1_555 1_555
C34 N11 1_555 1_555
H39 C34 1_555 1_555
H40 C34 1_555 1_555
C35 N12 1_555 1_555
H41 C35 1_555 1_555
H42 C35 1_555 1_555
C36 N11 1_555 1_555
C37 C38 1_555 1_555
Nd1B O1 1_555 1_555
Nd2B O4 1_555 1_555
Nd2A O7 1_555 1_555
Nd2_2 O3 1_555 1_555
Nd2B_2 O12 1_555 1_555
O1B Nd1 1_555 1_555
O3_2 Nd2 1_555 1_555
O4B Nd2 1_555 1_555
O7A Nd2 1_555 1_555
O8A Nd2 1_555 1_555
O10B Nd1 1_555 1_555
O12B Nd2 1_555 1_555
O6 C11 1_555 1_555
O8 Nd2A 1_555 1_555
O10 Nd1B 1_555 1_555
N1 C21 1_555 1_555
N2 C21 1_555 1_555
N3 C24 1_555 1_555
N4 C24 1_555 1_555
N5 C27 1_555 1_555
N6 C27 1_555 1_555
N7 C30 1_555 1_555
N8 C30 1_555 1_555
N10 C33 1_555 1_555
N12 C36 1_555 1_555
C1 C5 1_555 1_555
C3 C4 1_555 1_555
C7 C11 1_555 1_555
C9 C10 1_555 1_555
C13 C17 1_555 1_555
C15 C16 1_555 1_555
C16 C18 1_555 1_555
C19 C20 1_555 1_555
C22 C23 1_555 1_555
C25 C26 1_555 1_555
C28 C29 1_555 1_555
C31 C32 1_555 1_555
C34 C35 1_555 1_555
Nd1B O1B 1_555 1_555
Nd2B_2 O12B 1_555 1_555

#END
