
#######################################################################
#
#                 Cambridge Crystallographic Data Centre
#                                CCDC 
#
#######################################################################
#
# If this CIF has been generated from an entry in the Cambridge 
# Structural Database, then it will include bibliographic, chemical, 
# crystal, experimental, refinement or atomic coordinate data resulting 
# from the CCDC's data processing and validation procedures.
#
#######################################################################

data_HAWWIN
_chemical_formula_moiety         '(C39 H48 N14 Nd2 O19 S3)n'
_symmetry_cell_setting           monoclinic
_symmetry_space_group_name_H-M   'P 2/c'
_symmetry_Int_Tables_number      13
_space_group_name_Hall           '-P 2yc'
loop_
_symmetry_equiv_pos_site_id
_symmetry_equiv_pos_as_xyz
1 x,y,z
2 -x,y,1/2-z
3 -x,-y,-z
4 x,-y,1/2+z
_cell_length_a                   17.3413(5)
_cell_length_b                   11.6871(3)
_cell_length_c                   27.8924(10)
_cell_angle_alpha                90
_cell_angle_beta                 115.104(3)
_cell_angle_gamma                90
_cell_volume                     5118.96
loop_
_atom_site_label
_atom_site_type_symbol
_atom_site_fract_x
_atom_site_fract_y
_atom_site_fract_z
Nd1 Nd -0.067746(16) -0.02827(2) 0.419027(10)
Nd2 Nd 0.541306(17) 0.50794(2) 0.580594(10)
S1 S 0.28362(9) 0.21398(13) 0.52769(5)
S2 S -0.26392(8) 0.26632(13) 0.46525(5)
S3 S -0.23494(9) 0.22462(12) 0.23949(5)
O1 O 0.0571(2) 0.0951(3) 0.43932(14)
O2 O 0.1390(2) 0.0904(3) 0.52675(14)
O3 O 0.4368(3) 0.3513(4) 0.56656(15)
O4 O 0.4452(2) 0.3876(3) 0.49187(14)
O5 O -0.2040(3) -0.0334(3) 0.33551(14)
O6 O -0.1133(2) 0.0989(3) 0.33664(14)
O7 O -0.3276(2) 0.3965(4) 0.15265(14)
O8 O -0.4366(3) 0.2863(4) 0.10703(15)
O9 O -0.0423(2) 0.1198(3) 0.50345(14)
O10 O -0.1535(2) 0.1370(4) 0.42681(14)
O11 O -0.4034(2) 0.4019(4) 0.46900(14)
O12 O -0.3487(2) 0.4188(4) 0.55717(14)
O13 O -0.0015(4) -0.1049(5) 0.3644(2)
O14 O -0.1049(3) -0.2313(3) 0.40120(16)
O15 O 0.4889(3) 0.5314(4) 0.64817(17)
O16 O 0.6060(3) 0.3570(4) 0.64581(16)
N1 N 0.0551(10) 0.0283(10) 0.3311(6)
H1 H 0.0266 0.0852 0.3348
N2 N 0.0799(14) -0.1387(12) 0.3228(9)
H2 H 0.0711 -0.2113 0.3204
N3 N -0.1952(4) -0.3766(5) 0.3983(2)
H3 H -0.2322 -0.3660 0.3663
N4 N -0.0795(5) -0.3540(5) 0.4706(2)
H4 H -0.0288 -0.3318 0.4911
N5 N 0.7473(4) 0.3459(10) 0.6678(3)
H5 H 0.7462 0.3315 0.6373
N6 N 0.7043(4) 0.3356(11) 0.7296(2)
H6 H 0.6698 0.3333 0.7445
N7 N 0.3992(5) 0.5654(7) 0.6866(3)
H7 H 0.3924 0.4947 0.6925
N8 N 0.4401(4) 0.7105(5) 0.6571(2)
H8 H 0.4659 0.7497 0.6423
C1 C 0.1911(3) 0.1836(5) 0.4731(2)
C2 C 0.1911(4) 0.2309(5) 0.4286(2)
H13 H 0.1458 0.2243 0.3953
C3 C 0.2669(3) 0.2910(5) 0.4381(2)
H14 H 0.2772 0.3278 0.4118
C4 C 0.3229(3) 0.2891(5) 0.4899(2)
C5 C 0.1236(3) 0.1174(5) 0.4804(2)
C6 C 0.4072(3) 0.3449(5) 0.5176(2)
C7 C -0.2478(4) 0.0944(5) 0.2637(2)
C8 C -0.3223(4) 0.0433(6) 0.2303(2)
H15 H -0.3399 -0.0281 0.2366
C9 C -0.3694(4) 0.1102(6) 0.1853(2)
H16 H -0.4214 0.0878 0.1587
C10 C -0.3310(3) 0.2102(5) 0.1851(2)
C11 C -0.1849(3) 0.0504(5) 0.31509(19)
C12 C -0.3657(4) 0.3040(5) 0.1462(2)
C13 C -0.1591(3) 0.2310(4) 0.49975(19)
C14 C -0.1267(3) 0.2747(5) 0.5494(2)
H17 H -0.0704 0.2650 0.5738
C15 C -0.1871(3) 0.3358(5) 0.5600(2)
H18 H -0.1749 0.3717 0.5922
C16 C -0.2649(3) 0.3375(5) 0.5188(2)
C17 C -0.1165(3) 0.1595(4) 0.4748(2)
C18 C -0.3453(3) 0.3907(5) 0.5148(2)
C19 C 0.1348(12) -0.0794(18) 0.3025(9)
H19 H 0.1944 -0.0972 0.3233
H20 H 0.1193 -0.0981 0.2657
C20 C 0.1159(10) 0.0407(14) 0.3089(6)
H21 H 0.1664 0.0812 0.3329
H22 H 0.0914 0.0804 0.2752
C21 C 0.0468(6) -0.0698(10) 0.3445(3)
C22 C -0.1266(7) -0.4416(7) 0.4847(4)
H23 H -0.1449 -0.4133 0.5109
H24 H -0.0924 -0.5099 0.4983
C23 C -0.2030(7) -0.4655(7) 0.4318(4)
H25 H -0.1991 -0.5409 0.4184
H26 H -0.2563 -0.4593 0.4352
C24 C -0.1256(4) -0.3122(5) 0.4212(2)
C25 C 0.7958(6) 0.326(2) 0.7585(4)
H27 H 0.8136 0.2474 0.7680
H28 H 0.8174 0.3732 0.7901
C26 C 0.8229(6) 0.372(2) 0.7157(4)
H29 H 0.8341 0.4539 0.7195
H30 H 0.8727 0.3326 0.7166
C27 C 0.6795(5) 0.3479(8) 0.6791(3)
C28 C 0.3604(6) 0.6566(8) 0.7011(4)
H31 H 0.3821 0.6625 0.7393
H32 H 0.2991 0.6473 0.6860
C29 C 0.3851(5) 0.7601(7) 0.6781(3)
H33 H 0.3357 0.7956 0.6505
H34 H 0.4150 0.8163 0.7052
C30 C 0.4469(4) 0.5985(6) 0.6629(2)
Nd1B Nd 0.067746(16) 0.02827(2) 0.580973(10)
Nd2B Nd 0.458694(17) 0.49206(2) 0.419406(10)
Nd2C Nd -0.458694(17) 0.49206(2) 0.080594(10)
Nd2B_2 Nd -0.541306(17) 0.49206(2) 0.419406(10)
Nd2_2 Nd -0.458694(17) 0.50794(2) 0.580594(10)
O2B O -0.1390(2) -0.0904(3) 0.47325(14)
O4B O 0.5548(2) 0.6124(3) 0.50813(14)
O7C O 0.6724(2) 0.6035(4) 0.65265(14)
O8C O 0.5634(3) 0.7137(4) 0.60703(15)
O9B O 0.0423(2) -0.1198(3) 0.49655(14)
O11B O 0.4034(2) 0.5981(4) 0.53100(14)
O12_2 O 0.6513(2) 0.4188(4) 0.55717(14)
O17 O -0.5712(5) 0.0776(7) 0.0774(3)
N9 N -0.6434(7) 0.0302(9) -0.0114(4)
H9 H -0.6799 -0.0161 -0.0087
N10 N -0.5349(6) 0.1435(7) 0.0124(3)
H10 H -0.4902 0.1804 0.0329
C31 C -0.6406(10) 0.0595(11) -0.0601(5)
H35 H -0.6929 0.0968 -0.0838
H36 H -0.6316 -0.0078 -0.0775
C32 C -0.5656(8) 0.1406(9) -0.0439(4)
H37 H -0.5226 0.1116 -0.0543
H38 H -0.5835 0.2159 -0.0592
C33 C -0.5825(6) 0.0833(8) 0.0296(4)
O18 O -0.3531(3) -0.3331(5) 0.3096(2)
N11 N -0.3682(4) -0.1439(6) 0.3217(3)
H11 H -0.3241 -0.1201 0.3180
N12 N -0.4642(4) -0.2594(5) 0.3235(2)
H12 H -0.4950 -0.3200 0.3173
C34 C -0.4253(7) -0.0702(8) 0.3328(4)
H39 H -0.4560 -0.0196 0.3033
H40 H -0.3947 -0.0246 0.3643
C35 C -0.4847(5) -0.1533(7) 0.3413(3)
H41 H -0.4739 -0.1573 0.3783
H42 H -0.5437 -0.1325 0.3204
C36 C -0.3916(4) -0.2528(6) 0.3179(2)
N13 N -0.0070(9) -0.6270(11) 0.3035(6)
H43 H 0.0008 -0.6615 0.2787
C37 C -0.0313(7) -0.6699(13) 0.3467(6)
H44 H 0.0175 -0.7091 0.3731
H45 H -0.0764 -0.7260 0.3312
N14 N -0.0271(11) -0.4776(14) 0.3581(6)
H46 H -0.0227 -0.4083 0.3693
O19 O 0.0040(13) -0.4306(12) 0.2908(6)
C38 C -0.0023(12) -0.5254(13) 0.3166(6)
C39 C -0.0613(17) -0.5796(18) 0.3751(10)
H47 H -0.1228 -0.5776 0.3621
H48 H -0.0352 -0.5896 0.4133
loop_
_geom_bond_atom_site_label_1
_geom_bond_atom_site_label_2
_geom_bond_site_symmetry_1
_geom_bond_site_symmetry_2
Nd1 O1 1_555 1_555
Nd2 O3 1_555 1_555
S1 C1 1_555 1_555
S2 C13 1_555 1_555
S3 C7 1_555 1_555
O1 C5 1_555 1_555
O2 C5 1_555 1_555
O3 C6 1_555 1_555
O4 Nd2 1_555 1_555
O5 Nd1 1_555 1_555
O6 Nd1 1_555 1_555
O7 C12 1_555 1_555
O8 C12 1_555 1_555
O9 Nd1 1_555 1_555
O10 Nd1 1_555 1_555
O11 C18 1_555 1_555
O12 C18 1_555 1_555
O13 Nd1 1_555 1_555
O14 Nd1 1_555 1_555
O15 Nd2 1_555 1_555
O16 Nd2 1_555 1_555
O17 C33 1_555 1_555
O18 C36 1_555 1_555
N1 H1 1_555 1_555
N2 H2 1_555 1_555
N3 H3 1_555 1_555
N4 H4 1_555 1_555
N5 H5 1_555 1_555
N6 H6 1_555 1_555
N7 H7 1_555 1_555
N8 H8 1_555 1_555
N9 H9 1_555 1_555
N10 H10 1_555 1_555
N11 H11 1_555 1_555
N12 H12 1_555 1_555
C1 C2 1_555 1_555
C2 H13 1_555 1_555
C3 C2 1_555 1_555
H14 C3 1_555 1_555
C4 S1 1_555 1_555
C5 C1 1_555 1_555
C6 O4 1_555 1_555
C7 C8 1_555 1_555
C8 H15 1_555 1_555
C9 C8 1_555 1_555
H16 C9 1_555 1_555
C10 S3 1_555 1_555
C11 O5 1_555 1_555
C12 C10 1_555 1_555
C13 C14 1_555 1_555
C14 H17 1_555 1_555
C15 C14 1_555 1_555
H18 C15 1_555 1_555
C16 S2 1_555 1_555
C17 O9 1_555 1_555
C18 C16 1_555 1_555
C19 N2 1_555 1_555
H19 C19 1_555 1_555
H20 C19 1_555 1_555
C20 N1 1_555 1_555
H21 C20 1_555 1_555
H22 C20 1_555 1_555
C21 O13 1_555 1_555
C22 N4 1_555 1_555
H23 C22 1_555 1_555
H24 C22 1_555 1_555
C23 N3 1_555 1_555
H25 C23 1_555 1_555
H26 C23 1_555 1_555
C24 O14 1_555 1_555
C25 N6 1_555 1_555
H27 C25 1_555 1_555
H28 C25 1_555 1_555
C26 N5 1_555 1_555
H29 C26 1_555 1_555
H30 C26 1_555 1_555
C27 O16 1_555 1_555
C28 N7 1_555 1_555
H31 C28 1_555 1_555
H32 C28 1_555 1_555
C29 N8 1_555 1_555
H33 C29 1_555 1_555
H34 C29 1_555 1_555
C30 O15 1_555 1_555
C31 N9 1_555 1_555
H35 C31 1_555 1_555
H36 C31 1_555 1_555
C32 N10 1_555 1_555
H37 C32 1_555 1_555
H38 C32 1_555 1_555
C33 N9 1_555 1_555
C34 N11 1_555 1_555
H39 C34 1_555 1_555
H40 C34 1_555 1_555
C35 N12 1_555 1_555
H41 C35 1_555 1_555
H42 C35 1_555 1_555
C36 N11 1_555 1_555
N13 H43 1_555 1_555
C37 N13 1_555 1_555
H44 C37 1_555 1_555
H45 C37 1_555 1_555
N14 H46 1_555 1_555
O19 C38 1_555 1_555
C38 N13 1_555 1_555
C39 C37 1_555 1_555
H47 C39 1_555 1_555
H48 C39 1_555 1_555
Nd1B O2 1_555 1_555
Nd2B O4 1_555 1_555
Nd2C O7 1_555 1_555
Nd2B_2 O11 1_555 1_555
Nd2_2 O12 1_555 1_555
O2B Nd1 1_555 1_555
O4B Nd2 1_555 1_555
O7C Nd2 1_555 1_555
O8C Nd2 1_555 1_555
O9B Nd1 1_555 1_555
O11B Nd2 1_555 1_555
O12_2 Nd2 1_555 1_555
O6 C11 1_555 1_555
O8 Nd2C 1_555 1_555
O9 Nd1B 1_555 1_555
O10 C17 1_555 1_555
N1 C21 1_555 1_555
N2 C21 1_555 1_555
N3 C24 1_555 1_555
N4 C24 1_555 1_555
N5 C27 1_555 1_555
N6 C27 1_555 1_555
N7 C30 1_555 1_555
N8 C30 1_555 1_555
N10 C33 1_555 1_555
N12 C36 1_555 1_555
C3 C4 1_555 1_555
C4 C6 1_555 1_555
C7 C11 1_555 1_555
C9 C10 1_555 1_555
C13 C17 1_555 1_555
C15 C16 1_555 1_555
C19 C20 1_555 1_555
C22 C23 1_555 1_555
C25 C26 1_555 1_555
C28 C29 1_555 1_555
C31 C32 1_555 1_555
C34 C35 1_555 1_555
N14 C38 1_555 1_555
N14 C39 1_555 1_555
Nd1B O9B 1_555 1_555
Nd2B O4B 1_555 1_555

#END
