
#######################################################################
#
#                 Cambridge Crystallographic Data Centre
#                                CCDC 
#
#######################################################################
#
# If this CIF has been generated from an entry in the Cambridge 
# Structural Database, then it will include bibliographic, chemical, 
# crystal, experimental, refinement or atomic coordinate data resulting 
# from the CCDC's data processing and validation procedures.
#
#######################################################################

data_FAGMOS
_chemical_formula_moiety         '(C60 H76 Ag2 As1 F6 N8 O2 S8 1+)n'
_symmetry_cell_setting           tetragonal
_symmetry_space_group_name_H-M   'I -4 2 d'
_symmetry_Int_Tables_number      122
_space_group_name_Hall           'I -4 2bw'
loop_
_symmetry_equiv_pos_site_id
_symmetry_equiv_pos_as_xyz
1 x,y,z
2 y,-x,-z
3 -x,-y,z
4 -y,x,-z
5 x,1/2-y,1/4-z
6 1/2-y,-x,3/4+z
7 -x,1/2+y,1/4-z
8 1/2+y,x,3/4+z
9 1/2+x,1/2+y,1/2+z
10 1/2+y,1/2-x,1/2-z
11 1/2-x,1/2-y,1/2+z
12 1/2-y,1/2+x,1/2-z
13 1/2+x,-y,3/4-z
14 -y,1/2-x,1/4+z
15 1/2-x,y,3/4-z
16 y,1/2+x,1/4+z
_cell_length_a                   24.4165(8)
_cell_length_b                   24.4165(8)
_cell_length_c                   13.7457(4)
_cell_angle_alpha                90
_cell_angle_beta                 90
_cell_angle_gamma                90
_cell_volume                     8194.71
loop_
_atom_site_label
_atom_site_type_symbol
_atom_site_fract_x
_atom_site_fract_y
_atom_site_fract_z
_atom_site_U_iso_or_equiv
_atom_site_thermal_displace_type
Ag1 Ag 0.2500 0.07813(3) 0.3750 0.0386 Uani
N1 N 0.2016(2) 0.0828(3) 0.2450(4) 0.0343 Uani
N2 N 0.3456(3) 0.1108(3) 0.5161(4) 0.0423 Uani
C1 C 0.2871(3) 0.0615(4) 0.5924(5) 0.0393 Uani
C2 C 0.3700(4) 0.1435(4) 0.4378(5) 0.0450 Uani
C3 C 0.3642(4) 0.1055(5) 0.6086(6) 0.0687 Uani
C4 C 0.3273(4) 0.0749(5) 0.6599(6) 0.0630 Uani
H1 H 0.2557 0.0399 0.6064 0.0470 Uiso
C5 C 0.4298(4) 0.1338(4) 0.4265(5) 0.0490 Uani
H2 H 0.3514 0.1346 0.3757 0.0540 Uiso
H3 H 0.3637 0.1828 0.4514 0.0540 Uiso
H4 H 0.3972 0.1206 0.6335 0.0830 Uiso
H5 H 0.3289 0.0650 0.7266 0.0750 Uiso
S1 S 0.44739(7) 0.06878(7) 0.36831(12) 0.0363 Uani
H6 H 0.4456 0.1640 0.3876 0.0590 Uiso
H7 H 0.4471 0.1349 0.4916 0.0590 Uiso
C6 C 0.4328(3) 0.0888(2) 0.2470(4) 0.0253 Uani
C7 C 0.4653(3) 0.1266(3) 0.1980(4) 0.0257 Uani
C8 C 0.3873(3) 0.0681(2) 0.1986(4) 0.0260 Uani
S2 S 0.52250(6) 0.16107(6) 0.24769(12) 0.0269 Uani
C9 C 0.4501(3) 0.1459(3) 0.1059(4) 0.0310 Uani
C10 C 0.3718(3) 0.0875(3) 0.1070(4) 0.0293 Uani
C11 C 0.4019(3) 0.1290(3) 0.0602(5) 0.0320 Uani
H8 H 0.4733 0.1713 0.0735 0.0370 Uiso
H9 H 0.3404 0.0725 0.0759 0.0350 Uiso
C12 C 0.3850(4) 0.1527(4) -0.0373(6) 0.0460 Uani
C13 C 0.3255(4) 0.1420(5) -0.0625(9) 0.0713 Uani
C14 C 0.4206(7) 0.1254(8) -0.1162(8) 0.1017 Uani
C15 C 0.3948(5) 0.2145(4) -0.0382(8) 0.0660 Uani
H10 H 0.3018 0.1627 -0.0182 0.1070 Uiso
H11 H 0.3185 0.1536 -0.1296 0.1070 Uiso
H12 H 0.3177 0.1028 -0.0561 0.1070 Uiso
H13 H 0.4145 0.0858 -0.1155 0.1530 Uiso
H14 H 0.4106 0.1401 -0.1802 0.1530 Uiso
H15 H 0.4593 0.1331 -0.1033 0.1530 Uiso
H16 H 0.3817 0.2298 -0.0998 0.0990 Uiso
H17 H 0.3749 0.2314 0.0159 0.0990 Uiso
H18 H 0.4340 0.2219 -0.0312 0.0990 Uiso
N1N N 0.2984(2) 0.0828(3) 0.5050(4) 0.0343 Uani
S2K S 0.33893(6) 0.02250(6) 0.25231(12) 0.0269 Uani
C8I C 0.5681(2) 0.1127(3) 0.3014(4) 0.0260 Uani
C7K C 0.3734(3) -0.0347(3) 0.3020(4) 0.0257 Uani
C6I C 0.5888(2) 0.0672(3) 0.2530(4) 0.0253 Uani
C10I C 0.5875(3) 0.1282(3) 0.3930(4) 0.0293 Uani
C6K C 0.4112(2) -0.0672(3) 0.2530(4) 0.0253 Uani
C9K C 0.3541(3) -0.0499(3) 0.3941(4) 0.0310 Uani
C7I C 0.6266(3) 0.0347(3) 0.3020(4) 0.0257 Uani
S1I S 0.56878(7) 0.05261(7) 0.13169(12) 0.0363 Uani
C11I C 0.6290(3) 0.0981(3) 0.4398(5) 0.0320 Uani
H9I H 0.5725 0.1596 0.4241 0.0350 Uiso
C8K C 0.4319(2) -0.1127(3) 0.3014(4) 0.0260 Uani
S1K S 0.43122(7) -0.05261(7) 0.13169(12) 0.0363 Uani
H8K H 0.3287 -0.0267 0.4265 0.0370 Uiso
C11K C 0.3710(3) -0.0981(3) 0.4398(5) 0.0320 Uani
S2I S 0.66107(6) -0.02250(6) 0.25231(12) 0.0269 Uani
C9I C 0.6459(3) 0.0499(3) 0.3941(4) 0.0310 Uani
C5I C 0.6338(4) 0.0702(4) 0.0735(5) 0.0490 Uani
C12I C 0.6527(4) 0.1150(4) 0.5373(6) 0.0460 Uani
S2B S 0.47750(6) -0.16107(6) 0.24769(12) 0.0269 Uani
C10K C 0.4125(3) -0.1282(3) 0.3930(4) 0.0293 Uani
C5K C 0.3662(4) -0.0702(4) 0.0735(5) 0.0490 Uani
C12K C 0.3473(4) -0.1150(4) 0.5373(6) 0.0460 Uani
C8B C 0.6127(3) -0.0681(2) 0.1986(4) 0.0260 Uani
H8I H 0.6713 0.0267 0.4265 0.0370 Uiso
H6I H 0.6640 0.0544 0.1124 0.0590 Uiso
H7I H 0.6349 0.0529 0.0084 0.0590 Uiso
C2I C 0.6435(4) 0.1300(4) 0.0622(5) 0.0450 Uani
C15I C 0.7145(4) 0.1052(5) 0.5382(8) 0.0660 Uani
C14I C 0.6254(8) 0.0794(7) 0.6162(8) 0.1017 Uani
C13I C 0.6420(5) 0.1745(4) 0.5625(9) 0.0713 Uani
C7B C 0.5347(3) -0.1266(3) 0.1980(4) 0.0257 Uani
H9K H 0.4275 -0.1596 0.4241 0.0350 Uiso
C2K C 0.3565(4) -0.1300(4) 0.0622(5) 0.0450 Uani
H6K H 0.3360 -0.0544 0.1124 0.0590 Uiso
H7K H 0.3651 -0.0529 0.0084 0.0590 Uiso
C15K C 0.2855(4) -0.1052(5) 0.5382(8) 0.0660 Uani
C14K C 0.3746(8) -0.0794(7) 0.6162(8) 0.1017 Uani
C13K C 0.3580(5) -0.1745(4) 0.5625(9) 0.0713 Uani
C10B C 0.6282(3) -0.0875(3) 0.1070(4) 0.0293 Uani
C6B C 0.5672(3) -0.0888(2) 0.2470(4) 0.0253 Uani
H3I H 0.6828 0.1363 0.0486 0.0540 Uiso
N2I N 0.6108(3) 0.1544(3) -0.0161(4) 0.0423 Uani
H2I H 0.6346 0.1486 0.1243 0.0540 Uiso
H16I H 0.7298 0.1183 0.5998 0.0990 Uiso
H17I H 0.7314 0.1251 0.4841 0.0990 Uiso
H18I H 0.7219 0.0660 0.5312 0.0990 Uiso
H13I H 0.5858 0.0855 0.6155 0.1530 Uiso
H14I H 0.6401 0.0894 0.6802 0.1530 Uiso
H15I H 0.6331 0.0407 0.6033 0.1530 Uiso
H10I H 0.6627 0.1982 0.5182 0.1070 Uiso
H11I H 0.6536 0.1815 0.6296 0.1070 Uiso
H12I H 0.6028 0.1823 0.5561 0.1070 Uiso
C9B C 0.5499(3) -0.1459(3) 0.1059(4) 0.0310 Uani
N2K N 0.3892(3) -0.1544(3) -0.0161(4) 0.0423 Uani
H2K H 0.3654 -0.1486 0.1243 0.0540 Uiso
H3K H 0.3172 -0.1363 0.0486 0.0540 Uiso
H17K H 0.2686 -0.1251 0.4841 0.0990 Uiso
H18K H 0.2781 -0.0660 0.5312 0.0990 Uiso
H16K H 0.2702 -0.1183 0.5998 0.0990 Uiso
H14K H 0.3599 -0.0894 0.6802 0.1530 Uiso
H15K H 0.3669 -0.0407 0.6033 0.1530 Uiso
H13K H 0.4142 -0.0855 0.6155 0.1530 Uiso
H12K H 0.3972 -0.1823 0.5561 0.1070 Uiso
H11K H 0.3464 -0.1815 0.6296 0.1070 Uiso
H10K H 0.3373 -0.1982 0.5182 0.1070 Uiso
H9B H 0.6596 -0.0725 0.0759 0.0350 Uiso
C11B C 0.5981(3) -0.1290(3) 0.0602(5) 0.0320 Uani
S1B S 0.55261(7) -0.06878(7) 0.36831(12) 0.0363 Uani
C3I C 0.6055(5) 0.1358(4) -0.1086(6) 0.0687 Uani
N1G N 0.5828(3) 0.2016(2) -0.0050(4) 0.0343 Uani
H8B H 0.5267 -0.1713 0.0735 0.0370 Uiso
N1E N 0.4172(3) -0.2016(2) -0.0050(4) 0.0343 Uani
C3K C 0.3945(5) -0.1358(4) -0.1086(6) 0.0687 Uani
C12B C 0.6150(4) -0.1527(4) -0.0373(6) 0.0460 Uani
C5B C 0.5702(4) -0.1338(4) 0.4265(5) 0.0490 Uani
C4I C 0.5749(5) 0.1727(4) -0.1599(6) 0.0630 Uani
H4I H 0.6206 0.1028 -0.1335 0.0830 Uiso
C1I C 0.5615(4) 0.2129(3) -0.0924(5) 0.0393 Uani
Ag1G Ag 0.57813(3) 0.2500 0.1250 0.0386 Uani
C1K C 0.4385(4) -0.2129(3) -0.0924(5) 0.0393 Uani
Ag1E Ag 0.42187(3) -0.2500 0.1250 0.0386 Uani
H4K H 0.3794 -0.1028 -0.1335 0.0830 Uiso
C4K C 0.4251(5) -0.1727(4) -0.1599(6) 0.0630 Uani
C14B C 0.5794(7) -0.1254(8) -0.1162(8) 0.1017 Uani
C13B C 0.6745(4) -0.1420(5) -0.0625(9) 0.0713 Uani
C15B C 0.6052(5) -0.2145(4) -0.0382(8) 0.0660 Uani
C2B C 0.6300(4) -0.1435(4) 0.4378(5) 0.0450 Uani
H7B H 0.5529 -0.1349 0.4916 0.0590 Uiso
H6B H 0.5544 -0.1640 0.3876 0.0590 Uiso
H5I H 0.5650 0.1711 -0.2266 0.0750 Uiso
H1I H 0.5399 0.2443 -0.1064 0.0470 Uiso
H1K H 0.4601 -0.2443 -0.1064 0.0470 Uiso
H5K H 0.4350 -0.1711 -0.2266 0.0750 Uiso
H13B H 0.5855 -0.0858 -0.1155 0.1530 Uiso
H14B H 0.5894 -0.1401 -0.1802 0.1530 Uiso
H15B H 0.5407 -0.1331 -0.1033 0.1530 Uiso
H10B H 0.6982 -0.1627 -0.0182 0.1070 Uiso
H11B H 0.6815 -0.1536 -0.1296 0.1070 Uiso
H12B H 0.6823 -0.1028 -0.0561 0.1070 Uiso
H16B H 0.6183 -0.2298 -0.0998 0.0990 Uiso
H17B H 0.6251 -0.2314 0.0159 0.0990 Uiso
H18B H 0.5660 -0.2219 -0.0312 0.0990 Uiso
H2B H 0.6486 -0.1346 0.3757 0.0540 Uiso
N2B N 0.6544(3) -0.1108(3) 0.5161(4) 0.0423 Uani
H3B H 0.6363 -0.1828 0.4514 0.0540 Uiso
N1L N 0.7016(2) -0.0828(3) 0.5050(4) 0.0343 Uani
C3B C 0.6358(4) -0.1055(5) 0.6086(6) 0.0687 Uani
C1B C 0.7129(3) -0.0615(4) 0.5924(5) 0.0393 Uani
Ag1B Ag 0.7500 -0.07813(3) 0.3750 0.0386 Uani
C4B C 0.6727(4) -0.0749(5) 0.6599(6) 0.0630 Uani
H4B H 0.6028 -0.1206 0.6335 0.0830 Uiso
H1B H 0.7443 -0.0399 0.6064 0.0470 Uiso
N1B N 0.7984(2) -0.0828(3) 0.2450(4) 0.0343 Uani
H5B H 0.6711 -0.0650 0.7266 0.0750 Uiso
As1 As 0.7500 0.47222(4) 0.3750 0.0332 Uani
F1 F 0.7591(3) 0.5152(7) 0.4622(11) 0.2100 Uani
F2 F 0.6807(2) 0.4727(2) 0.3947(4) 0.0533 Uani
F3 F 0.7584(4) 0.4239(7) 0.4560(12) 0.2007 Uani
F1N F 0.7409(3) 0.5152(7) 0.2878(11) 0.2100 Uani
F2N F 0.8193(2) 0.4727(2) 0.3553(4) 0.0533 Uani
F3N F 0.7416(4) 0.4239(7) 0.2940(12) 0.2007 Uani
O1 O 0.2493(4) 0.2184(4) 0.2133(12) 0.1370 Uani
O2 O 0.0000 0.0000 0.1774(12) 0.1777 Uani
loop_
_atom_site_aniso_label
_atom_site_aniso_U_11
_atom_site_aniso_U_22
_atom_site_aniso_U_33
_atom_site_aniso_U_23
_atom_site_aniso_U_13
_atom_site_aniso_U_12
Ag1 0.0456(4) 0.0424(4) 0.0278(3) 0.000 -0.0070(3) 0.000
N1 0.034(3) 0.044(3) 0.025(2) 0.005(2) 0.002(2) 0.011(2)
N2 0.044 0.062 0.021 -0.005 -0.004 0.022
C1 0.035 0.058 0.025 -0.003 -0.004 0.017
C2 0.057 0.05 0.028 -0.003 -0.012 0.019
C3 0.06 0.119 0.027 0.008 0.007 0.055
C4 0.062 0.106 0.021 0.002 0 0.044
C5 0.061 0.061 0.025 -0.014 -0.013 0.033
S1 0.0412 0.047 0.0207 0.0081 0.0067 0.0123
C6 0.032 0.026 0.018 0.002 0 -0.003
C7 0.031 0.027 0.019 -0.001 0.001 -0.001
C8 0.029 0.027 0.022 0.001 -0.003 0.001
S2 0.0291 0.0263 0.0254 0.0015 0.0006 0.0008
C9 0.039 0.032 0.022 0.005 -0.001 0
C10 0.034 0.032 0.022 0.001 0.004 -0.002
C11 0.04 0.034 0.022 0.002 0.004 -0.001
C12 0.056 0.052 0.03 0.012 0.012 0.003
C13 0.063 0.083 0.068 0.04 0.034 0.02
C14 0.126 0.152 0.027 0.013 -0.001 -0.027
C15 0.081 0.058 0.059 0.029 0.026 0.004
N1N 0.034 0.044 0.025 -0.005 0.002 -0.011
S2K 0.0263 0.0291 0.0254 0.0006 -0.0015 -0.0008
C8I 0.027 0.029 0.022 0.003 0.001 -0.001
C7K 0.027 0.031 0.019 0.001 0.001 0.001
C6I 0.026 0.032 0.018 0 0.002 0.003
C10I 0.032 0.034 0.022 -0.004 0.001 0.002
C6K 0.026 0.032 0.018 0 -0.002 0.003
C9K 0.032 0.039 0.022 -0.001 -0.005 0
C7I 0.027 0.031 0.019 -0.001 -0.001 0.001
S1I 0.047 0.0412 0.0207 -0.0067 0.0081 -0.0123
C11I 0.034 0.04 0.022 -0.004 0.002 0.001
C8K 0.027 0.029 0.022 -0.003 -0.001 -0.001
S1K 0.047 0.0412 0.0207 0.0067 -0.0081 -0.0123
C11K 0.034 0.04 0.022 0.004 -0.002 0.001
S2I 0.0263(7) 0.0291(7) 0.0254(6) -0.0006(6) 0.0015(5) -0.0008(5)
C9I 0.032 0.039 0.022 0.001 0.005 0
C5I 0.061 0.061 0.025 0.013 -0.014 -0.033
C12I 0.052 0.056 0.03 -0.012 0.012 -0.003
S2B 0.0291 0.0263 0.0254 -0.0015 -0.0006 0.0008
C10K 0.032 0.034 0.022 0.004 -0.001 0.002
C5K 0.061 0.061 0.025 -0.013 0.014 -0.033
C12K 0.052 0.056 0.03 0.012 -0.012 -0.003
C8B 0.029(3) 0.027(3) 0.022(2) -0.001(2) 0.003(2) 0.001(2)
C2I 0.05 0.057 0.028 0.012 -0.003 -0.019
C15I 0.058 0.081 0.059 -0.026 0.029 -0.004
C14I 0.152 0.126 0.027 0.001 0.013 0.027
C13I 0.083 0.063 0.068 -0.034 0.04 -0.02
C7B 0.031(3) 0.027(3) 0.019(3) 0.001(2) -0.001(2) -0.001(2)
C2K 0.05 0.057 0.028 -0.012 0.003 -0.019
C15K 0.058 0.081 0.059 0.026 -0.029 -0.004
C14K 0.152 0.126 0.027 -0.001 -0.013 0.027
C13K 0.083 0.063 0.068 0.034 -0.04 -0.02
C10B 0.034(3) 0.032(3) 0.022(3) -0.001(2) -0.004(2) -0.002(2)
C6B 0.032(3) 0.026(3) 0.018(2) -0.002(2) 0.000(2) -0.003(2)
N2I 0.062 0.044 0.021 0.004 -0.005 -0.022
C9B 0.039(3) 0.032(3) 0.022(3) -0.005(2) 0.001(2) 0.000(3)
N2K 0.062 0.044 0.021 -0.004 0.005 -0.022
C11B 0.040(4) 0.034(3) 0.022(3) -0.002(2) -0.004(2) -0.001(3)
S1B 0.0412(9) 0.0470(9) 0.0207(6) -0.0081(7) -0.0067(6) 0.0123(7)
C3I 0.119 0.06 0.027 -0.007 0.008 -0.055
N1G 0.044 0.034 0.025 0.002 -0.005 -0.011
N1E 0.044 0.034 0.025 -0.002 0.005 -0.011
C3K 0.119 0.06 0.027 0.007 -0.008 -0.055
C12B 0.056(5) 0.052(5) 0.030(3) -0.012(3) -0.012(3) 0.003(4)
C5B 0.061(5) 0.061(5) 0.025(3) 0.014(3) 0.013(3) 0.033(4)
C4I 0.106 0.062 0.021 0 0.002 -0.044
C1I 0.058 0.035 0.025 0.004 -0.003 -0.017
Ag1G 0.0424 0.0456 0.0278 -0.007 0 0
C1K 0.058 0.035 0.025 -0.004 0.003 -0.017
Ag1E 0.0424 0.0456 0.0278 0.007 0 0
C4K 0.106 0.062 0.021 0 -0.002 -0.044
C14B 0.126(12) 0.152(14) 0.027(4) -0.013(7) 0.001(6) -0.027(10)
C13B 0.063(6) 0.083(8) 0.068(7) -0.040(6) -0.034(5) 0.020(5)
C15B 0.081(7) 0.058(6) 0.059(6) -0.029(5) -0.026(5) 0.004(5)
C2B 0.057(5) 0.050(4) 0.028(3) 0.003(3) 0.012(3) 0.019(4)
N2B 0.044(3) 0.062(4) 0.021(2) 0.005(3) 0.004(2) 0.022(3)
N1L 0.034(3) 0.044(3) 0.025(2) 0.005(2) 0.002(2) 0.011(2)
C3B 0.060(5) 0.119(9) 0.027(4) -0.008(5) -0.007(4) 0.055(6)
C1B 0.035(3) 0.058(5) 0.025(3) 0.003(3) 0.004(3) 0.017(3)
Ag1B 0.0456(4) 0.0424(4) 0.0278(3) 0.000 -0.0070(3) 0.000
C4B 0.062(5) 0.106(8) 0.021(3) -0.002(4) 0.000(3) 0.044(6)
N1B 0.034 0.044 0.025 -0.005 0.002 -0.011
As1 0.0402(5) 0.0357(5) 0.0236(4) 0.000 -0.0023(4) 0.000
F1 0.054(5) 0.312(17) 0.264(15) -0.249(15) 0.049(7) -0.053(8)
F2 0.040(2) 0.075(3) 0.045(3) -0.005(3) 0.005(2) -0.016(2)
F3 0.080(6) 0.260(15) 0.262(17) 0.204(14) -0.043(9) -0.039(8)
F1N 0.054 0.312 0.264 0.249 0.049 0.053
F2N 0.04 0.075 0.045 0.005 0.005 0.016
F3N 0.08 0.26 0.262 -0.204 -0.043 0.039
O1 0.055(5) 0.077(6) 0.279(17) 0.044(8) -0.032(8) -0.045(5)
O2 0.158(18) 0.32(3) 0.055(8) 0.000 0.000 0.13(2)
loop_
_geom_bond_atom_site_label_1
_geom_bond_atom_site_label_2
_geom_bond_site_symmetry_1
_geom_bond_site_symmetry_2
Ag1 N1 1_555 1_555
N2 C2 1_555 1_555
C1 C4 1_555 1_555
C2 C5 1_555 1_555
C3 N2 1_555 1_555
C4 C3 1_555 1_555
H1 C1 1_555 1_555
C5 S1 1_555 1_555
H2 C2 1_555 1_555
H3 C2 1_555 1_555
H4 C3 1_555 1_555
H5 C4 1_555 1_555
S1 C6 1_555 1_555
H6 C5 1_555 1_555
H7 C5 1_555 1_555
C6 C7 1_555 1_555
C7 S2 1_555 1_555
C8 C6 1_555 1_555
S2 C8I 1_555 1_555
C9 C7 1_555 1_555
C10 C8 1_555 1_555
C11 C9 1_555 1_555
H8 C9 1_555 1_555
H9 C10 1_555 1_555
C12 C11 1_555 1_555
C13 C12 1_555 1_555
C14 C12 1_555 1_555
C15 C12 1_555 1_555
H10 C13 1_555 1_555
H11 C13 1_555 1_555
H12 C13 1_555 1_555
H13 C14 1_555 1_555
H14 C14 1_555 1_555
H15 C14 1_555 1_555
H16 C15 1_555 1_555
H17 C15 1_555 1_555
H18 C15 1_555 1_555
As1 F1 1_555 1_555
F2 As1 1_555 1_555
F3 As1 1_555 1_555
N1N Ag1 1_555 1_555
S2K C8 1_555 1_555
C8I C6I 1_555 1_555
C7K S2K 1_555 1_555
C6I C7I 1_555 1_555
C10I C8I 1_555 1_555
C6K C7K 1_555 1_555
C9K C7K 1_555 1_555
C7I S2I 1_555 1_555
S1I C6I 1_555 1_555
C11I C10I 1_555 1_555
H9I C10I 1_555 1_555
C8K C6K 1_555 1_555
S1K C6K 1_555 1_555
H8K C9K 1_555 1_555
C11K C9K 1_555 1_555
S2I C8B 1_555 1_555
C9I C7I 1_555 1_555
C5I S1I 1_555 1_555
C12I C11I 1_555 1_555
S2B C8K 1_555 1_555
C10K C8K 1_555 1_555
C5K S1K 1_555 1_555
C12K C11K 1_555 1_555
C8B C10B 1_555 1_555
H8I C9I 1_555 1_555
H6I C5I 1_555 1_555
H7I C5I 1_555 1_555
C2I C5I 1_555 1_555
C15I C12I 1_555 1_555
C14I C12I 1_555 1_555
C13I C12I 1_555 1_555
C7B S2B 1_555 1_555
H9K C10K 1_555 1_555
C2K C5K 1_555 1_555
H6K C5K 1_555 1_555
H7K C5K 1_555 1_555
C15K C12K 1_555 1_555
C14K C12K 1_555 1_555
C13K C12K 1_555 1_555
C10B H9B 1_555 1_555
C6B C8B 1_555 1_555
H3I C2I 1_555 1_555
N2I C2I 1_555 1_555
H2I C2I 1_555 1_555
H16I C15I 1_555 1_555
H17I C15I 1_555 1_555
H18I C15I 1_555 1_555
H13I C14I 1_555 1_555
H14I C14I 1_555 1_555
H15I C14I 1_555 1_555
H10I C13I 1_555 1_555
H11I C13I 1_555 1_555
H12I C13I 1_555 1_555
C9B C7B 1_555 1_555
N2K C2K 1_555 1_555
H2K C2K 1_555 1_555
H3K C2K 1_555 1_555
H17K C15K 1_555 1_555
H18K C15K 1_555 1_555
H16K C15K 1_555 1_555
H14K C14K 1_555 1_555
H15K C14K 1_555 1_555
H13K C14K 1_555 1_555
H12K C13K 1_555 1_555
H11K C13K 1_555 1_555
H10K C13K 1_555 1_555
C11B C10B 1_555 1_555
S1B C6B 1_555 1_555
C3I N2I 1_555 1_555
N1G N2I 1_555 1_555
H8B C9B 1_555 1_555
N1E N2K 1_555 1_555
C3K N2K 1_555 1_555
C12B C11B 1_555 1_555
C5B S1B 1_555 1_555
C4I C3I 1_555 1_555
H4I C3I 1_555 1_555
C1I N1G 1_555 1_555
Ag1G N1G 1_555 1_555
C1K N1E 1_555 1_555
Ag1E N1E 1_555 1_555
H4K C3K 1_555 1_555
C4K C3K 1_555 1_555
C14B C12B 1_555 1_555
C13B C12B 1_555 1_555
C15B C12B 1_555 1_555
C2B C5B 1_555 1_555
H7B C5B 1_555 1_555
H6B C5B 1_555 1_555
H5I C4I 1_555 1_555
H1I C1I 1_555 1_555
H1K C1K 1_555 1_555
H5K C4K 1_555 1_555
H13B C14B 1_555 1_555
H14B C14B 1_555 1_555
H15B C14B 1_555 1_555
H10B C13B 1_555 1_555
H11B C13B 1_555 1_555
H12B C13B 1_555 1_555
H16B C15B 1_555 1_555
H17B C15B 1_555 1_555
H18B C15B 1_555 1_555
H2B C2B 1_555 1_555
N2B C2B 1_555 1_555
H3B C2B 1_555 1_555
N1L N2B 1_555 1_555
C3B N2B 1_555 1_555
C1B N1L 1_555 1_555
Ag1B N1L 1_555 1_555
C4B C3B 1_555 1_555
H4B C3B 1_555 1_555
H1B C1B 1_555 1_555
N1B Ag1B 1_555 1_555
H5B C4B 1_555 1_555
F1N As1 1_555 1_555
F2N As1 1_555 1_555
F3N As1 1_555 1_555
N2 N1N 1_555 1_555
C1 N1N 1_555 1_555
C10 C11 1_555 1_555
C11I C9I 1_555 1_555
C11K C10K 1_555 1_555
C7B C6B 1_555 1_555
C9B C11B 1_555 1_555
C4I C1I 1_555 1_555
C1K C4K 1_555 1_555
C1B C4B 1_555 1_555

#END
