
#######################################################################
#
#                 Cambridge Crystallographic Data Centre
#                                CCDC 
#
#######################################################################
#
# If this CIF has been generated from an entry in the Cambridge 
# Structural Database, then it will include bibliographic, chemical, 
# crystal, experimental, refinement or atomic coordinate data resulting 
# from the CCDC's data processing and validation procedures.
#
#######################################################################

data_FAGMEI
_chemical_formula_moiety         '(C60 H76 Ag2 F6 N8 O2 P1 S8 1+)n'
_symmetry_cell_setting           tetragonal
_symmetry_space_group_name_H-M   'I -4 2 d'
_symmetry_Int_Tables_number      122
_space_group_name_Hall           'I -4 2bw'
loop_
_symmetry_equiv_pos_site_id
_symmetry_equiv_pos_as_xyz
1 x,y,z
2 -x,-y,z
3 y,-x,-z
4 -y,x,-z
5 1/2-x,y,3/4-z
6 1/2+x,-y,3/4-z
7 1/2-y,-x,3/4+z
8 1/2+y,x,3/4+z
9 1/2+x,1/2+y,1/2+z
10 1/2-x,1/2-y,1/2+z
11 1/2+y,1/2-x,1/2-z
12 1/2-y,1/2+x,1/2-z
13 -x,1/2+y,1/4-z
14 x,1/2-y,1/4-z
15 -y,1/2-x,1/4+z
16 y,1/2+x,1/4+z
_cell_length_a                   24.2538(9)
_cell_length_b                   24.2538(9)
_cell_length_c                   13.6809(5)
_cell_angle_alpha                90
_cell_angle_beta                 90
_cell_angle_gamma                90
_cell_volume                     8047.75
loop_
_atom_site_label
_atom_site_type_symbol
_atom_site_fract_x
_atom_site_fract_y
_atom_site_fract_z
_atom_site_U_iso_or_equiv
_atom_site_thermal_displace_type
Ag1 Ag 0.2500 0.07766(3) 0.3750 0.0371 Uani
S1 S 0.16197(5) 0.02224(5) 0.49709(10) 0.0261 Uani
C1 C 0.1140(2) 0.0681(2) 0.5508(4) 0.0257 Uani
C2 C 0.0678(2) 0.0891(2) 0.5022(4) 0.0240 Uani
C3 C 0.0351(2) 0.1271(2) 0.5530(4) 0.0250 Uani
C4 C 0.0510(2) 0.1464(2) 0.6451(4) 0.0283 Uani
H1 H 0.0281 0.1722 0.6781 0.0340 Uiso
C5 C 0.0991(2) 0.1292(2) 0.6893(4) 0.0310 Uani
C6 C 0.1297(2) 0.0881(2) 0.6433(4) 0.0287 Uani
H2 H 0.1615 0.0735 0.6745 0.0340 Uiso
S2 S 0.05290(6) 0.06894(6) 0.38121(11) 0.0351 Uani
C7 C 0.0682(3) 0.1339(3) 0.3211(5) 0.0457 Uani
H3 H 0.0507 0.1340 0.2557 0.0550 Uiso
H4 H 0.0517 0.1643 0.3595 0.0550 Uiso
C8 C 0.1295(3) 0.1450(3) 0.3092(5) 0.0447 Uani
H5 H 0.1351 0.1845 0.2939 0.0530 Uiso
H6 H 0.1484 0.1370 0.3717 0.0530 Uiso
N1 N 0.1543(2) 0.1113(3) 0.2312(4) 0.0400 Uani
N2 N 0.2018(2) 0.0829(2) 0.2431(4) 0.0350 Uani
C9 C 0.2129(3) 0.0612(3) 0.1566(5) 0.0370 Uani
H7 H 0.2440 0.0387 0.1430 0.0440 Uiso
C10 C 0.1730(3) 0.0758(4) 0.0882(5) 0.0550 Uani
H8 H 0.1711 0.0655 0.0212 0.0660 Uiso
C11 C 0.1372(4) 0.1083(4) 0.1393(6) 0.0627 Uani
H9 H 0.1054 0.1259 0.1133 0.0750 Uiso
C12 C 0.1157(3) 0.1529(3) 0.7889(5) 0.0433 Uani
C13 C 0.1064(4) 0.2151(3) 0.7897(8) 0.0660 Uani
H10 H 0.1288 0.2322 0.7384 0.0990 Uiso
H11 H 0.1171 0.2300 0.8535 0.0990 Uiso
H12 H 0.0674 0.2229 0.7776 0.0990 Uiso
C14 C 0.0783(5) 0.1265(6) 0.8682(7) 0.0843 Uani
H13 H 0.0396 0.1312 0.8498 0.1260 Uiso
H14 H 0.0851 0.1445 0.9312 0.1260 Uiso
H15 H 0.0868 0.0871 0.8735 0.1260 Uiso
C15 C 0.1764(3) 0.1421(4) 0.8120(7) 0.0617 Uani
H16 H 0.1819 0.1026 0.8236 0.0920 Uiso
H17 H 0.1869 0.1628 0.8706 0.0920 Uiso
H18 H 0.1992 0.1540 0.7567 0.0920 Uiso
S1B S 0.02224(5) -0.16197(5) 0.50291(10) 0.0261 Uani
C1B C 0.0681(2) -0.1140(2) 0.4492(4) 0.0257 Uani
C2B C 0.0891(2) -0.0678(2) 0.4978(4) 0.0240 Uani
C3B C 0.1271(2) -0.0351(2) 0.4470(4) 0.0250 Uani
C4B C 0.1464(2) -0.0510(2) 0.3549(4) 0.0283 Uani
H1B H 0.1722 -0.0281 0.3219 0.0340 Uiso
C5B C 0.1292(2) -0.0991(2) 0.3107(4) 0.0310 Uani
C6B C 0.0881(2) -0.1297(2) 0.3567(4) 0.0287 Uani
H2B H 0.0735 -0.1615 0.3255 0.0340 Uiso
S2B S 0.06894(6) -0.05290(6) 0.61879(11) 0.0351 Uani
C7B C 0.1339(3) -0.0682(3) 0.6789(5) 0.0457 Uani
H3B H 0.1340 -0.0507 0.7443 0.0550 Uiso
H4B H 0.1643 -0.0517 0.6405 0.0550 Uiso
C8B C 0.1450(3) -0.1295(3) 0.6908(5) 0.0447 Uani
H5B H 0.1845 -0.1351 0.7061 0.0530 Uiso
H6B H 0.1370 -0.1484 0.6283 0.0530 Uiso
N1B N 0.1113(3) -0.1543(2) 0.7688(4) 0.0400 Uani
N2B N 0.0829(2) -0.2018(2) 0.7569(4) 0.0350 Uani
C9B C 0.0612(3) -0.2129(3) 0.8434(5) 0.0370 Uani
H7B H 0.0387 -0.2440 0.8570 0.0440 Uiso
C10B C 0.0758(4) -0.1730(3) 0.9118(5) 0.0550 Uani
H8B H 0.0655 -0.1711 0.9788 0.0660 Uiso
C11B C 0.1083(4) -0.1372(4) 0.8607(6) 0.0627 Uani
H9B H 0.1259 -0.1054 0.8867 0.0750 Uiso
C12B C 0.1529(3) -0.1157(3) 0.2111(5) 0.0433 Uani
C13B C 0.2151(3) -0.1064(4) 0.2103(8) 0.0660 Uani
H10B H 0.2322 -0.1288 0.2616 0.0990 Uiso
H11B H 0.2300 -0.1171 0.1465 0.0990 Uiso
H12B H 0.2229 -0.0674 0.2224 0.0990 Uiso
C14B C 0.1265(6) -0.0783(5) 0.1318(7) 0.0843 Uani
H13B H 0.1312 -0.0396 0.1502 0.1260 Uiso
H14B H 0.1445 -0.0851 0.0688 0.1260 Uiso
H15B H 0.0871 -0.0868 0.1265 0.1260 Uiso
C15B C 0.1421(4) -0.1764(3) 0.1880(7) 0.0617 Uani
H16B H 0.1026 -0.1819 0.1764 0.0920 Uiso
H17B H 0.1628 -0.1869 0.1294 0.0920 Uiso
H18B H 0.1540 -0.1992 0.2433 0.0920 Uiso
S1C S -0.02224(5) 0.16197(5) 0.50291(10) 0.0261 Uani
C1C C -0.0681(2) 0.1140(2) 0.4492(4) 0.0257 Uani
C2C C -0.0891(2) 0.0678(2) 0.4978(4) 0.0240 Uani
C3C C -0.1271(2) 0.0351(2) 0.4470(4) 0.0250 Uani
C4C C -0.1464(2) 0.0510(2) 0.3549(4) 0.0283 Uani
H1C H -0.1722 0.0281 0.3219 0.0340 Uiso
C5C C -0.1292(2) 0.0991(2) 0.3107(4) 0.0310 Uani
C6C C -0.0881(2) 0.1297(2) 0.3567(4) 0.0287 Uani
H2C H -0.0735 0.1615 0.3255 0.0340 Uiso
S2C S -0.06894(6) 0.05290(6) 0.61879(11) 0.0351 Uani
C7C C -0.1339(3) 0.0682(3) 0.6789(5) 0.0457 Uani
H3C H -0.1340 0.0507 0.7443 0.0550 Uiso
H4C H -0.1643 0.0517 0.6405 0.0550 Uiso
C8C C -0.1450(3) 0.1295(3) 0.6908(5) 0.0447 Uani
H5C H -0.1845 0.1351 0.7061 0.0530 Uiso
H6C H -0.1370 0.1484 0.6283 0.0530 Uiso
N1C N -0.1113(3) 0.1543(2) 0.7688(4) 0.0400 Uani
N2C N -0.0829(2) 0.2018(2) 0.7569(4) 0.0350 Uani
C9C C -0.0612(3) 0.2129(3) 0.8434(5) 0.0370 Uani
H7C H -0.0387 0.2440 0.8570 0.0440 Uiso
C10C C -0.0758(4) 0.1730(3) 0.9118(5) 0.0550 Uani
H8C H -0.0655 0.1711 0.9788 0.0660 Uiso
C11C C -0.1083(4) 0.1372(4) 0.8607(6) 0.0627 Uani
H9C H -0.1259 0.1054 0.8867 0.0750 Uiso
C12C C -0.1529(3) 0.1157(3) 0.2111(5) 0.0433 Uani
C13C C -0.2151(3) 0.1064(4) 0.2103(8) 0.0660 Uani
H10C H -0.2322 0.1288 0.2616 0.0990 Uiso
H11C H -0.2300 0.1171 0.1465 0.0990 Uiso
H12C H -0.2229 0.0674 0.2224 0.0990 Uiso
C14C C -0.1265(6) 0.0783(5) 0.1318(7) 0.0843 Uani
H13C H -0.1312 0.0396 0.1502 0.1260 Uiso
H14C H -0.1445 0.0851 0.0688 0.1260 Uiso
H15C H -0.0871 0.0868 0.1265 0.1260 Uiso
C15C C -0.1421(4) 0.1764(3) 0.1880(7) 0.0617 Uani
H16C H -0.1026 0.1819 0.1764 0.0920 Uiso
H17C H -0.1628 0.1869 0.1294 0.0920 Uiso
H18C H -0.1540 0.1992 0.2433 0.0920 Uiso
S1A S -0.16197(5) -0.02224(5) 0.49709(10) 0.0261 Uani
C1A C -0.1140(2) -0.0681(2) 0.5508(4) 0.0257 Uani
C2A C -0.0678(2) -0.0891(2) 0.5022(4) 0.0240 Uani
C3A C -0.0351(2) -0.1271(2) 0.5530(4) 0.0250 Uani
C4A C -0.0510(2) -0.1464(2) 0.6451(4) 0.0283 Uani
H1A H -0.0281 -0.1722 0.6781 0.0340 Uiso
C5A C -0.0991(2) -0.1292(2) 0.6893(4) 0.0310 Uani
C6A C -0.1297(2) -0.0881(2) 0.6433(4) 0.0287 Uani
H2A H -0.1615 -0.0735 0.6745 0.0340 Uiso
S2A S -0.05290(6) -0.06894(6) 0.38121(11) 0.0351 Uani
C7A C -0.0682(3) -0.1339(3) 0.3211(5) 0.0457 Uani
H3A H -0.0507 -0.1340 0.2557 0.0550 Uiso
H4A H -0.0517 -0.1643 0.3595 0.0550 Uiso
C8A C -0.1295(3) -0.1450(3) 0.3092(5) 0.0447 Uani
H5A H -0.1351 -0.1845 0.2939 0.0530 Uiso
H6A H -0.1484 -0.1370 0.3717 0.0530 Uiso
N1A N -0.1543(2) -0.1113(3) 0.2312(4) 0.0400 Uani
N2A N -0.2018(2) -0.0829(2) 0.2431(4) 0.0350 Uani
C9A C -0.2129(3) -0.0612(3) 0.1566(5) 0.0370 Uani
H7A H -0.2440 -0.0387 0.1430 0.0440 Uiso
C10A C -0.1730(3) -0.0758(4) 0.0882(5) 0.0550 Uani
H8A H -0.1711 -0.0655 0.0212 0.0660 Uiso
C11A C -0.1372(4) -0.1083(4) 0.1393(6) 0.0627 Uani
H9A H -0.1054 -0.1259 0.1133 0.0750 Uiso
C12A C -0.1157(3) -0.1529(3) 0.7889(5) 0.0433 Uani
C13A C -0.1064(4) -0.2151(3) 0.7897(8) 0.0660 Uani
H10A H -0.1288 -0.2322 0.7384 0.0990 Uiso
H11A H -0.1171 -0.2300 0.8535 0.0990 Uiso
H12A H -0.0674 -0.2229 0.7776 0.0990 Uiso
C14A C -0.0783(5) -0.1265(6) 0.8682(7) 0.0843 Uani
H13A H -0.0396 -0.1312 0.8498 0.1260 Uiso
H14A H -0.0851 -0.1445 0.9312 0.1260 Uiso
H15A H -0.0868 -0.0871 0.8735 0.1260 Uiso
C15A C -0.1764(3) -0.1421(4) 0.8120(7) 0.0617 Uani
H16A H -0.1819 -0.1026 0.8236 0.0920 Uiso
H17A H -0.1869 -0.1628 0.8706 0.0920 Uiso
H18A H -0.1992 -0.1540 0.7567 0.0920 Uiso
Ag1A Ag -0.2500 -0.07766(3) 0.3750 0.0371 Uani
Ag1B Ag 0.07766(3) -0.2500 0.6250 0.0371 Uani
Ag1C Ag -0.07766(3) 0.2500 0.6250 0.0371 Uani
S1D S 0.33803(5) 0.02224(5) 0.25291(10) 0.0261 Uani
S1E S -0.33803(5) -0.02224(5) 0.25291(10) 0.0261 Uani
N2D N 0.2982(2) 0.0829(2) 0.5069(4) 0.0350 Uani
N2E N -0.2982(2) -0.0829(2) 0.5069(4) 0.0350 Uani
P1 P 0.7500 0.47173(8) 0.3750 0.0331 Uani
F1 F 0.7590(3) 0.5122(5) 0.4578(8) 0.1730 Uani
F2 F 0.68481(17) 0.4727(2) 0.3940(4) 0.0577 Uani
F3 F 0.7583(4) 0.4268(6) 0.4542(11) 0.1953 Uani
F1D F 0.7410(3) 0.5122(5) 0.2922(8) 0.1730 Uani
F2D F 0.81519(17) 0.4727(2) 0.3560(4) 0.0577 Uani
F3D F 0.7417(4) 0.4268(6) 0.2958(11) 0.1953 Uani
O1 O 0.2495(3) 0.2182(3) 0.2208(12) 0.1460 Uani
O2 O 0.0000 0.0000 0.1775(10) 0.1220 Uani
loop_
_atom_site_aniso_label
_atom_site_aniso_U_11
_atom_site_aniso_U_22
_atom_site_aniso_U_33
_atom_site_aniso_U_23
_atom_site_aniso_U_13
_atom_site_aniso_U_12
Ag1 0.0431(4) 0.0413(3) 0.0270(3) 0.000 -0.0065(2) 0.000
S1 0.0252(5) 0.0273(5) 0.0259(6) -0.0011(5) 0.0013(4) -0.0008(4)
C1 0.028(2) 0.025(2) 0.024(3) 0.0006(18) 0.0007(18) 0.0004(17)
C2 0.028(2) 0.029(2) 0.015(2) -0.0009(17) -0.0024(17) -0.0001(17)
C3 0.028(2) 0.025(2) 0.022(2) 0.0004(17) -0.0034(18) 0.0004(16)
C4 0.035(2) 0.030(2) 0.020(3) -0.0039(18) -0.0027(18) 0.0016(19)
C5 0.037(3) 0.033(2) 0.023(3) -0.004(2) -0.006(2) -0.003(2)
C6 0.027(2) 0.032(2) 0.027(3) -0.0020(19) -0.0041(18) 0.0014(18)
S2 0.0402(7) 0.0437(7) 0.0214(7) -0.0077(6) -0.0068(5) 0.0103(5)
C7 0.056(4) 0.060(4) 0.021(3) 0.009(3) 0.007(3) 0.029(3)
C8 0.060(4) 0.048(3) 0.026(3) 0.001(2) 0.014(3) 0.018(3)
N1 0.045(3) 0.055(3) 0.020(2) 0.001(2) 0.004(2) 0.024(2)
N2 0.035(2) 0.043(3) 0.027(3) 0.004(2) 0.0014(19) 0.010(2)
C9 0.036(3) 0.049(3) 0.026(3) 0.003(2) 0.004(2) 0.012(2)
C10 0.054(4) 0.088(6) 0.023(3) -0.002(3) 0.000(3) 0.034(4)
C11 0.061(4) 0.102(7) 0.025(4) -0.001(4) -0.002(3) 0.047(5)
C12 0.052(4) 0.051(4) 0.027(3) -0.015(3) -0.013(3) 0.007(3)
C13 0.082(6) 0.051(4) 0.065(6) -0.030(4) -0.034(5) 0.015(4)
C14 0.092(7) 0.134(10) 0.027(4) -0.009(6) -0.005(5) -0.007(7)
C15 0.051(4) 0.076(5) 0.058(5) -0.034(4) -0.026(4) 0.011(4)
S1B 0.0273 0.0252 0.0259 0.0013 0.0011 0.0008
C1B 0.025 0.028 0.024 0.0007 -0.0006 -0.0004
C2B 0.029 0.028 0.015 -0.0024 0.0009 0.0001
C3B 0.025 0.028 0.022 -0.0034 -0.0004 -0.0004
C4B 0.03 0.035 0.02 -0.0027 0.0039 -0.0016
C5B 0.033 0.037 0.023 -0.006 0.004 0.003
C6B 0.032 0.027 0.027 -0.0041 0.002 -0.0014
S2B 0.0437 0.0402 0.0214 -0.0068 0.0077 -0.0103
C7B 0.06 0.056 0.021 0.007 -0.009 -0.029
C8B 0.048 0.06 0.026 0.014 -0.001 -0.018
N1B 0.055 0.045 0.02 0.004 -0.001 -0.024
N2B 0.043 0.035 0.027 0.0014 -0.004 -0.01
C9B 0.049 0.036 0.026 0.004 -0.003 -0.012
C10B 0.088 0.054 0.023 0 0.002 -0.034
C11B 0.102 0.061 0.025 -0.002 0.001 -0.047
C12B 0.051 0.052 0.027 -0.013 0.015 -0.007
C13B 0.051 0.082 0.065 -0.034 0.03 -0.015
C14B 0.134 0.092 0.027 -0.005 0.009 0.007
C15B 0.076 0.051 0.058 -0.026 0.034 -0.011
S1C 0.0273 0.0252 0.0259 -0.0013 -0.0011 0.0008
C1C 0.025 0.028 0.024 -0.0007 0.0006 -0.0004
C2C 0.029 0.028 0.015 0.0024 -0.0009 0.0001
C3C 0.025 0.028 0.022 0.0034 0.0004 -0.0004
C4C 0.03 0.035 0.02 0.0027 -0.0039 -0.0016
C5C 0.033 0.037 0.023 0.006 -0.004 0.003
C6C 0.032 0.027 0.027 0.0041 -0.002 -0.0014
S2C 0.0437 0.0402 0.0214 0.0068 -0.0077 -0.0103
C7C 0.06 0.056 0.021 -0.007 0.009 -0.029
C8C 0.048 0.06 0.026 -0.014 0.001 -0.018
N1C 0.055 0.045 0.02 -0.004 0.001 -0.024
N2C 0.043 0.035 0.027 -0.0014 0.004 -0.01
C9C 0.049 0.036 0.026 -0.004 0.003 -0.012
C10C 0.088 0.054 0.023 0 -0.002 -0.034
C11C 0.102 0.061 0.025 0.002 -0.001 -0.047
C12C 0.051 0.052 0.027 0.013 -0.015 -0.007
C13C 0.051 0.082 0.065 0.034 -0.03 -0.015
C14C 0.134 0.092 0.027 0.005 -0.009 0.007
C15C 0.076 0.051 0.058 0.026 -0.034 -0.011
S1A 0.0252 0.0273 0.0259 0.0011 -0.0013 -0.0008
C1A 0.028 0.025 0.024 -0.0006 -0.0007 0.0004
C2A 0.028 0.029 0.015 0.0009 0.0024 -0.0001
C3A 0.028 0.025 0.022 -0.0004 0.0034 0.0004
C4A 0.035 0.03 0.02 0.0039 0.0027 0.0016
C5A 0.037 0.033 0.023 0.004 0.006 -0.003
C6A 0.027 0.032 0.027 0.002 0.0041 0.0014
S2A 0.0402 0.0437 0.0214 0.0077 0.0068 0.0103
C7A 0.056 0.06 0.021 -0.009 -0.007 0.029
C8A 0.06 0.048 0.026 -0.001 -0.014 0.018
N1A 0.045 0.055 0.02 -0.001 -0.004 0.024
N2A 0.035 0.043 0.027 -0.004 -0.0014 0.01
C9A 0.036 0.049 0.026 -0.003 -0.004 0.012
C10A 0.054 0.088 0.023 0.002 0 0.034
C11A 0.061 0.102 0.025 0.001 0.002 0.047
C12A 0.052 0.051 0.027 0.015 0.013 0.007
C13A 0.082 0.051 0.065 0.03 0.034 0.015
C14A 0.092 0.134 0.027 0.009 0.005 -0.007
C15A 0.051 0.076 0.058 0.034 0.026 0.011
Ag1A 0.0431 0.0413 0.027 0 0.0065 0
Ag1B 0.0413 0.0431 0.027 -0.0065 0 0
Ag1C 0.0413 0.0431 0.027 0.0065 0 0
S1D 0.0252 0.0273 0.0259 0.0011 0.0013 0.0008
S1E 0.0252 0.0273 0.0259 -0.0011 -0.0013 0.0008
N2D 0.035 0.043 0.027 -0.004 0.0014 -0.01
N2E 0.035 0.043 0.027 0.004 -0.0014 -0.01
P1 0.0375(9) 0.0346(9) 0.0271(10) 0.000 -0.0028(8) 0.000
F1 0.059(4) 0.244(12) 0.216(10) -0.193(10) 0.043(5) -0.046(6)
F2 0.037(2) 0.085(3) 0.051(3) -0.004(2) 0.0015(18) -0.016(2)
F3 0.093(6) 0.256(14) 0.237(15) 0.200(13) -0.052(8) -0.050(8)
F1D 0.059 0.244 0.216 0.193 0.043 0.046
F2D 0.037 0.085 0.051 0.004 0.0015 0.016
F3D 0.093 0.256 0.237 -0.2 -0.052 0.05
O1 0.051(4) 0.068(4) 0.319(18) 0.051(8) -0.028(7) -0.043(4)
O2 0.114(11) 0.188(17) 0.064(8) 0.000 0.000 0.052(12)
loop_
_geom_bond_atom_site_label_1
_geom_bond_atom_site_label_2
_geom_bond_site_symmetry_1
_geom_bond_site_symmetry_2
Ag1 S1 1_555 1_555
S1 C1 1_555 1_555
C1 C2 1_555 1_555
C2 C3 1_555 1_555
C3 C4 1_555 1_555
C4 H1 1_555 1_555
C5 C4 1_555 1_555
C6 C1 1_555 1_555
H2 C6 1_555 1_555
S2 C2 1_555 1_555
C7 S2 1_555 1_555
H3 C7 1_555 1_555
H4 C7 1_555 1_555
C8 C7 1_555 1_555
H5 C8 1_555 1_555
H6 C8 1_555 1_555
N1 C8 1_555 1_555
N2 Ag1 1_555 1_555
C9 N2 1_555 1_555
H7 C9 1_555 1_555
C10 C9 1_555 1_555
H8 C10 1_555 1_555
C11 N1 1_555 1_555
H9 C11 1_555 1_555
C12 C5 1_555 1_555
C13 C12 1_555 1_555
H10 C13 1_555 1_555
H11 C13 1_555 1_555
H12 C13 1_555 1_555
C14 C12 1_555 1_555
H13 C14 1_555 1_555
H14 C14 1_555 1_555
H15 C14 1_555 1_555
C15 C12 1_555 1_555
H16 C15 1_555 1_555
H17 C15 1_555 1_555
H18 C15 1_555 1_555
P1 F1 1_555 1_555
F2 P1 1_555 1_555
F3 P1 1_555 1_555
S1B C1B 1_555 1_555
C1B C2B 1_555 1_555
C2B C3B 1_555 1_555
C3B S1 1_555 1_555
C4B C3B 1_555 1_555
H1B C4B 1_555 1_555
C5B C4B 1_555 1_555
C6B C1B 1_555 1_555
H2B C6B 1_555 1_555
S2B C2B 1_555 1_555
C7B S2B 1_555 1_555
H3B C7B 1_555 1_555
H4B C7B 1_555 1_555
C8B C7B 1_555 1_555
H5B C8B 1_555 1_555
H6B C8B 1_555 1_555
N1B C8B 1_555 1_555
N2B N1B 1_555 1_555
C9B N2B 1_555 1_555
H7B C9B 1_555 1_555
C10B C9B 1_555 1_555
H8B C10B 1_555 1_555
C11B N1B 1_555 1_555
H9B C11B 1_555 1_555
C12B C5B 1_555 1_555
C13B C12B 1_555 1_555
H10B C13B 1_555 1_555
H11B C13B 1_555 1_555
H12B C13B 1_555 1_555
C14B C12B 1_555 1_555
H13B C14B 1_555 1_555
H14B C14B 1_555 1_555
H15B C14B 1_555 1_555
C15B C12B 1_555 1_555
H16B C15B 1_555 1_555
H17B C15B 1_555 1_555
H18B C15B 1_555 1_555
S1C C3 1_555 1_555
C1C S1C 1_555 1_555
C2C C1C 1_555 1_555
C3C C2C 1_555 1_555
C4C C3C 1_555 1_555
H1C C4C 1_555 1_555
C5C C4C 1_555 1_555
C6C C1C 1_555 1_555
H2C C6C 1_555 1_555
S2C C2C 1_555 1_555
C7C S2C 1_555 1_555
H3C C7C 1_555 1_555
H4C C7C 1_555 1_555
C8C C7C 1_555 1_555
H5C C8C 1_555 1_555
H6C C8C 1_555 1_555
N1C C8C 1_555 1_555
N2C N1C 1_555 1_555
C9C N2C 1_555 1_555
H7C C9C 1_555 1_555
C10C C9C 1_555 1_555
H8C C10C 1_555 1_555
C11C N1C 1_555 1_555
H9C C11C 1_555 1_555
C12C C5C 1_555 1_555
C13C C12C 1_555 1_555
H10C C13C 1_555 1_555
H11C C13C 1_555 1_555
H12C C13C 1_555 1_555
C14C C12C 1_555 1_555
H13C C14C 1_555 1_555
H14C C14C 1_555 1_555
H15C C14C 1_555 1_555
C15C C12C 1_555 1_555
H16C C15C 1_555 1_555
H17C C15C 1_555 1_555
H18C C15C 1_555 1_555
S1A C3C 1_555 1_555
C1A S1A 1_555 1_555
C2A C1A 1_555 1_555
C3A S1B 1_555 1_555
C4A C3A 1_555 1_555
H1A C4A 1_555 1_555
C5A C4A 1_555 1_555
C6A C1A 1_555 1_555
H2A C6A 1_555 1_555
S2A C2A 1_555 1_555
C7A S2A 1_555 1_555
H3A C7A 1_555 1_555
H4A C7A 1_555 1_555
C8A C7A 1_555 1_555
H5A C8A 1_555 1_555
H6A C8A 1_555 1_555
N1A C8A 1_555 1_555
N2A N1A 1_555 1_555
C9A N2A 1_555 1_555
H7A C9A 1_555 1_555
C10A C9A 1_555 1_555
H8A C10A 1_555 1_555
C11A N1A 1_555 1_555
H9A C11A 1_555 1_555
C12A C5A 1_555 1_555
C13A C12A 1_555 1_555
H10A C13A 1_555 1_555
H11A C13A 1_555 1_555
H12A C13A 1_555 1_555
C14A C12A 1_555 1_555
H13A C14A 1_555 1_555
H14A C14A 1_555 1_555
H15A C14A 1_555 1_555
C15A C12A 1_555 1_555
H16A C15A 1_555 1_555
H17A C15A 1_555 1_555
H18A C15A 1_555 1_555
Ag1A S1A 1_555 1_555
Ag1B S1B 1_555 1_555
Ag1C S1C 1_555 1_555
S1D Ag1 1_555 1_555
S1E Ag1A 1_555 1_555
N2D Ag1 1_555 1_555
N2E Ag1A 1_555 1_555
F1D P1 1_555 1_555
F2D P1 1_555 1_555
F3D P1 1_555 1_555
C5 C6 1_555 1_555
N1 N2 1_555 1_555
C10 C11 1_555 1_555
C5B C6B 1_555 1_555
N2B Ag1B 1_555 1_555
C10B C11B 1_555 1_555
C5C C6C 1_555 1_555
N2C Ag1C 1_555 1_555
C10C C11C 1_555 1_555
C2A C3A 1_555 1_555
C5A C6A 1_555 1_555
N2A Ag1A 1_555 1_555
C10A C11A 1_555 1_555

#END
