
#######################################################################
#
#                 Cambridge Crystallographic Data Centre
#                                CCDC 
#
#######################################################################
#
# If this CIF has been generated from an entry in the Cambridge 
# Structural Database, then it will include bibliographic, chemical, 
# crystal, experimental, refinement or atomic coordinate data resulting 
# from the CCDC's data processing and validation procedures.
#
#######################################################################

data_FAGMAE
_chemical_formula_moiety         '(C60 H76 Ag2 F6 N8 O2 S8 Sb1 1+)n'
_symmetry_cell_setting           tetragonal
_symmetry_space_group_name_H-M   'I -4 2 d'
_symmetry_Int_Tables_number      122
_space_group_name_Hall           'I -4 2bw'
loop_
_symmetry_equiv_pos_site_id
_symmetry_equiv_pos_as_xyz
1 x,y,z
2 -x,-y,z
3 y,-x,-z
4 -y,x,-z
5 1/2-x,y,3/4-z
6 1/2+x,-y,3/4-z
7 1/2-y,-x,3/4+z
8 1/2+y,x,3/4+z
9 1/2+x,1/2+y,1/2+z
10 1/2-x,1/2-y,1/2+z
11 1/2+y,1/2-x,1/2-z
12 1/2-y,1/2+x,1/2-z
13 -x,1/2+y,1/4-z
14 x,1/2-y,1/4-z
15 -y,1/2-x,1/4+z
16 y,1/2+x,1/4+z
_cell_length_a                   24.958(3)
_cell_length_b                   24.958(3)
_cell_length_c                   13.8496(19)
_cell_angle_alpha                90
_cell_angle_beta                 90
_cell_angle_gamma                90
_cell_volume                     8626.94
loop_
_atom_site_label
_atom_site_type_symbol
_atom_site_fract_x
_atom_site_fract_y
_atom_site_fract_z
_atom_site_U_iso_or_equiv
_atom_site_thermal_displace_type
Ag1 Ag 0.48877(9) 0.2500 0.6250 0.0643 Uani
S1 S 0.34270(12) 0.46965(12) 0.4927(3) 0.0360 Uani
C1 C 0.3937(3) 0.4276(3) 0.4472(6) 0.0353 Uani
C2 C 0.4376(3) 0.4082(3) 0.4980(5) 0.0320 Uani
C3 C 0.4728(3) 0.3725(3) 0.4540(6) 0.0310 Uani
C4 C 0.4641(4) 0.3563(4) 0.3593(6) 0.0520 Uani
H1 H 0.4881 0.3320 0.3293 0.0620 Uiso
C5 C 0.4201(4) 0.3758(5) 0.3085(6) 0.0937 Uani
C6 C 0.3849(4) 0.4114(4) 0.3525(7) 0.0583 Uani
H2 H 0.3549 0.4247 0.3177 0.0700 Uiso
S2 S 0.45034(13) 0.42611(16) 0.6230(3) 0.0469 Uani
C7 C 0.3928(7) 0.3984(9) 0.6854(14) 0.0597 Uani
H3 H 0.3875 0.4180 0.7468 0.0720 Uiso
H4 H 0.3605 0.4036 0.6452 0.0720 Uiso
C8 C 0.3992(9) 0.3411(8) 0.7063(12) 0.0627 Uani
H5 H 0.3645 0.3271 0.7297 0.0750 Uiso
H6 H 0.4076 0.3224 0.6450 0.0750 Uiso
N1 N 0.4400(7) 0.3273(7) 0.7761(12) 0.0653 Uani
N2 N 0.4777(5) 0.2901(4) 0.7620(9) 0.0397 Uani
C9 C 0.5054(8) 0.2857(7) 0.8405(11) 0.0503 Uani
H7 H 0.5357 0.2632 0.8492 0.0600 Uiso
C10 C 0.4837(13) 0.3194(10) 0.9100(17) 0.0940 Uani
H8 H 0.4954 0.3244 0.9747 0.1110 Uiso
C11 C 0.4416(11) 0.3439(11) 0.8645(15) 0.0873 Uani
H9 H 0.4176 0.3688 0.8930 0.1050 Uiso
C12 C 0.4130(7) 0.3635(8) 0.1982(15) 0.0937 Uani
C13 C 0.4290(8) 0.4116(7) 0.1390(14) 0.0937 Uani
H10 H 0.4558 0.4009 0.0911 0.1280 Uiso
H11 H 0.4442 0.4391 0.1815 0.1280 Uiso
H12 H 0.3974 0.4260 0.1060 0.1280 Uiso
C14 C 0.3530(6) 0.3481(9) 0.1799(15) 0.0937 Uani
H13 H 0.3513 0.3183 0.1340 0.1280 Uiso
H14 H 0.3339 0.3791 0.1534 0.1280 Uiso
H15 H 0.3364 0.3374 0.2410 0.1280 Uiso
C15 C 0.4469(8) 0.3154(8) 0.1657(14) 0.0937 Uani
H16 H 0.4418 0.2856 0.2109 0.1280 Uiso
H17 H 0.4848 0.3256 0.1645 0.1280 Uiso
H18 H 0.4357 0.3042 0.1009 0.1280 Uiso
S1B S 0.46965(12) 0.65730(12) 0.5073(3) 0.0360 Uani
C1B C 0.4276(3) 0.6063(3) 0.5528(6) 0.0353 Uani
C2B C 0.4082(3) 0.5624(3) 0.5020(5) 0.0320 Uani
C3B C 0.3725(3) 0.5272(3) 0.5460(6) 0.0310 Uani
C4B C 0.3563(4) 0.5359(4) 0.6407(6) 0.0520 Uani
H1B H 0.3320 0.5119 0.6707 0.0620 Uiso
C5B C 0.3758(5) 0.5799(4) 0.6915(6) 0.0937 Uani
C6B C 0.4114(4) 0.6151(4) 0.6475(7) 0.0583 Uani
H2B H 0.4247 0.6451 0.6823 0.0700 Uiso
S2B S 0.42611(16) 0.54966(13) 0.3770(3) 0.0469 Uani
C7B C 0.3984(9) 0.6072(7) 0.3146(14) 0.0597 Uani
H3B H 0.4180 0.6125 0.2532 0.0720 Uiso
H4B H 0.4036 0.6395 0.3548 0.0720 Uiso
C8B C 0.3411(8) 0.6008(9) 0.2937(12) 0.0627 Uani
H5B H 0.3271 0.6355 0.2703 0.0750 Uiso
H6B H 0.3224 0.5924 0.3550 0.0750 Uiso
N1B N 0.3273(7) 0.5600(7) 0.2239(12) 0.0653 Uani
N2B N 0.2901(4) 0.5223(5) 0.2380(9) 0.0397 Uani
C9B C 0.2857(7) 0.4946(8) 0.1595(11) 0.0503 Uani
H7B H 0.2632 0.4643 0.1508 0.0600 Uiso
C10B C 0.3194(10) 0.5163(13) 0.0900(17) 0.0940 Uani
H8B H 0.3244 0.5046 0.0253 0.1110 Uiso
C11B C 0.3439(11) 0.5584(11) 0.1355(15) 0.0873 Uani
H9B H 0.3688 0.5824 0.1070 0.1050 Uiso
C12B C 0.3635(8) 0.5870(7) 0.8018(15) 0.0937 Uani
C13B C 0.4116(7) 0.5710(8) 0.8610(14) 0.0937 Uani
H10B H 0.4009 0.5442 0.9089 0.1280 Uiso
H11B H 0.4391 0.5558 0.8185 0.1280 Uiso
H12B H 0.4260 0.6026 0.8940 0.1280 Uiso
C14B C 0.3481(9) 0.6470(6) 0.8201(15) 0.0937 Uani
H13B H 0.3183 0.6487 0.8660 0.1280 Uiso
H14B H 0.3791 0.6661 0.8466 0.1280 Uiso
H15B H 0.3374 0.6636 0.7590 0.1280 Uiso
C15B C 0.3154(8) 0.5531(8) 0.8343(14) 0.0937 Uani
H16B H 0.2856 0.5582 0.7891 0.1280 Uiso
H17B H 0.3256 0.5152 0.8355 0.1280 Uiso
H18B H 0.3042 0.5643 0.8991 0.1280 Uiso
S1C S 0.53035(12) 0.34270(12) 0.5073(3) 0.0360 Uani
C1C C 0.5724(3) 0.3937(3) 0.5528(6) 0.0353 Uani
C2C C 0.5918(3) 0.4376(3) 0.5020(5) 0.0320 Uani
C3C C 0.6275(3) 0.4728(3) 0.5460(6) 0.0310 Uani
C4C C 0.6437(4) 0.4641(4) 0.6407(6) 0.0520 Uani
H1C H 0.6680 0.4881 0.6707 0.0620 Uiso
C5C C 0.6242(5) 0.4201(4) 0.6915(6) 0.0937 Uani
C6C C 0.5886(4) 0.3849(4) 0.6475(7) 0.0583 Uani
H2C H 0.5753 0.3549 0.6823 0.0700 Uiso
S2C S 0.57389(16) 0.45034(13) 0.3770(3) 0.0469 Uani
C7C C 0.6016(9) 0.3928(7) 0.3146(14) 0.0597 Uani
H3C H 0.5820 0.3875 0.2532 0.0720 Uiso
H4C H 0.5964 0.3605 0.3548 0.0720 Uiso
C8C C 0.6589(8) 0.3992(9) 0.2937(12) 0.0627 Uani
H5C H 0.6729 0.3645 0.2703 0.0750 Uiso
H6C H 0.6776 0.4076 0.3550 0.0750 Uiso
N1C N 0.6727(7) 0.4400(7) 0.2239(12) 0.0653 Uani
N2C N 0.7099(4) 0.4777(5) 0.2380(9) 0.0397 Uani
C9C C 0.7143(7) 0.5054(8) 0.1595(11) 0.0503 Uani
H7C H 0.7368 0.5357 0.1508 0.0600 Uiso
C10C C 0.6806(10) 0.4837(13) 0.0900(17) 0.0940 Uani
H8C H 0.6756 0.4954 0.0253 0.1110 Uiso
C11C C 0.6561(11) 0.4416(11) 0.1355(15) 0.0873 Uani
H9C H 0.6312 0.4176 0.1070 0.1050 Uiso
C12C C 0.6365(8) 0.4130(7) 0.8018(15) 0.0937 Uani
C13C C 0.5884(7) 0.4290(8) 0.8610(14) 0.0937 Uani
H10C H 0.5991 0.4558 0.9089 0.1280 Uiso
H11C H 0.5609 0.4442 0.8185 0.1280 Uiso
H12C H 0.5740 0.3974 0.8940 0.1280 Uiso
C14C C 0.6519(9) 0.3530(6) 0.8201(15) 0.0937 Uani
H13C H 0.6817 0.3513 0.8660 0.1280 Uiso
H14C H 0.6209 0.3339 0.8466 0.1280 Uiso
H15C H 0.6626 0.3364 0.7590 0.1280 Uiso
C15C C 0.6846(8) 0.4469(8) 0.8343(14) 0.0937 Uani
H16C H 0.7144 0.4418 0.7891 0.1280 Uiso
H17C H 0.6744 0.4848 0.8355 0.1280 Uiso
H18C H 0.6958 0.4357 0.8991 0.1280 Uiso
S1A S 0.65730(12) 0.53035(12) 0.4927(3) 0.0360 Uani
C1A C 0.6063(3) 0.5724(3) 0.4472(6) 0.0353 Uani
C2A C 0.5624(3) 0.5918(3) 0.4980(5) 0.0320 Uani
C3A C 0.5272(3) 0.6275(3) 0.4540(6) 0.0310 Uani
C4A C 0.5359(4) 0.6437(4) 0.3593(6) 0.0520 Uani
H1A H 0.5119 0.6680 0.3293 0.0620 Uiso
C5A C 0.5799(4) 0.6242(5) 0.3085(6) 0.0937 Uani
C6A C 0.6151(4) 0.5886(4) 0.3525(7) 0.0583 Uani
H2A H 0.6451 0.5753 0.3177 0.0700 Uiso
S2A S 0.54966(13) 0.57389(16) 0.6230(3) 0.0469 Uani
C7A C 0.6072(7) 0.6016(9) 0.6854(14) 0.0597 Uani
H3A H 0.6125 0.5820 0.7468 0.0720 Uiso
H4A H 0.6395 0.5964 0.6452 0.0720 Uiso
C8A C 0.6008(9) 0.6589(8) 0.7063(12) 0.0627 Uani
H5A H 0.6355 0.6729 0.7297 0.0750 Uiso
H6A H 0.5924 0.6776 0.6450 0.0750 Uiso
N1A N 0.5600(7) 0.6727(7) 0.7761(12) 0.0653 Uani
N2A N 0.5223(5) 0.7099(4) 0.7620(9) 0.0397 Uani
C9A C 0.4946(8) 0.7143(7) 0.8405(11) 0.0503 Uani
H7A H 0.4643 0.7368 0.8492 0.0600 Uiso
C10A C 0.5163(13) 0.6806(10) 0.9100(17) 0.0940 Uani
H8A H 0.5046 0.6756 0.9747 0.1110 Uiso
C11A C 0.5584(11) 0.6561(11) 0.8645(15) 0.0873 Uani
H9A H 0.5824 0.6312 0.8930 0.1050 Uiso
C12A C 0.5870(7) 0.6365(8) 0.1982(15) 0.0937 Uani
C13A C 0.5710(8) 0.5884(7) 0.1390(14) 0.0937 Uani
H10A H 0.5442 0.5991 0.0911 0.1280 Uiso
H11A H 0.5558 0.5609 0.1815 0.1280 Uiso
H12A H 0.6026 0.5740 0.1060 0.1280 Uiso
C14A C 0.6470(6) 0.6519(9) 0.1799(15) 0.0937 Uani
H13A H 0.6487 0.6817 0.1340 0.1280 Uiso
H14A H 0.6661 0.6209 0.1534 0.1280 Uiso
H15A H 0.6636 0.6626 0.2410 0.1280 Uiso
C15A C 0.5531(8) 0.6846(8) 0.1657(14) 0.0937 Uani
H16A H 0.5582 0.7144 0.2109 0.1280 Uiso
H17A H 0.5152 0.6744 0.1645 0.1280 Uiso
H18A H 0.5643 0.6958 0.1009 0.1280 Uiso
Ag1A Ag 0.51123(9) 0.7500 0.6250 0.0643 Uani
Ag1B Ag 0.2500 0.51123(9) 0.3750 0.0643 Uani
Ag1C Ag 0.7500 0.48877(9) 0.3750 0.0643 Uani
S1N S 0.53035(12) 0.15730(12) 0.7427(3) 0.0360 Uani
S1O S 0.46965(12) 0.84270(12) 0.7427(3) 0.0360 Uani
N2L N 0.5223(5) 0.7901(4) 0.4880(9) 0.0397 Uani
N2M N 0.4777(5) 0.2099(4) 0.4880(9) 0.0397 Uani
Sb1 Sb 0.61587(7) 0.2500 0.1250 0.0561 Uani
F1 F 0.6112(12) 0.1759(7) 0.1468(17) 0.1647 Uani
F2 F 0.565(2) 0.2384(8) 0.025(3) 0.1647 Uani
F3 F 0.666(2) 0.2290(13) 0.025(3) 0.1647 Uani
F1M F 0.6112(12) 0.3241(7) 0.1032(17) 0.1647 Uani
F2M F 0.565(2) 0.2616(8) 0.225(3) 0.1647 Uani
F3M F 0.666(2) 0.2710(13) 0.225(3) 0.1647 Uani
O1 O 0.2500 0.1328(8) 0.8750 0.1607 Uani
O2 O 0.318(2) 0.2049(12) 0.735(3) 0.1607 Uani
loop_
_atom_site_aniso_label
_atom_site_aniso_U_11
_atom_site_aniso_U_22
_atom_site_aniso_U_33
_atom_site_aniso_U_23
_atom_site_aniso_U_13
_atom_site_aniso_U_12
Ag1 0.0729(12) 0.0713(12) 0.0488(10) -0.0288(10) 0.000 0.000
S1 0.0268(12) 0.0351(13) 0.0460(18) -0.0031(13) -0.0021(12) -0.0022(11)
C1 0.033(6) 0.025(5) 0.048(7) -0.004(5) 0.001(5) -0.004(4)
C2 0.026(5) 0.032(5) 0.038(6) -0.005(5) 0.004(5) -0.009(4)
C3 0.039(6) 0.032(5) 0.022(5) 0.001(4) -0.007(4) -0.003(4)
C4 0.040(6) 0.061(9) 0.055(10) -0.024(8) -0.010(7) 0.013(6)
C5 0.090(14) 0.128(19) 0.063(12) -0.069(13) -0.055(11) 0.072(14)
C6 0.060(9) 0.059(9) 0.056(10) -0.013(7) -0.028(8) 0.027(7)
S2 0.0407(15) 0.070(2) 0.0299(14) -0.0079(18) -0.0076(15) 0.0086(14)
C7 0.041(8) 0.088(13) 0.050(9) 0.014(9) 0.009(7) 0.020(8)
C8 0.080(12) 0.078(11) 0.030(7) 0.001(7) -0.004(8) 0.029(10)
N1 0.080(10) 0.073(10) 0.043(8) -0.010(7) 0.005(7) 0.035(8)
N2 0.042(6) 0.035(5) 0.042(6) 0.000(4) 0.009(5) 0.002(4)
C9 0.072(10) 0.048(8) 0.031(7) 0.008(6) -0.002(7) -0.007(7)
C10 0.15(2) 0.083(14) 0.049(10) -0.005(10) -0.008(13) 0.061(17)
C11 0.125(19) 0.102(16) 0.035(10) -0.029(10) -0.001(12) 0.037(14)
C12 0.090(14) 0.128(19) 0.063(12) -0.069(13) -0.055(11) 0.072(14)
C13 0.090(14) 0.128(19) 0.063(12) -0.069(13) -0.055(11) 0.072(14)
C14 0.090(14) 0.128(19) 0.063(12) -0.069(13) -0.055(11) 0.072(14)
C15 0.090(14) 0.128(19) 0.063(12) -0.069(13) -0.055(11) 0.072(14)
S1B 0.0351 0.0268 0.046 -0.0021 0.0031 0.0022
C1B 0.025 0.033 0.048 0.001 0.004 0.004
C2B 0.032 0.026 0.038 0.004 0.005 0.009
C3B 0.032 0.039 0.022 -0.007 -0.001 0.003
C4B 0.061 0.04 0.055 -0.01 0.024 -0.013
C5B 0.128 0.09 0.063 -0.055 0.069 -0.072
C6B 0.059 0.06 0.056 -0.028 0.013 -0.027
S2B 0.07 0.0407 0.0299 -0.0076 0.0079 -0.0086
C7B 0.088 0.041 0.05 0.009 -0.014 -0.02
C8B 0.078 0.08 0.03 -0.004 -0.001 -0.029
N1B 0.073 0.08 0.043 0.005 0.01 -0.035
N2B 0.035 0.042 0.042 0.009 0 -0.002
C9B 0.048 0.072 0.031 -0.002 -0.008 0.007
C10B 0.083 0.15 0.049 -0.008 0.005 -0.061
C11B 0.102 0.125 0.035 -0.001 0.029 -0.037
C12B 0.128 0.09 0.063 -0.055 0.069 -0.072
C13B 0.128 0.09 0.063 -0.055 0.069 -0.072
C14B 0.128 0.09 0.063 -0.055 0.069 -0.072
C15B 0.128 0.09 0.063 -0.055 0.069 -0.072
S1C 0.0351 0.0268 0.046 0.0021 -0.0031 0.0022
C1C 0.025 0.033 0.048 -0.001 -0.004 0.004
C2C 0.032 0.026 0.038 -0.004 -0.005 0.009
C3C 0.032 0.039 0.022 0.007 0.001 0.003
C4C 0.061 0.04 0.055 0.01 -0.024 -0.013
C5C 0.128 0.09 0.063 0.055 -0.069 -0.072
C6C 0.059 0.06 0.056 0.028 -0.013 -0.027
S2C 0.07 0.0407 0.0299 0.0076 -0.0079 -0.0086
C7C 0.088 0.041 0.05 -0.009 0.014 -0.02
C8C 0.078 0.08 0.03 0.004 0.001 -0.029
N1C 0.073 0.08 0.043 -0.005 -0.01 -0.035
N2C 0.035 0.042 0.042 -0.009 0 -0.002
C9C 0.048 0.072 0.031 0.002 0.008 0.007
C10C 0.083 0.15 0.049 0.008 -0.005 -0.061
C11C 0.102 0.125 0.035 0.001 -0.029 -0.037
C12C 0.128 0.09 0.063 0.055 -0.069 -0.072
C13C 0.128 0.09 0.063 0.055 -0.069 -0.072
C14C 0.128 0.09 0.063 0.055 -0.069 -0.072
C15C 0.128 0.09 0.063 0.055 -0.069 -0.072
S1A 0.0268 0.0351 0.046 0.0031 0.0021 -0.0022
C1A 0.033 0.025 0.048 0.004 -0.001 -0.004
C2A 0.026 0.032 0.038 0.005 -0.004 -0.009
C3A 0.039 0.032 0.022 -0.001 0.007 -0.003
C4A 0.04 0.061 0.055 0.024 0.01 0.013
C5A 0.09 0.128 0.063 0.069 0.055 0.072
C6A 0.06 0.059 0.056 0.013 0.028 0.027
S2A 0.0407 0.07 0.0299 0.0079 0.0076 0.0086
C7A 0.041 0.088 0.05 -0.014 -0.009 0.02
C8A 0.08 0.078 0.03 -0.001 0.004 0.029
N1A 0.08 0.073 0.043 0.01 -0.005 0.035
N2A 0.042 0.035 0.042 0 -0.009 0.002
C9A 0.072 0.048 0.031 -0.008 0.002 -0.007
C10A 0.15 0.083 0.049 0.005 0.008 0.061
C11A 0.125 0.102 0.035 0.029 0.001 0.037
C12A 0.09 0.128 0.063 0.069 0.055 0.072
C13A 0.09 0.128 0.063 0.069 0.055 0.072
C14A 0.09 0.128 0.063 0.069 0.055 0.072
C15A 0.09 0.128 0.063 0.069 0.055 0.072
Ag1A 0.0729 0.0713 0.0488 0.0288 0 0
Ag1B 0.0713 0.0729 0.0488 0 0.0288 0
Ag1C 0.0713 0.0729 0.0488 0 -0.0288 0
S1N 0.0351 0.0268 0.046 0.0021 0.0031 -0.0022
S1O 0.0351 0.0268 0.046 -0.0021 -0.0031 -0.0022
N2L 0.042 0.035 0.042 0 0.009 -0.002
N2M 0.042 0.035 0.042 0 -0.009 -0.002
Sb1 0.0630(9) 0.0468(8) 0.0584(9) -0.0104(7) 0.000 0.000
F1 0.26(3) 0.104(13) 0.13(2) 0.042(13) -0.05(2) -0.012(16)
F2 0.26(3) 0.104(13) 0.13(2) 0.042(13) -0.05(2) -0.012(16)
F3 0.26(3) 0.104(13) 0.13(2) 0.042(13) -0.05(2) -0.012(16)
F1M 0.26 0.104 0.13 0.042 0.05 0.012
F2M 0.26 0.104 0.13 0.042 0.05 0.012
F3M 0.26 0.104 0.13 0.042 0.05 0.012
O1 0.076(14) 0.036(9) 0.37(6) 0.000 0.06(3) 0.000
O2 0.076(14) 0.036(9) 0.37(6) 0.000 0.06(3) 0.000
loop_
_geom_bond_atom_site_label_1
_geom_bond_atom_site_label_2
_geom_bond_site_symmetry_1
_geom_bond_site_symmetry_2
Ag1 N2 1_555 1_555
S1 C1 1_555 1_555
C1 C2 1_555 1_555
C2 C3 1_555 1_555
C3 C4 1_555 1_555
C4 H1 1_555 1_555
C5 C4 1_555 1_555
C6 C1 1_555 1_555
H2 C6 1_555 1_555
S2 C2 1_555 1_555
C7 S2 1_555 1_555
H3 C7 1_555 1_555
H4 C7 1_555 1_555
C8 C7 1_555 1_555
H5 C8 1_555 1_555
H6 C8 1_555 1_555
N1 C8 1_555 1_555
N2 N1 1_555 1_555
C9 N2 1_555 1_555
H7 C9 1_555 1_555
C10 C9 1_555 1_555
H8 C10 1_555 1_555
C11 N1 1_555 1_555
H9 C11 1_555 1_555
C12 C5 1_555 1_555
C13 C12 1_555 1_555
H10 C13 1_555 1_555
H11 C13 1_555 1_555
H12 C13 1_555 1_555
C14 C12 1_555 1_555
H13 C14 1_555 1_555
H14 C14 1_555 1_555
H15 C14 1_555 1_555
C15 C12 1_555 1_555
H16 C15 1_555 1_555
H17 C15 1_555 1_555
H18 C15 1_555 1_555
Sb1 F1 1_555 1_555
F2 Sb1 1_555 1_555
F3 Sb1 1_555 1_555
S1B C1B 1_555 1_555
C1B C2B 1_555 1_555
C2B C3B 1_555 1_555
C3B S1 1_555 1_555
C4B C3B 1_555 1_555
H1B C4B 1_555 1_555
C5B C4B 1_555 1_555
C6B C1B 1_555 1_555
H2B C6B 1_555 1_555
S2B C2B 1_555 1_555
C7B S2B 1_555 1_555
H3B C7B 1_555 1_555
H4B C7B 1_555 1_555
C8B C7B 1_555 1_555
H5B C8B 1_555 1_555
H6B C8B 1_555 1_555
N1B C8B 1_555 1_555
N2B N1B 1_555 1_555
C9B N2B 1_555 1_555
H7B C9B 1_555 1_555
C10B C9B 1_555 1_555
H8B C10B 1_555 1_555
C11B N1B 1_555 1_555
H9B C11B 1_555 1_555
C12B C5B 1_555 1_555
C13B C12B 1_555 1_555
H10B C13B 1_555 1_555
H11B C13B 1_555 1_555
H12B C13B 1_555 1_555
C14B C12B 1_555 1_555
H13B C14B 1_555 1_555
H14B C14B 1_555 1_555
H15B C14B 1_555 1_555
C15B C12B 1_555 1_555
H16B C15B 1_555 1_555
H17B C15B 1_555 1_555
H18B C15B 1_555 1_555
S1C Ag1 1_555 1_555
C1C S1C 1_555 1_555
C2C C1C 1_555 1_555
C3C C2C 1_555 1_555
C4C C3C 1_555 1_555
H1C C4C 1_555 1_555
C5C C4C 1_555 1_555
C6C C1C 1_555 1_555
H2C C6C 1_555 1_555
S2C C2C 1_555 1_555
C7C S2C 1_555 1_555
H3C C7C 1_555 1_555
H4C C7C 1_555 1_555
C8C C7C 1_555 1_555
H5C C8C 1_555 1_555
H6C C8C 1_555 1_555
N1C C8C 1_555 1_555
N2C N1C 1_555 1_555
C9C N2C 1_555 1_555
H7C C9C 1_555 1_555
C10C C9C 1_555 1_555
H8C C10C 1_555 1_555
C11C N1C 1_555 1_555
H9C C11C 1_555 1_555
C12C C5C 1_555 1_555
C13C C12C 1_555 1_555
H10C C13C 1_555 1_555
H11C C13C 1_555 1_555
H12C C13C 1_555 1_555
C14C C12C 1_555 1_555
H13C C14C 1_555 1_555
H14C C14C 1_555 1_555
H15C C14C 1_555 1_555
C15C C12C 1_555 1_555
H16C C15C 1_555 1_555
H17C C15C 1_555 1_555
H18C C15C 1_555 1_555
S1A C3C 1_555 1_555
C1A S1A 1_555 1_555
C2A C1A 1_555 1_555
C3A S1B 1_555 1_555
C4A C3A 1_555 1_555
H1A C4A 1_555 1_555
C5A C4A 1_555 1_555
C6A C1A 1_555 1_555
H2A C6A 1_555 1_555
S2A C2A 1_555 1_555
C7A S2A 1_555 1_555
H3A C7A 1_555 1_555
H4A C7A 1_555 1_555
C8A C7A 1_555 1_555
H5A C8A 1_555 1_555
H6A C8A 1_555 1_555
N1A C8A 1_555 1_555
N2A N1A 1_555 1_555
C9A N2A 1_555 1_555
H7A C9A 1_555 1_555
C10A C9A 1_555 1_555
H8A C10A 1_555 1_555
C11A N1A 1_555 1_555
H9A C11A 1_555 1_555
C12A C5A 1_555 1_555
C13A C12A 1_555 1_555
H10A C13A 1_555 1_555
H11A C13A 1_555 1_555
H12A C13A 1_555 1_555
C14A C12A 1_555 1_555
H13A C14A 1_555 1_555
H14A C14A 1_555 1_555
H15A C14A 1_555 1_555
C15A C12A 1_555 1_555
H16A C15A 1_555 1_555
H17A C15A 1_555 1_555
H18A C15A 1_555 1_555
Ag1A S1B 1_555 1_555
Ag1B S1 1_555 1_555
Ag1C N2C 1_555 1_555
S1N Ag1 1_555 1_555
S1O Ag1A 1_555 1_555
N2L Ag1A 1_555 1_555
N2M Ag1 1_555 1_555
F1M Sb1 1_555 1_555
F2M Sb1 1_555 1_555
F3M Sb1 1_555 1_555
C3 S1C 1_555 1_555
C5 C6 1_555 1_555
C10 C11 1_555 1_555
C5B C6B 1_555 1_555
N2B Ag1B 1_555 1_555
C10B C11B 1_555 1_555
C5C C6C 1_555 1_555
C10C C11C 1_555 1_555
S1A Ag1C 1_555 1_555
C2A C3A 1_555 1_555
C5A C6A 1_555 1_555
N2A Ag1A 1_555 1_555
C10A C11A 1_555 1_555

#END
