
#######################################################################
#
#                 Cambridge Crystallographic Data Centre
#                                CCDC 
#
#######################################################################
#
# If this CIF has been generated from an entry in the Cambridge 
# Structural Database, then it will include bibliographic, chemical, 
# crystal, experimental, refinement or atomic coordinate data resulting 
# from the CCDC's data processing and validation procedures.
#
#######################################################################

data_ATOTIM
_chemical_formula_moiety         '(C16 H10 O10 V2)n'
_symmetry_cell_setting           orthorhombic
_symmetry_space_group_name_H-M   'C m c m'
_symmetry_Int_Tables_number      63
_space_group_name_Hall           '-C 2c 2'
loop_
_symmetry_equiv_pos_site_id
_symmetry_equiv_pos_as_xyz
1 x,y,z
2 1/2+x,1/2+y,z
3 x,y,1/2-z
4 x,-y,1/2+z
5 -x,y,z
6 1/2+x,1/2+y,1/2-z
7 1/2+x,1/2-y,1/2+z
8 1/2-x,1/2+y,z
9 -x,-y,-z
10 1/2-x,1/2-y,-z
11 -x,-y,1/2+z
12 -x,y,1/2-z
13 x,-y,-z
14 1/2-x,1/2-y,1/2+z
15 1/2-x,1/2+y,1/2-z
16 1/2+x,1/2-y,-z
_cell_length_a                   21.2105(18)
_cell_length_b                   36.721(4)
_cell_length_c                   6.8606(6)
_cell_angle_alpha                90
_cell_angle_beta                 90
_cell_angle_gamma                90
_cell_volume                     5343.52
loop_
_atom_site_label
_atom_site_type_symbol
_atom_site_fract_x
_atom_site_fract_y
_atom_site_fract_z
V1 V -0.0000 0.0000 0.5000
V2 V 0.2500 0.2500 0.5000
O1 O 0.33667(7) 0.23833(5) 0.5904(2)
O2 O 0.06257(9) 0.03720(4) 0.5841(2)
O3 O 0.22314(9) 0.20075(5) 0.5849(2)
O4 O -0.0000 0.01756(13) 0.2500
O5 O 0.27004(16) 0.22866(9) 0.2500
C1 C 0.43577(16) 0.23267(9) 0.7500
C2 C 0.46885(12) 0.23184(8) 0.5786(4)
H1 H 0.4472 0.2313 0.4607
C3 C 0.20721(18) 0.18816(11) 0.7500
C4 C 0.36013(17) 0.23763(9) 0.7500
C5 C 0.16879(14) 0.13181(7) 0.9208(4)
H2 H 0.1809 0.1425 1.0378
C6 C 0.18335(19) 0.14837(9) 0.7500
C7 C 0.08027(19) 0.04964(9) 0.7500
C8 C 0.12093(19) 0.08481(9) 0.7500
C9 C 0.13690(14) 0.09988(7) 0.9233(4)
H3 H 0.1263 0.0886 1.0402
O1B O 0.33667(7) 0.23833(5) 0.9096(2)
C2D C 0.53115(12) 0.23184(8) 0.5786(4)
C1D C 0.56423(16) 0.23267(9) 0.7500
C2K C 0.53115(12) 0.23184(8) 0.9214(4)
C2B C 0.46885(12) 0.23184(8) 0.9214(4)
H1B H 0.4472 0.2313 1.0393
H1K H 0.5528 0.2313 1.0393
C4D C 0.63987(17) 0.23763(9) 0.7500
O1D O 0.66333(7) 0.23833(5) 0.5904(2)
O1K O 0.66333(7) 0.23833(5) 0.9096(2)
H1D H 0.5528 0.2313 0.4607
O2B O 0.06257(9) 0.03720(4) 0.9159(2)
O3B O 0.22314(9) 0.20075(5) 0.9151(2)
C5B C 0.16879(14) 0.13181(7) 0.5792(4)
H2B H 0.1809 0.1425 0.4622
C9B C 0.13690(14) 0.09988(7) 0.5767(4)
H3B H 0.1263 0.0886 0.4598
O2D O -0.06257(9) 0.03720(4) 0.5841(2)
O2K O -0.06257(9) 0.03720(4) 0.9159(2)
V2B V 0.2500 0.2500 1.0000
O5I O 0.22996(16) 0.27134(9) 0.7500
O2H O -0.06257(9) -0.03720(4) 0.4159(2)
O2L O 0.06257(9) -0.03720(4) 0.4159(2)
O4C O -0.0000 -0.01756(13) 0.7500
O1I O 0.16333(7) 0.26167(5) 0.4096(2)
O3I O 0.27686(9) 0.29925(5) 0.4151(2)
V1B V 0.0000 0.0000 0.0000
V2B_2 V 0.2500 0.2500 0.0000
V2D V 0.7500 0.2500 0.5000
V2F V 0.7500 0.2500 1.0000
V1B_2 V -0.0000 0.0000 1.0000
loop_
_geom_bond_atom_site_label_1
_geom_bond_atom_site_label_2
_geom_bond_site_symmetry_1
_geom_bond_site_symmetry_2
V1 O2 1_555 1_555
V2 O1 1_555 1_555
O1 C4 1_555 1_555
O2 C7 1_555 1_555
O3 V2 1_555 1_555
O4 V1 1_555 1_555
O5 V2 1_555 1_555
C1 C2 1_555 1_555
C2 H1 1_555 1_555
C3 O3 1_555 1_555
C4 C1 1_555 1_555
C5 H2 1_555 1_555
C6 C3 1_555 1_555
C7 C8 1_555 1_555
C8 C9 1_555 1_555
C9 C5 1_555 1_555
H3 C9 1_555 1_555
O1B C4 1_555 1_555
C2D C2 1_555 1_555
C1D C2D 1_555 1_555
C2K C1D 1_555 1_555
C2B C1 1_555 1_555
H1B C2B 1_555 1_555
H1K C2K 1_555 1_555
C4D C1D 1_555 1_555
O1D C4D 1_555 1_555
O1K C4D 1_555 1_555
H1D C2D 1_555 1_555
O2B C7 1_555 1_555
O3B C3 1_555 1_555
C5B C6 1_555 1_555
H2B C5B 1_555 1_555
C9B C8 1_555 1_555
H3B C9B 1_555 1_555
O2D V1 1_555 1_555
O2K V1B_2 1_555 1_555
V2B O1B 1_555 1_555
O5I V2 1_555 1_555
O2H V1 1_555 1_555
O2L V1 1_555 1_555
O4C V1 1_555 1_555
O1I V2 1_555 1_555
O3I V2 1_555 1_555
V1B O4 1_555 1_555
V2B_2 O5 1_555 1_555
V2D O1D 1_555 1_555
V2F O1K 1_555 1_555
V1B_2 O2B 1_555 1_555
C5 C6 1_555 1_555
C2K C2B 1_555 1_555
O3B V2B 1_555 1_555
C5B C9B 1_555 1_555
V2B O5I 1_555 1_555
O4C V1B_2 1_555 1_555

#END
