
#######################################################################
#
#                 Cambridge Crystallographic Data Centre
#                                CCDC 
#
#######################################################################
#
# If this CIF has been generated from an entry in the Cambridge 
# Structural Database, then it will include bibliographic, chemical, 
# crystal, experimental, refinement or atomic coordinate data resulting 
# from the CCDC's data processing and validation procedures.
#
#######################################################################

data_ULUNIA
_chemical_formula_moiety         'C46 H22 In4 O14'
_symmetry_cell_setting           tetragonal
_symmetry_space_group_name_H-M   'P 42/m m c'
_symmetry_Int_Tables_number      131
_space_group_name_Hall           '-P 4c 2'
loop_
_symmetry_equiv_pos_site_id
_symmetry_equiv_pos_as_xyz
1 x,y,z
2 -y,x,1/2+z
3 -x,-y,z
4 y,-x,1/2+z
5 x,-y,-z
6 y,x,1/2-z
7 -x,y,-z
8 -y,-x,1/2-z
9 -x,-y,-z
10 y,-x,1/2-z
11 x,y,-z
12 -y,x,1/2-z
13 -x,y,z
14 -y,-x,1/2+z
15 x,-y,z
16 y,x,1/2+z
_cell_length_a                   9.9523(7)
_cell_length_b                   9.9523(7)
_cell_length_c                   36.798(3)
_cell_angle_alpha                90
_cell_angle_beta                 90
_cell_angle_gamma                90
_cell_volume                     3644.78
loop_
_atom_site_label
_atom_site_type_symbol
_atom_site_fract_x
_atom_site_fract_y
_atom_site_fract_z
In1 In -0.0000 -0.0000 0.2500
O1 O 0.0000 0.1431(4) 0.20526(10)
O2 O 0.0000 0.2444(5) 0.25683(9)
C1 C -0.0000 0.2457(6) 0.22408(16)
C2 C 0.0000 0.5000 0.2235(2)
H1 H -0.0000 0.5000 0.2488
C3 C -0.0000 0.3817(5) 0.20457(15)
C4 C 0.0000 0.3826(5) 0.16726(15)
H2 H -0.0000 0.3017 0.1546
C5 C -0.0000 0.5000 0.1488(2)
C6 C 0.0000 0.5000 0.1077(3)
C7 C -0.0000 0.5000 0.0766(3)
C8 C 0.0000 0.5000 0.0378(3)
C9 C 0.0667(17) 0.3785(11) 0.0186(2)
C10 C 0.0863(17) 0.2641(14) 0.0389(3)
H3 H 0.0768 0.2619 0.0641
C11 C 0.120(3) 0.156(2) 0.0191(4)
H4 H 0.1452 0.0773 0.0311
O1B O -0.0000 0.8569(4) 0.20526(10)
O2B O -0.0000 0.7556(5) 0.25683(9)
C1B C 0.0000 0.7543(6) 0.22408(16)
C3B C -0.0000 0.6183(5) 0.20457(15)
C4B C -0.0000 0.6174(5) 0.16726(15)
H2B H -0.0000 0.6983 0.1546
C9B C -0.0667(17) 0.6215(11) 0.0186(2)
C10B C -0.0863(17) 0.7359(14) 0.0389(3)
H3B H -0.0768 0.7381 0.0641
C11B C -0.120(3) 0.844(2) 0.0191(4)
H4B H -0.1452 0.9227 0.0311
O1D O 0.0000 0.8569(4) -0.20526(10)
O2D O 0.0000 0.7556(5) -0.25683(9)
C1D C 0.0000 0.7543(6) -0.22408(16)
C2D C 0.0000 0.5000 -0.2235(2)
H1D H 0.0000 0.5000 -0.2488
C3D C 0.0000 0.6183(5) -0.20457(15)
C4D C 0.0000 0.6174(5) -0.16726(15)
H2D H 0.0000 0.6983 -0.1546
C5D C 0.0000 0.5000 -0.1488(2)
C6D C -0.0000 0.5000 -0.1077(3)
C7D C 0.0000 0.5000 -0.0766(3)
C8D C -0.0000 0.5000 -0.0378(3)
C9H C -0.0667(17) 0.6215(11) -0.0186(2)
C10H C -0.0863(17) 0.7359(14) -0.0389(3)
H3H H -0.0768 0.7381 -0.0641
C11H C -0.120(3) 0.844(2) -0.0191(4)
H4H H -0.1452 0.9227 -0.0311
O1F O 0.0000 0.1431(4) -0.20526(10)
O2F O 0.0000 0.2444(5) -0.25683(9)
C1F C 0.0000 0.2457(6) -0.22408(16)
C3F C 0.0000 0.3817(5) -0.20457(15)
C4F C 0.0000 0.3826(5) -0.16726(15)
H2F H 0.0000 0.3017 -0.1546
C9J C 0.0667(17) 0.3785(11) -0.0186(2)
C10J C 0.0863(17) 0.2641(14) -0.0389(3)
H3J H 0.0768 0.2619 -0.0641
C11J C 0.120(3) 0.156(2) -0.0191(4)
H4J H 0.1452 0.0773 -0.0311
C9L C -0.0667(17) 0.3785(11) 0.0186(2)
C10L C -0.0863(17) 0.2641(14) 0.0389(3)
H3L H -0.0768 0.2619 0.0641
C11L C -0.120(3) 0.156(2) 0.0191(4)
H4L H -0.1452 0.0773 0.0311
C9N C 0.0667(17) 0.6215(11) 0.0186(2)
C10N C 0.0863(17) 0.7359(14) 0.0389(3)
H3N H 0.0768 0.7381 0.0641
C11N C 0.120(3) 0.844(2) 0.0191(4)
H4N H 0.1452 0.9227 0.0311
C9D C 0.0667(17) 0.6215(11) -0.0186(2)
C10D C 0.0863(17) 0.7359(14) -0.0389(3)
H3D H 0.0768 0.7381 -0.0641
C11D C 0.120(3) 0.844(2) -0.0191(4)
H4D H 0.1452 0.9227 -0.0311
C9F C -0.0667(17) 0.3785(11) -0.0186(2)
C10F C -0.0863(17) 0.2641(14) -0.0389(3)
H3F H -0.0768 0.2619 -0.0641
C11F C -0.120(3) 0.156(2) -0.0191(4)
H4F H -0.1452 0.0773 -0.0311
In1_2 In -0.0000 1.0000 0.2500
In1A In 0.0000 0.0000 -0.2500
In1A_2 In 0.0000 1.0000 -0.2500
O1B_2 O 0.0000 -0.1431(4) 0.20526(10)
O1E O 0.1431(4) -0.0000 0.29474(10)
O1G O -0.1431(4) -0.0000 0.29474(10)
O2B_2 O -0.0000 -0.2444(5) 0.25683(9)
O2E O 0.2444(5) -0.0000 0.24317(9)
O2G O -0.2444(5) -0.0000 0.24317(9)
loop_
_geom_bond_atom_site_label_1
_geom_bond_atom_site_label_2
_geom_bond_site_symmetry_1
_geom_bond_site_symmetry_2
In1 O1 1_555 1_555
O1 C1 1_555 1_555
O2 In1 1_555 1_555
C1 O2 1_555 1_555
C2 H1 1_555 1_555
C3 C1 1_555 1_555
C4 C3 1_555 1_555
H2 C4 1_555 1_555
C5 C4 1_555 1_555
C6 C5 1_555 1_555
C7 C6 1_555 1_555
C8 C7 1_555 1_555
C9 C8 1_555 1_555
C10 C9 1_555 1_555
H3 C10 1_555 1_555
C11 C10 1_555 1_555
H4 C11 1_555 1_555
O1B C1B 1_555 1_555
O2B C1B 1_555 1_555
C1B C3B 1_555 1_555
C3B C2 1_555 1_555
C4B C5 1_555 1_555
H2B C4B 1_555 1_555
C9B C8 1_555 1_555
C10B C9B 1_555 1_555
H3B C10B 1_555 1_555
C11B C10B 1_555 1_555
H4B C11B 1_555 1_555
O1D C1D 1_555 1_555
O2D C1D 1_555 1_555
C1D C3D 1_555 1_555
C2D H1D 1_555 1_555
C3D C2D 1_555 1_555
C4D C3D 1_555 1_555
H2D C4D 1_555 1_555
C5D C4D 1_555 1_555
C6D C5D 1_555 1_555
C7D C6D 1_555 1_555
C8D C7D 1_555 1_555
C9H C9B 1_555 1_555
C10H C9H 1_555 1_555
H3H C10H 1_555 1_555
C11H C11B 1_555 1_555
H4H C11H 1_555 1_555
O1F C1F 1_555 1_555
O2F C1F 1_555 1_555
C1F C3F 1_555 1_555
C3F C2D 1_555 1_555
C4F C5D 1_555 1_555
H2F C4F 1_555 1_555
C9J C9 1_555 1_555
C10J C9J 1_555 1_555
H3J C10J 1_555 1_555
C11J C11 1_555 1_555
H4J C11J 1_555 1_555
C9L C8 1_555 1_555
C10L C10 1_555 1_555
H3L C10L 1_555 1_555
C11L C10L 1_555 1_555
H4L C11L 1_555 1_555
C9N C8 1_555 1_555
C10N C10B 1_555 1_555
H3N C10N 1_555 1_555
C11N C10N 1_555 1_555
H4N C11N 1_555 1_555
C9D C8D 1_555 1_555
C10D C10H 1_555 1_555
H3D C10D 1_555 1_555
C11D C11N 1_555 1_555
H4D C11D 1_555 1_555
C9F C8D 1_555 1_555
C10F C10J 1_555 1_555
H3F C10F 1_555 1_555
C11F C11L 1_555 1_555
H4F C11F 1_555 1_555
In1_2 O1B 1_555 1_555
In1A O1F 1_555 1_555
In1A_2 O1D 1_555 1_555
O1B_2 In1 1_555 1_555
O1E In1 1_555 1_555
O1G In1 1_555 1_555
O2B_2 In1 1_555 1_555
O2E In1 1_555 1_555
O2G In1 1_555 1_555
C2 C3 1_555 1_555
C9 C9L 1_555 1_555
O2B In1_2 1_555 1_555
C3B C4B 1_555 1_555
C9B C9N 1_555 1_555
O2D In1A_2 1_555 1_555
C8D C9H 1_555 1_555
C8D C9J 1_555 1_555
C9H C9D 1_555 1_555
C10H C11H 1_555 1_555
O2F In1A 1_555 1_555
C3F C4F 1_555 1_555
C9J C9F 1_555 1_555
C10J C11J 1_555 1_555
C9L C10L 1_555 1_555
C9L C9F 1_555 1_555
C9N C10N 1_555 1_555
C9N C9D 1_555 1_555
C9D C10D 1_555 1_555
C10D C11D 1_555 1_555
C9F C10F 1_555 1_555
C10F C11F 1_555 1_555

#END
