
#######################################################################
#
#                 Cambridge Crystallographic Data Centre
#                                CCDC 
#
#######################################################################
#
# If this CIF has been generated from an entry in the Cambridge 
# Structural Database, then it will include bibliographic, chemical, 
# crystal, experimental, refinement or atomic coordinate data resulting 
# from the CCDC's data processing and validation procedures.
#
#######################################################################

data_OGIJIY
_chemical_formula_moiety         '(C24 H44 O19 Sm2)n'
_symmetry_cell_setting           triclinic
_symmetry_space_group_name_H-M   'P -1'
_symmetry_Int_Tables_number      2
_space_group_name_Hall           '-P 1'
loop_
_symmetry_equiv_pos_site_id
_symmetry_equiv_pos_as_xyz
1 x,y,z
2 -x,-y,-z
_cell_length_a                   10.2001(6)
_cell_length_b                   10.4146(6)
_cell_length_c                   10.7531(7)
_cell_angle_alpha                111.7360(10)
_cell_angle_beta                 117.7800(10)
_cell_angle_gamma                92.0270(10)
_cell_volume                     908.231
loop_
_atom_site_label
_atom_site_type_symbol
_atom_site_fract_x
_atom_site_fract_y
_atom_site_fract_z
Sm1 Sm 0.18481(5) 0.00801(5) 0.46526(5)
C1 C 0.4096(12) 0.0616(10) 0.7804(11)
O1 O 0.4320(11) -0.0050(11) 0.6711(10)
O2 O 0.2867(8) 0.1018(10) 0.7479(9)
O3 O 0.3585(15) 0.2466(14) 0.5899(15)
O4 O 0.2049(10) 0.1725(8) 0.3495(10)
O5 O 0.1373(12) -0.2477(9) 0.4140(14)
O6 O -0.0062(8) -0.1362(7) 0.4905(8)
O7 O 0.2990(11) -0.1032(9) 0.3094(12)
O8 O -0.0446(8) -0.1009(9) 0.2063(8)
C2 C 0.5322(11) 0.1052(11) 0.9488(11)
H1 H 0.6032 0.1933 0.9823
C3 C 0.4692(12) 0.1408(11) 1.0605(11)
H2 H 0.5539 0.1872 1.1679
H3 H 0.4055 0.2066 1.0431
C4 C 0.6254(11) -0.0046(11) 0.9663(12)
H4 H 0.7158 0.0364 1.0703
H5 H 0.6588 -0.0290 0.8914
C5 C 0.3268(18) 0.2495(13) 0.4661(15)
C6 C 0.0403(12) -0.2491(10) 0.4515(12)
C7 C -0.0199(14) -0.3763(10) 0.4629(13)
H6 H -0.1261 -0.3788 0.4364
C8 C -0.0191(17) -0.5187(12) 0.3482(15)
H7 H -0.0857 -0.5319 0.2418
H8 H 0.0837 -0.5155 0.3665
C9 C 0.0735(15) -0.3550(11) 0.6321(14)
H9 H 0.0642 -0.2680 0.6997
H10 H 0.1807 -0.3443 0.6637
C10 C 0.374(3) 0.387(2) 0.453(3)
H11 H 0.2891 0.3927 0.3620
C11 C 0.431(4) 0.527(2) 0.598(3)
H12 H 0.5093 0.5184 0.6884
H13 H 0.3475 0.5500 0.6150
C12 C 0.503(3) 0.352(2) 0.422(3)
H14 H 0.4634 0.2631 0.3275
H15 H 0.5835 0.3387 0.5077
Sm1A Sm 0.81519(5) -0.00801(5) 1.53474(5)
Sm1A_2 Sm -0.18481(5) -0.00801(5) 0.53474(5)
Sm1A_3 Sm 0.81519(5) 0.99199(5) 0.53474(5)
Sm1A_4 Sm -0.18481(5) -1.00801(5) 0.53474(5)
Sm1_2 Sm 0.18481(5) -0.99199(5) 0.46526(5)
C1A C 0.5904(12) -0.0616(10) 1.2196(11)
O1A O 0.5680(11) 0.0050(11) 1.3289(10)
O1A_2 O -0.4320(11) -0.9950(11) 0.3289(10)
O2A O 0.7133(8) -0.1018(10) 1.2521(9)
O2A_2 O -0.2867(8) -1.1018(10) 0.2521(9)
O3A O 0.6415(15) 0.7534(14) 0.4101(15)
O3A_2 O -0.3585(15) -1.2466(14) 0.4101(15)
O4A O 0.7951(10) 0.8275(8) 0.6505(10)
O4A_2 O -0.2049(10) -1.1725(8) 0.6505(10)
O5A O -0.1373(12) -0.7523(9) 0.5860(14)
O6A O 0.0062(8) -0.8638(7) 0.5095(8)
O6A_2 O 0.0062(8) 0.1362(7) 0.5095(8)
O6_2 O -0.0062(8) -1.1362(7) 0.4905(8)
O7A O -0.2990(11) -0.8968(9) 0.6906(12)
O8A O 0.0446(8) -0.8991(9) 0.7937(8)
C2A C 0.4678(11) -0.1052(11) 1.0512(11)
H1A H 0.3968 -0.1933 1.0177
C3A C 0.5308(12) -0.1408(11) 0.9395(11)
H2A H 0.4461 -0.1872 0.8321
H3A H 0.5945 -0.2066 0.9569
C4A C 0.3746(11) 0.0046(11) 1.0337(12)
H4A H 0.2842 -0.0364 0.9297
H5A H 0.3412 0.0290 1.1086
C5A C 0.6732(18) 0.7505(13) 0.5339(15)
C6A C -0.0403(12) -0.7509(10) 0.5485(12)
C7A C 0.0199(14) -0.6237(10) 0.5371(13)
H6A H 0.1261 -0.6212 0.5636
C8A C 0.0191(17) -0.4813(12) 0.6518(15)
H7A H 0.0857 -0.4681 0.7582
H8A H -0.0837 -0.4845 0.6335
C9A C -0.0735(15) -0.6450(11) 0.3679(14)
H9A H -0.0642 -0.7320 0.3003
H10A H -0.1807 -0.6557 0.3363
C10A C 0.626(3) 0.613(2) 0.547(3)
H11A H 0.7109 0.6073 0.6380
C11A C 0.569(4) 0.473(2) 0.402(3)
H12A H 0.4907 0.4816 0.3116
H13A H 0.6525 0.4500 0.3850
C12A C 0.497(3) 0.648(2) 0.578(3)
H14A H 0.5366 0.7369 0.6725
H15A H 0.4165 0.6613 0.4923
O9 O -0.0291(19) -0.1837(18) -0.0554(19)
O10 O 0.123(2) -0.480(2) 0.139(2)
O11 O 0.366(3) -0.382(3) 0.120(3)
loop_
_geom_bond_atom_site_label_1
_geom_bond_atom_site_label_2
_geom_bond_site_symmetry_1
_geom_bond_site_symmetry_2
Sm1 O1 1_555 1_555
C1 O1 1_555 1_555
O2 Sm1 1_555 1_555
O3 Sm1 1_555 1_555
O4 Sm1 1_555 1_555
O5 Sm1 1_555 1_555
O6 Sm1 1_555 1_555
O7 Sm1 1_555 1_555
O8 Sm1 1_555 1_555
C2 C1 1_555 1_555
H1 C2 1_555 1_555
C3 C2 1_555 1_555
H2 C3 1_555 1_555
H3 C3 1_555 1_555
C4 C2 1_555 1_555
H4 C4 1_555 1_555
H5 C4 1_555 1_555
C5 O3 1_555 1_555
C6 O5 1_555 1_555
C7 C6 1_555 1_555
H6 C7 1_555 1_555
C8 C7 1_555 1_555
H7 C8 1_555 1_555
H8 C8 1_555 1_555
C9 C7 1_555 1_555
H9 C9 1_555 1_555
H10 C9 1_555 1_555
C10 C5 1_555 1_555
H11 C10 1_555 1_555
C11 C10 1_555 1_555
H12 C11 1_555 1_555
H13 C11 1_555 1_555
C12 C10 1_555 1_555
H14 C12 1_555 1_555
H15 C12 1_555 1_555
Sm1A O1A 1_555 1_555
Sm1A_2 O6 1_555 1_555
Sm1A_3 O3A 1_555 1_555
Sm1A_4 O1A_2 1_555 1_555
Sm1_2 O6A 1_555 1_555
C1A O1A 1_555 1_555
O2A Sm1A 1_555 1_555
O2A_2 Sm1A_4 1_555 1_555
O3A C5A 1_555 1_555
O3A_2 Sm1A_4 1_555 1_555
O4A Sm1A_3 1_555 1_555
O4A_2 Sm1A_4 1_555 1_555
O5A Sm1A_4 1_555 1_555
O6A Sm1A_4 1_555 1_555
O6A_2 Sm1 1_555 1_555
O6_2 Sm1A_4 1_555 1_555
O7A Sm1A_4 1_555 1_555
O8A Sm1A_4 1_555 1_555
C2A C1A 1_555 1_555
H1A C2A 1_555 1_555
C3A C4 1_555 1_555
H2A C3A 1_555 1_555
H3A C3A 1_555 1_555
C4A C3 1_555 1_555
H4A C4A 1_555 1_555
H5A C4A 1_555 1_555
C5A O4A 1_555 1_555
C6A O5A 1_555 1_555
C7A C6A 1_555 1_555
H6A C7A 1_555 1_555
C8A C9 1_555 1_555
H7A C8A 1_555 1_555
H8A C8A 1_555 1_555
C9A C8 1_555 1_555
H9A C9A 1_555 1_555
H10A C9A 1_555 1_555
C10A C5A 1_555 1_555
H11A C10A 1_555 1_555
C11A C12 1_555 1_555
H12A C11A 1_555 1_555
H13A C11A 1_555 1_555
C12A C11 1_555 1_555
H14A C12A 1_555 1_555
H15A C12A 1_555 1_555
C1 O2 1_555 1_555
O4 C5 1_555 1_555
O6 C6 1_555 1_555
Sm1A_2 O6A_2 1_555 1_555
Sm1_2 O6_2 1_555 1_555
C1A O2A 1_555 1_555
O6A C6A 1_555 1_555
C2A C3A 1_555 1_555
C2A C4A 1_555 1_555
C7A C8A 1_555 1_555
C7A C9A 1_555 1_555
C10A C11A 1_555 1_555
C10A C12A 1_555 1_555

#END
