
#######################################################################
#
#                 Cambridge Crystallographic Data Centre
#                                CCDC 
#
#######################################################################
#
# If this CIF has been generated from an entry in the Cambridge 
# Structural Database, then it will include bibliographic, chemical, 
# crystal, experimental, refinement or atomic coordinate data resulting 
# from the CCDC's data processing and validation procedures.
#
#######################################################################

data_OBIYAC
_chemical_formula_moiety         '(C28 H13 N1 O8 Tb1 1-)n'
_symmetry_cell_setting           tetragonal
_symmetry_space_group_name_H-M   'I -4 2 d'
_symmetry_Int_Tables_number      122
_space_group_name_Hall           'I -4 2bw'
loop_
_symmetry_equiv_pos_site_id
_symmetry_equiv_pos_as_xyz
1 x,y,z
2 y,-x,-z
3 -x,-y,z
4 -y,x,-z
5 x,1/2-y,1/4-z
6 -x,1/2+y,1/4-z
7 -y,1/2-x,1/4+z
8 y,1/2+x,1/4+z
9 1/2+x,1/2+y,1/2+z
10 1/2+y,1/2-x,1/2-z
11 1/2-x,1/2-y,1/2+z
12 1/2-y,1/2+x,1/2-z
13 1/2+x,-y,3/4-z
14 1/2-x,y,3/4-z
15 1/2-y,-x,3/4+z
16 1/2+y,x,3/4+z
_cell_length_a                   13.799(2)
_cell_length_b                   13.799(2)
_cell_length_c                   31.702(12)
_cell_angle_alpha                90
_cell_angle_beta                 90
_cell_angle_gamma                90
_cell_volume                     6036.45
loop_
_atom_site_label
_atom_site_type_symbol
_atom_site_fract_x
_atom_site_fract_y
_atom_site_fract_z
_atom_site_U_iso_or_equiv
_atom_site_thermal_displace_type
Tb1 Tb 0.5000 0.0000 1.182294(8) 0.0260 Uani
O1 O 0.6073(3) -0.0003(6) 1.12074(14) 0.0610 Uani
C1 C 0.6975(4) 0.0033(7) 0.92174(16) 0.0370 Uani
H1 H 0.7067 0.0678 0.9143 0.0440 Uiso
C2 C 0.6345(6) -0.1184(6) 0.9690(3) 0.0453 Uani
H2 H 0.6023 -0.1348 0.9937 0.0540 Uiso
C3 C 0.6093(6) 0.1510(5) 0.9775(2) 0.0333 Uani
H3 H 0.6115 0.1666 0.9490 0.0400 Uiso
C4 C 0.5953(5) 0.1053(5) 1.0626(2) 0.0383 Uani
C5 C 0.6520(5) -0.0196(5) 0.96007(17) 0.0353 Uani
O2 O 0.5591(4) 0.3850(3) 1.02395(13) 0.0443 Uani
C6 C 0.5879(4) 0.2236(4) 1.00752(17) 0.0300 Uani
O3 O 0.5399(5) 0.1349(4) 1.13258(16) 0.0727 Uani
C7 C 0.5832(6) 0.0731(7) 1.1092(2) 0.0507 Uani
O4 O 0.5699(4) 0.3493(3) 0.95565(13) 0.0417 Uani
C8 C 0.6203(5) 0.0359(5) 1.03399(17) 0.0393 Uani
H4 H 0.6332 -0.0265 1.0435 0.0470 Uiso
C9 C 0.5804(5) 0.1989(5) 1.04967(18) 0.0377 Uani
H5 H 0.5650 0.2463 1.0694 0.0450 Uiso
N1 N 0.7500 -0.2250(6) 0.8750 0.0470 Uani
H6 H 0.7500 -0.2873 0.8750 0.0560 Uiso
C10 C 0.7283(5) -0.0689(5) 0.89523(19) 0.0373 Uani
C11 C 0.6273(5) 0.0557(4) 0.99047(18) 0.0300 Uani
C12 C 0.6631(6) -0.1895(5) 0.9426(2) 0.0470 Uani
H7 H 0.6493 -0.2539 0.9488 0.0560 Uiso
C13 C 0.7120(5) -0.1664(5) 0.9071(2) 0.0420 Uani
C14 C 0.5716(5) 0.3284(5) 0.99463(19) 0.0357 Uani
O1M O 0.8927(3) -0.0003(6) 0.62926(14) 0.0610 Uani
C1M C 0.8025(4) 0.0033(7) 0.82826(16) 0.0370 Uani
H1M H 0.7933 0.0678 0.8357 0.0440 Uiso
C2M C 0.8655(6) -0.1184(6) 0.7810(3) 0.0453 Uani
H2M H 0.8977 -0.1348 0.7563 0.0540 Uiso
C3M C 0.8907(6) 0.1510(5) 0.7725(2) 0.0333 Uani
H3M H 0.8885 0.1666 0.8010 0.0400 Uiso
C4M C 0.9047(5) 0.1053(5) 0.6874(2) 0.0383 Uani
C5M C 0.8480(5) -0.0196(5) 0.78993(17) 0.0353 Uani
O2M O 0.9409(4) 0.3850(3) 0.72605(13) 0.0443 Uani
C6M C 0.9121(4) 0.2236(4) 0.74248(17) 0.0300 Uani
O3M O 0.9601(5) 0.1349(4) 0.61742(16) 0.0727 Uani
C7M C 0.9168(6) 0.0731(7) 0.6408(2) 0.0507 Uani
O4M O 0.9301(4) 0.3493(3) 0.79435(13) 0.0417 Uani
C8M C 0.8797(5) 0.0359(5) 0.71601(17) 0.0393 Uani
H4M H 0.8668 -0.0265 0.7065 0.0470 Uiso
C9M C 0.9196(5) 0.1989(5) 0.70033(18) 0.0377 Uani
H5M H 0.9350 0.2463 0.6806 0.0450 Uiso
C10M C 0.7717(5) -0.0689(5) 0.85477(19) 0.0373 Uani
C11M C 0.8727(5) 0.0557(4) 0.75953(18) 0.0300 Uani
C12M C 0.8369(6) -0.1895(5) 0.8074(2) 0.0470 Uani
H7M H 0.8507 -0.2539 0.8012 0.0560 Uiso
C13M C 0.7880(5) -0.1664(5) 0.8429(2) 0.0420 Uani
C14M C 0.9284(5) 0.3284(5) 0.75537(19) 0.0357 Uani
Tb1A Tb 1.0000 0.5000 0.817706(8) 0.0260 Uani
Tb1D Tb 0.5000 0.5000 1.067706(8) 0.0260 Uani
Tb1H Tb 1.0000 0.5000 0.682294(8) 0.0260 Uani
Tb1L Tb 1.0000 -0.0000 0.567706(8) 0.0260 Uani
Tb1N Tb 0.5000 0.5000 0.932294(8) 0.0260 Uani
O1B O 0.3927(3) 0.0003(6) 1.12074(14) 0.0610 Uani
O2D O 0.5591(4) 0.1150(3) 1.22605(13) 0.0443 Uani
O2E O 0.4409(4) -0.1150(3) 1.22605(13) 0.0443 Uani
O3B O 0.4601(5) -0.1349(4) 1.13258(16) 0.0727 Uani
O4F O 0.6507(3) -0.0699(4) 1.20565(13) 0.0417 Uani
O4G O 0.3493(3) 0.0699(4) 1.20565(13) 0.0417 Uani
loop_
_atom_site_aniso_label
_atom_site_aniso_U_11
_atom_site_aniso_U_22
_atom_site_aniso_U_33
_atom_site_aniso_U_23
_atom_site_aniso_U_13
_atom_site_aniso_U_12
Tb1 0.0358(2) 0.0326(2) 0.00968(19) 0.000 0.000 0.0012(3)
O1 0.057(3) 0.088(4) 0.038(3) 0.044(4) 0.001(2) -0.012(4)
C1 0.054(3) 0.030(3) 0.027(3) -0.014(4) 0.006(2) -0.002(5)
C2 0.059(5) 0.047(5) 0.030(4) 0.001(4) 0.000(4) -0.005(4)
C3 0.045(4) 0.037(4) 0.018(4) 0.008(3) 0.002(3) -0.003(3)
C4 0.051(4) 0.047(4) 0.017(3) 0.005(3) 0.001(3) -0.006(3)
C5 0.046(3) 0.039(5) 0.021(3) 0.003(3) 0.006(3) 0.003(3)
O2 0.069(3) 0.039(3) 0.025(3) -0.006(2) 0.002(2) -0.001(2)
C6 0.041(4) 0.027(3) 0.022(3) 0.002(2) 0.000(3) 0.001(3)
O3 0.138(6) 0.051(3) 0.029(2) -0.009(2) 0.009(3) -0.009(3)
C7 0.052(5) 0.085(6) 0.015(4) -0.009(4) -0.001(3) -0.001(5)
O4 0.071(3) 0.032(2) 0.022(2) -0.0020(19) 0.003(2) -0.008(2)
C8 0.054(4) 0.045(4) 0.019(3) 0.007(3) 0.000(3) -0.009(3)
C9 0.051(4) 0.047(4) 0.015(3) -0.008(3) 0.001(3) -0.010(3)
N1 0.068(6) 0.023(4) 0.050(6) 0.000 -0.004(5) 0.000
C10 0.046(4) 0.035(4) 0.031(3) -0.005(3) 0.005(3) 0.001(3)
C11 0.039(4) 0.031(3) 0.020(3) 0.004(3) 0.003(3) 0.007(3)
C12 0.073(5) 0.024(3) 0.044(4) 0.010(3) 0.011(4) 0.006(4)
C13 0.048(4) 0.025(3) 0.053(5) 0.011(3) -0.001(4) -0.003(3)
C14 0.039(3) 0.045(4) 0.023(3) -0.003(3) -0.002(3) -0.001(3)
O1M 0.057 0.088 0.038 -0.044 0.001 0.012
C1M 0.054 0.03 0.027 0.014 0.006 0.002
C2M 0.059 0.047 0.03 -0.001 0 0.005
C3M 0.045 0.037 0.018 -0.008 0.002 0.003
C4M 0.051 0.047 0.017 -0.005 0.001 0.006
C5M 0.046 0.039 0.021 -0.003 0.006 -0.003
O2M 0.069 0.039 0.025 0.006 0.002 0.001
C6M 0.041 0.027 0.022 -0.002 0 -0.001
O3M 0.138 0.051 0.029 0.009 0.009 0.009
C7M 0.052 0.085 0.015 0.009 -0.001 0.001
O4M 0.071 0.032 0.022 0.002 0.003 0.008
C8M 0.054 0.045 0.019 -0.007 0 0.009
C9M 0.051 0.047 0.015 0.008 0.001 0.01
C10M 0.046 0.035 0.031 0.005 0.005 -0.001
C11M 0.039 0.031 0.02 -0.004 0.003 -0.007
C12M 0.073 0.024 0.044 -0.01 0.011 -0.006
C13M 0.048 0.025 0.053 -0.011 -0.001 0.003
C14M 0.039 0.045 0.023 0.003 -0.002 0.001
Tb1A 0.0326 0.0358 0.00968 0 0 -0.0012
Tb1D 0.0358 0.0326 0.00968 0 0 -0.0012
Tb1H 0.0358 0.0326 0.00968 0 0 0.0012
Tb1L 0.0358 0.0326 0.00968 0 0 -0.0012
Tb1N 0.0326 0.0358 0.00968 0 0 0.0012
O1B 0.057 0.088 0.038 -0.044 -0.001 -0.012
O2D 0.069 0.039 0.025 -0.006 -0.002 0.001
O2E 0.069 0.039 0.025 0.006 0.002 0.001
O3B 0.138 0.051 0.029 0.009 -0.009 -0.009
O4F 0.032 0.071 0.022 -0.003 0.002 -0.008
O4G 0.032 0.071 0.022 0.003 -0.002 -0.008
loop_
_geom_bond_atom_site_label_1
_geom_bond_atom_site_label_2
_geom_bond_site_symmetry_1
_geom_bond_site_symmetry_2
Tb1 O1 1_555 1_555
O1 C7 1_555 1_555
C1 H1 1_555 1_555
C2 H2 1_555 1_555
C3 H3 1_555 1_555
C4 C7 1_555 1_555
C5 C1 1_555 1_555
O2 C14 1_555 1_555
C6 C3 1_555 1_555
O3 Tb1 1_555 1_555
C7 O3 1_555 1_555
O4 C14 1_555 1_555
C8 C4 1_555 1_555
H4 C8 1_555 1_555
C9 C4 1_555 1_555
H5 C9 1_555 1_555
N1 H6 1_555 1_555
C10 C1 1_555 1_555
C11 C3 1_555 1_555
C12 C2 1_555 1_555
H7 C12 1_555 1_555
C13 N1 1_555 1_555
C14 C6 1_555 1_555
O1M C7M 1_555 1_555
C1M H1M 1_555 1_555
C2M H2M 1_555 1_555
C3M H3M 1_555 1_555
C4M C7M 1_555 1_555
C5M C1M 1_555 1_555
O2M C14M 1_555 1_555
C6M C3M 1_555 1_555
O3M C7M 1_555 1_555
O4M C14M 1_555 1_555
C8M C4M 1_555 1_555
H4M C8M 1_555 1_555
C9M C4M 1_555 1_555
H5M C9M 1_555 1_555
C10M C10 1_555 1_555
C11M C3M 1_555 1_555
C12M C2M 1_555 1_555
H7M C12M 1_555 1_555
C13M N1 1_555 1_555
C14M C6M 1_555 1_555
Tb1A O4M 1_555 1_555
Tb1D O2 1_555 1_555
Tb1H O2M 1_555 1_555
Tb1L O1M 1_555 1_555
Tb1N O4 1_555 1_555
O1B Tb1 1_555 1_555
O2D Tb1 1_555 1_555
O2E Tb1 1_555 1_555
O3B Tb1 1_555 1_555
O4F Tb1 1_555 1_555
O4G Tb1 1_555 1_555
C2 C5 1_555 1_555
C5 C11 1_555 1_555
C6 C9 1_555 1_555
C8 C11 1_555 1_555
C10 C13 1_555 1_555
C12 C13 1_555 1_555
C1M C10M 1_555 1_555
C2M C5M 1_555 1_555
C5M C11M 1_555 1_555
C6M C9M 1_555 1_555
O3M Tb1L 1_555 1_555
C8M C11M 1_555 1_555
C10M C13M 1_555 1_555
C12M C13M 1_555 1_555

#END
