
#######################################################################
#
#                 Cambridge Crystallographic Data Centre
#                                CCDC 
#
#######################################################################
#
# If this CIF has been generated from an entry in the Cambridge 
# Structural Database, then it will include bibliographic, chemical, 
# crystal, experimental, refinement or atomic coordinate data resulting 
# from the CCDC's data processing and validation procedures.
#
#######################################################################

data_EXAXAE
_chemical_formula_moiety         '(C7 H5 Cu2 I1 N1 O5)n'
_symmetry_cell_setting           tetragonal
_symmetry_space_group_name_H-M   'P 4/n m m'
_symmetry_Int_Tables_number      129
_space_group_name_Hall           '-P 4a 2a'
loop_
_symmetry_equiv_pos_site_id
_symmetry_equiv_pos_as_xyz
1 x,y,z
2 1/2-y,x,z
3 1/2-x,1/2-y,z
4 y,1/2-x,z
5 1/2+x,-y,-z
6 -x,1/2+y,-z
7 1/2+y,1/2+x,-z
8 -y,-x,-z
9 -x,-y,-z
10 1/2+y,-x,-z
11 1/2+x,1/2+y,-z
12 -y,1/2+x,-z
13 1/2-x,y,z
14 x,1/2-y,z
15 1/2-y,1/2-x,z
16 y,x,z
_cell_length_a                   19.1501(17)
_cell_length_b                   19.1501(17)
_cell_length_c                   11.1190(12)
_cell_angle_alpha                90
_cell_angle_beta                 90
_cell_angle_gamma                90
_cell_volume                     4077.63
loop_
_atom_site_label
_atom_site_type_symbol
_atom_site_fract_x
_atom_site_fract_y
_atom_site_fract_z
_atom_site_U_iso_or_equiv
_atom_site_thermal_displace_type
C1 C 0.5792(2) 0.3092(2) 0.2423(4) 0.0433 Uani
H1 H 0.5941 0.3511 0.2759 0.0520 Uiso
C2 C 0.5343(2) 0.3119(2) 0.1458(3) 0.0335 Uani
C3 C 0.5117(3) 0.2500 0.0958(5) 0.0357 Uani
H2 H 0.4819 0.2500 0.0297 0.0430 Uiso
C4 C 0.5159(2) 0.3816(2) 0.0921(3) 0.0323 Uani
Cu1 Cu 0.5309 0.5309 0.0934(1) 0.0231 Uani
Cu2 Cu 0.6808(1) 0.2500 0.4144(1) 0.0546 Uani
I1 I 0.6292 0.2500 0.6343 0.0570 Uani
N1 N 0.6024(3) 0.2500 0.2903(5) 0.0497 Uani
O1 O 0.4838(2) 0.3815(1) -0.0057(3) 0.0404 Uani
O2 O 0.5364(2) 0.4340(1) 0.1498(2) 0.0394 Uani
O3 O 0.5735(2) 0.5735(2) 0.2543(4) 0.0677 Uani
C1M C 0.5792(2) 0.1908(2) 0.2423(4) 0.0433 Uani
H1M H 0.5941 0.1489 0.2759 0.0520 Uiso
C2M C 0.5343(2) 0.1881(2) 0.1458(3) 0.0335 Uani
C4M C 0.5159(2) 0.1184(2) 0.0921(3) 0.0323 Uani
O1M O 0.4838(2) 0.1185(1) -0.0057(3) 0.0404 Uani
O2M O 0.5364(2) 0.0660(1) 0.1498(2) 0.0394 Uani
Cu1C Cu 0.5309 -0.0309 0.0934(1) 0.0231 Uani
Cu1E Cu 0.4691 0.0309 -0.0934(1) 0.0231 Uani
Cu1G Cu 0.4691 0.4691 -0.0934(1) 0.0231 Uani
Cu2F Cu 0.7500 0.1808(1) 0.5856(1) 0.0546 Uani
Cu2G Cu 0.7500 0.3192(1) 0.5856(1) 0.0546 Uani
I1F I 0.7500 0.1292 0.3657 0.0570 Uani
I1G I 0.7500 0.3708 0.3657 0.0570 Uani
O1G O 0.6185(1) 0.5162(2) 0.0057(3) 0.0404 Uani
O1H O 0.5162(2) 0.6185(1) 0.0057(3) 0.0404 Uani
O2O O 0.4340(1) 0.5364(2) 0.1498(2) 0.0394 Uani
loop_
_atom_site_aniso_label
_atom_site_aniso_U_11
_atom_site_aniso_U_22
_atom_site_aniso_U_33
_atom_site_aniso_U_23
_atom_site_aniso_U_13
_atom_site_aniso_U_12
C1 0.058(2) 0.0260(18) 0.046(2) -0.0023(16) -0.0196(19) -0.0002(16)
C2 0.0375(19) 0.0245(17) 0.0384(19) 0.0003(14) -0.0080(15) 0.0012(13)
C3 0.037(3) 0.026(2) 0.044(3) 0.00000 -0.011(2) 0.00000
C4 0.0281(16) 0.0247(17) 0.044(2) -0.0021(14) -0.0061(15) 0.0046(13)
Cu1 0.0207(2) 0.0207(2) 0.0280(4) -0.00763(17) -0.00763(17) 0.0035(2)
Cu2 0.0745(7) 0.0383(5) 0.0511(6) 0.00000 -0.0344(5) 0.00000
I1 0.0308(2) 0.0719(3) 0.0683(3) 0.00000 0.00382(17) 0.00000
N1 0.068(3) 0.025(2) 0.056(3) 0.00000 -0.029(3) 0.00000
O1 0.048 0.024 0.0491 0.0023 -0.0177 0.0011
O2 0.0550(16) 0.0219(12) 0.0412(14) -0.0017(10) -0.0154(12) 0.0042(10)
O3 0.076(2) 0.076(2) 0.051(3) -0.0260(17) -0.0260(17) -0.010(3)
C1M 0.058 0.026 0.046 0.0023 -0.0196 0.0002
C2M 0.0375 0.0245 0.0384 -0.0003 -0.008 -0.0012
C4M 0.0281 0.0247 0.044 0.0021 -0.0061 -0.0046
O1M 0.048 0.024 0.0491 -0.0023 -0.0177 -0.0011
O2M 0.055 0.0219 0.0412 0.0017 -0.0154 -0.0042
Cu1C 0.0207 0.0207 0.028 0.00763 -0.00763 -0.0035
Cu1E 0.0207 0.0207 0.028 0.00763 -0.00763 -0.0035
Cu1G 0.0207 0.0207 0.028 -0.00763 -0.00763 0.0035
Cu2F 0.0383 0.0745 0.0511 0.0344 0 0
Cu2G 0.0383 0.0745 0.0511 -0.0344 0 0
I1F 0.0719 0.0308 0.0683 -0.00382 0 0
I1G 0.0719 0.0308 0.0683 0.00382 0 0
O1G 0.024 0.048 0.0491 -0.0177 0.0023 0.0011
O1H 0.048 0.024 0.0491 0.0023 -0.0177 0.0011
O2O 0.0219 0.055 0.0412 -0.0154 -0.0017 0.0042
loop_
_geom_bond_atom_site_label_1
_geom_bond_atom_site_label_2
_geom_bond_site_symmetry_1
_geom_bond_site_symmetry_2
C1 H1 1_555 1_555
C2 C1 1_555 1_555
C3 C2 1_555 1_555
H2 C3 1_555 1_555
C4 C2 1_555 1_555
Cu1 O2 1_555 1_555
Cu2 I1 1_555 1_555
I1 Cu2F 1_555 1_555
N1 C1 1_555 1_555
O1 C4 1_555 1_555
O2 C4 1_555 1_555
O3 Cu1 1_555 1_555
C1M N1 1_555 1_555
H1M C1M 1_555 1_555
C2M C3 1_555 1_555
C4M C2M 1_555 1_555
O1M C4M 1_555 1_555
O2M C4M 1_555 1_555
Cu1C O2M 1_555 1_555
Cu1E O1M 1_555 1_555
Cu1G O1 1_555 1_555
Cu2F I1F 1_555 1_555
Cu2G I1 1_555 1_555
I1F Cu2 1_555 1_555
I1G Cu2 1_555 1_555
O1G Cu1 1_555 1_555
O1H Cu1 1_555 1_555
O2O Cu1 1_555 1_555
Cu2 N1 1_555 1_555
C1M C2M 1_555 1_555
Cu2G I1G 1_555 1_555

#END
