
#######################################################################
#
#                 Cambridge Crystallographic Data Centre
#                                CCDC 
#
#######################################################################
#
# If this CIF has been generated from an entry in the Cambridge 
# Structural Database, then it will include bibliographic, chemical, 
# crystal, experimental, refinement or atomic coordinate data resulting 
# from the CCDC's data processing and validation procedures.
#
#######################################################################

data_CAYCAI
_chemical_formula_moiety         'C20 H54 Mo12 N4 Na2 O65 P8 Rb5 1-'
_symmetry_cell_setting           triclinic
_symmetry_space_group_name_H-M   'P -1'
_symmetry_Int_Tables_number      2
_space_group_name_Hall           '-P 1'
loop_
_symmetry_equiv_pos_site_id
_symmetry_equiv_pos_as_xyz
1 x,y,z
2 -x,-y,-z
_cell_length_a                   16.0671(16)
_cell_length_b                   16.3128(16)
_cell_length_c                   20.8626(19)
_cell_angle_alpha                72.919(2)
_cell_angle_beta                 72.729(2)
_cell_angle_gamma                80.883(2)
_cell_volume                     4975.98
loop_
_atom_site_label
_atom_site_type_symbol
_atom_site_fract_x
_atom_site_fract_y
_atom_site_fract_z
O1 O 0.2734(6) 0.7786(4) 0.3913(5)
Mo1 Mo 0.78702(5) 0.52824(5) 0.25441(4)
Mo2 Mo 0.69713(6) 0.42218(6) 0.44078(4)
Mo3 Mo 0.83280(6) 0.43939(5) 0.52001(4)
Mo4 Mo 0.88000(5) 0.79922(5) 0.34609(4)
Mo5 Mo 0.83212(7) 1.03519(5) 0.31448(5)
Mo6 Mo 0.63803(7) 1.06742(6) 0.40400(5)
Mo7 Mo 1.05208(5) 0.83141(5) 0.01583(4)
Mo8 Mo 1.08171(5) 0.63935(5) 0.00062(4)
P1 P 0.83167(15) 0.59699(14) 0.37950(11)
P2 P 0.92319(15) 0.42888(14) 0.35820(12)
P3 P 0.74196(17) 0.88687(15) 0.47196(12)
P4 P 0.66993(16) 0.88776(15) 0.35537(12)
P5 P 0.89808(14) 0.67237(13) 0.11701(11)
P6 P 0.90056(15) 0.74576(15) -0.03277(12)
O2 O 0.8133(4) 0.6173(3) 0.3087(3)
O3 O 0.7654(4) 0.5417(4) 0.4405(3)
O4 O 0.9702(4) 0.5948(4) 0.0184(3)
O5 O 0.6973(4) 0.9813(4) 0.3246(3)
O6 O 0.9939(3) 0.6953(3) 0.0933(3)
O7 O 0.8882(3) 0.5889(3) 0.1769(3)
O8 O 0.7224(4) 0.4711(4) 0.3441(3)
O9 O 0.5869(4) 0.8800(4) 0.3373(3)
O10 O 0.9312(4) 0.4979(4) 0.4540(3)
O11 O 0.8981(3) 0.4540(3) 0.2892(3)
O12 O 0.8320(3) 0.7453(3) 0.1338(3)
O13 O 0.8412(4) 0.6778(3) 0.3978(3)
O14 O 0.7431(4) 0.8215(3) 0.3353(3)
O15 O 0.8124(4) 0.8207(4) 0.4468(3)
O16 O 0.8331(3) 0.8166(3) -0.0096(3)
O17 O 0.7226(5) 0.8797(4) 0.5480(3)
O18 O 0.9969(3) 0.7633(3) -0.0410(3)
O19 O 0.9358(3) 0.8765(3) 0.0465(3)
O20 O 0.7252(4) 0.3991(4) 0.5302(3)
O21 O 0.8472(4) 0.3912(3) 0.4201(3)
O22 O 0.7921(4) 0.9086(4) 0.1476(3)
O23 O 0.7622(4) 0.9803(4) 0.4281(3)
O24 O 0.8936(4) 0.7251(4) -0.0960(3)
O25 O 0.9095(4) 0.7799(4) 0.2661(3)
O26 O 0.7110(4) 0.6052(4) 0.2301(3)
O27 O 0.8770(4) 0.9207(4) 0.3162(3)
O28 O 1.0061(4) 0.3713(4) 0.3593(3)
O29 O 0.9111(6) 1.0743(5) 0.3317(4)
O30 O 1.1369(4) 0.7346(4) -0.0018(3)
O31 O 1.1280(4) 0.5583(4) 0.0565(3)
O32 O 0.6043(4) 0.7051(4) 0.3523(3)
O33 O 0.5900(4) 0.9590(4) 0.4553(3)
O34 O 1.0916(4) 0.8450(4) 0.0799(3)
O35 O 0.7847(4) 0.4550(4) 0.2120(3)
O36 O 0.8522(6) 1.0733(4) 0.2266(4)
O37 O 0.6243(5) 1.1140(4) 0.4695(4)
O38 O 0.9765(4) 0.7776(4) 0.3686(4)
O39 O 0.6763(5) 0.3215(5) 0.4445(4)
O40 O 0.5965(4) 0.4696(6) 0.4661(4)
O41 O 0.8054(5) 0.5036(5) 0.5761(4)
O42 O 0.7356(5) 1.1184(4) 0.3394(4)
C1 C 0.9334(5) 0.5274(5) 0.3804(4)
C2 C 1.0189(6) 0.5688(6) 0.3426(5)
H1 H 1.0662 0.5281 0.3549
H2 H 1.0185 0.6184 0.3594
C3 C 1.0390(6) 0.5983(6) 0.2620(5)
H3 H 1.0469 0.5482 0.2441
H4 H 0.9895 0.6346 0.2490
C4 C 1.1197(10) 0.6471(10) 0.2297(7)
H5 H 1.1076 0.7022 0.2409
H6 H 1.1661 0.6154 0.2500
N1 N 1.1482(7) 0.6610(8) 0.1592(5)
H7 H 1.1096 0.6999 0.1407
H8 H 1.1458 0.6115 0.1492
C5 C 1.2350(8) 0.6904(13) 0.1232(8)
H9 H 1.2352 0.7254 0.0773
H10 H 1.2766 0.6416 0.1201
H11 H 1.2505 0.7236 0.1485
C6 C 0.6435(6) 0.8773(5) 0.4485(5)
C7 C 0.5872(7) 0.8051(6) 0.4966(5)
H12 H 0.5685 0.8140 0.5429
H13 H 0.5352 0.8093 0.4809
C8 C 0.6301(7) 0.7161(7) 0.5012(6)
H14 H 0.6808 0.7094 0.5190
H15 H 0.6494 0.7056 0.4555
C9 C 0.5607(7) 0.6486(7) 0.5525(6)
H16 H 0.5375 0.6634 0.5966
H17 H 0.5125 0.6528 0.5325
N2 N 0.5980(8) 0.5650(7) 0.5641(6)
H18 H 0.6509 0.5657 0.5704
H19 H 0.6071 0.5485 0.5249
C10 C 0.5538(10) 0.5019(9) 0.6191(7)
H20 H 0.5743 0.4951 0.6593
H21 H 0.5644 0.4484 0.6064
H22 H 0.4922 0.5186 0.6294
C11 C 0.8897(10) 0.6483(9) 0.0375(8)
C12 C 0.8138(9) 0.5936(9) 0.0490(8)
H23 H 0.8226 0.5727 0.0082
H24 H 0.8146 0.5440 0.0883
C13 C 0.7221(7) 0.6450(8) 0.0627(6)
H25 H 0.7127 0.6654 0.1037
H26 H 0.7212 0.6948 0.0236
C14 C 0.6475(8) 0.5894(8) 0.0734(6)
H27 H 0.5924 0.6243 0.0770
H28 H 0.6585 0.5647 0.0344
N3 N 0.6442(7) 0.5195(7) 0.1394(6)
H29 H 0.6988 0.5013 0.1431
H30 H 0.6150 0.5401 0.1762
C15 C 0.5999(9) 0.4464(8) 0.1392(8)
H31 H 0.5662 0.4656 0.1057
H32 H 0.5619 0.4249 0.1845
H33 H 0.6429 0.4015 0.1272
Mo9 Mo 0.52721(5) 0.78126(6) 0.32860(4)
Mo10 Mo 0.43147(6) 0.69641(6) 0.22260(5)
Mo11 Mo 0.44864(6) 0.83662(6) 0.07722(4)
Mo12 Mo 0.81184(5) 0.88151(5) 0.07096(4)
P7 P 0.43096(15) 0.91892(17) 0.20741(13)
P8 P 0.60477(14) 0.83302(14) 0.15077(11)
O43 O 0.6215(3) 0.8117(3) 0.2217(3)
O44 O 0.5516(3) 0.7694(3) 0.1419(3)
O45 O 0.5067(4) 0.9325(4) 0.0765(3)
O46 O 0.6885(3) 0.8450(3) 0.0922(3)
O47 O 0.3954(4) 0.8441(4) 0.1937(3)
O48 O 0.4134(5) 0.7269(5) 0.1287(4)
O49 O 0.3697(4) 0.9977(4) 0.1977(3)
O50 O 0.7905(4) 0.9765(4) 0.0159(3)
O51 O 0.4735(4) 0.7219(4) 0.2892(3)
O52 O 0.5138(5) 0.8153(4) 0.0024(3)
O53 O 0.4845(5) 0.5973(4) 0.2194(4)
O54 O 0.4533(4) 0.8928(4) 0.2765(3)
O55 O 0.3277(5) 0.6725(6) 0.2698(4)
C16 C 0.5313(9) 0.9322(8) 0.1387(7)
C17 C 0.5753(8) 1.0160(8) 0.1224(7)
H34 H 0.6254 1.0171 0.0824
H35 H 0.5344 1.0639 0.1088
C18 C 0.6055(6) 1.0314(6) 0.1786(5)
H36 H 0.6378 0.9800 0.1994
H37 H 0.5556 1.0451 0.2146
C19 C 0.6692(10) 1.1124(9) 0.1444(7)
H38 H 0.7264 1.0925 0.1196
H39 H 0.6443 1.1571 0.1114
N4 N 0.6766(7) 1.1421(6) 0.1902(6)
H40 H 0.7026 1.1003 0.2186
H41 H 0.6224 1.1542 0.2155
C20 C 0.7262(8) 1.2213(7) 0.1689(7)
H42 H 0.7843 1.2103 0.1416
H43 H 0.7290 1.2354 0.2097
H44 H 0.6967 1.2685 0.1419
O56 O 1.0938(4) 0.9094(4) -0.0556(3)
O57 O 0.8873(4) 0.3490(4) 0.5594(3)
O58 O 1.1309(4) 0.6221(4) -0.0791(3)
O59 O 0.5578(5) 1.1173(5) 0.3642(4)
O60 O 0.3553(4) 0.8902(5) 0.0572(4)
O61 O 0.4501(4) 0.7795(5) 0.4041(3)
Na1 Na 0.7517(2) 0.7480(2) 0.24982(17)
Na2 Na 0.8123(4) 0.1727(3) 0.4486(3)
O62 O 0.7982(6) 0.2816(4) 0.3135(5)
Rb1 Rb 0.95801(7) 0.94591(7) 0.16032(5)
Rb2 Rb 0.91654(8) 0.65777(8) 0.52259(6)
Rb3 Rb 0.99595(7) 0.42508(7) 0.14196(6)
Rb4 Rb 1.33452(7) 0.07726(7) 0.05861(6)
Rb5 Rb 0.57388(9) 1.00339(9) 0.61273(7)
O63 O 0.6151(9) 0.8759(8) 0.7412(7)
O64 O 1.2656(8) 0.2221(10) 0.1283(7)
O65 O 1.1270(9) 0.3748(11) 0.2273(7)
loop_
_geom_bond_atom_site_label_1
_geom_bond_atom_site_label_2
_geom_bond_site_symmetry_1
_geom_bond_site_symmetry_2
Mo1 O2 1_555 1_555
Mo2 O3 1_555 1_555
Mo3 O3 1_555 1_555
Mo4 O13 1_555 1_555
Mo5 O5 1_555 1_555
Mo6 O5 1_555 1_555
Mo7 O6 1_555 1_555
Mo8 O4 1_555 1_555
P1 O2 1_555 1_555
P2 O11 1_555 1_555
P3 O15 1_555 1_555
P4 O5 1_555 1_555
P5 O6 1_555 1_555
P6 O16 1_555 1_555
O3 P1 1_555 1_555
O4 C11 1_555 1_555
O6 Mo8 1_555 1_555
O7 Mo1 1_555 1_555
O8 Mo1 1_555 1_555
O9 P4 1_555 1_555
O10 Mo3 1_555 1_555
O11 Mo1 1_555 1_555
O12 P5 1_555 1_555
O13 P1 1_555 1_555
O14 Mo4 1_555 1_555
O15 Mo4 1_555 1_555
O16 Mo12 1_555 1_555
O17 P3 1_555 1_555
O18 Mo7 1_555 1_555
O19 Mo7 1_555 1_555
O20 Mo2 1_555 1_555
O21 Mo2 1_555 1_555
O22 Mo12 1_555 1_555
O23 Mo5 1_555 1_555
O24 P6 1_555 1_555
O25 Mo4 1_555 1_555
O26 Mo1 1_555 1_555
O27 Mo4 1_555 1_555
O28 P2 1_555 1_555
O29 Mo5 1_555 1_555
O30 Mo7 1_555 1_555
O31 Mo8 1_555 1_555
O32 Mo9 1_555 1_555
O33 Mo6 1_555 1_555
O34 Mo7 1_555 1_555
O35 Mo1 1_555 1_555
O36 Mo5 1_555 1_555
O37 Mo6 1_555 1_555
O38 Mo4 1_555 1_555
O39 Mo2 1_555 1_555
O40 Mo2 1_555 1_555
O41 Mo3 1_555 1_555
O42 Mo5 1_555 1_555
C1 P1 1_555 1_555
C2 C1 1_555 1_555
H1 C2 1_555 1_555
H2 C2 1_555 1_555
C3 C2 1_555 1_555
H3 C3 1_555 1_555
H4 C3 1_555 1_555
C4 C3 1_555 1_555
H5 C4 1_555 1_555
H6 C4 1_555 1_555
N1 C4 1_555 1_555
H7 N1 1_555 1_555
H8 N1 1_555 1_555
C5 N1 1_555 1_555
H9 C5 1_555 1_555
H10 C5 1_555 1_555
H11 C5 1_555 1_555
C6 P3 1_555 1_555
C7 C6 1_555 1_555
H12 C7 1_555 1_555
H13 C7 1_555 1_555
C8 C7 1_555 1_555
H14 C8 1_555 1_555
H15 C8 1_555 1_555
C9 C8 1_555 1_555
H16 C9 1_555 1_555
H17 C9 1_555 1_555
N2 C9 1_555 1_555
H18 N2 1_555 1_555
H19 N2 1_555 1_555
C10 N2 1_555 1_555
H20 C10 1_555 1_555
H21 C10 1_555 1_555
H22 C10 1_555 1_555
C11 P5 1_555 1_555
C12 C11 1_555 1_555
H23 C12 1_555 1_555
H24 C12 1_555 1_555
C13 C12 1_555 1_555
H25 C13 1_555 1_555
H26 C13 1_555 1_555
C14 C13 1_555 1_555
H27 C14 1_555 1_555
H28 C14 1_555 1_555
N3 C14 1_555 1_555
H29 N3 1_555 1_555
H30 N3 1_555 1_555
C15 N3 1_555 1_555
H31 C15 1_555 1_555
H32 C15 1_555 1_555
H33 C15 1_555 1_555
Mo9 O9 1_555 1_555
Mo10 O44 1_555 1_555
Mo11 O44 1_555 1_555
Mo12 O12 1_555 1_555
P7 O47 1_555 1_555
P8 O43 1_555 1_555
O43 Mo9 1_555 1_555
O44 P8 1_555 1_555
O45 Mo11 1_555 1_555
O46 Mo12 1_555 1_555
O47 Mo10 1_555 1_555
O48 Mo10 1_555 1_555
O49 P7 1_555 1_555
O50 Mo12 1_555 1_555
O51 Mo9 1_555 1_555
O52 Mo11 1_555 1_555
O53 Mo10 1_555 1_555
O54 Mo9 1_555 1_555
O55 Mo10 1_555 1_555
C16 P7 1_555 1_555
C17 C16 1_555 1_555
H34 C17 1_555 1_555
H35 C17 1_555 1_555
C18 C17 1_555 1_555
H36 C18 1_555 1_555
H37 C18 1_555 1_555
C19 C18 1_555 1_555
H38 C19 1_555 1_555
H39 C19 1_555 1_555
N4 C19 1_555 1_555
H40 N4 1_555 1_555
H41 N4 1_555 1_555
C20 N4 1_555 1_555
H42 C20 1_555 1_555
H43 C20 1_555 1_555
H44 C20 1_555 1_555
O56 Mo7 1_555 1_555
O57 Mo3 1_555 1_555
O58 Mo8 1_555 1_555
O59 Mo6 1_555 1_555
O60 Mo11 1_555 1_555
O61 Mo9 1_555 1_555
Mo2 O8 1_555 1_555
Mo3 O20 1_555 1_555
Mo3 O21 1_555 1_555
Mo5 O27 1_555 1_555
Mo6 O23 1_555 1_555
Mo6 O42 1_555 1_555
Mo8 O18 1_555 1_555
Mo8 O30 1_555 1_555
P2 O21 1_555 1_555
P2 C1 1_555 1_555
P3 O23 1_555 1_555
P4 O14 1_555 1_555
P4 C6 1_555 1_555
P5 O7 1_555 1_555
P6 O18 1_555 1_555
P6 C11 1_555 1_555
O10 C1 1_555 1_555
O19 Mo12 1_555 1_555
O33 C6 1_555 1_555
Mo10 O51 1_555 1_555
Mo11 O47 1_555 1_555
Mo11 O48 1_555 1_555
P7 O54 1_555 1_555
P8 O46 1_555 1_555
P8 C16 1_555 1_555
O45 C16 1_555 1_555

#END
