
#######################################################################
#
#                 Cambridge Crystallographic Data Centre
#                                CCDC 
#
#######################################################################
#
# If this CIF has been generated from an entry in the Cambridge 
# Structural Database, then it will include bibliographic, chemical, 
# crystal, experimental, refinement or atomic coordinate data resulting 
# from the CCDC's data processing and validation procedures.
#
#######################################################################

data_DEPJIR01
_chemical_formula_moiety         '(C4 H8 N2 O6 Zn1)n'
_symmetry_cell_setting           orthorhombic
_symmetry_space_group_name_H-M   'P n n a'
_symmetry_Int_Tables_number      52
_space_group_name_Hall           '-P 2a 2bc'
loop_
_symmetry_equiv_pos_site_id
_symmetry_equiv_pos_as_xyz
1 x,y,z
2 1/2-x,-y,z
3 x,1/2-y,1/2-z
4 1/2-x,1/2+y,1/2-z
5 -x,-y,-z
6 1/2+x,y,-z
7 -x,1/2+y,1/2+z
8 1/2+x,1/2-y,1/2+z
_cell_length_a                   8.717(3)
_cell_length_b                   11.617(10)
_cell_length_c                   8.289(2)
_cell_angle_alpha                90
_cell_angle_beta                 90
_cell_angle_gamma                90
_cell_volume                     839.389
loop_
_atom_site_label
_atom_site_type_symbol
_atom_site_fract_x
_atom_site_fract_y
_atom_site_fract_z
Zn1 Zn 0.23547(3) 0.25000 0.25000
O1 O 0.41277(15) 0.31678(12) 0.10538(15)
O2 O 0.08376(16) 0.17654(11) 0.41138(16)
O3 O 0.23734(13) 0.40508(10) 0.38366(14)
C1 C 0.47011(20) 0.28029(15) -0.02233(19)
C2 C 0.25000 0.50000 0.31394(25)
H1 H 0.425(3) 0.213(2) -0.062(3)
H2 H 0.250 0.500 0.190(5)
O1B O 0.41277(15) 0.18322(12) 0.39462(15)
O2B O 0.08376(16) 0.32346(11) 0.08862(16)
O3B O 0.23734(13) 0.09492(10) 0.11634(14)
C1G C -0.02989(20) 0.21971(15) 0.47767(19)
O2G O 0.58376(16) 0.32346(11) -0.08862(16)
O3A O 0.26266(13) 0.59492(10) 0.38366(14)
O1G O -0.08723(15) 0.18322(12) 0.60538(15)
H1G H -0.075(3) 0.287(2) 0.438(3)
Zn1G Zn 0.73547(3) 0.25000 -0.25000
Zn1C Zn 0.26453(3) 0.75000 0.25000
Zn1G_2 Zn -0.26453(3) 0.25000 0.75000
N1 N 0.64938(31) 0.06326(21) 0.22335(24)
C3 C 0.75000 0.00000 0.29427(42)
H3 H 0.750 0.000 0.393(5)
H4 H 0.654(3) 0.065(3) 0.142(2)
H5 H 0.588(4) 0.099(2) 0.284(3)
N1A N 0.85062(31) -0.06326(21) 0.22335(24)
H4A H 0.846(3) -0.065(3) 0.142(2)
H5A H 0.912(4) -0.099(2) 0.284(3)
loop_
_geom_bond_atom_site_label_1
_geom_bond_atom_site_label_2
_geom_bond_site_symmetry_1
_geom_bond_site_symmetry_2
Zn1 O1 1_555 1_555
O1 C1 1_555 1_555
O2 Zn1 1_555 1_555
O3 Zn1 1_555 1_555
C1 H1 1_555 1_555
C2 O3 1_555 1_555
H2 C2 1_555 1_555
N1 C3 1_555 1_555
C3 H3 1_555 1_555
H4 N1 1_555 1_555
H5 N1 1_555 1_555
O1B Zn1 1_555 1_555
O2B Zn1 1_555 1_555
O3B Zn1 1_555 1_555
C1G O2 1_555 1_555
O2G C1 1_555 1_555
O3A C2 1_555 1_555
O1G C1G 1_555 1_555
H1G C1G 1_555 1_555
Zn1G O2G 1_555 1_555
Zn1C O3A 1_555 1_555
Zn1G_2 O1G 1_555 1_555
N1A C3 1_555 1_555
H4A N1A 1_555 1_555
H5A N1A 1_555 1_555

#END
