
#######################################################################
#
#                 Cambridge Crystallographic Data Centre
#                                CCDC 
#
#######################################################################
#
# If this CIF has been generated from an entry in the Cambridge 
# Structural Database, then it will include bibliographic, chemical, 
# crystal, experimental, refinement or atomic coordinate data resulting 
# from the CCDC's data processing and validation procedures.
#
#######################################################################

data_KEYMUY
_chemical_formula_moiety         '(C18 H24 Cd1 N1 Na1 O14)n'
_symmetry_cell_setting           orthorhombic
_symmetry_space_group_name_H-M   'P c a 21'
_symmetry_Int_Tables_number      29
_space_group_name_Hall           'P 2c -2ac'
loop_
_symmetry_equiv_pos_site_id
_symmetry_equiv_pos_as_xyz
1 x,y,z
2 -x,-y,1/2+z
3 1/2+x,-y,z
4 1/2-x,y,1/2+z
_cell_length_a                   18.6294(10)
_cell_length_b                   9.9345(5)
_cell_length_c                   14.7424(8)
_cell_angle_alpha                90
_cell_angle_beta                 90
_cell_angle_gamma                90
_cell_volume                     2728.43
loop_
_atom_site_label
_atom_site_type_symbol
_atom_site_fract_x
_atom_site_fract_y
_atom_site_fract_z
Cd1 Cd -0.531550(19) 0.95931(3) 0.10302(5)
Na1 Na -0.44033(17) 0.9452(3) -0.1243(2)
O1 O -0.5070(3) 0.8100(4) -0.0052(3)
O2 O -0.5271(3) 0.6865(5) 0.1162(4)
O3 O -0.5430(3) 0.1817(5) 0.0709(4)
O4 O -0.5177(5) 0.0943(6) -0.0599(5)
O5 O -0.4794(4) 0.5077(7) -0.2645(4)
H1 H -0.4609 0.5824 -0.2684
O6 O -0.4242(3) 0.9888(7) 0.1655(4)
O7 O -0.4772(2) 1.1280(5) 0.2632(4)
O8 O -0.1573(2) 1.0942(6) 0.1096(5)
O9 O -0.0976(3) 1.0672(6) 0.2353(4)
O10 O -0.2635(3) 1.2185(7) 0.4800(4)
H2 H -0.2897 1.1760 0.5144
O11 O -0.3555(6) 0.9923(15) -0.0037(6)
O12 O -0.3594(3) 0.7712(7) -0.1664(5)
C1 C -0.5158(4) 0.6968(6) 0.0330(4)
C2 C -0.5134(4) 0.5735(7) -0.0258(4)
C3 C -0.5205(4) 0.4431(7) 0.0094(5)
H3 H -0.5289 0.4301 0.0709
C4 C -0.5147(4) 0.3332(6) -0.0485(4)
C5 C -0.5249(3) 0.1929(6) -0.0098(5)
C6 C -0.5004(4) 0.3486(7) -0.1409(4)
H4 H -0.4952 0.2741 -0.1786
C7 C -0.4940(5) 0.4800(8) -0.1755(5)
C8 C -0.5027(4) 0.5902(7) -0.1196(5)
H5 H -0.5014 0.6764 -0.1441
C9 C -0.4237(3) 1.0728(7) 0.2315(4)
C10 C -0.3499(3) 1.1029(7) 0.2696(4)
C11 C -0.2894(4) 1.0869(8) 0.2156(5)
H6 H -0.2941 1.0556 0.1564
C12 C -0.2214(3) 1.1181(7) 0.2503(4)
C13 C -0.1547(4) 1.0910(7) 0.1940(4)
C14 C -0.2156(4) 1.1651(9) 0.3391(5)
H7 H -0.1707 1.1883 0.3618
C15 C -0.2752(4) 1.1780(8) 0.3937(5)
C16 C -0.3434(4) 1.1457(7) 0.3580(5)
H8 H -0.3840 1.1534 0.3943
Cd1_2 Cd -0.531550(19) -0.04069(3) 0.10302(5)
Cd1B Cd -0.031550(19) 1.04069(3) 0.10302(5)
Na1_2 Na -0.44033(17) -0.0548(3) -0.1243(2)
Na1A Na -0.55967(17) 1.0548(3) 0.3757(2)
Na1C Na -0.05967(17) 0.9452(3) 0.3757(2)
O3_2 O -0.5430(3) 1.1817(5) 0.0709(4)
O4_2 O -0.5177(5) 1.0943(6) -0.0599(5)
O7A O -0.5228(2) 0.8720(5) -0.2368(4)
O8B O -0.6573(2) 0.9058(6) 0.1096(5)
O9B O -0.5976(3) 0.9328(6) 0.2353(4)
O9C O -0.4024(3) 1.0672(6) -0.2647(4)
O13 O -0.57580(18) 0.2754(3) 0.2033(2)
O14 O -0.2604(6) 0.6741(10) -0.1181(7)
N1 N -0.7921(6) 1.4472(12) 0.1417(9)
H9 H -0.8195 1.5156 0.1328
C17 C -0.7229(9) 1.4733(15) 0.1487(13)
H10 H -0.7156 1.5690 0.1485
H11 H -0.6979 1.4339 0.0983
H12 H -0.7049 1.4361 0.2043
C18 C -0.8220(9) 1.339(2) 0.146(2)
H13 H -0.8729 1.3515 0.1406
H14 H -0.8115 1.2976 0.2036
H15 H -0.8053 1.2818 0.0981
loop_
_geom_bond_atom_site_label_1
_geom_bond_atom_site_label_2
_geom_bond_site_symmetry_1
_geom_bond_site_symmetry_2
Cd1 O1 1_555 1_555
Na1 O1 1_555 1_555
O1 C1 1_555 1_555
O2 Cd1 1_555 1_555
O3 C5 1_555 1_555
O4 C5 1_555 1_555
O5 H1 1_555 1_555
O6 Cd1 1_555 1_555
O7 C9 1_555 1_555
O8 C13 1_555 1_555
O9 C13 1_555 1_555
O10 H2 1_555 1_555
O11 Na1 1_555 1_555
O12 Na1 1_555 1_555
C1 O2 1_555 1_555
C2 C1 1_555 1_555
C3 C2 1_555 1_555
H3 C3 1_555 1_555
C4 C3 1_555 1_555
C5 C4 1_555 1_555
C6 C4 1_555 1_555
H4 C6 1_555 1_555
C7 O5 1_555 1_555
C8 C2 1_555 1_555
H5 C8 1_555 1_555
C9 O6 1_555 1_555
C10 C9 1_555 1_555
C11 C10 1_555 1_555
H6 C11 1_555 1_555
C12 C11 1_555 1_555
C13 C12 1_555 1_555
C14 C12 1_555 1_555
H7 C14 1_555 1_555
C15 O10 1_555 1_555
C16 C10 1_555 1_555
H8 C16 1_555 1_555
N1 H9 1_555 1_555
C17 N1 1_555 1_555
H10 C17 1_555 1_555
H11 C17 1_555 1_555
H12 C17 1_555 1_555
C18 N1 1_555 1_555
H13 C18 1_555 1_555
H14 C18 1_555 1_555
H15 C18 1_555 1_555
Cd1_2 O3 1_555 1_555
Cd1B O8 1_555 1_555
Na1_2 O4 1_555 1_555
Na1A O7 1_555 1_555
Na1C O9 1_555 1_555
O3_2 Cd1 1_555 1_555
O4_2 Cd1 1_555 1_555
O7A Na1 1_555 1_555
O8B Cd1 1_555 1_555
O9B Cd1 1_555 1_555
O9C Na1 1_555 1_555
Na1 O4_2 1_555 1_555
O4 Cd1_2 1_555 1_555
O9 Cd1B 1_555 1_555
C6 C7 1_555 1_555
C7 C8 1_555 1_555
C14 C15 1_555 1_555
C15 C16 1_555 1_555
Na1A O9B 1_555 1_555

#END
