
#######################################################################
#
#                 Cambridge Crystallographic Data Centre
#                                CCDC 
#
#######################################################################
#
# If this CIF has been generated from an entry in the Cambridge 
# Structural Database, then it will include bibliographic, chemical, 
# crystal, experimental, refinement or atomic coordinate data resulting 
# from the CCDC's data processing and validation procedures.
#
#######################################################################

data_FARYEE
_chemical_formula_moiety         '(C12 H25 N12 Nd1 O12 Re4 Te4)n'
_symmetry_cell_setting           monoclinic
_symmetry_space_group_name_H-M   'P 21/c'
_symmetry_Int_Tables_number      14
_space_group_name_Hall           '-P 2ybc'
loop_
_symmetry_equiv_pos_site_id
_symmetry_equiv_pos_as_xyz
1 x,y,z
2 -x,1/2+y,1/2-z
3 -x,-y,-z
4 x,1/2-y,1/2+z
_cell_length_a                   12.8171(3)
_cell_length_b                   17.2131(5)
_cell_length_c                   16.9466(5)
_cell_angle_alpha                90
_cell_angle_beta                 108.736(1)
_cell_angle_gamma                90
_cell_volume                     3540.67
loop_
_atom_site_label
_atom_site_type_symbol
_atom_site_fract_x
_atom_site_fract_y
_atom_site_fract_z
Re1 Re 0.69417(3) 0.37919(2) 0.06298(2)
Re2 Re 0.79556(3) 0.38130(2) -0.06596(2)
Re3 Re 0.85601(3) 0.26521(2) 0.06272(2)
Re4 Re 0.64455(3) 0.26043(2) -0.06314(2)
Nd1 Nd 0.31727(4) 0.30665(3) 0.14879(3)
Te1 Te 0.82941(5) 0.23472(4) -0.09551(4)
Te2 Te 0.67411(5) 0.23165(4) 0.09568(4)
Te3 Te 0.58297(5) 0.40699(4) -0.09449(4)
Te4 Te 0.90349(4) 0.41427(4) 0.09068(4)
O1 O 0.4129(7) 0.4106(5) 0.2503(5)
O2 O 0.3599(6) 0.1961(4) 0.0730(5)
O3 O 0.3125(5) 0.1837(5) 0.2267(5)
O4 O 0.2377(4) 0.3195(4) -0.0108(4)
O5 O 0.2270(6) 0.3294(5) 0.2579(5)
N1 N 0.4580(6) 0.3760(5) 0.0931(5)
N2 N 0.7609(8) 0.4009(6) 0.2636(6)
N3 N 0.6738(7) 0.5642(5) 0.0915(5)
N4 N 0.7905(6) 0.5666(5) -0.1035(5)
N5 N 0.7220(9) 0.3992(6) -0.2672(6)
N6 N 1.0367(7) 0.4006(5) -0.0875(6)
N7 N 1.1176(6) 0.2583(5) 0.0886(5)
N8 N 0.8914(8) 0.0790(6) 0.0821(6)
N9 N 0.9688(7) 0.2568(6) 0.2631(6)
N10 N 0.6257(8) 0.0720(6) -0.0818(7)
N11 N 0.5170(7) 0.2387(5) -0.2607(5)
N12 N 0.3884(7) 0.2293(5) -0.0835(6)
C1 C 0.5391(8) 0.3799(5) 0.0789(6)
C2 C 0.7387(7) 0.3905(6) 0.1917(6)
C3 C 0.6787(7) 0.4997(6) 0.0782(6)
C4 C 0.7942(7) 0.5028(6) -0.0849(6)
C5 C 0.7468(8) 0.3894(6) -0.1968(7)
C6 C 0.9525(7) 0.3922(5) -0.0797(5)
C7 C 1.0241(8) 0.2599(5) 0.0752(6)
C8 C 0.8794(8) 0.1451(6) 0.0753(7)
C9 C 0.9265(7) 0.2597(7) 0.1926(7)
C10 C 0.6359(8) 0.1365(6) -0.0733(7)
C11 C 0.5708(7) 0.2487(6) -0.1920(6)
C12 C 0.4781(8) 0.2437(6) -0.0737(6)
Nd1B Nd 0.68273(4) 0.69335(3) -0.14879(3)
Nd1_2 Nd 1.31727(4) 0.30665(3) 0.14879(3)
Nd1C Nd 0.31727(4) 0.19335(3) -0.35121(3)
N4B N 0.2095(6) 0.4334(5) 0.1035(5)
N7_2 N 0.1176(6) 0.2583(5) 0.0886(5)
N11C N 0.5170(7) 0.2613(5) 0.2393(5)
O6 O 0.4551(10) 0.0736(6) 0.1610(8)
O7 O 0.1205(8) 0.1817(5) -0.0885(5)
O8 O 0.1085(15) 0.4657(9) 0.2712(12)
O9 O 0.1644(12) 0.0361(7) 0.1361(7)
O10 O 0.1062(11) 0.0622(7) -0.0171(7)
O11 O 0.3458(19) 0.4723(11) 0.3816(12)
O12 O 0.1293(7) 0.1223(5) 0.2609(5)
loop_
_geom_bond_atom_site_label_1
_geom_bond_atom_site_label_2
_geom_bond_site_symmetry_1
_geom_bond_site_symmetry_2
Re1 Re2 1_555 1_555
Re2 Re3 1_555 1_555
Re3 Re1 1_555 1_555
Re4 Re1 1_555 1_555
Nd1 O1 1_555 1_555
Te1 Re2 1_555 1_555
Te2 Re1 1_555 1_555
Te3 Re1 1_555 1_555
Te4 Re1 1_555 1_555
O2 Nd1 1_555 1_555
O3 Nd1 1_555 1_555
O4 Nd1 1_555 1_555
O5 Nd1 1_555 1_555
N1 Nd1 1_555 1_555
N2 C2 1_555 1_555
N3 C3 1_555 1_555
N4 C4 1_555 1_555
N5 C5 1_555 1_555
N6 C6 1_555 1_555
N7 C7 1_555 1_555
N8 C8 1_555 1_555
N9 C9 1_555 1_555
N10 C10 1_555 1_555
N11 C11 1_555 1_555
N12 C12 1_555 1_555
C1 Re1 1_555 1_555
C2 Re1 1_555 1_555
C3 Re1 1_555 1_555
C4 Re2 1_555 1_555
C5 Re2 1_555 1_555
C6 Re2 1_555 1_555
C7 Re3 1_555 1_555
C8 Re3 1_555 1_555
C9 Re3 1_555 1_555
C10 Re4 1_555 1_555
C11 Re4 1_555 1_555
C12 Re4 1_555 1_555
Nd1B N4 1_555 1_555
Nd1_2 N7 1_555 1_555
Nd1C N11 1_555 1_555
N4B Nd1 1_555 1_555
N7_2 Nd1 1_555 1_555
N11C Nd1 1_555 1_555
Re2 Re4 1_555 1_555
Re2 Te3 1_555 1_555
Re2 Te4 1_555 1_555
Re3 Re4 1_555 1_555
Re3 Te1 1_555 1_555
Re3 Te2 1_555 1_555
Re3 Te4 1_555 1_555
Re4 Te1 1_555 1_555
Re4 Te2 1_555 1_555
Re4 Te3 1_555 1_555
N1 C1 1_555 1_555

#END
