
#######################################################################
#
#                 Cambridge Crystallographic Data Centre
#                                CCDC 
#
#######################################################################
#
# If this CIF has been generated from an entry in the Cambridge 
# Structural Database, then it will include bibliographic, chemical, 
# crystal, experimental, refinement or atomic coordinate data resulting 
# from the CCDC's data processing and validation procedures.
#
#######################################################################

data_FONKEA
_chemical_formula_moiety         '(C30 H24 Cd3 O17)n'
_symmetry_cell_setting           monoclinic
_symmetry_space_group_name_H-M   'C 2/c'
_symmetry_Int_Tables_number      15
_space_group_name_Hall           '-C 2yc'
loop_
_symmetry_equiv_pos_site_id
_symmetry_equiv_pos_as_xyz
1 x,y,z
2 -x,y,1/2-z
3 1/2+x,1/2+y,z
4 1/2-x,1/2+y,1/2-z
5 -x,-y,-z
6 x,-y,1/2+z
7 1/2-x,1/2-y,-z
8 1/2+x,1/2-y,1/2+z
_cell_length_a                   29.778(2)
_cell_length_b                   6.6754(5)
_cell_length_c                   19.4782(14)
_cell_angle_alpha                90
_cell_angle_beta                 113.6230(10)
_cell_angle_gamma                90
_cell_volume                     3547.42
loop_
_atom_site_label
_atom_site_type_symbol
_atom_site_fract_x
_atom_site_fract_y
_atom_site_fract_z
Cd1 Cd 0.5000 0.96223(8) 0.2500
Cd2 Cd 0.103382(14) 0.95854(6) 0.35327(3)
O1 O 0.42363(13) 0.8770(6) 0.6678(2)
C1 C 0.40053(19) 1.0389(8) 0.6463(3)
O2 O 0.42071(13) 1.2032(6) 0.6722(2)
C2 C 0.3483(2) 1.0311(7) 0.5917(3)
O3 O 0.47695(14) 1.1309(7) 0.3410(2)
O4 O 0.47708(15) 0.8015(7) 0.3410(2)
C3 C 0.2631(2) 1.0342(8) 0.5704(3)
H1 H 0.2389 1.0481 0.5888
O5 O 0.18629(15) 0.9495(7) 0.3746(2)
C4 C 0.2504(2) 0.9956(8) 0.4955(3)
O6 O 0.16506(14) 1.0002(6) 0.4685(2)
C5 C 0.2864(2) 0.9768(8) 0.4685(3)
H2 H 0.2776 0.9521 0.4178
C6 C 0.3359(2) 0.9940(8) 0.5158(3)
O7 O 0.03863(19) 0.9662(7) 0.3877(4)
H3 H 0.0412 0.8561 0.4208
H4 H 0.0390 1.0901 0.4130
C7 C 0.19761(19) 0.9802(7) 0.4429(3)
C8 C 0.3122(2) 1.0524(8) 0.6185(3)
H5 H 0.3208 1.0791 0.6690
O8 O 0.0831(2) 0.9489(8) 0.2298(3)
H6 H 0.1046 0.9510 0.2079
H7 H 0.0482 0.9412 0.2040
C9 C 0.37340(19) 0.9795(8) 0.4831(3)
C10 C 0.3776(3) 0.8081(10) 0.4460(4)
H8 H 0.3587 0.6963 0.4449
C11 C 0.4097(3) 0.8017(10) 0.4107(4)
H9 H 0.4126 0.6846 0.3868
C12 C 0.4376(2) 0.9667(8) 0.4104(3)
C13 C 0.4338(2) 1.1379(9) 0.4474(3)
H10 H 0.4521 1.2507 0.4470
C14 C 0.4030(2) 1.1427(10) 0.4851(3)
H11 H 0.4022 1.2563 0.5122
C15 C 0.46617(19) 0.9657(9) 0.3623(3)
Cd2A Cd 0.896618(14) 0.95854(6) 0.14673(3)
O1A O 0.57637(13) 0.8770(6) -0.1678(2)
C1A C 0.59947(19) 1.0389(8) -0.1463(3)
O2A O 0.57929(13) 1.2032(6) -0.1722(2)
C2A C 0.6517(2) 1.0311(7) -0.0917(3)
O3A O 0.52305(14) 1.1309(7) 0.1590(2)
O4A O 0.52292(15) 0.8015(7) 0.1590(2)
C3A C 0.7369(2) 1.0342(8) -0.0704(3)
H1A H 0.7611 1.0481 -0.0888
O5A O 0.81371(15) 0.9495(7) 0.1254(2)
C4A C 0.7496(2) 0.9956(8) 0.0045(3)
O6A O 0.83494(14) 1.0002(6) 0.0315(2)
C5A C 0.7136(2) 0.9768(8) 0.0315(3)
H2A H 0.7224 0.9521 0.0822
C6A C 0.6641(2) 0.9940(8) -0.0158(3)
O7A O 0.96137(19) 0.9662(7) 0.1123(4)
H3A H 0.9588 0.8561 0.0792
H4A H 0.9610 1.0901 0.0870
C7A C 0.80239(19) 0.9802(7) 0.0571(3)
C8A C 0.6878(2) 1.0524(8) -0.1185(3)
H5A H 0.6792 1.0791 -0.1690
O8A O 0.9169(2) 0.9489(8) 0.2702(3)
H6A H 0.8954 0.9510 0.2921
H7A H 0.9518 0.9412 0.2960
C9A C 0.62660(19) 0.9795(8) 0.0169(3)
C10A C 0.6224(3) 0.8081(10) 0.0540(4)
H8A H 0.6413 0.6963 0.0551
C11A C 0.5903(3) 0.8017(10) 0.0893(4)
H9A H 0.5874 0.6846 0.1132
C12A C 0.5624(2) 0.9667(8) 0.0896(3)
C13A C 0.5662(2) 1.1379(9) 0.0526(3)
H10A H 0.5479 1.2507 0.0530
C14A C 0.5970(2) 1.1427(10) 0.0149(3)
H11A H 0.5978 1.2563 -0.0122
C15A C 0.53383(19) 0.9657(9) 0.1377(3)
Cd1D Cd 0.5000 1.03777(8) -0.2500
Cd1D_2 Cd 0.5000 1.03777(8) 0.7500
Cd2F Cd 0.396618(14) 0.54146(6) 0.64673(3)
Cd2F_2 Cd 0.396618(14) 1.54146(6) 0.64673(3)
Cd2G Cd 0.603382(14) 0.54146(6) -0.14673(3)
Cd2G_2 Cd 0.603382(14) 1.54146(6) -0.14673(3)
O1D O 0.57637(13) 1.1230(6) 0.3322(2)
O1E O 0.42363(13) 1.1230(6) 0.1678(2)
O1F O 0.07637(13) 0.6230(6) 0.3322(2)
O1G O 0.92363(13) 0.6230(6) 0.1678(2)
O2D O 0.57929(13) 0.7968(6) 0.3278(2)
O2E O 0.42071(13) 0.7968(6) 0.1722(2)
O2F O 0.07929(13) 1.2968(6) 0.3278(2)
O2G O 0.92071(13) 1.2968(6) 0.1722(2)
O9 O 0.1852(10) 0.818(5) 0.2110(15)
loop_
_geom_bond_atom_site_label_1
_geom_bond_atom_site_label_2
_geom_bond_site_symmetry_1
_geom_bond_site_symmetry_2
Cd1 O3 1_555 1_555
Cd2 O5 1_555 1_555
O1 C1 1_555 1_555
C1 O2 1_555 1_555
O2 Cd1D_2 1_555 1_555
C2 C1 1_555 1_555
O3 C15 1_555 1_555
O4 Cd1 1_555 1_555
C3 H1 1_555 1_555
O5 C7 1_555 1_555
C4 C3 1_555 1_555
O6 Cd2 1_555 1_555
C5 C4 1_555 1_555
H2 C5 1_555 1_555
C6 C2 1_555 1_555
O7 Cd2 1_555 1_555
H3 O7 1_555 1_555
H4 O7 1_555 1_555
C7 C4 1_555 1_555
C8 C2 1_555 1_555
H5 C8 1_555 1_555
O8 Cd2 1_555 1_555
H6 O8 1_555 1_555
H7 O8 1_555 1_555
C9 C6 1_555 1_555
C10 C9 1_555 1_555
H8 C10 1_555 1_555
C11 C10 1_555 1_555
H9 C11 1_555 1_555
C12 C11 1_555 1_555
C13 C12 1_555 1_555
H10 C13 1_555 1_555
C14 C9 1_555 1_555
H11 C14 1_555 1_555
C15 O4 1_555 1_555
Cd2A O5A 1_555 1_555
O1A C1A 1_555 1_555
C1A O2A 1_555 1_555
O2A Cd1D 1_555 1_555
C2A C1A 1_555 1_555
O3A Cd1 1_555 1_555
O4A Cd1 1_555 1_555
C3A H1A 1_555 1_555
O5A C7A 1_555 1_555
C4A C3A 1_555 1_555
O6A Cd2A 1_555 1_555
C5A C4A 1_555 1_555
H2A C5A 1_555 1_555
C6A C2A 1_555 1_555
O7A Cd2A 1_555 1_555
H3A O7A 1_555 1_555
H4A O7A 1_555 1_555
C7A C4A 1_555 1_555
C8A C2A 1_555 1_555
H5A C8A 1_555 1_555
O8A Cd2A 1_555 1_555
H6A O8A 1_555 1_555
H7A O8A 1_555 1_555
C9A C6A 1_555 1_555
C10A C9A 1_555 1_555
H8A C10A 1_555 1_555
C11A C10A 1_555 1_555
H9A C11A 1_555 1_555
C12A C11A 1_555 1_555
C13A C12A 1_555 1_555
H10A C13A 1_555 1_555
C14A C9A 1_555 1_555
H11A C14A 1_555 1_555
C15A O3A 1_555 1_555
Cd1D O1A 1_555 1_555
Cd1D_2 O1 1_555 1_555
Cd2F O1 1_555 1_555
Cd2F_2 O2 1_555 1_555
Cd2G O1A 1_555 1_555
Cd2G_2 O2A 1_555 1_555
O1D Cd1 1_555 1_555
O1E Cd1 1_555 1_555
O1F Cd2 1_555 1_555
O1G Cd2A 1_555 1_555
O2D Cd1 1_555 1_555
O2E Cd1 1_555 1_555
O2F Cd2 1_555 1_555
O2G Cd2A 1_555 1_555
C3 C8 1_555 1_555
O6 C7 1_555 1_555
C5 C6 1_555 1_555
C12 C15 1_555 1_555
C13 C14 1_555 1_555
O4A C15A 1_555 1_555
C3A C8A 1_555 1_555
O6A C7A 1_555 1_555
C5A C6A 1_555 1_555
C12A C15A 1_555 1_555
C13A C14A 1_555 1_555

#END
