
#######################################################################
#
#                 Cambridge Crystallographic Data Centre
#                                CCDC 
#
#######################################################################
#
# If this CIF has been generated from an entry in the Cambridge 
# Structural Database, then it will include bibliographic, chemical, 
# crystal, experimental, refinement or atomic coordinate data resulting 
# from the CCDC's data processing and validation procedures.
#
#######################################################################

data_PEVZAT
_chemical_formula_moiety         '(C24 H28 Co2 F2 N4 O10)n'
_symmetry_cell_setting           monoclinic
_symmetry_space_group_name_H-M   'C 2'
_symmetry_Int_Tables_number      5
_space_group_name_Hall           'C 2y'
loop_
_symmetry_equiv_pos_site_id
_symmetry_equiv_pos_as_xyz
1 x,y,z
2 -x,y,-z
3 1/2+x,1/2+y,z
4 1/2-x,1/2+y,-z
_cell_length_a                   17.7950(14)
_cell_length_b                   7.3167(6)
_cell_length_c                   11.3957(9)
_cell_angle_alpha                90
_cell_angle_beta                 97.4790(10)
_cell_angle_gamma                90
_cell_volume                     1471.11
loop_
_atom_site_label
_atom_site_type_symbol
_atom_site_fract_x
_atom_site_fract_y
_atom_site_fract_z
Co1 Co 0.24885(2) 0.19019(10) 0.00350(3)
F1 F 0.29730(8) 0.4392(4) 0.00980(14)
C1 C 0.30987(18) 0.2459(5) 0.2646(3)
H1 H 0.3531 0.2872 0.2315
C2 C 0.31224(17) 0.2470(5) 0.3866(3)
H2 H 0.3568 0.2848 0.4356
C3 C 0.24856(16) 0.1920(8) 0.4366(2)
C4 C 0.18588(18) 0.1321(5) 0.3609(3)
H3 H 0.1417 0.0917 0.3918
C5 C 0.18846(18) 0.1319(5) 0.2395(3)
H4 H 0.1454 0.0895 0.1887
C6 C 0.18562(18) 0.2354(5) 0.7382(3)
H5 H 0.1408 0.2671 0.7706
C7 C 0.18360(17) 0.2360(5) 0.6164(3)
H6 H 0.1381 0.2666 0.5671
C8 C 0.24839(16) 0.1916(8) 0.5664(2)
C9 C 0.31326(18) 0.1466(5) 0.6441(3)
H7 H 0.3588 0.1138 0.6142
C10 C 0.31058(18) 0.1502(5) 0.7652(3)
H8 H 0.3554 0.1214 0.8168
C11 C 0.10496(13) 0.4430(6) -0.0320(2)
C12 C 0.01739(14) 0.4427(7) -0.0583(2)
H9 H 0.0015 0.3277 -0.1020
N1 N 0.24909(13) 0.1888(7) 0.19084(19)
N2 N 0.24780(14) 0.1923(7) 0.81292(19)
O1 O 0.13494(13) 0.2871(4) -0.0097(2)
O2 O 0.13738(13) 0.5925(4) -0.0350(2)
O3 O -0.00877(13) 0.5923(4) -0.1307(2)
H10 H 0.0110 0.5890 -0.1937
C11A C -0.10496(13) 0.4430(6) 0.0320(2)
C12A C -0.01739(14) 0.4427(7) 0.0583(2)
H9A H -0.0015 0.3277 0.1020
O1A O -0.13494(13) 0.2871(4) 0.0097(2)
O2A O -0.13738(13) 0.5925(4) 0.0350(2)
O3A O 0.00877(13) 0.5923(4) 0.1307(2)
H10A H -0.0110 0.5890 0.1937
Co1A Co -0.24885(2) 0.19019(10) -0.00350(3)
F1A F -0.29730(8) 0.4392(4) -0.00980(14)
C1A C -0.30987(18) 0.2459(5) -0.2646(3)
H1A H -0.3531 0.2872 -0.2315
C2A C -0.31224(17) 0.2470(5) -0.3866(3)
H2A H -0.3568 0.2848 -0.4356
C3A C -0.24856(16) 0.1920(8) -0.4366(2)
C4A C -0.18588(18) 0.1321(5) -0.3609(3)
H3A H -0.1417 0.0917 -0.3918
C5A C -0.18846(18) 0.1319(5) -0.2395(3)
H4A H -0.1454 0.0895 -0.1887
C6A C -0.18562(18) 0.2354(5) -0.7382(3)
H5A H -0.1408 0.2671 -0.7706
C7A C -0.18360(17) 0.2360(5) -0.6164(3)
H6A H -0.1381 0.2666 -0.5671
C8A C -0.24839(16) 0.1916(8) -0.5664(2)
C9A C -0.31326(18) 0.1466(5) -0.6441(3)
H7A H -0.3588 0.1138 -0.6142
C10A C -0.31058(18) 0.1502(5) -0.7652(3)
H8A H -0.3554 0.1214 -0.8168
N1A N -0.24909(13) 0.1888(7) -0.19084(19)
N2A N -0.24780(14) 0.1923(7) -0.81292(19)
Co1_2 Co 0.24885(2) 0.19019(10) 1.00350(3)
Co1A_2 Co -0.24885(2) 0.19019(10) -1.00350(3)
Co1B Co -0.25115(2) 0.69019(10) 0.00350(3)
Co1C Co 0.25115(2) 0.69019(10) -0.00350(3)
F1B F -0.20270(8) -0.0608(4) 0.00980(14)
F1C F 0.20270(8) -0.0608(4) -0.00980(14)
N2_2 N 0.24780(14) 0.1923(7) -0.18708(19)
N2A_2 N -0.24780(14) 0.1923(7) 0.18708(19)
O2B O -0.36262(13) 0.0925(4) -0.0350(2)
O2C O 0.36262(13) 0.0925(4) 0.0350(2)
O4 O 0.44707(16) 0.4514(7) 0.0798(4)
O5 O 0.5000 0.3055(15) 0.5000
O6 O 0.5009(3) 0.5445(10) 0.6777(6)
O7 O 0.4983(3) 0.9356(15) 0.6347(5)
loop_
_geom_bond_atom_site_label_1
_geom_bond_atom_site_label_2
_geom_bond_site_symmetry_1
_geom_bond_site_symmetry_2
Co1 F1 1_555 1_555
F1 Co1C 1_555 1_555
C1 H1 1_555 1_555
C2 C1 1_555 1_555
H2 C2 1_555 1_555
C3 C2 1_555 1_555
C4 C3 1_555 1_555
H3 C4 1_555 1_555
C5 C4 1_555 1_555
H4 C5 1_555 1_555
C6 H5 1_555 1_555
C7 C6 1_555 1_555
H6 C7 1_555 1_555
C8 C3 1_555 1_555
C9 C8 1_555 1_555
H7 C9 1_555 1_555
C10 C9 1_555 1_555
H8 C10 1_555 1_555
C11 C12 1_555 1_555
C12 H9 1_555 1_555
N1 Co1 1_555 1_555
N2 C6 1_555 1_555
O1 Co1 1_555 1_555
O2 C11 1_555 1_555
O3 C12 1_555 1_555
H10 O3 1_555 1_555
C11A C12A 1_555 1_555
C12A C12 1_555 1_555
H9A C12A 1_555 1_555
O1A C11A 1_555 1_555
O2A C11A 1_555 1_555
O3A C12A 1_555 1_555
H10A O3A 1_555 1_555
Co1A O1A 1_555 1_555
F1A Co1A 1_555 1_555
C1A H1A 1_555 1_555
C2A C1A 1_555 1_555
H2A C2A 1_555 1_555
C3A C2A 1_555 1_555
C4A C3A 1_555 1_555
H3A C4A 1_555 1_555
C5A C4A 1_555 1_555
H4A C5A 1_555 1_555
C6A H5A 1_555 1_555
C7A C6A 1_555 1_555
H6A C7A 1_555 1_555
C8A C3A 1_555 1_555
C9A C8A 1_555 1_555
H7A C9A 1_555 1_555
C10A C9A 1_555 1_555
H8A C10A 1_555 1_555
N1A Co1A 1_555 1_555
N2A C6A 1_555 1_555
Co1_2 N2 1_555 1_555
Co1A_2 N2A 1_555 1_555
Co1B O2A 1_555 1_555
Co1C O2 1_555 1_555
F1B Co1A 1_555 1_555
F1C Co1 1_555 1_555
N2_2 Co1 1_555 1_555
N2A_2 Co1A 1_555 1_555
O2B Co1A 1_555 1_555
O2C Co1 1_555 1_555
C1 N1 1_555 1_555
C5 N1 1_555 1_555
C7 C8 1_555 1_555
C10 N2 1_555 1_555
C11 O1 1_555 1_555
F1A Co1B 1_555 1_555
C1A N1A 1_555 1_555
C5A N1A 1_555 1_555
C7A C8A 1_555 1_555
C10A N2A 1_555 1_555

#END
