
#######################################################################
#
#                 Cambridge Crystallographic Data Centre
#                                CCDC 
#
#######################################################################
#
# If this CIF has been generated from an entry in the Cambridge 
# Structural Database, then it will include bibliographic, chemical, 
# crystal, experimental, refinement or atomic coordinate data resulting 
# from the CCDC's data processing and validation procedures.
#
#######################################################################

data_IVILEG
_chemical_formula_moiety         '(C108 H88 N20 O21 Zn8 2+)n'
_symmetry_cell_setting           orthorhombic
_symmetry_space_group_name_H-M   'P b a n'
_symmetry_Int_Tables_number      50
_space_group_name_Hall           '-P 2ab 2b'
loop_
_symmetry_equiv_pos_site_id
_symmetry_equiv_pos_as_xyz
1 x,y,z
2 1/2-x,1/2-y,z
3 x,1/2-y,-z
4 1/2-x,y,-z
5 -x,-y,-z
6 1/2+x,1/2+y,-z
7 -x,1/2+y,z
8 1/2+x,-y,z
_cell_length_a                   32.1446(5)
_cell_length_b                   32.1446(5)
_cell_length_c                   10.9808(2)
_cell_angle_alpha                90
_cell_angle_beta                 90
_cell_angle_gamma                90
_cell_volume                     11346.2
loop_
_atom_site_label
_atom_site_type_symbol
_atom_site_fract_x
_atom_site_fract_y
_atom_site_fract_z
Zn1 Zn 0.2500 0.89931(3) 1.0000
Zn2 Zn 0.39930(2) 0.7500 1.0000
Zn3 Zn 0.28384(2) 0.71609(2) 0.60755(5)
O1 O 0.2500 0.7500 0.5000
N1 N 0.27538(17) 0.85586(16) 0.8801(5)
O2 O 0.41850(14) 0.79995(18) 1.0881(6)
O3 O 0.19948(18) 0.91895(17) 0.9119(5)
N2 N 0.25632(17) 0.81067(17) 0.7214(5)
N3 N 0.34388(19) 0.8437(2) 1.0176(4)
H1 H 0.3275 0.8647 1.0232
H2 H 0.3650 0.8417 1.0651
O4 O 0.65682(17) 1.1572(2) 1.6791(4)
C1 C 0.2452(2) 0.8479(3) 0.7826(7)
H3 H 0.2225 0.8646 0.7639
O5 O 0.6812(3) 1.1816(3) 1.5045(5)
C2 C 0.6588(3) 1.1556(3) 1.5675(7)
C3 C 0.33529(15) 0.80943(15) 0.9221(4)
C4 C 0.29962(15) 0.82003(15) 0.8576(4)
C5 C 0.28648(11) 0.79541(15) 0.7609(3)
N4 N 0.30901(11) 0.76018(13) 0.7287(3)
C6 C 0.34468(11) 0.74957(12) 0.7932(3)
H4 H 0.3598 0.7260 0.7716
N5 N 0.35782(10) 0.77420(14) 0.8898(3)
C7 C 0.5996(2) 1.1111(2) 1.5401(5)
H5 H 0.5888 1.1241 1.6089
C8 C 0.5759(2) 1.0820(2) 1.4773(8)
H6 H 0.5492 1.0755 1.5041
C9 C 0.5920(2) 1.0627(2) 1.3744(8)
C10 C 0.6318(3) 1.0724(2) 1.3343(6)
H7 H 0.6426 1.0595 1.2654
C11 C 0.6555(3) 1.1015(2) 1.3970(7)
H8 H 0.6822 1.1081 1.3702
C12 C 0.6394(2) 1.1209(2) 1.5000(7)
O6 O 0.4587(4) 0.7959(5) 0.9286(9)
C13 C 0.4500(4) 0.8142(5) 1.0290(13)
C14 C 0.4741(4) 0.8472(4) 1.0820(13)
C15 C 0.4641(4) 0.8633(5) 1.1957(13)
H9 H 0.4430 0.8513 1.2416
C16 C 0.4856(5) 0.8975(5) 1.2410(15)
H10 H 0.4789 0.9083 1.3170
C17 C 0.5172(5) 0.9155(5) 1.1724(17)
C18 C 0.5272(5) 0.8994(5) 1.0587(16)
H11 H 0.5483 0.9115 1.0128
C19 C 0.5057(5) 0.8653(6) 1.0135(13)
H12 H 0.5124 0.8545 0.9374
C20 C 0.5684(7) 1.0292(6) 1.3142(19)
C21 C 0.5413(4) 0.9510(5) 1.214(2)
C22 C 0.5496(6) 0.9618(7) 1.334(2)
C23 C 0.5625(10) 1.0288(8) 1.187(2)
C24 C 0.5607(8) 0.9976(7) 1.400(2)
H13 H 0.5626 1.0000 1.4844
C25 C 0.5428(8) 0.9909(7) 1.157(2)
H14 H 0.5278 0.9922 1.0844
C26 C 0.5736(13) 1.0638(13) 1.099(3)
H15 H 0.6034 1.0642 1.0925
H16 H 0.5618 1.0566 1.0214
H17 H 0.5638 1.0908 1.1229
C27 C 0.5531(13) 0.9262(12) 1.402(3)
H18 H 0.5363 0.9318 1.4726
H19 H 0.5812 0.9209 1.4272
H20 H 0.5424 0.9023 1.3603
Zn1A Zn 0.2500 0.60069(3) 1.0000
Zn2A Zn 0.10070(2) 0.7500 1.0000
Zn3A Zn 0.21616(2) 0.78391(2) 0.60755(5)
N1A N 0.22462(17) 0.64414(16) 0.8801(5)
O2A O 0.08150(14) 0.70005(18) 1.0881(6)
O3A O 0.30052(18) 0.58105(17) 0.9119(5)
N2A N 0.24368(17) 0.68933(17) 0.7214(5)
N3A N 0.15612(19) 0.6563(2) 1.0176(4)
H1A H 0.1725 0.6353 1.0232
H2A H 0.1350 0.6583 1.0651
O4A O -0.15682(17) 0.3428(2) 1.6791(4)
C1A C 0.2548(2) 0.6521(3) 0.7826(7)
H3A H 0.2775 0.6354 0.7639
O5A O -0.1812(3) 0.3184(3) 1.5045(5)
C2A C -0.1588(3) 0.3444(3) 1.5675(7)
C3A C 0.16471(15) 0.69057(15) 0.9221(4)
C4A C 0.20038(15) 0.67997(15) 0.8576(4)
C5A C 0.21352(11) 0.70459(15) 0.7609(3)
N4A N 0.19099(11) 0.73982(13) 0.7287(3)
C6A C 0.15532(11) 0.75043(12) 0.7932(3)
H4A H 0.1402 0.7740 0.7716
N5A N 0.14218(10) 0.72580(14) 0.8898(3)
C7A C -0.0996(2) 0.3889(2) 1.5401(5)
H5A H -0.0888 0.3759 1.6089
C8A C -0.0759(2) 0.4180(2) 1.4773(8)
H6A H -0.0492 0.4245 1.5041
C9A C -0.0920(2) 0.4373(2) 1.3744(8)
C10A C -0.1318(3) 0.4276(2) 1.3343(6)
H7A H -0.1426 0.4405 1.2654
C11A C -0.1555(3) 0.3985(2) 1.3970(7)
H8A H -0.1822 0.3919 1.3702
C12A C -0.1394(2) 0.3791(2) 1.5000(7)
O6A O 0.0413(4) 0.7041(5) 0.9286(9)
C13A C 0.0500(4) 0.6858(5) 1.0290(13)
C14A C 0.0259(4) 0.6528(4) 1.0820(13)
C15A C 0.0359(4) 0.6367(5) 1.1957(13)
H9A H 0.0570 0.6487 1.2416
C16A C 0.0144(5) 0.6025(5) 1.2410(15)
H10A H 0.0211 0.5917 1.3170
C17A C -0.0172(5) 0.5845(5) 1.1724(17)
C18A C -0.0272(5) 0.6006(5) 1.0587(16)
H11A H -0.0483 0.5885 1.0128
C19A C -0.0057(5) 0.6347(6) 1.0135(13)
H12A H -0.0124 0.6455 0.9374
C20A C -0.0684(7) 0.4708(6) 1.3142(19)
C21A C -0.0413(4) 0.5490(5) 1.214(2)
C22A C -0.0496(6) 0.5382(7) 1.334(2)
C23A C -0.0625(10) 0.4712(8) 1.187(2)
C24A C -0.0607(8) 0.5024(7) 1.400(2)
H13A H -0.0626 0.5000 1.4844
C25A C -0.0428(8) 0.5091(7) 1.157(2)
H14A H -0.0278 0.5078 1.0844
C26A C -0.0736(13) 0.4362(13) 1.099(3)
H15A H -0.1034 0.4358 1.0925
H16A H -0.0618 0.4434 1.0214
H17A H -0.0638 0.4092 1.1229
C27A C -0.0531(13) 0.5738(12) 1.402(3)
H18A H -0.0363 0.5682 1.4726
H19A H -0.0812 0.5791 1.4272
H20A H -0.0424 0.5977 1.3603
Zn3B Zn 0.28384(2) 0.78391(2) 0.39245(5)
N1B N 0.27538(17) 0.64414(16) 0.1199(5)
N2B N 0.25632(17) 0.68933(17) 0.2786(5)
N3B N 0.34388(19) 0.6563(2) -0.0176(4)
H1B H 0.3275 0.6353 -0.0232
H2B H 0.3650 0.6583 -0.0651
C1B C 0.2452(2) 0.6521(3) 0.2174(7)
H3B H 0.2225 0.6354 0.2361
C3B C 0.33529(15) 0.69057(15) 0.0779(4)
C4B C 0.29962(15) 0.67997(15) 0.1424(4)
C5B C 0.28648(11) 0.70459(15) 0.2391(3)
N4B N 0.30901(11) 0.73982(13) 0.2713(3)
C6B C 0.34468(11) 0.75043(12) 0.2068(3)
H4B H 0.3598 0.7740 0.2284
N5B N 0.35782(10) 0.72580(14) 0.1102(3)
Zn3C Zn 0.21616(2) 0.71609(2) 0.39245(5)
N1C N 0.22462(17) 0.85586(16) 0.1199(5)
N2C N 0.24368(17) 0.81067(17) 0.2786(5)
N3C N 0.15612(19) 0.8437(2) -0.0176(4)
H1C H 0.1725 0.8647 -0.0232
H2C H 0.1350 0.8417 -0.0651
C1C C 0.2548(2) 0.8479(3) 0.2174(7)
H3C H 0.2775 0.8646 0.2361
C3C C 0.16471(15) 0.80943(15) 0.0779(4)
C4C C 0.20038(15) 0.82003(15) 0.1424(4)
C5C C 0.21352(11) 0.79541(15) 0.2391(3)
N4C N 0.19099(11) 0.76018(13) 0.2713(3)
C6C C 0.15532(11) 0.74957(12) 0.2068(3)
H4C H 0.1402 0.7260 0.2284
N5C N 0.14218(10) 0.77420(14) 0.1102(3)
O2B O 0.41850(14) 0.70005(18) 0.9119(6)
O4B O 0.65682(17) 0.3428(2) 0.3209(4)
O5B O 0.6812(3) 0.3184(3) 0.4955(5)
C2B C 0.6588(3) 0.3444(3) 0.4325(7)
C7B C 0.5996(2) 0.3889(2) 0.4599(5)
H5B H 0.5888 0.3759 0.3911
C8B C 0.5759(2) 0.4180(2) 0.5227(8)
H6B H 0.5492 0.4245 0.4959
C9B C 0.5920(2) 0.4373(2) 0.6256(8)
C10B C 0.6318(3) 0.4276(2) 0.6657(6)
H7B H 0.6426 0.4405 0.7346
C11B C 0.6555(3) 0.3985(2) 0.6030(7)
H8B H 0.6822 0.3919 0.6298
C12B C 0.6394(2) 0.3791(2) 0.5000(7)
O6B O 0.4587(4) 0.7041(5) 1.0714(9)
C13B C 0.4500(4) 0.6858(5) 0.9710(13)
C14B C 0.4741(4) 0.6528(4) 0.9180(13)
C15B C 0.4641(4) 0.6367(5) 0.8043(13)
H9B H 0.4430 0.6487 0.7584
C16B C 0.4856(5) 0.6025(5) 0.7590(15)
H10B H 0.4789 0.5917 0.6830
C17B C 0.5172(5) 0.5845(5) 0.8276(17)
C18B C 0.5272(5) 0.6006(5) 0.9413(16)
H11B H 0.5483 0.5885 0.9872
C19B C 0.5057(5) 0.6347(6) 0.9865(13)
H12B H 0.5124 0.6455 1.0626
C20B C 0.5684(7) 0.4708(6) 0.6858(19)
C21B C 0.5413(4) 0.5490(5) 0.786(2)
C22B C 0.5496(6) 0.5382(7) 0.666(2)
C23B C 0.5625(10) 0.4712(8) 0.813(2)
C24B C 0.5607(8) 0.5024(7) 0.600(2)
H13B H 0.5626 0.5000 0.5156
C25B C 0.5428(8) 0.5091(7) 0.843(2)
H14B H 0.5278 0.5078 0.9156
C26B C 0.5736(13) 0.4362(13) 0.901(3)
H15B H 0.6034 0.4358 0.9075
H16B H 0.5618 0.4434 0.9786
H17B H 0.5638 0.4092 0.8771
C27B C 0.5531(13) 0.5738(12) 0.598(3)
H18B H 0.5363 0.5682 0.5274
H19B H 0.5812 0.5791 0.5728
H20B H 0.5424 0.5977 0.6397
O2F O 0.58150(14) 0.29995(18) 0.0881(6)
O4F O 0.34318(17) 0.6572(2) 0.6791(4)
O5F O 0.3188(3) 0.6816(3) 0.5045(5)
C2F C 0.3412(3) 0.6556(3) 0.5675(7)
C7F C 0.4004(2) 0.6111(2) 0.5401(5)
H5F H 0.4112 0.6241 0.6089
C8F C 0.4241(2) 0.5820(2) 0.4773(8)
H6F H 0.4508 0.5755 0.5041
C9F C 0.4080(2) 0.5627(2) 0.3744(8)
C10F C 0.3682(3) 0.5724(2) 0.3343(6)
H7F H 0.3574 0.5595 0.2654
C11F C 0.3445(3) 0.6015(2) 0.3970(7)
H8F H 0.3178 0.6081 0.3702
C12F C 0.3606(2) 0.6209(2) 0.5000(7)
O6F O 0.5413(4) 0.2959(5) -0.0714(9)
C13F C 0.5500(4) 0.3142(5) 0.0290(13)
C14F C 0.5259(4) 0.3472(4) 0.0820(13)
C15F C 0.5359(4) 0.3633(5) 0.1957(13)
H9F H 0.5570 0.3513 0.2416
C16F C 0.5144(5) 0.3975(5) 0.2410(15)
H10F H 0.5211 0.4083 0.3170
C17F C 0.4828(5) 0.4155(5) 0.1724(17)
C18F C 0.4728(5) 0.3994(5) 0.0587(16)
H11F H 0.4517 0.4115 0.0128
C19F C 0.4943(5) 0.3653(6) 0.0135(13)
H12F H 0.4876 0.3545 -0.0626
C20F C 0.4316(7) 0.5292(6) 0.3142(19)
C21F C 0.4587(4) 0.4510(5) 0.214(2)
C22F C 0.4504(6) 0.4618(7) 0.334(2)
C23F C 0.4375(10) 0.5288(8) 0.187(2)
C24F C 0.4393(8) 0.4976(7) 0.400(2)
H13F H 0.4374 0.5000 0.4844
C25F C 0.4572(8) 0.4909(7) 0.157(2)
H14F H 0.4722 0.4922 0.0844
C26F C 0.4264(13) 0.5638(13) 0.099(3)
H15F H 0.3966 0.5642 0.0925
H16F H 0.4382 0.5566 0.0214
H17F H 0.4362 0.5908 0.1229
C27F C 0.4469(13) 0.4262(12) 0.402(3)
H18F H 0.4637 0.4318 0.4726
H19F H 0.4188 0.4209 0.4272
H20F H 0.4576 0.4023 0.3603
O3C O 0.30052(18) 0.91895(17) 1.0881(5)
O3B O 0.19948(18) 0.58105(17) 1.0881(5)
Zn1_2 Zn 0.2500 0.89931(3) 0.0000
Zn1A_2 Zn 0.2500 0.60069(3) 0.0000
Zn2_2 Zn 0.39930(2) 0.7500 0.0000
Zn2A_2 Zn 0.10070(2) 0.7500 0.0000
Zn2D Zn 0.60070(2) 0.2500 0.0000
Zn3D Zn 0.71616(2) 0.28391(2) 0.39245(5)
Zn3F Zn 0.71616(2) 1.21609(2) 1.60755(5)
Zn3G Zn -0.21616(2) 0.28391(2) 1.60755(5)
N1B_2 N 0.27538(17) 0.64414(16) 1.1199(5)
N1C_2 N 0.22462(17) 0.85586(16) 1.1199(5)
O2C O 0.08150(14) 0.79995(18) 0.9119(6)
O5D O 0.3188(3) 0.8184(3) 0.4955(5)
O5E O 0.1812(3) 0.6816(3) 0.4955(5)
O5G O 0.1812(3) 0.8184(3) 0.5045(5)
N5B_2 N 0.35782(10) 0.72580(14) 1.1102(3)
N5C_2 N 0.14218(10) 0.77420(14) 1.1102(3)
O6C O 0.0413(4) 0.7959(5) 1.0714(9)
loop_
_geom_bond_atom_site_label_1
_geom_bond_atom_site_label_2
_geom_bond_site_symmetry_1
_geom_bond_site_symmetry_2
Zn1 N1 1_555 1_555
Zn2 O2 1_555 1_555
Zn3 O1 1_555 1_555
O1 Zn3A 1_555 1_555
N1 C1 1_555 1_555
O2 C13 1_555 1_555
O3 Zn1 1_555 1_555
N2 C1 1_555 1_555
N3 H1 1_555 1_555
H2 N3 1_555 1_555
O4 C2 1_555 1_555
C1 H3 1_555 1_555
O5 C2 1_555 1_555
C2 C12 1_555 1_555
C3 N3 1_555 1_555
C4 N1 1_555 1_555
C5 N2 1_555 1_555
N4 Zn3 1_555 1_555
C6 N4 1_555 1_555
H4 C6 1_555 1_555
N5 Zn2 1_555 1_555
C7 H5 1_555 1_555
C8 C7 1_555 1_555
H6 C8 1_555 1_555
C9 C8 1_555 1_555
C10 C9 1_555 1_555
H7 C10 1_555 1_555
C11 C10 1_555 1_555
H8 C11 1_555 1_555
C12 C7 1_555 1_555
O6 Zn2 1_555 1_555
C13 O6 1_555 1_555
C14 C13 1_555 1_555
C15 C14 1_555 1_555
H9 C15 1_555 1_555
C16 C15 1_555 1_555
H10 C16 1_555 1_555
C17 C16 1_555 1_555
C18 C17 1_555 1_555
H11 C18 1_555 1_555
C19 C14 1_555 1_555
H12 C19 1_555 1_555
C20 C9 1_555 1_555
C21 C17 1_555 1_555
C22 C21 1_555 1_555
C23 C20 1_555 1_555
C24 C20 1_555 1_555
H13 C24 1_555 1_555
C25 C21 1_555 1_555
H14 C25 1_555 1_555
C26 C23 1_555 1_555
H15 C26 1_555 1_555
H16 C26 1_555 1_555
H17 C26 1_555 1_555
C27 C22 1_555 1_555
H18 C27 1_555 1_555
H19 C27 1_555 1_555
H20 C27 1_555 1_555
Zn1A N1A 1_555 1_555
Zn2A O2A 1_555 1_555
Zn3A N2 1_555 1_555
N1A C1A 1_555 1_555
O2A C13A 1_555 1_555
O3A Zn1A 1_555 1_555
N2A Zn3 1_555 1_555
N3A H1A 1_555 1_555
H2A N3A 1_555 1_555
O4A C2A 1_555 1_555
C1A N2A 1_555 1_555
H3A C1A 1_555 1_555
O5A C2A 1_555 1_555
C2A C12A 1_555 1_555
C3A N3A 1_555 1_555
C4A N1A 1_555 1_555
C5A N2A 1_555 1_555
N4A Zn3A 1_555 1_555
C6A N4A 1_555 1_555
H4A C6A 1_555 1_555
N5A Zn2A 1_555 1_555
C7A H5A 1_555 1_555
C8A C7A 1_555 1_555
H6A C8A 1_555 1_555
C9A C8A 1_555 1_555
C10A C9A 1_555 1_555
H7A C10A 1_555 1_555
C11A C10A 1_555 1_555
H8A C11A 1_555 1_555
C12A C7A 1_555 1_555
O6A Zn2A 1_555 1_555
C13A O6A 1_555 1_555
C14A C13A 1_555 1_555
C15A C14A 1_555 1_555
H9A C15A 1_555 1_555
C16A C15A 1_555 1_555
H10A C16A 1_555 1_555
C17A C16A 1_555 1_555
C18A C17A 1_555 1_555
H11A C18A 1_555 1_555
C19A C14A 1_555 1_555
H12A C19A 1_555 1_555
C20A C9A 1_555 1_555
C21A C17A 1_555 1_555
C22A C21A 1_555 1_555
C23A C20A 1_555 1_555
C24A C20A 1_555 1_555
H13A C24A 1_555 1_555
C25A C21A 1_555 1_555
H14A C25A 1_555 1_555
C26A C23A 1_555 1_555
H15A C26A 1_555 1_555
H16A C26A 1_555 1_555
H17A C26A 1_555 1_555
C27A C22A 1_555 1_555
H18A C27A 1_555 1_555
H19A C27A 1_555 1_555
H20A C27A 1_555 1_555
Zn3B O1 1_555 1_555
N1B C1B 1_555 1_555
N2B C1B 1_555 1_555
N3B H1B 1_555 1_555
H2B N3B 1_555 1_555
C1B H3B 1_555 1_555
C3B N3B 1_555 1_555
C4B N1B 1_555 1_555
C5B N2B 1_555 1_555
N4B Zn3B 1_555 1_555
C6B N4B 1_555 1_555
H4B C6B 1_555 1_555
N5B C3B 1_555 1_555
Zn3C O1 1_555 1_555
N1C C1C 1_555 1_555
N2C Zn3B 1_555 1_555
N3C H1C 1_555 1_555
H2C N3C 1_555 1_555
C1C N2C 1_555 1_555
H3C C1C 1_555 1_555
C3C N3C 1_555 1_555
C4C N1C 1_555 1_555
C5C N2C 1_555 1_555
N4C Zn3C 1_555 1_555
C6C N4C 1_555 1_555
H4C C6C 1_555 1_555
N5C C3C 1_555 1_555
O2B Zn2 1_555 1_555
O4B C2B 1_555 1_555
O5B C2B 1_555 1_555
C2B C12B 1_555 1_555
C7B H5B 1_555 1_555
C8B C7B 1_555 1_555
H6B C8B 1_555 1_555
C9B C8B 1_555 1_555
C10B C9B 1_555 1_555
H7B C10B 1_555 1_555
C11B C10B 1_555 1_555
H8B C11B 1_555 1_555
C12B C7B 1_555 1_555
O6B Zn2 1_555 1_555
C13B O2B 1_555 1_555
C14B C13B 1_555 1_555
C15B C14B 1_555 1_555
H9B C15B 1_555 1_555
C16B C15B 1_555 1_555
H10B C16B 1_555 1_555
C17B C16B 1_555 1_555
C18B C17B 1_555 1_555
H11B C18B 1_555 1_555
C19B C14B 1_555 1_555
H12B C19B 1_555 1_555
C20B C9B 1_555 1_555
C21B C17B 1_555 1_555
C22B C21B 1_555 1_555
C23B C20B 1_555 1_555
C24B C20B 1_555 1_555
H13B C24B 1_555 1_555
C25B C21B 1_555 1_555
H14B C25B 1_555 1_555
C26B C23B 1_555 1_555
H15B C26B 1_555 1_555
H16B C26B 1_555 1_555
H17B C26B 1_555 1_555
C27B C22B 1_555 1_555
H18B C27B 1_555 1_555
H19B C27B 1_555 1_555
H20B C27B 1_555 1_555
O2F C13F 1_555 1_555
O4F C2F 1_555 1_555
O5F Zn3 1_555 1_555
C2F O5F 1_555 1_555
C7F H5F 1_555 1_555
C8F C7F 1_555 1_555
H6F C8F 1_555 1_555
C9F C8F 1_555 1_555
C10F C9F 1_555 1_555
H7F C10F 1_555 1_555
C11F C10F 1_555 1_555
H8F C11F 1_555 1_555
C12F C2F 1_555 1_555
O6F C13F 1_555 1_555
C13F C14F 1_555 1_555
C14F C15F 1_555 1_555
C15F H9F 1_555 1_555
C16F C15F 1_555 1_555
H10F C16F 1_555 1_555
C17F C16F 1_555 1_555
C18F C17F 1_555 1_555
H11F C18F 1_555 1_555
C19F C14F 1_555 1_555
H12F C19F 1_555 1_555
C20F C9F 1_555 1_555
C21F C17F 1_555 1_555
C22F C21F 1_555 1_555
C23F C20F 1_555 1_555
C24F C20F 1_555 1_555
H13F C24F 1_555 1_555
C25F C21F 1_555 1_555
H14F C25F 1_555 1_555
C26F C23F 1_555 1_555
H15F C26F 1_555 1_555
H16F C26F 1_555 1_555
H17F C26F 1_555 1_555
C27F C22F 1_555 1_555
H18F C27F 1_555 1_555
H19F C27F 1_555 1_555
H20F C27F 1_555 1_555
O3C Zn1 1_555 1_555
O3B Zn1A 1_555 1_555
Zn1_2 N1C 1_555 1_555
Zn1A_2 N1B 1_555 1_555
Zn2_2 N5B 1_555 1_555
Zn2A_2 N5C 1_555 1_555
Zn2D O2F 1_555 1_555
Zn3D O5B 1_555 1_555
Zn3F O5 1_555 1_555
Zn3G O5A 1_555 1_555
N1B_2 Zn1A 1_555 1_555
N1C_2 Zn1 1_555 1_555
O2C Zn2A 1_555 1_555
O5D Zn3B 1_555 1_555
O5E Zn3C 1_555 1_555
O5G Zn3A 1_555 1_555
N5B_2 Zn2 1_555 1_555
N5C_2 Zn2A 1_555 1_555
O6C Zn2A 1_555 1_555
C3 C4 1_555 1_555
C3 N5 1_555 1_555
C4 C5 1_555 1_555
C5 N4 1_555 1_555
C6 N5 1_555 1_555
C11 C12 1_555 1_555
C18 C19 1_555 1_555
C22 C24 1_555 1_555
C23 C25 1_555 1_555
C3A C4A 1_555 1_555
C3A N5A 1_555 1_555
C4A C5A 1_555 1_555
C5A N4A 1_555 1_555
C6A N5A 1_555 1_555
C11A C12A 1_555 1_555
C18A C19A 1_555 1_555
C22A C24A 1_555 1_555
C23A C25A 1_555 1_555
N2B Zn3C 1_555 1_555
C3B C4B 1_555 1_555
C4B C5B 1_555 1_555
C5B N4B 1_555 1_555
C6B N5B 1_555 1_555
C3C C4C 1_555 1_555
C4C C5C 1_555 1_555
C5C N4C 1_555 1_555
C6C N5C 1_555 1_555
C11B C12B 1_555 1_555
O6B C13B 1_555 1_555
C18B C19B 1_555 1_555
C22B C24B 1_555 1_555
C23B C25B 1_555 1_555
C7F C12F 1_555 1_555
C11F C12F 1_555 1_555
O6F Zn2D 1_555 1_555
C18F C19F 1_555 1_555
C22F C24F 1_555 1_555
C23F C25F 1_555 1_555

#END
