
#######################################################################
#
#                 Cambridge Crystallographic Data Centre
#                                CCDC 
#
#######################################################################
#
# If this CIF has been generated from an entry in the Cambridge 
# Structural Database, then it will include bibliographic, chemical, 
# crystal, experimental, refinement or atomic coordinate data resulting 
# from the CCDC's data processing and validation procedures.
#
#######################################################################

data_CURYOE01
_chemical_formula_moiety         '(C26 H18 Cd1 Cl2 N4 O2)n'
_symmetry_cell_setting           rhombohedral
_symmetry_space_group_name_H-M   'R -3 m'
_symmetry_Int_Tables_number      166
_space_group_name_Hall           '-R 3 2"'
loop_
_symmetry_equiv_pos_site_id
_symmetry_equiv_pos_as_xyz
1 x,y,z
2 -y,x-y,z
3 -x+y,-x,z
4 y,x,-z
5 x-y,-y,-z
6 -x,-x+y,-z
7 2/3+x,1/3+y,1/3+z
8 2/3-y,1/3+x-y,1/3+z
9 2/3-x+y,1/3-x,1/3+z
10 2/3+y,1/3+x,1/3-z
11 2/3+x-y,1/3-y,1/3-z
12 2/3-x,1/3-x+y,1/3-z
13 1/3+x,2/3+y,2/3+z
14 1/3-y,2/3+x-y,2/3+z
15 1/3-x+y,2/3-x,2/3+z
16 1/3+y,2/3+x,2/3-z
17 1/3+x-y,2/3-y,2/3-z
18 1/3-x,2/3-x+y,2/3-z
19 -x,-y,-z
20 y,-x+y,-z
21 x-y,x,-z
22 -y,-x,z
23 -x+y,y,z
24 x,x-y,z
25 1/3-x,2/3-y,2/3-z
26 1/3+y,2/3-x+y,2/3-z
27 1/3+x-y,2/3+x,2/3-z
28 1/3-y,2/3-x,2/3+z
29 1/3-x+y,2/3+y,2/3+z
30 1/3+x,2/3+x-y,2/3+z
31 2/3-x,1/3-y,1/3-z
32 2/3+y,1/3-x+y,1/3-z
33 2/3+x-y,1/3+x,1/3-z
34 2/3-y,1/3-x,1/3+z
35 2/3-x+y,1/3+y,1/3+z
36 2/3+x,1/3+x-y,1/3+z
_cell_length_a                   26.9517(14)
_cell_length_b                   26.9517(14)
_cell_length_c                   13.2369(14)
_cell_angle_alpha                90
_cell_angle_beta                 90
_cell_angle_gamma                120
_cell_volume                     8327.01
loop_
_atom_site_label
_atom_site_type_symbol
_atom_site_fract_x
_atom_site_fract_y
_atom_site_fract_z
O1 O 0.5986(10) 0.1448(9) 1.3302(16)
O1V O 0.5462(13) 0.1448(9) 1.3302(16)
Cd1 Cd 0.5000 0.5000 1.0000
Cl1 Cl 0.47175(7) 0.52826(3) 1.16589(10)
N1 N 0.45892(16) 0.40290(16) 1.0619(3)
C1 C 0.4491(2) 0.36143(27) 0.9962(3)
H1 H 0.4653 0.3721 0.9304
C2 C 0.4168(2) 0.30373(28) 1.0189(3)
H2 H 0.4115 0.2758 0.9699
C3 C 0.39216(18) 0.28694(26) 1.1136(3)
C4 C 0.4027(2) 0.3299(3) 1.1821(4)
H3 H 0.3870 0.3205 1.2483
C5 C 0.4361(2) 0.3868(3) 1.1536(4)
H4 H 0.4431 0.4157 1.2019
C6 C 0.35907(17) 0.22484(25) 1.1405(3)
C7 C 0.38402(13) 0.19201(18) 1.1152(4)
H5 H 0.4194 0.2097 1.0795
Cd1A Cd 0.5000 -0.0000 1.0000
Cd1F Cd 0.1667 -0.1667 1.3333
Cd1G Cd 0.1667 0.3333 1.3333
Cl1C Cl 0.52826(3) 0.47175(7) 0.83411(10)
N1W N 0.45892(16) 0.05602(23) 1.0619(3)
N1DA N 0.20775(16) -0.06957(16) 1.2714(3)
N1K N 0.20775(16) 0.27731(23) 1.2714(3)
N1C N 0.40290(16) 0.45892(16) 0.9381(3)
N1R N 0.54108(16) 0.59710(16) 0.9381(3)
N1U N 0.59710(16) 0.54108(16) 1.0619(3)
C1W C 0.4491(2) 0.08767(34) 0.9962(3)
C1DA C 0.2176(2) -0.02810(27) 1.3371(3)
C1K C 0.2176(2) 0.24566(34) 1.3371(3)
H1W H 0.4653 0.0932 0.9304
H1DA H 0.2014 -0.0388 1.4029
H1K H 0.2014 0.2401 1.4029
C2W C 0.4168(2) 0.11307(34) 1.0189(3)
C2DA C 0.2499(2) 0.02960(28) 1.3144(3)
C2K C 0.2499(2) 0.22026(34) 1.3144(3)
H2W H 0.4115 0.1357 0.9699
H2DA H 0.2552 0.0575 1.3634
H2K H 0.2552 0.1976 1.3634
C3W C 0.39216(18) 0.10522(32) 1.1136(3)
C3DA C 0.27451(18) 0.04639(26) 1.2197(3)
C3K C 0.27451(18) 0.22811(32) 1.2197(3)
C4W C 0.4027(2) 0.0728(4) 1.1821(4)
C4DA C 0.2640(2) 0.0034(3) 1.1512(4)
C4K C 0.2640(2) 0.2605(4) 1.1512(4)
H3W H 0.3870 0.0665 1.2483
H3DA H 0.2797 0.0128 1.0850
H3K H 0.2797 0.2668 1.0850
C5W C 0.4361(2) 0.0493(4) 1.1536(4)
C5DA C 0.2306(2) -0.0535(3) 1.1797(4)
C5K C 0.2306(2) 0.2840(4) 1.1797(4)
H4W H 0.4431 0.0274 1.2019
H4DA H 0.2236 -0.0824 1.1314
H4K H 0.2236 0.3059 1.1314
C6W C 0.35907(17) 0.13423(30) 1.1405(3)
C6DA C 0.30760(17) 0.10849(25) 1.1928(3)
C6K C 0.30760(17) 0.19910(30) 1.1928(3)
C7K C 0.28265(13) 0.14132(22) 1.2181(4)
H5K H 0.2473 0.1236 1.2538
loop_
_geom_bond_atom_site_label_1
_geom_bond_atom_site_label_2
_geom_bond_site_symmetry_1
_geom_bond_site_symmetry_2
Cd1 Cl1 1_555 1_555
N1 Cd1 1_555 1_555
C1 N1 1_555 1_555
H1 C1 1_555 1_555
C2 C1 1_555 1_555
H2 C2 1_555 1_555
C3 C2 1_555 1_555
C4 C3 1_555 1_555
H3 C4 1_555 1_555
C5 N1 1_555 1_555
H4 C5 1_555 1_555
C6 C3 1_555 1_555
C7 C6 1_555 1_555
H5 C7 1_555 1_555
O1 O1V 1_555 1_555
Cd1A N1W 1_555 1_555
Cd1F N1DA 1_555 1_555
Cd1G N1K 1_555 1_555
Cl1C Cd1 1_555 1_555
N1W C1W 1_555 1_555
N1DA C1DA 1_555 1_555
N1K C1K 1_555 1_555
N1C Cd1 1_555 1_555
N1R Cd1 1_555 1_555
N1U Cd1 1_555 1_555
C1W H1W 1_555 1_555
C1DA H1DA 1_555 1_555
C1K H1K 1_555 1_555
C2W C1W 1_555 1_555
C2DA C1DA 1_555 1_555
C2K C1K 1_555 1_555
H2W C2W 1_555 1_555
H2DA C2DA 1_555 1_555
H2K C2K 1_555 1_555
C3W C2W 1_555 1_555
C3DA C2DA 1_555 1_555
C3K C2K 1_555 1_555
C4W C3W 1_555 1_555
C4DA C3DA 1_555 1_555
C4K C3K 1_555 1_555
H3W C4W 1_555 1_555
H3DA C4DA 1_555 1_555
H3K C4K 1_555 1_555
C5W N1W 1_555 1_555
C5DA N1DA 1_555 1_555
C5K N1K 1_555 1_555
H4W C5W 1_555 1_555
H4DA C5DA 1_555 1_555
H4K C5K 1_555 1_555
C6W C7 1_555 1_555
C6DA C3DA 1_555 1_555
C6K C6 1_555 1_555
C7K C6DA 1_555 1_555
H5K C7K 1_555 1_555
C4 C5 1_555 1_555
C3W C6W 1_555 1_555
C3K C6K 1_555 1_555
C4W C5W 1_555 1_555
C4DA C5DA 1_555 1_555
C4K C5K 1_555 1_555
C6W C6DA 1_555 1_555
C6K C7K 1_555 1_555

#END
