
#######################################################################
#
#                 Cambridge Crystallographic Data Centre
#                                CCDC 
#
#######################################################################
#
# If this CIF has been generated from an entry in the Cambridge 
# Structural Database, then it will include bibliographic, chemical, 
# crystal, experimental, refinement or atomic coordinate data resulting 
# from the CCDC's data processing and validation procedures.
#
#######################################################################

data_GIXNAE
_chemical_formula_moiety         '(C19 H32 N2 Ni1 O10)n'
_symmetry_cell_setting           orthorhombic
_symmetry_space_group_name_H-M   'P 21 21 21'
_symmetry_Int_Tables_number      19
_space_group_name_Hall           'P 2ac 2ab'
loop_
_symmetry_equiv_pos_site_id
_symmetry_equiv_pos_as_xyz
1 x,y,z
2 1/2-x,-y,1/2+z
3 -x,1/2+y,1/2-z
4 1/2+x,1/2-y,-z
_cell_length_a                   9.9916(7)
_cell_length_b                   16.3601(14)
_cell_length_c                   16.5344(14)
_cell_angle_alpha                90
_cell_angle_beta                 90
_cell_angle_gamma                90
_cell_volume                     2702.77
loop_
_atom_site_label
_atom_site_type_symbol
_atom_site_fract_x
_atom_site_fract_y
_atom_site_fract_z
_atom_site_U_iso_or_equiv
_atom_site_thermal_displace_type
Ni1 Ni 0.31089(12) 0.21375(8) 0.54656(8) 0.0399 Uani
O1 O 0.4925(5) 0.2313(4) 0.4841(4) 0.0447 Uani
O2 O 0.6293(6) 0.2920(4) 0.3944(4) 0.0433 Uani
C1 C 0.5168(9) 0.2662(5) 0.4174(5) 0.0383 Uani
C2 C 0.4061(9) 0.2847(9) 0.3563(7) 0.0630 Uani
H1 H 0.4309 0.2611 0.3033 0.0760 Uiso
H2 H 0.3983 0.3447 0.3496 0.0760 Uiso
C3 C 0.2697(11) 0.2500(9) 0.3826(7) 0.0627 Uani
H3 H 0.2017 0.2650 0.3408 0.0750 Uiso
O3 O 0.2348(5) 0.2915(5) 0.4583(4) 0.0453 Uani
H4 H 0.135(2) 0.2955(15) 0.465(4) 0.0540 Uiso
C4 C 0.2712(12) 0.1598(10) 0.3909(8) 0.0700 Uani
O4 O 0.2859(10) 0.1182(7) 0.3295(6) 0.0930 Uani
O5 O 0.2618(7) 0.1297(4) 0.4612(5) 0.0523 Uani
N1 N 0.6120(7) 0.6255(5) 0.8777(5) 0.0390 Uani
N2 N 0.3616(8) 0.3119(5) 0.6219(5) 0.0417 Uani
C5 C 0.6808(11) 0.5988(6) 0.8108(7) 0.0550 Uani
H5 H 0.7672 0.6207 0.8005 0.0660 Uiso
C6 C 0.6297(12) 0.5415(7) 0.7580(7) 0.0640 Uani
H6 H 0.6757 0.5291 0.7092 0.0770 Uiso
C7 C 0.5060(9) 0.5005(5) 0.7772(6) 0.0440 Uani
C8 C 0.4468(11) 0.5207(6) 0.8490(7) 0.0527 Uani
H7 H 0.3681 0.4930 0.8660 0.0630 Uiso
C9 C 0.5014(10) 0.5815(6) 0.8969(7) 0.0543 Uani
H8 H 0.4583 0.5933 0.9468 0.0650 Uiso
C10 C 0.4516(9) 0.4363(5) 0.7224(6) 0.0403 Uani
C11 C 0.3810(17) 0.3725(9) 0.7490(8) 0.0803 Uani
H9 H 0.3623 0.3684 0.8052 0.0960 Uiso
C12 C 0.3358(17) 0.3142(8) 0.6994(8) 0.0803 Uani
H10 H 0.2817 0.2721 0.7217 0.0960 Uiso
C13 C 0.4216(11) 0.3779(6) 0.5929(7) 0.0507 Uani
H11 H 0.4317 0.3818 0.5359 0.0610 Uiso
C14 C 0.4717(11) 0.4431(6) 0.6403(6) 0.0470 Uani
H12 H 0.5164 0.4886 0.6170 0.0570 Uiso
Ni1B Ni 0.68911(12) 0.71375(8) 0.95344(8) 0.0399 Uani
Ni1C Ni 0.81089(12) 0.28625(8) 0.45344(8) 0.0399 Uani
O2C O 0.1293(6) 0.2080(4) 0.6056(4) 0.0433 Uani
N1B N 0.3880(7) 0.1255(5) 0.6223(5) 0.0390 Uani
C15 C 0.466(6) 0.521(3) 0.329(2) 0.1030 Uani
H13 H 0.4757 0.5792 0.3146 0.1260 Uiso
H14 H 0.3957 0.4968 0.2952 0.1260 Uiso
H15 H 0.5506 0.4929 0.3194 0.1260 Uiso
O6 O 0.432(5) 0.515(2) 0.406(2) 0.1100 Uani
H16 H 0.5020 0.5134 0.4345 0.1320 Uiso
C16 C 0.572(4) 0.000(4) 0.387(5) 0.1197 Uani
H17 H 0.6201 0.0241 0.3415 0.1440 Uiso
H18 H 0.6173 -0.0504 0.4041 0.1440 Uiso
H19 H 0.5705 0.0386 0.4324 0.1440 Uiso
O7 O 0.450(3) -0.017(2) 0.366(3) 0.1233 Uani
H20 H 0.4105 0.0264 0.3527 0.1480 Uiso
C17 C 0.783(4) 0.581(2) 0.478(2) 0.0680 Uani
H21 H 0.7705 0.6393 0.4866 0.0820 Uiso
H22 H 0.7441 0.5649 0.4259 0.0820 Uiso
H23 H 0.8785 0.5676 0.4784 0.0820 Uiso
O8 O 0.724(3) 0.5410(14) 0.5349(18) 0.0830 Uani
H24 H 0.7799 0.5295 0.5712 0.0990 Uiso
C18 C 0.699(6) 0.322(3) 0.150(4) 0.1223 Uani
H25 H 0.6885 0.3648 0.1914 0.1490 Uiso
H26 H 0.7230 0.3476 0.0984 0.1490 Uiso
H27 H 0.7690 0.2840 0.1666 0.1490 Uiso
O9 O 0.586(5) 0.283(3) 0.142(3) 0.1220 Uani
H28 H 0.5956 0.2350 0.1588 0.1460 Uiso
C19 C 0.253(7) 0.273(4) 0.172(3) 0.1333 Uani
H29 H 0.3312 0.2786 0.2071 0.1610 Uiso
H30 H 0.2785 0.2823 0.1158 0.1610 Uiso
H31 H 0.2166 0.2172 0.1776 0.1610 Uiso
O10 O 0.163(5) 0.325(3) 0.193(2) 0.1333 Uani
H32 H 0.1167 0.3056 0.2312 0.1560 Uiso
loop_
_atom_site_aniso_label
_atom_site_aniso_U_11
_atom_site_aniso_U_22
_atom_site_aniso_U_33
_atom_site_aniso_U_23
_atom_site_aniso_U_13
_atom_site_aniso_U_12
Ni1 0.0136(4) 0.0516(7) 0.0544(7) 0.0013(6) -0.0031(5) 0.0011(5)
O1 0.015(3) 0.064(5) 0.055(4) 0.000(3) 0.004(3) -0.002(3)
O2 0.019(3) 0.057(4) 0.054(4) 0.014(3) 0.002(3) 0.000(3)
C1 0.018(4) 0.053(6) 0.044(5) 0.005(4) 0.007(4) 0.002(4)
C2 0.012(4) 0.106(9) 0.071(7) 0.016(8) -0.006(4) -0.007(5)
C3 0.028(6) 0.112(10) 0.048(7) 0.019(6) 0.000(4) -0.010(5)
O3 0.019(3) 0.077(5) 0.040(4) 0.003(4) 0.011(3) 0.015(3)
C4 0.046(7) 0.120(12) 0.044(7) -0.035(7) -0.007(5) -0.026(7)
O4 0.051(6) 0.151(9) 0.077(6) -0.047(6) 0.009(4) -0.031(5)
O5 0.032(4) 0.061(4) 0.064(6) -0.026(4) -0.016(4) -0.007(3)
N1 0.012(3) 0.055(5) 0.050(5) -0.006(3) 0.000(3) -0.010(3)
N2 0.023(4) 0.059(5) 0.043(5) 0.008(3) 0.004(3) 0.001(3)
C5 0.012(4) 0.078(6) 0.075(7) -0.020(5) 0.009(5) -0.008(5)
C6 0.024(5) 0.087(8) 0.081(9) -0.030(6) 0.011(5) -0.020(5)
C7 0.018(4) 0.042(5) 0.072(7) 0.002(4) -0.001(4) 0.004(4)
C8 0.049(7) 0.051(6) 0.058(7) -0.011(5) 0.006(5) -0.008(5)
C9 0.026(5) 0.060(6) 0.077(7) 0.003(5) 0.021(5) -0.020(5)
C10 0.016(4) 0.043(5) 0.062(6) 0.011(4) 0.003(4) 0.002(3)
C11 0.094(12) 0.083(9) 0.064(8) -0.015(7) 0.021(8) -0.036(8)
C12 0.089(12) 0.091(9) 0.061(8) 0.006(6) 0.009(7) -0.054(8)
C13 0.040(6) 0.050(6) 0.062(7) 0.006(5) 0.005(5) 0.003(4)
C14 0.035(6) 0.042(5) 0.064(7) -0.002(4) 0.004(5) -0.006(4)
Ni1B 0.0136 0.0516 0.0544 -0.0013 -0.0031 -0.0011
Ni1C 0.0136 0.0516 0.0544 0.0013 0.0031 -0.0011
O2C 0.019 0.057 0.054 0.014 -0.002 0
N1B 0.012 0.055 0.05 0.006 0 0.01
C15 0.14(3) 0.079(18) 0.09(2) 0.006(18) -0.07(2) -0.003(19)
O6 0.15(3) 0.080(17) 0.10(2) 0.008(17) -0.05(2) 0.000(18)
C16 0.049(19) 0.12(3) 0.19(4) -0.06(3) -0.01(2) 0.00(2)
O7 0.050(17) 0.12(2) 0.20(4) -0.05(2) -0.01(2) 0.015(17)
C17 0.081(16) 0.046(12) 0.077(15) -0.009(11) 0.027(13) 0.021(11)
O8 0.089(14) 0.052(11) 0.108(14) -0.003(10) 0.046(12) 0.014(10)
C18 0.13(2) 0.114(18) 0.123(18) 0.026(15) -0.008(16) 0.022(15)
O9 0.128(18) 0.110(16) 0.128(16) 0.034(14) 0.002(14) 0.015(14)
C19 0.13(4) 0.19(4) 0.08(3) 0.02(3) -0.02(2) 0.05(3)
O10 0.11(3) 0.18(4) 0.11(2) 0.03(2) -0.02(2) 0.07(3)
loop_
_geom_bond_atom_site_label_1
_geom_bond_atom_site_label_2
_geom_bond_site_symmetry_1
_geom_bond_site_symmetry_2
Ni1 O1 1_555 1_555
O1 C1 1_555 1_555
O2 C1 1_555 1_555
C1 C2 1_555 1_555
C2 H1 1_555 1_555
H2 C2 1_555 1_555
C3 C2 1_555 1_555
H3 C3 1_555 1_555
O3 Ni1 1_555 1_555
H4 O3 1_555 1_555
C4 C3 1_555 1_555
O4 C4 1_555 1_555
O5 Ni1 1_555 1_555
N1 C5 1_555 1_555
N2 Ni1 1_555 1_555
C5 H5 1_555 1_555
C6 C5 1_555 1_555
H6 C6 1_555 1_555
C7 C6 1_555 1_555
C8 C7 1_555 1_555
H7 C8 1_555 1_555
C9 N1 1_555 1_555
H8 C9 1_555 1_555
C10 C7 1_555 1_555
C11 C10 1_555 1_555
H9 C11 1_555 1_555
C12 N2 1_555 1_555
H10 C12 1_555 1_555
C13 N2 1_555 1_555
H11 C13 1_555 1_555
C14 C10 1_555 1_555
H12 C14 1_555 1_555
C15 H13 1_555 1_555
H14 C15 1_555 1_555
H15 C15 1_555 1_555
O6 C15 1_555 1_555
H16 O6 1_555 1_555
C16 H17 1_555 1_555
H18 C16 1_555 1_555
H19 C16 1_555 1_555
O7 C16 1_555 1_555
H20 O7 1_555 1_555
C17 H21 1_555 1_555
H22 C17 1_555 1_555
H23 C17 1_555 1_555
O8 C17 1_555 1_555
H24 O8 1_555 1_555
C18 H25 1_555 1_555
H26 C18 1_555 1_555
H27 C18 1_555 1_555
O9 C18 1_555 1_555
H28 O9 1_555 1_555
C19 H29 1_555 1_555
H30 C19 1_555 1_555
H31 C19 1_555 1_555
O10 C19 1_555 1_555
H32 O10 1_555 1_555
Ni1B N1 1_555 1_555
Ni1C O2 1_555 1_555
O2C Ni1 1_555 1_555
N1B Ni1 1_555 1_555
C3 O3 1_555 1_555
C4 O5 1_555 1_555
C8 C9 1_555 1_555
C11 C12 1_555 1_555
C13 C14 1_555 1_555

#END
