
#######################################################################
#
#                 Cambridge Crystallographic Data Centre
#                                CCDC 
#
#######################################################################
#
# If this CIF has been generated from an entry in the Cambridge 
# Structural Database, then it will include bibliographic, chemical, 
# crystal, experimental, refinement or atomic coordinate data resulting 
# from the CCDC's data processing and validation procedures.
#
#######################################################################

data_QASTUC
_chemical_formula_moiety         '(C78 H60 Mn3 N12 O14)n'
_symmetry_cell_setting           orthorhombic
_symmetry_space_group_name_H-M   'P n m a'
_symmetry_Int_Tables_number      62
_space_group_name_Hall           '-P 2ac 2n'
loop_
_symmetry_equiv_pos_site_id
_symmetry_equiv_pos_as_xyz
1 x,y,z
2 1/2-x,-y,1/2+z
3 1/2+x,1/2-y,1/2-z
4 -x,1/2+y,-z
5 -x,-y,-z
6 1/2+x,y,1/2-z
7 1/2-x,1/2+y,1/2+z
8 x,1/2-y,z
_cell_length_a                   18.894(4)
_cell_length_b                   31.681(7)
_cell_length_c                   13.876(3)
_cell_angle_alpha                90
_cell_angle_beta                 90
_cell_angle_gamma                90
_cell_volume                     8305.91
loop_
_atom_site_label
_atom_site_type_symbol
_atom_site_fract_x
_atom_site_fract_y
_atom_site_fract_z
_atom_site_U_iso_or_equiv
_atom_site_thermal_displace_type
O1 O 1.0055(9) 0.2500 1.3531(14) 0.0810 Uani
C1 C 0.9420(14) 0.2500 1.383(2) 0.0620 Uani
C2 C 0.8841(12) 0.2500 1.3091(18) 0.0540 Uani
C3 C 0.9007(13) 0.2500 1.2117(19) 0.0640 Uani
H1 H 0.9477 0.2500 1.1920 0.0780 Uiso
O2 O 0.1892(7) 0.0082(4) 0.4445(11) 0.0830 Uani
Mn1 Mn 0.57368(15) 0.2500 1.0421(2) 0.0360 Uani
Mn2 Mn 0.26214(12) -0.08337(6) 0.47499(16) 0.0373 Uani
O3 O 0.2231(7) -0.1399(4) 0.4193(10) 0.0700 Uani
O4 O 0.3368(7) -0.1390(4) 0.4463(10) 0.0720 Uani
O5 O 0.9281(11) 0.2500 1.4698(16) 0.0960 Uani
O6 O 0.6555(9) 0.2500 1.1276(13) 0.0660 Uani
N1 N 0.2553(7) -0.1008(4) 0.6277(10) 0.0553 Uani
N2 N 0.3241(7) -0.0397(4) 0.5442(9) 0.0450 Uani
N3 N 0.3088(7) -0.0488(4) 0.3595(9) 0.0503 Uani
N4 N 0.5450(8) 0.1511(5) 0.8457(14) 0.0847 Uani
N5 N 0.5741(8) 0.2002(5) 0.9525(13) 0.0753 Uani
C4 C 0.2977(10) -0.0552(6) 0.2652(13) 0.0633 Uani
H2 H 0.2693 -0.0778 0.2464 0.0760 Uiso
O7 O 0.7352(10) 0.2500 1.0103(15) 0.0867 Uani
C5 C 0.3256(8) -0.0381(5) 0.6405(11) 0.0467 Uani
O8 O 0.1656(6) -0.0583(4) 0.4861(9) 0.0617 Uani
C6 C 0.3957(9) 0.0222(5) 0.5364(11) 0.0490 Uani
H3 H 0.4202 0.0420 0.4998 0.0590 Uiso
C7 C 0.7755(11) 0.2500 1.1719(18) 0.0513 Uani
C8 C 0.3614(9) -0.0066(5) 0.6885(12) 0.0520 Uani
H4 H 0.3621 -0.0061 0.7555 0.0620 Uiso
C9 C 0.3497(8) -0.0156(5) 0.3865(12) 0.0493 Uani
C10 C 0.3577(8) -0.0103(5) 0.4915(11) 0.0453 Uani
C11 C 0.7594(13) 0.2500 1.2685(19) 0.0583 Uani
H5 H 0.7123 0.2500 1.2881 0.0700 Uiso
C12 C 0.4063(9) 0.0761(5) 0.7720(12) 0.0580 Uani
H6 H 0.3632 0.0661 0.7948 0.0700 Uiso
C13 C 0.2857(9) -0.0730(5) 0.6880(12) 0.0517 Uani
C14 C 0.3962(8) 0.0244(5) 0.6362(12) 0.0500 Uani
C15 C 0.2809(10) -0.1588(5) 0.4250(13) 0.0560 Uani
C16 C 0.4337(9) 0.0596(5) 0.6871(12) 0.0500 Uani
C17 C 0.7191(13) 0.2500 1.0980(19) 0.0557 Uani
C18 C 0.5230(9) 0.1794(6) 0.9102(13) 0.0590 Uani
H7 H 0.4754 0.1840 0.9238 0.0710 Uiso
C19 C 0.8134(12) 0.2500 1.3378(18) 0.0550 Uani
H8 H 0.8020 0.2500 1.4030 0.0660 Uiso
C20 C 0.2214(9) -0.2281(5) 0.4041(13) 0.0557 Uani
H9 H 0.1789 -0.2136 0.3966 0.0840 Uiso
C21 C 0.2160(10) -0.1322(6) 0.6638(16) 0.0750 Uani
H10 H 0.1955 -0.1514 0.6216 0.0900 Uiso
C22 C 0.2831(9) -0.2059(5) 0.4149(12) 0.0513 Uani
C23 C 0.4413(9) 0.1069(5) 0.8235(13) 0.0593 Uani
H11 H 0.4221 0.1176 0.8802 0.0710 Uiso
C24 C 0.5055(9) 0.1217(5) 0.7897(14) 0.0600 Uani
C25 C 0.4963(10) 0.0769(6) 0.6522(14) 0.0657 Uani
H12 H 0.5143 0.0676 0.5935 0.0790 Uiso
C26 C 0.3268(13) -0.0296(7) 0.1945(14) 0.0873 Uani
H13 H 0.3184 -0.0347 0.1295 0.1070 Uiso
C27 C 0.5320(10) 0.1074(6) 0.7030(15) 0.0737 Uani
H14 H 0.5741 0.1184 0.6789 0.0890 Uiso
C28 C 0.8468(13) 0.2500 1.1434(18) 0.0627 Uani
H15 H 0.8581 0.2500 1.0782 0.0770 Uiso
C29 C 0.3686(13) 0.0035(7) 0.2237(15) 0.0967 Uani
H16 H 0.3891 0.0212 0.1780 0.1160 Uiso
C30 C 0.3803(11) 0.0105(6) 0.3202(13) 0.0753 Uani
H17 H 0.4088 0.0328 0.3401 0.0900 Uiso
C31 C 0.2371(12) -0.1090(7) 0.8226(16) 0.0890 Uani
H18 H 0.2319 -0.1120 0.8889 0.1060 Uiso
C32 C 0.2769(11) -0.0765(6) 0.7863(14) 0.0767 Uani
H19 H 0.2977 -0.0570 0.8276 0.0920 Uiso
C33 C 0.3462(10) -0.2282(5) 0.4235(17) 0.0787 Uani
H20 H 0.3887 -0.2136 0.4293 0.1180 Uiso
C34 C 0.2049(12) -0.1370(7) 0.7615(17) 0.0870 Uani
H21 H 0.1765 -0.1586 0.7851 0.1040 Uiso
C35 C 0.6328(14) 0.1833(13) 0.915(4) 0.2513 Uani
H22 H 0.6787 0.1917 0.9294 0.3020 Uiso
C36 C 0.6158(15) 0.1527(15) 0.853(4) 0.2933 Uani
H23 H 0.6476 0.1354 0.8205 0.3530 Uiso
C37 C 0.0711(9) -0.0098(5) 0.4853(11) 0.0510 Uani
C38 C 0.1486(10) -0.0199(6) 0.4698(11) 0.0553 Uani
C39 C 0.0468(9) 0.0307(6) 0.4700(12) 0.0580 Uani
H24 H 0.0781 0.0516 0.4498 0.0870 Uiso
C40 C 0.0235(10) -0.0404(6) 0.5157(13) 0.0597 Uani
H25 H 0.0393 -0.0678 0.5264 0.0890 Uiso
O2D O -0.1892(7) -0.0082(4) 0.5555(11) 0.0830 Uani
O8D O -0.1656(6) 0.0583(4) 0.5139(9) 0.0617 Uani
C37D C -0.0711(9) 0.0098(5) 0.5147(11) 0.0510 Uani
C38D C -0.1486(10) 0.0199(6) 0.5302(11) 0.0553 Uani
C39D C -0.0468(9) -0.0307(6) 0.5300(12) 0.0580 Uani
H24D H -0.0781 -0.0516 0.5502 0.0870 Uiso
C40D C -0.0235(10) 0.0404(6) 0.4843(13) 0.0597 Uani
H25D H -0.0393 0.0678 0.4736 0.0890 Uiso
O3G O 0.2231(7) -0.3601(4) 0.4193(10) 0.0700 Uani
O4G O 0.3368(7) -0.3610(4) 0.4463(10) 0.0720 Uani
C15G C 0.2809(10) -0.3412(5) 0.4250(13) 0.0560 Uani
C20G C 0.2214(9) -0.2719(5) 0.4041(13) 0.0557 Uani
H9G H 0.1789 -0.2864 0.3966 0.0840 Uiso
C22G C 0.2831(9) -0.2941(5) 0.4149(12) 0.0513 Uani
C33G C 0.3462(10) -0.2718(5) 0.4235(17) 0.0787 Uani
H20G H 0.3887 -0.2864 0.4293 0.1180 Uiso
Mn2D Mn -0.26214(12) 0.08337(6) 0.52501(16) 0.0373 Uani
N1D N -0.2553(7) 0.1008(4) 0.3723(10) 0.0553 Uani
N2D N -0.3241(7) 0.0397(4) 0.4558(9) 0.0450 Uani
N3D N -0.3088(7) 0.0488(4) 0.6405(9) 0.0503 Uani
N4D N -0.5450(8) -0.1511(5) 0.1543(14) 0.0847 Uani
N5D N -0.5741(8) -0.2002(5) 0.0475(13) 0.0753 Uani
C4D C -0.2977(10) 0.0552(6) 0.7348(13) 0.0633 Uani
H2D H -0.2693 0.0778 0.7536 0.0760 Uiso
C5D C -0.3256(8) 0.0381(5) 0.3595(11) 0.0467 Uani
C6D C -0.3957(9) -0.0222(5) 0.4636(11) 0.0490 Uani
H3D H -0.4202 -0.0420 0.5002 0.0590 Uiso
C8D C -0.3614(9) 0.0066(5) 0.3115(12) 0.0520 Uani
H4D H -0.3621 0.0061 0.2445 0.0620 Uiso
C9D C -0.3497(8) 0.0156(5) 0.6135(12) 0.0493 Uani
C10D C -0.3577(8) 0.0103(5) 0.5085(11) 0.0453 Uani
C12D C -0.4063(9) -0.0761(5) 0.2280(12) 0.0580 Uani
H6D H -0.3632 -0.0661 0.2052 0.0700 Uiso
C13D C -0.2857(9) 0.0730(5) 0.3120(12) 0.0517 Uani
C14D C -0.3962(8) -0.0244(5) 0.3638(12) 0.0500 Uani
C16D C -0.4337(9) -0.0596(5) 0.3129(12) 0.0500 Uani
C18D C -0.5230(9) -0.1794(6) 0.0898(13) 0.0590 Uani
H7D H -0.4754 -0.1840 0.0762 0.0710 Uiso
C21D C -0.2160(10) 0.1322(6) 0.3362(16) 0.0750 Uani
H10D H -0.1955 0.1514 0.3784 0.0900 Uiso
C23D C -0.4413(9) -0.1069(5) 0.1765(13) 0.0593 Uani
H11D H -0.4221 -0.1176 0.1198 0.0710 Uiso
C24D C -0.5055(9) -0.1217(5) 0.2103(14) 0.0600 Uani
C25D C -0.4963(10) -0.0769(6) 0.3478(14) 0.0657 Uani
H12D H -0.5143 -0.0676 0.4065 0.0790 Uiso
C26D C -0.3268(13) 0.0296(7) 0.8055(14) 0.0873 Uani
H13D H -0.3184 0.0347 0.8705 0.1070 Uiso
C27D C -0.5320(10) -0.1074(6) 0.2970(15) 0.0737 Uani
H14D H -0.5741 -0.1184 0.3211 0.0890 Uiso
C29D C -0.3686(13) -0.0035(7) 0.7763(15) 0.0967 Uani
H16D H -0.3891 -0.0212 0.8220 0.1160 Uiso
C30D C -0.3803(11) -0.0105(6) 0.6798(13) 0.0753 Uani
H17D H -0.4088 -0.0328 0.6599 0.0900 Uiso
C31D C -0.2371(12) 0.1090(7) 0.1774(16) 0.0890 Uani
H18D H -0.2319 0.1120 0.1111 0.1060 Uiso
C32D C -0.2769(11) 0.0765(6) 0.2137(14) 0.0767 Uani
H19D H -0.2977 0.0570 0.1724 0.0920 Uiso
C34D C -0.2049(12) 0.1370(7) 0.2385(17) 0.0870 Uani
H21D H -0.1765 0.1586 0.2149 0.1040 Uiso
C35D C -0.6328(14) -0.1833(13) 0.085(4) 0.2513 Uani
H22D H -0.6787 -0.1917 0.0706 0.3020 Uiso
C36D C -0.6158(15) -0.1527(15) 0.147(4) 0.2933 Uani
H23D H -0.6476 -0.1354 0.1795 0.3530 Uiso
O1B O 0.5055(9) 0.2500 1.1469(14) 0.0810 Uani
Mn1B Mn 1.07368(15) 0.2500 1.4579(2) 0.0360 Uani
Mn1C Mn -0.57368(15) -0.2500 -0.0421(2) 0.0360 Uani
Mn2G Mn 0.26214(12) -0.41663(6) 0.47499(16) 0.0373 Uani
O3D O -0.2231(7) 0.1399(4) 0.5807(10) 0.0700 Uani
O4D O -0.3368(7) 0.1390(4) 0.5537(10) 0.0720 Uani
N5G N 0.5741(8) 0.2998(5) 0.9525(13) 0.0753 Uani
N6 N 0.4550(10) 0.8621(6) 0.6955(16) 0.0920 Uani
O9 O 0.5072(11) 0.9134(6) 0.6071(14) 0.1340 Uani
C41 C 0.4052(13) 0.8272(8) 0.697(2) 0.1333 Uani
H26 H 0.3839 0.8242 0.6348 0.2020 Uiso
H27 H 0.3691 0.8327 0.7443 0.2020 Uiso
H28 H 0.4297 0.8017 0.7137 0.2020 Uiso
C42 C 0.4645(13) 0.8844(8) 0.617(2) 0.0963 Uani
H29 H 0.4365 0.8776 0.5638 0.1170 Uiso
C43 C 0.494(2) 0.8714(12) 0.780(2) 0.1767 Uani
H30 H 0.5246 0.8950 0.7682 0.2680 Uiso
H31 H 0.5214 0.8473 0.7983 0.2680 Uiso
H32 H 0.4615 0.8784 0.8312 0.2680 Uiso
N7 N 0.114(3) 0.8219(16) 0.105(5) 0.2700 Uani
C44 C 0.045(3) 0.8052(18) 0.091(5) 0.3067 Uani
H33 H 0.0244 0.8176 0.0342 0.4640 Uiso
H34 H 0.0163 0.8116 0.1458 0.4640 Uiso
H35 H 0.0480 0.7752 0.0826 0.4640 Uiso
C45 C 0.165(3) 0.8162(19) 0.180(5) 0.3000 Uani
H36 H 0.2049 0.8347 0.1686 0.4480 Uiso
H37 H 0.1816 0.7875 0.1797 0.4480 Uiso
H38 H 0.1444 0.8227 0.2409 0.4480 Uiso
O10 O 0.215(2) 0.8850(16) 0.087(3) 0.3333 Uani
C46 C 0.152(3) 0.850(2) 0.064(7) 0.2867 Uani
H39 H 0.1403 0.8505 -0.0008 0.3430 Uiso
loop_
_atom_site_aniso_label
_atom_site_aniso_U_11
_atom_site_aniso_U_22
_atom_site_aniso_U_33
_atom_site_aniso_U_23
_atom_site_aniso_U_13
_atom_site_aniso_U_12
O1 0.045(12) 0.115(16) 0.083(14) 0.000 -0.010(9) 0.000
C1 0.048(17) 0.075(18) 0.063(18) 0.000 -0.008(13) 0.000
C2 0.041(15) 0.065(15) 0.056(15) 0.000 -0.007(11) 0.000
C3 0.040(15) 0.09(2) 0.062(17) 0.000 0.000(12) 0.000
O2 0.064(9) 0.075(9) 0.110(12) 0.034(8) 0.027(8) 0.006(7)
Mn1 0.0300(18) 0.0427(18) 0.0353(17) 0.000 -0.0028(13) 0.000
Mn2 0.0365(13) 0.0337(12) 0.0418(14) -0.0046(10) 0.0011(10) -0.0009(9)
O3 0.070(9) 0.047(7) 0.093(10) -0.012(7) -0.011(7) 0.010(6)
O4 0.072(10) 0.051(7) 0.093(10) -0.008(7) 0.005(7) -0.008(6)
O5 0.068(15) 0.15(2) 0.070(15) 0.000 -0.012(11) 0.000
O6 0.041(11) 0.085(12) 0.072(12) 0.000 -0.009(8) 0.000
N1 0.062(9) 0.046(8) 0.058(9) 0.003(7) 0.003(7) -0.007(7)
N2 0.047(8) 0.045(7) 0.043(8) -0.001(6) 0.004(6) -0.002(6)
N3 0.054(9) 0.052(8) 0.045(8) -0.007(6) 0.004(6) 0.002(6)
N4 0.044(10) 0.082(11) 0.128(16) -0.052(11) 0.003(9) -0.011(8)
N5 0.042(9) 0.071(10) 0.113(14) -0.030(10) -0.004(9) -0.003(8)
C4 0.071(13) 0.073(12) 0.046(11) -0.016(9) 0.001(9) -0.004(9)
O7 0.069(14) 0.128(19) 0.063(13) 0.000 -0.019(10) 0.000
C5 0.052(10) 0.049(9) 0.039(9) 0.001(7) 0.000(7) -0.003(7)
O8 0.056(8) 0.058(8) 0.071(8) 0.000(6) 0.001(6) 0.013(6)
C6 0.056(11) 0.047(9) 0.044(10) -0.003(7) 0.005(7) -0.010(7)
C7 0.031(14) 0.061(15) 0.062(16) 0.000 -0.008(11) 0.000
C8 0.062(11) 0.052(9) 0.042(9) -0.001(8) -0.001(8) -0.010(8)
C9 0.051(10) 0.052(10) 0.045(9) -0.003(8) 0.003(8) 0.000(8)
C10 0.041(9) 0.047(9) 0.048(9) 0.003(7) 0.005(7) 0.001(7)
C11 0.044(15) 0.069(16) 0.062(17) 0.000 -0.008(12) 0.000
C12 0.064(12) 0.061(11) 0.049(10) -0.002(8) 0.002(8) -0.019(9)
C13 0.065(12) 0.044(9) 0.046(10) 0.003(8) 0.000(8) -0.004(8)
C14 0.053(10) 0.046(9) 0.051(10) -0.002(8) 0.002(8) -0.003(7)
C15 0.064(13) 0.048(10) 0.056(11) -0.001(8) 0.001(9) -0.003(9)
C16 0.054(11) 0.047(9) 0.049(10) -0.004(8) -0.003(8) -0.005(7)
C17 0.047(17) 0.065(16) 0.055(16) 0.000 -0.011(12) 0.000
C18 0.050(11) 0.067(11) 0.060(11) -0.014(9) 0.000(9) -0.007(9)
C19 0.042(15) 0.071(16) 0.052(15) 0.000 -0.005(11) 0.000
C20 0.053(11) 0.048(9) 0.066(11) -0.004(8) -0.006(8) 0.005(8)
C21 0.084(15) 0.057(11) 0.084(15) 0.002(11) 0.006(11) -0.019(10)
C22 0.061(12) 0.040(9) 0.053(10) 0.000(8) 0.002(8) -0.003(8)
C23 0.067(13) 0.061(11) 0.050(10) -0.011(8) 0.000(9) -0.010(9)
C24 0.050(11) 0.057(10) 0.073(12) -0.016(9) -0.007(9) -0.005(8)
C25 0.067(13) 0.065(12) 0.065(12) -0.020(10) 0.014(9) -0.009(9)
C26 0.12(2) 0.103(17) 0.039(11) -0.003(11) 0.002(11) -0.020(15)
C27 0.055(12) 0.072(12) 0.094(15) -0.028(11) 0.021(11) -0.018(10)
C28 0.055(17) 0.09(2) 0.043(14) 0.000 0.001(12) 0.000
C29 0.15(2) 0.090(16) 0.050(13) 0.008(11) 0.007(13) -0.047(15)
C30 0.106(17) 0.073(12) 0.047(11) -0.002(10) 0.012(10) -0.027(11)
C31 0.13(2) 0.083(15) 0.054(12) 0.012(11) 0.033(12) -0.021(13)
C32 0.106(17) 0.068(13) 0.056(12) 0.003(10) 0.010(11) -0.022(11)
C33 0.050(12) 0.051(10) 0.135(19) 0.000(11) 0.005(11) -0.006(9)
C34 0.114(18) 0.074(14) 0.073(15) 0.007(12) 0.025(13) -0.029(13)
C35 0.054(18) 0.29(5) 0.41(6) -0.29(5) 0.01(3) -0.01(2)
C36 0.06(2) 0.34(6) 0.48(8) -0.35(6) 0.04(3) -0.04(3)
C37 0.056(11) 0.058(10) 0.039(9) 0.000(8) 0.001(7) 0.007(8)
C38 0.057(12) 0.068(12) 0.041(10) -0.006(8) -0.001(8) 0.017(9)
C39 0.054(11) 0.061(11) 0.059(11) -0.002(9) 0.003(8) 0.010(8)
C40 0.060(12) 0.057(10) 0.062(11) 0.003(9) 0.000(9) 0.016(9)
O2D 0.064 0.075 0.11 0.034 0.027 0.006
O8D 0.056 0.058 0.071 0 0.001 0.013
C37D 0.056 0.058 0.039 0 0.001 0.007
C38D 0.057 0.068 0.041 -0.006 -0.001 0.017
C39D 0.054 0.061 0.059 -0.002 0.003 0.01
C40D 0.06 0.057 0.062 0.003 0 0.016
O3G 0.07 0.047 0.093 0.012 -0.011 -0.01
O4G 0.072 0.051 0.093 0.008 0.005 0.008
C15G 0.064 0.048 0.056 0.001 0.001 0.003
C20G 0.053 0.048 0.066 0.004 -0.006 -0.005
C22G 0.061 0.04 0.053 0 0.002 0.003
C33G 0.05 0.051 0.135 0 0.005 0.006
Mn2D 0.0365 0.0337 0.0418 -0.0046 0.0011 -0.0009
N1D 0.062 0.046 0.058 0.003 0.003 -0.007
N2D 0.047 0.045 0.043 -0.001 0.004 -0.002
N3D 0.054 0.052 0.045 -0.007 0.004 0.002
N4D 0.044 0.082 0.128 -0.052 0.003 -0.011
N5D 0.042 0.071 0.113 -0.03 -0.004 -0.003
C4D 0.071 0.073 0.046 -0.016 0.001 -0.004
C5D 0.052 0.049 0.039 0.001 0 -0.003
C6D 0.056 0.047 0.044 -0.003 0.005 -0.01
C8D 0.062 0.052 0.042 -0.001 -0.001 -0.01
C9D 0.051 0.052 0.045 -0.003 0.003 0
C10D 0.041 0.047 0.048 0.003 0.005 0.001
C12D 0.064 0.061 0.049 -0.002 0.002 -0.019
C13D 0.065 0.044 0.046 0.003 0 -0.004
C14D 0.053 0.046 0.051 -0.002 0.002 -0.003
C16D 0.054 0.047 0.049 -0.004 -0.003 -0.005
C18D 0.05 0.067 0.06 -0.014 0 -0.007
C21D 0.084 0.057 0.084 0.002 0.006 -0.019
C23D 0.067 0.061 0.05 -0.011 0 -0.01
C24D 0.05 0.057 0.073 -0.016 -0.007 -0.005
C25D 0.067 0.065 0.065 -0.02 0.014 -0.009
C26D 0.12 0.103 0.039 -0.003 0.002 -0.02
C27D 0.055 0.072 0.094 -0.028 0.021 -0.018
C29D 0.15 0.09 0.05 0.008 0.007 -0.047
C30D 0.106 0.073 0.047 -0.002 0.012 -0.027
C31D 0.13 0.083 0.054 0.012 0.033 -0.021
C32D 0.106 0.068 0.056 0.003 0.01 -0.022
C34D 0.114 0.074 0.073 0.007 0.025 -0.029
C35D 0.054 0.29 0.41 -0.29 0.01 -0.01
C36D 0.06 0.34 0.48 -0.35 0.04 -0.04
O1B 0.045 0.115 0.083 0 0.01 0
Mn1B 0.03 0.0427 0.0353 0 0.0028 0
Mn1C 0.03 0.0427 0.0353 0 -0.0028 0
Mn2G 0.0365 0.0337 0.0418 0.0046 0.0011 0.0009
O3D 0.07 0.047 0.093 -0.012 -0.011 0.01
O4D 0.072 0.051 0.093 -0.008 0.005 -0.008
N5G 0.042 0.071 0.113 0.03 -0.004 0.003
N6 0.088(14) 0.086(13) 0.102(16) 0.016(12) 0.009(11) -0.015(10)
O9 0.161(18) 0.124(15) 0.117(15) 0.003(12) 0.016(13) -0.076(13)
C41 0.09(2) 0.11(2) 0.20(3) 0.05(2) 0.00(2) -0.019(16)
C42 0.098(19) 0.091(17) 0.10(2) 0.002(15) 0.004(15) -0.016(14)
C43 0.22(4) 0.20(4) 0.11(3) 0.00(3) -0.05(3) -0.05(3)
N7 0.16(4) 0.28(5) 0.37(5) -0.16(4) -0.02(3) 0.10(4)
C44 0.20(4) 0.30(5) 0.42(5) -0.17(4) -0.02(4) 0.11(4)
C45 0.22(4) 0.29(5) 0.39(6) -0.13(4) -0.03(4) 0.09(4)
O10 0.33(6) 0.41(7) 0.26(5) -0.05(5) 0.00(4) 0.15(5)
C46 0.18(5) 0.30(5) 0.38(5) -0.15(4) -0.03(4) 0.09(4)
loop_
_geom_bond_atom_site_label_1
_geom_bond_atom_site_label_2
_geom_bond_site_symmetry_1
_geom_bond_site_symmetry_2
O1 C1 1_555 1_555
C1 C2 1_555 1_555
C2 C3 1_555 1_555
C3 H1 1_555 1_555
O2 C38 1_555 1_555
Mn1 O6 1_555 1_555
Mn2 O3 1_555 1_555
O3 C15 1_555 1_555
O4 Mn2 1_555 1_555
O5 C1 1_555 1_555
O6 C17 1_555 1_555
N1 Mn2 1_555 1_555
N2 Mn2 1_555 1_555
N3 Mn2 1_555 1_555
N4 C18 1_555 1_555
N5 Mn1 1_555 1_555
C4 N3 1_555 1_555
H2 C4 1_555 1_555
O7 C17 1_555 1_555
C5 N2 1_555 1_555
O8 Mn2 1_555 1_555
C6 H3 1_555 1_555
C7 C11 1_555 1_555
C8 C5 1_555 1_555
H4 C8 1_555 1_555
C9 N3 1_555 1_555
C10 N2 1_555 1_555
C11 H5 1_555 1_555
C12 H6 1_555 1_555
C13 N1 1_555 1_555
C14 C6 1_555 1_555
C15 O4 1_555 1_555
C16 C12 1_555 1_555
C17 C7 1_555 1_555
C18 N5 1_555 1_555
H7 C18 1_555 1_555
C19 C2 1_555 1_555
H8 C19 1_555 1_555
C20 H9 1_555 1_555
C21 N1 1_555 1_555
H10 C21 1_555 1_555
C22 C15 1_555 1_555
C23 C12 1_555 1_555
H11 C23 1_555 1_555
C24 N4 1_555 1_555
C25 C16 1_555 1_555
H12 C25 1_555 1_555
C26 C4 1_555 1_555
H13 C26 1_555 1_555
C27 C24 1_555 1_555
H14 C27 1_555 1_555
C28 C3 1_555 1_555
H15 C28 1_555 1_555
C29 C26 1_555 1_555
H16 C29 1_555 1_555
C30 C9 1_555 1_555
H17 C30 1_555 1_555
C31 H18 1_555 1_555
C32 C13 1_555 1_555
H19 C32 1_555 1_555
C33 C22 1_555 1_555
H20 C33 1_555 1_555
C34 C21 1_555 1_555
H21 C34 1_555 1_555
C35 N5 1_555 1_555
H22 C35 1_555 1_555
C36 N4 1_555 1_555
H23 C36 1_555 1_555
C37 C38 1_555 1_555
C38 O8 1_555 1_555
C39 C37 1_555 1_555
H24 C39 1_555 1_555
C40 C37 1_555 1_555
H25 C40 1_555 1_555
N6 C41 1_555 1_555
O9 C42 1_555 1_555
C41 H26 1_555 1_555
H27 C41 1_555 1_555
H28 C41 1_555 1_555
C42 N6 1_555 1_555
H29 C42 1_555 1_555
C43 N6 1_555 1_555
H30 C43 1_555 1_555
H31 C43 1_555 1_555
H32 C43 1_555 1_555
N7 C44 1_555 1_555
C44 H33 1_555 1_555
H34 C44 1_555 1_555
H35 C44 1_555 1_555
C45 N7 1_555 1_555
H36 C45 1_555 1_555
H37 C45 1_555 1_555
H38 C45 1_555 1_555
O10 C46 1_555 1_555
C46 N7 1_555 1_555
H39 C46 1_555 1_555
O2D C38D 1_555 1_555
O8D C38D 1_555 1_555
C37D C38D 1_555 1_555
C39D C40 1_555 1_555
H24D C39D 1_555 1_555
C40D C39 1_555 1_555
H25D C40D 1_555 1_555
O3G C15G 1_555 1_555
O4G C15G 1_555 1_555
C15G C22G 1_555 1_555
C20G C20 1_555 1_555
H9G C20G 1_555 1_555
C22G C20G 1_555 1_555
C33G C33 1_555 1_555
H20G C33G 1_555 1_555
Mn2D O8D 1_555 1_555
N1D Mn2D 1_555 1_555
N2D Mn2D 1_555 1_555
N3D Mn2D 1_555 1_555
N4D C18D 1_555 1_555
N5D C18D 1_555 1_555
C4D N3D 1_555 1_555
H2D C4D 1_555 1_555
C5D N2D 1_555 1_555
C6D H3D 1_555 1_555
C8D C5D 1_555 1_555
H4D C8D 1_555 1_555
C9D N3D 1_555 1_555
C10D N2D 1_555 1_555
C12D H6D 1_555 1_555
C13D N1D 1_555 1_555
C14D C6D 1_555 1_555
C16D C12D 1_555 1_555
C18D H7D 1_555 1_555
C21D N1D 1_555 1_555
H10D C21D 1_555 1_555
C23D C12D 1_555 1_555
H11D C23D 1_555 1_555
C24D N4D 1_555 1_555
C25D C16D 1_555 1_555
H12D C25D 1_555 1_555
C26D C4D 1_555 1_555
H13D C26D 1_555 1_555
C27D C24D 1_555 1_555
H14D C27D 1_555 1_555
C29D C26D 1_555 1_555
H16D C29D 1_555 1_555
C30D C9D 1_555 1_555
H17D C30D 1_555 1_555
C31D H18D 1_555 1_555
C32D C13D 1_555 1_555
H19D C32D 1_555 1_555
C34D C21D 1_555 1_555
H21D C34D 1_555 1_555
C35D N5D 1_555 1_555
H22D C35D 1_555 1_555
C36D N4D 1_555 1_555
H23D C36D 1_555 1_555
O1B Mn1 1_555 1_555
Mn1B O1 1_555 1_555
Mn1C N5D 1_555 1_555
Mn2G O3G 1_555 1_555
O3D Mn2D 1_555 1_555
O4D Mn2D 1_555 1_555
N5G Mn1 1_555 1_555
C5 C13 1_555 1_555
C6 C10 1_555 1_555
C7 C28 1_555 1_555
C8 C14 1_555 1_555
C9 C10 1_555 1_555
C11 C19 1_555 1_555
C14 C16 1_555 1_555
C20 C22 1_555 1_555
C23 C24 1_555 1_555
C25 C27 1_555 1_555
C29 C30 1_555 1_555
C31 C32 1_555 1_555
C31 C34 1_555 1_555
C35 C36 1_555 1_555
C37D C39D 1_555 1_555
C37D C40D 1_555 1_555
O4G Mn2G 1_555 1_555
C22G C33G 1_555 1_555
C5D C13D 1_555 1_555
C6D C10D 1_555 1_555
C8D C14D 1_555 1_555
C9D C10D 1_555 1_555
C14D C16D 1_555 1_555
C23D C24D 1_555 1_555
C25D C27D 1_555 1_555
C29D C30D 1_555 1_555
C31D C32D 1_555 1_555
C31D C34D 1_555 1_555
C35D C36D 1_555 1_555

#END
