
#######################################################################
#
#                 Cambridge Crystallographic Data Centre
#                                CCDC 
#
#######################################################################
#
# If this CIF has been generated from an entry in the Cambridge 
# Structural Database, then it will include bibliographic, chemical, 
# crystal, experimental, refinement or atomic coordinate data resulting 
# from the CCDC's data processing and validation procedures.
#
#######################################################################

data_PEVQIQ
_chemical_formula_moiety         '(C6 H20 F2 Fe4 N2 O19 P4)n'
_symmetry_cell_setting           monoclinic
_symmetry_space_group_name_H-M   'P 21/n'
_symmetry_Int_Tables_number      14
_space_group_name_Hall           '-P 2yn'
loop_
_symmetry_equiv_pos_site_id
_symmetry_equiv_pos_as_xyz
1 x,y,z
2 1/2-x,1/2+y,1/2-z
3 -x,-y,-z
4 1/2+x,1/2-y,1/2+z
_cell_length_a                   9.987(1)
_cell_length_b                   12.275(1)
_cell_length_c                   17.462(1)
_cell_angle_alpha                90
_cell_angle_beta                 102.8(1)
_cell_angle_gamma                90
_cell_volume                     2087.48
loop_
_atom_site_label
_atom_site_type_symbol
_atom_site_fract_x
_atom_site_fract_y
_atom_site_fract_z
O1 O -0.0903(2) 0.2587(2) -0.2833(1)
O2 O -0.1832(2) 0.4141(2) -0.3702(1)
O3 O 0.3597(2) 0.1187(1) -0.3550(1)
O4 O -0.0517(2) -0.0118(2) -0.0947(1)
O5 O 0.1792(2) -0.0508(2) -0.1237(1)
O6 O 0.1202(2) 0.1453(2) -0.3350(1)
O7 O -0.3144(2) 0.0243(2) -0.5191(1)
O8 O 0.1541(2) 0.0986(2) -0.0313(1)
O9 O -0.4061(2) 0.0492(2) -0.3972(1)
O10 O 0.0494(2) 0.1225(1) -0.1731(1)
O11 O 0.3070(2) 0.0798(1) -0.2228(1)
O12 O -0.0573(2) 0.4509(2) -0.2336(1)
O13 O -0.1531(2) 0.0695(2) -0.3920(1)
O14 O 0.0684(2) 0.3875(2) -0.3360(1)
O15 O 0.3148(2) 0.2714(1) -0.2726(1)
O16 O -0.3200(2) 0.2102(2) -0.4605(1)
O17 O -0.4847(2) 0.1832(2) -0.6037(1)
O18 O -0.1986(2) 0.0530(2) -0.2440(1)
O19 O -0.4602(3) 0.2856(2) -0.3572(2)
Fe1 Fe 0.2458(1) -0.0758(1) -0.2205(1)
Fe2 Fe -0.3504(1) 0.3585(1) -0.4274(1)
Fe3 Fe -0.4350(1) 0.0239(1) -0.6277(1)
Fe4 Fe -0.0352(1) 0.1083(1) -0.2893(1)
P1 P -0.2989(1) 0.0876(1) -0.4411(1)
P2 P 0.0833(1) 0.0394(1) -0.1063(1)
P3 P 0.2729(1) 0.1538(1) -0.2958(1)
P4 P -0.0619(1) 0.3755(1) -0.3044(1)
F1 F 0.0498(2) -0.0420(1) -0.2775(1)
F2 F -0.2874(2) 0.0902(1) -0.6735(1)
H15 H -0.436(4) 0.207(3) -0.555(2)
H16 H -0.471(5) 0.234(3) -0.640(2)
H17 H -0.280(3) 0.019(3) -0.268(2)
H18 H -0.171(4) 0.028(4) -0.195(2)
H19 H -0.375(3) 0.280(4) -0.318(2)
H20 H -0.503(4) 0.218(3) -0.361(3)
Fe3B Fe -0.5650(1) -0.0239(1) -0.3723(1)
F2B F 0.2874(2) -0.0902(1) -0.3265(1)
O9B O -0.5939(2) -0.0492(2) -0.6028(1)
O4A O -0.4483(2) 0.4882(2) -0.4053(1)
O8C O -0.3459(2) 0.4014(2) -0.5313(1)
O3B O -0.3597(2) -0.1187(1) -0.6450(1)
O15A O 0.1852(2) -0.2286(1) -0.2274(1)
O12C O -0.5573(2) 0.0491(2) -0.7336(1)
O14A O 0.4316(2) -0.1125(2) -0.1640(1)
Fe1B Fe -0.2458(1) 0.0758(1) -0.7795(1)
Fe3B_2 Fe 0.4350(1) -0.0239(1) -0.3723(1)
Fe2A Fe -0.1496(1) -0.1415(1) -0.0726(1)
Fe2C Fe 0.1496(1) 0.1415(1) 0.0726(1)
Fe1A Fe 0.2542(1) 0.4242(1) -0.2795(1)
Fe3C Fe 0.0650(1) 0.4761(1) -0.1277(1)
N1 N -1.0110(3) 0.6688(2) -0.4001(2)
N2 N -1.1538(3) 0.8214(2) -0.4701(2)
C1 C -1.1842(4) 0.8070(3) -0.3900(2)
C2 C -1.0051(4) 0.8491(3) -0.4618(2)
C3 C -1.1880(4) 0.7180(3) -0.5153(2)
C4 C -0.9192(3) 0.7536(3) -0.4218(2)
C5 C -1.1025(4) 0.6252(3) -0.4733(2)
C6 C -1.0961(4) 0.7158(4) -0.3482(2)
H1 H -0.948(4) 0.613(3) -0.372(3)
H2 H -1.205(5) 0.886(4) -0.496(3)
H3 H -1.293(3) 0.792(4) -0.394(3)
H4 H -1.156(5) 0.883(5) -0.357(3)
H5 H -0.995(5) 0.917(3) -0.423(2)
H6 H -0.985(5) 0.867(4) -0.518(2)
H7 H -1.294(3) 0.707(4) -0.520(3)
H8 H -1.148(4) 0.739(4) -0.563(2)
H9 H -0.871(5) 0.715(4) -0.465(2)
H10 H -0.851(4) 0.782(4) -0.372(2)
H11 H -1.038(4) 0.584(4) -0.506(3)
H12 H -1.164(4) 0.572(3) -0.449(3)
H13 H -1.021(4) 0.749(4) -0.303(2)
H14 H -1.162(4) 0.658(3) -0.332(3)
loop_
_geom_bond_atom_site_label_1
_geom_bond_atom_site_label_2
_geom_bond_site_symmetry_1
_geom_bond_site_symmetry_2
O1 Fe4 1_555 1_555
O2 Fe2 1_555 1_555
O3 P3 1_555 1_555
O4 P2 1_555 1_555
O5 Fe1 1_555 1_555
O6 Fe4 1_555 1_555
O7 Fe3 1_555 1_555
O8 P2 1_555 1_555
O9 P1 1_555 1_555
O10 Fe4 1_555 1_555
O11 Fe1 1_555 1_555
O12 P4 1_555 1_555
O13 Fe4 1_555 1_555
O14 P4 1_555 1_555
O15 P3 1_555 1_555
O16 Fe2 1_555 1_555
O17 Fe3 1_555 1_555
O18 Fe4 1_555 1_555
O19 Fe2 1_555 1_555
N1 C4 1_555 1_555
N2 C1 1_555 1_555
C1 C6 1_555 1_555
C2 N2 1_555 1_555
C3 N2 1_555 1_555
C4 C2 1_555 1_555
C5 N1 1_555 1_555
C6 N1 1_555 1_555
Fe1 F1 1_555 1_555
Fe2 O4A 1_555 1_555
Fe3 F2 1_555 1_555
Fe4 F1 1_555 1_555
P1 O7 1_555 1_555
P2 O5 1_555 1_555
P3 O6 1_555 1_555
P4 O1 1_555 1_555
F2 Fe1B 1_555 1_555
H1 N1 1_555 1_555
H2 N2 1_555 1_555
H3 C1 1_555 1_555
H4 C1 1_555 1_555
H5 C2 1_555 1_555
H6 C2 1_555 1_555
H7 C3 1_555 1_555
H8 C3 1_555 1_555
H9 C4 1_555 1_555
H10 C4 1_555 1_555
H11 C5 1_555 1_555
H12 C5 1_555 1_555
H13 C6 1_555 1_555
H14 C6 1_555 1_555
H15 O17 1_555 1_555
H16 O17 1_555 1_555
H17 O18 1_555 1_555
H18 O18 1_555 1_555
H19 O19 1_555 1_555
H20 O19 1_555 1_555
Fe3B O9 1_555 1_555
F2B Fe1 1_555 1_555
O9B Fe3 1_555 1_555
O8C Fe2 1_555 1_555
O3B Fe3 1_555 1_555
O15A Fe1 1_555 1_555
O12C Fe3 1_555 1_555
O14A Fe1 1_555 1_555
Fe3B_2 O3 1_555 1_555
Fe2A O4 1_555 1_555
Fe2C O8 1_555 1_555
Fe1A O14 1_555 1_555
Fe3C O12 1_555 1_555
O2 P4 1_555 1_555
O10 P2 1_555 1_555
O11 P3 1_555 1_555
O13 P1 1_555 1_555
O15 Fe1A 1_555 1_555
O16 P1 1_555 1_555
C3 C5 1_555 1_555
F2B Fe3B_2 1_555 1_555

#END
