
#######################################################################
#
#                 Cambridge Crystallographic Data Centre
#                                CCDC 
#
#######################################################################
#
# If this CIF has been generated from an entry in the Cambridge 
# Structural Database, then it will include bibliographic, chemical, 
# crystal, experimental, refinement or atomic coordinate data resulting 
# from the CCDC's data processing and validation procedures.
#
#######################################################################

data_JUXSEC
_chemical_formula_moiety         '(C16 H6 O8 Tb1 1-)n'
_symmetry_cell_setting           trigonal
_symmetry_space_group_name_H-M   'P 31 2 1'
_symmetry_Int_Tables_number      152
_space_group_name_Hall           'P 31 2"'
loop_
_symmetry_equiv_pos_site_id
_symmetry_equiv_pos_as_xyz
1 x,y,z
2 -y,x-y,1/3+z
3 -x+y,-x,2/3+z
4 y,x,-z
5 -x,-x+y,1/3-z
6 x-y,-y,2/3-z
_cell_length_a                   13.7685(19)
_cell_length_b                   13.7685(19)
_cell_length_c                   22.892(5)
_cell_angle_alpha                90
_cell_angle_beta                 90
_cell_angle_gamma                120
_cell_volume                     3758.27
loop_
_atom_site_label
_atom_site_type_symbol
_atom_site_fract_x
_atom_site_fract_y
_atom_site_fract_z
Tb1 Tb 0.66567(4) 0.97093(3) 0.74371(2)
O1 O 0.5802(6) 0.8144(4) 0.6749(2)
O2 O 0.5092(6) 0.9237(6) 0.6768(3)
O3 O 0.1211(6) 0.7229(6) 0.3262(3)
O4 O 0.0299(5) 0.8149(6) 0.3345(3)
O5 O 0.2687(5) 1.1218(4) 0.5528(2)
O6 O 0.3972(4) 0.4785(4) 0.5482(2)
O7 O 0.3232(5) 0.4893(5) 0.4632(3)
O8 O 0.2768(6) 1.1780(5) 0.4615(2)
C1 C 0.1710(8) 0.8466(7) 0.4064(4)
C2 C 0.1009(8) 0.7933(8) 0.3520(4)
C3 C 0.5161(8) 0.8457(7) 0.6536(4)
C4 C 0.2182(7) 0.7947(9) 0.4369(4)
H1 H 0.2082 0.7265 0.4234
C5 C 0.2811(8) 0.8414(7) 0.4877(4)
C6 C 0.1831(8) 0.9497(7) 0.4264(4)
H2 H 0.1516 0.9855 0.4059
C7 C 0.2432(7) 0.9956(7) 0.4775(4)
C8 C 0.4482(8) 0.7853(8) 0.6009(4)
C9 C 0.3964(7) 0.8352(8) 0.5703(4)
H3 H 0.4038 0.9022 0.5839
C10 C 0.4351(8) 0.6860(7) 0.5822(4)
H4 H 0.4679 0.6518 0.6030
C11 C 0.3629(8) 0.5256(7) 0.5129(4)
C12 C 0.3740(7) 0.6355(7) 0.5330(4)
C13 C 0.3243(7) 0.6849(7) 0.5020(4)
H5 H 0.2834 0.6502 0.4685
C14 C 0.3345(8) 0.7869(8) 0.5203(4)
C15 C 0.2869(9) 0.9397(8) 0.5080(4)
H6 H 0.3219 0.9689 0.5436
C16 C 0.2637(7) 1.1068(7) 0.4992(4)
Tb1B Tb 0.30526(5) 0.33433(4) 0.41038(2)
Tb1B_2 Tb 0.30526(5) 1.33433(4) 0.41038(2)
Tb1C Tb -0.02907(3) 0.66567(4) 0.25629(2)
Tb1D Tb 0.33433(4) 0.30526(5) 0.58962(2)
Tb1D_2 Tb 0.33433(4) 1.30526(5) 0.58962(2)
O3C O 0.7229(6) 1.1211(6) 0.6738(3)
O4C O 0.8149(6) 1.0299(5) 0.6655(3)
O5D O 0.7313(5) 0.8531(6) 0.7805(2)
O6D O 0.6028(4) 1.0813(6) 0.7851(2)
O7A O 0.5107(5) 0.8339(7) 0.7965(3)
O8A O 0.8220(5) 1.0988(8) 0.7948(2)
loop_
_geom_bond_atom_site_label_1
_geom_bond_atom_site_label_2
_geom_bond_site_symmetry_1
_geom_bond_site_symmetry_2
Tb1 O1 1_555 1_555
O1 C3 1_555 1_555
O2 Tb1 1_555 1_555
O3 C2 1_555 1_555
O4 C2 1_555 1_555
O5 C16 1_555 1_555
O6 C11 1_555 1_555
O7 C11 1_555 1_555
O8 C16 1_555 1_555
C1 C2 1_555 1_555
C3 O2 1_555 1_555
C4 C1 1_555 1_555
H1 C4 1_555 1_555
C5 C4 1_555 1_555
C6 C1 1_555 1_555
H2 C6 1_555 1_555
C7 C6 1_555 1_555
C8 C3 1_555 1_555
C9 C8 1_555 1_555
H3 C9 1_555 1_555
C10 C8 1_555 1_555
H4 C10 1_555 1_555
C11 C12 1_555 1_555
C12 C10 1_555 1_555
C13 C12 1_555 1_555
H5 C13 1_555 1_555
C14 C5 1_555 1_555
C15 C5 1_555 1_555
H6 C15 1_555 1_555
C16 C7 1_555 1_555
Tb1B O7 1_555 1_555
Tb1B_2 O8 1_555 1_555
Tb1C O3 1_555 1_555
Tb1D O6 1_555 1_555
Tb1D_2 O5 1_555 1_555
O3C Tb1 1_555 1_555
O4C Tb1 1_555 1_555
O5D Tb1 1_555 1_555
O6D Tb1 1_555 1_555
O7A Tb1 1_555 1_555
O8A Tb1 1_555 1_555
O4 Tb1C 1_555 1_555
C7 C15 1_555 1_555
C9 C14 1_555 1_555
C13 C14 1_555 1_555

#END
