
#######################################################################
#
#                 Cambridge Crystallographic Data Centre
#                                CCDC 
#
#######################################################################
#
# If this CIF has been generated from an entry in the Cambridge 
# Structural Database, then it will include bibliographic, chemical, 
# crystal, experimental, refinement or atomic coordinate data resulting 
# from the CCDC's data processing and validation procedures.
#
#######################################################################

data_JUXSIG
_chemical_formula_moiety         '(C16 H6 O8 Tb1 1-)n'
_symmetry_cell_setting           trigonal
_symmetry_space_group_name_H-M   'P 32 2 1'
_symmetry_Int_Tables_number      154
_space_group_name_Hall           'P 32 2"'
loop_
_symmetry_equiv_pos_site_id
_symmetry_equiv_pos_as_xyz
1 x,y,z
2 -y,x-y,2/3+z
3 -x+y,-x,1/3+z
4 y,x,-z
5 -x,-x+y,2/3-z
6 x-y,-y,1/3-z
_cell_length_a                   13.797(2)
_cell_length_b                   13.797(2)
_cell_length_c                   22.938(5)
_cell_angle_alpha                90
_cell_angle_beta                 90
_cell_angle_gamma                120
_cell_volume                     3781.43
loop_
_atom_site_label
_atom_site_type_symbol
_atom_site_fract_x
_atom_site_fract_y
_atom_site_fract_z
Tb1 Tb 0.69477(3) 0.66564(3) 0.58961(2)
O1 O 0.6017(5) 0.7220(6) 0.6602(3)
O2 O 0.7848(5) 0.8146(5) 0.6678(2)
O3 O 0.2340(5) 0.8149(4) 1.0083(2)
O4 O 0.4139(6) 0.9228(6) 1.0101(3)
O5 O 0.9010(5) 1.1777(4) 0.7947(2)
O6 O 0.0814(6) 0.4785(4) 0.8816(2)
O7 O 0.1663(6) 0.4896(4) 0.7967(2)
O8 O 0.8538(4) 1.1226(4) 0.8866(2)
C1 C 0.6918(7) 0.7934(7) 0.6858(4)
C2 C 0.3291(7) 0.8460(7) 0.9874(3)
C3 C 0.6758(7) 0.8468(7) 0.7398(3)
C4 C 0.5757(8) 0.7940(8) 0.7702(3)
H1 H 0.5174 0.7263 0.7566
C5 C 0.5612(6) 0.8414(6) 0.8212(3)
C6 C 0.6530(7) 0.9397(7) 0.8410(3)
H2 H 0.6466 0.9694 0.8762
C7 C 0.7661(7) 0.9511(7) 0.7605(3)
H3 H 0.8328 0.9879 0.7398
C8 C 0.2501(7) 0.6862(6) 0.9160(3)
H4 H 0.1830 0.6528 0.9366
C9 C 0.3387(8) 0.7854(7) 0.9349(4)
C10 C 0.4382(7) 0.8347(7) 0.9041(3)
H5 H 0.4976 0.9020 0.9175
C11 C 0.4521(7) 0.7865(7) 0.8537(4)
C12 C 0.7531(7) 0.9958(6) 0.8111(3)
C13 C 0.8426(6) 1.1067(6) 0.8320(4)
C14 C 0.2613(6) 0.6359(6) 0.8661(3)
C15 C 0.3608(6) 0.6850(6) 0.8349(3)
H6 H 0.3671 0.6505 0.8014
C16 C 0.1617(9) 0.5248(6) 0.8459(3)
Tb1B Tb -0.02913(4) 0.30523(3) 0.92294(2)
Tb1B_2 Tb 0.97087(4) 1.30523(3) 0.92294(2)
Tb1D Tb 0.30523(3) 0.97087(4) 1.07706(2)
Tb1E Tb 0.02913(4) 0.33436(3) 0.74372(2)
Tb1E_2 Tb 1.02913(4) 1.33436(3) 0.74372(2)
O3D O 0.7660(5) 0.5809(6) 0.6584(2)
O4D O 0.5861(6) 0.5089(8) 0.6566(3)
O5E O 0.7233(6) 0.8223(4) 0.5386(2)
O6A O 0.5215(4) 0.6029(7) 0.5483(2)
O7E O 0.6767(7) 0.5104(4) 0.5366(2)
O8A O 0.8774(4) 0.7312(6) 0.5533(2)
loop_
_geom_bond_atom_site_label_1
_geom_bond_atom_site_label_2
_geom_bond_site_symmetry_1
_geom_bond_site_symmetry_2
Tb1 O1 1_555 1_555
O1 C1 1_555 1_555
O2 Tb1 1_555 1_555
O3 C2 1_555 1_555
O4 C2 1_555 1_555
O5 C13 1_555 1_555
O6 C16 1_555 1_555
O7 C16 1_555 1_555
O8 C13 1_555 1_555
C1 O2 1_555 1_555
C2 C9 1_555 1_555
C3 C1 1_555 1_555
C4 C3 1_555 1_555
H1 C4 1_555 1_555
C5 C4 1_555 1_555
C6 C5 1_555 1_555
H2 C6 1_555 1_555
C7 C3 1_555 1_555
H3 C7 1_555 1_555
C8 H4 1_555 1_555
C9 C8 1_555 1_555
C10 C9 1_555 1_555
H5 C10 1_555 1_555
C11 C5 1_555 1_555
C12 C6 1_555 1_555
C13 C12 1_555 1_555
C14 C8 1_555 1_555
C15 C11 1_555 1_555
H6 C15 1_555 1_555
C16 C14 1_555 1_555
Tb1B O6 1_555 1_555
Tb1B_2 O8 1_555 1_555
Tb1D O3 1_555 1_555
Tb1E O7 1_555 1_555
Tb1E_2 O5 1_555 1_555
O3D Tb1 1_555 1_555
O4D Tb1 1_555 1_555
O5E Tb1 1_555 1_555
O6A Tb1 1_555 1_555
O7E Tb1 1_555 1_555
O8A Tb1 1_555 1_555
O4 Tb1D 1_555 1_555
C7 C12 1_555 1_555
C10 C11 1_555 1_555
C14 C15 1_555 1_555

#END
