
#######################################################################
#
#                 Cambridge Crystallographic Data Centre
#                                CCDC 
#
#######################################################################
#
# If this CIF has been generated from an entry in the Cambridge 
# Structural Database, then it will include bibliographic, chemical, 
# crystal, experimental, refinement or atomic coordinate data resulting 
# from the CCDC's data processing and validation procedures.
#
#######################################################################

data_KEVPEH
_chemical_formula_moiety         '(C12 H24 Ca1 Cl1 O12 1+)n'
_symmetry_cell_setting           orthorhombic
_symmetry_space_group_name_H-M   'C 2 2 21'
_symmetry_Int_Tables_number      20
_space_group_name_Hall           'C 2c 2'
loop_
_symmetry_equiv_pos_site_id
_symmetry_equiv_pos_as_xyz
1 x,y,z
2 x,-y,-z
3 -x,-y,1/2+z
4 -x,y,1/2-z
5 1/2+x,1/2+y,z
6 1/2+x,1/2-y,-z
7 1/2-x,1/2-y,1/2+z
8 1/2-x,1/2+y,1/2-z
_cell_length_a                   10.8984(8)
_cell_length_b                   11.4260(6)
_cell_length_c                   15.059(1)
_cell_angle_alpha                90
_cell_angle_beta                 90
_cell_angle_gamma                90
_cell_volume                     1875.22
loop_
_atom_site_label
_atom_site_type_symbol
_atom_site_fract_x
_atom_site_fract_y
_atom_site_fract_z
_atom_site_U_iso_or_equiv
_atom_site_thermal_displace_type
Ca1 Ca 0.20585(7) 0.0000 0.5000 0.0133 Uani
O1 O 0.5000 0.1382(2) 0.2500 0.0153 Uani
O2 O 0.3328(2) 0.2513(2) 0.2077(1) 0.0166 Uani
O3 O 0.3754(2) 0.0837(2) 0.4132(1) 0.0195 Uani
O4 O 0.1703(2) -0.0189(2) 0.3394(1) 0.0208 Uani
O5 O 0.1694(2) -0.0177(2) 0.1398(1) 0.0222 Uani
O6 O -0.0066(3) 0.0000 0.5000 0.0293 Uani
O7 O 0.3170(2) 0.2950(2) 0.0241(1) 0.0201 Uani
C1 C 0.3166(2) 0.1303(2) 0.3357(2) 0.0134 Uani
C2 C 0.2889(3) 0.1618(2) 0.1475(2) 0.0145 Uani
C3 C 0.2011(2) 0.0788(2) 0.1959(2) 0.0158 Uani
C4 C 0.2596(2) 0.0335(2) 0.2814(2) 0.0148 Uani
C5 C 0.2291(3) 0.2253(3) 0.0708(2) 0.0207 Uani
C6 C 0.4005(2) 0.2063(2) 0.2803(2) 0.0137 Uani
H1 H 0.2519 0.1790 0.3561 0.0159 Uiso
H2 H 0.3566 0.1180 0.1256 0.0172 Uiso
H3 H 0.1278 0.1208 0.2106 0.0193 Uiso
H4 H 0.3210 -0.0228 0.2667 0.0185 Uiso
H5 H 0.4304 0.2695 0.3155 0.0163 Uiso
H6 H 0.1651 0.2747 0.0931 0.0256 Uiso
H7 H 0.1936 0.1697 0.0312 0.0256 Uiso
Ca1F Ca 0.29415(7) 0.5000 0.0000 0.0133 Uani
Ca1B Ca 0.79415(7) 0.0000 0.0000 0.0133 Uani
Ca1D Ca 0.70585(7) 0.5000 0.5000 0.0133 Uani
O2C O 0.6672(2) 0.2513(2) 0.2923(1) 0.0166 Uani
O3C O 0.6246(2) 0.0837(2) 0.0868(1) 0.0195 Uani
O3A O 0.3754(2) -0.0837(2) 0.5868(1) 0.0195 Uani
O4C O 0.8297(2) -0.0189(2) 0.1606(1) 0.0208 Uani
O4A O 0.1703(2) 0.0189(2) 0.6606(1) 0.0208 Uani
O5C O 0.8306(2) -0.0177(2) 0.3602(1) 0.0222 Uani
O7C O 0.6830(2) 0.2950(2) 0.4759(1) 0.0201 Uani
O7F O 0.1830(2) 0.2050(2) 0.5241(1) 0.0201 Uani
O7G O 0.1830(2) -0.2050(2) 0.4759(1) 0.0201 Uani
C1C C 0.6834(2) 0.1303(2) 0.1643(2) 0.0134 Uani
C2C C 0.7111(3) 0.1618(2) 0.3525(2) 0.0145 Uani
C3C C 0.7989(2) 0.0788(2) 0.3041(2) 0.0158 Uani
C4C C 0.7404(2) 0.0335(2) 0.2186(2) 0.0148 Uani
C5C C 0.7709(3) 0.2253(3) 0.4292(2) 0.0207 Uani
C6C C 0.5995(2) 0.2063(2) 0.2197(2) 0.0137 Uani
H1C H 0.7481 0.1790 0.1439 0.0159 Uiso
H2C H 0.6434 0.1180 0.3744 0.0172 Uiso
H3C H 0.8722 0.1208 0.2894 0.0193 Uiso
H4C H 0.6790 -0.0228 0.2333 0.0185 Uiso
H5C H 0.5696 0.2695 0.1845 0.0163 Uiso
H6C H 0.8349 0.2747 0.4069 0.0256 Uiso
H7C H 0.8064 0.1697 0.4688 0.0256 Uiso
Cl1 Cl 0.07135(8) 0.37525(8) 0.39213(7) 0.0356 Uani
loop_
_atom_site_aniso_label
_atom_site_aniso_U_11
_atom_site_aniso_U_22
_atom_site_aniso_U_33
_atom_site_aniso_U_23
_atom_site_aniso_U_13
_atom_site_aniso_U_12
Ca1 0.0177(3) 0.0120(3) 0.0103(3) 0.0000(2) 0.0000 0.0000
O1 0.014 0.014 0.018 0 0.001 0
O2 0.0207 0.0116 0.0174 0.002 -0.0027 0.0011
O3 0.0189 0.0267 0.0129 0.0042 -0.0012 0.0011
O4 0.029 0.018 0.0153 0.0024 0.0044 -0.0086
O5 0.027 0.021 0.0186 -0.001 -0.0053 -0.0068
O6 0.019(1) 0.048(2) 0.021(1) -0.005(1) 0.0000 0.0000
O7 0.031 0.0146 0.0148 0.005 0.0041 -0.0002
C1 0.014 0.015 0.0111 0.0013 0.0004 0.0003
C2 0.016 0.013 0.0144 0.0018 -0.0011 -0.0002
C3 0.017 0.015 0.0154 0.0022 -0.0012 -0.0015
C4 0.018 0.0132 0.0132 0.0021 0.0014 -0.0009
C5 0.02 0.022 0.02 0.007 -0.0036 -0.0015
C6 0.015 0.013 0.0131 -0.0011 0.0004 0.0007
Ca1F 0.0177 0.012 0.0103 0 0 0
Ca1B 0.0177 0.012 0.0103 0 0 0
Ca1D 0.0177 0.012 0.0103 0 0 0
O2C 0.0207 0.0116 0.0174 -0.002 -0.0027 -0.0011
O3C 0.0189 0.0267 0.0129 -0.0042 -0.0012 -0.0011
O3A 0.0189 0.0267 0.0129 0.0042 0.0012 -0.0011
O4C 0.029 0.018 0.0153 -0.0024 0.0044 0.0086
O4A 0.029 0.018 0.0153 0.0024 -0.0044 0.0086
O5C 0.027 0.021 0.0186 0.001 -0.0053 0.0068
O7C 0.031 0.0146 0.0148 -0.005 0.0041 0.0002
O7F 0.031(1) 0.0146(8) 0.0148(9) -0.0050(7) -0.0041(8) -0.0002(8)
O7G 0.031 0.0146 0.0148 -0.005 0.0041 0.0002
C1C 0.014 0.015 0.0111 -0.0013 0.0004 -0.0003
C2C 0.016 0.013 0.0144 -0.0018 -0.0011 0.0002
C3C 0.017 0.015 0.0154 -0.0022 -0.0012 0.0015
C4C 0.018 0.0132 0.0132 -0.0021 0.0014 0.0009
C5C 0.02 0.022 0.02 -0.007 -0.0036 0.0015
C6C 0.015 0.013 0.0131 0.0011 0.0004 -0.0007
Cl1 0.0298(4) 0.0326(4) 0.0445(5) 0.0168(4) 0.0021(4) 0.0020(3)
loop_
_geom_bond_atom_site_label_1
_geom_bond_atom_site_label_2
_geom_bond_site_symmetry_1
_geom_bond_site_symmetry_2
Ca1 O3 1_555 1_555
O1 C6 1_555 1_555
O2 C2 1_555 1_555
O3 C1 1_555 1_555
O4 Ca1 1_555 1_555
O5 C3 1_555 1_555
O6 Ca1 1_555 1_555
O7 C5 1_555 1_555
C1 C4 1_555 1_555
C2 C3 1_555 1_555
C3 C4 1_555 1_555
C4 O4 1_555 1_555
C5 C2 1_555 1_555
C6 O2 1_555 1_555
H1 C1 1_555 1_555
H2 C2 1_555 1_555
H3 C3 1_555 1_555
H4 C4 1_555 1_555
H5 C6 1_555 1_555
H6 C5 1_555 1_555
H7 C5 1_555 1_555
Ca1F O7 1_555 1_555
Ca1B O3C 1_555 1_555
Ca1D O7C 1_555 1_555
O2C C2C 1_555 1_555
O3C C1C 1_555 1_555
O3A Ca1 1_555 1_555
O4C Ca1B 1_555 1_555
O4A Ca1 1_555 1_555
O5C C3C 1_555 1_555
O7C C5C 1_555 1_555
O7F Ca1 1_555 1_555
O7G Ca1 1_555 1_555
C1C C4C 1_555 1_555
C2C C3C 1_555 1_555
C3C C4C 1_555 1_555
C4C O4C 1_555 1_555
C5C C2C 1_555 1_555
C6C O1 1_555 1_555
H1C C1C 1_555 1_555
H2C C2C 1_555 1_555
H3C C3C 1_555 1_555
H4C C4C 1_555 1_555
H5C C6C 1_555 1_555
H6C C5C 1_555 1_555
H7C C5C 1_555 1_555
C1 C6 1_555 1_555
O2C C6C 1_555 1_555
C1C C6C 1_555 1_555

#END
