
#######################################################################
#
#                 Cambridge Crystallographic Data Centre
#                                CCDC 
#
#######################################################################
#
# If this CIF has been generated from an entry in the Cambridge 
# Structural Database, then it will include bibliographic, chemical, 
# crystal, experimental, refinement or atomic coordinate data resulting 
# from the CCDC's data processing and validation procedures.
#
#######################################################################

data_ILECIN
_chemical_formula_moiety         '(C12 H16 Mg2 N4 O12)n'
_symmetry_cell_setting           monoclinic
_symmetry_space_group_name_H-M   'P 21/n'
_symmetry_Int_Tables_number      14
_space_group_name_Hall           '-P 2yn'
loop_
_symmetry_equiv_pos_site_id
_symmetry_equiv_pos_as_xyz
1 x,y,z
2 1/2-x,1/2+y,1/2-z
3 -x,-y,-z
4 1/2+x,1/2-y,1/2+z
_cell_length_a                   12.1246(4)
_cell_length_b                   12.2087(5)
_cell_length_c                   12.4991(4)
_cell_angle_alpha                90
_cell_angle_beta                 91.394(3)
_cell_angle_gamma                90
_cell_volume                     1849.64
loop_
_atom_site_label
_atom_site_type_symbol
_atom_site_fract_x
_atom_site_fract_y
_atom_site_fract_z
Mg1 Mg 0.25858(6) 0.24887(6) -0.00578(6)
Mg2 Mg -0.24143(6) 0.25082(6) -0.00482(6)
O1 O -0.08067(14) 0.19522(14) 0.02680(14)
O2 O 0.41881(14) 0.29986(15) -0.01399(16)
O3 O 0.20258(15) 0.40913(14) -0.01649(14)
O4 O 0.31446(15) 0.08904(14) 0.00123(14)
O5 O 0.28581(16) 0.26378(16) 0.15881(13)
O6 O 0.10070(15) 0.19345(15) 0.02080(15)
O7 O -0.26486(17) 0.24065(16) 0.15742(14)
O8 O 0.59906(15) 0.30154(15) -0.02849(17)
O9 O 0.28891(17) 0.25709(16) 0.33416(14)
O10 O 0.19079(15) 0.58928(14) -0.00930(14)
O11 O 0.29248(16) -0.08905(14) 0.01761(15)
O12 O -0.27120(17) 0.25011(16) 0.33198(14)
C1 C 0.0094(2) 0.2256(2) -0.0088(2)
H1 H 0.0071 0.2777 -0.0631
C2 C -0.2441(2) 0.2825(2) 0.2436(2)
H2 H -0.2028 0.3467 0.2425
C3 C 0.2732(2) -0.0008(2) -0.0239(2)
H3 H 0.2222 -0.0006 -0.0806
C4 C 0.2327(2) 0.5010(2) 0.0164(2)
H4 H 0.2923 0.5031 0.0647
C5 C 0.2562(2) 0.2270(2) 0.2454(2)
H5 H 0.2040 0.1712 0.2431
C6 C 0.5066(2) 0.2625(2) -0.0407(2)
H6 H 0.5032 0.1950 -0.0750
Mg1C Mg -0.24142(6) 0.25113(6) 0.49422(6)
Mg2_2 Mg 0.75857(6) 0.25082(6) -0.00482(6)
Mg2B Mg 0.24143(6) -0.25082(6) 0.00482(6)
Mg2B_2 Mg 0.24143(6) 0.74918(6) 0.00482(6)
Mg2C Mg 0.25857(6) 0.24918(6) 0.49518(6)
O8_2 O -0.40094(15) 0.30154(15) -0.02849(17)
O9C O -0.21109(17) 0.24291(16) -0.16584(14)
O10B O -0.19079(15) 0.41072(14) 0.00930(14)
O11B O -0.29248(16) 0.08905(14) -0.01761(15)
O12C O 0.22880(17) 0.24989(16) -0.16802(14)
N1 N -0.5497(2) 0.0435(2) 0.17499(19)
H7 H -0.5825 0.0591 0.1152
C7 C -0.5777(3) -0.0384(3) 0.2401(3)
H8 H -0.6351 -0.0879 0.2290
C8 C -0.5077(3) -0.0354(3) 0.3238(3)
H9 H -0.5066 -0.0819 0.3827
N2 N -0.4387(2) 0.0491(2) 0.3056(2)
H10 H -0.3850 0.0688 0.3474
C9 C -0.4657(3) 0.0957(3) 0.2157(3)
H11 H -0.4309 0.1559 0.1857
N3 N 0.5480(2) 0.5783(2) -0.2181(2)
H12 H 0.5917 0.6303 -0.1979
C10 C 0.5544(3) 0.5228(3) -0.3078(3)
H13 H 0.6062 0.5328 -0.3606
N4 N 0.4735(2) 0.4499(2) -0.3090(2)
H14 H 0.4599 0.4032 -0.3591
C11 C 0.4168(3) 0.4611(3) -0.2195(3)
H15 H 0.3559 0.4197 -0.2004
C12 C 0.4619(3) 0.5406(3) -0.1632(2)
H16 H 0.4387 0.5663 -0.0974
loop_
_geom_bond_atom_site_label_1
_geom_bond_atom_site_label_2
_geom_bond_site_symmetry_1
_geom_bond_site_symmetry_2
Mg1 O2 1_555 1_555
Mg2 O1 1_555 1_555
O1 C1 1_555 1_555
O2 C6 1_555 1_555
O3 Mg1 1_555 1_555
O4 Mg1 1_555 1_555
O5 Mg1 1_555 1_555
O6 Mg1 1_555 1_555
O7 Mg2 1_555 1_555
O8 C6 1_555 1_555
O9 C5 1_555 1_555
O10 C4 1_555 1_555
O11 C3 1_555 1_555
O12 C2 1_555 1_555
C1 O6 1_555 1_555
H1 C1 1_555 1_555
C2 O7 1_555 1_555
H2 C2 1_555 1_555
C3 O4 1_555 1_555
H3 C3 1_555 1_555
C4 O3 1_555 1_555
H4 C4 1_555 1_555
C5 O5 1_555 1_555
H5 C5 1_555 1_555
C6 H6 1_555 1_555
N1 H7 1_555 1_555
C7 N1 1_555 1_555
H8 C7 1_555 1_555
C8 C7 1_555 1_555
H9 C8 1_555 1_555
N2 C8 1_555 1_555
H10 N2 1_555 1_555
C9 N1 1_555 1_555
H11 C9 1_555 1_555
N3 H12 1_555 1_555
C10 N3 1_555 1_555
H13 C10 1_555 1_555
N4 C10 1_555 1_555
H14 N4 1_555 1_555
C11 N4 1_555 1_555
H15 C11 1_555 1_555
C12 N3 1_555 1_555
H16 C12 1_555 1_555
Mg1C O12 1_555 1_555
Mg2_2 O8 1_555 1_555
Mg2B O11 1_555 1_555
Mg2B_2 O10 1_555 1_555
Mg2C O9 1_555 1_555
O8_2 Mg2 1_555 1_555
O9C Mg2 1_555 1_555
O10B Mg2 1_555 1_555
O11B Mg2 1_555 1_555
O12C Mg1 1_555 1_555
N2 C9 1_555 1_555
C11 C12 1_555 1_555

#END
