
#######################################################################
#
#                 Cambridge Crystallographic Data Centre
#                                CCDC 
#
#######################################################################
#
# If this CIF has been generated from an entry in the Cambridge 
# Structural Database, then it will include bibliographic, chemical, 
# crystal, experimental, refinement or atomic coordinate data resulting 
# from the CCDC's data processing and validation procedures.
#
#######################################################################

data_PEZCII
_chemical_formula_moiety         '(C27 H17 La1 O7)n'
_symmetry_cell_setting           rhombohedral
_symmetry_space_group_name_H-M   'R 3 2'
_symmetry_Int_Tables_number      155
_space_group_name_Hall           'R 3 2"'
loop_
_symmetry_equiv_pos_site_id
_symmetry_equiv_pos_as_xyz
1 x,y,z
2 -y,x-y,z
3 -x+y,-x,z
4 y,x,-z
5 x-y,-y,-z
6 -x,-x+y,-z
7 2/3+x,1/3+y,1/3+z
8 2/3-y,1/3+x-y,1/3+z
9 2/3-x+y,1/3-x,1/3+z
10 2/3+y,1/3+x,1/3-z
11 2/3+x-y,1/3-y,1/3-z
12 2/3-x,1/3-x+y,1/3-z
13 1/3+x,2/3+y,2/3+z
14 1/3-y,2/3+x-y,2/3+z
15 1/3-x+y,2/3-x,2/3+z
16 1/3+y,2/3+x,2/3-z
17 1/3+x-y,2/3-y,2/3-z
18 1/3-x,2/3-x+y,2/3-z
_cell_length_a                   28.764(4)
_cell_length_b                   28.764(4)
_cell_length_c                   12.563(3)
_cell_angle_alpha                90
_cell_angle_beta                 90
_cell_angle_gamma                120
_cell_volume                     9001.66
loop_
_atom_site_label
_atom_site_type_symbol
_atom_site_fract_x
_atom_site_fract_y
_atom_site_fract_z
_atom_site_U_iso_or_equiv
_atom_site_thermal_displace_type
C1 C 0.4215(2) 1.0221(2) 0.8802(4) 0.0352 Uani
C2 C 0.4727(2) 1.0217(2) 0.8658(5) 0.0346 Uani
C3 C 0.5183(2) 1.0600(3) 0.9181(5) 0.0411 Uani
H1 H 0.5174 1.0869 0.9591 0.0490 Uiso
C4 C 0.5652(2) 1.0577(2) 0.9087(5) 0.0379 Uani
H2 H 0.5966 1.0842 0.9419 0.0460 Uiso
C5 C 0.5668(2) 1.0171(2) 0.8509(5) 0.0343 Uani
C6 C 0.5217(3) 0.9793(2) 0.7979(5) 0.0431 Uani
H3 H 0.5230 0.9533 0.7549 0.0520 Uiso
C7 C 0.4735(2) 0.9805(2) 0.8092(5) 0.0394 Uani
H4 H 0.4418 0.9532 0.7784 0.0480 Uiso
C8 C 0.6183(2) 1.0158(2) 0.8406(4) 0.0302 Uani
C9 C 0.6667 1.0635(3) 0.8333 0.0350 Uani
H5 H 0.6667 1.0962 0.8333 0.0420 Uiso
C10 C 0.6186(2) 0.9683(2) 0.8414(4) 0.0317 Uani
H6 H 0.5858 0.9358 0.8475 0.0380 Uiso
C11 C 0.6667 0.9669(2) 0.8333 0.0309 Uani
C12 C 0.6667 0.9158(2) 0.8333 0.0287 Uani
C13 C 0.7027(2) 0.9086(2) 0.7699(5) 0.0399 Uani
H7 H 0.7277 0.9373 0.7277 0.0480 Uiso
C14 C 0.7022(3) 0.8607(2) 0.7680(5) 0.0414 Uani
H8 H 0.7256 0.8559 0.7232 0.0500 Uiso
C15 C 0.6667 0.8198(2) 0.8333 0.0339 Uani
C16 C 0.6667 0.7663(3) 0.8333 0.0424 Uani
La1 La 0.322216(13) 1.0000 1.0000 0.0253 Uani
O1 O 0.42093(14) 1.05521(16) 0.9463(3) 0.0369 Uani
O2 O 0.37871(16) 0.98678(15) 0.8330(2) 0.0333 Uani
O3 O 0.6830(2) 0.75396(19) 0.7502(4) 0.0606 Uani
O4 O 0.2343(2) 1.0000 1.0000 0.0917 Uani
H9 H 0.2189 0.9889 1.0599 0.1370 Uiso
C1Q C 0.9118(2) 1.2673(3) 0.7865(4) 0.0352 Uani
C2Q C 0.8606(2) 1.2157(3) 0.8009(5) 0.0346 Uani
C3Q C 0.8150(2) 1.2084(4) 0.7486(5) 0.0411 Uani
H1Q H 0.8159 1.2362 0.7076 0.0490 Uiso
C4Q C 0.7681(2) 1.1592(3) 0.7580(5) 0.0379 Uani
H2Q H 0.7367 1.1543 0.7248 0.0460 Uiso
C5Q C 0.7665(2) 1.1170(3) 0.8158(5) 0.0343 Uani
C6Q C 0.8116(3) 1.1243(4) 0.8688(5) 0.0431 Uani
H3Q H 0.8103 1.0970 0.9118 0.0520 Uiso
C7Q C 0.8598(2) 1.1737(3) 0.8575(5) 0.0394 Uani
H4Q H 0.8915 1.1781 0.8883 0.0480 Uiso
C8Q C 0.7150(2) 1.0642(3) 0.8261(4) 0.0302 Uani
C10Q C 0.7147(2) 1.0164(3) 0.8253(4) 0.0317 Uani
H6Q H 0.7475 1.0167 0.8192 0.0380 Uiso
C13Q C 0.6306(2) 0.8726(3) 0.8968(5) 0.0399 Uani
H7Q H 0.6056 0.8763 0.9390 0.0480 Uiso
C14Q C 0.6311(3) 0.8252(4) 0.8987(5) 0.0414 Uani
H8Q H 0.6077 0.7970 0.9435 0.0500 Uiso
O1Q O 0.91240(14) 1.30095(21) 0.7204(3) 0.0369 Uani
O2Q O 0.95462(16) 1.27474(22) 0.8337(2) 0.0333 Uani
O3Q O 0.6503(2) 0.73763(28) 0.9165(4) 0.0606 Uani
H9D H 0.2300 1.0111 0.9401 0.1370 Uiso
La1A La 1.0000 1.322216(13) 1.0000 0.0253 Uani
La1B La 0.677784(13) 0.677784(13) 1.0000 0.0253 Uani
La1L La 0.655549(13) 0.6667 0.6667 0.0253 Uani
La1M La 0.3333 0.988883(13) 0.6667 0.0253 Uani
La1N La 1.011117(13) 1.344451(13) 0.6667 0.0253 Uani
O1D O 0.36572(21) 0.94479(16) 1.0537(3) 0.0369 Uani
O2D O 0.39193(22) 1.01322(15) 1.1670(2) 0.0333 Uani
O2H O 0.27474(22) 0.95462(16) 1.1663(2) 0.0333 Uani
O2O O 0.32011(15) 1.04538(16) 0.8337(2) 0.0333 Uani
O3F O 0.3497(2) 1.08729(19) 1.0835(4) 0.0606 Uani
O3P O 0.26237(28) 0.91271(19) 0.9165(4) 0.0606 Uani
loop_
_atom_site_aniso_label
_atom_site_aniso_U_11
_atom_site_aniso_U_22
_atom_site_aniso_U_33
_atom_site_aniso_U_23
_atom_site_aniso_U_13
_atom_site_aniso_U_12
C1 0.027(3) 0.035(3) 0.039(3) 0.005(2) 0.001(2) 0.012(2)
C2 0.027(3) 0.033(3) 0.045(3) -0.002(2) 0.006(2) 0.016(2)
C3 0.033(3) 0.046(3) 0.050(3) -0.001(3) 0.007(2) 0.024(3)
C4 0.025(3) 0.036(3) 0.051(3) -0.002(2) -0.003(2) 0.014(2)
C5 0.028(3) 0.025(3) 0.055(3) 0.006(2) 0.000(2) 0.017(2)
C6 0.038(3) 0.032(3) 0.060(4) -0.002(3) 0.003(3) 0.018(3)
C7 0.036(3) 0.031(3) 0.053(3) -0.006(2) -0.008(3) 0.018(2)
C8 0.026(3) 0.023(3) 0.044(3) 0.003(2) 0.003(2) 0.014(2)
C9 0.031(4) 0.025(3) 0.051(4) -0.0002(17) 0.000(3) 0.0156(19)
C10 0.028(3) 0.020(2) 0.047(3) 0.004(2) 0.002(2) 0.012(2)
C11 0.032(4) 0.023(3) 0.041(4) 0.0012(16) 0.002(3) 0.0162(19)
C12 0.038(4) 0.017(2) 0.038(4) -0.0042(15) -0.008(3) 0.019(2)
C13 0.042(3) 0.024(3) 0.053(3) 0.001(2) 0.007(3) 0.016(3)
C14 0.043(3) 0.030(3) 0.059(4) -0.004(3) -0.007(3) 0.024(3)
C15 0.053(4) 0.017(2) 0.043(4) -0.0015(16) -0.003(3) 0.026(2)
C16 0.046(5) 0.023(3) 0.066(5) -0.012(2) -0.024(4) 0.023(2)
La1 0.02327(17) 0.0232(2) 0.0293(2) -0.00035(14) -0.00018(7) 0.01158(10)
O1 0.0257(17) 0.038(2) 0.045(2) -0.0038(17) 0.0025(15) 0.0145(17)
O2 0.0315(19) 0.034(2) 0.036(2) -0.0053(17) -0.0091(15) 0.0176(15)
O3 0.087(4) 0.040(3) 0.075(3) -0.034(2) -0.021(3) 0.047(3)
O4 0.047(3) 0.110(7) 0.139(7) 0.067(6) 0.033(3) 0.055(4)
C1Q 0.027 0.038 0.039 -0.004 0.001 0.015
C2Q 0.027 0.028 0.045 0.008 0.006 0.011
C3Q 0.033 0.031 0.05 0.008 0.007 0.009
C4Q 0.025 0.033 0.051 -0.001 -0.003 0.011
C5Q 0.028 0.019 0.055 -0.006 0 0.011
C6Q 0.038 0.034 0.06 0.005 0.003 0.02
C7Q 0.036 0.031 0.053 -0.002 -0.008 0.018
C8Q 0.026 0.021 0.044 -1.06031e-18 0.003 0.012
C10Q 0.028 0.024 0.047 -0.002 0.002 0.016
C13Q 0.042 0.034 0.053 0.006 0.007 0.026
C14Q 0.043 0.025 0.059 -0.003 -0.007 0.019
O1Q 0.0257 0.0347 0.045 0.0063 0.0025 0.0112
O2Q 0.0315 0.0303 0.036 -0.0038 -0.0091 0.0139
O3Q 0.087 0.033 0.075 0.013 -0.021 0.04
La1A 0.0232 0.02331 0.0293 0.00017 0.00035 0.01162
La1B 0.02331 0.02327 0.0293 0.00018 -0.00017 0.01169
La1L 0.02327 0.0232 0.0293 -0.00035 -0.00018 0.01158
La1M 0.0232 0.02331 0.0293 0.00017 0.00035 0.01162
La1N 0.02331 0.02327 0.0293 0.00018 -0.00017 0.01169
O1D 0.0347 0.038 0.045 -0.0038 -0.0063 0.0235
O2D 0.0303 0.034 0.036 -0.0053 0.0038 0.0164
O2H 0.0303 0.0315 0.036 0.0091 0.0038 0.0139
O2O 0.034 0.0315 0.036 0.0091 0.0053 0.0176
O3F 0.087 0.04 0.075 -0.034 -0.021 0.047
O3P 0.033 0.04 0.075 -0.034 -0.013 -0.007
loop_
_geom_bond_atom_site_label_1
_geom_bond_atom_site_label_2
_geom_bond_site_symmetry_1
_geom_bond_site_symmetry_2
C1 C2 1_555 1_555
C2 C3 1_555 1_555
C3 H1 1_555 1_555
C4 C3 1_555 1_555
H2 C4 1_555 1_555
C5 C4 1_555 1_555
C6 C5 1_555 1_555
H3 C6 1_555 1_555
C7 C2 1_555 1_555
H4 C7 1_555 1_555
C8 C5 1_555 1_555
C9 C8 1_555 1_555
H5 C9 1_555 1_555
C10 C8 1_555 1_555
H6 C10 1_555 1_555
C11 C10 1_555 1_555
C12 C11 1_555 1_555
C13 C12 1_555 1_555
H7 C13 1_555 1_555
C14 C13 1_555 1_555
H8 C14 1_555 1_555
C15 C14 1_555 1_555
C16 C15 1_555 1_555
La1 O1 1_555 1_555
O1 C1 1_555 1_555
O2 C1 1_555 1_555
O3 C16 1_555 1_555
O4 La1 1_555 1_555
H9 O4 1_555 1_555
C1Q C2Q 1_555 1_555
C2Q C3Q 1_555 1_555
C3Q H1Q 1_555 1_555
C4Q C3Q 1_555 1_555
H2Q C4Q 1_555 1_555
C5Q C4Q 1_555 1_555
C6Q C5Q 1_555 1_555
H3Q C6Q 1_555 1_555
C7Q C2Q 1_555 1_555
H4Q C7Q 1_555 1_555
C8Q C9 1_555 1_555
C10Q C11 1_555 1_555
H6Q C10Q 1_555 1_555
C13Q C12 1_555 1_555
H7Q C13Q 1_555 1_555
C14Q C15 1_555 1_555
H8Q C14Q 1_555 1_555
O1Q C1Q 1_555 1_555
O2Q C1Q 1_555 1_555
O3Q C16 1_555 1_555
H9D O4 1_555 1_555
La1A O2Q 1_555 1_555
La1B O3Q 1_555 1_555
La1L O3 1_555 1_555
La1M O2 1_555 1_555
La1N O1Q 1_555 1_555
O1D La1 1_555 1_555
O2D La1 1_555 1_555
O2H La1 1_555 1_555
O2O La1 1_555 1_555
O3F La1 1_555 1_555
O3P La1 1_555 1_555
C6 C7 1_555 1_555
La1 O2 1_555 1_555
C5Q C8Q 1_555 1_555
C6Q C7Q 1_555 1_555
C8Q C10Q 1_555 1_555
C13Q C14Q 1_555 1_555
O2Q La1N 1_555 1_555
La1M O2O 1_555 1_555

#END
