
#######################################################################
#
#                 Cambridge Crystallographic Data Centre
#                                CCDC 
#
#######################################################################
#
# If this CIF has been generated from an entry in the Cambridge 
# Structural Database, then it will include bibliographic, chemical, 
# crystal, experimental, refinement or atomic coordinate data resulting 
# from the CCDC's data processing and validation procedures.
#
#######################################################################

data_WIJDAV
_chemical_formula_moiety         '(C14 H32 N6 O18 Zn3)n'
_symmetry_cell_setting           monoclinic
_symmetry_space_group_name_H-M   'P 21/n'
_symmetry_Int_Tables_number      14
_space_group_name_Hall           '-P 2yn'
loop_
_symmetry_equiv_pos_site_id
_symmetry_equiv_pos_as_xyz
1 x,y,z
2 1/2-x,1/2+y,1/2-z
3 -x,-y,-z
4 1/2+x,1/2-y,1/2+z
_cell_length_a                   11.690(3)
_cell_length_b                   17.998(4)
_cell_length_c                   14.173(3)
_cell_angle_alpha                90
_cell_angle_beta                 111.013(5)
_cell_angle_gamma                90
_cell_volume                     2783.65
loop_
_atom_site_label
_atom_site_type_symbol
_atom_site_fract_x
_atom_site_fract_y
_atom_site_fract_z
_atom_site_U_iso_or_equiv
_atom_site_thermal_displace_type
O1 O 0.555(4) 0.614(3) 0.093(3) 0.2098 Uani
Zn1 Zn 0.06341(7) 0.83342(4) 0.88666(6) 0.0308 Uani
N1 N 0.0457(5) 0.7585(3) 0.7819(4) 0.0334 Uani
O2 O 0.1324(4) 0.7935(3) 1.0222(3) 0.0379 Uani
H1 H 0.0875 0.7549 1.0160 0.0570 Uiso
O3 O -0.1291(4) 0.7912(3) 0.8499(4) 0.0382 Uani
C1 C -0.0574(6) 0.7147(4) 0.7510(5) 0.0281 Uani
C2 C 0.1200(6) 0.7284(4) 0.7393(6) 0.0436 Uani
H2 H 0.1965 0.7478 0.7469 0.0520 Uiso
Zn2 Zn 0.15094(7) 0.85514(4) 1.13875(6) 0.0285 Uani
Zn3 Zn 0.12815(7) 0.59419(4) 0.60588(6) 0.0301 Uani
O4 O -0.2074(4) 0.5766(3) 0.6431(4) 0.0431 Uani
O5 O -0.0486(4) 0.5509(3) 0.5993(4) 0.0381 Uani
O6 O 0.3092(4) 0.9928(3) 0.8568(4) 0.0356 Uani
N2 N -0.0515(5) 1.0531(3) 0.8693(4) 0.0284 Uani
O7 O -0.2591(4) 0.7065(3) 0.7592(3) 0.0336 Uani
O8 O 0.2080(4) 1.1505(3) 0.8583(4) 0.0437 Uani
O9 O 0.0234(4) 1.1862(3) 0.8466(4) 0.0395 Uani
N3 N 0.0742(5) 0.6682(3) 0.6853(5) 0.0330 Uani
N4 N 0.0657(5) 0.6114(3) 0.4531(4) 0.0315 Uani
H3 H 0.0088 0.5756 0.4246 0.0380 Uiso
C3 C -0.1047(6) 0.5916(4) 0.6391(5) 0.0298 Uani
C4 C -0.0382(5) 0.6586(4) 0.6903(5) 0.0258 Uani
C5 C 0.1025(6) 1.1362(4) 0.8556(5) 0.0295 Uani
C6 C 0.0629(5) 1.0589(4) 0.8653(5) 0.0236 Uani
C7 C 0.1607(6) 0.6041(4) 0.4082(5) 0.0349 Uani
H4 H 0.1983 0.5555 0.4248 0.0420 Uiso
H5 H 0.2238 0.6410 0.4382 0.0420 Uiso
C8 C -0.1543(6) 0.7387(4) 0.7891(5) 0.0289 Uani
C9 C -0.0699(6) 0.9814(4) 0.8772(5) 0.0351 Uani
H6 H -0.1417 0.9619 0.8813 0.0420 Uiso
C10 C 0.0030(7) 0.6843(4) 0.4217(7) 0.0503 Uani
H7 H 0.0605 0.7240 0.4523 0.0600 Uiso
H8 H -0.0639 0.6881 0.4467 0.0600 Uiso
C11 C 0.1134(7) 0.6135(5) 0.2965(6) 0.0485 Uani
H9 H 0.1808 0.6102 0.2720 0.0590 Uiso
H10 H 0.0560 0.5739 0.2653 0.0590 Uiso
C12 C -0.0465(8) 0.6944(6) 0.3086(8) 0.0711 Uani
H11 H -0.1105 0.6581 0.2780 0.0860 Uiso
H12 H -0.0820 0.7436 0.2920 0.0860 Uiso
N5 N 0.0524(6) 0.6852(4) 0.2681(6) 0.0615 Uani
H13 H 0.0210 0.6888 0.2003 0.0740 Uiso
H14 H 0.1077 0.7218 0.2918 0.0740 Uiso
O10 O 0.2273(4) 0.8853(3) 0.8685(4) 0.0380 Uani
N6 N 0.0249(5) 0.9402(3) 0.8787(4) 0.0295 Uani
C13 C 0.2241(6) 0.9538(4) 0.8649(5) 0.0286 Uani
C14 C 0.1108(6) 0.9882(3) 0.8712(5) 0.0232 Uani
Zn2C Zn -0.34906(7) 0.64486(4) 0.63875(6) 0.0285 Uani
Zn2B Zn -0.15094(7) 1.14486(4) 0.86125(6) 0.0285 Uani
Zn3A Zn 0.37185(7) 1.09419(4) 0.89412(6) 0.0301 Uani
O4C O 0.2926(4) 0.9234(3) 1.1431(4) 0.0431 Uani
O6A O 0.1908(4) 0.4928(3) 0.6432(4) 0.0356 Uani
N2B N 0.0515(5) 0.9469(3) 1.1307(4) 0.0284 Uani
O7C O 0.2409(4) 0.7935(3) 1.2592(3) 0.0336 Uani
O8A O 0.2920(4) 0.6505(3) 0.6417(4) 0.0437 Uani
O9B O -0.0234(4) 0.8138(3) 1.1534(4) 0.0395 Uani
O11 O 0.9962(8) 0.6691(4) 0.0490(5) 0.1045 Uani
H15 H 0.9199 0.6795 0.0342 0.1250 Uiso
H16 H 1.0004 0.6281 0.0189 0.1250 Uiso
O12 O 0.3159(9) 0.6844(6) 0.0210(9) 0.1946 Uani
H17 H 0.2842 0.6499 -0.0243 0.2330 Uiso
H18 H 0.2591 0.7186 0.0215 0.2330 Uiso
O13 O 0.2629(11) 0.8003(5) 0.5624(8) 0.2106 Uani
H19 H 0.2357 0.8050 0.4975 0.2530 Uiso
H20 H 0.2542 0.7527 0.5785 0.2530 Uiso
O14 O 0.387(3) 0.612(2) 0.893(2) 0.1876 Uani
O15 O 0.162(4) 0.852(2) 0.422(3) 0.1376 Uani
O16 O -0.216(3) 0.528(2) -0.146(2) 0.2256 Uani
O18 O 0.151(5) 0.561(3) 0.003(4) 0.2007 Uani
O20 O 0.828(2) 0.5186(15) 0.1555(17) 0.2222 Uani
loop_
_atom_site_aniso_label
_atom_site_aniso_U_11
_atom_site_aniso_U_22
_atom_site_aniso_U_33
_atom_site_aniso_U_23
_atom_site_aniso_U_13
_atom_site_aniso_U_12
O1 0.21(2) 0.21(2) 0.21(2) -0.002(10) 0.076(11) 0.000(10)
Zn1 0.0279(5) 0.0259(5) 0.0421(5) -0.0076(4) 0.0167(4) -0.0030(3)
N1 0.021(3) 0.029(3) 0.056(4) -0.017(3) 0.021(3) -0.011(3)
O2 0.034(3) 0.034(3) 0.049(3) -0.001(2) 0.019(2) 0.000(2)
O3 0.025(3) 0.041(3) 0.055(3) -0.030(3) 0.022(2) -0.008(2)
C1 0.018(3) 0.029(4) 0.041(4) -0.006(3) 0.015(3) 0.000(3)
C2 0.027(4) 0.047(5) 0.071(6) -0.025(4) 0.035(4) -0.016(4)
Zn2 0.0172 0.0271 0.0448 0.0068 0.0156 0.0044
Zn3 0.0202(4) 0.0273(5) 0.0496(5) -0.0082(4) 0.0209(4) -0.0016(3)
O4 0.015(2) 0.035(3) 0.088(4) -0.015(3) 0.029(3) -0.009(2)
O5 0.022(3) 0.032(3) 0.069(4) -0.024(3) 0.027(2) -0.008(2)
O6 0.016 0.034 0.064 -0.004 0.023 -0.003
N2 0.016 0.024 0.048 0.003 0.015 0.002
O7 0.017(2) 0.045(3) 0.043(3) -0.016(2) 0.016(2) -0.013(2)
O8 0.019 0.031 0.089 0.014 0.029 0.005
O9 0.025 0.025 0.075 0.014 0.026 0.005
N3 0.024(3) 0.027(3) 0.058(4) -0.018(3) 0.027(3) -0.007(3)
N4 0.023(3) 0.025(3) 0.052(4) 0.001(3) 0.020(3) -0.003(3)
C3 0.013(3) 0.023(4) 0.052(5) -0.001(3) 0.010(3) 0.003(3)
C4 0.011(3) 0.026(4) 0.041(4) -0.008(3) 0.010(3) -0.001(3)
C5 0.024 0.026 0.042 0.013 0.016 0.01
C6 0.014 0.027 0.032 0 0.011 -0.003
C7 0.025(4) 0.029(4) 0.056(5) 0.010(4) 0.021(3) 0.006(3)
C8 0.022(4) 0.034(4) 0.034(4) -0.003(3) 0.014(3) 0.001(3)
C9 0.022 0.034 0.058 -0.006 0.025 -0.006
C10 0.027(4) 0.033(5) 0.100(7) 0.010(5) 0.034(5) 0.005(3)
C11 0.040(5) 0.058(6) 0.050(5) 0.023(4) 0.019(4) -0.003(4)
C12 0.043(5) 0.074(7) 0.105(8) 0.051(6) 0.037(6) 0.019(5)
N5 0.038(4) 0.066(5) 0.089(6) 0.041(4) 0.033(4) 0.007(4)
O10 0.024 0.024 0.073 -0.008 0.026 -0.001
N6 0.021 0.023 0.049 -0.001 0.018 -0.004
C13 0.017 0.032 0.04 -0.006 0.014 -0.004
C14 0.02 0.022 0.03 -0.001 0.012 0.004
Zn2C 0.0172(4) 0.0271(5) 0.0448(5) -0.0068(4) 0.0156(4) -0.0044(3)
Zn2B 0.0172 0.0271 0.0448 0.0068 0.0156 0.0044
Zn3A 0.0202 0.0273 0.0496 0.0082 0.0209 0.0016
O4C 0.015 0.035 0.088 0.015 0.029 0.009
O6A 0.016(2) 0.034(3) 0.064(3) 0.004(2) 0.023(2) 0.003(2)
N2B 0.016 0.024 0.048 0.003 0.015 0.002
O7C 0.017 0.045 0.043 0.016 0.016 0.013
O8A 0.019(3) 0.031(3) 0.089(4) -0.014(3) 0.029(3) -0.005(2)
O9B 0.025 0.025 0.075 0.014 0.026 0.005
O11 0.141(6) 0.080(5) 0.094(5) -0.003(4) 0.044(5) -0.027(5)
O12 0.181(9) 0.178(8) 0.220(9) -0.022(7) 0.066(7) 0.045(7)
O13 0.206(9) 0.190(9) 0.230(9) 0.037(7) 0.071(7) 0.015(7)
O14 0.199(15) 0.195(15) 0.186(15) -0.002(10) 0.090(10) 0.001(10)
O15 0.14(2) 0.14(2) 0.14(2) -0.006(10) 0.059(12) -0.006(10)
O16 0.221(17) 0.231(17) 0.217(17) 0.009(10) 0.069(10) 0.004(10)
O18 0.20(2) 0.19(2) 0.21(2) -0.002(10) 0.071(12) 0.005(10)
O20 0.229(13) 0.238(13) 0.207(12) 0.003(9) 0.087(9) -0.015(9)
loop_
_geom_bond_atom_site_label_1
_geom_bond_atom_site_label_2
_geom_bond_site_symmetry_1
_geom_bond_site_symmetry_2
Zn1 N1 1_555 1_555
N1 C1 1_555 1_555
O2 Zn1 1_555 1_555
H1 O2 1_555 1_555
O3 Zn1 1_555 1_555
C1 C4 1_555 1_555
C2 N1 1_555 1_555
H2 C2 1_555 1_555
Zn2 O2 1_555 1_555
Zn3 O5 1_555 1_555
O4 C3 1_555 1_555
O5 C3 1_555 1_555
O6 C13 1_555 1_555
N2 C6 1_555 1_555
O7 C8 1_555 1_555
O8 C5 1_555 1_555
O9 C5 1_555 1_555
N3 C2 1_555 1_555
N4 Zn3 1_555 1_555
H3 N4 1_555 1_555
C3 C4 1_555 1_555
C4 N3 1_555 1_555
C5 C6 1_555 1_555
C6 C14 1_555 1_555
C7 N4 1_555 1_555
H4 C7 1_555 1_555
H5 C7 1_555 1_555
C8 O3 1_555 1_555
C9 N2 1_555 1_555
H6 C9 1_555 1_555
C10 N4 1_555 1_555
H7 C10 1_555 1_555
H8 C10 1_555 1_555
C11 C7 1_555 1_555
H9 C11 1_555 1_555
H10 C11 1_555 1_555
C12 C10 1_555 1_555
H11 C12 1_555 1_555
H12 C12 1_555 1_555
N5 C11 1_555 1_555
H13 N5 1_555 1_555
H14 N5 1_555 1_555
O10 Zn1 1_555 1_555
N6 Zn1 1_555 1_555
C13 O10 1_555 1_555
C14 N6 1_555 1_555
O11 H15 1_555 1_555
H16 O11 1_555 1_555
O12 H17 1_555 1_555
H18 O12 1_555 1_555
O13 H19 1_555 1_555
H20 O13 1_555 1_555
Zn2C O4 1_555 1_555
Zn2B N2 1_555 1_555
Zn3A O6 1_555 1_555
O4C Zn2 1_555 1_555
O6A Zn3 1_555 1_555
N2B Zn2 1_555 1_555
O7C Zn2 1_555 1_555
O8A Zn3 1_555 1_555
O9B Zn2 1_555 1_555
C1 C8 1_555 1_555
Zn3 N3 1_555 1_555
O7 Zn2C 1_555 1_555
O8 Zn3A 1_555 1_555
O9 Zn2B 1_555 1_555
C9 N6 1_555 1_555
C12 N5 1_555 1_555
C13 C14 1_555 1_555

#END
