
#######################################################################
#
#                 Cambridge Crystallographic Data Centre
#                                CCDC 
#
#######################################################################
#
# If this CIF has been generated from an entry in the Cambridge 
# Structural Database, then it will include bibliographic, chemical, 
# crystal, experimental, refinement or atomic coordinate data resulting 
# from the CCDC's data processing and validation procedures.
#
#######################################################################

data_HAJYEZ
_chemical_formula_moiety         '(C44 H34 Ni4 O23)n'
_symmetry_cell_setting           triclinic
_symmetry_space_group_name_H-M   'P -1'
_symmetry_Int_Tables_number      2
_space_group_name_Hall           '-P 1'
loop_
_symmetry_equiv_pos_site_id
_symmetry_equiv_pos_as_xyz
1 x,y,z
2 -x,-y,-z
_cell_length_a                   10.282(5)
_cell_length_b                   11.261(5)
_cell_length_c                   12.171(4)
_cell_angle_alpha                92.575(11)
_cell_angle_beta                 109.114(11)
_cell_angle_gamma                109.752(12)
_cell_volume                     1233.86
loop_
_atom_site_label
_atom_site_type_symbol
_atom_site_fract_x
_atom_site_fract_y
_atom_site_fract_z
O12 O 0.9899(9) 0.8481(7) 0.9443(7)
H17 H 1.0515 0.8968 0.9176
H18 H 0.9172 0.8725 0.9296
Ni1 Ni 0.5000 0.5000 0.5000
O1 O 0.5896(4) 0.6876(4) 0.5622(4)
O2 O 0.6970(4) 0.4832(4) 0.5193(3)
O3 O 1.5655(4) 1.4623(4) 0.6821(4)
C1 C 0.7117(6) 0.7524(6) 0.6425(5)
Ni2 Ni 0.79181(8) 0.52637(7) 0.70290(7)
H1 H 0.7236 0.4193 0.5265
H2 H 0.7379 0.5278 0.4767
C2 C 0.7462(6) 0.8934(6) 0.6724(5)
O4 O 0.8084(4) 0.7112(4) 0.6981(4)
O5 O 0.8678(4) 0.5813(4) 0.8855(3)
O6 O 0.7848(5) 1.3468(4) 0.7003(4)
O7 O 0.0068(4) 0.5855(4) 0.7067(4)
C3 C 0.8879(7) 0.9797(6) 0.6896(5)
C4 C 0.6400(6) 0.9396(6) 0.6853(5)
Ni3 Ni 1.0000 0.5000 1.0000
H3 H 0.9236 0.6488 0.9365
H4 H 0.7804 0.5619 0.8855
C5 C 0.9318(6) 1.1120(6) 0.7213(5)
H5 H 0.9565 0.9478 0.6794
C6 C 0.6825(7) 1.0709(6) 0.7152(5)
C7 C 0.4873(7) 0.8560(6) 0.6703(6)
O8 O 1.1641(5) 0.5909(5) 0.9382(4)
O9 O 0.9265(5) 1.3399(4) 0.8816(4)
C8 C 1.0840(6) 1.1980(6) 0.7330(5)
C9 C 0.8239(6) 1.1566(6) 0.7359(5)
H6 H 0.6122 1.1027 0.7216
C10 C 0.4573(7) 0.7627(6) 0.7376(6)
C11 C 0.3688(7) 0.8746(7) 0.5868(6)
H7 H 1.2445 0.5890 0.9345
H8 H 1.1098 0.5936 0.8694
C12 C 1.1767(7) 1.2952(6) 0.8323(6)
C13 C 1.1421(7) 1.1833(6) 0.6472(6)
C14 C 0.8502(6) 1.2946(6) 0.7752(6)
H9 H 0.5355 0.7495 0.7936
C15 C 0.3118(7) 0.6876(6) 0.7234(6)
H10 H 0.3873 0.9386 0.5419
C16 C 0.2244(7) 0.7991(7) 0.5702(6)
C17 C 1.3146(7) 1.3742(7) 0.8418(6)
H11 H 1.1426 1.3055 0.8927
C18 C 1.2813(7) 1.2648(6) 0.6560(6)
H12 H 1.0860 1.1173 0.5825
H13 H 0.2932 0.6249 0.7694
C19 C 0.1942(7) 0.7076(6) 0.6392(6)
H14 H 0.1465 0.8101 0.5117
C20 C 1.3689(7) 1.3614(6) 0.7518(6)
H15 H 1.3735 1.4372 0.9084
H16 H 1.3163 1.2543 0.5962
C21 C 0.0371(7) 0.6303(6) 0.6220(6)
C22 C 1.5222(7) 1.4488(6) 0.7688(6)
O10 O -0.0592(5) 0.6175(5) 0.5199(4)
O11 O 1.6062(5) 1.5019(6) 0.8720(4)
O1A O 0.4104(4) 0.3124(4) 0.4378(4)
O2A O 0.3030(4) 0.5168(4) 0.4807(3)
O3A O -0.5655(4) -0.4623(4) 0.3179(4)
C1A C 0.2883(6) 0.2476(6) 0.3575(5)
Ni2A Ni 0.20819(8) 0.47363(7) 0.29710(7)
H1A H 0.2764 0.5807 0.4735
H2A H 0.2621 0.4722 0.5233
C2A C 0.2538(6) 0.1066(6) 0.3276(5)
O4A O 0.1916(4) 0.2888(4) 0.3019(4)
O5A O 0.1322(4) 0.4187(4) 0.1145(3)
O6A O 0.2152(5) -0.3468(4) 0.2997(4)
O7A O 0.9932(4) 0.4145(4) 0.2933(4)
C3A C 0.1121(7) 0.0203(6) 0.3104(5)
C4A C 0.3600(6) 0.0604(6) 0.3147(5)
H3A H 0.0764 0.3512 0.0635
H4A H 0.2196 0.4381 0.1145
C5A C 0.0682(6) -0.1120(6) 0.2787(5)
H5A H 0.0435 0.0522 0.3206
C6A C 0.3175(7) -0.0709(6) 0.2848(5)
C7A C 0.5127(7) 0.1440(6) 0.3297(6)
O9A O 0.0735(5) -0.3399(4) 0.1184(4)
C8A C -0.0840(6) -0.1980(6) 0.2670(5)
C9A C 0.1761(6) -0.1566(6) 0.2641(5)
H6A H 0.3878 -0.1027 0.2784
C10A C 0.5427(7) 0.2373(6) 0.2624(6)
C11A C 0.6312(7) 0.1254(7) 0.4132(6)
C12A C -0.1767(7) -0.2952(6) 0.1677(6)
C13A C -0.1421(7) -0.1833(6) 0.3528(6)
C14A C 0.1498(6) -0.2946(6) 0.2248(6)
H9A H 0.4645 0.2505 0.2064
C15A C 0.6882(7) 0.3124(6) 0.2766(6)
H10A H 0.6127 0.0614 0.4581
C16A C 0.7756(7) 0.2009(7) 0.4298(6)
C17A C -0.3146(7) -0.3742(7) 0.1582(6)
H11A H -0.1426 -0.3055 0.1073
C18A C -0.2813(7) -0.2648(6) 0.3440(6)
H12A H -0.0860 -0.1173 0.4175
H13A H 0.7068 0.3751 0.2306
C19A C 0.8058(7) 0.2924(6) 0.3608(6)
H14A H 0.8535 0.1899 0.4883
C20A C -0.3689(7) -0.3614(6) 0.2482(6)
H15A H -0.3735 -0.4372 0.0916
H16A H -0.3163 -0.2543 0.4038
C21A C 0.9629(7) 0.3697(6) 0.3780(6)
C22A C -0.5222(7) -0.4488(6) 0.2312(6)
O10A O 1.0592(5) 0.3825(5) 0.4801(4)
O11A O -0.6062(5) -0.5019(6) 0.1280(4)
O8A O 0.8359(5) 0.4091(5) 1.0618(4)
H7A H 0.7555 0.4110 1.0655
H8A H 0.8902 0.4064 1.1306
Ni1_2 Ni -0.5000 -0.5000 0.5000
Ni1_3 Ni 1.5000 1.5000 0.5000
O3_2 O 0.5655(4) 0.4623(4) 0.6821(4)
O3A_2 O 0.4345(4) 0.5377(4) 0.3179(4)
Ni2_2 Ni -0.20819(8) 0.52637(7) 0.70290(7)
Ni2_3 Ni 0.79181(8) 1.52637(7) 0.70290(7)
Ni2_4 Ni 1.79181(8) 1.52637(7) 0.70290(7)
Ni2A_2 Ni -0.79181(8) -0.52637(7) 0.29710(7)
Ni2A_3 Ni 0.20819(8) -0.52637(7) 0.29710(7)
Ni2A_4 Ni 1.20819(8) 0.47363(7) 0.29710(7)
O5A_2 O 1.1322(4) 0.4187(4) 1.1145(3)
O6_2 O 0.7848(5) 0.3468(4) 0.7003(4)
O6A_2 O 0.2152(5) 0.6532(4) 0.2997(4)
O7_2 O 1.0068(4) 0.5855(4) 0.7067(4)
O7A_2 O -0.0068(4) 0.4145(4) 0.2933(4)
Ni3_2 Ni 0.0000 -0.5000 0.0000
Ni3_3 Ni 0.0000 0.5000 0.0000
Ni3_4 Ni 1.0000 1.5000 1.0000
O9_2 O 0.9265(5) 0.3399(4) 0.8816(4)
O9A_2 O 1.0735(5) 0.6601(4) 1.1184(4)
loop_
_geom_bond_atom_site_label_1
_geom_bond_atom_site_label_2
_geom_bond_site_symmetry_1
_geom_bond_site_symmetry_2
Ni1 O1 1_555 1_555
O1 C1 1_555 1_555
O2 Ni1 1_555 1_555
O3 C22 1_555 1_555
C1 C2 1_555 1_555
Ni2 O2 1_555 1_555
H1 O2 1_555 1_555
H2 O2 1_555 1_555
C2 C3 1_555 1_555
O4 C1 1_555 1_555
O5 Ni2 1_555 1_555
O6 C14 1_555 1_555
O7 C21 1_555 1_555
C3 C5 1_555 1_555
C4 C2 1_555 1_555
Ni3 O5 1_555 1_555
H3 O5 1_555 1_555
H4 O5 1_555 1_555
C5 C8 1_555 1_555
H5 C3 1_555 1_555
C6 C4 1_555 1_555
C7 C4 1_555 1_555
O8 Ni3 1_555 1_555
O9 C14 1_555 1_555
C8 C12 1_555 1_555
C9 C5 1_555 1_555
H6 C6 1_555 1_555
C10 C7 1_555 1_555
C11 C7 1_555 1_555
H7 O8 1_555 1_555
H8 O8 1_555 1_555
C12 C17 1_555 1_555
C13 C8 1_555 1_555
C14 C9 1_555 1_555
H9 C10 1_555 1_555
C15 C10 1_555 1_555
H10 C11 1_555 1_555
C16 C11 1_555 1_555
C17 C20 1_555 1_555
H11 C12 1_555 1_555
C18 C13 1_555 1_555
H12 C13 1_555 1_555
H13 C15 1_555 1_555
C19 C15 1_555 1_555
H14 C16 1_555 1_555
C20 C18 1_555 1_555
H15 C17 1_555 1_555
H16 C18 1_555 1_555
C21 C19 1_555 1_555
C22 C20 1_555 1_555
O10 C21 1_555 1_555
O11 C22 1_555 1_555
O12 H17 1_555 1_555
H18 O12 1_555 1_555
O1A Ni1 1_555 1_555
O2A Ni1 1_555 1_555
O3A C22A 1_555 1_555
C1A O1A 1_555 1_555
Ni2A O2A 1_555 1_555
H1A O2A 1_555 1_555
H2A O2A 1_555 1_555
C2A C1A 1_555 1_555
O4A C1A 1_555 1_555
O5A Ni2A 1_555 1_555
O6A C14A 1_555 1_555
O7A C21A 1_555 1_555
C3A C2A 1_555 1_555
C4A C2A 1_555 1_555
H3A O5A 1_555 1_555
H4A O5A 1_555 1_555
C5A C3A 1_555 1_555
H5A C3A 1_555 1_555
C6A C4A 1_555 1_555
C7A C4A 1_555 1_555
O9A C14A 1_555 1_555
C8A C5A 1_555 1_555
C9A C5A 1_555 1_555
H6A C6A 1_555 1_555
C10A C7A 1_555 1_555
C11A C7A 1_555 1_555
C12A C8A 1_555 1_555
C13A C8A 1_555 1_555
C14A C9A 1_555 1_555
H9A C10A 1_555 1_555
C15A C10A 1_555 1_555
H10A C11A 1_555 1_555
C16A C11A 1_555 1_555
C17A C12A 1_555 1_555
H11A C12A 1_555 1_555
C18A C13A 1_555 1_555
H12A C13A 1_555 1_555
H13A C15A 1_555 1_555
C19A C15A 1_555 1_555
H14A C16A 1_555 1_555
C20A C17A 1_555 1_555
H15A C17A 1_555 1_555
H16A C18A 1_555 1_555
C21A C19A 1_555 1_555
C22A C20A 1_555 1_555
O10A C21A 1_555 1_555
O11A C22A 1_555 1_555
O8A Ni3 1_555 1_555
H7A O8A 1_555 1_555
H8A O8A 1_555 1_555
Ni1_2 O3A 1_555 1_555
Ni1_3 O3 1_555 1_555
O3_2 Ni1 1_555 1_555
O3A_2 Ni1 1_555 1_555
Ni2_2 O7 1_555 1_555
Ni2_3 O6 1_555 1_555
Ni2_4 O3 1_555 1_555
Ni2A_2 O3A 1_555 1_555
Ni2A_3 O6A 1_555 1_555
Ni2A_4 O7A 1_555 1_555
O5A_2 Ni3 1_555 1_555
O6_2 Ni2 1_555 1_555
O6A_2 Ni2A 1_555 1_555
O7_2 Ni2 1_555 1_555
O7A_2 Ni2A 1_555 1_555
Ni3_2 O9A 1_555 1_555
Ni3_3 O5A 1_555 1_555
Ni3_4 O9 1_555 1_555
O9_2 Ni3 1_555 1_555
O9A_2 Ni3 1_555 1_555
Ni2 O4 1_555 1_555
Ni2 O3_2 1_555 1_555
C6 C9 1_555 1_555
C16 C19 1_555 1_555
Ni2A O4A 1_555 1_555
Ni2A O3A_2 1_555 1_555
C6A C9A 1_555 1_555
C16A C19A 1_555 1_555
C18A C20A 1_555 1_555

#END
