
#######################################################################
#
#                 Cambridge Crystallographic Data Centre
#                                CCDC 
#
#######################################################################
#
# If this CIF has been generated from an entry in the Cambridge 
# Structural Database, then it will include bibliographic, chemical, 
# crystal, experimental, refinement or atomic coordinate data resulting 
# from the CCDC's data processing and validation procedures.
#
#######################################################################

data_KUTNOE
_chemical_formula_moiety         '(C38 H22 N2 O8 Zn2)n'
_symmetry_cell_setting           orthorhombic
_symmetry_space_group_name_H-M   'I m m a'
_symmetry_Int_Tables_number      74
_space_group_name_Hall           '-I 2b 2'
loop_
_symmetry_equiv_pos_site_id
_symmetry_equiv_pos_as_xyz
1 x,y,z
2 -x,1/2-y,z
3 -x,1/2+y,-z
4 x,-y,-z
5 1/2+x,1/2+y,1/2+z
6 1/2-x,-y,1/2+z
7 1/2-x,y,1/2-z
8 1/2+x,1/2-y,1/2-z
9 -x,-y,-z
10 x,1/2+y,-z
11 x,1/2-y,z
12 -x,y,z
13 1/2-x,1/2-y,1/2-z
14 1/2+x,y,1/2-z
15 1/2+x,-y,1/2+z
16 1/2-x,1/2+y,1/2+z
_cell_length_a                   24.137(5)
_cell_length_b                   36.488(5)
_cell_length_c                   18.163(3)
_cell_angle_alpha                90
_cell_angle_beta                 90
_cell_angle_gamma                90
_cell_volume                     15996.4
loop_
_atom_site_label
_atom_site_type_symbol
_atom_site_fract_x
_atom_site_fract_y
_atom_site_fract_z
_atom_site_U_iso_or_equiv
_atom_site_thermal_displace_type
Zn1 Zn 0.17940(2) 0.46036(2) 0.50909(3) 0.0202 Uani
O1 O 0.38952(11) 0.52836(10) 0.06812(18) 0.0301 Uani
O2 O 0.24561(12) 0.46605(9) 0.44365(17) 0.0294 Uani
O3 O 0.37209(12) 0.46789(10) 0.08342(17) 0.0341 Uani
O4 O 0.22902(12) 0.52314(10) 0.40405(17) 0.0334 Uani
N1 N 0.17806(15) 0.40617(12) 0.5200(2) 0.0327 Uani
C1 C 0.44981(16) 0.49399(13) 0.1423(2) 0.0232 Uani
C2 C 0.5000 0.49841(18) 0.1078(4) 0.0273 Uani
H1 H 0.5000 0.5048 0.0582 0.0330 Uiso
C3 C 0.39842(16) 0.49774(13) 0.0957(2) 0.0232 Uani
C4 C 0.44956(16) 0.48537(16) 0.2176(2) 0.0299 Uani
C5 C 0.39737(17) 0.48571(15) 0.2615(2) 0.0299 Uani
C6 C 0.31384(19) 0.51661(16) 0.2987(3) 0.0333 Uani
H2 H 0.2896 0.5362 0.2930 0.0400 Uiso
C7 C 0.25463(18) 0.49355(15) 0.4039(2) 0.0280 Uani
C8 C 0.38699(18) 0.45904(14) 0.3140(2) 0.0320 Uani
H3 H 0.4118 0.4397 0.3190 0.0380 Uiso
C9 C 0.5000 0.4815(2) 0.2529(4) 0.0353 Uani
H4 H 0.5000 0.4759 0.3028 0.0420 Uiso
C10 C 0.30368(18) 0.49078(16) 0.3522(3) 0.0337 Uani
C11 C 0.34049(18) 0.46040(15) 0.3594(3) 0.0347 Uani
H5 H 0.3336 0.4420 0.3935 0.0410 Uiso
C12 C 0.35907(19) 0.51371(16) 0.2541(3) 0.0380 Uani
H6 H 0.3644 0.5312 0.2175 0.0460 Uiso
C13 C 0.1790(2) 0.32975(18) 0.5281(5) 0.0600 Uani
C14 C 0.1784(3) 0.28815(17) 0.5311(5) 0.0673 Uani
C15 C 0.2283(3) 0.26948(18) 0.5437(6) 0.1020 Uani
H7 H 0.2609 0.2824 0.5519 0.1220 Uiso
C16 C 0.1388(3) 0.3869(2) 0.5476(5) 0.0950 Uani
H8 H 0.1091 0.3997 0.5678 0.1140 Uiso
C17 C 0.2212(3) 0.3848(2) 0.4945(4) 0.0783 Uani
H9 H 0.2513 0.3966 0.4731 0.0940 Uiso
C18 C 0.2225(3) 0.3470(2) 0.4987(5) 0.1000 Uani
H10 H 0.2529 0.3339 0.4815 0.1200 Uiso
C19 C 0.1364(3) 0.3504(2) 0.5503(7) 0.1223 Uani
H11 H 0.1045 0.3392 0.5680 0.1470 Uiso
C20 C 0.1300(3) 0.26849(19) 0.5303(7) 0.1323 Uani
H12 H 0.0964 0.2809 0.5297 0.1590 Uiso
O1K O 0.61048(11) 0.52836(10) 0.06812(18) 0.0301 Uani
O2K O 0.75439(12) 0.46605(9) 0.44365(17) 0.0294 Uani
O3K O 0.62791(12) 0.46789(10) 0.08342(17) 0.0341 Uani
O4K O 0.77098(12) 0.52314(10) 0.40405(17) 0.0334 Uani
C1K C 0.55019(16) 0.49399(13) 0.1423(2) 0.0232 Uani
C3K C 0.60158(16) 0.49774(13) 0.0957(2) 0.0232 Uani
C4K C 0.55044(16) 0.48537(16) 0.2176(2) 0.0299 Uani
C5K C 0.60263(17) 0.48571(15) 0.2615(2) 0.0299 Uani
C6K C 0.68616(19) 0.51661(16) 0.2987(3) 0.0333 Uani
H2K H 0.7104 0.5362 0.2930 0.0400 Uiso
C7K C 0.74537(18) 0.49355(15) 0.4039(2) 0.0280 Uani
C8K C 0.61301(18) 0.45904(14) 0.3140(2) 0.0320 Uani
H3K H 0.5882 0.4397 0.3190 0.0380 Uiso
C10K C 0.69632(18) 0.49078(16) 0.3522(3) 0.0337 Uani
C11K C 0.65951(18) 0.46040(15) 0.3594(3) 0.0347 Uani
H5K H 0.6664 0.4420 0.3935 0.0410 Uiso
C12K C 0.64093(19) 0.51371(16) 0.2541(3) 0.0380 Uani
H6K H 0.6356 0.5312 0.2175 0.0460 Uiso
N1J N 0.17806(15) 0.09383(12) 0.5200(2) 0.0327 Uani
C13J C 0.1790(2) 0.17025(18) 0.5281(5) 0.0600 Uani
C14J C 0.1784(3) 0.21185(17) 0.5311(5) 0.0673 Uani
C15J C 0.2283(3) 0.23052(18) 0.5437(6) 0.1020 Uani
H7J H 0.2609 0.2176 0.5519 0.1220 Uiso
C16J C 0.1388(3) 0.1131(2) 0.5476(5) 0.0950 Uani
H8J H 0.1091 0.1003 0.5678 0.1140 Uiso
C17J C 0.2212(3) 0.1152(2) 0.4945(4) 0.0783 Uani
H9J H 0.2513 0.1034 0.4731 0.0940 Uiso
C18J C 0.2225(3) 0.1530(2) 0.4987(5) 0.1000 Uani
H10J H 0.2529 0.1661 0.4815 0.1200 Uiso
C19J C 0.1364(3) 0.1496(2) 0.5503(7) 0.1223 Uani
H11J H 0.1045 0.1608 0.5680 0.1470 Uiso
C20J C 0.1300(3) 0.23151(19) 0.5303(7) 0.1323 Uani
H12J H 0.0964 0.2191 0.5297 0.1590 Uiso
Zn1C Zn 0.17940(2) 0.53964(2) 0.49091(3) 0.0202 Uani
Zn1E Zn 0.32060(2) 0.53964(2) 0.00909(3) 0.0202 Uani
Zn1F Zn 0.32060(2) 0.46036(2) -0.00909(3) 0.0202 Uani
Zn1H Zn 0.82060(2) 0.53964(2) 0.49091(3) 0.0202 Uani
Zn1J Zn 0.17940(2) 0.03964(2) 0.50909(3) 0.0202 Uani
Zn1K Zn 0.82060(2) 0.46036(2) 0.50909(3) 0.0202 Uani
Zn1M Zn 0.67940(2) 0.46036(2) -0.00909(3) 0.0202 Uani
Zn1N Zn 0.67940(2) 0.53964(2) 0.00909(3) 0.0202 Uani
O1E O 0.11048(11) 0.47164(10) 0.56812(18) 0.0301 Uani
O1F O 0.11048(11) 0.52836(10) 0.43188(18) 0.0301 Uani
O2C O 0.24561(12) 0.53395(9) 0.55635(17) 0.0294 Uani
O3E O 0.12791(12) 0.53211(10) 0.58342(17) 0.0341 Uani
O3F O 0.12791(12) 0.46789(10) 0.41658(17) 0.0341 Uani
O4C O 0.22902(12) 0.47686(10) 0.59595(17) 0.0334 Uani
N1C N 0.17806(15) 0.59383(12) 0.4800(2) 0.0327 Uani
loop_
_atom_site_aniso_label
_atom_site_aniso_U_11
_atom_site_aniso_U_22
_atom_site_aniso_U_33
_atom_site_aniso_U_23
_atom_site_aniso_U_13
_atom_site_aniso_U_12
Zn1 0.0058(3) 0.0355(4) 0.0194(3) -0.0012(2) 0.00112(19) -0.0002(2)
O1 0.0092(14) 0.051(2) 0.0302(18) -0.0058(16) -0.0073(13) -0.0013(15)
O2 0.0143(15) 0.056(2) 0.0180(17) 0.0000(16) 0.0100(13) -0.0069(15)
O3 0.0154(15) 0.065(3) 0.0219(18) 0.0038(16) -0.0082(14) -0.0056(17)
O4 0.0130(15) 0.065(3) 0.0221(18) 0.0096(17) 0.0052(13) 0.0070(17)
N1 0.017(2) 0.040(3) 0.041(3) 0.008(2) 0.0010(18) 0.0027(19)
C1 0.0056(14) 0.050(2) 0.0139(17) -0.0011(15) 0.0026(13) -0.0042(15)
C2 0.011(3) 0.055(5) 0.016(3) 0.002(3) 0.000 0.000
C3 0.0056(14) 0.050(2) 0.0139(17) -0.0011(15) 0.0026(13) -0.0042(15)
C4 0.0066(15) 0.068(2) 0.0150(17) -0.0002(16) 0.0019(13) 0.0056(16)
C5 0.0066(15) 0.068(2) 0.0150(17) -0.0002(16) 0.0019(13) 0.0056(16)
C6 0.022(2) 0.053(3) 0.025(3) 0.009(2) -0.003(2) 0.009(2)
C7 0.012(2) 0.063(4) 0.009(2) -0.008(2) -0.0068(18) 0.006(2)
C8 0.015(2) 0.059(3) 0.022(3) 0.011(2) 0.0076(19) 0.015(2)
C9 0.007(3) 0.074(5) 0.025(4) 0.000(4) 0.000 0.000
C10 0.008(2) 0.079(4) 0.014(2) -0.001(2) -0.0067(18) -0.005(2)
C11 0.015(2) 0.061(4) 0.028(3) 0.006(3) 0.002(2) -0.001(2)
C12 0.022(2) 0.072(4) 0.020(3) 0.016(3) -0.001(2) 0.004(3)
C13 0.027(3) 0.044(4) 0.109(6) 0.002(4) 0.005(3) -0.004(3)
C14 0.038(4) 0.032(4) 0.132(6) -0.001(4) 0.005(4) 0.003(3)
C15 0.055(4) 0.051(4) 0.200(9) -0.007(6) -0.013(6) -0.001(4)
C16 0.039(4) 0.055(5) 0.191(10) 0.005(6) 0.043(5) 0.015(4)
C17 0.041(4) 0.069(5) 0.125(7) 0.016(4) 0.032(4) 0.003(4)
C18 0.050(5) 0.049(5) 0.201(11) -0.010(5) 0.026(5) 0.007(4)
C19 0.045(4) 0.068(6) 0.254(13) 0.020(7) 0.022(6) -0.004(4)
C20 0.050(4) 0.037(4) 0.310(14) -0.010(6) 0.054(7) -0.002(4)
O1K 0.0092 0.051 0.0302 -0.0058 0.0073 0.0013
O2K 0.0143 0.056 0.018 0 -0.01 0.0069
O3K 0.0154 0.065 0.0219 0.0038 0.0082 0.0056
O4K 0.013 0.065 0.0221 0.0096 -0.0052 -0.007
C1K 0.0056 0.05 0.0139 -0.0011 -0.0026 0.0042
C3K 0.0056 0.05 0.0139 -0.0011 -0.0026 0.0042
C4K 0.0066 0.068 0.015 -0.0002 -0.0019 -0.0056
C5K 0.0066 0.068 0.015 -0.0002 -0.0019 -0.0056
C6K 0.022 0.053 0.025 0.009 0.003 -0.009
C7K 0.012 0.063 0.009 -0.008 0.0068 -0.006
C8K 0.015 0.059 0.022 0.011 -0.0076 -0.015
C10K 0.008 0.079 0.014 -0.001 0.0067 0.005
C11K 0.015 0.061 0.028 0.006 -0.002 0.001
C12K 0.022 0.072 0.02 0.016 0.001 -0.004
N1J 0.017 0.04 0.041 -0.008 0.001 -0.0027
C13J 0.027 0.044 0.109 -0.002 0.005 0.004
C14J 0.038 0.032 0.132 0.001 0.005 -0.003
C15J 0.055 0.051 0.2 0.007 -0.013 0.001
C16J 0.039 0.055 0.191 -0.005 0.043 -0.015
C17J 0.041 0.069 0.125 -0.016 0.032 -0.003
C18J 0.05 0.049 0.201 0.01 0.026 -0.007
C19J 0.045 0.068 0.254 -0.02 0.022 0.004
C20J 0.05 0.037 0.31 0.01 0.054 0.002
Zn1C 0.0058 0.0355 0.0194 -0.0012 -0.00112 0.0002
Zn1E 0.0058 0.0355 0.0194 0.0012 -0.00112 -0.0002
Zn1F 0.0058 0.0355 0.0194 0.0012 0.00112 0.0002
Zn1H 0.0058 0.0355 0.0194 -0.0012 0.00112 -0.0002
Zn1J 0.0058 0.0355 0.0194 0.0012 0.00112 0.0002
Zn1K 0.0058 0.0355 0.0194 -0.0012 -0.00112 0.0002
Zn1M 0.0058 0.0355 0.0194 0.0012 -0.00112 -0.0002
Zn1N 0.0058 0.0355 0.0194 0.0012 0.00112 0.0002
O1E 0.0092 0.051 0.0302 0.0058 0.0073 -0.0013
O1F 0.0092 0.051 0.0302 0.0058 -0.0073 0.0013
O2C 0.0143 0.056 0.018 0 -0.01 0.0069
O3E 0.0154 0.065 0.0219 -0.0038 0.0082 -0.0056
O3F 0.0154 0.065 0.0219 -0.0038 -0.0082 0.0056
O4C 0.013 0.065 0.0221 0.0096 -0.0052 -0.007
N1C 0.017 0.04 0.041 0.008 -0.001 -0.0027
loop_
_geom_bond_atom_site_label_1
_geom_bond_atom_site_label_2
_geom_bond_site_symmetry_1
_geom_bond_site_symmetry_2
Zn1 O2 1_555 1_555
O1 C3 1_555 1_555
O2 C7 1_555 1_555
O3 C3 1_555 1_555
O4 C7 1_555 1_555
N1 Zn1 1_555 1_555
C1 C2 1_555 1_555
C2 H1 1_555 1_555
C3 C1 1_555 1_555
C4 C1 1_555 1_555
C5 C4 1_555 1_555
C6 H2 1_555 1_555
C7 C10 1_555 1_555
C8 C5 1_555 1_555
H3 C8 1_555 1_555
C9 C4 1_555 1_555
H4 C9 1_555 1_555
C10 C6 1_555 1_555
C11 C8 1_555 1_555
H5 C11 1_555 1_555
C12 C5 1_555 1_555
H6 C12 1_555 1_555
C13 C14 1_555 1_555
C14 C15 1_555 1_555
C15 H7 1_555 1_555
C16 N1 1_555 1_555
H8 C16 1_555 1_555
C17 N1 1_555 1_555
H9 C17 1_555 1_555
C18 C13 1_555 1_555
H10 C18 1_555 1_555
C19 C13 1_555 1_555
H11 C19 1_555 1_555
C20 C14 1_555 1_555
H12 C20 1_555 1_555
O1K C3K 1_555 1_555
O2K C7K 1_555 1_555
O3K C3K 1_555 1_555
O4K C7K 1_555 1_555
C1K C2 1_555 1_555
C3K C1K 1_555 1_555
C4K C9 1_555 1_555
C5K C4K 1_555 1_555
C6K H2K 1_555 1_555
C7K C10K 1_555 1_555
C8K C5K 1_555 1_555
H3K C8K 1_555 1_555
C10K C6K 1_555 1_555
C11K C8K 1_555 1_555
H5K C11K 1_555 1_555
C12K C5K 1_555 1_555
H6K C12K 1_555 1_555
N1J C16J 1_555 1_555
C13J C14J 1_555 1_555
C14J C15J 1_555 1_555
C15J C15 1_555 1_555
H7J C15J 1_555 1_555
C16J H8J 1_555 1_555
C17J N1J 1_555 1_555
H9J C17J 1_555 1_555
C18J C13J 1_555 1_555
H10J C18J 1_555 1_555
C19J C13J 1_555 1_555
H11J C19J 1_555 1_555
C20J C20 1_555 1_555
H12J C20J 1_555 1_555
Zn1C O4 1_555 1_555
Zn1E O1 1_555 1_555
Zn1F O3 1_555 1_555
Zn1H O4K 1_555 1_555
Zn1J N1J 1_555 1_555
Zn1K O2K 1_555 1_555
Zn1M O3K 1_555 1_555
Zn1N O1K 1_555 1_555
O1E Zn1 1_555 1_555
O1F Zn1C 1_555 1_555
O2C Zn1C 1_555 1_555
O3E Zn1C 1_555 1_555
O3F Zn1 1_555 1_555
O4C Zn1 1_555 1_555
N1C Zn1C 1_555 1_555
C6 C12 1_555 1_555
C10 C11 1_555 1_555
C16 C19 1_555 1_555
C17 C18 1_555 1_555
C1K C4K 1_555 1_555
C6K C12K 1_555 1_555
C10K C11K 1_555 1_555
C14J C20J 1_555 1_555
C16J C19J 1_555 1_555
C17J C18J 1_555 1_555

#END
