
#######################################################################
#
#                 Cambridge Crystallographic Data Centre
#                                CCDC 
#
#######################################################################
#
# If this CIF has been generated from an entry in the Cambridge 
# Structural Database, then it will include bibliographic, chemical, 
# crystal, experimental, refinement or atomic coordinate data resulting 
# from the CCDC's data processing and validation procedures.
#
#######################################################################

data_KUTNUK
_chemical_formula_moiety         '(C38 H22 Cu2 N2 O8)n'
_symmetry_cell_setting           orthorhombic
_symmetry_space_group_name_H-M   'I m m a'
_symmetry_Int_Tables_number      74
_space_group_name_Hall           '-I 2b 2'
loop_
_symmetry_equiv_pos_site_id
_symmetry_equiv_pos_as_xyz
1 x,y,z
2 -x,1/2-y,z
3 -x,1/2+y,-z
4 x,-y,-z
5 1/2+x,1/2+y,1/2+z
6 1/2-x,-y,1/2+z
7 1/2-x,y,1/2-z
8 1/2+x,1/2-y,1/2-z
9 -x,-y,-z
10 x,1/2+y,-z
11 x,1/2-y,z
12 -x,y,z
13 1/2-x,1/2-y,1/2-z
14 1/2+x,y,1/2-z
15 1/2+x,-y,1/2+z
16 1/2-x,1/2+y,1/2+z
_cell_length_a                   23.997(7)
_cell_length_b                   36.410(6)
_cell_length_c                   18.142(3)
_cell_angle_alpha                90
_cell_angle_beta                 90
_cell_angle_gamma                90
_cell_volume                     15851.2
loop_
_atom_site_label
_atom_site_type_symbol
_atom_site_fract_x
_atom_site_fract_y
_atom_site_fract_z
_atom_site_U_iso_or_equiv
_atom_site_thermal_displace_type
Cu1 Cu 0.82060(2) 0.53795(2) 0.50739(2) 0.0135 Uani
O1 O 0.61157(8) 0.47057(6) 0.06722(12) 0.0194 Uani
O2 O 0.62861(8) 0.53043(6) 0.08416(11) 0.0214 Uani
O3 O 0.75493(8) 0.53433(5) 0.44318(11) 0.0209 Uani
O4 O 0.77098(8) 0.47711(6) 0.40628(11) 0.0203 Uani
N1 N 0.82111(10) 0.59425(7) 0.51647(15) 0.0215 Uani
C1 C 0.60201(12) 0.50118(8) 0.09512(16) 0.0155 Uani
C2 C 0.55031(12) 0.50393(8) 0.14221(17) 0.0174 Uani
C3 C 0.5000 0.49892(11) 0.1074(3) 0.0193 Uani
H1 H 0.5000 0.4918 0.0581 0.0230 Uiso
C4 C 0.55082(12) 0.51370(9) 0.21696(17) 0.0188 Uani
C5 C 0.5000 0.51814(12) 0.2521(2) 0.0197 Uani
H2 H 0.5000 0.5244 0.3018 0.0240 Uiso
C6 C 0.74521(12) 0.50683(8) 0.40410(17) 0.0165 Uani
C7 C 0.68709(12) 0.48319(10) 0.29990(18) 0.0249 Uani
H3 H 0.7112 0.4633 0.2959 0.0300 Uiso
C8 C 0.60334(12) 0.51426(9) 0.26004(16) 0.0190 Uani
C9 C 0.69741(13) 0.50986(9) 0.35129(18) 0.0207 Uani
C10 C 0.64127(12) 0.48539(9) 0.25389(18) 0.0249 Uani
H4 H 0.6357 0.4674 0.2183 0.0300 Uiso
C11 C 0.61400(13) 0.54090(9) 0.31155(18) 0.0281 Uani
H5 H 0.5892 0.5604 0.3165 0.0340 Uiso
C12 C 0.66051(13) 0.53956(9) 0.35632(19) 0.0286 Uani
H6 H 0.6673 0.5584 0.3898 0.0340 Uiso
C13 C 0.82072(16) 0.67125(13) 0.5251(3) 0.0500 Uani
C14 C 0.82048(17) 0.71164(11) 0.5289(3) 0.0537 Uani
C15 C 0.77764(16) 0.61468(12) 0.4935(2) 0.0513 Uani
H7 H 0.7469 0.6026 0.4740 0.0620 Uiso
C16 C 0.77610(19) 0.65226(11) 0.4971(3) 0.0623 Uani
H8 H 0.7448 0.6649 0.4806 0.0750 Uiso
C17 C 0.86422(19) 0.64997(12) 0.5499(3) 0.0777 Uani
H9 H 0.8952 0.6613 0.5707 0.0940 Uiso
C18 C 0.7730(2) 0.73037(11) 0.5404(3) 0.0770 Uani
H10 H 0.7399 0.7177 0.5485 0.0920 Uiso
C19 C 0.8703(2) 0.73116(11) 0.5204(4) 0.0950 Uani
H11 H 0.9037 0.7185 0.5148 0.1140 Uiso
C20 C 0.86280(18) 0.61346(11) 0.5449(3) 0.0630 Uani
H12 H 0.8933 0.6005 0.5627 0.0750 Uiso
O1K O 0.38843(8) 0.47057(6) 0.06722(12) 0.0194 Uani
O2K O 0.37139(8) 0.53043(6) 0.08416(11) 0.0214 Uani
O3K O 0.24507(8) 0.53433(5) 0.44318(11) 0.0209 Uani
O4K O 0.22902(8) 0.47711(6) 0.40628(11) 0.0203 Uani
C1K C 0.39799(12) 0.50118(8) 0.09512(16) 0.0155 Uani
C2K C 0.44969(12) 0.50393(8) 0.14221(17) 0.0174 Uani
C4K C 0.44918(12) 0.51370(9) 0.21696(17) 0.0188 Uani
C6K C 0.25479(12) 0.50683(8) 0.40410(17) 0.0165 Uani
C7K C 0.31291(12) 0.48319(10) 0.29990(18) 0.0249 Uani
H3K H 0.2888 0.4633 0.2959 0.0300 Uiso
C8K C 0.39666(12) 0.51426(9) 0.26004(16) 0.0190 Uani
C9K C 0.30259(13) 0.50986(9) 0.35129(18) 0.0207 Uani
C10K C 0.35873(12) 0.48539(9) 0.25389(18) 0.0249 Uani
H4K H 0.3643 0.4674 0.2183 0.0300 Uiso
C11K C 0.38600(13) 0.54090(9) 0.31155(18) 0.0281 Uani
H5K H 0.4108 0.5604 0.3165 0.0340 Uiso
C12K C 0.33949(13) 0.53956(9) 0.35632(19) 0.0286 Uani
H6K H 0.3327 0.5584 0.3898 0.0340 Uiso
N1J N 0.82111(10) 0.90575(7) 0.51647(15) 0.0215 Uani
C13J C 0.82072(16) 0.82875(13) 0.5251(3) 0.0500 Uani
C14J C 0.82048(17) 0.78836(11) 0.5289(3) 0.0537 Uani
C15J C 0.77764(16) 0.88532(12) 0.4935(2) 0.0513 Uani
H7J H 0.7469 0.8974 0.4740 0.0620 Uiso
C16J C 0.77610(19) 0.84774(11) 0.4971(3) 0.0623 Uani
H8J H 0.7448 0.8351 0.4806 0.0750 Uiso
C17J C 0.86422(19) 0.85003(12) 0.5499(3) 0.0777 Uani
H9J H 0.8952 0.8387 0.5707 0.0940 Uiso
C18J C 0.7730(2) 0.76963(11) 0.5404(3) 0.0770 Uani
H10J H 0.7399 0.7823 0.5485 0.0920 Uiso
C19J C 0.8703(2) 0.76884(11) 0.5204(4) 0.0950 Uani
H11J H 0.9037 0.7815 0.5148 0.1140 Uiso
C20J C 0.86280(18) 0.88654(11) 0.5449(3) 0.0630 Uani
H12J H 0.8933 0.8995 0.5627 0.0750 Uiso
Cu1C Cu 0.82060(2) 0.46205(2) 0.49261(2) 0.0135 Uani
Cu1E Cu 0.67940(2) 0.46205(2) 0.00739(2) 0.0135 Uani
Cu1F Cu 0.67940(2) 0.53795(2) -0.00739(2) 0.0135 Uani
Cu1H Cu 0.17940(2) 0.46205(2) 0.49261(2) 0.0135 Uani
Cu1J Cu 0.82060(2) 0.96205(2) 0.50739(2) 0.0135 Uani
Cu1K Cu 0.17940(2) 0.53795(2) 0.50739(2) 0.0135 Uani
Cu1M Cu 0.32060(2) 0.53795(2) -0.00739(2) 0.0135 Uani
Cu1N Cu 0.32060(2) 0.46205(2) 0.00739(2) 0.0135 Uani
O1E O 0.88843(8) 0.52943(6) 0.56722(12) 0.0194 Uani
O1F O 0.88843(8) 0.47057(6) 0.43278(12) 0.0194 Uani
O2E O 0.87139(8) 0.46957(6) 0.58416(11) 0.0214 Uani
O2F O 0.87139(8) 0.53043(6) 0.41584(11) 0.0214 Uani
O3C O 0.75493(8) 0.46567(5) 0.55682(11) 0.0209 Uani
O4C O 0.77098(8) 0.52289(6) 0.59372(11) 0.0203 Uani
N1C N 0.82111(10) 0.40575(7) 0.48353(15) 0.0215 Uani
loop_
_atom_site_aniso_label
_atom_site_aniso_U_11
_atom_site_aniso_U_22
_atom_site_aniso_U_33
_atom_site_aniso_U_23
_atom_site_aniso_U_13
_atom_site_aniso_U_12
Cu1 0.0078(2) 0.0160(2) 0.0166(2) 0.00261(16) -0.00156(15) -0.00059(15)
O1 0.0129(10) 0.0206(12) 0.0247(12) -0.0004(10) 0.0043(9) -0.0041(9)
O2 0.0168(11) 0.0295(13) 0.0179(11) 0.0013(10) 0.0054(9) -0.0010(10)
O3 0.0165(11) 0.0216(12) 0.0247(11) -0.0036(10) -0.0064(9) -0.0028(9)
O4 0.0162(11) 0.0220(12) 0.0228(12) -0.0011(10) -0.0028(9) -0.0005(9)
N1 0.0213(14) 0.0008(12) 0.0425(17) -0.0015(12) -0.0069(13) 0.0020(11)
C1 0.0122(15) 0.0240(18) 0.0102(15) 0.0025(14) -0.0019(12) -0.0035(14)
C2 0.0116(15) 0.0229(18) 0.0178(17) 0.0017(13) -0.0029(13) 0.0025(12)
C3 0.016(2) 0.024(3) 0.018(2) -0.001(2) 0.000 0.000
C4 0.0095(15) 0.0295(18) 0.0174(17) -0.0018(15) 0.0018(13) 0.0006(13)
C5 0.014(2) 0.030(3) 0.015(2) -0.004(2) 0.000 0.000
C6 0.0116(14) 0.0188(18) 0.0191(17) 0.0069(14) 0.0057(13) 0.0009(12)
C7 0.0169(16) 0.0299(19) 0.0279(19) -0.0110(17) -0.0016(14) 0.0042(14)
C8 0.0117(15) 0.0297(18) 0.0157(16) -0.0023(15) -0.0010(13) 0.0013(14)
C9 0.0106(15) 0.0281(19) 0.0234(18) -0.0016(15) 0.0013(13) 0.0008(13)
C10 0.0175(16) 0.0353(19) 0.0218(18) -0.0151(17) -0.0025(14) -0.0002(15)
C11 0.0184(16) 0.030(2) 0.036(2) -0.0067(16) -0.0074(15) 0.0105(15)
C12 0.0218(17) 0.031(2) 0.033(2) -0.0110(17) -0.0085(15) 0.0022(15)
C13 0.032(2) 0.047(3) 0.071(3) -0.004(2) -0.006(2) -0.0021(19)
C14 0.035(2) 0.026(2) 0.100(4) 0.001(2) -0.011(2) 0.0029(19)
C15 0.032(2) 0.035(2) 0.087(3) -0.012(2) -0.019(2) 0.0035(18)
C16 0.051(3) 0.026(2) 0.110(4) -0.001(2) -0.025(3) 0.007(2)
C17 0.052(3) 0.039(3) 0.142(5) -0.009(3) -0.042(3) -0.004(2)
C18 0.049(3) 0.027(2) 0.155(5) -0.006(3) 0.009(3) -0.008(2)
C19 0.054(3) 0.017(2) 0.214(7) 0.001(3) -0.020(4) -0.004(2)
C20 0.055(3) 0.021(2) 0.113(4) -0.006(3) -0.036(3) 0.009(2)
O1K 0.0129 0.0206 0.0247 -0.0004 -0.0043 0.0041
O2K 0.0168 0.0295 0.0179 0.0013 -0.0054 0.001
O3K 0.0165 0.0216 0.0247 -0.0036 0.0064 0.0028
O4K 0.0162 0.022 0.0228 -0.0011 0.0028 0.0005
C1K 0.0122 0.024 0.0102 0.0025 0.0019 0.0035
C2K 0.0116 0.0229 0.0178 0.0017 0.0029 -0.0025
C4K 0.0095 0.0295 0.0174 -0.0018 -0.0018 -0.0006
C6K 0.0116 0.0188 0.0191 0.0069 -0.0057 -0.0009
C7K 0.0169 0.0299 0.0279 -0.011 0.0016 -0.0042
C8K 0.0117 0.0297 0.0157 -0.0023 0.001 -0.0013
C9K 0.0106 0.0281 0.0234 -0.0016 -0.0013 -0.0008
C10K 0.0175 0.0353 0.0218 -0.0151 0.0025 0.0002
C11K 0.0184 0.03 0.036 -0.0067 0.0074 -0.0105
C12K 0.0218 0.031 0.033 -0.011 0.0085 -0.0022
N1J 0.0213 0.0008 0.0425 0.0015 -0.0069 -0.002
C13J 0.032 0.047 0.071 0.004 -0.006 0.0021
C14J 0.035 0.026 0.1 -0.001 -0.011 -0.0029
C15J 0.032 0.035 0.087 0.012 -0.019 -0.0035
C16J 0.051 0.026 0.11 0.001 -0.025 -0.007
C17J 0.052 0.039 0.142 0.009 -0.042 0.004
C18J 0.049 0.027 0.155 0.006 0.009 0.008
C19J 0.054 0.017 0.214 -0.001 -0.02 0.004
C20J 0.055 0.021 0.113 0.006 -0.036 -0.009
Cu1C 0.0078 0.016 0.0166 0.00261 0.00156 0.00059
Cu1E 0.0078 0.016 0.0166 -0.00261 0.00156 -0.00059
Cu1F 0.0078 0.016 0.0166 -0.00261 -0.00156 0.00059
Cu1H 0.0078 0.016 0.0166 0.00261 -0.00156 -0.00059
Cu1J 0.0078 0.016 0.0166 -0.00261 -0.00156 0.00059
Cu1K 0.0078 0.016 0.0166 0.00261 0.00156 0.00059
Cu1M 0.0078 0.016 0.0166 -0.00261 0.00156 -0.00059
Cu1N 0.0078 0.016 0.0166 -0.00261 -0.00156 0.00059
O1E 0.0129 0.0206 0.0247 0.0004 -0.0043 -0.0041
O1F 0.0129 0.0206 0.0247 0.0004 0.0043 0.0041
O2E 0.0168 0.0295 0.0179 -0.0013 -0.0054 -0.001
O2F 0.0168 0.0295 0.0179 -0.0013 0.0054 0.001
O3C 0.0165 0.0216 0.0247 -0.0036 0.0064 0.0028
O4C 0.0162 0.022 0.0228 -0.0011 0.0028 0.0005
N1C 0.0213 0.0008 0.0425 -0.0015 0.0069 -0.002
loop_
_geom_bond_atom_site_label_1
_geom_bond_atom_site_label_2
_geom_bond_site_symmetry_1
_geom_bond_site_symmetry_2
Cu1 O3 1_555 1_555
O1 C1 1_555 1_555
O2 C1 1_555 1_555
O3 C6 1_555 1_555
O4 C6 1_555 1_555
N1 Cu1 1_555 1_555
C1 C2 1_555 1_555
C2 C3 1_555 1_555
C3 H1 1_555 1_555
C4 C2 1_555 1_555
C5 C4 1_555 1_555
H2 C5 1_555 1_555
C6 C9 1_555 1_555
C7 H3 1_555 1_555
C8 C4 1_555 1_555
C9 C7 1_555 1_555
C10 C7 1_555 1_555
H4 C10 1_555 1_555
C11 C8 1_555 1_555
H5 C11 1_555 1_555
C12 C9 1_555 1_555
H6 C12 1_555 1_555
C13 C14 1_555 1_555
C14 C18 1_555 1_555
C15 N1 1_555 1_555
H7 C15 1_555 1_555
C16 C13 1_555 1_555
H8 C16 1_555 1_555
C17 C13 1_555 1_555
H9 C17 1_555 1_555
C18 H10 1_555 1_555
C19 C14 1_555 1_555
H11 C19 1_555 1_555
C20 N1 1_555 1_555
H12 C20 1_555 1_555
O1K C1K 1_555 1_555
O2K C1K 1_555 1_555
O3K C6K 1_555 1_555
O4K C6K 1_555 1_555
C1K C2K 1_555 1_555
C2K C3 1_555 1_555
C4K C5 1_555 1_555
C6K C9K 1_555 1_555
C7K H3K 1_555 1_555
C8K C4K 1_555 1_555
C9K C7K 1_555 1_555
C10K C7K 1_555 1_555
H4K C10K 1_555 1_555
C11K C8K 1_555 1_555
H5K C11K 1_555 1_555
C12K C9K 1_555 1_555
H6K C12K 1_555 1_555
N1J C15J 1_555 1_555
C13J C14J 1_555 1_555
C14J C18J 1_555 1_555
C15J H7J 1_555 1_555
C16J C13J 1_555 1_555
H8J C16J 1_555 1_555
C17J C13J 1_555 1_555
H9J C17J 1_555 1_555
C18J C18 1_555 1_555
H10J C18J 1_555 1_555
C19J C19 1_555 1_555
H11J C19J 1_555 1_555
C20J N1J 1_555 1_555
H12J C20J 1_555 1_555
Cu1C O4 1_555 1_555
Cu1E O1 1_555 1_555
Cu1F O2 1_555 1_555
Cu1H O4K 1_555 1_555
Cu1J N1J 1_555 1_555
Cu1K O3K 1_555 1_555
Cu1M O2K 1_555 1_555
Cu1N O1K 1_555 1_555
O1E Cu1 1_555 1_555
O1F Cu1C 1_555 1_555
O2E Cu1C 1_555 1_555
O2F Cu1 1_555 1_555
O3C Cu1C 1_555 1_555
O4C Cu1 1_555 1_555
N1C Cu1C 1_555 1_555
C8 C10 1_555 1_555
C11 C12 1_555 1_555
C15 C16 1_555 1_555
C17 C20 1_555 1_555
C2K C4K 1_555 1_555
C8K C10K 1_555 1_555
C11K C12K 1_555 1_555
C14J C19J 1_555 1_555
C15J C16J 1_555 1_555
C17J C20J 1_555 1_555

#END
