
#######################################################################
#
#                 Cambridge Crystallographic Data Centre
#                                CCDC 
#
#######################################################################
#
# If this CIF has been generated from an entry in the Cambridge 
# Structural Database, then it will include bibliographic, chemical, 
# crystal, experimental, refinement or atomic coordinate data resulting 
# from the CCDC's data processing and validation procedures.
#
#######################################################################

data_KUTPAS
_chemical_formula_moiety         '(C32 H18 N2 O8 Zn2)n'
_symmetry_cell_setting           orthorhombic
_symmetry_space_group_name_H-M   'I m m a'
_symmetry_Int_Tables_number      74
_space_group_name_Hall           '-I 2b 2'
loop_
_symmetry_equiv_pos_site_id
_symmetry_equiv_pos_as_xyz
1 x,y,z
2 -x,1/2-y,z
3 -x,1/2+y,-z
4 x,-y,-z
5 1/2+x,1/2+y,1/2+z
6 1/2-x,-y,1/2+z
7 1/2-x,y,1/2-z
8 1/2+x,1/2-y,1/2-z
9 -x,-y,-z
10 x,1/2+y,-z
11 x,1/2-y,z
12 -x,y,z
13 1/2-x,1/2-y,1/2-z
14 1/2+x,y,1/2-z
15 1/2+x,-y,1/2+z
16 1/2-x,1/2+y,1/2+z
_cell_length_a                   23.989(10)
_cell_length_b                   28.069(9)
_cell_length_c                   18.483(6)
_cell_angle_alpha                90
_cell_angle_beta                 90
_cell_angle_gamma                90
_cell_volume                     12445.5
loop_
_atom_site_label
_atom_site_type_symbol
_atom_site_fract_x
_atom_site_fract_y
_atom_site_fract_z
_atom_site_U_iso_or_equiv
_atom_site_thermal_displace_type
Zn1 Zn 0.81924(2) 0.55172(2) 0.49450(2) 0.0192 Uani
O1 O 0.61238(11) 0.46049(10) 0.93392(14) 0.0292 Uani
O2 O 0.62968(11) 0.53761(10) 0.91571(14) 0.0308 Uani
O3 O 0.75236(11) 0.54227(10) 0.55814(14) 0.0305 Uani
O4 O 0.76930(11) 0.46674(10) 0.59262(14) 0.0314 Uani
N1 N 0.81938(11) 0.62332(13) 0.49047(16) 0.0239 Uani
C1 C 0.60231(15) 0.50008(13) 0.90518(17) 0.0179 Uani
C2 C 0.55125(15) 0.50245(12) 0.85876(19) 0.0187 Uani
C3 C 0.5000 0.49773(19) 0.8922(3) 0.0253 Uani
H1 H 0.5000 0.4908 0.9414 0.0310 Uiso
C4 C 0.61214(16) 0.54941(16) 0.6885(2) 0.0329 Uani
H2 H 0.5871 0.5746 0.6841 0.0390 Uiso
C5 C 0.74309(15) 0.50480(13) 0.59617(19) 0.0222 Uani
C6 C 0.82009(16) 0.72340(15) 0.4877(2) 0.0313 Uani
C7 C 0.69542(16) 0.50787(15) 0.6481(2) 0.0284 Uani
C8 C 0.68716(16) 0.47506(19) 0.7011(2) 0.0367 Uani
H3 H 0.7124 0.4502 0.7064 0.0440 Uiso
C9 C 0.65784(16) 0.54728(16) 0.6433(2) 0.0343 Uani
H4 H 0.6642 0.5714 0.6098 0.0410 Uiso
C10 C 0.60281(17) 0.51393(16) 0.7413(2) 0.0319 Uani
C11 C 0.55120(16) 0.51282(17) 0.7850(2) 0.0350 Uani
C12 C 0.64187(16) 0.47798(17) 0.7473(2) 0.0339 Uani
H5 H 0.6376 0.4551 0.7834 0.0410 Uiso
C13 C 0.5000 0.5185(2) 0.7499(3) 0.0330 Uani
H6 H 0.5000 0.5264 0.7010 0.0400 Uiso
C14 C 0.77615(18) 0.64955(18) 0.5118(3) 0.0480 Uani
H7 H 0.7444 0.6335 0.5271 0.0580 Uiso
C15 C 0.8641(2) 0.69648(18) 0.4624(4) 0.0690 Uani
H8 H 0.8953 0.7116 0.4435 0.0830 Uiso
C16 C 0.7749(2) 0.69734(18) 0.5128(3) 0.0580 Uani
H9 H 0.7436 0.7131 0.5305 0.0700 Uiso
C17 C 0.8624(2) 0.65008(19) 0.4645(4) 0.0687 Uani
H10 H 0.8933 0.6338 0.4469 0.0820 Uiso
O1K O 0.38762(11) 0.46049(10) 0.93392(14) 0.0292 Uani
O2K O 0.37032(11) 0.53761(10) 0.91571(14) 0.0308 Uani
O3K O 0.24764(11) 0.54227(10) 0.55814(14) 0.0305 Uani
O4K O 0.23070(11) 0.46674(10) 0.59262(14) 0.0314 Uani
C1K C 0.39769(15) 0.50008(13) 0.90518(17) 0.0179 Uani
C2K C 0.44875(15) 0.50245(12) 0.85876(19) 0.0187 Uani
C4K C 0.38786(16) 0.54941(16) 0.6885(2) 0.0329 Uani
H2K H 0.4129 0.5746 0.6841 0.0390 Uiso
C5K C 0.25691(15) 0.50480(13) 0.59617(19) 0.0222 Uani
C7K C 0.30458(16) 0.50787(15) 0.6481(2) 0.0284 Uani
C8K C 0.31284(16) 0.47506(19) 0.7011(2) 0.0367 Uani
H3K H 0.2876 0.4502 0.7064 0.0440 Uiso
C9K C 0.34216(16) 0.54728(16) 0.6433(2) 0.0343 Uani
H4K H 0.3358 0.5714 0.6098 0.0410 Uiso
C10K C 0.39719(17) 0.51393(16) 0.7413(2) 0.0319 Uani
C11K C 0.44880(16) 0.51282(17) 0.7850(2) 0.0350 Uani
C12K C 0.35813(16) 0.47798(17) 0.7473(2) 0.0339 Uani
H5K H 0.3624 0.4551 0.7834 0.0410 Uiso
N1J N 0.81938(11) 0.87668(13) 0.49047(16) 0.0239 Uani
C6J C 0.82009(16) 0.77660(15) 0.4877(2) 0.0313 Uani
C14J C 0.77615(18) 0.85045(18) 0.5118(3) 0.0480 Uani
H7J H 0.7444 0.8665 0.5271 0.0580 Uiso
C15J C 0.8641(2) 0.80352(18) 0.4624(4) 0.0690 Uani
H8J H 0.8953 0.7884 0.4435 0.0830 Uiso
C16J C 0.7749(2) 0.80266(18) 0.5128(3) 0.0580 Uani
H9J H 0.7436 0.7869 0.5305 0.0700 Uiso
C17J C 0.8624(2) 0.84992(19) 0.4645(4) 0.0687 Uani
H10J H 0.8933 0.8662 0.4469 0.0820 Uiso
Zn1C Zn 0.81924(2) 0.44828(2) 0.50550(2) 0.0192 Uani
Zn1E Zn 0.68076(2) 0.44828(2) 0.99450(2) 0.0192 Uani
Zn1F Zn 0.68076(2) 0.55172(2) 1.00550(2) 0.0192 Uani
Zn1H Zn 0.18076(2) 0.44828(2) 0.50550(2) 0.0192 Uani
Zn1J Zn 0.81924(2) 0.94828(2) 0.49450(2) 0.0192 Uani
Zn1K Zn 0.18076(2) 0.55172(2) 0.49450(2) 0.0192 Uani
Zn1M Zn 0.31924(2) 0.55172(2) 1.00550(2) 0.0192 Uani
Zn1N Zn 0.31924(2) 0.44828(2) 0.99450(2) 0.0192 Uani
O1E O 0.88762(11) 0.53951(10) 0.43392(14) 0.0292 Uani
O1F O 0.88762(11) 0.46049(10) 0.56608(14) 0.0292 Uani
O2E O 0.87032(11) 0.46239(10) 0.41571(14) 0.0308 Uani
O2F O 0.87032(11) 0.53761(10) 0.58429(14) 0.0308 Uani
O3C O 0.75236(11) 0.45773(10) 0.44186(14) 0.0305 Uani
O4C O 0.76930(11) 0.53326(10) 0.40738(14) 0.0314 Uani
N1C N 0.81938(11) 0.37668(13) 0.50953(16) 0.0239 Uani
loop_
_atom_site_aniso_label
_atom_site_aniso_U_11
_atom_site_aniso_U_22
_atom_site_aniso_U_33
_atom_site_aniso_U_23
_atom_site_aniso_U_13
_atom_site_aniso_U_12
Zn1 0.0084(3) 0.0286(3) 0.0207(3) -0.00117(17) 0.00124(15) -0.00032(17)
O1 0.0178(14) 0.0424(17) 0.0274(14) -0.0033(12) -0.0101(11) 0.0034(12)
O2 0.0222(15) 0.0440(17) 0.0263(14) 0.0024(12) -0.0100(11) -0.0056(13)
O3 0.0191(14) 0.0478(17) 0.0246(14) -0.0053(12) 0.0077(11) -0.0019(13)
O4 0.0201(14) 0.0454(18) 0.0288(15) 0.0072(12) 0.0093(11) 0.0095(14)
N1 0.0107(16) 0.032(2) 0.0290(17) 0.0038(13) 0.0028(12) 0.0021(13)
C1 0.0126(18) 0.028(2) 0.0132(17) 0.0022(14) 0.0033(14) -0.0009(17)
C2 0.0109(18) 0.025(2) 0.0203(18) 0.0023(14) -0.0021(14) 0.0013(15)
C3 0.009(3) 0.052(4) 0.015(3) 0.005(2) 0.000 0.000
C4 0.022(2) 0.056(3) 0.0206(19) 0.0080(17) 0.0040(16) 0.010(2)
C5 0.0137(19) 0.038(2) 0.0148(18) 0.0017(15) -0.0047(14) -0.0009(17)
C6 0.019(2) 0.025(2) 0.050(2) 0.0000(18) 0.0048(18) -0.0008(17)
C7 0.0126(19) 0.056(3) 0.0166(19) 0.0027(17) -0.0021(15) -0.0042(18)
C8 0.017(2) 0.071(3) 0.022(2) 0.005(2) 0.0001(16) 0.010(2)
C9 0.021(2) 0.056(3) 0.026(2) 0.0074(18) 0.0054(17) 0.004(2)
C10 0.019(2) 0.062(3) 0.0147(18) -0.0013(18) 0.0012(15) 0.002(2)
C11 0.013(2) 0.074(3) 0.018(2) 0.0027(19) 0.0016(15) 0.007(2)
C12 0.0137(19) 0.068(3) 0.020(2) 0.009(2) 0.0026(15) 0.002(2)
C13 0.016(3) 0.063(4) 0.020(3) 0.008(3) 0.000 0.000
C14 0.017(2) 0.042(3) 0.085(4) 0.008(2) 0.023(2) 0.001(2)
C15 0.034(3) 0.043(3) 0.130(6) 0.000(3) 0.038(4) -0.005(2)
C16 0.025(3) 0.044(3) 0.105(5) 0.000(3) 0.029(3) 0.001(2)
C17 0.033(3) 0.052(4) 0.121(5) 0.000(3) 0.039(3) 0.007(3)
O1K 0.0178 0.0424 0.0274 -0.0033 0.0101 -0.0034
O2K 0.0222 0.044 0.0263 0.0024 0.01 0.0056
O3K 0.0191 0.0478 0.0246 -0.0053 -0.0077 0.0019
O4K 0.0201 0.0454 0.0288 0.0072 -0.0093 -0.0095
C1K 0.0126 0.028 0.0132 0.0022 -0.0033 0.0009
C2K 0.0109 0.025 0.0203 0.0023 0.0021 -0.0013
C4K 0.022 0.056 0.0206 0.008 -0.004 -0.01
C5K 0.0137 0.038 0.0148 0.0017 0.0047 0.0009
C7K 0.0126 0.056 0.0166 0.0027 0.0021 0.0042
C8K 0.017 0.071 0.022 0.005 -0.0001 -0.01
C9K 0.021 0.056 0.026 0.0074 -0.0054 -0.004
C10K 0.019 0.062 0.0147 -0.0013 -0.0012 -0.002
C11K 0.013 0.074 0.018 0.0027 -0.0016 -0.007
C12K 0.0137 0.068 0.02 0.009 -0.0026 -0.002
N1J 0.0107 0.032 0.029 -0.0038 0.0028 -0.0021
C6J 0.019 0.025 0.05 0 0.0048 0.0008
C14J 0.017 0.042 0.085 -0.008 0.023 -0.001
C15J 0.034 0.043 0.13 0 0.038 0.005
C16J 0.025 0.044 0.105 0 0.029 -0.001
C17J 0.033 0.052 0.121 0 0.039 -0.007
Zn1C 0.0084 0.0286 0.0207 -0.00117 -0.00124 0.00032
Zn1E 0.0084 0.0286 0.0207 0.00117 -0.00124 -0.00032
Zn1F 0.0084 0.0286 0.0207 0.00117 0.00124 0.00032
Zn1H 0.0084 0.0286 0.0207 -0.00117 0.00124 -0.00032
Zn1J 0.0084 0.0286 0.0207 0.00117 0.00124 0.00032
Zn1K 0.0084 0.0286 0.0207 -0.00117 -0.00124 0.00032
Zn1M 0.0084 0.0286 0.0207 0.00117 -0.00124 -0.00032
Zn1N 0.0084 0.0286 0.0207 0.00117 0.00124 0.00032
O1E 0.0178 0.0424 0.0274 0.0033 0.0101 0.0034
O1F 0.0178 0.0424 0.0274 0.0033 -0.0101 -0.0034
O2E 0.0222 0.044 0.0263 -0.0024 0.01 -0.0056
O2F 0.0222 0.044 0.0263 -0.0024 -0.01 0.0056
O3C 0.0191 0.0478 0.0246 -0.0053 -0.0077 0.0019
O4C 0.0201 0.0454 0.0288 0.0072 -0.0093 -0.0095
N1C 0.0107 0.032 0.029 0.0038 -0.0028 -0.0021
loop_
_geom_bond_atom_site_label_1
_geom_bond_atom_site_label_2
_geom_bond_site_symmetry_1
_geom_bond_site_symmetry_2
Zn1 O3 1_555 1_555
O1 C1 1_555 1_555
O2 C1 1_555 1_555
O3 C5 1_555 1_555
O4 C5 1_555 1_555
N1 Zn1 1_555 1_555
C1 C2 1_555 1_555
C2 C3 1_555 1_555
C3 H1 1_555 1_555
C4 H2 1_555 1_555
C5 C7 1_555 1_555
C6 C15 1_555 1_555
C7 C8 1_555 1_555
C8 H3 1_555 1_555
C9 C4 1_555 1_555
H4 C9 1_555 1_555
C10 C4 1_555 1_555
C11 C2 1_555 1_555
C12 C8 1_555 1_555
H5 C12 1_555 1_555
C13 C11 1_555 1_555
H6 C13 1_555 1_555
C14 N1 1_555 1_555
H7 C14 1_555 1_555
C15 H8 1_555 1_555
C16 C6 1_555 1_555
H9 C16 1_555 1_555
C17 N1 1_555 1_555
H10 C17 1_555 1_555
O1K C1K 1_555 1_555
O2K C1K 1_555 1_555
O3K C5K 1_555 1_555
O4K C5K 1_555 1_555
C1K C2K 1_555 1_555
C2K C3 1_555 1_555
C4K H2K 1_555 1_555
C5K C7K 1_555 1_555
C7K C8K 1_555 1_555
C8K H3K 1_555 1_555
C9K C4K 1_555 1_555
H4K C9K 1_555 1_555
C10K C4K 1_555 1_555
C11K C13 1_555 1_555
C12K C8K 1_555 1_555
H5K C12K 1_555 1_555
N1J C14J 1_555 1_555
C6J C6 1_555 1_555
C14J H7J 1_555 1_555
C15J C6J 1_555 1_555
H8J C15J 1_555 1_555
C16J C6J 1_555 1_555
H9J C16J 1_555 1_555
C17J N1J 1_555 1_555
H10J C17J 1_555 1_555
Zn1C O4 1_555 1_555
Zn1E O1 1_555 1_555
Zn1F O2 1_555 1_555
Zn1H O4K 1_555 1_555
Zn1J N1J 1_555 1_555
Zn1K O3K 1_555 1_555
Zn1M O2K 1_555 1_555
Zn1N O1K 1_555 1_555
O1E Zn1 1_555 1_555
O1F Zn1C 1_555 1_555
O2E Zn1C 1_555 1_555
O2F Zn1 1_555 1_555
O3C Zn1C 1_555 1_555
O4C Zn1 1_555 1_555
N1C Zn1C 1_555 1_555
C7 C9 1_555 1_555
C10 C11 1_555 1_555
C10 C12 1_555 1_555
C14 C16 1_555 1_555
C15 C17 1_555 1_555
C2K C11K 1_555 1_555
C7K C9K 1_555 1_555
C10K C11K 1_555 1_555
C10K C12K 1_555 1_555
C14J C16J 1_555 1_555
C15J C17J 1_555 1_555

#END
