
#######################################################################
#
#                 Cambridge Crystallographic Data Centre
#                                CCDC 
#
#######################################################################
#
# If this CIF has been generated from an entry in the Cambridge 
# Structural Database, then it will include bibliographic, chemical, 
# crystal, experimental, refinement or atomic coordinate data resulting 
# from the CCDC's data processing and validation procedures.
#
#######################################################################

data_KUWCEM
_chemical_formula_moiety         '(C32 H18 Cu2 N2 O8)n'
_symmetry_cell_setting           orthorhombic
_symmetry_space_group_name_H-M   'I m m a'
_symmetry_Int_Tables_number      74
_space_group_name_Hall           '-I 2b 2'
loop_
_symmetry_equiv_pos_site_id
_symmetry_equiv_pos_as_xyz
1 x,y,z
2 -x,1/2-y,z
3 -x,1/2+y,-z
4 x,-y,-z
5 1/2+x,1/2+y,1/2+z
6 1/2-x,-y,1/2+z
7 1/2-x,y,1/2-z
8 1/2+x,1/2-y,1/2-z
9 -x,-y,-z
10 x,1/2+y,-z
11 x,1/2-y,z
12 -x,y,z
13 1/2-x,1/2-y,1/2-z
14 1/2+x,y,1/2-z
15 1/2+x,-y,1/2+z
16 1/2-x,1/2+y,1/2+z
_cell_length_a                   24.133(2)
_cell_length_b                   27.911(3)
_cell_length_c                   17.9404(18)
_cell_angle_alpha                90
_cell_angle_beta                 90
_cell_angle_gamma                90
_cell_volume                     12084.2
loop_
_atom_site_label
_atom_site_type_symbol
_atom_site_fract_x
_atom_site_fract_y
_atom_site_fract_z
_atom_site_U_iso_or_equiv
_atom_site_thermal_displace_type
Cu1 Cu 0.82234(2) 0.45255(2) 0.50263(3) 0.0198 Uani
O1 O 0.76057(16) 0.45708(14) 0.4335(2) 0.0493 Uani
O2 O 0.61514(15) 0.54010(15) 0.0716(2) 0.0483 Uani
O3 O 0.62402(15) 0.46078(15) 0.0794(2) 0.0523 Uani
C1 C 0.55031(18) 0.49892(18) 0.1433(3) 0.0247 Uani
O4 O 0.76911(17) 0.53517(15) 0.4148(2) 0.0563 Uani
C2 C 0.60216(18) 0.5003(2) 0.0957(3) 0.0263 Uani
N1 N 0.82302(15) 0.37604(19) 0.5054(2) 0.0367 Uani
C3 C 0.5000 0.5025(3) 0.1064(4) 0.0483 Uani
H1 H 0.5000 0.5074 0.0552 0.0580 Uiso
C4 C 0.74717(19) 0.4957(2) 0.4039(2) 0.0243 Uani
C5 C 0.8242(2) 0.2768(2) 0.5101(3) 0.0377 Uani
C6 C 0.6978(2) 0.4950(2) 0.3524(3) 0.0343 Uani
C7 C 0.5505(2) 0.4937(2) 0.2204(3) 0.0423 Uani
C8 C 0.6027(2) 0.4932(3) 0.2636(3) 0.0537 Uani
C9 C 0.5000 0.4893(4) 0.2555(5) 0.0793 Uani
H2 H 0.5000 0.4828 0.3064 0.0950 Uiso
C10 C 0.6856(2) 0.5279(3) 0.3032(4) 0.0627 Uani
H3 H 0.7090 0.5542 0.2991 0.0750 Uiso
C11 C 0.6140(3) 0.4514(3) 0.3146(4) 0.0760 Uani
H4 H 0.5904 0.4252 0.3185 0.0910 Uiso
C12 C 0.6630(3) 0.4555(3) 0.3554(5) 0.1040 Uani
H5 H 0.6729 0.4302 0.3865 0.1250 Uiso
C13 C 0.8639(4) 0.3512(3) 0.5231(7) 0.1410 Uani
H6 H 0.8965 0.3676 0.5335 0.1690 Uiso
C14 C 0.8660(4) 0.3029(3) 0.5287(6) 0.1280 Uani
H7 H 0.8981 0.2883 0.5463 0.1530 Uiso
C15 C 0.6400(3) 0.5257(4) 0.2571(4) 0.0937 Uani
H8 H 0.6362 0.5487 0.2199 0.1130 Uiso
C16 C 0.7817(4) 0.3516(3) 0.4850(7) 0.1850 Uani
H9 H 0.7509 0.3684 0.4679 0.2200 Uiso
C17 C 0.7781(4) 0.3015(3) 0.4857(7) 0.2063 Uani
H10 H 0.7461 0.2856 0.4705 0.2460 Uiso
O1K O 0.23943(16) 0.45708(14) 0.4335(2) 0.0493 Uani
O2K O 0.38486(15) 0.54010(15) 0.0716(2) 0.0483 Uani
O3K O 0.37598(15) 0.46078(15) 0.0794(2) 0.0523 Uani
C1K C 0.44969(18) 0.49892(18) 0.1433(3) 0.0247 Uani
O4K O 0.23089(17) 0.53517(15) 0.4148(2) 0.0563 Uani
C2K C 0.39784(18) 0.5003(2) 0.0957(3) 0.0263 Uani
C4K C 0.25283(19) 0.4957(2) 0.4039(2) 0.0243 Uani
C6K C 0.3022(2) 0.4950(2) 0.3524(3) 0.0343 Uani
C7K C 0.4495(2) 0.4937(2) 0.2204(3) 0.0423 Uani
C8K C 0.3973(2) 0.4932(3) 0.2636(3) 0.0537 Uani
C10K C 0.3144(2) 0.5279(3) 0.3032(4) 0.0627 Uani
H3K H 0.2910 0.5542 0.2991 0.0750 Uiso
C11K C 0.3860(3) 0.4514(3) 0.3146(4) 0.0760 Uani
H4K H 0.4096 0.4252 0.3185 0.0910 Uiso
C12K C 0.3370(3) 0.4555(3) 0.3554(5) 0.1040 Uani
H5K H 0.3271 0.4302 0.3865 0.1250 Uiso
C15K C 0.3600(3) 0.5257(4) 0.2571(4) 0.0937 Uani
H8K H 0.3638 0.5487 0.2199 0.1130 Uiso
N1J N 0.82302(15) 0.12396(19) 0.5054(2) 0.0367 Uani
C5J C 0.8242(2) 0.2232(2) 0.5101(3) 0.0377 Uani
C13J C 0.8639(4) 0.1488(3) 0.5231(7) 0.1410 Uani
H6J H 0.8965 0.1324 0.5335 0.1690 Uiso
C14J C 0.8660(4) 0.1971(3) 0.5287(6) 0.1280 Uani
H7J H 0.8981 0.2117 0.5463 0.1530 Uiso
C16J C 0.7817(4) 0.1484(3) 0.4850(7) 0.1850 Uani
H9J H 0.7509 0.1316 0.4679 0.2200 Uiso
C17J C 0.7781(4) 0.1985(3) 0.4857(7) 0.2063 Uani
H10J H 0.7461 0.2144 0.4705 0.2460 Uiso
Cu1C Cu 0.82234(2) 0.54745(2) 0.49737(3) 0.0198 Uani
Cu1E Cu 0.67766(2) 0.54745(2) 0.00263(3) 0.0198 Uani
Cu1F Cu 0.67766(2) 0.45255(2) -0.00263(3) 0.0198 Uani
Cu1H Cu 0.17766(2) 0.54745(2) 0.49737(3) 0.0198 Uani
Cu1J Cu 0.82234(2) 0.04745(2) 0.50263(3) 0.0198 Uani
Cu1K Cu 0.17766(2) 0.45255(2) 0.50263(3) 0.0198 Uani
Cu1M Cu 0.32234(2) 0.45255(2) -0.00263(3) 0.0198 Uani
Cu1N Cu 0.32234(2) 0.54745(2) 0.00263(3) 0.0198 Uani
O1C O 0.76057(16) 0.54292(14) 0.5665(2) 0.0493 Uani
O2E O 0.88486(15) 0.45990(15) 0.5716(2) 0.0483 Uani
O2F O 0.88486(15) 0.54010(15) 0.4284(2) 0.0483 Uani
O3E O 0.87598(15) 0.53922(15) 0.5794(2) 0.0523 Uani
O3F O 0.87598(15) 0.46078(15) 0.4206(2) 0.0523 Uani
O4C O 0.76911(17) 0.46483(15) 0.5852(2) 0.0563 Uani
N1C N 0.82302(15) 0.62396(19) 0.4946(2) 0.0367 Uani
loop_
_atom_site_aniso_label
_atom_site_aniso_U_11
_atom_site_aniso_U_22
_atom_site_aniso_U_33
_atom_site_aniso_U_23
_atom_site_aniso_U_13
_atom_site_aniso_U_12
Cu1 0.0077(4) 0.0315(4) 0.0203(4) -0.0030(3) -0.0019(2) 0.0005(2)
O1 0.050 0.051(3) 0.047(3) -0.013(2) -0.0430(19) 0.019(2)
O2 0.032(2) 0.049(3) 0.064(3) -0.032(2) 0.040(2) -0.032(2)
O3 0.031(2) 0.062(3) 0.064(3) 0.026(2) 0.036(2) 0.019(2)
C1 0.008(2) 0.047(3) 0.019(3) -0.005(3) -0.0012(19) -0.005(2)
O4 0.049(3) 0.058(3) 0.062(3) 0.041(2) -0.043(2) -0.021(2)
C2 0.014(3) 0.051(4) 0.014(3) -0.016(3) -0.006(2) -0.006(3)
N1 0.007(2) 0.034(2) 0.069(4) 0.021(2) -0.013(2) 0.0015(18)
C3 0.015(4) 0.114(9) 0.016(4) 0.022(5) 0.000 0.000
C4 0.015(2) 0.049(4) 0.009(2) 0.002(3) -0.0003(19) -0.006(3)
C5 0.028(3) 0.026(3) 0.059(4) 0.010(3) -0.013(3) -0.002(2)
C6 0.009(2) 0.076(5) 0.018(3) 0.018(3) -0.001(2) -0.008(3)
C7 0.017(3) 0.088(5) 0.022(3) 0.009(3) 0.001(2) 0.006(3)
C8 0.010(3) 0.143(7) 0.008(3) 0.000(3) -0.004(2) -0.015(4)
C9 0.009(4) 0.213(13) 0.016(4) 0.045(6) 0.000 0.000
C10 0.029(4) 0.102(6) 0.057(5) 0.015(5) -0.011(3) -0.020(4)
C11 0.047(4) 0.139(8) 0.042(4) 0.015(5) -0.026(3) -0.012(4)
C12 0.077(6) 0.088(7) 0.147(9) -0.033(6) -0.094(6) 0.029(5)
C13 0.070(6) 0.038(5) 0.315(15) -0.026(7) -0.068(8) -0.013(5)
C14 0.055(5) 0.032(4) 0.297(13) 0.036(6) -0.075(7) 0.001(4)
C15 0.044(5) 0.213(9) 0.024(4) 0.023(5) -0.007(3) -0.022(6)
C16 0.062(6) 0.033(5) 0.46(2) 0.017(8) -0.103(9) -0.002(4)
C17 0.057(6) 0.032(5) 0.53(3) -0.010(9) -0.041(10) 0.008(4)
O1K 0.05 0.051 0.047 -0.013 0.043 -0.019
O2K 0.032 0.049 0.064 -0.032 -0.04 0.032
O3K 0.031 0.062 0.064 0.026 -0.036 -0.019
C1K 0.008 0.047 0.019 -0.005 0.0012 0.005
O4K 0.049 0.058 0.062 0.041 0.043 0.021
C2K 0.014 0.051 0.014 -0.016 0.006 0.006
C4K 0.015 0.049 0.009 0.002 0.0003 0.006
C6K 0.009 0.076 0.018 0.018 0.001 0.008
C7K 0.017 0.088 0.022 0.009 -0.001 -0.006
C8K 0.01 0.143 0.008 0 0.004 0.015
C10K 0.029 0.102 0.057 0.015 0.011 0.02
C11K 0.047 0.139 0.042 0.015 0.026 0.012
C12K 0.077 0.088 0.147 -0.033 0.094 -0.029
C15K 0.044 0.213 0.024 0.023 0.007 0.022
N1J 0.007 0.034 0.069 -0.021 -0.013 -0.0015
C5J 0.028 0.026 0.059 -0.01 -0.013 0.002
C13J 0.07 0.038 0.315 0.026 -0.068 0.013
C14J 0.055 0.032 0.297 -0.036 -0.075 -0.001
C16J 0.062 0.033 0.46 -0.017 -0.103 0.002
C17J 0.057 0.032 0.53 0.01 -0.041 -0.008
Cu1C 0.0077 0.0315 0.0203 -0.003 0.0019 -0.0005
Cu1E 0.0077 0.0315 0.0203 0.003 0.0019 0.0005
Cu1F 0.0077 0.0315 0.0203 0.003 -0.0019 -0.0005
Cu1H 0.0077 0.0315 0.0203 -0.003 -0.0019 0.0005
Cu1J 0.0077 0.0315 0.0203 0.003 -0.0019 -0.0005
Cu1K 0.0077 0.0315 0.0203 -0.003 0.0019 -0.0005
Cu1M 0.0077 0.0315 0.0203 0.003 0.0019 0.0005
Cu1N 0.0077 0.0315 0.0203 0.003 -0.0019 -0.0005
O1C 0.05 0.051 0.047 -0.013 0.043 -0.019
O2E 0.032 0.049 0.064 0.032 -0.04 -0.032
O2F 0.032 0.049 0.064 0.032 0.04 0.032
O3E 0.031 0.062 0.064 -0.026 -0.036 0.019
O3F 0.031 0.062 0.064 -0.026 0.036 -0.019
O4C 0.049 0.058 0.062 0.041 0.043 0.021
N1C 0.007 0.034 0.069 0.021 0.013 -0.0015
loop_
_geom_bond_atom_site_label_1
_geom_bond_atom_site_label_2
_geom_bond_site_symmetry_1
_geom_bond_site_symmetry_2
Cu1 O1 1_555 1_555
O1 C4 1_555 1_555
O2 C2 1_555 1_555
O3 C2 1_555 1_555
C1 C2 1_555 1_555
O4 C4 1_555 1_555
N1 Cu1 1_555 1_555
C3 C1 1_555 1_555
H1 C3 1_555 1_555
C4 C6 1_555 1_555
C5 C14 1_555 1_555
C6 C10 1_555 1_555
C7 C1 1_555 1_555
C8 C7 1_555 1_555
C9 C7 1_555 1_555
H2 C9 1_555 1_555
C10 H3 1_555 1_555
C11 C8 1_555 1_555
H4 C11 1_555 1_555
C12 C6 1_555 1_555
H5 C12 1_555 1_555
C13 N1 1_555 1_555
H6 C13 1_555 1_555
C14 C13 1_555 1_555
H7 C14 1_555 1_555
C15 C8 1_555 1_555
H8 C15 1_555 1_555
C16 N1 1_555 1_555
H9 C16 1_555 1_555
C17 C5 1_555 1_555
H10 C17 1_555 1_555
O1K C4K 1_555 1_555
O2K C2K 1_555 1_555
O3K C2K 1_555 1_555
C1K C3 1_555 1_555
O4K C4K 1_555 1_555
C2K C1K 1_555 1_555
C4K C6K 1_555 1_555
C6K C10K 1_555 1_555
C7K C9 1_555 1_555
C8K C7K 1_555 1_555
C10K H3K 1_555 1_555
C11K C8K 1_555 1_555
H4K C11K 1_555 1_555
C12K C6K 1_555 1_555
H5K C12K 1_555 1_555
C15K C8K 1_555 1_555
H8K C15K 1_555 1_555
N1J C13J 1_555 1_555
C5J C5 1_555 1_555
C13J H6J 1_555 1_555
C14J C5J 1_555 1_555
H7J C14J 1_555 1_555
C16J N1J 1_555 1_555
H9J C16J 1_555 1_555
C17J C5J 1_555 1_555
H10J C17J 1_555 1_555
Cu1C O4 1_555 1_555
Cu1E O2 1_555 1_555
Cu1F O3 1_555 1_555
Cu1H O4K 1_555 1_555
Cu1J N1J 1_555 1_555
Cu1K O1K 1_555 1_555
Cu1M O3K 1_555 1_555
Cu1N O2K 1_555 1_555
O1C Cu1C 1_555 1_555
O2E Cu1 1_555 1_555
O2F Cu1C 1_555 1_555
O3E Cu1C 1_555 1_555
O3F Cu1 1_555 1_555
O4C Cu1 1_555 1_555
N1C Cu1C 1_555 1_555
C10 C15 1_555 1_555
C11 C12 1_555 1_555
C16 C17 1_555 1_555
C1K C7K 1_555 1_555
C10K C15K 1_555 1_555
C11K C12K 1_555 1_555
C13J C14J 1_555 1_555
C16J C17J 1_555 1_555

#END
