
#######################################################################
#
#                 Cambridge Crystallographic Data Centre
#                                CCDC 
#
#######################################################################
#
# If this CIF has been generated from an entry in the Cambridge 
# Structural Database, then it will include bibliographic, chemical, 
# crystal, experimental, refinement or atomic coordinate data resulting 
# from the CCDC's data processing and validation procedures.
#
#######################################################################

data_KUWCEM01
_chemical_formula_moiety         'C40 H26 Cu9 N3 O14'
_symmetry_cell_setting           orthorhombic
_symmetry_space_group_name_H-M   'C m m m'
_symmetry_Int_Tables_number      65
_space_group_name_Hall           '-C 2 2'
loop_
_symmetry_equiv_pos_site_id
_symmetry_equiv_pos_as_xyz
1 x,y,z
2 -x,-y,z
3 x,-y,-z
4 -x,y,-z
5 1/2+x,1/2+y,z
6 1/2-x,1/2-y,z
7 1/2+x,1/2-y,-z
8 1/2-x,1/2+y,-z
9 -x,-y,-z
10 x,y,-z
11 -x,y,z
12 x,-y,z
13 1/2-x,1/2-y,-z
14 1/2+x,1/2+y,-z
15 1/2-x,1/2+y,z
16 1/2+x,1/2-y,z
_cell_length_a                   18.096(5)
_cell_length_b                   23.962(5)
_cell_length_c                   13.932(5)
_cell_angle_alpha                90
_cell_angle_beta                 90
_cell_angle_gamma                90
_cell_volume                     6041.14
loop_
_atom_site_label
_atom_site_type_symbol
_atom_site_fract_x
_atom_site_fract_y
_atom_site_fract_z
Cu1 Cu 0.0000 0.17867(2) 0.40519(4)
C1 C 0.3581(2) 0.44971(17) 0.5000
C2 C 0.4044(2) 0.39793(17) 0.5000
C3 C 0.0964(2) 0.25416(19) 0.5000
O1 O 0.42435(17) 0.37960(12) 0.42144(19)
C4 C 0.0000 0.2244(4) 0.1034(6)
H1 H 0.0000 0.2594 0.0716
C5 C 0.3935(4) 0.5000 0.5000
H2 H 0.4460 0.5000 0.5000
O2 O 0.0752(2) 0.23616(13) 0.4226(2)
N1 N 0.0000 0.17736(15) 0.2538(3)
C6 C 0.2817(3) 0.4491(2) 0.5000
C7 C -0.0000 0.1328(4) 0.1036(5)
H3 H 0.0000 0.0974 0.0729
C8 C 0.2460(5) 0.5000 0.5000
H4 H 0.1935 0.5000 0.5000
C9 C 0.0000 0.2219(3) 0.2041(5)
H5 H 0.0000 0.2564 0.2379
C10 C 0.0000 0.1763(2) 0.0518(4)
C11 C 0.0000 0.1346(4) 0.2038(6)
H6 H 0.0000 0.0998 0.2367
C12 C 0.1480(3) 0.3027(2) 0.5000
C13 C 0.2394(3) 0.3962(2) 0.5000
C14 C 0.1991(4) 0.3119(3) 0.4439(5)
C15 C 0.1441(4) 0.3406(3) 0.4067(5)
H7 H 0.1118 0.3316 0.3552
C16 C 0.1882(4) 0.3861(3) 0.4027(5)
H8 H 0.1897 0.4103 0.3488
C17 C 0.2454(4) 0.3581(3) 0.4509(6)
H9 H 0.280(3) 0.364(3) 0.401(3)
H10 H 0.208(3) 0.2822(17) 0.398(3)
C1B C 0.3581(2) 0.55029(17) 0.5000
C2B C 0.4044(2) 0.60207(17) 0.5000
C3B C 0.0964(2) 0.74584(19) 0.5000
O1B O 0.42435(17) 0.62040(12) 0.57856(19)
O2B O 0.0752(2) 0.76384(13) 0.5774(2)
C6B C 0.2817(3) 0.5509(2) 0.5000
C12B C 0.1480(3) 0.6973(2) 0.5000
C13B C 0.2394(3) 0.6038(2) 0.5000
C14B C 0.1991(4) 0.6881(3) 0.5561(5)
C15B C 0.1441(4) 0.6594(3) 0.5933(5)
H7B H 0.1118 0.6684 0.6448
C16B C 0.1882(4) 0.6139(3) 0.5973(5)
H8B H 0.1897 0.5897 0.6512
C17B C 0.2454(4) 0.6419(3) 0.5491(6)
H9B H 0.280(3) 0.636(3) 0.599(3)
H10B H 0.208(3) 0.7178(17) 0.602(3)
O1I O 0.42435(17) 0.37960(12) 0.57856(19)
O2I O 0.0752(2) 0.23616(13) 0.5774(2)
C14I C 0.1991(4) 0.3119(3) 0.5561(5)
C15I C 0.1441(4) 0.3406(3) 0.5933(5)
H7I H 0.1118 0.3316 0.6448
C16I C 0.1882(4) 0.3861(3) 0.5973(5)
H8I H 0.1897 0.4103 0.6512
C17I C 0.2454(4) 0.3581(3) 0.5491(6)
H9I H 0.280(3) 0.364(3) 0.599(3)
H10I H 0.208(3) 0.2822(17) 0.602(3)
O1K O 0.42435(17) 0.62040(12) 0.42144(19)
O2K O 0.0752(2) 0.76384(13) 0.4226(2)
C14K C 0.1991(4) 0.6881(3) 0.4439(5)
C15K C 0.1441(4) 0.6594(3) 0.4067(5)
H7K H 0.1118 0.6684 0.3552
C16K C 0.1882(4) 0.6139(3) 0.4027(5)
H8K H 0.1897 0.5897 0.3488
C17K C 0.2454(4) 0.6419(3) 0.4509(6)
H9K H 0.280(3) 0.636(3) 0.401(3)
H10K H 0.208(3) 0.7178(17) 0.398(3)
C4C C 0.0000 0.2244(4) -0.1034(6)
H1C H 0.0000 0.2594 -0.0716
N1C N 0.0000 0.17736(15) -0.2538(3)
C7C C 0.0000 0.1328(4) -0.1036(5)
H3C H 0.0000 0.0974 -0.0729
C9C C 0.0000 0.2219(3) -0.2041(5)
H5C H 0.0000 0.2564 -0.2379
C10C C 0.0000 0.1763(2) -0.0518(4)
C11C C 0.0000 0.1346(4) -0.2038(6)
H6C H 0.0000 0.0998 -0.2367
Cu1A Cu 0.0000 0.82133(2) 0.40519(4)
Cu1B Cu 0.0000 0.82133(2) 0.59481(4)
Cu1C Cu 0.0000 0.17867(2) -0.40519(4)
Cu1C_2 Cu 0.0000 0.17867(2) 0.59481(4)
Cu1D Cu 0.5000 0.67867(2) 0.40519(4)
Cu1E Cu 0.5000 0.32133(2) 0.40519(4)
Cu1F Cu 0.5000 0.32133(2) 0.59481(4)
Cu1G Cu 0.5000 0.67867(2) 0.59481(4)
O1D O -0.07565(17) 0.87960(12) 0.42144(19)
O1E O 0.07565(17) 0.12040(12) 0.42144(19)
O1N O 0.07565(17) 0.87960(12) 0.42144(19)
O1O O -0.07565(17) 0.12040(12) 0.42144(19)
O2A O -0.0752(2) 0.76384(13) 0.4226(2)
O2J O -0.0752(2) 0.23616(13) 0.4226(2)
N1A N 0.0000 0.82264(15) 0.2538(3)
loop_
_geom_bond_atom_site_label_1
_geom_bond_atom_site_label_2
_geom_bond_site_symmetry_1
_geom_bond_site_symmetry_2
Cu1 O2 1_555 1_555
C1 C2 1_555 1_555
C2 O1 1_555 1_555
C3 O2 1_555 1_555
O1 Cu1E 1_555 1_555
C4 H1 1_555 1_555
C5 C1 1_555 1_555
H2 C5 1_555 1_555
N1 Cu1 1_555 1_555
C6 C1 1_555 1_555
C7 H3 1_555 1_555
C8 C6 1_555 1_555
H4 C8 1_555 1_555
C9 C4 1_555 1_555
H5 C9 1_555 1_555
C10 C4 1_555 1_555
C11 N1 1_555 1_555
H6 C11 1_555 1_555
C12 C3 1_555 1_555
C13 C6 1_555 1_555
C14 C12 1_555 1_555
C15 C12 1_555 1_555
H7 C15 1_555 1_555
C16 C13 1_555 1_555
H8 C16 1_555 1_555
C17 C13 1_555 1_555
H9 C17 1_555 1_555
H10 C14 1_555 1_555
C1B C5 1_555 1_555
C2B C1B 1_555 1_555
C3B O2B 1_555 1_555
O1B C2B 1_555 1_555
O2B Cu1B 1_555 1_555
C6B C8 1_555 1_555
C12B C3B 1_555 1_555
C13B C6B 1_555 1_555
C14B C12B 1_555 1_555
C15B C12B 1_555 1_555
H7B C15B 1_555 1_555
C16B C13B 1_555 1_555
H8B C16B 1_555 1_555
C17B C13B 1_555 1_555
H9B C17B 1_555 1_555
H10B C14B 1_555 1_555
O1I C2 1_555 1_555
O2I C3 1_555 1_555
C14I C12 1_555 1_555
C15I C12 1_555 1_555
H7I C15I 1_555 1_555
C16I C13 1_555 1_555
H8I C16I 1_555 1_555
C17I C13 1_555 1_555
H9I C17I 1_555 1_555
H10I C14I 1_555 1_555
O1K C2B 1_555 1_555
O2K C3B 1_555 1_555
C14K C12B 1_555 1_555
C15K C12B 1_555 1_555
H7K C15K 1_555 1_555
C16K C13B 1_555 1_555
H8K C16K 1_555 1_555
C17K C13B 1_555 1_555
H9K C17K 1_555 1_555
H10K C14K 1_555 1_555
C4C H1C 1_555 1_555
N1C C9C 1_555 1_555
C7C H3C 1_555 1_555
C9C C4C 1_555 1_555
H5C C9C 1_555 1_555
C10C C10 1_555 1_555
C11C N1C 1_555 1_555
H6C C11C 1_555 1_555
Cu1A O2K 1_555 1_555
Cu1C N1C 1_555 1_555
Cu1C_2 O2I 1_555 1_555
Cu1D O1K 1_555 1_555
Cu1F O1I 1_555 1_555
Cu1G O1B 1_555 1_555
O1D Cu1A 1_555 1_555
O1E Cu1 1_555 1_555
O1N Cu1A 1_555 1_555
O1O Cu1 1_555 1_555
O2A Cu1A 1_555 1_555
O2J Cu1 1_555 1_555
N1A Cu1A 1_555 1_555
N1 C9 1_555 1_555
C7 C10 1_555 1_555
C7 C11 1_555 1_555
C14 C15 1_555 1_555
C14 C17 1_555 1_555
C14 C14I 1_555 1_555
C15 C16 1_555 1_555
C16 C17 1_555 1_555
C17 C17I 1_555 1_555
C1B C6B 1_555 1_555
C14B C15B 1_555 1_555
C14B C17B 1_555 1_555
C14B C14K 1_555 1_555
C15B C16B 1_555 1_555
C16B C17B 1_555 1_555
C17B C17K 1_555 1_555
C14I C15I 1_555 1_555
C14I C17I 1_555 1_555
C15I C16I 1_555 1_555
C16I C17I 1_555 1_555
C14K C15K 1_555 1_555
C14K C17K 1_555 1_555
C15K C16K 1_555 1_555
C16K C17K 1_555 1_555
C4C C10C 1_555 1_555
C7C C10C 1_555 1_555
C7C C11C 1_555 1_555

#END
