
#######################################################################
#
#                 Cambridge Crystallographic Data Centre
#                                CCDC 
#
#######################################################################
#
# If this CIF has been generated from an entry in the Cambridge 
# Structural Database, then it will include bibliographic, chemical, 
# crystal, experimental, refinement or atomic coordinate data resulting 
# from the CCDC's data processing and validation procedures.
#
#######################################################################

data_WEMFUR
_chemical_formula_moiety         '(C16 H12 Be4 O12)n'
_symmetry_cell_setting           tetragonal
_symmetry_space_group_name_H-M   'I 41/a'
_symmetry_Int_Tables_number      88
_space_group_name_Hall           '-I 4ad'
loop_
_symmetry_equiv_pos_site_id
_symmetry_equiv_pos_as_xyz
1 x,y,z
2 1/2-x,-y,1/2+z
3 3/4-y,1/4+x,1/4+z
4 3/4+y,3/4-x,3/4+z
5 1/2+x,1/2+y,1/2+z
6 -x,1/2-y,z
7 1/4-y,3/4+x,3/4+z
8 1/4+y,1/4-x,1/4+z
9 -x,-y,-z
10 1/2+x,y,1/2-z
11 1/4+y,3/4-x,3/4-z
12 1/4-y,1/4+x,1/4-z
13 1/2-x,1/2-y,1/2-z
14 x,1/2+y,-z
15 3/4+y,1/4-x,1/4-z
16 3/4-y,3/4+x,3/4-z
_cell_length_a                   23.8931(2)
_cell_length_b                   23.8931(2)
_cell_length_c                   15.9482(3)
_cell_angle_alpha                90
_cell_angle_beta                 90
_cell_angle_gamma                90
_cell_volume                     9104.51
loop_
_atom_site_label
_atom_site_type_symbol
_atom_site_fract_x
_atom_site_fract_y
_atom_site_fract_z
_atom_site_U_iso_or_equiv
_atom_site_thermal_displace_type
Be1 Be 0.29976(13) 0.10607(13) 0.55869(19) 0.0227 Uani
Be2 Be 0.27631(13) 0.41813(12) 0.49483(18) 0.0210 Uani
Be3 Be 0.22234(13) 0.05556(12) 0.66415(19) 0.0211 Uani
Be4 Be 0.34596(13) 0.09272(13) 0.39863(18) 0.0233 Uani
O1 O 0.21581(7) 0.12102(7) 0.69545(10) 0.0293 Uani
O2 O 0.26547(7) 0.16034(7) 0.59323(10) 0.0285 Uani
O3 O 0.20258(7) 0.41527(7) 0.64224(10) 0.0286 Uani
O4 O 0.25056(7) 0.36478(7) 0.54893(10) 0.0287 Uani
O5 O 0.36628(7) 0.11024(8) 0.58259(10) 0.0310 Uani
O6 O 0.40301(7) 0.09710(8) 0.45599(10) 0.0316 Uani
O7 O 0.65961(7) 0.07324(8) 0.53415(10) 0.0303 Uani
O8 O 0.60855(7) 0.09879(8) 0.42404(10) 0.0315 Uani
O9 O 0.29237(7) 0.10640(7) 0.45753(10) 0.0283 Uani
H1 H 0.2578 0.1143 0.4336 0.0340 Uiso
O10 O 0.27631(6) 0.05052(6) 0.60469(10) 0.0229 Uani
H2 H 0.2938 0.0162 0.5968 0.0270 Uiso
O11 O 0.23834(7) 0.47062(7) 0.51317(10) 0.0248 Uani
H3 H 0.2422 0.5020 0.4792 0.0300 Uiso
O12 O 0.28381(7) 0.40576(7) 0.39743(9) 0.0267 Uani
H4 H 0.2519 0.3992 0.3656 0.0320 Uiso
C1 C 0.23097(10) 0.16250(10) 0.65334(14) 0.0229 Uani
C2 C 0.22009(10) 0.36955(10) 0.61319(14) 0.0219 Uani
C3 C 0.20601(10) 0.21773(10) 0.67477(14) 0.0249 Uani
C4 C 0.22445(10) 0.26607(10) 0.63519(14) 0.0239 Uani
H5 H 0.2521 0.2639 0.5943 0.0290 Uiso
C5 C 0.20182(10) 0.31746(10) 0.65633(14) 0.0248 Uani
C6 C 0.16051(12) 0.32041(11) 0.71693(17) 0.0393 Uani
H6 H 0.1454 0.3549 0.7316 0.0470 Uiso
C7 C 0.14162(14) 0.27235(12) 0.7557(2) 0.0536 Uani
H7 H 0.1137 0.2745 0.7963 0.0640 Uiso
C8 C 0.16422(13) 0.22103(11) 0.73419(18) 0.0421 Uani
H8 H 0.1512 0.1886 0.7599 0.0510 Uiso
C9 C 0.40729(10) 0.10348(10) 0.53376(14) 0.0229 Uani
C10 C 0.61439(10) 0.08770(10) 0.50060(14) 0.0235 Uani
C11 C 0.46420(10) 0.10202(11) 0.57139(15) 0.0282 Uani
C12 C 0.51107(10) 0.09575(11) 0.52039(15) 0.0277 Uani
H9 H 0.5068 0.0934 0.4625 0.0330 Uiso
C13 C 0.56403(10) 0.09294(11) 0.55524(15) 0.0278 Uani
C14 C 0.57026(11) 0.09698(13) 0.64192(16) 0.0384 Uani
H10 H 0.6057 0.0946 0.6657 0.0460 Uiso
C15 C 0.52427(12) 0.10446(15) 0.69223(16) 0.0487 Uani
H11 H 0.5286 0.1082 0.7499 0.0580 Uiso
C16 C 0.47149(11) 0.10645(14) 0.65707(16) 0.0416 Uani
H12 H 0.4404 0.1108 0.6916 0.0500 Uiso
Be2E Be 0.72369(13) 0.08187(12) 0.49483(18) 0.0210 Uani
Be3K Be 0.19444(12) 0.47234(13) 0.58585(19) 0.0211 Uani
Be4O Be 0.65728(13) 0.09596(13) 0.35137(18) 0.0233 Uani
Be4J Be 0.34272(13) 0.40404(13) 0.35137(18) 0.0233 Uani
O3N O 0.16527(7) 0.04742(7) 0.60776(10) 0.0286 Uani
O7E O 0.34039(7) 0.42676(8) 0.53415(10) 0.0303 Uani
O8J O 0.34879(8) 0.14145(7) 0.32596(10) 0.0315 Uani
O11N O 0.22062(7) 0.01166(7) 0.73683(10) 0.0248 Uani
H3N H 0.2520 0.0078 0.7708 0.0300 Uiso
O12O O 0.34424(7) 0.03381(7) 0.35257(9) 0.0267 Uani
H4O H 0.3508 0.0019 0.3844 0.0320 Uiso
loop_
_atom_site_aniso_label
_atom_site_aniso_U_11
_atom_site_aniso_U_22
_atom_site_aniso_U_33
_atom_site_aniso_U_23
_atom_site_aniso_U_13
_atom_site_aniso_U_12
Be1 0.0211(16) 0.0225(16) 0.0244(16) -0.0024(13) 0.0024(13) 0.0000(13)
Be2 0.0184 0.0224 0.0223 0.0016 0.0028 0.0002
Be3 0.0213(15) 0.0175(15) 0.0245(15) 0.0012(12) 0.0016(13) 0.0001(12)
Be4 0.0269(17) 0.0232(16) 0.0199(15) -0.0009(12) -0.0003(13) -0.0044(14)
O1 0.0377(10) 0.0187(9) 0.0314(9) 0.0017(7) 0.0127(8) 0.0005(8)
O2 0.0334(10) 0.0216(9) 0.0304(9) 0.0005(7) 0.0139(8) 0.0002(8)
O3 0.0409(11) 0.0163(9) 0.0286(9) -0.0003(7) 0.0102(8) 0.0035(8)
O4 0.0351(10) 0.0218(9) 0.0291(9) 0.0020(7) 0.0115(8) 0.0028(8)
O5 0.0201(9) 0.0491(11) 0.0239(9) -0.0056(8) 0.0028(7) -0.0033(8)
O6 0.0215(9) 0.0510(12) 0.0223(9) -0.0073(8) 0.0021(7) -0.0011(8)
O7 0.0194(9) 0.0465(11) 0.0250(9) 0.0066(8) -0.0024(7) 0.0049(8)
O8 0.0225(9) 0.0505(12) 0.0216(9) 0.0010(8) -0.0011(7) 0.0075(8)
O9 0.0220(9) 0.0390(10) 0.0238(9) -0.0023(8) -0.0001(7) 0.0047(8)
O10 0.0210(9) 0.0171(8) 0.0305(9) -0.0016(7) 0.0035(7) 0.0019(7)
O11 0.0242 0.0213 0.029 0.0079 0.0086 0.0035
O12 0.0205 0.0371 0.0225 -0.0026 0.0003 -0.0027
C1 0.0252(13) 0.0204(12) 0.0230(12) 0.0016(10) 0.0004(10) -0.0027(10)
C2 0.0241(12) 0.0200(12) 0.0215(12) 0.0019(10) 0.0002(10) 0.0020(10)
C3 0.0309(13) 0.0179(12) 0.0259(12) 0.0007(10) 0.0048(11) 0.0008(11)
C4 0.0272(13) 0.0205(12) 0.0241(12) -0.0002(10) 0.0064(10) 0.0018(11)
C5 0.0294(13) 0.0190(12) 0.0260(13) 0.0009(10) 0.0029(11) 0.0013(10)
C6 0.0480(18) 0.0219(14) 0.0481(17) 0.0019(12) 0.0241(14) 0.0088(13)
C7 0.064(2) 0.0298(16) 0.067(2) 0.0067(15) 0.0472(18) 0.0092(15)
C8 0.0514(18) 0.0241(14) 0.0509(17) 0.0052(13) 0.0283(15) -0.0002(13)
C9 0.0217(12) 0.0244(13) 0.0225(12) -0.0005(10) 0.0034(10) -0.0018(10)
C10 0.0197(12) 0.0292(13) 0.0217(12) -0.0013(10) -0.0022(10) 0.0022(10)
C11 0.0224(13) 0.0378(15) 0.0244(12) -0.0026(11) 0.0012(10) -0.0008(11)
C12 0.0228(13) 0.0402(15) 0.0202(12) -0.0015(11) 0.0003(10) 0.0003(11)
C13 0.0236(13) 0.0360(14) 0.0239(12) 0.0017(11) -0.0003(10) 0.0021(11)
C14 0.0256(14) 0.0616(19) 0.0279(14) 0.0001(13) -0.0060(11) 0.0061(14)
C15 0.0341(16) 0.092(3) 0.0200(13) -0.0012(15) -0.0019(12) 0.0069(17)
C16 0.0254(14) 0.074(2) 0.0254(14) 0.0019(14) 0.0072(11) 0.0054(14)
Be2E 0.0184 0.0224 0.0223 -0.0016 -0.0028 0.0002
Be3K 0.0175 0.0213 0.0245 -0.0016 0.0012 -0.0001
Be4O 0.0232 0.0269 0.0199 0.0003 -0.0009 0.0044
Be4J 0.0232 0.0269 0.0199 -0.0003 0.0009 0.0044
O3N 0.0163 0.0409 0.0286 0.0102 0.0003 -0.0035
O7E 0.0194 0.0465 0.025 -0.0066 0.0024 0.0049
O8J 0.0505 0.0225 0.0216 -0.0011 -0.001 -0.0075
O11N 0.0213(9) 0.0242(9) 0.0290(9) 0.0086(7) -0.0079(7) -0.0035(7)
O12O 0.0371 0.0205 0.0225 -0.0003 -0.0026 0.0027
loop_
_geom_bond_atom_site_label_1
_geom_bond_atom_site_label_2
_geom_bond_site_symmetry_1
_geom_bond_site_symmetry_2
Be1 O2 1_555 1_555
Be2 O4 1_555 1_555
Be3 O1 1_555 1_555
Be4 O6 1_555 1_555
O1 C1 1_555 1_555
O2 C1 1_555 1_555
O3 C2 1_555 1_555
O4 C2 1_555 1_555
O5 Be1 1_555 1_555
O6 C9 1_555 1_555
O7 C10 1_555 1_555
O8 C10 1_555 1_555
O9 Be1 1_555 1_555
H1 O9 1_555 1_555
O10 Be1 1_555 1_555
H2 O10 1_555 1_555
O11 Be2 1_555 1_555
H3 O11 1_555 1_555
O12 Be2 1_555 1_555
H4 O12 1_555 1_555
C1 C3 1_555 1_555
C2 C5 1_555 1_555
C3 C4 1_555 1_555
C4 H5 1_555 1_555
C5 C4 1_555 1_555
C6 C5 1_555 1_555
H6 C6 1_555 1_555
C7 C6 1_555 1_555
H7 C7 1_555 1_555
C8 C3 1_555 1_555
H8 C8 1_555 1_555
C9 O5 1_555 1_555
C10 C13 1_555 1_555
C11 C9 1_555 1_555
C12 C11 1_555 1_555
H9 C12 1_555 1_555
C13 C12 1_555 1_555
C14 C13 1_555 1_555
H10 C14 1_555 1_555
C15 C14 1_555 1_555
H11 C15 1_555 1_555
C16 C11 1_555 1_555
H12 C16 1_555 1_555
Be2E O7 1_555 1_555
Be3K O3 1_555 1_555
Be4O O8 1_555 1_555
Be4J O12 1_555 1_555
O3N Be3 1_555 1_555
O7E Be2 1_555 1_555
O8J Be4 1_555 1_555
O11N Be3 1_555 1_555
H3N O11N 1_555 1_555
O12O Be4 1_555 1_555
H4O O12O 1_555 1_555
Be3 O10 1_555 1_555
Be4 O9 1_555 1_555
O11 Be3K 1_555 1_555
C7 C8 1_555 1_555
C15 C16 1_555 1_555

#END
