
#######################################################################
#
#                 Cambridge Crystallographic Data Centre
#                                CCDC 
#
#######################################################################
#
# If this CIF has been generated from an entry in the Cambridge 
# Structural Database, then it will include bibliographic, chemical, 
# crystal, experimental, refinement or atomic coordinate data resulting 
# from the CCDC's data processing and validation procedures.
#
#######################################################################

data_COXHIH
_chemical_formula_moiety         '(C14 H8 N1 Ni4 O30 S1 3-)n'
_symmetry_cell_setting           cubic
_symmetry_space_group_name_H-M   'I 41 3 2'
_symmetry_Int_Tables_number      214
_space_group_name_Hall           'I 4bd 2c 3'
loop_
_symmetry_equiv_pos_site_id
_symmetry_equiv_pos_as_xyz
1 x,y,z
2 1/2-x,-y,1/2+z
3 -x,1/2+y,1/2-z
4 1/2+x,1/2-y,-z
5 z,x,y
6 1/2+z,1/2-x,-y
7 1/2-z,-x,1/2+y
8 -z,1/2+x,1/2-y
9 y,z,x
10 -y,1/2+z,1/2-x
11 1/2+y,1/2-z,-x
12 1/2-y,-z,1/2+x
13 3/4+y,1/4+x,1/4-z
14 3/4-y,3/4-x,3/4-z
15 1/4+y,1/4-x,3/4+z
16 1/4-y,3/4+x,1/4+z
17 3/4+x,1/4+z,1/4-y
18 1/4-x,3/4+z,1/4+y
19 3/4-x,3/4-z,3/4-y
20 1/4+x,1/4-z,3/4+y
21 3/4+z,1/4+y,1/4-x
22 1/4+z,1/4-y,3/4+x
23 1/4-z,3/4+y,1/4+x
24 3/4-z,3/4-y,3/4-x
25 1/2+x,1/2+y,1/2+z
26 -x,1/2-y,z
27 1/2-x,y,-z
28 x,-y,1/2-z
29 1/2+z,1/2+x,1/2+y
30 z,-x,1/2-y
31 -z,1/2-x,y
32 1/2-z,x,-y
33 1/2+y,1/2+z,1/2+x
34 1/2-y,z,-x
35 y,-z,1/2-x
36 -y,1/2-z,x
37 1/4+y,3/4+x,3/4-z
38 1/4-y,1/4-x,1/4-z
39 3/4+y,3/4-x,1/4+z
40 3/4-y,1/4+x,3/4+z
41 1/4+x,3/4+z,3/4-y
42 3/4-x,1/4+z,3/4+y
43 1/4-x,1/4-z,1/4-y
44 3/4+x,3/4-z,1/4+y
45 1/4+z,3/4+y,3/4-x
46 3/4+z,3/4-y,1/4+x
47 3/4-z,1/4+y,3/4+x
48 1/4-z,1/4-y,1/4-x
_cell_length_a                   15.3105(5)
_cell_length_b                   15.3105(5)
_cell_length_c                   15.3105(5)
_cell_angle_alpha                90
_cell_angle_beta                 90
_cell_angle_gamma                90
_cell_volume                     3588.96
loop_
_atom_site_label
_atom_site_type_symbol
_atom_site_fract_x
_atom_site_fract_y
_atom_site_fract_z
N1 N 0.89275(19) 0.85725(19) 0.3750
H1 H 0.8842 0.7995 0.3816
H2 H 0.9505 0.8658 0.3684
C1 C 0.8660(6) 0.8994(5) 0.4521(5)
H3 H 0.8984 0.8766 0.5007
H4 H 0.8048 0.8894 0.4613
H5 H 0.8766 0.9610 0.4470
C1M C 0.8506(5) 0.8840(6) 0.2979(5)
H3M H 0.8734 0.8516 0.2493
H4M H 0.8606 0.9452 0.2887
H5M H 0.7890 0.8734 0.3030
Ni1 Ni 0.8750 0.8750 0.8750
O2 O 0.87416(13) 0.88692(11) 0.73964(11)
C2 C 0.8750 0.96423(15) 0.71423(15)
Ni1AA Ni 0.8750 1.1250 0.6250
Ni1Z Ni 0.6250 0.8750 1.1250
Ni1Y Ni 1.1250 0.6250 0.8750
Ni1B Ni 1.1250 1.3750 0.6250
Ni1A Ni 0.6250 1.1250 0.3750
Ni1A_2 Ni 0.6250 1.1250 1.3750
O2OA O 0.87584(13) 0.98964(11) 0.63692(11)
O2R O 0.87584(13) 1.01036(11) 0.86308(11)
O2AA O 0.87416(13) 1.11308(11) 0.76036(11)
O2D O 0.73964(11) 0.87416(13) 0.88692(11)
O2LA O 0.63692(11) 0.87584(13) 0.98964(11)
O2M O 0.86308(11) 0.87584(13) 1.01036(11)
O2EA O 0.76036(11) 0.87416(13) 1.11308(11)
O2H O 0.88692(11) 0.73964(11) 0.87416(13)
O2RA O 0.98964(11) 0.63692(11) 0.87584(13)
O2W O 1.01036(11) 0.86308(11) 0.87584(13)
O2IA O 1.11308(11) 0.76036(11) 0.87416(13)
O2TA O 1.01036(11) 1.13692(11) 0.62416(13)
O2I O 1.11308(11) 1.23964(11) 0.62584(13)
O2HA O 0.88692(11) 1.26036(11) 0.62584(13)
O2U O 0.98964(11) 1.36308(11) 0.62416(13)
O2MA O 0.86308(11) 1.12416(13) 0.48964(11)
O2F O 0.76036(11) 1.12584(13) 0.38692(11)
O2CA O 0.73964(11) 1.12584(13) 0.61308(11)
O2L O 0.63692(11) 1.12416(13) 0.51036(11)
O2QA O 0.62416(13) 1.01036(11) 1.13692(11)
O2A O 0.62584(13) 1.11308(11) 1.23964(11)
O2Z O 0.62584(13) 0.88692(11) 1.26036(11)
O2P O 0.62416(13) 0.98964(11) 1.36308(11)
O2SA O 0.48964(11) 0.86308(11) 1.12416(13)
O2GA O 0.61308(11) 0.73964(11) 1.12584(13)
O2JA O 1.13692(11) 0.62416(13) 1.01036(11)
O2NA O 1.12416(13) 0.48964(11) 0.86308(11)
O2DA O 1.26036(11) 0.62584(13) 0.88692(11)
O2Y O 1.12584(13) 0.61308(11) 0.73964(11)
C2R C 0.8750 1.03577(15) 0.78577(15)
C2D C 0.71423(15) 0.8750 0.96423(15)
C2M C 0.78577(15) 0.8750 1.03577(15)
C2H C 0.96423(15) 0.71423(15) 0.8750
C2W C 1.03577(15) 0.78577(15) 0.8750
C2I C 1.03577(15) 1.21423(15) 0.6250
C2U C 0.96423(15) 1.28577(15) 0.6250
C2F C 0.78577(15) 1.1250 0.46423(15)
C2L C 0.71423(15) 1.1250 0.53577(15)
C2A C 0.6250 1.03577(15) 1.21423(15)
C2P C 0.6250 0.96423(15) 1.28577(15)
S1 S 0.8750 0.6250 0.3750
O1 O 0.9227(4) 0.6795(3) 0.4373(3)
O1E O 0.9373(3) 0.5773(4) 0.3205(3)
O1K O 0.8205(3) 0.5627(3) 0.4227(4)
O1JA O 0.9295(3) 0.6727(4) 0.3127(3)
O1OA O 0.8273(4) 0.6873(3) 0.4295(3)
O1UA O 0.8127(3) 0.5705(3) 0.3273(4)
loop_
_geom_bond_atom_site_label_1
_geom_bond_atom_site_label_2
_geom_bond_site_symmetry_1
_geom_bond_site_symmetry_2
S1 O1 1_555 1_555
N1 H1 1_555 1_555
H2 N1 1_555 1_555
C1 N1 1_555 1_555
H3 C1 1_555 1_555
H4 C1 1_555 1_555
H5 C1 1_555 1_555
Ni1 O2 1_555 1_555
O2 C2 1_555 1_555
C2 O2OA 1_555 1_555
O1E S1 1_555 1_555
O1K S1 1_555 1_555
O1JA S1 1_555 1_555
O1OA S1 1_555 1_555
O1UA S1 1_555 1_555
C1M N1 1_555 1_555
H3M C1M 1_555 1_555
H4M C1M 1_555 1_555
H5M C1M 1_555 1_555
Ni1AA O2OA 1_555 1_555
Ni1Z O2LA 1_555 1_555
Ni1Y O2RA 1_555 1_555
Ni1B O2I 1_555 1_555
Ni1A O2F 1_555 1_555
Ni1A_2 O2A 1_555 1_555
O2R Ni1 1_555 1_555
O2AA Ni1AA 1_555 1_555
O2D Ni1 1_555 1_555
O2LA C2D 1_555 1_555
O2M Ni1 1_555 1_555
O2EA Ni1Z 1_555 1_555
O2H Ni1 1_555 1_555
O2RA C2H 1_555 1_555
O2W Ni1 1_555 1_555
O2IA Ni1Y 1_555 1_555
O2TA Ni1AA 1_555 1_555
O2I C2I 1_555 1_555
O2HA Ni1AA 1_555 1_555
O2U Ni1B 1_555 1_555
O2MA Ni1AA 1_555 1_555
O2F C2F 1_555 1_555
O2CA Ni1AA 1_555 1_555
O2L Ni1A 1_555 1_555
O2QA Ni1Z 1_555 1_555
O2A C2A 1_555 1_555
O2Z Ni1Z 1_555 1_555
O2P Ni1A_2 1_555 1_555
O2SA Ni1Z 1_555 1_555
O2GA Ni1Z 1_555 1_555
O2JA Ni1Y 1_555 1_555
O2NA Ni1Y 1_555 1_555
O2DA Ni1Y 1_555 1_555
O2Y Ni1Y 1_555 1_555
C2R C2 1_555 1_555
C2D O2D 1_555 1_555
C2M O2M 1_555 1_555
C2H O2H 1_555 1_555
C2W O2W 1_555 1_555
C2I O2TA 1_555 1_555
C2U O2HA 1_555 1_555
C2F O2MA 1_555 1_555
C2L O2CA 1_555 1_555
C2A O2QA 1_555 1_555
C2P O2Z 1_555 1_555
O2R C2R 1_555 1_555
O2AA C2R 1_555 1_555
O2EA C2M 1_555 1_555
O2IA C2W 1_555 1_555
O2U C2U 1_555 1_555
O2L C2L 1_555 1_555
O2P C2P 1_555 1_555
C2D C2M 1_555 1_555
C2H C2W 1_555 1_555
C2I C2U 1_555 1_555
C2F C2L 1_555 1_555
C2A C2P 1_555 1_555

#END
