
#######################################################################
#
#                 Cambridge Crystallographic Data Centre
#                                CCDC 
#
#######################################################################
#
# If this CIF has been generated from an entry in the Cambridge 
# Structural Database, then it will include bibliographic, chemical, 
# crystal, experimental, refinement or atomic coordinate data resulting 
# from the CCDC's data processing and validation procedures.
#
#######################################################################

data_COXHON
_chemical_formula_moiety         '(C14 H8 Fe4 N1 O30 S1 3-)n'
_symmetry_cell_setting           cubic
_symmetry_space_group_name_H-M   'I 41 3 2'
_symmetry_Int_Tables_number      214
_space_group_name_Hall           'I 4bd 2c 3'
loop_
_symmetry_equiv_pos_site_id
_symmetry_equiv_pos_as_xyz
1 x,y,z
2 1/2-x,-y,1/2+z
3 -x,1/2+y,1/2-z
4 1/2+x,1/2-y,-z
5 z,x,y
6 1/2+z,1/2-x,-y
7 1/2-z,-x,1/2+y
8 -z,1/2+x,1/2-y
9 y,z,x
10 -y,1/2+z,1/2-x
11 1/2+y,1/2-z,-x
12 1/2-y,-z,1/2+x
13 3/4+y,1/4+x,1/4-z
14 3/4-y,3/4-x,3/4-z
15 1/4+y,1/4-x,3/4+z
16 1/4-y,3/4+x,1/4+z
17 3/4+x,1/4+z,1/4-y
18 1/4-x,3/4+z,1/4+y
19 3/4-x,3/4-z,3/4-y
20 1/4+x,1/4-z,3/4+y
21 3/4+z,1/4+y,1/4-x
22 1/4+z,1/4-y,3/4+x
23 1/4-z,3/4+y,1/4+x
24 3/4-z,3/4-y,3/4-x
25 1/2+x,1/2+y,1/2+z
26 -x,1/2-y,z
27 1/2-x,y,-z
28 x,-y,1/2-z
29 1/2+z,1/2+x,1/2+y
30 z,-x,1/2-y
31 -z,1/2-x,y
32 1/2-z,x,-y
33 1/2+y,1/2+z,1/2+x
34 1/2-y,z,-x
35 y,-z,1/2-x
36 -y,1/2-z,x
37 1/4+y,3/4+x,3/4-z
38 1/4-y,1/4-x,1/4-z
39 3/4+y,3/4-x,1/4+z
40 3/4-y,1/4+x,3/4+z
41 1/4+x,3/4+z,3/4-y
42 3/4-x,1/4+z,3/4+y
43 1/4-x,1/4-z,1/4-y
44 3/4+x,3/4-z,1/4+y
45 1/4+z,3/4+y,3/4-x
46 3/4+z,3/4-y,1/4+x
47 3/4-z,1/4+y,3/4+x
48 1/4-z,1/4-y,1/4-x
_cell_length_a                   15.5863(6)
_cell_length_b                   15.5863(6)
_cell_length_c                   15.5863(6)
_cell_angle_alpha                90
_cell_angle_beta                 90
_cell_angle_gamma                90
_cell_volume                     3786.42
loop_
_atom_site_label
_atom_site_type_symbol
_atom_site_fract_x
_atom_site_fract_y
_atom_site_fract_z
N1 N 0.10631(17) 0.14369(17) 0.6250
H1 H 0.1147 0.2004 0.6180
H2 H 0.0496 0.1353 0.6320
C1 C 0.1321(4) 0.1015(4) 0.5486(4)
H3 H 0.1002 0.1240 0.5010
H4 H 0.1213 0.0411 0.5539
H5 H 0.1923 0.1109 0.5394
C1KA C 0.1485(4) 0.1179(4) 0.7014(4)
H3KA H 0.1260 0.1498 0.7490
H4KA H 0.2089 0.1287 0.6961
H5KA H 0.1391 0.0577 0.7106
Fe1 Fe 0.1250 -0.1250 0.3750
O2 O 0.12292(14) 0.01071(11) 0.36103(11)
C2 C 0.1250 0.03543(15) 0.28543(15)
Fe1N Fe 0.1250 0.1250 0.1250
Fe1O Fe 0.3750 -0.1250 0.6250
Fe1M Fe -0.1250 -0.3750 0.3750
Fe1B Fe -0.1250 0.3750 0.1250
Fe1A Fe 0.3750 0.1250 -0.1250
Fe1A_2 Fe 0.3750 0.1250 0.8750
O2Q O 0.12708(14) 0.11103(11) 0.26071(11)
O2AA O 0.12292(14) -0.01071(11) 0.13897(11)
O2PA O 0.12708(14) -0.11103(11) 0.23929(11)
O2F O 0.13897(11) -0.12292(14) 0.51071(11)
O2O O 0.23929(11) -0.12708(14) 0.61103(11)
O2CA O 0.36103(11) -0.12292(14) 0.48929(11)
O2JA O 0.26071(11) -0.12708(14) 0.38897(11)
O2I O -0.01071(11) -0.13897(11) 0.37708(14)
O2V O -0.11103(11) -0.23929(11) 0.37292(14)
O2HA O 0.01071(11) -0.36103(11) 0.37708(14)
O2SA O 0.11103(11) -0.26071(11) 0.37292(14)
O2T O 0.11103(11) 0.26071(11) 0.12708(14)
O2H O 0.01071(11) 0.36103(11) 0.12292(14)
O2UA O -0.11103(11) 0.23929(11) 0.12708(14)
O2IA O -0.01071(11) 0.13897(11) 0.12292(14)
O2N O 0.26071(11) 0.12708(14) 0.11103(11)
O2D O 0.36103(11) 0.12292(14) 0.01071(11)
O2KA O 0.23929(11) 0.12708(14) -0.11103(11)
O2EA O 0.13897(11) 0.12292(14) -0.01071(11)
O2S O 0.37292(14) -0.11103(11) 0.76071(11)
O2A O 0.37708(14) -0.01071(11) 0.86103(11)
O2NA O 0.37292(14) 0.11103(11) 0.73929(11)
O2Z O 0.37708(14) 0.01071(11) 0.63897(11)
O2W O 0.38897(11) -0.26071(11) 0.62708(14)
O2FA O 0.51071(11) -0.13897(11) 0.62292(14)
O2M O -0.26071(11) -0.37292(14) 0.38897(11)
O2P O -0.12708(14) -0.38897(11) 0.23929(11)
O2BA O -0.13897(11) -0.37708(14) 0.51071(11)
O2Y O -0.12292(14) -0.51071(11) 0.36103(11)
C2AA C 0.1250 -0.03543(15) 0.21457(15)
C2F C 0.21457(15) -0.1250 0.53543(15)
C2CA C 0.28543(15) -0.1250 0.46457(15)
C2I C -0.03543(15) -0.21457(15) 0.3750
C2HA C 0.03543(15) -0.28543(15) 0.3750
C2H C 0.03543(15) 0.28543(15) 0.1250
C2IA C -0.03543(15) 0.21457(15) 0.1250
C2D C 0.28543(15) 0.1250 0.03543(15)
C2EA C 0.21457(15) 0.1250 -0.03543(15)
C2A C 0.3750 -0.03543(15) 0.78543(15)
C2Z C 0.3750 0.03543(15) 0.71457(15)
S1 S 0.1250 0.3750 0.6250
O1 O 0.0783(4) 0.3237(3) 0.5606(3)
O1E O 0.0606(3) 0.4217(4) 0.6763(3)
O1K O 0.1763(3) 0.4394(3) 0.5783(4)
O1L O 0.0737(3) 0.3283(4) 0.6894(3)
O1Q O 0.1717(4) 0.3106(3) 0.5737(3)
O1W O 0.1894(3) 0.4263(3) 0.6717(4)
loop_
_geom_bond_atom_site_label_1
_geom_bond_atom_site_label_2
_geom_bond_site_symmetry_1
_geom_bond_site_symmetry_2
S1 O1 1_555 1_555
N1 H1 1_555 1_555
H2 N1 1_555 1_555
C1 N1 1_555 1_555
H3 C1 1_555 1_555
H4 C1 1_555 1_555
H5 C1 1_555 1_555
Fe1 O2 1_555 1_555
O2 C2 1_555 1_555
C2 O2Q 1_555 1_555
O1E S1 1_555 1_555
O1K S1 1_555 1_555
O1L S1 1_555 1_555
O1Q S1 1_555 1_555
O1W S1 1_555 1_555
C1KA N1 1_555 1_555
H3KA C1KA 1_555 1_555
H4KA C1KA 1_555 1_555
H5KA C1KA 1_555 1_555
Fe1N O2Q 1_555 1_555
Fe1O O2O 1_555 1_555
Fe1M O2V 1_555 1_555
Fe1B O2H 1_555 1_555
Fe1A O2D 1_555 1_555
Fe1A_2 O2A 1_555 1_555
O2AA Fe1N 1_555 1_555
O2PA Fe1 1_555 1_555
O2F Fe1 1_555 1_555
O2O C2F 1_555 1_555
O2CA Fe1O 1_555 1_555
O2JA Fe1 1_555 1_555
O2I Fe1 1_555 1_555
O2V C2I 1_555 1_555
O2HA Fe1M 1_555 1_555
O2SA Fe1 1_555 1_555
O2T Fe1N 1_555 1_555
O2H C2H 1_555 1_555
O2UA Fe1B 1_555 1_555
O2IA Fe1N 1_555 1_555
O2N Fe1N 1_555 1_555
O2D C2D 1_555 1_555
O2KA Fe1A 1_555 1_555
O2EA Fe1N 1_555 1_555
O2S Fe1O 1_555 1_555
O2A C2A 1_555 1_555
O2NA Fe1A_2 1_555 1_555
O2Z Fe1O 1_555 1_555
O2W Fe1O 1_555 1_555
O2FA Fe1O 1_555 1_555
O2M Fe1M 1_555 1_555
O2P Fe1M 1_555 1_555
O2BA Fe1M 1_555 1_555
O2Y Fe1M 1_555 1_555
C2AA C2 1_555 1_555
C2F O2F 1_555 1_555
C2CA O2CA 1_555 1_555
C2I O2I 1_555 1_555
C2HA O2HA 1_555 1_555
C2H O2T 1_555 1_555
C2IA O2UA 1_555 1_555
C2D O2N 1_555 1_555
C2EA O2KA 1_555 1_555
C2A O2S 1_555 1_555
C2Z O2NA 1_555 1_555
O2AA C2AA 1_555 1_555
O2PA C2AA 1_555 1_555
O2JA C2CA 1_555 1_555
O2SA C2HA 1_555 1_555
O2IA C2IA 1_555 1_555
O2EA C2EA 1_555 1_555
O2Z C2Z 1_555 1_555
C2F C2CA 1_555 1_555
C2I C2HA 1_555 1_555
C2H C2IA 1_555 1_555
C2D C2EA 1_555 1_555
C2A C2Z 1_555 1_555

#END
