
#######################################################################
#
#                 Cambridge Crystallographic Data Centre
#                                CCDC 
#
#######################################################################
#
# If this CIF has been generated from an entry in the Cambridge 
# Structural Database, then it will include bibliographic, chemical, 
# crystal, experimental, refinement or atomic coordinate data resulting 
# from the CCDC's data processing and validation procedures.
#
#######################################################################

data_COXHED
_chemical_formula_moiety         '(C14 H8 Co4 N1 O30 S1 3-)n'
_symmetry_cell_setting           cubic
_symmetry_space_group_name_H-M   'I 41 3 2'
_symmetry_Int_Tables_number      214
_space_group_name_Hall           'I 4bd 2c 3'
loop_
_symmetry_equiv_pos_site_id
_symmetry_equiv_pos_as_xyz
1 x,y,z
2 1/2-x,-y,1/2+z
3 -x,1/2+y,1/2-z
4 1/2+x,1/2-y,-z
5 z,x,y
6 1/2+z,1/2-x,-y
7 1/2-z,-x,1/2+y
8 -z,1/2+x,1/2-y
9 y,z,x
10 -y,1/2+z,1/2-x
11 1/2+y,1/2-z,-x
12 1/2-y,-z,1/2+x
13 3/4+y,1/4+x,1/4-z
14 3/4-y,3/4-x,3/4-z
15 1/4+y,1/4-x,3/4+z
16 1/4-y,3/4+x,1/4+z
17 3/4+x,1/4+z,1/4-y
18 1/4-x,3/4+z,1/4+y
19 3/4-x,3/4-z,3/4-y
20 1/4+x,1/4-z,3/4+y
21 3/4+z,1/4+y,1/4-x
22 1/4+z,1/4-y,3/4+x
23 1/4-z,3/4+y,1/4+x
24 3/4-z,3/4-y,3/4-x
25 1/2+x,1/2+y,1/2+z
26 -x,1/2-y,z
27 1/2-x,y,-z
28 x,-y,1/2-z
29 1/2+z,1/2+x,1/2+y
30 z,-x,1/2-y
31 -z,1/2-x,y
32 1/2-z,x,-y
33 1/2+y,1/2+z,1/2+x
34 1/2-y,z,-x
35 y,-z,1/2-x
36 -y,1/2-z,x
37 1/4+y,3/4+x,3/4-z
38 1/4-y,1/4-x,1/4-z
39 3/4+y,3/4-x,1/4+z
40 3/4-y,1/4+x,3/4+z
41 1/4+x,3/4+z,3/4-y
42 3/4-x,1/4+z,3/4+y
43 1/4-x,1/4-z,1/4-y
44 3/4+x,3/4-z,1/4+y
45 1/4+z,3/4+y,3/4-x
46 3/4+z,3/4-y,1/4+x
47 3/4-z,1/4+y,3/4+x
48 1/4-z,1/4-y,1/4-x
_cell_length_a                   15.4519(5)
_cell_length_b                   15.4519(5)
_cell_length_c                   15.4519(5)
_cell_angle_alpha                90
_cell_angle_beta                 90
_cell_angle_gamma                90
_cell_volume                     3689.31
loop_
_atom_site_label
_atom_site_type_symbol
_atom_site_fract_x
_atom_site_fract_y
_atom_site_fract_z
N1 N 0.1065(2) 0.1435(2) 0.6250
H1 H 0.1151 0.2007 0.6182
H2 H 0.0493 0.1349 0.6318
C1 C 0.1340(6) 0.1003(6) 0.5490(6)
H3 H 0.1025 0.1222 0.5001
H4 H 0.1234 0.0394 0.5549
H5 H 0.1948 0.1101 0.5405
C1KA C 0.1497(6) 0.1160(6) 0.7010(6)
H3KA H 0.1278 0.1475 0.7499
H4KA H 0.2106 0.1266 0.6951
H5KA H 0.1399 0.0552 0.7095
Co1 Co 0.1250 -0.1250 0.3750
O2 O 0.12410(17) 0.01038(14) 0.36166(14)
C2 C 0.1250 0.03589(18) 0.28589(18)
Co1N Co 0.1250 0.1250 0.1250
Co1O Co 0.3750 -0.1250 0.6250
Co1M Co -0.1250 -0.3750 0.3750
Co1B Co -0.1250 0.3750 0.1250
Co1A Co 0.3750 0.1250 -0.1250
Co1A_2 Co 0.3750 0.1250 0.8750
O2Q O 0.12590(17) 0.11166(14) 0.26038(14)
O2AA O 0.12410(17) -0.01038(14) 0.13834(14)
O2PA O 0.12590(17) -0.11166(14) 0.23962(14)
O2F O 0.13834(14) -0.12410(17) 0.51038(14)
O2O O 0.23962(14) -0.12590(17) 0.61166(14)
O2CA O 0.36166(14) -0.12410(17) 0.48962(14)
O2JA O 0.26038(14) -0.12590(17) 0.38834(14)
O2I O -0.01038(14) -0.13834(14) 0.37590(17)
O2V O -0.11166(14) -0.23962(14) 0.37410(17)
O2HA O 0.01038(14) -0.36166(14) 0.37590(17)
O2SA O 0.11166(14) -0.26038(14) 0.37410(17)
O2T O 0.11166(14) 0.26038(14) 0.12590(17)
O2H O 0.01038(14) 0.36166(14) 0.12410(17)
O2UA O -0.11166(14) 0.23962(14) 0.12590(17)
O2IA O -0.01038(14) 0.13834(14) 0.12410(17)
O2N O 0.26038(14) 0.12590(17) 0.11166(14)
O2D O 0.36166(14) 0.12410(17) 0.01038(14)
O2KA O 0.23962(14) 0.12590(17) -0.11166(14)
O2EA O 0.13834(14) 0.12410(17) -0.01038(14)
O2S O 0.37410(17) -0.11166(14) 0.76038(14)
O2A O 0.37590(17) -0.01038(14) 0.86166(14)
O2NA O 0.37410(17) 0.11166(14) 0.73962(14)
O2Z O 0.37590(17) 0.01038(14) 0.63834(14)
O2W O 0.38834(14) -0.26038(14) 0.62590(17)
O2FA O 0.51038(14) -0.13834(14) 0.62410(17)
O2M O -0.26038(14) -0.37410(17) 0.38834(14)
O2P O -0.12590(17) -0.38834(14) 0.23962(14)
O2BA O -0.13834(14) -0.37590(17) 0.51038(14)
O2Y O -0.12410(17) -0.51038(14) 0.36166(14)
C2AA C 0.1250 -0.03589(18) 0.21411(18)
C2F C 0.21411(18) -0.1250 0.53589(18)
C2CA C 0.28589(18) -0.1250 0.46411(18)
C2I C -0.03589(18) -0.21411(18) 0.3750
C2HA C 0.03589(18) -0.28589(18) 0.3750
C2H C 0.03589(18) 0.28589(18) 0.1250
C2IA C -0.03589(18) 0.21411(18) 0.1250
C2D C 0.28589(18) 0.1250 0.03589(18)
C2EA C 0.21411(18) 0.1250 -0.03589(18)
C2A C 0.3750 -0.03589(18) 0.78589(18)
C2Z C 0.3750 0.03589(18) 0.71411(18)
S1 S 0.1250 0.3750 0.6250
O1 O 0.0778(5) 0.3224(5) 0.5615(4)
O1E O 0.0615(4) 0.4222(5) 0.6776(5)
O1K O 0.1776(5) 0.4385(4) 0.5778(5)
O1L O 0.0724(5) 0.3278(5) 0.6885(4)
O1Q O 0.1722(5) 0.3115(4) 0.5724(5)
O1W O 0.1885(4) 0.4276(5) 0.6722(5)
loop_
_geom_bond_atom_site_label_1
_geom_bond_atom_site_label_2
_geom_bond_site_symmetry_1
_geom_bond_site_symmetry_2
S1 O1 1_555 1_555
N1 H1 1_555 1_555
H2 N1 1_555 1_555
C1 N1 1_555 1_555
H3 C1 1_555 1_555
H4 C1 1_555 1_555
H5 C1 1_555 1_555
Co1 O2 1_555 1_555
O2 C2 1_555 1_555
C2 O2Q 1_555 1_555
O1E S1 1_555 1_555
O1K S1 1_555 1_555
O1L S1 1_555 1_555
O1Q S1 1_555 1_555
O1W S1 1_555 1_555
C1KA N1 1_555 1_555
H3KA C1KA 1_555 1_555
H4KA C1KA 1_555 1_555
H5KA C1KA 1_555 1_555
Co1N O2Q 1_555 1_555
Co1O O2O 1_555 1_555
Co1M O2V 1_555 1_555
Co1B O2H 1_555 1_555
Co1A O2D 1_555 1_555
Co1A_2 O2A 1_555 1_555
O2AA Co1N 1_555 1_555
O2PA Co1 1_555 1_555
O2F Co1 1_555 1_555
O2O C2F 1_555 1_555
O2CA Co1O 1_555 1_555
O2JA Co1 1_555 1_555
O2I Co1 1_555 1_555
O2V C2I 1_555 1_555
O2HA Co1M 1_555 1_555
O2SA Co1 1_555 1_555
O2T Co1N 1_555 1_555
O2H C2H 1_555 1_555
O2UA Co1B 1_555 1_555
O2IA Co1N 1_555 1_555
O2N Co1N 1_555 1_555
O2D C2D 1_555 1_555
O2KA Co1A 1_555 1_555
O2EA Co1N 1_555 1_555
O2S Co1O 1_555 1_555
O2A C2A 1_555 1_555
O2NA Co1A_2 1_555 1_555
O2Z Co1O 1_555 1_555
O2W Co1O 1_555 1_555
O2FA Co1O 1_555 1_555
O2M Co1M 1_555 1_555
O2P Co1M 1_555 1_555
O2BA Co1M 1_555 1_555
O2Y Co1M 1_555 1_555
C2AA C2 1_555 1_555
C2F O2F 1_555 1_555
C2CA O2CA 1_555 1_555
C2I O2I 1_555 1_555
C2HA O2HA 1_555 1_555
C2H O2T 1_555 1_555
C2IA O2UA 1_555 1_555
C2D O2N 1_555 1_555
C2EA O2KA 1_555 1_555
C2A O2S 1_555 1_555
C2Z O2NA 1_555 1_555
O2AA C2AA 1_555 1_555
O2PA C2AA 1_555 1_555
O2JA C2CA 1_555 1_555
O2SA C2HA 1_555 1_555
O2IA C2IA 1_555 1_555
O2EA C2EA 1_555 1_555
O2Z C2Z 1_555 1_555
C2F C2CA 1_555 1_555
C2I C2HA 1_555 1_555
C2H C2IA 1_555 1_555
C2D C2EA 1_555 1_555
C2A C2Z 1_555 1_555

#END
