
#######################################################################
#
#                 Cambridge Crystallographic Data Centre
#                                CCDC 
#
#######################################################################
#
# If this CIF has been generated from an entry in the Cambridge 
# Structural Database, then it will include bibliographic, chemical, 
# crystal, experimental, refinement or atomic coordinate data resulting 
# from the CCDC's data processing and validation procedures.
#
#######################################################################

data_REKCUG
_chemical_formula_moiety         '(C5 H22 N2 O13 P4 Zn3)n'
_symmetry_cell_setting           triclinic
_symmetry_space_group_name_H-M   'P -1'
_symmetry_Int_Tables_number      2
_space_group_name_Hall           '-P 1'
loop_
_symmetry_equiv_pos_site_id
_symmetry_equiv_pos_as_xyz
1 x,y,z
2 -x,-y,-z
_cell_length_a                   8.9884(18)
_cell_length_b                   10.326(2)
_cell_length_c                   11.917(2)
_cell_angle_alpha                66.98(3)
_cell_angle_beta                 89.01(3)
_cell_angle_gamma                78.98(3)
_cell_volume                     997.194
loop_
_atom_site_label
_atom_site_type_symbol
_atom_site_fract_x
_atom_site_fract_y
_atom_site_fract_z
Zn1 Zn 0.88980(4) 0.00457(4) 0.76225(3)
Zn2 Zn 0.41068(4) 0.02832(4) 0.64862(3)
Zn3 Zn 0.86789(4) -0.36726(4) 1.07222(3)
P1 P 0.61545(9) -0.14508(9) 0.88558(8)
H1 H 0.517(4) -0.105(4) 0.952(4)
P2 P 0.67644(9) 0.14251(9) 0.51047(7)
H2 H 0.681(4) 0.260(4) 0.404(4)
P3 P 1.15528(9) 0.14548(9) 0.80171(8)
H3 H 1.233(5) 0.044(5) 0.901(4)
P4 P 1.11062(9) -0.30415(9) 0.86768(8)
H4 H 1.252(4) -0.276(4) 0.874(3)
O1 O 0.7189(3) -0.0388(3) 0.8582(2)
O2 O 0.8179(3) 0.1205(3) 0.5899(2)
O3 O 0.9934(3) 0.1245(3) 0.8062(3)
O4 O 1.0176(3) -0.1724(3) 0.7668(2)
O5 O 0.5281(3) -0.1363(3) 0.7746(3)
O6 O 0.5283(3) 0.1775(3) 0.5659(2)
O7 O 0.6828(3) 0.0154(3) 0.4758(2)
O8 O 1.2310(3) 0.1289(3) 0.6921(3)
O9 O 0.6923(3) -0.2991(3) 0.9577(3)
O10 O 1.1255(3) -0.4299(3) 0.8317(2)
O11 O 1.1646(3) 0.2904(3) 0.8025(3)
O12 O 1.0573(3) -0.3319(3) 0.9950(2)
Zn2A Zn 0.58932(4) -0.02832(4) 0.35138(3)
Zn2_2 Zn 1.41068(4) 0.02832(4) 0.64862(3)
Zn3A Zn 1.13211(4) -0.63274(4) 0.92778(3)
Zn3A_2 Zn 1.13211(4) 0.36726(4) 0.92778(3)
O7A O 0.3172(3) -0.0154(3) 0.5242(2)
O8_2 O 0.2310(3) 0.1289(3) 0.6921(3)
O10A O 0.8745(3) -0.5701(3) 1.1683(2)
O11A O 0.8354(3) -0.2904(3) 1.1975(3)
O13 O 0.3627(4) 0.4315(3) 0.6079(3)
N1 N 0.6823(8) 0.4191(7) 0.8233(7)
N3 N 0.9441(3) 0.7866(3) 0.5560(3)
H5 H 1.0212 0.8006 0.5076
H6 H 0.9683 0.7925 0.6257
H7 H 0.8621 0.8533 0.5189
C1 C 0.7582(4) 0.4656(4) 0.7029(4)
C2 C 0.7804(4) 0.6180(4) 0.6638(4)
H8 H 0.8007 0.6364 0.7353
H9 H 0.6886 0.6843 0.6202
C3 C 0.9117(4) 0.6414(4) 0.5822(3)
H10 H 1.0009 0.5682 0.6222
H11 H 0.8866 0.6339 0.5064
C4 C 0.6393(7) 0.2707(5) 0.8330(7)
C5 C 0.5498(6) 0.5075(5) 0.8360(5)
loop_
_geom_bond_atom_site_label_1
_geom_bond_atom_site_label_2
_geom_bond_site_symmetry_1
_geom_bond_site_symmetry_2
Zn1 O1 1_555 1_555
Zn2 O5 1_555 1_555
Zn3 O9 1_555 1_555
P1 H1 1_555 1_555
P2 H2 1_555 1_555
P3 H3 1_555 1_555
P4 H4 1_555 1_555
O1 P1 1_555 1_555
O2 Zn1 1_555 1_555
O3 Zn1 1_555 1_555
O4 Zn1 1_555 1_555
O5 P1 1_555 1_555
O6 Zn2 1_555 1_555
O7 P2 1_555 1_555
O8 P3 1_555 1_555
O9 P1 1_555 1_555
O10 P4 1_555 1_555
O11 P3 1_555 1_555
O12 Zn3 1_555 1_555
N1 C1 1_555 1_555
N3 H5 1_555 1_555
H6 N3 1_555 1_555
H7 N3 1_555 1_555
C1 C2 1_555 1_555
C2 H8 1_555 1_555
H9 C2 1_555 1_555
C3 N3 1_555 1_555
H10 C3 1_555 1_555
H11 C3 1_555 1_555
C4 N1 1_555 1_555
C5 N1 1_555 1_555
Zn2A O7 1_555 1_555
Zn2_2 O8 1_555 1_555
Zn3A O10 1_555 1_555
Zn3A_2 O11 1_555 1_555
O7A Zn2 1_555 1_555
O8_2 Zn2 1_555 1_555
O10A Zn3 1_555 1_555
O11A Zn3 1_555 1_555
P2 O2 1_555 1_555
P2 O6 1_555 1_555
P3 O3 1_555 1_555
P4 O4 1_555 1_555
P4 O12 1_555 1_555
C2 C3 1_555 1_555

#END
