
#######################################################################
#
#                 Cambridge Crystallographic Data Centre
#                                CCDC 
#
#######################################################################
#
# If this CIF has been generated from an entry in the Cambridge 
# Structural Database, then it will include bibliographic, chemical, 
# crystal, experimental, refinement or atomic coordinate data resulting 
# from the CCDC's data processing and validation procedures.
#
#######################################################################

data_FAVFUG
_chemical_formula_moiety         '(C51 H36 Cd2 K1 N1 O17)n'
_symmetry_cell_setting           orthorhombic
_symmetry_space_group_name_H-M   'F d d 2'
_symmetry_Int_Tables_number      43
_space_group_name_Hall           'F 2 -2d'
loop_
_symmetry_equiv_pos_site_id
_symmetry_equiv_pos_as_xyz
1 x,y,z
2 -x,-y,z
3 1/4+x,1/4-y,1/4+z
4 1/4-x,1/4+y,1/4+z
5 x,1/2+y,1/2+z
6 -x,1/2-y,1/2+z
7 1/4+x,3/4-y,3/4+z
8 1/4-x,3/4+y,3/4+z
9 1/2+x,y,1/2+z
10 1/2-x,-y,1/2+z
11 3/4+x,1/4-y,3/4+z
12 3/4-x,1/4+y,3/4+z
13 1/2+x,1/2+y,z
14 1/2-x,1/2-y,z
15 3/4+x,3/4-y,1/4+z
16 3/4-x,3/4+y,1/4+z
_cell_length_a                   30.4133(18)
_cell_length_b                   34.588(2)
_cell_length_c                   27.5921(18)
_cell_angle_alpha                90
_cell_angle_beta                 90
_cell_angle_gamma                90
_cell_volume                     29025.1
loop_
_atom_site_label
_atom_site_type_symbol
_atom_site_fract_x
_atom_site_fract_y
_atom_site_fract_z
Cd1 Cd 0.74706(2) 0.39372(2) 0.36871(2)
Cd2 Cd 0.83911(2) 0.49782(2) 0.55317(2)
K1 K 0.78907(9) 0.44495(8) 0.46299(12)
O1 O 0.60288(19) 0.29291(16) 0.7388(2)
O2 O 0.7260(2) 0.43260(17) 0.4344(2)
O3 O 0.9392(2) 0.19732(19) 0.6427(2)
O4 O 0.7791(2) 0.50286(18) 0.4578(2)
O5 O 0.7940(2) 0.35241(19) 0.3989(2)
O6 O 0.7653(2) 0.44428(19) 0.5326(2)
O7 O 0.7911(2) 0.46824(19) 0.6019(3)
O8 O 0.6410(2) 0.3064(2) 0.8038(3)
O9 O 0.8001(2) 0.38713(16) 0.4677(2)
O10 O 0.5345(2) 0.6130(2) 0.5545(3)
O11 O 0.9583(2) 0.1773(2) 0.5689(2)
O12 O 0.7903(2) 0.53976(19) 0.5236(3)
O13 O 0.5632(3) 0.5975(2) 0.6252(3)
O14 O 0.6940(2) 0.4471(2) 0.3650(3)
O15 O 0.6490(3) 0.7054(2) 0.2894(3)
C1 C 0.6520(3) 0.3458(2) 0.6831(3)
H1 H 0.6326 0.3296 0.6668
O16 O 0.6224(3) 0.7168(2) 0.3616(4)
C2 C 0.6559(3) 0.3437(3) 0.7334(3)
C3 C 0.9372(3) 0.2001(3) 0.5984(4)
C4 C 0.6777(3) 0.3726(2) 0.6576(3)
C5 C 0.6322(3) 0.3133(3) 0.7613(4)
C6 C 0.6776(3) 0.3736(3) 0.6059(3)
H2 H 0.6594 0.3565 0.5894
C7 C 0.7341(3) 0.4224(3) 0.6060(3)
C8 C 0.9124(3) 0.2320(3) 0.5762(3)
C9 C 0.9078(3) 0.2348(3) 0.5263(4)
H3 H 0.9209 0.2164 0.5064
C10 C 0.6464(3) 0.5128(3) 0.5078(4)
C11 C 0.7020(3) 0.3975(3) 0.5805(4)
H4 H 0.6991 0.3987 0.5470
C12 C 0.8539(3) 0.2977(3) 0.4349(4)
H5 H 0.8491 0.2987 0.4017
C13 C 0.7333(3) 0.4228(3) 0.6539(4)
H6 H 0.7511 0.4405 0.6701
C14 C 0.6728(3) 0.4839(3) 0.4350(4)
C15 C 0.8352(3) 0.3258(3) 0.4646(4)
C16 C 0.6730(3) 0.4851(3) 0.4832(4)
H7 H 0.6904 0.4680 0.5008
C17 C 0.7661(3) 0.4473(3) 0.5774(4)
C18 C 0.8078(3) 0.3584(3) 0.4424(4)
C19 C 0.7066(3) 0.3974(3) 0.6819(4)
C20 C 0.8632(3) 0.2929(3) 0.5355(4)
C21 C 0.8383(3) 0.3237(3) 0.5122(4)
H8 H 0.8244 0.3423 0.5312
C22 C 0.5939(4) 0.5647(3) 0.5063(4)
H9 H 0.5760 0.5811 0.4883
C23 C 0.6214(4) 0.5390(3) 0.4815(4)
C24 C 0.8790(4) 0.2686(3) 0.4536(4)
H10 H 0.8930 0.2512 0.4330
C25 C 0.5923(3) 0.5666(3) 0.5551(4)
C26 C 0.6993(3) 0.4528(3) 0.4095(4)
C27 C 0.7084(4) 0.3954(3) 0.7331(3)
H11 H 0.7262 0.4129 0.7496
C28 C 0.7490(4) 0.5660(3) 0.4609(5)
C29 C 0.8909(4) 0.2610(3) 0.6067(4)
H12 H 0.8932 0.2594 0.6402
C30 C 0.6194(4) 0.5418(3) 0.5824(4)
H13 H 0.6188 0.5427 0.6161
C31 C 0.5618(4) 0.5948(3) 0.5792(4)
C32 C 0.8837(4) 0.2651(3) 0.5053(3)
C33 C 0.7745(3) 0.5336(3) 0.4813(4)
C34 C 0.6484(4) 0.5094(3) 0.4078(5)
H14 H 0.6493 0.5082 0.3741
C35 C 0.6467(4) 0.5164(3) 0.5590(4)
H15 H 0.6658 0.5012 0.5771
C36 C 0.6856(3) 0.3697(3) 0.7589(4)
H16 H 0.6887 0.3683 0.7924
C37 C 0.7032(4) 0.6288(4) 0.4258(5)
C38 C 0.8683(4) 0.2895(3) 0.5867(4)
H17 H 0.8552 0.3078 0.6066
C39 C 0.6471(4) 0.6988(4) 0.3309(7)
C40 C 0.6234(4) 0.5359(4) 0.4299(5)
H18 H 0.6068 0.5528 0.4111
C41 C 0.7267(5) 0.5928(3) 0.4921(5)
H19 H 0.7263 0.5889 0.5254
C42 C 0.7442(4) 0.5685(3) 0.4119(5)
H20 H 0.7561 0.5501 0.3912
C43 C 0.7199(4) 0.6014(3) 0.3938(4)
C44 C 0.7053(6) 0.6254(5) 0.4717(7)
H21 H 0.6928 0.6441 0.4916
C45 C 0.6763(4) 0.6659(4) 0.3564(5)
C46 C 0.6927(5) 0.6393(4) 0.3244(6)
H22 H 0.6881 0.6413 0.2911
C47 C 0.7183(6) 0.6069(5) 0.3457(7)
H23 H 0.7335 0.5901 0.3254
C48 C 0.6776(5) 0.6624(4) 0.4032(5)
H24 H 0.6631 0.6802 0.4229
Cd1C Cd 0.50294(2) 0.64372(2) 0.61871(2)
Cd1O Cd 1.00294(2) 0.14372(2) 0.61871(2)
Cd2J Cd 0.58911(2) 0.75218(2) 0.30317(2)
Cd2N Cd 0.58911(2) 0.25218(2) 0.80317(2)
K1N K 0.53907(9) 0.30505(8) 0.71299(12)
K1O K 0.96093(9) 0.19495(8) 0.71299(12)
O1F O 0.85288(19) 0.45709(16) 0.4888(2)
O3K O 0.8108(2) 0.44732(19) 0.3927(2)
O8F O 0.8910(2) 0.4436(2) 0.5538(3)
O10G O 0.7155(2) 0.3630(2) 0.3045(3)
O11K O 0.7917(2) 0.4273(2) 0.3189(2)
O13G O 0.6868(3) 0.3475(2) 0.3752(3)
O15B O 0.8990(3) 0.5446(2) 0.5394(3)
O16B O 0.8724(3) 0.5332(2) 0.6116(4)
C49 C 0.6213(6) 0.6205(5) 0.7252(6)
H25 H 0.5919 0.6300 0.7212
H26 H 0.6418 0.6414 0.7211
H27 H 0.6246 0.6098 0.7571
O17 O 0.6295(6) 0.5925(5) 0.6913(6)
H28 H 0.6416 0.6022 0.6677
N1 N 0.7500 0.7500 0.2106(10)
H29 H 0.7467 0.7295 0.2298
C50 C 0.7080(6) 0.7553(5) 0.1828(8)
H30 H 0.7146 0.7607 0.1495
H31 H 0.6917 0.7765 0.1963
H32 H 0.6907 0.7321 0.1849
H29M H 0.7533 0.7705 0.2298
C50M C 0.7920(6) 0.7447(5) 0.1828(8)
H30M H 0.7854 0.7393 0.1495
H31M H 0.8083 0.7235 0.1963
H32M H 0.8093 0.7679 0.1849
loop_
_geom_bond_atom_site_label_1
_geom_bond_atom_site_label_2
_geom_bond_site_symmetry_1
_geom_bond_site_symmetry_2
Cd1 O2 1_555 1_555
Cd2 O7 1_555 1_555
K1 O2 1_555 1_555
O1 C5 1_555 1_555
O2 C26 1_555 1_555
O3 C3 1_555 1_555
O4 K1 1_555 1_555
O5 Cd1 1_555 1_555
O6 K1 1_555 1_555
O7 C17 1_555 1_555
O8 C5 1_555 1_555
O9 K1 1_555 1_555
O10 C31 1_555 1_555
O11 C3 1_555 1_555
O12 Cd2 1_555 1_555
O13 C31 1_555 1_555
O14 Cd1 1_555 1_555
O15 C39 1_555 1_555
C1 H1 1_555 1_555
O16 C39 1_555 1_555
C2 C1 1_555 1_555
C3 C8 1_555 1_555
C4 C1 1_555 1_555
C5 C2 1_555 1_555
C6 C4 1_555 1_555
H2 C6 1_555 1_555
C7 C11 1_555 1_555
C8 C9 1_555 1_555
C9 H3 1_555 1_555
C10 C16 1_555 1_555
C11 C6 1_555 1_555
H4 C11 1_555 1_555
C12 H5 1_555 1_555
C13 C7 1_555 1_555
H6 C13 1_555 1_555
C14 C16 1_555 1_555
C15 C12 1_555 1_555
C16 H7 1_555 1_555
C17 O6 1_555 1_555
C18 O5 1_555 1_555
C19 C4 1_555 1_555
C20 C21 1_555 1_555
C21 C15 1_555 1_555
H8 C21 1_555 1_555
C22 H9 1_555 1_555
C23 C10 1_555 1_555
C24 C12 1_555 1_555
H10 C24 1_555 1_555
C25 C22 1_555 1_555
C26 O14 1_555 1_555
C27 C19 1_555 1_555
H11 C27 1_555 1_555
C28 C33 1_555 1_555
C29 C8 1_555 1_555
H12 C29 1_555 1_555
C30 C25 1_555 1_555
H13 C30 1_555 1_555
C31 C25 1_555 1_555
C32 C9 1_555 1_555
C33 O4 1_555 1_555
C34 C14 1_555 1_555
H14 C34 1_555 1_555
C35 C10 1_555 1_555
H15 C35 1_555 1_555
C36 C2 1_555 1_555
H16 C36 1_555 1_555
C37 C43 1_555 1_555
C38 C20 1_555 1_555
H17 C38 1_555 1_555
C39 C45 1_555 1_555
C40 C23 1_555 1_555
H18 C40 1_555 1_555
C41 C28 1_555 1_555
H19 C41 1_555 1_555
C42 C28 1_555 1_555
H20 C42 1_555 1_555
C43 C42 1_555 1_555
C44 C37 1_555 1_555
H21 C44 1_555 1_555
C45 C46 1_555 1_555
C46 H22 1_555 1_555
C47 C43 1_555 1_555
H23 C47 1_555 1_555
C48 C37 1_555 1_555
H24 C48 1_555 1_555
C49 H25 1_555 1_555
H26 C49 1_555 1_555
H27 C49 1_555 1_555
O17 C49 1_555 1_555
H28 O17 1_555 1_555
N1 H29 1_555 1_555
C50 N1 1_555 1_555
H30 C50 1_555 1_555
H31 C50 1_555 1_555
H32 C50 1_555 1_555
Cd1C O10 1_555 1_555
Cd1O O3 1_555 1_555
Cd2J O15 1_555 1_555
Cd2N O1 1_555 1_555
K1N O1 1_555 1_555
K1O O3 1_555 1_555
O1F Cd2 1_555 1_555
O3K Cd1 1_555 1_555
O8F Cd2 1_555 1_555
O10G Cd1 1_555 1_555
O11K Cd1 1_555 1_555
O13G Cd1 1_555 1_555
O15B Cd2 1_555 1_555
O16B Cd2 1_555 1_555
H29M N1 1_555 1_555
C50M N1 1_555 1_555
H30M C50M 1_555 1_555
H31M C50M 1_555 1_555
H32M C50M 1_555 1_555
K1 O1F 1_555 1_555
K1 O3K 1_555 1_555
O8 Cd2N 1_555 1_555
O9 C18 1_555 1_555
O11 Cd1O 1_555 1_555
O12 C33 1_555 1_555
O13 Cd1C 1_555 1_555
O16 Cd2J 1_555 1_555
C7 C17 1_555 1_555
C13 C19 1_555 1_555
C14 C26 1_555 1_555
C15 C18 1_555 1_555
C20 C32 1_555 1_555
C22 C23 1_555 1_555
C24 C32 1_555 1_555
C27 C36 1_555 1_555
C29 C38 1_555 1_555
C30 C35 1_555 1_555
C34 C40 1_555 1_555
C41 C44 1_555 1_555
C45 C48 1_555 1_555
C46 C47 1_555 1_555

#END
