
#######################################################################
#
#                 Cambridge Crystallographic Data Centre
#                                CCDC 
#
#######################################################################
#
# If this CIF has been generated from an entry in the Cambridge 
# Structural Database, then it will include bibliographic, chemical, 
# crystal, experimental, refinement or atomic coordinate data resulting 
# from the CCDC's data processing and validation procedures.
#
#######################################################################

data_JOTHOP
_chemical_formula_moiety         '(C6 H2 N3 O13 P3 Sn4 1-)n'
_symmetry_cell_setting           triclinic
_symmetry_space_group_name_H-M   'P -1'
_symmetry_Int_Tables_number      2
_space_group_name_Hall           '-P 1'
loop_
_symmetry_equiv_pos_site_id
_symmetry_equiv_pos_as_xyz
1 x,y,z
2 -x,-y,-z
_cell_length_a                   9.417(1)
_cell_length_b                   9.754(1)
_cell_length_c                   11.002(1)
_cell_angle_alpha                80.51(1)
_cell_angle_beta                 71.64(2)
_cell_angle_gamma                61.68(1)
_cell_volume                     844.189
loop_
_atom_site_label
_atom_site_type_symbol
_atom_site_fract_x
_atom_site_fract_y
_atom_site_fract_z
O14 O -0.5709(10) 0.2936(10) 0.6841(9)
C1 C -0.4502(27) 0.2463(26) 0.9523(21)
N1 N -0.5120(28) 0.4276(26) 0.9832(22)
C2 C -0.5592(31) 0.2146(29) 0.9921(23)
C3 C -0.4134(65) 0.0525(62) 0.9656(51)
C4 C -0.5290(83) 0.0326(72) 0.9657(56)
N2 N -0.5307(23) 0.0162(22) 0.8310(18)
N1A N -0.4880(28) 0.5724(26) 1.0168(22)
C4A C -0.4710(83) -0.0326(72) 1.0343(56)
C3A C -0.5866(65) -0.0525(62) 1.0344(51)
P1 P -0.3711(3) 0.2613(3) 0.2849(3)
P2 P -0.9900(3) 0.5970(3) 0.1735(3)
P3 P -0.8772(3) 0.1192(3) 0.4185(3)
O1 O -0.8615(9) 0.5479(8) 0.2499(7)
O2 O -0.8102(9) 0.2260(9) 0.3290(7)
O3 O -0.5407(9) 0.3197(8) 0.2572(7)
O4 O -0.4052(10) 0.2876(13) 0.4250(8)
O5 O -0.7503(9) -0.0484(8) 0.3790(7)
O6 O -1.0489(9) 0.1559(8) 0.4048(7)
O7 O -0.2825(11) 0.3526(11) 0.2003(10)
O8 O -1.0936(9) 0.5043(9) 0.2165(7)
O9 O -0.8921(9) 0.5651(8) 0.0320(7)
O10 O -0.8920(10) 0.1477(9) 0.5563(7)
O11 O -0.2663(12) 0.0897(9) 0.2534(11)
O12 O -1.1119(9) 0.7711(8) 0.1956(8)
Sn1 Sn -0.7760(1) 0.3959(1) 0.3973(1)
Sn2 Sn -0.2892(1) 0.2752(1) 0.5594(1)
Sn3 Sn -0.0279(1) 0.2992(1) 0.1284(1)
Sn4 Sn -0.0281(1) -0.0867(1) 0.2530(1)
Sn2A Sn -0.7108(1) -0.2752(1) 0.4406(1)
Sn2_2 Sn -1.2892(1) 0.2752(1) 0.5594(1)
Sn3_2 Sn -1.0279(1) 0.2992(1) 0.1284(1)
Sn3A Sn -0.9721(1) 0.7008(1) -0.1284(1)
Sn4A Sn -0.9719(1) 0.0867(1) 0.7470(1)
Sn4_2 Sn -1.0281(1) 0.9133(1) 0.2530(1)
O5A O -0.2497(9) 0.0484(8) 0.6210(7)
O6_2 O -0.0489(9) 0.1559(8) 0.4048(7)
O8_2 O -0.0936(9) 0.5043(9) 0.2165(7)
O9A O -0.1079(9) 0.4349(8) -0.0320(7)
O10A O -0.1080(10) -0.1477(9) 0.4437(7)
O12_2 O -0.1119(9) -0.2289(8) 0.1956(8)
loop_
_geom_bond_atom_site_label_1
_geom_bond_atom_site_label_2
_geom_bond_site_symmetry_1
_geom_bond_site_symmetry_2
P1 O3 1_555 1_555
P2 O1 1_555 1_555
P3 O2 1_555 1_555
O1 Sn1 1_555 1_555
O2 Sn1 1_555 1_555
O3 Sn1 1_555 1_555
O4 P1 1_555 1_555
O5 P3 1_555 1_555
O6 P3 1_555 1_555
O7 P1 1_555 1_555
O8 P2 1_555 1_555
O9 P2 1_555 1_555
O10 P3 1_555 1_555
O11 P1 1_555 1_555
O12 P2 1_555 1_555
C1 N1 1_555 1_555
N1 N1A 1_555 1_555
C2 C1 1_555 1_555
C3 C1 1_555 1_555
C4 C2 1_555 1_555
N2 C4 1_555 1_555
Sn2 O4 1_555 1_555
Sn3 O7 1_555 1_555
Sn4 O11 1_555 1_555
Sn2A O5 1_555 1_555
Sn2_2 O6 1_555 1_555
Sn3_2 O8 1_555 1_555
Sn3A O9 1_555 1_555
Sn4A O10 1_555 1_555
Sn4_2 O12 1_555 1_555
C4A C3 1_555 1_555
C3A C4 1_555 1_555
O5A Sn2 1_555 1_555
O6_2 Sn2 1_555 1_555
O8_2 Sn3 1_555 1_555
O9A Sn3 1_555 1_555
O10A Sn4 1_555 1_555
O12_2 Sn4 1_555 1_555
C2 C3 1_555 1_555
C3 C4 1_555 1_555
C4 C4A 1_555 1_555
C4A C3A 1_555 1_555

#END
