
#######################################################################
#
#                 Cambridge Crystallographic Data Centre
#                                CCDC 
#
#######################################################################
#
# If this CIF has been generated from an entry in the Cambridge 
# Structural Database, then it will include bibliographic, chemical, 
# crystal, experimental, refinement or atomic coordinate data resulting 
# from the CCDC's data processing and validation procedures.
#
#######################################################################

data_LAGCUU
_chemical_formula_moiety         '(C20 H34 Ag2 N6 O4 P2)n'
_symmetry_cell_setting           orthorhombic
_symmetry_space_group_name_H-M   'P b c n'
_symmetry_Int_Tables_number      60
_space_group_name_Hall           '-P 2n 2ab'
loop_
_symmetry_equiv_pos_site_id
_symmetry_equiv_pos_as_xyz
1 x,y,z
2 1/2-x,1/2-y,1/2+z
3 1/2+x,1/2-y,-z
4 -x,y,1/2-z
5 -x,-y,-z
6 1/2+x,1/2+y,1/2-z
7 1/2-x,1/2+y,z
8 x,-y,1/2+z
_cell_length_a                   20.9473(8)
_cell_length_b                   13.3532(4)
_cell_length_c                   11.1554(4)
_cell_angle_alpha                90
_cell_angle_beta                 90
_cell_angle_gamma                90
_cell_volume                     3120.32
loop_
_atom_site_label
_atom_site_type_symbol
_atom_site_fract_x
_atom_site_fract_y
_atom_site_fract_z
_atom_site_U_iso_or_equiv
_atom_site_thermal_displace_type
C1 C 0.6031(3) 0.0669(6) 0.3406(6) 0.0207 Uani
C2 C 0.5446(3) 0.0192(5) 0.4011(6) 0.0203 Uani
H1 H 0.5270 -0.0314 0.3439 0.0240 Uiso
C3 C 0.5663(3) -0.0384(6) 0.5146(6) 0.0217 Uani
H2 H 0.5994 -0.0881 0.4929 0.0260 Uiso
H3 H 0.5850 0.0090 0.5732 0.0260 Uiso
C4 C 0.4911(3) 0.0920(5) 0.4290(6) 0.0220 Uani
H4 H 0.4775 0.1257 0.3542 0.0260 Uiso
H5 H 0.5070 0.1440 0.4848 0.0260 Uiso
C5 C 0.7388(3) 0.2854(5) -0.0464(5) 0.0140 Uani
H6 H 0.7855 0.2743 -0.0444 0.0170 Uiso
H7 H 0.7201 0.2372 -0.1040 0.0170 Uiso
C6 C 0.7351(3) 0.3740(4) 0.1811(5) 0.0130 Uani
H8 H 0.7145 0.3791 0.2608 0.0160 Uiso
H9 H 0.7817 0.3675 0.1937 0.0160 Uiso
C7 C 0.6230(3) 0.3064(5) 0.0730(6) 0.0153 Uani
H10 H 0.6014 0.2587 0.0184 0.0180 Uiso
H11 H 0.5984 0.3088 0.1488 0.0180 Uiso
C8 C 0.6566(3) 0.4062(5) -0.0990(5) 0.0157 Uani
H12 H 0.6497 0.4716 -0.1389 0.0190 Uiso
H13 H 0.6376 0.3537 -0.1504 0.0190 Uiso
C9 C 0.7531(3) 0.4632(5) -0.0079(5) 0.0150 Uani
H14 H 0.7497 0.5297 -0.0466 0.0180 Uiso
H15 H 0.7990 0.4485 0.0035 0.0180 Uiso
C10 C 0.6529(3) 0.4829(5) 0.0951(6) 0.0163 Uani
H16 H 0.6455 0.5498 0.0595 0.0200 Uiso
H17 H 0.6318 0.4816 0.1745 0.0200 Uiso
N1 N 0.7259(3) 0.3880(4) -0.0883(4) 0.0153 Uani
N2 N 0.7219(3) 0.4682(4) 0.1115(4) 0.0130 Uani
N3 N 0.6234(2) 0.4066(4) 0.0178(5) 0.0157 Uani
O1 O 0.6405(2) 0.0078(4) 0.2852(4) 0.0263 Uani
O2 O 0.6134(2) 0.1577(4) 0.3514(5) 0.0337 Uani
P1 P 0.70538(8) 0.26124(11) 0.10432(14) 0.0126 Uani
Ag1 Ag 0.72215(2) 0.10856(3) 0.20979(4) 0.0153 Uani
C1D C 0.3969(3) -0.0669(6) 0.6594(6) 0.0207 Uani
C2D C 0.4554(3) -0.0192(5) 0.5989(6) 0.0203 Uani
H1D H 0.4730 0.0314 0.6561 0.0240 Uiso
C3D C 0.4337(3) 0.0384(6) 0.4854(6) 0.0217 Uani
H2D H 0.4006 0.0881 0.5071 0.0260 Uiso
H3D H 0.4150 -0.0090 0.4268 0.0260 Uiso
C4D C 0.5089(3) -0.0920(5) 0.5710(6) 0.0220 Uani
H4D H 0.5225 -0.1257 0.6458 0.0260 Uiso
H5D H 0.4930 -0.1440 0.5152 0.0260 Uiso
O1D O 0.3595(2) -0.0078(4) 0.7148(4) 0.0263 Uani
O2D O 0.3866(2) -0.1577(4) 0.6486(5) 0.0337 Uani
C5D C 0.2612(3) -0.2854(5) 1.0464(5) 0.0140 Uani
H6D H 0.2145 -0.2743 1.0444 0.0170 Uiso
H7D H 0.2799 -0.2372 1.1040 0.0170 Uiso
C6D C 0.2649(3) -0.3740(4) 0.8189(5) 0.0130 Uani
H8D H 0.2855 -0.3791 0.7392 0.0160 Uiso
H9D H 0.2183 -0.3675 0.8063 0.0160 Uiso
C7D C 0.3770(3) -0.3064(5) 0.9270(6) 0.0153 Uani
H10D H 0.3986 -0.2587 0.9816 0.0180 Uiso
H11D H 0.4016 -0.3088 0.8512 0.0180 Uiso
C8D C 0.3434(3) -0.4062(5) 1.0990(5) 0.0157 Uani
H12D H 0.3503 -0.4716 1.1389 0.0190 Uiso
H13D H 0.3624 -0.3537 1.1504 0.0190 Uiso
C9D C 0.2469(3) -0.4632(5) 1.0079(5) 0.0150 Uani
H14D H 0.2503 -0.5297 1.0466 0.0180 Uiso
H15D H 0.2010 -0.4485 0.9965 0.0180 Uiso
C10D C 0.3471(3) -0.4829(5) 0.9049(6) 0.0163 Uani
H16D H 0.3545 -0.5498 0.9405 0.0200 Uiso
H17D H 0.3682 -0.4816 0.8255 0.0200 Uiso
N1D N 0.2741(3) -0.3880(4) 1.0883(4) 0.0153 Uani
N2D N 0.2781(3) -0.4682(4) 0.8885(4) 0.0130 Uani
N3D N 0.3766(2) -0.4066(4) 0.9822(5) 0.0157 Uani
P1D P 0.29462(8) -0.26124(11) 0.89568(14) 0.0126 Uani
Ag1D Ag 0.27785(2) -0.10856(3) 0.79021(4) 0.0153 Uani
N1A N 0.7741(3) 0.1120(4) 0.4117(4) 0.0153 Uani
N1E N 0.2259(3) -0.1120(4) 0.5883(4) 0.0153 Uani
N2B N 0.2219(3) 0.0318(4) 0.8885(4) 0.0130 Uani
N2F N 0.7781(3) -0.0318(4) 0.1115(4) 0.0130 Uani
Ag1A Ag 0.77785(2) 0.39144(3) -0.29021(4) 0.0153 Uani
Ag1B Ag 0.22215(2) -0.60856(3) 0.79021(4) 0.0153 Uani
Ag1E Ag 0.22215(2) -0.39144(3) 1.29021(4) 0.0153 Uani
Ag1F Ag 0.77785(2) 0.60856(3) 0.20979(4) 0.0153 Uani
loop_
_atom_site_aniso_label
_atom_site_aniso_U_11
_atom_site_aniso_U_22
_atom_site_aniso_U_33
_atom_site_aniso_U_23
_atom_site_aniso_U_13
_atom_site_aniso_U_12
C1 0.010(3) 0.033(4) 0.019(3) 0.009(3) 0.000(3) -0.001(3)
C2 0.012(3) 0.033(4) 0.016(3) 0.006(3) 0.002(3) 0.000(3)
C3 0.013(3) 0.032(4) 0.020(3) 0.005(3) -0.002(3) 0.002(3)
C4 0.024(4) 0.029(4) 0.013(3) 0.006(3) 0.004(3) 0.005(3)
C5 0.022(3) 0.013(3) 0.007(3) 0.005(2) 0.007(2) 0.000(2)
C6 0.019(3) 0.011(3) 0.009(3) 0.004(2) -0.005(2) 0.000(2)
C7 0.023(3) 0.014(3) 0.009(3) 0.004(2) 0.003(3) -0.004(3)
C8 0.021 0.015 0.011 0.001 -0.002 -0.002
C9 0.018 0.012 0.015 -0.002 0.002 -0.003
C10 0.024 0.011 0.014 0 -0.001 0.005
N1 0.025 0.011 0.01 0.004 0.001 -0.003
N2 0.024 0.007 0.008 -0.001 0 -0.001
N3 0.017(3) 0.020(3) 0.010(2) 0.002(2) -0.003(2) -0.001(2)
O1 0.019(2) 0.035(3) 0.025(3) 0.009(2) 0.005(2) 0.002(2)
O2 0.023(3) 0.033(3) 0.045(3) 0.005(3) 0.005(2) -0.004(2)
P1 0.0207(8) 0.0074(7) 0.0098(7) 0.0008(6) 0.0018(6) -0.0010(6)
Ag1 0.0236(3) 0.0094(2) 0.0128(2) 0.00194(18) 0.0018(2) -0.00089(19)
C1D 0.01 0.033 0.019 0.009 0 -0.001
C2D 0.012 0.033 0.016 0.006 0.002 0
C3D 0.013 0.032 0.02 0.005 -0.002 0.002
C4D 0.024 0.029 0.013 0.006 0.004 0.005
O1D 0.019 0.035 0.025 0.009 0.005 0.002
O2D 0.023 0.033 0.045 0.005 0.005 -0.004
C5D 0.022 0.013 0.007 0.005 0.007 0
C6D 0.019 0.011 0.009 0.004 -0.005 0
C7D 0.023 0.014 0.009 0.004 0.003 -0.004
C8D 0.021 0.015 0.011 0.001 -0.002 -0.002
C9D 0.018 0.012 0.015 -0.002 0.002 -0.003
C10D 0.024 0.011 0.014 0 -0.001 0.005
N1D 0.025 0.011 0.01 0.004 0.001 -0.003
N2D 0.024 0.007 0.008 -0.001 0 -0.001
N3D 0.017 0.02 0.01 0.002 -0.003 -0.001
P1D 0.0207 0.0074 0.0098 0.0008 0.0018 -0.001
Ag1D 0.0236 0.0094 0.0128 0.00194 0.0018 -0.00089
N1A 0.025 0.011 0.01 -0.004 -0.001 -0.003
N1E 0.025 0.011 0.01 -0.004 -0.001 -0.003
N2B 0.024 0.007 0.008 -0.001 0 0.001
N2F 0.024 0.007 0.008 -0.001 0 0.001
Ag1A 0.0236 0.0094 0.0128 -0.00194 -0.0018 -0.00089
Ag1B 0.0236 0.0094 0.0128 0.00194 -0.0018 0.00089
Ag1E 0.0236 0.0094 0.0128 -0.00194 -0.0018 -0.00089
Ag1F 0.0236 0.0094 0.0128 0.00194 -0.0018 0.00089
loop_
_geom_bond_atom_site_label_1
_geom_bond_atom_site_label_2
_geom_bond_site_symmetry_1
_geom_bond_site_symmetry_2
C1 C2 1_555 1_555
C2 H1 1_555 1_555
C3 C2 1_555 1_555
H2 C3 1_555 1_555
H3 C3 1_555 1_555
C4 C2 1_555 1_555
H4 C4 1_555 1_555
H5 C4 1_555 1_555
C5 H6 1_555 1_555
H7 C5 1_555 1_555
C6 H8 1_555 1_555
H9 C6 1_555 1_555
C7 H10 1_555 1_555
H11 C7 1_555 1_555
C8 H12 1_555 1_555
H13 C8 1_555 1_555
C9 H14 1_555 1_555
H15 C9 1_555 1_555
C10 H16 1_555 1_555
H17 C10 1_555 1_555
N1 C5 1_555 1_555
N2 C6 1_555 1_555
N3 C7 1_555 1_555
O1 C1 1_555 1_555
O2 C1 1_555 1_555
P1 C5 1_555 1_555
Ag1 O1 1_555 1_555
C1D C2D 1_555 1_555
C2D H1D 1_555 1_555
C3D C4 1_555 1_555
H2D C3D 1_555 1_555
H3D C3D 1_555 1_555
C4D C3 1_555 1_555
H4D C4D 1_555 1_555
H5D C4D 1_555 1_555
O1D C1D 1_555 1_555
O2D C1D 1_555 1_555
C5D H6D 1_555 1_555
H7D C5D 1_555 1_555
C6D H8D 1_555 1_555
H9D C6D 1_555 1_555
C7D H10D 1_555 1_555
H11D C7D 1_555 1_555
C8D H12D 1_555 1_555
H13D C8D 1_555 1_555
C9D H14D 1_555 1_555
H15D C9D 1_555 1_555
C10D H16D 1_555 1_555
H17D C10D 1_555 1_555
N1D C5D 1_555 1_555
N2D C6D 1_555 1_555
N3D C7D 1_555 1_555
P1D C5D 1_555 1_555
Ag1D O1D 1_555 1_555
N1A Ag1 1_555 1_555
N1E Ag1D 1_555 1_555
N2B Ag1D 1_555 1_555
N2F Ag1 1_555 1_555
Ag1A N1 1_555 1_555
Ag1B N2D 1_555 1_555
Ag1E N1D 1_555 1_555
Ag1F N2 1_555 1_555
C6 P1 1_555 1_555
C7 P1 1_555 1_555
C8 N1 1_555 1_555
C8 N3 1_555 1_555
C9 N1 1_555 1_555
C9 N2 1_555 1_555
C10 N2 1_555 1_555
C10 N3 1_555 1_555
P1 Ag1 1_555 1_555
C2D C3D 1_555 1_555
C2D C4D 1_555 1_555
C6D P1D 1_555 1_555
C7D P1D 1_555 1_555
C8D N1D 1_555 1_555
C8D N3D 1_555 1_555
C9D N1D 1_555 1_555
C9D N2D 1_555 1_555
C10D N2D 1_555 1_555
C10D N3D 1_555 1_555
P1D Ag1D 1_555 1_555

#END
