
#######################################################################
#
#                 Cambridge Crystallographic Data Centre
#                                CCDC 
#
#######################################################################
#
# If this CIF has been generated from an entry in the Cambridge 
# Structural Database, then it will include bibliographic, chemical, 
# crystal, experimental, refinement or atomic coordinate data resulting 
# from the CCDC's data processing and validation procedures.
#
#######################################################################

data_HEZPIL01
_chemical_formula_moiety         '(C3 H18 N2 O15 P2 V3)n'
_symmetry_cell_setting           orthorhombic
_symmetry_space_group_name_H-M   'P n m a'
_symmetry_Int_Tables_number      62
_space_group_name_Hall           '-P 2ac 2n'
loop_
_symmetry_equiv_pos_site_id
_symmetry_equiv_pos_as_xyz
1 x,y,z
2 1/2+x,y,1/2-z
3 x,1/2-y,z
4 1/2-x,1/2+y,1/2+z
5 -x,-y,-z
6 1/2-x,-y,1/2+z
7 -x,1/2+y,-z
8 1/2+x,1/2-y,1/2-z
_cell_length_a                   10.464(2)
_cell_length_b                   17.142(3)
_cell_length_c                   8.4481(17)
_cell_angle_alpha                90
_cell_angle_beta                 90
_cell_angle_gamma                90
_cell_volume                     1515.37
loop_
_atom_site_label
_atom_site_type_symbol
_atom_site_fract_x
_atom_site_fract_y
_atom_site_fract_z
_atom_site_U_iso_or_equiv
_atom_site_thermal_displace_type
V1 V 0.85891(4) 0.43838(2) 0.22045(4) 0.0101 Uani
V2 V 0.71662(5) 0.2500 0.32863(6) 0.0102 Uani
P1 P 0.62872(5) 0.41284(3) 0.47438(7) 0.0085 Uani
O1 O 0.71501(17) 0.41030(12) 0.0194(2) 0.0200 Uani
O2 O 0.84236(17) 0.32603(10) 0.2543(2) 0.0178 Uani
O3 O 0.66278(14) 0.45293(9) 0.63259(19) 0.0129 Uani
O4 O 0.48260(14) 0.41388(9) 0.45157(18) 0.0123 Uani
O5 O 0.67482(15) 0.32784(9) 0.49053(18) 0.0135 Uani
O6 O 0.69461(15) 0.45521(9) 0.33579(19) 0.0135 Uani
O7 O 0.6002(2) 0.2500 0.2062(3) 0.0248 Uani
O8 O 0.95592(16) 0.45951(10) 0.36269(19) 0.0168 Uani
H8 H 0.646(3) 0.412(2) 0.058(5) 0.0570 Uiso
H9 H 0.715(5) 0.442(3) -0.048(6) 0.1600 Uiso
H10 H 0.901(3) 0.310(2) 0.219(5) 0.0750 Uiso
O2B O 0.84236(17) 0.17397(10) 0.2543(2) 0.0178 Uani
H10B H 0.901(3) 0.190(2) 0.219(5) 0.0750 Uiso
P1B P 0.62872(5) 0.08716(3) 0.47438(7) 0.0085 Uani
O3B O 0.66278(14) 0.04707(9) 0.63259(19) 0.0129 Uani
O4B O 0.48260(14) 0.08612(9) 0.45157(18) 0.0123 Uani
O5B O 0.67482(15) 0.17216(9) 0.49053(18) 0.0135 Uani
O6B O 0.69461(15) 0.04479(9) 0.33579(19) 0.0135 Uani
V1B V 0.85891(4) 0.06162(2) 0.22045(4) 0.0101 Uani
O1B O 0.71501(17) 0.08970(12) 0.0194(2) 0.0200 Uani
H8B H 0.646(3) 0.088(2) 0.058(5) 0.0570 Uiso
H9B H 0.715(5) 0.058(3) -0.048(6) 0.1600 Uiso
O8B O 0.95592(16) 0.04049(10) 0.36269(19) 0.0168 Uani
O3E O 0.83722(14) 0.54707(9) 0.13259(19) 0.0129 Uani
O4A O 0.98260(14) 0.41388(9) 0.04843(18) 0.0123 Uani
V1E V 0.64109(4) 0.56162(2) 0.72045(4) 0.0101 Uani
V1A V 0.35891(4) 0.43838(2) 0.27955(4) 0.0101 Uani
V1C V 0.64109(4) -0.06162(2) 0.72045(4) 0.0101 Uani
V1G V 0.35891(4) 0.06162(2) 0.27955(4) 0.0101 Uani
O3C O 0.83722(14) -0.04707(9) 0.13259(19) 0.0129 Uani
O4G O 0.98260(14) 0.08612(9) 0.04843(18) 0.0123 Uani
C1 C 0.0357(2) 0.67795(13) 0.3337(3) 0.0157 Uani
H1 H 0.0453 0.6798 0.4502 0.0190 Uiso
H2 H -0.0568 0.6779 0.3090 0.0190 Uiso
N1 N 0.09459(19) 0.60504(11) 0.2723(2) 0.0151 Uani
H3 H 0.0875 0.6038 0.1649 0.0230 Uiso
H4 H 0.0537 0.5630 0.3144 0.0230 Uiso
H5 H 0.1786 0.6037 0.2998 0.0230 Uiso
C2 C 0.0975(3) 0.7500 0.2612(4) 0.0166 Uani
H6 H 0.1904 0.7500 0.2830 0.0200 Uiso
H7 H 0.0849 0.7500 0.1450 0.0200 Uiso
C1B C 0.0357(2) 0.82205(13) 0.3337(3) 0.0157 Uani
H1B H 0.0453 0.8202 0.4502 0.0190 Uiso
H2B H -0.0568 0.8221 0.3090 0.0190 Uiso
N1B N 0.09459(19) 0.89496(11) 0.2723(2) 0.0151 Uani
H3B H 0.0875 0.8962 0.1649 0.0230 Uiso
H4B H 0.0537 0.9370 0.3144 0.0230 Uiso
H5B H 0.1786 0.8963 0.2998 0.0230 Uiso
loop_
_atom_site_aniso_label
_atom_site_aniso_U_11
_atom_site_aniso_U_22
_atom_site_aniso_U_33
_atom_site_aniso_U_23
_atom_site_aniso_U_13
_atom_site_aniso_U_12
V1 0.0099(2) 0.0092(2) 0.0113(2) 0.00049(14) 0.00033(14) -0.00052(13)
V2 0.0106(3) 0.0073(3) 0.0126(3) 0.000 0.00002(19) 0.000
P1 0.0083 0.0057 0.0114 0 0.00059 0.0003
O1 0.0164(9) 0.0251(10) 0.0186(9) 0.0003(8) 0.0006(7) -0.0024(8)
O2 0.0181(9) 0.0090(8) 0.0264(10) 0.0004(7) 0.0088(7) 0.0003(7)
O3 0.0139 0.0097 0.0152 -0.0018 -0.0029 0.0018
O4 0.011 0.0126 0.0133 0.0005 -0.0016 -0.0004
O5 0.0189 0.0063 0.0153 -0.0001 0.0024 0.0018
O6 0.0131 0.0102 0.0171 0.0025 0.0045 0.0002
O7 0.0205(13) 0.0323(16) 0.0217(13) 0.000 -0.0062(10) 0.000
O8 0.0175(8) 0.0176(8) 0.0152(8) 0.0009(7) -0.0009(6) -0.0016(7)
O2B 0.0181 0.009 0.0264 -0.0004 0.0088 -0.0003
P1B 0.0083 0.0057 0.0114 0 0.00059 -0.0003
O3B 0.0139 0.0097 0.0152 0.0018 -0.0029 -0.0018
O4B 0.011 0.0126 0.0133 -0.0005 -0.0016 0.0004
O5B 0.0189 0.0063 0.0153 0.0001 0.0024 -0.0018
O6B 0.0131 0.0102 0.0171 -0.0025 0.0045 -0.0002
V1B 0.0099 0.0092 0.0113 -0.00049 0.00033 0.00052
O1B 0.0164 0.0251 0.0186 -0.0003 0.0006 0.0024
O8B 0.0175 0.0176 0.0152 -0.0009 -0.0009 0.0016
O3E 0.0139 0.0097 0.0152 0.0018 0.0029 0.0018
O4A 0.0110(8) 0.0126(8) 0.0133(8) -0.0005(6) 0.0016(6) -0.0004(6)
V1E 0.0099 0.0092 0.0113 -0.00049 -0.00033 -0.00052
V1A 0.0099 0.0092 0.0113 -0.00049 -0.00033 -0.00052
V1C 0.0099 0.0092 0.0113 0.00049 -0.00033 0.00052
V1G 0.0099 0.0092 0.0113 0.00049 -0.00033 0.00052
O3C 0.0139 0.0097 0.0152 -0.0018 0.0029 -0.0018
O4G 0.011 0.0126 0.0133 0.0005 0.0016 0.0004
C1 0.0168(11) 0.0097(10) 0.0207(12) -0.0020(9) 0.0003(9) 0.0002(9)
N1 0.0163(10) 0.0101(10) 0.0190(10) 0.0000(8) -0.0028(8) 0.0008(8)
C2 0.0199(16) 0.0121(16) 0.0177(16) 0.000 0.0010(14) 0.000
C1B 0.0168 0.0097 0.0207 0.002 0.0003 -0.0002
N1B 0.0163 0.0101 0.019 0 -0.0028 -0.0008
loop_
_geom_bond_atom_site_label_1
_geom_bond_atom_site_label_2
_geom_bond_site_symmetry_1
_geom_bond_site_symmetry_2
V1 O1 1_555 1_555
V2 O2 1_555 1_555
P1 O3 1_555 1_555
O1 H8 1_555 1_555
O2 V1 1_555 1_555
O3 V1E 1_555 1_555
O4 P1 1_555 1_555
O5 V2 1_555 1_555
O6 V1 1_555 1_555
O7 V2 1_555 1_555
O8 V1 1_555 1_555
C1 H1 1_555 1_555
H2 C1 1_555 1_555
N1 C1 1_555 1_555
H3 N1 1_555 1_555
H4 N1 1_555 1_555
H5 N1 1_555 1_555
C2 C1 1_555 1_555
H6 C2 1_555 1_555
H7 C2 1_555 1_555
H9 O1 1_555 1_555
H10 O2 1_555 1_555
C1B C2 1_555 1_555
H1B C1B 1_555 1_555
H2B C1B 1_555 1_555
N1B C1B 1_555 1_555
H3B N1B 1_555 1_555
H4B N1B 1_555 1_555
H5B N1B 1_555 1_555
O2B V2 1_555 1_555
H10B O2B 1_555 1_555
P1B O3B 1_555 1_555
O3B V1C 1_555 1_555
O4B P1B 1_555 1_555
O5B V2 1_555 1_555
O6B P1B 1_555 1_555
V1B O2B 1_555 1_555
O1B V1B 1_555 1_555
H8B O1B 1_555 1_555
H9B O1B 1_555 1_555
O8B V1B 1_555 1_555
O3E V1 1_555 1_555
O4A V1 1_555 1_555
V1A O4 1_555 1_555
V1G O4B 1_555 1_555
O3C V1B 1_555 1_555
O4G V1B 1_555 1_555
P1 O5 1_555 1_555
P1 O6 1_555 1_555
P1B O5B 1_555 1_555
O6B V1B 1_555 1_555

#END
