
#######################################################################
#
#                 Cambridge Crystallographic Data Centre
#                                CCDC 
#
#######################################################################
#
# If this CIF has been generated from an entry in the Cambridge 
# Structural Database, then it will include bibliographic, chemical, 
# crystal, experimental, refinement or atomic coordinate data resulting 
# from the CCDC's data processing and validation procedures.
#
#######################################################################

data_KACKIL
_chemical_formula_moiety         'C18 H6 Eu2 In4 O26'
_symmetry_cell_setting           tetragonal
_symmetry_space_group_name_H-M   'P 42/m c m'
_symmetry_Int_Tables_number      132
_space_group_name_Hall           '-P 4c 2c'
loop_
_symmetry_equiv_pos_site_id
_symmetry_equiv_pos_as_xyz
1 x,y,z
2 -y,x,1/2+z
3 -x,-y,z
4 y,-x,1/2+z
5 x,-y,1/2-z
6 -x,y,1/2-z
7 y,x,-z
8 -y,-x,-z
9 -x,-y,-z
10 y,-x,1/2-z
11 x,y,-z
12 -y,x,1/2-z
13 -x,y,1/2+z
14 x,-y,1/2+z
15 -y,-x,z
16 y,x,z
_cell_length_a                   12.6261(5)
_cell_length_b                   12.6261(5)
_cell_length_c                   29.234(3)
_cell_angle_alpha                90
_cell_angle_beta                 90
_cell_angle_gamma                90
_cell_volume                     4660.44
loop_
_atom_site_label
_atom_site_type_symbol
_atom_site_fract_x
_atom_site_fract_y
_atom_site_fract_z
Eu1 Eu 0.62749(5) 0.62749(5) 0.5000
In1 In 0.5000 1.0000 0.2500
O1 O 0.5127(8) 0.8807(7) 0.3166(4)
O2 O 0.3717(7) 0.9036(8) 0.2758(4)
C1 C 0.3673(7) 0.7678(7) 0.3320(3)
C2 C 0.4233(9) 0.8557(7) 0.3070(4)
C3 C 0.4060(8) 0.7255(8) 0.3718(3)
H1 H 0.4671 0.7562 0.3854
O3 O 0.4832(8) 0.6413(7) 0.4506(4)
C4 C 0.3592(9) 0.6408(9) 0.3925(7)
C5 C 0.2787(7) 0.7213(7) 0.3118(5)
H2 H 0.2502 0.7498 0.2844
C6 C 0.4044(13) 0.5956(13) 0.4344(8)
O4 O 0.7082(8) 0.7082(8) 0.5697(8)
O5 O 0.8133(13) 0.580(2) 0.5182(9)
O1N O 0.1193(7) 0.4873(8) 0.3166(4)
O2N O 0.0964(8) 0.6283(7) 0.2758(4)
C1N C 0.2322(7) 0.6327(7) 0.3320(3)
C2N C 0.1443(7) 0.5767(9) 0.3070(4)
C3N C 0.2745(8) 0.5940(8) 0.3718(3)
H1N H 0.2438 0.5329 0.3854
O3N O 0.3587(7) 0.5168(8) 0.4506(4)
O5J O 0.8133(13) 0.580(2) 0.4818(9)
O1B O 0.4873(8) 0.1193(7) 0.3166(4)
O2B O 0.6283(7) 0.0964(8) 0.2758(4)
C1B C 0.6327(7) 0.2322(7) 0.3320(3)
C2B C 0.5767(9) 0.1443(7) 0.3070(4)
C3B C 0.5940(8) 0.2745(8) 0.3718(3)
H1B H 0.5329 0.2438 0.3854
O3B O 0.5168(8) 0.3587(7) 0.4506(4)
C4B C 0.6408(9) 0.3592(9) 0.3925(7)
C5B C 0.7213(7) 0.2787(7) 0.3118(5)
H2B H 0.7498 0.2502 0.2844
C6B C 0.5956(13) 0.4044(13) 0.4344(8)
O1O O 0.8807(7) 0.5127(8) 0.3166(4)
O2O O 0.9036(8) 0.3717(7) 0.2758(4)
C1O C 0.7678(7) 0.3673(7) 0.3320(3)
C2O C 0.8557(7) 0.4233(9) 0.3070(4)
C3O C 0.7255(8) 0.4060(8) 0.3718(3)
H1O H 0.7562 0.4671 0.3854
O3O O 0.6413(7) 0.4832(8) 0.4506(4)
O5F O 0.580(2) 0.8133(13) 0.4818(9)
O5O O 0.580(2) 0.8133(13) 0.5182(9)
O4F O 0.7082(8) 0.7082(8) 0.4303(8)
Eu1B Eu 0.37251(5) 0.37251(5) 0.5000
In1_2 In 0.5000 -0.0000 0.2500
In1I In 0.0000 0.5000 0.2500
In1I_2 In 1.0000 0.5000 0.2500
O1B_2 O 0.4873(8) 1.1193(7) 0.3166(4)
O1D O 0.5127(8) 1.1193(7) 0.1834(4)
O1E O 0.4873(8) 0.8807(7) 0.1834(4)
O2B_2 O 0.6283(7) 1.0964(8) 0.2758(4)
O2D O 0.3717(7) 1.0964(8) 0.2242(4)
O2E O 0.6283(7) 0.9036(8) 0.2242(4)
O3F O 0.6413(7) 0.4832(8) 0.5494(4)
O3J O 0.4832(8) 0.6413(7) 0.5494(4)
loop_
_geom_bond_atom_site_label_1
_geom_bond_atom_site_label_2
_geom_bond_site_symmetry_1
_geom_bond_site_symmetry_2
Eu1 O3 1_555 1_555
In1 O1 1_555 1_555
O1 C2 1_555 1_555
O2 In1 1_555 1_555
C1 C2 1_555 1_555
C2 O2 1_555 1_555
C3 C1 1_555 1_555
H1 C3 1_555 1_555
O3 C6 1_555 1_555
C4 C3 1_555 1_555
C5 C1 1_555 1_555
H2 C5 1_555 1_555
C6 C4 1_555 1_555
O4 Eu1 1_555 1_555
O5 Eu1 1_555 1_555
O1N C2N 1_555 1_555
O2N C2N 1_555 1_555
C1N C5 1_555 1_555
C2N C1N 1_555 1_555
C3N C4 1_555 1_555
H1N C3N 1_555 1_555
O3N C6 1_555 1_555
O5J Eu1 1_555 1_555
O1B C2B 1_555 1_555
O2B C2B 1_555 1_555
C1B C2B 1_555 1_555
C3B C1B 1_555 1_555
H1B C3B 1_555 1_555
O3B C6B 1_555 1_555
C4B C3B 1_555 1_555
C5B C1B 1_555 1_555
H2B C5B 1_555 1_555
C6B C4B 1_555 1_555
O1O C2O 1_555 1_555
O2O C2O 1_555 1_555
C1O C5B 1_555 1_555
C2O C1O 1_555 1_555
C3O C4B 1_555 1_555
H1O C3O 1_555 1_555
O3O Eu1 1_555 1_555
O5F Eu1 1_555 1_555
O5O Eu1 1_555 1_555
O4F Eu1 1_555 1_555
Eu1B O3N 1_555 1_555
In1_2 O1B 1_555 1_555
In1I O1N 1_555 1_555
In1I_2 O1O 1_555 1_555
O1B_2 In1 1_555 1_555
O1D In1 1_555 1_555
O1E In1 1_555 1_555
O2B_2 In1 1_555 1_555
O2D In1 1_555 1_555
O2E In1 1_555 1_555
O3F Eu1 1_555 1_555
O3J Eu1 1_555 1_555
O5 O5J 1_555 1_555
O2N In1I 1_555 1_555
C1N C3N 1_555 1_555
O2B In1_2 1_555 1_555
O3B Eu1B 1_555 1_555
C6B O3O 1_555 1_555
O2O In1I_2 1_555 1_555
C1O C3O 1_555 1_555
O5F O5O 1_555 1_555

#END
