
#######################################################################
#
#                 Cambridge Crystallographic Data Centre
#                                CCDC 
#
#######################################################################
#
# If this CIF has been generated from an entry in the Cambridge 
# Structural Database, then it will include bibliographic, chemical, 
# crystal, experimental, refinement or atomic coordinate data resulting 
# from the CCDC's data processing and validation procedures.
#
#######################################################################

data_MUKRIU
_chemical_formula_moiety         '(C24 H20 Ag2 N22 O14)n'
_symmetry_cell_setting           monoclinic
_symmetry_space_group_name_H-M   'C 2/c'
_symmetry_Int_Tables_number      15
_space_group_name_Hall           '-C 2yc'
loop_
_symmetry_equiv_pos_site_id
_symmetry_equiv_pos_as_xyz
1 x,y,z
2 -x,y,1/2-z
3 1/2+x,1/2+y,z
4 1/2-x,1/2+y,1/2-z
5 -x,-y,-z
6 x,-y,1/2+z
7 1/2-x,1/2-y,-z
8 1/2+x,1/2-y,1/2+z
_cell_length_a                   20.041(3)
_cell_length_b                   8.2412(8)
_cell_length_c                   24.046(3)
_cell_angle_alpha                90
_cell_angle_beta                 111.131(9)
_cell_angle_gamma                90
_cell_volume                     3704.43
loop_
_atom_site_label
_atom_site_type_symbol
_atom_site_fract_x
_atom_site_fract_y
_atom_site_fract_z
_atom_site_U_iso_or_equiv
_atom_site_thermal_displace_type
Ag1 Ag 0.365201(14) 0.77537(4) -0.152972(11) 0.0204 Uani
O1 O 0.18381(13) 0.4209(3) -0.07598(11) 0.0211 Uani
C1 C 0.19786(19) 0.4255(4) -0.02051(15) 0.0162 Uani
O2 O 0.39566(13) 0.4935(3) 0.13970(12) 0.0242 Uani
C2 C 0.26036(18) 0.5064(4) 0.02090(16) 0.0161 Uani
O3 O 0.33231(14) 0.7009(3) 0.14874(12) 0.0257 Uani
C3 C 0.27555(18) 0.4986(4) 0.08176(15) 0.0162 Uani
O4 O 0.05794(14) 0.3358(4) 0.07647(12) 0.0259 Uani
C4 C 0.23065(18) 0.4192(4) 0.10593(15) 0.0161 Uani
C5 C 0.16828(18) 0.3507(4) 0.06672(15) 0.0158 Uani
O5 O 0.14004(14) 0.1639(3) 0.12662(11) 0.0237 Uani
C6 C 0.15152(18) 0.3539(4) 0.00573(15) 0.0167 Uani
N1 N 0.30372(15) 0.5959(4) -0.00361(13) 0.0155 Uani
N2 N 0.35874(15) 0.6921(4) 0.03167(13) 0.0175 Uani
C7 C 0.38442(19) 0.7522(4) -0.00670(16) 0.0183 Uani
H1 H 0.4243 0.8237 0.0047 0.0220 Uiso
N3 N 0.34991(16) 0.7048(4) -0.06456(13) 0.0185 Uani
C8 C 0.30000(19) 0.6067(5) -0.06080(16) 0.0192 Uani
H2 H 0.2662 0.5514 -0.0935 0.0230 Uiso
N4 N 0.34025(16) 0.5716(4) 0.12641(13) 0.0182 Uani
N5 N 0.24665(16) 0.4142(4) 0.16844(13) 0.0172 Uani
N6 N 0.20035(17) 0.4792(4) 0.19283(13) 0.0221 Uani
C9 C 0.2292(2) 0.4349(5) 0.24906(16) 0.0238 Uani
H3 H 0.2087 0.4614 0.2779 0.0290 Uiso
N7 N 0.29045(17) 0.3485(4) 0.26239(14) 0.0246 Uani
C10 C 0.2994(2) 0.3360(5) 0.21082(16) 0.0219 Uani
H4 H 0.3376 0.2799 0.2047 0.0260 Uiso
N8 N 0.11822(15) 0.2770(4) 0.09188(13) 0.0183 Uani
N9 N 0.08772(16) 0.2806(4) -0.03300(13) 0.0160 Uani
N10 N 0.06732(16) 0.1289(4) -0.02146(13) 0.0187 Uani
C11 C 0.00613(18) 0.1094(4) -0.06551(16) 0.0183 Uani
H5 H -0.0217 0.0135 -0.0702 0.0220 Uiso
N11 N -0.01482(16) 0.2373(4) -0.10425(14) 0.0188 Uani
C12 C 0.03782(18) 0.3418(5) -0.08240(15) 0.0185 Uani
H6 H 0.0402 0.4451 -0.0991 0.0220 Uiso
Ag1F Ag 0.134799(14) 0.72463(4) 0.152972(11) 0.0204 Uani
Ag1E Ag 0.365201(14) 0.22463(4) 0.347028(11) 0.0204 Uani
Ag1B Ag -0.134799(14) 0.27537(4) -0.152972(11) 0.0204 Uani
Ag1C Ag 0.134799(14) 1.27537(4) -0.347028(11) 0.0204 Uani
Ag1D Ag 0.634799(14) 1.22463(4) 0.152972(11) 0.0204 Uani
O1F O 0.31619(13) 1.0791(3) 0.07598(11) 0.0211 Uani
C1F C 0.30214(19) 1.0745(4) 0.02051(15) 0.0162 Uani
O2F O 0.10434(13) 1.0065(3) -0.13970(12) 0.0242 Uani
C2F C 0.23964(18) 0.9936(4) -0.02090(16) 0.0161 Uani
O3F O 0.16769(14) 0.7991(3) -0.14874(12) 0.0257 Uani
C3F C 0.22445(18) 1.0014(4) -0.08176(15) 0.0162 Uani
O4F O 0.44206(14) 1.1642(4) -0.07647(12) 0.0259 Uani
C4F C 0.26935(18) 1.0808(4) -0.10593(15) 0.0161 Uani
C5F C 0.33172(18) 1.1493(4) -0.06672(15) 0.0158 Uani
O5F O 0.35996(14) 1.3361(3) -0.12662(11) 0.0237 Uani
C6F C 0.34848(18) 1.1461(4) -0.00573(15) 0.0167 Uani
N1F N 0.19628(15) 0.9041(4) 0.00361(13) 0.0155 Uani
N2F N 0.14126(15) 0.8079(4) -0.03167(13) 0.0175 Uani
C7F C 0.11558(19) 0.7478(4) 0.00670(16) 0.0183 Uani
H1F H 0.0757 0.6763 -0.0047 0.0220 Uiso
N3F N 0.15009(16) 0.7952(4) 0.06456(13) 0.0185 Uani
C8F C 0.20000(19) 0.8933(5) 0.06080(16) 0.0192 Uani
H2F H 0.2338 0.9486 0.0935 0.0230 Uiso
N4F N 0.15975(16) 0.9284(4) -0.12641(13) 0.0182 Uani
N5F N 0.25335(16) 1.0858(4) -0.16844(13) 0.0172 Uani
N6F N 0.29965(17) 1.0208(4) -0.19283(13) 0.0221 Uani
C9F C 0.2708(2) 1.0651(5) -0.24906(16) 0.0238 Uani
H3F H 0.2913 1.0386 -0.2779 0.0290 Uiso
N7F N 0.20955(17) 1.1515(4) -0.26239(14) 0.0246 Uani
N7E N 0.29045(17) 0.6515(4) -0.23761(14) 0.0246 Uani
N7C N 0.20955(17) 0.8485(4) 0.23761(14) 0.0246 Uani
C10F C 0.2006(2) 1.1640(5) -0.21082(16) 0.0219 Uani
H4F H 0.1624 1.2201 -0.2047 0.0260 Uiso
N8F N 0.38178(15) 1.2230(4) -0.09188(13) 0.0183 Uani
N9F N 0.41228(16) 1.2194(4) 0.03300(13) 0.0160 Uani
N10F N 0.43268(16) 1.3711(4) 0.02146(13) 0.0187 Uani
C11F C 0.49387(18) 1.3906(4) 0.06551(16) 0.0183 Uani
H5F H 0.5217 1.4865 0.0702 0.0220 Uiso
N11F N 0.51482(16) 1.2627(4) 0.10425(14) 0.0188 Uani
N11B N 0.48518(16) 0.7373(4) -0.10425(14) 0.0188 Uani
N11D N 0.01482(16) 0.7627(4) 0.10425(14) 0.0188 Uani
C12F C 0.46218(18) 1.1582(5) 0.08240(15) 0.0185 Uani
H6F H 0.4598 1.0549 0.0991 0.0220 Uiso
O6 O 0.40050(18) 0.0629(5) 0.19360(15) 0.0482 Uani
O7 O 0.5000 0.3032(8) 0.2500 0.0674 Uani
O8 O 0.5000 -0.1785(9) 0.2500 0.0856 Uani
O9 O 0.5697(3) -0.4304(7) 0.2167(2) 0.0867 Uani
loop_
_atom_site_aniso_label
_atom_site_aniso_U_11
_atom_site_aniso_U_22
_atom_site_aniso_U_33
_atom_site_aniso_U_23
_atom_site_aniso_U_13
_atom_site_aniso_U_12
Ag1 0.01547(16) 0.02756(18) 0.01375(16) 0.00023(11) -0.00009(11) 0.00169(11)
O1 0.0193(13) 0.0237(14) 0.0176(13) -0.0004(10) 0.0033(10) -0.0041(11)
C1 0.0171(17) 0.0118(17) 0.0153(17) -0.0002(13) 0.0006(14) 0.0027(13)
O2 0.0148(13) 0.0286(15) 0.0251(14) 0.0053(11) 0.0022(11) 0.0013(11)
C2 0.0130(16) 0.0143(17) 0.0197(17) 0.0017(14) 0.0044(14) 0.0024(14)
O3 0.0249(14) 0.0266(15) 0.0235(14) -0.0066(12) 0.0061(12) -0.0051(11)
C3 0.0132(17) 0.0146(17) 0.0164(17) 0.0001(13) 0.0001(14) 0.0022(13)
O4 0.0164(13) 0.0338(16) 0.0269(14) -0.0047(12) 0.0069(11) 0.0000(12)
C4 0.0152(17) 0.0169(18) 0.0131(16) 0.0009(14) 0.0015(14) 0.0016(14)
C5 0.0151(17) 0.0122(17) 0.0189(18) 0.0016(14) 0.0047(14) 0.0019(13)
O5 0.0280(14) 0.0195(13) 0.0220(13) 0.0027(11) 0.0072(11) -0.0036(11)
C6 0.0134(17) 0.0140(17) 0.0191(18) -0.0010(14) 0.0015(14) 0.0005(14)
N1 0.0122(14) 0.0159(15) 0.0161(14) -0.0014(12) 0.0024(12) -0.0007(12)
N2 0.0151(15) 0.0152(15) 0.0203(16) -0.0006(12) 0.0042(12) -0.0018(12)
C7 0.0141(17) 0.0156(18) 0.0225(19) 0.0001(14) 0.0032(15) 0.0015(14)
N3 0.0137(15) 0.0220(16) 0.0184(15) 0.0016(12) 0.0041(12) 0.0008(12)
C8 0.0161(18) 0.0224(19) 0.0181(18) -0.0010(15) 0.0050(14) 0.0004(15)
N4 0.0171(16) 0.0198(16) 0.0156(15) 0.0021(12) 0.0032(12) -0.0021(13)
N5 0.0163(15) 0.0178(15) 0.0149(14) 0.0006(12) 0.0026(12) -0.0014(12)
N6 0.0279(17) 0.0204(16) 0.0170(15) 0.0000(13) 0.0070(13) 0.0043(13)
C9 0.033(2) 0.021(2) 0.0149(18) 0.0006(15) 0.0055(16) 0.0046(16)
N7 0.0278(17) 0.0236(17) 0.0167(16) 0.0048(13) 0.0011(13) -0.0002(14)
C10 0.0184(18) 0.0211(19) 0.0219(19) 0.0062(15) 0.0022(15) -0.0007(15)
N8 0.0169(16) 0.0198(16) 0.0174(16) -0.0044(13) 0.0051(13) -0.0025(12)
N9 0.0145(15) 0.0160(15) 0.0151(15) 0.0003(12) 0.0026(12) -0.0011(12)
N10 0.0170(15) 0.0142(15) 0.0224(16) -0.0016(12) 0.0042(13) -0.0016(12)
C11 0.0143(17) 0.0176(18) 0.0212(18) -0.0042(14) 0.0042(14) -0.0013(14)
N11 0.0132(15) 0.0228(17) 0.0187(15) 0.0018(12) 0.0038(12) -0.0001(12)
C12 0.0165(17) 0.0198(18) 0.0179(18) 0.0032(14) 0.0048(14) 0.0010(14)
Ag1F 0.01547 0.02756 0.01375 0.00023 -9e-05 0.00169
Ag1E 0.01547 0.02756 0.01375 -0.00023 -9e-05 -0.00169
Ag1B 0.01547 0.02756 0.01375 0.00023 -9e-05 0.00169
Ag1C 0.01547 0.02756 0.01375 -0.00023 -9e-05 -0.00169
Ag1D 0.01547 0.02756 0.01375 0.00023 -9e-05 0.00169
O1F 0.0193 0.0237 0.0176 -0.0004 0.0033 -0.0041
C1F 0.0171 0.0118 0.0153 -0.0002 0.0006 0.0027
O2F 0.0148 0.0286 0.0251 0.0053 0.0022 0.0013
C2F 0.013 0.0143 0.0197 0.0017 0.0044 0.0024
O3F 0.0249 0.0266 0.0235 -0.0066 0.0061 -0.0051
C3F 0.0132 0.0146 0.0164 0.0001 0.0001 0.0022
O4F 0.0164 0.0338 0.0269 -0.0047 0.0069 0
C4F 0.0152 0.0169 0.0131 0.0009 0.0015 0.0016
C5F 0.0151 0.0122 0.0189 0.0016 0.0047 0.0019
O5F 0.028 0.0195 0.022 0.0027 0.0072 -0.0036
C6F 0.0134 0.014 0.0191 -0.001 0.0015 0.0005
N1F 0.0122 0.0159 0.0161 -0.0014 0.0024 -0.0007
N2F 0.0151 0.0152 0.0203 -0.0006 0.0042 -0.0018
C7F 0.0141 0.0156 0.0225 0.0001 0.0032 0.0015
N3F 0.0137 0.022 0.0184 0.0016 0.0041 0.0008
C8F 0.0161 0.0224 0.0181 -0.001 0.005 0.0004
N4F 0.0171 0.0198 0.0156 0.0021 0.0032 -0.0021
N5F 0.0163 0.0178 0.0149 0.0006 0.0026 -0.0014
N6F 0.0279 0.0204 0.017 0 0.007 0.0043
C9F 0.033 0.021 0.0149 0.0006 0.0055 0.0046
N7F 0.0278 0.0236 0.0167 0.0048 0.0011 -0.0002
N7E 0.0278 0.0236 0.0167 -0.0048 0.0011 0.0002
N7C 0.0278 0.0236 0.0167 -0.0048 0.0011 0.0002
C10F 0.0184 0.0211 0.0219 0.0062 0.0022 -0.0007
N8F 0.0169 0.0198 0.0174 -0.0044 0.0051 -0.0025
N9F 0.0145 0.016 0.0151 0.0003 0.0026 -0.0011
N10F 0.017 0.0142 0.0224 -0.0016 0.0042 -0.0016
C11F 0.0143 0.0176 0.0212 -0.0042 0.0042 -0.0013
N11F 0.0132 0.0228 0.0187 0.0018 0.0038 -0.0001
N11B 0.0132 0.0228 0.0187 0.0018 0.0038 -0.0001
N11D 0.0132 0.0228 0.0187 0.0018 0.0038 -0.0001
C12F 0.0165 0.0198 0.0179 0.0032 0.0048 0.001
O6 0.043(2) 0.059(2) 0.0372(18) -0.0043(16) 0.0078(15) 0.0079(17)
O7 0.074(4) 0.065(4) 0.059(4) 0.000 0.019(3) 0.000
O8 0.057(4) 0.067(4) 0.121(6) 0.000 0.018(4) 0.000
O9 0.082(3) 0.092(4) 0.086(4) 0.002(3) 0.030(3) 0.001(3)
loop_
_geom_bond_atom_site_label_1
_geom_bond_atom_site_label_2
_geom_bond_site_symmetry_1
_geom_bond_site_symmetry_2
Ag1 N3 1_555 1_555
O1 C1 1_555 1_555
C1 C2 1_555 1_555
O2 N4 1_555 1_555
C2 C3 1_555 1_555
O3 N4 1_555 1_555
C3 C4 1_555 1_555
O4 N8 1_555 1_555
C4 C5 1_555 1_555
C5 C6 1_555 1_555
O5 N8 1_555 1_555
C6 C1 1_555 1_555
N1 C2 1_555 1_555
N2 N1 1_555 1_555
C7 N2 1_555 1_555
H1 C7 1_555 1_555
N3 C7 1_555 1_555
C8 N1 1_555 1_555
H2 C8 1_555 1_555
N4 C3 1_555 1_555
N5 C4 1_555 1_555
N6 N5 1_555 1_555
C9 N6 1_555 1_555
H3 C9 1_555 1_555
N7 C9 1_555 1_555
C10 N5 1_555 1_555
H4 C10 1_555 1_555
N8 C5 1_555 1_555
N9 C6 1_555 1_555
N10 N9 1_555 1_555
C11 N10 1_555 1_555
H5 C11 1_555 1_555
N11 C11 1_555 1_555
C12 N9 1_555 1_555
H6 C12 1_555 1_555
Ag1F N6 1_555 1_555
Ag1E N7 1_555 1_555
Ag1B N11 1_555 1_555
Ag1C N7F 1_555 1_555
Ag1D N11F 1_555 1_555
O1F C1F 1_555 1_555
C1F C2F 1_555 1_555
O2F N4F 1_555 1_555
C2F C3F 1_555 1_555
O3F N4F 1_555 1_555
C3F C4F 1_555 1_555
O4F N8F 1_555 1_555
C4F C5F 1_555 1_555
C5F C6F 1_555 1_555
O5F N8F 1_555 1_555
C6F C1F 1_555 1_555
N1F C2F 1_555 1_555
N2F N1F 1_555 1_555
C7F N2F 1_555 1_555
H1F C7F 1_555 1_555
N3F Ag1F 1_555 1_555
C8F N1F 1_555 1_555
H2F C8F 1_555 1_555
N4F C3F 1_555 1_555
N5F C4F 1_555 1_555
N6F Ag1 1_555 1_555
C9F N6F 1_555 1_555
H3F C9F 1_555 1_555
N7F C9F 1_555 1_555
N7E Ag1 1_555 1_555
N7C Ag1F 1_555 1_555
C10F N5F 1_555 1_555
H4F C10F 1_555 1_555
N8F C5F 1_555 1_555
N9F C6F 1_555 1_555
N10F N9F 1_555 1_555
C11F N10F 1_555 1_555
H5F C11F 1_555 1_555
N11F C11F 1_555 1_555
N11B Ag1 1_555 1_555
N11D Ag1F 1_555 1_555
C12F N9F 1_555 1_555
H6F C12F 1_555 1_555
N3 C8 1_555 1_555
N7 C10 1_555 1_555
N11 C12 1_555 1_555
C7F N3F 1_555 1_555
N3F C8F 1_555 1_555
N5F N6F 1_555 1_555
N7F C10F 1_555 1_555
N11F C12F 1_555 1_555

#END
