
#######################################################################
#
#                 Cambridge Crystallographic Data Centre
#                                CCDC 
#
#######################################################################
#
# If this CIF has been generated from an entry in the Cambridge 
# Structural Database, then it will include bibliographic, chemical, 
# crystal, experimental, refinement or atomic coordinate data resulting 
# from the CCDC's data processing and validation procedures.
#
#######################################################################

data_UFATEA01
_chemical_formula_moiety         '(C12 H8 N2 Ni1 O4)n'
_symmetry_cell_setting           orthorhombic
_symmetry_space_group_name_H-M   'P n n 2'
_symmetry_Int_Tables_number      34
_space_group_name_Hall           'P 2 -2n'
loop_
_symmetry_equiv_pos_site_id
_symmetry_equiv_pos_as_xyz
1 x,y,z
2 -x,-y,z
3 1/2+x,1/2-y,1/2+z
4 1/2-x,1/2+y,1/2+z
_cell_length_a                   12.4966(14)
_cell_length_b                   6.3559(7)
_cell_length_c                   10.3785(12)
_cell_angle_alpha                90
_cell_angle_beta                 90
_cell_angle_gamma                90
_cell_volume                     824.335
loop_
_atom_site_label
_atom_site_type_symbol
_atom_site_fract_x
_atom_site_fract_y
_atom_site_fract_z
Ni1 Ni 0.500 1.0 -0.0479(3)
N1 N 0.6033(6) 0.8726(10) 0.0877(7)
O1 O 0.8945(4) 0.7436(8) 0.4107(5)
O2 O 0.8839(6) 0.4424(10) 0.3069(6)
C1 C 0.8485(6) 0.6286(12) 0.3256(9)
C2 C 0.7623(6) 0.7159(12) 0.2423(8)
C3 C 0.7233(7) 0.9172(13) 0.2592(9)
H1 H 0.7501 1.0029 0.3243
C4 C 0.6458(7) 0.9878(11) 0.1798(11)
H2 H 0.6211 1.1247 0.1907
C5 C 0.6386(7) 0.6720(12) 0.0696(8)
H3 H 0.609 0.5901 0.0045
C6 C 0.7179(6) 0.5892(13) 0.1473(9)
H4 H 0.7411 0.4514 0.1361
N1A N 0.3967(6) 1.1274(10) 0.0877(7)
O1A O 0.1055(4) 1.2564(8) 0.4107(5)
O2A O 0.1161(6) 1.5576(10) 0.3069(6)
C1A C 0.1515(6) 1.3714(12) 0.3256(9)
C2A C 0.2377(6) 1.2841(12) 0.2423(8)
C3A C 0.2767(7) 1.0828(13) 0.2592(9)
H1A H 0.2499 0.9971 0.3243
C4A C 0.3542(7) 1.0122(11) 0.1798(11)
H2A H 0.3789 0.8753 0.1907
C5A C 0.3614(7) 1.3280(12) 0.0696(8)
H3A H 0.391 1.4099 0.0045
C6A C 0.2821(6) 1.4108(13) 0.1473(9)
H4A H 0.2589 1.5486 0.1361
Ni1B Ni 0.000 1.5 0.4521(3)
Ni1B_2 Ni 1.000 0.5 0.4521(3)
O1B O 0.3945(4) 0.7564(8) -0.0893(5)
O1C O 0.6055(4) 1.2436(8) -0.0893(5)
O2B O 0.3839(6) 1.0576(10) -0.1931(6)
O2C O 0.6161(6) 0.9424(10) -0.1931(6)
loop_
_geom_bond_atom_site_label_1
_geom_bond_atom_site_label_2
_geom_bond_site_symmetry_1
_geom_bond_site_symmetry_2
Ni1 N1 1_555 1_555
N1 C4 1_555 1_555
O1 C1 1_555 1_555
O2 C1 1_555 1_555
C1 C2 1_555 1_555
C2 C3 1_555 1_555
C3 H1 1_555 1_555
C4 C3 1_555 1_555
H2 C4 1_555 1_555
C5 N1 1_555 1_555
H3 C5 1_555 1_555
C6 C2 1_555 1_555
H4 C6 1_555 1_555
N1A Ni1 1_555 1_555
O1A C1A 1_555 1_555
O2A C1A 1_555 1_555
C1A C2A 1_555 1_555
C2A C3A 1_555 1_555
C3A H1A 1_555 1_555
C4A N1A 1_555 1_555
H2A C4A 1_555 1_555
C5A N1A 1_555 1_555
H3A C5A 1_555 1_555
C6A C2A 1_555 1_555
H4A C6A 1_555 1_555
Ni1B O1A 1_555 1_555
Ni1B_2 O1 1_555 1_555
O1B Ni1 1_555 1_555
O1C Ni1 1_555 1_555
O2B Ni1 1_555 1_555
O2C Ni1 1_555 1_555
O2 Ni1B_2 1_555 1_555
C5 C6 1_555 1_555
O2A Ni1B 1_555 1_555
C3A C4A 1_555 1_555
C5A C6A 1_555 1_555

#END
