
#######################################################################
#
#                 Cambridge Crystallographic Data Centre
#                                CCDC 
#
#######################################################################
#
# If this CIF has been generated from an entry in the Cambridge 
# Structural Database, then it will include bibliographic, chemical, 
# crystal, experimental, refinement or atomic coordinate data resulting 
# from the CCDC's data processing and validation procedures.
#
#######################################################################

data_HUCSEF
_chemical_formula_moiety         'C30 H30 Cu8 O16'
_symmetry_cell_setting           tetragonal
_symmetry_space_group_name_H-M   'I 4/m m m'
_symmetry_Int_Tables_number      139
_space_group_name_Hall           '-I 4 2'
loop_
_symmetry_equiv_pos_site_id
_symmetry_equiv_pos_as_xyz
1 x,y,z
2 -y,x,z
3 -x,-y,z
4 y,-x,z
5 x,-y,-z
6 y,x,-z
7 -x,y,-z
8 -y,-x,-z
9 1/2+x,1/2+y,1/2+z
10 1/2-y,1/2+x,1/2+z
11 1/2-x,1/2-y,1/2+z
12 1/2+y,1/2-x,1/2+z
13 1/2+x,1/2-y,1/2-z
14 1/2+y,1/2+x,1/2-z
15 1/2-x,1/2+y,1/2-z
16 1/2-y,1/2-x,1/2-z
17 -x,-y,-z
18 y,-x,-z
19 x,y,-z
20 -y,x,-z
21 -x,y,z
22 -y,-x,z
23 x,-y,z
24 y,x,z
25 1/2-x,1/2-y,1/2-z
26 1/2+y,1/2-x,1/2-z
27 1/2+x,1/2+y,1/2-z
28 1/2-y,1/2+x,1/2-z
29 1/2-x,1/2+y,1/2+z
30 1/2-y,1/2-x,1/2+z
31 1/2+x,1/2-y,1/2+z
32 1/2+y,1/2+x,1/2+z
_cell_length_a                   18.945(4)
_cell_length_b                   18.945(4)
_cell_length_c                   27.561(10)
_cell_angle_alpha                90
_cell_angle_beta                 90
_cell_angle_gamma                90
_cell_volume                     9892
loop_
_atom_site_label
_atom_site_type_symbol
_atom_site_fract_x
_atom_site_fract_y
_atom_site_fract_z
Cu1 Cu 0.78116(3) 0.78116(3) 0.71259(3)
O1 O 0.86855(18) 0.76446(19) 0.75031(12)
O2 O 0.8323(2) 0.8323(2) 0.65198(18)
O3 O 0.7864(2) 0.6870(2) 0.68714(12)
C1 C 0.8652(3) 0.7369(3) 0.79314(19)
C2 C 0.9358(3) 0.7369(3) 0.81815(18)
C3 C 0.9360(3) 0.7305(3) 0.86902(17)
C4 C 1.0000 0.7415(4) 0.7934(3)
C5 C 1.0000 0.7288(5) 0.8937(3)
H1 H 0.8937 0.7275 0.8860
H2 H 1.0000 0.7477 0.7599
C6 C 1.0000 0.7292(6) 0.9501(3)
C7 C 1.0000 0.7927(6) 0.9732(3)
C8 C 1.0000 0.6659(6) 0.9727(3)
C9 C 0.9681(8) 0.8622(8) 0.9470(4)
C10 C 0.9708(8) 0.5934(7) 0.9477(4)
H3 H 0.9512 0.8997 0.9673
H4 H 0.9512 0.8690 0.9145
H5 H 0.9512 0.8178 0.9592
H6 H 0.9540 0.5568 0.9688
H7 H 0.9540 0.5850 0.9153
H8 H 0.9540 0.6383 0.9588
Cu1O Cu 0.71884(3) 0.71884(3) 0.78741(3)
O1W O 0.76446(19) 0.86855(18) 0.75031(12)
O3W O 0.6870(2) 0.7864(2) 0.68714(12)
O3O O 0.8130(2) 0.7136(2) 0.81286(12)
C2T C 1.0642(3) 0.7369(3) 0.81815(18)
C3T C 1.0640(3) 0.7305(3) 0.86902(17)
C1T C 1.1348(3) 0.7369(3) 0.79314(19)
H1T H 1.1063 0.7275 0.8860
O1T O 1.13145(18) 0.76446(19) 0.75031(12)
O3Y O 1.1870(2) 0.7136(2) 0.81286(12)
C7F C 1.0000 0.7927(6) 1.0268(3)
C9T C 1.0319(8) 0.8622(8) 0.9470(4)
C8F C 1.0000 0.6659(6) 1.0273(3)
C10T C 1.0292(8) 0.5934(7) 0.9477(4)
Cu1A Cu 1.21884(3) 0.78116(3) 0.71259(3)
Cu1L Cu 1.28116(3) 0.71884(3) 0.78741(3)
C6F C 1.0000 0.7292(6) 1.0499(3)
C9F C 1.0319(8) 0.8622(8) 1.0530(4)
C9R C 0.9681(8) 0.8622(8) 1.0530(4)
H3T H 1.0488 0.8997 0.9673
H4T H 1.0488 0.8690 0.9145
H5T H 1.0488 0.8178 0.9592
C10F C 1.0292(8) 0.5934(7) 1.0523(4)
C10R C 0.9708(8) 0.5934(7) 1.0523(4)
H6T H 1.0460 0.5568 0.9688
H7T H 1.0460 0.5850 0.9153
H8T H 1.0460 0.6383 0.9588
O2A O 1.1677(2) 0.8323(2) 0.65198(18)
O1A O 1.23554(19) 0.86855(18) 0.75031(12)
O3A O 1.3130(2) 0.7864(2) 0.68714(12)
O3T O 1.2136(2) 0.6870(2) 0.68714(12)
C5F C 1.0000 0.7288(5) 1.1063(3)
H3F H 1.0488 0.8997 1.0327
H4F H 1.0488 0.8690 1.0855
H5F H 1.0488 0.8178 1.0408
H3R H 0.9512 0.8997 1.0327
H4R H 0.9512 0.8690 1.0855
H5R H 0.9512 0.8178 1.0408
H6F H 1.0460 0.5568 1.0312
H7F H 1.0460 0.5850 1.0847
H8F H 1.0460 0.6383 1.0412
H6R H 0.9540 0.5568 1.0312
H7R H 0.9540 0.5850 1.0847
H8R H 0.9540 0.6383 1.0412
C3F C 1.0640(3) 0.7305(3) 1.13098(17)
C3R C 0.9360(3) 0.7305(3) 1.13098(17)
H1F H 1.1063 0.7275 1.1140
C2F C 1.0642(3) 0.7369(3) 1.18185(18)
H1R H 0.8937 0.7275 1.1140
C2R C 0.9358(3) 0.7369(3) 1.18185(18)
C4F C 1.0000 0.7415(4) 1.2066(3)
C1F C 1.1348(3) 0.7369(3) 1.20686(19)
C1R C 0.8652(3) 0.7369(3) 1.20686(19)
H2F H 1.0000 0.7477 1.2401
O1F O 1.13145(18) 0.76446(19) 1.24969(12)
O3K O 1.1870(2) 0.7136(2) 1.18714(12)
O1R O 0.86855(18) 0.76446(19) 1.24969(12)
O3CA O 0.8130(2) 0.7136(2) 1.18714(12)
Cu1F Cu 1.21884(3) 0.78116(3) 1.28741(3)
Cu1K Cu 1.28116(3) 0.71884(3) 1.21259(3)
Cu1E Cu 0.78116(3) 0.78116(3) 1.28741(3)
Cu1J Cu 0.71884(3) 0.71884(3) 1.21259(3)
loop_
_geom_bond_atom_site_label_1
_geom_bond_atom_site_label_2
_geom_bond_site_symmetry_1
_geom_bond_site_symmetry_2
Cu1 O1 1_555 1_555
O1 C1 1_555 1_555
O2 Cu1 1_555 1_555
O3 Cu1 1_555 1_555
C1 C2 1_555 1_555
C2 C3 1_555 1_555
C3 C5 1_555 1_555
C4 C2 1_555 1_555
C5 C6 1_555 1_555
H1 C3 1_555 1_555
H2 C4 1_555 1_555
C6 C7 1_555 1_555
C7 C9 1_555 1_555
C8 C6 1_555 1_555
C9 H3 1_555 1_555
C10 C8 1_555 1_555
H4 C9 1_555 1_555
H5 C9 1_555 1_555
H6 C10 1_555 1_555
H7 C10 1_555 1_555
H8 C10 1_555 1_555
Cu1O Cu1 1_555 1_555
O1W Cu1 1_555 1_555
O3W Cu1 1_555 1_555
O3O C1 1_555 1_555
C2T C4 1_555 1_555
C3T C5 1_555 1_555
C1T C2T 1_555 1_555
H1T C3T 1_555 1_555
O1T C1T 1_555 1_555
O3Y C1T 1_555 1_555
C7F C7 1_555 1_555
C9T C7 1_555 1_555
C8F C8 1_555 1_555
C10T C8 1_555 1_555
Cu1A O1T 1_555 1_555
Cu1L O3Y 1_555 1_555
C6F C7F 1_555 1_555
C9F C7F 1_555 1_555
C9R C7F 1_555 1_555
H3T C9T 1_555 1_555
H4T C9T 1_555 1_555
H5T C9T 1_555 1_555
C10F C8F 1_555 1_555
C10R C8F 1_555 1_555
H6T C10T 1_555 1_555
H7T C10T 1_555 1_555
H8T C10T 1_555 1_555
O2A Cu1A 1_555 1_555
O1A Cu1A 1_555 1_555
O3A Cu1A 1_555 1_555
O3T Cu1A 1_555 1_555
C5F C6F 1_555 1_555
H3F C9F 1_555 1_555
H4F C9F 1_555 1_555
H5F C9F 1_555 1_555
H3R C9R 1_555 1_555
H4R C9R 1_555 1_555
H5R C9R 1_555 1_555
H6F C10F 1_555 1_555
H7F C10F 1_555 1_555
H8F C10F 1_555 1_555
H6R C10R 1_555 1_555
H7R C10R 1_555 1_555
H8R C10R 1_555 1_555
C3F C5F 1_555 1_555
C3R C5F 1_555 1_555
H1F C3F 1_555 1_555
C2F C3F 1_555 1_555
H1R C3R 1_555 1_555
C2R C3R 1_555 1_555
C4F C2F 1_555 1_555
C1F C2F 1_555 1_555
C1R C2R 1_555 1_555
H2F C4F 1_555 1_555
O1F C1F 1_555 1_555
O3K C1F 1_555 1_555
O1R C1R 1_555 1_555
O3CA C1R 1_555 1_555
Cu1F O1F 1_555 1_555
Cu1K O3K 1_555 1_555
Cu1E O1R 1_555 1_555
Cu1J O3CA 1_555 1_555
Cu1O O3O 1_555 1_555
C2T C3T 1_555 1_555
C8F C6F 1_555 1_555
Cu1A Cu1L 1_555 1_555
C2R C4F 1_555 1_555
Cu1F Cu1K 1_555 1_555
Cu1E Cu1J 1_555 1_555

#END
