
#######################################################################
#
#                 Cambridge Crystallographic Data Centre
#                                CCDC 
#
#######################################################################
#
# If this CIF has been generated from an entry in the Cambridge 
# Structural Database, then it will include bibliographic, chemical, 
# crystal, experimental, refinement or atomic coordinate data resulting 
# from the CCDC's data processing and validation procedures.
#
#######################################################################

data_NIWZIE09
_chemical_formula_moiety         '(C3 H15 Mg1 N3 O6 2+)n'
_symmetry_cell_setting           hexagonal
_symmetry_space_group_name_H-M   'P 63'
_symmetry_Int_Tables_number      173
_space_group_name_Hall           'P 6c'
loop_
_symmetry_equiv_pos_site_id
_symmetry_equiv_pos_as_xyz
1 x,y,z
2 -y,x-y,z
3 -x+y,-x,z
4 -x,-y,1/2+z
5 y,-x+y,1/2+z
6 x-y,x,1/2+z
_cell_length_a                   12.5693(3)
_cell_length_b                   12.5693(3)
_cell_length_c                   8.2216(2)
_cell_angle_alpha                90
_cell_angle_beta                 90
_cell_angle_gamma                120
_cell_volume                     1124.89
loop_
_atom_site_label
_atom_site_type_symbol
_atom_site_fract_x
_atom_site_fract_y
_atom_site_fract_z
_atom_site_U_iso_or_equiv
_atom_site_thermal_displace_type
Mg1 Mg 0.33431(5) 0.33230(5) 0.58747(11) 0.0164 Uani
O1 O 0.42331(11) 0.26452(11) 0.44207(14) 0.0244 Uani
O2 O 0.42420(11) 0.15567(11) 0.22998(14) 0.0263 Uani
O3 O 0.40028(11) 0.48903(11) 0.44095(14) 0.0260 Uani
O4 O 0.50766(11) 0.59967(11) 0.22888(14) 0.0251 Uani
O5 O 0.17606(11) 0.24059(11) 0.44463(13) 0.0251 Uani
O6 O 0.06923(11) 0.24535(11) 0.23241(13) 0.0245 Uani
C1 C 0.37303(17) 0.18661(19) 0.3339(3) 0.0366 Uani
H1 H 0.2868 0.1465 0.3298 0.0440 Uiso
C2 C 0.47645(19) 0.51604(18) 0.3299(3) 0.0347 Uani
H2 H 0.5144 0.4681 0.3215 0.0420 Uiso
C3 C 0.14338(18) 0.29332(17) 0.3466(3) 0.0302 Uani
H3 H 0.1782 0.3786 0.3596 0.0360 Uiso
Mg1C Mg 0.66569(5) 0.66770(5) 0.08747(11) 0.0164 Uani
Mg1D Mg 0.33230(5) -0.00201(7) 0.08747(11) 0.0164 Uani
Mg1E Mg 0.00201(7) 0.33431(5) 0.08747(11) 0.0164 Uani
O2E O 0.26853(16) 0.42420(11) 0.72998(14) 0.0263 Uani
O4C O 0.49234(11) 0.40033(11) 0.72888(14) 0.0251 Uani
O6D O 0.24535(11) 0.17612(16) 0.73241(13) 0.0245 Uani
N1 N 0.6667 0.3333 0.6123(8) 0.0342 Uani
H4 H 0.595(2) 0.328(4) 0.5800(15) 0.0410 Uiso
H5 H 0.6667 0.3333 0.7228(10) 0.0410 Uiso
H4A H 0.672(4) 0.267(4) 0.5800(15) 0.0410 Uiso
H4B H 0.733(4) 0.405(2) 0.5800(15) 0.0410 Uiso
N3 N 0.3333 0.6667 0.6146(8) 0.0343 Uani
H8 H 0.335(4) 0.599(2) 0.5820(15) 0.0410 Uiso
H9 H 0.3333 0.6667 0.7249(10) 0.0410 Uiso
H8A H 0.401(2) 0.736(4) 0.5820(15) 0.0410 Uiso
H8B H 0.264(4) 0.665(4) 0.5820(15) 0.0410 Uiso
N5 N -0.0000 0.0000 0.1240(6) 0.0375 Uani
H12 H 0.019(2) 0.0756(9) 0.1578(13) 0.0450 Uiso
H13 H 0.0000 0.0000 0.0139(8) 0.0450 Uiso
H12A H -0.0756(9) -0.0566(22) 0.1578(13) 0.0450 Uiso
H12B H 0.0566(22) -0.019(2) 0.1578(13) 0.0450 Uiso
loop_
_atom_site_aniso_label
_atom_site_aniso_U_11
_atom_site_aniso_U_22
_atom_site_aniso_U_33
_atom_site_aniso_U_23
_atom_site_aniso_U_13
_atom_site_aniso_U_12
Mg1 0.0190(3) 0.0188(3) 0.0118(3) 0.00070(19) -0.00005(19) 0.0098(3)
O1 0.0292(7) 0.0264(7) 0.0205(7) -0.0056(6) -0.0013(5) 0.0160(5)
O2 0.0285(7) 0.0250(6) 0.0233(7) -0.0086(5) 0.0019(5) 0.0117(5)
O3 0.0299(7) 0.0245(6) 0.0234(7) 0.0065(5) 0.0091(6) 0.0134(5)
O4 0.0240(6) 0.0278(7) 0.0213(7) 0.0086(6) 0.0079(5) 0.0112(5)
O5 0.0264(7) 0.0299(7) 0.0198(7) 0.0032(5) -0.0052(5) 0.0147(5)
O6 0.0301(7) 0.0268(7) 0.0197(7) -0.0031(5) -0.0115(6) 0.0165(5)
C1 0.0229(10) 0.0346(11) 0.0498(19) -0.0234(9) -0.0017(8) 0.0125(9)
C2 0.0367(12) 0.0289(11) 0.0448(19) 0.0189(9) 0.0218(9) 0.0212(10)
C3 0.0337(11) 0.0234(10) 0.0322(13) -0.0051(8) -0.0190(8) 0.0133(9)
Mg1C 0.019 0.0188 0.0118 -0.0007 5e-05 0.0098
Mg1D 0.0188 0.0182 0.0118 0.00075 0.0007 0.009
Mg1E 0.0182 0.019 0.0118 -5e-05 -0.00075 0.0092
O2E 0.0301 0.0285 0.0233 0.0019 0.0105 0.0168
O4C 0.024 0.0278 0.0213 -0.0086 -0.0079 0.0112
O6D 0.0268 0.0239 0.0197 0.0084 -0.0031 0.0103
N1 0.0357(11) 0.0357(11) 0.031(3) 0.000 0.000 0.0178(6)
N3 0.0355(11) 0.0355(11) 0.032(3) 0.000 0.000 0.0178(6)
N5 0.0339(9) 0.0339(9) 0.0445(17) 0.000 0.000 0.0169(4)
loop_
_geom_bond_atom_site_label_1
_geom_bond_atom_site_label_2
_geom_bond_site_symmetry_1
_geom_bond_site_symmetry_2
Mg1 O1 1_555 1_555
O1 C1 1_555 1_555
O2 C1 1_555 1_555
O3 Mg1 1_555 1_555
O4 C2 1_555 1_555
O5 Mg1 1_555 1_555
O6 C3 1_555 1_555
C1 H1 1_555 1_555
C2 O3 1_555 1_555
H2 C2 1_555 1_555
C3 O5 1_555 1_555
H3 C3 1_555 1_555
N1 H4 1_555 1_555
H5 N1 1_555 1_555
N3 H8 1_555 1_555
H9 N3 1_555 1_555
N5 H12 1_555 1_555
H13 N5 1_555 1_555
Mg1C O4 1_555 1_555
Mg1D O2 1_555 1_555
Mg1E O6 1_555 1_555
O2E Mg1 1_555 1_555
O4C Mg1 1_555 1_555
O6D Mg1 1_555 1_555
H4A N1 1_555 1_555
H4B N1 1_555 1_555
H8A N3 1_555 1_555
H8B N3 1_555 1_555
H12A N5 1_555 1_555
H12B N5 1_555 1_555

#END
