
#######################################################################
#
#                 Cambridge Crystallographic Data Centre
#                                CCDC 
#
#######################################################################
#
# If this CIF has been generated from an entry in the Cambridge 
# Structural Database, then it will include bibliographic, chemical, 
# crystal, experimental, refinement or atomic coordinate data resulting 
# from the CCDC's data processing and validation procedures.
#
#######################################################################

data_NIWZIE10
_chemical_formula_moiety         '(C3 H15 Mg1 N3 O6 2+)n'
_symmetry_cell_setting           hexagonal
_symmetry_space_group_name_H-M   'P 63'
_symmetry_Int_Tables_number      173
_space_group_name_Hall           'P 6c'
loop_
_symmetry_equiv_pos_site_id
_symmetry_equiv_pos_as_xyz
1 x,y,z
2 -y,x-y,z
3 -x+y,-x,z
4 -x,-y,1/2+z
5 y,-x+y,1/2+z
6 x-y,x,1/2+z
_cell_length_a                   12.5720(3)
_cell_length_b                   12.5720(3)
_cell_length_c                   8.2184(2)
_cell_angle_alpha                90
_cell_angle_beta                 90
_cell_angle_gamma                120
_cell_volume                     1124.93
loop_
_atom_site_label
_atom_site_type_symbol
_atom_site_fract_x
_atom_site_fract_y
_atom_site_fract_z
_atom_site_U_iso_or_equiv
_atom_site_thermal_displace_type
Mg1 Mg 0.33402(5) 0.33274(5) 0.58666(11) 0.0172 Uani
O1 O 0.42331(12) 0.26519(12) 0.44191(15) 0.0262 Uani
O2 O 0.42395(11) 0.15618(11) 0.22978(14) 0.0268 Uani
O3 O 0.40022(12) 0.48946(11) 0.44121(15) 0.0273 Uani
O4 O 0.50832(11) 0.59961(12) 0.22919(14) 0.0274 Uani
O5 O 0.17599(11) 0.24136(12) 0.44338(13) 0.0255 Uani
O6 O 0.06814(11) 0.24438(11) 0.23118(13) 0.0248 Uani
C1 C 0.37318(18) 0.18678(19) 0.3347(3) 0.0393 Uani
H1 H 0.2878 0.1460 0.3321 0.0470 Uiso
C2 C 0.47762(19) 0.51740(19) 0.3321(3) 0.0398 Uani
H2 H 0.5171 0.4716 0.3268 0.0480 Uiso
C3 C 0.14461(18) 0.29339(18) 0.3419(3) 0.0299 Uani
H3 H 0.1825 0.3784 0.3496 0.0360 Uiso
Mg1C Mg 0.66598(5) 0.66726(5) 0.08666(11) 0.0172 Uani
Mg1D Mg 0.33274(5) -0.00128(7) 0.08666(11) 0.0172 Uani
Mg1E Mg 0.00128(7) 0.33402(5) 0.08666(11) 0.0172 Uani
O2E O 0.26777(16) 0.42395(11) 0.72978(14) 0.0268 Uani
O4C O 0.49168(11) 0.40039(12) 0.72919(14) 0.0274 Uani
O6D O 0.24438(11) 0.17624(16) 0.73118(13) 0.0248 Uani
N1 N 0.6667 0.3333 0.6219(8) 0.0378 Uani
H4 H 0.595(2) 0.324(5) 0.5888(15) 0.0450 Uiso
H5 H 0.6667 0.3333 0.7309(10) 0.0450 Uiso
H4A H 0.676(5) 0.271(5) 0.5888(15) 0.0450 Uiso
H4B H 0.729(5) 0.405(2) 0.5888(15) 0.0450 Uiso
N3 N 0.3333 0.6667 0.6231(8) 0.0367 Uani
H8 H 0.351(5) 0.609(3) 0.5899(15) 0.0440 Uiso
H9 H 0.3333 0.6667 0.7320(10) 0.0440 Uiso
H8A H 0.391(3) 0.742(6) 0.5899(15) 0.0440 Uiso
H8B H 0.258(6) 0.649(5) 0.5899(15) 0.0440 Uiso
N5 N 0.0000 -0.0000 0.1379(10) 0.0269 Uani
H12 H 0.031(4) 0.0759(9) 0.1753(17) 0.0320 Uiso
H13 H -0.0000 -0.0000 0.0299(12) 0.0320 Uiso
H12A H -0.0759(9) -0.0449(41) 0.1753(17) 0.0320 Uiso
H12B H 0.0449(41) -0.031(4) 0.1753(17) 0.0320 Uiso
loop_
_atom_site_aniso_label
_atom_site_aniso_U_11
_atom_site_aniso_U_22
_atom_site_aniso_U_33
_atom_site_aniso_U_23
_atom_site_aniso_U_13
_atom_site_aniso_U_12
Mg1 0.0200(3) 0.0199(3) 0.0121(3) 0.0016(2) -0.0008(2) 0.0102(3)
O1 0.0301(7) 0.0291(8) 0.0227(7) -0.0053(6) -0.0010(5) 0.0172(6)
O2 0.0293(7) 0.0263(7) 0.0228(8) -0.0069(6) 0.0012(5) 0.0123(6)
O3 0.0301(8) 0.0258(7) 0.0251(7) 0.0085(5) 0.0089(6) 0.0133(6)
O4 0.0254(7) 0.0294(7) 0.0251(8) 0.0086(6) 0.0093(6) 0.0119(6)
O5 0.0265(7) 0.0307(8) 0.0204(7) 0.0049(5) -0.0058(5) 0.0151(6)
O6 0.0298(7) 0.0284(7) 0.0200(7) -0.0047(5) -0.0128(6) 0.0173(6)
C1 0.0262(11) 0.0372(13) 0.0527(18) -0.0245(10) -0.0024(10) 0.0144(10)
C2 0.0387(13) 0.0324(12) 0.0571(19) 0.0252(11) 0.0263(11) 0.0243(11)
C3 0.0340(11) 0.0219(10) 0.0318(10) -0.0015(9) -0.0169(9) 0.0124(9)
Mg1C 0.02 0.0199 0.0121 -0.0016 0.0008 0.0102
Mg1D 0.0199 0.0195 0.0121 0.0024 0.0016 0.0097
Mg1E 0.0195 0.02 0.0121 -0.0008 -0.0024 0.0098
O2E 0.031 0.0293 0.0228 0.0012 0.0081 0.017
O4C 0.0254 0.0294 0.0251 -0.0086 -0.0093 0.0119
O6D 0.0284 0.0236 0.02 0.0081 -0.0047 0.0111
N1 0.0381(13) 0.0381(13) 0.037(3) 0.000 0.000 0.0190(7)
N3 0.0381(13) 0.0381(13) 0.034(3) 0.000 0.000 0.0191(7)
N5 0.0343(10) 0.0343(10) 0.012(5) 0.000 0.000 0.0171(5)
loop_
_geom_bond_atom_site_label_1
_geom_bond_atom_site_label_2
_geom_bond_site_symmetry_1
_geom_bond_site_symmetry_2
Mg1 O1 1_555 1_555
O1 C1 1_555 1_555
O2 C1 1_555 1_555
O3 Mg1 1_555 1_555
O4 C2 1_555 1_555
O5 Mg1 1_555 1_555
O6 C3 1_555 1_555
C1 H1 1_555 1_555
C2 O3 1_555 1_555
H2 C2 1_555 1_555
C3 O5 1_555 1_555
H3 C3 1_555 1_555
N1 H4 1_555 1_555
H5 N1 1_555 1_555
N3 H8 1_555 1_555
H9 N3 1_555 1_555
N5 H12 1_555 1_555
H13 N5 1_555 1_555
Mg1C O4 1_555 1_555
Mg1D O2 1_555 1_555
Mg1E O6 1_555 1_555
O2E Mg1 1_555 1_555
O4C Mg1 1_555 1_555
O6D Mg1 1_555 1_555
H4A N1 1_555 1_555
H4B N1 1_555 1_555
H8A N3 1_555 1_555
H8B N3 1_555 1_555
H12A N5 1_555 1_555
H12B N5 1_555 1_555

#END
