
#######################################################################
#
#                 Cambridge Crystallographic Data Centre
#                                CCDC 
#
#######################################################################
#
# If this CIF has been generated from an entry in the Cambridge 
# Structural Database, then it will include bibliographic, chemical, 
# crystal, experimental, refinement or atomic coordinate data resulting 
# from the CCDC's data processing and validation procedures.
#
#######################################################################

data_XAFXOT
_chemical_formula_moiety         '(C24 H32 La2 N6 O22)n'
_symmetry_cell_setting           triclinic
_symmetry_space_group_name_H-M   'P -1'
_symmetry_Int_Tables_number      2
_space_group_name_Hall           '-P 1'
loop_
_symmetry_equiv_pos_site_id
_symmetry_equiv_pos_as_xyz
1 x,y,z
2 -x,-y,-z
_cell_length_a                   4.5588(2)
_cell_length_b                   11.9018(5)
_cell_length_c                   15.8005(6)
_cell_angle_alpha                85.912(4)
_cell_angle_beta                 84.811(3)
_cell_angle_gamma                83.249(3)
_cell_volume                     846.273
loop_
_atom_site_label
_atom_site_type_symbol
_atom_site_fract_x
_atom_site_fract_y
_atom_site_fract_z
La1 La 1.19167(4) 0.224261(15) 0.326333(12)
O1 O 1.6013(5) 0.10212(18) 0.39300(14)
O2 O 2.0516(5) 0.02403(19) 0.35126(16)
O3 O 1.9252(5) -0.20812(19) 0.51726(14)
O4 O 2.3634(5) -0.3474(2) 0.21226(15)
O5 O 2.2346(5) -0.57447(19) 0.38787(16)
O6 O 2.6778(5) -0.65697(18) 0.34863(14)
O7 O 0.8039(5) 0.20133(19) 0.22626(14)
O8 O 0.4409(5) 0.0998(2) 0.20653(14)
O9 O 0.7998(5) -0.1396(2) 0.11039(15)
N1 N 1.9093(5) -0.1909(2) 0.37546(16)
N2 N 2.3925(5) -0.3596(2) 0.35440(17)
N3 N 0.6954(5) 0.0370(2) 0.05256(16)
C1 C 1.7857(6) 0.0184(3) 0.3755(2)
C2 C 1.6725(6) -0.0976(2) 0.3830(2)
H1 H 1.5573 -0.1071 0.4387
H2 H 1.5368 -0.1010 0.3380
C3 C 2.0309(7) -0.2179(3) 0.2895(2)
H3 H 2.1078 -0.1493 0.2609
H4 H 1.8667 -0.2354 0.2575
C4 C 2.2744(7) -0.3148(3) 0.2831(2)
C5 C 2.0246(6) -0.2375(2) 0.44563(19)
C6 C 2.2757(6) -0.3305(3) 0.4398(2)
H5 H 2.4397 -0.3084 0.4698
H6 H 2.2087 -0.3994 0.4708
C7 C 2.6222(6) -0.4558(3) 0.3491(2)
H7 H 2.7640 -0.4502 0.3921
H8 H 2.7325 -0.4517 0.2922
C8 C 2.5006(6) -0.5695(3) 0.36341(19)
C9 C 0.6904(7) 0.1323(3) 0.1872(2)
C10 C 0.8725(7) 0.0862(3) 0.1090(2)
H9 H 0.9694 0.1484 0.0772
H10 H 1.0304 0.0277 0.1276
C11 C 0.6640(7) -0.0725(3) 0.0605(2)
C12 C 0.5423(7) 0.1182(3) -0.0062(2)
H11 H 0.4272 0.1782 0.0273
H12 H 0.6932 0.1545 -0.0442
O10 O 1.2499(5) 0.3641(2) 0.19548(16)
H13 H 1.1773 0.3400 0.1542
H14 H 1.1474 0.4368 0.2083
La1_2 La 0.19167(4) 0.224261(15) 0.326333(12)
La1_3 La 2.19167(4) 0.224261(15) 0.326333(12)
La1A La 1.80833(4) -0.224261(15) 0.673667(12)
La1_4 La 2.19167(4) -0.775739(15) 0.326333(12)
La1_5 La 3.19167(4) -0.775739(15) 0.326333(12)
La1A_2 La -0.19167(4) -0.224261(15) -0.326333(12)
La1A_3 La 0.80833(4) -0.224261(15) -0.326333(12)
La1A_4 La 0.80833(4) -0.224261(15) 0.673667(12)
La1_6 La 1.19167(4) -0.775739(15) 0.326333(12)
O1_2 O 0.6013(5) 0.10212(18) 0.39300(14)
O2_2 O 1.0516(5) 0.02403(19) 0.35126(16)
O2_3 O 0.0516(5) 0.02403(19) 0.35126(16)
O3_2 O 0.9252(5) -0.20812(19) 0.51726(14)
O3A O 1.0748(5) 0.20812(19) 0.48274(14)
O3A_2 O 0.0748(5) 0.20812(19) 0.48274(14)
O4_2 O 1.3634(5) -0.3474(2) 0.21226(15)
O5_2 O 1.2346(5) -0.57447(19) 0.38787(16)
O5_3 O 1.2346(5) 0.42553(19) 0.38787(16)
O5_4 O 0.2346(5) 0.42553(19) 0.38787(16)
O6_2 O 1.6778(5) -0.65697(18) 0.34863(14)
O6_3 O 0.6778(5) 0.34303(18) 0.34863(14)
O6_4 O 1.6778(5) 0.34303(18) 0.34863(14)
O6_5 O -0.3222(5) 0.34303(18) 0.34863(14)
O7A O 0.1961(5) -0.20133(19) -0.22626(14)
O7_2 O -0.1961(5) 0.20133(19) 0.22626(14)
O8A O 0.5591(5) -0.0998(2) -0.20653(14)
O8_2 O 1.4409(5) 0.0998(2) 0.20653(14)
O9A O 0.2002(5) 0.1396(2) -0.11039(15)
N1_2 N 0.9093(5) -0.1909(2) 0.37546(16)
N2_2 N 1.3925(5) -0.3596(2) 0.35440(17)
N3A N 0.3046(5) -0.0370(2) -0.05256(16)
C1_2 C 0.7857(6) 0.0184(3) 0.3755(2)
C2_2 C 0.6725(6) -0.0976(2) 0.3830(2)
H1_2 H 0.5573 -0.1071 0.4387
H2_2 H 0.5368 -0.1010 0.3380
C3_2 C 1.0309(7) -0.2179(3) 0.2895(2)
H3_2 H 1.1078 -0.1493 0.2609
H4_2 H 0.8667 -0.2354 0.2575
C4_2 C 1.2744(7) -0.3148(3) 0.2831(2)
C5_2 C 1.0246(6) -0.2375(2) 0.44563(19)
C6_2 C 1.2757(6) -0.3305(3) 0.4398(2)
H5_2 H 1.4397 -0.3084 0.4698
H6_2 H 1.2087 -0.3994 0.4708
C7_2 C 1.6222(6) -0.4558(3) 0.3491(2)
H7_2 H 1.7640 -0.4502 0.3921
H8_2 H 1.7325 -0.4517 0.2922
C8_2 C 1.5006(6) -0.5695(3) 0.36341(19)
C9A C 0.3096(7) -0.1323(3) -0.1872(2)
C10A C 0.1275(7) -0.0862(3) -0.1090(2)
H9A H 0.0306 -0.1484 -0.0772
H10A H -0.0304 -0.0277 -0.1276
C11A C 0.3360(7) 0.0725(3) -0.0605(2)
C12A C 0.4577(7) -0.1182(3) 0.0062(2)
H11A H 0.5728 -0.1782 -0.0273
H12A H 0.3068 -0.1545 0.0442
O10_2 O 0.2499(5) 0.3641(2) 0.19548(16)
H13_2 H 0.1773 0.3400 0.1542
H14_2 H 0.1474 0.4368 0.2083
O11 O 1.0250(6) 0.6384(2) 0.07640(16)
O12 O 0.7631(5) 0.4329(2) 0.09222(16)
loop_
_geom_bond_atom_site_label_1
_geom_bond_atom_site_label_2
_geom_bond_site_symmetry_1
_geom_bond_site_symmetry_2
La1 O1 1_555 1_555
O1 C1 1_555 1_555
O2 C1 1_555 1_555
O3 C5 1_555 1_555
O4 C4 1_555 1_555
O5 C8 1_555 1_555
O6 C8 1_555 1_555
O7 La1 1_555 1_555
O8 C9 1_555 1_555
O9 C11 1_555 1_555
N1 C2 1_555 1_555
N2 C4 1_555 1_555
N3 C10 1_555 1_555
C1 C2 1_555 1_555
C2 H1 1_555 1_555
H2 C2 1_555 1_555
C3 N1 1_555 1_555
H3 C3 1_555 1_555
H4 C3 1_555 1_555
C4 C3 1_555 1_555
C5 N1 1_555 1_555
C6 N2 1_555 1_555
H5 C6 1_555 1_555
H6 C6 1_555 1_555
C7 N2 1_555 1_555
H7 C7 1_555 1_555
H8 C7 1_555 1_555
C8 C7 1_555 1_555
C9 O7 1_555 1_555
C10 C9 1_555 1_555
H9 C10 1_555 1_555
H10 C10 1_555 1_555
C11 N3 1_555 1_555
C12 N3 1_555 1_555
H11 C12 1_555 1_555
H12 C12 1_555 1_555
O10 La1 1_555 1_555
H13 O10 1_555 1_555
H14 O10 1_555 1_555
La1_2 O8 1_555 1_555
La1_3 O2 1_555 1_555
La1A O3 1_555 1_555
La1_4 O5 1_555 1_555
La1_5 O6 1_555 1_555
La1A_2 O7A 1_555 1_555
La1A_3 O8A 1_555 1_555
La1A_4 O3_2 1_555 1_555
La1_6 O5_2 1_555 1_555
O1_2 La1_2 1_555 1_555
O2_2 La1 1_555 1_555
O2_3 La1_2 1_555 1_555
O3_2 C5_2 1_555 1_555
O3A La1 1_555 1_555
O3A_2 La1_2 1_555 1_555
O4_2 C4_2 1_555 1_555
O5_2 C8_2 1_555 1_555
O5_3 La1 1_555 1_555
O5_4 La1_2 1_555 1_555
O6_2 La1_4 1_555 1_555
O6_3 La1 1_555 1_555
O6_4 La1 1_555 1_555
O6_5 La1_2 1_555 1_555
O7A C9A 1_555 1_555
O7_2 La1_2 1_555 1_555
O8A C9A 1_555 1_555
O8_2 La1 1_555 1_555
O9A C11A 1_555 1_555
N1_2 C2_2 1_555 1_555
N2_2 C4_2 1_555 1_555
N3A C10A 1_555 1_555
C1_2 O1_2 1_555 1_555
C2_2 C1_2 1_555 1_555
H1_2 C2_2 1_555 1_555
H2_2 C2_2 1_555 1_555
C3_2 N1_2 1_555 1_555
H3_2 C3_2 1_555 1_555
H4_2 C3_2 1_555 1_555
C4_2 C3_2 1_555 1_555
C5_2 N1_2 1_555 1_555
C6_2 N2_2 1_555 1_555
H5_2 C6_2 1_555 1_555
H6_2 C6_2 1_555 1_555
C7_2 N2_2 1_555 1_555
H7_2 C7_2 1_555 1_555
H8_2 C7_2 1_555 1_555
C8_2 O6_2 1_555 1_555
C9A C10A 1_555 1_555
C10A H9A 1_555 1_555
H10A C10A 1_555 1_555
C11A C12 1_555 1_555
C12A C11 1_555 1_555
H11A C12A 1_555 1_555
H12A C12A 1_555 1_555
O10_2 La1_2 1_555 1_555
H13_2 O10_2 1_555 1_555
H14_2 O10_2 1_555 1_555
O6 La1_4 1_555 1_555
C5 C6 1_555 1_555
La1_2 O6_3 1_555 1_555
La1_6 O6_2 1_555 1_555
O2_2 C1_2 1_555 1_555
N3A C11A 1_555 1_555
N3A C12A 1_555 1_555
C5_2 C6_2 1_555 1_555
C7_2 C8_2 1_555 1_555

#END
