
#######################################################################
#
#                 Cambridge Crystallographic Data Centre
#                                CCDC 
#
#######################################################################
#
# If this CIF has been generated from an entry in the Cambridge 
# Structural Database, then it will include bibliographic, chemical, 
# crystal, experimental, refinement or atomic coordinate data resulting 
# from the CCDC's data processing and validation procedures.
#
#######################################################################

data_KUDLUR
_chemical_formula_moiety         '(C24 H32 Cu3 Dy2 N6 O25)n'
_symmetry_cell_setting           trigonal
_symmetry_space_group_name_H-M   'P -3 c 1'
_symmetry_Int_Tables_number      165
_space_group_name_Hall           '-P 3 2"c'
loop_
_symmetry_equiv_pos_site_id
_symmetry_equiv_pos_as_xyz
1 x,y,z
2 -y,x-y,z
3 -x+y,-x,z
4 y,x,1/2-z
5 -x,-x+y,1/2-z
6 x-y,-y,1/2-z
7 -x,-y,-z
8 y,-x+y,-z
9 x-y,x,-z
10 -y,-x,1/2+z
11 x,x-y,1/2+z
12 -x+y,y,1/2+z
_cell_length_a                   13.3503(15)
_cell_length_b                   13.3503(15)
_cell_length_c                   14.3853(19)
_cell_angle_alpha                90
_cell_angle_beta                 90
_cell_angle_gamma                120
_cell_volume                     2220.4
loop_
_atom_site_label
_atom_site_type_symbol
_atom_site_fract_x
_atom_site_fract_y
_atom_site_fract_z
Dy1 Dy -0.3333 0.3333 1.16750(2)
Cu1 Cu 0.0000 0.5000 1.0000
N1 N -0.0422(4) 0.6104(4) 0.9418(3)
H1 H 0.0238 0.6736 0.9216
O1 O -0.1888(3) 0.4511(3) 1.0595(3)
O2 O -0.2457(3) 0.5608(4) 1.1280(3)
O3 O -0.1845(3) 0.3809(4) 0.7705(3)
O4 O -0.0751(4) 0.4017(3) 0.8918(3)
C1 C -0.1850(5) 0.5467(5) 1.0699(4)
C2 C -0.0982(5) 0.6483(5) 1.0102(4)
H3 H -0.1380 0.6822 0.9781
H4 H -0.0398 0.7072 1.0500
C3 C -0.1263(4) 0.4366(5) 0.8391(3)
C4 C -0.1172(5) 0.5521(5) 0.8595(4)
H5 H -0.0858 0.6018 0.8056
H6 H -0.1940 0.5403 0.8710
Dy1I Dy -0.3333 0.3333 1.66750(2)
Dy1I_2 Dy -0.3333 0.3333 0.66750(2)
Cu1C Cu -0.5000 0.0000 1.5000
Cu1A Cu -0.5000 0.5000 1.0000
Cu1B Cu -0.5000 0.0000 1.0000
Cu1D Cu 0.0000 0.5000 1.5000
Cu1E Cu -0.5000 0.5000 1.5000
N1I N -0.6104(4) 0.0422(4) 1.4418(3)
N1A N -0.6104(4) 0.3474(6) 0.9418(3)
N1B N -0.3474(6) 0.0422(4) 0.9418(3)
N1J N -0.0422(4) 0.3474(6) 1.4418(3)
N1K N -0.3474(6) 0.6104(4) 1.4418(3)
N1F N 0.0422(4) 0.3896(4) 1.0582(3)
N1C N -0.3896(4) -0.0422(4) 1.5582(3)
N1G N -0.3896(4) 0.6526(6) 1.0582(3)
H1I H -0.6736 -0.0238 1.4216
H1A H -0.6736 0.3502 0.9216
H1B H -0.3502 -0.0238 0.9216
H1J H 0.0238 0.3502 1.4216
H1K H -0.3502 0.6736 1.4216
H1F H -0.0238 0.3264 1.0784
H1C H -0.3264 0.0238 1.5784
H1G H -0.3264 0.6498 1.0784
O1I O -0.4511(3) 0.1888(3) 1.5595(3)
O1A O -0.4511(3) 0.3601(4) 1.0595(3)
O1B O -0.3601(4) 0.1888(3) 1.0595(3)
O1J O -0.1888(3) 0.3601(4) 1.5595(3)
O1K O -0.3601(4) 0.4511(3) 1.5595(3)
O1F O 0.1888(3) 0.5489(3) 0.9405(3)
O1C O -0.5489(3) -0.1888(3) 1.4405(3)
O1G O -0.5489(3) 0.6399(4) 0.9405(3)
O2I O -0.5608(4) 0.2457(3) 1.6280(3)
O2A O -0.5608(4) 0.1935(5) 1.1280(3)
O2B O -0.1935(5) 0.2457(3) 1.1280(3)
O2J O -0.2457(3) 0.1935(5) 1.6280(3)
O2K O -0.1935(5) 0.5608(4) 1.6280(3)
O3I O -0.3809(4) 0.1845(3) 1.2705(3)
O3A O -0.3809(4) 0.4346(5) 0.7705(3)
O3B O -0.4346(5) 0.1845(3) 0.7705(3)
O3J O -0.1845(3) 0.4346(5) 1.2705(3)
O3K O -0.4346(5) 0.3809(4) 1.2705(3)
O3_2 O -0.1845(3) 0.3809(4) 1.7705(3)
O3B_2 O -0.4346(5) 0.1845(3) 1.7705(3)
O3A_2 O -0.3809(4) 0.4346(5) 1.7705(3)
O4I O -0.4017(3) 0.0751(4) 1.3918(3)
O4A O -0.4017(3) 0.5232(5) 0.8918(3)
O4B O -0.5232(5) 0.0751(4) 0.8918(3)
O4J O -0.0751(4) 0.5232(5) 1.3918(3)
O4K O -0.5232(5) 0.4017(3) 1.3918(3)
O4F O 0.0751(4) 0.5983(3) 1.1082(3)
O4C O -0.5983(3) -0.0751(4) 1.6082(3)
O4G O -0.5983(3) 0.4768(5) 1.1082(3)
C1I C -0.5467(5) 0.1850(5) 1.5699(4)
C1A C -0.5467(5) 0.2683(7) 1.0699(4)
C1B C -0.2683(7) 0.1850(5) 1.0699(4)
C1J C -0.1850(5) 0.2683(7) 1.5699(4)
C1K C -0.2683(7) 0.5467(5) 1.5699(4)
C2I C -0.6483(5) 0.0982(5) 1.5102(4)
C2A C -0.6483(5) 0.2535(7) 1.0102(4)
C2B C -0.2535(7) 0.0982(5) 1.0102(4)
C2J C -0.0982(5) 0.2535(7) 1.5102(4)
C2K C -0.2535(7) 0.6483(5) 1.5102(4)
H3I H -0.6822 0.1380 1.4781
H3A H -0.6822 0.1798 0.9781
H3B H -0.1798 0.1380 0.9781
H3J H -0.1380 0.1798 1.4781
H3K H -0.1798 0.6822 1.4781
H4I H -0.7072 0.0398 1.5500
H4A H -0.7072 0.2530 1.0500
H4B H -0.2530 0.0398 1.0500
H4J H -0.0398 0.2530 1.5500
H4K H -0.2530 0.7072 1.5500
C3I C -0.4366(5) 0.1263(4) 1.3391(3)
C3A C -0.4366(5) 0.4371(6) 0.8391(3)
C3B C -0.4371(6) 0.1263(4) 0.8391(3)
C3J C -0.1263(4) 0.4371(6) 1.3391(3)
C3K C -0.4371(6) 0.4366(5) 1.3391(3)
C4I C -0.5521(5) 0.1172(5) 1.3595(4)
C4A C -0.5521(5) 0.3307(7) 0.8595(4)
C4B C -0.3307(7) 0.1172(5) 0.8595(4)
C4J C -0.1172(5) 0.3307(7) 1.3595(4)
C4K C -0.3307(7) 0.5521(5) 1.3595(4)
H5I H -0.6018 0.0858 1.3056
H5A H -0.6018 0.3124 0.8056
H5B H -0.3124 0.0858 0.8056
H5J H -0.0858 0.3124 1.3056
H5K H -0.3124 0.6018 1.3056
H6I H -0.5403 0.1940 1.3710
H6A H -0.5403 0.2657 0.8710
H6B H -0.2657 0.1940 0.8710
H6J H -0.1940 0.2657 1.3710
H6K H -0.2657 0.5403 1.3710
O5 O 0.0000 0.2662(11) 0.7500
H2 H -0.0233 0.2919 0.7940
H2D H 0.0233 0.3152 0.7060
loop_
_geom_bond_atom_site_label_1
_geom_bond_atom_site_label_2
_geom_bond_site_symmetry_1
_geom_bond_site_symmetry_2
Dy1 O1 1_555 1_555
Cu1 N1 1_555 1_555
N1 H1 1_555 1_555
O1 Cu1 1_555 1_555
O2 Dy1 1_555 1_555
O3 C3 1_555 1_555
O4 Cu1 1_555 1_555
O5 H2 1_555 1_555
C1 O1 1_555 1_555
C2 N1 1_555 1_555
H3 C2 1_555 1_555
H4 C2 1_555 1_555
C3 O4 1_555 1_555
C4 N1 1_555 1_555
H5 C4 1_555 1_555
H6 C4 1_555 1_555
Dy1I O1I 1_555 1_555
Dy1I_2 O3 1_555 1_555
Cu1C N1I 1_555 1_555
Cu1A N1A 1_555 1_555
Cu1B N1B 1_555 1_555
Cu1D N1J 1_555 1_555
Cu1E N1K 1_555 1_555
N1I H1I 1_555 1_555
N1A H1A 1_555 1_555
N1B H1B 1_555 1_555
N1J H1J 1_555 1_555
N1K H1K 1_555 1_555
N1F Cu1 1_555 1_555
N1C Cu1C 1_555 1_555
N1G Cu1A 1_555 1_555
H1F N1F 1_555 1_555
H1C N1C 1_555 1_555
H1G N1G 1_555 1_555
O1I Cu1C 1_555 1_555
O1A Dy1 1_555 1_555
O1B Dy1 1_555 1_555
O1J Dy1I 1_555 1_555
O1K Dy1I 1_555 1_555
O1F Cu1 1_555 1_555
O1C Cu1C 1_555 1_555
O1G Cu1A 1_555 1_555
O2I Dy1I 1_555 1_555
O2A Dy1 1_555 1_555
O2B Dy1 1_555 1_555
O2J Dy1I 1_555 1_555
O2K Dy1I 1_555 1_555
O3I Dy1 1_555 1_555
O3A Dy1I_2 1_555 1_555
O3B Dy1I_2 1_555 1_555
O3J Dy1 1_555 1_555
O3K Dy1 1_555 1_555
O3_2 Dy1I 1_555 1_555
O3B_2 Dy1I 1_555 1_555
O3A_2 Dy1I 1_555 1_555
O4I Cu1C 1_555 1_555
O4A Cu1A 1_555 1_555
O4B Cu1B 1_555 1_555
O4J Cu1D 1_555 1_555
O4K Cu1E 1_555 1_555
O4F Cu1 1_555 1_555
O4C Cu1C 1_555 1_555
O4G Cu1A 1_555 1_555
H2D O5 1_555 1_555
C1I O1I 1_555 1_555
C1A O1A 1_555 1_555
C1B O1B 1_555 1_555
C1J O1J 1_555 1_555
C1K O1K 1_555 1_555
C2I N1I 1_555 1_555
C2A N1A 1_555 1_555
C2B N1B 1_555 1_555
C2J N1J 1_555 1_555
C2K N1K 1_555 1_555
H3I C2I 1_555 1_555
H3A C2A 1_555 1_555
H3B C2B 1_555 1_555
H3J C2J 1_555 1_555
H3K C2K 1_555 1_555
H4I C2I 1_555 1_555
H4A C2A 1_555 1_555
H4B C2B 1_555 1_555
H4J C2J 1_555 1_555
H4K C2K 1_555 1_555
C3I O3I 1_555 1_555
C3A O3A 1_555 1_555
C3B O3B 1_555 1_555
C3J O3J 1_555 1_555
C3K O3K 1_555 1_555
C4I N1I 1_555 1_555
C4A N1A 1_555 1_555
C4B N1B 1_555 1_555
C4J N1J 1_555 1_555
C4K N1K 1_555 1_555
H5I C4I 1_555 1_555
H5A C4A 1_555 1_555
H5B C4B 1_555 1_555
H5J C4J 1_555 1_555
H5K C4K 1_555 1_555
H6I C4I 1_555 1_555
H6A C4A 1_555 1_555
H6B C4B 1_555 1_555
H6J C4J 1_555 1_555
H6K C4K 1_555 1_555
O2 C1 1_555 1_555
C1 C2 1_555 1_555
C3 C4 1_555 1_555
Cu1A O1A 1_555 1_555
Cu1B O1B 1_555 1_555
Cu1D O1J 1_555 1_555
Cu1E O1K 1_555 1_555
O2I C1I 1_555 1_555
O2A C1A 1_555 1_555
O2B C1B 1_555 1_555
O2J C1J 1_555 1_555
O2K C1K 1_555 1_555
O4I C3I 1_555 1_555
O4A C3A 1_555 1_555
O4B C3B 1_555 1_555
O4J C3J 1_555 1_555
O4K C3K 1_555 1_555
C1I C2I 1_555 1_555
C1A C2A 1_555 1_555
C1B C2B 1_555 1_555
C1J C2J 1_555 1_555
C1K C2K 1_555 1_555
C3I C4I 1_555 1_555
C3A C4A 1_555 1_555
C3B C4B 1_555 1_555
C3J C4J 1_555 1_555
C3K C4K 1_555 1_555

#END
