
#######################################################################
#
#                 Cambridge Crystallographic Data Centre
#                                CCDC 
#
#######################################################################
#
# If this CIF has been generated from an entry in the Cambridge 
# Structural Database, then it will include bibliographic, chemical, 
# crystal, experimental, refinement or atomic coordinate data resulting 
# from the CCDC's data processing and validation procedures.
#
#######################################################################

data_KUDMAY
_chemical_formula_moiety         '(C24 H32 Cu3 N6 O25 Tb2)n'
_symmetry_cell_setting           trigonal
_symmetry_space_group_name_H-M   'P -3 c 1'
_symmetry_Int_Tables_number      165
_space_group_name_Hall           '-P 3 2"c'
loop_
_symmetry_equiv_pos_site_id
_symmetry_equiv_pos_as_xyz
1 x,y,z
2 -y,x-y,z
3 -x+y,-x,z
4 y,x,1/2-z
5 -x,-x+y,1/2-z
6 x-y,-y,1/2-z
7 -x,-y,-z
8 y,-x+y,-z
9 x-y,x,-z
10 -y,-x,1/2+z
11 x,x-y,1/2+z
12 -x+y,y,1/2+z
_cell_length_a                   13.352(1)
_cell_length_b                   13.352(1)
_cell_length_c                   14.414(2)
_cell_angle_alpha                90
_cell_angle_beta                 90
_cell_angle_gamma                120
_cell_volume                     2225.4
loop_
_atom_site_label
_atom_site_type_symbol
_atom_site_fract_x
_atom_site_fract_y
_atom_site_fract_z
Tb1 Tb -0.3333 0.3333 -0.16760(3)
Cu1 Cu -0.5000 0.0000 0.0000
N1 N -0.0420(4) 0.3478(4) -0.4414(3)
H1 H 0.0239 0.3507 -0.4212
O1 O -0.1842(4) 0.4346(4) -0.2713(3)
O2 O -0.0745(4) 0.5236(4) -0.3923(3)
O3 O -0.1887(4) 0.3607(4) -0.5586(3)
O4 O -0.2447(4) 0.1942(4) -0.6276(3)
C1 C -0.1264(5) 0.4358(5) -0.3398(4)
C2 C -0.1170(6) 0.3313(5) -0.3596(4)
H3 H -0.0854 0.3134 -0.3056
H4 H -0.1936 0.2661 -0.3709
C3 C -0.1838(5) 0.2696(5) -0.5697(4)
C4 C -0.0982(5) 0.2534(5) -0.5095(4)
H5 H -0.1388 0.1800 -0.4772
H6 H -0.0398 0.2522 -0.5488
Tb1I Tb -0.3333 0.3333 0.33240(3)
Tb1I_2 Tb -0.3333 0.3333 -0.66760(3)
Cu1C Cu 0.0000 0.5000 -0.5000
Cu1D Cu -0.5000 0.5000 -0.5000
Cu1E Cu -0.5000 0.0000 -0.5000
Cu1A Cu 0.0000 0.5000 0.0000
Cu1B Cu -0.5000 0.5000 0.0000
N1I N -0.3478(4) 0.0420(4) 0.0586(3)
N1A N -0.3478(4) 0.6102(6) -0.4414(3)
N1B N -0.6102(6) 0.0420(4) -0.4414(3)
N1J N -0.0420(4) 0.6102(6) 0.0586(3)
N1K N -0.6102(6) 0.3478(4) 0.0586(3)
N1C N -0.6522(4) -0.0420(4) -0.0586(3)
N1G N -0.6522(4) 0.3898(6) -0.5586(3)
N1D N 0.0420(4) 0.3898(6) -0.0586(3)
H1I H -0.3507 -0.0239 0.0788
H1A H -0.3507 0.6732 -0.4212
H1B H -0.6732 -0.0239 -0.4212
H1J H 0.0239 0.6732 0.0788
H1K H -0.6732 0.3507 0.0788
H1C H -0.6493 0.0239 -0.0788
H1G H -0.6493 0.3268 -0.5788
H1D H -0.0239 0.3268 -0.0788
O1I O -0.4346(4) 0.1842(4) 0.2287(3)
O1A O -0.4346(4) 0.3812(6) -0.2713(3)
O1B O -0.3812(6) 0.1842(4) -0.2713(3)
O1J O -0.1842(4) 0.3812(6) 0.2287(3)
O1K O -0.3812(6) 0.4346(4) 0.2287(3)
O1I_2 O -0.4346(4) 0.1842(4) -0.7713(3)
O1J_2 O -0.1842(4) 0.3812(6) -0.7713(3)
O1K_2 O -0.3812(6) 0.4346(4) -0.7713(3)
O2I O -0.5236(4) 0.0745(4) 0.1077(3)
O2A O -0.5236(4) 0.4019(6) -0.3923(3)
O2B O -0.4019(6) 0.0745(4) -0.3923(3)
O2J O -0.0745(4) 0.4019(6) 0.1077(3)
O2K O -0.4019(6) 0.5236(4) 0.1077(3)
O2C O -0.4764(4) -0.0745(4) -0.1077(3)
O2G O -0.4764(4) 0.5981(6) -0.6077(3)
O2D O 0.0745(4) 0.5981(6) -0.1077(3)
O3I O -0.3607(4) 0.1887(4) -0.0586(3)
O3A O -0.3607(4) 0.4506(6) -0.5586(3)
O3B O -0.4506(6) 0.1887(4) -0.5586(3)
O3J O -0.1887(4) 0.4506(6) -0.0586(3)
O3K O -0.4506(6) 0.3607(4) -0.0586(3)
O3C O -0.6393(4) -0.1887(4) 0.0586(3)
O3G O -0.6393(4) 0.5494(6) -0.4414(3)
O3D O 0.1887(4) 0.5494(6) 0.0586(3)
O4I O -0.1942(4) 0.2447(4) -0.1276(3)
O4A O -0.1942(4) 0.5611(6) -0.6276(3)
O4B O -0.5611(6) 0.2447(4) -0.6276(3)
O4J O -0.2447(4) 0.5611(6) -0.1276(3)
O4K O -0.5611(6) 0.1942(4) -0.1276(3)
C1I C -0.4358(5) 0.1264(5) 0.1602(4)
C1A C -0.4358(5) 0.4378(7) -0.3398(4)
C1B C -0.4378(7) 0.1264(5) -0.3398(4)
C1J C -0.1264(5) 0.4378(7) 0.1602(4)
C1K C -0.4378(7) 0.4358(5) 0.1602(4)
C2I C -0.3313(5) 0.1170(6) 0.1404(4)
C2A C -0.3313(5) 0.5517(8) -0.3596(4)
C2B C -0.5517(8) 0.1170(6) -0.3596(4)
C2J C -0.1170(6) 0.5517(8) 0.1404(4)
C2K C -0.5517(8) 0.3313(5) 0.1404(4)
H3I H -0.3134 0.0854 0.1944
H3A H -0.3134 0.6012 -0.3056
H3B H -0.6012 0.0854 -0.3056
H3J H -0.0854 0.6012 0.1944
H3K H -0.6012 0.3134 0.1944
H4I H -0.2661 0.1936 0.1291
H4A H -0.2661 0.5403 -0.3709
H4B H -0.5403 0.1936 -0.3709
H4J H -0.1936 0.5403 0.1291
H4K H -0.5403 0.2661 0.1291
C3I C -0.2696(5) 0.1838(5) -0.0697(4)
C3A C -0.2696(5) 0.5466(7) -0.5697(4)
C3B C -0.5466(7) 0.1838(5) -0.5697(4)
C3J C -0.1838(5) 0.5466(7) -0.0697(4)
C3K C -0.5466(7) 0.2696(5) -0.0697(4)
C4I C -0.2534(5) 0.0982(5) -0.0095(4)
C4A C -0.2534(5) 0.6484(7) -0.5095(4)
C4B C -0.6484(7) 0.0982(5) -0.5095(4)
C4J C -0.0982(5) 0.6484(7) -0.0095(4)
C4K C -0.6484(7) 0.2534(5) -0.0095(4)
H5I H -0.1800 0.1388 0.0228
H5A H -0.1800 0.6812 -0.4772
H5B H -0.6812 0.1388 -0.4772
H5J H -0.1388 0.6812 0.0228
H5K H -0.6812 0.1800 0.0228
H6I H -0.2522 0.0398 -0.0488
H6A H -0.2522 0.7080 -0.5488
H6B H -0.7080 0.0398 -0.5488
H6J H -0.0398 0.7080 -0.0488
H6K H -0.7080 0.2522 -0.0488
O5 O 0.2705(12) 1.0000 -0.7500
H2 H 0.2963 0.9770 -0.7060
H2E H 0.3193 1.0230 -0.7940
loop_
_geom_bond_atom_site_label_1
_geom_bond_atom_site_label_2
_geom_bond_site_symmetry_1
_geom_bond_site_symmetry_2
Tb1 O1 1_555 1_555
Cu1 N1I 1_555 1_555
N1 H1 1_555 1_555
O1 C1 1_555 1_555
O2 C1 1_555 1_555
O3 C3 1_555 1_555
O4 C3 1_555 1_555
O5 H2 1_555 1_555
C1 C2 1_555 1_555
C2 N1 1_555 1_555
H3 C2 1_555 1_555
H4 C2 1_555 1_555
C3 C4 1_555 1_555
C4 N1 1_555 1_555
H5 C4 1_555 1_555
H6 C4 1_555 1_555
Tb1I O1I 1_555 1_555
Tb1I_2 O3 1_555 1_555
Cu1C N1 1_555 1_555
Cu1D N1A 1_555 1_555
Cu1E N1B 1_555 1_555
Cu1A N1J 1_555 1_555
Cu1B N1K 1_555 1_555
N1I H1I 1_555 1_555
N1A H1A 1_555 1_555
N1B H1B 1_555 1_555
N1J H1J 1_555 1_555
N1K H1K 1_555 1_555
N1C Cu1 1_555 1_555
N1G Cu1D 1_555 1_555
N1D Cu1A 1_555 1_555
H1C N1C 1_555 1_555
H1G N1G 1_555 1_555
H1D N1D 1_555 1_555
O1I C1I 1_555 1_555
O1A Tb1 1_555 1_555
O1B Tb1 1_555 1_555
O1J Tb1I 1_555 1_555
O1K Tb1I 1_555 1_555
O1I_2 Tb1I_2 1_555 1_555
O1J_2 Tb1I_2 1_555 1_555
O1K_2 Tb1I_2 1_555 1_555
O2I Cu1 1_555 1_555
O2A Cu1D 1_555 1_555
O2B Cu1E 1_555 1_555
O2J Cu1A 1_555 1_555
O2K Cu1B 1_555 1_555
O2C Cu1 1_555 1_555
O2G Cu1D 1_555 1_555
O2D Cu1A 1_555 1_555
O3I Tb1 1_555 1_555
O3A Tb1I_2 1_555 1_555
O3B Tb1I_2 1_555 1_555
O3J Tb1 1_555 1_555
O3K Tb1 1_555 1_555
O3C Cu1 1_555 1_555
O3G Cu1D 1_555 1_555
O3D Cu1A 1_555 1_555
O4I Tb1 1_555 1_555
O4A Tb1I_2 1_555 1_555
O4B Tb1I_2 1_555 1_555
O4J Tb1 1_555 1_555
O4K Tb1 1_555 1_555
H2E O5 1_555 1_555
C1I O2I 1_555 1_555
C1A O1A 1_555 1_555
C1B O1B 1_555 1_555
C1J O1J 1_555 1_555
C1K O1K 1_555 1_555
C2I N1I 1_555 1_555
C2A N1A 1_555 1_555
C2B N1B 1_555 1_555
C2J N1J 1_555 1_555
C2K N1K 1_555 1_555
H3I C2I 1_555 1_555
H3A C2A 1_555 1_555
H3B C2B 1_555 1_555
H3J C2J 1_555 1_555
H3K C2K 1_555 1_555
H4I C2I 1_555 1_555
H4A C2A 1_555 1_555
H4B C2B 1_555 1_555
H4J C2J 1_555 1_555
H4K C2K 1_555 1_555
C3I O3I 1_555 1_555
C3A O3A 1_555 1_555
C3B O3B 1_555 1_555
C3J O3J 1_555 1_555
C3K O3K 1_555 1_555
C4I N1I 1_555 1_555
C4A N1A 1_555 1_555
C4B N1B 1_555 1_555
C4J N1J 1_555 1_555
C4K N1K 1_555 1_555
H5I C4I 1_555 1_555
H5A C4A 1_555 1_555
H5B C4B 1_555 1_555
H5J C4J 1_555 1_555
H5K C4K 1_555 1_555
H6I C4I 1_555 1_555
H6A C4A 1_555 1_555
H6B C4B 1_555 1_555
H6J C4J 1_555 1_555
H6K C4K 1_555 1_555
Cu1 O3I 1_555 1_555
O2 Cu1C 1_555 1_555
O3 Cu1C 1_555 1_555
O4 Tb1I_2 1_555 1_555
Cu1D O3A 1_555 1_555
Cu1E O3B 1_555 1_555
Cu1A O3J 1_555 1_555
Cu1B O3K 1_555 1_555
O2A C1A 1_555 1_555
O2B C1B 1_555 1_555
O2J C1J 1_555 1_555
O2K C1K 1_555 1_555
O4I C3I 1_555 1_555
O4A C3A 1_555 1_555
O4B C3B 1_555 1_555
O4J C3J 1_555 1_555
O4K C3K 1_555 1_555
C1I C2I 1_555 1_555
C1A C2A 1_555 1_555
C1B C2B 1_555 1_555
C1J C2J 1_555 1_555
C1K C2K 1_555 1_555
C3I C4I 1_555 1_555
C3A C4A 1_555 1_555
C3B C4B 1_555 1_555
C3J C4J 1_555 1_555
C3K C4K 1_555 1_555

#END
