
#######################################################################
#
#                 Cambridge Crystallographic Data Centre
#                                CCDC 
#
#######################################################################
#
# If this CIF has been generated from an entry in the Cambridge 
# Structural Database, then it will include bibliographic, chemical, 
# crystal, experimental, refinement or atomic coordinate data resulting 
# from the CCDC's data processing and validation procedures.
#
#######################################################################

data_DADKUR
_chemical_formula_moiety         '(C22 H14 Co3 N8 O12)n'
_symmetry_cell_setting           monoclinic
_symmetry_space_group_name_H-M   'C 2/c'
_symmetry_Int_Tables_number      15
_space_group_name_Hall           '-C 2yc'
loop_
_symmetry_equiv_pos_site_id
_symmetry_equiv_pos_as_xyz
1 x,y,z
2 -x,y,1/2-z
3 1/2+x,1/2+y,z
4 1/2-x,1/2+y,1/2-z
5 -x,-y,-z
6 x,-y,1/2+z
7 1/2-x,1/2-y,-z
8 1/2+x,1/2-y,1/2+z
_cell_length_a                   18.545(2)
_cell_length_b                   19.571(3)
_cell_length_c                   15.773(2)
_cell_angle_alpha                90
_cell_angle_beta                 90.477(13)
_cell_angle_gamma                90
_cell_volume                     5724.52
loop_
_atom_site_label
_atom_site_type_symbol
_atom_site_fract_x
_atom_site_fract_y
_atom_site_fract_z
Co1 Co 0.09945(3) 0.51413(4) 0.51666(4)
Co2 Co 0.0000 0.71283(6) 0.2500
O1 O 0.14621(18) 0.5468(2) 0.6198(2)
O2 O 0.2086(2) 0.6272(3) 0.5532(3)
O3 O 0.2283(3) 0.5761(4) 1.0021(3)
O4 O 0.1554(2) 0.5159(2) 0.9216(2)
O5 O 0.40582(18) 0.7429(2) 0.7262(2)
O6 O 0.4354(2) 0.6993(3) 0.8473(3)
H1 H 0.4130 0.6968 0.8918
N1 N 0.0314(2) 0.5773(2) 0.4563(2)
N2 N -0.0031(2) 0.6462(2) 0.3495(2)
N3 N -0.0380(2) 0.5595(2) 0.4320(3)
N4 N 0.1135(3) 0.6609(4) 0.4087(4)
H2 H 0.1457 0.6486 0.4452
H3 H 0.1223 0.6938 0.3742
C1 C 0.1933(3) 0.5943(4) 0.6176(4)
C2 C 0.2297(3) 0.6073(3) 0.7016(3)
C3 C 0.2912(2) 0.6505(3) 0.7054(3)
H4 H 0.3079 0.6718 0.6567
C4 C 0.3265(3) 0.6605(3) 0.7833(3)
C5 C 0.3923(3) 0.7036(3) 0.7866(4)
C6 C 0.2995(3) 0.6300(4) 0.8562(3)
H5 H 0.3222 0.6379 0.9080
C7 C 0.2390(3) 0.5881(3) 0.8527(3)
C8 C 0.2064(4) 0.5595(4) 0.9315(4)
C9 C 0.2046(3) 0.5770(3) 0.7755(3)
H6 H 0.1642 0.5488 0.7730
C10 C -0.0548(3) 0.6027(3) 0.3694(3)
H7 H -0.0994 0.6023 0.3420
C11 C 0.0491(3) 0.6284(3) 0.4055(3)
Co1A Co -0.09945(3) 0.51413(4) -0.01666(4)
O1A O -0.14621(18) 0.5468(2) -0.1198(2)
O2A O -0.2086(2) 0.6272(3) -0.0532(3)
O3A O -0.2283(3) 0.5761(4) -0.5021(3)
O4A O -0.1554(2) 0.5159(2) -0.4216(2)
O5A O -0.40582(18) 0.7429(2) -0.2262(2)
O6A O -0.4354(2) 0.6993(3) -0.3473(3)
H1A H -0.4130 0.6968 -0.3918
N1A N -0.0314(2) 0.5773(2) 0.0437(2)
N2A N 0.0031(2) 0.6462(2) 0.1505(2)
N3A N 0.0380(2) 0.5595(2) 0.0680(3)
N4A N -0.1135(3) 0.6609(4) 0.0913(4)
H2A H -0.1457 0.6486 0.0548
H3A H -0.1223 0.6938 0.1258
C1A C -0.1933(3) 0.5943(4) -0.1176(4)
C2A C -0.2297(3) 0.6073(3) -0.2016(3)
C3A C -0.2912(2) 0.6505(3) -0.2054(3)
H4A H -0.3079 0.6718 -0.1567
C4A C -0.3265(3) 0.6605(3) -0.2833(3)
C5A C -0.3923(3) 0.7036(3) -0.2866(4)
C6A C -0.2995(3) 0.6300(4) -0.3562(3)
H5A H -0.3222 0.6379 -0.4080
C7A C -0.2390(3) 0.5881(3) -0.3527(3)
C8A C -0.2064(4) 0.5595(4) -0.4315(4)
C9A C -0.2046(3) 0.5770(3) -0.2755(3)
H6A H -0.1642 0.5488 -0.2730
C10A C 0.0548(3) 0.6027(3) 0.1306(3)
H7A H 0.0994 0.6023 0.1580
C11A C -0.0491(3) 0.6284(3) 0.0945(3)
Co1D Co -0.09945(3) 0.48587(4) -0.51666(4)
Co1D_2 Co -0.09945(3) 0.48587(4) 0.48334(4)
Co1E Co 0.09945(3) 0.48587(4) 0.01666(4)
Co1E_2 Co 0.09945(3) 0.48587(4) 1.01666(4)
Co2F Co -0.5000 0.78717(6) -0.2500
Co2F_2 Co 0.5000 0.78717(6) 0.7500
O4D O -0.1554(2) 0.4841(2) 0.0784(2)
O4E O 0.1554(2) 0.4841(2) 0.4216(2)
O5F O 0.09418(18) 0.7571(2) 0.2738(2)
O5G O -0.09418(18) 0.7571(2) 0.2262(2)
N3D N 0.0380(2) 0.4405(2) 0.5680(3)
N3E N -0.0380(2) 0.4405(2) -0.0680(3)
loop_
_geom_bond_atom_site_label_1
_geom_bond_atom_site_label_2
_geom_bond_site_symmetry_1
_geom_bond_site_symmetry_2
Co1 O1 1_555 1_555
Co2 N2 1_555 1_555
O1 C1 1_555 1_555
O2 C1 1_555 1_555
O3 C8 1_555 1_555
O4 C8 1_555 1_555
O5 C5 1_555 1_555
O6 H1 1_555 1_555
N1 Co1 1_555 1_555
N2 C10 1_555 1_555
N3 N1 1_555 1_555
N4 H2 1_555 1_555
H3 N4 1_555 1_555
C1 C2 1_555 1_555
C2 C3 1_555 1_555
C3 H4 1_555 1_555
C4 C3 1_555 1_555
C5 O6 1_555 1_555
C6 C4 1_555 1_555
H5 C6 1_555 1_555
C7 C6 1_555 1_555
C8 C7 1_555 1_555
C9 C2 1_555 1_555
H6 C9 1_555 1_555
C10 N3 1_555 1_555
H7 C10 1_555 1_555
C11 N1 1_555 1_555
Co1A O1A 1_555 1_555
O1A C1A 1_555 1_555
O2A C1A 1_555 1_555
O3A C8A 1_555 1_555
O4A C8A 1_555 1_555
O5A C5A 1_555 1_555
O6A H1A 1_555 1_555
N1A Co1A 1_555 1_555
N2A Co2 1_555 1_555
N3A N1A 1_555 1_555
N4A H2A 1_555 1_555
H3A N4A 1_555 1_555
C1A C2A 1_555 1_555
C2A C3A 1_555 1_555
C3A H4A 1_555 1_555
C4A C3A 1_555 1_555
C5A O6A 1_555 1_555
C6A C4A 1_555 1_555
H5A C6A 1_555 1_555
C7A C6A 1_555 1_555
C8A C7A 1_555 1_555
C9A C2A 1_555 1_555
H6A C9A 1_555 1_555
C10A N2A 1_555 1_555
H7A C10A 1_555 1_555
C11A N1A 1_555 1_555
Co1D O4A 1_555 1_555
Co1D_2 N3 1_555 1_555
Co1E N3A 1_555 1_555
Co1E_2 O4 1_555 1_555
Co2F O5A 1_555 1_555
Co2F_2 O5 1_555 1_555
O4D Co1A 1_555 1_555
O4E Co1 1_555 1_555
O5F Co2 1_555 1_555
O5G Co2 1_555 1_555
N3D Co1 1_555 1_555
N3E Co1A 1_555 1_555
N2 C11 1_555 1_555
N4 C11 1_555 1_555
C4 C5 1_555 1_555
C7 C9 1_555 1_555
N2A C11A 1_555 1_555
N3A C10A 1_555 1_555
N4A C11A 1_555 1_555
C4A C5A 1_555 1_555
C7A C9A 1_555 1_555

#END
