
#######################################################################
#
#                 Cambridge Crystallographic Data Centre
#                                CCDC 
#
#######################################################################
#
# If this CIF has been generated from an entry in the Cambridge 
# Structural Database, then it will include bibliographic, chemical, 
# crystal, experimental, refinement or atomic coordinate data resulting 
# from the CCDC's data processing and validation procedures.
#
#######################################################################

data_DADKOL
_chemical_formula_moiety         '(C22 H14 N8 O12 Zn3)n'
_symmetry_cell_setting           monoclinic
_symmetry_space_group_name_H-M   'C 2/c'
_symmetry_Int_Tables_number      15
_space_group_name_Hall           '-C 2yc'
loop_
_symmetry_equiv_pos_site_id
_symmetry_equiv_pos_as_xyz
1 x,y,z
2 -x,y,1/2-z
3 1/2+x,1/2+y,z
4 1/2-x,1/2+y,1/2-z
5 -x,-y,-z
6 x,-y,1/2+z
7 1/2-x,1/2-y,-z
8 1/2+x,1/2-y,1/2+z
_cell_length_a                   17.1879(10)
_cell_length_b                   20.9539(7)
_cell_length_c                   15.6155(5)
_cell_angle_alpha                90
_cell_angle_beta                 91.641(4)
_cell_angle_gamma                90
_cell_volume                     5621.67
loop_
_atom_site_label
_atom_site_type_symbol
_atom_site_fract_x
_atom_site_fract_y
_atom_site_fract_z
Zn1 Zn 0.60221(2) 0.51761(2) 0.97792(3)
Zn2 Zn 1.0000 0.80121(2) 0.7500
O1 O 0.90415(17) 0.75245(12) 0.76872(18)
O2 O 0.9283(2) 0.71994(18) 0.6419(2)
O3 O 0.7240(3) 0.58368(19) 0.4915(2)
O4 O 0.66844(19) 0.51220(13) 0.57255(19)
O5 O 0.7144(2) 0.62376(18) 0.9438(2)
H1 H 0.7480 0.6503 0.9333
O6 O 0.64904(18) 0.54911(14) 0.87614(18)
N1 N 0.53772(18) 0.44629(13) 0.9272(2)
N2 N 0.46707(17) 0.42477(12) 0.95688(18)
N3 N 0.50247(17) 0.36341(12) 0.84907(19)
N4 N 0.3831(3) 0.3405(2) 0.9141(3)
H2 H 0.3914 0.3000 0.9012
H3 H 0.3649 0.3407 0.9669
C1 C 0.6968(2) 0.5940(2) 0.8778(3)
C2 C 0.7332(2) 0.61007(18) 0.7939(2)
C3 C 0.7085(2) 0.57866(19) 0.7206(3)
H4 H 0.6701 0.5475 0.7234
C4 C 0.7407(2) 0.59339(19) 0.6423(2)
C5 C 0.7100(3) 0.5606(2) 0.5624(3)
C6 C 0.7990(2) 0.63851(18) 0.6391(3)
H5 H 0.8210 0.6478 0.5868
C7 C 0.8253(2) 0.67006(18) 0.7118(3)
C8 C 0.8899(4) 0.7169(3) 0.7066(3)
C9 C 0.7921(2) 0.65586(18) 0.7897(3)
H6 H 0.8091 0.6769 0.8392
C10 C 0.5559(2) 0.40891(17) 0.8649(2)
H7 H 0.6012 0.4131 0.8344
C11 C 0.4491(2) 0.37504(17) 0.9077(2)
Zn1A Zn 1.39779(2) 0.51761(2) 0.52208(3)
O1A O 1.09585(17) 0.75245(12) 0.73128(18)
O2A O 1.0717(2) 0.71994(18) 0.8581(2)
O3A O 1.2760(3) 0.58368(19) 1.0085(2)
O4A O 1.33156(19) 0.51220(13) 0.92745(19)
O5A O 1.2856(2) 0.62376(18) 0.5562(2)
H1A H 1.2520 0.6503 0.5667
O6A O 1.35096(18) 0.54911(14) 0.62386(18)
N1A N 1.46228(18) 0.44629(13) 0.5728(2)
N2A N 1.53293(17) 0.42477(12) 0.54312(18)
N3A N 1.49753(17) 0.36341(12) 0.65093(19)
N4A N 1.6169(3) 0.3405(2) 0.5859(3)
H2A H 1.6086 0.3000 0.5988
H3A H 1.6351 0.3407 0.5331
C1A C 1.3032(2) 0.5940(2) 0.6222(3)
C2A C 1.2668(2) 0.61007(18) 0.7061(2)
C3A C 1.2915(2) 0.57866(19) 0.7794(3)
H4A H 1.3299 0.5475 0.7766
C4A C 1.2593(2) 0.59339(19) 0.8577(2)
C5A C 1.2900(3) 0.5606(2) 0.9376(3)
C6A C 1.2010(2) 0.63851(18) 0.8609(3)
H5A H 1.1790 0.6478 0.9132
C7A C 1.1747(2) 0.67006(18) 0.7882(3)
C8A C 1.1101(4) 0.7169(3) 0.7934(3)
C9A C 1.2079(2) 0.65586(18) 0.7103(3)
H6A H 1.1909 0.6769 0.6608
C10A C 1.4441(2) 0.40891(17) 0.6351(2)
H7A H 1.3988 0.4131 0.6656
C11A C 1.5509(2) 0.37504(17) 0.5923(2)
Zn1D Zn 0.39779(2) 0.48239(2) 1.02208(3)
Zn1D_2 Zn 1.39779(2) 0.48239(2) 1.02208(3)
Zn1E Zn 0.60221(2) 0.48239(2) 0.47792(3)
Zn1E_2 Zn 1.60221(2) 0.48239(2) 0.47792(3)
Zn2B Zn 0.5000 0.30121(2) 0.7500
Zn2B_2 Zn 1.5000 0.30121(2) 0.7500
O4D O 1.33156(19) 0.48780(13) 0.42745(19)
O4E O 0.66844(19) 0.48780(13) 1.07255(19)
N2D N 0.53293(17) 0.57523(12) 1.04312(18)
N2E N 1.46707(17) 0.57523(12) 0.45688(18)
N3B N 1.00247(17) 0.86341(12) 0.84907(19)
N3C N 0.99753(17) 0.86341(12) 0.65093(19)
loop_
_geom_bond_atom_site_label_1
_geom_bond_atom_site_label_2
_geom_bond_site_symmetry_1
_geom_bond_site_symmetry_2
Zn1 O6 1_555 1_555
Zn2 O1 1_555 1_555
O1 C8 1_555 1_555
O2 C8 1_555 1_555
O3 C5 1_555 1_555
O4 C5 1_555 1_555
O5 H1 1_555 1_555
O6 C1 1_555 1_555
N1 Zn1 1_555 1_555
N2 N1 1_555 1_555
N3 C10 1_555 1_555
N4 H2 1_555 1_555
H3 N4 1_555 1_555
C1 O5 1_555 1_555
C2 C1 1_555 1_555
C3 C2 1_555 1_555
H4 C3 1_555 1_555
C4 C3 1_555 1_555
C5 C4 1_555 1_555
C6 C4 1_555 1_555
H5 C6 1_555 1_555
C7 C6 1_555 1_555
C8 C7 1_555 1_555
C9 C2 1_555 1_555
H6 C9 1_555 1_555
C10 N1 1_555 1_555
H7 C10 1_555 1_555
C11 N2 1_555 1_555
Zn1A O6A 1_555 1_555
O1A Zn2 1_555 1_555
O2A C8A 1_555 1_555
O3A C5A 1_555 1_555
O4A C5A 1_555 1_555
O5A H1A 1_555 1_555
O6A C1A 1_555 1_555
N1A Zn1A 1_555 1_555
N2A N1A 1_555 1_555
N3A C10A 1_555 1_555
N4A H2A 1_555 1_555
H3A N4A 1_555 1_555
C1A O5A 1_555 1_555
C2A C1A 1_555 1_555
C3A C2A 1_555 1_555
H4A C3A 1_555 1_555
C4A C3A 1_555 1_555
C5A C4A 1_555 1_555
C6A C4A 1_555 1_555
H5A C6A 1_555 1_555
C7A C6A 1_555 1_555
C8A O1A 1_555 1_555
C9A C2A 1_555 1_555
H6A C9A 1_555 1_555
C10A N1A 1_555 1_555
H7A C10A 1_555 1_555
C11A N2A 1_555 1_555
Zn1D N2 1_555 1_555
Zn1D_2 O4A 1_555 1_555
Zn1E O4 1_555 1_555
Zn1E_2 N2A 1_555 1_555
Zn2B N3 1_555 1_555
Zn2B_2 N3A 1_555 1_555
O4D Zn1A 1_555 1_555
O4E Zn1 1_555 1_555
N2D Zn1 1_555 1_555
N2E Zn1A 1_555 1_555
N3B Zn2 1_555 1_555
N3C Zn2 1_555 1_555
N3 C11 1_555 1_555
N4 C11 1_555 1_555
C7 C9 1_555 1_555
N3A C11A 1_555 1_555
N4A C11A 1_555 1_555
C7A C8A 1_555 1_555
C7A C9A 1_555 1_555

#END
