
#######################################################################
#
#                 Cambridge Crystallographic Data Centre
#                                CCDC 
#
#######################################################################
#
# If this CIF has been generated from an entry in the Cambridge 
# Structural Database, then it will include bibliographic, chemical, 
# crystal, experimental, refinement or atomic coordinate data resulting 
# from the CCDC's data processing and validation procedures.
#
#######################################################################

data_AHOKIR
_chemical_formula_moiety         'C4 H2 Cu10 O21 P2'
_symmetry_cell_setting           monoclinic
_symmetry_space_group_name_H-M   'C 2/m'
_symmetry_Int_Tables_number      12
_space_group_name_Hall           '-C 2y'
loop_
_symmetry_equiv_pos_site_id
_symmetry_equiv_pos_as_xyz
1 x,y,z
2 -x,y,-z
3 1/2+x,1/2+y,z
4 1/2-x,1/2+y,-z
5 -x,-y,-z
6 x,-y,z
7 1/2-x,1/2-y,-z
8 1/2+x,1/2-y,z
_cell_length_a                   20.0305(6)
_cell_length_b                   6.6713(2)
_cell_length_c                   4.3996(1)
_cell_angle_alpha                90
_cell_angle_beta                 91.379(1)
_cell_angle_gamma                90
_cell_volume                     587.746
loop_
_atom_site_label
_atom_site_type_symbol
_atom_site_fract_x
_atom_site_fract_y
_atom_site_fract_z
Cu1 Cu 0.2500 0.2500 0.0000
P1 P 0.1750(2) 0.5000 0.4788(8)
O2 O 0.1815(2) 0.3040(6) 0.3008(7)
O3 O 0.2277(3) 0.5000 0.747(1)
C1 C 0.0961(3) 0.5000 0.667(2)
C2 C 0.0369(2) 0.5000 0.438(2)
O4 O 0.1766(3) 0.038(2) -0.246(2)
P1A P -0.1750(2) 0.5000 0.5212(8)
O2A O -0.1815(2) 0.3040(6) 0.6992(7)
C1A C -0.0961(3) 0.5000 0.333(2)
C2A C -0.0369(2) 0.5000 0.562(2)
O3A O -0.2277(3) 0.5000 0.253(1)
O2D O -0.1815(2) 0.6960(6) 0.6992(7)
O2E O 0.1815(2) 0.6960(6) 0.3008(7)
Cu1A Cu -0.2500 0.2500 0.0000
O4A O -0.1766(3) 0.038(2) 0.246(2)
O4D O -0.1766(3) -0.038(2) 0.246(2)
O4E O 0.1766(3) -0.038(2) -0.246(2)
Cu1_2 Cu 0.2500 0.2500 1.0000
Cu1A_2 Cu -0.2500 0.2500 1.0000
Cu1B Cu -0.2500 -0.2500 0.0000
Cu1B_2 Cu -0.2500 0.7500 0.0000
Cu1B_3 Cu -0.2500 0.7500 1.0000
Cu1C Cu 0.2500 -0.2500 0.0000
Cu1C_2 Cu 0.2500 0.7500 0.0000
Cu1C_3 Cu 0.2500 0.7500 1.0000
O2A_2 O -0.1815(2) 0.3040(6) -0.3008(7)
O2F O 0.3185(2) 0.1960(6) -0.3008(7)
O2G O -0.3185(2) 0.1960(6) 0.3008(7)
O3_2 O 0.2277(3) 0.5000 -0.253(1)
O3B O -0.2723(3) -0.0000 -0.253(1)
O3C O 0.2723(3) 0.0000 0.253(1)
O4B O -0.3234(3) 0.538(2) -0.246(2)
O4C O 0.3234(3) 0.538(2) 0.246(2)
O4F O 0.3234(3) 0.462(2) 0.246(2)
O4G O -0.3234(3) 0.462(2) -0.246(2)
O1 O 0.0643(2) 0.0000 0.050(3)
loop_
_geom_bond_atom_site_label_1
_geom_bond_atom_site_label_2
_geom_bond_site_symmetry_1
_geom_bond_site_symmetry_2
Cu1 O2 1_555 1_555
P1 O2 1_555 1_555
O3 P1 1_555 1_555
C1 P1 1_555 1_555
C2 C1 1_555 1_555
O4 Cu1 1_555 1_555
P1A O2A 1_555 1_555
O2A Cu1A_2 1_555 1_555
C1A P1A 1_555 1_555
C2A C2 1_555 1_555
O3A P1A 1_555 1_555
O2D P1A 1_555 1_555
O2E P1 1_555 1_555
Cu1A O3A 1_555 1_555
O4A Cu1A 1_555 1_555
O4D Cu1A 1_555 1_555
O4E Cu1 1_555 1_555
Cu1_2 O3 1_555 1_555
Cu1B O4A 1_555 1_555
Cu1B_2 O3A 1_555 1_555
Cu1B_3 O2D 1_555 1_555
Cu1C O4 1_555 1_555
Cu1C_2 O2E 1_555 1_555
Cu1C_3 O3 1_555 1_555
O2A_2 Cu1A 1_555 1_555
O2F Cu1 1_555 1_555
O2G Cu1A 1_555 1_555
O3_2 Cu1 1_555 1_555
O3B Cu1A 1_555 1_555
O3C Cu1 1_555 1_555
O4B Cu1A 1_555 1_555
O4C Cu1 1_555 1_555
O4F Cu1 1_555 1_555
O4G Cu1A 1_555 1_555
C1A C2A 1_555 1_555
O4D Cu1B 1_555 1_555
O4E Cu1C 1_555 1_555
Cu1B O3B 1_555 1_555
Cu1B_2 O4B 1_555 1_555
Cu1B_2 O4G 1_555 1_555
Cu1C O3C 1_555 1_555
Cu1C_2 O3_2 1_555 1_555
Cu1C_2 O4C 1_555 1_555
Cu1C_2 O4F 1_555 1_555

#END
