
#######################################################################
#
#                 Cambridge Crystallographic Data Centre
#                                CCDC 
#
#######################################################################
#
# If this CIF has been generated from an entry in the Cambridge 
# Structural Database, then it will include bibliographic, chemical, 
# crystal, experimental, refinement or atomic coordinate data resulting 
# from the CCDC's data processing and validation procedures.
#
#######################################################################

data_AHOKOX
_chemical_formula_moiety         '(C5 H16 Cu2 O9 P2)n'
_symmetry_cell_setting           orthorhombic
_symmetry_space_group_name_H-M   'P m m n'
_symmetry_Int_Tables_number      59
_space_group_name_Hall           '-P 2ab 2a'
loop_
_symmetry_equiv_pos_site_id
_symmetry_equiv_pos_as_xyz
1 x,y,z
2 1/2-x,1/2-y,z
3 1/2+x,-y,-z
4 -x,1/2+y,-z
5 -x,-y,-z
6 1/2+x,1/2+y,-z
7 1/2-x,y,z
8 x,1/2-y,z
_cell_length_a                   22.3773(2)
_cell_length_b                   6.7633(1)
_cell_length_c                   4.3529(1)
_cell_angle_alpha                90
_cell_angle_beta                 90
_cell_angle_gamma                90
_cell_volume                     658.787
loop_
_atom_site_label
_atom_site_type_symbol
_atom_site_fract_x
_atom_site_fract_y
_atom_site_fract_z
Cu1 Cu -0.0000 -0.5000 0.0000
P1 P 0.0666(1) -0.2500 0.4999(8)
O1 O 0.0186(2) -0.2500 0.2368(9)
O2 O 0.0596(1) -0.0637(4) 0.6905(6)
C1 C 0.1388(4) -0.2500 0.308(1)
C2 C 0.1932(3) -0.2500 0.544(2)
C3 C 0.2500 -0.2500 0.366(2)
O3 O -0.0687(2) -0.2500 -0.285(1)
O2G O 0.0596(1) -0.4363(4) 0.6905(6)
C2A C 0.3068(3) -0.2500 0.544(2)
C1A C 0.3612(4) -0.2500 0.308(1)
P1A P 0.4334(1) -0.2500 0.4999(8)
O1A O 0.4814(2) -0.2500 0.2368(9)
O2A O 0.4404(1) -0.4363(4) 0.6905(6)
O2F O 0.4404(1) -0.0637(4) 0.6905(6)
O3C O 0.0687(2) -0.7500 0.285(1)
Cu1A Cu 0.5000 0.0000 0.0000
O1C O -0.0186(2) -0.7500 -0.2368(9)
O2C O -0.0596(1) -0.5637(4) 0.3095(6)
O2G_2 O 0.0596(1) -0.4363(4) -0.3095(6)
Cu1C Cu 0.0000 0.0000 0.0000
Cu1C_2 Cu -0.0000 -0.0000 1.0000
Cu1C_3 Cu -0.0000 -1.0000 0.0000
Cu1_2 Cu -0.0000 -0.5000 1.0000
Cu1B Cu 0.5000 -0.5000 0.0000
Cu1B_2 Cu 0.5000 -0.5000 1.0000
Cu1A_2 Cu 0.5000 -0.0000 1.0000
O1B O 0.5186(2) 0.2500 -0.2368(9)
O2B O 0.5596(1) 0.0637(4) 0.3095(6)
O2F_2 O 0.4404(1) -0.0637(4) -0.3095(6)
O3B O 0.4313(2) 0.2500 0.285(1)
O3A O 0.5687(2) -0.2500 -0.285(1)
O4 O 0.1855(5) -0.7500 0.934(4)
loop_
_geom_bond_atom_site_label_1
_geom_bond_atom_site_label_2
_geom_bond_site_symmetry_1
_geom_bond_site_symmetry_2
Cu1 O1 1_555 1_555
P1 O1 1_555 1_555
O1 Cu1C 1_555 1_555
O2 P1 1_555 1_555
C1 P1 1_555 1_555
C2 C1 1_555 1_555
C3 C2 1_555 1_555
O3 Cu1 1_555 1_555
O2G P1 1_555 1_555
C2A C3 1_555 1_555
C1A C2A 1_555 1_555
P1A C1A 1_555 1_555
O1A P1A 1_555 1_555
O2A P1A 1_555 1_555
O2F P1A 1_555 1_555
O3C Cu1 1_555 1_555
Cu1A O1A 1_555 1_555
O1C Cu1 1_555 1_555
O2C Cu1 1_555 1_555
O2G_2 Cu1 1_555 1_555
Cu1C O3 1_555 1_555
Cu1C_2 O2 1_555 1_555
Cu1C_3 O3C 1_555 1_555
Cu1_2 O2G 1_555 1_555
Cu1B O1A 1_555 1_555
Cu1B_2 O2A 1_555 1_555
Cu1A_2 O2F 1_555 1_555
O1B Cu1A 1_555 1_555
O2B Cu1A 1_555 1_555
O2F_2 Cu1A 1_555 1_555
O3B Cu1A 1_555 1_555
O3A Cu1A 1_555 1_555
O1C Cu1C_3 1_555 1_555
Cu1B O3A 1_555 1_555

#END
