
#######################################################################
#
#                 Cambridge Crystallographic Data Centre
#                                CCDC 
#
#######################################################################
#
# If this CIF has been generated from an entry in the Cambridge 
# Structural Database, then it will include bibliographic, chemical, 
# crystal, experimental, refinement or atomic coordinate data resulting 
# from the CCDC's data processing and validation procedures.
#
#######################################################################

data_CEJCAW
_chemical_formula_moiety         '(C66 H64 Cu6 N6 O38)n'
_symmetry_cell_setting           triclinic
_symmetry_space_group_name_H-M   'P -1'
_symmetry_Int_Tables_number      2
_space_group_name_Hall           '-P 1'
loop_
_symmetry_equiv_pos_site_id
_symmetry_equiv_pos_as_xyz
1 x,y,z
2 -x,-y,-z
_cell_length_a                   11.1556(18)
_cell_length_b                   13.043(2)
_cell_length_c                   14.135(2)
_cell_angle_alpha                89.759(18)
_cell_angle_beta                 87.182(18)
_cell_angle_gamma                85.006(14)
_cell_volume                     2046.39
loop_
_atom_site_label
_atom_site_type_symbol
_atom_site_fract_x
_atom_site_fract_y
_atom_site_fract_z
Cu1 Cu 0.59444(10) 0.93211(8) 0.99934(7)
Cu2 Cu 1.5000 0.5000 1.0000
Cu3 Cu 0.59847(12) 1.54972(8) 0.49893(8)
C1 C 0.6582(9) 1.1497(8) 0.7838(7)
C2 C 0.5936(9) 1.2277(7) 0.7348(6)
C3 C 0.6582(10) 1.2856(8) 0.6690(7)
C4 C 0.7799(11) 1.2637(8) 0.6505(8)
H1 H 0.8203 1.3030 0.6064
C5 C 0.8429(11) 1.1839(9) 0.6965(9)
H2 H 0.9254 1.1697 0.6845
C6 C 0.7791(10) 1.1247(9) 0.7621(8)
H3 H 0.8190 1.0682 0.7910
C7 C 0.5985(9) 1.0895(7) 0.8628(7)
C8 C 0.4617(10) 1.2477(7) 0.7505(6)
C9 C 0.5950(11) 1.3698(8) 0.6122(7)
O1 O 0.6555(7) 1.0110(5) 0.8933(5)
O2 O 0.4989(7) 1.1283(5) 0.8964(5)
O3 O 0.4163(7) 1.3262(5) 0.7939(5)
O4 O 0.3970(6) 1.1839(5) 0.7122(5)
O5 O 0.6547(7) 1.4437(6) 0.5896(5)
O6 O 0.4880(7) 1.3608(5) 0.5924(5)
C10 C 0.3400(9) 0.8242(7) 0.8190(7)
C11 C 0.4041(9) 0.7504(6) 0.7583(6)
C12 C 0.3390(10) 0.6911(7) 0.7006(7)
C13 C 0.2167(10) 0.7019(8) 0.7048(8)
H4 H 0.1758 0.6601 0.6668
C14 C 0.1509(10) 0.7728(9) 0.7634(8)
H5 H 0.0671 0.7796 0.7646
C15 C 0.2140(9) 0.8342(8) 0.8210(8)
H6 H 0.1716 0.8823 0.8612
C16 C 0.4011(10) 0.8874(7) 0.8850(7)
C17 C 0.5402(9) 0.7451(7) 0.7524(6)
C18 C 0.4020(10) 0.6151(7) 0.6299(7)
O7 O 0.5030(6) 0.8554(5) 0.9114(5)
O8 O 0.3450(6) 0.9700(5) 0.9112(6)
O9 O 0.5886(6) 0.8147(5) 0.7092(5)
O10 O 0.5961(6) 0.6680(5) 0.7904(5)
O11 O 0.5036(7) 0.6291(5) 0.6007(5)
O12 O 0.3410(7) 0.5436(5) 0.6044(5)
N1 N 1.3278(8) 0.5608(7) 1.0021(7)
C19 C 1.2932(11) 0.6407(10) 1.0572(10)
H7 H 1.3499 0.6659 1.0951
C20 C 1.1776(10) 0.6889(10) 1.0617(10)
H8 H 1.1577 0.7444 1.1023
C21 C 1.0923(9) 0.6539(9) 1.0054(8)
C22 C 1.1299(10) 0.5701(9) 0.9490(10)
H9 H 1.0766 0.5427 0.9096
C23 C 1.2467(10) 0.5275(9) 0.9515(9)
H10 H 1.2688 0.4701 0.9136
N2 N 0.7507(7) 0.8252(6) 1.0037(6)
C24 C 0.8059(11) 0.8097(10) 1.0833(9)
H11 H 0.7698 0.8392 1.1385
C25 C 0.9158(10) 0.7512(10) 1.0887(8)
H12 H 0.9512 0.7417 1.1466
C26 C 0.9718(10) 0.7075(9) 1.0078(8)
C27 C 0.9071(9) 0.7177(9) 0.9264(9)
H13 H 0.9368 0.6844 0.8709
C28 C 0.7968(9) 0.7784(9) 0.9278(8)
H14 H 0.7553 0.7855 0.8724
O13 O 1.4356(7) 0.3441(5) 0.9963(6)
O14 O 1.4968(7) 0.4994(6) 1.1455(5)
O15 O 0.7503(8) 1.6402(7) 0.5061(6)
Cu1A Cu 2.40556(10) 0.06789(8) 1.00066(7)
Cu1A_2 Cu 0.40556(10) 1.06789(8) 1.00066(7)
Cu3A Cu 0.40153(12) 0.45028(8) 1.50107(8)
Cu3A_2 Cu 0.40153(12) 1.45028(8) 0.50107(8)
Cu3_2 Cu 0.59847(12) 0.54972(8) 0.49893(8)
Cu3A_3 Cu 0.40153(12) 0.45028(8) 0.50107(8)
Cu3_3 Cu 0.59847(12) 0.54972(8) 1.49893(8)
Cu3A_4 Cu 0.40153(12) 1.45028(8) 1.50107(8)
Cu3_4 Cu 0.59847(12) 1.54972(8) 1.49893(8)
C1A C 0.3418(9) 0.8503(8) 1.2162(7)
C2A C 0.4064(9) 0.7723(7) 1.2652(6)
C3A C 0.3418(10) 0.7144(8) 1.3310(7)
C4A C 0.2201(11) 0.7363(8) 1.3495(8)
H1A H 0.1797 0.6970 1.3936
C5A C 0.1571(11) 0.8161(9) 1.3035(9)
H2A H 0.0746 0.8303 1.3155
C6A C 0.2209(10) 0.8753(9) 1.2379(8)
H3A H 0.1810 0.9318 1.2090
C7A C 0.4015(9) 0.9105(7) 1.1372(7)
C8A C 0.5383(10) 0.7523(7) 1.2495(6)
C9A C 0.4050(11) 0.6302(8) 1.3878(7)
O1A O 0.3445(7) 0.9890(5) 1.1067(5)
O1A_2 O 2.3445(7) -0.0110(5) 1.1067(5)
O2A O 0.5011(7) 0.8717(5) 1.1036(5)
O2_2 O 2.4989(7) 0.1283(5) 0.8964(5)
O3A O 0.5837(7) 0.6738(5) 1.2061(5)
O4A O 0.6030(6) 0.8161(5) 1.2878(5)
O5A O 0.3453(7) 0.5563(6) 1.4104(5)
O6A O 0.5120(7) 0.6392(5) 1.4076(5)
O6A_2 O 0.5120(7) 1.6392(5) 0.4076(5)
O6_2 O 0.4880(7) 0.3608(5) 1.5924(5)
C10A C 0.6600(9) 1.1758(7) 1.1810(7)
C11A C 0.5959(9) 1.2496(6) 1.2417(6)
C12A C 0.6610(10) 1.3089(7) 1.2994(7)
C13A C 0.7833(10) 1.2981(8) 1.2952(8)
H4A H 0.8242 1.3399 1.3332
C14A C 0.8491(10) 1.2272(9) 1.2366(8)
H5A H 0.9329 1.2204 1.2354
C15A C 0.7860(9) 1.1658(8) 1.1790(8)
H6A H 0.8284 1.1177 1.1388
C16A C 0.5989(10) 1.1126(7) 1.1150(7)
C17A C 0.4598(9) 1.2549(7) 1.2476(6)
C18A C 0.5980(10) 1.3849(7) 1.3701(7)
O7A O 0.4970(6) 1.1446(5) 1.0886(5)
O7A_2 O 2.4970(6) 0.1446(5) 1.0886(5)
O8A O 0.6550(6) 1.0300(5) 1.0888(6)
O8_2 O 2.3450(6) -0.0300(5) 0.9112(6)
O9A O 0.4114(6) 1.1853(5) 1.2908(5)
O10A O 0.4039(6) 1.3320(5) 1.2096(5)
O11A O 0.4964(7) 1.3709(5) 1.3993(5)
O11_2 O 0.5036(7) 1.6291(5) 0.6007(5)
O11A_2 O 0.4964(7) 0.3709(5) 1.3993(5)
O12A O 0.6590(7) 1.4564(5) 1.3956(5)
O12A_2 O 0.6590(7) 1.4564(5) 0.3956(5)
O12_2 O 0.3410(7) 0.5436(5) 1.6044(5)
N1A N 1.6722(8) 0.4392(7) 0.9979(7)
C19A C 1.7068(11) 0.3593(10) 0.9428(10)
H7A H 1.6501 0.3341 0.9049
C20A C 1.8224(10) 0.3111(10) 0.9383(10)
H8A H 1.8423 0.2556 0.8977
C21A C 1.9077(9) 0.3461(9) 0.9946(8)
C22A C 1.8701(10) 0.4299(9) 1.0510(10)
H9A H 1.9234 0.4573 1.0904
C23A C 1.7533(10) 0.4725(9) 1.0485(9)
H10A H 1.7312 0.5299 1.0864
N2A N 2.2493(7) 0.1748(6) 0.9963(6)
C24A C 2.1941(11) 0.1903(10) 0.9167(9)
H11A H 2.2302 0.1608 0.8615
C25A C 2.0842(10) 0.2488(10) 0.9113(8)
H12A H 2.0488 0.2583 0.8534
C26A C 2.0282(10) 0.2925(9) 0.9922(8)
C27A C 2.0929(9) 0.2823(9) 1.0736(9)
H13A H 2.0632 0.3156 1.1291
C28A C 2.2032(9) 0.2216(9) 1.0722(8)
H14A H 2.2447 0.2145 1.1276
O13A O 1.5644(7) 0.6559(5) 1.0037(6)
O14A O 1.5032(7) 0.5006(6) 0.8545(5)
O15A O 0.2497(8) 0.3598(7) 1.4939(6)
Cu4 Cu 0.5000 0.0000 0.5000
N3 N 0.6765(8) 0.0015(6) 0.5024(5)
C29 C 0.7461(10) -0.0588(10) 0.5566(9)
H15 H 0.7074 -0.1027 0.5976
C30 C 0.8694(9) -0.0632(10) 0.5587(9)
H16 H 0.9099 -0.1094 0.5989
C31 C 0.9337(9) 0.0013(8) 0.5007(7)
C32 C 0.8624(10) 0.0691(12) 0.4476(10)
H17 H 0.8981 0.1175 0.4098
C33 C 0.7387(10) 0.0661(11) 0.4498(10)
H18 H 0.6953 0.1126 0.4117
O16 O 0.5236(7) -0.1695(5) 0.5036(6)
O17 O 0.5155(6) 0.0020(5) 0.3546(5)
Cu4_2 Cu 1.5000 0.0000 0.5000
N3A N 1.3235(8) -0.0015(6) 0.4976(5)
N3A_2 N 0.3235(8) -0.0015(6) 0.4976(5)
C29A C 1.2539(10) 0.0588(10) 0.4434(9)
H15A H 1.2926 0.1027 0.4024
C30A C 1.1306(9) 0.0632(10) 0.4413(9)
H16A H 1.0901 0.1094 0.4011
C31A C 1.0663(9) -0.0013(8) 0.4993(7)
C32A C 1.1376(10) -0.0691(12) 0.5524(10)
H17A H 1.1019 -0.1175 0.5902
C33A C 1.2613(10) -0.0661(11) 0.5502(10)
H18A H 1.3047 -0.1126 0.5883
O16A O 0.4764(7) 0.1695(5) 0.4964(6)
O17A O 0.4845(6) -0.0020(5) 0.6454(5)
O18 O 0.7966(11) 0.5791(9) 1.2594(9)
O19 O 0.103(4) 0.482(3) 1.277(3)
O20 O 0.8359(10) 0.7592(11) 1.3567(10)
O21 O 0.1729(12) 0.332(2) 1.3116(11)
loop_
_geom_bond_atom_site_label_1
_geom_bond_atom_site_label_2
_geom_bond_site_symmetry_1
_geom_bond_site_symmetry_2
Cu1 O1 1_555 1_555
Cu2 N1 1_555 1_555
Cu3 O5 1_555 1_555
C1 C2 1_555 1_555
C2 C3 1_555 1_555
C3 C4 1_555 1_555
C4 H1 1_555 1_555
C5 C4 1_555 1_555
H2 C5 1_555 1_555
C6 C1 1_555 1_555
H3 C6 1_555 1_555
C7 C1 1_555 1_555
C8 C2 1_555 1_555
C9 C3 1_555 1_555
O1 C7 1_555 1_555
O2 C7 1_555 1_555
O3 C8 1_555 1_555
O4 C8 1_555 1_555
O5 C9 1_555 1_555
O6 C9 1_555 1_555
C10 C11 1_555 1_555
C11 C12 1_555 1_555
C12 C13 1_555 1_555
C13 H4 1_555 1_555
C14 C13 1_555 1_555
H5 C14 1_555 1_555
C15 C10 1_555 1_555
H6 C15 1_555 1_555
C16 C10 1_555 1_555
C17 C11 1_555 1_555
C18 C12 1_555 1_555
O7 Cu1 1_555 1_555
O8 C16 1_555 1_555
O9 C17 1_555 1_555
O10 C17 1_555 1_555
O11 C18 1_555 1_555
O12 C18 1_555 1_555
N1 C19 1_555 1_555
C19 H7 1_555 1_555
C20 C19 1_555 1_555
H8 C20 1_555 1_555
C21 C20 1_555 1_555
C22 C21 1_555 1_555
H9 C22 1_555 1_555
C23 N1 1_555 1_555
H10 C23 1_555 1_555
N2 Cu1 1_555 1_555
C24 N2 1_555 1_555
H11 C24 1_555 1_555
C25 C24 1_555 1_555
H12 C25 1_555 1_555
C26 C21 1_555 1_555
C27 C26 1_555 1_555
H13 C27 1_555 1_555
C28 N2 1_555 1_555
H14 C28 1_555 1_555
O13 Cu2 1_555 1_555
O14 Cu2 1_555 1_555
O15 Cu3 1_555 1_555
Cu4 N3 1_555 1_555
N3 C29 1_555 1_555
C29 H15 1_555 1_555
C30 C29 1_555 1_555
H16 C30 1_555 1_555
C31 C30 1_555 1_555
C32 C31 1_555 1_555
H17 C32 1_555 1_555
C33 N3 1_555 1_555
H18 C33 1_555 1_555
O16 Cu4 1_555 1_555
O17 Cu4 1_555 1_555
Cu1A O1A_2 1_555 1_555
Cu1A_2 O2 1_555 1_555
Cu3A O5A 1_555 1_555
Cu3A_2 O6 1_555 1_555
Cu3_2 O11 1_555 1_555
Cu3A_3 O12 1_555 1_555
Cu3_3 O6A 1_555 1_555
Cu3A_4 O11A 1_555 1_555
Cu3_4 O12A 1_555 1_555
C1A C2A 1_555 1_555
C2A C3A 1_555 1_555
C3A C4A 1_555 1_555
C4A H1A 1_555 1_555
C5A C4A 1_555 1_555
H2A C5A 1_555 1_555
C6A C1A 1_555 1_555
H3A C6A 1_555 1_555
C7A C1A 1_555 1_555
C8A C2A 1_555 1_555
C9A C3A 1_555 1_555
O1A Cu1A_2 1_555 1_555
O2A Cu1 1_555 1_555
O2_2 Cu1A 1_555 1_555
O3A C8A 1_555 1_555
O4A C8A 1_555 1_555
O5A C9A 1_555 1_555
O6A C9A 1_555 1_555
O6A_2 Cu3 1_555 1_555
O6_2 Cu3A 1_555 1_555
C10A C11A 1_555 1_555
C11A C12A 1_555 1_555
C12A C13A 1_555 1_555
C13A H4A 1_555 1_555
C14A C13A 1_555 1_555
H5A C14A 1_555 1_555
C15A C10A 1_555 1_555
H6A C15A 1_555 1_555
C16A C10A 1_555 1_555
C17A C11A 1_555 1_555
C18A C12A 1_555 1_555
O7A Cu1A_2 1_555 1_555
O7A_2 Cu1A 1_555 1_555
O8A Cu1 1_555 1_555
O8_2 Cu1A 1_555 1_555
O9A C17A 1_555 1_555
O10A C17A 1_555 1_555
O11A C18A 1_555 1_555
O11_2 Cu3 1_555 1_555
O11A_2 Cu3A 1_555 1_555
O12A C18A 1_555 1_555
O12A_2 Cu3 1_555 1_555
O12_2 Cu3A 1_555 1_555
N1A Cu2 1_555 1_555
C19A N1A 1_555 1_555
H7A C19A 1_555 1_555
C20A C19A 1_555 1_555
H8A C20A 1_555 1_555
C21A C20A 1_555 1_555
C22A C21A 1_555 1_555
H9A C22A 1_555 1_555
C23A N1A 1_555 1_555
H10A C23A 1_555 1_555
N2A Cu1A 1_555 1_555
C24A N2A 1_555 1_555
H11A C24A 1_555 1_555
C25A C24A 1_555 1_555
H12A C25A 1_555 1_555
C26A C21A 1_555 1_555
C27A C26A 1_555 1_555
H13A C27A 1_555 1_555
C28A N2A 1_555 1_555
H14A C28A 1_555 1_555
O13A Cu2 1_555 1_555
O14A Cu2 1_555 1_555
O15A Cu3A 1_555 1_555
Cu4_2 N3A 1_555 1_555
N3A C29A 1_555 1_555
N3A_2 Cu4 1_555 1_555
C29A H15A 1_555 1_555
C30A C29A 1_555 1_555
H16A C30A 1_555 1_555
C31A C31 1_555 1_555
C32A C31A 1_555 1_555
H17A C32A 1_555 1_555
C33A N3A 1_555 1_555
H18A C33A 1_555 1_555
O16A Cu4 1_555 1_555
O17A Cu4 1_555 1_555
C5 C6 1_555 1_555
C14 C15 1_555 1_555
C16 O7 1_555 1_555
O8 Cu1A_2 1_555 1_555
C22 C23 1_555 1_555
C25 C26 1_555 1_555
C27 C28 1_555 1_555
C32 C33 1_555 1_555
C5A C6A 1_555 1_555
C7A O1A 1_555 1_555
C7A O2A 1_555 1_555
C14A C15A 1_555 1_555
C16A O7A 1_555 1_555
C16A O8A 1_555 1_555
C22A C23A 1_555 1_555
C25A C26A 1_555 1_555
C27A C28A 1_555 1_555
C30A C31A 1_555 1_555
C32A C33A 1_555 1_555

#END
