
#######################################################################
#
#                 Cambridge Crystallographic Data Centre
#                                CCDC 
#
#######################################################################
#
# If this CIF has been generated from an entry in the Cambridge 
# Structural Database, then it will include bibliographic, chemical, 
# crystal, experimental, refinement or atomic coordinate data resulting 
# from the CCDC's data processing and validation procedures.
#
#######################################################################

data_AXIPEE01
_chemical_formula_moiety         '(C26 H34 Au2 Fe1 N8 O4)n'
_symmetry_cell_setting           monoclinic
_symmetry_space_group_name_H-M   'C 2/c'
_symmetry_Int_Tables_number      15
_space_group_name_Hall           '-C 2yc'
loop_
_symmetry_equiv_pos_site_id
_symmetry_equiv_pos_as_xyz
1 x,y,z
2 -x,y,1/2-z
3 1/2+x,1/2+y,z
4 1/2-x,1/2+y,1/2-z
5 -x,-y,-z
6 x,-y,1/2+z
7 1/2-x,1/2-y,-z
8 1/2+x,1/2-y,1/2+z
_cell_length_a                   15.0135(10)
_cell_length_b                   14.9245(8)
_cell_length_c                   31.4557(17)
_cell_angle_alpha                90
_cell_angle_beta                 98.206(6)
_cell_angle_gamma                90
_cell_volume                     6976.08
loop_
_atom_site_label
_atom_site_type_symbol
_atom_site_fract_x
_atom_site_fract_y
_atom_site_fract_z
_atom_site_U_iso_or_equiv
_atom_site_thermal_displace_type
Fe1 Fe 0.69150(11) 0.52066(11) 0.45083(5) 0.0213 Uani
Au1 Au 0.44626(4) 0.77261(4) 0.456044(18) 0.0388 Uani
Au2 Au 0.94965(4) 0.76255(4) 0.447582(17) 0.0353 Uani
C1 C 0.8566(10) 0.6682(9) 0.4509(4) 0.0339 Uani
C2 C 0.5408(9) 0.6838(9) 0.4469(4) 0.0293 Uani
C3 C 0.5378(9) 0.3625(9) 0.4441(4) 0.0334 Uani
C4 C 0.8493(10) 0.3626(9) 0.4604(5) 0.0372 Uani
N1 N 0.7994(8) 0.6173(8) 0.4527(3) 0.0331 Uani
N2 N 0.5928(8) 0.6286(7) 0.4428(3) 0.0343 Uani
N3 N 0.5889(8) 0.4193(7) 0.4445(3) 0.0314 Uani
N4 N 0.7932(8) 0.4153(8) 0.4610(4) 0.0355 Uani
N5 N 0.6902(7) 0.5105(8) 0.3802(3) 0.0333 Uani
C5 C 0.7676(9) 0.5062(11) 0.3640(4) 0.0420 Uani
H1 H 0.8215 0.5118 0.3832 0.0510 Uiso
C6 C 0.7735(10) 0.4939(13) 0.3208(4) 0.0524 Uani
H2 H 0.8300 0.4892 0.3114 0.0630 Uiso
C7 C 0.6952(9) 0.4886(11) 0.2915(4) 0.0383 Uani
C8 C 0.6137(9) 0.4957(11) 0.3079(4) 0.0422 Uani
H3 H 0.5588 0.4942 0.2894 0.0510 Uiso
C9 C 0.6147(9) 0.5050(11) 0.3518(4) 0.0447 Uani
H4 H 0.5592 0.5075 0.3623 0.0540 Uiso
C10 C 0.6988(9) 0.4756(11) 0.2444(4) 0.0415 Uani
C11 C 0.7725(11) 0.4385(14) 0.2290(5) 0.0608 Uani
H5 H 0.8226 0.4188 0.2481 0.0730 Uiso
N6 N 0.6254(9) 0.4985(11) 0.1746(4) 0.0563 Uani
N7 N 0.6265(8) 0.5040(10) 0.2175(4) 0.0520 Uani
C12 C 0.7713(10) 0.4309(13) 0.1858(5) 0.0527 Uani
H6 H 0.8198 0.4051 0.1743 0.0630 Uiso
C13 C 0.6961(9) 0.4625(10) 0.1594(4) 0.0355 Uani
C14 C 0.6906(9) 0.4616(9) 0.1109(4) 0.0318 Uani
C15 C 0.6455(11) 0.5289(11) 0.0868(4) 0.0485 Uani
H7 H 0.6145 0.5734 0.1000 0.0580 Uiso
C16 C 0.6467(11) 0.5300(11) 0.0435(4) 0.0476 Uani
H8 H 0.6163 0.5769 0.0275 0.0570 Uiso
C17 C 0.7280(10) 0.4019(9) 0.0453(4) 0.0378 Uani
H9 H 0.7545 0.3557 0.0311 0.0450 Uiso
C18 C 0.7323(11) 0.3968(10) 0.0896(4) 0.0434 Uani
H10 H 0.7633 0.3495 0.1049 0.0520 Uiso
N8 N 0.6888(7) 0.4680(7) 0.0219(3) 0.0284 Uani
Fe1E Fe 0.69150(11) 0.47934(11) -0.04917(5) 0.0213 Uani
Au1B Au 0.94626(4) 0.27261(4) 0.456044(18) 0.0388 Uani
Au1F Au 1.05374(4) 0.72739(4) 0.543956(18) 0.0388 Uani
Au2B Au 0.44965(4) 0.26255(4) 0.447582(17) 0.0353 Uani
Au2F Au 0.55035(4) 0.73745(4) 0.552418(17) 0.0353 Uani
C3B C 1.0378(9) 0.8625(9) 0.4441(4) 0.0334 Uani
C4B C 0.3493(10) 0.8626(9) 0.4604(5) 0.0372 Uani
N8E N 0.6888(7) 0.5320(7) 0.5219(3) 0.0284 Uani
O1 O 0.037(2) 0.4995(19) 0.3571(8) 0.1999 Uani
H11 H 0.0867 0.5248 0.3583 0.2370 Uiso
C19 C 0.056(2) 0.515(3) 0.4341(11) 0.1691 Uani
H12 H 0.0357 0.4857 0.4585 0.2540 Uiso
H13 H 0.0365 0.5771 0.4330 0.2540 Uiso
H14 H 0.1213 0.5129 0.4372 0.2540 Uiso
C20 C 0.023(2) 0.475(4) 0.3990(16) 0.2111 Uani
H15 H -0.0428 0.4748 0.3986 0.2520 Uiso
H16 H 0.0416 0.4119 0.4026 0.2520 Uiso
O2 O 0.144(2) 0.6333(18) 0.3349(11) 0.2333 Uani
H17 H 0.1606 0.6457 0.3116 0.2800 Uiso
C21 C 0.222(5) 0.753(4) 0.350(3) 0.3582 Uani
H18 H 0.2634 0.7882 0.3693 0.5350 Uiso
H19 H 0.1877 0.7923 0.3287 0.5350 Uiso
H20 H 0.2546 0.7097 0.3351 0.5350 Uiso
C22 C 0.171(5) 0.715(4) 0.369(2) 0.2708 Uani
H21 H 0.1197 0.7521 0.3735 0.3230 Uiso
H22 H 0.2015 0.6929 0.3969 0.3230 Uiso
O3 O -0.0141(16) 0.3747(19) 0.2930(8) 0.1706 Uani
C23 C 0.006(4) 0.227(3) 0.3245(16) 0.2643 Uani
H23 H 0.0300 0.1910 0.3031 0.3930 Uiso
H24 H -0.0231 0.1887 0.3431 0.3930 Uiso
H25 H 0.0555 0.2589 0.3415 0.3930 Uiso
C24 C -0.044(5) 0.277(4) 0.308(2) 0.3362 Uani
H26 H -0.0884 0.2870 0.3274 0.4020 Uiso
H27 H -0.0750 0.2473 0.2825 0.4020 Uiso
H28 H 0.0204 0.3675 0.2748 0.4350 Uiso
O4 O 0.103(3) 0.649(3) 0.2464(14) 0.2944 Uani
C25 C 0.097(5) 0.729(5) 0.188(2) 0.3278 Uani
H30 H 0.1264 0.7724 0.1711 0.4890 Uiso
H31 H 0.0381 0.7512 0.1915 0.4890 Uiso
H32 H 0.0912 0.6725 0.1724 0.4890 Uiso
C26 C 0.145(6) 0.718(4) 0.224(3) 0.3628 Uani
H33 H 0.1475 0.7742 0.2407 0.4350 Uiso
H34 H 0.2060 0.7006 0.2207 0.4350 Uiso
H35 H 0.0978 0.6056 0.2305 0.4350 Uiso
loop_
_atom_site_aniso_label
_atom_site_aniso_U_11
_atom_site_aniso_U_22
_atom_site_aniso_U_33
_atom_site_aniso_U_23
_atom_site_aniso_U_13
_atom_site_aniso_U_12
Fe1 0.0218(8) 0.0199(7) 0.0231(8) -0.0003(7) 0.0063(6) -0.0013(8)
Au1 0.0369(3) 0.0337(3) 0.0463(3) 0.0018(2) 0.0076(2) 0.0129(3)
Au2 0.0334(3) 0.0310(3) 0.0423(3) -0.0009(2) 0.0083(2) -0.0119(2)
C1 0.042(8) 0.030(7) 0.030(7) -0.005(5) 0.006(6) -0.007(6)
C2 0.032(7) 0.030(7) 0.026(6) 0.005(5) 0.004(5) 0.014(6)
C3 0.039(8) 0.036(8) 0.026(7) 0.002(5) 0.007(6) -0.009(6)
C4 0.037(8) 0.032(8) 0.042(8) -0.003(6) 0.004(6) 0.006(6)
N1 0.040(7) 0.033(6) 0.027(6) -0.001(5) 0.007(5) -0.006(5)
N2 0.039(7) 0.028(6) 0.036(6) -0.002(5) 0.006(5) 0.010(5)
N3 0.037(6) 0.031(6) 0.027(6) 0.004(4) 0.007(5) -0.005(5)
N4 0.035(6) 0.032(6) 0.041(6) 0.007(5) 0.011(5) 0.013(5)
N5 0.029(6) 0.041(7) 0.031(6) -0.002(5) 0.008(5) -0.007(5)
C5 0.026(7) 0.071(11) 0.028(7) -0.009(7) 0.000(5) 0.000(7)
C6 0.028(7) 0.098(14) 0.033(8) -0.007(8) 0.011(6) -0.006(8)
C7 0.030(7) 0.059(9) 0.026(7) 0.000(6) 0.004(5) -0.002(7)
C8 0.032(7) 0.062(11) 0.031(7) -0.002(7) -0.001(6) -0.002(7)
C9 0.030(7) 0.069(12) 0.034(8) -0.001(7) 0.001(6) -0.010(7)
C10 0.036(8) 0.061(10) 0.028(7) 0.001(7) 0.006(6) 0.003(7)
C11 0.045(9) 0.109(16) 0.028(8) 0.002(9) 0.004(7) 0.023(10)
N6 0.043(7) 0.101(13) 0.026(6) -0.007(7) 0.009(5) 0.016(8)
N7 0.044(7) 0.086(11) 0.027(6) 0.001(6) 0.009(5) 0.018(7)
C12 0.034(8) 0.089(13) 0.036(8) 0.005(8) 0.008(6) 0.020(8)
C13 0.034(7) 0.045(9) 0.030(7) 0.000(6) 0.013(6) 0.006(6)
C14 0.029(7) 0.033(8) 0.034(7) -0.001(5) 0.007(5) -0.003(5)
C15 0.061(10) 0.058(10) 0.028(7) -0.004(7) 0.011(7) 0.026(8)
C16 0.068(11) 0.048(10) 0.028(7) 0.003(6) 0.011(7) 0.026(8)
C17 0.052(9) 0.028(7) 0.036(7) 0.006(6) 0.015(7) 0.007(6)
C18 0.058(10) 0.043(9) 0.029(7) 0.001(6) 0.006(7) 0.006(7)
N8 0.028(5) 0.024(6) 0.034(6) 0.002(4) 0.007(4) -0.003(4)
Fe1E 0.0218 0.0199 0.0231 0.0003 0.0063 0.0013
Au1B 0.0369 0.0337 0.0463 0.0018 0.0076 0.0129
Au1F 0.0369 0.0337 0.0463 0.0018 0.0076 0.0129
Au2B 0.0334 0.031 0.0423 -0.0009 0.0083 -0.0119
Au2F 0.0334 0.031 0.0423 -0.0009 0.0083 -0.0119
C3B 0.039 0.036 0.026 0.002 0.007 -0.009
C4B 0.037 0.032 0.042 -0.003 0.004 0.006
N8E 0.028 0.024 0.034 -0.002 0.007 0.003
O1 0.26(3) 0.20(3) 0.16(2) 0.05(2) 0.10(2) 0.03(2)
C19 0.14(3) 0.22(4) 0.13(3) -0.09(3) -0.04(2) 0.10(3)
C20 0.08(2) 0.33(7) 0.22(5) 0.11(5) 0.01(3) -0.01(3)
O2 0.32(4) 0.14(2) 0.24(3) -0.08(2) 0.04(3) 0.00(3)
C21 0.30(9) 0.22(6) 0.54(15) 0.18(8) 0.01(8) -0.11(6)
C22 0.38(10) 0.20(6) 0.26(6) -0.05(6) 0.14(7) 0.08(6)
O3 0.14(2) 0.18(2) 0.19(2) 0.03(2) 0.017(17) 0.000(18)
C23 0.44(10) 0.16(4) 0.18(4) 0.06(4) 0.00(5) 0.07(5)
C24 0.36(10) 0.23(7) 0.38(9) 0.20(7) -0.08(7) -0.01(6)
O4 0.42(6) 0.16(3) 0.30(5) -0.02(3) 0.04(4) -0.01(4)
C25 0.37(10) 0.32(9) 0.24(7) 0.11(6) -0.14(6) -0.15(7)
C26 0.47(13) 0.11(4) 0.46(14) 0.08(6) -0.10(10) -0.10(6)
loop_
_geom_bond_atom_site_label_1
_geom_bond_atom_site_label_2
_geom_bond_site_symmetry_1
_geom_bond_site_symmetry_2
Fe1 N1 1_555 1_555
Au1 C2 1_555 1_555
Au2 C1 1_555 1_555
C1 N1 1_555 1_555
C2 N2 1_555 1_555
C3 N3 1_555 1_555
C4 N4 1_555 1_555
N2 Fe1 1_555 1_555
N3 Fe1 1_555 1_555
N4 Fe1 1_555 1_555
N5 Fe1 1_555 1_555
C5 N5 1_555 1_555
H1 C5 1_555 1_555
C6 C5 1_555 1_555
H2 C6 1_555 1_555
C7 C6 1_555 1_555
C8 C7 1_555 1_555
H3 C8 1_555 1_555
C9 N5 1_555 1_555
H4 C9 1_555 1_555
C10 C7 1_555 1_555
C11 C10 1_555 1_555
H5 C11 1_555 1_555
N6 N7 1_555 1_555
N7 C10 1_555 1_555
C12 C11 1_555 1_555
H6 C12 1_555 1_555
C13 N6 1_555 1_555
C14 C13 1_555 1_555
C15 C14 1_555 1_555
H7 C15 1_555 1_555
C16 C15 1_555 1_555
H8 C16 1_555 1_555
C17 H9 1_555 1_555
C18 C14 1_555 1_555
H10 C18 1_555 1_555
N8 C16 1_555 1_555
O1 H11 1_555 1_555
C19 H12 1_555 1_555
H13 C19 1_555 1_555
H14 C19 1_555 1_555
C20 O1 1_555 1_555
H15 C20 1_555 1_555
H16 C20 1_555 1_555
O2 H17 1_555 1_555
C21 H18 1_555 1_555
H19 C21 1_555 1_555
H20 C21 1_555 1_555
C22 O2 1_555 1_555
H21 C22 1_555 1_555
H22 C22 1_555 1_555
O3 C24 1_555 1_555
C23 H23 1_555 1_555
H24 C23 1_555 1_555
H25 C23 1_555 1_555
C24 C23 1_555 1_555
H26 C24 1_555 1_555
H27 C24 1_555 1_555
H28 O3 1_555 1_555
O4 C26 1_555 1_555
C25 H30 1_555 1_555
H31 C25 1_555 1_555
H32 C25 1_555 1_555
C26 C25 1_555 1_555
H33 C26 1_555 1_555
H34 C26 1_555 1_555
H35 O4 1_555 1_555
Fe1E N8 1_555 1_555
Au1B C4 1_555 1_555
Au1F Au2 1_555 1_555
Au2B C3 1_555 1_555
Au2F Au1 1_555 1_555
C3B Au2 1_555 1_555
C4B Au1 1_555 1_555
N8E Fe1 1_555 1_555
C8 C9 1_555 1_555
C12 C13 1_555 1_555
C17 C18 1_555 1_555
C17 N8 1_555 1_555
C19 C20 1_555 1_555
C21 C22 1_555 1_555

#END
