
#######################################################################
#
#                 Cambridge Crystallographic Data Centre
#                                CCDC 
#
#######################################################################
#
# If this CIF has been generated from an entry in the Cambridge 
# Structural Database, then it will include bibliographic, chemical, 
# crystal, experimental, refinement or atomic coordinate data resulting 
# from the CCDC's data processing and validation procedures.
#
#######################################################################

data_AXIPEE03
_chemical_formula_moiety         '(C52 H68 Au4 Fe2 N16 O8)n'
_symmetry_cell_setting           monoclinic
_symmetry_space_group_name_H-M   'P 21/n'
_symmetry_Int_Tables_number      14
_space_group_name_Hall           '-P 2yn'
loop_
_symmetry_equiv_pos_site_id
_symmetry_equiv_pos_as_xyz
1 x,y,z
2 1/2-x,1/2+y,1/2-z
3 -x,-y,-z
4 1/2+x,1/2-y,1/2+z
_cell_length_a                   14.4444(3)
_cell_length_b                   14.7116(2)
_cell_length_c                   30.7720(5)
_cell_angle_alpha                90
_cell_angle_beta                 96.966(2)
_cell_angle_gamma                90
_cell_volume                     6490.79
loop_
_atom_site_label
_atom_site_type_symbol
_atom_site_fract_x
_atom_site_fract_y
_atom_site_fract_z
C1 C 0.1343(5) 0.3294(5) 0.5492(3)
C2 C 0.4597(6) 0.3169(6) 0.5520(2)
C3 C 0.4589(5) 0.6416(5) 0.5567(2)
C4 C 0.3475(5) -0.1325(5) 0.4599(3)
C5 C 0.3530(5) 0.1616(5) 0.4507(2)
C6 C 0.0490(5) 0.1697(5) 0.4475(2)
C7 C -0.0496(5) 0.1329(5) 0.5562(3)
C8 C -0.1452(6) 0.3567(6) 0.4590(3)
C9 C 0.2731(6) 0.4012(6) 0.4554(3)
H1 H 0.2487 0.3515 0.4701
C10 C 0.3450(7) 0.5380(6) 0.4572(3)
H2 H 0.3713 0.5886 0.4734
C11 C 0.2718(6) 0.3968(6) 0.4107(3)
H3 H 0.2445 0.3456 0.3952
C12 C 0.3486(7) 0.5379(7) 0.4129(3)
H4 H 0.3775 0.5865 0.3993
C13 C 0.3091(5) 0.4651(6) 0.3882(3)
C14 C 0.3038(6) 0.4664(6) 0.3401(3)
C15 C 0.2290(6) 0.4295(6) 0.3132(3)
H5 H 0.1803 0.3987 0.3253
C16 C 0.2271(7) 0.4384(7) 0.2694(3)
H6 H 0.1763 0.4154 0.2500
C17 C 0.3005(6) 0.4816(6) 0.2534(3)
C18 C 0.3033(6) 0.4948(6) 0.2057(3)
C19 C 0.2206(6) 0.5001(6) 0.1773(3)
H7 H 0.1622 0.4973 0.1885
C20 C 0.3861(6) 0.5024(6) 0.1874(3)
H8 H 0.4441 0.5014 0.2056
C21 C 0.2239(6) 0.5094(6) 0.1332(3)
H9 H 0.1667 0.5130 0.1144
C22 C 0.3837(6) 0.5114(6) 0.1427(3)
H10 H 0.4411 0.5163 0.1307
C23 C 0.1717(6) -0.0460(6) 0.5387(3)
H11 H 0.1532 -0.1000 0.5231
C24 C 0.2214(6) 0.1000(6) 0.5390(3)
H12 H 0.2370 0.1528 0.5236
C25 C 0.1694(6) -0.0458(6) 0.5829(3)
H13 H 0.1490 -0.0981 0.5971
C26 C 0.2241(6) 0.1054(6) 0.5843(3)
H14 H 0.2442 0.1595 0.5994
C27 C 0.1970(5) 0.0309(6) 0.6069(3)
C28 C 0.2001(6) 0.0320(6) 0.6553(3)
C29 C 0.2731(6) 0.0748(6) 0.6819(3)
H15 H 0.3199 0.1083 0.6697
C30 C 0.2741(7) 0.0662(7) 0.7259(3)
H16 H 0.3222 0.0934 0.7454
C31 C 0.2037(6) 0.0169(6) 0.7419(3)
C32 C 0.1995(6) 0.0046(6) 0.7897(3)
C33 C 0.1167(6) -0.0006(7) 0.8074(3)
H17 H 0.0589 0.0024 0.7890
C34 C 0.1184(6) -0.0100(6) 0.8518(3)
H18 H 0.0606 -0.0135 0.8635
C35 C 0.2773(6) -0.0104(6) 0.8622(3)
H19 H 0.3342 -0.0145 0.8812
C36 C 0.2818(6) -0.0008(6) 0.8182(3)
H20 H 0.3405 0.0021 0.8072
N1 N 0.1930(5) 0.3820(5) 0.5472(2)
N2 N 0.4037(5) 0.3722(5) 0.5562(2)
N3 N 0.4085(5) 0.5819(5) 0.5565(2)
N4 N 0.2920(5) -0.0768(4) 0.4574(2)
N5 N 0.2963(5) 0.1103(4) 0.45245(19)
N6 N 0.1040(4) 0.1156(4) 0.4455(2)
N7 N -0.1010(5) 0.0737(4) 0.5544(2)
N8 N -0.2012(5) 0.4129(5) 0.4591(2)
N9 N 0.3078(5) 0.4732(5) 0.4791(2)
N10 N 0.3741(5) 0.5085(6) 0.3235(2)
N11 N 0.3728(5) 0.5153(6) 0.2800(2)
N12 N 0.3037(4) 0.5135(4) 0.1154(2)
N13 N 0.1982(4) 0.0246(4) 0.51584(19)
N14 N 0.1326(5) -0.0134(6) 0.6715(2)
N15 N 0.1330(5) -0.0197(6) 0.7153(2)
N16 N 0.1975(5) -0.0144(5) 0.8797(2)
Fe1 Fe 0.30264(7) 0.48066(7) 0.54986(3)
Fe2 Fe 0.19774(7) 0.01916(7) 0.45022(3)
Au1 Au 0.04099(2) 0.23334(2) 0.552685(10)
Au2 Au -0.04722(2) 0.26414(2) 0.455212(10)
Au3 Au 0.55408(2) 0.22598(2) 0.543507(10)
Au4 Au 0.54989(2) 0.74145(2) 0.552677(10)
C4B C 0.6525(5) 0.1325(5) 0.5401(3)
C5B C 0.6470(5) 0.8384(5) 0.5493(2)
N7B N 0.1010(5) -0.0737(4) 0.4456(2)
N8B N 0.2012(5) 0.5871(5) 0.5409(2)
N12A N 0.1963(4) 0.0135(4) 0.3846(2)
N16A N 0.3025(5) 0.4856(5) 0.6203(2)
Fe1A Fe 0.19736(7) -0.01934(7) 0.95014(3)
Fe1B Fe -0.30264(7) 0.51934(7) 0.45014(3)
Fe2A Fe 0.30226(7) 0.51916(7) 0.04978(3)
Fe2B Fe -0.19774(7) -0.01916(7) 0.54978(3)
Au3B Au 0.44592(2) -0.22598(2) 0.456493(10)
Au3B_2 Au 0.44592(2) 0.77402(2) 0.456493(10)
Au4B Au 0.45011(2) 0.25855(2) 0.447323(10)
C37 C 0.9694(9) 0.4502(9) 0.1050(4)
H21 H 0.9186 0.4055 0.1067
H22 H 1.0271 0.4157 0.1019
C38 C 0.9458(8) 0.5075(9) 0.0655(4)
H23 H 0.9381 0.4688 0.0394
H24 H 0.9961 0.5512 0.0632
H25 H 0.8875 0.5403 0.0679
O1 O 0.9825(6) 0.4997(6) 0.1443(3)
H26 H 0.9321 0.5278 0.1469
C39 C 0.8476(13) 0.7052(11) 0.1311(5)
H27 H 0.8304 0.6863 0.1003
H28 H 0.9089 0.7360 0.1334
C40 C 0.7776(13) 0.7670(9) 0.1443(5)
H29 H 0.7729 0.8203 0.1251
H30 H 0.7957 0.7862 0.1746
H31 H 0.7172 0.7360 0.1421
O2 O 0.8531(8) 0.6267(7) 0.1592(3)
H32 H 0.8686 0.6447 0.1853
C41 C 1.0496(15) 0.2866(15) 0.1946(10)
H33 H 1.0882 0.2984 0.1708
H34 H 1.0908 0.2598 0.2194
C42 C 0.9837(18) 0.2246(17) 0.1803(11)
H35 H 1.0138 0.1691 0.1715
H36 H 0.9433 0.2494 0.1552
H37 H 0.9462 0.2104 0.2039
O3 O 1.0121(8) 0.3795(8) 0.2098(4)
H38 H 0.9797 0.3697 0.2303
C43 C 0.856(3) 0.7119(17) 0.2713(9)
H39 H 0.7933 0.6904 0.2760
H40 H 0.8484 0.7678 0.2533
C44 C 0.906(2) 0.7346(19) 0.3129(8)
H41 H 0.8723 0.7815 0.3270
H42 H 0.9684 0.7574 0.3087
H43 H 0.9128 0.6803 0.3315
O4 O 0.8973(12) 0.6468(9) 0.2480(4)
H44 H 0.9014 0.5995 0.2633
C45 C 0.5302(12) 0.0455(17) 0.8969(7)
H45 H 0.5780 0.0934 0.8958
H46 H 0.4702 0.0763 0.8996
C46 C 0.5544(9) -0.0065(9) 0.9347(4)
H47 H 0.5576 0.0329 0.9606
H48 H 0.6152 -0.0351 0.9334
H49 H 0.5072 -0.0537 0.9367
O5 O 0.5213(7) -0.0022(7) 0.8566(3)
H50 H 0.5721 -0.0272 0.8533
C47 C 0.6584(16) -0.2040(14) 0.8702(7)
H51 H 0.6780 -0.1846 0.9008
H52 H 0.5965 -0.2334 0.8691
C48 C 0.7227(16) -0.2652(12) 0.8571(6)
H53 H 0.7274 -0.3180 0.8766
H54 H 0.7838 -0.2357 0.8583
H55 H 0.7023 -0.2850 0.8270
O6 O 0.6523(9) -0.1251(8) 0.8413(4)
H56 H 0.6353 -0.1419 0.8155
C49 C 0.4499(14) 0.2108(17) 0.8063(11)
H57 H 0.4139 0.2396 0.7805
H58 H 0.4064 0.1993 0.8282
C50 C 0.5176(17) 0.2706(16) 0.8239(9)
H59 H 0.4882 0.3273 0.8318
H60 H 0.5604 0.2833 0.8023
H61 H 0.5523 0.2436 0.8501
O7 O 0.4883(8) 0.1201(8) 0.7924(4)
H62 H 0.5182 0.0955 0.8146
C51 C 0.654(2) -0.2074(16) 0.7300(9)
H63 H 0.6604 -0.2639 0.7476
H64 H 0.7175 -0.1857 0.7264
C52 C 0.6042(17) -0.2274(16) 0.6874(7)
H65 H 0.6380 -0.2740 0.6729
H66 H 0.5993 -0.1720 0.6695
H67 H 0.5416 -0.2496 0.6909
O8 O 0.6103(13) -0.1440(9) 0.7516(5)
H68 H 0.5576 -0.1626 0.7546
loop_
_geom_bond_atom_site_label_1
_geom_bond_atom_site_label_2
_geom_bond_site_symmetry_1
_geom_bond_site_symmetry_2
C1 N1 1_555 1_555
C2 N2 1_555 1_555
C3 N3 1_555 1_555
C4 N4 1_555 1_555
C5 N5 1_555 1_555
C6 N6 1_555 1_555
C7 N7 1_555 1_555
C8 N8 1_555 1_555
C9 H1 1_555 1_555
C10 H2 1_555 1_555
C11 C9 1_555 1_555
H3 C11 1_555 1_555
C12 C10 1_555 1_555
H4 C12 1_555 1_555
C13 C11 1_555 1_555
C14 C13 1_555 1_555
C15 C14 1_555 1_555
H5 C15 1_555 1_555
C16 C15 1_555 1_555
H6 C16 1_555 1_555
C17 C16 1_555 1_555
C18 C17 1_555 1_555
C19 C18 1_555 1_555
H7 C19 1_555 1_555
C20 C18 1_555 1_555
H8 C20 1_555 1_555
C21 C19 1_555 1_555
H9 C21 1_555 1_555
C22 C20 1_555 1_555
H10 C22 1_555 1_555
C23 H11 1_555 1_555
C24 H12 1_555 1_555
C25 C23 1_555 1_555
H13 C25 1_555 1_555
C26 C24 1_555 1_555
H14 C26 1_555 1_555
C27 C25 1_555 1_555
C28 C27 1_555 1_555
C29 C28 1_555 1_555
H15 C29 1_555 1_555
C30 C29 1_555 1_555
H16 C30 1_555 1_555
C31 C30 1_555 1_555
C32 C31 1_555 1_555
C33 C32 1_555 1_555
H17 C33 1_555 1_555
C34 C33 1_555 1_555
H18 C34 1_555 1_555
C35 H19 1_555 1_555
C36 C32 1_555 1_555
H20 C36 1_555 1_555
N1 Fe1 1_555 1_555
N2 Fe1 1_555 1_555
N3 Fe1 1_555 1_555
N4 Fe2 1_555 1_555
N5 Fe2 1_555 1_555
N6 Fe2 1_555 1_555
N7 Fe2B 1_555 1_555
N8 Fe1B 1_555 1_555
N9 C9 1_555 1_555
N10 C14 1_555 1_555
N11 C17 1_555 1_555
N12 C21 1_555 1_555
N13 C23 1_555 1_555
N14 C28 1_555 1_555
N15 C31 1_555 1_555
N16 C34 1_555 1_555
Fe1 N9 1_555 1_555
Fe2 N13 1_555 1_555
Au1 C1 1_555 1_555
Au2 C6 1_555 1_555
Au3 C2 1_555 1_555
Au4 C3 1_555 1_555
C37 H21 1_555 1_555
H22 C37 1_555 1_555
C38 C37 1_555 1_555
H23 C38 1_555 1_555
H24 C38 1_555 1_555
H25 C38 1_555 1_555
O1 C37 1_555 1_555
H26 O1 1_555 1_555
C39 H27 1_555 1_555
H28 C39 1_555 1_555
C40 C39 1_555 1_555
H29 C40 1_555 1_555
H30 C40 1_555 1_555
H31 C40 1_555 1_555
O2 C39 1_555 1_555
H32 O2 1_555 1_555
C41 H33 1_555 1_555
H34 C41 1_555 1_555
C42 C41 1_555 1_555
H35 C42 1_555 1_555
H36 C42 1_555 1_555
H37 C42 1_555 1_555
O3 C41 1_555 1_555
H38 O3 1_555 1_555
C43 H39 1_555 1_555
H40 C43 1_555 1_555
C44 C43 1_555 1_555
H41 C44 1_555 1_555
H42 C44 1_555 1_555
H43 C44 1_555 1_555
O4 C43 1_555 1_555
H44 O4 1_555 1_555
C45 H45 1_555 1_555
H46 C45 1_555 1_555
C46 C45 1_555 1_555
H47 C46 1_555 1_555
H48 C46 1_555 1_555
H49 C46 1_555 1_555
O5 C45 1_555 1_555
H50 O5 1_555 1_555
C47 H51 1_555 1_555
H52 C47 1_555 1_555
C48 C47 1_555 1_555
H53 C48 1_555 1_555
H54 C48 1_555 1_555
H55 C48 1_555 1_555
O6 C47 1_555 1_555
H56 O6 1_555 1_555
C49 H57 1_555 1_555
H58 C49 1_555 1_555
C50 C49 1_555 1_555
H59 C50 1_555 1_555
H60 C50 1_555 1_555
H61 C50 1_555 1_555
O7 C49 1_555 1_555
H62 O7 1_555 1_555
C51 H63 1_555 1_555
H64 C51 1_555 1_555
C52 C51 1_555 1_555
H65 C52 1_555 1_555
H66 C52 1_555 1_555
H67 C52 1_555 1_555
O8 C51 1_555 1_555
H68 O8 1_555 1_555
C4B Au3 1_555 1_555
C5B Au4 1_555 1_555
N7B Fe2 1_555 1_555
N8B Fe1 1_555 1_555
N12A Fe2 1_555 1_555
N16A Fe1 1_555 1_555
Fe1A N16 1_555 1_555
Fe2A N12 1_555 1_555
Au3B C4 1_555 1_555
Au3B_2 Au4 1_555 1_555
Au4B C5 1_555 1_555
C7 Au1 1_555 1_555
C8 Au2 1_555 1_555
C10 N9 1_555 1_555
C12 C13 1_555 1_555
C22 N12 1_555 1_555
C24 N13 1_555 1_555
C26 C27 1_555 1_555
C35 C36 1_555 1_555
C35 N16 1_555 1_555
N10 N11 1_555 1_555
N14 N15 1_555 1_555
Au1 Au2 1_555 1_555
Au3 Au4B 1_555 1_555

#END
