
#######################################################################
#
#                 Cambridge Crystallographic Data Centre
#                                CCDC 
#
#######################################################################
#
# If this CIF has been generated from an entry in the Cambridge 
# Structural Database, then it will include bibliographic, chemical, 
# crystal, experimental, refinement or atomic coordinate data resulting 
# from the CCDC's data processing and validation procedures.
#
#######################################################################

data_AXIPEE
_chemical_formula_moiety         '(C26 H34 Au2 Fe1 N8 O4)n'
_symmetry_cell_setting           monoclinic
_symmetry_space_group_name_H-M   'C 2/c'
_symmetry_Int_Tables_number      15
_space_group_name_Hall           '-C 2yc'
loop_
_symmetry_equiv_pos_site_id
_symmetry_equiv_pos_as_xyz
1 x,y,z
2 -x,y,1/2-z
3 1/2+x,1/2+y,z
4 1/2-x,1/2+y,1/2-z
5 -x,-y,-z
6 x,-y,1/2+z
7 1/2-x,1/2-y,-z
8 1/2+x,1/2-y,1/2+z
_cell_length_a                   14.2256(2)
_cell_length_b                   14.4645(3)
_cell_length_c                   30.4429(5)
_cell_angle_alpha                90
_cell_angle_beta                 96.104(2)
_cell_angle_gamma                90
_cell_volume                     6228.61
loop_
_atom_site_label
_atom_site_type_symbol
_atom_site_fract_x
_atom_site_fract_y
_atom_site_fract_z
_atom_site_U_iso_or_equiv
_atom_site_thermal_displace_type
Fe1 Fe 0.69945(7) 0.51999(6) 0.45031(3) 0.0089 Uani
Au1 Au 0.450175(18) 0.768863(19) 0.455987(8) 0.0137 Uani
Au2 Au 0.956038(18) 0.763538(18) 0.447354(8) 0.0129 Uani
C1 C 0.8589(5) 0.6657(5) 0.4504(2) 0.0128 Uani
C2 C 0.5490(5) 0.6747(5) 0.4488(2) 0.0130 Uani
C3 C 0.5477(5) 0.3655(5) 0.4441(2) 0.0121 Uani
C4 C 0.8503(5) 0.3641(5) 0.4587(2) 0.0124 Uani
N1 N 0.7998(4) 0.6116(4) 0.45203(18) 0.0122 Uani
N2 N 0.6053(4) 0.6180(4) 0.44623(18) 0.0119 Uani
N3 N 0.6012(4) 0.4261(4) 0.44576(18) 0.0118 Uani
N4 N 0.7936(4) 0.4210(4) 0.45664(18) 0.0127 Uani
N5 N 0.6980(4) 0.5156(4) 0.38451(19) 0.0126 Uani
C5 C 0.7789(5) 0.5117(5) 0.3659(2) 0.0164 Uani
H1 H 0.8368 0.5152 0.3845 0.0200 Uiso
C6 C 0.7824(5) 0.5027(5) 0.3210(2) 0.0185 Uani
H2 H 0.8416 0.4993 0.3093 0.0220 Uiso
C7 C 0.6986(5) 0.4986(5) 0.2930(2) 0.0172 Uani
C8 C 0.6147(5) 0.5057(6) 0.3119(2) 0.0205 Uani
H3 H 0.5560 0.5047 0.2939 0.0240 Uiso
C9 C 0.6167(5) 0.5144(6) 0.3573(2) 0.0189 Uani
H4 H 0.5585 0.5197 0.3698 0.0230 Uiso
C10 C 0.7013(5) 0.4853(6) 0.2447(2) 0.0199 Uani
C11 C 0.7739(6) 0.4347(6) 0.2284(3) 0.0262 Uani
H5 H 0.8231 0.4077 0.2477 0.0320 Uiso
N6 N 0.6302(5) 0.5161(5) 0.1742(2) 0.0257 Uani
N7 N 0.6307(5) 0.5222(5) 0.2183(2) 0.0257 Uani
C12 C 0.7715(6) 0.4255(6) 0.1838(3) 0.0229 Uani
H6 H 0.8183 0.3906 0.1712 0.0270 Uiso
C13 C 0.6988(5) 0.4685(5) 0.1574(2) 0.0187 Uani
C14 C 0.6962(5) 0.4688(5) 0.1085(2) 0.0158 Uani
C15 C 0.6671(6) 0.5468(6) 0.0844(2) 0.0218 Uani
H7 H 0.6445 0.5993 0.0988 0.0260 Uiso
C16 C 0.6711(6) 0.5479(6) 0.0393(2) 0.0206 Uani
H8 H 0.6534 0.6030 0.0236 0.0250 Uiso
C17 C 0.7233(5) 0.3989(5) 0.0398(2) 0.0145 Uani
H9 H 0.7408 0.3455 0.0244 0.0170 Uiso
C18 C 0.7247(5) 0.3937(5) 0.0854(2) 0.0163 Uani
H10 H 0.7451 0.3387 0.1006 0.0190 Uiso
N8 N 0.6986(4) 0.4751(4) 0.01636(18) 0.0112 Uani
Fe1E Fe 0.69945(7) 0.48001(6) -0.04969(3) 0.0089 Uani
Au1B Au 0.950175(18) 0.268863(19) 0.455987(8) 0.0137 Uani
Au1F Au 1.049825(18) 0.731137(19) 0.544013(8) 0.0137 Uani
Au2B Au 0.456038(18) 0.263538(18) 0.447354(8) 0.0129 Uani
Au2F Au 0.543962(18) 0.736462(18) 0.552646(8) 0.0129 Uani
C3B C 1.0477(5) 0.8655(5) 0.4441(2) 0.0121 Uani
C4B C 0.3503(5) 0.8641(5) 0.4587(2) 0.0124 Uani
N8E N 0.6986(4) 0.5249(4) 0.51636(18) 0.0112 Uani
O1 O 0.0195(6) 0.5031(7) 0.3556(3) 0.0665 Uani
H11 H 0.0695 0.5327 0.3531 0.0800 Uiso
C19 C 0.0547(7) 0.5049(7) 0.4345(3) 0.0393 Uani
H12 H 0.1005 0.5526 0.4284 0.0590 Uiso
H13 H 0.0819 0.4658 0.4589 0.0590 Uiso
H14 H -0.0030 0.5344 0.4427 0.0590 Uiso
C20 C 0.0315(9) 0.4477(10) 0.3947(4) 0.0582 Uani
H15 H 0.0829 0.4024 0.3922 0.0700 Uiso
H16 H -0.0274 0.4128 0.3975 0.0700 Uiso
O2 O 0.1505(7) 0.6277(6) 0.3402(3) 0.0700 Uani
H17 H 0.1698 0.6431 0.3161 0.0840 Uiso
C21 C 0.2201(11) 0.7708(9) 0.3569(5) 0.0753 Uani
H18 H 0.2837 0.7478 0.3666 0.1130 Uiso
H19 H 0.2106 0.8306 0.3709 0.1130 Uiso
H20 H 0.2129 0.7782 0.3247 0.1130 Uiso
C22 C 0.1526(12) 0.7072(10) 0.3691(5) 0.0802 Uani
H21 H 0.0894 0.7367 0.3668 0.0960 Uiso
H22 H 0.1691 0.6875 0.4001 0.0960 Uiso
O3 O -0.0098(6) 0.3800(7) 0.2919(4) 0.0809 Uani
C23 C 0.0138(14) 0.2262(11) 0.3241(7) 0.1089 Uani
H23 H 0.0462 0.1992 0.3003 0.1630 Uiso
H24 H -0.0212 0.1779 0.3380 0.1630 Uiso
H25 H 0.0605 0.2539 0.3462 0.1630 Uiso
C24 C -0.0472(13) 0.2922(16) 0.3072(10) 0.1664 Uani
H26 H -0.0896 0.3071 0.3299 0.2020 Uiso
H27 H -0.0870 0.2645 0.2819 0.2020 Uiso
H28 H 0.0251 0.3690 0.2717 0.1740 Uiso
O4 O 0.1028(11) 0.6410(7) 0.2504(4) 0.1127 Uani
C25 C 0.088(2) 0.740(2) 0.1895(9) 0.2665 Uani
H30 H 0.1221 0.7868 0.1738 0.3960 Uiso
H31 H 0.0309 0.7684 0.1992 0.3960 Uiso
H32 H 0.0701 0.6886 0.1696 0.3960 Uiso
C26 C 0.146(2) 0.7087(13) 0.2259(9) 0.1695 Uani
H33 H 0.1642 0.7617 0.2455 0.2010 Uiso
H34 H 0.2040 0.6825 0.2158 0.2010 Uiso
H35 H 0.0870 0.5962 0.2336 0.1660 Uiso
loop_
_atom_site_aniso_label
_atom_site_aniso_U_11
_atom_site_aniso_U_22
_atom_site_aniso_U_33
_atom_site_aniso_U_23
_atom_site_aniso_U_13
_atom_site_aniso_U_12
Fe1 0.0085(4) 0.0085(4) 0.0092(4) 0.0005(4) -0.0008(3) -0.0002(4)
Au1 0.01249(13) 0.01236(13) 0.01594(13) 0.00076(10) -0.00041(10) 0.00318(11)
Au2 0.01157(12) 0.01200(13) 0.01470(12) -0.00036(10) 0.00008(9) -0.00253(11)
C1 0.013(3) 0.013(3) 0.012(3) 0.000(2) 0.000(3) 0.002(3)
C2 0.015(3) 0.016(3) 0.007(3) 0.000(2) -0.004(3) -0.001(3)
C3 0.013(3) 0.016(3) 0.007(3) -0.001(2) -0.001(2) 0.002(3)
C4 0.012(3) 0.014(3) 0.011(3) -0.001(2) 0.000(3) -0.001(3)
N1 0.014(3) 0.013(3) 0.009(3) -0.001(2) -0.001(2) 0.002(2)
N2 0.014(3) 0.015(3) 0.006(2) -0.002(2) -0.002(2) 0.000(2)
N3 0.015(3) 0.012(3) 0.008(3) -0.001(2) -0.001(2) 0.002(2)
N4 0.012(3) 0.013(3) 0.013(3) -0.002(2) 0.001(2) -0.001(2)
N5 0.010(3) 0.013(3) 0.014(3) 0.001(2) -0.003(2) 0.000(2)
C5 0.015(3) 0.018(3) 0.015(3) -0.001(3) -0.004(3) 0.001(3)
C6 0.013(3) 0.026(4) 0.017(4) -0.001(3) 0.004(3) 0.000(3)
C7 0.017(4) 0.020(4) 0.014(3) 0.000(3) -0.001(3) 0.001(3)
C8 0.015(4) 0.033(5) 0.012(3) 0.000(3) -0.005(3) -0.001(3)
C9 0.014(3) 0.028(4) 0.014(3) -0.001(3) -0.002(3) -0.005(3)
C10 0.016(4) 0.029(4) 0.014(3) 0.002(3) -0.001(3) 0.002(3)
C11 0.023(4) 0.037(5) 0.018(4) 0.003(3) -0.001(3) 0.011(4)
N6 0.022(3) 0.043(4) 0.011(3) -0.003(3) -0.003(3) 0.006(3)
N7 0.021(3) 0.042(4) 0.014(3) 0.000(3) 0.001(3) 0.006(3)
C12 0.019(4) 0.030(4) 0.020(4) -0.001(3) 0.003(3) 0.005(3)
C13 0.017(4) 0.027(4) 0.011(3) 0.000(3) -0.003(3) -0.002(3)
C14 0.014(3) 0.020(4) 0.013(3) 0.000(3) -0.001(3) -0.001(3)
C15 0.025(4) 0.021(4) 0.018(4) -0.003(3) -0.004(3) 0.005(3)
C16 0.024(4) 0.020(4) 0.017(4) -0.002(3) -0.002(3) 0.007(3)
C17 0.012(3) 0.011(3) 0.020(3) 0.001(3) -0.001(3) -0.003(3)
C18 0.016(3) 0.014(3) 0.018(3) 0.002(3) -0.003(3) -0.003(3)
N8 0.012(3) 0.010(3) 0.011(3) -0.002(2) -0.002(2) -0.005(2)
Fe1E 0.0085 0.0085 0.0092 -0.0005 -0.0008 0.0002
Au1B 0.01249 0.01236 0.01594 0.00076 -0.00041 0.00318
Au1F 0.01249 0.01236 0.01594 0.00076 -0.00041 0.00318
Au2B 0.01157 0.012 0.0147 -0.00036 8e-05 -0.00253
Au2F 0.01157 0.012 0.0147 -0.00036 8e-05 -0.00253
C3B 0.013 0.016 0.007 -0.001 -0.001 0.002
C4B 0.012 0.014 0.011 -0.001 0 -0.001
N8E 0.012 0.01 0.011 0.002 -0.002 0.005
O1 0.062(6) 0.081(7) 0.055(5) 0.023(5) -0.001(4) 0.006(5)
C19 0.032(5) 0.045(6) 0.041(6) 0.003(5) 0.005(4) 0.011(4)
C20 0.045(7) 0.070(9) 0.060(8) 0.018(7) 0.008(6) 0.009(6)
O2 0.084(7) 0.057(6) 0.069(6) -0.018(5) 0.008(5) 0.002(5)
C21 0.090(11) 0.042(7) 0.088(10) 0.010(7) -0.018(8) -0.011(8)
C22 0.095(12) 0.068(10) 0.079(10) -0.028(8) 0.016(9) 0.009(9)
O3 0.047(5) 0.073(7) 0.121(9) 0.030(6) 0.001(5) -0.004(5)
C23 0.128(16) 0.053(10) 0.138(17) 0.029(10) -0.021(13) 0.009(10)
C24 0.065(12) 0.128(19) 0.30(4) 0.12(2) -0.009(17) -0.021(12)
O4 0.196(14) 0.050(6) 0.097(9) 0.000(6) 0.038(9) 0.001(8)
C25 0.25(3) 0.32(4) 0.19(3) 0.19(3) -0.16(2) -0.23(3)
C26 0.30(4) 0.053(11) 0.18(2) 0.028(13) 0.14(3) 0.041(16)
loop_
_geom_bond_atom_site_label_1
_geom_bond_atom_site_label_2
_geom_bond_site_symmetry_1
_geom_bond_site_symmetry_2
Fe1 N1 1_555 1_555
Au1 C2 1_555 1_555
Au2 C1 1_555 1_555
C1 N1 1_555 1_555
C2 N2 1_555 1_555
C3 N3 1_555 1_555
C4 N4 1_555 1_555
N2 Fe1 1_555 1_555
N3 Fe1 1_555 1_555
N4 Fe1 1_555 1_555
N5 Fe1 1_555 1_555
C5 N5 1_555 1_555
H1 C5 1_555 1_555
C6 C5 1_555 1_555
H2 C6 1_555 1_555
C7 C6 1_555 1_555
C8 C7 1_555 1_555
H3 C8 1_555 1_555
C9 N5 1_555 1_555
H4 C9 1_555 1_555
C10 C7 1_555 1_555
C11 C10 1_555 1_555
H5 C11 1_555 1_555
N6 N7 1_555 1_555
N7 C10 1_555 1_555
C12 C11 1_555 1_555
H6 C12 1_555 1_555
C13 N6 1_555 1_555
C14 C13 1_555 1_555
C15 C14 1_555 1_555
H7 C15 1_555 1_555
C16 C15 1_555 1_555
H8 C16 1_555 1_555
C17 H9 1_555 1_555
C18 C14 1_555 1_555
H10 C18 1_555 1_555
N8 C16 1_555 1_555
O1 H11 1_555 1_555
C19 H12 1_555 1_555
H13 C19 1_555 1_555
H14 C19 1_555 1_555
C20 O1 1_555 1_555
H15 C20 1_555 1_555
H16 C20 1_555 1_555
O2 H17 1_555 1_555
C21 H18 1_555 1_555
H19 C21 1_555 1_555
H20 C21 1_555 1_555
C22 O2 1_555 1_555
H21 C22 1_555 1_555
H22 C22 1_555 1_555
O3 C24 1_555 1_555
C23 H23 1_555 1_555
H24 C23 1_555 1_555
H25 C23 1_555 1_555
C24 C23 1_555 1_555
H26 C24 1_555 1_555
H27 C24 1_555 1_555
H28 O3 1_555 1_555
O4 C26 1_555 1_555
C25 H30 1_555 1_555
H31 C25 1_555 1_555
H32 C25 1_555 1_555
C26 C25 1_555 1_555
H33 C26 1_555 1_555
H34 C26 1_555 1_555
H35 O4 1_555 1_555
Fe1E N8 1_555 1_555
Au1B C4 1_555 1_555
Au1F Au2 1_555 1_555
Au2B C3 1_555 1_555
Au2F Au1 1_555 1_555
C3B Au2 1_555 1_555
C4B Au1 1_555 1_555
N8E Fe1 1_555 1_555
C8 C9 1_555 1_555
C12 C13 1_555 1_555
C17 C18 1_555 1_555
C17 N8 1_555 1_555
C19 C20 1_555 1_555
C21 C22 1_555 1_555

#END
