
#######################################################################
#
#                 Cambridge Crystallographic Data Centre
#                                CCDC 
#
#######################################################################
#
# If this CIF has been generated from an entry in the Cambridge 
# Structural Database, then it will include bibliographic, chemical, 
# crystal, experimental, refinement or atomic coordinate data resulting 
# from the CCDC's data processing and validation procedures.
#
#######################################################################

data_CAYQIE
_chemical_formula_moiety         'C87 H12 Cu16 O36'
_symmetry_cell_setting           tetragonal
_symmetry_space_group_name_H-M   'P 4'
_symmetry_Int_Tables_number      75
_space_group_name_Hall           'P 4'
loop_
_symmetry_equiv_pos_site_id
_symmetry_equiv_pos_as_xyz
1 x,y,z
2 -x,-y,z
3 -y,x,z
4 y,-x,z
_cell_length_a                   18.8423(19)
_cell_length_b                   18.8423(19)
_cell_length_c                   21.921(3)
_cell_angle_alpha                90
_cell_angle_beta                 90
_cell_angle_gamma                90
_cell_volume                     7782.66
loop_
_atom_site_label
_atom_site_type_symbol
_atom_site_fract_x
_atom_site_fract_y
_atom_site_fract_z
C1 C 0.5797(11) 0.9347(8) 0.9948(9)
C2 C 0.5342(11) 0.9266(10) 0.9454(7)
C3 C 0.4625(12) 0.9422(10) 0.9516(7)
C4 C 0.4363(12) 0.9661(8) 1.0072(8)
C5 C 0.4818(11) 0.9742(10) 1.0567(7)
C6 C 0.3682(9) 0.7743(9) 0.4212(10)
C7 C 0.4771(11) 0.8742(11) 0.7245(8)
C8 C 0.4560(8) 0.8277(13) 0.7702(11)
C9 C 0.4357(12) 0.8540(11) 0.8269(9)
C10 C 0.4365(13) 0.9266(11) 0.8377(7)
C11 C 0.4576(9) 0.9731(10) 0.7920(10)
Cu1 Cu 0.79061(13) 0.77478(12) 0.41644(11)
C12 C 0.6851(7) 0.9882(6) 1.1973(5)
C13 C 0.6999(6) 0.9264(5) 1.2294(6)
H1 H 0.6935 0.8815 1.2105
C14 C 0.7242(6) 0.9302(5) 1.2892(6)
C15 C 0.7336(5) 0.9959(6) 1.3169(5)
H2 H 0.7502 0.9985 1.3578
C16 C 0.7188(6) 1.0577(4) 1.2848(6)
C17 C 0.6946(6) 1.0539(5) 1.2250(6)
H3 H 0.6845 1.0962 1.2031
Cu2 Cu 0.29065(12) 0.72307(13) 0.32572(10)
C18 C 0.5126(6) 0.7617(6) 0.4279(5)
H4 H 0.5129 0.7428 0.3878
C19 C 0.4488(7) 0.7805(5) 0.4553(6)
C20 C 0.4484(7) 0.8082(5) 0.5140(6)
H5 H 0.4047 0.8211 0.5327
C21 C 0.5118(7) 0.8171(7) 0.5455(5)
C22 C 0.5757(7) 0.7983(5) 0.5181(6)
H6 H 0.6190 0.8044 0.5396
C23 C 0.5761(7) 0.7706(5) 0.4594(6)
C24 C 0.7424(8) 0.8621(8) 1.3157(9)
O1 O 0.3722(6) 0.7428(5) 0.3722(6)
C25 C 0.7270(9) 1.1160(9) 1.3229(10)
O2 O 0.7641(7) 1.1204(7) 1.3743(7)
O3 O 0.7684(5) 0.8624(5) 1.3680(6)
O4 O 0.6353(7) 0.7311(6) 0.3811(6)
O5 O 0.7030(6) 1.1770(6) 1.2908(6)
O6 O 0.3164(6) 0.7978(7) 0.4401(5)
O7 O 0.7054(8) 0.7847(8) 0.4513(7)
O8 O 0.7189(5) 0.8113(6) 1.2886(5)
O9 O 0.8337(7) 0.8274(7) 0.4919(6)
O10 O 0.3488(8) 0.6748(8) 0.2464(6)
C26 C 0.6474(10) 0.7610(12) 0.4346(11)
C27 C 0.4955(14) 0.8290(11) 0.6085(8)
C28 C 0.3658(12) 0.9896(11) 1.0109(10)
C29 C 0.485(2) 0.779(2) 0.902(2)
C30 C 0.5000 1.0000 0.6917(10)
C31 C 0.4573(13) 1.0440(19) 0.8057(13)
C32 C 0.4926(13) 0.8397(10) 0.6635(8)
C33 C 0.4990(10) 0.9294(10) 0.7055(13)
C34 C 0.6495(13) 0.9865(10) 1.1367(8)
O11 O 0.4210(17) 0.8015(17) 0.8707(13)
C35 C 0.517(3) 0.832(3) 0.949(3)
C36 C 0.6031(10) 0.9749(10) 1.0981(9)
C37 C 0.4141(17) 0.9388(13) 0.9030(10)
C38 C 0.3190(12) 0.9831(12) 0.9634(11)
C39 C 0.3428(13) 0.9569(12) 0.9062(11)
O12 O 0.2995(12) 0.9455(11) 0.8566(8)
C40 C 0.2283(15) 0.9716(12) 0.8637(14)
C41 C 0.217(2) 1.032(2) 0.816(2)
C42 C 0.521(2) 0.9070(13) 0.7623(13)
C43 C 0.5535(10) 0.9585(11) 1.0505(8)
C44 C 0.4779(6) 0.9469(10) 0.7353(8)
C1A C 0.4203(11) 1.0653(8) 0.9948(9)
C2A C 0.4658(11) 1.0734(10) 0.9454(7)
C3A C 0.5375(12) 1.0578(10) 0.9516(7)
C4A C 0.5637(12) 1.0339(8) 1.0072(8)
C5A C 0.5182(11) 1.0258(10) 1.0567(7)
C6A C 0.6318(9) 1.2257(9) 0.4212(10)
C7A C 0.5229(11) 1.1258(11) 0.7245(8)
C8A C 0.5440(8) 1.1723(13) 0.7702(11)
C9A C 0.5643(12) 1.1460(11) 0.8269(9)
C10A C 0.5635(13) 1.0734(11) 0.8377(7)
C11A C 0.5424(9) 1.0269(10) 0.7920(10)
C18A C 0.4874(6) 1.2383(6) 0.4279(5)
H4A H 0.4871 1.2572 0.3878
C19A C 0.5512(7) 1.2195(5) 0.4553(6)
C20A C 0.5516(7) 1.1918(5) 0.5140(6)
H5A H 0.5953 1.1789 0.5327
C21A C 0.4882(7) 1.1829(7) 0.5455(5)
C22A C 0.4243(7) 1.2017(5) 0.5181(6)
H6A H 0.3810 1.1956 0.5396
C23A C 0.4239(7) 1.2294(5) 0.4594(6)
O1A O 0.6278(6) 1.2572(5) 0.3722(6)
O4A O 0.3647(7) 1.2689(6) 0.3811(6)
O6A O 0.6836(6) 1.2022(7) 0.4401(5)
O7A O 0.2946(8) 1.2153(8) 0.4513(7)
C26A C 0.3526(10) 1.2390(12) 0.4346(11)
C27A C 0.5045(14) 1.1710(11) 0.6085(8)
C28A C 0.6342(12) 1.0104(11) 1.0109(10)
C29A C 0.515(2) 1.221(2) 0.902(2)
C31A C 0.5427(13) 0.9560(19) 0.8057(13)
C32A C 0.5074(13) 1.1603(10) 0.6635(8)
C33A C 0.5010(10) 1.0706(10) 0.7055(13)
O11A O 0.5790(17) 1.1985(17) 0.8707(13)
C35A C 0.483(3) 1.168(3) 0.949(3)
C37A C 0.5859(17) 1.0612(13) 0.9030(10)
C38A C 0.6810(12) 1.0169(12) 0.9634(11)
C39A C 0.6572(13) 1.0431(12) 0.9062(11)
O12A O 0.7005(12) 1.0545(11) 0.8566(8)
C40A C 0.7717(15) 1.0284(12) 0.8637(14)
C41A C 0.783(2) 0.968(2) 0.816(2)
C42A C 0.479(2) 1.0930(13) 0.7623(13)
C43A C 0.4465(10) 1.0415(11) 1.0505(8)
C44A C 0.5221(6) 1.0531(10) 0.7353(8)
C12A C 0.3149(7) 1.0118(6) 1.1973(5)
C13A C 0.3001(6) 1.0736(5) 1.2294(6)
H1A H 0.3065 1.1185 1.2105
C14A C 0.2758(6) 1.0698(5) 1.2892(6)
C15A C 0.2664(5) 1.0041(6) 1.3169(5)
H2A H 0.2498 1.0015 1.3578
C16A C 0.2812(6) 0.9423(4) 1.2848(6)
C17A C 0.3054(6) 0.9461(5) 1.2250(6)
H3A H 0.3155 0.9038 1.2031
C24A C 0.2576(8) 1.1379(8) 1.3157(9)
C25A C 0.2730(9) 0.8840(9) 1.3229(10)
O2A O 0.2359(7) 0.8796(7) 1.3743(7)
O3A O 0.2316(5) 1.1376(5) 1.3680(6)
O5A O 0.2970(6) 0.8230(6) 1.2908(6)
O8A O 0.2811(5) 1.1887(6) 1.2886(5)
C34A C 0.3505(13) 1.0135(10) 1.1367(8)
C36A C 0.3969(10) 1.0251(10) 1.0981(9)
Cu1A Cu 0.20939(13) 1.22522(12) 0.41644(11)
Cu2A Cu 0.70935(12) 1.27693(13) 0.32572(10)
O9A O 0.1663(7) 1.1726(7) 0.4919(6)
O10A O 0.6512(8) 1.3252(8) 0.2464(6)
Cu1_2 Cu 0.79061(13) 0.77478(12) 1.41644(11)
Cu1A_2 Cu 0.20939(13) 1.22522(12) 1.41644(11)
Cu1B Cu 0.22522(12) 0.79061(13) 0.41644(11)
Cu1B_2 Cu 0.22522(12) 0.79061(13) 1.41644(11)
Cu1C Cu 0.77478(12) 1.20939(13) 0.41644(11)
Cu1C_2 Cu 0.77478(12) 1.20939(13) 1.41644(11)
Cu2_2 Cu 0.29065(12) 0.72307(13) 1.32572(10)
Cu2A_2 Cu 0.70935(12) 1.27693(13) 1.32572(10)
Cu2B Cu 0.27693(13) 1.29065(12) 0.32572(10)
Cu2B_2 Cu 0.27693(13) 1.29065(12) 1.32572(10)
Cu2C Cu 0.72307(13) 0.70935(12) 0.32572(10)
Cu2C_2 Cu 0.72307(13) 0.70935(12) 1.32572(10)
O2B O 0.8796(7) 0.7641(7) 0.3743(7)
O2C O 0.1204(7) 1.2359(7) 0.3743(7)
O3_2 O 0.7684(5) 0.8624(5) 0.3680(6)
O3A_2 O 0.2316(5) 1.1376(5) 0.3680(6)
O4B O 0.2689(6) 0.6353(7) 0.3811(6)
O4C O 0.7311(6) 1.3647(7) 0.3811(6)
O5_2 O 0.7030(6) 1.1770(6) 0.2908(6)
O5A_2 O 0.2970(6) 0.8230(6) 0.2908(6)
O6B O 0.2022(7) 1.3164(6) 0.4401(5)
O6C O 0.7978(7) 0.6836(6) 0.4401(5)
O8B O 0.1887(6) 0.7189(5) 0.2886(5)
O8C O 0.8113(6) 1.2811(5) 0.2886(5)
loop_
_geom_bond_atom_site_label_1
_geom_bond_atom_site_label_2
_geom_bond_site_symmetry_1
_geom_bond_site_symmetry_2
C1 C2 1_555 1_555
C2 C3 1_555 1_555
C3 C4 1_555 1_555
C4 C5 1_555 1_555
C5 C43 1_555 1_555
C6 C19 1_555 1_555
C7 C8 1_555 1_555
C8 C9 1_555 1_555
C9 C10 1_555 1_555
C10 C11 1_555 1_555
C11 C31 1_555 1_555
Cu1 O7 1_555 1_555
C12 C13 1_555 1_555
C13 H1 1_555 1_555
C14 C13 1_555 1_555
C15 C14 1_555 1_555
H2 C15 1_555 1_555
C16 C15 1_555 1_555
C17 C12 1_555 1_555
H3 C17 1_555 1_555
Cu2 O1 1_555 1_555
C18 H4 1_555 1_555
C19 C18 1_555 1_555
C20 C19 1_555 1_555
H5 C20 1_555 1_555
C21 C20 1_555 1_555
C22 C21 1_555 1_555
H6 C22 1_555 1_555
C23 C18 1_555 1_555
C24 C14 1_555 1_555
O1 C6 1_555 1_555
C25 C16 1_555 1_555
O2 C25 1_555 1_555
O3 C24 1_555 1_555
O4 C26 1_555 1_555
O5 C25 1_555 1_555
O6 C6 1_555 1_555
O7 C26 1_555 1_555
O8 C24 1_555 1_555
O9 Cu1 1_555 1_555
O10 Cu2 1_555 1_555
C26 C23 1_555 1_555
C27 C21 1_555 1_555
C28 C4 1_555 1_555
C29 O11 1_555 1_555
C30 C33 1_555 1_555
C31 C11A 1_555 1_555
C32 C7 1_555 1_555
C33 C7 1_555 1_555
C34 C12 1_555 1_555
O11 C9 1_555 1_555
C35 C29 1_555 1_555
C36 C34 1_555 1_555
C37 C3 1_555 1_555
C38 C28 1_555 1_555
C39 C37 1_555 1_555
O12 C39 1_555 1_555
C40 O12 1_555 1_555
C41 C40 1_555 1_555
C42 C7 1_555 1_555
C43 C1 1_555 1_555
C44 C7 1_555 1_555
C1A C28 1_555 1_555
C2A C1A 1_555 1_555
C3A C2A 1_555 1_555
C4A C43 1_555 1_555
C5A C5 1_555 1_555
C6A C19A 1_555 1_555
C7A C8A 1_555 1_555
C8A C9A 1_555 1_555
C9A C10A 1_555 1_555
C10A C11A 1_555 1_555
C11A C31A 1_555 1_555
C18A H4A 1_555 1_555
C19A C18A 1_555 1_555
C20A C19A 1_555 1_555
H5A C20A 1_555 1_555
C21A C20A 1_555 1_555
C22A C21A 1_555 1_555
H6A C22A 1_555 1_555
C23A C18A 1_555 1_555
O1A C6A 1_555 1_555
O4A C26A 1_555 1_555
O6A C6A 1_555 1_555
O7A C26A 1_555 1_555
C26A C23A 1_555 1_555
C27A C21A 1_555 1_555
C28A C1 1_555 1_555
C29A O11A 1_555 1_555
C31A C11 1_555 1_555
C32A C7A 1_555 1_555
C33A C30 1_555 1_555
O11A C9A 1_555 1_555
C35A C29A 1_555 1_555
C37A C3A 1_555 1_555
C38A C28A 1_555 1_555
C39A C37A 1_555 1_555
O12A C39A 1_555 1_555
C40A O12A 1_555 1_555
C41A C40A 1_555 1_555
C42A C31 1_555 1_555
C43A C4 1_555 1_555
C44A C30 1_555 1_555
C12A C13A 1_555 1_555
C13A H1A 1_555 1_555
C14A C13A 1_555 1_555
C15A C14A 1_555 1_555
H2A C15A 1_555 1_555
C16A C15A 1_555 1_555
C17A C12A 1_555 1_555
H3A C17A 1_555 1_555
C24A C14A 1_555 1_555
C25A C16A 1_555 1_555
O2A C25A 1_555 1_555
O3A C24A 1_555 1_555
O5A C25A 1_555 1_555
O8A C24A 1_555 1_555
C34A C12A 1_555 1_555
C36A C43A 1_555 1_555
Cu1A O7A 1_555 1_555
Cu2A O1A 1_555 1_555
O9A Cu1A 1_555 1_555
O10A Cu2A 1_555 1_555
Cu1_2 O3 1_555 1_555
Cu1A_2 O3A 1_555 1_555
Cu1B O6 1_555 1_555
Cu1B_2 O2A 1_555 1_555
Cu1C O6A 1_555 1_555
Cu1C_2 O2 1_555 1_555
Cu2_2 O5A 1_555 1_555
Cu2A_2 O5 1_555 1_555
Cu2B O4A 1_555 1_555
Cu2B_2 O8A 1_555 1_555
Cu2C O4 1_555 1_555
Cu2C_2 O8 1_555 1_555
O2B Cu1 1_555 1_555
O2C Cu1A 1_555 1_555
O3_2 Cu1 1_555 1_555
O3A_2 Cu1A 1_555 1_555
O4B Cu2 1_555 1_555
O4C Cu2A 1_555 1_555
O5_2 Cu2A 1_555 1_555
O5A_2 Cu2 1_555 1_555
O6B Cu1A 1_555 1_555
O6C Cu1 1_555 1_555
O8B Cu2 1_555 1_555
O8C Cu2A 1_555 1_555
C5 C43A 1_555 1_555
C10 C37 1_555 1_555
C11 C44 1_555 1_555
C16 C17 1_555 1_555
C22 C23 1_555 1_555
C27 C32 1_555 1_555
C30 C44 1_555 1_555
C33 C42 1_555 1_555
C33 C44 1_555 1_555
C36 C43 1_555 1_555
C38 C39 1_555 1_555
C42 C44 1_555 1_555
C42 C31A 1_555 1_555
C43 C5A 1_555 1_555
C1A C43A 1_555 1_555
C3A C4A 1_555 1_555
C4A C5A 1_555 1_555
C4A C28A 1_555 1_555
C5A C43A 1_555 1_555
C7A C33A 1_555 1_555
C7A C42A 1_555 1_555
C7A C44A 1_555 1_555
C10A C37A 1_555 1_555
C11A C44A 1_555 1_555
C22A C23A 1_555 1_555
C27A C32A 1_555 1_555
C33A C42A 1_555 1_555
C33A C44A 1_555 1_555
C38A C39A 1_555 1_555
C42A C44A 1_555 1_555
C16A C17A 1_555 1_555
C34A C36A 1_555 1_555

#END
