
#######################################################################
#
#                 Cambridge Crystallographic Data Centre
#                                CCDC 
#
#######################################################################
#
# If this CIF has been generated from an entry in the Cambridge 
# Structural Database, then it will include bibliographic, chemical, 
# crystal, experimental, refinement or atomic coordinate data resulting 
# from the CCDC's data processing and validation procedures.
#
#######################################################################

data_KOVGOT
_chemical_formula_moiety         '(C150 H252 Mo24 N6 O92 P2 Zn8)n'
_symmetry_cell_setting           triclinic
_symmetry_space_group_name_H-M   'P -1'
_symmetry_Int_Tables_number      2
_space_group_name_Hall           '-P 1'
loop_
_symmetry_equiv_pos_site_id
_symmetry_equiv_pos_as_xyz
1 x,y,z
2 -x,-y,-z
_cell_length_a                   15.745(2)
_cell_length_b                   26.506(4)
_cell_length_c                   27.765(4)
_cell_angle_alpha                86.976(4)
_cell_angle_beta                 84.139(4)
_cell_angle_gamma                88.302(4)
_cell_volume                     11507.3
loop_
_atom_site_label
_atom_site_type_symbol
_atom_site_fract_x
_atom_site_fract_y
_atom_site_fract_z
C55 C 0.0121(9) 0.4320(7) 0.6509(6)
H31 H -0.0178 0.4162 0.6798
H32 H -0.0307 0.4462 0.6309
C56 C 0.0620(13) 0.3924(8) 0.6238(7)
H33 H 0.1082 0.3804 0.6423
H34 H 0.0873 0.4075 0.5933
C57 C 0.0084(18) 0.3459(10) 0.6129(9)
H35 H -0.0149 0.3302 0.6436
H36 H -0.0395 0.3584 0.5959
C58 C 0.053(2) 0.3085(10) 0.5853(10)
H37 H 0.0143 0.2833 0.5783
H38 H 0.0968 0.2930 0.6033
H39 H 0.0791 0.3237 0.5554
C59 C 0.1095(8) 0.5038(7) 0.6186(5)
H40 H 0.1425 0.5311 0.6284
H41 H 0.1485 0.4806 0.6010
C60 C 0.0434(9) 0.5255(8) 0.5849(6)
H42 H 0.0161 0.4980 0.5712
H43 H -0.0003 0.5450 0.6034
C61 C 0.0860(7) 0.5585(8) 0.5449(4)
H44 H 0.1317 0.5395 0.5274
H45 H 0.1110 0.5869 0.5585
C62 C 0.0235(7) 0.5779(9) 0.5103(4)
H46 H 0.0531 0.5973 0.4839
H47 H -0.0194 0.5988 0.5270
H48 H -0.0030 0.5498 0.4978
C63 C 0.1323(8) 0.4572(7) 0.6937(5)
H49 H 0.1656 0.4860 0.6998
H50 H 0.1696 0.4345 0.6744
C64 C 0.1035(10) 0.4291(9) 0.7434(6)
H51 H 0.0742 0.4530 0.7650
H52 H 0.0635 0.4033 0.7383
C65 C 0.1782(11) 0.4049(7) 0.7670(6)
H53 H 0.2058 0.3800 0.7458
H54 H 0.2195 0.4306 0.7703
C66 C 0.1536(16) 0.3795(10) 0.8163(9)
H55 H 0.2033 0.3634 0.8283
H56 H 0.1116 0.3546 0.8136
H57 H 0.1305 0.4043 0.8383
C67 C 0.0000(8) 0.5107(3) 0.6941(5)
H58 H -0.0483 0.5174 0.6755
H59 H -0.0211 0.4934 0.7245
C68 C 0.0351(8) 0.5600(4) 0.7051(6)
H60 H 0.0461 0.5809 0.6755
H61 H 0.0885 0.5544 0.7194
C69 C -0.0299(11) 0.5864(7) 0.7403(6)
H62 H -0.0867 0.5817 0.7310
H63 H -0.0274 0.5708 0.7726
C70 C -0.0149(16) 0.6416(8) 0.7417(9)
H64 H -0.0573 0.6564 0.7644
H65 H -0.0186 0.6574 0.7101
H66 H 0.0409 0.6465 0.7516
N1 N 0.0643(7) 0.4747(5) 0.6657(4)
C71 C 0.0349(5) 0.9148(3) 0.1555(4)
C72 C 0.0991(8) 0.8860(4) 0.1835(4)
C73 C 0.0774(9) 0.8392(3) 0.2147(3)
C74 C 0.0189(9) 0.8023(5) 0.1969(8)
H67 H 0.0031 0.7774 0.2224
H68 H 0.0475 0.7860 0.1695
H69 H -0.0315 0.8199 0.1875
C75 C 0.1377(8) 0.9687(5) 0.1664(3)
C76 C 0.1084(7) 1.0077(4) 0.2023(4)
H70 H 0.0660 1.0292 0.1878
H71 H 0.0789 0.9899 0.2302
C77 C 0.1701(8) 1.0421(4) 0.2213(4)
H72 H 0.1459 1.0539 0.2523
H73 H 0.2225 1.0233 0.2263
C78 C 0.190(2) 1.0866(5) 0.1867(6)
H74 H 0.2284 1.1081 0.2001
H75 H 0.1379 1.1051 0.1816
H76 H 0.2158 1.0749 0.1563
C79 C 0.1413(8) 0.9327(6) 0.0866(4)
H77 H 0.1832 0.9104 0.1007
H78 H 0.1720 0.9595 0.0679
C80 C 0.0947(8) 0.9026(7) 0.0521(4)
H79 H 0.0737 0.8723 0.0699
H80 H 0.0452 0.9227 0.0439
C81 C 0.1428(6) 0.8870(7) 0.0057(4)
H81 H 0.1113 0.8604 -0.0065
H82 H 0.1417 0.9156 -0.0175
C82 C 0.2333(6) 0.8690(9) 0.0058(8)
H83 H 0.2439 0.8417 -0.0156
H84 H 0.2437 0.8573 0.0381
H85 H 0.2706 0.8962 -0.0049
C83 C 0.0302(7) 0.9974(3) 0.1067(6)
C84 C 0.0729(16) 1.0387(11) 0.0819(8)
C85 C 0.0152(11) 1.0882(4) 0.0783(4)
C86 C 0.0582(11) 1.1325(4) 0.0507(6)
H86 H 0.0183 1.1606 0.0495
H87 H 0.0773 1.1234 0.0183
H88 H 0.1062 1.1419 0.0667
N2 N 0.0850(5) 0.9556(3) 0.1269(2)
C87 C 1.5185(6) 0.7631(3) 0.4332(3)
H89 H 1.4818 0.7634 0.4634
H90 H 1.5618 0.7367 0.4365
C88 C 1.5611(6) 0.8130(4) 0.4245(4)
H91 H 1.5187 0.8403 0.4243
H92 H 1.5959 0.8142 0.3936
C89 C 1.6155(5) 0.8176(5) 0.4652(3)
H93 H 1.6144 0.7869 0.4858
H94 H 1.5954 0.8456 0.4848
C90 C 1.7041(6) 0.8267(15) 0.4417(8)
H95 H 1.7312 0.8507 0.4595
H96 H 1.7013 0.8398 0.4090
H97 H 1.7366 0.7955 0.4415
C91 C 1.4145(7) 0.7058(4) 0.4105(4)
H98 H 1.3890 0.6933 0.3833
H99 H 1.4527 0.6794 0.4219
C92 C 1.3451(8) 0.7152(8) 0.4503(4)
H100 H 1.3074 0.7423 0.4399
H101 H 1.3700 0.7255 0.4786
C93 C 1.2939(6) 0.6680(7) 0.4634(8)
H102 H 1.2979 0.6457 0.4366
H103 H 1.3136 0.6497 0.4915
C94 C 1.2045(6) 0.6881(9) 0.4743(15)
H104 H 1.1666 0.6604 0.4820
H105 H 1.1875 0.7073 0.4464
H106 H 1.2020 0.7094 0.5013
C95 C 1.5206(7) 0.7409(4) 0.3464(4)
H107 H 1.4840 0.7326 0.3220
H108 H 1.5506 0.7713 0.3348
C96 C 1.5845(6) 0.6984(5) 0.3527(3)
H109 H 1.6141 0.7039 0.3809
H110 H 1.5544 0.6669 0.3587
C97 C 1.6488(5) 0.6939(9) 0.3092(3)
H111 H 1.6446 0.6620 0.2942
H112 H 1.6425 0.7214 0.2854
C98 C 1.7311(7) 0.697(2) 0.3318(6)
H113 H 1.7782 0.6948 0.3071
H114 H 1.7353 0.6691 0.3553
H115 H 1.7323 0.7281 0.3474
C99 C 1.4135(6) 0.7972(4) 0.3798(5)
H116 H 1.3921 0.8134 0.4093
H117 H 1.4504 0.8208 0.3604
C100 C 1.3395(7) 0.7867(7) 0.3523(5)
H118 H 1.3014 0.7644 0.3724
H119 H 1.3607 0.7689 0.3237
C101 C 1.2880(7) 0.8332(11) 0.3363(5)
H120 H 1.2668 0.8497 0.3657
H121 H 1.3286 0.8559 0.3185
C102 C 1.2137(7) 0.8315(15) 0.3066(5)
H122 H 1.1954 0.8653 0.2978
H123 H 1.1676 0.8142 0.3251
H124 H 1.2308 0.8138 0.2777
N3 N 1.4661(5) 0.7510(3) 0.3931(2)
C103 C 1.2909(6) 0.6803(8) 0.1081(6)
H125 H 1.2861 0.7120 0.1241
H126 H 1.3309 0.6854 0.0794
C104 C 1.2051(6) 0.6717(4) 0.0907(5)
H127 H 1.2087 0.6417 0.0719
H128 H 1.1633 0.6659 0.1184
C105 C 1.1763(6) 0.7160(4) 0.0601(5)
H129 H 1.1794 0.7468 0.0772
H130 H 1.2136 0.7192 0.0301
C106 C 1.0864(6) 0.7089(12) 0.0491(9)
H131 H 1.0645 0.7398 0.0349
H132 H 1.0516 0.6998 0.0786
H133 H 1.0854 0.6824 0.0269
C107 C 1.2695(13) 0.6361(4) 0.1880(5)
H134 H 1.2169 0.6237 0.1780
H135 H 1.2915 0.6100 0.2096
C108 C 1.2467(7) 0.6815(4) 0.2171(3)
H136 H 1.2263 0.7090 0.1965
H137 H 1.2964 0.6926 0.2312
C109 C 1.1780(8) 0.6666(5) 0.2564(3)
H138 H 1.1220 0.6727 0.2452
H139 H 1.1839 0.6311 0.2659
C110 C 1.1888(15) 0.6986(5) 0.2981(3)
C111 C 1.4166(5) 0.6631(4) 0.1523(4)
H140 H 1.4487 0.6710 0.1212
H141 H 1.4035 0.6948 0.1676
C112 C 1.4741(5) 0.6322(5) 0.1829(5)
H142 H 1.4701 0.5968 0.1764
H143 H 1.4549 0.6361 0.2169
C113 C 1.5657(6) 0.6474(10) 0.1734(4)
H144 H 1.5995 0.6232 0.1540
H145 H 1.5706 0.6807 0.1573
C114 C 1.5914(15) 0.6471(15) 0.2237(4)
H146 H 1.6496 0.6573 0.2226
H147 H 1.5863 0.6136 0.2385
H148 H 1.5549 0.6700 0.2424
C115 C 1.3399(9) 0.5916(8) 0.1220(4)
H149 H 1.2839 0.5826 0.1140
H150 H 1.3574 0.5667 0.1462
C116 C 1.4019(10) 0.5896(3) 0.0775(4)
H151 H 1.4568 0.6015 0.0844
H152 H 1.3815 0.6117 0.0519
C117 C 1.412(3) 0.5366(3) 0.0609(6)
H153 H 1.3671 0.5345 0.0396
H154 H 1.4647 0.5373 0.0397
C118 C 1.414(3) 0.4849(4) 0.0854(7)
H155 H 1.4271 0.4602 0.0616
H156 H 1.3591 0.4782 0.1027
H157 H 1.4567 0.4833 0.1077
N4 N 1.3338(5) 0.6408(4) 0.1426(5)
C119 C 0.545(3) 0.2271(3) 0.1888(3)
H158 H 0.5890 0.2389 0.2074
H159 H 0.4905 0.2400 0.2025
C120 C 0.5459(11) 0.1703(3) 0.1918(5)
H160 H 0.5252 0.1575 0.1632
H161 H 0.6031 0.1568 0.1948
C121 C 0.4875(6) 0.1561(11) 0.2362(4)
H162 H 0.5168 0.1678 0.2625
H163 H 0.4929 0.1196 0.2388
C122 C 0.3950(6) 0.1663(10) 0.2525(11)
H164 H 0.3842 0.1574 0.2865
H165 H 0.3602 0.1464 0.2347
H166 H 0.3815 0.2015 0.2467
C123 C 0.4750(8) 0.2426(5) 0.1165(8)
H167 H 0.4839 0.2486 0.0817
H168 H 0.4560 0.2081 0.1227
C124 C 0.4039(5) 0.2774(5) 0.1356(7)
H169 H 0.4100 0.3110 0.1202
H170 H 0.4029 0.2797 0.1704
C125 C 0.3242(5) 0.2535(5) 0.1229(8)
H171 H 0.3278 0.2511 0.0880
H172 H 0.3218 0.2193 0.1374
C126 C 0.2426(7) 0.2813(7) 0.1392(11)
H173 H 0.1953 0.2653 0.1276
H174 H 0.2452 0.3157 0.1264
H175 H 0.2352 0.2809 0.1740
C127 C 0.5878(19) 0.3007(8) 0.1405(12)
H176 H 0.5413 0.3184 0.1588
H177 H 0.6368 0.3006 0.1590
C128 C 0.610(2) 0.3302(10) 0.0933(8)
H178 H 0.5582 0.3367 0.0772
H179 H 0.6493 0.3106 0.0723
C129 C 0.6495(14) 0.3804(11) 0.1021(9)
H180 H 0.6142 0.3983 0.1267
H181 H 0.7058 0.3746 0.1128
C130 C 0.655(3) 0.411(2) 0.0545(14)
H182 H 0.6817 0.4422 0.0581
H183 H 0.5990 0.4168 0.0448
H184 H 0.6890 0.3920 0.0303
C131 C 0.6343(6) 0.2123(7) 0.1104(5)
H185 H 0.6133 0.1783 0.1092
H186 H 0.6468 0.2256 0.0773
C132 C 0.7149(5) 0.2097(7) 0.1348(4)
H187 H 0.7300 0.1750 0.1439
H188 H 0.7088 0.2292 0.1636
C133 C 0.7811(9) 0.2317(8) 0.0976(6)
H189 H 0.7713 0.2208 0.0659
H190 H 0.7754 0.2683 0.0968
C134 C 0.865(3) 0.2171(13) 0.1075(18)
H191 H 0.9053 0.2359 0.0859
H192 H 0.8737 0.1817 0.1029
H193 H 0.8723 0.2240 0.1404
N5 N 0.5622(16) 0.2463(6) 0.1369(3)
C135 C 0.7036(6) 0.1316(4) 0.3189(2)
H194 H 0.6550 0.1216 0.3031
H195 H 0.7074 0.1679 0.3138
C136 C 0.7815(7) 0.1088(6) 0.2925(3)
H196 H 0.7781 0.0723 0.2966
H197 H 0.8308 0.1186 0.3078
C137 C 0.7967(7) 0.1226(7) 0.2392(3)
H198 H 0.7485 0.1119 0.2235
H199 H 0.7994 0.1591 0.2347
C138 C 0.8771(7) 0.0994(7) 0.2149(5)
H200 H 0.8827 0.1096 0.1811
H201 H 0.8745 0.0633 0.2186
H202 H 0.9254 0.1106 0.2296
C139 C 0.5975(3) 0.1453(5) 0.3902(3)
H203 H 0.5915 0.1425 0.4253
H204 H 0.6002 0.1810 0.3807
C140 C 0.5178(4) 0.1255(7) 0.3732(4)
H205 H 0.5147 0.1376 0.3398
H206 H 0.5227 0.0889 0.3736
C141 C 0.4358(6) 0.1399(9) 0.4022(3)
H207 H 0.3974 0.1119 0.4033
H208 H 0.4097 0.1683 0.3853
C142 C 0.4440(19) 0.1539(10) 0.4532(3)
H209 H 0.3890 0.1639 0.4683
H210 H 0.4824 0.1815 0.4527
H211 H 0.4660 0.1253 0.4711
C143 C 0.7547(4) 0.1417(3) 0.3963(4)
H212 H 0.7356 0.1456 0.4303
H213 H 0.8012 0.1168 0.3949
C144 C 0.7901(6) 0.1915(3) 0.3757(4)
H214 H 0.8084 0.1881 0.3416
H215 H 0.7443 0.2168 0.3780
C145 C 0.8635(7) 0.2104(5) 0.3996(3)
H216 H 0.8560 0.2466 0.4021
H217 H 0.9157 0.2044 0.3786
C146 C 0.8750(16) 0.1871(10) 0.4491(4)
H218 H 0.9171 0.2052 0.4634
H219 H 0.8935 0.1524 0.4464
H220 H 0.8217 0.1887 0.4691
C147 C 0.6718(8) 0.0651(2) 0.3847(3)
H221 H 0.6325 0.0531 0.3634
H222 H 0.7267 0.0487 0.3759
C148 C 0.6417(14) 0.0456(3) 0.4350(3)
H223 H 0.5852 0.0600 0.4439
H224 H 0.6795 0.0576 0.4571
C149 C 0.6374(7) -0.0109(3) 0.4420(7)
H225 H 0.6853 -0.0257 0.4223
H226 H 0.6444 -0.0202 0.4756
C150 C 0.5571(7) -0.0337(6) 0.4294(9)
H227 H 0.5607 -0.0697 0.4347
H228 H 0.5498 -0.0255 0.3960
H229 H 0.5091 -0.0205 0.4495
N6 N 0.6822(4) 0.1207(2) 0.3727(2)
Mo1 Mo 1.27954(7) 0.34579(4) 0.30859(4)
Mo2 Mo 1.19386(6) 0.39765(4) 0.37546(4)
Mo3 Mo 1.56797(6) 0.32511(3) 0.41324(3)
Mo4 Mo 1.49992(7) 0.49372(4) 0.25165(3)
Mo5 Mo 1.45790(7) 0.40227(4) 0.23768(3)
Mo6 Mo 1.28656(6) 0.42446(4) 0.48428(3)
Mo7 Mo 1.48520(6) 0.30225(3) 0.31731(3)
Mo8 Mo 1.39628(6) 0.56817(3) 0.33712(3)
Mo9 Mo 1.23804(6) 0.51875(4) 0.40113(3)
Mo10 Mo 1.44320(5) 0.39393(3) 0.49542(3)
Mo11 Mo 1.59391(6) 0.52060(4) 0.36014(3)
Mo12 Mo 1.61798(5) 0.44819(3) 0.42531(3)
Mo13 Mo 0.78216(6) 0.83215(4) 0.10182(4)
Mo14 Mo 0.70086(7) 0.80124(4) 0.18397(4)
Mo15 Mo 0.48288(6) 0.80570(4) 0.20825(3)
Mo16 Mo 0.79472(6) 0.95548(4) 0.06072(3)
Mo17 Mo 0.59426(6) 0.89124(4) 0.26340(3)
Mo18 Mo 0.66508(6) 0.88132(4) 0.00338(3)
Mo19 Mo 0.39490(5) 0.97546(3) 0.09299(3)
Mo20 Mo 0.59861(6) 0.98705(4) 0.23739(3)
Mo21 Mo 0.70043(6) 1.03534(4) 0.13065(3)
Mo22 Mo 0.48138(6) 1.03641(3) 0.13947(3)
Mo23 Mo 0.49812(6) 0.88670(3) 0.01629(3)
Mo24 Mo 0.37881(6) 0.84834(3) 0.12199(3)
Zn1 Zn 1.34789(8) 0.30713(5) 0.42449(5)
Zn2 Zn 1.27609(9) 0.48316(5) 0.28166(5)
Zn3 Zn 1.63795(8) 0.39759(5) 0.30772(4)
Zn4 Zn 1.42696(7) 0.52829(4) 0.45733(4)
Zn5 Zn 0.60148(7) 1.00870(5) 0.02681(4)
Zn6 Zn 0.39870(8) 0.92919(5) 0.21538(4)
Zn7 Zn 0.56848(8) 0.78421(5) 0.08931(5)
Zn8 Zn 0.78892(8) 0.92782(6) 0.18548(5)
P1 P 1.42209(16) 0.42837(10) 0.36679(9)
P2 P 0.59060(16) 0.91052(11) 0.13038(9)
C1 C 0.9844(7) 1.0868(5) 0.4782(5)
C2 C 0.9763(9) 1.0577(5) 0.4385(5)
H1 H 1.0104 1.0639 0.4096
C3 C 0.9159(8) 1.0184(5) 0.4424(4)
C4 C 0.8726(8) 1.0071(5) 0.4840(5)
H2 H 0.8379 0.9791 0.4865
C5 C 0.8761(8) 1.0354(5) 0.5249(4)
C6 C 0.9338(9) 1.0771(5) 0.5197(5)
H3 H 0.9362 1.0978 0.5455
C7 C 1.0443(9) 1.1300(5) 0.4743(6)
C8 C 1.0208(11) 1.1739(7) 0.4950(6)
H4 H 0.9671 1.1768 0.5120
C9 C 1.0739(9) 1.2145(6) 0.4916(6)
H5 H 1.0551 1.2447 0.5051
C10 C 1.1547(9) 1.2103(6) 0.4683(5)
C11 C 1.1784(9) 1.1644(5) 0.4461(6)
H6 H 1.2317 1.1613 0.4286
C12 C 1.1263(9) 1.1261(5) 0.4499(6)
H7 H 1.1443 1.0959 0.4362
C13 C 1.2100(8) 1.2560(5) 0.4633(5)
C14 C 0.9096(7) 0.9897(5) 0.3982(4)
C15 C 0.8870(9) 0.9399(5) 0.4003(4)
H8 H 0.8804 0.9229 0.4306
C16 C 0.8733(9) 0.9132(5) 0.3602(6)
H9 H 0.8588 0.8793 0.3631
C17 C 0.8824(7) 0.9402(5) 0.3145(4)
C18 C 0.9081(9) 0.9884(5) 0.3100(5)
H10 H 0.9148 1.0057 0.2799
C19 C 0.9244(9) 1.0118(5) 0.3526(5)
H11 H 0.9466 1.0441 0.3495
C20 C 0.8569(8) 0.9142(5) 0.2714(4)
C21 C 0.8260(9) 1.0256(5) 0.5725(4)
C22 C 0.7493(10) 1.0043(6) 0.5773(5)
H12 H 0.7274 0.9927 0.5502
C23 C 0.7019(9) 0.9991(6) 0.6222(6)
H13 H 0.6492 0.9838 0.6246
C24 C 0.7314(8) 1.0163(5) 0.6632(4)
C25 C 0.8106(8) 1.0346(6) 0.6585(4)
H14 H 0.8334 1.0448 0.6859
C26 C 0.8591(9) 1.0387(5) 0.6144(5)
H15 H 0.9145 1.0503 0.6127
C27 C 0.6752(8) 1.0152(5) 0.7103(4)
C28 C 1.0470(8) 0.5871(5) -0.0496(4)
C29 C 0.9680(8) 0.6133(5) -0.0434(4)
H16 H 0.9466 0.6300 -0.0700
C30 C 0.9226(7) 0.6145(5) 0.0005(5)
C31 C 0.9578(7) 0.5904(5) 0.0406(4)
H17 H 0.9271 0.5906 0.0711
C32 C 1.0377(7) 0.5663(5) 0.0355(4)
C33 C 1.0799(7) 0.5635(5) -0.0104(4)
H18 H 1.1312 0.5452 -0.0147
C34 C 1.0936(8) 0.5852(6) -0.0995(4)
C35 C 1.1298(10) 0.5389(6) -0.1144(5)
H19 H 1.1229 0.5098 -0.0942
C36 C 1.1763(8) 0.5372(5) -0.1599(4)
H20 H 1.1974 0.5062 -0.1706
C37 C 1.1917(6) 0.5798(5) -0.1891(4)
C38 C 1.1554(9) 0.6248(5) -0.1733(5)
H21 H 1.1635 0.6541 -0.1930
C39 C 1.1063(9) 0.6275(6) -0.1281(5)
H22 H 1.0828 0.6583 -0.1181
C40 C 1.2432(7) 0.5761(6) -0.2377(4)
C41 C 0.8336(9) 0.6362(6) 0.0071(5)
C42 C 0.7732(10) 0.6274(8) -0.0222(6)
H23 H 0.7871 0.6062 -0.0477
C43 C 0.6938(10) 0.6479(6) -0.0166(6)
H24 H 0.6567 0.6426 -0.0398
C44 C 0.6653(8) 0.6768(6) 0.0228(4)
C45 C 0.7297(9) 0.6863(6) 0.0521(5)
H25 H 0.7156 0.7076 0.0774
C46 C 0.8095(8) 0.6676(5) 0.0471(5)
H26 H 0.8484 0.6747 0.0687
C47 C 0.5789(8) 0.6982(5) 0.0278(4)
C48 C 1.0740(8) 0.5416(5) 0.0786(4)
C49 C 1.0645(9) 0.5629(6) 0.1229(5)
H27 H 1.0316 0.5925 0.1265
C50 C 1.1019(9) 0.5420(5) 0.1622(4)
H28 H 1.0918 0.5561 0.1923
C51 C 1.1525(8) 0.5017(5) 0.1566(4)
C52 C 1.1647(8) 0.4782(5) 0.1134(5)
H29 H 1.1983 0.4488 0.1106
C53 C 1.1270(10) 0.4986(6) 0.0748(5)
H30 H 1.1368 0.4835 0.0452
C54 C 1.2014(8) 0.4802(5) 0.1978(4)
O1 O 1.3316(4) 0.4379(3) 0.3921(2)
O2 O 1.4588(4) 0.4771(3) 0.3417(2)
O3 O 1.4809(4) 0.4079(3) 0.4059(2)
O4 O 1.4158(4) 0.3896(3) 0.3275(2)
O5 O 1.0966(5) 0.3769(3) 0.3723(3)
O6 O 1.6382(4) 0.4508(2) 0.3537(2)
O7 O 1.3917(4) 0.4610(2) 0.4855(2)
O8 O 1.4609(5) 0.3009(3) 0.3888(3)
O9 O 1.2001(5) 0.3131(3) 0.2907(3)
O10 O 1.3544(4) 0.5471(3) 0.4068(2)
O11 O 1.5826(4) 0.3385(3) 0.3407(3)
O12 O 1.3486(4) 0.3610(3) 0.4711(2)
O13 O 1.2916(4) 0.5289(3) 0.3324(2)
O14 O 1.5574(5) 0.4284(3) 0.2626(3)
O15 O 1.2697(5) 0.3388(3) 0.3792(3)
O16 O 1.5569(4) 0.4282(2) 0.4904(2)
O17 O 1.2387(5) 0.4169(3) 0.3091(3)
O18 O 1.6443(4) 0.3745(3) 0.4181(3)
O19 O 1.5977(5) 0.5210(3) 0.2844(3)
O20 O 1.5418(4) 0.5072(3) 0.4264(2)
O21 O 1.3380(5) 0.3690(3) 0.2421(3)
O22 O 1.4298(5) 0.3800(3) 0.5550(2)
O23 O 1.2400(4) 0.4918(3) 0.4628(3)
O24 O 1.1912(4) 0.3938(3) 0.4496(3)
O25 O 1.5020(5) 0.5741(3) 0.3569(3)
O26 O 1.4314(5) 0.5537(3) 0.2751(2)
O27 O 1.3884(5) 0.4639(3) 0.2485(3)
O28 O 1.5090(4) 0.3307(2) 0.4724(2)
O29 O 1.4801(6) 0.4025(3) 0.1775(2)
O30 O 1.5325(5) 0.2440(3) 0.3093(3)
O31 O 1.1699(5) 0.4716(3) 0.3792(3)
O32 O 1.2426(5) 0.4177(3) 0.5407(3)
O33 O 1.6252(5) 0.2701(3) 0.4199(3)
O34 O 1.5081(5) 0.3348(3) 0.2574(3)
O35 O 1.3717(5) 0.2928(3) 0.3124(3)
O36 O 1.3609(6) 0.6282(3) 0.3313(3)
O37 O 1.6779(5) 0.5558(3) 0.3643(3)
O38 O 1.1736(5) 0.5703(3) 0.4072(3)
O39 O 1.5336(6) 0.5126(3) 0.1944(3)
O40 O 1.7089(5) 0.4665(3) 0.4433(3)
O41 O 1.2889(6) 1.2473(3) 0.4446(3)
O42 O 1.1826(7) 1.2956(4) 0.4763(4)
O43 O 1.2617(5) 0.5326(4) -0.2511(3)
O44 O 1.2670(5) 0.6169(4) -0.2594(3)
O45 O 1.2015(6) 0.5078(3) 0.2339(3)
O46 O 1.2386(6) 0.4371(3) 0.1957(3)
O47 O 0.6685(4) 0.8996(3) 0.0934(2)
O48 O 0.5915(4) 0.8714(3) 0.1737(2)
O49 O 0.5921(4) 0.9652(3) 0.1487(2)
O50 O 0.5073(4) 0.9068(3) 0.1052(2)
O51 O 0.4155(5) 0.7609(3) 0.2317(3)
O52 O 0.4969(5) 1.0139(3) 0.0736(2)
O53 O 0.5057(4) 0.9396(2) 0.2447(2)
O54 O 0.4139(4) 0.9454(3) 0.0281(2)
O55 O 0.5855(4) 0.9390(3) 0.0081(3)
O56 O 0.6994(4) 1.0078(3) 0.0646(2)
O57 O 0.5056(5) 0.8398(3) 0.2603(3)
O58 O 0.4020(5) 0.8623(3) 0.1902(3)
O59 O 0.6859(5) 0.9336(3) 0.2324(3)
O60 O 0.6780(5) 0.7929(3) 0.1163(3)
O61 O 0.6853(5) 1.0279(3) 0.1965(2)
O62 O 0.5076(5) 1.0351(3) 0.2112(2)
O63 O 0.4748(5) 0.8011(3) 0.1375(2)
O64 O 0.3318(4) 0.9128(3) 0.1173(3)
O65 O 0.4136(4) 0.8436(3) 0.0582(2)
O66 O 0.7548(5) 0.8309(3) 0.0305(3)
O67 O 0.8457(4) 0.8955(3) 0.0818(3)
O68 O 0.5799(4) 0.8350(2) 0.0346(2)
O69 O 0.4183(5) 1.0875(3) 0.1381(3)
O70 O 0.4067(4) 0.9808(3) 0.1615(2)
O71 O 0.7538(4) 0.9335(3) 0.0069(3)
O72 O 0.7781(5) 0.8563(3) 0.1665(3)
O73 O 0.4743(4) 0.8720(3) -0.0377(3)
O74 O 0.5876(5) 0.7729(3) 0.2009(3)
O75 O 0.2949(5) 0.8098(3) 0.1323(3)
O76 O 0.3132(5) 1.0140(3) 0.0833(3)
O77 O 0.7706(5) 1.0824(3) 0.1205(3)
O78 O 0.8795(5) 0.9895(3) 0.0373(3)
O79 O 0.5965(5) 1.0658(3) 0.1242(2)
O80 O 0.6808(5) 0.8667(3) -0.0544(3)
O81 O 0.8614(6) 0.7903(4) 0.0984(3)
O82 O 0.7816(4) 0.9747(3) 0.1300(2)
O83 O 0.6026(6) 1.0124(3) 0.2905(3)
O84 O 0.5977(5) 0.8925(3) 0.3226(3)
O85 O 0.7621(6) 0.7517(4) 0.1978(4)
O86 O 0.6816(5) 0.8338(3) 0.2518(3)
O87 O 0.6896(5) 1.0518(3) 0.7359(3)
O88 O 0.6229(5) 0.9829(4) 0.7213(3)
O89 O 0.5514(6) 0.7190(3) 0.0676(3)
O90 O 0.5174(13) 0.6743(8) 0.0107(7)
O91 O 0.8232(6) 0.8707(4) 0.2759(3)
O92 O 0.8702(5) 0.9380(3) 0.2309(3)
Mo10A Mo 1.55680(5) 0.60607(3) 0.50458(3)
Mo12A Mo 1.38202(5) 0.55181(3) 0.57469(3)
Mo19A Mo 0.60510(5) 1.02454(3) -0.09299(3)
Mo23A Mo 0.50188(6) 1.11330(3) -0.01629(3)
Zn1_2 Zn 1.34789(8) 1.30713(5) 0.42449(5)
Zn3A Zn 1.36205(8) 0.60241(5) -0.30772(4)
Zn4A Zn 1.57304(7) 0.47171(4) 0.54267(4)
Zn5A Zn 0.39852(7) 0.99130(5) -0.02681(4)
Zn6A Zn 0.60130(8) 1.07081(5) 0.78462(4)
O16A O 1.4431(4) 0.5718(2) 0.5096(2)
O41_2 O 1.2889(6) 0.2473(3) 0.4446(3)
O44A O 1.7330(5) 0.3831(4) 0.2594(3)
O54A O 0.5861(4) 1.0546(3) -0.0281(2)
O87A O 0.3104(5) 0.9482(3) 0.2641(3)
loop_
_geom_bond_atom_site_label_1
_geom_bond_atom_site_label_2
_geom_bond_site_symmetry_1
_geom_bond_site_symmetry_2
Mo1 Mo2 1_555 1_555
Mo2 O1 1_555 1_555
Mo3 Mo7 1_555 1_555
Mo4 Mo5 1_555 1_555
Mo5 O4 1_555 1_555
Mo6 Mo10 1_555 1_555
Mo7 O4 1_555 1_555
Mo8 Mo9 1_555 1_555
Mo9 O1 1_555 1_555
Mo10 O3 1_555 1_555
Mo11 Mo12 1_555 1_555
Mo12 O3 1_555 1_555
Mo13 Mo14 1_555 1_555
Mo14 O48 1_555 1_555
Mo15 Mo24 1_555 1_555
Mo16 Mo21 1_555 1_555
Mo17 Mo20 1_555 1_555
Mo18 Mo23 1_555 1_555
Mo19 Mo22 1_555 1_555
Mo20 O49 1_555 1_555
Mo21 O49 1_555 1_555
Mo22 O49 1_555 1_555
Mo23 O50 1_555 1_555
Mo24 O50 1_555 1_555
Zn1 O8 1_555 1_555
Zn2 O13 1_555 1_555
Zn3 O6 1_555 1_555
Zn4 O7 1_555 1_555
Zn5 O52 1_555 1_555
Zn6 O53 1_555 1_555
Zn7 O60 1_555 1_555
Zn8 O59 1_555 1_555
P1 O1 1_555 1_555
P2 O47 1_555 1_555
C1 C2 1_555 1_555
C2 H1 1_555 1_555
C3 C2 1_555 1_555
C4 C3 1_555 1_555
H2 C4 1_555 1_555
C5 C4 1_555 1_555
C6 C1 1_555 1_555
H3 C6 1_555 1_555
C7 C1 1_555 1_555
C8 C7 1_555 1_555
H4 C8 1_555 1_555
C9 C8 1_555 1_555
H5 C9 1_555 1_555
C10 C9 1_555 1_555
C11 C10 1_555 1_555
H6 C11 1_555 1_555
C12 C7 1_555 1_555
H7 C12 1_555 1_555
C13 C10 1_555 1_555
C14 C3 1_555 1_555
C15 C14 1_555 1_555
H8 C15 1_555 1_555
C16 C15 1_555 1_555
H9 C16 1_555 1_555
C17 C16 1_555 1_555
C18 C17 1_555 1_555
H10 C18 1_555 1_555
C19 C14 1_555 1_555
H11 C19 1_555 1_555
C20 C17 1_555 1_555
C21 C5 1_555 1_555
C22 C21 1_555 1_555
H12 C22 1_555 1_555
C23 C22 1_555 1_555
H13 C23 1_555 1_555
C24 C23 1_555 1_555
C25 C24 1_555 1_555
H14 C25 1_555 1_555
C26 C21 1_555 1_555
H15 C26 1_555 1_555
C27 C24 1_555 1_555
C28 C29 1_555 1_555
C29 H16 1_555 1_555
C30 C29 1_555 1_555
C31 C30 1_555 1_555
H17 C31 1_555 1_555
C32 C31 1_555 1_555
C33 C28 1_555 1_555
H18 C33 1_555 1_555
C34 C28 1_555 1_555
C35 C34 1_555 1_555
H19 C35 1_555 1_555
C36 C35 1_555 1_555
H20 C36 1_555 1_555
C37 C36 1_555 1_555
C38 C37 1_555 1_555
H21 C38 1_555 1_555
C39 C34 1_555 1_555
H22 C39 1_555 1_555
C40 C37 1_555 1_555
C41 C30 1_555 1_555
C42 C41 1_555 1_555
H23 C42 1_555 1_555
C43 C42 1_555 1_555
H24 C43 1_555 1_555
C44 C43 1_555 1_555
C45 C44 1_555 1_555
H25 C45 1_555 1_555
C46 C41 1_555 1_555
H26 C46 1_555 1_555
C47 C44 1_555 1_555
C48 C32 1_555 1_555
C49 C48 1_555 1_555
H27 C49 1_555 1_555
C50 C49 1_555 1_555
H28 C50 1_555 1_555
C51 C50 1_555 1_555
C52 C51 1_555 1_555
H29 C52 1_555 1_555
C53 C48 1_555 1_555
H30 C53 1_555 1_555
C54 C51 1_555 1_555
O1 Mo6 1_555 1_555
O2 Mo4 1_555 1_555
O3 Mo3 1_555 1_555
O4 Mo1 1_555 1_555
O5 Mo2 1_555 1_555
O6 Mo11 1_555 1_555
O7 Mo6 1_555 1_555
O8 Mo3 1_555 1_555
O9 Mo1 1_555 1_555
O10 Mo8 1_555 1_555
O11 Mo3 1_555 1_555
O12 Mo6 1_555 1_555
O13 Mo8 1_555 1_555
O14 Mo4 1_555 1_555
O15 Mo1 1_555 1_555
O16 Mo10 1_555 1_555
O17 Mo1 1_555 1_555
O18 Mo3 1_555 1_555
O19 Mo4 1_555 1_555
O20 Mo11 1_555 1_555
O21 Mo1 1_555 1_555
O22 Mo10 1_555 1_555
O23 Mo6 1_555 1_555
O24 Mo2 1_555 1_555
O25 Mo8 1_555 1_555
O26 Mo4 1_555 1_555
O27 Mo4 1_555 1_555
O28 Mo3 1_555 1_555
O29 Mo5 1_555 1_555
O30 Mo7 1_555 1_555
O31 Mo2 1_555 1_555
O32 Mo6 1_555 1_555
O33 Mo3 1_555 1_555
O34 Mo5 1_555 1_555
O35 Mo1 1_555 1_555
O36 Mo8 1_555 1_555
O37 Mo11 1_555 1_555
O38 Mo9 1_555 1_555
O39 Mo4 1_555 1_555
O40 Mo12 1_555 1_555
O41 C13 1_555 1_555
O42 C13 1_555 1_555
O43 C40 1_555 1_555
O44 C40 1_555 1_555
O45 Zn2 1_555 1_555
O46 C54 1_555 1_555
O47 Mo13 1_555 1_555
O48 Mo15 1_555 1_555
O49 P2 1_555 1_555
O50 Mo19 1_555 1_555
O51 Mo15 1_555 1_555
O52 Mo19 1_555 1_555
O53 Mo17 1_555 1_555
O54 Mo19 1_555 1_555
O55 Mo18 1_555 1_555
O56 Mo16 1_555 1_555
O57 Mo15 1_555 1_555
O58 Mo15 1_555 1_555
O59 Mo17 1_555 1_555
O60 Mo13 1_555 1_555
O61 Mo20 1_555 1_555
O62 Mo20 1_555 1_555
O63 Mo15 1_555 1_555
O64 Mo19 1_555 1_555
O65 Mo23 1_555 1_555
O66 Mo13 1_555 1_555
O67 Mo13 1_555 1_555
O68 Mo18 1_555 1_555
O69 Mo22 1_555 1_555
O70 Mo19 1_555 1_555
O71 Mo16 1_555 1_555
O72 Mo13 1_555 1_555
O73 Mo23 1_555 1_555
O74 Mo14 1_555 1_555
O75 Mo24 1_555 1_555
O76 Mo19 1_555 1_555
O77 Mo21 1_555 1_555
O78 Mo16 1_555 1_555
O79 Mo21 1_555 1_555
O80 Mo18 1_555 1_555
O81 Mo13 1_555 1_555
O82 Mo16 1_555 1_555
O83 Mo20 1_555 1_555
O84 Mo17 1_555 1_555
O85 Mo14 1_555 1_555
O86 Mo14 1_555 1_555
O87 C27 1_555 1_555
O88 C27 1_555 1_555
O89 Zn7 1_555 1_555
O90 C47 1_555 1_555
O91 C20 1_555 1_555
O92 Zn8 1_555 1_555
C55 H31 1_555 1_555
H32 C55 1_555 1_555
C56 C55 1_555 1_555
H33 C56 1_555 1_555
H34 C56 1_555 1_555
C57 C56 1_555 1_555
H35 C57 1_555 1_555
H36 C57 1_555 1_555
C58 C57 1_555 1_555
H37 C58 1_555 1_555
H38 C58 1_555 1_555
H39 C58 1_555 1_555
C59 H40 1_555 1_555
H41 C59 1_555 1_555
C60 C59 1_555 1_555
H42 C60 1_555 1_555
H43 C60 1_555 1_555
C61 C60 1_555 1_555
H44 C61 1_555 1_555
H45 C61 1_555 1_555
C62 C61 1_555 1_555
H46 C62 1_555 1_555
H47 C62 1_555 1_555
H48 C62 1_555 1_555
C63 H49 1_555 1_555
H50 C63 1_555 1_555
C64 C63 1_555 1_555
H51 C64 1_555 1_555
H52 C64 1_555 1_555
C65 C64 1_555 1_555
H53 C65 1_555 1_555
H54 C65 1_555 1_555
C66 C65 1_555 1_555
H55 C66 1_555 1_555
H56 C66 1_555 1_555
H57 C66 1_555 1_555
C67 H58 1_555 1_555
H59 C67 1_555 1_555
C68 C67 1_555 1_555
H60 C68 1_555 1_555
H61 C68 1_555 1_555
C69 C68 1_555 1_555
H62 C69 1_555 1_555
H63 C69 1_555 1_555
C70 C69 1_555 1_555
H64 C70 1_555 1_555
H65 C70 1_555 1_555
H66 C70 1_555 1_555
N1 C55 1_555 1_555
C71 C72 1_555 1_555
C72 C73 1_555 1_555
C73 C74 1_555 1_555
C74 H67 1_555 1_555
H68 C74 1_555 1_555
H69 C74 1_555 1_555
C75 C76 1_555 1_555
C76 H70 1_555 1_555
H71 C76 1_555 1_555
C77 C76 1_555 1_555
H72 C77 1_555 1_555
H73 C77 1_555 1_555
C78 C77 1_555 1_555
H74 C78 1_555 1_555
H75 C78 1_555 1_555
H76 C78 1_555 1_555
C79 H77 1_555 1_555
H78 C79 1_555 1_555
C80 C79 1_555 1_555
H79 C80 1_555 1_555
H80 C80 1_555 1_555
C81 C80 1_555 1_555
H81 C81 1_555 1_555
H82 C81 1_555 1_555
C82 C81 1_555 1_555
H83 C82 1_555 1_555
H84 C82 1_555 1_555
H85 C82 1_555 1_555
C83 C84 1_555 1_555
C84 C85 1_555 1_555
C85 C86 1_555 1_555
C86 H86 1_555 1_555
H87 C86 1_555 1_555
H88 C86 1_555 1_555
N2 C71 1_555 1_555
C87 H89 1_555 1_555
H90 C87 1_555 1_555
C88 C87 1_555 1_555
H91 C88 1_555 1_555
H92 C88 1_555 1_555
C89 C88 1_555 1_555
H93 C89 1_555 1_555
H94 C89 1_555 1_555
C90 C89 1_555 1_555
H95 C90 1_555 1_555
H96 C90 1_555 1_555
H97 C90 1_555 1_555
C91 H98 1_555 1_555
H99 C91 1_555 1_555
C92 C91 1_555 1_555
H100 C92 1_555 1_555
H101 C92 1_555 1_555
C93 C92 1_555 1_555
H102 C93 1_555 1_555
H103 C93 1_555 1_555
C94 C93 1_555 1_555
H104 C94 1_555 1_555
H105 C94 1_555 1_555
H106 C94 1_555 1_555
C95 H107 1_555 1_555
H108 C95 1_555 1_555
C96 C95 1_555 1_555
H109 C96 1_555 1_555
H110 C96 1_555 1_555
C97 C96 1_555 1_555
H111 C97 1_555 1_555
H112 C97 1_555 1_555
C98 C97 1_555 1_555
H113 C98 1_555 1_555
H114 C98 1_555 1_555
H115 C98 1_555 1_555
C99 H116 1_555 1_555
H117 C99 1_555 1_555
C100 C99 1_555 1_555
H118 C100 1_555 1_555
H119 C100 1_555 1_555
C101 C100 1_555 1_555
H120 C101 1_555 1_555
H121 C101 1_555 1_555
C102 C101 1_555 1_555
H122 C102 1_555 1_555
H123 C102 1_555 1_555
H124 C102 1_555 1_555
N3 C87 1_555 1_555
C103 H125 1_555 1_555
H126 C103 1_555 1_555
C104 C103 1_555 1_555
H127 C104 1_555 1_555
H128 C104 1_555 1_555
C105 C104 1_555 1_555
H129 C105 1_555 1_555
H130 C105 1_555 1_555
C106 C105 1_555 1_555
H131 C106 1_555 1_555
H132 C106 1_555 1_555
H133 C106 1_555 1_555
C107 H134 1_555 1_555
H135 C107 1_555 1_555
C108 C107 1_555 1_555
H136 C108 1_555 1_555
H137 C108 1_555 1_555
C109 C108 1_555 1_555
H138 C109 1_555 1_555
H139 C109 1_555 1_555
C110 C109 1_555 1_555
C111 H140 1_555 1_555
H141 C111 1_555 1_555
C112 C111 1_555 1_555
H142 C112 1_555 1_555
H143 C112 1_555 1_555
C113 C112 1_555 1_555
H144 C113 1_555 1_555
H145 C113 1_555 1_555
C114 C113 1_555 1_555
H146 C114 1_555 1_555
H147 C114 1_555 1_555
H148 C114 1_555 1_555
C115 H149 1_555 1_555
H150 C115 1_555 1_555
C116 C115 1_555 1_555
H151 C116 1_555 1_555
H152 C116 1_555 1_555
C117 C116 1_555 1_555
H153 C117 1_555 1_555
H154 C117 1_555 1_555
C118 C117 1_555 1_555
H155 C118 1_555 1_555
H156 C118 1_555 1_555
H157 C118 1_555 1_555
N4 C103 1_555 1_555
C119 H158 1_555 1_555
H159 C119 1_555 1_555
C120 C119 1_555 1_555
H160 C120 1_555 1_555
H161 C120 1_555 1_555
C121 C120 1_555 1_555
H162 C121 1_555 1_555
H163 C121 1_555 1_555
C122 C121 1_555 1_555
H164 C122 1_555 1_555
H165 C122 1_555 1_555
H166 C122 1_555 1_555
C123 H167 1_555 1_555
H168 C123 1_555 1_555
C124 C123 1_555 1_555
H169 C124 1_555 1_555
H170 C124 1_555 1_555
C125 C124 1_555 1_555
H171 C125 1_555 1_555
H172 C125 1_555 1_555
C126 C125 1_555 1_555
H173 C126 1_555 1_555
H174 C126 1_555 1_555
H175 C126 1_555 1_555
C127 H176 1_555 1_555
H177 C127 1_555 1_555
C128 C127 1_555 1_555
H178 C128 1_555 1_555
H179 C128 1_555 1_555
C129 C128 1_555 1_555
H180 C129 1_555 1_555
H181 C129 1_555 1_555
C130 C129 1_555 1_555
H182 C130 1_555 1_555
H183 C130 1_555 1_555
H184 C130 1_555 1_555
C131 H185 1_555 1_555
H186 C131 1_555 1_555
C132 C131 1_555 1_555
H187 C132 1_555 1_555
H188 C132 1_555 1_555
C133 C132 1_555 1_555
H189 C133 1_555 1_555
H190 C133 1_555 1_555
C134 C133 1_555 1_555
H191 C134 1_555 1_555
H192 C134 1_555 1_555
H193 C134 1_555 1_555
N5 C119 1_555 1_555
C135 H194 1_555 1_555
H195 C135 1_555 1_555
C136 C135 1_555 1_555
H196 C136 1_555 1_555
H197 C136 1_555 1_555
C137 C136 1_555 1_555
H198 C137 1_555 1_555
H199 C137 1_555 1_555
C138 C137 1_555 1_555
H200 C138 1_555 1_555
H201 C138 1_555 1_555
H202 C138 1_555 1_555
C139 H203 1_555 1_555
H204 C139 1_555 1_555
C140 C139 1_555 1_555
H205 C140 1_555 1_555
H206 C140 1_555 1_555
C141 C140 1_555 1_555
H207 C141 1_555 1_555
H208 C141 1_555 1_555
C142 C141 1_555 1_555
H209 C142 1_555 1_555
H210 C142 1_555 1_555
H211 C142 1_555 1_555
C143 H212 1_555 1_555
H213 C143 1_555 1_555
C144 C143 1_555 1_555
H214 C144 1_555 1_555
H215 C144 1_555 1_555
C145 C144 1_555 1_555
H216 C145 1_555 1_555
H217 C145 1_555 1_555
C146 C145 1_555 1_555
H218 C146 1_555 1_555
H219 C146 1_555 1_555
H220 C146 1_555 1_555
C147 H221 1_555 1_555
H222 C147 1_555 1_555
C148 C147 1_555 1_555
H223 C148 1_555 1_555
H224 C148 1_555 1_555
C149 C148 1_555 1_555
H225 C149 1_555 1_555
H226 C149 1_555 1_555
C150 C149 1_555 1_555
H227 C150 1_555 1_555
H228 C150 1_555 1_555
H229 C150 1_555 1_555
N6 C135 1_555 1_555
Mo10A Zn4 1_555 1_555
Mo12A Zn4 1_555 1_555
Mo19A Zn5 1_555 1_555
Mo23A Zn5 1_555 1_555
Zn1_2 O41 1_555 1_555
Zn3A O44 1_555 1_555
Zn4A Mo10 1_555 1_555
Zn5A Mo19 1_555 1_555
Zn6A O87 1_555 1_555
O16A Zn4 1_555 1_555
O41_2 Zn1 1_555 1_555
O44A Zn3 1_555 1_555
O54A Zn5 1_555 1_555
O87A Zn6 1_555 1_555
Mo2 O15 1_555 1_555
Mo2 O17 1_555 1_555
Mo5 O14 1_555 1_555
Mo5 O21 1_555 1_555
Mo5 O27 1_555 1_555
Mo6 O24 1_555 1_555
Mo7 O8 1_555 1_555
Mo7 O11 1_555 1_555
Mo7 O34 1_555 1_555
Mo7 O35 1_555 1_555
Mo8 O2 1_555 1_555
Mo8 O26 1_555 1_555
Mo9 O10 1_555 1_555
Mo9 O13 1_555 1_555
Mo9 O23 1_555 1_555
Mo9 O31 1_555 1_555
Mo10 O7 1_555 1_555
Mo10 O12 1_555 1_555
Mo10 O28 1_555 1_555
Mo11 O2 1_555 1_555
Mo11 O19 1_555 1_555
Mo11 O25 1_555 1_555
Mo12 O6 1_555 1_555
Mo12 O16 1_555 1_555
Mo12 O18 1_555 1_555
Mo12 O20 1_555 1_555
Mo12 Zn4A 1_555 1_555
Mo14 O60 1_555 1_555
Mo14 O72 1_555 1_555
Mo15 O74 1_555 1_555
Mo16 O47 1_555 1_555
Mo16 O67 1_555 1_555
Mo17 O48 1_555 1_555
Mo17 O57 1_555 1_555
Mo17 O86 1_555 1_555
Mo18 O47 1_555 1_555
Mo18 O66 1_555 1_555
Mo18 O71 1_555 1_555
Mo20 O53 1_555 1_555
Mo20 O59 1_555 1_555
Mo21 O56 1_555 1_555
Mo21 O61 1_555 1_555
Mo21 O82 1_555 1_555
Mo22 O52 1_555 1_555
Mo22 O62 1_555 1_555
Mo22 O70 1_555 1_555
Mo22 O79 1_555 1_555
Mo23 O54 1_555 1_555
Mo23 O55 1_555 1_555
Mo23 O68 1_555 1_555
Mo23 Zn5A 1_555 1_555
Mo24 O58 1_555 1_555
Mo24 O63 1_555 1_555
Mo24 O64 1_555 1_555
Mo24 O65 1_555 1_555
Zn1 O12 1_555 1_555
Zn1 O15 1_555 1_555
Zn2 O17 1_555 1_555
Zn2 O27 1_555 1_555
Zn3 O11 1_555 1_555
Zn3 O14 1_555 1_555
Zn4 O10 1_555 1_555
Zn4 O20 1_555 1_555
Zn5 O55 1_555 1_555
Zn5 O56 1_555 1_555
Zn6 O58 1_555 1_555
Zn6 O70 1_555 1_555
Zn7 O63 1_555 1_555
Zn7 O68 1_555 1_555
Zn8 O72 1_555 1_555
Zn8 O82 1_555 1_555
P1 O2 1_555 1_555
P1 O3 1_555 1_555
P1 O4 1_555 1_555
P2 O48 1_555 1_555
P2 O50 1_555 1_555
C5 C6 1_555 1_555
C11 C12 1_555 1_555
C18 C19 1_555 1_555
C20 O92 1_555 1_555
C25 C26 1_555 1_555
C32 C33 1_555 1_555
C38 C39 1_555 1_555
C45 C46 1_555 1_555
C47 O89 1_555 1_555
C52 C53 1_555 1_555
C54 O45 1_555 1_555
O16 Zn4A 1_555 1_555
O54 Zn5A 1_555 1_555
C59 N1 1_555 1_555
C63 N1 1_555 1_555
C67 N1 1_555 1_555
C75 N2 1_555 1_555
C79 N2 1_555 1_555
C83 N2 1_555 1_555
C91 N3 1_555 1_555
C95 N3 1_555 1_555
C99 N3 1_555 1_555
C107 N4 1_555 1_555
C111 N4 1_555 1_555
C115 N4 1_555 1_555
C123 N5 1_555 1_555
C127 N5 1_555 1_555
C131 N5 1_555 1_555
C139 N6 1_555 1_555
C143 N6 1_555 1_555
C147 N6 1_555 1_555
Mo10A O16A 1_555 1_555
Mo12A O16A 1_555 1_555
Mo19A O54A 1_555 1_555
Mo23A O54A 1_555 1_555

#END
