
#######################################################################
#
#                 Cambridge Crystallographic Data Centre
#                                CCDC 
#
#######################################################################
#
# If this CIF has been generated from an entry in the Cambridge 
# Structural Database, then it will include bibliographic, chemical, 
# crystal, experimental, refinement or atomic coordinate data resulting 
# from the CCDC's data processing and validation procedures.
#
#######################################################################

data_KOVGOT01
_chemical_formula_moiety         '(C54 H36 Mo24 O92 P2 Zn8 6-)n'
_symmetry_cell_setting           triclinic
_symmetry_space_group_name_H-M   'P -1'
_symmetry_Int_Tables_number      2
_space_group_name_Hall           '-P 1'
loop_
_symmetry_equiv_pos_site_id
_symmetry_equiv_pos_as_xyz
1 x,y,z
2 -x,-y,-z
_cell_length_a                   15.745(2)
_cell_length_b                   26.506(4)
_cell_length_c                   27.765(4)
_cell_angle_alpha                86.976(4)
_cell_angle_beta                 84.139(4)
_cell_angle_gamma                88.302(4)
_cell_volume                     11507.3
loop_
_atom_site_label
_atom_site_type_symbol
_atom_site_fract_x
_atom_site_fract_y
_atom_site_fract_z
Mo1 Mo 1.27964(7) 0.34571(4) 0.30857(4)
Mo2 Mo 1.19378(6) 0.39763(4) 0.37551(4)
Mo3 Mo 1.56812(6) 0.32518(4) 0.41323(3)
Mo4 Mo 1.49997(7) 0.49369(4) 0.25169(4)
Mo5 Mo 1.45791(7) 0.40229(4) 0.23763(4)
Mo6 Mo 1.28657(6) 0.42452(4) 0.48429(3)
Mo7 Mo 1.48519(6) 0.30223(4) 0.31728(4)
Mo8 Mo 1.39626(6) 0.56823(4) 0.33714(3)
Mo9 Mo 1.23800(6) 0.51876(4) 0.40113(4)
Mo10 Mo 1.44314(6) 0.39391(3) 0.49541(3)
Mo11 Mo 1.59383(6) 0.52060(4) 0.36019(3)
Mo12 Mo 1.61794(6) 0.44809(3) 0.42534(3)
Mo13 Mo 0.78232(7) 0.83217(4) 0.10177(4)
Mo14 Mo 0.70088(7) 0.80119(4) 0.18394(4)
Mo15 Mo 0.48285(7) 0.80566(4) 0.20832(3)
Mo16 Mo 0.79473(6) 0.95549(4) 0.06066(4)
Mo17 Mo 0.59415(7) 0.89132(4) 0.26346(4)
Mo18 Mo 0.66512(6) 0.88130(4) 0.00338(3)
Mo19 Mo 0.39485(6) 0.97542(4) 0.09307(3)
Mo20 Mo 0.59870(7) 0.98700(4) 0.23736(3)
Mo21 Mo 0.70050(6) 1.03534(4) 0.13064(3)
Mo22 Mo 0.48138(6) 1.03638(4) 0.13953(3)
Mo23 Mo 0.49807(6) 0.88668(4) 0.01624(3)
Mo24 Mo 0.37888(6) 0.84825(4) 0.12205(3)
Zn1 Zn 1.34801(8) 0.30708(5) 0.42447(5)
Zn2 Zn 1.27626(9) 0.48320(6) 0.28164(5)
Zn3 Zn 1.63792(9) 0.39760(5) 0.30764(5)
Zn4 Zn 1.42682(7) 0.52827(4) 0.45730(4)
Zn5 Zn 0.60145(7) 1.00859(5) 0.02685(4)
Zn6 Zn 0.39870(8) 0.92914(5) 0.21539(4)
Zn7 Zn 0.56846(9) 0.78415(5) 0.08926(5)
Zn8 Zn 0.78892(9) 0.92780(6) 0.18552(5)
P1 P 1.42203(17) 0.42829(10) 0.36674(10)
P2 P 0.59069(17) 0.91038(11) 0.13015(10)
C1 C 0.9843(8) 1.0876(5) 0.4764(5)
C2 C 0.9752(9) 1.0571(5) 0.4384(5)
H1 H 1.0094 1.0620 0.4093
C3 C 0.9154(8) 1.0190(5) 0.4431(4)
C4 C 0.8726(8) 1.0071(6) 0.4841(5)
H2 H 0.8397 0.9784 0.4864
C5 C 0.8734(8) 1.0357(5) 0.5255(4)
C6 C 0.9340(9) 1.0767(5) 0.5205(5)
H3 H 0.9394 1.0961 0.5469
C7 C 1.0429(8) 1.1310(6) 0.4752(6)
C8 C 1.0201(11) 1.1743(6) 0.4958(6)
H4 H 0.9665 1.1778 0.5129
C9 C 1.0760(10) 1.2141(7) 0.4917(7)
H5 H 1.0584 1.2446 0.5051
C10 C 1.1544(9) 1.2097(6) 0.4690(5)
C11 C 1.1796(9) 1.1640(6) 0.4458(6)
H6 H 1.2325 1.1618 0.4277
C12 C 1.1299(8) 1.1257(5) 0.4497(7)
H7 H 1.1485 1.0952 0.4367
C13 C 1.2102(9) 1.2564(6) 0.4631(5)
C14 C 0.9116(8) 0.9887(5) 0.3990(4)
C15 C 0.8871(9) 0.9400(5) 0.4002(4)
H8 H 0.8805 0.9230 0.4304
C16 C 0.8715(9) 0.9138(5) 0.3617(6)
H9 H 0.8540 0.8805 0.3657
C17 C 0.8828(7) 0.9394(5) 0.3137(4)
C18 C 0.9074(8) 0.9882(5) 0.3098(5)
H10 H 0.9131 1.0058 0.2798
C19 C 0.9243(9) 1.0119(5) 0.3524(5)
H11 H 0.9449 1.0446 0.3493
C20 C 0.8603(10) 0.9131(6) 0.2721(5)
C21 C 0.8249(9) 1.0261(5) 0.5710(5)
C22 C 0.7506(11) 1.0029(7) 0.5777(5)
H12 H 0.7302 0.9892 0.5511
C23 C 0.7027(9) 0.9981(6) 0.6213(5)
H13 H 0.6494 0.9836 0.6228
C24 C 0.7315(8) 1.0146(5) 0.6647(4)
C25 C 0.8099(9) 1.0352(5) 0.6590(4)
H14 H 0.8307 1.0473 0.6862
C26 C 0.8609(8) 1.0392(5) 0.6155(5)
H15 H 0.9168 1.0501 0.6143
C27 C 0.6736(8) 1.0150(5) 0.7112(5)
C28 C 1.0482(8) 0.5875(5) -0.0498(4)
C29 C 0.9678(8) 0.6134(5) -0.0437(4)
H16 H 0.9451 0.6292 -0.0704
C30 C 0.9242(7) 0.6152(5) 0.0008(5)
C31 C 0.9599(8) 0.5904(5) 0.0402(4)
H17 H 0.9288 0.5907 0.0705
C32 C 1.0361(8) 0.5664(6) 0.0369(5)
C33 C 1.0805(8) 0.5636(5) -0.0102(4)
H18 H 1.1319 0.5453 -0.0142
C34 C 1.0937(8) 0.5868(6) -0.1002(4)
C35 C 1.1285(12) 0.5376(6) -0.1146(6)
H19 H 1.1195 0.5083 -0.0949
C36 C 1.1764(8) 0.5372(5) -0.1600(4)
H20 H 1.1984 0.5066 -0.1713
C37 C 1.1918(7) 0.5798(4) -0.1880(4)
C38 C 1.1556(9) 0.6244(6) -0.1733(5)
H21 H 1.1636 0.6534 -0.1934
C39 C 1.1058(9) 0.6275(6) -0.1278(5)
H22 H 1.0822 0.6583 -0.1179
C40 C 1.2445(8) 0.5758(7) -0.2382(4)
C41 C 0.8339(7) 0.6364(6) 0.0064(5)
C42 C 0.7724(11) 0.6273(7) -0.0223(7)
H23 H 0.7850 0.6042 -0.0463
C43 C 0.6942(10) 0.6494(6) -0.0186(6)
H24 H 0.6588 0.6469 -0.0431
C44 C 0.6654(8) 0.6772(5) 0.0239(5)
C45 C 0.7293(9) 0.6866(6) 0.0513(5)
H25 H 0.7156 0.7091 0.0756
C46 C 0.8111(9) 0.6675(5) 0.0478(5)
H26 H 0.8493 0.6738 0.0701
C47 C 0.5780(9) 0.6986(6) 0.0277(5)
C48 C 1.0750(8) 0.5422(5) 0.0777(4)
C49 C 1.0630(9) 0.5639(5) 0.1227(5)
H27 H 1.0293 0.5931 0.1264
C50 C 1.1011(8) 0.5420(6) 0.1621(4)
H28 H 1.0904 0.5558 0.1923
C51 C 1.1521(8) 0.5019(4) 0.1570(4)
C52 C 1.1657(9) 0.4785(6) 0.1144(5)
H29 H 1.2002 0.4494 0.1121
C53 C 1.1270(11) 0.4989(6) 0.0734(5)
H30 H 1.1362 0.4834 0.0439
C54 C 1.2020(9) 0.4787(6) 0.1967(4)
O1 O 1.3320(4) 0.4377(3) 0.3922(3)
O2 O 1.4596(4) 0.4771(3) 0.3414(2)
O3 O 1.4807(4) 0.4079(3) 0.4061(2)
O4 O 1.4157(5) 0.3895(3) 0.3280(3)
O5 O 1.0966(4) 0.3768(4) 0.3722(3)
O6 O 1.6383(5) 0.4513(3) 0.3533(2)
O7 O 1.3916(4) 0.4614(3) 0.4862(3)
O8 O 1.4603(5) 0.3010(3) 0.3889(3)
O9 O 1.2006(6) 0.3133(3) 0.2904(3)
O10 O 1.3550(4) 0.5469(3) 0.4069(2)
O11 O 1.5828(4) 0.3389(3) 0.3406(2)
O12 O 1.3493(4) 0.3610(3) 0.4715(2)
O13 O 1.2916(4) 0.5284(3) 0.3317(3)
O14 O 1.5566(5) 0.4284(3) 0.2624(2)
O15 O 1.2703(5) 0.3385(3) 0.3789(3)
O16 O 1.5573(4) 0.4282(3) 0.4904(3)
O17 O 1.2400(6) 0.4174(3) 0.3082(3)
O18 O 1.6448(5) 0.3746(3) 0.4179(3)
O19 O 1.5975(5) 0.5210(3) 0.2842(3)
O20 O 1.5427(4) 0.5069(3) 0.4255(2)
O21 O 1.3369(5) 0.3692(3) 0.2425(3)
O22 O 1.4285(6) 0.3802(3) 0.5554(3)
O23 O 1.2400(4) 0.4926(3) 0.4627(3)
O24 O 1.1906(4) 0.3937(3) 0.4498(3)
O25 O 1.5028(5) 0.5738(3) 0.3569(3)
O26 O 1.4313(6) 0.5538(3) 0.2751(3)
O27 O 1.3889(5) 0.4642(3) 0.2486(3)
O28 O 1.5088(4) 0.3308(3) 0.4723(3)
O29 O 1.4809(6) 0.4016(3) 0.1777(3)
O30 O 1.5322(5) 0.2441(3) 0.3090(3)
O31 O 1.1708(5) 0.4722(3) 0.3795(3)
O32 O 1.2425(5) 0.4164(3) 0.5410(3)
O33 O 1.6262(6) 0.2700(3) 0.4201(3)
O34 O 1.5096(5) 0.3359(3) 0.2571(3)
O35 O 1.3722(5) 0.2934(3) 0.3127(3)
O36 O 1.3594(6) 0.6291(3) 0.3314(3)
O37 O 1.6762(5) 0.5557(3) 0.3647(3)
O38 O 1.1731(5) 0.5702(3) 0.4077(3)
O39 O 1.5329(6) 0.5129(3) 0.1946(3)
O40 O 1.7089(5) 0.4664(3) 0.4435(3)
O41 O 1.2891(6) 1.2478(3) 0.4440(3)
O42 O 1.1806(7) 1.2961(4) 0.4767(5)
O43 O 1.2632(6) 0.5333(4) -0.2512(3)
O44 O 1.2663(5) 0.6173(4) -0.2596(3)
O45 O 1.2025(6) 0.5082(3) 0.2337(3)
O46 O 1.2389(6) 0.4368(3) 0.1957(3)
O47 O 0.6685(4) 0.8994(3) 0.0932(3)
O48 O 0.5920(4) 0.8712(3) 0.1730(2)
O49 O 0.5917(4) 0.9647(3) 0.1477(3)
O50 O 0.5083(4) 0.9067(3) 0.1050(2)
O51 O 0.4152(5) 0.7602(3) 0.2314(3)
O52 O 0.4969(5) 1.0141(3) 0.0732(2)
O53 O 0.5053(5) 0.9397(3) 0.2448(3)
O54 O 0.4133(4) 0.9456(3) 0.0284(3)
O55 O 0.5861(4) 0.9391(3) 0.0080(3)
O56 O 0.6993(4) 1.0078(3) 0.0647(2)
O57 O 0.5058(5) 0.8396(3) 0.2601(3)
O58 O 0.4010(5) 0.8628(3) 0.1908(3)
O59 O 0.6863(5) 0.9335(3) 0.2319(3)
O60 O 0.6784(5) 0.7930(3) 0.1162(3)
O61 O 0.6847(5) 1.0276(3) 0.1969(2)
O62 O 0.5071(5) 1.0347(3) 0.2113(2)
O63 O 0.4756(5) 0.8007(3) 0.1370(3)
O64 O 0.3319(4) 0.9135(3) 0.1174(2)
O65 O 0.4129(5) 0.8440(3) 0.0579(2)
O66 O 0.7550(5) 0.8308(3) 0.0304(3)
O67 O 0.8456(4) 0.8960(3) 0.0819(3)
O68 O 0.5799(4) 0.8353(2) 0.0348(2)
O69 O 0.4174(5) 1.0868(3) 0.1381(3)
O70 O 0.4075(4) 0.9807(3) 0.1613(2)
O71 O 0.7532(4) 0.9334(3) 0.0071(2)
O72 O 0.7780(5) 0.8564(3) 0.1665(2)
O73 O 0.4753(5) 0.8722(3) -0.0373(3)
O74 O 0.5874(5) 0.7726(3) 0.2013(3)
O75 O 0.2940(5) 0.8102(3) 0.1324(3)
O76 O 0.3125(5) 1.0139(3) 0.0824(3)
O77 O 0.7725(5) 1.0831(4) 0.1198(3)
O78 O 0.8800(5) 0.9897(3) 0.0373(3)
O79 O 0.5970(5) 1.0657(3) 0.1244(2)
O80 O 0.6810(5) 0.8667(3) -0.0543(3)
O81 O 0.8615(6) 0.7906(3) 0.0989(3)
O82 O 0.7813(4) 0.9747(3) 0.1299(2)
O83 O 0.6033(6) 1.0122(3) 0.2908(3)
O84 O 0.5967(6) 0.8925(3) 0.3224(3)
O85 O 0.7633(6) 0.7512(3) 0.1977(3)
O86 O 0.6803(6) 0.8344(3) 0.2526(3)
O87 O 0.6880(6) 1.0515(3) 0.7358(3)
O88 O 0.6218(5) 0.9827(3) 0.7206(3)
O89 O 0.5520(5) 0.7195(3) 0.0675(3)
O90 O 0.5166(12) 0.6742(8) 0.0106(8)
O91 O 0.8241(7) 0.8702(4) 0.2754(3)
O92 O 0.8721(5) 0.9380(3) 0.2303(3)
Mo10A Mo 1.55686(6) 0.60609(3) 0.50459(3)
Mo12A Mo 1.38206(6) 0.55191(3) 0.57466(3)
Mo19A Mo 0.60515(6) 1.02458(4) -0.09307(3)
Zn1_2 Zn 1.34801(8) 1.30708(5) 0.42447(5)
Zn3A Zn 1.36208(9) 0.60240(5) -0.30764(5)
Zn4A Zn 1.57318(7) 0.47173(4) 0.54270(4)
Zn5A Zn 0.39855(7) 0.99141(5) -0.02685(4)
Zn6A Zn 0.60130(8) 1.07086(5) 0.78461(4)
O16A O 1.4427(4) 0.5718(3) 0.5096(3)
O41_2 O 1.2891(6) 0.2478(3) 0.4440(3)
O44A O 1.7337(5) 0.3827(4) 0.2596(3)
O54A O 0.5867(4) 1.0544(3) -0.0284(3)
O87A O 0.3120(6) 0.9485(3) 0.2642(3)
loop_
_geom_bond_atom_site_label_1
_geom_bond_atom_site_label_2
_geom_bond_site_symmetry_1
_geom_bond_site_symmetry_2
Mo1 Mo2 1_555 1_555
Mo2 O1 1_555 1_555
Mo3 Mo7 1_555 1_555
Mo4 Mo5 1_555 1_555
Mo5 O4 1_555 1_555
Mo6 Mo10 1_555 1_555
Mo7 O4 1_555 1_555
Mo8 Mo9 1_555 1_555
Mo9 O1 1_555 1_555
Mo10 O3 1_555 1_555
Mo11 Mo12 1_555 1_555
Mo12 O3 1_555 1_555
Mo13 Mo14 1_555 1_555
Mo14 O48 1_555 1_555
Mo15 Mo24 1_555 1_555
Mo16 Mo21 1_555 1_555
Mo17 Mo20 1_555 1_555
Mo18 Mo23 1_555 1_555
Mo19 Mo22 1_555 1_555
Mo20 O53 1_555 1_555
Mo21 O49 1_555 1_555
Mo22 O49 1_555 1_555
Mo23 O50 1_555 1_555
Mo24 O50 1_555 1_555
Zn1 O8 1_555 1_555
Zn2 O13 1_555 1_555
Zn3 O6 1_555 1_555
Zn4 O7 1_555 1_555
Zn5 O52 1_555 1_555
Zn6 O53 1_555 1_555
Zn7 O60 1_555 1_555
Zn8 O59 1_555 1_555
P1 O1 1_555 1_555
P2 O47 1_555 1_555
C1 C2 1_555 1_555
C2 H1 1_555 1_555
C3 C2 1_555 1_555
C4 C3 1_555 1_555
H2 C4 1_555 1_555
C5 C4 1_555 1_555
C6 C1 1_555 1_555
H3 C6 1_555 1_555
C7 C1 1_555 1_555
C8 C7 1_555 1_555
H4 C8 1_555 1_555
C9 C8 1_555 1_555
H5 C9 1_555 1_555
C10 C9 1_555 1_555
C11 C10 1_555 1_555
H6 C11 1_555 1_555
C12 C7 1_555 1_555
H7 C12 1_555 1_555
C13 C10 1_555 1_555
C14 C3 1_555 1_555
C15 C14 1_555 1_555
H8 C15 1_555 1_555
C16 C15 1_555 1_555
H9 C16 1_555 1_555
C17 C16 1_555 1_555
C18 C17 1_555 1_555
H10 C18 1_555 1_555
C19 C14 1_555 1_555
H11 C19 1_555 1_555
C20 C17 1_555 1_555
C21 C5 1_555 1_555
C22 C21 1_555 1_555
H12 C22 1_555 1_555
C23 C22 1_555 1_555
H13 C23 1_555 1_555
C24 C23 1_555 1_555
C25 C24 1_555 1_555
H14 C25 1_555 1_555
C26 C21 1_555 1_555
H15 C26 1_555 1_555
C27 C24 1_555 1_555
C28 C29 1_555 1_555
C29 H16 1_555 1_555
C30 C29 1_555 1_555
C31 C30 1_555 1_555
H17 C31 1_555 1_555
C32 C31 1_555 1_555
C33 C28 1_555 1_555
H18 C33 1_555 1_555
C34 C28 1_555 1_555
C35 C34 1_555 1_555
H19 C35 1_555 1_555
C36 C35 1_555 1_555
H20 C36 1_555 1_555
C37 C36 1_555 1_555
C38 C37 1_555 1_555
H21 C38 1_555 1_555
C39 C34 1_555 1_555
H22 C39 1_555 1_555
C40 C37 1_555 1_555
C41 C30 1_555 1_555
C42 C41 1_555 1_555
H23 C42 1_555 1_555
C43 C42 1_555 1_555
H24 C43 1_555 1_555
C44 C43 1_555 1_555
C45 C44 1_555 1_555
H25 C45 1_555 1_555
C46 C41 1_555 1_555
H26 C46 1_555 1_555
C47 C44 1_555 1_555
C48 C32 1_555 1_555
C49 C48 1_555 1_555
H27 C49 1_555 1_555
C50 C49 1_555 1_555
H28 C50 1_555 1_555
C51 C50 1_555 1_555
C52 C51 1_555 1_555
H29 C52 1_555 1_555
C53 C48 1_555 1_555
H30 C53 1_555 1_555
C54 C51 1_555 1_555
O1 Mo6 1_555 1_555
O2 Mo4 1_555 1_555
O3 Mo3 1_555 1_555
O4 Mo1 1_555 1_555
O5 Mo2 1_555 1_555
O6 Mo11 1_555 1_555
O7 Mo6 1_555 1_555
O8 Mo3 1_555 1_555
O9 Mo1 1_555 1_555
O10 Mo8 1_555 1_555
O11 Mo3 1_555 1_555
O12 Mo6 1_555 1_555
O13 Mo8 1_555 1_555
O14 Mo4 1_555 1_555
O15 Mo1 1_555 1_555
O16 Mo10 1_555 1_555
O17 Mo1 1_555 1_555
O18 Mo3 1_555 1_555
O19 Mo4 1_555 1_555
O20 Mo11 1_555 1_555
O21 Mo1 1_555 1_555
O22 Mo10 1_555 1_555
O23 Mo6 1_555 1_555
O24 Mo2 1_555 1_555
O25 Mo8 1_555 1_555
O26 Mo4 1_555 1_555
O27 Mo4 1_555 1_555
O28 Mo3 1_555 1_555
O29 Mo5 1_555 1_555
O30 Mo7 1_555 1_555
O31 Mo2 1_555 1_555
O32 Mo6 1_555 1_555
O33 Mo3 1_555 1_555
O34 Mo5 1_555 1_555
O35 Mo1 1_555 1_555
O36 Mo8 1_555 1_555
O37 Mo11 1_555 1_555
O38 Mo9 1_555 1_555
O39 Mo4 1_555 1_555
O40 Mo12 1_555 1_555
O41 C13 1_555 1_555
O42 C13 1_555 1_555
O43 C40 1_555 1_555
O44 C40 1_555 1_555
O45 Zn2 1_555 1_555
O46 C54 1_555 1_555
O47 Mo13 1_555 1_555
O48 Mo15 1_555 1_555
O49 P2 1_555 1_555
O50 Mo19 1_555 1_555
O51 Mo15 1_555 1_555
O52 Mo19 1_555 1_555
O53 Mo17 1_555 1_555
O54 Mo19 1_555 1_555
O55 Mo18 1_555 1_555
O56 Mo16 1_555 1_555
O57 Mo15 1_555 1_555
O58 Mo15 1_555 1_555
O59 Mo17 1_555 1_555
O60 Mo13 1_555 1_555
O61 Mo20 1_555 1_555
O62 Mo20 1_555 1_555
O63 Mo15 1_555 1_555
O64 Mo19 1_555 1_555
O65 Mo23 1_555 1_555
O66 Mo13 1_555 1_555
O67 Mo13 1_555 1_555
O68 Mo18 1_555 1_555
O69 Mo22 1_555 1_555
O70 Mo19 1_555 1_555
O71 Mo16 1_555 1_555
O72 Mo13 1_555 1_555
O73 Mo23 1_555 1_555
O74 Mo14 1_555 1_555
O75 Mo24 1_555 1_555
O76 Mo19 1_555 1_555
O77 Mo21 1_555 1_555
O78 Mo16 1_555 1_555
O79 Mo21 1_555 1_555
O80 Mo18 1_555 1_555
O81 Mo13 1_555 1_555
O82 Mo16 1_555 1_555
O83 Mo20 1_555 1_555
O84 Mo17 1_555 1_555
O85 Mo14 1_555 1_555
O86 Mo14 1_555 1_555
O87 C27 1_555 1_555
O88 C27 1_555 1_555
O89 Zn7 1_555 1_555
O90 C47 1_555 1_555
O91 C20 1_555 1_555
O92 Zn8 1_555 1_555
Mo10A Zn4 1_555 1_555
Mo12A Zn4 1_555 1_555
Mo19A Zn5 1_555 1_555
Zn1_2 O41 1_555 1_555
Zn3A O44 1_555 1_555
Zn4A Mo10 1_555 1_555
Zn5A Mo19 1_555 1_555
Zn6A O87 1_555 1_555
O16A Zn4 1_555 1_555
O41_2 Zn1 1_555 1_555
O44A Zn3 1_555 1_555
O54A Zn5 1_555 1_555
O87A Zn6 1_555 1_555
Mo2 O15 1_555 1_555
Mo2 O17 1_555 1_555
Mo5 O14 1_555 1_555
Mo5 O21 1_555 1_555
Mo5 O27 1_555 1_555
Mo6 O24 1_555 1_555
Mo7 O8 1_555 1_555
Mo7 O11 1_555 1_555
Mo7 O34 1_555 1_555
Mo7 O35 1_555 1_555
Mo8 O2 1_555 1_555
Mo8 O26 1_555 1_555
Mo9 O10 1_555 1_555
Mo9 O13 1_555 1_555
Mo9 O23 1_555 1_555
Mo9 O31 1_555 1_555
Mo10 O7 1_555 1_555
Mo10 O12 1_555 1_555
Mo10 O28 1_555 1_555
Mo11 O2 1_555 1_555
Mo11 O19 1_555 1_555
Mo11 O25 1_555 1_555
Mo12 O6 1_555 1_555
Mo12 O16 1_555 1_555
Mo12 O18 1_555 1_555
Mo12 O20 1_555 1_555
Mo12 Zn4A 1_555 1_555
Mo14 O60 1_555 1_555
Mo14 O72 1_555 1_555
Mo15 O74 1_555 1_555
Mo16 O47 1_555 1_555
Mo16 O67 1_555 1_555
Mo17 O48 1_555 1_555
Mo17 O57 1_555 1_555
Mo17 O86 1_555 1_555
Mo18 O47 1_555 1_555
Mo18 O66 1_555 1_555
Mo18 O71 1_555 1_555
Mo20 O59 1_555 1_555
Mo21 O56 1_555 1_555
Mo21 O61 1_555 1_555
Mo21 O82 1_555 1_555
Mo22 O52 1_555 1_555
Mo22 O62 1_555 1_555
Mo22 O70 1_555 1_555
Mo22 O79 1_555 1_555
Mo23 O54 1_555 1_555
Mo23 O55 1_555 1_555
Mo23 O68 1_555 1_555
Mo24 O58 1_555 1_555
Mo24 O63 1_555 1_555
Mo24 O64 1_555 1_555
Mo24 O65 1_555 1_555
Zn1 O12 1_555 1_555
Zn1 O15 1_555 1_555
Zn2 O17 1_555 1_555
Zn2 O27 1_555 1_555
Zn3 O11 1_555 1_555
Zn3 O14 1_555 1_555
Zn4 O10 1_555 1_555
Zn4 O20 1_555 1_555
Zn5 O55 1_555 1_555
Zn5 O56 1_555 1_555
Zn6 O58 1_555 1_555
Zn6 O70 1_555 1_555
Zn7 O63 1_555 1_555
Zn7 O68 1_555 1_555
Zn8 O72 1_555 1_555
Zn8 O82 1_555 1_555
P1 O2 1_555 1_555
P1 O3 1_555 1_555
P1 O4 1_555 1_555
P2 O48 1_555 1_555
P2 O50 1_555 1_555
C5 C6 1_555 1_555
C11 C12 1_555 1_555
C18 C19 1_555 1_555
C20 O92 1_555 1_555
C25 C26 1_555 1_555
C32 C33 1_555 1_555
C38 C39 1_555 1_555
C45 C46 1_555 1_555
C47 O89 1_555 1_555
C52 C53 1_555 1_555
C54 O45 1_555 1_555
O16 Zn4A 1_555 1_555
O54 Zn5A 1_555 1_555
Mo10A O16A 1_555 1_555
Mo12A O16A 1_555 1_555
Mo19A O54A 1_555 1_555

#END
