
#######################################################################
#
#                 Cambridge Crystallographic Data Centre
#                                CCDC 
#
#######################################################################
#
# If this CIF has been generated from an entry in the Cambridge 
# Structural Database, then it will include bibliographic, chemical, 
# crystal, experimental, refinement or atomic coordinate data resulting 
# from the CCDC's data processing and validation procedures.
#
#######################################################################

data_IYAZAL
_chemical_formula_moiety         '(C30 H22 Cd3 O16)n'
_symmetry_cell_setting           monoclinic
_symmetry_space_group_name_H-M   'P 21/c'
_symmetry_Int_Tables_number      14
_space_group_name_Hall           '-P 2ybc'
loop_
_symmetry_equiv_pos_site_id
_symmetry_equiv_pos_as_xyz
1 x,y,z
2 -x,1/2+y,1/2-z
3 -x,-y,-z
4 x,1/2-y,1/2+z
_cell_length_a                   14.0147(4)
_cell_length_b                   18.3152(5)
_cell_length_c                   7.8630(3)
_cell_angle_alpha                90
_cell_angle_beta                 105.464(4)
_cell_angle_gamma                90
_cell_volume                     1945.23
loop_
_atom_site_label
_atom_site_type_symbol
_atom_site_fract_x
_atom_site_fract_y
_atom_site_fract_z
Cd1 Cd 0.81811(3) 0.44108(2) 0.22793(6)
Cd2 Cd 1.0000 0.5000 0.0000
C1 C 0.8632(4) 0.6875(3) 0.2223(7)
C2 C 0.9327(4) 0.7392(3) 0.2117(8)
H1 H 0.9926 0.7252 0.1921
C3 C 0.9123(4) 0.8131(3) 0.2306(8)
C4 C 0.8222(4) 0.8340(3) 0.2514(7)
H2 H 0.8084 0.8834 0.2584
C5 C 0.7504(4) 0.7821(3) 0.2621(7)
C6 C 0.7737(4) 0.7084(3) 0.2495(8)
H3 H 0.7282 0.6728 0.2595
C7 C 0.8853(4) 0.6071(3) 0.1964(8)
C8 C 0.9916(5) 0.8685(3) 0.2354(9)
C9 C 0.6509(4) 0.8052(3) 0.2785(7)
C10 C 0.6390(4) 0.8697(3) 0.3668(8)
H4 H 0.6944 0.8973 0.4211
C11 C 0.5473(5) 0.8926(3) 0.3748(8)
H5 H 0.5413 0.9357 0.4338
C12 C 0.4628(4) 0.8523(4) 0.2955(8)
C13 C 0.4764(5) 0.7866(4) 0.2115(10)
H6 H 0.4218 0.7573 0.1629
C14 C 0.5669(4) 0.7650(4) 0.1993(9)
H7 H 0.5726 0.7228 0.1372
C15 C 0.3626(5) 0.8791(4) 0.2984(10)
O1 O 0.8268(4) 0.5619(2) 0.2290(8)
O2 O 0.8602(6) 0.4558(4) 0.5266(8)
H8 H 0.9160 0.4803 0.5795
H9 H 0.8219 0.4374 0.5915
O3 O 0.8230(2) 0.44794(19) -0.0924(4)
H10 H 0.7783 0.4792 -0.1574
H11 H 0.8188 0.4041 -0.1455
O4 O 0.9584(3) 0.5938(2) 0.1411(7)
O5 O 1.0772(3) 0.8449(3) 0.2372(9)
O6 O 0.9738(3) 0.9352(2) 0.2432(6)
O7 O 0.3522(4) 0.9399(3) 0.3532(8)
O8 O 0.2904(4) 0.8416(4) 0.2352(13)
Cd1B Cd 1.18189(3) 0.55892(2) -0.22793(6)
C1B C 1.1368(4) 0.3125(3) -0.2223(7)
C2B C 1.0673(4) 0.2608(3) -0.2117(8)
H1B H 1.0074 0.2748 -0.1921
C3B C 1.0877(4) 0.1869(3) -0.2306(8)
C4B C 1.1778(4) 0.1660(3) -0.2514(7)
H2B H 1.1916 0.1166 -0.2584
C5B C 1.2496(4) 0.2179(3) -0.2621(7)
C6B C 1.2263(4) 0.2916(3) -0.2495(8)
H3B H 1.2718 0.3272 -0.2595
C7B C 1.1147(4) 0.3929(3) -0.1964(8)
C8B C 1.0084(5) 0.1315(3) -0.2354(9)
C9B C 1.3491(4) 0.1948(3) -0.2785(7)
C10B C 1.3610(4) 0.1303(3) -0.3668(8)
H4B H 1.3056 0.1027 -0.4211
C11B C 1.4527(5) 0.1074(3) -0.3748(8)
H5B H 1.4587 0.0643 -0.4338
C12B C 1.5372(4) 0.1477(4) -0.2955(8)
C13B C 1.5236(5) 0.2134(4) -0.2115(10)
H6B H 1.5782 0.2427 -0.1629
C14B C 1.4331(4) 0.2350(4) -0.1993(9)
H7B H 1.4274 0.2772 -0.1372
C15B C 1.6374(5) 0.1209(4) -0.2984(10)
O1B O 1.1732(4) 0.4381(2) -0.2290(8)
O2B O 1.1398(6) 0.5442(4) -0.5266(8)
H8B H 1.0840 0.5197 -0.5795
H9B H 1.1781 0.5626 -0.5915
O3B O 1.1770(2) 0.55206(19) 0.0924(4)
H10B H 1.2217 0.5208 0.1574
H11B H 1.1812 0.5959 0.1455
O4B O 1.0416(3) 0.4062(2) -0.1411(7)
O5B O 0.9228(3) 0.1551(3) -0.2372(9)
O6B O 1.0262(3) 0.0648(2) -0.2432(6)
O7B O 1.6478(4) 0.0601(3) -0.3532(8)
O8B O 1.7096(4) 0.1584(4) -0.2352(13)
Cd1A Cd 0.18189(3) 0.94108(2) 0.27207(6)
Cd1A_2 Cd 1.18189(3) 0.94108(2) 0.27207(6)
Cd1C Cd 0.81811(3) 0.05892(2) -0.27207(6)
Cd1C_2 Cd 1.81811(3) 0.05892(2) -0.27207(6)
Cd2A Cd 1.0000 -0.0000 -0.5000
Cd2A_2 Cd 1.0000 1.0000 0.5000
O5A O 0.9228(3) 0.3449(3) 0.2628(9)
O5C O 1.0772(3) 0.6551(3) -0.2628(9)
O6A O 1.0262(3) 0.4352(2) 0.2568(6)
O6C O 0.9738(3) 0.5648(2) -0.2568(6)
O7A O 0.6478(4) 0.4399(3) 0.1468(8)
O7C O 1.3522(4) 0.5601(3) -0.1468(8)
O8A O 0.7096(4) 0.3416(4) 0.2648(13)
O8C O 1.2904(4) 0.6584(4) -0.2648(13)
loop_
_geom_bond_atom_site_label_1
_geom_bond_atom_site_label_2
_geom_bond_site_symmetry_1
_geom_bond_site_symmetry_2
Cd1 O1 1_555 1_555
Cd2 O3 1_555 1_555
C1 C2 1_555 1_555
C2 H1 1_555 1_555
C3 C2 1_555 1_555
C4 C3 1_555 1_555
H2 C4 1_555 1_555
C5 C4 1_555 1_555
C6 C1 1_555 1_555
H3 C6 1_555 1_555
C7 C1 1_555 1_555
C8 C3 1_555 1_555
C9 C5 1_555 1_555
C10 C9 1_555 1_555
H4 C10 1_555 1_555
C11 C10 1_555 1_555
H5 C11 1_555 1_555
C12 C11 1_555 1_555
C13 C12 1_555 1_555
H6 C13 1_555 1_555
C14 C9 1_555 1_555
H7 C14 1_555 1_555
C15 C12 1_555 1_555
O1 C7 1_555 1_555
O2 Cd1 1_555 1_555
H8 O2 1_555 1_555
H9 O2 1_555 1_555
O3 Cd1 1_555 1_555
H10 O3 1_555 1_555
H11 O3 1_555 1_555
O4 Cd2 1_555 1_555
O5 C8 1_555 1_555
O6 C8 1_555 1_555
O7 C15 1_555 1_555
O8 C15 1_555 1_555
Cd1B O1B 1_555 1_555
C1B C2B 1_555 1_555
C2B H1B 1_555 1_555
C3B C2B 1_555 1_555
C4B C3B 1_555 1_555
H2B C4B 1_555 1_555
C5B C4B 1_555 1_555
C6B C1B 1_555 1_555
H3B C6B 1_555 1_555
C7B C1B 1_555 1_555
C8B C3B 1_555 1_555
C9B C5B 1_555 1_555
C10B C9B 1_555 1_555
H4B C10B 1_555 1_555
C11B C10B 1_555 1_555
H5B C11B 1_555 1_555
C12B C11B 1_555 1_555
C13B C12B 1_555 1_555
H6B C13B 1_555 1_555
C14B C9B 1_555 1_555
H7B C14B 1_555 1_555
C15B C12B 1_555 1_555
O1B C7B 1_555 1_555
O2B Cd1B 1_555 1_555
H8B O2B 1_555 1_555
H9B O2B 1_555 1_555
O3B Cd2 1_555 1_555
H10B O3B 1_555 1_555
H11B O3B 1_555 1_555
O4B Cd2 1_555 1_555
O5B C8B 1_555 1_555
O6B C8B 1_555 1_555
O7B C15B 1_555 1_555
O8B C15B 1_555 1_555
Cd1A O7 1_555 1_555
Cd1A_2 O5 1_555 1_555
Cd1C O5B 1_555 1_555
Cd1C_2 O7B 1_555 1_555
Cd2A O6B 1_555 1_555
Cd2A_2 O6 1_555 1_555
O5A Cd1 1_555 1_555
O5C Cd1B 1_555 1_555
O6A Cd2 1_555 1_555
O6C Cd2 1_555 1_555
O7A Cd1 1_555 1_555
O7C Cd1B 1_555 1_555
O8A Cd1 1_555 1_555
O8C Cd1B 1_555 1_555
C5 C6 1_555 1_555
C7 O4 1_555 1_555
C13 C14 1_555 1_555
O8 Cd1A 1_555 1_555
Cd1B O3B 1_555 1_555
C5B C6B 1_555 1_555
C7B O4B 1_555 1_555
C13B C14B 1_555 1_555
O8B Cd1C_2 1_555 1_555

#END
