
#######################################################################
#
#                 Cambridge Crystallographic Data Centre
#                                CCDC 
#
#######################################################################
#
# If this CIF has been generated from an entry in the Cambridge 
# Structural Database, then it will include bibliographic, chemical, 
# crystal, experimental, refinement or atomic coordinate data resulting 
# from the CCDC's data processing and validation procedures.
#
#######################################################################

data_ERAQAR
_chemical_formula_moiety         'C18 H16 In9 O23'
_symmetry_cell_setting           tetragonal
_symmetry_space_group_name_H-M   'I 41 2 2'
_symmetry_Int_Tables_number      98
_space_group_name_Hall           'I 4bw 2bw'
loop_
_symmetry_equiv_pos_site_id
_symmetry_equiv_pos_as_xyz
1 x,y,z
2 1/2-x,1/2-y,1/2+z
3 -y,1/2+x,1/4+z
4 1/2+y,-x,3/4+z
5 1/2-x,y,3/4-z
6 x,1/2-y,1/4-z
7 1/2+y,1/2+x,1/2-z
8 -y,-x,-z
9 1/2+x,1/2+y,1/2+z
10 -x,-y,z
11 1/2-y,x,3/4+z
12 y,1/2-x,1/4+z
13 -x,1/2+y,1/4-z
14 1/2+x,-y,3/4-z
15 y,x,-z
16 1/2-y,1/2-x,1/2-z
_cell_length_a                   15.483(2)
_cell_length_b                   15.483(2)
_cell_length_c                   12.308(3)
_cell_angle_alpha                90
_cell_angle_beta                 90
_cell_angle_gamma                90
_cell_volume                     2950.51
loop_
_atom_site_label
_atom_site_type_symbol
_atom_site_fract_x
_atom_site_fract_y
_atom_site_fract_z
O4 O 0.2478(7) 0.9216(9) 0.4568(13)
H4 H 0.1978 0.9057 0.4399
C6 C 0.2534(17) 1.0141(10) 0.4500(16)
H5 H 0.2028 1.0361 0.4093
H6 H 0.3059 1.0299 0.4086
C7 C 0.257(2) 1.0583(16) 0.562(2)
H7 H 0.2603 1.1210 0.5524
H8 H 0.2040 1.0441 0.6028
H9 H 0.3072 1.0379 0.6022
In1 In 0.31142(2) 0.68858(2) 0.5000
O1 O 0.3829(2) 0.6137(2) 0.3851(2)
O2 O 0.29072(17) 0.59251(18) 0.2458(2)
O3 O 0.2344(4) 0.7548(4) 0.3873(5)
H1 H 0.2221(19) 0.8069(8) 0.3967(16)
C1 C 0.5000 0.5000 0.0602(4)
C2 C 0.4319(3) 0.5372(2) 0.1188(3)
H2 H 0.3844 0.5614 0.0805
C3 C 0.4323(3) 0.5396(2) 0.2328(3)
C4 C 0.5000 0.5000 0.2886(4)
H3 H 0.5000 0.5000 0.3658
C5 C 0.3625(3) 0.5849(3) 0.2918(3)
O1G O 0.3863(2) 0.6171(2) -0.3851(2)
O2G O 0.40749(18) 0.70928(17) -0.2458(2)
C1G C 0.5000 0.5000 -0.0602(4)
C2G C 0.4628(2) 0.5681(3) -0.1188(3)
H2G H 0.4386 0.6156 -0.0805
C3G C 0.4604(2) 0.5677(3) -0.2328(3)
C4G C 0.5000 0.5000 -0.2886(4)
H3G H 0.5000 0.5000 -0.3658
C5G C 0.4151(3) 0.6375(3) -0.2918(3)
O1I O 0.6171(2) 0.3863(2) 0.3851(2)
O2I O 0.70928(17) 0.40749(18) 0.2458(2)
C2I C 0.5681(3) 0.4628(2) 0.1188(3)
H2I H 0.6156 0.4386 0.0805
C3I C 0.5677(3) 0.4604(2) 0.2328(3)
C5I C 0.6375(3) 0.4151(3) 0.2918(3)
O1N O 0.6137(2) 0.3829(2) -0.3851(2)
O2N O 0.59251(18) 0.29072(17) -0.2458(2)
C2N C 0.5372(2) 0.4319(3) -0.1188(3)
H2N H 0.5614 0.3844 -0.0805
C3N C 0.5396(2) 0.4323(3) -0.2328(3)
C5N C 0.5849(3) 0.3625(3) -0.2918(3)
O3D O 0.2656(4) 0.7548(4) 0.3627(5)
H1D H 0.2779(19) 0.8069(8) 0.3533(16)
In1I In 0.68858(2) 0.31142(2) 0.5000
O3G O 0.2452(4) 0.7656(4) 0.6127(5)
H1G H 0.1931(8) 0.7779(19) 0.6033(16)
O3B O 0.2452(4) 0.7344(4) 0.6373(5)
H1B H 0.1931(8) 0.7221(19) 0.6467(16)
In1_2 In 0.31142(2) 0.68858(2) -0.5000
In1B In 0.31142(2) 0.81142(2) -0.2500
In1B_2 In 0.31142(2) 0.81142(2) 0.7500
In1C In 0.18858(2) 0.68858(2) 0.2500
In1I_2 In 0.68858(2) 0.31142(2) -0.5000
In1J In 0.81142(2) 0.31142(2) 0.2500
In1K In 0.68858(2) 0.18858(2) -0.2500
O1G_2 O 0.3863(2) 0.6171(2) 0.6149(2)
O1N_2 O 0.6137(2) 0.3829(2) 0.6149(2)
O2B O 0.40749(18) 0.79072(17) 0.4958(2)
O2D O 0.20928(17) 0.59251(18) 0.5042(2)
O2K O 0.59251(18) 0.20928(17) 0.4958(2)
O2M O 0.79072(17) 0.40749(18) 0.5042(2)
O3I O 0.7656(4) 0.2452(4) 0.3873(5)
O3K O 0.7548(4) 0.2656(4) 0.6373(5)
O3M O 0.7344(4) 0.2452(4) 0.3627(5)
O3N O 0.7548(4) 0.2344(4) 0.6127(5)
loop_
_geom_bond_atom_site_label_1
_geom_bond_atom_site_label_2
_geom_bond_site_symmetry_1
_geom_bond_site_symmetry_2
In1 O1 1_555 1_555
O1 C5 1_555 1_555
O2 C5 1_555 1_555
O3 In1 1_555 1_555
H1 O3 1_555 1_555
C1 C2 1_555 1_555
C2 H2 1_555 1_555
C3 C2 1_555 1_555
C4 C3 1_555 1_555
H3 C4 1_555 1_555
C5 C3 1_555 1_555
O4 H4 1_555 1_555
C6 O4 1_555 1_555
H5 C6 1_555 1_555
H6 C6 1_555 1_555
C7 C6 1_555 1_555
H7 C7 1_555 1_555
H8 C7 1_555 1_555
H9 C7 1_555 1_555
O1G C5G 1_555 1_555
O2G C5G 1_555 1_555
C1G C1 1_555 1_555
C2G C1G 1_555 1_555
H2G C2G 1_555 1_555
C3G C2G 1_555 1_555
C4G C3G 1_555 1_555
H3G C4G 1_555 1_555
C5G C3G 1_555 1_555
O1I C5I 1_555 1_555
O2I C5I 1_555 1_555
C2I C1 1_555 1_555
H2I C2I 1_555 1_555
C3I C4 1_555 1_555
C5I C3I 1_555 1_555
O1N C5N 1_555 1_555
O2N C5N 1_555 1_555
C2N C1G 1_555 1_555
H2N C2N 1_555 1_555
C3N C4G 1_555 1_555
C5N C3N 1_555 1_555
O3D In1 1_555 1_555
H1D O3 1_555 1_555
In1I O1I 1_555 1_555
O3G In1 1_555 1_555
H1G O3G 1_555 1_555
O3B In1 1_555 1_555
H1B O3G 1_555 1_555
In1_2 O1G 1_555 1_555
In1B O2G 1_555 1_555
In1B_2 O3G 1_555 1_555
In1C O2 1_555 1_555
In1I_2 O1N 1_555 1_555
In1J O2I 1_555 1_555
In1K O2N 1_555 1_555
O1G_2 In1 1_555 1_555
O1N_2 In1I 1_555 1_555
O2B In1 1_555 1_555
O2D In1 1_555 1_555
O2K In1I 1_555 1_555
O2M In1I 1_555 1_555
O3I In1I 1_555 1_555
O3K In1I 1_555 1_555
O3M In1I 1_555 1_555
O3N In1I 1_555 1_555
O3 O3D 1_555 1_555
O3 In1C 1_555 1_555
H1 O3D 1_555 1_555
C2I C3I 1_555 1_555
C2N C3N 1_555 1_555
O3D H1D 1_555 1_555
O3D In1C 1_555 1_555
O3G O3B 1_555 1_555
H1G O3B 1_555 1_555
O3B H1B 1_555 1_555
O3B In1B_2 1_555 1_555
In1J O3I 1_555 1_555
In1J O3M 1_555 1_555
O3I O3M 1_555 1_555
O3K O3N 1_555 1_555

#END
