
#######################################################################
#
#                 Cambridge Crystallographic Data Centre
#                                CCDC 
#
#######################################################################
#
# If this CIF has been generated from an entry in the Cambridge 
# Structural Database, then it will include bibliographic, chemical, 
# crystal, experimental, refinement or atomic coordinate data resulting 
# from the CCDC's data processing and validation procedures.
#
#######################################################################

data_XEZPUP
_chemical_formula_moiety         '(C29 H26 Mn1 N2 O5)n'
_symmetry_cell_setting           monoclinic
_symmetry_space_group_name_H-M   'P 21/c'
_symmetry_Int_Tables_number      14
_space_group_name_Hall           '-P 2ybc'
loop_
_symmetry_equiv_pos_site_id
_symmetry_equiv_pos_as_xyz
1 x,y,z
2 -x,1/2+y,1/2-z
3 -x,-y,-z
4 x,1/2-y,1/2+z
_cell_length_a                   9.987(2)
_cell_length_b                   22.771(5)
_cell_length_c                   11.664(3)
_cell_angle_alpha                90
_cell_angle_beta                 100.588(3)
_cell_angle_gamma                90
_cell_volume                     2607.39
loop_
_atom_site_label
_atom_site_type_symbol
_atom_site_fract_x
_atom_site_fract_y
_atom_site_fract_z
Mn1 Mn 1.41556(6) 0.05013(3) 1.11644(5)
N1 N 0.5783(4) 0.03575(17) 0.2817(3)
N2 N 1.2651(4) 0.05629(18) 0.9442(3)
O1 O 1.3669(4) 0.13543(15) 1.1989(3)
O2 O 1.2262(3) 0.06317(16) 1.2009(3)
O3 O 0.5651(3) 0.40763(14) 1.5417(3)
O4 O 0.6073(3) 0.45920(13) 1.3900(3)
C1 C 1.1573(5) 0.0206(2) 0.9261(4)
H1 H 1.1455 -0.0046 0.9861
C2 C 1.0633(5) 0.0188(2) 0.8251(4)
H2 H 0.9894 -0.0067 0.8180
C3 C 1.0790(4) 0.0551(2) 0.7339(4)
C4 C 1.1896(5) 0.0926(2) 0.7511(4)
H3 H 1.2033 0.1185 0.6927
C5 C 1.2791(5) 0.0912(2) 0.8557(4)
H4 H 1.3540 0.1162 0.8652
C6 C 0.9807(5) 0.0570(2) 0.6222(4)
H5 H 0.9997 0.0828 0.5655
C7 C 0.8684(5) 0.0254(2) 0.5958(4)
H6 H 0.8496 -0.0013 0.6512
C8 C 0.7717(5) 0.0294(2) 0.4858(4)
C9 C 0.6669(5) -0.0104(2) 0.4604(4)
H7 H 0.6589 -0.0405 0.5125
C10 C 0.5728(5) -0.0056(2) 0.3571(4)
H8 H 0.5032 -0.0332 0.3414
C11 C 0.6795(5) 0.0734(2) 0.3033(5)
H9 H 0.6854 0.1027 0.2489
C12 C 0.7768(5) 0.0713(3) 0.4029(5)
H10 H 0.8471 0.0986 0.4141
C13 C 1.2569(5) 0.1149(2) 1.2213(4)
C14 C 1.1625(5) 0.1552(2) 1.2694(5)
C15 C 1.0259(5) 0.1496(2) 1.2378(5)
H11 H 0.9891 0.1189 1.1897
C16 C 0.9412(6) 0.1898(2) 1.2773(6)
H12 H 0.8475 0.1857 1.2537
C17 C 0.9896(5) 0.2355(2) 1.3499(5)
C18 C 1.2135(6) 0.1993(3) 1.3456(6)
H13 H 1.3071 0.2024 1.3707
C19 C 1.1276(6) 0.2396(3) 1.3861(6)
C20 C 0.8952(5) 0.2805(2) 1.3820(5)
C21 C 0.8122(6) 0.2707(2) 1.4635(5)
C22 C 0.8272(18) 0.2170(5) 1.5310(13)
H14 H 0.8905 0.1915 1.5028
H15 H 0.7404 0.1979 1.5234
H16 H 0.8606 0.2261 1.6115
C23 C 0.7255(6) 0.3155(2) 1.4868(5)
H17 H 0.6715 0.3093 1.5428
C24 C 0.7175(4) 0.3678(2) 1.4305(4)
C25 C 0.6227(4) 0.4150(2) 1.4558(4)
C26 C 0.7982(5) 0.3766(2) 1.3498(5)
H18 H 0.7941 0.4121 1.3098
C27 C 0.8852(6) 0.3334(3) 1.3273(6)
H19 H 0.9397 0.3406 1.2722
Mn1_2 Mn 0.41556(6) 0.05013(3) 0.11644(5)
Mn1A Mn 0.58444(6) 0.55013(3) 1.38356(5)
Mn1C Mn 0.41556(6) 0.44987(3) 1.61644(5)
N1_2 N 1.5783(4) 0.03575(17) 1.2817(3)
O3C O 1.5651(3) 0.09237(14) 1.0417(3)
O4A O 1.3927(3) -0.04080(13) 1.1100(3)
O5 O 0.4548(15) 0.7304(9) 0.2908(19)
H20 H 0.5022 0.7009 0.2932
C28 C 0.4987(17) 0.8312(8) 0.382(2)
H21 H 0.4133 0.8483 0.3464
H22 H 0.5688 0.8606 0.3899
H23 H 0.4916 0.8166 0.4582
C29 C 0.536(4) 0.7787(8) 0.304(3)
loop_
_geom_bond_atom_site_label_1
_geom_bond_atom_site_label_2
_geom_bond_site_symmetry_1
_geom_bond_site_symmetry_2
Mn1 N2 1_555 1_555
N1 C10 1_555 1_555
N2 C1 1_555 1_555
O1 Mn1 1_555 1_555
O2 Mn1 1_555 1_555
O3 C25 1_555 1_555
O4 C25 1_555 1_555
C1 H1 1_555 1_555
C2 C1 1_555 1_555
H2 C2 1_555 1_555
C3 C2 1_555 1_555
C4 C3 1_555 1_555
H3 C4 1_555 1_555
C5 N2 1_555 1_555
H4 C5 1_555 1_555
C6 C3 1_555 1_555
H5 C6 1_555 1_555
C7 C6 1_555 1_555
H6 C7 1_555 1_555
C8 C7 1_555 1_555
C9 C8 1_555 1_555
H7 C9 1_555 1_555
C10 C9 1_555 1_555
H8 C10 1_555 1_555
C11 N1 1_555 1_555
H9 C11 1_555 1_555
C12 C8 1_555 1_555
H10 C12 1_555 1_555
C13 O1 1_555 1_555
C14 C13 1_555 1_555
C15 C14 1_555 1_555
H11 C15 1_555 1_555
C16 C15 1_555 1_555
H12 C16 1_555 1_555
C17 C16 1_555 1_555
C18 C14 1_555 1_555
H13 C18 1_555 1_555
C19 C17 1_555 1_555
C20 C17 1_555 1_555
C21 C20 1_555 1_555
C22 C21 1_555 1_555
H14 C22 1_555 1_555
H15 C22 1_555 1_555
H16 C22 1_555 1_555
C23 C21 1_555 1_555
H17 C23 1_555 1_555
C24 C23 1_555 1_555
C25 C24 1_555 1_555
C26 C24 1_555 1_555
H18 C26 1_555 1_555
C27 C20 1_555 1_555
H19 C27 1_555 1_555
O5 H20 1_555 1_555
C28 H21 1_555 1_555
H22 C28 1_555 1_555
H23 C28 1_555 1_555
C29 O5 1_555 1_555
Mn1_2 N1 1_555 1_555
Mn1A O4 1_555 1_555
Mn1C O3 1_555 1_555
N1_2 Mn1 1_555 1_555
O3C Mn1 1_555 1_555
O4A Mn1 1_555 1_555
O2 C13 1_555 1_555
C4 C5 1_555 1_555
C11 C12 1_555 1_555
C18 C19 1_555 1_555
C26 C27 1_555 1_555
C28 C29 1_555 1_555

#END
