
#######################################################################
#
#                 Cambridge Crystallographic Data Centre
#                                CCDC 
#
#######################################################################
#
# If this CIF has been generated from an entry in the Cambridge 
# Structural Database, then it will include bibliographic, chemical, 
# crystal, experimental, refinement or atomic coordinate data resulting 
# from the CCDC's data processing and validation procedures.
#
#######################################################################

data_LENGES
_chemical_formula_moiety         'C119 H39 Cd2 O41 P17'
_symmetry_cell_setting           trigonal
_symmetry_space_group_name_H-M   'P -3 c 1'
_symmetry_Int_Tables_number      165
_space_group_name_Hall           '-P 3 2"c'
loop_
_symmetry_equiv_pos_site_id
_symmetry_equiv_pos_as_xyz
1 x,y,z
2 -y,x-y,z
3 -x+y,-x,z
4 x-y,-y,1/2-z
5 -x,-x+y,1/2-z
6 y,x,1/2-z
7 -x,-y,-z
8 y,-x+y,-z
9 x-y,x,-z
10 -x+y,y,1/2+z
11 x,x-y,1/2+z
12 -y,-x,1/2+z
_cell_length_a                   17.3867(4)
_cell_length_b                   17.3867(4)
_cell_length_c                   11.3455(8)
_cell_angle_alpha                90
_cell_angle_beta                 90
_cell_angle_gamma                120
_cell_volume                     2970.22
loop_
_atom_site_label
_atom_site_type_symbol
_atom_site_fract_x
_atom_site_fract_y
_atom_site_fract_z
Cd1 Cd 0.6667 0.3333 0.33660(8)
O1 O 0.6667 0.3333 0.5352(8)
O2 O 0.5195(8) 0.3149(10) 0.3679(10)
O3 O 0.5424(10) 0.2444(11) 0.2297(14)
C1 C 0.4852(13) 0.2647(11) 0.2745(12)
C2 C 0.3992(5) 0.2361(8) 0.2361(8)
C3 C 0.3378(6) 0.2450(7) 0.3044(6)
H1 H 0.3537 0.2708 0.3788
C4 C 0.2526(5) 0.2154(6) 0.2616(7)
C5 C 0.2288(4) 0.1769(6) 0.1505(8)
C6 C 0.2903(6) 0.1680(7) 0.0822(7)
H2 H 0.2744 0.1422 0.0078
C7 C 0.3755(6) 0.1976(8) 0.1250(8)
H3 H 0.4166 0.1916 0.0792
O4 O 0.1404(6) 0.1462(6) 0.1158(8)
P1 P 0.0910(2) 0.0910(2) 0.0045(2)
Cd1C Cd 0.3334 0.6667 0.16340(8)
O1C O 0.3334 0.6667 -0.0352(8)
O2A O 0.6851(10) 0.2046(13) 0.3679(10)
O2B O 0.7954(13) 0.4805(8) 0.3679(10)
O2E O 0.3149(10) 0.5195(8) 0.1321(10)
O2C O 0.2046(13) 0.6851(10) 0.1321(10)
O2D O 0.4805(8) 0.7954(13) 0.1321(10)
O2H O 0.2046(13) 0.5195(8) -0.3679(10)
O2I O -0.2046(13) 0.3149(10) -0.1321(10)
O2G O 0.3149(10) -0.2046(13) -0.3679(10)
O2J O 0.5195(8) 0.2046(13) -0.1321(10)
O3A O 0.7556(11) 0.2980(15) 0.2297(14)
O3B O 0.7020(15) 0.4576(10) 0.2297(14)
O3E O 0.2444(11) 0.5424(10) 0.2703(14)
O3C O 0.2980(15) 0.7556(11) 0.2703(14)
O3D O 0.4576(10) 0.7020(15) 0.2703(14)
O3H O 0.2980(15) 0.5424(10) -0.2297(14)
O3I O -0.2980(15) 0.2444(11) -0.2703(14)
O3G O 0.2444(11) -0.2980(15) -0.2297(14)
O3J O 0.5424(10) 0.2980(15) -0.2703(14)
C1A C 0.7353(11) 0.2205(17) 0.2745(12)
C1B C 0.7795(17) 0.5148(13) 0.2745(12)
C1E C 0.2647(11) 0.4852(13) 0.2255(12)
C1H C 0.2205(17) 0.4852(13) -0.2745(12)
C1I C -0.2205(17) 0.2647(11) -0.2255(12)
C1G C 0.2647(11) -0.2205(17) -0.2745(12)
C1J C 0.4852(13) 0.2205(17) -0.2255(12)
C1C C 0.2205(17) 0.7353(11) 0.2255(12)
C1D C 0.5148(13) 0.7795(17) 0.2255(12)
C1A_2 C -0.2647(11) 0.2205(17) 0.2745(12)
C1D_2 C -0.4852(13) -0.2205(17) 0.2255(12)
C2E C 0.2361(8) 0.3992(5) 0.2639(8)
C2A C 0.7639(8) 0.1631(9) 0.2361(8)
C2B C 0.8369(9) 0.6008(5) 0.2361(8)
C2H C 0.1631(9) 0.3992(5) -0.2361(8)
C2I C -0.1631(9) 0.2361(8) -0.2639(8)
C2G C 0.2361(8) -0.1631(9) -0.2361(8)
C2J C 0.3992(5) 0.1631(9) -0.2639(8)
C2A_2 C -0.2361(8) 0.1631(9) 0.2361(8)
C2D C -0.3992(5) -0.1631(9) 0.2639(8)
C2B_2 C -0.1631(9) -0.3992(5) 0.2361(8)
C2C C 0.1631(9) -0.2361(8) 0.2639(8)
C2F C -0.3992(5) -0.2361(8) -0.2361(8)
C2K C -0.2361(8) -0.3992(5) -0.2639(8)
C3E C 0.2450(7) 0.3378(6) 0.1956(6)
C3A C 0.7550(7) 0.0928(9) 0.3044(6)
C3B C 0.9072(9) 0.6622(6) 0.3044(6)
C3H C 0.0928(9) 0.3378(6) -0.3044(6)
C3I C -0.0928(9) 0.2450(7) -0.1956(6)
C3G C 0.2450(7) -0.0928(9) -0.3044(6)
C3J C 0.3378(6) 0.0928(9) -0.1956(6)
C3A_2 C -0.2450(7) 0.0928(9) 0.3044(6)
C3D C -0.3378(6) -0.0928(9) 0.1956(6)
C3B_2 C -0.0928(9) -0.3378(6) 0.3044(6)
C3C C 0.0928(9) -0.2450(7) 0.1956(6)
C3F C -0.3378(6) -0.2450(7) -0.3044(6)
C3K C -0.2450(7) -0.3378(6) -0.1956(6)
C3D_2 C 0.6622(6) -0.0928(9) 0.1956(6)
C3C_2 C 1.0928(9) 0.7550(7) 0.1956(6)
C3H_2 C 0.0928(9) 0.3378(6) 0.6956(6)
C3I_2 C -0.0928(9) 0.2450(7) 0.8044(6)
C3G_2 C 0.2450(7) -0.0928(9) 0.6956(6)
C3J_2 C 0.3378(6) 0.0928(9) 0.8044(6)
H1E H 0.2708 0.3537 0.1212
H1A H 0.7292 0.0829 0.3788
H1B H 0.9171 0.6463 0.3788
H1H H 0.0829 0.3537 -0.3788
H1I H -0.0829 0.2708 -0.1212
H1G H 0.2708 -0.0829 -0.3788
H1J H 0.3537 0.0829 -0.1212
H1A_2 H -0.2708 0.0829 0.3788
H1D H -0.3537 -0.0829 0.1212
H1B_2 H -0.0829 -0.3537 0.3788
H1C H 0.0829 -0.2708 0.1212
H1F H -0.3537 -0.2708 -0.3788
H1K H -0.2708 -0.3537 -0.1212
C4E C 0.2154(6) 0.2526(5) 0.2384(7)
C4H C 0.0372(8) 0.2526(5) -0.2616(7)
C4I C -0.0372(8) 0.2154(6) -0.2384(7)
C4G C 0.2154(6) -0.0372(8) -0.2616(7)
C4J C 0.2526(5) 0.0372(8) -0.2384(7)
C4A C -0.2154(6) 0.0372(8) 0.2616(7)
C4D C -0.2526(5) -0.0372(8) 0.2384(7)
C4B C -0.0372(8) -0.2526(5) 0.2616(7)
C4C C 0.0372(8) -0.2154(6) 0.2384(7)
C4A_2 C 0.7846(6) 0.0372(8) 0.2616(7)
C4B_2 C 0.9628(8) 0.7474(5) 0.2616(7)
C4F C -0.2526(5) -0.2154(6) -0.2616(7)
C4K C -0.2154(6) -0.2526(5) -0.2384(7)
C4D_2 C 0.7474(5) -0.0372(8) 0.2384(7)
C4C_2 C 1.0372(8) 0.7846(6) 0.2384(7)
C4H_2 C 0.0372(8) 0.2526(5) 0.7384(7)
C4I_2 C -0.0372(8) 0.2154(6) 0.7616(7)
C4G_2 C 0.2154(6) -0.0372(8) 0.7384(7)
C4J_2 C 0.2526(5) 0.0372(8) 0.7616(7)
C5E C 0.1769(6) 0.2288(4) 0.3495(8)
C5H C 0.0519(7) 0.2288(4) -0.1505(8)
C5G C 0.1769(6) -0.0519(7) -0.1505(8)
C5A C -0.1769(6) 0.0519(7) 0.1505(8)
C5B C -0.0519(7) -0.2288(4) 0.1505(8)
C5I C -0.0519(7) 0.1769(6) -0.3495(8)
C5F C -0.2288(4) -0.1769(6) -0.1505(8)
C5J C 0.2288(4) 0.0519(7) -0.3495(8)
C5I_2 C -0.0519(7) 0.1769(6) 0.6505(8)
C5J_2 C 0.2288(4) 0.0519(7) 0.6505(8)
C5D C -0.2288(4) -0.0519(7) 0.3495(8)
C5C C 0.0519(7) -0.1769(6) 0.3495(8)
C5A_2 C 0.8231(6) 0.0519(7) 0.1505(8)
C5D_2 C 0.7712(4) -0.0519(7) 0.3495(8)
C5B_2 C 0.9481(7) 0.7712(4) 0.1505(8)
C5C_2 C 1.0519(7) 0.8231(6) 0.3495(8)
C5K C -0.1769(6) -0.2288(4) -0.3495(8)
C5H_2 C 0.0519(7) 0.2288(4) 0.8495(8)
C5K_2 C -0.1769(6) -0.2288(4) 0.6505(8)
C5G_2 C 0.1769(6) -0.0519(7) 0.8495(8)
C6E C 0.1680(7) 0.2903(6) 0.4178(7)
C6H C 0.1223(9) 0.2903(6) -0.0822(7)
C6G C 0.1680(7) -0.1223(9) -0.0822(7)
C6A C -0.1680(7) 0.1223(9) 0.0822(7)
C6B C -0.1223(9) -0.2903(6) 0.0822(7)
C6A_2 C 0.8320(7) 0.1223(9) 0.0822(7)
C6B_2 C 0.8777(9) 0.7097(6) 0.0822(7)
C6I C -0.1223(9) 0.1680(7) -0.4178(7)
C6F C -0.2903(6) -0.1680(7) -0.0822(7)
C6J C 0.2903(6) 0.1223(9) -0.4178(7)
C6I_2 C -0.1223(9) 0.1680(7) 0.5822(7)
C6J_2 C 0.2903(6) 0.1223(9) 0.5822(7)
C6D C -0.2903(6) -0.1223(9) 0.4178(7)
C6C C 0.1223(9) -0.1680(7) 0.4178(7)
C6D_2 C 0.7097(6) -0.1223(9) 0.4178(7)
C6C_2 C 1.1223(9) 0.8320(7) 0.4178(7)
C6K C -0.1680(7) -0.2903(6) -0.4178(7)
H2E H 0.1422 0.2744 0.4922
H2H H 0.1322 0.2744 -0.0078
H2G H 0.1422 -0.1322 -0.0078
H2A H -0.1422 0.1322 0.0078
H2B H -0.1322 -0.2744 0.0078
H2A_2 H 0.8578 0.1322 0.0078
H2B_2 H 0.8678 0.7256 0.0078
H2I H -0.1322 0.1422 -0.4922
H2F H -0.2744 -0.1422 -0.0078
H2J H 0.2744 0.1322 -0.4922
H2I_2 H -0.1322 0.1422 0.5078
H2J_2 H 0.2744 0.1322 0.5078
H2D H -0.2744 -0.1322 0.4922
C7E C 0.1976(8) 0.3755(6) 0.3750(8)
C7A C 0.8024(8) 0.1779(10) 0.1250(8)
C7B C 0.8221(10) 0.6245(6) 0.1250(8)
C7H C 0.1779(10) 0.3755(6) -0.1250(8)
C7G C 0.1976(8) -0.1779(10) -0.1250(8)
C7A_2 C -0.1976(8) 0.1779(10) 0.1250(8)
C7B_2 C -0.1779(10) -0.3755(6) 0.1250(8)
C7I C -0.1779(10) 0.1976(8) -0.3750(8)
C7F C -0.3755(6) -0.1976(8) -0.1250(8)
C7J C 0.3755(6) 0.1779(10) -0.3750(8)
C7I_2 C -0.1779(10) 0.1976(8) 0.6250(8)
C7J_2 C 0.3755(6) 0.1779(10) 0.6250(8)
C7D C -0.3755(6) -0.1779(10) 0.3750(8)
H3E H 0.1916 0.4166 0.4208
H3A H 0.8084 0.2250 0.0792
H3B H 0.7750 0.5834 0.0792
H3H H 0.2250 0.4166 -0.0792
H3G H 0.1916 -0.2250 -0.0792
H3A_2 H -0.1916 0.2250 0.0792
H3B_2 H -0.2250 -0.4166 0.0792
H3I H -0.2250 0.1916 -0.4208
H3F H -0.4166 -0.1916 -0.0792
H3J H 0.4166 0.2250 -0.4208
O4E O 0.1462(6) 0.1404(6) 0.3842(8)
O4H O -0.0058(8) 0.1404(6) -0.1158(8)
O4G O 0.1462(6) 0.0058(8) -0.1158(8)
O4A O -0.1462(6) -0.0058(8) 0.1158(8)
O4B O 0.0058(8) -0.1404(6) 0.1158(8)
O4F O -0.1404(6) -0.1462(6) -0.1158(8)
O4I O 0.0058(8) 0.1462(6) 0.6158(8)
O4J O 0.1404(6) -0.0058(8) 0.6158(8)
O4D O -0.1404(6) 0.0058(8) 0.3842(8)
O4C O -0.0058(8) -0.1462(6) 0.3842(8)
O4I_2 O 0.0058(8) 0.1462(6) -0.3842(8)
O4J_2 O 0.1404(6) -0.0058(8) -0.3842(8)
O4K O -0.1462(6) -0.1404(6) 0.6158(8)
O4A_2 O 0.8538(6) -0.0058(8) 0.1158(8)
O4D_2 O 0.8596(6) 0.0058(8) 0.3842(8)
O4B_2 O 1.0058(8) 0.8596(6) 0.1158(8)
O4C_2 O 0.9942(8) 0.8538(6) 0.3842(8)
O4K_2 O -0.1462(6) -0.1404(6) -0.3842(8)
P1H P 0.0000(3) 0.0910(2) -0.0045(2)
P1G P 0.0910(2) 0.0000(3) -0.0045(2)
P1A P -0.0910(2) 0.0000(3) 0.0045(2)
P1B P -0.0000(3) -0.0910(2) 0.0045(2)
P1E P 0.0910(2) 0.0910(2) 0.4955(2)
P1F P -0.0910(2) -0.0910(2) -0.0045(2)
P1I P 0.0000(3) 0.0910(2) 0.5045(2)
P1J P 0.0910(2) 0.0000(3) 0.5045(2)
P1D P -0.0910(2) 0.0000(3) 0.4955(2)
P1C P -0.0000(3) -0.0910(2) 0.4955(2)
P1K P -0.0910(2) -0.0910(2) 0.5045(2)
P1I_2 P 0.0000(3) 0.0910(2) -0.4955(2)
P1J_2 P 0.0910(2) 0.0000(3) -0.4955(2)
P1D_2 P -0.0910(2) 0.0000(3) -0.5045(2)
P1E_2 P 0.0910(2) 0.0910(2) -0.5045(2)
P1C_2 P -0.0000(3) -0.0910(2) -0.5045(2)
loop_
_geom_bond_atom_site_label_1
_geom_bond_atom_site_label_2
_geom_bond_site_symmetry_1
_geom_bond_site_symmetry_2
Cd1 O1 1_555 1_555
O2 Cd1 1_555 1_555
O3 Cd1 1_555 1_555
C1 O2 1_555 1_555
C2 C1 1_555 1_555
C3 C2 1_555 1_555
H1 C3 1_555 1_555
C4 C3 1_555 1_555
C5 C4 1_555 1_555
C6 C5 1_555 1_555
H2 C6 1_555 1_555
C7 C2 1_555 1_555
H3 C7 1_555 1_555
O4 C5 1_555 1_555
P1 O4 1_555 1_555
Cd1C O1C 1_555 1_555
O2A Cd1 1_555 1_555
O2B Cd1 1_555 1_555
O2E Cd1C 1_555 1_555
O2C Cd1C 1_555 1_555
O2D Cd1C 1_555 1_555
O2H C1H 1_555 1_555
O2I C1I 1_555 1_555
O2G C1G 1_555 1_555
O2J C1J 1_555 1_555
O3A Cd1 1_555 1_555
O3B Cd1 1_555 1_555
O3E Cd1C 1_555 1_555
O3C Cd1C 1_555 1_555
O3D Cd1C 1_555 1_555
O3H C1H 1_555 1_555
O3I C1I 1_555 1_555
O3G C1G 1_555 1_555
O3J C1J 1_555 1_555
C1A O2A 1_555 1_555
C1B O2B 1_555 1_555
C1E O2E 1_555 1_555
C1H C2H 1_555 1_555
C1I C2I 1_555 1_555
C1G C2G 1_555 1_555
C1J C2J 1_555 1_555
C1C O2C 1_555 1_555
C1D O2D 1_555 1_555
C1A_2 C2A_2 1_555 1_555
C1D_2 C2D 1_555 1_555
C2E C1E 1_555 1_555
C2A C1A 1_555 1_555
C2B C1B 1_555 1_555
C2H C3H 1_555 1_555
C2I C3I 1_555 1_555
C2G C3G 1_555 1_555
C2J C3J 1_555 1_555
C2A_2 C3A_2 1_555 1_555
C2D C3D 1_555 1_555
C2B_2 C3B_2 1_555 1_555
C2C C3C 1_555 1_555
C2F C3F 1_555 1_555
C2K C3K 1_555 1_555
C3E C2E 1_555 1_555
C3A C2A 1_555 1_555
C3B C2B 1_555 1_555
C3H H1H 1_555 1_555
C3I H1I 1_555 1_555
C3G H1G 1_555 1_555
C3J H1J 1_555 1_555
C3A_2 H1A_2 1_555 1_555
C3D H1D 1_555 1_555
C3B_2 H1B_2 1_555 1_555
C3C H1C 1_555 1_555
C3F H1F 1_555 1_555
C3K H1K 1_555 1_555
C3D_2 C4D_2 1_555 1_555
C3C_2 C4C_2 1_555 1_555
C3H_2 C4H_2 1_555 1_555
C3I_2 C4I_2 1_555 1_555
C3G_2 C4G_2 1_555 1_555
C3J_2 C4J_2 1_555 1_555
H1E C3E 1_555 1_555
H1A C3A 1_555 1_555
H1B C3B 1_555 1_555
C4E C4 1_555 1_555
C4H C3H 1_555 1_555
C4I C3I 1_555 1_555
C4G C3G 1_555 1_555
C4J C3J 1_555 1_555
C4A C3A_2 1_555 1_555
C4D C3D 1_555 1_555
C4B C3B_2 1_555 1_555
C4C C3C 1_555 1_555
C4A_2 C3A 1_555 1_555
C4B_2 C3B 1_555 1_555
C4F C3F 1_555 1_555
C4K C3K 1_555 1_555
C4D_2 C4A_2 1_555 1_555
C4C_2 C4B_2 1_555 1_555
C4H_2 C4I_2 1_555 1_555
C4I_2 C5I_2 1_555 1_555
C4G_2 C4J_2 1_555 1_555
C4J_2 C5J_2 1_555 1_555
C5E C4 1_555 1_555
C5H C4H 1_555 1_555
C5G C4G 1_555 1_555
C5A C4A 1_555 1_555
C5B C4B 1_555 1_555
C5I C4H 1_555 1_555
C5F C4F 1_555 1_555
C5J C4G 1_555 1_555
C5I_2 C4H_2 1_555 1_555
C5J_2 C4G_2 1_555 1_555
C5D C4A 1_555 1_555
C5C C4B 1_555 1_555
C5A_2 C4A_2 1_555 1_555
C5D_2 C4A_2 1_555 1_555
C5B_2 C4B_2 1_555 1_555
C5C_2 C4B_2 1_555 1_555
C5K C4F 1_555 1_555
C5H_2 C4H_2 1_555 1_555
C5K_2 O4K 1_555 1_555
C5G_2 C4G_2 1_555 1_555
C6E C5E 1_555 1_555
C6H C5H 1_555 1_555
C6G C5G 1_555 1_555
C6A C5A 1_555 1_555
C6B C5B 1_555 1_555
C6A_2 C5A_2 1_555 1_555
C6B_2 C5B_2 1_555 1_555
C6I C5I 1_555 1_555
C6F C5F 1_555 1_555
C6J C5J 1_555 1_555
C6I_2 C5I_2 1_555 1_555
C6J_2 C5J_2 1_555 1_555
C6D C5D 1_555 1_555
C6C C5C 1_555 1_555
C6D_2 C5D_2 1_555 1_555
C6C_2 C5C_2 1_555 1_555
C6K C5K 1_555 1_555
H2E C6E 1_555 1_555
H2H C6H 1_555 1_555
H2G C6G 1_555 1_555
H2A C6A 1_555 1_555
H2B C6B 1_555 1_555
H2A_2 C6A_2 1_555 1_555
H2B_2 C6B_2 1_555 1_555
H2I C6I 1_555 1_555
H2F C6F 1_555 1_555
H2J C6J 1_555 1_555
H2I_2 C6I_2 1_555 1_555
H2J_2 C6J_2 1_555 1_555
H2D C6D 1_555 1_555
C7E C2E 1_555 1_555
C7A C2A 1_555 1_555
C7B C2B 1_555 1_555
C7H C2H 1_555 1_555
C7G C2G 1_555 1_555
C7A_2 C2A_2 1_555 1_555
C7B_2 C2B_2 1_555 1_555
C7I C2I 1_555 1_555
C7F C2F 1_555 1_555
C7J C2J 1_555 1_555
C7I_2 C6I_2 1_555 1_555
C7J_2 C6J_2 1_555 1_555
C7D C2D 1_555 1_555
H3E C7E 1_555 1_555
H3A C7A 1_555 1_555
H3B C7B 1_555 1_555
H3H C7H 1_555 1_555
H3G C7G 1_555 1_555
H3A_2 C7A_2 1_555 1_555
H3B_2 C7B_2 1_555 1_555
H3I C7I 1_555 1_555
H3F C7F 1_555 1_555
H3J C7J 1_555 1_555
O4E C5E 1_555 1_555
O4H C5H 1_555 1_555
O4G C5G 1_555 1_555
O4A C5A 1_555 1_555
O4B C5B 1_555 1_555
O4F C5F 1_555 1_555
O4I C5I_2 1_555 1_555
O4J C5J_2 1_555 1_555
O4D C5D 1_555 1_555
O4C C5C 1_555 1_555
O4I_2 C5I 1_555 1_555
O4J_2 C5J 1_555 1_555
O4K P1K 1_555 1_555
O4A_2 C5A_2 1_555 1_555
O4D_2 C5D_2 1_555 1_555
O4B_2 C5B_2 1_555 1_555
O4C_2 C5C_2 1_555 1_555
O4K_2 C5K 1_555 1_555
P1H P1 1_555 1_555
P1G P1 1_555 1_555
P1A O4A 1_555 1_555
P1B O4B 1_555 1_555
P1E O4E 1_555 1_555
P1F O4F 1_555 1_555
P1I O4I 1_555 1_555
P1J O4J 1_555 1_555
P1D O4D 1_555 1_555
P1C O4C 1_555 1_555
P1K P1D 1_555 1_555
P1I_2 O4I_2 1_555 1_555
P1J_2 O4J_2 1_555 1_555
P1D_2 P1I_2 1_555 1_555
P1E_2 P1I_2 1_555 1_555
P1C_2 P1J_2 1_555 1_555
O3 C1 1_555 1_555
C5 C4E 1_555 1_555
C6 C7 1_555 1_555
O3A C1A 1_555 1_555
O3B C1B 1_555 1_555
O3E C1E 1_555 1_555
O3C C1C 1_555 1_555
O3D C1D 1_555 1_555
C3E C4E 1_555 1_555
C4E C5E 1_555 1_555
C4H C4I 1_555 1_555
C4I C5H 1_555 1_555
C4I C5I 1_555 1_555
C4G C4J 1_555 1_555
C4J C5G 1_555 1_555
C4J C5J 1_555 1_555
C4A C4D 1_555 1_555
C4D C5A 1_555 1_555
C4D C5D 1_555 1_555
C4B C4C 1_555 1_555
C4C C5B 1_555 1_555
C4C C5C 1_555 1_555
C4F C4K 1_555 1_555
C4K C5F 1_555 1_555
C4K C5K 1_555 1_555
C4D_2 C5A_2 1_555 1_555
C4D_2 C5D_2 1_555 1_555
C4C_2 C5B_2 1_555 1_555
C4C_2 C5C_2 1_555 1_555
C4I_2 C5H_2 1_555 1_555
C4J_2 C5G_2 1_555 1_555
C6E C7E 1_555 1_555
C6H C7H 1_555 1_555
C6G C7G 1_555 1_555
C6A C7A_2 1_555 1_555
C6B C7B_2 1_555 1_555
C6A_2 C7A 1_555 1_555
C6B_2 C7B 1_555 1_555
C6I C7I 1_555 1_555
C6F C7F 1_555 1_555
C6J C7J 1_555 1_555
C6D C7D 1_555 1_555
O4H P1H 1_555 1_555
O4G P1G 1_555 1_555
P1H P1A 1_555 1_555
P1G P1B 1_555 1_555
P1A P1F 1_555 1_555
P1B P1F 1_555 1_555
P1E P1I 1_555 1_555
P1E P1J 1_555 1_555
P1I P1D 1_555 1_555
P1J P1C 1_555 1_555
P1C P1K 1_555 1_555
P1J_2 P1E_2 1_555 1_555

#END
