
#######################################################################
#
#                 Cambridge Crystallographic Data Centre
#                                CCDC 
#
#######################################################################
#
# If this CIF has been generated from an entry in the Cambridge 
# Structural Database, then it will include bibliographic, chemical, 
# crystal, experimental, refinement or atomic coordinate data resulting 
# from the CCDC's data processing and validation procedures.
#
#######################################################################

data_FOSTIS
_chemical_formula_moiety         'C216 H108 In17 O67'
_symmetry_cell_setting           rhombohedral
_symmetry_space_group_name_H-M   'R -3'
_symmetry_Int_Tables_number      148
_space_group_name_Hall           '-R 3'
loop_
_symmetry_equiv_pos_site_id
_symmetry_equiv_pos_as_xyz
1 x,y,z
2 -y,x-y,z
3 -x+y,-x,z
4 2/3+x,1/3+y,1/3+z
5 2/3-y,1/3+x-y,1/3+z
6 2/3-x+y,1/3-x,1/3+z
7 1/3+x,2/3+y,2/3+z
8 1/3-y,2/3+x-y,2/3+z
9 1/3-x+y,2/3-x,2/3+z
10 -x,-y,-z
11 y,-x+y,-z
12 x-y,x,-z
13 1/3-x,2/3-y,2/3-z
14 1/3+y,2/3-x+y,2/3-z
15 1/3+x-y,2/3+x,2/3-z
16 2/3-x,1/3-y,1/3-z
17 2/3+y,1/3-x+y,1/3-z
18 2/3+x-y,1/3+x,1/3-z
_cell_length_a                   44.2269(19)
_cell_length_b                   44.2269(19)
_cell_length_c                   42.519(2)
_cell_angle_alpha                90
_cell_angle_beta                 90
_cell_angle_gamma                120
_cell_volume                     72025.6
loop_
_atom_site_label
_atom_site_type_symbol
_atom_site_fract_x
_atom_site_fract_y
_atom_site_fract_z
In1 In 0.426851(6) 0.137482(7) 0.373135(6)
O1 O 0.39173(7) 0.15993(7) 0.37632(7)
O2 O 0.41851(8) 0.16201(7) 0.41895(7)
C1 C 0.39800(12) 0.16892(10) 0.40375(13)
C2 C 0.38078(11) 0.18636(10) 0.41954(11)
C3 C 0.36100(12) 0.19557(11) 0.40281(10)
C4 C 0.38598(11) 0.19481(11) 0.45061(10)
H1 H 0.3584 0.1909 0.3813
C5 C 0.34403(12) 0.21208(11) 0.41658(10)
C6 C 0.36985(12) 0.21080(11) 0.46482(10)
H2 H 0.4006 0.1897 0.4623
H3 H 0.3302 0.2179 0.4044
C7 C 0.34819(12) 0.21964(11) 0.44865(10)
H4 H 0.3736 0.2159 0.4862
C8 C 0.33156(11) 0.23736(11) 0.46370(9)
C9 C 0.31962(11) 0.22926(10) 0.49383(10)
C10 C 0.32798(11) 0.26329(12) 0.44830(9)
H5 H 0.3221 0.2123 0.5046
C11 C 0.30370(11) 0.24584(11) 0.50892(9)
C12 C 0.31239(12) 0.28001(11) 0.46225(9)
H6 H 0.3365 0.2694 0.4279
C13 C 0.30055(12) 0.27119(11) 0.49297(9)
C14 C 0.29132(8) 0.23765(7) 0.54272(5)
C15 C 0.3070(2) 0.3057(2) 0.4440(2)
H7 H 0.2903 0.2826 0.5029
C16 C 0.26511(8) 0.24290(7) 0.55483(8)
C17 C 0.30739(8) 0.22433(8) 0.56184(8)
C18 C 0.2739(2) 0.3019(2) 0.44113(18)
C19 C 0.33577(18) 0.33428(17) 0.43051(16)
H8 H 0.2544 0.2518 0.5420
C20 C 0.25497(7) 0.23483(8) 0.58606(8)
C21 C 0.29725(9) 0.21626(8) 0.59307(7)
H9 H 0.3249 0.2208 0.5537
C22 C 0.26975(19) 0.32700(19) 0.42508(18)
C23 C 0.33246(16) 0.35996(18) 0.41449(16)
H10 H 0.2374 0.2383 0.5942
C24 C 0.27104(9) 0.22151(8) 0.60518(5)
H11 H 0.3080 0.2073 0.6059
C25 C 0.29898(16) 0.35522(18) 0.41184(15)
C26 C 0.25977(14) 0.21281(13) 0.63838(11)
C27 C 0.29414(19) 0.38058(12) 0.39265(14)
O3 O 0.27013(10) 0.19538(9) 0.65352(7)
O4 O 0.23831(10) 0.21982(8) 0.65072(7)
O5 O 0.26461(16) 0.37170(11) 0.38195(10)
O6 O 0.31726(13) 0.41165(10) 0.39019(8)
O7 O 0.40457(8) 0.12716(7) 0.32436(6)
O8 O 0.44348(8) 0.11203(8) 0.33387(7)
O9 O 0.23551(7) -0.00415(15) 0.07269(7)
O10 O 0.24948(8) -0.04051(16) 0.05204(7)
C28 C 0.42382(11) 0.11546(10) 0.31488(9)
C29 C 0.42257(11) 0.10568(11) 0.28120(10)
C30 C 0.44369(11) 0.09370(10) 0.27013(10)
C31 C 0.40193(12) 0.11068(11) 0.26092(11)
H12 H 0.4577 0.0901 0.2841
C32 C 0.44454(11) 0.08680(11) 0.23837(11)
C33 C 0.40156(11) 0.10304(12) 0.22928(11)
H13 H 0.3879 0.1193 0.2683
H14 H 0.4602 0.0802 0.2310
C34 C 0.42191(11) 0.08972(11) 0.21755(10)
H15 H 0.3874 0.1069 0.2156
C35 C 0.42116(11) 0.08107(11) 0.18375(9)
C36 C 0.45044(10) 0.08636(11) 0.16807(9)
C37 C 0.38975(11) 0.06482(11) 0.16740(10)
H16 H 0.4718 0.0970 0.1785
C38 C 0.44905(11) 0.07613(11) 0.13677(9)
C39 C 0.38740(11) 0.05465(11) 0.13687(10)
H17 H 0.3695 0.0607 0.1777
C40 C 0.41740(12) 0.06059(11) 0.12214(9)
C41 C 0.48142(8) 0.08228(9) 0.12037(7)
C42 C 0.35303(6) 0.03606(8) 0.11966(6)
H18 H 0.4161 0.0537 0.1013
C43 C 0.51494(10) 0.10037(9) 0.13282(6)
C44 C 0.47592(8) 0.06673(9) 0.09093(8)
C45 C 0.32833(9) 0.04634(7) 0.12412(6)
C46 C 0.34608(7) 0.00879(9) 0.09924(7)
H19 H 0.5186 0.1108 0.1525
C47 C 0.54296(7) 0.10291(9) 0.11582(9)
C48 C 0.50394(12) 0.06927(10) 0.07393(7)
H20 H 0.4535 0.0546 0.0826
H21 H 0.3330 0.0646 0.1378
C49 C 0.29668(8) 0.02934(9) 0.10817(7)
C50 C 0.31443(9) -0.00821(7) 0.08330(6)
H22 H 0.3626 0.0019 0.0963
H23 H 0.5654 0.1150 0.1241
C51 C 0.53747(10) 0.08736(10) 0.08638(8)
H24 H 0.5003 0.0589 0.0542
H25 H 0.2802 0.0362 0.1112
C52 C 0.28973(6) 0.00206(8) 0.08776(7)
H26 H 0.3098 -0.0265 0.0696
C53 C 0.56713(23) 0.08941(16) 0.06876(15)
C54 C 0.25608(12) -0.01565(18) 0.06945(11)
O11 O 0.56133(14) 0.07526(10) 0.04109(10)
O12 O 0.59779(13) 0.10707(10) 0.07833(8)
O13 O 0.48271(7) 0.16326(8) 0.38746(8)
O14 O 0.46820(8) 0.19186(7) 0.35559(8)
C55 C 0.49138(11) 0.19051(13) 0.37073(13)
C56 C 0.52750(6) 0.21983(6) 0.37147(7)
C57 C 0.55220(8) 0.21736(6) 0.38981(6)
C58 C 0.53674(7) 0.25030(8) 0.35484(6)
H27 H 0.5460 0.1970 0.4009
C59 C 0.58613(7) 0.24534(8) 0.39151(6)
C60 C 0.57068(8) 0.27828(6) 0.35653(6)
H28 H 0.5202 0.2520 0.3426
H29 H 0.6027 0.2437 0.4038
C61 C 0.59537(6) 0.27581(6) 0.37487(7)
H30 H 0.5769 0.2987 0.3454
C62 C 0.63222(12) 0.30582(13) 0.37611(10)
C63 C 0.66028(13) 0.29903(12) 0.37685(9)
H31 H 0.6558 0.2762 0.3778
In2 In 0.239050(8) 0.190000(7) 0.696381(7)
O15 O 0.19773(9) 0.14183(9) 0.67227(10)
O16 O 0.18170(9) 0.17303(9) 0.70165(8)
C64 C 0.17524(13) 0.14671(12) 0.68565(11)
C65 C 0.13709(9) 0.11755(10) 0.68242(10)
C66 C 0.11051(13) 0.11848(10) 0.69907(9)
C67 C 0.12976(11) 0.08855(13) 0.66423(8)
H32 H 0.1154 0.1379 0.7112
C68 C 0.07662(11) 0.09040(13) 0.69753(10)
C69 C 0.09586(13) 0.06048(10) 0.66270(8)
H33 H 0.1475 0.0879 0.6531
H34 H 0.0588 0.0910 0.7087
C70 C 0.06929(9) 0.06140(11) 0.67935(11)
H35 H 0.0910 0.0411 0.6505
C71 C 0.0327(2) 0.0288(2) 0.67789(16)
C72 C 0.0292(2) -0.0042(3) 0.68000(16)
H36 H 0.0486 -0.0070 0.6827
O13A O 0.83674(8) 0.31945(11) 0.38746(8)
O14A O 0.80814(7) 0.27634(11) 0.35559(8)
C55A C 0.80949(13) 0.30087(17) 0.37073(13)
C56A C 0.78017(6) 0.30767(8) 0.37147(7)
C57A C 0.78264(6) 0.33484(10) 0.38981(6)
C58A C 0.74970(8) 0.28644(11) 0.35484(6)
H27A H 0.8030 0.3490 0.4009
C59A C 0.75466(8) 0.34079(11) 0.39151(6)
C60A C 0.72172(6) 0.29240(10) 0.35653(6)
H28A H 0.7480 0.2682 0.3426
H29A H 0.7563 0.3590 0.4038
C61A C 0.72419(6) 0.31956(8) 0.37487(7)
H30A H 0.7013 0.2782 0.3454
C62A C 0.69418(13) 0.32640(18) 0.37611(10)
C63A C 0.70097(12) 0.36125(18) 0.37685(9)
H31A H 0.7238 0.3796 0.3778
O13B O 0.68055(11) 0.51729(7) 0.38746(8)
O14B O 0.72366(11) 0.53180(8) 0.35559(8)
C55B C 0.69913(17) 0.50862(11) 0.37073(13)
C56B C 0.69233(8) 0.47250(6) 0.37147(7)
C57B C 0.66516(10) 0.44780(8) 0.38981(6)
C58B C 0.71356(11) 0.46326(7) 0.35484(6)
H27B H 0.6510 0.4540 0.4009
C59B C 0.65921(11) 0.41387(7) 0.39151(6)
C60B C 0.70760(10) 0.42932(8) 0.35653(6)
H28B H 0.7318 0.4798 0.3426
H29B H 0.6410 0.3973 0.4038
C61B C 0.68044(8) 0.40463(6) 0.37487(7)
H30B H 0.7218 0.4231 0.3454
C62B C 0.67360(18) 0.36778(12) 0.37611(10)
C63B C 0.63875(18) 0.33972(13) 0.37685(9)
H31B H 0.6204 0.3442 0.3778
O15A O -0.14183(9) 0.05590(13) 0.67227(10)
O16A O -0.17303(9) 0.00867(13) 0.70165(8)
C64A C -0.14671(12) 0.02853(18) 0.68565(11)
C65A C -0.11755(10) 0.01954(13) 0.68242(10)
C66A C -0.11848(10) -0.00797(16) 0.69907(9)
C67A C -0.08855(13) 0.04121(17) 0.66423(8)
H32A H -0.1379 -0.0225 0.7112
C68A C -0.09040(13) -0.01378(17) 0.69753(10)
C69A C -0.06048(10) 0.03538(16) 0.66270(8)
H33A H -0.0879 0.0596 0.6531
H34A H -0.0910 -0.0322 0.7087
C70A C -0.06140(11) 0.00789(14) 0.67935(11)
H35A H -0.0411 0.0499 0.6505
C71A C -0.0288(2) 0.0039(3) 0.67789(16)
C72A C 0.0042(3) 0.0334(4) 0.68000(16)
H36A H 0.0070 0.0556 0.6827
O15B O -0.05590(13) -0.19773(9) 0.67227(10)
O16B O -0.00867(13) -0.18170(9) 0.70165(8)
C64B C -0.02853(18) -0.17524(13) 0.68565(11)
C65B C -0.01954(13) -0.13709(9) 0.68242(10)
C66B C 0.00797(16) -0.11051(13) 0.69907(9)
C67B C -0.04121(17) -0.12976(11) 0.66423(8)
H32B H 0.0225 -0.1154 0.7112
C68B C 0.01378(17) -0.07662(11) 0.69753(10)
C69B C -0.03538(16) -0.09586(13) 0.66270(8)
H33B H -0.0596 -0.1475 0.6531
H34B H 0.0322 -0.0588 0.7087
C70B C -0.00789(14) -0.06929(9) 0.67935(11)
H35B H -0.0499 -0.0910 0.6505
C71B C -0.0039(3) -0.0327(2) 0.67789(16)
C72B C -0.0334(4) -0.0292(2) 0.68000(16)
H36B H -0.0556 -0.0486 0.6827
In1A In -0.137482(7) 0.289369(9) 0.373135(6)
O1A O -0.15993(7) 0.23180(10) 0.37632(7)
O2A O -0.16201(7) 0.25650(11) 0.41895(7)
C1A C -0.16892(10) 0.22908(16) 0.40375(13)
C2A C -0.18636(10) 0.19442(15) 0.41954(11)
C3A C -0.19557(11) 0.16543(16) 0.40281(10)
C4A C -0.19481(11) 0.19117(16) 0.45061(10)
H1A H -0.1909 0.1675 0.3813
C5A C -0.21208(11) 0.13195(16) 0.41658(10)
C6A C -0.21080(11) 0.15905(16) 0.46482(10)
H2A H -0.1897 0.2109 0.4623
H3A H -0.2179 0.1123 0.4044
C7A C -0.21964(11) 0.12855(16) 0.44865(10)
H4A H -0.2159 0.1577 0.4862
C8A C -0.23736(11) 0.09420(16) 0.46370(9)
C9A C -0.22926(10) 0.09036(15) 0.49383(10)
C10A C -0.26329(12) 0.06469(16) 0.44830(9)
H5A H -0.2123 0.1098 0.5046
C11A C -0.24584(11) 0.05786(16) 0.50892(9)
C12A C -0.28001(11) 0.03238(16) 0.46225(9)
H6A H -0.2694 0.0671 0.4279
C13A C -0.27119(11) 0.02936(16) 0.49297(9)
C14A C -0.23765(7) 0.05367(11) 0.54272(5)
C15A C -0.3057(2) 0.0013(3) 0.4440(2)
H7A H -0.2826 0.0077 0.5029
C16A C -0.24290(7) 0.02221(11) 0.55483(8)
C17A C -0.22433(8) 0.08306(11) 0.56184(8)
C18A C -0.3019(2) -0.0280(3) 0.44113(18)
C19A C -0.33428(17) 0.00149(25) 0.43051(16)
H8A H -0.2518 0.0026 0.5420
C20A C -0.23483(8) 0.02014(11) 0.58606(8)
C21A C -0.21626(8) 0.08099(12) 0.59307(7)
H9A H -0.2208 0.1041 0.5537
C22A C -0.32700(19) -0.05725(27) 0.42508(18)
C23A C -0.35996(18) -0.02750(24) 0.41449(16)
H10A H -0.2383 -0.0009 0.5942
C24A C -0.22151(8) 0.04953(12) 0.60518(5)
H11A H -0.2073 0.1007 0.6059
C25A C -0.35522(18) -0.05624(24) 0.41184(15)
C26A C -0.21281(13) 0.04696(19) 0.63838(11)
C27A C -0.38058(12) -0.08644(22) 0.39265(14)
O3A O -0.19538(9) 0.07475(13) 0.65352(7)
O4A O -0.21982(8) 0.01849(13) 0.65072(7)
O5A O -0.37170(11) -0.10709(19) 0.38195(10)
O6A O -0.41165(10) -0.09439(16) 0.39019(8)
O7A O -0.12716(7) 0.27741(11) 0.32436(6)
O8A O -0.11203(8) 0.33145(11) 0.33387(7)
O9A O 0.00415(15) 0.23966(17) 0.07269(7)
O10A O 0.04051(16) 0.28999(18) 0.05204(7)
C28A C -0.11546(10) 0.30836(15) 0.31488(9)
C29A C -0.10568(11) 0.31689(16) 0.28120(10)
C30A C -0.09370(10) 0.34999(15) 0.27013(10)
C31A C -0.11068(11) 0.29125(16) 0.26092(11)
H12A H -0.0901 0.3676 0.2841
C32A C -0.08680(11) 0.35774(16) 0.23837(11)
C33A C -0.10304(12) 0.29852(16) 0.22928(11)
H13A H -0.1193 0.2686 0.2683
H14A H -0.0802 0.3800 0.2310
C34A C -0.08972(11) 0.33219(16) 0.21755(10)
H15A H -0.1069 0.2805 0.2156
C35A C -0.08107(11) 0.34009(16) 0.18375(9)
C36A C -0.08636(11) 0.36408(15) 0.16807(9)
C37A C -0.06482(11) 0.32493(16) 0.16740(10)
H16A H -0.0970 0.3748 0.1785
C38A C -0.07613(11) 0.37292(16) 0.13677(9)
C39A C -0.05465(11) 0.33275(16) 0.13687(10)
H17A H -0.0607 0.3088 0.1777
C40A C -0.06059(11) 0.35681(16) 0.12214(9)
C41A C -0.08228(9) 0.39914(12) 0.12037(7)
C42A C -0.03606(8) 0.31697(10) 0.11966(6)
H18A H -0.0537 0.3624 0.1013
C43A C -0.10037(9) 0.41457(13) 0.13282(6)
C44A C -0.06673(9) 0.40919(12) 0.09093(8)
C45A C -0.04634(7) 0.28199(11) 0.12412(6)
C46A C -0.00879(9) 0.33729(11) 0.09924(7)
H19A H -0.1108 0.4078 0.1525
C47A C -0.10291(9) 0.44005(11) 0.11582(9)
C48A C -0.06927(10) 0.43467(16) 0.07393(7)
H20A H -0.0546 0.3989 0.0826
H21A H -0.0646 0.2684 0.1378
C49A C -0.02934(9) 0.26734(12) 0.10817(7)
C50A C 0.00821(7) 0.32264(11) 0.08330(6)
H22A H -0.0019 0.3607 0.0963
H23A H -0.1150 0.4504 0.1241
C51A C -0.08736(10) 0.45011(14) 0.08638(8)
H24A H -0.0589 0.4414 0.0542
H25A H -0.0362 0.2440 0.1112
C52A C -0.00206(8) 0.28767(10) 0.08776(7)
H26A H 0.0265 0.3363 0.0696
C53A C -0.08941(16) 0.47772(28) 0.06876(15)
C54A C 0.01565(18) 0.27173(22) 0.06945(11)
O11A O -0.07526(10) 0.48607(17) 0.04109(10)
O12A O -0.10707(10) 0.49072(16) 0.07833(8)
In2A In -0.190000(7) 0.049050(11) 0.696381(7)
In1B In -0.289369(9) -0.426851(6) 0.373135(6)
O1B O -0.23180(10) -0.39173(7) 0.37632(7)
O2B O -0.25650(11) -0.41851(8) 0.41895(7)
C1B C -0.22908(16) -0.39800(12) 0.40375(13)
C2B C -0.19442(15) -0.38078(11) 0.41954(11)
C3B C -0.16543(16) -0.36100(12) 0.40281(10)
C4B C -0.19117(16) -0.38598(11) 0.45061(10)
H1B H -0.1675 -0.3584 0.3813
C5B C -0.13195(16) -0.34403(12) 0.41658(10)
C6B C -0.15905(16) -0.36985(12) 0.46482(10)
H2B H -0.2109 -0.4006 0.4623
H3B H -0.1123 -0.3302 0.4044
C7B C -0.12855(16) -0.34819(12) 0.44865(10)
H4B H -0.1577 -0.3736 0.4862
C8B C -0.09420(16) -0.33156(11) 0.46370(9)
C9B C -0.09036(15) -0.31962(11) 0.49383(10)
C10B C -0.06469(16) -0.32798(11) 0.44830(9)
H5B H -0.1098 -0.3221 0.5046
C11B C -0.05786(16) -0.30370(11) 0.50892(9)
C12B C -0.03238(16) -0.31239(12) 0.46225(9)
H6B H -0.0671 -0.3365 0.4279
C13B C -0.02936(16) -0.30055(12) 0.49297(9)
C14B C -0.05367(11) -0.29132(8) 0.54272(5)
C15B C -0.0013(3) -0.3070(2) 0.4440(2)
H7B H -0.0077 -0.2903 0.5029
C16B C -0.02221(11) -0.26511(8) 0.55483(8)
C17B C -0.08306(11) -0.30739(8) 0.56184(8)
C18B C 0.0280(3) -0.2739(2) 0.44113(18)
C19B C -0.00149(25) -0.33577(18) 0.43051(16)
H8B H -0.0026 -0.2544 0.5420
C20B C -0.02014(11) -0.25497(7) 0.58606(8)
C21B C -0.08099(12) -0.29725(9) 0.59307(7)
H9B H -0.1041 -0.3249 0.5537
C22B C 0.05725(27) -0.26975(19) 0.42508(18)
C23B C 0.02750(24) -0.33246(16) 0.41449(16)
H10B H 0.0009 -0.2374 0.5942
C24B C -0.04953(12) -0.27104(9) 0.60518(5)
H11B H -0.1007 -0.3080 0.6059
C25B C 0.05624(24) -0.29898(16) 0.41184(15)
C26B C -0.04696(19) -0.25977(14) 0.63838(11)
C27B C 0.08644(22) -0.29414(19) 0.39265(14)
O3B O -0.07475(13) -0.27013(10) 0.65352(7)
O4B O -0.01849(13) -0.23831(10) 0.65072(7)
O5B O 0.10709(19) -0.26461(16) 0.38195(10)
O6B O 0.09439(16) -0.31726(13) 0.39019(8)
O7B O -0.27741(11) -0.40457(8) 0.32436(6)
O8B O -0.33145(11) -0.44348(8) 0.33387(7)
O9B O -0.23966(17) -0.23551(7) 0.07269(7)
O10B O -0.28999(18) -0.24948(8) 0.05204(7)
C28B C -0.30836(15) -0.42382(11) 0.31488(9)
C29B C -0.31689(16) -0.42257(11) 0.28120(10)
C30B C -0.34999(15) -0.44369(11) 0.27013(10)
C31B C -0.29125(16) -0.40193(12) 0.26092(11)
H12B H -0.3676 -0.4577 0.2841
C32B C -0.35774(16) -0.44454(11) 0.23837(11)
C33B C -0.29852(16) -0.40156(11) 0.22928(11)
H13B H -0.2686 -0.3879 0.2683
H14B H -0.3800 -0.4602 0.2310
C34B C -0.33219(16) -0.42191(11) 0.21755(10)
H15B H -0.2805 -0.3874 0.2156
C35B C -0.34009(16) -0.42116(11) 0.18375(9)
C36B C -0.36408(15) -0.45044(10) 0.16807(9)
C37B C -0.32493(16) -0.38975(11) 0.16740(10)
H16B H -0.3748 -0.4718 0.1785
C38B C -0.37292(16) -0.44905(11) 0.13677(9)
C39B C -0.33275(16) -0.38740(11) 0.13687(10)
H17B H -0.3088 -0.3695 0.1777
C40B C -0.35681(16) -0.41740(12) 0.12214(9)
C41B C -0.39914(12) -0.48142(8) 0.12037(7)
C42B C -0.31697(10) -0.35303(6) 0.11966(6)
H18B H -0.3624 -0.4161 0.1013
C43B C -0.41457(13) -0.51494(10) 0.13282(6)
C44B C -0.40919(12) -0.47592(8) 0.09093(8)
C45B C -0.28199(11) -0.32833(9) 0.12412(6)
C46B C -0.33729(11) -0.34608(7) 0.09924(7)
H19B H -0.4078 -0.5186 0.1525
C47B C -0.44005(11) -0.54296(7) 0.11582(9)
C48B C -0.43467(16) -0.50394(12) 0.07393(7)
H20B H -0.3989 -0.4535 0.0826
H21B H -0.2684 -0.3330 0.1378
C49B C -0.26734(12) -0.29668(8) 0.10817(7)
C50B C -0.32264(11) -0.31443(9) 0.08330(6)
H22B H -0.3607 -0.3626 0.0963
H23B H -0.4504 -0.5654 0.1241
C51B C -0.45011(14) -0.53747(10) 0.08638(8)
H24B H -0.4414 -0.5003 0.0542
H25B H -0.2440 -0.2802 0.1112
C52B C -0.28767(10) -0.28973(6) 0.08776(7)
H26B H -0.3363 -0.3098 0.0696
C53B C -0.47772(28) -0.56713(23) 0.06876(15)
C54B C -0.27173(22) -0.25608(12) 0.06945(11)
O11B O -0.48607(17) -0.56133(14) 0.04109(10)
O12B O -0.49072(16) -0.59779(13) 0.07833(8)
In2B In -0.049050(11) -0.239050(8) 0.696381(7)
In1A_2 In 0.862518(7) 0.289369(9) 0.373135(6)
In1B_2 In 0.710631(9) 0.573149(6) 0.373135(6)
In1F In -0.239816(6) -0.195851(7) 0.039802(6)
In1G In 0.195851(7) -0.043964(9) 0.039802(6)
In1H In 0.043964(9) 0.239816(6) 0.039802(6)
O5C O -0.06872(16) -0.29497(11) 0.71528(10)
O5D O 0.29497(11) 0.22624(19) 0.71528(10)
O5E O -0.22624(19) 0.06872(16) 0.71528(10)
O6C O -0.01607(13) -0.25502(10) 0.72352(8)
O6D O 0.25502(10) 0.23894(16) 0.72352(8)
O6E O -0.23894(16) 0.01607(13) 0.72352(8)
O9C O -0.09782(7) 0.32918(15) 0.40602(7)
O9D O -0.32918(15) -0.42701(17) 0.40602(7)
O9E O 0.42701(17) 0.09782(7) 0.40602(7)
O10C O -0.08385(8) 0.29282(16) 0.38537(7)
O10D O -0.29282(16) -0.37668(18) 0.38537(7)
O10E O 0.37668(18) 0.08385(8) 0.38537(7)
O11F O -0.10534(14) -0.25807(10) 0.70776(10)
O11G O 0.25807(10) 0.15274(17) 0.70776(10)
O11H O -0.15274(17) 0.10534(14) 0.70776(10)
O13A_2 O -0.16326(8) 0.31945(11) 0.38746(8)
O13B_2 O -0.31945(11) -0.48271(7) 0.38746(8)
O14A_2 O -0.19186(7) 0.27634(11) 0.35559(8)
O14B_2 O -0.27634(11) -0.46820(8) 0.35559(8)
In2C In -0.094283(8) 0.523333(7) 0.029714(7)
In2D In -0.523333(7) -0.617617(11) 0.029714(7)
In2E In 0.617617(11) 0.094283(8) 0.029714(7)
In2F In -0.427617(8) -0.143333(7) 0.363048(7)
In2G In 0.143333(7) -0.284283(11) 0.363048(7)
In2H In 0.284283(11) 0.427617(8) 0.363048(7)
loop_
_geom_bond_atom_site_label_1
_geom_bond_atom_site_label_2
_geom_bond_site_symmetry_1
_geom_bond_site_symmetry_2
In1 O1 1_555 1_555
O1 C1 1_555 1_555
O2 In1 1_555 1_555
C1 O2 1_555 1_555
C2 C1 1_555 1_555
C3 C2 1_555 1_555
C4 C2 1_555 1_555
H1 C3 1_555 1_555
C5 C3 1_555 1_555
C6 C4 1_555 1_555
H2 C4 1_555 1_555
H3 C5 1_555 1_555
C7 C5 1_555 1_555
H4 C6 1_555 1_555
C8 C7 1_555 1_555
C9 C8 1_555 1_555
C10 C8 1_555 1_555
H5 C9 1_555 1_555
C11 C9 1_555 1_555
C12 C10 1_555 1_555
H6 C10 1_555 1_555
C13 C11 1_555 1_555
C14 C11 1_555 1_555
C15 C12 1_555 1_555
H7 C13 1_555 1_555
C16 C14 1_555 1_555
C17 C14 1_555 1_555
C18 C15 1_555 1_555
C19 C15 1_555 1_555
H8 C16 1_555 1_555
C20 C16 1_555 1_555
C21 C17 1_555 1_555
H9 C17 1_555 1_555
C22 C18 1_555 1_555
C23 C19 1_555 1_555
H10 C20 1_555 1_555
C24 C20 1_555 1_555
H11 C21 1_555 1_555
C25 C22 1_555 1_555
C26 C24 1_555 1_555
C27 C25 1_555 1_555
O3 C26 1_555 1_555
O4 C26 1_555 1_555
O5 C27 1_555 1_555
O6 C27 1_555 1_555
O7 In1 1_555 1_555
O8 In1 1_555 1_555
O9 C54 1_555 1_555
O10 C54 1_555 1_555
C28 O7 1_555 1_555
C29 C28 1_555 1_555
C30 C29 1_555 1_555
C31 C29 1_555 1_555
H12 C30 1_555 1_555
C32 C30 1_555 1_555
C33 C31 1_555 1_555
H13 C31 1_555 1_555
H14 C32 1_555 1_555
C34 C32 1_555 1_555
H15 C33 1_555 1_555
C35 C34 1_555 1_555
C36 C35 1_555 1_555
C37 C35 1_555 1_555
H16 C36 1_555 1_555
C38 C36 1_555 1_555
C39 C37 1_555 1_555
H17 C37 1_555 1_555
C40 C38 1_555 1_555
C41 C38 1_555 1_555
C42 C39 1_555 1_555
H18 C40 1_555 1_555
C43 C41 1_555 1_555
C44 C41 1_555 1_555
C45 C42 1_555 1_555
C46 C42 1_555 1_555
H19 C43 1_555 1_555
C47 C43 1_555 1_555
C48 C44 1_555 1_555
H20 C44 1_555 1_555
H21 C45 1_555 1_555
C49 C45 1_555 1_555
C50 C46 1_555 1_555
H22 C46 1_555 1_555
H23 C47 1_555 1_555
C51 C47 1_555 1_555
H24 C48 1_555 1_555
H25 C49 1_555 1_555
C52 C49 1_555 1_555
H26 C50 1_555 1_555
C53 C51 1_555 1_555
C54 C52 1_555 1_555
O11 C53 1_555 1_555
O12 C53 1_555 1_555
O13 In1 1_555 1_555
O14 In1 1_555 1_555
C55 O13 1_555 1_555
C56 C55 1_555 1_555
C57 C56 1_555 1_555
C58 C56 1_555 1_555
H27 C57 1_555 1_555
C59 C57 1_555 1_555
C60 C58 1_555 1_555
H28 C58 1_555 1_555
H29 C59 1_555 1_555
C61 C59 1_555 1_555
H30 C60 1_555 1_555
C62 C61 1_555 1_555
C63 C62 1_555 1_555
H31 C63 1_555 1_555
In2 O3 1_555 1_555
O15 In2 1_555 1_555
O16 In2 1_555 1_555
C64 O15 1_555 1_555
C65 C64 1_555 1_555
C66 C65 1_555 1_555
C67 C65 1_555 1_555
H32 C66 1_555 1_555
C68 C66 1_555 1_555
C69 C67 1_555 1_555
H33 C67 1_555 1_555
H34 C68 1_555 1_555
C70 C68 1_555 1_555
H35 C69 1_555 1_555
C71 C70 1_555 1_555
C72 C71 1_555 1_555
H36 C72 1_555 1_555
O13A C55A 1_555 1_555
O14A C55A 1_555 1_555
C55A C56A 1_555 1_555
C56A C57A 1_555 1_555
C57A H27A 1_555 1_555
C58A C56A 1_555 1_555
C59A C57A 1_555 1_555
C60A C58A 1_555 1_555
H28A C58A 1_555 1_555
H29A C59A 1_555 1_555
C61A C59A 1_555 1_555
H30A C60A 1_555 1_555
C62A C63 1_555 1_555
C63A C62A 1_555 1_555
H31A C63A 1_555 1_555
O13B C55B 1_555 1_555
O14B C55B 1_555 1_555
C55B C56B 1_555 1_555
C56B C57B 1_555 1_555
C57B H27B 1_555 1_555
C58B C56B 1_555 1_555
C59B C57B 1_555 1_555
C60B C58B 1_555 1_555
H28B C58B 1_555 1_555
H29B C59B 1_555 1_555
C61B C59B 1_555 1_555
H30B C60B 1_555 1_555
C62B C63A 1_555 1_555
C63B C62 1_555 1_555
H31B C63B 1_555 1_555
O15A C64A 1_555 1_555
O16A C64A 1_555 1_555
C64A C65A 1_555 1_555
C65A C66A 1_555 1_555
C66A H32A 1_555 1_555
C67A C65A 1_555 1_555
C68A C66A 1_555 1_555
C69A C67A 1_555 1_555
H33A C67A 1_555 1_555
H34A C68A 1_555 1_555
C70A C68A 1_555 1_555
H35A C69A 1_555 1_555
C71A C70A 1_555 1_555
C72A C71 1_555 1_555
H36A C72A 1_555 1_555
O15B C64B 1_555 1_555
O16B C64B 1_555 1_555
C64B C65B 1_555 1_555
C65B C66B 1_555 1_555
C66B H32B 1_555 1_555
C67B C65B 1_555 1_555
C68B C66B 1_555 1_555
C69B C67B 1_555 1_555
H33B C67B 1_555 1_555
H34B C68B 1_555 1_555
C70B C68B 1_555 1_555
H35B C69B 1_555 1_555
C71B C72 1_555 1_555
C72B C71A 1_555 1_555
H36B C72B 1_555 1_555
In1A O1A 1_555 1_555
O1A C1A 1_555 1_555
O2A In1A 1_555 1_555
C1A O2A 1_555 1_555
C2A C1A 1_555 1_555
C3A C2A 1_555 1_555
C4A C2A 1_555 1_555
H1A C3A 1_555 1_555
C5A C3A 1_555 1_555
C6A C4A 1_555 1_555
H2A C4A 1_555 1_555
H3A C5A 1_555 1_555
C7A C5A 1_555 1_555
H4A C6A 1_555 1_555
C8A C7A 1_555 1_555
C9A C8A 1_555 1_555
C10A C8A 1_555 1_555
H5A C9A 1_555 1_555
C11A C9A 1_555 1_555
C12A C10A 1_555 1_555
H6A C10A 1_555 1_555
C13A C11A 1_555 1_555
C14A C11A 1_555 1_555
C15A C12A 1_555 1_555
H7A C13A 1_555 1_555
C16A C14A 1_555 1_555
C17A C14A 1_555 1_555
C18A C15A 1_555 1_555
C19A C15A 1_555 1_555
H8A C16A 1_555 1_555
C20A C16A 1_555 1_555
C21A C17A 1_555 1_555
H9A C17A 1_555 1_555
C22A C18A 1_555 1_555
C23A C19A 1_555 1_555
H10A C20A 1_555 1_555
C24A C20A 1_555 1_555
H11A C21A 1_555 1_555
C25A C22A 1_555 1_555
C26A C24A 1_555 1_555
C27A C25A 1_555 1_555
O3A C26A 1_555 1_555
O4A C26A 1_555 1_555
O5A C27A 1_555 1_555
O6A C27A 1_555 1_555
O7A In1A 1_555 1_555
O8A In1A 1_555 1_555
O9A C54A 1_555 1_555
O10A C54A 1_555 1_555
C28A O7A 1_555 1_555
C29A C28A 1_555 1_555
C30A C29A 1_555 1_555
C31A C29A 1_555 1_555
H12A C30A 1_555 1_555
C32A C30A 1_555 1_555
C33A C31A 1_555 1_555
H13A C31A 1_555 1_555
H14A C32A 1_555 1_555
C34A C32A 1_555 1_555
H15A C33A 1_555 1_555
C35A C34A 1_555 1_555
C36A C35A 1_555 1_555
C37A C35A 1_555 1_555
H16A C36A 1_555 1_555
C38A C36A 1_555 1_555
C39A C37A 1_555 1_555
H17A C37A 1_555 1_555
C40A C38A 1_555 1_555
C41A C38A 1_555 1_555
C42A C39A 1_555 1_555
H18A C40A 1_555 1_555
C43A C41A 1_555 1_555
C44A C41A 1_555 1_555
C45A C42A 1_555 1_555
C46A C42A 1_555 1_555
H19A C43A 1_555 1_555
C47A C43A 1_555 1_555
C48A C44A 1_555 1_555
H20A C44A 1_555 1_555
H21A C45A 1_555 1_555
C49A C45A 1_555 1_555
C50A C46A 1_555 1_555
H22A C46A 1_555 1_555
H23A C47A 1_555 1_555
C51A C47A 1_555 1_555
H24A C48A 1_555 1_555
H25A C49A 1_555 1_555
C52A C49A 1_555 1_555
H26A C50A 1_555 1_555
C53A C51A 1_555 1_555
C54A C52A 1_555 1_555
O11A C53A 1_555 1_555
O12A C53A 1_555 1_555
In2A O15A 1_555 1_555
In1B O1B 1_555 1_555
O1B C1B 1_555 1_555
O2B In1B 1_555 1_555
C1B O2B 1_555 1_555
C2B C1B 1_555 1_555
C3B C2B 1_555 1_555
C4B C2B 1_555 1_555
H1B C3B 1_555 1_555
C5B C3B 1_555 1_555
C6B C4B 1_555 1_555
H2B C4B 1_555 1_555
H3B C5B 1_555 1_555
C7B C5B 1_555 1_555
H4B C6B 1_555 1_555
C8B C7B 1_555 1_555
C9B C8B 1_555 1_555
C10B C8B 1_555 1_555
H5B C9B 1_555 1_555
C11B C9B 1_555 1_555
C12B C10B 1_555 1_555
H6B C10B 1_555 1_555
C13B C11B 1_555 1_555
C14B C11B 1_555 1_555
C15B C12B 1_555 1_555
H7B C13B 1_555 1_555
C16B C14B 1_555 1_555
C17B C14B 1_555 1_555
C18B C15B 1_555 1_555
C19B C15B 1_555 1_555
H8B C16B 1_555 1_555
C20B C16B 1_555 1_555
C21B C17B 1_555 1_555
H9B C17B 1_555 1_555
C22B C18B 1_555 1_555
C23B C19B 1_555 1_555
H10B C20B 1_555 1_555
C24B C20B 1_555 1_555
H11B C21B 1_555 1_555
C25B C22B 1_555 1_555
C26B C24B 1_555 1_555
C27B C25B 1_555 1_555
O3B C26B 1_555 1_555
O4B C26B 1_555 1_555
O5B C27B 1_555 1_555
O6B C27B 1_555 1_555
O7B In1B 1_555 1_555
O8B In1B 1_555 1_555
O9B C54B 1_555 1_555
O10B C54B 1_555 1_555
C28B O7B 1_555 1_555
C29B C28B 1_555 1_555
C30B C29B 1_555 1_555
C31B C29B 1_555 1_555
H12B C30B 1_555 1_555
C32B C30B 1_555 1_555
C33B C31B 1_555 1_555
H13B C31B 1_555 1_555
H14B C32B 1_555 1_555
C34B C32B 1_555 1_555
H15B C33B 1_555 1_555
C35B C34B 1_555 1_555
C36B C35B 1_555 1_555
C37B C35B 1_555 1_555
H16B C36B 1_555 1_555
C38B C36B 1_555 1_555
C39B C37B 1_555 1_555
H17B C37B 1_555 1_555
C40B C38B 1_555 1_555
C41B C38B 1_555 1_555
C42B C39B 1_555 1_555
H18B C40B 1_555 1_555
C43B C41B 1_555 1_555
C44B C41B 1_555 1_555
C45B C42B 1_555 1_555
C46B C42B 1_555 1_555
H19B C43B 1_555 1_555
C47B C43B 1_555 1_555
C48B C44B 1_555 1_555
H20B C44B 1_555 1_555
H21B C45B 1_555 1_555
C49B C45B 1_555 1_555
C50B C46B 1_555 1_555
H22B C46B 1_555 1_555
H23B C47B 1_555 1_555
C51B C47B 1_555 1_555
H24B C48B 1_555 1_555
H25B C49B 1_555 1_555
C52B C49B 1_555 1_555
H26B C50B 1_555 1_555
C53B C51B 1_555 1_555
C54B C52B 1_555 1_555
O11B C53B 1_555 1_555
O12B C53B 1_555 1_555
In2B O15B 1_555 1_555
In1A_2 O13A 1_555 1_555
In1B_2 O13B 1_555 1_555
In1F O9B 1_555 1_555
In1G O9 1_555 1_555
In1H O9A 1_555 1_555
O5C In2B 1_555 1_555
O5D In2 1_555 1_555
O5E In2A 1_555 1_555
O6C In2B 1_555 1_555
O6D In2 1_555 1_555
O6E In2A 1_555 1_555
O9C In1A 1_555 1_555
O9D In1B 1_555 1_555
O9E In1 1_555 1_555
O10C In1A 1_555 1_555
O10D In1B 1_555 1_555
O10E In1 1_555 1_555
O11F In2B 1_555 1_555
O11G In2 1_555 1_555
O11H In2A 1_555 1_555
O13A_2 In1A 1_555 1_555
O13B_2 In1B 1_555 1_555
O14A_2 In1A 1_555 1_555
O14B_2 In1B 1_555 1_555
In2C O11A 1_555 1_555
In2D O11B 1_555 1_555
In2E O11 1_555 1_555
In2F O5A 1_555 1_555
In2G O5B 1_555 1_555
In2H O5 1_555 1_555
C6 C7 1_555 1_555
C12 C13 1_555 1_555
C21 C24 1_555 1_555
C23 C25 1_555 1_555
O4 In2 1_555 1_555
O6 In2H 1_555 1_555
O8 C28 1_555 1_555
O10 In1G 1_555 1_555
C33 C34 1_555 1_555
C39 C40 1_555 1_555
C48 C51 1_555 1_555
C50 C52 1_555 1_555
O14 C55 1_555 1_555
C60 C61 1_555 1_555
O16 C64 1_555 1_555
C69 C70 1_555 1_555
O14A In1A_2 1_555 1_555
C60A C61A 1_555 1_555
C61A C62A 1_555 1_555
O14B In1B_2 1_555 1_555
C60B C61B 1_555 1_555
C61B C62B 1_555 1_555
C62B C63B 1_555 1_555
O16A In2A 1_555 1_555
C69A C70A 1_555 1_555
C71A C72A 1_555 1_555
O16B In2B 1_555 1_555
C69B C70B 1_555 1_555
C70B C71B 1_555 1_555
C71B C72B 1_555 1_555
C6A C7A 1_555 1_555
C12A C13A 1_555 1_555
C21A C24A 1_555 1_555
C23A C25A 1_555 1_555
O3A In2A 1_555 1_555
O4A In2A 1_555 1_555
O6A In2F 1_555 1_555
O8A C28A 1_555 1_555
O10A In1H 1_555 1_555
C33A C34A 1_555 1_555
C39A C40A 1_555 1_555
C48A C51A 1_555 1_555
C50A C52A 1_555 1_555
C6B C7B 1_555 1_555
C12B C13B 1_555 1_555
C21B C24B 1_555 1_555
C23B C25B 1_555 1_555
O3B In2B 1_555 1_555
O4B In2B 1_555 1_555
O6B In2G 1_555 1_555
O8B C28B 1_555 1_555
O10B In1F 1_555 1_555
C33B C34B 1_555 1_555
C39B C40B 1_555 1_555
C48B C51B 1_555 1_555
C50B C52B 1_555 1_555

#END
