
#######################################################################
#
#                 Cambridge Crystallographic Data Centre
#                                CCDC 
#
#######################################################################
#
# If this CIF has been generated from an entry in the Cambridge 
# Structural Database, then it will include bibliographic, chemical, 
# crystal, experimental, refinement or atomic coordinate data resulting 
# from the CCDC's data processing and validation procedures.
#
#######################################################################

data_IGUTEK
_chemical_formula_moiety         '(C6 H9 Al6 N3 O26 P6 6-)n'
_symmetry_cell_setting           rhombohedral
_symmetry_space_group_name_H-M   'R -3'
_symmetry_Int_Tables_number      148
_space_group_name_Hall           '-R 3'
loop_
_symmetry_equiv_pos_site_id
_symmetry_equiv_pos_as_xyz
1 x,y,z
2 -y,x-y,z
3 -x+y,-x,z
4 2/3+x,1/3+y,1/3+z
5 2/3-y,1/3+x-y,1/3+z
6 2/3-x+y,1/3-x,1/3+z
7 1/3+x,2/3+y,2/3+z
8 1/3-y,2/3+x-y,2/3+z
9 1/3-x+y,2/3-x,2/3+z
10 -x,-y,-z
11 y,-x+y,-z
12 x-y,x,-z
13 1/3-x,2/3-y,2/3-z
14 1/3+y,2/3-x+y,2/3-z
15 1/3+x-y,2/3+x,2/3-z
16 2/3-x,1/3-y,1/3-z
17 2/3+y,1/3-x+y,1/3-z
18 2/3+x-y,1/3+x,1/3-z
_cell_length_a                   13.542(3)
_cell_length_b                   13.542(3)
_cell_length_c                   15.192(6)
_cell_angle_alpha                90
_cell_angle_beta                 90
_cell_angle_gamma                120
_cell_volume                     2412.74
loop_
_atom_site_label
_atom_site_type_symbol
_atom_site_fract_x
_atom_site_fract_y
_atom_site_fract_z
C1 C 0.1228(13) 0.0608(14) 0.3498(13)
C2 C 0.0627(12) 0.1226(12) 0.3571(13)
N1 N 0.128(2) 0.253(2) 0.348(3)
H1 H 0.2016 0.2799 0.3572
H2 H 0.1017 0.2828 0.3885
H3 H 0.1168 0.2726 0.2948
C1A C -0.0608(14) 0.0620(19) 0.3498(13)
C1B C -0.0620(19) -0.1228(13) 0.3498(13)
C2A C -0.1226(12) -0.0599(17) 0.3571(13)
C2B C 0.0599(17) -0.0627(12) 0.3571(13)
N1B N 0.125(3) -0.128(2) 0.348(3)
N1A N -0.253(2) -0.125(3) 0.348(3)
H1B H 0.0783 -0.2016 0.3572
H1A H -0.2799 -0.0783 0.3572
H2B H 0.1811 -0.1017 0.3885
H2A H -0.2828 -0.1811 0.3885
H3B H 0.1558 -0.1168 0.2948
H3A H -0.2726 -0.1558 0.2948
O5 O 0.001(2) 0.002(2) -0.003(3)
O5I O -0.001(2) -0.002(2) 0.003(3)
P1 P 0.23319(16) -0.00010(15) 0.10023(12)
Al1 Al 0.23342(15) 0.00057(16) -0.10044(12)
O1 O 0.2739(4) 0.0003(4) -0.0008(3)
O2 O 0.3344(4) 0.0151(4) 0.1669(3)
O3 O 0.2053(4) 0.1037(4) 0.1133(3)
O4 O 0.1200(4) -0.1212(4) 0.1237(3)
P1G P 0.33343(15) -0.10004(22) -0.23310(12)
P1J P -0.00010(15) -0.23329(22) -0.10023(12)
P1K P 0.23329(22) 0.23319(16) -0.10023(12)
P1E P 0.43338(22) 0.10014(16) -0.56644(12)
P1N P 0.56662(22) -0.10014(16) -0.43356(12)
Al1G Al 0.33276(16) -0.10048(22) -0.43377(12)
Al1J Al 0.00057(16) -0.23285(22) 0.10044(12)
Al1K Al 0.23285(22) 0.23342(15) 0.10044(12)
Al1E Al 0.43382(22) 0.09991(15) 0.23289(12)
Al1L Al 0.09991(15) -0.33390(16) -0.23289(12)
Al1N Al 0.56618(22) -0.09991(15) -0.23289(12)
Al1B Al -0.23285(22) -0.23342(15) -0.10044(12)
Al1M Al 0.33390(16) 0.43382(22) -0.23289(12)
Al1A Al -0.00057(16) 0.23285(22) -0.10044(12)
Al1E_2 Al 0.43382(22) 0.09991(15) -0.76711(12)
Al1P Al 0.66724(16) 0.10048(22) -0.56623(12)
Al1O Al 0.43325(15) 0.33276(16) -0.56623(12)
Al1F Al 0.56675(15) -0.33276(16) -0.43377(12)
O1G O 0.3330(4) -0.0597(6) -0.3341(3)
O1J O 0.0003(4) -0.2736(6) 0.0008(3)
O1K O 0.2736(6) 0.2739(4) 0.0008(3)
O1E O 0.3931(6) 0.0594(4) -0.6675(3)
O1N O 0.6069(6) -0.0594(4) -0.3325(3)
O1E_2 O 0.3931(6) 0.0594(4) 0.3325(3)
O1L O 0.0594(4) -0.3336(4) -0.3325(3)
O2G O 0.3182(4) -0.0140(6) -0.1664(3)
O2J O 0.0151(4) -0.3193(6) -0.1669(3)
O2K O 0.3193(6) 0.3344(4) -0.1669(3)
O2E O 0.3474(6) -0.0011(4) -0.4998(3)
O2N O 0.6526(6) 0.0011(4) -0.5002(3)
O2Q O -0.0140(6) -0.3323(4) 0.1664(3)
O2O O 0.3323(4) 0.3182(4) 0.1664(3)
O3G O 0.2296(4) -0.2317(6) -0.2200(3)
O3J O 0.1037(4) -0.1016(6) -0.1133(3)
O3K O 0.1016(6) 0.2053(4) -0.1133(3)
O3E O 0.5651(6) 0.1280(4) -0.5534(3)
O3N O 0.4349(6) -0.1280(4) -0.4466(3)
O3B O -0.1016(6) -0.2053(4) 0.1133(3)
O3O O 0.4614(4) 0.2296(4) 0.2200(3)
O4G O 0.4545(4) -0.0921(6) -0.2096(3)
O4J O -0.1212(4) -0.2412(6) -0.1237(3)
O4K O 0.2412(6) 0.1200(4) -0.1237(3)
O4E O 0.4255(6) 0.2133(4) -0.5430(3)
O4N O 0.5745(6) -0.2133(4) -0.4570(3)
O4L O 0.2133(4) -0.2121(4) -0.4570(3)
O4A O 0.1212(4) 0.2412(6) 0.1237(3)
O4P O 0.5455(4) 0.0921(6) 0.2096(3)
O4H O 0.0921(6) -0.4533(4) -0.2096(3)
loop_
_geom_bond_atom_site_label_1
_geom_bond_atom_site_label_2
_geom_bond_site_symmetry_1
_geom_bond_site_symmetry_2
P1 O1 1_555 1_555
Al1 O1 1_555 1_555
O2 P1 1_555 1_555
O3 P1 1_555 1_555
O4 P1 1_555 1_555
C1 C2 1_555 1_555
C2 N1 1_555 1_555
N1 H1 1_555 1_555
H2 N1 1_555 1_555
H3 N1 1_555 1_555
O5 O5I 1_555 1_555
P1G O1G 1_555 1_555
P1J O1J 1_555 1_555
P1K O1K 1_555 1_555
P1E O1E 1_555 1_555
P1N O1N 1_555 1_555
Al1G O1G 1_555 1_555
Al1J O4 1_555 1_555
Al1K O3 1_555 1_555
Al1E O2 1_555 1_555
Al1L O1L 1_555 1_555
Al1N O1N 1_555 1_555
Al1B O4J 1_555 1_555
Al1M O2K 1_555 1_555
Al1A O3K 1_555 1_555
Al1E_2 O1E 1_555 1_555
Al1P O2N 1_555 1_555
Al1O O4E 1_555 1_555
Al1F O4N 1_555 1_555
O1J Al1J 1_555 1_555
O1K Al1K 1_555 1_555
O1E_2 Al1E 1_555 1_555
O2G Al1 1_555 1_555
O2J P1J 1_555 1_555
O2K P1K 1_555 1_555
O2E P1E 1_555 1_555
O2N P1N 1_555 1_555
O2Q Al1J 1_555 1_555
O2O Al1K 1_555 1_555
O3G P1G 1_555 1_555
O3J Al1 1_555 1_555
O3K P1K 1_555 1_555
O3E P1E 1_555 1_555
O3N P1N 1_555 1_555
O3B Al1J 1_555 1_555
O3O Al1E 1_555 1_555
O4G P1G 1_555 1_555
O4J P1J 1_555 1_555
O4K Al1 1_555 1_555
O4E P1E 1_555 1_555
O4N P1N 1_555 1_555
O4L Al1G 1_555 1_555
O4A Al1K 1_555 1_555
O4P Al1E 1_555 1_555
O4H Al1L 1_555 1_555
C1A C2 1_555 1_555
C1B C2A 1_555 1_555
C2A C1A 1_555 1_555
C2B C1 1_555 1_555
N1B C2B 1_555 1_555
N1A C2A 1_555 1_555
H1B N1B 1_555 1_555
H1A N1A 1_555 1_555
H2B N1B 1_555 1_555
H2A N1A 1_555 1_555
H3B N1B 1_555 1_555
H3A N1A 1_555 1_555
P1G O2G 1_555 1_555
P1J O3J 1_555 1_555
P1K O4K 1_555 1_555
Al1G O2E 1_555 1_555
Al1G O3N 1_555 1_555
Al1L O2J 1_555 1_555
Al1L O3G 1_555 1_555
Al1N O4G 1_555 1_555
Al1P O3E 1_555 1_555
C1B C2B 1_555 1_555

#END
