
#######################################################################
#
#                 Cambridge Crystallographic Data Centre
#                                CCDC 
#
#######################################################################
#
# If this CIF has been generated from an entry in the Cambridge 
# Structural Database, then it will include bibliographic, chemical, 
# crystal, experimental, refinement or atomic coordinate data resulting 
# from the CCDC's data processing and validation procedures.
#
#######################################################################

data_YOCGAZ
_chemical_formula_moiety         '(C31 H27 N1 O11 Si1 Zn2)n'
_symmetry_cell_setting           orthorhombic
_symmetry_space_group_name_H-M   'P n n a'
_symmetry_Int_Tables_number      52
_space_group_name_Hall           '-P 2a 2bc'
loop_
_symmetry_equiv_pos_site_id
_symmetry_equiv_pos_as_xyz
1 x,y,z
2 1/2-x,-y,z
3 1/2-x,1/2+y,1/2-z
4 x,1/2-y,1/2-z
5 -x,-y,-z
6 1/2+x,y,-z
7 1/2+x,1/2-y,1/2+z
8 -x,1/2+y,1/2+z
_cell_length_a                   12.4868(7)
_cell_length_b                   13.0255(7)
_cell_length_c                   23.7555(13)
_cell_angle_alpha                90
_cell_angle_beta                 90
_cell_angle_gamma                90
_cell_volume                     3863.76
loop_
_atom_site_label
_atom_site_type_symbol
_atom_site_fract_x
_atom_site_fract_y
_atom_site_fract_z
Zn1 Zn 0.24070(4) 0.7500 0.7500
Zn2 Zn 0.2500 0.5000 0.79852(2)
Si1 Si 0.2500 1.0000 1.03842(5)
O1 O 0.2222(2) 0.64939(18) 0.82341(9)
O2 O 0.3423(3) 0.5703(2) 0.87567(11)
O3 O 0.66109(19) 1.16292(17) 1.20685(9)
O4 O 0.6297(2) 1.00861(17) 1.24518(10)
O5 O 0.0845(3) 0.7500 0.7500
C1 C 0.2610(2) 0.8864(3) 0.99050(12)
C2 C 0.3372(3) 0.8087(3) 0.99549(13)
H1 H 0.3865 0.8101 1.0260
C3 C 0.3421(3) 0.7296(3) 0.95660(14)
H2 H 0.3941 0.6769 0.9608
C4 C 0.2709(3) 0.7268(3) 0.91129(13)
C5 C 0.1930(3) 0.8020(3) 0.90609(13)
H3 H 0.1434 0.8000 0.8758
C6 C 0.1883(3) 0.8803(3) 0.94568(13)
H4 H 0.1342 0.9312 0.9423
C7 C 0.2809(3) 0.6444(3) 0.86812(13)
C8 C 0.3676(2) 1.0188(2) 1.08606(12)
C9 C 0.4001(3) 0.9431(2) 1.12422(13)
H5 H 0.3670 0.8775 1.1230
C10 C 0.4793(3) 0.9617(2) 1.16366(13)
H6 H 0.5001 0.9089 1.1891
C11 C 0.5287(2) 1.0571(2) 1.16618(12)
C12 C 0.4985(3) 1.1327(3) 1.12850(16)
H7 H 0.5323 1.1980 1.1297
C13 C 0.4192(3) 1.1137(3) 1.08886(15)
H8 H 0.3997 1.1663 1.0631
C14 C 0.6138(2) 1.0779(2) 1.20955(12)
Zn1G Zn 0.75930(4) 1.2500 1.2500
Zn1A Zn 0.25930(4) 1.2500 0.7500
Zn1E Zn -0.25930(4) 0.7500 1.2500
Zn2F Zn 0.7500 1.0000 1.29852(2)
Zn2_2 Zn 0.2500 1.5000 0.79852(2)
Zn2F_2 Zn -0.2500 1.0000 1.29852(2)
O1A O 0.2778(2) 1.35061(18) 0.82341(9)
O1C O 0.2222(2) 0.85061(18) 0.67659(9)
O1A_2 O 0.2778(2) 0.35061(18) 0.82341(9)
O2A O 0.1577(3) 1.4297(2) 0.87567(11)
O2A_2 O 0.1577(3) 0.4297(2) 0.87567(11)
O3A O -0.16109(19) 0.83708(17) 1.20685(9)
O3G O 0.33891(19) 0.66292(17) 0.70685(9)
O3D O 0.33891(19) 0.83708(17) 0.79315(9)
O4A O -0.1297(2) 0.99139(17) 1.24518(10)
O4F O 0.1297(2) 0.49139(17) 0.74518(10)
O4G O 0.3703(2) 0.50861(17) 0.74518(10)
C1A C 0.2390(2) 1.1136(3) 0.99050(12)
C2A C 0.1628(3) 1.1913(3) 0.99549(13)
H1A H 0.1135 1.1899 1.0260
C3A C 0.1579(3) 1.2704(3) 0.95660(14)
H2A H 0.1059 1.3231 0.9608
C4A C 0.2291(3) 1.2732(3) 0.91129(13)
C5A C 0.3070(3) 1.1980(3) 0.90609(13)
H3A H 0.3566 1.2000 0.8758
C6A C 0.3117(3) 1.1197(3) 0.94568(13)
H4A H 0.3658 1.0688 0.9423
C7A C 0.2191(3) 1.3556(3) 0.86812(13)
C8A C 0.1324(2) 0.9812(2) 1.08606(12)
C9A C 0.0999(3) 1.0569(2) 1.12422(13)
H5A H 0.1330 1.1225 1.1230
C10A C 0.0207(3) 1.0383(2) 1.16366(13)
H6A H -0.0001 1.0911 1.1891
C11A C -0.0287(2) 0.9429(2) 1.16618(12)
C12A C 0.0015(3) 0.8673(3) 1.12850(16)
H7A H -0.0323 0.8020 1.1297
C13A C 0.0808(3) 0.8863(3) 1.08886(15)
H8A H 0.1003 0.8337 1.0631
C14A C -0.1138(2) 0.9221(2) 1.20955(12)
O6 O 0.9487(4) 0.6845(4) 0.8272(2)
N1 N 0.8907(16) 0.5368(17) 0.8774(8)
C15 C 0.9533(14) 0.6058(13) 0.8343(7)
C16 C 0.808(2) 0.596(2) 0.9032(10)
C17 C 0.888(3) 0.423(3) 0.8912(13)
O7 O 0.004(2) 0.5599(17) 0.9322(12)
loop_
_geom_bond_atom_site_label_1
_geom_bond_atom_site_label_2
_geom_bond_site_symmetry_1
_geom_bond_site_symmetry_2
Zn1 O1 1_555 1_555
Zn2 O1 1_555 1_555
Si1 C1 1_555 1_555
O1 C7 1_555 1_555
O2 Zn2 1_555 1_555
O3 C14 1_555 1_555
O4 C14 1_555 1_555
O5 Zn1 1_555 1_555
C1 C2 1_555 1_555
C2 H1 1_555 1_555
C3 C2 1_555 1_555
H2 C3 1_555 1_555
C4 C3 1_555 1_555
C5 C4 1_555 1_555
H3 C5 1_555 1_555
C6 C1 1_555 1_555
H4 C6 1_555 1_555
C7 O2 1_555 1_555
C8 Si1 1_555 1_555
C9 C8 1_555 1_555
H5 C9 1_555 1_555
C10 C9 1_555 1_555
H6 C10 1_555 1_555
C11 C10 1_555 1_555
C12 C11 1_555 1_555
H7 C12 1_555 1_555
C13 C8 1_555 1_555
H8 C13 1_555 1_555
C14 C11 1_555 1_555
O6 C15 1_555 1_555
N1 C15 1_555 1_555
C16 N1 1_555 1_555
C17 N1 1_555 1_555
Zn1G O3 1_555 1_555
Zn1A O1A 1_555 1_555
Zn1E O3A 1_555 1_555
Zn2F O4 1_555 1_555
Zn2_2 O1A 1_555 1_555
Zn2F_2 O4A 1_555 1_555
O1A C7A 1_555 1_555
O1C Zn1 1_555 1_555
O1A_2 Zn2 1_555 1_555
O2A Zn2_2 1_555 1_555
O2A_2 Zn2 1_555 1_555
O3A C14A 1_555 1_555
O3G Zn1 1_555 1_555
O3D Zn1 1_555 1_555
O4A C14A 1_555 1_555
O4F Zn2 1_555 1_555
O4G Zn2 1_555 1_555
C1A Si1 1_555 1_555
C2A C1A 1_555 1_555
H1A C2A 1_555 1_555
C3A C2A 1_555 1_555
H2A C3A 1_555 1_555
C4A C3A 1_555 1_555
C5A C4A 1_555 1_555
H3A C5A 1_555 1_555
C6A C1A 1_555 1_555
H4A C6A 1_555 1_555
C7A O2A 1_555 1_555
C8A Si1 1_555 1_555
C9A C8A 1_555 1_555
H5A C9A 1_555 1_555
C10A C9A 1_555 1_555
H6A C10A 1_555 1_555
C11A C10A 1_555 1_555
C12A C11A 1_555 1_555
H7A C12A 1_555 1_555
C13A C8A 1_555 1_555
H8A C13A 1_555 1_555
C14A C11A 1_555 1_555
C4 C7 1_555 1_555
C5 C6 1_555 1_555
C12 C13 1_555 1_555
C4A C7A 1_555 1_555
C5A C6A 1_555 1_555
C12A C13A 1_555 1_555

#END
