
#######################################################################
#
#                 Cambridge Crystallographic Data Centre
#                                CCDC 
#
#######################################################################
#
# If this CIF has been generated from an entry in the Cambridge 
# Structural Database, then it will include bibliographic, chemical, 
# crystal, experimental, refinement or atomic coordinate data resulting 
# from the CCDC's data processing and validation procedures.
#
#######################################################################

data_HISSIN
_chemical_formula_moiety         '(C66 H58 Eu4 N2 O34)n'
_symmetry_cell_setting           triclinic
_symmetry_space_group_name_H-M   'P -1'
_symmetry_Int_Tables_number      2
_space_group_name_Hall           '-P 1'
loop_
_symmetry_equiv_pos_site_id
_symmetry_equiv_pos_as_xyz
1 x,y,z
2 -x,-y,-z
_cell_length_a                   12.949(5)
_cell_length_b                   13.869(5)
_cell_length_c                   27.972(5)
_cell_angle_alpha                104.315(5)
_cell_angle_beta                 98.301(5)
_cell_angle_gamma                94.349(5)
_cell_volume                     4783.82
loop_
_atom_site_label
_atom_site_type_symbol
_atom_site_fract_x
_atom_site_fract_y
_atom_site_fract_z
Eu1 Eu 0.619550(13) 0.074700(12) 0.553953(6)
Eu2 Eu 0.015886(14) 0.104823(12) 0.086367(6)
Eu3 Eu 0.531385(13) -0.435862(12) -0.060788(6)
Eu4 Eu 1.028818(14) 0.454336(13) 0.415259(6)
O1 O 1.0719(3) 0.3197(3) 0.35402(13)
C1 C 0.5710(3) 0.1007(3) 0.43529(13)
C2 C 0.6507(3) 0.6326(3) 0.06363(13)
O2 O 0.0982(2) -0.02633(19) 0.04556(10)
O3 O 0.4817(2) 0.0507(2) 0.42273(10)
C3 C 0.1319(3) -0.1008(3) 0.02108(14)
C4 C 0.2000(3) -0.1597(2) 0.04819(13)
O4 O 0.8875(2) 0.95189(19) 0.06672(9)
O5 O 1.0539(3) 0.7189(2) 0.40336(12)
O6 O 0.6240(2) 0.64881(19) 0.02162(9)
O7 O 0.6311(2) 0.1112(2) 0.47552(9)
C5 C 0.3997(3) -0.1735(3) 0.25822(15)
H1 H 0.4633 -0.1836 0.2754
C6 C 0.7341(3) 0.2579(3) 0.37465(14)
C7 C 0.5662(3) 0.1998(3) 0.31981(14)
C8 C 0.4897(3) 0.2009(3) 0.27527(15)
O8 O 0.1159(2) 0.1685(2) 0.02955(10)
C9 C 0.9015(4) 0.6261(3) 0.23027(15)
H2 H 0.8768 0.5749 0.2015
C10 C 0.9008(3) 0.8285(3) 0.16715(14)
H3 H 0.9550 0.8716 0.1895
O9 O 1.1090(2) 0.6170(2) 0.47258(10)
O10 O 0.90507(19) 0.31624(19) 0.42347(9)
O11 O 0.9949(2) 0.9890(2) 0.13915(10)
O12 O 0.8982(2) 0.5237(2) 0.45727(12)
C11 C 0.8556(3) 0.7467(3) 0.18048(14)
O13 O 0.1742(2) 0.1496(2) 0.14169(11)
O14 O 0.0351(2) 0.2881(2) 0.11150(12)
O15 O 0.4529(2) 0.5340(3) 0.14513(10)
O16 O 0.7026(2) 0.92526(19) 0.52585(10)
C12 C 0.6430(3) 0.8766(3) 0.48704(13)
C13 C 0.5385(3) 0.1473(3) 0.35398(14)
H4 H 0.4735 0.1088 0.3471
O17 O 0.2787(3) -0.0698(3) 0.36428(11)
O18 O 0.4137(2) -0.1550(2) 0.36130(10)
O19 O 0.3918(2) -0.3530(2) -0.02589(10)
C14 C 0.6759(3) 0.7818(3) 0.45724(13)
O20 O 0.6104(2) 0.56215(19) 0.07825(10)
O21 O 0.5562(2) 0.90492(19) 0.47233(10)
C15 C 0.5041(4) 0.5964(4) 0.25034(17)
H5 H 0.4410 0.6123 0.2354
C16 C 0.3326(3) 0.2147(3) 0.19731(14)
O22 O 0.5577(3) -0.2614(2) -0.06238(12)
O23 O 0.8736(2) 0.6194(2) 0.52893(10)
O24 O 0.8603(2) 0.3758(2) 0.35833(10)
C17 C 0.6651(3) 0.2558(3) 0.33167(14)
H6 H 0.6850 0.2925 0.3101
O25 O 1.0092(2) 0.5592(2) 0.36359(10)
C18 C 0.3139(3) -0.2892(3) 0.04474(13)
O26 O 0.6428(3) 0.2561(2) 0.56865(12)
C19 C 0.9363(4) 0.7985(3) 0.27159(16)
H7 H 0.9346 0.8653 0.2713
C20 C 0.7841(3) 0.6478(3) 0.45586(13)
C21 C 0.4182(3) 0.1198(3) 0.24989(16)
H8 H 0.4214 0.0597 0.2588
O27 O 0.5672(3) 0.4268(2) 0.14168(9)
C22 C 0.2438(3) 0.2255(3) 0.15945(14)
O28 O 1.2155(2) 0.4909(2) 0.40682(12)
O29 O 0.4002(2) -0.43522(19) 0.03259(10)
O30 O 0.1137(2) -0.1315(2) -0.02565(10)
C23 C 1.0174(3) 0.6506(3) 0.36476(15)
C24 C 0.8574(3) 0.5940(3) 0.48235(14)
C25 C 0.9409(4) 0.6020(3) 0.27369(15)
H9 H 0.9426 0.5352 0.2740
C26 C 0.6065(3) 0.1519(3) 0.39781(13)
N1 N 0.6086(4) -0.0956(3) -0.0261(2)
C27 C 0.5375(4) 0.6348(4) 0.30174(16)
H10 H 0.4961 0.6755 0.3206
C28 C 0.5780(5) -0.1877(4) -0.0250(3)
O31 O 0.2398(2) 0.3060(2) 0.14755(11)
C29 C 0.2895(3) -0.1792(3) 0.18029(14)
C30 C 0.2134(3) -0.1423(3) 0.09969(13)
H11 H 0.1806 -0.0918 0.1181
C31 C 0.8667(3) 0.8468(3) 0.12138(13)
C32 C 0.6707(3) 0.6551(3) 0.37970(13)
O32 O 0.7137(2) -0.4051(3) -0.07441(12)
C33 C 0.3726(3) -0.3658(3) 0.01507(14)
C34 C 0.4060(4) 0.2961(4) 0.22181(17)
H12 H 0.4037 0.3555 0.2121
C35 C 0.3212(3) -0.1395(3) 0.28423(13)
C36 C 0.8978(3) 0.7242(3) 0.22828(14)
C37 C 0.4827(4) 0.2902(4) 0.26056(17)
H13 H 0.5304 0.3463 0.2771
C38 C 0.5621(3) 0.5360(3) 0.22162(14)
C39 C 0.3412(3) 0.1263(3) 0.21121(15)
H14 H 0.2944 0.0700 0.1942
C40 C 0.2744(3) -0.1986(3) 0.12443(13)
C41 C 0.6354(3) 0.7410(3) 0.40687(13)
H15 H 0.5841 0.7714 0.3911
O33 O -0.1275(3) 0.1559(3) 0.13226(14)
C42 C 0.3229(3) -0.2747(3) 0.09646(13)
H16 H 0.3610 -0.3157 0.1123
C43 C 0.3842(3) -0.1924(3) 0.20715(15)
H17 H 0.4380 -0.2145 0.1900
C44 C 0.9771(4) 0.7755(3) 0.31535(16)
H18 H 1.0040 0.8270 0.3438
C45 C 0.7039(3) 0.2072(3) 0.40814(13)
H19 H 0.7493 0.2104 0.4376
C46 C 0.7858(3) 0.7836(3) 0.08755(14)
H20 H 0.7639 0.7955 0.0566
C47 C 0.7502(3) 0.7349(3) 0.48144(13)
H21 H 0.7773 0.7625 0.5152
C48 C 0.7376(3) 0.7023(3) 0.10025(13)
C49 C 0.8394(3) 0.3198(3) 0.38589(14)
C50 C 0.6315(3) 0.6133(3) 0.32503(14)
O34 O 0.8111(3) 0.1160(3) 0.55657(15)
C51 C 0.2520(3) -0.2319(3) 0.02084(13)
H22 H 0.2455 -0.2420 -0.0136
C52 C 0.9784(3) 0.6780(3) 0.31733(14)
C53 C 0.6513(4) 0.5081(3) 0.24461(15)
H23 H 0.6888 0.4626 0.2259
C54 C 0.7724(3) 0.6849(3) 0.14624(14)
H24 H 0.7397 0.6308 0.1547
C55 C 0.6865(4) 0.5472(4) 0.29572(15)
H25 H 0.7482 0.5285 0.3105
C56 C 0.5259(3) 0.4963(3) 0.16626(14)
C57 C 0.2116(3) -0.1449(4) 0.20686(15)
H26 H 0.1477 -0.1352 0.1898
C58 C 0.7457(3) 0.6099(3) 0.40480(13)
H27 H 0.7707 0.5531 0.3871
C59 C 0.9195(3) 0.9341(3) 0.10850(14)
C60 C 0.2277(3) -0.1247(4) 0.25851(14)
H28 H 0.1748 -0.1009 0.2759
C61 C 0.3397(3) -0.1199(3) 0.34034(14)
C62 C 0.6398(6) -0.0139(5) 0.0184(3)
H29 H 0.6122 -0.0305 0.0458
H30 H 0.6128 0.0456 0.0126
H31 H 0.7151 -0.0024 0.0263
C63 C 0.6166(8) -0.0781(6) -0.0760(3)
H32 H 0.6875 -0.0823 -0.0820
H33 H 0.5975 -0.0128 -0.0765
H34 H 0.5699 -0.1280 -0.1016
C64 C 1.1234(13) 0.2608(11) 0.3576(5)
N2 N 1.1192(6) 0.1791(4) 0.3061(4)
C65 C 1.0748(9) 0.1042(8) 0.2582(4)
C66 C 1.2127(11) 0.1525(14) 0.3344(5)
Eu1_2 Eu 0.619550(13) 1.074700(12) 0.553953(6)
Eu1A Eu 0.380450(13) -0.074700(12) 0.446047(6)
Eu1A_2 Eu 0.380450(13) 0.925300(12) 0.446047(6)
Eu2_2 Eu 1.015886(14) 1.104823(12) 0.086367(6)
Eu2A Eu -0.015886(14) -0.104823(12) -0.086367(6)
Eu3_2 Eu 0.531385(13) 0.564138(12) -0.060788(6)
Eu3A Eu 0.468615(13) -0.564138(12) 0.060788(6)
Eu3A_2 Eu 0.468615(13) 0.435862(12) 0.060788(6)
Eu4A Eu 0.971182(14) 0.545664(13) 0.584741(6)
O3A O 0.5183(2) -0.0507(2) 0.57727(10)
O4_2 O -0.1125(2) -0.04811(19) 0.06672(9)
O6_2 O 0.6240(2) -0.35119(19) 0.02162(9)
O11_2 O -0.0051(2) -0.0110(2) 0.13915(10)
O15A O 0.5471(2) -0.5340(3) -0.14513(10)
O16_2 O 0.7026(2) -0.07474(19) 0.52585(10)
O17A O 0.7213(3) 0.0698(3) 0.63572(11)
O18A O 0.5863(2) 0.1550(2) 0.63870(10)
O20A O 0.3896(2) -0.56215(19) -0.07825(10)
O21_2 O 0.5562(2) -0.09508(19) 0.47233(10)
O21A O 0.4438(2) 0.09508(19) 0.52767(10)
O23A O 1.1264(2) 0.3806(2) 0.47107(10)
O27A O 0.4328(3) -0.4268(2) -0.14168(9)
O29A O 0.5998(2) -0.56478(19) -0.03259(10)
O30A O -0.1137(2) 0.1315(2) 0.02565(10)
loop_
_geom_bond_atom_site_label_1
_geom_bond_atom_site_label_2
_geom_bond_site_symmetry_1
_geom_bond_site_symmetry_2
Eu1 O7 1_555 1_555
Eu2 O2 1_555 1_555
Eu3 O19 1_555 1_555
Eu4 O1 1_555 1_555
O1 C64 1_555 1_555
C1 O3 1_555 1_555
C2 O6 1_555 1_555
O2 C3 1_555 1_555
O3 Eu1A 1_555 1_555
C3 C4 1_555 1_555
C4 C30 1_555 1_555
O4 C59 1_555 1_555
O5 C23 1_555 1_555
O6 Eu3_2 1_555 1_555
O7 C1 1_555 1_555
C5 H1 1_555 1_555
C6 C17 1_555 1_555
C7 C8 1_555 1_555
C8 C21 1_555 1_555
O8 Eu2 1_555 1_555
C9 H2 1_555 1_555
C10 H3 1_555 1_555
O9 Eu4 1_555 1_555
O10 Eu4 1_555 1_555
O11 C59 1_555 1_555
O12 Eu4 1_555 1_555
C11 C10 1_555 1_555
O13 Eu2 1_555 1_555
O14 Eu2 1_555 1_555
O15 C56 1_555 1_555
O16 C12 1_555 1_555
C12 C14 1_555 1_555
C13 C7 1_555 1_555
H4 C13 1_555 1_555
O17 C61 1_555 1_555
O18 C61 1_555 1_555
O19 C33 1_555 1_555
C14 C41 1_555 1_555
O20 C2 1_555 1_555
O21 C12 1_555 1_555
C15 H5 1_555 1_555
C16 C22 1_555 1_555
O22 Eu3 1_555 1_555
O23 C24 1_555 1_555
O24 Eu4 1_555 1_555
C17 C7 1_555 1_555
H6 C17 1_555 1_555
O25 Eu4 1_555 1_555
C18 C33 1_555 1_555
O26 Eu1 1_555 1_555
C19 H7 1_555 1_555
C20 C24 1_555 1_555
C21 H8 1_555 1_555
O27 C56 1_555 1_555
C22 O13 1_555 1_555
O28 Eu4 1_555 1_555
O29 C33 1_555 1_555
O30 C3 1_555 1_555
C23 O25 1_555 1_555
C24 O12 1_555 1_555
C25 C9 1_555 1_555
H9 C25 1_555 1_555
C26 C1 1_555 1_555
N1 C28 1_555 1_555
C27 C15 1_555 1_555
H10 C27 1_555 1_555
C28 O22 1_555 1_555
O31 C22 1_555 1_555
C29 C40 1_555 1_555
C30 H11 1_555 1_555
C31 C10 1_555 1_555
C32 C41 1_555 1_555
O32 Eu3 1_555 1_555
C34 C16 1_555 1_555
H12 C34 1_555 1_555
C35 C5 1_555 1_555
C36 C9 1_555 1_555
C37 C8 1_555 1_555
H13 C37 1_555 1_555
C38 C15 1_555 1_555
C39 C16 1_555 1_555
H14 C39 1_555 1_555
C40 C30 1_555 1_555
C41 H15 1_555 1_555
O33 Eu2 1_555 1_555
C42 C18 1_555 1_555
H16 C42 1_555 1_555
C43 C5 1_555 1_555
H17 C43 1_555 1_555
C44 C19 1_555 1_555
H18 C44 1_555 1_555
C45 C6 1_555 1_555
H19 C45 1_555 1_555
C46 C31 1_555 1_555
H20 C46 1_555 1_555
C47 C14 1_555 1_555
H21 C47 1_555 1_555
C48 C2 1_555 1_555
C49 C6 1_555 1_555
C50 C27 1_555 1_555
O34 Eu1 1_555 1_555
C51 C4 1_555 1_555
H22 C51 1_555 1_555
C52 C23 1_555 1_555
C53 C38 1_555 1_555
H23 C53 1_555 1_555
C54 C11 1_555 1_555
H24 C54 1_555 1_555
C55 C50 1_555 1_555
H25 C55 1_555 1_555
C56 C38 1_555 1_555
C57 C29 1_555 1_555
H26 C57 1_555 1_555
C58 C20 1_555 1_555
H27 C58 1_555 1_555
C59 C31 1_555 1_555
C60 C35 1_555 1_555
H28 C60 1_555 1_555
C61 C35 1_555 1_555
C62 N1 1_555 1_555
H29 C62 1_555 1_555
H30 C62 1_555 1_555
H31 C62 1_555 1_555
C63 N1 1_555 1_555
H32 C63 1_555 1_555
H33 C63 1_555 1_555
H34 C63 1_555 1_555
C64 N2 1_555 1_555
N2 C65 1_555 1_555
C66 N2 1_555 1_555
Eu1_2 O16 1_555 1_555
Eu1A O17 1_555 1_555
Eu1A_2 O21 1_555 1_555
Eu2_2 O4 1_555 1_555
Eu2A O30 1_555 1_555
Eu3A O29 1_555 1_555
Eu3A_2 O15 1_555 1_555
Eu4A O23 1_555 1_555
O3A Eu1 1_555 1_555
O4_2 Eu2 1_555 1_555
O6_2 Eu3 1_555 1_555
O11_2 Eu2 1_555 1_555
O15A Eu3 1_555 1_555
O16_2 Eu1 1_555 1_555
O17A Eu1 1_555 1_555
O18A Eu1 1_555 1_555
O20A Eu3 1_555 1_555
O21_2 Eu1 1_555 1_555
O21A Eu1 1_555 1_555
O23A Eu4 1_555 1_555
O27A Eu3 1_555 1_555
O29A Eu3 1_555 1_555
O30A Eu2 1_555 1_555
O10 C49 1_555 1_555
O11 Eu2_2 1_555 1_555
C11 C36 1_555 1_555
C13 C26 1_555 1_555
O18 Eu1A 1_555 1_555
O20 Eu3A_2 1_555 1_555
O21 Eu1_2 1_555 1_555
O24 C49 1_555 1_555
C18 C51 1_555 1_555
C19 C36 1_555 1_555
C20 C47 1_555 1_555
C21 C39 1_555 1_555
O27 Eu3A_2 1_555 1_555
C25 C52 1_555 1_555
C26 C45 1_555 1_555
C29 C43 1_555 1_555
C32 C50 1_555 1_555
C32 C58 1_555 1_555
C34 C37 1_555 1_555
C40 C42 1_555 1_555
C44 C52 1_555 1_555
C46 C48 1_555 1_555
C48 C54 1_555 1_555
C53 C55 1_555 1_555
C57 C60 1_555 1_555
Eu1A O21_2 1_555 1_555
Eu1A O21A 1_555 1_555

#END
