
#######################################################################
#
#                 Cambridge Crystallographic Data Centre
#                                CCDC 
#
#######################################################################
#
# If this CIF has been generated from an entry in the Cambridge 
# Structural Database, then it will include bibliographic, chemical, 
# crystal, experimental, refinement or atomic coordinate data resulting 
# from the CCDC's data processing and validation procedures.
#
#######################################################################

data_NERVEL
_chemical_formula_moiety         '(C26 H26 Co2 N4 O11)n'
_symmetry_cell_setting           triclinic
_symmetry_space_group_name_H-M   'P -1'
_symmetry_Int_Tables_number      2
_space_group_name_Hall           '-P 1'
loop_
_symmetry_equiv_pos_site_id
_symmetry_equiv_pos_as_xyz
1 x,y,z
2 -x,-y,-z
_cell_length_a                   10.5407(2)
_cell_length_b                   11.8266(3)
_cell_length_c                   14.1122(2)
_cell_angle_alpha                106.878(4)
_cell_angle_beta                 102.411(2)
_cell_angle_gamma                111.011(3)
_cell_volume                     1467.89
loop_
_atom_site_label
_atom_site_type_symbol
_atom_site_fract_x
_atom_site_fract_y
_atom_site_fract_z
Co1 Co 0.19330(4) 0.49141(4) 0.21267(3)
Co2 Co 0.45120(4) 0.23082(4) -0.30993(3)
N1 N 0.2814(3) 0.2529(3) -0.25007(19)
N2 N 0.3352(3) 1.0188(2) 0.63313(19)
N3 N 0.1675(3) 0.3376(3) 0.2683(2)
N4 N -0.0366(3) 0.4297(2) 0.15750(19)
O1 O 0.1630(2) 0.3647(2) 0.06026(16)
O2 O 0.3904(3) 0.4133(3) 0.07013(19)
O3 O 0.2173(2) 0.6124(2) 0.35927(16)
O4 O 0.3998(2) 0.7999(2) 0.38042(17)
O5 O 0.3335(3) 0.2169(2) 0.54515(16)
O6 O 0.4040(3) 0.4298(3) 0.5765(2)
O7 O -0.2148(2) 0.3651(2) -0.14962(17)
O8 O -0.4414(2) 0.2484(2) -0.16033(16)
C1 C 0.1454(4) 0.2126(3) -0.3126(2)
H1 H 0.122 0.1779 -0.3857
C2 C 0.0380(4) 0.2203(4) -0.2734(3)
H2 H -0.0546 0.1938 -0.3195
C3 C 0.0692(3) 0.2674(3) -0.1655(3)
H3 H -0.0025 0.2707 -0.1377
C4 C 0.2094(3) 0.3096(3) -0.0994(2)
C5 C 0.3116(3) 0.3019(3) -0.1454(2)
H4 H 0.4066 0.3327 -0.1008
C6 C 0.2579(3) 0.3662(3) 0.0199(2)
C7 C 0.2690(5) 0.9563(4) 0.6860(3)
H5 H 0.2674 1.006 0.7499
C8 C 0.2027(7) 0.8204(4) 0.6495(4)
H6 H 0.1536 0.7796 0.6869
C9 C 0.2093(6) 0.7455(4) 0.5579(4)
H7 H 0.1665 0.6537 0.5332
C10 C 0.2805(3) 0.8085(3) 0.5032(2)
C11 C 0.3394(3) 0.9451(3) 0.5433(2)
H8 H 0.3846 0.988 0.5053
C12 C 0.3011(3) 0.7342(3) 0.4059(2)
C13 C 0.0784(4) 0.2109(3) 0.2051(3)
H9 H 0.0238 0.19 0.1358
C14 C 0.0638(5) 0.1095(4) 0.2383(3)
H10 H -0.001 0.0224 0.1925
C15 C 0.1462(4) 0.1390(4) 0.3400(3)
H11 H 0.1398 0.0721 0.3635
C16 C 0.2386(3) 0.2699(3) 0.4065(2)
C17 C 0.2452(3) 0.3656(3) 0.3679(2)
H12 H 0.3066 0.4537 0.4131
C18 C 0.3336(4) 0.3096(3) 0.5191(2)
C19 C -0.1186(4) 0.4303(4) 0.2184(3)
H13 H -0.0745 0.4577 0.291
C20 C -0.2645(4) 0.3920(4) 0.1776(3)
H14 H -0.3176 0.3946 0.2223
C21 C -0.3330(4) 0.3491(4) 0.0692(3)
H15 H -0.4327 0.3202 0.0401
C22 C -0.2495(3) 0.3505(3) 0.0057(2)
C23 C -0.1022(3) 0.3929(3) 0.0543(2)
H16 H -0.0454 0.396 0.0121
C24 C -0.3065(3) 0.3182(3) -0.1109(2)
O9 O 0.4260(2) 0.5586(2) 0.25748(17)
H17 H 0.4186 0.5186 0.2116
H18 H 0.4735 0.5517 0.31
O7A O 0.2148(2) 0.6349(2) 0.14962(17)
N2_2 N 0.3352(3) 0.0188(2) -0.36687(19)
O4A O 0.6002(2) 0.2001(2) -0.38042(17)
O5_2 O 0.3335(3) 0.2169(2) -0.45485(16)
O8_2 O 0.5586(2) 0.2484(2) -0.16033(16)
O9A O 0.5740(2) 0.4414(2) -0.25748(17)
Co2_2 Co 0.45120(4) 1.23082(4) 0.69007(3)
Co2A Co 0.54880(4) 0.76918(4) 0.30993(3)
Co2_3 Co 0.45120(4) 0.23082(4) 0.69007(3)
Co1A Co -0.19330(4) 0.50859(4) -0.21267(3)
Co2_4 Co -0.54880(4) 0.23082(4) -0.30993(3)
H17A H 0.5814 0.4814 -0.2116
H18A H 0.5265 0.4483 -0.31
C25 C 0.280(4) 0.048(3) 0.051(3)
C26 C 0.303(3) 0.015(3) -0.024(3)
O10 O 0.383(3) 0.043(2) 0.127(2)
O11 O 0.316(3) -0.033(2) 0.2693(19)
loop_
_geom_bond_atom_site_label_1
_geom_bond_atom_site_label_2
_geom_bond_site_symmetry_1
_geom_bond_site_symmetry_2
Co1 N3 1_555 1_555
Co2 N1 1_555 1_555
N1 C1 1_555 1_555
N2 C7 1_555 1_555
N3 C13 1_555 1_555
N4 Co1 1_555 1_555
O1 Co1 1_555 1_555
O2 C6 1_555 1_555
O3 Co1 1_555 1_555
O4 C12 1_555 1_555
O5 C18 1_555 1_555
O6 C18 1_555 1_555
O7 C24 1_555 1_555
O8 C24 1_555 1_555
C1 H1 1_555 1_555
C2 C1 1_555 1_555
H2 C2 1_555 1_555
C3 C2 1_555 1_555
H3 C3 1_555 1_555
C4 C3 1_555 1_555
C5 N1 1_555 1_555
H4 C5 1_555 1_555
C6 O1 1_555 1_555
C7 H5 1_555 1_555
C8 C7 1_555 1_555
H6 C8 1_555 1_555
C9 C8 1_555 1_555
H7 C9 1_555 1_555
C10 C9 1_555 1_555
C11 N2 1_555 1_555
H8 C11 1_555 1_555
C12 O3 1_555 1_555
C13 H9 1_555 1_555
C14 C13 1_555 1_555
H10 C14 1_555 1_555
C15 C14 1_555 1_555
H11 C15 1_555 1_555
C16 C15 1_555 1_555
C17 N3 1_555 1_555
H12 C17 1_555 1_555
C18 C16 1_555 1_555
C19 N4 1_555 1_555
H13 C19 1_555 1_555
C20 C19 1_555 1_555
H14 C20 1_555 1_555
C21 C20 1_555 1_555
H15 C21 1_555 1_555
C22 C21 1_555 1_555
C23 N4 1_555 1_555
H16 C23 1_555 1_555
C24 C22 1_555 1_555
O9 Co1 1_555 1_555
H17 O9 1_555 1_555
H18 O9 1_555 1_555
C25 C26 1_555 1_555
O10 C25 1_555 1_555
O7A Co1 1_555 1_555
N2_2 Co2 1_555 1_555
O4A Co2 1_555 1_555
O5_2 Co2 1_555 1_555
O8_2 Co2 1_555 1_555
O9A Co2 1_555 1_555
Co2_2 N2 1_555 1_555
Co2A O4 1_555 1_555
Co2_3 O5 1_555 1_555
Co1A O7 1_555 1_555
Co2_4 O8 1_555 1_555
H17A O9A 1_555 1_555
H18A O9A 1_555 1_555
C4 C5 1_555 1_555
C4 C6 1_555 1_555
C10 C11 1_555 1_555
C10 C12 1_555 1_555
C16 C17 1_555 1_555
C22 C23 1_555 1_555
O9 Co2A 1_555 1_555

#END
