
#######################################################################
#
#                 Cambridge Crystallographic Data Centre
#                                CCDC 
#
#######################################################################
#
# If this CIF has been generated from an entry in the Cambridge 
# Structural Database, then it will include bibliographic, chemical, 
# crystal, experimental, refinement or atomic coordinate data resulting 
# from the CCDC's data processing and validation procedures.
#
#######################################################################

data_LARPIF
_chemical_formula_moiety         '(C18 H8 Fe1 N2 Na1 O8 1-)n'
_symmetry_cell_setting           monoclinic
_symmetry_space_group_name_H-M   'C 2/c'
_symmetry_Int_Tables_number      15
_space_group_name_Hall           '-C 2yc'
loop_
_symmetry_equiv_pos_site_id
_symmetry_equiv_pos_as_xyz
1 x,y,z
2 -x,y,1/2-z
3 1/2+x,1/2+y,z
4 1/2-x,1/2+y,1/2-z
5 -x,-y,-z
6 x,-y,1/2+z
7 1/2-x,1/2-y,-z
8 1/2+x,1/2-y,1/2+z
_cell_length_a                   13.395(3)
_cell_length_b                   14.354(3)
_cell_length_c                   11.319(2)
_cell_angle_alpha                90
_cell_angle_beta                 111.55(3)
_cell_angle_gamma                90
_cell_volume                     2024.19
loop_
_atom_site_label
_atom_site_type_symbol
_atom_site_fract_x
_atom_site_fract_y
_atom_site_fract_z
N1 N 0.2272(5) 0.2251(5) 0.0190(5)
C9 C 0.3055(6) 0.1977(6) -0.0462(8)
N1F N 0.2728(5) 0.2749(5) -0.0190(5)
C9F C 0.1945(6) 0.3023(6) 0.0462(8)
Fe1 Fe 0.0000 -0.11195(3) 0.2500
O1 O -0.11151(12) -0.03194(12) 0.11894(16)
O2 O -0.13432(15) 0.02548(17) 0.28828(16)
O3 O -0.4773(3) 0.3371(2) 0.0753(3)
O4 O -0.3826(3) 0.2754(3) 0.2576(4)
C1 C -0.4108(5) 0.2779(4) 0.1383(8)
C2 C -0.3534(2) 0.1355(2) -0.1236(2)
H1 H -0.3744 0.1307 -0.2113
C3 C -0.4002(2) 0.2016(2) -0.0714(3)
H2 H -0.4519 0.2417 -0.1244
C4 C -0.27531(18) 0.07646(17) -0.0454(2)
H3 H -0.2435 0.0322 -0.0803
C5 C -0.37066(18) 0.20857(16) 0.0580(3)
C6 C -0.15788(16) 0.02217(16) 0.1722(2)
C7 C -0.29339(18) 0.14946(16) 0.1354(2)
H4 H -0.2735 0.1538 0.2230
C8 C -0.24479(16) 0.08367(14) 0.08510(19)
Na1 Na 0.0000 0.0000 0.0000
Fe1B Fe -0.5000 0.38805(3) 0.2500
Fe1B_2 Fe 0.5000 0.38805(3) 0.2500
O1A O 0.11151(12) -0.03194(12) 0.38106(16)
O1D O 0.11151(12) 0.03194(12) -0.11894(16)
O2A O 0.13432(15) 0.02548(17) 0.21172(16)
O2E O -0.13432(15) -0.02548(17) -0.21172(16)
O3A O 0.4773(3) 0.3371(2) 0.4247(3)
O3B O 0.0227(3) -0.1629(2) 0.0753(3)
O3C O -0.0227(3) -0.1629(2) 0.4247(3)
O3F O -0.0227(3) 0.1629(2) -0.0753(3)
O4A O 0.3826(3) 0.2754(3) 0.2424(4)
O4B O 0.1174(3) -0.2246(3) 0.2576(4)
O4C O -0.1174(3) -0.2246(3) 0.2424(4)
C1A C 0.4108(5) 0.2779(4) 0.3617(8)
C2A C 0.3534(2) 0.1355(2) 0.6236(2)
H1A H 0.3744 0.1307 0.7113
C3A C 0.4002(2) 0.2016(2) 0.5714(3)
H2A H 0.4519 0.2417 0.6244
C4A C 0.27531(18) 0.07646(17) 0.5454(2)
H3A H 0.2435 0.0322 0.5803
C5A C 0.37066(18) 0.20857(16) 0.4420(3)
C6A C 0.15788(16) 0.02217(16) 0.3278(2)
C7A C 0.29339(18) 0.14946(16) 0.3646(2)
H4A H 0.2735 0.1538 0.2770
C8A C 0.24479(16) 0.08367(14) 0.41490(19)
Na1A Na 0.0000 0.0000 0.5000
Na1B Na -0.5000 0.5000 0.0000
Na1C Na 0.5000 0.5000 0.5000
loop_
_geom_bond_atom_site_label_1
_geom_bond_atom_site_label_2
_geom_bond_site_symmetry_1
_geom_bond_site_symmetry_2
Fe1 O1 1_555 1_555
O1 C6 1_555 1_555
O2 C6 1_555 1_555
O3 C1 1_555 1_555
O4 C1 1_555 1_555
C1 C5 1_555 1_555
C2 H1 1_555 1_555
C3 C2 1_555 1_555
H2 C3 1_555 1_555
C4 C2 1_555 1_555
H3 C4 1_555 1_555
C5 C3 1_555 1_555
C6 C8 1_555 1_555
C7 C5 1_555 1_555
H4 C7 1_555 1_555
C8 C4 1_555 1_555
N1 C9 1_555 1_555
C9 N1F 1_555 1_555
Na1 O1 1_555 1_555
Fe1B O3 1_555 1_555
Fe1B_2 O3A 1_555 1_555
O1A Fe1 1_555 1_555
O1D Na1 1_555 1_555
O2A Na1 1_555 1_555
O2E Na1 1_555 1_555
O3A C1A 1_555 1_555
O3B Fe1 1_555 1_555
O3C Fe1 1_555 1_555
O3F Na1 1_555 1_555
O4A Fe1B_2 1_555 1_555
O4B Fe1 1_555 1_555
O4C Fe1 1_555 1_555
C1A O4A 1_555 1_555
C2A H1A 1_555 1_555
C3A C2A 1_555 1_555
H2A C3A 1_555 1_555
C4A C2A 1_555 1_555
H3A C4A 1_555 1_555
C5A C1A 1_555 1_555
C6A O1A 1_555 1_555
C7A C5A 1_555 1_555
H4A C7A 1_555 1_555
C8A C4A 1_555 1_555
N1F N1 1_555 1_555
C9F N1 1_555 1_555
Na1A O2 1_555 1_555
Na1B O3 1_555 1_555
Na1C O3A 1_555 1_555
O4 Fe1B 1_555 1_555
C7 C8 1_555 1_555
Na1 O3B 1_555 1_555
O1A Na1A 1_555 1_555
O2A C6A 1_555 1_555
O3C Na1A 1_555 1_555
C3A C5A 1_555 1_555
C6A C8A 1_555 1_555
C7A C8A 1_555 1_555
N1F C9F 1_555 1_555

#END
