
#######################################################################
#
#                 Cambridge Crystallographic Data Centre
#                                CCDC 
#
#######################################################################
#
# If this CIF has been generated from an entry in the Cambridge 
# Structural Database, then it will include bibliographic, chemical, 
# crystal, experimental, refinement or atomic coordinate data resulting 
# from the CCDC's data processing and validation procedures.
#
#######################################################################

data_NIBHOW
_chemical_formula_moiety         '(C48 H30 Cu3 N6 O15)n'
_symmetry_cell_setting           cubic
_symmetry_space_group_name_H-M   'F m -3 m'
_symmetry_Int_Tables_number      225
_space_group_name_Hall           '-F 4 2 3'
loop_
_symmetry_equiv_pos_site_id
_symmetry_equiv_pos_as_xyz
1 x,y,z
2 z,x,y
3 y,z,x
4 y,x,-z
5 y,-x,z
6 -y,x,z
7 x,z,-y
8 -x,z,y
9 x,-z,y
10 z,y,-x
11 z,-y,x
12 -z,y,x
13 x,1/2+y,1/2+z
14 z,1/2+x,1/2+y
15 y,1/2+z,1/2+x
16 y,1/2+x,1/2-z
17 y,1/2-x,1/2+z
18 -y,1/2+x,1/2+z
19 x,1/2+z,1/2-y
20 -x,1/2+z,1/2+y
21 x,1/2-z,1/2+y
22 z,1/2+y,1/2-x
23 z,1/2-y,1/2+x
24 -z,1/2+y,1/2+x
25 1/2+x,y,1/2+z
26 1/2+z,x,1/2+y
27 1/2+y,z,1/2+x
28 1/2+y,x,1/2-z
29 1/2+y,-x,1/2+z
30 1/2-y,x,1/2+z
31 1/2+x,z,1/2-y
32 1/2-x,z,1/2+y
33 1/2+x,-z,1/2+y
34 1/2+z,y,1/2-x
35 1/2+z,-y,1/2+x
36 1/2-z,y,1/2+x
37 1/2+x,1/2+y,z
38 1/2+z,1/2+x,y
39 1/2+y,1/2+z,x
40 1/2+y,1/2+x,-z
41 1/2+y,1/2-x,z
42 1/2-y,1/2+x,z
43 1/2+x,1/2+z,-y
44 1/2-x,1/2+z,y
45 1/2+x,1/2-z,y
46 1/2+z,1/2+y,-x
47 1/2+z,1/2-y,x
48 1/2-z,1/2+y,x
49 -x,-y,z
50 -x,y,-z
51 x,-y,-z
52 z,-x,-y
53 -z,-x,y
54 -z,x,-y
55 -y,z,-x
56 y,-z,-x
57 -y,-z,x
58 -y,-x,-z
59 -x,-z,-y
60 -z,-y,-x
61 -x,1/2-y,1/2+z
62 -x,1/2+y,1/2-z
63 x,1/2-y,1/2-z
64 z,1/2-x,1/2-y
65 -z,1/2-x,1/2+y
66 -z,1/2+x,1/2-y
67 -y,1/2+z,1/2-x
68 y,1/2-z,1/2-x
69 -y,1/2-z,1/2+x
70 -y,1/2-x,1/2-z
71 -x,1/2-z,1/2-y
72 -z,1/2-y,1/2-x
73 1/2-x,-y,1/2+z
74 1/2-x,y,1/2-z
75 1/2+x,-y,1/2-z
76 1/2+z,-x,1/2-y
77 1/2-z,-x,1/2+y
78 1/2-z,x,1/2-y
79 1/2-y,z,1/2-x
80 1/2+y,-z,1/2-x
81 1/2-y,-z,1/2+x
82 1/2-y,-x,1/2-z
83 1/2-x,-z,1/2-y
84 1/2-z,-y,1/2-x
85 1/2-x,1/2-y,z
86 1/2-x,1/2+y,-z
87 1/2+x,1/2-y,-z
88 1/2+z,1/2-x,-y
89 1/2-z,1/2-x,y
90 1/2-z,1/2+x,-y
91 1/2-y,1/2+z,-x
92 1/2+y,1/2-z,-x
93 1/2-y,1/2-z,x
94 1/2-y,1/2-x,-z
95 1/2-x,1/2-z,-y
96 1/2-z,1/2-y,-x
97 -x,-y,-z
98 -z,-x,-y
99 -y,-z,-x
100 -y,-x,z
101 -y,x,-z
102 y,-x,-z
103 -x,-z,y
104 x,-z,-y
105 -x,z,-y
106 -z,-y,x
107 -z,y,-x
108 z,-y,-x
109 -x,1/2-y,1/2-z
110 -z,1/2-x,1/2-y
111 -y,1/2-z,1/2-x
112 -y,1/2-x,1/2+z
113 -y,1/2+x,1/2-z
114 y,1/2-x,1/2-z
115 -x,1/2-z,1/2+y
116 x,1/2-z,1/2-y
117 -x,1/2+z,1/2-y
118 -z,1/2-y,1/2+x
119 -z,1/2+y,1/2-x
120 z,1/2-y,1/2-x
121 1/2-x,-y,1/2-z
122 1/2-z,-x,1/2-y
123 1/2-y,-z,1/2-x
124 1/2-y,-x,1/2+z
125 1/2-y,x,1/2-z
126 1/2+y,-x,1/2-z
127 1/2-x,-z,1/2+y
128 1/2+x,-z,1/2-y
129 1/2-x,z,1/2-y
130 1/2-z,-y,1/2+x
131 1/2-z,y,1/2-x
132 1/2+z,-y,1/2-x
133 1/2-x,1/2-y,-z
134 1/2-z,1/2-x,-y
135 1/2-y,1/2-z,-x
136 1/2-y,1/2-x,z
137 1/2-y,1/2+x,-z
138 1/2+y,1/2-x,-z
139 1/2-x,1/2-z,y
140 1/2+x,1/2-z,-y
141 1/2-x,1/2+z,-y
142 1/2-z,1/2-y,x
143 1/2-z,1/2+y,-x
144 1/2+z,1/2-y,-x
145 x,y,-z
146 x,-y,z
147 -x,y,z
148 -z,x,y
149 z,x,-y
150 z,-x,y
151 y,-z,x
152 -y,z,x
153 y,z,-x
154 y,x,z
155 x,z,y
156 z,y,x
157 x,1/2+y,1/2-z
158 x,1/2-y,1/2+z
159 -x,1/2+y,1/2+z
160 -z,1/2+x,1/2+y
161 z,1/2+x,1/2-y
162 z,1/2-x,1/2+y
163 y,1/2-z,1/2+x
164 -y,1/2+z,1/2+x
165 y,1/2+z,1/2-x
166 y,1/2+x,1/2+z
167 x,1/2+z,1/2+y
168 z,1/2+y,1/2+x
169 1/2+x,y,1/2-z
170 1/2+x,-y,1/2+z
171 1/2-x,y,1/2+z
172 1/2-z,x,1/2+y
173 1/2+z,x,1/2-y
174 1/2+z,-x,1/2+y
175 1/2+y,-z,1/2+x
176 1/2-y,z,1/2+x
177 1/2+y,z,1/2-x
178 1/2+y,x,1/2+z
179 1/2+x,z,1/2+y
180 1/2+z,y,1/2+x
181 1/2+x,1/2+y,-z
182 1/2+x,1/2-y,z
183 1/2-x,1/2+y,z
184 1/2-z,1/2+x,y
185 1/2+z,1/2+x,-y
186 1/2+z,1/2-x,y
187 1/2+y,1/2-z,x
188 1/2-y,1/2+z,x
189 1/2+y,1/2+z,-x
190 1/2+y,1/2+x,z
191 1/2+x,1/2+z,y
192 1/2+z,1/2+y,x
_cell_length_a                   46.636(5)
_cell_length_b                   46.636(5)
_cell_length_c                   46.636(5)
_cell_angle_alpha                90
_cell_angle_beta                 90
_cell_angle_gamma                90
_cell_volume                     101429
loop_
_atom_site_label
_atom_site_type_symbol
_atom_site_fract_x
_atom_site_fract_y
_atom_site_fract_z
Cu1 Cu -0.229865(12) 0.0000 0.270135(12)
O1 O -0.19692(6) 0.0000 0.30308(6)
O2 O -0.21174(4) -0.02957(4) 0.24575(4)
C1 C -0.22433(7) -0.03820(8) 0.22433(7)
C2 C -0.20874(7) -0.06255(9) 0.20874(7)
C3 C -0.21972(7) -0.07357(7) 0.18308(7)
H1 H -0.2361 -0.0653 0.1747
C4 C -0.20636(7) -0.09686(7) 0.17007(7)
H2 H -0.2142 -0.1048 0.1533
C5 C -0.18160(7) -0.10834(10) 0.18160(7)
C6 C -0.16729(8) -0.13362(10) 0.16729(8)
N1 N -0.18000(8) -0.14428(6) 0.14428(6)
O2AB O -0.24575(4) -0.21174(4) 0.02957(4)
C1AB C -0.22433(7) -0.22433(7) 0.03820(8)
C2AB C -0.20874(7) -0.20874(7) 0.06255(9)
C3AB C -0.18308(7) -0.21972(7) 0.07357(7)
H1AB H -0.1747 -0.2361 0.0653
C4AB C -0.17007(7) -0.20636(7) 0.09686(7)
H2AB H -0.1533 -0.2142 0.1048
C5AB C -0.18160(7) -0.18160(7) 0.10834(10)
C6AB C -0.16729(8) -0.16729(8) 0.13362(10)
N1AB N -0.14428(6) -0.18000(8) 0.14428(6)
O2CB O -0.02957(4) -0.24575(4) 0.21174(4)
C1CB C -0.03820(8) -0.22433(7) 0.22433(7)
C2CB C -0.06255(9) -0.20874(7) 0.20874(7)
C3CB C -0.07357(7) -0.18308(7) 0.21972(7)
H1CB H -0.0653 -0.1747 0.2361
C4CB C -0.09686(7) -0.17007(7) 0.20636(7)
H2CB H -0.1048 -0.1533 0.2142
C5CB C -0.10834(10) -0.18160(7) 0.18160(7)
C6CB C -0.13362(10) -0.16729(8) 0.16729(8)
N1CB N -0.14428(6) -0.14428(6) 0.18000(8)
O2YC O -0.21174(4) -0.24575(4) 0.02957(4)
C3YC C -0.21972(7) -0.18308(7) 0.07357(7)
H1YC H -0.2361 -0.1747 0.0653
C4YC C -0.20636(7) -0.17007(7) 0.09686(7)
H2YC H -0.2142 -0.1533 0.1048
O2BD O -0.24575(4) -0.02957(4) 0.21174(4)
C3BD C -0.18308(7) -0.07357(7) 0.21972(7)
H1BD H -0.1747 -0.0653 0.2361
C4BD C -0.17007(7) -0.09686(7) 0.20636(7)
H2BD H -0.1533 -0.1048 0.2142
O2WE O -0.02957(4) -0.21174(4) 0.24575(4)
C3WE C -0.07357(7) -0.21972(7) 0.18308(7)
H1WE H -0.0653 -0.2361 0.1747
C4WE C -0.09686(7) -0.20636(7) 0.17007(7)
H2WE H -0.1048 -0.2142 0.1533
Cu1D Cu 0.0000 0.229865(12) 0.270135(12)
O1D O 0.0000 0.19692(6) 0.30308(6)
O2D O -0.02957(4) 0.21174(4) 0.24575(4)
C1D C -0.03820(8) 0.22433(7) 0.22433(7)
C2D C -0.06255(9) 0.20874(7) 0.20874(7)
C3D C -0.07357(7) 0.21972(7) 0.18308(7)
H1D H -0.0653 0.2361 0.1747
C4D C -0.09686(7) 0.20636(7) 0.17007(7)
H2D H -0.1048 0.2142 0.1533
C5D C -0.10834(10) 0.18160(7) 0.18160(7)
C6D C -0.13362(10) 0.16729(8) 0.16729(8)
N1D N -0.14428(6) 0.18000(8) 0.14428(6)
O2F O -0.21174(4) 0.24575(4) 0.02957(4)
C1F C -0.22433(7) 0.22433(7) 0.03820(8)
C2F C -0.20874(7) 0.20874(7) 0.06255(9)
C3F C -0.21972(7) 0.18308(7) 0.07357(7)
H1F H -0.2361 0.1747 0.0653
C4F C -0.20636(7) 0.17007(7) 0.09686(7)
H2F H -0.2142 0.1533 0.1048
C5F C -0.18160(7) 0.18160(7) 0.10834(10)
C6F C -0.16729(8) 0.16729(8) 0.13362(10)
N1F N -0.18000(8) 0.14428(6) 0.14428(6)
O2GB O -0.24575(4) 0.02957(4) 0.21174(4)
C1GB C -0.22433(7) 0.03820(8) 0.22433(7)
C2GB C -0.20874(7) 0.06255(9) 0.20874(7)
C3GB C -0.18308(7) 0.07357(7) 0.21972(7)
H1GB H -0.1747 0.0653 0.2361
C4GB C -0.17007(7) 0.09686(7) 0.20636(7)
H2GB H -0.1533 0.1048 0.2142
C5GB C -0.18160(7) 0.10834(10) 0.18160(7)
C6GB C -0.16729(8) 0.13362(10) 0.16729(8)
N1GB N -0.14428(6) 0.14428(6) 0.18000(8)
O2SC O -0.24575(4) 0.21174(4) 0.02957(4)
C3SC C -0.18308(7) 0.21972(7) 0.07357(7)
H1SC H -0.1747 0.2361 0.0653
C4SC C -0.17007(7) 0.20636(7) 0.09686(7)
H2SC H -0.1533 0.2142 0.1048
O2VE O -0.02957(4) 0.24575(4) 0.21174(4)
C3VE C -0.07357(7) 0.18308(7) 0.21972(7)
H1VE H -0.0653 0.1747 0.2361
C4VE C -0.09686(7) 0.17007(7) 0.20636(7)
H2VE H -0.1048 0.1533 0.2142
O2OE O -0.21174(4) 0.02957(4) 0.24575(4)
C3OE C -0.21972(7) 0.07357(7) 0.18308(7)
H1OE H -0.2361 0.0653 0.1747
C4OE C -0.20636(7) 0.09686(7) 0.17007(7)
H2OE H -0.2142 0.1048 0.1533
Cu1E Cu -0.0000 -0.229865(12) 0.270135(12)
O1E O 0.0000 -0.19692(6) 0.30308(6)
Cu1F Cu -0.229865(12) 0.270135(12) 0.0000
Cu1H Cu -0.229865(12) -0.270135(12) 0.0000
Cu1O Cu 0.0000 0.270135(12) 0.229865(12)
Cu1QA Cu -0.270135(12) -0.229865(12) 0.0000
Cu1ZA Cu -0.270135(12) 0.229865(12) 0.0000
Cu1CB Cu 0.0000 -0.270135(12) 0.229865(12)
Cu1GB Cu -0.270135(12) 0.0000 0.229865(12)
O2E O 0.02957(4) -0.21174(4) 0.24575(4)
O2N O -0.02957(4) -0.25425(4) 0.28826(4)
O2HA O -0.25425(4) 0.02957(4) 0.28826(4)
O2PB O 0.02957(4) 0.25425(4) 0.28826(4)
O2UC O 0.02957(4) 0.21174(4) 0.24575(4)
O2FF O -0.02957(4) 0.25425(4) 0.28826(4)
O2GF O 0.02957(4) -0.25425(4) 0.28826(4)
O2WF O -0.25425(4) -0.02957(4) 0.28826(4)
loop_
_geom_bond_atom_site_label_1
_geom_bond_atom_site_label_2
_geom_bond_site_symmetry_1
_geom_bond_site_symmetry_2
Cu1 O1 1_555 1_555
O2 Cu1 1_555 1_555
C1 O2 1_555 1_555
C2 C1 1_555 1_555
C3 C2 1_555 1_555
H1 C3 1_555 1_555
C4 C3 1_555 1_555
H2 C4 1_555 1_555
C5 C4 1_555 1_555
C6 C5 1_555 1_555
N1 C6 1_555 1_555
O2AB C1AB 1_555 1_555
C1AB C2AB 1_555 1_555
C2AB C3AB 1_555 1_555
C3AB H1AB 1_555 1_555
C4AB C3AB 1_555 1_555
H2AB C4AB 1_555 1_555
C5AB C4AB 1_555 1_555
C6AB N1 1_555 1_555
N1AB C6AB 1_555 1_555
O2CB C1CB 1_555 1_555
C1CB C2CB 1_555 1_555
C2CB C3CB 1_555 1_555
C3CB H1CB 1_555 1_555
C4CB C3CB 1_555 1_555
H2CB C4CB 1_555 1_555
C5CB C4CB 1_555 1_555
C6CB N1AB 1_555 1_555
N1CB C6 1_555 1_555
O2YC C1AB 1_555 1_555
C3YC C2AB 1_555 1_555
H1YC C3YC 1_555 1_555
C4YC C5AB 1_555 1_555
H2YC C4YC 1_555 1_555
O2BD C1 1_555 1_555
C3BD C2 1_555 1_555
H1BD C3BD 1_555 1_555
C4BD C5 1_555 1_555
H2BD C4BD 1_555 1_555
O2WE C1CB 1_555 1_555
C3WE C2CB 1_555 1_555
H1WE C3WE 1_555 1_555
C4WE C5CB 1_555 1_555
H2WE C4WE 1_555 1_555
Cu1D O1D 1_555 1_555
O2D Cu1D 1_555 1_555
C1D O2D 1_555 1_555
C2D C1D 1_555 1_555
C3D C2D 1_555 1_555
H1D C3D 1_555 1_555
C4D C3D 1_555 1_555
H2D C4D 1_555 1_555
C5D C4D 1_555 1_555
C6D C5D 1_555 1_555
N1D C6D 1_555 1_555
O2F C1F 1_555 1_555
C1F C2F 1_555 1_555
C2F C3F 1_555 1_555
C3F H1F 1_555 1_555
C4F C3F 1_555 1_555
H2F C4F 1_555 1_555
C5F C4F 1_555 1_555
C6F N1D 1_555 1_555
N1F C6F 1_555 1_555
O2GB C1GB 1_555 1_555
C1GB C2GB 1_555 1_555
C2GB C3GB 1_555 1_555
C3GB H1GB 1_555 1_555
C4GB C3GB 1_555 1_555
H2GB C4GB 1_555 1_555
C5GB C4GB 1_555 1_555
C6GB N1F 1_555 1_555
N1GB C6D 1_555 1_555
O2SC C1F 1_555 1_555
C3SC C2F 1_555 1_555
H1SC C3SC 1_555 1_555
C4SC C5F 1_555 1_555
H2SC C4SC 1_555 1_555
O2VE C1D 1_555 1_555
C3VE C2D 1_555 1_555
H1VE C3VE 1_555 1_555
C4VE C5D 1_555 1_555
H2VE C4VE 1_555 1_555
O2OE Cu1 1_555 1_555
C3OE C2GB 1_555 1_555
H1OE C3OE 1_555 1_555
C4OE C5GB 1_555 1_555
H2OE C4OE 1_555 1_555
Cu1E O2WE 1_555 1_555
O1E Cu1E 1_555 1_555
Cu1F O2F 1_555 1_555
Cu1H O2YC 1_555 1_555
Cu1O Cu1D 1_555 1_555
Cu1QA O2AB 1_555 1_555
Cu1ZA O2SC 1_555 1_555
Cu1CB O2CB 1_555 1_555
Cu1GB Cu1 1_555 1_555
O2E Cu1E 1_555 1_555
O2N Cu1E 1_555 1_555
O2HA Cu1 1_555 1_555
O2PB Cu1D 1_555 1_555
O2UC Cu1D 1_555 1_555
O2FF Cu1D 1_555 1_555
O2GF Cu1E 1_555 1_555
O2WF Cu1 1_555 1_555
C5AB C6AB 1_555 1_555
C5CB C6CB 1_555 1_555
C6CB N1CB 1_555 1_555
C3YC C4YC 1_555 1_555
O2BD Cu1GB 1_555 1_555
C3BD C4BD 1_555 1_555
C3WE C4WE 1_555 1_555
C5F C6F 1_555 1_555
O2GB Cu1GB 1_555 1_555
C1GB O2OE 1_555 1_555
C5GB C6GB 1_555 1_555
C6GB N1GB 1_555 1_555
C3SC C4SC 1_555 1_555
O2VE Cu1O 1_555 1_555
C3VE C4VE 1_555 1_555
C3OE C4OE 1_555 1_555
Cu1E Cu1CB 1_555 1_555
Cu1F Cu1ZA 1_555 1_555
Cu1H Cu1QA 1_555 1_555

#END
