
#######################################################################
#
#                 Cambridge Crystallographic Data Centre
#                                CCDC 
#
#######################################################################
#
# If this CIF has been generated from an entry in the Cambridge 
# Structural Database, then it will include bibliographic, chemical, 
# crystal, experimental, refinement or atomic coordinate data resulting 
# from the CCDC's data processing and validation procedures.
#
#######################################################################

data_NIBHUC
_chemical_formula_moiety         '(C216 H120 Cu12 N56 O60)n'
_symmetry_cell_setting           rhombohedral
_symmetry_space_group_name_H-M   'R -3 m'
_symmetry_Int_Tables_number      166
_space_group_name_Hall           '-R 3 2"'
loop_
_symmetry_equiv_pos_site_id
_symmetry_equiv_pos_as_xyz
1 x,y,z
2 -y,x-y,z
3 -x+y,-x,z
4 y,x,-z
5 2/3+x,1/3+y,1/3+z
6 2/3-y,1/3+x-y,1/3+z
7 2/3-x+y,1/3-x,1/3+z
8 2/3+y,1/3+x,1/3-z
9 1/3+x,2/3+y,2/3+z
10 1/3+y,2/3+x,2/3-z
11 -x,-x+y,-z
12 x-y,-y,-z
13 1/3-y,2/3+x-y,2/3+z
14 1/3-x+y,2/3-x,2/3+z
15 1/3-x,2/3-x+y,2/3-z
16 1/3+x-y,2/3-y,2/3-z
17 2/3-x,1/3-x+y,1/3-z
18 2/3+x-y,1/3-y,1/3-z
19 -x,-y,-z
20 y,-x+y,-z
21 x-y,x,-z
22 -y,-x,z
23 1/3-x,2/3-y,2/3-z
24 1/3+y,2/3-x+y,2/3-z
25 1/3+x-y,2/3+x,2/3-z
26 1/3-y,2/3-x,2/3+z
27 2/3-x,1/3-y,1/3-z
28 2/3-y,1/3-x,1/3+z
29 x,x-y,z
30 -x+y,y,z
31 2/3+y,1/3-x+y,1/3-z
32 2/3+x-y,1/3+x,1/3-z
33 2/3+x,1/3+x-y,1/3+z
34 2/3-x+y,1/3+y,1/3+z
35 1/3+x,2/3+x-y,2/3+z
36 1/3-x+y,2/3+y,2/3+z
_cell_length_a                   37.291(2)
_cell_length_b                   37.291(2)
_cell_length_c                   92.159(3)
_cell_angle_alpha                90
_cell_angle_beta                 90
_cell_angle_gamma                120
_cell_volume                     110988
loop_
_atom_site_label
_atom_site_type_symbol
_atom_site_fract_x
_atom_site_fract_y
_atom_site_fract_z
Cu1 Cu 0.31000(16) 0.15500(8) 0.06333(6)
Cu2 Cu 0.35841(14) 0.17921(7) 0.08628(5)
O1 O 0.2788(6) 0.1763(6) 0.0734(2)
O2 O 0.3197(6) 0.1968(5) 0.09384(19)
O3 O 0.3876(5) 0.1573(5) 0.0753(2)
O4 O 0.3469(7) 0.1366(6) 0.0559(2)
O5 O 0.2701(7) 0.1350(3) 0.0440(2)
O6 O 0.4031(6) 0.2016(3) 0.1042(2)
Cu3 Cu 0.53528(14) -0.00004(16) -0.09199(4)
O7 O 0.5335(6) 0.0084(7) -0.0708(2)
O8 O 0.5042(8) -0.0540(8) -0.0888(2)
O9 O 0.1953(6) 0.3278(7) 0.2198(3)
O10 O 0.5580(7) 0.0587(7) -0.0946(2)
O11 O 0.6036(6) 0.0033(6) -0.0870(2)
C1 C 0.2868(10) 0.1898(6) 0.0851(4)
C2 C 0.2631(12) 0.2026(11) 0.0937(5)
C3 C 0.2285(11) 0.1988(10) 0.0867(3)
H1 H 0.2227 0.1891 0.0772
C4 C 0.2007(10) 0.2105(11) 0.0944(4)
H2 H 0.1771 0.2063 0.0895
C5 C 0.2066(14) 0.2266(11) 0.1079(5)
C6 C 0.2420(11) 0.2303(10) 0.1137(3)
H3 H 0.2499 0.2428 0.1227
C7 C 0.2681(10) 0.2172(10) 0.1073(4)
H4 H 0.2897 0.2187 0.1129
C8 C 0.1788(17) 0.2364(11) 0.1126(6)
N1 N 0.1449(13) 0.2298(7) 0.1066(3)
C9 C 0.1178(6) 0.2357(12) 0.1141(9)
N2 N 0.1238(6) 0.2476(13) 0.1283(6)
C10 C 0.1621(13) 0.2534(10) 0.1333(5)
N3 N 0.1920(9) 0.2510(10) 0.1260(4)
C11 C 0.3773(11) 0.1419(6) 0.0633(4)
C12 C 0.4061(11) 0.1258(9) 0.0562(4)
C13 C 0.3980(10) 0.1118(10) 0.0421(4)
H5 H 0.3768 0.1120 0.0369
C14 C 0.4223(10) 0.0972(9) 0.0361(3)
H6 H 0.4173 0.0868 0.0267
C15 C 0.4530(12) 0.0985(10) 0.0439(5)
C16 C 0.4661(10) 0.1188(10) 0.0581(4)
H7 H 0.4903 0.1233 0.0626
C17 C 0.4410(10) 0.1302(9) 0.0639(3)
H8 H 0.4463 0.1413 0.0732
C18 C 0.4787(14) 0.0880(9) 0.0362(6)
N4 N 0.4749(9) 0.0747(7) 0.0220(4)
C19 C 0.5041(14) 0.0689(7) 0.0171(5)
N5 N 0.5371(7) 0.0743(14) 0.0226(7)
C20 C 0.5426(8) 0.0851(16) 0.0371(9)
N6 N 0.5157(12) 0.0941(6) 0.0434(2)
N7 N 0.4958(7) 0.0546(7) 0.0029(3)
C21 C 0.5241(7) 0.0482(13) -0.0032(7)
C22 C 0.5199(6) 0.0399(12) -0.0201(7)
C23 C 0.4851(9) 0.0361(7) -0.0269(3)
H9 H 0.4655 0.0396 -0.0219
C24 C 0.4812(9) 0.0271(7) -0.0413(3)
H10 H 0.4585 0.0236 -0.0467
C25 C 0.5119(6) 0.0237(12) -0.0472(6)
C26 C 0.5044(7) 0.0088(15) -0.0646(6)
C27 C 0.4589(11) -0.082(2) -0.0869(6)
C28 C 0.4368(13) -0.126(3) -0.0853(7)
C29 C 0.4613(12) -0.1415(11) -0.0871(3)
H11 H 0.4899 -0.1259 -0.0883
C30 C 0.4392(11) -0.1829(12) -0.0870(4)
H12 H 0.4532 -0.1975 -0.0883
C31 C 0.3976(11) -0.205(2) -0.0851(6)
C32 C 0.3721(10) -0.256(2) -0.0843(5)
N8 N 0.3962(10) -0.2732(8) -0.0841(3)
C33 C 0.3753(16) -0.3123(8) -0.0841(4)
N9 N 0.3333 -0.3333 -0.0842(7)
C34 C 0.1554(8) 0.3108(16) 0.2188(7)
C35 C 0.1578(7) 0.3156(14) 0.1999(7)
C36 C 0.1851(11) 0.3072(9) 0.1918(4)
H13 H 0.2097 0.3129 0.1963
C37 C 0.1785(10) 0.2895(10) 0.1760(4)
H14 H 0.1974 0.2846 0.1711
C38 C 0.1411(8) 0.2821(15) 0.1702(7)
C39 C 0.1383(9) 0.2765(19) 0.1562(7)
N10 N 0.1671(9) 0.2708(10) 0.1487(3)
C40 C 0.5410(11) 0.082(2) -0.0962(7)
C41 C 0.5626(12) 0.125(2) -0.0982(5)
C42 C 0.6031(10) 0.1395(11) -0.0976(2)
H15 H 0.6159 0.1236 -0.0968
C43 C 0.6221(13) 0.1810(11) -0.0985(2)
H16 H 0.6509 0.1948 -0.0985
C44 C 0.6035(11) 0.207(2) -0.0996(4)
C45 C 0.623(3) 0.246(5) -0.1016(7)
N11 N 0.6613(16) 0.2688(14) -0.1008(3)
C46 C 0.6888(9) 0.3112(9) -0.1013(5)
N12 N 0.6667 0.3333 -0.1017(4)
O1CA O -0.1025(8) 0.1763(6) 0.0734(2)
O2CA O -0.1229(8) 0.1968(5) 0.09384(19)
O9CA O 0.1325(9) 0.3278(7) 0.2198(3)
C1CA C -0.0970(12) 0.1898(6) 0.0851(4)
C2CA C -0.0605(16) 0.2026(11) 0.0937(5)
C3CA C -0.0297(15) 0.1988(10) 0.0867(3)
H1CA H -0.0336 0.1891 0.0772
C4CA C 0.0098(15) 0.2105(11) 0.0944(4)
H2CA H 0.0292 0.2063 0.0895
C5CA C 0.0200(18) 0.2266(11) 0.1079(5)
C6CA C -0.0117(15) 0.2303(10) 0.1137(3)
H3CA H -0.0071 0.2428 0.1227
C7CA C -0.0509(14) 0.2172(10) 0.1073(4)
H4CA H -0.0710 0.2187 0.1129
C8CA C 0.0576(20) 0.2364(11) 0.1126(6)
N1CA N 0.0849(15) 0.2298(7) 0.1066(3)
C10CA C 0.0913(16) 0.2534(10) 0.1333(5)
N3CA N 0.0590(13) 0.2510(10) 0.1260(4)
C36CA C 0.1221(14) 0.3072(9) 0.1918(4)
H13CA H 0.1032 0.3129 0.1963
C37CA C 0.1110(14) 0.2895(10) 0.1760(4)
H14CA H 0.0872 0.2846 0.1711
N10CA N 0.1037(13) 0.2708(10) 0.1487(3)
O3CA O 0.7697(7) 0.1573(5) 0.0753(2)
O4CA O 0.7897(9) 0.1366(6) 0.0559(2)
O7CA O 0.4749(9) 0.0084(7) -0.0708(2)
C11CA C 0.7646(13) 0.1419(6) 0.0633(4)
C12CA C 0.7197(14) 0.1258(9) 0.0562(4)
C13CA C 0.7138(14) 0.1118(10) 0.0421(4)
H5CA H 0.7352 0.1120 0.0369
C14CA C 0.6749(13) 0.0972(9) 0.0361(3)
H6CA H 0.6695 0.0868 0.0267
C15CA C 0.6455(16) 0.0985(10) 0.0439(5)
C16CA C 0.6527(14) 0.1188(10) 0.0581(4)
H7CA H 0.6330 0.1233 0.0626
C17CA C 0.6892(13) 0.1302(9) 0.0639(3)
H8CA H 0.6950 0.1413 0.0732
C18CA C 0.6093(17) 0.0880(9) 0.0362(6)
N4CA N 0.5998(11) 0.0747(7) 0.0220(4)
C19CA C 0.5648(16) 0.0689(7) 0.0171(5)
N6CA N 0.5784(13) 0.0941(6) 0.0434(2)
N7CA N 0.5588(10) 0.0546(7) 0.0029(3)
C23CA C 0.5510(11) 0.0361(7) -0.0269(3)
H9CA H 0.5741 0.0396 -0.0219
C24CA C 0.5459(11) 0.0271(7) -0.0413(3)
H10CA H 0.5651 0.0236 -0.0467
O8A O 0.0540(8) -0.4418(11) -0.0888(2)
C27A C 0.082(2) -0.4591(23) -0.0869(6)
C28A C 0.126(3) -0.4372(33) -0.0853(7)
C29A C 0.1415(11) -0.3972(16) -0.0871(3)
H11A H 0.1259 -0.3842 -0.0883
C30A C 0.1829(12) -0.3779(16) -0.0870(4)
H12A H 0.1975 -0.3493 -0.0883
C31A C 0.205(2) -0.3974(23) -0.0851(6)
C32A C 0.256(2) -0.3719(22) -0.0843(5)
N8A N 0.2732(8) -0.3306(13) -0.0841(3)
C33A C 0.3123(8) -0.3124(18) -0.0841(4)
O8B O 0.4418(11) -0.5042(8) -0.0888(2)
C27B C 0.4591(23) -0.4589(11) -0.0869(6)
C28B C 0.4372(33) -0.4368(13) -0.0853(7)
C29B C 0.3972(16) -0.4613(12) -0.0871(3)
H11B H 0.3842 -0.4899 -0.0883
C30B C 0.3779(16) -0.4392(11) -0.0870(4)
H12B H 0.3493 -0.4532 -0.0883
C31B C 0.3974(23) -0.3976(11) -0.0851(6)
C32B C 0.3719(22) -0.3721(10) -0.0843(5)
N8B N 0.3306(13) -0.3962(10) -0.0841(3)
C33B C 0.3124(18) -0.3753(16) -0.0841(4)
O8U O 0.0540(8) -0.5042(8) -0.0888(2)
C29U C 0.1415(11) -0.4613(12) -0.0871(3)
H11U H 0.1259 -0.4899 -0.0883
C30U C 0.1829(12) -0.4392(11) -0.0870(4)
H12U H 0.1975 -0.4532 -0.0883
N8U N 0.2732(8) -0.3962(10) -0.0841(3)
O8BA O 0.5042(8) -0.4418(11) -0.0888(2)
C29BA C 0.4613(12) -0.3972(16) -0.0871(3)
H11BA H 0.4899 -0.3842 -0.0883
C30BA C 0.4392(11) -0.3779(16) -0.0870(4)
H12BA H 0.4532 -0.3493 -0.0883
N8BA N 0.3962(10) -0.3306(13) -0.0841(3)
O8CA O 0.4418(11) -0.0540(8) -0.0888(2)
C29CA C 0.3972(16) -0.1415(11) -0.0871(3)
H11CA H 0.3842 -0.1259 -0.0883
C30CA C 0.3779(16) -0.1829(12) -0.0870(4)
H12CA H 0.3493 -0.1975 -0.0883
N8CA N 0.3306(13) -0.2732(8) -0.0841(3)
O10A O 0.9413(7) 0.4993(10) -0.0946(2)
C40A C 0.918(2) 0.4590(23) -0.0962(7)
C41A C 0.875(2) 0.4376(23) -0.0982(5)
C42A C 0.8605(11) 0.4636(15) -0.0976(2)
H15A H 0.8764 0.4923 -0.0968
C43A C 0.8190(11) 0.4411(17) -0.0985(2)
H16A H 0.8052 0.4561 -0.0985
C44A C 0.793(2) 0.3965(23) -0.0996(4)
C45A C 0.754(5) 0.377(6) -0.1016(7)
N11A N 0.7312(14) 0.3925(21) -0.1008(3)
C46A C 0.6888(9) 0.3776(13) -0.1013(5)
O10B O 0.5007(10) 0.4420(7) -0.0946(2)
C40B C 0.5410(23) 0.4590(11) -0.0962(7)
C41B C 0.5624(23) 0.4374(12) -0.0982(5)
C42B C 0.5364(15) 0.3969(10) -0.0976(2)
H15B H 0.5077 0.3841 -0.0968
C43B C 0.5589(17) 0.3779(13) -0.0985(2)
H16B H 0.5439 0.3491 -0.0985
C44B C 0.6035(23) 0.3965(11) -0.0996(4)
C45B C 0.623(6) 0.377(3) -0.1016(7)
N11B N 0.6075(21) 0.3387(16) -0.1008(3)
C46B C 0.6224(13) 0.3112(9) -0.1013(5)
O10U O 0.9413(7) 0.4420(7) -0.0946(2)
C42U C 0.8605(11) 0.3969(10) -0.0976(2)
H15U H 0.8764 0.3841 -0.0968
C43U C 0.8190(11) 0.3779(13) -0.0985(2)
H16U H 0.8052 0.3491 -0.0985
N11U N 0.7312(14) 0.3387(16) -0.1008(3)
O10BA O 0.5580(7) 0.4993(10) -0.0946(2)
C42BA C 0.6031(10) 0.4636(15) -0.0976(2)
H15BA H 0.6159 0.4923 -0.0968
C43BA C 0.6221(13) 0.4411(17) -0.0985(2)
H16BA H 0.6509 0.4561 -0.0985
N11BA N 0.6613(16) 0.3925(21) -0.1008(3)
O10CA O 0.5007(10) 0.0587(7) -0.0946(2)
C42CA C 0.5364(15) 0.1395(11) -0.0976(2)
H15CA H 0.5077 0.1236 -0.0968
C43CA C 0.5589(17) 0.1810(11) -0.0985(2)
H16CA H 0.5439 0.1948 -0.0985
N11CA N 0.6075(21) 0.2688(14) -0.1008(3)
O3A O -0.1573(5) -0.7697(7) 0.0753(2)
O4A O -0.1366(6) -0.7897(9) 0.0559(2)
Cu3A Cu 0.00004(16) -0.46468(21) -0.09199(4)
O7A O -0.0084(7) -0.4749(9) -0.0708(2)
O11A O -0.0033(6) -0.3997(8) -0.0870(2)
C11A C -0.1419(6) -0.7646(13) 0.0633(4)
C12A C -0.1258(9) -0.7197(14) 0.0562(4)
C13A C -0.1118(10) -0.7138(14) 0.0421(4)
H5A H -0.1120 -0.7352 0.0369
C14A C -0.0972(9) -0.6749(13) 0.0361(3)
H6A H -0.0868 -0.6695 0.0267
C15A C -0.0985(10) -0.6455(16) 0.0439(5)
C16A C -0.1188(10) -0.6527(14) 0.0581(4)
H7A H -0.1233 -0.6330 0.0626
C17A C -0.1302(9) -0.6892(13) 0.0639(3)
H8A H -0.1413 -0.6950 0.0732
C18A C -0.0880(9) -0.6093(17) 0.0362(6)
N4A N -0.0747(7) -0.5998(11) 0.0220(4)
C19A C -0.0689(7) -0.5648(16) 0.0171(5)
N5A N -0.0743(14) -0.5372(16) 0.0226(7)
C20A C -0.0851(16) -0.5425(18) 0.0371(9)
N6A N -0.0941(6) -0.5784(13) 0.0434(2)
N7A N -0.0546(7) -0.5588(10) 0.0029(3)
C21A C -0.0482(13) -0.5241(15) -0.0032(7)
C22A C -0.0399(12) -0.5200(13) -0.0201(7)
C23A C -0.0361(7) -0.5510(11) -0.0269(3)
H9A H -0.0396 -0.5741 -0.0219
C24A C -0.0271(7) -0.5459(11) -0.0413(3)
H10A H -0.0236 -0.5651 -0.0467
C25A C -0.0237(12) -0.5118(13) -0.0472(6)
C26A C -0.0088(15) -0.5044(17) -0.0646(6)
O3U O -0.1573(5) -0.3876(5) 0.0753(2)
O4U O -0.1366(6) -0.3469(7) 0.0559(2)
O7U O -0.0084(7) -0.5335(6) -0.0708(2)
C11U C -0.1419(6) -0.3773(11) 0.0633(4)
C12U C -0.1258(9) -0.4061(11) 0.0562(4)
C13U C -0.1118(10) -0.3980(10) 0.0421(4)
H5U H -0.1120 -0.3768 0.0369
C14U C -0.0972(9) -0.4223(10) 0.0361(3)
H6U H -0.0868 -0.4173 0.0267
C15U C -0.0985(10) -0.4530(12) 0.0439(5)
C16U C -0.1188(10) -0.4661(10) 0.0581(4)
H7U H -0.1233 -0.4903 0.0626
C17U C -0.1302(9) -0.4410(10) 0.0639(3)
H8U H -0.1413 -0.4463 0.0732
C18U C -0.0880(9) -0.4787(14) 0.0362(6)
N4U N -0.0747(7) -0.4749(9) 0.0220(4)
C19U C -0.0689(7) -0.5041(14) 0.0171(5)
N6U N -0.0941(6) -0.5157(12) 0.0434(2)
N7U N -0.0546(7) -0.4958(7) 0.0029(3)
C23U C -0.0361(7) -0.4851(9) -0.0269(3)
H9U H -0.0396 -0.4655 -0.0219
C24U C -0.0271(7) -0.4812(9) -0.0413(3)
H10U H -0.0236 -0.4585 -0.0467
Cu1A Cu -0.15500(8) 0.15500(18) 0.06333(6)
Cu2A Cu -0.17921(7) 0.17920(16) 0.08628(5)
O1A O -0.1763(6) 0.1025(8) 0.0734(2)
O2A O -0.1968(5) 0.1229(8) 0.09384(19)
O5A O -0.1350(3) 0.1351(8) 0.0440(2)
O6A O -0.2016(3) 0.2015(7) 0.1042(2)
O9A O -0.3278(7) -0.1325(9) 0.2198(3)
C1A C -0.1898(6) 0.0970(12) 0.0851(4)
C2A C -0.2026(11) 0.0605(16) 0.0937(5)
C3A C -0.1988(10) 0.0297(15) 0.0867(3)
H1A H -0.1891 0.0336 0.0772
C4A C -0.2105(11) -0.0098(15) 0.0944(4)
H2A H -0.2063 -0.0292 0.0895
C5A C -0.2266(11) -0.0200(18) 0.1079(5)
C6A C -0.2303(10) 0.0117(15) 0.1137(3)
H3A H -0.2428 0.0071 0.1227
C7A C -0.2172(10) 0.0509(14) 0.1073(4)
H4A H -0.2187 0.0710 0.1129
C8A C -0.2364(11) -0.0576(20) 0.1126(6)
N1A N -0.2298(7) -0.0849(15) 0.1066(3)
C9A C -0.2357(12) -0.1179(13) 0.1141(9)
N2A N -0.2476(13) -0.1238(14) 0.1283(6)
C10A C -0.2534(10) -0.0913(16) 0.1333(5)
N3A N -0.2510(10) -0.0590(13) 0.1260(4)
C34A C -0.3108(16) -0.1554(18) 0.2188(7)
C35A C -0.3156(14) -0.1578(16) 0.1999(7)
C36A C -0.3072(9) -0.1221(14) 0.1918(4)
H13A H -0.3129 -0.1032 0.1963
C37A C -0.2895(10) -0.1110(14) 0.1760(4)
H14A H -0.2846 -0.0872 0.1711
C38A C -0.2821(15) -0.1410(17) 0.1702(7)
C39A C -0.2765(19) -0.1382(21) 0.1562(7)
N10A N -0.2708(10) -0.1037(13) 0.1487(3)
O1U O -0.1763(6) -0.2788(6) 0.0734(2)
O2U O -0.1968(5) -0.3197(6) 0.09384(19)
O9U O -0.3278(7) -0.1953(6) 0.2198(3)
C1U C -0.1898(6) -0.2868(10) 0.0851(4)
C2U C -0.2026(11) -0.2631(12) 0.0937(5)
C3U C -0.1988(10) -0.2285(11) 0.0867(3)
H1U H -0.1891 -0.2227 0.0772
C4U C -0.2105(11) -0.2007(10) 0.0944(4)
H2U H -0.2063 -0.1771 0.0895
C5U C -0.2266(11) -0.2066(14) 0.1079(5)
C6U C -0.2303(10) -0.2420(11) 0.1137(3)
H3U H -0.2428 -0.2499 0.1227
C7U C -0.2172(10) -0.2681(10) 0.1073(4)
H4U H -0.2187 -0.2897 0.1129
C8U C -0.2364(11) -0.1788(17) 0.1126(6)
N1U N -0.2298(7) -0.1449(13) 0.1066(3)
C10U C -0.2534(10) -0.1621(13) 0.1333(5)
N3U N -0.2510(10) -0.1920(9) 0.1260(4)
C36U C -0.3072(9) -0.1851(11) 0.1918(4)
H13U H -0.3129 -0.2097 0.1963
C37U C -0.2895(10) -0.1785(10) 0.1760(4)
H14U H -0.2846 -0.1974 0.1711
N10U N -0.2708(10) -0.1671(9) 0.1487(3)
Cu1A_2 Cu 0.84500(8) 0.15500(18) 0.06333(6)
Cu2A_2 Cu 0.82079(7) 0.17920(16) 0.08628(5)
O3A_2 O 0.8427(5) 0.2303(7) 0.0753(2)
O4A_2 O 0.8634(6) 0.2103(9) 0.0559(2)
O5A_2 O 0.8650(3) 0.1351(8) 0.0440(2)
O6A_2 O 0.7984(3) 0.2015(7) 0.1042(2)
Cu3A_2 Cu 1.00004(16) 0.53532(21) -0.09199(4)
O7A_2 O 0.9916(7) 0.5251(9) -0.0708(2)
O11A_2 O 0.9967(6) 0.6003(8) -0.0870(2)
C11A_2 C 0.8581(6) 0.2354(13) 0.0633(4)
C12A_2 C 0.8742(9) 0.2803(14) 0.0562(4)
C13A_2 C 0.8882(10) 0.2862(14) 0.0421(4)
H5A_2 H 0.8880 0.2648 0.0369
C14A_2 C 0.9028(9) 0.3251(13) 0.0361(3)
H6A_2 H 0.9132 0.3305 0.0267
C15A_2 C 0.9015(10) 0.3545(16) 0.0439(5)
C16A_2 C 0.8812(10) 0.3473(14) 0.0581(4)
H7A_2 H 0.8767 0.3670 0.0626
C17A_2 C 0.8698(9) 0.3108(13) 0.0639(3)
H8A_2 H 0.8587 0.3050 0.0732
C18A_2 C 0.9120(9) 0.3907(17) 0.0362(6)
N4A_2 N 0.9253(7) 0.4002(11) 0.0220(4)
C19A_2 C 0.9311(7) 0.4352(16) 0.0171(5)
N5A_2 N 0.9257(14) 0.4628(16) 0.0226(7)
C20A_2 C 0.9149(16) 0.4575(18) 0.0371(9)
N6A_2 N 0.9059(6) 0.4216(13) 0.0434(2)
N7A_2 N 0.9454(7) 0.4412(10) 0.0029(3)
C21A_2 C 0.9518(13) 0.4759(15) -0.0032(7)
C22A_2 C 0.9601(12) 0.4800(13) -0.0201(7)
C23A_2 C 0.9639(7) 0.4490(11) -0.0269(3)
H9A_2 H 0.9604 0.4259 -0.0219
C24A_2 C 0.9729(7) 0.4541(11) -0.0413(3)
H10A_2 H 0.9764 0.4349 -0.0467
C25A_2 C 0.9763(12) 0.4882(13) -0.0472(6)
C26A_2 C 0.9912(15) 0.4956(17) -0.0646(6)
O3U_2 O 0.8427(5) 0.6124(5) 0.0753(2)
O4U_2 O 0.8634(6) 0.6531(7) 0.0559(2)
O7U_2 O 0.9916(7) 0.4665(6) -0.0708(2)
C11U_2 C 0.8581(6) 0.6227(11) 0.0633(4)
C12U_2 C 0.8742(9) 0.5939(11) 0.0562(4)
C13U_2 C 0.8882(10) 0.6020(10) 0.0421(4)
H5U_2 H 0.8880 0.6232 0.0369
C14U_2 C 0.9028(9) 0.5777(10) 0.0361(3)
H6U_2 H 0.9132 0.5827 0.0267
C15U_2 C 0.9015(10) 0.5470(12) 0.0439(5)
C16U_2 C 0.8812(10) 0.5339(10) 0.0581(4)
H7U_2 H 0.8767 0.5097 0.0626
C17U_2 C 0.8698(9) 0.5590(10) 0.0639(3)
H8U_2 H 0.8587 0.5537 0.0732
C18U_2 C 0.9120(9) 0.5213(14) 0.0362(6)
N4U_2 N 0.9253(7) 0.5251(9) 0.0220(4)
C19U_2 C 0.9311(7) 0.4959(14) 0.0171(5)
N6U_2 N 0.9059(6) 0.4843(12) 0.0434(2)
N7U_2 N 0.9454(7) 0.5042(7) 0.0029(3)
C23U_2 C 0.9639(7) 0.5149(9) -0.0269(3)
H9U_2 H 0.9604 0.5345 -0.0219
C24U_2 C 0.9729(7) 0.5188(9) -0.0413(3)
H10U_2 H 0.9764 0.5415 -0.0467
O1BA O 0.2788(6) 0.1025(8) 0.0734(2)
O2BA O 0.3197(6) 0.1229(8) 0.09384(19)
O9BA O 0.1953(6) -0.1325(9) 0.2198(3)
C1BA C 0.2868(10) 0.0970(12) 0.0851(4)
C2BA C 0.2631(12) 0.0605(16) 0.0937(5)
C3BA C 0.2285(11) 0.0297(15) 0.0867(3)
H1BA H 0.2227 0.0336 0.0772
C4BA C 0.2007(10) -0.0098(15) 0.0944(4)
H2BA H 0.1771 -0.0292 0.0895
C5BA C 0.2066(14) -0.0200(18) 0.1079(5)
C6BA C 0.2420(11) 0.0117(15) 0.1137(3)
H3BA H 0.2499 0.0071 0.1227
C7BA C 0.2681(10) 0.0509(14) 0.1073(4)
H4BA H 0.2897 0.0710 0.1129
C8BA C 0.1788(17) -0.0576(20) 0.1126(6)
N1BA N 0.1449(13) -0.0849(15) 0.1066(3)
C9B C 0.1179(13) -0.1178(6) 0.1141(9)
N2B N 0.1238(14) -0.1238(6) 0.1283(6)
C10BA C 0.1621(13) -0.0913(16) 0.1333(5)
N3BA N 0.1920(9) -0.0590(13) 0.1260(4)
C34B C 0.1554(18) -0.1554(8) 0.2188(7)
C35B C 0.1578(16) -0.1578(7) 0.1999(7)
C36BA C 0.1851(11) -0.1221(14) 0.1918(4)
H13BA H 0.2097 -0.1032 0.1963
C37BA C 0.1785(10) -0.1110(14) 0.1760(4)
H14BA H 0.1974 -0.0872 0.1711
C38B C 0.1410(17) -0.1411(8) 0.1702(7)
C39B C 0.1382(21) -0.1383(9) 0.1562(7)
N10BA N 0.1671(9) -0.1037(13) 0.1487(3)
O1B O -0.1025(8) -0.2788(6) 0.0734(2)
O2B O -0.1229(8) -0.3197(6) 0.09384(19)
O9B O 0.1325(9) -0.1953(6) 0.2198(3)
C1B C -0.0970(12) -0.2868(10) 0.0851(4)
C2B C -0.0605(16) -0.2631(12) 0.0937(5)
C3B C -0.0297(15) -0.2285(11) 0.0867(3)
H1B H -0.0336 -0.2227 0.0772
C4B C 0.0098(15) -0.2007(10) 0.0944(4)
H2B H 0.0292 -0.1771 0.0895
C5B C 0.0200(18) -0.2066(14) 0.1079(5)
C6B C -0.0117(15) -0.2420(11) 0.1137(3)
H3B H -0.0071 -0.2499 0.1227
C7B C -0.0509(14) -0.2681(10) 0.1073(4)
H4B H -0.0710 -0.2897 0.1129
C8B C 0.0576(20) -0.1788(17) 0.1126(6)
N1B N 0.0849(15) -0.1449(13) 0.1066(3)
C10B C 0.0913(16) -0.1621(13) 0.1333(5)
N3B N 0.0590(13) -0.1920(9) 0.1260(4)
C36B C 0.1221(14) -0.1851(11) 0.1918(4)
H13B H 0.1032 -0.2097 0.1963
C37B C 0.1110(14) -0.1785(10) 0.1760(4)
H14B H 0.0872 -0.1974 0.1711
N10B N 0.1037(13) -0.1671(9) 0.1487(3)
Cu3CA Cu 0.46468(21) -0.00004(16) -0.09199(4)
O11CA O 0.3997(8) 0.0033(6) -0.0870(2)
Cu3D Cu 0.20195(14) 0.33329(16) 0.24134(4)
O11D O 0.2703(6) 0.3366(6) 0.2463(2)
Cu3GA Cu 0.13135(21) 0.33329(16) 0.24134(4)
O11GA O 0.0664(8) 0.3366(6) 0.2463(2)
Cu1A_3 Cu -0.15500(8) -0.84500(18) 0.06333(6)
Cu1B Cu -0.15500(18) -0.31000(16) 0.06333(6)
Cu1B_2 Cu 0.84500(18) 0.69000(16) 0.06333(6)
Cu2A_3 Cu -0.17921(7) -0.82080(16) 0.08628(5)
Cu2B Cu -0.17920(16) -0.35841(14) 0.08628(5)
Cu2B_2 Cu 0.82080(16) 0.64159(14) 0.08628(5)
O1A_2 O 0.8237(6) 0.1025(8) 0.0734(2)
O1CA_2 O 0.8975(8) 0.1763(6) 0.0734(2)
O2A_2 O 0.8032(5) 0.1229(8) 0.09384(19)
O2CA_2 O 0.8771(8) 0.1968(5) 0.09384(19)
O3A_3 O -0.1573(5) 0.2303(7) 0.0753(2)
O3BA O 0.3876(5) 0.2303(7) 0.0753(2)
O3CA_2 O -0.2303(7) 0.1573(5) 0.0753(2)
O4A_3 O -0.1366(6) 0.2103(9) 0.0559(2)
O4BA O 0.3469(7) 0.2103(9) 0.0559(2)
O4CA_2 O -0.2103(9) 0.1366(6) 0.0559(2)
Cu3B Cu 0.46468(21) -0.53528(14) -0.09199(4)
Cu3B_2 Cu 0.46468(21) 0.46472(14) -0.09199(4)
Cu3E Cu -0.33329(16) -0.13135(21) 0.24134(4)
Cu3F Cu 0.13135(21) -0.20195(14) 0.24134(4)
Cu3U Cu 0.00004(16) -0.53528(14) -0.09199(4)
Cu3U_2 Cu 1.00004(16) 0.46472(14) -0.09199(4)
Cu3AA Cu -0.33329(16) -0.20195(14) 0.24134(4)
Cu3BA Cu 0.53528(14) -0.46468(21) -0.09199(4)
Cu3BA_2 Cu 0.53528(14) 0.53532(21) -0.09199(4)
Cu3FA Cu 0.20195(14) -0.13135(21) 0.24134(4)
O7D O 0.2002(6) 0.3417(7) 0.2625(2)
O7GA O 0.1416(9) 0.3417(7) 0.2625(2)
O8A_2 O 1.0540(8) 0.5582(11) -0.0888(2)
O8D O 0.1709(8) 0.2793(8) 0.2445(2)
O8GA O 0.1085(11) 0.2793(8) 0.2445(2)
O9H O 0.5286(6) -0.0055(7) -0.1135(3)
O9L O 0.0055(7) -0.4658(9) -0.1135(3)
O9L_2 O 1.0055(7) 0.5342(9) -0.1135(3)
O9IA O 0.4658(9) -0.0055(7) -0.1135(3)
O10A_2 O -0.0587(7) -0.5007(10) -0.0946(2)
O10D O 0.2247(7) 0.3920(7) 0.2387(2)
O10GA O 0.1674(10) 0.3920(7) 0.2387(2)
loop_
_geom_bond_atom_site_label_1
_geom_bond_atom_site_label_2
_geom_bond_site_symmetry_1
_geom_bond_site_symmetry_2
Cu1 Cu2 1_555 1_555
Cu2 O2 1_555 1_555
O1 Cu1 1_555 1_555
O2 C1 1_555 1_555
O3 Cu2 1_555 1_555
O4 Cu1 1_555 1_555
O5 Cu1 1_555 1_555
O6 Cu2 1_555 1_555
Cu3 O7 1_555 1_555
O7 C26 1_555 1_555
O8 Cu3 1_555 1_555
O9 C34 1_555 1_555
O10 Cu3 1_555 1_555
O11 Cu3 1_555 1_555
C1 O1 1_555 1_555
C2 C1 1_555 1_555
C3 C2 1_555 1_555
H1 C3 1_555 1_555
C4 C3 1_555 1_555
H2 C4 1_555 1_555
C5 C4 1_555 1_555
C6 C5 1_555 1_555
H3 C6 1_555 1_555
C7 C2 1_555 1_555
H4 C7 1_555 1_555
C8 C5 1_555 1_555
N1 C8 1_555 1_555
C9 N1 1_555 1_555
N2 C9 1_555 1_555
C10 N2 1_555 1_555
N3 C8 1_555 1_555
C11 O3 1_555 1_555
C12 C11 1_555 1_555
C13 C12 1_555 1_555
H5 C13 1_555 1_555
C14 C13 1_555 1_555
H6 C14 1_555 1_555
C15 C14 1_555 1_555
C16 C15 1_555 1_555
H7 C16 1_555 1_555
C17 C12 1_555 1_555
H8 C17 1_555 1_555
C18 C15 1_555 1_555
N4 C18 1_555 1_555
C19 N4 1_555 1_555
N5 C19 1_555 1_555
C20 N5 1_555 1_555
N6 C18 1_555 1_555
N7 C19 1_555 1_555
C21 N7 1_555 1_555
C22 C21 1_555 1_555
C23 C22 1_555 1_555
H9 C23 1_555 1_555
C24 C23 1_555 1_555
H10 C24 1_555 1_555
C25 C24 1_555 1_555
C26 C25 1_555 1_555
C27 O8 1_555 1_555
C28 C27 1_555 1_555
C29 C28 1_555 1_555
H11 C29 1_555 1_555
C30 C29 1_555 1_555
H12 C30 1_555 1_555
C31 C30 1_555 1_555
C32 C31 1_555 1_555
N8 C32 1_555 1_555
C33 N8 1_555 1_555
N9 C33 1_555 1_555
C34 C35 1_555 1_555
C35 C36 1_555 1_555
C36 H13 1_555 1_555
C37 C36 1_555 1_555
H14 C37 1_555 1_555
C38 C37 1_555 1_555
C39 C38 1_555 1_555
N10 C10 1_555 1_555
C40 O10 1_555 1_555
C41 C40 1_555 1_555
C42 C41 1_555 1_555
H15 C42 1_555 1_555
C43 C42 1_555 1_555
H16 C43 1_555 1_555
C44 C43 1_555 1_555
C45 C44 1_555 1_555
N11 C45 1_555 1_555
C46 N11 1_555 1_555
N12 C46 1_555 1_555
O1CA C1CA 1_555 1_555
O2CA C1CA 1_555 1_555
O9CA C34 1_555 1_555
C1CA C2CA 1_555 1_555
C2CA C3CA 1_555 1_555
C3CA H1CA 1_555 1_555
C4CA C3CA 1_555 1_555
H2CA C4CA 1_555 1_555
C5CA C4CA 1_555 1_555
C6CA C5CA 1_555 1_555
H3CA C6CA 1_555 1_555
C7CA C2CA 1_555 1_555
H4CA C7CA 1_555 1_555
C8CA C5CA 1_555 1_555
N1CA C9 1_555 1_555
C10CA N2 1_555 1_555
N3CA C8CA 1_555 1_555
C36CA C35 1_555 1_555
H13CA C36CA 1_555 1_555
C37CA C38 1_555 1_555
H14CA C37CA 1_555 1_555
N10CA C39 1_555 1_555
O3CA C11CA 1_555 1_555
O4CA C11CA 1_555 1_555
O7CA C26 1_555 1_555
C11CA C12CA 1_555 1_555
C12CA C13CA 1_555 1_555
C13CA H5CA 1_555 1_555
C14CA C13CA 1_555 1_555
H6CA C14CA 1_555 1_555
C15CA C14CA 1_555 1_555
C16CA C15CA 1_555 1_555
H7CA C16CA 1_555 1_555
C17CA C12CA 1_555 1_555
H8CA C17CA 1_555 1_555
C18CA C15CA 1_555 1_555
N4CA C18CA 1_555 1_555
C19CA N5 1_555 1_555
N6CA C20 1_555 1_555
N7CA C21 1_555 1_555
C23CA C22 1_555 1_555
H9CA C23CA 1_555 1_555
C24CA C25 1_555 1_555
H10CA C24CA 1_555 1_555
O8A C27A 1_555 1_555
C27A C28A 1_555 1_555
C28A C29A 1_555 1_555
C29A H11A 1_555 1_555
C30A C29A 1_555 1_555
H12A C30A 1_555 1_555
C31A C30A 1_555 1_555
C32A C31A 1_555 1_555
N8A C32A 1_555 1_555
C33A N9 1_555 1_555
O8B C27B 1_555 1_555
C27B C28B 1_555 1_555
C28B C29B 1_555 1_555
C29B H11B 1_555 1_555
C30B C29B 1_555 1_555
H12B C30B 1_555 1_555
C31B C30B 1_555 1_555
C32B C31B 1_555 1_555
N8B C32B 1_555 1_555
C33B N9 1_555 1_555
O8U C27A 1_555 1_555
C29U C28A 1_555 1_555
H11U C29U 1_555 1_555
C30U C31A 1_555 1_555
H12U C30U 1_555 1_555
N8U C32A 1_555 1_555
O8BA C27B 1_555 1_555
C29BA C28B 1_555 1_555
H11BA C29BA 1_555 1_555
C30BA C31B 1_555 1_555
H12BA C30BA 1_555 1_555
N8BA C33 1_555 1_555
O8CA C27 1_555 1_555
C29CA C28 1_555 1_555
H11CA C29CA 1_555 1_555
C30CA C31 1_555 1_555
H12CA C30CA 1_555 1_555
N8CA C32 1_555 1_555
O10A C40A 1_555 1_555
C40A C41A 1_555 1_555
C41A C42A 1_555 1_555
C42A H15A 1_555 1_555
C43A C42A 1_555 1_555
H16A C43A 1_555 1_555
C44A C43A 1_555 1_555
C45A C44A 1_555 1_555
N11A C45A 1_555 1_555
C46A N12 1_555 1_555
O10B C40B 1_555 1_555
C40B C41B 1_555 1_555
C41B C42B 1_555 1_555
C42B H15B 1_555 1_555
C43B C42B 1_555 1_555
H16B C43B 1_555 1_555
C44B C43B 1_555 1_555
C45B C44B 1_555 1_555
N11B C45B 1_555 1_555
C46B N12 1_555 1_555
O10U C40A 1_555 1_555
C42U C41A 1_555 1_555
H15U C42U 1_555 1_555
C43U C44A 1_555 1_555
H16U C43U 1_555 1_555
N11U C46 1_555 1_555
O10BA C40B 1_555 1_555
C42BA C41B 1_555 1_555
H15BA C42BA 1_555 1_555
C43BA C44B 1_555 1_555
H16BA C43BA 1_555 1_555
N11BA C46A 1_555 1_555
O10CA C40 1_555 1_555
C42CA C41 1_555 1_555
H15CA C42CA 1_555 1_555
C43CA C44 1_555 1_555
H16CA C43CA 1_555 1_555
N11CA C45 1_555 1_555
O3A C11A 1_555 1_555
O4A C11A 1_555 1_555
Cu3A O8A 1_555 1_555
O7A Cu3A 1_555 1_555
O11A Cu3A 1_555 1_555
C11A C12A 1_555 1_555
C12A C13A 1_555 1_555
C13A H5A 1_555 1_555
C14A C13A 1_555 1_555
H6A C14A 1_555 1_555
C15A C14A 1_555 1_555
C16A C15A 1_555 1_555
H7A C16A 1_555 1_555
C17A C12A 1_555 1_555
H8A C17A 1_555 1_555
C18A C15A 1_555 1_555
N4A C18A 1_555 1_555
C19A N4A 1_555 1_555
N5A C19A 1_555 1_555
C20A N5A 1_555 1_555
N6A C18A 1_555 1_555
N7A C19A 1_555 1_555
C21A N7A 1_555 1_555
C22A C21A 1_555 1_555
C23A C22A 1_555 1_555
H9A C23A 1_555 1_555
C24A C23A 1_555 1_555
H10A C24A 1_555 1_555
C25A C24A 1_555 1_555
C26A O7A 1_555 1_555
O3U C11U 1_555 1_555
O4U C11U 1_555 1_555
O7U C26A 1_555 1_555
C11U C12U 1_555 1_555
C12U C13U 1_555 1_555
C13U H5U 1_555 1_555
C14U C13U 1_555 1_555
H6U C14U 1_555 1_555
C15U C14U 1_555 1_555
C16U C15U 1_555 1_555
H7U C16U 1_555 1_555
C17U C12U 1_555 1_555
H8U C17U 1_555 1_555
C18U C15U 1_555 1_555
N4U C18U 1_555 1_555
C19U N5A 1_555 1_555
N6U C20A 1_555 1_555
N7U C21A 1_555 1_555
C23U C22A 1_555 1_555
H9U C23U 1_555 1_555
C24U C25A 1_555 1_555
H10U C24U 1_555 1_555
Cu1A O1CA 1_555 1_555
Cu2A O2CA 1_555 1_555
O1A Cu1A 1_555 1_555
O2A Cu2A 1_555 1_555
O5A Cu1A 1_555 1_555
O6A Cu2A 1_555 1_555
O9A C34A 1_555 1_555
C1A O1A 1_555 1_555
C2A C1A 1_555 1_555
C3A C2A 1_555 1_555
H1A C3A 1_555 1_555
C4A C3A 1_555 1_555
H2A C4A 1_555 1_555
C5A C4A 1_555 1_555
C6A C5A 1_555 1_555
H3A C6A 1_555 1_555
C7A C2A 1_555 1_555
H4A C7A 1_555 1_555
C8A C5A 1_555 1_555
N1A C8A 1_555 1_555
C9A N1A 1_555 1_555
N2A C9A 1_555 1_555
C10A N2A 1_555 1_555
N3A C8A 1_555 1_555
C34A C35A 1_555 1_555
C35A C36A 1_555 1_555
C36A H13A 1_555 1_555
C37A C36A 1_555 1_555
H14A C37A 1_555 1_555
C38A C37A 1_555 1_555
C39A C38A 1_555 1_555
N10A C10A 1_555 1_555
O1U C1U 1_555 1_555
O2U C1U 1_555 1_555
O9U C34A 1_555 1_555
C1U C2U 1_555 1_555
C2U C3U 1_555 1_555
C3U H1U 1_555 1_555
C4U C3U 1_555 1_555
H2U C4U 1_555 1_555
C5U C4U 1_555 1_555
C6U C5U 1_555 1_555
H3U C6U 1_555 1_555
C7U C2U 1_555 1_555
H4U C7U 1_555 1_555
C8U C5U 1_555 1_555
N1U C9A 1_555 1_555
C10U N2A 1_555 1_555
N3U C8U 1_555 1_555
C36U C35A 1_555 1_555
H13U C36U 1_555 1_555
C37U C38A 1_555 1_555
H14U C37U 1_555 1_555
N10U C39A 1_555 1_555
Cu1A_2 O4CA 1_555 1_555
Cu2A_2 O3CA 1_555 1_555
O3A_2 Cu2A_2 1_555 1_555
O4A_2 Cu1A_2 1_555 1_555
O5A_2 Cu1A_2 1_555 1_555
O6A_2 Cu2A_2 1_555 1_555
Cu3A_2 O10A 1_555 1_555
O7A_2 Cu3A_2 1_555 1_555
O11A_2 Cu3A_2 1_555 1_555
C11A_2 O3A_2 1_555 1_555
C12A_2 C11A_2 1_555 1_555
C13A_2 C12A_2 1_555 1_555
H5A_2 C13A_2 1_555 1_555
C14A_2 C13A_2 1_555 1_555
H6A_2 C14A_2 1_555 1_555
C15A_2 C14A_2 1_555 1_555
C16A_2 C15A_2 1_555 1_555
H7A_2 C16A_2 1_555 1_555
C17A_2 C12A_2 1_555 1_555
H8A_2 C17A_2 1_555 1_555
C18A_2 C15A_2 1_555 1_555
N4A_2 C18A_2 1_555 1_555
C19A_2 N4A_2 1_555 1_555
N5A_2 C19A_2 1_555 1_555
C20A_2 N5A_2 1_555 1_555
N6A_2 C18A_2 1_555 1_555
N7A_2 C19A_2 1_555 1_555
C21A_2 N7A_2 1_555 1_555
C22A_2 C21A_2 1_555 1_555
C23A_2 C22A_2 1_555 1_555
H9A_2 C23A_2 1_555 1_555
C24A_2 C23A_2 1_555 1_555
H10A_2 C24A_2 1_555 1_555
C25A_2 C24A_2 1_555 1_555
C26A_2 O7A_2 1_555 1_555
O3U_2 C11U_2 1_555 1_555
O4U_2 C11U_2 1_555 1_555
O7U_2 C26A_2 1_555 1_555
C11U_2 C12U_2 1_555 1_555
C12U_2 C13U_2 1_555 1_555
C13U_2 H5U_2 1_555 1_555
C14U_2 C13U_2 1_555 1_555
H6U_2 C14U_2 1_555 1_555
C15U_2 C14U_2 1_555 1_555
C16U_2 C15U_2 1_555 1_555
H7U_2 C16U_2 1_555 1_555
C17U_2 C12U_2 1_555 1_555
H8U_2 C17U_2 1_555 1_555
C18U_2 C15U_2 1_555 1_555
N4U_2 C18U_2 1_555 1_555
C19U_2 N5A_2 1_555 1_555
N6U_2 C20A_2 1_555 1_555
N7U_2 C21A_2 1_555 1_555
C23U_2 C22A_2 1_555 1_555
H9U_2 C23U_2 1_555 1_555
C24U_2 C25A_2 1_555 1_555
H10U_2 C24U_2 1_555 1_555
O1BA Cu1 1_555 1_555
O2BA Cu2 1_555 1_555
O9BA C34B 1_555 1_555
C1BA O1BA 1_555 1_555
C2BA C1BA 1_555 1_555
C3BA C2BA 1_555 1_555
H1BA C3BA 1_555 1_555
C4BA C3BA 1_555 1_555
H2BA C4BA 1_555 1_555
C5BA C4BA 1_555 1_555
C6BA C5BA 1_555 1_555
H3BA C6BA 1_555 1_555
C7BA C2BA 1_555 1_555
H4BA C7BA 1_555 1_555
C8BA C5BA 1_555 1_555
N1BA C8BA 1_555 1_555
C9B N1BA 1_555 1_555
N2B C9B 1_555 1_555
C10BA N2B 1_555 1_555
N3BA C8BA 1_555 1_555
C34B C35B 1_555 1_555
C35B C36BA 1_555 1_555
C36BA H13BA 1_555 1_555
C37BA C36BA 1_555 1_555
H14BA C37BA 1_555 1_555
C38B C37BA 1_555 1_555
C39B C38B 1_555 1_555
N10BA C10BA 1_555 1_555
O1B C1B 1_555 1_555
O2B C1B 1_555 1_555
O9B C34B 1_555 1_555
C1B C2B 1_555 1_555
C2B C3B 1_555 1_555
C3B H1B 1_555 1_555
C4B C3B 1_555 1_555
H2B C4B 1_555 1_555
C5B C4B 1_555 1_555
C6B C5B 1_555 1_555
H3B C6B 1_555 1_555
C7B C2B 1_555 1_555
H4B C7B 1_555 1_555
C8B C5B 1_555 1_555
N1B C9B 1_555 1_555
C10B N2B 1_555 1_555
N3B C8B 1_555 1_555
C36B C35B 1_555 1_555
H13B C36B 1_555 1_555
C37B C38B 1_555 1_555
H14B C37B 1_555 1_555
N10B C39B 1_555 1_555
Cu3CA Cu3 1_555 1_555
O11CA Cu3CA 1_555 1_555
Cu3D O9 1_555 1_555
O11D Cu3D 1_555 1_555
Cu3GA O9CA 1_555 1_555
O11GA Cu3GA 1_555 1_555
Cu1A_3 O4A 1_555 1_555
Cu1B O4U 1_555 1_555
Cu1B_2 O4U_2 1_555 1_555
Cu2A_3 O3A 1_555 1_555
Cu2B O3U 1_555 1_555
Cu2B_2 O3U_2 1_555 1_555
O1A_2 Cu1A_2 1_555 1_555
O1CA_2 Cu1A_2 1_555 1_555
O2A_2 Cu2A_2 1_555 1_555
O2CA_2 Cu2A_2 1_555 1_555
O3A_3 Cu2A 1_555 1_555
O3BA Cu2 1_555 1_555
O3CA_2 Cu2A 1_555 1_555
O4A_3 Cu1A 1_555 1_555
O4BA Cu1 1_555 1_555
O4CA_2 Cu1A 1_555 1_555
Cu3B O8B 1_555 1_555
Cu3B_2 O10B 1_555 1_555
Cu3E O9A 1_555 1_555
Cu3F O9B 1_555 1_555
Cu3U O8U 1_555 1_555
Cu3U_2 O10U 1_555 1_555
Cu3AA O9U 1_555 1_555
Cu3BA O8BA 1_555 1_555
Cu3BA_2 O10BA 1_555 1_555
Cu3FA O9BA 1_555 1_555
O7D Cu3D 1_555 1_555
O7GA Cu3GA 1_555 1_555
O8A_2 Cu3A_2 1_555 1_555
O8D Cu3D 1_555 1_555
O8GA Cu3GA 1_555 1_555
O9H Cu3 1_555 1_555
O9L Cu3A 1_555 1_555
O9L_2 Cu3A_2 1_555 1_555
O9IA Cu3CA 1_555 1_555
O10A_2 Cu3A 1_555 1_555
O10D Cu3D 1_555 1_555
O10GA Cu3GA 1_555 1_555
O4 C11 1_555 1_555
C6 C7 1_555 1_555
C10 N3 1_555 1_555
C16 C17 1_555 1_555
C20 N6 1_555 1_555
C39 N10 1_555 1_555
C6CA C7CA 1_555 1_555
C8CA N1CA 1_555 1_555
C10CA N3CA 1_555 1_555
C10CA N10CA 1_555 1_555
C36CA C37CA 1_555 1_555
O7CA Cu3CA 1_555 1_555
C16CA C17CA 1_555 1_555
C18CA N6CA 1_555 1_555
N4CA C19CA 1_555 1_555
C19CA N7CA 1_555 1_555
C23CA C24CA 1_555 1_555
N8A C33A 1_555 1_555
C33A N8CA 1_555 1_555
C32B N8BA 1_555 1_555
N8B C33B 1_555 1_555
C33B N8U 1_555 1_555
C29U C30U 1_555 1_555
C29BA C30BA 1_555 1_555
O8CA Cu3CA 1_555 1_555
C29CA C30CA 1_555 1_555
C45A N11U 1_555 1_555
N11A C46A 1_555 1_555
C45B N11BA 1_555 1_555
N11B C46B 1_555 1_555
C46B N11CA 1_555 1_555
C42U C43U 1_555 1_555
C42BA C43BA 1_555 1_555
O10CA Cu3CA 1_555 1_555
C42CA C43CA 1_555 1_555
Cu3A Cu3U 1_555 1_555
C16A C17A 1_555 1_555
C20A N6A 1_555 1_555
C25A C26A 1_555 1_555
O7U Cu3U 1_555 1_555
C16U C17U 1_555 1_555
C18U N6U 1_555 1_555
N4U C19U 1_555 1_555
C19U N7U 1_555 1_555
C23U C24U 1_555 1_555
Cu1A Cu2A 1_555 1_555
O2A C1A 1_555 1_555
C6A C7A 1_555 1_555
C10A N3A 1_555 1_555
C39A N10A 1_555 1_555
O1U Cu1B 1_555 1_555
O2U Cu2B 1_555 1_555
C6U C7U 1_555 1_555
C8U N1U 1_555 1_555
C10U N3U 1_555 1_555
C10U N10U 1_555 1_555
C36U C37U 1_555 1_555
Cu1A_2 Cu2A_2 1_555 1_555
O4A_2 C11A_2 1_555 1_555
Cu3A_2 Cu3U_2 1_555 1_555
C16A_2 C17A_2 1_555 1_555
C20A_2 N6A_2 1_555 1_555
C25A_2 C26A_2 1_555 1_555
O7U_2 Cu3U_2 1_555 1_555
C16U_2 C17U_2 1_555 1_555
C18U_2 N6U_2 1_555 1_555
N4U_2 C19U_2 1_555 1_555
C19U_2 N7U_2 1_555 1_555
C23U_2 C24U_2 1_555 1_555
O2BA C1BA 1_555 1_555
C6BA C7BA 1_555 1_555
C10BA N3BA 1_555 1_555
C39B N10BA 1_555 1_555
O1B Cu1B 1_555 1_555
O2B Cu2B 1_555 1_555
C6B C7B 1_555 1_555
C8B N1B 1_555 1_555
C10B N3B 1_555 1_555
C10B N10B 1_555 1_555
C36B C37B 1_555 1_555
Cu3D Cu3GA 1_555 1_555
Cu1A_3 Cu2A_3 1_555 1_555
Cu1B Cu2B 1_555 1_555
Cu1B_2 Cu2B_2 1_555 1_555
Cu3B Cu3BA 1_555 1_555
Cu3B_2 Cu3BA_2 1_555 1_555
Cu3E Cu3AA 1_555 1_555
Cu3F Cu3FA 1_555 1_555

#END
