
#######################################################################
#
#                 Cambridge Crystallographic Data Centre
#                                CCDC 
#
#######################################################################
#
# If this CIF has been generated from an entry in the Cambridge 
# Structural Database, then it will include bibliographic, chemical, 
# crystal, experimental, refinement or atomic coordinate data resulting 
# from the CCDC's data processing and validation procedures.
#
#######################################################################

data_NIBJAK
_chemical_formula_moiety         '(C108 H60 Cu6 N28 O30)n'
_symmetry_cell_setting           cubic
_symmetry_space_group_name_H-M   'F m -3 m'
_symmetry_Int_Tables_number      225
_space_group_name_Hall           '-F 4 2 3'
loop_
_symmetry_equiv_pos_site_id
_symmetry_equiv_pos_as_xyz
1 x,y,z
2 z,x,y
3 y,z,x
4 y,x,-z
5 y,-x,z
6 -y,x,z
7 x,z,-y
8 -x,z,y
9 x,-z,y
10 z,y,-x
11 z,-y,x
12 -z,y,x
13 x,1/2+y,1/2+z
14 z,1/2+x,1/2+y
15 y,1/2+z,1/2+x
16 y,1/2+x,1/2-z
17 y,1/2-x,1/2+z
18 -y,1/2+x,1/2+z
19 x,1/2+z,1/2-y
20 -x,1/2+z,1/2+y
21 x,1/2-z,1/2+y
22 z,1/2+y,1/2-x
23 z,1/2-y,1/2+x
24 -z,1/2+y,1/2+x
25 1/2+x,y,1/2+z
26 1/2+z,x,1/2+y
27 1/2+y,z,1/2+x
28 1/2+y,x,1/2-z
29 1/2+y,-x,1/2+z
30 1/2-y,x,1/2+z
31 1/2+x,z,1/2-y
32 1/2-x,z,1/2+y
33 1/2+x,-z,1/2+y
34 1/2+z,y,1/2-x
35 1/2+z,-y,1/2+x
36 1/2-z,y,1/2+x
37 1/2+x,1/2+y,z
38 1/2+z,1/2+x,y
39 1/2+y,1/2+z,x
40 1/2+y,1/2+x,-z
41 1/2+y,1/2-x,z
42 1/2-y,1/2+x,z
43 1/2+x,1/2+z,-y
44 1/2-x,1/2+z,y
45 1/2+x,1/2-z,y
46 1/2+z,1/2+y,-x
47 1/2+z,1/2-y,x
48 1/2-z,1/2+y,x
49 -x,-y,z
50 -x,y,-z
51 x,-y,-z
52 z,-x,-y
53 -z,-x,y
54 -z,x,-y
55 -y,z,-x
56 y,-z,-x
57 -y,-z,x
58 -y,-x,-z
59 -x,-z,-y
60 -z,-y,-x
61 -x,1/2-y,1/2+z
62 -x,1/2+y,1/2-z
63 x,1/2-y,1/2-z
64 z,1/2-x,1/2-y
65 -z,1/2-x,1/2+y
66 -z,1/2+x,1/2-y
67 -y,1/2+z,1/2-x
68 y,1/2-z,1/2-x
69 -y,1/2-z,1/2+x
70 -y,1/2-x,1/2-z
71 -x,1/2-z,1/2-y
72 -z,1/2-y,1/2-x
73 1/2-x,-y,1/2+z
74 1/2-x,y,1/2-z
75 1/2+x,-y,1/2-z
76 1/2+z,-x,1/2-y
77 1/2-z,-x,1/2+y
78 1/2-z,x,1/2-y
79 1/2-y,z,1/2-x
80 1/2+y,-z,1/2-x
81 1/2-y,-z,1/2+x
82 1/2-y,-x,1/2-z
83 1/2-x,-z,1/2-y
84 1/2-z,-y,1/2-x
85 1/2-x,1/2-y,z
86 1/2-x,1/2+y,-z
87 1/2+x,1/2-y,-z
88 1/2+z,1/2-x,-y
89 1/2-z,1/2-x,y
90 1/2-z,1/2+x,-y
91 1/2-y,1/2+z,-x
92 1/2+y,1/2-z,-x
93 1/2-y,1/2-z,x
94 1/2-y,1/2-x,-z
95 1/2-x,1/2-z,-y
96 1/2-z,1/2-y,-x
97 -x,-y,-z
98 -z,-x,-y
99 -y,-z,-x
100 -y,-x,z
101 -y,x,-z
102 y,-x,-z
103 -x,-z,y
104 x,-z,-y
105 -x,z,-y
106 -z,-y,x
107 -z,y,-x
108 z,-y,-x
109 -x,1/2-y,1/2-z
110 -z,1/2-x,1/2-y
111 -y,1/2-z,1/2-x
112 -y,1/2-x,1/2+z
113 -y,1/2+x,1/2-z
114 y,1/2-x,1/2-z
115 -x,1/2-z,1/2+y
116 x,1/2-z,1/2-y
117 -x,1/2+z,1/2-y
118 -z,1/2-y,1/2+x
119 -z,1/2+y,1/2-x
120 z,1/2-y,1/2-x
121 1/2-x,-y,1/2-z
122 1/2-z,-x,1/2-y
123 1/2-y,-z,1/2-x
124 1/2-y,-x,1/2+z
125 1/2-y,x,1/2-z
126 1/2+y,-x,1/2-z
127 1/2-x,-z,1/2+y
128 1/2+x,-z,1/2-y
129 1/2-x,z,1/2-y
130 1/2-z,-y,1/2+x
131 1/2-z,y,1/2-x
132 1/2+z,-y,1/2-x
133 1/2-x,1/2-y,-z
134 1/2-z,1/2-x,-y
135 1/2-y,1/2-z,-x
136 1/2-y,1/2-x,z
137 1/2-y,1/2+x,-z
138 1/2+y,1/2-x,-z
139 1/2-x,1/2-z,y
140 1/2+x,1/2-z,-y
141 1/2-x,1/2+z,-y
142 1/2-z,1/2-y,x
143 1/2-z,1/2+y,-x
144 1/2+z,1/2-y,-x
145 x,y,-z
146 x,-y,z
147 -x,y,z
148 -z,x,y
149 z,x,-y
150 z,-x,y
151 y,-z,x
152 -y,z,x
153 y,z,-x
154 y,x,z
155 x,z,y
156 z,y,x
157 x,1/2+y,1/2-z
158 x,1/2-y,1/2+z
159 -x,1/2+y,1/2+z
160 -z,1/2+x,1/2+y
161 z,1/2+x,1/2-y
162 z,1/2-x,1/2+y
163 y,1/2-z,1/2+x
164 -y,1/2+z,1/2+x
165 y,1/2+z,1/2-x
166 y,1/2+x,1/2+z
167 x,1/2+z,1/2+y
168 z,1/2+y,1/2+x
169 1/2+x,y,1/2-z
170 1/2+x,-y,1/2+z
171 1/2-x,y,1/2+z
172 1/2-z,x,1/2+y
173 1/2+z,x,1/2-y
174 1/2+z,-x,1/2+y
175 1/2+y,-z,1/2+x
176 1/2-y,z,1/2+x
177 1/2+y,z,1/2-x
178 1/2+y,x,1/2+z
179 1/2+x,z,1/2+y
180 1/2+z,y,1/2+x
181 1/2+x,1/2+y,-z
182 1/2+x,1/2-y,z
183 1/2-x,1/2+y,z
184 1/2-z,1/2+x,y
185 1/2+z,1/2+x,-y
186 1/2+z,1/2-x,y
187 1/2+y,1/2-z,x
188 1/2-y,1/2+z,x
189 1/2+y,1/2+z,-x
190 1/2+y,1/2+x,z
191 1/2+x,1/2+z,y
192 1/2+z,1/2+y,x
_cell_length_a                   52.993(6)
_cell_length_b                   52.993(6)
_cell_length_c                   52.993(6)
_cell_angle_alpha                90
_cell_angle_beta                 90
_cell_angle_gamma                90
_cell_volume                     148818
loop_
_atom_site_label
_atom_site_type_symbol
_atom_site_fract_x
_atom_site_fract_y
_atom_site_fract_z
_atom_site_U_iso_or_equiv
_atom_site_thermal_displace_type
Cu1 Cu -0.0000 0.267747(5) 0.232253(5) 0.0879 Uani
O1 O -0.026017(18) 0.283394(19) 0.25379(2) 0.1075 Uani
O2 O 0.0000 0.29671(3) 0.20329(3) 0.1329 Uani
C1 C -0.03336(4) 0.27314(3) 0.27314(3) 0.0977 Uani
C2 C -0.05451(4) 0.28750(3) 0.28750(3) 0.1060 Uani
C3 C -0.06415(3) 0.30905(3) 0.27820(3) 0.1250 Uani
H1 H -0.0571 0.3159 0.2637 0.1500 Uiso
C4 C -0.08421(3) 0.32147(3) 0.28947(3) 0.1294 Uani
H2 H -0.0908 0.3361 0.2824 0.1550 Uiso
C5 C -0.09426(4) 0.31163(3) 0.31163(3) 0.1180 Uani
C6 C -0.11502(4) 0.32397(3) 0.32397(3) 0.1206 Uani
N1 N -0.12460(3) 0.31258(2) 0.34461(3) 0.1275 Uani
C7 C -0.14469(3) 0.32307(4) 0.35531(3) 0.1190 Uani
N2 N -0.15522(4) 0.34478(4) 0.34478(4) 0.1101 Uani
Cu1G Cu -0.0000 0.232253(5) 0.267747(5) 0.0879 Uani
Cu1Z Cu -0.232253(5) 0.232253(5) 0.5000 0.0879 Uani
Cu1GA Cu -0.267747(5) 0.267747(5) 0.5000 0.0879 Uani
Cu1KA Cu -0.267747(5) 0.5000 0.267747(5) 0.0879 Uani
Cu1NA Cu -0.232253(5) 0.5000 0.232253(5) 0.0879 Uani
Cu1E Cu -0.267747(5) -0.0000 0.232253(5) 0.0879 Uani
Cu1AA Cu -0.232253(5) 0.0000 0.267747(5) 0.0879 Uani
Cu1V Cu 0.232253(5) 0.232253(5) 0.5000 0.0879 Uani
Cu1D Cu 0.267747(5) -0.0000 0.232253(5) 0.0879 Uani
Cu1A Cu 0.232253(5) 0.0000 0.267747(5) 0.0879 Uani
Cu1B Cu 0.267747(5) 0.232253(5) 0.0000 0.0879 Uani
Cu1I Cu 0.232253(5) 0.267747(5) 0.0000 0.0879 Uani
Cu1IA Cu 0.267747(5) 0.267747(5) 0.5000 0.0879 Uani
Cu1OA Cu 0.232253(5) 0.5000 0.232253(5) 0.0879 Uani
Cu1O Cu 0.267747(5) 0.5000 0.267747(5) 0.0879 Uani
Cu1TA Cu -0.267747(5) 0.232253(5) 0.0000 0.0879 Uani
Cu1K Cu -0.232253(5) 0.267747(5) 0.0000 0.0879 Uani
O1PE O 0.026017(18) 0.283394(19) 0.25379(2) 0.1075 Uani
O1KD O -0.026017(18) 0.24621(2) 0.216606(19) 0.1075 Uani
O1RB O 0.026017(18) 0.24621(2) 0.216606(19) 0.1075 Uani
O1XE O -0.026017(18) 0.25379(2) 0.283394(19) 0.1075 Uani
O1G O 0.026017(18) 0.25379(2) 0.283394(19) 0.1075 Uani
O1DD O 0.026017(18) 0.216606(19) 0.24621(2) 0.1075 Uani
O1JB O -0.026017(18) 0.216606(19) 0.24621(2) 0.1075 Uani
O1Z O -0.216606(19) 0.25379(2) 0.473983(18) 0.1075 Uani
O1WF O -0.24621(2) 0.283394(19) 0.473983(18) 0.1075 Uani
O1KA O -0.24621(2) 0.473983(18) 0.283394(19) 0.1075 Uani
O1GG O -0.216606(19) 0.473983(18) 0.25379(2) 0.1075 Uani
O1TF O -0.216606(19) 0.25379(2) 0.526017(18) 0.1075 Uani
O1MD O -0.25379(2) 0.216606(19) 0.473983(18) 0.1075 Uani
O1SB O -0.25379(2) 0.216606(19) 0.526017(18) 0.1075 Uani
O1GA O -0.24621(2) 0.283394(19) 0.526017(18) 0.1075 Uani
O1FD O -0.283394(19) 0.24621(2) 0.526017(18) 0.1075 Uani
O1PB O -0.283394(19) 0.24621(2) 0.473983(18) 0.1075 Uani
O1UD O -0.216606(19) 0.026017(18) 0.24621(2) 0.1075 Uani
O1WB O -0.24621(2) 0.026017(18) 0.216606(19) 0.1075 Uani
O1DE O 0.216606(19) 0.24621(2) 0.026017(18) 0.1075 Uani
O1QC O 0.24621(2) 0.216606(19) 0.026017(18) 0.1075 Uani
O1QD O 0.24621(2) 0.026017(18) 0.216606(19) 0.1075 Uani
O1CC O 0.216606(19) 0.026017(18) 0.24621(2) 0.1075 Uani
O1IA O 0.24621(2) 0.283394(19) 0.473983(18) 0.1075 Uani
O1SF O 0.216606(19) 0.25379(2) 0.473983(18) 0.1075 Uani
O1ME O -0.24621(2) 0.216606(19) 0.026017(18) 0.1075 Uani
O1MC O -0.216606(19) 0.24621(2) 0.026017(18) 0.1075 Uani
O1OA O 0.216606(19) 0.473983(18) 0.25379(2) 0.1075 Uani
O1AG O 0.24621(2) 0.473983(18) 0.283394(19) 0.1075 Uani
O1K O -0.25379(2) 0.283394(19) -0.026017(18) 0.1075 Uani
O1DG O -0.216606(19) 0.24621(2) -0.026017(18) 0.1075 Uani
O1BD O -0.25379(2) 0.283394(19) 0.026017(18) 0.1075 Uani
O1TA O -0.24621(2) 0.216606(19) -0.026017(18) 0.1075 Uani
O1UE O -0.283394(19) 0.25379(2) -0.026017(18) 0.1075 Uani
O1BB O -0.283394(19) 0.25379(2) 0.026017(18) 0.1075 Uani
O2G O -0.0000 0.20329(3) 0.29671(3) 0.1329 Uani
O2Z O -0.20329(3) 0.20329(3) 0.5000 0.1329 Uani
O2GA O -0.29671(3) 0.29671(3) 0.5000 0.1329 Uani
O2K O -0.20329(3) 0.29671(3) 0.0000 0.1329 Uani
O2TA O -0.29671(3) 0.20329(3) 0.0000 0.1329 Uani
C1G C 0.03336(4) 0.27314(3) 0.27314(3) 0.0977 Uani
C1KD C -0.03336(4) 0.22686(3) 0.22686(3) 0.0977 Uani
C1DD C 0.03336(4) 0.22686(3) 0.22686(3) 0.0977 Uani
C1Z C -0.22686(3) 0.27314(3) 0.46664(4) 0.0977 Uani
C1KA C -0.22686(3) 0.46664(4) 0.27314(3) 0.0977 Uani
C1DE C 0.22686(3) 0.22686(3) 0.03336(4) 0.0977 Uani
C1QD C 0.22686(3) 0.03336(4) 0.22686(3) 0.0977 Uani
C1OA C 0.22686(3) 0.46664(4) 0.27314(3) 0.0977 Uani
C1IA C 0.22686(3) 0.27314(3) 0.46664(4) 0.0977 Uani
C1UD C -0.22686(3) 0.03336(4) 0.22686(3) 0.0977 Uani
C1ME C -0.22686(3) 0.22686(3) 0.03336(4) 0.0977 Uani
C2G C 0.05451(4) 0.28750(3) 0.28750(3) 0.1060 Uani
C2KD C -0.05451(4) 0.21250(3) 0.21250(3) 0.1060 Uani
C2DD C 0.05451(4) 0.21250(3) 0.21250(3) 0.1060 Uani
C2Z C -0.21250(3) 0.28750(3) 0.44549(4) 0.1060 Uani
C2KA C -0.21250(3) 0.44549(4) 0.28750(3) 0.1060 Uani
C2UD C -0.21250(3) 0.05451(4) 0.21250(3) 0.1060 Uani
C2QD C 0.21250(3) 0.05451(4) 0.21250(3) 0.1060 Uani
C2DE C 0.21250(3) 0.21250(3) 0.05451(4) 0.1060 Uani
C2IA C 0.21250(3) 0.28750(3) 0.44549(4) 0.1060 Uani
C2OA C 0.21250(3) 0.44549(4) 0.28750(3) 0.1060 Uani
C2ME C -0.21250(3) 0.21250(3) 0.05451(4) 0.1060 Uani
C3XE C -0.06415(3) 0.27820(3) 0.30905(3) 0.1250 Uani
C3G C 0.06415(3) 0.27820(3) 0.30905(3) 0.1250 Uani
C3PE C 0.06415(3) 0.30905(3) 0.27820(3) 0.1250 Uani
C3KD C -0.06415(3) 0.22180(3) 0.19095(3) 0.1250 Uani
C3JB C -0.06415(3) 0.19095(3) 0.22180(3) 0.1250 Uani
C3DD C 0.06415(3) 0.19095(3) 0.22180(3) 0.1250 Uani
C3RB C 0.06415(3) 0.22180(3) 0.19095(3) 0.1250 Uani
C3Z C -0.19095(3) 0.27820(3) 0.43585(3) 0.1250 Uani
C3WF C -0.22180(3) 0.30905(3) 0.43585(3) 0.1250 Uani
C3KA C -0.22180(3) 0.43585(3) 0.30905(3) 0.1250 Uani
C3GG C -0.19095(3) 0.43585(3) 0.27820(3) 0.1250 Uani
C3WB C -0.22180(3) 0.06415(3) 0.19095(3) 0.1250 Uani
C3UD C -0.19095(3) 0.06415(3) 0.22180(3) 0.1250 Uani
C3QD C 0.22180(3) 0.06415(3) 0.19095(3) 0.1250 Uani
C3CC C 0.19095(3) 0.06415(3) 0.22180(3) 0.1250 Uani
C3QC C 0.22180(3) 0.19095(3) 0.06415(3) 0.1250 Uani
C3DE C 0.19095(3) 0.22180(3) 0.06415(3) 0.1250 Uani
C3SF C 0.19095(3) 0.27820(3) 0.43585(3) 0.1250 Uani
C3IA C 0.22180(3) 0.30905(3) 0.43585(3) 0.1250 Uani
C3AG C 0.22180(3) 0.43585(3) 0.30905(3) 0.1250 Uani
C3OA C 0.19095(3) 0.43585(3) 0.27820(3) 0.1250 Uani
C3ME C -0.22180(3) 0.19095(3) 0.06415(3) 0.1250 Uani
C3MC C -0.19095(3) 0.22180(3) 0.06415(3) 0.1250 Uani
H1XE H -0.0571 0.2637 0.3159 0.1500 Uiso
H1G H 0.0571 0.2637 0.3159 0.1500 Uiso
H1PE H 0.0571 0.3159 0.2637 0.1500 Uiso
H1KD H -0.0571 0.2363 0.1841 0.1500 Uiso
H1JB H -0.0571 0.1841 0.2363 0.1500 Uiso
H1DD H 0.0571 0.1841 0.2363 0.1500 Uiso
H1RB H 0.0571 0.2363 0.1841 0.1500 Uiso
H1Z H -0.1841 0.2637 0.4429 0.1500 Uiso
H1WF H -0.2363 0.3159 0.4429 0.1500 Uiso
H1KA H -0.2363 0.4429 0.3159 0.1500 Uiso
H1GG H -0.1841 0.4429 0.2637 0.1500 Uiso
H1WB H -0.2363 0.0571 0.1841 0.1500 Uiso
H1UD H -0.1841 0.0571 0.2363 0.1500 Uiso
H1QD H 0.2363 0.0571 0.1841 0.1500 Uiso
H1CC H 0.1841 0.0571 0.2363 0.1500 Uiso
H1QC H 0.2363 0.1841 0.0571 0.1500 Uiso
H1DE H 0.1841 0.2363 0.0571 0.1500 Uiso
H1SF H 0.1841 0.2637 0.4429 0.1500 Uiso
H1IA H 0.2363 0.3159 0.4429 0.1500 Uiso
H1OA H 0.1841 0.4429 0.2637 0.1500 Uiso
H1AG H 0.2363 0.4429 0.3159 0.1500 Uiso
H1ME H -0.2363 0.1841 0.0571 0.1500 Uiso
H1MC H -0.1841 0.2363 0.0571 0.1500 Uiso
C4XE C -0.08421(3) 0.28947(3) 0.32147(3) 0.1294 Uani
C4Z C -0.17853(3) 0.28947(3) 0.41579(3) 0.1294 Uani
C4WF C -0.21053(3) 0.32147(3) 0.41579(3) 0.1294 Uani
C4G C 0.08421(3) 0.28947(3) 0.32147(3) 0.1294 Uani
C4PE C 0.08421(3) 0.32147(3) 0.28947(3) 0.1294 Uani
C4KD C -0.08421(3) 0.21053(3) 0.17853(3) 0.1294 Uani
C4JB C -0.08421(3) 0.17853(3) 0.21053(3) 0.1294 Uani
C4DD C 0.08421(3) 0.17853(3) 0.21053(3) 0.1294 Uani
C4RB C 0.08421(3) 0.21053(3) 0.17853(3) 0.1294 Uani
C4KA C -0.21053(3) 0.41579(3) 0.32147(3) 0.1294 Uani
C4GG C -0.17853(3) 0.41579(3) 0.28947(3) 0.1294 Uani
C4QD C 0.21053(3) 0.08421(3) 0.17853(3) 0.1294 Uani
C4CC C 0.17853(3) 0.08421(3) 0.21053(3) 0.1294 Uani
C4DE C 0.17853(3) 0.21053(3) 0.08421(3) 0.1294 Uani
C4QC C 0.21053(3) 0.17853(3) 0.08421(3) 0.1294 Uani
C4IA C 0.21053(3) 0.32147(3) 0.41579(3) 0.1294 Uani
C4SF C 0.17853(3) 0.28947(3) 0.41579(3) 0.1294 Uani
C4OA C 0.17853(3) 0.41579(3) 0.28947(3) 0.1294 Uani
C4AG C 0.21053(3) 0.41579(3) 0.32147(3) 0.1294 Uani
C4UD C -0.17853(3) 0.08421(3) 0.21053(3) 0.1294 Uani
C4WB C -0.21053(3) 0.08421(3) 0.17853(3) 0.1294 Uani
C4ME C -0.21053(3) 0.17853(3) 0.08421(3) 0.1294 Uani
C4MC C -0.17853(3) 0.21053(3) 0.08421(3) 0.1294 Uani
H2XE H -0.0908 0.2824 0.3361 0.1550 Uiso
H2Z H -0.1639 0.2824 0.4092 0.1550 Uiso
H2WF H -0.2176 0.3361 0.4092 0.1550 Uiso
H2G H 0.0908 0.2824 0.3361 0.1550 Uiso
H2PE H 0.0908 0.3361 0.2824 0.1550 Uiso
H2KD H -0.0908 0.2176 0.1639 0.1550 Uiso
H2JB H -0.0908 0.1639 0.2176 0.1550 Uiso
H2DD H 0.0908 0.1639 0.2176 0.1550 Uiso
H2RB H 0.0908 0.2176 0.1639 0.1550 Uiso
H2KA H -0.2176 0.4092 0.3361 0.1550 Uiso
H2GG H -0.1639 0.4092 0.2824 0.1550 Uiso
H2WB H -0.2176 0.0908 0.1639 0.1550 Uiso
H2UD H -0.1639 0.0908 0.2176 0.1550 Uiso
H2QD H 0.2176 0.0908 0.1639 0.1550 Uiso
H2CC H 0.1639 0.0908 0.2176 0.1550 Uiso
H2QC H 0.2176 0.1639 0.0908 0.1550 Uiso
H2DE H 0.1639 0.2176 0.0908 0.1550 Uiso
H2SF H 0.1639 0.2824 0.4092 0.1550 Uiso
H2IA H 0.2176 0.3361 0.4092 0.1550 Uiso
H2AG H 0.2176 0.4092 0.3361 0.1550 Uiso
H2OA H 0.1639 0.4092 0.2824 0.1550 Uiso
H2ME H -0.2176 0.1639 0.0908 0.1550 Uiso
H2MC H -0.1639 0.2176 0.0908 0.1550 Uiso
C5Z C -0.18837(3) 0.31163(3) 0.40574(4) 0.1180 Uani
C5KA C -0.18837(3) 0.40574(4) 0.31163(3) 0.1180 Uani
C5G C 0.09426(4) 0.31163(3) 0.31163(3) 0.1180 Uani
C5KD C -0.09426(4) 0.18837(3) 0.18837(3) 0.1180 Uani
C5DD C 0.09426(4) 0.18837(3) 0.18837(3) 0.1180 Uani
C5UD C -0.18837(3) 0.09426(4) 0.18837(3) 0.1180 Uani
C5QD C 0.18837(3) 0.09426(4) 0.18837(3) 0.1180 Uani
C5DE C 0.18837(3) 0.18837(3) 0.09426(4) 0.1180 Uani
C5IA C 0.18837(3) 0.31163(3) 0.40574(4) 0.1180 Uani
C5OA C 0.18837(3) 0.40574(4) 0.31163(3) 0.1180 Uani
C5ME C -0.18837(3) 0.18837(3) 0.09426(4) 0.1180 Uani
C6Z C -0.17603(3) 0.32397(3) 0.38498(4) 0.1206 Uani
C6KA C -0.17603(3) 0.38498(4) 0.32397(3) 0.1206 Uani
C6G C 0.11502(4) 0.32397(3) 0.32397(3) 0.1206 Uani
C6KD C -0.11502(4) 0.17603(3) 0.17603(3) 0.1206 Uani
C6DD C 0.11502(4) 0.17603(3) 0.17603(3) 0.1206 Uani
C6UD C -0.17603(3) 0.11502(4) 0.17603(3) 0.1206 Uani
C6IA C 0.17603(3) 0.32397(3) 0.38498(4) 0.1206 Uani
C6OA C 0.17603(3) 0.38498(4) 0.32397(3) 0.1206 Uani
C6QD C 0.17603(3) 0.11502(4) 0.17603(3) 0.1206 Uani
C6DE C 0.17603(3) 0.17603(3) 0.11502(4) 0.1206 Uani
C6ME C -0.17603(3) 0.17603(3) 0.11502(4) 0.1206 Uani
N1XE N -0.12460(3) 0.34461(3) 0.31258(2) 0.1275 Uani
N1WF N -0.15539(3) 0.31258(2) 0.37540(3) 0.1275 Uani
N1KA N -0.15539(3) 0.37540(3) 0.31258(2) 0.1275 Uani
N1Z N -0.18742(2) 0.34461(3) 0.37540(3) 0.1275 Uani
N1GG N -0.18742(2) 0.37540(3) 0.34461(3) 0.1275 Uani
N1G N 0.12460(3) 0.34461(3) 0.31258(2) 0.1275 Uani
N1PE N 0.12460(3) 0.31258(2) 0.34461(3) 0.1275 Uani
N1KD N -0.12460(3) 0.15539(3) 0.18742(2) 0.1275 Uani
N1JB N -0.12460(3) 0.18742(2) 0.15539(3) 0.1275 Uani
N1DD N 0.12460(3) 0.18742(2) 0.15539(3) 0.1275 Uani
N1RB N 0.12460(3) 0.15539(3) 0.18742(2) 0.1275 Uani
N1IA N 0.15539(3) 0.31258(2) 0.37540(3) 0.1275 Uani
N1AG N 0.15539(3) 0.37540(3) 0.31258(2) 0.1275 Uani
N1QD N 0.15539(3) 0.12460(3) 0.18742(2) 0.1275 Uani
N1QC N 0.15539(3) 0.18742(2) 0.12460(3) 0.1275 Uani
N1WB N -0.15539(3) 0.12460(3) 0.18742(2) 0.1275 Uani
N1ME N -0.15539(3) 0.18742(2) 0.12460(3) 0.1275 Uani
N1UD N -0.18742(2) 0.12460(3) 0.15539(3) 0.1275 Uani
N1CC N 0.18742(2) 0.12460(3) 0.15539(3) 0.1275 Uani
N1DE N 0.18742(2) 0.15539(3) 0.12460(3) 0.1275 Uani
N1SF N 0.18742(2) 0.34461(3) 0.37540(3) 0.1275 Uani
N1OA N 0.18742(2) 0.37540(3) 0.34461(3) 0.1275 Uani
N1MC N -0.18742(2) 0.15539(3) 0.12460(3) 0.1275 Uani
C7KA C -0.14469(3) 0.35531(3) 0.32307(4) 0.1190 Uani
C7Z C -0.17693(4) 0.35531(3) 0.35531(3) 0.1190 Uani
C7G C 0.14469(3) 0.35531(3) 0.32307(4) 0.1190 Uani
C7IA C 0.14469(3) 0.32307(4) 0.35531(3) 0.1190 Uani
C7KD C -0.14469(3) 0.14469(3) 0.17693(4) 0.1190 Uani
C7ME C -0.14469(3) 0.17693(4) 0.14469(3) 0.1190 Uani
C7DD C 0.14469(3) 0.17693(4) 0.14469(3) 0.1190 Uani
C7QD C 0.14469(3) 0.14469(3) 0.17693(4) 0.1190 Uani
C7DE C 0.17693(4) 0.14469(3) 0.14469(3) 0.1190 Uani
C7OA C 0.17693(4) 0.35531(3) 0.35531(3) 0.1190 Uani
C7UD C -0.17693(4) 0.14469(3) 0.14469(3) 0.1190 Uani
N2G N 0.15522(4) 0.34478(4) 0.34478(4) 0.1101 Uani
N2DD N 0.15522(4) 0.15522(4) 0.15522(4) 0.1101 Uani
N2KD N -0.15522(4) 0.15522(4) 0.15522(4) 0.1101 Uani
loop_
_atom_site_aniso_label
_atom_site_aniso_U_11
_atom_site_aniso_U_22
_atom_site_aniso_U_33
_atom_site_aniso_U_23
_atom_site_aniso_U_13
_atom_site_aniso_U_12
Cu1 0.0699(7) 0.0969(7) 0.0969(7) 0.0138(2) 0.000 0.000
O1 0.0961(9) 0.1110(9) 0.1153(10) 0.0251(6) 0.0135(6) 0.0139(5)
O2 0.157(2) 0.1208(12) 0.1208(12) 0.0300(13) 0.000 0.000
C1 0.0726(14) 0.1102(11) 0.1102(11) 0.0154(14) 0.0100(8) 0.0100(8)
C2 0.0985(16) 0.1097(12) 0.1097(12) 0.0177(13) 0.0185(9) 0.0185(9)
C3 0.1223(14) 0.1259(14) 0.1268(14) 0.0304(11) 0.0452(11) 0.0336(11)
C4 0.1316(14) 0.1272(14) 0.1294(15) 0.0392(11) 0.0477(11) 0.0380(11)
C5 0.1139(18) 0.1201(12) 0.1201(12) 0.0280(15) 0.0328(11) 0.0328(11)
C6 0.1193(18) 0.1213(12) 0.1213(12) 0.0373(16) 0.0313(12) 0.0313(12)
N1 0.1281(12) 0.1259(12) 0.1284(12) 0.0444(8) 0.0460(9) 0.0480(9)
C7 0.1181(12) 0.1209(18) 0.1181(12) 0.0401(11) 0.0374(15) 0.0401(11)
N2 0.1101(11) 0.1101(11) 0.1101(11) 0.0289(12) 0.0289(12) 0.0289(12)
Cu1G 0.0699 0.0969 0.0969 0.0138 0 0
Cu1Z 0.0969 0.0969 0.0699 0 0 0.0138
Cu1GA 0.0969 0.0969 0.0699 0 0 0.0138
Cu1KA 0.0969 0.0699 0.0969 0 0.0138 0
Cu1NA 0.0969 0.0699 0.0969 0 0.0138 0
Cu1E 0.0969 0.0699 0.0969 0 -0.0138 0
Cu1AA 0.0969 0.0699 0.0969 0 -0.0138 0
Cu1V 0.0969 0.0969 0.0699 0 0 -0.0138
Cu1D 0.0969 0.0699 0.0969 0 0.0138 0
Cu1A 0.0969 0.0699 0.0969 0 0.0138 0
Cu1B 0.0969 0.0969 0.0699 0 0 0.0138
Cu1I 0.0969 0.0969 0.0699 0 0 0.0138
Cu1IA 0.0969 0.0969 0.0699 0 0 -0.0138
Cu1OA 0.0969 0.0699 0.0969 0 -0.0138 0
Cu1O 0.0969 0.0699 0.0969 0 -0.0138 0
Cu1TA 0.0969 0.0969 0.0699 0 0 -0.0138
Cu1K 0.0969 0.0969 0.0699 0 0 -0.0138
O1PE 0.0961 0.111 0.1153 0.0251 -0.0135 -0.0139
O1KD 0.0961 0.1153 0.111 0.0251 -0.0139 -0.0135
O1RB 0.0961 0.1153 0.111 0.0251 0.0139 0.0135
O1XE 0.0961 0.1153 0.111 0.0251 0.0139 0.0135
O1G 0.0961 0.1153 0.111 0.0251 -0.0139 -0.0135
O1DD 0.0961 0.111 0.1153 0.0251 0.0135 0.0139
O1JB 0.0961 0.111 0.1153 0.0251 -0.0135 -0.0139
O1Z 0.111 0.1153 0.0961 0.0135 0.0139 0.0251
O1WF 0.1153 0.111 0.0961 0.0139 0.0135 0.0251
O1KA 0.1153 0.0961 0.111 0.0139 0.0251 0.0135
O1GG 0.111 0.0961 0.1153 0.0135 0.0251 0.0139
O1TF 0.111 0.1153 0.0961 -0.0135 -0.0139 0.0251
O1MD 0.1153 0.111 0.0961 -0.0139 -0.0135 0.0251
O1SB 0.1153 0.111 0.0961 0.0139 0.0135 0.0251
O1GA 0.1153 0.111 0.0961 -0.0139 -0.0135 0.0251
O1FD 0.111 0.1153 0.0961 0.0135 0.0139 0.0251
O1PB 0.111 0.1153 0.0961 -0.0135 -0.0139 0.0251
O1UD 0.111 0.0961 0.1153 0.0135 -0.0251 -0.0139
O1WB 0.1153 0.0961 0.111 0.0139 -0.0251 -0.0135
O1DE 0.111 0.1153 0.0961 0.0135 0.0139 0.0251
O1QC 0.1153 0.111 0.0961 0.0139 0.0135 0.0251
O1QD 0.1153 0.0961 0.111 0.0139 0.0251 0.0135
O1CC 0.111 0.0961 0.1153 0.0135 0.0251 0.0139
O1IA 0.1153 0.111 0.0961 0.0139 -0.0135 -0.0251
O1SF 0.111 0.1153 0.0961 0.0135 -0.0139 -0.0251
O1ME 0.1153 0.111 0.0961 0.0139 -0.0135 -0.0251
O1MC 0.111 0.1153 0.0961 0.0135 -0.0139 -0.0251
O1OA 0.111 0.0961 0.1153 0.0135 -0.0251 -0.0139
O1AG 0.1153 0.0961 0.111 0.0139 -0.0251 -0.0135
O1K 0.1153 0.111 0.0961 0.0139 -0.0135 -0.0251
O1DG 0.111 0.1153 0.0961 -0.0135 0.0139 -0.0251
O1BD 0.1153 0.111 0.0961 -0.0139 0.0135 -0.0251
O1TA 0.1153 0.111 0.0961 -0.0139 0.0135 -0.0251
O1UE 0.111 0.1153 0.0961 0.0135 -0.0139 -0.0251
O1BB 0.111 0.1153 0.0961 -0.0135 0.0139 -0.0251
O2G 0.157 0.1208 0.1208 0.03 0 0
O2Z 0.1208 0.1208 0.157 0 0 0.03
O2GA 0.1208 0.1208 0.157 0 0 0.03
O2K 0.1208 0.1208 0.157 0 0 -0.03
O2TA 0.1208 0.1208 0.157 0 0 -0.03
C1G 0.0726 0.1102 0.1102 0.0154 -0.01 -0.01
C1KD 0.0726 0.1102 0.1102 0.0154 -0.01 -0.01
C1DD 0.0726 0.1102 0.1102 0.0154 0.01 0.01
C1Z 0.1102 0.1102 0.0726 0.01 0.01 0.0154
C1KA 0.1102 0.0726 0.1102 0.01 0.0154 0.01
C1DE 0.1102 0.1102 0.0726 0.01 0.01 0.0154
C1QD 0.1102 0.0726 0.1102 0.01 0.0154 0.01
C1OA 0.1102 0.0726 0.1102 0.01 -0.0154 -0.01
C1IA 0.1102 0.1102 0.0726 0.01 -0.01 -0.0154
C1UD 0.1102 0.0726 0.1102 0.01 -0.0154 -0.01
C1ME 0.1102 0.1102 0.0726 0.01 -0.01 -0.0154
C2G 0.0985 0.1097 0.1097 0.0177 -0.0185 -0.0185
C2KD 0.0985 0.1097 0.1097 0.0177 -0.0185 -0.0185
C2DD 0.0985 0.1097 0.1097 0.0177 0.0185 0.0185
C2Z 0.1097 0.1097 0.0985 0.0185 0.0185 0.0177
C2KA 0.1097 0.0985 0.1097 0.0185 0.0177 0.0185
C2UD 0.1097 0.0985 0.1097 0.0185 -0.0177 -0.0185
C2QD 0.1097 0.0985 0.1097 0.0185 0.0177 0.0185
C2DE 0.1097 0.1097 0.0985 0.0185 0.0185 0.0177
C2IA 0.1097 0.1097 0.0985 0.0185 -0.0185 -0.0177
C2OA 0.1097 0.0985 0.1097 0.0185 -0.0177 -0.0185
C2ME 0.1097 0.1097 0.0985 0.0185 -0.0185 -0.0177
C3XE 0.1223 0.1268 0.1259 0.0304 0.0336 0.0452
C3G 0.1223 0.1268 0.1259 0.0304 -0.0336 -0.0452
C3PE 0.1223 0.1259 0.1268 0.0304 -0.0452 -0.0336
C3KD 0.1223 0.1268 0.1259 0.0304 -0.0336 -0.0452
C3JB 0.1223 0.1259 0.1268 0.0304 -0.0452 -0.0336
C3DD 0.1223 0.1259 0.1268 0.0304 0.0452 0.0336
C3RB 0.1223 0.1268 0.1259 0.0304 0.0336 0.0452
C3Z 0.1259 0.1268 0.1223 0.0452 0.0336 0.0304
C3WF 0.1268 0.1259 0.1223 0.0336 0.0452 0.0304
C3KA 0.1268 0.1223 0.1259 0.0336 0.0304 0.0452
C3GG 0.1259 0.1223 0.1268 0.0452 0.0304 0.0336
C3WB 0.1268 0.1223 0.1259 0.0336 -0.0304 -0.0452
C3UD 0.1259 0.1223 0.1268 0.0452 -0.0304 -0.0336
C3QD 0.1268 0.1223 0.1259 0.0336 0.0304 0.0452
C3CC 0.1259 0.1223 0.1268 0.0452 0.0304 0.0336
C3QC 0.1268 0.1259 0.1223 0.0336 0.0452 0.0304
C3DE 0.1259 0.1268 0.1223 0.0452 0.0336 0.0304
C3SF 0.1259 0.1268 0.1223 0.0452 -0.0336 -0.0304
C3IA 0.1268 0.1259 0.1223 0.0336 -0.0452 -0.0304
C3AG 0.1268 0.1223 0.1259 0.0336 -0.0304 -0.0452
C3OA 0.1259 0.1223 0.1268 0.0452 -0.0304 -0.0336
C3ME 0.1268 0.1259 0.1223 0.0336 -0.0452 -0.0304
C3MC 0.1259 0.1268 0.1223 0.0452 -0.0336 -0.0304
C4XE 0.1316 0.1294 0.1272 0.0392 0.038 0.0477
C4Z 0.1272 0.1294 0.1316 0.0477 0.038 0.0392
C4WF 0.1294 0.1272 0.1316 0.038 0.0477 0.0392
C4G 0.1316 0.1294 0.1272 0.0392 -0.038 -0.0477
C4PE 0.1316 0.1272 0.1294 0.0392 -0.0477 -0.038
C4KD 0.1316 0.1294 0.1272 0.0392 -0.038 -0.0477
C4JB 0.1316 0.1272 0.1294 0.0392 -0.0477 -0.038
C4DD 0.1316 0.1272 0.1294 0.0392 0.0477 0.038
C4RB 0.1316 0.1294 0.1272 0.0392 0.038 0.0477
C4KA 0.1294 0.1316 0.1272 0.038 0.0392 0.0477
C4GG 0.1272 0.1316 0.1294 0.0477 0.0392 0.038
C4QD 0.1294 0.1316 0.1272 0.038 0.0392 0.0477
C4CC 0.1272 0.1316 0.1294 0.0477 0.0392 0.038
C4DE 0.1272 0.1294 0.1316 0.0477 0.038 0.0392
C4QC 0.1294 0.1272 0.1316 0.038 0.0477 0.0392
C4IA 0.1294 0.1272 0.1316 0.038 -0.0477 -0.0392
C4SF 0.1272 0.1294 0.1316 0.0477 -0.038 -0.0392
C4OA 0.1272 0.1316 0.1294 0.0477 -0.0392 -0.038
C4AG 0.1294 0.1316 0.1272 0.038 -0.0392 -0.0477
C4UD 0.1272 0.1316 0.1294 0.0477 -0.0392 -0.038
C4WB 0.1294 0.1316 0.1272 0.038 -0.0392 -0.0477
C4ME 0.1294 0.1272 0.1316 0.038 -0.0477 -0.0392
C4MC 0.1272 0.1294 0.1316 0.0477 -0.038 -0.0392
C5Z 0.1201 0.1201 0.1139 0.0328 0.0328 0.028
C5KA 0.1201 0.1139 0.1201 0.0328 0.028 0.0328
C5G 0.1139 0.1201 0.1201 0.028 -0.0328 -0.0328
C5KD 0.1139 0.1201 0.1201 0.028 -0.0328 -0.0328
C5DD 0.1139 0.1201 0.1201 0.028 0.0328 0.0328
C5UD 0.1201 0.1139 0.1201 0.0328 -0.028 -0.0328
C5QD 0.1201 0.1139 0.1201 0.0328 0.028 0.0328
C5DE 0.1201 0.1201 0.1139 0.0328 0.0328 0.028
C5IA 0.1201 0.1201 0.1139 0.0328 -0.0328 -0.028
C5OA 0.1201 0.1139 0.1201 0.0328 -0.028 -0.0328
C5ME 0.1201 0.1201 0.1139 0.0328 -0.0328 -0.028
C6Z 0.1213 0.1213 0.1193 0.0313 0.0313 0.0373
C6KA 0.1213 0.1193 0.1213 0.0313 0.0373 0.0313
C6G 0.1193 0.1213 0.1213 0.0373 -0.0313 -0.0313
C6KD 0.1193 0.1213 0.1213 0.0373 -0.0313 -0.0313
C6DD 0.1193 0.1213 0.1213 0.0373 0.0313 0.0313
C6UD 0.1213 0.1193 0.1213 0.0313 -0.0373 -0.0313
C6IA 0.1213 0.1213 0.1193 0.0313 -0.0313 -0.0373
C6OA 0.1213 0.1193 0.1213 0.0313 -0.0373 -0.0313
C6QD 0.1213 0.1193 0.1213 0.0313 0.0373 0.0313
C6DE 0.1213 0.1213 0.1193 0.0313 0.0313 0.0373
C6ME 0.1213 0.1213 0.1193 0.0313 -0.0313 -0.0373
N1XE 0.1281 0.1284 0.1259 0.0444 0.048 0.046
N1WF 0.1284 0.1259 0.1281 0.048 0.046 0.0444
N1KA 0.1284 0.1281 0.1259 0.048 0.0444 0.046
N1Z 0.1259 0.1284 0.1281 0.046 0.048 0.0444
N1GG 0.1259 0.1281 0.1284 0.046 0.0444 0.048
N1G 0.1281 0.1284 0.1259 0.0444 -0.048 -0.046
N1PE 0.1281 0.1259 0.1284 0.0444 -0.046 -0.048
N1KD 0.1281 0.1284 0.1259 0.0444 -0.048 -0.046
N1JB 0.1281 0.1259 0.1284 0.0444 -0.046 -0.048
N1DD 0.1281 0.1259 0.1284 0.0444 0.046 0.048
N1RB 0.1281 0.1284 0.1259 0.0444 0.048 0.046
N1IA 0.1284 0.1259 0.1281 0.048 -0.046 -0.0444
N1AG 0.1284 0.1281 0.1259 0.048 -0.0444 -0.046
N1QD 0.1284 0.1281 0.1259 0.048 0.0444 0.046
N1QC 0.1284 0.1259 0.1281 0.048 0.046 0.0444
N1WB 0.1284 0.1281 0.1259 0.048 -0.0444 -0.046
N1ME 0.1284 0.1259 0.1281 0.048 -0.046 -0.0444
N1UD 0.1259 0.1281 0.1284 0.046 -0.0444 -0.048
N1CC 0.1259 0.1281 0.1284 0.046 0.0444 0.048
N1DE 0.1259 0.1284 0.1281 0.046 0.048 0.0444
N1SF 0.1259 0.1284 0.1281 0.046 -0.048 -0.0444
N1OA 0.1259 0.1281 0.1284 0.046 -0.0444 -0.048
N1MC 0.1259 0.1284 0.1281 0.046 -0.048 -0.0444
C7KA 0.1181 0.1181 0.1209 0.0401 0.0401 0.0374
C7Z 0.1209 0.1181 0.1181 0.0374 0.0401 0.0401
C7G 0.1181 0.1181 0.1209 0.0401 -0.0401 -0.0374
C7IA 0.1181 0.1209 0.1181 0.0401 -0.0374 -0.0401
C7KD 0.1181 0.1181 0.1209 0.0401 -0.0401 -0.0374
C7ME 0.1181 0.1209 0.1181 0.0401 -0.0374 -0.0401
C7DD 0.1181 0.1209 0.1181 0.0401 0.0374 0.0401
C7QD 0.1181 0.1181 0.1209 0.0401 0.0401 0.0374
C7DE 0.1209 0.1181 0.1181 0.0374 0.0401 0.0401
C7OA 0.1209 0.1181 0.1181 0.0374 -0.0401 -0.0401
C7UD 0.1209 0.1181 0.1181 0.0374 -0.0401 -0.0401
N2G 0.1101 0.1101 0.1101 0.0289 -0.0289 -0.0289
N2DD 0.1101 0.1101 0.1101 0.0289 0.0289 0.0289
N2KD 0.1101 0.1101 0.1101 0.0289 -0.0289 -0.0289
loop_
_geom_bond_atom_site_label_1
_geom_bond_atom_site_label_2
_geom_bond_site_symmetry_1
_geom_bond_site_symmetry_2
Cu1 O1 1_555 1_555
O1 C1 1_555 1_555
O2 Cu1 1_555 1_555
C1 C2 1_555 1_555
C2 C3 1_555 1_555
C3 H1 1_555 1_555
C4 C3 1_555 1_555
H2 C4 1_555 1_555
C5 C4 1_555 1_555
C6 C5 1_555 1_555
N1 C6 1_555 1_555
C7 N1 1_555 1_555
N2 C7 1_555 1_555
Cu1G Cu1 1_555 1_555
Cu1Z Cu1GA 1_555 1_555
Cu1GA O1WF 1_555 1_555
Cu1KA Cu1NA 1_555 1_555
Cu1NA O1GG 1_555 1_555
Cu1E Cu1AA 1_555 1_555
Cu1AA O1UD 1_555 1_555
Cu1V Cu1IA 1_555 1_555
Cu1D Cu1A 1_555 1_555
Cu1A O1CC 1_555 1_555
Cu1B Cu1I 1_555 1_555
Cu1I O1DE 1_555 1_555
Cu1IA O1IA 1_555 1_555
Cu1OA Cu1O 1_555 1_555
Cu1O O1AG 1_555 1_555
Cu1TA Cu1K 1_555 1_555
Cu1K O1MC 1_555 1_555
O1PE Cu1 1_555 1_555
O1KD Cu1 1_555 1_555
O1RB Cu1 1_555 1_555
O1XE C1 1_555 1_555
O1G Cu1G 1_555 1_555
O1DD Cu1G 1_555 1_555
O1JB Cu1G 1_555 1_555
O1Z Cu1Z 1_555 1_555
O1WF C1Z 1_555 1_555
O1KA Cu1KA 1_555 1_555
O1GG C1KA 1_555 1_555
O1TF Cu1Z 1_555 1_555
O1MD Cu1Z 1_555 1_555
O1SB Cu1Z 1_555 1_555
O1GA Cu1GA 1_555 1_555
O1FD Cu1GA 1_555 1_555
O1PB Cu1GA 1_555 1_555
O1UD C1UD 1_555 1_555
O1WB Cu1E 1_555 1_555
O1DE C1DE 1_555 1_555
O1QC Cu1B 1_555 1_555
O1QD Cu1D 1_555 1_555
O1CC C1QD 1_555 1_555
O1IA C1IA 1_555 1_555
O1SF Cu1V 1_555 1_555
O1ME Cu1TA 1_555 1_555
O1MC C1ME 1_555 1_555
O1OA Cu1OA 1_555 1_555
O1AG C1OA 1_555 1_555
O1K Cu1K 1_555 1_555
O1DG Cu1K 1_555 1_555
O1BD Cu1K 1_555 1_555
O1TA Cu1TA 1_555 1_555
O1UE Cu1TA 1_555 1_555
O1BB Cu1TA 1_555 1_555
O2G Cu1G 1_555 1_555
O2Z Cu1Z 1_555 1_555
O2GA Cu1GA 1_555 1_555
O2K Cu1K 1_555 1_555
O2TA Cu1TA 1_555 1_555
C1G O1PE 1_555 1_555
C1KD O1KD 1_555 1_555
C1DD O1RB 1_555 1_555
C1Z O1Z 1_555 1_555
C1KA O1KA 1_555 1_555
C1DE O1QC 1_555 1_555
C1QD O1QD 1_555 1_555
C1OA O1OA 1_555 1_555
C1IA O1SF 1_555 1_555
C1UD O1WB 1_555 1_555
C1ME O1ME 1_555 1_555
C2G C1G 1_555 1_555
C2KD C1KD 1_555 1_555
C2DD C1DD 1_555 1_555
C2Z C1Z 1_555 1_555
C2KA C1KA 1_555 1_555
C2UD C1UD 1_555 1_555
C2QD C1QD 1_555 1_555
C2DE C1DE 1_555 1_555
C2IA C1IA 1_555 1_555
C2OA C1OA 1_555 1_555
C2ME C1ME 1_555 1_555
C3XE C2 1_555 1_555
C3G C2G 1_555 1_555
C3PE C2G 1_555 1_555
C3KD C2KD 1_555 1_555
C3JB C2KD 1_555 1_555
C3DD C2DD 1_555 1_555
C3RB C2DD 1_555 1_555
C3Z C2Z 1_555 1_555
C3WF C2Z 1_555 1_555
C3KA C2KA 1_555 1_555
C3GG C2KA 1_555 1_555
C3WB C2UD 1_555 1_555
C3UD C2UD 1_555 1_555
C3QD C2QD 1_555 1_555
C3CC C2QD 1_555 1_555
C3QC C2DE 1_555 1_555
C3DE C2DE 1_555 1_555
C3SF C2IA 1_555 1_555
C3IA C2IA 1_555 1_555
C3AG C2OA 1_555 1_555
C3OA C2OA 1_555 1_555
C3ME C2ME 1_555 1_555
C3MC C2ME 1_555 1_555
H1XE C3XE 1_555 1_555
H1G C3G 1_555 1_555
H1PE C3PE 1_555 1_555
H1KD C3KD 1_555 1_555
H1JB C3JB 1_555 1_555
H1DD C3DD 1_555 1_555
H1RB C3RB 1_555 1_555
H1Z C3Z 1_555 1_555
H1WF C3WF 1_555 1_555
H1KA C3KA 1_555 1_555
H1GG C3GG 1_555 1_555
H1WB C3WB 1_555 1_555
H1UD C3UD 1_555 1_555
H1QD C3QD 1_555 1_555
H1CC C3CC 1_555 1_555
H1QC C3QC 1_555 1_555
H1DE C3DE 1_555 1_555
H1SF C3SF 1_555 1_555
H1IA C3IA 1_555 1_555
H1OA C3OA 1_555 1_555
H1AG C3AG 1_555 1_555
H1ME C3ME 1_555 1_555
H1MC C3MC 1_555 1_555
C4XE C5 1_555 1_555
C4Z C3Z 1_555 1_555
C4WF C3WF 1_555 1_555
C4G C3G 1_555 1_555
C4PE C3PE 1_555 1_555
C4KD C3KD 1_555 1_555
C4JB C3JB 1_555 1_555
C4DD C3DD 1_555 1_555
C4RB C3RB 1_555 1_555
C4KA C3KA 1_555 1_555
C4GG C3GG 1_555 1_555
C4QD C3QD 1_555 1_555
C4CC C3CC 1_555 1_555
C4DE C3DE 1_555 1_555
C4QC C3QC 1_555 1_555
C4IA C3IA 1_555 1_555
C4SF C3SF 1_555 1_555
C4OA C3OA 1_555 1_555
C4AG C3AG 1_555 1_555
C4UD C3UD 1_555 1_555
C4WB C3WB 1_555 1_555
C4ME C3ME 1_555 1_555
C4MC C3MC 1_555 1_555
H2XE C4XE 1_555 1_555
H2Z C4Z 1_555 1_555
H2WF C4WF 1_555 1_555
H2G C4G 1_555 1_555
H2PE C4PE 1_555 1_555
H2KD C4KD 1_555 1_555
H2JB C4JB 1_555 1_555
H2DD C4DD 1_555 1_555
H2RB C4RB 1_555 1_555
H2KA C4KA 1_555 1_555
H2GG C4GG 1_555 1_555
H2WB C4WB 1_555 1_555
H2UD C4UD 1_555 1_555
H2QD C4QD 1_555 1_555
H2CC C4CC 1_555 1_555
H2QC C4QC 1_555 1_555
H2DE C4DE 1_555 1_555
H2SF C4SF 1_555 1_555
H2IA C4IA 1_555 1_555
H2AG C4AG 1_555 1_555
H2OA C4OA 1_555 1_555
H2ME C4ME 1_555 1_555
H2MC C4MC 1_555 1_555
C5Z C4Z 1_555 1_555
C5KA C4KA 1_555 1_555
C5G C4G 1_555 1_555
C5KD C4KD 1_555 1_555
C5DD C4DD 1_555 1_555
C5UD C4UD 1_555 1_555
C5QD C4QD 1_555 1_555
C5DE C4DE 1_555 1_555
C5IA C4IA 1_555 1_555
C5OA C4OA 1_555 1_555
C5ME C4ME 1_555 1_555
C6Z C5Z 1_555 1_555
C6KA C5KA 1_555 1_555
C6G C5G 1_555 1_555
C6KD C5KD 1_555 1_555
C6DD C5DD 1_555 1_555
C6UD C5UD 1_555 1_555
C6IA C5IA 1_555 1_555
C6OA C5OA 1_555 1_555
C6QD C5QD 1_555 1_555
C6DE C5DE 1_555 1_555
C6ME C5ME 1_555 1_555
N1XE C6 1_555 1_555
N1WF C7 1_555 1_555
N1KA C6KA 1_555 1_555
N1Z C6Z 1_555 1_555
N1GG C6KA 1_555 1_555
N1G C6G 1_555 1_555
N1PE C6G 1_555 1_555
N1KD C6KD 1_555 1_555
N1JB C6KD 1_555 1_555
N1DD C6DD 1_555 1_555
N1RB C6DD 1_555 1_555
N1IA C6IA 1_555 1_555
N1AG C6OA 1_555 1_555
N1QD C6QD 1_555 1_555
N1QC C6DE 1_555 1_555
N1WB C6UD 1_555 1_555
N1ME C6ME 1_555 1_555
N1UD C6UD 1_555 1_555
N1CC C6QD 1_555 1_555
N1DE C6DE 1_555 1_555
N1SF C6IA 1_555 1_555
N1OA C6OA 1_555 1_555
N1MC C6ME 1_555 1_555
C7KA N2 1_555 1_555
C7Z N2 1_555 1_555
C7G N1G 1_555 1_555
C7IA N1PE 1_555 1_555
C7KD N1KD 1_555 1_555
C7ME N1JB 1_555 1_555
C7DD N1DD 1_555 1_555
C7QD N1RB 1_555 1_555
C7DE N1CC 1_555 1_555
C7OA N1SF 1_555 1_555
C7UD N1UD 1_555 1_555
N2G C7G 1_555 1_555
N2DD C7DD 1_555 1_555
N2KD C7KD 1_555 1_555
Cu1G O1XE 1_555 1_555
O1G C1G 1_555 1_555
O1DD C1DD 1_555 1_555
O1JB C1KD 1_555 1_555
C3XE C4XE 1_555 1_555
C4WF C5Z 1_555 1_555
C4PE C5G 1_555 1_555
C4JB C5KD 1_555 1_555
C4RB C5DD 1_555 1_555
C4GG C5KA 1_555 1_555
C4CC C5QD 1_555 1_555
C4QC C5DE 1_555 1_555
C4SF C5IA 1_555 1_555
C4AG C5OA 1_555 1_555
C4WB C5UD 1_555 1_555
C4MC C5ME 1_555 1_555
C6Z N1WF 1_555 1_555
N1XE C7KA 1_555 1_555
N1KA C7KA 1_555 1_555
N1Z C7Z 1_555 1_555
N1GG C7Z 1_555 1_555
N1IA C7IA 1_555 1_555
N1AG C7G 1_555 1_555
N1QD C7QD 1_555 1_555
N1QC C7DD 1_555 1_555
N1WB C7KD 1_555 1_555
N1ME C7ME 1_555 1_555
N1DE C7DE 1_555 1_555
N1OA C7OA 1_555 1_555
N1MC C7UD 1_555 1_555
C7IA N2G 1_555 1_555
C7ME N2KD 1_555 1_555
C7QD N2DD 1_555 1_555
C7DE N2DD 1_555 1_555
C7OA N2G 1_555 1_555
C7UD N2KD 1_555 1_555

#END
