
#######################################################################
#
#                 Cambridge Crystallographic Data Centre
#                                CCDC 
#
#######################################################################
#
# If this CIF has been generated from an entry in the Cambridge 
# Structural Database, then it will include bibliographic, chemical, 
# crystal, experimental, refinement or atomic coordinate data resulting 
# from the CCDC's data processing and validation procedures.
#
#######################################################################

data_ECALIF
_chemical_formula_moiety         '(C28 H24 Cl2 Cu2 Gd2 N4 O13)n'
_symmetry_cell_setting           orthorhombic
_symmetry_space_group_name_H-M   'P n m a'
_symmetry_Int_Tables_number      62
_space_group_name_Hall           '-P 2ac 2n'
loop_
_symmetry_equiv_pos_site_id
_symmetry_equiv_pos_as_xyz
1 x,y,z
2 1/2-x,-y,1/2+z
3 -x,1/2+y,-z
4 1/2+x,1/2-y,1/2-z
5 -x,-y,-z
6 1/2+x,y,1/2-z
7 x,1/2-y,z
8 1/2-x,1/2+y,1/2+z
_cell_length_a                   6.8838(4)
_cell_length_b                   34.346(2)
_cell_length_c                   13.0916(8)
_cell_angle_alpha                90
_cell_angle_beta                 90
_cell_angle_gamma                90
_cell_volume                     3095.26
loop_
_atom_site_label
_atom_site_type_symbol
_atom_site_fract_x
_atom_site_fract_y
_atom_site_fract_z
Gd1 Gd 0.0966(4) 0.51973(12) 0.8686(3)
Cu1 Cu 0.4835(7) 0.7500 0.9754(2)
Cu2 Cu 0.3146(5) 0.7500 1.31907(18)
Cl1 Cl 0.2662(16) 0.7500 1.1300(6)
Cl2 Cl 0.3704(13) 0.7500 0.7725(9)
N1 N 0.515(2) 0.6957(3) 0.9376(8)
N2 N -0.1717(13) 0.6953(2) 1.1435(7)
O1 O 0.3978(11) 0.5536(2) 0.8840(5)
O2 O 0.5585(11) 0.5715(2) 0.7429(5)
O3 O -0.0240(13) 0.57020(19) 0.9703(5)
O4 O -0.1305(12) 0.55011(18) 1.1234(5)
O5 O -0.2286(12) 0.50128(19) 0.7909(5)
O6 O -0.1915(11) 0.4945(2) 0.9555(5)
C1 C 0.4367(18) 0.6679(3) 0.9940(8)
H1 H 0.3885 0.6742 1.0583
C2 C 0.4237(17) 0.6294(3) 0.9605(8)
H2 H 0.3599 0.6109 1.0001
C3 C 0.5040(15) 0.6190(3) 0.8704(7)
C4 C 0.4838(14) 0.5781(3) 0.8298(7)
C5 C 0.595(2) 0.6472(4) 0.8134(9)
H3 H 0.6519 0.6409 0.7511
C6 C 0.600(3) 0.6855(4) 0.8500(10)
H4 H 0.6648 0.7044 0.8121
C7 C -0.2332(15) 0.6663(3) 1.2030(7)
H5 H -0.2945 0.6728 1.2639
C8 C -0.2120(16) 0.6275(2) 1.1801(7)
H6 H -0.2559 0.6084 1.2249
C9 C -0.1238(15) 0.6175(2) 1.0890(7)
C10 C -0.0918(16) 0.5756(2) 1.0580(7)
C11 C -0.0585(17) 0.6469(3) 1.0259(8)
H7 H 0.0021 0.6410 0.9643
C12 C -0.0846(17) 0.6851(3) 1.0558(9)
H8 H -0.0396 0.7047 1.0129
C13 C -0.2930(14) 0.4856(3) 0.8754(6)
C14 C -0.485(5) 0.4843(10) 0.879(3)
Gd1F Gd 0.0966(4) 0.98027(12) 0.8686(3)
Gd1E Gd 0.5966(4) 0.51973(12) 0.6314(3)
Gd1D Gd -0.0966(4) 0.48027(12) 1.1314(3)
Gd1E_2 Gd -0.4034(4) 0.51973(12) 0.6314(3)
Gd1C Gd 0.5966(4) 0.98027(12) 0.6314(3)
Gd1A Gd 0.4034(4) 0.48027(12) 0.3686(3)
Cu2C Cu -0.1854(5) 0.7500 1.18093(18)
Cu2A Cu 0.1854(5) 0.2500 0.81907(18)
N1F N 0.515(2) 0.8043(3) 0.9376(8)
N2D N 0.1717(13) 0.3047(2) 0.8565(7)
N2C N 0.3283(13) 0.8047(2) 1.3565(7)
N2E N 0.3283(13) 0.6953(2) 1.3565(7)
O1F O 0.3978(11) 0.9464(2) 0.8840(5)
O2F O 0.5585(11) 0.9285(2) 0.7429(5)
O2E O 0.0585(11) 0.5715(2) 0.7571(5)
O2C O 0.0585(11) 0.9285(2) 0.7571(5)
O3D O 0.0240(13) 0.42980(19) 1.0297(5)
O3F O -0.0240(13) 0.92980(19) 0.9703(5)
O4D O 0.1305(12) 0.44989(18) 0.8766(5)
O4B O 0.1305(12) 1.05011(18) 0.8766(5)
O5E O 0.2714(12) 0.50128(19) 0.7091(5)
O5F O -0.2286(12) 0.99872(19) 0.7909(5)
O5C O 0.2714(12) 0.99872(19) 0.7091(5)
O6E O 0.3085(11) 0.4945(2) 0.5445(5)
O6D O 0.1915(11) 0.5055(2) 1.0445(5)
O6F O -0.1915(11) 1.0055(2) 0.9555(5)
O6B O 0.1915(11) 0.9945(2) 1.0445(5)
C1F C 0.4367(18) 0.8321(3) 0.9940(8)
H1F H 0.3885 0.8258 1.0583
C2F C 0.4237(17) 0.8706(3) 0.9605(8)
H2F H 0.3599 0.8891 1.0001
C3F C 0.5040(15) 0.8810(3) 0.8704(7)
C4F C 0.4838(14) 0.9219(3) 0.8298(7)
C5F C 0.595(2) 0.8528(4) 0.8134(9)
H3F H 0.6519 0.8591 0.7511
C6F C 0.600(3) 0.8145(4) 0.8500(10)
H4F H 0.6648 0.7956 0.8121
C7D C 0.2332(15) 0.3337(3) 0.7970(7)
H5D H 0.2945 0.3272 0.7361
C8D C 0.2120(16) 0.3725(2) 0.8199(7)
H6D H 0.2559 0.3916 0.7751
C9D C 0.1238(15) 0.3825(2) 0.9110(7)
C10D C 0.0918(16) 0.4244(2) 0.9420(7)
C11D C 0.0585(17) 0.3531(3) 0.9741(8)
H7D H -0.0021 0.3590 1.0357
C12D C 0.0846(17) 0.3149(3) 0.9442(9)
H8D H 0.0396 0.2953 0.9871
C13E C 0.2070(14) 0.4856(3) 0.6246(6)
C14E C 0.015(5) 0.4843(10) 0.621(3)
O7 O 0.087(5) 0.7500 0.851(2)
loop_
_geom_bond_atom_site_label_1
_geom_bond_atom_site_label_2
_geom_bond_site_symmetry_1
_geom_bond_site_symmetry_2
Gd1 O1 1_555 1_555
Cu1 Cl1 1_555 1_555
Cu2 Cl1 1_555 1_555
Cl2 Cu1 1_555 1_555
N1 Cu1 1_555 1_555
N2 C7 1_555 1_555
O1 C4 1_555 1_555
O2 C4 1_555 1_555
O3 Gd1 1_555 1_555
O4 C10 1_555 1_555
O5 Gd1 1_555 1_555
O6 Gd1 1_555 1_555
C1 N1 1_555 1_555
H1 C1 1_555 1_555
C2 C1 1_555 1_555
H2 C2 1_555 1_555
C3 C2 1_555 1_555
C4 C3 1_555 1_555
C5 C3 1_555 1_555
H3 C5 1_555 1_555
C6 N1 1_555 1_555
H4 C6 1_555 1_555
C7 H5 1_555 1_555
C8 C7 1_555 1_555
H6 C8 1_555 1_555
C9 C8 1_555 1_555
C10 O3 1_555 1_555
C11 C9 1_555 1_555
H7 C11 1_555 1_555
C12 N2 1_555 1_555
H8 C12 1_555 1_555
C13 O5 1_555 1_555
C14 C13 1_555 1_555
Gd1F O1F 1_555 1_555
Gd1E O2 1_555 1_555
Gd1D O4 1_555 1_555
Gd1E_2 O5 1_555 1_555
Gd1C O2F 1_555 1_555
Gd1A O6E 1_555 1_555
Cu2C N2 1_555 1_555
Cu2A N2D 1_555 1_555
N1F Cu1 1_555 1_555
N2D C7D 1_555 1_555
N2C Cu2 1_555 1_555
N2E Cu2 1_555 1_555
O1F C4F 1_555 1_555
O2F C4F 1_555 1_555
O2E Gd1 1_555 1_555
O2C Gd1F 1_555 1_555
O3D Gd1D 1_555 1_555
O3F Gd1F 1_555 1_555
O4D Gd1 1_555 1_555
O4B Gd1F 1_555 1_555
O5E Gd1 1_555 1_555
O5F Gd1F 1_555 1_555
O5C Gd1F 1_555 1_555
O6E Gd1E 1_555 1_555
O6D Gd1 1_555 1_555
O6F Gd1F 1_555 1_555
O6B Gd1F 1_555 1_555
C1F N1F 1_555 1_555
H1F C1F 1_555 1_555
C2F C1F 1_555 1_555
H2F C2F 1_555 1_555
C3F C2F 1_555 1_555
C4F C3F 1_555 1_555
C5F C3F 1_555 1_555
H3F C5F 1_555 1_555
C6F N1F 1_555 1_555
H4F C6F 1_555 1_555
C7D H5D 1_555 1_555
C8D C7D 1_555 1_555
H6D C8D 1_555 1_555
C9D C8D 1_555 1_555
C10D O3D 1_555 1_555
C11D C9D 1_555 1_555
H7D C11D 1_555 1_555
C12D N2D 1_555 1_555
H8D C12D 1_555 1_555
C13E O5E 1_555 1_555
C14E C13E 1_555 1_555
O6 C13 1_555 1_555
O6 Gd1D 1_555 1_555
C5 C6 1_555 1_555
C9 C10 1_555 1_555
C11 C12 1_555 1_555
Gd1E O5E 1_555 1_555
Gd1D O6D 1_555 1_555
Gd1C O5C 1_555 1_555
O4D C10D 1_555 1_555
O6E C13E 1_555 1_555
C5F C6F 1_555 1_555
C9D C10D 1_555 1_555
C11D C12D 1_555 1_555

#END
