
#######################################################################
#
#                 Cambridge Crystallographic Data Centre
#                                CCDC 
#
#######################################################################
#
# If this CIF has been generated from an entry in the Cambridge 
# Structural Database, then it will include bibliographic, chemical, 
# crystal, experimental, refinement or atomic coordinate data resulting 
# from the CCDC's data processing and validation procedures.
#
#######################################################################

data_GIQHAQ
_chemical_formula_moiety         '(C42 H24 Cd2 O12 2-)n'
_symmetry_cell_setting           hexagonal
_symmetry_space_group_name_H-M   'P 61 2 2'
_symmetry_Int_Tables_number      178
_space_group_name_Hall           'P 61 2 (0 0 5)'
loop_
_symmetry_equiv_pos_site_id
_symmetry_equiv_pos_as_xyz
1 x,y,z
2 x-y,x,1/6+z
3 -y,x-y,1/3+z
4 -x,-y,1/2+z
5 -x+y,-x,2/3+z
6 y,-x+y,5/6+z
7 -y,-x,5/6-z
8 x-y,-y,-z
9 x,x-y,1/6-z
10 y,x,1/3-z
11 -x+y,y,1/2-z
12 -x,-x+y,2/3-z
_cell_length_a                   26.712(4)
_cell_length_b                   26.712(4)
_cell_length_c                   15.919(3)
_cell_angle_alpha                90
_cell_angle_beta                 90
_cell_angle_gamma                120
_cell_volume                     9836.92
loop_
_atom_site_label
_atom_site_type_symbol
_atom_site_fract_x
_atom_site_fract_y
_atom_site_fract_z
_atom_site_U_iso_or_equiv
_atom_site_thermal_displace_type
Cd1 Cd -0.0000 0.418979(12) 0.3333 0.0363 Uani
Cd2 Cd 0.420257(13) 0.420257(13) -0.3333 0.0423 Uani
O1 O 0.02940(11) 0.41586(12) 0.19921(15) 0.0611 Uani
O2 O 0.06965(13) 0.38779(15) 0.29364(19) 0.0867 Uani
O3 O 0.32341(11) 0.39565(12) -0.29608(16) 0.0647 Uani
O4 O 0.38992(11) 0.41915(12) -0.19900(14) 0.0587 Uani
O5 O -0.05904(10) 0.48565(11) 0.37540(16) 0.0600 Uani
O6 O -0.07861(10) 0.41868(13) 0.28121(17) 0.0758 Uani
C1 C 0.10313(17) 0.3974(2) 0.1518(2) 0.0693 Uani
C2 C 0.1452(2) 0.3851(3) 0.1752(3) 0.1152 Uani
H1 H 0.1477 0.3754 0.2319 0.1390 Uiso
C3 C 0.1850(2) 0.3869(3) 0.1143(3) 0.1407 Uani
H2 H 0.2162 0.3817 0.1315 0.1690 Uiso
C4 C 0.17892(19) 0.3960(2) 0.0304(2) 0.0747 Uani
C5 C 0.13100(17) 0.40130(19) 0.0095(2) 0.0684 Uani
H3 H 0.1239 0.4050 -0.0480 0.0820 Uiso
C6 C 0.09358(14) 0.40137(17) 0.0690(2) 0.0558 Uani
H4 H 0.0610 0.4042 0.0520 0.0670 Uiso
C7 C 0.29859(16) 0.40254(17) -0.1554(2) 0.0564 Uani
C8 C 0.24208(19) 0.3846(2) -0.1750(3) 0.0914 Uani
H5 H 0.2293 0.3735 -0.2311 0.1100 Uiso
C9 C 0.2028(2) 0.3821(3) -0.1154(3) 0.1054 Uani
H6 H 0.1639 0.3693 -0.1310 0.1270 Uiso
C10 C 0.22077(18) 0.3984(2) -0.0331(3) 0.0699 Uani
C11 C 0.27621(18) 0.4143(2) -0.0123(2) 0.0870 Uani
H7 H 0.2889 0.4257 0.0439 0.1040 Uiso
C12 C 0.31418(19) 0.4144(2) -0.0703(3) 0.0876 Uani
H8 H 0.3515 0.4227 -0.0528 0.1060 Uiso
C13 C 0.06509(16) 0.39999(18) 0.2195(3) 0.0580 Uani
C14 C 0.34085(17) 0.40635(16) -0.2208(3) 0.0504 Uani
C15 C -0.14546(15) 0.44977(16) 0.2987(3) 0.0599 Uani
C16 C -0.17466(17) 0.4270(2) 0.2226(3) 0.0878 Uani
H9 H -0.1587 0.4124 0.1829 0.1060 Uiso
C17 C -0.22503(19) 0.4254(2) 0.2043(3) 0.1041 Uani
H10 H -0.2441 0.4092 0.1526 0.1250 Uiso
C18 C -0.24888(15) 0.44725(18) 0.2604(3) 0.0718 Uani
C19 C -0.22142(18) 0.4686(2) 0.3361(3) 0.0907 Uani
H11 H -0.2387 0.4816 0.3762 0.1090 Uiso
C20 C -0.16913(18) 0.4715(2) 0.3557(3) 0.0834 Uani
H12 H -0.1500 0.4882 0.4072 0.1000 Uiso
C21 C -0.09060(13) 0.45149(17) 0.3191(2) 0.0492 Uani
Cd1E Cd -0.581021(12) 0.418979(12) 0.1666 0.0363 Uani
Cd2D Cd -0.000000(18) 0.579743(13) 0.3334 0.0423 Uani
Cd2C Cd -0.420257(13) 0.579743(13) 0.1667 0.0423 Uani
Cd2B Cd -0.420257(13) 0.000000(18) 1.0000 0.0423 Uani
O1K O -0.02940(11) 0.38646(16) 0.46746(15) 0.0611 Uani
O2K O -0.06965(13) 0.31814(20) 0.37303(19) 0.0867 Uani
O3K O -0.32341(11) 0.07224(16) 0.96275(16) 0.0647 Uani
O3I O 0.39565(12) 0.32341(11) -0.37059(16) 0.0647 Uani
O4K O -0.38992(11) 0.02923(16) 0.86567(14) 0.0587 Uani
O4I O 0.41915(12) 0.38992(11) -0.46767(14) 0.0587 Uani
O5J O -0.45531(15) 0.48565(11) 0.12460(16) 0.0600 Uani
O5B O 0.51435(11) 0.45531(15) -0.29127(16) 0.0600 Uani
O5G O 0.45531(15) 0.51435(11) -0.37540(16) 0.0600 Uani
O6J O -0.50271(16) 0.41868(13) 0.21879(17) 0.0758 Uani
O6K O 0.07861(10) 0.49729(16) 0.38546(17) 0.0758 Uani
C1K C -0.10313(17) 0.29427(26) 0.5149(2) 0.0693 Uani
C2K C -0.1452(2) 0.2399(4) 0.4915(3) 0.1152 Uani
H1K H -0.1477 0.2277 0.4348 0.1390 Uiso
C3K C -0.1850(2) 0.2019(4) 0.5524(3) 0.1407 Uani
H2K H -0.2162 0.1655 0.5352 0.1690 Uiso
C4K C -0.17892(19) 0.21708(28) 0.6363(2) 0.0747 Uani
C5K C -0.13100(17) 0.27030(25) 0.6572(2) 0.0684 Uani
H3K H -0.1239 0.2811 0.7147 0.0820 Uiso
C6K C -0.09358(14) 0.30779(22) 0.5977(2) 0.0558 Uani
H4K H -0.0610 0.3432 0.6147 0.0670 Uiso
C7K C -0.29859(16) 0.10395(23) 0.8221(2) 0.0564 Uani
C8K C -0.24208(19) 0.14252(28) 0.8417(3) 0.0914 Uani
H5K H -0.2293 0.1442 0.8978 0.1100 Uiso
C9K C -0.2028(2) 0.1793(4) 0.7821(3) 0.1054 Uani
H6K H -0.1639 0.2054 0.7977 0.1270 Uiso
C10K C -0.22077(18) 0.17763(27) 0.6998(3) 0.0699 Uani
C11K C -0.27621(18) 0.13809(27) 0.6790(2) 0.0870 Uani
H7K H -0.2889 0.1368 0.6228 0.1040 Uiso
C12K C -0.31418(19) 0.10022(28) 0.7370(3) 0.0876 Uani
H8K H -0.3515 0.0712 0.7195 0.1060 Uiso
C13K C -0.06509(16) 0.33490(24) 0.4472(3) 0.0580 Uani
C14K C -0.34085(17) 0.06550(23) 0.8875(3) 0.0504 Uani
C15J C -0.40477(22) 0.44977(16) 0.2013(3) 0.0599 Uani
C16J C -0.39834(26) 0.4270(2) 0.2774(3) 0.0878 Uani
H9J H -0.4289 0.4124 0.3171 0.1060 Uiso
C17J C -0.34957(28) 0.4254(2) 0.2957(3) 0.1041 Uani
H10J H -0.3467 0.4092 0.3474 0.1250 Uiso
C18J C -0.30387(23) 0.44725(18) 0.2396(3) 0.0718 Uani
C19J C -0.30998(27) 0.4686(2) 0.1639(3) 0.0907 Uani
H11J H -0.2797 0.4816 0.1238 0.1090 Uiso
C20J C -0.35937(27) 0.4715(2) 0.1443(3) 0.0834 Uani
H12J H -0.3618 0.4882 0.0928 0.1000 Uiso
C21J C -0.45791(21) 0.45149(17) 0.1809(2) 0.0492 Uani
loop_
_atom_site_aniso_label
_atom_site_aniso_U_11
_atom_site_aniso_U_22
_atom_site_aniso_U_33
_atom_site_aniso_U_23
_atom_site_aniso_U_13
_atom_site_aniso_U_12
Cd1 0.02713(16) 0.04433(15) 0.0318(2) 0.00187(7) 0.00374(14) 0.01357(8)
Cd2 0.04967(16) 0.04967(16) 0.0312(2) -0.00631(8) 0.00631(8) 0.02753(18)
O1 0.0559(16) 0.0891(19) 0.0480(16) -0.0009(14) 0.0090(12) 0.0435(15)
O2 0.094(2) 0.153(3) 0.0468(17) 0.0189(19) 0.0261(17) 0.087(2)
O3 0.0677(17) 0.101(2) 0.0365(15) -0.0072(14) 0.0070(13) 0.0504(16)
O4 0.0571(16) 0.0905(19) 0.0411(15) 0.0011(13) 0.0111(12) 0.0463(15)
O5 0.0420(14) 0.0654(17) 0.0610(15) 0.0095(12) -0.0062(12) 0.0181(13)
O6 0.0451(15) 0.103(2) 0.091(2) -0.0177(17) -0.0136(13) 0.0458(16)
C1 0.060(3) 0.131(4) 0.040(2) 0.007(2) 0.0152(19) 0.065(3)
C2 0.126(4) 0.267(7) 0.031(3) 0.017(3) 0.018(3) 0.157(5)
C3 0.138(5) 0.338(9) 0.038(3) 0.029(4) 0.014(3) 0.188(6)
C4 0.075(3) 0.153(4) 0.028(2) 0.011(2) 0.010(2) 0.081(3)
C5 0.077(3) 0.123(3) 0.036(2) 0.006(2) 0.002(2) 0.073(3)
C6 0.046(2) 0.101(3) 0.038(2) 0.0085(19) 0.0090(16) 0.050(2)
C7 0.059(2) 0.088(3) 0.036(2) 0.006(2) 0.0083(19) 0.047(2)
C8 0.080(3) 0.188(5) 0.033(2) -0.006(3) -0.004(2) 0.087(3)
C9 0.084(3) 0.241(7) 0.031(2) 0.001(3) 0.009(2) 0.111(4)
C10 0.064(3) 0.137(4) 0.039(2) 0.007(2) 0.013(2) 0.073(3)
C11 0.066(3) 0.171(5) 0.037(2) -0.021(3) 0.000(2) 0.069(3)
C12 0.061(3) 0.153(5) 0.056(3) -0.018(3) 0.002(2) 0.059(3)
C13 0.041(2) 0.090(3) 0.050(3) -0.010(2) 0.0089(19) 0.038(2)
C14 0.049(2) 0.061(2) 0.046(2) -0.0013(18) 0.0112(19) 0.031(2)
C15 0.048(2) 0.058(2) 0.081(3) -0.010(2) -0.0100(19) 0.0320(19)
C16 0.064(3) 0.133(4) 0.090(3) -0.036(3) -0.026(2) 0.067(3)
C17 0.071(3) 0.154(5) 0.115(4) -0.071(3) -0.043(3) 0.077(3)
C18 0.045(2) 0.089(3) 0.086(3) -0.001(3) -0.004(2) 0.037(2)
C19 0.070(3) 0.142(4) 0.080(3) -0.017(3) 0.000(3) 0.068(3)
C20 0.071(3) 0.115(4) 0.085(3) -0.018(3) -0.014(2) 0.062(3)
C21 0.0329(15) 0.054(2) 0.060(3) 0.006(2) -0.0023(14) 0.0212(18)
Cd1E 0.04433 0.04432 0.0318 -0.00187 0.00187 0.03076
Cd2D 0.04428 0.04967 0.0312 -0.00631 -0.01262 0.02214
Cd2C 0.04967 0.04967 0.0312 0.00631 -0.00631 0.02753
Cd2B 0.04967 0.04428 0.0312 0.01262 0.00631 0.02214
O1K 0.0559 0.058 0.048 0.0099 0.009 0.0124
O2K 0.094 0.073 0.0468 0.0072 0.0261 0.007
O3K 0.0677 0.0679 0.0365 0.0142 0.007 0.0173
O3I 0.101 0.0677 0.0365 -0.007 0.0072 0.0504
O4K 0.0571 0.055 0.0411 0.01 0.0111 0.0108
O4I 0.0905 0.0571 0.0411 -0.0111 -0.0011 0.0463
O5J 0.0712 0.0654 0.061 -0.0095 -0.0157 0.0473
O5B 0.0654 0.0712 0.061 -0.0157 -0.0095 0.0473
O5G 0.0712 0.0654 0.061 0.0095 0.0157 0.0473
O6J 0.0565 0.103 0.091 0.0177 0.0041 0.0572
O6K 0.0451 0.0565 0.091 0.0041 -0.0136 -0.0007
C1K 0.06 0.061 0.04 0.0082 0.0152 -0.005
C2K 0.126 0.079 0.031 0.001 0.018 -0.031
C3K 0.138 0.1 0.038 -0.015 0.014 -0.05
C4K 0.075 0.066 0.028 -0.001 0.01 -0.006
C5K 0.077 0.054 0.036 -0.004 0.002 0.004
C6K 0.046 0.047 0.038 0.0005 0.009 -0.004
C7K 0.059 0.053 0.036 0.0023 0.0083 0.012
C8K 0.08 0.094 0.033 0.002 -0.004 -0.007
C9K 0.084 0.103 0.031 0.008 0.009 -0.027
C10K 0.064 0.055 0.039 0.006 0.013 -0.009
C11K 0.066 0.099 0.037 0.021 0 -0.003
C12K 0.061 0.096 0.056 0.02 0.002 0.002
C13K 0.041 0.055 0.05 0.0189 0.0089 0.003
C14K 0.049 0.048 0.046 0.0125 0.0112 0.018
C15J 0.042 0.058 0.081 0.01 0 0.026
C16J 0.063 0.133 0.09 0.036 0.01 0.066
C17J 0.071 0.154 0.115 0.071 0.028 0.077
C18J 0.06 0.089 0.086 0.001 -0.003 0.052
C19J 0.076 0.142 0.08 0.017 0.017 0.074
C20J 0.062 0.115 0.085 0.018 0.004 0.053
C21J 0.0445 0.054 0.06 -0.006 -0.0083 0.0328
loop_
_geom_bond_atom_site_label_1
_geom_bond_atom_site_label_2
_geom_bond_site_symmetry_1
_geom_bond_site_symmetry_2
Cd1 O1 1_555 1_555
Cd2 O3 1_555 1_555
O1 C13 1_555 1_555
O2 Cd1 1_555 1_555
O3 C14 1_555 1_555
O4 Cd2 1_555 1_555
O5 C21 1_555 1_555
O6 Cd1 1_555 1_555
C1 C2 1_555 1_555
C2 H1 1_555 1_555
C3 C2 1_555 1_555
H2 C3 1_555 1_555
C4 C3 1_555 1_555
C5 C4 1_555 1_555
H3 C5 1_555 1_555
C6 C1 1_555 1_555
H4 C6 1_555 1_555
C7 C8 1_555 1_555
C8 H5 1_555 1_555
C9 C8 1_555 1_555
H6 C9 1_555 1_555
C10 C4 1_555 1_555
C11 C10 1_555 1_555
H7 C11 1_555 1_555
C12 C7 1_555 1_555
H8 C12 1_555 1_555
C13 O2 1_555 1_555
C14 O4 1_555 1_555
C15 C16 1_555 1_555
C16 H9 1_555 1_555
C17 C16 1_555 1_555
H10 C17 1_555 1_555
C18 C17 1_555 1_555
C19 C18 1_555 1_555
H11 C19 1_555 1_555
C20 C15 1_555 1_555
H12 C20 1_555 1_555
C21 O6 1_555 1_555
Cd1E O6J 1_555 1_555
Cd2D O5 1_555 1_555
Cd2C O5J 1_555 1_555
Cd2B O3K 1_555 1_555
O1K Cd1 1_555 1_555
O2K Cd1 1_555 1_555
O3K C14K 1_555 1_555
O3I Cd2 1_555 1_555
O4K Cd2B 1_555 1_555
O4I Cd2 1_555 1_555
O5J C21J 1_555 1_555
O5B Cd2 1_555 1_555
O5G Cd2 1_555 1_555
O6J C21J 1_555 1_555
O6K Cd1 1_555 1_555
C1K C2K 1_555 1_555
C2K H1K 1_555 1_555
C3K C2K 1_555 1_555
H2K C3K 1_555 1_555
C4K C3K 1_555 1_555
C5K C4K 1_555 1_555
H3K C5K 1_555 1_555
C6K C1K 1_555 1_555
H4K C6K 1_555 1_555
C7K C8K 1_555 1_555
C8K H5K 1_555 1_555
C9K C8K 1_555 1_555
H6K C9K 1_555 1_555
C10K C4K 1_555 1_555
C11K C10K 1_555 1_555
H7K C11K 1_555 1_555
C12K C7K 1_555 1_555
H8K C12K 1_555 1_555
C13K O1K 1_555 1_555
C14K O4K 1_555 1_555
C15J C16J 1_555 1_555
C16J H9J 1_555 1_555
C17J C16J 1_555 1_555
H10J C17J 1_555 1_555
C18J C18 1_555 1_555
C19J C18J 1_555 1_555
H11J C19J 1_555 1_555
C20J C15J 1_555 1_555
H12J C20J 1_555 1_555
C21J C15J 1_555 1_555
C1 C13 1_555 1_555
C5 C6 1_555 1_555
C7 C14 1_555 1_555
C9 C10 1_555 1_555
C11 C12 1_555 1_555
C15 C21 1_555 1_555
C19 C20 1_555 1_555
O2K C13K 1_555 1_555
C1K C13K 1_555 1_555
C5K C6K 1_555 1_555
C7K C14K 1_555 1_555
C9K C10K 1_555 1_555
C11K C12K 1_555 1_555
C17J C18J 1_555 1_555
C19J C20J 1_555 1_555

#END
