
#######################################################################
#
#                 Cambridge Crystallographic Data Centre
#                                CCDC 
#
#######################################################################
#
# If this CIF has been generated from an entry in the Cambridge 
# Structural Database, then it will include bibliographic, chemical, 
# crystal, experimental, refinement or atomic coordinate data resulting 
# from the CCDC's data processing and validation procedures.
#
#######################################################################

data_JUFREJ
_chemical_formula_moiety         '(C6 H6 Gd1 N3 O9)n'
_symmetry_cell_setting           hexagonal
_symmetry_space_group_name_H-M   'P 63'
_symmetry_Int_Tables_number      173
_space_group_name_Hall           'P 6c'
loop_
_symmetry_equiv_pos_site_id
_symmetry_equiv_pos_as_xyz
1 x,y,z
2 -x,-y,1/2+z
3 -y,x-y,z
4 -x+y,-x,z
5 x-y,x,1/2+z
6 y,-x+y,1/2+z
_cell_length_a                   15.8956(4)
_cell_length_b                   15.8956(4)
_cell_length_c                   7.6028(2)
_cell_angle_alpha                90
_cell_angle_beta                 90
_cell_angle_gamma                120
_cell_volume                     1663.64
loop_
_atom_site_label
_atom_site_type_symbol
_atom_site_fract_x
_atom_site_fract_y
_atom_site_fract_z
_atom_site_U_iso_or_equiv
_atom_site_thermal_displace_type
Gd1 Gd 0.370211(10) 0.185107(10) 0.25515(4) 0.0084 Uani
N1 N 0.5012(2) 0.1524(2) 0.4014(4) 0.0106 Uani
C1 C 0.5934(2) 0.1866(2) 0.3507(4) 0.0121 Uani
H1 H 0.6195 0.2388 0.2730 0.0140 Uiso
N2 N 0.6513(2) 0.1524(2) 0.4017(4) 0.0104 Uani
C2 C 0.6124(2) 0.0760(2) 0.5114(5) 0.0114 Uani
C3 C 0.5179(3) 0.0354(3) 0.5708(5) 0.0148 Uani
H2 H 0.4916 -0.0172 0.6476 0.0180 Uiso
C4 C 0.4636(2) 0.0764(2) 0.5108(5) 0.0124 Uani
C5 C 0.3570(3) 0.0334(3) 0.5581(5) 0.0132 Uani
O1 O 0.31327(18) 0.07236(19) 0.4925(4) 0.0174 Uani
O2 O 0.32137(18) -0.03986(19) 0.6556(4) 0.0196 Uani
C6 C 0.6763(3) 0.0328(3) 0.5576(5) 0.0133 Uani
O3 O 0.75941(18) 0.07272(19) 0.4923(4) 0.0176 Uani
O4 O 0.63888(19) -0.03946(19) 0.6554(4) 0.0187 Uani
O5 O 0.3745(2) 0.1870(2) -0.0764(4) 0.0291 Uani
N3 N 0.4657(3) 0.2330(3) -0.0865(5) 0.0275 Uani
O6 O 0.51105(19) 0.2553(2) 0.0618(4) 0.0200 Uani
O7 O 0.5083(3) 0.2540(4) -0.2259(6) 0.0533 Uani
O8 O 0.20275(17) 0.10117(18) 0.1720(4) 0.0172 Uani
H3 H 0.1687 0.0436 0.2128 0.0290 Uiso
H4 H 0.1725 0.1301 0.2075 0.0290 Uiso
Gd1A Gd 0.629789(10) -0.185107(10) 0.75515(4) 0.0084 Uani
Gd1B Gd 0.814893(10) 0.185104(14) 0.25515(4) 0.0084 Uani
Gd1E Gd 0.185107(10) -0.185104(14) 0.75515(4) 0.0084 Uani
N2C N 0.5011(3) 0.3487(2) 0.4017(4) 0.0104 Uani
O2D O 0.36123(26) 0.32137(18) 0.1556(4) 0.0196 Uani
O3C O 0.31331(26) 0.24059(18) 0.4923(4) 0.0176 Uani
O4A O 0.36112(19) 0.03946(19) 0.1554(4) 0.0187 Uani
O9 O 0.09129(18) -0.09146(18) 0.2614(7) 0.0192 Uani
H5 H 0.1147 -0.1171 0.3390 0.0290 Uiso
H6 H 0.1111 -0.1110 0.1596 0.0290 Uiso
loop_
_atom_site_aniso_label
_atom_site_aniso_U_11
_atom_site_aniso_U_22
_atom_site_aniso_U_33
_atom_site_aniso_U_23
_atom_site_aniso_U_13
_atom_site_aniso_U_12
Gd1 0.00706(7) 0.00576(7) 0.01272(8) -0.00072(16) -0.00128(16) 0.00351(6)
N1 0.0079(13) 0.0083(13) 0.0159(15) -0.0014(11) -0.0002(11) 0.0043(11)
C1 0.0131(16) 0.0085(14) 0.0130(16) 0.0015(12) -0.0004(13) 0.0042(13)
N2 0.0086(12) 0.0081(13) 0.0147(14) -0.0009(11) -0.0010(11) 0.0043(11)
C2 0.0099(15) 0.0113(15) 0.0149(16) -0.0004(13) -0.0002(13) 0.0067(13)
C3 0.0147(17) 0.0134(16) 0.0180(16) 0.0049(15) 0.0032(14) 0.0083(14)
C4 0.0097(15) 0.0095(15) 0.0174(16) -0.0004(13) -0.0016(13) 0.0043(13)
C5 0.0109(16) 0.0104(16) 0.0172(16) -0.0006(13) 0.0028(13) 0.0046(13)
O1 0.0151(12) 0.0183(13) 0.0242(13) 0.0122(11) 0.0086(11) 0.0123(10)
O2 0.0087(11) 0.0157(13) 0.0309(15) 0.0131(12) 0.0041(11) 0.0034(10)
C6 0.0112(16) 0.0112(16) 0.0185(17) 0.0018(14) -0.0005(13) 0.0063(14)
O3 0.0099(11) 0.0191(13) 0.0247(13) 0.0110(11) 0.0045(11) 0.0079(10)
O4 0.0148(12) 0.0163(13) 0.0301(15) 0.0114(12) 0.0065(11) 0.0115(11)
O5 0.0225(14) 0.0407(18) 0.0169(13) -0.0039(13) -0.0058(11) 0.0103(14)
N3 0.0239(18) 0.034(2) 0.0198(17) 0.0022(16) 0.0013(15) 0.0108(16)
O6 0.0155(13) 0.0242(14) 0.0168(12) 0.0013(11) 0.0016(10) 0.0072(11)
O7 0.0417(19) 0.084(3) 0.019(3) 0.0039(17) 0.0076(15) 0.020(2)
O8 0.0097(11) 0.0103(11) 0.0320(13) -0.0002(10) -0.0017(10) 0.0053(10)
Gd1A 0.00706 0.00576 0.01272 0.00072 0.00128 0.00351
Gd1B 0.00576 0.0058 0.01272 -0.00056 0.00072 0.00225
Gd1E 0.00576 0.0058 0.01272 0.00056 -0.00072 0.00225
N2C 0.0081 0.0086 0.0147 0.001 0.0001 0.0043
O2D 0.0176 0.0087 0.0309 0.0041 -0.009 0.0053
O3C 0.0132 0.0099 0.0247 -0.0045 0.0065 0.002
O4A 0.0148 0.0163 0.0301 -0.0114 -0.0065 0.0115
O9 0.0170(10) 0.0160(10) 0.0262(18) 0.0013(14) -0.0003(14) 0.0095(9)
loop_
_geom_bond_atom_site_label_1
_geom_bond_atom_site_label_2
_geom_bond_site_symmetry_1
_geom_bond_site_symmetry_2
Gd1 N1 1_555 1_555
N1 C1 1_555 1_555
C1 H1 1_555 1_555
N2 C1 1_555 1_555
C2 N2 1_555 1_555
C3 C2 1_555 1_555
H2 C3 1_555 1_555
C4 N1 1_555 1_555
C5 C4 1_555 1_555
O1 Gd1 1_555 1_555
O2 C5 1_555 1_555
C6 C2 1_555 1_555
O3 C6 1_555 1_555
O4 C6 1_555 1_555
O5 Gd1 1_555 1_555
N3 O5 1_555 1_555
O6 Gd1 1_555 1_555
O7 N3 1_555 1_555
O8 Gd1 1_555 1_555
H3 O8 1_555 1_555
H4 O8 1_555 1_555
O9 H5 1_555 1_555
H6 O9 1_555 1_555
Gd1A O4 1_555 1_555
Gd1B N2 1_555 1_555
Gd1E O2 1_555 1_555
N2C Gd1 1_555 1_555
O2D Gd1 1_555 1_555
O3C Gd1 1_555 1_555
O4A Gd1 1_555 1_555
C3 C4 1_555 1_555
C5 O1 1_555 1_555
O3 Gd1B 1_555 1_555
N3 O6 1_555 1_555

#END
