
#######################################################################
#
#                 Cambridge Crystallographic Data Centre
#                                CCDC 
#
#######################################################################
#
# If this CIF has been generated from an entry in the Cambridge 
# Structural Database, then it will include bibliographic, chemical, 
# crystal, experimental, refinement or atomic coordinate data resulting 
# from the CCDC's data processing and validation procedures.
#
#######################################################################

data_AVAGOV
_chemical_formula_moiety         '(C17 H16 Ag1 N7 O4)n'
_symmetry_cell_setting           tetragonal
_symmetry_space_group_name_H-M   'I 41/a'
_symmetry_Int_Tables_number      88
_space_group_name_Hall           '-I 4ad'
loop_
_symmetry_equiv_pos_site_id
_symmetry_equiv_pos_as_xyz
1 x,y,z
2 1/2-x,-y,1/2+z
3 3/4-y,1/4+x,1/4+z
4 3/4+y,3/4-x,3/4+z
5 1/2+x,1/2+y,1/2+z
6 -x,1/2-y,z
7 1/4-y,3/4+x,3/4+z
8 1/4+y,1/4-x,1/4+z
9 -x,-y,-z
10 1/2+x,y,1/2-z
11 1/4+y,3/4-x,3/4-z
12 1/4-y,1/4+x,1/4-z
13 1/2-x,1/2-y,1/2-z
14 x,1/2+y,-z
15 3/4+y,1/4-x,1/4-z
16 3/4-y,3/4+x,3/4-z
_cell_length_a                   31.065(3)
_cell_length_b                   31.065(3)
_cell_length_c                   8.0003(14)
_cell_angle_alpha                90
_cell_angle_beta                 90
_cell_angle_gamma                90
_cell_volume                     7720.56
loop_
_atom_site_label
_atom_site_type_symbol
_atom_site_fract_x
_atom_site_fract_y
_atom_site_fract_z
_atom_site_U_iso_or_equiv
_atom_site_thermal_displace_type
Ag1 Ag 0.186296(8) 0.305623(9) 1.08931(4) 0.0479 Uani
O1 O 0.16359(14) 0.37781(13) 1.2300(5) 0.1030 Uani
O2 O 0.22702(12) 0.35869(12) 1.2577(5) 0.0930 Uani
N1 N -0.01037(9) 0.38574(8) 1.0601(3) 0.0423 Uani
N2 N 0.06745(9) 0.25558(9) 0.8346(4) 0.0465 Uani
N3 N 0.10268(8) 0.23472(8) 0.7679(4) 0.0459 Uani
N4 N 0.11614(7) 0.30411(8) 0.7705(3) 0.0344 Uani
N5 N 0.25021(8) 0.22621(9) 0.5128(4) 0.0456 Uani
N6 N 0.17085(8) 0.35119(8) 0.8495(3) 0.0413 Uani
N7 N 0.19991(19) 0.38705(14) 1.2813(6) 0.0897 Uani
C1 C 0.06168(10) 0.36492(10) 0.9950(4) 0.0431 Uani
H1 H 0.0910 0.3705 1.0034 0.0520 Uiso
C2 C 0.03202(11) 0.39243(11) 1.0673(4) 0.0459 Uani
H2 H 0.0421 0.4166 1.1235 0.0550 Uiso
C3 C -0.02395(10) 0.35063(11) 0.9781(4) 0.0456 Uani
H3 H -0.0534 0.3456 0.9720 0.0550 Uiso
C4 C 0.00299(10) 0.32187(10) 0.9034(4) 0.0418 Uani
H4 H -0.0080 0.2978 0.8488 0.0500 Uiso
C5 C 0.04714(10) 0.32899(10) 0.9101(4) 0.0375 Uani
C6 C 0.07610(10) 0.29673(10) 0.8368(4) 0.0378 Uani
C7 C 0.13146(10) 0.26412(9) 0.7305(4) 0.0363 Uani
C8 C 0.17311(10) 0.25339(10) 0.6560(4) 0.0361 Uani
C9 C 0.19250(10) 0.21533(10) 0.7043(4) 0.0426 Uani
H5 H 0.1799 0.1982 0.7862 0.0510 Uiso
C10 C 0.23019(11) 0.20310(11) 0.6312(5) 0.0475 Uani
H6 H 0.2427 0.1773 0.6652 0.0570 Uiso
C11 C 0.23188(10) 0.26336(11) 0.4686(4) 0.0441 Uani
H7 H 0.2455 0.2801 0.3882 0.0530 Uiso
C12 C 0.19360(10) 0.27819(11) 0.5366(4) 0.0412 Uani
H8 H 0.1819 0.3043 0.5024 0.0490 Uiso
C13 C 0.13774(9) 0.34479(9) 0.7500(4) 0.0336 Uani
C14 C 0.19088(12) 0.38904(12) 0.8348(5) 0.0537 Uani
H9 H 0.2142 0.3946 0.9041 0.0640 Uiso
C15 C 0.17865(12) 0.42007(12) 0.7223(6) 0.0597 Uani
H10 H 0.1935 0.4460 0.7157 0.0710 Uiso
C16 C 0.14435(13) 0.41228(12) 0.6202(5) 0.0583 Uani
H11 H 0.1356 0.4328 0.5428 0.0700 Uiso
C17 C 0.12285(11) 0.37358(11) 0.6333(4) 0.0467 Uani
H12 H 0.0993 0.3673 0.5659 0.0560 Uiso
Ag1K Ag -0.055623(9) 0.436296(8) 1.16069(4) 0.0479 Uani
Ag1L Ag 0.313704(8) 0.194377(9) 0.41069(4) 0.0479 Uani
N1N N 0.13574(8) 0.26037(9) 1.1899(3) 0.0423 Uani
N5L N 0.24979(8) 0.27379(9) 0.9872(4) 0.0456 Uani
O3 O 0.29654(12) 0.35984(11) 0.4954(5) 0.1013 Uani
H13 H 0.3172 0.3744 0.4548 0.1520 Uiso
H14 H 0.2756 0.3741 0.5353 0.1520 Uiso
O4 O 0.2386(5) 0.4761(3) 0.346(2) 0.2413 Uani
H15 H 0.2216 0.4705 0.4281 0.3620 Uiso
H16 H 0.2618 0.4605 0.3432 0.3620 Uiso
loop_
_atom_site_aniso_label
_atom_site_aniso_U_11
_atom_site_aniso_U_22
_atom_site_aniso_U_33
_atom_site_aniso_U_23
_atom_site_aniso_U_13
_atom_site_aniso_U_12
Ag1 0.04104(18) 0.04813(19) 0.0545(2) 0.00749(12) 0.00619(12) -0.00378(11)
O1 0.113(3) 0.099(3) 0.097(3) -0.021(2) 0.000(2) 0.010(2)
O2 0.102(3) 0.075(2) 0.102(3) -0.019(2) -0.019(2) -0.0015(19)
N1 0.0412(16) 0.0370(15) 0.0486(17) -0.0040(12) 0.0058(12) 0.0031(12)
N2 0.0363(16) 0.0376(16) 0.0656(19) -0.0082(13) 0.0103(13) -0.0051(12)
N3 0.0378(16) 0.0356(15) 0.0644(19) -0.0094(13) 0.0101(14) -0.0009(12)
N4 0.0286(13) 0.0316(13) 0.0429(15) -0.0016(11) 0.0014(11) 0.0005(10)
N5 0.0348(15) 0.0444(16) 0.0575(18) -0.0046(14) 0.0036(13) 0.0068(12)
N6 0.0367(15) 0.0373(15) 0.0500(16) 0.0061(12) -0.0038(12) -0.0052(11)
N7 0.125(4) 0.062(3) 0.082(3) -0.017(2) 0.000(3) -0.003(3)
C1 0.0320(17) 0.0442(19) 0.053(2) -0.0086(16) 0.0015(15) -0.0012(14)
C2 0.046(2) 0.0427(19) 0.049(2) -0.0105(15) 0.0022(16) -0.0024(15)
C3 0.0318(17) 0.046(2) 0.059(2) -0.0022(17) 0.0065(15) -0.0031(14)
C4 0.0353(18) 0.0342(17) 0.056(2) -0.0082(15) 0.0054(15) -0.0028(13)
C5 0.0332(17) 0.0357(17) 0.0436(18) -0.0004(14) 0.0056(13) 0.0025(13)
C6 0.0291(16) 0.0373(18) 0.0469(18) -0.0046(14) 0.0014(13) -0.0020(13)
C7 0.0338(17) 0.0314(16) 0.0436(17) -0.0032(13) -0.0004(13) 0.0005(13)
C8 0.0326(17) 0.0370(17) 0.0387(17) -0.0080(14) -0.0008(13) -0.0006(13)
C9 0.0394(19) 0.0365(18) 0.052(2) 0.0009(15) 0.0047(15) 0.0018(14)
C10 0.0368(19) 0.0387(19) 0.067(2) 0.0036(16) 0.0025(16) 0.0045(15)
C11 0.0407(19) 0.050(2) 0.0417(18) 0.0000(15) 0.0038(14) 0.0002(15)
C12 0.0381(18) 0.0415(19) 0.0439(18) 0.0003(15) 0.0002(14) 0.0078(14)
C13 0.0280(16) 0.0301(16) 0.0427(18) -0.0021(13) 0.0051(13) 0.0003(12)
C14 0.045(2) 0.045(2) 0.071(2) 0.0057(18) -0.0116(18) -0.0151(16)
C15 0.055(2) 0.040(2) 0.084(3) 0.0133(19) 0.002(2) -0.0110(17)
C16 0.065(3) 0.041(2) 0.069(3) 0.0178(18) -0.002(2) 0.0036(18)
C17 0.044(2) 0.046(2) 0.050(2) 0.0067(16) -0.0071(15) 0.0063(15)
Ag1K 0.04813 0.04104 0.0545 -0.00619 0.00749 0.00378
Ag1L 0.04104 0.04813 0.0545 0.00749 0.00619 -0.00378
N1N 0.037 0.0412 0.0486 0.0058 0.004 -0.0031
N5L 0.0348 0.0444 0.0575 -0.0046 0.0036 0.0068
O3 0.110(3) 0.076(2) 0.118(3) 0.006(2) -0.018(2) -0.0022(19)
O4 0.267(17) 0.077(7) 0.38(2) -0.038(11) -0.063(13) -0.007(8)
loop_
_geom_bond_atom_site_label_1
_geom_bond_atom_site_label_2
_geom_bond_site_symmetry_1
_geom_bond_site_symmetry_2
Ag1 O1 1_555 1_555
O1 N7 1_555 1_555
O2 Ag1 1_555 1_555
N1 C2 1_555 1_555
N2 N3 1_555 1_555
N3 C7 1_555 1_555
N4 C6 1_555 1_555
N5 C10 1_555 1_555
N6 Ag1 1_555 1_555
N7 O2 1_555 1_555
C1 H1 1_555 1_555
C2 C1 1_555 1_555
H2 C2 1_555 1_555
C3 N1 1_555 1_555
H3 C3 1_555 1_555
C4 C3 1_555 1_555
H4 C4 1_555 1_555
C5 C1 1_555 1_555
C6 N2 1_555 1_555
C7 N4 1_555 1_555
C8 C7 1_555 1_555
C9 C8 1_555 1_555
H5 C9 1_555 1_555
C10 C9 1_555 1_555
H6 C10 1_555 1_555
C11 N5 1_555 1_555
H7 C11 1_555 1_555
C12 C8 1_555 1_555
H8 C12 1_555 1_555
C13 N4 1_555 1_555
C14 N6 1_555 1_555
H9 C14 1_555 1_555
C15 C14 1_555 1_555
H10 C15 1_555 1_555
C16 C15 1_555 1_555
H11 C16 1_555 1_555
C17 C13 1_555 1_555
H12 C17 1_555 1_555
O3 H13 1_555 1_555
H14 O3 1_555 1_555
O4 H15 1_555 1_555
H16 O4 1_555 1_555
Ag1K N1 1_555 1_555
Ag1L N5 1_555 1_555
N1N Ag1 1_555 1_555
N5L Ag1 1_555 1_555
N6 C13 1_555 1_555
C4 C5 1_555 1_555
C5 C6 1_555 1_555
C11 C12 1_555 1_555
C16 C17 1_555 1_555

#END
