
#######################################################################
#
#                 Cambridge Crystallographic Data Centre
#                                CCDC 
#
#######################################################################
#
# If this CIF has been generated from an entry in the Cambridge 
# Structural Database, then it will include bibliographic, chemical, 
# crystal, experimental, refinement or atomic coordinate data resulting 
# from the CCDC's data processing and validation procedures.
#
#######################################################################

data_REYNUG
_chemical_formula_moiety         '(C5 H7 N5 O2 Zn1)n'
_symmetry_cell_setting           tetragonal
_symmetry_space_group_name_H-M   'I 41/a'
_symmetry_Int_Tables_number      88
_space_group_name_Hall           '-I 4ad'
loop_
_symmetry_equiv_pos_site_id
_symmetry_equiv_pos_as_xyz
1 x,y,z
2 1/2-x,-y,1/2+z
3 3/4-y,1/4+x,1/4+z
4 3/4+y,3/4-x,3/4+z
5 1/2+x,1/2+y,1/2+z
6 -x,1/2-y,z
7 1/4-y,3/4+x,3/4+z
8 1/4+y,1/4-x,1/4+z
9 -x,-y,-z
10 1/2+x,y,1/2-z
11 1/4+y,3/4-x,3/4-z
12 1/4-y,1/4+x,1/4-z
13 1/2-x,1/2-y,1/2-z
14 x,1/2+y,-z
15 3/4+y,1/4-x,1/4-z
16 3/4-y,3/4+x,3/4-z
_cell_length_a                   21.7900(10)
_cell_length_b                   21.7900(10)
_cell_length_c                   6.9741(5)
_cell_angle_alpha                90
_cell_angle_beta                 90
_cell_angle_gamma                90
_cell_volume                     3311.33
loop_
_atom_site_label
_atom_site_type_symbol
_atom_site_fract_x
_atom_site_fract_y
_atom_site_fract_z
_atom_site_U_iso_or_equiv
_atom_site_thermal_displace_type
Zn1 Zn 0.118630(14) 0.139204(14) 0.06422(5) 0.0234 Uani
O1 O -0.04441(9) 0.15729(11) 0.3649(3) 0.0349 Uani
C1 C 0.00917(13) 0.15060(13) 0.3042(4) 0.0257 Uani
N1 N 0.30983(11) 0.13867(12) 0.1576(4) 0.0302 Uani
N2 N 0.12027(10) 0.14864(11) 0.3680(4) 0.0276 Uani
H1 H 0.1223 0.1101 0.4182 0.0330 Uiso
C2 C 0.25208(13) 0.14457(15) 0.2154(4) 0.0292 Uani
N3 N 0.21429(12) 0.14388(14) 0.0653(4) 0.0356 Uani
C3 C 0.06051(13) 0.17538(16) 0.4286(4) 0.0326 Uani
H2 H 0.0621 0.2197 0.4175 0.0390 Uiso
H3 H 0.0527 0.1652 0.5617 0.0390 Uiso
N4 N 0.25042(13) 0.13787(17) -0.0915(4) 0.0485 Uani
N5 N 0.30753(13) 0.13449(16) -0.0375(4) 0.0446 Uani
O2 O 0.02236(10) 0.12694(12) 0.1470(3) 0.0424 Uani
C4 C 0.23301(15) 0.1511(2) 0.4214(5) 0.0451 Uani
H4 H 0.2649 0.1732 0.4898 0.0540 Uiso
H5 H 0.2300 0.1105 0.4777 0.0540 Uiso
C5 C 0.17231(14) 0.18436(17) 0.4513(5) 0.0369 Uani
H6 H 0.1654 0.1903 0.5874 0.0440 Uiso
H7 H 0.1742 0.2244 0.3910 0.0440 Uiso
Zn1G Zn 0.389204(14) 0.131370(14) 0.31422(5) 0.0234 Uani
Zn1N Zn -0.110796(14) 0.131370(14) 0.18578(5) 0.0234 Uani
O1K O 0.09271(11) 0.20559(9) -0.1149(3) 0.0349 Uani
N1F N 0.11133(12) 0.05983(11) -0.0924(4) 0.0302 Uani
loop_
_atom_site_aniso_label
_atom_site_aniso_U_11
_atom_site_aniso_U_22
_atom_site_aniso_U_33
_atom_site_aniso_U_23
_atom_site_aniso_U_13
_atom_site_aniso_U_12
Zn1 0.0241(2) 0.0233(2) 0.0228(2) -0.00087(12) -0.00205(12) 0.00033(12)
O1 0.0231(11) 0.0464(13) 0.0352(12) -0.0098(10) -0.0016(9) -0.0018(9)
C1 0.0271(15) 0.0264(15) 0.0237(14) 0.0029(11) -0.0004(12) -0.0001(12)
N1 0.0228(12) 0.0393(15) 0.0286(13) -0.0037(11) -0.0002(10) 0.0000(10)
N2 0.0229(12) 0.0310(13) 0.0288(13) 0.0047(11) 0.0002(10) -0.0005(10)
C2 0.0229(15) 0.0377(17) 0.0270(16) -0.0001(13) -0.0008(12) -0.0020(12)
N3 0.0239(13) 0.0569(18) 0.0259(13) -0.0042(12) -0.0010(10) 0.0019(12)
C3 0.0250(15) 0.0436(18) 0.0293(16) -0.0046(13) 0.0015(12) -0.0004(13)
N4 0.0305(15) 0.089(2) 0.0260(15) -0.0065(15) 0.0002(12) 0.0032(15)
N5 0.0270(15) 0.077(2) 0.0298(15) -0.0070(14) 0.0043(12) 0.0015(14)
O2 0.0262(11) 0.0686(17) 0.0325(12) -0.0176(12) 0.0008(9) -0.0030(11)
C4 0.0268(17) 0.080(3) 0.0286(17) -0.0010(17) 0.0008(13) 0.0044(17)
C5 0.0282(16) 0.057(2) 0.0254(16) -0.0066(14) -0.0016(12) -0.0040(15)
Zn1G 0.0233 0.0241 0.0228 0.00205 -0.00087 -0.00033
Zn1N 0.0233 0.0241 0.0228 -0.00205 0.00087 -0.00033
O1K 0.0464 0.0231 0.0352 0.0016 -0.0098 0.0018
N1F 0.0393 0.0228 0.0286 -0.0002 0.0037 0
loop_
_geom_bond_atom_site_label_1
_geom_bond_atom_site_label_2
_geom_bond_site_symmetry_1
_geom_bond_site_symmetry_2
Zn1 N2 1_555 1_555
O1 C1 1_555 1_555
C1 C3 1_555 1_555
N1 C2 1_555 1_555
N2 H1 1_555 1_555
C2 N3 1_555 1_555
N3 Zn1 1_555 1_555
C3 N2 1_555 1_555
H2 C3 1_555 1_555
H3 C3 1_555 1_555
N4 N3 1_555 1_555
N5 N1 1_555 1_555
O2 Zn1 1_555 1_555
C4 C2 1_555 1_555
H4 C4 1_555 1_555
H5 C4 1_555 1_555
C5 N2 1_555 1_555
H6 C5 1_555 1_555
H7 C5 1_555 1_555
Zn1G N1 1_555 1_555
Zn1N O1 1_555 1_555
O1K Zn1 1_555 1_555
N1F Zn1 1_555 1_555
C1 O2 1_555 1_555
N4 N5 1_555 1_555
C4 C5 1_555 1_555

#END
