
#######################################################################
#
#                 Cambridge Crystallographic Data Centre
#                                CCDC 
#
#######################################################################
#
# If this CIF has been generated from an entry in the Cambridge 
# Structural Database, then it will include bibliographic, chemical, 
# crystal, experimental, refinement or atomic coordinate data resulting 
# from the CCDC's data processing and validation procedures.
#
#######################################################################

data_LOVLEP
_chemical_formula_moiety         'C152 H228 Cu31 N126 O205 P6 W54'
_symmetry_cell_setting           monoclinic
_symmetry_space_group_name_H-M   'C 2/c'
_symmetry_Int_Tables_number      15
_space_group_name_Hall           '-C 2yc'
loop_
_symmetry_equiv_pos_site_id
_symmetry_equiv_pos_as_xyz
1 x,y,z
2 -x,y,1/2-z
3 1/2+x,1/2+y,z
4 1/2-x,1/2+y,1/2-z
5 -x,-y,-z
6 x,-y,1/2+z
7 1/2-x,1/2-y,-z
8 1/2+x,1/2-y,1/2+z
_cell_length_a                   48.819(5)
_cell_length_b                   21.863(5)
_cell_length_c                   36.741(5)
_cell_angle_alpha                90
_cell_angle_beta                 111.584(5)
_cell_angle_gamma                90
_cell_volume                     36465
loop_
_atom_site_label
_atom_site_type_symbol
_atom_site_fract_x
_atom_site_fract_y
_atom_site_fract_z
W1 W 0.96626(2) 0.63835(4) 0.29252(3)
W2 W 0.91401(2) 0.01533(4) 0.41704(3)
W3 W 0.97158(2) 0.36161(4) 0.29359(3)
W4 W 1.04424(2) 0.36033(4) 0.31433(3)
W5 W 1.04590(2) 0.63797(4) 0.31509(3)
W6 W 0.79509(2) -0.11241(4) 0.34447(3)
W7 W 0.87968(2) -0.15452(4) 0.47997(3)
W8 W 1.05323(2) 0.45616(5) 0.40068(3)
W9 W 0.75881(2) 0.01710(4) 0.34828(3)
W10 W 0.87580(2) -0.11213(4) 0.37896(3)
W11 W 0.80311(2) 0.11235(4) 0.48831(3)
W12 W 0.91702(2) -0.02660(4) 0.51702(3)
W13 W 0.87102(2) 0.09685(5) 0.32527(3)
W14 W 0.79718(2) 0.09845(5) 0.29253(3)
W15 W 0.92966(2) 0.50504(4) 0.28049(3)
W16 W 0.76168(2) -0.02781(5) 0.44781(3)
W17 W 0.87663(2) 0.11333(4) 0.52026(3)
W18 W 0.97970(2) 0.45734(5) 0.37934(3)
W19 W 0.79922(2) -0.15508(4) 0.44539(3)
W20 W 0.80070(2) 0.15695(4) 0.38845(3)
W21 W 0.87458(2) 0.15625(4) 0.42097(3)
W22 W 1.08349(2) 0.50630(4) 0.32666(3)
W23 W 0.87900(2) -0.01469(5) 0.58731(3)
W24 W 0.80443(2) -0.01594(5) 0.55404(3)
W25 W 0.84210(3) -0.14273(5) 0.55079(3)
W26 W 0.83257(3) -0.03145(5) 0.28791(3)
W27 W 1.01684(3) 0.58905(5) 0.39016(3)
Cu1 Cu 0.91996(6) 0.23023(13) 0.30644(8)
Cu2 Cu 0.90662(6) -0.31397(13) 0.52512(8)
Cu3 Cu 0.7500 0.2500 0.5000
Cu4 Cu 0.74940(7) 0.23123(14) 0.21801(9)
Cu5 Cu 1.07838(7) 0.23552(15) 0.66534(9)
Cu6 Cu 0.91794(7) 0.22781(14) 0.60766(11)
P1 P 1.00669(12) 0.5024(2) 0.30656(17)
P2 P 0.83639(12) 0.0209(2) 0.38015(17)
P3 P 0.83991(12) -0.0240(3) 0.48630(17)
O1 O 0.8445(4) -0.2096(7) 0.5743(4)
O2 O 0.8829(4) -0.3640(8) 0.4767(5)
O3 O 0.8722(3) -0.0989(7) 0.5921(4)
O4 O 0.9447(5) 0.2602(10) 0.5825(7)
O5 O 0.8687(3) -0.1560(7) 0.5255(4)
O6 O 0.8881(6) 0.2930(13) 0.5802(8)
O7 O 0.8140(4) -0.1005(7) 0.5670(5)
O8 O 0.8131(3) -0.1577(7) 0.5007(4)
O9 O 0.7880(4) -0.2280(7) 0.4375(5)
O10 O 0.7817(4) -0.0022(8) 0.5785(5)
O11 O 0.8387(3) -0.1636(7) 0.4512(4)
O12 O 0.8924(3) -0.2280(7) 0.4842(5)
O13 O 0.9152(3) -0.1131(6) 0.5088(4)
O14 O 0.9537(3) -0.0180(8) 0.5415(5)
O15 O 0.9025(4) 0.0030(8) 0.6334(5)
O16 O 0.9054(3) -0.0364(6) 0.5608(4)
O17 O 0.9105(3) -0.0646(7) 0.3951(4)
O18 O 0.8846(3) -0.1335(6) 0.4321(4)
O19 O 0.7902(3) -0.1334(6) 0.3918(4)
O20 O 0.7578(3) -0.0159(7) 0.3953(4)
O21 O 0.8060(3) 0.1452(7) 0.4413(4)
O22 O 0.8723(3) 0.1456(7) 0.4712(5)
O23 O 0.9177(3) -0.0163(6) 0.4650(4)
O24 O 0.8405(3) 0.1496(7) 0.5174(4)
O25 O 0.8999(3) 0.1671(7) 0.5501(4)
O26 O 0.7779(3) -0.0372(6) 0.5031(4)
O27 O 0.8065(3) 0.0625(7) 0.5315(5)
O28 O 0.8429(3) 0.0012(7) 0.5932(4)
O29 O 0.7641(3) -0.1141(7) 0.4427(4)
O30 O 0.8115(3) -0.0521(6) 0.4569(4)
O31 O 0.8666(3) -0.0507(6) 0.4818(4)
O32 O 0.9031(3) 0.0547(6) 0.5135(4)
O33 O 0.7764(3) 0.0558(7) 0.4583(4)
O34 O 0.7266(3) -0.0187(8) 0.4427(5)
O35 O 0.7802(3) 0.1680(7) 0.4945(5)
O36 O 0.8760(3) 0.0613(7) 0.5628(4)
O37 O 0.8409(3) -0.0426(6) 0.5274(4)
O38 O 0.8401(3) 0.0447(7) 0.4843(4)
O39 O 0.8088(3) -0.0165(6) 0.3743(4)
O40 O 0.8374(3) 0.0798(6) 0.4022(4)
O41 O 0.8644(3) -0.0166(6) 0.3988(4)
O42 O 0.7800(3) -0.1772(7) 0.3187(4)
O43 O 0.8886(3) -0.1752(6) 0.3636(4)
O44 O 0.9494(3) 0.0289(7) 0.4255(4)
O45 O 0.8978(3) 0.2170(7) 0.4310(5)
O46 O 0.9010(3) 0.0889(6) 0.4318(4)
O47 O 0.8981(3) 0.0483(7) 0.3644(4)
O48 O 0.8341(3) 0.1305(7) 0.2936(4)
O49 O 0.8697(3) 0.1447(7) 0.3673(4)
O50 O 0.8616(3) -0.0724(7) 0.3293(4)
O51 O 0.8052(3) -0.0739(6) 0.3035(4)
O52 O 0.8324(3) -0.0715(7) 0.2485(5)
O53 O 0.8043(3) 0.0306(7) 0.2645(4)
O54 O 0.7719(3) 0.0483(6) 0.3086(4)
O55 O 0.7221(3) 0.0328(7) 0.3246(5)
O56 O 0.7786(3) 0.2191(7) 0.3810(5)
O57 O 0.7738(3) 0.0911(7) 0.3755(4)
O58 O 0.8379(3) 0.1980(7) 0.4046(4)
O59 O 0.8929(4) 0.1397(7) 0.3093(5)
O60 O 0.8614(3) 0.0288(7) 0.2898(4)
O61 O 0.7605(3) -0.0635(6) 0.3294(4)
O62 O 0.8358(3) -0.1317(6) 0.3677(4)
O63 O 0.8011(3) 0.1474(6) 0.3365(4)
O64 O 0.8348(3) 0.0390(6) 0.3374(4)
O65 O 0.7731(3) 0.1413(7) 0.2543(4)
O66 O 0.9494(3) 0.3031(7) 0.2969(4)
O67 O 0.8955(3) 0.4931(7) 0.2799(4)
O68 O 0.9537(3) 0.6394(7) 0.2364(5)
O69 O 0.9541(3) 0.7089(7) 0.2990(4)
O70 O 0.9325(3) 0.5925(6) 0.2887(4)
O71 O 1.0048(3) 0.6537(6) 0.2942(4)
O72 O 1.0588(3) 0.7093(7) 0.3298(5)
O73 O 1.0819(3) 0.5937(7) 0.3326(4)
O74 O 1.1209(3) 0.4954(7) 0.3474(5)
O75 O 1.0790(3) 0.5184(7) 0.2735(4)
O76 O 1.0745(3) 0.4945(6) 0.3730(4)
O77 O 1.0472(3) 0.3919(6) 0.3639(4)
O78 O 1.0797(3) 0.4258(7) 0.4409(4)
O79 O 1.0683(4) 0.3012(7) 0.3306(5)
O80 O 1.0085(3) 0.3210(6) 0.3100(4)
O81 O 0.9423(3) 0.4256(7) 0.2763(4)
O82 O 0.9495(3) 0.4950(7) 0.3367(4)
O83 O 0.9778(3) 0.5364(6) 0.2859(4)
O84 O 0.9849(3) 0.6179(7) 0.3471(4)
O85 O 1.0051(3) 0.4353(6) 0.2932(4)
O86 O 1.0117(3) 0.5016(6) 0.3518(4)
O87 O 1.0321(3) 0.5359(6) 0.3016(4)
O88 O 1.0486(3) 0.5365(7) 0.4199(5)
O89 O 0.9910(3) 0.5364(7) 0.4033(4)
O90 O 1.0193(3) 0.4297(6) 0.4103(4)
O91 O 0.9607(3) 0.4302(7) 0.4060(4)
O92 O 1.0208(3) 0.6447(7) 0.4245(4)
O93 O 1.0407(3) 0.6170(6) 0.3633(4)
O94 O 0.9785(3) 0.3922(6) 0.3445(4)
O95 O 1.0687(3) 0.4258(7) 0.3128(4)
O96 O 1.0329(3) 0.3508(6) 0.2592(4)
N1 N 0.9405(4) -0.3235(9) 0.5090(5)
N2 N 0.9759(5) -0.3681(10) 0.4957(6)
N3 N 0.9777(5) -0.3069(11) 0.4892(7)
N4 N 0.8727(5) -0.3170(9) 0.5420(7)
N5 N 0.8475(4) -0.3537(10) 0.5781(6)
N6 N 0.8290(4) -0.3371(9) 0.5408(6)
N7 N 0.9322(4) -0.2659(9) 0.5730(6)
N8 N 0.9492(5) -0.1925(9) 0.6138(6)
N9 N 0.9730(5) -0.2291(10) 0.6183(6)
N10 N 0.9486(4) 0.1630(9) 0.6308(6)
N11 N 0.9935(6) 0.1233(12) 0.6638(8)
N12 N 0.9752(4) 0.0823(9) 0.6361(6)
N13 N 0.8931(5) 0.1995(11) 0.6351(8)
N14 N 0.8720(6) 0.1914(14) 0.6816(9)
N15 N 0.8644(6) 0.1442(11) 0.6563(9)
N16 N 0.7338(5) 0.1948(10) 0.5298(7)
N17 N 0.7240(6) 0.1128(13) 0.5607(8)
N18 N 0.7063(6) 0.1610(10) 0.5605(7)
N19 N 0.7182(4) 0.2217(9) 0.4494(6)
N20 N 0.6944(7) 0.1724(15) 0.3984(10)
N21 N 0.6740(7) 0.2131(18) 0.4042(13)
N22 N 0.6463(5) 0.1698(13) 0.2460(7)
N23 N 0.6613(8) 0.2243(17) 0.2470(11)
N24 N 0.7135(4) 0.1808(10) 0.1927(7)
N25 N 0.6666(7) 0.1500(17) 0.1611(10)
N26 N 0.6841(7) 0.1002(14) 0.1756(10)
N27 N 0.7624(4) 0.2505(10) 0.7372(6)
N28 N 0.7755(6) 0.2700(15) 0.6864(8)
N29 N 0.7746(8) 0.2075(19) 0.6939(10)
N30 N 0.7655(4) -0.2075(9) 0.6773(6)
N31 N 0.7919(6) -0.1596(12) 0.6476(8)
N32 N 0.7746(4) -0.2028(10) 0.6240(6)
N33 N 0.7835(4) 0.2901(9) 0.2390(6)
N34 N 0.8293(6) 0.3259(13) 0.2694(8)
N35 N 0.8126(5) 0.3656(10) 0.2422(7)
N36 N 0.8912(4) 0.2430(8) 0.2521(6)
N37 N 0.8480(5) 0.2507(10) 0.1996(6)
N38 N 0.8666(4) 0.2926(9) 0.1982(6)
N39 N 0.6008(4) 0.2070(8) 0.6751(5)
N40 N 0.6150(5) 0.1185(9) 0.6571(7)
N41 N 0.6257(5) 0.1641(11) 0.6426(7)
N42 N 0.9427(5) 0.1702(9) 0.2869(6)
N43 N 0.9823(9) 0.133(3) 0.2751(12)
N44 N 0.9545(9) 0.1036(17) 0.2567(11)
N45 N 1.0425(4) 0.2026(10) 0.6231(6)
N46 N 0.9982(5) 0.1983(11) 0.5759(7)
N47 N 1.0129(5) 0.1456(11) 0.5780(6)
N48 N 0.9215(6) -0.1673(12) 0.2975(7)
N49 N 0.9289(8) -0.1172(18) 0.2510(11)
N50 N 0.9095(10) -0.083(2) 0.2584(14)
N51 N 0.5802(4) 0.1964(10) 0.1298(6)
N52 N 0.5854(4) 0.1079(9) 0.1063(6)
N53 N 0.5935(5) 0.1502(9) 0.0843(6)
N54 N 0.9473(4) 0.2174(9) 0.3621(5)
N55 N 0.9779(5) 0.2429(10) 0.4225(6)
N56 N 0.9773(5) 0.1805(10) 0.4174(6)
N57 N 0.6148(5) 0.2308(10) 0.2074(6)
C1 C 0.9560(5) -0.2826(13) 0.4951(7)
H1 H 0.9511 -0.2415 0.4906
C2 C 0.9530(6) -0.3765(12) 0.5066(8)
H2 H 0.9466 -0.4145 0.5118
C3 C 0.9952(6) -0.4138(13) 0.4909(9)
H3 H 1.0152 -0.4042 0.5079
H4 H 0.9945 -0.4124 0.4641
C4 C 0.9883(7) -0.4754(13) 0.4993(9)
H5 H 0.9696 -0.4873 0.4796
H6 H 0.9859 -0.4752 0.5244
C5 C 0.8735(6) -0.3440(12) 0.5761(8)
H7 H 0.8911 -0.3545 0.5961
C6 C 0.8433(6) -0.3158(11) 0.5204(8)
H8 H 0.8349 -0.3017 0.4948
C7 C 0.7959(5) -0.3397(12) 0.5288(8)
H9 H 0.7874 -0.3487 0.5011
H10 H 0.7911 -0.3735 0.5425
C8 C 0.7815(5) -0.2839(14) 0.5362(7)
H11 H 0.7604 -0.2878 0.5227
H12 H 0.7879 -0.2491 0.5251
C9 C 0.7878(6) -0.2707(12) 0.5797(7)
H13 H 0.7797 -0.3034 0.5905
H14 H 0.8090 -0.2698 0.5939
C10 C 0.9606(5) -0.2736(12) 0.5920(7)
H15 H 0.9711 -0.3066 0.5877
C11 C 0.9260(5) -0.2151(11) 0.5867(7)
H16 H 0.9074 -0.1973 0.5781
C12 C 0.9526(6) -0.1354(12) 0.6366(8)
H17 H 0.9606 -0.1449 0.6644
H18 H 0.9334 -0.1166 0.6307
C13 C 0.9732(6) -0.0901(11) 0.6270(8)
H19 H 0.9934 -0.1044 0.6381
H20 H 0.9677 -0.0867 0.5989
C14 C 0.9705(6) -0.0282(11) 0.6442(8)
H21 H 0.9498 -0.0179 0.6366
H22 H 0.9789 -0.0307 0.6725
C15 C 0.9857(6) 0.0209(11) 0.6307(8)
H23 H 1.0068 0.0182 0.6452
H24 H 0.9823 0.0148 0.6032
C16 C 0.9500(5) 0.1071(12) 0.6161(7)
H25 H 0.9353 0.0892 0.5950
C17 C 0.9752(6) 0.1676(14) 0.6591(9)
H26 H 0.9803 0.2021 0.6751
C18 C 0.8905(7) 0.2202(16) 0.6685(10)
H27 H 0.9014 0.2536 0.6818
C19 C 0.8748(7) 0.1512(14) 0.6294(9)
H28 H 0.8702 0.1255 0.6078
C20 C 0.7128(7) 0.2053(16) 0.5424(9)
H29 H 0.7031 0.2427 0.5385
C21 C 0.6820(8) 0.1560(15) 0.5749(10)
H30 H 0.6728 0.1957 0.5733
H31 H 0.6673 0.1280 0.5582
C22 C 0.6912(9) 0.136(2) 0.6117(13)
H32 H 0.7080 0.1604 0.6274
H33 H 0.6977 0.0941 0.6124
C23 C 0.6669(13) 0.139(3) 0.6314(17)
H34 H 0.6643 0.0975 0.6390
H35 H 0.6755 0.1622 0.6555
C24 C 0.6402(10) 0.162(2) 0.6127(17)
H36 H 0.6292 0.1356 0.5909
H37 H 0.6415 0.2023 0.6029
C25 C 0.7196(8) 0.1761(17) 0.4262(12)
H38 H 0.7359 0.1515 0.4296
C26 C 0.6887(11) 0.126(2) 0.3631(14)
H39 H 0.7046 0.1289 0.3533
H40 H 0.6884 0.0844 0.3724
C27 C 0.6594(9) 0.1398(15) 0.3302(10)
H41 H 0.6440 0.1402 0.3409
H42 H 0.6605 0.1804 0.3202
C28 C 0.6516(11) 0.099(2) 0.2992(13)
H43 H 0.6303 0.0948 0.2890
H44 H 0.6597 0.0591 0.3095
C29 C 0.6605(8) 0.1125(17) 0.2669(10)
H45 H 0.6553 0.0786 0.2486
H46 H 0.6817 0.1173 0.2765
C30 C 0.6195(6) 0.1773(13) 0.2243(8)
H47 H 0.6049 0.1481 0.2208
C31 C 0.6415(10) 0.260(2) 0.2218(14)
H48 H 0.6451 0.2991 0.2149
C32 C 0.7685(8) 0.2009(18) 0.7268(11)
H49 H 0.7689 0.1641 0.7396
C33 C 0.7109(8) 0.1202(16) 0.1959(11)
H50 H 0.7263 0.0949 0.2108
C34 C 0.6727(7) 0.0386(15) 0.1709(12)
H51 H 0.6811 0.0178 0.1958
H52 H 0.6794 0.0175 0.1525
C35 C 0.6406(6) 0.0329(15) 0.1571(11)
H53 H 0.6333 0.0665 0.1682
H54 H 0.6362 -0.0045 0.1681
C36 C 0.7601(5) -0.2289(11) 0.6422(7)
H55 H 0.7469 -0.2606 0.6315
C37 C 0.7750(6) -0.2118(12) 0.5852(7)
H56 H 0.7549 -0.2093 0.5664
H57 H 0.7861 -0.1788 0.5796
C38 C 0.7875(6) 0.3418(12) 0.2244(8)
H58 H 0.7732 0.3599 0.2028
C39 C 0.8246(8) 0.4242(12) 0.2338(10)
H59 H 0.8087 0.4490 0.2167
H60 H 0.8340 0.4465 0.2581
C40 C 0.8460(7) 0.4135(13) 0.2156(9)
H61 H 0.8619 0.3892 0.2334
H62 H 0.8542 0.4526 0.2125
C41 C 0.8342(7) 0.3806(15) 0.1748(9)
H63 H 0.8175 0.3554 0.1730
H64 H 0.8276 0.4112 0.1543
C42 C 0.8577(6) 0.3409(13) 0.1683(8)
H65 H 0.8499 0.3227 0.1424
H66 H 0.8746 0.3657 0.1701
C43 C 0.8925(5) 0.2893(11) 0.2294(7)
H67 H 0.9084 0.3154 0.2342
C44 C 0.6176(6) 0.2166(12) 0.6541(8)
H68 H 0.6230 0.2551 0.6482
C45 C 0.9341(7) 0.1260(17) 0.2655(11)
H69 H 0.9149 0.1110 0.2568
C46 C 0.9566(12) 0.047(2) 0.2294(16)
H70 H 0.9708 0.0562 0.2172
H71 H 0.9376 0.0393 0.2090
C47 C 0.9672(12) -0.010(3) 0.2585(16)
H72 H 0.9874 -0.0048 0.2763
H73 H 0.9547 -0.0150 0.2736
C48 C 0.9583(5) 0.1671(11) 0.3823(6)
H74 H 0.9534 0.1276 0.3728
C49 C 0.9956(6) 0.1412(11) 0.4483(7)
H75 H 1.0160 0.1524 0.4545
H76 H 0.9931 0.0994 0.4387
C50 C 0.9891(6) 0.1433(11) 0.4858(7)
H77 H 0.9934 0.1839 0.4971
H78 H 0.9683 0.1354 0.4796
C51 C 1.0069(6) 0.0973(13) 0.5149(8)
H79 H 1.0035 0.0572 0.5027
H80 H 1.0276 0.1069 0.5219
C52 C 1.0004(7) 0.0943(13) 0.5511(8)
H81 H 0.9792 0.0940 0.5441
H82 H 1.0081 0.0562 0.5646
C53 C 1.0383(5) 0.1480(11) 0.6066(7)
H83 H 1.0517 0.1159 0.6143
C54 C 0.9074(10) -0.117(2) 0.2911(15)
H84 H 0.8967 -0.1034 0.3059
C55 C 0.5897(5) 0.2014(12) 0.1008(7)
H85 H 0.5935 0.2393 0.0923
C56 C 0.5913(6) 0.0440(11) 0.1005(8)
H86 H 0.5817 0.0336 0.0731
H87 H 0.5831 0.0182 0.1154
C57 C 0.6226(7) 0.0318(14) 0.1126(9)
H88 H 0.6251 -0.0081 0.1026
H89 H 0.6310 0.0617 0.1002
C58 C 0.8626(6) 0.2216(13) 0.2318(9)
H90 H 0.8546 0.1889 0.2408
C59 C 0.9598(5) 0.2617(12) 0.3891(8)
H91 H 0.9556 0.3030 0.3838
C60 C 0.5764(7) 0.1333(12) 0.1308(8)
H92 H 0.5685 0.1131 0.1470
C61 C 0.9366(9) -0.165(2) 0.2707(12)
H93 H 0.9498 -0.1937 0.2684
C62 C 0.9723(7) 0.1718(16) 0.2949(10)
H94 H 0.9847 0.1987 0.3132
C63 C 0.8110(6) 0.2808(14) 0.2656(9)
H95 H 0.8164 0.2449 0.2801
C64 C 0.7846(8) -0.1642(14) 0.6778(9)
H96 H 0.7923 -0.1380 0.6991
C65 C 0.6915(8) 0.2424(17) 0.4332(11)
H97 H 0.6854 0.2775 0.4424
C66 C 0.7408(8) 0.1377(18) 0.5438(11)
H98 H 0.7568 0.1169 0.5415
C67 C 1.0172(6) 0.2323(13) 0.6004(9)
H99 H 1.0142 0.2739 0.6028
C68 C 0.6012(6) 0.1452(12) 0.6762(8)
H100 H 0.5919 0.1233 0.6901
C69 C 0.6846(7) 0.2004(17) 0.1720(10)
H101 H 0.6786 0.2408 0.1666
C70 C 0.7682(6) 0.2920(13) 0.7144(8)
H102 H 0.7670 0.3338 0.7182
C71 C 0.8436(8) 0.1005(17) 0.6607(11)
H103 H 0.8479 0.0950 0.6885
H104 H 0.8470 0.0615 0.6505
C72 C 0.8086(10) 0.164(3) 0.6681(17)
H105 H 0.8096 0.2046 0.6578
H106 H 0.8239 0.1605 0.6938
C73 C 0.9333(13) -0.091(3) 0.2164(18)
H107 H 0.9313 -0.1232 0.1971
H108 H 0.9189 -0.0598 0.2045
C74 C 0.7811(10) 0.153(2) 0.6696(15)
H109 H 0.7663 0.1522 0.6434
H110 H 0.7810 0.1145 0.6823
C75 C 0.9642(13) -0.065(3) 0.2307(18)
H111 H 0.9688 -0.0521 0.2084
H112 H 0.9782 -0.0966 0.2445
C76 C 0.8117(10) 0.116(2) 0.6413(15)
H113 H 0.7992 0.0812 0.6403
H114 H 0.8072 0.1318 0.6151
N1D N 1.0595(4) -0.6765(9) 0.4910(5)
N2D N 1.0241(5) -0.6319(10) 0.5043(6)
N3D N 1.0223(5) -0.6931(11) 0.5108(7)
C1D C 1.0440(5) -0.7174(13) 0.5049(7)
H1D H 1.0489 -0.7585 0.5094
C2D C 1.0470(6) -0.6235(12) 0.4934(8)
H2D H 1.0534 -0.5855 0.4882
C3D C 1.0048(6) -0.5862(13) 0.5091(9)
H3D H 0.9848 -0.5958 0.4921
H4D H 1.0055 -0.5876 0.5359
C4D C 1.0117(7) -0.5246(13) 0.5007(9)
H5D H 1.0304 -0.5127 0.5204
H6D H 1.0141 -0.5248 0.4756
W1A W 1.03374(2) 0.63835(4) 0.20748(3)
W2A W 1.08599(2) 0.01533(4) 0.08296(3)
W3A W 1.02842(2) 0.36161(4) 0.20641(3)
W4A W 0.95576(2) 0.36033(4) 0.18567(3)
W5A W 0.95410(2) 0.63797(4) 0.18491(3)
W6A W 1.20491(2) -0.11241(4) 0.15553(3)
W7A W 1.12032(2) -0.15452(4) 0.02003(3)
W8A W 0.94677(2) 0.45616(5) 0.09932(3)
W9A W 1.24119(2) 0.01710(4) 0.15172(3)
W10A W 1.12420(2) -0.11213(4) 0.12104(3)
W11A W 1.19689(2) 0.11235(4) 0.01169(3)
W12A W 1.08298(2) -0.02660(4) -0.01702(3)
W13A W 1.12898(2) 0.09685(5) 0.17473(3)
W14A W 1.20282(2) 0.09845(5) 0.20747(3)
W15A W 1.07034(2) 0.50504(4) 0.21951(3)
W16A W 1.23832(2) -0.02781(5) 0.05219(3)
W17A W 1.12337(2) 0.11333(4) -0.02026(3)
W18A W 1.02030(2) 0.45734(5) 0.12066(3)
W19A W 1.20078(2) -0.15508(4) 0.05461(3)
W20A W 1.19930(2) 0.15695(4) 0.11155(3)
W21A W 1.12542(2) 0.15625(4) 0.07903(3)
W22A W 0.91651(2) 0.50630(4) 0.17334(3)
W23A W 1.12100(2) -0.01469(5) -0.08731(3)
W24A W 1.19557(2) -0.01594(5) -0.05404(3)
W25A W 1.15790(3) -0.14273(5) -0.05079(3)
W26A W 1.16743(3) -0.03145(5) 0.21209(3)
W27A W 0.98316(3) 0.58905(5) 0.10984(3)
Cu1A Cu 1.08004(6) 0.23023(13) 0.19356(8)
Cu2A Cu 1.09338(6) -0.31397(13) -0.02512(8)
Cu4A Cu 1.25060(7) 0.23123(14) 0.28199(9)
Cu5A Cu 0.92162(7) 0.23552(15) -0.16534(9)
Cu6A Cu 1.08206(7) 0.22781(14) -0.10766(11)
P1A P 0.99331(12) 0.5024(2) 0.19344(17)
P2A P 1.16361(12) 0.0209(2) 0.11985(17)
P3A P 1.16009(12) -0.0240(3) 0.01370(17)
O1A O 1.1555(4) -0.2096(7) -0.0743(4)
O2A O 1.1171(4) -0.3640(8) 0.0233(5)
O3A O 1.1278(3) -0.0989(7) -0.0921(4)
O4A O 1.0553(5) 0.2602(10) -0.0825(7)
O5A O 1.1313(3) -0.1560(7) -0.0255(4)
O6A O 1.1119(6) 0.2930(13) -0.0802(8)
O7A O 1.1860(4) -0.1005(7) -0.0670(5)
O8A O 1.1869(3) -0.1577(7) -0.0007(4)
O9A O 1.2120(4) -0.2280(7) 0.0625(5)
O10A O 1.2183(4) -0.0022(8) -0.0785(5)
O11A O 1.1613(3) -0.1636(7) 0.0488(4)
O12A O 1.1076(3) -0.2280(7) 0.0158(5)
O13A O 1.0848(3) -0.1131(6) -0.0088(4)
O14A O 1.0463(3) -0.0180(8) -0.0415(5)
O15A O 1.0975(4) 0.0030(8) -0.1334(5)
O16A O 1.0946(3) -0.0364(6) -0.0608(4)
O17A O 1.0895(3) -0.0646(7) 0.1049(4)
O18A O 1.1154(3) -0.1335(6) 0.0679(4)
O19A O 1.2098(3) -0.1334(6) 0.1082(4)
O20A O 1.2422(3) -0.0159(7) 0.1047(4)
O21A O 1.1940(3) 0.1452(7) 0.0587(4)
O22A O 1.1277(3) 0.1456(7) 0.0288(5)
O23A O 1.0823(3) -0.0163(6) 0.0350(4)
O24A O 1.1595(3) 0.1496(7) -0.0174(4)
O25A O 1.1001(3) 0.1671(7) -0.0501(4)
O26A O 1.2221(3) -0.0372(6) -0.0031(4)
O27A O 1.1935(3) 0.0625(7) -0.0315(5)
O28A O 1.1571(3) 0.0012(7) -0.0932(4)
O29A O 1.2359(3) -0.1141(7) 0.0573(4)
O30A O 1.1885(3) -0.0521(6) 0.0431(4)
O31A O 1.1334(3) -0.0507(6) 0.0182(4)
O32A O 1.0969(3) 0.0547(6) -0.0135(4)
O33A O 1.2236(3) 0.0558(7) 0.0417(4)
O34A O 1.2734(3) -0.0187(8) 0.0573(5)
O35A O 1.2198(3) 0.1680(7) 0.0055(5)
O36A O 1.1240(3) 0.0613(7) -0.0628(4)
O37A O 1.1591(3) -0.0426(6) -0.0274(4)
O38A O 1.1599(3) 0.0447(7) 0.0157(4)
O39A O 1.1912(3) -0.0165(6) 0.1257(4)
O40A O 1.1626(3) 0.0798(6) 0.0978(4)
O41A O 1.1356(3) -0.0166(6) 0.1012(4)
O42A O 1.2200(3) -0.1772(7) 0.1813(4)
O43A O 1.1114(3) -0.1752(6) 0.1364(4)
O44A O 1.0506(3) 0.0289(7) 0.0745(4)
O45A O 1.1022(3) 0.2170(7) 0.0690(5)
O46A O 1.0990(3) 0.0889(6) 0.0682(4)
O47A O 1.1019(3) 0.0483(7) 0.1356(4)
O48A O 1.1659(3) 0.1305(7) 0.2064(4)
O49A O 1.1303(3) 0.1447(7) 0.1327(4)
O50A O 1.1384(3) -0.0724(7) 0.1707(4)
O51A O 1.1948(3) -0.0739(6) 0.1965(4)
O52A O 1.1676(3) -0.0715(7) 0.2515(5)
O53A O 1.1957(3) 0.0306(7) 0.2355(4)
O54A O 1.2281(3) 0.0483(6) 0.1914(4)
O55A O 1.2779(3) 0.0328(7) 0.1754(5)
O56A O 1.2214(3) 0.2191(7) 0.1190(5)
O57A O 1.2262(3) 0.0911(7) 0.1245(4)
O58A O 1.1621(3) 0.1980(7) 0.0954(4)
O59A O 1.1071(4) 0.1397(7) 0.1907(5)
O60A O 1.1386(3) 0.0288(7) 0.2102(4)
O61A O 1.2395(3) -0.0635(6) 0.1706(4)
O62A O 1.1642(3) -0.1317(6) 0.1323(4)
O63A O 1.1989(3) 0.1474(6) 0.1635(4)
O64A O 1.1652(3) 0.0390(6) 0.1626(4)
O65A O 1.2269(3) 0.1413(7) 0.2457(4)
O66A O 1.0506(3) 0.3031(7) 0.2031(4)
O67A O 1.1045(3) 0.4931(7) 0.2201(4)
O68A O 1.0463(3) 0.6394(7) 0.2636(5)
O69A O 1.0459(3) 0.7089(7) 0.2010(4)
O70A O 1.0675(3) 0.5925(6) 0.2113(4)
O71A O 0.9952(3) 0.6537(6) 0.2058(4)
O72A O 0.9412(3) 0.7093(7) 0.1702(5)
O73A O 0.9181(3) 0.5937(7) 0.1674(4)
O74A O 0.8791(3) 0.4954(7) 0.1526(5)
O75A O 0.9210(3) 0.5184(7) 0.2265(4)
O76A O 0.9255(3) 0.4945(6) 0.1270(4)
O77A O 0.9528(3) 0.3919(6) 0.1361(4)
O78A O 0.9203(3) 0.4258(7) 0.0591(4)
O79A O 0.9317(4) 0.3012(7) 0.1694(5)
O80A O 0.9915(3) 0.3210(6) 0.1900(4)
O81A O 1.0577(3) 0.4256(7) 0.2237(4)
O82A O 1.0505(3) 0.4950(7) 0.1633(4)
O83A O 1.0222(3) 0.5364(6) 0.2141(4)
O84A O 1.0151(3) 0.6179(7) 0.1529(4)
O85A O 0.9949(3) 0.4353(6) 0.2068(4)
O86A O 0.9883(3) 0.5016(6) 0.1482(4)
O87A O 0.9679(3) 0.5359(6) 0.1984(4)
O88A O 0.9514(3) 0.5365(7) 0.0801(5)
O89A O 1.0090(3) 0.5364(7) 0.0967(4)
O90A O 0.9807(3) 0.4297(6) 0.0897(4)
O91A O 1.0393(3) 0.4302(7) 0.0940(4)
O92A O 0.9792(3) 0.6447(7) 0.0755(4)
O93A O 0.9593(3) 0.6170(6) 0.1367(4)
O94A O 1.0215(3) 0.3922(6) 0.1555(4)
O95A O 0.9313(3) 0.4258(7) 0.1872(4)
O96A O 0.9671(3) 0.3508(6) 0.2408(4)
N4A N 1.1273(5) -0.3170(9) -0.0420(7)
N5A N 1.1525(4) -0.3537(10) -0.0781(6)
N6A N 1.1710(4) -0.3371(9) -0.0408(6)
N7A N 1.0678(4) -0.2659(9) -0.0730(6)
N8A N 1.0508(5) -0.1925(9) -0.1138(6)
N9A N 1.0270(5) -0.2291(10) -0.1183(6)
N10A N 1.0514(4) 0.1630(9) -0.1308(6)
N11A N 1.0065(6) 0.1233(12) -0.1638(8)
N12A N 1.0248(4) 0.0823(9) -0.1361(6)
N13A N 1.1069(5) 0.1995(11) -0.1351(8)
N14A N 1.1280(6) 0.1914(14) -0.1816(9)
N15A N 1.1356(6) 0.1442(11) -0.1563(9)
N24A N 1.2865(4) 0.1808(10) 0.3073(7)
N25A N 1.3334(7) 0.1500(17) 0.3389(10)
N26A N 1.3159(7) 0.1002(14) 0.3244(10)
N27A N 1.2376(4) 0.2505(10) -0.2372(6)
N28A N 1.2245(6) 0.2700(15) -0.1864(8)
N29A N 1.2254(8) 0.2075(19) -0.1939(10)
N30A N 1.2345(4) -0.2075(9) -0.1773(6)
N31A N 1.2081(6) -0.1596(12) -0.1476(8)
N32A N 1.2254(4) -0.2028(10) -0.1240(6)
N33A N 1.2165(4) 0.2901(9) 0.2610(6)
N34A N 1.1707(6) 0.3259(13) 0.2306(8)
N35A N 1.1874(5) 0.3656(10) 0.2578(7)
N36A N 1.1088(4) 0.2430(8) 0.2479(6)
N37A N 1.1520(5) 0.2507(10) 0.3004(6)
N38A N 1.1334(4) 0.2926(9) 0.3018(6)
N42A N 1.0573(5) 0.1702(9) 0.2131(6)
N43A N 1.0177(9) 0.133(3) 0.2249(12)
N44A N 1.0455(9) 0.1036(17) 0.2433(11)
N45A N 0.9575(4) 0.2026(10) -0.1231(6)
N46A N 1.0018(5) 0.1983(11) -0.0759(7)
N47A N 0.9871(5) 0.1456(11) -0.0780(6)
N48A N 1.0785(6) -0.1673(12) 0.2025(7)
N49A N 1.0711(8) -0.1172(18) 0.2490(11)
N50A N 1.0905(10) -0.083(2) 0.2416(14)
N51A N 1.4198(4) 0.1964(10) 0.3702(6)
N52A N 1.4146(4) 0.1079(9) 0.3937(6)
N53A N 1.4065(5) 0.1502(9) 0.4157(6)
N54A N 1.0527(4) 0.2174(9) 0.1379(5)
N55A N 1.0221(5) 0.2429(10) 0.0775(6)
N56A N 1.0227(5) 0.1805(10) 0.0826(6)
C5A C 1.1265(6) -0.3440(12) -0.0761(8)
H7A H 1.1089 -0.3545 -0.0961
C6A C 1.1567(6) -0.3158(11) -0.0204(8)
H8A H 1.1651 -0.3017 0.0052
C7A C 1.2041(5) -0.3397(12) -0.0288(8)
H9A H 1.2126 -0.3487 -0.0011
H10A H 1.2089 -0.3735 -0.0425
C8A C 1.2185(5) -0.2839(14) -0.0362(7)
H11A H 1.2396 -0.2878 -0.0227
H12A H 1.2121 -0.2491 -0.0251
C9A C 1.2122(6) -0.2707(12) -0.0797(7)
H13A H 1.2203 -0.3034 -0.0905
H14A H 1.1910 -0.2698 -0.0939
C10A C 1.0394(5) -0.2736(12) -0.0920(7)
H15A H 1.0289 -0.3066 -0.0877
C11A C 1.0740(5) -0.2151(11) -0.0867(7)
H16A H 1.0926 -0.1973 -0.0781
C12A C 1.0474(6) -0.1354(12) -0.1366(8)
H17A H 1.0394 -0.1449 -0.1644
H18A H 1.0666 -0.1166 -0.1307
C13A C 1.0268(6) -0.0901(11) -0.1270(8)
H19A H 1.0066 -0.1044 -0.1381
H20A H 1.0323 -0.0867 -0.0989
C14A C 1.0295(6) -0.0282(11) -0.1442(8)
H21A H 1.0502 -0.0179 -0.1366
H22A H 1.0211 -0.0307 -0.1725
C15A C 1.0143(6) 0.0209(11) -0.1307(8)
H23A H 0.9932 0.0182 -0.1452
H24A H 1.0177 0.0148 -0.1032
C16A C 1.0500(5) 0.1071(12) -0.1161(7)
H25A H 1.0647 0.0892 -0.0950
C17A C 1.0248(6) 0.1676(14) -0.1591(9)
H26A H 1.0197 0.2021 -0.1751
C18A C 1.1095(7) 0.2202(16) -0.1685(10)
H27A H 1.0986 0.2536 -0.1818
C19A C 1.1252(7) 0.1512(14) -0.1294(9)
H28A H 1.1298 0.1255 -0.1078
C32A C 1.2315(8) 0.2009(18) -0.2268(11)
H49A H 1.2311 0.1641 -0.2396
C33A C 1.2891(8) 0.1202(16) 0.3041(11)
H50A H 1.2737 0.0949 0.2892
C34A C 1.3273(7) 0.0386(15) 0.3291(12)
H51A H 1.3189 0.0178 0.3042
H52A H 1.3206 0.0175 0.3475
C35A C 1.3594(6) 0.0329(15) 0.3429(11)
H53A H 1.3667 0.0665 0.3318
H54A H 1.3638 -0.0045 0.3319
C36A C 1.2399(5) -0.2289(11) -0.1422(7)
H55A H 1.2531 -0.2606 -0.1315
C37A C 1.2250(6) -0.2118(12) -0.0852(7)
H56A H 1.2451 -0.2093 -0.0664
H57A H 1.2139 -0.1788 -0.0796
C38A C 1.2125(6) 0.3418(12) 0.2756(8)
H58A H 1.2268 0.3599 0.2972
C39A C 1.1754(8) 0.4242(12) 0.2662(10)
H59A H 1.1913 0.4490 0.2833
H60A H 1.1660 0.4465 0.2419
C40A C 1.1540(7) 0.4135(13) 0.2844(9)
H61A H 1.1381 0.3892 0.2666
H62A H 1.1458 0.4526 0.2875
C41A C 1.1658(7) 0.3806(15) 0.3252(9)
H63A H 1.1825 0.3554 0.3270
H64A H 1.1724 0.4112 0.3457
C42A C 1.1423(6) 0.3409(13) 0.3317(8)
H65A H 1.1501 0.3227 0.3576
H66A H 1.1254 0.3657 0.3299
C43A C 1.1075(5) 0.2893(11) 0.2706(7)
H67A H 1.0916 0.3154 0.2658
C45A C 1.0659(7) 0.1260(17) 0.2345(11)
H69A H 1.0851 0.1110 0.2432
C46A C 1.0434(12) 0.047(2) 0.2706(16)
H70A H 1.0292 0.0562 0.2828
H71A H 1.0624 0.0393 0.2910
C47A C 1.0328(12) -0.010(3) 0.2415(16)
H72A H 1.0126 -0.0048 0.2237
H73A H 1.0453 -0.0150 0.2264
C48A C 1.0417(5) 0.1671(11) 0.1177(6)
H74A H 1.0466 0.1276 0.1272
C49A C 1.0044(6) 0.1412(11) 0.0517(7)
H75A H 0.9840 0.1524 0.0455
H76A H 1.0069 0.0994 0.0613
C50A C 1.0109(6) 0.1433(11) 0.0142(7)
H77A H 1.0066 0.1839 0.0029
H78A H 1.0317 0.1354 0.0204
C51A C 0.9931(6) 0.0973(13) -0.0149(8)
H79A H 0.9965 0.0572 -0.0027
H80A H 0.9724 0.1069 -0.0219
C52A C 0.9996(7) 0.0943(13) -0.0511(8)
H81A H 1.0208 0.0940 -0.0441
H82A H 0.9919 0.0562 -0.0646
C53A C 0.9617(5) 0.1480(11) -0.1066(7)
H83A H 0.9483 0.1159 -0.1143
C54A C 1.0926(10) -0.117(2) 0.2089(15)
H84A H 1.1033 -0.1034 0.1941
C55A C 1.4103(5) 0.2014(12) 0.3992(7)
H85A H 1.4065 0.2393 0.4077
C56A C 1.4087(6) 0.0440(11) 0.3995(8)
H86A H 1.4183 0.0336 0.4269
H87A H 1.4169 0.0182 0.3846
C57A C 1.3774(7) 0.0318(14) 0.3874(9)
H88A H 1.3749 -0.0081 0.3974
H89A H 1.3690 0.0617 0.3998
C58A C 1.1374(6) 0.2216(13) 0.2682(9)
H90A H 1.1454 0.1889 0.2592
C59A C 1.0402(5) 0.2617(12) 0.1109(8)
H91A H 1.0444 0.3030 0.1162
C60A C 1.4236(7) 0.1333(12) 0.3692(8)
H92A H 1.4315 0.1131 0.3530
C61A C 1.0634(9) -0.165(2) 0.2293(12)
H93A H 1.0502 -0.1937 0.2316
C62A C 1.0277(7) 0.1718(16) 0.2051(10)
H94A H 1.0153 0.1987 0.1868
C63A C 1.1890(6) 0.2808(14) 0.2344(9)
H95A H 1.1836 0.2449 0.2199
C64A C 1.2154(8) -0.1642(14) -0.1778(9)
H96A H 1.2077 -0.1380 -0.1991
C67A C 0.9828(6) 0.2323(13) -0.1004(9)
H99A H 0.9858 0.2739 -0.1028
C69A C 1.3154(7) 0.2004(17) 0.3280(10)
H101A H 1.3214 0.2408 0.3334
C70A C 1.2318(6) 0.2920(13) -0.2144(8)
H102A H 1.2330 0.3338 -0.2182
C71A C 1.1564(8) 0.1005(17) -0.1607(11)
H103A H 1.1521 0.0950 -0.1885
H104A H 1.1530 0.0615 -0.1505
C72A C 1.1914(10) 0.164(3) -0.1681(17)
H105A H 1.1904 0.2046 -0.1578
H106A H 1.1761 0.1605 -0.1938
C73A C 1.0667(13) -0.091(3) 0.2836(18)
H107A H 1.0687 -0.1232 0.3029
H108A H 1.0811 -0.0598 0.2955
C74A C 1.2189(10) 0.153(2) -0.1696(15)
H109A H 1.2337 0.1522 -0.1434
H110A H 1.2190 0.1145 -0.1823
C75A C 1.0358(13) -0.065(3) 0.2693(18)
H111A H 1.0312 -0.0521 0.2916
H112A H 1.0218 -0.0966 0.2555
C76A C 1.1883(10) 0.116(2) -0.1413(15)
H113A H 1.2008 0.0812 -0.1403
H114A H 1.1928 0.1318 -0.1151
N16F N 0.7662(5) 0.3052(10) 0.4702(7)
N17F N 0.7760(6) 0.3872(13) 0.4393(8)
N18F N 0.7937(6) 0.3390(10) 0.4395(7)
N39F N 0.8992(4) 0.2930(8) 0.3249(5)
N40F N 0.8850(5) 0.3815(9) 0.3429(7)
N41F N 0.8743(5) 0.3359(11) 0.3574(7)
C20F C 0.7872(7) 0.2947(16) 0.4576(9)
H29F H 0.7969 0.2573 0.4615
C21F C 0.8180(8) 0.3440(15) 0.4251(10)
H30F H 0.8272 0.3043 0.4267
H31F H 0.8327 0.3720 0.4418
C22F C 0.8088(9) 0.364(2) 0.3883(13)
H32F H 0.7920 0.3396 0.3726
H33F H 0.8023 0.4059 0.3876
C23F C 0.8331(13) 0.361(3) 0.3686(17)
H34F H 0.8357 0.4025 0.3610
H35F H 0.8245 0.3378 0.3445
C24F C 0.8598(10) 0.338(2) 0.3873(17)
H36F H 0.8708 0.3644 0.4091
H37F H 0.8585 0.2977 0.3971
C44F C 0.8824(6) 0.2834(12) 0.3459(8)
H68F H 0.8770 0.2449 0.3518
C66F C 0.7592(8) 0.3623(18) 0.4562(11)
H98F H 0.7432 0.3831 0.4585
C68F C 0.8988(6) 0.3548(12) 0.3238(8)
H100F H 0.9081 0.3767 0.3099
N19F N 0.7818(4) 0.2783(9) 0.5506(6)
N20F N 0.8056(7) 0.3276(15) 0.6016(10)
N21F N 0.8260(7) 0.2869(18) 0.5958(13)
N22F N 0.8537(5) 0.3302(13) 0.7540(7)
N23F N 0.8387(8) 0.2757(17) 0.7530(11)
N57F N 0.8852(5) 0.2692(10) 0.7926(6)
C25F C 0.7804(8) 0.3239(17) 0.5738(12)
H38F H 0.7641 0.3485 0.5704
C26F C 0.8113(11) 0.374(2) 0.6369(14)
H39F H 0.7954 0.3711 0.6467
H40F H 0.8116 0.4156 0.6276
C27F C 0.8406(9) 0.3602(15) 0.6698(10)
H41F H 0.8560 0.3598 0.6591
H42F H 0.8395 0.3196 0.6798
C28F C 0.8484(11) 0.401(2) 0.7008(13)
H43F H 0.8697 0.4052 0.7110
H44F H 0.8403 0.4409 0.6905
C29F C 0.8395(8) 0.3875(17) 0.7331(10)
H45F H 0.8447 0.4214 0.7514
H46F H 0.8183 0.3827 0.7235
C30F C 0.8805(6) 0.3227(13) 0.7757(8)
H47F H 0.8951 0.3519 0.7792
C31F C 0.8585(10) 0.240(2) 0.7782(14)
H48F H 0.8549 0.2009 0.7851
C65F C 0.8085(8) 0.2576(17) 0.5668(11)
H97F H 0.8146 0.2225 0.5576
Cu1F Cu 0.58004(6) 0.26977(13) 0.69356(8)
Cu2D Cu 1.09338(6) -0.68603(13) 0.47488(8)
Cu2D_2 Cu 1.09338(6) 0.31397(13) 0.47488(8)
Cu2E Cu 0.90662(6) 0.31397(13) 0.02512(8)
Cu3A Cu 1.2500 0.2500 0.0000
Cu4B Cu 1.24940(7) -0.26877(14) 0.21801(9)
Cu4C Cu 0.75060(7) -0.26877(14) 0.28199(9)
Cu4D Cu 1.25060(7) -0.23123(14) -0.21801(9)
Cu4E Cu 0.74940(7) -0.23123(14) 0.71801(9)
Cu4F Cu 0.75060(7) 0.26877(14) 0.78199(9)
Cu4G Cu 1.24940(7) 0.26877(14) -0.28199(9)
Cu5A_2 Cu 0.92162(7) 0.23552(15) 0.83466(9)
Cu5D Cu 0.92162(7) -0.23552(15) 0.33466(9)
Cu5D_2 Cu 0.92162(7) 0.76448(15) 0.33466(9)
Cu5E Cu 1.07838(7) -0.23552(15) 0.16534(9)
Cu5E_2 Cu 1.07838(7) 0.76448(15) 0.16534(9)
Cu5F Cu 1.42162(7) 0.26448(15) 0.33466(9)
Cu5G Cu 0.57838(7) 0.26448(15) 0.16534(9)
Cu6D Cu 1.08206(7) 0.77219(14) 0.39234(11)
Cu6E Cu 0.91794(7) 0.77219(14) 0.10766(11)
O35F O 0.7198(3) 0.3320(7) 0.5055(5)
O42B O 1.2800(3) 0.3228(7) 0.3187(4)
O42C O 0.7200(3) 0.3228(7) 0.1813(4)
O43D O 1.1114(3) 0.1752(6) 0.6364(4)
O43E O 0.8886(3) 0.1752(6) -0.1364(4)
O69D O 1.0459(3) 0.2911(7) 0.7010(4)
O69E O 0.9541(3) 0.2911(7) -0.2010(4)
O72D O 0.9412(3) 0.2907(7) 0.6702(5)
O72E O 1.0588(3) 0.2907(7) -0.1702(5)
O78D O 0.9203(3) -0.4258(7) 0.5591(4)
O78E O 1.0797(3) -0.4258(7) -0.0591(4)
N1A N 1.0595(4) -0.3235(9) -0.0090(5)
N27F N 0.7376(4) 0.2495(10) 0.2628(6)
N27G N 1.2624(4) 0.2495(10) 0.2372(6)
N30D N 1.2345(4) 0.2075(9) 0.3227(6)
N30E N 0.7655(4) 0.2075(9) 0.1773(6)
N39G N 1.1008(4) 0.2930(8) 0.1751(5)
N48D N 1.0785(6) 0.1673(12) 0.7025(7)
N48E N 0.9215(6) 0.1673(12) -0.2025(7)
N51F N 0.9198(4) 0.3036(10) -0.1298(6)
N51G N 1.0802(4) 0.3036(10) 0.6298(6)
N57F_2 N 0.8852(5) 0.2692(10) -0.2074(6)
N57G N 1.1148(5) 0.2692(10) 0.7074(6)
O97 O -0.0000 0.2218(14) 0.7500
O98 O 0.8798(7) 0.0298(15) 0.2242(9)
loop_
_geom_bond_atom_site_label_1
_geom_bond_atom_site_label_2
_geom_bond_site_symmetry_1
_geom_bond_site_symmetry_2
W1 O68 1_555 1_555
W2 O17 1_555 1_555
W3 O66 1_555 1_555
W4 O77 1_555 1_555
W5 O71 1_555 1_555
W6 O19 1_555 1_555
W7 O5 1_555 1_555
W8 O76 1_555 1_555
W9 O20 1_555 1_555
W10 O17 1_555 1_555
W11 O21 1_555 1_555
W12 O13 1_555 1_555
W13 O47 1_555 1_555
W14 O48 1_555 1_555
W15 O67 1_555 1_555
W16 O20 1_555 1_555
W17 O22 1_555 1_555
W18 O82 1_555 1_555
W19 O8 1_555 1_555
W20 O21 1_555 1_555
W21 O22 1_555 1_555
W22 O73 1_555 1_555
W23 O3 1_555 1_555
W24 O7 1_555 1_555
W25 O1 1_555 1_555
W26 O50 1_555 1_555
W27 O84 1_555 1_555
Cu1 O59 1_555 1_555
Cu2 O2 1_555 1_555
Cu3 O35 1_555 1_555
Cu4 O65 1_555 1_555
Cu5 N45 1_555 1_555
Cu6 O4 1_555 1_555
P1 O83 1_555 1_555
P2 O39 1_555 1_555
P3 O30 1_555 1_555
O3 W25 1_555 1_555
O5 W25 1_555 1_555
O6 Cu6 1_555 1_555
O7 W25 1_555 1_555
O8 W25 1_555 1_555
O9 W19 1_555 1_555
O10 W24 1_555 1_555
O11 W7 1_555 1_555
O12 W7 1_555 1_555
O13 W7 1_555 1_555
O14 W12 1_555 1_555
O15 W23 1_555 1_555
O16 W12 1_555 1_555
O18 W7 1_555 1_555
O19 W19 1_555 1_555
O23 W2 1_555 1_555
O24 W11 1_555 1_555
O25 W17 1_555 1_555
O26 W16 1_555 1_555
O27 W11 1_555 1_555
O28 W23 1_555 1_555
O29 W16 1_555 1_555
O30 W16 1_555 1_555
O31 W7 1_555 1_555
O32 W12 1_555 1_555
O33 W11 1_555 1_555
O34 W16 1_555 1_555
O35 W11 1_555 1_555
O36 W17 1_555 1_555
O37 W23 1_555 1_555
O38 W11 1_555 1_555
O39 W6 1_555 1_555
O40 W20 1_555 1_555
O41 W2 1_555 1_555
O42 W6 1_555 1_555
O43 W10 1_555 1_555
O44 W2 1_555 1_555
O45 W21 1_555 1_555
O46 W2 1_555 1_555
O47 W2 1_555 1_555
O48 W13 1_555 1_555
O49 W13 1_555 1_555
O50 W10 1_555 1_555
O51 W6 1_555 1_555
O52 W26 1_555 1_555
O53 W14 1_555 1_555
O54 W9 1_555 1_555
O55 W9 1_555 1_555
O56 W20 1_555 1_555
O57 W9 1_555 1_555
O58 W20 1_555 1_555
O59 W13 1_555 1_555
O60 W13 1_555 1_555
O61 W6 1_555 1_555
O62 W6 1_555 1_555
O63 W14 1_555 1_555
O64 W13 1_555 1_555
O65 W14 1_555 1_555
O66 Cu1 1_555 1_555
O68 W5A 1_555 1_555
O69 W1 1_555 1_555
O70 W1 1_555 1_555
O71 W1 1_555 1_555
O72 W5 1_555 1_555
O73 W5 1_555 1_555
O74 W22 1_555 1_555
O75 W22 1_555 1_555
O76 W22 1_555 1_555
O77 W8 1_555 1_555
O78 W8 1_555 1_555
O79 W4 1_555 1_555
O80 W3 1_555 1_555
O81 W3 1_555 1_555
O82 W15 1_555 1_555
O83 W1 1_555 1_555
O84 W1 1_555 1_555
O85 W3 1_555 1_555
O86 W8 1_555 1_555
O87 W5 1_555 1_555
O88 W8 1_555 1_555
O89 W18 1_555 1_555
O90 W8 1_555 1_555
O91 W18 1_555 1_555
O92 W27 1_555 1_555
O93 W5 1_555 1_555
O94 W3 1_555 1_555
O95 W4 1_555 1_555
O96 W4 1_555 1_555
N1 Cu2 1_555 1_555
N2 N3 1_555 1_555
N3 C1 1_555 1_555
N4 Cu2 1_555 1_555
N5 N6 1_555 1_555
N6 C6 1_555 1_555
N7 Cu2 1_555 1_555
N8 N9 1_555 1_555
N9 C10 1_555 1_555
N10 Cu6 1_555 1_555
N11 N12 1_555 1_555
N12 C15 1_555 1_555
N13 Cu6 1_555 1_555
N14 N15 1_555 1_555
N15 C19 1_555 1_555
N16 Cu3 1_555 1_555
N17 N18 1_555 1_555
N18 C20 1_555 1_555
N19 Cu3 1_555 1_555
N20 N21 1_555 1_555
N21 C65 1_555 1_555
N22 N23 1_555 1_555
N23 C31 1_555 1_555
N24 Cu4 1_555 1_555
N25 N26 1_555 1_555
N26 C33 1_555 1_555
N27 C32 1_555 1_555
N28 N29 1_555 1_555
N29 C32 1_555 1_555
N30 C36 1_555 1_555
N31 N32 1_555 1_555
N32 C36 1_555 1_555
N33 Cu4 1_555 1_555
N34 N35 1_555 1_555
N35 C38 1_555 1_555
N36 Cu1 1_555 1_555
N37 N38 1_555 1_555
N38 C42 1_555 1_555
N39 C44 1_555 1_555
N40 N41 1_555 1_555
N41 C24 1_555 1_555
N42 Cu1 1_555 1_555
N43 N44 1_555 1_555
N44 C45 1_555 1_555
N45 C53 1_555 1_555
N46 N47 1_555 1_555
N47 C52 1_555 1_555
N48 C54 1_555 1_555
N49 N50 1_555 1_555
N50 C54 1_555 1_555
N51 C55 1_555 1_555
N52 N53 1_555 1_555
N53 C55 1_555 1_555
N54 Cu1 1_555 1_555
N55 N56 1_555 1_555
N56 C48 1_555 1_555
N57 C30 1_555 1_555
C1 N1 1_555 1_555
H1 C1 1_555 1_555
C2 N1 1_555 1_555
H2 C2 1_555 1_555
C3 N2 1_555 1_555
H3 C3 1_555 1_555
H4 C3 1_555 1_555
C4 C3 1_555 1_555
H5 C4 1_555 1_555
H6 C4 1_555 1_555
C5 N4 1_555 1_555
H7 C5 1_555 1_555
C6 N4 1_555 1_555
H8 C6 1_555 1_555
C7 N6 1_555 1_555
H9 C7 1_555 1_555
H10 C7 1_555 1_555
C8 C7 1_555 1_555
H11 C8 1_555 1_555
H12 C8 1_555 1_555
C9 C8 1_555 1_555
H13 C9 1_555 1_555
H14 C9 1_555 1_555
C10 N7 1_555 1_555
H15 C10 1_555 1_555
C11 N7 1_555 1_555
H16 C11 1_555 1_555
C12 N8 1_555 1_555
H17 C12 1_555 1_555
H18 C12 1_555 1_555
C13 C12 1_555 1_555
H19 C13 1_555 1_555
H20 C13 1_555 1_555
C14 C13 1_555 1_555
H21 C14 1_555 1_555
H22 C14 1_555 1_555
C15 C14 1_555 1_555
H23 C15 1_555 1_555
H24 C15 1_555 1_555
C16 N10 1_555 1_555
H25 C16 1_555 1_555
C17 N10 1_555 1_555
H26 C17 1_555 1_555
C18 N13 1_555 1_555
H27 C18 1_555 1_555
C19 N13 1_555 1_555
H28 C19 1_555 1_555
C20 N16 1_555 1_555
H29 C20 1_555 1_555
C21 N18 1_555 1_555
H30 C21 1_555 1_555
H31 C21 1_555 1_555
C22 C21 1_555 1_555
H32 C22 1_555 1_555
H33 C22 1_555 1_555
C23 C22 1_555 1_555
H34 C23 1_555 1_555
H35 C23 1_555 1_555
C24 C23 1_555 1_555
H36 C24 1_555 1_555
H37 C24 1_555 1_555
C25 N19 1_555 1_555
H38 C25 1_555 1_555
C26 N20 1_555 1_555
H39 C26 1_555 1_555
H40 C26 1_555 1_555
C27 C26 1_555 1_555
H41 C27 1_555 1_555
H42 C27 1_555 1_555
C28 C27 1_555 1_555
H43 C28 1_555 1_555
H44 C28 1_555 1_555
C29 N22 1_555 1_555
H45 C29 1_555 1_555
H46 C29 1_555 1_555
C30 N22 1_555 1_555
H47 C30 1_555 1_555
C31 N57 1_555 1_555
H48 C31 1_555 1_555
C32 H49 1_555 1_555
C33 N24 1_555 1_555
H50 C33 1_555 1_555
C34 N26 1_555 1_555
H51 C34 1_555 1_555
H52 C34 1_555 1_555
C35 C34 1_555 1_555
H53 C35 1_555 1_555
H54 C35 1_555 1_555
C36 H55 1_555 1_555
C37 N32 1_555 1_555
H56 C37 1_555 1_555
H57 C37 1_555 1_555
C38 N33 1_555 1_555
H58 C38 1_555 1_555
C39 N35 1_555 1_555
H59 C39 1_555 1_555
H60 C39 1_555 1_555
C40 C39 1_555 1_555
H61 C40 1_555 1_555
H62 C40 1_555 1_555
C41 C40 1_555 1_555
H63 C41 1_555 1_555
H64 C41 1_555 1_555
C42 C41 1_555 1_555
H65 C42 1_555 1_555
H66 C42 1_555 1_555
C43 N36 1_555 1_555
H67 C43 1_555 1_555
C44 N41 1_555 1_555
H68 C44 1_555 1_555
C45 N42 1_555 1_555
H69 C45 1_555 1_555
C46 N44 1_555 1_555
H70 C46 1_555 1_555
H71 C46 1_555 1_555
C47 C46 1_555 1_555
H72 C47 1_555 1_555
H73 C47 1_555 1_555
C48 N54 1_555 1_555
H74 C48 1_555 1_555
C49 N56 1_555 1_555
H75 C49 1_555 1_555
H76 C49 1_555 1_555
C50 C49 1_555 1_555
H77 C50 1_555 1_555
H78 C50 1_555 1_555
C51 C50 1_555 1_555
H79 C51 1_555 1_555
H80 C51 1_555 1_555
C52 C51 1_555 1_555
H81 C52 1_555 1_555
H82 C52 1_555 1_555
C53 N47 1_555 1_555
H83 C53 1_555 1_555
C54 H84 1_555 1_555
C55 H85 1_555 1_555
C56 N52 1_555 1_555
H86 C56 1_555 1_555
H87 C56 1_555 1_555
C57 C35 1_555 1_555
H88 C57 1_555 1_555
H89 C57 1_555 1_555
C58 N36 1_555 1_555
H90 C58 1_555 1_555
C59 N54 1_555 1_555
H91 C59 1_555 1_555
C60 N51 1_555 1_555
H92 C60 1_555 1_555
C61 N48 1_555 1_555
H93 C61 1_555 1_555
C62 N42 1_555 1_555
H94 C62 1_555 1_555
C63 N33 1_555 1_555
H95 C63 1_555 1_555
C64 N30 1_555 1_555
H96 C64 1_555 1_555
C65 N19 1_555 1_555
H97 C65 1_555 1_555
C66 N16 1_555 1_555
H98 C66 1_555 1_555
C67 N45 1_555 1_555
H99 C67 1_555 1_555
C68 N39 1_555 1_555
H100 C68 1_555 1_555
C69 N24 1_555 1_555
H101 C69 1_555 1_555
C70 N27 1_555 1_555
H102 C70 1_555 1_555
C71 N15 1_555 1_555
H103 C71 1_555 1_555
H104 C71 1_555 1_555
C72 H105 1_555 1_555
H106 C72 1_555 1_555
C73 N49 1_555 1_555
H107 C73 1_555 1_555
H108 C73 1_555 1_555
C74 N29 1_555 1_555
H109 C74 1_555 1_555
H110 C74 1_555 1_555
C75 C47 1_555 1_555
H111 C75 1_555 1_555
H112 C75 1_555 1_555
C76 C71 1_555 1_555
H113 C76 1_555 1_555
H114 C76 1_555 1_555
N1D C1D 1_555 1_555
N2D N3D 1_555 1_555
N3D C1D 1_555 1_555
C1D H1D 1_555 1_555
C2D N1D 1_555 1_555
H2D C2D 1_555 1_555
C3D N2D 1_555 1_555
H3D C3D 1_555 1_555
H4D C3D 1_555 1_555
C4D C4 1_555 1_555
H5D C4D 1_555 1_555
H6D C4D 1_555 1_555
W1A O68A 1_555 1_555
W2A O17A 1_555 1_555
W3A O96 1_555 1_555
W4A O77A 1_555 1_555
W5A O71A 1_555 1_555
W6A O19A 1_555 1_555
W7A O5A 1_555 1_555
W8A O76A 1_555 1_555
W9A O20A 1_555 1_555
W10A O17A 1_555 1_555
W11A O21A 1_555 1_555
W12A O13A 1_555 1_555
W13A O47A 1_555 1_555
W14A O48A 1_555 1_555
W15A O75 1_555 1_555
W16A O20A 1_555 1_555
W17A O22A 1_555 1_555
W18A O82A 1_555 1_555
W19A O8A 1_555 1_555
W20A O21A 1_555 1_555
W21A O22A 1_555 1_555
W22A O73A 1_555 1_555
W23A O3A 1_555 1_555
W24A O7A 1_555 1_555
W25A O1A 1_555 1_555
W26A O50A 1_555 1_555
W27A O84A 1_555 1_555
Cu1A O59A 1_555 1_555
Cu2A O2A 1_555 1_555
Cu4A O65A 1_555 1_555
Cu5A N45A 1_555 1_555
Cu6A O4A 1_555 1_555
P1A O83A 1_555 1_555
P2A O39A 1_555 1_555
P3A O30A 1_555 1_555
O3A W25A 1_555 1_555
O5A W25A 1_555 1_555
O6A Cu6A 1_555 1_555
O7A W25A 1_555 1_555
O8A W25A 1_555 1_555
O9A W19A 1_555 1_555
O10A W24A 1_555 1_555
O11A W7A 1_555 1_555
O12A W7A 1_555 1_555
O13A W7A 1_555 1_555
O14A W12A 1_555 1_555
O15A W23A 1_555 1_555
O16A W12A 1_555 1_555
O18A W7A 1_555 1_555
O19A W19A 1_555 1_555
O23A W2A 1_555 1_555
O24A W11A 1_555 1_555
O25A W17A 1_555 1_555
O26A W16A 1_555 1_555
O27A W11A 1_555 1_555
O28A W23A 1_555 1_555
O29A W16A 1_555 1_555
O30A W16A 1_555 1_555
O31A W7A 1_555 1_555
O32A W12A 1_555 1_555
O33A W11A 1_555 1_555
O34A W16A 1_555 1_555
O35A W11A 1_555 1_555
O36A W17A 1_555 1_555
O37A W23A 1_555 1_555
O38A W11A 1_555 1_555
O39A W6A 1_555 1_555
O40A W20A 1_555 1_555
O41A W2A 1_555 1_555
O42A W6A 1_555 1_555
O43A W10A 1_555 1_555
O44A W2A 1_555 1_555
O45A W21A 1_555 1_555
O46A W2A 1_555 1_555
O47A W2A 1_555 1_555
O48A W13A 1_555 1_555
O49A W13A 1_555 1_555
O50A W10A 1_555 1_555
O51A W6A 1_555 1_555
O52A W26A 1_555 1_555
O53A W14A 1_555 1_555
O54A W9A 1_555 1_555
O55A W9A 1_555 1_555
O56A W20A 1_555 1_555
O57A W9A 1_555 1_555
O58A W20A 1_555 1_555
O59A W13A 1_555 1_555
O60A W13A 1_555 1_555
O61A W6A 1_555 1_555
O62A W6A 1_555 1_555
O63A W14A 1_555 1_555
O64A W13A 1_555 1_555
O65A W14A 1_555 1_555
O66A W3A 1_555 1_555
O67A W15A 1_555 1_555
O68A W5 1_555 1_555
O69A W1A 1_555 1_555
O70A W1A 1_555 1_555
O71A W1A 1_555 1_555
O72A W5A 1_555 1_555
O73A W5A 1_555 1_555
O74A W22A 1_555 1_555
O75A W15 1_555 1_555
O76A W22A 1_555 1_555
O77A W8A 1_555 1_555
O78A W8A 1_555 1_555
O79A W4A 1_555 1_555
O80A W3A 1_555 1_555
O81A W3A 1_555 1_555
O82A W15A 1_555 1_555
O83A W1A 1_555 1_555
O84A W1A 1_555 1_555
O85A W3A 1_555 1_555
O86A W8A 1_555 1_555
O87A W5A 1_555 1_555
O88A W8A 1_555 1_555
O89A W18A 1_555 1_555
O90A W8A 1_555 1_555
O91A W18A 1_555 1_555
O92A W27A 1_555 1_555
O93A W5A 1_555 1_555
O94A W3A 1_555 1_555
O95A W4A 1_555 1_555
O96A W3 1_555 1_555
N4A Cu2A 1_555 1_555
N5A N6A 1_555 1_555
N6A C6A 1_555 1_555
N7A Cu2A 1_555 1_555
N8A N9A 1_555 1_555
N9A C10A 1_555 1_555
N10A Cu6A 1_555 1_555
N11A N12A 1_555 1_555
N12A C15A 1_555 1_555
N13A Cu6A 1_555 1_555
N14A N15A 1_555 1_555
N15A C19A 1_555 1_555
N24A Cu4A 1_555 1_555
N25A N26A 1_555 1_555
N26A C33A 1_555 1_555
N27A C32A 1_555 1_555
N28A N29A 1_555 1_555
N29A C32A 1_555 1_555
N30A C36A 1_555 1_555
N31A N32A 1_555 1_555
N32A C36A 1_555 1_555
N33A Cu4A 1_555 1_555
N34A N35A 1_555 1_555
N35A C38A 1_555 1_555
N36A Cu1A 1_555 1_555
N37A N38A 1_555 1_555
N38A C42A 1_555 1_555
N42A Cu1A 1_555 1_555
N43A N44A 1_555 1_555
N44A C45A 1_555 1_555
N45A C53A 1_555 1_555
N46A N47A 1_555 1_555
N47A C52A 1_555 1_555
N48A C54A 1_555 1_555
N49A N50A 1_555 1_555
N50A C54A 1_555 1_555
N51A C55A 1_555 1_555
N52A N53A 1_555 1_555
N53A C55A 1_555 1_555
N54A Cu1A 1_555 1_555
N55A N56A 1_555 1_555
N56A C48A 1_555 1_555
C5A N4A 1_555 1_555
H7A C5A 1_555 1_555
C6A N4A 1_555 1_555
H8A C6A 1_555 1_555
C7A N6A 1_555 1_555
H9A C7A 1_555 1_555
H10A C7A 1_555 1_555
C8A C7A 1_555 1_555
H11A C8A 1_555 1_555
H12A C8A 1_555 1_555
C9A C8A 1_555 1_555
H13A C9A 1_555 1_555
H14A C9A 1_555 1_555
C10A N7A 1_555 1_555
H15A C10A 1_555 1_555
C11A N7A 1_555 1_555
H16A C11A 1_555 1_555
C12A N8A 1_555 1_555
H17A C12A 1_555 1_555
H18A C12A 1_555 1_555
C13A C12A 1_555 1_555
H19A C13A 1_555 1_555
H20A C13A 1_555 1_555
C14A C13A 1_555 1_555
H21A C14A 1_555 1_555
H22A C14A 1_555 1_555
C15A C14A 1_555 1_555
H23A C15A 1_555 1_555
H24A C15A 1_555 1_555
C16A N10A 1_555 1_555
H25A C16A 1_555 1_555
C17A N10A 1_555 1_555
H26A C17A 1_555 1_555
C18A N13A 1_555 1_555
H27A C18A 1_555 1_555
C19A N13A 1_555 1_555
H28A C19A 1_555 1_555
C32A H49A 1_555 1_555
C33A N24A 1_555 1_555
H50A C33A 1_555 1_555
C34A N26A 1_555 1_555
H51A C34A 1_555 1_555
H52A C34A 1_555 1_555
C35A C34A 1_555 1_555
H53A C35A 1_555 1_555
H54A C35A 1_555 1_555
C36A H55A 1_555 1_555
C37A N32A 1_555 1_555
H56A C37A 1_555 1_555
H57A C37A 1_555 1_555
C38A N33A 1_555 1_555
H58A C38A 1_555 1_555
C39A N35A 1_555 1_555
H59A C39A 1_555 1_555
H60A C39A 1_555 1_555
C40A C39A 1_555 1_555
H61A C40A 1_555 1_555
H62A C40A 1_555 1_555
C41A C40A 1_555 1_555
H63A C41A 1_555 1_555
H64A C41A 1_555 1_555
C42A C41A 1_555 1_555
H65A C42A 1_555 1_555
H66A C42A 1_555 1_555
C43A N36A 1_555 1_555
H67A C43A 1_555 1_555
C45A N42A 1_555 1_555
H69A C45A 1_555 1_555
C46A N44A 1_555 1_555
H70A C46A 1_555 1_555
H71A C46A 1_555 1_555
C47A C46A 1_555 1_555
H72A C47A 1_555 1_555
H73A C47A 1_555 1_555
C48A N54A 1_555 1_555
H74A C48A 1_555 1_555
C49A N56A 1_555 1_555
H75A C49A 1_555 1_555
H76A C49A 1_555 1_555
C50A C49A 1_555 1_555
H77A C50A 1_555 1_555
H78A C50A 1_555 1_555
C51A C50A 1_555 1_555
H79A C51A 1_555 1_555
H80A C51A 1_555 1_555
C52A C51A 1_555 1_555
H81A C52A 1_555 1_555
H82A C52A 1_555 1_555
C53A N47A 1_555 1_555
H83A C53A 1_555 1_555
C54A H84A 1_555 1_555
C55A H85A 1_555 1_555
C56A N52A 1_555 1_555
H86A C56A 1_555 1_555
H87A C56A 1_555 1_555
C57A C35A 1_555 1_555
H88A C57A 1_555 1_555
H89A C57A 1_555 1_555
C58A N36A 1_555 1_555
H90A C58A 1_555 1_555
C59A N54A 1_555 1_555
H91A C59A 1_555 1_555
C60A N51A 1_555 1_555
H92A C60A 1_555 1_555
C61A N48A 1_555 1_555
H93A C61A 1_555 1_555
C62A N42A 1_555 1_555
H94A C62A 1_555 1_555
C63A N33A 1_555 1_555
H95A C63A 1_555 1_555
C64A N30A 1_555 1_555
H96A C64A 1_555 1_555
C67A N45A 1_555 1_555
H99A C67A 1_555 1_555
C69A N24A 1_555 1_555
H101A C69A 1_555 1_555
C70A N27A 1_555 1_555
H102A C70A 1_555 1_555
C71A N15A 1_555 1_555
H103A C71A 1_555 1_555
H104A C71A 1_555 1_555
C72A H105A 1_555 1_555
H106A C72A 1_555 1_555
C73A N49A 1_555 1_555
H107A C73A 1_555 1_555
H108A C73A 1_555 1_555
C74A N29A 1_555 1_555
H109A C74A 1_555 1_555
H110A C74A 1_555 1_555
C75A C47A 1_555 1_555
H111A C75A 1_555 1_555
H112A C75A 1_555 1_555
C76A C71A 1_555 1_555
H113A C76A 1_555 1_555
H114A C76A 1_555 1_555
N16F Cu3 1_555 1_555
N17F N18F 1_555 1_555
N18F C20F 1_555 1_555
N39F Cu1 1_555 1_555
N40F N41F 1_555 1_555
N41F C24F 1_555 1_555
C20F N16F 1_555 1_555
H29F C20F 1_555 1_555
C21F N18F 1_555 1_555
H30F C21F 1_555 1_555
H31F C21F 1_555 1_555
C22F C21F 1_555 1_555
H32F C22F 1_555 1_555
H33F C22F 1_555 1_555
C23F C22F 1_555 1_555
H34F C23F 1_555 1_555
H35F C23F 1_555 1_555
C24F C23F 1_555 1_555
H36F C24F 1_555 1_555
H37F C24F 1_555 1_555
C44F N39F 1_555 1_555
H68F C44F 1_555 1_555
C66F N16F 1_555 1_555
H98F C66F 1_555 1_555
C68F N39F 1_555 1_555
H100F C68F 1_555 1_555
N19F Cu3 1_555 1_555
N20F N21F 1_555 1_555
N21F C65F 1_555 1_555
N22F N23F 1_555 1_555
N23F C31F 1_555 1_555
N57F C30F 1_555 1_555
C25F N19F 1_555 1_555
H38F C25F 1_555 1_555
C26F N20F 1_555 1_555
H39F C26F 1_555 1_555
H40F C26F 1_555 1_555
C27F C26F 1_555 1_555
H41F C27F 1_555 1_555
H42F C27F 1_555 1_555
C28F C27F 1_555 1_555
H43F C28F 1_555 1_555
H44F C28F 1_555 1_555
C29F N22F 1_555 1_555
H45F C29F 1_555 1_555
H46F C29F 1_555 1_555
C30F N22F 1_555 1_555
H47F C30F 1_555 1_555
C31F N57F 1_555 1_555
H48F C31F 1_555 1_555
C65F N19F 1_555 1_555
H97F C65F 1_555 1_555
Cu1F N39 1_555 1_555
Cu2D N1D 1_555 1_555
Cu2D_2 O78 1_555 1_555
Cu2E O78A 1_555 1_555
Cu3A O35A 1_555 1_555
Cu4B O42A 1_555 1_555
Cu4C O42 1_555 1_555
Cu4D N30A 1_555 1_555
Cu4E N30 1_555 1_555
Cu4F N27 1_555 1_555
Cu4G N27A 1_555 1_555
Cu5A_2 N57F 1_555 1_555
Cu5D O43 1_555 1_555
Cu5D_2 O69 1_555 1_555
Cu5E O43A 1_555 1_555
Cu5E_2 O69A 1_555 1_555
Cu5F N51A 1_555 1_555
Cu5G N51 1_555 1_555
Cu6D O72 1_555 1_555
Cu6E O72A 1_555 1_555
O35F Cu3 1_555 1_555
O42B Cu4A 1_555 1_555
O42C Cu4 1_555 1_555
O43D Cu5 1_555 1_555
O43E Cu5A 1_555 1_555
O69D Cu5 1_555 1_555
O69E Cu5A 1_555 1_555
O72D Cu6 1_555 1_555
O72E Cu6A 1_555 1_555
O78D Cu2 1_555 1_555
O78E Cu2A 1_555 1_555
N1A Cu2A 1_555 1_555
N27F Cu4 1_555 1_555
N27G Cu4A 1_555 1_555
N30D Cu4A 1_555 1_555
N30E Cu4 1_555 1_555
N39G Cu1A 1_555 1_555
N48D Cu5 1_555 1_555
N48E Cu5A 1_555 1_555
N51F Cu5A 1_555 1_555
N51G Cu5 1_555 1_555
N57F_2 Cu5A 1_555 1_555
N57G Cu5 1_555 1_555
W4 O80 1_555 1_555
W4 O85 1_555 1_555
W9 O39 1_555 1_555
W9 O61 1_555 1_555
W10 O18 1_555 1_555
W10 O41 1_555 1_555
W10 O62 1_555 1_555
W12 O23 1_555 1_555
W12 O31 1_555 1_555
W14 O54 1_555 1_555
W14 O64 1_555 1_555
W15 O70 1_555 1_555
W15 O81 1_555 1_555
W15 O83 1_555 1_555
W16 O33 1_555 1_555
W17 O24 1_555 1_555
W17 O32 1_555 1_555
W17 O38 1_555 1_555
W18 O86 1_555 1_555
W18 O90 1_555 1_555
W18 O94 1_555 1_555
W19 O11 1_555 1_555
W19 O29 1_555 1_555
W19 O30 1_555 1_555
W20 O57 1_555 1_555
W20 O63 1_555 1_555
W21 O40 1_555 1_555
W21 O46 1_555 1_555
W21 O49 1_555 1_555
W21 O58 1_555 1_555
W22 O87 1_555 1_555
W22 O95 1_555 1_555
W23 O16 1_555 1_555
W23 O36 1_555 1_555
W24 O26 1_555 1_555
W24 O27 1_555 1_555
W24 O28 1_555 1_555
W24 O37 1_555 1_555
W25 O37 1_555 1_555
W26 O51 1_555 1_555
W26 O53 1_555 1_555
W26 O60 1_555 1_555
W26 O64 1_555 1_555
W27 O86 1_555 1_555
W27 O88 1_555 1_555
W27 O89 1_555 1_555
W27 O93 1_555 1_555
Cu2 O12 1_555 1_555
Cu6 O25 1_555 1_555
P1 O85 1_555 1_555
P1 O86 1_555 1_555
P1 O87 1_555 1_555
P2 O40 1_555 1_555
P2 O41 1_555 1_555
P2 O64 1_555 1_555
P3 O31 1_555 1_555
P3 O37 1_555 1_555
P3 O38 1_555 1_555
N2 C2 1_555 1_555
N5 C5 1_555 1_555
N8 C11 1_555 1_555
N11 C17 1_555 1_555
N12 C16 1_555 1_555
N14 C18 1_555 1_555
N17 C66 1_555 1_555
N20 C25 1_555 1_555
N25 C69 1_555 1_555
N28 C70 1_555 1_555
N31 C64 1_555 1_555
N34 C63 1_555 1_555
N37 C58 1_555 1_555
N38 C43 1_555 1_555
N40 C68 1_555 1_555
N43 C62 1_555 1_555
N46 C67 1_555 1_555
N48 Cu5D 1_555 1_555
N49 C61 1_555 1_555
N52 C60 1_555 1_555
N55 C59 1_555 1_555
N57 Cu5G 1_555 1_555
C9 C37 1_555 1_555
C28 C29 1_555 1_555
C56 C57 1_555 1_555
C72 C74 1_555 1_555
C72 C76 1_555 1_555
C73 C75 1_555 1_555
N2D C2D 1_555 1_555
C3D C4D 1_555 1_555
W4A O80A 1_555 1_555
W4A O85A 1_555 1_555
W4A O96A 1_555 1_555
W9A O39A 1_555 1_555
W9A O61A 1_555 1_555
W10A O18A 1_555 1_555
W10A O41A 1_555 1_555
W10A O62A 1_555 1_555
W12A O23A 1_555 1_555
W12A O31A 1_555 1_555
W14A O54A 1_555 1_555
W14A O64A 1_555 1_555
W15A O70A 1_555 1_555
W15A O81A 1_555 1_555
W15A O83A 1_555 1_555
W16A O33A 1_555 1_555
W17A O24A 1_555 1_555
W17A O32A 1_555 1_555
W17A O38A 1_555 1_555
W18A O86A 1_555 1_555
W18A O90A 1_555 1_555
W18A O94A 1_555 1_555
W19A O11A 1_555 1_555
W19A O29A 1_555 1_555
W19A O30A 1_555 1_555
W20A O57A 1_555 1_555
W20A O63A 1_555 1_555
W21A O40A 1_555 1_555
W21A O46A 1_555 1_555
W21A O49A 1_555 1_555
W21A O58A 1_555 1_555
W22A O75A 1_555 1_555
W22A O87A 1_555 1_555
W22A O95A 1_555 1_555
W23A O16A 1_555 1_555
W23A O36A 1_555 1_555
W24A O26A 1_555 1_555
W24A O27A 1_555 1_555
W24A O28A 1_555 1_555
W24A O37A 1_555 1_555
W25A O37A 1_555 1_555
W26A O51A 1_555 1_555
W26A O53A 1_555 1_555
W26A O60A 1_555 1_555
W26A O64A 1_555 1_555
W27A O86A 1_555 1_555
W27A O88A 1_555 1_555
W27A O89A 1_555 1_555
W27A O93A 1_555 1_555
Cu1A O66A 1_555 1_555
Cu2A O12A 1_555 1_555
Cu6A O25A 1_555 1_555
P1A O85A 1_555 1_555
P1A O86A 1_555 1_555
P1A O87A 1_555 1_555
P2A O40A 1_555 1_555
P2A O41A 1_555 1_555
P2A O64A 1_555 1_555
P3A O31A 1_555 1_555
P3A O37A 1_555 1_555
P3A O38A 1_555 1_555
N5A C5A 1_555 1_555
N8A C11A 1_555 1_555
N11A C17A 1_555 1_555
N12A C16A 1_555 1_555
N14A C18A 1_555 1_555
N25A C69A 1_555 1_555
N28A C70A 1_555 1_555
N31A C64A 1_555 1_555
N34A C63A 1_555 1_555
N37A C58A 1_555 1_555
N38A C43A 1_555 1_555
N43A C62A 1_555 1_555
N46A C67A 1_555 1_555
N48A Cu5E 1_555 1_555
N49A C61A 1_555 1_555
N52A C60A 1_555 1_555
N55A C59A 1_555 1_555
C9A C37A 1_555 1_555
C56A C57A 1_555 1_555
C72A C74A 1_555 1_555
C72A C76A 1_555 1_555
C73A C75A 1_555 1_555
N17F C66F 1_555 1_555
N40F C68F 1_555 1_555
N41F C44F 1_555 1_555
N20F C25F 1_555 1_555
C28F C29F 1_555 1_555

#END
