
#######################################################################
#
#                 Cambridge Crystallographic Data Centre
#                                CCDC 
#
#######################################################################
#
# If this CIF has been generated from an entry in the Cambridge 
# Structural Database, then it will include bibliographic, chemical, 
# crystal, experimental, refinement or atomic coordinate data resulting 
# from the CCDC's data processing and validation procedures.
#
#######################################################################

data_QODHUO07
_chemical_formula_moiety         '(C36 H24 Ag2 Mo8 N12 O26 2-)n'
_symmetry_cell_setting           monoclinic
_symmetry_space_group_name_H-M   'C 2/c'
_symmetry_Int_Tables_number      15
_space_group_name_Hall           '-C 2yc'
loop_
_symmetry_equiv_pos_site_id
_symmetry_equiv_pos_as_xyz
1 x,y,z
2 -x,y,1/2-z
3 1/2+x,1/2+y,z
4 1/2-x,1/2+y,1/2-z
5 -x,-y,-z
6 x,-y,1/2+z
7 1/2-x,1/2-y,-z
8 1/2+x,1/2-y,1/2+z
_cell_length_a                   22.0700(7)
_cell_length_b                   16.4328(4)
_cell_length_c                   25.6173(12)
_cell_angle_alpha                90
_cell_angle_beta                 115.315(4)
_cell_angle_gamma                90
_cell_volume                     8398.5
loop_
_atom_site_label
_atom_site_type_symbol
_atom_site_fract_x
_atom_site_fract_y
_atom_site_fract_z
Mo1 Mo 0.5000 0.40586(5) 0.2500
Mo2 Mo 0.51013(2) 0.29143(3) 0.143517(18)
Mo3 Mo 0.50133(2) 0.08883(3) 0.139441(17)
Mo4 Mo 0.5000 -0.03830(5) 0.2500
Mo5 Mo 0.591628(19) 0.19330(2) 0.291024(18)
O1 O 0.4427(2) 0.4671(3) 0.2004(2)
O2 O 0.54868(19) 0.3583(2) 0.21208(17)
O3 O 0.5790(2) 0.2871(3) 0.12969(19)
O4 O 0.4588(2) 0.3561(3) 0.09325(18)
O5 O 0.46703(18) 0.1900(2) 0.10644(16)
O6 O 0.5513(2) 0.1859(2) 0.21418(17)
O7 O 0.56428(19) 0.2822(2) 0.31558(17)
O8 O 0.67594(18) 0.1988(2) 0.31600(19)
O9 O 0.5760(2) 0.1046(3) 0.32319(18)
O10 O 0.4481(2) 0.0253(3) 0.08710(18)
O11 O 0.57371(19) 0.0831(3) 0.13110(18)
O12 O 0.53463(19) 0.0141(2) 0.20646(16)
O13 O 0.4377(4) -0.1011(4) 0.2055(3)
Mo2A Mo 0.48987(2) 0.29143(3) 0.356483(18)
Mo3A Mo 0.49867(2) 0.08883(3) 0.360559(17)
Mo5A Mo 0.408372(19) 0.19330(2) 0.208976(18)
O1A O 0.5573(2) 0.4671(3) 0.2996(2)
O2A O 0.45132(19) 0.3583(2) 0.28792(17)
O3A O 0.4210(2) 0.2871(3) 0.37031(19)
O4A O 0.5412(2) 0.3561(3) 0.40675(18)
O5A O 0.53297(18) 0.1900(2) 0.39356(16)
O6A O 0.4487(2) 0.1859(2) 0.28582(17)
O7A O 0.43572(19) 0.2822(2) 0.18442(17)
O8A O 0.32406(18) 0.1988(2) 0.18400(19)
O9A O 0.4240(2) 0.1046(3) 0.17681(18)
O10A O 0.5519(2) 0.0253(3) 0.41290(18)
O11A O 0.42629(19) 0.0831(3) 0.36890(18)
O12A O 0.46537(19) 0.0141(2) 0.29354(16)
O13A O 0.5623(4) -0.1011(4) 0.2945(3)
Ag1 Ag 0.344170(19) -0.04239(3) -0.632204(17)
Ag2 Ag 0.32282(2) 0.25282(3) -0.132803(17)
C1 C 0.1239(2) 0.2568(3) -0.49814(19)
C2 C 0.0332(2) 0.3123(3) -0.5891(2)
H1 H 0.0549 0.2914 -0.6103
C3 C 0.4441(2) 0.3435(3) -0.0352(2)
H2 H 0.4241 0.3156 -0.0151
C4 C 0.5978(2) 0.4702(3) 0.0007(2)
C5 C 0.7780(2) 0.6379(3) 0.0092(2)
H3 H 0.7989 0.6342 0.0492
C6 C 0.0600(2) 0.3018(3) -0.5302(2)
C7 C 0.2352(2) 0.0646(3) -0.6116(2)
H4 H 0.2132 0.0575 -0.6514
C8 C 0.5036(2) 0.3837(3) -0.0037(2)
H5 H 0.5232 0.3823 0.0365
C9 C 0.7201(2) 0.6521(3) -0.1078(2)
H6 H 0.6999 0.6566 -0.1478
C10 C 0.2097(2) 0.2264(3) -0.4127(2)
C11 C 0.2979(2) 0.0843(3) -0.4953(2)
H7 H 0.3202 0.0888 -0.4554
C12 C 0.5336(2) 0.4264(3) -0.03333(19)
C13 C 0.0260(2) 0.3353(3) -0.5004(2)
H8 H 0.0434 0.3306 -0.4604
C14 C -0.0331(2) 0.3753(3) -0.5306(2)
H9 H -0.0554 0.3971 -0.5102
C15 C 0.2433(2) 0.2371(3) -0.3490(2)
C16 C 0.6825(2) 0.5518(3) 0.0066(2)
C17 C 0.7155(2) 0.6015(3) -0.0225(2)
C18 C 0.6803(2) 0.5022(3) 0.0879(2)
C19 C 0.6791(3) 0.4559(4) 0.1810(2)
H10 H 0.6350 0.4384 0.1609
C20 C 0.2054(2) 0.1721(3) -0.4949(2)
C21 C -0.0266(2) 0.3545(3) -0.6161(2)
H11 H -0.0438 0.3623 -0.6559
C22 C 0.8074(3) 0.5049(3) 0.2425(2)
H12 H 0.8515 0.5216 0.2634
C23 C 0.2359(2) 0.1214(3) -0.5256(2)
C24 C 0.3256(2) 0.0404(3) -0.5262(2)
H13 H 0.3676 0.0169 -0.5059
C25 C 0.2038(2) 0.1099(3) -0.5850(2)
H14 H 0.1618 0.1325 -0.6066
C26 C 0.7124(2) 0.4915(3) 0.1517(2)
C27 C 0.8079(3) 0.6798(3) -0.0210(2)
H15 H 0.8493 0.7043 0.0001
C28 C 0.6865(2) 0.6100(3) -0.0817(2)
H16 H 0.6446 0.5875 -0.1038
C29 C 0.5024(2) 0.4271(3) -0.0930(2)
H17 H 0.5206 0.4563 -0.1140
C30 C 0.4436(2) 0.3835(3) -0.1210(2)
H18 H 0.4237 0.3827 -0.1612
C31 C 0.7119(3) 0.4466(4) 0.2404(2)
H19 H 0.6890 0.4227 0.2596
C32 C 0.2155(3) 0.2886(3) -0.3222(2)
H20 H 0.1770 0.3183 -0.3439
C33 C 0.2458(3) 0.2952(4) -0.2628(2)
H21 H 0.2269 0.3302 -0.2453
C34 C 0.3023(3) 0.1978(3) -0.3151(2)
H22 H 0.3241 0.1658 -0.3318
C35 C 0.7783(3) 0.5167(3) 0.1833(2)
H23 H 0.8022 0.5409 0.1651
C36 C 0.3284(3) 0.2072(4) -0.2559(2)
H24 H 0.3676 0.1792 -0.2333
N1 N -0.06078(19) 0.3846(3) -0.58827(18)
N2 N 0.29547(19) 0.0302(2) -0.58330(17)
N3 N 0.3008(2) 0.2539(3) -0.22911(18)
N4 N 0.15295(19) 0.2680(2) -0.44090(17)
N5 N 0.14800(19) 0.2109(2) -0.52763(17)
N6 N 0.23813(19) 0.1776(2) -0.43735(17)
N7 N 0.4135(2) 0.3423(3) -0.09317(18)
N8 N 0.7802(2) 0.6868(2) -0.07857(18)
N9 N 0.7758(2) 0.4710(3) 0.27145(18)
N10 N 0.62287(19) 0.4624(2) 0.05853(17)
N11 N 0.62625(18) 0.5115(2) -0.02705(17)
N12 N 0.71152(19) 0.5495(2) 0.06460(17)
Ag1B Ag -0.155830(19) 0.45761(3) -0.632204(17)
Ag1B_2 Ag 0.844170(19) 0.45761(3) 0.367796(17)
Ag2B Ag 0.82282(2) 0.75282(3) -0.132803(17)
N1B N 0.43922(19) -0.1154(3) -0.58827(18)
N8B N 0.2802(2) 0.1868(2) -0.07857(18)
N9B N 0.2758(2) -0.0290(3) -0.72855(18)
loop_
_geom_bond_atom_site_label_1
_geom_bond_atom_site_label_2
_geom_bond_site_symmetry_1
_geom_bond_site_symmetry_2
Mo1 O1 1_555 1_555
Mo2 O2 1_555 1_555
Mo3 O5 1_555 1_555
Mo4 O12 1_555 1_555
Mo5 O6 1_555 1_555
O2 Mo1 1_555 1_555
O3 Mo2 1_555 1_555
O4 Mo2 1_555 1_555
O5 Mo2 1_555 1_555
O6 Mo2 1_555 1_555
O7 Mo1 1_555 1_555
O8 Mo5 1_555 1_555
O9 Mo5 1_555 1_555
O10 Mo3 1_555 1_555
O11 Mo3 1_555 1_555
O12 Mo3 1_555 1_555
O13 Mo4 1_555 1_555
Ag1 N2 1_555 1_555
Ag2 N3 1_555 1_555
C1 C6 1_555 1_555
C2 H1 1_555 1_555
C3 H2 1_555 1_555
C4 C12 1_555 1_555
C5 H3 1_555 1_555
C6 C2 1_555 1_555
C7 H4 1_555 1_555
C8 C3 1_555 1_555
H5 C8 1_555 1_555
C9 H6 1_555 1_555
C10 C15 1_555 1_555
C11 H7 1_555 1_555
C12 C8 1_555 1_555
C13 C6 1_555 1_555
H8 C13 1_555 1_555
C14 C13 1_555 1_555
H9 C14 1_555 1_555
C15 C32 1_555 1_555
C16 C17 1_555 1_555
C17 C5 1_555 1_555
C18 C26 1_555 1_555
C19 H10 1_555 1_555
C20 C23 1_555 1_555
C21 C2 1_555 1_555
H11 C21 1_555 1_555
C22 H12 1_555 1_555
C23 C11 1_555 1_555
C24 C11 1_555 1_555
H13 C24 1_555 1_555
C25 C7 1_555 1_555
H14 C25 1_555 1_555
C26 C19 1_555 1_555
C27 C5 1_555 1_555
H15 C27 1_555 1_555
C28 C9 1_555 1_555
H16 C28 1_555 1_555
C29 C12 1_555 1_555
H17 C29 1_555 1_555
C30 C29 1_555 1_555
H18 C30 1_555 1_555
C31 C19 1_555 1_555
H19 C31 1_555 1_555
C32 H20 1_555 1_555
C33 C32 1_555 1_555
H21 C33 1_555 1_555
C34 C15 1_555 1_555
H22 C34 1_555 1_555
C35 C22 1_555 1_555
H23 C35 1_555 1_555
C36 C34 1_555 1_555
H24 C36 1_555 1_555
N1 C14 1_555 1_555
N2 C7 1_555 1_555
N3 C33 1_555 1_555
N4 C1 1_555 1_555
N5 C1 1_555 1_555
N6 C10 1_555 1_555
N7 Ag2 1_555 1_555
N8 C9 1_555 1_555
N9 C22 1_555 1_555
N10 C4 1_555 1_555
N11 C4 1_555 1_555
N12 C16 1_555 1_555
Mo2A O7 1_555 1_555
Mo3A O9 1_555 1_555
Mo5A O6A 1_555 1_555
O1A Mo1 1_555 1_555
O2A Mo1 1_555 1_555
O3A Mo2A 1_555 1_555
O4A Mo2A 1_555 1_555
O5A Mo2A 1_555 1_555
O6A Mo2A 1_555 1_555
O7A Mo1 1_555 1_555
O8A Mo5A 1_555 1_555
O9A Mo3 1_555 1_555
O10A Mo3A 1_555 1_555
O11A Mo3A 1_555 1_555
O12A Mo4 1_555 1_555
O13A Mo4 1_555 1_555
Ag1B N1 1_555 1_555
Ag1B_2 N9 1_555 1_555
Ag2B N8 1_555 1_555
N1B Ag1 1_555 1_555
N8B Ag2 1_555 1_555
N9B Ag1 1_555 1_555
Mo2 O7A 1_555 1_555
Mo3 O6 1_555 1_555
Mo5 O7 1_555 1_555
C3 N7 1_555 1_555
C10 N4 1_555 1_555
C16 N11 1_555 1_555
C17 C28 1_555 1_555
C18 N10 1_555 1_555
C18 N12 1_555 1_555
C20 N5 1_555 1_555
C20 N6 1_555 1_555
C21 N1 1_555 1_555
C23 C25 1_555 1_555
C24 N2 1_555 1_555
C26 C35 1_555 1_555
C27 N8 1_555 1_555
C30 N7 1_555 1_555
C31 N9 1_555 1_555
C36 N3 1_555 1_555
Mo2A O2A 1_555 1_555
Mo3A O5A 1_555 1_555
Mo3A O6A 1_555 1_555
Mo3A O12A 1_555 1_555
Mo5A O7A 1_555 1_555
Mo5A O9A 1_555 1_555

#END
