
#######################################################################
#
#                 Cambridge Crystallographic Data Centre
#                                CCDC 
#
#######################################################################
#
# If this CIF has been generated from an entry in the Cambridge 
# Structural Database, then it will include bibliographic, chemical, 
# crystal, experimental, refinement or atomic coordinate data resulting 
# from the CCDC's data processing and validation procedures.
#
#######################################################################

data_QODHUO01
_chemical_formula_moiety         '(C36 H24 Ag2 Mo8 N12 O26 2-)n'
_symmetry_cell_setting           monoclinic
_symmetry_space_group_name_H-M   'C 2/c'
_symmetry_Int_Tables_number      15
_space_group_name_Hall           '-C 2yc'
loop_
_symmetry_equiv_pos_site_id
_symmetry_equiv_pos_as_xyz
1 x,y,z
2 -x,y,1/2-z
3 1/2+x,1/2+y,z
4 1/2-x,1/2+y,1/2-z
5 -x,-y,-z
6 x,-y,1/2+z
7 1/2-x,1/2-y,-z
8 1/2+x,1/2-y,1/2+z
_cell_length_a                   21.9381(12)
_cell_length_b                   16.7198(7)
_cell_length_c                   25.5037(14)
_cell_angle_alpha                90
_cell_angle_beta                 115.074(7)
_cell_angle_gamma                90
_cell_volume                     8473.19
loop_
_atom_site_label
_atom_site_type_symbol
_atom_site_fract_x
_atom_site_fract_y
_atom_site_fract_z
Ag1 Ag -0.15576(4) 0.04367(5) -0.63335(3)
Ag2 Ag 0.32144(4) 0.24312(6) -0.13378(3)
C1 C 0.5975(4) 0.0282(5) -0.0014(3)
C2 C 0.7763(4) -0.1383(5) 0.0073(4)
H1 H 0.7970 -0.1346 0.0475
C3 C 0.0596(4) 0.1997(5) -0.5326(4)
C4 C 0.2975(4) 0.4172(5) -0.4967(4)
H2 H 0.3193 0.4141 -0.4566
C5 C 0.1230(4) 0.2445(5) -0.5002(3)
C6 C 0.0326(4) 0.1902(6) -0.5912(4)
H3 H 0.0541 0.2114 -0.6126
C7 C 0.5030(4) 0.1147(5) -0.0060(4)
H4 H 0.5224 0.1160 0.0343
C8 C 0.4434(4) 0.1551(5) -0.0378(4)
H5 H 0.4238 0.1836 -0.0176
C9 C 0.2428(4) 0.2632(5) -0.3510(4)
C10 C 0.6814(4) -0.0524(5) 0.0046(4)
C11 C 0.7197(4) -0.1529(5) -0.1100(4)
H6 H 0.7002 -0.1576 -0.1501
C12 C 0.5328(4) 0.0726(5) -0.0353(3)
C13 C 0.2350(4) 0.3791(5) -0.5277(4)
C14 C 0.6786(5) 0.0442(7) 0.1790(4)
H7 H 0.6346 0.0621 0.1587
C15 C 0.2094(4) 0.2743(5) -0.4147(3)
C16 C 0.7120(4) 0.0080(5) 0.1499(3)
C17 C 0.7142(4) -0.1010(5) -0.0245(4)
C18 C 0.0253(4) 0.1663(6) -0.5030(4)
H8 H 0.0421 0.1712 -0.4630
C19 C 0.2356(5) 0.4353(5) -0.6130(4)
H9 H 0.2144 0.4416 -0.6529
C20 C 0.2039(4) 0.3910(5) -0.5865(4)
H10 H 0.1616 0.3691 -0.6082
C21 C 0.2045(4) 0.3283(4) -0.4975(3)
C22 C 0.6799(4) -0.0021(5) 0.0857(3)
C23 C 0.8062(5) -0.1806(6) -0.0222(4)
H11 H 0.8472 -0.2055 -0.0008
C24 C 0.6855(4) -0.1100(5) -0.0836(4)
H12 H 0.6436 -0.0877 -0.1059
C25 C 0.3247(4) 0.4586(5) -0.5273(4)
H13 H 0.3672 0.4809 -0.5070
C26 C -0.0327(5) 0.1269(6) -0.5329(4)
H14 H -0.0546 0.1041 -0.5123
C27 C -0.0274(5) 0.1485(6) -0.6186(4)
H15 H -0.0451 0.1414 -0.6585
C28 C 0.8061(5) -0.0051(7) 0.2403(4)
H16 H 0.8499 -0.0230 0.2613
C29 C 0.5011(5) 0.0711(6) -0.0951(4)
H17 H 0.5183 0.0409 -0.1164
C30 C 0.7108(5) 0.0535(8) 0.2378(4)
H18 H 0.6875 0.0772 0.2570
C31 C 0.2457(6) 0.2062(7) -0.2652(4)
H19 H 0.2271 0.1710 -0.2477
C32 C 0.2145(5) 0.2132(7) -0.3236(4)
H20 H 0.1751 0.1852 -0.3450
C33 C 0.7775(5) -0.0163(6) 0.1816(4)
H21 H 0.8019 -0.0398 0.1634
C34 C 0.4436(5) 0.1154(7) -0.1222(4)
H22 H 0.4246 0.1176 -0.1624
C35 C 0.3022(5) 0.3004(7) -0.3174(4)
H23 H 0.3249 0.3312 -0.3339
C36 C 0.3275(6) 0.2903(8) -0.2577(5)
H24 H 0.3668 0.3176 -0.2348
N1 N -0.0605(3) 0.1185(5) -0.5898(3)
N2 N 0.2952(4) 0.4695(4) -0.5840(3)
N3 N 0.3001(4) 0.2453(6) -0.2313(3)
N4 N 0.1520(3) 0.2345(4) -0.4431(3)
N5 N 0.1475(3) 0.2904(4) -0.5296(3)
N6 N 0.2373(3) 0.3229(4) -0.4395(3)
N7 N 0.4128(3) 0.1557(5) -0.0949(3)
N8 N 0.7795(4) -0.1875(4) -0.0795(3)
N9 N 0.7753(4) 0.0297(6) 0.2693(3)
N10 N 0.6225(3) 0.0372(4) 0.0563(3)
N11 N 0.6248(3) -0.0131(4) -0.0293(3)
N12 N 0.7103(3) -0.0492(4) 0.0624(3)
Ag1_2 Ag 0.84424(4) 0.04367(5) 0.36665(3)
Ag1B Ag 0.34424(4) 0.54367(5) -0.63335(3)
Ag2B Ag 0.82144(4) -0.25688(6) -0.13378(3)
N2B N -0.2048(4) -0.0305(4) -0.5840(3)
N8B N 0.2795(4) 0.3125(4) -0.0795(3)
N9_2 N -0.2247(4) 0.0297(6) -0.7307(3)
Mo1 Mo 0.0000 0.03271(8) -0.7500
Mo2 Mo -0.00136(4) -0.09015(5) -0.63890(3)
Mo3 Mo -0.00769(4) -0.28984(5) -0.64219(3)
Mo4 Mo 0.0000 -0.40689(9) -0.7500
Mo5 Mo -0.09235(3) -0.19224(4) -0.78979(3)
O1 O 0.0624(9) 0.0946(9) -0.7105(9)
O2 O -0.0336(5) -0.0151(5) -0.7052(4)
O3 O 0.0534(4) -0.0314(7) -0.5851(4)
O4 O -0.0719(4) -0.0810(6) -0.6296(4)
O5 O 0.0329(4) -0.1892(5) -0.6059(4)
O6 O -0.0518(5) -0.1869(5) -0.7143(3)
O7 O -0.0754(4) -0.1036(5) -0.8228(4)
O8 O -0.1767(3) -0.1952(4) -0.8175(4)
O9 O -0.0771(5) -0.2876(6) -0.6291(4)
O10 O 0.0454(5) -0.3474(7) -0.5900(4)
O11 O -0.0459(4) -0.3578(6) -0.7111(4)
O12 O -0.0662(4) -0.2792(5) -0.8170(4)
O13 O 0.0588(6) -0.4654(7) -0.7035(5)
Mo2A Mo 0.00136(4) -0.09015(5) -0.86110(3)
Mo3A Mo 0.00769(4) -0.28984(5) -0.85781(3)
Mo5A Mo 0.09235(3) -0.19224(4) -0.71021(3)
O1A O -0.0624(9) 0.0946(9) -0.7895(9)
O2A O 0.0336(5) -0.0151(5) -0.7948(4)
O3A O -0.0534(4) -0.0314(7) -0.9149(4)
O4A O 0.0719(4) -0.0810(6) -0.8704(4)
O5A O -0.0329(4) -0.1892(5) -0.8941(4)
O6A O 0.0518(5) -0.1869(5) -0.7857(3)
O7A O 0.0754(4) -0.1036(5) -0.6772(4)
O8A O 0.1767(3) -0.1952(4) -0.6825(4)
O9A O 0.0771(5) -0.2876(6) -0.8709(4)
O10A O -0.0454(5) -0.3474(7) -0.9100(4)
O11A O 0.0459(4) -0.3578(6) -0.7889(4)
O12A O 0.0662(4) -0.2792(5) -0.6830(4)
O13A O -0.0588(6) -0.4654(7) -0.7965(5)
loop_
_geom_bond_atom_site_label_1
_geom_bond_atom_site_label_2
_geom_bond_site_symmetry_1
_geom_bond_site_symmetry_2
Ag1 N1 1_555 1_555
Ag2 N3 1_555 1_555
C1 C12 1_555 1_555
C2 H1 1_555 1_555
C3 C5 1_555 1_555
C4 H2 1_555 1_555
C5 N4 1_555 1_555
C6 C3 1_555 1_555
H3 C6 1_555 1_555
C7 H4 1_555 1_555
C8 C7 1_555 1_555
H5 C8 1_555 1_555
C9 C15 1_555 1_555
C10 C17 1_555 1_555
C11 H6 1_555 1_555
C12 C7 1_555 1_555
C13 C4 1_555 1_555
C14 H7 1_555 1_555
C15 N4 1_555 1_555
C16 C14 1_555 1_555
C17 C2 1_555 1_555
C18 C3 1_555 1_555
H8 C18 1_555 1_555
C19 H9 1_555 1_555
C20 C13 1_555 1_555
H10 C20 1_555 1_555
C21 C13 1_555 1_555
C22 C16 1_555 1_555
C23 C2 1_555 1_555
H11 C23 1_555 1_555
C24 C11 1_555 1_555
H12 C24 1_555 1_555
C25 C4 1_555 1_555
H13 C25 1_555 1_555
C26 C18 1_555 1_555
H14 C26 1_555 1_555
C27 C6 1_555 1_555
H15 C27 1_555 1_555
C28 H16 1_555 1_555
C29 C12 1_555 1_555
H17 C29 1_555 1_555
C30 C14 1_555 1_555
H18 C30 1_555 1_555
C31 H19 1_555 1_555
C32 C9 1_555 1_555
H20 C32 1_555 1_555
C33 C16 1_555 1_555
H21 C33 1_555 1_555
C34 C29 1_555 1_555
H22 C34 1_555 1_555
C35 C9 1_555 1_555
H23 C35 1_555 1_555
C36 C35 1_555 1_555
H24 C36 1_555 1_555
N1 C26 1_555 1_555
N2 C19 1_555 1_555
N3 C31 1_555 1_555
N5 C5 1_555 1_555
N6 C15 1_555 1_555
N7 Ag2 1_555 1_555
N8 C11 1_555 1_555
N9 C28 1_555 1_555
N10 C1 1_555 1_555
N11 C1 1_555 1_555
N12 C10 1_555 1_555
Mo1 O1 1_555 1_555
Mo2 O2 1_555 1_555
Mo3 O5 1_555 1_555
Mo4 O11 1_555 1_555
Mo5 O6 1_555 1_555
O2 Mo1 1_555 1_555
O3 Mo2 1_555 1_555
O4 Mo2 1_555 1_555
O5 Mo2 1_555 1_555
O6 Mo2 1_555 1_555
O7 Mo5 1_555 1_555
O8 Mo5 1_555 1_555
O9 Mo3 1_555 1_555
O10 Mo3 1_555 1_555
O11 Mo3 1_555 1_555
O12 Mo4 1_555 1_555
O13 Mo4 1_555 1_555
Ag1_2 N9 1_555 1_555
Ag1B N2 1_555 1_555
Ag2B N8 1_555 1_555
N2B Ag1 1_555 1_555
N8B Ag2 1_555 1_555
N9_2 Ag1 1_555 1_555
Mo2A O7 1_555 1_555
Mo3A O12 1_555 1_555
Mo5A O6A 1_555 1_555
O1A Mo1 1_555 1_555
O2A Mo1 1_555 1_555
O3A Mo2A 1_555 1_555
O4A Mo2A 1_555 1_555
O5A Mo2A 1_555 1_555
O6A Mo2A 1_555 1_555
O7A Mo2 1_555 1_555
O8A Mo5A 1_555 1_555
O9A Mo3A 1_555 1_555
O10A Mo3A 1_555 1_555
O11A Mo4 1_555 1_555
O12A Mo3 1_555 1_555
O13A Mo4 1_555 1_555
C8 N7 1_555 1_555
C10 N11 1_555 1_555
C17 C24 1_555 1_555
C19 C20 1_555 1_555
C21 N5 1_555 1_555
C21 N6 1_555 1_555
C22 N10 1_555 1_555
C22 N12 1_555 1_555
C23 N8 1_555 1_555
C25 N2 1_555 1_555
C27 N1 1_555 1_555
C28 C33 1_555 1_555
C30 N9 1_555 1_555
C31 C32 1_555 1_555
C34 N7 1_555 1_555
C36 N3 1_555 1_555
Mo3 O6 1_555 1_555
Mo4 O12A 1_555 1_555
Mo5 O12 1_555 1_555
Mo2A O2A 1_555 1_555
Mo3A O5A 1_555 1_555
Mo3A O6A 1_555 1_555
Mo3A O11A 1_555 1_555
Mo5A O7A 1_555 1_555
Mo5A O12A 1_555 1_555

#END
