
#######################################################################
#
#                 Cambridge Crystallographic Data Centre
#                                CCDC 
#
#######################################################################
#
# If this CIF has been generated from an entry in the Cambridge 
# Structural Database, then it will include bibliographic, chemical, 
# crystal, experimental, refinement or atomic coordinate data resulting 
# from the CCDC's data processing and validation procedures.
#
#######################################################################

data_QODHUO03
_chemical_formula_moiety         '(C36 H24 Ag2 Mo8 N12 O26 2-)n'
_symmetry_cell_setting           monoclinic
_symmetry_space_group_name_H-M   'C 2/c'
_symmetry_Int_Tables_number      15
_space_group_name_Hall           '-C 2yc'
loop_
_symmetry_equiv_pos_site_id
_symmetry_equiv_pos_as_xyz
1 x,y,z
2 -x,y,1/2-z
3 1/2+x,1/2+y,z
4 1/2-x,1/2+y,1/2-z
5 -x,-y,-z
6 x,-y,1/2+z
7 1/2-x,1/2-y,-z
8 1/2+x,1/2-y,1/2+z
_cell_length_a                   22.0780(7)
_cell_length_b                   16.3817(4)
_cell_length_c                   25.6311(11)
_cell_angle_alpha                90
_cell_angle_beta                 115.334(4)
_cell_angle_gamma                90
_cell_volume                     8378.61
loop_
_atom_site_label
_atom_site_type_symbol
_atom_site_fract_x
_atom_site_fract_y
_atom_site_fract_z
Mo1 Mo 0.5000 0.09492(4) -0.7500
Mo2 Mo 0.48943(2) 0.20842(2) -0.643679(16)
Mo3 Mo 0.498577(19) 0.41157(2) -0.639532(16)
Mo4 Mo 0.5000 0.53920(4) -0.7500
Mo5 Mo 0.408433(19) 0.30664(2) -0.791209(17)
O1 O 0.5621(3) 0.6015(4) -0.7053(3)
O2 O 0.46500(18) 0.4862(2) -0.70684(15)
O3 O 0.55202(19) 0.4753(2) -0.58721(16)
O4 O 0.42607(19) 0.4166(2) -0.63105(17)
O5 O 0.53311(18) 0.3096(2) -0.60667(15)
O6 O 0.4484(2) 0.3144(2) -0.71423(16)
O7 O 0.4246(2) 0.3959(2) -0.82279(17)
O8 O 0.32383(18) 0.3008(2) -0.81604(18)
O9 O 0.43604(18) 0.2173(2) -0.81507(16)
O10 O 0.42093(19) 0.2128(2) -0.62940(18)
O11 O 0.54071(19) 0.1426(2) -0.59394(17)
O12 O 0.45068(18) 0.1411(2) -0.71217(16)
O13 O 0.5570(2) 0.0331(3) -0.70018(18)
Mo2A Mo 0.51057(2) 0.20842(2) -0.856321(16)
Mo3A Mo 0.501423(19) 0.41157(2) -0.860468(16)
Mo5A Mo 0.591567(19) 0.30664(2) -0.708791(17)
O1A O 0.4379(3) 0.6015(4) -0.7947(3)
O2A O 0.53500(18) 0.4862(2) -0.79316(15)
O3A O 0.44798(19) 0.4753(2) -0.91279(16)
O4A O 0.57393(19) 0.4166(2) -0.86895(17)
O5A O 0.46689(18) 0.3096(2) -0.89333(15)
O6A O 0.5516(2) 0.3144(2) -0.78577(16)
O7A O 0.5754(2) 0.3959(2) -0.67721(17)
O8A O 0.67617(18) 0.3008(2) -0.68396(18)
O9A O 0.56396(18) 0.2173(2) -0.68493(16)
O10A O 0.57907(19) 0.2128(2) -0.87060(18)
O11A O 0.45929(19) 0.1426(2) -0.90606(17)
O12A O 0.54932(18) 0.1411(2) -0.78783(16)
O13A O 0.4430(2) 0.0331(3) -0.79982(18)
Ag1 Ag 0.344121(18) 0.54225(2) -0.632072(15)
Ag2 Ag 0.32288(2) 0.24792(3) -0.132722(16)
C1 C 0.1241(2) 0.2430(3) -0.49752(19)
C2 C 0.2351(2) 0.4353(3) -0.6114(2)
H1 H 0.2128 0.4425 -0.6512
C3 C 0.0331(2) 0.1873(3) -0.5890(2)
H2 H 0.0548 0.2080 -0.6102
C4 C 0.7198(2) -0.1521(3) -0.1079(2)
H3 H 0.6996 -0.1570 -0.1479
C5 C 0.0600(2) 0.1980(3) -0.52976(19)
C6 C 0.5978(2) 0.0302(3) 0.00107(19)
C7 C 0.7784(2) -0.1379(3) 0.0096(2)
H4 H 0.7995 -0.1343 0.0496
C8 C 0.4440(2) 0.1568(3) -0.0349(2)
H5 H 0.4239 0.1844 -0.0148
C9 C 0.0263(2) 0.1642(3) -0.5000(2)
H6 H 0.0437 0.1686 -0.4601
C10 C 0.2980(2) 0.4157(3) -0.4951(2)
H7 H 0.3204 0.4114 -0.4552
C11 C 0.5035(2) 0.1167(3) -0.0037(2)
H8 H 0.5234 0.1183 0.0365
C12 C 0.2435(2) 0.2625(3) -0.34862(19)
C13 C 0.2097(2) 0.2730(3) -0.41234(19)
C14 C 0.5332(2) 0.0739(3) -0.03311(19)
C15 C 0.2054(2) 0.3276(3) -0.49479(19)
C16 C -0.0330(2) 0.1244(3) -0.5304(2)
H9 H -0.0553 0.1026 -0.5099
C17 C 0.6825(2) -0.0519(3) 0.00698(19)
C18 C 0.6788(3) 0.0447(3) 0.1810(2)
H10 H 0.6349 0.0629 0.1610
C19 C 0.7158(2) -0.1014(3) -0.0220(2)
C20 C 0.6802(2) -0.0019(3) 0.08838(19)
C21 C 0.3260(2) 0.4594(3) -0.5259(2)
H11 H 0.3680 0.4829 -0.5056
C22 C 0.8075(3) -0.0051(3) 0.2428(2)
H12 H 0.8516 -0.0219 0.2636
C23 C 0.2360(2) 0.3787(3) -0.5252(2)
C24 C 0.2040(2) 0.3899(3) -0.5847(2)
H13 H 0.1620 0.3670 -0.6062
C25 C -0.0266(2) 0.1451(3) -0.6159(2)
H14 H -0.0438 0.1372 -0.6556
C26 C 0.7123(2) 0.0081(3) 0.1518(2)
C27 C 0.8080(2) -0.1794(3) -0.0206(2)
H15 H 0.8495 -0.2037 0.0003
C28 C 0.7120(3) 0.0535(4) 0.2407(2)
H16 H 0.6891 0.0772 0.2600
C29 C 0.3022(3) 0.3025(3) -0.3150(2)
H17 H 0.3237 0.3351 -0.3316
C30 C 0.5025(2) 0.0732(3) -0.0929(2)
H18 H 0.5210 0.0443 -0.1139
C31 C 0.4435(2) 0.1167(3) -0.1207(2)
H19 H 0.4235 0.1173 -0.1608
C32 C 0.2457(3) 0.2046(3) -0.2625(2)
H20 H 0.2269 0.1697 -0.2448
C33 C 0.2153(3) 0.2106(3) -0.3221(2)
H21 H 0.1769 0.1806 -0.3439
C34 C 0.3284(3) 0.2929(4) -0.2556(2)
H22 H 0.3677 0.3206 -0.2331
C35 C 0.6860(2) -0.1093(3) -0.0816(2)
H23 H 0.6442 -0.0863 -0.1036
C36 C 0.7784(2) -0.0168(3) 0.1835(2)
H24 H 0.8024 -0.0408 0.1653
N1 N -0.06082(19) 0.1151(2) -0.58783(17)
N2 N 0.29562(19) 0.4696(2) -0.58332(16)
N3 N 0.3008(2) 0.2465(3) -0.22876(18)
N4 N 0.14809(18) 0.2892(2) -0.52741(16)
N5 N 0.23827(19) 0.3224(2) -0.43709(16)
N6 N 0.15301(19) 0.2320(2) -0.44062(16)
N7 N 0.41343(19) 0.1584(2) -0.09275(17)
N8 N 0.7802(2) -0.1868(2) -0.07855(17)
N9 N 0.7760(2) 0.0291(3) 0.27182(18)
N10 N 0.62631(18) -0.0115(2) -0.02701(16)
N11 N 0.71121(19) -0.0496(2) 0.06458(17)
N12 N 0.62279(19) 0.0374(2) 0.05894(16)
Ag1B Ag -0.155879(18) 0.04225(2) -0.632072(15)
Ag1B_2 Ag 0.844121(18) 0.04225(2) 0.367928(15)
Ag2B Ag 0.82288(2) -0.25208(3) -0.132722(16)
N1B N 0.43918(19) 0.6151(2) -0.58783(17)
N8B N 0.2802(2) 0.3132(2) -0.07855(17)
N9B N 0.2760(2) 0.5291(3) -0.72818(18)
loop_
_geom_bond_atom_site_label_1
_geom_bond_atom_site_label_2
_geom_bond_site_symmetry_1
_geom_bond_site_symmetry_2
Mo1 O9 1_555 1_555
Mo2 O5 1_555 1_555
Mo3 O2 1_555 1_555
Mo4 O1 1_555 1_555
Mo5 O6 1_555 1_555
O2 Mo4 1_555 1_555
O3 Mo3 1_555 1_555
O4 Mo3 1_555 1_555
O5 Mo3 1_555 1_555
O6 Mo2 1_555 1_555
O7 Mo5 1_555 1_555
O8 Mo5 1_555 1_555
O9 Mo5 1_555 1_555
O10 Mo2 1_555 1_555
O11 Mo2 1_555 1_555
O12 Mo1 1_555 1_555
O13 Mo1 1_555 1_555
Ag1 N2 1_555 1_555
Ag2 N3 1_555 1_555
C1 C5 1_555 1_555
C2 H1 1_555 1_555
C3 H2 1_555 1_555
C4 H3 1_555 1_555
C5 C3 1_555 1_555
C6 C14 1_555 1_555
C7 H4 1_555 1_555
C8 H5 1_555 1_555
C9 C5 1_555 1_555
H6 C9 1_555 1_555
C10 H7 1_555 1_555
C11 C8 1_555 1_555
H8 C11 1_555 1_555
C12 C13 1_555 1_555
C13 N5 1_555 1_555
C14 C11 1_555 1_555
C15 C23 1_555 1_555
C16 C9 1_555 1_555
H9 C16 1_555 1_555
C17 C19 1_555 1_555
C18 H10 1_555 1_555
C19 C7 1_555 1_555
C20 C26 1_555 1_555
C21 C10 1_555 1_555
H11 C21 1_555 1_555
C22 H12 1_555 1_555
C23 C10 1_555 1_555
C24 C2 1_555 1_555
H13 C24 1_555 1_555
C25 C3 1_555 1_555
H14 C25 1_555 1_555
C26 C18 1_555 1_555
C27 C7 1_555 1_555
H15 C27 1_555 1_555
C28 C18 1_555 1_555
H16 C28 1_555 1_555
C29 C12 1_555 1_555
H17 C29 1_555 1_555
C30 C14 1_555 1_555
H18 C30 1_555 1_555
C31 C30 1_555 1_555
H19 C31 1_555 1_555
C32 H20 1_555 1_555
C33 C12 1_555 1_555
H21 C33 1_555 1_555
C34 C29 1_555 1_555
H22 C34 1_555 1_555
C35 C4 1_555 1_555
H23 C35 1_555 1_555
C36 C22 1_555 1_555
H24 C36 1_555 1_555
N1 C16 1_555 1_555
N2 C2 1_555 1_555
N3 C32 1_555 1_555
N4 C1 1_555 1_555
N5 C15 1_555 1_555
N6 C1 1_555 1_555
N7 Ag2 1_555 1_555
N8 C4 1_555 1_555
N9 C22 1_555 1_555
N10 C6 1_555 1_555
N11 C17 1_555 1_555
N12 C6 1_555 1_555
Mo2A O9 1_555 1_555
Mo3A O7 1_555 1_555
Mo5A O6A 1_555 1_555
O1A Mo4 1_555 1_555
O2A Mo4 1_555 1_555
O3A Mo3A 1_555 1_555
O4A Mo3A 1_555 1_555
O5A Mo2A 1_555 1_555
O6A Mo2A 1_555 1_555
O7A Mo3 1_555 1_555
O8A Mo5A 1_555 1_555
O9A Mo1 1_555 1_555
O10A Mo2A 1_555 1_555
O11A Mo2A 1_555 1_555
O12A Mo1 1_555 1_555
O13A Mo1 1_555 1_555
Ag1B N1 1_555 1_555
Ag1B_2 N9 1_555 1_555
Ag2B N8 1_555 1_555
N1B Ag1 1_555 1_555
N8B Ag2 1_555 1_555
N9B Ag1 1_555 1_555
Mo2 O12 1_555 1_555
Mo2 O9A 1_555 1_555
Mo3 O6 1_555 1_555
C8 N7 1_555 1_555
C13 N6 1_555 1_555
C15 N4 1_555 1_555
C17 N10 1_555 1_555
C19 C35 1_555 1_555
C20 N11 1_555 1_555
C20 N12 1_555 1_555
C21 N2 1_555 1_555
C23 C24 1_555 1_555
C25 N1 1_555 1_555
C26 C36 1_555 1_555
C27 N8 1_555 1_555
C28 N9 1_555 1_555
C31 N7 1_555 1_555
C32 C33 1_555 1_555
C34 N3 1_555 1_555
Mo2A O12A 1_555 1_555
Mo3A O2A 1_555 1_555
Mo3A O5A 1_555 1_555
Mo3A O6A 1_555 1_555
Mo5A O7A 1_555 1_555
Mo5A O9A 1_555 1_555

#END
