
#######################################################################
#
#                 Cambridge Crystallographic Data Centre
#                                CCDC 
#
#######################################################################
#
# If this CIF has been generated from an entry in the Cambridge 
# Structural Database, then it will include bibliographic, chemical, 
# crystal, experimental, refinement or atomic coordinate data resulting 
# from the CCDC's data processing and validation procedures.
#
#######################################################################

data_QODHUO
_chemical_formula_moiety         '(C36 H24 Ag2 Mo8 N12 O26 2-)n'
_symmetry_cell_setting           monoclinic
_symmetry_space_group_name_H-M   'C 2/c'
_symmetry_Int_Tables_number      15
_space_group_name_Hall           '-C 2yc'
loop_
_symmetry_equiv_pos_site_id
_symmetry_equiv_pos_as_xyz
1 x,y,z
2 -x,y,1/2-z
3 1/2+x,1/2+y,z
4 1/2-x,1/2+y,1/2-z
5 -x,-y,-z
6 x,-y,1/2+z
7 1/2-x,1/2-y,-z
8 1/2+x,1/2-y,1/2+z
_cell_length_a                   22.0984(6)
_cell_length_b                   16.3321(4)
_cell_length_c                   25.6479(11)
_cell_angle_alpha                90
_cell_angle_beta                 115.350(4)
_cell_angle_gamma                90
_cell_volume                     8365.34
loop_
_atom_site_label
_atom_site_type_symbol
_atom_site_fract_x
_atom_site_fract_y
_atom_site_fract_z
Mo1 Mo 0.5000 -0.40447(4) 0.2500
Mo2 Mo 0.489173(19) -0.29178(2) 0.356255(16)
Mo3 Mo 0.498567(19) -0.08802(2) 0.360442(15)
Mo4 Mo 0.5000 0.03983(4) 0.2500
Mo5 Mo 0.408511(18) -0.19334(2) 0.208901(16)
O1 O 0.5568(2) -0.4664(2) 0.29996(17)
O2 O 0.45005(17) -0.3589(2) 0.28771(15)
O3 O 0.54074(18) -0.3576(2) 0.40598(15)
O4 O 0.42060(18) -0.2872(2) 0.37064(17)
O5 O 0.53311(17) -0.1903(2) 0.39334(14)
O6 O 0.4480(2) -0.1855(2) 0.28581(15)
O7 O 0.43685(18) -0.2830(2) 0.18549(15)
O8 O 0.42471(19) -0.1041(2) 0.17732(17)
O9 O 0.32380(17) -0.1994(2) 0.18372(17)
O10 O 0.55208(18) -0.0239(2) 0.41256(15)
O11 O 0.42615(18) -0.0831(2) 0.36916(15)
O12 O 0.46471(18) -0.0134(2) 0.29305(15)
O13 O 0.5621(3) 0.1029(4) 0.2949(3)
Mo2A Mo 0.510827(19) -0.29178(2) 0.143745(16)
Mo3A Mo 0.501433(19) -0.08802(2) 0.139558(15)
Mo5A Mo 0.591489(18) -0.19334(2) 0.291099(16)
O1A O 0.4432(2) -0.4664(2) 0.20004(17)
O2A O 0.54995(17) -0.3589(2) 0.21229(15)
O3A O 0.45926(18) -0.3576(2) 0.09402(15)
O4A O 0.57940(18) -0.2872(2) 0.12936(17)
O5A O 0.46689(17) -0.1903(2) 0.10666(14)
O6A O 0.5520(2) -0.1855(2) 0.21419(15)
O7A O 0.56315(18) -0.2830(2) 0.31451(15)
O8A O 0.57529(19) -0.1041(2) 0.32268(17)
O9A O 0.67620(17) -0.1994(2) 0.31628(17)
O10A O 0.44792(18) -0.0239(2) 0.08744(15)
O11A O 0.57385(18) -0.0831(2) 0.13084(15)
O12A O 0.53529(18) -0.0134(2) 0.20695(15)
O13A O 0.4379(3) 0.1029(4) 0.2051(3)
Ag1 Ag 0.343962(17) 0.04249(2) 0.367891(15)
Ag2 Ag 0.822846(18) 0.24840(2) 0.867299(15)
C1 C 0.6240(2) 0.2429(3) 0.50258(19)
C2 C 0.7350(2) 0.4351(3) 0.38856(19)
H1 H 0.7129 0.4419 0.3488
C3 C 0.5334(2) 0.1871(3) 0.41134(19)
H2 H 0.5553 0.2078 0.3902
C4 C 1.2198(2) -0.1516(3) 0.89215(19)
H3 H 1.1997 -0.1561 0.8522
C5 C 0.9435(2) 0.1569(3) 0.9650(2)
H4 H 0.9233 0.1846 0.9850
C6 C 0.5598(2) 0.1975(3) 0.47047(19)
C7 C 1.2784(2) -0.1378(3) 1.0098(2)
H5 H 1.2993 -0.1344 1.0498
C8 C 1.0975(2) 0.0304(3) 1.00139(18)
C9 C 0.5261(2) 0.1644(3) 0.50035(19)
H6 H 0.5433 0.1691 0.5403
C10 C 0.7982(2) 0.4160(3) 0.50513(19)
H7 H 0.8205 0.4117 0.5451
C11 C 1.0034(2) 0.1165(3) 0.99665(19)
H8 H 1.0231 0.1181 1.0368
C12 C 0.7433(2) 0.2628(3) 0.65142(19)
C13 C 0.7098(2) 0.2733(3) 0.58766(19)
C14 C 1.1789(2) 0.0443(3) 1.1813(2)
H9 H 1.1349 0.0618 1.1613
C15 C 1.1826(2) -0.0512(3) 1.00712(19)
C16 C 0.7055(2) 0.3276(3) 0.50523(19)
C17 C 1.3075(3) -0.0047(3) 1.2427(2)
H10 H 1.3516 -0.0213 1.2636
C18 C 1.0331(2) 0.0740(3) 0.96739(18)
C19 C 1.2156(2) -0.1011(3) 0.97799(19)
C20 C 0.8261(2) 0.4596(3) 0.4742(2)
H11 H 0.8682 0.4830 0.4945
C21 C 1.3081(2) -0.1794(3) 0.9796(2)
H12 H 1.3496 -0.2036 1.0005
C22 C 0.4666(2) 0.1246(3) 0.4696(2)
H13 H 0.4440 0.1031 0.4899
C23 C 0.4736(2) 0.1451(3) 0.3844(2)
H14 H 0.4563 0.1374 0.3447
C24 C 1.1803(2) -0.0019(3) 1.08827(19)
C25 C 1.0022(2) 0.0735(3) 0.90718(19)
H15 H 1.0206 0.0445 0.8862
C26 C 0.7038(2) 0.3902(3) 0.41542(19)
H16 H 0.6617 0.3677 0.3940
C27 C 0.8282(3) 0.2937(3) 0.7444(2)
H17 H 0.8673 0.3218 0.7670
C28 C 0.7357(2) 0.3786(3) 0.47464(19)
C29 C 0.7153(2) 0.2104(3) 0.6781(2)
H18 H 0.6772 0.1799 0.6563
C30 C 0.8022(2) 0.3028(3) 0.6852(2)
H19 H 0.8239 0.3351 0.6686
C31 C 1.2120(2) 0.0536(3) 1.2406(2)
H20 H 1.1892 0.0777 1.2599
C32 C 1.2124(2) 0.0084(3) 1.15210(19)
C33 C 0.9435(2) 0.1173(3) 0.8795(2)
H21 H 0.9237 0.1185 0.8394
C34 C 1.1861(2) -0.1091(3) 0.91845(19)
H22 H 1.1443 -0.0862 0.8965
C35 C 0.7454(3) 0.2048(3) 0.7376(2)
H23 H 0.7264 0.1700 0.7551
C36 C 1.2784(2) -0.0164(3) 1.1835(2)
H24 H 1.3024 -0.0402 1.1652
N1 N 0.43917(19) 0.1148(2) 0.41236(16)
N2 N 0.79571(18) 0.4697(2) 0.41672(16)
N3 N 0.8006(2) 0.2468(3) 0.77150(17)
N4 N 0.64780(18) 0.2894(2) 0.47277(16)
N5 N 0.73861(18) 0.3224(2) 0.56319(16)
N6 N 0.65314(18) 0.2315(2) 0.55956(15)
N7 N 0.91320(19) 0.1582(2) 0.90741(16)
N8 N 1.28011(19) -0.1866(2) 0.92153(17)
N9 N 1.2758(2) 0.0291(3) 1.27176(17)
N10 N 1.12652(18) -0.0110(2) 0.97330(15)
N11 N 1.21121(18) -0.0494(2) 1.06478(16)
N12 N 1.12245(18) 0.0375(2) 1.05879(16)
Ag1_2 Ag 1.343962(17) 0.04249(2) 1.367891(15)
Ag1B Ag 0.843962(17) 0.54249(2) 0.367891(15)
Ag2B Ag 1.322846(18) -0.25160(2) 0.867299(15)
N2B N 0.29571(18) -0.0303(2) 0.41672(16)
N8B N 0.78011(19) 0.3134(2) 0.92153(17)
N9_2 N 0.2758(2) 0.0291(3) 0.27176(17)
loop_
_geom_bond_atom_site_label_1
_geom_bond_atom_site_label_2
_geom_bond_site_symmetry_1
_geom_bond_site_symmetry_2
Mo1 O1 1_555 1_555
Mo2 O2 1_555 1_555
Mo3 O5 1_555 1_555
Mo4 O12 1_555 1_555
Mo5 O6 1_555 1_555
O2 Mo1 1_555 1_555
O3 Mo2 1_555 1_555
O4 Mo2 1_555 1_555
O5 Mo2 1_555 1_555
O6 Mo2 1_555 1_555
O7 Mo1 1_555 1_555
O8 Mo5 1_555 1_555
O9 Mo5 1_555 1_555
O10 Mo3 1_555 1_555
O11 Mo3 1_555 1_555
O12 Mo3 1_555 1_555
O13 Mo4 1_555 1_555
Ag1 N1 1_555 1_555
Ag2 N3 1_555 1_555
C1 C6 1_555 1_555
C2 H1 1_555 1_555
C3 H2 1_555 1_555
C4 H3 1_555 1_555
C5 H4 1_555 1_555
C6 C3 1_555 1_555
C7 H5 1_555 1_555
C8 C18 1_555 1_555
C9 C6 1_555 1_555
H6 C9 1_555 1_555
C10 H7 1_555 1_555
C11 C5 1_555 1_555
H8 C11 1_555 1_555
C12 C13 1_555 1_555
C13 N5 1_555 1_555
C14 H9 1_555 1_555
C15 C19 1_555 1_555
C16 C28 1_555 1_555
C17 H10 1_555 1_555
C18 C11 1_555 1_555
C19 C7 1_555 1_555
C20 C10 1_555 1_555
H11 C20 1_555 1_555
C21 C7 1_555 1_555
H12 C21 1_555 1_555
C22 C9 1_555 1_555
H13 C22 1_555 1_555
C23 C3 1_555 1_555
H14 C23 1_555 1_555
C24 C32 1_555 1_555
C25 C18 1_555 1_555
H15 C25 1_555 1_555
C26 C2 1_555 1_555
H16 C26 1_555 1_555
C27 H17 1_555 1_555
C28 C10 1_555 1_555
C29 C12 1_555 1_555
H18 C29 1_555 1_555
C30 C12 1_555 1_555
H19 C30 1_555 1_555
C31 C14 1_555 1_555
H20 C31 1_555 1_555
C32 C14 1_555 1_555
C33 C25 1_555 1_555
H21 C33 1_555 1_555
C34 C4 1_555 1_555
H22 C34 1_555 1_555
C35 C29 1_555 1_555
H23 C35 1_555 1_555
C36 C17 1_555 1_555
H24 C36 1_555 1_555
N1 C22 1_555 1_555
N2 C2 1_555 1_555
N3 C27 1_555 1_555
N4 C1 1_555 1_555
N5 C16 1_555 1_555
N6 C1 1_555 1_555
N7 Ag2 1_555 1_555
N8 C4 1_555 1_555
N9 C17 1_555 1_555
N10 C8 1_555 1_555
N11 C15 1_555 1_555
N12 C8 1_555 1_555
Mo2A O7 1_555 1_555
Mo3A O8 1_555 1_555
Mo5A O6A 1_555 1_555
O1A Mo1 1_555 1_555
O2A Mo1 1_555 1_555
O3A Mo2A 1_555 1_555
O4A Mo2A 1_555 1_555
O5A Mo2A 1_555 1_555
O6A Mo2A 1_555 1_555
O7A Mo1 1_555 1_555
O8A Mo3 1_555 1_555
O9A Mo5A 1_555 1_555
O10A Mo3A 1_555 1_555
O11A Mo3A 1_555 1_555
O12A Mo4 1_555 1_555
O13A Mo4 1_555 1_555
Ag1_2 N9 1_555 1_555
Ag1B N2 1_555 1_555
Ag2B N8 1_555 1_555
N2B Ag1 1_555 1_555
N8B Ag2 1_555 1_555
N9_2 Ag1 1_555 1_555
Mo2 O7A 1_555 1_555
Mo3 O6 1_555 1_555
Mo5 O7 1_555 1_555
C5 N7 1_555 1_555
C13 N6 1_555 1_555
C15 N10 1_555 1_555
C16 N4 1_555 1_555
C19 C34 1_555 1_555
C20 N2 1_555 1_555
C21 N8 1_555 1_555
C23 N1 1_555 1_555
C24 N11 1_555 1_555
C24 N12 1_555 1_555
C26 C28 1_555 1_555
C27 C30 1_555 1_555
C31 N9 1_555 1_555
C32 C36 1_555 1_555
C33 N7 1_555 1_555
C35 N3 1_555 1_555
Mo2A O2A 1_555 1_555
Mo3A O5A 1_555 1_555
Mo3A O6A 1_555 1_555
Mo3A O12A 1_555 1_555
Mo5A O7A 1_555 1_555
Mo5A O8A 1_555 1_555

#END
