
#######################################################################
#
#                 Cambridge Crystallographic Data Centre
#                                CCDC 
#
#######################################################################
#
# If this CIF has been generated from an entry in the Cambridge 
# Structural Database, then it will include bibliographic, chemical, 
# crystal, experimental, refinement or atomic coordinate data resulting 
# from the CCDC's data processing and validation procedures.
#
#######################################################################

data_QOFCIZ
_chemical_formula_moiety         '(C36 H28 Ag2 Mo8 N12 O28 2-)n'
_symmetry_cell_setting           monoclinic
_symmetry_space_group_name_H-M   'C 2/c'
_symmetry_Int_Tables_number      15
_space_group_name_Hall           '-C 2yc'
loop_
_symmetry_equiv_pos_site_id
_symmetry_equiv_pos_as_xyz
1 x,y,z
2 -x,y,1/2-z
3 1/2+x,1/2+y,z
4 1/2-x,1/2+y,1/2-z
5 -x,-y,-z
6 x,-y,1/2+z
7 1/2-x,1/2-y,-z
8 1/2+x,1/2-y,1/2+z
_cell_length_a                   22.0248(6)
_cell_length_b                   16.4933(6)
_cell_length_c                   25.6766(8)
_cell_angle_alpha                90
_cell_angle_beta                 115.385(4)
_cell_angle_gamma                90
_cell_volume                     8426.75
loop_
_atom_site_label
_atom_site_type_symbol
_atom_site_fract_x
_atom_site_fract_y
_atom_site_fract_z
Ag1 Ag 0.273961(15) 0.70871(2) -0.131752(14)
Ag2 Ag 0.794718(16) 1.00057(2) 0.367701(14)
C1 C 0.62799(19) 1.0622(2) -0.08869(18)
H1 H 0.5853 1.0408 -0.1100
C2 C 0.42269(19) 1.4000(2) 0.39269(18)
H2 H 0.4030 1.4043 0.3527
C3 C 0.65417(18) 1.2191(2) 0.50159(17)
C4 C 0.62828(17) 1.0072(2) 0.00273(17)
C5 C 0.48185(18) 1.3869(2) 0.50967(18)
H3 H 0.5011 1.3839 0.5497
C6 C 0.40318(18) 0.8164(2) -0.11073(18)
H4 H 0.3851 0.8105 -0.1506
C7 C 0.74352(18) 1.1332(2) 0.49657(17)
H5 H 0.7641 1.1327 0.5367
C8 C 0.57522(18) 1.3010(2) 0.50741(17)
C9 C 0.72338(18) 1.0867(3) 0.00010(18)
H6 H 0.7459 1.0825 0.0400
C10 C 0.77208(19) 1.0923(2) 0.46552(18)
H7 H 0.8123 1.0648 0.4857
C11 C 0.62797(18) 0.9767(2) 0.08817(17)
C12 C 0.66035(18) 1.0524(2) -0.02940(17)
C13 C 0.46102(18) 0.8612(2) -0.08406(17)
H8 H 0.4813 0.8842 -0.1057
C14 C 0.7520(2) 1.1269(3) -0.03051(19)
H9 H 0.7944 1.1494 -0.0103
C15 C 0.68396(17) 1.1750(2) 0.46714(16)
C16 C 0.65826(18) 0.9866(2) 0.15177(17)
C17 C 0.45707(18) 0.8341(2) 0.00551(17)
H10 H 0.4746 0.8381 0.0454
C18 C 0.7798(2) 1.1986(3) 0.74071(19)
H11 H 0.8219 1.1746 0.7598
C19 C 0.7123(2) 1.0384(3) 0.17844(18)
H12 H 0.7285 1.0689 0.1567
C20 C 0.48227(18) 1.3578(2) 0.41911(17)
H13 H 0.5020 1.3348 0.3970
C21 C 0.69074(19) 1.2427(3) 0.65224(17)
C22 C 0.66105(19) 1.1047(3) -0.11525(18)
H14 H 0.6389 1.1121 -0.1549
C23 C 0.54988(18) 0.9227(2) 0.00579(17)
C24 C 0.7534(2) 1.2074(3) 0.68172(18)
H15 H 0.7775 1.1898 0.6617
C25 C 0.6566(2) 1.2681(3) 0.68412(19)
H16 H 0.6144 1.2921 0.6661
C26 C 0.6868(2) 1.2571(3) 0.74319(19)
H17 H 0.6637 1.2742 0.7641
C27 C 0.7417(2) 1.0439(3) 0.23765(19)
H18 H 0.7775 1.0795 0.2551
C28 C 0.39890(19) 0.7906(2) -0.02508(18)
H19 H 0.3776 0.7666 -0.0046
C29 C 0.51252(18) 1.3499(2) 0.47817(17)
C30 C 0.65874(18) 1.2524(2) 0.58861(17)
C31 C 0.6556(2) 1.1746(3) 0.40785(18)
H20 H 0.6162 1.2031 0.3868
C32 C 0.6335(2) 0.9445(3) 0.18542(18)
H21 H 0.5957 0.9117 0.1688
C33 C 0.4221(2) 1.4283(3) 0.47993(19)
H22 H 0.4019 1.4528 0.5011
C34 C 0.48923(17) 0.8720(2) -0.02469(17)
C35 C 0.6672(2) 0.9533(3) 0.2444(2)
H23 H 0.6511 0.9242 0.2669
C36 C 0.6867(2) 1.1311(3) 0.38010(18)
H24 H 0.6665 1.1299 0.3400
N1 N 0.37125(15) 0.78079(19) -0.08238(14)
N2 N 0.72237(16) 1.1356(2) -0.08782(15)
N3 N 0.72120(17) 1.0002(2) 0.27180(15)
N4 N 0.57468(15) 0.9610(2) -0.02700(14)
N5 N 0.65627(15) 1.0185(2) 0.05984(14)
N6 N 0.57488(15) 0.9275(2) 0.06315(14)
N7 N 0.74471(16) 1.0902(2) 0.40804(15)
N8 N 0.74701(17) 1.2233(2) 0.77197(15)
N9 N 0.39173(15) 1.4352(2) 0.42212(15)
N10 N 0.59751(15) 1.2602(2) 0.47349(14)
N11 N 0.68699(15) 1.21260(19) 0.55933(14)
N12 N 0.60405(16) 1.2993(2) 0.56481(14)
Ag1B Ag 0.773961(15) 1.20871(2) -0.131752(14)
Ag1B_2 Ag 0.773961(15) 1.20871(2) 0.868248(14)
Ag2B Ag 0.294718(16) 1.50057(2) 0.367701(14)
N2B N 0.22237(16) 0.6356(2) -0.08782(15)
N8B N 0.24701(17) 0.7233(2) -0.22803(15)
N9B N 0.89173(15) 0.9352(2) 0.42212(15)
Mo1 Mo 0.0000 0.71338(4) -0.2500
Mo2 Mo 0.112037(16) 0.83872(2) -0.139639(15)
Mo3 Mo 0.117262(16) 1.04102(2) -0.143662(15)
Mo4 Mo 0.0000 1.15149(4) -0.2500
Mo5 Mo 0.050635(16) 0.94357(2) -0.291292(15)
O1 O -0.01738(19) 0.6515(3) -0.2053(2)
O2 O 0.07886(14) 0.76483(18) -0.20661(13)
O3 O 0.11004(15) 0.7763(2) -0.08785(14)
O4 O 0.19354(14) 0.83352(19) -0.13027(14)
O5 O 0.10965(13) 0.94039(17) -0.10726(12)
O6 O 0.08928(16) 0.93571(18) -0.21440(13)
O7 O 0.10955(15) 0.94995(18) -0.31722(15)
O8 O 0.00306(14) 0.85547(19) -0.32157(14)
O9 O 0.20021(14) 1.0374(2) -0.12912(14)
O10 O 0.11462(14) 1.10640(19) -0.09421(13)
O11 O 0.08774(14) 1.10801(18) -0.21214(13)
O12 O -0.00101(13) 1.03250(18) -0.31390(13)
O13 O -0.00761(17) 1.2136(2) -0.20059(15)
Mo2A Mo -0.112037(16) 0.83872(2) -0.360361(15)
Mo3A Mo -0.117262(16) 1.04102(2) -0.356338(15)
Mo5A Mo -0.050635(16) 0.94357(2) -0.208708(15)
O1A O 0.01738(19) 0.6515(3) -0.2947(2)
O2A O -0.07886(14) 0.76483(18) -0.29339(13)
O3A O -0.11004(15) 0.7763(2) -0.41215(14)
O4A O -0.19354(14) 0.83352(19) -0.36973(14)
O5A O -0.10965(13) 0.94039(17) -0.39274(12)
O6A O -0.08928(16) 0.93571(18) -0.28560(13)
O7A O -0.10955(15) 0.94995(18) -0.18278(15)
O8A O -0.00306(14) 0.85547(19) -0.17843(14)
O9A O -0.20021(14) 1.0374(2) -0.37088(14)
O10A O -0.11462(14) 1.10640(19) -0.40579(13)
O11A O -0.08774(14) 1.10801(18) -0.28786(13)
O12A O 0.00101(13) 1.03250(18) -0.18610(13)
O13A O 0.00761(17) 1.2136(2) -0.29941(15)
O14 O -0.0808(5) 1.3629(6) -0.2326(4)
H25 H -0.0523 1.4004 -0.2272
H26 H -0.0600 1.3180 -0.2234
O15 O 0.0114(13) 1.4836(14) -0.2230(9)
H27 H -0.0015 1.5315 -0.2207
H28 H -0.0208 1.4511 -0.2287
loop_
_geom_bond_atom_site_label_1
_geom_bond_atom_site_label_2
_geom_bond_site_symmetry_1
_geom_bond_site_symmetry_2
Ag1 N1 1_555 1_555
Ag2 N3 1_555 1_555
C1 H1 1_555 1_555
C2 H2 1_555 1_555
C3 C15 1_555 1_555
C4 C12 1_555 1_555
C5 H3 1_555 1_555
C6 H4 1_555 1_555
C7 H5 1_555 1_555
C8 C29 1_555 1_555
C9 H6 1_555 1_555
C10 C7 1_555 1_555
H7 C10 1_555 1_555
C11 C16 1_555 1_555
C12 C1 1_555 1_555
C13 C6 1_555 1_555
H8 C13 1_555 1_555
C14 C9 1_555 1_555
H9 C14 1_555 1_555
C15 C7 1_555 1_555
C16 C19 1_555 1_555
C17 H10 1_555 1_555
C18 H11 1_555 1_555
C19 H12 1_555 1_555
C20 C2 1_555 1_555
H13 C20 1_555 1_555
C21 C24 1_555 1_555
C22 C1 1_555 1_555
H14 C22 1_555 1_555
C23 C34 1_555 1_555
C24 C18 1_555 1_555
H15 C24 1_555 1_555
C25 C21 1_555 1_555
H16 C25 1_555 1_555
C26 C25 1_555 1_555
H17 C26 1_555 1_555
C27 C19 1_555 1_555
H18 C27 1_555 1_555
C28 C17 1_555 1_555
H19 C28 1_555 1_555
C29 C5 1_555 1_555
C30 C21 1_555 1_555
C31 C15 1_555 1_555
H20 C31 1_555 1_555
C32 C16 1_555 1_555
H21 C32 1_555 1_555
C33 C5 1_555 1_555
H22 C33 1_555 1_555
C34 C13 1_555 1_555
C35 C32 1_555 1_555
H23 C35 1_555 1_555
C36 C31 1_555 1_555
H24 C36 1_555 1_555
N1 C6 1_555 1_555
N2 C14 1_555 1_555
N3 C27 1_555 1_555
N4 C4 1_555 1_555
N5 C4 1_555 1_555
N6 C11 1_555 1_555
N7 Ag2 1_555 1_555
N8 C18 1_555 1_555
N9 C2 1_555 1_555
N10 C3 1_555 1_555
N11 C3 1_555 1_555
N12 C8 1_555 1_555
Mo1 O1 1_555 1_555
Mo2 O2 1_555 1_555
Mo3 O5 1_555 1_555
Mo4 O11 1_555 1_555
Mo5 O6 1_555 1_555
O2 Mo1 1_555 1_555
O3 Mo2 1_555 1_555
O4 Mo2 1_555 1_555
O5 Mo2 1_555 1_555
O6 Mo2 1_555 1_555
O7 Mo5 1_555 1_555
O8 Mo5 1_555 1_555
O9 Mo3 1_555 1_555
O10 Mo3 1_555 1_555
O11 Mo3 1_555 1_555
O12 Mo4 1_555 1_555
O13 Mo4 1_555 1_555
O14 H25 1_555 1_555
H26 O14 1_555 1_555
O15 H27 1_555 1_555
H28 O15 1_555 1_555
Ag1B N2 1_555 1_555
Ag1B_2 N8 1_555 1_555
Ag2B N9 1_555 1_555
N2B Ag1 1_555 1_555
N8B Ag1 1_555 1_555
N9B Ag2 1_555 1_555
Mo2A O8 1_555 1_555
Mo3A O12 1_555 1_555
Mo5A O6A 1_555 1_555
O1A Mo1 1_555 1_555
O2A Mo1 1_555 1_555
O3A Mo2A 1_555 1_555
O4A Mo2A 1_555 1_555
O5A Mo2A 1_555 1_555
O6A Mo2A 1_555 1_555
O7A Mo5A 1_555 1_555
O8A Mo2 1_555 1_555
O9A Mo3A 1_555 1_555
O10A Mo3A 1_555 1_555
O11A Mo4 1_555 1_555
O12A Mo3 1_555 1_555
O13A Mo4 1_555 1_555
C8 N10 1_555 1_555
C9 C12 1_555 1_555
C10 N7 1_555 1_555
C11 N5 1_555 1_555
C17 C34 1_555 1_555
C20 C29 1_555 1_555
C22 N2 1_555 1_555
C23 N4 1_555 1_555
C23 N6 1_555 1_555
C26 N8 1_555 1_555
C28 N1 1_555 1_555
C30 N11 1_555 1_555
C30 N12 1_555 1_555
C33 N9 1_555 1_555
C35 N3 1_555 1_555
C36 N7 1_555 1_555
Mo3 O6 1_555 1_555
Mo4 O12A 1_555 1_555
Mo5 O12 1_555 1_555
Mo2A O2A 1_555 1_555
Mo3A O5A 1_555 1_555
Mo3A O6A 1_555 1_555
Mo3A O11A 1_555 1_555
Mo5A O8A 1_555 1_555
Mo5A O12A 1_555 1_555

#END
