
#######################################################################
#
#                 Cambridge Crystallographic Data Centre
#                                CCDC 
#
#######################################################################
#
# If this CIF has been generated from an entry in the Cambridge 
# Structural Database, then it will include bibliographic, chemical, 
# crystal, experimental, refinement or atomic coordinate data resulting 
# from the CCDC's data processing and validation procedures.
#
#######################################################################

data_QOFCEV
_chemical_formula_moiety         '(C36 H28 Ag2 Mo8 N12 O28 2-)n'
_symmetry_cell_setting           monoclinic
_symmetry_space_group_name_H-M   'C 2/c'
_symmetry_Int_Tables_number      15
_space_group_name_Hall           '-C 2yc'
loop_
_symmetry_equiv_pos_site_id
_symmetry_equiv_pos_as_xyz
1 x,y,z
2 -x,y,1/2-z
3 1/2+x,1/2+y,z
4 1/2-x,1/2+y,1/2-z
5 -x,-y,-z
6 x,-y,1/2+z
7 1/2-x,1/2-y,-z
8 1/2+x,1/2-y,1/2+z
_cell_length_a                   22.0366(6)
_cell_length_b                   16.4532(6)
_cell_length_c                   25.6805(8)
_cell_angle_alpha                90
_cell_angle_beta                 115.397(4)
_cell_angle_gamma                90
_cell_volume                     8411.2
loop_
_atom_site_label
_atom_site_type_symbol
_atom_site_fract_x
_atom_site_fract_y
_atom_site_fract_z
Ag1 Ag 0.274042(14) 0.70856(2) -0.131802(13)
Ag2 Ag 0.794645(15) 1.00021(2) 0.367683(13)
C1 C 0.62836(18) 1.0621(2) -0.08821(17)
H1 H 0.5858 1.0404 -0.1094
C2 C 0.42295(17) 1.4000(2) 0.39285(17)
H2 H 0.4033 1.4043 0.3529
C3 C 0.62842(16) 1.0075(2) 0.00282(16)
C4 C 0.65412(17) 1.2190(2) 0.50174(16)
C5 C 0.48163(18) 1.3869(2) 0.50950(17)
H3 H 0.5006 1.3836 0.5495
C6 C 0.40311(18) 0.8166(2) -0.11112(17)
H4 H 0.3850 0.8108 -0.1510
C7 C 0.74388(17) 1.1331(2) 0.49673(16)
H5 H 0.7647 1.1328 0.5368
C8 C 0.72318(17) 1.0864(2) 0.00014(17)
H6 H 0.7455 1.0821 0.0400
C9 C 0.57523(17) 1.3009(2) 0.50731(16)
C10 C 0.66041(17) 1.0525(2) -0.02928(16)
C11 C 0.62810(17) 0.9764(2) 0.08825(16)
C12 C 0.77212(18) 1.0925(2) 0.46566(17)
H7 H 0.8125 1.0652 0.4858
C13 C 0.46113(17) 0.8609(2) -0.08415(16)
H8 H 0.4818 0.8835 -0.1056
C14 C 0.7800(2) 1.1983(3) 0.74082(18)
H9 H 0.8221 1.1746 0.7599
C15 C 0.65853(17) 0.9869(2) 0.15185(16)
C16 C 0.69090(18) 1.2427(2) 0.65244(17)
C17 C 0.75254(19) 1.1271(3) -0.03035(17)
H10 H 0.7951 1.1494 -0.0101
C18 C 0.55014(17) 0.9226(2) 0.00605(16)
C19 C 0.66106(18) 1.1051(2) -0.11533(17)
H11 H 0.6387 1.1127 -0.1550
C20 C 0.71218(19) 1.0386(3) 0.17865(17)
H12 H 0.7280 1.0698 0.1569
C21 C 0.48236(17) 1.3580(2) 0.41910(17)
H13 H 0.5021 1.3351 0.3970
C22 C 0.68425(17) 1.1744(2) 0.46749(16)
C23 C 0.45688(17) 0.8341(2) 0.00548(16)
H14 H 0.4744 0.8379 0.0454
C24 C 0.75343(19) 1.2073(3) 0.68173(17)
H15 H 0.7775 1.1896 0.6617
C25 C 0.6869(2) 1.2569(3) 0.74328(18)
H16 H 0.6639 1.2742 0.7643
C26 C 0.6563(2) 1.2683(2) 0.68386(18)
H17 H 0.6141 1.2923 0.6657
C27 C 0.51278(17) 1.3500(2) 0.47833(16)
C28 C 0.65893(17) 1.2525(2) 0.58855(16)
C29 C 0.7421(2) 1.0438(3) 0.23781(18)
H18 H 0.7783 1.0789 0.2553
C30 C 0.39894(18) 0.7909(2) -0.02520(17)
H19 H 0.3776 0.7669 -0.0048
C31 C 0.65563(19) 1.1747(2) 0.40809(17)
H20 H 0.6163 1.2036 0.3873
C32 C 0.63376(19) 0.9449(3) 0.18561(17)
H21 H 0.5957 0.9123 0.1689
C33 C 0.6674(2) 0.9531(3) 0.24475(19)
H22 H 0.6514 0.9239 0.2673
C34 C 0.42193(19) 1.4286(2) 0.47980(18)
H23 H 0.4017 1.4532 0.5009
C35 C 0.48905(17) 0.8722(2) -0.02467(16)
C36 C 0.68672(19) 1.1312(3) 0.38001(18)
H24 H 0.6665 1.1303 0.3399
N1 N 0.37117(14) 0.78101(18) -0.08254(14)
N2 N 0.72246(15) 1.1359(2) -0.08781(14)
N3 N 0.72127(16) 1.0001(2) 0.27168(14)
N4 N 0.57480(14) 0.96111(19) -0.02693(13)
N5 N 0.65627(14) 1.01856(19) 0.05975(13)
N6 N 0.57485(14) 0.92718(19) 0.06336(13)
N7 N 0.74459(15) 1.0901(2) 0.40779(14)
N8 N 0.39180(14) 1.43528(19) 0.42208(14)
N9 N 0.74691(16) 1.2228(2) 0.77201(14)
N10 N 0.59747(14) 1.26002(18) 0.47353(13)
N11 N 0.60422(15) 1.29900(19) 0.56492(14)
N12 N 0.68724(15) 1.21254(19) 0.55933(13)
Ag1B Ag 0.774042(14) 1.20856(2) -0.131802(13)
Ag1B_2 Ag 0.774042(14) 1.20856(2) 0.868198(13)
Ag2B Ag 0.294645(15) 1.50021(2) 0.367683(13)
N2B N 0.22246(15) 0.6359(2) -0.08781(14)
N8B N 0.89180(14) 0.93528(19) 0.42208(14)
N9B N 0.24691(16) 0.7228(2) -0.22799(14)
Mo1 Mo 0.0000 0.71282(4) -0.2500
Mo2 Mo 0.112056(15) 0.83834(2) -0.139657(14)
Mo3 Mo 0.117388(15) 1.04114(2) -0.143702(14)
Mo4 Mo 0.0000 1.15132(3) -0.2500
Mo5 Mo 0.050519(15) 0.94350(2) -0.291303(14)
O1 O -0.01704(18) 0.6507(3) -0.2051(2)
O2 O 0.07901(13) 0.76471(17) -0.20686(12)
O3 O 0.19359(13) 0.83319(18) -0.13022(13)
O4 O 0.11000(14) 0.77527(18) -0.08794(13)
O5 O 0.00277(13) 0.85493(18) -0.32141(13)
O6 O 0.10967(14) 0.94996(18) -0.31720(14)
O7 O 0.08966(15) 0.93580(17) -0.21427(12)
O8 O 0.10938(12) 0.94020(16) -0.10743(11)
O9 O 0.11447(13) 1.10670(18) -0.09430(13)
O10 O 0.20024(13) 1.03745(18) -0.12898(13)
O11 O -0.00128(12) 1.03253(17) -0.31366(12)
O12 O 0.08790(13) 1.10827(17) -0.21220(12)
O13 O -0.00730(16) 1.2140(2) -0.20032(14)
Mo2A Mo -0.112056(15) 0.83834(2) -0.360343(14)
Mo3A Mo -0.117388(15) 1.04114(2) -0.356298(14)
Mo5A Mo -0.050519(15) 0.94350(2) -0.208697(14)
O1A O 0.01704(18) 0.6507(3) -0.2949(2)
O2A O -0.07901(13) 0.76471(17) -0.29314(12)
O3A O -0.19359(13) 0.83319(18) -0.36978(13)
O4A O -0.11000(14) 0.77527(18) -0.41206(13)
O5A O -0.00277(13) 0.85493(18) -0.17859(13)
O6A O -0.10967(14) 0.94996(18) -0.18280(14)
O7A O -0.08966(15) 0.93580(17) -0.28573(12)
O8A O -0.10938(12) 0.94020(16) -0.39257(11)
O9A O -0.11447(13) 1.10670(18) -0.40570(13)
O10A O -0.20024(13) 1.03745(18) -0.37102(13)
O11A O 0.00128(12) 1.03253(17) -0.18634(12)
O12A O -0.08790(13) 1.10827(17) -0.28780(12)
O13A O 0.00730(16) 1.2140(2) -0.29968(14)
O14 O -0.0807(5) 1.3633(6) -0.2324(4)
H25 H -0.0583 1.3193 -0.2232
H26 H -0.0605 1.3965 -0.2448
O15 O 0.0131(12) 1.4818(11) -0.2234(9)
H27 H 0.0019 1.5290 -0.2174
H28 H -0.0172 1.4484 -0.2252
loop_
_geom_bond_atom_site_label_1
_geom_bond_atom_site_label_2
_geom_bond_site_symmetry_1
_geom_bond_site_symmetry_2
Ag1 N1 1_555 1_555
Ag2 N3 1_555 1_555
C1 H1 1_555 1_555
C2 H2 1_555 1_555
C3 C10 1_555 1_555
C4 C22 1_555 1_555
C5 H3 1_555 1_555
C6 H4 1_555 1_555
C7 H5 1_555 1_555
C8 H6 1_555 1_555
C9 C27 1_555 1_555
C10 C1 1_555 1_555
C11 C15 1_555 1_555
C12 C7 1_555 1_555
H7 C12 1_555 1_555
C13 C6 1_555 1_555
H8 C13 1_555 1_555
C14 H9 1_555 1_555
C15 C20 1_555 1_555
C16 C24 1_555 1_555
C17 C8 1_555 1_555
H10 C17 1_555 1_555
C18 C35 1_555 1_555
C19 C1 1_555 1_555
H11 C19 1_555 1_555
C20 H12 1_555 1_555
C21 C2 1_555 1_555
H13 C21 1_555 1_555
C22 C7 1_555 1_555
C23 H14 1_555 1_555
C24 C14 1_555 1_555
H15 C24 1_555 1_555
C25 H16 1_555 1_555
C26 C16 1_555 1_555
H17 C26 1_555 1_555
C27 C5 1_555 1_555
C28 C16 1_555 1_555
C29 C20 1_555 1_555
H18 C29 1_555 1_555
C30 C23 1_555 1_555
H19 C30 1_555 1_555
C31 C22 1_555 1_555
H20 C31 1_555 1_555
C32 C15 1_555 1_555
H21 C32 1_555 1_555
C33 C32 1_555 1_555
H22 C33 1_555 1_555
C34 C5 1_555 1_555
H23 C34 1_555 1_555
C35 C13 1_555 1_555
C36 C31 1_555 1_555
H24 C36 1_555 1_555
N1 C6 1_555 1_555
N2 C17 1_555 1_555
N3 C29 1_555 1_555
N4 C3 1_555 1_555
N5 C3 1_555 1_555
N6 C11 1_555 1_555
N7 Ag2 1_555 1_555
N8 C2 1_555 1_555
N9 C14 1_555 1_555
N10 C4 1_555 1_555
N11 C9 1_555 1_555
N12 C4 1_555 1_555
Mo1 O1 1_555 1_555
Mo2 O2 1_555 1_555
Mo3 O7 1_555 1_555
Mo4 O11 1_555 1_555
Mo5 O5 1_555 1_555
O2 Mo1 1_555 1_555
O3 Mo2 1_555 1_555
O4 Mo2 1_555 1_555
O5 Mo2A 1_555 1_555
O6 Mo5 1_555 1_555
O7 Mo2 1_555 1_555
O8 Mo2 1_555 1_555
O9 Mo3 1_555 1_555
O10 Mo3 1_555 1_555
O11 Mo5 1_555 1_555
O12 Mo3 1_555 1_555
O13 Mo4 1_555 1_555
O14 H25 1_555 1_555
H26 O14 1_555 1_555
O15 H27 1_555 1_555
H28 O15 1_555 1_555
Ag1B N2 1_555 1_555
Ag1B_2 N9 1_555 1_555
Ag2B N8 1_555 1_555
N2B Ag1 1_555 1_555
N8B Ag2 1_555 1_555
N9B Ag1 1_555 1_555
Mo2A O2A 1_555 1_555
Mo3A O11 1_555 1_555
Mo5A O5A 1_555 1_555
O1A Mo1 1_555 1_555
O2A Mo1 1_555 1_555
O3A Mo2A 1_555 1_555
O4A Mo2A 1_555 1_555
O5A Mo2 1_555 1_555
O6A Mo5A 1_555 1_555
O7A Mo2A 1_555 1_555
O8A Mo2A 1_555 1_555
O9A Mo3A 1_555 1_555
O10A Mo3A 1_555 1_555
O11A Mo3 1_555 1_555
O12A Mo4 1_555 1_555
O13A Mo4 1_555 1_555
C8 C10 1_555 1_555
C9 N10 1_555 1_555
C11 N5 1_555 1_555
C12 N7 1_555 1_555
C18 N4 1_555 1_555
C18 N6 1_555 1_555
C19 N2 1_555 1_555
C21 C27 1_555 1_555
C23 C35 1_555 1_555
C25 C26 1_555 1_555
C25 N9 1_555 1_555
C28 N11 1_555 1_555
C28 N12 1_555 1_555
C30 N1 1_555 1_555
C33 N3 1_555 1_555
C34 N8 1_555 1_555
C36 N7 1_555 1_555
Mo3 O8 1_555 1_555
Mo4 O12 1_555 1_555
Mo4 O11A 1_555 1_555
Mo5 O7 1_555 1_555
Mo3A O7A 1_555 1_555
Mo3A O8A 1_555 1_555
Mo3A O12A 1_555 1_555
Mo5A O7A 1_555 1_555
Mo5A O11A 1_555 1_555

#END
