
#######################################################################
#
#                 Cambridge Crystallographic Data Centre
#                                CCDC 
#
#######################################################################
#
# If this CIF has been generated from an entry in the Cambridge 
# Structural Database, then it will include bibliographic, chemical, 
# crystal, experimental, refinement or atomic coordinate data resulting 
# from the CCDC's data processing and validation procedures.
#
#######################################################################

data_QOFDEW
_chemical_formula_moiety         '(C36 H30 Ag2 Mo8 N12 O29 2-)n'
_symmetry_cell_setting           monoclinic
_symmetry_space_group_name_H-M   'C 2/c'
_symmetry_Int_Tables_number      15
_space_group_name_Hall           '-C 2yc'
loop_
_symmetry_equiv_pos_site_id
_symmetry_equiv_pos_as_xyz
1 x,y,z
2 -x,y,1/2-z
3 1/2+x,1/2+y,z
4 1/2-x,1/2+y,1/2-z
5 -x,-y,-z
6 x,-y,1/2+z
7 1/2-x,1/2-y,-z
8 1/2+x,1/2-y,1/2+z
_cell_length_a                   21.9777(6)
_cell_length_b                   16.6111(6)
_cell_length_c                   25.6344(9)
_cell_angle_alpha                90
_cell_angle_beta                 115.351(5)
_cell_angle_gamma                90
_cell_volume                     8457.25
loop_
_atom_site_label
_atom_site_type_symbol
_atom_site_fract_x
_atom_site_fract_y
_atom_site_fract_z
Ag1 Ag -0.22614(2) 0.20904(3) -0.631791(18)
Ag2 Ag 0.29517(2) 0.50170(3) -0.132346(18)
C1 C 0.1534(2) 0.7199(3) 0.0011(2)
C2 C -0.0770(2) 0.9002(3) -0.1075(2)
H1 H -0.0967 0.9050 -0.1475
C3 C 0.1281(2) 0.5071(3) -0.4976(2)
C4 C 0.1279(2) 0.5617(3) -0.5889(2)
H2 H 0.0854 0.5397 -0.6101
C5 C -0.0969(2) 0.3169(3) -0.6109(2)
H3 H -0.1153 0.3111 -0.6509
C6 C 0.0753(2) 0.8014(3) 0.0070(2)
C7 C -0.0177(2) 0.8875(3) 0.0095(2)
H4 H 0.0016 0.8848 0.0495
C8 C 0.1598(2) 0.5527(3) -0.5298(2)
C9 C 0.2431(2) 0.6337(3) -0.0037(2)
H5 H 0.2637 0.6332 0.0365
C10 C 0.2229(2) 0.5861(3) -0.5007(2)
H6 H 0.2457 0.5813 -0.4608
C11 C 0.1581(2) 0.4857(3) -0.3486(2)
C12 C 0.1276(2) 0.4760(3) -0.4122(2)
C13 C 0.2716(2) 0.5928(3) -0.0347(2)
H7 H 0.3118 0.5654 -0.0144
C14 C -0.0391(2) 0.3613(3) -0.5845(2)
H8 H -0.0188 0.3839 -0.6062
C15 C 0.1838(2) 0.6755(3) -0.03319(19)
C16 C 0.1904(2) 0.7426(3) 0.1520(2)
C17 C -0.0428(2) 0.3341(3) -0.4946(2)
H9 H -0.0250 0.3375 -0.4546
C18 C 0.2527(3) 0.7074(4) 0.1810(2)
H10 H 0.2767 0.6897 0.1608
C19 C 0.2514(3) 0.6266(4) -0.5312(2)
H11 H 0.2937 0.6493 -0.5109
C20 C 0.0501(2) 0.4229(3) -0.4946(2)
C21 C -0.0176(2) 0.8577(3) -0.0814(2)
H12 H 0.0019 0.8344 -0.1036
C22 C 0.1584(2) 0.7522(3) 0.0880(2)
C23 C 0.2795(3) 0.6985(4) 0.2404(2)
H13 H 0.3215 0.6744 0.2595
C24 C 0.1867(3) 0.7575(4) 0.2428(2)
H14 H 0.1638 0.7754 0.2638
C25 C 0.1563(3) 0.7675(3) 0.1837(2)
H15 H 0.1138 0.7907 0.1655
C26 C 0.1605(3) 0.6043(3) -0.6160(2)
H16 H 0.1383 0.6117 -0.6557
C27 C 0.2118(3) 0.5373(3) -0.3220(2)
H17 H 0.2278 0.5677 -0.3439
C28 C -0.1010(2) 0.2910(3) -0.5254(2)
H18 H -0.1224 0.2673 -0.5049
C29 C 0.2413(3) 0.5434(4) -0.2628(2)
H19 H 0.2772 0.5788 -0.2455
C30 C 0.0127(2) 0.8500(3) -0.0221(2)
C31 C -0.0110(2) 0.3724(3) -0.5249(2)
C32 C 0.1554(2) 0.6749(3) -0.0926(2)
H20 H 0.1161 0.7035 -0.1138
C33 C -0.0778(3) 0.9291(3) -0.0206(2)
H21 H -0.0979 0.9541 0.0005
C34 C 0.1337(3) 0.4452(3) -0.3147(2)
H22 H 0.0956 0.4130 -0.3313
C35 C 0.1672(3) 0.4536(4) -0.2557(2)
H23 H 0.1511 0.4246 -0.2332
C36 C 0.1863(3) 0.6310(3) -0.1202(2)
H24 H 0.1657 0.6293 -0.1603
N1 N -0.12838(19) 0.2813(2) -0.58232(18)
N2 N 0.2220(2) 0.6351(2) -0.58817(18)
N3 N 0.2208(2) 0.5003(3) -0.22868(19)
N4 N 0.07450(19) 0.4607(2) -0.52713(17)
N5 N 0.15623(19) 0.5175(2) -0.44071(17)
N6 N 0.07486(19) 0.4271(2) -0.43713(17)
N7 N 0.2442(2) 0.5905(3) -0.09255(18)
N8 N 0.2468(2) 0.7234(3) 0.27139(19)
N9 N -0.1078(2) 0.9350(2) -0.07791(18)
N10 N 0.09769(18) 0.7607(2) -0.02689(17)
N11 N 0.18629(19) 0.7126(2) 0.05876(17)
N12 N 0.1039(2) 0.7989(3) 0.06457(18)
Ag1B Ag 0.27386(2) 0.70904(3) -0.631791(18)
Ag1B_2 Ag 0.27386(2) 0.70904(3) 0.368209(18)
Ag2B Ag -0.20483(2) 1.00170(3) -0.132346(18)
N2B N -0.2780(2) 0.1351(2) -0.58817(18)
N8B N -0.2532(2) 0.2234(3) -0.72861(19)
N9B N 0.3922(2) 0.4350(2) -0.07791(18)
Mo1 Mo -0.5000 0.21525(5) -0.7500
Mo2 Mo -0.38803(2) 0.33959(3) -0.639537(18)
Mo3 Mo -0.38326(2) 0.54054(3) -0.643367(18)
Mo4 Mo -0.5000 0.65197(5) -0.7500
Mo5 Mo -0.44883(2) 0.44352(2) -0.791075(18)
O1 O -0.5188(3) 0.1538(4) -0.7057(4)
O2 O -0.42162(19) 0.2660(2) -0.70638(17)
O3 O -0.30687(19) 0.3333(3) -0.63044(18)
O4 O -0.3901(2) 0.2778(3) -0.58741(19)
O5 O -0.39013(18) 0.4403(2) -0.60722(16)
O6 O -0.4112(2) 0.4361(2) -0.71476(17)
O7 O -0.49670(19) 0.3560(2) -0.82210(19)
O8 O -0.3903(2) 0.4492(2) -0.8175(2)
O9 O -0.3002(2) 0.5377(3) -0.6292(2)
O10 O -0.38554(19) 0.6045(3) -0.59358(19)
O11 O -0.41298(18) 0.6074(2) -0.71181(17)
O12 O -0.50085(17) 0.5318(2) -0.81476(18)
O13 O -0.5086(2) 0.7128(3) -0.7010(2)
Mo2A Mo -0.61197(2) 0.33959(3) -0.860463(18)
Mo3A Mo -0.61674(2) 0.54054(3) -0.856633(18)
Mo5A Mo -0.55117(2) 0.44352(2) -0.708925(18)
O1A O -0.4812(3) 0.1538(4) -0.7943(4)
O2A O -0.57838(19) 0.2660(2) -0.79362(17)
O3A O -0.69313(19) 0.3333(3) -0.86956(18)
O4A O -0.6099(2) 0.2778(3) -0.91259(19)
O5A O -0.60987(18) 0.4403(2) -0.89278(16)
O6A O -0.5888(2) 0.4361(2) -0.78524(17)
O7A O -0.50330(19) 0.3560(2) -0.67790(19)
O8A O -0.6097(2) 0.4492(2) -0.6825(2)
O9A O -0.6998(2) 0.5377(3) -0.8708(2)
O10A O -0.61446(19) 0.6045(3) -0.90642(19)
O11A O -0.58702(18) 0.6074(2) -0.78819(17)
O12A O -0.49915(17) 0.5318(2) -0.68524(18)
O13A O -0.4914(2) 0.7128(3) -0.7990(2)
O14 O -0.5777(9) 0.8649(10) -0.7320(6)
H25 H -0.5575 0.8199 -0.7230
H26 H -0.5490 0.9009 -0.7294
O15 O -0.4835(18) 0.9842(17) -0.7218(14)
H27 H -0.4960 1.0307 -0.7165
H28 H -0.5133 0.9502 -0.7237
O15A O -0.5165(18) 0.9842(17) -0.7782(14)
H27A H -0.5040 1.0307 -0.7835
H28A H -0.4867 0.9502 -0.7763
loop_
_geom_bond_atom_site_label_1
_geom_bond_atom_site_label_2
_geom_bond_site_symmetry_1
_geom_bond_site_symmetry_2
Ag1 N1 1_555 1_555
Ag2 N3 1_555 1_555
C1 C15 1_555 1_555
C2 H1 1_555 1_555
C3 C8 1_555 1_555
C4 H2 1_555 1_555
C5 H3 1_555 1_555
C6 C30 1_555 1_555
C7 H4 1_555 1_555
C8 C4 1_555 1_555
C9 H5 1_555 1_555
C10 C8 1_555 1_555
H6 C10 1_555 1_555
C11 C12 1_555 1_555
C12 N5 1_555 1_555
C13 C9 1_555 1_555
H7 C13 1_555 1_555
C14 C5 1_555 1_555
H8 C14 1_555 1_555
C15 C9 1_555 1_555
C16 C18 1_555 1_555
C17 H9 1_555 1_555
C18 H10 1_555 1_555
C19 C10 1_555 1_555
H11 C19 1_555 1_555
C20 C31 1_555 1_555
C21 C2 1_555 1_555
H12 C21 1_555 1_555
C22 C16 1_555 1_555
C23 C18 1_555 1_555
H13 C23 1_555 1_555
C24 H14 1_555 1_555
C25 C16 1_555 1_555
H15 C25 1_555 1_555
C26 C4 1_555 1_555
H16 C26 1_555 1_555
C27 C11 1_555 1_555
H17 C27 1_555 1_555
C28 C17 1_555 1_555
H18 C28 1_555 1_555
C29 C27 1_555 1_555
H19 C29 1_555 1_555
C30 C7 1_555 1_555
C31 C14 1_555 1_555
C32 C15 1_555 1_555
H20 C32 1_555 1_555
C33 C7 1_555 1_555
H21 C33 1_555 1_555
C34 C11 1_555 1_555
H22 C34 1_555 1_555
C35 C34 1_555 1_555
H23 C35 1_555 1_555
C36 C32 1_555 1_555
H24 C36 1_555 1_555
N1 C5 1_555 1_555
N2 C19 1_555 1_555
N3 C29 1_555 1_555
N4 C3 1_555 1_555
N5 C3 1_555 1_555
N6 C12 1_555 1_555
N7 Ag2 1_555 1_555
N8 C23 1_555 1_555
N9 C2 1_555 1_555
N10 C1 1_555 1_555
N11 C1 1_555 1_555
N12 C6 1_555 1_555
Mo1 O1 1_555 1_555
Mo2 O2 1_555 1_555
Mo3 O5 1_555 1_555
Mo4 O11 1_555 1_555
Mo5 O6 1_555 1_555
O2 Mo1 1_555 1_555
O3 Mo2 1_555 1_555
O4 Mo2 1_555 1_555
O5 Mo2 1_555 1_555
O6 Mo2 1_555 1_555
O7 Mo5 1_555 1_555
O8 Mo5 1_555 1_555
O9 Mo3 1_555 1_555
O10 Mo3 1_555 1_555
O11 Mo3 1_555 1_555
O12 Mo4 1_555 1_555
O13 Mo4 1_555 1_555
O14 H25 1_555 1_555
H26 O14 1_555 1_555
O15 H27 1_555 1_555
H28 O15 1_555 1_555
Ag1B N2 1_555 1_555
Ag1B_2 N8 1_555 1_555
Ag2B N9 1_555 1_555
N2B Ag1 1_555 1_555
N8B Ag1 1_555 1_555
N9B Ag2 1_555 1_555
Mo2A O7 1_555 1_555
Mo3A O12 1_555 1_555
Mo5A O6A 1_555 1_555
O1A Mo1 1_555 1_555
O2A Mo1 1_555 1_555
O3A Mo2A 1_555 1_555
O4A Mo2A 1_555 1_555
O5A Mo2A 1_555 1_555
O6A Mo2A 1_555 1_555
O7A Mo2 1_555 1_555
O8A Mo5A 1_555 1_555
O9A Mo3A 1_555 1_555
O10A Mo3A 1_555 1_555
O11A Mo4 1_555 1_555
O12A Mo3 1_555 1_555
O13A Mo4 1_555 1_555
O15A H27A 1_555 1_555
H28A O15A 1_555 1_555
C6 N10 1_555 1_555
C13 N7 1_555 1_555
C17 C31 1_555 1_555
C20 N4 1_555 1_555
C20 N6 1_555 1_555
C21 C30 1_555 1_555
C22 N11 1_555 1_555
C22 N12 1_555 1_555
C24 C25 1_555 1_555
C24 N8 1_555 1_555
C26 N2 1_555 1_555
C28 N1 1_555 1_555
C33 N9 1_555 1_555
C35 N3 1_555 1_555
C36 N7 1_555 1_555
Mo3 O6 1_555 1_555
Mo4 O12A 1_555 1_555
Mo5 O12 1_555 1_555
Mo2A O2A 1_555 1_555
Mo3A O5A 1_555 1_555
Mo3A O6A 1_555 1_555
Mo3A O11A 1_555 1_555
Mo5A O7A 1_555 1_555
Mo5A O12A 1_555 1_555

#END
