
#######################################################################
#
#                 Cambridge Crystallographic Data Centre
#                                CCDC 
#
#######################################################################
#
# If this CIF has been generated from an entry in the Cambridge 
# Structural Database, then it will include bibliographic, chemical, 
# crystal, experimental, refinement or atomic coordinate data resulting 
# from the CCDC's data processing and validation procedures.
#
#######################################################################

data_QOFDIA02
_chemical_formula_moiety         '(C36 H24 Ag2 Mo8 N12 O26 2-)n'
_symmetry_cell_setting           monoclinic
_symmetry_space_group_name_H-M   'C 2/c'
_symmetry_Int_Tables_number      15
_space_group_name_Hall           '-C 2yc'
loop_
_symmetry_equiv_pos_site_id
_symmetry_equiv_pos_as_xyz
1 x,y,z
2 -x,y,1/2-z
3 1/2+x,1/2+y,z
4 1/2-x,1/2+y,1/2-z
5 -x,-y,-z
6 x,-y,1/2+z
7 1/2-x,1/2-y,-z
8 1/2+x,1/2-y,1/2+z
_cell_length_a                   22.0572(6)
_cell_length_b                   16.3893(3)
_cell_length_c                   25.6030(7)
_cell_angle_alpha                90
_cell_angle_beta                 115.305(3)
_cell_angle_gamma                90
_cell_volume                     8367.42
loop_
_atom_site_label
_atom_site_type_symbol
_atom_site_fract_x
_atom_site_fract_y
_atom_site_fract_z
Ag1 Ag -0.155857(19) 0.45773(3) -0.632089(16)
Ag2 Ag 0.32294(2) 0.25223(3) -0.132724(17)
C1 C 0.1240(2) 0.2573(3) -0.4975(2)
C2 C 0.7780(2) 0.6377(3) 0.0093(2)
H1 H 0.7989 0.6338 0.0493
C3 C 0.5976(2) 0.4697(3) 0.0009(2)
C4 C 0.2349(2) 0.0647(3) -0.6117(2)
H2 H 0.2128 0.0574 -0.6515
C5 C 0.2979(2) 0.0844(3) -0.4951(2)
H3 H 0.3203 0.0890 -0.4551
C6 C 0.0333(2) 0.3122(3) -0.5889(2)
H4 H 0.0548 0.2908 -0.6101
C7 C 0.0600(2) 0.3024(3) -0.5299(2)
C8 C 0.4436(2) 0.3431(3) -0.0352(2)
H5 H 0.4234 0.3153 -0.0152
C9 C 0.5034(2) 0.3835(3) -0.0036(2)
H6 H 0.5231 0.3819 0.0366
C10 C 0.7197(2) 0.6520(3) -0.1078(2)
H7 H 0.6995 0.6567 -0.1479
C11 C 0.2099(2) 0.2271(3) -0.4124(2)
C12 C 0.5332(2) 0.4264(3) -0.0331(2)
C13 C 0.6792(3) 0.4562(3) 0.1815(2)
H8 H 0.6352 0.4383 0.1616
C14 C 0.2433(2) 0.2377(3) -0.3486(2)
C15 C 0.0262(2) 0.3355(3) -0.5002(2)
H9 H 0.0435 0.3307 -0.4603
C16 C 0.6823(2) 0.5519(3) 0.0067(2)
C17 C 0.6802(2) 0.5020(3) 0.0881(2)
C18 C 0.7154(2) 0.6014(3) -0.0225(2)
C19 C 0.6861(2) 0.6094(3) -0.0814(2)
H10 H 0.6442 0.5866 -0.1034
C20 C -0.0264(2) 0.3547(3) -0.6158(2)
H11 H -0.0437 0.3626 -0.6556
C21 C 0.3257(2) 0.0408(3) -0.5260(2)
H12 H 0.3678 0.0176 -0.5057
C22 C -0.0330(2) 0.3755(3) -0.5305(2)
H13 H -0.0554 0.3972 -0.5101
C23 C 0.8083(2) 0.6796(3) -0.0204(2)
H14 H 0.8499 0.7037 0.0007
C24 C 0.2056(2) 0.1724(3) -0.4948(2)
C25 C 0.2358(2) 0.1209(3) -0.5254(2)
C26 C 0.8073(3) 0.5049(3) 0.2427(2)
H15 H 0.8516 0.5214 0.2635
C27 C 0.2037(2) 0.1103(3) -0.5850(2)
H16 H 0.1619 0.1335 -0.6064
C28 C 0.5023(2) 0.4267(3) -0.0929(2)
H17 H 0.5205 0.4557 -0.1140
C29 C 0.7123(2) 0.4924(3) 0.1519(2)
C30 C 0.2158(3) 0.2893(3) -0.3219(2)
H18 H 0.1777 0.3196 -0.3437
C31 C 0.7781(2) 0.5168(3) 0.1834(2)
H19 H 0.8022 0.5406 0.1652
C32 C 0.4438(2) 0.3830(3) -0.1203(2)
H20 H 0.4240 0.3819 -0.1605
C33 C 0.3023(3) 0.1974(3) -0.3150(2)
H21 H 0.3236 0.1647 -0.3318
C34 C 0.3287(3) 0.2072(4) -0.2557(2)
H22 H 0.3682 0.1798 -0.2330
C35 C 0.2458(3) 0.2953(3) -0.2626(2)
H23 H 0.2268 0.3300 -0.2450
C36 C 0.7121(3) 0.4471(4) 0.2403(2)
H24 H 0.6891 0.4232 0.2595
N1 N -0.06049(19) 0.3851(2) -0.58791(17)
N2 N 0.29548(19) 0.0303(2) -0.58330(17)
N3 N 0.3007(2) 0.2537(3) -0.22900(18)
N4 N 0.15324(19) 0.2678(2) -0.44061(17)
N5 N 0.14786(19) 0.2102(2) -0.52758(17)
N6 N 0.23824(19) 0.1780(2) -0.43718(17)
N7 N 0.41356(19) 0.3421(2) -0.09272(17)
N8 N 0.7803(2) 0.6870(2) -0.07836(18)
N9 N 0.7759(2) 0.4712(3) 0.27169(18)
N10 N 0.62276(19) 0.4626(2) 0.05861(17)
N11 N 0.62621(18) 0.5114(2) -0.02700(16)
N12 N 0.71159(19) 0.5496(2) 0.06475(17)
Ag1_2 Ag 0.844143(19) 0.45773(3) 0.367911(16)
Ag1B Ag 0.344143(19) -0.04227(3) -0.632089(16)
Ag2B Ag 0.82294(2) 0.75223(3) -0.132724(17)
N2B N -0.20452(19) 0.5303(2) -0.58330(17)
N8B N 0.2803(2) 0.1870(2) -0.07836(18)
N9_2 N -0.2241(2) 0.4712(3) -0.72831(18)
Mo1 Mo 0.0000 0.46104(5) -0.7500
Mo2 Mo -0.00140(2) 0.58844(3) -0.639521(17)
Mo3 Mo -0.01048(2) 0.79149(3) -0.643654(18)
Mo4 Mo 0.0000 0.90531(4) -0.7500
Mo5 Mo -0.09155(2) 0.69335(2) -0.791128(18)
O1 O 0.0620(3) 0.3976(4) -0.7055(3)
O2 O -0.03483(19) 0.5136(2) -0.70663(16)
O3 O 0.0520(2) 0.5249(2) -0.58721(17)
O4 O -0.07364(18) 0.5828(2) -0.63092(16)
O5 O 0.03277(18) 0.6900(2) -0.60682(15)
O6 O -0.0515(2) 0.6855(2) -0.71402(16)
O7 O -0.07527(19) 0.6043(2) -0.82290(17)
O8 O -0.17605(18) 0.6994(2) -0.81604(18)
O9 O -0.07938(19) 0.7869(3) -0.62948(18)
O10 O 0.04075(19) 0.8567(2) -0.59378(17)
O11 O -0.04917(19) 0.8586(2) -0.71230(16)
O12 O -0.06395(18) 0.7823(2) -0.81537(16)
O13 O 0.0569(2) 0.9670(3) -0.70033(18)
Mo2A Mo 0.00140(2) 0.58844(3) -0.860479(17)
Mo3A Mo 0.01048(2) 0.79149(3) -0.856346(18)
Mo5A Mo 0.09155(2) 0.69335(2) -0.708872(18)
O1A O -0.0620(3) 0.3976(4) -0.7945(3)
O2A O 0.03483(19) 0.5136(2) -0.79337(16)
O3A O -0.0520(2) 0.5249(2) -0.91279(17)
O4A O 0.07364(18) 0.5828(2) -0.86908(16)
O5A O -0.03277(18) 0.6900(2) -0.89318(15)
O6A O 0.0515(2) 0.6855(2) -0.78598(16)
O7A O 0.07527(19) 0.6043(2) -0.67710(17)
O8A O 0.17605(18) 0.6994(2) -0.68396(18)
O9A O 0.07938(19) 0.7869(3) -0.87052(18)
O10A O -0.04075(19) 0.8567(2) -0.90622(17)
O11A O 0.04917(19) 0.8586(2) -0.78770(16)
O12A O 0.06395(18) 0.7823(2) -0.68463(16)
O13A O -0.0569(2) 0.9670(3) -0.79967(18)
loop_
_geom_bond_atom_site_label_1
_geom_bond_atom_site_label_2
_geom_bond_site_symmetry_1
_geom_bond_site_symmetry_2
Ag1 N1 1_555 1_555
Ag2 N3 1_555 1_555
C1 C7 1_555 1_555
C2 H1 1_555 1_555
C3 C12 1_555 1_555
C4 H2 1_555 1_555
C5 H3 1_555 1_555
C6 H4 1_555 1_555
C7 C6 1_555 1_555
C8 H5 1_555 1_555
C9 C8 1_555 1_555
H6 C9 1_555 1_555
C10 H7 1_555 1_555
C11 C14 1_555 1_555
C12 C9 1_555 1_555
C13 H8 1_555 1_555
C14 C30 1_555 1_555
C15 C7 1_555 1_555
H9 C15 1_555 1_555
C16 C18 1_555 1_555
C17 C29 1_555 1_555
C18 C2 1_555 1_555
C19 C10 1_555 1_555
H10 C19 1_555 1_555
C20 C6 1_555 1_555
H11 C20 1_555 1_555
C21 C5 1_555 1_555
H12 C21 1_555 1_555
C22 C15 1_555 1_555
H13 C22 1_555 1_555
C23 C2 1_555 1_555
H14 C23 1_555 1_555
C24 C25 1_555 1_555
C25 C5 1_555 1_555
C26 H15 1_555 1_555
C27 C4 1_555 1_555
H16 C27 1_555 1_555
C28 C12 1_555 1_555
H17 C28 1_555 1_555
C29 C13 1_555 1_555
C30 H18 1_555 1_555
C31 C26 1_555 1_555
H19 C31 1_555 1_555
C32 C28 1_555 1_555
H20 C32 1_555 1_555
C33 C14 1_555 1_555
H21 C33 1_555 1_555
C34 C33 1_555 1_555
H22 C34 1_555 1_555
C35 C30 1_555 1_555
H23 C35 1_555 1_555
C36 C13 1_555 1_555
H24 C36 1_555 1_555
N1 C20 1_555 1_555
N2 C4 1_555 1_555
N3 C34 1_555 1_555
N4 C1 1_555 1_555
N5 C1 1_555 1_555
N6 C11 1_555 1_555
N7 Ag2 1_555 1_555
N8 C10 1_555 1_555
N9 C26 1_555 1_555
N10 C3 1_555 1_555
N11 C3 1_555 1_555
N12 C16 1_555 1_555
Mo1 O1 1_555 1_555
Mo2 O2 1_555 1_555
Mo3 O5 1_555 1_555
Mo4 O11 1_555 1_555
Mo5 O6 1_555 1_555
O2 Mo1 1_555 1_555
O3 Mo2 1_555 1_555
O4 Mo2 1_555 1_555
O5 Mo2 1_555 1_555
O6 Mo2 1_555 1_555
O7 Mo5 1_555 1_555
O8 Mo5 1_555 1_555
O9 Mo3 1_555 1_555
O10 Mo3 1_555 1_555
O11 Mo3 1_555 1_555
O12 Mo4 1_555 1_555
O13 Mo4 1_555 1_555
Ag1_2 N9 1_555 1_555
Ag1B N2 1_555 1_555
Ag2B N8 1_555 1_555
N2B Ag1 1_555 1_555
N8B Ag2 1_555 1_555
N9_2 Ag1 1_555 1_555
Mo2A O7 1_555 1_555
Mo3A O12 1_555 1_555
Mo5A O6A 1_555 1_555
O1A Mo1 1_555 1_555
O2A Mo1 1_555 1_555
O3A Mo2A 1_555 1_555
O4A Mo2A 1_555 1_555
O5A Mo2A 1_555 1_555
O6A Mo2A 1_555 1_555
O7A Mo2 1_555 1_555
O8A Mo5A 1_555 1_555
O9A Mo3A 1_555 1_555
O10A Mo3A 1_555 1_555
O11A Mo4 1_555 1_555
O12A Mo3 1_555 1_555
O13A Mo4 1_555 1_555
C8 N7 1_555 1_555
C11 N4 1_555 1_555
C16 N11 1_555 1_555
C17 N10 1_555 1_555
C17 N12 1_555 1_555
C18 C19 1_555 1_555
C21 N2 1_555 1_555
C22 N1 1_555 1_555
C23 N8 1_555 1_555
C24 N5 1_555 1_555
C24 N6 1_555 1_555
C25 C27 1_555 1_555
C29 C31 1_555 1_555
C32 N7 1_555 1_555
C35 N3 1_555 1_555
C36 N9 1_555 1_555
Mo3 O6 1_555 1_555
Mo4 O12A 1_555 1_555
Mo5 O12 1_555 1_555
Mo2A O2A 1_555 1_555
Mo3A O5A 1_555 1_555
Mo3A O6A 1_555 1_555
Mo3A O11A 1_555 1_555
Mo5A O7A 1_555 1_555
Mo5A O12A 1_555 1_555

#END
