
#######################################################################
#
#                 Cambridge Crystallographic Data Centre
#                                CCDC 
#
#######################################################################
#
# If this CIF has been generated from an entry in the Cambridge 
# Structural Database, then it will include bibliographic, chemical, 
# crystal, experimental, refinement or atomic coordinate data resulting 
# from the CCDC's data processing and validation procedures.
#
#######################################################################

data_QOFDIA
_chemical_formula_moiety         '(C36 H24 Ag2 Mo8 N12 O26 2-)n'
_symmetry_cell_setting           monoclinic
_symmetry_space_group_name_H-M   'C 2/c'
_symmetry_Int_Tables_number      15
_space_group_name_Hall           '-C 2yc'
loop_
_symmetry_equiv_pos_site_id
_symmetry_equiv_pos_as_xyz
1 x,y,z
2 -x,y,1/2-z
3 1/2+x,1/2+y,z
4 1/2-x,1/2+y,1/2-z
5 -x,-y,-z
6 x,-y,1/2+z
7 1/2-x,1/2-y,-z
8 1/2+x,1/2-y,1/2+z
_cell_length_a                   21.9944(8)
_cell_length_b                   16.6621(5)
_cell_length_c                   25.6363(11)
_cell_angle_alpha                90
_cell_angle_beta                 115.340(5)
_cell_angle_gamma                90
_cell_volume                     8491.06
loop_
_atom_site_label
_atom_site_type_symbol
_atom_site_fract_x
_atom_site_fract_y
_atom_site_fract_z
Ag1 Ag -0.22622(2) 0.70901(3) -0.63185(2)
Ag2 Ag 0.29535(3) 1.00221(4) -0.13243(2)
C1 C 0.1537(3) 1.2200(3) 0.0010(2)
C2 C 0.1279(3) 1.0072(3) -0.4981(2)
C3 C -0.0777(3) 1.3998(4) -0.1078(3)
H1 H -0.0979 1.4036 -0.1478
C4 C 0.1278(3) 1.0617(4) -0.5891(3)
H2 H 0.0852 1.0404 -0.6104
C5 C -0.0969(3) 0.8166(4) -0.6111(3)
H3 H -0.1150 0.8103 -0.6509
C6 C -0.0181(3) 1.3870(4) 0.0095(3)
H4 H 0.0008 1.3834 0.0495
C7 C 0.0748(3) 1.3014(3) 0.0067(2)
C8 C 0.1594(3) 1.0520(3) -0.5306(2)
C9 C 0.1585(3) 0.9859(4) -0.3488(2)
C10 C 0.2434(3) 1.1335(4) -0.0035(3)
H5 H 0.2640 1.1326 0.0366
C11 C 0.2711(3) 1.0932(4) -0.0353(3)
H6 H 0.3114 1.0660 -0.0153
C12 C 0.2228(3) 1.0858(4) -0.5012(3)
H7 H 0.2455 1.0813 -0.4613
C13 C 0.0497(3) 0.9227(3) -0.4949(2)
C14 C 0.1839(3) 1.1754(3) -0.0334(2)
C15 C -0.0393(3) 0.8616(4) -0.5847(3)
H8 H -0.0191 0.8844 -0.6065
C16 C 0.2513(3) 1.1257(4) -0.5317(3)
H9 H 0.2938 1.1477 -0.5114
C17 C 0.1277(3) 0.9754(4) -0.4124(2)
C18 C -0.0427(3) 0.8340(4) -0.4946(2)
H10 H -0.0249 0.8374 -0.4546
C19 C 0.1903(3) 1.2431(4) 0.1519(2)
C20 C 0.2524(3) 1.2069(4) 0.1809(3)
H11 H 0.2759 1.1880 0.1606
C21 C 0.1582(3) 1.2518(3) 0.0877(2)
C22 C 0.1605(3) 1.1037(4) -0.6157(3)
H12 H 0.1383 1.1108 -0.6555
C23 C -0.0179(3) 1.3579(4) -0.0817(3)
H13 H 0.0015 1.3351 -0.1040
C24 C -0.0113(3) 0.8726(3) -0.5252(2)
C25 C 0.0127(3) 1.3502(3) -0.0226(2)
C26 C 0.2119(3) 1.0376(4) -0.3223(3)
H14 H 0.2280 1.0680 -0.3441
C27 C 0.1869(4) 1.2571(5) 0.2425(3)
H15 H 0.1641 1.2748 0.2637
C28 C -0.1009(3) 0.7907(3) -0.5256(3)
H16 H -0.1220 0.7664 -0.5050
C29 C 0.2790(3) 1.1992(5) 0.2400(3)
H17 H 0.3214 1.1762 0.2592
C30 C -0.0778(3) 1.4288(4) -0.0209(3)
H18 H -0.0979 1.4538 0.0002
C31 C 0.1562(3) 1.2679(4) 0.1834(3)
H19 H 0.1138 1.2913 0.1654
C32 C 0.1554(3) 1.1753(4) -0.0927(3)
H20 H 0.1164 1.2043 -0.1137
C33 C 0.1335(3) 0.9453(4) -0.3150(3)
H21 H 0.0953 0.9133 -0.3315
C34 C 0.2410(4) 1.0436(4) -0.2631(3)
H22 H 0.2764 1.0795 -0.2456
C35 C 0.1673(4) 0.9539(5) -0.2559(3)
H23 H 0.1514 0.9252 -0.2332
C36 C 0.1857(3) 1.1314(4) -0.1207(3)
H24 H 0.1651 1.1298 -0.1609
N1 N -0.1286(2) 0.7813(3) -0.5825(2)
N2 N 0.2219(2) 1.1348(3) -0.5884(2)
N3 N 0.2207(3) 1.0001(4) -0.2292(2)
N4 N 0.0741(2) 0.9610(3) -0.5277(2)
N5 N 0.1560(2) 1.0175(3) -0.4409(2)
N6 N 0.0748(2) 0.9273(3) -0.4372(2)
N7 N 0.2438(3) 1.0906(3) -0.0928(2)
N8 N 0.2465(3) 1.2234(4) 0.2712(2)
N9 N -0.1080(2) 1.4351(3) -0.0783(2)
N10 N 0.1862(2) 1.2129(3) 0.0585(2)
N11 N 0.1037(2) 1.2990(3) 0.0641(2)
N12 N 0.0976(2) 1.2606(3) -0.0268(2)
Ag1B Ag 0.27378(2) 1.20901(3) -0.63185(2)
Ag1B_2 Ag 0.27378(2) 1.20901(3) 0.36815(2)
Ag2B Ag -0.20465(3) 1.50221(4) -0.13243(2)
N2B N -0.2781(2) 0.6348(3) -0.5884(2)
N8B N -0.2535(3) 0.7234(4) -0.7288(2)
N9B N 0.3920(2) 0.9351(3) -0.0783(2)
Mo1 Mo -0.5000 0.71602(6) -0.7500
Mo2 Mo -0.38796(2) 0.83990(3) -0.63947(2)
Mo3 Mo -0.38349(2) 1.04035(3) -0.64324(2)
Mo4 Mo -0.5000 1.15213(6) -0.7500
Mo5 Mo -0.44853(2) 0.94347(3) -0.79093(2)
O1 O -0.5187(4) 0.6547(6) -0.7058(5)
O2 O -0.4216(2) 0.7662(3) -0.7063(2)
O3 O -0.3073(2) 0.8332(3) -0.6306(2)
O4 O -0.3900(3) 0.7783(3) -0.5870(2)
O5 O -0.4111(3) 0.9364(3) -0.7147(2)
O6 O -0.3900(2) 0.9404(3) -0.6069(2)
O7 O -0.3005(3) 1.0374(4) -0.6290(3)
O8 O -0.3856(3) 1.1037(3) -0.5932(2)
O9 O -0.4967(2) 0.8558(3) -0.8221(2)
O10 O -0.3905(3) 0.9489(3) -0.8177(3)
O11 O -0.5006(2) 1.0311(3) -0.8143(2)
O12 O -0.4133(2) 1.1074(3) -0.7115(2)
O13 O -0.5087(3) 1.2131(4) -0.7006(3)
Mo2A Mo -0.61204(2) 0.83990(3) -0.86053(2)
Mo3A Mo -0.61651(2) 1.04035(3) -0.85676(2)
Mo5A Mo -0.55147(2) 0.94347(3) -0.70907(2)
O1A O -0.4813(4) 0.6547(6) -0.7942(5)
O2A O -0.5784(2) 0.7662(3) -0.7937(2)
O3A O -0.6927(2) 0.8332(3) -0.8694(2)
O4A O -0.6100(3) 0.7783(3) -0.9130(2)
O5A O -0.5889(3) 0.9364(3) -0.7853(2)
O6A O -0.6100(2) 0.9404(3) -0.8931(2)
O7A O -0.6995(3) 1.0374(4) -0.8710(3)
O8A O -0.6144(3) 1.1037(3) -0.9068(2)
O9A O -0.5033(2) 0.8558(3) -0.6779(2)
O10A O -0.6095(3) 0.9489(3) -0.6823(3)
O11A O -0.4994(2) 1.0311(3) -0.6857(2)
O12A O -0.5867(2) 1.1074(3) -0.7885(2)
O13A O -0.4913(3) 1.2131(4) -0.7994(3)
loop_
_geom_bond_atom_site_label_1
_geom_bond_atom_site_label_2
_geom_bond_site_symmetry_1
_geom_bond_site_symmetry_2
Ag1 N1 1_555 1_555
Ag2 N3 1_555 1_555
C1 C14 1_555 1_555
C2 C8 1_555 1_555
C3 H1 1_555 1_555
C4 H2 1_555 1_555
C5 H3 1_555 1_555
C6 H4 1_555 1_555
C7 C25 1_555 1_555
C8 C4 1_555 1_555
C9 C17 1_555 1_555
C10 H5 1_555 1_555
C11 C10 1_555 1_555
H6 C11 1_555 1_555
C12 C8 1_555 1_555
H7 C12 1_555 1_555
C13 C24 1_555 1_555
C14 C10 1_555 1_555
C15 C5 1_555 1_555
H8 C15 1_555 1_555
C16 C12 1_555 1_555
H9 C16 1_555 1_555
C17 N5 1_555 1_555
C18 H10 1_555 1_555
C19 C20 1_555 1_555
C20 H11 1_555 1_555
C21 C19 1_555 1_555
C22 C4 1_555 1_555
H12 C22 1_555 1_555
C23 C3 1_555 1_555
H13 C23 1_555 1_555
C24 C15 1_555 1_555
C25 C6 1_555 1_555
C26 C9 1_555 1_555
H14 C26 1_555 1_555
C27 H15 1_555 1_555
C28 C18 1_555 1_555
H16 C28 1_555 1_555
C29 C20 1_555 1_555
H17 C29 1_555 1_555
C30 C6 1_555 1_555
H18 C30 1_555 1_555
C31 C19 1_555 1_555
H19 C31 1_555 1_555
C32 C14 1_555 1_555
H20 C32 1_555 1_555
C33 C9 1_555 1_555
H21 C33 1_555 1_555
C34 C26 1_555 1_555
H22 C34 1_555 1_555
C35 C33 1_555 1_555
H23 C35 1_555 1_555
C36 C32 1_555 1_555
H24 C36 1_555 1_555
N1 C5 1_555 1_555
N2 C16 1_555 1_555
N3 C34 1_555 1_555
N4 C2 1_555 1_555
N5 C2 1_555 1_555
N6 C13 1_555 1_555
N7 Ag2 1_555 1_555
N8 C27 1_555 1_555
N9 C3 1_555 1_555
N10 C1 1_555 1_555
N11 C7 1_555 1_555
N12 C1 1_555 1_555
Mo1 O1 1_555 1_555
Mo2 O2 1_555 1_555
Mo3 O5 1_555 1_555
Mo4 O11 1_555 1_555
Mo5 O5 1_555 1_555
O2 Mo1 1_555 1_555
O3 Mo2 1_555 1_555
O4 Mo2 1_555 1_555
O5 Mo2 1_555 1_555
O6 Mo2 1_555 1_555
O7 Mo3 1_555 1_555
O8 Mo3 1_555 1_555
O9 Mo5 1_555 1_555
O10 Mo5 1_555 1_555
O11 Mo5 1_555 1_555
O12 Mo3 1_555 1_555
O13 Mo4 1_555 1_555
Ag1B N2 1_555 1_555
Ag1B_2 N8 1_555 1_555
Ag2B N9 1_555 1_555
N2B Ag1 1_555 1_555
N8B Ag1 1_555 1_555
N9B Ag2 1_555 1_555
Mo2A O9 1_555 1_555
Mo3A O11 1_555 1_555
Mo5A O5A 1_555 1_555
O1A Mo1 1_555 1_555
O2A Mo1 1_555 1_555
O3A Mo2A 1_555 1_555
O4A Mo2A 1_555 1_555
O5A Mo2A 1_555 1_555
O6A Mo2A 1_555 1_555
O7A Mo3A 1_555 1_555
O8A Mo3A 1_555 1_555
O9A Mo2 1_555 1_555
O10A Mo5A 1_555 1_555
O11A Mo3 1_555 1_555
O12A Mo4 1_555 1_555
O13A Mo4 1_555 1_555
C7 N12 1_555 1_555
C11 N7 1_555 1_555
C13 N4 1_555 1_555
C17 N6 1_555 1_555
C18 C24 1_555 1_555
C21 N10 1_555 1_555
C21 N11 1_555 1_555
C22 N2 1_555 1_555
C23 C25 1_555 1_555
C27 C31 1_555 1_555
C28 N1 1_555 1_555
C29 N8 1_555 1_555
C30 N9 1_555 1_555
C35 N3 1_555 1_555
C36 N7 1_555 1_555
Mo3 O6 1_555 1_555
Mo4 O12 1_555 1_555
Mo4 O11A 1_555 1_555
Mo2A O2A 1_555 1_555
Mo3A O5A 1_555 1_555
Mo3A O6A 1_555 1_555
Mo3A O12A 1_555 1_555
Mo5A O9A 1_555 1_555
Mo5A O11A 1_555 1_555

#END
