
#######################################################################
#
#                 Cambridge Crystallographic Data Centre
#                                CCDC 
#
#######################################################################
#
# If this CIF has been generated from an entry in the Cambridge 
# Structural Database, then it will include bibliographic, chemical, 
# crystal, experimental, refinement or atomic coordinate data resulting 
# from the CCDC's data processing and validation procedures.
#
#######################################################################

data_QOFDIA05
_chemical_formula_moiety         '(C36 H24 Ag2 Mo8 N12 O26 2-)n'
_symmetry_cell_setting           monoclinic
_symmetry_space_group_name_H-M   'C 2/c'
_symmetry_Int_Tables_number      15
_space_group_name_Hall           '-C 2yc'
loop_
_symmetry_equiv_pos_site_id
_symmetry_equiv_pos_as_xyz
1 x,y,z
2 -x,y,1/2-z
3 1/2+x,1/2+y,z
4 1/2-x,1/2+y,1/2-z
5 -x,-y,-z
6 x,-y,1/2+z
7 1/2-x,1/2-y,-z
8 1/2+x,1/2-y,1/2+z
_cell_length_a                   22.0101(9)
_cell_length_b                   16.5266(5)
_cell_length_c                   25.5684(11)
_cell_angle_alpha                90
_cell_angle_beta                 115.234(5)
_cell_angle_gamma                90
_cell_volume                     8413.05
loop_
_atom_site_label
_atom_site_type_symbol
_atom_site_fract_x
_atom_site_fract_y
_atom_site_fract_z
Ag1 Ag 0.34427(3) -0.04269(4) -0.63253(2)
Ag2 Ag 0.32249(3) 0.25433(4) -0.13309(2)
C1 C 0.5977(3) 0.4710(4) -0.0001(3)
C2 C 0.7773(3) 0.6381(4) 0.0087(3)
H1 H 0.7980 0.6348 0.0489
C3 C 0.2978(3) 0.0839(4) -0.4954(3)
H2 H 0.3199 0.0878 -0.4554
C4 C 0.1235(3) 0.2567(4) -0.4990(3)
C5 C 0.0597(3) 0.3016(4) -0.5312(3)
C6 C 0.5032(3) 0.3843(4) -0.0047(3)
H3 H 0.5226 0.3833 0.0355
C7 C 0.4441(3) 0.3442(4) -0.0361(3)
H4 H 0.4241 0.3164 -0.0159
C8 C 0.2097(3) 0.2262(4) -0.4133(3)
C9 C 0.0327(3) 0.3113(4) -0.5899(3)
H5 H 0.0542 0.2901 -0.6112
C10 C 0.6820(3) 0.5526(4) 0.0060(3)
C11 C 0.5334(3) 0.4262(4) -0.0341(3)
C12 C 0.2355(3) 0.0643(4) -0.6118(3)
H6 H 0.2138 0.0568 -0.6516
C13 C 0.7203(3) 0.6529(4) -0.1084(3)
H7 H 0.7004 0.6578 -0.1485
C14 C 0.2431(3) 0.2371(4) -0.3495(3)
C15 C 0.6790(4) 0.4563(5) 0.1804(3)
H8 H 0.6348 0.4391 0.1602
C16 C 0.6802(3) 0.5019(4) 0.0870(3)
C17 C 0.7149(3) 0.6012(4) -0.0232(3)
C18 C 0.2352(3) 0.1211(4) -0.5264(3)
C19 C 0.0259(3) 0.3351(5) -0.5012(3)
H9 H 0.0432 0.3307 -0.4612
C20 C 0.2038(3) 0.1100(4) -0.5858(3)
H10 H 0.1621 0.1331 -0.6077
C21 C 0.6864(3) 0.6100(4) -0.0821(3)
H11 H 0.6445 0.5875 -0.1044
C22 C 0.2050(3) 0.1720(4) -0.4959(3)
C23 C 0.7124(3) 0.4919(4) 0.1512(3)
C24 C -0.0267(3) 0.3530(5) -0.6166(3)
H12 H -0.0442 0.3602 -0.6564
C25 C 0.3254(3) 0.0413(4) -0.5266(3)
H13 H 0.3679 0.0190 -0.5064
C26 C 0.8076(4) 0.6802(4) -0.0215(3)
H14 H 0.8491 0.7045 -0.0005
C27 C -0.0331(4) 0.3748(5) -0.5319(3)
H15 H -0.0555 0.3970 -0.5116
C28 C 0.8068(4) 0.5052(5) 0.2419(3)
H16 H 0.8508 0.5224 0.2628
C29 C 0.5018(3) 0.4279(4) -0.0937(3)
H17 H 0.5192 0.4584 -0.1147
C30 C 0.4439(4) 0.3833(5) -0.1215(3)
H18 H 0.4247 0.3811 -0.1616
C31 C 0.2153(4) 0.2884(5) -0.3226(3)
H19 H 0.1767 0.3178 -0.3443
C32 C 0.2455(4) 0.2949(5) -0.2638(3)
H20 H 0.2266 0.3299 -0.2463
C33 C 0.7116(4) 0.4466(5) 0.2396(3)
H21 H 0.6886 0.4223 0.2587
C34 C 0.7781(4) 0.5167(5) 0.1826(3)
H22 H 0.8024 0.5403 0.1644
C35 C 0.3285(4) 0.2081(6) -0.2564(3)
H23 H 0.3680 0.1809 -0.2337
C36 C 0.3023(4) 0.1985(5) -0.3157(3)
H24 H 0.3241 0.1667 -0.3324
N1 N 0.2954(3) 0.0302(3) -0.5832(2)
N2 N -0.0606(3) 0.3836(3) -0.5889(2)
N3 N 0.3007(3) 0.2540(4) -0.2299(3)
N4 N 0.2379(3) 0.1772(3) -0.4379(2)
N5 N 0.1482(3) 0.2105(3) -0.5284(2)
N6 N 0.1527(3) 0.2669(3) -0.4417(2)
N7 N 0.4138(3) 0.3427(3) -0.0935(2)
N8 N 0.7757(3) 0.4712(4) 0.2709(2)
N9 N 0.7798(3) 0.6869(3) -0.0787(2)
N10 N 0.6230(3) 0.4628(3) 0.0579(2)
N11 N 0.7113(3) 0.5496(3) 0.0639(2)
N12 N 0.6261(2) 0.5122(3) -0.0276(2)
Ag1B Ag -0.15573(3) 0.45731(4) -0.63253(2)
Ag1B_2 Ag 0.84427(3) 0.45731(4) 0.36747(2)
Ag2B Ag 0.82249(3) 0.75433(4) -0.13309(2)
N2B N 0.4394(3) -0.1164(3) -0.5889(2)
N8B N 0.2757(3) -0.0288(4) -0.7291(2)
N9B N 0.2798(3) 0.1869(3) -0.0787(2)
Mo1 Mo 0.5000 -0.03623(6) -0.7500
Mo2 Mo 0.49871(3) 0.08950(4) -0.63929(2)
Mo3 Mo 0.49084(3) 0.29098(4) -0.64311(2)
Mo4 Mo 0.5000 0.40696(7) -0.7500
Mo5 Mo 0.40817(3) 0.19305(3) -0.79058(2)
O1 O 0.5619(6) -0.0997(6) -0.7071(5)
O2 O 0.4662(3) 0.0143(3) -0.7061(2)
O3 O 0.5523(3) 0.0275(4) -0.5864(3)
O4 O 0.4271(3) 0.0821(4) -0.6307(2)
O5 O 0.5327(3) 0.1900(3) -0.6062(2)
O6 O 0.4488(3) 0.1857(3) -0.7142(2)
O7 O 0.4241(3) 0.1044(4) -0.8231(3)
O8 O 0.3237(3) 0.1977(3) -0.8164(3)
O9 O 0.5422(3) 0.3534(4) -0.5924(3)
O10 O 0.4217(3) 0.2874(4) -0.6299(3)
O11 O 0.4524(3) 0.3584(4) -0.7117(3)
O12 O 0.4343(3) 0.2816(3) -0.8163(3)
O13 O 0.5577(4) 0.4667(5) -0.7010(3)
Mo2A Mo 0.50129(3) 0.08950(4) -0.86071(2)
Mo3A Mo 0.50916(3) 0.29098(4) -0.85689(2)
Mo5A Mo 0.59183(3) 0.19305(3) -0.70942(2)
O1A O 0.4381(6) -0.0997(6) -0.7929(5)
O2A O 0.5338(3) 0.0143(3) -0.7939(2)
O3A O 0.4477(3) 0.0275(4) -0.9136(3)
O4A O 0.5729(3) 0.0821(4) -0.8693(2)
O5A O 0.4673(3) 0.1900(3) -0.8938(2)
O6A O 0.5512(3) 0.1857(3) -0.7858(2)
O7A O 0.5759(3) 0.1044(4) -0.6769(3)
O8A O 0.6763(3) 0.1977(3) -0.6836(3)
O9A O 0.4578(3) 0.3534(4) -0.9076(3)
O10A O 0.5783(3) 0.2874(4) -0.8701(3)
O11A O 0.5476(3) 0.3584(4) -0.7883(3)
O12A O 0.5657(3) 0.2816(3) -0.6837(3)
O13A O 0.4423(4) 0.4667(5) -0.7990(3)
loop_
_geom_bond_atom_site_label_1
_geom_bond_atom_site_label_2
_geom_bond_site_symmetry_1
_geom_bond_site_symmetry_2
Ag1 N1 1_555 1_555
Ag2 N3 1_555 1_555
C1 C11 1_555 1_555
C2 H1 1_555 1_555
C3 H2 1_555 1_555
C4 C5 1_555 1_555
C5 C9 1_555 1_555
C6 H3 1_555 1_555
C7 C6 1_555 1_555
H4 C7 1_555 1_555
C8 C14 1_555 1_555
C9 H5 1_555 1_555
C10 C17 1_555 1_555
C11 C6 1_555 1_555
C12 H6 1_555 1_555
C13 H7 1_555 1_555
C14 C31 1_555 1_555
C15 H8 1_555 1_555
C16 C23 1_555 1_555
C17 C2 1_555 1_555
C18 C3 1_555 1_555
C19 C5 1_555 1_555
H9 C19 1_555 1_555
C20 C12 1_555 1_555
H10 C20 1_555 1_555
C21 C13 1_555 1_555
H11 C21 1_555 1_555
C22 C18 1_555 1_555
C23 C15 1_555 1_555
C24 C9 1_555 1_555
H12 C24 1_555 1_555
C25 C3 1_555 1_555
H13 C25 1_555 1_555
C26 C2 1_555 1_555
H14 C26 1_555 1_555
C27 C19 1_555 1_555
H15 C27 1_555 1_555
C28 H16 1_555 1_555
C29 C11 1_555 1_555
H17 C29 1_555 1_555
C30 C29 1_555 1_555
H18 C30 1_555 1_555
C31 H19 1_555 1_555
C32 C31 1_555 1_555
H20 C32 1_555 1_555
C33 C15 1_555 1_555
H21 C33 1_555 1_555
C34 C23 1_555 1_555
H22 C34 1_555 1_555
C35 H23 1_555 1_555
C36 C14 1_555 1_555
H24 C36 1_555 1_555
N1 C12 1_555 1_555
N2 C24 1_555 1_555
N3 C32 1_555 1_555
N4 C8 1_555 1_555
N5 C4 1_555 1_555
N6 C4 1_555 1_555
N7 Ag2 1_555 1_555
N8 C28 1_555 1_555
N9 C13 1_555 1_555
N10 C1 1_555 1_555
N11 C10 1_555 1_555
N12 C1 1_555 1_555
Mo1 O1 1_555 1_555
Mo2 O2 1_555 1_555
Mo3 O5 1_555 1_555
Mo4 O11 1_555 1_555
Mo5 O6 1_555 1_555
O2 Mo1 1_555 1_555
O3 Mo2 1_555 1_555
O4 Mo2 1_555 1_555
O5 Mo2 1_555 1_555
O6 Mo2 1_555 1_555
O7 Mo5 1_555 1_555
O8 Mo5 1_555 1_555
O9 Mo3 1_555 1_555
O10 Mo3 1_555 1_555
O11 Mo3 1_555 1_555
O12 Mo4 1_555 1_555
O13 Mo4 1_555 1_555
Ag1B N2 1_555 1_555
Ag1B_2 N8 1_555 1_555
Ag2B N9 1_555 1_555
N2B Ag1 1_555 1_555
N8B Ag1 1_555 1_555
N9B Ag2 1_555 1_555
Mo2A O7 1_555 1_555
Mo3A O12 1_555 1_555
Mo5A O6A 1_555 1_555
O1A Mo1 1_555 1_555
O2A Mo1 1_555 1_555
O3A Mo2A 1_555 1_555
O4A Mo2A 1_555 1_555
O5A Mo2A 1_555 1_555
O6A Mo2A 1_555 1_555
O7A Mo2 1_555 1_555
O8A Mo5A 1_555 1_555
O9A Mo3A 1_555 1_555
O10A Mo3A 1_555 1_555
O11A Mo4 1_555 1_555
O12A Mo3 1_555 1_555
O13A Mo4 1_555 1_555
C7 N7 1_555 1_555
C8 N6 1_555 1_555
C10 N12 1_555 1_555
C16 N10 1_555 1_555
C16 N11 1_555 1_555
C17 C21 1_555 1_555
C18 C20 1_555 1_555
C22 N4 1_555 1_555
C22 N5 1_555 1_555
C25 N1 1_555 1_555
C26 N9 1_555 1_555
C27 N2 1_555 1_555
C28 C34 1_555 1_555
C30 N7 1_555 1_555
C33 N8 1_555 1_555
C35 C36 1_555 1_555
C35 N3 1_555 1_555
Mo3 O6 1_555 1_555
Mo4 O12A 1_555 1_555
Mo5 O12 1_555 1_555
Mo2A O2A 1_555 1_555
Mo3A O5A 1_555 1_555
Mo3A O6A 1_555 1_555
Mo3A O11A 1_555 1_555
Mo5A O7A 1_555 1_555
Mo5A O12A 1_555 1_555

#END
