
#######################################################################
#
#                 Cambridge Crystallographic Data Centre
#                                CCDC 
#
#######################################################################
#
# If this CIF has been generated from an entry in the Cambridge 
# Structural Database, then it will include bibliographic, chemical, 
# crystal, experimental, refinement or atomic coordinate data resulting 
# from the CCDC's data processing and validation procedures.
#
#######################################################################

data_QOFDIA06
_chemical_formula_moiety         '(C36 H24 Ag2 Mo8 N12 O26 2-)n'
_symmetry_cell_setting           monoclinic
_symmetry_space_group_name_H-M   'C 2/c'
_symmetry_Int_Tables_number      15
_space_group_name_Hall           '-C 2yc'
loop_
_symmetry_equiv_pos_site_id
_symmetry_equiv_pos_as_xyz
1 x,y,z
2 -x,y,1/2-z
3 1/2+x,1/2+y,z
4 1/2-x,1/2+y,1/2-z
5 -x,-y,-z
6 x,-y,1/2+z
7 1/2-x,1/2-y,-z
8 1/2+x,1/2-y,1/2+z
_cell_length_a                   21.9943(8)
_cell_length_b                   16.5773(6)
_cell_length_c                   25.5580(15)
_cell_angle_alpha                90
_cell_angle_beta                 115.203(5)
_cell_angle_gamma                90
_cell_volume                     8431.52
loop_
_atom_site_label
_atom_site_type_symbol
_atom_site_fract_x
_atom_site_fract_y
_atom_site_fract_z
Ag1 Ag -0.15573(3) 0.45714(4) -0.63270(3)
Ag2 Ag -0.17772(3) 0.75492(5) -0.13323(3)
C1 C 0.0978(3) 0.9708(4) -0.0004(3)
C2 C -0.2025(3) 0.5841(4) -0.4958(3)
H1 H -0.1803 0.5882 -0.4558
C3 C 0.0034(3) 0.8846(4) -0.0048(3)
H2 H 0.0229 0.8834 0.0354
C4 C 0.2773(4) 1.1378(5) 0.0086(3)
H3 H 0.2983 1.1338 0.0487
C5 C 0.1817(3) 1.0522(4) 0.0057(3)
C6 C -0.2902(3) 0.7264(4) -0.4136(3)
C7 C -0.4402(3) 0.8014(4) -0.5317(3)
C8 C -0.4670(4) 0.8112(5) -0.5898(3)
H4 H -0.4454 0.7901 -0.6110
C9 C -0.3767(3) 0.7563(4) -0.4991(3)
C10 C -0.0560(4) 0.8441(4) -0.0365(3)
H5 H -0.0758 0.8155 -0.0165
C11 C 0.0331(3) 0.9272(4) -0.0346(3)
C12 C 0.2199(3) 1.1532(5) -0.1089(3)
H6 H 0.2002 1.1581 -0.1489
C13 C 0.1791(4) 0.9563(5) 0.1800(3)
H7 H 0.1350 0.9388 0.1599
C14 C -0.2646(4) 0.5644(4) -0.6123(3)
H8 H -0.2862 0.5575 -0.6522
C15 C -0.2568(3) 0.7369(4) -0.3495(3)
C16 C 0.1801(3) 1.0020(4) 0.0866(3)
C17 C 0.2149(3) 1.1013(4) -0.0232(3)
C18 C -0.2643(3) 0.6210(4) -0.5263(3)
C19 C -0.4744(4) 0.8356(5) -0.5020(3)
H9 H -0.4569 0.8319 -0.4619
C20 C 0.2122(3) 0.9920(5) 0.1511(3)
C21 C 0.1859(3) 1.1107(4) -0.0827(3)
H10 H 0.1439 1.0886 -0.1050
C22 C -0.2960(4) 0.6093(4) -0.5858(3)
H11 H -0.3381 0.6316 -0.6075
C23 C 0.3073(4) 1.1805(5) -0.0215(3)
H12 H 0.3485 1.2054 -0.0004
C24 C -0.2950(3) 0.6721(4) -0.4962(3)
C25 C -0.5268(4) 0.8529(5) -0.6173(3)
H13 H -0.5441 0.8604 -0.6571
C26 C -0.1749(4) 0.5411(4) -0.5266(3)
H14 H -0.1328 0.5181 -0.5061
C27 C -0.5332(4) 0.8742(5) -0.5322(3)
H15 H -0.5556 0.8960 -0.5118
C28 C 0.0020(4) 0.9276(5) -0.0941(3)
H16 H 0.0198 0.9570 -0.1153
C29 C 0.3067(4) 1.0053(6) 0.2414(4)
H17 H 0.3508 1.0225 0.2622
C30 C -0.0560(4) 0.8837(5) -0.1214(3)
H18 H -0.0753 0.8819 -0.1616
C31 C 0.2117(4) 0.9466(6) 0.2392(3)
H19 H 0.1888 0.9219 0.2583
C32 C -0.2851(4) 0.7882(5) -0.3229(3)
H20 H -0.3237 0.8175 -0.3447
C33 C -0.2546(4) 0.7946(5) -0.2636(3)
H21 H -0.2737 0.8288 -0.2459
C34 C 0.2776(4) 1.0163(5) 0.1818(3)
H22 H 0.3016 1.0395 0.1633
C35 C -0.1717(4) 0.7089(6) -0.2567(4)
H23 H -0.1322 0.6817 -0.2341
C36 C -0.1978(4) 0.6994(5) -0.3159(4)
H24 H -0.1757 0.6681 -0.3326
N1 N -0.2044(3) 0.5304(3) -0.5833(3)
N2 N -0.5606(3) 0.8827(4) -0.5890(3)
N3 N -0.1992(3) 0.7543(5) -0.2303(3)
N4 N -0.2622(3) 0.6773(4) -0.4382(3)
N5 N -0.3522(3) 0.7100(4) -0.5288(2)
N6 N -0.3475(3) 0.7666(4) -0.4420(2)
N7 N -0.0865(3) 0.8436(4) -0.0941(3)
N8 N 0.2753(3) 0.9715(4) 0.2703(3)
N9 N 0.2797(3) 1.1871(4) -0.0787(3)
N10 N 0.1257(3) 1.0127(3) -0.0282(2)
N11 N 0.1229(3) 0.9632(4) 0.0577(2)
N12 N 0.2111(3) 1.0498(4) 0.0636(3)
Ag1B Ag -0.65573(3) 0.95714(4) -0.63270(3)
Ag1B_2 Ag 0.34427(3) 0.95714(4) 0.36730(3)
Ag2B Ag 0.32228(3) 1.25492(5) -0.13323(3)
N2B N -0.0606(3) 0.3827(4) -0.5890(3)
N8B N -0.2247(3) 0.4715(4) -0.7297(3)
N9B N -0.2203(3) 0.6871(4) -0.0787(3)
Mo1 Mo -0.0000 0.46468(7) -0.7500
Mo2 Mo -0.00128(3) 0.58975(4) -0.63920(2)
Mo3 Mo -0.00875(3) 0.79075(4) -0.64289(3)
Mo4 Mo 0.0000 0.90713(7) -0.7500
Mo5 Mo -0.09193(3) 0.69287(4) -0.79041(3)
O1 O 0.0626(6) 0.4018(7) -0.7073(6)
O2 O -0.0340(3) 0.5143(4) -0.7059(3)
O3 O 0.0527(3) 0.5278(5) -0.5860(3)
O4 O -0.0729(3) 0.5819(4) -0.6305(3)
O5 O 0.0329(3) 0.6897(4) -0.6064(3)
O6 O -0.0513(4) 0.6865(4) -0.7143(3)
O7 O -0.0757(3) 0.6045(4) -0.8230(3)
O8 O -0.1761(3) 0.6971(4) -0.8168(3)
O9 O -0.0779(3) 0.7871(5) -0.6297(3)
O10 O 0.0430(4) 0.8522(5) -0.5920(3)
O11 O -0.0476(3) 0.8583(4) -0.7116(3)
O12 O -0.0655(3) 0.7809(4) -0.8165(3)
O13 O 0.0579(4) 0.9664(5) -0.7016(3)
Mo2A Mo 0.00128(3) 0.58975(4) -0.86080(2)
Mo3A Mo 0.00875(3) 0.79075(4) -0.85711(3)
Mo5A Mo 0.09193(3) 0.69287(4) -0.70959(3)
O1A O -0.0626(6) 0.4018(7) -0.7927(6)
O2A O 0.0340(3) 0.5143(4) -0.7941(3)
O3A O -0.0527(3) 0.5278(5) -0.9140(3)
O4A O 0.0729(3) 0.5819(4) -0.8695(3)
O5A O -0.0329(3) 0.6897(4) -0.8936(3)
O6A O 0.0513(4) 0.6865(4) -0.7857(3)
O7A O 0.0757(3) 0.6045(4) -0.6770(3)
O8A O 0.1761(3) 0.6971(4) -0.6832(3)
O9A O 0.0779(3) 0.7871(5) -0.8703(3)
O10A O -0.0430(4) 0.8522(5) -0.9080(3)
O11A O 0.0476(3) 0.8583(4) -0.7884(3)
O12A O 0.0655(3) 0.7809(4) -0.6835(3)
O13A O -0.0579(4) 0.9664(5) -0.7984(3)
loop_
_geom_bond_atom_site_label_1
_geom_bond_atom_site_label_2
_geom_bond_site_symmetry_1
_geom_bond_site_symmetry_2
Ag1 N1 1_555 1_555
Ag2 N3 1_555 1_555
C1 C11 1_555 1_555
C2 H1 1_555 1_555
C3 H2 1_555 1_555
C4 H3 1_555 1_555
C5 C17 1_555 1_555
C6 C15 1_555 1_555
C7 C8 1_555 1_555
C8 H4 1_555 1_555
C9 C7 1_555 1_555
C10 C3 1_555 1_555
H5 C10 1_555 1_555
C11 C3 1_555 1_555
C12 H6 1_555 1_555
C13 H7 1_555 1_555
C14 H8 1_555 1_555
C15 C32 1_555 1_555
C16 C20 1_555 1_555
C17 C4 1_555 1_555
C18 C2 1_555 1_555
C19 C7 1_555 1_555
H9 C19 1_555 1_555
C20 C13 1_555 1_555
C21 C12 1_555 1_555
H10 C21 1_555 1_555
C22 C14 1_555 1_555
H11 C22 1_555 1_555
C23 C4 1_555 1_555
H12 C23 1_555 1_555
C24 C18 1_555 1_555
C25 C8 1_555 1_555
H13 C25 1_555 1_555
C26 C2 1_555 1_555
H14 C26 1_555 1_555
C27 C19 1_555 1_555
H15 C27 1_555 1_555
C28 C11 1_555 1_555
H16 C28 1_555 1_555
C29 H17 1_555 1_555
C30 C28 1_555 1_555
H18 C30 1_555 1_555
C31 C13 1_555 1_555
H19 C31 1_555 1_555
C32 H20 1_555 1_555
C33 C32 1_555 1_555
H21 C33 1_555 1_555
C34 C20 1_555 1_555
H22 C34 1_555 1_555
C35 H23 1_555 1_555
C36 C15 1_555 1_555
H24 C36 1_555 1_555
N1 C14 1_555 1_555
N2 C25 1_555 1_555
N3 C33 1_555 1_555
N4 C6 1_555 1_555
N5 C9 1_555 1_555
N6 C6 1_555 1_555
N7 Ag2 1_555 1_555
N8 C29 1_555 1_555
N9 C12 1_555 1_555
N10 C1 1_555 1_555
N11 C1 1_555 1_555
N12 C5 1_555 1_555
Mo1 O1 1_555 1_555
Mo2 O2 1_555 1_555
Mo3 O5 1_555 1_555
Mo4 O11 1_555 1_555
Mo5 O6 1_555 1_555
O2 Mo1 1_555 1_555
O3 Mo2 1_555 1_555
O4 Mo2 1_555 1_555
O5 Mo2 1_555 1_555
O6 Mo2 1_555 1_555
O7 Mo5 1_555 1_555
O8 Mo5 1_555 1_555
O9 Mo3 1_555 1_555
O10 Mo3 1_555 1_555
O11 Mo3 1_555 1_555
O12 Mo4 1_555 1_555
O13 Mo4 1_555 1_555
Ag1B N2 1_555 1_555
Ag1B_2 N8 1_555 1_555
Ag2B N9 1_555 1_555
N2B Ag1 1_555 1_555
N8B Ag1 1_555 1_555
N9B Ag2 1_555 1_555
Mo2A O7 1_555 1_555
Mo3A O12 1_555 1_555
Mo5A O6A 1_555 1_555
O1A Mo1 1_555 1_555
O2A Mo1 1_555 1_555
O3A Mo2A 1_555 1_555
O4A Mo2A 1_555 1_555
O5A Mo2A 1_555 1_555
O6A Mo2A 1_555 1_555
O7A Mo2 1_555 1_555
O8A Mo5A 1_555 1_555
O9A Mo3A 1_555 1_555
O10A Mo3A 1_555 1_555
O11A Mo4 1_555 1_555
O12A Mo3 1_555 1_555
O13A Mo4 1_555 1_555
C5 N10 1_555 1_555
C9 N6 1_555 1_555
C10 N7 1_555 1_555
C16 N11 1_555 1_555
C16 N12 1_555 1_555
C17 C21 1_555 1_555
C18 C22 1_555 1_555
C23 N9 1_555 1_555
C24 N4 1_555 1_555
C24 N5 1_555 1_555
C26 N1 1_555 1_555
C27 N2 1_555 1_555
C29 C34 1_555 1_555
C30 N7 1_555 1_555
C31 N8 1_555 1_555
C35 C36 1_555 1_555
C35 N3 1_555 1_555
Mo3 O6 1_555 1_555
Mo4 O12A 1_555 1_555
Mo5 O12 1_555 1_555
Mo2A O2A 1_555 1_555
Mo3A O5A 1_555 1_555
Mo3A O6A 1_555 1_555
Mo3A O11A 1_555 1_555
Mo5A O7A 1_555 1_555
Mo5A O12A 1_555 1_555

#END
