
#######################################################################
#
#                 Cambridge Crystallographic Data Centre
#                                CCDC 
#
#######################################################################
#
# If this CIF has been generated from an entry in the Cambridge 
# Structural Database, then it will include bibliographic, chemical, 
# crystal, experimental, refinement or atomic coordinate data resulting 
# from the CCDC's data processing and validation procedures.
#
#######################################################################

data_QOFDOG
_chemical_formula_moiety         '(C36 H24 Ag2 Mo8 N12 O26 2-)n'
_symmetry_cell_setting           monoclinic
_symmetry_space_group_name_H-M   'C 2/c'
_symmetry_Int_Tables_number      15
_space_group_name_Hall           '-C 2yc'
loop_
_symmetry_equiv_pos_site_id
_symmetry_equiv_pos_as_xyz
1 x,y,z
2 -x,y,1/2-z
3 1/2+x,1/2+y,z
4 1/2-x,1/2+y,1/2-z
5 -x,-y,-z
6 x,-y,1/2+z
7 1/2-x,1/2-y,-z
8 1/2+x,1/2-y,1/2+z
_cell_length_a                   21.9717(6)
_cell_length_b                   16.6692(6)
_cell_length_c                   25.6289(9)
_cell_angle_alpha                90
_cell_angle_beta                 115.344(5)
_cell_angle_gamma                90
_cell_volume                     8483.18
loop_
_atom_site_label
_atom_site_type_symbol
_atom_site_fract_x
_atom_site_fract_y
_atom_site_fract_z
Ag1 Ag 0.27371(2) 0.20896(4) -0.13192(2)
Ag2 Ag 0.29539(3) 0.00244(4) 0.36756(2)
C1 C -0.0779(3) 0.3997(4) 0.3920(3)
H1 H -0.0983 0.4034 0.3519
C2 C 0.1535(3) 0.2200(3) 0.5008(2)
C3 C 0.1276(3) 0.0614(4) -0.0891(3)
H2 H 0.0849 0.0401 -0.1104
C4 C 0.1280(3) 0.0072(3) 0.0019(2)
C5 C -0.0183(3) 0.3870(4) 0.5090(3)
H3 H 0.0009 0.3836 0.5491
C6 C -0.0970(3) -0.1846(4) -0.1111(3)
H4 H -0.1147 -0.1917 -0.1509
C7 C 0.0748(3) 0.3015(3) 0.5063(3)
C8 C 0.2434(3) 0.1334(4) 0.4965(3)
H5 H 0.2637 0.1323 0.5367
C9 C 0.2711(3) 0.0932(4) 0.4648(3)
H6 H 0.3113 0.0658 0.4848
C10 C 0.2228(3) 0.0850(4) -0.0010(3)
H7 H 0.2460 0.0799 0.0388
C11 C 0.1596(3) 0.0517(3) -0.0305(3)
C12 C 0.1274(3) -0.0241(4) 0.0875(3)
C13 C 0.1583(3) -0.0144(4) 0.1512(3)
C14 C -0.0394(3) -0.1387(4) -0.0847(3)
H8 H -0.0196 -0.1156 -0.1066
C15 C 0.1839(3) 0.1757(3) 0.4663(2)
C16 C 0.1900(3) 0.2424(4) 0.6514(3)
C17 C 0.2507(3) 0.1259(5) -0.0322(3)
H9 H 0.2928 0.1490 -0.0119
C18 C -0.0179(3) 0.3580(4) 0.4183(3)
H10 H 0.0017 0.3355 0.3960
C19 C -0.0428(3) -0.1662(4) 0.0051(3)
H11 H -0.0250 -0.1629 0.0452
C20 C 0.2520(3) 0.2073(5) 0.6805(3)
H12 H 0.2759 0.1896 0.6602
C21 C 0.0495(3) -0.0772(3) 0.0051(2)
C22 C 0.2791(3) 0.1982(5) 0.7399(3)
H13 H 0.3211 0.1743 0.7589
C23 C 0.1606(3) 0.1039(4) -0.1157(3)
H14 H 0.1382 0.1114 -0.1554
C24 C 0.0126(3) 0.3499(3) 0.4770(3)
C25 C 0.1558(4) 0.2682(4) 0.6832(3)
H15 H 0.1136 0.2921 0.6654
C26 C 0.1583(3) 0.2516(4) 0.5874(3)
C27 C -0.1010(3) -0.2093(4) -0.0257(3)
H16 H -0.1223 -0.2331 -0.0051
C28 C 0.1871(4) 0.2566(5) 0.7424(3)
H17 H 0.1643 0.2741 0.7637
C29 C 0.1552(3) 0.1752(4) 0.4070(3)
H18 H 0.1160 0.2040 0.3860
C30 C -0.0778(3) 0.4286(4) 0.4793(3)
H19 H -0.0978 0.4534 0.5005
C31 C 0.2412(4) 0.0439(5) 0.2368(3)
H20 H 0.2767 0.0796 0.2542
C32 C 0.2118(3) 0.0377(5) 0.1774(3)
H21 H 0.2277 0.0680 0.1554
C33 C 0.1333(4) -0.0551(4) 0.1846(3)
H22 H 0.0951 -0.0872 0.1680
C34 C -0.0112(3) -0.1273(3) -0.0253(3)
C35 C 0.1674(4) -0.0462(5) 0.2442(3)
H23 H 0.1516 -0.0751 0.2670
C36 C 0.1859(4) 0.1312(5) 0.3795(3)
H24 H 0.1652 0.1292 0.3394
N1 N 0.2220(2) 0.1346(3) -0.0884(2)
N2 N -0.1286(2) -0.2192(3) -0.0825(2)
N3 N 0.2206(3) 0.0002(4) 0.2709(2)
N4 N 0.0740(2) -0.0393(3) -0.0279(2)
N5 N 0.0747(2) -0.0726(3) 0.0626(2)
N6 N 0.1558(2) 0.0175(3) 0.0587(2)
N7 N 0.2438(3) 0.0910(3) 0.4072(2)
N8 N -0.1080(3) 0.4352(3) 0.4220(2)
N9 N 0.2464(3) 0.2230(4) 0.7711(2)
N10 N 0.0971(2) 0.2608(3) 0.4727(2)
N11 N 0.1036(2) 0.2993(3) 0.5640(2)
N12 N 0.1861(2) 0.2126(3) 0.5584(2)
Ag1_2 Ag 0.27371(2) 0.20896(4) 0.86808(2)
Ag1B Ag -0.22629(2) -0.29104(4) -0.13192(2)
Ag2B Ag -0.20461(3) 0.50244(4) 0.36756(2)
N2B N 0.3714(2) 0.2808(3) -0.0825(2)
N8B N 0.3920(3) -0.0648(3) 0.4220(2)
N9_2 N 0.2464(3) 0.2230(4) -0.2289(2)
Mo1 Mo -0.0000 0.21623(6) -0.2500
Mo2 Mo 0.11203(2) 0.33998(3) -0.13945(2)
Mo3 Mo 0.11641(2) 0.54031(3) -0.14319(2)
Mo4 Mo 0.05155(2) 0.44338(3) -0.29086(2)
Mo5 Mo -0.0000 0.65236(6) -0.2500
O1 O -0.0194(4) 0.1556(6) -0.2059(5)
O2 O 0.0785(2) 0.2662(3) -0.2063(2)
O3 O 0.1106(3) 0.2793(4) -0.0865(2)
O4 O 0.1928(3) 0.3329(4) -0.1306(2)
O5 O 0.0886(3) 0.4362(3) -0.2148(2)
O6 O 0.0032(2) 0.3561(3) -0.3222(2)
O7 O 0.1097(3) 0.4486(3) -0.3176(3)
O8 O -0.0005(2) 0.5315(3) -0.3148(2)
O9 O 0.1100(2) 0.4401(3) -0.1070(2)
O10 O 0.1992(3) 0.5376(4) -0.1293(3)
O11 O 0.0867(2) 0.6075(3) -0.2115(2)
O12 O 0.1146(3) 0.6032(4) -0.0929(2)
O13 O -0.0089(3) 0.7131(4) -0.2009(3)
Mo2A Mo -0.11203(2) 0.33998(3) -0.36055(2)
Mo3A Mo -0.11641(2) 0.54031(3) -0.35681(2)
Mo4A Mo -0.05155(2) 0.44338(3) -0.20914(2)
O1A O 0.0194(4) 0.1556(6) -0.2941(5)
O2A O -0.0785(2) 0.2662(3) -0.2937(2)
O3A O -0.1106(3) 0.2793(4) -0.4135(2)
O4A O -0.1928(3) 0.3329(4) -0.3694(2)
O5A O -0.0886(3) 0.4362(3) -0.2852(2)
O6A O -0.0032(2) 0.3561(3) -0.1778(2)
O7A O -0.1097(3) 0.4486(3) -0.1824(3)
O8A O 0.0005(2) 0.5315(3) -0.1852(2)
O9A O -0.1100(2) 0.4401(3) -0.3930(2)
O10A O -0.1992(3) 0.5376(4) -0.3707(3)
O11A O -0.0867(2) 0.6075(3) -0.2885(2)
O12A O -0.1146(3) 0.6032(4) -0.4071(2)
O13A O 0.0089(3) 0.7131(4) -0.2991(3)
loop_
_geom_bond_atom_site_label_1
_geom_bond_atom_site_label_2
_geom_bond_site_symmetry_1
_geom_bond_site_symmetry_2
Ag1 N1 1_555 1_555
Ag2 N3 1_555 1_555
C1 H1 1_555 1_555
C2 C15 1_555 1_555
C3 H2 1_555 1_555
C4 C11 1_555 1_555
C5 H3 1_555 1_555
C6 H4 1_555 1_555
C7 C24 1_555 1_555
C8 H5 1_555 1_555
C9 C8 1_555 1_555
H6 C9 1_555 1_555
C10 H7 1_555 1_555
C11 C3 1_555 1_555
C12 C13 1_555 1_555
C13 C32 1_555 1_555
C14 C6 1_555 1_555
H8 C14 1_555 1_555
C15 C8 1_555 1_555
C16 C20 1_555 1_555
C17 C10 1_555 1_555
H9 C17 1_555 1_555
C18 C1 1_555 1_555
H10 C18 1_555 1_555
C19 H11 1_555 1_555
C20 H12 1_555 1_555
C21 C34 1_555 1_555
C22 C20 1_555 1_555
H13 C22 1_555 1_555
C23 C3 1_555 1_555
H14 C23 1_555 1_555
C24 C5 1_555 1_555
C25 C16 1_555 1_555
H15 C25 1_555 1_555
C26 C16 1_555 1_555
C27 C19 1_555 1_555
H16 C27 1_555 1_555
C28 C25 1_555 1_555
H17 C28 1_555 1_555
C29 C15 1_555 1_555
H18 C29 1_555 1_555
C30 C5 1_555 1_555
H19 C30 1_555 1_555
C31 H20 1_555 1_555
C32 C31 1_555 1_555
H21 C32 1_555 1_555
C33 C13 1_555 1_555
H22 C33 1_555 1_555
C34 C14 1_555 1_555
C35 C33 1_555 1_555
H23 C35 1_555 1_555
C36 C29 1_555 1_555
H24 C36 1_555 1_555
N1 C17 1_555 1_555
N2 C6 1_555 1_555
N3 C31 1_555 1_555
N4 C4 1_555 1_555
N5 C12 1_555 1_555
N6 C4 1_555 1_555
N7 Ag2 1_555 1_555
N8 C1 1_555 1_555
N9 C22 1_555 1_555
N10 C2 1_555 1_555
N11 C7 1_555 1_555
N12 C2 1_555 1_555
Mo1 O1 1_555 1_555
Mo2 O2 1_555 1_555
Mo3 O5 1_555 1_555
Mo4 O5 1_555 1_555
Mo5 O8 1_555 1_555
O2 Mo1 1_555 1_555
O3 Mo2 1_555 1_555
O4 Mo2 1_555 1_555
O5 Mo2 1_555 1_555
O6 Mo4 1_555 1_555
O7 Mo4 1_555 1_555
O8 Mo4 1_555 1_555
O9 Mo2 1_555 1_555
O10 Mo3 1_555 1_555
O11 Mo3 1_555 1_555
O12 Mo3 1_555 1_555
O13 Mo5 1_555 1_555
Ag1_2 N9 1_555 1_555
Ag1B N2 1_555 1_555
Ag2B N8 1_555 1_555
N2B Ag1 1_555 1_555
N8B Ag2 1_555 1_555
N9_2 Ag1 1_555 1_555
Mo2A O6 1_555 1_555
Mo3A O8 1_555 1_555
Mo4A O5A 1_555 1_555
O1A Mo1 1_555 1_555
O2A Mo1 1_555 1_555
O3A Mo2A 1_555 1_555
O4A Mo2A 1_555 1_555
O5A Mo2A 1_555 1_555
O6A Mo2 1_555 1_555
O7A Mo4A 1_555 1_555
O8A Mo3 1_555 1_555
O9A Mo2A 1_555 1_555
O10A Mo3A 1_555 1_555
O11A Mo5 1_555 1_555
O12A Mo3A 1_555 1_555
O13A Mo5 1_555 1_555
C7 N10 1_555 1_555
C9 N7 1_555 1_555
C10 C11 1_555 1_555
C12 N6 1_555 1_555
C18 C24 1_555 1_555
C19 C34 1_555 1_555
C21 N4 1_555 1_555
C21 N5 1_555 1_555
C23 N1 1_555 1_555
C26 N11 1_555 1_555
C26 N12 1_555 1_555
C27 N2 1_555 1_555
C28 N9 1_555 1_555
C30 N8 1_555 1_555
C35 N3 1_555 1_555
C36 N7 1_555 1_555
Mo3 O9 1_555 1_555
Mo5 O11 1_555 1_555
Mo5 O8A 1_555 1_555
Mo2A O2A 1_555 1_555
Mo3A O5A 1_555 1_555
Mo3A O9A 1_555 1_555
Mo3A O11A 1_555 1_555
Mo4A O6A 1_555 1_555
Mo4A O8A 1_555 1_555

#END
