
#######################################################################
#
#                 Cambridge Crystallographic Data Centre
#                                CCDC 
#
#######################################################################
#
# If this CIF has been generated from an entry in the Cambridge 
# Structural Database, then it will include bibliographic, chemical, 
# crystal, experimental, refinement or atomic coordinate data resulting 
# from the CCDC's data processing and validation procedures.
#
#######################################################################

data_MIDRAT
_chemical_formula_moiety         '(C21 H24 N2 O5 S2 Zn1)n'
_symmetry_cell_setting           tetragonal
_symmetry_space_group_name_H-M   'P 41 21 2'
_symmetry_Int_Tables_number      92
_space_group_name_Hall           'P 4abw 2nw'
loop_
_symmetry_equiv_pos_site_id
_symmetry_equiv_pos_as_xyz
1 x,y,z
2 -x,-y,1/2+z
3 1/2+x,1/2-y,3/4-z
4 1/2-x,1/2+y,1/4-z
5 -y,-x,1/2-z
6 y,x,-z
7 1/2+y,1/2-x,3/4+z
8 1/2-y,1/2+x,1/4+z
_cell_length_a                   14.8219(6)
_cell_length_b                   14.8219(6)
_cell_length_c                   11.5312(7)
_cell_angle_alpha                90
_cell_angle_beta                 90
_cell_angle_gamma                90
_cell_volume                     2533.27
loop_
_atom_site_label
_atom_site_type_symbol
_atom_site_fract_x
_atom_site_fract_y
_atom_site_fract_z
_atom_site_U_iso_or_equiv
_atom_site_thermal_displace_type
C1 C 0.6389(2) 0.90823(17) 0.4768(3) 0.0403 Uani
H1 H 0.6335 0.9106 0.5614 0.0600 Uiso
H2 H 0.5923 0.9463 0.4416 0.0600 Uiso
H3 H 0.6987 0.9302 0.4537 0.0600 Uiso
C2 C 0.62727(15) 0.81215(15) 0.4362(2) 0.0273 Uani
C3 C 0.63377(15) 0.79283(15) 0.3147(2) 0.0253 Uani
C4 C 0.62052(16) 0.70573(16) 0.2658(2) 0.0288 Uani
C5 C 0.6279(3) 0.6926(2) 0.1372(3) 0.0486 Uani
H4 H 0.6887 0.7090 0.1115 0.0730 Uiso
H5 H 0.5835 0.7309 0.0979 0.0730 Uiso
H6 H 0.6162 0.6292 0.1182 0.0730 Uiso
C6 C 0.78162(14) 0.87895(17) 0.2234(2) 0.0256 Uani
C7 C 0.83034(17) 0.82248(19) 0.2977(3) 0.0371 Uani
H7 H 0.8000 0.7816 0.3477 0.0450 Uiso
C8 C 0.92278(18) 0.8273(2) 0.2969(3) 0.0421 Uani
H8 H 0.9553 0.7876 0.3462 0.0500 Uiso
C9 C 0.92268(16) 0.93772(16) 0.1580(2) 0.0273 Uani
H9 H 0.9549 0.9773 0.1082 0.0330 Uiso
C10 C 0.82992(17) 0.93737(17) 0.1523(2) 0.0280 Uani
H10 H 0.7992 0.9766 0.1004 0.0340 Uiso
N1 N 0.96999(13) 0.88477(15) 0.2306(2) 0.0312 Uani
O1 O 0.61299(13) 0.75395(11) 0.51287(16) 0.0322 Uani
O2 O 0.60267(11) 0.63513(11) 0.32397(17) 0.0310 Uani
S1 S 0.66294(4) 0.88142(4) 0.22021(6) 0.0297 Uani
Zn1 Zn 1.112526(17) 0.887474(17) 0.2500 0.0272 Uani
C1D C 1.09177(17) 1.3611(2) 0.0232(3) 0.0403 Uani
H1D H 1.0894 1.3665 -0.0614 0.0600 Uiso
H2D H 1.0537 1.4077 0.0584 0.0600 Uiso
H3D H 1.0698 1.3013 0.0463 0.0600 Uiso
C2D C 1.18785(15) 1.37273(15) 0.0638(2) 0.0273 Uani
C3D C 1.20717(15) 1.36623(15) 0.1853(2) 0.0253 Uani
C4D C 1.29427(16) 1.37948(16) 0.2342(2) 0.0288 Uani
C5D C 1.3074(2) 1.3721(3) 0.3628(3) 0.0486 Uani
H4D H 1.2910 1.3113 0.3885 0.0730 Uiso
H5D H 1.2691 1.4165 0.4021 0.0730 Uiso
H6D H 1.3708 1.3838 0.3818 0.0730 Uiso
C6D C 1.12105(17) 1.21838(14) 0.2766(2) 0.0256 Uani
C7D C 1.17752(19) 1.16966(17) 0.2023(3) 0.0371 Uani
H7D H 1.2184 1.2000 0.1523 0.0450 Uiso
C8D C 1.1727(2) 1.07722(18) 0.2031(3) 0.0421 Uani
H8D H 1.2124 1.0447 0.1538 0.0500 Uiso
C9D C 1.06228(16) 1.07732(16) 0.3420(2) 0.0273 Uani
H9D H 1.0227 1.0451 0.3918 0.0330 Uiso
C10D C 1.06263(17) 1.17008(17) 0.3477(2) 0.0280 Uani
H10D H 1.0234 1.2008 0.3996 0.0340 Uiso
N1D N 1.11523(15) 1.03001(13) 0.2694(2) 0.0312 Uani
O1D O 1.24605(11) 1.38701(13) -0.01287(16) 0.0322 Uani
O1B O 1.11299(13) 0.74605(11) 0.23713(16) 0.0322 Uani
O1F O 1.25395(11) 0.88701(13) 0.26287(16) 0.0322 Uani
O2D O 1.36487(11) 1.39733(11) 0.17603(17) 0.0310 Uani
O2B O 1.10267(11) 0.86487(11) 0.42603(17) 0.0310 Uani
O2F O 1.13513(11) 0.89733(11) 0.07397(17) 0.0310 Uani
S1D S 1.11858(4) 1.33706(4) 0.27979(6) 0.0297 Uani
Zn1B Zn 0.612526(17) 0.612526(17) 0.5000 0.0272 Uani
Zn1C Zn 1.387474(17) 1.387474(17) 0.0000 0.0272 Uani
C11 C 1.1430(5) 0.5630(4) 0.8394(5) 0.1077 Uani
H11 H 1.1236 0.5507 0.9191 0.1610 Uiso
H12 H 1.0903 0.5790 0.7922 0.1610 Uiso
H13 H 1.1861 0.6131 0.8392 0.1610 Uiso
O3 O 1.1870(3) 0.4806(3) 0.7899(3) 0.1030 Uani
H14 H 1.222(4) 0.450(3) 0.847(3) 0.1540 Uiso
loop_
_atom_site_aniso_label
_atom_site_aniso_U_11
_atom_site_aniso_U_22
_atom_site_aniso_U_33
_atom_site_aniso_U_23
_atom_site_aniso_U_13
_atom_site_aniso_U_12
C1 0.0554 0.0189 0.0465 -0.0025 0.0031 -0.0057
C2 0.0172 0.0191 0.0456 -0.0009 0.0051 -0.0023
C3 0.0162 0.0201 0.0395 0.0025 -0.0007 -0.001
C4 0.0179 0.025 0.0436 -0.0014 -0.0044 0.0005
C5 0.066 0.0353 0.0445 -0.0084 -0.0035 -0.0047
C6 0.0177 0.0222 0.0369 0.002 -0.0017 0.0004
C7 0.0196 0.0351 0.0565 0.0204 -0.0026 -0.0019
C8 0.0215 0.0358 0.069 0.0272 -0.0034 0.0003
C9 0.0224 0.0238 0.0356 0.0054 0.0025 -0.0026
C10 0.0233 0.0254 0.0353 0.0058 -0.0031 -0.0018
N1 0.0195 0.0231 0.0509 0.0089 0.0026 0.0012
O1 0.0346 0.0205 0.0415 -0.0003 0.0065 -0.0012
O2 0.0269 0.0205 0.0456 -0.0021 -0.004 -0.0029
S1 0.0184 0.0268 0.0439 0.0077 -0.0037 -0.0006
Zn1 0.01744(13) 0.01744(13) 0.0466(2) 0.00337(11) 0.00337(11) 0.00106(14)
C1D 0.0189 0.0554 0.0465 0.0031 -0.0025 -0.0057
C2D 0.0191 0.0172 0.0456 0.0051 -0.0009 -0.0023
C3D 0.0201 0.0162 0.0395 -0.0007 0.0025 -0.001
C4D 0.025 0.0179 0.0436 -0.0044 -0.0014 0.0005
C5D 0.0353 0.066 0.0445 -0.0035 -0.0084 -0.0047
C6D 0.0222 0.0177 0.0369 -0.0017 0.002 0.0004
C7D 0.0351 0.0196 0.0565 -0.0026 0.0204 -0.0019
C8D 0.0358 0.0215 0.069 -0.0034 0.0272 0.0003
C9D 0.0238 0.0224 0.0356 0.0025 0.0054 -0.0026
C10D 0.0254 0.0233 0.0353 -0.0031 0.0058 -0.0018
N1D 0.0231 0.0195 0.0509 0.0026 0.0089 0.0012
O1D 0.0205 0.0346 0.0415 0.0065 -0.0003 -0.0012
O1B 0.0346(10) 0.0205(8) 0.0415(10) -0.0003(7) -0.0065(10) 0.0012(7)
O1F 0.0205 0.0346 0.0415 -0.0065 -0.0003 0.0012
O2D 0.0205 0.0269 0.0456 -0.004 -0.0021 -0.0029
O2B 0.0269(8) 0.0205(8) 0.0456(10) -0.0021(7) 0.0040(7) 0.0029(6)
O2F 0.0205 0.0269 0.0456 0.004 -0.0021 0.0029
S1D 0.0268 0.0184 0.0439 -0.0037 0.0077 -0.0006
Zn1B 0.01744 0.01744 0.0466 0.00337 -0.00337 -0.00106
Zn1C 0.01744 0.01744 0.0466 -0.00337 0.00337 -0.00106
C11 0.140(6) 0.108(5) 0.075(3) 0.022(3) -0.007(3) 0.040(4)
O3 0.098(3) 0.131(3) 0.080(2) 0.040(2) 0.014(2) 0.021(2)
loop_
_geom_bond_atom_site_label_1
_geom_bond_atom_site_label_2
_geom_bond_site_symmetry_1
_geom_bond_site_symmetry_2
C1 H1 1_555 1_555
H2 C1 1_555 1_555
H3 C1 1_555 1_555
C2 C1 1_555 1_555
C3 C2 1_555 1_555
C4 C3 1_555 1_555
C5 C4 1_555 1_555
H4 C5 1_555 1_555
H5 C5 1_555 1_555
H6 C5 1_555 1_555
C6 C7 1_555 1_555
C7 H7 1_555 1_555
C8 C7 1_555 1_555
H8 C8 1_555 1_555
C9 H9 1_555 1_555
C10 C6 1_555 1_555
H10 C10 1_555 1_555
C11 H11 1_555 1_555
H12 C11 1_555 1_555
H13 C11 1_555 1_555
N1 C8 1_555 1_555
O1 C2 1_555 1_555
O2 C4 1_555 1_555
O3 C11 1_555 1_555
H14 O3 1_555 1_555
S1 C3 1_555 1_555
Zn1 N1 1_555 1_555
C1D H1D 1_555 1_555
H2D C1D 1_555 1_555
H3D C1D 1_555 1_555
C2D C1D 1_555 1_555
C3D C2D 1_555 1_555
C4D C3D 1_555 1_555
C5D C4D 1_555 1_555
H4D C5D 1_555 1_555
H5D C5D 1_555 1_555
H6D C5D 1_555 1_555
C6D C7D 1_555 1_555
C7D H7D 1_555 1_555
C8D C7D 1_555 1_555
H8D C8D 1_555 1_555
C9D H9D 1_555 1_555
C10D C6D 1_555 1_555
H10D C10D 1_555 1_555
N1D Zn1 1_555 1_555
O1D C2D 1_555 1_555
O1B Zn1 1_555 1_555
O1F Zn1 1_555 1_555
O2D C4D 1_555 1_555
O2B Zn1 1_555 1_555
O2F Zn1 1_555 1_555
S1D C3D 1_555 1_555
Zn1B O1 1_555 1_555
Zn1C O1D 1_555 1_555
C6 S1 1_555 1_555
C9 C10 1_555 1_555
C9 N1 1_555 1_555
O2 Zn1B 1_555 1_555
C6D S1D 1_555 1_555
C8D N1D 1_555 1_555
C9D C10D 1_555 1_555
C9D N1D 1_555 1_555
O2D Zn1C 1_555 1_555

#END
