
#######################################################################
#
#                 Cambridge Crystallographic Data Centre
#                                CCDC 
#
#######################################################################
#
# If this CIF has been generated from an entry in the Cambridge 
# Structural Database, then it will include bibliographic, chemical, 
# crystal, experimental, refinement or atomic coordinate data resulting 
# from the CCDC's data processing and validation procedures.
#
#######################################################################

data_JAMTEZ
_chemical_formula_moiety         '(C48 H36 N60 O24 Zn9)n'
_symmetry_cell_setting           cubic
_symmetry_space_group_name_H-M   'F d -3'
_symmetry_Int_Tables_number      203
_space_group_name_Hall           '-F 2uv 2vw 3'
loop_
_symmetry_equiv_pos_site_id
_symmetry_equiv_pos_as_xyz
1 x,y,z
2 1/4-x,1/4-y,z
3 x,1/4-y,1/4-z
4 1/4-x,y,1/4-z
5 z,x,y
6 1/4-z,1/4-x,y
7 z,1/4-x,1/4-y
8 1/4-z,x,1/4-y
9 y,z,x
10 y,1/4-z,1/4-x
11 1/4-y,z,1/4-x
12 1/4-y,1/4-z,x
13 x,1/2+y,1/2+z
14 1/4-x,3/4-y,1/2+z
15 x,3/4-y,3/4-z
16 1/4-x,1/2+y,3/4-z
17 z,1/2+x,1/2+y
18 1/4-z,3/4-x,1/2+y
19 z,3/4-x,3/4-y
20 1/4-z,1/2+x,3/4-y
21 y,1/2+z,1/2+x
22 y,3/4-z,3/4-x
23 1/4-y,1/2+z,3/4-x
24 1/4-y,3/4-z,1/2+x
25 1/2+x,y,1/2+z
26 3/4-x,1/4-y,1/2+z
27 1/2+x,1/4-y,3/4-z
28 3/4-x,y,3/4-z
29 1/2+z,x,1/2+y
30 3/4-z,1/4-x,1/2+y
31 1/2+z,1/4-x,3/4-y
32 3/4-z,x,3/4-y
33 1/2+y,z,1/2+x
34 1/2+y,1/4-z,3/4-x
35 3/4-y,z,3/4-x
36 3/4-y,1/4-z,1/2+x
37 1/2+x,1/2+y,z
38 3/4-x,3/4-y,z
39 1/2+x,3/4-y,1/4-z
40 3/4-x,1/2+y,1/4-z
41 1/2+z,1/2+x,y
42 3/4-z,3/4-x,y
43 1/2+z,3/4-x,1/4-y
44 3/4-z,1/2+x,1/4-y
45 1/2+y,1/2+z,x
46 1/2+y,3/4-z,1/4-x
47 3/4-y,1/2+z,1/4-x
48 3/4-y,3/4-z,x
49 -x,-y,-z
50 3/4+x,3/4+y,-z
51 -x,3/4+y,3/4+z
52 3/4+x,-y,3/4+z
53 -z,-x,-y
54 3/4+z,3/4+x,-y
55 -z,3/4+x,3/4+y
56 3/4+z,-x,3/4+y
57 -y,-z,-x
58 -y,3/4+z,3/4+x
59 3/4+y,-z,3/4+x
60 3/4+y,3/4+z,-x
61 -x,1/2-y,1/2-z
62 3/4+x,1/4+y,1/2-z
63 -x,1/4+y,1/4+z
64 3/4+x,1/2-y,1/4+z
65 -z,1/2-x,1/2-y
66 3/4+z,1/4+x,1/2-y
67 -z,1/4+x,1/4+y
68 3/4+z,1/2-x,1/4+y
69 -y,1/2-z,1/2-x
70 -y,1/4+z,1/4+x
71 3/4+y,1/2-z,1/4+x
72 3/4+y,1/4+z,1/2-x
73 1/2-x,-y,1/2-z
74 1/4+x,3/4+y,1/2-z
75 1/2-x,3/4+y,1/4+z
76 1/4+x,-y,1/4+z
77 1/2-z,-x,1/2-y
78 1/4+z,3/4+x,1/2-y
79 1/2-z,3/4+x,1/4+y
80 1/4+z,-x,1/4+y
81 1/2-y,-z,1/2-x
82 1/2-y,3/4+z,1/4+x
83 1/4+y,-z,1/4+x
84 1/4+y,3/4+z,1/2-x
85 1/2-x,1/2-y,-z
86 1/4+x,1/4+y,-z
87 1/2-x,1/4+y,3/4+z
88 1/4+x,1/2-y,3/4+z
89 1/2-z,1/2-x,-y
90 1/4+z,1/4+x,-y
91 1/2-z,1/4+x,3/4+y
92 1/4+z,1/2-x,3/4+y
93 1/2-y,1/2-z,-x
94 1/2-y,1/4+z,3/4+x
95 1/4+y,1/2-z,3/4+x
96 1/4+y,1/4+z,-x
_cell_length_a                   41.393(2)
_cell_length_b                   41.393(2)
_cell_length_c                   41.393(2)
_cell_angle_alpha                90
_cell_angle_beta                 90
_cell_angle_gamma                90
_cell_volume                     70922
loop_
_atom_site_label
_atom_site_type_symbol
_atom_site_fract_x
_atom_site_fract_y
_atom_site_fract_z
_atom_site_U_iso_or_equiv
_atom_site_thermal_displace_type
Zn1 Zn 0.703894(13) -0.122482(12) 0.033515(14) 0.0163 Uani
Zn2 Zn 0.6250 -0.03620(2) 0.1250 0.0353 Uani
O1 O 0.72694(9) -0.09204(9) 0.00598(9) 0.0303 Uani
N1 N 0.68120(10) -0.15095(11) 0.00182(11) 0.0243 Uani
N2 N 0.67333(11) -0.09742(11) 0.06096(11) 0.0287 Uani
N3 N 0.65358(10) -0.18806(12) -0.02371(11) 0.0293 Uani
C1 C 0.75909(12) -0.04519(11) -0.00113(12) 0.0223 Uani
O2 O 0.75634(9) -0.07549(10) 0.04789(9) 0.0310 Uani
C2 C 0.74746(12) -0.07314(12) 0.01986(13) 0.0247 Uani
C3 C 0.65386(12) -0.16719(12) 0.00098(12) 0.0223 Uani
C4 C 0.67408(14) -0.07232(13) 0.08078(14) 0.0300 Uani
N4 N 0.69899(17) -0.1618(2) -0.02293(19) 0.0867 Uani
N5 N 0.69918(19) -0.0526(2) 0.0842(2) 0.1103 Uani
H1 H 0.6974 -0.0354 0.0957 0.1330 Uiso
H2 H 0.7173 -0.0571 0.0750 0.1330 Uiso
N6 N 0.63037(17) -0.1650(2) 0.0227(2) 0.1073 Uani
H3 H 0.6324 -0.1522 0.0389 0.1290 Uiso
H4 H 0.6131 -0.1764 0.0206 0.1290 Uiso
N7 N 0.64631(12) -0.06654(11) 0.09424(13) 0.0357 Uani
N8 N 0.62660(15) -0.0898(2) 0.0822(3) 0.0973 Uani
N9 N 0.68321(19) -0.1837(2) -0.0379(2) 0.0993 Uani
C5 C 0.78611(12) -0.02780(12) 0.00857(12) 0.0217 Uani
H5 H 0.7978 -0.0341 0.0267 0.0260 Uiso
O3 O 0.60225(19) -0.00781(14) 0.09631(16) 0.0920 Uani
N10 N 0.64254(15) -0.10862(19) 0.0645(2) 0.0813 Uani
C6 C 0.5891(2) 0.0419(3) 0.0562(2) 0.0950 Uani
H6 H 0.6056 0.0276 0.0507 0.1140 Uiso
O4 O 0.5612(3) 0.0041(2) 0.1287(2) 0.1447 Uani
C7 C 0.5703(3) 0.0371(2) 0.0823(3) 0.0960 Uani
C8 C 0.5773(3) 0.0084(3) 0.1036(3) 0.1150 Uani
O1HA O 0.84204(9) 0.00598(9) 0.02306(9) 0.0303 Uani
C1HA C 0.79519(11) -0.00113(12) -0.00909(12) 0.0223 Uani
O2HA O 0.82549(10) 0.04789(9) -0.00634(9) 0.0310 Uani
C2HA C 0.82314(12) 0.01986(13) 0.00254(12) 0.0247 Uani
C5HA C 0.77780(12) 0.00857(12) -0.03611(12) 0.0217 Uani
H5HA H 0.7841 0.0267 -0.0478 0.0260 Uiso
O1OA O 0.74402(9) 0.02306(9) -0.09204(9) 0.0303 Uani
C1OA C 0.75113(12) -0.00909(12) -0.04519(11) 0.0223 Uani
O2OA O 0.70211(9) -0.00634(9) -0.07549(10) 0.0310 Uani
C2OA C 0.73014(13) 0.00254(12) -0.07314(12) 0.0247 Uani
C5OA C 0.74143(12) -0.03611(12) -0.02780(12) 0.0217 Uani
H5OA H 0.7233 -0.0478 -0.0341 0.0260 Uiso
O3FA O 0.49219(14) 0.09631(16) 0.10225(19) 0.0920 Uani
C6FA C 0.5419(3) 0.0562(2) 0.0891(2) 0.0950 Uani
H6FA H 0.5276 0.0507 0.1056 0.1140 Uiso
O4FA O 0.5041(2) 0.1287(2) 0.0612(3) 0.1447 Uani
C7FA C 0.5371(2) 0.0823(3) 0.0703(3) 0.0960 Uani
C8FA C 0.5084(3) 0.1036(3) 0.0773(3) 0.1150 Uani
O3NA O 0.59631(16) 0.10225(19) -0.00781(14) 0.0920 Uani
C6NA C 0.5562(2) 0.0891(2) 0.0419(3) 0.0950 Uani
H6NA H 0.5507 0.1056 0.0276 0.1140 Uiso
O4NA O 0.6287(2) 0.0612(3) 0.0041(2) 0.1447 Uani
C7NA C 0.5823(3) 0.0703(3) 0.0371(2) 0.0960 Uani
C8NA C 0.6036(3) 0.0773(3) 0.0084(3) 0.1150 Uani
Zn1C Zn 0.546106(13) -0.122482(12) 0.216485(14) 0.0163 Uani
O1C O 0.52306(9) -0.09204(9) 0.24402(9) 0.0303 Uani
N1C N 0.56880(10) -0.15095(11) 0.24818(11) 0.0243 Uani
N2C N 0.57667(11) -0.09742(11) 0.18904(11) 0.0287 Uani
N3C N 0.59642(10) -0.18806(12) 0.27371(11) 0.0293 Uani
C1C C 0.49091(12) -0.04519(11) 0.25113(12) 0.0223 Uani
O2C O 0.49366(9) -0.07549(10) 0.20211(9) 0.0310 Uani
C2C C 0.50254(12) -0.07314(12) 0.23014(13) 0.0247 Uani
C3C C 0.59614(12) -0.16719(12) 0.24902(12) 0.0223 Uani
C4C C 0.57592(14) -0.07232(13) 0.16922(14) 0.0300 Uani
N4C N 0.55101(17) -0.1618(2) 0.27293(19) 0.0867 Uani
N5C N 0.55082(19) -0.0526(2) 0.1658(2) 0.1103 Uani
H1C H 0.5526 -0.0354 0.1543 0.1330 Uiso
H2C H 0.5327 -0.0571 0.1750 0.1330 Uiso
N6C N 0.61963(17) -0.1650(2) 0.2273(2) 0.1073 Uani
H3C H 0.6176 -0.1522 0.2111 0.1290 Uiso
H4C H 0.6369 -0.1764 0.2294 0.1290 Uiso
N7C N 0.60369(12) -0.06654(11) 0.15576(13) 0.0357 Uani
N8C N 0.62340(15) -0.0898(2) 0.1678(3) 0.0973 Uani
N9C N 0.56679(19) -0.1837(2) 0.2879(2) 0.0993 Uani
C5C C 0.46389(12) -0.02780(12) 0.24143(12) 0.0217 Uani
H5C H 0.4522 -0.0341 0.2233 0.0260 Uiso
O3C O 0.64775(19) -0.00781(14) 0.15369(16) 0.0920 Uani
N10C N 0.60746(15) -0.10862(19) 0.1855(2) 0.0813 Uani
C6C C 0.6609(2) 0.0419(3) 0.1938(2) 0.0950 Uani
H6C H 0.6444 0.0276 0.1993 0.1140 Uiso
O4C O 0.6888(3) 0.0041(2) 0.1213(2) 0.1447 Uani
C7C C 0.6797(3) 0.0371(2) 0.1677(3) 0.0960 Uani
C8C C 0.6727(3) 0.0084(3) 0.1464(3) 0.1150 Uani
O1FA O 0.40796(9) 0.00598(9) 0.22694(9) 0.0303 Uani
C1FA C 0.45481(11) -0.00113(12) 0.25909(12) 0.0223 Uani
O2FA O 0.42451(10) 0.04789(9) 0.25634(9) 0.0310 Uani
C2FA C 0.42686(12) 0.01986(13) 0.24746(12) 0.0247 Uani
C5FA C 0.47220(12) 0.00857(12) 0.28611(12) 0.0217 Uani
H5FA H 0.4659 0.0267 0.2978 0.0260 Uiso
O1PA O 0.50598(9) 0.02306(9) 0.34204(9) 0.0303 Uani
C1PA C 0.49887(12) -0.00909(12) 0.29519(11) 0.0223 Uani
O2PA O 0.54789(9) -0.00634(9) 0.32549(10) 0.0310 Uani
C2PA C 0.51986(13) 0.00254(12) 0.32314(12) 0.0247 Uani
C5PA C 0.50857(12) -0.03611(12) 0.27780(12) 0.0217 Uani
H5PA H 0.5267 -0.0478 0.2841 0.0260 Uiso
O3HA O 0.75781(14) 0.09631(16) 0.14775(19) 0.0920 Uani
C6HA C 0.7081(3) 0.0562(2) 0.1609(2) 0.0950 Uani
H6HA H 0.7224 0.0507 0.1444 0.1140 Uiso
O4HA O 0.7459(2) 0.1287(2) 0.1888(3) 0.1447 Uani
C7HA C 0.7129(2) 0.0823(3) 0.1797(3) 0.0960 Uani
C8HA C 0.7416(3) 0.1036(3) 0.1727(3) 0.1150 Uani
O3QA O 0.65369(16) 0.10225(19) 0.25781(14) 0.0920 Uani
C6QA C 0.6938(2) 0.0891(2) 0.2081(3) 0.0950 Uani
H6QA H 0.6993 0.1056 0.2224 0.1140 Uiso
O4QA O 0.6213(2) 0.0612(3) 0.2459(2) 0.1447 Uani
C7QA C 0.6677(3) 0.0703(3) 0.2129(2) 0.0960 Uani
C8QA C 0.6464(3) 0.0773(3) 0.2416(3) 0.1150 Uani
Zn1FA Zn 0.377518(12) 0.033515(14) 0.203894(13) 0.0163 Uani
Zn2FA Zn 0.46380(2) 0.1250 0.1250 0.0353 Uani
N1FA N 0.34905(11) 0.00182(11) 0.18120(10) 0.0243 Uani
N2FA N 0.40258(11) 0.06096(11) 0.17333(11) 0.0287 Uani
N3FA N 0.31194(12) -0.02371(11) 0.15358(10) 0.0293 Uani
C3FA C 0.33281(12) 0.00098(12) 0.15386(12) 0.0223 Uani
C4FA C 0.42768(13) 0.08078(14) 0.17408(14) 0.0300 Uani
N4FA N 0.3382(2) -0.02293(19) 0.19899(17) 0.0867 Uani
N5FA N 0.4474(2) 0.0842(2) 0.19918(19) 0.1103 Uani
H1FA H 0.4646 0.0957 0.1974 0.1330 Uiso
H2FA H 0.4429 0.0750 0.2173 0.1330 Uiso
N6FA N 0.3350(2) 0.0227(2) 0.13037(17) 0.1073 Uani
H3FA H 0.3478 0.0389 0.1324 0.1290 Uiso
H4FA H 0.3236 0.0206 0.1131 0.1290 Uiso
N7FA N 0.43346(11) 0.09424(13) 0.14631(12) 0.0357 Uani
N8FA N 0.4102(2) 0.0822(3) 0.12660(15) 0.0973 Uani
N9FA N 0.3163(2) -0.0379(2) 0.18321(19) 0.0993 Uani
N10FA N 0.39138(19) 0.0645(2) 0.14254(15) 0.0813 Uani
Zn1GA Zn 0.377518(12) 0.216485(14) 0.046106(13) 0.0163 Uani
N1GA N 0.34905(11) 0.24818(11) 0.06880(10) 0.0243 Uani
N2GA N 0.40258(11) 0.18904(11) 0.07667(11) 0.0287 Uani
N3GA N 0.31194(12) 0.27371(11) 0.09642(10) 0.0293 Uani
C3GA C 0.33281(12) 0.24902(12) 0.09614(12) 0.0223 Uani
C4GA C 0.42768(13) 0.16922(14) 0.07592(14) 0.0300 Uani
N4GA N 0.3382(2) 0.27293(19) 0.05101(17) 0.0867 Uani
N5GA N 0.4474(2) 0.1658(2) 0.05082(19) 0.1103 Uani
H1GA H 0.4646 0.1543 0.0526 0.1330 Uiso
H2GA H 0.4429 0.1750 0.0327 0.1330 Uiso
N6GA N 0.3350(2) 0.2273(2) 0.11963(17) 0.1073 Uani
H3GA H 0.3478 0.2111 0.1176 0.1290 Uiso
H4GA H 0.3236 0.2294 0.1369 0.1290 Uiso
N7GA N 0.43346(11) 0.15576(13) 0.10369(12) 0.0357 Uani
N8GA N 0.4102(2) 0.1678(3) 0.12340(15) 0.0973 Uani
N9GA N 0.3163(2) 0.2879(2) 0.06679(19) 0.0993 Uani
N10GA N 0.39138(19) 0.1855(2) 0.10746(15) 0.0813 Uani
Zn1HA Zn 0.872482(12) 0.033515(14) 0.046106(13) 0.0163 Uani
Zn2HA Zn 0.78620(2) 0.1250 0.1250 0.0353 Uani
N1HA N 0.90095(11) 0.00182(11) 0.06880(10) 0.0243 Uani
N2HA N 0.84742(11) 0.06096(11) 0.07667(11) 0.0287 Uani
N3HA N 0.93806(12) -0.02371(11) 0.09642(10) 0.0293 Uani
C3HA C 0.91719(12) 0.00098(12) 0.09614(12) 0.0223 Uani
C4HA C 0.82232(13) 0.08078(14) 0.07592(14) 0.0300 Uani
N4HA N 0.9118(2) -0.02293(19) 0.05101(17) 0.0867 Uani
N5HA N 0.8026(2) 0.0842(2) 0.05082(19) 0.1103 Uani
H1HA H 0.7854 0.0957 0.0526 0.1330 Uiso
H2HA H 0.8071 0.0750 0.0327 0.1330 Uiso
N6HA N 0.9150(2) 0.0227(2) 0.11963(17) 0.1073 Uani
H3HA H 0.9022 0.0389 0.1176 0.1290 Uiso
H4HA H 0.9264 0.0206 0.1369 0.1290 Uiso
N7HA N 0.81654(11) 0.09424(13) 0.10369(12) 0.0357 Uani
N8HA N 0.8398(2) 0.0822(3) 0.12340(15) 0.0973 Uani
N9HA N 0.9337(2) -0.0379(2) 0.06679(19) 0.0993 Uani
N10HA N 0.85862(19) 0.0645(2) 0.10746(15) 0.0813 Uani
Zn1IA Zn 0.872482(12) 0.216485(14) 0.203894(13) 0.0163 Uani
N1IA N 0.90095(11) 0.24818(11) 0.18120(10) 0.0243 Uani
N2IA N 0.84742(11) 0.18904(11) 0.17333(11) 0.0287 Uani
N3IA N 0.93806(12) 0.27371(11) 0.15358(10) 0.0293 Uani
C3IA C 0.91719(12) 0.24902(12) 0.15386(12) 0.0223 Uani
C4IA C 0.82232(13) 0.16922(14) 0.17408(14) 0.0300 Uani
N4IA N 0.9118(2) 0.27293(19) 0.19899(17) 0.0867 Uani
N5IA N 0.8026(2) 0.1658(2) 0.19918(19) 0.1103 Uani
H1IA H 0.7854 0.1543 0.1974 0.1330 Uiso
H2IA H 0.8071 0.1750 0.2173 0.1330 Uiso
N6IA N 0.9150(2) 0.2273(2) 0.13037(17) 0.1073 Uani
H3IA H 0.9022 0.2111 0.1324 0.1290 Uiso
H4IA H 0.9264 0.2294 0.1131 0.1290 Uiso
N7IA N 0.81654(11) 0.15576(13) 0.14631(12) 0.0357 Uani
N8IA N 0.8398(2) 0.1678(3) 0.12660(15) 0.0973 Uani
N9IA N 0.9337(2) 0.2879(2) 0.18321(19) 0.0993 Uani
N10IA N 0.85862(19) 0.1855(2) 0.14254(15) 0.0813 Uani
Zn1OA Zn 0.716485(14) 0.046106(13) -0.122482(12) 0.0163 Uani
Zn1PA Zn 0.533515(14) 0.046106(13) 0.372482(12) 0.0163 Uani
Zn1ZA Zn 0.966485(14) 0.296106(13) 0.122482(12) 0.0163 Uani
Zn1GB Zn 0.627518(12) -0.216485(14) 0.296106(13) 0.0163 Uani
Zn1NB Zn 0.966485(14) -0.046106(13) 0.127518(12) 0.0163 Uani
Zn1AC Zn 0.283515(14) 0.296106(13) 0.127518(12) 0.0163 Uani
Zn1CC Zn 0.622482(12) -0.216485(14) -0.046106(13) 0.0163 Uani
Zn1KC Zn 0.283515(14) -0.046106(13) 0.122482(12) 0.0163 Uani
Zn2NA Zn 0.6250 0.1250 -0.03620(2) 0.0353 Uani
Zn2PA Zn 0.6250 0.1250 0.28620(2) 0.0353 Uani
O1GA O 0.40796(9) 0.24402(9) 0.02306(9) 0.0303 Uani
O1IA O 0.84204(9) 0.24402(9) 0.22694(9) 0.0303 Uani
N3VA N 0.34642(10) 0.18806(12) 0.02371(11) 0.0293 Uani
N3JB N 0.34642(10) 0.06194(12) 0.22629(11) 0.0293 Uani
N3OB N 0.72629(11) -0.15358(10) 0.06194(12) 0.0293 Uani
N3WB N 0.90358(10) 0.18806(12) 0.22629(11) 0.0293 Uani
N3GC N 0.90358(10) 0.06194(12) 0.02371(11) 0.0293 Uani
N3JC N 0.52371(11) -0.15358(10) 0.18806(12) 0.0293 Uani
O3GA O 0.49219(14) 0.15369(16) 0.14775(19) 0.0920 Uani
O3IA O 0.75781(14) 0.15369(16) 0.10225(19) 0.0920 Uani
loop_
_atom_site_aniso_label
_atom_site_aniso_U_11
_atom_site_aniso_U_22
_atom_site_aniso_U_33
_atom_site_aniso_U_23
_atom_site_aniso_U_13
_atom_site_aniso_U_12
Zn1 0.0156(3) 0.0134(3) 0.0199(3) 0.00361(19) -0.0059(2) -0.00413(19)
Zn2 0.0462(7) 0.0193(5) 0.0403(6) 0.000 0.0147(4) 0.000
O1 0.032(2) 0.0249(19) 0.034(2) 0.0106(16) -0.0059(16) -0.0136(16)
N1 0.023(2) 0.028(2) 0.022(2) -0.0012(17) -0.0016(17) -0.0102(18)
N2 0.024(2) 0.029(2) 0.033(2) -0.0055(19) -0.0002(19) -0.0024(18)
N3 0.019(2) 0.042(3) 0.027(2) -0.016(2) 0.0078(17) -0.0150(19)
C1 0.026(2) 0.018(2) 0.023(2) 0.0058(19) -0.0080(19) -0.0092(19)
O2 0.031(2) 0.034(2) 0.028(2) 0.0149(16) -0.0030(16) -0.0047(16)
C2 0.023(2) 0.014(2) 0.037(3) 0.010(2) -0.007(2) -0.0016(18)
C3 0.024(2) 0.023(2) 0.020(2) -0.0083(19) -0.0010(19) -0.0067(19)
C4 0.036(3) 0.024(3) 0.030(3) -0.009(2) -0.009(2) -0.001(2)
N4 0.052(4) 0.129(6) 0.079(5) -0.069(5) 0.037(4) -0.064(4)
N5 0.064(5) 0.122(7) 0.145(8) -0.115(7) 0.055(5) -0.048(5)
N6 0.053(4) 0.134(7) 0.135(7) -0.111(6) 0.044(4) -0.063(4)
N7 0.036(3) 0.023(2) 0.048(3) -0.013(2) 0.005(2) -0.009(2)
N8 0.041(4) 0.103(6) 0.148(9) -0.104(7) 0.036(4) -0.033(4)
N9 0.073(5) 0.138(7) 0.087(5) -0.090(5) 0.051(4) -0.071(5)
C5 0.021(2) 0.023(2) 0.021(2) 0.0032(19) -0.0068(18) -0.0066(19)
O3 0.134(6) 0.059(4) 0.083(4) 0.045(3) 0.057(4) 0.067(4)
N10 0.032(3) 0.082(5) 0.130(7) -0.079(5) 0.030(4) -0.027(3)
C6 0.080(7) 0.121(9) 0.084(7) 0.057(6) 0.052(6) 0.062(6)
O4 0.162(8) 0.126(6) 0.146(7) 0.104(5) 0.103(6) 0.079(6)
C7 0.111(8) 0.083(6) 0.094(7) 0.065(6) 0.075(6) 0.074(6)
C8 0.135(10) 0.095(7) 0.115(9) 0.085(7) 0.099(8) 0.079(7)
O1HA 0.0249 0.034 0.032 0.0059 -0.0136 -0.0106
C1HA 0.018 0.023 0.026 0.008 -0.0092 -0.0058
O2HA 0.034 0.028 0.031 0.003 -0.0047 -0.0149
C2HA 0.014 0.037 0.023 0.007 -0.0016 -0.01
C5HA 0.023 0.021 0.021 0.0068 -0.0066 -0.0032
O1OA 0.034 0.032 0.0249 0.0136 -0.0106 -0.0059
C1OA 0.023 0.026 0.018 0.0092 -0.0058 -0.008
O2OA 0.028 0.031 0.034 0.0047 -0.0149 -0.003
C2OA 0.037 0.023 0.014 0.0016 -0.01 -0.007
C5OA 0.021 0.021 0.023 0.0066 -0.0032 -0.0068
O3FA 0.059 0.083 0.134 0.057 0.067 0.045
C6FA 0.121 0.084 0.08 0.052 0.062 0.057
O4FA 0.126 0.146 0.162 0.103 0.079 0.104
C7FA 0.083 0.094 0.111 0.075 0.074 0.065
C8FA 0.095 0.115 0.135 0.099 0.079 0.085
O3NA 0.083 0.134 0.059 0.067 0.045 0.057
C6NA 0.084 0.08 0.121 0.062 0.057 0.052
O4NA 0.146 0.162 0.126 0.079 0.104 0.103
C7NA 0.094 0.111 0.083 0.074 0.065 0.075
C8NA 0.115 0.135 0.095 0.079 0.085 0.099
Zn1C 0.0156 0.0134 0.0199 -0.00361 -0.0059 0.00413
O1C 0.032 0.0249 0.034 -0.0106 -0.0059 0.0136
N1C 0.023 0.028 0.022 0.0012 -0.0016 0.0102
N2C 0.024 0.029 0.033 0.0055 -0.0002 0.0024
N3C 0.019 0.042 0.027 0.016 0.0078 0.015
C1C 0.026 0.018 0.023 -0.0058 -0.008 0.0092
O2C 0.031 0.034 0.028 -0.0149 -0.003 0.0047
C2C 0.023 0.014 0.037 -0.01 -0.007 0.0016
C3C 0.024 0.023 0.02 0.0083 -0.001 0.0067
C4C 0.036 0.024 0.03 0.009 -0.009 0.001
N4C 0.052 0.129 0.079 0.069 0.037 0.064
N5C 0.064 0.122 0.145 0.115 0.055 0.048
N6C 0.053 0.134 0.135 0.111 0.044 0.063
N7C 0.036 0.023 0.048 0.013 0.005 0.009
N8C 0.041 0.103 0.148 0.104 0.036 0.033
N9C 0.073 0.138 0.087 0.09 0.051 0.071
C5C 0.021 0.023 0.021 -0.0032 -0.0068 0.0066
O3C 0.134 0.059 0.083 -0.045 0.057 -0.067
N10C 0.032 0.082 0.13 0.079 0.03 0.027
C6C 0.08 0.121 0.084 -0.057 0.052 -0.062
O4C 0.162 0.126 0.146 -0.104 0.103 -0.079
C7C 0.111 0.083 0.094 -0.065 0.075 -0.074
C8C 0.135 0.095 0.115 -0.085 0.099 -0.079
O1FA 0.0249 0.034 0.032 -0.0059 -0.0136 0.0106
C1FA 0.018 0.023 0.026 -0.008 -0.0092 0.0058
O2FA 0.034 0.028 0.031 -0.003 -0.0047 0.0149
C2FA 0.014 0.037 0.023 -0.007 -0.0016 0.01
C5FA 0.023 0.021 0.021 -0.0068 -0.0066 0.0032
O1PA 0.034 0.032 0.0249 -0.0136 -0.0106 0.0059
C1PA 0.023 0.026 0.018 -0.0092 -0.0058 0.008
O2PA 0.028 0.031 0.034 -0.0047 -0.0149 0.003
C2PA 0.037 0.023 0.014 -0.0016 -0.01 0.007
C5PA 0.021 0.021 0.023 -0.0066 -0.0032 0.0068
O3HA 0.059 0.083 0.134 -0.057 0.067 -0.045
C6HA 0.121 0.084 0.08 -0.052 0.062 -0.057
O4HA 0.126 0.146 0.162 -0.103 0.079 -0.104
C7HA 0.083 0.094 0.111 -0.075 0.074 -0.065
C8HA 0.095 0.115 0.135 -0.099 0.079 -0.085
O3QA 0.083 0.134 0.059 -0.067 0.045 -0.057
C6QA 0.084 0.08 0.121 -0.062 0.057 -0.052
O4QA 0.146 0.162 0.126 -0.079 0.104 -0.103
C7QA 0.094 0.111 0.083 -0.074 0.065 -0.075
C8QA 0.115 0.135 0.095 -0.079 0.085 -0.099
Zn1FA 0.0134 0.0199 0.0156 -0.0059 -0.00413 0.00361
Zn2FA 0.0193 0.0403 0.0462 0.0147 0 0
N1FA 0.028 0.022 0.023 -0.0016 -0.0102 -0.0012
N2FA 0.029 0.033 0.024 -0.0002 -0.0024 -0.0055
N3FA 0.042 0.027 0.019 0.0078 -0.015 -0.016
C3FA 0.023 0.02 0.024 -0.001 -0.0067 -0.0083
C4FA 0.024 0.03 0.036 -0.009 -0.001 -0.009
N4FA 0.129 0.079 0.052 0.037 -0.064 -0.069
N5FA 0.122 0.145 0.064 0.055 -0.048 -0.115
N6FA 0.134 0.135 0.053 0.044 -0.063 -0.111
N7FA 0.023 0.048 0.036 0.005 -0.009 -0.013
N8FA 0.103 0.148 0.041 0.036 -0.033 -0.104
N9FA 0.138 0.087 0.073 0.051 -0.071 -0.09
N10FA 0.082 0.13 0.032 0.03 -0.027 -0.079
Zn1GA 0.0134 0.0199 0.0156 -0.0059 0.00413 -0.00361
N1GA 0.028 0.022 0.023 -0.0016 0.0102 0.0012
N2GA 0.029 0.033 0.024 -0.0002 0.0024 0.0055
N3GA 0.042 0.027 0.019 0.0078 0.015 0.016
C3GA 0.023 0.02 0.024 -0.001 0.0067 0.0083
C4GA 0.024 0.03 0.036 -0.009 0.001 0.009
N4GA 0.129 0.079 0.052 0.037 0.064 0.069
N5GA 0.122 0.145 0.064 0.055 0.048 0.115
N6GA 0.134 0.135 0.053 0.044 0.063 0.111
N7GA 0.023 0.048 0.036 0.005 0.009 0.013
N8GA 0.103 0.148 0.041 0.036 0.033 0.104
N9GA 0.138 0.087 0.073 0.051 0.071 0.09
N10GA 0.082 0.13 0.032 0.03 0.027 0.079
Zn1HA 0.0134 0.0199 0.0156 0.0059 -0.00413 -0.00361
Zn2HA 0.0193 0.0403 0.0462 -0.0147 0 0
N1HA 0.028 0.022 0.023 0.0016 -0.0102 0.0012
N2HA 0.029 0.033 0.024 0.0002 -0.0024 0.0055
N3HA 0.042 0.027 0.019 -0.0078 -0.015 0.016
C3HA 0.023 0.02 0.024 0.001 -0.0067 0.0083
C4HA 0.024 0.03 0.036 0.009 -0.001 0.009
N4HA 0.129 0.079 0.052 -0.037 -0.064 0.069
N5HA 0.122 0.145 0.064 -0.055 -0.048 0.115
N6HA 0.134 0.135 0.053 -0.044 -0.063 0.111
N7HA 0.023 0.048 0.036 -0.005 -0.009 0.013
N8HA 0.103 0.148 0.041 -0.036 -0.033 0.104
N9HA 0.138 0.087 0.073 -0.051 -0.071 0.09
N10HA 0.082 0.13 0.032 -0.03 -0.027 0.079
Zn1IA 0.0134 0.0199 0.0156 0.0059 0.00413 0.00361
N1IA 0.028 0.022 0.023 0.0016 0.0102 -0.0012
N2IA 0.029 0.033 0.024 0.0002 0.0024 -0.0055
N3IA 0.042 0.027 0.019 -0.0078 0.015 -0.016
C3IA 0.023 0.02 0.024 0.001 0.0067 -0.0083
C4IA 0.024 0.03 0.036 0.009 0.001 -0.009
N4IA 0.129 0.079 0.052 -0.037 0.064 -0.069
N5IA 0.122 0.145 0.064 -0.055 0.048 -0.115
N6IA 0.134 0.135 0.053 -0.044 0.063 -0.111
N7IA 0.023 0.048 0.036 -0.005 0.009 -0.013
N8IA 0.103 0.148 0.041 -0.036 0.033 -0.104
N9IA 0.138 0.087 0.073 -0.051 0.071 -0.09
N10IA 0.082 0.13 0.032 -0.03 0.027 -0.079
Zn1OA 0.0199 0.0156 0.0134 0.00413 -0.00361 -0.0059
Zn1PA 0.0199 0.0156 0.0134 -0.00413 -0.00361 0.0059
Zn1ZA 0.0199 0.0156 0.0134 -0.00413 0.00361 -0.0059
Zn1GB 0.0134 0.0199 0.0156 0.0059 0.00413 0.00361
Zn1NB 0.0199 0.0156 0.0134 -0.00413 -0.00361 0.0059
Zn1AC 0.0199 0.0156 0.0134 0.00413 0.00361 0.0059
Zn1CC 0.0134 0.0199 0.0156 -0.0059 0.00413 -0.00361
Zn1KC 0.0199 0.0156 0.0134 0.00413 -0.00361 -0.0059
Zn2NA 0.0403 0.0462 0.0193 0 0 0.0147
Zn2PA 0.0403 0.0462 0.0193 0 0 -0.0147
O1GA 0.0249 0.034 0.032 -0.0059 0.0136 -0.0106
O1IA 0.0249 0.034 0.032 0.0059 0.0136 0.0106
N3VA 0.019 0.042 0.027 -0.016 0.0078 -0.015
N3JB 0.019 0.042 0.027 -0.016 -0.0078 0.015
N3OB 0.027 0.019 0.042 0.015 -0.016 -0.0078
N3WB 0.019 0.042 0.027 0.016 0.0078 0.015
N3GC 0.019 0.042 0.027 0.016 -0.0078 -0.015
N3JC 0.027 0.019 0.042 -0.015 -0.016 0.0078
O3GA 0.059 0.083 0.134 0.057 -0.067 -0.045
O3IA 0.059 0.083 0.134 -0.057 -0.067 0.045
loop_
_geom_bond_atom_site_label_1
_geom_bond_atom_site_label_2
_geom_bond_site_symmetry_1
_geom_bond_site_symmetry_2
Zn1 O1 1_555 1_555
Zn2 N7 1_555 1_555
O1 C2 1_555 1_555
N1 Zn1 1_555 1_555
N2 Zn1 1_555 1_555
N3 C3 1_555 1_555
C1 C2 1_555 1_555
O2 C2 1_555 1_555
C3 N1 1_555 1_555
C4 N2 1_555 1_555
N4 N1 1_555 1_555
N5 C4 1_555 1_555
H1 N5 1_555 1_555
H2 N5 1_555 1_555
N6 C3 1_555 1_555
H3 N6 1_555 1_555
H4 N6 1_555 1_555
N7 C4 1_555 1_555
N8 N7 1_555 1_555
N9 N3 1_555 1_555
C5 C1 1_555 1_555
H5 C5 1_555 1_555
O3 Zn2 1_555 1_555
N10 N2 1_555 1_555
C6 H6 1_555 1_555
O4 C8 1_555 1_555
C7 C6 1_555 1_555
C8 O3 1_555 1_555
O1HA C2HA 1_555 1_555
C1HA C5 1_555 1_555
O2HA C2HA 1_555 1_555
C2HA C1HA 1_555 1_555
C5HA C1HA 1_555 1_555
H5HA C5HA 1_555 1_555
O1OA C2OA 1_555 1_555
C1OA C5HA 1_555 1_555
O2OA C2OA 1_555 1_555
C2OA C1OA 1_555 1_555
C5OA C1 1_555 1_555
H5OA C5OA 1_555 1_555
O3FA C8FA 1_555 1_555
C6FA C7 1_555 1_555
H6FA C6FA 1_555 1_555
O4FA C8FA 1_555 1_555
C7FA C6FA 1_555 1_555
C8FA C7FA 1_555 1_555
O3NA C8NA 1_555 1_555
C6NA C7FA 1_555 1_555
H6NA C6NA 1_555 1_555
O4NA C8NA 1_555 1_555
C7NA C6 1_555 1_555
C8NA C7NA 1_555 1_555
Zn1C O1C 1_555 1_555
O1C C2C 1_555 1_555
N1C Zn1C 1_555 1_555
N2C Zn1C 1_555 1_555
N3C C3C 1_555 1_555
C1C C2C 1_555 1_555
O2C C2C 1_555 1_555
C3C N1C 1_555 1_555
C4C N2C 1_555 1_555
N4C N1C 1_555 1_555
N5C C4C 1_555 1_555
H1C N5C 1_555 1_555
H2C N5C 1_555 1_555
N6C C3C 1_555 1_555
H3C N6C 1_555 1_555
H4C N6C 1_555 1_555
N7C Zn2 1_555 1_555
N8C N7C 1_555 1_555
N9C N3C 1_555 1_555
C5C C1C 1_555 1_555
H5C C5C 1_555 1_555
O3C Zn2 1_555 1_555
N10C N2C 1_555 1_555
C6C H6C 1_555 1_555
O4C C8C 1_555 1_555
C7C C6C 1_555 1_555
C8C O3C 1_555 1_555
O1FA C2FA 1_555 1_555
C1FA C5C 1_555 1_555
O2FA C2FA 1_555 1_555
C2FA C1FA 1_555 1_555
C5FA C1FA 1_555 1_555
H5FA C5FA 1_555 1_555
O1PA C2PA 1_555 1_555
C1PA C5FA 1_555 1_555
O2PA C2PA 1_555 1_555
C2PA C1PA 1_555 1_555
C5PA C1C 1_555 1_555
H5PA C5PA 1_555 1_555
O3HA C8HA 1_555 1_555
C6HA C7C 1_555 1_555
H6HA C6HA 1_555 1_555
O4HA C8HA 1_555 1_555
C7HA C6HA 1_555 1_555
C8HA C7HA 1_555 1_555
O3QA C8QA 1_555 1_555
C6QA C7HA 1_555 1_555
H6QA C6QA 1_555 1_555
O4QA C8QA 1_555 1_555
C7QA C6C 1_555 1_555
C8QA C7QA 1_555 1_555
Zn1FA O1FA 1_555 1_555
Zn2FA O3FA 1_555 1_555
N1FA Zn1FA 1_555 1_555
N2FA Zn1FA 1_555 1_555
N3FA C3FA 1_555 1_555
C3FA N1FA 1_555 1_555
C4FA N2FA 1_555 1_555
N4FA N1FA 1_555 1_555
N5FA C4FA 1_555 1_555
H1FA N5FA 1_555 1_555
H2FA N5FA 1_555 1_555
N6FA C3FA 1_555 1_555
H3FA N6FA 1_555 1_555
H4FA N6FA 1_555 1_555
N7FA Zn2FA 1_555 1_555
N8FA N7FA 1_555 1_555
N9FA N3FA 1_555 1_555
N10FA N2FA 1_555 1_555
Zn1GA N1GA 1_555 1_555
N1GA C3GA 1_555 1_555
N2GA Zn1GA 1_555 1_555
N3GA C3GA 1_555 1_555
C3GA N6GA 1_555 1_555
C4GA N2GA 1_555 1_555
N4GA N1GA 1_555 1_555
N5GA C4GA 1_555 1_555
H1GA N5GA 1_555 1_555
H2GA N5GA 1_555 1_555
N6GA H3GA 1_555 1_555
H4GA N6GA 1_555 1_555
N7GA Zn2FA 1_555 1_555
N8GA N7GA 1_555 1_555
N9GA N3GA 1_555 1_555
N10GA N2GA 1_555 1_555
Zn1HA O1HA 1_555 1_555
Zn2HA O3HA 1_555 1_555
N1HA Zn1HA 1_555 1_555
N2HA Zn1HA 1_555 1_555
N3HA C3HA 1_555 1_555
C3HA N1HA 1_555 1_555
C4HA N2HA 1_555 1_555
N4HA N1HA 1_555 1_555
N5HA C4HA 1_555 1_555
H1HA N5HA 1_555 1_555
H2HA N5HA 1_555 1_555
N6HA C3HA 1_555 1_555
H3HA N6HA 1_555 1_555
H4HA N6HA 1_555 1_555
N7HA Zn2HA 1_555 1_555
N8HA N7HA 1_555 1_555
N9HA N3HA 1_555 1_555
N10HA N2HA 1_555 1_555
Zn1IA N1IA 1_555 1_555
N1IA C3IA 1_555 1_555
N2IA Zn1IA 1_555 1_555
N3IA C3IA 1_555 1_555
C3IA N6IA 1_555 1_555
C4IA N2IA 1_555 1_555
N4IA N1IA 1_555 1_555
N5IA C4IA 1_555 1_555
H1IA N5IA 1_555 1_555
H2IA N5IA 1_555 1_555
N6IA H3IA 1_555 1_555
H4IA N6IA 1_555 1_555
N7IA Zn2HA 1_555 1_555
N8IA N7IA 1_555 1_555
N9IA N3IA 1_555 1_555
N10IA N2IA 1_555 1_555
Zn1OA O1OA 1_555 1_555
Zn1PA O1PA 1_555 1_555
Zn1ZA N3IA 1_555 1_555
Zn1GB N3C 1_555 1_555
Zn1NB N3HA 1_555 1_555
Zn1AC N3GA 1_555 1_555
Zn1CC N3 1_555 1_555
Zn1KC N3FA 1_555 1_555
Zn2NA O3NA 1_555 1_555
Zn2PA O3QA 1_555 1_555
O1GA Zn1GA 1_555 1_555
O1IA Zn1IA 1_555 1_555
N3VA Zn1GA 1_555 1_555
N3JB Zn1FA 1_555 1_555
N3OB Zn1 1_555 1_555
N3WB Zn1IA 1_555 1_555
N3GC Zn1HA 1_555 1_555
N3JC Zn1C 1_555 1_555
O3GA Zn2FA 1_555 1_555
O3IA Zn2HA 1_555 1_555
N4 N9 1_555 1_555
N8 N10 1_555 1_555
C7 C8 1_555 1_555
C1OA C5OA 1_555 1_555
C6NA C7NA 1_555 1_555
C4C N7C 1_555 1_555
N4C N9C 1_555 1_555
N8C N10C 1_555 1_555
C7C C8C 1_555 1_555
C1PA C5PA 1_555 1_555
C6QA C7QA 1_555 1_555
C4FA N7FA 1_555 1_555
N4FA N9FA 1_555 1_555
N8FA N10FA 1_555 1_555
C4GA N7GA 1_555 1_555
N4GA N9GA 1_555 1_555
N8GA N10GA 1_555 1_555
C4HA N7HA 1_555 1_555
N4HA N9HA 1_555 1_555
N8HA N10HA 1_555 1_555
C4IA N7IA 1_555 1_555
N4IA N9IA 1_555 1_555
N8IA N10IA 1_555 1_555

#END
