
#######################################################################
#
#                 Cambridge Crystallographic Data Centre
#                                CCDC 
#
#######################################################################
#
# If this CIF has been generated from an entry in the Cambridge 
# Structural Database, then it will include bibliographic, chemical, 
# crystal, experimental, refinement or atomic coordinate data resulting 
# from the CCDC's data processing and validation procedures.
#
#######################################################################

data_BEWRUR
_chemical_formula_moiety         'C14 H13 N2 Ni1 O5'
_symmetry_cell_setting           cubic
_symmetry_space_group_name_H-M   'I 41 3 2'
_symmetry_Int_Tables_number      214
_space_group_name_Hall           'I 4bd 2c 3'
loop_
_symmetry_equiv_pos_site_id
_symmetry_equiv_pos_as_xyz
1 x,y,z
2 1/2-x,-y,1/2+z
3 -x,1/2+y,1/2-z
4 1/2+x,1/2-y,-z
5 z,x,y
6 1/2+z,1/2-x,-y
7 1/2-z,-x,1/2+y
8 -z,1/2+x,1/2-y
9 y,z,x
10 -y,1/2+z,1/2-x
11 1/2+y,1/2-z,-x
12 1/2-y,-z,1/2+x
13 3/4+y,1/4+x,1/4-z
14 3/4-y,3/4-x,3/4-z
15 1/4+y,1/4-x,3/4+z
16 1/4-y,3/4+x,1/4+z
17 3/4+x,1/4+z,1/4-y
18 1/4-x,3/4+z,1/4+y
19 3/4-x,3/4-z,3/4-y
20 1/4+x,1/4-z,3/4+y
21 3/4+z,1/4+y,1/4-x
22 1/4+z,1/4-y,3/4+x
23 1/4-z,3/4+y,1/4+x
24 3/4-z,3/4-y,3/4-x
25 1/2+x,1/2+y,1/2+z
26 -x,1/2-y,z
27 1/2-x,y,-z
28 x,-y,1/2-z
29 1/2+z,1/2+x,1/2+y
30 z,-x,1/2-y
31 -z,1/2-x,y
32 1/2-z,x,-y
33 1/2+y,1/2+z,1/2+x
34 1/2-y,z,-x
35 y,-z,1/2-x
36 -y,1/2-z,x
37 1/4+y,3/4+x,3/4-z
38 1/4-y,1/4-x,1/4-z
39 3/4+y,3/4-x,1/4+z
40 3/4-y,1/4+x,3/4+z
41 1/4+x,3/4+z,3/4-y
42 3/4-x,1/4+z,3/4+y
43 1/4-x,1/4-z,1/4-y
44 3/4+x,3/4-z,1/4+y
45 1/4+z,3/4+y,3/4-x
46 3/4+z,3/4-y,1/4+x
47 3/4-z,1/4+y,3/4+x
48 1/4-z,1/4-y,1/4-x
_cell_length_a                   28.3174(4)
_cell_length_b                   28.3174(4)
_cell_length_c                   28.3174(4)
_cell_angle_alpha                90
_cell_angle_beta                 90
_cell_angle_gamma                90
_cell_volume                     22707
loop_
_atom_site_label
_atom_site_type_symbol
_atom_site_fract_x
_atom_site_fract_y
_atom_site_fract_z
_atom_site_U_iso_or_equiv
_atom_site_thermal_displace_type
Ni1 Ni 0.1250 0.899168(13) 0.149168(13) 0.0561 Uani
O1 O 0.08713(7) 0.94255(7) 0.10740(7) 0.0678 Uani
O2 O 0.16625(7) 0.87792(7) 0.09124(7) 0.0670 Uani
H1 H 0.1523 0.9040 0.0722 0.0800 Uiso
O3 O 0.12952(7) 0.94600(7) 0.04125(7) 0.0622 Uani
C1 C 0.09733(10) 0.96000(9) 0.06814(9) 0.0534 Uani
C2 C 0.02820(9) 1.01435(8) 0.08037(8) 0.0478 Uani
H2 H 0.0195 0.9961 0.1071 0.0570 Uiso
N1 N 0.07683(10) 0.91578(8) 0.20256(9) 0.0649 Uani
C3 C 0.06772(9) 1.00170(9) 0.05363(9) 0.0491 Uani
C4 C 0.03074(13) 0.92207(11) 0.19254(11) 0.0684 Uani
H3 H 0.0209 0.9181 0.1607 0.0820 Uiso
C5 C -0.00333(14) 0.93397(10) 0.22594(13) 0.0749 Uani
C6 C 0.01158(18) 0.93960(12) 0.27151(14) 0.0866 Uani
H4 H -0.0105 0.9478 0.2954 0.1040 Uiso
C7 C 0.09059(16) 0.92075(13) 0.24720(12) 0.0874 Uani
H5 H 0.1227 0.9157 0.2554 0.1050 Uiso
C8 C 0.0576(2) 0.93361(14) 0.28280(13) 0.0997 Uani
H6 H 0.0679 0.9380 0.3144 0.1200 Uiso
C9 C -0.05463(16) 0.94052(15) 0.21101(16) 0.1017 Uani
H7 H -0.0750 0.9391 0.2389 0.1530 Uiso
H8 H -0.0635 0.9154 0.1889 0.1530 Uiso
H9 H -0.0583 0.9713 0.1956 0.1530 Uiso
C10 C 0.15141(14) 0.83197(13) 0.07590(13) 0.0853 Uani
H10 H 0.1678 0.8077 0.0956 0.1020 Uiso
C11 C 0.1713(4) 0.8292(3) 0.0245(3) 0.1167 Uani
H11 H 0.1604 0.8566 0.0064 0.1750 Uiso
H12 H 0.1600 0.8002 0.0094 0.1750 Uiso
H13 H 0.2059 0.8290 0.0255 0.1750 Uiso
O1Q O 0.16287(7) 0.85740(7) 0.19255(7) 0.0678 Uani
O2Q O 0.08375(7) 0.84124(7) 0.12792(7) 0.0670 Uani
N1Q N 0.17317(10) 0.95256(9) 0.16578(8) 0.0649 Uani
C3H C 0.00170(9) 1.05363(9) 0.06772(9) 0.0491 Uani
C2D C 0.08037(8) 1.02820(9) 0.01435(8) 0.0478 Uani
C10Q C 0.09859(14) 0.82590(13) 0.08197(13) 0.0853 Uani
loop_
_atom_site_aniso_label
_atom_site_aniso_U_11
_atom_site_aniso_U_22
_atom_site_aniso_U_33
_atom_site_aniso_U_23
_atom_site_aniso_U_13
_atom_site_aniso_U_12
Ni1 0.0695(3) 0.0494(2) 0.0494(2) 0.00437(19) -0.00535(15) 0.00535(15)
O1 0.0747(13) 0.0736(12) 0.0551(11) 0.0185(9) 0.0151(9) 0.0264(10)
O2 0.0694(13) 0.0672(12) 0.0645(12) -0.0012(10) -0.0073(9) 0.0224(10)
O3 0.0605(11) 0.0697(12) 0.0563(11) 0.0125(9) 0.0098(9) 0.0208(10)
C1 0.0535(14) 0.0580(15) 0.0486(14) 0.0053(11) 0.0014(11) 0.0072(12)
C2 0.0503(13) 0.0490(14) 0.0440(12) 0.0025(10) 0.0012(10) 0.0016(10)
N1 0.092(2) 0.0532(12) 0.0496(13) 0.0038(10) 0.0051(12) -0.0129(12)
C3 0.0496(13) 0.0496(14) 0.0482(14) -0.0002(10) -0.0008(11) 0.0055(11)
C4 0.091(2) 0.0548(16) 0.0595(17) 0.0076(13) 0.0138(16) 0.0057(15)
C5 0.100(2) 0.0458(15) 0.079(2) 0.0066(14) 0.0268(18) 0.0006(16)
C6 0.128(4) 0.0519(17) 0.080(3) -0.0074(16) 0.033(2) -0.0198(19)
C7 0.116(3) 0.091(2) 0.0553(18) -0.0053(16) 0.0009(18) -0.044(2)
C8 0.155(4) 0.088(3) 0.056(2) -0.0135(17) 0.011(2) -0.044(3)
C9 0.111(3) 0.090(3) 0.104(3) 0.019(2) 0.029(2) 0.018(2)
C10 0.110(2) 0.071(2) 0.075(2) -0.0128(16) -0.011(2) 0.030(2)
C11 0.152(9) 0.092(6) 0.106(6) -0.037(5) 0.008(6) 0.013(6)
O1Q 0.0747 0.0551 0.0736 0.0185 -0.0264 -0.0151
O2Q 0.0694 0.0645 0.0672 -0.0012 -0.0224 0.0073
N1Q 0.092 0.0496 0.0532 0.0038 0.0129 -0.0051
C3H 0.0496 0.0482 0.0496 -0.0008 0.0055 -0.0002
C2D 0.044 0.0503 0.049 0.0016 0.0025 0.0012
C10Q 0.11 0.075 0.071 -0.0128 -0.03 0.011
loop_
_geom_bond_atom_site_label_1
_geom_bond_atom_site_label_2
_geom_bond_site_symmetry_1
_geom_bond_site_symmetry_2
Ni1 O1 1_555 1_555
O1 C1 1_555 1_555
O2 Ni1 1_555 1_555
H1 O2 1_555 1_555
O3 C1 1_555 1_555
C1 C3 1_555 1_555
C2 H2 1_555 1_555
N1 Ni1 1_555 1_555
C3 C2 1_555 1_555
C4 N1 1_555 1_555
H3 C4 1_555 1_555
C5 C4 1_555 1_555
C6 C5 1_555 1_555
H4 C6 1_555 1_555
C7 N1 1_555 1_555
H5 C7 1_555 1_555
C8 C6 1_555 1_555
H6 C8 1_555 1_555
C9 C5 1_555 1_555
H7 C9 1_555 1_555
H8 C9 1_555 1_555
H9 C9 1_555 1_555
C10 O2 1_555 1_555
H10 C10 1_555 1_555
C11 C10 1_555 1_555
H11 C11 1_555 1_555
H12 C11 1_555 1_555
H13 C11 1_555 1_555
O1Q Ni1 1_555 1_555
O2Q Ni1 1_555 1_555
N1Q Ni1 1_555 1_555
C3H C2 1_555 1_555
C2D C3 1_555 1_555
C10Q C10 1_555 1_555
C7 C8 1_555 1_555
O2Q C10Q 1_555 1_555

#END
