
#######################################################################
#
#                 Cambridge Crystallographic Data Centre
#                                CCDC 
#
#######################################################################
#
# If this CIF has been generated from an entry in the Cambridge 
# Structural Database, then it will include bibliographic, chemical, 
# crystal, experimental, refinement or atomic coordinate data resulting 
# from the CCDC's data processing and validation procedures.
#
#######################################################################

data_NEHNEV01
_chemical_formula_moiety         '(C64 H52 N4 O18 Zn3)n'
_symmetry_cell_setting           triclinic
_symmetry_space_group_name_H-M   'P -1'
_symmetry_Int_Tables_number      2
_space_group_name_Hall           '-P 1'
loop_
_symmetry_equiv_pos_site_id
_symmetry_equiv_pos_as_xyz
1 x,y,z
2 -x,-y,-z
_cell_length_a                   8.9810(5)
_cell_length_b                   12.2471(7)
_cell_length_c                   15.8888(9)
_cell_angle_alpha                76.8270(10)
_cell_angle_beta                 75.9530(10)
_cell_angle_gamma                79.3840(10)
_cell_volume                     1635.31
loop_
_atom_site_label
_atom_site_type_symbol
_atom_site_fract_x
_atom_site_fract_y
_atom_site_fract_z
Zn1 Zn 0.0000 0.5000 0.5000
N1 N -0.7228(5) 0.8943(4) 0.5523(3)
O1 O 0.5012(5) 0.9951(3) 0.8118(3)
C1 C 0.3558(7) 0.8719(4) 0.9300(3)
Zn2 Zn -0.34011(6) 0.64668(4) 0.55962(3)
N2 N -0.5218(5) 0.7681(4) 0.5741(3)
O2 O 0.1669(5) 0.8464(3) 0.8543(3)
C2 C 0.3662(7) 0.9936(5) 0.8810(4)
H1 H 0.2727 1.0242 0.8560
H2 H 0.3721 1.0414 0.9223
C3 C 0.0991(8) 0.7621(5) 1.1378(3)
C4 C -0.0421(7) 0.8296(5) 0.7983(4)
H3 H -0.1002 0.8876 0.8283
O3 O -0.2328(4) 0.6917(3) 0.6387(2)
O4 O 0.6000(5) 1.5008(3) 0.6222(3)
C5 C 0.2280(8) 0.8811(5) 1.0116(3)
H4 H 0.2598 0.9209 1.0507
H5 H 0.1325 0.9251 0.9940
C6 C -0.0153(8) 0.6390(5) 1.2671(4)
H6 H -0.0291 0.5645 1.2988
O5 O -0.0041(4) 0.5894(3) 0.5958(2)
C7 C 0.1107(6) 0.7915(4) 0.8055(3)
C8 C -0.0251(6) 0.6980(4) 0.7035(3)
O6 O -0.1827(4) 0.6230(3) 1.4490(2)
C9 C -0.1100(6) 0.7838(5) 0.7478(4)
H7 H -0.2144 0.8104 0.7429
O7 O -0.2843(6) 0.7972(4) 1.4180(3)
C10 C 0.4953(7) 1.3013(5) 0.7287(4)
H8 H 0.4289 1.3706 0.7333
C11 C 0.4453(7) 1.2008(5) 0.7773(4)
H9 H 0.3468 1.2013 0.8165
C12 C 0.5399(7) 1.0997(4) 0.7682(3)
C13 C -0.1929(6) 0.7154(5) 1.3945(4)
O8 O 0.1991(6) 0.7701(3) 1.0572(3)
C14 C 0.5097(7) 0.8145(5) 0.9570(4)
H10 H 0.4992 0.7365 0.9880
H11 H 0.5349 0.8564 0.9962
H12 H 0.5927 0.8141 0.9040
O9 O 0.8312(4) 1.4045(3) 0.5763(2)
C15 C 0.3178(6) 0.8016(4) 0.8726(3)
H13 H 0.3963 0.8043 0.8167
H14 H 0.3189 0.7217 0.9038
C16 C 0.6956(6) 1.4103(4) 0.6206(3)
C17 C 0.1943(6) 0.7049(4) 0.7646(4)
H15 H 0.2971 0.6763 0.7719
C18 C 0.6844(7) 1.0995(4) 0.7122(4)
H16 H 0.7484 1.0299 0.7048
C19 C 0.7348(6) 1.2004(4) 0.6673(3)
H17 H 0.8362 1.2003 0.6313
C20 C 0.6398(6) 1.3026(4) 0.6736(3)
C21 C -0.6415(7) 0.9378(4) 0.5968(4)
H18 H -0.6670 1.0090 0.6147
C22 C -0.9651(6) 0.8832(5) 0.5144(4)
H19 H -0.9411 0.8031 0.5241
C23 C -0.8645(6) 0.9472(5) 0.5247(3)
C24 C -0.6455(6) 0.7907(5) 0.5398(3)
H20 H -0.6766 0.7420 0.5106
C25 C -0.0921(5) 0.6553(4) 0.6421(3)
C26 C 0.0222(7) 0.8553(5) 1.1743(4)
H21 H 0.0349 0.9298 1.1423
C27 C -0.0719(7) 0.8389(5) 1.2565(4)
H22 H -0.1253 0.9023 1.2816
C28 C -0.0901(7) 0.7298(5) 1.3039(3)
C29 C -0.5180(6) 0.8594(4) 0.6101(4)
H23 H -0.4410 0.8662 0.6396
C30 C 0.1273(6) 0.6599(4) 0.7126(3)
H24 H 0.1862 0.6020 0.6827
C31 C -0.8973(7) 1.0649(5) 0.5104(4)
H25 H -0.8262 1.1090 0.5176
C32 C 0.0805(9) 0.6546(5) 1.1839(4)
H26 H 0.1333 0.5910 1.1589
Zn1_2 Zn 0.0000 0.5000 1.5000
Zn1_3 Zn 1.0000 1.5000 0.5000
Zn1_4 Zn -0.0000 0.5000 -0.5000
Zn1_5 Zn -1.0000 -0.5000 0.5000
N1A N -1.2772(5) 1.1057(4) 0.4477(3)
O1A O -0.5012(5) 0.0049(3) 0.1882(3)
C1A C -0.3558(7) 0.1281(4) 0.0700(3)
Zn2A Zn 0.34011(6) 0.35332(4) 0.44038(3)
Zn2_2 Zn 0.65989(6) 1.64668(4) 0.55962(3)
Zn2_3 Zn -0.34011(6) 0.64668(4) 1.55962(3)
Zn2A_2 Zn -1.65989(6) 1.35332(4) 0.44038(3)
Zn2A_3 Zn -0.65989(6) -0.64668(4) 0.44038(3)
Zn2A_4 Zn 0.34011(6) 0.35332(4) -0.55962(3)
N2A N -1.4782(5) 1.2319(4) 0.4259(3)
N2A_2 N 0.5218(5) 0.2319(4) 0.4259(3)
O2A O -0.1669(5) 0.1536(3) 0.1457(3)
C2A C -0.3662(7) 0.0064(5) 0.1190(4)
H1A H -0.2727 -0.0242 0.1440
H2A H -0.3721 -0.0414 0.0777
C3A C -0.0991(8) 0.2379(5) -0.1378(3)
C4A C 0.0421(7) 0.1704(5) 0.2017(4)
H3A H 0.1002 0.1124 0.1717
O3A O 0.2328(4) 0.3083(3) 0.3613(2)
O4A O -0.6000(5) -0.5008(3) 0.3778(3)
O4_2 O -0.4000(5) 0.5008(3) 0.6222(3)
O4A_2 O 0.4000(5) 0.4992(3) 0.3778(3)
C5A C -0.2280(8) 0.1189(5) -0.0116(3)
H4A H -0.2598 0.0791 -0.0507
H5A H -0.1325 0.0749 0.0060
C6A C 0.0153(8) 0.3610(5) -0.2671(4)
H6A H 0.0291 0.4355 -0.2988
O5A O 0.0041(4) 0.4106(3) 0.4042(2)
C7A C -0.1107(6) 0.2085(4) 0.1945(3)
C8A C 0.0251(6) 0.3020(4) 0.2965(3)
O6A O 0.1827(4) 0.3770(3) -0.4490(2)
O6_2 O -0.1827(4) 0.6230(3) 0.4490(2)
O6A_2 O 0.1827(4) 0.3770(3) 0.5510(2)
C9A C 0.1100(6) 0.2162(5) 0.2522(4)
H7A H 0.2144 0.1896 0.2571
O7A O 0.2843(6) 0.2028(4) -0.4180(3)
C10A C -0.4953(7) -0.3013(5) 0.2713(4)
H8A H -0.4289 -0.3706 0.2667
C11A C -0.4453(7) -0.2008(5) 0.2227(4)
H9A H -0.3468 -0.2013 0.1835
C12A C -0.5399(7) -0.0997(4) 0.2318(3)
C13A C 0.1929(6) 0.2846(5) -0.3945(4)
O8A O -0.1991(6) 0.2299(3) -0.0572(3)
C14A C -0.5097(7) 0.1855(5) 0.0430(4)
H10A H -0.4992 0.2635 0.0120
H11A H -0.5349 0.1436 0.0038
H12A H -0.5927 0.1859 0.0960
O9A O -0.8312(4) -0.4045(3) 0.4237(2)
O9_2 O -0.1688(4) 0.4045(3) 0.5763(2)
O9A_2 O 0.1688(4) 0.5955(3) 0.4237(2)
C15A C -0.3178(6) 0.1984(4) 0.1274(3)
H13A H -0.3963 0.1957 0.1833
H14A H -0.3189 0.2783 0.0962
C16A C -0.6956(6) -0.4103(4) 0.3794(3)
C17A C -0.1943(6) 0.2951(4) 0.2354(4)
H15A H -0.2971 0.3237 0.2281
C18A C -0.6844(7) -0.0995(4) 0.2878(4)
H16A H -0.7484 -0.0299 0.2952
C19A C -0.7348(6) -0.2004(4) 0.3327(3)
H17A H -0.8362 -0.2003 0.3687
C20A C -0.6398(6) -0.3026(4) 0.3264(3)
C21A C -1.3585(7) 1.0622(4) 0.4032(4)
H18A H -1.3330 0.9910 0.3853
C22A C -1.0349(6) 1.1168(5) 0.4856(4)
H19A H -1.0589 1.1969 0.4759
C23A C -1.1355(6) 1.0528(5) 0.4753(3)
C24A C -1.3545(6) 1.2093(5) 0.4602(3)
H20A H -1.3234 1.2580 0.4894
C25A C 0.0921(5) 0.3447(4) 0.3579(3)
C26A C -0.0222(7) 0.1447(5) -0.1743(4)
H21A H -0.0349 0.0702 -0.1423
C27A C 0.0719(7) 0.1611(5) -0.2565(4)
H22A H 0.1253 0.0977 -0.2816
C28A C 0.0901(7) 0.2702(5) -0.3039(3)
C29A C -1.4820(6) 1.1406(4) 0.3899(4)
H23A H -1.5590 1.1338 0.3604
C30A C -0.1273(6) 0.3401(4) 0.2874(3)
H24A H -0.1862 0.3980 0.3173
C31A C -1.1027(7) 0.9351(5) 0.4896(4)
H25A H -1.1738 0.8910 0.4824
C32A C -0.0805(9) 0.3454(5) -0.1839(4)
H26A H -0.1333 0.4090 -0.1589
loop_
_geom_bond_atom_site_label_1
_geom_bond_atom_site_label_2
_geom_bond_site_symmetry_1
_geom_bond_site_symmetry_2
Zn1 O5 1_555 1_555
N1 C21 1_555 1_555
O1 C2 1_555 1_555
C1 C2 1_555 1_555
Zn2 N2 1_555 1_555
N2 C24 1_555 1_555
O2 C7 1_555 1_555
C2 H1 1_555 1_555
H2 C2 1_555 1_555
C3 O8 1_555 1_555
C4 H3 1_555 1_555
O3 Zn2 1_555 1_555
O4 C16 1_555 1_555
C5 C1 1_555 1_555
H4 C5 1_555 1_555
H5 C5 1_555 1_555
C6 H6 1_555 1_555
O5 C25 1_555 1_555
C7 C4 1_555 1_555
C8 C9 1_555 1_555
O6 C13 1_555 1_555
C9 C4 1_555 1_555
H7 C9 1_555 1_555
O7 C13 1_555 1_555
C10 H8 1_555 1_555
C11 C10 1_555 1_555
H9 C11 1_555 1_555
C12 O1 1_555 1_555
C13 C28 1_555 1_555
O8 C5 1_555 1_555
C14 C1 1_555 1_555
H10 C14 1_555 1_555
H11 C14 1_555 1_555
H12 C14 1_555 1_555
O9 C16 1_555 1_555
C15 C1 1_555 1_555
H13 C15 1_555 1_555
H14 C15 1_555 1_555
C16 C20 1_555 1_555
C17 C7 1_555 1_555
H15 C17 1_555 1_555
C18 C12 1_555 1_555
H16 C18 1_555 1_555
C19 C18 1_555 1_555
H17 C19 1_555 1_555
C20 C10 1_555 1_555
C21 H18 1_555 1_555
C22 H19 1_555 1_555
C23 N1 1_555 1_555
C24 N1 1_555 1_555
H20 C24 1_555 1_555
C25 O3 1_555 1_555
C26 C3 1_555 1_555
H21 C26 1_555 1_555
C27 C26 1_555 1_555
H22 C27 1_555 1_555
C28 C6 1_555 1_555
C29 N2 1_555 1_555
H23 C29 1_555 1_555
C30 C8 1_555 1_555
H24 C30 1_555 1_555
C31 C23 1_555 1_555
H25 C31 1_555 1_555
C32 C3 1_555 1_555
H26 C32 1_555 1_555
Zn1_2 O6 1_555 1_555
Zn1_3 O9 1_555 1_555
Zn1_4 O6A 1_555 1_555
Zn1_5 O9A 1_555 1_555
N1A C21A 1_555 1_555
O1A C2A 1_555 1_555
C1A C2A 1_555 1_555
Zn2A N2A_2 1_555 1_555
Zn2_2 O4 1_555 1_555
Zn2_3 O6 1_555 1_555
Zn2A_2 N2A 1_555 1_555
Zn2A_3 O4A 1_555 1_555
Zn2A_4 O6A 1_555 1_555
N2A C24A 1_555 1_555
O2A C7A 1_555 1_555
C2A H1A 1_555 1_555
H2A C2A 1_555 1_555
C3A O8A 1_555 1_555
C4A H3A 1_555 1_555
O3A Zn2A 1_555 1_555
O4A C16A 1_555 1_555
O4_2 Zn2 1_555 1_555
O4A_2 Zn2A 1_555 1_555
C5A C1A 1_555 1_555
H4A C5A 1_555 1_555
H5A C5A 1_555 1_555
C6A H6A 1_555 1_555
O5A Zn1 1_555 1_555
C7A C4A 1_555 1_555
C8A C9A 1_555 1_555
O6A C13A 1_555 1_555
O6_2 Zn1 1_555 1_555
O6A_2 Zn1 1_555 1_555
C9A C4A 1_555 1_555
H7A C9A 1_555 1_555
O7A C13A 1_555 1_555
C10A H8A 1_555 1_555
C11A C10A 1_555 1_555
H9A C11A 1_555 1_555
C12A O1A 1_555 1_555
C13A C28A 1_555 1_555
O8A C5A 1_555 1_555
C14A C1A 1_555 1_555
H10A C14A 1_555 1_555
H11A C14A 1_555 1_555
H12A C14A 1_555 1_555
O9A C16A 1_555 1_555
O9_2 Zn1 1_555 1_555
O9A_2 Zn1 1_555 1_555
C15A C1A 1_555 1_555
H13A C15A 1_555 1_555
H14A C15A 1_555 1_555
C16A C20A 1_555 1_555
C17A C7A 1_555 1_555
H15A C17A 1_555 1_555
C18A C12A 1_555 1_555
H16A C18A 1_555 1_555
C19A C18A 1_555 1_555
H17A C19A 1_555 1_555
C20A C10A 1_555 1_555
C21A H18A 1_555 1_555
C22A C31 1_555 1_555
H19A C22A 1_555 1_555
C23A N1A 1_555 1_555
C24A N1A 1_555 1_555
H20A C24A 1_555 1_555
C25A O3A 1_555 1_555
C26A C3A 1_555 1_555
H21A C26A 1_555 1_555
C27A C26A 1_555 1_555
H22A C27A 1_555 1_555
C28A C6A 1_555 1_555
C29A N2A 1_555 1_555
H23A C29A 1_555 1_555
C30A C8A 1_555 1_555
H24A C30A 1_555 1_555
C31A C22 1_555 1_555
H25A C31A 1_555 1_555
C32A C3A 1_555 1_555
H26A C32A 1_555 1_555
Zn2 O6_2 1_555 1_555
O2 C15 1_555 1_555
C6 C32 1_555 1_555
C8 C25 1_555 1_555
C11 C12 1_555 1_555
C17 C30 1_555 1_555
C19 C20 1_555 1_555
C21 C29 1_555 1_555
C22 C23 1_555 1_555
C27 C28 1_555 1_555
Zn2A O6A_2 1_555 1_555
O2A C15A 1_555 1_555
C6A C32A 1_555 1_555
O5A C25A 1_555 1_555
C8A C25A 1_555 1_555
C11A C12A 1_555 1_555
C17A C30A 1_555 1_555
C19A C20A 1_555 1_555
C21A C29A 1_555 1_555
C22A C23A 1_555 1_555
C23A C31A 1_555 1_555
C27A C28A 1_555 1_555

#END
