
#######################################################################
#
#                 Cambridge Crystallographic Data Centre
#                                CCDC 
#
#######################################################################
#
# If this CIF has been generated from an entry in the Cambridge 
# Structural Database, then it will include bibliographic, chemical, 
# crystal, experimental, refinement or atomic coordinate data resulting 
# from the CCDC's data processing and validation procedures.
#
#######################################################################

data_OLUCAZ
_chemical_formula_moiety         '(C18 H34 Cu1 N4 O12)n'
_symmetry_cell_setting           orthorhombic
_symmetry_space_group_name_H-M   'P n a 21'
_symmetry_Int_Tables_number      33
_space_group_name_Hall           'P 2c -2n'
loop_
_symmetry_equiv_pos_site_id
_symmetry_equiv_pos_as_xyz
1 x,y,z
2 -x,-y,1/2+z
3 1/2-x,1/2+y,1/2+z
4 1/2+x,1/2-y,z
_cell_length_a                   15.401(3)
_cell_length_b                   17.141(3)
_cell_length_c                   9.0521(18)
_cell_angle_alpha                90
_cell_angle_beta                 90
_cell_angle_gamma                90
_cell_volume                     2389.65
loop_
_atom_site_label
_atom_site_type_symbol
_atom_site_fract_x
_atom_site_fract_y
_atom_site_fract_z
_atom_site_U_iso_or_equiv
_atom_site_thermal_displace_type
C1 C 0.2971(4) 0.2788(4) -0.2651(7) 0.0293 Uani
H1 H 0.3086 0.3321 -0.2651 0.0350 Uiso
C2 C 0.2558(5) 0.1656(4) -0.3338(8) 0.0370 Uani
H2 H 0.2330 0.1255 -0.3911 0.0440 Uiso
C3 C 0.2885(4) 0.1580(5) -0.1947(9) 0.0407 Uani
H3 H 0.2925 0.1123 -0.1396 0.0480 Uiso
C4 C 0.3577(4) 0.2515(5) -0.0134(8) 0.0423 Uani
H4 H 0.3330 0.2997 0.0240 0.0500 Uiso
H5 H 0.3462 0.2110 0.0588 0.0500 Uiso
C5 C 0.4543(4) 0.2614(4) -0.0295(7) 0.0393 Uani
H6 H 0.4658 0.3114 -0.0755 0.0470 Uiso
H7 H 0.4802 0.2622 0.0682 0.0470 Uiso
C6 C 0.4979(4) 0.1980(4) -0.1200(8) 0.0390 Uani
H8 H 0.4846 0.1476 -0.0767 0.0470 Uiso
H9 H 0.4743 0.1987 -0.2193 0.0470 Uiso
C7 C 0.5976(4) 0.2075(4) -0.1285(8) 0.0363 Uani
H10 H 0.6116 0.2621 -0.1439 0.0440 Uiso
H11 H 0.6195 0.1783 -0.2123 0.0440 Uiso
C8 C 0.6542(4) 0.2218(4) 0.1308(7) 0.0303 Uani
H12 H 0.6389 0.2739 0.1431 0.0360 Uiso
C9 C 0.6719(4) 0.1072(4) 0.0310(8) 0.0383 Uani
H13 H 0.6717 0.0659 -0.0355 0.0460 Uiso
C10 C 0.7039(4) 0.1061(4) 0.1703(8) 0.0337 Uani
H14 H 0.7295 0.0635 0.2166 0.0410 Uiso
C11 C 0.8929(4) 0.3928(3) 0.2811(7) 0.0243 Uani
C12 C 0.8372(4) 0.4403(3) 0.2033(7) 0.0253 Uani
H15 H 0.7795 0.4257 0.1917 0.0300 Uiso
C13 C 0.8663(4) 0.5097(3) 0.1421(7) 0.0243 Uani
C14 C 0.9522(4) 0.5323(3) 0.1642(7) 0.0280 Uani
H16 H 0.9721 0.5789 0.1241 0.0340 Uiso
C15 C 1.0074(4) 0.4864(4) 0.2444(8) 0.0317 Uani
H17 H 1.0639 0.5030 0.2625 0.0380 Uiso
C16 C 0.9794(4) 0.4148(4) 0.2989(7) 0.0287 Uani
H18 H 1.0181 0.3819 0.3469 0.0340 Uiso
C17 C 0.8614(4) 0.3169(4) 0.3438(7) 0.0283 Uani
C18 C 0.8056(4) 0.5622(4) 0.0539(8) 0.0320 Uani
N1 N 0.2621(3) 0.2414(3) -0.3747(6) 0.0287 Uani
N2 N 0.3144(3) 0.2311(3) -0.1524(6) 0.0337 Uani
N3 N 0.6403(3) 0.1801(3) 0.0067(6) 0.0293 Uani
N4 N 0.6922(3) 0.1790(3) 0.2319(6) 0.0277 Uani
O1 O 0.7800(3) 0.3065(3) 0.3390(5) 0.0293 Uani
O2 O 0.9149(3) 0.2693(2) 0.3919(6) 0.0423 Uani
O3 O 0.8341(3) 0.6289(2) 0.0256(5) 0.0310 Uani
O4 O 0.7344(3) 0.5360(3) 0.0137(8) 0.0583 Uani
O5 O 0.5898(3) 0.2834(3) 0.4538(9) 0.0467 Uani
Cu1 Cu 0.72173(4) 0.21815(4) 0.42936(10) 0.0230 Uani
H22 H 0.586(6) 0.331(3) 0.493(10) 0.0800 Uiso
H24 H 0.539(3) 0.269(5) 0.488(11) 0.0800 Uiso
Cu1C Cu 0.22173(4) 0.28185(4) -0.57064(10) 0.0230 Uani
N1C N 0.7621(3) 0.2586(3) 0.6253(6) 0.0287 Uani
Cu1B Cu 0.77827(4) 0.71815(4) -0.07064(10) 0.0230 Uani
O3B O 0.6659(3) 0.1289(2) 0.5256(5) 0.0310 Uani
O6 O -0.1011(4) 0.1115(3) -1.6194(10) 0.0777 Uani
H19 H -0.122(6) 0.155(3) -1.657(11) 0.0800 Uiso
H21 H -0.151(3) 0.088(4) -1.596(12) 0.0800 Uiso
O7 O -0.3832(6) 0.4096(4) -2.0072(13) 0.1023 Uani
H20 H -0.382(7) 0.434(6) -1.915(6) 0.0800 Uiso
O8 O -0.1243(7) 0.0491(6) -1.1890(16) 0.1397 Uani
H23 H -0.086(5) 0.038(6) -1.112(8) 0.0800 Uiso
O9 O -0.4570(9) 0.3955(6) -2.3045(15) 0.1443 Uani
H25 H -0.464(7) 0.4490(17) -2.291(13) 0.0800 Uiso
O10 O -0.0570(10) 0.0517(8) -1.883(2) 0.0640 Uani
O11 O 0.0627(14) 0.0611(11) -1.525(3) 0.0753 Uani
O12 O 0.0614(11) 0.0899(13) -1.729(2) 0.0533 Uani
loop_
_atom_site_aniso_label
_atom_site_aniso_U_11
_atom_site_aniso_U_22
_atom_site_aniso_U_33
_atom_site_aniso_U_23
_atom_site_aniso_U_13
_atom_site_aniso_U_12
C1 0.025 0.041 0.022 0 0.002 0.005
C2 0.038 0.036 0.037 0 -0.004 0
C3 0.037 0.044 0.041 0.007 -0.004 0.003
C4 0.034 0.074 0.019 -0.001 0.002 0.013
C5 0.033 0.056 0.029 -0.007 -0.005 0.007
C6 0.031 0.057 0.029 -0.01 -0.005 0.001
C7 0.034 0.053 0.022 -0.006 -0.003 0.002
C8 0.026 0.042 0.023 -0.001 0.001 -0.003
C9 0.039 0.043 0.033 -0.009 0.001 -0.002
C10 0.04 0.033 0.028 0 -0.004 -0.005
C11 0.030(3) 0.024(3) 0.019(3) 0.000(2) 0.001(3) -0.004(2)
C12 0.025(3) 0.029(3) 0.022(3) 0.000(3) 0.001(3) -0.001(2)
C13 0.027(3) 0.023(3) 0.023(3) 0.003(3) -0.002(3) 0.004(2)
C14 0.031(3) 0.022(3) 0.031(3) 0.004(3) 0.000(3) -0.004(2)
C15 0.020(3) 0.031(4) 0.044(4) 0.003(3) -0.002(3) -0.004(3)
C16 0.029(3) 0.028(3) 0.029(3) 0.002(3) -0.004(3) 0.001(3)
C17 0.035(3) 0.028(3) 0.022(3) 0.001(3) 0.002(3) -0.001(3)
C18 0.033(3) 0.034(3) 0.029(3) 0.001(3) 0.001(3) 0.003(3)
N1 0.027 0.036 0.023 0.001 -0.002 0.007
N2 0.024 0.053 0.024 0.006 0.001 0.008
N3 0.029 0.042 0.017 -0.002 -0.002 0
N4 0.027 0.035 0.021 0.006 -0.001 -0.001
O1 0.030(2) 0.029(2) 0.029(2) 0.0064(19) -0.002(2) -0.0087(18)
O2 0.034(2) 0.033(2) 0.060(4) 0.020(2) 0.003(2) 0.0078(18)
O3 0.036(2) 0.028(2) 0.029(2) 0.006(2) -0.001(2) 0.0034(19)
O4 0.040(3) 0.048(3) 0.087(4) 0.029(3) -0.027(3) -0.010(2)
O5 0.032(2) 0.044(2) 0.064(5) -0.003(3) -0.005(3) 0.003(2)
Cu1 0.0247(3) 0.0258(3) 0.0185(3) 0.0037(4) -0.0023(4) -0.0024(3)
Cu1C 0.0247 0.0258 0.0185 -0.0037 -0.0023 0.0024
N1C 0.027(3) 0.036(3) 0.023(3) -0.001(2) -0.002(2) -0.007(2)
Cu1B 0.0247 0.0258 0.0185 0.0037 0.0023 0.0024
O3B 0.036 0.028 0.029 0.006 0.001 -0.0034
O6 0.053 0.038 0.142 0.006 0.041 -0.004
O7 0.098 0.072 0.137 -0.015 0.014 -0.008
O8 0.13 0.114 0.175 0.021 -0.044 0.026
O9 0.197 0.078 0.158 -0.004 0.041 0.019
O10 0.073 0.043 0.076 0.011 0.014 0.006
O11 0.082 0.044 0.1 0.007 0.003 0.011
O12 0.028 0.074 0.058 -0.022 0.003 -0.008
loop_
_geom_bond_atom_site_label_1
_geom_bond_atom_site_label_2
_geom_bond_site_symmetry_1
_geom_bond_site_symmetry_2
C1 H1 1_555 1_555
C2 H2 1_555 1_555
C3 C2 1_555 1_555
H3 C3 1_555 1_555
C4 H4 1_555 1_555
H5 C4 1_555 1_555
C5 C4 1_555 1_555
H6 C5 1_555 1_555
H7 C5 1_555 1_555
C6 C5 1_555 1_555
H8 C6 1_555 1_555
H9 C6 1_555 1_555
C7 C6 1_555 1_555
H10 C7 1_555 1_555
H11 C7 1_555 1_555
C8 H12 1_555 1_555
C9 H13 1_555 1_555
C10 C9 1_555 1_555
H14 C10 1_555 1_555
C11 C12 1_555 1_555
C12 H15 1_555 1_555
C13 C12 1_555 1_555
C14 C13 1_555 1_555
H16 C14 1_555 1_555
C15 C14 1_555 1_555
H17 C15 1_555 1_555
C16 C11 1_555 1_555
H18 C16 1_555 1_555
C17 C11 1_555 1_555
C18 C13 1_555 1_555
N1 C1 1_555 1_555
N2 C1 1_555 1_555
N3 C7 1_555 1_555
N4 C8 1_555 1_555
O1 C17 1_555 1_555
O2 C17 1_555 1_555
O3 C18 1_555 1_555
O4 C18 1_555 1_555
O5 Cu1 1_555 1_555
Cu1 N4 1_555 1_555
O6 H19 1_555 1_555
O7 H20 1_555 1_555
O8 H23 1_555 1_555
O9 H25 1_555 1_555
H21 O6 1_555 1_555
H22 O5 1_555 1_555
H24 O5 1_555 1_555
Cu1C N1 1_555 1_555
N1C Cu1 1_555 1_555
Cu1B O3 1_555 1_555
O3B Cu1 1_555 1_555
C2 N1 1_555 1_555
C3 N2 1_555 1_555
C4 N2 1_555 1_555
C8 N3 1_555 1_555
C9 N3 1_555 1_555
C10 N4 1_555 1_555
C15 C16 1_555 1_555
O1 Cu1 1_555 1_555

#END
