
#######################################################################
#
#                 Cambridge Crystallographic Data Centre
#                                CCDC 
#
#######################################################################
#
# If this CIF has been generated from an entry in the Cambridge 
# Structural Database, then it will include bibliographic, chemical, 
# crystal, experimental, refinement or atomic coordinate data resulting 
# from the CCDC's data processing and validation procedures.
#
#######################################################################

data_IYUROK
_chemical_formula_moiety         '(C12 H8 Cu1 N8 Ni1 O4)n'
_symmetry_cell_setting           monoclinic
_symmetry_space_group_name_H-M   'C 2/c'
_symmetry_Int_Tables_number      15
_space_group_name_Hall           '-C 2yc'
loop_
_symmetry_equiv_pos_site_id
_symmetry_equiv_pos_as_xyz
1 x,y,z
2 -x,y,1/2-z
3 1/2+x,1/2+y,z
4 1/2-x,1/2+y,1/2-z
5 -x,-y,-z
6 x,-y,1/2+z
7 1/2-x,1/2-y,-z
8 1/2+x,1/2-y,1/2+z
_cell_length_a                   12.868(3)
_cell_length_b                   13.351(3)
_cell_length_c                   10.526(2)
_cell_angle_alpha                90
_cell_angle_beta                 104.39(3)
_cell_angle_gamma                90
_cell_volume                     1751.64
loop_
_atom_site_label
_atom_site_type_symbol
_atom_site_fract_x
_atom_site_fract_y
_atom_site_fract_z
Cu1 Cu 0.5000 0.5000 0.0000
Ni1 Ni 0.5000 0.35321(7) 0.2500
O1 O 0.6094(3) 0.4691(3) 0.2394(4)
O2 O 0.6043(3) 0.5623(3) 0.4165(4)
N1 N 0.8777(4) 0.7462(4) 0.2542(5)
N2 N 0.5437(4) 0.6356(3) -0.0439(5)
N3 N 0.5372(4) 0.7080(4) 0.0221(5)
N4 N 0.5312(6) 0.7763(5) 0.0844(7)
C1 C 0.7192(5) 0.6138(4) 0.2875(6)
C2 C 0.7881(5) 0.5888(5) 0.2124(7)
H1 H 0.7837 0.5263 0.1722
C3 C 0.8646(5) 0.6577(5) 0.1970(7)
H2 H 0.9092 0.6404 0.1432
C4 C 0.6374(5) 0.5419(4) 0.3163(6)
C5 C 0.8074(5) 0.7724(4) 0.3234(6)
H3 H 0.8123 0.8361 0.3603
C6 C 0.7285(5) 0.7089(4) 0.3416(6)
H4 H 0.6813 0.7297 0.3904
Cu1A Cu 0.5000 0.5000 0.5000
Cu1A_2 Cu 0.5000 0.5000 -0.5000
Ni1B Ni 1.0000 0.85321(7) 0.2500
Ni1D Ni 0.5000 0.64679(7) -0.2500
Ni1F Ni 0.0000 0.14679(7) -0.2500
O1D O 0.3906(3) 0.5309(3) -0.2394(4)
O1A O 0.3906(3) 0.4691(3) 0.2606(4)
O2D O 0.3957(3) 0.4377(3) -0.4165(4)
O2A O 0.3957(3) 0.5623(3) 0.0835(4)
O2E O 0.6043(3) 0.4377(3) -0.0835(4)
N1D N 0.1223(4) 0.2538(4) -0.2542(5)
N1B N 0.3777(4) 0.2462(4) 0.2542(5)
N1C N 0.6223(4) 0.2462(4) 0.2458(5)
N2D N 0.4563(4) 0.3644(3) 0.0439(5)
N2E N 0.5437(4) 0.3644(3) 0.4561(5)
N3D N 0.4628(4) 0.2920(4) -0.0221(5)
N4D N 0.4688(6) 0.2237(5) -0.0844(7)
C1D C 0.2808(5) 0.3862(4) -0.2875(6)
C2D C 0.2119(5) 0.4112(5) -0.2124(7)
H1D H 0.2163 0.4737 -0.1722
C3D C 0.1354(5) 0.3423(5) -0.1970(7)
H2D H 0.0908 0.3596 -0.1432
C4D C 0.3626(5) 0.4581(4) -0.3163(6)
C5D C 0.1926(5) 0.2276(4) -0.3234(6)
H3D H 0.1877 0.1639 -0.3603
C6D C 0.2715(5) 0.2911(4) -0.3416(6)
H4D H 0.3187 0.2703 -0.3904
loop_
_geom_bond_atom_site_label_1
_geom_bond_atom_site_label_2
_geom_bond_site_symmetry_1
_geom_bond_site_symmetry_2
Cu1 O1 1_555 1_555
Ni1 O1 1_555 1_555
O1 C4 1_555 1_555
O2 C4 1_555 1_555
N1 C3 1_555 1_555
N2 Cu1 1_555 1_555
N3 N2 1_555 1_555
N4 N3 1_555 1_555
C1 C2 1_555 1_555
C2 H1 1_555 1_555
C3 C2 1_555 1_555
H2 C3 1_555 1_555
C4 C1 1_555 1_555
C5 N1 1_555 1_555
H3 C5 1_555 1_555
C6 C1 1_555 1_555
H4 C6 1_555 1_555
Cu1A O2 1_555 1_555
Cu1A_2 O2D 1_555 1_555
Ni1B N1 1_555 1_555
Ni1D N2 1_555 1_555
Ni1F N1D 1_555 1_555
O1D Cu1 1_555 1_555
O1A Ni1 1_555 1_555
O2D C4D 1_555 1_555
O2A Cu1 1_555 1_555
O2E Cu1 1_555 1_555
N1D C3D 1_555 1_555
N1B Ni1 1_555 1_555
N1C Ni1 1_555 1_555
N2D Cu1 1_555 1_555
N2E Ni1 1_555 1_555
N3D N2D 1_555 1_555
N4D N3D 1_555 1_555
C1D C2D 1_555 1_555
C2D H1D 1_555 1_555
C3D C2D 1_555 1_555
H2D C3D 1_555 1_555
C4D O1D 1_555 1_555
C5D N1D 1_555 1_555
H3D C5D 1_555 1_555
C6D C1D 1_555 1_555
H4D C6D 1_555 1_555
Ni1 N2D 1_555 1_555
C5 C6 1_555 1_555
Cu1A O1A 1_555 1_555
Cu1A N2E 1_555 1_555
Ni1D O1D 1_555 1_555
C1D C4D 1_555 1_555
C5D C6D 1_555 1_555

#END
