
#######################################################################
#
#                 Cambridge Crystallographic Data Centre
#                                CCDC 
#
#######################################################################
#
# If this CIF has been generated from an entry in the Cambridge 
# Structural Database, then it will include bibliographic, chemical, 
# crystal, experimental, refinement or atomic coordinate data resulting 
# from the CCDC's data processing and validation procedures.
#
#######################################################################

data_RIYWED
_chemical_formula_moiety         '(C24 H31 Ca2 O28 P3)n'
_symmetry_cell_setting           orthorhombic
_symmetry_space_group_name_H-M   'P c a 21'
_symmetry_Int_Tables_number      29
_space_group_name_Hall           'P 2c -2ac'
loop_
_symmetry_equiv_pos_site_id
_symmetry_equiv_pos_as_xyz
1 x,y,z
2 -x,-y,1/2+z
3 1/2+x,-y,z
4 1/2-x,y,1/2+z
_cell_length_a                   23.112(4)
_cell_length_b                   6.9534(13)
_cell_length_c                   22.638(4)
_cell_angle_alpha                90
_cell_angle_beta                 90
_cell_angle_gamma                90
_cell_volume                     3638.08
loop_
_atom_site_label
_atom_site_type_symbol
_atom_site_fract_x
_atom_site_fract_y
_atom_site_fract_z
Ca1 Ca 0.46847(10) 0.9357(4) 0.50113(10)
Ca2 Ca 0.45707(10) 0.5632(4) -0.00907(11)
P1 P 0.41484(13) 0.4375(5) 0.52588(14)
P2 P 0.46557(16) 0.9184(5) 0.34265(16)
P3 P 0.40479(14) 0.0640(5) -0.03706(16)
O1 O 0.4513(3) 0.6119(12) 0.5148(4)
O2 O 0.4508(4) 0.2586(13) 0.5135(4)
O3 O 0.3911(4) 0.4429(14) 0.5908(4)
H1 H 0.3803 0.3322 0.6008
O4 O 0.3507(4) 0.3027(16) 0.3016(4)
H2 H 0.3466 0.2615 0.2669
O5 O 0.2530(4) 0.3179(16) 0.2968(4)
O6 O 0.4987(4) 0.9195(13) 0.6004(4)
H3 H 0.4937 1.0253 0.6235
H4 H 0.4857 0.8191 0.6192
O7 O 0.4777(4) 0.5546(13) -0.1099(4)
H5 H 0.4581 0.4755 -0.1303
H6 H 0.5071 0.6143 -0.1228
O8 O 0.1908(4) 0.5817(14) 0.5568(4)
H7 H 0.1569 0.5949 0.5694
O9 O 0.1451(3) 0.5615(12) 0.4693(4)
O10 O 0.4341(4) 0.9136(14) 0.4016(4)
O11 O 0.5234(3) 0.8109(12) 0.3399(4)
O12 O 0.4740(4) 1.1361(12) 0.3287(4)
H8 H 0.4763 1.1515 0.2919
O13 O 0.4161(4) 0.5866(13) 0.0870(4)
O14 O 0.4823(4) 0.4628(14) 0.1466(4)
O15 O 0.2394(4) 0.8189(17) 0.3003(4)
H9 H 0.2031 0.8113 0.3006
O16 O 0.2301(4) 0.6852(16) 0.2091(5)
O17 O 0.4400(3) 0.2346(12) -0.0191(4)
O18 O 0.4415(3) -0.1161(12) -0.0268(4)
O19 O 0.3832(4) 0.0774(13) -0.1026(4)
H10 H 0.4100 0.1203 -0.1240
O20 O 0.2450(4) 0.1732(16) 0.1898(4)
H11 H 0.2495 0.1560 0.2262
O21 O 0.3421(4) 0.2057(14) 0.1864(4)
O22 O 0.1762(3) -0.0739(14) -0.0677(4)
H12 H 0.1416 -0.0840 -0.0787
O23 O 0.1346(3) -0.0492(12) 0.0214(4)
C1 C 0.3497(5) 0.4402(18) 0.4813(6)
C2 C 0.3518(5) 0.3921(17) 0.4214(6)
H13 H 0.3873 0.3550 0.4038
C3 C 0.3010(5) 0.3987(19) 0.3875(6)
C4 C 0.3005(6) 0.338(2) 0.3242(6)
C5 C 0.2485(5) 0.4500(17) 0.4136(5)
H14 H 0.2141 0.4509 0.3906
C6 C 0.2462(5) 0.4998(19) 0.4729(6)
C7 C 0.1896(5) 0.5517(18) 0.4989(7)
C8 C 0.2975(5) 0.4960(18) 0.5062(6)
H15 H 0.2964 0.5326 0.5466
C9 C 0.4193(6) 0.819(2) 0.2858(6)
C10 C 0.4441(5) 0.736(2) 0.2360(6)
H16 H 0.4851 0.7295 0.2328
C11 C 0.4104(6) 0.663(2) 0.1915(6)
C12 C 0.4416(7) 0.569(2) 0.1384(6)
C13 C 0.3508(6) 0.6729(19) 0.1946(6)
H17 H 0.3275 0.6265 0.1631
C14 C 0.3245(5) 0.756(2) 0.2468(7)
C15 C 0.2596(5) 0.748(2) 0.2498(8)
C16 C 0.3594(5) 0.825(2) 0.2903(6)
H18 H 0.3423 0.8774 0.3249
C17 C 0.3393(5) 0.0541(19) 0.0047(7)
C18 C 0.3412(5) 0.0981(18) 0.0645(6)
H19 H 0.3776 0.1276 0.0818
C19 C 0.2920(5) 0.1010(19) 0.1001(6)
C20 C 0.2954(6) 0.166(2) 0.1632(6)
C21 C 0.2393(5) 0.0489(18) 0.0749(6)
H20 H 0.2054 0.0460 0.0987
C22 C 0.2356(5) 0.0008(19) 0.0148(6)
C23 C 0.1779(5) -0.0427(18) -0.0087(7)
C24 C 0.2859(5) 0.0075(18) -0.0197(6)
H21 H 0.2834 -0.0205 -0.0607
Ca1_2 Ca 0.46847(10) -0.0643(4) 0.50113(10)
Ca1A Ca 0.53153(10) 0.0643(4) 0.00113(10)
Ca1C Ca 0.03153(10) -0.0643(4) 0.00113(10)
Ca2_2 Ca 0.45707(10) -0.4368(4) -0.00907(11)
Ca2A Ca 0.54293(10) 0.4368(4) 0.49093(11)
Ca2C Ca 0.04293(10) 0.5632(4) 0.49093(11)
O1A O 0.5487(3) 0.3881(12) 0.0148(4)
O2_2 O 0.4508(4) 1.2586(13) 0.5135(4)
O2A O 0.5492(4) 0.7414(13) 0.0135(4)
O9C O 0.3549(3) 0.5615(12) -0.0307(4)
O17A O 0.5600(3) 0.7654(12) 0.4809(4)
O18_2 O 0.4415(3) 0.8839(12) -0.0268(4)
O18A O 0.5585(3) 1.1161(12) 0.4732(4)
O23C O 0.3654(3) 0.9508(12) 0.5214(4)
O24 O 0.5214(4) 0.251(2) 0.2360(6)
H22 H 0.5574 0.2753 0.2377
H23 H 0.5062 0.3148 0.2080
O25 O 0.6303(4) 0.2769(18) 0.3143(6)
H24 H 0.6222 0.2573 0.3504
H25 H 0.6204 0.3906 0.3048
O26 O 0.6192(4) 0.6727(17) 0.2749(5)
H26 H 0.5915 0.7002 0.2981
H27 H 0.6512 0.7027 0.2910
O27 O 0.4090(4) 0.1595(15) 0.6641(4)
H28 H 0.4011 0.1908 0.6995
H29 H 0.3887 0.0629 0.6542
O28 O 0.3755(4) 0.7738(17) 0.6684(5)
H30 H 0.3872 0.6848 0.6456
H31 H 0.3441 0.7399 0.6848
loop_
_geom_bond_atom_site_label_1
_geom_bond_atom_site_label_2
_geom_bond_site_symmetry_1
_geom_bond_site_symmetry_2
Ca1 O1 1_555 1_555
Ca2 O7 1_555 1_555
P1 O1 1_555 1_555
P2 O10 1_555 1_555
P3 O17 1_555 1_555
O1 Ca2A 1_555 1_555
O2 P1 1_555 1_555
O3 P1 1_555 1_555
H1 O3 1_555 1_555
O4 H2 1_555 1_555
O5 C4 1_555 1_555
O6 Ca1 1_555 1_555
H3 O6 1_555 1_555
H4 O6 1_555 1_555
O7 H5 1_555 1_555
H6 O7 1_555 1_555
O8 H7 1_555 1_555
O9 C7 1_555 1_555
O10 Ca1 1_555 1_555
O11 P2 1_555 1_555
O12 P2 1_555 1_555
H8 O12 1_555 1_555
O13 Ca2 1_555 1_555
O14 C12 1_555 1_555
O15 H9 1_555 1_555
O16 C15 1_555 1_555
O17 Ca2 1_555 1_555
O18 P3 1_555 1_555
O19 P3 1_555 1_555
H10 O19 1_555 1_555
O20 H11 1_555 1_555
O21 C20 1_555 1_555
O22 H12 1_555 1_555
O23 C23 1_555 1_555
C1 P1 1_555 1_555
C2 C1 1_555 1_555
H13 C2 1_555 1_555
C3 C2 1_555 1_555
C4 O4 1_555 1_555
C5 C3 1_555 1_555
H14 C5 1_555 1_555
C6 C5 1_555 1_555
C7 O8 1_555 1_555
C8 C1 1_555 1_555
H15 C8 1_555 1_555
C9 P2 1_555 1_555
C10 C9 1_555 1_555
H16 C10 1_555 1_555
C11 C10 1_555 1_555
C12 O13 1_555 1_555
C13 C11 1_555 1_555
H17 C13 1_555 1_555
C14 C13 1_555 1_555
C15 O15 1_555 1_555
C16 C9 1_555 1_555
H18 C16 1_555 1_555
C17 P3 1_555 1_555
C18 C17 1_555 1_555
H19 C18 1_555 1_555
C19 C18 1_555 1_555
C20 O20 1_555 1_555
C21 C19 1_555 1_555
H20 C21 1_555 1_555
C22 C21 1_555 1_555
C23 O22 1_555 1_555
C24 C17 1_555 1_555
H21 C24 1_555 1_555
O24 H22 1_555 1_555
H23 O24 1_555 1_555
O25 H24 1_555 1_555
H25 O25 1_555 1_555
O26 H26 1_555 1_555
H27 O26 1_555 1_555
O27 H28 1_555 1_555
H29 O27 1_555 1_555
O28 H30 1_555 1_555
H31 O28 1_555 1_555
Ca1_2 O2 1_555 1_555
Ca1A O17 1_555 1_555
Ca1C O23 1_555 1_555
Ca2_2 O18 1_555 1_555
Ca2A O2 1_555 1_555
Ca2C O9 1_555 1_555
O1A Ca2 1_555 1_555
O2_2 Ca1 1_555 1_555
O2A Ca2 1_555 1_555
O9C Ca2 1_555 1_555
O17A Ca1 1_555 1_555
O18_2 Ca2 1_555 1_555
O18A Ca1 1_555 1_555
O23C Ca1 1_555 1_555
O18 Ca1A 1_555 1_555
C3 C4 1_555 1_555
C6 C7 1_555 1_555
C6 C8 1_555 1_555
C11 C12 1_555 1_555
C14 C15 1_555 1_555
C14 C16 1_555 1_555
C19 C20 1_555 1_555
C22 C23 1_555 1_555
C22 C24 1_555 1_555
Ca1A O1A 1_555 1_555
Ca2A O17A 1_555 1_555

#END
