
#######################################################################
#
#                 Cambridge Crystallographic Data Centre
#                                CCDC 
#
#######################################################################
#
# If this CIF has been generated from an entry in the Cambridge 
# Structural Database, then it will include bibliographic, chemical, 
# crystal, experimental, refinement or atomic coordinate data resulting 
# from the CCDC's data processing and validation procedures.
#
#######################################################################

data_ICIVEW
_chemical_formula_moiety         '(C4 H16 N1 O12 P4 Zn3 1-)n'
_symmetry_cell_setting           tetragonal
_symmetry_space_group_name_H-M   'P 4 c c'
_symmetry_Int_Tables_number      103
_space_group_name_Hall           'P 4 -2c'
loop_
_symmetry_equiv_pos_site_id
_symmetry_equiv_pos_as_xyz
1 x,y,z
2 -x,-y,z
3 -y,x,z
4 y,-x,z
5 x,-y,1/2+z
6 -x,y,1/2+z
7 -y,-x,1/2+z
8 y,x,1/2+z
_cell_length_a                   16.4797(8)
_cell_length_b                   16.4797(8)
_cell_length_c                   8.8635(6)
_cell_angle_alpha                90
_cell_angle_beta                 90
_cell_angle_gamma                90
_cell_volume                     2407.15
loop_
_atom_site_label
_atom_site_type_symbol
_atom_site_fract_x
_atom_site_fract_y
_atom_site_fract_z
Zn1 Zn 0.71631(4) 0.41268(4) -0.08112(11)
Zn2 Zn 1.0000 0.5000 0.1775(2)
P1 P 0.66299(11) 0.42876(13) -0.41150(19)
P2 P 0.90889(8) 0.39651(8) -0.0764(3)
O1 O 0.9598(3) 0.4098(3) 0.0616(5)
O2 O 0.9119(3) 0.4649(3) -0.1878(5)
O3 O 0.8233(2) 0.3732(3) -0.0323(5)
O4 O 0.6877(6) 0.3655(5) -0.2840(10)
O5 O 0.6526(5) 0.3704(5) -0.5501(11)
O6 O 0.6835(6) 0.4810(5) -0.5534(10)
H13 H 0.5896 0.4516 -0.3693
H14 H 0.9379 0.3324 -0.1494
Zn1A Zn 1.28369(4) 0.58732(4) -0.08112(11)
Zn1F Zn 0.58732(4) 0.28369(4) -0.58112(11)
Zn1D Zn 0.71631(4) 0.58732(4) -0.58112(11)
Zn1F_2 Zn 0.58732(4) 0.28369(4) 0.41888(11)
Zn1C Zn 0.41268(4) 0.28369(4) -0.08112(11)
Zn2D Zn 1.0000 0.5000 -0.3225(2)
P1F P 0.57124(13) 0.33701(11) 0.08850(19)
P2A P 1.09111(8) 0.60349(8) -0.0764(3)
O1A O 1.0402(3) 0.5902(3) 0.0616(5)
O2A O 1.0881(3) 0.5351(3) -0.1878(5)
O2D O 0.9119(3) 0.5351(3) 0.3122(5)
O2E O 1.0881(3) 0.4649(3) 0.3122(5)
O3A O 1.1767(2) 0.6268(3) -0.0323(5)
O4F O 0.6345(5) 0.3123(6) 0.2160(10)
O4A O 1.3123(6) 0.6345(5) -0.2840(10)
O5F O 0.6296(5) 0.3474(5) -0.0501(11)
O5G O 1.3704(5) 0.6526(5) -0.0501(11)
O6F O 0.5190(5) 0.3165(6) -0.0534(10)
O6D O 0.6835(6) 0.5190(5) -0.0534(10)
O6E O 1.3165(6) 0.4810(5) -0.0534(10)
H13F H 0.5484 0.4104 0.1307
H14A H 1.0621 0.6676 -0.1494
N1 N 0.6116(4) 0.8042(4) 0.2888(7)
H1 H 0.5593 0.8134 0.3072
H2 H 0.6220 0.7515 0.3006
H3 H 0.6232 0.8189 0.1947
C1 C 0.6616(7) 0.8516(5) 0.3950(15)
H4 H 0.6493 0.9086 0.3795
H5 H 0.6445 0.8380 0.4966
C2 C 0.7432(9) 0.8427(7) 0.388(2)
H6 H 0.7607 0.8537 0.2855
H7 H 0.7564 0.7865 0.4101
C3 C 0.7920(11) 0.8974(11) 0.496(3)
H8 H 0.7768 0.9539 0.4850
H9 H 0.7852 0.8809 0.6000
C4 C 0.8738(18) 0.883(2) 0.443(6)
H10 H 0.9110 0.9150 0.5010
H11 H 0.8777 0.8975 0.3385
H12 H 0.8868 0.8264 0.4549
loop_
_geom_bond_atom_site_label_1
_geom_bond_atom_site_label_2
_geom_bond_site_symmetry_1
_geom_bond_site_symmetry_2
Zn1 O3 1_555 1_555
Zn2 O1 1_555 1_555
P1 O4 1_555 1_555
P2 O1 1_555 1_555
O2 P2 1_555 1_555
O3 P2 1_555 1_555
O4 Zn1 1_555 1_555
O5 P1 1_555 1_555
O6 P1 1_555 1_555
N1 H1 1_555 1_555
H2 N1 1_555 1_555
H3 N1 1_555 1_555
C1 N1 1_555 1_555
H4 C1 1_555 1_555
H5 C1 1_555 1_555
C2 C1 1_555 1_555
H6 C2 1_555 1_555
H7 C2 1_555 1_555
C3 C2 1_555 1_555
H8 C3 1_555 1_555
H9 C3 1_555 1_555
C4 C3 1_555 1_555
H10 C4 1_555 1_555
H11 C4 1_555 1_555
H12 C4 1_555 1_555
H13 P1 1_555 1_555
H14 P2 1_555 1_555
Zn1A O3A 1_555 1_555
Zn1F O5 1_555 1_555
Zn1D O6 1_555 1_555
Zn1F_2 O4F 1_555 1_555
Zn1C O6F 1_555 1_555
Zn2D O2 1_555 1_555
P1F O4F 1_555 1_555
P2A O1A 1_555 1_555
O1A Zn2 1_555 1_555
O2A Zn2D 1_555 1_555
O2D Zn2 1_555 1_555
O2E Zn2 1_555 1_555
O3A P2A 1_555 1_555
O4A Zn1A 1_555 1_555
O5F Zn1 1_555 1_555
O5G Zn1A 1_555 1_555
O6F P1F 1_555 1_555
O6D Zn1 1_555 1_555
O6E Zn1A 1_555 1_555
H13F P1F 1_555 1_555
H14A P2A 1_555 1_555
P1F O5F 1_555 1_555
P2A O2A 1_555 1_555

#END
