
#######################################################################
#
#                 Cambridge Crystallographic Data Centre
#                                CCDC 
#
#######################################################################
#
# If this CIF has been generated from an entry in the Cambridge 
# Structural Database, then it will include bibliographic, chemical, 
# crystal, experimental, refinement or atomic coordinate data resulting 
# from the CCDC's data processing and validation procedures.
#
#######################################################################

data_PEFRUP
_chemical_formula_moiety         '(C72 H48 Gd4 N12 O30)n'
_symmetry_cell_setting           monoclinic
_symmetry_space_group_name_H-M   'P 21/c'
_symmetry_Int_Tables_number      14
_space_group_name_Hall           '-P 2ybc'
loop_
_symmetry_equiv_pos_site_id
_symmetry_equiv_pos_as_xyz
1 x,y,z
2 -x,1/2+y,1/2-z
3 -x,-y,-z
4 x,1/2-y,1/2+z
_cell_length_a                   25.6487(14)
_cell_length_b                   15.1875(19)
_cell_length_c                   17.0378(12)
_cell_angle_alpha                90
_cell_angle_beta                 97.910(6)
_cell_angle_gamma                90
_cell_volume                     6573.75
loop_
_atom_site_label
_atom_site_type_symbol
_atom_site_fract_x
_atom_site_fract_y
_atom_site_fract_z
Gd1 Gd 0.24971(2) 0.32924(5) 0.68502(4)
Gd2 Gd 0.74962(2) -0.20429(5) 0.53678(4)
O1 O 0.1982(3) 0.3398(7) 0.5591(5)
O2 O 0.3207(3) 0.2245(6) 0.7177(5)
O3 O 0.2007(3) 0.1975(7) 0.6709(5)
O4 O 0.3149(3) 0.3865(6) 0.6085(6)
O5 O 0.6987(3) -0.1148(6) 0.7049(5)
O6 O -0.1724(4) -0.1382(8) 0.7590(6)
O7 O 0.2390(4) 0.4912(7) 0.6742(6)
O8 O 0.6688(3) -0.1762(7) 0.5896(5)
O9 O 0.2987(3) 0.1939(6) 0.5919(5)
O10 O 0.2992(3) 0.3373(7) 0.4847(5)
O11 O 0.1780(3) 0.3030(7) 0.4348(5)
O12 O 0.7347(4) -0.0365(8) 0.5245(6)
O13 O 0.7500(3) -0.2841(7) 0.6671(6)
O14 O 0.1892(3) 0.1488(7) 0.5471(6)
O15 O -0.1916(3) -0.1377(7) 0.6330(5)
C1 C 0.4752(3) 0.4815(7) 0.5030(6)
N1 N 0.4499(3) 0.5121(6) 0.5648(5)
C2 C 0.4011(3) 0.4783(7) 0.5756(5)
H1 H 0.3842 0.4988 0.6170
C3 C 0.3775(3) 0.4139(7) 0.5247(6)
C4 C 0.4027(4) 0.3833(6) 0.4629(6)
H2 H 0.3869 0.3402 0.4288
C5 C 0.4516(4) 0.4171(7) 0.4520(5)
H3 H 0.4685 0.3966 0.4107
C6 C 0.3265(5) 0.3725(11) 0.5390(9)
C7 C 0.0230(3) 0.4778(7) 0.4961(6)
N2 N 0.0603(4) 0.4784(7) 0.5635(5)
C8 C 0.1080(3) 0.4351(7) 0.5634(5)
H4 H 0.1329 0.4355 0.6085
C9 C 0.1185(3) 0.3911(7) 0.4957(6)
C10 C 0.0812(4) 0.3905(8) 0.4282(5)
H5 H 0.0882 0.3611 0.3829
C11 C 0.0335(3) 0.4339(8) 0.4284(5)
H6 H 0.0086 0.4335 0.3832
C12 C 0.1683(5) 0.3395(10) 0.4962(8)
C13 C 0.4646(3) 0.0249(7) 0.6635(6)
N3 N 0.4290(3) 0.0294(7) 0.5943(5)
C14 C 0.3843(3) 0.0817(7) 0.5914(5)
H7 H 0.3605 0.0847 0.5451
C15 C 0.3752(3) 0.1297(6) 0.6577(6)
C16 C 0.4109(4) 0.1253(7) 0.7269(5)
H8 H 0.4048 0.1574 0.7713
C17 C 0.4555(3) 0.0729(8) 0.7298(5)
H9 H 0.4794 0.0699 0.7761
C18 C 0.3285(4) 0.1845(10) 0.6564(10)
C19 C 0.5116(3) -0.0210(7) 0.6628(6)
N4 N 0.5190(3) -0.0721(7) 0.5975(5)
C20 C 0.5676(3) -0.1110(7) 0.5934(5)
H10 H 0.5726 -0.1453 0.5498
C21 C 0.6088(3) -0.0989(7) 0.6546(6)
C22 C 0.6014(3) -0.0477(7) 0.7198(5)
H11 H 0.6290 -0.0396 0.7607
C23 C 0.5528(4) -0.0088(7) 0.7239(5)
H12 H 0.5479 0.0254 0.7675
C24 C 0.6633(5) -0.1320(9) 0.6513(9)
C25 C -0.0080(3) -0.0277(8) 0.6665(6)
N5 N -0.0296(4) -0.0115(8) 0.7356(5)
C26 C -0.0791(4) -0.0443(8) 0.7440(5)
H13 H -0.0936 -0.0335 0.7902
C27 C -0.1071(3) -0.0933(8) 0.6833(6)
C28 C -0.0855(4) -0.1095(7) 0.6142(6)
H14 H -0.1042 -0.1422 0.5736
C29 C -0.0360(4) -0.0767(8) 0.6058(6)
H15 H -0.0215 -0.0875 0.5596
C30 C -0.1606(4) -0.1243(9) 0.6945(8)
C31 C 0.0399(3) 0.0144(7) 0.6597(6)
N6 N 0.0632(4) -0.0062(6) 0.5930(6)
C32 C 0.1088(4) 0.0371(8) 0.5790(5)
H16 H 0.1244 0.0233 0.5344
C33 C 0.1310(3) 0.1010(7) 0.6316(6)
C34 C 0.1077(3) 0.1216(7) 0.6983(6)
H17 H 0.1226 0.1644 0.7335
C35 C 0.0622(3) 0.0783(8) 0.7123(5)
H18 H 0.0466 0.0921 0.7569
C36 C 0.1793(5) 0.1531(11) 0.6168(10)
Gd1B Gd -0.24971(2) 0.67076(5) 0.31498(4)
Gd1A Gd 0.75029(2) -0.17076(5) 0.81498(4)
Gd1A_2 Gd -0.24971(2) -0.17076(5) 0.81498(4)
Gd1B_2 Gd 0.75029(2) 0.67076(5) 0.31498(4)
Gd1A_3 Gd 0.75029(2) 0.82924(5) 0.81498(4)
Gd1A_4 Gd -0.24971(2) 0.82924(5) 0.81498(4)
Gd2A Gd 0.25038(2) 0.29571(5) 0.96322(4)
Gd2B Gd 0.25038(2) 0.20429(5) 0.46322(4)
Gd2_2 Gd -0.25038(2) -0.20429(5) 0.53678(4)
Gd2_3 Gd -0.25038(2) 0.79571(5) 0.53678(4)
Gd2_4 Gd 0.74962(2) 0.79571(5) 0.53678(4)
Gd2C Gd 0.74962(2) 0.70429(5) 1.03678(4)
Gd2C_2 Gd -0.25038(2) 0.70429(5) 1.03678(4)
O1B O -0.1982(3) 0.6602(7) 0.4409(5)
O2A O 0.6793(3) 0.7245(6) 0.7823(5)
O2B O -0.3207(3) 0.7755(6) 0.2823(5)
O3A O -0.2007(3) 0.6975(7) 0.8291(5)
O3B O -0.2007(3) 0.8025(7) 0.3291(5)
O4B O 0.6851(3) 0.6135(6) 0.3915(6)
O4B_2 O -0.3149(3) 0.6135(6) 0.3915(6)
O5A O 0.3013(3) 0.3852(6) 0.7951(5)
O5C O -0.3013(3) 0.6148(6) 0.2049(5)
O6A O 0.1724(4) 0.3618(8) 0.7410(6)
O6C O -0.1724(4) 0.6382(8) 0.2590(6)
O7B O -0.2390(4) 0.5088(7) 0.3258(6)
O8A O 0.3312(3) 0.3238(7) 0.9104(5)
O9A O 0.7013(3) 0.6939(6) 0.9081(5)
O9B O 0.7013(3) -0.1939(6) 0.4081(5)
O9C O 0.2987(3) 0.3061(6) 1.0919(5)
O10B O 0.7008(3) 0.6627(7) 0.5153(5)
O10B_2 O 0.7008(3) -0.3373(7) 0.5153(5)
O10C O 0.2992(3) 0.1627(7) 0.9847(5)
O11B O -0.1780(3) 0.6970(7) 0.5652(5)
O11B_2 O 0.8220(3) -0.3030(7) 0.5652(5)
O11C O 0.1780(3) 0.1970(7) 0.9348(5)
O12A O 0.2653(4) 0.4635(8) 0.9755(6)
O13A O 0.2500(3) 0.2159(7) 0.8329(6)
O14A O -0.1892(3) 0.6488(7) 0.9529(6)
O14B O 0.8108(3) -0.1488(7) 0.4529(6)
O14C O 0.1892(3) 0.3512(7) 1.0471(6)
O15A O 0.1916(3) 0.3623(7) 0.8670(5)
O15_2 O 0.8084(3) -0.1377(7) 0.6330(5)
C1B C 0.5248(3) 0.5185(7) 0.4970(6)
N1B N 0.5501(3) 0.4879(6) 0.4352(5)
C2B C 0.5989(3) 0.5217(7) 0.4244(5)
H1B H 0.6158 0.5012 0.3830
C3B C 0.6225(3) 0.5861(7) 0.4753(6)
C4B C 0.5973(4) 0.6167(6) 0.5371(6)
H2B H 0.6131 0.6598 0.5712
C5B C 0.5484(4) 0.5829(7) 0.5480(5)
H3B H 0.5315 0.6034 0.5893
C6B C 0.6735(5) 0.6275(11) 0.4610(9)
C7B C -0.0230(3) 0.5222(7) 0.5039(6)
N2B N -0.0603(4) 0.5216(7) 0.4365(5)
C8B C -0.1080(3) 0.5649(7) 0.4366(5)
H4B H -0.1329 0.5645 0.3915
C9B C -0.1185(3) 0.6089(7) 0.5043(6)
C10B C -0.0812(4) 0.6095(8) 0.5718(5)
H5B H -0.0882 0.6389 0.6171
C11B C -0.0335(3) 0.5661(8) 0.5716(5)
H6B H -0.0086 0.5665 0.6168
C12B C -0.1683(5) 0.6605(10) 0.5038(8)
C13A C 0.5354(3) 0.5249(7) 0.8365(6)
N3A N 0.5710(3) 0.5294(7) 0.9057(5)
C14A C 0.6157(3) 0.5817(7) 0.9086(5)
H7A H 0.6395 0.5847 0.9549
C15A C 0.6248(3) 0.6297(6) 0.8423(6)
C16A C 0.5891(4) 0.6253(7) 0.7731(5)
H8A H 0.5952 0.6574 0.7287
C17A C 0.5445(3) 0.5729(8) 0.7702(5)
H9A H 0.5206 0.5699 0.7239
C18A C 0.6715(4) 0.6845(10) 0.8436(10)
C19A C 0.4884(3) 0.4790(7) 0.8372(6)
N4A N 0.4810(3) 0.4279(7) 0.9025(5)
C20A C 0.4324(3) 0.3890(7) 0.9066(5)
H10A H 0.4274 0.3547 0.9502
C21A C 0.3912(3) 0.4011(7) 0.8454(6)
C22A C 0.3986(3) 0.4523(7) 0.7802(5)
H11A H 0.3710 0.4604 0.7393
C23A C 0.4472(4) 0.4912(7) 0.7761(5)
H12A H 0.4521 0.5254 0.7325
C24A C 0.3367(5) 0.3680(9) 0.8487(9)
C25A C 0.0080(3) 0.4723(8) 0.8335(6)
N5A N 0.0296(4) 0.4885(8) 0.7644(5)
C26A C 0.0791(4) 0.4557(8) 0.7560(5)
H13A H 0.0936 0.4665 0.7098
C27A C 0.1071(3) 0.4067(8) 0.8167(6)
C28A C 0.0855(4) 0.3905(7) 0.8858(6)
H14A H 0.1042 0.3578 0.9264
C29A C 0.0360(4) 0.4233(8) 0.8942(6)
H15A H 0.0215 0.4125 0.9404
C30A C 0.1606(4) 0.3757(9) 0.8055(8)
C31A C -0.0399(3) 0.5144(7) 0.8403(6)
N6A N -0.0632(4) 0.4938(6) 0.9070(6)
C32A C -0.1088(4) 0.5371(8) 0.9210(5)
H16A H -0.1244 0.5233 0.9656
C33A C -0.1310(3) 0.6010(7) 0.8684(6)
C34A C -0.1077(3) 0.6216(7) 0.8017(6)
H17A H -0.1226 0.6644 0.7665
C35A C -0.0622(3) 0.5783(8) 0.7877(5)
H18A H -0.0466 0.5921 0.7431
C36A C -0.1793(5) 0.6531(11) 0.8832(10)
loop_
_geom_bond_atom_site_label_1
_geom_bond_atom_site_label_2
_geom_bond_site_symmetry_1
_geom_bond_site_symmetry_2
Gd1 O1 1_555 1_555
Gd2 O8 1_555 1_555
O1 C12 1_555 1_555
O2 Gd1 1_555 1_555
O3 Gd1 1_555 1_555
O4 Gd1 1_555 1_555
O5 C24 1_555 1_555
O6 C30 1_555 1_555
O7 Gd1 1_555 1_555
O8 C24 1_555 1_555
O9 C18 1_555 1_555
O10 C6 1_555 1_555
O11 C12 1_555 1_555
O12 Gd2 1_555 1_555
O13 Gd2 1_555 1_555
O14 C36 1_555 1_555
O15 C30 1_555 1_555
C1 N1 1_555 1_555
N1 C2 1_555 1_555
C2 H1 1_555 1_555
C3 C2 1_555 1_555
C4 C3 1_555 1_555
H2 C4 1_555 1_555
C5 C1 1_555 1_555
H3 C5 1_555 1_555
C6 O4 1_555 1_555
C7 N2 1_555 1_555
N2 C8 1_555 1_555
C8 H4 1_555 1_555
C9 C8 1_555 1_555
C10 C9 1_555 1_555
H5 C10 1_555 1_555
C11 C7 1_555 1_555
H6 C11 1_555 1_555
C12 C9 1_555 1_555
C13 N3 1_555 1_555
N3 C14 1_555 1_555
C14 H7 1_555 1_555
C15 C14 1_555 1_555
C16 C15 1_555 1_555
H8 C16 1_555 1_555
C17 C13 1_555 1_555
H9 C17 1_555 1_555
C18 O2 1_555 1_555
C19 C13 1_555 1_555
N4 C19 1_555 1_555
C20 N4 1_555 1_555
H10 C20 1_555 1_555
C21 C20 1_555 1_555
C22 C21 1_555 1_555
H11 C22 1_555 1_555
C23 C19 1_555 1_555
H12 C23 1_555 1_555
C24 C21 1_555 1_555
C25 N5 1_555 1_555
N5 C26 1_555 1_555
C26 H13 1_555 1_555
C27 C26 1_555 1_555
C28 C27 1_555 1_555
H14 C28 1_555 1_555
C29 C25 1_555 1_555
H15 C29 1_555 1_555
C30 C27 1_555 1_555
C31 C25 1_555 1_555
N6 C31 1_555 1_555
C32 N6 1_555 1_555
H16 C32 1_555 1_555
C33 C32 1_555 1_555
C34 C33 1_555 1_555
H17 C34 1_555 1_555
C35 C31 1_555 1_555
H18 C35 1_555 1_555
C36 O3 1_555 1_555
Gd1B O1B 1_555 1_555
Gd1A O5 1_555 1_555
Gd1A_2 O6 1_555 1_555
Gd1B_2 O4B 1_555 1_555
Gd1A_3 O2A 1_555 1_555
Gd1A_4 O3A 1_555 1_555
Gd2A O8A 1_555 1_555
Gd2B O9 1_555 1_555
Gd2_2 O15 1_555 1_555
Gd2_3 O11B 1_555 1_555
Gd2_4 O10B 1_555 1_555
Gd2C O9A 1_555 1_555
Gd2C_2 O14A 1_555 1_555
O1B C12B 1_555 1_555
O2A C18A 1_555 1_555
O2B Gd1B 1_555 1_555
O3A C36A 1_555 1_555
O3B Gd1B 1_555 1_555
O4B C6B 1_555 1_555
O4B_2 Gd1B 1_555 1_555
O5A Gd1 1_555 1_555
O5C Gd1B 1_555 1_555
O6A Gd1 1_555 1_555
O6C Gd1B 1_555 1_555
O7B Gd1B 1_555 1_555
O8A C24A 1_555 1_555
O9A C18A 1_555 1_555
O9B Gd2 1_555 1_555
O9C Gd2A 1_555 1_555
O10B C6B 1_555 1_555
O10B_2 Gd2 1_555 1_555
O10C Gd2A 1_555 1_555
O11B C12B 1_555 1_555
O11B_2 Gd2 1_555 1_555
O11C Gd2A 1_555 1_555
O12A Gd2A 1_555 1_555
O13A Gd2A 1_555 1_555
O14A C36A 1_555 1_555
O14B Gd2 1_555 1_555
O14C Gd2A 1_555 1_555
O15A Gd2A 1_555 1_555
O15_2 Gd2 1_555 1_555
C1B C1 1_555 1_555
N1B C1B 1_555 1_555
C2B N1B 1_555 1_555
H1B C2B 1_555 1_555
C3B C2B 1_555 1_555
C4B C3B 1_555 1_555
H2B C4B 1_555 1_555
C5B C1B 1_555 1_555
H3B C5B 1_555 1_555
C6B C3B 1_555 1_555
C7B C7 1_555 1_555
N2B C7B 1_555 1_555
C8B N2B 1_555 1_555
H4B C8B 1_555 1_555
C9B C8B 1_555 1_555
C10B C9B 1_555 1_555
H5B C10B 1_555 1_555
C11B C7B 1_555 1_555
H6B C11B 1_555 1_555
C12B C9B 1_555 1_555
C13A N3A 1_555 1_555
N3A C14A 1_555 1_555
C14A H7A 1_555 1_555
C15A C14A 1_555 1_555
C16A C15A 1_555 1_555
H8A C16A 1_555 1_555
C17A C13A 1_555 1_555
H9A C17A 1_555 1_555
C18A C15A 1_555 1_555
C19A C13A 1_555 1_555
N4A C19A 1_555 1_555
C20A N4A 1_555 1_555
H10A C20A 1_555 1_555
C21A C20A 1_555 1_555
C22A C21A 1_555 1_555
H11A C22A 1_555 1_555
C23A C19A 1_555 1_555
H12A C23A 1_555 1_555
C24A O5A 1_555 1_555
C25A N5A 1_555 1_555
N5A C26A 1_555 1_555
C26A H13A 1_555 1_555
C27A C26A 1_555 1_555
C28A C27A 1_555 1_555
H14A C28A 1_555 1_555
C29A C25A 1_555 1_555
H15A C29A 1_555 1_555
C30A O6A 1_555 1_555
C31A C25A 1_555 1_555
N6A C31A 1_555 1_555
C32A N6A 1_555 1_555
H16A C32A 1_555 1_555
C33A C32A 1_555 1_555
C34A C33A 1_555 1_555
H17A C34A 1_555 1_555
C35A C31A 1_555 1_555
H18A C35A 1_555 1_555
C36A C33A 1_555 1_555
O10 Gd2B 1_555 1_555
O11 Gd2B 1_555 1_555
O14 Gd2B 1_555 1_555
C3 C6 1_555 1_555
C4 C5 1_555 1_555
C10 C11 1_555 1_555
C15 C18 1_555 1_555
C16 C17 1_555 1_555
C22 C23 1_555 1_555
C28 C29 1_555 1_555
C33 C36 1_555 1_555
C34 C35 1_555 1_555
O15A C30A 1_555 1_555
C4B C5B 1_555 1_555
C10B C11B 1_555 1_555
C16A C17A 1_555 1_555
C21A C24A 1_555 1_555
C22A C23A 1_555 1_555
C27A C30A 1_555 1_555
C28A C29A 1_555 1_555
C34A C35A 1_555 1_555

#END
