
#######################################################################
#
#                 Cambridge Crystallographic Data Centre
#                                CCDC 
#
#######################################################################
#
# If this CIF has been generated from an entry in the Cambridge 
# Structural Database, then it will include bibliographic, chemical, 
# crystal, experimental, refinement or atomic coordinate data resulting 
# from the CCDC's data processing and validation procedures.
#
#######################################################################

data_FANCOP
_chemical_formula_moiety         '(C30 H39 Cl2 N4 O15 Pr1)n'
_symmetry_cell_setting           triclinic
_symmetry_space_group_name_H-M   'P -1'
_symmetry_Int_Tables_number      2
_space_group_name_Hall           '-P 1'
loop_
_symmetry_equiv_pos_site_id
_symmetry_equiv_pos_as_xyz
1 x,y,z
2 -x,-y,-z
_cell_length_a                   9.5285(19)
_cell_length_b                   12.760(3)
_cell_length_c                   18.896(4)
_cell_angle_alpha                106.72(3)
_cell_angle_beta                 98.91(3)
_cell_angle_gamma                98.59(3)
_cell_volume                     2127.62
loop_
_atom_site_label
_atom_site_type_symbol
_atom_site_fract_x
_atom_site_fract_y
_atom_site_fract_z
Pr1 Pr 0.76770(2) 0.98611(2) 1.49706(2)
O1 O 0.5453(4) 0.9614(3) 1.41139(17)
O2 O 0.5989(4) 0.8146(4) 1.5025(2)
H1 H 0.5420 0.7634 1.4624
H2 H 0.5719 0.8279 1.5465
O3 O 0.3123(3) 0.9592(3) 1.38227(17)
O4 O 0.7135(5) 1.1789(4) 1.5152(3)
H3 H 0.7407 1.2052 1.4778
H4 H 0.6865 1.2175 1.5517
O5 O 0.1437(4) 0.9426(3) 0.60099(19)
O6 O -0.0960(4) 0.8947(3) 0.57077(19)
O7 O -0.0115(4) 0.1165(3) 0.57177(18)
O8 O 0.2233(4) 0.1819(3) 0.6063(2)
N1 N 0.4325(4) 0.8255(4) 1.1320(2)
N2 N 0.0096(5) 0.8634(4) 0.8250(2)
N3 N 0.0425(5) 0.4038(3) 0.8198(2)
C1 C 0.4316(4) 0.9456(4) 1.3648(2)
C2 C 0.5575(5) 0.8476(5) 1.1829(2)
H5 H 0.6425 0.8356 1.1664
C3 C 0.5605(5) 0.8874(5) 1.2579(2)
H6 H 0.6473 0.9027 1.2927
C4 C 0.4337(4) 0.9051(4) 1.2826(2)
C5 C 0.3084(4) 0.8846(4) 1.2297(2)
H7 H 0.2225 0.8975 1.2449
C6 C 0.3105(5) 0.8450(4) 1.1543(2)
H8 H 0.2257 0.8317 1.1184
C7 C 0.0246(5) 0.9110(4) 0.6132(3)
C8 C -0.1093(6) 0.8754(5) 0.7842(3)
H9 H -0.1938 0.8764 0.8030
C9 C -0.1082(5) 0.8865(5) 0.7142(3)
H10 H -0.1932 0.8906 0.6844
C10 C 0.0194(5) 0.8917(4) 0.6881(3)
C11 C 0.1418(5) 0.8799(5) 0.7319(3)
H11 H 0.2282 0.8812 0.7148
C12 C 0.1360(6) 0.8662(5) 0.8008(3)
H12 H 0.2187 0.8590 0.8308
C13 C 0.0958(5) 0.1835(4) 0.6150(2)
C14 C 0.1702(6) 0.4021(5) 0.8055(3)
H13 H 0.2502 0.4479 0.8416
C15 C 0.1920(5) 0.3347(4) 0.7385(3)
H14 H 0.2851 0.3363 0.7291
C16 C 0.0751(5) 0.2655(4) 0.6858(3)
C17 C -0.0604(6) 0.2725(5) 0.7008(3)
H15 H -0.1423 0.2298 0.6648
C18 C -0.0759(7) 0.3403(5) 0.7669(4)
H16 H -0.1683 0.3437 0.7764
C19 C 0.2943(5) 0.7411(5) 0.9979(2)
C20 C 0.2312(6) 0.6262(4) 0.9735(3)
C21 C 0.0956(6) 0.5880(4) 0.9224(3)
C22 C 0.0258(5) 0.6632(4) 0.8958(3)
C23 C 0.0900(5) 0.7764(4) 0.9236(2)
C24 C 0.2243(5) 0.8163(4) 0.9730(2)
C25 C 0.3067(9) 0.5488(6) 1.0023(4)
H17 H 0.3722 0.5229 0.9705
H18 H 0.2366 0.4862 1.0019
H19 H 0.3602 0.5871 1.0529
C26 C 0.0227(8) 0.4687(5) 0.8964(3)
H20 H -0.0803 0.4639 0.8951
H21 H 0.0601 0.4342 0.9329
C27 C -0.1149(6) 0.6220(6) 0.8403(4)
H22 H -0.1013 0.5726 0.7940
H23 H -0.1500 0.6843 0.8306
H24 H -0.1842 0.5826 0.8604
C28 C 0.0078(6) 0.8602(4) 0.9035(3)
H25 H -0.0920 0.8414 0.9082
H26 H 0.0505 0.9340 0.9392
C29 C 0.2960(8) 0.9395(6) 1.0013(4)
H27 H 0.3236 0.9621 0.9602
H28 H 0.3805 0.9529 1.0402
H29 H 0.2277 0.9818 1.0213
C30 C 0.4384(6) 0.7843(6) 1.0489(3)
H30 H 0.4895 0.8454 1.0357
H31 H 0.4938 0.7255 1.0409
Pr1_2 Pr -0.23230(2) -0.01389(2) 0.49706(2)
Pr1_3 Pr -0.23230(2) 0.98611(2) 0.49706(2)
Pr1A Pr 0.23230(2) 0.01389(2) 0.50294(2)
Pr1A_2 Pr 0.23230(2) 1.01389(2) 0.50294(2)
Pr1A_3 Pr 0.23230(2) 1.01389(2) 1.50294(2)
O3A O 0.6877(3) 1.0408(3) 1.61773(17)
O5A O 0.8563(4) 1.0574(3) 1.39901(19)
O6_2 O 0.9040(4) 0.8947(3) 1.57077(19)
O7_2 O 0.9885(4) 1.1165(3) 1.57177(18)
O8A O 0.7767(4) 0.8181(3) 1.3937(2)
N4 N 0.8953(5) 0.8245(4) 0.0930(3)
O9 O 0.851(2) 0.8701(15) 0.0502(11)
O10 O 0.7943(14) 0.7320(9) 0.0735(8)
O11 O 0.953(2) 0.8348(19) 0.1569(9)
Cl1 Cl 0.5098(4) 0.8666(5) 0.8189(3)
O15 O 0.6403(14) 0.7558(18) 0.9221(8)
H32 H 0.6144 0.8039 0.9051
H33 H 0.6963 0.7824 0.9663
O16 O 0.4919(14) 0.5756(14) 0.8718(9)
H34 H 0.5181 0.5208 0.8511
H35 H 0.5462 0.6328 0.8942
Cl2 Cl 0.4153(4) 0.6051(4) 0.2034(3)
O17 O 0.4060(12) 0.6549(9) 0.3530(6)
H36 H 0.4855 0.6420 0.3363
H37 H 0.3415 0.6528 0.3253
O18 O 0.5072(9) 0.2076(7) 0.3555(4)
H38 H 0.5762 0.1782 0.3343
H39 H 0.4666 0.2234 0.3145
loop_
_geom_bond_atom_site_label_1
_geom_bond_atom_site_label_2
_geom_bond_site_symmetry_1
_geom_bond_site_symmetry_2
Pr1 O1 1_555 1_555
O1 C1 1_555 1_555
O2 Pr1 1_555 1_555
H1 O2 1_555 1_555
H2 O2 1_555 1_555
O3 C1 1_555 1_555
O4 Pr1 1_555 1_555
H3 O4 1_555 1_555
H4 O4 1_555 1_555
O5 C7 1_555 1_555
O6 C7 1_555 1_555
O7 C13 1_555 1_555
O8 C13 1_555 1_555
N1 C2 1_555 1_555
N2 C8 1_555 1_555
N3 C14 1_555 1_555
C1 C4 1_555 1_555
C2 H5 1_555 1_555
C3 C2 1_555 1_555
H6 C3 1_555 1_555
C4 C3 1_555 1_555
C5 C4 1_555 1_555
H7 C5 1_555 1_555
C6 N1 1_555 1_555
H8 C6 1_555 1_555
C7 C10 1_555 1_555
C8 H9 1_555 1_555
C9 C8 1_555 1_555
H10 C9 1_555 1_555
C10 C9 1_555 1_555
C11 C10 1_555 1_555
H11 C11 1_555 1_555
C12 N2 1_555 1_555
H12 C12 1_555 1_555
C13 C16 1_555 1_555
C14 H13 1_555 1_555
C15 C14 1_555 1_555
H14 C15 1_555 1_555
C16 C15 1_555 1_555
C17 C16 1_555 1_555
H15 C17 1_555 1_555
C18 N3 1_555 1_555
H16 C18 1_555 1_555
C19 C20 1_555 1_555
C20 C21 1_555 1_555
C21 C22 1_555 1_555
C22 C23 1_555 1_555
C23 C24 1_555 1_555
C24 C19 1_555 1_555
C25 C20 1_555 1_555
H17 C25 1_555 1_555
H18 C25 1_555 1_555
H19 C25 1_555 1_555
C26 N3 1_555 1_555
H20 C26 1_555 1_555
H21 C26 1_555 1_555
C27 C22 1_555 1_555
H22 C27 1_555 1_555
H23 C27 1_555 1_555
H24 C27 1_555 1_555
C28 N2 1_555 1_555
H25 C28 1_555 1_555
H26 C28 1_555 1_555
C29 C24 1_555 1_555
H27 C29 1_555 1_555
H28 C29 1_555 1_555
H29 C29 1_555 1_555
C30 N1 1_555 1_555
H30 C30 1_555 1_555
H31 C30 1_555 1_555
N4 O9 1_555 1_555
O10 N4 1_555 1_555
O11 N4 1_555 1_555
O15 H32 1_555 1_555
H33 O15 1_555 1_555
O16 H34 1_555 1_555
H35 O16 1_555 1_555
O17 H36 1_555 1_555
H37 O17 1_555 1_555
O18 H38 1_555 1_555
H39 O18 1_555 1_555
Pr1_2 O7 1_555 1_555
Pr1_3 O6 1_555 1_555
Pr1A O8 1_555 1_555
Pr1A_2 O5 1_555 1_555
Pr1A_3 O3 1_555 1_555
O3A Pr1 1_555 1_555
O5A Pr1 1_555 1_555
O6_2 Pr1 1_555 1_555
O7_2 Pr1 1_555 1_555
O8A Pr1 1_555 1_555
C5 C6 1_555 1_555
C11 C12 1_555 1_555
C17 C18 1_555 1_555
C19 C30 1_555 1_555
C21 C26 1_555 1_555
C23 C28 1_555 1_555

#END
