
#######################################################################
#
#                 Cambridge Crystallographic Data Centre
#                                CCDC 
#
#######################################################################
#
# If this CIF has been generated from an entry in the Cambridge 
# Structural Database, then it will include bibliographic, chemical, 
# crystal, experimental, refinement or atomic coordinate data resulting 
# from the CCDC's data processing and validation procedures.
#
#######################################################################

data_FANCIJ
_chemical_formula_moiety         '(C34 H53 Cl3 N5 O18 Yb1)n'
_symmetry_cell_setting           triclinic
_symmetry_space_group_name_H-M   'P -1'
_symmetry_Int_Tables_number      2
_space_group_name_Hall           '-P 1'
loop_
_symmetry_equiv_pos_site_id
_symmetry_equiv_pos_as_xyz
1 x,y,z
2 -x,-y,-z
_cell_length_a                   9.4755(4)
_cell_length_b                   13.0729(6)
_cell_length_c                   18.4582(9)
_cell_angle_alpha                107.5060(10)
_cell_angle_beta                 96.5740(10)
_cell_angle_gamma                98.2310(10)
_cell_volume                     2127.82
loop_
_atom_site_label
_atom_site_type_symbol
_atom_site_fract_x
_atom_site_fract_y
_atom_site_fract_z
Yb1 Yb 0.76572(2) 0.49406(2) 0.99720(2)
O1 O 0.5647(4) 0.4632(3) 0.91180(19)
O2 O 0.6111(4) 0.3383(3) 1.0031(2)
H1 H 0.5802 0.2902 0.9571
H2 H 0.6023 0.3396 1.0471
O3 O 0.7044(4) 0.6681(3) 0.9983(3)
H3 H 0.7640 0.7290 1.0199
H4 H 0.6775 0.6947 0.9643
O4 O 0.3260(4) 0.4453(3) 0.88991(18)
O5 O 0.1315(4) 0.4509(3) 0.0979(2)
O6 O -0.1106(4) 0.4168(3) 0.0736(2)
O7 O 0.1963(4) -0.3389(3) 0.0965(2)
O8 O -0.0432(4) -0.3758(3) 0.0689(2)
N1 N 0.4434(5) 0.3291(4) 0.6276(2)
N2 N -0.0013(5) 0.3604(4) 0.3245(2)
N3 N 0.0461(6) -0.0930(3) 0.3238(3)
C1 C 0.4460(5) 0.4408(4) 0.8694(2)
C2 C 0.4463(5) 0.4037(4) 0.7835(2)
C3 C 0.3200(5) 0.3844(4) 0.7323(3)
H5 H 0.2345 0.3970 0.7505
C4 C 0.3205(5) 0.3464(5) 0.6539(3)
H6 H 0.2351 0.3328 0.6194
C5 C 0.5680(6) 0.3491(5) 0.6759(3)
H7 H 0.6525 0.3377 0.6561
C6 C 0.5730(5) 0.3863(5) 0.7546(3)
H8 H 0.6600 0.3995 0.7879
C7 C 0.4502(7) 0.2901(6) 0.5416(3)
H9 H 0.4979 0.3504 0.5275
H10 H 0.5076 0.2331 0.5310
C8 C 0.3019(6) 0.2467(5) 0.4930(3)
C9 C 0.2250(6) 0.3188(4) 0.4693(3)
C10 C 0.0879(6) 0.2758(4) 0.4236(3)
C11 C -0.0025(7) 0.3539(4) 0.4048(3)
H11 H -0.1015 0.3310 0.4104
H12 H 0.0332 0.4262 0.4418
C12 C -0.1229(6) 0.3688(5) 0.2845(3)
H13 H -0.2086 0.3628 0.3043
C13 C -0.1240(6) 0.3860(5) 0.2148(3)
H14 H -0.2097 0.3911 0.1872
C14 C 0.0042(5) 0.3957(4) 0.1859(3)
C15 C 0.0089(5) 0.4237(4) 0.1121(3)
C16 C 0.1300(6) 0.3857(5) 0.2286(3)
H15 H 0.2174 0.3919 0.2105
C17 C 0.1235(6) 0.3665(5) 0.2971(3)
H16 H 0.2065 0.3577 0.3250
C18 C 0.0293(6) 0.1644(4) 0.3999(3)
C19 C 0.1075(7) 0.0942(4) 0.4241(3)
C20 C 0.0349(8) -0.0236(4) 0.4033(3)
H17 H 0.0777 -0.0544 0.4403
H18 H -0.0666 -0.0265 0.4077
C21 C 0.1744(7) -0.1008(5) 0.3022(3)
H19 H 0.2568 -0.0559 0.3348
C22 C 0.1891(6) -0.1724(5) 0.2336(3)
H20 H 0.2799 -0.1779 0.2201
C23 C 0.0644(5) -0.2370(4) 0.1844(3)
C24 C 0.0738(5) -0.3235(4) 0.1100(3)
C25 C -0.0674(6) -0.2247(4) 0.2060(3)
H21 H -0.1521 -0.2646 0.1730
C26 C -0.0738(7) -0.1530(5) 0.2767(3)
H22 H -0.1632 -0.1462 0.2918
C27 C 0.2442(7) 0.1346(4) 0.4713(3)
C28 C 0.3301(11) 0.0591(6) 0.4984(4)
H23 H 0.3334 0.0742 0.5528
H24 H 0.4267 0.0709 0.4876
H25 H 0.2843 -0.0155 0.4718
C29 C -0.1168(7) 0.1225(6) 0.3508(4)
H26 H -0.1518 0.0496 0.3502
H27 H -0.1101 0.1222 0.2993
H28 H -0.1824 0.1689 0.3715
C30 C 0.2871(8) 0.4389(5) 0.4953(4)
H29 H 0.3256 0.4573 0.4539
H30 H 0.3629 0.4564 0.5387
H31 H 0.2125 0.4797 0.5098
Yb1_2 Yb -0.23428(2) -0.50594(2) -0.00280(2)
Yb1_3 Yb -0.23428(2) 0.49406(2) -0.00280(2)
Yb1A Yb 0.23428(2) -0.49406(2) 0.00280(2)
Yb1A_2 Yb 0.23428(2) 0.50594(2) 0.00280(2)
Yb1A_3 Yb 0.23428(2) 0.50594(2) 1.00280(2)
O4A O 0.6740(4) 0.5547(3) 1.11009(18)
O5A O 0.8685(4) 0.5491(3) 0.9021(2)
O6_2 O 0.8894(4) 0.4168(3) 1.0736(2)
O7A O 0.8037(4) 0.3389(3) 0.9035(2)
O8_2 O 0.9568(4) 0.6242(3) 1.0689(2)
O10 O 0.1907(14) 0.7703(9) 0.4353(10)
O11 O 0.1481(18) 0.6170(9) 0.4309(9)
O12 O 0.020(2) 0.6707(18) 0.3583(13)
N4 N 0.0960(8) 0.6778(6) 0.4092(4)
O15 O -0.1160(13) 0.8813(8) 0.0622(7)
N5 N 0.1064(17) 0.9888(11) 0.1114(9)
C31 C 0.0128(19) 0.9047(12) 0.0545(10)
C32 C 0.058(2) 0.8426(12) -0.0090(10)
H32 H 0.0616 0.8805 -0.0462
H33 H -0.0089 0.7744 -0.0311
H34 H 0.1521 0.8291 0.0054
C33 C 0.020(3) 1.0483(15) 0.1686(11)
H35 H -0.0188 1.1018 0.1505
H36 H 0.0813 1.0840 0.2176
H37 H -0.0581 0.9971 0.1741
C34 C 0.253(2) 1.018(2) 0.1042(12)
H38 H 0.2899 0.9529 0.0821
H39 H 0.3086 1.0577 0.1542
H40 H 0.2589 1.0626 0.0715
O16 O 0.5225(9) 0.9019(8) 0.6666(6)
H41 H 0.4937 0.9606 0.6739
H42 H 0.4409 0.8672 0.6400
O17 O 0.3729(19) 0.8593(13) 0.7903(11)
H43 H 0.4152 0.8130 0.8005
H44 H 0.4093 0.8755 0.7549
O18 O 0.353(2) 1.024(2) 0.8997(14)
H45 H 0.2576 1.0208 0.9037
H46 H 0.3584 0.9676 0.8697
Cl1 Cl 0.4950(4) 0.3739(4) 0.3270(2)
O19 O 0.6312(18) 0.279(2) 0.4065(11)
H47 H 0.5987 0.3030 0.3746
H48 H 0.6850 0.3118 0.4490
O20 O 0.573(2) 0.1611(12) 0.0538(11)
H49 H 0.5316 0.1966 0.0839
H50 H 0.6546 0.1866 0.0483
H51 H 0.5209 0.1028 0.0226
O21 O 0.5509(13) 0.8102(7) 0.1438(7)
H52 H 0.5941 0.8652 0.1374
H53 H 0.5910 0.8012 0.1844
Cl2 Cl 0.4689(4) 0.3111(3) 0.14800(19)
Cl3 Cl 0.5746(5) 0.8952(4) 0.3025(3)
loop_
_geom_bond_atom_site_label_1
_geom_bond_atom_site_label_2
_geom_bond_site_symmetry_1
_geom_bond_site_symmetry_2
Yb1 O1 1_555 1_555
O1 C1 1_555 1_555
O2 Yb1 1_555 1_555
H1 O2 1_555 1_555
H2 O2 1_555 1_555
O3 Yb1 1_555 1_555
H3 O3 1_555 1_555
H4 O3 1_555 1_555
O4 C1 1_555 1_555
O5 C15 1_555 1_555
O6 C15 1_555 1_555
O7 C24 1_555 1_555
O8 C24 1_555 1_555
N1 C4 1_555 1_555
N2 C11 1_555 1_555
N3 C20 1_555 1_555
C1 C2 1_555 1_555
C2 C3 1_555 1_555
C3 H5 1_555 1_555
C4 C3 1_555 1_555
H6 C4 1_555 1_555
C5 N1 1_555 1_555
H7 C5 1_555 1_555
C6 C2 1_555 1_555
H8 C6 1_555 1_555
C7 N1 1_555 1_555
H9 C7 1_555 1_555
H10 C7 1_555 1_555
C8 C7 1_555 1_555
C9 C8 1_555 1_555
C10 C9 1_555 1_555
C11 C10 1_555 1_555
H11 C11 1_555 1_555
H12 C11 1_555 1_555
C12 N2 1_555 1_555
H13 C12 1_555 1_555
C13 C12 1_555 1_555
H14 C13 1_555 1_555
C14 C13 1_555 1_555
C15 C14 1_555 1_555
C16 C14 1_555 1_555
H15 C16 1_555 1_555
C17 N2 1_555 1_555
H16 C17 1_555 1_555
C18 C10 1_555 1_555
C19 C18 1_555 1_555
C20 C19 1_555 1_555
H17 C20 1_555 1_555
H18 C20 1_555 1_555
C21 N3 1_555 1_555
H19 C21 1_555 1_555
C22 C21 1_555 1_555
H20 C22 1_555 1_555
C23 C22 1_555 1_555
C24 C23 1_555 1_555
C25 C23 1_555 1_555
H21 C25 1_555 1_555
C26 N3 1_555 1_555
H22 C26 1_555 1_555
C27 C8 1_555 1_555
C28 C27 1_555 1_555
H23 C28 1_555 1_555
H24 C28 1_555 1_555
H25 C28 1_555 1_555
C29 C18 1_555 1_555
H26 C29 1_555 1_555
H27 C29 1_555 1_555
H28 C29 1_555 1_555
C30 C9 1_555 1_555
H29 C30 1_555 1_555
H30 C30 1_555 1_555
H31 C30 1_555 1_555
O10 N4 1_555 1_555
O11 N4 1_555 1_555
O12 N4 1_555 1_555
O15 C31 1_555 1_555
N5 C31 1_555 1_555
C31 C32 1_555 1_555
C32 H32 1_555 1_555
H33 C32 1_555 1_555
H34 C32 1_555 1_555
C33 N5 1_555 1_555
H35 C33 1_555 1_555
H36 C33 1_555 1_555
H37 C33 1_555 1_555
C34 N5 1_555 1_555
H38 C34 1_555 1_555
H39 C34 1_555 1_555
H40 C34 1_555 1_555
O16 H41 1_555 1_555
H42 O16 1_555 1_555
O17 H43 1_555 1_555
H44 O17 1_555 1_555
O18 H45 1_555 1_555
H46 O18 1_555 1_555
O19 H47 1_555 1_555
H48 O19 1_555 1_555
O20 H49 1_555 1_555
H50 O20 1_555 1_555
H51 O20 1_555 1_555
O21 H52 1_555 1_555
H53 O21 1_555 1_555
Yb1_2 O8 1_555 1_555
Yb1_3 O6 1_555 1_555
Yb1A O7 1_555 1_555
Yb1A_2 O5 1_555 1_555
Yb1A_3 O4 1_555 1_555
O4A Yb1 1_555 1_555
O5A Yb1 1_555 1_555
O6_2 Yb1 1_555 1_555
O7A Yb1 1_555 1_555
O8_2 Yb1 1_555 1_555
C5 C6 1_555 1_555
C16 C17 1_555 1_555
C19 C27 1_555 1_555
C25 C26 1_555 1_555

#END
