
#######################################################################
#
#                 Cambridge Crystallographic Data Centre
#                                CCDC 
#
#######################################################################
#
# If this CIF has been generated from an entry in the Cambridge 
# Structural Database, then it will include bibliographic, chemical, 
# crystal, experimental, refinement or atomic coordinate data resulting 
# from the CCDC's data processing and validation procedures.
#
#######################################################################

data_FANDEG
_chemical_formula_moiety         '(C30 H39 Cl2 Gd1 N4 O15)n'
_symmetry_cell_setting           triclinic
_symmetry_space_group_name_H-M   'P -1'
_symmetry_Int_Tables_number      2
_space_group_name_Hall           '-P 1'
loop_
_symmetry_equiv_pos_site_id
_symmetry_equiv_pos_as_xyz
1 x,y,z
2 -x,-y,-z
_cell_length_a                   9.5522(4)
_cell_length_b                   12.9330(6)
_cell_length_c                   18.7637(9)
_cell_angle_alpha                106.9720(10)
_cell_angle_beta                 98.2490(10)
_cell_angle_gamma                97.7940(10)
_cell_volume                     2155.23
loop_
_atom_site_label
_atom_site_type_symbol
_atom_site_fract_x
_atom_site_fract_y
_atom_site_fract_z
Gd1 Gd 0.23407(2) 0.01044(2) 0.50250(2)
O1 O 0.4480(3) 0.0388(3) 0.58799(17)
O2 O 0.6822(3) 0.0452(3) 0.61450(17)
O3 O 0.8572(4) 0.0516(3) 1.40078(18)
O4 O 0.7927(4) 0.8296(3) 1.39834(18)
O5 O 1.0980(4) 0.0952(3) 1.4295(2)
O6 O 1.0296(4) 0.8810(3) 1.42938(19)
O7 O 0.3916(4) 0.1735(3) 0.4967(2)
H1 H 0.4478 0.2257 0.5374
H2 H 0.4165 0.1899 0.4595
O8 O 0.2942(5) -0.1709(3) 0.4914(3)
H3 H 0.3178 -0.2283 0.4614
H4 H 0.3442 -0.1799 0.5294
N1 N 0.5644(4) 0.1766(3) 0.86957(19)
N2 N 0.9900(4) 0.1338(3) 1.1750(2)
C1 C 0.5633(4) 0.0569(4) 0.6323(2)
N3 N 0.9571(5) 0.5934(3) 1.1802(2)
C2 C 0.5628(4) 0.0972(4) 0.7169(2)
C3 C 0.9307(5) 0.7360(4) 1.3159(3)
C4 C 0.9802(5) 0.1015(4) 1.3121(2)
C5 C 0.9085(5) 0.2226(4) 1.0770(2)
C6 C 0.6890(5) 0.1189(4) 0.7689(2)
H5 H 0.7741 0.1054 0.7525
C7 C 0.9178(5) 0.8221(4) 1.3883(2)
C8 C 0.9774(5) 0.0807(4) 1.3874(2)
C9 C 0.7743(5) 0.1835(4) 1.0284(2)
C10 C 0.6885(5) 0.1611(4) 0.8459(2)
H6 H 0.7741 0.1786 0.8811
C11 C 0.9001(6) 0.4089(4) 1.0793(2)
C12 C 0.8584(5) 0.1142(4) 1.2689(3)
H7 H 0.7717 0.1112 1.2859
C13 C 0.4362(5) 0.1136(4) 0.7428(2)
H8 H 0.3494 0.0972 0.7086
C14 C 0.9693(5) 0.3346(4) 1.1043(2)
C15 C 0.7041(5) 0.2594(4) 1.0041(2)
C16 C 1.1082(5) 0.1070(5) 1.2857(3)
H9 H 1.1926 0.1017 1.3149
C17 C 0.7661(6) 0.3716(4) 1.0275(2)
C18 C 0.8113(5) 0.6693(4) 1.2647(3)
H10 H 0.7196 0.6712 1.2757
C19 C 1.0653(6) 0.7247(4) 1.2988(3)
H11 H 1.1480 0.7651 1.3336
C20 C 0.8304(6) 0.5998(4) 1.1970(3)
H12 H 0.7498 0.5560 1.1620
C21 C 0.4400(5) 0.1543(5) 0.8194(3)
H13 H 0.3555 0.1665 0.8369
C22 C 0.8656(5) 0.1313(4) 1.2007(3)
H14 H 0.7838 0.1413 1.1720
C23 C 1.1088(6) 0.1202(5) 1.2154(3)
H15 H 1.1930 0.1197 1.1960
C24 C 0.9928(6) 0.1406(4) 1.0966(3)
H16 H 0.9540 0.0685 1.0599
H17 H 1.0921 0.1608 1.0923
C25 C 0.5590(6) 0.2184(6) 0.9524(3)
H18 H 0.5072 0.1595 0.9663
H19 H 0.5049 0.2777 0.9606
C26 C 0.9755(7) 0.5273(4) 1.1037(3)
H20 H 1.0775 0.5296 1.1039
H21 H 0.9387 0.5609 1.0667
C27 C 1.0763(6) 0.6537(4) 1.2304(3)
H22 H 1.1666 0.6472 1.2186
C28 C 1.1113(6) 0.3745(5) 1.1600(4)
H23 H 1.0999 0.3606 1.2066
H24 H 1.1414 0.4521 1.1699
H25 H 1.1826 0.3361 1.1389
C29 C 0.7094(8) 0.0636(5) 0.9999(3)
H26 H 0.7706 0.0237 0.9705
H27 H 0.6163 0.0526 0.9687
H28 H 0.6997 0.0376 1.0422
C30 C 0.6889(9) 0.4503(6) 0.9993(4)
H29 H 0.7388 0.5244 1.0256
H30 H 0.5923 0.4422 1.0084
H31 H 0.6863 0.4343 0.9458
Gd1_2 Gd 1.23407(2) 0.01044(2) 1.50250(2)
Gd1_3 Gd 1.23407(2) 1.01044(2) 1.50250(2)
Gd1A Gd 0.76593(2) -0.01044(2) 0.49750(2)
Gd1A_2 Gd 0.76593(2) -0.01044(2) 1.49750(2)
Gd1A_3 Gd 0.76593(2) 0.98956(2) 1.49750(2)
O2A O 0.3178(3) -0.0452(3) 0.38550(17)
O3A O 0.1428(4) -0.0516(3) 0.59922(18)
O4A O 0.2073(4) 0.1704(3) 0.60166(18)
O5_2 O 0.0980(4) 0.0952(3) 0.4295(2)
O6_2 O 0.0296(4) -0.1190(3) 0.42938(19)
Cl1 Cl 0.5806(4) 0.3959(3) 0.7985(3)
O9 O 0.5148(7) 0.2021(6) 0.3520(3)
H32 H 0.5940 0.2084 0.3365
H33 H 0.4484 0.1758 0.3161
O10 O 0.5897(11) 0.3382(7) 0.6403(4)
H34 H 0.5628 0.3020 0.6716
H35 H 0.5854 0.4042 0.6686
N4 N 0.1042(6) 0.1803(5) 0.9092(3)
O11 O 0.137(3) 0.1190(12) 0.9386(11)
O12 O 0.021(2) 0.169(2) 0.8557(11)
O13 O 0.2023(13) 0.2688(9) 0.9293(8)
O17 O 0.5109(15) 0.4117(13) 0.1354(10)
H36 H 0.4874 0.3474 0.1338
H37 H 0.4878 0.4640 0.1720
Cl2 Cl 0.4935(5) 0.1208(5) 0.1782(3)
O18 O 0.3550(13) 0.2187(12) 0.0899(9)
H38 H 0.3121 0.1703 0.0458
H39 H 0.3805 0.1844 0.1217
loop_
_geom_bond_atom_site_label_1
_geom_bond_atom_site_label_2
_geom_bond_site_symmetry_1
_geom_bond_site_symmetry_2
Gd1 O1 1_555 1_555
O1 C1 1_555 1_555
O2 C1 1_555 1_555
O3 C8 1_555 1_555
O4 C7 1_555 1_555
O5 C8 1_555 1_555
O6 C7 1_555 1_555
O7 Gd1 1_555 1_555
H1 O7 1_555 1_555
H2 O7 1_555 1_555
O8 Gd1 1_555 1_555
H3 O8 1_555 1_555
H4 O8 1_555 1_555
N1 C10 1_555 1_555
N2 C22 1_555 1_555
C1 C2 1_555 1_555
N3 C20 1_555 1_555
C2 C6 1_555 1_555
C3 C7 1_555 1_555
C4 C8 1_555 1_555
C5 C9 1_555 1_555
C6 H5 1_555 1_555
C9 C15 1_555 1_555
C10 C6 1_555 1_555
H6 C10 1_555 1_555
C11 C14 1_555 1_555
C12 C4 1_555 1_555
H7 C12 1_555 1_555
C13 C2 1_555 1_555
H8 C13 1_555 1_555
C14 C5 1_555 1_555
C15 C17 1_555 1_555
C16 C4 1_555 1_555
H9 C16 1_555 1_555
C17 C11 1_555 1_555
C18 C3 1_555 1_555
H10 C18 1_555 1_555
C19 C3 1_555 1_555
H11 C19 1_555 1_555
C20 C18 1_555 1_555
H12 C20 1_555 1_555
C21 N1 1_555 1_555
H13 C21 1_555 1_555
C22 C12 1_555 1_555
H14 C22 1_555 1_555
C23 N2 1_555 1_555
H15 C23 1_555 1_555
C24 N2 1_555 1_555
H16 C24 1_555 1_555
H17 C24 1_555 1_555
C25 N1 1_555 1_555
H18 C25 1_555 1_555
H19 C25 1_555 1_555
C26 N3 1_555 1_555
H20 C26 1_555 1_555
H21 C26 1_555 1_555
C27 N3 1_555 1_555
H22 C27 1_555 1_555
C28 C14 1_555 1_555
H23 C28 1_555 1_555
H24 C28 1_555 1_555
H25 C28 1_555 1_555
C29 C9 1_555 1_555
H26 C29 1_555 1_555
H27 C29 1_555 1_555
H28 C29 1_555 1_555
C30 C17 1_555 1_555
H29 C30 1_555 1_555
H30 C30 1_555 1_555
H31 C30 1_555 1_555
O9 H32 1_555 1_555
H33 O9 1_555 1_555
O10 H34 1_555 1_555
H35 O10 1_555 1_555
N4 O11 1_555 1_555
O12 N4 1_555 1_555
O13 N4 1_555 1_555
O17 H36 1_555 1_555
H37 O17 1_555 1_555
O18 H38 1_555 1_555
H39 O18 1_555 1_555
Gd1_2 O5 1_555 1_555
Gd1_3 O6 1_555 1_555
Gd1A O2 1_555 1_555
Gd1A_2 O3 1_555 1_555
Gd1A_3 O4 1_555 1_555
O2A Gd1 1_555 1_555
O3A Gd1 1_555 1_555
O4A Gd1 1_555 1_555
O5_2 Gd1 1_555 1_555
O6_2 Gd1 1_555 1_555
C5 C24 1_555 1_555
C11 C26 1_555 1_555
C13 C21 1_555 1_555
C15 C25 1_555 1_555
C16 C23 1_555 1_555
C19 C27 1_555 1_555

#END
