
#######################################################################
#
#                 Cambridge Crystallographic Data Centre
#                                CCDC 
#
#######################################################################
#
# If this CIF has been generated from an entry in the Cambridge 
# Structural Database, then it will include bibliographic, chemical, 
# crystal, experimental, refinement or atomic coordinate data resulting 
# from the CCDC's data processing and validation procedures.
#
#######################################################################

data_CEFLEF
_chemical_formula_moiety         '(C84 H64 Dy4 Mn6 N12 O62)n'
_symmetry_cell_setting           hexagonal
_symmetry_space_group_name_H-M   'P 6/m c c'
_symmetry_Int_Tables_number      192
_space_group_name_Hall           '-P 6 2c'
loop_
_symmetry_equiv_pos_site_id
_symmetry_equiv_pos_as_xyz
1 x,y,z
2 -y,x-y,z
3 -x+y,-x,z
4 y,-x+y,z
5 x-y,x,z
6 y,x,1/2-z
7 -x+y,y,1/2-z
8 x,x-y,1/2-z
9 -x,-y,z
10 x-y,-y,1/2-z
11 -x,-x+y,1/2-z
12 -y,-x,1/2-z
13 -x,-y,-z
14 y,-x+y,-z
15 x-y,x,-z
16 -y,x-y,-z
17 -x+y,-x,-z
18 -y,-x,1/2+z
19 x-y,-y,1/2+z
20 -x,-x+y,1/2+z
21 x,y,-z
22 -x+y,y,1/2+z
23 x,x-y,1/2+z
24 y,x,1/2+z
_cell_length_a                   15.277(5)
_cell_length_b                   15.277(5)
_cell_length_c                   15.776(10)
_cell_angle_alpha                90
_cell_angle_beta                 90
_cell_angle_gamma                120
_cell_volume                     3188.63
loop_
_atom_site_label
_atom_site_type_symbol
_atom_site_fract_x
_atom_site_fract_y
_atom_site_fract_z
Dy1 Dy 0.6667 0.3333 0.2500
Mn1 Mn 0.5000 0.5000 0.0000
N1 N 0.480032(6) 0.240016(3) 0.2500
O1 O 0.450266(4) 0.385946(4) 0.093746(4)
O2 O 0.586491(3) 0.387880(3) 0.145477(3)
O3 O 0.652985(5) 0.508850(5) 0.0000
C1 C 0.494227(5) 0.356680(5) 0.141026(5)
C2 C 0.428228(5) 0.266879(5) 0.197231(5)
C3 C 0.323297(6) 0.214826(6) 0.194240(6)
H1 H 0.2892 0.2330 0.1556
C4 C 0.270435(9) 0.135218(5) 0.2500
H2 H 0.2001 0.1001 0.2500
Dy1T Dy 0.6667 0.3333 -0.2500
Dy1W Dy 0.3333 0.6667 -0.2500
Dy1E Dy 0.3333 0.6667 0.2500
Dy1T_2 Dy 0.6667 0.3333 0.7500
Dy1W_2 Dy 0.3333 -0.3333 0.7500
Dy1C Dy 0.3333 -0.3334 0.2500
Dy1W_3 Dy 0.3333 -0.3333 -0.2500
Mn1G Mn 0.5000 -0.0000 0.5000
Mn1A Mn 0.5000 0.0000 0.0000
Mn1F Mn 1.0000 0.5000 0.5000
Mn1B Mn 1.0000 0.5000 0.0000
Mn1E Mn 0.5000 0.5000 0.5000
Mn1G_2 Mn 0.5000 0.0000 -0.5000
Mn1G_3 Mn 0.5000 1.0000 -0.5000
Mn1G_4 Mn 0.5000 1.0000 0.5000
Mn1_2 Mn 0.5000 0.5000 1.0000
Mn1_3 Mn 0.5000 -0.5000 1.0000
Mn1_4 Mn 0.5000 -0.5000 0.0000
Mn1F_2 Mn 1.0000 0.5000 -0.5000
Mn1F_3 Mn 0.0000 -0.5000 -0.5000
Mn1F_4 Mn -0.0000 -0.5000 0.5000
N1A N 0.759984(3) 0.240016(7) 0.2500
N1B N 0.759984(7) 0.519968(6) 0.2500
N1T N 0.480032(6) 0.240016(3) -0.2500
N1L N 0.519968(6) 0.759984(3) -0.2500
N1H N 0.519968(6) 0.759984(3) 0.2500
N1T_2 N 0.480032(6) 0.240016(3) 0.7500
N1L_2 N 0.519968(6) -0.240016(3) 0.7500
N1H_2 N 0.519968(6) -0.240016(3) 0.2500
N1U N 0.759984(7) 0.240016(3) -0.2500
N1M N 0.240016(3) -0.240016(7) -0.2500
N1C N 0.240016(3) -0.240016(7) 0.2500
N1P N 0.759984(7) 0.519968(6) -0.2500
N1W N 0.240016(3) 0.480032(6) -0.2500
N1M_2 N 0.240016(3) 0.759984(7) -0.2500
N1C_2 N 0.240016(3) 0.759984(7) 0.2500
N1D N 0.240016(7) 0.480032(6) 0.2500
O1G O 0.450266(4) 0.064320(6) 0.406254(4)
O1A O 0.614054(4) 0.064320(6) 0.093746(4)
O1F O 0.935680(6) 0.385946(4) 0.406254(4)
O1B O 0.935680(6) 0.549734(4) 0.093746(4)
O1K O 0.614054(4) 0.549734(4) 0.406254(4)
O1T O 0.450266(4) 0.385946(4) -0.093746(4)
O1V O 0.450266(4) 0.064320(6) -0.406254(4)
O1L O 0.549734(4) 0.614054(4) -0.093746(4)
O1S O 0.549734(4) 0.935680(6) -0.406254(4)
O1H O 0.549734(4) 0.614054(4) 0.093746(4)
O1J O 0.549734(4) 0.935680(6) 0.406254(4)
O1V_2 O 0.450266(4) 0.064320(6) 0.593746(4)
O1T_2 O 0.450266(4) 0.385946(4) 0.906254(4)
O1S_2 O 0.549734(4) -0.064320(6) 0.593746(4)
O1L_2 O 0.549734(4) -0.385946(4) 0.906254(4)
O1J_2 O 0.549734(4) -0.064320(6) 0.406254(4)
O1H_2 O 0.549734(4) -0.385946(4) 0.093746(4)
O1O O 0.614054(4) 0.064320(6) -0.093746(4)
O1U O 0.935680(6) 0.385946(4) -0.406254(4)
O1M O 0.385946(4) -0.064320(6) -0.093746(4)
O1R O 0.064320(6) -0.385946(4) -0.406254(4)
O1C O 0.385946(4) -0.064320(6) 0.093746(4)
O1I O 0.064320(6) -0.385946(4) 0.406254(4)
O1U_2 O 0.935680(6) 0.385946(4) 0.593746(4)
O1R_2 O 1.064320(6) 0.614054(4) 0.593746(4)
O1I_2 O 1.064320(6) 0.614054(4) 0.406254(4)
O1D O 1.064320(6) 0.450266(4) 0.093746(4)
O1N O 1.064320(6) 0.450266(4) -0.093746(4)
O1P O 0.935680(6) 0.549734(4) -0.093746(4)
O1E O 0.385946(4) 0.450266(4) 0.406254(4)
O1W O 0.385946(4) 0.450266(4) 0.593746(4)
O1Q O 0.614054(4) 0.549734(4) 0.593746(4)
O2G O 0.586491(3) 0.198611(4) 0.354523(3)
O2A O 0.612120(3) 0.198611(4) 0.145477(3)
O2F O 0.801389(4) 0.387880(3) 0.354523(3)
O2B O 0.801389(4) 0.413509(3) 0.145477(3)
O2K O 0.612120(3) 0.413509(3) 0.354523(3)
O2T O 0.586491(3) 0.387880(3) -0.145477(3)
O2V O 0.586491(3) 0.198611(4) -0.354523(3)
O2L O 0.413509(3) 0.612120(3) -0.145477(3)
O2S O 0.413509(3) 0.801389(4) -0.354523(3)
O2H O 0.413509(3) 0.612120(3) 0.145477(3)
O2J O 0.413509(3) 0.801389(4) 0.354523(3)
O2V_2 O 0.586491(3) 0.198611(4) 0.645477(3)
O2T_2 O 0.586491(3) 0.387880(3) 0.854523(3)
O2S_2 O 0.413509(3) -0.198611(4) 0.645477(3)
O2L_2 O 0.413509(3) -0.387880(3) 0.854523(3)
O2J_2 O 0.413509(3) -0.198611(4) 0.354523(3)
O2H_2 O 0.413509(3) -0.387880(3) 0.145477(3)
O2O O 0.612120(3) 0.198611(4) -0.145477(3)
O2U O 0.801389(4) 0.387880(3) -0.354523(3)
O2M O 0.387880(3) -0.198611(4) -0.145477(3)
O2R O 0.198611(4) -0.387880(3) -0.354523(3)
O2C O 0.387880(3) -0.198611(4) 0.145477(3)
O2I O 0.198611(4) -0.387880(3) 0.354523(3)
O2P O 0.801389(4) 0.413509(3) -0.145477(3)
O2Q O 0.612120(3) 0.413509(3) -0.354523(3)
O2W O 0.387880(3) 0.586491(3) -0.354523(3)
O2M_2 O 0.387880(3) 0.801389(4) -0.145477(3)
O2N O 0.198611(4) 0.586491(3) -0.145477(3)
O2R_2 O 0.198611(4) 0.612120(3) -0.354523(3)
O2C_2 O 0.387880(3) 0.801389(4) 0.145477(3)
O2D O 0.198611(4) 0.586491(3) 0.145477(3)
O2E O 0.387880(3) 0.586491(3) 0.354523(3)
O2I_2 O 0.198611(4) 0.612120(3) 0.354523(3)
O3L O 0.347015(5) 0.491150(5) 0.0000
O3G O 0.652985(5) 0.144135(7) 0.5000
O3S O 0.347015(5) -0.144135(7) 0.5000
O3A O 0.491150(5) 0.144135(7) 0.0000
O3C O 0.508850(5) -0.144135(7) 0.0000
O3F O 0.855865(7) 0.508850(5) 0.5000
O3R O 1.144135(7) 0.491150(5) 0.5000
O3B O 0.855865(7) 0.347015(5) 0.0000
O3D O 1.144135(7) 0.652985(5) 0.0000
O3Q O 0.491150(5) 0.347015(5) 0.5000
O3E O 0.508850(5) 0.652985(5) 0.5000
C1G C 0.494227(5) 0.137547(7) 0.358974(5)
C1A C 0.643320(5) 0.137547(7) 0.141026(5)
C1F C 0.862453(7) 0.356680(5) 0.358974(5)
C1B C 0.862453(7) 0.505773(5) 0.141026(5)
C1K C 0.643320(5) 0.505773(5) 0.358974(5)
C1T C 0.494227(5) 0.356680(5) -0.141026(5)
C1V C 0.494227(5) 0.137547(7) -0.358974(5)
C1L C 0.505773(5) 0.643320(5) -0.141026(5)
C1S C 0.505773(5) 0.862453(7) -0.358974(5)
C1H C 0.505773(5) 0.643320(5) 0.141026(5)
C1J C 0.505773(5) 0.862453(7) 0.358974(5)
C1V_2 C 0.494227(5) 0.137547(7) 0.641026(5)
C1T_2 C 0.494227(5) 0.356680(5) 0.858974(5)
C1S_2 C 0.505773(5) -0.137547(7) 0.641026(5)
C1L_2 C 0.505773(5) -0.356680(5) 0.858974(5)
C1J_2 C 0.505773(5) -0.137547(7) 0.358974(5)
C1H_2 C 0.505773(5) -0.356680(5) 0.141026(5)
C1O C 0.643320(5) 0.137547(7) -0.141026(5)
C1U C 0.862453(7) 0.356680(5) -0.358974(5)
C1M C 0.356680(5) -0.137547(7) -0.141026(5)
C1R C 0.137547(7) -0.356680(5) -0.358974(5)
C1C C 0.356680(5) -0.137547(7) 0.141026(5)
C1I C 0.137547(7) -0.356680(5) 0.358974(5)
C2G C 0.428228(5) 0.161349(7) 0.302769(5)
C2A C 0.733121(5) 0.161349(7) 0.197231(5)
C2F C 0.838651(7) 0.266879(5) 0.302769(5)
C2B C 0.838651(7) 0.571772(5) 0.197231(5)
C2K C 0.733121(5) 0.571772(5) 0.302769(5)
C2T C 0.428228(5) 0.266879(5) -0.197231(5)
C2V C 0.428228(5) 0.161349(7) -0.302769(5)
C2L C 0.571772(5) 0.733121(5) -0.197231(5)
C2S C 0.571772(5) 0.838651(7) -0.302769(5)
C2H C 0.571772(5) 0.733121(5) 0.197231(5)
C2J C 0.571772(5) 0.838651(7) 0.302769(5)
C2V_2 C 0.428228(5) 0.161349(7) 0.697231(5)
C2T_2 C 0.428228(5) 0.266879(5) 0.802769(5)
C2S_2 C 0.571772(5) -0.161349(7) 0.697231(5)
C2L_2 C 0.571772(5) -0.266879(5) 0.802769(5)
C2J_2 C 0.571772(5) -0.161349(7) 0.302769(5)
C2H_2 C 0.571772(5) -0.266879(5) 0.197231(5)
C2O C 0.733121(5) 0.161349(7) -0.197231(5)
C2U C 0.838651(7) 0.266879(5) -0.302769(5)
C2M C 0.266879(5) -0.161349(7) -0.197231(5)
C2R C 0.161349(7) -0.266879(5) -0.302769(5)
C2C C 0.266879(5) -0.161349(7) 0.197231(5)
C2I C 0.161349(7) -0.266879(5) 0.302769(5)
C3G C 0.323297(6) 0.108471(8) 0.305760(6)
C3A C 0.785174(6) 0.108471(8) 0.194240(6)
C3F C 0.891529(8) 0.214826(6) 0.305760(6)
C3B C 0.891529(8) 0.676703(6) 0.194240(6)
C3K C 0.785174(6) 0.676703(6) 0.305760(6)
C3T C 0.323297(6) 0.214826(6) -0.194240(6)
C3V C 0.323297(6) 0.108471(8) -0.305760(6)
C3L C 0.676703(6) 0.785174(6) -0.194240(6)
C3S C 0.676703(6) 0.891529(8) -0.305760(6)
C3H C 0.676703(6) 0.785174(6) 0.194240(6)
C3J C 0.676703(6) 0.891529(8) 0.305760(6)
C3V_2 C 0.323297(6) 0.108471(8) 0.694240(6)
C3T_2 C 0.323297(6) 0.214826(6) 0.805760(6)
C3S_2 C 0.676703(6) -0.108471(8) 0.694240(6)
C3L_2 C 0.676703(6) -0.214826(6) 0.805760(6)
C3J_2 C 0.676703(6) -0.108471(8) 0.305760(6)
C3H_2 C 0.676703(6) -0.214826(6) 0.194240(6)
C3O C 0.785174(6) 0.108471(8) -0.194240(6)
C3U C 0.891529(8) 0.214826(6) -0.305760(6)
C3M C 0.214826(6) -0.108471(8) -0.194240(6)
C3R C 0.108471(8) -0.214826(6) -0.305760(6)
C3C C 0.214826(6) -0.108471(8) 0.194240(6)
C3I C 0.108471(8) -0.214826(6) 0.305760(6)
H1G H 0.2892 0.0562 0.3444
H1A H 0.7670 0.0562 0.1556
H1F H 0.9438 0.2330 0.3444
H1B H 0.9438 0.7108 0.1556
H1K H 0.7670 0.7108 0.3444
H1T H 0.2892 0.2330 -0.1556
H1V H 0.2892 0.0562 -0.3444
H1L H 0.7108 0.7670 -0.1556
H1S H 0.7108 0.9438 -0.3444
H1H H 0.7108 0.7670 0.1556
H1J H 0.7108 0.9438 0.3444
H1V_2 H 0.2892 0.0562 0.6556
H1T_2 H 0.2892 0.2330 0.8444
H1S_2 H 0.7108 -0.0562 0.6556
H1L_2 H 0.7108 -0.2330 0.8444
H1J_2 H 0.7108 -0.0562 0.3444
H1H_2 H 0.7108 -0.2330 0.1556
H1O H 0.7670 0.0562 -0.1556
H1U H 0.9438 0.2330 -0.3444
H1M H 0.2330 -0.0562 -0.1556
H1R H 0.0562 -0.2330 -0.3444
H1C H 0.2330 -0.0562 0.1556
H1I H 0.0562 -0.2330 0.3444
C4A C 0.864782(5) 0.135217(10) 0.2500
C4B C 0.864783(10) 0.729565(9) 0.2500
C4T C 0.270435(9) 0.135218(5) -0.2500
C4L C 0.729565(9) 0.864782(5) -0.2500
C4H C 0.729565(9) 0.864782(5) 0.2500
C4V C 0.270435(9) 0.135217(10) 0.7500
C4S C 0.729565(9) -0.135217(10) 0.7500
C4J C 0.729565(9) -0.135217(10) 0.2500
C4O C 0.864782(5) 0.135217(10) -0.2500
C4M C 0.135218(5) -0.135217(10) -0.2500
C4C C 0.135218(5) -0.135217(10) 0.2500
H2A H 0.8999 0.1000 0.2500
H2B H 0.9000 0.7999 0.2500
H2T H 0.2001 0.1001 -0.2500
H2L H 0.7999 0.8999 -0.2500
H2H H 0.7999 0.8999 0.2500
H2V H 0.2001 0.1000 0.7500
H2S H 0.7999 -0.1000 0.7500
H2J H 0.7999 -0.1000 0.2500
H2O H 0.8999 0.1000 -0.2500
H2M H 0.1001 -0.1000 -0.2500
H2C H 0.1001 -0.1000 0.2500
O4 O 0.791611(18) 0.740197(17) 0.0000
O5 O 0.0000 -0.0000 0.2500
loop_
_geom_bond_atom_site_label_1
_geom_bond_atom_site_label_2
_geom_bond_site_symmetry_1
_geom_bond_site_symmetry_2
Dy1 N1 1_555 1_555
Mn1 O1 1_555 1_555
N1 C2 1_555 1_555
O1 C1 1_555 1_555
O2 Dy1 1_555 1_555
O3 Mn1 1_555 1_555
C1 O2 1_555 1_555
C2 C1 1_555 1_555
C3 C2 1_555 1_555
H1 C3 1_555 1_555
C4 C3 1_555 1_555
H2 C4 1_555 1_555
Dy1T N1T 1_555 1_555
Dy1W N1L 1_555 1_555
Dy1E N1H 1_555 1_555
Dy1T_2 N1T_2 1_555 1_555
Dy1W_2 N1L_2 1_555 1_555
Dy1C N1H_2 1_555 1_555
Dy1W_3 N1M 1_555 1_555
Mn1G O1G 1_555 1_555
Mn1A O1A 1_555 1_555
Mn1F O1F 1_555 1_555
Mn1B O1B 1_555 1_555
Mn1E O1K 1_555 1_555
Mn1G_2 O1V 1_555 1_555
Mn1G_3 O1S 1_555 1_555
Mn1G_4 O1J 1_555 1_555
Mn1_2 O1T_2 1_555 1_555
Mn1_3 O1L_2 1_555 1_555
Mn1_4 O1H_2 1_555 1_555
Mn1F_2 O1U 1_555 1_555
Mn1F_3 O1R 1_555 1_555
Mn1F_4 O1I 1_555 1_555
N1A Dy1 1_555 1_555
N1B Dy1 1_555 1_555
N1T C2T 1_555 1_555
N1L C2L 1_555 1_555
N1H C2H 1_555 1_555
N1T_2 C2V_2 1_555 1_555
N1L_2 C2S_2 1_555 1_555
N1H_2 C2J_2 1_555 1_555
N1U Dy1T 1_555 1_555
N1M C2M 1_555 1_555
N1C Dy1C 1_555 1_555
N1P Dy1T 1_555 1_555
N1W Dy1W 1_555 1_555
N1M_2 Dy1W 1_555 1_555
N1C_2 Dy1E 1_555 1_555
N1D Dy1E 1_555 1_555
O1G C1G 1_555 1_555
O1A C1A 1_555 1_555
O1F C1F 1_555 1_555
O1B C1B 1_555 1_555
O1K C1K 1_555 1_555
O1T Mn1 1_555 1_555
O1V C1V 1_555 1_555
O1L Mn1 1_555 1_555
O1S C1S 1_555 1_555
O1H Mn1 1_555 1_555
O1J C1J 1_555 1_555
O1V_2 Mn1G 1_555 1_555
O1T_2 C1T_2 1_555 1_555
O1S_2 Mn1G 1_555 1_555
O1L_2 C1L_2 1_555 1_555
O1J_2 Mn1G 1_555 1_555
O1H_2 C1H_2 1_555 1_555
O1O Mn1A 1_555 1_555
O1U C1U 1_555 1_555
O1M Mn1A 1_555 1_555
O1R C1R 1_555 1_555
O1C Mn1A 1_555 1_555
O1I C1I 1_555 1_555
O1U_2 Mn1F 1_555 1_555
O1R_2 Mn1F 1_555 1_555
O1I_2 Mn1F 1_555 1_555
O1D Mn1B 1_555 1_555
O1N Mn1B 1_555 1_555
O1P Mn1B 1_555 1_555
O1E Mn1E 1_555 1_555
O1W Mn1E 1_555 1_555
O1Q Mn1E 1_555 1_555
O2G Dy1 1_555 1_555
O2A Dy1 1_555 1_555
O2F Dy1 1_555 1_555
O2B Dy1 1_555 1_555
O2K Dy1 1_555 1_555
O2T Dy1T 1_555 1_555
O2V Dy1T 1_555 1_555
O2L Dy1W 1_555 1_555
O2S Dy1W 1_555 1_555
O2H Dy1E 1_555 1_555
O2J Dy1E 1_555 1_555
O2V_2 Dy1T_2 1_555 1_555
O2T_2 Dy1T_2 1_555 1_555
O2S_2 Dy1W_2 1_555 1_555
O2L_2 Dy1W_2 1_555 1_555
O2J_2 Dy1C 1_555 1_555
O2H_2 Dy1C 1_555 1_555
O2O Dy1T 1_555 1_555
O2U Dy1T 1_555 1_555
O2M Dy1W_3 1_555 1_555
O2R Dy1W_3 1_555 1_555
O2C Dy1C 1_555 1_555
O2I Dy1C 1_555 1_555
O2P Dy1T 1_555 1_555
O2Q Dy1T 1_555 1_555
O2W Dy1W 1_555 1_555
O2M_2 Dy1W 1_555 1_555
O2N Dy1W 1_555 1_555
O2R_2 Dy1W 1_555 1_555
O2C_2 Dy1E 1_555 1_555
O2D Dy1E 1_555 1_555
O2E Dy1E 1_555 1_555
O2I_2 Dy1E 1_555 1_555
O3L Mn1 1_555 1_555
O3G Mn1G 1_555 1_555
O3S Mn1G 1_555 1_555
O3A Mn1A 1_555 1_555
O3C Mn1A 1_555 1_555
O3F Mn1F 1_555 1_555
O3R Mn1F 1_555 1_555
O3B Mn1B 1_555 1_555
O3D Mn1B 1_555 1_555
O3Q Mn1E 1_555 1_555
O3E Mn1E 1_555 1_555
C1G O2G 1_555 1_555
C1A O2A 1_555 1_555
C1F O2F 1_555 1_555
C1B O2B 1_555 1_555
C1K O2K 1_555 1_555
C1T O1T 1_555 1_555
C1V O2V 1_555 1_555
C1L O1L 1_555 1_555
C1S O2S 1_555 1_555
C1H O1H 1_555 1_555
C1J O2J 1_555 1_555
C1V_2 O1V_2 1_555 1_555
C1T_2 O2T_2 1_555 1_555
C1S_2 O1S_2 1_555 1_555
C1L_2 O2L_2 1_555 1_555
C1J_2 O1J_2 1_555 1_555
C1H_2 O2H_2 1_555 1_555
C1O O1O 1_555 1_555
C1U O2U 1_555 1_555
C1M O1M 1_555 1_555
C1R O2R 1_555 1_555
C1C O1C 1_555 1_555
C1I O2I 1_555 1_555
C2G N1 1_555 1_555
C2A N1A 1_555 1_555
C2F N1A 1_555 1_555
C2B N1B 1_555 1_555
C2K N1B 1_555 1_555
C2T C1T 1_555 1_555
C2V N1T 1_555 1_555
C2L C1L 1_555 1_555
C2S N1L 1_555 1_555
C2H C1H 1_555 1_555
C2J N1H 1_555 1_555
C2V_2 C1V_2 1_555 1_555
C2T_2 N1T_2 1_555 1_555
C2S_2 C1S_2 1_555 1_555
C2L_2 N1L_2 1_555 1_555
C2J_2 C1J_2 1_555 1_555
C2H_2 N1H_2 1_555 1_555
C2O N1U 1_555 1_555
C2U N1U 1_555 1_555
C2M C1M 1_555 1_555
C2R N1M 1_555 1_555
C2C N1C 1_555 1_555
C2I N1C 1_555 1_555
C3G C4 1_555 1_555
C3A C2A 1_555 1_555
C3F C2F 1_555 1_555
C3B C2B 1_555 1_555
C3K C2K 1_555 1_555
C3T C2T 1_555 1_555
C3V C2V 1_555 1_555
C3L C2L 1_555 1_555
C3S C2S 1_555 1_555
C3H C2H 1_555 1_555
C3J C2J 1_555 1_555
C3V_2 C2V_2 1_555 1_555
C3T_2 C2T_2 1_555 1_555
C3S_2 C2S_2 1_555 1_555
C3L_2 C2L_2 1_555 1_555
C3J_2 C2J_2 1_555 1_555
C3H_2 C2H_2 1_555 1_555
C3O C2O 1_555 1_555
C3U C2U 1_555 1_555
C3M C2M 1_555 1_555
C3R C2R 1_555 1_555
C3C C2C 1_555 1_555
C3I C2I 1_555 1_555
H1G C3G 1_555 1_555
H1A C3A 1_555 1_555
H1F C3F 1_555 1_555
H1B C3B 1_555 1_555
H1K C3K 1_555 1_555
H1T C3T 1_555 1_555
H1V C3V 1_555 1_555
H1L C3L 1_555 1_555
H1S C3S 1_555 1_555
H1H C3H 1_555 1_555
H1J C3J 1_555 1_555
H1V_2 C3V_2 1_555 1_555
H1T_2 C3T_2 1_555 1_555
H1S_2 C3S_2 1_555 1_555
H1L_2 C3L_2 1_555 1_555
H1J_2 C3J_2 1_555 1_555
H1H_2 C3H_2 1_555 1_555
H1O C3O 1_555 1_555
H1U C3U 1_555 1_555
H1M C3M 1_555 1_555
H1R C3R 1_555 1_555
H1C C3C 1_555 1_555
H1I C3I 1_555 1_555
C4A C3A 1_555 1_555
C4B C3B 1_555 1_555
C4T C3T 1_555 1_555
C4L C3L 1_555 1_555
C4H C3H 1_555 1_555
C4V C3V_2 1_555 1_555
C4S C3S_2 1_555 1_555
C4J C3J_2 1_555 1_555
C4O C3O 1_555 1_555
C4M C3M 1_555 1_555
C4C C3C 1_555 1_555
H2A C4A 1_555 1_555
H2B C4B 1_555 1_555
H2T C4T 1_555 1_555
H2L C4L 1_555 1_555
H2H C4H 1_555 1_555
H2V C4V 1_555 1_555
H2S C4S 1_555 1_555
H2J C4J 1_555 1_555
H2O C4O 1_555 1_555
H2M C4M 1_555 1_555
H2C C4C 1_555 1_555
O2T C1T 1_555 1_555
O2L C1L 1_555 1_555
O2H C1H 1_555 1_555
O2V_2 C1V_2 1_555 1_555
O2S_2 C1S_2 1_555 1_555
O2J_2 C1J_2 1_555 1_555
O2O C1O 1_555 1_555
O2M C1M 1_555 1_555
O2C C1C 1_555 1_555
C1G C2G 1_555 1_555
C1A C2A 1_555 1_555
C1F C2F 1_555 1_555
C1B C2B 1_555 1_555
C1K C2K 1_555 1_555
C1V C2V 1_555 1_555
C1S C2S 1_555 1_555
C1J C2J 1_555 1_555
C1T_2 C2T_2 1_555 1_555
C1L_2 C2L_2 1_555 1_555
C1H_2 C2H_2 1_555 1_555
C1O C2O 1_555 1_555
C1U C2U 1_555 1_555
C1R C2R 1_555 1_555
C1C C2C 1_555 1_555
C1I C2I 1_555 1_555
C2G C3G 1_555 1_555
C3F C4A 1_555 1_555
C3K C4B 1_555 1_555
C3V C4T 1_555 1_555
C3S C4L 1_555 1_555
C3J C4H 1_555 1_555
C3T_2 C4V 1_555 1_555
C3L_2 C4S 1_555 1_555
C3H_2 C4J 1_555 1_555
C3U C4O 1_555 1_555
C3R C4M 1_555 1_555
C3I C4C 1_555 1_555

#END
