
#######################################################################
#
#                 Cambridge Crystallographic Data Centre
#                                CCDC 
#
#######################################################################
#
# If this CIF has been generated from an entry in the Cambridge 
# Structural Database, then it will include bibliographic, chemical, 
# crystal, experimental, refinement or atomic coordinate data resulting 
# from the CCDC's data processing and validation procedures.
#
#######################################################################

data_PURQUP
_chemical_formula_moiety         '(C30 H16 Cu3 N9 O12)n'
_symmetry_cell_setting           cubic
_symmetry_space_group_name_H-M   'P 43 3 2'
_symmetry_Int_Tables_number      212
_space_group_name_Hall           'P 4acd 2ab 3'
loop_
_symmetry_equiv_pos_site_id
_symmetry_equiv_pos_as_xyz
1 x,y,z
2 1/2-x,-y,1/2+z
3 -x,1/2+y,1/2-z
4 1/2+x,1/2-y,-z
5 z,x,y
6 1/2+z,1/2-x,-y
7 1/2-z,-x,1/2+y
8 -z,1/2+x,1/2-y
9 y,z,x
10 -y,1/2+z,1/2-x
11 1/2+y,1/2-z,-x
12 1/2-y,-z,1/2+x
13 1/4+y,3/4+x,3/4-z
14 1/4-y,1/4-x,1/4-z
15 3/4+y,3/4-x,1/4+z
16 3/4-y,1/4+x,3/4+z
17 1/4+x,3/4+z,3/4-y
18 3/4-x,1/4+z,3/4+y
19 1/4-x,1/4-z,1/4-y
20 3/4+x,3/4-z,1/4+y
21 1/4+z,3/4+y,3/4-x
22 3/4+z,3/4-y,1/4+x
23 3/4-z,1/4+y,3/4+x
24 1/4-z,1/4-y,1/4-x
_cell_length_a                   27.289(3)
_cell_length_b                   27.289(3)
_cell_length_c                   27.289(3)
_cell_angle_alpha                90
_cell_angle_beta                 90
_cell_angle_gamma                90
_cell_volume                     20321.8
loop_
_atom_site_label
_atom_site_type_symbol
_atom_site_fract_x
_atom_site_fract_y
_atom_site_fract_z
_atom_site_U_iso_or_equiv
_atom_site_thermal_displace_type
Cu1 Cu -0.17937(4) -0.60611(4) -0.26416(4) 0.0482 Uani
Cu2 Cu -0.3750 -0.49923(5) -0.25077(5) 0.0636 Uani
O1 O -0.1461(2) -0.5317(3) -0.2416(3) 0.0693 Uani
O2 O -0.1705(3) -0.4551(3) -0.2427(3) 0.0907 Uani
O3 O -0.3255(3) -0.4242(3) -0.2455(3) 0.0763 Uani
O4 O -0.2468(3) -0.4083(3) -0.2402(4) 0.0947 Uani
H1 H -0.2215 -0.4241 -0.2367 0.0800 Uiso
O5 O -0.1251(3) -0.6506(3) -0.2683(3) 0.0780 Uani
O6 O -0.0748(4) -0.6887(4) -0.3194(4) 0.1070 Uani
H2 H -0.060(4) -0.687(4) -0.353(4) 0.0800 Uiso
N1 N -0.2391(2) -0.5659(2) -0.2617(3) 0.0427 Uani
N2 N -0.3111(2) -0.5237(2) -0.2584(3) 0.0420 Uani
N3 N -0.3643(3) -0.6988(3) -0.3052(3) 0.0463 Uani
N4 N -0.1646(2) -0.5974(2) -0.3354(2) 0.0357 Uani
N5 N -0.2893(3) -0.4607(3) -0.3750 0.0713 Uani
C1 C -0.2863(3) -0.5658(3) -0.2663(3) 0.0447 Uani
C2 C -0.2307(3) -0.5158(3) -0.2520(3) 0.0357 Uani
C3 C -0.2740(3) -0.4895(3) -0.2505(3) 0.0457 Uani
C4 C -0.1767(4) -0.5005(3) -0.2432(3) 0.0480 Uani
C5 C -0.2858(5) -0.4401(4) -0.2492(4) 0.0720 Uani
C6 C -0.3115(4) -0.6986(4) -0.3067(4) 0.0643 Uani
H3 H -0.2929 -0.7254 -0.3165 0.0800 Uiso
C7 C -0.2903(3) -0.6520(4) -0.2911(4) 0.0603 Uani
H4 H -0.2563 -0.6508 -0.2890 0.0800 Uiso
C8 C -0.3125(3) -0.6139(3) -0.2804(3) 0.0423 Uani
C9 C -0.3651(4) -0.6158(4) -0.2835(5) 0.0727 Uani
H5 H -0.3837 -0.5873 -0.2809 0.0800 Uiso
C10 C -0.3868(3) -0.6598(3) -0.2903(4) 0.0540 Uani
H6 H -0.4201 -0.6622 -0.2838 0.0800 Uiso
C11 C -0.1765(3) -0.5735(3) -0.3750 0.0410 Uani
C12 C -0.1300(3) -0.6293(3) -0.3518(3) 0.0350 Uani
C13 C -0.1088(4) -0.6575(4) -0.3101(5) 0.0687 Uani
C14 C -0.2405(5) -0.4472(4) -0.3700(5) 0.0787 Uani
H7 H -0.2315 -0.4146 -0.3660 0.0800 Uiso
C15 C -0.2041(4) -0.4855(4) -0.3713(4) 0.0613 Uani
H8 H -0.1708 -0.4781 -0.3694 0.0800 Uiso
C16 C -0.2191(3) -0.5309(3) -0.3750 0.0450 Uani
Cu1R Cu -0.57063(4) -0.48584(4) -0.14389(4) 0.0482 Uani
Cu1I Cu -0.39389(4) -0.76416(4) -0.32063(4) 0.0482 Uani
Cu1M Cu -0.14389(4) -0.57063(4) -0.48584(4) 0.0482 Uani
Cu1L Cu -0.35611(4) -0.42937(4) 0.01416(4) 0.0482 Uani
O1R O -0.6039(2) -0.5084(3) -0.2183(3) 0.0693 Uani
O2R O -0.5795(3) -0.5073(3) -0.2949(3) 0.0907 Uani
O3R O -0.4245(3) -0.5045(3) -0.3258(3) 0.0763 Uani
O4R O -0.5032(3) -0.5098(4) -0.3417(3) 0.0947 Uani
H1R H -0.5285 -0.5133 -0.3259 0.0800 Uiso
O5M O -0.0994(3) -0.6249(3) -0.4817(3) 0.0780 Uani
O5R O -0.6249(3) -0.4817(3) -0.0994(3) 0.0780 Uani
O6M O -0.0613(4) -0.6752(4) -0.4306(4) 0.1070 Uani
H2M H -0.063(4) -0.690(4) -0.397(4) 0.0800 Uiso
N1R N -0.5109(2) -0.4883(3) -0.1841(2) 0.0427 Uani
N2R N -0.4389(2) -0.4916(3) -0.2263(2) 0.0420 Uani
N3R N -0.3857(3) -0.4448(3) -0.0512(3) 0.0463 Uani
N3F N -0.1948(3) -0.6357(3) -0.1988(3) 0.0463 Uani
N3U N -0.5552(3) -0.5512(3) -0.1143(3) 0.0463 Uani
N4M N -0.1526(2) -0.5854(2) -0.4146(2) 0.0357 Uani
N4R N -0.5854(2) -0.4146(2) -0.1526(2) 0.0357 Uani
C1R C -0.4637(3) -0.4837(3) -0.1842(3) 0.0447 Uani
C2R C -0.5193(3) -0.4980(3) -0.2342(3) 0.0357 Uani
C3R C -0.4760(3) -0.4995(3) -0.2605(3) 0.0457 Uani
C4R C -0.5733(4) -0.5068(3) -0.2495(3) 0.0480 Uani
C5R C -0.4642(5) -0.5008(4) -0.3099(4) 0.0720 Uani
C6R C -0.4385(4) -0.4433(4) -0.0514(4) 0.0643 Uani
H3R H -0.4571 -0.4335 -0.0246 0.0800 Uiso
C7R C -0.4597(3) -0.4589(4) -0.0980(4) 0.0603 Uani
H4R H -0.4937 -0.4610 -0.0992 0.0800 Uiso
C8R C -0.4375(3) -0.4696(3) -0.1361(3) 0.0423 Uani
C9R C -0.3849(4) -0.4665(5) -0.1342(4) 0.0727 Uani
H5R H -0.3663 -0.4691 -0.1627 0.0800 Uiso
C10R C -0.3632(3) -0.4597(4) -0.0902(3) 0.0540 Uani
H6R H -0.3299 -0.4662 -0.0878 0.0800 Uiso
C12M C -0.1207(3) -0.6200(3) -0.3982(3) 0.0350 Uani
C13M C -0.0925(4) -0.6412(4) -0.4399(5) 0.0687 Uani
C14M C -0.3028(4) -0.5095(5) -0.3800(5) 0.0787 Uani
H7M H -0.3354 -0.5185 -0.3840 0.0800 Uiso
C15M C -0.2645(4) -0.5459(4) -0.3787(4) 0.0613 Uani
H8M H -0.2719 -0.5792 -0.3806 0.0800 Uiso
loop_
_atom_site_aniso_label
_atom_site_aniso_U_11
_atom_site_aniso_U_22
_atom_site_aniso_U_33
_atom_site_aniso_U_23
_atom_site_aniso_U_13
_atom_site_aniso_U_12
Cu1 0.0439(6) 0.0523(7) 0.0483(7) 0.0076(5) 0.0030(5) 0.0035(5)
Cu2 0.0544(11) 0.0682(8) 0.0682(8) 0.0020(9) 0.0041(6) 0.0041(6)
O1 0.043(4) 0.072(5) 0.093(6) 0.014(4) -0.004(4) -0.007(4)
O2 0.077(6) 0.081(6) 0.114(7) -0.005(5) 0.014(5) -0.005(4)
O3 0.078(6) 0.062(5) 0.089(6) 0.001(4) 0.010(4) 0.016(4)
O4 0.080(6) 0.059(5) 0.145(9) 0.009(5) -0.001(5) -0.004(4)
O5 0.064(5) 0.100(6) 0.070(5) 0.015(4) 0.009(4) 0.032(4)
O6 0.109(8) 0.119(8) 0.093(7) 0.017(6) 0.006(6) 0.017(6)
N1 0.037(4) 0.031(4) 0.060(5) 0.016(3) 0.001(3) -0.005(3)
N2 0.033(4) 0.042(4) 0.051(4) 0.001(3) 0.006(3) 0.023(3)
N3 0.049(5) 0.046(4) 0.044(4) 0.008(3) -0.002(3) -0.022(4)
N4 0.038(4) 0.044(4) 0.025(3) 0.010(3) -0.010(3) 0.001(3)
N5 0.075(6) 0.075(6) 0.064(8) 0.013(5) 0.013(5) 0.019(8)
C1 0.055(6) 0.049(5) 0.030(4) -0.002(4) 0.007(4) -0.020(4)
C2 0.048(5) 0.030(4) 0.029(4) 0.006(3) 0.006(3) 0.000(3)
C3 0.045(5) 0.052(6) 0.040(5) 0.001(4) 0.009(4) -0.011(4)
C4 0.054(6) 0.038(5) 0.052(6) 0.007(4) 0.003(4) -0.002(5)
C5 0.076(8) 0.062(8) 0.078(8) 0.001(6) 0.005(6) 0.005(6)
C6 0.069(7) 0.048(6) 0.076(7) 0.003(5) 0.003(5) -0.007(5)
C7 0.040(5) 0.070(7) 0.071(7) 0.000(5) -0.002(5) 0.001(5)
C8 0.033(5) 0.049(5) 0.045(5) 0.000(4) 0.001(4) -0.001(4)
C9 0.054(6) 0.056(7) 0.108(9) -0.003(6) 0.004(6) 0.007(5)
C10 0.043(5) 0.044(5) 0.075(7) -0.016(5) 0.009(5) 0.002(4)
C11 0.026(3) 0.026(3) 0.071(8) -0.005(4) -0.005(4) 0.001(5)
C12 0.022(4) 0.038(4) 0.045(4) 0.000(4) 0.003(3) -0.001(3)
C13 0.036(5) 0.080(7) 0.090(9) -0.003(6) 0.016(5) 0.030(5)
C14 0.094(9) 0.051(6) 0.091(9) 0.006(6) 0.019(7) 0.000(6)
C15 0.056(6) 0.058(6) 0.070(7) -0.010(5) 0.001(5) -0.003(5)
C16 0.038(4) 0.038(4) 0.059(8) 0.009(4) 0.009(4) 0.011(5)
Cu1R 0.0439 0.0483 0.0523 0.0076 0.0035 0.003
Cu1I 0.0523 0.0483 0.0439 -0.003 0.0035 -0.0076
Cu1M 0.0523 0.0439 0.0483 0.003 0.0076 0.0035
Cu1L 0.0523 0.0439 0.0483 -0.003 -0.0076 0.0035
O1R 0.043 0.093 0.072 0.014 -0.007 -0.004
O2R 0.077 0.114 0.081 -0.005 -0.005 0.014
O3R 0.078 0.089 0.062 0.001 0.016 0.01
O4R 0.08 0.145 0.059 0.009 -0.004 -0.001
O5M 0.1 0.064 0.07 0.009 0.015 0.032
O5R 0.064 0.07 0.1 0.015 0.032 0.009
O6M 0.119 0.109 0.093 0.006 0.017 0.017
N1R 0.037 0.06 0.031 0.016 -0.005 0.001
N2R 0.033 0.051 0.042 0.001 0.023 0.006
N3R 0.049 0.044 0.046 0.008 -0.022 -0.002
N3F 0.044 0.049 0.046 0.022 -0.008 -0.002
N3U 0.044 0.046 0.049 0.022 -0.002 -0.008
N4M 0.044 0.038 0.025 -0.01 0.01 0.001
N4R 0.038 0.025 0.044 0.01 0.001 -0.01
C1R 0.055 0.03 0.049 -0.002 -0.02 0.007
C2R 0.048 0.029 0.03 0.006 0 0.006
C3R 0.045 0.04 0.052 0.001 -0.011 0.009
C4R 0.054 0.052 0.038 0.007 -0.002 0.003
C5R 0.076 0.078 0.062 0.001 0.005 0.005
C6R 0.069 0.076 0.048 0.003 -0.007 0.003
C7R 0.04 0.071 0.07 0 0.001 -0.002
C8R 0.033 0.045 0.049 0 -0.001 0.001
C9R 0.054 0.108 0.056 -0.003 0.007 0.004
C10R 0.043 0.075 0.044 -0.016 0.002 0.009
C12M 0.038 0.022 0.045 0.003 0 -0.001
C13M 0.08 0.036 0.09 0.016 -0.003 0.03
C14M 0.051 0.094 0.091 0.019 0.006 0
C15M 0.058 0.056 0.07 0.001 -0.01 -0.003
loop_
_geom_bond_atom_site_label_1
_geom_bond_atom_site_label_2
_geom_bond_site_symmetry_1
_geom_bond_site_symmetry_2
Cu1 O1 1_555 1_555
Cu2 N2 1_555 1_555
O1 C4 1_555 1_555
O2 C4 1_555 1_555
O3 C5 1_555 1_555
O4 H1 1_555 1_555
O5 Cu1 1_555 1_555
O6 H2 1_555 1_555
N1 Cu1 1_555 1_555
N2 C1 1_555 1_555
N3 C6 1_555 1_555
N4 Cu1 1_555 1_555
N5 C14 1_555 1_555
C1 N1 1_555 1_555
C2 N1 1_555 1_555
C3 N2 1_555 1_555
C4 C2 1_555 1_555
C5 O4 1_555 1_555
C6 H3 1_555 1_555
C7 C6 1_555 1_555
H4 C7 1_555 1_555
C8 C1 1_555 1_555
C9 C8 1_555 1_555
H5 C9 1_555 1_555
C10 N3 1_555 1_555
H6 C10 1_555 1_555
C11 N4 1_555 1_555
C12 N4 1_555 1_555
C13 O5 1_555 1_555
C14 H7 1_555 1_555
C15 C14 1_555 1_555
H8 C15 1_555 1_555
C16 C11 1_555 1_555
Cu1R O1R 1_555 1_555
Cu1I N3 1_555 1_555
Cu1M O5M 1_555 1_555
Cu1L N3R 1_555 1_555
O1R C4R 1_555 1_555
O2R C4R 1_555 1_555
O3R C5R 1_555 1_555
O4R H1R 1_555 1_555
O5M C13M 1_555 1_555
O5R Cu1R 1_555 1_555
O6M H2M 1_555 1_555
N1R Cu1R 1_555 1_555
N2R Cu2 1_555 1_555
N3R C6R 1_555 1_555
N3F Cu1 1_555 1_555
N3U Cu1R 1_555 1_555
N4M C11 1_555 1_555
N4R Cu1R 1_555 1_555
C1R N1R 1_555 1_555
C2R N1R 1_555 1_555
C3R N2R 1_555 1_555
C4R C2R 1_555 1_555
C5R O4R 1_555 1_555
C6R H3R 1_555 1_555
C7R C6R 1_555 1_555
H4R C7R 1_555 1_555
C8R C1R 1_555 1_555
C9R C8R 1_555 1_555
H5R C9R 1_555 1_555
C10R N3R 1_555 1_555
H6R C10R 1_555 1_555
C12M C12 1_555 1_555
C13M O6M 1_555 1_555
C14M N5 1_555 1_555
H7M C14M 1_555 1_555
C15M C16 1_555 1_555
H8M C15M 1_555 1_555
O6 C13 1_555 1_555
C2 C3 1_555 1_555
C3 C5 1_555 1_555
C7 C8 1_555 1_555
C9 C10 1_555 1_555
C12 C13 1_555 1_555
C15 C16 1_555 1_555
Cu1M N4M 1_555 1_555
N2R C1R 1_555 1_555
N4M C12M 1_555 1_555
C2R C3R 1_555 1_555
C3R C5R 1_555 1_555
C7R C8R 1_555 1_555
C9R C10R 1_555 1_555
C12M C13M 1_555 1_555
C14M C15M 1_555 1_555

#END
