
#######################################################################
#
#                 Cambridge Crystallographic Data Centre
#                                CCDC 
#
#######################################################################
#
# If this CIF has been generated from an entry in the Cambridge 
# Structural Database, then it will include bibliographic, chemical, 
# crystal, experimental, refinement or atomic coordinate data resulting 
# from the CCDC's data processing and validation procedures.
#
#######################################################################

data_PURQOJ
_chemical_formula_moiety         '(C10 H5 Cu1 N3 O4)n'
_symmetry_cell_setting           cubic
_symmetry_space_group_name_H-M   'P 43 3 2'
_symmetry_Int_Tables_number      212
_space_group_name_Hall           'P 4acd 2ab 3'
loop_
_symmetry_equiv_pos_site_id
_symmetry_equiv_pos_as_xyz
1 x,y,z
2 1/2-x,-y,1/2+z
3 -x,1/2+y,1/2-z
4 1/2+x,1/2-y,-z
5 z,x,y
6 1/2+z,1/2-x,-y
7 1/2-z,-x,1/2+y
8 -z,1/2+x,1/2-y
9 y,z,x
10 -y,1/2+z,1/2-x
11 1/2+y,1/2-z,-x
12 1/2-y,-z,1/2+x
13 1/4+y,3/4+x,3/4-z
14 1/4-y,1/4-x,1/4-z
15 3/4+y,3/4-x,1/4+z
16 3/4-y,1/4+x,3/4+z
17 1/4+x,3/4+z,3/4-y
18 3/4-x,1/4+z,3/4+y
19 1/4-x,1/4-z,1/4-y
20 3/4+x,3/4-z,1/4+y
21 1/4+z,3/4+y,3/4-x
22 3/4+z,3/4-y,1/4+x
23 3/4-z,1/4+y,3/4+x
24 1/4-z,1/4-y,1/4-x
_cell_length_a                   24.024(3)
_cell_length_b                   24.024(3)
_cell_length_c                   24.024(3)
_cell_angle_alpha                90
_cell_angle_beta                 90
_cell_angle_gamma                90
_cell_volume                     13865.5
loop_
_atom_site_label
_atom_site_type_symbol
_atom_site_fract_x
_atom_site_fract_y
_atom_site_fract_z
_atom_site_U_iso_or_equiv
_atom_site_thermal_displace_type
Cu1 Cu 0.74213(4) 0.00991(4) 0.05160(4) 0.0458 Uani
O1 O 0.6918(4) 0.0849(3) 0.0419(2) 0.0843 Uani
O2 O 0.6702(4) 0.1459(4) -0.0233(4) 0.1060 Uani
O3 O 0.7039(3) 0.0685(3) -0.2019(3) 0.0807 Uani
O4 O 0.6722(4) 0.1367(5) -0.1469(5) 0.1143 Uani
H1 H 0.6661 0.1426 -0.1139 0.1000 Uiso
N1 N 0.7362(3) 0.0147(3) -0.0283(2) 0.0433 Uani
N2 N 0.7349(3) 0.0071(3) -0.1191(3) 0.0460 Uani
N3 N 0.8052(3) -0.1845(3) -0.0463(3) 0.0423 Uani
C1 C 0.7486(3) -0.0180(4) -0.0725(3) 0.0403 Uani
C2 C 0.7125(5) 0.0596(4) -0.0491(4) 0.0577 Uani
C3 C 0.7117(4) 0.0549(4) -0.1073(3) 0.0563 Uani
C4 C 0.8276(3) -0.1433(4) -0.0202(3) 0.0457 Uani
H2 H 0.8556 -0.1512 0.0053 0.0800 Uiso
C5 C 0.8123(4) -0.0866(4) -0.0280(4) 0.0540 Uani
H3 H 0.8284 -0.0584 -0.0069 0.0800 Uiso
C6 C 0.7729(3) -0.0751(3) -0.0678(3) 0.0377 Uani
C7 C 0.7539(3) -0.1160(3) -0.1007(3) 0.0397 Uani
H4 H 0.7308 -0.1080 -0.1306 0.0800 Uiso
C8 C 0.7695(3) -0.1706(4) -0.0891(3) 0.0440 Uani
H5 H 0.7553 -0.1989 -0.1113 0.0800 Uiso
C9 C 0.6898(5) 0.1014(5) -0.0067(5) 0.0753 Uani
C10 C 0.6923(5) 0.0890(5) -0.1527(5) 0.0723 Uani
Cu1O Cu 0.74009(4) -0.00787(4) -0.19840(4) 0.0458 Uani
Cu1U Cu 0.80160(4) -0.25991(4) -0.00787(4) 0.0458 Uani
O3N O 0.8185(3) 0.0461(3) 0.0481(3) 0.0807 Uani
N2N N 0.7571(3) 0.0151(3) 0.1309(3) 0.0460 Uani
N3U N 0.7037(3) -0.0655(3) 0.0552(3) 0.0423 Uani
loop_
_atom_site_aniso_label
_atom_site_aniso_U_11
_atom_site_aniso_U_22
_atom_site_aniso_U_33
_atom_site_aniso_U_23
_atom_site_aniso_U_13
_atom_site_aniso_U_12
Cu1 0.0608(7) 0.0554(7) 0.0211(4) -0.0009(4) 0.0015(4) -0.0162(5)
O1 0.153(8) 0.077(5) 0.023(3) -0.018(3) 0.026(4) -0.004(5)
O2 0.107(3) 0.106(3) 0.105(3) -0.0001(10) 0.0005(10) 0.0017(10)
O3 0.082(2) 0.081(2) 0.079(2) 0.0000(10) -0.0007(10) 0.0023(10)
O4 0.115(3) 0.114(3) 0.114(3) -0.0003(10) 0.0000(10) 0.0020(10)
N1 0.069(5) 0.042(3) 0.019(3) -0.004(3) 0.012(3) 0.010(3)
N2 0.059(4) 0.051(4) 0.028(3) -0.002(3) -0.006(3) 0.018(3)
N3 0.031(3) 0.051(4) 0.045(4) 0.005(3) 0.004(3) 0.003(3)
C1 0.035(4) 0.064(5) 0.022(3) 0.001(3) -0.002(3) 0.001(4)
C2 0.081(7) 0.058(6) 0.034(5) -0.003(4) 0.004(4) 0.015(5)
C3 0.081(7) 0.069(6) 0.019(4) -0.008(4) 0.010(4) 0.017(5)
C4 0.034(4) 0.062(6) 0.041(5) 0.020(4) 0.005(4) 0.019(4)
C5 0.047(5) 0.070(6) 0.045(5) -0.005(4) -0.007(4) 0.001(4)
C6 0.037(4) 0.048(5) 0.028(4) 0.022(3) 0.009(3) 0.005(3)
C7 0.041(4) 0.049(5) 0.029(4) -0.007(3) -0.005(3) 0.008(4)
C8 0.028(4) 0.060(5) 0.044(5) -0.010(4) -0.007(3) 0.006(4)
C9 0.076(3) 0.075(3) 0.075(3) 0.0002(10) 0.0002(10) 0.0009(10)
C10 0.073(3) 0.072(3) 0.072(3) -0.0002(10) 0.0007(10) 0.0013(10)
Cu1O 0.0554 0.0608 0.0211 0.0015 0.0009 0.0162
Cu1U 0.0211 0.0554 0.0608 0.0162 0.0015 0.0009
O3N 0.081 0.082 0.079 0.0007 0 -0.0023
N2N 0.051 0.059 0.028 0.006 -0.002 -0.018
N3U 0.045 0.051 0.031 -0.003 0.004 -0.005
loop_
_geom_bond_atom_site_label_1
_geom_bond_atom_site_label_2
_geom_bond_site_symmetry_1
_geom_bond_site_symmetry_2
Cu1 O1 1_555 1_555
O1 C9 1_555 1_555
O2 C9 1_555 1_555
O3 C10 1_555 1_555
O4 H1 1_555 1_555
N1 Cu1 1_555 1_555
N2 C1 1_555 1_555
N3 C4 1_555 1_555
C1 N1 1_555 1_555
C2 N1 1_555 1_555
C3 N2 1_555 1_555
C4 H2 1_555 1_555
C5 C4 1_555 1_555
H3 C5 1_555 1_555
C6 C1 1_555 1_555
C7 C6 1_555 1_555
H4 C7 1_555 1_555
C8 N3 1_555 1_555
H5 C8 1_555 1_555
C9 C2 1_555 1_555
C10 O4 1_555 1_555
Cu1O O3 1_555 1_555
Cu1U N3 1_555 1_555
O3N Cu1 1_555 1_555
N2N Cu1 1_555 1_555
N3U Cu1 1_555 1_555
N2 Cu1O 1_555 1_555
C2 C3 1_555 1_555
C3 C10 1_555 1_555
C5 C6 1_555 1_555
C7 C8 1_555 1_555

#END
