
#######################################################################
#
#                 Cambridge Crystallographic Data Centre
#                                CCDC 
#
#######################################################################
#
# If this CIF has been generated from an entry in the Cambridge 
# Structural Database, then it will include bibliographic, chemical, 
# crystal, experimental, refinement or atomic coordinate data resulting 
# from the CCDC's data processing and validation procedures.
#
#######################################################################

data_MAQJEW
_chemical_formula_moiety         '(C2 H6 N2 Ni1 O5)n'
_symmetry_cell_setting           tetragonal
_symmetry_space_group_name_H-M   'I 41/a c d'
_symmetry_Int_Tables_number      142
_space_group_name_Hall           '-I 4bd 2c'
loop_
_symmetry_equiv_pos_site_id
_symmetry_equiv_pos_as_xyz
1 x,y,z
2 1/2-x,-y,1/2+z
3 1/4-y,3/4+x,1/4+z
4 1/4+y,1/4-x,3/4+z
5 1/2-x,y,-z
6 x,-y,1/2-z
7 1/4+y,3/4+x,3/4-z
8 1/4-y,1/4-x,1/4-z
9 1/2+x,1/2+y,1/2+z
10 -x,1/2-y,z
11 3/4-y,1/4+x,3/4+z
12 3/4+y,3/4-x,1/4+z
13 -x,1/2+y,1/2-z
14 1/2+x,1/2-y,-z
15 3/4+y,1/4+x,1/4-z
16 3/4-y,3/4-x,3/4-z
17 -x,-y,-z
18 1/2+x,y,1/2-z
19 3/4+y,1/4-x,3/4-z
20 3/4-y,3/4+x,1/4-z
21 1/2+x,-y,z
22 -x,y,1/2+z
23 3/4-y,1/4-x,1/4+z
24 3/4+y,3/4+x,3/4+z
25 1/2-x,1/2-y,1/2-z
26 x,1/2+y,-z
27 1/4+y,3/4-x,1/4-z
28 1/4-y,1/4+x,3/4-z
29 x,1/2-y,1/2+z
30 1/2-x,1/2+y,z
31 1/4-y,3/4-x,3/4+z
32 1/4+y,1/4+x,1/4+z
_cell_length_a                   14.761(2)
_cell_length_b                   14.761(2)
_cell_length_c                   10.879(2)
_cell_angle_alpha                90
_cell_angle_beta                 90
_cell_angle_gamma                90
_cell_volume                     2370.39
loop_
_atom_site_label
_atom_site_type_symbol
_atom_site_fract_x
_atom_site_fract_y
_atom_site_fract_z
_atom_site_U_iso_or_equiv
_atom_site_thermal_displace_type
Ni1 Ni 0.595012(14) 0.654988(14) 0.1250 0.0199 Uani
O1 O 0.73448(9) 0.65408(9) 0.15842(12) 0.0269 Uani
O2 O 0.86232(8) 0.67533(9) 0.05239(11) 0.0257 Uani
N1 N 0.59723(10) 0.79226(11) 0.16591(15) 0.0233 Uani
C1 C 0.77784(11) 0.66569(11) 0.06075(15) 0.0205 Uani
H1 H 0.6470(16) 0.8102(17) 0.159(2) 0.0340 Uiso
H2 H 0.5737(16) 0.7999(18) 0.239(3) 0.0440 Uiso
O1D O 0.76552(9) 0.65408(9) -0.15842(12) 0.0269 Uani
C1D C 0.72216(11) 0.66569(11) -0.06075(15) 0.0205 Uani
O2D O 0.63768(8) 0.67533(9) -0.05239(11) 0.0257 Uani
N1N N 0.54226(11) 0.84723(10) 0.08409(15) 0.0233 Uani
H1N H 0.5602(17) 0.8970(16) 0.091(2) 0.0340 Uiso
H2N H 0.5499(18) 0.8237(16) 0.011(3) 0.0440 Uiso
Ni1C Ni 0.904988(14) 0.654988(14) -0.1250 0.0199 Uani
Ni1I Ni 0.404988(14) 0.845012(14) 0.1250 0.0199 Uani
O1G O 0.59592(9) 0.51552(9) 0.09158(12) 0.0269 Uani
O2B O 0.57467(9) 0.61232(8) 0.30239(11) 0.0257 Uani
N1G N 0.45774(11) 0.65277(10) 0.08409(15) 0.0233 Uani
O3 O 0.2500 0.1181(2) 0.0000 0.0712 Uani
loop_
_atom_site_aniso_label
_atom_site_aniso_U_11
_atom_site_aniso_U_22
_atom_site_aniso_U_33
_atom_site_aniso_U_23
_atom_site_aniso_U_13
_atom_site_aniso_U_12
Ni1 0.01900(15) 0.01900(15) 0.02169(19) 0.00158(8) 0.00158(8) 0.00024(11)
O1 0.0221(7) 0.0375(7) 0.0212(6) 0.0034(5) -0.0006(5) 0.0015(5)
O2 0.018 0.0354 0.0236 -0.0042 -0.0015 0.0015
N1 0.0213(8) 0.0231(8) 0.0255(8) 0.0014(6) -0.0040(6) -0.0004(6)
C1 0.0203(8) 0.0197(8) 0.0215(8) -0.0019(6) -0.0032(6) 0.0030(6)
O1D 0.0221 0.0375 0.0212 -0.0034 -0.0006 -0.0015
C1D 0.0203 0.0197 0.0215 0.0019 -0.0032 -0.003
O2D 0.018 0.0354 0.0236 0.0042 -0.0015 -0.0015
N1N 0.0231 0.0213 0.0255 0.004 -0.0014 -0.0004
Ni1C 0.019 0.019 0.02169 -0.00158 0.00158 -0.00024
Ni1I 0.019 0.019 0.02169 -0.00158 -0.00158 0.00024
O1G 0.0375 0.0221 0.0212 -0.0006 0.0034 0.0015
O2B 0.0354 0.018 0.0236 -0.0015 0.0042 -0.0015
N1G 0.0231 0.0213 0.0255 -0.004 0.0014 -0.0004
O3 0.0386(14) 0.092(2) 0.083(2) 0.000 -0.0054(14) 0.000
loop_
_geom_bond_atom_site_label_1
_geom_bond_atom_site_label_2
_geom_bond_site_symmetry_1
_geom_bond_site_symmetry_2
Ni1 O1 1_555 1_555
O1 C1 1_555 1_555
O2 C1 1_555 1_555
N1 Ni1 1_555 1_555
C1 C1D 1_555 1_555
H1 N1 1_555 1_555
H2 N1 1_555 1_555
O1D C1D 1_555 1_555
C1D O2D 1_555 1_555
O2D Ni1 1_555 1_555
N1N N1 1_555 1_555
H1N N1N 1_555 1_555
H2N N1N 1_555 1_555
Ni1C O2 1_555 1_555
Ni1I N1N 1_555 1_555
O1G Ni1 1_555 1_555
O2B Ni1 1_555 1_555
N1G Ni1 1_555 1_555
O1D Ni1C 1_555 1_555

#END
