
#######################################################################
#
#                 Cambridge Crystallographic Data Centre
#                                CCDC 
#
#######################################################################
#
# If this CIF has been generated from an entry in the Cambridge 
# Structural Database, then it will include bibliographic, chemical, 
# crystal, experimental, refinement or atomic coordinate data resulting 
# from the CCDC's data processing and validation procedures.
#
#######################################################################

data_MALSAW
_chemical_formula_moiety         '(C14 H6 Fe2 O6)n'
_symmetry_cell_setting           trigonal
_symmetry_space_group_name_H-M   'P 32 2 1'
_symmetry_Int_Tables_number      154
_space_group_name_Hall           'P 32 2"'
loop_
_symmetry_equiv_pos_site_id
_symmetry_equiv_pos_as_xyz
1 x,y,z
2 -y,x-y,2/3+z
3 -x+y,-x,1/3+z
4 y,x,-z
5 -x,-x+y,2/3-z
6 x-y,-y,1/3-z
_cell_length_a                   21.831(4)
_cell_length_b                   21.831
_cell_length_c                   6.8543(22)
_cell_angle_alpha                90
_cell_angle_beta                 90
_cell_angle_gamma                120
_cell_volume                     2829.05
loop_
_atom_site_label
_atom_site_type_symbol
_atom_site_fract_x
_atom_site_fract_y
_atom_site_fract_z
Fe1 Fe 0.6152(13) 0.2798(13) 1.138(4)
O1 O 0.6564(28) 0.2372(23) 0.935(7)
O2 O 0.6404(20) 0.2874(31) 0.595(7)
O3 O 0.5777(23) 0.2047(19) 0.367(7)
C1 C 0.6138 0.1744 0.8787
C2 C 0.594 0.1649 0.6810
C3 C 0.5602 0.0958 0.6029
C4 C 0.5449 0.0355 0.7105
C5 C 0.5638 0.0465 0.9089
C6 C 0.5962 0.1132 0.9911
C7 C 0.605 0.2229 0.5481
D1 D 0.547 0.0898 0.4694
D2 D 0.5538 0.0067 0.9881
H1 H 0.607 0.1182 1.1262
O1E O 0.4192(36) -0.2372(23) 0.398(7)
O2E O 0.3530(37) -0.2874(31) 0.738(7)
O3E O 0.3730(30) -0.2047(19) 0.966(7)
C1E C 0.4394 -0.1744 0.4546
C2E C 0.4291 -0.1649 0.6523
C3E C 0.4644 -0.0958 0.7304
C4E C 0.5094 -0.0355 0.6228
C5E C 0.5173 -0.0465 0.4244
C6E C 0.4830 -0.1132 0.3422
C7E C 0.3821 -0.2229 0.7852
D1E D 0.4572 -0.0898 0.8639
D2E D 0.5471 -0.0067 0.3452
H1E H 0.4888 -0.1182 0.2071
Fe1E Fe 0.3354(18) -0.2798(13) 0.195(4)
Fe1_2 Fe 0.6152(13) 0.2798(13) 0.138(4)
Fe1A Fe 0.7202(13) 0.3354(18) 0.805(4)
Fe1B Fe 0.6646(18) 0.3848(13) 0.471(4)
Fe1C Fe 0.2798(13) -0.3848(13) 0.862(4)
Fe1D Fe 0.3848(13) -0.3354(18) 0.529(4)
Fe1E_2 Fe 0.3354(18) -0.2798(13) 1.195(4)
O1B O 0.5808(36) 0.3436(28) 1.268(7)
O1C O 0.2372(23) -0.3436(28) 0.065(7)
O2A O 0.7126(31) 0.3530(37) 1.262(7)
O2B O 0.6470(37) 0.3596(20) 0.928(7)
O2C O 0.2874(31) -0.3596(20) 0.405(7)
O2D O 0.3596(20) -0.3530(37) 0.072(7)
O3_2 O 0.5777(23) 0.2047(19) 1.367(7)
O3E_2 O 0.3730(30) -0.2047(19) -0.034(7)
loop_
_geom_bond_atom_site_label_1
_geom_bond_atom_site_label_2
_geom_bond_site_symmetry_1
_geom_bond_site_symmetry_2
Fe1 O1 1_555 1_555
O1 C1 1_555 1_555
O2 C7 1_555 1_555
O3 C7 1_555 1_555
C1 C2 1_555 1_555
C2 C3 1_555 1_555
C3 C4 1_555 1_555
C4 C5 1_555 1_555
C5 C6 1_555 1_555
C6 C1 1_555 1_555
C7 C2 1_555 1_555
D1 C3 1_555 1_555
D2 C5 1_555 1_555
H1 C6 1_555 1_555
O1E C1E 1_555 1_555
O2E C7E 1_555 1_555
O3E C7E 1_555 1_555
C1E C2E 1_555 1_555
C2E C3E 1_555 1_555
C3E C4E 1_555 1_555
C4E C4 1_555 1_555
C5E C4E 1_555 1_555
C6E C1E 1_555 1_555
C7E C2E 1_555 1_555
D1E C3E 1_555 1_555
D2E C5E 1_555 1_555
H1E C6E 1_555 1_555
Fe1E O1E 1_555 1_555
Fe1_2 O3 1_555 1_555
Fe1A O1 1_555 1_555
Fe1B O2 1_555 1_555
Fe1C O2E 1_555 1_555
Fe1D O1E 1_555 1_555
Fe1E_2 O3E 1_555 1_555
O1B Fe1 1_555 1_555
O1C Fe1E 1_555 1_555
O2A Fe1 1_555 1_555
O2B Fe1 1_555 1_555
O2C Fe1E 1_555 1_555
O2D Fe1E 1_555 1_555
O3_2 Fe1 1_555 1_555
O3E_2 Fe1E 1_555 1_555
O2 Fe1A 1_555 1_555
O2E Fe1D 1_555 1_555
C5E C6E 1_555 1_555
Fe1A O2B 1_555 1_555
Fe1D O2C 1_555 1_555

#END
