
#######################################################################
#
#                 Cambridge Crystallographic Data Centre
#                                CCDC 
#
#######################################################################
#
# If this CIF has been generated from an entry in the Cambridge 
# Structural Database, then it will include bibliographic, chemical, 
# crystal, experimental, refinement or atomic coordinate data resulting 
# from the CCDC's data processing and validation procedures.
#
#######################################################################

data_IWAYEK
_chemical_formula_moiety         'C19 H8 Mn12 N4 Na1 O51 2+'
_symmetry_cell_setting           cubic
_symmetry_space_group_name_H-M   'I m -3 m'
_symmetry_Int_Tables_number      229
_space_group_name_Hall           '-I 4 2 3'
loop_
_symmetry_equiv_pos_site_id
_symmetry_equiv_pos_as_xyz
1 x,y,z
2 z,x,y
3 y,z,x
4 y,x,-z
5 y,-x,z
6 -y,x,z
7 x,z,-y
8 -x,z,y
9 x,-z,y
10 z,y,-x
11 z,-y,x
12 -z,y,x
13 1/2+x,1/2+y,1/2+z
14 1/2+z,1/2+x,1/2+y
15 1/2+y,1/2+z,1/2+x
16 1/2+y,1/2+x,1/2-z
17 1/2+y,1/2-x,1/2+z
18 1/2-y,1/2+x,1/2+z
19 1/2+x,1/2+z,1/2-y
20 1/2-x,1/2+z,1/2+y
21 1/2+x,1/2-z,1/2+y
22 1/2+z,1/2+y,1/2-x
23 1/2+z,1/2-y,1/2+x
24 1/2-z,1/2+y,1/2+x
25 -x,-y,z
26 -x,y,-z
27 x,-y,-z
28 z,-x,-y
29 -z,-x,y
30 -z,x,-y
31 -y,z,-x
32 y,-z,-x
33 -y,-z,x
34 -y,-x,-z
35 -x,-z,-y
36 -z,-y,-x
37 1/2-x,1/2-y,1/2+z
38 1/2-x,1/2+y,1/2-z
39 1/2+x,1/2-y,1/2-z
40 1/2+z,1/2-x,1/2-y
41 1/2-z,1/2-x,1/2+y
42 1/2-z,1/2+x,1/2-y
43 1/2-y,1/2+z,1/2-x
44 1/2+y,1/2-z,1/2-x
45 1/2-y,1/2-z,1/2+x
46 1/2-y,1/2-x,1/2-z
47 1/2-x,1/2-z,1/2-y
48 1/2-z,1/2-y,1/2-x
49 -x,-y,-z
50 -z,-x,-y
51 -y,-z,-x
52 -y,-x,z
53 -y,x,-z
54 y,-x,-z
55 -x,-z,y
56 x,-z,-y
57 -x,z,-y
58 -z,-y,x
59 -z,y,-x
60 z,-y,-x
61 1/2-x,1/2-y,1/2-z
62 1/2-z,1/2-x,1/2-y
63 1/2-y,1/2-z,1/2-x
64 1/2-y,1/2-x,1/2+z
65 1/2-y,1/2+x,1/2-z
66 1/2+y,1/2-x,1/2-z
67 1/2-x,1/2-z,1/2+y
68 1/2+x,1/2-z,1/2-y
69 1/2-x,1/2+z,1/2-y
70 1/2-z,1/2-y,1/2+x
71 1/2-z,1/2+y,1/2-x
72 1/2+z,1/2-y,1/2-x
73 x,y,-z
74 x,-y,z
75 -x,y,z
76 -z,x,y
77 z,x,-y
78 z,-x,y
79 y,-z,x
80 -y,z,x
81 y,z,-x
82 y,x,z
83 x,z,y
84 z,y,x
85 1/2+x,1/2+y,1/2-z
86 1/2+x,1/2-y,1/2+z
87 1/2-x,1/2+y,1/2+z
88 1/2-z,1/2+x,1/2+y
89 1/2+z,1/2+x,1/2-y
90 1/2+z,1/2-x,1/2+y
91 1/2+y,1/2-z,1/2+x
92 1/2-y,1/2+z,1/2+x
93 1/2+y,1/2+z,1/2-x
94 1/2+y,1/2+x,1/2+z
95 1/2+x,1/2+z,1/2+y
96 1/2+z,1/2+y,1/2+x
_cell_length_a                   14.5662(8)
_cell_length_b                   14.5662(8)
_cell_length_c                   14.5662(8)
_cell_angle_alpha                90
_cell_angle_beta                 90
_cell_angle_gamma                90
_cell_volume                     3090.57
loop_
_atom_site_label
_atom_site_type_symbol
_atom_site_fract_x
_atom_site_fract_y
_atom_site_fract_z
Na1 Na 0.0000 0.5000 0.0000
H1 H -0.218(4) 0.596(3) 0.342(4)
N1 N -0.2432(4) 0.6448(3) 0.3552(3)
C1 C -0.3172(4) 0.6828(4) 0.3172(4)
H1CB H -0.218(4) 0.658(4) 0.404(3)
N1CC N -0.3552(3) 0.7568(4) 0.3552(3)
H1CC H -0.404(3) 0.782(4) 0.342(4)
H1CA H -0.342(4) 0.782(4) 0.404(3)
N1FB N -0.3552(3) 0.6448(3) 0.2432(4)
H1FB H -0.342(4) 0.596(3) 0.218(4)
H1EA H -0.404(3) 0.658(4) 0.218(4)
Mn1 Mn 0.0000 0.5000 0.2500
O2 O -0.1494(3) 0.5000 0.2582(3)
C2 C -0.1730(4) 0.5000 0.1730(4)
O3 O -0.1108(3) 0.5000 0.1108(3)
O2FB O -0.2582(3) 0.5000 0.1494(3)
O2O O -0.0000 0.3506(3) 0.2418(3)
C2O C 0.0000 0.3270(4) 0.3270(4)
O3O O 0.0000 0.3892(3) 0.3892(3)
O2LC O -0.0000 0.2418(3) 0.3506(3)
O2VB O 0.1494(3) 0.5000 0.2582(3)
C2VB C 0.1730(4) 0.5000 0.1730(4)
O3VB O 0.1108(3) 0.5000 0.1108(3)
O2I O 0.2582(3) 0.5000 0.1494(3)
O2MB O -0.0000 0.6494(3) 0.2418(3)
C2MB C -0.0000 0.6730(4) 0.3270(4)
O3MB O -0.0000 0.6108(3) 0.3892(3)
O2N O 0.0000 0.7582(3) 0.3506(3)
Mn1FB Mn -0.2500 0.5000 0.0000
Mn1LC Mn 0.0000 0.2500 0.5000
Mn1I Mn 0.2500 0.5000 0.0000
Mn1N Mn -0.0000 0.7500 0.5000
O2JC O -0.2418(3) 0.3506(3) 0.0000
C2JC C -0.3270(4) 0.3270(4) 0.0000
O3JC O -0.3892(3) 0.3892(3) 0.0000
O2TA O -0.3506(3) 0.2418(3) 0.0000
O2K O -0.2582(3) 0.5000 -0.1494(3)
C2K C -0.1730(4) 0.5000 -0.1730(4)
O3K O -0.1108(3) 0.5000 -0.1108(3)
O2TB O -0.1494(3) 0.5000 -0.2582(3)
O2MA O -0.2418(3) 0.6494(3) 0.0000
C2MA C -0.3270(4) 0.6730(4) 0.0000
O3MA O -0.3892(3) 0.6108(3) 0.0000
O2PB O -0.3506(3) 0.7582(3) 0.0000
O2DC O -0.1494(3) 0.2582(3) 0.5000
C2DC C -0.1730(4) 0.1730(4) 0.5000
O3DC O -0.1108(3) 0.1108(3) 0.5000
O2BA O -0.2582(3) 0.1494(3) 0.5000
O2QA O -0.0000 0.2418(3) 0.6494(3)
C2QA C -0.0000 0.3270(4) 0.6730(4)
O3QA O -0.0000 0.3892(3) 0.6108(3)
O2OC O 0.0000 0.3506(3) 0.7582(3)
O2G O 0.1494(3) 0.2582(3) 0.5000
C2G C 0.1730(4) 0.1730(4) 0.5000
O3G O 0.1108(3) 0.1108(3) 0.5000
O2YB O 0.2582(3) 0.1494(3) 0.5000
O2OA O 0.2418(3) 0.3506(3) 0.0000
C2OA C 0.3270(4) 0.3270(4) 0.0000
O3OA O 0.3892(3) 0.3892(3) 0.0000
O2OB O 0.3506(3) 0.2418(3) 0.0000
O2EC O 0.2582(3) 0.5000 -0.1494(3)
C2EC C 0.1730(4) 0.5000 -0.1730(4)
O3EC O 0.1108(3) 0.5000 -0.1108(3)
O2Y O 0.1494(3) 0.5000 -0.2582(3)
Mn1TA Mn -0.5000 0.2500 0.0000
O2IB O 0.2418(3) 0.6494(3) 0.0000
O3R O 0.3892(3) 0.6108(3) 0.0000
O2H O -0.1494(3) 0.7418(3) 0.5000
O2NC O 0.0000 0.7582(3) 0.6494(3)
O2BB O 0.1494(3) 0.7418(3) 0.5000
O3A O 0.1108(3) 0.8892(3) 0.5000
O3H O -0.1108(3) 0.8892(3) 0.5000
O3P O -0.0000 0.6108(3) 0.6108(3)
Mn1P Mn 0.0000 0.5000 -0.2500
Mn1R Mn -0.5000 0.7500 0.0000
Mn1U Mn -0.2500 0.0000 0.5000
Mn1P_2 Mn -0.0000 0.5000 0.7500
Mn1A Mn 0.2500 0.0000 0.5000
Mn1B Mn 0.5000 0.2500 0.0000
O2B O -0.5000 0.2582(3) -0.1494(3)
O2T O -0.6494(3) 0.2418(3) 0.0000
O2BC O -0.5000 0.2582(3) 0.1494(3)
O3B O -0.5000 0.1108(3) -0.1108(3)
O3D O -0.5000 0.1108(3) 0.1108(3)
O3T O -0.6108(3) 0.3892(3) 0.0000
N2 N 0.0000 0.0000 0.0000
C3 C -0.0000 -0.0000 0.108(7)
C3A C 0.108(7) 0.0000 0.0000
C3B C -0.0000 0.108(7) 0.0000
C3C C 0.0000 0.0000 -0.108(7)
C3H C 0.0000 -0.108(7) 0.0000
C3K C -0.108(7) 0.0000 0.0000
O1 O 0.0000 0.353(2) 0.0000
loop_
_geom_bond_atom_site_label_1
_geom_bond_atom_site_label_2
_geom_bond_site_symmetry_1
_geom_bond_site_symmetry_2
H1 N1 1_555 1_555
N1 C1 1_555 1_555
C1 N1CC 1_555 1_555
Mn1 O2 1_555 1_555
O2 C2 1_555 1_555
C2 O3 1_555 1_555
O3 Mn1 1_555 1_555
N2 C3 1_555 1_555
H1CB N1 1_555 1_555
N1CC H1CC 1_555 1_555
H1CA N1CC 1_555 1_555
N1FB C1 1_555 1_555
H1FB N1FB 1_555 1_555
H1EA N1FB 1_555 1_555
O2FB C2 1_555 1_555
O2O Mn1 1_555 1_555
C2O O2O 1_555 1_555
O3O Mn1 1_555 1_555
O2LC C2O 1_555 1_555
O2VB Mn1 1_555 1_555
C2VB O2VB 1_555 1_555
O3VB Mn1 1_555 1_555
O2I C2VB 1_555 1_555
O2MB Mn1 1_555 1_555
C2MB O2MB 1_555 1_555
O3MB Mn1 1_555 1_555
O2N C2MB 1_555 1_555
Mn1FB O3 1_555 1_555
Mn1LC O3O 1_555 1_555
Mn1I O3VB 1_555 1_555
Mn1N O3MB 1_555 1_555
O2JC Mn1FB 1_555 1_555
C2JC O2JC 1_555 1_555
O3JC Mn1FB 1_555 1_555
O2TA C2JC 1_555 1_555
O2K Mn1FB 1_555 1_555
C2K O2K 1_555 1_555
O3K Mn1FB 1_555 1_555
O2TB C2K 1_555 1_555
O2MA Mn1FB 1_555 1_555
C2MA O2MA 1_555 1_555
O3MA Mn1FB 1_555 1_555
O2PB C2MA 1_555 1_555
O2DC Mn1LC 1_555 1_555
C2DC O2DC 1_555 1_555
O3DC Mn1LC 1_555 1_555
O2BA C2DC 1_555 1_555
O2QA Mn1LC 1_555 1_555
C2QA O2QA 1_555 1_555
O3QA Mn1LC 1_555 1_555
O2OC C2QA 1_555 1_555
O2G Mn1LC 1_555 1_555
C2G O2G 1_555 1_555
O3G Mn1LC 1_555 1_555
O2YB C2G 1_555 1_555
O2OA Mn1I 1_555 1_555
C2OA O2OA 1_555 1_555
O3OA Mn1I 1_555 1_555
O2OB C2OA 1_555 1_555
O2EC Mn1I 1_555 1_555
C2EC O2EC 1_555 1_555
O3EC Mn1I 1_555 1_555
O2Y C2EC 1_555 1_555
Mn1TA O3JC 1_555 1_555
O2IB Mn1I 1_555 1_555
O3R Mn1I 1_555 1_555
O2H Mn1N 1_555 1_555
O2NC Mn1N 1_555 1_555
O2BB Mn1N 1_555 1_555
O3A Mn1N 1_555 1_555
O3H Mn1N 1_555 1_555
O3P Mn1N 1_555 1_555
Mn1P O3K 1_555 1_555
Mn1R O3MA 1_555 1_555
Mn1U O3DC 1_555 1_555
Mn1P_2 O3QA 1_555 1_555
Mn1A O3G 1_555 1_555
Mn1B O3OA 1_555 1_555
O2B Mn1TA 1_555 1_555
O2T Mn1TA 1_555 1_555
O2BC Mn1TA 1_555 1_555
O3B Mn1TA 1_555 1_555
O3D Mn1TA 1_555 1_555
O3T Mn1TA 1_555 1_555
C3A N2 1_555 1_555
C3B N2 1_555 1_555
C3C N2 1_555 1_555
C3H N2 1_555 1_555
C3K N2 1_555 1_555
O2FB Mn1FB 1_555 1_555
C2O O3O 1_555 1_555
O2LC Mn1LC 1_555 1_555
C2VB O3VB 1_555 1_555
O2I Mn1I 1_555 1_555
C2MB O3MB 1_555 1_555
O2N Mn1N 1_555 1_555
C2JC O3JC 1_555 1_555
O2TA Mn1TA 1_555 1_555
C2K O3K 1_555 1_555
O2TB Mn1P 1_555 1_555
C2MA O3MA 1_555 1_555
O2PB Mn1R 1_555 1_555
C2DC O3DC 1_555 1_555
O2BA Mn1U 1_555 1_555
C2QA O3QA 1_555 1_555
O2OC Mn1P_2 1_555 1_555
C2G O3G 1_555 1_555
O2YB Mn1A 1_555 1_555
C2OA O3OA 1_555 1_555
O2OB Mn1B 1_555 1_555
C2EC O3EC 1_555 1_555
O3EC Mn1P 1_555 1_555
O2Y Mn1P 1_555 1_555
O3P Mn1P_2 1_555 1_555

#END
