
#######################################################################
#
#                 Cambridge Crystallographic Data Centre
#                                CCDC 
#
#######################################################################
#
# If this CIF has been generated from an entry in the Cambridge 
# Structural Database, then it will include bibliographic, chemical, 
# crystal, experimental, refinement or atomic coordinate data resulting 
# from the CCDC's data processing and validation procedures.
#
#######################################################################

data_IWAYOU
_chemical_formula_moiety         'C49 H14 Co12 N7 Na1 O81 3+'
_symmetry_cell_setting           cubic
_symmetry_space_group_name_H-M   'F d -3 c'
_symmetry_Int_Tables_number      228
_space_group_name_Hall           '-F 4ud 2vw 3'
loop_
_symmetry_equiv_pos_site_id
_symmetry_equiv_pos_as_xyz
1 x,y,z
2 x,1/4-y,1/4-z
3 -y,1/4+x,3/4+z
4 3/4+y,1/4+x,-z
5 3/4+y,-x,1/4+z
6 y,z,x
7 y,1/4-z,1/4-x
8 -z,1/4+y,3/4+x
9 3/4+z,-y,1/4+x
10 3/4+z,1/4+y,-x
11 z,x,y
12 1/4-z,1/4-x,y
13 -x,1/4+z,3/4+y
14 1/4+x,-z,3/4+y
15 x,1/2+y,1/2+z
16 -y,3/4+x,1/4+z
17 y,1/2+z,1/2+x
18 -z,3/4+y,1/4+x
19 z,1/2+x,1/2+y
20 1/4-z,x,1/4-y
21 z,1/4-x,1/4-y
22 -x,3/4+z,1/4+y
23 1/4+x,1/2-z,1/4+y
24 3/4+x,1/4+z,-y
25 1/2+x,y,1/2+z
26 1/4-x,1/4-y,z
27 1/4-x,y,1/4-z
28 1/2-y,1/4+x,1/4+z
29 1/4+y,1/4+x,1/2-z
30 1/4+y,-x,3/4+z
31 1/2+y,z,1/2+x
32 1/4-y,1/4-z,x
33 1/4-y,z,1/4-x
34 1/2-z,1/4+y,1/4+x
35 1/4+z,-y,3/4+x
36 1/4+z,1/4+y,1/2-x
37 1/2+z,x,1/2+y
38 1/2-x,1/4+z,1/4+y
39 3/4+x,-z,1/4+y
40 1/4+x,3/4+z,-y
41 1/2+x,1/2+y,z
42 1/4+y,3/4+x,-z
43 1/4+y,1/2-x,1/4+z
44 1/2+y,1/2+z,x
45 1/4+z,1/2-y,1/4+x
46 1/4+z,3/4+y,-x
47 1/2+z,1/2+x,y
48 1/4+x,1/4+z,1/2-y
49 3/4-x,1/4-y,1/2+z
50 3/4-x,y,3/4-z
51 -y,-x,1/2-z
52 3/4-y,1/4-z,1/2+x
53 3/4-y,z,3/4-x
54 -z,-y,1/2-x
55 1/4-z,1/2+x,3/4-y
56 z,3/4-x,3/4-y
57 -x,1/2-z,-y
58 3/4+x,3/4+z,1/2-y
59 x,3/4-y,3/4-z
60 3/4-x,3/4-y,z
61 3/4-x,1/2+y,1/4-z
62 3/4+y,3/4+x,1/2-z
63 3/4+y,1/2-x,3/4+z
64 -y,1/2-x,-z
65 3/4-y,3/4-z,x
66 y,3/4-z,3/4-x
67 3/4-y,1/2+z,1/4-x
68 -z,1/2-y,-x
69 3/4+z,1/2-y,3/4+x
70 3/4+z,3/4+y,1/2-x
71 1/4-z,3/4-x,1/2+y
72 -x,-z,1/2-y
73 1/2+x,1/4-y,3/4-z
74 1/2-y,-x,-z
75 1/2+y,1/4-z,3/4-x
76 1/2-z,-y,-x
77 3/4-z,1/2+x,1/4-y
78 3/4-z,1/4-x,1/2+y
79 1/2+z,3/4-x,1/4-y
80 1/2-x,1/2-z,1/2-y
81 1/2+x,3/4-y,1/4-z
82 1/4-x,3/4-y,1/2+z
83 1/4-x,1/2+y,3/4-z
84 1/2-y,3/4+x,3/4+z
85 1/2-y,1/2-x,1/2-z
86 1/4-y,3/4-z,1/2+x
87 1/2+y,3/4-z,1/4-x
88 1/4-y,1/2+z,3/4-x
89 1/2-z,3/4+y,3/4+x
90 1/2-z,1/2-y,1/2-x
91 3/4-z,x,3/4-y
92 3/4-z,3/4-x,y
93 1/2+z,1/4-x,3/4-y
94 1/2-x,-z,-y
95 1/2-x,3/4+z,3/4+y
96 3/4+x,1/2-z,3/4+y
97 -x,-y,-z
98 -x,3/4+y,3/4+z
99 y,3/4-x,1/4-z
100 1/4-y,3/4-x,z
101 1/4-y,x,3/4-z
102 -y,-z,-x
103 -y,3/4+z,3/4+x
104 z,3/4-y,1/4-x
105 1/4-z,y,3/4-x
106 1/4-z,3/4-y,x
107 -z,-x,-y
108 3/4+z,3/4+x,-y
109 x,3/4-z,1/4-y
110 3/4-x,z,1/4-y
111 -x,1/2-y,1/2-z
112 y,1/4-x,3/4-z
113 -y,1/2-z,1/2-x
114 z,1/4-y,3/4-x
115 -z,1/2-x,1/2-y
116 3/4+z,-x,3/4+y
117 -z,3/4+x,3/4+y
118 x,1/4-z,3/4-y
119 3/4-x,1/2+z,3/4-y
120 1/4-x,3/4-z,y
121 1/2-x,-y,1/2-z
122 3/4+x,3/4+y,-z
123 3/4+x,-y,3/4+z
124 1/2+y,3/4-x,3/4-z
125 3/4-y,3/4-x,1/2+z
126 3/4-y,x,1/4-z
127 1/2-y,-z,1/2-x
128 3/4+y,3/4+z,-x
129 3/4+y,-z,3/4+x
130 1/2+z,3/4-y,3/4-x
131 3/4-z,y,1/4-x
132 3/4-z,3/4-y,1/2+x
133 1/2-z,-x,1/2-y
134 1/2+x,3/4-z,3/4-y
135 1/4-x,z,3/4-y
136 3/4-x,1/4-z,y
137 1/2-x,1/2-y,-z
138 3/4-y,1/4-x,z
139 3/4-y,1/2+x,3/4-z
140 1/2-y,1/2-z,-x
141 3/4-z,1/2+y,3/4-x
142 3/4-z,1/4-y,x
143 1/2-z,1/2-x,-y
144 3/4-x,3/4-z,1/2+y
145 1/4+x,3/4+y,1/2-z
146 1/4+x,-y,1/4+z
147 y,x,1/2+z
148 1/4+y,3/4+z,1/2-x
149 1/4+y,-z,1/4+x
150 z,y,1/2+x
151 3/4+z,1/2-x,1/4+y
152 -z,1/4+x,1/4+y
153 x,1/2+z,y
154 1/4-x,1/4-z,1/2+y
155 -x,1/4+y,1/4+z
156 1/4+x,1/4+y,-z
157 1/4+x,1/2-y,3/4+z
158 1/4-y,1/4-x,1/2+z
159 1/4-y,1/2+x,1/4-z
160 y,1/2+x,z
161 1/4+y,1/4+z,-x
162 -y,1/4+z,1/4+x
163 1/4+y,1/2-z,3/4+x
164 z,1/2+y,x
165 1/4-z,1/2+y,1/4-x
166 1/4-z,1/4-y,1/2+x
167 3/4+z,1/4+x,1/2-y
168 x,z,1/2+y
169 1/2-x,3/4+y,1/4+z
170 1/2+y,x,z
171 1/2-y,3/4+z,1/4+x
172 1/2+z,y,x
173 1/4+z,1/2-x,3/4+y
174 1/4+z,3/4+x,1/2-y
175 1/2-z,1/4+x,3/4+y
176 1/2+x,1/2+z,1/2+y
177 1/2-x,1/4+y,3/4+z
178 3/4+x,1/4+y,1/2-z
179 3/4+x,1/2-y,1/4+z
180 1/2+y,1/4-x,1/4-z
181 1/2+y,1/2+x,1/2+z
182 3/4+y,1/4+z,1/2-x
183 1/2-y,1/4+z,3/4+x
184 3/4+y,1/2-z,1/4+x
185 1/2+z,1/4-y,1/4-x
186 1/2+z,1/2+y,1/2+x
187 1/4+z,-x,1/4+y
188 1/4+z,1/4+x,-y
189 1/2-z,3/4+x,1/4+y
190 1/2+x,z,y
191 1/2+x,1/4-z,1/4-y
192 1/4-x,1/2+z,1/4-y
_cell_length_a                   28.9057(4)
_cell_length_b                   28.9057(4)
_cell_length_c                   28.9057(4)
_cell_angle_alpha                90
_cell_angle_beta                 90
_cell_angle_gamma                90
_cell_volume                     24151.9
loop_
_atom_site_label
_atom_site_type_symbol
_atom_site_fract_x
_atom_site_fract_y
_atom_site_fract_z
_atom_site_U_iso_or_equiv
_atom_site_thermal_displace_type
N2 N 0.8750 0.3750 0.3750 0.0510 Uani
C2 C 0.8651(12) 0.3845(12) 0.3228(10) 0.1170 Uiso
C2GB C 0.8849(12) 0.3655(12) 0.3228(10) 0.1170 Uiso
C2K C 0.9272(10) 0.3849(12) 0.3845(12) 0.1170 Uiso
C2BB C 0.9272(10) 0.3651(12) 0.3655(12) 0.1170 Uiso
C2DA C 0.8845(12) 0.3228(10) 0.3651(12) 0.1170 Uiso
C2FA C 0.8655(12) 0.3228(10) 0.3849(12) 0.1170 Uiso
C2TA C 0.8228(10) 0.3651(12) 0.3845(12) 0.1170 Uiso
C2NC C 0.8228(10) 0.3849(12) 0.3655(12) 0.1170 Uiso
C2WA C 0.8849(12) 0.3845(12) 0.4272(10) 0.1170 Uiso
C2FB C 0.8651(12) 0.3655(12) 0.4272(10) 0.1170 Uiso
C2GC C 0.8655(12) 0.4272(10) 0.3651(12) 0.1170 Uiso
C2HC C 0.8845(12) 0.4272(10) 0.3849(12) 0.1170 Uiso
O1 O 1.1250 0.2931(6) 0.1250 0.1003 Uani
Co1 Co 1.0000 0.376349(8) 0.126349(8) 0.0236 Uani
O2 O 0.99560(5) 0.30547(5) 0.12600(5) 0.0309 Uani
O3 O 0.95195(5) 0.24203(4) 0.12496(5) 0.0285 Uani
O4 O 0.91825(5) 0.30993(5) 0.12598(5) 0.0341 Uani
C3 C 0.95547(7) 0.28666(7) 0.12559(7) 0.0252 Uani
O2L O 1.00440(5) 0.37600(5) 0.05547(5) 0.0309 Uani
O3L O 1.04805(5) 0.37496(5) -0.00797(4) 0.0285 Uani
O4L O 1.08175(5) 0.37598(5) 0.05993(5) 0.0341 Uani
C3L C 1.04453(7) 0.37559(7) 0.03666(7) 0.0252 Uani
O2AG O 1.05547(5) 0.37400(5) 0.24560(5) 0.0309 Uani
O3AG O 0.99203(4) 0.37504(5) 0.20195(5) 0.0285 Uani
O4AG O 1.05993(5) 0.37402(5) 0.16825(5) 0.0341 Uani
C3AG C 1.03666(7) 0.37441(7) 0.20547(7) 0.0252 Uani
O2BF O 0.94453(5) 0.49560(5) 0.12400(5) 0.0309 Uani
O3BF O 1.00797(4) 0.45195(5) 0.12504(5) 0.0285 Uani
O4BF O 0.94007(5) 0.41825(5) 0.12402(5) 0.0341 Uani
C3BF C 0.96334(7) 0.45547(7) 0.12441(7) 0.0252 Uani
Co1AG Co 1.126349(8) 0.373651(8) 0.2500 0.0236 Uani
Co1BF Co 0.873651(8) 0.5000 0.123651(8) 0.0236 Uani
Co1JF Co 0.876349(8) 0.2500 0.123651(8) 0.0236 Uani
Co1AD Co 1.123651(8) 0.373651(8) 0.0000 0.0236 Uani
O2YC O 1.12600(5) 0.44453(5) 0.25440(5) 0.0309 Uani
O3YC O 1.12496(5) 0.50797(4) 0.29805(5) 0.0285 Uani
O4YC O 1.12598(5) 0.44007(5) 0.33175(5) 0.0341 Uani
C3YC C 1.12559(7) 0.46334(7) 0.29453(7) 0.0252 Uani
O2K O 1.12400(5) 0.25440(5) 0.30547(5) 0.0309 Uani
O3K O 1.12504(5) 0.29805(5) 0.24203(4) 0.0285 Uani
O4K O 1.12402(5) 0.33175(5) 0.30993(5) 0.0341 Uani
C3K C 1.12441(7) 0.29453(7) 0.28666(7) 0.0252 Uani
O2UA O 1.24560(5) 0.37600(5) 0.19453(5) 0.0309 Uani
O3UA O 1.20195(5) 0.37496(5) 0.25797(4) 0.0285 Uani
O4UA O 1.16825(5) 0.37598(5) 0.19007(5) 0.0341 Uani
C3UA C 1.20547(7) 0.37559(7) 0.21334(7) 0.0252 Uani
O2JD O 0.87400(5) 0.50440(5) 0.19453(5) 0.0309 Uani
O3JD O 0.87504(5) 0.54805(5) 0.25797(4) 0.0285 Uani
O4JD O 0.87402(5) 0.58175(5) 0.19007(5) 0.0341 Uani
C3JD C 0.87441(7) 0.54453(7) 0.21334(7) 0.0252 Uani
O2I O 0.87600(5) 0.55547(5) 0.00440(5) 0.0309 Uani
O3I O 0.87496(5) 0.49203(4) 0.04805(5) 0.0285 Uani
O4I O 0.87598(5) 0.55993(5) 0.08175(5) 0.0341 Uani
C3I C 0.87559(7) 0.53666(7) 0.04453(7) 0.0252 Uani
O2GB O 0.75440(5) 0.44453(5) 0.12600(5) 0.0309 Uani
O3GB O 0.79805(5) 0.50797(4) 0.12496(5) 0.0285 Uani
O4GB O 0.83175(5) 0.44007(5) 0.12598(5) 0.0341 Uani
C3GB C 0.79453(7) 0.46334(7) 0.12559(7) 0.0252 Uani
O2JF O 0.87600(5) 0.24560(5) 0.19453(5) 0.0309 Uani
O3JF O 0.87496(5) 0.20195(5) 0.25797(4) 0.0285 Uani
O4JF O 0.87598(5) 0.16825(5) 0.19007(5) 0.0341 Uani
C3JF C 0.87559(7) 0.20547(7) 0.21334(7) 0.0252 Uani
O2WF O 0.80547(5) 0.25440(5) 0.12400(5) 0.0309 Uani
O3WF O 0.74203(4) 0.29805(5) 0.12504(5) 0.0285 Uani
O4WF O 0.80993(5) 0.33175(5) 0.12402(5) 0.0341 Uani
C3WF C 0.78666(7) 0.29453(7) 0.12441(7) 0.0252 Uani
Co1K Co 1.123651(8) 0.2500 0.376349(8) 0.0236 Uani
O3OB O 0.87504(5) 0.25797(4) 0.04805(5) 0.0285 Uani
O4OB O 0.87402(5) 0.19007(5) 0.08175(5) 0.0341 Uani
O2AD O 1.12400(5) 0.44453(5) -0.00440(5) 0.0309 Uani
O2IE O 1.19453(5) 0.37400(5) 0.00440(5) 0.0309 Uani
O3T O 1.12496(5) 0.29805(5) 0.00797(4) 0.0285 Uani
O4T O 1.12598(5) 0.33175(5) -0.05993(5) 0.0341 Uani
Co1BB Co 1.123651(8) 0.5000 0.373651(8) 0.0236 Uani
Co1Z Co 1.2500 0.376349(8) 0.123651(8) 0.0236 Uani
Co1H Co 0.876349(8) 0.623651(8) 0.2500 0.0236 Uani
Co1I Co 0.876349(8) 0.626349(8) 0.0000 0.0236 Uani
Co1GB Co 0.7500 0.373651(8) 0.126349(8) 0.0236 Uani
Co1Q Co 0.873651(8) 0.126349(8) 0.2500 0.0236 Uani
O2AA O 1.19453(5) 0.24560(5) 0.37600(5) 0.0309 Uani
O3SE O 1.12496(5) 0.24203(4) 0.45195(5) 0.0285 Uani
O3FD O 1.04805(5) 0.25797(4) 0.37504(5) 0.0285 Uani
O4SE O 1.12598(5) 0.30993(5) 0.41825(5) 0.0341 Uani
O4FD O 1.08175(5) 0.19007(5) 0.37402(5) 0.0341 Uani
C3OB C 0.87441(7) 0.21334(7) 0.04453(7) 0.0252 Uani
C3AD C 1.12441(7) 0.46334(7) -0.04453(7) 0.0252 Uani
C3IE C 1.21334(7) 0.37441(7) 0.04453(7) 0.0252 Uani
C3T C 1.12559(7) 0.29453(7) -0.03666(7) 0.0252 Uani
O2BB O 1.12400(5) 0.49560(5) 0.44453(5) 0.0309 Uani
O2FC O 1.19453(5) 0.50440(5) 0.37400(5) 0.0309 Uani
O3XE O 1.04805(5) 0.49203(4) 0.37496(5) 0.0285 Uani
O4XE O 1.08175(5) 0.55993(5) 0.37598(5) 0.0341 Uani
O2Z O 1.25440(5) 0.30547(5) 0.12400(5) 0.0309 Uani
O3CF O 1.24203(4) 0.45195(5) 0.12496(5) 0.0285 Uani
O3IE O 1.25797(4) 0.37504(5) 0.04805(5) 0.0285 Uani
O4CF O 1.30993(5) 0.41825(5) 0.12598(5) 0.0341 Uani
O4IE O 1.19007(5) 0.37402(5) 0.08175(5) 0.0341 Uani
O2H O 0.87600(5) 0.69453(5) 0.24560(5) 0.0309 Uani
O2HC O 0.80547(5) 0.62400(5) 0.25440(5) 0.0309 Uani
O3VE O 0.95195(5) 0.62496(5) 0.24203(4) 0.0285 Uani
O4VE O 0.91825(5) 0.62598(5) 0.30993(5) 0.0341 Uani
O2QA O 0.80547(5) 0.62600(5) -0.00440(5) 0.0309 Uani
O3DD O 0.95195(5) 0.62504(5) 0.00797(4) 0.0285 Uani
O3LD O 0.87504(5) 0.70195(5) -0.00797(4) 0.0285 Uani
O4DD O 0.91825(5) 0.62402(5) -0.05993(5) 0.0341 Uani
O4LD O 0.87402(5) 0.66825(5) 0.05993(5) 0.0341 Uani
O2QC O 0.74560(5) 0.37400(5) 0.05547(5) 0.0309 Uani
O3EF O 0.75797(4) 0.37496(5) 0.20195(5) 0.0285 Uani
O4EF O 0.69007(5) 0.37598(5) 0.16825(5) 0.0341 Uani
O2Q O 0.87400(5) 0.05547(5) 0.24560(5) 0.0309 Uani
O2FA O 0.94453(5) 0.12600(5) 0.25440(5) 0.0309 Uani
O3EE O 0.79805(5) 0.12504(5) 0.24203(4) 0.0285 Uani
O4EE O 0.83175(5) 0.12402(5) 0.30993(5) 0.0341 Uani
C3AA C 1.21334(7) 0.20547(7) 0.37559(7) 0.0252 Uani
C3SE C 1.12559(7) 0.28666(7) 0.45547(7) 0.0252 Uani
C3FD C 1.04453(7) 0.21334(7) 0.37441(7) 0.0252 Uani
O2OB O 0.87400(5) 0.19453(5) 0.00440(5) 0.0309 Uani
O3AD O 1.12504(5) 0.50797(4) -0.04805(5) 0.0285 Uani
O4AD O 1.12402(5) 0.44007(5) -0.08175(5) 0.0341 Uani
O2T O 1.12600(5) 0.25440(5) -0.05547(5) 0.0309 Uani
C3BB C 1.12441(7) 0.45547(7) 0.46334(7) 0.0252 Uani
C3FC C 1.21334(7) 0.54453(7) 0.37441(7) 0.0252 Uani
C3XE C 1.04453(7) 0.53666(7) 0.37559(7) 0.0252 Uani
C3Z C 1.29453(7) 0.28666(7) 0.12441(7) 0.0252 Uani
C3CF C 1.28666(7) 0.45547(7) 0.12559(7) 0.0252 Uani
C3H C 0.87559(7) 0.71334(7) 0.20547(7) 0.0252 Uani
C3HC C 0.78666(7) 0.62441(7) 0.29453(7) 0.0252 Uani
C3VE C 0.95547(7) 0.62559(7) 0.28666(7) 0.0252 Uani
C3QA C 0.78666(7) 0.62559(7) -0.04453(7) 0.0252 Uani
C3DD C 0.95547(7) 0.62441(7) -0.03666(7) 0.0252 Uani
C3LD C 0.87441(7) 0.70547(7) 0.03666(7) 0.0252 Uani
C3QC C 0.70547(7) 0.37441(7) 0.03666(7) 0.0252 Uani
C3EF C 0.71334(7) 0.37559(7) 0.20547(7) 0.0252 Uani
C3Q C 0.87441(7) 0.03666(7) 0.20547(7) 0.0252 Uani
C3FA C 0.96334(7) 0.12559(7) 0.29453(7) 0.0252 Uani
C3EE C 0.79453(7) 0.12441(7) 0.28666(7) 0.0252 Uani
O3AA O 1.25797(4) 0.20195(5) 0.37496(5) 0.0285 Uani
O4AA O 1.19007(5) 0.16825(5) 0.37598(5) 0.0341 Uani
O2SE O 1.12600(5) 0.30547(5) 0.49560(5) 0.0309 Uani
O2FD O 1.00440(5) 0.19453(5) 0.37400(5) 0.0309 Uani
Na1 Na 1.1250 0.3750 0.1250 0.0395 Uani
N3 N 0.94578(7) 0.45019(7) 0.24586(7) 0.0382 Uani
H3 H 0.9558 0.4253 0.2330 0.0430 Uiso
H4 H 0.9219 0.4641 0.2348 0.0430 Uiso
C4 C 0.96722(8) 0.46722(8) 0.28278(8) 0.0314 Uani
N3HC N 0.95019(7) 0.50414(7) 0.30422(7) 0.0382 Uani
H3HC H 0.9253 0.5170 0.2942 0.0430 Uiso
H4HC H 0.9641 0.5152 0.3281 0.0430 Uiso
N3BB N 1.00414(7) 0.44578(7) 0.29981(7) 0.0382 Uani
H3BB H 1.0170 0.4558 0.3247 0.0430 Uiso
H4BB H 1.0152 0.4219 0.2859 0.0430 Uiso
N1 N 0.94572(7) 0.30001(7) 0.24577(7) 0.0378 Uani
H1 H 0.9559 0.3248 0.2328 0.0500 Uiso
H2 H 0.9218 0.2863 0.2347 0.0500 Uiso
C1 C 0.96707(8) 0.28293(8) 0.28293(8) 0.0321 Uani
N1FA N 0.94999(7) 0.24577(7) 0.30428(7) 0.0378 Uani
H1FA H 0.9252 0.2328 0.2941 0.0500 Uiso
H2FA H 0.9637 0.2347 0.3282 0.0500 Uiso
N1K N 1.00423(7) 0.30428(7) 0.30001(7) 0.0378 Uani
H1K H 1.0172 0.2941 0.3248 0.0500 Uiso
H2K H 1.0153 0.3282 0.2863 0.0500 Uiso
loop_
_atom_site_aniso_label
_atom_site_aniso_U_11
_atom_site_aniso_U_22
_atom_site_aniso_U_33
_atom_site_aniso_U_23
_atom_site_aniso_U_13
_atom_site_aniso_U_12
N2 0.051(2) 0.051(2) 0.051(2) 0.000 0.000 0.000
O1 0.097(9) 0.102(13) 0.102(10) 0.000 -0.004(6) 0.000
Co1 0.0211(2) 0.0249(2) 0.0249(2) -0.00043(19) -0.00055(8) 0.00055(8)
O2 0.0266 0.0281 0.0379 0.0006 -0.0003 -0.0027
O3 0.0311 0.022 0.0325 -0.0014 0 0.0002
O4 0.0267 0.0261 0.0494 0.0007 -0.0022 0.0026
C3 0.0272 0.0261 0.0222 -0.0005 -0.0012 0.0001
O2L 0.0266 0.0379 0.0281 0.0006 0.0027 0.0003
O3L 0.0311 0.0325 0.022 -0.0014 -0.0002 0
O4L 0.0267 0.0494 0.0261 0.0007 -0.0026 0.0022
C3L 0.0272 0.0222 0.0261 -0.0005 -0.0001 0.0012
O2AG 0.0281(7) 0.0379(8) 0.0266(7) 0.0003(6) -0.0027(5) -0.0006(6)
O3AG 0.0220(7) 0.0325(7) 0.0311(7) 0.0000(6) 0.0002(5) 0.0014(5)
O4AG 0.0261(7) 0.0494(9) 0.0267(8) 0.0022(6) 0.0026(5) -0.0007(7)
C3AG 0.0261(9) 0.0222(9) 0.0272(9) 0.0012(8) 0.0001(8) 0.0005(8)
O2BF 0.0281 0.0266 0.0379 0.0003 0.0006 0.0027
O3BF 0.022 0.0311 0.0325 0 -0.0014 -0.0002
O4BF 0.0261 0.0267 0.0494 0.0022 0.0007 -0.0026
C3BF 0.0261 0.0272 0.0222 0.0012 -0.0005 -0.0001
Co1AG 0.0249 0.0249 0.0211 0.00055 0.00055 0.00043
Co1BF 0.0249 0.0211 0.0249 0.00055 -0.00043 -0.00055
Co1JF 0.0249 0.0211 0.0249 -0.00055 0.00043 -0.00055
Co1AD 0.0249 0.0249 0.0211 -0.00055 0.00055 -0.00043
O2YC 0.0379 0.0281 0.0266 -0.0027 0.0003 -0.0006
O3YC 0.0325 0.022 0.0311 0.0002 0 0.0014
O4YC 0.0494 0.0261 0.0267 0.0026 0.0022 -0.0007
C3YC 0.0222 0.0261 0.0272 0.0001 0.0012 0.0005
O2K 0.0379 0.0266 0.0281 0.0027 -0.0006 -0.0003
O3K 0.0325 0.0311 0.022 -0.0002 0.0014 0
O4K 0.0494 0.0267 0.0261 -0.0026 -0.0007 -0.0022
C3K 0.0222 0.0272 0.0261 -0.0001 0.0005 -0.0012
O2UA 0.0266 0.0379 0.0281 -0.0006 0.0027 -0.0003
O3UA 0.0311 0.0325 0.022 0.0014 -0.0002 0
O4UA 0.0267 0.0494 0.0261 -0.0007 -0.0026 -0.0022
C3UA 0.0272 0.0222 0.0261 0.0005 -0.0001 -0.0012
O2JD 0.0379 0.0266 0.0281 -0.0027 0.0006 -0.0003
O3JD 0.0325 0.0311 0.022 0.0002 -0.0014 0
O4JD 0.0494 0.0267 0.0261 0.0026 0.0007 -0.0022
C3JD 0.0222 0.0272 0.0261 0.0001 -0.0005 -0.0012
O2I 0.0379 0.0281 0.0266 0.0027 0.0003 0.0006
O3I 0.0325 0.022 0.0311 -0.0002 0 -0.0014
O4I 0.0494 0.0261 0.0267 -0.0026 0.0022 0.0007
C3I 0.0222 0.0261 0.0272 -0.0001 0.0012 -0.0005
O2GB 0.0266 0.0281 0.0379 -0.0006 0.0003 -0.0027
O3GB 0.0311 0.022 0.0325 0.0014 0 0.0002
O4GB 0.0267 0.0261 0.0494 -0.0007 0.0022 0.0026
C3GB 0.0272 0.0261 0.0222 0.0005 0.0012 0.0001
O2JF 0.0379 0.0266 0.0281 0.0027 -0.0006 -0.0003
O3JF 0.0325 0.0311 0.022 -0.0002 0.0014 0
O4JF 0.0494 0.0267 0.0261 -0.0026 -0.0007 -0.0022
C3JF 0.0222 0.0272 0.0261 -0.0001 0.0005 -0.0012
O2WF 0.0281 0.0266 0.0379 -0.0003 -0.0006 0.0027
O3WF 0.022 0.0311 0.0325 0 0.0014 -0.0002
O4WF 0.0261 0.0267 0.0494 -0.0022 -0.0007 -0.0026
C3WF 0.0261 0.0272 0.0222 -0.0012 0.0005 -0.0001
Co1K 0.0249 0.0211 0.0249 -0.00055 0.00043 -0.00055
O3OB 0.0325 0.022 0.0311 0.0002 0 -0.0014
O4OB 0.0494 0.0261 0.0267 0.0026 -0.0022 0.0007
O2AD 0.0379 0.0281 0.0266 0.0027 0.0003 0.0006
O2IE 0.0281 0.0379 0.0266 -0.0003 -0.0027 0.0006
O3T 0.0325 0.0311 0.022 0.0002 0.0014 0
O4T 0.0494 0.0267 0.0261 0.0026 -0.0007 0.0022
Co1BB 0.0249 0.0211 0.0249 -0.00055 -0.00043 0.00055
Co1Z 0.0211 0.0249 0.0249 0.00043 -0.00055 -0.00055
Co1H 0.0249 0.0249 0.0211 -0.00055 -0.00055 0.00043
Co1I 0.0249 0.0249 0.0211 -0.00055 0.00055 -0.00043
Co1GB 0.0211 0.0249 0.0249 0.00043 0.00055 0.00055
Co1Q 0.0249 0.0249 0.0211 0.00055 0.00055 0.00043
O2AA 0.0281 0.0266 0.0379 -0.0003 -0.0006 0.0027
O3SE 0.0325 0.022 0.0311 0.0002 0 -0.0014
O3FD 0.0311 0.022 0.0325 -0.0014 0 0.0002
O4SE 0.0494 0.0261 0.0267 0.0026 -0.0022 0.0007
O4FD 0.0267 0.0261 0.0494 0.0007 -0.0022 0.0026
C3OB 0.0222 0.0261 0.0272 0.0001 -0.0012 -0.0005
C3AD 0.0222 0.0261 0.0272 -0.0001 0.0012 -0.0005
C3IE 0.0261 0.0222 0.0272 -0.0012 0.0001 -0.0005
C3T 0.0222 0.0272 0.0261 0.0001 0.0005 0.0012
O2BB 0.0379 0.0266 0.0281 0.0027 0.0006 0.0003
O2FC 0.0281 0.0266 0.0379 -0.0003 0.0006 -0.0027
O3XE 0.0311 0.022 0.0325 -0.0014 0 -0.0002
O4XE 0.0267 0.0261 0.0494 0.0007 0.0022 -0.0026
O2Z 0.0266 0.0281 0.0379 -0.0006 -0.0003 0.0027
O3CF 0.022 0.0311 0.0325 0 -0.0014 0.0002
O3IE 0.022 0.0325 0.0311 0 0.0002 -0.0014
O4CF 0.0261 0.0267 0.0494 -0.0022 0.0007 0.0026
O4IE 0.0261 0.0494 0.0267 -0.0022 0.0026 0.0007
O2H 0.0379 0.0281 0.0266 0.0027 -0.0003 -0.0006
O2HC 0.0281 0.0379 0.0266 -0.0003 0.0027 -0.0006
O3VE 0.0311 0.0325 0.022 -0.0014 0.0002 0
O4VE 0.0267 0.0494 0.0261 0.0007 0.0026 -0.0022
O2QA 0.0281 0.0379 0.0266 -0.0003 -0.0027 0.0006
O3DD 0.0311 0.0325 0.022 -0.0014 -0.0002 0
O3LD 0.0325 0.0311 0.022 0.0002 0.0014 0
O4DD 0.0267 0.0494 0.0261 0.0007 -0.0026 0.0022
O4LD 0.0494 0.0267 0.0261 0.0026 -0.0007 0.0022
O2QC 0.0266 0.0379 0.0281 -0.0006 -0.0027 0.0003
O3EF 0.022 0.0325 0.0311 0 -0.0002 0.0014
O4EF 0.0261 0.0494 0.0267 -0.0022 -0.0026 -0.0007
O2Q 0.0379 0.0281 0.0266 -0.0027 0.0003 -0.0006
O2FA 0.0281 0.0379 0.0266 0.0003 -0.0027 -0.0006
O3EE 0.0311 0.0325 0.022 0.0014 -0.0002 0
O4EE 0.0267 0.0494 0.0261 -0.0007 -0.0026 -0.0022
C3AA 0.0261 0.0272 0.0222 -0.0012 0.0005 -0.0001
C3SE 0.0222 0.0261 0.0272 0.0001 -0.0012 -0.0005
C3FD 0.0272 0.0261 0.0222 -0.0005 -0.0012 0.0001
O2OB 0.0379 0.0281 0.0266 -0.0027 -0.0003 0.0006
O3AD 0.0325 0.022 0.0311 -0.0002 0 -0.0014
O4AD 0.0494 0.0261 0.0267 -0.0026 0.0022 0.0007
O2T 0.0379 0.0266 0.0281 -0.0027 -0.0006 0.0003
C3BB 0.0222 0.0272 0.0261 -0.0001 -0.0005 0.0012
C3FC 0.0261 0.0272 0.0222 -0.0012 -0.0005 0.0001
C3XE 0.0272 0.0261 0.0222 -0.0005 0.0012 -0.0001
C3Z 0.0272 0.0261 0.0222 0.0005 -0.0012 -0.0001
C3CF 0.0261 0.0272 0.0222 -0.0012 -0.0005 0.0001
C3H 0.0222 0.0261 0.0272 -0.0001 -0.0012 0.0005
C3HC 0.0261 0.0222 0.0272 -0.0012 -0.0001 0.0005
C3VE 0.0272 0.0222 0.0261 -0.0005 0.0001 -0.0012
C3QA 0.0261 0.0222 0.0272 -0.0012 0.0001 -0.0005
C3DD 0.0272 0.0222 0.0261 -0.0005 -0.0001 0.0012
C3LD 0.0222 0.0272 0.0261 0.0001 0.0005 0.0012
C3QC 0.0272 0.0222 0.0261 0.0005 0.0001 0.0012
C3EF 0.0261 0.0222 0.0272 -0.0012 -0.0001 0.0005
C3Q 0.0222 0.0261 0.0272 0.0001 0.0012 0.0005
C3FA 0.0261 0.0222 0.0272 0.0012 0.0001 0.0005
C3EE 0.0272 0.0222 0.0261 0.0005 -0.0001 -0.0012
O3AA 0.022 0.0311 0.0325 0 0.0014 -0.0002
O4AA 0.0261 0.0267 0.0494 -0.0022 -0.0007 -0.0026
O2SE 0.0379 0.0281 0.0266 -0.0027 -0.0003 0.0006
O2FD 0.0266 0.0281 0.0379 0.0006 -0.0003 -0.0027
Na1 0.0244(6) 0.0697(15) 0.0244(6) 0.000 0.000 0.000
N3 0.0397(10) 0.0370(10) 0.0378(11) -0.0076(8) -0.0091(8) 0.0070(9)
C4 0.0314(9) 0.0314(9) 0.0314(9) 0.0006(11) 0.0006(11) -0.0006(11)
N3HC 0.037 0.0378 0.0397 -0.0091 -0.007 0.0076
N3BB 0.0378 0.0397 0.037 -0.007 -0.0076 0.0091
N1 0.0384(10) 0.0377(10) 0.0374(11) 0.0076(8) -0.0092(8) -0.0063(9)
C1 0.0321(9) 0.0321(9) 0.0321(9) -0.0008(11) 0.0008(11) 0.0008(11)
N1FA 0.0377 0.0374 0.0384 0.0092 -0.0063 -0.0076
N1K 0.0374 0.0384 0.0377 0.0063 -0.0076 -0.0092
loop_
_geom_bond_atom_site_label_1
_geom_bond_atom_site_label_2
_geom_bond_site_symmetry_1
_geom_bond_site_symmetry_2
N1 H1 1_555 1_555
H2 N1 1_555 1_555
C1 N1 1_555 1_555
N2 C2 1_555 1_555
C2 C2GB 1_555 1_555
Co1 O2 1_555 1_555
O2 C3 1_555 1_555
O3 C3 1_555 1_555
O4 C3 1_555 1_555
N3 H3 1_555 1_555
H4 N3 1_555 1_555
C4 N3 1_555 1_555
N1FA C1 1_555 1_555
H1FA N1FA 1_555 1_555
H2FA N1FA 1_555 1_555
N1K C1 1_555 1_555
H1K N1K 1_555 1_555
H2K N1K 1_555 1_555
C2GB N2 1_555 1_555
C2K N2 1_555 1_555
C2BB N2 1_555 1_555
C2DA N2 1_555 1_555
C2FA N2 1_555 1_555
C2TA N2 1_555 1_555
C2NC N2 1_555 1_555
C2WA N2 1_555 1_555
C2FB N2 1_555 1_555
C2GC N2 1_555 1_555
C2HC N2 1_555 1_555
O2L Co1 1_555 1_555
O3L C3L 1_555 1_555
O4L C3L 1_555 1_555
C3L O2L 1_555 1_555
O2AG C3AG 1_555 1_555
O3AG Co1 1_555 1_555
O4AG Co1 1_555 1_555
C3AG O3AG 1_555 1_555
O2BF C3BF 1_555 1_555
O3BF Co1 1_555 1_555
O4BF Co1 1_555 1_555
C3BF O3BF 1_555 1_555
Co1AG O2AG 1_555 1_555
Co1BF O2BF 1_555 1_555
Co1JF O3 1_555 1_555
Co1AD O3L 1_555 1_555
O2YC Co1AG 1_555 1_555
O3YC C3YC 1_555 1_555
O4YC C3YC 1_555 1_555
C3YC O2YC 1_555 1_555
O2K C3K 1_555 1_555
O3K Co1AG 1_555 1_555
O4K Co1AG 1_555 1_555
C3K O3K 1_555 1_555
O2UA C3UA 1_555 1_555
O3UA Co1AG 1_555 1_555
O4UA Co1AG 1_555 1_555
C3UA O3UA 1_555 1_555
O2JD Co1BF 1_555 1_555
O3JD C3JD 1_555 1_555
O4JD C3JD 1_555 1_555
C3JD O2JD 1_555 1_555
O2I C3I 1_555 1_555
O3I Co1BF 1_555 1_555
O4I Co1BF 1_555 1_555
C3I O3I 1_555 1_555
O2GB C3GB 1_555 1_555
O3GB Co1BF 1_555 1_555
O4GB Co1BF 1_555 1_555
C3GB O3GB 1_555 1_555
O2JF Co1JF 1_555 1_555
O3JF C3JF 1_555 1_555
O4JF C3JF 1_555 1_555
C3JF O2JF 1_555 1_555
O2WF Co1JF 1_555 1_555
O3WF C3WF 1_555 1_555
O4WF C3WF 1_555 1_555
C3WF O2WF 1_555 1_555
Co1K O2K 1_555 1_555
O3OB Co1JF 1_555 1_555
O4OB Co1JF 1_555 1_555
O2AD Co1AD 1_555 1_555
O2IE Co1AD 1_555 1_555
O3T Co1AD 1_555 1_555
O4T Co1AD 1_555 1_555
Co1BB O3YC 1_555 1_555
Co1Z O2UA 1_555 1_555
Co1H O3JD 1_555 1_555
Co1I O2I 1_555 1_555
Co1GB O2GB 1_555 1_555
Co1Q O3JF 1_555 1_555
O2AA Co1K 1_555 1_555
O3SE Co1K 1_555 1_555
O3FD Co1K 1_555 1_555
O4SE Co1K 1_555 1_555
O4FD Co1K 1_555 1_555
C3OB O3OB 1_555 1_555
C3AD O2AD 1_555 1_555
C3IE O2IE 1_555 1_555
C3T O3T 1_555 1_555
O2BB Co1BB 1_555 1_555
O2FC Co1BB 1_555 1_555
O3XE Co1BB 1_555 1_555
O4XE Co1BB 1_555 1_555
O2Z Co1Z 1_555 1_555
O3CF Co1Z 1_555 1_555
O3IE Co1Z 1_555 1_555
O4CF Co1Z 1_555 1_555
O4IE Co1Z 1_555 1_555
O2H Co1H 1_555 1_555
O2HC Co1H 1_555 1_555
O3VE Co1H 1_555 1_555
O4VE Co1H 1_555 1_555
O2QA Co1I 1_555 1_555
O3DD Co1I 1_555 1_555
O3LD Co1I 1_555 1_555
O4DD Co1I 1_555 1_555
O4LD Co1I 1_555 1_555
O2QC Co1GB 1_555 1_555
O3EF Co1GB 1_555 1_555
O4EF Co1GB 1_555 1_555
O2Q Co1Q 1_555 1_555
O2FA Co1Q 1_555 1_555
O3EE Co1Q 1_555 1_555
O4EE Co1Q 1_555 1_555
C3AA O2AA 1_555 1_555
C3SE O3SE 1_555 1_555
C3FD O3FD 1_555 1_555
O2OB C3OB 1_555 1_555
O3AD C3AD 1_555 1_555
O4AD C3AD 1_555 1_555
O2T C3T 1_555 1_555
C3BB O2BB 1_555 1_555
C3FC O2FC 1_555 1_555
C3XE O3XE 1_555 1_555
C3Z O2Z 1_555 1_555
C3CF O3CF 1_555 1_555
C3H O2H 1_555 1_555
C3HC O2HC 1_555 1_555
C3VE O3VE 1_555 1_555
C3QA O2QA 1_555 1_555
C3DD O3DD 1_555 1_555
C3LD O3LD 1_555 1_555
C3QC O2QC 1_555 1_555
C3EF O3EF 1_555 1_555
C3Q O2Q 1_555 1_555
C3FA O2FA 1_555 1_555
C3EE O3EE 1_555 1_555
O3AA C3AA 1_555 1_555
O4AA C3AA 1_555 1_555
O2SE C3SE 1_555 1_555
O2FD C3FD 1_555 1_555
N3HC C4 1_555 1_555
H3HC N3HC 1_555 1_555
H4HC N3HC 1_555 1_555
N3BB C4 1_555 1_555
H3BB N3BB 1_555 1_555
H4BB N3BB 1_555 1_555
C2 C2NC 1_555 1_555
C2 C2GC 1_555 1_555
O4 Co1JF 1_555 1_555
C2GB C2BB 1_555 1_555
C2GB C2DA 1_555 1_555
C2K C2BB 1_555 1_555
C2K C2WA 1_555 1_555
C2K C2HC 1_555 1_555
C2BB C2DA 1_555 1_555
C2DA C2FA 1_555 1_555
C2FA C2TA 1_555 1_555
C2FA C2FB 1_555 1_555
C2TA C2NC 1_555 1_555
C2TA C2FB 1_555 1_555
C2NC C2GC 1_555 1_555
C2WA C2FB 1_555 1_555
C2WA C2HC 1_555 1_555
C2GC C2HC 1_555 1_555
O4L Co1AD 1_555 1_555
O4AG C3AG 1_555 1_555
O4BF C3BF 1_555 1_555
O4YC Co1BB 1_555 1_555
O4K C3K 1_555 1_555
O4UA C3UA 1_555 1_555
O4JD Co1H 1_555 1_555
O4I C3I 1_555 1_555
O4GB C3GB 1_555 1_555
O4JF Co1Q 1_555 1_555
O3WF Co1GB 1_555 1_555
O4WF Co1GB 1_555 1_555
O4OB C3OB 1_555 1_555
O4T C3T 1_555 1_555
O4SE C3SE 1_555 1_555
O4FD C3FD 1_555 1_555
C3IE O3IE 1_555 1_555
C3IE O4IE 1_555 1_555
O4XE C3XE 1_555 1_555
O4CF C3CF 1_555 1_555
O4VE C3VE 1_555 1_555
O4DD C3DD 1_555 1_555
O4LD C3LD 1_555 1_555
O4EF C3EF 1_555 1_555
O4EE C3EE 1_555 1_555

#END
