
#######################################################################
#
#                 Cambridge Crystallographic Data Centre
#                                CCDC 
#
#######################################################################
#
# If this CIF has been generated from an entry in the Cambridge 
# Structural Database, then it will include bibliographic, chemical, 
# crystal, experimental, refinement or atomic coordinate data resulting 
# from the CCDC's data processing and validation procedures.
#
#######################################################################

data_IWAZEL
_chemical_formula_moiety         'C33 H14 N7 Na1 O73 Zn12 3+'
_symmetry_cell_setting           cubic
_symmetry_space_group_name_H-M   'F d -3 c'
_symmetry_Int_Tables_number      228
_space_group_name_Hall           '-F 4ud 2vw 3'
loop_
_symmetry_equiv_pos_site_id
_symmetry_equiv_pos_as_xyz
1 x,y,z
2 z,x,y
3 y,z,x
4 3/4+y,1/4+x,-z
5 1/4+y,-x,3/4+z
6 -y,3/4+x,1/4+z
7 3/4+x,1/4+z,-y
8 -x,3/4+z,1/4+y
9 1/4+x,-z,3/4+y
10 3/4+z,1/4+y,-x
11 1/4+z,-y,3/4+x
12 -z,3/4+y,1/4+x
13 x,1/2+y,1/2+z
14 1/4-x,1/4-y,z
15 z,1/2+x,1/2+y
16 1/4-z,1/4-x,y
17 y,1/2+z,1/2+x
18 1/4-y,1/4-z,x
19 1/4+y,1/2-x,1/4+z
20 -y,1/4+x,3/4+z
21 -x,1/4+z,3/4+y
22 1/4+x,1/2-z,1/4+y
23 1/4+z,1/2-y,1/4+x
24 -z,1/4+y,3/4+x
25 1/2+x,y,1/2+z
26 x,1/4-y,1/4-z
27 1/2+z,x,1/2+y
28 z,1/4-x,1/4-y
29 1/2+y,z,1/2+x
30 y,1/4-z,1/4-x
31 1/4+y,1/4+x,1/2-z
32 3/4+y,-x,1/4+z
33 1/4+x,1/4+z,1/2-y
34 3/4+x,-z,1/4+y
35 1/4+z,1/4+y,1/2-x
36 3/4+z,-y,1/4+x
37 1/2+x,1/2+y,z
38 1/4-x,y,1/4-z
39 1/2+z,1/2+x,y
40 1/4-z,x,1/4-y
41 1/2+y,1/2+z,x
42 1/4-y,z,1/4-x
43 1/4+y,3/4+x,-z
44 1/2-y,1/4+x,1/4+z
45 1/4+x,3/4+z,-y
46 1/2-x,1/4+z,1/4+y
47 1/4+z,3/4+y,-x
48 1/2-z,1/4+y,1/4+x
49 1/4-x,3/4-y,1/2+z
50 3/4-x,1/2+y,1/4-z
51 1/2+x,1/4-y,3/4-z
52 1/2+z,1/4-x,3/4-y
53 1/4-z,3/4-x,1/2+y
54 3/4-z,1/2+x,1/4-y
55 3/4-y,1/2+z,1/4-x
56 1/2+y,1/4-z,3/4-x
57 1/4-y,3/4-z,1/2+x
58 1/2-y,1/2-x,1/2-z
59 1/2-x,1/2-z,1/2-y
60 1/2-z,1/2-y,1/2-x
61 3/4-x,y,3/4-z
62 1/2+x,3/4-y,1/4-z
63 1/2+z,3/4-x,1/4-y
64 3/4-z,x,3/4-y
65 3/4-y,z,3/4-x
66 1/2+y,3/4-z,1/4-x
67 3/4+y,3/4+x,1/2-z
68 1/2-y,-x,-z
69 3/4+x,3/4+z,1/2-y
70 1/2-x,-z,-y
71 3/4+z,3/4+y,1/2-x
72 1/2-z,-y,-x
73 3/4-x,3/4-y,z
74 1/4-x,1/2+y,3/4-z
75 3/4-z,3/4-x,y
76 1/4-z,1/2+x,3/4-y
77 1/4-y,1/2+z,3/4-x
78 3/4-y,3/4-z,x
79 -y,1/2-x,-z
80 1/2-y,3/4+x,3/4+z
81 1/2-x,3/4+z,3/4+y
82 -x,1/2-z,-y
83 1/2-z,3/4+y,3/4+x
84 -z,1/2-y,-x
85 3/4-x,1/4-y,1/2+z
86 x,3/4-y,3/4-z
87 z,3/4-x,3/4-y
88 3/4-z,1/4-x,1/2+y
89 y,3/4-z,3/4-x
90 3/4-y,1/4-z,1/2+x
91 -y,-x,1/2-z
92 3/4+y,1/2-x,3/4+z
93 -x,-z,1/2-y
94 3/4+x,1/2-z,3/4+y
95 3/4+z,1/2-y,3/4+x
96 -z,-y,1/2-x
97 -x,-y,-z
98 -z,-x,-y
99 -y,-z,-x
100 1/4-y,3/4-x,z
101 3/4-y,x,1/4-z
102 y,1/4-x,3/4-z
103 1/4-x,3/4-z,y
104 x,1/4-z,3/4-y
105 3/4-x,z,1/4-y
106 1/4-z,3/4-y,x
107 3/4-z,y,1/4-x
108 z,1/4-y,3/4-x
109 -x,1/2-y,1/2-z
110 3/4+x,3/4+y,-z
111 -z,1/2-x,1/2-y
112 3/4+z,3/4+x,-y
113 -y,1/2-z,1/2-x
114 3/4+y,3/4+z,-x
115 3/4-y,1/2+x,3/4-z
116 y,3/4-x,1/4-z
117 x,3/4-z,1/4-y
118 3/4-x,1/2+z,3/4-y
119 3/4-z,1/2+y,3/4-x
120 z,3/4-y,1/4-x
121 1/2-x,-y,1/2-z
122 -x,3/4+y,3/4+z
123 1/2-z,-x,1/2-y
124 -z,3/4+x,3/4+y
125 1/2-y,-z,1/2-x
126 -y,3/4+z,3/4+x
127 3/4-y,3/4-x,1/2+z
128 1/4-y,x,3/4-z
129 3/4-x,3/4-z,1/2+y
130 1/4-x,z,3/4-y
131 3/4-z,3/4-y,1/2+x
132 1/4-z,y,3/4-x
133 1/2-x,1/2-y,-z
134 3/4+x,-y,3/4+z
135 1/2-z,1/2-x,-y
136 3/4+z,-x,3/4+y
137 1/2-y,1/2-z,-x
138 3/4+y,-z,3/4+x
139 3/4-y,1/4-x,z
140 1/2+y,3/4-x,3/4-z
141 3/4-x,1/4-z,y
142 1/2+x,3/4-z,3/4-y
143 3/4-z,1/4-y,x
144 1/2+z,3/4-y,3/4-x
145 3/4+x,1/4+y,1/2-z
146 1/4+x,1/2-y,3/4+z
147 1/2-x,3/4+y,1/4+z
148 1/2-z,3/4+x,1/4+y
149 3/4+z,1/4+x,1/2-y
150 1/4+z,1/2-x,3/4+y
151 1/4+y,1/2-z,3/4+x
152 1/2-y,3/4+z,1/4+x
153 3/4+y,1/4+z,1/2-x
154 1/2+y,1/2+x,1/2+z
155 1/2+x,1/2+z,1/2+y
156 1/2+z,1/2+y,1/2+x
157 1/4+x,-y,1/4+z
158 1/2-x,1/4+y,3/4+z
159 1/2-z,1/4+x,3/4+y
160 1/4+z,-x,1/4+y
161 1/4+y,-z,1/4+x
162 1/2-y,1/4+z,3/4+x
163 1/4-y,1/4-x,1/2+z
164 1/2+y,x,z
165 1/4-x,1/4-z,1/2+y
166 1/2+x,z,y
167 1/4-z,1/4-y,1/2+x
168 1/2+z,y,x
169 1/4+x,1/4+y,-z
170 3/4+x,1/2-y,1/4+z
171 1/4+z,1/4+x,-y
172 3/4+z,1/2-x,1/4+y
173 3/4+y,1/2-z,1/4+x
174 1/4+y,1/4+z,-x
175 y,1/2+x,z
176 1/2+y,1/4-x,1/4-z
177 1/2+x,1/4-z,1/4-y
178 x,1/2+z,y
179 1/2+z,1/4-y,1/4-x
180 z,1/2+y,x
181 1/4+x,3/4+y,1/2-z
182 -x,1/4+y,1/4+z
183 -z,1/4+x,1/4+y
184 1/4+z,3/4+x,1/2-y
185 -y,1/4+z,1/4+x
186 1/4+y,3/4+z,1/2-x
187 y,x,1/2+z
188 1/4-y,1/2+x,1/4-z
189 x,z,1/2+y
190 1/4-x,1/2+z,1/4-y
191 1/4-z,1/2+y,1/4-x
192 z,y,1/2+x
_cell_length_a                   28.9736(12)
_cell_length_b                   28.9736(12)
_cell_length_c                   28.9736(12)
_cell_angle_alpha                90
_cell_angle_beta                 90
_cell_angle_gamma                90
_cell_volume                     24322.5
loop_
_atom_site_label
_atom_site_type_symbol
_atom_site_fract_x
_atom_site_fract_y
_atom_site_fract_z
_atom_site_U_iso_or_equiv
_atom_site_thermal_displace_type
N2 N -0.1250 0.3750 0.3750 0.0560 Uani
C2 C -0.136(3) 0.395(4) 0.331(2) 0.1600 Uiso
C2YA C -0.169(2) 0.386(3) 0.355(4) 0.1600 Uiso
C2O C -0.081(2) 0.386(3) 0.395(4) 0.1600 Uiso
C2MB C -0.105(4) 0.419(2) 0.386(3) 0.1600 Uiso
C2BA C -0.105(4) 0.331(2) 0.364(3) 0.1600 Uiso
C2TB C -0.114(3) 0.355(4) 0.331(2) 0.1600 Uiso
C2LA C -0.169(2) 0.364(3) 0.395(4) 0.1600 Uiso
C2OA C -0.145(4) 0.331(2) 0.386(3) 0.1600 Uiso
C2DB C -0.145(4) 0.419(2) 0.364(3) 0.1600 Uiso
C2WB C -0.081(2) 0.364(3) 0.355(4) 0.1600 Uiso
C2HB C -0.114(3) 0.395(4) 0.419(2) 0.1600 Uiso
C2GC C -0.136(3) 0.355(4) 0.419(2) 0.1600 Uiso
O1 O 0.1250 0.2924(6) 0.1250 0.0680 Uani
Zn1 Zn -0.0000 0.374718(12) 0.124718(12) 0.0259 Uani
O2 O -0.00521(8) 0.30507(10) 0.12512(7) 0.0318 Uani
O3 O -0.04794(7) 0.24119(10) 0.12490(8) 0.0310 Uani
O4 O -0.08241(8) 0.30885(9) 0.12763(8) 0.0337 Uani
C3 C -0.04510(10) 0.28570(19) 0.12587(11) 0.0266 Uani
O2T O 0.00521(8) 0.37512(7) 0.05507(10) 0.0318 Uani
O3T O 0.04794(7) 0.37490(8) -0.00881(10) 0.0310 Uani
O4T O 0.08241(8) 0.37763(8) 0.05885(9) 0.0337 Uani
C3T C 0.04510(10) 0.37587(11) 0.03570(19) 0.0266 Uani
O2PF O 0.05507(10) 0.37488(7) 0.24479(8) 0.0318 Uani
O3PF O -0.00881(10) 0.37510(8) 0.20206(7) 0.0310 Uani
O4PF O 0.05885(9) 0.37237(8) 0.16759(8) 0.0337 Uani
C3PF C 0.03570(19) 0.37413(11) 0.20490(10) 0.0266 Uani
O2EG O -0.05507(10) 0.49479(8) 0.12488(7) 0.0318 Uani
O3EG O 0.00881(10) 0.45206(7) 0.12510(8) 0.0310 Uani
O4EG O -0.05885(9) 0.41759(8) 0.12237(8) 0.0337 Uani
C3EG C -0.03570(19) 0.45490(10) 0.12413(11) 0.0266 Uani
Zn1PF Zn 0.124718(12) 0.375282(12) 0.2500 0.0259 Uani
Zn1EG Zn -0.124718(12) 0.5000 0.125282(12) 0.0259 Uani
Zn1RE Zn -0.125282(12) 0.2500 0.125282(12) 0.0259 Uani
Zn1AD Zn 0.125282(12) 0.375282(12) 0.0000 0.0259 Uani
O2OD O 0.12512(7) 0.44493(10) 0.25521(8) 0.0318 Uani
O3OD O 0.12490(8) 0.50881(10) 0.29794(7) 0.0310 Uani
O4OD O 0.12763(8) 0.44115(9) 0.33241(8) 0.0337 Uani
C3OD C 0.12587(11) 0.46430(19) 0.29510(10) 0.0266 Uani
O2O O 0.12488(7) 0.25521(8) 0.30507(10) 0.0318 Uani
O3O O 0.12510(8) 0.29794(7) 0.24119(10) 0.0310 Uani
O4O O 0.12237(8) 0.33241(8) 0.30885(9) 0.0337 Uani
C3O C 0.12413(11) 0.29510(10) 0.28570(19) 0.0266 Uani
O2FA O 0.24479(8) 0.37512(7) 0.19493(10) 0.0318 Uani
O3FA O 0.20206(7) 0.37490(8) 0.25881(10) 0.0310 Uani
O4FA O 0.16759(8) 0.37763(8) 0.19115(9) 0.0337 Uani
C3FA C 0.20490(10) 0.37587(11) 0.21430(19) 0.0266 Uani
O2FD O -0.12512(7) 0.50521(8) 0.19493(10) 0.0318 Uani
O3FD O -0.12490(8) 0.54794(7) 0.25881(10) 0.0310 Uani
O4FD O -0.12763(8) 0.58241(8) 0.19115(9) 0.0337 Uani
C3FD C -0.12587(11) 0.54510(10) 0.21430(19) 0.0266 Uani
O2I O -0.12488(7) 0.55507(10) 0.00521(8) 0.0318 Uani
O3I O -0.12510(8) 0.49119(10) 0.04794(7) 0.0310 Uani
O4I O -0.12237(8) 0.55885(9) 0.08241(8) 0.0337 Uani
C3I C -0.12413(11) 0.53570(19) 0.04510(10) 0.0266 Uani
O2TB O -0.24479(8) 0.44493(10) 0.12512(7) 0.0318 Uani
O3TB O -0.20206(7) 0.50881(10) 0.12490(8) 0.0310 Uani
O4TB O -0.16759(8) 0.44115(9) 0.12763(8) 0.0337 Uani
C3TB C -0.20490(10) 0.46430(19) 0.12587(11) 0.0266 Uani
O2RE O -0.12488(7) 0.24479(8) 0.19493(10) 0.0318 Uani
O3RE O -0.12510(8) 0.20206(7) 0.25881(10) 0.0310 Uani
O4RE O -0.12237(8) 0.16759(8) 0.19115(9) 0.0337 Uani
C3RE C -0.12413(11) 0.20490(10) 0.21430(19) 0.0266 Uani
O2SF O -0.19493(10) 0.25521(8) 0.12488(7) 0.0318 Uani
O3SF O -0.25881(10) 0.29794(7) 0.12510(8) 0.0310 Uani
O4SF O -0.19115(9) 0.33241(8) 0.12237(8) 0.0337 Uani
C3SF C -0.21430(19) 0.29510(10) 0.12413(11) 0.0266 Uani
Zn1O Zn 0.125282(12) 0.2500 0.374718(12) 0.0259 Uani
O3EC O -0.12490(8) 0.25881(10) 0.04794(7) 0.0310 Uani
O4EC O -0.12763(8) 0.19115(9) 0.08241(8) 0.0337 Uani
O2AD O 0.12488(7) 0.44493(10) -0.00521(8) 0.0318 Uani
O2FE O 0.19493(10) 0.37488(7) 0.00521(8) 0.0318 Uani
O3AA O 0.12490(8) 0.29794(7) 0.00881(10) 0.0310 Uani
O4AA O 0.12763(8) 0.33241(8) -0.05885(9) 0.0337 Uani
Zn1EB Zn 0.125282(12) 0.5000 0.375282(12) 0.0259 Uani
Zn1FA Zn 0.2500 0.374718(12) 0.125282(12) 0.0259 Uani
Zn1IA Zn -0.125282(12) 0.625282(12) 0.2500 0.0259 Uani
Zn1I Zn -0.125282(12) 0.624718(12) 0.0000 0.0259 Uani
Zn1TB Zn -0.2500 0.375282(12) 0.124718(12) 0.0259 Uani
Zn1K Zn -0.124718(12) 0.124718(12) 0.2500 0.0259 Uani
O2QA O 0.19493(10) 0.24479(8) 0.37512(7) 0.0318 Uani
O3IG O 0.12490(8) 0.24119(10) 0.45206(7) 0.0310 Uani
O3DD O 0.04794(7) 0.25881(10) 0.37510(8) 0.0310 Uani
O4IG O 0.12763(8) 0.30885(9) 0.41759(8) 0.0337 Uani
O4DD O 0.08241(8) 0.19115(9) 0.37237(8) 0.0337 Uani
C3EC C -0.12587(11) 0.21430(19) 0.04510(10) 0.0266 Uani
C3AD C 0.12413(11) 0.46430(19) -0.04510(10) 0.0266 Uani
C3FE C 0.21430(19) 0.37413(11) 0.04510(10) 0.0266 Uani
C3AA C 0.12587(11) 0.29510(10) -0.03570(19) 0.0266 Uani
O2EB O 0.19493(10) 0.50521(8) 0.37488(7) 0.0318 Uani
O2WB O 0.12488(7) 0.49479(8) 0.44493(10) 0.0318 Uani
O3YF O 0.04794(7) 0.49119(10) 0.37490(8) 0.0310 Uani
O4YF O 0.08241(8) 0.55885(9) 0.37763(8) 0.0337 Uani
O2KA O 0.25521(8) 0.30507(10) 0.12488(7) 0.0318 Uani
O3RF O 0.24119(10) 0.45206(7) 0.12490(8) 0.0310 Uani
O3FE O 0.25881(10) 0.37510(8) 0.04794(7) 0.0310 Uani
O4RF O 0.30885(9) 0.41759(8) 0.12763(8) 0.0337 Uani
O4FE O 0.19115(9) 0.37237(8) 0.08241(8) 0.0337 Uani
O2IA O -0.12488(7) 0.69493(10) 0.24479(8) 0.0318 Uani
O2MB O -0.19493(10) 0.62488(7) 0.25521(8) 0.0318 Uani
O3UF O -0.04794(7) 0.62490(8) 0.24119(10) 0.0310 Uani
O4UF O -0.08241(8) 0.62763(8) 0.30885(9) 0.0337 Uani
O2NA O -0.19493(10) 0.62512(7) -0.00521(8) 0.0318 Uani
O3LD O -0.04794(7) 0.62510(8) 0.00881(10) 0.0310 Uani
O3SD O -0.12490(8) 0.70206(7) -0.00881(10) 0.0310 Uani
O4LD O -0.08241(8) 0.62237(8) -0.05885(9) 0.0337 Uani
O4SD O -0.12763(8) 0.66759(8) 0.05885(9) 0.0337 Uani
O2OC O -0.25521(8) 0.37488(7) 0.05507(10) 0.0318 Uani
O3BG O -0.24119(10) 0.37490(8) 0.20206(7) 0.0310 Uani
O4BG O -0.30885(9) 0.37763(8) 0.16759(8) 0.0337 Uani
O2K O -0.12512(7) 0.05507(10) 0.24479(8) 0.0318 Uani
O2OA O -0.05507(10) 0.12512(7) 0.25521(8) 0.0318 Uani
O3JE O -0.20206(7) 0.12510(8) 0.24119(10) 0.0310 Uani
O4JE O -0.16759(8) 0.12237(8) 0.30885(9) 0.0337 Uani
C3QA C 0.21430(19) 0.20490(10) 0.37587(11) 0.0266 Uani
C3IG C 0.12587(11) 0.28570(19) 0.45490(10) 0.0266 Uani
C3DD C 0.04510(10) 0.21430(19) 0.37413(11) 0.0266 Uani
Na1 Na 0.1250 0.3750 0.1250 0.0413 Uani
N3 N -0.05419(11) 0.45051(11) 0.24573(13) 0.0393 Uani
H3 H -0.0440 0.4259 0.2325 0.0320 Uiso
H4 H -0.0782 0.4643 0.2350 0.0320 Uiso
C4 C -0.03283(16) 0.46717(16) 0.28283(16) 0.0320 Uani
N3WB N 0.00427(13) 0.44581(11) 0.29949(11) 0.0393 Uani
H3WB H 0.0175 0.4560 0.3241 0.0320 Uiso
H4WB H 0.0150 0.4218 0.2857 0.0320 Uiso
N3MB N -0.04949(11) 0.50427(13) 0.30419(11) 0.0393 Uani
H3MB H -0.0741 0.5175 0.2940 0.0320 Uiso
H4MB H -0.0357 0.5150 0.3282 0.0320 Uiso
N1 N -0.05426(11) 0.29961(11) 0.24574(13) 0.0400 Uani
H1 H -0.0786 0.2862 0.2353 0.0360 Uiso
H2 H -0.0436 0.3237 0.2321 0.0360 Uiso
C1 C -0.03307(18) 0.28307(18) 0.28307(18) 0.0330 Uani
N1OA N -0.04961(11) 0.24574(13) 0.30426(11) 0.0400 Uani
H1OA H -0.0362 0.2353 0.3286 0.0360 Uiso
H2OA H -0.0737 0.2321 0.2936 0.0360 Uiso
N1O N 0.00426(13) 0.30426(11) 0.29961(11) 0.0400 Uani
H1O H 0.0147 0.3286 0.2862 0.0360 Uiso
H2O H 0.0179 0.2936 0.3237 0.0360 Uiso
loop_
_atom_site_aniso_label
_atom_site_aniso_U_11
_atom_site_aniso_U_22
_atom_site_aniso_U_33
_atom_site_aniso_U_23
_atom_site_aniso_U_13
_atom_site_aniso_U_12
N2 0.056(3) 0.056(3) 0.056(3) 0.000 0.000 0.000
O1 0.066(9) 0.071(10) 0.067(9) 0.000 -0.016(14) 0.000
Zn1 0.0240(3) 0.0268(2) 0.0268(2) 0.0001(6) -0.00108(15) 0.00108(15)
O2 0.0267 0.0296 0.0392 -0.0012 0.0002 -0.0044
O3 0.0343 0.0247 0.034 -0.0011 0.0032 -0.0024
O4 0.0258 0.0295 0.0458 0.0002 -0.0001 0.0033
C3 0.0323 0.027 0.0205 -0.003 0.001 0.0007
O2T 0.0267 0.0392 0.0296 -0.0012 0.0044 -0.0002
O3T 0.0343 0.034 0.0247 -0.0011 0.0024 -0.0032
O4T 0.0258 0.0458 0.0295 0.0002 -0.0033 0.0001
C3T 0.0323 0.0205 0.027 -0.003 -0.0007 -0.001
O2PF 0.0296(12) 0.0392(13) 0.0267(12) -0.0002(15) -0.0044(9) 0.0012(14)
O3PF 0.0247(11) 0.0340(12) 0.0343(13) -0.0032(14) -0.0024(9) 0.0011(14)
O4PF 0.0295(12) 0.0458(15) 0.0258(12) 0.0001(14) 0.0033(9) -0.0002(14)
C3PF 0.0270(16) 0.0205(14) 0.0323(16) -0.001(2) 0.0007(13) 0.003(2)
O2EG 0.0296 0.0267 0.0392 -0.0002 -0.0012 0.0044
O3EG 0.0247 0.0343 0.034 -0.0032 -0.0011 0.0024
O4EG 0.0295 0.0258 0.0458 0.0001 0.0002 -0.0033
C3EG 0.027 0.0323 0.0205 -0.001 -0.003 -0.0007
Zn1PF 0.0268 0.0268 0.024 0.00108 0.00108 -0.0001
Zn1EG 0.0268 0.024 0.0268 0.00108 0.0001 -0.00108
Zn1RE 0.0268 0.024 0.0268 -0.00108 -0.0001 -0.00108
Zn1AD 0.0268 0.0268 0.024 -0.00108 0.00108 0.0001
O2OD 0.0392 0.0296 0.0267 -0.0044 -0.0002 0.0012
O3OD 0.034 0.0247 0.0343 -0.0024 -0.0032 0.0011
O4OD 0.0458 0.0295 0.0258 0.0033 0.0001 -0.0002
C3OD 0.0205 0.027 0.0323 0.0007 -0.001 0.003
O2O 0.0392 0.0267 0.0296 0.0044 0.0012 0.0002
O3O 0.034 0.0343 0.0247 0.0024 0.0011 0.0032
O4O 0.0458 0.0258 0.0295 -0.0033 -0.0002 -0.0001
C3O 0.0205 0.0323 0.027 -0.0007 0.003 0.001
O2FA 0.0267 0.0392 0.0296 0.0012 0.0044 0.0002
O3FA 0.0343 0.034 0.0247 0.0011 0.0024 0.0032
O4FA 0.0258 0.0458 0.0295 -0.0002 -0.0033 -0.0001
C3FA 0.0323 0.0205 0.027 0.003 -0.0007 0.001
O2FD 0.0392 0.0267 0.0296 -0.0044 -0.0012 0.0002
O3FD 0.034 0.0343 0.0247 -0.0024 -0.0011 0.0032
O4FD 0.0458 0.0258 0.0295 0.0033 0.0002 -0.0001
C3FD 0.0205 0.0323 0.027 0.0007 -0.003 0.001
O2I 0.0392 0.0296 0.0267 0.0044 -0.0002 -0.0012
O3I 0.034 0.0247 0.0343 0.0024 -0.0032 -0.0011
O4I 0.0458 0.0295 0.0258 -0.0033 0.0001 0.0002
C3I 0.0205 0.027 0.0323 -0.0007 -0.001 -0.003
O2TB 0.0267 0.0296 0.0392 0.0012 -0.0002 -0.0044
O3TB 0.0343 0.0247 0.034 0.0011 -0.0032 -0.0024
O4TB 0.0258 0.0295 0.0458 -0.0002 0.0001 0.0033
C3TB 0.0323 0.027 0.0205 0.003 -0.001 0.0007
O2RE 0.0392 0.0267 0.0296 0.0044 0.0012 0.0002
O3RE 0.034 0.0343 0.0247 0.0024 0.0011 0.0032
O4RE 0.0458 0.0258 0.0295 -0.0033 -0.0002 -0.0001
C3RE 0.0205 0.0323 0.027 -0.0007 0.003 0.001
O2SF 0.0296 0.0267 0.0392 0.0002 0.0012 0.0044
O3SF 0.0247 0.0343 0.034 0.0032 0.0011 0.0024
O4SF 0.0295 0.0258 0.0458 -0.0001 -0.0002 -0.0033
C3SF 0.027 0.0323 0.0205 0.001 0.003 -0.0007
Zn1O 0.0268 0.024 0.0268 -0.00108 -0.0001 -0.00108
O3EC 0.034 0.0247 0.0343 -0.0024 0.0032 -0.0011
O4EC 0.0458 0.0295 0.0258 0.0033 -0.0001 0.0002
O2AD 0.0392 0.0296 0.0267 0.0044 -0.0002 -0.0012
O2FE 0.0296 0.0392 0.0267 0.0002 -0.0044 -0.0012
O3AA 0.034 0.0343 0.0247 -0.0024 0.0011 -0.0032
O4AA 0.0458 0.0258 0.0295 0.0033 -0.0002 0.0001
Zn1EB 0.0268 0.024 0.0268 -0.00108 0.0001 0.00108
Zn1FA 0.024 0.0268 0.0268 -0.0001 -0.00108 -0.00108
Zn1IA 0.0268 0.0268 0.024 -0.00108 -0.00108 -0.0001
Zn1I 0.0268 0.0268 0.024 -0.00108 0.00108 0.0001
Zn1TB 0.024 0.0268 0.0268 -0.0001 0.00108 0.00108
Zn1K 0.0268 0.0268 0.024 0.00108 0.00108 -0.0001
O2QA 0.0296 0.0267 0.0392 0.0002 0.0012 0.0044
O3IG 0.034 0.0247 0.0343 -0.0024 0.0032 -0.0011
O3DD 0.0343 0.0247 0.034 -0.0011 0.0032 -0.0024
O4IG 0.0458 0.0295 0.0258 0.0033 -0.0001 0.0002
O4DD 0.0258 0.0295 0.0458 0.0002 -0.0001 0.0033
C3EC 0.0205 0.027 0.0323 0.0007 0.001 -0.003
C3AD 0.0205 0.027 0.0323 -0.0007 -0.001 -0.003
C3FE 0.027 0.0205 0.0323 0.001 0.0007 -0.003
C3AA 0.0205 0.0323 0.027 0.0007 0.003 -0.001
O2EB 0.0296 0.0267 0.0392 0.0002 -0.0012 -0.0044
O2WB 0.0392 0.0267 0.0296 0.0044 -0.0012 -0.0002
O3YF 0.0343 0.0247 0.034 -0.0011 -0.0032 0.0024
O4YF 0.0258 0.0295 0.0458 0.0002 0.0001 -0.0033
O2KA 0.0267 0.0296 0.0392 0.0012 0.0002 0.0044
O3RF 0.0247 0.0343 0.034 0.0032 -0.0011 -0.0024
O3FE 0.0247 0.034 0.0343 0.0032 -0.0024 -0.0011
O4RF 0.0295 0.0258 0.0458 -0.0001 0.0002 0.0033
O4FE 0.0295 0.0458 0.0258 -0.0001 0.0033 0.0002
O2IA 0.0392 0.0296 0.0267 0.0044 0.0002 0.0012
O2MB 0.0296 0.0392 0.0267 0.0002 0.0044 0.0012
O3UF 0.0343 0.034 0.0247 -0.0011 -0.0024 0.0032
O4UF 0.0258 0.0458 0.0295 0.0002 0.0033 -0.0001
O2NA 0.0296 0.0392 0.0267 0.0002 -0.0044 -0.0012
O3LD 0.0343 0.034 0.0247 -0.0011 0.0024 -0.0032
O3SD 0.034 0.0343 0.0247 -0.0024 0.0011 -0.0032
O4LD 0.0258 0.0458 0.0295 0.0002 -0.0033 0.0001
O4SD 0.0458 0.0258 0.0295 0.0033 -0.0002 0.0001
O2OC 0.0267 0.0392 0.0296 0.0012 -0.0044 -0.0002
O3BG 0.0247 0.034 0.0343 0.0032 0.0024 0.0011
O4BG 0.0295 0.0458 0.0258 -0.0001 -0.0033 -0.0002
O2K 0.0392 0.0296 0.0267 -0.0044 -0.0002 0.0012
O2OA 0.0296 0.0392 0.0267 -0.0002 -0.0044 0.0012
O3JE 0.0343 0.034 0.0247 0.0011 0.0024 0.0032
O4JE 0.0258 0.0458 0.0295 -0.0002 -0.0033 -0.0001
C3QA 0.027 0.0323 0.0205 0.001 0.003 -0.0007
C3IG 0.0205 0.027 0.0323 0.0007 0.001 -0.003
C3DD 0.0323 0.027 0.0205 -0.003 0.001 0.0007
Na1 0.0279(8) 0.068(2) 0.0279(8) 0.000 0.000 0.000
N3 0.040(2) 0.039(2) 0.039(3) -0.0079(19) -0.0095(19) 0.006(2)
C4 0.032(3) 0.032(3) 0.032(3) 0.005(3) 0.005(3) -0.005(3)
N3WB 0.039 0.04 0.039 -0.006 -0.0079 0.0095
N3MB 0.039 0.039 0.04 -0.0095 -0.006 0.0079
N1 0.038(2) 0.040(2) 0.042(3) 0.0087(19) -0.010(2) -0.009(2)
C1 0.033(3) 0.033(3) 0.033(3) 0.001(3) -0.001(3) -0.001(3)
N1OA 0.04 0.042 0.038 0.01 -0.009 -0.0087
N1O 0.042 0.038 0.04 0.009 -0.0087 -0.01
loop_
_geom_bond_atom_site_label_1
_geom_bond_atom_site_label_2
_geom_bond_site_symmetry_1
_geom_bond_site_symmetry_2
N1 H1 1_555 1_555
H2 N1 1_555 1_555
C1 N1 1_555 1_555
N2 C2 1_555 1_555
C2 C2YA 1_555 1_555
Zn1 O2 1_555 1_555
O2 C3 1_555 1_555
O3 C3 1_555 1_555
O4 C3 1_555 1_555
N3 H3 1_555 1_555
H4 N3 1_555 1_555
C4 N3 1_555 1_555
N1OA C1 1_555 1_555
H1OA N1OA 1_555 1_555
H2OA N1OA 1_555 1_555
N1O C1 1_555 1_555
H1O N1O 1_555 1_555
H2O N1O 1_555 1_555
C2YA N2 1_555 1_555
C2O N2 1_555 1_555
C2MB N2 1_555 1_555
C2BA N2 1_555 1_555
C2TB N2 1_555 1_555
C2LA N2 1_555 1_555
C2OA N2 1_555 1_555
C2DB N2 1_555 1_555
C2WB N2 1_555 1_555
C2HB N2 1_555 1_555
C2GC N2 1_555 1_555
O2T Zn1 1_555 1_555
O3T C3T 1_555 1_555
O4T C3T 1_555 1_555
C3T O2T 1_555 1_555
O2PF C3PF 1_555 1_555
O3PF Zn1 1_555 1_555
O4PF Zn1 1_555 1_555
C3PF O3PF 1_555 1_555
O2EG C3EG 1_555 1_555
O3EG Zn1 1_555 1_555
O4EG Zn1 1_555 1_555
C3EG O3EG 1_555 1_555
Zn1PF O2PF 1_555 1_555
Zn1EG O2EG 1_555 1_555
Zn1RE O3 1_555 1_555
Zn1AD O3T 1_555 1_555
O2OD Zn1PF 1_555 1_555
O3OD C3OD 1_555 1_555
O4OD C3OD 1_555 1_555
C3OD O2OD 1_555 1_555
O2O C3O 1_555 1_555
O3O Zn1PF 1_555 1_555
O4O Zn1PF 1_555 1_555
C3O O3O 1_555 1_555
O2FA C3FA 1_555 1_555
O3FA Zn1PF 1_555 1_555
O4FA Zn1PF 1_555 1_555
C3FA O3FA 1_555 1_555
O2FD Zn1EG 1_555 1_555
O3FD C3FD 1_555 1_555
O4FD C3FD 1_555 1_555
C3FD O2FD 1_555 1_555
O2I C3I 1_555 1_555
O3I Zn1EG 1_555 1_555
O4I Zn1EG 1_555 1_555
C3I O3I 1_555 1_555
O2TB C3TB 1_555 1_555
O3TB Zn1EG 1_555 1_555
O4TB Zn1EG 1_555 1_555
C3TB O3TB 1_555 1_555
O2RE Zn1RE 1_555 1_555
O3RE C3RE 1_555 1_555
O4RE C3RE 1_555 1_555
C3RE O2RE 1_555 1_555
O2SF Zn1RE 1_555 1_555
O3SF C3SF 1_555 1_555
O4SF C3SF 1_555 1_555
C3SF O2SF 1_555 1_555
Zn1O O2O 1_555 1_555
O3EC Zn1RE 1_555 1_555
O4EC Zn1RE 1_555 1_555
O2AD Zn1AD 1_555 1_555
O2FE Zn1AD 1_555 1_555
O3AA Zn1AD 1_555 1_555
O4AA Zn1AD 1_555 1_555
Zn1EB O3OD 1_555 1_555
Zn1FA O2FA 1_555 1_555
Zn1IA O3FD 1_555 1_555
Zn1I O2I 1_555 1_555
Zn1TB O2TB 1_555 1_555
Zn1K O3RE 1_555 1_555
O2QA Zn1O 1_555 1_555
O3IG Zn1O 1_555 1_555
O3DD Zn1O 1_555 1_555
O4IG Zn1O 1_555 1_555
O4DD Zn1O 1_555 1_555
C3EC O3EC 1_555 1_555
C3AD O2AD 1_555 1_555
C3FE O2FE 1_555 1_555
C3AA O3AA 1_555 1_555
O2EB Zn1EB 1_555 1_555
O2WB Zn1EB 1_555 1_555
O3YF Zn1EB 1_555 1_555
O4YF Zn1EB 1_555 1_555
O2KA Zn1FA 1_555 1_555
O3RF Zn1FA 1_555 1_555
O3FE Zn1FA 1_555 1_555
O4RF Zn1FA 1_555 1_555
O4FE Zn1FA 1_555 1_555
O2IA Zn1IA 1_555 1_555
O2MB Zn1IA 1_555 1_555
O3UF Zn1IA 1_555 1_555
O4UF Zn1IA 1_555 1_555
O2NA Zn1I 1_555 1_555
O3LD Zn1I 1_555 1_555
O3SD Zn1I 1_555 1_555
O4LD Zn1I 1_555 1_555
O4SD Zn1I 1_555 1_555
O2OC Zn1TB 1_555 1_555
O3BG Zn1TB 1_555 1_555
O4BG Zn1TB 1_555 1_555
O2K Zn1K 1_555 1_555
O2OA Zn1K 1_555 1_555
O3JE Zn1K 1_555 1_555
O4JE Zn1K 1_555 1_555
C3QA O2QA 1_555 1_555
C3IG O3IG 1_555 1_555
C3DD O3DD 1_555 1_555
N3WB C4 1_555 1_555
H3WB N3WB 1_555 1_555
H4WB N3WB 1_555 1_555
N3MB C4 1_555 1_555
H3MB N3MB 1_555 1_555
H4MB N3MB 1_555 1_555
C2 C2TB 1_555 1_555
C2 C2DB 1_555 1_555
O4 Zn1RE 1_555 1_555
C2YA C2LA 1_555 1_555
C2YA C2DB 1_555 1_555
C2O C2MB 1_555 1_555
C2O C2WB 1_555 1_555
C2O C2HB 1_555 1_555
C2MB C2DB 1_555 1_555
C2MB C2HB 1_555 1_555
C2BA C2TB 1_555 1_555
C2BA C2OA 1_555 1_555
C2BA C2WB 1_555 1_555
C2TB C2WB 1_555 1_555
C2LA C2OA 1_555 1_555
C2LA C2GC 1_555 1_555
C2OA C2GC 1_555 1_555
C2HB C2GC 1_555 1_555
O4T Zn1AD 1_555 1_555
O4PF C3PF 1_555 1_555
O4EG C3EG 1_555 1_555
O4OD Zn1EB 1_555 1_555
O4O C3O 1_555 1_555
O4FA C3FA 1_555 1_555
O4FD Zn1IA 1_555 1_555
O4I C3I 1_555 1_555
O4TB C3TB 1_555 1_555
O4RE Zn1K 1_555 1_555
O3SF Zn1TB 1_555 1_555
O4SF Zn1TB 1_555 1_555
O4EC C3EC 1_555 1_555
O4AA C3AA 1_555 1_555
O4IG C3IG 1_555 1_555
O4DD C3DD 1_555 1_555

#END
