
#######################################################################
#
#                 Cambridge Crystallographic Data Centre
#                                CCDC 
#
#######################################################################
#
# If this CIF has been generated from an entry in the Cambridge 
# Structural Database, then it will include bibliographic, chemical, 
# crystal, experimental, refinement or atomic coordinate data resulting 
# from the CCDC's data processing and validation procedures.
#
#######################################################################

data_IWAZIP
_chemical_formula_moiety         '(C19 H8 Cd6 N4 Na1 O37 10-)n'
_symmetry_cell_setting           cubic
_symmetry_space_group_name_H-M   'I m -3 m'
_symmetry_Int_Tables_number      229
_space_group_name_Hall           '-I 4 2 3'
loop_
_symmetry_equiv_pos_site_id
_symmetry_equiv_pos_as_xyz
1 x,y,z
2 z,x,y
3 y,z,x
4 y,x,-z
5 y,-x,z
6 -y,x,z
7 x,z,-y
8 -x,z,y
9 x,-z,y
10 z,y,-x
11 z,-y,x
12 -z,y,x
13 1/2+x,1/2+y,1/2+z
14 1/2+z,1/2+x,1/2+y
15 1/2+y,1/2+z,1/2+x
16 1/2+y,1/2+x,1/2-z
17 1/2+y,1/2-x,1/2+z
18 1/2-y,1/2+x,1/2+z
19 1/2+x,1/2+z,1/2-y
20 1/2-x,1/2+z,1/2+y
21 1/2+x,1/2-z,1/2+y
22 1/2+z,1/2+y,1/2-x
23 1/2+z,1/2-y,1/2+x
24 1/2-z,1/2+y,1/2+x
25 -x,-y,z
26 -x,y,-z
27 x,-y,-z
28 z,-x,-y
29 -z,-x,y
30 -z,x,-y
31 -y,z,-x
32 y,-z,-x
33 -y,-z,x
34 -y,-x,-z
35 -x,-z,-y
36 -z,-y,-x
37 1/2-x,1/2-y,1/2+z
38 1/2-x,1/2+y,1/2-z
39 1/2+x,1/2-y,1/2-z
40 1/2+z,1/2-x,1/2-y
41 1/2-z,1/2-x,1/2+y
42 1/2-z,1/2+x,1/2-y
43 1/2-y,1/2+z,1/2-x
44 1/2+y,1/2-z,1/2-x
45 1/2-y,1/2-z,1/2+x
46 1/2-y,1/2-x,1/2-z
47 1/2-x,1/2-z,1/2-y
48 1/2-z,1/2-y,1/2-x
49 -x,-y,-z
50 -z,-x,-y
51 -y,-z,-x
52 -y,-x,z
53 -y,x,-z
54 y,-x,-z
55 -x,-z,y
56 x,-z,-y
57 -x,z,-y
58 -z,-y,x
59 -z,y,-x
60 z,-y,-x
61 1/2-x,1/2-y,1/2-z
62 1/2-z,1/2-x,1/2-y
63 1/2-y,1/2-z,1/2-x
64 1/2-y,1/2-x,1/2+z
65 1/2-y,1/2+x,1/2-z
66 1/2+y,1/2-x,1/2-z
67 1/2-x,1/2-z,1/2+y
68 1/2+x,1/2-z,1/2-y
69 1/2-x,1/2+z,1/2-y
70 1/2-z,1/2-y,1/2+x
71 1/2-z,1/2+y,1/2-x
72 1/2+z,1/2-y,1/2-x
73 x,y,-z
74 x,-y,z
75 -x,y,z
76 -z,x,y
77 z,x,-y
78 z,-x,y
79 y,-z,x
80 -y,z,x
81 y,z,-x
82 y,x,z
83 x,z,y
84 z,y,x
85 1/2+x,1/2+y,1/2-z
86 1/2+x,1/2-y,1/2+z
87 1/2-x,1/2+y,1/2+z
88 1/2-z,1/2+x,1/2+y
89 1/2+z,1/2+x,1/2-y
90 1/2+z,1/2-x,1/2+y
91 1/2+y,1/2-z,1/2+x
92 1/2-y,1/2+z,1/2+x
93 1/2+y,1/2+z,1/2-x
94 1/2+y,1/2+x,1/2+z
95 1/2+x,1/2+z,1/2+y
96 1/2+z,1/2+y,1/2+x
_cell_length_a                   14.7493(4)
_cell_length_b                   14.7493(4)
_cell_length_c                   14.7493(4)
_cell_angle_alpha                90
_cell_angle_beta                 90
_cell_angle_gamma                90
_cell_volume                     3208.59
loop_
_atom_site_label
_atom_site_type_symbol
_atom_site_fract_x
_atom_site_fract_y
_atom_site_fract_z
H1 H 0.717(4) -0.101(3) 0.830(3)
N1 N 0.7442(4) -0.1459(3) 0.8541(3)
C1 C 0.8174(4) -0.1826(4) 0.8174(4)
H1DC H 0.717(4) -0.170(3) 0.899(3)
N1B N 0.8541(3) -0.1459(3) 0.7442(4)
H1B H 0.899(3) -0.170(3) 0.717(4)
H1EC H 0.830(3) -0.101(3) 0.717(4)
N1A N 0.8541(3) -0.2558(4) 0.8541(3)
H1A H 0.830(3) -0.283(4) 0.899(3)
H1CC H 0.899(3) -0.283(4) 0.830(3)
Cd1 Cd 0.5000 0.0000 0.2500
O2 O 0.5000(3) -0.1541 0.2610(2)
O3 O 0.5000(3) -0.1151 0.1151(3)
C2 C 0.5000(4) -0.1760 0.1760(4)
O2HA O 0.5000(3) -0.2610(2) 0.1541
O2X O 0.5000(3) 0.1541 0.2610(2)
O3X O 0.5000(3) 0.1151 0.1151(3)
C2X C 0.5000(4) 0.1760 0.1760(4)
O2F O 0.5000(3) 0.2610(2) 0.1541
O2LB O 0.6541 0.0000(3) 0.2390(2)
O3LB O 0.6151 0.0000(3) 0.3849(3)
C2LB C 0.6760 0.0000(4) 0.3240(4)
O2KC O 0.7610(2) 0.0000(3) 0.3459
O2MB O 0.3459 0.0000(3) 0.2390(2)
O3MB O 0.3849 0.0000(3) 0.3849(3)
C2MB C 0.3240 0.0000(4) 0.3240(4)
O2IC O 0.2390(2) 0.0000(3) 0.3459
Cd1HA Cd 0.5000 -0.2500 0.0000
Cd1F Cd 0.5000 0.2500 0.0000
Cd1KC Cd 0.7500 0.0000 0.5000
Cd1IC Cd 0.2500 0.0000 0.5000
O2H O 0.5000(3) -0.2610(2) -0.1541
O3H O 0.5000(3) -0.1151(3) -0.1151
C2H C 0.5000(4) -0.1760(4) -0.1760
O2Y O 0.5000(3) -0.1541 -0.2610(2)
O2NC O 0.3459 -0.2390(2) 0.0000(3)
O3NC O 0.3849 -0.3849(3) 0.0000(3)
C2NC C 0.3240 -0.3240(4) 0.0000(4)
O2QB O 0.2390(2) -0.3459 0.0000(3)
O2MC O 0.6541 -0.2390(2) 0.0000(3)
O3MC O 0.6151 -0.3849(3) 0.0000(3)
C2MC C 0.6760 -0.3240(4) 0.0000(4)
O2SB O 0.7610(2) -0.3459 0.0000(3)
O2G O 0.5000(3) 0.2610(2) -0.1541
O3G O 0.5000(3) 0.1151(3) -0.1151
C2G C 0.5000(4) 0.1760(4) -0.1760
O2Z O 0.5000(3) 0.1541 -0.2610(2)
O2JB O 0.6541 0.2390(2) 0.0000(3)
O3JB O 0.6151 0.3849(3) 0.0000(3)
C2JB C 0.6760 0.3240(4) 0.0000(4)
O2QC O 0.7610(2) 0.3459 0.0000(3)
O2LC O 0.3459 0.2390(2) 0.0000(3)
O3LC O 0.3849 0.3849(3) 0.0000(3)
C2LC C 0.3240 0.3240(4) 0.0000(4)
O2RB O 0.2390(2) 0.3459 0.0000(3)
O2JC O 0.7610(2) 0.0000(3) 0.6541
O3JC O 0.6151(3) 0.0000(3) 0.6151
C2JC C 0.6760(4) 0.0000(4) 0.6760
O2KB O 0.6541 0.0000(3) 0.7610(2)
O2K O 0.7390(2) -0.1541 0.5000(3)
O3K O 0.8849(3) -0.1151 0.5000(3)
C2K C 0.8240(4) -0.1760 0.5000(4)
O2EA O 0.8459 -0.2610(2) 0.5000(3)
Cd1Y Cd 0.5000 -0.0000 -0.2500
O2EB O 0.7390(2) 0.1541 0.5000(3)
O3B O 0.8849 0.1151(3) 0.5000(3)
O2I O 0.2610(2) -0.1541 0.5000(3)
O2J O 0.2610(2) 0.1541 0.5000(3)
O2IB O 0.2390(2) 0.0000(3) 0.6541
O3I O 0.1151(3) -0.1151 0.5000(3)
O3J O 0.1151(3) 0.1151 0.5000(3)
O3P O 0.3849 0.0000(3) 0.6151(3)
Cd1A Cd 0.2500 -0.5000 0.0000
Cd1U Cd 0.7500 -0.5000 0.0000
Cd1U_2 Cd 0.7500 0.5000 0.0000
Cd1A_2 Cd 0.2500 0.5000 0.0000
Cd1P Cd 0.5000 0.0000 0.7500
Cd1R Cd 1.0000 -0.2500 0.5000
O2P O 0.3459 0.0000(3) -0.2390(2)
O2Q O 0.6541 0.0000(3) -0.2390(2)
O3P_2 O 0.3849 0.0000(3) -0.3849(3)
O3Q O 0.6151 0.0000(3) -0.3849(3)
Na1 Na 0.5000 0.0000 0.5000
N2 N 0.5000 0.5000 0.5000
C3 C 0.5000 0.3995(7) 0.5000
C3A C 0.5000 0.5000 0.3995(7)
C3B C 0.3995(7) 0.5000 0.5000
C3E C 0.6005(7) 0.5000 0.5000
C3F C 0.5000 0.5000 0.6005(7)
C3J C 0.5000 0.6005(7) 0.5000
O1 O 0.5000 0.1576(13) 0.5000
loop_
_geom_bond_atom_site_label_1
_geom_bond_atom_site_label_2
_geom_bond_site_symmetry_1
_geom_bond_site_symmetry_2
H1 N1 1_555 1_555
N1 C1 1_555 1_555
C1 N1B 1_555 1_555
Cd1 O2 1_555 1_555
O2 C2 1_555 1_555
O3 Cd1 1_555 1_555
C2 O3 1_555 1_555
N2 C3 1_555 1_555
H1DC N1 1_555 1_555
N1B H1B 1_555 1_555
H1EC N1B 1_555 1_555
N1A C1 1_555 1_555
H1A N1A 1_555 1_555
H1CC N1A 1_555 1_555
O2HA C2 1_555 1_555
O2X Cd1 1_555 1_555
O3X Cd1 1_555 1_555
C2X O2X 1_555 1_555
O2F C2X 1_555 1_555
O2LB Cd1 1_555 1_555
O3LB Cd1 1_555 1_555
C2LB O2LB 1_555 1_555
O2KC C2LB 1_555 1_555
O2MB Cd1 1_555 1_555
O3MB Cd1 1_555 1_555
C2MB O2MB 1_555 1_555
O2IC C2MB 1_555 1_555
Cd1HA O3 1_555 1_555
Cd1F O3X 1_555 1_555
Cd1KC O3LB 1_555 1_555
Cd1IC O3MB 1_555 1_555
O2H Cd1HA 1_555 1_555
O3H Cd1HA 1_555 1_555
C2H O2H 1_555 1_555
O2Y C2H 1_555 1_555
O2NC Cd1HA 1_555 1_555
O3NC Cd1HA 1_555 1_555
C2NC O2NC 1_555 1_555
O2QB C2NC 1_555 1_555
O2MC Cd1HA 1_555 1_555
O3MC Cd1HA 1_555 1_555
C2MC O2MC 1_555 1_555
O2SB C2MC 1_555 1_555
O2G Cd1F 1_555 1_555
O3G Cd1F 1_555 1_555
C2G O2G 1_555 1_555
O2Z C2G 1_555 1_555
O2JB Cd1F 1_555 1_555
O3JB Cd1F 1_555 1_555
C2JB O2JB 1_555 1_555
O2QC C2JB 1_555 1_555
O2LC Cd1F 1_555 1_555
O3LC Cd1F 1_555 1_555
C2LC O2LC 1_555 1_555
O2RB C2LC 1_555 1_555
O2JC Cd1KC 1_555 1_555
O3JC Cd1KC 1_555 1_555
C2JC O2JC 1_555 1_555
O2KB C2JC 1_555 1_555
O2K Cd1KC 1_555 1_555
O3K Cd1KC 1_555 1_555
C2K O2K 1_555 1_555
O2EA C2K 1_555 1_555
Cd1Y O3H 1_555 1_555
O2EB Cd1KC 1_555 1_555
O3B Cd1KC 1_555 1_555
O2I Cd1IC 1_555 1_555
O2J Cd1IC 1_555 1_555
O2IB Cd1IC 1_555 1_555
O3I Cd1IC 1_555 1_555
O3J Cd1IC 1_555 1_555
O3P Cd1IC 1_555 1_555
Cd1A O3NC 1_555 1_555
Cd1U O3MC 1_555 1_555
Cd1U_2 O3JB 1_555 1_555
Cd1A_2 O3LC 1_555 1_555
Cd1P O3JC 1_555 1_555
Cd1R O3K 1_555 1_555
O2P Cd1Y 1_555 1_555
O2Q Cd1Y 1_555 1_555
O3P_2 Cd1Y 1_555 1_555
O3Q Cd1Y 1_555 1_555
C3A N2 1_555 1_555
C3B N2 1_555 1_555
C3E N2 1_555 1_555
C3F N2 1_555 1_555
C3J N2 1_555 1_555
O2HA Cd1HA 1_555 1_555
O3X C2X 1_555 1_555
O2F Cd1F 1_555 1_555
O3LB C2LB 1_555 1_555
O2KC Cd1KC 1_555 1_555
O3MB C2MB 1_555 1_555
O2IC Cd1IC 1_555 1_555
O3H C2H 1_555 1_555
O2Y Cd1Y 1_555 1_555
O3NC C2NC 1_555 1_555
O2QB Cd1A 1_555 1_555
O3MC C2MC 1_555 1_555
O2SB Cd1U 1_555 1_555
O3G C2G 1_555 1_555
O3G Cd1Y 1_555 1_555
O2Z Cd1Y 1_555 1_555
O3JB C2JB 1_555 1_555
O2QC Cd1U_2 1_555 1_555
O3LC C2LC 1_555 1_555
O2RB Cd1A_2 1_555 1_555
O3JC C2JC 1_555 1_555
O2KB Cd1P 1_555 1_555
O3K C2K 1_555 1_555
O2EA Cd1R 1_555 1_555
O3P Cd1P 1_555 1_555

#END
