
#######################################################################
#
#                 Cambridge Crystallographic Data Centre
#                                CCDC 
#
#######################################################################
#
# If this CIF has been generated from an entry in the Cambridge 
# Structural Database, then it will include bibliographic, chemical, 
# crystal, experimental, refinement or atomic coordinate data resulting 
# from the CCDC's data processing and validation procedures.
#
#######################################################################

data_OGESOJ
_chemical_formula_moiety         '(C4 H8 Bi1 N1 O10)n'
_symmetry_cell_setting           tetragonal
_symmetry_space_group_name_H-M   'I 41/a m d'
_symmetry_Int_Tables_number      141
_space_group_name_Hall           '-I 4bd 2'
loop_
_symmetry_equiv_pos_site_id
_symmetry_equiv_pos_as_xyz
1 x,y,z
2 1/4-y,3/4+x,1/4+z
3 1/4+y,1/4-x,3/4+z
4 1/4+y,3/4+x,1/4-z
5 1/2+x,1/2+y,1/2+z
6 3/4-y,1/4+x,3/4+z
7 3/4+y,3/4-x,1/4+z
8 3/4+y,1/4+x,3/4-z
9 -x,1/2-y,z
10 x,-y,-z
11 -x,1/2+y,-z
12 1/4-y,1/4-x,3/4-z
13 1/2-x,-y,1/2+z
14 1/2+x,1/2-y,1/2-z
15 1/2-x,y,1/2-z
16 3/4-y,3/4-x,1/4-z
17 -x,-y,-z
18 3/4+y,1/4-x,3/4-z
19 3/4-y,3/4+x,1/4-z
20 3/4-y,1/4-x,3/4+z
21 1/2-x,1/2-y,1/2-z
22 1/4+y,3/4-x,1/4-z
23 1/4-y,1/4+x,3/4-z
24 1/4-y,3/4-x,1/4+z
25 x,1/2+y,-z
26 -x,y,z
27 x,1/2-y,z
28 3/4+y,3/4+x,1/4+z
29 1/2+x,y,1/2-z
30 1/2-x,1/2+y,1/2+z
31 1/2+x,-y,1/2+z
32 1/4+y,1/4+x,3/4+z
_cell_length_a                   11.7026(17)
_cell_length_b                   11.7026(17)
_cell_length_c                   9.2233(18)
_cell_angle_alpha                90
_cell_angle_beta                 90
_cell_angle_gamma                90
_cell_volume                     1263.14
loop_
_atom_site_label
_atom_site_type_symbol
_atom_site_fract_x
_atom_site_fract_y
_atom_site_fract_z
_atom_site_U_iso_or_equiv
_atom_site_thermal_displace_type
Bi1 Bi 0.5000 0.2500 0.6250 0.0247 Uani
O1 O 0.5000 0.1300(4) 0.4082(5) 0.0503 Uani
O2 O 0.5000 -0.0477(5) 0.3213(6) 0.0633 Uani
C1 C 0.5000 0.0245(6) 0.4223(7) 0.0380 Uani
Bi1B Bi 0.5000 -0.2500 0.3750 0.0247 Uani
Bi1A Bi -0.0000 0.2500 0.8750 0.0247 Uani
O1P O 0.5000 -0.1300(4) 0.5918(5) 0.0503 Uani
O1C O 0.3800(4) 0.2500 0.8418(5) 0.0503 Uani
O1A O 0.1200(4) 0.2500 0.6582(5) 0.0503 Uani
O1Z O 0.5000 0.3700(4) 0.4082(5) 0.0503 Uani
O1R O 0.6200(4) 0.2500 0.8418(5) 0.0503 Uani
O2P O 0.5000 0.0477(5) 0.6787(6) 0.0633 Uani
O2C O 0.2023(5) 0.2500 0.9287(6) 0.0633 Uani
O2A O 0.2977(5) 0.2500 0.5713(6) 0.0633 Uani
O2F O 0.7023(5) 0.2500 0.5713(6) 0.0633 Uani
O2X O 0.5000 0.4523(5) 0.6787(6) 0.0633 Uani
C1P C 0.5000 -0.0245(6) 0.5777(7) 0.0380 Uani
C1C C 0.2745(6) 0.2500 0.8277(7) 0.0380 Uani
C1A C 0.2255(6) 0.2500 0.6723(7) 0.0380 Uani
N1 N 0.5000 0.2500 0.1250 0.0450 Uani
O3 O 0.701(2) 0.049(2) 0.1250 0.1557 Uani
O4 O 0.7500 0.2500 0.2500 0.1867 Uani
loop_
_atom_site_aniso_label
_atom_site_aniso_U_11
_atom_site_aniso_U_22
_atom_site_aniso_U_33
_atom_site_aniso_U_23
_atom_site_aniso_U_13
_atom_site_aniso_U_12
Bi1 0.02570(18) 0.02570(18) 0.0227(2) 0.000 0.000 0.000
O1 0.094(5) 0.032(3) 0.025(2) 0.003(2) 0.000 0.000
O2 0.129(6) 0.034(3) 0.027(2) 0.001(2) 0.000 0.000
C1 0.058(4) 0.031(3) 0.025(3) 0.000(3) 0.000 0.000
Bi1B 0.0257 0.0257 0.0227 0 0 0
Bi1A 0.0257 0.0257 0.0227 0 0 0
O1P 0.094 0.032 0.025 0.003 0 0
O1C 0.032 0.094 0.025 0 -0.003 0
O1A 0.032 0.094 0.025 0 -0.003 0
O1Z 0.094 0.032 0.025 -0.003 0 0
O1R 0.032 0.094 0.025 0 0.003 0
O2P 0.129 0.034 0.027 0.001 0 0
O2C 0.034 0.129 0.027 0 -0.001 0
O2A 0.034 0.129 0.027 0 -0.001 0
O2F 0.034 0.129 0.027 0 0.001 0
O2X 0.129 0.034 0.027 -0.001 0 0
C1P 0.058 0.031 0.025 0 0 0
C1C 0.031 0.058 0.025 0 0 0
C1A 0.031 0.058 0.025 0 0 0
N1 0.063(5) 0.063(5) 0.009(4) 0.000 0.000 0.000
O3 0.183(18) 0.183(18) 0.101(16) 0.026(10) 0.026(10) -0.05(2)
O4 0.11(2) 0.37(6) 0.080(19) 0.000 0.057(18) 0.000
loop_
_geom_bond_atom_site_label_1
_geom_bond_atom_site_label_2
_geom_bond_site_symmetry_1
_geom_bond_site_symmetry_2
Bi1 O1 1_555 1_555
O1 C1 1_555 1_555
O2 C1 1_555 1_555
C1 C1P 1_555 1_555
Bi1B O2 1_555 1_555
Bi1A O1A 1_555 1_555
O1P Bi1B 1_555 1_555
O1C Bi1 1_555 1_555
O1A C1A 1_555 1_555
O1Z Bi1 1_555 1_555
O1R Bi1 1_555 1_555
O2P Bi1 1_555 1_555
O2C Bi1A 1_555 1_555
O2A Bi1 1_555 1_555
O2F Bi1 1_555 1_555
O2X Bi1 1_555 1_555
C1P O1P 1_555 1_555
C1C O1C 1_555 1_555
C1A O2A 1_555 1_555
O2P C1P 1_555 1_555
O2C C1C 1_555 1_555
C1C C1A 1_555 1_555

#END
