
#######################################################################
#
#                 Cambridge Crystallographic Data Centre
#                                CCDC 
#
#######################################################################
#
# If this CIF has been generated from an entry in the Cambridge 
# Structural Database, then it will include bibliographic, chemical, 
# crystal, experimental, refinement or atomic coordinate data resulting 
# from the CCDC's data processing and validation procedures.
#
#######################################################################

data_FOPFAS
_chemical_formula_moiety         '(C192 H120 Cu12 O60)n'
_symmetry_cell_setting           cubic
_symmetry_space_group_name_H-M   'F m -3 m'
_symmetry_Int_Tables_number      225
_space_group_name_Hall           '-F 4 2 3'
loop_
_symmetry_equiv_pos_site_id
_symmetry_equiv_pos_as_xyz
1 x,y,z
2 -y,x,z
3 -x,-y,z
4 y,-x,z
5 x,-y,-z
6 y,x,-z
7 -x,y,-z
8 -y,-x,-z
9 z,x,y
10 -x,z,y
11 -z,-x,y
12 x,-z,y
13 z,-x,-y
14 x,z,-y
15 -z,x,-y
16 -x,-z,-y
17 y,z,x
18 -z,-y,-x
19 -z,y,x
20 z,y,-x
21 z,-y,x
22 y,-z,-x
23 -y,-z,x
24 -y,z,-x
25 x,1/2+y,1/2+z
26 -y,1/2+x,1/2+z
27 -x,1/2-y,1/2+z
28 y,1/2-x,1/2+z
29 x,1/2-y,1/2-z
30 y,1/2+x,1/2-z
31 -x,1/2+y,1/2-z
32 -y,1/2-x,1/2-z
33 z,1/2+x,1/2+y
34 -x,1/2+z,1/2+y
35 -z,1/2-x,1/2+y
36 x,1/2-z,1/2+y
37 z,1/2-x,1/2-y
38 x,1/2+z,1/2-y
39 -z,1/2+x,1/2-y
40 -x,1/2-z,1/2-y
41 y,1/2+z,1/2+x
42 -z,1/2-y,1/2-x
43 -z,1/2+y,1/2+x
44 z,1/2+y,1/2-x
45 z,1/2-y,1/2+x
46 y,1/2-z,1/2-x
47 -y,1/2-z,1/2+x
48 -y,1/2+z,1/2-x
49 1/2+x,y,1/2+z
50 1/2-y,x,1/2+z
51 1/2-x,-y,1/2+z
52 1/2+y,-x,1/2+z
53 1/2+x,-y,1/2-z
54 1/2+y,x,1/2-z
55 1/2-x,y,1/2-z
56 1/2-y,-x,1/2-z
57 1/2+z,x,1/2+y
58 1/2-x,z,1/2+y
59 1/2-z,-x,1/2+y
60 1/2+x,-z,1/2+y
61 1/2+z,-x,1/2-y
62 1/2+x,z,1/2-y
63 1/2-z,x,1/2-y
64 1/2-x,-z,1/2-y
65 1/2+y,z,1/2+x
66 1/2-z,-y,1/2-x
67 1/2-z,y,1/2+x
68 1/2+z,y,1/2-x
69 1/2+z,-y,1/2+x
70 1/2+y,-z,1/2-x
71 1/2-y,-z,1/2+x
72 1/2-y,z,1/2-x
73 1/2+x,1/2+y,z
74 1/2-y,1/2+x,z
75 1/2-x,1/2-y,z
76 1/2+y,1/2-x,z
77 1/2+x,1/2-y,-z
78 1/2+y,1/2+x,-z
79 1/2-x,1/2+y,-z
80 1/2-y,1/2-x,-z
81 1/2+z,1/2+x,y
82 1/2-x,1/2+z,y
83 1/2-z,1/2-x,y
84 1/2+x,1/2-z,y
85 1/2+z,1/2-x,-y
86 1/2+x,1/2+z,-y
87 1/2-z,1/2+x,-y
88 1/2-x,1/2-z,-y
89 1/2+y,1/2+z,x
90 1/2-z,1/2-y,-x
91 1/2-z,1/2+y,x
92 1/2+z,1/2+y,-x
93 1/2+z,1/2-y,x
94 1/2+y,1/2-z,-x
95 1/2-y,1/2-z,x
96 1/2-y,1/2+z,-x
97 -x,-y,-z
98 y,-x,-z
99 x,y,-z
100 -y,x,-z
101 -x,y,z
102 -y,-x,z
103 x,-y,z
104 y,x,z
105 -z,-x,-y
106 x,-z,-y
107 z,x,-y
108 -x,z,-y
109 -z,x,y
110 -x,-z,y
111 z,-x,y
112 x,z,y
113 -y,-z,-x
114 z,y,x
115 z,-y,-x
116 -z,-y,x
117 -z,y,-x
118 -y,z,x
119 y,z,-x
120 y,-z,x
121 -x,1/2-y,1/2-z
122 y,1/2-x,1/2-z
123 x,1/2+y,1/2-z
124 -y,1/2+x,1/2-z
125 -x,1/2+y,1/2+z
126 -y,1/2-x,1/2+z
127 x,1/2-y,1/2+z
128 y,1/2+x,1/2+z
129 -z,1/2-x,1/2-y
130 x,1/2-z,1/2-y
131 z,1/2+x,1/2-y
132 -x,1/2+z,1/2-y
133 -z,1/2+x,1/2+y
134 -x,1/2-z,1/2+y
135 z,1/2-x,1/2+y
136 x,1/2+z,1/2+y
137 -y,1/2-z,1/2-x
138 z,1/2+y,1/2+x
139 z,1/2-y,1/2-x
140 -z,1/2-y,1/2+x
141 -z,1/2+y,1/2-x
142 -y,1/2+z,1/2+x
143 y,1/2+z,1/2-x
144 y,1/2-z,1/2+x
145 1/2-x,-y,1/2-z
146 1/2+y,-x,1/2-z
147 1/2+x,y,1/2-z
148 1/2-y,x,1/2-z
149 1/2-x,y,1/2+z
150 1/2-y,-x,1/2+z
151 1/2+x,-y,1/2+z
152 1/2+y,x,1/2+z
153 1/2-z,-x,1/2-y
154 1/2+x,-z,1/2-y
155 1/2+z,x,1/2-y
156 1/2-x,z,1/2-y
157 1/2-z,x,1/2+y
158 1/2-x,-z,1/2+y
159 1/2+z,-x,1/2+y
160 1/2+x,z,1/2+y
161 1/2-y,-z,1/2-x
162 1/2+z,y,1/2+x
163 1/2+z,-y,1/2-x
164 1/2-z,-y,1/2+x
165 1/2-z,y,1/2-x
166 1/2-y,z,1/2+x
167 1/2+y,z,1/2-x
168 1/2+y,-z,1/2+x
169 1/2-x,1/2-y,-z
170 1/2+y,1/2-x,-z
171 1/2+x,1/2+y,-z
172 1/2-y,1/2+x,-z
173 1/2-x,1/2+y,z
174 1/2-y,1/2-x,z
175 1/2+x,1/2-y,z
176 1/2+y,1/2+x,z
177 1/2-z,1/2-x,-y
178 1/2+x,1/2-z,-y
179 1/2+z,1/2+x,-y
180 1/2-x,1/2+z,-y
181 1/2-z,1/2+x,y
182 1/2-x,1/2-z,y
183 1/2+z,1/2-x,y
184 1/2+x,1/2+z,y
185 1/2-y,1/2-z,-x
186 1/2+z,1/2+y,x
187 1/2+z,1/2-y,-x
188 1/2-z,1/2-y,x
189 1/2-z,1/2+y,-x
190 1/2-y,1/2+z,x
191 1/2+y,1/2+z,-x
192 1/2+y,1/2-z,x
_cell_length_a                   47.005(3)
_cell_length_b                   47.005(3)
_cell_length_c                   47.005(3)
_cell_angle_alpha                90
_cell_angle_beta                 90
_cell_angle_gamma                90
_cell_volume                     103856
loop_
_atom_site_label
_atom_site_type_symbol
_atom_site_fract_x
_atom_site_fract_y
_atom_site_fract_z
_atom_site_U_iso_or_equiv
_atom_site_thermal_displace_type
Cu1 Cu 0.340588(9) 0.159412(9) 0.0000 0.0501 Uani
Cu2 Cu 0.380723(9) 0.119277(9) 0.0000 0.0521 Uani
O1 O 0.32332(5) 0.13548(5) 0.02922(5) 0.0766 Uani
O2 O 0.35706(5) 0.10199(5) 0.02935(5) 0.0742 Uani
O3 O 0.30859(6) 0.19141(6) 0.0000 0.0843 Uani
O4 O 0.41362(8) 0.08638(8) 0.0000 0.1287 Uani
C1 C 0.33436(7) 0.11298(7) 0.03836(7) 0.0665 Uani
C2 C 0.33288(10) 0.07478(7) 0.07478(7) 0.0673 Uani
H1 H 0.3506 0.0679 0.0679 0.0810 Uiso
C3 C 0.31961(8) 0.09804(7) 0.06189(7) 0.0759 Uani
C4 C 0.29347(10) 0.10735(9) 0.07141(9) 0.1027 Uani
H2 H 0.2845 0.1230 0.0622 0.1230 Uiso
C5 C 0.28000(14) 0.09422(12) 0.09422(12) 0.1110 Uani
C6 C 0.25203(17) 0.10416(13) 0.10416(13) 0.1200 Uiso
C7 C 0.2455(2) 0.1023(2) 0.1324(2) 0.1070 Uiso
H3 H 0.2583 0.0927 0.1447 0.1280 Uiso
C8 C 0.2197(3) 0.1145(3) 0.1443(3) 0.1440 Uiso
H4 H 0.2164 0.1151 0.1643 0.1730 Uiso
C9 C 0.2001(3) 0.12528(19) 0.12528(19) 0.1650 Uiso
C10 C 0.1731(3) 0.1371(2) 0.1371(2) 0.1930 Uiso
C11 C 0.16155(17) 0.1234(3) 0.16155(17) 0.1640 Uiso
H5 H 0.1695 0.1066 0.1695 0.1970 Uiso
Cu1K Cu 0.340588(9) -0.0000 0.159412(9) 0.0501 Uani
Cu1P Cu 0.159412(9) 0.0000 0.340588(9) 0.0501 Uani
Cu1R Cu -0.0000 0.159412(9) 0.340588(9) 0.0501 Uani
Cu1H Cu -0.0000 0.340588(9) 0.159412(9) 0.0501 Uani
Cu1E Cu 0.159412(9) 0.340588(9) 0.0000 0.0501 Uani
Cu1NB Cu 0.5000 0.159412(9) -0.159412(9) 0.0501 Uani
Cu1DB Cu 0.5000 0.340588(9) -0.340588(9) 0.0501 Uani
Cu1IA Cu 0.340588(9) 0.5000 -0.340588(9) 0.0501 Uani
Cu1NA Cu 0.159412(9) 0.5000 -0.159412(9) 0.0501 Uani
Cu1M Cu 0.340588(9) 0.0000 -0.159412(9) 0.0501 Uani
Cu1U Cu 0.159412(9) 0.0000 -0.340588(9) 0.0501 Uani
Cu1S Cu 0.0000 0.159412(9) -0.340588(9) 0.0501 Uani
Cu1N Cu 0.0000 0.340588(9) -0.159412(9) 0.0501 Uani
Cu1OB Cu 0.5000 0.159412(9) 0.159412(9) 0.0501 Uani
Cu1JB Cu 0.5000 0.340588(9) 0.340588(9) 0.0501 Uani
Cu1KA Cu 0.340588(9) 0.5000 0.340588(9) 0.0501 Uani
Cu1SA Cu 0.159412(9) 0.5000 0.159412(9) 0.0501 Uani
Cu2K Cu 0.380723(9) -0.0000 0.119277(9) 0.0521 Uani
Cu2P Cu 0.119277(9) 0.0000 0.380723(9) 0.0521 Uani
Cu2R Cu -0.0000 0.119277(9) 0.380723(9) 0.0521 Uani
Cu2H Cu -0.0000 0.380723(9) 0.119277(9) 0.0521 Uani
Cu2E Cu 0.119277(9) 0.380723(9) 0.0000 0.0521 Uani
Cu2NB Cu 0.5000 0.119277(9) -0.119277(9) 0.0521 Uani
Cu2DB Cu 0.5000 0.380723(9) -0.380723(9) 0.0521 Uani
Cu2IA Cu 0.380723(9) 0.5000 -0.380723(9) 0.0521 Uani
Cu2NA Cu 0.119277(9) 0.5000 -0.119277(9) 0.0521 Uani
Cu2M Cu 0.380723(9) 0.0000 -0.119277(9) 0.0521 Uani
Cu2U Cu 0.119277(9) 0.0000 -0.380723(9) 0.0521 Uani
Cu2S Cu 0.0000 0.119277(9) -0.380723(9) 0.0521 Uani
Cu2N Cu 0.0000 0.380723(9) -0.119277(9) 0.0521 Uani
Cu2OB Cu 0.5000 0.119277(9) 0.119277(9) 0.0521 Uani
Cu2JB Cu 0.5000 0.380723(9) 0.380723(9) 0.0521 Uani
Cu2KA Cu 0.380723(9) 0.5000 0.380723(9) 0.0521 Uani
Cu2SA Cu 0.119277(9) 0.5000 0.119277(9) 0.0521 Uani
O1GD O 0.32332(5) 0.02922(5) 0.13548(5) 0.0766 Uani
O1P O 0.13548(5) 0.02922(5) 0.32332(5) 0.0766 Uani
O1ID O 0.02922(5) 0.13548(5) 0.32332(5) 0.0766 Uani
O1H O 0.02922(5) 0.32332(5) 0.13548(5) 0.0766 Uani
O1YC O 0.13548(5) 0.32332(5) 0.02922(5) 0.0766 Uani
O1AC O 0.36452(5) 0.17668(5) -0.02922(5) 0.0766 Uani
O1TF O 0.47078(5) 0.17668(5) -0.13548(5) 0.0766 Uani
O1KC O 0.47078(5) 0.36452(5) -0.32332(5) 0.0766 Uani
O1BG O 0.36452(5) 0.47078(5) -0.32332(5) 0.0766 Uani
O1IC O 0.17668(5) 0.47078(5) -0.13548(5) 0.0766 Uani
O1LF O 0.17668(5) 0.36452(5) -0.02922(5) 0.0766 Uani
O1TC O 0.32332(5) 0.13548(5) -0.02922(5) 0.0766 Uani
O1M O 0.32332(5) 0.02922(5) -0.13548(5) 0.0766 Uani
O1ND O 0.13548(5) 0.02922(5) -0.32332(5) 0.0766 Uani
O1S O 0.02922(5) 0.13548(5) -0.32332(5) 0.0766 Uani
O1BD O 0.02922(5) 0.32332(5) -0.13548(5) 0.0766 Uani
O1E O 0.13548(5) 0.32332(5) -0.02922(5) 0.0766 Uani
O1QF O 0.36452(5) 0.17668(5) 0.02922(5) 0.0766 Uani
O1DC O 0.47078(5) 0.17668(5) 0.13548(5) 0.0766 Uani
O1EG O 0.47078(5) 0.36452(5) 0.32332(5) 0.0766 Uani
O1PC O 0.36452(5) 0.47078(5) 0.32332(5) 0.0766 Uani
O1YF O 0.17668(5) 0.47078(5) 0.13548(5) 0.0766 Uani
O1VB O 0.17668(5) 0.36452(5) 0.02922(5) 0.0766 Uani
O1DF O 0.36452(5) -0.02922(5) 0.17668(5) 0.0766 Uani
O1K O 0.32332(5) -0.02922(5) 0.13548(5) 0.0766 Uani
O1SB O 0.36452(5) 0.02922(5) 0.17668(5) 0.0766 Uani
O1KB O 0.17668(5) -0.02922(5) 0.36452(5) 0.0766 Uani
O1OD O 0.13548(5) -0.02922(5) 0.32332(5) 0.0766 Uani
O1YE O 0.17668(5) 0.02922(5) 0.36452(5) 0.0766 Uani
O1XD O -0.02922(5) 0.17668(5) 0.36452(5) 0.0766 Uani
O1R O -0.02922(5) 0.13548(5) 0.32332(5) 0.0766 Uani
O1JA O 0.02922(5) 0.17668(5) 0.36452(5) 0.0766 Uani
O1OA O -0.02922(5) 0.36452(5) 0.17668(5) 0.0766 Uani
O1DD O -0.02922(5) 0.32332(5) 0.13548(5) 0.0766 Uani
O1HE O 0.02922(5) 0.36452(5) 0.17668(5) 0.0766 Uani
O2GD O 0.35706(5) 0.02935(5) 0.10199(5) 0.0742 Uani
O2P O 0.10199(5) 0.02935(5) 0.35706(5) 0.0742 Uani
O2ID O 0.02935(5) 0.10199(5) 0.35706(5) 0.0742 Uani
O2H O 0.02935(5) 0.35706(5) 0.10199(5) 0.0742 Uani
O2YC O 0.10199(5) 0.35706(5) 0.02935(5) 0.0742 Uani
O2AC O 0.39801(5) 0.14294(5) -0.02935(5) 0.0742 Uani
O2TF O 0.47065(5) 0.14294(5) -0.10199(5) 0.0742 Uani
O2KC O 0.47065(5) 0.39801(5) -0.35706(5) 0.0742 Uani
O2BG O 0.39801(5) 0.47065(5) -0.35706(5) 0.0742 Uani
O2IC O 0.14294(5) 0.47065(5) -0.10199(5) 0.0742 Uani
O2LF O 0.14294(5) 0.39801(5) -0.02935(5) 0.0742 Uani
O2TC O 0.35706(5) 0.10199(5) -0.02935(5) 0.0742 Uani
O2M O 0.35706(5) 0.02935(5) -0.10199(5) 0.0742 Uani
O2ND O 0.10199(5) 0.02935(5) -0.35706(5) 0.0742 Uani
O2S O 0.02935(5) 0.10199(5) -0.35706(5) 0.0742 Uani
O2BD O 0.02935(5) 0.35706(5) -0.10199(5) 0.0742 Uani
O2E O 0.10199(5) 0.35706(5) -0.02935(5) 0.0742 Uani
O2QF O 0.39801(5) 0.14294(5) 0.02935(5) 0.0742 Uani
O2DC O 0.47065(5) 0.14294(5) 0.10199(5) 0.0742 Uani
O2EG O 0.47065(5) 0.39801(5) 0.35706(5) 0.0742 Uani
O2PC O 0.39801(5) 0.47065(5) 0.35706(5) 0.0742 Uani
O2YF O 0.14294(5) 0.47065(5) 0.10199(5) 0.0742 Uani
O2VB O 0.14294(5) 0.39801(5) 0.02935(5) 0.0742 Uani
O2DF O 0.39801(5) -0.02935(5) 0.14294(5) 0.0742 Uani
O2K O 0.35706(5) -0.02935(5) 0.10199(5) 0.0742 Uani
O2SB O 0.39801(5) 0.02935(5) 0.14294(5) 0.0742 Uani
O2KB O 0.14294(5) -0.02935(5) 0.39801(5) 0.0742 Uani
O2OD O 0.10199(5) -0.02935(5) 0.35706(5) 0.0742 Uani
O2YE O 0.14294(5) 0.02935(5) 0.39801(5) 0.0742 Uani
O2XD O -0.02935(5) 0.14294(5) 0.39801(5) 0.0742 Uani
O2R O -0.02935(5) 0.10199(5) 0.35706(5) 0.0742 Uani
O2JA O 0.02935(5) 0.14294(5) 0.39801(5) 0.0742 Uani
O2OA O -0.02935(5) 0.39801(5) 0.14294(5) 0.0742 Uani
O2DD O -0.02935(5) 0.35706(5) 0.10199(5) 0.0742 Uani
O2HE O 0.02935(5) 0.39801(5) 0.14294(5) 0.0742 Uani
O3K O 0.30859(6) -0.0000 0.19141(6) 0.0843 Uani
O3P O 0.19141(6) 0.0000 0.30859(6) 0.0843 Uani
O3R O -0.0000 0.19141(6) 0.30859(6) 0.0843 Uani
O3H O -0.0000 0.30859(6) 0.19141(6) 0.0843 Uani
O3E O 0.19141(6) 0.30859(6) 0.0000 0.0843 Uani
O4K O 0.41362(8) -0.0000 0.08638(8) 0.1287 Uani
O4P O 0.08638(8) 0.0000 0.41362(8) 0.1287 Uani
O4R O -0.0000 0.08638(8) 0.41362(8) 0.1287 Uani
O4H O 0.0000 0.41362(8) 0.08638(8) 0.1287 Uani
O4E O 0.08638(8) 0.41362(8) 0.0000 0.1287 Uani
C1GD C 0.33436(7) 0.03836(7) 0.11298(7) 0.0665 Uani
C1P C 0.11298(7) 0.03836(7) 0.33436(7) 0.0665 Uani
C1ID C 0.03836(7) 0.11298(7) 0.33436(7) 0.0665 Uani
C1H C 0.03836(7) 0.33436(7) 0.11298(7) 0.0665 Uani
C1YC C 0.11298(7) 0.33436(7) 0.03836(7) 0.0665 Uani
C1AC C 0.38702(7) 0.16564(7) -0.03836(7) 0.0665 Uani
C1TF C 0.46164(7) 0.16564(7) -0.11298(7) 0.0665 Uani
C1KC C 0.46164(7) 0.38702(7) -0.33436(7) 0.0665 Uani
C1BG C 0.38702(7) 0.46164(7) -0.33436(7) 0.0665 Uani
C1IC C 0.16564(7) 0.46164(7) -0.11298(7) 0.0665 Uani
C1LF C 0.16564(7) 0.38702(7) -0.03836(7) 0.0665 Uani
C1TC C 0.33436(7) 0.11298(7) -0.03836(7) 0.0665 Uani
C1M C 0.33436(7) 0.03836(7) -0.11298(7) 0.0665 Uani
C1ND C 0.11298(7) 0.03836(7) -0.33436(7) 0.0665 Uani
C1S C 0.03836(7) 0.11298(7) -0.33436(7) 0.0665 Uani
C1BD C 0.03836(7) 0.33436(7) -0.11298(7) 0.0665 Uani
C1E C 0.11298(7) 0.33436(7) -0.03836(7) 0.0665 Uani
C1QF C 0.38702(7) 0.16564(7) 0.03836(7) 0.0665 Uani
C1DC C 0.46164(7) 0.16564(7) 0.11298(7) 0.0665 Uani
C1EG C 0.46164(7) 0.38702(7) 0.33436(7) 0.0665 Uani
C1PC C 0.38702(7) 0.46164(7) 0.33436(7) 0.0665 Uani
C1YF C 0.16564(7) 0.46164(7) 0.11298(7) 0.0665 Uani
C1VB C 0.16564(7) 0.38702(7) 0.03836(7) 0.0665 Uani
C2P C 0.07478(7) 0.07478(7) 0.33288(10) 0.0673 Uani
C2H C 0.07478(7) 0.33288(10) 0.07478(7) 0.0673 Uani
C2AC C 0.42522(7) 0.16712(10) -0.07478(7) 0.0673 Uani
C2KC C 0.42522(7) 0.42522(7) -0.33288(10) 0.0673 Uani
C2IC C 0.16712(10) 0.42522(7) -0.07478(7) 0.0673 Uani
C2M C 0.33288(10) 0.07478(7) -0.07478(7) 0.0673 Uani
C2S C 0.07478(7) 0.07478(7) -0.33288(10) 0.0673 Uani
C2E C 0.07478(7) 0.33288(10) -0.07478(7) 0.0673 Uani
C2DC C 0.42522(7) 0.16712(10) 0.07478(7) 0.0673 Uani
C2PC C 0.42522(7) 0.42522(7) 0.33288(10) 0.0673 Uani
C2VB C 0.16712(10) 0.42522(7) 0.07478(7) 0.0673 Uani
H1P H 0.0679 0.0679 0.3506 0.0810 Uiso
H1H H 0.0679 0.3506 0.0679 0.0810 Uiso
H1AC H 0.4321 0.1494 -0.0679 0.0810 Uiso
H1KC H 0.4321 0.4321 -0.3506 0.0810 Uiso
H1IC H 0.1494 0.4321 -0.0679 0.0810 Uiso
H1M H 0.3506 0.0679 -0.0679 0.0810 Uiso
H1S H 0.0679 0.0679 -0.3506 0.0810 Uiso
H1E H 0.0679 0.3506 -0.0679 0.0810 Uiso
H1DC H 0.4321 0.1494 0.0679 0.0810 Uiso
H1PC H 0.4321 0.4321 0.3506 0.0810 Uiso
H1VB H 0.1494 0.4321 0.0679 0.0810 Uiso
C3GD C 0.31961(8) 0.06189(7) 0.09804(7) 0.0759 Uani
C3P C 0.09804(7) 0.06189(7) 0.31961(8) 0.0759 Uani
C3ID C 0.06189(7) 0.09804(7) 0.31961(8) 0.0759 Uani
C3H C 0.06189(7) 0.31961(8) 0.09804(7) 0.0759 Uani
C3YC C 0.09804(7) 0.31961(8) 0.06189(7) 0.0759 Uani
C3AC C 0.40196(7) 0.18039(8) -0.06189(7) 0.0759 Uani
C3TF C 0.43811(7) 0.18039(8) -0.09804(7) 0.0759 Uani
C3KC C 0.43811(7) 0.40196(7) -0.31961(8) 0.0759 Uani
C3BG C 0.40196(7) 0.43811(7) -0.31961(8) 0.0759 Uani
C3IC C 0.18039(8) 0.43811(7) -0.09804(7) 0.0759 Uani
C3LF C 0.18039(8) 0.40196(7) -0.06189(7) 0.0759 Uani
C3TC C 0.31961(8) 0.09804(7) -0.06189(7) 0.0759 Uani
C3M C 0.31961(8) 0.06189(7) -0.09804(7) 0.0759 Uani
C3ND C 0.09804(7) 0.06189(7) -0.31961(8) 0.0759 Uani
C3S C 0.06189(7) 0.09804(7) -0.31961(8) 0.0759 Uani
C3BD C 0.06189(7) 0.31961(8) -0.09804(7) 0.0759 Uani
C3E C 0.09804(7) 0.31961(8) -0.06189(7) 0.0759 Uani
C3QF C 0.40196(7) 0.18039(8) 0.06189(7) 0.0759 Uani
C3DC C 0.43811(7) 0.18039(8) 0.09804(7) 0.0759 Uani
C3EG C 0.43811(7) 0.40196(7) 0.31961(8) 0.0759 Uani
C3PC C 0.40196(7) 0.43811(7) 0.31961(8) 0.0759 Uani
C3YF C 0.18039(8) 0.43811(7) 0.09804(7) 0.0759 Uani
C3VB C 0.18039(8) 0.40196(7) 0.06189(7) 0.0759 Uani
C4GD C 0.29347(10) 0.07141(9) 0.10735(9) 0.1027 Uani
C4P C 0.10735(9) 0.07141(9) 0.29347(10) 0.1027 Uani
C4ID C 0.07141(9) 0.10735(9) 0.29347(10) 0.1027 Uani
C4H C 0.07141(9) 0.29347(10) 0.10735(9) 0.1027 Uani
C4YC C 0.10735(9) 0.29347(10) 0.07141(9) 0.1027 Uani
C4AC C 0.39265(9) 0.20653(10) -0.07141(9) 0.1027 Uani
C4TF C 0.42859(9) 0.20653(10) -0.10735(9) 0.1027 Uani
C4KC C 0.42859(9) 0.39265(9) -0.29347(10) 0.1027 Uani
C4BG C 0.39265(9) 0.42859(9) -0.29347(10) 0.1027 Uani
C4IC C 0.20653(10) 0.42859(9) -0.10735(9) 0.1027 Uani
C4LF C 0.20653(10) 0.39265(9) -0.07141(9) 0.1027 Uani
C4TC C 0.29347(10) 0.10735(9) -0.07141(9) 0.1027 Uani
C4M C 0.29347(10) 0.07141(9) -0.10735(9) 0.1027 Uani
C4ND C 0.10735(9) 0.07141(9) -0.29347(10) 0.1027 Uani
C4S C 0.07141(9) 0.10735(9) -0.29347(10) 0.1027 Uani
C4BD C 0.07141(9) 0.29347(10) -0.10735(9) 0.1027 Uani
C4E C 0.10735(9) 0.29347(10) -0.07141(9) 0.1027 Uani
C4QF C 0.39265(9) 0.20653(10) 0.07141(9) 0.1027 Uani
C4DC C 0.42859(9) 0.20653(10) 0.10735(9) 0.1027 Uani
C4EG C 0.42859(9) 0.39265(9) 0.29347(10) 0.1027 Uani
C4PC C 0.39265(9) 0.42859(9) 0.29347(10) 0.1027 Uani
C4YF C 0.20653(10) 0.42859(9) 0.10735(9) 0.1027 Uani
C4VB C 0.20653(10) 0.39265(9) 0.07141(9) 0.1027 Uani
H2GD H 0.2845 0.0622 0.1230 0.1230 Uiso
H2ID H 0.0622 0.1230 0.2845 0.1230 Uiso
H2P H 0.1230 0.0622 0.2845 0.1230 Uiso
H2YC H 0.1230 0.2845 0.0622 0.1230 Uiso
H2H H 0.0622 0.2845 0.1230 0.1230 Uiso
H2AC H 0.3770 0.2155 -0.0622 0.1230 Uiso
H2TF H 0.4378 0.2155 -0.1230 0.1230 Uiso
H2BG H 0.3770 0.4378 -0.2845 0.1230 Uiso
H2KC H 0.4378 0.3770 -0.2845 0.1230 Uiso
H2LF H 0.2155 0.3770 -0.0622 0.1230 Uiso
H2IC H 0.2155 0.4378 -0.1230 0.1230 Uiso
H2TC H 0.2845 0.1230 -0.0622 0.1230 Uiso
H2M H 0.2845 0.0622 -0.1230 0.1230 Uiso
H2S H 0.0622 0.1230 -0.2845 0.1230 Uiso
H2ND H 0.1230 0.0622 -0.2845 0.1230 Uiso
H2E H 0.1230 0.2845 -0.0622 0.1230 Uiso
H2BD H 0.0622 0.2845 -0.1230 0.1230 Uiso
H2QF H 0.3770 0.2155 0.0622 0.1230 Uiso
H2DC H 0.4378 0.2155 0.1230 0.1230 Uiso
H2PC H 0.3770 0.4378 0.2845 0.1230 Uiso
H2EG H 0.4378 0.3770 0.2845 0.1230 Uiso
H2VB H 0.2155 0.3770 0.0622 0.1230 Uiso
H2YF H 0.2155 0.4378 0.1230 0.1230 Uiso
C5P C 0.09422(12) 0.09422(12) 0.28000(14) 0.1110 Uani
C5H C 0.09422(12) 0.28000(14) 0.09422(12) 0.1110 Uani
C5AC C 0.40578(12) 0.22000(14) -0.09422(12) 0.1110 Uani
C5KC C 0.40578(12) 0.40578(12) -0.28000(14) 0.1110 Uani
C5IC C 0.22000(14) 0.40578(12) -0.09422(12) 0.1110 Uani
C5M C 0.28000(14) 0.09422(12) -0.09422(12) 0.1110 Uani
C5S C 0.09422(12) 0.09422(12) -0.28000(14) 0.1110 Uani
C5E C 0.09422(12) 0.28000(14) -0.09422(12) 0.1110 Uani
C5DC C 0.40578(12) 0.22000(14) 0.09422(12) 0.1110 Uani
C5PC C 0.40578(12) 0.40578(12) 0.28000(14) 0.1110 Uani
C5VB C 0.22000(14) 0.40578(12) 0.09422(12) 0.1110 Uani
C6P C 0.10416(13) 0.10416(13) 0.25203(17) 0.1200 Uiso
C6H C 0.10416(13) 0.25203(17) 0.10416(13) 0.1200 Uiso
C6AC C 0.39584(13) 0.24797(17) -0.10416(13) 0.1200 Uiso
C6KC C 0.39584(13) 0.39584(13) -0.25203(17) 0.1200 Uiso
C6IC C 0.24797(17) 0.39584(13) -0.10416(13) 0.1200 Uiso
C6M C 0.25203(17) 0.10416(13) -0.10416(13) 0.1200 Uiso
C6S C 0.10416(13) 0.10416(13) -0.25203(17) 0.1200 Uiso
C6E C 0.10416(13) 0.25203(17) -0.10416(13) 0.1200 Uiso
C6DC C 0.39584(13) 0.24797(17) 0.10416(13) 0.1200 Uiso
C6PC C 0.39584(13) 0.39584(13) 0.25203(17) 0.1200 Uiso
C6VB C 0.24797(17) 0.39584(13) 0.10416(13) 0.1200 Uiso
C7GD C 0.2455(2) 0.1324(2) 0.1023(2) 0.1070 Uiso
C7P C 0.1023(2) 0.1324(2) 0.2455(2) 0.1070 Uiso
C7ID C 0.1324(2) 0.1023(2) 0.2455(2) 0.1070 Uiso
C7H C 0.1324(2) 0.2455(2) 0.1023(2) 0.1070 Uiso
C7YC C 0.1023(2) 0.2455(2) 0.1324(2) 0.1070 Uiso
C7AC C 0.3977(2) 0.2545(2) -0.1324(2) 0.1070 Uiso
C7TF C 0.3676(2) 0.2545(2) -0.1023(2) 0.1070 Uiso
C7KC C 0.3676(2) 0.3977(2) -0.2455(2) 0.1070 Uiso
C7BG C 0.3977(2) 0.3676(2) -0.2455(2) 0.1070 Uiso
C7IC C 0.2545(2) 0.3676(2) -0.1023(2) 0.1070 Uiso
C7LF C 0.2545(2) 0.3977(2) -0.1324(2) 0.1070 Uiso
C7TC C 0.2455(2) 0.1023(2) -0.1324(2) 0.1070 Uiso
C7M C 0.2455(2) 0.1324(2) -0.1023(2) 0.1070 Uiso
C7ND C 0.1023(2) 0.1324(2) -0.2455(2) 0.1070 Uiso
C7S C 0.1324(2) 0.1023(2) -0.2455(2) 0.1070 Uiso
C7BD C 0.1324(2) 0.2455(2) -0.1023(2) 0.1070 Uiso
C7E C 0.1023(2) 0.2455(2) -0.1324(2) 0.1070 Uiso
C7QF C 0.3977(2) 0.2545(2) 0.1324(2) 0.1070 Uiso
C7DC C 0.3676(2) 0.2545(2) 0.1023(2) 0.1070 Uiso
C7EG C 0.3676(2) 0.3977(2) 0.2455(2) 0.1070 Uiso
C7PC C 0.3977(2) 0.3676(2) 0.2455(2) 0.1070 Uiso
C7YF C 0.2545(2) 0.3676(2) 0.1023(2) 0.1070 Uiso
C7VB C 0.2545(2) 0.3977(2) 0.1324(2) 0.1070 Uiso
H3GD H 0.2583 0.1447 0.0927 0.1280 Uiso
H3ID H 0.1447 0.0927 0.2583 0.1280 Uiso
H3P H 0.0927 0.1447 0.2583 0.1280 Uiso
H3YC H 0.0927 0.2583 0.1447 0.1280 Uiso
H3H H 0.1447 0.2583 0.0927 0.1280 Uiso
H3AC H 0.4073 0.2417 -0.1447 0.1280 Uiso
H3TF H 0.3553 0.2417 -0.0927 0.1280 Uiso
H3BG H 0.4073 0.3553 -0.2583 0.1280 Uiso
H3KC H 0.3553 0.4073 -0.2583 0.1280 Uiso
H3LF H 0.2417 0.4073 -0.1447 0.1280 Uiso
H3IC H 0.2417 0.3553 -0.0927 0.1280 Uiso
H3TC H 0.2583 0.0927 -0.1447 0.1280 Uiso
H3M H 0.2583 0.1447 -0.0927 0.1280 Uiso
H3S H 0.1447 0.0927 -0.2583 0.1280 Uiso
H3ND H 0.0927 0.1447 -0.2583 0.1280 Uiso
H3E H 0.0927 0.2583 -0.1447 0.1280 Uiso
H3BD H 0.1447 0.2583 -0.0927 0.1280 Uiso
H3QF H 0.4073 0.2417 0.1447 0.1280 Uiso
H3DC H 0.3553 0.2417 0.0927 0.1280 Uiso
H3PC H 0.4073 0.3553 0.2583 0.1280 Uiso
H3EG H 0.3553 0.4073 0.2583 0.1280 Uiso
H3VB H 0.2417 0.4073 0.1447 0.1280 Uiso
H3YF H 0.2417 0.3553 0.0927 0.1280 Uiso
C8GD C 0.2197(3) 0.1443(3) 0.1145(3) 0.1440 Uiso
C8P C 0.1145(3) 0.1443(3) 0.2197(3) 0.1440 Uiso
C8ID C 0.1443(3) 0.1145(3) 0.2197(3) 0.1440 Uiso
C8H C 0.1443(3) 0.2197(3) 0.1145(3) 0.1440 Uiso
C8YC C 0.1145(3) 0.2197(3) 0.1443(3) 0.1440 Uiso
C8AC C 0.3855(3) 0.2803(3) -0.1443(3) 0.1440 Uiso
C8TF C 0.3557(3) 0.2803(3) -0.1145(3) 0.1440 Uiso
C8KC C 0.3557(3) 0.3855(3) -0.2197(3) 0.1440 Uiso
C8BG C 0.3855(3) 0.3557(3) -0.2197(3) 0.1440 Uiso
C8IC C 0.2803(3) 0.3557(3) -0.1145(3) 0.1440 Uiso
C8LF C 0.2803(3) 0.3855(3) -0.1443(3) 0.1440 Uiso
C8TC C 0.2197(3) 0.1145(3) -0.1443(3) 0.1440 Uiso
C8M C 0.2197(3) 0.1443(3) -0.1145(3) 0.1440 Uiso
C8ND C 0.1145(3) 0.1443(3) -0.2197(3) 0.1440 Uiso
C8S C 0.1443(3) 0.1145(3) -0.2197(3) 0.1440 Uiso
C8BD C 0.1443(3) 0.2197(3) -0.1145(3) 0.1440 Uiso
C8E C 0.1145(3) 0.2197(3) -0.1443(3) 0.1440 Uiso
C8QF C 0.3855(3) 0.2803(3) 0.1443(3) 0.1440 Uiso
C8DC C 0.3557(3) 0.2803(3) 0.1145(3) 0.1440 Uiso
C8EG C 0.3557(3) 0.3855(3) 0.2197(3) 0.1440 Uiso
C8PC C 0.3855(3) 0.3557(3) 0.2197(3) 0.1440 Uiso
C8YF C 0.2803(3) 0.3557(3) 0.1145(3) 0.1440 Uiso
C8VB C 0.2803(3) 0.3855(3) 0.1443(3) 0.1440 Uiso
H4GD H 0.2164 0.1643 0.1151 0.1730 Uiso
H4ID H 0.1643 0.1151 0.2164 0.1730 Uiso
H4P H 0.1151 0.1643 0.2164 0.1730 Uiso
H4YC H 0.1151 0.2164 0.1643 0.1730 Uiso
H4H H 0.1643 0.2164 0.1151 0.1730 Uiso
H4AC H 0.3849 0.2836 -0.1643 0.1730 Uiso
H4TF H 0.3357 0.2836 -0.1151 0.1730 Uiso
H4BG H 0.3849 0.3357 -0.2164 0.1730 Uiso
H4KC H 0.3357 0.3849 -0.2164 0.1730 Uiso
H4LF H 0.2836 0.3849 -0.1643 0.1730 Uiso
H4IC H 0.2836 0.3357 -0.1151 0.1730 Uiso
H4TC H 0.2164 0.1151 -0.1643 0.1730 Uiso
H4M H 0.2164 0.1643 -0.1151 0.1730 Uiso
H4S H 0.1643 0.1151 -0.2164 0.1730 Uiso
H4ND H 0.1151 0.1643 -0.2164 0.1730 Uiso
H4E H 0.1151 0.2164 -0.1643 0.1730 Uiso
H4BD H 0.1643 0.2164 -0.1151 0.1730 Uiso
H4QF H 0.3849 0.2836 0.1643 0.1730 Uiso
H4DC H 0.3357 0.2836 0.1151 0.1730 Uiso
H4PC H 0.3849 0.3357 0.2164 0.1730 Uiso
H4EG H 0.3357 0.3849 0.2164 0.1730 Uiso
H4VB H 0.2836 0.3849 0.1643 0.1730 Uiso
H4YF H 0.2836 0.3357 0.1151 0.1730 Uiso
C9P C 0.12528(19) 0.12528(19) 0.2001(3) 0.1650 Uiso
C9H C 0.12528(19) 0.2001(3) 0.12528(19) 0.1650 Uiso
C9AC C 0.37472(19) 0.2999(3) -0.12528(19) 0.1650 Uiso
C9KC C 0.37472(19) 0.37472(19) -0.2001(3) 0.1650 Uiso
C9IC C 0.2999(3) 0.37472(19) -0.12528(19) 0.1650 Uiso
C9M C 0.2001(3) 0.12528(19) -0.12528(19) 0.1650 Uiso
C9S C 0.12528(19) 0.12528(19) -0.2001(3) 0.1650 Uiso
C9E C 0.12528(19) 0.2001(3) -0.12528(19) 0.1650 Uiso
C9DC C 0.37472(19) 0.2999(3) 0.12528(19) 0.1650 Uiso
C9PC C 0.37472(19) 0.37472(19) 0.2001(3) 0.1650 Uiso
C9VB C 0.2999(3) 0.37472(19) 0.12528(19) 0.1650 Uiso
C10P C 0.1371(2) 0.1371(2) 0.1731(3) 0.1930 Uiso
C10H C 0.1371(2) 0.1731(3) 0.1371(2) 0.1930 Uiso
C10AC C 0.3629(2) 0.3269(3) -0.1371(2) 0.1930 Uiso
C10KC C 0.3629(2) 0.3629(2) -0.1731(3) 0.1930 Uiso
C10IC C 0.3269(3) 0.3629(2) -0.1371(2) 0.1930 Uiso
C10M C 0.1731(3) 0.1371(2) -0.1371(2) 0.1930 Uiso
C10S C 0.1371(2) 0.1371(2) -0.1731(3) 0.1930 Uiso
C10E C 0.1371(2) 0.1731(3) -0.1371(2) 0.1930 Uiso
C10DC C 0.3629(2) 0.3269(3) 0.1371(2) 0.1930 Uiso
C10PC C 0.3629(2) 0.3629(2) 0.1731(3) 0.1930 Uiso
C10VB C 0.3269(3) 0.3629(2) 0.1371(2) 0.1930 Uiso
C11P C 0.1234(3) 0.16155(17) 0.16155(17) 0.1640 Uiso
C11H C 0.16155(17) 0.16155(17) 0.1234(3) 0.1640 Uiso
C11AC C 0.3766(3) 0.33845(17) -0.16155(17) 0.1640 Uiso
C11KC C 0.33845(17) 0.3766(3) -0.16155(17) 0.1640 Uiso
C11IC C 0.33845(17) 0.33845(17) -0.1234(3) 0.1640 Uiso
C11S C 0.16155(17) 0.1234(3) -0.16155(17) 0.1640 Uiso
C11E C 0.1234(3) 0.16155(17) -0.16155(17) 0.1640 Uiso
C11M C 0.16155(17) 0.16155(17) -0.1234(3) 0.1640 Uiso
C11PC C 0.3766(3) 0.33845(17) 0.16155(17) 0.1640 Uiso
C11VB C 0.33845(17) 0.3766(3) 0.16155(17) 0.1640 Uiso
C11DC C 0.33845(17) 0.33845(17) 0.1234(3) 0.1640 Uiso
H5H H 0.1695 0.1695 0.1066 0.1970 Uiso
H5P H 0.1066 0.1695 0.1695 0.1970 Uiso
H5AC H 0.3934 0.3305 -0.1695 0.1970 Uiso
H5IC H 0.3305 0.3305 -0.1066 0.1970 Uiso
H5KC H 0.3305 0.3934 -0.1695 0.1970 Uiso
H5S H 0.1695 0.1066 -0.1695 0.1970 Uiso
H5M H 0.1695 0.1695 -0.1066 0.1970 Uiso
H5E H 0.1066 0.1695 -0.1695 0.1970 Uiso
H5PC H 0.3934 0.3305 0.1695 0.1970 Uiso
H5DC H 0.3305 0.3305 0.1066 0.1970 Uiso
H5VB H 0.3305 0.3934 0.1695 0.1970 Uiso
loop_
_atom_site_aniso_label
_atom_site_aniso_U_11
_atom_site_aniso_U_22
_atom_site_aniso_U_33
_atom_site_aniso_U_23
_atom_site_aniso_U_13
_atom_site_aniso_U_12
Cu1 0.0534(3) 0.0534(3) 0.0435(4) 0.000 0.000 0.0148(3)
Cu2 0.0553(3) 0.0553(3) 0.0457(4) 0.000 0.000 0.0184(3)
O1 0.0811(15) 0.0750(14) 0.0737(14) 0.0222(11) 0.0178(11) 0.0230(12)
O2 0.0842(15) 0.0718(13) 0.0667(13) 0.0208(10) 0.0176(11) 0.0228(11)
O3 0.085(2) 0.085(2) 0.083(3) 0.000 0.000 0.041(3)
O4 0.128(4) 0.128(4) 0.130(5) 0.000 0.000 0.079(4)
C1 0.076(2) 0.0693(18) 0.0541(16) 0.0071(14) 0.0024(14) 0.0097(15)
C2 0.079(3) 0.0615(15) 0.0615(15) 0.0078(19) 0.0033(15) 0.0033(15)
C3 0.086(2) 0.076(2) 0.0656(18) 0.0121(16) 0.0114(16) 0.0200(17)
C4 0.116(3) 0.100(3) 0.092(3) 0.038(2) 0.037(2) 0.044(3)
C5 0.105(4) 0.114(3) 0.114(3) 0.043(4) 0.050(3) 0.050(3)
Cu1K 0.0534 0.0435 0.0534 0 0.0148 0
Cu1P 0.0534 0.0435 0.0534 0 0.0148 0
Cu1R 0.0435 0.0534 0.0534 0.0148 0 0
Cu1H 0.0435 0.0534 0.0534 0.0148 0 0
Cu1E 0.0534 0.0534 0.0435 0 0 0.0148
Cu1NB 0.0435 0.0534 0.0534 0.0148 0 0
Cu1DB 0.0435 0.0534 0.0534 0.0148 0 0
Cu1IA 0.0534 0.0435 0.0534 0 0.0148 0
Cu1NA 0.0534 0.0435 0.0534 0 0.0148 0
Cu1M 0.0534 0.0435 0.0534 0 -0.0148 0
Cu1U 0.0534 0.0435 0.0534 0 -0.0148 0
Cu1S 0.0435 0.0534 0.0534 -0.0148 0 0
Cu1N 0.0435 0.0534 0.0534 -0.0148 0 0
Cu1OB 0.0435 0.0534 0.0534 -0.0148 0 0
Cu1JB 0.0435 0.0534 0.0534 -0.0148 0 0
Cu1KA 0.0534 0.0435 0.0534 0 -0.0148 0
Cu1SA 0.0534 0.0435 0.0534 0 -0.0148 0
Cu2K 0.0553 0.0457 0.0553 0 0.0184 0
Cu2P 0.0553 0.0457 0.0553 0 0.0184 0
Cu2R 0.0457 0.0553 0.0553 0.0184 0 0
Cu2H 0.0457 0.0553 0.0553 0.0184 0 0
Cu2E 0.0553 0.0553 0.0457 0 0 0.0184
Cu2NB 0.0457 0.0553 0.0553 0.0184 0 0
Cu2DB 0.0457 0.0553 0.0553 0.0184 0 0
Cu2IA 0.0553 0.0457 0.0553 0 0.0184 0
Cu2NA 0.0553 0.0457 0.0553 0 0.0184 0
Cu2M 0.0553 0.0457 0.0553 0 -0.0184 0
Cu2U 0.0553 0.0457 0.0553 0 -0.0184 0
Cu2S 0.0457 0.0553 0.0553 -0.0184 0 0
Cu2N 0.0457 0.0553 0.0553 -0.0184 0 0
Cu2OB 0.0457 0.0553 0.0553 -0.0184 0 0
Cu2JB 0.0457 0.0553 0.0553 -0.0184 0 0
Cu2KA 0.0553 0.0457 0.0553 0 -0.0184 0
Cu2SA 0.0553 0.0457 0.0553 0 -0.0184 0
O1GD 0.0811 0.0737 0.075 0.0222 0.023 0.0178
O1P 0.075 0.0737 0.0811 0.0178 0.023 0.0222
O1ID 0.0737 0.075 0.0811 0.023 0.0178 0.0222
O1H 0.0737 0.0811 0.075 0.023 0.0222 0.0178
O1YC 0.075 0.0811 0.0737 0.0178 0.0222 0.023
O1AC 0.075 0.0811 0.0737 0.0178 0.0222 0.023
O1TF 0.0737 0.0811 0.075 0.023 0.0222 0.0178
O1KC 0.0737 0.075 0.0811 0.023 0.0178 0.0222
O1BG 0.075 0.0737 0.0811 0.0178 0.023 0.0222
O1IC 0.0811 0.0737 0.075 0.0222 0.023 0.0178
O1LF 0.0811 0.075 0.0737 0.0222 0.0178 0.023
O1TC 0.0811 0.075 0.0737 -0.0222 -0.0178 0.023
O1M 0.0811 0.0737 0.075 -0.0222 -0.023 0.0178
O1ND 0.075 0.0737 0.0811 -0.0178 -0.023 0.0222
O1S 0.0737 0.075 0.0811 -0.023 -0.0178 0.0222
O1BD 0.0737 0.0811 0.075 -0.023 -0.0222 0.0178
O1E 0.075 0.0811 0.0737 -0.0178 -0.0222 0.023
O1QF 0.075 0.0811 0.0737 -0.0178 -0.0222 0.023
O1DC 0.0737 0.0811 0.075 -0.023 -0.0222 0.0178
O1EG 0.0737 0.075 0.0811 -0.023 -0.0178 0.0222
O1PC 0.075 0.0737 0.0811 -0.0178 -0.023 0.0222
O1YF 0.0811 0.0737 0.075 -0.0222 -0.023 0.0178
O1VB 0.0811 0.075 0.0737 -0.0222 -0.0178 0.023
O1DF 0.075 0.0737 0.0811 0.0178 0.023 0.0222
O1K 0.0811 0.0737 0.075 -0.0222 0.023 -0.0178
O1SB 0.075 0.0737 0.0811 -0.0178 0.023 -0.0222
O1KB 0.0811 0.0737 0.075 0.0222 0.023 0.0178
O1OD 0.075 0.0737 0.0811 -0.0178 0.023 -0.0222
O1YE 0.0811 0.0737 0.075 -0.0222 0.023 -0.0178
O1XD 0.0737 0.0811 0.075 0.023 0.0222 0.0178
O1R 0.0737 0.075 0.0811 0.023 -0.0178 -0.0222
O1JA 0.0737 0.0811 0.075 0.023 -0.0222 -0.0178
O1OA 0.0737 0.075 0.0811 0.023 0.0178 0.0222
O1DD 0.0737 0.0811 0.075 0.023 -0.0222 -0.0178
O1HE 0.0737 0.075 0.0811 0.023 -0.0178 -0.0222
O2GD 0.0842 0.0667 0.0718 0.0208 0.0228 0.0176
O2P 0.0718 0.0667 0.0842 0.0176 0.0228 0.0208
O2ID 0.0667 0.0718 0.0842 0.0228 0.0176 0.0208
O2H 0.0667 0.0842 0.0718 0.0228 0.0208 0.0176
O2YC 0.0718 0.0842 0.0667 0.0176 0.0208 0.0228
O2AC 0.0718 0.0842 0.0667 0.0176 0.0208 0.0228
O2TF 0.0667 0.0842 0.0718 0.0228 0.0208 0.0176
O2KC 0.0667 0.0718 0.0842 0.0228 0.0176 0.0208
O2BG 0.0718 0.0667 0.0842 0.0176 0.0228 0.0208
O2IC 0.0842 0.0667 0.0718 0.0208 0.0228 0.0176
O2LF 0.0842 0.0718 0.0667 0.0208 0.0176 0.0228
O2TC 0.0842 0.0718 0.0667 -0.0208 -0.0176 0.0228
O2M 0.0842 0.0667 0.0718 -0.0208 -0.0228 0.0176
O2ND 0.0718 0.0667 0.0842 -0.0176 -0.0228 0.0208
O2S 0.0667 0.0718 0.0842 -0.0228 -0.0176 0.0208
O2BD 0.0667 0.0842 0.0718 -0.0228 -0.0208 0.0176
O2E 0.0718 0.0842 0.0667 -0.0176 -0.0208 0.0228
O2QF 0.0718 0.0842 0.0667 -0.0176 -0.0208 0.0228
O2DC 0.0667 0.0842 0.0718 -0.0228 -0.0208 0.0176
O2EG 0.0667 0.0718 0.0842 -0.0228 -0.0176 0.0208
O2PC 0.0718 0.0667 0.0842 -0.0176 -0.0228 0.0208
O2YF 0.0842 0.0667 0.0718 -0.0208 -0.0228 0.0176
O2VB 0.0842 0.0718 0.0667 -0.0208 -0.0176 0.0228
O2DF 0.0718 0.0667 0.0842 0.0176 0.0228 0.0208
O2K 0.0842 0.0667 0.0718 -0.0208 0.0228 -0.0176
O2SB 0.0718 0.0667 0.0842 -0.0176 0.0228 -0.0208
O2KB 0.0842 0.0667 0.0718 0.0208 0.0228 0.0176
O2OD 0.0718 0.0667 0.0842 -0.0176 0.0228 -0.0208
O2YE 0.0842 0.0667 0.0718 -0.0208 0.0228 -0.0176
O2XD 0.0667 0.0842 0.0718 0.0228 0.0208 0.0176
O2R 0.0667 0.0718 0.0842 0.0228 -0.0176 -0.0208
O2JA 0.0667 0.0842 0.0718 0.0228 -0.0208 -0.0176
O2OA 0.0667 0.0718 0.0842 0.0228 0.0176 0.0208
O2DD 0.0667 0.0842 0.0718 0.0228 -0.0208 -0.0176
O2HE 0.0667 0.0718 0.0842 0.0228 -0.0176 -0.0208
O3K 0.085 0.083 0.085 0 0.041 0
O3P 0.085 0.083 0.085 0 0.041 0
O3R 0.083 0.085 0.085 0.041 0 0
O3H 0.083 0.085 0.085 0.041 0 0
O3E 0.085 0.085 0.083 0 0 0.041
O4K 0.128 0.13 0.128 0 0.079 0
O4P 0.128 0.13 0.128 0 0.079 0
O4R 0.13 0.128 0.128 0.079 0 0
O4H 0.13 0.128 0.128 0.079 0 0
O4E 0.128 0.128 0.13 0 0 0.079
C1GD 0.076 0.0541 0.0693 0.0071 0.0097 0.0024
C1P 0.0693 0.0541 0.076 0.0024 0.0097 0.0071
C1ID 0.0541 0.0693 0.076 0.0097 0.0024 0.0071
C1H 0.0541 0.076 0.0693 0.0097 0.0071 0.0024
C1YC 0.0693 0.076 0.0541 0.0024 0.0071 0.0097
C1AC 0.0693 0.076 0.0541 0.0024 0.0071 0.0097
C1TF 0.0541 0.076 0.0693 0.0097 0.0071 0.0024
C1KC 0.0541 0.0693 0.076 0.0097 0.0024 0.0071
C1BG 0.0693 0.0541 0.076 0.0024 0.0097 0.0071
C1IC 0.076 0.0541 0.0693 0.0071 0.0097 0.0024
C1LF 0.076 0.0693 0.0541 0.0071 0.0024 0.0097
C1TC 0.076 0.0693 0.0541 -0.0071 -0.0024 0.0097
C1M 0.076 0.0541 0.0693 -0.0071 -0.0097 0.0024
C1ND 0.0693 0.0541 0.076 -0.0024 -0.0097 0.0071
C1S 0.0541 0.0693 0.076 -0.0097 -0.0024 0.0071
C1BD 0.0541 0.076 0.0693 -0.0097 -0.0071 0.0024
C1E 0.0693 0.076 0.0541 -0.0024 -0.0071 0.0097
C1QF 0.0693 0.076 0.0541 -0.0024 -0.0071 0.0097
C1DC 0.0541 0.076 0.0693 -0.0097 -0.0071 0.0024
C1EG 0.0541 0.0693 0.076 -0.0097 -0.0024 0.0071
C1PC 0.0693 0.0541 0.076 -0.0024 -0.0097 0.0071
C1YF 0.076 0.0541 0.0693 -0.0071 -0.0097 0.0024
C1VB 0.076 0.0693 0.0541 -0.0071 -0.0024 0.0097
C2P 0.0615 0.0615 0.079 0.0033 0.0033 0.0078
C2H 0.0615 0.079 0.0615 0.0033 0.0078 0.0033
C2AC 0.0615 0.079 0.0615 0.0033 0.0078 0.0033
C2KC 0.0615 0.0615 0.079 0.0033 0.0033 0.0078
C2IC 0.079 0.0615 0.0615 0.0078 0.0033 0.0033
C2M 0.079 0.0615 0.0615 -0.0078 -0.0033 0.0033
C2S 0.0615 0.0615 0.079 -0.0033 -0.0033 0.0078
C2E 0.0615 0.079 0.0615 -0.0033 -0.0078 0.0033
C2DC 0.0615 0.079 0.0615 -0.0033 -0.0078 0.0033
C2PC 0.0615 0.0615 0.079 -0.0033 -0.0033 0.0078
C2VB 0.079 0.0615 0.0615 -0.0078 -0.0033 0.0033
C3GD 0.086 0.0656 0.076 0.0121 0.02 0.0114
C3P 0.076 0.0656 0.086 0.0114 0.02 0.0121
C3ID 0.0656 0.076 0.086 0.02 0.0114 0.0121
C3H 0.0656 0.086 0.076 0.02 0.0121 0.0114
C3YC 0.076 0.086 0.0656 0.0114 0.0121 0.02
C3AC 0.076 0.086 0.0656 0.0114 0.0121 0.02
C3TF 0.0656 0.086 0.076 0.02 0.0121 0.0114
C3KC 0.0656 0.076 0.086 0.02 0.0114 0.0121
C3BG 0.076 0.0656 0.086 0.0114 0.02 0.0121
C3IC 0.086 0.0656 0.076 0.0121 0.02 0.0114
C3LF 0.086 0.076 0.0656 0.0121 0.0114 0.02
C3TC 0.086 0.076 0.0656 -0.0121 -0.0114 0.02
C3M 0.086 0.0656 0.076 -0.0121 -0.02 0.0114
C3ND 0.076 0.0656 0.086 -0.0114 -0.02 0.0121
C3S 0.0656 0.076 0.086 -0.02 -0.0114 0.0121
C3BD 0.0656 0.086 0.076 -0.02 -0.0121 0.0114
C3E 0.076 0.086 0.0656 -0.0114 -0.0121 0.02
C3QF 0.076 0.086 0.0656 -0.0114 -0.0121 0.02
C3DC 0.0656 0.086 0.076 -0.02 -0.0121 0.0114
C3EG 0.0656 0.076 0.086 -0.02 -0.0114 0.0121
C3PC 0.076 0.0656 0.086 -0.0114 -0.02 0.0121
C3YF 0.086 0.0656 0.076 -0.0121 -0.02 0.0114
C3VB 0.086 0.076 0.0656 -0.0121 -0.0114 0.02
C4GD 0.116 0.092 0.1 0.038 0.044 0.037
C4P 0.1 0.092 0.116 0.037 0.044 0.038
C4ID 0.092 0.1 0.116 0.044 0.037 0.038
C4H 0.092 0.116 0.1 0.044 0.038 0.037
C4YC 0.1 0.116 0.092 0.037 0.038 0.044
C4AC 0.1 0.116 0.092 0.037 0.038 0.044
C4TF 0.092 0.116 0.1 0.044 0.038 0.037
C4KC 0.092 0.1 0.116 0.044 0.037 0.038
C4BG 0.1 0.092 0.116 0.037 0.044 0.038
C4IC 0.116 0.092 0.1 0.038 0.044 0.037
C4LF 0.116 0.1 0.092 0.038 0.037 0.044
C4TC 0.116 0.1 0.092 -0.038 -0.037 0.044
C4M 0.116 0.092 0.1 -0.038 -0.044 0.037
C4ND 0.1 0.092 0.116 -0.037 -0.044 0.038
C4S 0.092 0.1 0.116 -0.044 -0.037 0.038
C4BD 0.092 0.116 0.1 -0.044 -0.038 0.037
C4E 0.1 0.116 0.092 -0.037 -0.038 0.044
C4QF 0.1 0.116 0.092 -0.037 -0.038 0.044
C4DC 0.092 0.116 0.1 -0.044 -0.038 0.037
C4EG 0.092 0.1 0.116 -0.044 -0.037 0.038
C4PC 0.1 0.092 0.116 -0.037 -0.044 0.038
C4YF 0.116 0.092 0.1 -0.038 -0.044 0.037
C4VB 0.116 0.1 0.092 -0.038 -0.037 0.044
C5P 0.114 0.114 0.105 0.05 0.05 0.043
C5H 0.114 0.105 0.114 0.05 0.043 0.05
C5AC 0.114 0.105 0.114 0.05 0.043 0.05
C5KC 0.114 0.114 0.105 0.05 0.05 0.043
C5IC 0.105 0.114 0.114 0.043 0.05 0.05
C5M 0.105 0.114 0.114 -0.043 -0.05 0.05
C5S 0.114 0.114 0.105 -0.05 -0.05 0.043
C5E 0.114 0.105 0.114 -0.05 -0.043 0.05
C5DC 0.114 0.105 0.114 -0.05 -0.043 0.05
C5PC 0.114 0.114 0.105 -0.05 -0.05 0.043
C5VB 0.105 0.114 0.114 -0.043 -0.05 0.05
loop_
_geom_bond_atom_site_label_1
_geom_bond_atom_site_label_2
_geom_bond_site_symmetry_1
_geom_bond_site_symmetry_2
Cu1 O1 1_555 1_555
Cu2 O2 1_555 1_555
O1 C1 1_555 1_555
O2 C1 1_555 1_555
O3 Cu1 1_555 1_555
O4 Cu2 1_555 1_555
C1 C3 1_555 1_555
C2 H1 1_555 1_555
C3 C2 1_555 1_555
C4 C3 1_555 1_555
H2 C4 1_555 1_555
C5 C4 1_555 1_555
C6 C5 1_555 1_555
C7 C6 1_555 1_555
H3 C7 1_555 1_555
C8 C7 1_555 1_555
H4 C8 1_555 1_555
C9 C8 1_555 1_555
C10 C9 1_555 1_555
C11 C10 1_555 1_555
H5 C11 1_555 1_555
Cu1K O1GD 1_555 1_555
Cu1P O1P 1_555 1_555
Cu1R O1ID 1_555 1_555
Cu1H O1H 1_555 1_555
Cu1E O1YC 1_555 1_555
Cu1NB O1TF 1_555 1_555
Cu1DB O1KC 1_555 1_555
Cu1IA O1BG 1_555 1_555
Cu1NA O1IC 1_555 1_555
Cu1M O1M 1_555 1_555
Cu1U O1ND 1_555 1_555
Cu1S O1S 1_555 1_555
Cu1N O1BD 1_555 1_555
Cu1OB O1DC 1_555 1_555
Cu1JB O1EG 1_555 1_555
Cu1KA O1PC 1_555 1_555
Cu1SA O1YF 1_555 1_555
Cu2K O2GD 1_555 1_555
Cu2P O2P 1_555 1_555
Cu2R O2ID 1_555 1_555
Cu2H O2H 1_555 1_555
Cu2E O2YC 1_555 1_555
Cu2NB O2TF 1_555 1_555
Cu2DB O2KC 1_555 1_555
Cu2IA O2BG 1_555 1_555
Cu2NA O2IC 1_555 1_555
Cu2M O2M 1_555 1_555
Cu2U O2ND 1_555 1_555
Cu2S O2S 1_555 1_555
Cu2N O2BD 1_555 1_555
Cu2OB O2DC 1_555 1_555
Cu2JB O2EG 1_555 1_555
Cu2KA O2PC 1_555 1_555
Cu2SA O2YF 1_555 1_555
O1GD C1GD 1_555 1_555
O1P C1P 1_555 1_555
O1ID C1ID 1_555 1_555
O1H C1H 1_555 1_555
O1YC C1YC 1_555 1_555
O1AC Cu1 1_555 1_555
O1TF C1TF 1_555 1_555
O1KC C1KC 1_555 1_555
O1BG C1BG 1_555 1_555
O1IC C1IC 1_555 1_555
O1LF Cu1E 1_555 1_555
O1TC Cu1 1_555 1_555
O1M C1M 1_555 1_555
O1ND C1ND 1_555 1_555
O1S C1S 1_555 1_555
O1BD C1BD 1_555 1_555
O1E Cu1E 1_555 1_555
O1QF Cu1 1_555 1_555
O1DC C1DC 1_555 1_555
O1EG C1EG 1_555 1_555
O1PC C1PC 1_555 1_555
O1YF C1YF 1_555 1_555
O1VB Cu1E 1_555 1_555
O1DF Cu1K 1_555 1_555
O1K Cu1K 1_555 1_555
O1SB Cu1K 1_555 1_555
O1KB Cu1P 1_555 1_555
O1OD Cu1P 1_555 1_555
O1YE Cu1P 1_555 1_555
O1XD Cu1R 1_555 1_555
O1R Cu1R 1_555 1_555
O1JA Cu1R 1_555 1_555
O1OA Cu1H 1_555 1_555
O1DD Cu1H 1_555 1_555
O1HE Cu1H 1_555 1_555
O2GD C1GD 1_555 1_555
O2P C1P 1_555 1_555
O2ID C1ID 1_555 1_555
O2H C1H 1_555 1_555
O2YC C1YC 1_555 1_555
O2AC Cu2 1_555 1_555
O2TF C1TF 1_555 1_555
O2KC C1KC 1_555 1_555
O2BG C1BG 1_555 1_555
O2IC C1IC 1_555 1_555
O2LF Cu2E 1_555 1_555
O2TC Cu2 1_555 1_555
O2M C1M 1_555 1_555
O2ND C1ND 1_555 1_555
O2S C1S 1_555 1_555
O2BD C1BD 1_555 1_555
O2E Cu2E 1_555 1_555
O2QF Cu2 1_555 1_555
O2DC C1DC 1_555 1_555
O2EG C1EG 1_555 1_555
O2PC C1PC 1_555 1_555
O2YF C1YF 1_555 1_555
O2VB Cu2E 1_555 1_555
O2DF Cu2K 1_555 1_555
O2K Cu2K 1_555 1_555
O2SB Cu2K 1_555 1_555
O2KB Cu2P 1_555 1_555
O2OD Cu2P 1_555 1_555
O2YE Cu2P 1_555 1_555
O2XD Cu2R 1_555 1_555
O2R Cu2R 1_555 1_555
O2JA Cu2R 1_555 1_555
O2OA Cu2H 1_555 1_555
O2DD Cu2H 1_555 1_555
O2HE Cu2H 1_555 1_555
O3K Cu1K 1_555 1_555
O3P Cu1P 1_555 1_555
O3R Cu1R 1_555 1_555
O3H Cu1H 1_555 1_555
O3E Cu1E 1_555 1_555
O4K Cu2K 1_555 1_555
O4P Cu2P 1_555 1_555
O4R Cu2R 1_555 1_555
O4H Cu2H 1_555 1_555
O4E Cu2E 1_555 1_555
C1GD C3GD 1_555 1_555
C1P C3P 1_555 1_555
C1ID C3ID 1_555 1_555
C1H C3H 1_555 1_555
C1YC C3YC 1_555 1_555
C1AC O1AC 1_555 1_555
C1TF C3TF 1_555 1_555
C1KC C3KC 1_555 1_555
C1BG C3BG 1_555 1_555
C1IC C3IC 1_555 1_555
C1LF O1LF 1_555 1_555
C1TC O1TC 1_555 1_555
C1M C3M 1_555 1_555
C1ND C3ND 1_555 1_555
C1S C3S 1_555 1_555
C1BD C3BD 1_555 1_555
C1E O1E 1_555 1_555
C1QF O1QF 1_555 1_555
C1DC C3DC 1_555 1_555
C1EG C3EG 1_555 1_555
C1PC C3PC 1_555 1_555
C1YF C3YF 1_555 1_555
C1VB O1VB 1_555 1_555
C2P H1P 1_555 1_555
C2H H1H 1_555 1_555
C2AC H1AC 1_555 1_555
C2KC H1KC 1_555 1_555
C2IC H1IC 1_555 1_555
C2M H1M 1_555 1_555
C2S H1S 1_555 1_555
C2E H1E 1_555 1_555
C2DC H1DC 1_555 1_555
C2PC H1PC 1_555 1_555
C2VB H1VB 1_555 1_555
C3GD C2 1_555 1_555
C3P C2P 1_555 1_555
C3ID C2P 1_555 1_555
C3H C2H 1_555 1_555
C3YC C2H 1_555 1_555
C3AC C1AC 1_555 1_555
C3TF C2AC 1_555 1_555
C3KC C2KC 1_555 1_555
C3BG C2KC 1_555 1_555
C3IC C2IC 1_555 1_555
C3LF C1LF 1_555 1_555
C3TC C1TC 1_555 1_555
C3M C2M 1_555 1_555
C3ND C2S 1_555 1_555
C3S C2S 1_555 1_555
C3BD C2E 1_555 1_555
C3E C1E 1_555 1_555
C3QF C1QF 1_555 1_555
C3DC C2DC 1_555 1_555
C3EG C2PC 1_555 1_555
C3PC C2PC 1_555 1_555
C3YF C2VB 1_555 1_555
C3VB C1VB 1_555 1_555
C4GD C5 1_555 1_555
C4P C3P 1_555 1_555
C4ID C3ID 1_555 1_555
C4H C3H 1_555 1_555
C4YC C3YC 1_555 1_555
C4AC C3AC 1_555 1_555
C4TF C3TF 1_555 1_555
C4KC C3KC 1_555 1_555
C4BG C3BG 1_555 1_555
C4IC C3IC 1_555 1_555
C4LF C3LF 1_555 1_555
C4TC C3TC 1_555 1_555
C4M C3M 1_555 1_555
C4ND C3ND 1_555 1_555
C4S C3S 1_555 1_555
C4BD C3BD 1_555 1_555
C4E C3E 1_555 1_555
C4QF C3QF 1_555 1_555
C4DC C3DC 1_555 1_555
C4EG C3EG 1_555 1_555
C4PC C3PC 1_555 1_555
C4YF C3YF 1_555 1_555
C4VB C3VB 1_555 1_555
H2GD C4GD 1_555 1_555
H2ID C4ID 1_555 1_555
H2P C4P 1_555 1_555
H2YC C4YC 1_555 1_555
H2H C4H 1_555 1_555
H2AC C4AC 1_555 1_555
H2TF C4TF 1_555 1_555
H2BG C4BG 1_555 1_555
H2KC C4KC 1_555 1_555
H2LF C4LF 1_555 1_555
H2IC C4IC 1_555 1_555
H2TC C4TC 1_555 1_555
H2M C4M 1_555 1_555
H2S C4S 1_555 1_555
H2ND C4ND 1_555 1_555
H2E C4E 1_555 1_555
H2BD C4BD 1_555 1_555
H2QF C4QF 1_555 1_555
H2DC C4DC 1_555 1_555
H2PC C4PC 1_555 1_555
H2EG C4EG 1_555 1_555
H2VB C4VB 1_555 1_555
H2YF C4YF 1_555 1_555
C5P C4P 1_555 1_555
C5H C4H 1_555 1_555
C5AC C4AC 1_555 1_555
C5KC C4KC 1_555 1_555
C5IC C4IC 1_555 1_555
C5M C4TC 1_555 1_555
C5S C4ND 1_555 1_555
C5E C4BD 1_555 1_555
C5DC C4QF 1_555 1_555
C5PC C4EG 1_555 1_555
C5VB C4YF 1_555 1_555
C6P C5P 1_555 1_555
C6H C5H 1_555 1_555
C6AC C5AC 1_555 1_555
C6KC C5KC 1_555 1_555
C6IC C5IC 1_555 1_555
C6M C5M 1_555 1_555
C6S C5S 1_555 1_555
C6E C5E 1_555 1_555
C6DC C5DC 1_555 1_555
C6PC C5PC 1_555 1_555
C6VB C5VB 1_555 1_555
C7GD C6 1_555 1_555
C7P C6P 1_555 1_555
C7ID C6P 1_555 1_555
C7H C6H 1_555 1_555
C7YC C6H 1_555 1_555
C7AC C6AC 1_555 1_555
C7TF C6AC 1_555 1_555
C7KC C6KC 1_555 1_555
C7BG C6KC 1_555 1_555
C7IC C6IC 1_555 1_555
C7LF C6IC 1_555 1_555
C7TC C6M 1_555 1_555
C7M C6M 1_555 1_555
C7ND C6S 1_555 1_555
C7S C6S 1_555 1_555
C7BD C6E 1_555 1_555
C7E C6E 1_555 1_555
C7QF C6DC 1_555 1_555
C7DC C6DC 1_555 1_555
C7EG C6PC 1_555 1_555
C7PC C6PC 1_555 1_555
C7YF C6VB 1_555 1_555
C7VB C6VB 1_555 1_555
H3GD C7GD 1_555 1_555
H3ID C7ID 1_555 1_555
H3P C7P 1_555 1_555
H3YC C7YC 1_555 1_555
H3H C7H 1_555 1_555
H3AC C7AC 1_555 1_555
H3TF C7TF 1_555 1_555
H3BG C7BG 1_555 1_555
H3KC C7KC 1_555 1_555
H3LF C7LF 1_555 1_555
H3IC C7IC 1_555 1_555
H3TC C7TC 1_555 1_555
H3M C7M 1_555 1_555
H3S C7S 1_555 1_555
H3ND C7ND 1_555 1_555
H3E C7E 1_555 1_555
H3BD C7BD 1_555 1_555
H3QF C7QF 1_555 1_555
H3DC C7DC 1_555 1_555
H3PC C7PC 1_555 1_555
H3EG C7EG 1_555 1_555
H3VB C7VB 1_555 1_555
H3YF C7YF 1_555 1_555
C8GD C9 1_555 1_555
C8P C7P 1_555 1_555
C8ID C7ID 1_555 1_555
C8H C7H 1_555 1_555
C8YC C7YC 1_555 1_555
C8AC C7AC 1_555 1_555
C8TF C7TF 1_555 1_555
C8KC C7KC 1_555 1_555
C8BG C7BG 1_555 1_555
C8IC C7IC 1_555 1_555
C8LF C7LF 1_555 1_555
C8TC C7TC 1_555 1_555
C8M C7M 1_555 1_555
C8ND C7ND 1_555 1_555
C8S C7S 1_555 1_555
C8BD C7BD 1_555 1_555
C8E C7E 1_555 1_555
C8QF C7QF 1_555 1_555
C8DC C7DC 1_555 1_555
C8EG C7EG 1_555 1_555
C8PC C7PC 1_555 1_555
C8YF C7YF 1_555 1_555
C8VB C7VB 1_555 1_555
H4GD C8GD 1_555 1_555
H4ID C8ID 1_555 1_555
H4P C8P 1_555 1_555
H4YC C8YC 1_555 1_555
H4H C8H 1_555 1_555
H4AC C8AC 1_555 1_555
H4TF C8TF 1_555 1_555
H4BG C8BG 1_555 1_555
H4KC C8KC 1_555 1_555
H4LF C8LF 1_555 1_555
H4IC C8IC 1_555 1_555
H4TC C8TC 1_555 1_555
H4M C8M 1_555 1_555
H4S C8S 1_555 1_555
H4ND C8ND 1_555 1_555
H4E C8E 1_555 1_555
H4BD C8BD 1_555 1_555
H4QF C8QF 1_555 1_555
H4DC C8DC 1_555 1_555
H4PC C8PC 1_555 1_555
H4EG C8EG 1_555 1_555
H4VB C8VB 1_555 1_555
H4YF C8YF 1_555 1_555
C9P C8P 1_555 1_555
C9H C8H 1_555 1_555
C9AC C8AC 1_555 1_555
C9KC C8KC 1_555 1_555
C9IC C8IC 1_555 1_555
C9M C8TC 1_555 1_555
C9S C8ND 1_555 1_555
C9E C8BD 1_555 1_555
C9DC C8QF 1_555 1_555
C9PC C8EG 1_555 1_555
C9VB C8YF 1_555 1_555
C10P C11 1_555 1_555
C10H C9H 1_555 1_555
C10AC C9AC 1_555 1_555
C10KC C9KC 1_555 1_555
C10IC C9IC 1_555 1_555
C10M C9M 1_555 1_555
C10S C9S 1_555 1_555
C10E C9E 1_555 1_555
C10DC C9DC 1_555 1_555
C10PC C9PC 1_555 1_555
C10VB C9VB 1_555 1_555
C11P C10P 1_555 1_555
C11H C10 1_555 1_555
C11AC C10AC 1_555 1_555
C11KC C10KC 1_555 1_555
C11IC C10AC 1_555 1_555
C11S C10M 1_555 1_555
C11E C10S 1_555 1_555
C11M C10M 1_555 1_555
C11PC C10DC 1_555 1_555
C11VB C10PC 1_555 1_555
C11DC C10DC 1_555 1_555
H5H C11H 1_555 1_555
H5P C11P 1_555 1_555
H5AC C11AC 1_555 1_555
H5IC C11IC 1_555 1_555
H5KC C11KC 1_555 1_555
H5S C11S 1_555 1_555
H5M C11M 1_555 1_555
H5E C11E 1_555 1_555
H5PC C11PC 1_555 1_555
H5DC C11DC 1_555 1_555
H5VB C11VB 1_555 1_555
O2AC C1AC 1_555 1_555
O2LF C1LF 1_555 1_555
O2TC C1TC 1_555 1_555
O2E C1E 1_555 1_555
O2QF C1QF 1_555 1_555
O2VB C1VB 1_555 1_555
C2AC C3AC 1_555 1_555
C2IC C3LF 1_555 1_555
C2M C3TC 1_555 1_555
C2E C3E 1_555 1_555
C2DC C3QF 1_555 1_555
C2VB C3VB 1_555 1_555
C3GD C4GD 1_555 1_555
C4ID C5P 1_555 1_555
C4YC C5H 1_555 1_555
C4TF C5AC 1_555 1_555
C4BG C5KC 1_555 1_555
C4LF C5IC 1_555 1_555
C4M C5M 1_555 1_555
C4S C5S 1_555 1_555
C4E C5E 1_555 1_555
C4DC C5DC 1_555 1_555
C4PC C5PC 1_555 1_555
C4VB C5VB 1_555 1_555
C7GD C8GD 1_555 1_555
C8ID C9P 1_555 1_555
C8YC C9H 1_555 1_555
C8TF C9AC 1_555 1_555
C8BG C9KC 1_555 1_555
C8LF C9IC 1_555 1_555
C8M C9M 1_555 1_555
C8S C9S 1_555 1_555
C8E C9E 1_555 1_555
C8DC C9DC 1_555 1_555
C8PC C9PC 1_555 1_555
C8VB C9VB 1_555 1_555
C9P C10P 1_555 1_555
C10H C11P 1_555 1_555
C10H C11H 1_555 1_555
C10KC C11AC 1_555 1_555
C10IC C11KC 1_555 1_555
C10IC C11IC 1_555 1_555
C10S C11S 1_555 1_555
C10E C11E 1_555 1_555
C10E C11M 1_555 1_555
C10PC C11PC 1_555 1_555
C10VB C11VB 1_555 1_555
C10VB C11DC 1_555 1_555

#END
