
#######################################################################
#
#                 Cambridge Crystallographic Data Centre
#                                CCDC 
#
#######################################################################
#
# If this CIF has been generated from an entry in the Cambridge 
# Structural Database, then it will include bibliographic, chemical, 
# crystal, experimental, refinement or atomic coordinate data resulting 
# from the CCDC's data processing and validation procedures.
#
#######################################################################

data_FIDMIP
_chemical_formula_moiety         'C18 H189 N24 O177 S14 Zn83'
_symmetry_cell_setting           trigonal
_symmetry_space_group_name_H-M   'P -3'
_symmetry_Int_Tables_number      147
_space_group_name_Hall           '-P 3'
loop_
_symmetry_equiv_pos_site_id
_symmetry_equiv_pos_as_xyz
1 x,y,z
2 -y,x-y,z
3 -x+y,-x,z
4 -x,-y,-z
5 y,-x+y,-z
6 x-y,x,-z
_cell_length_a                   21.926(2)
_cell_length_b                   21.926(2)
_cell_length_c                   10.5643(9)
_cell_angle_alpha                90
_cell_angle_beta                 90
_cell_angle_gamma                120
_cell_volume                     4398.35
loop_
_atom_site_label
_atom_site_type_symbol
_atom_site_fract_x
_atom_site_fract_y
_atom_site_fract_z
O25 O 0.3862(2) 0.35453(19) 0.4058(4)
O26 O 0.5631(2) 0.4840(2) -0.5838(4)
O27 O 0.5000(2) 0.3219(2) 0.3409(4)
O28 O 0.0819(3) 0.1767(3) 0.4316(5)
O29 O 0.6403(2) 0.4082(3) -0.4029(5)
O30 O 0.0371(3) 0.2631(3) 0.3311(5)
Zn1 Zn 0.0000 -0.0000 -0.16991(7)
Zn2 Zn 0.42898(2) 0.14121(2) -0.17286(4)
Zn3 Zn 0.43050(2) 0.14595(2) 0.16682(4)
Zn4 Zn 0.28788(2) 0.14027(2) -0.00628(5)
Zn5 Zn 0.42503(2) 0.28093(2) -0.00676(5)
Zn6 Zn 0.28833(2) 0.29106(2) -0.00768(4)
Zn7 Zn 0.42647(2) 0.43184(2) 0.00135(4)
Zn8 Zn 0.13812(2) 0.14115(2) -0.00656(5)
Zn9 Zn 0.57647(2) 0.42993(2) 0.00115(4)
Zn10 Zn 0.56597(2) 0.28388(2) -0.01616(5)
S1 S 0.23785(5) 0.19104(5) 0.26495(10)
S2 S 0.47421(5) 0.38230(5) -0.27628(10)
S3 S 0.6667 0.3333 0.26633(16)
O1 O 0.23742(13) 0.19051(13) 0.1223(3)
O2 O 0.6667 0.3333 0.1232(4)
O3 O 0.47345(13) 0.38108(13) -0.1334(3)
O4 O 0.61383(15) 0.26278(15) 0.3109(3)
O5 O 0.31114(15) 0.22048(16) 0.3068(3)
O6 O 0.49885(16) 0.33527(15) -0.3212(3)
O7 O 0.40222(15) 0.35882(17) -0.3214(3)
O8 O 0.19324(15) 0.11861(15) 0.3088(3)
O9 O 0.52224(15) 0.45557(15) -0.3168(3)
O10 O 0.20999(17) 0.23572(16) 0.3080(3)
O11 O 0.52814(14) 0.19615(14) 0.1047(3)
H1 H 0.550(3) 0.211(3) 0.177(3)
O12 O 0.47421(14) 0.24018(14) -0.1253(3)
H2 H 0.483(2) 0.258(2) -0.194(4)
O13 O 0.33134(14) 0.09135(14) -0.1136(3)
H3 H 0.307(2) 0.081(2) -0.184(3)
O14 O 0.37804(13) 0.19122(13) 0.1086(3)
H4 H 0.368(2) 0.202(2) 0.179(2)
O15 O 0.48100(13) 0.09540(13) -0.1136(3)
H5 H 0.4967 0.0813 -0.1917
O16 O 0.33608(14) 0.38288(14) -0.1165(3)
H6 H 0.346(3) 0.373(3) -0.191(3)
O17 O 0.04646(14) 0.09806(14) -0.1135(3)
H7 H 0.052(2) 0.119(2) -0.183(3)
O18 O 0.38334(13) 0.33606(13) 0.0846(3)
H8 H 0.3822 0.3347 0.1792
O19 O 0.19228(13) 0.23867(13) -0.0908(3)
H9 H 0.1910 0.2401 -0.1854
O20 O 0.52025(14) 0.33235(13) 0.0787(3)
H10 H 0.5203 0.3298 0.1733
O21 O 0.52386(13) 0.47290(13) 0.0895(3)
H11 H 0.5244 0.4736 0.1841
O22 O 0.18958(13) 0.09686(13) -0.0920(3)
H12 H 0.1880 0.0942 -0.1865
O23 O 0.62191(13) 0.38157(13) -0.0992(3)
H13 H 0.6204 0.3835 -0.1937
O24 O 0.32946(14) 0.23495(13) -0.0938(3)
H14 H 0.3296 0.2346 -0.1884
N1 N 0.0137(7) 0.0195(4) -0.3597(7)
C1 C -0.0173(9) -0.0446(7) -0.4339(9)
H18 H 0.0181 -0.0589 -0.4515
N2 N 0.44190(19) 0.1594(2) -0.6441(3)
H19 H 0.4681 0.1400 -0.6158
H20 H 0.4673 0.2070 -0.6275
C2 C 0.3789(3) 0.1302(3) -0.5735(4)
H21 H 0.3566 0.0782 -0.5745
H22 H 0.3460 0.1426 -0.6148
C3 C 0.3904(3) 0.1562(3) -0.4323(4)
H23 H 0.4150 0.2083 -0.4307
H24 H 0.3440 0.1384 -0.3908
N3 N 0.43133(19) 0.13206(19) -0.3625(3)
H25 H 0.4774 0.1573 -0.3891
H26 H 0.4149 0.0855 -0.3821
Zn1C Zn 0.0000 -0.0000 -0.83009(7)
Zn1C_2 Zn 0.0000 0.0000 0.16991(7)
Zn2E Zn 0.28777(3) 0.42898(2) 0.17286(4)
Zn2A Zn -0.14121(2) 0.28777(3) -0.17286(4)
Zn2B Zn -0.28777(3) -0.42898(2) -0.17286(4)
Zn2C Zn -0.42898(2) -0.14121(2) 0.17286(4)
Zn2D Zn 0.14121(2) -0.28777(3) 0.17286(4)
Zn2_2 Zn 0.42898(2) 0.14121(2) 0.82714(4)
Zn3A Zn -0.14595(2) 0.28455(3) 0.16682(4)
Zn3B Zn -0.28455(3) -0.43050(2) 0.16682(4)
Zn3E Zn 0.28455(3) 0.43050(2) -0.16682(4)
Zn3C Zn -0.43050(2) -0.14595(2) -0.16682(4)
Zn3D Zn 0.14595(2) -0.28455(3) -0.16682(4)
Zn3_2 Zn 0.43050(2) 0.14595(2) -0.83318(4)
Zn3E_2 Zn 0.28455(3) 0.43050(2) 0.83318(4)
Zn3A_2 Zn -0.14595(2) 0.28455(3) -0.83318(4)
Zn3B_2 Zn -0.28455(3) -0.43050(2) -0.83318(4)
Zn3C_2 Zn -0.43050(2) -0.14595(2) 0.83318(4)
Zn4A Zn -0.14027(2) 0.14761(3) -0.00628(5)
Zn4B Zn -0.14761(3) -0.28788(2) -0.00628(5)
Zn4E Zn 0.14761(3) 0.28788(2) 0.00628(5)
Zn4C Zn -0.28788(2) -0.14027(2) 0.00628(5)
Zn4D Zn 0.14027(2) -0.14761(3) 0.00628(5)
Zn5A Zn -0.28093(2) 0.14410(3) -0.00676(5)
Zn5B Zn -0.14410(3) -0.42503(2) -0.00676(5)
Zn5E Zn 0.14410(3) 0.42503(2) 0.00676(5)
Zn5C Zn -0.42503(2) -0.28093(2) 0.00676(5)
Zn5D Zn 0.28093(2) -0.14410(3) 0.00676(5)
Zn6A Zn -0.29106(2) -0.00273(3) -0.00768(4)
Zn6B Zn 0.00273(3) -0.28833(2) -0.00768(4)
Zn6E Zn -0.00273(3) 0.28833(2) 0.00768(4)
Zn6C Zn -0.28833(2) -0.29106(2) 0.00768(4)
Zn6D Zn 0.29106(2) 0.00273(3) 0.00768(4)
Zn7A Zn -0.43184(2) -0.00537(3) 0.00135(4)
Zn7B Zn 0.00537(3) -0.42647(2) 0.00135(4)
Zn7E Zn -0.00537(3) 0.42647(2) -0.00135(4)
Zn7C Zn -0.42647(2) -0.43184(2) -0.00135(4)
Zn7D Zn 0.43184(2) 0.00537(3) -0.00135(4)
Zn7C_2 Zn 0.57353(2) 0.56816(2) -0.00135(4)
Zn7D_2 Zn -0.56816(2) 0.00537(3) -0.00135(4)
Zn7E_2 Zn -0.00537(3) -0.57353(2) -0.00135(4)
Zn8A Zn -0.14115(2) -0.00303(3) -0.00656(5)
Zn8B Zn 0.00303(3) -0.13812(2) -0.00656(5)
Zn8E Zn -0.00303(3) 0.13812(2) 0.00656(5)
Zn8C Zn -0.13812(2) -0.14115(2) 0.00656(5)
Zn8D Zn 0.14115(2) 0.00303(3) 0.00656(5)
Zn8B_2 Zn 0.00303(3) -0.13812(2) -1.00656(5)
Zn8C_2 Zn -0.13812(2) -0.14115(2) -0.99344(5)
Zn8_2 Zn 0.13812(2) 0.14115(2) -1.00656(5)
Zn8D_2 Zn 0.14115(2) 0.00303(3) -0.99344(5)
Zn9A Zn -0.42993(2) 0.14654(3) 0.00115(4)
Zn9B Zn -0.14654(3) -0.57647(2) 0.00115(4)
Zn9E Zn 0.14654(3) 0.57647(2) -0.00115(4)
Zn9C Zn -0.57647(2) -0.42993(2) -0.00115(4)
Zn9D Zn 0.42993(2) -0.14654(3) -0.00115(4)
Zn9A_2 Zn 0.57007(2) 0.14654(3) 0.00115(4)
Zn9C_2 Zn 0.42353(2) 0.57007(2) -0.00115(4)
Zn9B_2 Zn -0.14654(3) 0.42353(2) 0.00115(4)
Zn9_2 Zn -0.42353(2) -0.57007(2) 0.00115(4)
Zn9D_2 Zn -0.57007(2) -0.14654(3) -0.00115(4)
Zn9E_2 Zn 0.14654(3) -0.42353(2) -0.00115(4)
Zn10A Zn -0.28388(2) 0.28209(3) -0.01616(5)
Zn10B Zn -0.28209(3) -0.56597(2) -0.01616(5)
Zn10E Zn 0.28209(3) 0.56597(2) 0.01616(5)
Zn10C Zn -0.56597(2) -0.28388(2) 0.01616(5)
Zn10D Zn 0.28388(2) -0.28209(3) 0.01616(5)
Zn10A_2 Zn 0.71612(2) 0.28209(3) -0.01616(5)
Zn10B_2 Zn 0.71791(3) 0.43403(2) -0.01616(5)
Zn10_2 Zn -0.43403(2) 0.28388(2) -0.01616(5)
Zn10A_3 Zn -0.28388(2) -0.71791(3) -0.01616(5)
Zn10D_2 Zn 0.28388(2) 0.71791(3) 0.01616(5)
Zn10E_2 Zn -0.71791(3) -0.43403(2) 0.01616(5)
Zn10B_3 Zn -0.28209(3) 0.43403(2) -0.01616(5)
S1A S -0.19104(5) 0.04681(7) 0.26495(10)
S1B S -0.04681(7) -0.23785(5) 0.26495(10)
S1E S 0.04681(7) 0.23785(5) -0.26495(10)
S1C S -0.23785(5) -0.19104(5) -0.26495(10)
S1D S 0.19104(5) -0.04681(7) -0.26495(10)
S2A S -0.38230(5) 0.09191(7) -0.27628(10)
S2B S -0.09191(7) -0.47421(5) -0.27628(10)
S2E S 0.09191(7) 0.47421(5) 0.27628(10)
S2C S -0.47421(5) -0.38230(5) 0.27628(10)
S2D S 0.38230(5) -0.09191(7) 0.27628(10)
S3A S -0.3333 0.3334 0.26633(16)
O1A O -0.19051(13) 0.04691(18) 0.1223(3)
O1B O -0.04691(18) -0.23742(13) 0.1223(3)
O1E O 0.04691(18) 0.23742(13) -0.1223(3)
O1C O -0.23742(13) -0.19051(13) -0.1223(3)
O1D O 0.19051(13) -0.04691(18) -0.1223(3)
O2A O -0.3333 0.3334 0.1232(4)
O2_2 O -0.3333 -0.6667 0.1232(4)
O2C O 0.3333 0.6667 -0.1232(4)
O2C_2 O -0.6667 -0.3333 -0.1232(4)
O2C_3 O 0.3333 -0.3333 -0.1232(4)
O3A O -0.38108(13) 0.09237(18) -0.1334(3)
O3B O -0.09237(18) -0.47345(13) -0.1334(3)
O3E O 0.09237(18) 0.47345(13) 0.1334(3)
O3C O -0.47345(13) -0.38108(13) 0.1334(3)
O3D O 0.38108(13) -0.09237(18) 0.1334(3)
O4A O 0.73722(15) 0.35105(21) 0.3109(3)
O4B O 0.64895(21) 0.38617(15) 0.3109(3)
O4A_2 O -0.26278(15) 0.35105(21) 0.3109(3)
O4B_2 O -0.35105(21) 0.38617(15) 0.3109(3)
O4_2 O -0.38617(15) 0.26278(15) 0.3109(3)
O5A O -0.22048(16) 0.09066(22) 0.3068(3)
O5B O -0.09066(22) -0.31114(15) 0.3068(3)
O5E O 0.09066(22) 0.31114(15) -0.3068(3)
O5C O -0.31114(15) -0.22048(16) -0.3068(3)
O5D O 0.22048(16) -0.09066(22) -0.3068(3)
O6A O -0.33527(15) 0.16358(22) -0.3212(3)
O6B O -0.16358(22) -0.49885(16) -0.3212(3)
O6E O 0.16358(22) 0.49885(16) 0.3212(3)
O6C O -0.49885(16) -0.33527(15) 0.3212(3)
O6D O 0.33527(15) -0.16358(22) 0.3212(3)
O7A O -0.35882(17) 0.04340(23) -0.3214(3)
O7B O -0.04340(23) -0.40222(15) -0.3214(3)
O7E O 0.04340(23) 0.40222(15) 0.3214(3)
O7C O -0.40222(15) -0.35882(17) 0.3214(3)
O7D O 0.35882(17) -0.04340(23) 0.3214(3)
O8A O -0.11861(15) 0.07463(21) 0.3088(3)
O8B O -0.07463(21) -0.19324(15) 0.3088(3)
O8E O 0.07463(21) 0.19324(15) -0.3088(3)
O8C O -0.19324(15) -0.11861(15) -0.3088(3)
O8D O 0.11861(15) -0.07463(21) -0.3088(3)
O9A O -0.45557(15) 0.06667(21) -0.3168(3)
O9B O -0.06667(21) -0.52224(15) -0.3168(3)
O9E O 0.06667(21) 0.52224(15) 0.3168(3)
O9C O -0.52224(15) -0.45557(15) 0.3168(3)
O9D O 0.45557(15) -0.06667(21) 0.3168(3)
O10A O -0.23572(16) -0.02573(23) 0.3080(3)
O10B O 0.02573(23) -0.20999(17) 0.3080(3)
O10E O -0.02573(23) 0.20999(17) -0.3080(3)
O10C O -0.20999(17) -0.23572(16) -0.3080(3)
O10D O 0.23572(16) 0.02573(23) -0.3080(3)
O11A O -0.19615(14) 0.33199(20) 0.1047(3)
O11B O -0.33199(20) -0.52814(14) 0.1047(3)
O11E O 0.33199(20) 0.52814(14) -0.1047(3)
O11C O -0.52814(14) -0.19615(14) -0.1047(3)
O11D O 0.19615(14) -0.33199(20) -0.1047(3)
O11B_2 O 0.66801(20) 0.47186(14) 0.1047(3)
O11_2 O -0.47186(14) 0.19615(14) 0.1047(3)
O11A_2 O -0.19615(14) -0.66801(20) 0.1047(3)
O11D_2 O 0.19615(14) 0.66801(20) -0.1047(3)
O11E_2 O -0.66801(20) -0.47186(14) -0.1047(3)
O11C_2 O 0.47186(14) -0.19615(14) -0.1047(3)
H1A H -0.211(3) 0.339(4) 0.177(3)
H1B H -0.339(4) -0.550(3) 0.177(3)
H1E H 0.339(4) 0.550(3) -0.177(3)
H1C H -0.550(3) -0.211(3) -0.177(3)
H1D H 0.211(3) -0.339(4) -0.177(3)
H1B_2 H 0.661(4) 0.450(3) 0.177(3)
H1_2 H -0.450(3) 0.211(3) 0.177(3)
H1A_2 H -0.211(3) -0.661(4) 0.177(3)
H1D_2 H 0.211(3) 0.661(4) -0.177(3)
H1E_2 H -0.661(4) -0.450(3) -0.177(3)
H1C_2 H 0.450(3) -0.211(3) -0.177(3)
O12E O 0.23403(20) 0.47421(14) 0.1253(3)
O12A O -0.24018(14) 0.23403(20) -0.1253(3)
O12B O -0.23403(20) -0.47421(14) -0.1253(3)
O12C O -0.47421(14) -0.24018(14) 0.1253(3)
O12D O 0.24018(14) -0.23403(20) 0.1253(3)
H2E H 0.225(3) 0.483(2) 0.194(4)
H2A H -0.258(2) 0.225(3) -0.194(4)
H2B H -0.225(3) -0.483(2) -0.194(4)
H2C H -0.483(2) -0.258(2) 0.194(4)
H2D H 0.258(2) -0.225(3) 0.194(4)
O13E O 0.23999(20) 0.33134(14) 0.1136(3)
O13A O -0.09135(14) 0.23999(20) -0.1136(3)
O13B O -0.23999(20) -0.33134(14) -0.1136(3)
O13C O -0.33134(14) -0.09135(14) 0.1136(3)
O13D O 0.09135(14) -0.23999(20) 0.1136(3)
H3E H 0.226(3) 0.307(2) 0.184(3)
H3A H -0.081(2) 0.226(3) -0.184(3)
H3B H -0.226(3) -0.307(2) -0.184(3)
H3C H -0.307(2) -0.081(2) 0.184(3)
H3D H 0.081(2) -0.226(3) 0.184(3)
O14A O -0.19122(13) 0.18682(18) 0.1086(3)
O14B O -0.18682(18) -0.37804(13) 0.1086(3)
O14E O 0.18682(18) 0.37804(13) -0.1086(3)
O14C O -0.37804(13) -0.19122(13) -0.1086(3)
O14D O 0.19122(13) -0.18682(18) -0.1086(3)
H4A H -0.202(2) 0.166(3) 0.179(2)
H4B H -0.166(3) -0.368(2) 0.179(2)
H4E H 0.166(3) 0.368(2) -0.179(2)
H4C H -0.368(2) -0.202(2) -0.179(2)
H4D H 0.202(2) -0.166(3) -0.179(2)
O15E O 0.38560(18) 0.48100(13) 0.1136(3)
O15A O -0.09540(13) 0.38560(18) -0.1136(3)
O15B O -0.38560(18) -0.48100(13) -0.1136(3)
O15C O -0.48100(13) -0.09540(13) 0.1136(3)
O15D O 0.09540(13) -0.38560(18) 0.1136(3)
O15B_2 O 0.61440(18) 0.51900(13) -0.1136(3)
O15_2 O -0.51900(13) 0.09540(13) -0.1136(3)
O15A_2 O -0.09540(13) -0.61440(18) -0.1136(3)
O15D_2 O 0.09540(13) 0.61440(18) 0.1136(3)
O15E_2 O -0.61440(18) -0.51900(13) 0.1136(3)
O15C_2 O 0.51900(13) -0.09540(13) 0.1136(3)
H5E H 0.4154 0.4967 0.1917
H5A H -0.0813 0.4154 -0.1917
H5B H -0.4154 -0.4967 -0.1917
H5C H -0.4967 -0.0813 0.1917
H5D H 0.0813 -0.4154 0.1917
H5B_2 H 0.5846 0.5033 -0.1917
H5_2 H -0.5033 0.0813 -0.1917
H5A_2 H -0.0813 -0.5846 -0.1917
H5D_2 H 0.0813 0.5846 0.1917
H5E_2 H -0.5846 -0.5033 0.1917
H5C_2 H 0.5033 -0.0813 0.1917
O16A O -0.38288(14) -0.04680(20) -0.1165(3)
O16B O 0.04680(20) -0.33608(14) -0.1165(3)
O16E O -0.04680(20) 0.33608(14) 0.1165(3)
O16C O -0.33608(14) -0.38288(14) 0.1165(3)
O16D O 0.38288(14) 0.04680(20) 0.1165(3)
H6A H -0.373(3) -0.027(4) -0.191(3)
H6B H 0.027(4) -0.346(3) -0.191(3)
H6E H -0.027(4) 0.346(3) 0.191(3)
H6C H -0.346(3) -0.373(3) 0.191(3)
H6D H 0.373(3) 0.027(4) 0.191(3)
O17A O -0.09806(14) -0.05160(20) -0.1135(3)
O17B O 0.05160(20) -0.04646(14) -0.1135(3)
O17D O 0.09806(14) 0.05160(20) 0.1135(3)
O17C O -0.04646(14) -0.09806(14) -0.8865(3)
O17D_2 O 0.09806(14) 0.05160(20) -0.8865(3)
O17E O -0.05160(20) 0.04646(14) -0.8865(3)
O17E_2 O -0.05160(20) 0.04646(14) 0.1135(3)
O17C_2 O -0.04646(14) -0.09806(14) 0.1135(3)
H7A H -0.119(2) -0.067(3) -0.183(3)
H7B H 0.067(3) -0.052(2) -0.183(3)
H7D H 0.119(2) 0.067(3) 0.183(3)
H7C H -0.052(2) -0.119(2) -0.817(3)
H7D_2 H 0.119(2) 0.067(3) -0.817(3)
H7E H -0.067(3) 0.052(2) -0.817(3)
H7E_2 H -0.067(3) 0.052(2) 0.183(3)
H7C_2 H -0.052(2) -0.119(2) 0.183(3)
O18A O -0.33606(13) 0.04728(18) 0.0846(3)
O18B O -0.04728(18) -0.38334(13) 0.0846(3)
O18E O 0.04728(18) 0.38334(13) -0.0846(3)
O18C O -0.38334(13) -0.33606(13) -0.0846(3)
O18D O 0.33606(13) -0.04728(18) -0.0846(3)
H8A H -0.3347 0.0475 0.1792
H8B H -0.0475 -0.3822 0.1792
H8E H 0.0475 0.3822 -0.1792
H8C H -0.3822 -0.3347 -0.1792
H8D H 0.3347 -0.0475 -0.1792
O19A O -0.23867(13) -0.04639(18) -0.0908(3)
O19B O 0.04639(18) -0.19228(13) -0.0908(3)
O19E O -0.04639(18) 0.19228(13) 0.0908(3)
O19C O -0.19228(13) -0.23867(13) 0.0908(3)
O19D O 0.23867(13) 0.04639(18) 0.0908(3)
H9A H -0.2401 -0.0491 -0.1854
H9B H 0.0491 -0.1910 -0.1854
H9E H -0.0491 0.1910 0.1854
H9C H -0.1910 -0.2401 0.1854
H9D H 0.2401 0.0491 0.1854
O20A O -0.33235(13) 0.18790(19) 0.0787(3)
O20B O -0.18790(19) -0.52025(14) 0.0787(3)
O20E O 0.18790(19) 0.52025(14) -0.0787(3)
O20C O -0.52025(14) -0.33235(13) -0.0787(3)
O20D O 0.33235(13) -0.18790(19) -0.0787(3)
H10A H -0.3298 0.1905 0.1733
H10B H -0.1905 -0.5203 0.1733
H10E H 0.1905 0.5203 -0.1733
H10C H -0.5203 -0.3298 -0.1733
H10D H 0.3298 -0.1905 -0.1733
O21C O 0.47614(13) 0.52710(13) -0.0895(3)
O21A O -0.47290(13) 0.05096(18) 0.0895(3)
O21D O -0.52710(13) -0.05096(18) -0.0895(3)
O21B O -0.05096(18) -0.52386(13) 0.0895(3)
O21E O 0.05096(18) -0.47614(13) -0.0895(3)
O21B_2 O -0.05096(18) 0.47614(13) 0.0895(3)
O21E_2 O 0.05096(18) 0.52386(13) -0.0895(3)
O21_2 O -0.47614(13) -0.52710(13) 0.0895(3)
O21C_2 O -0.52386(13) -0.47290(13) -0.0895(3)
O21A_2 O 0.52710(13) 0.05096(18) 0.0895(3)
O21D_2 O 0.47290(13) -0.05096(18) -0.0895(3)
H11C H 0.4756 0.5264 -0.1841
H11A H -0.4736 0.0508 0.1841
H11D H -0.5264 -0.0508 -0.1841
H11B H -0.0508 -0.5244 0.1841
H11E H 0.0508 -0.4756 -0.1841
H11B_2 H -0.0508 0.4756 0.1841
H11E_2 H 0.0508 0.5244 -0.1841
H11_2 H -0.4756 -0.5264 0.1841
H11C_2 H -0.5244 -0.4736 -0.1841
H11A_2 H 0.5264 0.0508 0.1841
H11D_2 H 0.4736 -0.0508 -0.1841
O22E O 0.09272(18) 0.18958(13) 0.0920(3)
O22A O -0.09686(13) 0.09272(18) -0.0920(3)
O22C O -0.18958(13) -0.09686(13) 0.0920(3)
O22B O -0.09272(18) -0.18958(13) -0.0920(3)
O22D O 0.09686(13) -0.09272(18) 0.0920(3)
H12E H 0.0938 0.1880 0.1865
H12A H -0.0942 0.0938 -0.1865
H12C H -0.1880 -0.0942 0.1865
H12B H -0.0938 -0.1880 -0.1865
H12D H 0.0942 -0.0938 0.1865
O23A O 0.61843(13) 0.24034(18) -0.0992(3)
O23A_2 O -0.38157(13) 0.24034(18) -0.0992(3)
O23B O -0.24034(18) -0.62191(13) -0.0992(3)
O23E O 0.24034(18) 0.62191(13) 0.0992(3)
O23C O -0.62191(13) -0.38157(13) 0.0992(3)
O23D O 0.38157(13) -0.24034(18) 0.0992(3)
O23B_2 O -0.24034(18) 0.37809(13) -0.0992(3)
O23_2 O -0.37809(13) -0.61843(13) -0.0992(3)
O23C_2 O 0.37809(13) 0.61843(13) 0.0992(3)
O23D_2 O -0.61843(13) -0.24034(18) 0.0992(3)
O23E_2 O 0.24034(18) -0.37809(13) 0.0992(3)
H13A H 0.6165 0.2369 -0.1937
H13A_2 H -0.3835 0.2369 -0.1937
H13B H -0.2369 -0.6204 -0.1937
H13E H 0.2369 0.6204 0.1937
H13C H -0.6204 -0.3835 0.1937
H13D H 0.3835 -0.2369 0.1937
H13B_2 H -0.2369 0.3796 -0.1937
H13_2 H -0.3796 -0.6165 -0.1937
H13C_2 H 0.3796 0.6165 0.1937
H13D_2 H -0.6165 -0.2369 0.1937
H13E_2 H 0.2369 -0.3796 0.1937
O24A O -0.23495(13) 0.09451(19) -0.0938(3)
O24B O -0.09451(19) -0.32946(14) -0.0938(3)
O24E O 0.09451(19) 0.32946(14) 0.0938(3)
O24C O -0.32946(14) -0.23495(13) 0.0938(3)
O24D O 0.23495(13) -0.09451(19) 0.0938(3)
H14A H -0.2346 0.0950 -0.1884
H14B H -0.0950 -0.3296 -0.1884
H14E H 0.0950 0.3296 0.1884
H14C H -0.3296 -0.2346 0.1884
H14D H 0.2346 -0.0950 0.1884
N1A N -0.0195(4) -0.0058(8) -0.3597(7)
N1B N 0.0058(8) -0.0137(7) -0.3597(7)
N1C N -0.0137(7) -0.0195(4) -0.6403(7)
N1D N 0.0195(4) 0.0058(8) -0.6403(7)
N1E N -0.0058(8) 0.0137(7) -0.6403(7)
C1B C -0.0273(11) 0.0173(9) -0.4339(9)
C1A C 0.0446(7) 0.0273(11) -0.4339(9)
C1C C 0.0173(9) 0.0446(7) -0.5661(9)
C1D C -0.0446(7) -0.0273(11) -0.5661(9)
C1E C 0.0273(11) -0.0173(9) -0.5661(9)
H18B H -0.0770 -0.0181 -0.4515
H18D H -0.0589 -0.0770 -0.5485
H18E H 0.0770 0.0181 -0.5485
H18A H 0.0589 0.0770 -0.4515
H18C H -0.0181 0.0589 -0.5485
N2_2 N 0.44190(19) 0.1594(2) 0.3559(3)
N2E N 0.28250(28) 0.44190(19) 0.6441(3)
N2A N -0.1594(2) 0.28250(28) -0.6441(3)
N2B N -0.28250(28) -0.44190(19) -0.6441(3)
N2C N -0.44190(19) -0.1594(2) 0.6441(3)
N2A_2 N -0.1594(2) 0.28250(28) 0.3559(3)
N2B_2 N -0.28250(28) -0.44190(19) 0.3559(3)
N2E_2 N 0.28250(28) 0.44190(19) -0.3559(3)
N2C_2 N -0.44190(19) -0.1594(2) -0.3559(3)
N2D N 0.1594(2) -0.28250(28) -0.3559(3)
H19_2 H 0.4681 0.1400 0.3842
H19E H 0.3281 0.4681 0.6158
H19A H -0.1400 0.3281 -0.6158
H19B H -0.3281 -0.4681 -0.6158
H19C H -0.4681 -0.1400 0.6158
H19A_2 H -0.1400 0.3281 0.3842
H19B_2 H -0.3281 -0.4681 0.3842
H19E_2 H 0.3281 0.4681 -0.3842
H19C_2 H -0.4681 -0.1400 -0.3842
H19D H 0.1400 -0.3281 -0.3842
H20_2 H 0.4673 0.2070 0.3725
H20E H 0.2603 0.4673 0.6275
H20A H -0.2070 0.2603 -0.6275
H20B H -0.2603 -0.4673 -0.6275
H20C H -0.4673 -0.2070 0.6275
H20A_2 H -0.2070 0.2603 0.3725
H20B_2 H -0.2603 -0.4673 0.3725
H20E_2 H 0.2603 0.4673 -0.3725
H20C_2 H -0.4673 -0.2070 -0.3725
H20D H 0.2070 -0.2603 -0.3725
C2_2 C 0.3789(3) 0.1302(3) 0.4265(4)
C2E C 0.2487(4) 0.3789(3) 0.5735(4)
C2A C -0.1302(3) 0.2487(4) -0.5735(4)
C2B C -0.2487(4) -0.3789(3) -0.5735(4)
C2C C -0.3789(3) -0.1302(3) 0.5735(4)
H21_2 H 0.3566 0.0782 0.4255
H21E H 0.2784 0.3566 0.5745
H21A H -0.0782 0.2784 -0.5745
H21B H -0.2784 -0.3566 -0.5745
H21C H -0.3566 -0.0782 0.5745
H22_2 H 0.3460 0.1426 0.3852
H22E H 0.2034 0.3460 0.6148
H22A H -0.1426 0.2034 -0.6148
H22B H -0.2034 -0.3460 -0.6148
H22C H -0.3460 -0.1426 0.6148
C3_2 C 0.3904(3) 0.1562(3) 0.5677(4)
C3E C 0.2342(4) 0.3904(3) 0.4323(4)
C3A C -0.1562(3) 0.2342(4) -0.4323(4)
C3B C -0.2342(4) -0.3904(3) -0.4323(4)
C3C C -0.3904(3) -0.1562(3) 0.4323(4)
H23_2 H 0.4150 0.2083 0.5693
H23E H 0.2067 0.4150 0.4307
H23A H -0.2083 0.2067 -0.4307
H23B H -0.2067 -0.4150 -0.4307
H23C H -0.4150 -0.2083 0.4307
H24_2 H 0.3440 0.1384 0.6092
H24E H 0.2056 0.3440 0.3908
H24A H -0.1384 0.2056 -0.3908
H24B H -0.2056 -0.3440 -0.3908
H24C H -0.3440 -0.1384 0.3908
N3_2 N 0.43133(19) 0.13206(19) 0.6375(3)
N3E N 0.29927(27) 0.43133(19) 0.3625(3)
N3A N -0.13206(19) 0.29927(27) -0.3625(3)
N3B N -0.29927(27) -0.43133(19) -0.3625(3)
N3C N -0.43133(19) -0.13206(19) 0.3625(3)
N3D N 0.13206(19) -0.29927(27) 0.3625(3)
H25_2 H 0.4774 0.1573 0.6109
H25E H 0.3201 0.4774 0.3891
H25A H -0.1573 0.3201 -0.3891
H25B H -0.3201 -0.4774 -0.3891
H25C H -0.4774 -0.1573 0.3891
H25D H 0.1573 -0.3201 0.3891
H26_2 H 0.4149 0.0855 0.6179
H26E H 0.3294 0.4149 0.3821
H26A H -0.0855 0.3294 -0.3821
H26B H -0.3294 -0.4149 -0.3821
H26C H -0.4149 -0.0855 0.3821
H26D H 0.0855 -0.3294 0.3821
loop_
_geom_bond_atom_site_label_1
_geom_bond_atom_site_label_2
_geom_bond_site_symmetry_1
_geom_bond_site_symmetry_2
Zn1 O17 1_555 1_555
Zn2 O12 1_555 1_555
Zn3 O11 1_555 1_555
Zn4 O1 1_555 1_555
Zn5 O3 1_555 1_555
Zn6 O1 1_555 1_555
Zn7 O3 1_555 1_555
Zn8 O1 1_555 1_555
Zn9 O3 1_555 1_555
Zn10 O2 1_555 1_555
S1 O1 1_555 1_555
S2 O3 1_555 1_555
S3 O2 1_555 1_555
O2 Zn10A_2 1_555 1_555
O4 S3 1_555 1_555
O5 S1 1_555 1_555
O6 S2 1_555 1_555
O7 S2 1_555 1_555
O8 S1 1_555 1_555
O9 S2 1_555 1_555
O10 S1 1_555 1_555
O11 Zn10 1_555 1_555
H1 O11 1_555 1_555
O12 Zn5 1_555 1_555
H2 O12 1_555 1_555
O13 Zn2 1_555 1_555
H3 O13 1_555 1_555
O14 Zn3 1_555 1_555
H4 O14 1_555 1_555
O15 Zn2 1_555 1_555
H5 O15 1_555 1_555
O16 Zn6 1_555 1_555
H6 O16 1_555 1_555
O17 Zn8 1_555 1_555
H7 O17 1_555 1_555
O18 Zn5 1_555 1_555
H8 O18 1_555 1_555
O19 Zn6 1_555 1_555
H9 O19 1_555 1_555
O20 Zn5 1_555 1_555
H10 O20 1_555 1_555
O21 Zn7 1_555 1_555
H11 O21 1_555 1_555
O22 Zn4 1_555 1_555
H12 O22 1_555 1_555
O23 Zn9 1_555 1_555
H13 O23 1_555 1_555
O24 Zn4 1_555 1_555
H14 O24 1_555 1_555
N1 Zn1 1_555 1_555
C1 N1 1_555 1_555
H18 C1 1_555 1_555
N2 H19 1_555 1_555
H20 N2 1_555 1_555
C2 N2 1_555 1_555
H21 C2 1_555 1_555
H22 C2 1_555 1_555
C3 C2 1_555 1_555
H23 C3 1_555 1_555
H24 C3 1_555 1_555
N3 Zn2 1_555 1_555
H25 N3 1_555 1_555
H26 N3 1_555 1_555
Zn1C O17C 1_555 1_555
Zn1C_2 O17D 1_555 1_555
Zn2E O12E 1_555 1_555
Zn2A O12A 1_555 1_555
Zn2B O12B 1_555 1_555
Zn2C O12C 1_555 1_555
Zn2D O12D 1_555 1_555
Zn2_2 N3_2 1_555 1_555
Zn3A O11A 1_555 1_555
Zn3B O11B 1_555 1_555
Zn3E O16 1_555 1_555
Zn3C O11C 1_555 1_555
Zn3D O11D 1_555 1_555
Zn3_2 N2 1_555 1_555
Zn3E_2 N2E 1_555 1_555
Zn3A_2 N2A 1_555 1_555
Zn3B_2 N2B 1_555 1_555
Zn3C_2 N2C 1_555 1_555
Zn4A O1A 1_555 1_555
Zn4B O1B 1_555 1_555
Zn4E O19 1_555 1_555
Zn4C O1C 1_555 1_555
Zn4D O1D 1_555 1_555
Zn5A O3A 1_555 1_555
Zn5B O3B 1_555 1_555
Zn5E O3E 1_555 1_555
Zn5C O3C 1_555 1_555
Zn5D O3D 1_555 1_555
Zn6A O1A 1_555 1_555
Zn6B O1B 1_555 1_555
Zn6E O1E 1_555 1_555
Zn6C O1C 1_555 1_555
Zn6D O13 1_555 1_555
Zn7A O3A 1_555 1_555
Zn7B O3B 1_555 1_555
Zn7E O3E 1_555 1_555
Zn7C O3C 1_555 1_555
Zn7D O15 1_555 1_555
Zn7C_2 O21 1_555 1_555
Zn7D_2 O15_2 1_555 1_555
Zn7E_2 O15A_2 1_555 1_555
Zn8A O1A 1_555 1_555
Zn8B O1B 1_555 1_555
Zn8E O17 1_555 1_555
Zn8C O1C 1_555 1_555
Zn8D O22 1_555 1_555
Zn8B_2 O17C 1_555 1_555
Zn8C_2 O17C 1_555 1_555
Zn8_2 O17D_2 1_555 1_555
Zn8D_2 O17D_2 1_555 1_555
Zn9A O3A 1_555 1_555
Zn9B O3B 1_555 1_555
Zn9E O3E 1_555 1_555
Zn9C O3C 1_555 1_555
Zn9D O3D 1_555 1_555
Zn9A_2 O11 1_555 1_555
Zn9C_2 O11E 1_555 1_555
Zn9B_2 O11A 1_555 1_555
Zn9_2 O11B 1_555 1_555
Zn9D_2 O11C 1_555 1_555
Zn9E_2 O11D 1_555 1_555
Zn10A O2A 1_555 1_555
Zn10B O2_2 1_555 1_555
Zn10E O2C 1_555 1_555
Zn10C O2C_2 1_555 1_555
Zn10D O2C_3 1_555 1_555
Zn10A_2 O23A 1_555 1_555
Zn10B_2 O2 1_555 1_555
Zn10_2 O2A 1_555 1_555
Zn10A_3 O2_2 1_555 1_555
Zn10D_2 O2C 1_555 1_555
Zn10E_2 O2C_2 1_555 1_555
Zn10B_3 O2A 1_555 1_555
S1A O1A 1_555 1_555
S1B O1B 1_555 1_555
S1E O1E 1_555 1_555
S1C O1C 1_555 1_555
S1D O1D 1_555 1_555
S2A O3A 1_555 1_555
S2B O3B 1_555 1_555
S2E O3E 1_555 1_555
S2C O3C 1_555 1_555
S2D O3D 1_555 1_555
S3A O2A 1_555 1_555
O1E Zn4E 1_555 1_555
O1D Zn6D 1_555 1_555
O3D Zn7D 1_555 1_555
O4A S3 1_555 1_555
O4B S3 1_555 1_555
O4A_2 S3A 1_555 1_555
O4B_2 S3A 1_555 1_555
O4_2 S3A 1_555 1_555
O5A S1A 1_555 1_555
O5B S1B 1_555 1_555
O5E S1E 1_555 1_555
O5C S1C 1_555 1_555
O5D S1D 1_555 1_555
O6A S2A 1_555 1_555
O6B S2B 1_555 1_555
O6E S2E 1_555 1_555
O6C S2C 1_555 1_555
O6D S2D 1_555 1_555
O7A S2A 1_555 1_555
O7B S2B 1_555 1_555
O7E S2E 1_555 1_555
O7C S2C 1_555 1_555
O7D S2D 1_555 1_555
O8A S1A 1_555 1_555
O8B S1B 1_555 1_555
O8E S1E 1_555 1_555
O8C S1C 1_555 1_555
O8D S1D 1_555 1_555
O9A S2A 1_555 1_555
O9B S2B 1_555 1_555
O9E S2E 1_555 1_555
O9C S2C 1_555 1_555
O9D S2D 1_555 1_555
O10A S1A 1_555 1_555
O10B S1B 1_555 1_555
O10E S1E 1_555 1_555
O10C S1C 1_555 1_555
O10D S1D 1_555 1_555
O11A Zn10A 1_555 1_555
O11B Zn10B 1_555 1_555
O11E Zn3E 1_555 1_555
O11C Zn10C 1_555 1_555
O11D Zn10D 1_555 1_555
O11B_2 Zn9 1_555 1_555
O11_2 Zn9A 1_555 1_555
O11A_2 Zn9B 1_555 1_555
O11D_2 Zn9E 1_555 1_555
O11E_2 Zn9C 1_555 1_555
O11C_2 Zn9D 1_555 1_555
H1A O11A 1_555 1_555
H1B O11B 1_555 1_555
H1E O11E 1_555 1_555
H1C O11C 1_555 1_555
H1D O11D 1_555 1_555
H1B_2 O11B_2 1_555 1_555
H1_2 O11_2 1_555 1_555
H1A_2 O11A_2 1_555 1_555
H1D_2 O11D_2 1_555 1_555
H1E_2 O11E_2 1_555 1_555
H1C_2 O11C_2 1_555 1_555
O12E Zn5E 1_555 1_555
O12A Zn5A 1_555 1_555
O12B Zn5B 1_555 1_555
O12C Zn5C 1_555 1_555
O12D Zn5D 1_555 1_555
H2E O12E 1_555 1_555
H2A O12A 1_555 1_555
H2B O12B 1_555 1_555
H2C O12C 1_555 1_555
H2D O12D 1_555 1_555
O13E Zn6 1_555 1_555
O13A Zn2A 1_555 1_555
O13B Zn2B 1_555 1_555
O13C Zn2C 1_555 1_555
O13D Zn2D 1_555 1_555
H3E O13E 1_555 1_555
H3A O13A 1_555 1_555
H3B O13B 1_555 1_555
H3C O13C 1_555 1_555
H3D O13D 1_555 1_555
O14A Zn3A 1_555 1_555
O14B Zn3B 1_555 1_555
O14E Zn3E 1_555 1_555
O14C Zn3C 1_555 1_555
O14D Zn3D 1_555 1_555
H4A O14A 1_555 1_555
H4B O14B 1_555 1_555
H4E O14E 1_555 1_555
H4C O14C 1_555 1_555
H4D O14D 1_555 1_555
O15E Zn7 1_555 1_555
O15A Zn2A 1_555 1_555
O15B Zn2B 1_555 1_555
O15C Zn2C 1_555 1_555
O15D Zn2D 1_555 1_555
O15B_2 Zn9 1_555 1_555
O15_2 Zn9A 1_555 1_555
O15A_2 Zn9B 1_555 1_555
O15D_2 Zn9E 1_555 1_555
O15E_2 Zn9C 1_555 1_555
O15C_2 Zn9D 1_555 1_555
H5E O15E 1_555 1_555
H5A O15A 1_555 1_555
H5B O15B 1_555 1_555
H5C O15C 1_555 1_555
H5D O15D 1_555 1_555
H5B_2 O15B_2 1_555 1_555
H5_2 O15_2 1_555 1_555
H5A_2 O15A_2 1_555 1_555
H5D_2 O15D_2 1_555 1_555
H5E_2 O15E_2 1_555 1_555
H5C_2 O15C_2 1_555 1_555
O16A Zn3C 1_555 1_555
O16B Zn3D 1_555 1_555
O16E Zn3A 1_555 1_555
O16C Zn3B 1_555 1_555
O16D Zn3 1_555 1_555
H6A O16A 1_555 1_555
H6B O16B 1_555 1_555
H6E O16E 1_555 1_555
H6C O16C 1_555 1_555
H6D O16D 1_555 1_555
O17A Zn1 1_555 1_555
O17B Zn1 1_555 1_555
O17D Zn8 1_555 1_555
O17C H7C 1_555 1_555
O17D_2 Zn1C 1_555 1_555
O17E Zn1C 1_555 1_555
O17E_2 Zn1C_2 1_555 1_555
O17C_2 Zn1C_2 1_555 1_555
H7A O17A 1_555 1_555
H7B O17B 1_555 1_555
H7D O17D 1_555 1_555
H7D_2 O17D_2 1_555 1_555
H7E O17E 1_555 1_555
H7E_2 O17E_2 1_555 1_555
H7C_2 O17C_2 1_555 1_555
O18A Zn5A 1_555 1_555
O18B Zn5B 1_555 1_555
O18E Zn5E 1_555 1_555
O18C Zn5C 1_555 1_555
O18D Zn5D 1_555 1_555
H8A O18A 1_555 1_555
H8B O18B 1_555 1_555
H8E O18E 1_555 1_555
H8C O18C 1_555 1_555
H8D O18D 1_555 1_555
O19A Zn4C 1_555 1_555
O19B Zn4D 1_555 1_555
O19E Zn4A 1_555 1_555
O19C Zn4B 1_555 1_555
O19D Zn4 1_555 1_555
H9A O19A 1_555 1_555
H9B O19B 1_555 1_555
H9E O19E 1_555 1_555
H9C O19C 1_555 1_555
H9D O19D 1_555 1_555
O20A Zn5A 1_555 1_555
O20B Zn5B 1_555 1_555
O20E Zn5E 1_555 1_555
O20C Zn5C 1_555 1_555
O20D Zn5D 1_555 1_555
H10A O20A 1_555 1_555
H10B O20B 1_555 1_555
H10E O20E 1_555 1_555
H10C O20C 1_555 1_555
H10D O20D 1_555 1_555
O21C Zn7 1_555 1_555
O21A Zn7A 1_555 1_555
O21D Zn7A 1_555 1_555
O21B Zn7B 1_555 1_555
O21E Zn7B 1_555 1_555
O21B_2 Zn7E 1_555 1_555
O21E_2 Zn7E 1_555 1_555
O21_2 Zn7C 1_555 1_555
O21C_2 Zn7C 1_555 1_555
O21A_2 Zn7D 1_555 1_555
O21D_2 Zn7D 1_555 1_555
H11C O21C 1_555 1_555
H11A O21A 1_555 1_555
H11D O21D 1_555 1_555
H11B O21B 1_555 1_555
H11E O21E 1_555 1_555
H11B_2 O21B_2 1_555 1_555
H11E_2 O21E_2 1_555 1_555
H11_2 O21_2 1_555 1_555
H11C_2 O21C_2 1_555 1_555
H11A_2 O21A_2 1_555 1_555
H11D_2 O21D_2 1_555 1_555
O22E Zn8 1_555 1_555
O22A Zn4A 1_555 1_555
O22C Zn4C 1_555 1_555
O22B Zn4B 1_555 1_555
O22D Zn4D 1_555 1_555
H12E O22E 1_555 1_555
H12A O22A 1_555 1_555
H12C O22C 1_555 1_555
H12B O22B 1_555 1_555
H12D O22D 1_555 1_555
O23A Zn10 1_555 1_555
O23A_2 Zn9A 1_555 1_555
O23B Zn9B 1_555 1_555
O23E Zn9E 1_555 1_555
O23C Zn9C 1_555 1_555
O23D Zn9D 1_555 1_555
O23B_2 Zn9B_2 1_555 1_555
O23_2 Zn9_2 1_555 1_555
O23C_2 Zn9C_2 1_555 1_555
O23D_2 Zn9D_2 1_555 1_555
O23E_2 Zn9E_2 1_555 1_555
H13A O23A 1_555 1_555
H13A_2 O23A_2 1_555 1_555
H13B O23B 1_555 1_555
H13E O23E 1_555 1_555
H13C O23C 1_555 1_555
H13D O23D 1_555 1_555
H13B_2 O23B_2 1_555 1_555
H13_2 O23_2 1_555 1_555
H13C_2 O23C_2 1_555 1_555
H13D_2 O23D_2 1_555 1_555
H13E_2 O23E_2 1_555 1_555
O24A Zn4A 1_555 1_555
O24B Zn4B 1_555 1_555
O24E Zn4E 1_555 1_555
O24C Zn4C 1_555 1_555
O24D Zn4D 1_555 1_555
H14A O24A 1_555 1_555
H14B O24B 1_555 1_555
H14E O24E 1_555 1_555
H14C O24C 1_555 1_555
H14D O24D 1_555 1_555
N1A Zn1 1_555 1_555
N1B Zn1 1_555 1_555
N1C Zn1C 1_555 1_555
N1D Zn1C 1_555 1_555
N1E Zn1C 1_555 1_555
C1B N1 1_555 1_555
C1A N1 1_555 1_555
C1C N1C 1_555 1_555
C1D C1 1_555 1_555
C1E C1 1_555 1_555
H18B C1B 1_555 1_555
H18D C1D 1_555 1_555
H18E C1E 1_555 1_555
H18A C1A 1_555 1_555
H18C C1C 1_555 1_555
N2_2 Zn3 1_555 1_555
N2E H19E 1_555 1_555
N2A H19A 1_555 1_555
N2B H19B 1_555 1_555
N2C H19C 1_555 1_555
N2A_2 Zn3A 1_555 1_555
N2B_2 Zn3B 1_555 1_555
N2E_2 Zn3E 1_555 1_555
N2C_2 Zn3C 1_555 1_555
N2D Zn3D 1_555 1_555
H19_2 N2_2 1_555 1_555
H19A_2 N2A_2 1_555 1_555
H19B_2 N2B_2 1_555 1_555
H19E_2 N2E_2 1_555 1_555
H19C_2 N2C_2 1_555 1_555
H19D N2D 1_555 1_555
H20_2 N2_2 1_555 1_555
H20E N2E 1_555 1_555
H20A N2A 1_555 1_555
H20B N2B 1_555 1_555
H20C N2C 1_555 1_555
H20A_2 N2A_2 1_555 1_555
H20B_2 N2B_2 1_555 1_555
H20E_2 N2E_2 1_555 1_555
H20C_2 N2C_2 1_555 1_555
H20D N2D 1_555 1_555
C2_2 N2_2 1_555 1_555
C2E N2E 1_555 1_555
C2A N2A 1_555 1_555
C2B N2B 1_555 1_555
C2C N2C 1_555 1_555
H21_2 C2_2 1_555 1_555
H21E C2E 1_555 1_555
H21A C2A 1_555 1_555
H21B C2B 1_555 1_555
H21C C2C 1_555 1_555
H22_2 C2_2 1_555 1_555
H22E C2E 1_555 1_555
H22A C2A 1_555 1_555
H22B C2B 1_555 1_555
H22C C2C 1_555 1_555
C3_2 C2_2 1_555 1_555
C3E C2E 1_555 1_555
C3A C2A 1_555 1_555
C3B C2B 1_555 1_555
C3C C2C 1_555 1_555
H23_2 C3_2 1_555 1_555
H23E C3E 1_555 1_555
H23A C3A 1_555 1_555
H23B C3B 1_555 1_555
H23C C3C 1_555 1_555
H24_2 C3_2 1_555 1_555
H24E C3E 1_555 1_555
H24A C3A 1_555 1_555
H24B C3B 1_555 1_555
H24C C3C 1_555 1_555
N3_2 C3_2 1_555 1_555
N3E Zn2E 1_555 1_555
N3A Zn2A 1_555 1_555
N3B Zn2B 1_555 1_555
N3C Zn2C 1_555 1_555
N3D Zn2D 1_555 1_555
H25_2 N3_2 1_555 1_555
H25E N3E 1_555 1_555
H25A N3A 1_555 1_555
H25B N3B 1_555 1_555
H25C N3C 1_555 1_555
H25D N3D 1_555 1_555
H26_2 N3_2 1_555 1_555
H26E N3E 1_555 1_555
H26A N3A 1_555 1_555
H26B N3B 1_555 1_555
H26C N3C 1_555 1_555
H26D N3D 1_555 1_555
Zn4 O13 1_555 1_555
Zn4 O14 1_555 1_555
Zn5 O14 1_555 1_555
Zn5 O24 1_555 1_555
Zn6 O18 1_555 1_555
Zn6 O24 1_555 1_555
Zn7 O16 1_555 1_555
Zn7 O18 1_555 1_555
Zn8 O19 1_555 1_555
Zn8 O22 1_555 1_555
Zn9 O20 1_555 1_555
Zn9 O21 1_555 1_555
Zn10 O12 1_555 1_555
Zn10 O20 1_555 1_555
Zn10 O23 1_555 1_555
O15 Zn9A_2 1_555 1_555
O23 Zn10B_2 1_555 1_555
N1 N1A 1_555 1_555
N1 N1B 1_555 1_555
C1 N1A 1_555 1_555
C1 N1B 1_555 1_555
C1 C1B 1_555 1_555
C1 C1A 1_555 1_555
C3 N3 1_555 1_555
Zn2E O13E 1_555 1_555
Zn2E O15E 1_555 1_555
Zn4A O13A 1_555 1_555
Zn4A O14A 1_555 1_555
Zn4B O13B 1_555 1_555
Zn4B O14B 1_555 1_555
Zn4E O13E 1_555 1_555
Zn4E O14E 1_555 1_555
Zn4E O22E 1_555 1_555
Zn4C O13C 1_555 1_555
Zn4C O14C 1_555 1_555
Zn4D O13D 1_555 1_555
Zn4D O14D 1_555 1_555
Zn5A O14A 1_555 1_555
Zn5A O24A 1_555 1_555
Zn5B O14B 1_555 1_555
Zn5B O24B 1_555 1_555
Zn5E O14E 1_555 1_555
Zn5E O24E 1_555 1_555
Zn5C O14C 1_555 1_555
Zn5C O24C 1_555 1_555
Zn5D O14D 1_555 1_555
Zn5D O24D 1_555 1_555
Zn6A O13C 1_555 1_555
Zn6A O16A 1_555 1_555
Zn6A O18A 1_555 1_555
Zn6A O19A 1_555 1_555
Zn6A O24A 1_555 1_555
Zn6B O13D 1_555 1_555
Zn6B O16B 1_555 1_555
Zn6B O18B 1_555 1_555
Zn6B O19B 1_555 1_555
Zn6B O24B 1_555 1_555
Zn6E O13A 1_555 1_555
Zn6E O16E 1_555 1_555
Zn6E O18E 1_555 1_555
Zn6E O19E 1_555 1_555
Zn6E O24E 1_555 1_555
Zn6C O13B 1_555 1_555
Zn6C O16C 1_555 1_555
Zn6C O18C 1_555 1_555
Zn6C O19C 1_555 1_555
Zn6C O24C 1_555 1_555
Zn6D O16D 1_555 1_555
Zn6D O18D 1_555 1_555
Zn6D O19D 1_555 1_555
Zn6D O24D 1_555 1_555
Zn7A O15C 1_555 1_555
Zn7A O16A 1_555 1_555
Zn7A O18A 1_555 1_555
Zn7B O15D 1_555 1_555
Zn7B O16B 1_555 1_555
Zn7B O18B 1_555 1_555
Zn7E O15A 1_555 1_555
Zn7E O16E 1_555 1_555
Zn7E O18E 1_555 1_555
Zn7C O15B 1_555 1_555
Zn7C O16C 1_555 1_555
Zn7C O18C 1_555 1_555
Zn7D O16D 1_555 1_555
Zn7D O18D 1_555 1_555
Zn7C_2 O15B_2 1_555 1_555
Zn7C_2 O21C 1_555 1_555
Zn7D_2 O21A 1_555 1_555
Zn7D_2 O21D 1_555 1_555
Zn7E_2 O21B 1_555 1_555
Zn7E_2 O21E 1_555 1_555
Zn8A O17A 1_555 1_555
Zn8A O17E_2 1_555 1_555
Zn8A O19A 1_555 1_555
Zn8A O22A 1_555 1_555
Zn8A O22C 1_555 1_555
Zn8B O17B 1_555 1_555
Zn8B O17C_2 1_555 1_555
Zn8B O19B 1_555 1_555
Zn8B O22B 1_555 1_555
Zn8B O22D 1_555 1_555
Zn8E O1E 1_555 1_555
Zn8E O17E_2 1_555 1_555
Zn8E O19E 1_555 1_555
Zn8E O22E 1_555 1_555
Zn8E O22A 1_555 1_555
Zn8C O17A 1_555 1_555
Zn8C O17C_2 1_555 1_555
Zn8C O19C 1_555 1_555
Zn8C O22C 1_555 1_555
Zn8C O22B 1_555 1_555
Zn8D O1D 1_555 1_555
Zn8D O17B 1_555 1_555
Zn8D O17D 1_555 1_555
Zn8D O19D 1_555 1_555
Zn8D O22D 1_555 1_555
Zn9A O20A 1_555 1_555
Zn9A O21A 1_555 1_555
Zn9B O20B 1_555 1_555
Zn9B O21B 1_555 1_555
Zn9E O20E 1_555 1_555
Zn9E O21E_2 1_555 1_555
Zn9C O20C 1_555 1_555
Zn9C O21C_2 1_555 1_555
Zn9D O20D 1_555 1_555
Zn9D O21D_2 1_555 1_555
Zn9A_2 O21A_2 1_555 1_555
Zn9A_2 O23A 1_555 1_555
Zn9C_2 O15E 1_555 1_555
Zn9C_2 O21C 1_555 1_555
Zn9B_2 O15A 1_555 1_555
Zn9B_2 O21B_2 1_555 1_555
Zn9_2 O15B 1_555 1_555
Zn9_2 O21_2 1_555 1_555
Zn9D_2 O15C 1_555 1_555
Zn9D_2 O21D 1_555 1_555
Zn9E_2 O15D 1_555 1_555
Zn9E_2 O21E 1_555 1_555
Zn10A O12A 1_555 1_555
Zn10A O20A 1_555 1_555
Zn10A O23A_2 1_555 1_555
Zn10A O23B_2 1_555 1_555
Zn10B O12B 1_555 1_555
Zn10B O20B 1_555 1_555
Zn10B O23B 1_555 1_555
Zn10B O23_2 1_555 1_555
Zn10E O11E 1_555 1_555
Zn10E O12E 1_555 1_555
Zn10E O20E 1_555 1_555
Zn10E O23E 1_555 1_555
Zn10E O23C_2 1_555 1_555
Zn10C O12C 1_555 1_555
Zn10C O20C 1_555 1_555
Zn10C O23C 1_555 1_555
Zn10C O23D_2 1_555 1_555
Zn10D O12D 1_555 1_555
Zn10D O20D 1_555 1_555
Zn10D O23D 1_555 1_555
Zn10D O23E_2 1_555 1_555
Zn10B_2 O11B_2 1_555 1_555
Zn10_2 O11_2 1_555 1_555
Zn10_2 O23A_2 1_555 1_555
Zn10A_3 O11A_2 1_555 1_555
Zn10A_3 O23B 1_555 1_555
Zn10D_2 O11D_2 1_555 1_555
Zn10D_2 O23E 1_555 1_555
Zn10E_2 O11E_2 1_555 1_555
Zn10E_2 O23C 1_555 1_555
Zn10B_3 O23B_2 1_555 1_555
N1A N1B 1_555 1_555
N1A C1B 1_555 1_555
N1A C1A 1_555 1_555
N1B C1B 1_555 1_555
N1B C1A 1_555 1_555
N1C N1D 1_555 1_555
N1C N1E 1_555 1_555
N1C C1D 1_555 1_555
N1C C1E 1_555 1_555
N1D N1E 1_555 1_555
N1D C1C 1_555 1_555
N1D C1D 1_555 1_555
N1D C1E 1_555 1_555
N1E C1C 1_555 1_555
N1E C1D 1_555 1_555
N1E C1E 1_555 1_555
C1B C1A 1_555 1_555
C1B C1C 1_555 1_555
C1B C1D 1_555 1_555
C1A C1C 1_555 1_555
C1A C1E 1_555 1_555
C1C C1D 1_555 1_555
C1C C1E 1_555 1_555
C1D C1E 1_555 1_555
C3E N3E 1_555 1_555
C3A N3A 1_555 1_555
C3B N3B 1_555 1_555
C3C N3C 1_555 1_555

#END
