
#######################################################################
#
#                 Cambridge Crystallographic Data Centre
#                                CCDC 
#
#######################################################################
#
# If this CIF has been generated from an entry in the Cambridge 
# Structural Database, then it will include bibliographic, chemical, 
# crystal, experimental, refinement or atomic coordinate data resulting 
# from the CCDC's data processing and validation procedures.
#
#######################################################################

data_RUPRUQ
_chemical_formula_moiety         '(C48 H44 O44 Ti8)n'
_symmetry_cell_setting           tetragonal
_symmetry_space_group_name_H-M   'I 4/m m m'
_symmetry_Int_Tables_number      139
_space_group_name_Hall           '-I 4 2'
loop_
_symmetry_equiv_pos_site_id
_symmetry_equiv_pos_as_xyz
1 x,y,z
2 -y,x,z
3 x,-y,-z
4 -x,-y,z
5 y,x,-z
6 y,-x,z
7 -x,y,-z
8 -y,-x,-z
9 1/2+x,1/2+y,1/2+z
10 1/2-y,1/2+x,1/2+z
11 1/2+x,1/2-y,1/2-z
12 1/2-x,1/2-y,1/2+z
13 1/2+y,1/2+x,1/2-z
14 1/2+y,1/2-x,1/2+z
15 1/2-x,1/2+y,1/2-z
16 1/2-y,1/2-x,1/2-z
17 -x,-y,-z
18 y,-x,-z
19 -x,y,z
20 x,y,-z
21 -y,-x,z
22 -y,x,-z
23 x,-y,z
24 y,x,z
25 1/2-x,1/2-y,1/2-z
26 1/2+y,1/2-x,1/2-z
27 1/2-x,1/2+y,1/2+z
28 1/2+x,1/2+y,1/2-z
29 1/2-y,1/2-x,1/2+z
30 1/2-y,1/2+x,1/2-z
31 1/2+x,1/2-y,1/2+z
32 1/2+y,1/2+x,1/2+z
_cell_length_a                   18.6543(10)
_cell_length_b                   18.6543(10)
_cell_length_c                   18.1444(10)
_cell_angle_alpha                90
_cell_angle_beta                 90
_cell_angle_gamma                90
_cell_volume                     6313.94
loop_
_atom_site_label
_atom_site_type_symbol
_atom_site_fract_x
_atom_site_fract_y
_atom_site_fract_z
_atom_site_U_iso_or_equiv
_atom_site_thermal_displace_type
Ti1 Ti 0.2083 0.0740 0.5000 0.0000 Uiso
O1 O 0.3111 0.0580 0.5000 0.0000 Uiso
O2 O 0.1819 0.0000 0.4265 0.0000 Uiso
O3 O 0.2259 0.1442 0.4268 0.0000 Uiso
O4 O 0.1074 0.1074 0.5000 0.0000 Uiso
C1 C 0.3507 0.0000 0.5000 0.0000 Uiso
C2 C 0.4265 0.0000 0.5000 0.0000 Uiso
C3 C 0.4632 0.0705 0.5000 0.0000 Uiso
C4 C 0.1940 0.1940 0.4023 0.0000 Uiso
C5 C 0.2225 0.2225 0.3209 0.0000 Uiso
C6 C 0.2015 0.2876 0.2898 0.0000 Uiso
Ti1B Ti 0.2083 -0.0740 0.5000 0.0000 Uiso
Ti1F Ti 0.7917 0.0740 0.5000 0.0000 Uiso
Ti1C Ti 0.7917 -0.0740 0.5000 0.0000 Uiso
Ti1D Ti 0.0740 0.2083 0.5000 0.0000 Uiso
Ti1O Ti 0.4260 0.2917 0.0000 0.0000 Uiso
Ti1K Ti 0.2917 0.4260 0.0000 0.0000 Uiso
Ti1O_2 Ti 0.4260 0.2917 1.0000 0.0000 Uiso
Ti1K_2 Ti 0.2917 0.4260 1.0000 0.0000 Uiso
Ti1E Ti 0.0740 -0.2083 0.5000 0.0000 Uiso
Ti1I Ti 0.4260 -0.2917 1.0000 0.0000 Uiso
Ti1N Ti 0.2917 -0.4260 1.0000 0.0000 Uiso
Ti1I_2 Ti 0.4260 -0.2917 0.0000 0.0000 Uiso
Ti1N_2 Ti 0.2917 -0.4260 0.0000 0.0000 Uiso
Ti1A Ti 0.9260 0.2083 0.5000 0.0000 Uiso
Ti1G Ti 0.9260 -0.2083 0.5000 0.0000 Uiso
Ti1A_2 Ti -0.0740 0.2083 0.5000 0.0000 Uiso
Ti1E_2 Ti 0.0740 0.7917 0.5000 0.0000 Uiso
Ti1G_2 Ti -0.0740 0.7917 0.5000 0.0000 Uiso
Ti1M Ti 0.5740 0.2917 0.0000 0.0000 Uiso
O1B O 0.3111 -0.0580 0.5000 0.0000 Uiso
O1F O 0.6889 0.0580 0.5000 0.0000 Uiso
O1C O 0.6889 -0.0580 0.5000 0.0000 Uiso
O1D O 0.0580 0.3111 0.5000 0.0000 Uiso
O1A O -0.0580 0.3111 0.5000 0.0000 Uiso
O1E O 0.0580 0.6889 0.5000 0.0000 Uiso
O1G O -0.0580 0.6889 0.5000 0.0000 Uiso
O1O O 0.4420 0.1889 0.0000 0.0000 Uiso
O1K O 0.1889 0.4420 0.0000 0.0000 Uiso
O1O_2 O 0.4420 0.1889 1.0000 0.0000 Uiso
O2B O 0.1819 0.0000 0.5735 0.0000 Uiso
O2F O 0.8181 0.0000 0.5735 0.0000 Uiso
O2C O 0.8181 0.0000 0.4265 0.0000 Uiso
O2A O 0.0000 0.1819 0.4265 0.0000 Uiso
O2D O 0.0000 0.1819 0.5735 0.0000 Uiso
O2O O 0.5000 0.3181 0.0735 0.0000 Uiso
O2M O 0.5000 0.3181 -0.0735 0.0000 Uiso
O2N O 0.3181 0.5000 0.0735 0.0000 Uiso
O2K O 0.3181 0.5000 -0.0735 0.0000 Uiso
O2M_2 O 0.5000 0.3181 0.9265 0.0000 Uiso
O2O_2 O 0.5000 0.3181 1.0735 0.0000 Uiso
O3W O 0.1442 0.2259 0.4268 0.0000 Uiso
O3O O 0.3558 0.2741 0.0732 0.0000 Uiso
O3X O 0.2741 0.3558 0.0732 0.0000 Uiso
O3S O 0.2259 0.1442 0.5732 0.0000 Uiso
O3D O 0.1442 0.2259 0.5732 0.0000 Uiso
O3BA O 0.3558 0.2741 0.9268 0.0000 Uiso
O3K O 0.2741 0.3558 0.9268 0.0000 Uiso
O3B O 0.2259 -0.1442 0.5732 0.0000 Uiso
O3Q O 0.1442 -0.2259 0.5732 0.0000 Uiso
O3I O 0.3558 -0.2741 0.9268 0.0000 Uiso
O3Z O 0.2741 -0.3558 0.9268 0.0000 Uiso
O3V O 0.2259 -0.1442 0.4268 0.0000 Uiso
O3E O 0.1442 -0.2259 0.4268 0.0000 Uiso
O3CA O 0.3558 -0.2741 0.0732 0.0000 Uiso
O3N O 0.2741 -0.3558 0.0732 0.0000 Uiso
O3F O 0.7741 0.1442 0.5732 0.0000 Uiso
O3R O 0.7741 0.1442 0.4268 0.0000 Uiso
O3C O 0.7741 -0.1442 0.4268 0.0000 Uiso
O3P O 0.7741 -0.1442 0.5732 0.0000 Uiso
O3BA_2 O 0.3558 0.2741 -0.0732 0.0000 Uiso
O3K_2 O 0.2741 0.3558 -0.0732 0.0000 Uiso
O3O_2 O 0.3558 0.2741 1.0732 0.0000 Uiso
O4B O 0.1074 -0.1074 0.5000 0.0000 Uiso
O4A O 0.8926 0.1074 0.5000 0.0000 Uiso
O4C O 0.8926 -0.1074 0.5000 0.0000 Uiso
O4K O 0.3926 0.3926 0.0000 0.0000 Uiso
O4K_2 O 0.3926 0.3926 1.0000 0.0000 Uiso
C1C C 0.6493 0.0000 0.5000 0.0000 Uiso
C1A C 0.0000 0.3507 0.5000 0.0000 Uiso
C1E C 0.0000 0.6493 0.5000 0.0000 Uiso
C2C C 0.5735 0.0000 0.5000 0.0000 Uiso
C2A C 0.0000 0.4265 0.5000 0.0000 Uiso
C2E C 0.0000 0.5735 0.5000 0.0000 Uiso
C3F C 0.5368 0.0705 0.5000 0.0000 Uiso
C3C C 0.5368 -0.0705 0.5000 0.0000 Uiso
C3B C 0.4632 -0.0705 0.5000 0.0000 Uiso
C3D C 0.0705 0.4632 0.5000 0.0000 Uiso
C3E C 0.0705 0.5368 0.5000 0.0000 Uiso
C3G C -0.0705 0.5368 0.5000 0.0000 Uiso
C3A C -0.0705 0.4632 0.5000 0.0000 Uiso
C4O C 0.3060 0.3060 0.0977 0.0000 Uiso
C4D C 0.1940 0.1940 0.5977 0.0000 Uiso
C4K C 0.3060 0.3060 0.9023 0.0000 Uiso
C4B C 0.1940 -0.1940 0.5977 0.0000 Uiso
C4I C 0.3060 -0.3060 0.9023 0.0000 Uiso
C4E C 0.1940 -0.1940 0.4023 0.0000 Uiso
C4N C 0.3060 -0.3060 0.0977 0.0000 Uiso
C5O C 0.2775 0.2775 0.1791 0.0000 Uiso
C5D C 0.2225 0.2225 0.6791 0.0000 Uiso
C5K C 0.2775 0.2775 0.8209 0.0000 Uiso
C5B C 0.2225 -0.2225 0.6791 0.0000 Uiso
C5I C 0.2775 -0.2775 0.8209 0.0000 Uiso
C5E C 0.2225 -0.2225 0.3209 0.0000 Uiso
C5N C 0.2775 -0.2775 0.1791 0.0000 Uiso
C6O C 0.2124 0.2985 0.2102 0.0000 Uiso
C6X C 0.2985 0.2124 0.2102 0.0000 Uiso
C6W C 0.2876 0.2015 0.2898 0.0000 Uiso
C6S C 0.2015 0.2876 0.7102 0.0000 Uiso
C6BA C 0.2124 0.2985 0.7898 0.0000 Uiso
C6K C 0.2985 0.2124 0.7898 0.0000 Uiso
C6D C 0.2876 0.2015 0.7102 0.0000 Uiso
C6B C 0.2015 -0.2876 0.7102 0.0000 Uiso
C6I C 0.2124 -0.2985 0.7898 0.0000 Uiso
C6Z C 0.2985 -0.2124 0.7898 0.0000 Uiso
C6Q C 0.2876 -0.2015 0.7102 0.0000 Uiso
C6V C 0.2015 -0.2876 0.2898 0.0000 Uiso
C6CA C 0.2124 -0.2985 0.2102 0.0000 Uiso
C6N C 0.2985 -0.2124 0.2102 0.0000 Uiso
C6E C 0.2876 -0.2015 0.2898 0.0000 Uiso
O5 O 0.1759 0.1759 0.0000 0.0000 Uiso
O6 O 0.0918 0.0918 0.2540 0.0000 Uiso
O7 O 0.4049 0.0000 0.2652 0.0000 Uiso
O8 O 0.0000 0.0000 0.5654 0.0000 Uiso
O9 O 0.1065 0.1065 0.0952 0.0000 Uiso
O10 O 0.2351 0.0000 0.2237 0.0000 Uiso
O11 O 0.0000 0.0000 0.1790 0.0000 Uiso
O12 O 0.0000 0.0000 0.0000 0.0000 Uiso
loop_
_geom_bond_atom_site_label_1
_geom_bond_atom_site_label_2
_geom_bond_site_symmetry_1
_geom_bond_site_symmetry_2
Ti1 O1 1_555 1_555
O1 C1 1_555 1_555
O2 Ti1 1_555 1_555
O3 Ti1 1_555 1_555
O4 Ti1 1_555 1_555
C1 C2 1_555 1_555
C2 C3 1_555 1_555
C3 C3F 1_555 1_555
C4 O3 1_555 1_555
C5 C4 1_555 1_555
C6 C5 1_555 1_555
Ti1B O2 1_555 1_555
Ti1F O1F 1_555 1_555
Ti1C O1C 1_555 1_555
Ti1D O4 1_555 1_555
Ti1O O1O 1_555 1_555
Ti1K O1K 1_555 1_555
Ti1O_2 O1O_2 1_555 1_555
Ti1K_2 O3K 1_555 1_555
Ti1E O3Q 1_555 1_555
Ti1I O3I 1_555 1_555
Ti1N O3Z 1_555 1_555
Ti1I_2 O3CA 1_555 1_555
Ti1N_2 O3N 1_555 1_555
Ti1A O4A 1_555 1_555
Ti1G O4C 1_555 1_555
Ti1A_2 O1A 1_555 1_555
Ti1E_2 O1E 1_555 1_555
Ti1G_2 O1G 1_555 1_555
Ti1M O2O 1_555 1_555
O1B C1 1_555 1_555
O1F C1C 1_555 1_555
O1C C1C 1_555 1_555
O1D Ti1D 1_555 1_555
O1A C1A 1_555 1_555
O1E C1E 1_555 1_555
O1G C1E 1_555 1_555
O2B Ti1 1_555 1_555
O2F Ti1F 1_555 1_555
O2C Ti1F 1_555 1_555
O2A Ti1D 1_555 1_555
O2D Ti1D 1_555 1_555
O2O Ti1O 1_555 1_555
O2M Ti1O 1_555 1_555
O2N Ti1K 1_555 1_555
O2K Ti1K 1_555 1_555
O2M_2 Ti1O_2 1_555 1_555
O2O_2 Ti1O_2 1_555 1_555
O3W C4 1_555 1_555
O3O Ti1O 1_555 1_555
O3X Ti1K 1_555 1_555
O3S Ti1 1_555 1_555
O3D Ti1D 1_555 1_555
O3BA Ti1O_2 1_555 1_555
O3K C4K 1_555 1_555
O3B Ti1B 1_555 1_555
O3Q C4B 1_555 1_555
O3I C4I 1_555 1_555
O3Z C4I 1_555 1_555
O3V Ti1B 1_555 1_555
O3E Ti1E 1_555 1_555
O3CA C4N 1_555 1_555
O3N C4N 1_555 1_555
O3F Ti1F 1_555 1_555
O3R Ti1F 1_555 1_555
O3C Ti1C 1_555 1_555
O3P Ti1C 1_555 1_555
O3BA_2 Ti1O 1_555 1_555
O3K_2 Ti1K 1_555 1_555
O3O_2 Ti1O_2 1_555 1_555
O4B Ti1B 1_555 1_555
O4A Ti1F 1_555 1_555
O4C Ti1C 1_555 1_555
O4K Ti1O 1_555 1_555
O4K_2 Ti1O_2 1_555 1_555
C1C C2C 1_555 1_555
C1A O1D 1_555 1_555
C1E C2E 1_555 1_555
C2C C3F 1_555 1_555
C2A C1A 1_555 1_555
C2E C3E 1_555 1_555
C3C C2C 1_555 1_555
C3B C2 1_555 1_555
C3D C2A 1_555 1_555
C3E C3D 1_555 1_555
C3G C2E 1_555 1_555
C3A C2A 1_555 1_555
C4O O3O 1_555 1_555
C4D O3S 1_555 1_555
C4K O3BA 1_555 1_555
C4B O3B 1_555 1_555
C4I C5I 1_555 1_555
C4E O3V 1_555 1_555
C4N C5N 1_555 1_555
C5O C4O 1_555 1_555
C5D C4D 1_555 1_555
C5K C4K 1_555 1_555
C5B C4B 1_555 1_555
C5I C6I 1_555 1_555
C5E C4E 1_555 1_555
C5N C6CA 1_555 1_555
C6O C6 1_555 1_555
C6X C5O 1_555 1_555
C6W C5 1_555 1_555
C6S C5D 1_555 1_555
C6BA C5K 1_555 1_555
C6K C5K 1_555 1_555
C6D C5D 1_555 1_555
C6B C5B 1_555 1_555
C6I C6B 1_555 1_555
C6Z C5I 1_555 1_555
C6Q C5B 1_555 1_555
C6V C5E 1_555 1_555
C6CA C6V 1_555 1_555
C6N C5N 1_555 1_555
C6E C5E 1_555 1_555
Ti1B O1B 1_555 1_555
Ti1B O2B 1_555 1_555
Ti1C O2F 1_555 1_555
Ti1C O2C 1_555 1_555
Ti1D O3W 1_555 1_555
Ti1K O4K 1_555 1_555
Ti1K_2 O4K_2 1_555 1_555
Ti1E O4B 1_555 1_555
Ti1A_2 O2A 1_555 1_555
Ti1A_2 O2D 1_555 1_555
Ti1M O2M 1_555 1_555
O3X C4O 1_555 1_555
O3D C4D 1_555 1_555
O3E C4E 1_555 1_555
C3C C3B 1_555 1_555
C3G C3A 1_555 1_555
C5O C6O 1_555 1_555
C6X C6W 1_555 1_555
C6S C6BA 1_555 1_555
C6K C6D 1_555 1_555
C6Z C6Q 1_555 1_555
C6N C6E 1_555 1_555

#END
