
#######################################################################
#
#                 Cambridge Crystallographic Data Centre
#                                CCDC 
#
#######################################################################
#
# If this CIF has been generated from an entry in the Cambridge 
# Structural Database, then it will include bibliographic, chemical, 
# crystal, experimental, refinement or atomic coordinate data resulting 
# from the CCDC's data processing and validation procedures.
#
#######################################################################

data_BEVRAW
_chemical_formula_moiety         '(C8 H12 Ca2 O22 Zr1)n'
_symmetry_cell_setting           tetragonal
_symmetry_space_group_name_H-M   'I -4 m 2'
_symmetry_Int_Tables_number      119
_space_group_name_Hall           'I -4 -2'
loop_
_symmetry_equiv_pos_site_id
_symmetry_equiv_pos_as_xyz
1 x,y,z
2 y,-x,-z
3 -x,y,z
4 -x,-y,z
5 y,x,-z
6 -y,x,-z
7 x,-y,z
8 -y,-x,-z
9 1/2+x,1/2+y,1/2+z
10 1/2+y,1/2-x,1/2-z
11 1/2-x,1/2+y,1/2+z
12 1/2-x,1/2-y,1/2+z
13 1/2+y,1/2+x,1/2-z
14 1/2-y,1/2+x,1/2-z
15 1/2+x,1/2-y,1/2+z
16 1/2-y,1/2-x,1/2-z
_cell_length_a                   11.2558(2)
_cell_length_b                   11.2558(2)
_cell_length_c                   8.4288(2)
_cell_angle_alpha                90
_cell_angle_beta                 90
_cell_angle_gamma                90
_cell_volume                     1067.87
loop_
_atom_site_label
_atom_site_type_symbol
_atom_site_fract_x
_atom_site_fract_y
_atom_site_fract_z
Zr1 Zr 0.5000 0.0000 0.2500
Ca1 Ca 0.5000 0.5000 0.5000
Ca2 Ca 0.5000 0.5000 0.0000
O1 O 0.5000 0.3730(5) 0.238(2)
O2 O 0.5000 0.1925(6) 0.1859(8)
O3 O 0.5000 0.2902(8) 0.6092(9)
O4 O 0.5000 0.1223(5) 0.485(1)
O5 O 0.5000 0.306(1) -0.069(1)
C1 C 0.5000 0.2684(6) 0.2956(8)
C2 C 0.5000(6) 0.2341 0.4714(8)
O1C O 0.5000 -0.3730(5) 0.238(2)
O2C O 0.5000 -0.1925(6) 0.1859(8)
O3C O 0.5000 -0.2902(8) 0.6092(9)
O4C O 0.5000 -0.1223(5) 0.485(1)
C1C C 0.5000 -0.2684(6) 0.2956(8)
C2C C 0.5000(6) -0.2341 0.4714(8)
O1I O 0.8730(5) -0.0000 0.262(2)
O2I O 0.6925(6) 0.0000 0.3141(8)
O3I O 0.7902(8) 0.0000 -0.1092(9)
O4I O 0.6223(5) 0.0000 0.015(1)
C1I C 0.7684(6) 0.0000 0.2044(8)
C2I C 0.7341 0.0000(6) 0.0286(8)
O1M O 0.1270(5) -0.0000 0.262(2)
O2M O 0.3075(6) 0.0000 0.3141(8)
O3M O 0.2098(8) 0.0000 -0.1092(9)
O4M O 0.3777(5) 0.0000 0.015(1)
C1M C 0.2316(6) 0.0000 0.2044(8)
C2M C 0.2659 0.0000(6) 0.0286(8)
O5A O 0.306(1) 0.5000 0.069(1)
O5C O 0.5000 0.694(1) -0.069(1)
O5E O 0.694(1) 0.5000 0.069(1)
O1A O 0.3730(5) 0.5000 0.762(2)
O1C_2 O 0.5000 0.6270(5) 0.238(2)
O1E O 0.6270(5) 0.5000 0.762(2)
O3A O 0.2902(8) 0.5000 0.3908(9)
O3C_2 O 0.5000 0.7098(8) 0.6092(9)
O3E O 0.7098(8) 0.5000 0.3908(9)
O1A_2 O 0.3730(5) 0.5000 -0.238(2)
O1E_2 O 0.6270(5) 0.5000 -0.238(2)
Ca1_2 Ca 0.5000 -0.5000 0.5000
Ca2_2 Ca 0.5000 -0.5000 0.0000
Ca1H Ca 1.0000 0.0000 0.0000
Ca2H Ca 1.0000 0.0000 0.5000
Ca1H_2 Ca 0.0000 0.0000 0.0000
Ca2H_2 Ca 0.0000 0.0000 0.5000
O6 O -0.0000 0.5000 0.2500
O7 O 0.742(2) 0.758(2) 0.7500
loop_
_geom_bond_atom_site_label_1
_geom_bond_atom_site_label_2
_geom_bond_site_symmetry_1
_geom_bond_site_symmetry_2
Zr1 O2 1_555 1_555
Ca1 O1 1_555 1_555
Ca2 O1 1_555 1_555
O1 C1 1_555 1_555
O2 C1 1_555 1_555
O3 Ca1 1_555 1_555
O4 Zr1 1_555 1_555
O5 Ca2 1_555 1_555
C1 C2 1_555 1_555
C2 O3 1_555 1_555
O1C C1C 1_555 1_555
O2C Zr1 1_555 1_555
O3C C2C 1_555 1_555
O4C Zr1 1_555 1_555
C1C O2C 1_555 1_555
C2C O4C 1_555 1_555
O1I C1I 1_555 1_555
O2I Zr1 1_555 1_555
O3I C2I 1_555 1_555
O4I Zr1 1_555 1_555
C1I O2I 1_555 1_555
C2I O4I 1_555 1_555
O1M C1M 1_555 1_555
O2M Zr1 1_555 1_555
O3M C2M 1_555 1_555
O4M Zr1 1_555 1_555
C1M O2M 1_555 1_555
C2M O4M 1_555 1_555
O5A Ca2 1_555 1_555
O5C Ca2 1_555 1_555
O5E Ca2 1_555 1_555
O1A Ca1 1_555 1_555
O1C_2 Ca1 1_555 1_555
O1E Ca1 1_555 1_555
O3A Ca1 1_555 1_555
O3C_2 Ca1 1_555 1_555
O3E Ca1 1_555 1_555
O1A_2 Ca2 1_555 1_555
O1E_2 Ca2 1_555 1_555
Ca1_2 O1C 1_555 1_555
Ca2_2 O1C 1_555 1_555
Ca1H O1I 1_555 1_555
Ca2H O1I 1_555 1_555
Ca1H_2 O1M 1_555 1_555
Ca2H_2 O1M 1_555 1_555
Ca2 O1C_2 1_555 1_555
O4 C2 1_555 1_555
O3C Ca1_2 1_555 1_555
C1C C2C 1_555 1_555
O3I Ca1H 1_555 1_555
C1I C2I 1_555 1_555
O3M Ca1H_2 1_555 1_555
C1M C2M 1_555 1_555

#END
