
#######################################################################
#
#                 Cambridge Crystallographic Data Centre
#                                CCDC 
#
#######################################################################
#
# If this CIF has been generated from an entry in the Cambridge 
# Structural Database, then it will include bibliographic, chemical, 
# crystal, experimental, refinement or atomic coordinate data resulting 
# from the CCDC's data processing and validation procedures.
#
#######################################################################

data_BAZFUF
_chemical_formula_moiety         '(C108 H72 Cu6 O30)n'
_symmetry_cell_setting           cubic
_symmetry_space_group_name_H-M   'P m -3 n'
_symmetry_Int_Tables_number      223
_space_group_name_Hall           '-P 4n 2 3'
loop_
_symmetry_equiv_pos_site_id
_symmetry_equiv_pos_as_xyz
1 x,y,z
2 -x,-y,z
3 -x,y,-z
4 x,-y,-z
5 z,x,y
6 z,-x,-y
7 -z,-x,y
8 -z,x,-y
9 y,z,x
10 -y,z,-x
11 y,-z,-x
12 -y,-z,x
13 1/2+y,1/2+x,1/2-z
14 1/2-y,1/2-x,1/2-z
15 1/2+y,1/2-x,1/2+z
16 1/2-y,1/2+x,1/2+z
17 1/2+x,1/2+z,1/2-y
18 1/2-x,1/2+z,1/2+y
19 1/2-x,1/2-z,1/2-y
20 1/2+x,1/2-z,1/2+y
21 1/2+z,1/2+y,1/2-x
22 1/2+z,1/2-y,1/2+x
23 1/2-z,1/2+y,1/2+x
24 1/2-z,1/2-y,1/2-x
25 -x,-y,-z
26 x,y,-z
27 x,-y,z
28 -x,y,z
29 -z,-x,-y
30 -z,x,y
31 z,x,-y
32 z,-x,y
33 -y,-z,-x
34 y,-z,x
35 -y,z,x
36 y,z,-x
37 1/2-y,1/2-x,1/2+z
38 1/2+y,1/2+x,1/2+z
39 1/2-y,1/2+x,1/2-z
40 1/2+y,1/2-x,1/2-z
41 1/2-x,1/2-z,1/2+y
42 1/2+x,1/2-z,1/2-y
43 1/2+x,1/2+z,1/2+y
44 1/2-x,1/2+z,1/2-y
45 1/2-z,1/2-y,1/2+x
46 1/2-z,1/2+y,1/2-x
47 1/2+z,1/2-y,1/2-x
48 1/2+z,1/2+y,1/2+x
_cell_length_a                   27.4719(14)
_cell_length_b                   27.4719(14)
_cell_length_c                   27.4719(14)
_cell_angle_alpha                90
_cell_angle_beta                 90
_cell_angle_gamma                90
_cell_volume                     20733.2
loop_
_atom_site_label
_atom_site_type_symbol
_atom_site_fract_x
_atom_site_fract_y
_atom_site_fract_z
Cu1 Cu 0.5000 0.79797(2) 0.0000
O1 O 0.55006(6) 0.79086(6) 0.05017(6)
O2 O 0.5000 0.87695(14) 0.0000
C1 C 0.56441(9) 0.7500 0.06441(9)
C2 C 0.60355(9) 0.7500 0.10355(9)
C3 C 0.62110(11) 0.79280(10) 0.12188(11)
H1 H 0.6089 0.8221 0.1103
C4 C 0.65718(11) 0.79321(10) 0.15786(12)
H2 H 0.6688 0.8227 0.1698
C5 C 0.67564(9) 0.7500 0.17564(9)
C6 C 0.71407(9) 0.7500 0.21407(9)
C7 C 0.71420(10) 0.78580(10) 0.2500
H3 H 0.6903 0.8097 0.2500
Cu1U Cu 0.5000 0.70203(2) 0.0000
Cu1H Cu 0.79797(2) 1.0000 0.5000
Cu1M Cu 0.70203(2) 1.0000 0.5000
Cu1E Cu 1.0000 0.5000 0.20203(2)
Cu1Q Cu 1.0000 0.5000 0.29797(2)
Cu1I Cu 0.20203(2) 1.0000 -0.5000
Cu1L Cu 0.29797(2) 1.0000 -0.5000
Cu1D Cu 0.0000 0.5000 -0.20203(2)
Cu1P Cu 0.0000 0.5000 -0.29797(2)
Cu1H_2 Cu 0.79797(2) 1.0000 -0.5000
Cu1M_2 Cu 0.70203(2) 1.0000 -0.5000
Cu1D_2 Cu 1.0000 0.5000 -0.20203(2)
Cu1P_2 Cu 1.0000 0.5000 -0.29797(2)
Cu1I_2 Cu 0.20203(2) 1.0000 0.5000
Cu1L_2 Cu 0.29797(2) 1.0000 0.5000
Cu1E_2 Cu -0.0000 0.5000 0.20203(2)
Cu1Q_2 Cu -0.0000 0.5000 0.29797(2)
O1U O 0.55017(6) 0.70914(6) 0.05006(6)
O1J O 0.79086(6) 0.94983(6) 0.44994(6)
O1M O 0.70914(6) 0.94994(6) 0.44983(6)
O1G O 0.94983(6) 0.55006(6) 0.20914(6)
O1Q O 0.94994(6) 0.55017(6) 0.29086(6)
O1B O 0.44994(6) 0.79086(6) -0.05017(6)
O1W O 0.44983(6) 0.70914(6) -0.05006(6)
O1K O 0.20914(6) 0.94983(6) -0.44994(6)
O1N O 0.29086(6) 0.94994(6) -0.44983(6)
O1D O 0.05017(6) 0.55006(6) -0.20914(6)
O1P O 0.05006(6) 0.55017(6) -0.29086(6)
O1Y O 0.55006(6) 0.79086(6) -0.05017(6)
O1TA O 0.55017(6) 0.70914(6) -0.05006(6)
O1GA O 0.79086(6) 0.94983(6) -0.44994(6)
O1JA O 0.70914(6) 0.94994(6) -0.44983(6)
O1CA O 0.94983(6) 0.55006(6) -0.20914(6)
O1QA O 0.94994(6) 0.55017(6) -0.29086(6)
O1AA O 0.44994(6) 0.79086(6) 0.05017(6)
O1RA O 0.44983(6) 0.70914(6) 0.05006(6)
O1FA O 0.20914(6) 0.94983(6) 0.44994(6)
O1MA O 0.29086(6) 0.94994(6) 0.44983(6)
O1DA O 0.05017(6) 0.55006(6) 0.20914(6)
O1PA O 0.05006(6) 0.55017(6) 0.29086(6)
O1H O 0.79086(6) 1.05017(6) 0.55006(6)
O1IA O 0.79086(6) 1.05017(6) 0.44994(6)
O1GA_2 O 0.79086(6) 0.94983(6) 0.55006(6)
O1O O 0.70914(6) 1.05006(6) 0.55017(6)
O1JA_2 O 0.70914(6) 0.94994(6) 0.55017(6)
O1LA O 0.70914(6) 1.05006(6) 0.44983(6)
O1E O 1.05017(6) 0.44994(6) 0.20914(6)
O1DA_2 O 1.05017(6) 0.55006(6) 0.20914(6)
O1BA O 0.94983(6) 0.44994(6) 0.20914(6)
O1S O 1.05006(6) 0.44983(6) 0.29086(6)
O1NA O 0.94994(6) 0.44983(6) 0.29086(6)
O1PA_2 O 1.05006(6) 0.55017(6) 0.29086(6)
O2U O 0.5000 0.62305(14) 0.0000
O2H O 0.87695(14) 1.0000 0.5000
O2M O 0.62305(14) 1.0000 0.5000
O2E O 1.0000 0.5000 0.12305(14)
O2Q O 1.0000 0.5000 0.37695(14)
C1J C 0.7500 0.93559(9) 0.43559(9)
C1G C 0.93559(9) 0.56441(9) 0.2500
C1B C 0.43559(9) 0.7500 -0.06441(9)
C1K C 0.2500 0.93559(9) -0.43559(9)
C1D C 0.06441(9) 0.56441(9) -0.2500
C1Y C 0.56441(9) 0.7500 -0.06441(9)
C1GA C 0.7500 0.93559(9) -0.43559(9)
C1CA C 0.93559(9) 0.56441(9) -0.2500
C1AA C 0.43559(9) 0.7500 0.06441(9)
C1FA C 0.2500 0.93559(9) 0.43559(9)
C1DA C 0.06441(9) 0.56441(9) 0.2500
C2J C 0.7500 0.89645(9) 0.39645(9)
C2G C 0.89645(9) 0.60355(9) 0.2500
C2B C 0.39645(9) 0.7500 -0.10355(9)
C2K C 0.2500 0.89645(9) -0.39645(9)
C2D C 0.10355(9) 0.60355(9) -0.2500
C2Y C 0.60355(9) 0.7500 -0.10355(9)
C2GA C 0.7500 0.89645(9) -0.39645(9)
C2CA C 0.89645(9) 0.60355(9) -0.2500
C2AA C 0.39645(9) 0.7500 0.10355(9)
C2FA C 0.2500 0.89645(9) 0.39645(9)
C2DA C 0.10355(9) 0.60355(9) 0.2500
C3U C 0.62188(11) 0.70720(10) 0.12110(11)
C3J C 0.79280(10) 0.87812(11) 0.37890(11)
C3M C 0.70720(10) 0.87890(11) 0.37812(11)
C3G C 0.87812(11) 0.62110(11) 0.20720(10)
C3Q C 0.87890(11) 0.62188(11) 0.29280(10)
C3B C 0.37890(11) 0.79280(10) -0.12188(11)
C3W C 0.37812(11) 0.70720(10) -0.12110(11)
C3K C 0.20720(10) 0.87812(11) -0.37890(11)
C3N C 0.29280(10) 0.87890(11) -0.37812(11)
C3D C 0.12188(11) 0.62110(11) -0.20720(10)
C3P C 0.12110(11) 0.62188(11) -0.29280(10)
C3Y C 0.62110(11) 0.79280(10) -0.12188(11)
C3TA C 0.62188(11) 0.70720(10) -0.12110(11)
C3GA C 0.79280(10) 0.87812(11) -0.37890(11)
C3JA C 0.70720(10) 0.87890(11) -0.37812(11)
C3CA C 0.87812(11) 0.62110(11) -0.20720(10)
C3QA C 0.87890(11) 0.62188(11) -0.29280(10)
C3AA C 0.37890(11) 0.79280(10) 0.12188(11)
C3RA C 0.37812(11) 0.70720(10) 0.12110(11)
C3FA C 0.20720(10) 0.87812(11) 0.37890(11)
C3MA C 0.29280(10) 0.87890(11) 0.37812(11)
C3DA C 0.12188(11) 0.62110(11) 0.20720(10)
C3PA C 0.12110(11) 0.62188(11) 0.29280(10)
H1U H 0.6103 0.6779 0.1089
H1M H 0.6779 0.8911 0.3897
H1J H 0.8221 0.8897 0.3911
H1Q H 0.8911 0.6103 0.3221
H1G H 0.8897 0.6089 0.1779
H1B H 0.3911 0.8221 -0.1103
H1W H 0.3897 0.6779 -0.1089
H1N H 0.3221 0.8911 -0.3897
H1K H 0.1779 0.8897 -0.3911
H1P H 0.1089 0.6103 -0.3221
H1D H 0.1103 0.6089 -0.1779
H1Y H 0.6089 0.8221 -0.1103
H1TA H 0.6103 0.6779 -0.1089
H1JA H 0.6779 0.8911 -0.3897
H1GA H 0.8221 0.8897 -0.3911
H1QA H 0.8911 0.6103 -0.3221
H1CA H 0.8897 0.6089 -0.1779
H1AA H 0.3911 0.8221 0.1103
H1RA H 0.3897 0.6779 0.1089
H1MA H 0.3221 0.8911 0.3897
H1FA H 0.1779 0.8897 0.3911
H1PA H 0.1089 0.6103 0.3221
H1DA H 0.1103 0.6089 0.1779
C4U C 0.65786(12) 0.70679(10) 0.15718(11)
C4J C 0.79321(10) 0.84214(12) 0.34282(11)
C4M C 0.70679(10) 0.84282(11) 0.34214(12)
C4G C 0.84214(12) 0.65718(11) 0.20679(10)
C4Q C 0.84282(11) 0.65786(12) 0.29321(10)
C4B C 0.34282(11) 0.79321(10) -0.15786(12)
C4W C 0.34214(12) 0.70679(10) -0.15718(11)
C4K C 0.20679(10) 0.84214(12) -0.34282(11)
C4N C 0.29321(10) 0.84282(11) -0.34214(12)
C4D C 0.15786(12) 0.65718(11) -0.20679(10)
C4P C 0.15718(11) 0.65786(12) -0.29321(10)
C4Y C 0.65718(11) 0.79321(10) -0.15786(12)
C4TA C 0.65786(12) 0.70679(10) -0.15718(11)
C4GA C 0.79321(10) 0.84214(12) -0.34282(11)
C4JA C 0.70679(10) 0.84282(11) -0.34214(12)
C4CA C 0.84214(12) 0.65718(11) -0.20679(10)
C4QA C 0.84282(11) 0.65786(12) -0.29321(10)
C4AA C 0.34282(11) 0.79321(10) 0.15786(12)
C4RA C 0.34214(12) 0.70679(10) 0.15718(11)
C4FA C 0.20679(10) 0.84214(12) 0.34282(11)
C4MA C 0.29321(10) 0.84282(11) 0.34214(12)
C4DA C 0.15786(12) 0.65718(11) 0.20679(10)
C4PA C 0.15718(11) 0.65786(12) 0.29321(10)
H2U H 0.6698 0.6773 0.1688
H2M H 0.6773 0.8312 0.3302
H2J H 0.8227 0.8302 0.3312
H2Q H 0.8312 0.6698 0.3227
H2G H 0.8302 0.6688 0.1773
H2B H 0.3312 0.8227 -0.1698
H2W H 0.3302 0.6773 -0.1688
H2N H 0.3227 0.8312 -0.3302
H2K H 0.1773 0.8302 -0.3312
H2P H 0.1688 0.6698 -0.3227
H2D H 0.1698 0.6688 -0.1773
H2Y H 0.6688 0.8227 -0.1698
H2TA H 0.6698 0.6773 -0.1688
H2JA H 0.6773 0.8312 -0.3302
H2GA H 0.8227 0.8302 -0.3312
H2QA H 0.8312 0.6698 -0.3227
H2CA H 0.8302 0.6688 -0.1773
H2AA H 0.3312 0.8227 0.1698
H2RA H 0.3302 0.6773 0.1688
H2MA H 0.3227 0.8312 0.3302
H2FA H 0.1773 0.8302 0.3312
H2PA H 0.1688 0.6698 0.3227
H2DA H 0.1698 0.6688 0.1773
C5J C 0.7500 0.82436(9) 0.32436(9)
C5G C 0.82436(9) 0.67564(9) 0.2500
C5B C 0.32436(9) 0.7500 -0.17564(9)
C5K C 0.2500 0.82436(9) -0.32436(9)
C5D C 0.17564(9) 0.67564(9) -0.2500
C5Y C 0.67564(9) 0.7500 -0.17564(9)
C5GA C 0.7500 0.82436(9) -0.32436(9)
C5CA C 0.82436(9) 0.67564(9) -0.2500
C5AA C 0.32436(9) 0.7500 0.17564(9)
C5FA C 0.2500 0.82436(9) 0.32436(9)
C5DA C 0.17564(9) 0.67564(9) 0.2500
C6J C 0.7500 0.78593(9) 0.28593(9)
C6G C 0.78593(9) 0.71407(9) 0.2500
C6B C 0.28593(9) 0.7500 -0.21407(9)
C6K C 0.2500 0.78593(9) -0.28593(9)
C6D C 0.21407(9) 0.71407(9) -0.2500
C6Y C 0.71407(9) 0.7500 -0.21407(9)
C6GA C 0.7500 0.78593(9) -0.28593(9)
C6CA C 0.78593(9) 0.71407(9) -0.2500
C6AA C 0.28593(9) 0.7500 0.21407(9)
C6FA C 0.2500 0.78593(9) 0.28593(9)
C6DA C 0.21407(9) 0.71407(9) 0.2500
C7J C 0.78580(10) 0.7500 0.28580(10)
C7G C 0.7500 0.71420(10) 0.21420(10)
C7B C 0.28580(10) 0.78580(10) -0.2500
C7K C 0.21420(10) 0.7500 -0.28580(10)
C7D C 0.2500 0.71420(10) -0.21420(10)
C7Y C 0.71420(10) 0.78580(10) -0.2500
C7GA C 0.78580(10) 0.7500 -0.28580(10)
C7CA C 0.7500 0.71420(10) -0.21420(10)
C7AA C 0.28580(10) 0.78580(10) 0.2500
C7FA C 0.21420(10) 0.7500 0.28580(10)
C7DA C 0.2500 0.71420(10) 0.21420(10)
H3G H 0.7500 0.6903 0.1903
H3J H 0.8097 0.7500 0.3097
H3B H 0.3097 0.8097 -0.2500
H3D H 0.2500 0.6903 -0.1903
H3K H 0.1903 0.7500 -0.3097
H3Y H 0.6903 0.8097 -0.2500
H3CA H 0.7500 0.6903 -0.1903
H3GA H 0.8097 0.7500 -0.3097
H3AA H 0.3097 0.8097 0.2500
H3DA H 0.2500 0.6903 0.1903
H3FA H 0.1903 0.7500 0.3097
loop_
_geom_bond_atom_site_label_1
_geom_bond_atom_site_label_2
_geom_bond_site_symmetry_1
_geom_bond_site_symmetry_2
Cu1 O1 1_555 1_555
O1 C1 1_555 1_555
O2 Cu1 1_555 1_555
C1 C2 1_555 1_555
C2 C3 1_555 1_555
C3 H1 1_555 1_555
C4 C3 1_555 1_555
H2 C4 1_555 1_555
C5 C4 1_555 1_555
C6 C5 1_555 1_555
C7 C6 1_555 1_555
H3 C7 1_555 1_555
Cu1U O1U 1_555 1_555
Cu1H O1J 1_555 1_555
Cu1M O1M 1_555 1_555
Cu1E O1G 1_555 1_555
Cu1Q O1Q 1_555 1_555
Cu1I O1K 1_555 1_555
Cu1L O1N 1_555 1_555
Cu1D O1D 1_555 1_555
Cu1P O1P 1_555 1_555
Cu1H_2 O1GA 1_555 1_555
Cu1M_2 O1JA 1_555 1_555
Cu1D_2 O1CA 1_555 1_555
Cu1P_2 O1QA 1_555 1_555
Cu1I_2 O1FA 1_555 1_555
Cu1L_2 O1MA 1_555 1_555
Cu1E_2 O1DA 1_555 1_555
Cu1Q_2 O1PA 1_555 1_555
O1U C1 1_555 1_555
O1J C1J 1_555 1_555
O1M C1J 1_555 1_555
O1G C1G 1_555 1_555
O1Q C1G 1_555 1_555
O1B Cu1 1_555 1_555
O1W Cu1U 1_555 1_555
O1K C1K 1_555 1_555
O1N C1K 1_555 1_555
O1D C1D 1_555 1_555
O1P C1D 1_555 1_555
O1Y Cu1 1_555 1_555
O1TA Cu1U 1_555 1_555
O1GA C1GA 1_555 1_555
O1JA C1GA 1_555 1_555
O1CA C1CA 1_555 1_555
O1QA C1CA 1_555 1_555
O1AA Cu1 1_555 1_555
O1RA Cu1U 1_555 1_555
O1FA C1FA 1_555 1_555
O1MA C1FA 1_555 1_555
O1DA C1DA 1_555 1_555
O1PA C1DA 1_555 1_555
O1H Cu1H 1_555 1_555
O1IA Cu1H 1_555 1_555
O1GA_2 Cu1H 1_555 1_555
O1O Cu1M 1_555 1_555
O1JA_2 Cu1M 1_555 1_555
O1LA Cu1M 1_555 1_555
O1E Cu1E 1_555 1_555
O1DA_2 Cu1E 1_555 1_555
O1BA Cu1E 1_555 1_555
O1S Cu1Q 1_555 1_555
O1NA Cu1Q 1_555 1_555
O1PA_2 Cu1Q 1_555 1_555
O2U Cu1U 1_555 1_555
O2H Cu1H 1_555 1_555
O2M Cu1M 1_555 1_555
O2E Cu1E 1_555 1_555
O2Q Cu1Q 1_555 1_555
C1J C2J 1_555 1_555
C1G C2G 1_555 1_555
C1B O1B 1_555 1_555
C1K C2K 1_555 1_555
C1D C2D 1_555 1_555
C1Y O1Y 1_555 1_555
C1GA C2GA 1_555 1_555
C1CA C2CA 1_555 1_555
C1AA O1AA 1_555 1_555
C1FA C2FA 1_555 1_555
C1DA C2DA 1_555 1_555
C2J C3J 1_555 1_555
C2G C3G 1_555 1_555
C2B C1B 1_555 1_555
C2K C3K 1_555 1_555
C2D C3D 1_555 1_555
C2Y C1Y 1_555 1_555
C2GA C3GA 1_555 1_555
C2CA C3CA 1_555 1_555
C2AA C1AA 1_555 1_555
C2FA C3FA 1_555 1_555
C2DA C3DA 1_555 1_555
C3U C2 1_555 1_555
C3J H1J 1_555 1_555
C3M C2J 1_555 1_555
C3G H1G 1_555 1_555
C3Q C2G 1_555 1_555
C3B C2B 1_555 1_555
C3W C2B 1_555 1_555
C3K H1K 1_555 1_555
C3N C2K 1_555 1_555
C3D H1D 1_555 1_555
C3P C2D 1_555 1_555
C3Y C2Y 1_555 1_555
C3TA C2Y 1_555 1_555
C3GA H1GA 1_555 1_555
C3JA C2GA 1_555 1_555
C3CA H1CA 1_555 1_555
C3QA C2CA 1_555 1_555
C3AA C2AA 1_555 1_555
C3RA C2AA 1_555 1_555
C3FA H1FA 1_555 1_555
C3MA C2FA 1_555 1_555
C3DA H1DA 1_555 1_555
C3PA C2DA 1_555 1_555
H1U C3U 1_555 1_555
H1M C3M 1_555 1_555
H1Q C3Q 1_555 1_555
H1B C3B 1_555 1_555
H1W C3W 1_555 1_555
H1N C3N 1_555 1_555
H1P C3P 1_555 1_555
H1Y C3Y 1_555 1_555
H1TA C3TA 1_555 1_555
H1JA C3JA 1_555 1_555
H1QA C3QA 1_555 1_555
H1AA C3AA 1_555 1_555
H1RA C3RA 1_555 1_555
H1MA C3MA 1_555 1_555
H1PA C3PA 1_555 1_555
C4U C5 1_555 1_555
C4J C3J 1_555 1_555
C4M C3M 1_555 1_555
C4G C3G 1_555 1_555
C4Q C3Q 1_555 1_555
C4B C3B 1_555 1_555
C4W C3W 1_555 1_555
C4K C3K 1_555 1_555
C4N C3N 1_555 1_555
C4D C3D 1_555 1_555
C4P C3P 1_555 1_555
C4Y C3Y 1_555 1_555
C4TA C3TA 1_555 1_555
C4GA C3GA 1_555 1_555
C4JA C3JA 1_555 1_555
C4CA C3CA 1_555 1_555
C4QA C3QA 1_555 1_555
C4AA C3AA 1_555 1_555
C4RA C3RA 1_555 1_555
C4FA C3FA 1_555 1_555
C4MA C3MA 1_555 1_555
C4DA C3DA 1_555 1_555
C4PA C3PA 1_555 1_555
H2U C4U 1_555 1_555
H2M C4M 1_555 1_555
H2J C4J 1_555 1_555
H2Q C4Q 1_555 1_555
H2G C4G 1_555 1_555
H2B C4B 1_555 1_555
H2W C4W 1_555 1_555
H2N C4N 1_555 1_555
H2K C4K 1_555 1_555
H2P C4P 1_555 1_555
H2D C4D 1_555 1_555
H2Y C4Y 1_555 1_555
H2TA C4TA 1_555 1_555
H2JA C4JA 1_555 1_555
H2GA C4GA 1_555 1_555
H2QA C4QA 1_555 1_555
H2CA C4CA 1_555 1_555
H2AA C4AA 1_555 1_555
H2RA C4RA 1_555 1_555
H2MA C4MA 1_555 1_555
H2FA C4FA 1_555 1_555
H2PA C4PA 1_555 1_555
H2DA C4DA 1_555 1_555
C5J C4J 1_555 1_555
C5G C4G 1_555 1_555
C5B C4B 1_555 1_555
C5K C4K 1_555 1_555
C5D C4D 1_555 1_555
C5Y C4Y 1_555 1_555
C5GA C4GA 1_555 1_555
C5CA C4CA 1_555 1_555
C5AA C4AA 1_555 1_555
C5FA C4FA 1_555 1_555
C5DA C4DA 1_555 1_555
C6J C7 1_555 1_555
C6G C5G 1_555 1_555
C6B C5B 1_555 1_555
C6K C5K 1_555 1_555
C6D C5D 1_555 1_555
C6Y C5Y 1_555 1_555
C6GA C5GA 1_555 1_555
C6CA C5CA 1_555 1_555
C6AA C5AA 1_555 1_555
C6FA C5FA 1_555 1_555
C6DA C5DA 1_555 1_555
C7J C6J 1_555 1_555
C7G C6 1_555 1_555
C7B C6B 1_555 1_555
C7K C6K 1_555 1_555
C7D C6B 1_555 1_555
C7Y C6Y 1_555 1_555
C7GA C6GA 1_555 1_555
C7CA C6Y 1_555 1_555
C7AA C6AA 1_555 1_555
C7FA C6FA 1_555 1_555
C7DA C6AA 1_555 1_555
H3G C7G 1_555 1_555
H3J C7J 1_555 1_555
H3B C7B 1_555 1_555
H3D C7D 1_555 1_555
H3K C7K 1_555 1_555
H3Y C7Y 1_555 1_555
H3CA C7CA 1_555 1_555
H3GA C7GA 1_555 1_555
H3AA C7AA 1_555 1_555
H3DA C7DA 1_555 1_555
H3FA C7FA 1_555 1_555
O1W C1B 1_555 1_555
O1TA C1Y 1_555 1_555
O1RA C1AA 1_555 1_555
C3U C4U 1_555 1_555
C4M C5J 1_555 1_555
C4Q C5G 1_555 1_555
C4W C5B 1_555 1_555
C4N C5K 1_555 1_555
C4P C5D 1_555 1_555
C4TA C5Y 1_555 1_555
C4JA C5GA 1_555 1_555
C4QA C5CA 1_555 1_555
C4RA C5AA 1_555 1_555
C4MA C5FA 1_555 1_555
C4PA C5DA 1_555 1_555
C5J C6J 1_555 1_555
C6G C7J 1_555 1_555
C6G C7G 1_555 1_555
C6K C7B 1_555 1_555
C6D C7K 1_555 1_555
C6D C7D 1_555 1_555
C6GA C7Y 1_555 1_555
C6CA C7GA 1_555 1_555
C6CA C7CA 1_555 1_555
C6FA C7AA 1_555 1_555
C6DA C7FA 1_555 1_555
C6DA C7DA 1_555 1_555

#END
