
#######################################################################
#
#                 Cambridge Crystallographic Data Centre
#                                CCDC 
#
#######################################################################
#
# If this CIF has been generated from an entry in the Cambridge 
# Structural Database, then it will include bibliographic, chemical, 
# crystal, experimental, refinement or atomic coordinate data resulting 
# from the CCDC's data processing and validation procedures.
#
#######################################################################

data_BAZGAM
_chemical_formula_moiety         '(C180 H120 Cu6 O30)n'
_symmetry_cell_setting           cubic
_symmetry_space_group_name_H-M   'F m -3 m'
_symmetry_Int_Tables_number      225
_space_group_name_Hall           '-F 4 2 3'
loop_
_symmetry_equiv_pos_site_id
_symmetry_equiv_pos_as_xyz
1 x,y,z
2 -x,-y,z
3 -x,y,-z
4 x,-y,-z
5 z,x,y
6 z,-x,-y
7 -z,-x,y
8 -z,x,-y
9 y,z,x
10 -y,z,-x
11 y,-z,-x
12 -y,-z,x
13 y,x,-z
14 -y,-x,-z
15 y,-x,z
16 -y,x,z
17 x,z,-y
18 -x,z,y
19 -x,-z,-y
20 x,-z,y
21 z,y,-x
22 z,-y,x
23 -z,y,x
24 -z,-y,-x
25 x,1/2+y,1/2+z
26 -x,1/2-y,1/2+z
27 -x,1/2+y,1/2-z
28 x,1/2-y,1/2-z
29 z,1/2+x,1/2+y
30 z,1/2-x,1/2-y
31 -z,1/2-x,1/2+y
32 -z,1/2+x,1/2-y
33 y,1/2+z,1/2+x
34 -y,1/2+z,1/2-x
35 y,1/2-z,1/2-x
36 -y,1/2-z,1/2+x
37 y,1/2+x,1/2-z
38 -y,1/2-x,1/2-z
39 y,1/2-x,1/2+z
40 -y,1/2+x,1/2+z
41 x,1/2+z,1/2-y
42 -x,1/2+z,1/2+y
43 -x,1/2-z,1/2-y
44 x,1/2-z,1/2+y
45 z,1/2+y,1/2-x
46 z,1/2-y,1/2+x
47 -z,1/2+y,1/2+x
48 -z,1/2-y,1/2-x
49 1/2+x,y,1/2+z
50 1/2-x,-y,1/2+z
51 1/2-x,y,1/2-z
52 1/2+x,-y,1/2-z
53 1/2+z,x,1/2+y
54 1/2+z,-x,1/2-y
55 1/2-z,-x,1/2+y
56 1/2-z,x,1/2-y
57 1/2+y,z,1/2+x
58 1/2-y,z,1/2-x
59 1/2+y,-z,1/2-x
60 1/2-y,-z,1/2+x
61 1/2+y,x,1/2-z
62 1/2-y,-x,1/2-z
63 1/2+y,-x,1/2+z
64 1/2-y,x,1/2+z
65 1/2+x,z,1/2-y
66 1/2-x,z,1/2+y
67 1/2-x,-z,1/2-y
68 1/2+x,-z,1/2+y
69 1/2+z,y,1/2-x
70 1/2+z,-y,1/2+x
71 1/2-z,y,1/2+x
72 1/2-z,-y,1/2-x
73 1/2+x,1/2+y,z
74 1/2-x,1/2-y,z
75 1/2-x,1/2+y,-z
76 1/2+x,1/2-y,-z
77 1/2+z,1/2+x,y
78 1/2+z,1/2-x,-y
79 1/2-z,1/2-x,y
80 1/2-z,1/2+x,-y
81 1/2+y,1/2+z,x
82 1/2-y,1/2+z,-x
83 1/2+y,1/2-z,-x
84 1/2-y,1/2-z,x
85 1/2+y,1/2+x,-z
86 1/2-y,1/2-x,-z
87 1/2+y,1/2-x,z
88 1/2-y,1/2+x,z
89 1/2+x,1/2+z,-y
90 1/2-x,1/2+z,y
91 1/2-x,1/2-z,-y
92 1/2+x,1/2-z,y
93 1/2+z,1/2+y,-x
94 1/2+z,1/2-y,x
95 1/2-z,1/2+y,x
96 1/2-z,1/2-y,-x
97 -x,-y,-z
98 x,y,-z
99 x,-y,z
100 -x,y,z
101 -z,-x,-y
102 -z,x,y
103 z,x,-y
104 z,-x,y
105 -y,-z,-x
106 y,-z,x
107 -y,z,x
108 y,z,-x
109 -y,-x,z
110 y,x,z
111 -y,x,-z
112 y,-x,-z
113 -x,-z,y
114 x,-z,-y
115 x,z,y
116 -x,z,-y
117 -z,-y,x
118 -z,y,-x
119 z,-y,-x
120 z,y,x
121 -x,1/2-y,1/2-z
122 x,1/2+y,1/2-z
123 x,1/2-y,1/2+z
124 -x,1/2+y,1/2+z
125 -z,1/2-x,1/2-y
126 -z,1/2+x,1/2+y
127 z,1/2+x,1/2-y
128 z,1/2-x,1/2+y
129 -y,1/2-z,1/2-x
130 y,1/2-z,1/2+x
131 -y,1/2+z,1/2+x
132 y,1/2+z,1/2-x
133 -y,1/2-x,1/2+z
134 y,1/2+x,1/2+z
135 -y,1/2+x,1/2-z
136 y,1/2-x,1/2-z
137 -x,1/2-z,1/2+y
138 x,1/2-z,1/2-y
139 x,1/2+z,1/2+y
140 -x,1/2+z,1/2-y
141 -z,1/2-y,1/2+x
142 -z,1/2+y,1/2-x
143 z,1/2-y,1/2-x
144 z,1/2+y,1/2+x
145 1/2-x,-y,1/2-z
146 1/2+x,y,1/2-z
147 1/2+x,-y,1/2+z
148 1/2-x,y,1/2+z
149 1/2-z,-x,1/2-y
150 1/2-z,x,1/2+y
151 1/2+z,x,1/2-y
152 1/2+z,-x,1/2+y
153 1/2-y,-z,1/2-x
154 1/2+y,-z,1/2+x
155 1/2-y,z,1/2+x
156 1/2+y,z,1/2-x
157 1/2-y,-x,1/2+z
158 1/2+y,x,1/2+z
159 1/2-y,x,1/2-z
160 1/2+y,-x,1/2-z
161 1/2-x,-z,1/2+y
162 1/2+x,-z,1/2-y
163 1/2+x,z,1/2+y
164 1/2-x,z,1/2-y
165 1/2-z,-y,1/2+x
166 1/2-z,y,1/2-x
167 1/2+z,-y,1/2-x
168 1/2+z,y,1/2+x
169 1/2-x,1/2-y,-z
170 1/2+x,1/2+y,-z
171 1/2+x,1/2-y,z
172 1/2-x,1/2+y,z
173 1/2-z,1/2-x,-y
174 1/2-z,1/2+x,y
175 1/2+z,1/2+x,-y
176 1/2+z,1/2-x,y
177 1/2-y,1/2-z,-x
178 1/2+y,1/2-z,x
179 1/2-y,1/2+z,x
180 1/2+y,1/2+z,-x
181 1/2-y,1/2-x,z
182 1/2+y,1/2+x,z
183 1/2-y,1/2+x,-z
184 1/2+y,1/2-x,-z
185 1/2-x,1/2-z,y
186 1/2+x,1/2-z,-y
187 1/2+x,1/2+z,y
188 1/2-x,1/2+z,-y
189 1/2-z,1/2-y,x
190 1/2-z,1/2+y,-x
191 1/2+z,1/2-y,-x
192 1/2+z,1/2+y,x
_cell_length_a                   68.3112(6)
_cell_length_b                   68.3112(6)
_cell_length_c                   68.3112(6)
_cell_angle_alpha                90
_cell_angle_beta                 90
_cell_angle_gamma                90
_cell_volume                     318769
loop_
_atom_site_label
_atom_site_type_symbol
_atom_site_fract_x
_atom_site_fract_y
_atom_site_fract_z
_atom_site_U_iso_or_equiv
_atom_site_thermal_displace_type
Cu1 Cu -0.0000 0.26364(3) 0.23636(3) 0.2347 Uani
O1 O 0.01944(9) 0.24768(9) 0.22427(10) 0.2250 Uani
O2 O -0.0000 0.28846(9) 0.21154(9) 0.3370 Uani
C1 C 0.14749(14) 0.17323(16) 0.14749(14) 0.3707 Uani
H1 H 0.1420 0.1844 0.1420 0.4450 Uiso
C2 C 0.13880(16) 0.16460(15) 0.16460(15) 0.3593 Uani
C3 C 0.1225(2) 0.17570(17) 0.17570(17) 0.3920 Uani
C4 C 0.11476(18) 0.19329(15) 0.16750(16) 0.5567 Uani
H2 H 0.1204 0.1987 0.1564 0.6700 Uiso
C5 C 0.0984(2) 0.20241(19) 0.17653(17) 0.5400 Uani
H3 H 0.0935 0.2142 0.1719 0.6470 Uiso
C6 C 0.0897(2) 0.19295(18) 0.19295(18) 0.3327 Uani
C7 C 0.07159(17) 0.20205(12) 0.20205(12) 0.2367 Uani
C8 C 0.06450(16) 0.21978(12) 0.19384(13) 0.3363 Uani
H4 H 0.0698 0.2248 0.1823 0.4040 Uiso
C9 C 0.04903(16) 0.22973(15) 0.20379(14) 0.3717 Uani
H5 H 0.0444 0.2416 0.1991 0.4460 Uiso
C10 C 0.0408(2) 0.22109(15) 0.22109(15) 0.2637 Uani
C11 C 0.0252(2) 0.23254(18) 0.23254(18) 0.3867 Uani
Cu1Q Cu -0.0000 0.23636(3) 0.26364(3) 0.2347 Uani
Cu1H Cu 0.26364(3) 0.23636(3) 0.0000 0.2347 Uani
Cu1T Cu 0.23636(3) 0.26364(3) 0.0000 0.2347 Uani
Cu1D Cu 0.23636(3) -0.0000 0.26364(3) 0.2347 Uani
Cu1N Cu 0.26364(3) 0.0000 0.23636(3) 0.2347 Uani
Cu1KA Cu -0.26364(3) 0.5000 0.26364(3) 0.2347 Uani
Cu1EA Cu -0.23636(3) 0.5000 0.23636(3) 0.2347 Uani
Cu1UA Cu -0.23636(3) 0.23636(3) 0.5000 0.2347 Uani
Cu1IA Cu -0.26364(3) 0.26364(3) 0.5000 0.2347 Uani
Cu1I Cu -0.26364(3) 0.23636(3) 0.0000 0.2347 Uani
Cu1V Cu -0.23636(3) 0.26364(3) 0.0000 0.2347 Uani
Cu1F Cu -0.23636(3) -0.0000 0.26364(3) 0.2347 Uani
Cu1O Cu -0.26364(3) 0.0000 0.23636(3) 0.2347 Uani
Cu1JA Cu 0.26364(3) 0.5000 0.26364(3) 0.2347 Uani
Cu1CA Cu 0.23636(3) 0.5000 0.23636(3) 0.2347 Uani
Cu1SA Cu 0.23636(3) 0.23636(3) 0.5000 0.2347 Uani
Cu1HA Cu 0.26364(3) 0.26364(3) 0.5000 0.2347 Uani
O1JD O 0.01944(9) 0.22427(10) 0.24768(9) 0.2250 Uani
O1H O 0.24768(9) 0.22427(10) 0.01944(9) 0.2250 Uani
O1OD O 0.22427(10) 0.24768(9) 0.01944(9) 0.2250 Uani
O1D O 0.22427(10) 0.01944(9) 0.24768(9) 0.2250 Uani
O1ED O 0.24768(9) 0.01944(9) 0.22427(10) 0.2250 Uani
O1PA O -0.01944(9) 0.27573(10) 0.25232(9) 0.2250 Uani
O1PD O -0.01944(9) 0.25232(9) 0.27573(10) 0.2250 Uani
O1KA O -0.24768(9) 0.48056(9) 0.27573(10) 0.2250 Uani
O1TD O -0.22427(10) 0.48056(9) 0.25232(9) 0.2250 Uani
O1UA O -0.22427(10) 0.25232(9) 0.48056(9) 0.2250 Uani
O1XD O -0.24768(9) 0.27573(10) 0.48056(9) 0.2250 Uani
O1UC O -0.01944(9) 0.24768(9) 0.22427(10) 0.2250 Uani
O1Q O -0.01944(9) 0.22427(10) 0.24768(9) 0.2250 Uani
O1BD O -0.24768(9) 0.22427(10) 0.01944(9) 0.2250 Uani
O1V O -0.22427(10) 0.24768(9) 0.01944(9) 0.2250 Uani
O1WC O -0.22427(10) 0.01944(9) 0.24768(9) 0.2250 Uani
O1O O -0.24768(9) 0.01944(9) 0.22427(10) 0.2250 Uani
O1GE O 0.01944(9) 0.27573(10) 0.25232(9) 0.2250 Uani
O1AA O 0.01944(9) 0.25232(9) 0.27573(10) 0.2250 Uani
O1EE O 0.24768(9) 0.48056(9) 0.27573(10) 0.2250 Uani
O1CA O 0.22427(10) 0.48056(9) 0.25232(9) 0.2250 Uani
O1LE O 0.22427(10) 0.25232(9) 0.48056(9) 0.2250 Uani
O1HA O 0.24768(9) 0.27573(10) 0.48056(9) 0.2250 Uani
O1QC O 0.27573(10) 0.25232(9) -0.01944(9) 0.2250 Uani
O1CD O 0.24768(9) 0.22427(10) -0.01944(9) 0.2250 Uani
O1FG O 0.27573(10) 0.25232(9) 0.01944(9) 0.2250 Uani
O1TF O 0.25232(9) 0.27573(10) -0.01944(9) 0.2250 Uani
O1T O 0.22427(10) 0.24768(9) -0.01944(9) 0.2250 Uani
O1EC O 0.25232(9) 0.27573(10) 0.01944(9) 0.2250 Uani
O1IB O 0.25232(9) -0.01944(9) 0.27573(10) 0.2250 Uani
O1YC O 0.22427(10) -0.01944(9) 0.24768(9) 0.2250 Uani
O1BF O 0.25232(9) 0.01944(9) 0.27573(10) 0.2250 Uani
O1RE O 0.27573(10) -0.01944(9) 0.25232(9) 0.2250 Uani
O1N O 0.24768(9) -0.01944(9) 0.22427(10) 0.2250 Uani
O1CB O 0.27573(10) 0.01944(9) 0.25232(9) 0.2250 Uani
O2Q O -0.0000 0.21154(9) 0.28846(9) 0.3370 Uani
O2H O 0.28846(9) 0.21154(9) 0.0000 0.3370 Uani
O2T O 0.21154(9) 0.28846(9) 0.0000 0.3370 Uani
O2D O 0.21154(9) -0.0000 0.28846(9) 0.3370 Uani
O2N O 0.28846(9) 0.0000 0.21154(9) 0.3370 Uani
C1H C 0.17323(16) 0.14749(14) 0.14749(14) 0.3707 Uani
C1D C 0.14749(14) 0.14749(14) 0.17323(16) 0.3707 Uani
C1PA C -0.14749(14) 0.35251(14) 0.32677(16) 0.3707 Uani
C1KA C -0.17323(16) 0.35251(14) 0.35251(14) 0.3707 Uani
C1UA C -0.14749(14) 0.32677(16) 0.35251(14) 0.3707 Uani
C1V C -0.14749(14) 0.17323(16) 0.14749(14) 0.3707 Uani
C1O C -0.17323(16) 0.14749(14) 0.14749(14) 0.3707 Uani
C1Q C -0.14749(14) 0.14749(14) 0.17323(16) 0.3707 Uani
C1CA C 0.14749(14) 0.35251(14) 0.32677(16) 0.3707 Uani
C1HA C 0.17323(16) 0.35251(14) 0.35251(14) 0.3707 Uani
C1AA C 0.14749(14) 0.32677(16) 0.35251(14) 0.3707 Uani
H1H H 0.1844 0.1420 0.1420 0.4450 Uiso
H1D H 0.1420 0.1420 0.1844 0.4450 Uiso
H1PA H -0.1420 0.3580 0.3156 0.4450 Uiso
H1KA H -0.1844 0.3580 0.3580 0.4450 Uiso
H1UA H -0.1420 0.3156 0.3580 0.4450 Uiso
H1V H -0.1420 0.1844 0.1420 0.4450 Uiso
H1O H -0.1844 0.1420 0.1420 0.4450 Uiso
H1Q H -0.1420 0.1420 0.1844 0.4450 Uiso
H1CA H 0.1420 0.3580 0.3156 0.4450 Uiso
H1HA H 0.1844 0.3580 0.3580 0.4450 Uiso
H1AA H 0.1420 0.3156 0.3580 0.4450 Uiso
C2H C 0.16460(15) 0.16460(15) 0.13880(16) 0.3593 Uani
C2D C 0.16460(15) 0.13880(16) 0.16460(15) 0.3593 Uani
C2PA C -0.13880(16) 0.33540(15) 0.33540(15) 0.3593 Uani
C2KA C -0.16460(15) 0.36120(16) 0.33540(15) 0.3593 Uani
C2UA C -0.16460(15) 0.33540(15) 0.36120(16) 0.3593 Uani
C2Q C -0.13880(16) 0.16460(15) 0.16460(15) 0.3593 Uani
C2V C -0.16460(15) 0.16460(15) 0.13880(16) 0.3593 Uani
C2O C -0.16460(15) 0.13880(16) 0.16460(15) 0.3593 Uani
C2AA C 0.13880(16) 0.33540(15) 0.33540(15) 0.3593 Uani
C2CA C 0.16460(15) 0.36120(16) 0.33540(15) 0.3593 Uani
C2HA C 0.16460(15) 0.33540(15) 0.36120(16) 0.3593 Uani
C3H C 0.17570(17) 0.17570(17) 0.1225(2) 0.3920 Uani
C3D C 0.17570(17) 0.1225(2) 0.17570(17) 0.3920 Uani
C3PA C -0.1225(2) 0.32430(17) 0.32430(17) 0.3920 Uani
C3KA C -0.17570(17) 0.3775(2) 0.32430(17) 0.3920 Uani
C3UA C -0.17570(17) 0.32430(17) 0.3775(2) 0.3920 Uani
C3Q C -0.1225(2) 0.17570(17) 0.17570(17) 0.3920 Uani
C3V C -0.17570(17) 0.17570(17) 0.1225(2) 0.3920 Uani
C3O C -0.17570(17) 0.1225(2) 0.17570(17) 0.3920 Uani
C3AA C 0.1225(2) 0.32430(17) 0.32430(17) 0.3920 Uani
C3CA C 0.17570(17) 0.3775(2) 0.32430(17) 0.3920 Uani
C3HA C 0.17570(17) 0.32430(17) 0.3775(2) 0.3920 Uani
C4H C 0.19329(15) 0.16750(16) 0.11476(18) 0.5567 Uani
C4OD C 0.16750(16) 0.19329(15) 0.11476(18) 0.5567 Uani
C4JD C 0.11476(18) 0.16750(16) 0.19329(15) 0.5567 Uani
C4D C 0.16750(16) 0.11476(18) 0.19329(15) 0.5567 Uani
C4ED C 0.19329(15) 0.11476(18) 0.16750(16) 0.5567 Uani
C4PA C -0.11476(18) 0.33250(16) 0.30671(15) 0.5567 Uani
C4KA C -0.19329(15) 0.38524(18) 0.33250(16) 0.5567 Uani
C4TD C -0.16750(16) 0.38524(18) 0.30671(15) 0.5567 Uani
C4PD C -0.11476(18) 0.30671(15) 0.33250(16) 0.5567 Uani
C4UA C -0.16750(16) 0.30671(15) 0.38524(18) 0.5567 Uani
C4XD C -0.19329(15) 0.33250(16) 0.38524(18) 0.5567 Uani
C4UC C -0.11476(18) 0.19329(15) 0.16750(16) 0.5567 Uani
C4BD C -0.19329(15) 0.16750(16) 0.11476(18) 0.5567 Uani
C4V C -0.16750(16) 0.19329(15) 0.11476(18) 0.5567 Uani
C4Q C -0.11476(18) 0.16750(16) 0.19329(15) 0.5567 Uani
C4WC C -0.16750(16) 0.11476(18) 0.19329(15) 0.5567 Uani
C4O C -0.19329(15) 0.11476(18) 0.16750(16) 0.5567 Uani
C4GE C 0.11476(18) 0.33250(16) 0.30671(15) 0.5567 Uani
C4EE C 0.19329(15) 0.38524(18) 0.33250(16) 0.5567 Uani
C4CA C 0.16750(16) 0.38524(18) 0.30671(15) 0.5567 Uani
C4AA C 0.11476(18) 0.30671(15) 0.33250(16) 0.5567 Uani
C4LE C 0.16750(16) 0.30671(15) 0.38524(18) 0.5567 Uani
C4HA C 0.19329(15) 0.33250(16) 0.38524(18) 0.5567 Uani
H2H H 0.1987 0.1564 0.1204 0.6700 Uiso
H2OD H 0.1564 0.1987 0.1204 0.6700 Uiso
H2JD H 0.1204 0.1564 0.1987 0.6700 Uiso
H2D H 0.1564 0.1204 0.1987 0.6700 Uiso
H2ED H 0.1987 0.1204 0.1564 0.6700 Uiso
H2PA H -0.1204 0.3436 0.3013 0.6700 Uiso
H2KA H -0.1987 0.3796 0.3436 0.6700 Uiso
H2TD H -0.1564 0.3796 0.3013 0.6700 Uiso
H2PD H -0.1204 0.3013 0.3436 0.6700 Uiso
H2UA H -0.1564 0.3013 0.3796 0.6700 Uiso
H2XD H -0.1987 0.3436 0.3796 0.6700 Uiso
H2UC H -0.1204 0.1987 0.1564 0.6700 Uiso
H2BD H -0.1987 0.1564 0.1204 0.6700 Uiso
H2V H -0.1564 0.1987 0.1204 0.6700 Uiso
H2Q H -0.1204 0.1564 0.1987 0.6700 Uiso
H2WC H -0.1564 0.1204 0.1987 0.6700 Uiso
H2O H -0.1987 0.1204 0.1564 0.6700 Uiso
H2GE H 0.1204 0.3436 0.3013 0.6700 Uiso
H2EE H 0.1987 0.3796 0.3436 0.6700 Uiso
H2CA H 0.1564 0.3796 0.3013 0.6700 Uiso
H2AA H 0.1204 0.3013 0.3436 0.6700 Uiso
H2LE H 0.1564 0.3013 0.3796 0.6700 Uiso
H2HA H 0.1987 0.3436 0.3796 0.6700 Uiso
C5H C 0.20241(19) 0.17653(17) 0.0984(2) 0.5400 Uani
C5OD C 0.17653(17) 0.20241(19) 0.0984(2) 0.5400 Uani
C5JD C 0.0984(2) 0.17653(17) 0.20241(19) 0.5400 Uani
C5D C 0.17653(17) 0.0984(2) 0.20241(19) 0.5400 Uani
C5ED C 0.20241(19) 0.0984(2) 0.17653(17) 0.5400 Uani
C5PA C -0.0984(2) 0.32347(17) 0.29759(19) 0.5400 Uani
C5KA C -0.20241(19) 0.4016(2) 0.32347(17) 0.5400 Uani
C5TD C -0.17653(17) 0.4016(2) 0.29759(19) 0.5400 Uani
C5PD C -0.0984(2) 0.29759(19) 0.32347(17) 0.5400 Uani
C5UA C -0.17653(17) 0.29759(19) 0.4016(2) 0.5400 Uani
C5XD C -0.20241(19) 0.32347(17) 0.4016(2) 0.5400 Uani
C5UC C -0.0984(2) 0.20241(19) 0.17653(17) 0.5400 Uani
C5BD C -0.20241(19) 0.17653(17) 0.0984(2) 0.5400 Uani
C5V C -0.17653(17) 0.20241(19) 0.0984(2) 0.5400 Uani
C5Q C -0.0984(2) 0.17653(17) 0.20241(19) 0.5400 Uani
C5WC C -0.17653(17) 0.0984(2) 0.20241(19) 0.5400 Uani
C5O C -0.20241(19) 0.0984(2) 0.17653(17) 0.5400 Uani
C5GE C 0.0984(2) 0.32347(17) 0.29759(19) 0.5400 Uani
C5EE C 0.20241(19) 0.4016(2) 0.32347(17) 0.5400 Uani
C5CA C 0.17653(17) 0.4016(2) 0.29759(19) 0.5400 Uani
C5AA C 0.0984(2) 0.29759(19) 0.32347(17) 0.5400 Uani
C5LE C 0.17653(17) 0.29759(19) 0.4016(2) 0.5400 Uani
C5HA C 0.20241(19) 0.32347(17) 0.4016(2) 0.5400 Uani
H3H H 0.2142 0.1719 0.0935 0.6470 Uiso
H3OD H 0.1719 0.2142 0.0935 0.6470 Uiso
H3JD H 0.0935 0.1719 0.2142 0.6470 Uiso
H3D H 0.1719 0.0935 0.2142 0.6470 Uiso
H3ED H 0.2142 0.0935 0.1719 0.6470 Uiso
H3PA H -0.0935 0.3281 0.2858 0.6470 Uiso
H3KA H -0.2142 0.4065 0.3281 0.6470 Uiso
H3TD H -0.1719 0.4065 0.2858 0.6470 Uiso
H3PD H -0.0935 0.2858 0.3281 0.6470 Uiso
H3UA H -0.1719 0.2858 0.4065 0.6470 Uiso
H3XD H -0.2142 0.3281 0.4065 0.6470 Uiso
H3UC H -0.0935 0.2142 0.1719 0.6470 Uiso
H3BD H -0.2142 0.1719 0.0935 0.6470 Uiso
H3V H -0.1719 0.2142 0.0935 0.6470 Uiso
H3Q H -0.0935 0.1719 0.2142 0.6470 Uiso
H3WC H -0.1719 0.0935 0.2142 0.6470 Uiso
H3O H -0.2142 0.0935 0.1719 0.6470 Uiso
H3GE H 0.0935 0.3281 0.2858 0.6470 Uiso
H3EE H 0.2142 0.4065 0.3281 0.6470 Uiso
H3CA H 0.1719 0.4065 0.2858 0.6470 Uiso
H3AA H 0.0935 0.2858 0.3281 0.6470 Uiso
H3LE H 0.1719 0.2858 0.4065 0.6470 Uiso
H3HA H 0.2142 0.3281 0.4065 0.6470 Uiso
C6H C 0.19295(18) 0.19295(18) 0.0897(2) 0.3327 Uani
C6D C 0.19295(18) 0.0897(2) 0.19295(18) 0.3327 Uani
C6PA C -0.0897(2) 0.30705(18) 0.30705(18) 0.3327 Uani
C6KA C -0.19295(18) 0.4103(2) 0.30705(18) 0.3327 Uani
C6UA C -0.19295(18) 0.30705(18) 0.4103(2) 0.3327 Uani
C6Q C -0.0897(2) 0.19295(18) 0.19295(18) 0.3327 Uani
C6V C -0.19295(18) 0.19295(18) 0.0897(2) 0.3327 Uani
C6O C -0.19295(18) 0.0897(2) 0.19295(18) 0.3327 Uani
C6AA C 0.0897(2) 0.30705(18) 0.30705(18) 0.3327 Uani
C6CA C 0.19295(18) 0.4103(2) 0.30705(18) 0.3327 Uani
C6HA C 0.19295(18) 0.30705(18) 0.4103(2) 0.3327 Uani
C7H C 0.20205(12) 0.20205(12) 0.07159(17) 0.2367 Uani
C7D C 0.20205(12) 0.07159(17) 0.20205(12) 0.2367 Uani
C7PA C -0.07159(17) 0.29795(12) 0.29795(12) 0.2367 Uani
C7KA C -0.20205(12) 0.42841(17) 0.29795(12) 0.2367 Uani
C7UA C -0.20205(12) 0.29795(12) 0.42841(17) 0.2367 Uani
C7Q C -0.07159(17) 0.20205(12) 0.20205(12) 0.2367 Uani
C7V C -0.20205(12) 0.20205(12) 0.07159(17) 0.2367 Uani
C7O C -0.20205(12) 0.07159(17) 0.20205(12) 0.2367 Uani
C7AA C 0.07159(17) 0.29795(12) 0.29795(12) 0.2367 Uani
C7CA C 0.20205(12) 0.42841(17) 0.29795(12) 0.2367 Uani
C7HA C 0.20205(12) 0.29795(12) 0.42841(17) 0.2367 Uani
C8H C 0.21978(12) 0.19384(13) 0.06450(16) 0.3363 Uani
C8OD C 0.19384(13) 0.21978(12) 0.06450(16) 0.3363 Uani
C8JD C 0.06450(16) 0.19384(13) 0.21978(12) 0.3363 Uani
C8D C 0.19384(13) 0.06450(16) 0.21978(12) 0.3363 Uani
C8ED C 0.21978(12) 0.06450(16) 0.19384(13) 0.3363 Uani
C8PA C -0.06450(16) 0.30616(13) 0.28022(12) 0.3363 Uani
C8KA C -0.21978(12) 0.43550(16) 0.30616(13) 0.3363 Uani
C8TD C -0.19384(13) 0.43550(16) 0.28022(12) 0.3363 Uani
C8PD C -0.06450(16) 0.28022(12) 0.30616(13) 0.3363 Uani
C8UA C -0.19384(13) 0.28022(12) 0.43550(16) 0.3363 Uani
C8XD C -0.21978(12) 0.30616(13) 0.43550(16) 0.3363 Uani
C8UC C -0.06450(16) 0.21978(12) 0.19384(13) 0.3363 Uani
C8BD C -0.21978(12) 0.19384(13) 0.06450(16) 0.3363 Uani
C8V C -0.19384(13) 0.21978(12) 0.06450(16) 0.3363 Uani
C8Q C -0.06450(16) 0.19384(13) 0.21978(12) 0.3363 Uani
C8WC C -0.19384(13) 0.06450(16) 0.21978(12) 0.3363 Uani
C8O C -0.21978(12) 0.06450(16) 0.19384(13) 0.3363 Uani
C8GE C 0.06450(16) 0.30616(13) 0.28022(12) 0.3363 Uani
C8EE C 0.21978(12) 0.43550(16) 0.30616(13) 0.3363 Uani
C8CA C 0.19384(13) 0.43550(16) 0.28022(12) 0.3363 Uani
C8AA C 0.06450(16) 0.28022(12) 0.30616(13) 0.3363 Uani
C8LE C 0.19384(13) 0.28022(12) 0.43550(16) 0.3363 Uani
C8HA C 0.21978(12) 0.30616(13) 0.43550(16) 0.3363 Uani
H4H H 0.2248 0.1823 0.0698 0.4040 Uiso
H4OD H 0.1823 0.2248 0.0698 0.4040 Uiso
H4JD H 0.0698 0.1823 0.2248 0.4040 Uiso
H4D H 0.1823 0.0698 0.2248 0.4040 Uiso
H4ED H 0.2248 0.0698 0.1823 0.4040 Uiso
H4PA H -0.0698 0.3177 0.2752 0.4040 Uiso
H4KA H -0.2248 0.4302 0.3177 0.4040 Uiso
H4TD H -0.1823 0.4302 0.2752 0.4040 Uiso
H4PD H -0.0698 0.2752 0.3177 0.4040 Uiso
H4UA H -0.1823 0.2752 0.4302 0.4040 Uiso
H4XD H -0.2248 0.3177 0.4302 0.4040 Uiso
H4UC H -0.0698 0.2248 0.1823 0.4040 Uiso
H4BD H -0.2248 0.1823 0.0698 0.4040 Uiso
H4V H -0.1823 0.2248 0.0698 0.4040 Uiso
H4Q H -0.0698 0.1823 0.2248 0.4040 Uiso
H4WC H -0.1823 0.0698 0.2248 0.4040 Uiso
H4O H -0.2248 0.0698 0.1823 0.4040 Uiso
H4GE H 0.0698 0.3177 0.2752 0.4040 Uiso
H4EE H 0.2248 0.4302 0.3177 0.4040 Uiso
H4CA H 0.1823 0.4302 0.2752 0.4040 Uiso
H4AA H 0.0698 0.2752 0.3177 0.4040 Uiso
H4LE H 0.1823 0.2752 0.4302 0.4040 Uiso
H4HA H 0.2248 0.3177 0.4302 0.4040 Uiso
C9H C 0.22973(15) 0.20379(14) 0.04903(16) 0.3717 Uani
C9OD C 0.20379(14) 0.22973(15) 0.04903(16) 0.3717 Uani
C9JD C 0.04903(16) 0.20379(14) 0.22973(15) 0.3717 Uani
C9D C 0.20379(14) 0.04903(16) 0.22973(15) 0.3717 Uani
C9ED C 0.22973(15) 0.04903(16) 0.20379(14) 0.3717 Uani
C9PA C -0.04903(16) 0.29621(14) 0.27027(15) 0.3717 Uani
C9KA C -0.22973(15) 0.45097(16) 0.29621(14) 0.3717 Uani
C9TD C -0.20379(14) 0.45097(16) 0.27027(15) 0.3717 Uani
C9PD C -0.04903(16) 0.27027(15) 0.29621(14) 0.3717 Uani
C9UA C -0.20379(14) 0.27027(15) 0.45097(16) 0.3717 Uani
C9XD C -0.22973(15) 0.29621(14) 0.45097(16) 0.3717 Uani
C9UC C -0.04903(16) 0.22973(15) 0.20379(14) 0.3717 Uani
C9BD C -0.22973(15) 0.20379(14) 0.04903(16) 0.3717 Uani
C9V C -0.20379(14) 0.22973(15) 0.04903(16) 0.3717 Uani
C9Q C -0.04903(16) 0.20379(14) 0.22973(15) 0.3717 Uani
C9WC C -0.20379(14) 0.04903(16) 0.22973(15) 0.3717 Uani
C9O C -0.22973(15) 0.04903(16) 0.20379(14) 0.3717 Uani
C9GE C 0.04903(16) 0.29621(14) 0.27027(15) 0.3717 Uani
C9EE C 0.22973(15) 0.45097(16) 0.29621(14) 0.3717 Uani
C9CA C 0.20379(14) 0.45097(16) 0.27027(15) 0.3717 Uani
C9AA C 0.04903(16) 0.27027(15) 0.29621(14) 0.3717 Uani
C9LE C 0.20379(14) 0.27027(15) 0.45097(16) 0.3717 Uani
C9HA C 0.22973(15) 0.29621(14) 0.45097(16) 0.3717 Uani
H5H H 0.2416 0.1991 0.0444 0.4460 Uiso
H5OD H 0.1991 0.2416 0.0444 0.4460 Uiso
H5JD H 0.0444 0.1991 0.2416 0.4460 Uiso
H5D H 0.1991 0.0444 0.2416 0.4460 Uiso
H5ED H 0.2416 0.0444 0.1991 0.4460 Uiso
H5PA H -0.0444 0.3009 0.2584 0.4460 Uiso
H5KA H -0.2416 0.4556 0.3009 0.4460 Uiso
H5TD H -0.1991 0.4556 0.2584 0.4460 Uiso
H5PD H -0.0444 0.2584 0.3009 0.4460 Uiso
H5UA H -0.1991 0.2584 0.4556 0.4460 Uiso
H5XD H -0.2416 0.3009 0.4556 0.4460 Uiso
H5UC H -0.0444 0.2416 0.1991 0.4460 Uiso
H5BD H -0.2416 0.1991 0.0444 0.4460 Uiso
H5V H -0.1991 0.2416 0.0444 0.4460 Uiso
H5Q H -0.0444 0.1991 0.2416 0.4460 Uiso
H5WC H -0.1991 0.0444 0.2416 0.4460 Uiso
H5O H -0.2416 0.0444 0.1991 0.4460 Uiso
H5GE H 0.0444 0.3009 0.2584 0.4460 Uiso
H5EE H 0.2416 0.4556 0.3009 0.4460 Uiso
H5CA H 0.1991 0.4556 0.2584 0.4460 Uiso
H5AA H 0.0444 0.2584 0.3009 0.4460 Uiso
H5LE H 0.1991 0.2584 0.4556 0.4460 Uiso
H5HA H 0.2416 0.3009 0.4556 0.4460 Uiso
C10H C 0.22109(15) 0.22109(15) 0.0408(2) 0.2637 Uani
C10D C 0.22109(15) 0.0408(2) 0.22109(15) 0.2637 Uani
C10PA C -0.0408(2) 0.27891(15) 0.27891(15) 0.2637 Uani
C10KA C -0.22109(15) 0.4592(2) 0.27891(15) 0.2637 Uani
C10UA C -0.22109(15) 0.27891(15) 0.4592(2) 0.2637 Uani
C10Q C -0.0408(2) 0.22109(15) 0.22109(15) 0.2637 Uani
C10V C -0.22109(15) 0.22109(15) 0.0408(2) 0.2637 Uani
C10O C -0.22109(15) 0.0408(2) 0.22109(15) 0.2637 Uani
C10AA C 0.0408(2) 0.27891(15) 0.27891(15) 0.2637 Uani
C10CA C 0.22109(15) 0.4592(2) 0.27891(15) 0.2637 Uani
C10HA C 0.22109(15) 0.27891(15) 0.4592(2) 0.2637 Uani
C11H C 0.23254(18) 0.23254(18) 0.0252(2) 0.3867 Uani
C11D C 0.23254(18) 0.0252(2) 0.23254(18) 0.3867 Uani
C11PA C -0.0252(2) 0.26746(18) 0.26746(18) 0.3867 Uani
C11KA C -0.23254(18) 0.4748(2) 0.26746(18) 0.3867 Uani
C11UA C -0.23254(18) 0.26746(18) 0.4748(2) 0.3867 Uani
C11Q C -0.0252(2) 0.23254(18) 0.23254(18) 0.3867 Uani
C11V C -0.23254(18) 0.23254(18) 0.0252(2) 0.3867 Uani
C11O C -0.23254(18) 0.0252(2) 0.23254(18) 0.3867 Uani
C11AA C 0.0252(2) 0.26746(18) 0.26746(18) 0.3867 Uani
C11CA C 0.23254(18) 0.4748(2) 0.26746(18) 0.3867 Uani
C11HA C 0.23254(18) 0.26746(18) 0.4748(2) 0.3867 Uani
loop_
_atom_site_aniso_label
_atom_site_aniso_U_11
_atom_site_aniso_U_22
_atom_site_aniso_U_33
_atom_site_aniso_U_23
_atom_site_aniso_U_13
_atom_site_aniso_U_12
Cu1 0.194(3) 0.255(3) 0.255(3) 0.038(2) 0.000 0.000
O1 0.180(5) 0.222(6) 0.273(7) 0.007(5) 0.039(5) 0.029(5)
O2 0.471(19) 0.270(9) 0.270(9) 0.186(11) 0.000 0.000
C1 0.361(13) 0.39(2) 0.361(13) 0.228(14) 0.167(18) 0.228(14)
C2 0.44(3) 0.319(14) 0.319(14) 0.261(18) 0.190(15) 0.190(15)
C3 0.38(2) 0.398(16) 0.398(16) 0.229(19) 0.292(15) 0.292(15)
C4 0.45(2) 0.55(2) 0.67(3) 0.43(2) 0.28(2) 0.338(19)
C5 0.41(2) 0.77(3) 0.44(2) 0.24(2) 0.266(18) 0.25(2)
C6 0.33(2) 0.334(14) 0.334(14) 0.106(16) 0.176(13) 0.176(13)
C7 0.228(14) 0.241(9) 0.241(9) 0.011(13) 0.099(7) 0.099(7)
C8 0.433(18) 0.247(12) 0.329(14) 0.096(10) 0.011(12) 0.210(12)
C9 0.322(15) 0.354(16) 0.439(19) 0.088(14) 0.141(13) 0.114(12)
C10 0.255(11) 0.268(8) 0.268(8) -0.051(9) -0.032(6) -0.032(6)
C11 0.40(3) 0.38(2) 0.38(2) 0.02(2) 0.190(15) 0.190(15)
Cu1Q 0.194 0.255 0.255 0.038 0 0
Cu1H 0.255 0.255 0.194 0 0 0.038
Cu1T 0.255 0.255 0.194 0 0 0.038
Cu1D 0.255 0.194 0.255 0 0.038 0
Cu1N 0.255 0.194 0.255 0 0.038 0
Cu1KA 0.255 0.194 0.255 0 0.038 0
Cu1EA 0.255 0.194 0.255 0 0.038 0
Cu1UA 0.255 0.255 0.194 0 0 0.038
Cu1IA 0.255 0.255 0.194 0 0 0.038
Cu1I 0.255 0.255 0.194 0 0 -0.038
Cu1V 0.255 0.255 0.194 0 0 -0.038
Cu1F 0.255 0.194 0.255 0 -0.038 0
Cu1O 0.255 0.194 0.255 0 -0.038 0
Cu1JA 0.255 0.194 0.255 0 -0.038 0
Cu1CA 0.255 0.194 0.255 0 -0.038 0
Cu1SA 0.255 0.255 0.194 0 0 -0.038
Cu1HA 0.255 0.255 0.194 0 0 -0.038
O1JD 0.18 0.273 0.222 0.007 0.029 0.039
O1H 0.222 0.273 0.18 0.039 0.029 0.007
O1OD 0.273 0.222 0.18 0.029 0.039 0.007
O1D 0.273 0.18 0.222 0.029 0.007 0.039
O1ED 0.222 0.18 0.273 0.039 0.007 0.029
O1PA 0.18 0.273 0.222 0.007 0.029 0.039
O1PD 0.18 0.222 0.273 0.007 0.039 0.029
O1KA 0.222 0.18 0.273 0.039 0.007 0.029
O1TD 0.273 0.18 0.222 0.029 0.007 0.039
O1UA 0.273 0.222 0.18 0.029 0.039 0.007
O1XD 0.222 0.273 0.18 0.039 0.029 0.007
O1UC 0.18 0.222 0.273 0.007 -0.039 -0.029
O1Q 0.18 0.273 0.222 0.007 -0.029 -0.039
O1BD 0.222 0.273 0.18 0.039 -0.029 -0.007
O1V 0.273 0.222 0.18 0.029 -0.039 -0.007
O1WC 0.273 0.18 0.222 0.029 -0.007 -0.039
O1O 0.222 0.18 0.273 0.039 -0.007 -0.029
O1GE 0.18 0.273 0.222 0.007 -0.029 -0.039
O1AA 0.18 0.222 0.273 0.007 -0.039 -0.029
O1EE 0.222 0.18 0.273 0.039 -0.007 -0.029
O1CA 0.273 0.18 0.222 0.029 -0.007 -0.039
O1LE 0.273 0.222 0.18 0.029 -0.039 -0.007
O1HA 0.222 0.273 0.18 0.039 -0.029 -0.007
O1QC 0.273 0.222 0.18 0.029 0.039 0.007
O1CD 0.222 0.273 0.18 -0.039 -0.029 0.007
O1FG 0.273 0.222 0.18 -0.029 -0.039 0.007
O1TF 0.222 0.273 0.18 0.039 0.029 0.007
O1T 0.273 0.222 0.18 -0.029 -0.039 0.007
O1EC 0.222 0.273 0.18 -0.039 -0.029 0.007
O1IB 0.222 0.18 0.273 0.039 0.007 0.029
O1YC 0.273 0.18 0.222 -0.029 0.007 -0.039
O1BF 0.222 0.18 0.273 -0.039 0.007 -0.029
O1RE 0.273 0.18 0.222 0.029 0.007 0.039
O1N 0.222 0.18 0.273 -0.039 0.007 -0.029
O1CB 0.273 0.18 0.222 -0.029 0.007 -0.039
O2Q 0.471 0.27 0.27 0.186 0 0
O2H 0.27 0.27 0.471 0 0 0.186
O2T 0.27 0.27 0.471 0 0 0.186
O2D 0.27 0.471 0.27 0 0.186 0
O2N 0.27 0.471 0.27 0 0.186 0
C1H 0.39 0.361 0.361 0.167 0.228 0.228
C1D 0.361 0.361 0.39 0.228 0.228 0.167
C1PA 0.361 0.361 0.39 0.228 0.228 0.167
C1KA 0.39 0.361 0.361 0.167 0.228 0.228
C1UA 0.361 0.39 0.361 0.228 0.167 0.228
C1V 0.361 0.39 0.361 0.228 -0.167 -0.228
C1O 0.39 0.361 0.361 0.167 -0.228 -0.228
C1Q 0.361 0.361 0.39 0.228 -0.228 -0.167
C1CA 0.361 0.361 0.39 0.228 -0.228 -0.167
C1HA 0.39 0.361 0.361 0.167 -0.228 -0.228
C1AA 0.361 0.39 0.361 0.228 -0.167 -0.228
C2H 0.319 0.319 0.44 0.19 0.19 0.261
C2D 0.319 0.44 0.319 0.19 0.261 0.19
C2PA 0.44 0.319 0.319 0.261 0.19 0.19
C2KA 0.319 0.44 0.319 0.19 0.261 0.19
C2UA 0.319 0.319 0.44 0.19 0.19 0.261
C2Q 0.44 0.319 0.319 0.261 -0.19 -0.19
C2V 0.319 0.319 0.44 0.19 -0.19 -0.261
C2O 0.319 0.44 0.319 0.19 -0.261 -0.19
C2AA 0.44 0.319 0.319 0.261 -0.19 -0.19
C2CA 0.319 0.44 0.319 0.19 -0.261 -0.19
C2HA 0.319 0.319 0.44 0.19 -0.19 -0.261
C3H 0.398 0.398 0.38 0.292 0.292 0.229
C3D 0.398 0.38 0.398 0.292 0.229 0.292
C3PA 0.38 0.398 0.398 0.229 0.292 0.292
C3KA 0.398 0.38 0.398 0.292 0.229 0.292
C3UA 0.398 0.398 0.38 0.292 0.292 0.229
C3Q 0.38 0.398 0.398 0.229 -0.292 -0.292
C3V 0.398 0.398 0.38 0.292 -0.292 -0.229
C3O 0.398 0.38 0.398 0.292 -0.229 -0.292
C3AA 0.38 0.398 0.398 0.229 -0.292 -0.292
C3CA 0.398 0.38 0.398 0.292 -0.229 -0.292
C3HA 0.398 0.398 0.38 0.292 -0.292 -0.229
C4H 0.55 0.67 0.45 0.28 0.338 0.43
C4OD 0.67 0.55 0.45 0.338 0.28 0.43
C4JD 0.45 0.67 0.55 0.43 0.338 0.28
C4D 0.67 0.45 0.55 0.338 0.43 0.28
C4ED 0.55 0.45 0.67 0.28 0.43 0.338
C4PA 0.45 0.67 0.55 0.43 0.338 0.28
C4KA 0.55 0.45 0.67 0.28 0.43 0.338
C4TD 0.67 0.45 0.55 0.338 0.43 0.28
C4PD 0.45 0.55 0.67 0.43 0.28 0.338
C4UA 0.67 0.55 0.45 0.338 0.28 0.43
C4XD 0.55 0.67 0.45 0.28 0.338 0.43
C4UC 0.45 0.55 0.67 0.43 -0.28 -0.338
C4BD 0.55 0.67 0.45 0.28 -0.338 -0.43
C4V 0.67 0.55 0.45 0.338 -0.28 -0.43
C4Q 0.45 0.67 0.55 0.43 -0.338 -0.28
C4WC 0.67 0.45 0.55 0.338 -0.43 -0.28
C4O 0.55 0.45 0.67 0.28 -0.43 -0.338
C4GE 0.45 0.67 0.55 0.43 -0.338 -0.28
C4EE 0.55 0.45 0.67 0.28 -0.43 -0.338
C4CA 0.67 0.45 0.55 0.338 -0.43 -0.28
C4AA 0.45 0.55 0.67 0.43 -0.28 -0.338
C4LE 0.67 0.55 0.45 0.338 -0.28 -0.43
C4HA 0.55 0.67 0.45 0.28 -0.338 -0.43
C5H 0.77 0.44 0.41 0.266 0.25 0.24
C5OD 0.44 0.77 0.41 0.25 0.266 0.24
C5JD 0.41 0.44 0.77 0.24 0.25 0.266
C5D 0.44 0.41 0.77 0.25 0.24 0.266
C5ED 0.77 0.41 0.44 0.266 0.24 0.25
C5PA 0.41 0.44 0.77 0.24 0.25 0.266
C5KA 0.77 0.41 0.44 0.266 0.24 0.25
C5TD 0.44 0.41 0.77 0.25 0.24 0.266
C5PD 0.41 0.77 0.44 0.24 0.266 0.25
C5UA 0.44 0.77 0.41 0.25 0.266 0.24
C5XD 0.77 0.44 0.41 0.266 0.25 0.24
C5UC 0.41 0.77 0.44 0.24 -0.266 -0.25
C5BD 0.77 0.44 0.41 0.266 -0.25 -0.24
C5V 0.44 0.77 0.41 0.25 -0.266 -0.24
C5Q 0.41 0.44 0.77 0.24 -0.25 -0.266
C5WC 0.44 0.41 0.77 0.25 -0.24 -0.266
C5O 0.77 0.41 0.44 0.266 -0.24 -0.25
C5GE 0.41 0.44 0.77 0.24 -0.25 -0.266
C5EE 0.77 0.41 0.44 0.266 -0.24 -0.25
C5CA 0.44 0.41 0.77 0.25 -0.24 -0.266
C5AA 0.41 0.77 0.44 0.24 -0.266 -0.25
C5LE 0.44 0.77 0.41 0.25 -0.266 -0.24
C5HA 0.77 0.44 0.41 0.266 -0.25 -0.24
C6H 0.334 0.334 0.33 0.176 0.176 0.106
C6D 0.334 0.33 0.334 0.176 0.106 0.176
C6PA 0.33 0.334 0.334 0.106 0.176 0.176
C6KA 0.334 0.33 0.334 0.176 0.106 0.176
C6UA 0.334 0.334 0.33 0.176 0.176 0.106
C6Q 0.33 0.334 0.334 0.106 -0.176 -0.176
C6V 0.334 0.334 0.33 0.176 -0.176 -0.106
C6O 0.334 0.33 0.334 0.176 -0.106 -0.176
C6AA 0.33 0.334 0.334 0.106 -0.176 -0.176
C6CA 0.334 0.33 0.334 0.176 -0.106 -0.176
C6HA 0.334 0.334 0.33 0.176 -0.176 -0.106
C7H 0.241 0.241 0.228 0.099 0.099 0.011
C7D 0.241 0.228 0.241 0.099 0.011 0.099
C7PA 0.228 0.241 0.241 0.011 0.099 0.099
C7KA 0.241 0.228 0.241 0.099 0.011 0.099
C7UA 0.241 0.241 0.228 0.099 0.099 0.011
C7Q 0.228 0.241 0.241 0.011 -0.099 -0.099
C7V 0.241 0.241 0.228 0.099 -0.099 -0.011
C7O 0.241 0.228 0.241 0.099 -0.011 -0.099
C7AA 0.228 0.241 0.241 0.011 -0.099 -0.099
C7CA 0.241 0.228 0.241 0.099 -0.011 -0.099
C7HA 0.241 0.241 0.228 0.099 -0.099 -0.011
C8H 0.247 0.329 0.433 0.011 0.21 0.096
C8OD 0.329 0.247 0.433 0.21 0.011 0.096
C8JD 0.433 0.329 0.247 0.096 0.21 0.011
C8D 0.329 0.433 0.247 0.21 0.096 0.011
C8ED 0.247 0.433 0.329 0.011 0.096 0.21
C8PA 0.433 0.329 0.247 0.096 0.21 0.011
C8KA 0.247 0.433 0.329 0.011 0.096 0.21
C8TD 0.329 0.433 0.247 0.21 0.096 0.011
C8PD 0.433 0.247 0.329 0.096 0.011 0.21
C8UA 0.329 0.247 0.433 0.21 0.011 0.096
C8XD 0.247 0.329 0.433 0.011 0.21 0.096
C8UC 0.433 0.247 0.329 0.096 -0.011 -0.21
C8BD 0.247 0.329 0.433 0.011 -0.21 -0.096
C8V 0.329 0.247 0.433 0.21 -0.011 -0.096
C8Q 0.433 0.329 0.247 0.096 -0.21 -0.011
C8WC 0.329 0.433 0.247 0.21 -0.096 -0.011
C8O 0.247 0.433 0.329 0.011 -0.096 -0.21
C8GE 0.433 0.329 0.247 0.096 -0.21 -0.011
C8EE 0.247 0.433 0.329 0.011 -0.096 -0.21
C8CA 0.329 0.433 0.247 0.21 -0.096 -0.011
C8AA 0.433 0.247 0.329 0.096 -0.011 -0.21
C8LE 0.329 0.247 0.433 0.21 -0.011 -0.096
C8HA 0.247 0.329 0.433 0.011 -0.21 -0.096
C9H 0.354 0.439 0.322 0.141 0.114 0.088
C9OD 0.439 0.354 0.322 0.114 0.141 0.088
C9JD 0.322 0.439 0.354 0.088 0.114 0.141
C9D 0.439 0.322 0.354 0.114 0.088 0.141
C9ED 0.354 0.322 0.439 0.141 0.088 0.114
C9PA 0.322 0.439 0.354 0.088 0.114 0.141
C9KA 0.354 0.322 0.439 0.141 0.088 0.114
C9TD 0.439 0.322 0.354 0.114 0.088 0.141
C9PD 0.322 0.354 0.439 0.088 0.141 0.114
C9UA 0.439 0.354 0.322 0.114 0.141 0.088
C9XD 0.354 0.439 0.322 0.141 0.114 0.088
C9UC 0.322 0.354 0.439 0.088 -0.141 -0.114
C9BD 0.354 0.439 0.322 0.141 -0.114 -0.088
C9V 0.439 0.354 0.322 0.114 -0.141 -0.088
C9Q 0.322 0.439 0.354 0.088 -0.114 -0.141
C9WC 0.439 0.322 0.354 0.114 -0.088 -0.141
C9O 0.354 0.322 0.439 0.141 -0.088 -0.114
C9GE 0.322 0.439 0.354 0.088 -0.114 -0.141
C9EE 0.354 0.322 0.439 0.141 -0.088 -0.114
C9CA 0.439 0.322 0.354 0.114 -0.088 -0.141
C9AA 0.322 0.354 0.439 0.088 -0.141 -0.114
C9LE 0.439 0.354 0.322 0.114 -0.141 -0.088
C9HA 0.354 0.439 0.322 0.141 -0.114 -0.088
C10H 0.268 0.268 0.255 -0.032 -0.032 -0.051
C10D 0.268 0.255 0.268 -0.032 -0.051 -0.032
C10PA 0.255 0.268 0.268 -0.051 -0.032 -0.032
C10KA 0.268 0.255 0.268 -0.032 -0.051 -0.032
C10UA 0.268 0.268 0.255 -0.032 -0.032 -0.051
C10Q 0.255 0.268 0.268 -0.051 0.032 0.032
C10V 0.268 0.268 0.255 -0.032 0.032 0.051
C10O 0.268 0.255 0.268 -0.032 0.051 0.032
C10AA 0.255 0.268 0.268 -0.051 0.032 0.032
C10CA 0.268 0.255 0.268 -0.032 0.051 0.032
C10HA 0.268 0.268 0.255 -0.032 0.032 0.051
C11H 0.38 0.38 0.4 0.19 0.19 0.02
C11D 0.38 0.4 0.38 0.19 0.02 0.19
C11PA 0.4 0.38 0.38 0.02 0.19 0.19
C11KA 0.38 0.4 0.38 0.19 0.02 0.19
C11UA 0.38 0.38 0.4 0.19 0.19 0.02
C11Q 0.4 0.38 0.38 0.02 -0.19 -0.19
C11V 0.38 0.38 0.4 0.19 -0.19 -0.02
C11O 0.38 0.4 0.38 0.19 -0.02 -0.19
C11AA 0.4 0.38 0.38 0.02 -0.19 -0.19
C11CA 0.38 0.4 0.38 0.19 -0.02 -0.19
C11HA 0.38 0.38 0.4 0.19 -0.19 -0.02
loop_
_geom_bond_atom_site_label_1
_geom_bond_atom_site_label_2
_geom_bond_site_symmetry_1
_geom_bond_site_symmetry_2
Cu1 O1 1_555 1_555
O1 C11 1_555 1_555
O2 Cu1 1_555 1_555
C1 H1 1_555 1_555
C2 C1 1_555 1_555
C3 C2 1_555 1_555
C4 C3 1_555 1_555
H2 C4 1_555 1_555
C5 C4 1_555 1_555
H3 C5 1_555 1_555
C6 C5 1_555 1_555
C7 C6 1_555 1_555
C8 C7 1_555 1_555
H4 C8 1_555 1_555
C9 C8 1_555 1_555
H5 C9 1_555 1_555
C10 C9 1_555 1_555
C11 C10 1_555 1_555
Cu1Q O1JD 1_555 1_555
Cu1H O1H 1_555 1_555
Cu1T O1OD 1_555 1_555
Cu1D O1D 1_555 1_555
Cu1N O1ED 1_555 1_555
Cu1KA O1KA 1_555 1_555
Cu1EA O1TD 1_555 1_555
Cu1UA O1UA 1_555 1_555
Cu1IA O1XD 1_555 1_555
Cu1I O1BD 1_555 1_555
Cu1V O1V 1_555 1_555
Cu1F O1WC 1_555 1_555
Cu1O O1O 1_555 1_555
Cu1JA O1EE 1_555 1_555
Cu1CA O1CA 1_555 1_555
Cu1SA O1LE 1_555 1_555
Cu1HA O1HA 1_555 1_555
O1JD C11 1_555 1_555
O1H C11H 1_555 1_555
O1OD C11H 1_555 1_555
O1D C11D 1_555 1_555
O1ED C11D 1_555 1_555
O1PA Cu1 1_555 1_555
O1PD Cu1Q 1_555 1_555
O1KA C11KA 1_555 1_555
O1TD C11KA 1_555 1_555
O1UA C11UA 1_555 1_555
O1XD C11UA 1_555 1_555
O1UC Cu1 1_555 1_555
O1Q Cu1Q 1_555 1_555
O1BD C11V 1_555 1_555
O1V C11V 1_555 1_555
O1WC C11O 1_555 1_555
O1O C11O 1_555 1_555
O1GE Cu1 1_555 1_555
O1AA Cu1Q 1_555 1_555
O1EE C11CA 1_555 1_555
O1CA C11CA 1_555 1_555
O1LE C11HA 1_555 1_555
O1HA C11HA 1_555 1_555
O1QC Cu1H 1_555 1_555
O1CD Cu1H 1_555 1_555
O1FG Cu1H 1_555 1_555
O1TF Cu1T 1_555 1_555
O1T Cu1T 1_555 1_555
O1EC Cu1T 1_555 1_555
O1IB Cu1D 1_555 1_555
O1YC Cu1D 1_555 1_555
O1BF Cu1D 1_555 1_555
O1RE Cu1N 1_555 1_555
O1N Cu1N 1_555 1_555
O1CB Cu1N 1_555 1_555
O2Q Cu1Q 1_555 1_555
O2H Cu1H 1_555 1_555
O2T Cu1T 1_555 1_555
O2D Cu1D 1_555 1_555
O2N Cu1N 1_555 1_555
C1H H1H 1_555 1_555
C1D C2 1_555 1_555
C1PA H1PA 1_555 1_555
C1KA H1KA 1_555 1_555
C1UA H1UA 1_555 1_555
C1V H1V 1_555 1_555
C1O H1O 1_555 1_555
C1Q H1Q 1_555 1_555
C1CA H1CA 1_555 1_555
C1HA H1HA 1_555 1_555
C1AA H1AA 1_555 1_555
H1D C1D 1_555 1_555
C2H C1 1_555 1_555
C2D C1H 1_555 1_555
C2PA C1PA 1_555 1_555
C2KA C1PA 1_555 1_555
C2UA C1KA 1_555 1_555
C2Q C1V 1_555 1_555
C2V C1V 1_555 1_555
C2O C1O 1_555 1_555
C2AA C1CA 1_555 1_555
C2CA C1CA 1_555 1_555
C2HA C1HA 1_555 1_555
C3H C2H 1_555 1_555
C3D C2D 1_555 1_555
C3PA C2PA 1_555 1_555
C3KA C2KA 1_555 1_555
C3UA C2UA 1_555 1_555
C3Q C2Q 1_555 1_555
C3V C2V 1_555 1_555
C3O C2O 1_555 1_555
C3AA C2AA 1_555 1_555
C3CA C2CA 1_555 1_555
C3HA C2HA 1_555 1_555
C4H C3H 1_555 1_555
C4OD C3H 1_555 1_555
C4JD C3 1_555 1_555
C4D C3D 1_555 1_555
C4ED C3D 1_555 1_555
C4PA C3PA 1_555 1_555
C4KA C3KA 1_555 1_555
C4TD C3KA 1_555 1_555
C4PD C3PA 1_555 1_555
C4UA C3UA 1_555 1_555
C4XD C3UA 1_555 1_555
C4UC C3Q 1_555 1_555
C4BD C3V 1_555 1_555
C4V C3V 1_555 1_555
C4Q C3Q 1_555 1_555
C4WC C3O 1_555 1_555
C4O C3O 1_555 1_555
C4GE C3AA 1_555 1_555
C4EE C3CA 1_555 1_555
C4CA C3CA 1_555 1_555
C4AA C3AA 1_555 1_555
C4LE C3HA 1_555 1_555
C4HA C3HA 1_555 1_555
H2H C4H 1_555 1_555
H2OD C4OD 1_555 1_555
H2JD C4JD 1_555 1_555
H2D C4D 1_555 1_555
H2ED C4ED 1_555 1_555
H2PA C4PA 1_555 1_555
H2KA C4KA 1_555 1_555
H2TD C4TD 1_555 1_555
H2PD C4PD 1_555 1_555
H2UA C4UA 1_555 1_555
H2XD C4XD 1_555 1_555
H2UC C4UC 1_555 1_555
H2BD C4BD 1_555 1_555
H2V C4V 1_555 1_555
H2Q C4Q 1_555 1_555
H2WC C4WC 1_555 1_555
H2O C4O 1_555 1_555
H2GE C4GE 1_555 1_555
H2EE C4EE 1_555 1_555
H2CA C4CA 1_555 1_555
H2AA C4AA 1_555 1_555
H2LE C4LE 1_555 1_555
H2HA C4HA 1_555 1_555
C5H C4H 1_555 1_555
C5OD C4OD 1_555 1_555
C5JD C6 1_555 1_555
C5D C4D 1_555 1_555
C5ED C4ED 1_555 1_555
C5PA C4PA 1_555 1_555
C5KA C4KA 1_555 1_555
C5TD C4TD 1_555 1_555
C5PD C4PD 1_555 1_555
C5UA C4UA 1_555 1_555
C5XD C4XD 1_555 1_555
C5UC C4UC 1_555 1_555
C5BD C4BD 1_555 1_555
C5V C4V 1_555 1_555
C5Q C4Q 1_555 1_555
C5WC C4WC 1_555 1_555
C5O C4O 1_555 1_555
C5GE C4GE 1_555 1_555
C5EE C4EE 1_555 1_555
C5CA C4CA 1_555 1_555
C5AA C4AA 1_555 1_555
C5LE C4LE 1_555 1_555
C5HA C4HA 1_555 1_555
H3H C5H 1_555 1_555
H3OD C5OD 1_555 1_555
H3JD C5JD 1_555 1_555
H3D C5D 1_555 1_555
H3ED C5ED 1_555 1_555
H3PA C5PA 1_555 1_555
H3KA C5KA 1_555 1_555
H3TD C5TD 1_555 1_555
H3PD C5PD 1_555 1_555
H3UA C5UA 1_555 1_555
H3XD C5XD 1_555 1_555
H3UC C5UC 1_555 1_555
H3BD C5BD 1_555 1_555
H3V C5V 1_555 1_555
H3Q C5Q 1_555 1_555
H3WC C5WC 1_555 1_555
H3O C5O 1_555 1_555
H3GE C5GE 1_555 1_555
H3EE C5EE 1_555 1_555
H3CA C5CA 1_555 1_555
H3AA C5AA 1_555 1_555
H3LE C5LE 1_555 1_555
H3HA C5HA 1_555 1_555
C6H C5H 1_555 1_555
C6D C5D 1_555 1_555
C6PA C5PA 1_555 1_555
C6KA C5KA 1_555 1_555
C6UA C5UA 1_555 1_555
C6Q C5UC 1_555 1_555
C6V C5BD 1_555 1_555
C6O C5WC 1_555 1_555
C6AA C5GE 1_555 1_555
C6CA C5EE 1_555 1_555
C6HA C5LE 1_555 1_555
C7H C6H 1_555 1_555
C7D C6D 1_555 1_555
C7PA C6PA 1_555 1_555
C7KA C6KA 1_555 1_555
C7UA C6UA 1_555 1_555
C7Q C6Q 1_555 1_555
C7V C6V 1_555 1_555
C7O C6O 1_555 1_555
C7AA C6AA 1_555 1_555
C7CA C6CA 1_555 1_555
C7HA C6HA 1_555 1_555
C8H C7H 1_555 1_555
C8OD C7H 1_555 1_555
C8JD C7 1_555 1_555
C8D C7D 1_555 1_555
C8ED C7D 1_555 1_555
C8PA C7PA 1_555 1_555
C8KA C7KA 1_555 1_555
C8TD C7KA 1_555 1_555
C8PD C7PA 1_555 1_555
C8UA C7UA 1_555 1_555
C8XD C7UA 1_555 1_555
C8UC C7Q 1_555 1_555
C8BD C7V 1_555 1_555
C8V C7V 1_555 1_555
C8Q C7Q 1_555 1_555
C8WC C7O 1_555 1_555
C8O C7O 1_555 1_555
C8GE C7AA 1_555 1_555
C8EE C7CA 1_555 1_555
C8CA C7CA 1_555 1_555
C8AA C7AA 1_555 1_555
C8LE C7HA 1_555 1_555
C8HA C7HA 1_555 1_555
H4H C8H 1_555 1_555
H4OD C8OD 1_555 1_555
H4JD C8JD 1_555 1_555
H4D C8D 1_555 1_555
H4ED C8ED 1_555 1_555
H4PA C8PA 1_555 1_555
H4KA C8KA 1_555 1_555
H4TD C8TD 1_555 1_555
H4PD C8PD 1_555 1_555
H4UA C8UA 1_555 1_555
H4XD C8XD 1_555 1_555
H4UC C8UC 1_555 1_555
H4BD C8BD 1_555 1_555
H4V C8V 1_555 1_555
H4Q C8Q 1_555 1_555
H4WC C8WC 1_555 1_555
H4O C8O 1_555 1_555
H4GE C8GE 1_555 1_555
H4EE C8EE 1_555 1_555
H4CA C8CA 1_555 1_555
H4AA C8AA 1_555 1_555
H4LE C8LE 1_555 1_555
H4HA C8HA 1_555 1_555
C9H C8H 1_555 1_555
C9OD C8OD 1_555 1_555
C9JD C10 1_555 1_555
C9D C8D 1_555 1_555
C9ED C8ED 1_555 1_555
C9PA C8PA 1_555 1_555
C9KA C8KA 1_555 1_555
C9TD C8TD 1_555 1_555
C9PD C8PD 1_555 1_555
C9UA C8UA 1_555 1_555
C9XD C8XD 1_555 1_555
C9UC C8UC 1_555 1_555
C9BD C8BD 1_555 1_555
C9V C8V 1_555 1_555
C9Q C8Q 1_555 1_555
C9WC C8WC 1_555 1_555
C9O C8O 1_555 1_555
C9GE C8GE 1_555 1_555
C9EE C8EE 1_555 1_555
C9CA C8CA 1_555 1_555
C9AA C8AA 1_555 1_555
C9LE C8LE 1_555 1_555
C9HA C8HA 1_555 1_555
H5H C9H 1_555 1_555
H5OD C9OD 1_555 1_555
H5JD C9JD 1_555 1_555
H5D C9D 1_555 1_555
H5ED C9ED 1_555 1_555
H5PA C9PA 1_555 1_555
H5KA C9KA 1_555 1_555
H5TD C9TD 1_555 1_555
H5PD C9PD 1_555 1_555
H5UA C9UA 1_555 1_555
H5XD C9XD 1_555 1_555
H5UC C9UC 1_555 1_555
H5BD C9BD 1_555 1_555
H5V C9V 1_555 1_555
H5Q C9Q 1_555 1_555
H5WC C9WC 1_555 1_555
H5O C9O 1_555 1_555
H5GE C9GE 1_555 1_555
H5EE C9EE 1_555 1_555
H5CA C9CA 1_555 1_555
H5AA C9AA 1_555 1_555
H5LE C9LE 1_555 1_555
H5HA C9HA 1_555 1_555
C10H C9H 1_555 1_555
C10D C9D 1_555 1_555
C10PA C9PA 1_555 1_555
C10KA C9KA 1_555 1_555
C10UA C9UA 1_555 1_555
C10Q C9UC 1_555 1_555
C10V C9BD 1_555 1_555
C10O C9WC 1_555 1_555
C10AA C9GE 1_555 1_555
C10CA C9EE 1_555 1_555
C10HA C9LE 1_555 1_555
C11H C10H 1_555 1_555
C11D C10D 1_555 1_555
C11PA O1PA 1_555 1_555
C11KA C10KA 1_555 1_555
C11UA C10UA 1_555 1_555
C11Q O1UC 1_555 1_555
C11V C10V 1_555 1_555
C11O C10O 1_555 1_555
C11AA O1GE 1_555 1_555
C11CA C10CA 1_555 1_555
C11HA C10HA 1_555 1_555
O1PD C11PA 1_555 1_555
O1Q C11Q 1_555 1_555
O1AA C11AA 1_555 1_555
C1H C2H 1_555 1_555
C1D C2D 1_555 1_555
C1KA C2KA 1_555 1_555
C1UA C2PA 1_555 1_555
C1UA C2UA 1_555 1_555
C1O C2V 1_555 1_555
C1Q C2Q 1_555 1_555
C1Q C2O 1_555 1_555
C1HA C2CA 1_555 1_555
C1AA C2AA 1_555 1_555
C1AA C2HA 1_555 1_555
C4JD C5JD 1_555 1_555
C5OD C6H 1_555 1_555
C5ED C6D 1_555 1_555
C5TD C6KA 1_555 1_555
C5PD C6PA 1_555 1_555
C5XD C6UA 1_555 1_555
C5V C6V 1_555 1_555
C5Q C6Q 1_555 1_555
C5O C6O 1_555 1_555
C5CA C6CA 1_555 1_555
C5AA C6AA 1_555 1_555
C5HA C6HA 1_555 1_555
C8JD C9JD 1_555 1_555
C9OD C10H 1_555 1_555
C9ED C10D 1_555 1_555
C9TD C10KA 1_555 1_555
C9PD C10PA 1_555 1_555
C9XD C10UA 1_555 1_555
C9V C10V 1_555 1_555
C9Q C10Q 1_555 1_555
C9O C10O 1_555 1_555
C9CA C10CA 1_555 1_555
C9AA C10AA 1_555 1_555
C9HA C10HA 1_555 1_555
C10PA C11PA 1_555 1_555
C10Q C11Q 1_555 1_555
C10AA C11AA 1_555 1_555

#END
