
#######################################################################
#
#                 Cambridge Crystallographic Data Centre
#                                CCDC 
#
#######################################################################
#
# If this CIF has been generated from an entry in the Cambridge 
# Structural Database, then it will include bibliographic, chemical, 
# crystal, experimental, refinement or atomic coordinate data resulting 
# from the CCDC's data processing and validation procedures.
#
#######################################################################

data_GENGIR
_chemical_formula_moiety         '(C43 H25 Dy2 O16 P2 1-)n'
_symmetry_cell_setting           monoclinic
_symmetry_space_group_name_H-M   'P 2/c'
_symmetry_Int_Tables_number      13
_space_group_name_Hall           '-P 2yc'
loop_
_symmetry_equiv_pos_site_id
_symmetry_equiv_pos_as_xyz
1 x,y,z
2 -x,y,1/2-z
3 -x,-y,-z
4 x,-y,1/2+z
_cell_length_a                   14.537(3)
_cell_length_b                   10.492(2)
_cell_length_c                   23.403(5)
_cell_angle_alpha                90
_cell_angle_beta                 107.32(3)
_cell_angle_gamma                90
_cell_volume                     3407.63
loop_
_atom_site_label
_atom_site_type_symbol
_atom_site_fract_x
_atom_site_fract_y
_atom_site_fract_z
Dy1 Dy 0.15497(2) 0.93606(3) 0.226515(14)
P1 P 0.23095(14) 1.14155(19) 0.12079(8)
O1 O 0.1737(4) 1.0548(4) 0.1479(2)
O2 O 0.1546(3) 1.7065(5) 0.2360(2)
O3 O 0.0737(4) 1.1225(6) 0.2361(3)
O4 O 0.1890(4) 1.7815(5) 0.1568(2)
O5 O -0.0018(4) 1.1137(6) -0.1753(2)
O6 O 0.1488(4) 1.0931(5) -0.1774(2)
O7 O 0.7191(4) 1.0832(5) 0.2214(2)
O8 O 0.6768(3) 0.8835(6) 0.2285(2)
C1 C 0.2191(5) 1.3031(7) 0.1398(3)
C2 C 0.0000 1.1669(18) 0.2500
H1 H 0.0000 1.2555 0.2500
C3 C 0.2055(7) 1.3325(9) 0.1948(4)
H2 H 0.2040 1.2669 0.2213
C4 C 0.1942(8) 1.4582(8) 0.2112(4)
H3 H 0.1865 1.4759 0.2484
C5 C 0.1944(5) 1.5538(7) 0.1726(3)
C6 C 0.2077(7) 1.5308(7) 0.1169(4)
H4 H 0.2077 1.5972 0.0906
C7 C 0.2209(6) 1.4055(8) 0.1020(4)
H5 H 0.2313 1.3891 0.0654
C8 C 0.1785(6) 1.6914(8) 0.1885(3)
C9 C 0.1897(5) 1.1318(7) 0.0403(3)
C10 C 0.0929(5) 1.1296(9) 0.0109(3)
H6 H 0.0490 1.1335 0.0328
C11 C 0.0597(6) 1.1220(9) -0.0500(3)
H7 H -0.0063 1.1211 -0.0691
C12 C 0.1230(5) 1.1155(6) -0.0835(3)
C13 C 0.2202(6) 1.1197(9) -0.0554(3)
H8 H 0.2632 1.1179 -0.0779
C14 C 0.2547(6) 1.1267(10) 0.0069(4)
H9 H 0.3206 1.1279 0.0260
C15 C 0.0860(5) 1.1055(6) -0.1508(3)
C16 C 0.3581(5) 1.1018(7) 0.1454(3)
C17 C 0.3842(6) 0.9751(8) 0.1519(3)
H10 H 0.3368 0.9125 0.1425
C18 C 0.4791(6) 0.9406(9) 0.1721(4)
H11 H 0.4956 0.8548 0.1765
C19 C 0.5501(5) 1.0315(7) 0.1860(3)
C20 C 0.5252(6) 1.1586(8) 0.1778(3)
H12 H 0.5733 1.2202 0.1854
C21 C 0.4287(6) 1.1958(9) 0.1582(3)
H13 H 0.4120 1.2816 0.1537
C22 C 0.6544(6) 0.9970(9) 0.2128(3)
Dy1_2 Dy 0.15497(2) -0.06394(3) 0.226515(14)
Dy1_3 Dy 0.15497(2) 1.93606(3) 0.226515(14)
Dy1B Dy -0.15497(2) 1.06394(3) -0.226515(14)
Dy1C Dy 0.15497(2) 1.06394(3) -0.273485(14)
Dy1A Dy 0.84503(2) 0.93606(3) 0.273485(14)
Dy1A_2 Dy -0.15497(2) 0.93606(3) 0.273485(14)
Dy1B_2 Dy -0.15497(2) 0.06394(3) -0.226515(14)
Dy1C_2 Dy 0.15497(2) 0.06394(3) -0.273485(14)
Dy1A_3 Dy 0.84503(2) -0.06394(3) 0.273485(14)
P1_2 P 0.23095(14) 0.14155(19) 0.12079(8)
O1_2 O 0.1737(4) 0.0548(4) 0.1479(2)
O2_2 O 0.1546(3) 0.7065(5) 0.2360(2)
O2_3 O 0.1546(3) -0.2935(5) 0.2360(2)
O3A O -0.0737(4) 1.1225(6) 0.2639(3)
O3_2 O 0.0737(4) 0.1225(6) 0.2361(3)
O4_2 O 0.1890(4) 0.7815(5) 0.1568(2)
O4_3 O 0.1890(4) -0.2185(5) 0.1568(2)
O5_2 O -0.0018(4) 0.1137(6) -0.1753(2)
O5B O 0.0018(4) 0.8863(6) 0.1753(2)
O5B_2 O 0.0018(4) -0.1137(6) 0.1753(2)
O6_2 O 0.1488(4) 0.0931(5) -0.1774(2)
O6C O 0.1488(4) 0.9069(5) 0.3226(2)
O6C_2 O 0.1488(4) -0.0931(5) 0.3226(2)
O7_2 O 0.7191(4) 0.0832(5) 0.2214(2)
O7A O 0.2809(4) 1.0832(5) 0.2786(2)
O7A_2 O 0.2809(4) 0.0832(5) 0.2786(2)
O8_2 O 0.6768(3) -0.1165(6) 0.2285(2)
O8A O 0.3232(3) 0.8835(6) 0.2715(2)
O8A_2 O 0.3232(3) -0.1165(6) 0.2715(2)
C1_2 C 0.2191(5) 0.3031(7) 0.1398(3)
C3_2 C 0.2055(7) 0.3325(9) 0.1948(4)
H2_2 H 0.2040 0.2669 0.2213
C4_2 C 0.1942(8) 0.4582(8) 0.2112(4)
H3_2 H 0.1865 0.4759 0.2484
C5_2 C 0.1944(5) 0.5538(7) 0.1726(3)
C6_2 C 0.2077(7) 0.5308(7) 0.1169(4)
H4_2 H 0.2077 0.5972 0.0906
C7_2 C 0.2209(6) 0.4055(8) 0.1020(4)
H5_2 H 0.2313 0.3891 0.0654
C8_2 C 0.1785(6) 0.6914(8) 0.1885(3)
C9_2 C 0.1897(5) 0.1318(7) 0.0403(3)
C10_2 C 0.0929(5) 0.1296(9) 0.0109(3)
H6_2 H 0.0490 0.1335 0.0328
C11_2 C 0.0597(6) 0.1220(9) -0.0500(3)
H7_2 H -0.0063 0.1211 -0.0691
C12_2 C 0.1230(5) 0.1155(6) -0.0835(3)
C13_2 C 0.2202(6) 0.1197(9) -0.0554(3)
H8_2 H 0.2632 0.1179 -0.0779
C14_2 C 0.2547(6) 0.1267(10) 0.0069(4)
H9_2 H 0.3206 0.1279 0.0260
C15_2 C 0.0860(5) 0.1055(6) -0.1508(3)
C16_2 C 0.3581(5) 0.1018(7) 0.1454(3)
C17_2 C 0.3842(6) -0.0249(8) 0.1519(3)
H10_2 H 0.3368 -0.0875 0.1425
C18_2 C 0.4791(6) -0.0594(9) 0.1721(4)
H11_2 H 0.4956 -0.1452 0.1765
C19_2 C 0.5501(5) 0.0315(7) 0.1860(3)
C20_2 C 0.5252(6) 0.1586(8) 0.1778(3)
H12_2 H 0.5733 0.2202 0.1854
C21_2 C 0.4287(6) 0.1958(9) 0.1582(3)
H13_2 H 0.4120 0.2816 0.1537
C22_2 C 0.6544(6) -0.0030(9) 0.2128(3)
loop_
_geom_bond_atom_site_label_1
_geom_bond_atom_site_label_2
_geom_bond_site_symmetry_1
_geom_bond_site_symmetry_2
Dy1 O1 1_555 1_555
P1 O1 1_555 1_555
O2 C8 1_555 1_555
O3 Dy1 1_555 1_555
O4 C8 1_555 1_555
O5 C15 1_555 1_555
O6 C15 1_555 1_555
O7 C22 1_555 1_555
O8 C22 1_555 1_555
C1 P1 1_555 1_555
C2 O3 1_555 1_555
H1 C2 1_555 1_555
C3 C1 1_555 1_555
H2 C3 1_555 1_555
C4 C3 1_555 1_555
H3 C4 1_555 1_555
C5 C4 1_555 1_555
C6 C5 1_555 1_555
H4 C6 1_555 1_555
C7 C1 1_555 1_555
H5 C7 1_555 1_555
C8 C5 1_555 1_555
C9 P1 1_555 1_555
C10 C9 1_555 1_555
H6 C10 1_555 1_555
C11 C10 1_555 1_555
H7 C11 1_555 1_555
C12 C11 1_555 1_555
C13 C12 1_555 1_555
H8 C13 1_555 1_555
C14 C9 1_555 1_555
H9 C14 1_555 1_555
C15 C12 1_555 1_555
C16 P1 1_555 1_555
C17 C16 1_555 1_555
H10 C17 1_555 1_555
C18 C17 1_555 1_555
H11 C18 1_555 1_555
C19 C18 1_555 1_555
C20 C19 1_555 1_555
H12 C20 1_555 1_555
C21 C16 1_555 1_555
H13 C21 1_555 1_555
C22 C19 1_555 1_555
Dy1_2 O1_2 1_555 1_555
Dy1_3 O2 1_555 1_555
Dy1B O5 1_555 1_555
Dy1C O6 1_555 1_555
Dy1A O7 1_555 1_555
Dy1A_2 O3A 1_555 1_555
Dy1B_2 O5_2 1_555 1_555
Dy1C_2 O6_2 1_555 1_555
Dy1A_3 O7_2 1_555 1_555
P1_2 O1_2 1_555 1_555
O2_2 Dy1 1_555 1_555
O2_3 Dy1_2 1_555 1_555
O3A C2 1_555 1_555
O3_2 Dy1_2 1_555 1_555
O4_2 Dy1 1_555 1_555
O4_3 Dy1_2 1_555 1_555
O5_2 C15_2 1_555 1_555
O5B Dy1 1_555 1_555
O5B_2 Dy1_2 1_555 1_555
O6_2 C15_2 1_555 1_555
O6C Dy1 1_555 1_555
O6C_2 Dy1_2 1_555 1_555
O7_2 C22_2 1_555 1_555
O7A Dy1 1_555 1_555
O7A_2 Dy1_2 1_555 1_555
O8_2 Dy1A_3 1_555 1_555
O8A Dy1 1_555 1_555
O8A_2 Dy1_2 1_555 1_555
C1_2 P1_2 1_555 1_555
C3_2 C1_2 1_555 1_555
H2_2 C3_2 1_555 1_555
C4_2 C3_2 1_555 1_555
H3_2 C4_2 1_555 1_555
C5_2 C4_2 1_555 1_555
C6_2 C5_2 1_555 1_555
H4_2 C6_2 1_555 1_555
C7_2 C1_2 1_555 1_555
H5_2 C7_2 1_555 1_555
C8_2 O2_2 1_555 1_555
C9_2 P1_2 1_555 1_555
C10_2 C9_2 1_555 1_555
H6_2 C10_2 1_555 1_555
C11_2 C10_2 1_555 1_555
H7_2 C11_2 1_555 1_555
C12_2 C11_2 1_555 1_555
C13_2 C12_2 1_555 1_555
H8_2 C13_2 1_555 1_555
C14_2 C9_2 1_555 1_555
H9_2 C14_2 1_555 1_555
C15_2 C12_2 1_555 1_555
C16_2 P1_2 1_555 1_555
C17_2 C16_2 1_555 1_555
H10_2 C17_2 1_555 1_555
C18_2 C17_2 1_555 1_555
H11_2 C18_2 1_555 1_555
C19_2 C18_2 1_555 1_555
C20_2 C19_2 1_555 1_555
H12_2 C20_2 1_555 1_555
C21_2 C16_2 1_555 1_555
H13_2 C21_2 1_555 1_555
C22_2 O8_2 1_555 1_555
O4 Dy1_3 1_555 1_555
O8 Dy1A 1_555 1_555
C6 C7 1_555 1_555
C13 C14 1_555 1_555
C20 C21 1_555 1_555
O4_2 C8_2 1_555 1_555
C5_2 C8_2 1_555 1_555
C6_2 C7_2 1_555 1_555
C13_2 C14_2 1_555 1_555
C19_2 C22_2 1_555 1_555
C20_2 C21_2 1_555 1_555

#END
