
#######################################################################
#
#                 Cambridge Crystallographic Data Centre
#                                CCDC 
#
#######################################################################
#
# If this CIF has been generated from an entry in the Cambridge 
# Structural Database, then it will include bibliographic, chemical, 
# crystal, experimental, refinement or atomic coordinate data resulting 
# from the CCDC's data processing and validation procedures.
#
#######################################################################

data_LEWZET
_chemical_formula_moiety         'C16 Cl1 Fe1 N7'
_symmetry_cell_setting           orthorhombic
_symmetry_space_group_name_H-M   'C m m m'
_symmetry_Int_Tables_number      65
_space_group_name_Hall           '-C 2 2'
loop_
_symmetry_equiv_pos_site_id
_symmetry_equiv_pos_as_xyz
1 x,y,z
2 -x,-y,z
3 x,-y,-z
4 -x,y,-z
5 1/2+x,1/2+y,z
6 1/2-x,1/2-y,z
7 1/2+x,1/2-y,-z
8 1/2-x,1/2+y,-z
9 -x,-y,-z
10 x,y,-z
11 -x,y,z
12 x,-y,z
13 1/2-x,1/2-y,-z
14 1/2+x,1/2+y,-z
15 1/2-x,1/2+y,z
16 1/2+x,1/2-y,z
_cell_length_a                   14.3172(2)
_cell_length_b                   17.4017(3)
_cell_length_c                   7.3334(1)
_cell_angle_alpha                90
_cell_angle_beta                 90
_cell_angle_gamma                90
_cell_volume                     1827.07
loop_
_atom_site_label
_atom_site_type_symbol
_atom_site_fract_x
_atom_site_fract_y
_atom_site_fract_z
_atom_site_U_iso_or_equiv
_atom_site_thermal_displace_type
Fe1 Fe 0.25000 0.75000 0.50000 0.0109 Uiso
N1 N 0.14629(28) 0.77259(24) 0.28825(67) 0.0295 Uiso
C1 C 0.09592(36) 0.77831(29) 0.16875(85) 0.0284 Uiso
C2 C 0.04708(54) 0.78213(44) 0.00000 0.0478 Uiso
N2 N 0.00000 0.37912(42) 0.2277(10) 0.0615 Uiso
C3 C 0.00000 0.43124(49) 0.2970(11) 0.0439 Uiso
C4 C 0.03938(82) 0.50000 0.4240(18) 0.0106 Uiso
N3 N 0.21135(36) 0.62998(34) 0.50000 0.0152 Uiso
C5 C 0.18401(63) 0.56999(64) 0.50000 0.0664 Uiso
C6 C 0.13837(80) 0.50000 0.50000 0.0171 Uiso
N1E N 0.35371(28) 0.72741(24) 0.28825(67) 0.0295 Uiso
N1I N 0.14629(28) 0.77259(24) 0.71175(67) 0.0295 Uiso
N1L N 0.35371(28) 0.72741(24) 0.71175(67) 0.0295 Uiso
C1I C 0.09592(36) 0.77831(29) -0.16875(85) 0.0284 Uiso
C2C C -0.04708(54) 0.78213(44) 0.00000 0.0478 Uiso
C3A C 0.00000 0.56876(49) 0.2970(11) 0.0439 Uiso
C4A C -0.03938(82) 0.50000 0.4240(18) 0.0106 Uiso
C4B C 0.03938(82) 0.50000 0.5760(18) 0.0106 Uiso
C4C C -0.03938(82) 0.50000 0.5760(18) 0.0106 Uiso
N3E N 0.28865(36) 0.87002(34) 0.50000 0.0152 Uiso
C5B C 0.18401(63) 0.43001(64) 0.50000 0.0664 Uiso
C7 C 0.50000 0.50000 0.607(13) 0.5098 Uiso
C7B C 0.50000 0.50000 0.393(13) 0.5098 Uiso
C8 C 0.4155(25) 0.50000 0.8255(56) 0.3488 Uiso
Cl1 Cl 0.7287(32) 0.50000 0.00000 0.6507 Uiso
loop_
_geom_bond_atom_site_label_1
_geom_bond_atom_site_label_2
_geom_bond_site_symmetry_1
_geom_bond_site_symmetry_2
Fe1 N1 1_555 1_555
N1 C1 1_555 1_555
C1 C2 1_555 1_555
C2 C1I 1_555 1_555
N2 C3 1_555 1_555
C3 C4 1_555 1_555
C4 C6 1_555 1_555
N3 Fe1 1_555 1_555
C5 N3 1_555 1_555
C6 C5 1_555 1_555
C7 C7B 1_555 1_555
N1E Fe1 1_555 1_555
N1I Fe1 1_555 1_555
N1L Fe1 1_555 1_555
C2C C2 1_555 1_555
C3A C4 1_555 1_555
C4A C3 1_555 1_555
C4B C4 1_555 1_555
C4C C4 1_555 1_555
N3E Fe1 1_555 1_555
C5B C6 1_555 1_555
C4 C4A 1_555 1_555
C6 C4B 1_555 1_555
C3A C4A 1_555 1_555
C4A C4B 1_555 1_555
C4A C4C 1_555 1_555
C4B C4C 1_555 1_555

#END
