
#######################################################################
#
#                 Cambridge Crystallographic Data Centre
#                                CCDC 
#
#######################################################################
#
# If this CIF has been generated from an entry in the Cambridge 
# Structural Database, then it will include bibliographic, chemical, 
# crystal, experimental, refinement or atomic coordinate data resulting 
# from the CCDC's data processing and validation procedures.
#
#######################################################################

data_ADATUW
_chemical_formula_moiety         '(C44 H44 Ag1 B2 Cl4 N12 O1 1+)n'
_symmetry_cell_setting           cubic
_symmetry_space_group_name_H-M   'I 21 3'
_symmetry_Int_Tables_number      199
_space_group_name_Hall           'I 2b 2c 3'
loop_
_symmetry_equiv_pos_site_id
_symmetry_equiv_pos_as_xyz
1 x,y,z
2 1/2-x,-y,1/2+z
3 -x,1/2+y,1/2-z
4 1/2+x,1/2-y,-z
5 z,x,y
6 1/2+z,1/2-x,-y
7 1/2-z,-x,1/2+y
8 -z,1/2+x,1/2-y
9 y,z,x
10 -y,1/2+z,1/2-x
11 1/2+y,1/2-z,-x
12 1/2-y,-z,1/2+x
13 1/2+x,1/2+y,1/2+z
14 -x,1/2-y,z
15 1/2-x,y,-z
16 x,-y,1/2-z
17 1/2+z,1/2+x,1/2+y
18 z,-x,1/2-y
19 -z,1/2-x,y
20 1/2-z,x,-y
21 1/2+y,1/2+z,1/2+x
22 1/2-y,z,-x
23 y,-z,1/2-x
24 -y,1/2-z,x
_cell_length_a                   25.574(3)
_cell_length_b                   25.574(3)
_cell_length_c                   25.574(3)
_cell_angle_alpha                90
_cell_angle_beta                 90
_cell_angle_gamma                90
_cell_volume                     16726.1
loop_
_atom_site_label
_atom_site_type_symbol
_atom_site_fract_x
_atom_site_fract_y
_atom_site_fract_z
_atom_site_U_iso_or_equiv
_atom_site_thermal_displace_type
C14 C 0.1777(6) 1.1777(6) 1.1777(6) 0.0600 Uani
Cl1 Cl 0.2220(2) 1.2220(2) 1.2220(2) 0.1570 Uani
Cl2 Cl 0.1898(3) 1.1217(3) 1.2042(3) 0.1030 Uani
Cl2D Cl 0.2042(3) 1.1898(3) 1.1217(3) 0.1030 Uani
Cl2H Cl 0.1217(3) 1.2042(3) 1.1898(3) 0.1030 Uani
B1 B 0.24038(17) 0.79333(19) 0.47358(18) 0.1267 Uani
B1N B 0.25962(17) 0.79333(19) 0.52642(18) 0.1267 Uani
C15 C 0.4466(9) 0.8436(8) 1.0151(5) 0.1340 Uiso
C16 C 0.4460(6) 0.8587(9) 0.9561(6) 0.1690 Uiso
N5 N 0.4799(5) 0.8776(6) 0.9236(5) 0.1100 Uiso
N6 N 0.3245(8) 0.6663(8) 1.4041(7) 0.2220 Uiso
C17 C 0.3275(8) 0.6884(7) 1.3588(7) 0.1430 Uiso
C18 C 0.3432(10) 0.6915(10) 1.3003(8) 0.2300 Uiso
O5 O 0.4538(11) 0.7033(11) 0.9759(10) 0.0770 Uiso
Ag1 Ag 0.2500 0.89133(4) 1.0000 0.1049 Uani
N1 N 0.1981(3) 0.8631(2) 1.0625(3) 0.1077 Uani
N2 N 0.2192(3) 0.9409(2) 1.1091(3) 0.1040 Uani
H1 H 0.2146 0.9628 1.1342 0.1250 Uiso
N3 N 0.2540(3) 0.9519(2) 1.0706(2) 0.0813 Uani
N4 N 0.4404(3) 1.0596(3) 0.9404(3) 0.1370 Uani
C1 C 0.1792(4) 0.8136(4) 1.0600(4) 0.1350 Uani
H2 H 0.1874 0.7918 1.0321 0.1620 Uiso
C2 C 0.1460(4) 0.7959(4) 1.1017(5) 0.1853 Uani
H3 H 0.1270 0.7650 1.0988 0.2220 Uiso
C3 C 0.1430(4) 0.8288(4) 1.1499(4) 0.1210 Uani
H4 H 0.1267 0.8152 1.1794 0.1460 Uiso
C4 C 0.1626(3) 0.8758(3) 1.1521(3) 0.1130 Uani
H5 H 0.1577 0.8964 1.1816 0.1360 Uiso
C5 C 0.1917(4) 0.8955(4) 1.1082(4) 0.1083 Uani
C6 C 0.2741(3) 1.0014(4) 1.0707(3) 0.0990 Uani
C7 C 0.2512(3) 1.0402(3) 1.1132(3) 0.1187 Uani
H6 H 0.2243 1.0228 1.1328 0.1780 Uiso
H7 H 0.2366 1.0703 1.0961 0.1780 Uiso
H8 H 0.2786 1.0510 1.1364 0.1780 Uiso
C8 C 0.3155(3) 1.0129(3) 1.0362(3) 0.0807 Uani
C9 C 0.3223(3) 1.0679(3) 1.0245(3) 0.1013 Uani
H9 H 0.3005 1.0930 1.0391 0.1210 Uiso
C10 C 0.3627(3) 1.0819(3) 0.9905(3) 0.0890 Uani
H10 H 0.3667 1.1162 0.9792 0.1070 Uiso
C11 C 0.3948(3) 1.0450(4) 0.9751(3) 0.0877 Uani
C12 C 0.3876(3) 0.9890(3) 0.9856(3) 0.0910 Uani
H11 H 0.4103 0.9645 0.9710 0.1100 Uiso
C13 C 0.3491(3) 0.9738(4) 1.0155(3) 0.0943 Uani
H12 H 0.3439 0.9387 1.0231 0.1140 Uiso
Ag1E Ag 0.5000 1.2500 1.10867(4) 0.1049 Uani
Ag1K Ag 0.60867(4) 1.0000 0.7500 0.1049 Uani
N1E N 0.5625(3) 1.3019(3) 1.1369(2) 0.1077 Uani
N1K N 0.6369(2) 0.9375(3) 0.6981(3) 0.1077 Uani
N1N N 0.3019(3) 0.8631(2) 0.9375(3) 0.1077 Uani
N2E N 0.6091(3) 1.2808(3) 1.0591(2) 0.1040 Uani
N2K N 0.5591(2) 0.8909(3) 0.7192(3) 0.1040 Uani
H1E H 0.6342 1.2854 1.0372 0.1250 Uiso
H1K H 0.5372 0.8658 0.7146 0.1250 Uiso
N3E N 0.5706(2) 1.2460(3) 1.0481(2) 0.0813 Uani
N3K N 0.5481(2) 0.9294(2) 0.7540(3) 0.0813 Uani
N3N N 0.2460(3) 0.9519(2) 0.9294(2) 0.0813 Uani
C1E C 0.5600(4) 1.3208(4) 1.1864(4) 0.1350 Uani
C1K C 0.6864(4) 0.9400(4) 0.6792(4) 0.1350 Uani
H2E H 0.5321 1.3126 1.2082 0.1620 Uiso
H2K H 0.7082 0.9679 0.6874 0.1620 Uiso
C2E C 0.6017(5) 1.3540(4) 1.2041(4) 0.1853 Uani
C2K C 0.7041(4) 0.8983(5) 0.6460(4) 0.1853 Uani
H3E H 0.5988 1.3730 1.2350 0.2220 Uiso
H3K H 0.7350 0.9012 0.6270 0.2220 Uiso
C3E C 0.6499(4) 1.3570(4) 1.1712(4) 0.1210 Uani
C3K C 0.6712(4) 0.8501(4) 0.6430(4) 0.1210 Uani
H4E H 0.6794 1.3733 1.1848 0.1460 Uiso
H4K H 0.6848 0.8206 0.6267 0.1460 Uiso
C4E C 0.6521(3) 1.3374(3) 1.1242(3) 0.1130 Uani
C4K C 0.6242(3) 0.8479(3) 0.6626(3) 0.1130 Uani
H5E H 0.6816 1.3423 1.1036 0.1360 Uiso
H5K H 0.6036 0.8184 0.6577 0.1360 Uiso
C5E C 0.6082(4) 1.3083(4) 1.1045(4) 0.1083 Uani
C5K C 0.6045(4) 0.8918(4) 0.6917(4) 0.1083 Uani
C6E C 0.5707(3) 1.2259(3) 0.9986(4) 0.0990 Uani
C6K C 0.4986(4) 0.9293(3) 0.7741(3) 0.0990 Uani
C7E C 0.6132(3) 1.2488(3) 0.9598(3) 0.1187 Uani
C7K C 0.4598(3) 0.8868(3) 0.7512(3) 0.1187 Uani
H6E H 0.6328 1.2757 0.9772 0.1780 Uiso
H6K H 0.4772 0.8672 0.7243 0.1780 Uiso
H7E H 0.5961 1.2634 0.9297 0.1780 Uiso
H7K H 0.4297 0.9039 0.7366 0.1780 Uiso
H8E H 0.6364 1.2214 0.9490 0.1780 Uiso
H8K H 0.4490 0.8636 0.7786 0.1780 Uiso
C8E C 0.5362(3) 1.1845(3) 0.9871(3) 0.0807 Uani
C8K C 0.4871(3) 0.9638(3) 0.8155(3) 0.0807 Uani
C9E C 0.5245(3) 1.1777(3) 0.9321(3) 0.1013 Uani
C9K C 0.4321(3) 0.9755(3) 0.8223(3) 0.1013 Uani
H9E H 0.5391 1.1995 0.9070 0.1210 Uiso
H9K H 0.4070 0.9609 0.8005 0.1210 Uiso
C10E C 0.4905(3) 1.1373(3) 0.9181(3) 0.0890 Uani
C10K C 0.4181(3) 1.0095(3) 0.8627(3) 0.0890 Uani
H10E H 0.4792 1.1333 0.8838 0.1070 Uiso
H10K H 0.3838 1.0208 0.8667 0.1070 Uiso
C11E C 0.4751(3) 1.1052(3) 0.9550(4) 0.0877 Uani
C11K C 0.4550(4) 1.0249(3) 0.8948(3) 0.0877 Uani
C12E C 0.4856(3) 1.1124(3) 1.0110(3) 0.0910 Uani
C12K C 0.5110(3) 1.0144(3) 0.8876(3) 0.0910 Uani
H11E H 0.4710 1.0897 1.0355 0.1100 Uiso
H11K H 0.5355 1.0290 0.9103 0.1100 Uiso
C13E C 0.5155(3) 1.1509(3) 1.0262(4) 0.0943 Uani
C13K C 0.5262(4) 0.9845(3) 0.8491(3) 0.0943 Uani
H12E H 0.5231 1.1561 1.0613 0.1140 Uiso
H12K H 0.5613 0.9769 0.8439 0.1140 Uiso
loop_
_atom_site_aniso_label
_atom_site_aniso_U_11
_atom_site_aniso_U_22
_atom_site_aniso_U_33
_atom_site_aniso_U_23
_atom_site_aniso_U_13
_atom_site_aniso_U_12
C14 0.060(5) 0.060(5) 0.060(5) 0.007(4) 0.007(4) 0.007(4)
Cl1 0.157(4) 0.157(4) 0.157(4) 0.003(3) 0.003(3) 0.003(3)
Cl2 0.111(5) 0.093(5) 0.105(5) -0.012(4) 0.056(4) 0.016(4)
Cl2D 0.105 0.111 0.093 0.016 -0.012 0.056
Cl2H 0.093 0.105 0.111 0.056 0.016 -0.012
B1 0.108(9) 0.131(9) 0.141(9) -0.044(8) 0.023(9) -0.015(9)
B1N 0.108 0.131 0.141 0.044 0.023 0.015
Ag1 0.1395(10) 0.0888(8) 0.0863(8) 0.000 0.0211(8) 0.000
N1 0.181(7) 0.065(5) 0.077(6) 0.004(4) 0.036(5) -0.051(5)
N2 0.145(6) 0.044(4) 0.123(6) -0.042(4) 0.051(5) -0.034(4)
N3 0.074(5) 0.094(5) 0.076(5) 0.015(4) 0.002(4) -0.013(5)
N4 0.137(5) 0.137(5) 0.137(5) -0.012(6) 0.012(6) -0.012(6)
C1 0.148(6) 0.137(6) 0.120(6) 0.006(5) 0.017(5) -0.024(5)
C2 0.185(7) 0.188(7) 0.183(7) -0.010(6) 0.010(6) -0.037(6)
C3 0.127(6) 0.122(6) 0.114(6) -0.009(5) 0.029(5) -0.008(5)
C4 0.147(9) 0.088(8) 0.104(8) 0.033(6) 0.058(7) -0.017(7)
C5 0.180(9) 0.095(8) 0.050(6) -0.007(7) 0.002(7) 0.000(7)
C6 0.130(8) 0.075(7) 0.092(7) -0.012(6) 0.008(6) 0.023(7)
C7 0.124(6) 0.098(5) 0.134(6) -0.028(5) 0.013(5) -0.014(5)
C8 0.097(7) 0.074(7) 0.071(6) 0.014(5) -0.001(5) -0.030(6)
C9 0.100(7) 0.083(7) 0.121(9) -0.007(6) 0.030(6) 0.021(6)
C10 0.082(7) 0.060(6) 0.125(8) -0.010(6) 0.054(6) -0.002(5)
C11 0.058(6) 0.127(8) 0.078(7) 0.008(6) 0.015(5) -0.044(6)
C12 0.078(6) 0.087(7) 0.108(8) 0.001(6) -0.003(6) -0.037(6)
C13 0.098(8) 0.100(8) 0.085(8) -0.013(6) 0.035(6) 0.022(6)
Ag1E 0.0863 0.1395 0.0888 0 0 -0.0211
Ag1K 0.0888 0.0863 0.1395 -0.0211 0 0
N1E 0.077 0.181 0.065 -0.051 -0.004 -0.036
N1K 0.065 0.077 0.181 -0.036 0.051 0.004
N1N 0.181 0.065 0.077 -0.004 0.036 0.051
N2E 0.123 0.145 0.044 -0.034 0.042 -0.051
N2K 0.044 0.123 0.145 -0.051 0.034 -0.042
N3E 0.076 0.074 0.094 -0.013 -0.015 -0.002
N3K 0.094 0.076 0.074 -0.002 0.013 0.015
N3N 0.074 0.094 0.076 -0.015 0.002 0.013
C1E 0.12 0.148 0.137 -0.024 -0.006 -0.017
C1K 0.137 0.12 0.148 -0.017 0.024 0.006
C2E 0.183 0.185 0.188 -0.037 0.01 -0.01
C2K 0.188 0.183 0.185 -0.01 0.037 -0.01
C3E 0.114 0.127 0.122 -0.008 0.009 -0.029
C3K 0.122 0.114 0.127 -0.029 0.008 -0.009
C4E 0.104 0.147 0.088 -0.017 -0.033 -0.058
C4K 0.088 0.104 0.147 -0.058 0.017 0.033
C5E 0.05 0.18 0.095 0 0.007 -0.002
C5K 0.095 0.05 0.18 -0.002 0 -0.007
C6E 0.092 0.13 0.075 0.023 0.012 -0.008
C6K 0.075 0.092 0.13 -0.008 -0.023 -0.012
C7E 0.134 0.124 0.098 -0.014 0.028 -0.013
C7K 0.098 0.134 0.124 -0.013 0.014 -0.028
C8E 0.071 0.097 0.074 -0.03 -0.014 0.001
C8K 0.074 0.071 0.097 0.001 0.03 0.014
C9E 0.121 0.1 0.083 0.021 0.007 -0.03
C9K 0.083 0.121 0.1 -0.03 -0.021 -0.007
C10E 0.125 0.082 0.06 -0.002 0.01 -0.054
C10K 0.06 0.125 0.082 -0.054 0.002 -0.01
C11E 0.078 0.058 0.127 -0.044 -0.008 -0.015
C11K 0.127 0.078 0.058 -0.015 0.044 0.008
C12E 0.108 0.078 0.087 -0.037 -0.001 0.003
C12K 0.087 0.108 0.078 0.003 0.037 0.001
C13E 0.085 0.098 0.1 0.022 0.013 -0.035
C13K 0.1 0.085 0.098 -0.035 -0.022 -0.013
loop_
_geom_bond_atom_site_label_1
_geom_bond_atom_site_label_2
_geom_bond_site_symmetry_1
_geom_bond_site_symmetry_2
Ag1 N1 1_555 1_555
N1 C1 1_555 1_555
N2 H1 1_555 1_555
N3 Ag1 1_555 1_555
N4 C11 1_555 1_555
C1 H2 1_555 1_555
C2 C1 1_555 1_555
H3 C2 1_555 1_555
C3 C2 1_555 1_555
H4 C3 1_555 1_555
C4 C3 1_555 1_555
H5 C4 1_555 1_555
C5 N1 1_555 1_555
C6 N3 1_555 1_555
C7 C6 1_555 1_555
H6 C7 1_555 1_555
H7 C7 1_555 1_555
H8 C7 1_555 1_555
C8 C6 1_555 1_555
C9 C8 1_555 1_555
H9 C9 1_555 1_555
C10 C9 1_555 1_555
H10 C10 1_555 1_555
C11 C10 1_555 1_555
C12 C11 1_555 1_555
H11 C12 1_555 1_555
C13 C8 1_555 1_555
H12 C13 1_555 1_555
C14 Cl1 1_555 1_555
Cl2 C14 1_555 1_555
B1 B1N 1_555 1_555
C15 C16 1_555 1_555
C16 N5 1_555 1_555
N6 C17 1_555 1_555
C17 C18 1_555 1_555
Ag1E N1E 1_555 1_555
Ag1K N1K 1_555 1_555
N1E C1E 1_555 1_555
N1K C1K 1_555 1_555
N1N Ag1 1_555 1_555
N2E H1E 1_555 1_555
N2K H1K 1_555 1_555
N3E Ag1E 1_555 1_555
N3K Ag1K 1_555 1_555
N3N Ag1 1_555 1_555
C1E H2E 1_555 1_555
C1K H2K 1_555 1_555
C2E C1E 1_555 1_555
C2K C1K 1_555 1_555
H3E C2E 1_555 1_555
H3K C2K 1_555 1_555
C3E C2E 1_555 1_555
C3K C2K 1_555 1_555
H4E C3E 1_555 1_555
H4K C3K 1_555 1_555
C4E C3E 1_555 1_555
C4K C3K 1_555 1_555
H5E C4E 1_555 1_555
H5K C4K 1_555 1_555
C5E N1E 1_555 1_555
C5K N1K 1_555 1_555
C6E N3E 1_555 1_555
C6K N3K 1_555 1_555
C7E C6E 1_555 1_555
C7K C6K 1_555 1_555
H6E C7E 1_555 1_555
H6K C7K 1_555 1_555
H7E C7E 1_555 1_555
H7K C7K 1_555 1_555
H8E C7E 1_555 1_555
H8K C7K 1_555 1_555
C8E C6E 1_555 1_555
C8K C6K 1_555 1_555
C9E C8E 1_555 1_555
C9K C8K 1_555 1_555
H9E C9E 1_555 1_555
H9K C9K 1_555 1_555
C10E C9E 1_555 1_555
C10K C9K 1_555 1_555
H10E C10E 1_555 1_555
H10K C10K 1_555 1_555
C11E N4 1_555 1_555
C11K N4 1_555 1_555
C12E C11E 1_555 1_555
C12K C11K 1_555 1_555
H11E C12E 1_555 1_555
H11K C12K 1_555 1_555
C13E C8E 1_555 1_555
C13K C8K 1_555 1_555
H12E C13E 1_555 1_555
H12K C13K 1_555 1_555
Cl2D C14 1_555 1_555
Cl2H C14 1_555 1_555
N2 N3 1_555 1_555
N2 C5 1_555 1_555
C4 C5 1_555 1_555
C12 C13 1_555 1_555
N2E N3E 1_555 1_555
N2E C5E 1_555 1_555
N2K N3K 1_555 1_555
N2K C5K 1_555 1_555
C4E C5E 1_555 1_555
C4K C5K 1_555 1_555
C10E C11E 1_555 1_555
C10K C11K 1_555 1_555
C12E C13E 1_555 1_555
C12K C13K 1_555 1_555

#END
