
#######################################################################
#
#                 Cambridge Crystallographic Data Centre
#                                CCDC 
#
#######################################################################
#
# If this CIF has been generated from an entry in the Cambridge 
# Structural Database, then it will include bibliographic, chemical, 
# crystal, experimental, refinement or atomic coordinate data resulting 
# from the CCDC's data processing and validation procedures.
#
#######################################################################

data_ADAVIM
_chemical_formula_moiety         'C52 H46 Ag1 B2 Cl4 F6 N9 O4'
_symmetry_cell_setting           cubic
_symmetry_space_group_name_H-M   'I 21 3'
_symmetry_Int_Tables_number      199
_space_group_name_Hall           'I 2b 2c 3'
loop_
_symmetry_equiv_pos_site_id
_symmetry_equiv_pos_as_xyz
1 x,y,z
2 1/2-x,-y,1/2+z
3 -x,1/2+y,1/2-z
4 1/2+x,1/2-y,-z
5 z,x,y
6 1/2+z,1/2-x,-y
7 1/2-z,-x,1/2+y
8 -z,1/2+x,1/2-y
9 y,z,x
10 -y,1/2+z,1/2-x
11 1/2+y,1/2-z,-x
12 1/2-y,-z,1/2+x
13 1/2+x,1/2+y,1/2+z
14 -x,1/2-y,z
15 1/2-x,y,-z
16 x,-y,1/2-z
17 1/2+z,1/2+x,1/2+y
18 z,-x,1/2-y
19 -z,1/2-x,y
20 1/2-z,x,-y
21 1/2+y,1/2+z,1/2+x
22 1/2-y,z,-x
23 y,-z,1/2-x
24 -y,1/2-z,x
_cell_length_a                   25.5824(6)
_cell_length_b                   25.5824(6)
_cell_length_c                   25.5824(6)
_cell_angle_alpha                90
_cell_angle_beta                 90
_cell_angle_gamma                90
_cell_volume                     16742.6
loop_
_atom_site_label
_atom_site_type_symbol
_atom_site_fract_x
_atom_site_fract_y
_atom_site_fract_z
_atom_site_U_iso_or_equiv
_atom_site_thermal_displace_type
Cl1 Cl 0.22050(18) 0.27950(18) 0.72050(18) 0.2730 Uani
Cl2 Cl 0.1903(3) 0.3781(3) 0.7040(2) 0.2143 Uani
C14 C 0.1829(2) 0.3171(2) 0.6829(2) 0.1820 Uani
B1 B 0.2054(4) 0.4866(4) 0.7358(4) 0.1500 Uani
F1 F 0.1726(4) 0.4439(5) 0.7286(5) 0.2033 Uani
F2 F 0.2500(4) 0.4564(4) 0.7409(4) 0.1543 Uani
Cl2K Cl 0.1219(3) 0.2960(2) 0.6903(3) 0.2143 Uani
Cl2E Cl 0.2040(2) 0.3097(3) 0.6219(3) 0.2143 Uani
B1O B 0.2054(4) 0.5134(4) 0.7642(4) 0.1500 Uani
F1K F 0.0561(5) 0.2714(5) 0.6726(4) 0.2033 Uani
F1E F 0.2286(5) 0.3274(4) 0.5561(5) 0.2033 Uani
F1O F 0.1726(4) 0.5561(5) 0.7714(5) 0.2033 Uani
F2O F 0.2500(4) 0.5436(4) 0.7591(4) 0.1543 Uani
O1 O 0.5861(6) 0.6551(7) 0.8267(7) 0.1460 Uiso
O2 O 0.6490(5) 0.6438(7) 0.8928(7) 0.1800 Uiso
N5 N 0.5337(4) 0.5780(7) 0.8724(8) 0.1800 Uiso
C15 C 0.4222(6) 0.5146(7) 0.8744(8) 0.1610 Uiso
H12 H 0.4317 0.5156 0.9107 0.1930 Uiso
C16 C 0.3748(6) 0.4916(8) 0.8611(9) 0.1740 Uiso
H13 H 0.3531 0.4766 0.8878 0.2090 Uiso
C17 C 0.3588(7) 0.4903(9) 0.8092(9) 0.1660 Uiso
H14 H 0.3261 0.4745 0.8000 0.1990 Uiso
C18 C 0.3903(8) 0.5121(10) 0.7706(8) 0.1690 Uiso
C19 C 0.4377(8) 0.5350(9) 0.7839(8) 0.1760 Uiso
H16 H 0.4594 0.5500 0.7572 0.2110 Uiso
C20 C 0.4537(6) 0.5363(8) 0.8358(9) 0.1760 Uiso
C21 C 0.5075(6) 0.5452(9) 0.8444(11) 0.1670 Uiso
H17 H 0.5296 0.5238 0.8229 0.2010 Uiso
C22 C 0.5866(5) 0.5717(5) 0.8532(13) 0.1820 Uiso
H18 H 0.5862 0.5589 0.8175 0.2180 Uiso
H19 H 0.6056 0.5470 0.8748 0.2180 Uiso
C23 C 0.6112(6) 0.6233(5) 0.8556(8) 0.1770 Uiso
C24 C 0.6836(8) 0.6911(8) 0.8870(10) 0.0630 Uiso
H20 H 0.7074 0.6928 0.9159 0.0940 Uiso
H21 H 0.6624 0.7221 0.8864 0.0940 Uiso
H22 H 0.7029 0.6886 0.8549 0.0940 Uiso
C17O C 0.3588(7) 0.5097(9) 0.6908(9) 0.1660 Uiso
H14O H 0.3261 0.5255 0.7000 0.1990 Uiso
C18O C 0.3903(8) 0.4879(10) 0.7294(8) 0.1690 Uiso
C19O C 0.4377(8) 0.4650(9) 0.7161(8) 0.1760 Uiso
H16O H 0.4594 0.4500 0.7428 0.2110 Uiso
O5 O 0.5245(8) 0.5245(8) 0.5245(8) 0.2250 Uiso
O6 O 0.5911(16) 0.5129(18) 0.7096(17) 0.2230 Uiso
Ag1 Ag 0.7500 -0.10679(4) 0.5000 0.0999 Uani
N1 N 0.8027(3) -0.1371(3) 0.5596(3) 0.1047 Uani
N2 N 0.7810(3) -0.0620(3) 0.6092(3) 0.1007 Uani
N3 N 0.7453(3) -0.0476(3) 0.5711(3) 0.0873 Uani
N4 N 0.5605(3) 0.0605(3) 0.4395(3) 0.1270 Uani
C1 C 0.8242(5) -0.1856(4) 0.5639(4) 0.1233 Uani
H1 H 0.8179 -0.2083 0.5361 0.1480 Uiso
C2 C 0.8519(6) -0.2038(5) 0.6011(4) 0.1707 Uani
H2 H 0.8697 -0.2354 0.5983 0.2050 Uiso
C3 C 0.8539(5) -0.1748(5) 0.6443(6) 0.1567 Uani
H3 H 0.8703 -0.1889 0.6735 0.1880 Uiso
C4 C 0.8337(4) -0.1267(5) 0.6487(4) 0.1247 Uani
H4 H 0.8370 -0.1066 0.6789 0.1500 Uiso
C5 C 0.8063(3) -0.1085(4) 0.6026(4) 0.0880 Uani
C6 C 0.7283(3) 0.0012(4) 0.5723(3) 0.0850 Uani
C7 C 0.7507(4) 0.0411(4) 0.6094(4) 0.1247 Uani
H5 H 0.7787 0.0256 0.6290 0.1870 Uiso
H6 H 0.7239 0.0527 0.6329 0.1870 Uiso
H7 H 0.7638 0.0703 0.5899 0.1870 Uiso
C8 C 0.6868(3) 0.0173(3) 0.5404(3) 0.0710 Uani
C9 C 0.6774(4) 0.0706(4) 0.5213(4) 0.1137 Uani
H8 H 0.7004 0.0970 0.5312 0.1360 Uiso
C10 C 0.6360(3) 0.0833(4) 0.4892(4) 0.0907 Uani
H9 H 0.6295 0.1178 0.4799 0.1090 Uiso
C11 C 0.6068(4) 0.0467(5) 0.4727(3) 0.0943 Uani
C12 C 0.6075(4) -0.0099(4) 0.4834(3) 0.0903 Uani
H10 H 0.5839 -0.0341 0.4701 0.1090 Uiso
C13 C 0.6494(4) -0.0214(4) 0.5166(3) 0.0993 Uani
H11 H 0.6546 -0.0564 0.5248 0.1190 Uiso
N1N N 0.6973(3) -0.1371(3) 0.4404(3) 0.1047 Uani
N2N N 0.7190(3) -0.0620(3) 0.3908(3) 0.1007 Uani
N3N N 0.7547(3) -0.0476(3) 0.4289(3) 0.0873 Uani
N4N N 0.9395(3) 0.0605(3) 0.5605(3) 0.1270 Uani
C1N C 0.6758(5) -0.1856(4) 0.4361(4) 0.1233 Uani
H1N H 0.6821 -0.2083 0.4639 0.1480 Uiso
C2N C 0.6481(6) -0.2038(5) 0.3989(4) 0.1707 Uani
H2N H 0.6303 -0.2354 0.4017 0.2050 Uiso
C3N C 0.6461(5) -0.1748(5) 0.3557(6) 0.1567 Uani
H3N H 0.6297 -0.1889 0.3265 0.1880 Uiso
C4N C 0.6663(4) -0.1267(5) 0.3513(4) 0.1247 Uani
H4N H 0.6630 -0.1066 0.3211 0.1500 Uiso
C5N C 0.6937(3) -0.1085(4) 0.3974(4) 0.0880 Uani
C6N C 0.7717(3) 0.0012(4) 0.4277(3) 0.0850 Uani
C7N C 0.7493(4) 0.0411(4) 0.3906(4) 0.1247 Uani
H5N H 0.7213 0.0256 0.3710 0.1870 Uiso
H6N H 0.7761 0.0527 0.3671 0.1870 Uiso
H7N H 0.7362 0.0703 0.4101 0.1870 Uiso
C8N C 0.8132(3) 0.0173(3) 0.4596(3) 0.0710 Uani
C9N C 0.8226(4) 0.0706(4) 0.4787(4) 0.1137 Uani
H8N H 0.7996 0.0970 0.4688 0.1360 Uiso
C10N C 0.8640(3) 0.0833(4) 0.5108(4) 0.0907 Uani
C10G C 0.5108(4) 0.1360(3) 0.4167(4) 0.0907 Uani
C10J C 0.5833(4) 0.0108(4) 0.3640(3) 0.0907 Uani
C10P C 0.9892(4) 0.1360(3) 0.5833(4) 0.0907 Uani
C10W C 0.9167(4) 0.0108(4) 0.6360(3) 0.0907 Uani
H9N H 0.8705 0.1178 0.5201 0.1090 Uiso
H9G H 0.5201 0.1295 0.3822 0.1090 Uiso
H9J H 0.6178 0.0201 0.3705 0.1090 Uiso
H9P H 0.9799 0.1295 0.6178 0.1090 Uiso
H9W H 0.8822 0.0201 0.6295 0.1090 Uiso
C11G C 0.5273(3) 0.1068(4) 0.4533(5) 0.0943 Uani
C11J C 0.5467(5) 0.0273(3) 0.3932(4) 0.0943 Uani
C11N C 0.8932(4) 0.0467(5) 0.5273(3) 0.0943 Uani
C11P C 0.9727(3) 0.1068(4) 0.5467(5) 0.0943 Uani
C11W C 0.9533(5) 0.0273(3) 0.6068(4) 0.0943 Uani
C12N C 0.8925(4) -0.0099(4) 0.5166(3) 0.0903 Uani
C12G C 0.5166(3) 0.1075(4) 0.5099(4) 0.0903 Uani
C12J C 0.4901(4) 0.0166(3) 0.3925(4) 0.0903 Uani
C12P C 0.9834(3) 0.1075(4) 0.4901(4) 0.0903 Uani
C12W C 1.0099(4) 0.0166(3) 0.6075(4) 0.0903 Uani
H10N H 0.9161 -0.0341 0.5299 0.1090 Uiso
H10G H 0.5299 0.0839 0.5341 0.1090 Uiso
H10J H 0.4659 0.0299 0.4161 0.1090 Uiso
H10P H 0.9701 0.0839 0.4659 0.1090 Uiso
H10W H 1.0341 0.0299 0.5839 0.1090 Uiso
C13N C 0.8506(4) -0.0214(4) 0.4834(3) 0.0993 Uani
H11N H 0.8454 -0.0564 0.4752 0.1190 Uiso
loop_
_atom_site_aniso_label
_atom_site_aniso_U_11
_atom_site_aniso_U_22
_atom_site_aniso_U_33
_atom_site_aniso_U_23
_atom_site_aniso_U_13
_atom_site_aniso_U_12
Cl1 0.273(4) 0.273(4) 0.273(4) -0.002(4) 0.002(4) -0.002(4)
Cl2 0.258 0.223 0.162 0.012 0.046 -0.049
C14 0.182(8) 0.182(8) 0.182(8) -0.019(8) 0.019(8) -0.019(8)
B1 0.203 0.134 0.113 0.024 -0.022 0.004
F1 0.25 0.189 0.171 0.031 -0.02 0.058
F2 0.194 0.146 0.123 0.027 -0.025 0.008
Cl2K 0.223 0.162 0.258 -0.046 0.049 0.012
Cl2E 0.162(5) 0.258(6) 0.223(6) -0.049(5) -0.012(5) -0.046(5)
B1O 0.203 0.134 0.113 0.024 0.022 -0.004
F1K 0.189 0.171 0.25 0.02 -0.058 0.031
F1E 0.171(10) 0.250(10) 0.189(10) 0.058(9) -0.031(9) 0.020(9)
F1O 0.25 0.189 0.171 0.031 0.02 -0.058
F2O 0.194 0.146 0.123 0.027 0.025 -0.008
Ag1 0.1374 0.0864 0.076 0 -0.0161 0
N1 0.133 0.123 0.058 -0.023 -0.019 -0.01
N2 0.139 0.092 0.071 0 -0.032 0.021
N3 0.098 0.089 0.075 0.002 -0.026 0.032
N4 0.127(5) 0.127(5) 0.127(5) 0.031(6) 0.031(6) -0.031(6)
C1 0.186 0.067 0.117 0.014 -0.027 0.029
C2 0.277 0.16 0.075 -0.072 -0.062 0.101
C3 0.162 0.125 0.183 0.077 0.012 0.086
C4 0.127 0.132 0.115 0.027 0.005 -0.012
C5 0.09 0.08 0.094 0.042 -0.027 0.037
C6 0.074 0.116 0.065 -0.021 -0.027 0.015
C7 0.13 0.109 0.135 -0.028 -0.031 0.019
C8 0.076 0.057 0.08 0.005 -0.007 -0.001
C9 0.112 0.074 0.155 0.017 -0.003 -0.015
C10 0.068 0.093 0.111 0.018 -0.044 0
C11 0.075 0.158 0.05 0.006 -0.033 0.042
C12 0.09 0.094 0.087 0.001 -0.022 0.036
C13 0.128 0.076 0.094 -0.01 0.004 0.009
N1N 0.133 0.123 0.058 0.023 -0.019 0.01
N2N 0.139 0.092 0.071 0 -0.032 -0.021
N3N 0.098 0.089 0.075 -0.002 -0.026 -0.032
N4N 0.127 0.127 0.127 -0.031 0.031 0.031
C1N 0.186 0.067 0.117 -0.014 -0.027 -0.029
C2N 0.277 0.16 0.075 0.072 -0.062 -0.101
C3N 0.162 0.125 0.183 -0.077 0.012 -0.086
C4N 0.127 0.132 0.115 -0.027 0.005 0.012
C5N 0.09 0.08 0.094 -0.042 -0.027 -0.037
C6N 0.074 0.116 0.065 0.021 -0.027 -0.015
C7N 0.13 0.109 0.135 0.028 -0.031 -0.019
C8N 0.076 0.057 0.08 -0.005 -0.007 0.001
C9N 0.112 0.074 0.155 -0.017 -0.003 0.015
C10N 0.068 0.093 0.111 -0.018 -0.044 0
C10G 0.111(8) 0.068(6) 0.093(8) 0.000(6) 0.018(6) 0.044(6)
C10J 0.093 0.111 0.068 -0.044 0 -0.018
C10P 0.111 0.068 0.093 0 0.018 -0.044
C10W 0.093 0.111 0.068 0.044 0 0.018
C11G 0.050(5) 0.075(7) 0.158(10) -0.042(7) 0.006(6) 0.033(5)
C11J 0.158 0.05 0.075 -0.033 -0.042 -0.006
C11N 0.075 0.158 0.05 -0.006 -0.033 -0.042
C11P 0.05 0.075 0.158 0.042 0.006 -0.033
C11W 0.158 0.05 0.075 0.033 -0.042 0.006
C12N 0.09 0.094 0.087 -0.001 -0.022 -0.036
C12G 0.087(6) 0.090(5) 0.094(6) -0.036(5) 0.001(5) 0.022(5)
C12J 0.094 0.087 0.09 -0.022 -0.036 -0.001
C12P 0.087 0.09 0.094 0.036 0.001 -0.022
C12W 0.094 0.087 0.09 0.022 -0.036 0.001
C13N 0.128 0.076 0.094 0.01 0.004 -0.009
loop_
_geom_bond_atom_site_label_1
_geom_bond_atom_site_label_2
_geom_bond_site_symmetry_1
_geom_bond_site_symmetry_2
Ag1 N1 1_555 1_555
N1 C1 1_555 1_555
N2 N3 1_555 1_555
N3 Ag1 1_555 1_555
N4 C11 1_555 1_555
C1 H1 1_555 1_555
C2 C1 1_555 1_555
H2 C2 1_555 1_555
C3 C2 1_555 1_555
H3 C3 1_555 1_555
C4 C3 1_555 1_555
H4 C4 1_555 1_555
C5 N1 1_555 1_555
C6 N3 1_555 1_555
C7 C6 1_555 1_555
H5 C7 1_555 1_555
H6 C7 1_555 1_555
H7 C7 1_555 1_555
C8 C6 1_555 1_555
C9 C8 1_555 1_555
H8 C9 1_555 1_555
C10 C9 1_555 1_555
H9 C10 1_555 1_555
C11 C10 1_555 1_555
C12 C11 1_555 1_555
H10 C12 1_555 1_555
C13 C8 1_555 1_555
H11 C13 1_555 1_555
Cl1 C14 1_555 1_555
Cl2 C14 1_555 1_555
C14 Cl2K 1_555 1_555
B1 F1 1_555 1_555
F1 Cl2 1_555 1_555
F2 B1 1_555 1_555
O1 C23 1_555 1_555
O2 C23 1_555 1_555
N5 C21 1_555 1_555
C15 H12 1_555 1_555
C16 C15 1_555 1_555
H13 C16 1_555 1_555
C17 C16 1_555 1_555
H14 C17 1_555 1_555
C18 C17 1_555 1_555
C19 C18 1_555 1_555
H16 C19 1_555 1_555
C20 C15 1_555 1_555
C21 C20 1_555 1_555
H17 C21 1_555 1_555
C22 N5 1_555 1_555
H18 C22 1_555 1_555
H19 C22 1_555 1_555
C23 C22 1_555 1_555
C24 O2 1_555 1_555
H20 C24 1_555 1_555
H21 C24 1_555 1_555
H22 C24 1_555 1_555
N1N Ag1 1_555 1_555
N2N N3N 1_555 1_555
N3N Ag1 1_555 1_555
N4N C11N 1_555 1_555
C1N N1N 1_555 1_555
H1N C1N 1_555 1_555
C2N C1N 1_555 1_555
H2N C2N 1_555 1_555
C3N C2N 1_555 1_555
H3N C3N 1_555 1_555
C4N C3N 1_555 1_555
H4N C4N 1_555 1_555
C5N N1N 1_555 1_555
C6N N3N 1_555 1_555
C7N C6N 1_555 1_555
H5N C7N 1_555 1_555
H6N C7N 1_555 1_555
H7N C7N 1_555 1_555
C8N C6N 1_555 1_555
C9N C8N 1_555 1_555
H8N C9N 1_555 1_555
C10N C9N 1_555 1_555
C10G H9G 1_555 1_555
C10J H9J 1_555 1_555
C10P H9P 1_555 1_555
C10W H9W 1_555 1_555
H9N C10N 1_555 1_555
C11G N4 1_555 1_555
C11J N4 1_555 1_555
C11N C10N 1_555 1_555
C11P N4N 1_555 1_555
C11W N4N 1_555 1_555
C12N C11N 1_555 1_555
C12G C11G 1_555 1_555
C12J C11J 1_555 1_555
C12P C11P 1_555 1_555
C12W C11W 1_555 1_555
H10N C12N 1_555 1_555
H10G C12G 1_555 1_555
H10J C12J 1_555 1_555
H10P C12P 1_555 1_555
H10W C12W 1_555 1_555
C13N C8N 1_555 1_555
H11N C13N 1_555 1_555
Cl2K F1K 1_555 1_555
Cl2E C14 1_555 1_555
B1O B1 1_555 1_555
F1E Cl2E 1_555 1_555
F1O B1O 1_555 1_555
F2O B1O 1_555 1_555
C17O H14O 1_555 1_555
C18O C18 1_555 1_555
C19O C18O 1_555 1_555
H16O C19O 1_555 1_555
N2 C5 1_555 1_555
C4 C5 1_555 1_555
C12 C13 1_555 1_555
C19 C20 1_555 1_555
N2N C5N 1_555 1_555
C4N C5N 1_555 1_555
C10G C11G 1_555 1_555
C10J C11J 1_555 1_555
C10P C11P 1_555 1_555
C10W C11W 1_555 1_555
C12N C13N 1_555 1_555
C17O C18O 1_555 1_555

#END
