
#######################################################################
#
#                 Cambridge Crystallographic Data Centre
#                                CCDC 
#
#######################################################################
#
# If this CIF has been generated from an entry in the Cambridge 
# Structural Database, then it will include bibliographic, chemical, 
# crystal, experimental, refinement or atomic coordinate data resulting 
# from the CCDC's data processing and validation procedures.
#
#######################################################################

data_ADAVAE
_chemical_formula_moiety         '(C43 H38 Ag1 B2 F6 N11 O3 1+)n'
_symmetry_cell_setting           cubic
_symmetry_space_group_name_H-M   'I 21 3'
_symmetry_Int_Tables_number      199
_space_group_name_Hall           'I 2b 2c 3'
loop_
_symmetry_equiv_pos_site_id
_symmetry_equiv_pos_as_xyz
1 x,y,z
2 1/2-x,-y,1/2+z
3 -x,1/2+y,1/2-z
4 1/2+x,1/2-y,-z
5 z,x,y
6 1/2+z,1/2-x,-y
7 1/2-z,-x,1/2+y
8 -z,1/2+x,1/2-y
9 y,z,x
10 -y,1/2+z,1/2-x
11 1/2+y,1/2-z,-x
12 1/2-y,-z,1/2+x
13 1/2+x,1/2+y,1/2+z
14 -x,1/2-y,z
15 1/2-x,y,-z
16 x,-y,1/2-z
17 1/2+z,1/2+x,1/2+y
18 z,-x,1/2-y
19 -z,1/2-x,y
20 1/2-z,x,-y
21 1/2+y,1/2+z,1/2+x
22 1/2-y,z,-x
23 y,-z,1/2-x
24 -y,1/2-z,x
_cell_length_a                   25.381(4)
_cell_length_b                   25.381(4)
_cell_length_c                   25.381(4)
_cell_angle_alpha                90
_cell_angle_beta                 90
_cell_angle_gamma                90
_cell_volume                     16350.3
loop_
_atom_site_label
_atom_site_type_symbol
_atom_site_fract_x
_atom_site_fract_y
_atom_site_fract_z
_atom_site_U_iso_or_equiv
_atom_site_thermal_displace_type
B1 B 0.20298(17) 1.02750(19) 0.23951(18) 0.1593 Uani
F1 F 0.2052(2) 1.0154(4) 0.2907(2) 0.1760 Uani
F2 F 0.2438(5) 1.0604(3) 0.2301(4) 0.1450 Uani
F3 F 0.1591(5) 1.0547(3) 0.2260(5) 0.1733 Uani
B1O B 0.20298(17) 0.97250(19) 0.26049(18) 0.1593 Uani
F1O F 0.2052(2) 0.9846(4) 0.2093(2) 0.1760 Uani
F2O F 0.2438(5) 0.9396(3) 0.2699(4) 0.1450 Uani
F3O F 0.1591(5) 0.9453(3) 0.2740(5) 0.1733 Uani
N5 N 0.4759(5) 0.8710(6) -0.0709(5) 0.1820 Uiso
C15 C 0.4643(9) 0.8486(8) -0.0329(5) 0.2970 Uiso
C16 C 0.4400(8) 0.8440(10) 0.0190(5) 0.2870 Uiso
O3 O 0.5254(6) 0.8055(6) -0.1414(8) 0.1960 Uiso
C18 C 0.5249(11) 0.8426(10) -0.0952(18) 0.2700 Uiso
C17 C 0.4080(5) 0.6615(9) 0.3375(7) 0.2850 Uiso
O1 O 0.3506(6) 0.6676(14) 0.3505(15) 0.2880 Uiso
O5 O 0.340(3) 0.549(2) 0.4100(12) 0.1900 Uiso
Ag1 Ag 0.61225(3) 1.0000 -0.2500 0.1423 Uani
N1 N 0.6378(2) 0.9370(2) -0.3036(2) 0.1397 Uani
N2 N 0.56230(19) 0.8920(2) -0.2836(2) 0.1233 Uani
H1 H 0.5395 0.8680 -0.2909 0.1480 Uiso
N3 N 0.5505(2) 0.92810(19) -0.2475(2) 0.1243 Uani
N4 N 0.4435(3) 1.0565(3) -0.0565(3) 0.1680 Uani
C1 C 0.6846(3) 0.9379(3) -0.3259(4) 0.1797 Uani
H2 H 0.7053 0.9677 -0.3215 0.2150 Uiso
C2 C 0.7053(3) 0.8954(4) -0.3565(4) 0.1960 Uani
H3 H 0.7371 0.8983 -0.3744 0.2350 Uiso
C3 C 0.6758(3) 0.8502(3) -0.3579(4) 0.1713 Uani
H4 H 0.6890 0.8203 -0.3744 0.2060 Uiso
C4 C 0.6272(3) 0.8492(3) -0.3351(3) 0.1513 Uani
H5 H 0.6071 0.8188 -0.3380 0.1820 Uiso
C5 C 0.6068(3) 0.8918(3) -0.3079(3) 0.1340 Uani
C6 C 0.5026(3) 0.9264(3) -0.2308(3) 0.1323 Uani
C7 C 0.4601(3) 0.8920(3) -0.2535(3) 0.1580 Uani
H6 H 0.4747 0.8703 -0.2809 0.2370 Uiso
H7 H 0.4326 0.9137 -0.2679 0.2370 Uiso
H8 H 0.4458 0.8700 -0.2263 0.2370 Uiso
C8 C 0.4875(2) 0.9600(3) -0.1855(3) 0.1277 Uani
C9 C 0.4356(3) 0.9773(3) -0.1774(3) 0.1560 Uani
H9 H 0.4100 0.9674 -0.2016 0.1870 Uiso
C10 C 0.4202(3) 1.0087(3) -0.1348(3) 0.1507 Uani
H10 H 0.3851 1.0169 -0.1287 0.1810 Uiso
C11 C 0.4573(4) 1.0258(3) -0.1043(3) 0.1593 Uani
C12 C 0.5105(3) 1.0131(3) -0.1110(3) 0.1420 Uani
H11 H 0.5362 1.0258 -0.0882 0.1700 Uiso
C13 C 0.5231(3) 0.9818(3) -0.1518(3) 0.1540 Uani
H12 H 0.5586 0.9746 -0.1575 0.1850 Uiso
Ag1E Ag 0.2500 0.88775(3) 0.0000 0.1423 Uani
Ag1K Ag 0.5000 1.2500 0.11225(3) 0.1423 Uani
N1E N 0.1964(2) 0.8622(2) 0.0630(2) 0.1397 Uani
N1K N 0.5630(2) 1.3036(2) 0.1378(2) 0.1397 Uani
N1O N 0.6378(2) 1.0630(2) -0.1964(2) 0.1397 Uani
N2E N 0.2164(2) 0.93770(19) 0.1080(2) 0.1233 Uani
N2K N 0.6080(2) 1.2836(2) 0.06230(19) 0.1233 Uani
H1E H 0.2091 0.9605 0.1320 0.1480 Uiso
H1K H 0.6320 1.2909 0.0395 0.1480 Uiso
N3E N 0.2525(2) 0.9495(2) 0.07190(19) 0.1243 Uani
N3K N 0.57190(19) 1.2475(2) 0.0505(2) 0.1243 Uani
N3O N 0.5505(2) 1.07190(19) -0.2525(2) 0.1243 Uani
C1E C 0.1741(4) 0.8154(3) 0.0621(3) 0.1797 Uani
C1K C 0.5621(3) 1.3259(4) 0.1846(3) 0.1797 Uani
H2E H 0.1785 0.7947 0.0323 0.2150 Uiso
H2K H 0.5323 1.3215 0.2053 0.2150 Uiso
C2E C 0.1435(4) 0.7947(3) 0.1046(4) 0.1960 Uani
C2K C 0.6046(4) 1.3565(4) 0.2053(3) 0.1960 Uani
H3E H 0.1256 0.7629 0.1017 0.2350 Uiso
H3K H 0.6017 1.3744 0.2371 0.2350 Uiso
C3E C 0.1421(4) 0.8242(3) 0.1498(3) 0.1713 Uani
C3K C 0.6498(3) 1.3579(4) 0.1758(3) 0.1713 Uani
H4E H 0.1256 0.8110 0.1797 0.2060 Uiso
H4K H 0.6797 1.3744 0.1890 0.2060 Uiso
C4E C 0.1649(3) 0.8728(3) 0.1508(3) 0.1513 Uani
C4K C 0.6508(3) 1.3351(3) 0.1272(3) 0.1513 Uani
H5E H 0.1620 0.8929 0.1812 0.1820 Uiso
H5K H 0.6812 1.3380 0.1071 0.1820 Uiso
C5E C 0.1921(3) 0.8932(3) 0.1082(3) 0.1340 Uani
C5K C 0.6082(3) 1.3079(3) 0.1068(3) 0.1340 Uani
C6E C 0.2692(3) 0.9974(3) 0.0736(3) 0.1323 Uani
C6K C 0.5736(3) 1.2308(3) 0.0026(3) 0.1323 Uani
C7E C 0.2465(3) 1.0399(3) 0.1080(3) 0.1580 Uani
C7K C 0.6080(3) 1.2535(3) -0.0399(3) 0.1580 Uani
H6E H 0.2191 1.0253 0.1297 0.2370 Uiso
H6K H 0.6297 1.2809 -0.0253 0.2370 Uiso
H7E H 0.2321 1.0674 0.0863 0.2370 Uiso
H7K H 0.5863 1.2679 -0.0674 0.2370 Uiso
H8E H 0.2737 1.0542 0.1300 0.2370 Uiso
H8K H 0.6300 1.2263 -0.0542 0.2370 Uiso
C8E C 0.3145(3) 1.0125(2) 0.0400(3) 0.1277 Uani
C8K C 0.5400(3) 1.1855(3) -0.0125(2) 0.1277 Uani
C9E C 0.3226(3) 1.0644(3) 0.0227(3) 0.1560 Uani
C9K C 0.5227(3) 1.1774(3) -0.0644(3) 0.1560 Uani
H9E H 0.2984 1.0900 0.0326 0.1870 Uiso
H9K H 0.5326 1.2016 -0.0900 0.1870 Uiso
C10E C 0.3652(3) 1.0798(3) -0.0087(3) 0.1507 Uani
C10K C 0.4913(3) 1.1348(3) -0.0798(3) 0.1507 Uani
H10E H 0.3713 1.1149 -0.0169 0.1810 Uiso
H10K H 0.4831 1.1287 -0.1149 0.1810 Uiso
C11E C 0.3957(3) 1.0427(4) -0.0258(3) 0.1593 Uani
C11K C 0.4742(3) 1.1043(3) -0.0427(4) 0.1593 Uani
C12E C 0.3890(3) 0.9895(3) -0.0131(3) 0.1420 Uani
C12K C 0.4869(3) 1.1110(3) 0.0105(3) 0.1420 Uani
H11E H 0.4118 0.9638 -0.0258 0.1700 Uiso
H11K H 0.4742 1.0882 0.0362 0.1700 Uiso
C13E C 0.3482(3) 0.9769(3) 0.0182(3) 0.1540 Uani
C13K C 0.5182(3) 1.1518(3) 0.0231(3) 0.1540 Uani
H12E H 0.3425 0.9414 0.0254 0.1850 Uiso
H12K H 0.5254 1.1575 0.0586 0.1850 Uiso
loop_
_atom_site_aniso_label
_atom_site_aniso_U_11
_atom_site_aniso_U_22
_atom_site_aniso_U_33
_atom_site_aniso_U_23
_atom_site_aniso_U_13
_atom_site_aniso_U_12
B1 0.144(8) 0.180(9) 0.154(9) 0.003(9) -0.009(8) 0.020(8)
F1 0.188(7) 0.181(7) 0.159(6) 0.015(6) -0.034(6) 0.030(6)
F2 0.127(9) 0.130(8) 0.178(10) -0.007(8) 0.015(8) -0.022(8)
F3 0.159(10) 0.191(10) 0.170(10) 0.035(9) -0.025(9) -0.048(9)
B1O 0.144 0.18 0.154 0.003 0.009 -0.02
F1O 0.188 0.181 0.159 0.015 0.034 -0.03
F2O 0.127 0.13 0.178 -0.007 -0.015 0.022
F3O 0.159 0.191 0.17 0.035 0.025 0.048
Ag1 0.1038 0.1541 0.1691 -0.0416 0 0
N1 0.107 0.161 0.151 -0.019 0.04 0.022
N2 0.088 0.161 0.121 -0.046 0.018 0.004
N3 0.089 0.151 0.133 -0.04 0.023 -0.001
N4 0.168(4) 0.168(4) 0.168(4) -0.052(5) 0.052(5) -0.052(5)
C1 0.171 0.175 0.193 -0.018 0.008 0.009
C2 0.187 0.194 0.207 -0.028 0.036 0.007
C3 0.164 0.162 0.188 -0.013 0.013 0.009
C4 0.132 0.175 0.147 0.009 0.031 0.039
C5 0.125 0.117 0.16 -0.035 0 0.013
C6 0.123 0.127 0.147 -0.064 0.01 -0.032
C7 0.137 0.172 0.165 -0.046 0.008 -0.012
C8 0.078 0.152 0.153 -0.049 0.007 -0.033
C9 0.093 0.201 0.174 -0.048 0.002 -0.056
C10 0.134 0.168 0.15 -0.101 0.027 -0.038
C11 0.197 0.148 0.133 -0.09 0.071 -0.045
C12 0.13 0.182 0.114 -0.053 0.05 -0.045
C13 0.105 0.19 0.167 -0.052 0.042 -0.026
Ag1E 0.1691(7) 0.1038(5) 0.1541(7) 0.000 0.0416(6) 0.000
Ag1K 0.1541 0.1691 0.1038 0 0 -0.0416
N1E 0.151(5) 0.107(4) 0.161(5) 0.022(4) 0.019(4) -0.040(4)
N1K 0.161 0.151 0.107 -0.04 -0.022 -0.019
N1O 0.107 0.161 0.151 -0.019 -0.04 -0.022
N2E 0.121(4) 0.088(3) 0.161(4) 0.004(3) 0.046(4) -0.018(3)
N2K 0.161 0.121 0.088 -0.018 -0.004 -0.046
N3E 0.133(4) 0.089(3) 0.151(4) -0.001(3) 0.040(4) -0.023(3)
N3K 0.151 0.133 0.089 -0.023 0.001 -0.04
N3O 0.089 0.151 0.133 -0.04 -0.023 0.001
C1E 0.193(6) 0.171(6) 0.175(6) 0.009(5) 0.018(5) -0.008(5)
C1K 0.175 0.193 0.171 -0.008 -0.009 -0.018
C2E 0.207(6) 0.187(6) 0.194(6) 0.007(5) 0.028(5) -0.036(5)
C2K 0.194 0.207 0.187 -0.036 -0.007 -0.028
C3E 0.188(6) 0.164(5) 0.162(5) 0.009(5) 0.013(5) -0.013(5)
C3K 0.162 0.188 0.164 -0.013 -0.009 -0.013
C4E 0.147(6) 0.132(6) 0.175(7) 0.039(6) -0.009(6) -0.031(5)
C4K 0.175 0.147 0.132 -0.031 -0.039 0.009
C5E 0.160(6) 0.125(6) 0.117(5) 0.013(5) 0.035(5) 0.000(5)
C5K 0.117 0.16 0.125 0 -0.013 -0.035
C6E 0.147(5) 0.123(5) 0.127(5) -0.032(5) 0.064(4) -0.010(5)
C6K 0.127 0.147 0.123 -0.01 0.032 -0.064
C7E 0.165(5) 0.137(4) 0.172(5) -0.012(4) 0.046(5) -0.008(4)
C7K 0.172 0.165 0.137 -0.008 0.012 -0.046
C8E 0.153(6) 0.078(4) 0.152(6) -0.033(4) 0.049(5) -0.007(4)
C8K 0.152 0.153 0.078 -0.007 0.033 -0.049
C9E 0.174(7) 0.093(5) 0.201(8) -0.056(5) 0.048(6) -0.002(5)
C9K 0.201 0.174 0.093 -0.002 0.056 -0.048
C10E 0.150(6) 0.134(5) 0.168(6) -0.038(5) 0.101(5) -0.027(5)
C10K 0.168 0.15 0.134 -0.027 0.038 -0.101
C11E 0.133(5) 0.197(8) 0.148(6) -0.045(5) 0.090(5) -0.071(6)
C11K 0.148 0.133 0.197 -0.071 0.045 -0.09
C12E 0.114(4) 0.130(5) 0.182(7) -0.045(5) 0.053(5) -0.050(5)
C12K 0.182 0.114 0.13 -0.05 0.045 -0.053
C13E 0.167(7) 0.105(5) 0.190(8) -0.026(5) 0.052(6) -0.042(5)
C13K 0.19 0.167 0.105 -0.042 0.026 -0.052
loop_
_geom_bond_atom_site_label_1
_geom_bond_atom_site_label_2
_geom_bond_site_symmetry_1
_geom_bond_site_symmetry_2
Ag1 N1 1_555 1_555
N1 C1 1_555 1_555
N2 H1 1_555 1_555
N3 Ag1 1_555 1_555
N4 C11 1_555 1_555
C1 H2 1_555 1_555
C2 C1 1_555 1_555
H3 C2 1_555 1_555
C3 C2 1_555 1_555
H4 C3 1_555 1_555
C4 C3 1_555 1_555
H5 C4 1_555 1_555
C5 N1 1_555 1_555
C6 N3 1_555 1_555
C7 C6 1_555 1_555
H6 C7 1_555 1_555
H7 C7 1_555 1_555
H8 C7 1_555 1_555
C8 C6 1_555 1_555
C9 C8 1_555 1_555
H9 C9 1_555 1_555
C10 C9 1_555 1_555
H10 C10 1_555 1_555
C11 C10 1_555 1_555
C12 C11 1_555 1_555
H11 C12 1_555 1_555
C13 C8 1_555 1_555
H12 C13 1_555 1_555
B1 F1 1_555 1_555
F1 B1O 1_555 1_555
F2 B1 1_555 1_555
F3 B1 1_555 1_555
N5 C15 1_555 1_555
C15 C16 1_555 1_555
C17 O1 1_555 1_555
O3 C18 1_555 1_555
C18 N5 1_555 1_555
Ag1E N1E 1_555 1_555
Ag1K N1K 1_555 1_555
N1E C1E 1_555 1_555
N1K C1K 1_555 1_555
N1O Ag1 1_555 1_555
N2E H1E 1_555 1_555
N2K H1K 1_555 1_555
N3E Ag1E 1_555 1_555
N3K Ag1K 1_555 1_555
N3O Ag1 1_555 1_555
C1E H2E 1_555 1_555
C1K H2K 1_555 1_555
C2E C1E 1_555 1_555
C2K C1K 1_555 1_555
H3E C2E 1_555 1_555
H3K C2K 1_555 1_555
C3E C2E 1_555 1_555
C3K C2K 1_555 1_555
H4E C3E 1_555 1_555
H4K C3K 1_555 1_555
C4E C3E 1_555 1_555
C4K C3K 1_555 1_555
H5E C4E 1_555 1_555
H5K C4K 1_555 1_555
C5E N1E 1_555 1_555
C5K N1K 1_555 1_555
C6E N3E 1_555 1_555
C6K N3K 1_555 1_555
C7E C6E 1_555 1_555
C7K C6K 1_555 1_555
H6E C7E 1_555 1_555
H6K C7K 1_555 1_555
H7E C7E 1_555 1_555
H7K C7K 1_555 1_555
H8E C7E 1_555 1_555
H8K C7K 1_555 1_555
C8E C6E 1_555 1_555
C8K C6K 1_555 1_555
C9E C8E 1_555 1_555
C9K C8K 1_555 1_555
H9E C9E 1_555 1_555
H9K C9K 1_555 1_555
C10E C9E 1_555 1_555
C10K C9K 1_555 1_555
H10E C10E 1_555 1_555
H10K C10K 1_555 1_555
C11E N4 1_555 1_555
C11K N4 1_555 1_555
C12E C11E 1_555 1_555
C12K C11K 1_555 1_555
H11E C12E 1_555 1_555
H11K C12K 1_555 1_555
C13E C8E 1_555 1_555
C13K C8K 1_555 1_555
H12E C13E 1_555 1_555
H12K C13K 1_555 1_555
B1O B1 1_555 1_555
F1O B1 1_555 1_555
F2O B1O 1_555 1_555
F3O B1O 1_555 1_555
N2 N3 1_555 1_555
N2 C5 1_555 1_555
C4 C5 1_555 1_555
C12 C13 1_555 1_555
N2E N3E 1_555 1_555
N2E C5E 1_555 1_555
N2K N3K 1_555 1_555
N2K C5K 1_555 1_555
C4E C5E 1_555 1_555
C4K C5K 1_555 1_555
C10E C11E 1_555 1_555
C10K C11K 1_555 1_555
C12E C13E 1_555 1_555
C12K C13K 1_555 1_555
B1O F1O 1_555 1_555

#END
