
#######################################################################
#
#                 Cambridge Crystallographic Data Centre
#                                CCDC 
#
#######################################################################
#
# If this CIF has been generated from an entry in the Cambridge 
# Structural Database, then it will include bibliographic, chemical, 
# crystal, experimental, refinement or atomic coordinate data resulting 
# from the CCDC's data processing and validation procedures.
#
#######################################################################

data_AWEZOS01
_chemical_formula_moiety         '(C168 H150 Cl4 Cu17 N60 O3 1+)n'
_symmetry_cell_setting           monoclinic
_symmetry_space_group_name_H-M   'C 2/c'
_symmetry_Int_Tables_number      15
_space_group_name_Hall           '-C 2yc'
loop_
_symmetry_equiv_pos_site_id
_symmetry_equiv_pos_as_xyz
1 x,y,z
2 -x,y,1/2-z
3 1/2+x,1/2+y,z
4 1/2-x,1/2+y,1/2-z
5 -x,-y,-z
6 x,-y,1/2+z
7 1/2-x,1/2-y,-z
8 1/2+x,1/2-y,1/2+z
_cell_length_a                   20.014(5)
_cell_length_b                   37.956(8)
_cell_length_c                   25.085(8)
_cell_angle_alpha                90
_cell_angle_beta                 109.384(3)
_cell_angle_gamma                90
_cell_volume                     17975.7
loop_
_atom_site_label
_atom_site_type_symbol
_atom_site_fract_x
_atom_site_fract_y
_atom_site_fract_z
Cu1 Cu 0.53862(2) 0.128255(10) 0.33194(2)
Cu2 Cu 0.5000 0.191945(16) 0.2500
Cu3 Cu 0.55307(2) -0.025427(10) 0.36771(2)
Cu4 Cu 1.09299(2) 0.254920(11) 0.496675(19)
Cu5 Cu 0.79501(2) 0.218248(11) 0.38115(2)
Cu6 Cu 1.00632(2) 0.328931(11) 0.43230(2)
Cu7 Cu 0.31689(2) 0.206060(12) 0.38772(2)
Cu8 Cu 1.15240(2) 0.331114(11) 0.41289(2)
Cu9 Cu 0.60894(2) 0.094610(11) 0.24641(2)
Cl1 Cl 1.12511(5) 0.31878(2) 0.50801(4)
N1 N 0.55001(15) 0.07761(7) 0.32769(13)
N2 N 0.55345(16) 0.01954(7) 0.33807(13)
N3 N 0.59168(15) 0.06401(7) 0.29842(13)
N4 N 1.27892(15) 0.20439(7) 0.58383(13)
N5 N 1.22380(15) 0.25430(8) 0.58884(13)
N6 N 1.18248(15) 0.23586(7) 0.54170(13)
N7 N 0.99476(15) 0.25470(7) 0.45230(13)
N8 N 0.95916(15) 0.28523(7) 0.42799(13)
N9 N 0.88139(15) 0.24166(7) 0.41097(13)
N10 N 0.53335(15) -0.12634(7) 0.41133(13)
N11 N 0.59498(16) -0.12770(7) 0.39766(14)
N12 N 0.56059(16) -0.07210(7) 0.39329(14)
N13 N 0.38571(15) 0.13065(7) 0.30241(13)
N14 N 0.44739(15) 0.14820(7) 0.33095(13)
N15 N 0.35883(16) 0.17458(7) 0.34934(13)
N16 N 0.70605(15) 0.19759(8) 0.35092(13)
N17 N 0.61407(15) 0.16187(7) 0.33571(13)
N18 N 0.59328(15) 0.19056(7) 0.29996(13)
N19 N 0.6758(2) 0.37594(11) 0.3051(2)
H1 H 0.6821 0.3924 0.2838
H2 H 0.6371 0.3750 0.3128
N20 N 0.6315(3) 0.33296(12) 0.1767(2)
H3 H 0.5962 0.3471 0.1709
H4 H 0.6627 0.3368 0.1606
N21 N 0.3249(3) 0.08509(15) 0.4536(2)
H5 H 0.3333 0.1021 0.4775
H6 H 0.2856 0.0737 0.4451
N22 N 0.7413(3) -0.05162(14) 0.1921(3)
H7 H 0.7240 -0.0712 0.1763
H8 H 0.7807 -0.0440 0.1899
N23 N 0.6456(3) 0.27246(16) 0.4618(2)
H9 H 0.6846 0.2655 0.4864
H10 H 0.6407 0.2941 0.4512
N24 N 1.0763(3) 0.09373(12) 0.3985(2)
H11 H 1.0825 0.0725 0.4114
H12 H 1.0465 0.0979 0.3655
N25 N 1.0091(3) 0.08717(10) 0.5096(2)
H13 H 1.0412 0.0825 0.5413
H14 H 0.9872 0.0703 0.4878
N26 N 1.4781(3) 0.27396(18) 0.82569(19)
H15 H 1.4833 0.2957 0.8360
H16 H 1.5028 0.2579 0.8477
N27 N 0.8521(3) 0.07704(15) 0.5386(2)
H17 H 0.8725 0.0853 0.5720
H18 H 0.8570 0.0552 0.5317
N28 N 0.8665(3) -0.05718(17) 0.3555(3)
H19 H 0.8838 -0.0702 0.3353
H20 H 0.8895 -0.0390 0.3725
N29 N 0.2953(4) -0.03520(18) 0.4772(4)
H21 H 0.2972 -0.0133 0.4865
H22 H 0.2600 -0.0479 0.4777
N30 N 0.0680(3) 0.0813(2) 0.2177(4)
H23 H 0.0541 0.0755 0.1825
H24 H 0.0421 0.0764 0.2381
C1 C 1.21661(18) 0.20600(9) 0.54046(15)
C2 C 1.1425(2) 0.18350(11) 0.44541(17)
H25 H 1.1364 0.2064 0.4313
C3 C 1.1146(3) 0.12149(12) 0.4315(2)
C4 C 1.1628(3) 0.11504(11) 0.4849(2)
H26 H 1.1720 0.0920 0.4978
C5 C 1.18682(19) 0.17739(9) 0.50043(16)
C6 C 1.1971(2) 0.14264(10) 0.51901(19)
H27 H 1.2278 0.1379 0.5552
C7 C 1.1072(3) 0.15594(12) 0.41124(19)
H28 H 1.0782 0.1605 0.3744
C8 C 1.28093(18) 0.23466(9) 0.61314(15)
C9 C 1.33512(19) 0.24495(10) 0.66643(17)
C10 C 1.3753(2) 0.21982(13) 0.70402(19)
H29 H 1.3707 0.1962 0.6938
C11 C 1.4223(3) 0.22964(16) 0.7565(2)
H30 H 1.4491 0.2125 0.7808
C12 C 1.3429(2) 0.28005(12) 0.68392(19)
H31 H 1.3165 0.2973 0.6597
C13 C 1.4297(2) 0.26477(16) 0.7731(2)
C14 C 1.3893(3) 0.28988(15) 0.7368(2)
H32 H 1.3931 0.3134 0.7476
C15 C 0.61014(19) -0.09500(9) 0.38766(16)
C16 C 0.6742(2) -0.08455(10) 0.37584(18)
C17 C 0.7015(2) -0.10401(12) 0.3415(2)
H33 H 0.6773 -0.1239 0.3233
C18 C 0.7642(3) -0.09445(14) 0.3337(2)
H34 H 0.7815 -0.1077 0.3100
C19 C 0.7115(2) -0.05483(11) 0.4021(2)
H35 H 0.6938 -0.0411 0.4251
C20 C 0.8012(3) -0.06549(15) 0.3607(3)
C21 C 0.7739(3) -0.04544(14) 0.3948(3)
H36 H 0.7981 -0.0255 0.4127
C22 C 0.51485(18) -0.09258(9) 0.40934(16)
C23 C 0.4574(3) -0.04326(11) 0.4426(2)
H37 H 0.4944 -0.0287 0.4417
C24 C 0.4052(3) -0.02976(13) 0.4603(3)
H38 H 0.4079 -0.0064 0.4719
C25 C 0.4567(2) -0.07854(10) 0.42600(17)
C26 C 0.4023(2) -0.09922(12) 0.4305(2)
H39 H 0.4018 -0.1231 0.4222
C27 C 0.3488(3) -0.08553(16) 0.4468(3)
H40 H 0.3120 -0.1000 0.4484
C28 C 0.3491(3) -0.04991(16) 0.4612(3)
C29 C 0.72505(19) 0.14308(10) 0.41061(17)
C30 C 0.7611(2) 0.15567(12) 0.46396(19)
H41 H 0.7571 0.1793 0.4720
C31 C 0.7314(2) 0.10781(11) 0.4008(2)
H42 H 0.7063 0.0984 0.3655
C32 C 0.68159(18) 0.16685(9) 0.36568(16)
C33 C 0.8032(3) 0.13373(14) 0.5060(2)
H43 H 0.8263 0.1428 0.5418
C34 C 0.7747(3) 0.08588(13) 0.4425(2)
H44 H 0.7791 0.0622 0.4347
C35 C 0.8111(3) 0.09915(14) 0.4954(2)
C36 C 0.64846(18) 0.24409(9) 0.27879(16)
C37 C 0.6994(2) 0.25112(11) 0.25408(18)
H45 H 0.7372 0.2357 0.2595
C38 C 0.6945(2) 0.28083(12) 0.2216(2)
H46 H 0.7296 0.2854 0.2058
C39 C 0.59334(19) 0.26818(10) 0.27072(17)
H47 H 0.5592 0.2642 0.2878
C40 C 0.64942(18) 0.21131(9) 0.30986(15)
C41 C 0.6382(2) 0.30410(11) 0.21192(18)
C42 C 0.5887(2) 0.29756(10) 0.23808(18)
H48 H 0.5517 0.3134 0.2335
C43 C 0.59305(18) 0.02926(8) 0.30547(15)
C44 C 0.6337(2) 0.00665(9) 0.28027(16)
C45 C 0.6071(2) -0.02538(10) 0.25441(17)
H49 H 0.5647 -0.0341 0.2569
C46 C 0.7054(3) -0.03225(13) 0.2215(2)
C47 C 0.6979(2) 0.01806(11) 0.2773(2)
H50 H 0.7171 0.0391 0.2948
C48 C 0.6426(3) -0.04428(11) 0.2253(2)
H51 H 0.6237 -0.0654 0.2080
C49 C 0.7338(3) -0.00100(13) 0.2490(2)
H52 H 0.7773 0.0070 0.2482
C50 C 0.4143(2) 0.03803(11) 0.36791(19)
H53 H 0.4060 0.0191 0.3431
C51 C 0.4382(3) 0.09386(11) 0.44196(18)
H54 H 0.4468 0.1128 0.4668
C52 C 0.4778(2) 0.05616(9) 0.38126(15)
C53 C 0.52730(18) 0.05054(8) 0.35052(15)
C54 C 0.4886(2) 0.08430(10) 0.41932(16)
H55 H 0.5310 0.0967 0.4293
C55 C 0.3746(3) 0.07598(13) 0.4289(2)
C56 C 0.3633(3) 0.04763(13) 0.3907(2)
H56 H 0.3208 0.0353 0.3808
C57 C 0.96186(18) 0.19243(9) 0.45944(16)
C58 C 1.0126(2) 0.18378(10) 0.51122(17)
H57 H 1.0371 0.2017 0.5349
C59 C 0.9266(2) 0.16477(10) 0.4253(2)
H58 H 0.8922 0.1696 0.3907
C60 C 0.9420(2) 0.13004(11) 0.4422(2)
H59 H 0.9181 0.1119 0.4185
C61 C 0.94686(18) 0.22917(9) 0.44176(15)
C62 C 1.0270(2) 0.14928(11) 0.52809(19)
H60 H 1.0604 0.1443 0.5631
C63 C 0.9924(2) 0.12193(11) 0.4936(2)
C64 C 0.89187(18) 0.27651(9) 0.40388(15)
C65 C 0.7706(2) 0.30016(10) 0.38546(18)
H61 H 0.7630 0.2826 0.4086
C66 C 0.7182(2) 0.32446(11) 0.3620(2)
H62 H 0.6758 0.3232 0.3695
C67 C 0.7280(2) 0.35088(11) 0.3271(2)
C68 C 0.7907(2) 0.35170(12) 0.3155(2)
H63 H 0.7975 0.3689 0.2913
C69 C 0.8437(2) 0.32731(10) 0.33916(18)
H64 H 0.8855 0.3283 0.3308
C70 C 0.83480(19) 0.30139(9) 0.37535(16)
C71 C 0.33379(19) 0.14709(9) 0.31365(15)
C72 C 0.26079(19) 0.13409(10) 0.28946(16)
C73 C 0.2367(2) 0.12434(14) 0.2336(2)
H65 H 0.2637 0.1298 0.2108
C74 C 0.2196(3) 0.12734(15) 0.3225(2)
H66 H 0.2345 0.1342 0.3603
C75 C 0.1734(3) 0.10658(17) 0.2105(3)
H67 H 0.1587 0.0999 0.1727
C76 C 0.1331(3) 0.0988(2) 0.2418(3)
C77 C 0.1551(3) 0.1101(2) 0.2987(3)
H68 H 0.1263 0.1060 0.3205
C78 C 0.48231(19) 0.20008(9) 0.39066(16)
C79 C 0.4741(2) 0.23533(10) 0.37535(18)
H69 H 0.4319 0.2429 0.3489
C80 C 0.5274(3) 0.25925(12) 0.3987(2)
H70 H 0.5214 0.2827 0.3875
C81 C 0.5977(2) 0.21374(14) 0.4556(2)
H71 H 0.6392 0.2064 0.4832
C82 C 0.5901(3) 0.24842(14) 0.4389(2)
C83 C 0.42949(19) 0.17419(9) 0.35834(15)
C84 C 0.5441(2) 0.18944(11) 0.43148(18)
H72 H 0.5500 0.1660 0.4429
Cu1A Cu 0.46138(2) 0.128255(10) 0.16806(2)
Cu3A Cu 0.44693(2) -0.025427(10) 0.13229(2)
Cu3B Cu 1.05307(2) 0.474573(10) 0.36771(2)
Cu4A Cu -0.09299(2) 0.254920(11) 0.003325(19)
Cu4F Cu 0.40701(2) 0.245080(11) 0.503325(19)
Cu5A Cu 0.20499(2) 0.218248(11) 0.11885(2)
Cu6A Cu -0.00632(2) 0.328931(11) 0.06770(2)
Cu6B Cu 0.50632(2) -0.171069(11) 0.43230(2)
Cu6F Cu 0.49368(2) 0.171069(11) 0.56770(2)
Cu7A Cu 0.68311(2) 0.206060(12) 0.11228(2)
Cu7F Cu 1.18311(2) 0.293940(12) 0.61228(2)
Cu8F Cu 0.34760(2) 0.168886(11) 0.58711(2)
Cu8F_2 Cu 1.34760(2) 0.168886(11) 0.58711(2)
Cu8B Cu 0.65240(2) -0.168886(11) 0.41289(2)
Cu8_2 Cu 0.15240(2) 0.331114(11) 0.41289(2)
Cu9A Cu 0.39106(2) 0.094610(11) 0.25359(2)
Cl1F Cl 0.37489(5) 0.18122(2) 0.49199(4)
Cl1A Cl -0.12511(5) 0.31878(2) -0.00801(4)
Cl1G Cl 0.62511(5) 0.18122(2) 0.00801(4)
N1A N 0.44999(15) 0.07761(7) 0.17231(13)
N2A N 0.44655(16) 0.01954(7) 0.16193(13)
N3A N 0.40832(15) 0.06401(7) 0.20158(13)
N4F N 0.22108(15) 0.29561(7) 0.41617(13)
N4F_2 N 1.22108(15) 0.29561(7) 0.41617(13)
N4_2 N 0.27892(15) 0.20439(7) 0.58383(13)
N5F N 0.27620(15) 0.24570(8) 0.41116(13)
N5G N 0.72380(15) 0.24570(8) 0.08884(13)
N6F N 0.31752(15) 0.26414(7) 0.45830(13)
N6A N -0.18248(15) 0.23586(7) -0.04170(13)
N7A N 0.00524(15) 0.25470(7) 0.04770(13)
N8A N 0.04084(15) 0.28523(7) 0.07201(13)
N9A N 0.11861(15) 0.24166(7) 0.08903(13)
N10B N 1.03335(15) 0.37366(7) 0.41133(13)
N10C N -0.03335(15) 0.37366(7) 0.08867(13)
N11B N 1.09498(16) 0.37230(7) 0.39766(14)
N11D N 0.40502(16) 0.12770(7) 0.60234(14)
N12B N 1.06059(16) 0.42790(7) 0.39329(14)
N12A N 0.43941(16) -0.07210(7) 0.10671(14)
N13A N 0.61429(15) 0.13065(7) 0.19759(13)
N14A N 0.55261(15) 0.14820(7) 0.16905(13)
N15A N 0.64117(16) 0.17458(7) 0.15066(13)
N16A N 0.29395(15) 0.19759(8) 0.14908(13)
N17A N 0.38593(15) 0.16187(7) 0.16429(13)
N18A N 0.40672(15) 0.19056(7) 0.20004(13)
N19A N 0.3242(2) 0.37594(11) 0.1949(2)
H1A H 0.3179 0.3924 0.2162
H2A H 0.3629 0.3750 0.1872
N20A N 0.3685(3) 0.33296(12) 0.3233(2)
H3A H 0.4038 0.3471 0.3291
H4A H 0.3373 0.3368 0.3394
N21A N 0.6751(3) 0.08509(15) 0.0464(2)
H5A H 0.6667 0.1021 0.0225
H6A H 0.7144 0.0737 0.0549
N22A N 0.2587(3) -0.05162(14) 0.3079(3)
H7A H 0.2760 -0.0712 0.3237
H8A H 0.2193 -0.0440 0.3101
N23A N 0.3544(3) 0.27246(16) 0.0382(2)
H9A H 0.3154 0.2655 0.0136
H10A H 0.3593 0.2941 0.0488
N24F N 0.4237(3) 0.40627(12) 0.6015(2)
H11F H 0.4175 0.4275 0.5886
H12F H 0.4535 0.4021 0.6345
N25A N -0.0091(3) 0.08717(10) -0.0096(2)
H13A H -0.0412 0.0825 -0.0413
H14A H 0.0128 0.0703 0.0122
N26F N 0.0219(3) 0.22604(18) 0.17431(19)
H15F H 0.0167 0.2043 0.1640
H16F H -0.0028 0.2421 0.1523
N27A N 0.1479(3) 0.07704(15) -0.0386(2)
H17A H 0.1275 0.0853 -0.0720
H18A H 0.1430 0.0552 -0.0317
N28B N 1.3665(3) 0.44282(17) 0.3555(3)
H19B H 1.3838 0.4298 0.3353
H20B H 1.3895 0.4610 0.3725
N29B N 0.7953(4) 0.46480(18) 0.4772(4)
H21B H 0.7972 0.4867 0.4865
H22B H 0.7600 0.4521 0.4777
N30A N 0.9320(3) 0.0813(2) 0.2823(4)
H23A H 0.9459 0.0755 0.3175
H24A H 0.9579 0.0764 0.2619
C1F C 0.28339(18) 0.29400(9) 0.45954(15)
C2F C 0.3575(2) 0.31650(11) 0.55459(17)
H25F H 0.3636 0.2936 0.5687
C3F C 0.3854(3) 0.37851(12) 0.5685(2)
C4F C 0.3372(3) 0.38496(11) 0.5151(2)
H26F H 0.3280 0.4080 0.5022
C5F C 0.31318(19) 0.32261(9) 0.49957(16)
C6F C 0.3029(2) 0.35736(10) 0.48099(19)
H27F H 0.2722 0.3621 0.4448
C7F C 0.3928(3) 0.34406(12) 0.58876(19)
H28F H 0.4218 0.3395 0.6256
C8F C 0.21907(18) 0.26534(9) 0.38686(15)
C9F C 0.16488(19) 0.25505(10) 0.33357(17)
C10F C 0.1247(2) 0.28018(13) 0.29598(19)
H29F H 0.1293 0.3038 0.3062
C11F C 0.0777(3) 0.27036(16) 0.2435(2)
H30F H 0.0509 0.2875 0.2192
C12F C 0.1571(2) 0.21995(12) 0.31608(19)
H31F H 0.1835 0.2027 0.3403
C13F C 0.0703(2) 0.23523(16) 0.2269(2)
C14F C 0.1107(3) 0.21012(15) 0.2632(2)
H32F H 0.1069 0.1866 0.2524
C15B C 1.11014(19) 0.40500(9) 0.38766(16)
C16B C 1.1742(2) 0.41545(10) 0.37584(18)
C17B C 1.2015(2) 0.39599(12) 0.3415(2)
H33B H 1.1773 0.3761 0.3233
C18B C 1.2642(3) 0.40555(14) 0.3337(2)
H34B H 1.2815 0.3923 0.3100
C19B C 1.2115(2) 0.44517(11) 0.4021(2)
H35B H 1.1938 0.4589 0.4251
C20B C 1.3012(3) 0.43451(15) 0.3607(3)
C21B C 1.2739(3) 0.45456(14) 0.3948(3)
H36B H 1.2981 0.4745 0.4127
C22B C 1.01485(18) 0.40742(9) 0.40934(16)
C23B C 0.9574(3) 0.45674(11) 0.4426(2)
H37B H 0.9944 0.4713 0.4417
C24B C 0.9052(3) 0.47024(13) 0.4603(3)
H38B H 0.9079 0.4936 0.4719
C25B C 0.9567(2) 0.42146(10) 0.42600(17)
C26B C 0.9023(2) 0.40078(12) 0.4305(2)
H39B H 0.9018 0.3769 0.4222
C27B C 0.8488(3) 0.41447(16) 0.4468(3)
H40B H 0.8120 0.4000 0.4484
C28B C 0.8491(3) 0.45009(16) 0.4612(3)
C29A C 0.27495(19) 0.14308(10) 0.08939(17)
C30A C 0.2389(2) 0.15567(12) 0.03604(19)
H41A H 0.2429 0.1793 0.0280
C31A C 0.2686(2) 0.10781(11) 0.0992(2)
H42A H 0.2937 0.0984 0.1345
C32A C 0.31841(18) 0.16685(9) 0.13432(16)
C33A C 0.1968(3) 0.13373(14) -0.0060(2)
H43A H 0.1737 0.1428 -0.0418
C34A C 0.2253(3) 0.08588(13) 0.0575(2)
H44A H 0.2209 0.0622 0.0653
C35A C 0.1889(3) 0.09915(14) 0.0046(2)
C36A C 0.35154(18) 0.24409(9) 0.22121(16)
C37A C 0.3006(2) 0.25112(11) 0.24592(18)
H45A H 0.2628 0.2357 0.2405
C38A C 0.3055(2) 0.28083(12) 0.2784(2)
H46A H 0.2704 0.2854 0.2942
C39A C 0.40666(19) 0.26818(10) 0.22928(17)
H47A H 0.4408 0.2642 0.2122
C40A C 0.35058(18) 0.21131(9) 0.19014(15)
C41A C 0.3618(2) 0.30410(11) 0.28808(18)
C42A C 0.4113(2) 0.29756(10) 0.26192(18)
H48A H 0.4483 0.3134 0.2665
C43A C 0.40695(18) 0.02926(8) 0.19453(15)
C44A C 0.3663(2) 0.00665(9) 0.21973(16)
C45A C 0.3929(2) -0.02538(10) 0.24559(17)
H49A H 0.4353 -0.0341 0.2431
C46A C 0.2946(3) -0.03225(13) 0.2785(2)
C47A C 0.3021(2) 0.01806(11) 0.2227(2)
H50A H 0.2829 0.0391 0.2052
C48A C 0.3574(3) -0.04428(11) 0.2747(2)
H51A H 0.3763 -0.0654 0.2920
C49A C 0.2662(3) -0.00100(13) 0.2510(2)
H52A H 0.2227 0.0070 0.2518
C50A C 0.5857(2) 0.03803(11) 0.13209(19)
H53A H 0.5940 0.0191 0.1569
C51A C 0.5618(3) 0.09386(11) 0.05804(18)
H54A H 0.5532 0.1128 0.0332
C52A C 0.5222(2) 0.05616(9) 0.11874(15)
C53A C 0.47270(18) 0.05054(8) 0.14948(15)
C54A C 0.5114(2) 0.08430(10) 0.08068(16)
H55A H 0.4690 0.0967 0.0707
C55A C 0.6254(3) 0.07598(13) 0.0711(2)
C56A C 0.6367(3) 0.04763(13) 0.1093(2)
H56A H 0.6792 0.0353 0.1192
C57A C 0.03814(18) 0.19243(9) 0.04056(16)
C58A C -0.0126(2) 0.18378(10) -0.01122(17)
H57A H -0.0371 0.2017 -0.0349
C59A C 0.0734(2) 0.16477(10) 0.0747(2)
H58A H 0.1078 0.1696 0.1093
C60A C 0.0580(2) 0.13004(11) 0.0578(2)
H59A H 0.0819 0.1119 0.0815
C61A C 0.05314(18) 0.22917(9) 0.05824(15)
C62A C -0.0270(2) 0.14928(11) -0.02809(19)
H60A H -0.0604 0.1443 -0.0631
C63A C 0.0076(2) 0.12193(11) 0.0064(2)
C64A C 0.10813(18) 0.27651(9) 0.09612(15)
C65A C 0.2294(2) 0.30016(10) 0.11454(18)
H61A H 0.2370 0.2826 0.0914
C66A C 0.2818(2) 0.32446(11) 0.1380(2)
H62A H 0.3242 0.3232 0.1305
C67A C 0.2720(2) 0.35088(11) 0.1729(2)
C68A C 0.2093(2) 0.35170(12) 0.1845(2)
H63A H 0.2025 0.3689 0.2087
C69A C 0.1563(2) 0.32731(10) 0.16084(18)
H64A H 0.1145 0.3283 0.1692
C70A C 0.16520(19) 0.30139(9) 0.12465(16)
C71A C 0.66621(19) 0.14709(9) 0.18635(15)
C72A C 0.73921(19) 0.13409(10) 0.21054(16)
C73A C 0.7633(2) 0.12434(14) 0.2664(2)
H65A H 0.7363 0.1298 0.2892
C74A C 0.7804(3) 0.12734(15) 0.1775(2)
H66A H 0.7655 0.1342 0.1397
C75A C 0.8266(3) 0.10658(17) 0.2895(3)
H67A H 0.8413 0.0999 0.3273
C76A C 0.8669(3) 0.0988(2) 0.2582(3)
C77A C 0.8449(3) 0.1101(2) 0.2013(3)
H68A H 0.8737 0.1060 0.1795
C78A C 0.51769(19) 0.20008(9) 0.10934(16)
C79A C 0.5259(2) 0.23533(10) 0.12465(18)
H69A H 0.5681 0.2429 0.1511
C80A C 0.4726(3) 0.25925(12) 0.1013(2)
H70A H 0.4786 0.2827 0.1125
C81A C 0.4023(2) 0.21374(14) 0.0444(2)
H71A H 0.3608 0.2064 0.0168
C82A C 0.4099(3) 0.24842(14) 0.0611(2)
C83A C 0.57051(19) 0.17419(9) 0.14166(15)
C84A C 0.4559(2) 0.18944(11) 0.06852(18)
H72A H 0.4500 0.1660 0.0571
Cl2 Cl 0.94289(17) 0.02475(7) 0.39976(14)
Cl3 Cl 0.5207(4) 0.3811(2) 0.3368(3)
O1 O 0.9078(4) 0.0031(2) 0.5122(3)
O2 O 0.8097(5) -0.0293(2) 0.5662(6)
O3 O 0.8574(11) -0.0134(7) 0.1617(12)
loop_
_geom_bond_atom_site_label_1
_geom_bond_atom_site_label_2
_geom_bond_site_symmetry_1
_geom_bond_site_symmetry_2
Cu1 N1 1_555 1_555
Cu2 N18 1_555 1_555
Cu3 N2 1_555 1_555
Cu4 Cl1 1_555 1_555
Cu5 N9 1_555 1_555
Cu6 Cl1 1_555 1_555
Cu7 N15 1_555 1_555
Cu8 Cl1 1_555 1_555
Cu9 N3 1_555 1_555
Cl1 Cu7F 1_555 1_555
N1 N3 1_555 1_555
N2 C43 1_555 1_555
N3 C43 1_555 1_555
N4 C1 1_555 1_555
N5 N6 1_555 1_555
N6 Cu4 1_555 1_555
N7 Cu4 1_555 1_555
N8 Cu6 1_555 1_555
N9 C61 1_555 1_555
N10 N11 1_555 1_555
N11 C15 1_555 1_555
N12 Cu3 1_555 1_555
N13 N14 1_555 1_555
N14 Cu1 1_555 1_555
N15 C71 1_555 1_555
N16 Cu5 1_555 1_555
N17 Cu1 1_555 1_555
N18 N17 1_555 1_555
N19 H1 1_555 1_555
H2 N19 1_555 1_555
N20 H3 1_555 1_555
H4 N20 1_555 1_555
N21 H5 1_555 1_555
H6 N21 1_555 1_555
N22 H7 1_555 1_555
H8 N22 1_555 1_555
N23 H9 1_555 1_555
H10 N23 1_555 1_555
N24 H11 1_555 1_555
H12 N24 1_555 1_555
N25 H13 1_555 1_555
H14 N25 1_555 1_555
N26 H15 1_555 1_555
H16 N26 1_555 1_555
N27 H17 1_555 1_555
H18 N27 1_555 1_555
N28 H19 1_555 1_555
H20 N28 1_555 1_555
N29 H21 1_555 1_555
H22 N29 1_555 1_555
N30 H23 1_555 1_555
H24 N30 1_555 1_555
C1 N6 1_555 1_555
C2 H25 1_555 1_555
C3 N24 1_555 1_555
C4 C3 1_555 1_555
H26 C4 1_555 1_555
C5 C1 1_555 1_555
C6 C4 1_555 1_555
H27 C6 1_555 1_555
C7 C2 1_555 1_555
H28 C7 1_555 1_555
C8 N4 1_555 1_555
C9 C8 1_555 1_555
C10 C9 1_555 1_555
H29 C10 1_555 1_555
C11 C10 1_555 1_555
H30 C11 1_555 1_555
C12 C9 1_555 1_555
H31 C12 1_555 1_555
C13 N26 1_555 1_555
C14 C12 1_555 1_555
H32 C14 1_555 1_555
C15 N12 1_555 1_555
C16 C15 1_555 1_555
C17 C16 1_555 1_555
H33 C17 1_555 1_555
C18 C17 1_555 1_555
H34 C18 1_555 1_555
C19 C16 1_555 1_555
H35 C19 1_555 1_555
C20 N28 1_555 1_555
C21 C19 1_555 1_555
H36 C21 1_555 1_555
C22 N10 1_555 1_555
C23 H37 1_555 1_555
C24 C23 1_555 1_555
H38 C24 1_555 1_555
C25 C22 1_555 1_555
C26 C25 1_555 1_555
H39 C26 1_555 1_555
C27 C26 1_555 1_555
H40 C27 1_555 1_555
C28 N29 1_555 1_555
C29 C30 1_555 1_555
C30 H41 1_555 1_555
C31 C29 1_555 1_555
H42 C31 1_555 1_555
C32 N16 1_555 1_555
C33 C30 1_555 1_555
H43 C33 1_555 1_555
C34 C31 1_555 1_555
H44 C34 1_555 1_555
C35 N27 1_555 1_555
C36 C37 1_555 1_555
C37 H45 1_555 1_555
C38 C37 1_555 1_555
H46 C38 1_555 1_555
C39 C36 1_555 1_555
H47 C39 1_555 1_555
C40 N16 1_555 1_555
C41 N20 1_555 1_555
C42 C39 1_555 1_555
H48 C42 1_555 1_555
C43 C44 1_555 1_555
C44 C45 1_555 1_555
C45 H49 1_555 1_555
C46 N22 1_555 1_555
C47 C44 1_555 1_555
H50 C47 1_555 1_555
C48 C45 1_555 1_555
H51 C48 1_555 1_555
C49 C46 1_555 1_555
H52 C49 1_555 1_555
C50 H53 1_555 1_555
C51 H54 1_555 1_555
C52 C50 1_555 1_555
C53 N1 1_555 1_555
C54 C51 1_555 1_555
H55 C54 1_555 1_555
C55 N21 1_555 1_555
C56 C50 1_555 1_555
H56 C56 1_555 1_555
C57 C58 1_555 1_555
C58 H57 1_555 1_555
C59 C57 1_555 1_555
H58 C59 1_555 1_555
C60 C59 1_555 1_555
H59 C60 1_555 1_555
C61 N7 1_555 1_555
C62 C58 1_555 1_555
H60 C62 1_555 1_555
C63 N25 1_555 1_555
C64 N8 1_555 1_555
C65 H61 1_555 1_555
C66 C65 1_555 1_555
H62 C66 1_555 1_555
C67 N19 1_555 1_555
C68 C67 1_555 1_555
H63 C68 1_555 1_555
C69 C68 1_555 1_555
H64 C69 1_555 1_555
C70 C64 1_555 1_555
C71 N13 1_555 1_555
C72 C71 1_555 1_555
C73 C72 1_555 1_555
H65 C73 1_555 1_555
C74 C72 1_555 1_555
H66 C74 1_555 1_555
C75 C73 1_555 1_555
H67 C75 1_555 1_555
C76 N30 1_555 1_555
C77 C74 1_555 1_555
H68 C77 1_555 1_555
C78 C79 1_555 1_555
C79 H69 1_555 1_555
C80 C79 1_555 1_555
H70 C80 1_555 1_555
C81 H71 1_555 1_555
C82 N23 1_555 1_555
C83 N14 1_555 1_555
C84 C78 1_555 1_555
H72 C84 1_555 1_555
Cu1A N1A 1_555 1_555
Cu3A N2A 1_555 1_555
Cu3B N12B 1_555 1_555
Cu4A Cl1A 1_555 1_555
Cu4F Cl1F 1_555 1_555
Cu5A N9A 1_555 1_555
Cu6A Cl1A 1_555 1_555
Cu6B N10 1_555 1_555
Cu6F Cl1F 1_555 1_555
Cu7A Cl1G 1_555 1_555
Cu7F N5 1_555 1_555
Cu8F Cl1F 1_555 1_555
Cu8F_2 N4 1_555 1_555
Cu8B N11 1_555 1_555
Cu8_2 N4F 1_555 1_555
Cu9A N13 1_555 1_555
Cl1F Cu7 1_555 1_555
N1A N3A 1_555 1_555
N2A C43A 1_555 1_555
N3A Cu9A 1_555 1_555
N4F C1F 1_555 1_555
N4F_2 Cu8 1_555 1_555
N4_2 Cu8F 1_555 1_555
N5F Cu7 1_555 1_555
N5G Cu7A 1_555 1_555
N6F Cu4F 1_555 1_555
N6A Cu4A 1_555 1_555
N7A Cu4A 1_555 1_555
N8A Cu6A 1_555 1_555
N9A C61A 1_555 1_555
N10B Cu6 1_555 1_555
N10C Cu6A 1_555 1_555
N11B Cu8 1_555 1_555
N11D Cu8F 1_555 1_555
N12B C15B 1_555 1_555
N12A Cu3A 1_555 1_555
N13A Cu9 1_555 1_555
N14A Cu1A 1_555 1_555
N15A Cu7A 1_555 1_555
N16A Cu5A 1_555 1_555
N17A Cu1A 1_555 1_555
N18A Cu2 1_555 1_555
N19A H1A 1_555 1_555
H2A N19A 1_555 1_555
N20A H3A 1_555 1_555
H4A N20A 1_555 1_555
N21A H5A 1_555 1_555
H6A N21A 1_555 1_555
N22A H7A 1_555 1_555
H8A N22A 1_555 1_555
N23A H9A 1_555 1_555
H10A N23A 1_555 1_555
N24F H11F 1_555 1_555
H12F N24F 1_555 1_555
N25A H13A 1_555 1_555
H14A N25A 1_555 1_555
N26F H15F 1_555 1_555
H16F N26F 1_555 1_555
N27A H17A 1_555 1_555
H18A N27A 1_555 1_555
N28B H19B 1_555 1_555
H20B N28B 1_555 1_555
N29B H21B 1_555 1_555
H22B N29B 1_555 1_555
N30A H23A 1_555 1_555
H24A N30A 1_555 1_555
C1F N6F 1_555 1_555
C2F H25F 1_555 1_555
C3F N24F 1_555 1_555
C4F C3F 1_555 1_555
H26F C4F 1_555 1_555
C5F C1F 1_555 1_555
C6F C4F 1_555 1_555
H27F C6F 1_555 1_555
C7F C2F 1_555 1_555
H28F C7F 1_555 1_555
C8F N4F 1_555 1_555
C9F C8F 1_555 1_555
C10F C9F 1_555 1_555
H29F C10F 1_555 1_555
C11F C10F 1_555 1_555
H30F C11F 1_555 1_555
C12F C9F 1_555 1_555
H31F C12F 1_555 1_555
C13F N26F 1_555 1_555
C14F C12F 1_555 1_555
H32F C14F 1_555 1_555
C15B N11B 1_555 1_555
C16B C15B 1_555 1_555
C17B C16B 1_555 1_555
H33B C17B 1_555 1_555
C18B C17B 1_555 1_555
H34B C18B 1_555 1_555
C19B C16B 1_555 1_555
H35B C19B 1_555 1_555
C20B N28B 1_555 1_555
C21B C19B 1_555 1_555
H36B C21B 1_555 1_555
C22B N10B 1_555 1_555
C23B H37B 1_555 1_555
C24B C23B 1_555 1_555
H38B C24B 1_555 1_555
C25B C22B 1_555 1_555
C26B C25B 1_555 1_555
H39B C26B 1_555 1_555
C27B C26B 1_555 1_555
H40B C27B 1_555 1_555
C28B N29B 1_555 1_555
C29A C30A 1_555 1_555
C30A H41A 1_555 1_555
C31A C29A 1_555 1_555
H42A C31A 1_555 1_555
C32A N16A 1_555 1_555
C33A C30A 1_555 1_555
H43A C33A 1_555 1_555
C34A C31A 1_555 1_555
H44A C34A 1_555 1_555
C35A N27A 1_555 1_555
C36A C37A 1_555 1_555
C37A H45A 1_555 1_555
C38A C37A 1_555 1_555
H46A C38A 1_555 1_555
C39A C36A 1_555 1_555
H47A C39A 1_555 1_555
C40A N16A 1_555 1_555
C41A N20A 1_555 1_555
C42A C39A 1_555 1_555
H48A C42A 1_555 1_555
C43A N3A 1_555 1_555
C44A C43A 1_555 1_555
C45A C44A 1_555 1_555
H49A C45A 1_555 1_555
C46A N22A 1_555 1_555
C47A C44A 1_555 1_555
H50A C47A 1_555 1_555
C48A C45A 1_555 1_555
H51A C48A 1_555 1_555
C49A C46A 1_555 1_555
H52A C49A 1_555 1_555
C50A H53A 1_555 1_555
C51A H54A 1_555 1_555
C52A C50A 1_555 1_555
C53A N1A 1_555 1_555
C54A C51A 1_555 1_555
H55A C54A 1_555 1_555
C55A N21A 1_555 1_555
C56A C50A 1_555 1_555
H56A C56A 1_555 1_555
C57A C58A 1_555 1_555
C58A H57A 1_555 1_555
C59A C57A 1_555 1_555
H58A C59A 1_555 1_555
C60A C59A 1_555 1_555
H59A C60A 1_555 1_555
C61A N7A 1_555 1_555
C62A C58A 1_555 1_555
H60A C62A 1_555 1_555
C63A N25A 1_555 1_555
C64A N8A 1_555 1_555
C65A H61A 1_555 1_555
C66A C65A 1_555 1_555
H62A C66A 1_555 1_555
C67A N19A 1_555 1_555
C68A C67A 1_555 1_555
H63A C68A 1_555 1_555
C69A C68A 1_555 1_555
H64A C69A 1_555 1_555
C70A C64A 1_555 1_555
C71A N13A 1_555 1_555
C72A C71A 1_555 1_555
C73A C72A 1_555 1_555
H65A C73A 1_555 1_555
C74A C72A 1_555 1_555
H66A C74A 1_555 1_555
C75A C73A 1_555 1_555
H67A C75A 1_555 1_555
C76A N30A 1_555 1_555
C77A C74A 1_555 1_555
H68A C77A 1_555 1_555
C78A C79A 1_555 1_555
C79A H69A 1_555 1_555
C80A C79A 1_555 1_555
H70A C80A 1_555 1_555
C81A H71A 1_555 1_555
C82A N23A 1_555 1_555
C83A N14A 1_555 1_555
C84A C78A 1_555 1_555
H72A C84A 1_555 1_555
N2 C53 1_555 1_555
N5 C8 1_555 1_555
N7 N8 1_555 1_555
N9 C64 1_555 1_555
N12 C22 1_555 1_555
N15 C83 1_555 1_555
N17 C32 1_555 1_555
N18 C40 1_555 1_555
C2 C5 1_555 1_555
C3 C7 1_555 1_555
C5 C6 1_555 1_555
C11 C13 1_555 1_555
C13 C14 1_555 1_555
C18 C20 1_555 1_555
C20 C21 1_555 1_555
C23 C25 1_555 1_555
C24 C28 1_555 1_555
C27 C28 1_555 1_555
C29 C32 1_555 1_555
C33 C35 1_555 1_555
C34 C35 1_555 1_555
C36 C40 1_555 1_555
C38 C41 1_555 1_555
C41 C42 1_555 1_555
C46 C48 1_555 1_555
C47 C49 1_555 1_555
C51 C55 1_555 1_555
C52 C53 1_555 1_555
C52 C54 1_555 1_555
C55 C56 1_555 1_555
C57 C61 1_555 1_555
C60 C63 1_555 1_555
C62 C63 1_555 1_555
C65 C70 1_555 1_555
C66 C67 1_555 1_555
C69 C70 1_555 1_555
C75 C76 1_555 1_555
C76 C77 1_555 1_555
C78 C83 1_555 1_555
C80 C82 1_555 1_555
C81 C82 1_555 1_555
C81 C84 1_555 1_555
N2A C53A 1_555 1_555
N5F N6F 1_555 1_555
N5F C8F 1_555 1_555
N7A N8A 1_555 1_555
N9A C64A 1_555 1_555
N10B N11B 1_555 1_555
N12B C22B 1_555 1_555
N13A N14A 1_555 1_555
N15A C71A 1_555 1_555
N15A C83A 1_555 1_555
N17A N18A 1_555 1_555
N17A C32A 1_555 1_555
N18A C40A 1_555 1_555
C2F C5F 1_555 1_555
C3F C7F 1_555 1_555
C5F C6F 1_555 1_555
C11F C13F 1_555 1_555
C13F C14F 1_555 1_555
C18B C20B 1_555 1_555
C20B C21B 1_555 1_555
C23B C25B 1_555 1_555
C24B C28B 1_555 1_555
C27B C28B 1_555 1_555
C29A C32A 1_555 1_555
C33A C35A 1_555 1_555
C34A C35A 1_555 1_555
C36A C40A 1_555 1_555
C38A C41A 1_555 1_555
C41A C42A 1_555 1_555
C46A C48A 1_555 1_555
C47A C49A 1_555 1_555
C51A C55A 1_555 1_555
C52A C53A 1_555 1_555
C52A C54A 1_555 1_555
C55A C56A 1_555 1_555
C57A C61A 1_555 1_555
C60A C63A 1_555 1_555
C62A C63A 1_555 1_555
C65A C70A 1_555 1_555
C66A C67A 1_555 1_555
C69A C70A 1_555 1_555
C75A C76A 1_555 1_555
C76A C77A 1_555 1_555
C78A C83A 1_555 1_555
C80A C82A 1_555 1_555
C81A C82A 1_555 1_555
C81A C84A 1_555 1_555

#END
