
#######################################################################
#
#                 Cambridge Crystallographic Data Centre
#                                CCDC 
#
#######################################################################
#
# If this CIF has been generated from an entry in the Cambridge 
# Structural Database, then it will include bibliographic, chemical, 
# crystal, experimental, refinement or atomic coordinate data resulting 
# from the CCDC's data processing and validation procedures.
#
#######################################################################

data_AWIBIS
_chemical_formula_moiety         '(C168 H148 Br4 Cu17 N60 O2 1+)n'
_symmetry_cell_setting           monoclinic
_symmetry_space_group_name_H-M   'C 2/c'
_symmetry_Int_Tables_number      15
_space_group_name_Hall           '-C 2yc'
loop_
_symmetry_equiv_pos_site_id
_symmetry_equiv_pos_as_xyz
1 x,y,z
2 -x,y,1/2-z
3 1/2+x,1/2+y,z
4 1/2-x,1/2+y,1/2-z
5 -x,-y,-z
6 x,-y,1/2+z
7 1/2-x,1/2-y,-z
8 1/2+x,1/2-y,1/2+z
_cell_length_a                   20.015(3)
_cell_length_b                   38.064(6)
_cell_length_c                   25.197(6)
_cell_angle_alpha                90
_cell_angle_beta                 109.846(3)
_cell_angle_gamma                90
_cell_volume                     18056.3
loop_
_atom_site_label
_atom_site_type_symbol
_atom_site_fract_x
_atom_site_fract_y
_atom_site_fract_z
Cu1 Cu 0.0000 0.191233(19) 0.7500
Cu2 Cu 0.03921(3) 0.127436(12) 0.83152(2)
Cu3 Cu 0.59375(3) 0.254580(14) 1.00012(2)
Cu4 Cu 0.29550(3) 0.218030(14) 0.88224(2)
Cu5 Cu 0.50675(3) 0.328760(13) 0.93212(2)
Cu6 Cu -0.18354(3) 0.206953(14) 0.88293(2)
Cu7 Cu 0.05204(3) -0.026060(12) 0.86547(2)
Cu8 Cu 0.84942(3) 0.169040(13) 1.09197(3)
Cu9 Cu 0.10917(3) 0.094082(13) 0.74664(2)
Br1 Br 0.63085(2) 0.320940(11) 1.010910(19)
N1 N -0.05186(18) 0.14766(9) 0.82977(15)
N2 N -0.14075(19) 0.17505(9) 0.84647(15)
N3 N -0.11401(18) 0.13022(9) 0.80145(15)
N4 N 0.1462(3) 0.27196(19) 0.9623(3)
H1 H 0.1851 0.2650 0.9872
H2 H 0.1412 0.2936 0.9521
N5 N 0.59179(19) 0.37144(9) 0.89273(16)
N6 N 0.55861(19) 0.42714(9) 0.88954(16)
N7 N 0.53131(18) 0.37320(9) 0.90792(16)
N8 N 0.8655(3) 0.43910(19) 0.8510(3)
H3 H 0.8894 0.4569 0.8684
H4 H 0.8819 0.4261 0.8303
H5 H 0.2676 0.4510 0.9855
H6 H 0.3041 0.4856 0.9916
N9 N 0.11444(18) 0.16117(9) 0.83578(15)
N10 N 0.09392(17) 0.18989(9) 0.80005(15)
N11 N 0.20664(18) 0.19723(9) 0.85181(15)
N12 N 0.3527(3) 0.07642(18) 1.0388(3)
H7 H 0.3564 0.0545 1.0323
H8 H 0.3746 0.0849 1.0718
N13 N 0.1321(3) 0.33168(14) 0.6779(2)
H9 H 0.1635 0.3354 0.6623
H10 H 0.0966 0.3457 0.6717
N14 N 0.09215(18) 0.06332(8) 0.79825(15)
N15 N 0.05073(18) 0.07695(8) 0.82753(15)
N16 N 0.2385(4) -0.05205(16) 0.6905(3)
H11 H 0.2208 -0.0716 0.6748
H12 H 0.2776 -0.0444 0.6878
N17 N 0.05385(19) 0.01906(8) 0.83713(15)
N18 N -0.1734(3) 0.08212(18) 0.9537(3)
H13 H -0.1648 0.0989 0.9779
H14 H -0.2126 0.0706 0.9454
N19 N 0.49575(18) 0.25465(9) 0.95433(15)
N20 N 0.46008(18) 0.28509(9) 0.92957(15)
N21 N 0.38158(18) 0.24159(9) 0.91237(15)
N22 N 0.5087(3) 0.08766(12) 1.0113(3)
H15 H 0.5400 0.0830 1.0436
H16 H 0.4874 0.0709 0.9893
N23 N 0.1763(3) 0.37587(14) 0.8046(3)
H17 H 0.1371 0.3751 0.8115
H18 H 0.1832 0.3922 0.7834
N24 N 0.68263(18) 0.23522(9) 1.04670(15)
N25 N 0.77996(18) 0.20414(9) 1.08833(15)
N26 N 0.72413(18) 0.25343(9) 1.09380(15)
N27 N 0.5777(3) 0.09472(14) 0.9005(2)
H19 H 0.5827 0.0735 0.9130
H20 H 0.5488 0.0992 0.8672
N28 N 0.9815(3) 0.2739(2) 1.3287(2)
H21 H 1.0066 0.2580 1.3509
H22 H 0.9865 0.2956 1.3388
C1 C 0.0912(3) 0.24820(17) 0.9387(2)
C2 C 0.0986(3) 0.21363(17) 0.9547(2)
H23 H 0.1401 0.2062 0.9826
C3 C 0.0451(3) 0.18946(13) 0.9300(2)
H24 H 0.0511 0.1661 0.9412
C4 C -0.0171(2) 0.20014(11) 0.88869(18)
C5 C -0.0252(3) 0.23507(13) 0.8739(2)
H25 H -0.0675 0.2428 0.8474
C6 C 0.0286(4) 0.25886(14) 0.8980(3)
H26 H 0.0228 0.2823 0.8867
C7 C -0.0700(2) 0.17416(11) 0.85617(17)
C8 C -0.3437(4) 0.1111(3) 0.8004(4)
H27 H -0.3715 0.1075 0.8229
C9 C -0.3678(4) 0.0994(2) 0.7434(3)
C10 C -0.3293(3) 0.1065(2) 0.7116(3)
H28 H -0.3455 0.0995 0.6740
C11 C -0.2651(3) 0.12412(17) 0.7330(2)
H29 H -0.2391 0.1291 0.7095
C12 C -0.2393(2) 0.13434(12) 0.78899(19)
C13 C -0.2793(3) 0.12782(19) 0.8222(3)
H30 H -0.2629 0.1347 0.8599
C14 C -0.1664(2) 0.14729(11) 0.81167(17)
C15 C 0.3526(4) 0.4498(2) 0.9640(4)
C16 C 0.3512(4) 0.4143(2) 0.9487(3)
H31 H 0.3145 0.4000 0.9508
C17 C 0.4032(3) 0.40024(15) 0.9307(2)
H32 H 0.4023 0.3764 0.9222
C18 C 0.4568(2) 0.42114(12) 0.9251(2)
C19 C 0.4588(3) 0.45609(13) 0.9414(2)
H33 H 0.4953 0.4705 0.9393
C20 C 0.4076(4) 0.46974(16) 0.9606(3)
H34 H 0.4105 0.4932 0.9716
C21 C 0.5132(2) 0.40685(10) 0.90628(19)
C22 C 0.7727(3) 0.45206(16) 0.8893(3)
H35 H 0.7974 0.4720 0.9066
C23 C 0.7993(3) 0.43121(16) 0.8562(3)
C24 C 0.7604(3) 0.40251(15) 0.8286(3)
H36 H 0.7767 0.3890 0.8047
C25 C 0.6976(3) 0.39397(13) 0.8366(2)
H37 H 0.6725 0.3743 0.8187
C26 C 0.6711(2) 0.41400(11) 0.8707(2)
C27 C 0.7097(3) 0.44339(14) 0.8968(2)
H38 H 0.6927 0.4574 0.9197
C28 C 0.6069(2) 0.40419(10) 0.88284(19)
C29 C 0.3110(3) 0.09837(16) 0.9956(3)
C30 C 0.2754(3) 0.08550(14) 0.9425(3)
H39 H 0.2799 0.0619 0.9347
C31 C 0.2328(3) 0.10739(13) 0.9006(2)
H40 H 0.2085 0.0982 0.8650
C32 C 0.2258(2) 0.14247(12) 0.9107(2)
C33 C 0.2614(3) 0.15512(14) 0.9644(2)
H41 H 0.2568 0.1787 0.9724
C34 C 0.3035(3) 0.13357(17) 1.0064(2)
H42 H 0.3271 0.1427 1.0421
C35 C 0.1821(2) 0.16637(11) 0.86608(19)
C36 C 0.1955(3) 0.28034(14) 0.7234(2)
H43 H 0.2309 0.2850 0.7083
C37 C 0.2004(2) 0.25060(13) 0.7561(2)
H44 H 0.2385 0.2353 0.7621
C38 C 0.1487(2) 0.24352(11) 0.77997(18)
C39 C 0.0935(2) 0.26731(11) 0.77191(19)
H45 H 0.0595 0.2633 0.7888
C40 C 0.0888(3) 0.29674(12) 0.7390(2)
H46 H 0.0517 0.3125 0.7342
C41 C 0.1386(3) 0.30323(13) 0.7129(2)
C42 C 0.1495(2) 0.21078(10) 0.81076(18)
C43 C 0.2329(3) -0.00171(15) 0.7479(3)
H47 H 0.2762 0.0062 0.7466
C44 C 0.2037(3) -0.03283(15) 0.7203(2)
C45 C 0.1413(3) -0.04490(13) 0.7249(2)
H48 H 0.1222 -0.0660 0.7079
C46 C 0.1061(3) -0.02589(11) 0.7545(2)
H49 H 0.0640 -0.0344 0.7575
C47 C 0.1338(2) 0.00593(11) 0.77977(19)
C48 C 0.1980(3) 0.01733(13) 0.7770(2)
H50 H 0.2180 0.0381 0.7950
C49 C 0.0934(2) 0.02880(10) 0.80507(18)
C50 C -0.1356(3) 0.04598(15) 0.8902(3)
H51 H -0.1778 0.0334 0.8802
C51 C -0.1246(3) 0.07369(15) 0.9283(2)
C52 C -0.0617(3) 0.09201(14) 0.9413(2)
H52 H -0.0537 0.1109 0.9662
C53 C -0.0105(3) 0.08325(12) 0.91847(19)
H53 H 0.0318 0.0959 0.9286
C54 C -0.0216(2) 0.05535(10) 0.88013(17)
C55 C -0.0843(3) 0.03701(13) 0.8672(2)
H54 H -0.0924 0.0181 0.8423
C56 C 0.0281(2) 0.04988(10) 0.84981(17)
C57 C 0.4926(3) 0.12217(13) 0.9950(2)
C58 C 0.4421(3) 0.13060(13) 0.9429(2)
H55 H 0.4182 0.1127 0.9188
C59 C 0.4271(3) 0.16499(12) 0.9265(2)
H56 H 0.3930 0.1699 0.8916
C60 C 0.4623(2) 0.19265(11) 0.96115(19)
C61 C 0.5120(2) 0.18395(12) 1.0132(2)
H57 H 0.5362 0.2018 1.0372
C62 C 0.5263(3) 0.14963(13) 1.0299(2)
H58 H 0.5592 0.1447 1.0653
C63 C 0.4475(2) 0.22925(11) 0.94343(17)
C64 C 0.2282(3) 0.35086(13) 0.8276(2)
C65 C 0.2920(3) 0.35142(14) 0.8166(2)
H59 H 0.2990 0.3685 0.7925
C66 C 0.3447(3) 0.32734(13) 0.8406(2)
H60 H 0.3870 0.3285 0.8330
C67 C 0.3356(2) 0.30109(11) 0.87614(19)
C68 C 0.2706(2) 0.30013(12) 0.8857(2)
H61 H 0.2626 0.2827 0.9088
C69 C 0.2186(3) 0.32449(13) 0.8616(2)
H62 H 0.1758 0.3231 0.8685
C70 C 0.3924(2) 0.27617(11) 0.90484(18)
C71 C 0.6104(3) 0.15621(15) 0.9148(2)
H63 H 0.5821 0.1608 0.8777
C72 C 0.6170(3) 0.12212(14) 0.9347(2)
C73 C 0.6635(3) 0.11542(14) 0.9881(3)
H64 H 0.6721 0.0924 1.0007
C74 C 0.6974(3) 0.14241(12) 1.0227(2)
H65 H 0.7274 0.1374 1.0591
C75 C 0.6878(2) 0.17731(11) 1.00467(19)
C76 C 0.6456(3) 0.18380(13) 0.9496(2)
H66 H 0.6405 0.2066 0.9356
C77 C 0.7171(2) 0.20573(11) 1.04489(18)
C78 C 0.9323(3) 0.2644(2) 1.2761(2)
C79 C 0.8918(3) 0.28940(19) 1.2392(3)
H67 H 0.8963 0.3130 1.2496
C80 C 0.8449(3) 0.27964(15) 1.1873(2)
H68 H 0.8184 0.2968 1.1629
C81 C 0.8365(2) 0.24460(12) 1.17065(19)
C82 C 0.8773(3) 0.21982(16) 1.2084(2)
H69 H 0.8726 0.1962 1.1984
C83 C 0.9248(3) 0.2296(2) 1.2604(2)
H70 H 0.9517 0.2126 1.2849
C84 C 0.7818(2) 0.23417(11) 1.11771(18)
N29 N 0.3025(5) 0.4641(2) 0.9831(5)
N30 N -0.4345(5) 0.0816(3) 0.7209(4)
H71 H -0.4499 0.0753 0.6861
H72 H -0.4591 0.0771 0.7422
Cu2A Cu -0.03921(3) 0.127436(12) 0.66848(2)
Cu3A Cu -0.59375(3) 0.254580(14) 0.49988(2)
Cu3F Cu -0.09375(3) 0.245420(14) 0.99988(2)
Cu4A Cu -0.29550(3) 0.218030(14) 0.61776(2)
Cu5A Cu -0.50675(3) 0.328760(13) 0.56788(2)
Cu5F Cu -0.00675(3) 0.171240(13) 1.06788(2)
Cu5B Cu 0.00675(3) -0.171240(13) 0.93212(2)
Cu6A Cu 0.18354(3) 0.206953(14) 0.61707(2)
Cu6F Cu 0.68354(3) 0.293047(14) 1.11707(2)
Cu7A Cu -0.05204(3) -0.026060(12) 0.63453(2)
Cu7B Cu 0.55204(3) 0.473940(12) 0.86547(2)
Cu8F Cu -0.34942(3) 0.330960(13) 0.90803(3)
Cu8F_2 Cu 0.65058(3) 0.330960(13) 0.90803(3)
Cu8_2 Cu -0.15058(3) 0.169040(13) 1.09197(3)
Cu8D Cu 0.15058(3) -0.169040(13) 0.90803(3)
Cu9A Cu -0.10917(3) 0.094082(13) 0.75336(2)
Br1F Br -0.13085(2) 0.179060(11) 0.989090(19)
Br1F_2 Br 0.86915(2) 0.179060(11) 0.989090(19)
Br1A Br -0.63085(2) 0.320940(11) 0.489090(19)
Br1G Br 0.13085(2) 0.179060(11) 0.510910(19)
Br1_2 Br -0.36915(2) 0.320940(11) 1.010910(19)
N1A N 0.05186(18) 0.14766(9) 0.67023(15)
N2A N 0.14075(19) 0.17505(9) 0.65353(15)
N3A N 0.11401(18) 0.13022(9) 0.69855(15)
N4A N -0.1462(3) 0.27196(19) 0.5377(3)
H1A H -0.1851 0.2650 0.5128
H2A H -0.1412 0.2936 0.5479
N5B N 0.09179(19) -0.12856(9) 0.89273(16)
N5F N 0.90821(19) 0.12856(9) 1.10727(16)
N5_2 N -0.40821(19) 0.37144(9) 0.89273(16)
N6B N 0.05861(19) -0.07286(9) 0.88954(16)
N6C N -0.05861(19) -0.07286(9) 0.61046(16)
N7B N 0.03131(18) -0.12680(9) 0.90792(16)
N7A N -0.53131(18) 0.37320(9) 0.59208(16)
N8B N 0.3655(3) -0.06090(19) 0.8510(3)
H3B H 0.3894 -0.0431 0.8684
H4B H 0.3819 -0.0739 0.8303
H5B H -0.2324 -0.0490 0.9855
H6B H -0.1959 -0.0144 0.9916
N9A N -0.11444(18) 0.16117(9) 0.66422(15)
N10A N -0.09392(17) 0.18989(9) 0.69995(15)
N11A N -0.20664(18) 0.19723(9) 0.64819(15)
N12A N -0.3527(3) 0.07642(18) 0.4612(3)
H7A H -0.3564 0.0545 0.4677
H8A H -0.3746 0.0849 0.4282
N13A N -0.1321(3) 0.33168(14) 0.8221(2)
H9A H -0.1635 0.3354 0.8377
H10A H -0.0966 0.3457 0.8283
N14A N -0.09215(18) 0.06332(8) 0.70175(15)
N15A N -0.05073(18) 0.07695(8) 0.67247(15)
N16A N -0.2385(4) -0.05205(16) 0.8095(3)
H11A H -0.2208 -0.0716 0.8252
H12A H -0.2776 -0.0444 0.8122
N17A N -0.05385(19) 0.01906(8) 0.66287(15)
N18A N 0.1734(3) 0.08212(18) 0.5463(3)
H13A H 0.1648 0.0989 0.5221
H14A H 0.2126 0.0706 0.5546
N19A N -0.49575(18) 0.25465(9) 0.54567(15)
N20A N -0.46008(18) 0.28509(9) 0.57043(15)
N21A N -0.38158(18) 0.24159(9) 0.58763(15)
N22A N -0.5087(3) 0.08766(12) 0.4887(3)
H15A H -0.5400 0.0830 0.4564
H16A H -0.4874 0.0709 0.5107
N23A N -0.1763(3) 0.37587(14) 0.6954(3)
H17A H -0.1371 0.3751 0.6885
H18A H -0.1832 0.3922 0.7166
N24F N -0.18263(18) 0.26478(9) 0.95330(15)
N24A N -0.68263(18) 0.23522(9) 0.45330(15)
N25F N -0.27996(18) 0.29586(9) 0.91167(15)
N26F N -0.22413(18) 0.24657(9) 0.90620(15)
N26G N 0.22413(18) 0.24657(9) 0.59380(15)
N27F N -0.0777(3) 0.40528(14) 1.0995(2)
H19F H -0.0827 0.4265 1.0870
H20F H -0.0488 0.4008 1.1328
N28F N -0.4815(3) 0.2261(2) 0.6713(2)
H21F H -0.5066 0.2420 0.6491
H22F H -0.4865 0.2044 0.6612
C1A C -0.0912(3) 0.24820(17) 0.5613(2)
C2A C -0.0986(3) 0.21363(17) 0.5453(2)
H23A H -0.1401 0.2062 0.5174
C3A C -0.0451(3) 0.18946(13) 0.5700(2)
H24A H -0.0511 0.1661 0.5588
C4A C 0.0171(2) 0.20014(11) 0.61131(18)
C5A C 0.0252(3) 0.23507(13) 0.6261(2)
H25A H 0.0675 0.2428 0.6526
C6A C -0.0286(4) 0.25886(14) 0.6020(3)
H26A H -0.0228 0.2823 0.6133
C7A C 0.0700(2) 0.17416(11) 0.64383(17)
C8A C 0.3437(4) 0.1111(3) 0.6996(4)
H27A H 0.3715 0.1075 0.6771
C9A C 0.3678(4) 0.0994(2) 0.7566(3)
C10A C 0.3293(3) 0.1065(2) 0.7884(3)
H28A H 0.3455 0.0995 0.8260
C11A C 0.2651(3) 0.12412(17) 0.7670(2)
H29A H 0.2391 0.1291 0.7905
C12A C 0.2393(2) 0.13434(12) 0.71101(19)
C13A C 0.2793(3) 0.12782(19) 0.6778(3)
H30A H 0.2629 0.1347 0.6401
C14A C 0.1664(2) 0.14729(11) 0.68833(17)
C15B C -0.1474(4) -0.0502(2) 0.9640(4)
C16B C -0.1488(4) -0.0857(2) 0.9487(3)
H31B H -0.1855 -0.1000 0.9508
C17B C -0.0968(3) -0.09976(15) 0.9307(2)
H32B H -0.0977 -0.1236 0.9222
C18B C -0.0432(2) -0.07886(12) 0.9251(2)
C19B C -0.0412(3) -0.04391(13) 0.9414(2)
H33B H -0.0047 -0.0295 0.9393
C20B C -0.0924(4) -0.03026(16) 0.9606(3)
H34B H -0.0895 -0.0068 0.9716
C21B C 0.0132(2) -0.09315(10) 0.90628(19)
C22B C 0.2727(3) -0.04794(16) 0.8893(3)
H35B H 0.2974 -0.0280 0.9066
C23B C 0.2993(3) -0.06879(16) 0.8562(3)
C24B C 0.2604(3) -0.09749(15) 0.8286(3)
H36B H 0.2767 -0.1110 0.8047
C25B C 0.1976(3) -0.10603(13) 0.8366(2)
H37B H 0.1725 -0.1257 0.8187
C26B C 0.1711(2) -0.08600(11) 0.8707(2)
C27B C 0.2097(3) -0.05661(14) 0.8968(2)
H38B H 0.1927 -0.0426 0.9197
C28B C 0.1069(2) -0.09581(10) 0.88284(19)
C29A C -0.3110(3) 0.09837(16) 0.5044(3)
C30A C -0.2754(3) 0.08550(14) 0.5575(3)
H39A H -0.2799 0.0619 0.5653
C31A C -0.2328(3) 0.10739(13) 0.5994(2)
H40A H -0.2085 0.0982 0.6350
C32A C -0.2258(2) 0.14247(12) 0.5893(2)
C33A C -0.2614(3) 0.15512(14) 0.5356(2)
H41A H -0.2568 0.1787 0.5276
C34A C -0.3035(3) 0.13357(17) 0.4936(2)
H42A H -0.3271 0.1427 0.4579
C35A C -0.1821(2) 0.16637(11) 0.63392(19)
C36A C -0.1955(3) 0.28034(14) 0.7766(2)
H43A H -0.2309 0.2850 0.7917
C37A C -0.2004(2) 0.25060(13) 0.7439(2)
H44A H -0.2385 0.2353 0.7379
C38A C -0.1487(2) 0.24352(11) 0.72003(18)
C39A C -0.0935(2) 0.26731(11) 0.72809(19)
H45A H -0.0595 0.2633 0.7112
C40A C -0.0888(3) 0.29674(12) 0.7610(2)
H46A H -0.0517 0.3125 0.7658
C41A C -0.1386(3) 0.30323(13) 0.7871(2)
C42A C -0.1495(2) 0.21078(10) 0.68924(18)
C43A C -0.2329(3) -0.00171(15) 0.7521(3)
H47A H -0.2762 0.0062 0.7534
C44A C -0.2037(3) -0.03283(15) 0.7797(2)
C45A C -0.1413(3) -0.04490(13) 0.7751(2)
H48A H -0.1222 -0.0660 0.7921
C46A C -0.1061(3) -0.02589(11) 0.7455(2)
H49A H -0.0640 -0.0344 0.7425
C47A C -0.1338(2) 0.00593(11) 0.72023(19)
C48A C -0.1980(3) 0.01733(13) 0.7230(2)
H50A H -0.2180 0.0381 0.7050
C49A C -0.0934(2) 0.02880(10) 0.69493(18)
C50A C 0.1356(3) 0.04598(15) 0.6098(3)
H51A H 0.1778 0.0334 0.6198
C51A C 0.1246(3) 0.07369(15) 0.5717(2)
C52A C 0.0617(3) 0.09201(14) 0.5587(2)
H52A H 0.0537 0.1109 0.5338
C53A C 0.0105(3) 0.08325(12) 0.58153(19)
H53A H -0.0318 0.0959 0.5714
C54A C 0.0216(2) 0.05535(10) 0.61987(17)
C55A C 0.0843(3) 0.03701(13) 0.6328(2)
H54A H 0.0924 0.0181 0.6577
C56A C -0.0281(2) 0.04988(10) 0.65019(17)
C57A C -0.4926(3) 0.12217(13) 0.5050(2)
C58A C -0.4421(3) 0.13060(13) 0.5571(2)
H55A H -0.4182 0.1127 0.5812
C59A C -0.4271(3) 0.16499(12) 0.5735(2)
H56A H -0.3930 0.1699 0.6084
C60A C -0.4623(2) 0.19265(11) 0.53885(19)
C61A C -0.5120(2) 0.18395(12) 0.4868(2)
H57A H -0.5362 0.2018 0.4628
C62A C -0.5263(3) 0.14963(13) 0.4701(2)
H58A H -0.5592 0.1447 0.4347
C63A C -0.4475(2) 0.22925(11) 0.55657(17)
C64A C -0.2282(3) 0.35086(13) 0.6724(2)
C65A C -0.2920(3) 0.35142(14) 0.6834(2)
H59A H -0.2990 0.3685 0.7075
C66A C -0.3447(3) 0.32734(13) 0.6594(2)
H60A H -0.3870 0.3285 0.6670
C67A C -0.3356(2) 0.30109(11) 0.62386(19)
C68A C -0.2706(2) 0.30013(12) 0.6143(2)
H61A H -0.2626 0.2827 0.5912
C69A C -0.2186(3) 0.32449(13) 0.6384(2)
H62A H -0.1758 0.3231 0.6315
C70A C -0.3924(2) 0.27617(11) 0.59516(18)
C71F C -0.1104(3) 0.34379(15) 1.0852(2)
H63F H -0.0821 0.3392 1.1223
C72F C -0.1170(3) 0.37788(14) 1.0653(2)
C73F C -0.1635(3) 0.38458(14) 1.0119(3)
H64F H -0.1721 0.4076 0.9993
C74F C -0.1974(3) 0.35759(12) 0.9773(2)
H65F H -0.2274 0.3626 0.9409
C75F C -0.1878(2) 0.32269(11) 0.99533(19)
C76F C -0.1456(3) 0.31620(13) 1.0504(2)
H66F H -0.1405 0.2934 1.0644
C77F C -0.2171(2) 0.29427(11) 0.95511(18)
C78F C -0.4323(3) 0.2356(2) 0.7239(2)
C79F C -0.3918(3) 0.21060(19) 0.7608(3)
H67F H -0.3963 0.1870 0.7504
C80F C -0.3449(3) 0.22036(15) 0.8127(2)
H68F H -0.3184 0.2032 0.8371
C81F C -0.3365(2) 0.25540(12) 0.82935(19)
C82F C -0.3773(3) 0.28018(16) 0.7916(2)
H69F H -0.3726 0.3038 0.8016
C83F C -0.4248(3) 0.2704(2) 0.7396(2)
H70F H -0.4517 0.2874 0.7151
C84F C -0.2818(2) 0.26583(11) 0.88229(18)
N29B N -0.1975(5) -0.0359(2) 0.9831(5)
N30A N 0.4345(5) 0.0816(3) 0.7791(4)
H71A H 0.4499 0.0753 0.8139
H72A H 0.4591 0.0771 0.7578
Br2 Br -0.01671(10) 0.38439(6) 0.66600(10)
Br3 Br -0.43910(7) 0.02423(3) 0.60422(5)
O1 O 0.3087(7) -0.0299(3) 1.0648(7)
O2 O 0.4033(4) 0.0016(2) 1.0120(4)
loop_
_geom_bond_atom_site_label_1
_geom_bond_atom_site_label_2
_geom_bond_site_symmetry_1
_geom_bond_site_symmetry_2
Cu1 N10 1_555 1_555
Cu2 N1 1_555 1_555
Cu3 Br1 1_555 1_555
Cu4 N11 1_555 1_555
Cu5 Br1 1_555 1_555
Cu6 N2 1_555 1_555
Cu7 N17 1_555 1_555
Cu8 N25 1_555 1_555
Cu9 N14 1_555 1_555
Br1 Cu6F 1_555 1_555
N1 N3 1_555 1_555
N2 C7 1_555 1_555
N3 C14 1_555 1_555
N4 H1 1_555 1_555
H2 N4 1_555 1_555
N5 N7 1_555 1_555
N6 C21 1_555 1_555
N7 Cu5 1_555 1_555
N8 H3 1_555 1_555
H4 N8 1_555 1_555
H5 N29 1_555 1_555
H6 N29 1_555 1_555
N9 Cu2 1_555 1_555
N10 N9 1_555 1_555
N11 C35 1_555 1_555
N12 H7 1_555 1_555
H8 N12 1_555 1_555
N13 H9 1_555 1_555
H10 N13 1_555 1_555
N14 N15 1_555 1_555
N15 Cu2 1_555 1_555
N16 H11 1_555 1_555
H12 N16 1_555 1_555
N17 C49 1_555 1_555
N18 H13 1_555 1_555
H14 N18 1_555 1_555
N19 Cu3 1_555 1_555
N20 Cu5 1_555 1_555
N21 Cu4 1_555 1_555
N22 H15 1_555 1_555
H16 N22 1_555 1_555
N23 H17 1_555 1_555
H18 N23 1_555 1_555
N24 Cu3 1_555 1_555
N25 C77 1_555 1_555
N26 N24 1_555 1_555
N27 H19 1_555 1_555
H20 N27 1_555 1_555
N28 H21 1_555 1_555
H22 N28 1_555 1_555
C1 N4 1_555 1_555
C2 C1 1_555 1_555
H23 C2 1_555 1_555
C3 C2 1_555 1_555
H24 C3 1_555 1_555
C4 C3 1_555 1_555
C5 C4 1_555 1_555
H25 C5 1_555 1_555
C6 C1 1_555 1_555
H26 C6 1_555 1_555
C7 N1 1_555 1_555
C8 H27 1_555 1_555
C9 C8 1_555 1_555
C10 C9 1_555 1_555
H28 C10 1_555 1_555
C11 C10 1_555 1_555
H29 C11 1_555 1_555
C12 C11 1_555 1_555
C13 C8 1_555 1_555
H30 C13 1_555 1_555
C14 N2 1_555 1_555
C15 C16 1_555 1_555
C16 H31 1_555 1_555
C17 C16 1_555 1_555
H32 C17 1_555 1_555
C18 C17 1_555 1_555
C19 C18 1_555 1_555
H33 C19 1_555 1_555
C20 C15 1_555 1_555
H34 C20 1_555 1_555
C21 N7 1_555 1_555
C22 H35 1_555 1_555
C23 N8 1_555 1_555
C24 C23 1_555 1_555
H36 C24 1_555 1_555
C25 C24 1_555 1_555
H37 C25 1_555 1_555
C26 C25 1_555 1_555
C27 C22 1_555 1_555
H38 C27 1_555 1_555
C28 N5 1_555 1_555
C29 N12 1_555 1_555
C30 C29 1_555 1_555
H39 C30 1_555 1_555
C31 C30 1_555 1_555
H40 C31 1_555 1_555
C32 C31 1_555 1_555
C33 C32 1_555 1_555
H41 C33 1_555 1_555
C34 C29 1_555 1_555
H42 C34 1_555 1_555
C35 N9 1_555 1_555
C36 H43 1_555 1_555
C37 C36 1_555 1_555
H44 C37 1_555 1_555
C38 C37 1_555 1_555
C39 C38 1_555 1_555
H45 C39 1_555 1_555
C40 C39 1_555 1_555
H46 C40 1_555 1_555
C41 N13 1_555 1_555
C42 N10 1_555 1_555
C43 H47 1_555 1_555
C44 N16 1_555 1_555
C45 C44 1_555 1_555
H48 C45 1_555 1_555
C46 C45 1_555 1_555
H49 C46 1_555 1_555
C47 C46 1_555 1_555
C48 C43 1_555 1_555
H50 C48 1_555 1_555
C49 N14 1_555 1_555
C50 H51 1_555 1_555
C51 N18 1_555 1_555
C52 C51 1_555 1_555
H52 C52 1_555 1_555
C53 C52 1_555 1_555
H53 C53 1_555 1_555
C54 C53 1_555 1_555
C55 C50 1_555 1_555
H54 C55 1_555 1_555
C56 N15 1_555 1_555
C57 N22 1_555 1_555
C58 C57 1_555 1_555
H55 C58 1_555 1_555
C59 C58 1_555 1_555
H56 C59 1_555 1_555
C60 C59 1_555 1_555
C61 C60 1_555 1_555
H57 C61 1_555 1_555
C62 C57 1_555 1_555
H58 C62 1_555 1_555
C63 N19 1_555 1_555
C64 N23 1_555 1_555
C65 C64 1_555 1_555
H59 C65 1_555 1_555
C66 C65 1_555 1_555
H60 C66 1_555 1_555
C67 C66 1_555 1_555
C68 C67 1_555 1_555
H61 C68 1_555 1_555
C69 C64 1_555 1_555
H62 C69 1_555 1_555
C70 N20 1_555 1_555
C71 H63 1_555 1_555
C72 N27 1_555 1_555
C73 C72 1_555 1_555
H64 C73 1_555 1_555
C74 C73 1_555 1_555
H65 C74 1_555 1_555
C75 C74 1_555 1_555
C76 C71 1_555 1_555
H66 C76 1_555 1_555
C77 N24 1_555 1_555
C78 N28 1_555 1_555
C79 C78 1_555 1_555
H67 C79 1_555 1_555
C80 C79 1_555 1_555
H68 C80 1_555 1_555
C81 C80 1_555 1_555
C82 C81 1_555 1_555
H69 C82 1_555 1_555
C83 C78 1_555 1_555
H70 C83 1_555 1_555
C84 N25 1_555 1_555
N29 C15 1_555 1_555
N30 C9 1_555 1_555
H71 N30 1_555 1_555
H72 N30 1_555 1_555
Cu2A N1A 1_555 1_555
Cu3A Br1A 1_555 1_555
Cu3F Br1F 1_555 1_555
Cu4A N11A 1_555 1_555
Cu5A Br1A 1_555 1_555
Cu5F Br1F 1_555 1_555
Cu5B N7B 1_555 1_555
Cu6A Br1G 1_555 1_555
Cu6F N26 1_555 1_555
Cu7A N6C 1_555 1_555
Cu7B N6 1_555 1_555
Cu8F Br1_2 1_555 1_555
Cu8F_2 Br1 1_555 1_555
Cu8_2 Br1F 1_555 1_555
Cu8D N5B 1_555 1_555
Cu9A N3 1_555 1_555
Br1F Cu6 1_555 1_555
Br1F_2 Cu8 1_555 1_555
N1A N3A 1_555 1_555
N2A Cu6A 1_555 1_555
N3A Cu9 1_555 1_555
N4A H1A 1_555 1_555
H2A N4A 1_555 1_555
N5B N7B 1_555 1_555
N5F Cu8 1_555 1_555
N5_2 Cu8F 1_555 1_555
N6B Cu7 1_555 1_555
N7B C21B 1_555 1_555
N7A Cu5A 1_555 1_555
N8B H3B 1_555 1_555
H4B N8B 1_555 1_555
H5B N29B 1_555 1_555
H6B N29B 1_555 1_555
N9A Cu2A 1_555 1_555
N10A Cu1 1_555 1_555
N11A C35A 1_555 1_555
N12A H7A 1_555 1_555
H8A N12A 1_555 1_555
N13A H9A 1_555 1_555
H10A N13A 1_555 1_555
N14A Cu9A 1_555 1_555
N15A Cu2A 1_555 1_555
N16A H11A 1_555 1_555
H12A N16A 1_555 1_555
N17A Cu7A 1_555 1_555
N18A H13A 1_555 1_555
H14A N18A 1_555 1_555
N19A Cu3A 1_555 1_555
N20A Cu5A 1_555 1_555
N21A Cu4A 1_555 1_555
N22A H15A 1_555 1_555
H16A N22A 1_555 1_555
N23A H17A 1_555 1_555
H18A N23A 1_555 1_555
N24F Cu3F 1_555 1_555
N24A Cu3A 1_555 1_555
N25F Cu8F 1_555 1_555
N26F Cu6 1_555 1_555
N26G Cu6A 1_555 1_555
N27F H19F 1_555 1_555
H20F N27F 1_555 1_555
N28F H21F 1_555 1_555
H22F N28F 1_555 1_555
C1A N4A 1_555 1_555
C2A C1A 1_555 1_555
H23A C2A 1_555 1_555
C3A C2A 1_555 1_555
H24A C3A 1_555 1_555
C4A C3A 1_555 1_555
C5A C4A 1_555 1_555
H25A C5A 1_555 1_555
C6A C1A 1_555 1_555
H26A C6A 1_555 1_555
C7A N1A 1_555 1_555
C8A H27A 1_555 1_555
C9A C8A 1_555 1_555
C10A C9A 1_555 1_555
H28A C10A 1_555 1_555
C11A C10A 1_555 1_555
H29A C11A 1_555 1_555
C12A C11A 1_555 1_555
C13A C8A 1_555 1_555
H30A C13A 1_555 1_555
C14A N2A 1_555 1_555
C15B C16B 1_555 1_555
C16B H31B 1_555 1_555
C17B C16B 1_555 1_555
H32B C17B 1_555 1_555
C18B C17B 1_555 1_555
C19B C18B 1_555 1_555
H33B C19B 1_555 1_555
C20B C15B 1_555 1_555
H34B C20B 1_555 1_555
C21B N6B 1_555 1_555
C22B H35B 1_555 1_555
C23B N8B 1_555 1_555
C24B C23B 1_555 1_555
H36B C24B 1_555 1_555
C25B C24B 1_555 1_555
H37B C25B 1_555 1_555
C26B C25B 1_555 1_555
C27B C22B 1_555 1_555
H38B C27B 1_555 1_555
C28B N5B 1_555 1_555
C29A N12A 1_555 1_555
C30A C29A 1_555 1_555
H39A C30A 1_555 1_555
C31A C30A 1_555 1_555
H40A C31A 1_555 1_555
C32A C31A 1_555 1_555
C33A C32A 1_555 1_555
H41A C33A 1_555 1_555
C34A C29A 1_555 1_555
H42A C34A 1_555 1_555
C35A N9A 1_555 1_555
C36A H43A 1_555 1_555
C37A C36A 1_555 1_555
H44A C37A 1_555 1_555
C38A C37A 1_555 1_555
C39A C38A 1_555 1_555
H45A C39A 1_555 1_555
C40A C39A 1_555 1_555
H46A C40A 1_555 1_555
C41A N13A 1_555 1_555
C42A N10A 1_555 1_555
C43A H47A 1_555 1_555
C44A N16A 1_555 1_555
C45A C44A 1_555 1_555
H48A C45A 1_555 1_555
C46A C45A 1_555 1_555
H49A C46A 1_555 1_555
C47A C46A 1_555 1_555
C48A C43A 1_555 1_555
H50A C48A 1_555 1_555
C49A N14A 1_555 1_555
C50A H51A 1_555 1_555
C51A N18A 1_555 1_555
C52A C51A 1_555 1_555
H52A C52A 1_555 1_555
C53A C52A 1_555 1_555
H53A C53A 1_555 1_555
C54A C53A 1_555 1_555
C55A C50A 1_555 1_555
H54A C55A 1_555 1_555
C56A N15A 1_555 1_555
C57A N22A 1_555 1_555
C58A C57A 1_555 1_555
H55A C58A 1_555 1_555
C59A C58A 1_555 1_555
H56A C59A 1_555 1_555
C60A C59A 1_555 1_555
C61A C60A 1_555 1_555
H57A C61A 1_555 1_555
C62A C57A 1_555 1_555
H58A C62A 1_555 1_555
C63A N19A 1_555 1_555
C64A N23A 1_555 1_555
C65A C64A 1_555 1_555
H59A C65A 1_555 1_555
C66A C65A 1_555 1_555
H60A C66A 1_555 1_555
C67A C66A 1_555 1_555
C68A C67A 1_555 1_555
H61A C68A 1_555 1_555
C69A C64A 1_555 1_555
H62A C69A 1_555 1_555
C70A N20A 1_555 1_555
C71F H63F 1_555 1_555
C72F N27F 1_555 1_555
C73F C72F 1_555 1_555
H64F C73F 1_555 1_555
C74F C73F 1_555 1_555
H65F C74F 1_555 1_555
C75F C74F 1_555 1_555
C76F C71F 1_555 1_555
H66F C76F 1_555 1_555
C77F N24F 1_555 1_555
C78F N28F 1_555 1_555
C79F C78F 1_555 1_555
H67F C79F 1_555 1_555
C80F C79F 1_555 1_555
H68F C80F 1_555 1_555
C81F C80F 1_555 1_555
C82F C81F 1_555 1_555
H69F C82F 1_555 1_555
C83F C78F 1_555 1_555
H70F C83F 1_555 1_555
C84F N25F 1_555 1_555
N29B C15B 1_555 1_555
N30A C9A 1_555 1_555
H71A N30A 1_555 1_555
H72A N30A 1_555 1_555
N5 Cu8F_2 1_555 1_555
N6 C28 1_555 1_555
N11 C42 1_555 1_555
N17 C56 1_555 1_555
N19 N20 1_555 1_555
N21 C63 1_555 1_555
N21 C70 1_555 1_555
N26 C84 1_555 1_555
C4 C7 1_555 1_555
C5 C6 1_555 1_555
C12 C13 1_555 1_555
C12 C14 1_555 1_555
C18 C21 1_555 1_555
C19 C20 1_555 1_555
C22 C23 1_555 1_555
C26 C27 1_555 1_555
C26 C28 1_555 1_555
C32 C35 1_555 1_555
C33 C34 1_555 1_555
C36 C41 1_555 1_555
C38 C42 1_555 1_555
C40 C41 1_555 1_555
C43 C44 1_555 1_555
C47 C48 1_555 1_555
C47 C49 1_555 1_555
C50 C51 1_555 1_555
C54 C55 1_555 1_555
C54 C56 1_555 1_555
C60 C63 1_555 1_555
C61 C62 1_555 1_555
C67 C70 1_555 1_555
C68 C69 1_555 1_555
C71 C72 1_555 1_555
C75 C76 1_555 1_555
C75 C77 1_555 1_555
C81 C84 1_555 1_555
C82 C83 1_555 1_555
N2A C7A 1_555 1_555
N3A C14A 1_555 1_555
N6B C28B 1_555 1_555
N9A N10A 1_555 1_555
N11A C42A 1_555 1_555
N14A N15A 1_555 1_555
N17A C49A 1_555 1_555
N17A C56A 1_555 1_555
N19A N20A 1_555 1_555
N21A C63A 1_555 1_555
N21A C70A 1_555 1_555
N24F N26F 1_555 1_555
N25F C77F 1_555 1_555
N26F C84F 1_555 1_555
C4A C7A 1_555 1_555
C5A C6A 1_555 1_555
C12A C13A 1_555 1_555
C12A C14A 1_555 1_555
C18B C21B 1_555 1_555
C19B C20B 1_555 1_555
C22B C23B 1_555 1_555
C26B C27B 1_555 1_555
C26B C28B 1_555 1_555
C32A C35A 1_555 1_555
C33A C34A 1_555 1_555
C36A C41A 1_555 1_555
C38A C42A 1_555 1_555
C40A C41A 1_555 1_555
C43A C44A 1_555 1_555
C47A C48A 1_555 1_555
C47A C49A 1_555 1_555
C50A C51A 1_555 1_555
C54A C55A 1_555 1_555
C54A C56A 1_555 1_555
C60A C63A 1_555 1_555
C61A C62A 1_555 1_555
C67A C70A 1_555 1_555
C68A C69A 1_555 1_555
C71F C72F 1_555 1_555
C75F C76F 1_555 1_555
C75F C77F 1_555 1_555
C81F C84F 1_555 1_555
C82F C83F 1_555 1_555

#END
