
#######################################################################
#
#                 Cambridge Crystallographic Data Centre
#                                CCDC 
#
#######################################################################
#
# If this CIF has been generated from an entry in the Cambridge 
# Structural Database, then it will include bibliographic, chemical, 
# crystal, experimental, refinement or atomic coordinate data resulting 
# from the CCDC's data processing and validation procedures.
#
#######################################################################

data_NOHHID
_chemical_formula_moiety         '(C40 H28 Cu4 N12 O20)n'
_symmetry_cell_setting           triclinic
_symmetry_space_group_name_H-M   'P -1'
_symmetry_Int_Tables_number      2
_space_group_name_Hall           '-P 1'
loop_
_symmetry_equiv_pos_site_id
_symmetry_equiv_pos_as_xyz
1 x,y,z
2 -x,-y,-z
_cell_length_a                   10.3314(15)
_cell_length_b                   12.3196(18)
_cell_length_c                   19.042(3)
_cell_angle_alpha                106.785(3)
_cell_angle_beta                 93.694(3)
_cell_angle_gamma                94.284(3)
_cell_volume                     2304.49
loop_
_atom_site_label
_atom_site_type_symbol
_atom_site_fract_x
_atom_site_fract_y
_atom_site_fract_z
Cu1 Cu 0.10869(6) 0.47926(5) 0.22495(3)
Cu2 Cu 0.34595(6) 0.54578(5) 0.28994(3)
Cu3 Cu -0.41150(6) 1.20678(6) 0.39764(4)
Cu4 Cu 0.88105(6) 0.83383(6) 0.03246(4)
O1 O 1.1694(4) 1.3278(3) 0.1927(2)
O2 O -0.2520(4) 1.2987(3) 0.4370(2)
O3 O 0.7177(4) 0.7441(3) -0.0089(2)
O4 O 0.3734(4) 0.5722(4) 0.1968(2)
O5 O 0.0843(4) 0.6397(3) 0.2633(2)
O6 O 0.0825(4) 1.4577(4) 0.3210(2)
O7 O 0.2856(4) 0.7000(3) 0.3194(2)
O8 O 0.2863(4) 1.5046(3) 0.3738(2)
N1 N 0.3830(4) 1.4272(4) 0.6208(2)
O9 O 1.0425(4) 0.9276(4) 0.0701(3)
O10 O 0.4322(4) 1.1070(3) 0.3574(3)
O11 O 0.1786(4) 0.5086(4) 0.1348(2)
O12 O 0.7337(4) 0.7304(4) 0.1046(2)
N2 N 0.0958(4) 0.5569(4) -0.1900(2)
N3 N 0.2833(4) 1.3475(4) 0.5927(2)
O13 O 0.2913(4) 1.2259(3) 0.3400(3)
O14 O 1.3744(4) 1.3852(3) 0.2412(2)
N4 N 1.7868(4) 0.9681(4) 0.0822(3)
N5 N 0.2648(4) 0.5708(4) -0.1166(2)
N6 N -0.3103(4) 1.0816(4) 0.3319(3)
N7 N -0.1469(4) 0.9912(4) 0.2986(3)
C1 C 0.0603(5) 1.3160(5) 0.5385(3)
H1 H 0.0370 1.2814 0.5739
C2 C 0.4633(5) 0.6426(4) -0.0361(3)
H2 H 0.5007 0.6631 -0.0741
C3 C 0.3370(5) 0.5920(4) -0.0464(3)
N8 N 0.1354(4) 0.5776(4) -0.1206(2)
N9 N -0.1827(4) 1.0859(4) 0.3454(3)
N10 N 0.4560(4) 1.3889(4) 0.6651(2)
C4 C 0.1871(5) 1.3606(5) 0.5388(3)
N11 N 1.6588(4) 0.9583(4) 0.0786(3)
N12 N 1.6235(4) 1.0565(4) 0.1184(3)
C5 C 0.2903(5) 1.2590(5) 0.6201(4)
H3 H 0.2325 1.1936 0.6097
O15 O -0.1945(4) 1.2099(4) 0.5195(3)
C6 C 0.1701(5) 1.4636(5) 0.3715(3)
C7 C 0.5331(5) 0.6625(4) 0.0311(3)
C8 C 0.2771(5) 0.5629(4) 0.0096(3)
H4 H 0.1916 0.5295 0.0018
C9 C 1.2297(5) 1.1057(5) 0.1338(3)
H5 H 1.1421 1.1176 0.1366
C10 C -0.1702(6) 1.2723(5) 0.4810(3)
C11 C 0.2253(5) 1.4122(5) 0.4865(3)
H6 H 0.3110 1.4422 0.4879
C12 C -0.0326(5) 1.3240(5) 0.4837(3)
C13 C 0.0841(5) 1.0575(5) 0.3173(3)
H7 H 0.0636 1.1306 0.3198
C14 C -0.0139(5) 0.9680(5) 0.3034(3)
C15 C 0.4746(5) 0.6343(5) 0.0876(3)
H8 H 0.5214 0.6490 0.1333
C16 C 1.3936(5) 0.9817(5) 0.0918(3)
H9 H 1.4178 0.9104 0.0671
C17 C 0.2934(5) 0.5524(4) 0.1409(3)
C18 C 0.3188(5) 1.1331(5) 0.3430(3)
C19 C 0.4018(6) 1.2870(5) 0.6667(3)
H10 H 0.4347 1.2430 0.6947
C20 C 0.0039(5) 1.3726(5) 0.4314(3)
H11 H -0.0577 1.3759 0.3944
C21 C 0.1322(5) 1.4176(4) 0.4322(3)
C22 C 0.2120(5) 1.0358(4) 0.3274(3)
C23 C 0.3068(5) 0.5456(5) -0.1842(3)
H12 H 0.3916 0.5358 -0.1968
O16 O 1.1914(4) 0.8142(4) 0.0207(3)
C24 C -0.3551(6) 0.9854(5) 0.2784(3)
H13 H -0.4415 0.9632 0.2597
C25 C 0.1981(6) 0.5375(5) -0.2300(3)
H14 H 0.1951 0.5212 -0.2810
C26 C 0.6711(5) 0.7144(5) 0.0441(3)
C27 C 0.1740(5) 0.7166(4) 0.2968(3)
C28 C 1.4877(5) 1.0735(5) 0.1252(3)
C29 C -0.2507(6) 0.9264(5) 0.2564(3)
H15 H -0.2510 0.8569 0.2203
C30 C 0.1433(5) 0.8368(4) 0.3057(3)
C31 C 0.0144(5) 0.8587(4) 0.2957(3)
H16 H -0.0521 0.7995 0.2839
C32 C 0.2420(5) 0.9263(5) 0.3225(3)
H17 H 0.3282 0.9125 0.3304
C33 C 0.3476(5) 0.5848(4) 0.0774(3)
C34 C 1.3232(5) 1.1949(4) 0.1671(3)
O17 O -0.4603(6) 1.2120(7) 0.5071(3)
H18 H -0.3921 1.2041 0.5336
H19 H -0.4888 1.2768 0.5284
C35 C 1.1599(6) 0.9043(5) 0.0593(4)
C36 C 1.2862(6) 1.3113(5) 0.2043(3)
C37 C 1.2625(5) 1.0008(5) 0.0969(3)
C38 C 1.4551(5) 1.1774(5) 0.1637(3)
H20 H 1.5193 1.2359 0.1875
C39 C 1.7297(6) 1.1304(6) 0.1489(5)
H21 H 1.7316 1.2046 0.1796
O18 O 0.9633(5) 0.7024(5) -0.0165(4)
H22 H 0.9093 0.6414 -0.0523
H23 H 1.0334 0.7155 -0.0443
O19 O -0.4769(6) 1.3399(5) 0.3736(5)
H24 H -0.5706 1.3459 0.3725
H25 H -0.4436 1.4129 0.4064
C40 C 1.8323(6) 1.0728(6) 0.1251(5)
H26 H 1.9196 1.1008 0.1365
Cu1_2 Cu 0.10869(6) 1.47926(5) 0.22495(3)
Cu1_3 Cu 1.10869(6) 1.47926(5) 0.22495(3)
Cu1A Cu -0.10869(6) 0.52074(5) -0.22495(3)
Cu2_2 Cu 0.34595(6) 1.54578(5) 0.28994(3)
Cu2_3 Cu 1.34595(6) 1.54578(5) 0.28994(3)
Cu2A Cu 0.65405(6) 1.45422(5) 0.71006(3)
Cu3_2 Cu 0.58850(6) 1.20678(6) 0.39764(4)
Cu4_2 Cu 1.88105(6) 0.83383(6) 0.03246(4)
O1_2 O 0.1694(4) 0.3278(3) 0.1927(2)
O6_2 O 0.0825(4) 0.4577(4) 0.3210(2)
O8_2 O 0.2863(4) 0.5046(3) 0.3738(2)
O10_2 O -0.5678(4) 1.1070(3) 0.3574(3)
N2A N -0.0958(4) 0.4431(4) 0.1900(2)
O14_2 O 0.3744(4) 0.3852(3) 0.2412(2)
N4_2 N 0.7868(4) 0.9681(4) 0.0822(3)
N10A N 0.5440(4) 0.6111(4) 0.3349(2)
O20 O -0.1374(8) 0.9818(5) 0.4850(4)
loop_
_geom_bond_atom_site_label_1
_geom_bond_atom_site_label_2
_geom_bond_site_symmetry_1
_geom_bond_site_symmetry_2
Cu1 O5 1_555 1_555
Cu2 O4 1_555 1_555
Cu3 O2 1_555 1_555
Cu4 O3 1_555 1_555
O1 C36 1_555 1_555
O2 C10 1_555 1_555
O3 C26 1_555 1_555
O4 C17 1_555 1_555
O5 C27 1_555 1_555
O6 C6 1_555 1_555
O7 Cu2 1_555 1_555
O8 C6 1_555 1_555
N1 N3 1_555 1_555
O9 Cu4 1_555 1_555
O10 C18 1_555 1_555
O11 Cu1 1_555 1_555
O12 Cu4 1_555 1_555
N2 N8 1_555 1_555
N3 C4 1_555 1_555
O13 C18 1_555 1_555
O14 C36 1_555 1_555
N4 N11 1_555 1_555
N5 C3 1_555 1_555
N6 Cu3 1_555 1_555
N7 N9 1_555 1_555
C1 H1 1_555 1_555
C2 H2 1_555 1_555
C3 C2 1_555 1_555
N8 N5 1_555 1_555
N9 N6 1_555 1_555
N10 N1 1_555 1_555
C4 C1 1_555 1_555
N11 N12 1_555 1_555
N12 C28 1_555 1_555
C5 N3 1_555 1_555
H3 C5 1_555 1_555
O15 C10 1_555 1_555
C6 C21 1_555 1_555
C7 C2 1_555 1_555
C8 C3 1_555 1_555
H4 C8 1_555 1_555
C9 H5 1_555 1_555
C10 C12 1_555 1_555
C11 C4 1_555 1_555
H6 C11 1_555 1_555
C12 C1 1_555 1_555
C13 H7 1_555 1_555
C14 N7 1_555 1_555
C15 C7 1_555 1_555
H8 C15 1_555 1_555
C16 H9 1_555 1_555
C17 O11 1_555 1_555
C18 C22 1_555 1_555
C19 N10 1_555 1_555
H10 C19 1_555 1_555
C20 C12 1_555 1_555
H11 C20 1_555 1_555
C21 C11 1_555 1_555
C22 C13 1_555 1_555
C23 N5 1_555 1_555
H12 C23 1_555 1_555
O16 C35 1_555 1_555
C24 N6 1_555 1_555
H13 C24 1_555 1_555
C25 N2 1_555 1_555
H14 C25 1_555 1_555
C26 O12 1_555 1_555
C27 O7 1_555 1_555
C28 C16 1_555 1_555
C29 N7 1_555 1_555
H15 C29 1_555 1_555
C30 C27 1_555 1_555
C31 C14 1_555 1_555
H16 C31 1_555 1_555
C32 C22 1_555 1_555
H17 C32 1_555 1_555
C33 C8 1_555 1_555
C34 C9 1_555 1_555
O17 Cu3 1_555 1_555
H18 O17 1_555 1_555
H19 O17 1_555 1_555
C35 O9 1_555 1_555
C36 C34 1_555 1_555
C37 C9 1_555 1_555
C38 C28 1_555 1_555
H20 C38 1_555 1_555
C39 N12 1_555 1_555
H21 C39 1_555 1_555
O18 Cu4 1_555 1_555
H22 O18 1_555 1_555
H23 O18 1_555 1_555
O19 Cu3 1_555 1_555
H24 O19 1_555 1_555
H25 O19 1_555 1_555
C40 N4 1_555 1_555
H26 C40 1_555 1_555
Cu1_2 O6 1_555 1_555
Cu1_3 O1 1_555 1_555
Cu1A N2 1_555 1_555
Cu2_2 O8 1_555 1_555
Cu2_3 O14 1_555 1_555
Cu2A N10 1_555 1_555
Cu3_2 O10 1_555 1_555
Cu4_2 N4 1_555 1_555
O1_2 Cu1 1_555 1_555
O6_2 Cu1 1_555 1_555
O8_2 Cu2 1_555 1_555
O10_2 Cu3 1_555 1_555
N2A Cu1 1_555 1_555
O14_2 Cu2 1_555 1_555
N4_2 Cu4 1_555 1_555
N10A Cu2 1_555 1_555
C5 C19 1_555 1_555
C7 C26 1_555 1_555
C13 C14 1_555 1_555
C15 C33 1_555 1_555
C16 C37 1_555 1_555
C17 C33 1_555 1_555
C20 C21 1_555 1_555
C23 C25 1_555 1_555
C24 C29 1_555 1_555
C30 C31 1_555 1_555
C30 C32 1_555 1_555
C34 C38 1_555 1_555
C35 C37 1_555 1_555
C39 C40 1_555 1_555

#END
