
#######################################################################
#
#                 Cambridge Crystallographic Data Centre
#                                CCDC 
#
#######################################################################
#
# If this CIF has been generated from an entry in the Cambridge 
# Structural Database, then it will include bibliographic, chemical, 
# crystal, experimental, refinement or atomic coordinate data resulting 
# from the CCDC's data processing and validation procedures.
#
#######################################################################

data_YARDIG
_chemical_formula_moiety         '(C25 H25 Co1 N5 O5)n'
_symmetry_cell_setting           monoclinic
_symmetry_space_group_name_H-M   'C 2/c'
_symmetry_Int_Tables_number      15
_space_group_name_Hall           '-C 2yc'
loop_
_symmetry_equiv_pos_site_id
_symmetry_equiv_pos_as_xyz
1 x,y,z
2 -x,y,1/2-z
3 1/2+x,1/2+y,z
4 1/2-x,1/2+y,1/2-z
5 -x,-y,-z
6 x,-y,1/2+z
7 1/2-x,1/2-y,-z
8 1/2+x,1/2-y,1/2+z
_cell_length_a                   20.4671(11)
_cell_length_b                   11.4539(6)
_cell_length_c                   14.1389(8)
_cell_angle_alpha                90
_cell_angle_beta                 116.1950(10)
_cell_angle_gamma                90
_cell_volume                     2974.14
loop_
_atom_site_label
_atom_site_type_symbol
_atom_site_fract_x
_atom_site_fract_y
_atom_site_fract_z
_atom_site_U_iso_or_equiv
_atom_site_thermal_displace_type
C1 C 1.13788(12) 0.0849(2) 0.37609(17) 0.0343 Uani
C2 C 1.19684(11) 0.1700(2) 0.43908(16) 0.0286 Uani
C3 C 1.19013(12) 0.2875(2) 0.41151(17) 0.0336 Uani
H1 H 1.1497 0.3128 0.3518 0.0400 Uiso
C4 C 1.24274(12) 0.3672(2) 0.47171(17) 0.0331 Uani
H2 H 1.2377 0.4455 0.4525 0.0400 Uiso
C5 C 0.96952(13) -0.13082(19) 0.05696(17) 0.0329 Uani
H3 H 0.9195 -0.1321 0.0355 0.0390 Uiso
C6 C 1.08432(13) -0.0965(2) 0.14452(19) 0.0362 Uani
H4 H 1.1285 -0.0687 0.1956 0.0430 Uiso
C7 C 1.07588(13) -0.1628(2) 0.06103(19) 0.0383 Uani
H5 H 1.1125 -0.1892 0.0444 0.0460 Uiso
C8 C 0.96835(15) -0.2644(2) -0.08389(18) 0.0406 Uani
H6 H 0.9877 -0.2512 -0.1345 0.0490 Uiso
H7 H 0.9162 -0.2507 -0.1188 0.0490 Uiso
C9 C 0.98334(13) -0.3887(2) -0.04424(17) 0.0340 Uani
C10 C 1.04339(15) -0.4484(2) -0.0394(2) 0.0411 Uani
H8 H 1.0730 -0.4137 -0.0658 0.0490 Uiso
C11 C 1.06019(14) -0.5591(2) 0.0042(2) 0.0398 Uani
H9 H 1.1007 -0.5983 0.0065 0.0480 Uiso
N1 N 1.01733(10) -0.07646(16) 0.14229(15) 0.0320 Uani
N2 N 1.00292(10) -0.18365(17) 0.00576(14) 0.0332 Uani
O1 O 1.07762(8) 0.13073(15) 0.31310(12) 0.0383 Uani
O2 O 1.14874(10) -0.02117(15) 0.38914(15) 0.0448 Uani
Co1 Co 1.0000 0.01439(4) 0.2500 0.0276 Uani
C1F C 1.36212(12) 0.4151(2) 0.62391(17) 0.0343 Uani
C2F C 1.30316(11) 0.3300(2) 0.56092(16) 0.0286 Uani
C3F C 1.30987(12) 0.2125(2) 0.58849(17) 0.0336 Uani
H1F H 1.3503 0.1872 0.6482 0.0400 Uiso
C4F C 1.25726(12) 0.1328(2) 0.52829(17) 0.0331 Uani
H2F H 1.2623 0.0545 0.5475 0.0400 Uiso
C5D C 1.03048(13) -0.86918(19) -0.05696(17) 0.0329 Uani
H3D H 1.0805 -0.8679 -0.0355 0.0390 Uiso
C6D C 0.91568(13) -0.9035(2) -0.14452(19) 0.0362 Uani
H4D H 0.8715 -0.9313 -0.1956 0.0430 Uiso
C7D C 0.92412(13) -0.8372(2) -0.06103(19) 0.0383 Uani
H5D H 0.8875 -0.8108 -0.0444 0.0460 Uiso
C8D C 1.03165(15) -0.7356(2) 0.08389(18) 0.0406 Uani
H6D H 1.0123 -0.7488 0.1345 0.0490 Uiso
H7D H 1.0838 -0.7493 0.1188 0.0490 Uiso
C9D C 1.01666(13) -0.6113(2) 0.04424(17) 0.0340 Uani
C10D C 0.95661(15) -0.5516(2) 0.0394(2) 0.0411 Uani
H8D H 0.9270 -0.5863 0.0658 0.0490 Uiso
C11D C 0.93981(14) -0.4409(2) -0.0042(2) 0.0398 Uani
H9D H 0.8993 -0.4017 -0.0065 0.0480 Uiso
N1D N 0.98267(10) -0.92354(16) -0.14229(15) 0.0320 Uani
N1A N 0.98267(10) -0.07646(16) 0.35771(15) 0.0320 Uani
N2D N 0.99708(10) -0.81635(17) -0.00576(14) 0.0332 Uani
O1F O 1.42238(8) 0.36927(15) 0.68690(12) 0.0383 Uani
O1A O 0.92238(8) 0.13073(15) 0.18690(12) 0.0383 Uani
O2F O 1.35126(10) 0.52117(15) 0.61086(15) 0.0448 Uani
Co1D Co 1.0000 -1.01439(4) -0.2500 0.0276 Uani
Co1F Co 1.5000 0.48561(4) 0.7500 0.0276 Uani
C12 C 1.23531(18) -0.2709(3) 0.3676(3) 0.0669 Uani
H10 H 1.2135 -0.2246 0.3998 0.0800 Uiso
C13 C 1.2231(2) -0.4238(4) 0.2442(3) 0.0776 Uani
H11 H 1.1862 -0.4770 0.1994 0.1150 Uiso
H12 H 1.2641 -0.4671 0.2937 0.1150 Uiso
H13 H 1.2382 -0.3753 0.2021 0.1150 Uiso
C14 C 1.11900(17) -0.3681(3) 0.2792(3) 0.0670 Uani
H14 H 1.0981 -0.4299 0.2290 0.1000 Uiso
H15 H 1.0924 -0.2972 0.2512 0.1000 Uiso
H16 H 1.1165 -0.3879 0.3435 0.1000 Uiso
N3 N 1.19428(12) -0.3518(2) 0.30026(18) 0.0499 Uani
O3 O 1.29882(13) -0.2525(3) 0.3905(2) 0.0943 Uani
loop_
_atom_site_aniso_label
_atom_site_aniso_U_11
_atom_site_aniso_U_22
_atom_site_aniso_U_33
_atom_site_aniso_U_23
_atom_site_aniso_U_13
_atom_site_aniso_U_12
C1 0.0305(12) 0.0434(14) 0.0302(11) -0.0065(10) 0.0146(10) -0.0096(11)
C2 0.0257(11) 0.0344(12) 0.0267(10) -0.0028(9) 0.0124(9) -0.0028(9)
C3 0.0250(11) 0.0394(13) 0.0299(11) 0.0027(10) 0.0062(9) -0.0009(10)
C4 0.0298(11) 0.0307(12) 0.0359(12) 0.0023(10) 0.0118(10) -0.0009(9)
C5 0.0360(12) 0.0228(11) 0.0356(12) 0.0026(9) 0.0119(10) 0.0015(9)
C6 0.0340(12) 0.0337(13) 0.0404(13) -0.0020(10) 0.0160(10) -0.0040(10)
C7 0.0418(13) 0.0350(13) 0.0443(14) 0.0003(11) 0.0246(11) -0.0004(11)
C8 0.0568(16) 0.0321(13) 0.0296(12) -0.0014(10) 0.0160(11) 0.0002(11)
C9 0.0454(13) 0.0285(11) 0.0274(11) -0.0038(9) 0.0153(10) -0.0033(10)
C10 0.0514(15) 0.0337(13) 0.0492(15) -0.0026(11) 0.0321(13) -0.0049(11)
C11 0.0438(14) 0.0320(13) 0.0485(14) -0.0035(11) 0.0249(12) 0.0002(11)
N1 0.0343(10) 0.0247(10) 0.0354(10) -0.0008(8) 0.0138(8) 0.0000(8)
N2 0.0440(11) 0.0247(10) 0.0307(10) 0.0009(8) 0.0163(9) 0.0004(8)
O1 0.0287(8) 0.0454(10) 0.0319(8) -0.0007(7) 0.0052(7) -0.0087(7)
O2 0.0419(10) 0.0365(10) 0.0496(11) -0.0083(8) 0.0143(8) -0.0100(8)
Co1 0.0262(2) 0.0224(2) 0.0303(2) 0.000 0.00892(18) 0.000
C1F 0.0305 0.0434 0.0302 -0.0065 0.0146 -0.0096
C2F 0.0257 0.0344 0.0267 -0.0028 0.0124 -0.0028
C3F 0.025 0.0394 0.0299 0.0027 0.0062 -0.0009
C4F 0.0298 0.0307 0.0359 0.0023 0.0118 -0.0009
C5D 0.036 0.0228 0.0356 0.0026 0.0119 0.0015
C6D 0.034 0.0337 0.0404 -0.002 0.016 -0.004
C7D 0.0418 0.035 0.0443 0.0003 0.0246 -0.0004
C8D 0.0568 0.0321 0.0296 -0.0014 0.016 0.0002
C9D 0.0454 0.0285 0.0274 -0.0038 0.0153 -0.0033
C10D 0.0514 0.0337 0.0492 -0.0026 0.0321 -0.0049
C11D 0.0438 0.032 0.0485 -0.0035 0.0249 0.0002
N1D 0.0343 0.0247 0.0354 -0.0008 0.0138 0
N1A 0.0343 0.0247 0.0354 0.0008 0.0138 0
N2D 0.044 0.0247 0.0307 0.0009 0.0163 0.0004
O1F 0.0287 0.0454 0.0319 -0.0007 0.0052 -0.0087
O1A 0.0287 0.0454 0.0319 0.0007 0.0052 0.0087
O2F 0.0419 0.0365 0.0496 -0.0083 0.0143 -0.01
Co1D 0.0262 0.0224 0.0303 0 0.00892 0
Co1F 0.0262 0.0224 0.0303 0 0.00892 0
C12 0.055(2) 0.069(2) 0.062(2) -0.0002(17) 0.0125(16) 0.0097(17)
C13 0.082(3) 0.085(3) 0.075(2) -0.008(2) 0.043(2) 0.000(2)
C14 0.0556(18) 0.078(2) 0.0650(19) 0.0175(18) 0.0245(15) -0.0009(17)
N3 0.0430(13) 0.0563(15) 0.0469(13) 0.0057(11) 0.0166(10) 0.0033(11)
O3 0.0501(15) 0.096(2) 0.113(2) -0.0138(18) 0.0143(14) -0.0095(14)
loop_
_geom_bond_atom_site_label_1
_geom_bond_atom_site_label_2
_geom_bond_site_symmetry_1
_geom_bond_site_symmetry_2
C1 C2 1_555 1_555
C2 C3 1_555 1_555
C3 H1 1_555 1_555
C4 C3 1_555 1_555
H2 C4 1_555 1_555
C5 H3 1_555 1_555
C6 H4 1_555 1_555
C7 C6 1_555 1_555
H5 C7 1_555 1_555
C8 H6 1_555 1_555
H7 C8 1_555 1_555
C9 C8 1_555 1_555
C10 C9 1_555 1_555
H8 C10 1_555 1_555
C11 C10 1_555 1_555
H9 C11 1_555 1_555
C12 H10 1_555 1_555
C13 H11 1_555 1_555
H12 C13 1_555 1_555
H13 C13 1_555 1_555
C14 H14 1_555 1_555
H15 C14 1_555 1_555
H16 C14 1_555 1_555
N1 C5 1_555 1_555
N2 C5 1_555 1_555
N3 C12 1_555 1_555
O1 C1 1_555 1_555
O2 C1 1_555 1_555
O3 C12 1_555 1_555
Co1 N1 1_555 1_555
C1F C2F 1_555 1_555
C2F C4 1_555 1_555
C3F C2F 1_555 1_555
H1F C3F 1_555 1_555
C4F C2 1_555 1_555
H2F C4F 1_555 1_555
C5D H3D 1_555 1_555
C6D H4D 1_555 1_555
C7D C6D 1_555 1_555
H5D C7D 1_555 1_555
C8D H6D 1_555 1_555
H7D C8D 1_555 1_555
C9D C11 1_555 1_555
C10D C9D 1_555 1_555
H8D C10D 1_555 1_555
C11D C9 1_555 1_555
H9D C11D 1_555 1_555
N1D C5D 1_555 1_555
N1A Co1 1_555 1_555
N2D C5D 1_555 1_555
O1F C1F 1_555 1_555
O1A Co1 1_555 1_555
O2F C1F 1_555 1_555
Co1D N1D 1_555 1_555
Co1F O1F 1_555 1_555
C6 N1 1_555 1_555
C7 N2 1_555 1_555
C8 N2 1_555 1_555
C13 N3 1_555 1_555
C14 N3 1_555 1_555
O1 Co1 1_555 1_555
C3F C4F 1_555 1_555
C6D N1D 1_555 1_555
C7D N2D 1_555 1_555
C8D C9D 1_555 1_555
C8D N2D 1_555 1_555
C10D C11D 1_555 1_555

#END
