
#######################################################################
#
#                 Cambridge Crystallographic Data Centre
#                                CCDC 
#
#######################################################################
#
# If this CIF has been generated from an entry in the Cambridge 
# Structural Database, then it will include bibliographic, chemical, 
# crystal, experimental, refinement or atomic coordinate data resulting 
# from the CCDC's data processing and validation procedures.
#
#######################################################################

data_MICNIW
_chemical_formula_moiety         '(C43 H33 Cd1 F8 N7 O6)n'
_symmetry_cell_setting           monoclinic
_symmetry_space_group_name_H-M   'C 2/c'
_symmetry_Int_Tables_number      15
_space_group_name_Hall           '-C 2yc'
loop_
_symmetry_equiv_pos_site_id
_symmetry_equiv_pos_as_xyz
1 x,y,z
2 1/2+x,1/2+y,z
3 -x,y,1/2-z
4 1/2-x,1/2+y,1/2-z
5 -x,-y,-z
6 1/2-x,1/2-y,-z
7 x,-y,1/2+z
8 1/2+x,1/2-y,1/2+z
_cell_length_a                   17.170(5)
_cell_length_b                   19.060(5)
_cell_length_c                   16.690(5)
_cell_angle_alpha                90
_cell_angle_beta                 118.593(5)
_cell_angle_gamma                90
_cell_volume                     4795.84
loop_
_atom_site_label
_atom_site_type_symbol
_atom_site_fract_x
_atom_site_fract_y
_atom_site_fract_z
_atom_site_U_iso_or_equiv
_atom_site_thermal_displace_type
Cd1 Cd 0.5000 0.120743(8) 0.7500 0.0247 Uani
F1 F 0.36840(8) 0.41559(6) 0.98889(9) 0.0425 Uani
F2 F 0.33159(7) 0.54845(6) 0.93025(8) 0.0398 Uani
F3 F 0.42745(8) -0.23659(7) 0.60560(9) 0.0457 Uani
F4 F 0.34148(9) -0.33448(7) 0.64616(9) 0.0488 Uani
O1 O 0.35997(10) 0.10177(8) 0.75951(12) 0.0475 Uani
O2 O 0.31906(15) 0.17934(9) 0.65381(13) 0.0632 Uani
O3 O 0.24979(10) 0.17079(8) 0.73168(10) 0.0410 Uani
N1 N 0.51487(10) 0.20589(8) 0.85771(10) 0.0295 Uani
N2 N 0.44609(10) 0.03143(8) 0.63866(10) 0.0285 Uani
N3 N 0.30850(11) 0.15065(9) 0.71452(11) 0.0325 Uani
C1 C 0.46297(13) 0.26258(10) 0.83560(13) 0.0338 Uani
H2 H 0.4202 0.2692 0.7734 0.0410 Uiso
C2 C 0.57463(15) 0.19838(11) 0.94559(14) 0.0396 Uani
H3 H 0.6123 0.1584 0.9630 0.0480 Uiso
C3 C 0.46824(13) 0.31212(10) 0.89834(13) 0.0348 Uani
H4 H 0.4297 0.3515 0.8791 0.0420 Uiso
C4 C 0.58453(15) 0.24564(11) 1.01235(13) 0.0394 Uani
H5 H 0.6286 0.2382 1.0738 0.0470 Uiso
C5 C 0.53018(12) 0.30398(9) 0.98959(12) 0.0279 Uani
C6 C 0.54010(14) 0.35468(10) 1.06405(13) 0.0327 Uani
H6 H 0.4999 0.3400 1.0881 0.0390 Uiso
H7 H 0.6017 0.3521 1.1148 0.0390 Uiso
C7 C 0.51959(12) 0.42958(9) 1.03178(12) 0.0272 Uani
C8 C 0.43487(12) 0.45696(10) 0.99523(12) 0.0291 Uani
C9 C 0.41590(12) 0.52519(10) 0.96471(12) 0.0286 Uani
C10 C 0.35978(14) 0.01845(11) 0.58821(16) 0.0421 Uani
H8 H 0.3189 0.0493 0.5933 0.0500 Uiso
C11 C 0.50114(14) -0.01248(12) 0.62777(17) 0.0482 Uani
H9 H 0.5631 -0.0037 0.6616 0.0580 Uiso
C12 C 0.32676(14) -0.03774(12) 0.52877(17) 0.0453 Uani
H10 H 0.2645 -0.0445 0.4940 0.0540 Uiso
C13 C 0.47310(15) -0.06962(12) 0.57039(18) 0.0500 Uani
H11 H 0.5152 -0.0992 0.5656 0.0600 Uiso
C14 C 0.38353(13) -0.08383(9) 0.51977(12) 0.0293 Uani
C15 C 0.34885(15) -0.14527(11) 0.45419(14) 0.0370 Uani
H12 H 0.3103 -0.1271 0.3919 0.0440 Uiso
H13 H 0.3996 -0.1695 0.4538 0.0440 Uiso
C16 C 0.29685(14) -0.19794(9) 0.47759(14) 0.0327 Uani
C17 C 0.33900(13) -0.24276(10) 0.55176(14) 0.0340 Uani
C18 C 0.29379(14) -0.29332(10) 0.57282(14) 0.0353 Uani
Cd1F Cd 0.5000 0.879257(8) 1.2500 0.0247 Uani
Cd1G Cd 0.0000 -0.620743(8) 0.2500 0.0247 Uani
F1D F 0.63160(8) 0.58441(6) 1.01111(9) 0.0425 Uani
F2D F 0.66841(7) 0.45155(6) 1.06975(8) 0.0398 Uani
F3E F 0.07255(8) -0.26341(7) 0.39440(9) 0.0457 Uani
F4E F 0.15852(9) -0.16552(7) 0.35384(9) 0.0488 Uani
O1B O 0.64003(10) 0.10177(8) 0.74049(12) 0.0475 Uani
O2B O 0.68094(15) 0.17934(9) 0.84619(13) 0.0632 Uani
O3B O 0.75021(10) 0.17079(8) 0.76832(10) 0.0410 Uani
N1D N 0.48513(10) 0.79411(8) 1.14229(10) 0.0295 Uani
N1B N 0.48513(10) 0.20589(8) 0.64229(10) 0.0295 Uani
N2E N 0.05391(10) -0.53143(8) 0.36134(10) 0.0285 Uani
N2B N 0.55391(10) 0.03143(8) 0.86134(10) 0.0285 Uani
N3B N 0.69150(11) 0.15065(9) 0.78548(11) 0.0325 Uani
C1D C 0.53703(13) 0.73742(10) 1.16440(13) 0.0338 Uani
H2D H 0.5798 0.7308 1.2266 0.0410 Uiso
C2D C 0.42537(15) 0.80162(11) 1.05441(14) 0.0396 Uani
H3D H 0.3877 0.8416 1.0370 0.0480 Uiso
C3D C 0.53176(13) 0.68788(10) 1.10166(13) 0.0348 Uani
H4D H 0.5703 0.6485 1.1209 0.0420 Uiso
C4D C 0.41547(15) 0.75436(11) 0.98765(13) 0.0394 Uani
H5D H 0.3714 0.7618 0.9262 0.0470 Uiso
C5D C 0.46982(12) 0.69602(9) 1.01041(12) 0.0279 Uani
C6D C 0.45990(14) 0.64532(10) 0.93595(13) 0.0327 Uani
H6D H 0.5001 0.6600 0.9119 0.0390 Uiso
H7D H 0.3983 0.6479 0.8852 0.0390 Uiso
C7D C 0.48041(12) 0.57042(9) 0.96822(12) 0.0272 Uani
C8D C 0.56513(12) 0.54304(10) 1.00477(12) 0.0291 Uani
C9D C 0.58410(12) 0.47481(10) 1.03529(12) 0.0286 Uani
C10E C 0.14022(14) -0.51845(11) 0.41179(16) 0.0421 Uani
H8E H 0.1811 -0.5493 0.4067 0.0500 Uiso
C11E C -0.00114(14) -0.48752(12) 0.37223(17) 0.0482 Uani
H9E H -0.0631 -0.4963 0.3384 0.0580 Uiso
C12E C 0.17324(14) -0.46226(12) 0.47123(17) 0.0453 Uani
H10E H 0.2355 -0.4555 0.5060 0.0540 Uiso
C13E C 0.02690(15) -0.43038(12) 0.42961(18) 0.0500 Uani
H11E H -0.0152 -0.4008 0.4344 0.0600 Uiso
C14E C 0.11647(13) -0.41617(9) 0.48023(12) 0.0293 Uani
C15E C 0.15115(15) -0.35473(11) 0.54581(14) 0.0370 Uani
H12E H 0.1897 -0.3729 0.6081 0.0440 Uiso
H13E H 0.1004 -0.3305 0.5462 0.0440 Uiso
C16E C 0.20315(14) -0.30206(9) 0.52241(14) 0.0327 Uani
C17E C 0.16100(13) -0.25724(10) 0.44824(14) 0.0340 Uani
C18E C 0.20621(14) -0.20668(10) 0.42718(14) 0.0353 Uani
N4 N 0.2808(2) 0.83270(14) 0.7839(2) 0.0989 Uani
H1 H 0.2901 0.7924 0.8129 0.1190 Uiso
C19 C 0.2290(2) 0.88430(14) 0.79716(18) 0.0664 Uani
C20 C 0.1800(3) 0.87113(17) 0.8426(2) 0.0975 Uani
H14 H 0.1826 0.8262 0.8683 0.1170 Uiso
C21 C 0.1277(3) 0.9236(2) 0.8502(2) 0.1057 Uani
H15 H 0.0925 0.9138 0.8788 0.1270 Uiso
C22 C 0.1268(2) 0.99028(18) 0.8160(2) 0.0791 Uani
H16 H 0.0917 1.0265 0.8215 0.0950 Uiso
C23 C 0.1767(2) 1.00289(14) 0.77465(17) 0.0575 Uani
H17 H 0.1770 1.0486 0.7522 0.0690 Uiso
C24 C 0.22701(18) 0.95091(14) 0.76446(16) 0.0549 Uani
H18 H 0.2608 0.9612 0.7345 0.0660 Uiso
C25 C 0.3196(3) 0.8442(2) 0.7231(3) 0.1021 Uani
H19 H 0.3534 0.8026 0.7236 0.1530 Uiso
H20 H 0.3593 0.8850 0.7444 0.1530 Uiso
H21 H 0.2721 0.8528 0.6609 0.1530 Uiso
loop_
_atom_site_aniso_label
_atom_site_aniso_U_11
_atom_site_aniso_U_22
_atom_site_aniso_U_33
_atom_site_aniso_U_23
_atom_site_aniso_U_13
_atom_site_aniso_U_12
Cd1 0.02868(11) 0.01690(10) 0.02918(11) 0.000 0.01435(8) 0.000
F1 0.0324(6) 0.0391(7) 0.0579(8) -0.0034(6) 0.0231(6) -0.0107(5)
F2 0.0244(6) 0.0419(6) 0.0497(7) -0.0020(5) 0.0150(5) 0.0043(5)
F3 0.0322(6) 0.0430(7) 0.0562(8) -0.0068(6) 0.0165(6) -0.0057(5)
F4 0.0489(8) 0.0388(7) 0.0500(7) 0.0073(6) 0.0166(6) -0.0013(6)
O1 0.0360(8) 0.0412(8) 0.0566(10) -0.0049(7) 0.0151(8) 0.0104(7)
O2 0.0973(15) 0.0525(10) 0.0670(11) -0.0078(9) 0.0613(12) -0.0199(10)
O3 0.0315(7) 0.0484(9) 0.0443(8) -0.0019(7) 0.0190(7) 0.0088(6)
N1 0.0332(8) 0.0223(7) 0.0298(8) -0.0003(6) 0.0124(7) 0.0019(6)
N2 0.0268(7) 0.0213(7) 0.0355(8) -0.0032(6) 0.0134(7) -0.0023(6)
N3 0.0289(8) 0.0324(8) 0.0361(8) -0.0112(7) 0.0155(7) -0.0064(7)
C1 0.0348(10) 0.0257(9) 0.0282(9) -0.0025(7) 0.0048(8) 0.0038(7)
C2 0.0464(12) 0.0343(10) 0.0333(10) 0.0042(8) 0.0152(9) 0.0180(9)
C3 0.0356(10) 0.0241(9) 0.0337(10) -0.0019(7) 0.0078(8) 0.0062(7)
C4 0.0430(11) 0.0394(11) 0.0262(9) 0.0025(8) 0.0088(8) 0.0126(9)
C5 0.0289(9) 0.0222(8) 0.0299(9) -0.0011(7) 0.0120(7) -0.0025(7)
C6 0.0373(10) 0.0282(9) 0.0271(9) -0.0032(7) 0.0111(8) -0.0007(8)
C7 0.0302(9) 0.0242(8) 0.0261(8) -0.0059(7) 0.0126(7) -0.0016(7)
C8 0.0261(9) 0.0307(9) 0.0313(9) -0.0082(7) 0.0143(8) -0.0073(7)
C9 0.0218(8) 0.0323(9) 0.0293(9) -0.0066(7) 0.0104(7) 0.0020(7)
C10 0.0297(10) 0.0374(11) 0.0597(13) -0.0196(10) 0.0219(10) -0.0053(8)
C11 0.0277(10) 0.0421(12) 0.0655(15) -0.0250(11) 0.0148(10) -0.0032(9)
C12 0.0278(10) 0.0434(12) 0.0631(14) -0.0239(11) 0.0204(10) -0.0114(9)
C13 0.0354(11) 0.0410(12) 0.0688(15) -0.0246(11) 0.0210(11) 0.0002(9)
C14 0.0363(10) 0.0233(8) 0.0305(9) -0.0041(7) 0.0177(8) -0.0066(7)
C15 0.0455(12) 0.0307(10) 0.0412(11) -0.0133(8) 0.0258(10) -0.0116(9)
C16 0.0398(11) 0.0218(8) 0.0402(10) -0.0117(7) 0.0221(9) -0.0070(7)
C17 0.0305(9) 0.0279(9) 0.0411(11) -0.0118(8) 0.0150(8) -0.0047(7)
C18 0.0406(11) 0.0241(9) 0.0392(10) -0.0054(7) 0.0174(9) -0.0015(8)
Cd1F 0.02868 0.0169 0.02918 0 0.01435 0
Cd1G 0.02868 0.0169 0.02918 0 0.01435 0
F1D 0.0324 0.0391 0.0579 -0.0034 0.0231 -0.0107
F2D 0.0244 0.0419 0.0497 -0.002 0.015 0.0043
F3E 0.0322 0.043 0.0562 -0.0068 0.0165 -0.0057
F4E 0.0489 0.0388 0.05 0.0073 0.0166 -0.0013
O1B 0.036 0.0412 0.0566 0.0049 0.0151 -0.0104
O2B 0.0973 0.0525 0.067 0.0078 0.0613 0.0199
O3B 0.0315 0.0484 0.0443 0.0019 0.019 -0.0088
N1D 0.0332 0.0223 0.0298 -0.0003 0.0124 0.0019
N1B 0.0332 0.0223 0.0298 0.0003 0.0124 -0.0019
N2E 0.0268 0.0213 0.0355 -0.0032 0.0134 -0.0023
N2B 0.0268 0.0213 0.0355 0.0032 0.0134 0.0023
N3B 0.0289 0.0324 0.0361 0.0112 0.0155 0.0064
C1D 0.0348 0.0257 0.0282 -0.0025 0.0048 0.0038
C2D 0.0464 0.0343 0.0333 0.0042 0.0152 0.018
C3D 0.0356 0.0241 0.0337 -0.0019 0.0078 0.0062
C4D 0.043 0.0394 0.0262 0.0025 0.0088 0.0126
C5D 0.0289 0.0222 0.0299 -0.0011 0.012 -0.0025
C6D 0.0373 0.0282 0.0271 -0.0032 0.0111 -0.0007
C7D 0.0302 0.0242 0.0261 -0.0059 0.0126 -0.0016
C8D 0.0261 0.0307 0.0313 -0.0082 0.0143 -0.0073
C9D 0.0218 0.0323 0.0293 -0.0066 0.0104 0.002
C10E 0.0297 0.0374 0.0597 -0.0196 0.0219 -0.0053
C11E 0.0277 0.0421 0.0655 -0.025 0.0148 -0.0032
C12E 0.0278 0.0434 0.0631 -0.0239 0.0204 -0.0114
C13E 0.0354 0.041 0.0688 -0.0246 0.021 0.0002
C14E 0.0363 0.0233 0.0305 -0.0041 0.0177 -0.0066
C15E 0.0455 0.0307 0.0412 -0.0133 0.0258 -0.0116
C16E 0.0398 0.0218 0.0402 -0.0117 0.0221 -0.007
C17E 0.0305 0.0279 0.0411 -0.0118 0.015 -0.0047
C18E 0.0406 0.0241 0.0392 -0.0054 0.0174 -0.0015
N4 0.113(2) 0.0477(14) 0.0674(17) 0.0059(13) -0.0120(17) 0.0095(15)
C19 0.075(2) 0.0490(15) 0.0360(13) -0.0078(11) -0.0051(13) -0.0093(13)
C20 0.163(4) 0.0566(19) 0.0334(13) -0.0081(12) 0.0151(19) -0.062(2)
C21 0.156(4) 0.116(3) 0.066(2) -0.045(2) 0.070(2) -0.095(3)
C22 0.094(2) 0.075(2) 0.080(2) -0.0344(17) 0.051(2) -0.0303(18)
C23 0.0762(18) 0.0455(14) 0.0431(13) -0.0039(10) 0.0223(13) -0.0149(13)
C24 0.0606(16) 0.0546(15) 0.0373(12) -0.0066(10) 0.0137(11) -0.0164(12)
C25 0.106(3) 0.113(3) 0.067(2) -0.010(2) 0.025(2) 0.029(3)
loop_
_geom_bond_atom_site_label_1
_geom_bond_atom_site_label_2
_geom_bond_site_symmetry_1
_geom_bond_site_symmetry_2
Cd1 O1 1_555 1_555
F1 C8 1_555 1_555
F2 C9 1_555 1_555
F3 C17 1_555 1_555
F4 C18 1_555 1_555
O1 N3 1_555 1_555
O2 N3 1_555 1_555
O3 N3 1_555 1_555
N1 Cd1 1_555 1_555
N2 Cd1 1_555 1_555
N4 H1 1_555 1_555
C1 N1 1_555 1_555
H2 C1 1_555 1_555
C2 N1 1_555 1_555
H3 C2 1_555 1_555
C3 C1 1_555 1_555
H4 C3 1_555 1_555
C4 C2 1_555 1_555
H5 C4 1_555 1_555
C5 C3 1_555 1_555
C6 C5 1_555 1_555
H6 C6 1_555 1_555
H7 C6 1_555 1_555
C7 C6 1_555 1_555
C8 C7 1_555 1_555
C9 C8 1_555 1_555
C10 N2 1_555 1_555
H8 C10 1_555 1_555
C11 N2 1_555 1_555
H9 C11 1_555 1_555
C12 C10 1_555 1_555
H10 C12 1_555 1_555
C13 C11 1_555 1_555
H11 C13 1_555 1_555
C14 C12 1_555 1_555
C15 C14 1_555 1_555
H12 C15 1_555 1_555
H13 C15 1_555 1_555
C16 C15 1_555 1_555
C17 C16 1_555 1_555
C18 C17 1_555 1_555
C19 N4 1_555 1_555
C20 C19 1_555 1_555
H14 C20 1_555 1_555
C21 C20 1_555 1_555
H15 C21 1_555 1_555
C22 C21 1_555 1_555
H16 C22 1_555 1_555
C23 C22 1_555 1_555
H17 C23 1_555 1_555
C24 C19 1_555 1_555
H18 C24 1_555 1_555
C25 N4 1_555 1_555
H19 C25 1_555 1_555
H20 C25 1_555 1_555
H21 C25 1_555 1_555
Cd1F N1D 1_555 1_555
Cd1G N2E 1_555 1_555
F1D C8D 1_555 1_555
F2D C9D 1_555 1_555
F3E C17E 1_555 1_555
F4E C18E 1_555 1_555
O1B Cd1 1_555 1_555
O2B N3B 1_555 1_555
O3B N3B 1_555 1_555
N1D C1D 1_555 1_555
N1B Cd1 1_555 1_555
N2E C10E 1_555 1_555
N2B Cd1 1_555 1_555
N3B O1B 1_555 1_555
C1D H2D 1_555 1_555
C2D N1D 1_555 1_555
H3D C2D 1_555 1_555
C3D C1D 1_555 1_555
H4D C3D 1_555 1_555
C4D C2D 1_555 1_555
H5D C4D 1_555 1_555
C5D C3D 1_555 1_555
C6D C5D 1_555 1_555
H6D C6D 1_555 1_555
H7D C6D 1_555 1_555
C7D C9 1_555 1_555
C8D C7D 1_555 1_555
C9D C7 1_555 1_555
C10E H8E 1_555 1_555
C11E N2E 1_555 1_555
H9E C11E 1_555 1_555
C12E C10E 1_555 1_555
H10E C12E 1_555 1_555
C13E C11E 1_555 1_555
H11E C13E 1_555 1_555
C14E C12E 1_555 1_555
C15E C14E 1_555 1_555
H12E C15E 1_555 1_555
H13E C15E 1_555 1_555
C16E C18 1_555 1_555
C17E C16E 1_555 1_555
C18E C16 1_555 1_555
C4 C5 1_555 1_555
C13 C14 1_555 1_555
C23 C24 1_555 1_555
C4D C5D 1_555 1_555
C6D C7D 1_555 1_555
C8D C9D 1_555 1_555
C13E C14E 1_555 1_555
C15E C16E 1_555 1_555
C17E C18E 1_555 1_555

#END
