
#######################################################################
#
#                 Cambridge Crystallographic Data Centre
#                                CCDC 
#
#######################################################################
#
# If this CIF has been generated from an entry in the Cambridge 
# Structural Database, then it will include bibliographic, chemical, 
# crystal, experimental, refinement or atomic coordinate data resulting 
# from the CCDC's data processing and validation procedures.
#
#######################################################################

data_MICNES
_chemical_formula_moiety         '(C48 H34 Cd1 F8 N6 O6)n'
_symmetry_cell_setting           monoclinic
_symmetry_space_group_name_H-M   'C 2/c'
_symmetry_Int_Tables_number      15
_space_group_name_Hall           '-C 2yc'
loop_
_symmetry_equiv_pos_site_id
_symmetry_equiv_pos_as_xyz
1 x,y,z
2 1/2+x,1/2+y,z
3 -x,y,1/2-z
4 1/2-x,1/2+y,1/2-z
5 -x,-y,-z
6 1/2-x,1/2-y,-z
7 x,-y,1/2+z
8 1/2+x,1/2-y,1/2+z
_cell_length_a                   18.9509(17)
_cell_length_b                   19.1159(17)
_cell_length_c                   17.1188(16)
_cell_angle_alpha                90
_cell_angle_beta                 121.116(2)
_cell_angle_gamma                90
_cell_volume                     5309.26
loop_
_atom_site_label
_atom_site_type_symbol
_atom_site_fract_x
_atom_site_fract_y
_atom_site_fract_z
_atom_site_U_iso_or_equiv
_atom_site_thermal_displace_type
Cd1 Cd 0.5000 0.125384(9) 0.7500 0.0290 Uani
F1 F 0.60101(9) 0.48953(8) 0.93325(10) 0.0632 Uani
F2 F 0.49441(10) 0.59510(7) 0.87998(10) 0.0597 Uani
F3 F 0.35189(8) -0.21660(6) 0.43890(9) 0.0501 Uani
F4 F 0.34735(9) -0.34769(6) 0.48843(10) 0.0542 Uani
O1 O 0.35606(11) 0.15518(8) 0.70976(11) 0.0518 Uani
O2 O 0.40463(10) 0.08546(8) 0.82514(12) 0.0558 Uani
O3 O 0.27915(10) 0.12113(8) 0.76092(12) 0.0522 Uani
N1 N 0.54087(10) 0.21033(8) 0.86748(11) 0.0332 Uani
N2 N 0.42660(11) 0.03574(8) 0.64458(11) 0.0341 Uani
N3 N 0.34560(11) 0.12053(8) 0.76568(12) 0.0359 Uani
C1 C 0.61827(15) 0.21952(11) 0.93417(16) 0.0449 Uani
C2 C 0.48568(14) 0.25567(12) 0.86327(18) 0.0489 Uani
C3 C 0.64394(15) 0.27402(12) 0.99593(16) 0.0452 Uani
C4 C 0.50639(15) 0.31183(12) 0.92212(18) 0.0524 Uani
C5 C 0.58776(13) 0.32258(10) 0.98937(14) 0.0362 Uani
C6 C 0.61680(17) 0.38311(12) 1.05637(18) 0.0498 Uani
C7 C 0.55617(14) 0.44302(10) 1.02745(14) 0.0401 Uani
C8 C 0.55122(14) 0.49396(11) 0.96738(15) 0.0427 Uani
C9 C 0.49671(15) 0.54903(10) 0.94113(14) 0.0424 Uani
C10 C 0.41298(15) 0.03428(11) 0.56017(14) 0.0431 Uani
C11 C 0.38714(15) -0.01239(10) 0.66484(15) 0.0409 Uani
C12 C 0.35934(16) -0.01206(11) 0.49451(15) 0.0442 Uani
C13 C 0.33259(15) -0.05968(11) 0.60299(15) 0.0423 Uani
C14 C 0.31570(12) -0.05910(9) 0.51427(13) 0.0331 Uani
C15 C 0.25238(15) -0.10655(11) 0.44068(15) 0.0392 Uani
C16 C 0.25151(13) -0.18000(9) 0.47234(13) 0.0350 Uani
C17 C 0.30091(13) -0.23198(10) 0.46933(14) 0.0367 Uani
C18 C 0.29855(13) -0.29971(10) 0.49529(14) 0.0372 Uani
H1 H 0.6647(17) 0.1811(13) 0.9436(18) 0.0700 Uiso
H2 H 0.4281(15) 0.2496(11) 0.8132(16) 0.0450 Uiso
H3 H 0.7037(16) 0.2801(12) 1.0461(19) 0.0640 Uiso
H4 H 0.4628(16) 0.3434(12) 0.9126(17) 0.0550 Uiso
H5 H 0.6662(19) 0.3958(14) 1.068(2) 0.0670 Uiso
H6 H 0.6321(17) 0.3645(12) 1.113(2) 0.0590 Uiso
H7 H 0.4421(14) 0.0690(12) 0.5477(16) 0.0520 Uiso
H8 H 0.4002(15) -0.0113(12) 0.7248(17) 0.0510 Uiso
H9 H 0.3485(14) -0.0113(11) 0.4371(17) 0.0470 Uiso
H10 H 0.3052(14) -0.0884(12) 0.6190(16) 0.0470 Uiso
H11 H 0.2631(13) -0.1095(10) 0.3932(16) 0.0380 Uiso
H12 H 0.1988(15) -0.0882(11) 0.4198(15) 0.0420 Uiso
Cd1F Cd 0.5000 0.874616(9) 1.2500 0.0290 Uani
Cd1G Cd 0.0000 -0.625384(9) 0.2500 0.0290 Uani
F1D F 0.39899(9) 0.51047(8) 1.06675(10) 0.0632 Uani
F2D F 0.50559(10) 0.40490(7) 1.12002(10) 0.0597 Uani
F3E F 0.14811(8) -0.28340(6) 0.56110(9) 0.0501 Uani
F4E F 0.15265(9) -0.15231(6) 0.51157(10) 0.0542 Uani
O1B O 0.64394(11) 0.15518(8) 0.79024(11) 0.0518 Uani
O2B O 0.59537(10) 0.08546(8) 0.67486(12) 0.0558 Uani
O3B O 0.72085(10) 0.12113(8) 0.73908(12) 0.0522 Uani
N1D N 0.45913(10) 0.78967(8) 1.13252(11) 0.0332 Uani
N1B N 0.45913(10) 0.21033(8) 0.63252(11) 0.0332 Uani
N2E N 0.07340(11) -0.53574(8) 0.35542(11) 0.0341 Uani
N2B N 0.57340(11) 0.03574(8) 0.85542(11) 0.0341 Uani
N3B N 0.65440(11) 0.12053(8) 0.73432(12) 0.0359 Uani
C1D C 0.38173(15) 0.78048(11) 1.06583(16) 0.0449 Uani
C2D C 0.51432(14) 0.74433(12) 1.13673(18) 0.0489 Uani
C3D C 0.35606(15) 0.72598(12) 1.00407(16) 0.0452 Uani
C4D C 0.49361(15) 0.68817(12) 1.07788(18) 0.0524 Uani
C5D C 0.41224(13) 0.67742(10) 1.01063(14) 0.0362 Uani
C6D C 0.38320(17) 0.61689(12) 0.94363(18) 0.0498 Uani
C7D C 0.44383(14) 0.55698(10) 0.97255(14) 0.0401 Uani
C8D C 0.44878(14) 0.50604(11) 1.03262(15) 0.0427 Uani
C9D C 0.50329(15) 0.45097(10) 1.05887(14) 0.0424 Uani
C10E C 0.08702(15) -0.53428(11) 0.43983(14) 0.0431 Uani
C11E C 0.11286(15) -0.48761(10) 0.33516(15) 0.0409 Uani
C12E C 0.14066(16) -0.48794(11) 0.50549(15) 0.0442 Uani
C13E C 0.16741(15) -0.44032(11) 0.39701(15) 0.0423 Uani
C14E C 0.18430(12) -0.44090(9) 0.48573(13) 0.0331 Uani
C15E C 0.24762(15) -0.39345(11) 0.55932(15) 0.0392 Uani
C16E C 0.24849(13) -0.32000(9) 0.52766(13) 0.0350 Uani
C17E C 0.19909(13) -0.26802(10) 0.53067(14) 0.0367 Uani
C18E C 0.20145(13) -0.20029(10) 0.50471(14) 0.0372 Uani
H1D H 0.3353(17) 0.8189(13) 1.0564(18) 0.0700 Uiso
H2D H 0.5719(15) 0.7504(11) 1.1868(16) 0.0450 Uiso
H3D H 0.2963(16) 0.7199(12) 0.9539(19) 0.0640 Uiso
H4D H 0.5372(16) 0.6566(12) 1.0874(17) 0.0550 Uiso
H5D H 0.3338(19) 0.6042(14) 0.932(2) 0.0670 Uiso
H6D H 0.3679(17) 0.6355(12) 0.887(2) 0.0590 Uiso
H7E H 0.0579(14) -0.5690(12) 0.4523(16) 0.0520 Uiso
H8E H 0.0998(15) -0.4887(12) 0.2752(17) 0.0510 Uiso
H9E H 0.1515(14) -0.4887(11) 0.5629(17) 0.0470 Uiso
H10E H 0.1948(14) -0.4116(12) 0.3810(16) 0.0470 Uiso
H11E H 0.2369(13) -0.3905(10) 0.6068(16) 0.0380 Uiso
H12E H 0.3012(15) -0.4118(11) 0.5802(15) 0.0420 Uiso
C19 C 0.24780(14) 0.37971(11) 0.71189(15) 0.0416 Uani
C20 C 0.26208(15) 0.44970(11) 0.73769(15) 0.0420 Uani
C21 C 0.33001(15) 0.48469(13) 0.74875(15) 0.0468 Uani
C22 C 0.38481(17) 0.45200(16) 0.73261(18) 0.0593 Uani
C23 C 0.37158(19) 0.38316(17) 0.7044(2) 0.0691 Uani
C24 C 0.30390(17) 0.34702(15) 0.69474(19) 0.0587 Uani
C25 C 0.17415(14) 0.34259(11) 0.69937(14) 0.0410 Uani
C26 C 0.09692(15) 0.37406(12) 0.65354(17) 0.0473 Uani
C27 C 0.02829(19) 0.33918(16) 0.6394(2) 0.0653 Uani
C28 C 0.0347(2) 0.27221(16) 0.6721(2) 0.0689 Uani
C29 C 0.1106(2) 0.24110(15) 0.7185(2) 0.0660 Uani
C30 C 0.17911(18) 0.27494(13) 0.73150(18) 0.0541 Uani
H13 H 0.2262(14) 0.4700(11) 0.7487(16) 0.0420 Uiso
H14 H 0.3416(15) 0.5361(13) 0.7721(18) 0.0600 Uiso
H15 H 0.4309(17) 0.4752(14) 0.7333(19) 0.0750 Uiso
H16 H 0.412(2) 0.3518(16) 0.698(3) 0.1100 Uiso
H17 H 0.2961(17) 0.2968(14) 0.6826(19) 0.0730 Uiso
H18 H 0.0917(15) 0.4183(12) 0.6324(17) 0.0560 Uiso
H19 H -0.021(2) 0.3570(14) 0.610(2) 0.0710 Uiso
H20 H -0.0103(18) 0.2496(15) 0.666(2) 0.0770 Uiso
H21 H 0.1138(17) 0.1985(15) 0.742(2) 0.0720 Uiso
H22 H 0.2294(15) 0.2585(11) 0.7602(17) 0.0430 Uiso
loop_
_atom_site_aniso_label
_atom_site_aniso_U_11
_atom_site_aniso_U_22
_atom_site_aniso_U_33
_atom_site_aniso_U_23
_atom_site_aniso_U_13
_atom_site_aniso_U_12
Cd1 0.03626(12) 0.02021(10) 0.02765(11) 0.000 0.01452(9) 0.000
F1 0.0697(10) 0.0676(9) 0.0695(10) -0.0108(7) 0.0481(9) 0.0016(8)
F2 0.0758(10) 0.0473(7) 0.0528(9) 0.0049(6) 0.0310(8) -0.0023(7)
F3 0.0499(8) 0.0499(7) 0.0601(9) 0.0005(6) 0.0352(7) -0.0069(6)
F4 0.0590(9) 0.0402(7) 0.0727(10) 0.0012(6) 0.0407(8) 0.0094(6)
O1 0.0708(12) 0.0441(9) 0.0532(10) -0.0038(7) 0.0411(10) -0.0154(8)
O2 0.0473(9) 0.0505(9) 0.0527(10) -0.0049(8) 0.0138(9) 0.0094(8)
O3 0.0393(9) 0.0669(11) 0.0561(11) -0.0013(8) 0.0287(8) -0.0038(8)
N1 0.0351(9) 0.0262(8) 0.0372(9) -0.0041(7) 0.0179(8) 0.0013(7)
N2 0.0452(10) 0.0262(8) 0.0313(9) -0.0015(6) 0.0200(8) -0.0062(7)
N3 0.0391(10) 0.0301(8) 0.0396(10) -0.0088(7) 0.0211(9) -0.0057(7)
C1 0.0439(13) 0.0411(12) 0.0436(13) -0.0062(9) 0.0182(11) 0.0082(10)
C2 0.0362(12) 0.0422(12) 0.0591(15) -0.0188(11) 0.0180(12) -0.0023(10)
C3 0.0378(12) 0.0441(12) 0.0425(13) -0.0092(10) 0.0127(11) 0.0036(10)
C4 0.0408(13) 0.0425(12) 0.0680(17) -0.0200(11) 0.0239(13) 0.0025(10)
C5 0.0427(12) 0.0304(10) 0.0323(11) -0.0051(8) 0.0171(10) 0.0018(9)
C6 0.0466(14) 0.0399(13) 0.0428(14) -0.0135(10) 0.0089(12) 0.0065(11)
C7 0.0439(12) 0.0293(10) 0.0353(11) -0.0139(8) 0.0121(10) -0.0009(9)
C8 0.0472(13) 0.0411(11) 0.0387(12) -0.0137(9) 0.0215(11) -0.0031(10)
C9 0.0538(14) 0.0314(10) 0.0343(11) -0.0079(8) 0.0173(11) -0.0048(9)
C10 0.0552(14) 0.0396(11) 0.0349(12) -0.0012(9) 0.0236(11) -0.0155(10)
C11 0.0610(15) 0.0334(10) 0.0357(11) -0.0060(9) 0.0303(12) -0.0122(10)
C12 0.0594(15) 0.0426(12) 0.0302(11) -0.0010(9) 0.0228(11) -0.0125(10)
C13 0.0611(15) 0.0338(11) 0.0405(12) -0.0068(9) 0.0323(12) -0.0161(10)
C14 0.0399(11) 0.0240(9) 0.0323(10) -0.0009(7) 0.0165(9) -0.0004(8)
C15 0.0469(13) 0.0300(10) 0.0336(11) -0.0027(8) 0.0157(11) -0.0059(9)
C16 0.0373(11) 0.0284(9) 0.0299(10) -0.0071(7) 0.0107(9) -0.0079(8)
C17 0.0365(11) 0.0367(11) 0.0357(11) -0.0054(8) 0.0178(10) -0.0081(9)
C18 0.0362(11) 0.0305(10) 0.0393(11) -0.0067(8) 0.0156(10) -0.0017(8)
Cd1F 0.03626 0.02021 0.02765 0 0.01452 0
Cd1G 0.03626 0.02021 0.02765 0 0.01452 0
F1D 0.0697 0.0676 0.0695 -0.0108 0.0481 0.0016
F2D 0.0758 0.0473 0.0528 0.0049 0.031 -0.0023
F3E 0.0499 0.0499 0.0601 0.0005 0.0352 -0.0069
F4E 0.059 0.0402 0.0727 0.0012 0.0407 0.0094
O1B 0.0708 0.0441 0.0532 0.0038 0.0411 0.0154
O2B 0.0473 0.0505 0.0527 0.0049 0.0138 -0.0094
O3B 0.0393 0.0669 0.0561 0.0013 0.0287 0.0038
N1D 0.0351 0.0262 0.0372 -0.0041 0.0179 0.0013
N1B 0.0351 0.0262 0.0372 0.0041 0.0179 -0.0013
N2E 0.0452 0.0262 0.0313 -0.0015 0.02 -0.0062
N2B 0.0452 0.0262 0.0313 0.0015 0.02 0.0062
N3B 0.0391 0.0301 0.0396 0.0088 0.0211 0.0057
C1D 0.0439 0.0411 0.0436 -0.0062 0.0182 0.0082
C2D 0.0362 0.0422 0.0591 -0.0188 0.018 -0.0023
C3D 0.0378 0.0441 0.0425 -0.0092 0.0127 0.0036
C4D 0.0408 0.0425 0.068 -0.02 0.0239 0.0025
C5D 0.0427 0.0304 0.0323 -0.0051 0.0171 0.0018
C6D 0.0466 0.0399 0.0428 -0.0135 0.0089 0.0065
C7D 0.0439 0.0293 0.0353 -0.0139 0.0121 -0.0009
C8D 0.0472 0.0411 0.0387 -0.0137 0.0215 -0.0031
C9D 0.0538 0.0314 0.0343 -0.0079 0.0173 -0.0048
C10E 0.0552 0.0396 0.0349 -0.0012 0.0236 -0.0155
C11E 0.061 0.0334 0.0357 -0.006 0.0303 -0.0122
C12E 0.0594 0.0426 0.0302 -0.001 0.0228 -0.0125
C13E 0.0611 0.0338 0.0405 -0.0068 0.0323 -0.0161
C14E 0.0399 0.024 0.0323 -0.0009 0.0165 -0.0004
C15E 0.0469 0.03 0.0336 -0.0027 0.0157 -0.0059
C16E 0.0373 0.0284 0.0299 -0.0071 0.0107 -0.0079
C17E 0.0365 0.0367 0.0357 -0.0054 0.0178 -0.0081
C18E 0.0362 0.0305 0.0393 -0.0067 0.0156 -0.0017
C19 0.0418(12) 0.0465(12) 0.0327(11) -0.0003(9) 0.0166(10) 0.0078(10)
C20 0.0427(13) 0.0457(12) 0.0365(12) -0.0003(9) 0.0196(11) 0.0079(10)
C21 0.0464(13) 0.0538(14) 0.0340(12) 0.0002(10) 0.0164(11) 0.0007(11)
C22 0.0508(15) 0.0781(19) 0.0517(15) -0.0088(13) 0.0283(14) -0.0066(14)
C23 0.0553(17) 0.090(2) 0.071(2) -0.0168(16) 0.0390(16) 0.0050(16)
C24 0.0563(16) 0.0581(16) 0.0615(17) -0.0137(13) 0.0304(14) 0.0068(13)
C25 0.0473(13) 0.0389(11) 0.0347(11) -0.0046(9) 0.0197(10) 0.0050(10)
C26 0.0472(13) 0.0436(13) 0.0483(14) -0.0005(11) 0.0227(12) 0.0060(11)
C27 0.0481(16) 0.0646(18) 0.076(2) -0.0048(15) 0.0270(16) 0.0026(14)
C28 0.0656(19) 0.0694(19) 0.072(2) -0.0123(15) 0.0357(18) -0.0222(16)
C29 0.081(2) 0.0471(15) 0.0579(17) -0.0009(13) 0.0274(17) -0.0133(15)
C30 0.0578(17) 0.0418(13) 0.0500(15) 0.0013(11) 0.0189(14) 0.0053(12)
loop_
_geom_bond_atom_site_label_1
_geom_bond_atom_site_label_2
_geom_bond_site_symmetry_1
_geom_bond_site_symmetry_2
Cd1 O1 1_555 1_555
F1 C8 1_555 1_555
F2 C9 1_555 1_555
F3 C17 1_555 1_555
F4 C18 1_555 1_555
O1 N3 1_555 1_555
O2 N3 1_555 1_555
O3 N3 1_555 1_555
N1 Cd1 1_555 1_555
N2 Cd1 1_555 1_555
C1 N1 1_555 1_555
C2 N1 1_555 1_555
C3 C1 1_555 1_555
C4 C2 1_555 1_555
C5 C3 1_555 1_555
C6 C5 1_555 1_555
C7 C6 1_555 1_555
C8 C7 1_555 1_555
C9 C8 1_555 1_555
C10 N2 1_555 1_555
C11 N2 1_555 1_555
C12 C10 1_555 1_555
C13 C11 1_555 1_555
C14 C12 1_555 1_555
C15 C14 1_555 1_555
C16 C15 1_555 1_555
C17 C16 1_555 1_555
C18 C17 1_555 1_555
C19 C20 1_555 1_555
C20 C21 1_555 1_555
C21 C22 1_555 1_555
C22 C23 1_555 1_555
C23 C24 1_555 1_555
C24 C19 1_555 1_555
C25 C19 1_555 1_555
C26 C25 1_555 1_555
C27 C26 1_555 1_555
C28 C27 1_555 1_555
C29 C28 1_555 1_555
C30 C25 1_555 1_555
H1 C1 1_555 1_555
H2 C2 1_555 1_555
H3 C3 1_555 1_555
H4 C4 1_555 1_555
H5 C6 1_555 1_555
H6 C6 1_555 1_555
H7 C10 1_555 1_555
H8 C11 1_555 1_555
H9 C12 1_555 1_555
H10 C13 1_555 1_555
H11 C15 1_555 1_555
H12 C15 1_555 1_555
H13 C20 1_555 1_555
H14 C21 1_555 1_555
H15 C22 1_555 1_555
H16 C23 1_555 1_555
H17 C24 1_555 1_555
H18 C26 1_555 1_555
H19 C27 1_555 1_555
H20 C28 1_555 1_555
H21 C29 1_555 1_555
H22 C30 1_555 1_555
Cd1F N1D 1_555 1_555
Cd1G N2E 1_555 1_555
F1D C8D 1_555 1_555
F2D C9D 1_555 1_555
F3E C17E 1_555 1_555
F4E C18E 1_555 1_555
O1B Cd1 1_555 1_555
O2B N3B 1_555 1_555
O3B N3B 1_555 1_555
N1D C1D 1_555 1_555
N1B Cd1 1_555 1_555
N2E C10E 1_555 1_555
N2B Cd1 1_555 1_555
N3B O1B 1_555 1_555
C1D C3D 1_555 1_555
C2D N1D 1_555 1_555
C3D C5D 1_555 1_555
C4D C2D 1_555 1_555
C5D C4D 1_555 1_555
C6D C5D 1_555 1_555
C7D C9 1_555 1_555
C8D C7D 1_555 1_555
C9D C7 1_555 1_555
C10E C12E 1_555 1_555
C11E N2E 1_555 1_555
C12E C14E 1_555 1_555
C13E C11E 1_555 1_555
C14E C13E 1_555 1_555
C15E C14E 1_555 1_555
C16E C18 1_555 1_555
C17E C16E 1_555 1_555
C18E C16 1_555 1_555
H1D C1D 1_555 1_555
H2D C2D 1_555 1_555
H3D C3D 1_555 1_555
H4D C4D 1_555 1_555
H5D C6D 1_555 1_555
H6D C6D 1_555 1_555
H7E C10E 1_555 1_555
H8E C11E 1_555 1_555
H9E C12E 1_555 1_555
H10E C13E 1_555 1_555
H11E C15E 1_555 1_555
H12E C15E 1_555 1_555
C4 C5 1_555 1_555
C13 C14 1_555 1_555
C29 C30 1_555 1_555
C6D C7D 1_555 1_555
C8D C9D 1_555 1_555
C15E C16E 1_555 1_555
C17E C18E 1_555 1_555

#END
