
#######################################################################
#
#                 Cambridge Crystallographic Data Centre
#                                CCDC 
#
#######################################################################
#
# If this CIF has been generated from an entry in the Cambridge 
# Structural Database, then it will include bibliographic, chemical, 
# crystal, experimental, refinement or atomic coordinate data resulting 
# from the CCDC's data processing and validation procedures.
#
#######################################################################

data_MICNAO
_chemical_formula_moiety         '(C180 H136 Cd4 F32 N24 O24)n'
_symmetry_cell_setting           monoclinic
_symmetry_space_group_name_H-M   'P 21/c'
_symmetry_Int_Tables_number      14
_space_group_name_Hall           '-P 2ybc'
loop_
_symmetry_equiv_pos_site_id
_symmetry_equiv_pos_as_xyz
1 x,y,z
2 -x,1/2+y,1/2-z
3 -x,-y,-z
4 x,1/2-y,1/2+z
_cell_length_a                   17.037(3)
_cell_length_b                   19.255(3)
_cell_length_c                   29.997(5)
_cell_angle_alpha                90
_cell_angle_beta                 90.922(5)
_cell_angle_gamma                90
_cell_volume                     9839.16
loop_
_atom_site_label
_atom_site_type_symbol
_atom_site_fract_x
_atom_site_fract_y
_atom_site_fract_z
Cd1 Cd 0.123463(15) -0.129232(9) 0.125798(9)
Cd2 Cd -0.371418(14) 0.619801(9) 0.124209(9)
F1 F -0.20767(12) 0.16675(9) 0.18619(6)
F2 F -0.09238(11) 0.18418(9) 0.04536(6)
F3 F -0.16613(12) 0.29779(9) 0.20389(6)
F4 F -0.05108(11) 0.31498(9) 0.06290(6)
F5 F 0.42966(12) 0.15439(9) 0.05996(6)
F6 F 0.35996(11) 0.19889(9) 0.20849(6)
F7 F 0.39724(11) 0.28592(9) 0.03861(6)
F8 F 0.32787(11) 0.33029(9) 0.18723(6)
F9 F 0.24622(12) -0.48893(10) 0.15541(7)
F10 F 0.34569(12) -0.42015(9) 0.29608(7)
F11 F 0.16644(12) -0.59068(10) 0.19348(7)
F12 F 0.26615(12) -0.52247(10) 0.33398(7)
F13 F -0.08684(12) -0.41012(10) -0.04947(7)
F14 F -0.00503(12) -0.50833(10) -0.08987(7)
F15 F -0.48577(12) 0.97366(10) 0.08827(7)
F16 F -0.41103(12) 1.08132(9) 0.05414(7)
O1 O 0.03312(15) -0.16081(12) 0.18673(8)
O2 O 0.11795(13) -0.09006(12) 0.21530(9)
O3 O 0.01695(14) -0.12166(13) 0.25308(8)
O4 O 0.21654(16) -0.15840(13) 0.06331(9)
O5 O 0.13153(14) -0.08481(13) 0.03899(9)
O6 O 0.23316(14) -0.10974(14) -0.00013(8)
O7 O -0.27581(13) 0.65321(11) 0.06687(8)
O8 O -0.36105(13) 0.58494(11) 0.03529(8)
O9 O -0.26097(13) 0.62188(13) -0.00197(8)
O10 O -0.46795(13) 0.64750(11) 0.18285(8)
O11 O -0.38251(13) 0.57764(12) 0.21233(9)
O12 O -0.48401(13) 0.60811(13) 0.24957(8)
N1 N 0.02453(15) -0.04230(12) 0.11616(9)
N2 N -0.27600(15) 0.53062(12) 0.13423(9)
N3 N 0.22101(16) -0.04491(13) 0.13655(9)
N4 N 0.53406(15) 0.53165(12) 0.11100(9)
N5 N 0.20540(14) -0.21991(12) 0.15632(9)
N6 N 0.29481(15) -0.79416(12) 0.33843(9)
N7 N 0.04390(14) -0.21910(12) 0.09439(9)
N8 N -0.44947(15) 0.70729(12) 0.08866(9)
N9 N 0.05635(16) -0.12446(13) 0.21884(9)
N10 N 0.19386(16) -0.11754(14) 0.03355(10)
N11 N -0.29939(15) 0.61992(13) 0.03273(9)
N12 N -0.44494(15) 0.61136(13) 0.21549(9)
C1 C 0.0030(2) -0.00209(15) 0.14999(11)
H1 H 0.0326 -0.0048 0.1771
C2 C -0.01717(19) -0.03553(16) 0.07778(11)
H2 H -0.0022 -0.0625 0.0528
C3 C -0.0593(2) 0.04305(16) 0.14806(11)
H3 H -0.0718 0.0704 0.1733
C4 C -0.08054(19) 0.00874(16) 0.07299(11)
H4 H -0.1079 0.0119 0.0452
C5 C -0.10412(18) 0.04869(14) 0.10905(11)
C6 C -0.17431(18) 0.09737(15) 0.10492(11)
H5 H -0.1964 0.0947 0.0742
H6 H -0.2154 0.0822 0.1257
C7 C -0.15192(17) 0.17095(15) 0.11507(11)
C8 C -0.16918(18) 0.20282(16) 0.15503(11)
C9 C -0.11127(18) 0.21157(15) 0.08513(11)
C10 C -0.14787(19) 0.27006(16) 0.16385(11)
C11 C -0.09021(18) 0.27870(16) 0.09398(11)
C12 C -0.10753(18) 0.31060(14) 0.13421(11)
C13 C -0.08404(18) 0.38429(14) 0.14467(11)
H7 H -0.0429 0.3991 0.1238
H8 H -0.0614 0.3863 0.1753
C14 C -0.15305(18) 0.43430(14) 0.14115(11)
C15 C -0.17622(19) 0.47303(15) 0.17769(11)
H9 H -0.1508 0.4669 0.2058
C16 C -0.19499(19) 0.44324(15) 0.10145(11)
H10 H -0.1822 0.4167 0.0759
C17 C -0.23630(19) 0.52047(16) 0.17286(12)
H11 H -0.2504 0.5474 0.1980
C18 C -0.25511(19) 0.49080(15) 0.09949(11)
H12 H -0.2834 0.4958 0.0721
C19 C 0.2315(2) 0.00520(19) 0.10772(14)
H13 H 0.1945 0.0091 0.0838
C20 C 0.2712(3) -0.0447(2) 0.17049(18)
H14 H 0.2645 -0.0786 0.1931
C21 C 0.3332(2) 0.0016(2) 0.17559(17)
H15 H 0.3664 -0.0004 0.2013
C22 C 0.2918(3) 0.0526(2) 0.10930(14)
H16 H 0.2957 0.0871 0.0868
C23 C 0.34604(19) 0.05001(15) 0.14328(11)
C24 C 0.41606(19) 0.09846(15) 0.14749(11)
H17 H 0.4362 0.0974 0.1786
H18 H 0.4583 0.0814 0.1280
C25 C 0.39650(18) 0.17230(15) 0.13498(11)
C26 C 0.40402(18) 0.19742(16) 0.09203(11)
C27 C 0.36991(18) 0.21898(16) 0.16629(11)
C28 C 0.38816(18) 0.26541(16) 0.08082(11)
C29 C 0.35337(18) 0.28690(15) 0.15510(11)
C30 C 0.36189(17) 0.31209(15) 0.11219(11)
C31 C 0.34211(18) 0.38651(15) 0.09975(11)
H19 H 0.3214 0.3876 0.0687
H20 H 0.3002 0.4035 0.1195
C32 C 0.41182(18) 0.43491(14) 0.10349(11)
C33 C 0.4576(2) 0.44010(15) 0.14211(11)
H21 H 0.4478 0.4106 0.1668
C34 C 0.43135(19) 0.47811(16) 0.06859(11)
H22 H 0.4032 0.4751 0.0411
C35 C 0.5169(2) 0.48795(15) 0.14434(11)
H23 H 0.5478 0.4904 0.1710
C36 C 0.49132(19) 0.52545(16) 0.07342(11)
H24 H 0.5029 0.5550 0.0490
C37 C 0.23185(17) -0.22436(15) 0.19819(10)
H25 H 0.2190 -0.1880 0.2182
C38 C 0.22445(18) -0.27167(14) 0.12893(10)
H26 H 0.2064 -0.2695 0.0988
C39 C 0.27697(17) -0.27878(15) 0.21423(11)
H27 H 0.2945 -0.2792 0.2444
C40 C 0.26929(18) -0.32855(15) 0.14205(10)
H28 H 0.2812 -0.3641 0.1212
C41 C 0.29650(17) -0.33311(15) 0.18565(11)
C42 C 0.34590(18) -0.39422(16) 0.20156(12)
H29 H 0.3866 -0.3771 0.2227
H30 H 0.3730 -0.4145 0.1757
C43 C 0.29890(18) -0.45093(15) 0.22420(12)
C44 C 0.2523(2) -0.49650(16) 0.20001(12)
C45 C 0.30122(19) -0.46148(16) 0.26969(12)
C46 C 0.2111(2) -0.54944(16) 0.21978(12)
C47 C 0.26036(19) -0.51466(17) 0.28925(11)
C48 C 0.21336(19) -0.56051(16) 0.26512(12)
C49 C 0.16673(19) -0.61746(16) 0.28758(12)
H31 H 0.1400 -0.5971 0.3136
H32 H 0.1254 -0.6336 0.2664
C50 C 0.21318(18) -0.67958(15) 0.30323(11)
C51 C 0.17441(18) -0.73399(15) 0.32354(10)
H33 H 0.1188 -0.7334 0.3255
C52 C 0.29320(18) -0.68566(15) 0.29979(10)
H34 H 0.3223 -0.6505 0.2852
C53 C 0.21679(17) -0.78888(15) 0.34082(10)
H35 H 0.1890 -0.8250 0.3552
C54 C 0.33142(18) -0.74293(15) 0.31747(11)
H36 H 0.3867 -0.7459 0.3145
C55 C 0.01632(17) -0.22139(15) 0.05247(10)
H37 H 0.0276 -0.1836 0.0332
C56 C 0.02635(18) -0.27292(15) 0.12063(11)
H38 H 0.0444 -0.2722 0.1508
C57 C -0.02807(17) -0.27626(15) 0.03563(10)
H39 H -0.0467 -0.2753 0.0056
C58 C -0.01670(18) -0.32942(15) 0.10611(11)
H40 H -0.0270 -0.3666 0.1260
C59 C -0.04492(17) -0.33201(16) 0.06262(12)
C60 C -0.09262(18) -0.39305(16) 0.04568(12)
H41 H -0.1341 -0.3758 0.0250
H42 H -0.1188 -0.4154 0.0712
C61 C -0.04377(18) -0.44713(15) 0.02178(12)
C62 C -0.04380(19) -0.45362(16) -0.02402(13)
C63 C -0.00093(19) -0.50505(17) -0.04505(12)
C64 C -0.52785(18) 0.70938(15) 0.08986(10)
H43 H -0.5547 0.6716 0.1031
C65 C -0.41467(17) 0.76075(14) 0.06907(10)
H44 H -0.3591 0.7599 0.0669
C66 C -0.57149(17) 0.76361(15) 0.07287(11)
H45 H -0.6271 0.7623 0.0742
C67 C -0.45417(17) 0.81719(15) 0.05168(10)
H46 H -0.4259 0.8540 0.0383
C68 C -0.53470(18) 0.82004(15) 0.05382(10)
C69 C -0.58428(18) 0.88163(16) 0.03870(12)
H47 H -0.6236 0.8650 0.0166
H48 H -0.6132 0.8993 0.0647
C70 C -0.53990(19) 0.94155(15) 0.01838(12)
C71 C -0.4938(2) 0.98572(17) 0.04404(12)
C72 C -0.45485(19) 1.04211(16) 0.02644(12)
Cd1B Cd -0.123463(15) -0.870768(9) -0.125798(9)
Cd1_2 Cd -0.876537(15) -0.129232(9) 0.125798(9)
Cd1A Cd -0.123463(15) 1.370768(9) 0.374202(9)
Cd2_2 Cd 0.628582(14) 0.619801(9) 0.124209(9)
Cd2A Cd 0.371418(14) -0.880199(9) 0.375791(9)
Cd2B Cd -0.628582(14) 1.380199(9) -0.124209(9)
Cd2B_2 Cd 0.371418(14) -1.619801(9) -0.124209(9)
F1B F 0.20767(12) -1.16675(9) -0.18619(6)
F2B F 0.09238(11) -1.18418(9) -0.04536(6)
F3B F 0.16613(12) -1.29779(9) -0.20389(6)
F4B F 0.05108(11) -1.31498(9) -0.06290(6)
F5_2 F -0.57034(12) 0.15439(9) 0.05996(6)
F6_2 F -0.64004(11) 0.19889(9) 0.20849(6)
F7_2 F -0.60276(11) 0.28592(9) 0.03861(6)
F8_2 F -0.67213(11) 0.33029(9) 0.18723(6)
F9A F -0.24622(12) 1.01107(10) 0.34459(7)
F10A F -0.34569(12) 1.07985(9) 0.20392(7)
F11A F -0.16644(12) 0.90932(10) 0.30652(7)
F12A F -0.26615(12) 0.97753(10) 0.16602(7)
F13B F 0.08684(12) -0.58988(10) 0.04947(7)
F14B F 0.00503(12) -0.49167(10) 0.08987(7)
F15B F -0.51423(12) 1.02634(10) -0.08827(7)
F16B F -0.58897(12) 0.91868(9) -0.05414(7)
O1B O -0.03312(15) -0.83919(12) -0.18673(8)
O2B O -0.11795(13) -0.90994(12) -0.21530(9)
O3B O -0.01695(14) -0.87834(13) -0.25308(8)
O4B O -0.21654(16) -0.84160(13) -0.06331(9)
O5B O -0.13153(14) -0.91519(13) -0.03899(9)
O6B O -0.23316(14) -0.89026(14) 0.00013(8)
O7_2 O 0.72419(13) 0.65321(11) 0.06687(8)
O8_2 O 0.63895(13) 0.58494(11) 0.03529(8)
O9_2 O 0.73903(13) 0.62188(13) -0.00197(8)
O10_2 O 0.53205(13) 0.64750(11) 0.18285(8)
O11_2 O 0.61749(13) 0.57764(12) 0.21233(9)
O12_2 O 0.51599(13) 0.60811(13) 0.24957(8)
N1B N -0.02453(15) -0.95770(12) -0.11616(9)
N2B N 0.27600(15) -1.53062(12) -0.13423(9)
N2_2 N 0.72400(15) 0.53062(12) 0.13423(9)
N3_2 N -0.77899(16) -0.04491(13) 0.13655(9)
N3B N -0.22101(16) -0.95509(13) -0.13655(9)
N4_2 N -0.46594(15) 0.53165(12) 0.11100(9)
N5A N -0.20540(14) 1.28009(12) 0.34368(9)
N5B N -0.20540(14) -0.78009(12) -0.15632(9)
N6A N -0.29481(15) 0.70584(12) 0.16157(9)
N6A_2 N 0.70519(15) 0.70584(12) 0.16157(9)
N7B N -0.04390(14) -0.78090(12) -0.09439(9)
N8B N -0.55053(15) 1.29271(12) -0.08866(9)
N8_2 N 0.55053(15) 0.70729(12) 0.08866(9)
N9B N -0.05635(16) -0.87554(13) -0.21884(9)
N10B N -0.19386(16) -0.88246(14) -0.03355(10)
N11_2 N 0.70061(15) 0.61992(13) 0.03273(9)
N12_2 N 0.55506(15) 0.61136(13) 0.21549(9)
C1B C -0.0030(2) -0.99791(15) -0.14999(11)
H1B H -0.0326 -0.9952 -0.1771
C2B C 0.01717(19) -0.96447(16) -0.07778(11)
H2B H 0.0022 -0.9375 -0.0528
C3B C 0.0593(2) -1.04305(16) -0.14806(11)
H3B H 0.0718 -1.0704 -0.1733
C4B C 0.08054(19) -1.00874(16) -0.07299(11)
H4B H 0.1079 -1.0119 -0.0452
C5B C 0.10412(18) -1.04869(14) -0.10905(11)
C6B C 0.17431(18) -1.09737(15) -0.10492(11)
H5B H 0.1964 -1.0947 -0.0742
H6B H 0.2154 -1.0822 -0.1257
C7B C 0.15192(17) -1.17095(15) -0.11507(11)
C8B C 0.16918(18) -1.20282(16) -0.15503(11)
C9B C 0.11127(18) -1.21157(15) -0.08513(11)
C10B C 0.14787(19) -1.27006(16) -0.16385(11)
C11B C 0.09021(18) -1.27870(16) -0.09398(11)
C12B C 0.10753(18) -1.31060(14) -0.13421(11)
C13B C 0.08404(18) -1.38429(14) -0.14467(11)
H7B H 0.0429 -1.3991 -0.1238
H8B H 0.0614 -1.3863 -0.1753
C14B C 0.15305(18) -1.43430(14) -0.14115(11)
C15B C 0.17622(19) -1.47303(15) -0.17769(11)
H9B H 0.1508 -1.4669 -0.2058
C16B C 0.19499(19) -1.44324(15) -0.10145(11)
H10B H 0.1822 -1.4167 -0.0759
C17B C 0.23630(19) -1.52047(16) -0.17286(12)
H11B H 0.2504 -1.5474 -0.1980
C18B C 0.25511(19) -1.49080(15) -0.09949(11)
H12B H 0.2834 -1.4958 -0.0721
C19_2 C -0.7685(2) 0.00520(19) 0.10772(14)
H13_2 H -0.8055 0.0091 0.0838
C20_2 C -0.7288(3) -0.0447(2) 0.17049(18)
H14_2 H -0.7355 -0.0786 0.1931
C21_2 C -0.6668(2) 0.0016(2) 0.17559(17)
H15_2 H -0.6336 -0.0004 0.2013
C22_2 C -0.7082(3) 0.0526(2) 0.10930(14)
H16_2 H -0.7043 0.0871 0.0868
C23_2 C -0.65396(19) 0.05001(15) 0.14328(11)
C24_2 C -0.58394(19) 0.09846(15) 0.14749(11)
H17_2 H -0.5638 0.0974 0.1786
H18_2 H -0.5417 0.0814 0.1280
C25_2 C -0.60350(18) 0.17230(15) 0.13498(11)
C26_2 C -0.59598(18) 0.19742(16) 0.09203(11)
C27_2 C -0.63009(18) 0.21898(16) 0.16629(11)
C28_2 C -0.61184(18) 0.26541(16) 0.08082(11)
C29_2 C -0.64663(18) 0.28690(15) 0.15510(11)
C30_2 C -0.63811(17) 0.31209(15) 0.11219(11)
C31_2 C -0.65789(18) 0.38651(15) 0.09975(11)
H19_2 H -0.6786 0.3876 0.0687
H20_2 H -0.6998 0.4035 0.1195
C32_2 C -0.58818(18) 0.43491(14) 0.10349(11)
C33_2 C -0.5424(2) 0.44010(15) 0.14211(11)
H21_2 H -0.5522 0.4106 0.1668
C34_2 C -0.56865(19) 0.47811(16) 0.06859(11)
H22_2 H -0.5968 0.4751 0.0411
C35_2 C -0.4831(2) 0.48795(15) 0.14434(11)
H23_2 H -0.4522 0.4904 0.1710
C36_2 C -0.50868(19) 0.52545(16) 0.07342(11)
H24_2 H -0.4971 0.5550 0.0490
C37A C -0.23185(17) 1.27564(15) 0.30181(10)
H25A H -0.2190 1.3120 0.2818
C38A C -0.22445(18) 1.22833(14) 0.37107(10)
H26A H -0.2064 1.2305 0.4012
C39A C -0.27697(17) 1.22122(15) 0.28577(11)
H27A H -0.2945 1.2208 0.2556
C40A C -0.26929(18) 1.17145(15) 0.35795(10)
H28A H -0.2812 1.1359 0.3788
C41A C -0.29650(17) 1.16689(15) 0.31435(11)
C42A C -0.34590(18) 1.10578(16) 0.29844(12)
H29A H -0.3866 1.1229 0.2773
H30A H -0.3730 1.0855 0.3243
C43A C -0.29890(18) 1.04907(15) 0.27580(12)
C44A C -0.2523(2) 1.00350(16) 0.29999(12)
C45A C -0.30122(19) 1.03852(16) 0.23031(12)
C46A C -0.2111(2) 0.95056(16) 0.28022(12)
C47A C -0.26036(19) 0.98534(17) 0.21075(11)
C48A C -0.21336(19) 0.93949(16) 0.23488(12)
C49A C -0.16673(19) 0.88254(16) 0.21242(12)
H31A H -0.1400 0.9029 0.1864
H32A H -0.1254 0.8664 0.2336
C50A C -0.21318(18) 0.82042(15) 0.19677(11)
C51A C -0.17441(18) 0.76601(15) 0.17646(10)
H33A H -0.1188 0.7666 0.1745
C52A C -0.29320(18) 0.81434(15) 0.20021(10)
H34A H -0.3223 0.8495 0.2148
C53A C -0.21679(17) 0.71112(15) 0.15918(10)
H35A H -0.1890 0.6750 0.1448
C54A C -0.33142(18) 0.75707(15) 0.18253(11)
H36A H -0.3867 0.7541 0.1855
C55B C -0.01632(17) -0.77861(15) -0.05247(10)
H37B H -0.0276 -0.8164 -0.0332
C56B C -0.02635(18) -0.72708(15) -0.12063(11)
H38B H -0.0444 -0.7278 -0.1508
C57B C 0.02807(17) -0.72374(15) -0.03563(10)
H39B H 0.0467 -0.7247 -0.0056
C58B C 0.01670(18) -0.67058(15) -0.10611(11)
H40B H 0.0270 -0.6334 -0.1260
C59B C 0.04492(17) -0.66799(16) -0.06262(12)
C60B C 0.09262(18) -0.60695(16) -0.04568(12)
H41B H 0.1341 -0.6242 -0.0250
H42B H 0.1188 -0.5846 -0.0712
C61B C 0.04377(18) -0.55287(15) -0.02178(12)
C62B C 0.04380(19) -0.54638(16) 0.02402(13)
C63B C 0.00093(19) -0.49495(17) 0.04505(12)
C64B C -0.47215(18) 1.29062(15) -0.08986(10)
H43B H -0.4453 1.3284 -0.1031
C65B C -0.58533(17) 1.23925(14) -0.06907(10)
H44B H -0.6409 1.2401 -0.0669
C66B C -0.42851(17) 1.23639(15) -0.07287(11)
H45B H -0.3729 1.2377 -0.0742
C67B C -0.54583(17) 1.18281(15) -0.05168(10)
H46B H -0.5741 1.1460 -0.0383
C68B C -0.46530(18) 1.17996(15) -0.05382(10)
C69B C -0.41572(18) 1.11837(16) -0.03870(12)
H47B H -0.3764 1.1350 -0.0166
H48B H -0.3868 1.1007 -0.0647
C70B C -0.46010(19) 1.05845(15) -0.01838(12)
C71B C -0.5062(2) 1.01428(17) -0.04404(12)
C72B C -0.54515(19) 0.95789(16) -0.02644(12)
C73 C 0.1901(2) 0.14820(18) 0.00694(13)
C74 C 0.2070(2) 0.2151(2) 0.02105(14)
H49 H 0.2439 0.2421 0.0051
C75 C 0.1711(2) 0.2433(2) 0.05792(14)
H50 H 0.1847 0.2888 0.0674
C76 C 0.1166(2) 0.2066(2) 0.08075(14)
H51 H 0.0916 0.2264 0.1058
C77 C 0.0981(2) 0.1398(2) 0.06697(14)
H52 H 0.0602 0.1137 0.0826
C78 C 0.1342(2) 0.1114(2) 0.03095(13)
H53 H 0.1210 0.0654 0.0220
C79 C 0.2279(2) 0.11825(19) -0.03306(13)
C80 C 0.2720(2) 0.0556(2) -0.02814(17)
C81 C 0.2168(3) 0.1547(2) -0.07536(14)
C82 C 0.44230(18) 0.84256(16) 0.25636(11)
C83 C 0.4599(2) 0.77485(17) 0.26919(12)
H54 H 0.4969 0.7488 0.2527
C84 C 0.4244(2) 0.7452(2) 0.30545(13)
H55 H 0.4374 0.6990 0.3139
C85 C 0.3700(2) 0.7821(2) 0.32958(13)
H56 H 0.3454 0.7617 0.3546
C86 C 0.3520(2) 0.8485(2) 0.31700(13)
H57 H 0.3145 0.8741 0.3333
C87 C 0.3875(2) 0.87872(18) 0.28109(12)
H58 H 0.3744 0.9250 0.2730
C88 C 0.4805(2) 0.87428(17) 0.21691(12)
C89 C 0.4733(3) 0.8386(2) 0.17477(13)
C90 C 0.5207(2) 0.9387(2) 0.22221(15)
C91 C 0.0456(2) 0.1482(2) 0.24045(15)
C92 C -0.0041(3) 0.0486(3) 0.2819(2)
C93 C -0.0847(4) 0.1527(3) 0.2738(2)
C94 C 0.1753(4) 0.1350(4) 0.2009(3)
C95 C 0.1052(5) 0.2489(3) 0.2030(2)
C96 C 0.0588(4) 0.0839(3) 0.2519(2)
C97 C -0.0713(5) 0.0934(7) 0.2866(3)
C98 C -0.0182(4) 0.1879(4) 0.2462(3)
C99 C 0.1153(5) 0.1852(4) 0.2097(2)
C104 C 0.7083(2) 0.1559(2) 0.50967(14)
C105 C 0.8349(3) 0.1509(3) 0.47314(17)
C106 C 0.7472(3) 0.0510(3) 0.46896(18)
C107 C 0.6588(3) 0.2609(2) 0.54806(17)
C108 C 0.5788(3) 0.1527(3) 0.55232(19)
C109 C 0.7753(3) 0.1909(3) 0.5003(2)
C110 C 0.8149(4) 0.0872(4) 0.4605(2)
C111 C 0.6898(3) 0.0909(2) 0.49823(18)
C112 C 0.6456(4) 0.1960(3) 0.54021(17)
loop_
_geom_bond_atom_site_label_1
_geom_bond_atom_site_label_2
_geom_bond_site_symmetry_1
_geom_bond_site_symmetry_2
Cd1 O1 1_555 1_555
Cd2 O7 1_555 1_555
F1 C8 1_555 1_555
F2 C9 1_555 1_555
F3 C10 1_555 1_555
F4 C11 1_555 1_555
F5 C26 1_555 1_555
F6 C27 1_555 1_555
F7 C28 1_555 1_555
F8 C29 1_555 1_555
F9 C44 1_555 1_555
F10 C45 1_555 1_555
F11 C46 1_555 1_555
F12 C47 1_555 1_555
F13 C62 1_555 1_555
F14 C63 1_555 1_555
F15 C71 1_555 1_555
F16 C72 1_555 1_555
O1 N9 1_555 1_555
O2 N9 1_555 1_555
O3 N9 1_555 1_555
O4 Cd1 1_555 1_555
O5 N10 1_555 1_555
O6 N10 1_555 1_555
O7 N11 1_555 1_555
O8 N11 1_555 1_555
O9 N11 1_555 1_555
O10 Cd2 1_555 1_555
O11 N12 1_555 1_555
O12 N12 1_555 1_555
N1 Cd1 1_555 1_555
N2 Cd2 1_555 1_555
N3 Cd1 1_555 1_555
N4 C35 1_555 1_555
N5 Cd1 1_555 1_555
N6 C53 1_555 1_555
N7 Cd1 1_555 1_555
N8 Cd2 1_555 1_555
N10 O4 1_555 1_555
N12 O10 1_555 1_555
C1 N1 1_555 1_555
H1 C1 1_555 1_555
C2 N1 1_555 1_555
H2 C2 1_555 1_555
C3 C1 1_555 1_555
H3 C3 1_555 1_555
C4 C2 1_555 1_555
H4 C4 1_555 1_555
C5 C3 1_555 1_555
C6 C5 1_555 1_555
H5 C6 1_555 1_555
H6 C6 1_555 1_555
C7 C6 1_555 1_555
C8 C7 1_555 1_555
C9 C7 1_555 1_555
C10 C8 1_555 1_555
C11 C9 1_555 1_555
C12 C10 1_555 1_555
C13 C12 1_555 1_555
H7 C13 1_555 1_555
H8 C13 1_555 1_555
C14 C13 1_555 1_555
C15 C14 1_555 1_555
H9 C15 1_555 1_555
C16 C14 1_555 1_555
H10 C16 1_555 1_555
C17 N2 1_555 1_555
H11 C17 1_555 1_555
C18 N2 1_555 1_555
H12 C18 1_555 1_555
C19 N3 1_555 1_555
H13 C19 1_555 1_555
C20 N3 1_555 1_555
H14 C20 1_555 1_555
C21 C20 1_555 1_555
H15 C21 1_555 1_555
C22 C19 1_555 1_555
H16 C22 1_555 1_555
C23 C21 1_555 1_555
C24 C23 1_555 1_555
H17 C24 1_555 1_555
H18 C24 1_555 1_555
C25 C24 1_555 1_555
C26 C25 1_555 1_555
C27 C25 1_555 1_555
C28 C26 1_555 1_555
C29 C27 1_555 1_555
C30 C28 1_555 1_555
C31 C30 1_555 1_555
H19 C31 1_555 1_555
H20 C31 1_555 1_555
C32 C31 1_555 1_555
C33 C32 1_555 1_555
H21 C33 1_555 1_555
C34 C32 1_555 1_555
H22 C34 1_555 1_555
C35 C33 1_555 1_555
H23 C35 1_555 1_555
C36 N4 1_555 1_555
H24 C36 1_555 1_555
C37 N5 1_555 1_555
H25 C37 1_555 1_555
C38 N5 1_555 1_555
H26 C38 1_555 1_555
C39 C37 1_555 1_555
H27 C39 1_555 1_555
C40 C38 1_555 1_555
H28 C40 1_555 1_555
C41 C39 1_555 1_555
C42 C41 1_555 1_555
H29 C42 1_555 1_555
H30 C42 1_555 1_555
C43 C42 1_555 1_555
C44 C43 1_555 1_555
C45 C43 1_555 1_555
C46 C44 1_555 1_555
C47 C45 1_555 1_555
C48 C46 1_555 1_555
C49 C48 1_555 1_555
H31 C49 1_555 1_555
H32 C49 1_555 1_555
C50 C49 1_555 1_555
C51 C50 1_555 1_555
H33 C51 1_555 1_555
C52 C50 1_555 1_555
H34 C52 1_555 1_555
C53 C51 1_555 1_555
H35 C53 1_555 1_555
C54 N6 1_555 1_555
H36 C54 1_555 1_555
C55 N7 1_555 1_555
H37 C55 1_555 1_555
C56 N7 1_555 1_555
H38 C56 1_555 1_555
C57 C55 1_555 1_555
H39 C57 1_555 1_555
C58 C56 1_555 1_555
H40 C58 1_555 1_555
C59 C57 1_555 1_555
C60 C59 1_555 1_555
H41 C60 1_555 1_555
H42 C60 1_555 1_555
C61 C60 1_555 1_555
C62 C61 1_555 1_555
C63 C62 1_555 1_555
C64 N8 1_555 1_555
H43 C64 1_555 1_555
C65 N8 1_555 1_555
H44 C65 1_555 1_555
C66 C64 1_555 1_555
H45 C66 1_555 1_555
C67 C65 1_555 1_555
H46 C67 1_555 1_555
C68 C66 1_555 1_555
C69 C68 1_555 1_555
H47 C69 1_555 1_555
H48 C69 1_555 1_555
C70 C69 1_555 1_555
C71 C70 1_555 1_555
C72 C71 1_555 1_555
C73 C74 1_555 1_555
C74 H49 1_555 1_555
C75 C74 1_555 1_555
H50 C75 1_555 1_555
C76 C75 1_555 1_555
H51 C76 1_555 1_555
C77 C76 1_555 1_555
H52 C77 1_555 1_555
C78 C73 1_555 1_555
H53 C78 1_555 1_555
C79 C73 1_555 1_555
C80 C79 1_555 1_555
C81 C79 1_555 1_555
C82 C83 1_555 1_555
C83 H54 1_555 1_555
C84 C83 1_555 1_555
H55 C84 1_555 1_555
C85 C84 1_555 1_555
H56 C85 1_555 1_555
C86 C85 1_555 1_555
H57 C86 1_555 1_555
C87 C82 1_555 1_555
H58 C87 1_555 1_555
C88 C82 1_555 1_555
C89 C88 1_555 1_555
C90 C88 1_555 1_555
C91 C96 1_555 1_555
C92 C96 1_555 1_555
C93 C97 1_555 1_555
C94 C99 1_555 1_555
C95 C99 1_555 1_555
C97 C92 1_555 1_555
C98 C91 1_555 1_555
C99 C91 1_555 1_555
C104 C109 1_555 1_555
C105 C109 1_555 1_555
C106 C110 1_555 1_555
C107 C112 1_555 1_555
C108 C112 1_555 1_555
C110 C105 1_555 1_555
C111 C104 1_555 1_555
C112 C104 1_555 1_555
Cd1B O1B 1_555 1_555
Cd1_2 N3_2 1_555 1_555
Cd1A N5A 1_555 1_555
Cd2_2 N4 1_555 1_555
Cd2A N6 1_555 1_555
Cd2B N8B 1_555 1_555
Cd2B_2 N2B 1_555 1_555
F1B C8B 1_555 1_555
F2B C9B 1_555 1_555
F3B C10B 1_555 1_555
F4B C11B 1_555 1_555
F5_2 C26_2 1_555 1_555
F6_2 C27_2 1_555 1_555
F7_2 C28_2 1_555 1_555
F8_2 C29_2 1_555 1_555
F9A C44A 1_555 1_555
F10A C45A 1_555 1_555
F11A C46A 1_555 1_555
F12A C47A 1_555 1_555
F13B C62B 1_555 1_555
F14B C63B 1_555 1_555
F15B C71B 1_555 1_555
F16B C72B 1_555 1_555
O1B N9B 1_555 1_555
O2B N9B 1_555 1_555
O3B N9B 1_555 1_555
O4B Cd1B 1_555 1_555
O5B N10B 1_555 1_555
O6B N10B 1_555 1_555
O7_2 Cd2_2 1_555 1_555
O8_2 N11_2 1_555 1_555
O9_2 N11_2 1_555 1_555
O10_2 Cd2_2 1_555 1_555
O11_2 N12_2 1_555 1_555
O12_2 N12_2 1_555 1_555
N1B Cd1B 1_555 1_555
N2B C17B 1_555 1_555
N2_2 Cd2_2 1_555 1_555
N3_2 C19_2 1_555 1_555
N3B Cd1B 1_555 1_555
N4_2 Cd2 1_555 1_555
N5A C37A 1_555 1_555
N5B Cd1B 1_555 1_555
N6A Cd2 1_555 1_555
N6A_2 Cd2_2 1_555 1_555
N7B Cd1B 1_555 1_555
N8B C64B 1_555 1_555
N8_2 Cd2_2 1_555 1_555
N10B O4B 1_555 1_555
N11_2 O7_2 1_555 1_555
N12_2 O10_2 1_555 1_555
C1B N1B 1_555 1_555
H1B C1B 1_555 1_555
C2B N1B 1_555 1_555
H2B C2B 1_555 1_555
C3B C1B 1_555 1_555
H3B C3B 1_555 1_555
C4B C2B 1_555 1_555
H4B C4B 1_555 1_555
C5B C3B 1_555 1_555
C6B C5B 1_555 1_555
H5B C6B 1_555 1_555
H6B C6B 1_555 1_555
C7B C6B 1_555 1_555
C8B C7B 1_555 1_555
C9B C7B 1_555 1_555
C10B C8B 1_555 1_555
C11B C9B 1_555 1_555
C12B C10B 1_555 1_555
C13B C12B 1_555 1_555
H7B C13B 1_555 1_555
H8B C13B 1_555 1_555
C14B C13B 1_555 1_555
C15B C14B 1_555 1_555
H9B C15B 1_555 1_555
C16B C14B 1_555 1_555
H10B C16B 1_555 1_555
C17B C15B 1_555 1_555
H11B C17B 1_555 1_555
C18B N2B 1_555 1_555
H12B C18B 1_555 1_555
C19_2 H13_2 1_555 1_555
C20_2 N3_2 1_555 1_555
H14_2 C20_2 1_555 1_555
C21_2 C20_2 1_555 1_555
H15_2 C21_2 1_555 1_555
C22_2 C19_2 1_555 1_555
H16_2 C22_2 1_555 1_555
C23_2 C21_2 1_555 1_555
C24_2 C23_2 1_555 1_555
H17_2 C24_2 1_555 1_555
H18_2 C24_2 1_555 1_555
C25_2 C24_2 1_555 1_555
C26_2 C25_2 1_555 1_555
C27_2 C25_2 1_555 1_555
C28_2 C26_2 1_555 1_555
C29_2 C27_2 1_555 1_555
C30_2 C28_2 1_555 1_555
C31_2 C30_2 1_555 1_555
H19_2 C31_2 1_555 1_555
H20_2 C31_2 1_555 1_555
C32_2 C31_2 1_555 1_555
C33_2 C32_2 1_555 1_555
H21_2 C33_2 1_555 1_555
C34_2 C32_2 1_555 1_555
H22_2 C34_2 1_555 1_555
C35_2 N4_2 1_555 1_555
H23_2 C35_2 1_555 1_555
C36_2 N4_2 1_555 1_555
H24_2 C36_2 1_555 1_555
C37A H25A 1_555 1_555
C38A N5A 1_555 1_555
H26A C38A 1_555 1_555
C39A C37A 1_555 1_555
H27A C39A 1_555 1_555
C40A C38A 1_555 1_555
H28A C40A 1_555 1_555
C41A C39A 1_555 1_555
C42A C41A 1_555 1_555
H29A C42A 1_555 1_555
H30A C42A 1_555 1_555
C43A C42A 1_555 1_555
C44A C43A 1_555 1_555
C45A C43A 1_555 1_555
C46A C44A 1_555 1_555
C47A C45A 1_555 1_555
C48A C46A 1_555 1_555
C49A C48A 1_555 1_555
H31A C49A 1_555 1_555
H32A C49A 1_555 1_555
C50A C49A 1_555 1_555
C51A C50A 1_555 1_555
H33A C51A 1_555 1_555
C52A C50A 1_555 1_555
H34A C52A 1_555 1_555
C53A N6A 1_555 1_555
H35A C53A 1_555 1_555
C54A N6A 1_555 1_555
H36A C54A 1_555 1_555
C55B N7B 1_555 1_555
H37B C55B 1_555 1_555
C56B N7B 1_555 1_555
H38B C56B 1_555 1_555
C57B C55B 1_555 1_555
H39B C57B 1_555 1_555
C58B C56B 1_555 1_555
H40B C58B 1_555 1_555
C59B C57B 1_555 1_555
C60B C59B 1_555 1_555
H41B C60B 1_555 1_555
H42B C60B 1_555 1_555
C61B C63 1_555 1_555
C62B C61B 1_555 1_555
C63B C61 1_555 1_555
C64B H43B 1_555 1_555
C65B N8B 1_555 1_555
H44B C65B 1_555 1_555
C66B C64B 1_555 1_555
H45B C66B 1_555 1_555
C67B C65B 1_555 1_555
H46B C67B 1_555 1_555
C68B C66B 1_555 1_555
C69B C68B 1_555 1_555
H47B C69B 1_555 1_555
H48B C69B 1_555 1_555
C70B C72 1_555 1_555
C71B C70B 1_555 1_555
C72B C70 1_555 1_555
C4 C5 1_555 1_555
C11 C12 1_555 1_555
C15 C17 1_555 1_555
C16 C18 1_555 1_555
C22 C23 1_555 1_555
C29 C30 1_555 1_555
C34 C36 1_555 1_555
C40 C41 1_555 1_555
C47 C48 1_555 1_555
C52 C54 1_555 1_555
C58 C59 1_555 1_555
C67 C68 1_555 1_555
C77 C78 1_555 1_555
C86 C87 1_555 1_555
C93 C98 1_555 1_555
C106 C111 1_555 1_555
C4B C5B 1_555 1_555
C11B C12B 1_555 1_555
C16B C18B 1_555 1_555
C22_2 C23_2 1_555 1_555
C29_2 C30_2 1_555 1_555
C33_2 C35_2 1_555 1_555
C34_2 C36_2 1_555 1_555
C40A C41A 1_555 1_555
C47A C48A 1_555 1_555
C51A C53A 1_555 1_555
C52A C54A 1_555 1_555
C58B C59B 1_555 1_555
C60B C61B 1_555 1_555
C62B C63B 1_555 1_555
C67B C68B 1_555 1_555
C69B C70B 1_555 1_555
C71B C72B 1_555 1_555

#END
