
#######################################################################
#
#                 Cambridge Crystallographic Data Centre
#                                CCDC 
#
#######################################################################
#
# If this CIF has been generated from an entry in the Cambridge 
# Structural Database, then it will include bibliographic, chemical, 
# crystal, experimental, refinement or atomic coordinate data resulting 
# from the CCDC's data processing and validation procedures.
#
#######################################################################

data_MICPAQ
_chemical_formula_moiety         '(C88 H68 Cd2 F16 N12 O14)n'
_symmetry_cell_setting           triclinic
_symmetry_space_group_name_H-M   'P -1'
_symmetry_Int_Tables_number      2
_space_group_name_Hall           '-P 1'
loop_
_symmetry_equiv_pos_site_id
_symmetry_equiv_pos_as_xyz
1 x,y,z
2 -x,-y,-z
_cell_length_a                   13.047(12)
_cell_length_b                   13.279(12)
_cell_length_c                   17.377(15)
_cell_angle_alpha                67.645(14)
_cell_angle_beta                 64.369(15)
_cell_angle_gamma                87.266(17)
_cell_volume                     2485.58
loop_
_atom_site_label
_atom_site_type_symbol
_atom_site_fract_x
_atom_site_fract_y
_atom_site_fract_z
Cd1 Cd 0.63329(6) 0.37919(5) 0.74923(5)
F1 F -0.0395(6) 0.2028(5) 1.0064(5)
F2 F -0.1461(6) 0.1163(6) 0.9394(5)
F3 F 0.9163(6) 0.6698(5) 0.9087(5)
F4 F 1.1376(6) 0.6850(6) 0.8605(5)
F5 F 1.0698(7) 0.8261(6) 0.5990(6)
F6 F 1.0319(7) 1.0010(6) 0.6458(5)
F7 F 0.4403(6) 0.2049(5) 0.4384(5)
F8 F 0.2960(6) 0.0266(6) 0.4989(6)
O1 O 0.8033(9) 0.2707(6) 0.7292(6)
O2 O 0.6554(8) 0.1594(9) 0.8421(8)
O3 O 0.8062(9) 0.0940(7) 0.7764(6)
O4 O 0.5026(8) 0.5352(8) 0.7679(7)
O5 O 0.5012(9) 0.4990(9) 0.6595(8)
O6 O 0.3737(7) 0.5855(7) 0.7239(6)
N1 N 0.4516(7) 0.2796(6) 0.8615(6)
N2 N 0.6733(7) 0.4093(7) 0.8591(6)
N3 N 0.7806(8) 0.5294(6) 0.6341(6)
N4 N 0.6357(7) 0.3133(6) 0.6408(5)
N5 N 0.7562(7) 0.1732(6) 0.7825(6)
N6 N 0.4557(7) 0.5422(6) 0.7175(6)
C1 C 0.4288(9) 0.2214(9) 0.9520(7)
H1 H 0.4890 0.2210 0.9691
C2 C 0.3618(9) 0.2768(8) 0.8422(7)
H2 H 0.3739 0.3173 0.7799
C3 C 0.3238(9) 0.1637(9) 1.0196(7)
H3 H 0.3131 0.1253 1.0817
C4 C 0.2554(9) 0.2198(8) 0.9060(7)
H4 H 0.1969 0.2206 0.8872
C5 C 0.2319(8) 0.1599(7) 0.9996(6)
C6 C 0.1154(9) 0.0955(8) 1.0749(7)
H5 H 0.1255 0.0360 1.1258
H6 H 0.0669 0.1449 1.1012
C7 C 0.0557(9) 0.0458(8) 1.0372(6)
C8 C -0.0200(8) 0.1024(7) 1.0041(7)
C9 C -0.0727(8) 0.0578(7) 0.9682(6)
C10 C 0.7201(11) 0.3386(9) 0.9103(8)
H7 H 0.7380 0.2717 0.9029
C11 C 0.6539(14) 0.5034(10) 0.8717(11)
H8 H 0.6194 0.5541 0.8378
C12 C 0.7433(10) 0.3619(10) 0.9749(8)
H9 H 0.7713 0.3079 1.0126
C13 C 0.6807(14) 0.5324(11) 0.9310(11)
H10 H 0.6672 0.6019 0.9344
C14 C 0.7266(9) 0.4599(10) 0.9844(8)
C15 C 0.7545(9) 0.4883(11) 1.0523(8)
H11 H 0.7314 0.5608 1.0510
H12 H 0.7100 0.4326 1.1164
C16 C 0.8812(9) 0.4913(9) 1.0263(8)
C17 C 0.9580(10) 0.5837(8) 0.9547(8)
C18 C 1.0719(11) 0.5923(9) 0.9302(8)
C19 C 0.8891(11) 0.5206(9) 0.6152(10)
H13 H 0.9072 0.4499 0.6430
C20 C 0.7555(9) 0.6297(8) 0.5918(9)
H14 H 0.6785 0.6378 0.6020
C21 C 0.9792(10) 0.6069(10) 0.5576(11)
H15 H 1.0558 0.5963 0.5473
C22 C 0.8393(10) 0.7202(8) 0.5344(9)
H16 H 0.8190 0.7902 0.5078
C23 C 0.9518(9) 0.7094(8) 0.5156(7)
C24 C 1.0476(9) 0.8056(8) 0.4484(8)
H17 H 1.0574 0.8260 0.3843
H18 H 1.1206 0.7835 0.4497
C25 C 1.0200(8) 0.9067(7) 0.4749(7)
C26 C 1.0352(9) 0.9131(8) 0.5479(8)
C27 C 1.0158(9) 1.0027(8) 0.5731(7)
C28 C 0.6049(10) 0.2085(8) 0.6647(7)
H19 H 0.5789 0.1599 0.7281
C29 C 0.6754(11) 0.3807(8) 0.5486(8)
H20 H 0.7009 0.4560 0.5292
C30 C 0.6081(9) 0.1648(7) 0.6028(7)
H21 H 0.5844 0.0887 0.6237
C31 C 0.6802(10) 0.3453(7) 0.4830(7)
H22 H 0.7062 0.3959 0.4202
C32 C 0.6473(8) 0.2355(7) 0.5085(6)
C33 C 0.6579(10) 0.1966(8) 0.4331(7)
H23 H 0.6437 0.2569 0.3852
H24 H 0.7378 0.1827 0.4026
C34 C 0.5772(8) 0.0939(7) 0.4672(6)
C35 C 0.4717(9) 0.1056(7) 0.4683(7)
C36 C 0.3969(9) 0.0119(8) 0.4997(7)
Cd1A Cd -0.63329(6) -0.37919(5) 1.25077(5)
Cd1A_2 Cd 1.36671(6) 0.62081(5) 1.25077(5)
Cd1A_3 Cd 1.36671(6) 1.62081(5) 0.25077(5)
Cd1A_4 Cd 0.36671(6) -0.37919(5) 0.25077(5)
F1A F 0.0395(6) -0.2028(5) 0.9936(5)
F2A F 0.1461(6) -0.1163(6) 1.0606(5)
F3A F 1.0837(6) 0.3302(5) 1.0913(5)
F4A F 0.8624(6) 0.3150(6) 1.1395(5)
F5A F 0.9302(7) 1.1739(6) 0.4010(6)
F6A F 0.9681(7) 0.9990(6) 0.3542(5)
F7A F 0.5597(6) -0.2049(5) 0.5616(5)
F8A F 0.7040(6) -0.0266(6) 0.5011(6)
O1A O -0.8033(9) -0.2707(6) 1.2708(6)
O2A O -0.6554(8) -0.1594(9) 1.1579(8)
O3A O -0.8062(9) -0.0940(7) 1.2236(6)
O4A O -0.5026(8) -0.5352(8) 1.2321(7)
O5A O -0.5012(9) -0.4990(9) 1.3405(8)
O6A O -0.3737(7) -0.5855(7) 1.2761(6)
N1A N -0.4516(7) -0.2796(6) 1.1385(6)
N2A N 1.3267(7) 0.5907(7) 1.1409(6)
N2A_2 N -0.6733(7) -0.4093(7) 1.1409(6)
N3A N 1.2194(8) 1.4706(6) 0.3659(6)
N3A_2 N -0.7806(8) -0.5294(6) 1.3659(6)
N4A N 0.3643(7) -0.3133(6) 0.3592(5)
N4A_2 N -0.6357(7) -0.3133(6) 1.3592(5)
N5A N -0.7562(7) -0.1732(6) 1.2175(6)
N6A N -0.4557(7) -0.5422(6) 1.2825(6)
C1A C -0.4288(9) -0.2214(9) 1.0480(7)
H1A H -0.4890 -0.2210 1.0309
C2A C -0.3618(9) -0.2768(8) 1.1578(7)
H2A H -0.3739 -0.3173 1.2201
C3A C -0.3238(9) -0.1637(9) 0.9804(7)
H3A H -0.3131 -0.1253 0.9183
C4A C -0.2554(9) -0.2198(8) 1.0940(7)
H4A H -0.1969 -0.2206 1.1128
C5A C -0.2319(8) -0.1599(7) 1.0004(6)
C6A C -0.1154(9) -0.0955(8) 0.9251(7)
H5A H -0.1255 -0.0360 0.8742
H6A H -0.0669 -0.1449 0.8988
C7A C -0.0557(9) -0.0458(8) 0.9628(6)
C8A C 0.0200(8) -0.1024(7) 0.9959(7)
C9A C 0.0727(8) -0.0578(7) 1.0318(6)
C10A C 1.2799(11) 0.6614(9) 1.0897(8)
H7A H 1.2620 0.7283 1.0971
C11A C 1.3461(14) 0.4966(10) 1.1283(11)
H8A H 1.3806 0.4459 1.1622
C12A C 1.2567(10) 0.6381(10) 1.0251(8)
H9A H 1.2287 0.6921 0.9874
C13A C 1.3193(14) 0.4676(11) 1.0690(11)
H10A H 1.3328 0.3981 1.0656
C14A C 1.2734(9) 0.5401(10) 1.0156(8)
C15A C 1.2455(9) 0.5117(11) 0.9477(8)
H11A H 1.2686 0.4392 0.9490
H12A H 1.2900 0.5674 0.8836
C16A C 1.1188(9) 0.5087(9) 0.9737(8)
C17A C 1.0420(10) 0.4163(8) 1.0453(8)
C18A C 0.9281(11) 0.4077(9) 1.0698(8)
C19A C 1.1109(11) 1.4794(9) 0.3848(10)
H13A H 1.0928 1.5501 0.3570
C20A C 1.2445(9) 1.3703(8) 0.4082(9)
H14A H 1.3215 1.3622 0.3980
C21A C 1.0208(10) 1.3931(10) 0.4424(11)
H15A H 0.9442 1.4037 0.4527
C22A C 1.1607(10) 1.2798(8) 0.4656(9)
H16A H 1.1810 1.2098 0.4922
C23A C 1.0482(9) 1.2906(8) 0.4844(7)
C24A C 0.9524(9) 1.1944(8) 0.5516(8)
H17A H 0.9426 1.1740 0.6157
H18A H 0.8794 1.2165 0.5503
C25A C 0.9800(8) 1.0933(7) 0.5251(7)
C26A C 0.9648(9) 1.0869(8) 0.4521(8)
C27A C 0.9842(9) 0.9973(8) 0.4269(7)
C28A C 0.3951(10) -0.2085(8) 0.3353(7)
H19A H 0.4211 -0.1599 0.2719
C29A C 0.3246(11) -0.3807(8) 0.4514(8)
H20A H 0.2991 -0.4560 0.4708
C30A C 0.3919(9) -0.1648(7) 0.3972(7)
H21A H 0.4156 -0.0887 0.3763
C31A C 0.3198(10) -0.3453(7) 0.5170(7)
H22A H 0.2938 -0.3959 0.5798
C32A C 0.3527(8) -0.2355(7) 0.4915(6)
C33A C 0.3421(10) -0.1966(8) 0.5669(7)
H23A H 0.3563 -0.2569 0.6148
H24A H 0.2622 -0.1827 0.5974
C34A C 0.4228(8) -0.0939(7) 0.5328(6)
C35A C 0.5283(9) -0.1056(7) 0.5317(7)
C36A C 0.6031(9) -0.0119(8) 0.5003(7)
O7 O 0.3457(11) 0.2145(10) 0.1875(8)
C37 C 0.5214(18) 0.1517(14) 0.2015(12)
C38 C 0.6065(16) 0.1553(16) 0.2281(11)
H25 H 0.6109 0.2078 0.2518
C39 C 0.6843(18) 0.082(2) 0.2198(15)
H26 H 0.7379 0.0812 0.2435
C40 C 0.6887(17) 0.012(2) 0.1797(16)
H27 H 0.7437 -0.0379 0.1763
C41 C 0.6129(14) 0.0124(14) 0.1437(14)
H28 H 0.6206 -0.0332 0.1112
C42 C 0.5258(19) 0.0777(11) 0.1536(11)
H29 H 0.4717 0.0756 0.1311
C43 C 0.452(2) 0.232(2) 0.206(3)
H30 H 0.4984 0.3043 0.1589
H31 H 0.4228 0.2344 0.2680
C44 C 0.2699(19) 0.1371(19) 0.2728(15)
H32 H 0.1999 0.1193 0.2699
H33 H 0.2505 0.1666 0.3205
H34 H 0.3055 0.0704 0.2885
O8 O 0.9295(11) 0.5093(12) 0.2946(8)
C45 C 0.858(3) 0.682(3) 0.2757(12)
C46 C 0.922(3) 0.742(6) 0.261(3)
H35 H 1.0023 0.7376 0.2324
C47 C 0.878(4) 0.827(3) 0.289(3)
H36 H 0.9262 0.8945 0.2637
C48 C 0.765(4) 0.814(3) 0.3543(18)
H37 H 0.7405 0.8574 0.3901
C49 C 0.6823(18) 0.7285(18) 0.3654(14)
H38 H 0.6015 0.7280 0.3914
C50 C 0.7318(13) 0.6581(18) 0.3365(11)
H39 H 0.6898 0.5906 0.3530
C51 C 0.874(2) 0.569(2) 0.2366(19)
H40 H 0.7991 0.5296 0.2547
H41 H 0.9239 0.5926 0.1691
C52 C 0.985(3) 0.426(2) 0.2514(16)
H42 H 1.0234 0.3783 0.2866
H43 H 1.0415 0.4655 0.1864
H44 H 0.9254 0.3806 0.2540
loop_
_geom_bond_atom_site_label_1
_geom_bond_atom_site_label_2
_geom_bond_site_symmetry_1
_geom_bond_site_symmetry_2
Cd1 O1 1_555 1_555
F1 C8 1_555 1_555
F2 C9 1_555 1_555
F3 C17 1_555 1_555
F4 C18 1_555 1_555
F5 C26 1_555 1_555
F6 C27 1_555 1_555
F7 C35 1_555 1_555
F8 C36 1_555 1_555
O1 N5 1_555 1_555
O2 N5 1_555 1_555
O3 N5 1_555 1_555
O4 Cd1 1_555 1_555
O5 N6 1_555 1_555
O6 N6 1_555 1_555
O7 C43 1_555 1_555
O8 C51 1_555 1_555
N1 Cd1 1_555 1_555
N2 Cd1 1_555 1_555
N3 Cd1 1_555 1_555
N4 Cd1 1_555 1_555
N6 O4 1_555 1_555
C1 N1 1_555 1_555
H1 C1 1_555 1_555
C2 N1 1_555 1_555
H2 C2 1_555 1_555
C3 C1 1_555 1_555
H3 C3 1_555 1_555
C4 C2 1_555 1_555
H4 C4 1_555 1_555
C5 C3 1_555 1_555
C6 C5 1_555 1_555
H5 C6 1_555 1_555
H6 C6 1_555 1_555
C7 C6 1_555 1_555
C8 C7 1_555 1_555
C9 C8 1_555 1_555
C10 N2 1_555 1_555
H7 C10 1_555 1_555
C11 N2 1_555 1_555
H8 C11 1_555 1_555
C12 C10 1_555 1_555
H9 C12 1_555 1_555
C13 C11 1_555 1_555
H10 C13 1_555 1_555
C14 C12 1_555 1_555
C15 C14 1_555 1_555
H11 C15 1_555 1_555
H12 C15 1_555 1_555
C16 C15 1_555 1_555
C17 C16 1_555 1_555
C18 C17 1_555 1_555
C19 N3 1_555 1_555
H13 C19 1_555 1_555
C20 N3 1_555 1_555
H14 C20 1_555 1_555
C21 C19 1_555 1_555
H15 C21 1_555 1_555
C22 C20 1_555 1_555
H16 C22 1_555 1_555
C23 C21 1_555 1_555
C24 C23 1_555 1_555
H17 C24 1_555 1_555
H18 C24 1_555 1_555
C25 C24 1_555 1_555
C26 C25 1_555 1_555
C27 C26 1_555 1_555
C28 N4 1_555 1_555
H19 C28 1_555 1_555
C29 N4 1_555 1_555
H20 C29 1_555 1_555
C30 C28 1_555 1_555
H21 C30 1_555 1_555
C31 C29 1_555 1_555
H22 C31 1_555 1_555
C32 C30 1_555 1_555
C33 C32 1_555 1_555
H23 C33 1_555 1_555
H24 C33 1_555 1_555
C34 C33 1_555 1_555
C35 C34 1_555 1_555
C36 C35 1_555 1_555
C37 C38 1_555 1_555
C38 H25 1_555 1_555
C39 C38 1_555 1_555
H26 C39 1_555 1_555
C40 C39 1_555 1_555
H27 C40 1_555 1_555
C41 C40 1_555 1_555
H28 C41 1_555 1_555
C42 C37 1_555 1_555
H29 C42 1_555 1_555
C43 C37 1_555 1_555
H30 C43 1_555 1_555
H31 C43 1_555 1_555
C44 O7 1_555 1_555
H32 C44 1_555 1_555
H33 C44 1_555 1_555
H34 C44 1_555 1_555
C45 C46 1_555 1_555
C46 H35 1_555 1_555
C47 C46 1_555 1_555
H36 C47 1_555 1_555
C48 C47 1_555 1_555
H37 C48 1_555 1_555
C49 C48 1_555 1_555
H38 C49 1_555 1_555
C50 C45 1_555 1_555
H39 C50 1_555 1_555
C51 C45 1_555 1_555
H40 C51 1_555 1_555
H41 C51 1_555 1_555
C52 O8 1_555 1_555
H42 C52 1_555 1_555
H43 C52 1_555 1_555
H44 C52 1_555 1_555
Cd1A O1A 1_555 1_555
Cd1A_2 N2A 1_555 1_555
Cd1A_3 N3A 1_555 1_555
Cd1A_4 N4A 1_555 1_555
F1A C8A 1_555 1_555
F2A C9A 1_555 1_555
F3A C17A 1_555 1_555
F4A C18A 1_555 1_555
F5A C26A 1_555 1_555
F6A C27A 1_555 1_555
F7A C35A 1_555 1_555
F8A C36A 1_555 1_555
O1A N5A 1_555 1_555
O2A N5A 1_555 1_555
O3A N5A 1_555 1_555
O4A Cd1A 1_555 1_555
O5A N6A 1_555 1_555
O6A N6A 1_555 1_555
N1A Cd1A 1_555 1_555
N2A C10A 1_555 1_555
N2A_2 Cd1A 1_555 1_555
N3A C19A 1_555 1_555
N3A_2 Cd1A 1_555 1_555
N4A C28A 1_555 1_555
N4A_2 Cd1A 1_555 1_555
N6A O4A 1_555 1_555
C1A N1A 1_555 1_555
H1A C1A 1_555 1_555
C2A N1A 1_555 1_555
H2A C2A 1_555 1_555
C3A C1A 1_555 1_555
H3A C3A 1_555 1_555
C4A C2A 1_555 1_555
H4A C4A 1_555 1_555
C5A C3A 1_555 1_555
C6A C5A 1_555 1_555
H5A C6A 1_555 1_555
H6A C6A 1_555 1_555
C7A C9 1_555 1_555
C8A C7A 1_555 1_555
C9A C7 1_555 1_555
C10A H7A 1_555 1_555
C11A N2A 1_555 1_555
H8A C11A 1_555 1_555
C12A C10A 1_555 1_555
H9A C12A 1_555 1_555
C13A C11A 1_555 1_555
H10A C13A 1_555 1_555
C14A C12A 1_555 1_555
C15A C14A 1_555 1_555
H11A C15A 1_555 1_555
H12A C15A 1_555 1_555
C16A C18 1_555 1_555
C17A C16A 1_555 1_555
C18A C16 1_555 1_555
C19A H13A 1_555 1_555
C20A N3A 1_555 1_555
H14A C20A 1_555 1_555
C21A C19A 1_555 1_555
H15A C21A 1_555 1_555
C22A C20A 1_555 1_555
H16A C22A 1_555 1_555
C23A C21A 1_555 1_555
C24A C23A 1_555 1_555
H17A C24A 1_555 1_555
H18A C24A 1_555 1_555
C25A C27 1_555 1_555
C26A C25A 1_555 1_555
C27A C25 1_555 1_555
C28A H19A 1_555 1_555
C29A N4A 1_555 1_555
H20A C29A 1_555 1_555
C30A C28A 1_555 1_555
H21A C30A 1_555 1_555
C31A C29A 1_555 1_555
H22A C31A 1_555 1_555
C32A C30A 1_555 1_555
C33A C32A 1_555 1_555
H23A C33A 1_555 1_555
H24A C33A 1_555 1_555
C34A C36 1_555 1_555
C35A C34A 1_555 1_555
C36A C34 1_555 1_555
C4 C5 1_555 1_555
C13 C14 1_555 1_555
C22 C23 1_555 1_555
C31 C32 1_555 1_555
C41 C42 1_555 1_555
C49 C50 1_555 1_555
C4A C5A 1_555 1_555
C6A C7A 1_555 1_555
C8A C9A 1_555 1_555
C13A C14A 1_555 1_555
C15A C16A 1_555 1_555
C17A C18A 1_555 1_555
C22A C23A 1_555 1_555
C24A C25A 1_555 1_555
C26A C27A 1_555 1_555
C31A C32A 1_555 1_555
C33A C34A 1_555 1_555
C35A C36A 1_555 1_555

#END
