
#######################################################################
#
#                 Cambridge Crystallographic Data Centre
#                                CCDC 
#
#######################################################################
#
# If this CIF has been generated from an entry in the Cambridge 
# Structural Database, then it will include bibliographic, chemical, 
# crystal, experimental, refinement or atomic coordinate data resulting 
# from the CCDC's data processing and validation procedures.
#
#######################################################################

data_QIDDAI02
_chemical_formula_moiety         '(C44 H32 Cd1 F8 N6 O8)n'
_symmetry_cell_setting           monoclinic
_symmetry_space_group_name_H-M   'C 2/c'
_symmetry_Int_Tables_number      15
_space_group_name_Hall           '-C 2yc'
loop_
_symmetry_equiv_pos_site_id
_symmetry_equiv_pos_as_xyz
1 x,y,z
2 1/2+x,1/2+y,z
3 -x,y,1/2-z
4 1/2-x,1/2+y,1/2-z
5 -x,-y,-z
6 1/2-x,1/2-y,-z
7 x,-y,1/2+z
8 1/2+x,1/2-y,1/2+z
_cell_length_a                   17.902(5)
_cell_length_b                   18.977(5)
_cell_length_c                   16.758(5)
_cell_angle_alpha                90
_cell_angle_beta                 119.512(5)
_cell_angle_gamma                90
_cell_volume                     4954.46
loop_
_atom_site_label
_atom_site_type_symbol
_atom_site_fract_x
_atom_site_fract_y
_atom_site_fract_z
_atom_site_U_iso_or_equiv
_atom_site_thermal_displace_type
Cd1 Cd 1.0000 0.122405(7) 0.7500 0.0232 Uani
F1 F 1.16242(6) 0.45444(5) 1.05880(8) 0.0395 Uani
F2 F 1.11778(6) 0.58535(5) 0.99277(8) 0.0400 Uani
F3 F 0.92328(6) -0.24348(6) 0.59060(8) 0.0428 Uani
F4 F 0.84534(7) -0.34068(6) 0.63798(8) 0.0458 Uani
O1 O 0.86955(8) 0.10104(7) 0.76847(9) 0.0451 Uani
O2 O 0.82400(13) 0.17592(8) 0.65896(11) 0.0619 Uani
O3 O 0.75206(8) 0.15760(10) 0.72838(9) 0.0532 Uani
N1 N 1.01818(9) 0.20741(7) 0.86012(9) 0.0291 Uani
N2 N 0.94040(8) 0.03156(6) 0.63786(9) 0.0266 Uani
N3 N 0.81361(8) 0.14495(7) 0.71809(9) 0.0306 Uani
C1 C 0.96064(10) 0.25873(8) 0.84200(11) 0.0308 Uani
H1 H 0.9130 0.2618 0.7817 0.0370 Uiso
C2 C 1.08545(11) 0.20507(9) 0.94561(11) 0.0377 Uani
H2 H 1.1271 0.1691 0.9602 0.0450 Uiso
C3 C 0.96679(10) 0.30749(8) 0.90627(11) 0.0311 Uani
H3 H 0.9237 0.3424 0.8902 0.0370 Uiso
C4 C 1.09701(11) 0.25245(9) 1.01354(11) 0.0359 Uani
H4 H 1.1461 0.2491 1.0728 0.0430 Uiso
C5 C 1.03657(9) 0.30496(7) 0.99461(10) 0.0260 Uani
C6 C 1.04800(10) 0.35590(8) 1.06946(11) 0.0291 Uani
H5 H 1.0122 0.3402 1.0961 0.0350 Uiso
H6 H 1.1087 0.3551 1.1188 0.0350 Uiso
C7 C 1.02360(9) 0.43026(8) 1.03480(10) 0.0262 Uani
C8 C 1.08147(9) 0.47612(8) 1.02978(11) 0.0278 Uani
C9 C 1.05851(9) 0.54359(8) 0.99605(11) 0.0278 Uani
C10 C 0.85858(12) 0.01233(11) 0.59963(16) 0.0486 Uani
H7 H 0.8218 0.0386 0.6143 0.0580 Uiso
C11 C 0.98944(11) -0.00617(10) 0.61411(14) 0.0429 Uani
H8 H 1.0481 0.0066 0.6395 0.0510 Uiso
C12 C 0.82383(12) -0.04385(12) 0.53945(17) 0.0529 Uani
H9 H 0.7648 -0.0553 0.5144 0.0630 Uiso
C13 C 0.95944(12) -0.06286(10) 0.55451(14) 0.0420 Uani
H10 H 0.9972 -0.0879 0.5401 0.0500 Uiso
C14 C 0.87468(10) -0.08290(8) 0.51602(10) 0.0271 Uani
C15 C 0.83920(12) -0.14385(9) 0.44909(12) 0.0341 Uani
H11 H 0.7992 -0.1252 0.3873 0.0410 Uiso
H12 H 0.8871 -0.1673 0.4460 0.0410 Uiso
C16 C 0.79250(10) -0.19788(8) 0.47488(11) 0.0292 Uani
C17 C 0.83637(10) -0.24620(8) 0.54393(11) 0.0310 Uani
C18 C 0.79609(11) -0.29660(8) 0.56878(11) 0.0318 Uani
Cd1F Cd 1.0000 0.877595(7) 1.2500 0.0232 Uani
Cd1G Cd 0.5000 -0.622405(7) 0.2500 0.0232 Uani
F1D F 0.83758(6) 0.54556(5) 0.94120(8) 0.0395 Uani
F2D F 0.88222(6) 0.41465(5) 1.00723(8) 0.0400 Uani
F3E F 0.57672(6) -0.25652(6) 0.40940(8) 0.0428 Uani
F4E F 0.65466(7) -0.15932(6) 0.36202(8) 0.0458 Uani
O1B O 1.13045(8) 0.10104(7) 0.73153(9) 0.0451 Uani
O2B O 1.17600(13) 0.17592(8) 0.84104(11) 0.0619 Uani
O3B O 1.24794(8) 0.15760(10) 0.77162(9) 0.0532 Uani
N1D N 0.98182(9) 0.79259(7) 1.13988(9) 0.0291 Uani
N1B N 0.98182(9) 0.20741(7) 0.63988(9) 0.0291 Uani
N2E N 0.55960(8) -0.53156(6) 0.36214(9) 0.0266 Uani
N2B N 1.05960(8) 0.03156(6) 0.86214(9) 0.0266 Uani
N3B N 1.18639(8) 0.14495(7) 0.78191(9) 0.0306 Uani
C1D C 1.03936(10) 0.74127(8) 1.15800(11) 0.0308 Uani
H1D H 1.0870 0.7382 1.2183 0.0370 Uiso
C2D C 0.91455(11) 0.79493(9) 1.05439(11) 0.0377 Uani
H2D H 0.8729 0.8309 1.0398 0.0450 Uiso
C3D C 1.03321(10) 0.69251(8) 1.09373(11) 0.0311 Uani
H3D H 1.0763 0.6576 1.1098 0.0370 Uiso
C4D C 0.90299(11) 0.74755(9) 0.98646(11) 0.0359 Uani
H4D H 0.8539 0.7509 0.9272 0.0430 Uiso
C5D C 0.96343(9) 0.69504(7) 1.00539(10) 0.0260 Uani
C6D C 0.95200(10) 0.64410(8) 0.93054(11) 0.0291 Uani
H5D H 0.9878 0.6598 0.9039 0.0350 Uiso
H6D H 0.8913 0.6449 0.8812 0.0350 Uiso
C7D C 0.97640(9) 0.56974(8) 0.96520(10) 0.0262 Uani
C8D C 0.91853(9) 0.52388(8) 0.97022(11) 0.0278 Uani
C9D C 0.94149(9) 0.45641(8) 1.00395(11) 0.0278 Uani
C10E C 0.64142(12) -0.51233(11) 0.40037(16) 0.0486 Uani
H7E H 0.6782 -0.5386 0.3857 0.0580 Uiso
C11E C 0.51056(11) -0.49383(10) 0.38589(14) 0.0429 Uani
H8E H 0.4519 -0.5066 0.3605 0.0510 Uiso
C12E C 0.67617(12) -0.45615(12) 0.46055(17) 0.0529 Uani
H9E H 0.7352 -0.4447 0.4856 0.0630 Uiso
C13E C 0.54056(12) -0.43714(10) 0.44549(14) 0.0420 Uani
H10E H 0.5028 -0.4121 0.4599 0.0500 Uiso
C14E C 0.62532(10) -0.41710(8) 0.48398(10) 0.0271 Uani
C15E C 0.66080(12) -0.35615(9) 0.55091(12) 0.0341 Uani
H11E H 0.7008 -0.3748 0.6127 0.0410 Uiso
H12E H 0.6129 -0.3327 0.5540 0.0410 Uiso
C16E C 0.70750(10) -0.30212(8) 0.52512(11) 0.0292 Uani
C17E C 0.66363(10) -0.25380(8) 0.45607(11) 0.0310 Uani
C18E C 0.70391(11) -0.20340(8) 0.43122(11) 0.0318 Uani
O4 O 0.81932(9) 0.87809(8) 0.82223(10) 0.0533 Uani
O5 O 0.74428(11) 0.84407(13) 0.67625(12) 0.0813 Uani
C19 C 0.74580(11) 0.90823(10) 0.81809(12) 0.0369 Uani
C20 C 0.70208(15) 0.87011(12) 0.85157(15) 0.0517 Uani
H13 H 0.7183 0.8231 0.8725 0.0620 Uiso
C21 C 0.63386(17) 0.9019(2) 0.85405(18) 0.0740 Uani
H14 H 0.6028 0.8768 0.8774 0.0890 Uiso
C22 C 0.61067(17) 0.9699(2) 0.82276(18) 0.0794 Uani
H15 H 0.5640 0.9917 0.8251 0.0950 Uiso
C23 C 0.65455(19) 1.00619(14) 0.78843(17) 0.0695 Uani
H16 H 0.6374 1.0527 0.7659 0.0830 Uiso
C24 C 0.72345(15) 0.97591(11) 0.78625(14) 0.0496 Uani
H17 H 0.7547 1.0012 0.7633 0.0600 Uiso
C25 C 0.80964(13) 0.84630(13) 0.74519(14) 0.0524 Uani
C26 C 0.89292(17) 0.8159(2) 0.76085(19) 0.0922 Uani
H18 H 0.8845 0.7932 0.7044 0.1380 Uiso
H19 H 0.9132 0.7809 0.8102 0.1380 Uiso
H20 H 0.9355 0.8536 0.7782 0.1380 Uiso
loop_
_atom_site_aniso_label
_atom_site_aniso_U_11
_atom_site_aniso_U_22
_atom_site_aniso_U_33
_atom_site_aniso_U_23
_atom_site_aniso_U_13
_atom_site_aniso_U_12
Cd1 0.02554(8) 0.01784(8) 0.02491(8) 0.000 0.01138(6) 0.000
F1 0.0237(4) 0.0372(5) 0.0564(6) 0.0016(5) 0.0189(4) 0.0049(4)
F2 0.0295(5) 0.0333(5) 0.0596(6) 0.0011(5) 0.0239(5) -0.0055(4)
F3 0.0247(5) 0.0419(6) 0.0551(6) -0.0070(5) 0.0144(5) -0.0046(4)
F4 0.0426(6) 0.0365(6) 0.0471(6) 0.0068(5) 0.0134(5) 0.0008(4)
O1 0.0354(7) 0.0428(7) 0.0465(7) -0.0031(6) 0.0120(6) 0.0117(6)
O2 0.1003(13) 0.0491(8) 0.0534(9) -0.0087(7) 0.0510(9) -0.0254(8)
O3 0.0269(6) 0.0878(11) 0.0404(7) -0.0069(7) 0.0131(6) 0.0141(7)
N1 0.0314(7) 0.0233(6) 0.0276(6) 0.0001(5) 0.0108(5) 0.0036(5)
N2 0.0262(6) 0.0216(6) 0.0298(6) -0.0026(5) 0.0122(5) -0.0032(5)
N3 0.0277(6) 0.0322(7) 0.0302(6) -0.0074(5) 0.0129(5) -0.0035(5)
C1 0.0268(7) 0.0252(7) 0.0297(7) -0.0022(6) 0.0057(6) 0.0015(6)
C2 0.0395(9) 0.0343(8) 0.0303(8) 0.0005(6) 0.0102(7) 0.0158(7)
C3 0.0242(7) 0.0242(7) 0.0347(8) -0.0036(6) 0.0066(6) 0.0041(6)
C4 0.0352(8) 0.0351(8) 0.0262(7) 0.0005(6) 0.0065(6) 0.0120(7)
C5 0.0263(7) 0.0205(6) 0.0292(7) -0.0012(5) 0.0122(6) -0.0014(5)
C6 0.0296(7) 0.0246(7) 0.0287(7) -0.0026(6) 0.0109(6) 0.0002(6)
C7 0.0263(7) 0.0226(7) 0.0272(7) -0.0060(5) 0.0113(6) -0.0009(5)
C8 0.0210(6) 0.0288(7) 0.0319(7) -0.0061(6) 0.0117(6) 0.0008(5)
C9 0.0243(7) 0.0268(7) 0.0330(7) -0.0067(6) 0.0146(6) -0.0052(5)
C10 0.0293(8) 0.0479(11) 0.0709(13) -0.0336(10) 0.0265(9) -0.0105(8)
C11 0.0290(8) 0.0439(10) 0.0582(11) -0.0238(9) 0.0233(8) -0.0129(7)
C12 0.0290(9) 0.0537(12) 0.0778(14) -0.0390(11) 0.0278(9) -0.0167(8)
C13 0.0345(9) 0.0418(10) 0.0570(11) -0.0214(8) 0.0281(8) -0.0096(7)
C14 0.0310(7) 0.0228(7) 0.0288(7) -0.0034(5) 0.0158(6) -0.0058(6)
C15 0.0411(9) 0.0303(8) 0.0366(8) -0.0122(7) 0.0235(7) -0.0122(7)
C16 0.0330(8) 0.0233(7) 0.0335(8) -0.0117(6) 0.0180(6) -0.0076(6)
C17 0.0246(7) 0.0284(7) 0.0383(8) -0.0119(6) 0.0141(6) -0.0051(6)
C18 0.0334(8) 0.0238(7) 0.0342(8) -0.0059(6) 0.0136(7) -0.0020(6)
Cd1F 0.02554 0.01784 0.02491 0 0.01138 0
Cd1G 0.02554 0.01784 0.02491 0 0.01138 0
F1D 0.0237 0.0372 0.0564 0.0016 0.0189 0.0049
F2D 0.0295 0.0333 0.0596 0.0011 0.0239 -0.0055
F3E 0.0247 0.0419 0.0551 -0.007 0.0144 -0.0046
F4E 0.0426 0.0365 0.0471 0.0068 0.0134 0.0008
O1B 0.0354 0.0428 0.0465 0.0031 0.012 -0.0117
O2B 0.1003 0.0491 0.0534 0.0087 0.051 0.0254
O3B 0.0269 0.0878 0.0404 0.0069 0.0131 -0.0141
N1D 0.0314 0.0233 0.0276 0.0001 0.0108 0.0036
N1B 0.0314 0.0233 0.0276 -0.0001 0.0108 -0.0036
N2E 0.0262 0.0216 0.0298 -0.0026 0.0122 -0.0032
N2B 0.0262 0.0216 0.0298 0.0026 0.0122 0.0032
N3B 0.0277 0.0322 0.0302 0.0074 0.0129 0.0035
C1D 0.0268 0.0252 0.0297 -0.0022 0.0057 0.0015
C2D 0.0395 0.0343 0.0303 0.0005 0.0102 0.0158
C3D 0.0242 0.0242 0.0347 -0.0036 0.0066 0.0041
C4D 0.0352 0.0351 0.0262 0.0005 0.0065 0.012
C5D 0.0263 0.0205 0.0292 -0.0012 0.0122 -0.0014
C6D 0.0296 0.0246 0.0287 -0.0026 0.0109 0.0002
C7D 0.0263 0.0226 0.0272 -0.006 0.0113 -0.0009
C8D 0.021 0.0288 0.0319 -0.0061 0.0117 0.0008
C9D 0.0243 0.0268 0.033 -0.0067 0.0146 -0.0052
C10E 0.0293 0.0479 0.0709 -0.0336 0.0265 -0.0105
C11E 0.029 0.0439 0.0582 -0.0238 0.0233 -0.0129
C12E 0.029 0.0537 0.0778 -0.039 0.0278 -0.0167
C13E 0.0345 0.0418 0.057 -0.0214 0.0281 -0.0096
C14E 0.031 0.0228 0.0288 -0.0034 0.0158 -0.0058
C15E 0.0411 0.0303 0.0366 -0.0122 0.0235 -0.0122
C16E 0.033 0.0233 0.0335 -0.0117 0.018 -0.0076
C17E 0.0246 0.0284 0.0383 -0.0119 0.0141 -0.0051
C18E 0.0334 0.0238 0.0342 -0.0059 0.0136 -0.002
O4 0.0338(7) 0.0735(11) 0.0397(7) -0.0107(6) 0.0081(6) 0.0109(6)
O5 0.0406(8) 0.1349(18) 0.0474(9) -0.0318(11) 0.0056(7) 0.0150(10)
C19 0.0322(8) 0.0391(9) 0.0326(8) -0.0052(7) 0.0107(7) -0.0006(7)
C20 0.0509(12) 0.0502(12) 0.0451(11) 0.0017(9) 0.0168(9) -0.0123(9)
C21 0.0497(13) 0.123(3) 0.0551(14) -0.0161(16) 0.0303(12) -0.0271(16)
C22 0.0485(13) 0.128(3) 0.0517(14) -0.0284(16) 0.0169(11) 0.0230(16)
C23 0.0794(17) 0.0569(14) 0.0514(13) -0.0104(11) 0.0163(12) 0.0280(13)
C24 0.0604(13) 0.0397(10) 0.0449(10) 0.0001(8) 0.0229(10) -0.0012(9)
C25 0.0376(10) 0.0705(14) 0.0401(10) -0.0096(10) 0.0123(8) 0.0080(10)
C26 0.0467(13) 0.146(3) 0.0601(15) -0.0324(17) 0.0081(12) 0.0352(17)
loop_
_geom_bond_atom_site_label_1
_geom_bond_atom_site_label_2
_geom_bond_site_symmetry_1
_geom_bond_site_symmetry_2
Cd1 O1 1_555 1_555
F1 C8 1_555 1_555
F2 C9 1_555 1_555
F3 C17 1_555 1_555
F4 C18 1_555 1_555
O1 N3 1_555 1_555
O2 N3 1_555 1_555
O3 N3 1_555 1_555
O4 C19 1_555 1_555
O5 C25 1_555 1_555
N1 Cd1 1_555 1_555
N2 Cd1 1_555 1_555
C1 N1 1_555 1_555
H1 C1 1_555 1_555
C2 N1 1_555 1_555
H2 C2 1_555 1_555
C3 C1 1_555 1_555
H3 C3 1_555 1_555
C4 C2 1_555 1_555
H4 C4 1_555 1_555
C5 C3 1_555 1_555
C6 C5 1_555 1_555
H5 C6 1_555 1_555
H6 C6 1_555 1_555
C7 C6 1_555 1_555
C8 C7 1_555 1_555
C9 C8 1_555 1_555
C10 N2 1_555 1_555
H7 C10 1_555 1_555
C11 N2 1_555 1_555
H8 C11 1_555 1_555
C12 C10 1_555 1_555
H9 C12 1_555 1_555
C13 C11 1_555 1_555
H10 C13 1_555 1_555
C14 C12 1_555 1_555
C15 C14 1_555 1_555
H11 C15 1_555 1_555
H12 C15 1_555 1_555
C16 C15 1_555 1_555
C17 C16 1_555 1_555
C18 C17 1_555 1_555
C19 C20 1_555 1_555
C20 H13 1_555 1_555
C21 C20 1_555 1_555
H14 C21 1_555 1_555
C22 C21 1_555 1_555
H15 C22 1_555 1_555
C23 C22 1_555 1_555
H16 C23 1_555 1_555
C24 C19 1_555 1_555
H17 C24 1_555 1_555
C25 O4 1_555 1_555
C26 C25 1_555 1_555
H18 C26 1_555 1_555
H19 C26 1_555 1_555
H20 C26 1_555 1_555
Cd1F N1D 1_555 1_555
Cd1G N2E 1_555 1_555
F1D C8D 1_555 1_555
F2D C9D 1_555 1_555
F3E C17E 1_555 1_555
F4E C18E 1_555 1_555
O1B Cd1 1_555 1_555
O2B N3B 1_555 1_555
O3B N3B 1_555 1_555
N1D C1D 1_555 1_555
N1B Cd1 1_555 1_555
N2E C10E 1_555 1_555
N2B Cd1 1_555 1_555
N3B O1B 1_555 1_555
C1D H1D 1_555 1_555
C2D N1D 1_555 1_555
H2D C2D 1_555 1_555
C3D C1D 1_555 1_555
H3D C3D 1_555 1_555
C4D C2D 1_555 1_555
H4D C4D 1_555 1_555
C5D C3D 1_555 1_555
C6D C5D 1_555 1_555
H5D C6D 1_555 1_555
H6D C6D 1_555 1_555
C7D C9 1_555 1_555
C8D C7D 1_555 1_555
C9D C7 1_555 1_555
C10E H7E 1_555 1_555
C11E N2E 1_555 1_555
H8E C11E 1_555 1_555
C12E C10E 1_555 1_555
H9E C12E 1_555 1_555
C13E C11E 1_555 1_555
H10E C13E 1_555 1_555
C14E C12E 1_555 1_555
C15E C14E 1_555 1_555
H11E C15E 1_555 1_555
H12E C15E 1_555 1_555
C16E C18 1_555 1_555
C17E C16E 1_555 1_555
C18E C16 1_555 1_555
C4 C5 1_555 1_555
C13 C14 1_555 1_555
C23 C24 1_555 1_555
C4D C5D 1_555 1_555
C6D C7D 1_555 1_555
C8D C9D 1_555 1_555
C13E C14E 1_555 1_555
C15E C16E 1_555 1_555
C17E C18E 1_555 1_555

#END
