
#######################################################################
#
#                 Cambridge Crystallographic Data Centre
#                                CCDC 
#
#######################################################################
#
# If this CIF has been generated from an entry in the Cambridge 
# Structural Database, then it will include bibliographic, chemical, 
# crystal, experimental, refinement or atomic coordinate data resulting 
# from the CCDC's data processing and validation procedures.
#
#######################################################################

data_JUJZEV
_chemical_formula_moiety         '(C46 H56 Co5 N8 O30 P2)n'
_symmetry_cell_setting           monoclinic
_symmetry_space_group_name_H-M   'P c'
_symmetry_Int_Tables_number      7
_space_group_name_Hall           'P -2yc'
loop_
_symmetry_equiv_pos_site_id
_symmetry_equiv_pos_as_xyz
1 x,y,z
2 x,-y,1/2+z
_cell_length_a                   10.1032(8)
_cell_length_b                   9.2299(7)
_cell_length_c                   31.773(3)
_cell_angle_alpha                90
_cell_angle_beta                 107.486(2)
_cell_angle_gamma                90
_cell_volume                     2825.97
loop_
_atom_site_label
_atom_site_type_symbol
_atom_site_fract_x
_atom_site_fract_y
_atom_site_fract_z
Co1 Co 0.09958(12) -0.09649(12) 0.21953(3)
Co2 Co 0.67981(11) 0.15545(12) 1.09389(4)
Co3 Co 1.11460(16) 0.01311(12) 0.62488(5)
Co4 Co 0.54788(11) 0.17972(12) 0.65698(4)
Co5 Co 0.13184(11) -0.07046(12) 0.52967(3)
P1 P 0.8289(2) 0.1315(2) 0.62781(7)
P2 P 0.3998(2) -0.1059(2) 0.62170(7)
C1 C 0.8712(9) 0.3015(9) 0.6074(3)
C2 C 0.9253(10) 0.3232(9) 0.5720(3)
C3 C 0.9627(9) 0.4631(9) 0.5631(3)
H1 H 0.9938 0.4783 0.5381
C4 C 0.9560(10) 0.5802(9) 0.5896(3)
C5 C 0.9056(9) 0.5584(9) 0.6253(3)
C6 C 0.8618(9) 0.4225(9) 0.6332(3)
H2 H 0.8239 0.4101 0.6569
C7 C 0.9467(10) 0.2009(9) 0.5430(3)
C8 C 1.0080(9) 0.7261(9) 0.5812(3)
C9 C 0.8948(10) 0.6719(9) 0.6589(3)
C10 C 0.3566(9) -0.2764(9) 0.6415(3)
C11 C 0.3025(9) -0.2966(9) 0.6771(3)
C12 C 0.2630(9) -0.4328(8) 0.6864(3)
H3 H 0.2317 -0.4458 0.7115
C13 C 0.2679(9) -0.5518(9) 0.6600(3)
C14 C 0.3214(9) -0.5320(9) 0.6241(3)
C15 C 0.3667(9) -0.3960(9) 0.6160(3)
H4 H 0.4056 -0.3842 0.5925
C16 C 0.2841(10) -0.1739(8) 0.7069(3)
C17 C 0.2181(9) -0.6987(9) 0.6681(3)
C18 C 0.3353(10) -0.6477(8) 0.5921(3)
C19 C 0.5079(9) 0.2979(10) 0.7411(3)
H5 H 0.4677 0.2126 0.7487
C20 C 0.6123(10) 0.4492(9) 0.7105(3)
H6 H 0.6597 0.4877 0.6914
C21 C 0.5840(9) 0.5227(10) 0.7429(3)
H7 H 0.6056 0.6211 0.7508
C22 C 0.4593(10) 0.4604(12) 0.7988(3)
H8 H 0.4077 0.3755 0.8047
H9 H 0.3934 0.5423 0.7901
C23 C 0.5733(10) 0.4998(10) 0.8402(3)
C24 C 0.6265(14) 0.3976(9) 0.8722(4)
H10 H 0.5888 0.3025 0.8689
C25 C 0.7352(10) 0.4325(11) 0.9095(3)
C26 C 0.7886(10) 0.5699(11) 0.9148(3)
H11 H 0.8633 0.5936 0.9402
C27 C 0.7336(11) 0.6739(11) 0.8833(3)
H12 H 0.7706 0.7693 0.8873
C28 C 0.6257(11) 0.6418(11) 0.8458(3)
H13 H 0.5878 0.7143 0.8244
C29 C 0.7926(10) 0.3215(12) 0.9453(3)
H14 H 0.7804 0.2233 0.9322
H15 H 0.8932 0.3384 0.9589
C30 C 0.7256(10) 0.2214(11) 1.0084(3)
H16 H 0.7639 0.1279 1.0074
C31 C 0.6599(10) 0.4458(11) 0.9922(3)
H17 H 0.6430 0.5379 0.9783
C32 C 0.6266(11) 0.4041(10) 1.0288(3)
H18 H 0.5818 0.4634 1.0448
C33 C 0.0028(12) -0.3700(10) 0.2578(3)
H19 H 0.0442 -0.4311 0.2412
C34 C -0.0675(14) -0.1817(12) 0.2850(4)
H20 H -0.0845 -0.0836 0.2908
C35 C -0.1032(13) -0.2999(12) 0.3054(4)
H21 H -0.1497 -0.3001 0.3273
C36 C -0.0613(11) -0.5674(11) 0.3021(4)
H22 H -0.0820 -0.6328 0.2762
H23 H -0.1363 -0.5783 0.3160
C37 C 0.0747(9) -0.6104(9) 0.3346(3)
C38 C 0.1092(15) -0.5704(9) 0.3779(4)
H24 H 0.0449 -0.5151 0.3878
C39 C 0.1686(10) -0.6890(11) 0.3201(3)
H25 H 0.1460 -0.7171 0.2900
C40 C 0.2955(10) -0.7269(11) 0.3492(3)
H26 H 0.3598 -0.7809 0.3390
C41 C 0.3297(9) -0.6871(10) 0.3929(3)
H27 H 0.4173 -0.7138 0.4126
C42 C 0.2375(10) -0.6087(10) 0.4084(3)
C43 C 0.2759(14) -0.5698(10) 0.4565(4)
H28 H 0.2123 -0.6208 0.4699
H29 H 0.3711 -0.6052 0.4712
C44 C 0.2134(11) -0.3534(10) 0.4940(3)
H30 H 0.1665 -0.4056 0.5110
C45 C 0.3297(14) -0.3044(12) 0.4483(4)
H31 H 0.3800 -0.3124 0.4275
C46 C 0.3027(13) -0.1825(11) 0.4668(4)
H32 H 0.3301 -0.0884 0.4606
N1 N 0.5623(8) 0.3080(8) 0.7089(3)
N2 N 0.5170(8) 0.4263(9) 0.7623(2)
N3 N 0.6668(8) 0.2657(8) 1.0390(2)
N4 N 0.7223(8) 0.3299(9) 0.9792(2)
N5 N -0.0028(9) -0.2277(8) 0.2546(3)
N6 N -0.0579(10) -0.4174(9) 0.2875(3)
N7 N 0.2301(9) -0.2116(8) 0.4959(2)
N8 N 0.2706(10) -0.4162(8) 0.4650(3)
O1 O 0.7569(7) 0.0363(6) 0.5883(2)
O2 O 0.7395(7) 0.1611(6) 0.65723(19)
O3 O 0.9685(6) 0.0699(6) 0.65512(19)
O4 O 1.0149(7) 0.0884(6) 0.5604(2)
O5 O 0.9029(7) 0.2202(7) 0.5017(2)
O6 O 1.0406(7) 0.7461(6) 0.5462(2)
O7 O 1.0135(7) 0.8177(6) 0.61081(19)
O8 O 0.7841(7) 0.7514(6) 0.6487(2)
O9 O 0.9813(7) 0.6691(6) 0.6957(2)
O10 O 0.4888(7) -0.1370(6) 0.5919(2)
O11 O 0.4724(7) -0.0121(6) 0.66119(19)
O12 O 0.2595(7) -0.0438(6) 0.5943(2)
O13 O 0.2164(7) -0.0611(6) 0.68950(19)
O14 O 0.3349(8) -0.1912(6) 0.7471(2)
O15 O 0.1803(7) -0.7152(6) 0.70224(19)
O16 O 0.2176(7) -0.7933(6) 0.6406(2)
O17 O 0.4441(7) -0.7250(6) 0.6017(2)
O18 O 0.2474(7) -0.6497(6) 0.5550(2)
O19 O -0.0263(7) -0.0245(7) 0.4705(2)
H33 H -0.0418 0.0610 0.4778
H34 H -0.0118 -0.0222 0.4455
O20 O 0.2374(8) 0.1022(7) 0.5112(2)
H35 H 0.2412 0.1888 0.5205
H36 H 0.3171 0.0628 0.5192
O21 O -0.0079(9) 0.0780(6) 0.2365(2)
H37 H 0.0205 0.1473 0.2239
H38 H -0.0949 0.0854 0.2321
O22 O 0.2679(8) -0.0641(7) 0.2759(2)
H39 H 0.2700 -0.0981 0.3009
H40 H 0.2932 0.0237 0.2758
Co1A Co 0.09958(12) -0.90351(12) 0.71953(3)
Co1A_2 Co 0.09958(12) 0.09649(12) 0.71953(3)
Co1A_3 Co 1.09958(12) 0.09649(12) 0.71953(3)
Co2A Co 0.67981(11) -0.15545(12) 0.59389(4)
Co2A_2 Co 0.67981(11) 0.84455(12) 0.59389(4)
Co3_2 Co 0.11460(16) -0.98689(12) 0.62488(5)
Co3_3 Co 0.11460(16) 0.01311(12) 0.62488(5)
Co3_4 Co 1.11460(16) 1.01311(12) 0.62488(5)
Co4_2 Co 0.54788(11) -0.82028(12) 0.65698(4)
Co5_2 Co 1.13184(11) -0.07046(12) 0.52967(3)
Co5_3 Co 1.13184(11) 0.92954(12) 0.52967(3)
O1A O 0.7569(7) -0.0363(6) 1.0883(2)
O3A O -0.0315(6) -0.0699(6) 0.15512(19)
O4_2 O 0.0149(7) 0.0884(6) 0.5604(2)
O6_2 O 0.0406(7) -0.2539(6) 0.5462(2)
O7_2 O 1.0135(7) -0.1823(6) 0.61081(19)
O8A O 0.7841(7) 0.2486(6) 1.1487(2)
O10A O 0.4888(7) 0.1370(6) 1.0919(2)
O12_2 O 1.2595(7) -0.0438(6) 0.5943(2)
O13_2 O 1.2164(7) -0.0611(6) 0.68950(19)
O13A O 0.2164(7) 0.0611(6) 0.18950(19)
O15A O 0.1803(7) -0.2848(6) 0.20224(19)
O16_2 O 1.2176(7) 0.2067(6) 0.6406(2)
O17_2 O 0.4441(7) 0.2750(6) 0.6017(2)
O23 O 0.5237(8) 0.1667(7) 0.5323(2)
H41 H 0.5976 0.1173 0.5421
H42 H 0.5385 0.2480 0.5220
O24 O 0.7099(12) 0.8569(11) 0.7198(4)
H43 H 0.6477 0.8976 0.6990
H44 H 0.7102 0.7657 0.7162
O25 O 0.6194(8) 0.1758(11) 0.4611(2)
H45 H 0.6808 0.1471 0.4843
H46 H 0.5421 0.1401 0.4614
O26 O 0.2457(10) 0.0871(9) 0.8602(2)
H47 H 0.2536 0.1788 0.8611
H48 H 0.2009 0.0711 0.8785
O27 O 0.0322(10) 0.9474(10) 0.8892(3)
H49 H 0.0540 0.8598 0.8862
H50 H -0.0067 0.9836 0.8639
O28 O 0.5271(15) 0.0373(13) 0.8967(5)
H51 H 0.6007 0.0243 0.9180
H52 H 0.4673 0.0673 0.9086
O29 O 0.605(2) 0.936(2) 0.7779(7)
H53 H 0.6612 0.8929 0.7669
H54 H 0.5189 0.9180 0.7723
O30 O 0.738(3) 0.033(2) 0.8499(8)
H55 H 0.7194 0.0501 0.8739
H56 H 0.6761 -0.0228 0.8338
loop_
_geom_bond_atom_site_label_1
_geom_bond_atom_site_label_2
_geom_bond_site_symmetry_1
_geom_bond_site_symmetry_2
Co1 N5 1_555 1_555
Co2 N3 1_555 1_555
Co3 O3 1_555 1_555
Co4 N1 1_555 1_555
Co5 N7 1_555 1_555
P1 C1 1_555 1_555
P2 C10 1_555 1_555
C1 C2 1_555 1_555
C2 C3 1_555 1_555
C3 H1 1_555 1_555
C4 C3 1_555 1_555
C5 C4 1_555 1_555
C6 C1 1_555 1_555
H2 C6 1_555 1_555
C7 C2 1_555 1_555
C8 C4 1_555 1_555
C9 C5 1_555 1_555
C10 C11 1_555 1_555
C11 C12 1_555 1_555
C12 H3 1_555 1_555
C13 C12 1_555 1_555
C14 C13 1_555 1_555
C15 C10 1_555 1_555
H4 C15 1_555 1_555
C16 C11 1_555 1_555
C17 C13 1_555 1_555
C18 C14 1_555 1_555
C19 H5 1_555 1_555
C20 H6 1_555 1_555
C21 C20 1_555 1_555
H7 C21 1_555 1_555
C22 H8 1_555 1_555
H9 C22 1_555 1_555
C23 C22 1_555 1_555
C24 C23 1_555 1_555
H10 C24 1_555 1_555
C25 C24 1_555 1_555
C26 C25 1_555 1_555
H11 C26 1_555 1_555
C27 C26 1_555 1_555
H12 C27 1_555 1_555
C28 C23 1_555 1_555
H13 C28 1_555 1_555
C29 C25 1_555 1_555
H14 C29 1_555 1_555
H15 C29 1_555 1_555
C30 H16 1_555 1_555
C31 H17 1_555 1_555
C32 C31 1_555 1_555
H18 C32 1_555 1_555
C33 H19 1_555 1_555
C34 H20 1_555 1_555
C35 C34 1_555 1_555
H21 C35 1_555 1_555
C36 H22 1_555 1_555
H23 C36 1_555 1_555
C37 C36 1_555 1_555
C38 C37 1_555 1_555
H24 C38 1_555 1_555
C39 C37 1_555 1_555
H25 C39 1_555 1_555
C40 C39 1_555 1_555
H26 C40 1_555 1_555
C41 C40 1_555 1_555
H27 C41 1_555 1_555
C42 C38 1_555 1_555
C43 C42 1_555 1_555
H28 C43 1_555 1_555
H29 C43 1_555 1_555
C44 H30 1_555 1_555
C45 H31 1_555 1_555
C46 C45 1_555 1_555
H32 C46 1_555 1_555
N1 C19 1_555 1_555
N2 C19 1_555 1_555
N3 C30 1_555 1_555
N4 C29 1_555 1_555
N5 C33 1_555 1_555
N6 C33 1_555 1_555
N7 C44 1_555 1_555
N8 C43 1_555 1_555
O1 P1 1_555 1_555
O2 Co4 1_555 1_555
O3 P1 1_555 1_555
O4 Co3 1_555 1_555
O5 C7 1_555 1_555
O6 C8 1_555 1_555
O7 C8 1_555 1_555
O8 C9 1_555 1_555
O9 C9 1_555 1_555
O10 P2 1_555 1_555
O11 Co4 1_555 1_555
O12 Co5 1_555 1_555
O13 C16 1_555 1_555
O14 C16 1_555 1_555
O15 C17 1_555 1_555
O16 C17 1_555 1_555
O17 C18 1_555 1_555
O18 C18 1_555 1_555
O19 Co5 1_555 1_555
H33 O19 1_555 1_555
H34 O19 1_555 1_555
O20 Co5 1_555 1_555
H35 O20 1_555 1_555
H36 O20 1_555 1_555
O21 Co1 1_555 1_555
H37 O21 1_555 1_555
H38 O21 1_555 1_555
O22 Co1 1_555 1_555
H39 O22 1_555 1_555
H40 O22 1_555 1_555
O23 H41 1_555 1_555
H42 O23 1_555 1_555
O24 H43 1_555 1_555
H44 O24 1_555 1_555
O25 H45 1_555 1_555
H46 O25 1_555 1_555
O26 H47 1_555 1_555
H48 O26 1_555 1_555
O27 H49 1_555 1_555
H50 O27 1_555 1_555
O28 H51 1_555 1_555
H52 O28 1_555 1_555
O29 H53 1_555 1_555
H54 O29 1_555 1_555
O30 H55 1_555 1_555
H56 O30 1_555 1_555
Co1A O15 1_555 1_555
Co1A_2 O13 1_555 1_555
Co1A_3 O3 1_555 1_555
Co2A O1 1_555 1_555
Co2A_2 O8 1_555 1_555
Co3_2 O16 1_555 1_555
Co3_3 O12 1_555 1_555
Co3_4 O7 1_555 1_555
Co4_2 O17 1_555 1_555
Co5_2 O4 1_555 1_555
Co5_3 O6 1_555 1_555
O1A Co2 1_555 1_555
O3A Co1 1_555 1_555
O4_2 Co5 1_555 1_555
O6_2 Co5 1_555 1_555
O7_2 Co3 1_555 1_555
O8A Co2 1_555 1_555
O10A Co2 1_555 1_555
O12_2 Co3 1_555 1_555
O13_2 Co3 1_555 1_555
O13A Co1 1_555 1_555
O15A Co1 1_555 1_555
O16_2 Co3 1_555 1_555
O17_2 Co4 1_555 1_555
P1 O2 1_555 1_555
P2 O11 1_555 1_555
P2 O12 1_555 1_555
C5 C6 1_555 1_555
C7 O4 1_555 1_555
C14 C15 1_555 1_555
C20 N1 1_555 1_555
C21 N2 1_555 1_555
C22 N2 1_555 1_555
C27 C28 1_555 1_555
C30 N4 1_555 1_555
C31 N4 1_555 1_555
C32 N3 1_555 1_555
C34 N5 1_555 1_555
C35 N6 1_555 1_555
C36 N6 1_555 1_555
C41 C42 1_555 1_555
C44 N8 1_555 1_555
C45 N8 1_555 1_555
C46 N7 1_555 1_555
O10 Co2A 1_555 1_555
O13 Co3_3 1_555 1_555
Co1A_3 O13_2 1_555 1_555
Co3_3 O4_2 1_555 1_555
Co5_2 O12_2 1_555 1_555

#END
