
#######################################################################
#
#                 Cambridge Crystallographic Data Centre
#                                CCDC 
#
#######################################################################
#
# If this CIF has been generated from an entry in the Cambridge 
# Structural Database, then it will include bibliographic, chemical, 
# crystal, experimental, refinement or atomic coordinate data resulting 
# from the CCDC's data processing and validation procedures.
#
#######################################################################

data_DOTFID
_chemical_formula_moiety         '(C120 H102 Cl3 Cu3 N18 O36 3+)n'
_symmetry_cell_setting           monoclinic
_symmetry_space_group_name_H-M   'C 2/c'
_symmetry_Int_Tables_number      15
_space_group_name_Hall           '-C 2yc'
loop_
_symmetry_equiv_pos_site_id
_symmetry_equiv_pos_as_xyz
1 x,y,z
2 -x,y,1/2-z
3 1/2+x,1/2+y,z
4 1/2-x,1/2+y,1/2-z
5 -x,-y,-z
6 x,-y,1/2+z
7 1/2-x,1/2-y,-z
8 1/2+x,1/2-y,1/2+z
_cell_length_a                   41.1895(11)
_cell_length_b                   20.6334(4)
_cell_length_c                   27.0979(8)
_cell_angle_alpha                90
_cell_angle_beta                 129.772(3)
_cell_angle_gamma                90
_cell_volume                     17700.7
loop_
_atom_site_label
_atom_site_type_symbol
_atom_site_fract_x
_atom_site_fract_y
_atom_site_fract_z
_atom_site_U_iso_or_equiv
_atom_site_thermal_displace_type
Cl1 Cl 0.6117(5) 0.9780(7) 0.9008(8) 0.1485 Uani
O13 O 0.5818(18) 1.000(4) 0.921(4) 0.5233 Uani
O14 O 0.6620(10) 1.003(4) 0.958(3) 0.4055 Uani
O15 O 0.611(3) 0.8963(10) 0.894(5) 0.8194 Uani
O16 O 0.592(2) 1.012(5) 0.830(2) 0.6802 Uani
Cl2 Cl 0.8635(9) 1.1295(16) 0.8545(13) 0.2994 Uani
O17 O 0.909(2) 1.129(6) 0.867(5) 0.9292 Uani
O18 O 0.829(3) 1.180(5) 0.792(4) 0.6197 Uani
O19 O 0.873(3) 1.156(5) 0.921(3) 0.6696 Uani
O20 O 0.843(4) 1.054(3) 0.837(5) 0.8018 Uani
Cl3 Cl 0.708(3) 0.726(4) 0.220(4) 1.3114 Uani
O21 O 0.714(5) 0.645(5) 0.223(7) 1.3216 Uani
O22 O 0.720(3) 0.752(4) 0.290(4) 0.4355 Uani
O23 O 0.657(5) 0.745(10) 0.158(4) 1.4311 Uani
O24 O 0.740(8) 0.763(11) 0.210(12) 1.9852 Uani
Cu1 Cu 0.5000 0.7499(2) 0.7500 0.0616 Uani
Cu2 Cu 0.25288(12) 0.99004(19) 0.1136(2) 0.0818 Uani
O1 O 0.4876(10) 0.5220(10) 0.9296(13) 0.1031 Uani
O2 O 0.5395(7) 0.4810(10) 0.9326(11) 0.0774 Uani
O3 O 0.4044(8) 0.2749(12) 1.0170(13) 0.0980 Uani
O4 O 0.4170(7) 0.3354(9) 0.9623(10) 0.0713 Uani
O5 O 0.3930(16) 0.247(2) 0.672(2) 0.2289 Uani
O6 O 0.4182(9) 0.2317(13) 0.7730(14) 0.1109 Uani
O7 O 0.4796(9) 0.9707(10) 0.5358(13) 0.0938 Uani
O8 O 0.5274(8) 1.0198(10) 0.6303(11) 0.0838 Uani
O9 O 0.4272(13) 1.314(2) 0.615(2) 0.1604 Uani
O10 O 0.3870(14) 1.2361(19) 0.5484(17) 0.1655 Uani
O11 O 0.4170(8) 1.2127(13) 0.3025(12) 0.1001 Uani
O12 O 0.4025(8) 1.1859(11) 0.3656(11) 0.0911 Uani
N1 N 0.5039(8) 0.6788(10) 0.8054(11) 0.0601 Uani
N2 N 0.2943(9) 0.4481(13) 0.9141(13) 0.0755 Uani
N3 N 0.2998(9) 0.0744(13) 0.6466(15) 0.0796 Uani
N4 N 0.5010(8) 0.8201(9) 0.6982(11) 0.0558 Uani
N5 N 0.2917(10) 1.4228(13) 0.4466(15) 0.0774 Uani
N6 N 0.2969(8) 1.0567(12) 0.1747(13) 0.0739 Uani
N7 N 0.4211(12) 0.7541(13) 0.6739(16) 0.0879 Uani
N8 N 0.2530(9) 1.0275(16) 0.0270(17) 0.0920 Uani
C1 C 0.5344(10) 0.6343(14) 0.8318(15) 0.0722 Uani
H1 H 0.5546 0.6379 0.8256 0.0830 Uiso
C2 C 0.5375(10) 0.5837(13) 0.8674(14) 0.0614 Uani
H2 H 0.5596 0.5527 0.8854 0.0750 Uiso
C3 C 0.5090(10) 0.5778(12) 0.8771(14) 0.0601 Uani
C4 C 0.4782(10) 0.6229(14) 0.8509(14) 0.0634 Uani
H3 H 0.4578 0.6204 0.8566 0.0780 Uiso
C5 C 0.4769(10) 0.6732(13) 0.8152(15) 0.0613 Uani
H4 H 0.4552 0.7048 0.7971 0.0760 Uiso
C6 C 0.5115(13) 0.5240(15) 0.9156(17) 0.0776 Uani
C7 C 0.5472(11) 0.4305(15) 0.9770(16) 0.0870 Uani
H5 H 0.5493 0.4508 1.0121 0.1060 Uiso
H6 H 0.5745 0.4092 0.9965 0.1060 Uiso
C8 C 0.3250(12) 0.4651(16) 0.9130(18) 0.0888 Uani
H7 H 0.3242 0.5069 0.8975 0.1020 Uiso
C9 C 0.3579(11) 0.4245(16) 0.9333(15) 0.0809 Uani
H8 H 0.3784 0.4378 0.9297 0.0930 Uiso
C10 C 0.3614(9) 0.3658(14) 0.9586(14) 0.0622 Uani
C11 C 0.3306(12) 0.3482(17) 0.9616(18) 0.0890 Uani
H9 H 0.3324 0.3082 0.9806 0.1060 Uiso
C12 C 0.2972(12) 0.3894(19) 0.937(2) 0.1003 Uani
H10 H 0.2749 0.3751 0.9361 0.1150 Uiso
C13 C 0.3964(11) 0.3202(16) 0.9827(16) 0.0735 Uani
C14 C 0.4514(10) 0.2910(14) 0.9811(16) 0.0713 Uani
H11 H 0.4746 0.2929 1.0281 0.0910 Uiso
H12 H 0.4408 0.2459 0.9692 0.0910 Uiso
C15 C 0.3046(14) 0.100(2) 0.6066(19) 0.1080 Uani
H13 H 0.2875 0.0852 0.5635 0.1310 Uiso
C16 C 0.3348(14) 0.149(2) 0.627(2) 0.1148 Uani
H14 H 0.3366 0.1701 0.5978 0.1480 Uiso
C17 C 0.3610(12) 0.165(2) 0.690(2) 0.0967 Uani
C18 C 0.3563(12) 0.1396(18) 0.7303(18) 0.0893 Uani
H15 H 0.3735 0.1534 0.7738 0.1080 Uiso
C19 C 0.3265(12) 0.0940(19) 0.7079(18) 0.0885 Uani
H16 H 0.3242 0.0745 0.7373 0.1110 Uiso
C20 C 0.393(2) 0.220(3) 0.712(3) 0.1656 Uani
C21 C 0.4520(16) 0.278(2) 0.796(2) 0.1376 Uani
H17 H 0.4415 0.3137 0.7646 0.1630 Uiso
H18 H 0.4759 0.2568 0.8027 0.1630 Uiso
C22 C 0.4661(11) 0.3052(16) 0.8576(17) 0.0849 Uani
C23 C 0.4959(12) 0.3522(16) 0.8855(19) 0.0769 Uani
H19 H 0.5058 0.3669 0.8640 0.0980 Uiso
C24 C 0.5127(9) 0.3799(13) 0.9443(15) 0.0630 Uani
C25 C 0.4975(10) 0.3592(13) 0.9736(16) 0.0675 Uani
H20 H 0.5084 0.3779 1.0136 0.0840 Uiso
C26 C 0.4666(10) 0.3116(14) 0.9472(16) 0.0640 Uani
C27 C 0.4505(11) 0.2855(15) 0.8883(17) 0.0829 Uani
H21 H 0.4287 0.2539 0.8686 0.0900 Uiso
C28 C 0.4749(9) 0.8196(13) 0.6343(14) 0.0539 Uani
H22 H 0.4557 0.7846 0.6122 0.0680 Uiso
C29 C 0.4746(10) 0.8673(13) 0.5996(14) 0.0637 Uani
H23 H 0.4558 0.8652 0.5541 0.0770 Uiso
C30 C 0.5026(10) 0.9197(13) 0.6321(15) 0.0563 Uani
C31 C 0.5296(9) 0.9199(12) 0.6972(14) 0.0581 Uani
H24 H 0.5488 0.9549 0.7202 0.0660 Uiso
C32 C 0.5292(10) 0.8694(13) 0.7297(15) 0.0644 Uani
H25 H 0.5490 0.8689 0.7753 0.0740 Uiso
C33 C 0.5005(12) 0.9728(15) 0.593(2) 0.0726 Uani
C34 C 0.5329(12) 1.0717(16) 0.5986(19) 0.0938 Uani
H26 H 0.5348 1.0524 0.5671 0.1090 Uiso
H27 H 0.5595 1.0954 0.6310 0.1090 Uiso
C35 C 0.3229(12) 1.4376(18) 0.5062(19) 0.0953 Uani
H28 H 0.3223 1.4786 0.5216 0.1100 Uiso
C36 C 0.3572(13) 1.397(2) 0.549(2) 0.0988 Uani
H29 H 0.3789 1.4095 0.5923 0.1230 Uiso
C37 C 0.3585(14) 1.340(2) 0.527(2) 0.0995 Uani
C38 C 0.3268(16) 1.324(2) 0.466(2) 0.1149 Uani
H30 H 0.3272 1.2835 0.4490 0.1380 Uiso
C39 C 0.2920(14) 1.368(2) 0.426(2) 0.1052 Uani
H31 H 0.2688 1.3556 0.3831 0.1300 Uiso
C40 C 0.3940(17) 1.293(3) 0.569(3) 0.1244 Uani
C41 C 0.420(2) 1.189(3) 0.588(3) 0.1815 Uani
H32 H 0.4078 1.1467 0.5864 0.2120 Uiso
H33 H 0.4397 1.2036 0.6333 0.2120 Uiso
C42 C 0.3267(11) 1.0721(17) 0.1723(16) 0.0762 Uani
H34 H 0.3262 1.0542 0.1395 0.0990 Uiso
C43 C 0.3594(11) 1.1146(19) 0.2172(18) 0.0893 Uani
H35 H 0.3809 1.1241 0.2148 0.1080 Uiso
C44 C 0.3610(10) 1.1425(15) 0.2644(14) 0.0650 Uani
C45 C 0.3288(12) 1.1259(18) 0.2651(17) 0.0893 Uani
H36 H 0.3287 1.1430 0.2976 0.1070 Uiso
C46 C 0.2970(12) 1.0852(19) 0.2197(19) 0.0933 Uani
H37 H 0.2744 1.0768 0.2198 0.1100 Uiso
C47 C 0.3956(11) 1.1838(15) 0.3115(17) 0.0662 Uani
C48 C 0.4377(12) 1.2233(17) 0.4180(14) 0.0937 Uani
H38 H 0.4290 1.2688 0.4149 0.1110 Uiso
H39 H 0.4610 1.2228 0.4163 0.1110 Uiso
C49 C 0.4964(12) 1.1180(14) 0.5649(17) 0.0739 Uani
C50 C 0.4761(13) 1.1346(16) 0.5891(17) 0.0913 Uani
H40 H 0.4840 1.1133 0.6264 0.1090 Uiso
C51 C 0.4452(15) 1.1804(17) 0.5605(18) 0.1084 Uani
C52 C 0.4314(13) 1.2103(16) 0.5028(18) 0.0969 Uani
H41 H 0.4087 1.2405 0.4812 0.1120 Uiso
C53 C 0.4518(13) 1.1944(15) 0.4783(16) 0.0830 Uani
C54 C 0.4835(12) 1.1492(15) 0.5098(16) 0.0823 Uani
H42 H 0.4972 1.1387 0.4930 0.0920 Uiso
C55 C 0.3885(17) 0.766(2) 0.637(2) 0.1160 Uani
C56 C 0.348(2) 0.788(4) 0.584(3) 0.2887 Uani
H43 H 0.3267 0.7555 0.5732 0.3490 Uiso
H44 H 0.3464 0.7957 0.5473 0.3490 Uiso
H45 H 0.3416 0.8288 0.5958 0.3490 Uiso
C57 C 0.2554(14) 1.045(2) -0.009(2) 0.1032 Uani
C58 C 0.258(2) 1.059(4) -0.058(3) 0.2271 Uani
H46 H 0.2708 1.1020 -0.0501 0.2740 Uiso
H47 H 0.2295 1.0592 -0.0999 0.2740 Uiso
H48 H 0.2753 1.0264 -0.0576 0.2740 Uiso
N9 N 0.2503(12) 0.952(2) 0.2028(19) 0.1180 Uani
C59 C 0.2506(14) 0.952(2) 0.242(2) 0.1234 Uani
C60 C 0.244(3) 0.958(8) 0.290(3) 0.4538 Uani
H49 H 0.2599 0.9234 0.3216 0.5410 Uiso
H50 H 0.2141 0.9541 0.2678 0.5410 Uiso
H51 H 0.2547 1.0002 0.3108 0.5410 Uiso
Cu2A Cu 0.74712(12) 0.99004(19) 1.3864(2) 0.0818 Uani
O1A O 0.5124(10) 0.5220(10) 0.5704(13) 0.1031 Uani
O2A O 0.4605(7) 0.4810(10) 0.5674(11) 0.0774 Uani
O3A O 0.5956(8) 0.2749(12) 0.4830(13) 0.0980 Uani
O4A O 0.5830(7) 0.3354(9) 0.5377(10) 0.0713 Uani
O5A O 0.6070(16) 0.247(2) 0.828(2) 0.2289 Uani
O6A O 0.5818(9) 0.2317(13) 0.7270(14) 0.1109 Uani
O7A O 0.5204(9) 0.9707(10) 0.9642(13) 0.0938 Uani
O8A O 0.4726(8) 1.0198(10) 0.8697(11) 0.0838 Uani
O9A O 0.5728(13) 1.314(2) 0.885(2) 0.1604 Uani
O10A O 0.6130(14) 1.2361(19) 0.9516(17) 0.1655 Uani
O11A O 0.5830(8) 1.2127(13) 1.1975(12) 0.1001 Uani
O12A O 0.5975(8) 1.1859(11) 1.1344(11) 0.0911 Uani
N1A N 0.4961(8) 0.6788(10) 0.6946(11) 0.0601 Uani
N2A N 0.7057(9) 0.4481(13) 0.5859(13) 0.0755 Uani
N3A N 0.7002(9) 0.0744(13) 0.8534(15) 0.0796 Uani
N4A N 0.4990(8) 0.8201(9) 0.8018(11) 0.0558 Uani
N5A N 0.7083(10) 1.4228(13) 1.0534(15) 0.0774 Uani
N6A N 0.7031(8) 1.0567(12) 1.3253(13) 0.0739 Uani
N7A N 0.5789(12) 0.7541(13) 0.8261(16) 0.0879 Uani
N8A N 0.7470(9) 1.0275(16) 1.4730(17) 0.0920 Uani
C1A C 0.4656(10) 0.6343(14) 0.6682(15) 0.0722 Uani
H1A H 0.4454 0.6379 0.6744 0.0830 Uiso
C2A C 0.4625(10) 0.5837(13) 0.6326(14) 0.0614 Uani
H2A H 0.4404 0.5527 0.6146 0.0750 Uiso
C3A C 0.4910(10) 0.5778(12) 0.6229(14) 0.0601 Uani
C4A C 0.5218(10) 0.6229(14) 0.6491(14) 0.0634 Uani
H3A H 0.5422 0.6204 0.6434 0.0780 Uiso
C5A C 0.5231(10) 0.6732(13) 0.6848(15) 0.0613 Uani
H4A H 0.5448 0.7048 0.7029 0.0760 Uiso
C6A C 0.4885(13) 0.5240(15) 0.5844(17) 0.0776 Uani
C7A C 0.4528(11) 0.4305(15) 0.5230(16) 0.0870 Uani
H5A H 0.4507 0.4508 0.4879 0.1060 Uiso
H6A H 0.4255 0.4092 0.5035 0.1060 Uiso
C8A C 0.6750(12) 0.4651(16) 0.5870(18) 0.0888 Uani
H7A H 0.6758 0.5069 0.6025 0.1020 Uiso
C9A C 0.6421(11) 0.4245(16) 0.5667(15) 0.0809 Uani
H8A H 0.6216 0.4378 0.5703 0.0930 Uiso
C10A C 0.6386(9) 0.3658(14) 0.5414(14) 0.0622 Uani
C11A C 0.6694(12) 0.3482(17) 0.5384(18) 0.0890 Uani
H9A H 0.6676 0.3082 0.5194 0.1060 Uiso
C12A C 0.7028(12) 0.3894(19) 0.563(2) 0.1003 Uani
H10A H 0.7251 0.3751 0.5639 0.1150 Uiso
C13A C 0.6036(11) 0.3202(16) 0.5173(16) 0.0735 Uani
C14A C 0.5486(10) 0.2910(14) 0.5189(16) 0.0713 Uani
H11A H 0.5254 0.2929 0.4719 0.0910 Uiso
H12A H 0.5592 0.2459 0.5308 0.0910 Uiso
C15A C 0.6954(14) 0.100(2) 0.8934(19) 0.1080 Uani
H13A H 0.7125 0.0852 0.9365 0.1310 Uiso
C16A C 0.6652(14) 0.149(2) 0.873(2) 0.1148 Uani
H14A H 0.6634 0.1701 0.9022 0.1480 Uiso
C17A C 0.6390(12) 0.165(2) 0.810(2) 0.0967 Uani
C18A C 0.6437(12) 0.1396(18) 0.7697(18) 0.0893 Uani
H15A H 0.6265 0.1534 0.7262 0.1080 Uiso
C19A C 0.6735(12) 0.0940(19) 0.7921(18) 0.0885 Uani
H16A H 0.6758 0.0745 0.7627 0.1110 Uiso
C20A C 0.607(2) 0.220(3) 0.788(3) 0.1656 Uani
C21A C 0.5480(16) 0.278(2) 0.704(2) 0.1376 Uani
H17A H 0.5585 0.3137 0.7354 0.1630 Uiso
H18A H 0.5241 0.2568 0.6973 0.1630 Uiso
C22A C 0.5339(11) 0.3052(16) 0.6424(17) 0.0849 Uani
C23A C 0.5041(12) 0.3522(16) 0.6145(19) 0.0769 Uani
H19A H 0.4942 0.3669 0.6360 0.0980 Uiso
C24A C 0.4873(9) 0.3799(13) 0.5557(15) 0.0630 Uani
C25A C 0.5025(10) 0.3592(13) 0.5264(16) 0.0675 Uani
H20A H 0.4916 0.3779 0.4864 0.0840 Uiso
C26A C 0.5334(10) 0.3116(14) 0.5528(16) 0.0640 Uani
C27A C 0.5495(11) 0.2855(15) 0.6117(17) 0.0829 Uani
H21A H 0.5713 0.2539 0.6314 0.0900 Uiso
C28A C 0.5251(9) 0.8196(13) 0.8657(14) 0.0539 Uani
H22A H 0.5443 0.7846 0.8878 0.0680 Uiso
C29A C 0.5254(10) 0.8673(13) 0.9004(14) 0.0637 Uani
H23A H 0.5442 0.8652 0.9459 0.0770 Uiso
C30A C 0.4974(10) 0.9197(13) 0.8679(15) 0.0563 Uani
C31A C 0.4704(9) 0.9199(12) 0.8028(14) 0.0581 Uani
H24A H 0.4512 0.9549 0.7798 0.0660 Uiso
C32A C 0.4708(10) 0.8694(13) 0.7703(15) 0.0644 Uani
H25A H 0.4510 0.8689 0.7247 0.0740 Uiso
C33A C 0.4995(12) 0.9728(15) 0.907(2) 0.0726 Uani
C34A C 0.4671(12) 1.0717(16) 0.9014(19) 0.0938 Uani
H26A H 0.4652 1.0524 0.9329 0.1090 Uiso
H27A H 0.4405 1.0954 0.8690 0.1090 Uiso
C35A C 0.6771(12) 1.4376(18) 0.9938(19) 0.0953 Uani
H28A H 0.6777 1.4786 0.9784 0.1100 Uiso
C36A C 0.6428(13) 1.397(2) 0.951(2) 0.0988 Uani
H29A H 0.6211 1.4095 0.9077 0.1230 Uiso
C37A C 0.6415(14) 1.340(2) 0.973(2) 0.0995 Uani
C38A C 0.6732(16) 1.324(2) 1.034(2) 0.1149 Uani
H30A H 0.6728 1.2835 1.0510 0.1380 Uiso
C39A C 0.7080(14) 1.368(2) 1.074(2) 0.1052 Uani
H31A H 0.7312 1.3556 1.1169 0.1300 Uiso
C40A C 0.6060(17) 1.293(3) 0.931(3) 0.1244 Uani
C41A C 0.580(2) 1.189(3) 0.912(3) 0.1815 Uani
H32A H 0.5922 1.1467 0.9136 0.2120 Uiso
H33A H 0.5603 1.2036 0.8667 0.2120 Uiso
C42A C 0.6733(11) 1.0721(17) 1.3277(16) 0.0762 Uani
H34A H 0.6738 1.0542 1.3605 0.0990 Uiso
C43A C 0.6406(11) 1.1146(19) 1.2828(18) 0.0893 Uani
H35A H 0.6191 1.1241 1.2852 0.1080 Uiso
C44A C 0.6390(10) 1.1425(15) 1.2356(14) 0.0650 Uani
C45A C 0.6712(12) 1.1259(18) 1.2349(17) 0.0893 Uani
H36A H 0.6713 1.1430 1.2024 0.1070 Uiso
C46A C 0.7030(12) 1.0852(19) 1.2803(19) 0.0933 Uani
H37A H 0.7256 1.0768 1.2802 0.1100 Uiso
C47A C 0.6044(11) 1.1838(15) 1.1885(17) 0.0662 Uani
C48A C 0.5623(12) 1.2233(17) 1.0820(14) 0.0937 Uani
H38A H 0.5710 1.2688 1.0851 0.1110 Uiso
H39A H 0.5390 1.2228 1.0837 0.1110 Uiso
C49A C 0.5036(12) 1.1180(14) 0.9351(17) 0.0739 Uani
C50A C 0.5239(13) 1.1346(16) 0.9109(17) 0.0913 Uani
H40A H 0.5160 1.1133 0.8736 0.1090 Uiso
C51A C 0.5548(15) 1.1804(17) 0.9395(18) 0.1084 Uani
C52A C 0.5686(13) 1.2103(16) 0.9972(18) 0.0969 Uani
H41A H 0.5913 1.2405 1.0188 0.1120 Uiso
C53A C 0.5482(13) 1.1944(15) 1.0217(16) 0.0830 Uani
C54A C 0.5165(12) 1.1492(15) 0.9902(16) 0.0823 Uani
H42A H 0.5028 1.1387 1.0070 0.0920 Uiso
C55A C 0.6115(17) 0.766(2) 0.863(2) 0.1160 Uani
C56A C 0.652(2) 0.788(4) 0.916(3) 0.2887 Uani
H43A H 0.6733 0.7555 0.9268 0.3490 Uiso
H44A H 0.6536 0.7957 0.9527 0.3490 Uiso
H45A H 0.6584 0.8288 0.9042 0.3490 Uiso
C57A C 0.7446(14) 1.045(2) 1.509(2) 0.1032 Uani
C58A C 0.742(2) 1.059(4) 1.558(3) 0.2271 Uani
H46A H 0.7292 1.1020 1.5501 0.2740 Uiso
H47A H 0.7705 1.0592 1.5999 0.2740 Uiso
H48A H 0.7247 1.0264 1.5576 0.2740 Uiso
N9A N 0.7497(12) 0.952(2) 1.2972(19) 0.1180 Uani
C59A C 0.7494(14) 0.952(2) 1.258(2) 0.1234 Uani
C60A C 0.756(3) 0.958(8) 1.210(3) 0.4538 Uani
H49A H 0.7401 0.9234 1.1784 0.5410 Uiso
H50A H 0.7859 0.9541 1.2322 0.5410 Uiso
H51A H 0.7453 1.0002 1.1892 0.5410 Uiso
Cu2B Cu 0.75288(12) 1.49004(19) 1.1136(2) 0.0818 Uani
Cu2C Cu 0.24712(12) 1.49004(19) 0.3864(2) 0.0818 Uani
Cu2D Cu 0.74712(12) 0.00996(19) 0.8864(2) 0.0818 Uani
Cu2E Cu 0.25288(12) 0.00996(19) 0.6136(2) 0.0818 Uani
Cu2F Cu 0.24712(12) 0.50996(19) 0.8864(2) 0.0818 Uani
Cu2G Cu 0.75288(12) 0.50996(19) 0.6136(2) 0.0818 Uani
N2F N 0.2057(9) 1.0519(13) 0.0859(13) 0.0755 Uani
N2G N 0.7943(9) 1.0519(13) 1.4141(13) 0.0755 Uani
N3D N 0.7002(9) 0.9256(13) 1.3534(15) 0.0796 Uani
N3E N 0.2998(9) 0.9256(13) 0.1466(15) 0.0796 Uani
N5B N 0.7917(10) 0.9228(13) 1.4466(15) 0.0774 Uani
N5C N 0.2083(10) 0.9228(13) 0.0534(15) 0.0774 Uani
loop_
_atom_site_aniso_label
_atom_site_aniso_U_11
_atom_site_aniso_U_22
_atom_site_aniso_U_33
_atom_site_aniso_U_23
_atom_site_aniso_U_13
_atom_site_aniso_U_12
Cl1 0.122(11) 0.146(11) 0.165(12) -0.032(9) 0.086(10) -0.019(9)
O13 0.21(8) 0.51(14) 0.8(3) -0.20(16) 0.30(12) 0.00(8)
O14 0.25(8) 0.54(14) 0.38(11) -0.02(10) 0.18(8) -0.02(8)
O15 0.80(18) 0.83(18) 0.84(18) 0.01(8) 0.53(12) -0.02(8)
O16 0.67(15) 0.73(16) 0.68(15) -0.01(10) 0.45(11) -0.03(10)
Cl2 0.28(3) 0.29(3) 0.22(2) -0.01(2) 0.11(2) -0.05(2)
O17 0.92(5) 0.93(6) 1.70(6) -0.001(12) 1.19(4) 0.001(12)
O18 0.61(11) 0.60(11) 0.62(11) 0.02(5) 0.38(8) -0.01(5)
O19 0.8(3) 0.6(2) 0.8(3) -0.3(2) 0.6(2) -0.11(18)
O20 0.80(16) 0.78(16) 0.80(16) 0.02(6) 0.50(11) -0.01(6)
Cl3 1.70(5) 1.76(6) 1.67(5) 0.22(3) 1.63(4) 0.25(3)
O21 0.38(15) 1.33(16) 1.33(16) 0.00(3) 0.12(10) 0.00(3)
O22 0.47(14) 0.35(10) 0.53(15) -0.03(9) 0.34(13) 0.11(9)
O23 1.70(18) 1.66(18) 1.02(18) -0.078(12) 0.91(12) 0.590(12)
O24 2.0(4) 2.0(4) 2.0(4) 0.72(3) 1.3(3) 0.00(3)
Cu1 0.088(4) 0.040(3) 0.073(3) 0.000 0.059(3) 0.000
Cu2 0.057(3) 0.074(3) 0.089(3) -0.009(2) 0.035(2) 0.001(2)
O1 0.18(3) 0.066(15) 0.13(2) 0.011(14) 0.13(2) 0.009(16)
O2 0.091(17) 0.051(12) 0.089(15) 0.015(11) 0.057(14) -0.002(12)
O3 0.12(2) 0.096(16) 0.121(19) 0.053(16) 0.097(18) 0.043(15)
O4 0.078(15) 0.069(13) 0.092(15) 0.021(11) 0.066(14) 0.017(11)
O5 0.28(5) 0.31(6) 0.16(3) -0.10(3) 0.17(4) -0.20(5)
O6 0.13(2) 0.13(2) 0.11(2) -0.057(17) 0.094(19) -0.073(18)
O7 0.14(2) 0.068(14) 0.082(17) 0.013(13) 0.075(17) 0.003(14)
O8 0.116(19) 0.049(12) 0.088(16) 0.013(12) 0.066(15) 0.000(13)
O9 0.11(3) 0.19(4) 0.19(4) 0.09(3) 0.10(3) 0.05(3)
O10 0.24(4) 0.13(3) 0.13(3) 0.04(2) 0.12(3) 0.10(3)
O11 0.11(2) 0.111(19) 0.108(19) -0.018(15) 0.083(18) -0.045(17)
O12 0.112(19) 0.101(17) 0.064(14) -0.015(12) 0.058(14) -0.051(14)
N1 0.080(18) 0.047(13) 0.073(16) 0.000(12) 0.058(16) 0.004(13)
N2 0.060(19) 0.068(18) 0.09(2) -0.001(15) 0.044(16) 0.002(14)
N3 0.070(19) 0.078(18) 0.08(2) 0.002(15) 0.043(17) -0.005(14)
N4 0.072(17) 0.038(12) 0.062(16) -0.001(11) 0.045(14) -0.005(11)
N5 0.08(2) 0.061(17) 0.08(2) 0.006(15) 0.046(19) 0.003(15)
N6 0.057(18) 0.076(17) 0.079(18) -0.002(14) 0.039(16) -0.011(14)
N7 0.10(3) 0.072(18) 0.09(2) -0.010(16) 0.06(2) 0.003(18)
N8 0.06(2) 0.10(2) 0.09(2) 0.01(2) 0.036(19) 0.006(17)
C1 0.07(2) 0.054(18) 0.09(2) 0.004(16) 0.05(2) 0.002(16)
C2 0.07(2) 0.043(16) 0.08(2) 0.005(15) 0.052(19) 0.007(14)
C3 0.07(2) 0.038(15) 0.073(19) 0.000(14) 0.046(18) -0.001(14)
C4 0.07(2) 0.062(19) 0.08(2) -0.003(16) 0.058(19) -0.009(17)
C5 0.07(2) 0.049(16) 0.08(2) -0.001(15) 0.055(19) 0.002(15)
C6 0.11(3) 0.046(19) 0.09(2) -0.002(17) 0.07(2) 0.000(19)
C7 0.09(3) 0.06(2) 0.08(2) 0.021(18) 0.04(2) -0.012(19)
C8 0.07(3) 0.07(2) 0.11(3) 0.011(19) 0.05(2) 0.011(19)
C9 0.07(2) 0.08(2) 0.09(2) 0.016(19) 0.05(2) 0.002(19)
C10 0.053(19) 0.066(19) 0.063(19) 0.007(15) 0.035(16) 0.001(15)
C11 0.09(3) 0.08(2) 0.11(3) 0.02(2) 0.07(2) 0.01(2)
C12 0.08(3) 0.08(3) 0.14(3) 0.01(2) 0.07(3) 0.00(2)
C13 0.07(2) 0.07(2) 0.07(2) 0.004(18) 0.04(2) 0.010(18)
C14 0.08(2) 0.056(18) 0.09(2) 0.012(17) 0.06(2) 0.014(17)
C15 0.13(4) 0.12(3) 0.08(3) -0.02(2) 0.07(3) -0.04(3)
C16 0.13(4) 0.15(4) 0.10(3) -0.04(3) 0.09(3) -0.07(3)
C17 0.09(3) 0.12(3) 0.10(3) -0.04(2) 0.07(3) -0.04(2)
C18 0.09(3) 0.11(3) 0.08(2) -0.02(2) 0.06(2) -0.03(2)
C19 0.08(3) 0.12(3) 0.07(2) 0.00(2) 0.05(2) -0.02(2)
C20 0.21(6) 0.20(5) 0.17(5) -0.08(5) 0.16(5) -0.13(5)
C21 0.16(4) 0.16(4) 0.13(4) -0.07(3) 0.11(4) -0.10(4)
C22 0.09(3) 0.08(2) 0.09(3) -0.020(19) 0.06(2) -0.03(2)
C23 0.09(3) 0.07(2) 0.12(3) 0.00(2) 0.09(3) -0.01(2)
C24 0.07(2) 0.047(16) 0.06(2) 0.006(15) 0.036(18) -0.005(14)
C25 0.09(2) 0.040(16) 0.07(2) 0.008(15) 0.05(2) 0.012(16)
C26 0.07(2) 0.051(17) 0.09(2) 0.006(17) 0.06(2) 0.008(16)
C27 0.09(2) 0.057(19) 0.10(2) -0.006(18) 0.06(2) -0.018(17)
C28 0.06(2) 0.050(16) 0.061(19) -0.005(14) 0.043(17) -0.004(14)
C29 0.08(2) 0.051(17) 0.059(18) 0.002(15) 0.044(18) 0.012(16)
C30 0.08(2) 0.047(16) 0.07(2) 0.001(15) 0.061(19) 0.007(15)
C31 0.056(19) 0.041(15) 0.07(2) -0.002(14) 0.037(16) -0.006(13)
C32 0.07(2) 0.057(17) 0.063(18) -0.001(15) 0.041(17) -0.002(15)
C33 0.09(3) 0.06(2) 0.08(2) 0.014(19) 0.06(2) 0.019(18)
C34 0.12(3) 0.07(2) 0.12(3) 0.03(2) 0.09(3) 0.01(2)
C35 0.07(3) 0.08(2) 0.09(3) 0.01(2) 0.03(2) 0.01(2)
C36 0.08(3) 0.10(3) 0.10(3) 0.01(3) 0.05(2) 0.02(2)
C37 0.10(3) 0.09(3) 0.10(3) 0.02(2) 0.06(3) 0.02(2)
C38 0.13(4) 0.09(3) 0.11(4) 0.01(3) 0.07(3) 0.04(3)
C39 0.10(3) 0.09(3) 0.11(3) 0.00(3) 0.06(3) 0.01(3)
C40 0.09(4) 0.16(5) 0.10(3) 0.03(4) 0.05(3) 0.03(4)
C41 0.26(7) 0.18(5) 0.16(4) 0.11(4) 0.16(5) 0.16(5)
C42 0.06(2) 0.10(3) 0.08(2) -0.03(2) 0.05(2) -0.02(2)
C43 0.07(2) 0.11(3) 0.10(3) 0.01(2) 0.06(2) 0.00(2)
C44 0.06(2) 0.08(2) 0.054(18) -0.005(16) 0.036(17) -0.008(17)
C45 0.09(3) 0.11(3) 0.08(2) -0.02(2) 0.06(2) -0.02(2)
C46 0.09(3) 0.11(3) 0.10(3) -0.03(2) 0.07(3) -0.03(2)
C47 0.07(2) 0.07(2) 0.07(2) 0.002(17) 0.05(2) -0.009(17)
C48 0.11(3) 0.08(2) 0.06(2) -0.002(18) 0.04(2) -0.04(2)
C49 0.10(3) 0.047(17) 0.08(2) 0.000(16) 0.06(2) -0.007(18)
C50 0.13(3) 0.07(2) 0.08(2) 0.021(18) 0.07(3) 0.03(2)
C51 0.17(4) 0.08(2) 0.09(3) 0.02(2) 0.09(3) 0.04(3)
C52 0.13(3) 0.07(2) 0.09(3) 0.02(2) 0.07(3) 0.01(2)
C53 0.10(3) 0.048(18) 0.07(2) 0.000(17) 0.04(2) -0.023(19)
C54 0.12(3) 0.060(19) 0.08(2) -0.012(18) 0.07(2) -0.03(2)
C55 0.08(3) 0.13(4) 0.10(3) -0.04(3) 0.04(3) 0.00(3)
C56 0.18(7) 0.30(10) 0.18(6) -0.09(7) 0.02(6) 0.11(7)
C57 0.09(3) 0.13(4) 0.08(3) 0.02(3) 0.05(3) -0.01(3)
C58 0.21(7) 0.31(9) 0.15(5) 0.05(6) 0.11(5) -0.05(7)
N9 0.12 0.15 0.09 0.03 0.07 0.02
C59 0.07 0.14 0.13 0.06 0.05 0
C60 0.1 0.8 0.27 0.01 0.03 -0.04
Cu2A 0.057 0.074 0.089 0.009 0.035 -0.001
O1A 0.18 0.066 0.13 -0.011 0.13 -0.009
O2A 0.091 0.051 0.089 -0.015 0.057 0.002
O3A 0.12 0.096 0.121 -0.053 0.097 -0.043
O4A 0.078 0.069 0.092 -0.021 0.066 -0.017
O5A 0.28 0.31 0.16 0.1 0.17 0.2
O6A 0.13 0.13 0.11 0.057 0.094 0.073
O7A 0.14 0.068 0.082 -0.013 0.075 -0.003
O8A 0.116 0.049 0.088 -0.013 0.066 0
O9A 0.11 0.19 0.19 -0.09 0.1 -0.05
O10A 0.24 0.13 0.13 -0.04 0.12 -0.1
O11A 0.11 0.111 0.108 0.018 0.083 0.045
O12A 0.112 0.101 0.064 0.015 0.058 0.051
N1A 0.08 0.047 0.073 0 0.058 -0.004
N2A 0.06 0.068 0.09 0.001 0.044 -0.002
N3A 0.07 0.078 0.08 -0.002 0.043 0.005
N4A 0.072 0.038 0.062 0.001 0.045 0.005
N5A 0.08 0.061 0.08 -0.006 0.046 -0.003
N6A 0.057 0.076 0.079 0.002 0.039 0.011
N7A 0.1 0.072 0.09 0.01 0.06 -0.003
N8A 0.06 0.1 0.09 -0.01 0.036 -0.006
C1A 0.07 0.054 0.09 -0.004 0.05 -0.002
C2A 0.07 0.043 0.08 -0.005 0.052 -0.007
C3A 0.07 0.038 0.073 0 0.046 0.001
C4A 0.07 0.062 0.08 0.003 0.058 0.009
C5A 0.07 0.049 0.08 0.001 0.055 -0.002
C6A 0.11 0.046 0.09 0.002 0.07 0
C7A 0.09 0.06 0.08 -0.021 0.04 0.012
C8A 0.07 0.07 0.11 -0.011 0.05 -0.011
C9A 0.07 0.08 0.09 -0.016 0.05 -0.002
C10A 0.053 0.066 0.063 -0.007 0.035 -0.001
C11A 0.09 0.08 0.11 -0.02 0.07 -0.01
C12A 0.08 0.08 0.14 -0.01 0.07 0
C13A 0.07 0.07 0.07 -0.004 0.04 -0.01
C14A 0.08 0.056 0.09 -0.012 0.06 -0.014
C15A 0.13 0.12 0.08 0.02 0.07 0.04
C16A 0.13 0.15 0.1 0.04 0.09 0.07
C17A 0.09 0.12 0.1 0.04 0.07 0.04
C18A 0.09 0.11 0.08 0.02 0.06 0.03
C19A 0.08 0.12 0.07 0 0.05 0.02
C20A 0.21 0.2 0.17 0.08 0.16 0.13
C21A 0.16 0.16 0.13 0.07 0.11 0.1
C22A 0.09 0.08 0.09 0.02 0.06 0.03
C23A 0.09 0.07 0.12 0 0.09 0.01
C24A 0.07 0.047 0.06 -0.006 0.036 0.005
C25A 0.09 0.04 0.07 -0.008 0.05 -0.012
C26A 0.07 0.051 0.09 -0.006 0.06 -0.008
C27A 0.09 0.057 0.1 0.006 0.06 0.018
C28A 0.06 0.05 0.061 0.005 0.043 0.004
C29A 0.08 0.051 0.059 -0.002 0.044 -0.012
C30A 0.08 0.047 0.07 -0.001 0.061 -0.007
C31A 0.056 0.041 0.07 0.002 0.037 0.006
C32A 0.07 0.057 0.063 0.001 0.041 0.002
C33A 0.09 0.06 0.08 -0.014 0.06 -0.019
C34A 0.12 0.07 0.12 -0.03 0.09 -0.01
C35A 0.07 0.08 0.09 -0.01 0.03 -0.01
C36A 0.08 0.1 0.1 -0.01 0.05 -0.02
C37A 0.1 0.09 0.1 -0.02 0.06 -0.02
C38A 0.13 0.09 0.11 -0.01 0.07 -0.04
C39A 0.1 0.09 0.11 0 0.06 -0.01
C40A 0.09 0.16 0.1 -0.03 0.05 -0.03
C41A 0.26 0.18 0.16 -0.11 0.16 -0.16
C42A 0.06 0.1 0.08 0.03 0.05 0.02
C43A 0.07 0.11 0.1 -0.01 0.06 0
C44A 0.06 0.08 0.054 0.005 0.036 0.008
C45A 0.09 0.11 0.08 0.02 0.06 0.02
C46A 0.09 0.11 0.1 0.03 0.07 0.03
C47A 0.07 0.07 0.07 -0.002 0.05 0.009
C48A 0.11 0.08 0.06 0.002 0.04 0.04
C49A 0.1 0.047 0.08 0 0.06 0.007
C50A 0.13 0.07 0.08 -0.021 0.07 -0.03
C51A 0.17 0.08 0.09 -0.02 0.09 -0.04
C52A 0.13 0.07 0.09 -0.02 0.07 -0.01
C53A 0.1 0.048 0.07 0 0.04 0.023
C54A 0.12 0.06 0.08 0.012 0.07 0.03
C55A 0.08 0.13 0.1 0.04 0.04 0
C56A 0.18 0.3 0.18 0.09 0.02 -0.11
C57A 0.09 0.13 0.08 -0.02 0.05 0.01
C58A 0.21 0.31 0.15 -0.05 0.11 0.05
N9A 0.12 0.15 0.09 -0.03 0.07 -0.02
C59A 0.07 0.14 0.13 -0.06 0.05 0
C60A 0.1 0.8 0.27 -0.01 0.03 0.04
Cu2B 0.057 0.074 0.089 -0.009 0.035 0.001
Cu2C 0.057 0.074 0.089 0.009 0.035 -0.001
Cu2D 0.057 0.074 0.089 -0.009 0.035 0.001
Cu2E 0.057 0.074 0.089 0.009 0.035 -0.001
Cu2F 0.057 0.074 0.089 -0.009 0.035 0.001
Cu2G 0.057 0.074 0.089 0.009 0.035 -0.001
N2F 0.06 0.068 0.09 -0.001 0.044 0.002
N2G 0.06 0.068 0.09 0.001 0.044 -0.002
N3D 0.07 0.078 0.08 0.002 0.043 -0.005
N3E 0.07 0.078 0.08 -0.002 0.043 0.005
N5B 0.08 0.061 0.08 0.006 0.046 0.003
N5C 0.08 0.061 0.08 -0.006 0.046 -0.003
loop_
_geom_bond_atom_site_label_1
_geom_bond_atom_site_label_2
_geom_bond_site_symmetry_1
_geom_bond_site_symmetry_2
Cu1 N1 1_555 1_555
Cu2 N6 1_555 1_555
O1 C6 1_555 1_555
O2 C6 1_555 1_555
O3 C13 1_555 1_555
O4 C13 1_555 1_555
O5 C20 1_555 1_555
O6 C20 1_555 1_555
O7 C33 1_555 1_555
O8 C33 1_555 1_555
O9 C40 1_555 1_555
O10 C40 1_555 1_555
O11 C47 1_555 1_555
O12 C47 1_555 1_555
N1 C1 1_555 1_555
N2 C8 1_555 1_555
N3 C15 1_555 1_555
N4 Cu1 1_555 1_555
N5 C35 1_555 1_555
N6 C42 1_555 1_555
N7 Cu1 1_555 1_555
N8 Cu2 1_555 1_555
C1 H1 1_555 1_555
C2 C1 1_555 1_555
H2 C2 1_555 1_555
C3 C2 1_555 1_555
C4 C3 1_555 1_555
H3 C4 1_555 1_555
C5 N1 1_555 1_555
H4 C5 1_555 1_555
C6 C3 1_555 1_555
C7 O2 1_555 1_555
H5 C7 1_555 1_555
H6 C7 1_555 1_555
C8 H7 1_555 1_555
C9 C8 1_555 1_555
H8 C9 1_555 1_555
C10 C9 1_555 1_555
C11 C10 1_555 1_555
H9 C11 1_555 1_555
C12 N2 1_555 1_555
H10 C12 1_555 1_555
C13 C10 1_555 1_555
C14 O4 1_555 1_555
H11 C14 1_555 1_555
H12 C14 1_555 1_555
C15 H13 1_555 1_555
C16 C15 1_555 1_555
H14 C16 1_555 1_555
C17 C16 1_555 1_555
C18 C17 1_555 1_555
H15 C18 1_555 1_555
C19 N3 1_555 1_555
H16 C19 1_555 1_555
C20 C17 1_555 1_555
C21 O6 1_555 1_555
H17 C21 1_555 1_555
H18 C21 1_555 1_555
C22 C21 1_555 1_555
C23 C22 1_555 1_555
H19 C23 1_555 1_555
C24 C7 1_555 1_555
C25 C24 1_555 1_555
H20 C25 1_555 1_555
C26 C14 1_555 1_555
C27 C22 1_555 1_555
H21 C27 1_555 1_555
C28 N4 1_555 1_555
H22 C28 1_555 1_555
C29 C28 1_555 1_555
H23 C29 1_555 1_555
C30 C29 1_555 1_555
C31 C30 1_555 1_555
H24 C31 1_555 1_555
C32 N4 1_555 1_555
H25 C32 1_555 1_555
C33 C30 1_555 1_555
C34 O8 1_555 1_555
H26 C34 1_555 1_555
H27 C34 1_555 1_555
C35 H28 1_555 1_555
C36 C35 1_555 1_555
H29 C36 1_555 1_555
C37 C36 1_555 1_555
C38 C37 1_555 1_555
H30 C38 1_555 1_555
C39 N5 1_555 1_555
H31 C39 1_555 1_555
C40 C37 1_555 1_555
C41 O10 1_555 1_555
H32 C41 1_555 1_555
H33 C41 1_555 1_555
C42 H34 1_555 1_555
C43 C42 1_555 1_555
H35 C43 1_555 1_555
C44 C43 1_555 1_555
C45 C44 1_555 1_555
H36 C45 1_555 1_555
C46 N6 1_555 1_555
H37 C46 1_555 1_555
C47 C44 1_555 1_555
C48 O12 1_555 1_555
H38 C48 1_555 1_555
H39 C48 1_555 1_555
C49 C34 1_555 1_555
C50 C49 1_555 1_555
H40 C50 1_555 1_555
C51 C41 1_555 1_555
C52 C51 1_555 1_555
H41 C52 1_555 1_555
C53 C48 1_555 1_555
C54 C49 1_555 1_555
H42 C54 1_555 1_555
C55 N7 1_555 1_555
C56 C55 1_555 1_555
H43 C56 1_555 1_555
H44 C56 1_555 1_555
H45 C56 1_555 1_555
C57 N8 1_555 1_555
C58 C57 1_555 1_555
H46 C58 1_555 1_555
H47 C58 1_555 1_555
H48 C58 1_555 1_555
N9 Cu2 1_555 1_555
C59 N9 1_555 1_555
C60 C59 1_555 1_555
H49 C60 1_555 1_555
H50 C60 1_555 1_555
H51 C60 1_555 1_555
Cl1 O13 1_555 1_555
O14 Cl1 1_555 1_555
O15 Cl1 1_555 1_555
O16 Cl1 1_555 1_555
Cl2 O17 1_555 1_555
O18 Cl2 1_555 1_555
O19 Cl2 1_555 1_555
O20 Cl2 1_555 1_555
Cl3 O21 1_555 1_555
O22 Cl3 1_555 1_555
O23 Cl3 1_555 1_555
O24 Cl3 1_555 1_555
Cu2A N6A 1_555 1_555
O1A C6A 1_555 1_555
O2A C6A 1_555 1_555
O3A C13A 1_555 1_555
O4A C13A 1_555 1_555
O5A C20A 1_555 1_555
O6A C20A 1_555 1_555
O7A C33A 1_555 1_555
O8A C33A 1_555 1_555
O9A C40A 1_555 1_555
O10A C40A 1_555 1_555
O11A C47A 1_555 1_555
O12A C47A 1_555 1_555
N1A Cu1 1_555 1_555
N2A C8A 1_555 1_555
N3A C15A 1_555 1_555
N4A Cu1 1_555 1_555
N5A C35A 1_555 1_555
N6A C42A 1_555 1_555
N7A Cu1 1_555 1_555
N8A Cu2A 1_555 1_555
C1A N1A 1_555 1_555
H1A C1A 1_555 1_555
C2A C1A 1_555 1_555
H2A C2A 1_555 1_555
C3A C2A 1_555 1_555
C4A C3A 1_555 1_555
H3A C4A 1_555 1_555
C5A N1A 1_555 1_555
H4A C5A 1_555 1_555
C6A C3A 1_555 1_555
C7A O2A 1_555 1_555
H5A C7A 1_555 1_555
H6A C7A 1_555 1_555
C8A H7A 1_555 1_555
C9A C8A 1_555 1_555
H8A C9A 1_555 1_555
C10A C9A 1_555 1_555
C11A C10A 1_555 1_555
H9A C11A 1_555 1_555
C12A N2A 1_555 1_555
H10A C12A 1_555 1_555
C13A C10A 1_555 1_555
C14A O4A 1_555 1_555
H11A C14A 1_555 1_555
H12A C14A 1_555 1_555
C15A H13A 1_555 1_555
C16A C15A 1_555 1_555
H14A C16A 1_555 1_555
C17A C16A 1_555 1_555
C18A C17A 1_555 1_555
H15A C18A 1_555 1_555
C19A N3A 1_555 1_555
H16A C19A 1_555 1_555
C20A C17A 1_555 1_555
C21A O6A 1_555 1_555
H17A C21A 1_555 1_555
H18A C21A 1_555 1_555
C22A C21A 1_555 1_555
C23A C22A 1_555 1_555
H19A C23A 1_555 1_555
C24A C7A 1_555 1_555
C25A C24A 1_555 1_555
H20A C25A 1_555 1_555
C26A C14A 1_555 1_555
C27A C22A 1_555 1_555
H21A C27A 1_555 1_555
C28A N4A 1_555 1_555
H22A C28A 1_555 1_555
C29A C28A 1_555 1_555
H23A C29A 1_555 1_555
C30A C29A 1_555 1_555
C31A C30A 1_555 1_555
H24A C31A 1_555 1_555
C32A N4A 1_555 1_555
H25A C32A 1_555 1_555
C33A C30A 1_555 1_555
C34A O8A 1_555 1_555
H26A C34A 1_555 1_555
H27A C34A 1_555 1_555
C35A H28A 1_555 1_555
C36A C35A 1_555 1_555
H29A C36A 1_555 1_555
C37A C36A 1_555 1_555
C38A C37A 1_555 1_555
H30A C38A 1_555 1_555
C39A N5A 1_555 1_555
H31A C39A 1_555 1_555
C40A C37A 1_555 1_555
C41A O10A 1_555 1_555
H32A C41A 1_555 1_555
H33A C41A 1_555 1_555
C42A H34A 1_555 1_555
C43A C42A 1_555 1_555
H35A C43A 1_555 1_555
C44A C43A 1_555 1_555
C45A C44A 1_555 1_555
H36A C45A 1_555 1_555
C46A N6A 1_555 1_555
H37A C46A 1_555 1_555
C47A C44A 1_555 1_555
C48A O12A 1_555 1_555
H38A C48A 1_555 1_555
H39A C48A 1_555 1_555
C49A C34A 1_555 1_555
C50A C49A 1_555 1_555
H40A C50A 1_555 1_555
C51A C41A 1_555 1_555
C52A C51A 1_555 1_555
H41A C52A 1_555 1_555
C53A C48A 1_555 1_555
C54A C49A 1_555 1_555
H42A C54A 1_555 1_555
C55A N7A 1_555 1_555
C56A C55A 1_555 1_555
H43A C56A 1_555 1_555
H44A C56A 1_555 1_555
H45A C56A 1_555 1_555
C57A N8A 1_555 1_555
C58A C57A 1_555 1_555
H46A C58A 1_555 1_555
H47A C58A 1_555 1_555
H48A C58A 1_555 1_555
N9A Cu2A 1_555 1_555
C59A N9A 1_555 1_555
C60A C59A 1_555 1_555
H49A C60A 1_555 1_555
H50A C60A 1_555 1_555
H51A C60A 1_555 1_555
Cu2B N5A 1_555 1_555
Cu2C N5 1_555 1_555
Cu2D N3A 1_555 1_555
Cu2E N3 1_555 1_555
Cu2F N2 1_555 1_555
Cu2G N2A 1_555 1_555
N2F Cu2 1_555 1_555
N2G Cu2A 1_555 1_555
N3D Cu2A 1_555 1_555
N3E Cu2 1_555 1_555
N5B Cu2A 1_555 1_555
N5C Cu2 1_555 1_555
C4 C5 1_555 1_555
C11 C12 1_555 1_555
C18 C19 1_555 1_555
C23 C24 1_555 1_555
C25 C26 1_555 1_555
C26 C27 1_555 1_555
C31 C32 1_555 1_555
C38 C39 1_555 1_555
C45 C46 1_555 1_555
C50 C51 1_555 1_555
C52 C53 1_555 1_555
C53 C54 1_555 1_555
C4A C5A 1_555 1_555
C11A C12A 1_555 1_555
C18A C19A 1_555 1_555
C23A C24A 1_555 1_555
C25A C26A 1_555 1_555
C26A C27A 1_555 1_555
C31A C32A 1_555 1_555
C38A C39A 1_555 1_555
C45A C46A 1_555 1_555
C50A C51A 1_555 1_555
C52A C53A 1_555 1_555
C53A C54A 1_555 1_555

#END
