
#######################################################################
#
#                 Cambridge Crystallographic Data Centre
#                                CCDC 
#
#######################################################################
#
# If this CIF has been generated from an entry in the Cambridge 
# Structural Database, then it will include bibliographic, chemical, 
# crystal, experimental, refinement or atomic coordinate data resulting 
# from the CCDC's data processing and validation procedures.
#
#######################################################################

data_DOTFOJ
_chemical_formula_moiety         'C122 H84 Cu9 N24 O24'
_symmetry_cell_setting           orthorhombic
_symmetry_space_group_name_H-M   'I b a m'
_symmetry_Int_Tables_number      72
_space_group_name_Hall           '-I 2 2c'
loop_
_symmetry_equiv_pos_site_id
_symmetry_equiv_pos_as_xyz
1 x,y,z
2 -x,-y,z
3 x,-y,1/2-z
4 -x,y,1/2-z
5 1/2+x,1/2+y,1/2+z
6 1/2-x,1/2-y,1/2+z
7 1/2+x,1/2-y,-z
8 1/2-x,1/2+y,-z
9 -x,-y,-z
10 x,y,-z
11 -x,y,1/2+z
12 x,-y,1/2+z
13 1/2-x,1/2-y,1/2-z
14 1/2+x,1/2+y,1/2-z
15 1/2-x,1/2+y,z
16 1/2+x,1/2-y,z
_cell_length_a                   20.6958(5)
_cell_length_b                   27.2441(9)
_cell_length_c                   31.2425(7)
_cell_angle_alpha                90
_cell_angle_beta                 90
_cell_angle_gamma                90
_cell_volume                     17615.7
loop_
_atom_site_label
_atom_site_type_symbol
_atom_site_fract_x
_atom_site_fract_y
_atom_site_fract_z
_atom_site_U_iso_or_equiv
_atom_site_thermal_displace_type
Cu1 Cu -1.0000 0.0000 0.2500 0.0669 Uani
N1 N -0.9291(2) 0.05267(19) 0.25280(17) 0.0670 Uani
N2 N -1.0000 0.0000 0.3254(2) 0.1037 Uani
C1 C -0.8816(3) 0.0480(2) 0.28184(19) 0.0743 Uani
C2 C -0.9268(3) 0.0909(2) 0.2265(2) 0.0690 Uani
C3 C -1.0000 0.0000 0.3627(3) 0.1463 Uani
H1 H -0.8823 0.0214 0.3005 0.0890 Uiso
C4 C -0.8320(3) 0.0815(2) 0.2849(2) 0.0710 Uani
C5 C -0.8768(3) 0.1232(2) 0.2279(2) 0.0687 Uani
H2 H -0.9598 0.0957 0.2067 0.0830 Uiso
H3 H -0.8002 0.0777 0.3056 0.0850 Uiso
C6 C -0.8297(3) 0.1195(2) 0.2579(2) 0.0603 Uani
H4 H -0.8748 0.1484 0.2079 0.0820 Uiso
C7 C -0.7766(3) 0.1571(3) 0.2580(3) 0.0803 Uani
O1 O -0.7769(2) 0.19177(18) 0.23649(18) 0.1090 Uani
O2 O -0.7317(2) 0.14497(16) 0.28714(15) 0.0890 Uani
C8 C -0.6816(3) 0.1806(3) 0.2943(2) 0.1087 Uani
H5 H -0.6594 0.1733 0.3209 0.1300 Uiso
H6 H -0.7006 0.2130 0.2967 0.1300 Uiso
C9 C -0.6336(3) 0.1801(3) 0.2576(2) 0.0897 Uani
C10 C -0.6073(3) 0.2232(3) 0.2435(2) 0.0810 Uani
C11 C -0.6113(4) 0.1386(3) 0.2402(3) 0.1110 Uani
C12 C -0.5628(3) 0.2248(3) 0.2124(3) 0.0840 Uani
H7 H -0.6207 0.2525 0.2560 0.0970 Uiso
H8 H -0.6281 0.1089 0.2498 0.1340 Uiso
C13 C -0.5666(4) 0.1377(3) 0.2104(3) 0.1247 Uani
C14 C -0.5366(4) 0.2738(3) 0.1969(2) 0.1057 Uani
C15 C -0.5411(3) 0.1818(3) 0.1939(3) 0.1140 Uani
C16 C -0.5476(6) 0.0867(3) 0.1898(5) 0.2757 Uani
O3 O -0.5791(2) 0.29068(19) 0.16215(16) 0.1010 Uani
H9 H -0.5364 0.2975 0.2201 0.1270 Uiso
H10 H -0.4927 0.2700 0.1864 0.1270 Uiso
H11 H -0.5112 0.1819 0.1718 0.1370 Uiso
O4 O -0.4959(4) 0.0965(2) 0.1564(2) 0.1800 Uani
H12 H -0.5312 0.0646 0.2116 0.3310 Uiso
H13 H -0.5851 0.0716 0.1765 0.3310 Uiso
C17 C -0.5709(4) 0.3347(3) 0.1466(2) 0.0757 Uani
C18 C -0.4522(10) 0.0631(10) 0.1564(6) 0.3637 Uani
O5 O -0.5321(3) 0.36169(18) 0.16054(16) 0.1260 Uani
C19 C -0.6161(4) 0.3452(3) 0.1125(3) 0.0733 Uani
O6 O -0.4254(6) 0.0478(5) 0.1894(5) 0.3590 Uani
C20 C -0.4180(8) 0.0773(4) 0.1144(5) 0.1900 Uani
C21 C -0.5979(7) 0.3760(8) 0.0871(6) 0.0890 Uani
C22 C -0.6761(7) 0.3209(5) 0.1141(4) 0.0757 Uani
C23 C -0.4007(9) 0.1250(5) 0.0995(5) 0.1113 Uani
C24 C -0.4070(12) 0.0429(8) 0.0804(6) 0.2323 Uani
C25 C -0.6345(9) 0.3894(5) 0.0552(6) 0.1120 Uani
H14 H -0.5573 0.3901 0.0904 0.1070 Uiso
H15 H -0.6879 0.2986 0.1353 0.0910 Uiso
C26 C -0.7155(7) 0.3344(5) 0.0799(5) 0.0797 Uani
C27 C -0.3518(8) 0.1287(8) 0.0674(5) 0.1163 Uani
H16 H -0.4206 0.1530 0.1104 0.1340 Uiso
H17 H -0.4331 0.0152 0.0793 0.2790 Uiso
C28 C -0.3585(9) 0.0484(4) 0.0480(6) 0.1657 Uani
N3 N -0.6990(3) 0.3702(3) 0.04622(18) 0.0870 Uani
H18 H -0.6182 0.4131 0.0367 0.1350 Uiso
H19 H -0.7558 0.3195 0.0781 0.0950 Uiso
N4 N -0.3281(3) 0.0955(3) 0.0458(2) 0.1050 Uani
H20 H -0.3359 0.1600 0.0622 0.1400 Uiso
H21 H -0.3474 0.0229 0.0296 0.1990 Uiso
Cu2 Cu -0.76420(6) 0.38789(5) 0.0000 0.1002 Uani
N5 N -0.7288(5) 0.4695(3) 0.0000 0.1103 Uani
N6 N -0.8014(5) 0.3055(3) 0.0000 0.1183 Uani
C29 C -0.7118(7) 0.5079(5) 0.0000 0.1317 Uani
C30 C -0.8081(7) 0.2624(4) 0.0000 0.1473 Uani
C31 C -0.6866(10) 0.5609(6) 0.0000 0.2670 Uani
C32 C -0.8144(10) 0.2092(5) 0.0000 0.3067 Uani
C33 C -0.980(2) -0.0171(16) 0.4053(6) 0.4033 Uani
C33A C -1.020(2) 0.0171(16) 0.4053(6) 0.4033 Uani
N1A N -1.0709(2) -0.05267(19) 0.25280(17) 0.0670 Uani
C1A C -1.1184(3) -0.0480(2) 0.28184(19) 0.0743 Uani
C2A C -1.0732(3) -0.0909(2) 0.2265(2) 0.0690 Uani
H1A H -1.1177 -0.0214 0.3005 0.0890 Uiso
C4A C -1.1680(3) -0.0815(2) 0.2849(2) 0.0710 Uani
C5A C -1.1232(3) -0.1232(2) 0.2279(2) 0.0687 Uani
H2A H -1.0402 -0.0957 0.2067 0.0830 Uiso
H3A H -1.1998 -0.0777 0.3056 0.0850 Uiso
C6A C -1.1703(3) -0.1195(2) 0.2579(2) 0.0603 Uani
H4A H -1.1252 -0.1484 0.2079 0.0820 Uiso
C7A C -1.2234(3) -0.1571(3) 0.2580(3) 0.0803 Uani
O1A O -1.2231(2) -0.19177(18) 0.23649(18) 0.1090 Uani
O2A O -1.2683(2) -0.14497(16) 0.28714(15) 0.0890 Uani
C8A C -1.3184(3) -0.1806(3) 0.2943(2) 0.1087 Uani
H5A H -1.3406 -0.1733 0.3209 0.1300 Uiso
H6A H -1.2994 -0.2130 0.2967 0.1300 Uiso
C9A C -1.3664(3) -0.1801(3) 0.2576(2) 0.0897 Uani
C10A C -1.3927(3) -0.2232(3) 0.2435(2) 0.0810 Uani
C11A C -1.3887(4) -0.1386(3) 0.2402(3) 0.1110 Uani
C12A C -1.4372(3) -0.2248(3) 0.2124(3) 0.0840 Uani
H7A H -1.3793 -0.2525 0.2560 0.0970 Uiso
H8A H -1.3719 -0.1089 0.2498 0.1340 Uiso
C13A C -1.4334(4) -0.1377(3) 0.2104(3) 0.1247 Uani
C14A C -1.4634(4) -0.2738(3) 0.1969(2) 0.1057 Uani
C15A C -1.4589(3) -0.1818(3) 0.1939(3) 0.1140 Uani
C16A C -1.4524(6) -0.0867(3) 0.1898(5) 0.2757 Uani
O3A O -1.4209(2) -0.29068(19) 0.16215(16) 0.1010 Uani
H9A H -1.4636 -0.2975 0.2201 0.1270 Uiso
H10A H -1.5073 -0.2700 0.1864 0.1270 Uiso
H11A H -1.4888 -0.1819 0.1718 0.1370 Uiso
O4A O -1.5041(4) -0.0965(2) 0.1564(2) 0.1800 Uani
H12A H -1.4688 -0.0646 0.2116 0.3310 Uiso
H13A H -1.4149 -0.0716 0.1765 0.3310 Uiso
C17A C -1.4291(4) -0.3347(3) 0.1466(2) 0.0757 Uani
C18A C -1.5478(10) -0.0631(10) 0.1564(6) 0.3637 Uani
O5A O -1.4679(3) -0.36169(18) 0.16054(16) 0.1260 Uani
C19A C -1.3839(4) -0.3452(3) 0.1125(3) 0.0733 Uani
O6A O -1.5746(6) -0.0478(5) 0.1894(5) 0.3590 Uani
C20A C -1.5820(8) -0.0773(4) 0.1144(5) 0.1900 Uani
C21A C -1.4021(7) -0.3760(8) 0.0871(6) 0.0890 Uani
C22A C -1.3239(7) -0.3209(5) 0.1141(4) 0.0757 Uani
C23A C -1.5993(9) -0.1250(5) 0.0995(5) 0.1113 Uani
C24A C -1.5930(12) -0.0429(8) 0.0804(6) 0.2323 Uani
C25A C -1.3655(9) -0.3894(5) 0.0552(6) 0.1120 Uani
H14A H -1.4427 -0.3901 0.0904 0.1070 Uiso
H15A H -1.3121 -0.2986 0.1353 0.0910 Uiso
C26A C -1.2845(7) -0.3344(5) 0.0799(5) 0.0797 Uani
C27A C -1.6482(8) -0.1287(8) 0.0674(5) 0.1163 Uani
H16A H -1.5794 -0.1530 0.1104 0.1340 Uiso
H17A H -1.5669 -0.0152 0.0793 0.2790 Uiso
C28A C -1.6415(9) -0.0484(4) 0.0480(6) 0.1657 Uani
N3A N -1.3010(3) -0.3702(3) 0.04622(18) 0.0870 Uani
H18A H -1.3818 -0.4131 0.0367 0.1350 Uiso
H19A H -1.2442 -0.3195 0.0781 0.0950 Uiso
N4A N -1.6719(3) -0.0955(3) 0.0458(2) 0.1050 Uani
H20A H -1.6641 -0.1600 0.0622 0.1400 Uiso
H21A H -1.6526 -0.0229 0.0296 0.1990 Uiso
Cu2A Cu -1.23580(6) -0.38789(5) 0.0000 0.1002 Uani
N5A N -1.2712(5) -0.4695(3) 0.0000 0.1103 Uani
N6A N -1.1986(5) -0.3055(3) 0.0000 0.1183 Uani
C29A C -1.2882(7) -0.5079(5) 0.0000 0.1317 Uani
C30A C -1.1919(7) -0.2624(4) 0.0000 0.1473 Uani
C31A C -1.3134(10) -0.5609(6) 0.0000 0.2670 Uani
C32A C -1.1856(10) -0.2092(5) 0.0000 0.3067 Uani
N1B N -0.9291(2) -0.05267(19) 0.24720(17) 0.0670 Uani
N2B N -1.0000 0.0000 0.1746(2) 0.1037 Uani
C1B C -0.8816(3) -0.0480(2) 0.21816(19) 0.0743 Uani
C2B C -0.9268(3) -0.0909(2) 0.2735(2) 0.0690 Uani
C3B C -1.0000 0.0000 0.1373(3) 0.1463 Uani
H1B H -0.8823 -0.0214 0.1995 0.0890 Uiso
C4B C -0.8320(3) -0.0815(2) 0.2151(2) 0.0710 Uani
C5B C -0.8768(3) -0.1232(2) 0.2721(2) 0.0687 Uani
H2B H -0.9598 -0.0957 0.2933 0.0830 Uiso
H3B H -0.8002 -0.0777 0.1944 0.0850 Uiso
C6B C -0.8297(3) -0.1195(2) 0.2421(2) 0.0603 Uani
H4B H -0.8748 -0.1484 0.2921 0.0820 Uiso
C7B C -0.7766(3) -0.1571(3) 0.2420(3) 0.0803 Uani
O1B O -0.7769(2) -0.19177(18) 0.26351(18) 0.1090 Uani
O2B O -0.7317(2) -0.14497(16) 0.21286(15) 0.0890 Uani
C8B C -0.6816(3) -0.1806(3) 0.2057(2) 0.1087 Uani
H5B H -0.6594 -0.1733 0.1791 0.1300 Uiso
H6B H -0.7006 -0.2130 0.2033 0.1300 Uiso
C9B C -0.6336(3) -0.1801(3) 0.2424(2) 0.0897 Uani
C10B C -0.6073(3) -0.2232(3) 0.2565(2) 0.0810 Uani
C11B C -0.6113(4) -0.1386(3) 0.2598(3) 0.1110 Uani
C12B C -0.5628(3) -0.2248(3) 0.2876(3) 0.0840 Uani
H7B H -0.6207 -0.2525 0.2440 0.0970 Uiso
H8B H -0.6281 -0.1089 0.2502 0.1340 Uiso
C13B C -0.5666(4) -0.1377(3) 0.2896(3) 0.1247 Uani
C14B C -0.5366(4) -0.2738(3) 0.3031(2) 0.1057 Uani
C15B C -0.5411(3) -0.1818(3) 0.3061(3) 0.1140 Uani
C16B C -0.5476(6) -0.0867(3) 0.3102(5) 0.2757 Uani
O3B O -0.5791(2) -0.29068(19) 0.33785(16) 0.1010 Uani
H9B H -0.5364 -0.2975 0.2799 0.1270 Uiso
H10B H -0.4927 -0.2700 0.3136 0.1270 Uiso
H11B H -0.5112 -0.1819 0.3282 0.1370 Uiso
O4B O -0.4959(4) -0.0965(2) 0.3436(2) 0.1800 Uani
H12B H -0.5312 -0.0646 0.2884 0.3310 Uiso
H13B H -0.5851 -0.0716 0.3235 0.3310 Uiso
C17B C -0.5709(4) -0.3347(3) 0.3534(2) 0.0757 Uani
C18B C -0.4522(10) -0.0631(10) 0.3436(6) 0.3637 Uani
O5B O -0.5321(3) -0.36169(18) 0.33946(16) 0.1260 Uani
C19B C -0.6161(4) -0.3452(3) 0.3875(3) 0.0733 Uani
O6B O -0.4254(6) -0.0478(5) 0.3106(5) 0.3590 Uani
C20B C -0.4180(8) -0.0773(4) 0.3856(5) 0.1900 Uani
C21B C -0.5979(7) -0.3760(8) 0.4129(6) 0.0890 Uani
C22B C -0.6761(7) -0.3209(5) 0.3859(4) 0.0757 Uani
C23B C -0.4007(9) -0.1250(5) 0.4005(5) 0.1113 Uani
C24B C -0.4070(12) -0.0429(8) 0.4196(6) 0.2323 Uani
C25B C -0.6345(9) -0.3894(5) 0.4448(6) 0.1120 Uani
H14B H -0.5573 -0.3901 0.4096 0.1070 Uiso
H15B H -0.6879 -0.2986 0.3647 0.0910 Uiso
C26B C -0.7155(7) -0.3344(5) 0.4201(5) 0.0797 Uani
C27B C -0.3518(8) -0.1287(8) 0.4326(5) 0.1163 Uani
H16B H -0.4206 -0.1530 0.3896 0.1340 Uiso
H17B H -0.4331 -0.0152 0.4207 0.2790 Uiso
C28B C -0.3585(9) -0.0484(4) 0.4520(6) 0.1657 Uani
N3B N -0.6990(3) -0.3702(3) 0.45378(18) 0.0870 Uani
H18B H -0.6182 -0.4131 0.4633 0.1350 Uiso
H19B H -0.7558 -0.3195 0.4219 0.0950 Uiso
N4B N -0.3281(3) -0.0955(3) 0.4542(2) 0.1050 Uani
H20B H -0.3359 -0.1600 0.4378 0.1400 Uiso
H21B H -0.3474 -0.0229 0.4704 0.1990 Uiso
C33B C -0.980(2) 0.0171(16) 0.0947(6) 0.4033 Uani
C33C C -1.020(2) -0.0171(16) 0.0947(6) 0.4033 Uani
N1C N -1.0709(2) 0.05267(19) 0.24720(17) 0.0670 Uani
C1C C -1.1184(3) 0.0480(2) 0.21816(19) 0.0743 Uani
C2C C -1.0732(3) 0.0909(2) 0.2735(2) 0.0690 Uani
H1C H -1.1177 0.0214 0.1995 0.0890 Uiso
C4C C -1.1680(3) 0.0815(2) 0.2151(2) 0.0710 Uani
C5C C -1.1232(3) 0.1232(2) 0.2721(2) 0.0687 Uani
H2C H -1.0402 0.0957 0.2933 0.0830 Uiso
H3C H -1.1998 0.0777 0.1944 0.0850 Uiso
C6C C -1.1703(3) 0.1195(2) 0.2421(2) 0.0603 Uani
H4C H -1.1252 0.1484 0.2921 0.0820 Uiso
C7C C -1.2234(3) 0.1571(3) 0.2420(3) 0.0803 Uani
O1C O -1.2231(2) 0.19177(18) 0.26351(18) 0.1090 Uani
O2C O -1.2683(2) 0.14497(16) 0.21286(15) 0.0890 Uani
C8C C -1.3184(3) 0.1806(3) 0.2057(2) 0.1087 Uani
H5C H -1.3406 0.1733 0.1791 0.1300 Uiso
H6C H -1.2994 0.2130 0.2033 0.1300 Uiso
C9C C -1.3664(3) 0.1801(3) 0.2424(2) 0.0897 Uani
C10C C -1.3927(3) 0.2232(3) 0.2565(2) 0.0810 Uani
C11C C -1.3887(4) 0.1386(3) 0.2598(3) 0.1110 Uani
C12C C -1.4372(3) 0.2248(3) 0.2876(3) 0.0840 Uani
H7C H -1.3793 0.2525 0.2440 0.0970 Uiso
H8C H -1.3719 0.1089 0.2502 0.1340 Uiso
C13C C -1.4334(4) 0.1377(3) 0.2896(3) 0.1247 Uani
C14C C -1.4634(4) 0.2738(3) 0.3031(2) 0.1057 Uani
C15C C -1.4589(3) 0.1818(3) 0.3061(3) 0.1140 Uani
C16C C -1.4524(6) 0.0867(3) 0.3102(5) 0.2757 Uani
O3C O -1.4209(2) 0.29068(19) 0.33785(16) 0.1010 Uani
H9C H -1.4636 0.2975 0.2799 0.1270 Uiso
H10C H -1.5073 0.2700 0.3136 0.1270 Uiso
H11C H -1.4888 0.1819 0.3282 0.1370 Uiso
O4C O -1.5041(4) 0.0965(2) 0.3436(2) 0.1800 Uani
H12C H -1.4688 0.0646 0.2884 0.3310 Uiso
H13C H -1.4149 0.0716 0.3235 0.3310 Uiso
C17C C -1.4291(4) 0.3347(3) 0.3534(2) 0.0757 Uani
C18C C -1.5478(10) 0.0631(10) 0.3436(6) 0.3637 Uani
O5C O -1.4679(3) 0.36169(18) 0.33946(16) 0.1260 Uani
C19C C -1.3839(4) 0.3452(3) 0.3875(3) 0.0733 Uani
O6C O -1.5746(6) 0.0478(5) 0.3106(5) 0.3590 Uani
C20C C -1.5820(8) 0.0773(4) 0.3856(5) 0.1900 Uani
C21C C -1.4021(7) 0.3760(8) 0.4129(6) 0.0890 Uani
C22C C -1.3239(7) 0.3209(5) 0.3859(4) 0.0757 Uani
C23C C -1.5993(9) 0.1250(5) 0.4005(5) 0.1113 Uani
C24C C -1.5930(12) 0.0429(8) 0.4196(6) 0.2323 Uani
C25C C -1.3655(9) 0.3894(5) 0.4448(6) 0.1120 Uani
H14C H -1.4427 0.3901 0.4096 0.1070 Uiso
H15C H -1.3121 0.2986 0.3647 0.0910 Uiso
C26C C -1.2845(7) 0.3344(5) 0.4201(5) 0.0797 Uani
C27C C -1.6482(8) 0.1287(8) 0.4326(5) 0.1163 Uani
H16C H -1.5794 0.1530 0.3896 0.1340 Uiso
H17C H -1.5669 0.0152 0.4207 0.2790 Uiso
C28C C -1.6415(9) 0.0484(4) 0.4520(6) 0.1657 Uani
N3C N -1.3010(3) 0.3702(3) 0.45378(18) 0.0870 Uani
H18C H -1.3818 0.4131 0.4633 0.1350 Uiso
H19C H -1.2442 0.3195 0.4219 0.0950 Uiso
N4C N -1.6719(3) 0.0955(3) 0.4542(2) 0.1050 Uani
H20C H -1.6641 0.1600 0.4378 0.1400 Uiso
H21C H -1.6526 0.0229 0.4704 0.1990 Uiso
N3H N -1.3010(3) -0.3702(3) -0.04622(18) 0.0870 Uani
N3I N -0.6990(3) 0.3702(3) -0.04622(18) 0.0870 Uani
N4F N -0.8281(3) 0.4045(3) -0.0458(2) 0.1050 Uani
N4G N -1.1719(3) -0.4045(3) -0.0458(2) 0.1050 Uani
N4N N -1.1719(3) -0.4045(3) 0.0458(2) 0.1050 Uani
N4O N -0.8281(3) 0.4045(3) 0.0458(2) 0.1050 Uani
Cu2B Cu -0.76420(6) -0.38789(5) 0.5000 0.1002 Uani
Cu2C Cu -1.23580(6) 0.38789(5) 0.5000 0.1002 Uani
Cu2D Cu -0.26420(6) -0.11211(5) 0.5000 0.1002 Uani
Cu2E Cu -1.73580(6) 0.11211(5) 0.5000 0.1002 Uani
Cu2F Cu -0.26420(6) 0.11211(5) 0.0000 0.1002 Uani
Cu2G Cu -1.73580(6) -0.11211(5) 0.0000 0.1002 Uani
loop_
_atom_site_aniso_label
_atom_site_aniso_U_11
_atom_site_aniso_U_22
_atom_site_aniso_U_33
_atom_site_aniso_U_23
_atom_site_aniso_U_13
_atom_site_aniso_U_12
Cu1 0.0483(9) 0.0588(9) 0.0936(12) 0.000 0.000 0.000
N1 0.032(3) 0.096(4) 0.073(3) 0.000(3) -0.007(3) -0.009(3)
N2 0.113(7) 0.106(7) 0.092(6) 0.000 0.000 -0.001(5)
C1 0.073(5) 0.087(5) 0.063(4) 0.006(4) -0.001(4) 0.004(4)
C2 0.056(4) 0.069(4) 0.082(5) 0.032(4) 0.005(4) 0.019(4)
C3 0.147(12) 0.115(10) 0.177(15) 0.000 0.000 -0.036(9)
C4 0.043(4) 0.076(5) 0.094(5) -0.003(4) -0.017(3) -0.009(4)
C5 0.066(4) 0.053(4) 0.087(5) 0.016(3) 0.019(4) -0.004(4)
C6 0.048(4) 0.070(4) 0.063(4) 0.017(4) 0.001(3) 0.003(4)
C7 0.062(5) 0.068(5) 0.111(7) -0.007(5) 0.030(5) 0.005(5)
O1 0.082(4) 0.068(3) 0.177(5) 0.032(3) 0.014(3) -0.012(3)
O2 0.059(3) 0.103(4) 0.105(4) -0.001(3) 0.010(3) -0.017(3)
C8 0.061(5) 0.151(7) 0.114(6) -0.018(5) 0.032(4) -0.061(5)
C9 0.058(4) 0.089(6) 0.122(6) -0.015(5) -0.015(5) -0.014(5)
C10 0.042(4) 0.074(5) 0.127(6) -0.005(5) 0.002(4) 0.000(4)
C11 0.093(6) 0.079(6) 0.161(8) 0.002(5) 0.064(6) -0.002(5)
C12 0.055(5) 0.083(6) 0.114(6) 0.031(5) -0.004(4) -0.008(4)
C13 0.123(7) 0.059(5) 0.192(9) 0.006(5) 0.087(7) -0.011(5)
C14 0.096(5) 0.113(6) 0.108(6) 0.006(5) -0.047(5) 0.003(5)
C15 0.068(5) 0.108(7) 0.166(8) -0.007(6) 0.013(5) 0.012(5)
C16 0.314(16) 0.104(8) 0.409(19) 0.022(10) 0.278(15) 0.010(9)
O3 0.089(3) 0.086(4) 0.128(4) 0.007(3) -0.032(3) -0.006(3)
O4 0.182(6) 0.104(4) 0.254(8) 0.044(5) 0.124(6) 0.021(4)
C17 0.091(6) 0.043(5) 0.093(6) -0.001(4) 0.000(5) -0.006(4)
C18 0.301(18) 0.41(2) 0.38(2) 0.022(17) 0.173(16) 0.085(15)
O5 0.163(5) 0.101(4) 0.114(4) 0.018(3) -0.057(4) -0.067(4)
C19 0.083(7) 0.065(5) 0.072(6) 0.002(5) 0.005(5) 0.007(5)
O6 0.382(14) 0.322(13) 0.373(13) -0.105(11) 0.034(12) -0.160(11)
C20 0.198(13) 0.112(10) 0.260(17) -0.008(10) 0.120(13) 0.020(10)
C21 0.045(10) 0.139(17) 0.083(12) 0.003(12) -0.036(10) 0.020(11)
C22 0.064(10) 0.106(11) 0.057(9) -0.018(8) -0.002(9) -0.012(9)
C23 0.124(14) 0.068(11) 0.142(14) -0.029(11) 0.021(12) -0.004(10)
C24 0.209(18) 0.254(19) 0.234(18) -0.026(16) 0.108(16) -0.045(16)
C25 0.063(12) 0.093(12) 0.18(2) 0.028(12) 0.060(14) -0.013(10)
C26 0.084(11) 0.093(11) 0.062(9) -0.014(9) 0.010(9) -0.030(8)
C27 0.119(17) 0.127(17) 0.103(14) 0.001(12) 0.057(14) 0.005(14)
C28 0.154(15) 0.141(14) 0.202(17) -0.072(13) 0.005(14) -0.010(13)
N3 0.090(5) 0.098(5) 0.073(4) -0.002(4) -0.003(4) 0.003(4)
N4 0.090(5) 0.110(5) 0.115(5) 0.003(5) 0.037(4) 0.004(4)
Cu2 0.0783(9) 0.1294(12) 0.0930(10) 0.000 0.000 0.0176(8)
N5 0.111(7) 0.067(7) 0.153(8) 0.000 0.000 0.012(6)
N6 0.101(7) 0.145(9) 0.109(7) 0.000 0.000 -0.026(8)
C29 0.179(14) 0.110(13) 0.106(9) 0.000 0.000 -0.006(11)
C30 0.099(9) 0.214(18) 0.129(10) 0.000 0.000 -0.052(14)
C31 0.46(3) 0.170(16) 0.171(15) 0.000 0.000 -0.087(19)
C32 0.37(3) 0.23(2) 0.32(3) 0.000 0.000 -0.11(2)
C33 0.41(3) 0.41(3) 0.39(3) 0.025(15) -0.017(15) -0.008(15)
C33A 0.41 0.41 0.39 -0.025 0.017 -0.008
N1A 0.032 0.096 0.073 0 0.007 -0.009
C1A 0.073 0.087 0.063 -0.006 0.001 0.004
C2A 0.056 0.069 0.082 -0.032 -0.005 0.019
C4A 0.043 0.076 0.094 0.003 0.017 -0.009
C5A 0.066 0.053 0.087 -0.016 -0.019 -0.004
C6A 0.048 0.07 0.063 -0.017 -0.001 0.003
C7A 0.062 0.068 0.111 0.007 -0.03 0.005
O1A 0.082 0.068 0.177 -0.032 -0.014 -0.012
O2A 0.059 0.103 0.105 0.001 -0.01 -0.017
C8A 0.061 0.151 0.114 0.018 -0.032 -0.061
C9A 0.058 0.089 0.122 0.015 0.015 -0.014
C10A 0.042 0.074 0.127 0.005 -0.002 0
C11A 0.093 0.079 0.161 -0.002 -0.064 -0.002
C12A 0.055 0.083 0.114 -0.031 0.004 -0.008
C13A 0.123 0.059 0.192 -0.006 -0.087 -0.011
C14A 0.096 0.113 0.108 -0.006 0.047 0.003
C15A 0.068 0.108 0.166 0.007 -0.013 0.012
C16A 0.314 0.104 0.409 -0.022 -0.278 0.01
O3A 0.089 0.086 0.128 -0.007 0.032 -0.006
O4A 0.182 0.104 0.254 -0.044 -0.124 0.021
C17A 0.091 0.043 0.093 0.001 0 -0.006
C18A 0.301 0.41 0.38 -0.022 -0.173 0.085
O5A 0.163 0.101 0.114 -0.018 0.057 -0.067
C19A 0.083 0.065 0.072 -0.002 -0.005 0.007
O6A 0.382 0.322 0.373 0.105 -0.034 -0.16
C20A 0.198 0.112 0.26 0.008 -0.12 0.02
C21A 0.045 0.139 0.083 -0.003 0.036 0.02
C22A 0.064 0.106 0.057 0.018 0.002 -0.012
C23A 0.124 0.068 0.142 0.029 -0.021 -0.004
C24A 0.209 0.254 0.234 0.026 -0.108 -0.045
C25A 0.063 0.093 0.18 -0.028 -0.06 -0.013
C26A 0.084 0.093 0.062 0.014 -0.01 -0.03
C27A 0.119 0.127 0.103 -0.001 -0.057 0.005
C28A 0.154 0.141 0.202 0.072 -0.005 -0.01
N3A 0.09 0.098 0.073 0.002 0.003 0.003
N4A 0.09 0.11 0.115 -0.003 -0.037 0.004
Cu2A 0.0783 0.1294 0.093 0 0 0.0176
N5A 0.111 0.067 0.153 0 0 0.012
N6A 0.101 0.145 0.109 0 0 -0.026
C29A 0.179 0.11 0.106 0 0 -0.006
C30A 0.099 0.214 0.129 0 0 -0.052
C31A 0.46 0.17 0.171 0 0 -0.087
C32A 0.37 0.23 0.32 0 0 -0.11
N1B 0.032 0.096 0.073 0 0.007 0.009
N2B 0.113 0.106 0.092 0 0 0.001
C1B 0.073 0.087 0.063 0.006 0.001 -0.004
C2B 0.056 0.069 0.082 0.032 -0.005 -0.019
C3B 0.147 0.115 0.177 0 0 0.036
C4B 0.043 0.076 0.094 -0.003 0.017 0.009
C5B 0.066 0.053 0.087 0.016 -0.019 0.004
C6B 0.048 0.07 0.063 0.017 -0.001 -0.003
C7B 0.062 0.068 0.111 -0.007 -0.03 -0.005
O1B 0.082 0.068 0.177 0.032 -0.014 0.012
O2B 0.059 0.103 0.105 -0.001 -0.01 0.017
C8B 0.061 0.151 0.114 -0.018 -0.032 0.061
C9B 0.058 0.089 0.122 -0.015 0.015 0.014
C10B 0.042 0.074 0.127 -0.005 -0.002 0
C11B 0.093 0.079 0.161 0.002 -0.064 0.002
C12B 0.055 0.083 0.114 0.031 0.004 0.008
C13B 0.123 0.059 0.192 0.006 -0.087 0.011
C14B 0.096 0.113 0.108 0.006 0.047 -0.003
C15B 0.068 0.108 0.166 -0.007 -0.013 -0.012
C16B 0.314 0.104 0.409 0.022 -0.278 -0.01
O3B 0.089 0.086 0.128 0.007 0.032 0.006
O4B 0.182 0.104 0.254 0.044 -0.124 -0.021
C17B 0.091 0.043 0.093 -0.001 0 0.006
C18B 0.301 0.41 0.38 0.022 -0.173 -0.085
O5B 0.163 0.101 0.114 0.018 0.057 0.067
C19B 0.083 0.065 0.072 0.002 -0.005 -0.007
O6B 0.382 0.322 0.373 -0.105 -0.034 0.16
C20B 0.198 0.112 0.26 -0.008 -0.12 -0.02
C21B 0.045 0.139 0.083 0.003 0.036 -0.02
C22B 0.064 0.106 0.057 -0.018 0.002 0.012
C23B 0.124 0.068 0.142 -0.029 -0.021 0.004
C24B 0.209 0.254 0.234 -0.026 -0.108 0.045
C25B 0.063 0.093 0.18 0.028 -0.06 0.013
C26B 0.084 0.093 0.062 -0.014 -0.01 0.03
C27B 0.119 0.127 0.103 0.001 -0.057 -0.005
C28B 0.154 0.141 0.202 -0.072 -0.005 0.01
N3B 0.09 0.098 0.073 -0.002 0.003 -0.003
N4B 0.09 0.11 0.115 0.003 -0.037 -0.004
C33B 0.41 0.41 0.39 0.025 0.017 0.008
C33C 0.41 0.41 0.39 -0.025 -0.017 0.008
N1C 0.032 0.096 0.073 0 -0.007 0.009
C1C 0.073 0.087 0.063 -0.006 -0.001 -0.004
C2C 0.056 0.069 0.082 -0.032 0.005 -0.019
C4C 0.043 0.076 0.094 0.003 -0.017 0.009
C5C 0.066 0.053 0.087 -0.016 0.019 0.004
C6C 0.048 0.07 0.063 -0.017 0.001 -0.003
C7C 0.062 0.068 0.111 0.007 0.03 -0.005
O1C 0.082 0.068 0.177 -0.032 0.014 0.012
O2C 0.059 0.103 0.105 0.001 0.01 0.017
C8C 0.061 0.151 0.114 0.018 0.032 0.061
C9C 0.058 0.089 0.122 0.015 -0.015 0.014
C10C 0.042 0.074 0.127 0.005 0.002 0
C11C 0.093 0.079 0.161 -0.002 0.064 0.002
C12C 0.055 0.083 0.114 -0.031 -0.004 0.008
C13C 0.123 0.059 0.192 -0.006 0.087 0.011
C14C 0.096 0.113 0.108 -0.006 -0.047 -0.003
C15C 0.068 0.108 0.166 0.007 0.013 -0.012
C16C 0.314 0.104 0.409 -0.022 0.278 -0.01
O3C 0.089 0.086 0.128 -0.007 -0.032 0.006
O4C 0.182 0.104 0.254 -0.044 0.124 -0.021
C17C 0.091 0.043 0.093 0.001 0 0.006
C18C 0.301 0.41 0.38 -0.022 0.173 -0.085
O5C 0.163 0.101 0.114 -0.018 -0.057 0.067
C19C 0.083 0.065 0.072 -0.002 0.005 -0.007
O6C 0.382 0.322 0.373 0.105 0.034 0.16
C20C 0.198 0.112 0.26 0.008 0.12 -0.02
C21C 0.045 0.139 0.083 -0.003 -0.036 -0.02
C22C 0.064 0.106 0.057 0.018 -0.002 0.012
C23C 0.124 0.068 0.142 0.029 0.021 0.004
C24C 0.209 0.254 0.234 0.026 0.108 0.045
C25C 0.063 0.093 0.18 -0.028 0.06 0.013
C26C 0.084 0.093 0.062 0.014 0.01 0.03
C27C 0.119 0.127 0.103 -0.001 0.057 -0.005
C28C 0.154 0.141 0.202 0.072 0.005 0.01
N3C 0.09 0.098 0.073 0.002 -0.003 -0.003
N4C 0.09 0.11 0.115 -0.003 0.037 -0.004
N3H 0.09 0.098 0.073 -0.002 -0.003 0.003
N3I 0.09 0.098 0.073 0.002 0.003 0.003
N4F 0.09 0.11 0.115 0.003 -0.037 -0.004
N4G 0.09 0.11 0.115 -0.003 0.037 -0.004
N4N 0.09 0.11 0.115 0.003 -0.037 -0.004
N4O 0.09 0.11 0.115 -0.003 0.037 -0.004
Cu2B 0.0783 0.1294 0.093 0 0 -0.0176
Cu2C 0.0783 0.1294 0.093 0 0 -0.0176
Cu2D 0.0783 0.1294 0.093 0 0 0.0176
Cu2E 0.0783 0.1294 0.093 0 0 0.0176
Cu2F 0.0783 0.1294 0.093 0 0 -0.0176
Cu2G 0.0783 0.1294 0.093 0 0 -0.0176
loop_
_geom_bond_atom_site_label_1
_geom_bond_atom_site_label_2
_geom_bond_site_symmetry_1
_geom_bond_site_symmetry_2
Cu1 N1 1_555 1_555
N1 C1 1_555 1_555
N2 Cu1 1_555 1_555
C1 H1 1_555 1_555
C2 N1 1_555 1_555
C3 N2 1_555 1_555
C4 C1 1_555 1_555
C5 C2 1_555 1_555
H2 C2 1_555 1_555
H3 C4 1_555 1_555
C6 C4 1_555 1_555
H4 C5 1_555 1_555
C7 C6 1_555 1_555
O1 C7 1_555 1_555
O2 C7 1_555 1_555
C8 O2 1_555 1_555
H5 C8 1_555 1_555
H6 C8 1_555 1_555
C9 C8 1_555 1_555
C10 C9 1_555 1_555
C11 C9 1_555 1_555
C12 C10 1_555 1_555
H7 C10 1_555 1_555
H8 C11 1_555 1_555
C13 C11 1_555 1_555
C14 C12 1_555 1_555
C15 C12 1_555 1_555
C16 C13 1_555 1_555
O3 C14 1_555 1_555
H9 C14 1_555 1_555
H10 C14 1_555 1_555
H11 C15 1_555 1_555
O4 C16 1_555 1_555
H12 C16 1_555 1_555
H13 C16 1_555 1_555
C17 O3 1_555 1_555
C18 O4 1_555 1_555
O5 C17 1_555 1_555
C19 C17 1_555 1_555
O6 C18 1_555 1_555
C20 C18 1_555 1_555
C21 C19 1_555 1_555
C22 C19 1_555 1_555
C23 C20 1_555 1_555
C24 C20 1_555 1_555
C25 C21 1_555 1_555
H14 C21 1_555 1_555
H15 C22 1_555 1_555
C26 C22 1_555 1_555
C27 C23 1_555 1_555
H16 C23 1_555 1_555
H17 C24 1_555 1_555
C28 C24 1_555 1_555
N3 C25 1_555 1_555
H18 C25 1_555 1_555
H19 C26 1_555 1_555
N4 C27 1_555 1_555
H20 C27 1_555 1_555
H21 C28 1_555 1_555
Cu2 N3 1_555 1_555
N5 Cu2 1_555 1_555
N6 Cu2 1_555 1_555
C29 N5 1_555 1_555
C30 N6 1_555 1_555
C31 C29 1_555 1_555
C32 C30 1_555 1_555
C33 C3 1_555 1_555
C33A C3 1_555 1_555
N1A Cu1 1_555 1_555
C1A N1A 1_555 1_555
C2A N1A 1_555 1_555
H1A C1A 1_555 1_555
C4A C1A 1_555 1_555
C5A C2A 1_555 1_555
H2A C2A 1_555 1_555
H3A C4A 1_555 1_555
C6A C4A 1_555 1_555
H4A C5A 1_555 1_555
C7A C6A 1_555 1_555
O1A C7A 1_555 1_555
O2A C7A 1_555 1_555
C8A O2A 1_555 1_555
H5A C8A 1_555 1_555
H6A C8A 1_555 1_555
C9A C8A 1_555 1_555
C10A C9A 1_555 1_555
C11A C9A 1_555 1_555
C12A C10A 1_555 1_555
H7A C10A 1_555 1_555
H8A C11A 1_555 1_555
C13A C11A 1_555 1_555
C14A C12A 1_555 1_555
C15A C12A 1_555 1_555
C16A C13A 1_555 1_555
O3A C14A 1_555 1_555
H9A C14A 1_555 1_555
H10A C14A 1_555 1_555
H11A C15A 1_555 1_555
O4A C16A 1_555 1_555
H12A C16A 1_555 1_555
H13A C16A 1_555 1_555
C17A O3A 1_555 1_555
C18A O4A 1_555 1_555
O5A C17A 1_555 1_555
C19A C17A 1_555 1_555
O6A C18A 1_555 1_555
C20A C18A 1_555 1_555
C21A C19A 1_555 1_555
C22A C19A 1_555 1_555
C23A C20A 1_555 1_555
C24A C20A 1_555 1_555
C25A C21A 1_555 1_555
H14A C21A 1_555 1_555
H15A C22A 1_555 1_555
C26A C22A 1_555 1_555
C27A C23A 1_555 1_555
H16A C23A 1_555 1_555
H17A C24A 1_555 1_555
C28A C24A 1_555 1_555
N3A C25A 1_555 1_555
H18A C25A 1_555 1_555
H19A C26A 1_555 1_555
N4A C27A 1_555 1_555
H20A C27A 1_555 1_555
H21A C28A 1_555 1_555
Cu2A N3A 1_555 1_555
N5A Cu2A 1_555 1_555
N6A Cu2A 1_555 1_555
C29A N5A 1_555 1_555
C30A N6A 1_555 1_555
C31A C29A 1_555 1_555
C32A C30A 1_555 1_555
N1B Cu1 1_555 1_555
N2B Cu1 1_555 1_555
C1B N1B 1_555 1_555
C2B N1B 1_555 1_555
C3B N2B 1_555 1_555
H1B C1B 1_555 1_555
C4B C1B 1_555 1_555
C5B C2B 1_555 1_555
H2B C2B 1_555 1_555
H3B C4B 1_555 1_555
C6B C4B 1_555 1_555
H4B C5B 1_555 1_555
C7B C6B 1_555 1_555
O1B C7B 1_555 1_555
O2B C7B 1_555 1_555
C8B O2B 1_555 1_555
H5B C8B 1_555 1_555
H6B C8B 1_555 1_555
C9B C8B 1_555 1_555
C10B C9B 1_555 1_555
C11B C9B 1_555 1_555
C12B C10B 1_555 1_555
H7B C10B 1_555 1_555
H8B C11B 1_555 1_555
C13B C11B 1_555 1_555
C14B C12B 1_555 1_555
C15B C12B 1_555 1_555
C16B C13B 1_555 1_555
O3B C14B 1_555 1_555
H9B C14B 1_555 1_555
H10B C14B 1_555 1_555
H11B C15B 1_555 1_555
O4B C16B 1_555 1_555
H12B C16B 1_555 1_555
H13B C16B 1_555 1_555
C17B O3B 1_555 1_555
C18B O4B 1_555 1_555
O5B C17B 1_555 1_555
C19B C17B 1_555 1_555
O6B C18B 1_555 1_555
C20B C18B 1_555 1_555
C21B C19B 1_555 1_555
C22B C19B 1_555 1_555
C23B C20B 1_555 1_555
C24B C20B 1_555 1_555
C25B C21B 1_555 1_555
H14B C21B 1_555 1_555
H15B C22B 1_555 1_555
C26B C22B 1_555 1_555
C27B C23B 1_555 1_555
H16B C23B 1_555 1_555
H17B C24B 1_555 1_555
C28B C24B 1_555 1_555
N3B C25B 1_555 1_555
H18B C25B 1_555 1_555
H19B C26B 1_555 1_555
N4B C27B 1_555 1_555
H20B C27B 1_555 1_555
H21B C28B 1_555 1_555
C33B C3B 1_555 1_555
C33C C3B 1_555 1_555
N1C Cu1 1_555 1_555
C1C N1C 1_555 1_555
C2C N1C 1_555 1_555
H1C C1C 1_555 1_555
C4C C1C 1_555 1_555
C5C C2C 1_555 1_555
H2C C2C 1_555 1_555
H3C C4C 1_555 1_555
C6C C4C 1_555 1_555
H4C C5C 1_555 1_555
C7C C6C 1_555 1_555
O1C C7C 1_555 1_555
O2C C7C 1_555 1_555
C8C O2C 1_555 1_555
H5C C8C 1_555 1_555
H6C C8C 1_555 1_555
C9C C8C 1_555 1_555
C10C C9C 1_555 1_555
C11C C9C 1_555 1_555
C12C C10C 1_555 1_555
H7C C10C 1_555 1_555
H8C C11C 1_555 1_555
C13C C11C 1_555 1_555
C14C C12C 1_555 1_555
C15C C12C 1_555 1_555
C16C C13C 1_555 1_555
O3C C14C 1_555 1_555
H9C C14C 1_555 1_555
H10C C14C 1_555 1_555
H11C C15C 1_555 1_555
O4C C16C 1_555 1_555
H12C C16C 1_555 1_555
H13C C16C 1_555 1_555
C17C O3C 1_555 1_555
C18C O4C 1_555 1_555
O5C C17C 1_555 1_555
C19C C17C 1_555 1_555
O6C C18C 1_555 1_555
C20C C18C 1_555 1_555
C21C C19C 1_555 1_555
C22C C19C 1_555 1_555
C23C C20C 1_555 1_555
C24C C20C 1_555 1_555
C25C C21C 1_555 1_555
H14C C21C 1_555 1_555
H15C C22C 1_555 1_555
C26C C22C 1_555 1_555
C27C C23C 1_555 1_555
H16C C23C 1_555 1_555
H17C C24C 1_555 1_555
C28C C24C 1_555 1_555
N3C C25C 1_555 1_555
H18C C25C 1_555 1_555
H19C C26C 1_555 1_555
N4C C27C 1_555 1_555
H20C C27C 1_555 1_555
H21C C28C 1_555 1_555
N3H Cu2A 1_555 1_555
N3I Cu2 1_555 1_555
N4F Cu2 1_555 1_555
N4G Cu2A 1_555 1_555
N4N Cu2A 1_555 1_555
N4O Cu2 1_555 1_555
Cu2B N3B 1_555 1_555
Cu2C N3C 1_555 1_555
Cu2D N4B 1_555 1_555
Cu2E N4C 1_555 1_555
Cu2F N4 1_555 1_555
Cu2G N4A 1_555 1_555
C5 C6 1_555 1_555
C13 C15 1_555 1_555
C26 N3 1_555 1_555
C28 N4 1_555 1_555
C33 C33A 1_555 1_555
C5A C6A 1_555 1_555
C13A C15A 1_555 1_555
C26A N3A 1_555 1_555
C28A N4A 1_555 1_555
C5B C6B 1_555 1_555
C13B C15B 1_555 1_555
C26B N3B 1_555 1_555
C28B N4B 1_555 1_555
C33B C33C 1_555 1_555
C5C C6C 1_555 1_555
C13C C15C 1_555 1_555
C26C N3C 1_555 1_555
C28C N4C 1_555 1_555

#END
