
#######################################################################
#
#                 Cambridge Crystallographic Data Centre
#                                CCDC 
#
#######################################################################
#
# If this CIF has been generated from an entry in the Cambridge 
# Structural Database, then it will include bibliographic, chemical, 
# crystal, experimental, refinement or atomic coordinate data resulting 
# from the CCDC's data processing and validation procedures.
#
#######################################################################

data_WEBKOD
_chemical_formula_moiety         '(C38 H26 Cd3 N5 O12 1+)n'
_symmetry_cell_setting           triclinic
_symmetry_space_group_name_H-M   'P -1'
_symmetry_Int_Tables_number      2
_space_group_name_Hall           '-P 1'
loop_
_symmetry_equiv_pos_site_id
_symmetry_equiv_pos_as_xyz
1 x,y,z
2 -x,-y,-z
_cell_length_a                   12.0495(2)
_cell_length_b                   12.2773(2)
_cell_length_c                   19.1028(4)
_cell_angle_alpha                91.6690(10)
_cell_angle_beta                 96.8500(10)
_cell_angle_gamma                117.9450(10)
_cell_volume                     2466.97
loop_
_atom_site_label
_atom_site_type_symbol
_atom_site_fract_x
_atom_site_fract_y
_atom_site_fract_z
C35 C -1.012(4) -0.897(4) 0.000(3)
C36 C -0.941(4) -0.903(4) 0.057(2)
C37 C -1.073(6) -1.008(5) -0.062(3)
C37A C -0.927(6) -0.992(5) 0.062(3)
C36A C -1.059(4) -1.097(4) -0.057(2)
C35A C -0.988(4) -1.103(4) 0.000(3)
O12 O -0.587(4) -1.054(4) -0.012(2)
Cd1 Cd -0.76911(9) -0.50233(8) 0.22146(5)
Cd2 Cd -0.58859(8) -0.66969(8) 0.30188(4)
Cd3 Cd -0.42655(8) -0.32177(8) 0.19801(4)
O1 O -0.6170(9) -0.6864(9) 0.1800(4)
O2 O -0.6133(9) -0.4891(8) 0.3197(4)
O3 O -0.3743(9) -0.5631(9) 0.3062(5)
O4 O -0.6186(8) -0.5083(8) 0.1578(4)
O5 O -0.5255(10) -0.2053(9) 0.1819(6)
O6 O -0.3243(9) -0.4359(9) 0.2189(5)
O7 O -0.7973(9) -0.7879(9) 0.3066(5)
O8 O -0.4399(9) -0.3139(8) 0.3159(5)
O9 O -0.8781(10) -0.7067(9) 0.2261(6)
O10 O -0.6735(10) -0.2945(9) 0.2525(6)
C1 C -0.1770(13) -0.4944(12) 0.2656(7)
C2 C -0.3010(13) -0.4954(11) 0.2625(7)
C3 C -0.6730(13) -0.5887(12) 0.0125(7)
H1 H -0.7131 -0.5428 0.0268
C4 C -0.6179(12) -0.6382(11) 0.0630(7)
C5 C -0.6184(12) -0.6085(13) 0.1398(6)
C6 C -0.8822(11) -0.7902(11) 0.2647(7)
C7 C -0.5168(12) -0.3888(11) 0.3467(7)
C8 C -0.6668(13) -0.6094(12) -0.0605(7)
H2 H -0.7018 -0.5754 -0.0950
C9 C -0.0760(13) -0.3982(12) 0.2396(8)
H3 H -0.0853 -0.3305 0.2226
C10 C -1.0078(11) -0.9107(11) 0.2521(7)
C11 C -0.5953(13) -0.2031(11) 0.2245(8)
C12 C -0.1515(15) -0.5844(14) 0.2941(9)
H4 H -0.2139 -0.6473 0.3168
C13 C -0.5916(14) -0.0839(12) 0.2426(7)
C14 C -0.6668(15) -0.0732(14) 0.2906(9)
H5 H -0.7221 -0.1444 0.3114
C15 C -0.5123(14) 0.0212(13) 0.2167(9)
H6 H -0.4574 0.0185 0.1856
C16 C -0.5087(15) 0.1349(14) 0.2345(8)
H7 H -0.4537 0.2063 0.2138
C17 C -0.6613(18) 0.0376(13) 0.3077(8)
H8 H -0.7146 0.0407 0.3397
N1 N -0.5823(12) 0.1459(11) 0.2809(6)
C18 C 0.0383(14) -0.4009(14) 0.2383(9)
H9 H 0.1043 -0.3347 0.2195
C19 C -0.0391(15) -0.5851(16) 0.2904(11)
H10 H -0.0281 -0.6517 0.3078
N2 N 0.0596(12) -0.4914(12) 0.2621(7)
C20 C -1.0298(14) -1.0101(12) 0.2921(8)
H11 H -0.9668 -1.0044 0.3293
C21 C -1.1067(14) -0.9255(13) 0.1995(9)
H12 H -1.0979 -0.8589 0.1725
C22 C -1.1439(14) -1.1162(13) 0.2769(7)
H13 H -1.1566 -1.1825 0.3050
C23 C -1.2175(14) -1.0379(14) 0.1872(8)
H14 H -1.2820 -1.0482 0.1498
N3 N -1.2374(11) -1.1345(11) 0.2269(6)
C24 C -0.4966(13) -0.3655(12) 0.4269(6)
C25 C -0.3744(12) -0.2872(12) 0.4656(7)
H15 H -0.3049 -0.2423 0.4410
C26 C -0.5977(13) -0.4233(11) 0.4655(7)
H16 H -0.6822 -0.4745 0.4424
C27 C -0.5688(13) -0.4022(13) 0.5398(6)
H17 H -0.6360 -0.4428 0.5666
N4 N -0.4530(10) -0.3289(10) 0.5748(5)
C28 C -0.3555(13) -0.2755(13) 0.5380(7)
H18 H -0.2716 -0.2287 0.5628
C29 C -0.5731(14) -0.7132(12) 0.0396(6)
H19 H -0.5450 -0.7551 0.0723
C30 C -0.5681(17) -0.7289(13) -0.0325(7)
H20 H -0.5321 -0.7784 -0.0472
N5 N -0.6116(11) -0.6776(11) -0.0816(6)
O11 O -0.866(2) -0.489(3) 0.1075(8)
C31 C -0.874(6) -0.394(4) 0.007(2)
C32 C -0.814(3) -0.394(3) 0.0787(17)
N5A N -0.3884(11) -0.3224(11) 0.0816(6)
N1_2 N -0.5823(12) -0.8541(11) 0.2809(6)
N2_2 N -0.9404(12) -0.4914(12) 0.2621(7)
N3_2 N -0.2374(11) -0.1345(11) 0.2269(6)
N4A N -0.5470(10) -0.6711(10) 0.4252(5)
Cd3A Cd -0.57345(8) -0.67823(8) -0.19801(4)
Cd2_2 Cd -0.58859(8) 0.33031(8) 0.30188(4)
Cd1_2 Cd 0.23089(9) -0.50233(8) 0.22146(5)
Cd3_2 Cd -1.42655(8) -1.32177(8) 0.19801(4)
Cd2A Cd -0.41141(8) -0.33031(8) 0.69812(4)
loop_
_geom_bond_atom_site_label_1
_geom_bond_atom_site_label_2
_geom_bond_site_symmetry_1
_geom_bond_site_symmetry_2
Cd1 O2 1_555 1_555
Cd2 O1 1_555 1_555
Cd3 O4 1_555 1_555
O1 C5 1_555 1_555
O2 Cd2 1_555 1_555
O3 Cd2 1_555 1_555
O4 Cd1 1_555 1_555
O5 Cd3 1_555 1_555
O6 Cd3 1_555 1_555
O7 Cd2 1_555 1_555
O8 Cd3 1_555 1_555
O9 Cd1 1_555 1_555
O10 Cd1 1_555 1_555
C1 C2 1_555 1_555
C2 O3 1_555 1_555
C3 H1 1_555 1_555
C4 C3 1_555 1_555
C5 O4 1_555 1_555
C6 O7 1_555 1_555
C7 O2 1_555 1_555
C8 C3 1_555 1_555
H2 C8 1_555 1_555
C9 C1 1_555 1_555
H3 C9 1_555 1_555
C10 C6 1_555 1_555
C11 O5 1_555 1_555
C12 C1 1_555 1_555
H4 C12 1_555 1_555
C13 C11 1_555 1_555
C14 C13 1_555 1_555
H5 C14 1_555 1_555
C15 C13 1_555 1_555
H6 C15 1_555 1_555
C16 C15 1_555 1_555
H7 C16 1_555 1_555
C17 C14 1_555 1_555
H8 C17 1_555 1_555
N1 C16 1_555 1_555
C18 C9 1_555 1_555
H9 C18 1_555 1_555
C19 C12 1_555 1_555
H10 C19 1_555 1_555
N2 C18 1_555 1_555
C20 C10 1_555 1_555
H11 C20 1_555 1_555
C21 C10 1_555 1_555
H12 C21 1_555 1_555
C22 C20 1_555 1_555
H13 C22 1_555 1_555
C23 C21 1_555 1_555
H14 C23 1_555 1_555
N3 C22 1_555 1_555
C24 C7 1_555 1_555
C25 C24 1_555 1_555
H15 C25 1_555 1_555
C26 C24 1_555 1_555
H16 C26 1_555 1_555
C27 C26 1_555 1_555
H17 C27 1_555 1_555
N4 C27 1_555 1_555
C28 C25 1_555 1_555
H18 C28 1_555 1_555
C29 C4 1_555 1_555
H19 C29 1_555 1_555
C30 C29 1_555 1_555
H20 C30 1_555 1_555
N5 C8 1_555 1_555
O11 Cd1 1_555 1_555
C31 C32 1_555 1_555
C32 O11 1_555 1_555
C35 C36 1_555 1_555
C36 C37A 1_555 1_555
C37 C35 1_555 1_555
N5A Cd3 1_555 1_555
N1_2 Cd2 1_555 1_555
N2_2 Cd1 1_555 1_555
N3_2 Cd3 1_555 1_555
N4A Cd2 1_555 1_555
C37A C35A 1_555 1_555
C36A C37 1_555 1_555
Cd3A N5 1_555 1_555
Cd2_2 N1 1_555 1_555
Cd1_2 N2 1_555 1_555
Cd3_2 N3 1_555 1_555
Cd2A N4 1_555 1_555
C35A C36A 1_555 1_555
O6 C2 1_555 1_555
O8 C7 1_555 1_555
O9 C6 1_555 1_555
O10 C11 1_555 1_555
C4 C5 1_555 1_555
C17 N1 1_555 1_555
C19 N2 1_555 1_555
C23 N3 1_555 1_555
N4 C28 1_555 1_555
C30 N5 1_555 1_555

#END
