
#######################################################################
#
#                 Cambridge Crystallographic Data Centre
#                                CCDC 
#
#######################################################################
#
# If this CIF has been generated from an entry in the Cambridge 
# Structural Database, then it will include bibliographic, chemical, 
# crystal, experimental, refinement or atomic coordinate data resulting 
# from the CCDC's data processing and validation procedures.
#
#######################################################################

data_BOXYEU
_chemical_formula_moiety         '(C7 H12 Mn2 N1 O12 P1)n'
_symmetry_cell_setting           orthorhombic
_symmetry_space_group_name_H-M   'P n a 21'
_symmetry_Int_Tables_number      33
_space_group_name_Hall           'P 2c -2n'
loop_
_symmetry_equiv_pos_site_id
_symmetry_equiv_pos_as_xyz
1 x,y,z
2 -x,-y,1/2+z
3 1/2-x,1/2+y,1/2+z
4 1/2+x,1/2-y,z
_cell_length_a                   11.6599(3)
_cell_length_b                   10.9336(3)
_cell_length_c                   11.7669(3)
_cell_angle_alpha                90
_cell_angle_beta                 90
_cell_angle_gamma                90
_cell_volume                     1500.1
loop_
_atom_site_label
_atom_site_type_symbol
_atom_site_fract_x
_atom_site_fract_y
_atom_site_fract_z
Mn1 Mn 0.28234(8) 0.27214(8) 0.31355(8)
Mn2 Mn 0.31784(9) 0.74035(8) 0.09830(10)
P1 P 0.21359(13) -0.02102(15) 0.24598(15)
O1 O 0.2288(4) 0.1132(4) 0.2385(5)
O2 O 0.2800(4) -0.0932(4) 0.1629(5)
O3 O 0.2456(6) -0.0705(5) 0.3674(5)
H1 H 0.2227 -0.0224 0.4158
O4 O 0.0819(5) -0.0450(5) 0.2307(7)
H2 H 0.0717 -0.1159 0.2105
O5 O 0.2811(4) 0.3595(4) 0.1452(4)
O6 O 0.3108(5) 0.5398(4) 0.0606(4)
O7 O 0.3024(5) 0.4692(4) 0.3483(4)
O8 O 0.3112(4) 0.6505(4) 0.2619(4)
O9 O 0.3752(4) 0.7748(4) -0.0803(4)
O10 O 0.5304(4) 0.7643(4) -0.1914(5)
O11 O 0.5063(4) 0.7418(4) 0.1031(5)
O12 O 0.6611(5) 0.7601(4) -0.0076(4)
C1 C 0.2999(5) 0.4728(6) 0.1464(5)
C2 C 0.3055(5) 0.5366(6) 0.2642(6)
C3 C 0.4802(6) 0.7648(5) -0.0984(6)
C4 C 0.5561(6) 0.7546(5) 0.0082(6)
Mn1A Mn 0.71766(8) 0.72786(8) -0.18645(8)
Mn1B Mn 0.21766(8) 0.77214(8) -0.18645(8)
Mn2_2 Mn 0.31784(9) -0.25965(8) 0.09830(10)
Mn2C Mn 0.81784(9) 0.75965(8) 0.09830(10)
O2_2 O 0.2800(4) 0.9068(4) 0.1629(5)
O9B O 0.1248(4) 0.2748(4) 0.4197(4)
O10A O 0.4696(4) 0.2357(4) 0.3086(5)
O12A O 0.3389(5) 0.2399(4) 0.4924(4)
O12C O 0.1611(5) 0.7399(4) -0.0076(4)
N1 N 0.3394(6) 0.6938(7) 0.4982(5)
H3 H 0.3238 0.6971 0.4242
H4 H 0.3086 0.7583 0.5328
H5 H 0.3101 0.6255 0.5274
C5 C 0.4620(10) 0.6947(11) 0.5146(11)
H6 H 0.4923 0.6143 0.4969
H7 H 0.4785 0.7115 0.5939
C6 C 0.5226(18) 0.7908(18) 0.4400(17)
C7 C 0.5155(19) 0.907(2) 0.5120(19)
loop_
_geom_bond_atom_site_label_1
_geom_bond_atom_site_label_2
_geom_bond_site_symmetry_1
_geom_bond_site_symmetry_2
Mn1 O1 1_555 1_555
Mn2 O6 1_555 1_555
P1 O1 1_555 1_555
O2 P1 1_555 1_555
O3 P1 1_555 1_555
H1 O3 1_555 1_555
O4 P1 1_555 1_555
H2 O4 1_555 1_555
O5 Mn1 1_555 1_555
O6 C1 1_555 1_555
O7 Mn1 1_555 1_555
O8 Mn2 1_555 1_555
O9 Mn2 1_555 1_555
O10 C3 1_555 1_555
O11 Mn2 1_555 1_555
O12 C4 1_555 1_555
C1 O5 1_555 1_555
C2 O7 1_555 1_555
C3 O9 1_555 1_555
C4 O11 1_555 1_555
N1 H3 1_555 1_555
H4 N1 1_555 1_555
H5 N1 1_555 1_555
C5 N1 1_555 1_555
H6 C5 1_555 1_555
H7 C5 1_555 1_555
C6 C5 1_555 1_555
C7 C6 1_555 1_555
Mn1A O10 1_555 1_555
Mn1B O9 1_555 1_555
Mn2_2 O2 1_555 1_555
Mn2C O12 1_555 1_555
O2_2 Mn2 1_555 1_555
O9B Mn1 1_555 1_555
O10A Mn1 1_555 1_555
O12A Mn1 1_555 1_555
O12C Mn2 1_555 1_555
O8 C2 1_555 1_555
O12 Mn1A 1_555 1_555
C1 C2 1_555 1_555
C3 C4 1_555 1_555
Mn1B O12C 1_555 1_555

#END
