
#######################################################################
#
#                 Cambridge Crystallographic Data Centre
#                                CCDC 
#
#######################################################################
#
# If this CIF has been generated from an entry in the Cambridge 
# Structural Database, then it will include bibliographic, chemical, 
# crystal, experimental, refinement or atomic coordinate data resulting 
# from the CCDC's data processing and validation procedures.
#
#######################################################################

data_DUHXIP
_chemical_formula_moiety         '(C120 H84 N24 O24 Zn6)n'
_symmetry_cell_setting           orthorhombic
_symmetry_space_group_name_H-M   'P c c 2'
_symmetry_Int_Tables_number      27
_space_group_name_Hall           'P 2 -2c'
loop_
_symmetry_equiv_pos_site_id
_symmetry_equiv_pos_as_xyz
1 x,y,z
2 -x,-y,z
3 -x,y,1/2+z
4 x,-y,1/2+z
_cell_length_a                   13.9914(2)
_cell_length_b                   20.2561(4)
_cell_length_c                   23.3703(5)
_cell_angle_alpha                90
_cell_angle_beta                 90
_cell_angle_gamma                90
_cell_volume                     6623.4
loop_
_atom_site_label
_atom_site_type_symbol
_atom_site_fract_x
_atom_site_fract_y
_atom_site_fract_z
Zn1 Zn -0.17753(9) 0.19515(7) 1.24702(6)
Zn2 Zn 0.63304(9) 0.22659(8) 0.99610(7)
Zn3 Zn -0.20712(10) 0.31495(8) 0.77921(7)
N1 N -0.0497(6) 0.2053(5) 1.2115(4)
N2 N 0.0922(6) 0.1820(5) 1.1762(4)
N3 N 0.2659(6) -0.0242(5) 1.1626(4)
N4 N 0.2325(6) -0.1222(4) 1.1989(4)
N5 N 0.4218(6) 0.1850(4) 1.1145(4)
N6 N 0.5485(6) 0.2162(5) 1.0645(4)
N7 N 0.5279(6) 0.2444(5) 0.9378(4)
N8 N 0.3989(6) 0.2874(5) 0.8982(4)
N9 N 0.0636(6) 0.3206(5) 0.8547(5)
N10 N -0.0788(7) 0.3031(6) 0.8184(5)
N11 N 0.2774(7) 0.5102(5) 0.8601(5)
N12 N 0.2614(7) 0.6093(5) 0.8245(5)
O1 O -0.1674(7) 0.3312(4) 1.2312(4)
O2 O -0.2806(6) 0.2584(6) 1.2427(5)
O3 O 0.5959(7) 0.0904(4) 0.9870(4)
O4 O 0.7128(6) 0.1566(5) 0.9664(4)
O5 O 0.8051(6) -0.1598(5) 0.8241(4)
O6 O 0.9327(6) -0.0934(5) 0.8091(4)
O7 O 0.7540(9) 0.2782(7) 1.0767(7)
O8 O 0.7045(7) 0.3054(5) 0.9929(5)
O9 O -0.2108(7) 0.3349(5) 0.6971(5)
O10 O -0.1124(8) 0.4141(6) 0.7127(5)
O11 O -0.2474(6) 0.2280(4) 0.7897(4)
O12 O -0.3868(6) 0.2715(5) 0.7702(5)
H1 H -0.3530 0.3034 0.7628
C1 C -0.2544(8) 0.3139(7) 1.2345(6)
C2 C -0.3255(9) 0.3682(7) 1.2313(6)
C3 C -0.4233(8) 0.3567(7) 1.2396(6)
H2 H -0.4442 0.3134 1.2440
C4 C -0.4896(8) 0.4067(6) 1.2415(6)
H3 H -0.5521 0.3965 1.2518
C5 C -0.4663(8) 0.4744(7) 1.2283(6)
C6 C -0.3667(9) 0.4855(8) 1.2167(7)
H4 H -0.3463 0.5278 1.2072
C7 C -0.3002(9) 0.4349(7) 1.2192(6)
H5 H -0.2363 0.4449 1.2126
C8 C 0.0259(7) 0.1692(6) 1.2147(5)
H6 H 0.0332 0.1365 1.2423
C9 C -0.0342(8) 0.2456(7) 1.1664(6)
H7 H -0.0780 0.2758 1.1517
C10 C 0.0560(9) 0.2350(7) 1.1455(6)
H8 H 0.0867 0.2585 1.1166
C11 C 0.1787(7) 0.1516(6) 1.1648(5)
C12 C 0.1806(8) 0.0811(7) 1.1690(5)
H9 H 0.1264 0.0576 1.1799
C13 C 0.2659(7) 0.0488(6) 1.1564(5)
C14 C 0.3463(7) 0.0786(6) 1.1383(5)
H10 H 0.4014 0.0552 1.1292
C15 C 0.3407(7) 0.1511(6) 1.1340(5)
C16 C 0.2584(7) 0.1853(6) 1.1471(5)
H11 H 0.2569 0.2310 1.1440
C17 C 0.2170(8) -0.0562(6) 1.2041(5)
H12 H 0.1789 -0.0363 1.2317
C18 C 0.2917(8) -0.1268(7) 1.1527(5)
H13 H 0.3133 -0.1670 1.1385
C19 C 0.3171(9) -0.0667(6) 1.1286(6)
H14 H 0.3574 -0.0577 1.0980
C20 C 0.4571(8) 0.2433(6) 1.1387(5)
H15 H 0.4308 0.2655 1.1698
C21 C 0.5366(8) 0.2622(7) 1.1091(5)
H16 H 0.5754 0.2984 1.1169
C22 C 0.4782(7) 0.1692(6) 1.0709(5)
H17 H 0.4712 0.1320 1.0481
C23 C 0.6714(9) 0.0966(7) 0.9678(5)
C24 C 0.7279(8) 0.0448(6) 0.9378(5)
C25 C 0.6867(9) -0.0196(7) 0.9379(6)
H18 H 0.6316 -0.0285 0.9588
C26 C 0.7326(9) -0.0701(7) 0.9050(6)
H19 H 0.7051 -0.1118 0.9033
C27 C 0.8175(9) -0.0582(7) 0.8754(6)
C28 C 0.8612(8) 0.0066(7) 0.8800(6)
H20 H 0.9197 0.0154 0.8627
C29 C 0.8141(9) 0.0551(7) 0.9108(6)
H21 H 0.8419 0.0967 0.9133
C30 C 0.8561(9) -0.1084(7) 0.8347(6)
C31 C 0.7547(10) 0.3156(8) 1.0325(8)
C32 C 0.8265(12) 0.3716(9) 1.0317(8)
C33 C 0.8690(11) 0.3929(8) 1.0861(8)
H22 H 0.8537 0.3735 1.1210
C34 C 0.9360(13) 0.4458(9) 1.0808(8)
H23 H 0.9640 0.4617 1.1142
C35 C 0.9621(12) 0.4749(9) 1.0304(8)
C36 C 0.9337(12) 0.4431(9) 0.9782(7)
H24 H 0.9608 0.4554 0.9434
C37 C 0.8593(11) 0.3898(8) 0.9807(7)
H25 H 0.8367 0.3699 0.9475
C38 C 0.4892(9) 0.1997(7) 0.9009(5)
H26 H 0.5143 0.1580 0.8936
C39 C 0.4078(9) 0.2248(6) 0.8758(6)
H27 H 0.3677 0.2040 0.8497
C40 C 0.4718(8) 0.2959(6) 0.9362(6)
H28 H 0.4805 0.3336 0.9583
C41 C 0.3206(7) 0.3317(6) 0.8869(5)
C42 C 0.2329(8) 0.3041(6) 0.8794(5)
H29 H 0.2241 0.2588 0.8833
C43 C 0.1566(8) 0.3455(6) 0.8657(5)
C44 C 0.1701(8) 0.4152(6) 0.8620(5)
H30 H 0.1191 0.4439 0.8561
C45 C 0.2607(8) 0.4375(6) 0.8676(5)
C46 C 0.3415(8) 0.4004(6) 0.8815(5)
H31 H 0.4020 0.4184 0.8867
C47 C 0.0245(9) 0.2683(7) 0.8848(7)
H32 H 0.0530 0.2449 0.9144
C48 C -0.0636(9) 0.2581(8) 0.8623(7)
H33 H -0.1069 0.2261 0.8744
C49 C 0.0013(8) 0.3382(7) 0.8140(6)
H34 H 0.0124 0.3704 0.7865
C50 C 0.2240(8) 0.5452(6) 0.8241(6)
H35 H 0.1722 0.5301 0.8029
C51 C 0.3395(9) 0.6047(7) 0.8603(6)
H36 H 0.3811 0.6397 0.8667
C52 C 0.3494(8) 0.5500(7) 0.8834(6)
H37 H 0.3950 0.5380 0.9105
C53 C -0.1616(12) 0.3866(9) 0.6811(8)
H38 H -0.1664 0.4015 0.6436
C54 C -0.3345(8) 0.2220(8) 0.7811(6)
C55 C -0.3863(8) 0.1565(7) 0.7805(5)
C56 C -0.3337(9) 0.1009(7) 0.7948(6)
H39 H -0.2698 0.1048 0.8055
C57 C -0.3788(8) 0.0373(7) 0.7930(6)
H40 H -0.3437 -0.0007 0.8005
C58 C -0.4770(7) 0.0330(6) 0.7799(5)
C59 C -0.5249(8) 0.0907(7) 0.7633(5)
H41 H -0.5882 0.0874 0.7515
C60 C -0.4823(8) 0.1522(7) 0.7637(5)
H42 H -0.5163 0.1897 0.7531
O1A O -0.8326(7) 0.6688(4) 1.2312(4)
O2A O -0.7194(6) 0.7416(6) 1.2427(5)
C1A C -0.7456(8) 0.6861(7) 1.2345(6)
C2A C -0.6745(9) 0.6318(7) 1.2313(6)
C3A C -0.5767(8) 0.6433(7) 1.2396(6)
H2A H -0.5558 0.6866 1.2440
C4A C -0.5104(8) 0.5933(6) 1.2415(6)
H3A H -0.4479 0.6035 1.2518
C5A C -0.5337(8) 0.5256(7) 1.2283(6)
C6A C -0.6333(9) 0.5145(8) 1.2167(7)
H4A H -0.6537 0.4722 1.2072
C7A C -0.6998(9) 0.5651(7) 1.2192(6)
H5A H -0.7637 0.5551 1.2126
O7A O 1.2460(9) 0.7218(7) 1.0767(7)
O8A O 1.2955(7) 0.6946(5) 0.9929(5)
C31A C 1.2453(10) 0.6844(8) 1.0325(8)
C32A C 1.1735(12) 0.6284(9) 1.0317(8)
C33A C 1.1310(11) 0.6071(8) 1.0861(8)
H22A H 1.1463 0.6265 1.1210
C34A C 1.0640(13) 0.5542(9) 1.0808(8)
H23A H 1.0360 0.5383 1.1142
C35A C 1.0379(12) 0.5251(9) 1.0304(8)
C36A C 1.0663(12) 0.5569(9) 0.9782(7)
H24A H 1.0392 0.5446 0.9434
C37A C 1.1407(11) 0.6102(8) 0.9807(7)
H25A H 1.1633 0.6301 0.9475
O11A O -0.7526(6) -0.2280(4) 0.7897(4)
O12A O -0.6132(6) -0.2715(5) 0.7702(5)
H1A H -0.6470 -0.3034 0.7628
C54A C -0.6655(8) -0.2220(8) 0.7811(6)
C55A C -0.6137(8) -0.1565(7) 0.7805(5)
C56A C -0.6663(9) -0.1009(7) 0.7948(6)
H39A H -0.7302 -0.1048 0.8055
C57A C -0.6212(8) -0.0373(7) 0.7930(6)
H40A H -0.6563 0.0007 0.8005
C58A C -0.5230(7) -0.0330(6) 0.7799(5)
C59A C -0.4751(8) -0.0907(7) 0.7633(5)
H41A H -0.4118 -0.0874 0.7515
C60A C -0.5177(8) -0.1522(7) 0.7637(5)
H42A H -0.4837 -0.1897 0.7531
Zn1A Zn -0.82247(9) -0.19515(7) 1.24702(6)
Zn2A Zn -1.63304(9) -0.22659(8) 0.99610(7)
Zn3A Zn -0.79288(10) -0.31495(8) 0.77921(7)
N1A N -0.9503(6) -0.2053(5) 1.2115(4)
N2A N -1.0922(6) -0.1820(5) 1.1762(4)
N3A N -1.2659(6) 0.0242(5) 1.1626(4)
N4A N -1.2325(6) 0.1222(4) 1.1989(4)
N5A N -1.4218(6) -0.1850(4) 1.1145(4)
N6A N -1.5485(6) -0.2162(5) 1.0645(4)
N7A N -1.5279(6) -0.2444(5) 0.9378(4)
N8A N -1.3989(6) -0.2874(5) 0.8982(4)
N9A N -1.0636(6) -0.3206(5) 0.8547(5)
N10A N -0.9212(7) -0.3031(6) 0.8184(5)
N11A N -1.2774(7) -0.5102(5) 0.8601(5)
N12A N -1.2614(7) -0.6093(5) 0.8245(5)
O3A O -1.5959(7) -0.0904(4) 0.9870(4)
O4A O -1.7128(6) -0.1566(5) 0.9664(4)
O5A O -1.8051(6) 0.1598(5) 0.8241(4)
O6A O -1.9327(6) 0.0934(5) 0.8091(4)
O9A O -0.7892(7) -0.3349(5) 0.6971(5)
O10A O -0.8876(8) -0.4141(6) 0.7127(5)
C8A C -1.0259(7) -0.1692(6) 1.2147(5)
H6A H -1.0332 -0.1365 1.2423
C9A C -0.9658(8) -0.2456(7) 1.1664(6)
H7A H -0.9220 -0.2758 1.1517
C10A C -1.0560(9) -0.2350(7) 1.1455(6)
H8A H -1.0867 -0.2585 1.1166
C11A C -1.1787(7) -0.1516(6) 1.1648(5)
C12A C -1.1806(8) -0.0811(7) 1.1690(5)
H9A H -1.1264 -0.0576 1.1799
C13A C -1.2659(7) -0.0488(6) 1.1564(5)
C14A C -1.3463(7) -0.0786(6) 1.1383(5)
H10A H -1.4014 -0.0552 1.1292
C15A C -1.3407(7) -0.1511(6) 1.1340(5)
C16A C -1.2584(7) -0.1853(6) 1.1471(5)
H11A H -1.2569 -0.2310 1.1440
C17A C -1.2170(8) 0.0562(6) 1.2041(5)
H12A H -1.1789 0.0363 1.2317
C18A C -1.2917(8) 0.1268(7) 1.1527(5)
H13A H -1.3133 0.1670 1.1385
C19A C -1.3171(9) 0.0667(6) 1.1286(6)
H14A H -1.3574 0.0577 1.0980
C20A C -1.4571(8) -0.2433(6) 1.1387(5)
H15A H -1.4308 -0.2655 1.1698
C21A C -1.5366(8) -0.2622(7) 1.1091(5)
H16A H -1.5754 -0.2984 1.1169
C22A C -1.4782(7) -0.1692(6) 1.0709(5)
H17A H -1.4712 -0.1320 1.0481
C23A C -1.6714(9) -0.0966(7) 0.9678(5)
C24A C -1.7279(8) -0.0448(6) 0.9378(5)
C25A C -1.6867(9) 0.0196(7) 0.9379(6)
H18A H -1.6316 0.0285 0.9588
C26A C -1.7326(9) 0.0701(7) 0.9050(6)
H19A H -1.7051 0.1118 0.9033
C27A C -1.8175(9) 0.0582(7) 0.8754(6)
C28A C -1.8612(8) -0.0066(7) 0.8800(6)
H20A H -1.9197 -0.0154 0.8627
C29A C -1.8141(9) -0.0551(7) 0.9108(6)
H21A H -1.8419 -0.0967 0.9133
C30A C -1.8561(9) 0.1084(7) 0.8347(6)
C38A C -1.4892(9) -0.1997(7) 0.9009(5)
H26A H -1.5143 -0.1580 0.8936
C39A C -1.4078(9) -0.2248(6) 0.8758(6)
H27A H -1.3677 -0.2040 0.8497
C40A C -1.4718(8) -0.2959(6) 0.9362(6)
H28A H -1.4805 -0.3336 0.9583
C41A C -1.3206(7) -0.3317(6) 0.8869(5)
C42A C -1.2329(8) -0.3041(6) 0.8794(5)
H29A H -1.2241 -0.2588 0.8833
C43A C -1.1566(8) -0.3455(6) 0.8657(5)
C44A C -1.1701(8) -0.4152(6) 0.8620(5)
H30A H -1.1191 -0.4439 0.8561
C45A C -1.2607(8) -0.4375(6) 0.8676(5)
C46A C -1.3415(8) -0.4004(6) 0.8815(5)
H31A H -1.4020 -0.4184 0.8867
C47A C -1.0245(9) -0.2683(7) 0.8848(7)
H32A H -1.0530 -0.2449 0.9144
C48A C -0.9364(9) -0.2581(8) 0.8623(7)
H33A H -0.8931 -0.2261 0.8744
C49A C -1.0013(8) -0.3382(7) 0.8140(6)
H34A H -1.0124 -0.3704 0.7865
C50A C -1.2240(8) -0.5452(6) 0.8241(6)
H35A H -1.1722 -0.5301 0.8029
C51A C -1.3395(9) -0.6047(7) 0.8603(6)
H36A H -1.3811 -0.6397 0.8667
C52A C -1.3494(8) -0.5500(7) 0.8834(6)
H37A H -1.3950 -0.5380 0.9105
C53A C -0.8384(12) -0.3866(9) 0.6811(8)
H38A H -0.8336 -0.4015 0.6436
Zn1_2 Zn -1.17753(9) 0.19515(7) 1.24702(6)
Zn1A_2 Zn -0.82247(9) 0.80485(7) 1.24702(6)
Zn1A_3 Zn 0.17753(9) -0.19515(7) 1.24702(6)
Zn1B Zn -1.82247(9) 0.19515(7) 0.74702(6)
Zn1C Zn 0.82247(9) -0.19515(7) 0.74702(6)
Zn2A_2 Zn 1.36696(9) 0.77341(8) 0.99610(7)
Zn3_2 Zn -1.20712(10) -0.68505(8) 0.77921(7)
Zn3A_2 Zn 0.20712(10) 0.68505(8) 0.77921(7)
N4_2 N -0.7675(6) -0.1222(4) 1.1989(4)
N4A_2 N -0.2325(6) 0.1222(4) 1.1989(4)
N12_2 N -0.7386(7) -0.3907(5) 0.8245(5)
N12A_2 N -0.2614(7) 0.3907(5) 0.8245(5)
O2A_2 O -0.7194(6) -0.2584(6) 1.2427(5)
O5B O -0.8051(6) -0.1598(5) 1.3241(4)
O5C O -0.1949(6) 0.1598(5) 1.3241(4)
O8A_2 O -1.7045(7) -0.3054(5) 0.9929(5)
loop_
_geom_bond_atom_site_label_1
_geom_bond_atom_site_label_2
_geom_bond_site_symmetry_1
_geom_bond_site_symmetry_2
Zn1 N1 1_555 1_555
Zn2 N6 1_555 1_555
Zn3 N10 1_555 1_555
N1 C8 1_555 1_555
N2 C8 1_555 1_555
N3 C13 1_555 1_555
N4 C17 1_555 1_555
N5 C15 1_555 1_555
N6 C21 1_555 1_555
N7 Zn2 1_555 1_555
N8 C39 1_555 1_555
N9 C43 1_555 1_555
N10 C48 1_555 1_555
N11 C45 1_555 1_555
N12 C50 1_555 1_555
O1 C1 1_555 1_555
O2 Zn1 1_555 1_555
O3 C23 1_555 1_555
O4 Zn2 1_555 1_555
O5 C30 1_555 1_555
O6 C30 1_555 1_555
O7 C31 1_555 1_555
O8 Zn2 1_555 1_555
O9 Zn3 1_555 1_555
O10 C53 1_555 1_555
O11 Zn3 1_555 1_555
O12 H1 1_555 1_555
C1 O2 1_555 1_555
C2 C1 1_555 1_555
C3 C2 1_555 1_555
H2 C3 1_555 1_555
C4 C3 1_555 1_555
H3 C4 1_555 1_555
C5 C4 1_555 1_555
C6 C5 1_555 1_555
H4 C6 1_555 1_555
C7 C2 1_555 1_555
H5 C7 1_555 1_555
C8 H6 1_555 1_555
C9 N1 1_555 1_555
H7 C9 1_555 1_555
C10 N2 1_555 1_555
H8 C10 1_555 1_555
C11 N2 1_555 1_555
C12 C11 1_555 1_555
H9 C12 1_555 1_555
C13 C12 1_555 1_555
C14 C13 1_555 1_555
H10 C14 1_555 1_555
C15 C14 1_555 1_555
C16 C11 1_555 1_555
H11 C16 1_555 1_555
C17 N3 1_555 1_555
H12 C17 1_555 1_555
C18 N4 1_555 1_555
H13 C18 1_555 1_555
C19 N3 1_555 1_555
H14 C19 1_555 1_555
C20 N5 1_555 1_555
H15 C20 1_555 1_555
C21 C20 1_555 1_555
H16 C21 1_555 1_555
C22 N5 1_555 1_555
H17 C22 1_555 1_555
C23 O4 1_555 1_555
C24 C23 1_555 1_555
C25 C24 1_555 1_555
H18 C25 1_555 1_555
C26 C25 1_555 1_555
H19 C26 1_555 1_555
C27 C26 1_555 1_555
C28 C27 1_555 1_555
H20 C28 1_555 1_555
C29 C24 1_555 1_555
H21 C29 1_555 1_555
C30 C27 1_555 1_555
C31 O8 1_555 1_555
C32 C31 1_555 1_555
C33 C32 1_555 1_555
H22 C33 1_555 1_555
C34 C33 1_555 1_555
H23 C34 1_555 1_555
C35 C34 1_555 1_555
C36 C35 1_555 1_555
H24 C36 1_555 1_555
C37 C32 1_555 1_555
H25 C37 1_555 1_555
C38 N7 1_555 1_555
H26 C38 1_555 1_555
C39 C38 1_555 1_555
H27 C39 1_555 1_555
C40 N7 1_555 1_555
H28 C40 1_555 1_555
C41 N8 1_555 1_555
C42 C41 1_555 1_555
H29 C42 1_555 1_555
C43 C42 1_555 1_555
C44 C43 1_555 1_555
H30 C44 1_555 1_555
C45 C44 1_555 1_555
C46 C41 1_555 1_555
H31 C46 1_555 1_555
C47 N9 1_555 1_555
H32 C47 1_555 1_555
C48 C47 1_555 1_555
H33 C48 1_555 1_555
C49 N9 1_555 1_555
H34 C49 1_555 1_555
C50 N11 1_555 1_555
H35 C50 1_555 1_555
C51 N12 1_555 1_555
H36 C51 1_555 1_555
C52 N11 1_555 1_555
H37 C52 1_555 1_555
C53 O9 1_555 1_555
H38 C53 1_555 1_555
C54 O11 1_555 1_555
C55 C54 1_555 1_555
C56 C55 1_555 1_555
H39 C56 1_555 1_555
C57 C56 1_555 1_555
H40 C57 1_555 1_555
C58 C57 1_555 1_555
C59 C58 1_555 1_555
H41 C59 1_555 1_555
C60 C55 1_555 1_555
H42 C60 1_555 1_555
O1A C1A 1_555 1_555
O2A C1A 1_555 1_555
C1A C2A 1_555 1_555
C2A C3A 1_555 1_555
C3A H2A 1_555 1_555
C4A C3A 1_555 1_555
H3A C4A 1_555 1_555
C5A C5 1_555 1_555
C6A C5A 1_555 1_555
H4A C6A 1_555 1_555
C7A C2A 1_555 1_555
H5A C7A 1_555 1_555
O7A C31A 1_555 1_555
O8A C31A 1_555 1_555
C31A C32A 1_555 1_555
C32A C33A 1_555 1_555
C33A H22A 1_555 1_555
C34A C33A 1_555 1_555
H23A C34A 1_555 1_555
C35A C35 1_555 1_555
C36A C35A 1_555 1_555
H24A C36A 1_555 1_555
C37A C32A 1_555 1_555
H25A C37A 1_555 1_555
O11A C54A 1_555 1_555
O12A H1A 1_555 1_555
C54A O12A 1_555 1_555
C55A C54A 1_555 1_555
C56A C55A 1_555 1_555
H39A C56A 1_555 1_555
C57A C56A 1_555 1_555
H40A C57A 1_555 1_555
C58A C58 1_555 1_555
C59A C58A 1_555 1_555
H41A C59A 1_555 1_555
C60A C55A 1_555 1_555
H42A C60A 1_555 1_555
Zn1A N1A 1_555 1_555
Zn2A N6A 1_555 1_555
Zn3A O11A 1_555 1_555
N1A C8A 1_555 1_555
N2A C8A 1_555 1_555
N3A C13A 1_555 1_555
N4A C17A 1_555 1_555
N5A C15A 1_555 1_555
N6A C21A 1_555 1_555
N7A Zn2A 1_555 1_555
N8A C39A 1_555 1_555
N9A C43A 1_555 1_555
N10A Zn3A 1_555 1_555
N11A C45A 1_555 1_555
N12A C50A 1_555 1_555
O3A C23A 1_555 1_555
O4A Zn2A 1_555 1_555
O5A C30A 1_555 1_555
O6A C30A 1_555 1_555
O9A Zn3A 1_555 1_555
O10A C53A 1_555 1_555
C8A H6A 1_555 1_555
C9A N1A 1_555 1_555
H7A C9A 1_555 1_555
C10A N2A 1_555 1_555
H8A C10A 1_555 1_555
C11A N2A 1_555 1_555
C12A C11A 1_555 1_555
H9A C12A 1_555 1_555
C13A C12A 1_555 1_555
C14A C13A 1_555 1_555
H10A C14A 1_555 1_555
C15A C14A 1_555 1_555
C16A C11A 1_555 1_555
H11A C16A 1_555 1_555
C17A N3A 1_555 1_555
H12A C17A 1_555 1_555
C18A N4A 1_555 1_555
H13A C18A 1_555 1_555
C19A N3A 1_555 1_555
H14A C19A 1_555 1_555
C20A N5A 1_555 1_555
H15A C20A 1_555 1_555
C21A C20A 1_555 1_555
H16A C21A 1_555 1_555
C22A N5A 1_555 1_555
H17A C22A 1_555 1_555
C23A O4A 1_555 1_555
C24A C23A 1_555 1_555
C25A C24A 1_555 1_555
H18A C25A 1_555 1_555
C26A C25A 1_555 1_555
H19A C26A 1_555 1_555
C27A C26A 1_555 1_555
C28A C27A 1_555 1_555
H20A C28A 1_555 1_555
C29A C24A 1_555 1_555
H21A C29A 1_555 1_555
C30A C27A 1_555 1_555
C38A N7A 1_555 1_555
H26A C38A 1_555 1_555
C39A C38A 1_555 1_555
H27A C39A 1_555 1_555
C40A N7A 1_555 1_555
H28A C40A 1_555 1_555
C41A N8A 1_555 1_555
C42A C41A 1_555 1_555
H29A C42A 1_555 1_555
C43A C42A 1_555 1_555
C44A C43A 1_555 1_555
H30A C44A 1_555 1_555
C45A C44A 1_555 1_555
C46A C41A 1_555 1_555
H31A C46A 1_555 1_555
C47A N9A 1_555 1_555
H32A C47A 1_555 1_555
C48A N10A 1_555 1_555
H33A C48A 1_555 1_555
C49A N9A 1_555 1_555
H34A C49A 1_555 1_555
C50A N11A 1_555 1_555
H35A C50A 1_555 1_555
C51A N12A 1_555 1_555
H36A C51A 1_555 1_555
C52A N11A 1_555 1_555
H37A C52A 1_555 1_555
C53A O9A 1_555 1_555
H38A C53A 1_555 1_555
Zn1_2 N4A 1_555 1_555
Zn1A_2 O2A 1_555 1_555
Zn1A_3 N4 1_555 1_555
Zn1B O5A 1_555 1_555
Zn1C O5 1_555 1_555
Zn2A_2 O8A 1_555 1_555
Zn3_2 N12A 1_555 1_555
Zn3A_2 N12 1_555 1_555
N4_2 Zn1A 1_555 1_555
N4A_2 Zn1 1_555 1_555
N12_2 Zn3A 1_555 1_555
N12A_2 Zn3 1_555 1_555
O2A_2 Zn1A 1_555 1_555
O5B Zn1A 1_555 1_555
O5C Zn1 1_555 1_555
O8A_2 Zn2A 1_555 1_555
N6 C22 1_555 1_555
N8 C40 1_555 1_555
N10 C49 1_555 1_555
O12 C54 1_555 1_555
C6 C7 1_555 1_555
C9 C10 1_555 1_555
C15 C16 1_555 1_555
C18 C19 1_555 1_555
C28 C29 1_555 1_555
C36 C37 1_555 1_555
C45 C46 1_555 1_555
C51 C52 1_555 1_555
C59 C60 1_555 1_555
C4A C5A 1_555 1_555
C6A C7A 1_555 1_555
C34A C35A 1_555 1_555
C36A C37A 1_555 1_555
C57A C58A 1_555 1_555
C59A C60A 1_555 1_555
N6A C22A 1_555 1_555
N8A C40A 1_555 1_555
N10A C49A 1_555 1_555
C9A C10A 1_555 1_555
C15A C16A 1_555 1_555
C18A C19A 1_555 1_555
C28A C29A 1_555 1_555
C45A C46A 1_555 1_555
C47A C48A 1_555 1_555
C51A C52A 1_555 1_555

#END
