
#######################################################################
#
#                 Cambridge Crystallographic Data Centre
#                                CCDC 
#
#######################################################################
#
# If this CIF has been generated from an entry in the Cambridge 
# Structural Database, then it will include bibliographic, chemical, 
# crystal, experimental, refinement or atomic coordinate data resulting 
# from the CCDC's data processing and validation procedures.
#
#######################################################################

data_MICDEJ
_chemical_formula_moiety         '(C48 H40 Mn3 N2 O20)n'
_symmetry_cell_setting           monoclinic
_symmetry_space_group_name_H-M   'C 2/c'
_symmetry_Int_Tables_number      15
_space_group_name_Hall           '-C 2yc'
loop_
_symmetry_equiv_pos_site_id
_symmetry_equiv_pos_as_xyz
1 x,y,z
2 -x,y,1/2-z
3 1/2+x,1/2+y,z
4 1/2-x,1/2+y,1/2-z
5 -x,-y,-z
6 x,-y,1/2+z
7 1/2-x,1/2-y,-z
8 1/2+x,1/2-y,1/2+z
_cell_length_a                   27.430(4)
_cell_length_b                   21.601(3)
_cell_length_c                   9.3796(12)
_cell_angle_alpha                90
_cell_angle_beta                 106.412(2)
_cell_angle_gamma                90
_cell_volume                     5331.11
loop_
_atom_site_label
_atom_site_type_symbol
_atom_site_fract_x
_atom_site_fract_y
_atom_site_fract_z
_atom_site_U_iso_or_equiv
_atom_site_thermal_displace_type
C1 C 0.33433(9) 0.33018(14) 0.4203(3) 0.0318 Uani
C2 C 0.38944(9) 0.32584(13) 0.4199(3) 0.0309 Uani
C3 C 0.41260(9) 0.26874(14) 0.4253(3) 0.0352 Uani
H1 H 0.3943 0.2326 0.4262 0.0420 Uiso
C4 C 0.46326(10) 0.26613(15) 0.4294(3) 0.0398 Uani
C5 C 0.49082(10) 0.31848(15) 0.4270(3) 0.0446 Uani
H2 H 0.5246 0.3161 0.4267 0.0540 Uiso
C6 C 0.46732(10) 0.37518(15) 0.4251(3) 0.0431 Uani
C7 C 0.41670(9) 0.37929(14) 0.4203(3) 0.0384 Uani
H3 H 0.4012 0.4177 0.4175 0.0460 Uiso
C8 C 0.54412(10) 0.43281(14) 0.4926(4) 0.0450 Uani
C9 C 0.56391(11) 0.41153(16) 0.6350(3) 0.0475 Uani
H4 H 0.5429 0.3923 0.6839 0.0570 Uiso
C10 C 0.61456(10) 0.41855(15) 0.7048(3) 0.0428 Uani
H5 H 0.6281 0.4037 0.8010 0.0520 Uiso
C11 C 0.64570(9) 0.44776(13) 0.6324(3) 0.0332 Uani
C12 C 0.62534(10) 0.46867(14) 0.4891(3) 0.0388 Uani
H6 H 0.6462 0.4881 0.4399 0.0470 Uiso
C13 C 0.57433(10) 0.46102(14) 0.4177(3) 0.0437 Uani
H7 H 0.5607 0.4748 0.3206 0.0520 Uiso
C14 C 0.70052(10) 0.45718(14) 0.7124(3) 0.0389 Uani
C15 C 0.53380(10) 0.19707(15) 0.5161(4) 0.0473 Uani
C16 C 0.55532(11) 0.22513(16) 0.6502(3) 0.0488 Uani
H8 H 0.5379 0.2560 0.6844 0.0580 Uiso
C17 C 0.60321(11) 0.20709(16) 0.7342(3) 0.0466 Uani
H9 H 0.6182 0.2267 0.8242 0.0560 Uiso
C18 C 0.62891(10) 0.16058(14) 0.6862(3) 0.0404 Uani
C19 C 0.60712(12) 0.13444(18) 0.5499(4) 0.0584 Uani
H10 H 0.6246 0.1037 0.5151 0.0700 Uiso
C20 C 0.55961(12) 0.15278(17) 0.4628(4) 0.0630 Uani
H11 H 0.5456 0.1352 0.3696 0.0750 Uiso
C21 C 0.67847(10) 0.13606(15) 0.7811(3) 0.0402 Uani
C22 C 0.16545(16) 0.2023(2) -0.0153(4) 0.0770 Uani
H12 H 0.1507 0.2186 0.0584 0.1150 Uiso
H13 H 0.1450 0.1688 -0.0669 0.1150 Uiso
H14 H 0.1670 0.2344 -0.0848 0.1150 Uiso
C23 C 0.24200(17) 0.1490(2) -0.0360(4) 0.0791 Uani
H15 H 0.2740 0.1338 0.0251 0.1180 Uiso
H16 H 0.2478 0.1774 -0.1083 0.1180 Uiso
H17 H 0.2218 0.1150 -0.0860 0.1180 Uiso
C24 C 0.23699(12) 0.18888(16) 0.1990(4) 0.0506 Uani
H18 H 0.2698 0.1739 0.2395 0.0610 Uiso
Mn1 Mn 0.252932(14) 0.433405(19) 0.43900(4) 0.0321 Uani
Mn2 Mn 0.2500 0.2500 0.5000 0.0395 Uani
N1 N 0.21566(11) 0.18034(13) 0.0555(3) 0.0528 Uani
O1 O 0.31262(7) 0.28092(10) 0.4311(2) 0.0473 Uani
O2 O 0.31553(7) 0.38316(10) 0.4087(2) 0.0467 Uani
O3 O 0.49242(7) 0.43006(11) 0.4206(3) 0.0637 Uani
O4 O 0.71621(9) 0.43377(12) 0.8383(2) 0.0692 Uani
O5 O 0.72797(7) 0.48549(11) 0.6501(3) 0.0591 Uani
O6 O 0.48456(7) 0.20802(11) 0.4293(3) 0.0592 Uani
O7 O 0.70043(7) 0.16024(10) 0.9056(2) 0.0455 Uani
O8 O 0.69625(7) 0.08858(11) 0.7363(2) 0.0476 Uani
O9 O 0.19056(8) 0.49124(12) 0.4913(3) 0.0675 Uani
H19 H 0.2025 0.5091 0.5746 0.0810 Uiso
H20 H 0.1666 0.4675 0.4979 0.0810 Uiso
O10 O 0.21677(8) 0.21487(11) 0.2816(2) 0.0561 Uani
C1A C 0.66567(9) 0.33018(14) 1.0797(3) 0.0318 Uani
C2A C 0.61056(9) 0.32584(13) 1.0801(3) 0.0309 Uani
C3A C 0.58740(9) 0.26874(14) 1.0747(3) 0.0352 Uani
H1A H 0.6057 0.2326 1.0738 0.0420 Uiso
C4A C 0.53674(10) 0.26613(15) 1.0706(3) 0.0398 Uani
C5A C 0.50918(10) 0.31848(15) 1.0730(3) 0.0446 Uani
H2A H 0.4754 0.3161 1.0733 0.0540 Uiso
C6A C 0.53268(10) 0.37518(15) 1.0749(3) 0.0431 Uani
C7A C 0.58330(9) 0.37929(14) 1.0797(3) 0.0384 Uani
H3A H 0.5988 0.4177 1.0825 0.0460 Uiso
C8A C 0.45588(10) 0.43281(14) 1.0074(4) 0.0450 Uani
C9A C 0.43609(11) 0.41153(16) 0.8650(3) 0.0475 Uani
H4A H 0.4571 0.3923 0.8161 0.0570 Uiso
C10A C 0.38544(10) 0.41855(15) 0.7952(3) 0.0428 Uani
H5A H 0.3719 0.4037 0.6990 0.0520 Uiso
C11A C 0.35430(9) 0.44776(13) 0.8676(3) 0.0332 Uani
C12A C 0.37466(10) 0.46867(14) 1.0109(3) 0.0388 Uani
H6A H 0.3538 0.4881 1.0601 0.0470 Uiso
C13A C 0.42567(10) 0.46102(14) 1.0823(3) 0.0437 Uani
H7A H 0.4393 0.4748 1.1794 0.0520 Uiso
C14A C 0.29948(10) 0.45718(14) 0.7876(3) 0.0389 Uani
C15A C 0.46620(10) 0.19707(15) 0.9839(4) 0.0473 Uani
C16A C 0.44468(11) 0.22513(16) 0.8498(3) 0.0488 Uani
H8A H 0.4621 0.2560 0.8156 0.0580 Uiso
C17A C 0.39679(11) 0.20709(16) 0.7658(3) 0.0466 Uani
H9A H 0.3818 0.2267 0.6758 0.0560 Uiso
C18A C 0.37109(10) 0.16058(14) 0.8138(3) 0.0404 Uani
C19A C 0.39288(12) 0.13444(18) 0.9501(4) 0.0584 Uani
H10A H 0.3754 0.1037 0.9849 0.0700 Uiso
C20A C 0.44039(12) 0.15278(17) 1.0372(4) 0.0630 Uani
H11A H 0.4544 0.1352 1.1304 0.0750 Uiso
C21A C 0.32153(10) 0.13606(15) 0.7189(3) 0.0402 Uani
Mn1A Mn 0.747068(14) 0.433405(19) 1.06100(4) 0.0321 Uani
O1A O 0.68738(7) 0.28092(10) 1.0689(2) 0.0473 Uani
O2A O 0.68447(7) 0.38316(10) 1.0913(2) 0.0467 Uani
O3A O 0.50758(7) 0.43006(11) 1.0794(3) 0.0637 Uani
O4A O 0.28379(9) 0.43377(12) 0.6617(2) 0.0692 Uani
O5A O 0.27203(7) 0.48549(11) 0.8499(3) 0.0591 Uani
O6A O 0.51544(7) 0.20802(11) 1.0707(3) 0.0592 Uani
O7A O 0.29957(7) 0.16024(10) 0.5944(2) 0.0455 Uani
O8A O 0.30375(7) 0.08858(11) 0.7637(2) 0.0476 Uani
O9A O 0.80944(8) 0.49124(12) 1.0087(3) 0.0675 Uani
H19A H 0.7975 0.5091 0.9254 0.0810 Uiso
H20A H 0.8334 0.4675 1.0021 0.0810 Uiso
C22F C 0.33455(16) 0.2977(2) 1.0153(4) 0.0770 Uani
H12F H 0.3493 0.2814 0.9416 0.1150 Uiso
H13F H 0.3550 0.3312 1.0669 0.1150 Uiso
H14F H 0.3330 0.2656 1.0848 0.1150 Uiso
C23F C 0.25800(17) 0.3510(2) 1.0360(4) 0.0791 Uani
H15F H 0.2260 0.3662 0.9749 0.1180 Uiso
H16F H 0.2522 0.3226 1.1083 0.1180 Uiso
H17F H 0.2782 0.3850 1.0860 0.1180 Uiso
C24F C 0.26301(12) 0.31112(16) 0.8010(4) 0.0506 Uani
H18F H 0.2302 0.3261 0.7605 0.0610 Uiso
N1F N 0.28434(11) 0.31966(13) 0.9445(3) 0.0528 Uani
O10F O 0.28323(8) 0.28513(11) 0.7184(2) 0.0561 Uani
Mn1D Mn 0.747068(14) 0.566595(19) 0.56100(4) 0.0321 Uani
Mn1E Mn 0.252932(14) 0.566595(19) 0.93900(4) 0.0321 Uani
Mn1F Mn 0.247068(14) 0.066595(19) 0.56100(4) 0.0321 Uani
Mn1G Mn 0.752932(14) 0.066595(19) 0.93900(4) 0.0321 Uani
Mn2A Mn 0.7500 0.2500 1.0000 0.0395 Uani
O1F O 0.18738(7) 0.21908(10) 0.5689(2) 0.0473 Uani
O5D O 0.27203(7) 0.51451(11) 0.3499(3) 0.0591 Uani
O5E O 0.72797(7) 0.51451(11) 1.1501(3) 0.0591 Uani
O7F O 0.79957(7) 0.33976(10) 1.0944(2) 0.0455 Uani
O7G O 0.20043(7) 0.33976(10) 0.4056(2) 0.0455 Uani
O8F O 0.80375(7) 0.41142(11) 1.2637(2) 0.0476 Uani
O8G O 0.19625(7) 0.41142(11) 0.2363(2) 0.0476 Uani
loop_
_atom_site_aniso_label
_atom_site_aniso_U_11
_atom_site_aniso_U_22
_atom_site_aniso_U_33
_atom_site_aniso_U_23
_atom_site_aniso_U_13
_atom_site_aniso_U_12
C1 0.0221(12) 0.0472(19) 0.0253(14) -0.0034(12) 0.0053(11) -0.0020(13)
C2 0.0227(12) 0.0411(17) 0.0281(14) -0.0002(11) 0.0061(11) 0.0010(12)
C3 0.0231(12) 0.0388(17) 0.0395(16) 0.0026(12) 0.0020(11) -0.0007(12)
C4 0.0244(13) 0.0472(19) 0.0424(17) -0.0028(13) 0.0006(12) 0.0086(13)
C5 0.0191(12) 0.060(2) 0.0545(19) 0.0015(15) 0.0101(13) 0.0048(14)
C6 0.0223(12) 0.050(2) 0.0523(19) 0.0100(14) 0.0030(12) -0.0035(14)
C7 0.0238(12) 0.0382(17) 0.0507(18) 0.0021(13) 0.0065(12) 0.0028(12)
C8 0.0225(12) 0.045(2) 0.064(2) 0.0044(15) 0.0066(13) -0.0033(13)
C9 0.0365(15) 0.058(2) 0.052(2) 0.0044(15) 0.0188(15) -0.0099(15)
C10 0.0390(15) 0.055(2) 0.0346(16) 0.0011(13) 0.0106(13) -0.0098(15)
C11 0.0276(13) 0.0342(16) 0.0358(15) -0.0010(11) 0.0055(12) -0.0037(12)
C12 0.0279(13) 0.0448(19) 0.0430(17) 0.0067(13) 0.0088(13) -0.0050(13)
C13 0.0323(14) 0.0465(19) 0.0465(18) 0.0131(14) 0.0016(13) -0.0063(14)
C14 0.0303(14) 0.0392(17) 0.0428(18) -0.0073(13) 0.0031(13) -0.0037(13)
C15 0.0254(13) 0.049(2) 0.061(2) 0.0012(15) 0.0017(14) 0.0112(14)
C16 0.0339(15) 0.056(2) 0.054(2) -0.0063(16) 0.0084(14) 0.0174(15)
C17 0.0316(14) 0.060(2) 0.0454(18) -0.0012(15) 0.0061(13) 0.0101(15)
C18 0.0281(13) 0.053(2) 0.0376(17) 0.0084(13) 0.0053(13) 0.0102(13)
C19 0.0393(17) 0.069(3) 0.059(2) -0.0134(17) 0.0009(16) 0.0242(17)
C20 0.0440(18) 0.073(3) 0.058(2) -0.0223(18) -0.0084(16) 0.0243(18)
C21 0.0278(13) 0.052(2) 0.0411(18) 0.0160(14) 0.0101(13) 0.0080(14)
C22 0.088(3) 0.085(3) 0.048(2) -0.0069(19) 0.003(2) 0.010(2)
C23 0.111(3) 0.081(3) 0.057(2) -0.012(2) 0.043(2) -0.001(2)
C24 0.0459(17) 0.053(2) 0.055(2) -0.0046(15) 0.0178(16) -0.0062(16)
Mn1 0.02152(19) 0.0387(3) 0.0338(2) 0.00028(18) 0.00403(17) -0.00168(18)
Mn2 0.0327(3) 0.0555(4) 0.0329(3) -0.0081(3) 0.0133(3) -0.0172(3)
N1 0.0681(19) 0.0558(18) 0.0333(15) -0.0074(12) 0.0123(14) -0.0042(15)
O1 0.0285(10) 0.0512(14) 0.0662(14) 0.0029(10) 0.0200(10) -0.0060(10)
O2 0.0275(10) 0.0471(14) 0.0681(14) -0.0052(10) 0.0175(10) 0.0032(10)
O3 0.0216(9) 0.0579(16) 0.1019(19) 0.0287(13) 0.0018(11) -0.0043(10)
O4 0.0555(14) 0.103(2) 0.0359(13) 0.0056(13) -0.0085(11) -0.0136(14)
O5 0.0296(11) 0.0507(15) 0.0919(17) 0.0207(12) 0.0089(11) -0.0094(10)
O6 0.0280(10) 0.0536(15) 0.0819(17) -0.0136(12) -0.0073(11) 0.0153(11)
O7 0.0318(10) 0.0605(15) 0.0409(12) 0.0064(10) 0.0049(9) 0.0061(10)
O8 0.0346(10) 0.0591(15) 0.0456(12) 0.0072(10) 0.0054(9) 0.0184(10)
O9 0.0461(13) 0.084(2) 0.0721(16) -0.0245(13) 0.0164(12) 0.0021(13)
O10 0.0491(13) 0.0754(18) 0.0444(13) -0.0157(11) 0.0144(11) -0.0040(12)
C1A 0.0221 0.0472 0.0253 0.0034 0.0053 0.002
C2A 0.0227 0.0411 0.0281 0.0002 0.0061 -0.001
C3A 0.0231 0.0388 0.0395 -0.0026 0.002 0.0007
C4A 0.0244 0.0472 0.0424 0.0028 0.0006 -0.0086
C5A 0.0191 0.06 0.0545 -0.0015 0.0101 -0.0048
C6A 0.0223 0.05 0.0523 -0.01 0.003 0.0035
C7A 0.0238 0.0382 0.0507 -0.0021 0.0065 -0.0028
C8A 0.0225 0.045 0.064 -0.0044 0.0066 0.0033
C9A 0.0365 0.058 0.052 -0.0044 0.0188 0.0099
C10A 0.039 0.055 0.0346 -0.0011 0.0106 0.0098
C11A 0.0276 0.0342 0.0358 0.001 0.0055 0.0037
C12A 0.0279 0.0448 0.043 -0.0067 0.0088 0.005
C13A 0.0323 0.0465 0.0465 -0.0131 0.0016 0.0063
C14A 0.0303 0.0392 0.0428 0.0073 0.0031 0.0037
C15A 0.0254 0.049 0.061 -0.0012 0.0017 -0.0112
C16A 0.0339 0.056 0.054 0.0063 0.0084 -0.0174
C17A 0.0316 0.06 0.0454 0.0012 0.0061 -0.0101
C18A 0.0281 0.053 0.0376 -0.0084 0.0053 -0.0102
C19A 0.0393 0.069 0.059 0.0134 0.0009 -0.0242
C20A 0.044 0.073 0.058 0.0223 -0.0084 -0.0243
C21A 0.0278 0.052 0.0411 -0.016 0.0101 -0.008
Mn1A 0.02152 0.0387 0.0338 -0.00028 0.00403 0.00168
O1A 0.0285 0.0512 0.0662 -0.0029 0.02 0.006
O2A 0.0275 0.0471 0.0681 0.0052 0.0175 -0.0032
O3A 0.0216 0.0579 0.1019 -0.0287 0.0018 0.0043
O4A 0.0555 0.103 0.0359 -0.0056 -0.0085 0.0136
O5A 0.0296 0.0507 0.0919 -0.0207 0.0089 0.0094
O6A 0.028 0.0536 0.0819 0.0136 -0.0073 -0.0153
O7A 0.0318 0.0605 0.0409 -0.0064 0.0049 -0.0061
O8A 0.0346 0.0591 0.0456 -0.0072 0.0054 -0.0184
O9A 0.0461 0.084 0.0721 0.0245 0.0164 -0.0021
C22F 0.088 0.085 0.048 -0.0069 0.003 0.01
C23F 0.111 0.081 0.057 -0.012 0.043 -0.001
C24F 0.0459 0.053 0.055 -0.0046 0.0178 -0.0062
N1F 0.0681 0.0558 0.0333 -0.0074 0.0123 -0.0042
O10F 0.0491 0.0754 0.0444 -0.0157 0.0144 -0.004
Mn1D 0.02152 0.0387 0.0338 0.00028 0.00403 -0.00168
Mn1E 0.02152 0.0387 0.0338 -0.00028 0.00403 0.00168
Mn1F 0.02152 0.0387 0.0338 0.00028 0.00403 -0.00168
Mn1G 0.02152 0.0387 0.0338 -0.00028 0.00403 0.00168
Mn2A 0.0327 0.0555 0.0329 0.0081 0.0133 0.0172
O1F 0.0285 0.0512 0.0662 0.0029 0.02 -0.006
O5D 0.0296 0.0507 0.0919 0.0207 0.0089 -0.0094
O5E 0.0296 0.0507 0.0919 -0.0207 0.0089 0.0094
O7F 0.0318 0.0605 0.0409 0.0064 0.0049 0.0061
O7G 0.0318 0.0605 0.0409 -0.0064 0.0049 -0.0061
O8F 0.0346 0.0591 0.0456 0.0072 0.0054 0.0184
O8G 0.0346 0.0591 0.0456 -0.0072 0.0054 -0.0184
loop_
_geom_bond_atom_site_label_1
_geom_bond_atom_site_label_2
_geom_bond_site_symmetry_1
_geom_bond_site_symmetry_2
C1 C2 1_555 1_555
C2 C3 1_555 1_555
C3 H1 1_555 1_555
C4 C3 1_555 1_555
C5 C4 1_555 1_555
H2 C5 1_555 1_555
C6 C5 1_555 1_555
C7 C2 1_555 1_555
H3 C7 1_555 1_555
C8 C9 1_555 1_555
C9 H4 1_555 1_555
C10 C9 1_555 1_555
H5 C10 1_555 1_555
C11 C10 1_555 1_555
C12 C11 1_555 1_555
H6 C12 1_555 1_555
C13 C8 1_555 1_555
H7 C13 1_555 1_555
C14 C11 1_555 1_555
C15 C16 1_555 1_555
C16 H8 1_555 1_555
C17 C16 1_555 1_555
H9 C17 1_555 1_555
C18 C17 1_555 1_555
C19 C18 1_555 1_555
H10 C19 1_555 1_555
C20 C15 1_555 1_555
H11 C20 1_555 1_555
C21 C18 1_555 1_555
C22 H12 1_555 1_555
H13 C22 1_555 1_555
H14 C22 1_555 1_555
C23 H15 1_555 1_555
H16 C23 1_555 1_555
H17 C23 1_555 1_555
C24 H18 1_555 1_555
Mn1 O2 1_555 1_555
Mn2 O1 1_555 1_555
N1 C22 1_555 1_555
O1 C1 1_555 1_555
O2 C1 1_555 1_555
O3 C6 1_555 1_555
O4 C14 1_555 1_555
O5 C14 1_555 1_555
O6 C4 1_555 1_555
O7 C21 1_555 1_555
O8 C21 1_555 1_555
O9 Mn1 1_555 1_555
H19 O9 1_555 1_555
H20 O9 1_555 1_555
O10 C24 1_555 1_555
C1A C2A 1_555 1_555
C2A C3A 1_555 1_555
C3A H1A 1_555 1_555
C4A C3A 1_555 1_555
C5A C4A 1_555 1_555
H2A C5A 1_555 1_555
C6A C5A 1_555 1_555
C7A C2A 1_555 1_555
H3A C7A 1_555 1_555
C8A C9A 1_555 1_555
C9A H4A 1_555 1_555
C10A C9A 1_555 1_555
H5A C10A 1_555 1_555
C11A C10A 1_555 1_555
C12A C11A 1_555 1_555
H6A C12A 1_555 1_555
C13A C8A 1_555 1_555
H7A C13A 1_555 1_555
C14A C11A 1_555 1_555
C15A C16A 1_555 1_555
C16A H8A 1_555 1_555
C17A C16A 1_555 1_555
H9A C17A 1_555 1_555
C18A C17A 1_555 1_555
C19A C18A 1_555 1_555
H10A C19A 1_555 1_555
C20A C15A 1_555 1_555
H11A C20A 1_555 1_555
C21A C18A 1_555 1_555
Mn1A O4 1_555 1_555
O1A C1A 1_555 1_555
O2A C1A 1_555 1_555
O3A C6A 1_555 1_555
O4A Mn1 1_555 1_555
O5A C14A 1_555 1_555
O6A C4A 1_555 1_555
O7A Mn2 1_555 1_555
O8A C21A 1_555 1_555
O9A Mn1A 1_555 1_555
H19A O9A 1_555 1_555
H20A O9A 1_555 1_555
C22F H12F 1_555 1_555
H13F C22F 1_555 1_555
H14F C22F 1_555 1_555
C23F H15F 1_555 1_555
H16F C23F 1_555 1_555
H17F C23F 1_555 1_555
C24F H18F 1_555 1_555
N1F C22F 1_555 1_555
O10F Mn2 1_555 1_555
Mn1D O5 1_555 1_555
Mn1E O5A 1_555 1_555
Mn1F O7A 1_555 1_555
Mn1G O7 1_555 1_555
Mn2A O7 1_555 1_555
O1F Mn2 1_555 1_555
O5D Mn1 1_555 1_555
O5E Mn1A 1_555 1_555
O7F Mn1A 1_555 1_555
O7G Mn1 1_555 1_555
O8F Mn1A 1_555 1_555
O8G Mn1 1_555 1_555
C6 C7 1_555 1_555
C8 O3 1_555 1_555
C12 C13 1_555 1_555
C15 O6 1_555 1_555
C19 C20 1_555 1_555
C23 N1 1_555 1_555
C24 N1 1_555 1_555
Mn2 O10 1_555 1_555
Mn2 O7G 1_555 1_555
O8 Mn1G 1_555 1_555
C6A C7A 1_555 1_555
C8A O3A 1_555 1_555
C12A C13A 1_555 1_555
C14A O4A 1_555 1_555
C15A O6A 1_555 1_555
C19A C20A 1_555 1_555
C21A O7A 1_555 1_555
Mn1A O2A 1_555 1_555
O1A Mn2A 1_555 1_555
O8A Mn1F 1_555 1_555
C23F N1F 1_555 1_555
C24F N1F 1_555 1_555
C24F O10F 1_555 1_555
Mn2A O7F 1_555 1_555

#END
