
#######################################################################
#
#                 Cambridge Crystallographic Data Centre
#                                CCDC 
#
#######################################################################
#
# If this CIF has been generated from an entry in the Cambridge 
# Structural Database, then it will include bibliographic, chemical, 
# crystal, experimental, refinement or atomic coordinate data resulting 
# from the CCDC's data processing and validation procedures.
#
#######################################################################

data_DACSEI
_chemical_formula_moiety         'C264 H78 Cu30 N48 O42 Se18'
_symmetry_cell_setting           rhombohedral
_symmetry_space_group_name_H-M   'R -3 m'
_symmetry_Int_Tables_number      166
_space_group_name_Hall           '-R 3 2"'
loop_
_symmetry_equiv_pos_site_id
_symmetry_equiv_pos_as_xyz
1 x,y,z
2 -y,x-y,z
3 -x+y,-x,z
4 y,x,-z
5 -x,-x+y,-z
6 x-y,-y,-z
7 2/3+x,1/3+y,1/3+z
8 2/3-y,1/3+x-y,1/3+z
9 2/3-x+y,1/3-x,1/3+z
10 2/3+y,1/3+x,1/3-z
11 2/3-x,1/3-x+y,1/3-z
12 2/3+x-y,1/3-y,1/3-z
13 1/3+x,2/3+y,2/3+z
14 1/3-y,2/3+x-y,2/3+z
15 1/3-x+y,2/3-x,2/3+z
16 1/3+y,2/3+x,2/3-z
17 1/3-x,2/3-x+y,2/3-z
18 1/3+x-y,2/3-y,2/3-z
19 -x,-y,-z
20 y,-x+y,-z
21 x-y,x,-z
22 -y,-x,z
23 x,x-y,z
24 -x+y,y,z
25 1/3-x,2/3-y,2/3-z
26 1/3+y,2/3-x+y,2/3-z
27 1/3+x-y,2/3+x,2/3-z
28 1/3-y,2/3-x,2/3+z
29 1/3+x,2/3+x-y,2/3+z
30 1/3-x+y,2/3+y,2/3+z
31 2/3-x,1/3-y,1/3-z
32 2/3+y,1/3-x+y,1/3-z
33 2/3+x-y,1/3+x,1/3-z
34 2/3-y,1/3-x,1/3+z
35 2/3+x,1/3+x-y,1/3+z
36 2/3-x+y,1/3+y,1/3+z
_cell_length_a                   18.554(5)
_cell_length_b                   18.554(5)
_cell_length_c                   38.822(8)
_cell_angle_alpha                90
_cell_angle_beta                 90
_cell_angle_gamma                120
_cell_volume                     11574
loop_
_atom_site_label
_atom_site_type_symbol
_atom_site_fract_x
_atom_site_fract_y
_atom_site_fract_z
Cu1 Cu -0.14269(3) 0.14269(3) 0.13892(3)
C1 C -0.0253(6) 0.2152(6) 0.1935(2)
O1 O -0.0368(4) 0.1858(4) 0.16354(15)
O2 O -0.0792(4) 0.2243(5) 0.21047(14)
C2 C 0.0521(6) 0.2347(6) 0.2101(2)
O3 O -0.1075(4) 0.1075(4) 0.0916(3)
C3 C 0.1101(4) 0.2202(8) 0.1941(3)
H1 H 0.0999 0.1999 0.1717
C4 C 0.0651(7) 0.2625(9) 0.2439(3)
H2 H 0.0301 0.2790 0.2538
C5 C 0.1330(8) 0.2660(17) 0.2641(5)
C6 C 0.1653(13) 0.331(3) 0.2970(6)
C7 C 0.1029(14) 0.285(2) 0.3205(7)
H3 H 0.0519 0.2379 0.3127
C8 C 0.1137(15) 0.308(2) 0.3548(6)
H4 H 0.0698 0.2761 0.3710
C9 C 0.1877(12) 0.375(2) 0.3657(9)
C10 C 0.2494(16) 0.422(2) 0.3422(11)
C11 C 0.2378(19) 0.400(2) 0.3076(10)
Se1 Se 0.3862(8) 0.5086(9) 0.3108(3)
N1 N 0.2967(18) 0.434(2) 0.2849(7)
N2 N 0.3237(17) 0.482(2) 0.3508(5)
C1Q C 0.0928(8) 0.4515(6) 0.4732(2)
O1Q O 0.1107(6) 0.4809(4) 0.50313(15)
O2Q O 0.0298(6) 0.4424(5) 0.45620(14)
C2Q C 0.1507(8) 0.4320(6) 0.4566(2)
C3Q C 0.2232(9) 0.4465(8) 0.4726(3)
H1Q H 0.2333 0.4668 0.4950
C4Q C 0.1359(11) 0.4042(9) 0.4228(3)
H2Q H 0.0844 0.3877 0.4129
C5Q C 0.2003(19) 0.4007(17) 0.4026(5)
C6Q C 0.1676(33) 0.336(3) 0.3697(6)
C7Q C 0.1512(24) 0.382(2) 0.3462(7)
H3Q H 0.1473 0.4288 0.3540
C8Q C 0.1390(25) 0.359(2) 0.3119(6)
H4Q H 0.1270 0.3906 0.2957
C9Q C 0.1460(23) 0.292(2) 0.3010(9)
C10Q C 0.1607(26) 0.245(2) 0.3245(11)
C11Q C 0.1711(28) 0.267(2) 0.3591(10)
Se1Q Se 0.2109(12) 0.1581(9) 0.3559(3)
N1Q N 0.1960(27) 0.233(2) 0.3818(7)
N2Q N 0.1750(26) 0.185(2) 0.3159(5)
C1U C 0.7848(6) 1.0253(6) 0.1935(2)
O1U O 0.8142(4) 1.0368(4) 0.16354(15)
O2U O 0.7757(5) 1.0792(4) 0.21047(14)
C2U C 0.7653(6) 0.9479(6) 0.2101(2)
C3A C 0.7798(8) 0.8899(9) 0.1941(3)
H1A H 0.8001 0.9000 0.1717
C4U C 0.7375(9) 0.9349(7) 0.2439(3)
H2U H 0.7210 0.9699 0.2538
C5A C 0.7340(17) 0.8670(19) 0.2641(5)
C6A C 0.669(3) 0.8343(33) 0.2970(6)
C7U C 0.715(2) 0.8971(14) 0.3205(7)
H3U H 0.7621 0.9481 0.3127
C8U C 0.692(2) 0.8863(15) 0.3548(6)
H4U H 0.7239 0.9302 0.3710
C9A C 0.625(2) 0.8127(23) 0.3657(9)
C10U C 0.578(2) 0.7506(16) 0.3422(11)
C11U C 0.600(2) 0.7622(19) 0.3076(10)
Se1U Se 0.4914(9) 0.6138(8) 0.3108(3)
N1U N 0.566(2) 0.7033(18) 0.2849(7)
N2U N 0.518(2) 0.6763(17) 0.3508(5)
C1W C 0.2405(8) 0.2152(6) 0.1935(2)
O1W O 0.2226(6) 0.1858(4) 0.16354(15)
O2W O 0.3035(6) 0.2243(5) 0.21047(14)
C2W C 0.1826(8) 0.2347(6) 0.2101(2)
C4W C 0.1974(11) 0.2625(9) 0.2439(3)
H2W H 0.2489 0.2790 0.2538
C7W C 0.1821(24) 0.285(2) 0.3205(7)
H3W H 0.1860 0.2379 0.3127
C8W C 0.1943(25) 0.308(2) 0.3548(6)
H4W H 0.2063 0.2761 0.3710
C10W C 0.1726(26) 0.422(2) 0.3422(11)
C11W C 0.1622(28) 0.400(2) 0.3076(10)
Se1W Se 0.1224(12) 0.5086(9) 0.3108(3)
N1W N 0.1373(27) 0.434(2) 0.2849(7)
N2W N 0.1583(26) 0.482(2) 0.3508(5)
Cu1A Cu -0.14269(3) -0.28538(4) 0.13892(3)
C1A C -0.2152(6) -0.2405(8) 0.1935(2)
O1A O -0.1858(4) -0.2226(6) 0.16354(15)
O2A O -0.2243(5) -0.3035(6) 0.21047(14)
C2A C -0.2347(6) -0.1826(8) 0.2101(2)
O3A O -0.1075(4) -0.2150(6) 0.0916(3)
C3A_2 C -0.2202(8) -0.1101(9) 0.1941(3)
H1A_2 H -0.1999 -0.1000 0.1717
C4A C -0.2625(9) -0.1974(11) 0.2439(3)
H2A H -0.2790 -0.2489 0.2538
C5A_2 C -0.2660(17) -0.1330(19) 0.2641(5)
C6A_2 C -0.331(3) -0.1657(33) 0.2970(6)
C7A C -0.285(2) -0.1821(24) 0.3205(7)
H3A H -0.2379 -0.1860 0.3127
C8A C -0.308(2) -0.1943(25) 0.3548(6)
H4A H -0.2761 -0.2063 0.3710
C9A_2 C -0.375(2) -0.1873(23) 0.3657(9)
C10A C -0.422(2) -0.1726(26) 0.3422(11)
C11A C -0.400(2) -0.1622(28) 0.3076(10)
Se1A Se -0.5086(9) -0.1224(12) 0.3108(3)
N1A N -0.434(2) -0.1373(27) 0.2849(7)
N2A N -0.482(2) -0.1583(26) 0.3508(5)
C1O C -0.4515(6) -0.3586(6) 0.4732(2)
O1O O -0.4809(4) -0.3701(4) 0.50313(15)
O2O O -0.4424(5) -0.4125(4) 0.45620(14)
C2O C -0.4320(6) -0.2812(6) 0.4566(2)
C3O C -0.4465(8) -0.2232(4) 0.4726(3)
H1O H -0.4668 -0.2334 0.4950
C4O C -0.4042(9) -0.2682(7) 0.4228(3)
H2O H -0.3877 -0.3032 0.4129
C5O C -0.4007(17) -0.2003(8) 0.4026(5)
C6O C -0.336(3) -0.1680(13) 0.3697(6)
C7O C -0.382(2) -0.2304(14) 0.3462(7)
H3O H -0.4288 -0.2814 0.3540
C8O C -0.359(2) -0.2196(15) 0.3119(6)
H4O H -0.3906 -0.2635 0.2957
C9O C -0.292(2) -0.1456(12) 0.3010(9)
C10O C -0.245(2) -0.0839(16) 0.3245(11)
C11O C -0.267(2) -0.0955(19) 0.3591(10)
Se1O Se -0.1581(9) 0.0529(8) 0.3559(3)
N1O N -0.233(2) -0.0366(18) 0.3818(7)
N2O N -0.185(2) -0.0096(17) 0.3159(5)
C1V C -1.0253(6) -0.2405(8) 0.1935(2)
O1V O -1.0368(4) -0.2226(6) 0.16354(15)
O2V O -1.0792(4) -0.3035(6) 0.21047(14)
C2V C -0.9479(6) -0.1826(8) 0.2101(2)
C3B C -0.8899(9) -0.1101(4) 0.1941(3)
H1B H -0.9000 -0.0999 0.1717
C4V C -0.9349(7) -0.1974(11) 0.2439(3)
H2V H -0.9699 -0.2489 0.2538
C5B C -0.8670(19) -0.1330(8) 0.2641(5)
C6B C -0.8343(33) -0.1653(13) 0.2970(6)
C7V C -0.8971(14) -0.1821(24) 0.3205(7)
H3V H -0.9481 -0.1860 0.3127
C8V C -0.8863(15) -0.1943(25) 0.3548(6)
H4V H -0.9302 -0.2063 0.3710
C9B C -0.8127(23) -0.1877(12) 0.3657(9)
C10V C -0.7506(16) -0.1726(26) 0.3422(11)
C11V C -0.7622(19) -0.1622(28) 0.3076(10)
Se1V Se -0.6138(8) -0.1224(12) 0.3108(3)
N1V N -0.7033(18) -0.1373(27) 0.2849(7)
N2V N -0.6763(17) -0.1583(26) 0.3508(5)
C1U_2 C -0.2152(6) 0.0253(6) 0.1935(2)
O1U_2 O -0.1858(4) 0.0368(4) 0.16354(15)
O2U_2 O -0.2243(5) 0.0792(4) 0.21047(14)
C2U_2 C -0.2347(6) -0.0521(6) 0.2101(2)
C4U_2 C -0.2625(9) -0.0651(7) 0.2439(3)
H2U_2 H -0.2790 -0.0301 0.2538
C7U_2 C -0.285(2) -0.1029(14) 0.3205(7)
H3U_2 H -0.2379 -0.0519 0.3127
C8U_2 C -0.308(2) -0.1137(15) 0.3548(6)
H4U_2 H -0.2761 -0.0698 0.3710
C10U_2 C -0.422(2) -0.2494(16) 0.3422(11)
C11U_2 C -0.400(2) -0.2378(19) 0.3076(10)
Se1U_2 Se -0.5086(9) -0.3862(8) 0.3108(3)
N1U_2 N -0.434(2) -0.2967(18) 0.2849(7)
N2U_2 N -0.482(2) -0.3237(17) 0.3508(5)
C1B C 0.2405(8) 0.0253(6) 0.1935(2)
O1B O 0.2226(6) 0.0368(4) 0.16354(15)
O2B O 0.3035(6) 0.0792(4) 0.21047(14)
C2B C 0.1826(8) -0.0521(6) 0.2101(2)
C3B_2 C 0.1101(9) -0.1101(4) 0.1941(3)
H1B_2 H 0.1000 -0.0999 0.1717
C4B C 0.1974(11) -0.0651(7) 0.2439(3)
H2B H 0.2489 -0.0301 0.2538
C5B_2 C 0.1330(19) -0.1330(8) 0.2641(5)
C6B_2 C 0.1657(33) -0.1653(13) 0.2970(6)
C7B C 0.1821(24) -0.1029(14) 0.3205(7)
H3B H 0.1860 -0.0519 0.3127
C8B C 0.1943(25) -0.1137(15) 0.3548(6)
H4B H 0.2063 -0.0698 0.3710
C9B_2 C 0.1873(23) -0.1877(12) 0.3657(9)
C10B C 0.1726(26) -0.2494(16) 0.3422(11)
C11B C 0.1622(28) -0.2378(19) 0.3076(10)
Se1B Se 0.1224(12) -0.3862(8) 0.3108(3)
N1B N 0.1373(27) -0.2967(18) 0.2849(7)
N2B N 0.1583(26) -0.3237(17) 0.3508(5)
C1P C 0.3586(6) -0.0928(8) 0.4732(2)
O1P O 0.3701(4) -0.1107(6) 0.50313(15)
O2P O 0.4125(4) -0.0298(6) 0.45620(14)
C2P C 0.2812(6) -0.1507(8) 0.4566(2)
C3P C 0.2232(4) -0.2232(9) 0.4726(3)
H1P H 0.2334 -0.2333 0.4950
C4P C 0.2682(7) -0.1359(11) 0.4228(3)
H2P H 0.3032 -0.0844 0.4129
C5P C 0.2003(8) -0.2003(19) 0.4026(5)
C6P C 0.1680(13) -0.1676(33) 0.3697(6)
C7P C 0.2304(14) -0.1512(24) 0.3462(7)
H3P H 0.2814 -0.1473 0.3540
C8P C 0.2196(15) -0.1390(25) 0.3119(6)
H4P H 0.2635 -0.1270 0.2957
C9P C 0.1456(12) -0.1460(23) 0.3010(9)
C10P C 0.0839(16) -0.1607(26) 0.3245(11)
C11P C 0.0955(19) -0.1711(28) 0.3591(10)
Se1P Se -0.0529(8) -0.2109(12) 0.3559(3)
N1P N 0.0366(18) -0.1960(27) 0.3818(7)
N2P N 0.0096(17) -0.1750(26) 0.3159(5)
C1W_2 C 0.2405(8) -0.7848(6) 0.1935(2)
O1W_2 O 0.2226(6) -0.8142(4) 0.16354(15)
O2W_2 O 0.3035(6) -0.7757(5) 0.21047(14)
C2W_2 C 0.1826(8) -0.7653(6) 0.2101(2)
C3_2 C 0.1101(4) -0.7798(8) 0.1941(3)
H1_2 H 0.0999 -0.8001 0.1717
C4W_2 C 0.1974(11) -0.7375(9) 0.2439(3)
H2W_2 H 0.2489 -0.7210 0.2538
C5_2 C 0.1330(8) -0.7340(17) 0.2641(5)
C6_2 C 0.1653(13) -0.669(3) 0.2970(6)
C7W_2 C 0.1821(24) -0.715(2) 0.3205(7)
H3W_2 H 0.1860 -0.7621 0.3127
C8W_2 C 0.1943(25) -0.692(2) 0.3548(6)
H4W_2 H 0.2063 -0.7239 0.3710
C9_2 C 0.1877(12) -0.625(2) 0.3657(9)
C10W_2 C 0.1726(26) -0.578(2) 0.3422(11)
C11W_2 C 0.1622(28) -0.600(2) 0.3076(10)
Se1W_2 Se 0.1224(12) -0.4914(9) 0.3108(3)
N1W_2 N 0.1373(27) -0.566(2) 0.2849(7)
N2W_2 N 0.1583(26) -0.518(2) 0.3508(5)
C1V_2 C -0.0253(6) -0.2405(8) 0.1935(2)
O1V_2 O -0.0368(4) -0.2226(6) 0.16354(15)
O2V_2 O -0.0792(4) -0.3035(6) 0.21047(14)
C2V_2 C 0.0521(6) -0.1826(8) 0.2101(2)
C4V_2 C 0.0651(7) -0.1974(11) 0.2439(3)
H2V_2 H 0.0301 -0.2489 0.2538
C7V_2 C 0.1029(14) -0.1821(24) 0.3205(7)
H3V_2 H 0.0519 -0.1860 0.3127
C8V_2 C 0.1137(15) -0.1943(25) 0.3548(6)
H4V_2 H 0.0698 -0.2063 0.3710
C10V_2 C 0.2494(16) -0.1726(26) 0.3422(11)
C11V_2 C 0.2378(19) -0.1622(28) 0.3076(10)
Se1V_2 Se 0.3862(8) -0.1224(12) 0.3108(3)
N1V_2 N 0.2967(18) -0.1373(27) 0.2849(7)
N2V_2 N 0.3237(17) -0.1583(26) 0.3508(5)
C1Y C -0.4515(6) -0.0928(8) 0.4732(2)
O1Y O -0.4809(4) -0.1107(6) 0.50313(15)
O2Y O -0.4424(5) -0.0298(6) 0.45620(14)
C2Y C -0.4320(6) -0.1507(8) 0.4566(2)
C4Y C -0.4042(9) -0.1359(11) 0.4228(3)
H2Y H -0.3877 -0.0844 0.4129
C7Y C -0.382(2) -0.1512(24) 0.3462(7)
H3Y H -0.4288 -0.1473 0.3540
C8Y C -0.359(2) -0.1390(25) 0.3119(6)
H4Y H -0.3906 -0.1270 0.2957
C10Y C -0.245(2) -0.1607(26) 0.3245(11)
C11Y C -0.267(2) -0.1711(28) 0.3591(10)
Se1Y Se -0.1581(9) -0.2109(12) 0.3559(3)
N1Y N -0.233(2) -0.1960(27) 0.3818(7)
N2Y N -0.185(2) -0.1750(26) 0.3159(5)
C1_2 C -1.0253(6) -0.7848(6) 0.1935(2)
O1_2 O -1.0368(4) -0.8142(4) 0.16354(15)
O2_2 O -1.0792(4) -0.7757(5) 0.21047(14)
C2_2 C -0.9479(6) -0.7653(6) 0.2101(2)
C3_3 C -0.8899(4) -0.7798(8) 0.1941(3)
H1_3 H -0.9001 -0.8001 0.1717
C4_2 C -0.9349(7) -0.7375(9) 0.2439(3)
H2_2 H -0.9699 -0.7210 0.2538
C5_3 C -0.8670(8) -0.7340(17) 0.2641(5)
C6_3 C -0.8347(13) -0.669(3) 0.2970(6)
C7_2 C -0.8971(14) -0.715(2) 0.3205(7)
H3_2 H -0.9481 -0.7621 0.3127
C8_2 C -0.8863(15) -0.692(2) 0.3548(6)
H4_2 H -0.9302 -0.7239 0.3710
C9_3 C -0.8123(12) -0.625(2) 0.3657(9)
C10_2 C -0.7506(16) -0.578(2) 0.3422(11)
C11_2 C -0.7622(19) -0.600(2) 0.3076(10)
Se1_2 Se -0.6138(8) -0.4914(9) 0.3108(3)
N1_2 N -0.7033(18) -0.566(2) 0.2849(7)
N2_2 N -0.6763(17) -0.518(2) 0.3508(5)
C1Z C 0.0928(8) -0.3586(6) 0.4732(2)
O1Z O 0.1107(6) -0.3701(4) 0.50313(15)
O2Z O 0.0298(6) -0.4125(4) 0.45620(14)
C2Z C 0.1507(8) -0.2812(6) 0.4566(2)
C4Z C 0.1359(11) -0.2682(7) 0.4228(3)
H2Z H 0.0844 -0.3032 0.4129
C7Z C 0.1512(24) -0.2304(14) 0.3462(7)
H3Z H 0.1473 -0.2814 0.3540
C8Z C 0.1390(25) -0.2196(15) 0.3119(6)
H4Z H 0.1270 -0.2635 0.2957
C10Z C 0.1607(26) -0.0839(16) 0.3245(11)
C11Z C 0.1711(28) -0.0955(19) 0.3591(10)
Se1Z Se 0.2109(12) 0.0529(8) 0.3559(3)
N1Z N 0.1960(27) -0.0366(18) 0.3818(7)
N2Z N 0.1750(26) -0.0096(17) 0.3159(5)
C1A_2 C 0.7848(6) -0.2405(8) 0.1935(2)
O1A_2 O 0.8142(4) -0.2226(6) 0.16354(15)
O2A_2 O 0.7757(5) -0.3035(6) 0.21047(14)
C2A_2 C 0.7653(6) -0.1826(8) 0.2101(2)
C3A_3 C 0.7798(8) -0.1101(9) 0.1941(3)
H1A_3 H 0.8001 -0.1000 0.1717
C4A_2 C 0.7375(9) -0.1974(11) 0.2439(3)
H2A_2 H 0.7210 -0.2489 0.2538
C5A_3 C 0.7340(17) -0.1330(19) 0.2641(5)
C6A_3 C 0.669(3) -0.1657(33) 0.2970(6)
C7A_2 C 0.715(2) -0.1821(24) 0.3205(7)
H3A_2 H 0.7621 -0.1860 0.3127
C8A_2 C 0.692(2) -0.1943(25) 0.3548(6)
H4A_2 H 0.7239 -0.2063 0.3710
C9A_3 C 0.625(2) -0.1873(23) 0.3657(9)
C10A_2 C 0.578(2) -0.1726(26) 0.3422(11)
C11A_2 C 0.600(2) -0.1622(28) 0.3076(10)
Se1A_2 Se 0.4914(9) -0.1224(12) 0.3108(3)
N1A_2 N 0.566(2) -0.1373(27) 0.2849(7)
N2A_2 N 0.518(2) -0.1583(26) 0.3508(5)
C1X C 0.3586(6) 0.4515(6) 0.4732(2)
O1X O 0.3701(4) 0.4809(4) 0.50313(15)
O2X O 0.4125(4) 0.4424(5) 0.45620(14)
C2X C 0.2812(6) 0.4320(6) 0.4566(2)
C4X C 0.2682(7) 0.4042(9) 0.4228(3)
H2X H 0.3032 0.3877 0.4129
C7X C 0.2304(14) 0.382(2) 0.3462(7)
H3X H 0.2814 0.4288 0.3540
C8X C 0.2196(15) 0.359(2) 0.3119(6)
H4X H 0.2635 0.3906 0.2957
C10X C 0.0839(16) 0.245(2) 0.3245(11)
C11X C 0.0955(19) 0.267(2) 0.3591(10)
Se1X Se -0.0529(8) 0.1581(9) 0.3559(3)
N1X N 0.0366(18) 0.233(2) 0.3818(7)
N2X N 0.0096(17) 0.185(2) 0.3159(5)
C1B_2 C 0.2405(8) 1.0253(6) 0.1935(2)
O1B_2 O 0.2226(6) 1.0368(4) 0.16354(15)
O2B_2 O 0.3035(6) 1.0792(4) 0.21047(14)
C2B_2 C 0.1826(8) 0.9479(6) 0.2101(2)
C3B_3 C 0.1101(9) 0.8899(4) 0.1941(3)
H1B_3 H 0.1000 0.9001 0.1717
C4B_2 C 0.1974(11) 0.9349(7) 0.2439(3)
H2B_2 H 0.2489 0.9699 0.2538
C5B_3 C 0.1330(19) 0.8670(8) 0.2641(5)
C6B_3 C 0.1657(33) 0.8347(13) 0.2970(6)
C7B_2 C 0.1821(24) 0.8971(14) 0.3205(7)
H3B_2 H 0.1860 0.9481 0.3127
C8B_2 C 0.1943(25) 0.8863(15) 0.3548(6)
H4B_2 H 0.2063 0.9302 0.3710
C9B_3 C 0.1873(23) 0.8123(12) 0.3657(9)
C10B_2 C 0.1726(26) 0.7506(16) 0.3422(11)
C11B_2 C 0.1622(28) 0.7622(19) 0.3076(10)
Se1B_2 Se 0.1224(12) 0.6138(8) 0.3108(3)
N1B_2 N 0.1373(27) 0.7033(18) 0.2849(7)
N2B_2 N 0.1583(26) 0.6763(17) 0.3508(5)
Cu1_2 Cu -1.14269(3) -0.85731(3) 0.13892(3)
Cu1_3 Cu 0.85731(3) 1.14269(3) 0.13892(3)
Cu1A_2 Cu -1.14269(3) -0.28538(4) 0.13892(3)
Cu1A_3 Cu 0.85731(3) -0.28538(4) 0.13892(3)
Cu1B Cu 0.28538(4) -0.85731(3) 0.13892(3)
Cu1B_2 Cu 0.28538(4) 0.14269(3) 0.13892(3)
Cu1B_3 Cu 0.28538(4) 1.14269(3) 0.13892(3)
Cu1F Cu -0.47602(3) -0.52398(3) 0.47225(3)
Cu1F_2 Cu 0.52398(3) 0.47602(3) 0.47225(3)
Cu1G Cu -0.47602(3) 0.04795(4) 0.47225(3)
Cu1G_2 Cu 0.52398(3) 0.04795(4) 0.47225(3)
Cu1H Cu -0.04795(4) -0.52398(3) 0.47225(3)
Cu1H_2 Cu -0.04795(4) 0.47602(3) 0.47225(3)
Cu1I Cu -1.19064(3) -0.80936(3) 0.19441(3)
Cu1I_2 Cu -0.19064(3) 0.19064(3) 0.19441(3)
Cu1I_3 Cu 0.80936(3) 1.19064(3) 0.19441(3)
Cu1J Cu -1.19064(3) -0.38129(4) 0.19441(3)
Cu1J_2 Cu -0.19064(3) -0.38129(4) 0.19441(3)
Cu1J_3 Cu 0.80936(3) -0.38129(4) 0.19441(3)
Cu1K Cu 0.38129(4) -0.80936(3) 0.19441(3)
Cu1K_2 Cu 0.38129(4) 0.19064(3) 0.19441(3)
Cu1K_3 Cu 0.38129(4) 1.19064(3) 0.19441(3)
Cu1O Cu -0.52398(3) -0.47602(3) 0.52775(3)
Cu1O_2 Cu 0.47602(3) 0.52398(3) 0.52775(3)
Cu1P Cu -0.52398(3) -0.04795(4) 0.52775(3)
Cu1P_2 Cu 0.47602(3) -0.04795(4) 0.52775(3)
Cu1Q Cu 0.04795(4) -0.47602(3) 0.52775(3)
Cu1Q_2 Cu 0.04795(4) 0.52398(3) 0.52775(3)
O2I O -0.1090(5) 0.2541(4) 0.12286(14)
O2J O -0.2541(4) -0.3632(6) 0.12286(14)
O2DA O -0.2541(4) 0.1090(5) 0.12286(14)
O2EA O -0.1090(5) -0.3632(6) 0.12286(14)
C2_3 C 0.0521(6) -0.7653(6) 0.2101(2)
C2A_3 C 0.7653(6) 0.8174(8) 0.2101(2)
C2B_3 C -0.8174(8) -0.0521(6) 0.2101(2)
C2U_3 C 0.7653(6) -0.0521(6) 0.2101(2)
C2V_3 C 0.0521(6) 0.8174(8) 0.2101(2)
C2W_3 C -0.8174(8) -0.7653(6) 0.2101(2)
C4_3 C 0.0651(7) -0.7375(9) 0.2439(3)
C4A_3 C 0.7375(9) 0.8026(11) 0.2439(3)
C4B_3 C -0.8026(11) -0.0651(7) 0.2439(3)
C4U_3 C 0.7375(9) -0.0651(7) 0.2439(3)
C4V_3 C 0.0651(7) 0.8026(11) 0.2439(3)
C4W_3 C -0.8026(11) -0.7375(9) 0.2439(3)
C5O_2 C 0.5993(17) -0.2003(8) 0.4026(5)
C5O_3 C 0.5993(17) 0.7997(8) 0.4026(5)
C5P_2 C -0.7997(8) -0.2003(19) 0.4026(5)
C5P_3 C 0.2003(8) 0.7997(19) 0.4026(5)
C5Q_2 C -0.7997(19) -0.5993(17) 0.4026(5)
C5Q_3 C 0.2003(19) -0.5993(17) 0.4026(5)
C6O_2 C 0.664(3) -0.1680(13) 0.3697(6)
C6O_3 C 0.664(3) 0.8320(13) 0.3697(6)
C6P_2 C -0.8320(13) -0.1676(33) 0.3697(6)
C6P_3 C 0.1680(13) 0.8324(33) 0.3697(6)
C6Q_2 C -0.8324(33) -0.664(3) 0.3697(6)
C6Q_3 C 0.1676(33) -0.664(3) 0.3697(6)
C7_3 C 0.1029(14) -0.715(2) 0.3205(7)
C7A_3 C 0.715(2) 0.8179(24) 0.3205(7)
C7B_3 C -0.8179(24) -0.1029(14) 0.3205(7)
C7O_2 C 0.618(2) -0.2304(14) 0.3462(7)
C7O_3 C 0.618(2) 0.7696(14) 0.3462(7)
C7P_2 C -0.7696(14) -0.1512(24) 0.3462(7)
C7P_3 C 0.2304(14) 0.8488(24) 0.3462(7)
C7Q_2 C -0.8488(24) -0.618(2) 0.3462(7)
C7Q_3 C 0.1512(24) -0.618(2) 0.3462(7)
C7U_3 C 0.715(2) -0.1029(14) 0.3205(7)
C7V_3 C 0.1029(14) 0.8179(24) 0.3205(7)
C7W_3 C -0.8179(24) -0.715(2) 0.3205(7)
C7X_2 C -0.7696(14) -0.618(2) 0.3462(7)
C7X_3 C 0.2304(14) -0.618(2) 0.3462(7)
C7Y_2 C 0.618(2) -0.1512(24) 0.3462(7)
C7Y_3 C 0.618(2) 0.8488(24) 0.3462(7)
C7Z_2 C -0.8488(24) -0.2304(14) 0.3462(7)
C7Z_3 C 0.1512(24) 0.7696(14) 0.3462(7)
H3O_2 H 0.5712 0.7186 0.3540
H3P_2 H -0.7186 -0.1473 0.3540
H3Q_2 H 0.1473 -0.5712 0.3540
H3X_2 H -0.7186 -0.5712 0.3540
H3Y_2 H 0.5712 -0.1473 0.3540
H3Z_2 H 0.1473 0.7186 0.3540
C8_3 C 0.1137(15) -0.692(2) 0.3548(6)
C8A_3 C 0.692(2) 0.8057(25) 0.3548(6)
C8B_3 C -0.8057(25) -0.1137(15) 0.3548(6)
C8O_2 C 0.641(2) -0.2196(15) 0.3119(6)
C8O_3 C 0.641(2) 0.7804(15) 0.3119(6)
C8P_2 C -0.7804(15) -0.1390(25) 0.3119(6)
C8P_3 C 0.2196(15) 0.8610(25) 0.3119(6)
C8Q_2 C -0.8610(25) -0.641(2) 0.3119(6)
C8Q_3 C 0.1390(25) -0.641(2) 0.3119(6)
C8U_3 C 0.692(2) -0.1137(15) 0.3548(6)
C8V_3 C 0.1137(15) 0.8057(25) 0.3548(6)
C8W_3 C -0.8057(25) -0.692(2) 0.3548(6)
C8X_2 C -0.7804(15) -0.641(2) 0.3119(6)
C8X_3 C 0.2196(15) -0.641(2) 0.3119(6)
C8Y_2 C 0.641(2) -0.1390(25) 0.3119(6)
C8Y_3 C 0.641(2) 0.8610(25) 0.3119(6)
C8Z_2 C -0.8610(25) -0.2196(15) 0.3119(6)
C8Z_3 C 0.1390(25) 0.7804(15) 0.3119(6)
H4O_2 H 0.6094 0.7365 0.2957
H4P_2 H -0.7365 -0.1270 0.2957
H4Q_2 H 0.1270 -0.6094 0.2957
H4X_2 H -0.7365 -0.6094 0.2957
H4Y_2 H 0.6094 -0.1270 0.2957
H4Z_2 H 0.1270 0.7365 0.2957
C9O_2 C 0.708(2) -0.1456(12) 0.3010(9)
C9O_3 C 0.708(2) 0.8544(12) 0.3010(9)
C9P_2 C -0.8544(12) -0.1460(23) 0.3010(9)
C9P_3 C 0.1456(12) 0.8540(23) 0.3010(9)
C9Q_2 C -0.8540(23) -0.708(2) 0.3010(9)
C9Q_3 C 0.1460(23) -0.708(2) 0.3010(9)
C10_3 C 0.2494(16) -0.578(2) 0.3422(11)
C10A_3 C 0.578(2) 0.8274(26) 0.3422(11)
C10B_3 C -0.8274(26) -0.2494(16) 0.3422(11)
C10O_2 C 0.755(2) 0.9161(16) 0.3245(11)
C10P_2 C -0.9161(16) -0.1607(26) 0.3245(11)
C10Q_2 C 0.1607(26) -0.755(2) 0.3245(11)
C10U_3 C 0.578(2) -0.2494(16) 0.3422(11)
C10V_3 C 0.2494(16) 0.8274(26) 0.3422(11)
C10W_3 C -0.8274(26) -0.578(2) 0.3422(11)
C10X_2 C -0.9161(16) -0.755(2) 0.3245(11)
C10Y_2 C 0.755(2) -0.1607(26) 0.3245(11)
C10Z_2 C 0.1607(26) 0.9161(16) 0.3245(11)
C11_3 C 0.2378(19) -0.600(2) 0.3076(10)
C11A_3 C 0.600(2) 0.8378(28) 0.3076(10)
C11B_3 C -0.8378(28) -0.2378(19) 0.3076(10)
C11O_2 C 0.733(2) 0.9045(19) 0.3591(10)
C11P_2 C -0.9045(19) -0.1711(28) 0.3591(10)
C11Q_2 C 0.1711(28) -0.733(2) 0.3591(10)
C11U_3 C 0.600(2) -0.2378(19) 0.3076(10)
C11V_3 C 0.2378(19) 0.8378(28) 0.3076(10)
C11W_3 C -0.8378(28) -0.600(2) 0.3076(10)
C11X_2 C -0.9045(19) -0.733(2) 0.3591(10)
C11Y_2 C 0.733(2) -0.1711(28) 0.3591(10)
C11Z_2 C 0.1711(28) 0.9045(19) 0.3591(10)
N1O_2 N 0.767(2) 0.9634(18) 0.3818(7)
N1P_2 N -0.9634(18) -0.1960(27) 0.3818(7)
N1Q_2 N 0.1960(27) -0.767(2) 0.3818(7)
N1X_2 N -0.9634(18) -0.767(2) 0.3818(7)
N1Y_2 N 0.767(2) -0.1960(27) 0.3818(7)
N1Z_2 N 0.1960(27) 0.9634(18) 0.3818(7)
N2O_2 N 0.815(2) 0.9904(17) 0.3159(5)
N2P_2 N -0.9904(17) -0.1750(26) 0.3159(5)
N2Q_2 N 0.1750(26) -0.815(2) 0.3159(5)
N2X_2 N -0.9904(17) -0.815(2) 0.3159(5)
N2Y_2 N 0.815(2) -0.1750(26) 0.3159(5)
N2Z_2 N 0.1750(26) 0.9904(17) 0.3159(5)
loop_
_geom_bond_atom_site_label_1
_geom_bond_atom_site_label_2
_geom_bond_site_symmetry_1
_geom_bond_site_symmetry_2
Cu1 O1 1_555 1_555
C1 O1 1_555 1_555
O2 C1 1_555 1_555
C2 C1 1_555 1_555
O3 Cu1 1_555 1_555
C3 C2 1_555 1_555
H1 C3 1_555 1_555
C4 C2 1_555 1_555
H2 C4 1_555 1_555
C5 C4 1_555 1_555
C6 C5 1_555 1_555
C7 H3 1_555 1_555
H3 C10X 1_555 1_555
C8 C7 1_555 1_555
H4 C8 1_555 1_555
C9 C10 1_555 1_555
C10 C11 1_555 1_555
C11 C6 1_555 1_555
Se1 N1 1_555 1_555
N1 C11 1_555 1_555
N2 C10 1_555 1_555
C1Q O1Q 1_555 1_555
O1Q Cu1Q_2 1_555 1_555
O2Q C1Q 1_555 1_555
C2Q C1Q 1_555 1_555
C3Q C2Q 1_555 1_555
H1Q C3Q 1_555 1_555
C4Q C2Q 1_555 1_555
H2Q C4Q 1_555 1_555
C5Q C9 1_555 1_555
C6Q C8 1_555 1_555
C7Q C8 1_555 1_555
H3Q C7Q 1_555 1_555
C8Q C6 1_555 1_555
H4Q C8Q 1_555 1_555
C9Q C5 1_555 1_555
C10Q C9Q 1_555 1_555
C11Q C6Q 1_555 1_555
Se1Q N1Q 1_555 1_555
N1Q C11Q 1_555 1_555
N2Q C10Q 1_555 1_555
C1U O1U 1_555 1_555
O1U Cu1_3 1_555 1_555
O2U C1U 1_555 1_555
C2U C1U 1_555 1_555
C3A C2U 1_555 1_555
H1A C3A 1_555 1_555
C4U C2U 1_555 1_555
H2U C4U 1_555 1_555
C5A C4U 1_555 1_555
C6A C5A 1_555 1_555
C7U H3U 1_555 1_555
H3U C10O_2 1_555 1_555
C8U C7U 1_555 1_555
H4U C8U 1_555 1_555
C9A C10U 1_555 1_555
C10U C11U 1_555 1_555
C11U C6A 1_555 1_555
Se1U Se1 1_555 1_555
N1U C11U 1_555 1_555
N2U C10U 1_555 1_555
C1W O1W 1_555 1_555
O1W Cu1B_2 1_555 1_555
O2W C1W 1_555 1_555
C2W C3 1_555 1_555
C4W C5 1_555 1_555
H2W C4W 1_555 1_555
C7W C7 1_555 1_555
H3W C10Q 1_555 1_555
C8W C8 1_555 1_555
H4W C11Q 1_555 1_555
C10W C9 1_555 1_555
C11W C6 1_555 1_555
Se1W N1W 1_555 1_555
N1W C8Q 1_555 1_555
N2W C7Q 1_555 1_555
Cu1A O1A 1_555 1_555
C1A O1A 1_555 1_555
O2A C1A 1_555 1_555
C2A C1A 1_555 1_555
O3A Cu1A 1_555 1_555
C3A_2 C2A 1_555 1_555
H1A_2 C3A_2 1_555 1_555
C4A C2A 1_555 1_555
H2A C4A 1_555 1_555
C5A_2 C4A 1_555 1_555
C6A_2 C5A_2 1_555 1_555
C7A H3A 1_555 1_555
H3A C10Y 1_555 1_555
C8A C7A 1_555 1_555
H4A C8A 1_555 1_555
C9A_2 C10A 1_555 1_555
C10A C11A 1_555 1_555
C11A C6A_2 1_555 1_555
Se1A N1A 1_555 1_555
N1A C11A 1_555 1_555
N2A C10A 1_555 1_555
C1O O1O 1_555 1_555
O1O Cu1O 1_555 1_555
O2O C1O 1_555 1_555
C2O C1O 1_555 1_555
C3O C2O 1_555 1_555
H1O C3O 1_555 1_555
C4O C2O 1_555 1_555
H2O C4O 1_555 1_555
C5O C9A_2 1_555 1_555
C6O C8A 1_555 1_555
C7O C8A 1_555 1_555
H3O C7O 1_555 1_555
C8O C6A_2 1_555 1_555
H4O C8O 1_555 1_555
C9O C5A_2 1_555 1_555
C10O C9O 1_555 1_555
C11O C6O 1_555 1_555
Se1O N1O 1_555 1_555
N1O C11O 1_555 1_555
N2O C10O 1_555 1_555
C1V O1V 1_555 1_555
O1V Cu1A_2 1_555 1_555
O2V C1V 1_555 1_555
C2V C1V 1_555 1_555
C3B C2V 1_555 1_555
H1B C3B 1_555 1_555
C4V C2V 1_555 1_555
H2V C4V 1_555 1_555
C5B C4V 1_555 1_555
C6B C5B 1_555 1_555
C7V H3V 1_555 1_555
H3V C10P_2 1_555 1_555
C8V C7V 1_555 1_555
H4V C8V 1_555 1_555
C9B C10V 1_555 1_555
C10V C11V 1_555 1_555
C11V C6B 1_555 1_555
Se1V Se1A 1_555 1_555
N1V C11V 1_555 1_555
N2V C10V 1_555 1_555
C1U_2 O1U_2 1_555 1_555
O1U_2 Cu1 1_555 1_555
O2U_2 C1U_2 1_555 1_555
C2U_2 C3A_2 1_555 1_555
C4U_2 C5A_2 1_555 1_555
H2U_2 C4U_2 1_555 1_555
C7U_2 C7A 1_555 1_555
H3U_2 C10O 1_555 1_555
C8U_2 C8A 1_555 1_555
H4U_2 C11O 1_555 1_555
C10U_2 C9A_2 1_555 1_555
C11U_2 C6A_2 1_555 1_555
Se1U_2 N1U_2 1_555 1_555
N1U_2 C8O 1_555 1_555
N2U_2 C7O 1_555 1_555
C1B O1B 1_555 1_555
O1B Cu1B_2 1_555 1_555
O2B C1B 1_555 1_555
C2B C1B 1_555 1_555
C3B_2 C2B 1_555 1_555
H1B_2 C3B_2 1_555 1_555
C4B C2B 1_555 1_555
H2B C4B 1_555 1_555
C5B_2 C4B 1_555 1_555
C6B_2 C5B_2 1_555 1_555
C7B H3B 1_555 1_555
H3B C10Z 1_555 1_555
C8B C7B 1_555 1_555
H4B C8B 1_555 1_555
C9B_2 C10B 1_555 1_555
C10B C11B 1_555 1_555
C11B C6B_2 1_555 1_555
Se1B N1B 1_555 1_555
N1B C11B 1_555 1_555
N2B C10B 1_555 1_555
C1P O1P 1_555 1_555
O1P Cu1P_2 1_555 1_555
O2P C1P 1_555 1_555
C2P C1P 1_555 1_555
C3P C2P 1_555 1_555
H1P C3P 1_555 1_555
C4P C2P 1_555 1_555
H2P C4P 1_555 1_555
C5P C9B_2 1_555 1_555
C6P C8B 1_555 1_555
C7P C8B 1_555 1_555
H3P C7P 1_555 1_555
C8P C6B_2 1_555 1_555
H4P C8P 1_555 1_555
C9P C5B_2 1_555 1_555
C10P C9P 1_555 1_555
C11P C6P 1_555 1_555
Se1P N1P 1_555 1_555
N1P C11P 1_555 1_555
N2P C10P 1_555 1_555
C1W_2 O1W_2 1_555 1_555
O1W_2 Cu1B 1_555 1_555
O2W_2 C1W_2 1_555 1_555
C2W_2 C1W_2 1_555 1_555
C3_2 C2W_2 1_555 1_555
H1_2 C3_2 1_555 1_555
C4W_2 C2W_2 1_555 1_555
H2W_2 C4W_2 1_555 1_555
C5_2 C4W_2 1_555 1_555
C6_2 C5_2 1_555 1_555
C7W_2 H3W_2 1_555 1_555
H3W_2 C10Q_2 1_555 1_555
C8W_2 C7W_2 1_555 1_555
H4W_2 C8W_2 1_555 1_555
C9_2 C10W_2 1_555 1_555
C10W_2 C11W_2 1_555 1_555
C11W_2 C6_2 1_555 1_555
Se1W_2 Se1B 1_555 1_555
N1W_2 C11W_2 1_555 1_555
N2W_2 C10W_2 1_555 1_555
C1V_2 O1V_2 1_555 1_555
O1V_2 Cu1A 1_555 1_555
O2V_2 C1V_2 1_555 1_555
C2V_2 C3B_2 1_555 1_555
C4V_2 C5B_2 1_555 1_555
H2V_2 C4V_2 1_555 1_555
C7V_2 C7B 1_555 1_555
H3V_2 C10P 1_555 1_555
C8V_2 C8B 1_555 1_555
H4V_2 C11P 1_555 1_555
C10V_2 C9B_2 1_555 1_555
C11V_2 C6B_2 1_555 1_555
Se1V_2 N1V_2 1_555 1_555
N1V_2 C8P 1_555 1_555
N2V_2 C7P 1_555 1_555
C1Y O1Y 1_555 1_555
O1Y Cu1P 1_555 1_555
O2Y C1Y 1_555 1_555
C2Y C3O 1_555 1_555
C4Y C5O 1_555 1_555
H2Y C4Y 1_555 1_555
C7Y C9A_2 1_555 1_555
H3Y C10A 1_555 1_555
C8Y C6A_2 1_555 1_555
H4Y C11A 1_555 1_555
C10Y C9O 1_555 1_555
C11Y H4A 1_555 1_555
Se1Y Se1P 1_555 1_555
N1Y C8A 1_555 1_555
N2Y C7A 1_555 1_555
C1_2 O1_2 1_555 1_555
O1_2 Cu1_2 1_555 1_555
O2_2 C1_2 1_555 1_555
C2_2 C1_2 1_555 1_555
C3_3 C2_2 1_555 1_555
H1_3 C3_3 1_555 1_555
C4_2 C2_2 1_555 1_555
H2_2 C4_2 1_555 1_555
C5_3 C4_2 1_555 1_555
C6_3 C5_3 1_555 1_555
C7_2 H3_2 1_555 1_555
H3_2 C10X_2 1_555 1_555
C8_2 C7_2 1_555 1_555
H4_2 C8_2 1_555 1_555
C9_3 C10_2 1_555 1_555
C10_2 C11_2 1_555 1_555
C11_2 C6_3 1_555 1_555
Se1_2 Se1U_2 1_555 1_555
N1_2 C11_2 1_555 1_555
N2_2 C10_2 1_555 1_555
C1Z O1Z 1_555 1_555
O1Z Cu1Q 1_555 1_555
O2Z C1Z 1_555 1_555
C2Z C3P 1_555 1_555
C4Z C5P 1_555 1_555
H2Z C4Z 1_555 1_555
C7Z C9B_2 1_555 1_555
H3Z C10B 1_555 1_555
C8Z C6B_2 1_555 1_555
H4Z C11B 1_555 1_555
C10Z C9P 1_555 1_555
C11Z H4B 1_555 1_555
Se1Z Se1Q 1_555 1_555
N1Z C8B 1_555 1_555
N2Z C7B 1_555 1_555
C1A_2 O1A_2 1_555 1_555
O1A_2 Cu1A_3 1_555 1_555
O2A_2 C1A_2 1_555 1_555
C2A_2 C1A_2 1_555 1_555
C3A_3 C2A_2 1_555 1_555
H1A_3 C3A_3 1_555 1_555
C4A_2 C2A_2 1_555 1_555
H2A_2 C4A_2 1_555 1_555
C5A_3 C4A_2 1_555 1_555
C6A_3 C5A_3 1_555 1_555
C7A_2 H3A_2 1_555 1_555
H3A_2 C10Y_2 1_555 1_555
C8A_2 C7A_2 1_555 1_555
H4A_2 C8A_2 1_555 1_555
C9A_3 C10A_2 1_555 1_555
C10A_2 C11A_2 1_555 1_555
C11A_2 C6A_3 1_555 1_555
Se1A_2 Se1V_2 1_555 1_555
N1A_2 C11A_2 1_555 1_555
N2A_2 C10A_2 1_555 1_555
C1X O1X 1_555 1_555
O1X Cu1O_2 1_555 1_555
O2X C1X 1_555 1_555
C2X C3Q 1_555 1_555
C4X C5Q 1_555 1_555
H2X C4X 1_555 1_555
C7X C9 1_555 1_555
H3X C10 1_555 1_555
C8X C6 1_555 1_555
H4X C11 1_555 1_555
C10X C9Q 1_555 1_555
C11X H4 1_555 1_555
Se1X Se1O 1_555 1_555
N1X C8 1_555 1_555
N2X C7 1_555 1_555
C1B_2 O1B_2 1_555 1_555
O1B_2 Cu1B_3 1_555 1_555
O2B_2 C1B_2 1_555 1_555
C2B_2 C1B_2 1_555 1_555
C3B_3 C2B_2 1_555 1_555
H1B_3 C3B_3 1_555 1_555
C4B_2 C2B_2 1_555 1_555
H2B_2 C4B_2 1_555 1_555
C5B_3 C4B_2 1_555 1_555
C6B_3 C5B_3 1_555 1_555
C7B_2 H3B_2 1_555 1_555
H3B_2 C10Z_2 1_555 1_555
C8B_2 C7B_2 1_555 1_555
H4B_2 C8B_2 1_555 1_555
C9B_3 C10B_2 1_555 1_555
C10B_2 C11B_2 1_555 1_555
C11B_2 C6B_3 1_555 1_555
Se1B_2 Se1W 1_555 1_555
N1B_2 C11B_2 1_555 1_555
N2B_2 C10B_2 1_555 1_555
Cu1F O2O 1_555 1_555
Cu1F_2 O2X 1_555 1_555
Cu1G O2Y 1_555 1_555
Cu1G_2 O2P 1_555 1_555
Cu1H O2Z 1_555 1_555
Cu1H_2 O2Q 1_555 1_555
Cu1I O2_2 1_555 1_555
Cu1I_2 O2 1_555 1_555
Cu1I_3 O2U 1_555 1_555
Cu1J O2V 1_555 1_555
Cu1J_2 O2A 1_555 1_555
Cu1J_3 O2A_2 1_555 1_555
Cu1K O2W_2 1_555 1_555
Cu1K_2 O2W 1_555 1_555
Cu1K_3 O2B_2 1_555 1_555
O2I Cu1 1_555 1_555
O2J Cu1A 1_555 1_555
O2DA Cu1 1_555 1_555
O2EA Cu1A 1_555 1_555
C2_3 C3_2 1_555 1_555
C2A_3 C3A 1_555 1_555
C2B_3 C3B 1_555 1_555
C2U_3 C3A_3 1_555 1_555
C2V_3 C3B_3 1_555 1_555
C2W_3 C3_3 1_555 1_555
C4_3 C5_2 1_555 1_555
C4A_3 C5A 1_555 1_555
C4B_3 C5B 1_555 1_555
C4U_3 C5A_3 1_555 1_555
C4V_3 C5B_3 1_555 1_555
C4W_3 C5_3 1_555 1_555
C5O_2 C9A_3 1_555 1_555
C5O_3 C9A 1_555 1_555
C5P_2 C9B 1_555 1_555
C5P_3 C9B_3 1_555 1_555
C5Q_2 C9_3 1_555 1_555
C5Q_3 C9_2 1_555 1_555
C6O_2 C8A_2 1_555 1_555
C6O_3 C8U 1_555 1_555
C6P_2 C8V 1_555 1_555
C6P_3 C8B_2 1_555 1_555
C6Q_2 C8_2 1_555 1_555
C6Q_3 C8W_2 1_555 1_555
C7_3 C7W_2 1_555 1_555
C7A_3 C7U 1_555 1_555
C7B_3 C7V 1_555 1_555
C7O_2 C8A_2 1_555 1_555
C7O_3 C9A 1_555 1_555
C7P_2 C9B 1_555 1_555
C7P_3 C8B_2 1_555 1_555
C7Q_2 C8_2 1_555 1_555
C7Q_3 C9_2 1_555 1_555
C7U_3 C7A_2 1_555 1_555
C7V_3 C7B_2 1_555 1_555
C7W_3 C7_2 1_555 1_555
C7X_2 C9_3 1_555 1_555
C7X_3 C8W_2 1_555 1_555
C7Y_2 C9A_3 1_555 1_555
C7Y_3 C8U 1_555 1_555
C7Z_2 C8V 1_555 1_555
C7Z_3 C9B_3 1_555 1_555
H3O_2 C10U 1_555 1_555
H3P_2 C10V 1_555 1_555
H3Q_2 C10W_2 1_555 1_555
H3X_2 C10_2 1_555 1_555
H3Y_2 C10A_2 1_555 1_555
H3Z_2 C10B_2 1_555 1_555
C8_3 C8W_2 1_555 1_555
C8A_3 C8U 1_555 1_555
C8B_3 C8V 1_555 1_555
C8O_2 C6A_3 1_555 1_555
C8O_3 C6A 1_555 1_555
C8P_2 C6B 1_555 1_555
C8P_3 C6B_3 1_555 1_555
C8Q_2 C6_3 1_555 1_555
C8Q_3 C6_2 1_555 1_555
C8U_3 C8A_2 1_555 1_555
C8V_3 C8B_2 1_555 1_555
C8W_3 C8_2 1_555 1_555
C8X_2 C6_3 1_555 1_555
C8X_3 C6_2 1_555 1_555
C8Y_2 C6A_3 1_555 1_555
C8Y_3 C6A 1_555 1_555
C8Z_2 C6B 1_555 1_555
C8Z_3 C6B_3 1_555 1_555
H4O_2 C11U 1_555 1_555
H4P_2 C11V 1_555 1_555
H4Q_2 C11W_2 1_555 1_555
H4X_2 C11_2 1_555 1_555
H4Y_2 C11A_2 1_555 1_555
H4Z_2 C11B_2 1_555 1_555
C9O_2 C5A_3 1_555 1_555
C9O_3 C5A 1_555 1_555
C9P_2 C5B 1_555 1_555
C9P_3 C5B_3 1_555 1_555
C9Q_2 C5_3 1_555 1_555
C9Q_3 C5_2 1_555 1_555
C10_3 C9_2 1_555 1_555
C10A_3 C9A 1_555 1_555
C10B_3 C9B 1_555 1_555
C10O_2 C9O_3 1_555 1_555
C10P_2 C9P_2 1_555 1_555
C10Q_2 C9Q_3 1_555 1_555
C10U_3 C9A_3 1_555 1_555
C10V_3 C9B_3 1_555 1_555
C10W_3 C9_3 1_555 1_555
C10X_2 C9Q_2 1_555 1_555
C10Y_2 C9O_2 1_555 1_555
C10Z_2 C9P_3 1_555 1_555
C11_3 C6_2 1_555 1_555
C11A_3 C6A 1_555 1_555
C11B_3 C6B 1_555 1_555
C11O_2 H4U 1_555 1_555
C11P_2 H4V 1_555 1_555
C11Q_2 H4W_2 1_555 1_555
C11U_3 C6A_3 1_555 1_555
C11V_3 C6B_3 1_555 1_555
C11W_3 C6_3 1_555 1_555
C11X_2 H4_2 1_555 1_555
C11Y_2 H4A_2 1_555 1_555
C11Z_2 H4B_2 1_555 1_555
N1O_2 C8U 1_555 1_555
N1P_2 C8V 1_555 1_555
N1Q_2 C8W_2 1_555 1_555
N1X_2 C8_2 1_555 1_555
N1Y_2 C8A_2 1_555 1_555
N1Z_2 C8B_2 1_555 1_555
N2O_2 C7U 1_555 1_555
N2P_2 C7V 1_555 1_555
N2Q_2 C7W_2 1_555 1_555
N2X_2 C7_2 1_555 1_555
N2Y_2 C7A_2 1_555 1_555
N2Z_2 C7B_2 1_555 1_555
C6 C9Q 1_555 1_555
C7 C8Q 1_555 1_555
C7 C9Q 1_555 1_555
H3 N2X 1_555 1_555
H4 N1X 1_555 1_555
C9 C6Q 1_555 1_555
C9 C7Q 1_555 1_555
C10 C10W 1_555 1_555
C11 C11W 1_555 1_555
Se1 N2 1_555 1_555
N1 C8X 1_555 1_555
N1 H4X 1_555 1_555
N2 C7X 1_555 1_555
N2 H3X 1_555 1_555
C4Q C5Q 1_555 1_555
C5Q C6Q 1_555 1_555
C6Q C8W 1_555 1_555
C6Q C11X 1_555 1_555
C7Q C8Q 1_555 1_555
C7Q C7X 1_555 1_555
H3Q C10W 1_555 1_555
H3Q N2W 1_555 1_555
C8Q C8X 1_555 1_555
H4Q C11W 1_555 1_555
H4Q N1W 1_555 1_555
C9Q C7W 1_555 1_555
C10Q C11Q 1_555 1_555
C10Q C10X 1_555 1_555
C11Q C11X 1_555 1_555
Se1Q N2Q 1_555 1_555
N1Q C8W 1_555 1_555
N1Q H4W 1_555 1_555
N2Q C7W 1_555 1_555
N2Q H3W 1_555 1_555
C6A C9O_3 1_555 1_555
C7U C8Y_3 1_555 1_555
C7U C9O_3 1_555 1_555
H3U N2O_2 1_555 1_555
H4U N1O_2 1_555 1_555
C9A C6O_3 1_555 1_555
C9A C7Y_3 1_555 1_555
C10U C10A_3 1_555 1_555
C11U C11A_3 1_555 1_555
Se1U N1U 1_555 1_555
Se1U N2U 1_555 1_555
N1U C8O_3 1_555 1_555
N1U H4O_2 1_555 1_555
N2U C7O_3 1_555 1_555
N2U H3O_2 1_555 1_555
C1W C2W 1_555 1_555
C2W C4W 1_555 1_555
C7W H3W 1_555 1_555
C7W C8W 1_555 1_555
C7W C8X 1_555 1_555
C8W H4W 1_555 1_555
C8W C7X 1_555 1_555
C10W C11W 1_555 1_555
C10W N2W 1_555 1_555
C11W N1W 1_555 1_555
Se1W N2W 1_555 1_555
C6A_2 C9O 1_555 1_555
C7A C8O 1_555 1_555
C7A C9O 1_555 1_555
H3A N2Y 1_555 1_555
H4A N1Y 1_555 1_555
C9A_2 C6O 1_555 1_555
C9A_2 C7O 1_555 1_555
C10A C10U_2 1_555 1_555
C11A C11U_2 1_555 1_555
Se1A N2A 1_555 1_555
N1A C8Y 1_555 1_555
N1A H4Y 1_555 1_555
N2A C7Y 1_555 1_555
N2A H3Y 1_555 1_555
C4O C5O 1_555 1_555
C5O C6O 1_555 1_555
C6O C8U_2 1_555 1_555
C6O C11Y 1_555 1_555
C7O C8O 1_555 1_555
C7O C7Y 1_555 1_555
H3O C10U_2 1_555 1_555
H3O N2U_2 1_555 1_555
C8O C8Y 1_555 1_555
H4O C11U_2 1_555 1_555
H4O N1U_2 1_555 1_555
C9O C7U_2 1_555 1_555
C10O C11O 1_555 1_555
C10O C10Y 1_555 1_555
C11O C11Y 1_555 1_555
Se1O N2O 1_555 1_555
N1O C8U_2 1_555 1_555
N1O H4U_2 1_555 1_555
N2O C7U_2 1_555 1_555
N2O H3U_2 1_555 1_555
C6B C9P_2 1_555 1_555
C7V C8Z_2 1_555 1_555
C7V C9P_2 1_555 1_555
H3V N2P_2 1_555 1_555
H4V N1P_2 1_555 1_555
C9B C6P_2 1_555 1_555
C9B C7Z_2 1_555 1_555
C10V C10B_3 1_555 1_555
C11V C11B_3 1_555 1_555
Se1V N1V 1_555 1_555
Se1V N2V 1_555 1_555
N1V C8P_2 1_555 1_555
N1V H4P_2 1_555 1_555
N2V C7P_2 1_555 1_555
N2V H3P_2 1_555 1_555
C1U_2 C2U_2 1_555 1_555
O2U_2 Cu1I_2 1_555 1_555
C2U_2 C4U_2 1_555 1_555
C7U_2 H3U_2 1_555 1_555
C7U_2 C8U_2 1_555 1_555
C7U_2 C8Y 1_555 1_555
C8U_2 H4U_2 1_555 1_555
C8U_2 C7Y 1_555 1_555
C10U_2 C11U_2 1_555 1_555
C10U_2 N2U_2 1_555 1_555
C11U_2 N1U_2 1_555 1_555
Se1U_2 N2U_2 1_555 1_555
O2B Cu1K_2 1_555 1_555
C6B_2 C9P 1_555 1_555
C7B C8P 1_555 1_555
C7B C9P 1_555 1_555
H3B N2Z 1_555 1_555
H4B N1Z 1_555 1_555
C9B_2 C6P 1_555 1_555
C9B_2 C7P 1_555 1_555
C10B C10V_2 1_555 1_555
C11B C11V_2 1_555 1_555
Se1B N2B 1_555 1_555
N1B C8Z 1_555 1_555
N1B H4Z 1_555 1_555
N2B C7Z 1_555 1_555
N2B H3Z 1_555 1_555
C4P C5P 1_555 1_555
C5P C6P 1_555 1_555
C6P C8V_2 1_555 1_555
C6P C11Z 1_555 1_555
C7P C8P 1_555 1_555
C7P C7Z 1_555 1_555
H3P C10V_2 1_555 1_555
H3P N2V_2 1_555 1_555
C8P C8Z 1_555 1_555
H4P C11V_2 1_555 1_555
H4P N1V_2 1_555 1_555
C9P C7V_2 1_555 1_555
C10P C11P 1_555 1_555
C10P C10Z 1_555 1_555
C11P C11Z 1_555 1_555
Se1P N2P 1_555 1_555
N1P C8V_2 1_555 1_555
N1P H4V_2 1_555 1_555
N2P C7V_2 1_555 1_555
N2P H3V_2 1_555 1_555
C6_2 C9Q_3 1_555 1_555
C7W_2 C8X_3 1_555 1_555
C7W_2 C9Q_3 1_555 1_555
H3W_2 N2Q_2 1_555 1_555
H4W_2 N1Q_2 1_555 1_555
C9_2 C6Q_3 1_555 1_555
C9_2 C7X_3 1_555 1_555
C10W_2 C10_3 1_555 1_555
C11W_2 C11_3 1_555 1_555
Se1W_2 N1W_2 1_555 1_555
Se1W_2 N2W_2 1_555 1_555
N1W_2 C8Q_3 1_555 1_555
N1W_2 H4Q_2 1_555 1_555
N2W_2 C7Q_3 1_555 1_555
N2W_2 H3Q_2 1_555 1_555
C1V_2 C2V_2 1_555 1_555
O2V_2 Cu1J_2 1_555 1_555
C2V_2 C4V_2 1_555 1_555
C7V_2 H3V_2 1_555 1_555
C7V_2 C8V_2 1_555 1_555
C7V_2 C8Z 1_555 1_555
C8V_2 H4V_2 1_555 1_555
C8V_2 C7Z 1_555 1_555
C10V_2 C11V_2 1_555 1_555
C10V_2 N2V_2 1_555 1_555
C11V_2 N1V_2 1_555 1_555
Se1V_2 N2V_2 1_555 1_555
C1Y C2Y 1_555 1_555
C2Y C4Y 1_555 1_555
C7Y H3Y 1_555 1_555
C7Y C8Y 1_555 1_555
C8Y H4Y 1_555 1_555
C10Y C11Y 1_555 1_555
C10Y N2Y 1_555 1_555
C11Y N1Y 1_555 1_555
Se1Y N1Y 1_555 1_555
Se1Y N2Y 1_555 1_555
C6_3 C9Q_2 1_555 1_555
C7_2 C8Q_2 1_555 1_555
C7_2 C9Q_2 1_555 1_555
H3_2 N2X_2 1_555 1_555
H4_2 N1X_2 1_555 1_555
C9_3 C6Q_2 1_555 1_555
C9_3 C7Q_2 1_555 1_555
C10_2 C10W_3 1_555 1_555
C11_2 C11W_3 1_555 1_555
Se1_2 N1_2 1_555 1_555
Se1_2 N2_2 1_555 1_555
N1_2 C8X_2 1_555 1_555
N1_2 H4X_2 1_555 1_555
N2_2 C7X_2 1_555 1_555
N2_2 H3X_2 1_555 1_555
C1Z C2Z 1_555 1_555
C2Z C4Z 1_555 1_555
C7Z H3Z 1_555 1_555
C7Z C8Z 1_555 1_555
C8Z H4Z 1_555 1_555
C10Z C11Z 1_555 1_555
C10Z N2Z 1_555 1_555
C11Z N1Z 1_555 1_555
Se1Z N1Z 1_555 1_555
Se1Z N2Z 1_555 1_555
C6A_3 C9O_2 1_555 1_555
C7A_2 C8O_2 1_555 1_555
C7A_2 C9O_2 1_555 1_555
H3A_2 N2Y_2 1_555 1_555
H4A_2 N1Y_2 1_555 1_555
C9A_3 C6O_2 1_555 1_555
C9A_3 C7O_2 1_555 1_555
C10A_2 C10U_3 1_555 1_555
C11A_2 C11U_3 1_555 1_555
Se1A_2 N1A_2 1_555 1_555
Se1A_2 N2A_2 1_555 1_555
N1A_2 C8Y_2 1_555 1_555
N1A_2 H4Y_2 1_555 1_555
N2A_2 C7Y_2 1_555 1_555
N2A_2 H3Y_2 1_555 1_555
C1X C2X 1_555 1_555
C2X C4X 1_555 1_555
C7X H3X 1_555 1_555
C7X C8X 1_555 1_555
C8X H4X 1_555 1_555
C10X C11X 1_555 1_555
C10X N2X 1_555 1_555
C11X N1X 1_555 1_555
Se1X N1X 1_555 1_555
Se1X N2X 1_555 1_555
C6B_3 C9P_3 1_555 1_555
C7B_2 C8P_3 1_555 1_555
C7B_2 C9P_3 1_555 1_555
H3B_2 N2Z_2 1_555 1_555
H4B_2 N1Z_2 1_555 1_555
C9B_3 C6P_3 1_555 1_555
C9B_3 C7P_3 1_555 1_555
C10B_2 C10V_3 1_555 1_555
C11B_2 C11V_3 1_555 1_555
Se1B_2 N1B_2 1_555 1_555
Se1B_2 N2B_2 1_555 1_555
N1B_2 C8Z_3 1_555 1_555
N1B_2 H4Z_2 1_555 1_555
N2B_2 C7Z_3 1_555 1_555
N2B_2 H3Z_2 1_555 1_555
C2_3 C4_3 1_555 1_555
C2A_3 C4A_3 1_555 1_555
C2B_3 C4B_3 1_555 1_555
C2U_3 C4U_3 1_555 1_555
C2V_3 C4V_3 1_555 1_555
C2W_3 C4W_3 1_555 1_555
C5O_2 C6O_2 1_555 1_555
C5O_3 C6O_3 1_555 1_555
C5P_2 C6P_2 1_555 1_555
C5P_3 C6P_3 1_555 1_555
C5Q_2 C6Q_2 1_555 1_555
C5Q_3 C6Q_3 1_555 1_555
C6O_2 C8U_3 1_555 1_555
C6O_2 C11Y_2 1_555 1_555
C6O_3 C8A_3 1_555 1_555
C6O_3 C11O_2 1_555 1_555
C6P_2 C8B_3 1_555 1_555
C6P_2 C11P_2 1_555 1_555
C6P_3 C8V_3 1_555 1_555
C6P_3 C11Z_2 1_555 1_555
C6Q_2 C8W_3 1_555 1_555
C6Q_2 C11X_2 1_555 1_555
C6Q_3 C8_3 1_555 1_555
C6Q_3 C11Q_2 1_555 1_555
C7_3 C8_3 1_555 1_555
C7_3 C8Q_3 1_555 1_555
C7_3 C9Q_3 1_555 1_555
C7A_3 C8A_3 1_555 1_555
C7A_3 C8O_3 1_555 1_555
C7A_3 C9O_3 1_555 1_555
C7B_3 C8B_3 1_555 1_555
C7B_3 C8P_2 1_555 1_555
C7B_3 C9P_2 1_555 1_555
C7O_2 C7Y_2 1_555 1_555
C7O_2 C8O_2 1_555 1_555
C7O_3 C7Y_3 1_555 1_555
C7O_3 H3O_2 1_555 1_555
C7O_3 C8A_3 1_555 1_555
C7O_3 C8O_3 1_555 1_555
C7P_2 C7Z_2 1_555 1_555
C7P_2 H3P_2 1_555 1_555
C7P_2 C8B_3 1_555 1_555
C7P_2 C8P_2 1_555 1_555
C7P_3 C7Z_3 1_555 1_555
C7P_3 C8P_3 1_555 1_555
C7Q_2 C7X_2 1_555 1_555
C7Q_2 C8Q_2 1_555 1_555
C7Q_3 C7X_3 1_555 1_555
C7Q_3 H3Q_2 1_555 1_555
C7Q_3 C8_3 1_555 1_555
C7Q_3 C8Q_3 1_555 1_555
C7U_3 C8U_3 1_555 1_555
C7U_3 C8Y_2 1_555 1_555
C7U_3 C9O_2 1_555 1_555
C7V_3 C8V_3 1_555 1_555
C7V_3 C8Z_3 1_555 1_555
C7V_3 C9P_3 1_555 1_555
C7W_3 C8W_3 1_555 1_555
C7W_3 C8X_2 1_555 1_555
C7W_3 C9Q_2 1_555 1_555
C7X_2 H3X_2 1_555 1_555
C7X_2 C8W_3 1_555 1_555
C7X_2 C8X_2 1_555 1_555
C7X_3 C8X_3 1_555 1_555
C7Y_2 H3Y_2 1_555 1_555
C7Y_2 C8U_3 1_555 1_555
C7Y_2 C8Y_2 1_555 1_555
C7Y_3 C8Y_3 1_555 1_555
C7Z_2 C8Z_2 1_555 1_555
C7Z_3 H3Z_2 1_555 1_555
C7Z_3 C8V_3 1_555 1_555
C7Z_3 C8Z_3 1_555 1_555
C8O_2 C8Y_2 1_555 1_555
C8O_3 C8Y_3 1_555 1_555
C8O_3 H4O_2 1_555 1_555
C8P_2 C8Z_2 1_555 1_555
C8P_2 H4P_2 1_555 1_555
C8P_3 C8Z_3 1_555 1_555
C8Q_2 C8X_2 1_555 1_555
C8Q_3 C8X_3 1_555 1_555
C8Q_3 H4Q_2 1_555 1_555
C8X_2 H4X_2 1_555 1_555
C8Y_2 H4Y_2 1_555 1_555
C8Z_3 H4Z_2 1_555 1_555
C10_3 C11_3 1_555 1_555
C10A_3 C11A_3 1_555 1_555
C10B_3 C11B_3 1_555 1_555
C10O_2 C11O_2 1_555 1_555
C10O_2 N2O_2 1_555 1_555
C10P_2 C11P_2 1_555 1_555
C10P_2 N2P_2 1_555 1_555
C10Q_2 C11Q_2 1_555 1_555
C10Q_2 N2Q_2 1_555 1_555
C10U_3 C11U_3 1_555 1_555
C10V_3 C11V_3 1_555 1_555
C10W_3 C11W_3 1_555 1_555
C10X_2 C11X_2 1_555 1_555
C10X_2 N2X_2 1_555 1_555
C10Y_2 C11Y_2 1_555 1_555
C10Y_2 N2Y_2 1_555 1_555
C10Z_2 C11Z_2 1_555 1_555
C10Z_2 N2Z_2 1_555 1_555
C11O_2 N1O_2 1_555 1_555
C11P_2 N1P_2 1_555 1_555
C11Q_2 N1Q_2 1_555 1_555
C11X_2 N1X_2 1_555 1_555
C11Y_2 N1Y_2 1_555 1_555
C11Z_2 N1Z_2 1_555 1_555

#END
