
#######################################################################
#
#                 Cambridge Crystallographic Data Centre
#                                CCDC 
#
#######################################################################
#
# If this CIF has been generated from an entry in the Cambridge 
# Structural Database, then it will include bibliographic, chemical, 
# crystal, experimental, refinement or atomic coordinate data resulting 
# from the CCDC's data processing and validation procedures.
#
#######################################################################

data_HOGLEV01
_chemical_formula_moiety         '(C17 H12 Cu2 O10)n'
_symmetry_cell_setting           hexagonal
_symmetry_space_group_name_H-M   'P 63/m m c'
_symmetry_Int_Tables_number      194
_space_group_name_Hall           '-P 6c 2c'
loop_
_symmetry_equiv_pos_site_id
_symmetry_equiv_pos_as_xyz
1 x,y,z
2 x-y,x,1/2+z
3 -y,x-y,z
4 -x+y,-x,z
5 y,-x+y,1/2+z
6 x,x-y,1/2-z
7 y,x,-z
8 -x+y,y,1/2-z
9 -x,-y,1/2+z
10 -y,-x,1/2-z
11 x-y,-y,-z
12 -x,-x+y,-z
13 -x,-y,-z
14 -x+y,-x,1/2-z
15 y,-x+y,-z
16 x-y,x,-z
17 -y,x-y,1/2-z
18 -x,-x+y,1/2+z
19 -y,-x,z
20 x-y,-y,1/2+z
21 x,y,1/2-z
22 y,x,1/2+z
23 -x+y,y,z
24 x,x-y,z
_cell_length_a                   18.07(2)
_cell_length_b                   18.07(2)
_cell_length_c                   19.34(2)
_cell_angle_alpha                90
_cell_angle_beta                 90
_cell_angle_gamma                120
_cell_volume                     5468.94
loop_
_atom_site_label
_atom_site_type_symbol
_atom_site_fract_x
_atom_site_fract_y
_atom_site_fract_z
_atom_site_U_iso_or_equiv
_atom_site_thermal_displace_type
Cu1 Cu 0.47322(4) 0.52678(4) -0.05348(7) 0.0439 Uani
O1 O 0.4255(3) 0.5745(3) -0.1322(4) 0.0948 Uani
O2 O 0.3692(4) 0.4782(4) 0.0027(4) 0.0704 Uani
C1 C 0.2741(6) 0.4171(5) 0.0960(4) 0.0468 Uani
C2 C 0.2498(5) 0.3666(5) 0.1544(4) 0.0474 Uani
H1 H 0.2874 0.3515 0.1725 0.0570 Uiso
C3 C 0.1704(4) 0.3408(8) 0.1860(6) 0.0498 Uani
C4 C 0.2209(4) 0.4418(8) 0.0685(6) 0.0470 Uani
H2 H 0.2384 0.4768 0.0296 0.0570 Uiso
C5 C 0.1430(6) 0.2861(11) 0.2500 0.0694 Uani
H3 H 0.0819 0.2514 0.2500 0.0840 Uiso
C6 C 0.3602(6) 0.4441(6) 0.0633(6) 0.0554 Uani
O3 O 0.4160(4) 0.4332(4) 0.0945(3) 0.0702 Uani
Cu1C Cu 0.05356(6) 0.52678(4) -0.05348(7) 0.0439 Uani
Cu1F Cu 0.52678(4) 0.47322(4) 0.05348(7) 0.0439 Uani
Cu1O Cu -0.05356(6) 0.47322(4) 0.05348(7) 0.0439 Uani
Cu1T Cu 0.47322(4) 0.52678(4) 0.55348(7) 0.0439 Uani
Cu1U Cu 0.52678(4) 0.47322(4) 0.44652(7) 0.0439 Uani
Cu1G Cu 0.05356(6) 0.52678(4) 0.55348(7) 0.0439 Uani
Cu1A Cu -0.05356(6) 0.47322(4) 0.44652(7) 0.0439 Uani
O1C O 0.1490(4) 0.5745(3) -0.1322(4) 0.0948 Uani
O2V O 0.1090(6) 0.4782(4) 0.0027(4) 0.0704 Uani
O2T O 0.3692(4) 0.4782(4) 0.4973(4) 0.0704 Uani
O2G O 0.1090(6) 0.4782(4) 0.4973(4) 0.0704 Uani
O2R O 0.5218(4) 0.6308(4) 0.0027(4) 0.0704 Uani
O2C O 0.1090(6) 0.6308(4) 0.0027(4) 0.0704 Uani
C1V C 0.1430(8) 0.4171(5) 0.0960(4) 0.0468 Uani
C1G C 0.1430(8) 0.4171(5) 0.4040(4) 0.0468 Uani
C1T C 0.2741(6) 0.4171(5) 0.4040(4) 0.0468 Uani
C2V C 0.1168(7) 0.3666(5) 0.1544(4) 0.0474 Uani
C2G C 0.1168(7) 0.3666(5) 0.3456(4) 0.0474 Uani
C2T C 0.2498(5) 0.3666(5) 0.3456(4) 0.0474 Uani
H1V H 0.0641 0.3515 0.1725 0.0570 Uiso
H1T H 0.2874 0.3515 0.3275 0.0570 Uiso
H1G H 0.0641 0.3515 0.3275 0.0570 Uiso
C3G C 0.1704(9) 0.3408(8) 0.3140(6) 0.0498 Uani
C4G C 0.2209(9) 0.4418(8) 0.4315(6) 0.0470 Uani
H2G H 0.2384 0.4768 0.4704 0.0570 Uiso
H3G H 0.1695 0.2514 0.2500 0.0840 Uiso
C6V C 0.0839(8) 0.4441(6) 0.0633(6) 0.0554 Uani
C6T C 0.3602(6) 0.4441(6) 0.4367(6) 0.0554 Uani
C6G C 0.0839(8) 0.4441(6) 0.4367(6) 0.0554 Uani
O3V O 0.0172(6) 0.4332(4) 0.0945(3) 0.0702 Uani
O3T O 0.4160(4) 0.4332(4) 0.4055(3) 0.0702 Uani
O3G O 0.0172(6) 0.4332(4) 0.4055(3) 0.0702 Uani
O3F O 0.4332(4) 0.4160(4) -0.0945(3) 0.0702 Uani
O3L O 0.5840(4) 0.5668(4) -0.0945(3) 0.0702 Uani
O3O O -0.0172(6) 0.4160(4) -0.0945(3) 0.0702 Uani
O3J O -0.0172(6) 0.5668(4) -0.0945(3) 0.0702 Uani
loop_
_atom_site_aniso_label
_atom_site_aniso_U_11
_atom_site_aniso_U_22
_atom_site_aniso_U_33
_atom_site_aniso_U_23
_atom_site_aniso_U_13
_atom_site_aniso_U_12
Cu1 0.0619(13) 0.0619(13) 0.0238(13) 0.0007(3) -0.0007(3) 0.0428(10)
O1 0.160(7) 0.160(7) 0.039(5) 0.012(2) -0.012(2) 0.136(8)
O2 0.069(5) 0.106(5) 0.050(4) 0.011(4) 0.020(4) 0.054(4)
C1 0.054(7) 0.055(6) 0.035(6) -0.007(5) 0.006(5) 0.030(5)
C2 0.040(5) 0.053(6) 0.041(6) -0.005(5) -0.014(5) 0.017(5)
C3 0.050(6) 0.059(9) 0.044(8) -0.006(7) -0.003(4) 0.030(5)
C4 0.051(7) 0.060(9) 0.033(7) 0.007(7) 0.004(3) 0.030(5)
C5 0.059(10) 0.053(13) 0.095(18) 0.000 0.000 0.027(6)
C6 0.056(7) 0.059(7) 0.045(7) 0.010(5) 0.035(6) 0.024(6)
O3 0.052(4) 0.099(5) 0.072(5) 0.011(4) 0.000(4) 0.047(4)
Cu1C 0.0382 0.0619 0.0238 0.0007 0.0014 0.0191
Cu1F 0.0619 0.0619 0.0238 0.0007 -0.0007 0.0428
Cu1O 0.0382 0.0619 0.0238 0.0007 0.0014 0.0191
Cu1T 0.0619 0.0619 0.0238 -0.0007 0.0007 0.0428
Cu1U 0.0619 0.0619 0.0238 -0.0007 0.0007 0.0428
Cu1G 0.0382 0.0619 0.0238 -0.0007 -0.0014 0.0191
Cu1A 0.0382 0.0619 0.0238 -0.0007 -0.0014 0.0191
O1C 0.048 0.16 0.039 0.012 0.024 0.024
O2V 0.067 0.106 0.05 0.011 -0.009 0.052
O2T 0.069 0.106 0.05 -0.011 -0.02 0.054
O2G 0.067 0.106 0.05 -0.011 0.009 0.052
O2R 0.106 0.069 0.05 -0.02 -0.011 0.054
O2C 0.067 0.069 0.05 -0.02 -0.009 0.015
C1V 0.049 0.055 0.035 -0.007 -0.013 0.025
C1G 0.049 0.055 0.035 0.007 0.013 0.025
C1T 0.054 0.055 0.035 0.007 -0.006 0.03
C2V 0.059 0.053 0.041 -0.005 0.009 0.036
C2G 0.059 0.053 0.041 0.005 -0.009 0.036
C2T 0.04 0.053 0.041 0.005 0.014 0.017
C3G 0.049 0.059 0.044 0.006 0.003 0.029
C4G 0.051 0.06 0.033 -0.007 -0.003 0.03
C6V 0.067 0.059 0.045 0.01 -0.025 0.035
C6T 0.056 0.059 0.045 -0.01 -0.035 0.024
C6G 0.067 0.059 0.045 -0.01 0.025 0.035
O3V 0.057 0.099 0.072 0.011 0.011 0.052
O3T 0.052 0.099 0.072 -0.011 0 0.047
O3G 0.057 0.099 0.072 -0.011 -0.011 0.052
O3F 0.099 0.052 0.072 0 -0.011 0.047
O3L 0.052 0.099 0.072 0.011 0 0.047
O3O 0.057 0.052 0.072 0 0.011 0.005
O3J 0.057 0.099 0.072 0.011 0.011 0.052
loop_
_geom_bond_atom_site_label_1
_geom_bond_atom_site_label_2
_geom_bond_site_symmetry_1
_geom_bond_site_symmetry_2
Cu1 O1 1_555 1_555
O2 Cu1 1_555 1_555
C1 C2 1_555 1_555
C2 H1 1_555 1_555
C3 C2 1_555 1_555
C4 C1 1_555 1_555
H2 C4 1_555 1_555
C5 C3 1_555 1_555
H3 C5 1_555 1_555
C6 O2 1_555 1_555
O3 C6 1_555 1_555
Cu1C Cu1O 1_555 1_555
Cu1F Cu1 1_555 1_555
Cu1O O3V 1_555 1_555
Cu1T Cu1U 1_555 1_555
Cu1U O3T 1_555 1_555
Cu1G Cu1A 1_555 1_555
Cu1A O3G 1_555 1_555
O1C Cu1C 1_555 1_555
O2V Cu1C 1_555 1_555
O2T Cu1T 1_555 1_555
O2G Cu1G 1_555 1_555
O2R Cu1 1_555 1_555
O2C Cu1C 1_555 1_555
C1V C4 1_555 1_555
C1G C2G 1_555 1_555
C1T C2T 1_555 1_555
C2V C3 1_555 1_555
C2G H1G 1_555 1_555
C2T H1T 1_555 1_555
H1V C2V 1_555 1_555
C3G C5 1_555 1_555
C4G C1G 1_555 1_555
H2G C4G 1_555 1_555
H3G C5 1_555 1_555
C6V O2V 1_555 1_555
C6T O2T 1_555 1_555
C6G O2G 1_555 1_555
O3V C6V 1_555 1_555
O3T C6T 1_555 1_555
O3G C6G 1_555 1_555
O3F Cu1 1_555 1_555
O3L Cu1 1_555 1_555
O3O Cu1C 1_555 1_555
O3J Cu1C 1_555 1_555
C1 C6 1_555 1_555
O3 Cu1F 1_555 1_555
C1V C2V 1_555 1_555
C1V C6V 1_555 1_555
C1G C6G 1_555 1_555
C1T C4G 1_555 1_555
C1T C6T 1_555 1_555
C2G C3G 1_555 1_555
C2T C3G 1_555 1_555

#END
