
#######################################################################
#
#                 Cambridge Crystallographic Data Centre
#                                CCDC 
#
#######################################################################
#
# If this CIF has been generated from an entry in the Cambridge 
# Structural Database, then it will include bibliographic, chemical, 
# crystal, experimental, refinement or atomic coordinate data resulting 
# from the CCDC's data processing and validation procedures.
#
#######################################################################

data_FIQYUA
_chemical_formula_moiety         '(C13 H18 Co6 O28)n'
_symmetry_cell_setting           monoclinic
_symmetry_space_group_name_H-M   'P 21/n'
_symmetry_Int_Tables_number      14
_space_group_name_Hall           '-P 2yn'
loop_
_symmetry_equiv_pos_site_id
_symmetry_equiv_pos_as_xyz
1 x,y,z
2 1/2-x,1/2+y,1/2-z
3 -x,-y,-z
4 1/2+x,1/2-y,1/2+z
_cell_length_a                   11.2727(9)
_cell_length_b                   9.8335(6)
_cell_length_c                   14.4249(12)
_cell_angle_alpha                90
_cell_angle_beta                 91.242(7)
_cell_angle_gamma                90
_cell_volume                     1598.63
loop_
_atom_site_label
_atom_site_type_symbol
_atom_site_fract_x
_atom_site_fract_y
_atom_site_fract_z
Co1 Co 0.24468(4) 0.08067(5) 0.36715(3)
Co2 Co 0.23992(4) 0.39071(5) 0.31123(3)
Co3 Co 0.5000 0.0000 0.5000
Co4 Co -0.0000 0.0000 0.5000
O1 O 0.3150(2) -0.0275(3) 0.47649(18)
C1 C 0.2576(3) -0.1086(4) 0.5287(3)
H1 H 0.299(4) -0.164(5) 0.568(3)
O2 O 0.1488(2) -0.1169(3) 0.5322(2)
O3 O 0.1037(2) 0.1557(3) 0.44135(18)
C2 C 0.0734(3) 0.2795(4) 0.4522(3)
H2 H 0.011(5) 0.286(6) 0.496(3)
O4 O 0.1134(3) 0.3787(3) 0.4101(2)
O5 O 0.1895(2) 0.2010(3) 0.25479(18)
C3 C 0.1678(3) 0.1724(4) 0.1699(3)
H3 H 0.141(4) 0.242(5) 0.135(3)
O6 O 0.1837(3) 0.0617(3) 0.13202(19)
O7 O 0.3471(2) 0.2580(3) 0.39120(17)
C4 C 0.4250(3) 0.2887(4) 0.4525(3)
H4 H 0.446(5) 0.377(6) 0.459(4)
O8 O 0.4824(3) 0.2083(3) 0.5017(2)
O9 O 0.1497(2) -0.0832(3) 0.30472(19)
C5 C 0.0441(4) -0.1256(4) 0.3109(3)
H5 H 0.018(4) -0.189(5) 0.256(3)
O10 O -0.0253(3) -0.0993(3) 0.3740(2)
O11 O 0.3713(2) -0.0031(3) 0.28052(19)
C6 C 0.4833(3) -0.0134(4) 0.2877(3)
H6 H 0.516(4) -0.039(5) 0.242(4)
O12 O 0.5431(3) 0.0020(3) 0.3593(2)
Co1B Co 0.75532(4) -0.08067(5) 0.63285(3)
Co1A Co 0.25532(4) 0.58067(5) 0.13285(3)
Co1B_2 Co -0.24468(4) -0.08067(5) 0.63285(3)
Co2B Co 0.76008(4) -0.39071(5) 0.68877(3)
Co2A Co 0.26008(4) -0.10929(5) 0.18877(3)
Co2C Co 0.73992(4) 0.10929(5) 0.81123(3)
Co2A_2 Co 0.26008(4) 0.89071(5) 0.18877(3)
Co2B_2 Co -0.23992(4) -0.39071(5) 0.68877(3)
Co4_2 Co 1.0000 0.0000 0.5000
Co4C Co 0.5000 0.5000 0.0000
O1B O 0.6850(2) 0.0275(3) 0.52351(18)
C1B C 0.7424(3) 0.1086(4) 0.4713(3)
H1B H 0.701(4) 0.164(5) 0.432(3)
O2B O 0.8512(2) 0.1169(3) 0.4678(2)
O2B_2 O -0.1488(2) 0.1169(3) 0.4678(2)
O3B O -0.1037(2) -0.1557(3) 0.55865(18)
O3B_2 O 0.8963(2) -0.1557(3) 0.55865(18)
C2B C -0.0734(3) -0.2795(4) 0.5478(3)
H2B H -0.011(5) -0.286(6) 0.504(3)
O4B O -0.1134(3) -0.3787(3) 0.5899(2)
O4B_2 O 0.8866(3) -0.3787(3) 0.5899(2)
O5A O 0.3105(2) 0.7010(3) 0.24521(18)
O5B O 0.8105(2) -0.2010(3) 0.74521(18)
C3A C 0.3322(3) 0.6724(4) 0.3301(3)
H3A H 0.359(4) 0.742(5) 0.365(3)
O6A O 0.3163(3) 0.5617(3) 0.36798(19)
O6C O 0.6837(3) -0.5617(3) 0.63202(19)
O7B O 0.6529(2) -0.2580(3) 0.60880(17)
C4B C 0.5750(3) -0.2887(4) 0.5475(3)
H4B H 0.554(5) -0.377(6) 0.541(4)
O8B O 0.5176(3) -0.2083(3) 0.4983(2)
O9A O 0.3503(2) 0.4168(3) 0.19528(19)
O9B O 0.8503(2) 0.0832(3) 0.69528(19)
O9C O 0.6497(2) -0.4168(3) 0.80472(19)
C5A C 0.4559(4) 0.3744(4) 0.1891(3)
H5A H 0.482(4) 0.311(5) 0.244(3)
O10A O 0.5253(3) 0.4007(3) 0.1260(2)
O10B O 0.0253(3) 0.0993(3) 0.6260(2)
O11B O 0.6287(2) 0.0031(3) 0.71948(19)
O11A O 0.1287(2) 0.4969(3) 0.21948(19)
O11C O 0.8713(2) -0.4969(3) 0.78052(19)
C6B C 0.5167(3) 0.0134(4) 0.7123(3)
H6B H 0.484(4) 0.039(5) 0.758(4)
O12B O 0.4569(3) -0.0020(3) 0.6407(2)
O13 O 0.2396(18) 0.686(2) 0.8384(15)
O14 O 0.130(2) 0.809(3) 0.7419(19)
C7 C 0.279(6) 0.534(6) 0.636(5)
O15 O 0.379(6) 0.547(8) 0.616(5)
O16 O 0.207(6) 0.434(7) 0.641(6)
loop_
_geom_bond_atom_site_label_1
_geom_bond_atom_site_label_2
_geom_bond_site_symmetry_1
_geom_bond_site_symmetry_2
Co1 O1 1_555 1_555
Co2 O4 1_555 1_555
Co3 O1 1_555 1_555
Co4 O2 1_555 1_555
O1 C1 1_555 1_555
C1 H1 1_555 1_555
O2 C1 1_555 1_555
O3 Co1 1_555 1_555
C2 O3 1_555 1_555
H2 C2 1_555 1_555
O4 C2 1_555 1_555
O5 Co1 1_555 1_555
C3 O5 1_555 1_555
H3 C3 1_555 1_555
O6 C3 1_555 1_555
O7 Co1 1_555 1_555
C4 O7 1_555 1_555
H4 C4 1_555 1_555
O8 Co3 1_555 1_555
O9 Co1 1_555 1_555
C5 O9 1_555 1_555
H5 C5 1_555 1_555
O10 Co4 1_555 1_555
O11 Co1 1_555 1_555
C6 O11 1_555 1_555
H6 C6 1_555 1_555
O12 Co3 1_555 1_555
C7 O15 1_555 1_555
O16 C7 1_555 1_555
Co1B O1B 1_555 1_555
Co1A O5A 1_555 1_555
Co1B_2 O3B 1_555 1_555
Co2B O4B_2 1_555 1_555
Co2A O6 1_555 1_555
Co2C O9B 1_555 1_555
Co2A_2 O5A 1_555 1_555
Co2B_2 O4B 1_555 1_555
Co4_2 O2B 1_555 1_555
Co4C O10A 1_555 1_555
O1B Co3 1_555 1_555
C1B O1B 1_555 1_555
H1B C1B 1_555 1_555
O2B C1B 1_555 1_555
O2B_2 Co4 1_555 1_555
O3B Co4 1_555 1_555
O3B_2 Co1B 1_555 1_555
C2B O3B 1_555 1_555
H2B C2B 1_555 1_555
O4B C2B 1_555 1_555
O5A C3A 1_555 1_555
O5B Co1B 1_555 1_555
C3A H3A 1_555 1_555
O6A Co2 1_555 1_555
O6C Co2B 1_555 1_555
O7B Co1B 1_555 1_555
C4B O7B 1_555 1_555
H4B C4B 1_555 1_555
O8B Co3 1_555 1_555
O9A Co2 1_555 1_555
O9B Co1B 1_555 1_555
O9C Co2B 1_555 1_555
C5A O9A 1_555 1_555
H5A C5A 1_555 1_555
O10A C5A 1_555 1_555
O10B Co4 1_555 1_555
O11B Co1B 1_555 1_555
O11A Co2 1_555 1_555
O11C Co2B 1_555 1_555
C6B O11B 1_555 1_555
H6B C6B 1_555 1_555
O12B Co3 1_555 1_555
Co2 O5 1_555 1_555
Co2 O7 1_555 1_555
Co4 O3 1_555 1_555
C4 O8 1_555 1_555
O9 Co2A 1_555 1_555
C5 O10 1_555 1_555
O11 Co2A 1_555 1_555
C6 O12 1_555 1_555
Co1A O9A 1_555 1_555
Co1A O11A 1_555 1_555
Co2B O5B 1_555 1_555
Co2B O7B 1_555 1_555
Co2C O11B 1_555 1_555
Co4_2 O3B_2 1_555 1_555
C3A O6A 1_555 1_555
C4B O8B 1_555 1_555
C6B O12B 1_555 1_555

#END
