
#######################################################################
#
#                 Cambridge Crystallographic Data Centre
#                                CCDC 
#
#######################################################################
#
# If this CIF has been generated from an entry in the Cambridge 
# Structural Database, then it will include bibliographic, chemical, 
# crystal, experimental, refinement or atomic coordinate data resulting 
# from the CCDC's data processing and validation procedures.
#
#######################################################################

data_FISXEM
_chemical_formula_moiety         'C17 Cd5 O9'
_symmetry_cell_setting           hexagonal
_symmetry_space_group_name_H-M   'P 65 2 2'
_symmetry_Int_Tables_number      179
_space_group_name_Hall           'P 65 2 (0 0 1)'
loop_
_symmetry_equiv_pos_site_id
_symmetry_equiv_pos_as_xyz
1 x,y,z
2 -y,x-y,2/3+z
3 -x+y,-x,1/3+z
4 -x,-y,1/2+z
5 y,-x+y,1/6+z
6 x-y,x,5/6+z
7 y,x,2/3-z
8 x-y,-y,-z
9 -x,-x+y,1/3-z
10 -y,-x,1/6-z
11 -x+y,y,1/2-z
12 x,x-y,5/6-z
_cell_length_a                   22.4022(6)
_cell_length_b                   22.4022(6)
_cell_length_c                   9.1637(3)
_cell_angle_alpha                90
_cell_angle_beta                 90
_cell_angle_gamma                120
_cell_volume                     3982.75
loop_
_atom_site_label
_atom_site_type_symbol
_atom_site_fract_x
_atom_site_fract_y
_atom_site_fract_z
_atom_site_U_iso_or_equiv
_atom_site_thermal_displace_type
Cd1 Cd 0.303849(15) 0.696151(15) 0.5833 0.1191 Uani
O1 O 0.3392(4) 0.6144(4) 0.4908(5) 0.2349 Uani
O2 O 0.2404(5) 0.7596(5) 0.5833 0.4051 Uani
C1 C 0.37744(19) 0.62256(19) 0.5833 0.1386 Uani
O3 O 0.5765(8) 0.3768(5) 0.4848(6) 0.2433 Uani
C2 C 0.5862(5) 0.4138(3) 0.5833 0.2046 Uani
C3 C 0.4754(10) 0.5930(13) 0.6255(18) 0.2953 Uani
C4 C 0.5131(7) 0.5562(7) 0.588(2) 0.1926 Uani
C5 C 0.5749(8) 0.5747(6) 0.6586(18) 0.2778 Uani
C6 C 0.6041(5) 0.5328(6) 0.6477(17) 0.4711 Uani
C7 C 0.5715(6) 0.4724(5) 0.5663(16) 0.1522 Uani
C8 C 0.5097(6) 0.4539(6) 0.4957(16) 0.2700 Uani
C9 C 0.4805(5) 0.4958(7) 0.5066(19) 0.2071 Uani
C10 C 0.4157(3) 0.5843(3) 0.5833 0.2429 Uani
O1I O 0.3856(4) 0.6608(4) 0.6759(5) 0.2349 Uani
O3I O 0.6232(5) 0.4235(8) 0.6819(6) 0.2433 Uani
C3I C 0.4070(13) 0.5246(10) 0.5412(18) 0.2953 Uani
C4I C 0.4438(7) 0.4869(7) 0.579(2) 0.1926 Uani
C5I C 0.4253(6) 0.4251(8) 0.5081(18) 0.2778 Uani
C6I C 0.4672(6) 0.3959(5) 0.5190(17) 0.4711 Uani
C7I C 0.5276(5) 0.4285(6) 0.6004(16) 0.1522 Uani
C8I C 0.5461(6) 0.4903(6) 0.6710(16) 0.2700 Uani
C9I C 0.5042(7) 0.5195(5) 0.6601(19) 0.2071 Uani
Cd1A Cd 0.303849(15) 0.607698(21) 0.2500 0.1191 Uani
Cd1B Cd 0.392302(21) 0.696151(15) 0.9166 0.1191 Uani
Cd1D Cd 0.696151(15) 0.392302(21) 0.7500 0.1191 Uani
Cd1E Cd 0.607698(21) 0.303849(15) 0.4166 0.1191 Uani
O1B O 0.2752(6) 0.6608(4) 0.8241(5) 0.2349 Uani
O1K O 0.3392(4) 0.7248(6) 0.3425(5) 0.2349 Uani
O3D O 0.3768(5) 0.8003(9) 0.6515(6) 0.2433 Uani
O3G O 0.1997(9) 0.6232(5) 0.5152(6) 0.2433 Uani
loop_
_atom_site_aniso_label
_atom_site_aniso_U_11
_atom_site_aniso_U_22
_atom_site_aniso_U_33
_atom_site_aniso_U_23
_atom_site_aniso_U_13
_atom_site_aniso_U_12
Cd1 0.1373(3) 0.1373(3) 0.0720(3) -0.0048(2) -0.0048(2) 0.0607(3)
O1 0.310(8) 0.431(11) 0.086(3) -0.044(4) -0.058(4) 0.277(8)
O2 0.412(17) 0.412(17) 0.41(2) 0.09(2) 0.09(2) 0.22(2)
C1 0.200(6) 0.200(6) 0.069(4) 0.003(5) 0.003(5) 0.140(6)
O3 0.355 0.392 0.142 -0.052 -0.038 0.306
C2 0.334 0.334 0.071 -0.03 -0.03 0.261
C3 0.38(4) 0.38(4) 0.126(15) -0.023(16) -0.095(19) 0.19(3)
C4 0.25(2) 0.22(2) 0.191(15) 0.03(2) 0.02(2) 0.18(2)
C5 0.37(4) 0.38(4) 0.22(2) 0.07(3) 0.04(3) 0.29(3)
C6 0.63(7) 0.98(11) 0.24(3) 0.27(5) 0.21(4) 0.73(9)
C7 0.192(14) 0.138(10) 0.118(10) 0.004(9) 0.018(10) 0.076(11)
C8 0.37(3) 0.37(4) 0.25(3) -0.07(2) -0.10(2) 0.32(4)
C9 0.138(16) 0.158(13) 0.28(2) -0.024(14) -0.047(15) 0.040(12)
C10 0.260(13) 0.260(13) 0.246(19) -0.070(14) -0.070(14) 0.158(14)
O1I 0.431 0.31 0.086 -0.058 -0.044 0.277
O3I 0.392 0.355 0.142 -0.038 -0.052 0.306
C3I 0.38 0.38 0.126 -0.095 -0.023 0.19
C4I 0.22 0.25 0.191 0.02 0.03 0.18
C5I 0.38 0.37 0.22 0.04 0.07 0.29
C6I 0.98 0.63 0.24 0.21 0.27 0.73
C7I 0.138 0.192 0.118 0.018 0.004 0.076
C8I 0.37 0.37 0.25 -0.1 -0.07 0.32
C9I 0.158 0.138 0.28 -0.047 -0.024 0.04
Cd1A 0.1373 0.1532 0.072 0 0.0048 0.0766
Cd1B 0.1532 0.1373 0.072 0.0048 0 0.0766
Cd1D 0.1373 0.1532 0.072 0 -0.0048 0.0766
Cd1E 0.1532 0.1373 0.072 -0.0048 0 0.0766
O1B 0.187 0.31 0.086 0.058 0.014 0.033
O1K 0.31 0.187 0.086 0.014 0.058 0.033
O3D 0.392 0.135 0.142 -0.014 -0.052 0.086
O3G 0.135 0.392 0.142 -0.052 -0.014 0.086
loop_
_geom_bond_atom_site_label_1
_geom_bond_atom_site_label_2
_geom_bond_site_symmetry_1
_geom_bond_site_symmetry_2
Cd1 O1 1_555 1_555
O1 C1 1_555 1_555
O2 Cd1 1_555 1_555
C1 C10 1_555 1_555
O3 C2 1_555 1_555
C2 C7 1_555 1_555
C3 C4 1_555 1_555
C4 C5 1_555 1_555
C5 C6 1_555 1_555
C6 C7 1_555 1_555
C7 C8 1_555 1_555
C8 C9 1_555 1_555
C9 C4 1_555 1_555
C10 C3 1_555 1_555
O1I Cd1 1_555 1_555
O3I C2 1_555 1_555
C3I C3 1_555 1_555
C4I C4 1_555 1_555
C5I C8 1_555 1_555
C6I C8 1_555 1_555
C7I C2 1_555 1_555
C8I C5 1_555 1_555
C9I C4 1_555 1_555
Cd1A O1 1_555 1_555
Cd1B O1I 1_555 1_555
Cd1D O3I 1_555 1_555
Cd1E O3 1_555 1_555
O1B Cd1 1_555 1_555
O1K Cd1 1_555 1_555
O3D Cd1 1_555 1_555
O3G Cd1 1_555 1_555
C1 O1I 1_555 1_555
C5 C9I 1_555 1_555
C6 C8I 1_555 1_555
C7 C7I 1_555 1_555
C7 C8I 1_555 1_555
C8 C7I 1_555 1_555
C8 C8I 1_555 1_555
C9 C4I 1_555 1_555
C9 C5I 1_555 1_555
C9 C9I 1_555 1_555
C10 C3I 1_555 1_555
C3I C4I 1_555 1_555
C4I C5I 1_555 1_555
C4I C9I 1_555 1_555
C5I C6I 1_555 1_555
C6I C7I 1_555 1_555
C7I C8I 1_555 1_555
C8I C9I 1_555 1_555
Cd1A O1K 1_555 1_555
Cd1B O1B 1_555 1_555

#END
