
#######################################################################
#
#                 Cambridge Crystallographic Data Centre
#                                CCDC 
#
#######################################################################
#
# If this CIF has been generated from an entry in the Cambridge 
# Structural Database, then it will include bibliographic, chemical, 
# crystal, experimental, refinement or atomic coordinate data resulting 
# from the CCDC's data processing and validation procedures.
#
#######################################################################

data_ZEDROR
_chemical_formula_moiety         '(C33 H38 N6 O10 Zn2)n'
_symmetry_cell_setting           monoclinic
_symmetry_space_group_name_H-M   'P 21/n'
_symmetry_Int_Tables_number      14
_space_group_name_Hall           '-P 2yn'
loop_
_symmetry_equiv_pos_site_id
_symmetry_equiv_pos_as_xyz
1 x,y,z
2 1/2-x,1/2+y,1/2-z
3 -x,-y,-z
4 1/2+x,1/2-y,1/2+z
_cell_length_a                   18.232(3)
_cell_length_b                   10.8471(17)
_cell_length_c                   18.894(3)
_cell_angle_alpha                90
_cell_angle_beta                 108.711(3)
_cell_angle_gamma                90
_cell_volume                     3539.08
loop_
_atom_site_label
_atom_site_type_symbol
_atom_site_fract_x
_atom_site_fract_y
_atom_site_fract_z
Zn1 Zn 0.31637(2) 0.19518(4) 0.02802(2)
Zn2 Zn 0.21126(2) 0.19397(4) 0.12507(2)
C1 C 0.6080(2) 0.4286(4) -0.2989(3)
H1 H 0.6146 0.5076 -0.3176
C2 C 0.5680(3) 0.4035(4) -0.2517(3)
H2 H 0.5411 0.4614 -0.2314
C3 C 0.6160(2) 0.2313(4) -0.2777(2)
C4 C 0.6360(3) 0.0987(4) -0.2776(3)
H3 H 0.6675 0.0856 -0.3103
H4 H 0.6652 0.0729 -0.2267
H5 H 0.5883 0.0500 -0.2959
C5 C 0.5477(3) 0.2140(5) -0.1825(3)
H6 H 0.5924 0.1691 -0.1484
H7 H 0.5309 0.2759 -0.1524
C6 C 0.4822(3) 0.1234(5) -0.2144(3)
H8 H 0.4329 0.1692 -0.2347
H9 H 0.4914 0.0774 -0.2560
C7 C 0.4753(3) 0.0329(4) -0.1554(3)
H10 H 0.5243 -0.0140 -0.1360
H11 H 0.4334 -0.0266 -0.1789
C8 C 0.5129(2) 0.1457(5) -0.0322(2)
H12 H 0.5674 0.1474 -0.0222
C9 C 0.4734(2) 0.1936(4) 0.0109(2)
H13 H 0.4956 0.2356 0.0570
C10 C 0.3893(2) 0.1114(4) -0.0849(2)
C11 C 0.3159(3) 0.0637(6) -0.1392(3)
H14 H 0.2722 0.0867 -0.1224
H15 H 0.3087 0.0996 -0.1886
H16 H 0.3187 -0.0262 -0.1422
C12 C 0.1473(2) 0.2194(4) -0.0422(2)
C13 C 0.0787(2) 0.2426(4) -0.1100(2)
C14 C 0.0087(2) 0.2767(4) -0.1017(2)
H17 H 0.0050 0.2877 -0.0531
C15 C -0.0558(2) 0.2950(4) -0.1638(2)
H18 H -0.1039 0.3165 -0.1575
C16 C -0.0508(2) 0.2822(4) -0.2347(2)
C17 C -0.1217(2) 0.3019(3) -0.3020(2)
C18 C 0.0195(2) 0.2504(4) -0.2435(2)
H19 H 0.0236 0.2423 -0.2922
C19 C 0.0834(2) 0.2307(4) -0.1814(2)
H20 H 0.1313 0.2085 -0.1877
C20 C 0.2564(2) -0.0404(4) 0.0706(2)
C21 C 0.2572(2) -0.1779(4) 0.0698(2)
C22 C 0.2358(2) -0.2433(4) 0.1231(2)
H21 H 0.2170 -0.2010 0.1578
C23 C 0.2419(2) -0.3701(4) 0.1256(2)
H22 H 0.2279 -0.4148 0.1625
C24 C 0.2682(2) -0.4326(4) 0.0748(2)
C25 C 0.2727(2) -0.5708(4) 0.0767(2)
C26 C 0.2889(2) -0.3676(4) 0.0215(2)
H23 H 0.3069 -0.4105 -0.0135
C27 C 0.2837(2) -0.2408(4) 0.0186(2)
H24 H 0.2981 -0.1966 -0.0183
N1 N 0.63785(19) 0.3183(3) -0.31529(19)
N2 N 0.5733(2) 0.2787(3) -0.2385(2)
N3 N 0.4589(2) 0.0940(3) -0.0931(2)
N4 N 0.3959(2) 0.1716(3) -0.02288(19)
O1 O 0.21078(18) 0.2049(4) -0.05210(18)
O2 O 0.13529(17) 0.2155(3) 0.01860(16)
O3 O -0.18493(17) 0.3145(3) -0.29077(17)
O4 O -0.11130(18) 0.3034(3) -0.36389(16)
O5 O 0.21758(17) 0.0114(3) 0.10533(17)
O6 O 0.2971(2) 0.0124(3) 0.0375(2)
O7 O 0.24031(19) -0.6265(3) 0.11587(19)
O8 O 0.3076(2) -0.6212(3) 0.0372(2)
O4C O 0.38870(18) 0.1966(3) 0.13611(16)
O8_2 O 0.3076(2) 0.3788(3) 0.0372(2)
Zn2C Zn 0.71126(2) 0.30603(4) -0.37493(2)
Zn2C_2 Zn -0.28874(2) 0.30603(4) -0.37493(2)
Zn1C Zn -0.18363(2) 0.30482(4) -0.47198(2)
Zn2_2 Zn 0.21126(2) -0.80603(4) 0.12507(2)
Zn1_2 Zn 0.31637(2) -0.80482(4) 0.02802(2)
N1C N 0.13785(19) 0.1817(3) 0.18471(19)
O3C O 0.31507(17) 0.1855(3) 0.20923(17)
O7_2 O 0.24031(19) 0.3735(3) 0.11587(19)
C28 C 0.3840(7) -0.5283(10) -0.1517(7)
H25 H 0.4249 -0.4679 -0.1487
H26 H 0.3768 -0.5812 -0.1954
H27 H 0.3989 -0.5790 -0.1063
C29 C 0.2441(5) -0.5368(7) -0.1637(4)
H28 H 0.2005 -0.4811 -0.1681
H29 H 0.2535 -0.5877 -0.1188
H30 H 0.2318 -0.5901 -0.2078
C30 C 0.3121(4) -0.3426(6) -0.1586(3)
H31 H 0.2635 -0.3048 -0.1644
N5 N 0.3130(4) -0.4649(5) -0.1582(3)
O9 O 0.3663(3) -0.2731(5) -0.1524(3)
C31 C -0.1210(3) 0.1294(6) 0.1280(3)
H32 H -0.1245 0.0422 0.1307
C32 C -0.0549(3) 0.0965(5) 0.0372(3)
H33 H -0.0613 0.0100 0.0491
H34 H 0.0003 0.1144 0.0480
H35 H -0.0824 0.1115 -0.0158
C33 C -0.0803(4) 0.3063(5) 0.0725(3)
H36 H -0.1058 0.3494 0.1038
H37 H -0.1058 0.3282 0.0200
H38 H -0.0257 0.3304 0.0874
N6 N -0.0859(2) 0.1745(4) 0.0818(3)
O10 O -0.1490(3) 0.1894(4) 0.1671(3)
loop_
_geom_bond_atom_site_label_1
_geom_bond_atom_site_label_2
_geom_bond_site_symmetry_1
_geom_bond_site_symmetry_2
Zn1 N4 1_555 1_555
Zn2 O2 1_555 1_555
C1 H1 1_555 1_555
C2 C1 1_555 1_555
H2 C2 1_555 1_555
C3 C4 1_555 1_555
C4 H3 1_555 1_555
H4 C4 1_555 1_555
H5 C4 1_555 1_555
C5 H6 1_555 1_555
H7 C5 1_555 1_555
C6 C5 1_555 1_555
H8 C6 1_555 1_555
H9 C6 1_555 1_555
C7 C6 1_555 1_555
H10 C7 1_555 1_555
H11 C7 1_555 1_555
C8 H12 1_555 1_555
C9 C8 1_555 1_555
H13 C9 1_555 1_555
C10 C11 1_555 1_555
C11 H14 1_555 1_555
H15 C11 1_555 1_555
H16 C11 1_555 1_555
C12 C13 1_555 1_555
C13 C14 1_555 1_555
C14 H17 1_555 1_555
C15 C14 1_555 1_555
H18 C15 1_555 1_555
C16 C15 1_555 1_555
C17 C16 1_555 1_555
C18 C16 1_555 1_555
H19 C18 1_555 1_555
C19 C13 1_555 1_555
H20 C19 1_555 1_555
C20 C21 1_555 1_555
C21 C22 1_555 1_555
C22 H21 1_555 1_555
C23 C22 1_555 1_555
H22 C23 1_555 1_555
C24 C23 1_555 1_555
C25 C24 1_555 1_555
C26 C24 1_555 1_555
H23 C26 1_555 1_555
C27 C21 1_555 1_555
H24 C27 1_555 1_555
C28 H25 1_555 1_555
H26 C28 1_555 1_555
H27 C28 1_555 1_555
C29 H28 1_555 1_555
H29 C29 1_555 1_555
H30 C29 1_555 1_555
C30 H31 1_555 1_555
C31 H32 1_555 1_555
C32 H33 1_555 1_555
H34 C32 1_555 1_555
H35 C32 1_555 1_555
C33 H36 1_555 1_555
H37 C33 1_555 1_555
H38 C33 1_555 1_555
N1 C1 1_555 1_555
N2 C2 1_555 1_555
N3 C7 1_555 1_555
N4 C9 1_555 1_555
N5 C28 1_555 1_555
N6 C31 1_555 1_555
O1 Zn1 1_555 1_555
O2 C12 1_555 1_555
O3 C17 1_555 1_555
O4 C17 1_555 1_555
O5 Zn2 1_555 1_555
O6 Zn1 1_555 1_555
O7 C25 1_555 1_555
O8 C25 1_555 1_555
O9 C30 1_555 1_555
O10 C31 1_555 1_555
O4C Zn1 1_555 1_555
O8_2 Zn1 1_555 1_555
Zn2C N1 1_555 1_555
Zn2C_2 O3 1_555 1_555
Zn1C O4 1_555 1_555
Zn2_2 O7 1_555 1_555
Zn1_2 O8 1_555 1_555
N1C Zn2 1_555 1_555
O3C Zn2 1_555 1_555
O7_2 Zn2 1_555 1_555
C3 N2 1_555 1_555
C3 N1 1_555 1_555
C5 N2 1_555 1_555
C8 N3 1_555 1_555
C10 N4 1_555 1_555
C10 N3 1_555 1_555
C12 O1 1_555 1_555
C18 C19 1_555 1_555
C20 O5 1_555 1_555
C20 O6 1_555 1_555
C26 C27 1_555 1_555
C29 N5 1_555 1_555
C30 N5 1_555 1_555
C32 N6 1_555 1_555
C33 N6 1_555 1_555

#END
