
#######################################################################
#
#                 Cambridge Crystallographic Data Centre
#                                CCDC 
#
#######################################################################
#
# If this CIF has been generated from an entry in the Cambridge 
# Structural Database, then it will include bibliographic, chemical, 
# crystal, experimental, refinement or atomic coordinate data resulting 
# from the CCDC's data processing and validation procedures.
#
#######################################################################

data_HOXSIY
_chemical_formula_moiety         '(C34 H31 N1 O17 Zn3)n'
_symmetry_cell_setting           monoclinic
_symmetry_space_group_name_H-M   'P 21'
_symmetry_Int_Tables_number      4
_space_group_name_Hall           'P 2yb'
loop_
_symmetry_equiv_pos_site_id
_symmetry_equiv_pos_as_xyz
1 x,y,z
2 -x,1/2+y,-z
_cell_length_a                   7.794(2)
_cell_length_b                   17.524(2)
_cell_length_c                   13.763(2)
_cell_angle_alpha                90
_cell_angle_beta                 101.393(18)
_cell_angle_gamma                90
_cell_volume                     1842.74
loop_
_atom_site_label
_atom_site_type_symbol
_atom_site_fract_x
_atom_site_fract_y
_atom_site_fract_z
Zn1 Zn -1.28870(9) -0.03721(4) -1.00256(6)
Zn2 Zn -1.57067(10) -0.09169(4) -0.84609(5)
Zn3 Zn -1.04030(10) 0.02325(4) -1.17407(5)
C1 C -1.4765(7) 0.1507(3) -0.8534(4)
C2 C -1.4480(8) 0.2046(4) -0.9213(4)
H1 H -1.4258 0.1893 -0.9823
C3 C -1.4523(8) 0.2822(3) -0.8988(4)
C4 C -1.4827(8) 0.3056(3) -0.8073(4)
H2 H -1.4852 0.3574 -0.7928
C5 C -1.5097(8) 0.2511(3) -0.7360(4)
C6 C -1.5134(8) 0.1734(4) -0.7617(4)
H3 H -1.5404 0.1370 -0.7180
C7 C -1.4699(8) 0.0671(3) -0.8784(5)
C8 C -1.4376(8) 0.3402(4) -0.9758(4)
C9 C -1.5392(8) 0.2786(3) -0.6371(4)
C10 C -1.6359(8) 0.3476(3) -0.6303(4)
H4 H -1.6845 0.3747 -0.6871
C11 C -1.6554(8) 0.3726(3) -0.5396(5)
H5 H -1.7212 0.4164 -0.5361
C12 C -1.5820(8) 0.3359(4) -0.4525(4)
C13 C -1.4838(9) 0.2699(4) -0.4601(5)
H6 H -1.4294 0.2447 -0.4028
C14 C -1.4667(9) 0.2419(4) -0.5505(5)
H7 H -1.4045 0.1969 -0.5534
C15 C -1.5986(9) 0.3693(4) -0.3535(5)
C16 C -1.0467(8) -0.2220(3) -1.1361(4)
C17 C -1.0414(8) -0.2789(3) -1.0660(4)
H8 H -1.0629 -0.2675 -1.0035
C18 C -1.0035(8) -0.3534(3) -1.0899(4)
C19 C -0.9822(8) -0.3713(3) -1.1854(4)
H9 H -0.9652 -0.4219 -1.2017
C20 C -0.9858(8) -0.3148(3) -1.2573(4)
C21 C -1.0125(8) -0.2386(3) -1.2276(4)
H10 H -1.0066 -0.1990 -1.2717
C22 C -1.0937(8) -0.1399(3) -1.1130(4)
C23 C -0.9794(8) -0.4147(4) -1.0130(4)
C24 C -0.9650(8) -0.3342(3) -1.3591(4)
C25 C -0.8775(8) -0.3989(3) -1.3802(4)
H11 H -0.8217 -0.4298 -1.3286
C26 C -0.8716(8) -0.4185(4) -1.4769(5)
H12 H -0.8172 -0.4637 -1.4891
C27 C -0.9445(8) -0.3724(4) -1.5554(5)
C28 C -1.0290(9) -0.3042(4) -1.5337(5)
H13 H -1.0773 -0.2715 -1.5851
C29 C -1.0402(9) -0.2860(4) -1.4395(5)
H14 H -1.0977 -0.2416 -1.4273
C30 C -0.9398(10) -0.3918(5) -1.6615(5)
O1 O -1.5335(6) 0.0183(3) -0.8293(3)
O2 O -0.7686(6) 0.0181(3) -1.1537(4)
H15 H -0.7096 0.0053 -1.1969
H16 H -0.7531 0.0661 -1.1494
O3 O -1.3948(6) 0.0526(2) -0.9509(3)
O4 O -1.2638(6) -0.0992(3) -0.8533(3)
H17 H -1.2370 -0.1063 -0.7910
H18 H -1.1893 -0.1312 -0.8659
O5 O -1.4024(7) 0.3197(3) -1.0573(3)
O6 O -1.3303(6) 0.0232(3) -1.1520(3)
H19 H -1.3726 0.0707 -1.1490
H20 H -1.4011 -0.0035 -1.1996
O7 O -1.4635(5) 0.4109(3) -0.9592(3)
O8 O -1.8304(7) -0.0808(4) -0.8475(5)
H21 H -1.8912 -0.1025 -0.8107
H22 H -1.9192 -0.0607 -0.8845
O9 O -1.7275(7) 0.4088(4) -0.3464(3)
O10 O -1.4736(6) 0.3536(3) -0.2811(3)
O11 O -1.1700(6) -0.1305(2) -1.0426(3)
O12 O -1.0545(6) -0.0904(3) -1.1689(3)
O13 O -0.9845(7) -0.3946(3) -0.9258(3)
O14 O -0.9548(6) -0.4826(2) -1.0360(3)
O15 O -0.9082(6) -0.4588(3) -1.6824(3)
O16 O -0.9626(13) -0.3397(4) -1.7250(5)
Zn1A Zn -1.71130(9) 0.46279(4) -0.99744(6)
Zn1A_2 Zn -0.71130(9) -0.53721(4) -0.99744(6)
Zn2A Zn -1.42933(10) 0.40831(4) -1.15391(5)
Zn2A_2 Zn -1.42933(10) 0.40831(4) -0.15391(5)
Zn3A Zn -0.95970(10) -0.47675(4) -1.82593(5)
Zn3A_2 Zn -0.95970(10) -0.47675(4) -0.82593(5)
O5A O -1.5976(7) -0.1803(3) -0.9427(3)
O7A O -1.5365(5) -0.0891(3) -1.0408(3)
O10A O -1.5264(6) -0.1464(3) -0.7189(3)
O13A O -1.0155(7) 0.1054(3) -1.0742(3)
O14A O -1.0452(6) 0.0174(2) -0.9640(3)
O15A O -1.0918(6) 0.0412(3) -1.3176(3)
C31 C -1.2304(18) 0.4747(11) -0.4292(8)
H23 H -1.2988 0.5162 -0.4116
H24 H -1.1085 0.4845 -0.4041
H25 H -1.2637 0.4282 -0.4010
C32 C -1.1572(13) 0.4008(6) -0.5803(10)
H26 H -1.1886 0.4002 -0.6513
H27 H -1.1867 0.3526 -0.5547
H28 H -1.0337 0.4095 -0.5603
C33 C -1.3607(16) 0.4985(7) -0.6072(9)
C34 C -1.4583(16) 0.5709(8) -0.5713(13)
H29 H -1.5334 0.5938 -0.6274
H30 H -1.3729 0.6075 -0.5407
H31 H -1.5270 0.5546 -0.5244
O17 O -1.3893(8) 0.4850(4) -0.6947(5)
N1 N -1.2615(12) 0.4674(7) -0.5379(7)
loop_
_geom_bond_atom_site_label_1
_geom_bond_atom_site_label_2
_geom_bond_site_symmetry_1
_geom_bond_site_symmetry_2
Zn1 O3 1_555 1_555
Zn2 O1 1_555 1_555
Zn3 O2 1_555 1_555
C1 C2 1_555 1_555
C2 H1 1_555 1_555
C3 C2 1_555 1_555
C4 C3 1_555 1_555
H2 C4 1_555 1_555
C5 C4 1_555 1_555
C6 C1 1_555 1_555
H3 C6 1_555 1_555
C7 C1 1_555 1_555
C8 C3 1_555 1_555
C9 C5 1_555 1_555
C10 C9 1_555 1_555
H4 C10 1_555 1_555
C11 C10 1_555 1_555
H5 C11 1_555 1_555
C12 C11 1_555 1_555
C13 C12 1_555 1_555
H6 C13 1_555 1_555
C14 C9 1_555 1_555
H7 C14 1_555 1_555
C15 C12 1_555 1_555
C16 C17 1_555 1_555
C17 H8 1_555 1_555
C18 C17 1_555 1_555
C19 C18 1_555 1_555
H9 C19 1_555 1_555
C20 C19 1_555 1_555
C21 C16 1_555 1_555
H10 C21 1_555 1_555
C22 C16 1_555 1_555
C23 C18 1_555 1_555
C24 C20 1_555 1_555
C25 C24 1_555 1_555
H11 C25 1_555 1_555
C26 C25 1_555 1_555
H12 C26 1_555 1_555
C27 C26 1_555 1_555
C28 C27 1_555 1_555
H13 C28 1_555 1_555
C29 C24 1_555 1_555
H14 C29 1_555 1_555
C30 C27 1_555 1_555
O1 C7 1_555 1_555
O2 H15 1_555 1_555
H16 O2 1_555 1_555
O3 C7 1_555 1_555
O4 Zn1 1_555 1_555
H17 O4 1_555 1_555
H18 O4 1_555 1_555
O5 C8 1_555 1_555
O6 Zn1 1_555 1_555
H19 O6 1_555 1_555
H20 O6 1_555 1_555
O7 C8 1_555 1_555
O8 Zn2 1_555 1_555
H21 O8 1_555 1_555
H22 O8 1_555 1_555
O9 C15 1_555 1_555
O10 C15 1_555 1_555
O11 Zn1 1_555 1_555
O12 Zn3 1_555 1_555
O13 C23 1_555 1_555
O14 C23 1_555 1_555
O15 C30 1_555 1_555
O16 C30 1_555 1_555
C31 H23 1_555 1_555
H24 C31 1_555 1_555
H25 C31 1_555 1_555
C32 H26 1_555 1_555
H27 C32 1_555 1_555
H28 C32 1_555 1_555
C33 C34 1_555 1_555
C34 H29 1_555 1_555
H30 C34 1_555 1_555
H31 C34 1_555 1_555
O17 C33 1_555 1_555
N1 C31 1_555 1_555
Zn1A O7 1_555 1_555
Zn1A_2 O14 1_555 1_555
Zn2A O5 1_555 1_555
Zn2A_2 O10 1_555 1_555
Zn3A O15 1_555 1_555
Zn3A_2 O13 1_555 1_555
O5A Zn2 1_555 1_555
O7A Zn1 1_555 1_555
O10A Zn2 1_555 1_555
O13A Zn3 1_555 1_555
O14A Zn1 1_555 1_555
O15A Zn3 1_555 1_555
Zn2 O4 1_555 1_555
Zn3 O6 1_555 1_555
C5 C6 1_555 1_555
C13 C14 1_555 1_555
C20 C21 1_555 1_555
C22 O11 1_555 1_555
C22 O12 1_555 1_555
C28 C29 1_555 1_555
C32 N1 1_555 1_555
C33 N1 1_555 1_555

#END
