
#######################################################################
#
#                 Cambridge Crystallographic Data Centre
#                                CCDC 
#
#######################################################################
#
# If this CIF has been generated from an entry in the Cambridge 
# Structural Database, then it will include bibliographic, chemical, 
# crystal, experimental, refinement or atomic coordinate data resulting 
# from the CCDC's data processing and validation procedures.
#
#######################################################################

data_MIZKAI
_chemical_formula_moiety         'C37 H41 Cd10 N8 O27 1+'
_symmetry_cell_setting           monoclinic
_symmetry_space_group_name_H-M   'C 2/c'
_symmetry_Int_Tables_number      15
_space_group_name_Hall           '-C 2yc'
loop_
_symmetry_equiv_pos_site_id
_symmetry_equiv_pos_as_xyz
1 x,y,z
2 1/2+x,1/2+y,z
3 -x,y,1/2-z
4 1/2-x,1/2+y,1/2-z
5 -x,-y,-z
6 1/2-x,1/2-y,-z
7 x,-y,1/2+z
8 1/2+x,1/2-y,1/2+z
_cell_length_a                   34.622(7)
_cell_length_b                   10.432(2)
_cell_length_c                   18.032(4)
_cell_angle_alpha                90
_cell_angle_beta                 100.950(4)
_cell_angle_gamma                90
_cell_volume                     6394.16
loop_
_atom_site_label
_atom_site_type_symbol
_atom_site_fract_x
_atom_site_fract_y
_atom_site_fract_z
N5 N 0.1401(8) 0.544(2) 0.6844(16)
H19 H 0.1286 0.5264 0.6364
H20 H 0.1263 0.6086 0.6999
C19 C 0.1811(8) 0.569(3) 0.6862(18)
H21 H 0.1788 0.6427 0.6537
H22 H 0.1938 0.5933 0.7363
H23 H 0.1963 0.5042 0.6673
C20 C 0.1298(8) 0.435(3) 0.7250(18)
H24 H 0.1022 0.4164 0.7191
H25 H 0.1430 0.3622 0.7083
H26 H 0.1405 0.4513 0.7772
N6 N 0.1046(8) 0.892(3) 0.5048(18)
O11 O 0.0660(13) 0.874(5) 0.595(2)
C21 C 0.0727(9) 0.925(4) 0.536(2)
H27 H 0.0556 0.9880 0.5127
C22 C 0.1328(10) 0.794(3) 0.5386(17)
C23 C 0.1123(9) 0.952(3) 0.4358(17)
H35 H 0.1041 0.9553 0.3819
H36 H 0.1371 0.9955 0.4500
H37 H 0.0930 0.9934 0.4593
H38 H 0.1415 0.7065 0.5438
H39 H 0.1129 0.8077 0.5684
H40 H 0.1546 0.8500 0.5558
O13 O 0.0945(16) 0.706(4) 0.732(3)
H43 H 0.1002 0.6900 0.7794
H44 H 0.0708 0.7305 0.7279
O15 O 0.0000 0.579(6) 0.2500
Cd1 Cd 0.148539(11) 0.32777(4) 0.46249(2)
Cd2 Cd 0.2500 0.2500 0.5000
O1 O 0.15555(16) 0.2059(6) 0.5638(3)
O2 O 0.21347(16) 0.1231(5) 0.5539(3)
O3 O 0.14966(18) -0.1920(5) 0.8692(3)
O4 O 0.2132(2) -0.2284(6) 0.8838(3)
O5 O 0.17244(14) 0.5208(4) 0.4182(3)
O6 O 0.20975(11) 0.4273(3) 0.5161(3)
C1 C 0.18393(18) 0.0541(6) 0.6552(4)
C2 C 0.1524(2) 0.0592(8) 0.6922(4)
C3 C 0.1532(2) -0.0159(8) 0.7556(4)
H1 H 0.1313 -0.0126 0.7810
C4 C 0.18326(19) -0.0966(7) 0.7826(4)
C5 C 0.2155(2) -0.0991(7) 0.7456(4)
C6 C 0.21488(19) -0.0259(7) 0.6824(4)
H2 H 0.2365 -0.0314 0.6561
C7 C 0.1840(2) 0.1336(6) 0.5859(4)
C8 C 0.1824(2) -0.1765(7) 0.8510(4)
C9 C 0.22701(18) 0.6396(6) 0.4830(4)
C10 C 0.22117(19) 0.7448(6) 0.4342(4)
C11 C 0.25681(19) 0.6475(6) 0.5491(4)
H4 H 0.2611 0.5755 0.5828
C12 C 0.20192(18) 0.5212(6) 0.4709(4)
C13 C 0.0368(2) 0.4619(8) 0.4898(5)
C14 C 0.0783(2) 0.4180(8) 0.4828(5)
N1 N 0.1207(7) 0.149(2) 0.6697(19)
H5 H 0.1145 0.2108 0.6236
H6 H 0.0963 0.1672 0.6922
H7 H 0.2369 -0.1585 0.7640
C15 C 0.0036(5) 0.3894(18) 0.4594(10)
C16 C 0.0333(5) 0.5729(18) 0.5287(11)
H12 H 0.0562 0.6227 0.5493
O7 O 0.0806(4) 0.3254(13) 0.4399(8)
O8 O 0.1074(4) 0.4781(13) 0.5159(8)
N3 N 0.0006(13) 0.284(3) 0.404(2)
H13 H -0.0221 0.2537 0.3838
H14 H 0.0215 0.2521 0.3920
N8 N 0.1941(4) 0.7400(12) 0.3634(7)
H41 H 0.1803 0.6679 0.3498
H42 H 0.1908 0.8087 0.3326
Cd1E Cd 0.351461(11) 0.17223(4) 0.53751(2)
Cd1F Cd 0.148539(11) -0.32777(4) 0.96249(2)
Cd1E_2 Cd 0.351461(11) 1.17223(4) 0.53751(2)
Cd1D Cd -0.148539(11) 0.67223(4) 0.53751(2)
Cd1C Cd 0.351461(11) 0.82777(4) 0.03751(2)
Cd2F Cd 0.2500 -0.2500 1.0000
Cd2_2 Cd 0.2500 1.2500 0.5000
Cd2F_2 Cd 0.2500 0.7500 0.0000
O1E O 0.34445(16) 0.2941(6) 0.4362(3)
O2E O 0.28653(16) 0.3769(5) 0.4461(3)
O3E O 0.35034(18) 0.6920(5) 0.1308(3)
O3F O 0.14966(18) 0.1920(5) 0.3692(3)
O3C O 0.35034(18) 0.3080(5) 0.6308(3)
O4E O 0.2868(2) 0.7284(6) 0.1162(3)
O4F O 0.2132(2) 0.2284(6) 0.3838(3)
O4C O 0.2868(2) 0.2716(6) 0.6162(3)
O5E O 0.32756(14) 0.9792(4) 0.5818(3)
O5E_2 O 0.32756(14) -0.0208(4) 0.5818(3)
O6E O 0.29025(11) 1.0727(3) 0.4839(3)
O6E_2 O 0.29025(11) 0.0727(3) 0.4839(3)
C1E C 0.31607(18) 0.4459(6) 0.3448(4)
C2E C 0.3476(2) 0.4408(8) 0.3078(4)
C3E C 0.3468(2) 0.5159(8) 0.2444(4)
H1E H 0.3687 0.5126 0.2190
C4E C 0.31674(19) 0.5966(7) 0.2174(4)
C5E C 0.2845(2) 0.5991(7) 0.2544(4)
C6E C 0.28512(19) 0.5259(7) 0.3176(4)
H2E H 0.2635 0.5314 0.3439
C7E C 0.3160(2) 0.3664(6) 0.4141(4)
C8E C 0.3176(2) 0.6765(7) 0.1490(4)
C9E C 0.27299(18) 0.8604(6) 0.5170(4)
C10E C 0.27883(19) 0.7552(6) 0.5658(4)
C11E C 0.24319(19) 0.8525(6) 0.4509(4)
H4E H 0.2389 0.9245 0.4172
C12E C 0.29808(18) 0.9788(6) 0.5291(4)
C13D C -0.0368(2) 0.5381(8) 0.5102(5)
C14D C -0.0783(2) 0.5820(8) 0.5172(5)
N1E N 0.3793(7) 0.351(2) 0.3303(19)
H5E H 0.3855 0.2892 0.3764
H6E H 0.4037 0.3328 0.3078
H7E H 0.2631 0.6585 0.2360
C15D C -0.0036(5) 0.6106(18) 0.5406(10)
C16D C -0.0333(5) 0.4271(18) 0.4713(11)
H12D H -0.0562 0.3773 0.4507
O7D O -0.0806(4) 0.6746(13) 0.5601(8)
O7E O 0.4194(4) 0.1746(13) 0.5601(8)
O8D O -0.1074(4) 0.5219(13) 0.4841(8)
O8E O 0.3926(4) 0.0219(13) 0.4841(8)
N3D N -0.0006(13) 0.716(3) 0.596(2)
H13D H 0.0221 0.7463 0.6162
H14D H -0.0215 0.7479 0.6080
N8E N 0.3059(4) 0.7600(12) 0.6366(7)
H41E H 0.3197 0.8321 0.6502
H42E H 0.3092 0.6913 0.6674
loop_
_geom_bond_atom_site_label_1
_geom_bond_atom_site_label_2
_geom_bond_site_symmetry_1
_geom_bond_site_symmetry_2
Cd1 O1 1_555 1_555
Cd2 O2 1_555 1_555
O1 C7 1_555 1_555
O2 C7 1_555 1_555
O3 C8 1_555 1_555
O4 C8 1_555 1_555
O5 Cd1 1_555 1_555
O6 Cd1 1_555 1_555
C1 C2 1_555 1_555
C2 C3 1_555 1_555
C3 H1 1_555 1_555
C4 C3 1_555 1_555
C5 C4 1_555 1_555
C6 C1 1_555 1_555
H2 C6 1_555 1_555
C7 C1 1_555 1_555
C8 C4 1_555 1_555
C9 C10 1_555 1_555
C10 N8 1_555 1_555
C11 C9 1_555 1_555
H4 C11 1_555 1_555
C12 O5 1_555 1_555
C13 C14 1_555 1_555
C14 O7 1_555 1_555
N1 C2 1_555 1_555
H5 N1 1_555 1_555
H6 N1 1_555 1_555
H7 C5 1_555 1_555
C15 C13 1_555 1_555
C16 C13 1_555 1_555
H12 C16 1_555 1_555
O7 Cd1 1_555 1_555
O8 Cd1 1_555 1_555
N3 C15 1_555 1_555
H13 N3 1_555 1_555
H14 N3 1_555 1_555
N5 H19 1_555 1_555
H20 N5 1_555 1_555
C19 N5 1_555 1_555
H21 C19 1_555 1_555
H22 C19 1_555 1_555
H23 C19 1_555 1_555
C20 N5 1_555 1_555
H24 C20 1_555 1_555
H25 C20 1_555 1_555
H26 C20 1_555 1_555
N6 C21 1_555 1_555
O11 C21 1_555 1_555
C21 H27 1_555 1_555
C22 N6 1_555 1_555
C23 N6 1_555 1_555
H35 C23 1_555 1_555
H36 C23 1_555 1_555
H37 C23 1_555 1_555
H38 C22 1_555 1_555
H39 C22 1_555 1_555
H40 C22 1_555 1_555
N8 H41 1_555 1_555
H42 N8 1_555 1_555
O13 H43 1_555 1_555
H44 O13 1_555 1_555
Cd1E O1E 1_555 1_555
Cd1F O3 1_555 1_555
Cd1E_2 O5E 1_555 1_555
Cd1D O7D 1_555 1_555
Cd1C O3E 1_555 1_555
Cd2F O4 1_555 1_555
Cd2_2 O6E 1_555 1_555
Cd2F_2 O4E 1_555 1_555
O1E C7E 1_555 1_555
O2E Cd2 1_555 1_555
O3E C8E 1_555 1_555
O3F Cd1 1_555 1_555
O3C Cd1E 1_555 1_555
O4E C8E 1_555 1_555
O4F Cd2 1_555 1_555
O4C Cd2 1_555 1_555
O5E C12E 1_555 1_555
O5E_2 Cd1E 1_555 1_555
O6E Cd1E_2 1_555 1_555
O6E_2 Cd2 1_555 1_555
C1E C2E 1_555 1_555
C2E C3E 1_555 1_555
C3E H1E 1_555 1_555
C4E C3E 1_555 1_555
C5E C4E 1_555 1_555
C6E C1E 1_555 1_555
H2E C6E 1_555 1_555
C7E O2E 1_555 1_555
C8E C4E 1_555 1_555
C9E C10E 1_555 1_555
C10E C11 1_555 1_555
C11E C10 1_555 1_555
H4E C11E 1_555 1_555
C12E O6E 1_555 1_555
C13D C14D 1_555 1_555
C14D O7D 1_555 1_555
N1E C2E 1_555 1_555
H5E N1E 1_555 1_555
H6E N1E 1_555 1_555
H7E C5E 1_555 1_555
C15D C16 1_555 1_555
C16D C15 1_555 1_555
H12D C16D 1_555 1_555
O7E Cd1E 1_555 1_555
O8D Cd1D 1_555 1_555
O8E Cd1E 1_555 1_555
N3D C15D 1_555 1_555
H13D N3D 1_555 1_555
H14D N3D 1_555 1_555
N8E C10E 1_555 1_555
H41E N8E 1_555 1_555
H42E N8E 1_555 1_555
Cd2 O6 1_555 1_555
O6 C12 1_555 1_555
C5 C6 1_555 1_555
C9 C12 1_555 1_555
C14 O8 1_555 1_555
Cd1E O6E_2 1_555 1_555
C1E C7E 1_555 1_555
C5E C6E 1_555 1_555
C9E C11E 1_555 1_555
C9E C12E 1_555 1_555
C13D C15D 1_555 1_555
C13D C16D 1_555 1_555
C14D O8D 1_555 1_555

#END
