
#######################################################################
#
#                 Cambridge Crystallographic Data Centre
#                                CCDC 
#
#######################################################################
#
# If this CIF has been generated from an entry in the Cambridge 
# Structural Database, then it will include bibliographic, chemical, 
# crystal, experimental, refinement or atomic coordinate data resulting 
# from the CCDC's data processing and validation procedures.
#
#######################################################################

data_DUZWOM
_chemical_formula_moiety         '(C19 H27 Mn6 N1 O25)n'
_symmetry_cell_setting           monoclinic
_symmetry_space_group_name_H-M   'P 21/n'
_symmetry_Int_Tables_number      14
_space_group_name_Hall           '-P 2yn'
loop_
_symmetry_equiv_pos_site_id
_symmetry_equiv_pos_as_xyz
1 x,y,z
2 1/2-x,1/2+y,1/2-z
3 -x,-y,-z
4 1/2+x,1/2-y,1/2+z
_cell_length_a                   11.7463(2)
_cell_length_b                   10.9570(2)
_cell_length_c                   15.8217(2)
_cell_angle_alpha                90
_cell_angle_beta                 91.7600(10)
_cell_angle_gamma                90
_cell_volume                     2035.36
loop_
_atom_site_label
_atom_site_type_symbol
_atom_site_fract_x
_atom_site_fract_y
_atom_site_fract_z
Mn1 Mn 0.0000 0.0000 0.0000
Mn2 Mn 0.25927(4) 0.04236(4) 0.13514(3)
Mn3 Mn 0.23982(4) -0.17167(4) 0.28587(3)
Mn4 Mn 0.5000 0.0000 0.0000
O1 O -0.0338(2) -0.0330(3) 0.13223(15)
O2 O 0.12985(17) -0.06084(19) 0.20287(13)
C1 C 0.0222(3) -0.0615(3) 0.1950(2)
H1 H -0.0188 -0.0867 0.2428
O3 O 0.0213(2) 0.1889(2) 0.02853(17)
O4 O 0.15740(18) 0.21211(19) 0.12804(14)
C2 C 0.0753(3) 0.2484(3) 0.0809(2)
H2 H 0.0534 0.3313 0.0870
O5 O 0.29994(18) 0.14129(19) 0.25711(13)
O6 O 0.3088(2) -0.0150(2) 0.34640(15)
C3 C 0.3179(3) 0.0942(3) 0.3303(2)
C4 C 0.3548(7) 0.1722(4) 0.4013(3)
H3 H 0.3337 0.1339 0.4546
H4 H 0.3178 0.2520 0.3959
H5 H 0.4377 0.1826 0.4009
O7 O 0.18748(17) -0.0282(2) 0.01742(13)
O8 O 0.3452(2) -0.0832(3) -0.04602(17)
C5 C 0.2419(3) -0.0808(3) -0.0397(2)
H6 H 0.1981 -0.1227 -0.0820
O9 O 0.40348(18) 0.12947(19) 0.07790(13)
O10 O 0.3963(2) 0.3190(2) 0.12803(17)
C6 C 0.4372(3) 0.2383(3) 0.0843(2)
H7 H 0.5008 0.2603 0.0520
O11 O 0.34983(18) -0.1248(2) 0.17851(14)
O12 O 0.5043(2) -0.1277(3) 0.10151(17)
C7 C 0.4425(3) -0.1720(3) 0.1549(2)
C8 C 0.4800(6) -0.2921(6) 0.1909(5)
H8 H 0.5423 -0.2791 0.2326
H9 H 0.5065 -0.3446 0.1453
H10 H 0.4159 -0.3314 0.2183
Mn2B Mn -0.25927(4) -0.04236(4) -0.13514(3)
Mn3B Mn -0.23982(4) 0.17167(4) -0.28587(3)
O1B O 0.0338(2) 0.0330(3) -0.13223(15)
O2B O -0.12985(17) 0.06084(19) -0.20287(13)
C1B C -0.0222(3) 0.0615(3) -0.1950(2)
H1B H 0.0188 0.0867 -0.2428
O3B O -0.0213(2) -0.1889(2) -0.02853(17)
O4B O -0.15740(18) -0.21211(19) -0.12804(14)
C2B C -0.0753(3) -0.2484(3) -0.0809(2)
H2B H -0.0534 -0.3313 -0.0870
O5B O -0.29994(18) -0.14129(19) -0.25711(13)
O6B O -0.3088(2) 0.0150(2) -0.34640(15)
C3B C -0.3179(3) -0.0942(3) -0.3303(2)
C4B C -0.3548(7) -0.1722(4) -0.4013(3)
H3B H -0.3337 -0.1339 -0.4546
H4B H -0.3178 -0.2520 -0.3959
H5B H -0.4377 -0.1826 -0.4009
O7B O -0.18748(17) 0.0282(2) -0.01742(13)
O8B O -0.3452(2) 0.0832(3) 0.04602(17)
C5B C -0.2419(3) 0.0808(3) 0.0397(2)
H6B H -0.1981 0.1227 0.0820
O9B O -0.40348(18) -0.12947(19) -0.07790(13)
O10B O -0.3963(2) -0.3190(2) -0.12803(17)
C6B C -0.4372(3) -0.2383(3) -0.0843(2)
H7B H -0.5008 -0.2603 -0.0520
O11B O -0.34983(18) 0.1248(2) -0.17851(14)
O12B O -0.5043(2) 0.1277(3) -0.10151(17)
C7B C -0.4425(3) 0.1720(3) -0.1549(2)
C8B C -0.4800(6) 0.2921(6) -0.1909(5)
H8B H -0.5423 0.2791 -0.2326
H9B H -0.5065 0.3446 -0.1453
H10B H -0.4159 0.3314 -0.2183
Mn3A Mn 0.26018(4) 0.32833(4) 0.21413(3)
Mn3C Mn -0.26018(4) -0.32833(4) -0.21413(3)
Mn4_2 Mn -0.5000 0.0000 0.0000
O4A O 0.34260(18) -0.28789(19) 0.37196(14)
O4C O -0.34260(18) 0.28789(19) -0.37196(14)
O5A O 0.20006(18) -0.35871(19) 0.24289(13)
O5C O -0.20006(18) 0.35871(19) -0.24289(13)
O8B_2 O 0.6548(2) 0.0832(3) 0.04602(17)
O9B_2 O 0.59652(18) -0.12947(19) -0.07790(13)
O10A O 0.1037(2) -0.1810(2) 0.37197(17)
O10C O -0.1037(2) 0.1810(2) -0.37197(17)
O12B_2 O 0.4957(2) 0.1277(3) -0.10151(17)
O13 O 0.812(3) -0.6235(17) 0.1628(16)
C9 C 0.756(3) -0.5424(19) 0.122(2)
H11 H 0.7012 -0.5541 0.0774
N1 N 0.7949(9) -0.4321(11) 0.1564(9)
C10 C 0.7790(13) -0.3160(18) 0.1083(13)
H12 H 0.8367 -0.3102 0.0650
H13 H 0.7868 -0.2467 0.1471
H14 H 0.7029 -0.3150 0.0810
C11 C 0.8531(17) -0.401(3) 0.2378(10)
H15 H 0.8209 -0.4501 0.2831
H16 H 0.8422 -0.3143 0.2499
H17 H 0.9347 -0.4186 0.2344
loop_
_geom_bond_atom_site_label_1
_geom_bond_atom_site_label_2
_geom_bond_site_symmetry_1
_geom_bond_site_symmetry_2
Mn1 O1 1_555 1_555
Mn2 O2 1_555 1_555
Mn3 O2 1_555 1_555
Mn4 O8 1_555 1_555
O1 C1 1_555 1_555
O2 C1 1_555 1_555
C1 H1 1_555 1_555
O3 Mn1 1_555 1_555
O4 Mn2 1_555 1_555
C2 O3 1_555 1_555
H2 C2 1_555 1_555
O5 Mn2 1_555 1_555
O6 Mn3 1_555 1_555
C3 O5 1_555 1_555
C4 C3 1_555 1_555
H3 C4 1_555 1_555
H4 C4 1_555 1_555
H5 C4 1_555 1_555
O7 Mn1 1_555 1_555
O8 C5 1_555 1_555
C5 O7 1_555 1_555
H6 C5 1_555 1_555
O9 Mn2 1_555 1_555
O10 C6 1_555 1_555
C6 O9 1_555 1_555
H7 C6 1_555 1_555
O11 Mn2 1_555 1_555
O12 Mn4 1_555 1_555
C7 O11 1_555 1_555
C8 C7 1_555 1_555
H8 C8 1_555 1_555
H9 C8 1_555 1_555
H10 C8 1_555 1_555
O13 C9 1_555 1_555
C9 H11 1_555 1_555
N1 C9 1_555 1_555
C10 N1 1_555 1_555
H12 C10 1_555 1_555
H13 C10 1_555 1_555
H14 C10 1_555 1_555
C11 N1 1_555 1_555
H15 C11 1_555 1_555
H16 C11 1_555 1_555
H17 C11 1_555 1_555
Mn2B O2B 1_555 1_555
Mn3B O2B 1_555 1_555
O1B Mn1 1_555 1_555
O2B C1B 1_555 1_555
C1B O1B 1_555 1_555
H1B C1B 1_555 1_555
O3B Mn1 1_555 1_555
O4B Mn2B 1_555 1_555
C2B O3B 1_555 1_555
H2B C2B 1_555 1_555
O5B Mn2B 1_555 1_555
O6B Mn3B 1_555 1_555
C3B O5B 1_555 1_555
C4B C3B 1_555 1_555
H3B C4B 1_555 1_555
H4B C4B 1_555 1_555
H5B C4B 1_555 1_555
O7B Mn1 1_555 1_555
O8B C5B 1_555 1_555
C5B O7B 1_555 1_555
H6B C5B 1_555 1_555
O9B Mn2B 1_555 1_555
O10B C6B 1_555 1_555
C6B O9B 1_555 1_555
H7B C6B 1_555 1_555
O11B Mn2B 1_555 1_555
O12B C7B 1_555 1_555
C7B O11B 1_555 1_555
C8B C7B 1_555 1_555
H8B C8B 1_555 1_555
H9B C8B 1_555 1_555
H10B C8B 1_555 1_555
Mn3A O4 1_555 1_555
Mn3C O4B 1_555 1_555
Mn4_2 O8B 1_555 1_555
O4A Mn3 1_555 1_555
O4C Mn3B 1_555 1_555
O5A Mn3 1_555 1_555
O5C Mn3B 1_555 1_555
O8B_2 Mn4 1_555 1_555
O9B_2 Mn4 1_555 1_555
O10A Mn3 1_555 1_555
O10C Mn3B 1_555 1_555
O12B_2 Mn4 1_555 1_555
Mn2 O7 1_555 1_555
Mn3 O11 1_555 1_555
Mn4 O9 1_555 1_555
O4 C2 1_555 1_555
O5 Mn3A 1_555 1_555
O6 C3 1_555 1_555
O10 Mn3A 1_555 1_555
O12 C7 1_555 1_555
Mn2B O7B 1_555 1_555
Mn3B O11B 1_555 1_555
O4B C2B 1_555 1_555
O5B Mn3C 1_555 1_555
O6B C3B 1_555 1_555
O9B Mn4_2 1_555 1_555
O10B Mn3C 1_555 1_555
O12B Mn4_2 1_555 1_555

#END
