
#######################################################################
#
#                 Cambridge Crystallographic Data Centre
#                                CCDC 
#
#######################################################################
#
# If this CIF has been generated from an entry in the Cambridge 
# Structural Database, then it will include bibliographic, chemical, 
# crystal, experimental, refinement or atomic coordinate data resulting 
# from the CCDC's data processing and validation procedures.
#
#######################################################################

data_BETDUB
_chemical_formula_moiety         '(C19 H17 Eu1 N2 O8)n'
_symmetry_cell_setting           monoclinic
_symmetry_space_group_name_H-M   'C 2/c'
_symmetry_Int_Tables_number      15
_space_group_name_Hall           '-C 2yc'
loop_
_symmetry_equiv_pos_site_id
_symmetry_equiv_pos_as_xyz
1 x,y,z
2 -x,y,1/2-z
3 1/2+x,1/2+y,z
4 1/2-x,1/2+y,1/2-z
5 -x,-y,-z
6 x,-y,1/2+z
7 1/2-x,1/2-y,-z
8 1/2+x,1/2-y,1/2+z
_cell_length_a                   29.255(2)
_cell_length_b                   12.6990(19)
_cell_length_c                   14.2602(10)
_cell_angle_alpha                90
_cell_angle_beta                 97.522(8)
_cell_angle_gamma                90
_cell_volume                     5252.21
loop_
_atom_site_label
_atom_site_type_symbol
_atom_site_fract_x
_atom_site_fract_y
_atom_site_fract_z
_atom_site_U_iso_or_equiv
_atom_site_thermal_displace_type
Eu1 Eu 0.814484(15) 0.19936(4) 0.54244(3) 0.0435 Uani
O1 O 0.8858(2) 0.1486(7) 0.4800(6) 0.0765 Uani
O2 O 0.8767(3) 0.3181(6) 0.4996(6) 0.0663 Uani
O3 O 1.2298(2) 0.6440(5) 0.4710(5) 0.0592 Uani
O4 O 1.2880(2) 0.5413(6) 0.4551(5) 0.0621 Uani
O5 O 1.2664(3) 0.3225(7) 0.1621(5) 0.0718 Uani
O6 O 1.1986(2) 0.2427(8) 0.1231(5) 0.0661 Uani
O7 O 0.8464(3) 0.0471(8) 0.6307(7) 0.0920 Uani
O8 O 0.8588(3) 0.2704(8) 0.6826(7) 0.0889 Uani
N1 N 1.0953(3) 0.3990(8) 0.3499(5) 0.0562 Uani
N2 N 0.8863(7) 0.3558(17) 0.8183(14) 0.1492 Uani
C1 C 0.8999(3) 0.2442(10) 0.4761(7) 0.0584 Uani
C2 C 0.9445(3) 0.2615(10) 0.4352(8) 0.0613 Uani
C3 C 0.9697(4) 0.1776(12) 0.4061(11) 0.0839 Uani
H1 H 0.9582 0.1095 0.4067 0.1010 Uiso
C4 C 1.0119(5) 0.1960(10) 0.3765(12) 0.0904 Uani
H2 H 1.0288 0.1395 0.3577 0.1090 Uiso
C5 C 1.0296(4) 0.2953(10) 0.3739(8) 0.0647 Uani
C6 C 1.0036(4) 0.3785(11) 0.4034(8) 0.0718 Uani
H3 H 1.0147 0.4470 0.4015 0.0860 Uiso
C7 C 0.9619(4) 0.3601(11) 0.4353(9) 0.0733 Uani
H4 H 0.9456 0.4159 0.4571 0.0880 Uiso
C8 C 1.0764(4) 0.3126(11) 0.3460(8) 0.0671 Uani
H5 H 1.088(4) 0.245(4) 0.336(9) 0.0810 Uiso
C9 C 1.2461(3) 0.5620(8) 0.4351(7) 0.0532 Uani
C10 C 1.2158(3) 0.4902(8) 0.3749(6) 0.0486 Uani
C11 C 1.1694(3) 0.4816(9) 0.3845(6) 0.0527 Uani
H6 H 1.1569 0.5246 0.4274 0.0630 Uiso
C12 C 1.1414(3) 0.4099(8) 0.3311(6) 0.0514 Uani
C13 C 1.1593(3) 0.3503(9) 0.2617(6) 0.0533 Uani
H7 H 1.1410 0.3019 0.2252 0.0640 Uiso
C14 C 1.2058(3) 0.3652(9) 0.2485(6) 0.0540 Uani
C15 C 1.2342(3) 0.4301(8) 0.3068(6) 0.0499 Uani
H8 H 1.2654 0.4341 0.3011 0.0600 Uiso
C16 C 1.2256(3) 0.3055(9) 0.1721(7) 0.0575 Uani
C17 C 0.8481(10) 0.3107(19) 0.758(2) 0.1443 Uani
C18 C 0.8656(9) 0.411(2) 0.8927(18) 0.1743 Uani
H9 H 0.8894 0.4440 0.9357 0.2610 Uiso
H10 H 0.8490 0.3620 0.9266 0.2610 Uiso
H11 H 0.8447 0.4643 0.8645 0.2610 Uiso
C19 C 0.9340(8) 0.372(2) 0.8023(18) 0.1693 Uani
H12 H 0.9510 0.4038 0.8573 0.2540 Uiso
H13 H 0.9348 0.4174 0.7487 0.2540 Uiso
H14 H 0.9477 0.3054 0.7903 0.2540 Uiso
Eu1A Eu 1.185516(15) 0.19936(4) -0.04244(3) 0.0435 Uani
Eu1B Eu 1.314484(15) 0.69936(4) 0.54244(3) 0.0435 Uani
Eu1D Eu 1.185516(15) 0.80064(4) 0.45756(3) 0.0435 Uani
Eu1G Eu 1.314484(15) 0.30064(4) 0.04244(3) 0.0435 Uani
O3B O 0.7298(2) 0.1440(5) 0.4710(5) 0.0592 Uani
O3D O 0.7702(2) 0.3560(5) 0.5290(5) 0.0592 Uani
O4B O 0.7880(2) 0.0413(6) 0.4551(5) 0.0621 Uani
O5G O 0.7664(3) 0.1775(7) 0.6621(5) 0.0718 Uani
O6A O 0.8014(2) 0.2427(8) 0.3769(5) 0.0661 Uani
loop_
_atom_site_aniso_label
_atom_site_aniso_U_11
_atom_site_aniso_U_22
_atom_site_aniso_U_33
_atom_site_aniso_U_23
_atom_site_aniso_U_13
_atom_site_aniso_U_12
Eu1 0.0309(3) 0.0643(4) 0.0362(3) 0.0036(2) 0.0082(2) -0.0011(2)
O1 0.046(4) 0.084(6) 0.105(6) 0.015(5) 0.031(4) -0.006(4)
O2 0.052(4) 0.075(5) 0.077(5) -0.017(4) 0.028(4) -0.018(3)
O3 0.053 0.046 0.084 -0.003 0.029 -0.001
O4 0.041 0.065 0.081 -0.008 0.011 -0.005
O5 0.053 0.106 0.06 -0.017 0.021 -0.006
O6 0.04 0.117 0.043 -0.008 0.012 -0.003
O7 0.090(4) 0.099(5) 0.085(4) 0.018(4) 0.004(4) 0.010(4)
O8 0.084(4) 0.102(4) 0.077(4) -0.001(4) -0.003(3) 0.000(4)
N1 0.039(4) 0.080(6) 0.051(4) -0.002(4) 0.011(3) -0.009(4)
N2 0.157(6) 0.150(7) 0.138(6) -0.012(5) 0.009(4) -0.010(5)
C1 0.039(5) 0.091(8) 0.048(5) 0.000(5) 0.016(4) -0.011(5)
C2 0.045(5) 0.081(7) 0.058(6) 0.002(6) 0.007(4) -0.013(5)
C3 0.055(7) 0.092(9) 0.112(11) -0.011(8) 0.038(7) -0.010(6)
C4 0.076(9) 0.078(9) 0.130(13) -0.029(8) 0.062(9) -0.028(6)
C5 0.047(6) 0.094(9) 0.056(6) -0.012(5) 0.018(5) -0.003(5)
C6 0.051(6) 0.084(8) 0.082(8) -0.003(6) 0.015(5) -0.009(5)
C7 0.051(6) 0.093(9) 0.079(7) -0.009(7) 0.020(5) 0.000(6)
C8 0.056(7) 0.089(9) 0.060(6) -0.008(6) 0.021(5) -0.004(6)
C9 0.032 0.069 0.061 0 0.015 -0.006
C10 0.041 0.053 0.054 -0.003 0.014 0.008
C11 0.04 0.075 0.045 -0.003 0.013 -0.001
C12 0.036 0.076 0.044 -0.003 0.012 0.001
C13 0.043 0.073 0.046 -0.006 0.014 -0.007
C14 0.041 0.078 0.043 -0.008 0.005 0
C15 0.036 0.071 0.045 0.008 0.014 -0.004
C16 0.038 0.098 0.037 -0.019 0.007 0
C17 0.148(7) 0.149(7) 0.137(7) -0.004(5) 0.023(5) -0.001(5)
C18 0.179(8) 0.176(8) 0.169(7) -0.009(5) 0.027(5) 0.000(5)
C19 0.165(7) 0.170(8) 0.173(8) -0.002(5) 0.023(5) -0.001(5)
Eu1A 0.0309 0.0643 0.0362 -0.0036 0.0082 0.0011
Eu1B 0.0309 0.0643 0.0362 0.0036 0.0082 -0.0011
Eu1D 0.0309 0.0643 0.0362 0.0036 0.0082 -0.0011
Eu1G 0.0309 0.0643 0.0362 -0.0036 0.0082 0.0011
O3B 0.053 0.046 0.084 -0.003 0.029 -0.001
O3D 0.053 0.046 0.084 -0.003 0.029 -0.001
O4B 0.041 0.065 0.081 -0.008 0.011 -0.005
O5G 0.053 0.106 0.06 0.017 0.021 0.006
O6A 0.04 0.117 0.043 0.008 0.012 0.003
loop_
_geom_bond_atom_site_label_1
_geom_bond_atom_site_label_2
_geom_bond_site_symmetry_1
_geom_bond_site_symmetry_2
Eu1 O1 1_555 1_555
O1 C1 1_555 1_555
O2 Eu1 1_555 1_555
O3 C9 1_555 1_555
O4 C9 1_555 1_555
O5 C16 1_555 1_555
O6 C16 1_555 1_555
O7 Eu1 1_555 1_555
O8 Eu1 1_555 1_555
N1 C8 1_555 1_555
N2 C17 1_555 1_555
C1 O2 1_555 1_555
C2 C1 1_555 1_555
C3 C2 1_555 1_555
H1 C3 1_555 1_555
C4 C3 1_555 1_555
H2 C4 1_555 1_555
C5 C4 1_555 1_555
C6 C5 1_555 1_555
H3 C6 1_555 1_555
C7 C2 1_555 1_555
H4 C7 1_555 1_555
C8 C5 1_555 1_555
H5 C8 1_555 1_555
C9 C10 1_555 1_555
C10 C11 1_555 1_555
C11 H6 1_555 1_555
C12 N1 1_555 1_555
C13 C12 1_555 1_555
H7 C13 1_555 1_555
C14 C13 1_555 1_555
C15 C10 1_555 1_555
H8 C15 1_555 1_555
C16 C14 1_555 1_555
C17 O8 1_555 1_555
C18 N2 1_555 1_555
H9 C18 1_555 1_555
H10 C18 1_555 1_555
H11 C18 1_555 1_555
C19 N2 1_555 1_555
H12 C19 1_555 1_555
H13 C19 1_555 1_555
H14 C19 1_555 1_555
Eu1A O6 1_555 1_555
Eu1B O3 1_555 1_555
Eu1D O3 1_555 1_555
Eu1G O5 1_555 1_555
O3B Eu1 1_555 1_555
O3D Eu1 1_555 1_555
O4B Eu1 1_555 1_555
O5G Eu1 1_555 1_555
O6A Eu1 1_555 1_555
O4 Eu1B 1_555 1_555
C6 C7 1_555 1_555
C11 C12 1_555 1_555
C14 C15 1_555 1_555

#END
