
#######################################################################
#
#                 Cambridge Crystallographic Data Centre
#                                CCDC 
#
#######################################################################
#
# If this CIF has been generated from an entry in the Cambridge 
# Structural Database, then it will include bibliographic, chemical, 
# crystal, experimental, refinement or atomic coordinate data resulting 
# from the CCDC's data processing and validation procedures.
#
#######################################################################

data_BETDIP
_chemical_formula_moiety         '(C19 H17 N2 O8 Tb1)n'
_symmetry_cell_setting           monoclinic
_symmetry_space_group_name_H-M   'C 2/c'
_symmetry_Int_Tables_number      15
_space_group_name_Hall           '-C 2yc'
loop_
_symmetry_equiv_pos_site_id
_symmetry_equiv_pos_as_xyz
1 x,y,z
2 -x,y,1/2-z
3 1/2+x,1/2+y,z
4 1/2-x,1/2+y,1/2-z
5 -x,-y,-z
6 x,-y,1/2+z
7 1/2-x,1/2-y,-z
8 1/2+x,1/2-y,1/2+z
_cell_length_a                   29.157(2)
_cell_length_b                   13.0903(12)
_cell_length_c                   13.9533(9)
_cell_angle_alpha                90
_cell_angle_beta                 97.576(6)
_cell_angle_gamma                90
_cell_volume                     5279.12
loop_
_atom_site_label
_atom_site_type_symbol
_atom_site_fract_x
_atom_site_fract_y
_atom_site_fract_z
_atom_site_U_iso_or_equiv
_atom_site_thermal_displace_type
Tb1 Tb 0.814461(10) 0.29771(3) 0.54105(2) 0.0326 Uani
O1 O 0.87609(17) 0.1807(4) 0.5001(4) 0.0497 Uani
O2 O 0.88509(17) 0.3453(5) 0.4757(4) 0.0574 Uani
O3 O 1.22912(15) -0.1485(4) 0.4675(3) 0.0400 Uani
O4 O 1.28871(15) -0.0492(4) 0.4544(4) 0.0439 Uani
O5 O 1.20003(15) 0.2535(4) 0.1255(3) 0.0408 Uani
O6 O 1.26715(16) 0.1713(5) 0.1611(4) 0.0563 Uani
O7 O 0.8558(2) 0.2286(6) 0.6836(5) 0.0858 Uani
O8 O 0.8500(2) 0.4417(5) 0.6337(4) 0.0792 Uani
N1 N 1.09554(18) 0.0939(5) 0.3527(4) 0.0436 Uani
N2 N 0.8823(4) 0.1393(9) 0.8178(8) 0.1364 Uani
C1 C 0.8988(2) 0.2537(7) 0.4732(5) 0.0440 Uani
C2 C 0.9444(2) 0.2344(6) 0.4356(5) 0.0416 Uani
C3 C 0.9617(2) 0.1380(7) 0.4362(5) 0.0503 Uani
H1 H 0.9450 0.0841 0.4576 0.0600 Uiso
C4 C 1.0040(2) 0.1197(7) 0.4053(5) 0.0503 Uani
H2 H 1.0153 0.0532 0.4052 0.0610 Uiso
C5 C 1.0291(3) 0.1968(7) 0.3751(6) 0.0496 Uani
C6 C 1.0120(3) 0.2943(7) 0.3723(8) 0.0750 Uani
H3 H 1.0290 0.3482 0.3515 0.0900 Uiso
C7 C 0.9682(3) 0.3116(7) 0.4014(7) 0.0712 Uani
H4 H 0.9555 0.3769 0.3970 0.0850 Uiso
C8 C 1.0766(3) 0.1828(8) 0.3474(6) 0.0551 Uani
C9 C 1.2463(2) -0.0675(6) 0.4350(5) 0.0378 Uani
C10 C 1.2157(2) 0.0051(6) 0.3749(4) 0.0357 Uani
C11 C 1.1689(2) 0.0150(5) 0.3852(5) 0.0358 Uani
H5 H 1.1562 -0.0268 0.4287 0.0430 Uiso
C12 C 1.1416(2) 0.0848(6) 0.3326(5) 0.0399 Uani
C13 C 1.1599(2) 0.1431(6) 0.2632(5) 0.0385 Uani
H6 H 1.1411 0.1892 0.2255 0.0460 Uiso
C14 C 1.2064(2) 0.1322(6) 0.2502(4) 0.0384 Uani
C15 C 1.2345(2) 0.0658(6) 0.3082(4) 0.0374 Uani
H7 H 1.2659 0.0616 0.3027 0.0450 Uiso
C16 C 1.2257(2) 0.1910(6) 0.1724(5) 0.0399 Uani
C17 C 0.8450(5) 0.1931(11) 0.7601(8) 0.1413 Uani
C18 C 0.9297(4) 0.1319(12) 0.7981(11) 0.1511 Uani
H8 H 0.9476 0.0945 0.8491 0.2270 Uiso
H9 H 0.9424 0.1993 0.7944 0.2270 Uiso
H10 H 0.9305 0.0972 0.7378 0.2270 Uiso
C19 C 0.8649(5) 0.0825(11) 0.8944(9) 0.1493 Uani
H11 H 0.8901 0.0492 0.9333 0.2230 Uiso
H12 H 0.8431 0.0322 0.8667 0.2230 Uiso
H13 H 0.8499 0.1286 0.9339 0.2230 Uiso
H14 H 1.083(5) 0.246(7) 0.309(9) 0.1790 Uiso
Tb1A Tb 1.185539(10) 0.29771(3) -0.04105(2) 0.0326 Uani
Tb1B Tb 1.314461(10) -0.20229(3) 0.54105(2) 0.0326 Uani
Tb1D Tb 1.185539(10) -0.29771(3) 0.45895(2) 0.0326 Uani
Tb1G Tb 1.314461(10) 0.20229(3) 0.04105(2) 0.0326 Uani
O3B O 0.72912(15) 0.3515(4) 0.4675(3) 0.0400 Uani
O3D O 0.77088(15) 0.1485(4) 0.5325(3) 0.0400 Uani
O4B O 0.78871(15) 0.4508(4) 0.4544(4) 0.0439 Uani
O5A O 0.79997(15) 0.2535(4) 0.3745(3) 0.0408 Uani
O6G O 0.76715(16) 0.3287(5) 0.6611(4) 0.0563 Uani
loop_
_atom_site_aniso_label
_atom_site_aniso_U_11
_atom_site_aniso_U_22
_atom_site_aniso_U_33
_atom_site_aniso_U_23
_atom_site_aniso_U_13
_atom_site_aniso_U_12
Tb1 0.01888(18) 0.0482(2) 0.0329(2) -0.00173(16) 0.01139(13) 0.00241(16)
O1 0.030(3) 0.063(4) 0.062(3) 0.016(3) 0.028(2) 0.010(3)
O2 0.032(3) 0.055(4) 0.092(4) -0.016(3) 0.033(3) -0.002(3)
O3 0.03 0.042 0.052 0.005 0.02 0.008
O4 0.025 0.039 0.069 0.006 0.011 0.002
O5 0.027 0.069 0.028 0.01 0.01 0.003
O6 0.026 0.098 0.049 0.032 0.02 0.009
O7 0.064(4) 0.112(6) 0.079(4) -0.026(4) 0.000(3) 0.019(4)
O8 0.063(4) 0.099(5) 0.076(4) -0.041(4) 0.011(3) -0.038(4)
N1 0.024(3) 0.065(4) 0.045(3) 0.012(3) 0.017(2) 0.009(3)
N2 0.144(4) 0.140(5) 0.123(4) 0.007(3) 0.009(3) 0.008(3)
C1 0.024(4) 0.067(5) 0.041(4) 0.000(4) 0.004(3) 0.005(4)
C2 0.029(4) 0.057(5) 0.042(4) 0.006(4) 0.017(3) 0.010(4)
C3 0.030(4) 0.065(6) 0.060(5) -0.001(4) 0.021(3) -0.004(4)
C4 0.031(4) 0.058(5) 0.064(5) 0.006(4) 0.014(3) 0.008(4)
C5 0.033(4) 0.065(6) 0.054(5) 0.008(4) 0.018(3) 0.007(4)
C6 0.047(5) 0.069(6) 0.121(8) 0.028(6) 0.056(5) 0.019(5)
C7 0.043(5) 0.067(6) 0.112(8) 0.003(6) 0.042(5) 0.003(5)
C8 0.032(4) 0.087(7) 0.048(5) 0.010(5) 0.012(3) 0.001(5)
C9 0.029 0.048 0.041 0.002 0.022 0.006
C10 0.025 0.047 0.038 -0.008 0.015 0.005
C11 0.023 0.045 0.044 0.005 0.021 -0.004
C12 0.024 0.061 0.038 0.006 0.016 0.008
C13 0.028 0.056 0.034 0.002 0.013 0.003
C14 0.029 0.061 0.028 -0.003 0.014 -0.004
C15 0.021 0.057 0.036 0.003 0.011 0
C16 0.025 0.071 0.026 0.011 0.012 0.001
C17 0.145(5) 0.146(5) 0.133(5) 0.009(4) 0.019(3) 0.003(4)
C18 0.150(4) 0.152(6) 0.152(5) 0.003(4) 0.023(4) 0.001(4)
C19 0.153(5) 0.150(5) 0.145(5) 0.010(4) 0.020(3) 0.000(4)
Tb1A 0.01888 0.0482 0.0329 0.00173 0.01139 -0.00241
Tb1B 0.01888 0.0482 0.0329 -0.00173 0.01139 0.00241
Tb1D 0.01888 0.0482 0.0329 -0.00173 0.01139 0.00241
Tb1G 0.01888 0.0482 0.0329 0.00173 0.01139 -0.00241
O3B 0.03 0.042 0.052 0.005 0.02 0.008
O3D 0.03 0.042 0.052 0.005 0.02 0.008
O4B 0.025 0.039 0.069 0.006 0.011 0.002
O5A 0.027 0.069 0.028 -0.01 0.01 -0.003
O6G 0.026 0.098 0.049 -0.032 0.02 -0.009
loop_
_geom_bond_atom_site_label_1
_geom_bond_atom_site_label_2
_geom_bond_site_symmetry_1
_geom_bond_site_symmetry_2
Tb1 O1 1_555 1_555
O1 C1 1_555 1_555
O2 Tb1 1_555 1_555
O3 C9 1_555 1_555
O4 C9 1_555 1_555
O5 C16 1_555 1_555
O6 C16 1_555 1_555
O7 Tb1 1_555 1_555
O8 Tb1 1_555 1_555
N1 C8 1_555 1_555
N2 C17 1_555 1_555
C1 O2 1_555 1_555
C2 C1 1_555 1_555
C3 C2 1_555 1_555
H1 C3 1_555 1_555
C4 C3 1_555 1_555
H2 C4 1_555 1_555
C5 C4 1_555 1_555
C6 C5 1_555 1_555
H3 C6 1_555 1_555
C7 C2 1_555 1_555
H4 C7 1_555 1_555
C8 C5 1_555 1_555
C9 C10 1_555 1_555
C10 C11 1_555 1_555
C11 H5 1_555 1_555
C12 N1 1_555 1_555
C13 C12 1_555 1_555
H6 C13 1_555 1_555
C14 C13 1_555 1_555
C15 C10 1_555 1_555
H7 C15 1_555 1_555
C16 C14 1_555 1_555
C17 O7 1_555 1_555
C18 N2 1_555 1_555
H8 C18 1_555 1_555
H9 C18 1_555 1_555
H10 C18 1_555 1_555
C19 N2 1_555 1_555
H11 C19 1_555 1_555
H12 C19 1_555 1_555
H13 C19 1_555 1_555
H14 C8 1_555 1_555
Tb1A O5 1_555 1_555
Tb1B O3 1_555 1_555
Tb1D O3 1_555 1_555
Tb1G O6 1_555 1_555
O3B Tb1 1_555 1_555
O3D Tb1 1_555 1_555
O4B Tb1 1_555 1_555
O5A Tb1 1_555 1_555
O6G Tb1 1_555 1_555
O4 Tb1B 1_555 1_555
C6 C7 1_555 1_555
C11 C12 1_555 1_555
C14 C15 1_555 1_555

#END
