
#######################################################################
#
#                 Cambridge Crystallographic Data Centre
#                                CCDC 
#
#######################################################################
#
# If this CIF has been generated from an entry in the Cambridge 
# Structural Database, then it will include bibliographic, chemical, 
# crystal, experimental, refinement or atomic coordinate data resulting 
# from the CCDC's data processing and validation procedures.
#
#######################################################################

data_BETDEL
_chemical_formula_moiety         '(C19 H17 Dy1 N2 O8)n'
_symmetry_cell_setting           monoclinic
_symmetry_space_group_name_H-M   'C 2/c'
_symmetry_Int_Tables_number      15
_space_group_name_Hall           '-C 2yc'
loop_
_symmetry_equiv_pos_site_id
_symmetry_equiv_pos_as_xyz
1 x,y,z
2 -x,y,1/2-z
3 1/2+x,1/2+y,z
4 1/2-x,1/2+y,1/2-z
5 -x,-y,-z
6 x,-y,1/2+z
7 1/2-x,1/2-y,-z
8 1/2+x,1/2-y,1/2+z
_cell_length_a                   28.7897(8)
_cell_length_b                   13.9077(7)
_cell_length_c                   13.6093(5)
_cell_angle_alpha                90
_cell_angle_beta                 99.074(3)
_cell_angle_gamma                90
_cell_volume                     5380.95
loop_
_atom_site_label
_atom_site_type_symbol
_atom_site_fract_x
_atom_site_fract_y
_atom_site_fract_z
_atom_site_U_iso_or_equiv
_atom_site_thermal_displace_type
Dy1 Dy 0.316076(19) 0.20925(5) 0.54109(5) 0.0514 Uani
O1 O 0.3878(4) 0.1744(12) 0.4794(12) 0.0990 Uani
O2 O 0.3775(4) 0.3252(11) 0.5067(10) 0.0871 Uani
O3 O 0.7921(3) 0.5660(8) 0.4480(9) 0.0701 Uani
O4 O 0.7299(3) 0.6546(8) 0.4595(7) 0.0603 Uani
O5 O 0.7697(4) 0.3342(9) 0.1616(8) 0.0723 Uani
O6 O 0.6997(3) 0.2571(9) 0.1246(7) 0.0600 Uani
O7 O 0.3559(5) 0.0798(14) 0.6379(11) 0.1198 Uani
O8 O 0.3547(7) 0.2777(13) 0.6886(16) 0.1258 Uani
N1 N 0.5978(4) 0.4128(12) 0.3508(10) 0.0731 Uani
N2 N 0.3805(12) 0.373(2) 0.828(2) 0.1762 Uani
C1 C 0.4035(7) 0.2529(19) 0.4765(14) 0.0912 Uani
C2 C 0.4471(7) 0.2781(14) 0.4405(15) 0.0790 Uani
C3 C 0.4629(6) 0.3701(17) 0.4400(15) 0.0919 Uani
H1 H 0.4461 0.4194 0.4646 0.1100 Uiso
C4 C 0.5057(6) 0.3917(16) 0.4015(16) 0.0892 Uani
H2 H 0.5152 0.4549 0.3941 0.1070 Uiso
C5 C 0.5317(7) 0.3158(18) 0.3761(15) 0.0867 Uani
C6 C 0.5171(10) 0.2262(19) 0.373(2) 0.1155 Uani
H3 H 0.5354 0.1772 0.3524 0.1390 Uiso
C7 C 0.4709(10) 0.2054(18) 0.403(2) 0.1106 Uani
H4 H 0.4582 0.1437 0.3959 0.1330 Uiso
C8 C 0.5789(7) 0.331(2) 0.3498(16) 0.0928 Uani
C9 C 0.7484(5) 0.5784(11) 0.4322(11) 0.0565 Uani
C10 C 0.7192(5) 0.5051(12) 0.3725(11) 0.0583 Uani
C11 C 0.7375(4) 0.4456(10) 0.3050(10) 0.0504 Uani
H5 H 0.7689 0.4512 0.2973 0.0610 Uiso
C12 C 0.7091(5) 0.3787(13) 0.2499(11) 0.0643 Uani
C13 C 0.6621(5) 0.3686(13) 0.2634(13) 0.0711 Uani
H6 H 0.6431 0.3238 0.2257 0.0850 Uiso
C14 C 0.6442(5) 0.4223(14) 0.3296(12) 0.0677 Uani
C15 C 0.6709(5) 0.4953(12) 0.3835(12) 0.0648 Uani
H7 H 0.6575 0.5361 0.4252 0.0780 Uiso
C16 C 0.7280(5) 0.3175(12) 0.1710(11) 0.0591 Uani
C17 C 0.3445(15) 0.313(3) 0.762(3) 0.1793 Uani
C18 C 0.3568(14) 0.419(3) 0.897(3) 0.1876 Uani
H8 H 0.3786 0.4568 0.9415 0.2820 Uiso
H9 H 0.3428 0.3713 0.9346 0.2820 Uiso
H10 H 0.3327 0.4594 0.8625 0.2820 Uiso
C19 C 0.4290(14) 0.373(3) 0.807(3) 0.1965 Uani
H11 H 0.4494 0.4028 0.8607 0.2950 Uiso
H12 H 0.4302 0.4081 0.7464 0.2950 Uiso
H13 H 0.4391 0.3079 0.7989 0.2950 Uiso
Dy1A Dy 0.683924(19) 0.20925(5) -0.04109(5) 0.0514 Uani
Dy1B Dy 0.816076(19) 0.70925(5) 0.54109(5) 0.0514 Uani
Dy1D Dy 0.683924(19) 0.79075(5) 0.45891(5) 0.0514 Uani
Dy1G Dy 0.816076(19) 0.29075(5) 0.04109(5) 0.0514 Uani
O3B O 0.2921(3) 0.0660(8) 0.4480(9) 0.0701 Uani
O4B O 0.2299(3) 0.1546(8) 0.4595(7) 0.0603 Uani
O4D O 0.2701(3) 0.3454(8) 0.5405(7) 0.0603 Uani
O5G O 0.2697(4) 0.1658(9) 0.6616(8) 0.0723 Uani
O6A O 0.3003(3) 0.2571(9) 0.3754(7) 0.0600 Uani
loop_
_atom_site_aniso_label
_atom_site_aniso_U_11
_atom_site_aniso_U_22
_atom_site_aniso_U_33
_atom_site_aniso_U_23
_atom_site_aniso_U_13
_atom_site_aniso_U_12
Dy1 0.0247(4) 0.0784(6) 0.0540(5) 0.0003(3) 0.0156(3) -0.0023(3)
O1 0.045(7) 0.132(12) 0.132(12) 0.012(10) 0.051(7) 0.011(7)
O2 0.050(7) 0.119(10) 0.103(10) -0.018(8) 0.045(7) -0.009(7)
O3 0.042 0.067 0.105 -0.004 0.023 -0.004
O4 0.043 0.085 0.059 -0.006 0.027 -0.011
O5 0.043 0.106 0.073 -0.02 0.025 -0.003
O6 0.032 0.098 0.055 -0.01 0.022 -0.019
O7 0.060(8) 0.200(16) 0.110(10) 0.059(11) 0.046(7) 0.059(10)
O8 0.122(7) 0.127(7) 0.127(6) 0.009(4) 0.015(5) -0.005(5)
N1 0.039(7) 0.111(11) 0.075(8) -0.011(8) 0.027(6) -0.017(7)
N2 0.180(8) 0.175(8) 0.172(8) -0.006(5) 0.023(5) -0.002(5)
C1 0.067(12) 0.130(17) 0.071(11) 0.044(12) -0.006(9) -0.048(13)
C2 0.058(10) 0.096(12) 0.090(13) 0.013(10) 0.033(9) -0.022(8)
C3 0.051(9) 0.125(16) 0.111(14) -0.042(13) 0.048(10) -0.009(10)
C4 0.053(10) 0.096(14) 0.118(16) -0.003(12) 0.012(10) 0.001(9)
C5 0.062(10) 0.127(12) 0.078(11) -0.029(11) 0.032(9) -0.008(10)
C6 0.109(8) 0.118(9) 0.127(10) -0.007(7) 0.042(7) 0.007(6)
C7 0.102(8) 0.109(9) 0.124(10) 0.002(7) 0.028(7) -0.001(6)
C8 0.061(11) 0.135(18) 0.089(13) 0.005(13) 0.032(10) 0.006(12)
C9 0.039 0.069 0.067 -0.006 0.025 -0.009
C10 0.032 0.079 0.069 -0.002 0.024 -0.006
C11 0.031 0.072 0.052 0.001 0.018 -0.002
C12 0.042 0.09 0.068 -0.025 0.031 -0.011
C13 0.046 0.089 0.088 -0.017 0.041 -0.021
C14 0.032 0.107 0.067 -0.013 0.017 -0.008
C15 0.036 0.08 0.086 -0.015 0.033 -0.009
C16 0.039 0.089 0.055 -0.012 0.025 -0.002
C17 0.181(9) 0.181(9) 0.177(8) -0.004(5) 0.032(5) 0.001(5)
C18 0.189(10) 0.187(10) 0.187(9) -0.003(5) 0.030(5) 0.001(5)
C19 0.193(9) 0.199(10) 0.198(10) -0.002(5) 0.032(5) -0.002(5)
Dy1A 0.0247 0.0784 0.054 -0.0003 0.0156 0.0023
Dy1B 0.0247 0.0784 0.054 0.0003 0.0156 -0.0023
Dy1D 0.0247 0.0784 0.054 0.0003 0.0156 -0.0023
Dy1G 0.0247 0.0784 0.054 -0.0003 0.0156 0.0023
O3B 0.042 0.067 0.105 -0.004 0.023 -0.004
O4B 0.043 0.085 0.059 -0.006 0.027 -0.011
O4D 0.043 0.085 0.059 -0.006 0.027 -0.011
O5G 0.043 0.106 0.073 0.02 0.025 0.003
O6A 0.032 0.098 0.055 0.01 0.022 0.019
loop_
_geom_bond_atom_site_label_1
_geom_bond_atom_site_label_2
_geom_bond_site_symmetry_1
_geom_bond_site_symmetry_2
Dy1 O1 1_555 1_555
O1 C1 1_555 1_555
O2 Dy1 1_555 1_555
O3 C9 1_555 1_555
O4 C9 1_555 1_555
O5 C16 1_555 1_555
O6 C16 1_555 1_555
O7 Dy1 1_555 1_555
O8 Dy1 1_555 1_555
N1 C8 1_555 1_555
N2 C17 1_555 1_555
C1 O2 1_555 1_555
C2 C1 1_555 1_555
C3 C2 1_555 1_555
H1 C3 1_555 1_555
C4 C3 1_555 1_555
H2 C4 1_555 1_555
C5 C4 1_555 1_555
C6 C5 1_555 1_555
H3 C6 1_555 1_555
C7 C2 1_555 1_555
H4 C7 1_555 1_555
C8 C5 1_555 1_555
C9 C10 1_555 1_555
C10 C11 1_555 1_555
C11 H5 1_555 1_555
C12 C11 1_555 1_555
C13 C12 1_555 1_555
H6 C13 1_555 1_555
C14 N1 1_555 1_555
C15 C10 1_555 1_555
H7 C15 1_555 1_555
C16 C12 1_555 1_555
C17 O8 1_555 1_555
C18 N2 1_555 1_555
H8 C18 1_555 1_555
H9 C18 1_555 1_555
H10 C18 1_555 1_555
C19 N2 1_555 1_555
H11 C19 1_555 1_555
H12 C19 1_555 1_555
H13 C19 1_555 1_555
Dy1A O6 1_555 1_555
Dy1B O3 1_555 1_555
Dy1D O4 1_555 1_555
Dy1G O5 1_555 1_555
O3B Dy1 1_555 1_555
O4B Dy1 1_555 1_555
O4D Dy1 1_555 1_555
O5G Dy1 1_555 1_555
O6A Dy1 1_555 1_555
O4 Dy1B 1_555 1_555
C6 C7 1_555 1_555
C13 C14 1_555 1_555
C14 C15 1_555 1_555

#END
