
#######################################################################
#
#                 Cambridge Crystallographic Data Centre
#                                CCDC 
#
#######################################################################
#
# If this CIF has been generated from an entry in the Cambridge 
# Structural Database, then it will include bibliographic, chemical, 
# crystal, experimental, refinement or atomic coordinate data resulting 
# from the CCDC's data processing and validation procedures.
#
#######################################################################

data_BETFUD
_chemical_formula_moiety         '(C22 H22 Ce1 N3 O8)n'
_symmetry_cell_setting           monoclinic
_symmetry_space_group_name_H-M   'C 2/c'
_symmetry_Int_Tables_number      15
_space_group_name_Hall           '-C 2yc'
loop_
_symmetry_equiv_pos_site_id
_symmetry_equiv_pos_as_xyz
1 x,y,z
2 -x,y,1/2-z
3 1/2+x,1/2+y,z
4 1/2-x,1/2+y,1/2-z
5 -x,-y,-z
6 x,-y,1/2+z
7 1/2-x,1/2-y,-z
8 1/2+x,1/2-y,1/2+z
_cell_length_a                   29.0489(12)
_cell_length_b                   14.5685(6)
_cell_length_c                   13.5097(7)
_cell_angle_alpha                90
_cell_angle_beta                 100.119(5)
_cell_angle_gamma                90
_cell_volume                     5628.36
loop_
_atom_site_label
_atom_site_type_symbol
_atom_site_fract_x
_atom_site_fract_y
_atom_site_fract_z
_atom_site_U_iso_or_equiv
_atom_site_thermal_displace_type
Ce1 Ce 0.318677(11) 0.21403(2) 0.04279(3) 0.0280 Uani
O1 O 0.38127(17) 0.3309(4) 0.0018(5) 0.0490 Uani
O2 O 0.39513(18) 0.1838(4) -0.0122(6) 0.0578 Uani
O3 O 0.77290(17) 0.3266(4) -0.3256(4) 0.0513 Uani
O4 O 0.70252(17) 0.2605(4) -0.3655(4) 0.0412 Uani
O5 O 0.79442(16) 0.5681(3) -0.0547(4) 0.0408 Uani
O6 O 0.73163(16) 0.6485(3) -0.0372(4) 0.0372 Uani
O7 O 0.3609(3) 0.2845(5) 0.1963(6) 0.0745 Uani
O8 O 0.3586(2) 0.0827(5) 0.1471(6) 0.0723 Uani
N1 N 0.5992(2) 0.4185(5) -0.1501(5) 0.0419 Uani
N2 N 0.3826(4) 0.3840(9) 0.3285(10) 0.1237 Uani
N3 N 0.3832(4) 0.0130(7) 0.3105(8) 0.1004 Uani
C1 C 0.4060(2) 0.2669(5) -0.0192(6) 0.0383 Uani
C2 C 0.4517(2) 0.2862(5) -0.0541(6) 0.0399 Uani
C3 C 0.4801(3) 0.2153(6) -0.0746(9) 0.0646 Uani
H1 H 0.4707 0.1549 -0.0681 0.0780 Uiso
C4 C 0.5228(3) 0.2329(7) -0.1049(11) 0.0828 Uani
H2 H 0.5418 0.1844 -0.1174 0.0990 Uiso
C5 C 0.5367(3) 0.3214(6) -0.1164(7) 0.0509 Uani
C6 C 0.5077(3) 0.3948(6) -0.0996(8) 0.0548 Uani
H3 H 0.5165 0.4551 -0.1092 0.0660 Uiso
C7 C 0.4648(3) 0.3749(6) -0.0675(7) 0.0539 Uani
H4 H 0.4453 0.4228 -0.0555 0.0650 Uiso
C8 C 0.5828(3) 0.3396(6) -0.1456(7) 0.0489 Uani
C9 C 0.7305(2) 0.3183(5) -0.3166(6) 0.0393 Uani
C10 C 0.7114(2) 0.3787(5) -0.2446(5) 0.0335 Uani
C11 C 0.6648(2) 0.3686(5) -0.2328(5) 0.0348 Uani
H5 H 0.6462 0.3235 -0.2684 0.0410 Uiso
C12 C 0.6463(2) 0.4267(5) -0.1673(6) 0.0354 Uani
C13 C 0.6737(2) 0.4975(5) -0.1163(6) 0.0357 Uani
H6 H 0.6607 0.5382 -0.0759 0.0430 Uiso
C14 C 0.7203(2) 0.5061(4) -0.1270(5) 0.0311 Uani
C15 C 0.7392(2) 0.4457(5) -0.1902(5) 0.0327 Uani
H7 H 0.7706 0.4505 -0.1958 0.0390 Uiso
C16 C 0.7508(2) 0.5784(4) -0.0710(5) 0.0312 Uani
C17 C 0.3479(5) 0.3272(11) 0.2662(10) 0.1273 Uani
C18 C 0.3614(6) 0.4361(12) 0.3997(12) 0.1409 Uani
H8 H 0.3305 0.4132 0.4004 0.2120 Uiso
H9 H 0.3597 0.4996 0.3805 0.2120 Uiso
H10 H 0.3800 0.4300 0.4656 0.2120 Uiso
C19 C 0.4285(5) 0.3974(12) 0.3023(13) 0.1343 Uani
H11 H 0.4332 0.3534 0.2521 0.2020 Uiso
H12 H 0.4520 0.3895 0.3610 0.2020 Uiso
H13 H 0.4305 0.4583 0.2762 0.2020 Uiso
C20 C 0.3674(5) 0.0870(9) 0.2412(6) 0.1086 Uani
C21 C 0.3778(7) -0.0723(10) 0.2534(13) 0.1484 Uani
H14 H 0.3881 -0.1228 0.2975 0.2230 Uiso
H15 H 0.3963 -0.0697 0.2012 0.2230 Uiso
H16 H 0.3455 -0.0807 0.2241 0.2230 Uiso
C22 C 0.3988(6) 0.0256(13) 0.4177(9) 0.1403 Uani
H17 H 0.4076 -0.0326 0.4485 0.2100 Uiso
H18 H 0.3738 0.0515 0.4468 0.2100 Uiso
H19 H 0.4251 0.0664 0.4287 0.2100 Uiso
H20 H 0.592(6) 0.274(3) -0.151(14) 0.1680 Uiso
Ce1A Ce 0.681323(11) 0.21403(2) -0.54279(3) 0.0280 Uani
Ce1B Ce 0.818677(11) 0.71403(2) 0.04279(3) 0.0280 Uani
Ce1D Ce 0.681323(11) 0.78597(2) -0.04279(3) 0.0280 Uani
Ce1G Ce 0.818677(11) 0.28597(2) -0.45721(3) 0.0280 Uani
O3G O 0.27290(17) 0.1734(4) 0.1744(4) 0.0513 Uani
O4A O 0.29748(17) 0.2605(4) -0.1345(4) 0.0412 Uani
O5B O 0.29442(16) 0.0681(3) -0.0547(4) 0.0408 Uani
O6B O 0.23163(16) 0.1485(3) -0.0372(4) 0.0372 Uani
O6D O 0.26837(16) 0.3515(3) 0.0372(4) 0.0372 Uani
loop_
_atom_site_aniso_label
_atom_site_aniso_U_11
_atom_site_aniso_U_22
_atom_site_aniso_U_33
_atom_site_aniso_U_23
_atom_site_aniso_U_13
_atom_site_aniso_U_12
Ce1 0.01934(19) 0.0255(2) 0.0431(2) 0.00092(17) 0.01615(15) -0.00100(13)
O1 0.035(3) 0.039(3) 0.082(4) -0.013(3) 0.035(3) -0.013(2)
O2 0.038(3) 0.039(3) 0.109(5) 0.000(3) 0.048(3) -0.002(2)
O3 0.028 0.071 0.06 -0.029 0.022 -0.006
O4 0.032 0.049 0.047 -0.008 0.019 -0.004
O5 0.026 0.029 0.072 -0.008 0.021 -0.0024
O6 0.031 0.026 0.06 -0.004 0.023 -0.003
O7 0.080(4) 0.072(4) 0.070(3) 0.008(3) 0.009(3) -0.015(3)
O8 0.057(3) 0.080(4) 0.080(3) 0.005(3) 0.012(3) 0.020(3)
N1 0.028(3) 0.050(4) 0.053(4) -0.005(3) 0.022(3) -0.009(3)
N2 0.129(5) 0.117(5) 0.121(5) -0.008(4) 0.011(4) -0.002(4)
N3 0.101(5) 0.101(5) 0.099(4) 0.009(4) 0.017(4) 0.002(4)
C1 0.024(3) 0.041(4) 0.055(5) -0.003(3) 0.021(3) -0.003(3)
C2 0.025(3) 0.047(4) 0.052(4) -0.005(4) 0.019(3) -0.009(3)
C3 0.046(5) 0.044(5) 0.116(9) -0.002(5) 0.048(5) -0.002(4)
C4 0.049(5) 0.055(6) 0.161(12) -0.022(7) 0.064(7) -0.007(4)
C5 0.039(4) 0.052(5) 0.069(6) -0.020(4) 0.030(4) -0.015(4)
C6 0.042(4) 0.044(5) 0.086(7) -0.009(5) 0.032(4) -0.010(4)
C7 0.041(4) 0.045(5) 0.083(6) -0.008(4) 0.031(4) -0.002(4)
C8 0.039(4) 0.054(5) 0.061(5) -0.010(4) 0.029(4) -0.008(4)
C9 0.032 0.04 0.051 -0.007 0.021 -0.006
C10 0.03 0.032 0.043 0 0.019 0.001
C11 0.028 0.036 0.044 -0.005 0.016 -0.005
C12 0.024 0.035 0.052 0 0.02 -0.001
C13 0.028 0.028 0.056 -0.003 0.021 0.001
C14 0.029 0.021 0.048 -0.002 0.02 -0.001
C15 0.019 0.035 0.048 0 0.017 0.001
C16 0.028 0.024 0.046 -0.002 0.019 -0.002
C17 0.129(6) 0.126(6) 0.127(6) -0.006(4) 0.023(4) 0.003(4)
C18 0.147(6) 0.141(7) 0.135(6) -0.005(4) 0.026(5) 0.003(5)
C19 0.135(5) 0.132(7) 0.135(7) 0.002(5) 0.021(4) 0.002(4)
C20 0.106(6) 0.116(5) 0.104(5) 0.009(4) 0.019(4) 0.000(4)
C21 0.158(7) 0.137(6) 0.152(7) -0.016(5) 0.032(5) 0.003(5)
C22 0.143(7) 0.140(8) 0.138(7) 0.001(5) 0.025(5) -0.003(5)
Ce1A 0.01934 0.0255 0.0431 -0.00092 0.01615 0.001
Ce1B 0.01934 0.0255 0.0431 0.00092 0.01615 -0.001
Ce1D 0.01934 0.0255 0.0431 0.00092 0.01615 -0.001
Ce1G 0.01934 0.0255 0.0431 -0.00092 0.01615 0.001
O3G 0.028 0.071 0.06 0.029 0.022 0.006
O4A 0.032 0.049 0.047 0.008 0.019 0.004
O5B 0.026 0.029 0.072 -0.008 0.021 -0.0024
O6B 0.031 0.026 0.06 -0.004 0.023 -0.003
O6D 0.031 0.026 0.06 -0.004 0.023 -0.003
loop_
_geom_bond_atom_site_label_1
_geom_bond_atom_site_label_2
_geom_bond_site_symmetry_1
_geom_bond_site_symmetry_2
Ce1 O1 1_555 1_555
O1 C1 1_555 1_555
O2 Ce1 1_555 1_555
O3 C9 1_555 1_555
O4 C9 1_555 1_555
O5 C16 1_555 1_555
O6 C16 1_555 1_555
O7 Ce1 1_555 1_555
O8 Ce1 1_555 1_555
N1 C8 1_555 1_555
N2 C17 1_555 1_555
N3 C20 1_555 1_555
C1 O2 1_555 1_555
C2 C1 1_555 1_555
C3 C2 1_555 1_555
H1 C3 1_555 1_555
C4 C3 1_555 1_555
H2 C4 1_555 1_555
C5 C4 1_555 1_555
C6 C5 1_555 1_555
H3 C6 1_555 1_555
C7 C2 1_555 1_555
H4 C7 1_555 1_555
C8 C5 1_555 1_555
C9 C10 1_555 1_555
C10 C11 1_555 1_555
C11 H5 1_555 1_555
C12 N1 1_555 1_555
C13 C12 1_555 1_555
H6 C13 1_555 1_555
C14 C13 1_555 1_555
C15 C10 1_555 1_555
H7 C15 1_555 1_555
C16 C14 1_555 1_555
C17 O7 1_555 1_555
C18 N2 1_555 1_555
H8 C18 1_555 1_555
H9 C18 1_555 1_555
H10 C18 1_555 1_555
C19 N2 1_555 1_555
H11 C19 1_555 1_555
H12 C19 1_555 1_555
H13 C19 1_555 1_555
C20 O8 1_555 1_555
C21 N3 1_555 1_555
H14 C21 1_555 1_555
H15 C21 1_555 1_555
H16 C21 1_555 1_555
C22 N3 1_555 1_555
H17 C22 1_555 1_555
H18 C22 1_555 1_555
H19 C22 1_555 1_555
H20 C8 1_555 1_555
Ce1A O4 1_555 1_555
Ce1B O5 1_555 1_555
Ce1D O6 1_555 1_555
Ce1G O3 1_555 1_555
O3G Ce1 1_555 1_555
O4A Ce1 1_555 1_555
O5B Ce1 1_555 1_555
O6B Ce1 1_555 1_555
O6D Ce1 1_555 1_555
O6 Ce1B 1_555 1_555
C6 C7 1_555 1_555
C11 C12 1_555 1_555
C14 C15 1_555 1_555

#END
