
#######################################################################
#
#                 Cambridge Crystallographic Data Centre
#                                CCDC 
#
#######################################################################
#
# If this CIF has been generated from an entry in the Cambridge 
# Structural Database, then it will include bibliographic, chemical, 
# crystal, experimental, refinement or atomic coordinate data resulting 
# from the CCDC's data processing and validation procedures.
#
#######################################################################

data_BETFIR
_chemical_formula_moiety         '(C17 H14 Ce1 N1 O8)n'
_symmetry_cell_setting           monoclinic
_symmetry_space_group_name_H-M   'C 2/c'
_symmetry_Int_Tables_number      15
_space_group_name_Hall           '-C 2yc'
loop_
_symmetry_equiv_pos_site_id
_symmetry_equiv_pos_as_xyz
1 x,y,z
2 -x,y,1/2-z
3 1/2+x,1/2+y,z
4 1/2-x,1/2+y,1/2-z
5 -x,-y,-z
6 x,-y,1/2+z
7 1/2-x,1/2-y,-z
8 1/2+x,1/2-y,1/2+z
_cell_length_a                   28.667(4)
_cell_length_b                   14.9105(18)
_cell_length_c                   12.013(2)
_cell_angle_alpha                90
_cell_angle_beta                 106.274(15)
_cell_angle_gamma                90
_cell_volume                     4929.09
loop_
_atom_site_label
_atom_site_type_symbol
_atom_site_fract_x
_atom_site_fract_y
_atom_site_fract_z
Ce1 Ce 0.322366(11) 0.22084(2) 0.56942(3)
O1 O 0.39463(19) 0.1779(4) 0.4951(6)
O2 O 0.38788(19) 0.3215(3) 0.5332(5)
O3 O 0.73305(16) 0.6511(3) 0.4691(4)
O4 O 0.79820(16) 0.5688(3) 0.4818(5)
O5 O 0.77688(17) 0.3112(4) 0.2081(4)
O6 O 0.70267(18) 0.2499(4) 0.1394(4)
O7 O 0.3614(2) 0.3168(5) 0.7478(5)
N1 N 0.59800(19) 0.4152(4) 0.3569(5)
C1 C 0.4082(2) 0.2584(5) 0.4951(6)
C2 C 0.4516(3) 0.2799(5) 0.4526(7)
C3 C 0.4799(3) 0.2109(5) 0.4299(8)
H1 H 0.4705 0.1516 0.4343
C4 C 0.5222(3) 0.2305(5) 0.4006(8)
H2 H 0.5416 0.1841 0.3871
C5 C 0.5356(2) 0.3187(5) 0.3913(6)
C6 C 0.5058(3) 0.3889(5) 0.4093(6)
H3 H 0.5136 0.4483 0.3990
C7 C 0.4644(2) 0.3681(5) 0.4429(6)
H4 H 0.4453 0.4139 0.4589
C8 C 0.5826(3) 0.3367(5) 0.3682(6)
C9 C 0.7527(2) 0.5777(4) 0.4505(6)
C10 C 0.7218(2) 0.5017(4) 0.3928(6)
C11 C 0.6742(2) 0.4947(5) 0.3976(6)
H5 H 0.6613 0.5377 0.4367
C12 C 0.6454(2) 0.4219(4) 0.3426(6)
C13 C 0.6640(2) 0.3624(4) 0.2772(6)
H6 H 0.6444 0.3169 0.2359
C14 C 0.7118(2) 0.3705(5) 0.2729(6)
C15 C 0.7405(2) 0.4393(4) 0.3314(6)
H7 H 0.7726 0.4439 0.3296
C16 C 0.7320(2) 0.3060(5) 0.2019(6)
O8 O 0.3763(3) 0.1168(7) 0.7175(8)
C17 C 0.3469(6) 0.3502(11) 0.8404(12)
H8 H 0.3731 0.3835 0.8907
H9 H 0.3382 0.3014 0.8827
H10 H 0.3193 0.3889 0.8121
H11 H 0.595(6) 0.281(6) 0.349(14)
Ce1A Ce 0.677634(11) 0.22084(2) -0.06942(3)
Ce1B Ce 0.822366(11) 0.72084(2) 0.56942(3)
Ce1D Ce 0.677634(11) 0.77916(2) 0.43058(3)
Ce1G Ce 0.822366(11) 0.27916(2) 0.06942(3)
O3B O 0.23305(16) 0.1511(3) 0.4691(4)
O3D O 0.26695(16) 0.3489(3) 0.5309(4)
O4B O 0.29820(16) 0.0688(3) 0.4818(5)
O5G O 0.27688(17) 0.1888(4) 0.7081(4)
O6A O 0.29733(18) 0.2499(4) 0.3606(4)
loop_
_geom_bond_atom_site_label_1
_geom_bond_atom_site_label_2
_geom_bond_site_symmetry_1
_geom_bond_site_symmetry_2
Ce1 O1 1_555 1_555
O1 C1 1_555 1_555
O2 Ce1 1_555 1_555
O3 C9 1_555 1_555
O4 C9 1_555 1_555
O5 C16 1_555 1_555
O6 C16 1_555 1_555
O7 Ce1 1_555 1_555
N1 C8 1_555 1_555
C1 O2 1_555 1_555
C2 C1 1_555 1_555
C3 C2 1_555 1_555
H1 C3 1_555 1_555
C4 C3 1_555 1_555
H2 C4 1_555 1_555
C5 C4 1_555 1_555
C6 C5 1_555 1_555
H3 C6 1_555 1_555
C7 C2 1_555 1_555
H4 C7 1_555 1_555
C8 C5 1_555 1_555
C9 C10 1_555 1_555
C10 C11 1_555 1_555
C11 H5 1_555 1_555
C12 N1 1_555 1_555
C13 C12 1_555 1_555
H6 C13 1_555 1_555
C14 C13 1_555 1_555
C15 C10 1_555 1_555
H7 C15 1_555 1_555
C16 C14 1_555 1_555
O8 Ce1 1_555 1_555
C17 O7 1_555 1_555
H8 C17 1_555 1_555
H9 C17 1_555 1_555
H10 C17 1_555 1_555
H11 C8 1_555 1_555
Ce1A O6 1_555 1_555
Ce1B O3 1_555 1_555
Ce1D O3 1_555 1_555
Ce1G O5 1_555 1_555
O3B Ce1 1_555 1_555
O3D Ce1 1_555 1_555
O4B Ce1 1_555 1_555
O5G Ce1 1_555 1_555
O6A Ce1 1_555 1_555
O4 Ce1B 1_555 1_555
C6 C7 1_555 1_555
C11 C12 1_555 1_555
C14 C15 1_555 1_555

#END
