
#######################################################################
#
#                 Cambridge Crystallographic Data Centre
#                                CCDC 
#
#######################################################################
#
# If this CIF has been generated from an entry in the Cambridge 
# Structural Database, then it will include bibliographic, chemical, 
# crystal, experimental, refinement or atomic coordinate data resulting 
# from the CCDC's data processing and validation procedures.
#
#######################################################################

data_BETFOX
_chemical_formula_moiety         '(C19 H18 Ce1 N1 O9)n'
_symmetry_cell_setting           monoclinic
_symmetry_space_group_name_H-M   'C 2/c'
_symmetry_Int_Tables_number      15
_space_group_name_Hall           '-C 2yc'
loop_
_symmetry_equiv_pos_site_id
_symmetry_equiv_pos_as_xyz
1 x,y,z
2 -x,y,1/2-z
3 1/2+x,1/2+y,z
4 1/2-x,1/2+y,1/2-z
5 -x,-y,-z
6 x,-y,1/2+z
7 1/2-x,1/2-y,-z
8 1/2+x,1/2-y,1/2+z
_cell_length_a                   33.657(2)
_cell_length_b                   14.2909(5)
_cell_length_c                   12.8304(9)
_cell_angle_alpha                90
_cell_angle_beta                 124.037(9)
_cell_angle_gamma                90
_cell_volume                     5113.99
loop_
_atom_site_label
_atom_site_type_symbol
_atom_site_fract_x
_atom_site_fract_y
_atom_site_fract_z
_atom_site_U_iso_or_equiv
_atom_site_thermal_displace_type
Ce1 Ce 0.820073(7) 0.288115(16) 0.07760(2) 0.0302 Uani
O1 O 0.39482(12) 0.8310(3) -0.7097(3) 0.0539 Uani
O2 O 0.38564(12) 0.6817(3) -0.7590(3) 0.0541 Uani
O3 O 0.73112(10) 0.3513(2) -0.0050(3) 0.0372 Uani
O4 O 0.79363(11) 0.4388(2) 0.1227(3) 0.0471 Uani
O5 O 0.77065(12) 0.6869(3) 0.3515(3) 0.0511 Uani
O6 O 0.69836(12) 0.7509(3) 0.2670(3) 0.0454 Uani
O7 O 0.86040(18) 0.4176(4) 0.0364(5) 0.0946 Uani
O8 O 0.8508(4) 0.1911(7) -0.0305(9) 0.0631 Uani
C1 C 0.40797(16) 0.7484(4) -0.6813(4) 0.0389 Uani
C2 C 0.45025(17) 0.7250(3) -0.5528(5) 0.0417 Uani
C3 C 0.46344(16) 0.6334(4) -0.5157(4) 0.0434 Uani
H1 H 0.4445 0.5851 -0.5694 0.0530 Uiso
C4 C 0.50460(16) 0.6124(4) -0.3992(4) 0.0456 Uani
H2 H 0.5131 0.5504 -0.3745 0.0550 Uiso
C5 C 0.53309(18) 0.6852(4) -0.3193(5) 0.0554 Uani
C6 C 0.5188(3) 0.7763(4) -0.3556(7) 0.0882 Uani
H3 H 0.5377 0.8249 -0.3024 0.1060 Uiso
C7 C 0.4773(2) 0.7967(4) -0.4689(7) 0.0791 Uani
H4 H 0.4671 0.8584 -0.4897 0.0950 Uiso
C8 C 0.57811(18) 0.6668(4) -0.2003(5) 0.0584 Uani
C9 C 0.74947(15) 0.4256(3) 0.0591(4) 0.0350 Uani
C10 C 0.71751(14) 0.4995(3) 0.0566(4) 0.0327 Uani
C11 C 0.67027(15) 0.5061(3) -0.0446(4) 0.0350 Uani
H5 H 0.6575 0.4626 -0.1096 0.0420 Uiso
C12 C 0.64207(15) 0.5787(3) -0.0480(4) 0.0388 Uani
C13 C 0.66014(15) 0.6388(3) 0.0541(4) 0.0402 Uani
H6 H 0.6407 0.6849 0.0543 0.0480 Uiso
C14 C 0.70752(15) 0.6297(3) 0.1559(4) 0.0349 Uani
C15 C 0.73572(14) 0.5617(3) 0.1552(4) 0.0326 Uani
H7 H 0.7677 0.5571 0.2222 0.0390 Uiso
C16 C 0.72746(17) 0.6946(4) 0.2681(4) 0.0387 Uani
C17 C 0.8800(5) 0.1767(9) -0.0530(14) 0.1571 Uani
C18 C 0.8786(5) 0.0882(8) -0.1179(13) 0.1713 Uani
H8 H 0.8876 0.1015 -0.1753 0.2570 Uiso
H9 H 0.8467 0.0629 -0.1635 0.2570 Uiso
H10 H 0.9005 0.0436 -0.0565 0.2570 Uiso
C19 C 0.9276(5) 0.2235(11) -0.0016(18) 0.1902 Uani
H11 H 0.9413 0.2005 -0.0454 0.2860 Uiso
H12 H 0.9489 0.2098 0.0864 0.2860 Uiso
H13 H 0.9231 0.2899 -0.0133 0.2860 Uiso
N1 N 0.59441(13) 0.5864(3) -0.1594(4) 0.0436 Uani
H14 H 0.592(2) 0.722(3) -0.154(5) 0.0520 Uiso
Ce1B Ce 0.320073(7) 0.788115(16) -0.92240(2) 0.0302 Uani
Ce1C Ce 0.679927(7) 0.788115(16) 0.42240(2) 0.0302 Uani
Ce1E Ce 0.820073(7) 0.711885(16) 0.57760(2) 0.0302 Uani
Ce1F Ce 0.679927(7) 0.211885(16) -0.07760(2) 0.0302 Uani
O1B O 0.89482(12) 0.3310(3) 0.2903(3) 0.0539 Uani
O2B O 0.88564(12) 0.1817(3) 0.2410(3) 0.0541 Uani
O3F O 0.76888(10) 0.1487(2) 0.0050(3) 0.0372 Uani
O5E O 0.77065(12) 0.3131(3) -0.1485(3) 0.0511 Uani
O6C O 0.80164(12) 0.2509(3) 0.2330(3) 0.0454 Uani
O10 O 0.55005(19) 0.4064(4) 0.8267(7) 0.1290 Uani
loop_
_atom_site_aniso_label
_atom_site_aniso_U_11
_atom_site_aniso_U_22
_atom_site_aniso_U_33
_atom_site_aniso_U_23
_atom_site_aniso_U_13
_atom_site_aniso_U_12
Ce1 0.02188(17) 0.03280(18) 0.02479(17) 0.00659(8) 0.00630(12) 0.00385(8)
O1 0.041 0.0402 0.0381 0.0054 -0.0038 -0.0078
O2 0.0399 0.0461 0.0312 -0.0047 -0.0078 0.0181
O3 0.0314(15) 0.0309(16) 0.0336(17) 0.0018(12) 0.0085(14) 0.0040(12)
O4 0.0242(15) 0.0344(17) 0.057(2) 0.0027(15) 0.0069(15) 0.0036(13)
O5 0.0317 0.083 0.0241 -0.0141 0.0068 0.0059
O6 0.0344 0.058 0.0322 -0.0091 0.0116 0.0043
O7 0.082(3) 0.113(4) 0.079(3) 0.012(3) 0.039(3) -0.047(3)
O8 0.085(4) 0.058(4) 0.041(4) 0.011(3) 0.032(3) 0.018(3)
C1 0.025 0.048 0.026 0.004 0.0034 0.008
C2 0.024 0.047 0.033 -0.003 0.003 0.0047
C3 0.031 0.045 0.032 -0.004 0.004 0.006
C4 0.031 0.047 0.033 -0.005 0.002 0.01
C5 0.037 0.052 0.037 -0.011 -0.004 0.012
C6 0.058 0.055 0.059 -0.018 -0.024 0.012
C7 0.056 0.045 0.057 -0.009 -0.017 0.016
C8 0.039(3) 0.050(3) 0.037(3) -0.015(2) -0.009(2) 0.012(2)
C9 0.031(2) 0.032(2) 0.029(2) 0.0082(18) 0.0088(18) 0.0070(17)
C10 0.027(2) 0.032(2) 0.028(2) 0.0047(17) 0.0085(17) 0.0047(17)
C11 0.027(2) 0.038(2) 0.025(2) -0.0001(17) 0.0054(18) 0.0088(17)
C12 0.029(2) 0.045(3) 0.023(2) -0.0032(18) 0.0027(18) 0.0067(19)
C13 0.028(2) 0.051(3) 0.027(2) -0.0040(19) 0.0064(18) 0.0103(19)
C14 0.029(2) 0.046(3) 0.021(2) -0.0021(18) 0.0086(17) 0.0009(18)
C15 0.0244(19) 0.037(2) 0.023(2) 0.0061(17) 0.0051(16) 0.0024(17)
C16 0.029(2) 0.054(3) 0.027(2) -0.007(2) 0.012(2) -0.001(2)
C17 0.154(5) 0.187(6) 0.171(6) -0.031(4) 0.116(4) 0.009(4)
C18 0.186(6) 0.182(6) 0.174(6) -0.028(4) 0.118(5) 0.037(4)
C19 0.165(5) 0.222(7) 0.221(7) 0.001(5) 0.131(5) -0.015(4)
N1 0.0286(18) 0.049(2) 0.0282(19) -0.0059(17) 0.0006(16) 0.0115(17)
Ce1B 0.02188 0.0328 0.02479 0.00659 0.0063 0.00385
Ce1C 0.02188 0.0328 0.02479 -0.00659 0.0063 -0.00385
Ce1E 0.02188 0.0328 0.02479 -0.00659 0.0063 -0.00385
Ce1F 0.02188 0.0328 0.02479 0.00659 0.0063 0.00385
O1B 0.041 0.0402 0.0381 0.0054 -0.0038 -0.0078
O2B 0.0399 0.0461 0.0312 -0.0047 -0.0078 0.0181
O3F 0.0314 0.0309 0.0336 0.0018 0.0085 0.004
O5E 0.0317 0.083 0.0241 0.0141 0.0068 -0.0059
O6C 0.0344 0.058 0.0322 0.0091 0.0116 -0.0043
O10 0.065(3) 0.100(4) 0.206(7) -0.044(5) 0.066(4) -0.005(3)
loop_
_geom_bond_atom_site_label_1
_geom_bond_atom_site_label_2
_geom_bond_site_symmetry_1
_geom_bond_site_symmetry_2
Ce1 O3 1_555 1_555
O1 C1 1_555 1_555
O2 C1 1_555 1_555
O3 C9 1_555 1_555
O4 Ce1 1_555 1_555
O5 C16 1_555 1_555
O6 C16 1_555 1_555
O7 Ce1 1_555 1_555
O8 Ce1 1_555 1_555
C1 C2 1_555 1_555
C2 C3 1_555 1_555
C3 H1 1_555 1_555
C4 C3 1_555 1_555
H2 C4 1_555 1_555
C5 C4 1_555 1_555
C6 C5 1_555 1_555
H3 C6 1_555 1_555
C7 C2 1_555 1_555
H4 C7 1_555 1_555
C8 C5 1_555 1_555
C9 O4 1_555 1_555
C10 C9 1_555 1_555
C11 C10 1_555 1_555
H5 C11 1_555 1_555
C12 C11 1_555 1_555
C13 C12 1_555 1_555
H6 C13 1_555 1_555
C14 C13 1_555 1_555
C15 C10 1_555 1_555
H7 C15 1_555 1_555
C16 C14 1_555 1_555
C17 O8 1_555 1_555
C18 C17 1_555 1_555
H8 C18 1_555 1_555
H9 C18 1_555 1_555
H10 C18 1_555 1_555
C19 C17 1_555 1_555
H11 C19 1_555 1_555
H12 C19 1_555 1_555
H13 C19 1_555 1_555
N1 C8 1_555 1_555
H14 C8 1_555 1_555
Ce1B O1 1_555 1_555
Ce1C O6 1_555 1_555
Ce1E O5 1_555 1_555
Ce1F O3 1_555 1_555
O1B Ce1 1_555 1_555
O2B Ce1 1_555 1_555
O3F Ce1 1_555 1_555
O5E Ce1 1_555 1_555
O6C Ce1 1_555 1_555
O2 Ce1B 1_555 1_555
C6 C7 1_555 1_555
C12 N1 1_555 1_555
C14 C15 1_555 1_555
Ce1F O3F 1_555 1_555

#END
