
#######################################################################
#
#                 Cambridge Crystallographic Data Centre
#                                CCDC 
#
#######################################################################
#
# If this CIF has been generated from an entry in the Cambridge 
# Structural Database, then it will include bibliographic, chemical, 
# crystal, experimental, refinement or atomic coordinate data resulting 
# from the CCDC's data processing and validation procedures.
#
#######################################################################

data_BETFEN
_chemical_formula_moiety         '(C22 H22 N3 O8 Pr1)n'
_symmetry_cell_setting           monoclinic
_symmetry_space_group_name_H-M   'C 2/c'
_symmetry_Int_Tables_number      15
_space_group_name_Hall           '-C 2yc'
loop_
_symmetry_equiv_pos_site_id
_symmetry_equiv_pos_as_xyz
1 x,y,z
2 -x,y,1/2-z
3 1/2+x,1/2+y,z
4 1/2-x,1/2+y,1/2-z
5 -x,-y,-z
6 x,-y,1/2+z
7 1/2-x,1/2-y,-z
8 1/2+x,1/2-y,1/2+z
_cell_length_a                   28.877(2)
_cell_length_b                   14.3145(9)
_cell_length_c                   13.6347(14)
_cell_angle_alpha                90
_cell_angle_beta                 99.644(9)
_cell_angle_gamma                90
_cell_volume                     5556.39
loop_
_atom_site_label
_atom_site_type_symbol
_atom_site_fract_x
_atom_site_fract_y
_atom_site_fract_z
_atom_site_U_iso_or_equiv
_atom_site_thermal_displace_type
Pr1 Pr 0.181727(13) 0.21268(3) 0.95680(3) 0.0344 Uani
O1 O 0.1189(2) 0.3276(5) 0.9941(6) 0.0667 Uani
O2 O 0.1067(2) 0.1804(5) 1.0177(7) 0.0710 Uani
O3 O -0.23232(19) 0.6507(4) 1.0386(4) 0.0446 Uani
O4 O -0.2944(2) 0.5662(4) 1.0537(5) 0.0535 Uani
O5 O -0.2715(2) 0.3316(6) 1.3310(5) 0.0635 Uani
O6 O -0.2010(2) 0.2620(5) 1.3701(5) 0.0547 Uani
O7 O 0.1418(5) 0.2841(7) 0.8028(10) 0.1184 Uani
O8 O 0.1401(4) 0.0823(7) 0.8561(9) 0.1127 Uani
N1 N -0.0985(3) 0.4171(6) 1.1493(6) 0.0542 Uani
N2 N 0.1159(7) 0.3811(14) 0.6646(14) 0.1778 Uani
N3 N 0.1157(7) 0.0151(12) 0.6861(11) 0.1672 Uani
C1 C 0.0950(3) 0.2624(8) 1.0214(8) 0.0516 Uani
C2 C 0.0501(3) 0.2838(7) 1.0571(8) 0.0553 Uani
C3 C 0.0211(5) 0.2125(7) 1.0808(13) 0.0906 Uani
H1 H 0.0313 0.1510 1.0795 0.1090 Uiso
C4 C -0.0220(5) 0.2300(8) 1.1059(13) 0.0983 Uani
H2 H -0.0423 0.1812 1.1134 0.1180 Uiso
C5 C -0.0349(4) 0.3217(8) 1.1198(8) 0.0635 Uani
C6 C -0.0071(4) 0.3935(8) 1.0967(9) 0.0745 Uani
H3 H -0.0167 0.4552 1.1011 0.0900 Uiso
C7 C 0.0361(3) 0.3733(8) 1.0663(9) 0.0684 Uani
H4 H 0.0553 0.4220 1.0524 0.0820 Uiso
C8 C -0.0817(4) 0.3388(8) 1.1446(9) 0.0658 Uani
H5 H -0.100(4) 0.286(5) 1.118(8) 0.0790 Uiso
C9 C -0.2510(3) 0.5787(5) 1.0700(6) 0.0388 Uani
C10 C -0.2199(3) 0.5050(6) 1.1280(6) 0.0415 Uani
C11 C -0.2388(3) 0.4458(6) 1.1932(6) 0.0385 Uani
H6 H -0.2702 0.4515 1.2003 0.0460 Uiso
C12 C -0.2105(3) 0.3785(6) 1.2473(6) 0.0406 Uani
C13 C -0.1634(3) 0.3702(6) 1.2369(6) 0.0394 Uani
H7 H -0.1439 0.3278 1.2758 0.0480 Uiso
C14 C -0.1458(3) 0.4263(6) 1.1672(7) 0.0496 Uani
C15 C -0.1729(3) 0.4969(6) 1.1190(7) 0.0453 Uani
H8 H -0.1596 0.5394 1.0802 0.0550 Uiso
C16 C -0.2289(3) 0.3214(7) 1.3215(6) 0.0470 Uani
C17 C 0.1519(8) 0.3304(17) 0.7319(15) 0.1749 Uani
C18 C 0.0736(8) 0.3886(18) 0.7087(18) 0.1926 Uani
H9 H 0.0687 0.3313 0.7421 0.2890 Uiso
H10 H 0.0471 0.4004 0.6574 0.2890 Uiso
H11 H 0.0770 0.4391 0.7557 0.2890 Uiso
C19 C 0.1488(8) 0.4199(17) 0.6060(17) 0.1807 Uani
H12 H 0.1711 0.3729 0.5953 0.2710 Uiso
H13 H 0.1650 0.4718 0.6409 0.2710 Uiso
H14 H 0.1321 0.4408 0.5431 0.2710 Uiso
C20 C 0.1330(9) 0.0830(15) 0.7627(10) 0.1703 Uani
C21 C 0.1010(9) 0.0245(17) 0.5791(12) 0.1782 Uani
H15 H 0.0916 -0.0354 0.5509 0.2670 Uiso
H16 H 0.1266 0.0480 0.5498 0.2670 Uiso
H17 H 0.0750 0.0671 0.5660 0.2670 Uiso
C22 C 0.1279(9) -0.0653(15) 0.7511(17) 0.1915 Uani
H18 H 0.1394 -0.0440 0.8175 0.2870 Uiso
H19 H 0.1518 -0.1013 0.7274 0.2870 Uiso
H20 H 0.1005 -0.1034 0.7513 0.2870 Uiso
Pr1A Pr -0.181727(13) 0.21268(3) 1.54320(3) 0.0344 Uani
Pr1B Pr -0.318273(13) 0.71268(3) 0.95680(3) 0.0344 Uani
Pr1D Pr -0.181727(13) 0.78732(3) 1.04320(3) 0.0344 Uani
Pr1G Pr -0.318273(13) 0.28732(3) 1.45680(3) 0.0344 Uani
O3B O 0.26768(19) 0.1507(4) 1.0386(4) 0.0446 Uani
O3D O 0.23232(19) 0.3493(4) 0.9614(4) 0.0446 Uani
O4B O 0.2056(2) 0.0662(4) 1.0537(5) 0.0535 Uani
O5G O 0.2285(2) 0.1684(6) 0.8310(5) 0.0635 Uani
O6A O 0.2010(2) 0.2620(5) 1.1299(5) 0.0547 Uani
loop_
_atom_site_aniso_label
_atom_site_aniso_U_11
_atom_site_aniso_U_22
_atom_site_aniso_U_33
_atom_site_aniso_U_23
_atom_site_aniso_U_13
_atom_site_aniso_U_12
Pr1 0.0228(3) 0.0404(3) 0.0439(3) -0.00227(18) 0.0166(2) 0.00162(16)
O1 0.045(4) 0.068(4) 0.099(5) 0.014(4) 0.047(4) 0.013(3)
O2 0.046(4) 0.053(4) 0.127(7) 0.001(4) 0.052(4) -0.003(3)
O3 0.034 0.046 0.059 0.007 0.023 0.007
O4 0.036 0.042 0.089 0.011 0.029 0.006
O5 0.034 0.105 0.056 0.03 0.021 0.003
O6 0.048 0.072 0.051 0.019 0.028 0.013
O7 0.112(5) 0.122(5) 0.119(5) -0.030(3) 0.013(4) 0.007(4)
O8 0.085(4) 0.117(5) 0.141(4) 0.008(4) 0.033(4) -0.011(4)
N1 0.043(4) 0.066(5) 0.061(5) 0.014(4) 0.030(4) 0.017(4)
N2 0.186(6) 0.174(6) 0.172(6) 0.018(4) 0.026(4) 0.003(4)
N3 0.169(7) 0.171(5) 0.159(4) -0.010(3) 0.020(5) 0.001(5)
C1 0.032(5) 0.068(6) 0.059(6) -0.001(5) 0.020(4) 0.002(5)
C2 0.034(5) 0.074(7) 0.063(6) -0.004(5) 0.023(5) 0.004(4)
C3 0.072(9) 0.056(7) 0.164(15) -0.001(7) 0.078(10) -0.001(5)
C4 0.083(10) 0.060(7) 0.171(16) 0.015(8) 0.077(11) 0.005(6)
C5 0.065(7) 0.064(6) 0.069(7) 0.020(5) 0.033(5) 0.011(5)
C6 0.070(7) 0.073(7) 0.090(8) 0.026(6) 0.041(6) 0.019(6)
C7 0.044(5) 0.067(7) 0.104(8) 0.024(6) 0.041(6) 0.008(5)
C8 0.057(6) 0.074(8) 0.074(7) 0.019(6) 0.033(5) 0.006(6)
C9 0.039 0.031 0.052 0.001 0.024 0.002
C10 0.03 0.042 0.057 0.005 0.02 0.003
C11 0.032 0.047 0.041 -0.009 0.019 0
C12 0.039 0.053 0.034 0.001 0.018 0.006
C13 0.036 0.046 0.042 0.009 0.023 0.007
C14 0.037 0.06 0.059 0.015 0.029 0.011
C15 0.035 0.042 0.066 0.015 0.029 0.008
C16 0.044 0.065 0.037 0.014 0.021 0.011
C17 0.180(6) 0.175(7) 0.169(6) 0.012(4) 0.027(4) -0.005(4)
C18 0.184(6) 0.196(8) 0.198(8) 0.001(5) 0.033(5) -0.001(5)
C19 0.191(7) 0.179(7) 0.171(6) 0.012(5) 0.027(5) -0.006(5)
C20 0.174(7) 0.183(6) 0.154(4) -0.009(4) 0.028(5) -0.003(5)
C21 0.185(7) 0.183(7) 0.164(5) -0.010(4) 0.022(5) -0.002(5)
C22 0.198(8) 0.184(5) 0.192(6) 0.014(4) 0.031(5) -0.004(5)
Pr1A 0.0228 0.0404 0.0439 0.00227 0.0166 -0.00162
Pr1B 0.0228 0.0404 0.0439 -0.00227 0.0166 0.00162
Pr1D 0.0228 0.0404 0.0439 -0.00227 0.0166 0.00162
Pr1G 0.0228 0.0404 0.0439 0.00227 0.0166 -0.00162
O3B 0.034 0.046 0.059 0.007 0.023 0.007
O3D 0.034 0.046 0.059 0.007 0.023 0.007
O4B 0.036 0.042 0.089 0.011 0.029 0.006
O5G 0.034 0.105 0.056 -0.03 0.021 -0.003
O6A 0.048 0.072 0.051 -0.019 0.028 -0.013
loop_
_geom_bond_atom_site_label_1
_geom_bond_atom_site_label_2
_geom_bond_site_symmetry_1
_geom_bond_site_symmetry_2
Pr1 O1 1_555 1_555
O1 C1 1_555 1_555
O2 Pr1 1_555 1_555
O3 C9 1_555 1_555
O4 C9 1_555 1_555
O5 C16 1_555 1_555
O6 C16 1_555 1_555
O7 Pr1 1_555 1_555
O8 Pr1 1_555 1_555
N1 C8 1_555 1_555
N2 C17 1_555 1_555
N3 C20 1_555 1_555
C1 O2 1_555 1_555
C2 C1 1_555 1_555
C3 C2 1_555 1_555
H1 C3 1_555 1_555
C4 C3 1_555 1_555
H2 C4 1_555 1_555
C5 C4 1_555 1_555
C6 C5 1_555 1_555
H3 C6 1_555 1_555
C7 C2 1_555 1_555
H4 C7 1_555 1_555
C8 C5 1_555 1_555
H5 C8 1_555 1_555
C9 C10 1_555 1_555
C10 C11 1_555 1_555
C11 H6 1_555 1_555
C12 C11 1_555 1_555
C13 C12 1_555 1_555
H7 C13 1_555 1_555
C14 N1 1_555 1_555
C15 C10 1_555 1_555
H8 C15 1_555 1_555
C16 C12 1_555 1_555
C17 O7 1_555 1_555
C18 N2 1_555 1_555
H9 C18 1_555 1_555
H10 C18 1_555 1_555
H11 C18 1_555 1_555
C19 N2 1_555 1_555
H12 C19 1_555 1_555
H13 C19 1_555 1_555
H14 C19 1_555 1_555
C20 O8 1_555 1_555
C21 N3 1_555 1_555
H15 C21 1_555 1_555
H16 C21 1_555 1_555
H17 C21 1_555 1_555
C22 N3 1_555 1_555
H18 C22 1_555 1_555
H19 C22 1_555 1_555
H20 C22 1_555 1_555
Pr1A O6 1_555 1_555
Pr1B O3 1_555 1_555
Pr1D O3 1_555 1_555
Pr1G O5 1_555 1_555
O3B Pr1 1_555 1_555
O3D Pr1 1_555 1_555
O4B Pr1 1_555 1_555
O5G Pr1 1_555 1_555
O6A Pr1 1_555 1_555
O4 Pr1B 1_555 1_555
C6 C7 1_555 1_555
C13 C14 1_555 1_555
C14 C15 1_555 1_555

#END
