
#######################################################################
#
#                 Cambridge Crystallographic Data Centre
#                                CCDC 
#
#######################################################################
#
# If this CIF has been generated from an entry in the Cambridge 
# Structural Database, then it will include bibliographic, chemical, 
# crystal, experimental, refinement or atomic coordinate data resulting 
# from the CCDC's data processing and validation procedures.
#
#######################################################################

data_BETGAK
_chemical_formula_moiety         '(C22 H22 La1 N3 O8)n'
_symmetry_cell_setting           monoclinic
_symmetry_space_group_name_H-M   'C 2/c'
_symmetry_Int_Tables_number      15
_space_group_name_Hall           '-C 2yc'
loop_
_symmetry_equiv_pos_site_id
_symmetry_equiv_pos_as_xyz
1 x,y,z
2 -x,y,1/2-z
3 1/2+x,1/2+y,z
4 1/2-x,1/2+y,1/2-z
5 -x,-y,-z
6 x,-y,1/2+z
7 1/2-x,1/2-y,-z
8 1/2+x,1/2-y,1/2+z
_cell_length_a                   29.0739(10)
_cell_length_b                   14.5356(5)
_cell_length_c                   13.5095(5)
_cell_angle_alpha                90
_cell_angle_beta                 100.097(5)
_cell_angle_gamma                90
_cell_volume                     5620.78
loop_
_atom_site_label
_atom_site_type_symbol
_atom_site_fract_x
_atom_site_fract_y
_atom_site_fract_z
_atom_site_U_iso_or_equiv
_atom_site_thermal_displace_type
La1 La 0.319192(9) 0.214354(19) 0.54329(2) 0.0323 Uani
O1 O 0.39617(14) 0.1834(3) 0.4880(4) 0.0616 Uani
O2 O 0.38215(14) 0.3310(3) 0.5015(4) 0.0533 Uani
O3 O 0.79421(12) 0.5667(3) 0.4462(3) 0.0448 Uani
O4 O 0.73180(12) 0.6481(2) 0.4627(3) 0.0397 Uani
O5 O 0.70290(13) 0.2601(3) 0.1348(3) 0.0459 Uani
O6 O 0.77278(13) 0.3256(4) 0.1768(3) 0.0562 Uani
O7 O 0.35934(19) 0.0832(4) 0.6480(5) 0.0778 Uani
O8 O 0.3615(2) 0.2858(4) 0.7000(5) 0.0808 Uani
N1 N 0.59992(15) 0.4182(4) 0.3513(4) 0.0465 Uani
N2 N 0.3841(3) 0.0153(7) 0.8106(7) 0.1057 Uani
N3 N 0.3826(4) 0.3863(8) 0.8285(8) 0.1300 Uani
C1 C 0.40701(19) 0.2668(4) 0.4806(5) 0.0443 Uani
C2 C 0.4521(2) 0.2865(4) 0.4447(5) 0.0470 Uani
C3 C 0.4813(3) 0.2149(5) 0.4260(8) 0.0746 Uani
H1 H 0.4729 0.1543 0.4359 0.0900 Uiso
C4 C 0.5226(3) 0.2336(5) 0.3928(8) 0.0806 Uani
H2 H 0.5414 0.1854 0.3784 0.0970 Uiso
C5 C 0.5361(2) 0.3231(5) 0.3809(5) 0.0542 Uani
C6 C 0.5083(2) 0.3944(5) 0.4009(6) 0.0603 Uani
H3 H 0.5174 0.4549 0.3935 0.0730 Uiso
C7 C 0.4661(2) 0.3754(5) 0.4325(6) 0.0592 Uani
H4 H 0.4471 0.4237 0.4456 0.0710 Uiso
C8 C 0.5830(2) 0.3393(5) 0.3562(6) 0.0569 Uani
H5 H 0.605(3) 0.290(5) 0.351(8) 0.1200 Uiso
C9 C 0.75119(17) 0.5769(3) 0.4306(4) 0.0365 Uani
C10 C 0.72054(17) 0.5048(4) 0.3736(4) 0.0366 Uani
C11 C 0.67373(17) 0.4971(4) 0.3832(5) 0.0407 Uani
H6 H 0.6606 0.5389 0.4223 0.0490 Uiso
C12 C 0.64661(18) 0.4257(4) 0.3330(4) 0.0405 Uani
C13 C 0.66476(17) 0.3690(4) 0.2676(4) 0.0373 Uani
H7 H 0.6459 0.3247 0.2311 0.0450 Uiso
C14 C 0.71171(17) 0.3781(4) 0.2559(4) 0.0373 Uani
C15 C 0.73962(17) 0.4453(4) 0.3111(4) 0.0376 Uani
H8 H 0.7710 0.4502 0.3060 0.0450 Uiso
C16 C 0.73056(19) 0.3167(4) 0.1843(4) 0.0425 Uani
C17 C 0.3687(4) 0.0890(9) 0.7503(9) 0.1148 Uani
C18 C 0.3767(6) -0.0763(10) 0.7537(13) 0.1637 Uani
H9 H 0.3878 -0.1259 0.7985 0.2450 Uiso
H10 H 0.3936 -0.0757 0.6987 0.2450 Uiso
H11 H 0.3440 -0.0847 0.7282 0.2450 Uiso
C19 C 0.3977(5) 0.0270(10) 0.9191(9) 0.1326 Uani
H12 H 0.4075 -0.0312 0.9494 0.1990 Uiso
H13 H 0.3716 0.0497 0.9465 0.1990 Uiso
H14 H 0.4231 0.0701 0.9328 0.1990 Uiso
C20 C 0.3498(5) 0.3246(11) 0.7601(11) 0.1253 Uani
C21 C 0.3665(5) 0.4354(10) 0.9006(11) 0.1376 Uani
H15 H 0.3911 0.4731 0.9358 0.2070 Uiso
H16 H 0.3558 0.3940 0.9471 0.2070 Uiso
H17 H 0.3410 0.4738 0.8700 0.2070 Uiso
C22 C 0.4287(5) 0.3986(10) 0.8009(11) 0.1438 Uani
H18 H 0.4322 0.3566 0.7479 0.2150 Uiso
H19 H 0.4525 0.3867 0.8583 0.2150 Uiso
H20 H 0.4317 0.4606 0.7783 0.2150 Uiso
La1A La 0.680808(9) 0.214354(19) -0.04329(2) 0.0323 Uani
La1B La 0.819192(9) 0.714354(19) 0.54329(2) 0.0323 Uani
La1D La 0.680808(9) 0.785646(19) 0.45671(2) 0.0323 Uani
La1G La 0.819192(9) 0.285646(19) 0.04329(2) 0.0323 Uani
O3B O 0.29421(12) 0.0667(3) 0.4462(3) 0.0448 Uani
O4B O 0.23180(12) 0.1481(2) 0.4627(3) 0.0397 Uani
O4D O 0.26820(12) 0.3519(2) 0.5373(3) 0.0397 Uani
O5A O 0.29710(13) 0.2601(3) 0.3652(3) 0.0459 Uani
O6G O 0.27278(13) 0.1744(4) 0.6768(3) 0.0562 Uani
loop_
_atom_site_aniso_label
_atom_site_aniso_U_11
_atom_site_aniso_U_22
_atom_site_aniso_U_33
_atom_site_aniso_U_23
_atom_site_aniso_U_13
_atom_site_aniso_U_12
La1 0.0203(2) 0.0318(2) 0.0491(2) 0.00183(11) 0.01779(15) -0.00072(10)
O1 0.034(2) 0.047(3) 0.114(4) 0.000(3) 0.041(2) 0.001(2)
O2 0.037(2) 0.047(2) 0.085(3) -0.010(2) 0.036(2) -0.0089(18)
O3 0.0265 0.037 0.075 -0.0075 0.0206 -0.002
O4 0.0298 0.0331 0.062 -0.0033 0.0241 -0.0028
O5 0.036 0.055 0.052 -0.008 0.0224 -0.0046
O6 0.029 0.083 0.062 -0.028 0.0232 -0.007
O7 0.060(3) 0.082(3) 0.092(3) 0.012(3) 0.015(2) 0.027(2)
O8 0.085(3) 0.086(3) 0.070(3) 0.005(2) 0.010(3) -0.014(3)
N1 0.028(2) 0.055(3) 0.062(3) -0.010(2) 0.023(2) -0.011(2)
N2 0.105(4) 0.108(4) 0.103(3) 0.017(3) 0.015(3) 0.002(4)
N3 0.141(4) 0.121(5) 0.126(5) -0.014(4) 0.018(4) -0.001(4)
C1 0.028(3) 0.051(3) 0.058(4) -0.006(3) 0.019(3) -0.005(3)
C2 0.031(3) 0.052(4) 0.063(4) -0.008(3) 0.022(3) -0.011(2)
C3 0.050(4) 0.046(4) 0.143(8) -0.002(4) 0.059(5) -0.004(3)
C4 0.055(4) 0.053(4) 0.148(9) -0.018(5) 0.057(5) -0.006(3)
C5 0.049(3) 0.050(4) 0.072(4) -0.014(3) 0.034(3) -0.011(3)
C6 0.048(4) 0.047(4) 0.094(5) -0.012(4) 0.035(4) -0.010(3)
C7 0.042(3) 0.055(4) 0.087(5) -0.012(3) 0.029(3) -0.006(3)
C8 0.042(3) 0.059(4) 0.077(5) -0.011(3) 0.031(3) -0.005(3)
C9 0.032 0.026 0.057 -0.002 0.023 -0.002
C10 0.029 0.032 0.053 0.002 0.019 -0.001
C11 0.03 0.036 0.063 0 0.027 -0.002
C12 0.028 0.046 0.053 -0.003 0.022 -0.001
C13 0.031 0.036 0.05 -0.002 0.021 -0.006
C14 0.029 0.04 0.048 0 0.021 -0.002
C15 0.022 0.042 0.053 0.002 0.018 0.001
C16 0.033 0.052 0.048 -0.007 0.022 -0.003
C17 0.106(5) 0.129(4) 0.109(4) 0.020(4) 0.018(4) 0.003(4)
C18 0.178(6) 0.145(4) 0.170(6) -0.022(4) 0.036(5) 0.002(5)
C19 0.138(6) 0.139(5) 0.118(4) 0.014(4) 0.015(4) -0.001(4)
C20 0.132(5) 0.127(5) 0.119(5) -0.008(4) 0.028(4) 0.007(4)
C21 0.148(6) 0.136(6) 0.127(5) -0.011(4) 0.019(4) 0.004(4)
C22 0.140(4) 0.143(6) 0.147(6) 0.000(5) 0.021(4) 0.001(4)
La1A 0.0203 0.0318 0.0491 -0.00183 0.01779 0.00072
La1B 0.0203 0.0318 0.0491 0.00183 0.01779 -0.00072
La1D 0.0203 0.0318 0.0491 0.00183 0.01779 -0.00072
La1G 0.0203 0.0318 0.0491 -0.00183 0.01779 0.00072
O3B 0.0265 0.037 0.075 -0.0075 0.0206 -0.002
O4B 0.0298 0.0331 0.062 -0.0033 0.0241 -0.0028
O4D 0.0298 0.0331 0.062 -0.0033 0.0241 -0.0028
O5A 0.036 0.055 0.052 0.008 0.0224 0.0046
O6G 0.029 0.083 0.062 0.028 0.0232 0.007
loop_
_geom_bond_atom_site_label_1
_geom_bond_atom_site_label_2
_geom_bond_site_symmetry_1
_geom_bond_site_symmetry_2
La1 O1 1_555 1_555
O1 C1 1_555 1_555
O2 La1 1_555 1_555
O3 C9 1_555 1_555
O4 C9 1_555 1_555
O5 C16 1_555 1_555
O6 C16 1_555 1_555
O7 La1 1_555 1_555
O8 La1 1_555 1_555
N1 C8 1_555 1_555
N2 C17 1_555 1_555
N3 C20 1_555 1_555
C1 O2 1_555 1_555
C2 C1 1_555 1_555
C3 C2 1_555 1_555
H1 C3 1_555 1_555
C4 C3 1_555 1_555
H2 C4 1_555 1_555
C5 C4 1_555 1_555
C6 C5 1_555 1_555
H3 C6 1_555 1_555
C7 C2 1_555 1_555
H4 C7 1_555 1_555
C8 C5 1_555 1_555
H5 C8 1_555 1_555
C9 C10 1_555 1_555
C10 C11 1_555 1_555
C11 H6 1_555 1_555
C12 N1 1_555 1_555
C13 C12 1_555 1_555
H7 C13 1_555 1_555
C14 C13 1_555 1_555
C15 C10 1_555 1_555
H8 C15 1_555 1_555
C16 C14 1_555 1_555
C17 O7 1_555 1_555
C18 N2 1_555 1_555
H9 C18 1_555 1_555
H10 C18 1_555 1_555
H11 C18 1_555 1_555
C19 N2 1_555 1_555
H12 C19 1_555 1_555
H13 C19 1_555 1_555
H14 C19 1_555 1_555
C20 O8 1_555 1_555
C21 N3 1_555 1_555
H15 C21 1_555 1_555
H16 C21 1_555 1_555
H17 C21 1_555 1_555
C22 N3 1_555 1_555
H18 C22 1_555 1_555
H19 C22 1_555 1_555
H20 C22 1_555 1_555
La1A O5 1_555 1_555
La1B O3 1_555 1_555
La1D O4 1_555 1_555
La1G O6 1_555 1_555
O3B La1 1_555 1_555
O4B La1 1_555 1_555
O4D La1 1_555 1_555
O5A La1 1_555 1_555
O6G La1 1_555 1_555
O4 La1B 1_555 1_555
C6 C7 1_555 1_555
C11 C12 1_555 1_555
C14 C15 1_555 1_555

#END
