
#######################################################################
#
#                 Cambridge Crystallographic Data Centre
#                                CCDC 
#
#######################################################################
#
# If this CIF has been generated from an entry in the Cambridge 
# Structural Database, then it will include bibliographic, chemical, 
# crystal, experimental, refinement or atomic coordinate data resulting 
# from the CCDC's data processing and validation procedures.
#
#######################################################################

data_TEDSIG
_chemical_formula_moiety         '(C46 H52 N8 O12 Zn2)n'
_symmetry_cell_setting           monoclinic
_symmetry_space_group_name_H-M   'P 21/n'
_symmetry_Int_Tables_number      14
_space_group_name_Hall           '-P 2yn'
loop_
_symmetry_equiv_pos_site_id
_symmetry_equiv_pos_as_xyz
1 x,y,z
2 1/2-x,1/2+y,1/2-z
3 -x,-y,-z
4 1/2+x,1/2-y,1/2+z
_cell_length_a                   10.1841(11)
_cell_length_b                   12.0386(13)
_cell_length_c                   18.830(2)
_cell_angle_alpha                90
_cell_angle_beta                 99.159(2)
_cell_angle_gamma                90
_cell_volume                     2279.17
loop_
_atom_site_label
_atom_site_type_symbol
_atom_site_fract_x
_atom_site_fract_y
_atom_site_fract_z
O1 O 0.02755(17) -0.03771(15) 0.34551(9)
C1 C -0.0748(3) -0.0801(2) 0.30800(14)
O2 O -0.49404(17) -0.30815(15) 0.23691(8)
C2 C -0.4771(2) -0.3236(2) 0.30580(12)
Zn1 Zn 0.12061(3) 0.10079(2) 0.326460(13)
N1 N 0.2986(2) 0.08523(16) 0.29498(11)
O3 O 1.37485(19) -0.35353(18) 0.07317(9)
C3 C -0.2726(2) -0.2033(2) 0.31127(12)
H1 H -0.2912 -0.1966 0.2615
O4 O -0.1071(2) -0.06895(19) 0.24205(10)
C4 C -0.1386(2) -0.1543(2) 0.42382(13)
H2 H -0.0675 -0.1155 0.4495
N2 N 0.4437(2) 0.03856(19) 0.22560(11)
O5 O 1.2307(3) -0.2157(2) 0.07162(10)
C5 C -0.2204(2) -0.2180(2) 0.46025(12)
C6 C -0.1627(2) -0.1484(2) 0.34887(12)
C7 C -0.3551(2) -0.2679(2) 0.34671(12)
C8 C 0.3274(2) 0.0106(2) 0.24739(13)
C9 C -0.3261(2) -0.2764(2) 0.42119(12)
H3 H -0.3782 -0.3218 0.4454
C10 C 0.4573(3) 0.0305(3) 0.09587(15)
H4 H 0.3620 0.0190 0.0840
H5 H 0.4735 0.1099 0.0969
C11 C 1.2956(3) -0.2809(2) 0.04173(13)
C12 C 0.3988(2) 0.1631(2) 0.30284(14)
H6 H 0.4041 0.2248 0.3328
C15 C 0.5256(3) -0.0221(3) 0.03736(14)
H8 H 0.5121 -0.1019 0.0376
H9 H 0.6205 -0.0084 0.0485
C17 C 0.5056(3) -0.0171(3) 0.16951(14)
H12 H 0.6015 -0.0089 0.1806
H13 H 0.4852 -0.0958 0.1694
C18 C 0.4880(3) 0.1355(3) 0.26018(16)
H14 H 0.5648 0.1745 0.2551
C19 C 0.2484(3) -0.0888(2) 0.22370(17)
H15 H 0.1592 -0.0791 0.2330
H16 H 0.2470 -0.0997 0.1731
H17 H 0.2875 -0.1525 0.2495
O6 O 0.94875(19) -0.12293(17) -0.16150(10)
O1C O 1.52755(17) -0.46229(15) -0.15449(9)
O1B O 0.97245(17) 0.03771(15) -0.34551(9)
C1C C 1.4252(3) -0.4199(2) -0.19200(14)
O2A O -0.00596(17) 0.19185(15) 0.26309(8)
O2C O 1.00596(17) -0.19185(15) -0.26309(8)
C2C C 1.0229(2) -0.1764(2) -0.19420(12)
Zn1A Zn -0.62061(3) -0.39921(2) 0.173540(13)
Zn1C Zn 1.62061(3) -0.60079(2) -0.173540(13)
Zn1B Zn 0.87939(3) -0.10079(2) -0.326460(13)
Zn1A_2 Zn 1.37939(3) -0.39921(2) 0.173540(13)
Zn1B_2 Zn -0.12061(3) -0.10079(2) 0.673540(13)
N1B N 0.7014(2) -0.08523(16) -0.29498(11)
O3C O 0.87485(19) -0.14647(18) -0.42683(9)
O3A O 0.12515(19) 0.14647(18) 0.42683(9)
O3C_2 O -0.12515(19) -0.14647(18) 0.57317(9)
C3C C 1.2274(2) -0.2967(2) -0.18873(12)
H1C H 1.2088 -0.3034 -0.2385
O4C O 1.3929(2) -0.43105(19) -0.25795(10)
C4C C 1.3614(2) -0.3457(2) -0.07618(13)
H2C H 1.4325 -0.3845 -0.0505
N2B N 0.5563(2) -0.03856(19) -0.22560(11)
O5C O -0.2693(3) -0.2843(2) 0.57162(10)
C5C C 1.2796(2) -0.2820(2) -0.03975(12)
C6C C 1.3373(2) -0.3516(2) -0.15113(12)
C7C C 1.1449(2) -0.2321(2) -0.15329(12)
C8B C 0.6726(2) -0.0106(2) -0.24739(13)
C9C C 1.1739(2) -0.2236(2) -0.07881(12)
H3C H 1.1218 -0.1782 -0.0546
C10B C 0.5427(3) -0.0305(3) -0.09587(15)
H4B H 0.6380 -0.0190 -0.0840
H5B H 0.5265 -0.1099 -0.0969
C11C C -0.2044(3) -0.2191(2) 0.54173(13)
C12B C 0.6012(2) -0.1631(2) -0.30284(14)
H6B H 0.5959 -0.2248 -0.3328
C15B C 0.4744(3) 0.0221(3) -0.03736(14)
H8B H 0.4879 0.1019 -0.0376
H9B H 0.3795 0.0084 -0.0485
C17B C 0.4944(3) 0.0171(3) -0.16951(14)
H12B H 0.3985 0.0089 -0.1806
H13B H 0.5148 0.0958 -0.1694
C18B C 0.5120(3) -0.1355(3) -0.26018(16)
H14B H 0.4352 -0.1745 -0.2551
C19B C 0.7516(3) 0.0888(2) -0.22370(17)
H15B H 0.8408 0.0791 -0.2330
H16B H 0.7530 0.0997 -0.1731
H17B H 0.7125 0.1525 -0.2495
O6C O -0.55125(19) -0.37707(17) 0.33850(10)
N3 N -0.2040(2) -0.2439(2) 0.01092(12)
N4 N -0.1594(3) -0.1580(2) 0.11241(13)
C13 C -0.0992(3) -0.0962(2) 0.06163(17)
H7 H -0.0488 -0.0318 0.0708
C14 C -0.2182(3) -0.2450(3) 0.07895(16)
C16 C -0.1237(3) -0.3986(3) -0.05719(17)
H10 H -0.1559 -0.4521 -0.0944
H11 H -0.0580 -0.3527 -0.0753
C20 C -0.1284(3) -0.1473(3) -0.00055(17)
H18 H -0.1043 -0.1249 -0.0440
C21 C -0.2930(3) -0.3281(3) 0.11279(19)
H19 H -0.3653 -0.3553 0.0782
H20 H -0.3274 -0.2949 0.1524
H21 H -0.2352 -0.3887 0.1300
C22 C -0.0545(3) -0.4616(3) 0.00756(18)
H22 H -0.0170 -0.4085 0.0439
H23 H -0.1203 -0.5049 0.0274
C23 C -0.2391(4) -0.3250(3) -0.04570(17)
H24 H -0.2719 -0.2865 -0.0902
H25 H -0.3106 -0.3712 -0.0339
N3B N 0.2040(2) -0.7561(2) -0.01092(12)
N4B N 0.1594(3) -0.8420(2) -0.11241(13)
C13B C 0.0992(3) -0.9038(2) -0.06163(17)
H7B H 0.0488 -0.9682 -0.0708
C14B C 0.2182(3) -0.7550(3) -0.07895(16)
C16B C 0.1237(3) -0.6014(3) 0.05719(17)
H10B H 0.1559 -0.5479 0.0944
H11B H 0.0580 -0.6473 0.0753
C20B C 0.1284(3) -0.8527(3) 0.00055(17)
H18B H 0.1043 -0.8751 0.0440
C21B C 0.2930(3) -0.6719(3) -0.11279(19)
H19B H 0.3653 -0.6447 -0.0782
H20B H 0.3274 -0.7051 -0.1524
H21B H 0.2352 -0.6113 -0.1300
C22B C 0.0545(3) -0.5384(3) -0.00756(18)
H22B H 0.0170 -0.5915 -0.0439
H23B H 0.1203 -0.4951 -0.0274
C23B C 0.2391(4) -0.6750(3) 0.04570(17)
H24B H 0.2719 -0.7135 0.0902
H25B H 0.3106 -0.6288 0.0339
loop_
_geom_bond_atom_site_label_1
_geom_bond_atom_site_label_2
_geom_bond_site_symmetry_1
_geom_bond_site_symmetry_2
O1 C1 1_555 1_555
C1 O4 1_555 1_555
O2 C2 1_555 1_555
C2 C7 1_555 1_555
Zn1 O1 1_555 1_555
N1 Zn1 1_555 1_555
O3 C11 1_555 1_555
C3 H1 1_555 1_555
C4 H2 1_555 1_555
N2 C8 1_555 1_555
O5 C11 1_555 1_555
C5 C4 1_555 1_555
C6 C1 1_555 1_555
N3 C14 1_555 1_555
C7 C3 1_555 1_555
C8 N1 1_555 1_555
N4 C13 1_555 1_555
C9 C5 1_555 1_555
H3 C9 1_555 1_555
C10 H4 1_555 1_555
H5 C10 1_555 1_555
C11 C5C 1_555 1_555
C12 N1 1_555 1_555
H6 C12 1_555 1_555
C13 H7 1_555 1_555
C14 N4 1_555 1_555
C15 C10 1_555 1_555
H8 C15 1_555 1_555
H9 C15 1_555 1_555
C16 H10 1_555 1_555
H11 C16 1_555 1_555
C17 N2 1_555 1_555
H12 C17 1_555 1_555
H13 C17 1_555 1_555
C18 N2 1_555 1_555
H14 C18 1_555 1_555
C19 C8 1_555 1_555
H15 C19 1_555 1_555
H16 C19 1_555 1_555
H17 C19 1_555 1_555
C20 N3 1_555 1_555
H18 C20 1_555 1_555
C21 C14 1_555 1_555
H19 C21 1_555 1_555
H20 C21 1_555 1_555
H21 C21 1_555 1_555
C22 C16 1_555 1_555
H22 C22 1_555 1_555
H23 C22 1_555 1_555
C23 N3 1_555 1_555
H24 C23 1_555 1_555
H25 C23 1_555 1_555
O6 C2C 1_555 1_555
O1C C1C 1_555 1_555
O1B Zn1B 1_555 1_555
C1C O4C 1_555 1_555
O2A Zn1 1_555 1_555
O2C C2C 1_555 1_555
C2C C7C 1_555 1_555
Zn1A O2 1_555 1_555
Zn1C O1C 1_555 1_555
Zn1B O2C 1_555 1_555
Zn1A_2 O3 1_555 1_555
Zn1B_2 O3C_2 1_555 1_555
N1B Zn1B 1_555 1_555
O3C Zn1B 1_555 1_555
O3A Zn1 1_555 1_555
O3C_2 C11C 1_555 1_555
C3C H1C 1_555 1_555
C4C H2C 1_555 1_555
N2B C8B 1_555 1_555
O5C C11C 1_555 1_555
C5C C4C 1_555 1_555
C6C C1C 1_555 1_555
N3B C14B 1_555 1_555
C7C C3C 1_555 1_555
C8B N1B 1_555 1_555
N4B C13B 1_555 1_555
C9C C5C 1_555 1_555
H3C C9C 1_555 1_555
C10B H4B 1_555 1_555
H5B C10B 1_555 1_555
C11C C5 1_555 1_555
C12B N1B 1_555 1_555
H6B C12B 1_555 1_555
C13B H7B 1_555 1_555
C14B N4B 1_555 1_555
C15B C15 1_555 1_555
H8B C15B 1_555 1_555
H9B C15B 1_555 1_555
C16B H10B 1_555 1_555
H11B C16B 1_555 1_555
C17B N2B 1_555 1_555
H12B C17B 1_555 1_555
H13B C17B 1_555 1_555
C18B N2B 1_555 1_555
H14B C18B 1_555 1_555
C19B C8B 1_555 1_555
H15B C19B 1_555 1_555
H16B C19B 1_555 1_555
H17B C19B 1_555 1_555
C20B N3B 1_555 1_555
H18B C20B 1_555 1_555
C21B C14B 1_555 1_555
H19B C21B 1_555 1_555
H20B C21B 1_555 1_555
H21B C21B 1_555 1_555
C22B C22 1_555 1_555
H22B C22B 1_555 1_555
H23B C22B 1_555 1_555
C23B N3B 1_555 1_555
H24B C23B 1_555 1_555
H25B C23B 1_555 1_555
O6C C2 1_555 1_555
C3 C6 1_555 1_555
C4 C6 1_555 1_555
C7 C9 1_555 1_555
C10 C17 1_555 1_555
C12 C18 1_555 1_555
C13 C20 1_555 1_555
C16 C23 1_555 1_555
C3C C6C 1_555 1_555
C4C C6C 1_555 1_555
C7C C9C 1_555 1_555
C10B C15B 1_555 1_555
C10B C17B 1_555 1_555
C12B C18B 1_555 1_555
C13B C20B 1_555 1_555
C16B C22B 1_555 1_555
C16B C23B 1_555 1_555

#END
