
#######################################################################
#
#                 Cambridge Crystallographic Data Centre
#                                CCDC 
#
#######################################################################
#
# If this CIF has been generated from an entry in the Cambridge 
# Structural Database, then it will include bibliographic, chemical, 
# crystal, experimental, refinement or atomic coordinate data resulting 
# from the CCDC's data processing and validation procedures.
#
#######################################################################

data_COVJAA
_chemical_formula_moiety         '(C9 H11 N5 Ni1 O2)n'
_symmetry_cell_setting           tetragonal
_symmetry_space_group_name_H-M   'I 41/a'
_symmetry_Int_Tables_number      88
_space_group_name_Hall           '-I 4ad'
loop_
_symmetry_equiv_pos_site_id
_symmetry_equiv_pos_as_xyz
1 x,y,z
2 -x,1/2-y,z
3 3/4-y,1/4+x,1/4+z
4 1/4+y,1/4-x,1/4+z
5 1/2+x,1/2+y,1/2+z
6 1/2-x,-y,1/2+z
7 1/4-y,3/4+x,3/4+z
8 3/4+y,3/4-x,3/4+z
9 -x,-y,-z
10 x,1/2+y,-z
11 1/4+y,3/4-x,3/4-z
12 3/4-y,3/4+x,3/4-z
13 1/2-x,1/2-y,1/2-z
14 1/2+x,y,1/2-z
15 3/4+y,1/4-x,1/4-z
16 1/4-y,1/4+x,1/4-z
_cell_length_a                   15.1973(5)
_cell_length_b                   15.1973(5)
_cell_length_c                   22.1529(8)
_cell_angle_alpha                90
_cell_angle_beta                 90
_cell_angle_gamma                90
_cell_volume                     5116.39
loop_
_atom_site_label
_atom_site_type_symbol
_atom_site_fract_x
_atom_site_fract_y
_atom_site_fract_z
_atom_site_U_iso_or_equiv
_atom_site_thermal_displace_type
Ni1 Ni 0.96096(9) 0.01341(10) 0.05785(6) 0.0311 Uani
N1 N 0.8800(7) -0.0342(6) 0.2846(4) 0.0560 Uani
C1 C 0.8343(7) 0.0325(7) 0.3064(4) 0.0470 Uani
H1 H 0.8183 0.0288 0.3468 0.0560 Uiso
N2 N 0.8079(5) 0.1060(5) 0.2763(3) 0.0320 Uani
C2 C 0.8368(5) 0.1070(5) 0.2179(3) 0.0230 Uani
C3 C 0.8834(5) 0.0373(5) 0.1900(3) 0.0263 Uani
C4 C 0.9048(8) -0.0344(7) 0.2255(5) 0.0543 Uani
N3 N 0.9501(10) -0.1037(7) 0.2046(5) 0.0963 Uani
H2 H 0.9628 -0.1466 0.2283 0.1160 Uiso
H3 H 0.9664 -0.1052 0.1674 0.1160 Uiso
N4 N 0.9011(4) 0.0639(4) 0.1320(3) 0.0237 Uani
C5 C 0.8668(6) 0.1430(6) 0.1288(4) 0.0397 Uani
H4 H 0.8692 0.1764 0.0937 0.0480 Uiso
N5 N 0.8283(4) 0.1729(4) 0.1791(3) 0.0273 Uani
O1 O 0.9235(5) 0.1098(5) -0.0001(3) 0.0460 Uani
O2 O 0.9832(4) 0.0982(4) -0.0892(3) 0.0440 Uani
C6 C 0.9330(5) 0.1334(5) -0.0531(4) 0.0253 Uani
C7 C 0.8766(7) 0.2073(6) -0.0766(6) 0.0553 Uani
H5 H 0.9133 0.2505 -0.0968 0.0670 Uiso
H6 H 0.8470 0.2361 -0.0433 0.0670 Uiso
C8 C 0.8039(11) 0.1689(11) -0.1240(12) 0.1413 Uani
H7 H 0.8287 0.1252 -0.1510 0.1680 Uiso
H8 H 0.7760 0.2152 -0.1472 0.1680 Uiso
C9 C 0.7318(15) 0.1220(12) -0.0707(10) 0.1327 Uani
H9 H 0.7136 0.0649 -0.0844 0.2020 Uiso
H10 H 0.6812 0.1591 -0.0660 0.2020 Uiso
H11 H 0.7615 0.1164 -0.0326 0.2020 Uiso
Ni1B Ni 0.73659(10) 0.21096(9) 0.30785(6) 0.0311 Uani
Ni1H Ni 1.03904(9) -0.01341(10) -0.05785(6) 0.0311 Uani
Ni1N Ni 0.76341(10) 0.28904(9) 0.19215(6) 0.0311 Uani
N2G N 0.8560(5) -0.0579(5) 0.0263(3) 0.0320 Uani
N5O N 1.0771(4) 0.0783(4) 0.0709(3) 0.0273 Uani
O2H O 1.0168(4) -0.0982(4) 0.0892(3) 0.0440 Uani
loop_
_atom_site_aniso_label
_atom_site_aniso_U_11
_atom_site_aniso_U_22
_atom_site_aniso_U_33
_atom_site_aniso_U_23
_atom_site_aniso_U_13
_atom_site_aniso_U_12
Ni1 0.0257(8) 0.0457(9) 0.0220(8) -0.0180(6) 0.0091(5) -0.0085(6)
N1 0.079(7) 0.044(5) 0.045(5) 0.008(4) 0.015(5) 0.004(5)
C1 0.063(7) 0.047(6) 0.031(5) 0.003(4) 0.005(5) -0.004(5)
N2 0.041(4) 0.029(4) 0.026(4) 0.009(3) 0.008(3) 0.009(3)
C2 0.013(3) 0.035(4) 0.021(4) -0.006(3) 0.001(3) -0.002(3)
C3 0.022(4) 0.036(4) 0.021(4) 0.000(3) 0.001(3) 0.004(3)
C4 0.078(8) 0.046(6) 0.039(6) -0.001(5) 0.019(5) 0.017(5)
N3 0.177(14) 0.054(6) 0.058(7) 0.010(5) 0.047(8) 0.053(8)
N4 0.026(3) 0.031(4) 0.014(3) -0.002(3) 0.006(3) 0.001(3)
C5 0.048(5) 0.041(5) 0.030(5) 0.007(4) 0.022(4) 0.004(4)
N5 0.031(4) 0.031(4) 0.020(3) 0.002(3) 0.011(3) 0.006(3)
O1 0.051(4) 0.056(4) 0.031(3) 0.011(3) -0.007(3) -0.020(3)
O2 0.033(3) 0.041(4) 0.058(4) -0.021(3) 0.013(3) 0.001(3)
C6 0.027(4) 0.014(4) 0.035(5) 0.000(3) 0.003(3) -0.008(3)
C7 0.038(5) 0.018(4) 0.110(10) 0.016(5) -0.014(6) 0.001(4)
C8 0.066(10) 0.078(11) 0.28(3) 0.092(15) -0.034(14) 0.002(8)
C9 0.16(2) 0.068(11) 0.17(2) -0.021(13) -0.053(17) 0.022(12)
Ni1B 0.0457 0.0257 0.022 0.0091 0.018 0.0085
Ni1H 0.0257 0.0457 0.022 -0.018 0.0091 -0.0085
Ni1N 0.0457 0.0257 0.022 0.0091 0.018 0.0085
N2G 0.029 0.041 0.026 -0.008 0.009 -0.009
N5O 0.031 0.031 0.02 -0.011 0.002 -0.006
O2H 0.033 0.041 0.058 -0.021 0.013 0.001
loop_
_geom_bond_atom_site_label_1
_geom_bond_atom_site_label_2
_geom_bond_site_symmetry_1
_geom_bond_site_symmetry_2
Ni1 N4 1_555 1_555
N1 C1 1_555 1_555
C1 H1 1_555 1_555
N2 C1 1_555 1_555
C2 N2 1_555 1_555
C3 C2 1_555 1_555
C4 N1 1_555 1_555
N3 C4 1_555 1_555
H2 N3 1_555 1_555
H3 N3 1_555 1_555
N4 C3 1_555 1_555
C5 N4 1_555 1_555
H4 C5 1_555 1_555
N5 C2 1_555 1_555
O1 Ni1 1_555 1_555
O2 C6 1_555 1_555
C6 O1 1_555 1_555
C7 C6 1_555 1_555
H5 C7 1_555 1_555
H6 C7 1_555 1_555
C8 C7 1_555 1_555
H7 C8 1_555 1_555
H8 C8 1_555 1_555
C9 C8 1_555 1_555
H9 C9 1_555 1_555
H10 C9 1_555 1_555
H11 C9 1_555 1_555
Ni1B N2 1_555 1_555
Ni1H Ni1 1_555 1_555
Ni1N N5 1_555 1_555
N2G Ni1 1_555 1_555
N5O Ni1 1_555 1_555
O2H Ni1 1_555 1_555
C3 C4 1_555 1_555
C5 N5 1_555 1_555
O2 Ni1H 1_555 1_555
Ni1B Ni1N 1_555 1_555

#END
