
#######################################################################
#
#                 Cambridge Crystallographic Data Centre
#                                CCDC 
#
#######################################################################
#
# If this CIF has been generated from an entry in the Cambridge 
# Structural Database, then it will include bibliographic, chemical, 
# crystal, experimental, refinement or atomic coordinate data resulting 
# from the CCDC's data processing and validation procedures.
#
#######################################################################

data_ASUBIB
_chemical_formula_moiety         '(C60 H59 Eu4 N9 O34)n'
_symmetry_cell_setting           triclinic
_symmetry_space_group_name_H-M   'P -1'
_symmetry_Int_Tables_number      2
_space_group_name_Hall           '-P 1'
loop_
_symmetry_equiv_pos_site_id
_symmetry_equiv_pos_as_xyz
1 x,y,z
2 -x,-y,-z
_cell_length_a                   10.944(2)
_cell_length_b                   11.129(2)
_cell_length_c                   15.998(3)
_cell_angle_alpha                75.57(3)
_cell_angle_beta                 82.96(3)
_cell_angle_gamma                75.56(3)
_cell_volume                     1823.61
loop_
_atom_site_label
_atom_site_type_symbol
_atom_site_fract_x
_atom_site_fract_y
_atom_site_fract_z
O1 O 0.3596(7) 0.2866(8) 0.7270(5)
O2 O 0.5739(7) 0.9960(7) 0.2435(5)
O3 O -0.0205(7) 1.0737(7) 0.0845(4)
O4 O 0.1475(7) 1.0697(7) -0.0077(5)
C1 C 0.0935(10) 1.0746(10) 0.0652(7)
O5 O 0.2264(7) 0.2020(7) 0.8262(5)
O6 O 0.5714(7) 1.0200(8) 0.1037(5)
C2 C 0.5144(11) 1.0233(11) 0.1748(8)
C3 C 0.3740(10) 1.0625(11) 0.1831(7)
C4 C 0.3026(11) 1.0598(11) 0.1192(7)
H1 H 0.3408 1.0426 0.0670
C5 C 0.2772(10) 0.2909(11) 0.7874(7)
C6 C 0.2351(11) 0.4141(12) 0.8165(7)
C7 C 0.2777(10) 0.5219(11) 0.7724(7)
H2 H 0.3327 0.5184 0.7234
O7 O -0.3892(7) 1.1174(8) 0.5418(5)
O8 O -0.3798(7) 1.1832(8) 0.6582(5)
C8 C -0.3293(10) 1.1571(11) 0.5896(7)
C9 C -0.1959(10) 1.1629(11) 0.5637(7)
C10 C -0.1493(11) 1.1639(11) 0.4798(7)
H3 H -0.2029 1.1669 0.4381
Eu1 Eu 0.41255(5) 1.16000(5) 0.62672(3)
Eu2 Eu 0.20768(4) 0.99481(5) 0.86643(3)
O9 O 0.0683(7) 1.0952(8) 0.7493(5)
O10 O 0.3617(7) 1.1944(7) 0.4756(4)
H4 H 0.3751 1.1229 0.4619
H5 H 0.2844 1.2321 0.4702
O11 O 0.4171(8) 1.3751(8) 0.5546(5)
H6 H 0.4402 1.3785 0.5015
H7 H 0.3436 1.4225 0.5589
O12 O 0.2448(8) 0.8472(8) 0.7843(5)
N1 N 0.0198(9) 1.1544(10) 0.3698(6)
O13 O 0.4200(7) 0.9558(8) 0.5984(5)
H8 H 0.4338 0.8985 0.6447
H9 H 0.3498 0.9569 0.5803
O14 O 0.3579(9) 0.7460(8) 0.6899(6)
C11 C 0.2853(11) 0.7476(11) 0.7553(7)
O15 O 0.2791(8) 0.8048(8) 0.9722(5)
N2 N 0.1364(8) 1.1390(10) 0.3558(6)
C12 C 0.1563(12) 0.6378(12) 0.8734(7)
H10 H 0.1302 0.7123 0.8936
C13 C 0.2404(10) 0.6320(11) 0.7998(7)
C14 C 0.0103(10) 1.1553(11) 0.6038(7)
O16 O 0.2034(7) 1.1661(9) 0.6468(5)
C15 C 0.1828(10) 1.1219(12) 0.2713(7)
N3 N 0.0268(12) 0.5454(11) 0.9855(8)
C16 C 0.1135(11) 1.1107(12) 0.2084(7)
H11 H 0.0262 1.1222 0.2176
C17 C 0.0596(10) 1.1580(11) 0.5211(7)
H12 H 0.1445 1.1583 0.5064
C18 C 0.1002(10) 1.1389(11) 0.6727(7)
C19 C -0.1175(11) 1.1594(11) 0.6248(7)
H13 H -0.1501 1.1597 0.6813
C20 C 0.1537(11) 0.4168(11) 0.8879(7)
H14 H 0.1259 0.3444 0.9177
C21 C -0.0224(10) 1.1603(11) 0.4576(7)
C22 C 0.1704(10) 1.0836(11) 0.1344(7)
C23 C 0.3145(10) 1.0960(11) 0.2599(7)
H15 H 0.3625 1.1007 0.3026
C24 C 0.1135(12) 0.5293(12) 0.9151(8)
C25 C 0.1471(16) 0.7619(17) 1.1059(11)
H16 H 0.0958 0.8471 1.0972
H17 H 0.1601 0.7287 1.1664
H18 H 0.1052 0.7091 1.0859
N4 N 0.3751(14) 0.7203(14) 1.0990(9)
C26 C 0.2724(17) 0.7633(17) 1.0562(11)
C27 C 0.4991(16) 0.7296(17) 1.0497(11)
H19 H 0.5122 0.6824 1.0054
H20 H 0.5661 0.6950 1.0884
H21 H 0.4985 0.8173 1.0237
C28 C 0.3694(16) 0.7008(17) 1.1882(10)
H22 H 0.3316 0.7799 1.2046
H23 H 0.4533 0.6693 1.2080
H24 H 0.3193 0.6397 1.2138
O1A O -0.3596(7) 0.7134(8) 1.2730(5)
O5A O -0.2264(7) 0.7980(7) 1.1738(5)
C5A C -0.2772(10) 0.7091(11) 1.2126(7)
C6A C -0.2351(11) 0.5859(12) 1.1835(7)
C7A C -0.2777(10) 0.4781(11) 1.2276(7)
H2A H -0.3327 0.4816 1.2766
O12A O -0.2448(8) 0.1528(8) 1.2157(5)
O14A O -0.3579(9) 0.2540(8) 1.3101(6)
C11A C -0.2853(11) 0.2524(11) 1.2447(7)
C12A C -0.1563(12) 0.3622(12) 1.1266(7)
H10A H -0.1302 0.2877 1.1064
C13A C -0.2404(10) 0.3680(11) 1.2002(7)
N3A N -0.0268(12) 0.4546(11) 1.0145(8)
C20A C -0.1537(11) 0.5832(11) 1.1121(7)
H14A H -0.1259 0.6556 1.0823
C24A C -0.1135(12) 0.4707(12) 1.0849(8)
O2A O -0.5739(7) 0.0040(7) 1.7565(5)
O3A O 0.0205(7) -0.0737(7) 1.9155(4)
O4A O -0.1475(7) -0.0697(7) 2.0077(5)
C1A C -0.0935(10) -0.0746(10) 1.9348(7)
O6A O -0.5714(7) -0.0200(8) 1.8963(5)
C2A C -0.5144(11) -0.0233(11) 1.8252(8)
C3A C -0.3740(10) -0.0625(11) 1.8169(7)
C4A C -0.3026(11) -0.0598(11) 1.8808(7)
H1A H -0.3408 -0.0426 1.9330
O7A O 0.3892(7) -0.1174(8) 1.4582(5)
O8A O 0.3798(7) -0.1832(8) 1.3418(5)
C8A C 0.3293(10) -0.1571(11) 1.4104(7)
C9A C 0.1959(10) -0.1629(11) 1.4363(7)
C10A C 0.1493(11) -0.1639(11) 1.5202(7)
H3A H 0.2029 -0.1669 1.5619
Eu1A Eu -0.41255(5) -0.16000(5) 1.37328(3)
Eu2A Eu -0.20768(4) 0.00519(5) 1.13357(3)
O9A O -0.0683(7) -0.0952(8) 1.2507(5)
O10A O -0.3617(7) -0.1944(7) 1.5244(4)
H4A H -0.3751 -0.1229 1.5381
H5A H -0.2844 -0.2321 1.5298
O11A O -0.4171(8) -0.3751(8) 1.4454(5)
H6A H -0.4402 -0.3785 1.4985
H7A H -0.3436 -0.4225 1.4411
N1A N -0.0198(9) -0.1544(10) 1.6302(6)
O13A O -0.4200(7) 0.0442(8) 1.4016(5)
H8A H -0.4338 0.1015 1.3553
H9A H -0.3498 0.0431 1.4197
O15A O -0.2791(8) 0.1952(8) 1.0278(5)
N2A N -0.1364(8) -0.1390(10) 1.6442(6)
C14A C -0.0103(10) -0.1553(11) 1.3962(7)
O16A O -0.2034(7) -0.1661(9) 1.3532(5)
C15A C -0.1828(10) -0.1219(12) 1.7287(7)
C16A C -0.1135(11) -0.1107(12) 1.7916(7)
H11A H -0.0262 -0.1222 1.7824
C17A C -0.0596(10) -0.1580(11) 1.4789(7)
H12A H -0.1445 -0.1583 1.4936
C18A C -0.1002(10) -0.1389(11) 1.3273(7)
C19A C 0.1175(11) -0.1594(11) 1.3752(7)
H13A H 0.1501 -0.1597 1.3187
C21A C 0.0224(10) -0.1603(11) 1.5424(7)
C22A C -0.1704(10) -0.0836(11) 1.8656(7)
C23A C -0.3145(10) -0.0960(11) 1.7401(7)
H15A H -0.3625 -0.1007 1.6974
C25A C -0.1471(16) 0.2381(17) 0.8941(11)
H16A H -0.0958 0.1529 0.9028
H17A H -0.1601 0.2713 0.8336
H18A H -0.1052 0.2909 0.9141
N4A N -0.3751(14) 0.2797(14) 0.9010(9)
C26A C -0.2724(17) 0.2367(17) 0.9438(11)
C27A C -0.4991(16) 0.2704(17) 0.9503(11)
H19A H -0.5122 0.3176 0.9946
H20A H -0.5661 0.3050 0.9116
H21A H -0.4985 0.1827 0.9763
C28A C -0.3694(16) 0.2992(17) 0.8118(10)
H22A H -0.3316 0.2201 0.7954
H23A H -0.4533 0.3307 0.7920
H24A H -0.3193 0.3603 0.7862
O1_2 O 0.3596(7) 1.2866(8) 0.7270(5)
O1A_2 O -0.3596(7) -0.2866(8) 1.2730(5)
O2_2 O -0.4261(7) -0.0040(7) 1.2435(5)
O2A_2 O 0.4261(7) 1.0040(7) 0.7565(5)
O3_2 O -0.0205(7) 0.0737(7) 1.0845(4)
O3A_2 O 0.0205(7) 0.9263(7) 0.9155(4)
O4_2 O 0.1475(7) 1.0697(7) 0.9923(5)
O4A_2 O -0.1475(7) -0.0697(7) 1.0077(5)
O5_2 O 0.2264(7) 1.2020(7) 0.8262(5)
O5A_2 O -0.2264(7) -0.2020(7) 1.1738(5)
O6_2 O -0.4286(7) 0.0200(8) 1.1037(5)
O6A_2 O 0.4286(7) 0.9800(8) 0.8963(5)
O7_2 O 0.6108(7) 1.1174(8) 0.5418(5)
O7A_2 O -0.6108(7) -0.1174(8) 1.4582(5)
O8_2 O 0.6202(7) 1.1832(8) 0.6582(5)
O8A_2 O -0.6202(7) -0.1832(8) 1.3418(5)
Eu1_2 Eu -0.58745(5) 0.16000(5) 1.62672(3)
Eu1_3 Eu -0.58745(5) 1.16000(5) 0.62672(3)
Eu1_4 Eu 0.41255(5) 0.16000(5) 0.62672(3)
Eu1A_2 Eu -0.41255(5) 0.84000(5) 1.37328(3)
Eu1A_3 Eu 0.58745(5) -0.16000(5) 1.37328(3)
Eu1A_4 Eu 0.58745(5) 0.84000(5) 0.37328(3)
Eu2_2 Eu -0.79232(4) -0.00519(5) 1.86643(3)
Eu2_3 Eu 0.20768(4) -0.00519(5) 0.86643(3)
Eu2_4 Eu 0.20768(4) -0.00519(5) 1.86643(3)
Eu2_5 Eu 0.20768(4) 0.99481(5) -0.13357(3)
Eu2A_2 Eu -0.20768(4) 0.00519(5) 2.13357(3)
Eu2A_3 Eu -0.20768(4) 1.00519(5) 0.13357(3)
Eu2A_4 Eu -0.20768(4) 1.00519(5) 1.13357(3)
Eu2A_5 Eu 0.79232(4) 1.00519(5) 0.13357(3)
C29 C 0.2221(17) 1.4194(17) 0.2731(11)
O17 O 0.2619(11) 1.4114(11) 0.3527(7)
C30 C 0.0756(16) 1.4557(17) 0.2810(11)
H25 H 0.0448 1.3912 0.3242
H26 H 0.0437 1.4623 0.2264
H27 H 0.0476 1.5360 0.2973
N5 N 0.2814(14) 1.4101(14) 0.1956(9)
C31 C 0.4157(16) 1.3757(17) 0.1842(11)
H28 H 0.4510 1.4370 0.2001
H29 H 0.4402 1.3741 0.1247
H30 H 0.4464 1.2929 0.2201
C32 C 0.2202(16) 1.4242(17) 0.1178(10)
H31 H 0.1712 1.3610 0.1267
H32 H 0.2830 1.4133 0.0712
H33 H 0.1656 1.5076 0.1037
O18 O 0.4953(12) 1.4393(12) 0.3877(8)
H34 H 0.5408 1.3818 0.3636
H35 H 0.4241 1.4308 0.3770
loop_
_geom_bond_atom_site_label_1
_geom_bond_atom_site_label_2
_geom_bond_site_symmetry_1
_geom_bond_site_symmetry_2
O1 C5 1_555 1_555
O2 C2 1_555 1_555
O3 C1 1_555 1_555
O4 C1 1_555 1_555
C1 C22 1_555 1_555
O5 C5 1_555 1_555
O6 C2 1_555 1_555
C2 C3 1_555 1_555
C3 C4 1_555 1_555
C4 H1 1_555 1_555
C5 C6 1_555 1_555
C6 C7 1_555 1_555
C7 H2 1_555 1_555
O7 C8 1_555 1_555
O8 C8 1_555 1_555
C8 C9 1_555 1_555
C9 C10 1_555 1_555
C10 H3 1_555 1_555
Eu1 O10 1_555 1_555
Eu2 O9 1_555 1_555
O9 C18 1_555 1_555
O10 H4 1_555 1_555
H5 O10 1_555 1_555
O11 Eu1 1_555 1_555
H6 O11 1_555 1_555
H7 O11 1_555 1_555
O12 Eu2 1_555 1_555
N1 N2 1_555 1_555
O13 Eu1 1_555 1_555
H8 O13 1_555 1_555
H9 O13 1_555 1_555
O14 C11 1_555 1_555
C11 O12 1_555 1_555
O15 Eu2 1_555 1_555
N2 C15 1_555 1_555
C12 H10 1_555 1_555
C13 C7 1_555 1_555
C14 C17 1_555 1_555
O16 Eu1 1_555 1_555
C15 C16 1_555 1_555
N3 C24 1_555 1_555
C16 H11 1_555 1_555
C17 H12 1_555 1_555
C18 C14 1_555 1_555
C19 C9 1_555 1_555
H13 C19 1_555 1_555
C20 C6 1_555 1_555
H14 C20 1_555 1_555
C21 C10 1_555 1_555
C22 C4 1_555 1_555
C23 C3 1_555 1_555
H15 C23 1_555 1_555
C24 C12 1_555 1_555
C25 H16 1_555 1_555
H17 C25 1_555 1_555
H18 C25 1_555 1_555
N4 C26 1_555 1_555
C26 O15 1_555 1_555
C27 N4 1_555 1_555
H19 C27 1_555 1_555
H20 C27 1_555 1_555
H21 C27 1_555 1_555
C28 N4 1_555 1_555
H22 C28 1_555 1_555
H23 C28 1_555 1_555
H24 C28 1_555 1_555
C29 O17 1_555 1_555
C30 C29 1_555 1_555
H25 C30 1_555 1_555
H26 C30 1_555 1_555
H27 C30 1_555 1_555
N5 C29 1_555 1_555
C31 N5 1_555 1_555
H28 C31 1_555 1_555
H29 C31 1_555 1_555
H30 C31 1_555 1_555
C32 N5 1_555 1_555
H31 C32 1_555 1_555
H32 C32 1_555 1_555
H33 C32 1_555 1_555
O18 H34 1_555 1_555
H35 O18 1_555 1_555
O1A C5A 1_555 1_555
O5A C5A 1_555 1_555
C5A C6A 1_555 1_555
C6A C7A 1_555 1_555
C7A H2A 1_555 1_555
O12A C11A 1_555 1_555
O14A C11A 1_555 1_555
C11A C13A 1_555 1_555
C12A H10A 1_555 1_555
C13A C7A 1_555 1_555
N3A N3 1_555 1_555
C20A C6A 1_555 1_555
H14A C20A 1_555 1_555
C24A C12A 1_555 1_555
O2A C2A 1_555 1_555
O3A C1A 1_555 1_555
O4A C1A 1_555 1_555
C1A C22A 1_555 1_555
O6A C2A 1_555 1_555
C2A C3A 1_555 1_555
C3A C4A 1_555 1_555
C4A H1A 1_555 1_555
O7A C8A 1_555 1_555
O8A C8A 1_555 1_555
C8A C9A 1_555 1_555
C9A C10A 1_555 1_555
C10A H3A 1_555 1_555
Eu1A O10A 1_555 1_555
Eu2A O12A 1_555 1_555
O9A Eu2A 1_555 1_555
O10A H4A 1_555 1_555
H5A O10A 1_555 1_555
O11A Eu1A 1_555 1_555
H6A O11A 1_555 1_555
H7A O11A 1_555 1_555
N1A N2A 1_555 1_555
O13A Eu1A 1_555 1_555
H8A O13A 1_555 1_555
H9A O13A 1_555 1_555
O15A Eu2A 1_555 1_555
N2A C15A 1_555 1_555
C14A C17A 1_555 1_555
O16A Eu1A 1_555 1_555
C15A C16A 1_555 1_555
C16A H11A 1_555 1_555
C17A H12A 1_555 1_555
C18A O9A 1_555 1_555
C19A C9A 1_555 1_555
H13A C19A 1_555 1_555
C21A C10A 1_555 1_555
C22A C4A 1_555 1_555
C23A C3A 1_555 1_555
H15A C23A 1_555 1_555
C25A H16A 1_555 1_555
H17A C25A 1_555 1_555
H18A C25A 1_555 1_555
N4A C26A 1_555 1_555
C26A O15A 1_555 1_555
C27A N4A 1_555 1_555
H19A C27A 1_555 1_555
H20A C27A 1_555 1_555
H21A C27A 1_555 1_555
C28A N4A 1_555 1_555
H22A C28A 1_555 1_555
H23A C28A 1_555 1_555
H24A C28A 1_555 1_555
O1_2 Eu1 1_555 1_555
O1A_2 Eu1A 1_555 1_555
O2_2 Eu1A 1_555 1_555
O2A_2 Eu1 1_555 1_555
O3_2 Eu2A 1_555 1_555
O3A_2 Eu2 1_555 1_555
O4_2 Eu2 1_555 1_555
O4A_2 Eu2A 1_555 1_555
O5_2 Eu2 1_555 1_555
O5A_2 Eu2A 1_555 1_555
O6_2 Eu2A 1_555 1_555
O6A_2 Eu2 1_555 1_555
O7_2 Eu1 1_555 1_555
O7A_2 Eu1A 1_555 1_555
O8_2 Eu1 1_555 1_555
O8A_2 Eu1A 1_555 1_555
Eu1_2 O2A 1_555 1_555
Eu1_3 O7 1_555 1_555
Eu1_4 O1 1_555 1_555
Eu1A_2 O1A 1_555 1_555
Eu1A_3 O7A 1_555 1_555
Eu1A_4 O2 1_555 1_555
Eu2_2 O2A 1_555 1_555
Eu2_3 O5 1_555 1_555
Eu2_4 O3A 1_555 1_555
Eu2_5 O4 1_555 1_555
Eu2A_2 O4A 1_555 1_555
Eu2A_3 O3 1_555 1_555
Eu2A_4 O5A 1_555 1_555
Eu2A_5 O2 1_555 1_555
O6 Eu2A_5 1_555 1_555
O8 Eu1_3 1_555 1_555
Eu2 O2A_2 1_555 1_555
N1 C21 1_555 1_555
C11 C13 1_555 1_555
C12 C13 1_555 1_555
C14 C19 1_555 1_555
O16 C18 1_555 1_555
C15 C23 1_555 1_555
C16 C22 1_555 1_555
C17 C21 1_555 1_555
C20 C24 1_555 1_555
C25 C26 1_555 1_555
C12A C13A 1_555 1_555
N3A C24A 1_555 1_555
C20A C24A 1_555 1_555
O6A Eu2_2 1_555 1_555
O8A Eu1A_3 1_555 1_555
Eu2A O2_2 1_555 1_555
N1A C21A 1_555 1_555
C14A C18A 1_555 1_555
C14A C19A 1_555 1_555
O16A C18A 1_555 1_555
C15A C23A 1_555 1_555
C16A C22A 1_555 1_555
C17A C21A 1_555 1_555
C25A C26A 1_555 1_555

#END
