
#######################################################################
#
#                 Cambridge Crystallographic Data Centre
#                                CCDC 
#
#######################################################################
#
# If this CIF has been generated from an entry in the Cambridge 
# Structural Database, then it will include bibliographic, chemical, 
# crystal, experimental, refinement or atomic coordinate data resulting 
# from the CCDC's data processing and validation procedures.
#
#######################################################################

data_DUFGOB
_chemical_formula_moiety         '(C60 H55 F15 K3 N11 O19 S5 U2)n'
_symmetry_cell_setting           monoclinic
_symmetry_space_group_name_H-M   'P 21'
_symmetry_Int_Tables_number      4
_space_group_name_Hall           'P 2yb'
loop_
_symmetry_equiv_pos_site_id
_symmetry_equiv_pos_as_xyz
1 x,y,z
2 -x,1/2+y,-z
_cell_length_a                   17.5189(6)
_cell_length_b                   11.7341(2)
_cell_length_c                   20.1579(7)
_cell_angle_alpha                90
_cell_angle_beta                 99.510(2)
_cell_angle_gamma                90
_cell_volume                     4086.88
loop_
_atom_site_label
_atom_site_type_symbol
_atom_site_fract_x
_atom_site_fract_y
_atom_site_fract_z
_atom_site_U_iso_or_equiv
_atom_site_thermal_displace_type
U1 U 0.47717(2) 0.55267(3) 0.75353(2) 0.0292 Uani
U2 U 0.03324(2) 0.63369(3) 0.24619(2) 0.0345 Uani
K1 K 0.40772(18) 0.6881(2) 0.54570(15) 0.0485 Uani
K2 K 0.0598(2) 0.5496(3) 0.46544(15) 0.0650 Uani
K3 K -0.0132(2) 0.7398(3) 0.02914(15) 0.0620 Uani
S1 S 0.4929(2) 0.4238(3) 0.46933(16) 0.0457 Uani
S2 S 0.2127(3) 0.7362(5) 0.5429(3) 0.1127 Uani
S3 S 0.07965(18) 0.2741(3) 0.48832(15) 0.0450 Uani
S4 S -0.0955(4) 1.0088(4) 0.0374(2) 0.0530 Uani
S5 S -0.2185(3) 0.5490(6) -0.0162(3) 0.0759 Uani
O1 O 0.4484(4) 0.5985(7) 0.6649(4) 0.0366 Uani
O2 O 0.5047(5) 0.5072(7) 0.8403(4) 0.0394 Uani
O3 O 0.0427(5) 0.6038(8) 0.3359(4) 0.0454 Uani
O4 O 0.0249(5) 0.6670(7) 0.1559(4) 0.0384 Uani
O5 O 0.4928(7) 0.5433(8) 0.4852(5) 0.0621 Uani
O6 O 0.5268(6) 0.3545(8) 0.5249(4) 0.0513 Uani
O7 O 0.5163(6) 0.3914(8) 0.4059(4) 0.0520 Uani
O8 O 0.2729(6) 0.7299(12) 0.5996(5) 0.0898 Uani
O9 O 0.213(2) 0.683(2) 0.4802(8) 0.0971 Uani
O10 O 0.1472(8) 0.6782(14) 0.5672(10) 0.1542 Uani
O11 O 0.0800(8) 0.3566(10) 0.5411(5) 0.0728 Uani
O12 O 0.0460(7) 0.3131(11) 0.4240(5) 0.0679 Uani
O13 O 0.0597(6) 0.1585(9) 0.5040(6) 0.0694 Uani
O14 O -0.0560(11) 0.9601(16) -0.0153(7) 0.0794 Uani
O15 O -0.0928(7) 0.9444(16) 0.0951(6) 0.1104 Uani
O16 O -0.0563(10) 1.1149(15) 0.0522(10) 0.1322 Uani
O17 O -0.1447(7) 0.6023(13) 0.0118(7) 0.0930 Uani
O18 O -0.2535(6) 0.4845(10) 0.0329(5) 0.0658 Uani
O19 O -0.2690(7) 0.6004(12) -0.0647(6) 0.1253 Uani
N1 N 0.3989(5) 0.7238(9) 0.7912(5) 0.0351 Uani
N2 N 0.5675(5) 0.7274(8) 0.7866(5) 0.0274 Uani
N3 N 0.6110(5) 0.5097(7) 0.7167(4) 0.0259 Uani
N4 N 0.4672(5) 0.3360(8) 0.7229(6) 0.0333 Uani
N5 N 0.0337(5) 0.8506(10) 0.2740(5) 0.0367 Uani
N6 N 0.1806(6) 0.6917(11) 0.2633(6) 0.0501 Uani
N7 N 0.1186(5) 0.4586(9) 0.2306(5) 0.0331 Uani
N8 N -0.0510(6) 0.4507(9) 0.2216(5) 0.0375 Uani
N9 N -0.1119(6) 0.6821(10) 0.2397(7) 0.0561 Uani
F1 F 0.3606(6) 0.4235(10) 0.5101(4) 0.0773 Uani
F2 F 0.3514(6) 0.4445(9) 0.4037(4) 0.0793 Uani
F3 F 0.3777(6) 0.2798(8) 0.4464(5) 0.0757 Uani
F4 F 0.2262(15) 0.9352(15) 0.5142(11) 0.1402 Uani
F5 F 0.1570(7) 0.9182(9) 0.5886(5) 0.0896 Uani
F6 F 0.1147(12) 0.879(2) 0.4896(9) 0.1329 Uani
F7 F 0.1890(9) 0.1823(14) 0.4324(7) 0.1404 Uani
F8 F 0.2232(8) 0.2180(17) 0.5338(9) 0.1551 Uani
F9 F 0.2062(6) 0.3590(15) 0.4596(8) 0.1362 Uani
F10 F -0.1849(12) 1.1061(15) -0.0516(7) 0.1104 Uani
F11 F -0.2262(11) 0.9624(18) -0.0179(10) 0.1271 Uani
F12 F -0.2247(7) 1.1084(10) 0.0478(5) 0.1026 Uani
F13 F -0.2343(8) 0.3748(14) -0.0839(8) 0.1057 Uani
F14 F -0.1406(8) 0.4841(13) -0.1060(5) 0.1105 Uani
F15 F -0.1214(6) 0.3793(10) -0.0160(5) 0.1091 Uani
C1 C 0.3620(8) 0.7915(11) 0.7477(8) 0.0454 Uani
H1 H 0.3655 0.7792 0.7027 0.0540 Uiso
C2 C 0.3162(8) 0.8839(12) 0.7634(8) 0.0491 Uani
H2 H 0.2918 0.9327 0.7301 0.0590 Uiso
C3 C 0.3092(8) 0.8988(11) 0.8304(7) 0.0489 Uani
H3 H 0.2776 0.9555 0.8433 0.0590 Uiso
C4 C 0.3507(8) 0.8266(12) 0.8772(8) 0.0510 Uani
H4 H 0.3490 0.8354 0.9228 0.0610 Uiso
C5 C 0.3942(7) 0.7424(12) 0.8556(7) 0.0463 Uani
H5 H 0.4223 0.6950 0.8877 0.0550 Uiso
C6 C 0.5763(7) 0.8092(11) 0.7421(6) 0.0344 Uani
H6 H 0.5549 0.7990 0.6972 0.0420 Uiso
C7 C 0.6171(7) 0.9099(11) 0.7617(6) 0.0362 Uani
H7 H 0.6244 0.9643 0.7298 0.0430 Uiso
C8 C 0.6462(8) 0.9273(11) 0.8286(6) 0.0443 Uani
H8 H 0.6722 0.9942 0.8429 0.0530 Uiso
C9 C 0.6357(7) 0.8427(11) 0.8738(7) 0.0439 Uani
H9 H 0.6552 0.8520 0.9193 0.0530 Uiso
C10 C 0.5965(6) 0.7451(10) 0.8520(6) 0.0339 Uani
H10 H 0.5898 0.6893 0.8833 0.0410 Uiso
C11 C 0.6143(6) 0.5089(9) 0.6505(5) 0.0336 Uani
H11 H 0.5683 0.5150 0.6202 0.0400 Uiso
C12 C 0.6829(8) 0.4995(11) 0.6254(6) 0.0449 Uani
H12 H 0.6836 0.5010 0.5794 0.0540 Uiso
C13 C 0.7517(7) 0.4877(10) 0.6722(7) 0.0394 Uani
H13 H 0.7995 0.4812 0.6581 0.0480 Uiso
C14 C 0.7458(6) 0.4860(11) 0.7394(7) 0.0394 Uani
H14 H 0.7900 0.4779 0.7716 0.0470 Uiso
C15 C 0.6755(7) 0.4962(9) 0.7585(6) 0.0378 Uani
H15 H 0.6732 0.4935 0.8043 0.0450 Uiso
C16 C 0.4764(7) 0.2558(12) 0.7728(9) 0.0496 Uani
H16 H 0.4867 0.2814 0.8170 0.0600 Uiso
C17 C 0.4717(7) 0.1420(15) 0.7626(7) 0.0443 Uani
H17 H 0.4797 0.0906 0.7982 0.0530 Uiso
C18 C 0.4539(7) 0.1050(12) 0.6949(9) 0.0560 Uani
H18 H 0.4478 0.0278 0.6848 0.0670 Uiso
C19 C 0.4459(8) 0.1849(12) 0.6443(9) 0.0515 Uani
H19 H 0.4353 0.1618 0.5995 0.0620 Uiso
C20 C 0.4535(8) 0.2994(12) 0.6598(8) 0.0462 Uani
H20 H 0.4489 0.3523 0.6251 0.0550 Uiso
N11 N 0.3330(4) 0.4912(8) 0.7502(5) 0.0559 Uani
C21 C 0.3044(6) 0.4712(10) 0.8095(5) 0.0864 Uani
H21 H 0.3382 0.4670 0.8502 0.1030 Uiso
C22 C 0.2253(7) 0.4574(12) 0.8079(7) 0.1125 Uani
H22 H 0.2062 0.4440 0.8476 0.1350 Uiso
C23 C 0.1749(4) 0.4636(12) 0.7471(9) 0.1184 Uani
H23 H 0.1219 0.4544 0.7461 0.1420 Uiso
C24 C 0.2035(6) 0.4837(11) 0.6878(8) 0.1083 Uani
H24 H 0.1697 0.4878 0.6471 0.1300 Uiso
C25 C 0.2825(6) 0.4974(9) 0.6894(5) 0.0844 Uani
H25 H 0.3017 0.5108 0.6497 0.1010 Uiso
C26 C 0.0358(6) 0.9308(12) 0.2273(6) 0.0342 Uani
H26 H 0.0385 0.9061 0.1839 0.0410 Uiso
C27 C 0.0343(6) 1.0460(19) 0.2375(6) 0.0482 Uani
H27 H 0.0330 1.0973 0.2021 0.0580 Uiso
C28 C 0.0350(7) 1.0838(11) 0.3046(6) 0.0407 Uani
H28 H 0.0373 1.1609 0.3155 0.0490 Uiso
C29 C 0.0321(8) 1.0008(12) 0.3530(7) 0.0462 Uani
H29 H 0.0301 1.0226 0.3970 0.0560 Uiso
C30 C 0.0323(7) 0.8877(11) 0.3375(6) 0.0374 Uani
H30 H 0.0313 0.8344 0.3715 0.0450 Uiso
C31 C 0.2144(9) 0.7037(12) 0.2100(8) 0.0560 Uani
H31 H 0.1846 0.7035 0.1673 0.0670 Uiso
C32 C 0.2954(9) 0.7168(11) 0.2171(8) 0.0536 Uani
H32 H 0.3194 0.7260 0.1796 0.0640 Uiso
C33 C 0.3363(8) 0.7158(13) 0.2785(9) 0.0617 Uani
H33 H 0.3899 0.7219 0.2836 0.0740 Uiso
C34 C 0.3011(8) 0.7059(12) 0.3366(8) 0.0549 Uani
H34 H 0.3296 0.7075 0.3798 0.0660 Uiso
C35 C 0.2208(8) 0.6935(13) 0.3248(8) 0.0522 Uani
H35 H 0.1948 0.6864 0.3613 0.0630 Uiso
C36 C 0.1535(8) 0.3963(13) 0.2798(6) 0.0493 Uani
H36 H 0.1519 0.4210 0.3233 0.0590 Uiso
C37 C 0.1933(10) 0.2951(13) 0.2723(7) 0.0586 Uani
H37 H 0.2164 0.2535 0.3095 0.0700 Uiso
C38 C 0.1970(9) 0.2588(12) 0.2071(7) 0.0519 Uani
H38 H 0.2226 0.1918 0.1994 0.0630 Uiso
C39 C 0.1607(7) 0.3270(10) 0.1529(6) 0.0382 Uani
H39 H 0.1630 0.3070 0.1086 0.0460 Uiso
C40 C 0.1230(7) 0.4205(11) 0.1669(6) 0.0378 Uani
H40 H 0.0979 0.4631 0.1309 0.0450 Uiso
C41 C -0.0692(7) 0.3847(12) 0.2721(7) 0.0415 Uani
H41 H -0.0517 0.4085 0.3160 0.0500 Uiso
C42 C -0.1109(8) 0.2867(11) 0.2635(7) 0.0447 Uani
H42 H -0.1214 0.2438 0.2998 0.0530 Uiso
C43 C -0.1367(9) 0.2548(12) 0.1980(8) 0.0563 Uani
H43 H -0.1670 0.1897 0.1890 0.0680 Uiso
C44 C -0.1179(8) 0.3189(12) 0.1453(7) 0.0491 Uani
H44 H -0.1337 0.2962 0.1009 0.0590 Uiso
C45 C -0.0765(7) 0.4142(11) 0.1596(6) 0.0416 Uani
H45 H -0.0649 0.4575 0.1239 0.0500 Uiso
C46 C -0.1442(11) 0.6849(13) 0.2966(11) 0.0789 Uani
H46 H -0.1069 0.6824 0.3352 0.0950 Uiso
C47 C -0.2132(11) 0.6896(17) 0.3091(10) 0.0642 Uani
H47 H -0.2276 0.6951 0.3514 0.0770 Uiso
C48 C -0.2622(9) 0.6851(13) 0.2484(9) 0.0699 Uani
H48 H -0.3150 0.6820 0.2494 0.0840 Uiso
C49 C -0.2390(9) 0.6847(18) 0.1849(13) 0.0740 Uani
H49 H -0.2757 0.6846 0.1458 0.0890 Uiso
C50 C -0.1596(8) 0.6844(14) 0.1812(9) 0.0723 Uani
H50 H -0.1416 0.6858 0.1403 0.0860 Uiso
C51 C 0.3884(12) 0.3900(13) 0.4557(7) 0.0713 Uani
C52 C 0.1820(12) 0.8815(17) 0.5384(9) 0.0806 Uani
C53 C 0.1795(7) 0.258(2) 0.4790(11) 0.0951 Uani
C54 C -0.1818(14) 1.044(2) 0.0026(10) 0.0392 Uani
C55 C -0.1760(7) 0.4458(13) -0.0540(7) 0.0793 Uani
K1A K 0.59228(18) 0.1881(2) 0.45430(15) 0.0485 Uani
K2A K -0.0598(2) 0.0496(3) 0.53456(15) 0.0650 Uani
K3A K 0.0132(2) 1.2398(3) -0.02914(15) 0.0620 Uani
O6A O 0.4732(6) 0.8545(8) 0.4751(4) 0.0513 Uani
O7A O 0.4837(6) 0.8914(8) 0.5941(4) 0.0520 Uani
O13A O -0.0597(6) 0.6585(9) 0.4960(6) 0.0694 Uani
O16A O 0.0563(10) 0.6149(15) -0.0522(10) 0.1322 Uani
N10 N 0.4685(10) 0.5951(13) 0.0320(7) 0.0510 Uani
C56 C 0.5458(10) 0.6086(15) 0.0273(7) 0.0671 Uani
H51 H 0.5763 0.5463 0.0203 0.0800 Uiso
C57 C 0.5758(9) 0.7140(16) 0.0332(7) 0.0793 Uani
H52 H 0.6274 0.7250 0.0289 0.0950 Uiso
C58 C 0.5321(11) 0.8056(16) 0.0455(10) 0.0540 Uani
H53 H 0.5532 0.8785 0.0499 0.0650 Uiso
C59 C 0.4559(11) 0.787(2) 0.0513(11) 0.0730 Uani
H54 H 0.4247 0.8469 0.0610 0.0880 Uiso
C60 C 0.4286(8) 0.6854(13) 0.0430(5) 0.0544 Uani
H55 H 0.3764 0.6753 0.0450 0.0650 Uiso
loop_
_atom_site_aniso_label
_atom_site_aniso_U_11
_atom_site_aniso_U_22
_atom_site_aniso_U_33
_atom_site_aniso_U_23
_atom_site_aniso_U_13
_atom_site_aniso_U_12
U1 0.02576(19) 0.0231(2) 0.0400(3) -0.00262(19) 0.00924(15) -0.00059(17)
U2 0.0329(2) 0.0407(3) 0.0327(2) -0.0139(2) 0.01389(17) -0.01057(19)
K1 0.0562(17) 0.0359(15) 0.0461(15) -0.0029(12) -0.0131(13) 0.0094(12)
K2 0.101(2) 0.0559(18) 0.0483(16) -0.0173(16) 0.0422(16) -0.025(2)
K3 0.071(2) 0.064(2) 0.0421(15) -0.0135(14) -0.0169(14) 0.0288(17)
S1 0.068(2) 0.0322(16) 0.0346(16) -0.0026(12) 0.0014(14) -0.0055(14)
S2 0.065(3) 0.085(3) 0.165(5) -0.077(4) -0.049(3) 0.032(3)
S3 0.0425(17) 0.062(2) 0.0322(15) -0.0028(14) 0.0113(13) 0.0048(15)
S4 0.126(4) 0.0196(18) 0.0142(17) -0.0006(15) 0.014(2) -0.013(2)
S5 0.073(3) 0.089(4) 0.067(3) 0.012(3) 0.015(2) 0.027(3)
O1 0.028(4) 0.033(4) 0.044(5) -0.011(4) -0.008(3) 0.003(3)
O2 0.054(5) 0.032(4) 0.035(4) 0.004(3) 0.016(4) 0.001(4)
O3 0.057(5) 0.054(6) 0.031(4) -0.010(4) 0.024(4) -0.018(4)
O4 0.037(4) 0.049(5) 0.030(4) -0.012(4) 0.008(3) -0.002(4)
O5 0.110(8) 0.023(4) 0.056(6) -0.017(4) 0.022(5) 0.001(5)
O6 0.062(6) 0.047(5) 0.041(5) 0.001(4) -0.003(4) -0.008(5)
O7 0.083(7) 0.038(5) 0.032(5) -0.009(4) 0.001(4) -0.004(5)
O8 0.046(6) 0.109(9) 0.112(9) 0.043(8) 0.006(6) 0.020(6)
O9 0.145(18) 0.085(15) 0.069(12) -0.006(11) 0.040(13) -0.006(13)
O10 0.098(11) 0.105(11) 0.240(17) -0.055(12) -0.030(11) 0.008(9)
O11 0.121(10) 0.070(7) 0.031(5) -0.013(5) 0.023(6) -0.032(7)
O12 0.085(8) 0.077(8) 0.037(5) -0.008(5) -0.004(5) 0.032(6)
O13 0.063(6) 0.060(7) 0.084(8) 0.000(6) 0.009(6) 0.007(5)
O14 0.102(11) 0.081(10) 0.046(8) 0.005(8) -0.015(8) 0.009(9)
O15 0.065(7) 0.191(14) 0.068(7) 0.055(8) -0.010(6) -0.026(8)
O16 0.125(11) 0.099(11) 0.195(14) 0.017(11) 0.092(11) 0.010(9)
O17 0.103(11) 0.056(9) 0.092(10) -0.009(8) -0.066(9) -0.022(8)
O18 0.061(6) 0.090(7) 0.055(6) 0.005(5) 0.035(5) -0.009(5)
O19 0.116(10) 0.126(11) 0.108(9) -0.026(8) -0.058(8) 0.080(9)
N1 0.037(5) 0.025(5) 0.044(6) -0.002(4) 0.009(4) 0.005(4)
N2 0.023(4) 0.025(5) 0.034(5) -0.003(4) 0.004(4) 0.000(4)
N3 0.022(4) 0.024(4) 0.034(5) 0.001(4) 0.011(4) 0.009(3)
N4 0.030(5) 0.021(5) 0.052(7) -0.001(5) 0.016(4) 0.003(4)
N5 0.022(4) 0.054(7) 0.035(6) -0.022(5) 0.007(4) -0.006(4)
N6 0.041(6) 0.053(7) 0.064(7) -0.027(6) 0.031(6) -0.026(5)
N7 0.038(5) 0.031(5) 0.032(5) 0.003(4) 0.011(4) -0.006(4)
N8 0.038(5) 0.044(6) 0.033(5) -0.009(5) 0.013(4) -0.012(4)
N9 0.033(6) 0.045(7) 0.096(10) -0.014(6) 0.027(6) 0.000(5)
F1 0.069(6) 0.106(8) 0.054(5) -0.005(5) 0.002(4) -0.001(5)
F2 0.080(6) 0.103(7) 0.047(5) 0.011(5) -0.013(4) 0.017(5)
F3 0.087(6) 0.061(6) 0.077(6) -0.016(5) 0.007(5) -0.020(5)
F4 0.211(16) 0.087(11) 0.160(14) 0.014(10) 0.141(13) -0.035(11)
F5 0.111(8) 0.087(7) 0.079(6) -0.005(5) 0.040(6) 0.036(6)
F6 0.134(13) 0.165(15) 0.093(11) 0.025(11) -0.001(10) 0.087(12)
F7 0.146(10) 0.172(12) 0.126(9) 0.057(9) 0.090(8) 0.095(9)
F8 0.083(8) 0.195(13) 0.173(12) 0.097(11) -0.021(8) 0.005(9)
F9 0.060(6) 0.187(13) 0.168(11) 0.102(10) 0.038(7) 0.012(7)
F10 0.169(14) 0.100(11) 0.056(7) 0.044(8) 0.000(8) 0.046(10)
F11 0.098(10) 0.150(13) 0.126(12) -0.087(11) -0.003(9) -0.057(10)
F12 0.129(9) 0.096(8) 0.065(6) 0.015(6) -0.036(6) -0.030(7)
F13 0.152(15) 0.047(9) 0.084(11) 0.011(8) -0.081(11) -0.044(10)
F14 0.102(10) 0.181(14) 0.066(8) -0.049(9) 0.065(7) -0.063(10)
F15 0.104(8) 0.106(8) 0.109(8) -0.007(7) -0.007(6) 0.065(7)
C1 0.051(8) 0.026(6) 0.066(9) -0.014(6) 0.030(7) 0.004(6)
C2 0.056(8) 0.033(7) 0.063(9) 0.000(7) 0.024(7) 0.010(6)
C3 0.055(8) 0.027(7) 0.069(9) -0.001(6) 0.023(7) 0.006(6)
C4 0.051(8) 0.045(8) 0.056(8) -0.006(7) 0.006(6) 0.005(6)
C5 0.041(7) 0.044(8) 0.052(8) -0.018(6) 0.002(6) 0.009(6)
C6 0.035(6) 0.036(7) 0.031(6) 0.009(5) 0.002(5) -0.002(5)
C7 0.047(7) 0.028(6) 0.034(6) 0.002(5) 0.008(5) -0.004(5)
C8 0.061(8) 0.032(7) 0.040(7) -0.020(5) 0.009(6) -0.017(6)
C9 0.045(7) 0.042(7) 0.041(7) -0.001(6) -0.004(5) -0.002(6)
C10 0.033(6) 0.037(7) 0.029(6) 0.007(5) -0.003(4) -0.003(5)
C11 0.032(6) 0.035(6) 0.032(6) -0.001(5) 0.000(4) -0.003(4)
C12 0.056(8) 0.050(7) 0.035(6) -0.002(5) 0.026(6) 0.004(6)
C13 0.032(6) 0.025(6) 0.065(8) -0.003(5) 0.019(5) -0.005(5)
C14 0.020(5) 0.033(7) 0.061(8) -0.009(6) -0.006(5) -0.001(5)
C15 0.040(6) 0.021(6) 0.050(7) -0.015(5) 0.000(5) -0.007(5)
C16 0.031(6) 0.038(8) 0.084(10) 0.014(7) 0.022(6) 0.005(5)
C17 0.046(7) 0.026(7) 0.065(8) -0.008(7) 0.021(6) -0.014(5)
C18 0.042(7) 0.027(7) 0.108(13) -0.021(8) 0.039(8) -0.004(5)
C19 0.042(7) 0.036(8) 0.081(11) -0.019(7) 0.023(7) -0.010(6)
C20 0.047(7) 0.034(7) 0.063(9) -0.005(7) 0.025(6) 0.000(6)
N11 0.032(6) 0.019(5) 0.119(10) 0.004(6) 0.019(6) 0.008(4)
C21 0.075(10) 0.063(10) 0.140(14) -0.051(10) 0.073(10) -0.046(8)
C22 0.113(13) 0.084(12) 0.167(16) -0.065(12) 0.101(13) -0.017(10)
C23 0.105(11) 0.092(11) 0.161(12) -0.023(9) 0.030(9) 0.008(9)
C24 0.060(10) 0.049(10) 0.202(18) 0.001(12) -0.019(11) 0.011(8)
C25 0.042(8) 0.048(9) 0.157(15) 0.017(10) -0.002(9) -0.012(7)
C26 0.027(5) 0.047(8) 0.028(6) -0.007(6) 0.003(4) -0.003(5)
C27 0.038(7) 0.072(11) 0.033(6) 0.001(8) 0.001(5) 0.013(8)
C28 0.039(6) 0.037(8) 0.047(7) -0.009(6) 0.010(5) 0.005(5)
C29 0.050(7) 0.054(9) 0.040(7) -0.016(6) 0.023(6) -0.004(6)
C30 0.039(6) 0.041(7) 0.034(6) 0.004(6) 0.011(5) 0.006(5)
C31 0.055(8) 0.040(8) 0.082(10) -0.036(7) 0.038(8) -0.015(6)
C32 0.063(9) 0.026(6) 0.083(10) -0.020(7) 0.045(8) -0.008(6)
C33 0.038(7) 0.046(8) 0.109(12) 0.005(8) 0.035(8) 0.010(6)
C34 0.038(7) 0.042(8) 0.085(10) 0.010(7) 0.011(7) -0.008(6)
C35 0.036(7) 0.049(8) 0.071(9) -0.019(7) 0.007(6) -0.004(6)
C36 0.066(9) 0.059(9) 0.023(6) 0.005(6) 0.008(6) -0.010(7)
C37 0.087(11) 0.041(8) 0.048(8) 0.007(7) 0.012(8) 0.000(7)
C38 0.069(9) 0.034(7) 0.058(8) 0.009(6) 0.026(7) -0.001(6)
C39 0.052(7) 0.030(7) 0.034(6) 0.003(5) 0.011(5) -0.008(5)
C40 0.039(6) 0.038(7) 0.035(6) -0.005(5) 0.002(5) 0.006(5)
C41 0.034(6) 0.046(8) 0.047(7) 0.003(6) 0.014(5) -0.005(6)
C42 0.052(8) 0.025(6) 0.053(8) 0.005(6) -0.003(6) 0.003(5)
C43 0.066(9) 0.034(7) 0.061(9) -0.007(7) -0.013(7) -0.015(6)
C44 0.057(8) 0.038(7) 0.049(8) -0.009(6) -0.001(6) -0.003(6)
C45 0.045(7) 0.037(7) 0.041(7) -0.006(5) 0.002(5) -0.007(5)
C46 0.079(10) 0.044(8) 0.132(14) -0.006(9) 0.071(10) 0.001(7)
C47 0.065(9) 0.049(8) 0.086(10) 0.005(7) 0.034(8) 0.010(7)
C48 0.060(7) 0.056(7) 0.100(9) -0.002(7) 0.032(7) -0.001(6)
C49 0.068(9) 0.052(9) 0.093(10) -0.013(8) -0.013(8) -0.018(7)
C50 0.053(7) 0.068(7) 0.095(8) -0.040(7) 0.010(6) 0.002(6)
C51 0.127(15) 0.048(9) 0.029(7) 0.005(6) -0.016(8) 0.008(9)
C52 0.096(9) 0.077(9) 0.071(8) 0.013(7) 0.020(7) 0.030(8)
C53 0.092(9) 0.103(10) 0.084(9) 0.032(8) -0.004(8) 0.008(8)
C54 0.056(9) 0.028(8) 0.026(8) -0.001(7) -0.016(7) 0.006(8)
C55 0.074(10) 0.089(11) 0.074(10) 0.005(9) 0.010(8) 0.011(9)
K1A 0.0562 0.0359 0.0461 0.0029 -0.0131 -0.0094
K2A 0.101 0.0559 0.0483 0.0173 0.0422 0.025
K3A 0.071 0.064 0.0421 0.0135 -0.0169 -0.0288
O6A 0.062 0.047 0.041 -0.001 -0.003 0.008
O7A 0.083 0.038 0.032 0.009 0.001 0.004
O13A 0.063 0.06 0.084 0 0.009 -0.007
O16A 0.125 0.099 0.195 -0.017 0.092 -0.01
N10 0.064(10) 0.046(9) 0.044(8) -0.010(7) 0.012(7) -0.006(7)
C56 0.072(10) 0.071(11) 0.058(9) 0.010(8) 0.010(7) 0.010(8)
C57 0.054(9) 0.125(16) 0.051(9) 0.024(10) -0.015(7) -0.038(10)
C58 0.081(10) 0.029(8) 0.041(8) 0.010(7) -0.022(7) -0.002(7)
C59 0.092(10) 0.056(9) 0.060(9) -0.006(7) -0.020(8) 0.031(8)
C60 0.051(7) 0.083(10) 0.020(5) -0.013(6) -0.021(5) 0.026(7)
loop_
_geom_bond_atom_site_label_1
_geom_bond_atom_site_label_2
_geom_bond_site_symmetry_1
_geom_bond_site_symmetry_2
U1 O1 1_555 1_555
U2 O3 1_555 1_555
K1 O1 1_555 1_555
K2 O3 1_555 1_555
K3 O4 1_555 1_555
S1 O5 1_555 1_555
S2 O8 1_555 1_555
S3 O11 1_555 1_555
S4 O14 1_555 1_555
S5 O17 1_555 1_555
O2 U1 1_555 1_555
O4 U2 1_555 1_555
O5 K1 1_555 1_555
O6 S1 1_555 1_555
O7 S1 1_555 1_555
O8 K1 1_555 1_555
O9 K2 1_555 1_555
O10 K2 1_555 1_555
O11 K2 1_555 1_555
O12 K2 1_555 1_555
O13 S3 1_555 1_555
O14 K3 1_555 1_555
O15 K3 1_555 1_555
O16 S4 1_555 1_555
O17 K3 1_555 1_555
O18 S5 1_555 1_555
O19 S5 1_555 1_555
N1 U1 1_555 1_555
N2 U1 1_555 1_555
N3 U1 1_555 1_555
N4 U1 1_555 1_555
N5 U2 1_555 1_555
N6 U2 1_555 1_555
N7 U2 1_555 1_555
N8 U2 1_555 1_555
N9 U2 1_555 1_555
N10 C56 1_555 1_555
F1 C51 1_555 1_555
F2 C51 1_555 1_555
F3 C51 1_555 1_555
F4 C52 1_555 1_555
F5 C52 1_555 1_555
F6 C52 1_555 1_555
F7 C53 1_555 1_555
F8 C53 1_555 1_555
F9 C53 1_555 1_555
F10 C54 1_555 1_555
F11 C54 1_555 1_555
F12 C54 1_555 1_555
F13 C55 1_555 1_555
F14 C55 1_555 1_555
F15 C55 1_555 1_555
C1 N1 1_555 1_555
H1 C1 1_555 1_555
C2 C1 1_555 1_555
H2 C2 1_555 1_555
C3 C2 1_555 1_555
H3 C3 1_555 1_555
C4 C3 1_555 1_555
H4 C4 1_555 1_555
C5 N1 1_555 1_555
H5 C5 1_555 1_555
C6 N2 1_555 1_555
H6 C6 1_555 1_555
C7 C6 1_555 1_555
H7 C7 1_555 1_555
C8 C7 1_555 1_555
H8 C8 1_555 1_555
C9 C8 1_555 1_555
H9 C9 1_555 1_555
C10 N2 1_555 1_555
H10 C10 1_555 1_555
C11 N3 1_555 1_555
H11 C11 1_555 1_555
C12 C11 1_555 1_555
H12 C12 1_555 1_555
C13 C12 1_555 1_555
H13 C13 1_555 1_555
C14 C13 1_555 1_555
H14 C14 1_555 1_555
C15 N3 1_555 1_555
H15 C15 1_555 1_555
C16 N4 1_555 1_555
H16 C16 1_555 1_555
C17 C16 1_555 1_555
H17 C17 1_555 1_555
C18 C17 1_555 1_555
H18 C18 1_555 1_555
C19 C18 1_555 1_555
H19 C19 1_555 1_555
C20 N4 1_555 1_555
H20 C20 1_555 1_555
N11 U1 1_555 1_555
C21 N11 1_555 1_555
H21 C21 1_555 1_555
C22 C21 1_555 1_555
H22 C22 1_555 1_555
C23 C22 1_555 1_555
H23 C23 1_555 1_555
C24 C23 1_555 1_555
H24 C24 1_555 1_555
C25 N11 1_555 1_555
H25 C25 1_555 1_555
C26 N5 1_555 1_555
H26 C26 1_555 1_555
C27 C26 1_555 1_555
H27 C27 1_555 1_555
C28 C27 1_555 1_555
H28 C28 1_555 1_555
C29 C28 1_555 1_555
H29 C29 1_555 1_555
C30 N5 1_555 1_555
H30 C30 1_555 1_555
C31 N6 1_555 1_555
H31 C31 1_555 1_555
C32 C31 1_555 1_555
H32 C32 1_555 1_555
C33 C32 1_555 1_555
H33 C33 1_555 1_555
C34 C33 1_555 1_555
H34 C34 1_555 1_555
C35 N6 1_555 1_555
H35 C35 1_555 1_555
C36 N7 1_555 1_555
H36 C36 1_555 1_555
C37 C36 1_555 1_555
H37 C37 1_555 1_555
C38 C37 1_555 1_555
H38 C38 1_555 1_555
C39 C38 1_555 1_555
H39 C39 1_555 1_555
C40 N7 1_555 1_555
H40 C40 1_555 1_555
C41 N8 1_555 1_555
H41 C41 1_555 1_555
C42 C41 1_555 1_555
H42 C42 1_555 1_555
C43 C42 1_555 1_555
H43 C43 1_555 1_555
C44 C43 1_555 1_555
H44 C44 1_555 1_555
C45 N8 1_555 1_555
H45 C45 1_555 1_555
C46 N9 1_555 1_555
H46 C46 1_555 1_555
C47 C46 1_555 1_555
H47 C47 1_555 1_555
C48 C47 1_555 1_555
H48 C48 1_555 1_555
C49 C48 1_555 1_555
H49 C49 1_555 1_555
C50 N9 1_555 1_555
H50 C50 1_555 1_555
C51 S1 1_555 1_555
C52 S2 1_555 1_555
C53 S3 1_555 1_555
C54 S4 1_555 1_555
C55 S5 1_555 1_555
C56 H51 1_555 1_555
C57 C56 1_555 1_555
H52 C57 1_555 1_555
C58 C57 1_555 1_555
H53 C58 1_555 1_555
C59 C58 1_555 1_555
H54 C59 1_555 1_555
C60 N10 1_555 1_555
H55 C60 1_555 1_555
K1A O6 1_555 1_555
K2A O13 1_555 1_555
K3A O16 1_555 1_555
O6A K1 1_555 1_555
O7A K1 1_555 1_555
O13A K2 1_555 1_555
O16A K3 1_555 1_555
S2 O9 1_555 1_555
S2 O10 1_555 1_555
S3 O12 1_555 1_555
S4 O15 1_555 1_555
O7 K1A 1_555 1_555
C4 C5 1_555 1_555
C9 C10 1_555 1_555
C14 C15 1_555 1_555
C19 C20 1_555 1_555
C24 C25 1_555 1_555
C29 C30 1_555 1_555
C34 C35 1_555 1_555
C39 C40 1_555 1_555
C44 C45 1_555 1_555
C49 C50 1_555 1_555
C59 C60 1_555 1_555

#END
