
#######################################################################
#
#                 Cambridge Crystallographic Data Centre
#                                CCDC 
#
#######################################################################
#
# If this CIF has been generated from an entry in the Cambridge 
# Structural Database, then it will include bibliographic, chemical, 
# crystal, experimental, refinement or atomic coordinate data resulting 
# from the CCDC's data processing and validation procedures.
#
#######################################################################

data_MATHEV
_chemical_formula_moiety         '(C10 H14 Co4 N2 O18 P2)n'
_symmetry_cell_setting           monoclinic
_symmetry_space_group_name_H-M   'P 21/c'
_symmetry_Int_Tables_number      14
_space_group_name_Hall           '-P 2ybc'
loop_
_symmetry_equiv_pos_site_id
_symmetry_equiv_pos_as_xyz
1 x,y,z
2 -x,1/2+y,1/2-z
3 -x,-y,-z
4 x,1/2-y,1/2+z
_cell_length_a                   7.6146(15)
_cell_length_b                   7.5144(14)
_cell_length_c                   17.750(3)
_cell_angle_alpha                90
_cell_angle_beta                 97.351(3)
_cell_angle_gamma                90
_cell_volume                     1007.29
loop_
_atom_site_label
_atom_site_type_symbol
_atom_site_fract_x
_atom_site_fract_y
_atom_site_fract_z
Co1 Co 0.37927(5) 0.44264(6) 0.13809(2)
Co2 Co 0.72532(5) 0.68016(6) 0.19338(2)
P1 P 0.55099(10) 0.06759(11) 0.18833(4)
H1 H 0.6628 0.1329 0.1991
O1 O 0.4282(3) 0.1803(3) 0.13365(13)
O2 O 0.2088(3) 0.6539(3) 0.12222(14)
O3 O 0.5988(3) 0.5342(3) 0.09315(12)
O4 O 0.4760(3) 0.0449(3) 0.26435(12)
O5 O 0.7025(3) 0.5901(3) -0.01676(13)
O6 O 0.1628(3) 0.3566(3) 0.20223(13)
O7 O 0.5926(3) -0.1071(3) 0.15336(13)
O8 O -0.0570(3) 0.7483(3) 0.14110(13)
O9 O -0.1007(3) 0.4651(3) 0.22607(15)
C1 C 0.5886(4) 0.5368(4) 0.02128(18)
C2 C 0.0401(4) 0.4711(4) 0.19715(18)
C3 C 0.0667(4) 0.6383(4) 0.14928(18)
Co1A Co 0.62073(5) 0.94264(6) 0.36191(2)
Co1A_2 Co 0.62073(5) -0.05736(6) 0.36191(2)
Co1B Co 0.62073(5) 0.55736(6) -0.13809(2)
Co2B Co 0.27468(5) 0.31984(6) -0.19338(2)
Co2A Co 0.27468(5) 0.18016(6) 0.30662(2)
Co2_2 Co 0.72532(5) -0.31984(6) 0.19338(2)
Co2_3 Co -0.27468(5) 0.68016(6) 0.19338(2)
Co2A_2 Co 1.27468(5) 1.18016(6) 0.30662(2)
P1A P 0.44901(10) 0.56759(11) 0.31167(4)
H1A H 0.3372 0.6329 0.3009
O1A O 0.5718(3) 0.6803(3) 0.36635(13)
O2A O 0.7912(3) 1.1539(3) 0.37778(14)
O3B O 0.4012(3) 0.4658(3) -0.09315(12)
O3A O 0.4012(3) 1.0342(3) 0.40685(12)
O4A O 0.5240(3) 0.5449(3) 0.23565(12)
O4_2 O 0.4760(3) 1.0449(3) 0.26435(12)
O4C O 0.4760(3) 0.4551(3) -0.23565(12)
O5B O 0.2975(3) 0.4099(3) 0.01676(13)
O5C O 0.7025(3) 0.9099(3) 0.48324(13)
O6A O 0.8372(3) 0.8566(3) 0.29777(13)
O6C O 0.1628(3) 0.1434(3) -0.29777(13)
O7A O 0.4074(3) 0.3929(3) 0.34664(13)
O7_2 O 0.5926(3) 0.8929(3) 0.15336(13)
O7B O 0.4074(3) 0.1071(3) -0.15336(13)
O8A O 1.0570(3) 1.2483(3) 0.35890(13)
O8_2 O 0.9430(3) 0.7483(3) 0.14110(13)
O8B O 0.0570(3) 0.2517(3) -0.14110(13)
O9A O 1.1007(3) 0.9651(3) 0.27393(15)
O9_2 O 0.8993(3) 0.4651(3) 0.22607(15)
O9B O 0.1007(3) 0.5349(3) -0.22607(15)
C1B C 0.4114(4) 0.4632(4) -0.02128(18)
C2A C 0.9599(4) 0.9711(4) 0.30285(18)
C3A C 0.9333(4) 1.1383(4) 0.35072(18)
C4 C 0.9580(6) 0.1440(6) 0.0485(2)
H2 H 0.9885 0.2480 0.0205
H3 H 0.9145 0.1842 0.0946
N1 N 0.8148(6) 0.0381(6) 0.0006(3)
H4 H 0.7795 -0.0527 0.0282
H5 H 0.7206 0.1084 -0.0134
C5 C 1.1160(5) 0.0324(5) 0.06792(19)
H6 H 1.0866 -0.0664 0.0992
H7 H 1.2076 0.1021 0.0974
C4B C 1.0420(6) -0.1440(6) -0.0485(2)
H2B H 1.0115 -0.2480 -0.0205
H3B H 1.0855 -0.1842 -0.0946
N1B N 1.1852(6) -0.0381(6) -0.0006(3)
H4B H 1.2205 0.0527 -0.0282
H5B H 1.2794 -0.1084 0.0134
C5B C 0.8840(5) -0.0324(5) -0.06792(19)
H6B H 0.9134 0.0664 -0.0992
H7B H 0.7924 -0.1021 -0.0974
loop_
_geom_bond_atom_site_label_1
_geom_bond_atom_site_label_2
_geom_bond_site_symmetry_1
_geom_bond_site_symmetry_2
Co1 O1 1_555 1_555
Co2 O3 1_555 1_555
P1 H1 1_555 1_555
O1 P1 1_555 1_555
O2 Co1 1_555 1_555
O3 Co1 1_555 1_555
O4 P1 1_555 1_555
O5 C1 1_555 1_555
O6 Co1 1_555 1_555
O7 P1 1_555 1_555
O8 C3 1_555 1_555
O9 C2 1_555 1_555
C1 O3 1_555 1_555
C2 O6 1_555 1_555
C3 O2 1_555 1_555
C4 H2 1_555 1_555
H3 C4 1_555 1_555
N1 C4 1_555 1_555
H4 N1 1_555 1_555
H5 N1 1_555 1_555
C5 C4 1_555 1_555
H6 C5 1_555 1_555
H7 C5 1_555 1_555
Co1A O1A 1_555 1_555
Co1A_2 O4 1_555 1_555
Co1B O5 1_555 1_555
Co2B O3B 1_555 1_555
Co2A O4 1_555 1_555
Co2_2 O7 1_555 1_555
Co2_3 O8 1_555 1_555
Co2A_2 O8A 1_555 1_555
P1A H1A 1_555 1_555
O1A P1A 1_555 1_555
O2A Co1A 1_555 1_555
O3B Co1B 1_555 1_555
O3A Co1A 1_555 1_555
O4A Co1 1_555 1_555
O4_2 Co1A 1_555 1_555
O4C Co1B 1_555 1_555
O5B Co1 1_555 1_555
O5C Co1A 1_555 1_555
O6A Co2 1_555 1_555
O6C Co2B 1_555 1_555
O7A Co2A 1_555 1_555
O7_2 Co2 1_555 1_555
O7B Co2B 1_555 1_555
O8A C3A 1_555 1_555
O8_2 Co2 1_555 1_555
O8B Co2B 1_555 1_555
O9A Co2A_2 1_555 1_555
O9_2 Co2 1_555 1_555
O9B Co2B 1_555 1_555
C1B C1 1_555 1_555
C2A O6A 1_555 1_555
C3A O2A 1_555 1_555
C4B H2B 1_555 1_555
H3B C4B 1_555 1_555
N1B C5 1_555 1_555
H4B N1B 1_555 1_555
H5B N1B 1_555 1_555
C5B N1 1_555 1_555
H6B C5B 1_555 1_555
H7B C5B 1_555 1_555
Co2 O4A 1_555 1_555
O6 Co2A 1_555 1_555
O9 Co2_3 1_555 1_555
C2 C3 1_555 1_555
Co1A O6A 1_555 1_555
Co2B O4C 1_555 1_555
P1A O4A 1_555 1_555
P1A O7A 1_555 1_555
O3B C1B 1_555 1_555
O5B C1B 1_555 1_555
O9A C2A 1_555 1_555
C2A C3A 1_555 1_555
C4B N1B 1_555 1_555
C4B C5B 1_555 1_555

#END
