
#######################################################################
#
#                 Cambridge Crystallographic Data Centre
#                                CCDC 
#
#######################################################################
#
# If this CIF has been generated from an entry in the Cambridge 
# Structural Database, then it will include bibliographic, chemical, 
# crystal, experimental, refinement or atomic coordinate data resulting 
# from the CCDC's data processing and validation procedures.
#
#######################################################################

data_IHUTIQ
_chemical_formula_moiety         '(C40 H48 Co2 N8 O12)n'
_symmetry_cell_setting           monoclinic
_symmetry_space_group_name_H-M   'P 21/c'
_symmetry_Int_Tables_number      14
_space_group_name_Hall           '-P 2ybc'
loop_
_symmetry_equiv_pos_site_id
_symmetry_equiv_pos_as_xyz
1 x,y,z
2 -x,1/2+y,1/2-z
3 -x,-y,-z
4 x,1/2-y,1/2+z
_cell_length_a                   14.349(11)
_cell_length_b                   12.088(9)
_cell_length_c                   26.62(2)
_cell_angle_alpha                90
_cell_angle_beta                 97.255(11)
_cell_angle_gamma                90
_cell_volume                     4580.29
loop_
_atom_site_label
_atom_site_type_symbol
_atom_site_fract_x
_atom_site_fract_y
_atom_site_fract_z
Co1 Co 0.15946(5) 0.21171(7) 0.30730(3)
Co2 Co 0.64194(5) 0.83762(7) 0.78506(3)
C1 C 0.0858(4) 0.0286(5) 0.2308(2)
H1 H 0.1193 -0.0173 0.2546
C2 C 0.0456(4) -0.0182(6) 0.1861(2)
H2 H 0.0520 -0.0933 0.1798
C3 C -0.0047(4) 0.0506(6) 0.1506(2)
C4 C -0.0162(5) 0.1630(6) 0.1630(2)
H3 H -0.0517 0.2101 0.1406
C5 C 0.0262(5) 0.2009(6) 0.2086(2)
H4 H 0.0178 0.2746 0.2171
C6 C -0.0430(4) 0.0059(7) 0.1000(2)
H5 H -0.0445 -0.0703 0.0951
C7 C -0.1420(5) 0.0655(7) -0.0170(3)
H6 H -0.1404 0.1422 -0.0143
C8 C -0.1836(4) 0.0122(6) -0.0635(2)
C9 C -0.1897(4) -0.1002(6) -0.0700(2)
H7 H -0.1626 -0.1467 -0.0444
C10 C -0.2352(5) -0.1453(6) -0.1137(2)
H8 H -0.2379 -0.2219 -0.1169
C11 C -0.2685(4) 0.0267(5) -0.1475(2)
H9 H -0.2940 0.0710 -0.1743
C12 C -0.2236(4) 0.0771(6) -0.1041(2)
H10 H -0.2201 0.1538 -0.1021
C13 C 0.2462(4) 0.4006(6) 0.3768(2)
H11 H 0.2199 0.4448 0.3501
C14 C 0.2914(4) 0.4515(6) 0.4189(2)
H12 H 0.2937 0.5283 0.4208
C15 C 0.3336(4) 0.3883(6) 0.4584(2)
C16 C 0.3262(5) 0.2721(6) 0.4538(3)
H13 H 0.3532 0.2264 0.4798
C17 C 0.2785(5) 0.2274(6) 0.4105(2)
H14 H 0.2743 0.1508 0.4076
C18 C 0.3831(4) 0.4368(7) 0.5053(2)
H15 H 0.4124 0.3896 0.5300
C19 C 0.4281(5) 0.6595(7) 0.5744(2)
H16 H 0.3942 0.7092 0.5525
C20 C 0.4709(4) 0.6979(6) 0.6252(2)
C21 C 0.5232(4) 0.6247(6) 0.6575(2)
H17 H 0.5290 0.5510 0.6484
C22 C 0.5666(5) 0.6634(6) 0.7035(3)
H18 H 0.6038 0.6148 0.7244
C23 C 0.5028(5) 0.8348(6) 0.6893(3)
H19 H 0.4935 0.9065 0.7003
C24 C 0.4589(5) 0.8034(6) 0.6422(3)
H20 H 0.4215 0.8535 0.6222
C25 C 0.3023(4) 0.0166(5) 0.2958(2)
C26 C 0.3139(4) -0.0907(5) 0.3265(2)
H21 H 0.2585 -0.0989 0.3442
C27 C 0.4012(5) -0.0809(6) 0.3670(2)
H22 H 0.4564 -0.0667 0.3504
H23 H 0.3929 -0.0188 0.3891
C28 C 0.4164(6) -0.1861(6) 0.3986(3)
H24 H 0.4748 -0.1793 0.4212
H25 H 0.3658 -0.1934 0.4193
C29 C 0.4204(5) -0.2902(6) 0.3668(3)
H26 H 0.4196 -0.3538 0.3896
C30 C 0.3318(5) -0.2970(6) 0.3279(3)
H27 H 0.2770 -0.3054 0.3455
H28 H 0.3358 -0.3614 0.3066
C31 C 0.3213(5) -0.1926(5) 0.2950(2)
H29 H 0.3751 -0.1859 0.2765
H30 H 0.2654 -0.1991 0.2705
C32 C 0.5097(5) -0.3014(6) 0.3386(3)
C33 C 0.2101(4) 0.3568(5) 0.2271(2)
C34 C 0.1952(4) 0.4586(5) 0.1926(2)
H31 H 0.2540 0.4728 0.1785
C35 C 0.1172(6) 0.4344(6) 0.1474(2)
H32 H 0.1333 0.3680 0.1299
H33 H 0.0579 0.4214 0.1604
C36 C 0.1066(6) 0.5308(7) 0.1105(3)
H34 H 0.0551 0.5153 0.0842
H35 H 0.1635 0.5368 0.0944
C37 C 0.0883(4) 0.6419(6) 0.1352(3)
H36 H 0.0979 0.7001 0.1108
C38 C 0.1608(5) 0.6606(6) 0.1823(3)
H37 H 0.2219 0.6745 0.1715
H38 H 0.1432 0.7258 0.2001
C39 C 0.1684(5) 0.5631(5) 0.2181(3)
H39 H 0.2151 0.5790 0.2468
H40 H 0.1085 0.5521 0.2308
C40 C -0.0104(4) 0.6525(6) 0.1475(2)
N1 N 0.0798(3) 0.1354(4) 0.24202(18)
N2 N -0.0733(4) 0.0688(5) 0.06362(19)
N3 N -0.1071(4) 0.0037(5) 0.02061(19)
N4 N -0.2762(3) -0.0823(4) -0.15208(17)
N5 N 0.2376(3) 0.2900(4) 0.37183(19)
N6 N 0.3869(4) 0.5389(5) 0.51308(19)
N7 N 0.4366(4) 0.5614(5) 0.5605(2)
N8 N 0.5574(4) 0.7677(4) 0.71934(19)
O1 O 0.2585(3) 0.0932(4) 0.31421(17)
O2 O 0.3409(3) 0.0230(4) 0.25662(16)
O3 O 0.5746(3) -0.2324(5) 0.3454(2)
O4 O 0.5145(3) -0.3813(4) 0.31018(18)
O5 O 0.2586(3) 0.2789(4) 0.21225(19)
O6 O 0.1699(3) 0.3538(4) 0.26677(16)
O7 O -0.0318(4) 0.7453(5) 0.1676(2)
O8 O -0.0700(4) 0.5788(5) 0.1419(2)
Co1A Co -0.15946(5) 0.71171(7) 0.19270(3)
Co2_2 Co -0.35806(5) -0.16238(7) -0.21494(3)
Co2B Co 0.35806(5) 0.16238(7) 0.21494(3)
Co2C Co 0.64194(5) -0.33762(7) 0.28506(3)
N4_2 N 0.7238(3) 0.9177(4) 0.84792(17)
O2B O 0.6591(3) 0.9770(4) 0.74338(16)
O3C O 0.5746(3) 0.7324(5) 0.8454(2)
O4C O 0.5145(3) 0.8813(4) 0.81018(18)
O5B O 0.7414(3) 0.7211(4) 0.78775(19)
O7A O 0.0318(4) 0.2453(5) 0.3324(2)
O9 O 0.8426(8) 0.4642(9) 0.0588(3)
H41 H 0.8647 0.4074 0.0769
H42 H 0.8455 0.4996 0.0873
O10 O 0.6644(6) 0.9095(10) 0.4182(4)
H43 H 0.6313 0.8639 0.4007
H44 H 0.6283 0.9425 0.4372
O11 O 0.9759(8) 0.2998(9) 0.0338(5)
H45 H 0.9259 0.3320 0.0173
H46 H 0.9122 0.2959 0.0341
O12 O 0.8481(9) 0.6419(9) 0.9918(5)
H47 H 0.9066 0.6549 0.9933
H48 H 0.8254 0.5856 1.0050
loop_
_geom_bond_atom_site_label_1
_geom_bond_atom_site_label_2
_geom_bond_site_symmetry_1
_geom_bond_site_symmetry_2
Co1 N1 1_555 1_555
Co2 N8 1_555 1_555
C1 H1 1_555 1_555
C2 C1 1_555 1_555
H2 C2 1_555 1_555
C3 C2 1_555 1_555
C4 C3 1_555 1_555
H3 C4 1_555 1_555
C5 C4 1_555 1_555
H4 C5 1_555 1_555
C6 C3 1_555 1_555
H5 C6 1_555 1_555
C7 H6 1_555 1_555
C8 C7 1_555 1_555
C9 C8 1_555 1_555
H7 C9 1_555 1_555
C10 C9 1_555 1_555
H8 C10 1_555 1_555
C11 H9 1_555 1_555
C12 C8 1_555 1_555
H10 C12 1_555 1_555
C13 H11 1_555 1_555
C14 C13 1_555 1_555
H12 C14 1_555 1_555
C15 C14 1_555 1_555
C16 C15 1_555 1_555
H13 C16 1_555 1_555
C17 C16 1_555 1_555
H14 C17 1_555 1_555
C18 C15 1_555 1_555
H15 C18 1_555 1_555
C19 H16 1_555 1_555
C20 C19 1_555 1_555
C21 C20 1_555 1_555
H17 C21 1_555 1_555
C22 C21 1_555 1_555
H18 C22 1_555 1_555
C23 H19 1_555 1_555
C24 C20 1_555 1_555
H20 C24 1_555 1_555
C25 C26 1_555 1_555
C26 H21 1_555 1_555
C27 C26 1_555 1_555
H22 C27 1_555 1_555
H23 C27 1_555 1_555
C28 C27 1_555 1_555
H24 C28 1_555 1_555
H25 C28 1_555 1_555
C29 C28 1_555 1_555
H26 C29 1_555 1_555
C30 C29 1_555 1_555
H27 C30 1_555 1_555
H28 C30 1_555 1_555
C31 C26 1_555 1_555
H29 C31 1_555 1_555
H30 C31 1_555 1_555
C32 C29 1_555 1_555
C33 C34 1_555 1_555
C34 H31 1_555 1_555
C35 C34 1_555 1_555
H32 C35 1_555 1_555
H33 C35 1_555 1_555
C36 C35 1_555 1_555
H34 C36 1_555 1_555
H35 C36 1_555 1_555
C37 C36 1_555 1_555
H36 C37 1_555 1_555
C38 C37 1_555 1_555
H37 C38 1_555 1_555
H38 C38 1_555 1_555
C39 C34 1_555 1_555
H39 C39 1_555 1_555
H40 C39 1_555 1_555
C40 C37 1_555 1_555
N1 C1 1_555 1_555
N2 C6 1_555 1_555
N3 C7 1_555 1_555
N4 C10 1_555 1_555
N5 Co1 1_555 1_555
N6 C18 1_555 1_555
N7 C19 1_555 1_555
N8 C22 1_555 1_555
O1 Co1 1_555 1_555
O2 C25 1_555 1_555
O3 C32 1_555 1_555
O4 C32 1_555 1_555
O5 C33 1_555 1_555
O6 Co1 1_555 1_555
O7 C40 1_555 1_555
O8 C40 1_555 1_555
O9 H41 1_555 1_555
H42 O9 1_555 1_555
O10 H43 1_555 1_555
H44 O10 1_555 1_555
O11 H45 1_555 1_555
H46 O11 1_555 1_555
O12 H47 1_555 1_555
H48 O12 1_555 1_555
Co1A O7 1_555 1_555
Co2_2 N4 1_555 1_555
Co2B O2 1_555 1_555
Co2C O3 1_555 1_555
N4_2 Co2 1_555 1_555
O2B Co2 1_555 1_555
O3C Co2 1_555 1_555
O4C Co2 1_555 1_555
O5B Co2 1_555 1_555
O7A Co1 1_555 1_555
C5 N1 1_555 1_555
C11 C12 1_555 1_555
C11 N4 1_555 1_555
C13 N5 1_555 1_555
C17 N5 1_555 1_555
C23 C24 1_555 1_555
C23 N8 1_555 1_555
C25 O1 1_555 1_555
C30 C31 1_555 1_555
C33 O6 1_555 1_555
C38 C39 1_555 1_555
N2 N3 1_555 1_555
N6 N7 1_555 1_555
O4 Co2C 1_555 1_555
O5 Co2B 1_555 1_555

#END
