
#######################################################################
#
#                 Cambridge Crystallographic Data Centre
#                                CCDC 
#
#######################################################################
#
# If this CIF has been generated from an entry in the Cambridge 
# Structural Database, then it will include bibliographic, chemical, 
# crystal, experimental, refinement or atomic coordinate data resulting 
# from the CCDC's data processing and validation procedures.
#
#######################################################################

data_LUBNAZ
_chemical_formula_moiety         '(C21 H15 Co2 N1 O15 Zn1)n'
_symmetry_cell_setting           tetragonal
_symmetry_space_group_name_H-M   'I 4 c m'
_symmetry_Int_Tables_number      108
_space_group_name_Hall           'I 4 -2c'
loop_
_symmetry_equiv_pos_site_id
_symmetry_equiv_pos_as_xyz
1 x,y,z
2 -x,-y,z
3 -y,x,z
4 y,-x,z
5 x,-y,1/2+z
6 -x,y,1/2+z
7 -y,-x,1/2+z
8 y,x,1/2+z
9 1/2+x,1/2+y,1/2+z
10 1/2-x,1/2-y,1/2+z
11 1/2-y,1/2+x,1/2+z
12 1/2+y,1/2-x,1/2+z
13 1/2+x,1/2-y,z
14 1/2-x,1/2+y,z
15 1/2-y,1/2-x,z
16 1/2+y,1/2+x,z
_cell_length_a                   20.796(3)
_cell_length_b                   20.796(3)
_cell_length_c                   17.869(4)
_cell_angle_alpha                90
_cell_angle_beta                 90
_cell_angle_gamma                90
_cell_volume                     7727.87
loop_
_atom_site_label
_atom_site_type_symbol
_atom_site_fract_x
_atom_site_fract_y
_atom_site_fract_z
_atom_site_U_iso_or_equiv
_atom_site_thermal_displace_type
Zn1 Zn 0.66067(2) 0.83933(2) 0.84495(4) 0.0314 Uani
Co1 Co 0.74471(2) 0.87753(2) 0.69928(4) 0.0215 Uani
O1 O 0.66897(13) 0.93963(13) 0.83773(17) 0.0312 Uani
O2 O 0.74616(18) 0.95892(15) 0.75362(16) 0.0424 Uani
O3 O 0.82408(17) 1.18739(17) 0.74876(15) 0.0419 Uani
O4 O 0.8366(2) 1.23990(14) 0.86110(17) 0.0515 Uani
O5 O 0.6895(2) 1.05321(19) 1.08400(17) 0.0573 Uani
O6 O 0.76666(17) 1.1292(2) 1.0942(2) 0.0530 Uani
O7 O 0.66261(13) 0.83739(13) 0.7281(2) 0.0251 Uani
O8 O 0.64915(18) 0.85085(18) 0.9589(2) 0.0530 Uani
C1 C 0.71373(19) 0.97159(19) 0.8144(2) 0.0215 Uani
C2 C 0.7332(2) 1.0342(2) 0.8555(2) 0.0370 Uani
C3 C 0.7203(2) 1.0366(2) 0.9320(2) 0.0264 Uani
H1 H 0.6985 1.0034 0.9559 0.0320 Uiso
C4 C 0.7409(3) 1.0901(3) 0.9709(2) 0.0421 Uani
C5 C 0.7279(2) 1.0871(2) 1.0569(2) 0.0363 Uani
C6 C 0.7726(3) 1.1395(2) 0.9361(2) 0.0346 Uani
H2 H 0.7871 1.1741 0.9644 0.0410 Uiso
C7 C 0.7837(2) 1.1391(2) 0.8578(2) 0.0294 Uani
C8 C 0.8175(2) 1.1916(2) 0.8214(2) 0.0286 Uani
C9 C 0.7640(2) 1.08360(19) 0.8186(2) 0.0248 Uani
H3 H 0.7718 1.0803 0.7675 0.0300 Uiso
C10 C 0.6725(4) 0.8275(4) 1.0074(5) 0.0800 Uani
H4 H 0.7038 0.7962 1.0005 0.0970 Uiso
C11 C 0.6992(7) 0.8008(7) 1.1337(10) 0.1593 Uani
C12 C 0.6060(8) 0.8940(8) 1.0781(13) 0.2387 Uani
N1 N 0.6542(6) 0.8458(6) 1.0780(6) 0.1387 Uani
Co1B Co 1.12247(2) 0.74471(2) 0.69928(4) 0.0215 Uani
O1B O 1.06037(13) 0.66897(13) 0.83773(17) 0.0312 Uani
O2B O 1.04108(15) 0.74616(18) 0.75362(16) 0.0424 Uani
O3B O 0.81261(17) 0.82408(17) 0.74876(15) 0.0419 Uani
O4B O 0.76010(14) 0.8366(2) 0.86110(17) 0.0515 Uani
O5B O 0.94679(19) 0.6895(2) 1.08400(17) 0.0573 Uani
O6B O 0.8708(2) 0.76666(17) 1.0942(2) 0.0530 Uani
C1B C 1.02841(19) 0.71373(19) 0.8144(2) 0.0215 Uani
C2B C 0.9658(2) 0.7332(2) 0.8555(2) 0.0370 Uani
C3B C 0.9634(2) 0.7203(2) 0.9320(2) 0.0264 Uani
H1B H 0.9966 0.6985 0.9559 0.0320 Uiso
C4B C 0.9099(3) 0.7409(3) 0.9709(2) 0.0421 Uani
C5B C 0.9129(2) 0.7279(2) 1.0569(2) 0.0363 Uani
C6B C 0.8605(2) 0.7726(3) 0.9361(2) 0.0346 Uani
H2B H 0.8259 0.7871 0.9644 0.0410 Uiso
C7B C 0.8609(2) 0.7837(2) 0.8578(2) 0.0294 Uani
C8B C 0.8084(2) 0.8175(2) 0.8214(2) 0.0286 Uani
C9B C 0.91640(19) 0.7640(2) 0.8186(2) 0.0248 Uani
H3B H 0.9197 0.7718 0.7675 0.0300 Uiso
Zn1B Zn 1.16067(2) 0.66067(2) 0.84495(4) 0.0314 Uani
Zn1C Zn 0.83933(2) 1.33933(2) 0.84495(4) 0.0314 Uani
Co1C Co 0.87753(2) 1.25529(2) 0.69928(4) 0.0215 Uani
Co1D Co 0.74471(2) 1.12247(2) 1.19928(4) 0.0215 Uani
Co1G Co 0.87753(2) 0.74471(2) 1.19928(4) 0.0215 Uani
Co1N Co 0.62247(2) 0.75529(2) 0.69928(4) 0.0215 Uani
O1N O 0.56037(13) 0.83103(13) 0.83773(17) 0.0312 Uani
O3A O 1.17592(17) 0.81261(17) 0.74876(15) 0.0419 Uani
O4M O 0.6634(2) 0.73990(14) 0.86110(17) 0.0515 Uani
O6D O 0.76666(17) 0.8708(2) 0.5942(2) 0.0530 Uani
O6G O 1.1292(2) 0.76666(17) 0.5942(2) 0.0530 Uani
O7B O 1.16261(13) 0.66261(13) 0.7281(2) 0.0251 Uani
O9 O 0.57272(17) 0.92728(17) 0.6641(3) 0.0713 Uani
loop_
_atom_site_aniso_label
_atom_site_aniso_U_11
_atom_site_aniso_U_22
_atom_site_aniso_U_33
_atom_site_aniso_U_23
_atom_site_aniso_U_13
_atom_site_aniso_U_12
Zn1 0.0369(2) 0.0369(2) 0.0203(3) -0.0034(2) 0.0034(2) 0.0062(3)
Co1 0.0226(2) 0.0310(2) 0.01103(17) -0.0008(2) 0.0023(3) 0.0051(2)
O1 0.0380(15) 0.0296(13) 0.0261(14) 0.0063(13) 0.0154(13) -0.0204(12)
O2 0.070(2) 0.0338(17) 0.0235(14) -0.0132(13) 0.0196(15) -0.0097(16)
O3 0.059(2) 0.0530(19) 0.0137(13) 0.0136(13) 0.0100(14) -0.0232(16)
O4 0.104(2) 0.0228(14) 0.0278(17) -0.0027(12) 0.0027(17) -0.0352(15)
O5 0.091(3) 0.062(2) 0.0188(15) 0.0078(16) 0.0277(17) 0.008(2)
O6 0.0401(19) 0.078(3) 0.0409(18) -0.0228(18) 0.0097(16) 0.0057(19)
O7 0.0269(12) 0.0269(12) 0.0215(18) -0.0044(11) 0.0044(11) 0.0071(17)
O8 0.069(2) 0.069(2) 0.021(2) -0.0132(15) 0.0132(15) 0.021(3)
C1 0.0219(6) 0.0209(6) 0.0217(6) -0.0005(5) 0.0006(5) -0.0005(5)
C2 0.052(3) 0.041(2) 0.018(2) -0.0183(18) 0.001(2) -0.026(2)
C3 0.0265(6) 0.0263(6) 0.0264(6) -0.0002(5) 0.0008(5) -0.0016(5)
C4 0.068(3) 0.048(3) 0.0104(18) 0.0004(19) 0.021(2) 0.014(2)
C5 0.052(3) 0.038(2) 0.0190(19) -0.0103(19) 0.011(2) 0.004(2)
C6 0.075(3) 0.022(2) 0.0069(17) -0.0045(16) 0.001(2) -0.008(2)
C7 0.0300(6) 0.0296(6) 0.0286(6) 0.0003(5) 0.0003(5) 0.0001(5)
C8 0.050(3) 0.0186(19) 0.0172(18) 0.0095(15) -0.0007(18) -0.0054(19)
C9 0.038(2) 0.0207(19) 0.0156(17) 0.0058(15) 0.0084(16) 0.0054(18)
C10 0.099(5) 0.099(5) 0.042(5) 0.010(3) -0.010(3) 0.016(6)
C11 0.169(7) 0.169(7) 0.140(9) 0.012(6) -0.012(6) 0.015(9)
C12 0.275(14) 0.275(14) 0.166(16) -0.060(10) 0.060(10) 0.10(2)
N1 0.166(7) 0.166(7) 0.084(7) -0.019(6) 0.019(6) -0.028(10)
Co1B 0.031 0.0226 0.01103 0.0023 0.0008 -0.0051
O1B 0.0296 0.038 0.0261 0.0154 -0.0063 0.0204
O2B 0.0338 0.07 0.0235 0.0196 0.0132 0.0097
O3B 0.053 0.059 0.0137 0.01 -0.0136 0.0232
O4B 0.0228 0.104 0.0278 0.0027 0.0027 0.0352
O5B 0.062 0.091 0.0188 0.0277 -0.0078 -0.008
O6B 0.078 0.0401 0.0409 0.0097 0.0228 -0.0057
C1B 0.0209 0.0219 0.0217 0.0006 0.0005 0.0005
C2B 0.041 0.052 0.018 0.001 0.0183 0.026
C3B 0.0263 0.0265 0.0264 0.0008 0.0002 0.0016
C4B 0.048 0.068 0.0104 0.021 -0.0004 -0.014
C5B 0.038 0.052 0.019 0.011 0.0103 -0.004
C6B 0.022 0.075 0.0069 0.001 0.0045 0.008
C7B 0.0296 0.03 0.0286 0.0003 -0.0003 -0.0001
C8B 0.0186 0.05 0.0172 -0.0007 -0.0095 0.0054
C9B 0.0207 0.038 0.0156 0.0084 -0.0058 -0.0054
Zn1B 0.0369 0.0369 0.0203 0.0034 0.0034 -0.0062
Zn1C 0.0369 0.0369 0.0203 -0.0034 -0.0034 -0.0062
Co1C 0.031 0.0226 0.01103 -0.0023 -0.0008 -0.0051
Co1D 0.0226 0.031 0.01103 0.0008 0.0023 -0.0051
Co1G 0.031 0.0226 0.01103 0.0023 -0.0008 0.0051
Co1N 0.031 0.0226 0.01103 -0.0023 0.0008 0.0051
O1N 0.0296 0.038 0.0261 -0.0154 -0.0063 -0.0204
O3A 0.059 0.053 0.0137 -0.0136 -0.01 -0.0232
O4M 0.104 0.0228 0.0278 -0.0027 -0.0027 0.0352
O6D 0.0401 0.078 0.0409 0.0228 0.0097 -0.0057
O6G 0.078 0.0401 0.0409 0.0097 -0.0228 0.0057
O7B 0.0269 0.0269 0.0215 0.0044 0.0044 -0.0071
O9 0.079(2) 0.079(2) 0.056(3) -0.0041(16) 0.0041(16) 0.060(3)
loop_
_geom_bond_atom_site_label_1
_geom_bond_atom_site_label_2
_geom_bond_site_symmetry_1
_geom_bond_site_symmetry_2
Zn1 O1 1_555 1_555
Co1 O2 1_555 1_555
O1 C1 1_555 1_555
O2 C1 1_555 1_555
O3 C8 1_555 1_555
O4 C8 1_555 1_555
O5 C5 1_555 1_555
O6 C5 1_555 1_555
O7 Zn1 1_555 1_555
O8 Zn1 1_555 1_555
C1 C2 1_555 1_555
C2 C3 1_555 1_555
C3 H1 1_555 1_555
C4 C3 1_555 1_555
C5 C4 1_555 1_555
C6 C4 1_555 1_555
H2 C6 1_555 1_555
C7 C6 1_555 1_555
C8 C7 1_555 1_555
C9 C2 1_555 1_555
H3 C9 1_555 1_555
C10 O8 1_555 1_555
H4 C10 1_555 1_555
C11 N1 1_555 1_555
C12 N1 1_555 1_555
N1 C10 1_555 1_555
Co1B O2B 1_555 1_555
O1B C1B 1_555 1_555
O2B C1B 1_555 1_555
O3B Co1 1_555 1_555
O4B Zn1 1_555 1_555
O5B C5B 1_555 1_555
O6B C5B 1_555 1_555
C1B C2B 1_555 1_555
C2B C3B 1_555 1_555
C3B H1B 1_555 1_555
C4B C3B 1_555 1_555
C5B C4B 1_555 1_555
C6B C4B 1_555 1_555
H2B C6B 1_555 1_555
C7B C6B 1_555 1_555
C8B O3B 1_555 1_555
C9B C2B 1_555 1_555
H3B C9B 1_555 1_555
Zn1B O1B 1_555 1_555
Zn1C O4 1_555 1_555
Co1C O3 1_555 1_555
Co1D O6 1_555 1_555
Co1G O6B 1_555 1_555
Co1N O7 1_555 1_555
O1N Zn1 1_555 1_555
O3A Co1B 1_555 1_555
O4M Zn1 1_555 1_555
O6D Co1 1_555 1_555
O6G Co1B 1_555 1_555
O7B Co1B 1_555 1_555
Co1 O7 1_555 1_555
C7 C9 1_555 1_555
O4B C8B 1_555 1_555
C7B C8B 1_555 1_555
C7B C9B 1_555 1_555
Zn1B O7B 1_555 1_555

#END
