
#######################################################################
#
#                 Cambridge Crystallographic Data Centre
#                                CCDC 
#
#######################################################################
#
# If this CIF has been generated from an entry in the Cambridge 
# Structural Database, then it will include bibliographic, chemical, 
# crystal, experimental, refinement or atomic coordinate data resulting 
# from the CCDC's data processing and validation procedures.
#
#######################################################################

data_NOJMOP
_chemical_formula_moiety         'C37 H30 Cu9 N11'
_symmetry_cell_setting           monoclinic
_symmetry_space_group_name_H-M   'C 2/c'
_symmetry_Int_Tables_number      15
_space_group_name_Hall           '-C 2yc'
loop_
_symmetry_equiv_pos_site_id
_symmetry_equiv_pos_as_xyz
1 x,y,z
2 1/2+x,1/2+y,z
3 -x,y,1/2-z
4 1/2-x,1/2+y,1/2-z
5 -x,-y,-z
6 1/2-x,1/2-y,-z
7 x,-y,1/2+z
8 1/2+x,1/2-y,1/2+z
_cell_length_a                   24.561(4)
_cell_length_b                   20.118(3)
_cell_length_c                   8.0845(12)
_cell_angle_alpha                90
_cell_angle_beta                 106.176(2)
_cell_angle_gamma                90
_cell_volume                     3836.55
loop_
_atom_site_label
_atom_site_type_symbol
_atom_site_fract_x
_atom_site_fract_y
_atom_site_fract_z
Cu1 Cu 0.05033(3) 0.41261(3) 0.66673(8)
Cu2 Cu 0.0000 0.55415(4) 0.7500
Cu3 Cu 0.31566(3) 0.68250(4) 0.22036(12)
Cu4 Cu 0.0000 -0.08951(5) 0.7500
N1 N 0.02036(16) 0.33132(17) 0.7077(5)
N2 N 0.08526(16) 0.49170(16) 0.6382(5)
N3 N 0.06304(16) 0.55259(19) 0.6655(5)
N4 N 0.0000 0.0128(3) 0.7500
N5 N 0.27004(18) 0.6598(2) 0.3924(6)
N6 N 0.3869(3) 0.6426(3) 0.2563(9)
C1 C 0.2667(3) 0.7357(4) 0.0540(10)
C2 C 0.0740(3) 0.2532(3) 0.5799(8)
H1 H 0.0858 0.2939 0.5385
H2 H 0.0562 0.2252 0.4839
H3 H 0.1064 0.2308 0.6527
C3 C 0.0331(2) 0.2682(2) 0.6795(6)
C4 C 0.0000 0.2258(3) 0.7500
C5 C 0.0000 0.1518(3) 0.7500
C6 C 0.0454(3) 0.1164(3) 0.7369(10)
H4 H 0.0779 0.1381 0.7281
C7 C 0.0432(3) 0.0473(3) 0.7367(12)
H5 H 0.0749 0.0242 0.7262
C8 C 0.1656(2) 0.4448(2) 0.5531(6)
H6 H 0.1987 0.4373 0.6479
H7 H 0.1770 0.4543 0.4512
H8 H 0.1422 0.4058 0.5345
C9 C 0.13300(19) 0.5024(2) 0.5933(6)
C10 C 0.14239(19) 0.5708(2) 0.5866(5)
C11 C 0.09690(19) 0.6003(2) 0.6342(5)
C12 C 0.0856(2) 0.6718(2) 0.6628(7)
H9 H 0.0766 0.6950 0.5549
H10 H 0.1186 0.6912 0.7404
H11 H 0.0542 0.6750 0.7116
C13 C 0.1872(2) 0.6034(2) 0.5311(6)
C14 C 0.1785(2) 0.6622(2) 0.4399(6)
H12 H 0.1443 0.6847 0.4233
C15 C 0.2197(2) 0.6881(2) 0.3731(7)
H13 H 0.2120 0.7275 0.3110
C16 C 0.2801(2) 0.6048(3) 0.4893(8)
H14 H 0.3157 0.5854 0.5106
C17 C 0.2412(2) 0.5753(3) 0.5592(7)
H15 H 0.2507 0.5369 0.6249
C18 C 0.4309(3) 0.6212(3) 0.2605(10)
Cu1B Cu -0.05033(3) 0.41261(3) 0.83327(8)
Cu3B Cu -0.31566(3) 0.68250(4) 1.27964(12)
Cu3E Cu 0.18434(3) 0.81750(4) -0.22036(12)
Cu4G Cu 0.5000 0.58951(5) 0.2500
Cu4G_2 Cu -0.5000 0.58951(5) 1.2500
N1B N -0.02036(16) 0.33132(17) 0.7923(5)
N2B N -0.08526(16) 0.49170(16) 0.8618(5)
N3B N -0.06304(16) 0.55259(19) 0.8345(5)
N5B N -0.27004(18) 0.6598(2) 1.1076(6)
N6B N -0.3869(3) 0.6426(3) 1.2437(9)
C1E C 0.2333(3) 0.7643(4) -0.0540(10)
C1B C -0.2667(3) 0.7357(4) 1.4460(10)
C2B C -0.0740(3) 0.2532(3) 0.9201(8)
H1B H -0.0858 0.2939 0.9615
H2B H -0.0562 0.2252 1.0161
H3B H -0.1064 0.2308 0.8473
C3B C -0.0331(2) 0.2682(2) 0.8205(6)
C6B C -0.0454(3) 0.1164(3) 0.7631(10)
H4B H -0.0779 0.1381 0.7719
C7B C -0.0432(3) 0.0473(3) 0.7633(12)
H5B H -0.0749 0.0242 0.7738
C8B C -0.1656(2) 0.4448(2) 0.9469(6)
H6B H -0.1987 0.4373 0.8521
H7B H -0.1770 0.4543 1.0488
H8B H -0.1422 0.4058 0.9655
C9B C -0.13300(19) 0.5024(2) 0.9067(6)
C10B C -0.14239(19) 0.5708(2) 0.9134(5)
C11B C -0.09690(19) 0.6003(2) 0.8658(5)
C12B C -0.0856(2) 0.6718(2) 0.8372(7)
H9B H -0.0766 0.6950 0.9451
H10B H -0.1186 0.6912 0.7596
H11B H -0.0542 0.6750 0.7884
C13B C -0.1872(2) 0.6034(2) 0.9689(6)
C14B C -0.1785(2) 0.6622(2) 1.0601(6)
H12B H -0.1443 0.6847 1.0767
C15B C -0.2197(2) 0.6881(2) 1.1269(7)
H13B H -0.2120 0.7275 1.1890
C16B C -0.2801(2) 0.6048(3) 1.0107(8)
H14B H -0.3157 0.5854 0.9894
C17B C -0.2412(2) 0.5753(3) 0.9408(7)
H15B H -0.2507 0.5369 0.8751
C18B C -0.4309(3) 0.6212(3) 1.2395(10)
C18E C 0.0691(3) -0.1212(3) 0.7395(10)
C18G C -0.0691(3) -0.1212(3) 0.7605(10)
loop_
_geom_bond_atom_site_label_1
_geom_bond_atom_site_label_2
_geom_bond_site_symmetry_1
_geom_bond_site_symmetry_2
Cu1 N1 1_555 1_555
Cu2 N3 1_555 1_555
Cu3 N5 1_555 1_555
Cu4 N4 1_555 1_555
N1 C3 1_555 1_555
N2 Cu1 1_555 1_555
N3 N2 1_555 1_555
N4 C7 1_555 1_555
N5 C15 1_555 1_555
N6 Cu3 1_555 1_555
C1 Cu3 1_555 1_555
C2 H1 1_555 1_555
H2 C2 1_555 1_555
H3 C2 1_555 1_555
C3 C2 1_555 1_555
C4 C3 1_555 1_555
C5 C4 1_555 1_555
C6 C5 1_555 1_555
H4 C6 1_555 1_555
C7 C6 1_555 1_555
H5 C7 1_555 1_555
C8 H6 1_555 1_555
H7 C8 1_555 1_555
H8 C8 1_555 1_555
C9 N2 1_555 1_555
C10 C9 1_555 1_555
C11 N3 1_555 1_555
C12 C11 1_555 1_555
H9 C12 1_555 1_555
H10 C12 1_555 1_555
H11 C12 1_555 1_555
C13 C10 1_555 1_555
C14 C13 1_555 1_555
H12 C14 1_555 1_555
C15 C14 1_555 1_555
H13 C15 1_555 1_555
C16 N5 1_555 1_555
H14 C16 1_555 1_555
C17 C13 1_555 1_555
H15 C17 1_555 1_555
C18 N6 1_555 1_555
Cu1B N1B 1_555 1_555
Cu3B N5B 1_555 1_555
Cu3E C1E 1_555 1_555
Cu4G C18 1_555 1_555
Cu4G_2 C18B 1_555 1_555
N1B N1 1_555 1_555
N2B Cu1B 1_555 1_555
N3B Cu2 1_555 1_555
N5B C15B 1_555 1_555
N6B Cu3B 1_555 1_555
C1E C1 1_555 1_555
C1B Cu3B 1_555 1_555
C2B H1B 1_555 1_555
H2B C2B 1_555 1_555
H3B C2B 1_555 1_555
C3B C4 1_555 1_555
C6B C5 1_555 1_555
H4B C6B 1_555 1_555
C7B N4 1_555 1_555
H5B C7B 1_555 1_555
C8B H6B 1_555 1_555
H7B C8B 1_555 1_555
H8B C8B 1_555 1_555
C9B N2B 1_555 1_555
C10B C9B 1_555 1_555
C11B N3B 1_555 1_555
C12B C11B 1_555 1_555
H9B C12B 1_555 1_555
H10B C12B 1_555 1_555
H11B C12B 1_555 1_555
C13B C10B 1_555 1_555
C14B C13B 1_555 1_555
H12B C14B 1_555 1_555
C15B C14B 1_555 1_555
H13B C15B 1_555 1_555
C16B N5B 1_555 1_555
H14B C16B 1_555 1_555
C17B C13B 1_555 1_555
H15B C17B 1_555 1_555
C18B N6B 1_555 1_555
C18E Cu4 1_555 1_555
C18G Cu4 1_555 1_555
C8 C9 1_555 1_555
C10 C11 1_555 1_555
C16 C17 1_555 1_555
N1B C3B 1_555 1_555
N2B N3B 1_555 1_555
C2B C3B 1_555 1_555
C6B C7B 1_555 1_555
C8B C9B 1_555 1_555
C10B C11B 1_555 1_555
C16B C17B 1_555 1_555

#END
