
#######################################################################
#
#                 Cambridge Crystallographic Data Centre
#                                CCDC 
#
#######################################################################
#
# If this CIF has been generated from an entry in the Cambridge 
# Structural Database, then it will include bibliographic, chemical, 
# crystal, experimental, refinement or atomic coordinate data resulting 
# from the CCDC's data processing and validation procedures.
#
#######################################################################

data_JOPGUS
_chemical_formula_moiety         '(C15 H21 Co1 N1 O7)n'
_symmetry_cell_setting           monoclinic
_symmetry_space_group_name_H-M   'P 21/n'
_symmetry_Int_Tables_number      14
_space_group_name_Hall           '-P 2yn'
loop_
_symmetry_equiv_pos_site_id
_symmetry_equiv_pos_as_xyz
1 x,y,z
2 1/2-x,1/2+y,1/2-z
3 -x,-y,-z
4 1/2+x,1/2-y,1/2+z
_cell_length_a                   9.3727(3)
_cell_length_b                   16.4276(6)
_cell_length_c                   11.9865(5)
_cell_angle_alpha                90
_cell_angle_beta                 109.616(4)
_cell_angle_gamma                90
_cell_volume                     1738.46
loop_
_atom_site_label
_atom_site_type_symbol
_atom_site_fract_x
_atom_site_fract_y
_atom_site_fract_z
Co1 Co 0.37611(16) 0.08761(9) 0.02069(14)
O1 O 0.5804(7) 0.0852(5) 0.1358(5)
O2 O 1.2391(8) 0.0921(4) 0.1162(6)
O3 O 0.7324(7) 0.0052(4) 0.0751(6)
O4 O 1.3321(8) 0.2093(5) 0.2032(7)
O5 O 0.8271(8) 0.3103(5) 0.4236(7)
C1 C 0.8359(10) 0.1225(6) 0.1829(8)
C2 C 0.9732(9) 0.1114(5) 0.1636(7)
H1 H 0.9852 0.0664 0.1205
C3 C 1.0920(10) 0.1656(6) 0.2068(9)
C4 C 0.7072(10) 0.0661(6) 0.1279(8)
C5 C 1.2342(10) 0.1560(6) 0.1747(9)
O6 O 1.0086(9) 0.3747(5) 0.3819(7)
C6 C 1.0748(11) 0.2314(6) 0.2744(9)
H2 H 1.1544 0.2678 0.3049
C7 C 0.9386(10) 0.2434(6) 0.2970(8)
C8 C 0.8209(10) 0.1884(6) 0.2511(8)
H3 H 0.7307 0.1957 0.2662
C9 C 0.9254(12) 0.3141(6) 0.3712(9)
Co1_2 Co 1.37611(16) 0.08761(9) 0.02069(14)
Co1B Co 0.62389(16) -0.08761(9) -0.02069(14)
Co1C Co 0.87611(16) 0.41239(9) 0.52069(14)
O2_2 O 0.2391(8) 0.0921(4) 0.1162(6)
O3B O 0.2676(7) -0.0052(4) -0.0751(6)
O5C O 0.3271(8) 0.1897(5) -0.0764(7)
N1 N 0.3494(14) 0.3680(7) 0.1431(9)
H4 H 0.3464 0.3142 0.1601
C10 C 0.3099(17) 0.4171(9) 0.2334(12)
H5 H 0.2026 0.4106 0.2202
H6 H 0.3275 0.4741 0.2214
C11 C 0.3956(16) 0.3955(8) 0.3582(10)
H7 H 0.3643 0.4301 0.4103
H8 H 0.5020 0.4027 0.3729
H9 H 0.3759 0.3398 0.3722
C12 C 0.249(2) 0.3831(12) 0.0210(13)
H10 H 0.2939 0.3592 -0.0333
H11 H 0.2420 0.4414 0.0070
C13 C 0.092(2) 0.3496(13) -0.0062(16)
H12 H 0.0330 0.3617 -0.0869
H13 H 0.0453 0.3740 0.0457
H14 H 0.0972 0.2917 0.0053
C14 C 0.518(2) 0.3929(19) 0.1593(19)
H15 H 0.5207 0.4509 0.1457
H16 H 0.5800 0.3825 0.2408
C15 C 0.586(3) 0.3499(19) 0.080(2)
H17 H 0.6879 0.3680 0.0968
H18 H 0.5276 0.3616 -0.0008
H19 H 0.5849 0.2923 0.0937
O7 O 0.443(2) 0.0230(13) -0.3234(18)
loop_
_geom_bond_atom_site_label_1
_geom_bond_atom_site_label_2
_geom_bond_site_symmetry_1
_geom_bond_site_symmetry_2
Co1 O1 1_555 1_555
O1 C4 1_555 1_555
O2 C5 1_555 1_555
O3 C4 1_555 1_555
O4 C5 1_555 1_555
O5 C9 1_555 1_555
C1 C2 1_555 1_555
C2 H1 1_555 1_555
C3 C2 1_555 1_555
C4 C1 1_555 1_555
C5 C3 1_555 1_555
O6 C9 1_555 1_555
C6 C3 1_555 1_555
H2 C6 1_555 1_555
C7 C6 1_555 1_555
C8 C1 1_555 1_555
H3 C8 1_555 1_555
C9 C7 1_555 1_555
N1 H4 1_555 1_555
C10 N1 1_555 1_555
H5 C10 1_555 1_555
H6 C10 1_555 1_555
C11 C10 1_555 1_555
H7 C11 1_555 1_555
H8 C11 1_555 1_555
H9 C11 1_555 1_555
C12 N1 1_555 1_555
H10 C12 1_555 1_555
H11 C12 1_555 1_555
C13 C12 1_555 1_555
H12 C13 1_555 1_555
H13 C13 1_555 1_555
H14 C13 1_555 1_555
C14 N1 1_555 1_555
H15 C14 1_555 1_555
H16 C14 1_555 1_555
C15 C14 1_555 1_555
H17 C15 1_555 1_555
H18 C15 1_555 1_555
H19 C15 1_555 1_555
Co1_2 O2 1_555 1_555
Co1B O3 1_555 1_555
Co1C O5 1_555 1_555
O2_2 Co1 1_555 1_555
O3B Co1 1_555 1_555
O5C Co1 1_555 1_555
C7 C8 1_555 1_555

#END
