
#######################################################################
#
#                 Cambridge Crystallographic Data Centre
#                                CCDC 
#
#######################################################################
#
# If this CIF has been generated from an entry in the Cambridge 
# Structural Database, then it will include bibliographic, chemical, 
# crystal, experimental, refinement or atomic coordinate data resulting 
# from the CCDC's data processing and validation procedures.
#
#######################################################################

data_HIGRIA
_chemical_formula_moiety         'C88 H60 Co4 N49 O18 Zn19'
_symmetry_cell_setting           trigonal
_symmetry_space_group_name_H-M   'P 3 2 1'
_symmetry_Int_Tables_number      150
_space_group_name_Hall           'P 3 2"'
loop_
_symmetry_equiv_pos_site_id
_symmetry_equiv_pos_as_xyz
1 x,y,z
2 -y,x-y,z
3 -x+y,-x,z
4 y,x,-z
5 x-y,-y,-z
6 -x,-x+y,-z
_cell_length_a                   17.7771(7)
_cell_length_b                   17.7771(7)
_cell_length_c                   19.1129(16)
_cell_angle_alpha                90
_cell_angle_beta                 90
_cell_angle_gamma                120
_cell_volume                     5230.93
loop_
_atom_site_label
_atom_site_type_symbol
_atom_site_fract_x
_atom_site_fract_y
_atom_site_fract_z
_atom_site_U_iso_or_equiv
_atom_site_thermal_displace_type
Zn1 Zn 0.333333 0.666667 0.7350(6) 0.0280 Uiso
Co1 Co 0.333333 0.666667 0.9237(9) 0.0100 Uiso
Zn2 Zn 0.1275(7) 0.6319(6) 0.6715(5) 0.0280 Uiso
O1 O 0.059(6) 0.622(7) 0.573(5) 0.0500 Uiso
C1 C -0.0124(7) 0.59803(10) 0.6195(8) 0.0200 Uiso
C2 C -0.1009(6) 0.5757(2) 0.5925(2) 0.0200 Uiso
O2 O 0.27(2) 0.70(2) 1.0122(6) 0.0500 Uiso
C3 C 0.333333 0.666667 1.0517(5) 0.0200 Uiso
C4 C 0.333333 0.666667 1.1271(5) 0.0200 Uiso
N1 N 0.2389(8) 0.739(2) 0.640(3) 0.0400 Uiso
N2 N 0.31534(10) 0.754(3) 0.664(4) 0.0400 Uiso
N3 N 0.382(4) 0.827(2) 0.6340(5) 0.0400 Uiso
C5 C 0.345(3) 0.859(3) 0.591(5) 0.0200 Uiso
C6 C 0.25251(10) 0.808(4) 0.600(6) 0.0200 Uiso
C7 C 0.383(2) 0.940(4) 0.557(6) 0.0200 Uiso
C8 C 0.23658(10) 0.902(4) 0.522(5) 0.0200 Uiso
C9 C 0.198(2) 0.827(3) 0.560(5) 0.0200 Uiso
C10 C 0.32817(10) 0.961(7) 0.519(9) 0.0200 Uiso
N4 N 0.147(2) 0.633(7) 0.7765(5) 0.0400 Uiso
N5 N 0.222(3) 0.644(9) 0.8008(7) 0.0400 Uiso
N6 N 0.22399(10) 0.641(4) 0.8707(5) 0.0400 Uiso
C11 C 0.096(2) 0.624(5) 0.8334(5) 0.0200 Uiso
C12 C 0.14528(10) 0.628(4) 0.8926(5) 0.0200 Uiso
C13 C 0.110(3) 0.6122(10) 0.9616(9) 0.0200 Uiso
C14 C 0.026(4) 0.598(9) 0.9657(9) 0.0200 Uiso
C15 C 0.011(3) 0.607(8) 0.840(2) 0.0200 Uiso
C16 C -0.026(3) 0.587(9) 0.90564(10) 0.0200 Uiso
O3 O 0.0010(6) 0.6027(6) 0.6748(5) 0.0500 Uiso
H1 H -0.129217 0.518155 0.573218 0.0380 Uiso
H2 H -0.094761 0.616495 0.55692 0.0380 Uiso
H3 H -0.135181 0.578273 0.630315 0.0380 Uiso
H4 H 0.313611 0.608842 1.143813 0.0380 Uiso
H5 H 0.442293 0.979422 0.560565 0.0380 Uiso
H6 H 0.200694 0.916706 0.497074 0.0380 Uiso
H7 H 0.13797 0.790026 0.559629 0.0380 Uiso
H8 H 0.140779 0.611229 1.000635 0.0380 Uiso
H9 H -0.0199 0.609387 0.801769 0.0380 Uiso
H10 H -0.085518 0.566649 0.910802 0.0380 Uiso
O2A O 0.30(2) 0.57(3) 1.0122(6) 0.0500 Uiso
H4A H 0.391158 0.704769 1.143813 0.0380 Uiso
O2B O 0.43(3) 0.73(2) 1.0122(6) 0.0500 Uiso
H4B H 0.295231 0.686389 1.143813 0.0380 Uiso
N1D N 0.4999(22) 1.261(2) 0.360(3) 0.0400 Uiso
N2D N 0.5613(30) 1.246(3) 0.336(4) 0.0400 Uiso
N3D N 0.555(4) 1.173(2) 0.3660(5) 0.0400 Uiso
C5D C 0.486(4) 1.141(3) 0.409(5) 0.0200 Uiso
C6D C 0.4445(40) 1.192(4) 0.400(6) 0.0200 Uiso
C7D C 0.443(4) 1.060(4) 0.443(6) 0.0200 Uiso
C8D C 0.3346(40) 1.098(4) 0.478(5) 0.0200 Uiso
C9D C 0.371(4) 1.173(3) 0.440(5) 0.0200 Uiso
C10D C 0.3672(70) 1.039(7) 0.481(9) 0.0200 Uiso
H5D H 0.462871 1.020578 0.439435 0.0380 Uiso
H6D H 0.283988 1.083294 0.502926 0.0380 Uiso
H7D H 0.347944 1.209974 0.440371 0.0380 Uiso
N4E N -0.147(2) 0.486(7) 1.2235(5) 0.0400 Uiso
N5E N -0.222(3) 0.422(9) 1.1992(7) 0.0400 Uiso
N6E N -0.22399(10) 0.4170(40) 1.1293(5) 0.0400 Uiso
C11E C -0.096(2) 0.528(5) 1.1666(5) 0.0200 Uiso
C12E C -0.14528(10) 0.4827(40) 1.1074(5) 0.0200 Uiso
C13E C -0.110(3) 0.5022(32) 1.0384(9) 0.0200 Uiso
C14E C -0.026(4) 0.572(10) 1.0343(9) 0.0200 Uiso
C15E C -0.011(3) 0.596(9) 1.160(2) 0.0200 Uiso
C16E C 0.026(3) 0.613(9) 1.09436(10) 0.0200 Uiso
H8E H -0.140779 0.470450 0.999365 0.0380 Uiso
H9E H 0.0199 0.629287 1.198231 0.0380 Uiso
H10E H 0.085518 0.652167 1.089198 0.0380 Uiso
Zn2B Zn 0.5044(9) 0.8725(7) 0.6715(5) 0.0280 Uiso
O1B O 0.563(9) 0.941(6) 0.573(5) 0.0500 Uiso
C1B C 0.61043(71) 1.0124(7) 0.6195(8) 0.0200 Uiso
C2B C 0.6766(6) 1.1009(6) 0.5925(2) 0.0200 Uiso
O3B O 0.6017(8) 0.9990(6) 0.6748(5) 0.0500 Uiso
H1B H 0.647372 1.129217 0.573218 0.0380 Uiso
H2B H 0.711256 1.094761 0.55692 0.0380 Uiso
H3B H 0.713454 1.135181 0.630315 0.0380 Uiso
Zn2D Zn 0.4956(9) 1.3681(6) 0.3285(5) 0.0280 Uiso
O1D O 0.437(9) 1.378(7) 0.427(5) 0.0500 Uiso
C1D C 0.38957(71) 1.40197(10) 0.3805(8) 0.0200 Uiso
C2D C 0.3234(6) 1.4243(2) 0.4075(2) 0.0200 Uiso
O3D O 0.3983(8) 1.3973(6) 0.3252(5) 0.0500 Uiso
H1D H 0.352628 1.481845 0.426782 0.0380 Uiso
H2D H 0.288744 1.383505 0.44308 0.0380 Uiso
H3D H 0.286546 1.421727 0.369685 0.0380 Uiso
Zn1C Zn -0.333333 0.333333 0.2650(6) 0.0280 Uiso
Zn2C Zn -0.3681(6) 0.1275(7) 0.3285(5) 0.0280 Uiso
O1C O -0.378(7) 0.059(6) 0.427(5) 0.0500 Uiso
C1C C -0.40197(10) -0.0124(7) 0.3805(8) 0.0200 Uiso
C2C C -0.4243(2) -0.1009(6) 0.4075(2) 0.0200 Uiso
N1C N -0.261(2) 0.2389(8) 0.360(3) 0.0400 Uiso
N2C N -0.246(3) 0.31534(10) 0.336(4) 0.0400 Uiso
N3C N -0.173(2) 0.382(4) 0.3660(5) 0.0400 Uiso
C5C C -0.141(3) 0.345(3) 0.409(5) 0.0200 Uiso
C6C C -0.192(4) 0.25251(10) 0.400(6) 0.0200 Uiso
C7C C -0.060(4) 0.383(2) 0.443(6) 0.0200 Uiso
C8C C -0.098(4) 0.23658(10) 0.478(5) 0.0200 Uiso
C9C C -0.173(3) 0.198(2) 0.440(5) 0.0200 Uiso
C10C C -0.039(7) 0.32817(10) 0.481(9) 0.0200 Uiso
O3C O -0.3973(6) 0.0010(6) 0.3252(5) 0.0500 Uiso
H1C H -0.481845 -0.129217 0.426782 0.0380 Uiso
H2C H -0.383505 -0.094761 0.44308 0.0380 Uiso
H3C H -0.421727 -0.135181 0.369685 0.0380 Uiso
H5C H -0.020578 0.442293 0.439435 0.0380 Uiso
H6C H -0.083294 0.200694 0.502926 0.0380 Uiso
H7C H -0.209974 0.13797 0.440371 0.0380 Uiso
N1A N 0.261(2) 0.4999(22) 0.640(3) 0.0400 Uiso
N2A N 0.246(3) 0.5613(30) 0.664(4) 0.0400 Uiso
N3A N 0.173(2) 0.555(4) 0.6340(5) 0.0400 Uiso
C5A C 0.141(3) 0.486(4) 0.591(5) 0.0200 Uiso
C6A C 0.192(4) 0.4445(40) 0.600(6) 0.0200 Uiso
C7A C 0.060(4) 0.443(4) 0.557(6) 0.0200 Uiso
C8A C 0.098(4) 0.3346(40) 0.522(5) 0.0200 Uiso
C9A C 0.173(3) 0.371(4) 0.560(5) 0.0200 Uiso
C10A C 0.039(7) 0.3672(70) 0.519(9) 0.0200 Uiso
H5A H 0.020578 0.462871 0.560565 0.0380 Uiso
H6A H 0.083294 0.283988 0.497074 0.0380 Uiso
H7A H 0.209974 0.347944 0.559629 0.0380 Uiso
Zn2A Zn 0.3681(6) 0.4956(9) 0.6715(5) 0.0280 Uiso
O1A O 0.378(7) 0.437(9) 0.573(5) 0.0500 Uiso
C1A C 0.40197(10) 0.38957(71) 0.6195(8) 0.0200 Uiso
C2A C 0.4243(2) 0.3234(6) 0.5925(2) 0.0200 Uiso
N4A N 0.367(7) 0.514(7) 0.7765(5) 0.0400 Uiso
N5A N 0.356(9) 0.578(9) 0.8008(7) 0.0400 Uiso
N6A N 0.359(4) 0.5830(40) 0.8707(5) 0.0400 Uiso
C11A C 0.376(5) 0.472(5) 0.8334(5) 0.0200 Uiso
C12A C 0.372(4) 0.5173(40) 0.8926(5) 0.0200 Uiso
C13A C 0.3878(10) 0.4978(32) 0.9616(9) 0.0200 Uiso
C14A C 0.402(9) 0.428(10) 0.9657(9) 0.0200 Uiso
C15A C 0.393(8) 0.404(9) 0.840(2) 0.0200 Uiso
C16A C 0.413(9) 0.387(9) 0.90564(10) 0.0200 Uiso
O3A O 0.3973(6) 0.3983(8) 0.6748(5) 0.0500 Uiso
H1A H 0.481845 0.352628 0.573218 0.0380 Uiso
H2A H 0.383505 0.288744 0.55692 0.0380 Uiso
H3A H 0.421727 0.286546 0.630315 0.0380 Uiso
H8A H 0.388771 0.529550 1.000635 0.0380 Uiso
H9A H 0.390613 0.370713 0.801769 0.0380 Uiso
H10A H 0.433351 0.347833 0.910802 0.0380 Uiso
N4D N 0.514(7) 0.367(7) 1.2235(5) 0.0400 Uiso
N5D N 0.578(9) 0.356(9) 1.1992(7) 0.0400 Uiso
N6D N 0.5830(40) 0.359(4) 1.1293(5) 0.0400 Uiso
C11D C 0.472(5) 0.376(5) 1.1666(5) 0.0200 Uiso
C12D C 0.5173(40) 0.372(4) 1.1074(5) 0.0200 Uiso
C13D C 0.4978(32) 0.3878(10) 1.0384(9) 0.0200 Uiso
C14D C 0.428(10) 0.402(9) 1.0343(9) 0.0200 Uiso
C15D C 0.404(9) 0.393(8) 1.160(2) 0.0200 Uiso
C16D C 0.387(9) 0.413(9) 1.09436(10) 0.0200 Uiso
H8D H 0.529550 0.388771 0.999365 0.0380 Uiso
H9D H 0.370713 0.390613 1.198231 0.0380 Uiso
H10D H 0.347833 0.433351 1.089198 0.0380 Uiso
N4B N 0.486(7) 0.853(2) 0.7765(5) 0.0400 Uiso
N5B N 0.422(9) 0.778(3) 0.8008(7) 0.0400 Uiso
N6B N 0.4170(40) 0.77601(10) 0.8707(5) 0.0400 Uiso
C11B C 0.528(5) 0.904(2) 0.8334(5) 0.0200 Uiso
C12B C 0.4827(40) 0.85472(10) 0.8926(5) 0.0200 Uiso
C13B C 0.5022(32) 0.890(3) 0.9616(9) 0.0200 Uiso
C14B C 0.572(10) 0.974(4) 0.9657(9) 0.0200 Uiso
C15B C 0.596(9) 0.989(3) 0.840(2) 0.0200 Uiso
C16B C 0.613(9) 1.026(3) 0.90564(10) 0.0200 Uiso
H8B H 0.470450 0.859221 1.000635 0.0380 Uiso
H9B H 0.629287 1.0199 0.801769 0.0380 Uiso
H10B H 0.652167 1.085518 0.910802 0.0380 Uiso
N4C N 0.633(7) 1.147(2) 1.2235(5) 0.0400 Uiso
N5C N 0.644(9) 1.222(3) 1.1992(7) 0.0400 Uiso
N6C N 0.641(4) 1.22399(10) 1.1293(5) 0.0400 Uiso
C11C C 0.624(5) 1.096(2) 1.1666(5) 0.0200 Uiso
C12C C 0.628(4) 1.14528(10) 1.1074(5) 0.0200 Uiso
C13C C 0.6122(10) 1.110(3) 1.0384(9) 0.0200 Uiso
C14C C 0.598(9) 1.026(4) 1.0343(9) 0.0200 Uiso
C15C C 0.607(8) 1.011(3) 1.160(2) 0.0200 Uiso
C16C C 0.587(9) 0.974(3) 1.09436(10) 0.0200 Uiso
H8C H 0.611229 1.140779 0.999365 0.0380 Uiso
H9C H 0.609387 0.9801 1.198231 0.0380 Uiso
H10C H 0.566649 0.914482 1.089198 0.0380 Uiso
N1B N 0.5001(22) 0.7611(8) 0.640(3) 0.0400 Uiso
N2B N 0.4387(30) 0.68466(10) 0.664(4) 0.0400 Uiso
N3B N 0.445(4) 0.618(4) 0.6340(5) 0.0400 Uiso
C5B C 0.514(4) 0.655(3) 0.591(5) 0.0200 Uiso
C6B C 0.5555(40) 0.74749(10) 0.600(6) 0.0200 Uiso
C7B C 0.557(4) 0.617(2) 0.557(6) 0.0200 Uiso
C8B C 0.6654(40) 0.76342(10) 0.522(5) 0.0200 Uiso
C9B C 0.629(4) 0.802(2) 0.560(5) 0.0200 Uiso
C10B C 0.6328(70) 0.67183(10) 0.519(9) 0.0200 Uiso
H5B H 0.537129 0.557707 0.560565 0.0380 Uiso
H6B H 0.716012 0.799306 0.497074 0.0380 Uiso
H7B H 0.652056 0.86203 0.559629 0.0380 Uiso
N1E N 0.7611(8) 0.5001(22) 0.360(3) 0.0400 Uiso
N2E N 0.68466(10) 0.4387(30) 0.336(4) 0.0400 Uiso
N3E N 0.618(4) 0.445(4) 0.3660(5) 0.0400 Uiso
C5E C 0.655(3) 0.514(4) 0.409(5) 0.0200 Uiso
C6E C 0.74749(10) 0.5555(40) 0.400(6) 0.0200 Uiso
C7E C 0.617(2) 0.557(4) 0.443(6) 0.0200 Uiso
C8E C 0.76342(10) 0.6654(40) 0.478(5) 0.0200 Uiso
C9E C 0.802(2) 0.629(4) 0.440(5) 0.0200 Uiso
C10E C 0.67183(10) 0.6328(70) 0.481(9) 0.0200 Uiso
H5E H 0.557707 0.537129 0.439435 0.0380 Uiso
H6E H 0.799306 0.716012 0.502926 0.0380 Uiso
H7E H 0.86203 0.652056 0.440371 0.0380 Uiso
Co1C Co -0.333333 0.333333 1.0763(9) 0.0100 Uiso
O2C O -0.30(2) 0.27(2) 0.9878(6) 0.0500 Uiso
C3C C -0.333333 0.333333 0.9483(5) 0.0200 Uiso
C4C C -0.333333 0.333333 0.8729(5) 0.0200 Uiso
H4C H -0.391158 0.313611 0.856187 0.0380 Uiso
O2D O -0.43(3) 0.30(2) 0.9878(6) 0.0500 Uiso
H4D H -0.295231 0.391158 0.856187 0.0380 Uiso
O2E O -0.27(2) 0.43(3) 0.9878(6) 0.0500 Uiso
H4E H -0.313611 0.295231 0.856187 0.0380 Uiso
Zn2C_2 Zn 0.6319(6) 1.1275(7) 0.3285(5) 0.0280 Uiso
O1C_2 O 0.622(7) 1.059(6) 0.427(5) 0.0500 Uiso
C1C_2 C 0.59803(10) 0.9876(7) 0.3805(8) 0.0200 Uiso
C2C_2 C 0.5757(2) 0.8991(6) 0.4075(2) 0.0200 Uiso
O3C_2 O 0.6027(6) 1.0010(6) 0.3252(5) 0.0500 Uiso
H1C_2 H 0.518155 0.870783 0.426782 0.0380 Uiso
H2C_2 H 0.616495 0.905239 0.44308 0.0380 Uiso
H3C_2 H 0.578273 0.864819 0.369685 0.0380 Uiso
Zn1C_2 Zn -0.333333 0.333333 1.2650(6) 0.0280 Uiso
Zn1C_3 Zn 0.666667 0.333333 0.2650(6) 0.0280 Uiso
Zn1C_4 Zn 0.666667 0.333333 1.2650(6) 0.0280 Uiso
Zn1C_5 Zn 0.666667 1.333333 0.2650(6) 0.0280 Uiso
Zn1C_6 Zn 0.666667 1.333333 1.2650(6) 0.0280 Uiso
Co1C_2 Co 0.666667 0.333333 1.0763(9) 0.0100 Uiso
Co1C_3 Co 0.666667 1.333333 1.0763(9) 0.0100 Uiso
Zn2C_3 Zn 0.6319(6) 1.1275(7) 1.3285(5) 0.0280 Uiso
Zn2D_2 Zn 0.4956(9) 0.3681(6) 0.3285(5) 0.0280 Uiso
Zn2D_3 Zn 0.4956(9) 0.3681(6) 1.3285(5) 0.0280 Uiso
Zn2E Zn -0.1275(7) 0.5044(9) 0.3285(5) 0.0280 Uiso
Zn2E_2 Zn -0.1275(7) 0.5044(9) 1.3285(5) 0.0280 Uiso
Zn2E_3 Zn 0.8725(7) 0.5044(9) 0.3285(5) 0.0280 Uiso
N1C_2 N 0.739(2) 1.2389(8) 0.360(3) 0.0400 Uiso
N2D_2 N -0.4387(30) 0.246(3) 0.336(4) 0.0400 Uiso
N2E_2 N -0.31534(10) 0.4387(30) 0.336(4) 0.0400 Uiso
N3D_2 N -0.445(4) 0.173(2) 0.3660(5) 0.0400 Uiso
N3E_2 N 0.618(4) 1.445(4) 0.3660(5) 0.0400 Uiso
N4C_2 N -0.367(7) 0.147(2) 0.2235(5) 0.0400 Uiso
N4C_3 N 0.633(7) 1.147(2) 0.2235(5) 0.0400 Uiso
N4D_2 N 0.514(7) 1.367(7) 0.2235(5) 0.0400 Uiso
N5C_2 N -0.356(9) 0.222(3) 0.1992(7) 0.0400 Uiso
N5D_2 N -0.422(9) 0.356(9) 0.1992(7) 0.0400 Uiso
N5E_2 N -0.222(3) 0.422(9) 0.1992(7) 0.0400 Uiso
N6C_2 N -0.359(4) 0.22399(10) 1.1293(5) 0.0400 Uiso
N6D_2 N -0.4170(40) 0.359(4) 1.1293(5) 0.0400 Uiso
loop_
_geom_bond_atom_site_label_1
_geom_bond_atom_site_label_2
_geom_bond_site_symmetry_1
_geom_bond_site_symmetry_2
Zn1 N2 1_555 1_555
Co1 O2 1_555 1_555
Zn2 O1 1_555 1_555
O1 C1 1_555 1_555
C1 C2 1_555 1_555
C2 H1 1_555 1_555
O2 C3 1_555 1_555
C3 C4 1_555 1_555
C4 H4 1_555 1_555
N1 Zn2 1_555 1_555
N2 N1 1_555 1_555
N3 N2 1_555 1_555
C5 N3 1_555 1_555
C6 N1 1_555 1_555
C7 C5 1_555 1_555
C8 C9 1_555 1_555
C9 C6 1_555 1_555
C10 C7 1_555 1_555
N4 Zn2 1_555 1_555
N5 Zn1 1_555 1_555
N6 Co1 1_555 1_555
C11 N4 1_555 1_555
C12 N6 1_555 1_555
C13 C12 1_555 1_555
C14 C13 1_555 1_555
C15 C11 1_555 1_555
C16 C14 1_555 1_555
O3 Zn2 1_555 1_555
H2 C2 1_555 1_555
H3 C2 1_555 1_555
H5 C7 1_555 1_555
H6 C8 1_555 1_555
H7 C9 1_555 1_555
H8 C13 1_555 1_555
H9 C15 1_555 1_555
H10 C16 1_555 1_555
O2A Co1 1_555 1_555
H4A C4 1_555 1_555
O2B Co1 1_555 1_555
H4B C4 1_555 1_555
N1D N2D 1_555 1_555
N2D N3D 1_555 1_555
N3D C5D 1_555 1_555
C5D C6D 1_555 1_555
C6D N1D 1_555 1_555
C7D C5D 1_555 1_555
C8D C9D 1_555 1_555
C9D C6D 1_555 1_555
C10D C10 1_555 1_555
H5D C7D 1_555 1_555
H6D C8D 1_555 1_555
H7D C9D 1_555 1_555
N4E N5E 1_555 1_555
N5E N6E 1_555 1_555
N6E C12E 1_555 1_555
C11E N4E 1_555 1_555
C12E C11E 1_555 1_555
C13E C12E 1_555 1_555
C14E C14 1_555 1_555
C15E C11E 1_555 1_555
C16E C14E 1_555 1_555
H8E C13E 1_555 1_555
H9E C15E 1_555 1_555
H10E C16E 1_555 1_555
Zn2B N3 1_555 1_555
O1B Zn2B 1_555 1_555
C1B O1B 1_555 1_555
C2B C1B 1_555 1_555
O3B Zn2B 1_555 1_555
H1B C2B 1_555 1_555
H2B C2B 1_555 1_555
H3B C2B 1_555 1_555
Zn2D N1D 1_555 1_555
O1D Zn2D 1_555 1_555
C1D O1D 1_555 1_555
C2D C1D 1_555 1_555
O3D Zn2D 1_555 1_555
H1D C2D 1_555 1_555
H2D C2D 1_555 1_555
H3D C2D 1_555 1_555
Zn1C N2C 1_555 1_555
Zn2C O1C 1_555 1_555
O1C C1C 1_555 1_555
C1C C2C 1_555 1_555
C2C H1C 1_555 1_555
N1C Zn2C 1_555 1_555
N2C N1C 1_555 1_555
N3C N2C 1_555 1_555
C5C N3C 1_555 1_555
C6C N1C 1_555 1_555
C7C C5C 1_555 1_555
C8C C9C 1_555 1_555
C9C C6C 1_555 1_555
C10C C7C 1_555 1_555
O3C Zn2C 1_555 1_555
H2C C2C 1_555 1_555
H3C C2C 1_555 1_555
H5C C7C 1_555 1_555
H6C C8C 1_555 1_555
H7C C9C 1_555 1_555
N1A N2A 1_555 1_555
N2A Zn1 1_555 1_555
N3A Zn2 1_555 1_555
C5A N3A 1_555 1_555
C6A N1A 1_555 1_555
C7A C5A 1_555 1_555
C8A C9A 1_555 1_555
C9A C6A 1_555 1_555
C10A C10C 1_555 1_555
H5A C7A 1_555 1_555
H6A C8A 1_555 1_555
H7A C9A 1_555 1_555
Zn2A N1A 1_555 1_555
O1A Zn2A 1_555 1_555
C1A O1A 1_555 1_555
C2A C1A 1_555 1_555
N4A Zn2A 1_555 1_555
N5A Zn1 1_555 1_555
N6A Co1 1_555 1_555
C11A N4A 1_555 1_555
C12A N6A 1_555 1_555
C13A C12A 1_555 1_555
C14A C13A 1_555 1_555
C15A C11A 1_555 1_555
C16A C14A 1_555 1_555
O3A Zn2A 1_555 1_555
H1A C2A 1_555 1_555
H2A C2A 1_555 1_555
H3A C2A 1_555 1_555
H8A C13A 1_555 1_555
H9A C15A 1_555 1_555
H10A C16A 1_555 1_555
N4D N5D 1_555 1_555
N5D N6D 1_555 1_555
N6D C12D 1_555 1_555
C11D N4D 1_555 1_555
C12D C11D 1_555 1_555
C13D C12D 1_555 1_555
C14D C14A 1_555 1_555
C15D C11D 1_555 1_555
C16D C14D 1_555 1_555
H8D C13D 1_555 1_555
H9D C15D 1_555 1_555
H10D C16D 1_555 1_555
N4B Zn2B 1_555 1_555
N5B Zn1 1_555 1_555
N6B Co1 1_555 1_555
C11B N4B 1_555 1_555
C12B N6B 1_555 1_555
C13B C12B 1_555 1_555
C14B C13B 1_555 1_555
C15B C11B 1_555 1_555
C16B C14B 1_555 1_555
H8B C13B 1_555 1_555
H9B C15B 1_555 1_555
H10B C16B 1_555 1_555
N4C N5C 1_555 1_555
N5C N6C 1_555 1_555
N6C C12C 1_555 1_555
C11C N4C 1_555 1_555
C12C C11C 1_555 1_555
C13C C12C 1_555 1_555
C14C C14B 1_555 1_555
C15C C11C 1_555 1_555
C16C C14C 1_555 1_555
H8C C13C 1_555 1_555
H9C C15C 1_555 1_555
H10C C16C 1_555 1_555
N1B Zn2B 1_555 1_555
N2B Zn1 1_555 1_555
N3B Zn2A 1_555 1_555
C5B N3B 1_555 1_555
C6B N1B 1_555 1_555
C7B C5B 1_555 1_555
C8B C9B 1_555 1_555
C9B C6B 1_555 1_555
C10B C7B 1_555 1_555
H5B C7B 1_555 1_555
H6B C8B 1_555 1_555
H7B C9B 1_555 1_555
N1E N2E 1_555 1_555
N2E N3E 1_555 1_555
N3E C5E 1_555 1_555
C5E C6E 1_555 1_555
C6E N1E 1_555 1_555
C7E C5E 1_555 1_555
C8E C9E 1_555 1_555
C9E C6E 1_555 1_555
C10E C10B 1_555 1_555
H5E C7E 1_555 1_555
H6E C8E 1_555 1_555
H7E C9E 1_555 1_555
Co1C N6E 1_555 1_555
O2C Co1C 1_555 1_555
C3C O2C 1_555 1_555
C4C C3C 1_555 1_555
H4C C4C 1_555 1_555
O2D Co1C 1_555 1_555
H4D C4C 1_555 1_555
O2E Co1C 1_555 1_555
H4E C4C 1_555 1_555
Zn2C_2 N3D 1_555 1_555
O1C_2 Zn2C_2 1_555 1_555
C1C_2 O1C_2 1_555 1_555
C2C_2 C1C_2 1_555 1_555
O3C_2 Zn2C_2 1_555 1_555
H1C_2 C2C_2 1_555 1_555
H2C_2 C2C_2 1_555 1_555
H3C_2 C2C_2 1_555 1_555
Zn1C_2 N5E 1_555 1_555
Zn1C_3 N2E 1_555 1_555
Zn1C_4 N5D 1_555 1_555
Zn1C_5 N2D 1_555 1_555
Zn1C_6 N5C 1_555 1_555
Co1C_2 N6D 1_555 1_555
Co1C_3 N6C 1_555 1_555
Zn2C_3 N4C 1_555 1_555
Zn2D_2 N3E 1_555 1_555
Zn2D_3 N4D 1_555 1_555
Zn2E N3C 1_555 1_555
Zn2E_2 N4E 1_555 1_555
Zn2E_3 N1E 1_555 1_555
N1C_2 Zn2C_2 1_555 1_555
N2D_2 Zn1C 1_555 1_555
N2E_2 Zn1C 1_555 1_555
N3D_2 Zn2C 1_555 1_555
N3E_2 Zn2D 1_555 1_555
N4C_2 Zn2C 1_555 1_555
N4C_3 Zn2C_2 1_555 1_555
N4D_2 Zn2D 1_555 1_555
N5C_2 Zn1C 1_555 1_555
N5D_2 Zn1C 1_555 1_555
N5E_2 Zn1C 1_555 1_555
N6C_2 Co1C 1_555 1_555
N6D_2 Co1C 1_555 1_555
C1 O3 1_555 1_555
C3 O2A 1_555 1_555
C3 O2B 1_555 1_555
C5 C6 1_555 1_555
C8 C10 1_555 1_555
N4 N5 1_555 1_555
N5 N6 1_555 1_555
C11 C12 1_555 1_555
C15 C16 1_555 1_555
C7D C10D 1_555 1_555
C8D C10D 1_555 1_555
C13E C14E 1_555 1_555
C15E C16E 1_555 1_555
C1B O3B 1_555 1_555
C1D O3D 1_555 1_555
C1C O3C 1_555 1_555
C5C C6C 1_555 1_555
C8C C10C 1_555 1_555
N2A N3A 1_555 1_555
C5A C6A 1_555 1_555
C7A C10A 1_555 1_555
C8A C10A 1_555 1_555
C1A O3A 1_555 1_555
N4A N5A 1_555 1_555
N5A N6A 1_555 1_555
C11A C12A 1_555 1_555
C15A C16A 1_555 1_555
C13D C14D 1_555 1_555
C15D C16D 1_555 1_555
N4B N5B 1_555 1_555
N5B N6B 1_555 1_555
C11B C12B 1_555 1_555
C15B C16B 1_555 1_555
C13C C14C 1_555 1_555
C15C C16C 1_555 1_555
N1B N2B 1_555 1_555
N2B N3B 1_555 1_555
C5B C6B 1_555 1_555
C8B C10B 1_555 1_555
C7E C10E 1_555 1_555
C8E C10E 1_555 1_555
C3C O2D 1_555 1_555
C3C O2E 1_555 1_555
C1C_2 O3C_2 1_555 1_555
N2D_2 N3D_2 1_555 1_555
N4C_2 N5C_2 1_555 1_555

#END
