
#######################################################################
#
#                 Cambridge Crystallographic Data Centre
#                                CCDC 
#
#######################################################################
#
# If this CIF has been generated from an entry in the Cambridge 
# Structural Database, then it will include bibliographic, chemical, 
# crystal, experimental, refinement or atomic coordinate data resulting 
# from the CCDC's data processing and validation procedures.
#
#######################################################################

data_RIZXUT
_chemical_formula_moiety         'C9 H14 N3 O15 Zn2'
_symmetry_cell_setting           cubic
_symmetry_space_group_name_H-M   'P 21 3'
_symmetry_Int_Tables_number      198
_space_group_name_Hall           'P 2ac 2ab 3'
loop_
_symmetry_equiv_pos_site_id
_symmetry_equiv_pos_as_xyz
1 x,y,z
2 1/2-x,-y,1/2+z
3 1/2+x,1/2-y,-z
4 z,x,y
5 -x,1/2+y,1/2-z
6 1/2-z,-x,1/2+y
7 1/2+z,1/2-x,-y
8 -z,1/2+x,1/2-y
9 y,z,x
10 1/2+y,1/2-z,-x
11 -y,1/2+z,1/2-x
12 1/2-y,-z,1/2+x
_cell_length_a                   14.728(4)
_cell_length_b                   14.728(4)
_cell_length_c                   14.728(4)
_cell_angle_alpha                90
_cell_angle_beta                 90
_cell_angle_gamma                90
_cell_volume                     3194.71
loop_
_atom_site_label
_atom_site_type_symbol
_atom_site_fract_x
_atom_site_fract_y
_atom_site_fract_z
O2 O 0.429(10) 0.3365(97) 0.2721(99)
Zn1 Zn 0.1867(2) 0.1867(2) 0.1867(2)
Zn2 Zn 0.0468(2) 0.0468(2) 0.0468(2)
O3 O 0.2065(13) 0.1808(12) 0.0505(14)
O4 O 0.1587(12) 0.0572(13) -0.0248(11)
C3 C 0.2110(17) 0.1248(21) -0.0084(18)
C4 C 0.2898(17) 0.1312(18) -0.0781(17)
C5 C 0.3486(16) 0.2044(18) -0.0651(18)
O5 O 0.3302(15) 0.1763(18) 0.2052(16)
C6 C 0.3972(38) 0.0968(31) 0.2282(32)
C7 C 0.4261(5) 0.0296(49) 0.1406(53)
N1 N -0.0561 -0.0685 -0.0414
O6 O -0.0733(38) -0.0278(52) 0.0116(42)
O7 O -0.1047(26) -0.1047(26) -0.1047(26)
H1 H 0.3384 0.2494 -0.0191
H2 H 0.3729 0.0607 0.2768
H3 H 0.4525 0.1227 0.2511
H4 H 0.4678 -0.0131 0.1667
H5 H 0.3739 -0.0021 0.1179
H6 H 0.4553 0.0613 0.0916
O3C O 0.0505(14) 0.2065(13) 0.1808(12)
O3H O 0.1808(12) 0.0505(14) 0.2065(13)
O5C O 0.2052(16) 0.3302(15) 0.1763(18)
O5H O 0.1763(18) 0.2052(16) 0.3302(15)
O4C O -0.0248(11) 0.1587(12) 0.0572(13)
O4H O 0.0572(13) -0.0248(11) 0.1587(12)
O6C O 0.0116(42) -0.0733(38) -0.0278(52)
O6H O -0.0278(52) 0.0116(42) -0.0733(38)
C5K C 0.2956(18) 0.0651(18) -0.1514(16)
C4F C 0.4219(17) 0.2102(17) -0.1312(18)
N1C N -0.0414 -0.0561 -0.0685
N1H N -0.0685 -0.0414 -0.0561
O1 O 0.4538(42) 0.2934(33) 0.1570(34)
C1 C 0.5280(71) 0.3336(76) 0.1861(61)
C2 C 0.5550(78) 0.3117(75) 0.2752(90)
loop_
_geom_bond_atom_site_label_1
_geom_bond_atom_site_label_2
_geom_bond_site_symmetry_1
_geom_bond_site_symmetry_2
O1 C1 1_555 1_555
C1 C2 1_555 1_555
Zn1 O3 1_555 1_555
Zn2 O4 1_555 1_555
O3 C3 1_555 1_555
O4 C3 1_555 1_555
C3 C4 1_555 1_555
C4 C5 1_555 1_555
C5 H1 1_555 1_555
O5 Zn1 1_555 1_555
C6 O5 1_555 1_555
C7 C6 1_555 1_555
N1 O6 1_555 1_555
O6 Zn2 1_555 1_555
O7 N1 1_555 1_555
H2 C6 1_555 1_555
H3 C6 1_555 1_555
H4 C7 1_555 1_555
H5 C7 1_555 1_555
H6 C7 1_555 1_555
O3C Zn1 1_555 1_555
O3H Zn1 1_555 1_555
O5C Zn1 1_555 1_555
O5H Zn1 1_555 1_555
O4C Zn2 1_555 1_555
O4H Zn2 1_555 1_555
O6C Zn2 1_555 1_555
O6H Zn2 1_555 1_555
C5K C4 1_555 1_555
C4F C5 1_555 1_555
N1C N1 1_555 1_555
N1H N1 1_555 1_555
N1 O6C 1_555 1_555
N1 O6H 1_555 1_555
O6 O6C 1_555 1_555
O6 O6H 1_555 1_555
O6 N1C 1_555 1_555
O6 N1H 1_555 1_555
O7 N1C 1_555 1_555
O7 N1H 1_555 1_555
O6C O6H 1_555 1_555
O6C N1C 1_555 1_555
O6C N1H 1_555 1_555
O6H N1C 1_555 1_555
O6H N1H 1_555 1_555
N1C N1H 1_555 1_555

#END
