
#######################################################################
#
#                 Cambridge Crystallographic Data Centre
#                                CCDC 
#
#######################################################################
#
# If this CIF has been generated from an entry in the Cambridge 
# Structural Database, then it will include bibliographic, chemical, 
# crystal, experimental, refinement or atomic coordinate data resulting 
# from the CCDC's data processing and validation procedures.
#
#######################################################################

data_HIVRUB
_chemical_formula_moiety         'C88 H32 N50 O154 Zn16'
_symmetry_cell_setting           tetragonal
_symmetry_space_group_name_H-M   'P 4/m m m'
_symmetry_Int_Tables_number      123
_space_group_name_Hall           '-P 4 2'
loop_
_symmetry_equiv_pos_site_id
_symmetry_equiv_pos_as_xyz
1 x,y,z
2 -y,x,z
3 -x,-y,z
4 y,-x,z
5 x,-y,-z
6 -x,y,-z
7 y,x,-z
8 -y,-x,-z
9 -x,-y,-z
10 y,-x,-z
11 x,y,-z
12 -y,x,-z
13 -x,y,z
14 x,-y,z
15 -y,-x,z
16 y,x,z
_cell_length_a                   10.90313(18)
_cell_length_b                   10.90313(18)
_cell_length_c                   9.6490(3)
_cell_angle_alpha                90
_cell_angle_beta                 90
_cell_angle_gamma                90
_cell_volume                     1147.06
loop_
_atom_site_label
_atom_site_type_symbol
_atom_site_fract_x
_atom_site_fract_y
_atom_site_fract_z
Zn1 Zn 0.0000 0.0000 0.34632(7)
O1 O 0.0000 0.1821(3) 0.3850(3)
N1 N 0.0000 0.0000 0.1339(6)
C1 C 0.0000 0.2333(5) 0.5000
C2 C 0.0000 0.3717(5) 0.5000
C3 C 0.1250(9) 0.0337(10) 0.0784(9)
H1 H 0.1853 -0.0246 0.1119
H2 H 0.1478 0.1145 0.1119
C4 C -0.0373(8) 0.4367(6) 0.3848(5)
N2 N -0.109(3) 0.373(4) 0.277(3)
O2 O -0.210(3) 0.323(4) 0.277(3)
O3 O -0.058(3) 0.386(4) 0.165(4)
O1B O 0.0000 0.8179(3) 0.3850(3)
C1B C -0.0000 0.7667(5) 0.5000
C2B C 0.0000 0.6283(5) 0.5000
C4B C 0.0373(8) 0.5633(6) 0.3848(5)
N2B N 0.109(3) 0.627(4) 0.277(3)
O2B O 0.210(3) 0.677(4) 0.277(3)
O3B O 0.058(3) 0.614(4) 0.165(4)
O1D O 0.0000 0.8179(3) 0.6150(3)
C4D C -0.0373(8) 0.5633(6) 0.6152(5)
N2D N -0.109(3) 0.627(4) 0.723(3)
O2D O -0.210(3) 0.677(4) 0.723(3)
O3D O -0.058(3) 0.614(4) 0.835(4)
O1E O 0.0000 0.1821(3) 0.6150(3)
C4E C 0.0373(8) 0.4367(6) 0.6152(5)
N2E N 0.109(3) 0.373(4) 0.723(3)
O2E O 0.210(3) 0.323(4) 0.723(3)
O3E O 0.058(3) 0.386(4) 0.835(4)
C4H C 0.0373(8) 0.5633(6) 0.6152(5)
N2H N 0.109(3) 0.627(4) 0.723(3)
O2H O 0.210(3) 0.677(4) 0.723(3)
O3H O 0.058(3) 0.614(4) 0.835(4)
C4J C -0.0373(8) 0.4367(6) 0.6152(5)
N2J N -0.109(3) 0.373(4) 0.723(3)
O2J O -0.210(3) 0.323(4) 0.723(3)
O3J O -0.058(3) 0.386(4) 0.835(4)
C4L C 0.0373(8) 0.4367(6) 0.3848(5)
N2L N 0.109(3) 0.373(4) 0.277(3)
O2L O 0.210(3) 0.323(4) 0.277(3)
O3L O 0.058(3) 0.386(4) 0.165(4)
C4M C -0.0373(8) 0.5633(6) 0.3848(5)
N2M N -0.109(3) 0.627(4) 0.277(3)
O2M O -0.210(3) 0.677(4) 0.277(3)
O3M O -0.058(3) 0.614(4) 0.165(4)
C3A C -0.0337(10) 0.1250(9) 0.0784(9)
H1A H 0.0246 0.1853 0.1119
H2A H -0.1145 0.1478 0.1119
C3B C -0.1250(9) -0.0337(10) 0.0784(9)
H1B H -0.1853 0.0246 0.1119
H2B H -0.1478 -0.1145 0.1119
C3C C 0.0337(10) -0.1250(9) 0.0784(9)
H1C H -0.0246 -0.1853 0.1119
H2C H 0.1145 -0.1478 0.1119
N1D N -0.0000 0.0000 -0.1339(6)
C3D C 0.1250(9) -0.0337(10) -0.0784(9)
H1D H 0.1853 0.0246 -0.1119
H2D H 0.1478 -0.1145 -0.1119
C3E C -0.1250(9) 0.0337(10) -0.0784(9)
H1E H -0.1853 -0.0246 -0.1119
H2E H -0.1478 0.1145 -0.1119
C3F C 0.0337(10) 0.1250(9) -0.0784(9)
H1F H -0.0246 0.1853 -0.1119
H2F H 0.1145 0.1478 -0.1119
C3G C -0.0337(10) -0.1250(9) -0.0784(9)
H1G H 0.0246 -0.1853 -0.1119
H2G H -0.1145 -0.1478 -0.1119
C3H C -0.1250(9) -0.0337(10) -0.0784(9)
H1H H -0.1853 0.0246 -0.1119
H2H H -0.1478 -0.1145 -0.1119
C3I C 0.0337(10) -0.1250(9) -0.0784(9)
H1I H -0.0246 -0.1853 -0.1119
H2I H 0.1145 -0.1478 -0.1119
C3J C 0.1250(9) 0.0337(10) -0.0784(9)
H1J H 0.1853 -0.0246 -0.1119
H2J H 0.1478 0.1145 -0.1119
C3K C -0.0337(10) 0.1250(9) -0.0784(9)
H1K H 0.0246 0.1853 -0.1119
H2K H -0.1145 0.1478 -0.1119
C3L C -0.1250(9) 0.0337(10) 0.0784(9)
H1L H -0.1853 -0.0246 0.1119
H2L H -0.1478 0.1145 0.1119
C3M C 0.1250(9) -0.0337(10) 0.0784(9)
H1M H 0.1853 0.0246 0.1119
H2M H 0.1478 -0.1145 0.1119
C3N C -0.0337(10) -0.1250(9) 0.0784(9)
H1N H 0.0246 -0.1853 0.1119
H2N H -0.1145 -0.1478 0.1119
C3O C 0.0337(10) 0.1250(9) 0.0784(9)
H1O H -0.0246 0.1853 0.1119
H2O H 0.1145 0.1478 0.1119
O1A O -0.1821(3) 0.0000 0.3850(3)
C1A C -0.2333(5) 0.0000 0.5000
C2A C -0.3717(5) 0.0000 0.5000
C4A C -0.4367(6) -0.0373(8) 0.3848(5)
N2A N -0.373(4) -0.109(3) 0.277(3)
O2A O -0.323(4) -0.210(3) 0.277(3)
O3A O -0.386(4) -0.058(3) 0.165(4)
O1C O -0.8179(3) 0.0000 0.3850(3)
C1C C -0.7667(5) 0.0000 0.5000
C2C C -0.6283(5) 0.0000 0.5000
C4C C -0.5633(6) 0.0373(8) 0.3848(5)
N2C N -0.627(4) 0.109(3) 0.277(3)
O2C O -0.677(4) 0.210(3) 0.277(3)
O3C O -0.614(4) 0.058(3) 0.165(4)
O1F O -0.8179(3) 0.0000 0.6150(3)
C4F C -0.5633(6) -0.0373(8) 0.6152(5)
N2F N -0.627(4) -0.109(3) 0.723(3)
O2F O -0.677(4) -0.210(3) 0.723(3)
O3F O -0.614(4) -0.058(3) 0.835(4)
O1G O -0.1821(3) 0.0000 0.6150(3)
C4G C -0.4367(6) 0.0373(8) 0.6152(5)
N2G N -0.373(4) 0.109(3) 0.723(3)
O2G O -0.323(4) 0.210(3) 0.723(3)
O3G O -0.386(4) 0.058(3) 0.835(4)
C4I C -0.5633(6) 0.0373(8) 0.6152(5)
N2I N -0.627(4) 0.109(3) 0.723(3)
O2I O -0.677(4) 0.210(3) 0.723(3)
O3I O -0.614(4) 0.058(3) 0.835(4)
C4K C -0.4367(6) -0.0373(8) 0.6152(5)
N2K N -0.373(4) -0.109(3) 0.723(3)
O2K O -0.323(4) -0.210(3) 0.723(3)
O3K O -0.386(4) -0.058(3) 0.835(4)
C4N C -0.4367(6) 0.0373(8) 0.3848(5)
N2N N -0.373(4) 0.109(3) 0.277(3)
O2N O -0.323(4) 0.210(3) 0.277(3)
O3N O -0.386(4) 0.058(3) 0.165(4)
C4O C -0.5633(6) -0.0373(8) 0.3848(5)
N2O N -0.627(4) -0.109(3) 0.277(3)
O2O O -0.677(4) -0.210(3) 0.277(3)
O3O O -0.614(4) -0.058(3) 0.165(4)
O1B_2 O 0.0000 -0.1821(3) 0.3850(3)
C1B_2 C 0.0000 -0.2333(5) 0.5000
C2B_2 C 0.0000 -0.3717(5) 0.5000
C4B_2 C 0.0373(8) -0.4367(6) 0.3848(5)
N2B_2 N 0.109(3) -0.373(4) 0.277(3)
O2B_2 O 0.210(3) -0.323(4) 0.277(3)
O3B_2 O 0.058(3) -0.386(4) 0.165(4)
O1_2 O 0.0000 -0.8179(3) 0.3850(3)
C1_2 C 0.0000 -0.7667(5) 0.5000
C2_2 C 0.0000 -0.6283(5) 0.5000
C4_2 C -0.0373(8) -0.5633(6) 0.3848(5)
N2_2 N -0.109(3) -0.627(4) 0.277(3)
O2_2 O -0.210(3) -0.677(4) 0.277(3)
O3_2 O -0.058(3) -0.614(4) 0.165(4)
O1E_2 O 0.0000 -0.8179(3) 0.6150(3)
C4E_2 C 0.0373(8) -0.5633(6) 0.6152(5)
N2E_2 N 0.109(3) -0.627(4) 0.723(3)
O2E_2 O 0.210(3) -0.677(4) 0.723(3)
O3E_2 O 0.058(3) -0.614(4) 0.835(4)
O1D_2 O 0.0000 -0.1821(3) 0.6150(3)
C4D_2 C -0.0373(8) -0.4367(6) 0.6152(5)
N2D_2 N -0.109(3) -0.373(4) 0.723(3)
O2D_2 O -0.210(3) -0.323(4) 0.723(3)
O3D_2 O -0.058(3) -0.386(4) 0.835(4)
C4J_2 C -0.0373(8) -0.5633(6) 0.6152(5)
N2J_2 N -0.109(3) -0.627(4) 0.723(3)
O2J_2 O -0.210(3) -0.677(4) 0.723(3)
O3J_2 O -0.058(3) -0.614(4) 0.835(4)
C4H_2 C 0.0373(8) -0.4367(6) 0.6152(5)
N2H_2 N 0.109(3) -0.373(4) 0.723(3)
O2H_2 O 0.210(3) -0.323(4) 0.723(3)
O3H_2 O 0.058(3) -0.386(4) 0.835(4)
C4M_2 C -0.0373(8) -0.4367(6) 0.3848(5)
N2M_2 N -0.109(3) -0.373(4) 0.277(3)
O2M_2 O -0.210(3) -0.323(4) 0.277(3)
O3M_2 O -0.058(3) -0.386(4) 0.165(4)
C4L_2 C 0.0373(8) -0.5633(6) 0.3848(5)
N2L_2 N 0.109(3) -0.627(4) 0.277(3)
O2L_2 O 0.210(3) -0.677(4) 0.277(3)
O3L_2 O 0.058(3) -0.614(4) 0.165(4)
Zn1D Zn -0.0000 0.0000 -0.34632(7)
O1G_2 O -0.1821(3) -0.0000 -0.3850(3)
C1A_2 C -0.2333(5) -0.0000 -0.5000
C2A_2 C -0.3717(5) -0.0000 -0.5000
C4G_2 C -0.4367(6) 0.0373(8) -0.3848(5)
N2G_2 N -0.373(4) 0.109(3) -0.277(3)
O2G_2 O -0.323(4) 0.210(3) -0.277(3)
O3G_2 O -0.386(4) 0.058(3) -0.165(4)
O1F_2 O -0.8179(3) -0.0000 -0.3850(3)
C1C_2 C -0.7667(5) -0.0000 -0.5000
C2C_2 C -0.6283(5) -0.0000 -0.5000
C4F_2 C -0.5633(6) -0.0373(8) -0.3848(5)
N2F_2 N -0.627(4) -0.109(3) -0.277(3)
O2F_2 O -0.677(4) -0.210(3) -0.277(3)
O3F_2 O -0.614(4) -0.058(3) -0.165(4)
O1C_2 O -0.8179(3) 0.0000 -0.6150(3)
C4C_2 C -0.5633(6) 0.0373(8) -0.6152(5)
N2C_2 N -0.627(4) 0.109(3) -0.723(3)
O2C_2 O -0.677(4) 0.210(3) -0.723(3)
O3C_2 O -0.614(4) 0.058(3) -0.835(4)
O1A_2 O -0.1821(3) 0.0000 -0.6150(3)
C4A_2 C -0.4367(6) -0.0373(8) -0.6152(5)
N2A_2 N -0.373(4) -0.109(3) -0.723(3)
O2A_2 O -0.323(4) -0.210(3) -0.723(3)
O3A_2 O -0.386(4) -0.058(3) -0.835(4)
C4O_2 C -0.5633(6) -0.0373(8) -0.6152(5)
N2O_2 N -0.627(4) -0.109(3) -0.723(3)
O2O_2 O -0.677(4) -0.210(3) -0.723(3)
O3O_2 O -0.614(4) -0.058(3) -0.835(4)
C4N_2 C -0.4367(6) 0.0373(8) -0.6152(5)
N2N_2 N -0.373(4) 0.109(3) -0.723(3)
O2N_2 O -0.323(4) 0.210(3) -0.723(3)
O3N_2 O -0.386(4) 0.058(3) -0.835(4)
C4K_2 C -0.4367(6) -0.0373(8) -0.3848(5)
N2K_2 N -0.373(4) -0.109(3) -0.277(3)
O2K_2 O -0.323(4) -0.210(3) -0.277(3)
O3K_2 O -0.386(4) -0.058(3) -0.165(4)
C4I_2 C -0.5633(6) 0.0373(8) -0.3848(5)
N2I_2 N -0.627(4) 0.109(3) -0.277(3)
O2I_2 O -0.677(4) 0.210(3) -0.277(3)
O3I_2 O -0.614(4) 0.058(3) -0.165(4)
O1D_3 O -0.0000 -0.1821(3) -0.3850(3)
C1B_3 C 0.0000 -0.2333(5) -0.5000
C2B_3 C 0.0000 -0.3717(5) -0.5000
C4H_3 C 0.0373(8) -0.4367(6) -0.3848(5)
N2H_3 N 0.109(3) -0.373(4) -0.277(3)
O2H_3 O 0.210(3) -0.323(4) -0.277(3)
O3H_3 O 0.058(3) -0.386(4) -0.165(4)
O1E_3 O -0.0000 -0.8179(3) -0.3850(3)
C1_3 C 0.0000 -0.7667(5) -0.5000
C2_3 C -0.0000 -0.6283(5) -0.5000
C4J_3 C -0.0373(8) -0.5633(6) -0.3848(5)
N2J_3 N -0.109(3) -0.627(4) -0.277(3)
O2J_3 O -0.210(3) -0.677(4) -0.277(3)
O3J_3 O -0.058(3) -0.614(4) -0.165(4)
O1_3 O -0.0000 -0.8179(3) -0.6150(3)
C4L_3 C 0.0373(8) -0.5633(6) -0.6152(5)
N2L_3 N 0.109(3) -0.627(4) -0.723(3)
O2L_3 O 0.210(3) -0.677(4) -0.723(3)
O3L_3 O 0.058(3) -0.614(4) -0.835(4)
O1B_3 O -0.0000 -0.1821(3) -0.6150(3)
C4M_3 C -0.0373(8) -0.4367(6) -0.6152(5)
N2M_3 N -0.109(3) -0.373(4) -0.723(3)
O2M_3 O -0.210(3) -0.323(4) -0.723(3)
O3M_3 O -0.058(3) -0.386(4) -0.835(4)
C4_3 C -0.0373(8) -0.5633(6) -0.6152(5)
N2_3 N -0.109(3) -0.627(4) -0.723(3)
O2_3 O -0.210(3) -0.677(4) -0.723(3)
O3_3 O -0.058(3) -0.614(4) -0.835(4)
C4B_3 C 0.0373(8) -0.4367(6) -0.6152(5)
N2B_3 N 0.109(3) -0.373(4) -0.723(3)
O2B_3 O 0.210(3) -0.323(4) -0.723(3)
O3B_3 O 0.058(3) -0.386(4) -0.835(4)
C4D_3 C -0.0373(8) -0.4367(6) -0.3848(5)
N2D_3 N -0.109(3) -0.373(4) -0.277(3)
O2D_3 O -0.210(3) -0.323(4) -0.277(3)
O3D_3 O -0.058(3) -0.386(4) -0.165(4)
C4E_3 C 0.0373(8) -0.5633(6) -0.3848(5)
N2E_3 N 0.109(3) -0.627(4) -0.277(3)
O2E_3 O 0.210(3) -0.677(4) -0.277(3)
O3E_3 O 0.058(3) -0.614(4) -0.165(4)
O1E_4 O -0.0000 0.1821(3) -0.3850(3)
C1_4 C -0.0000 0.2333(5) -0.5000
C2_4 C -0.0000 0.3717(5) -0.5000
C4J_4 C -0.0373(8) 0.4367(6) -0.3848(5)
N2J_4 N -0.109(3) 0.373(4) -0.277(3)
O2J_4 O -0.210(3) 0.323(4) -0.277(3)
O3J_4 O -0.058(3) 0.386(4) -0.165(4)
O1D_4 O 0.0000 0.8179(3) -0.3850(3)
C1B_4 C -0.0000 0.7667(5) -0.5000
C2B_4 C -0.0000 0.6283(5) -0.5000
C4H_4 C 0.0373(8) 0.5633(6) -0.3848(5)
N2H_4 N 0.109(3) 0.627(4) -0.277(3)
O2H_4 O 0.210(3) 0.677(4) -0.277(3)
O3H_4 O 0.058(3) 0.614(4) -0.165(4)
O1B_4 O 0.0000 0.8179(3) -0.6150(3)
C4M_4 C -0.0373(8) 0.5633(6) -0.6152(5)
N2M_4 N -0.109(3) 0.627(4) -0.723(3)
O2M_4 O -0.210(3) 0.677(4) -0.723(3)
O3M_4 O -0.058(3) 0.614(4) -0.835(4)
O1_4 O 0.0000 0.1821(3) -0.6150(3)
C4L_4 C 0.0373(8) 0.4367(6) -0.6152(5)
N2L_4 N 0.109(3) 0.373(4) -0.723(3)
O2L_4 O 0.210(3) 0.323(4) -0.723(3)
O3L_4 O 0.058(3) 0.386(4) -0.835(4)
C4B_4 C 0.0373(8) 0.5633(6) -0.6152(5)
N2B_4 N 0.109(3) 0.627(4) -0.723(3)
O2B_4 O 0.210(3) 0.677(4) -0.723(3)
O3B_4 O 0.058(3) 0.614(4) -0.835(4)
C4_4 C -0.0373(8) 0.4367(6) -0.6152(5)
N2_4 N -0.109(3) 0.373(4) -0.723(3)
O2_4 O -0.210(3) 0.323(4) -0.723(3)
O3_4 O -0.058(3) 0.386(4) -0.835(4)
C4E_4 C 0.0373(8) 0.4367(6) -0.3848(5)
N2E_4 N 0.109(3) 0.373(4) -0.277(3)
O2E_4 O 0.210(3) 0.323(4) -0.277(3)
O3E_4 O 0.058(3) 0.386(4) -0.165(4)
C4D_4 C -0.0373(8) 0.5633(6) -0.3848(5)
N2D_4 N -0.109(3) 0.627(4) -0.277(3)
O2D_4 O -0.210(3) 0.677(4) -0.277(3)
O3D_4 O -0.058(3) 0.614(4) -0.165(4)
Zn1_2 Zn -1.0000 0.0000 -0.65368(7)
Zn1_3 Zn -1.0000 0.0000 0.34632(7)
Zn1_4 Zn 0.0000 -1.0000 -0.65368(7)
Zn1_5 Zn 0.0000 -1.0000 0.34632(7)
Zn1_6 Zn 0.0000 0.0000 -0.65368(7)
Zn1_7 Zn -0.0000 1.0000 -0.65368(7)
Zn1_8 Zn 0.0000 1.0000 0.34632(7)
Zn1D_2 Zn -1.0000 0.0000 -0.34632(7)
Zn1D_3 Zn -1.0000 -0.0000 0.65368(7)
Zn1D_4 Zn -0.0000 -1.0000 -0.34632(7)
Zn1D_5 Zn 0.0000 -1.0000 0.65368(7)
Zn1D_6 Zn 0.0000 -0.0000 0.65368(7)
Zn1D_7 Zn -0.0000 1.0000 -0.34632(7)
Zn1D_8 Zn -0.0000 1.0000 0.65368(7)
O1C_3 O 0.1821(3) 0.0000 0.3850(3)
O1F_3 O 0.1821(3) -0.0000 -0.3850(3)
O2A_3 O -0.323(4) 0.790(3) -0.723(3)
O2A_4 O -0.323(4) 0.790(3) 0.277(3)
O2B_5 O -0.790(3) -0.323(4) -0.723(3)
O2B_6 O -0.790(3) -0.323(4) 0.277(3)
O2C_3 O 0.323(4) -0.790(3) -0.723(3)
O2C_4 O 0.323(4) -0.790(3) 0.277(3)
O2C_5 O 0.323(4) 0.210(3) -0.723(3)
O2C_6 O 0.323(4) 0.210(3) 0.277(3)
O2E_5 O -0.790(3) 0.323(4) -0.277(3)
O2E_6 O -0.790(3) 0.323(4) 0.723(3)
O2F_3 O 0.323(4) -0.210(3) -0.277(3)
O2F_4 O 0.323(4) -0.210(3) 0.723(3)
O2F_5 O 0.323(4) 0.790(3) -0.277(3)
O2F_6 O 0.323(4) 0.790(3) 0.723(3)
O2G_3 O -0.323(4) -0.790(3) -0.277(3)
O2G_4 O -0.323(4) -0.790(3) 0.723(3)
O2H_5 O -0.790(3) -0.323(4) -0.277(3)
O2H_6 O -0.790(3) -0.323(4) 0.723(3)
O2I_3 O 0.323(4) -0.790(3) -0.277(3)
O2I_4 O 0.323(4) -0.790(3) 0.723(3)
O2I_5 O 0.323(4) 0.210(3) -0.277(3)
O2I_6 O 0.323(4) 0.210(3) 0.723(3)
O2K_3 O -0.323(4) 0.790(3) -0.277(3)
O2K_4 O -0.323(4) 0.790(3) 0.723(3)
O2L_5 O -0.790(3) 0.323(4) -0.723(3)
O2L_6 O -0.790(3) 0.323(4) 0.277(3)
O2N_3 O -0.323(4) -0.790(3) -0.723(3)
O2N_4 O -0.323(4) -0.790(3) 0.277(3)
O2O_3 O 0.323(4) -0.210(3) -0.723(3)
O2O_4 O 0.323(4) -0.210(3) 0.277(3)
O2O_5 O 0.323(4) 0.790(3) -0.723(3)
O2O_6 O 0.323(4) 0.790(3) 0.277(3)
loop_
_geom_bond_atom_site_label_1
_geom_bond_atom_site_label_2
_geom_bond_site_symmetry_1
_geom_bond_site_symmetry_2
Zn1 O1 1_555 1_555
O1 C1 1_555 1_555
N1 Zn1 1_555 1_555
C1 C2 1_555 1_555
C2 C4 1_555 1_555
C3 N1 1_555 1_555
H1 C3 1_555 1_555
H2 C3 1_555 1_555
C4 N2 1_555 1_555
N2 O2 1_555 1_555
O2 O2N 1_555 1_555
O3 N2 1_555 1_555
O1B C1B 1_555 1_555
C1B C2B 1_555 1_555
C2B C4B 1_555 1_555
C4B C4 1_555 1_555
N2B C4B 1_555 1_555
O2B N2B 1_555 1_555
O3B N2B 1_555 1_555
O1D C1B 1_555 1_555
C4D C2B 1_555 1_555
N2D C4D 1_555 1_555
O2D N2D 1_555 1_555
O3D N2D 1_555 1_555
O1E C1 1_555 1_555
C4E C2 1_555 1_555
N2E C4E 1_555 1_555
O2E N2E 1_555 1_555
O3E N2E 1_555 1_555
C4H C2B 1_555 1_555
N2H C4H 1_555 1_555
O2H N2H 1_555 1_555
O3H O3D 1_555 1_555
C4J C2 1_555 1_555
N2J C4J 1_555 1_555
O2J N2J 1_555 1_555
O3J O3E 1_555 1_555
C4L C2 1_555 1_555
N2L C4L 1_555 1_555
O2L N2L 1_555 1_555
O3L O3 1_555 1_555
C4M C4 1_555 1_555
N2M C4M 1_555 1_555
O2M N2M 1_555 1_555
O3M O3B 1_555 1_555
C3A N1 1_555 1_555
H1A C3A 1_555 1_555
H2A C3A 1_555 1_555
C3B N1 1_555 1_555
H1B C3B 1_555 1_555
H2B C3B 1_555 1_555
C3C N1 1_555 1_555
H1C C3C 1_555 1_555
H2C C3C 1_555 1_555
N1D C3D 1_555 1_555
C3D C3 1_555 1_555
H1D C3D 1_555 1_555
H2D C3D 1_555 1_555
C3E C3B 1_555 1_555
H1E C3E 1_555 1_555
H2E C3E 1_555 1_555
C3F C3A 1_555 1_555
H1F C3F 1_555 1_555
H2F C3F 1_555 1_555
C3G C3C 1_555 1_555
H1G C3G 1_555 1_555
H2G C3G 1_555 1_555
C3H C3B 1_555 1_555
H1H C3E 1_555 1_555
H2H C3G 1_555 1_555
C3I C3C 1_555 1_555
H1I C3G 1_555 1_555
H2I C3D 1_555 1_555
C3J C3 1_555 1_555
H1J C3D 1_555 1_555
H2J C3F 1_555 1_555
C3K C3A 1_555 1_555
H1K C3F 1_555 1_555
H2K C3E 1_555 1_555
C3L N1 1_555 1_555
H1L C3B 1_555 1_555
H2L C3A 1_555 1_555
C3M N1 1_555 1_555
H1M C3 1_555 1_555
H2M C3C 1_555 1_555
C3N N1 1_555 1_555
H1N C3C 1_555 1_555
H2N C3B 1_555 1_555
C3O N1 1_555 1_555
H1O C3A 1_555 1_555
H2O C3 1_555 1_555
O1A Zn1 1_555 1_555
C1A O1A 1_555 1_555
C2A C1A 1_555 1_555
C4A C2A 1_555 1_555
N2A C4A 1_555 1_555
O2A N2A 1_555 1_555
O3A N2A 1_555 1_555
O1C C1C 1_555 1_555
C1C C2C 1_555 1_555
C2C C4C 1_555 1_555
C4C C4A 1_555 1_555
N2C C4C 1_555 1_555
O2C N2C 1_555 1_555
O3C N2C 1_555 1_555
O1F C1C 1_555 1_555
C4F C2C 1_555 1_555
N2F C4F 1_555 1_555
O2F N2F 1_555 1_555
O3F N2F 1_555 1_555
O1G C1A 1_555 1_555
C4G C2A 1_555 1_555
N2G C4G 1_555 1_555
O2G O2J 1_555 1_555
O3G N2G 1_555 1_555
C4I C2C 1_555 1_555
N2I C4I 1_555 1_555
O2I N2I 1_555 1_555
O3I O3F 1_555 1_555
C4K C2A 1_555 1_555
N2K C4K 1_555 1_555
O2K N2K 1_555 1_555
O3K O3G 1_555 1_555
C4N C2A 1_555 1_555
N2N C4N 1_555 1_555
O2N N2N 1_555 1_555
O3N O3A 1_555 1_555
C4O C4A 1_555 1_555
N2O C4O 1_555 1_555
O2O N2O 1_555 1_555
O3O O3C 1_555 1_555
O1B_2 Zn1 1_555 1_555
C1B_2 O1B_2 1_555 1_555
C2B_2 C1B_2 1_555 1_555
C4B_2 C2B_2 1_555 1_555
N2B_2 C4B_2 1_555 1_555
O2B_2 N2B_2 1_555 1_555
O3B_2 N2B_2 1_555 1_555
O1_2 C1_2 1_555 1_555
C1_2 C2_2 1_555 1_555
C2_2 C4_2 1_555 1_555
C4_2 C4B_2 1_555 1_555
N2_2 C4_2 1_555 1_555
O2_2 N2_2 1_555 1_555
O3_2 N2_2 1_555 1_555
O1E_2 C1_2 1_555 1_555
C4E_2 C2_2 1_555 1_555
N2E_2 C4E_2 1_555 1_555
O2E_2 N2E_2 1_555 1_555
O3E_2 N2E_2 1_555 1_555
O1D_2 C1B_2 1_555 1_555
C4D_2 C2B_2 1_555 1_555
N2D_2 C4D_2 1_555 1_555
O2D_2 O2K 1_555 1_555
O3D_2 N2D_2 1_555 1_555
C4J_2 C2_2 1_555 1_555
N2J_2 C4J_2 1_555 1_555
O2J_2 N2J_2 1_555 1_555
O3J_2 O3E_2 1_555 1_555
C4H_2 C2B_2 1_555 1_555
N2H_2 C4H_2 1_555 1_555
O2H_2 N2H_2 1_555 1_555
O3H_2 O3D_2 1_555 1_555
C4M_2 C2B_2 1_555 1_555
N2M_2 C4M_2 1_555 1_555
O2M_2 O2A 1_555 1_555
O3M_2 O3B_2 1_555 1_555
C4L_2 C4B_2 1_555 1_555
N2L_2 C4L_2 1_555 1_555
O2L_2 N2L_2 1_555 1_555
O3L_2 O3_2 1_555 1_555
Zn1D N1D 1_555 1_555
O1G_2 Zn1D 1_555 1_555
C1A_2 O1G_2 1_555 1_555
C2A_2 C1A_2 1_555 1_555
C4G_2 C2A_2 1_555 1_555
N2G_2 C4G_2 1_555 1_555
O2G_2 N2G_2 1_555 1_555
O3G_2 N2G_2 1_555 1_555
O1F_2 C1C_2 1_555 1_555
C1C_2 C2C_2 1_555 1_555
C2C_2 C4F_2 1_555 1_555
C4F_2 C4G_2 1_555 1_555
N2F_2 C4F_2 1_555 1_555
O2F_2 N2F_2 1_555 1_555
O3F_2 N2F_2 1_555 1_555
O1C_2 C1C_2 1_555 1_555
C4C_2 C2C_2 1_555 1_555
N2C_2 C4C_2 1_555 1_555
O2C_2 N2C_2 1_555 1_555
O3C_2 N2C_2 1_555 1_555
O1A_2 C1A_2 1_555 1_555
C4A_2 C2A_2 1_555 1_555
N2A_2 C4A_2 1_555 1_555
O2A_2 N2A_2 1_555 1_555
O3A_2 N2A_2 1_555 1_555
C4O_2 C2C_2 1_555 1_555
N2O_2 C4O_2 1_555 1_555
O2O_2 N2O_2 1_555 1_555
O3O_2 O3C_2 1_555 1_555
C4N_2 C2A_2 1_555 1_555
N2N_2 C4N_2 1_555 1_555
O2N_2 N2N_2 1_555 1_555
O3N_2 O3A_2 1_555 1_555
C4K_2 C2A_2 1_555 1_555
N2K_2 C4K_2 1_555 1_555
O2K_2 N2K_2 1_555 1_555
O3K_2 O3G_2 1_555 1_555
C4I_2 C4G_2 1_555 1_555
N2I_2 C4I_2 1_555 1_555
O2I_2 N2I_2 1_555 1_555
O3I_2 O3F_2 1_555 1_555
O1D_3 Zn1D 1_555 1_555
C1B_3 O1D_3 1_555 1_555
C2B_3 C1B_3 1_555 1_555
C4H_3 C2B_3 1_555 1_555
N2H_3 C4H_3 1_555 1_555
O2H_3 N2H_3 1_555 1_555
O3H_3 N2H_3 1_555 1_555
O1E_3 C1_3 1_555 1_555
C1_3 C2_3 1_555 1_555
C2_3 C4J_3 1_555 1_555
C4J_3 C4H_3 1_555 1_555
N2J_3 C4J_3 1_555 1_555
O2J_3 N2J_3 1_555 1_555
O3J_3 N2J_3 1_555 1_555
O1_3 C1_3 1_555 1_555
C4L_3 C2_3 1_555 1_555
N2L_3 C4L_3 1_555 1_555
O2L_3 N2L_3 1_555 1_555
O3L_3 N2L_3 1_555 1_555
O1B_3 C1B_3 1_555 1_555
C4M_3 C2B_3 1_555 1_555
N2M_3 C4M_3 1_555 1_555
O2M_3 O2A_2 1_555 1_555
O3M_3 N2M_3 1_555 1_555
C4_3 C2_3 1_555 1_555
N2_3 C4_3 1_555 1_555
O2_3 N2_3 1_555 1_555
O3_3 O3L_3 1_555 1_555
C4B_3 C2B_3 1_555 1_555
N2B_3 C4B_3 1_555 1_555
O2B_3 N2B_3 1_555 1_555
O3B_3 O3M_3 1_555 1_555
C4D_3 C2B_3 1_555 1_555
N2D_3 C4D_3 1_555 1_555
O2D_3 O2K_2 1_555 1_555
O3D_3 O3H_3 1_555 1_555
C4E_3 C4H_3 1_555 1_555
N2E_3 C4E_3 1_555 1_555
O2E_3 N2E_3 1_555 1_555
O3E_3 O3J_3 1_555 1_555
O1E_4 Zn1D 1_555 1_555
C1_4 O1E_4 1_555 1_555
C2_4 C1_4 1_555 1_555
C4J_4 C2_4 1_555 1_555
N2J_4 C4J_4 1_555 1_555
O2J_4 O2G_2 1_555 1_555
O3J_4 N2J_4 1_555 1_555
O1D_4 C1B_4 1_555 1_555
C1B_4 C2B_4 1_555 1_555
C2B_4 C4H_4 1_555 1_555
C4H_4 C4J_4 1_555 1_555
N2H_4 C4H_4 1_555 1_555
O2H_4 N2H_4 1_555 1_555
O3H_4 N2H_4 1_555 1_555
O1B_4 C1B_4 1_555 1_555
C4M_4 C2B_4 1_555 1_555
N2M_4 C4M_4 1_555 1_555
O2M_4 N2M_4 1_555 1_555
O3M_4 N2M_4 1_555 1_555
O1_4 C1_4 1_555 1_555
C4L_4 C2_4 1_555 1_555
N2L_4 C4L_4 1_555 1_555
O2L_4 N2L_4 1_555 1_555
O3L_4 N2L_4 1_555 1_555
C4B_4 C2B_4 1_555 1_555
N2B_4 C4B_4 1_555 1_555
O2B_4 N2B_4 1_555 1_555
O3B_4 O3M_4 1_555 1_555
C4_4 C2_4 1_555 1_555
N2_4 C4_4 1_555 1_555
O2_4 O2N_2 1_555 1_555
O3_4 O3L_4 1_555 1_555
C4E_4 C2_4 1_555 1_555
N2E_4 C4E_4 1_555 1_555
O2E_4 N2E_4 1_555 1_555
O3E_4 O3J_4 1_555 1_555
C4D_4 C4J_4 1_555 1_555
N2D_4 C4D_4 1_555 1_555
O2D_4 N2D_4 1_555 1_555
O3D_4 O3H_4 1_555 1_555
Zn1_2 O1C_2 1_555 1_555
Zn1_3 O1C 1_555 1_555
Zn1_4 O1_3 1_555 1_555
Zn1_5 O1_2 1_555 1_555
Zn1_6 O1A_2 1_555 1_555
Zn1_7 O1B_4 1_555 1_555
Zn1_8 O1B 1_555 1_555
Zn1D_2 O1F_2 1_555 1_555
Zn1D_3 O1F 1_555 1_555
Zn1D_4 O1E_3 1_555 1_555
Zn1D_5 O1E_2 1_555 1_555
Zn1D_6 O1E 1_555 1_555
Zn1D_7 O1D_4 1_555 1_555
Zn1D_8 O1D 1_555 1_555
O1C_3 Zn1 1_555 1_555
O1F_3 Zn1D 1_555 1_555
O2A_3 O2M_4 1_555 1_555
O2A_4 O2M 1_555 1_555
O2B_5 O2O_2 1_555 1_555
O2B_6 O2O 1_555 1_555
O2C_3 O2L_3 1_555 1_555
O2C_4 O2L_2 1_555 1_555
O2C_5 O2L_4 1_555 1_555
O2C_6 O2L 1_555 1_555
O2E_5 O2I_2 1_555 1_555
O2E_6 O2I 1_555 1_555
O2F_3 O2H_3 1_555 1_555
O2F_4 O2H_2 1_555 1_555
O2F_5 O2H_4 1_555 1_555
O2F_6 O2H 1_555 1_555
O2G_3 O2J_3 1_555 1_555
O2G_4 O2J_2 1_555 1_555
O2H_5 O2F_2 1_555 1_555
O2H_6 O2F 1_555 1_555
O2I_3 O2E_3 1_555 1_555
O2I_4 O2E_2 1_555 1_555
O2I_5 O2E_4 1_555 1_555
O2I_6 O2E 1_555 1_555
O2K_3 O2D_4 1_555 1_555
O2K_4 O2D 1_555 1_555
O2L_5 O2C_2 1_555 1_555
O2L_6 O2C 1_555 1_555
O2N_3 O2_3 1_555 1_555
O2N_4 O2_2 1_555 1_555
O2O_3 O2B_3 1_555 1_555
O2O_4 O2B_2 1_555 1_555
O2O_5 O2B_4 1_555 1_555
O2O_6 O2B 1_555 1_555
C3 C3M 1_555 1_555
C3 C3O 1_555 1_555
H1 C3M 1_555 1_555
H2 C3O 1_555 1_555
C4 C4L 1_555 1_555
C2B C4M 1_555 1_555
C4B C4L 1_555 1_555
C4B C4M 1_555 1_555
C4D C4E 1_555 1_555
C4D C4H 1_555 1_555
C4D C4J 1_555 1_555
C4E C4H 1_555 1_555
C4E C4J 1_555 1_555
C4H C4J 1_555 1_555
N2H O3H 1_555 1_555
N2J O3J 1_555 1_555
C4L C4M 1_555 1_555
N2L O3L 1_555 1_555
N2M O3M 1_555 1_555
C3A C3L 1_555 1_555
C3A C3O 1_555 1_555
H1A C3O 1_555 1_555
H2A C3L 1_555 1_555
C3B C3L 1_555 1_555
C3B C3N 1_555 1_555
H1B C3L 1_555 1_555
H2B C3N 1_555 1_555
C3C C3M 1_555 1_555
C3C C3N 1_555 1_555
H1C C3N 1_555 1_555
H2C C3M 1_555 1_555
N1D C3E 1_555 1_555
N1D C3F 1_555 1_555
N1D C3G 1_555 1_555
N1D C3H 1_555 1_555
N1D C3I 1_555 1_555
N1D C3J 1_555 1_555
N1D C3K 1_555 1_555
C3D C3I 1_555 1_555
C3D C3J 1_555 1_555
C3D C3M 1_555 1_555
H1D C3J 1_555 1_555
H2D C3I 1_555 1_555
C3E C3H 1_555 1_555
C3E C3K 1_555 1_555
C3E C3L 1_555 1_555
H1E C3H 1_555 1_555
H2E C3K 1_555 1_555
C3F C3J 1_555 1_555
C3F C3K 1_555 1_555
C3F C3O 1_555 1_555
H1F C3K 1_555 1_555
H2F C3J 1_555 1_555
C3G C3H 1_555 1_555
C3G C3I 1_555 1_555
C3G C3N 1_555 1_555
H1G C3I 1_555 1_555
H2G C3H 1_555 1_555
C3H H1H 1_555 1_555
C3H H2H 1_555 1_555
C3H C3L 1_555 1_555
C3I H1I 1_555 1_555
C3I H2I 1_555 1_555
C3I C3N 1_555 1_555
C3J H1J 1_555 1_555
C3J H2J 1_555 1_555
C3J C3M 1_555 1_555
C3K H1K 1_555 1_555
C3K H2K 1_555 1_555
C3K C3O 1_555 1_555
C3L H1L 1_555 1_555
C3L H2L 1_555 1_555
C3M H1M 1_555 1_555
C3M H2M 1_555 1_555
C3N H1N 1_555 1_555
C3N H2N 1_555 1_555
C3O H1O 1_555 1_555
C3O H2O 1_555 1_555
C4A C4N 1_555 1_555
C2C C4O 1_555 1_555
C4C C4N 1_555 1_555
C4C C4O 1_555 1_555
C4F C4G 1_555 1_555
C4F C4I 1_555 1_555
C4F C4K 1_555 1_555
O1G Zn1D_6 1_555 1_555
C4G C4I 1_555 1_555
C4G C4K 1_555 1_555
N2G O2G 1_555 1_555
C4I C4K 1_555 1_555
N2I O3I 1_555 1_555
N2K O3K 1_555 1_555
C4N C4O 1_555 1_555
N2N O3N 1_555 1_555
N2O O3O 1_555 1_555
C4B_2 C4M_2 1_555 1_555
C2_2 C4L_2 1_555 1_555
C4_2 C4M_2 1_555 1_555
C4_2 C4L_2 1_555 1_555
C4E_2 C4D_2 1_555 1_555
C4E_2 C4J_2 1_555 1_555
C4E_2 C4H_2 1_555 1_555
O1D_2 Zn1D_6 1_555 1_555
C4D_2 C4J_2 1_555 1_555
C4D_2 C4H_2 1_555 1_555
N2D_2 O2D_2 1_555 1_555
C4J_2 C4H_2 1_555 1_555
N2J_2 O3J_2 1_555 1_555
N2H_2 O3H_2 1_555 1_555
C4M_2 C4L_2 1_555 1_555
N2M_2 O2M_2 1_555 1_555
N2M_2 O3M_2 1_555 1_555
N2L_2 O3L_2 1_555 1_555
C4G_2 C4K_2 1_555 1_555
C2C_2 C4I_2 1_555 1_555
C4F_2 C4K_2 1_555 1_555
C4F_2 C4I_2 1_555 1_555
C4C_2 C4A_2 1_555 1_555
C4C_2 C4O_2 1_555 1_555
C4C_2 C4N_2 1_555 1_555
C4A_2 C4O_2 1_555 1_555
C4A_2 C4N_2 1_555 1_555
C4O_2 C4N_2 1_555 1_555
N2O_2 O3O_2 1_555 1_555
N2N_2 O3N_2 1_555 1_555
C4K_2 C4I_2 1_555 1_555
N2K_2 O3K_2 1_555 1_555
N2I_2 O3I_2 1_555 1_555
C4H_3 C4D_3 1_555 1_555
C2_3 C4E_3 1_555 1_555
C4J_3 C4D_3 1_555 1_555
C4J_3 C4E_3 1_555 1_555
C4L_3 C4M_3 1_555 1_555
C4L_3 C4_3 1_555 1_555
C4L_3 C4B_3 1_555 1_555
O1B_3 Zn1_6 1_555 1_555
C4M_3 C4_3 1_555 1_555
C4M_3 C4B_3 1_555 1_555
N2M_3 O2M_3 1_555 1_555
C4_3 C4B_3 1_555 1_555
N2_3 O3_3 1_555 1_555
N2B_3 O3B_3 1_555 1_555
C4D_3 C4E_3 1_555 1_555
N2D_3 O2D_3 1_555 1_555
N2D_3 O3D_3 1_555 1_555
N2E_3 O3E_3 1_555 1_555
C4J_4 C4E_4 1_555 1_555
N2J_4 O2J_4 1_555 1_555
C2B_4 C4D_4 1_555 1_555
C4H_4 C4E_4 1_555 1_555
C4H_4 C4D_4 1_555 1_555
C4M_4 C4L_4 1_555 1_555
C4M_4 C4B_4 1_555 1_555
C4M_4 C4_4 1_555 1_555
O1_4 Zn1_6 1_555 1_555
C4L_4 C4B_4 1_555 1_555
C4L_4 C4_4 1_555 1_555
C4B_4 C4_4 1_555 1_555
N2B_4 O3B_4 1_555 1_555
N2_4 O2_4 1_555 1_555
N2_4 O3_4 1_555 1_555
C4E_4 C4D_4 1_555 1_555
N2E_4 O3E_4 1_555 1_555
N2D_4 O3D_4 1_555 1_555

#END
