
#######################################################################
#
#                 Cambridge Crystallographic Data Centre
#                                CCDC 
#
#######################################################################
#
# If this CIF has been generated from an entry in the Cambridge 
# Structural Database, then it will include bibliographic, chemical, 
# crystal, experimental, refinement or atomic coordinate data resulting 
# from the CCDC's data processing and validation procedures.
#
#######################################################################

data_HIVSAI
_chemical_formula_moiety         'C35 H47 N3 O16 Zn7'
_symmetry_cell_setting           tetragonal
_symmetry_space_group_name_H-M   'I 4/m c m'
_symmetry_Int_Tables_number      140
_space_group_name_Hall           '-I 4 2c'
loop_
_symmetry_equiv_pos_site_id
_symmetry_equiv_pos_as_xyz
1 x,y,z
2 -y,x,z
3 -x,-y,z
4 y,-x,z
5 x,-y,1/2-z
6 -x,y,1/2-z
7 y,x,1/2-z
8 -y,-x,1/2-z
9 1/2+x,1/2+y,1/2+z
10 1/2-y,1/2+x,1/2+z
11 1/2-x,1/2-y,1/2+z
12 1/2+y,1/2-x,1/2+z
13 1/2+x,1/2-y,-z
14 1/2-x,1/2+y,-z
15 1/2+y,1/2+x,-z
16 1/2-y,1/2-x,-z
17 -x,-y,-z
18 y,-x,-z
19 x,y,-z
20 -y,x,-z
21 -x,y,1/2+z
22 x,-y,1/2+z
23 -y,-x,1/2+z
24 y,x,1/2+z
25 1/2-x,1/2-y,1/2-z
26 1/2+y,1/2-x,1/2-z
27 1/2+x,1/2+y,1/2-z
28 1/2-y,1/2+x,1/2-z
29 1/2-x,1/2+y,z
30 1/2+x,1/2-y,z
31 1/2-y,1/2-x,z
32 1/2+y,1/2+x,z
_cell_length_a                   15.0609(8)
_cell_length_b                   15.0609(8)
_cell_length_c                   19.2433(13)
_cell_angle_alpha                90
_cell_angle_beta                 90
_cell_angle_gamma                90
_cell_volume                     4364.97
loop_
_atom_site_label
_atom_site_type_symbol
_atom_site_fract_x
_atom_site_fract_y
_atom_site_fract_z
N2 N 0.3669(6) -0.1331(6) 0.1558(7)
C6 C 0.3192(10) -0.0685(9) 0.1155(8)
H6 H 0.3594 -0.0392 0.0844
H7 H 0.2928 -0.0256 0.1461
H8 H 0.2735 -0.0976 0.0893
C7 C 0.3328(16) -0.1672(16) 0.225(2)
O2 O 0.2678(14) -0.1227(18) 0.2442(9)
C6EA C 0.4315(9) -0.1808(10) 0.1155(8)
H6EA H 0.4608 -0.1406 0.0844
H7EA H 0.4744 -0.2072 0.1461
H8EA H 0.4024 -0.2265 0.0893
O2EA O 0.3773(18) -0.2322(14) 0.2442(9)
Zn1 Zn -0.0000 -0.0000 0.07668(4)
N1 N 0.0000 0.0000 0.1835(3)
O1 O 0.0551(2) -0.1217(2) 0.05751(16)
C1 C 0.1403(4) -0.2293(3) 0.0000
C2 C 0.1708(3) -0.2639(3) 0.0613(2)
H1 H 0.1478 -0.2436 0.1032
C3 C 0.0783(4) -0.1520(4) 0.0000
C4 C 0.0744(10) -0.0513(13) 0.2099(6)
H2 H 0.1289 -0.0171 0.2071
H3 H 0.0818 -0.1054 0.1832
C5 C 0.0889(8) 0.0174(14) 0.2113(7)
H4 H 0.1018 0.0805 0.2100
H5 H 0.1334 -0.0136 0.1841
C4A C 0.0513(13) 0.0744(10) 0.2099(6)
H2A H 0.0171 0.1289 0.2071
H3A H 0.1054 0.0818 0.1832
C5A C -0.0174(14) 0.0889(8) 0.2113(7)
H4A H -0.0805 0.1018 0.2100
H5A H 0.0136 0.1334 0.1841
C4B C -0.0744(10) 0.0513(13) 0.2099(6)
H2B H -0.1289 0.0171 0.2071
H3B H -0.0818 0.1054 0.1832
C5B C -0.0889(8) -0.0174(14) 0.2113(7)
H4B H -0.1018 -0.0805 0.2100
H5B H -0.1334 0.0136 0.1841
C4C C -0.0513(13) -0.0744(10) 0.2099(6)
H2C H -0.0171 -0.1289 0.2071
H3C H -0.1054 -0.0818 0.1832
C5C C 0.0174(14) -0.0889(8) 0.2113(7)
H4C H 0.0805 -0.1018 0.2100
H5C H -0.0136 -0.1334 0.1841
N1D N 0.0000 0.0000 0.3165(3)
C4D C 0.0744(10) 0.0513(13) 0.2901(6)
H2D H 0.1289 0.0171 0.2929
H3D H 0.0818 0.1054 0.3168
C5D C 0.0889(8) -0.0174(14) 0.2887(7)
H4D H 0.1018 -0.0805 0.2900
H5D H 0.1334 0.0136 0.3159
C4E C -0.0744(10) -0.0513(13) 0.2901(6)
H2E H -0.1289 -0.0171 0.2929
H3E H -0.0818 -0.1054 0.3168
C5E C -0.0889(8) 0.0174(14) 0.2887(7)
H4E H -0.1018 0.0805 0.2900
H5E H -0.1334 -0.0136 0.3159
C4F C -0.0513(13) 0.0744(10) 0.2901(6)
H2F H -0.0171 0.1289 0.2929
H3F H -0.1054 0.0818 0.3168
C5F C 0.0174(14) 0.0889(8) 0.2887(7)
H4F H 0.0805 0.1018 0.2900
H5F H -0.0136 0.1334 0.3159
C4G C 0.0513(13) -0.0744(10) 0.2901(6)
H2G H 0.0171 -0.1289 0.2929
H3G H 0.1054 -0.0818 0.3168
C5G C -0.0174(14) -0.0889(8) 0.2887(7)
H4G H -0.0805 -0.1018 0.2900
H5G H 0.0136 -0.1334 0.3159
O1R O 0.0551(2) -0.1217(2) -0.05751(16)
C2R C 0.1708(3) -0.2639(3) -0.0613(2)
H1R H 0.1478 -0.2436 -0.1032
O1EA O 0.3783(2) -0.4449(2) 0.05751(16)
C1N C 0.2707(3) -0.3597(4) 0.0000
C2EA C 0.2361(3) -0.3292(3) 0.0613(2)
H1EA H 0.2564 -0.3522 0.1032
C3N C 0.3480(4) -0.4217(4) 0.0000
O1N O 0.3783(2) -0.4449(2) -0.05751(16)
C2N C 0.2361(3) -0.3292(3) -0.0613(2)
H1N H 0.2564 -0.3522 -0.1032
O1A O 0.1217(2) 0.0551(2) 0.05751(16)
C1A C 0.2293(3) 0.1403(4) 0.0000
C2A C 0.2639(3) 0.1708(3) 0.0613(2)
H1A H 0.2436 0.1478 0.1032
C3A C 0.1520(4) 0.0783(4) 0.0000
O1S O 0.1217(2) 0.0551(2) -0.05751(16)
C2S C 0.2639(3) 0.1708(3) -0.0613(2)
H1S H 0.2436 0.1478 -0.1032
O1BA O 0.4449(2) 0.3783(2) 0.05751(16)
C1M C 0.3597(4) 0.2707(3) 0.0000
C2BA C 0.3292(3) 0.2361(3) 0.0613(2)
H1BA H 0.3522 0.2564 0.1032
C3M C 0.4217(4) 0.3480(4) 0.0000
O1M O 0.4449(2) 0.3783(2) -0.05751(16)
C2M C 0.3292(3) 0.2361(3) -0.0613(2)
H1M H 0.3522 0.2564 -0.1032
Zn1D Zn 0.0000 0.0000 0.42332(4)
Zn1L Zn 0.5000 -0.5000 -0.07668(4)
Zn1L_2 Zn 0.5000 0.5000 -0.07668(4)
Zn1P Zn 0.0000 0.0000 -0.07668(4)
Zn1BA Zn 0.5000 -0.5000 0.07668(4)
Zn1BA_2 Zn 0.5000 0.5000 0.07668(4)
O1B O -0.0551(2) 0.1217(2) 0.05751(16)
O1C O -0.1217(2) -0.0551(2) 0.05751(16)
O1D O 0.0551(2) 0.1217(2) 0.44249(16)
O1E O -0.0551(2) -0.1217(2) 0.44249(16)
O1F O -0.1217(2) 0.0551(2) 0.44249(16)
O1G O 0.1217(2) -0.0551(2) 0.44249(16)
loop_
_geom_bond_atom_site_label_1
_geom_bond_atom_site_label_2
_geom_bond_site_symmetry_1
_geom_bond_site_symmetry_2
Zn1 N1 1_555 1_555
N1 C4 1_555 1_555
O1 Zn1 1_555 1_555
C1 C2 1_555 1_555
C2 H1 1_555 1_555
C3 O1 1_555 1_555
C4 H2 1_555 1_555
H2 C5 1_555 1_555
H3 C4 1_555 1_555
C5 N1 1_555 1_555
H4 C5 1_555 1_555
H5 C4 1_555 1_555
N2 C6 1_555 1_555
C6 H6 1_555 1_555
H7 C6 1_555 1_555
H8 C6 1_555 1_555
C7 N2 1_555 1_555
O2 C7 1_555 1_555
C4A N1 1_555 1_555
H2A C4A 1_555 1_555
H3A C5 1_555 1_555
C5A N1 1_555 1_555
H4A C5A 1_555 1_555
H5A C4A 1_555 1_555
C4B N1 1_555 1_555
H2B C4B 1_555 1_555
H3B C5A 1_555 1_555
C5B N1 1_555 1_555
H4B C5B 1_555 1_555
H5B C4B 1_555 1_555
C4C N1 1_555 1_555
H2C C4C 1_555 1_555
H3C C5B 1_555 1_555
C5C N1 1_555 1_555
H4C C4 1_555 1_555
H5C C4C 1_555 1_555
N1D C4D 1_555 1_555
C4D C5 1_555 1_555
H2D C4D 1_555 1_555
H3D C4D 1_555 1_555
C5D C4 1_555 1_555
H4D C5D 1_555 1_555
H5D C4D 1_555 1_555
C4E C5B 1_555 1_555
H2E C4E 1_555 1_555
H3E C4E 1_555 1_555
C5E C4B 1_555 1_555
H4E C5E 1_555 1_555
H5E C4E 1_555 1_555
C4F C5A 1_555 1_555
H2F C4F 1_555 1_555
H3F C5E 1_555 1_555
C5F C4A 1_555 1_555
H4F C4D 1_555 1_555
H5F C4F 1_555 1_555
C4G C4 1_555 1_555
H2G C4G 1_555 1_555
H3G C5D 1_555 1_555
C5G C4C 1_555 1_555
H4G C4E 1_555 1_555
H5G C4G 1_555 1_555
O1R C3 1_555 1_555
C2R C1 1_555 1_555
H1R C2R 1_555 1_555
O1EA C3N 1_555 1_555
C1N C2EA 1_555 1_555
C2EA C2 1_555 1_555
H1EA C2EA 1_555 1_555
C3N C1N 1_555 1_555
O1N C3N 1_555 1_555
C2N C2R 1_555 1_555
H1N C2N 1_555 1_555
O1A Zn1 1_555 1_555
C1A C2A 1_555 1_555
C2A H1A 1_555 1_555
C3A O1A 1_555 1_555
O1S C3A 1_555 1_555
C2S C1A 1_555 1_555
H1S C2S 1_555 1_555
O1BA C3M 1_555 1_555
C1M C2BA 1_555 1_555
C2BA C2A 1_555 1_555
H1BA C2BA 1_555 1_555
C3M C1M 1_555 1_555
O1M C3M 1_555 1_555
C2M C2S 1_555 1_555
H1M C2M 1_555 1_555
Zn1D N1D 1_555 1_555
Zn1L O1N 1_555 1_555
Zn1L_2 O1M 1_555 1_555
Zn1P O1R 1_555 1_555
Zn1BA O1EA 1_555 1_555
Zn1BA_2 O1BA 1_555 1_555
O1B Zn1 1_555 1_555
O1C Zn1 1_555 1_555
O1D Zn1D 1_555 1_555
O1E Zn1D 1_555 1_555
O1F Zn1D 1_555 1_555
O1G Zn1D 1_555 1_555
C6EA N2 1_555 1_555
H6EA C6EA 1_555 1_555
H7EA C6EA 1_555 1_555
H8EA C6EA 1_555 1_555
O2EA C7 1_555 1_555
C1 C3 1_555 1_555
C4 C5 1_555 1_555
C4 C5C 1_555 1_555
H3 C5C 1_555 1_555
C5 H5 1_555 1_555
C5 C4A 1_555 1_555
C5 C5D 1_555 1_555
H4 C4A 1_555 1_555
C4A H3A 1_555 1_555
C4A C5A 1_555 1_555
C4A C4D 1_555 1_555
H2A C5A 1_555 1_555
C5A H5A 1_555 1_555
C5A C4B 1_555 1_555
C5A C5F 1_555 1_555
H4A C4B 1_555 1_555
C4B H3B 1_555 1_555
C4B C5B 1_555 1_555
C4B C4F 1_555 1_555
H2B C5B 1_555 1_555
C5B H5B 1_555 1_555
C5B C4C 1_555 1_555
C5B C5E 1_555 1_555
H4B C4C 1_555 1_555
C4C H3C 1_555 1_555
C4C C5C 1_555 1_555
C4C C4E 1_555 1_555
H2C C5C 1_555 1_555
C5C H4C 1_555 1_555
C5C H5C 1_555 1_555
C5C C4G 1_555 1_555
C5C C5G 1_555 1_555
N1D C5D 1_555 1_555
N1D C4E 1_555 1_555
N1D C5E 1_555 1_555
N1D C4F 1_555 1_555
N1D C5F 1_555 1_555
N1D C4G 1_555 1_555
N1D C5G 1_555 1_555
C4D C5D 1_555 1_555
C4D C5F 1_555 1_555
H2D C5D 1_555 1_555
H3D C5F 1_555 1_555
C5D H5D 1_555 1_555
C5D C4G 1_555 1_555
H4D C4G 1_555 1_555
C4E C5E 1_555 1_555
C4E C5G 1_555 1_555
H2E C5E 1_555 1_555
H3E C5G 1_555 1_555
C5E H5E 1_555 1_555
C5E C4F 1_555 1_555
H4E C4F 1_555 1_555
C4F H3F 1_555 1_555
C4F C5F 1_555 1_555
H2F C5F 1_555 1_555
C5F H4F 1_555 1_555
C5F H5F 1_555 1_555
C4G H3G 1_555 1_555
C4G C5G 1_555 1_555
H2G C5G 1_555 1_555
C5G H4G 1_555 1_555
C5G H5G 1_555 1_555
C1N C2N 1_555 1_555
C1A C3A 1_555 1_555
O1S Zn1P 1_555 1_555
C1M C2M 1_555 1_555

#END
