
#######################################################################
#
#                 Cambridge Crystallographic Data Centre
#                                CCDC 
#
#######################################################################
#
# If this CIF has been generated from an entry in the Cambridge 
# Structural Database, then it will include bibliographic, chemical, 
# crystal, experimental, refinement or atomic coordinate data resulting 
# from the CCDC's data processing and validation procedures.
#
#######################################################################

data_INIXOT
_chemical_formula_moiety         '(H9 B1 Mg1 O12 P2)n'
_symmetry_cell_setting           hexagonal
_symmetry_space_group_name_H-M   'P 61 2 2'
_symmetry_Int_Tables_number      178
_space_group_name_Hall           'P 61 2 (0 0 5)'
loop_
_symmetry_equiv_pos_site_id
_symmetry_equiv_pos_as_xyz
1 x,y,z
2 -y,x-y,1/3+z
3 -x+y,-x,2/3+z
4 -x,-y,1/2+z
5 y,-x+y,5/6+z
6 x-y,x,1/6+z
7 y,x,1/3-z
8 x-y,-y,-z
9 -x,-x+y,2/3-z
10 -y,-x,5/6-z
11 -x+y,y,1/2-z
12 x,x-y,1/6-z
_cell_length_a                   9.4462(7)
_cell_length_b                   9.4462(7)
_cell_length_c                   15.759(2)
_cell_angle_alpha                90
_cell_angle_beta                 90
_cell_angle_gamma                120
_cell_volume                     1217.79
loop_
_atom_site_label
_atom_site_type_symbol
_atom_site_fract_x
_atom_site_fract_y
_atom_site_fract_z
P1 P -0.83004(10) -0.61296(9) -0.08085(5)
Mg1 Mg -0.44835(21) -0.55164(19) -0.0834
O1 O -0.9781(3) -0.7881(4) -0.06553(15)
O2 O -0.8198(4) -0.5845(3) -0.17913(15)
B1 B -0.8490(3) -0.6980(6) -0.2500
O3 O -0.8601(4) -0.4855(3) -0.04156(16)
O4 O -0.1976(4) -0.4908(4) -0.11424(19)
H1 H -0.1728 -0.4490 -0.1636
O5 O -0.6817(3) -0.6161(5) -0.04846(16)
H2 H -0.1168 -0.4464 -0.0799
P1H P -1.16996(10) -0.78292(13) -0.25248(5)
Mg1E Mg -0.89671(28) -0.44835(21) 0.0833
Mg1D Mg -1.55164(19) -1.10329(28) -0.2501
Mg1B Mg -1.10329(28) -0.55165(21) -0.4167
O1D O -0.7881(4) -0.8100(5) -0.23220(15)
O1H O -1.0219(3) -0.8100(5) -0.26780(15)
O2H O -1.1802(4) -0.7647(5) -0.15420(15)
O2J O -0.7647(5) -0.5845(3) -0.32087(15)
B1E B -1.1510(7) -0.8490(3) -0.0833
O3D O -0.4855(3) -0.6254(5) -0.20823(16)
O3G O -0.3746(5) -0.5145(3) 0.04156(16)
O3H O -1.1399(4) -0.6254(5) -0.29177(16)
O4I O -0.5092(4) -0.8024(4) -0.05243(19)
H1I H -0.5510 -0.8272 -0.0031
O5I O -0.3839(5) -0.3183(3) -0.11821(16)
O5H O -1.3183(3) -0.9344(6) -0.28487(16)
H2I H -0.5536 -0.8832 -0.0868
O6 O -0.1356(8) -0.0000 -0.5000
H3 H -0.0388 0.0804 -0.5040
H3G H -0.1192 -0.0804 -0.4960
O7 O -0.3868(8) -0.1934(4) -0.4167
H4 H -0.3534 -0.0934 -0.4113
H4K H -0.3534 -0.2600 -0.4220
loop_
_geom_bond_atom_site_label_1
_geom_bond_atom_site_label_2
_geom_bond_site_symmetry_1
_geom_bond_site_symmetry_2
P1 O1 1_555 1_555
Mg1 O4 1_555 1_555
O1 B1E 1_555 1_555
O2 P1 1_555 1_555
B1 O2 1_555 1_555
O3 P1 1_555 1_555
O4 H1 1_555 1_555
O5 P1 1_555 1_555
H2 O4 1_555 1_555
O6 H3 1_555 1_555
O7 H4 1_555 1_555
P1H O1H 1_555 1_555
Mg1E O3 1_555 1_555
Mg1D O5H 1_555 1_555
Mg1B O3H 1_555 1_555
O1D B1 1_555 1_555
O1H B1 1_555 1_555
O2H P1H 1_555 1_555
O2J B1 1_555 1_555
B1E O2H 1_555 1_555
O3D Mg1 1_555 1_555
O3G Mg1 1_555 1_555
O3H P1H 1_555 1_555
O4I Mg1 1_555 1_555
H1I O4I 1_555 1_555
O5I Mg1 1_555 1_555
O5H P1H 1_555 1_555
H2I O4I 1_555 1_555
H3G O6 1_555 1_555
H4K O7 1_555 1_555
Mg1 O5 1_555 1_555

#END
