
#######################################################################
#
#                 Cambridge Crystallographic Data Centre
#                                CCDC 
#
#######################################################################
#
# If this CIF has been generated from an entry in the Cambridge 
# Structural Database, then it will include bibliographic, chemical, 
# crystal, experimental, refinement or atomic coordinate data resulting 
# from the CCDC's data processing and validation procedures.
#
#######################################################################

data_FUVDEH01
_chemical_formula_moiety         '(C18 H14 N2 O4 Zn1)n'
_symmetry_cell_setting           tetragonal
_symmetry_space_group_name_H-M   'I -4'
_symmetry_Int_Tables_number      82
_space_group_name_Hall           'I -4'
loop_
_symmetry_equiv_pos_site_id
_symmetry_equiv_pos_as_xyz
1 x,y,z
2 -x,-y,z
3 y,-x,-z
4 -y,x,-z
5 1/2+x,1/2+y,1/2+z
6 1/2-x,1/2-y,1/2+z
7 1/2+y,1/2-x,1/2-z
8 1/2-y,1/2+x,1/2-z
_cell_length_a                   26.5086(6)
_cell_length_b                   26.5086(6)
_cell_length_c                   5.1903(3)
_cell_angle_alpha                90
_cell_angle_beta                 90
_cell_angle_gamma                90
_cell_volume                     3647.25
loop_
_atom_site_label
_atom_site_type_symbol
_atom_site_fract_x
_atom_site_fract_y
_atom_site_fract_z
_atom_site_U_iso_or_equiv
_atom_site_thermal_displace_type
Zn1 Zn 0.272601(17) 0.214254(17) 0.92088(10) 0.0348 Uani
O1 O 0.22163(10) 0.25317(11) 1.0952(7) 0.0471 Uani
H1 H 0.2009 0.2641 0.9834 0.0710 Uiso
N1 N 0.25079(14) 0.14162(12) 0.9040(9) 0.0440 Uani
C1 C 0.26753(17) 0.10427(16) 1.0400(11) 0.0487 Uani
H2 H 0.2935 0.1076 1.1593 0.0590 Uiso
N2 N 0.24392(14) 0.06010(13) 0.9931(7) 0.0445 Uani
C2 C 0.21236(17) 0.12213(15) 0.7505(10) 0.0397 Uani
O2 O 0.27774(13) -0.16658(11) 1.3684(7) 0.0541 Uani
C3 C 0.18351(16) 0.14400(15) 0.5659(11) 0.0430 Uani
H3 H 0.1875 0.1780 0.5265 0.0510 Uiso
O3 O 0.3200(6) -0.1286(3) 1.669(3) 0.1163 Uani
C4 C 0.14797(16) 0.11521(15) 0.4365(11) 0.0420 Uani
C5 C 0.11790(19) 0.13597(19) 0.2352(10) 0.0520 Uani
H4 H 0.1216 0.1698 0.1908 0.0620 Uiso
C6 C 0.08352(19) 0.1066(2) 0.1060(13) 0.0627 Uani
H5 H 0.0646 0.1202 -0.0281 0.0750 Uiso
C7 C 0.0771(2) 0.0565(2) 0.1764(12) 0.0687 Uani
H6 H 0.0528 0.0373 0.0923 0.0820 Uiso
C8 C 0.10508(19) 0.03502(19) 0.3639(11) 0.0567 Uani
H7 H 0.0997 0.0013 0.4058 0.0680 Uiso
C9 C 0.14240(16) 0.06266(16) 0.4980(8) 0.0397 Uani
C10 C 0.17215(17) 0.04042(16) 0.6842(9) 0.0427 Uani
H8 H 0.1683 0.0065 0.7254 0.0510 Uiso
C11 C 0.20763(16) 0.06968(15) 0.8075(9) 0.0380 Uani
C12 C 0.25733(17) 0.01244(16) 1.1028(12) 0.0433 Uani
C13 C 0.2845(2) -0.07888(17) 1.3173(11) 0.0530 Uani
C14 C 0.3056(4) 0.0048(4) 1.171(3) 0.0800 Uani
H9 H 0.3285 0.0313 1.1579 0.0960 Uiso
C15 C 0.3217(4) -0.0410(4) 1.257(3) 0.0670 Uani
H10 H 0.3560 -0.0476 1.2775 0.0810 Uiso
C16 C 0.2374(4) -0.0698(3) 1.250(2) 0.0403 Uani
H11 H 0.2135 -0.0954 1.2642 0.0480 Uiso
C17 C 0.2228(3) -0.0227(3) 1.1594(18) 0.0397 Uani
H12 H 0.1887 -0.0155 1.1378 0.0470 Uiso
C18 C 0.2984(2) -0.1288(2) 1.4403(15) 0.0720 Uani
Zn1E Zn 0.227399(17) 0.285746(17) 1.42088(10) 0.0348 Uani
Zn1G Zn 0.285746(17) -0.227399(17) 1.57912(10) 0.0348 Uani
O1E O 0.27837(10) 0.24683(11) 0.5952(7) 0.0471 Uani
O2F O 0.33342(11) 0.22226(13) 1.1316(7) 0.0541 Uani
O5 O 0.3520(4) 0.0993(4) 1.541(2) 0.2480 Uiso
H17 H 0.3434 0.1123 1.6842 0.2980 Uiso
H18 H 0.3705 0.1196 1.4565 0.2980 Uiso
loop_
_atom_site_aniso_label
_atom_site_aniso_U_11
_atom_site_aniso_U_22
_atom_site_aniso_U_33
_atom_site_aniso_U_23
_atom_site_aniso_U_13
_atom_site_aniso_U_12
Zn1 0.0321(3) 0.0267(3) 0.0456(3) -0.0024(3) -0.0071(2) -0.0032(2)
O1 0.0433(17) 0.0528(19) 0.0451(16) -0.0062(17) -0.0066(18) 0.0132(14)
N1 0.048(2) 0.0259(18) 0.058(2) 0.011(2) -0.019(2) -0.0060(16)
C1 0.049(3) 0.028(2) 0.069(4) 0.002(2) -0.026(3) -0.0098(19)
N2 0.048(2) 0.0236(18) 0.062(3) 0.0061(17) -0.0173(19) -0.0025(16)
C2 0.037(2) 0.024(2) 0.058(3) -0.003(2) -0.010(2) -0.0007(18)
O2 0.064(2) 0.0323(17) 0.066(2) 0.0102(17) -0.0186(19) -0.0059(15)
C3 0.041(2) 0.026(2) 0.062(3) 0.005(2) -0.001(3) 0.0006(17)
O3 0.192(13) 0.049(3) 0.108(9) 0.018(6) -0.106(9) -0.008(6)
C4 0.036(2) 0.037(2) 0.053(3) 0.003(3) -0.006(2) 0.0040(18)
C5 0.051(3) 0.046(3) 0.059(3) 0.003(3) -0.009(3) 0.012(2)
C6 0.054(3) 0.059(3) 0.075(4) -0.010(3) -0.030(3) 0.016(3)
C7 0.058(3) 0.062(4) 0.086(4) -0.021(3) -0.031(3) -0.001(3)
C8 0.048(3) 0.042(3) 0.080(4) -0.016(3) -0.020(3) -0.002(2)
C9 0.037(2) 0.030(2) 0.052(3) -0.0008(19) -0.006(2) -0.0008(18)
C10 0.045(3) 0.025(2) 0.058(3) -0.002(2) -0.009(2) -0.0046(19)
C11 0.036(2) 0.024(2) 0.054(3) -0.001(2) -0.007(2) 0.0002(18)
C12 0.045(3) 0.025(2) 0.060(3) -0.001(2) -0.015(3) 0.0024(18)
C13 0.057(3) 0.028(2) 0.074(4) 0.007(2) -0.020(3) 0.001(2)
C14 0.056(7) 0.030(5) 0.154(16) 0.024(7) -0.036(9) -0.016(5)
C15 0.042(6) 0.035(6) 0.124(12) 0.019(6) -0.035(7) -0.002(5)
C16 0.034(5) 0.030(5) 0.057(7) 0.003(5) -0.006(5) -0.003(4)
C17 0.031(5) 0.035(5) 0.053(6) 0.017(4) -0.009(4) 0.000(4)
C18 0.078(4) 0.043(3) 0.095(5) 0.003(4) -0.051(4) 0.006(3)
Zn1E 0.0321 0.0267 0.0456 0.0024 0.0071 -0.0032
Zn1G 0.0267 0.0321 0.0456 0.0071 -0.0024 0.0032
O1E 0.0433 0.0528 0.0451 0.0062 0.0066 0.0132
O2F 0.0323 0.064 0.066 -0.0186 -0.0102 0.0059
loop_
_geom_bond_atom_site_label_1
_geom_bond_atom_site_label_2
_geom_bond_site_symmetry_1
_geom_bond_site_symmetry_2
Zn1 O1 1_555 1_555
O1 H1 1_555 1_555
N1 Zn1 1_555 1_555
C1 N1 1_555 1_555
H2 C1 1_555 1_555
N2 C1 1_555 1_555
C2 N1 1_555 1_555
O2 C18 1_555 1_555
C3 C2 1_555 1_555
H3 C3 1_555 1_555
O3 C18 1_555 1_555
C4 C3 1_555 1_555
C5 C4 1_555 1_555
H4 C5 1_555 1_555
C6 C5 1_555 1_555
H5 C6 1_555 1_555
C7 C6 1_555 1_555
H6 C7 1_555 1_555
C8 C7 1_555 1_555
H7 C8 1_555 1_555
C9 C4 1_555 1_555
C10 C9 1_555 1_555
H8 C10 1_555 1_555
C11 N2 1_555 1_555
C12 N2 1_555 1_555
C13 C15 1_555 1_555
C14 C12 1_555 1_555
H9 C14 1_555 1_555
C15 C14 1_555 1_555
H10 C15 1_555 1_555
C16 C13 1_555 1_555
H11 C16 1_555 1_555
C17 C12 1_555 1_555
H12 C17 1_555 1_555
C18 C13 1_555 1_555
O5 H17 1_555 1_555
H18 O5 1_555 1_555
Zn1E O1 1_555 1_555
Zn1G O2 1_555 1_555
O1E Zn1 1_555 1_555
O2F Zn1 1_555 1_555
C2 C11 1_555 1_555
C8 C9 1_555 1_555
C10 C11 1_555 1_555
C16 C17 1_555 1_555

#END
