
#######################################################################
#
#                 Cambridge Crystallographic Data Centre
#                                CCDC 
#
#######################################################################
#
# If this CIF has been generated from an entry in the Cambridge 
# Structural Database, then it will include bibliographic, chemical, 
# crystal, experimental, refinement or atomic coordinate data resulting 
# from the CCDC's data processing and validation procedures.
#
#######################################################################

data_FUVDEH03
_chemical_formula_moiety         '(C18 H14 N2 O4 Zn1)n'
_symmetry_cell_setting           tetragonal
_symmetry_space_group_name_H-M   'I -4'
_symmetry_Int_Tables_number      82
_space_group_name_Hall           'I -4'
loop_
_symmetry_equiv_pos_site_id
_symmetry_equiv_pos_as_xyz
1 x,y,z
2 -x,-y,z
3 y,-x,-z
4 -y,x,-z
5 1/2+x,1/2+y,1/2+z
6 1/2-x,1/2-y,1/2+z
7 1/2+y,1/2-x,1/2-z
8 1/2-y,1/2+x,1/2-z
_cell_length_a                   26.522(3)
_cell_length_b                   26.522(3)
_cell_length_c                   4.9344(15)
_cell_angle_alpha                90
_cell_angle_beta                 90
_cell_angle_gamma                90
_cell_volume                     3470.94
loop_
_atom_site_label
_atom_site_type_symbol
_atom_site_fract_x
_atom_site_fract_y
_atom_site_fract_z
_atom_site_U_iso_or_equiv
_atom_site_thermal_displace_type
Zn1 Zn 0.27369(12) 0.21377(12) 0.8956(8) 0.0857 Uani
O1 O 0.2182(7) 0.2502(6) 1.060(3) 0.0863 Uani
H1 H 0.1971 0.2614 0.9455 0.1300 Uiso
N1 N 0.2521(6) 0.1440(6) 0.880(3) 0.0900 Uani
C1 C 0.2679(7) 0.1066(6) 1.030(4) 0.1007 Uani
H2 H 0.2940 0.1098 1.1541 0.1200 Uiso
N2 N 0.2429(6) 0.0626(7) 0.987(3) 0.0890 Uani
C2 C 0.2130(5) 0.1225(6) 0.729(2) 0.0823 Uani
O2 O 0.2743(6) -0.1636(6) 1.399(4) 0.1013 Uani
C3 C 0.1823(6) 0.1446(5) 0.536(3) 0.0837 Uani
H3 H 0.1862 0.1784 0.4908 0.1000 Uiso
O3 O 0.3114(13) -0.1369(11) 1.708(5) 0.1083 Uani
C4 C 0.1459(4) 0.1155(6) 0.410(2) 0.0683 Uani
C5 C 0.1153(6) 0.1376(6) 0.217(3) 0.0923 Uani
H4 H 0.1200 0.1715 0.1767 0.1110 Uiso
C6 C 0.0779(5) 0.1113(7) 0.082(3) 0.0920 Uani
H5 H 0.0577 0.1270 -0.0467 0.1100 Uiso
C7 C 0.0717(5) 0.0609(7) 0.146(3) 0.0870 Uani
H6 H 0.0471 0.0419 0.0585 0.1040 Uiso
C8 C 0.1022(6) 0.0388(6) 0.339(3) 0.0760 Uani
H7 H 0.0974 0.0050 0.3804 0.0910 Uiso
C9 C 0.1396(4) 0.0651(6) 0.474(2) 0.0723 Uani
C10 C 0.1701(6) 0.0427(6) 0.667(3) 0.0697 Uani
H8 H 0.1663 0.0088 0.7113 0.0840 Uiso
C11 C 0.2065(5) 0.0720(6) 0.791(2) 0.0940 Uani
C12 C 0.2571(6) 0.0141(6) 1.102(4) 0.0897 Uani
C13 C 0.2849(9) -0.0742(5) 1.334(4) 0.0897 Uani
C14 C 0.2799(9) 0.0139(5) 1.354(4) 0.0897 Uani
H9 H 0.2857 0.0443 1.4425 0.1080 Uiso
C15 C 0.2943(9) -0.0305(7) 1.475(3) 0.0897 Uani
H10 H 0.3098 -0.0310 1.6444 0.1080 Uiso
C16 C 0.2625(11) -0.0760(6) 1.084(4) 0.0897 Uani
H11 H 0.2569 -0.1065 0.9958 0.1080 Uiso
C17 C 0.2486(9) -0.0308(8) 0.971(3) 0.0897 Uani
H12 H 0.2332 -0.0305 0.8014 0.1080 Uiso
C18 C 0.2918(9) -0.1245(8) 1.474(5) 0.1123 Uani
Zn1E Zn 0.22631(12) 0.28623(12) 1.3956(8) 0.0857 Uani
Zn1G Zn 0.28623(12) -0.22631(12) 1.6044(8) 0.0857 Uani
O1E O 0.2818(7) 0.2498(6) 0.560(3) 0.0863 Uani
O2F O 0.3364(6) 0.2257(6) 1.101(4) 0.1013 Uani
O4 O 0.335(5) 0.116(7) 1.50(3) 0.7200 Uiso
H13 H 0.3299 0.1297 1.6519 0.8590 Uiso
H14 H 0.3557 0.1336 1.4134 0.8590 Uiso
loop_
_atom_site_aniso_label
_atom_site_aniso_U_11
_atom_site_aniso_U_22
_atom_site_aniso_U_33
_atom_site_aniso_U_23
_atom_site_aniso_U_13
_atom_site_aniso_U_12
Zn1 0.053(2) 0.0480(16) 0.156(3) -0.008(2) -0.010(2) -0.006(4)
O1 0.071(9) 0.063(8) 0.125(11) 0.015(10) 0.036(9) -0.026(12)
N1 0.097(19) 0.062(6) 0.111(14) -0.011(9) -0.017(12) -0.030(11)
C1 0.063(15) 0.049(8) 0.19(2) -0.012(12) -0.041(13) -0.003(14)
N2 0.107(16) 0.057(6) 0.103(13) -0.005(7) -0.032(11) -0.023(10)
C2 0.085(19) 0.056(10) 0.106(16) 0.006(12) -0.010(11) -0.028(15)
O2 0.089(12) 0.056(7) 0.159(12) 0.038(11) -0.023(13) 0.022(15)
C3 0.104(16) 0.037(9) 0.110(15) 0.004(10) -0.013(11) -0.029(13)
O3 0.109(14) 0.078(13) 0.138(13) 0.027(10) 0.005(12) -0.002(13)
C4 0.059(10) 0.055(8) 0.091(10) 0.017(9) 0.010(8) -0.022(11)
C5 0.131(18) 0.054(11) 0.092(13) -0.006(10) -0.018(11) 0.011(14)
C6 0.077(15) 0.081(12) 0.118(15) 0.013(14) -0.009(11) 0.006(18)
C7 0.090(16) 0.070(11) 0.101(14) 0.002(12) -0.015(11) 0.007(17)
C8 0.091(17) 0.059(11) 0.078(15) -0.010(11) -0.023(11) -0.016(16)
C9 0.056(13) 0.030(8) 0.131(16) -0.004(9) -0.015(10) -0.010(13)
C10 0.058(13) 0.036(9) 0.115(18) -0.018(10) -0.019(10) 0.006(13)
C11 0.081(16) 0.074(11) 0.127(17) 0.028(13) -0.028(11) -0.044(14)
C12 0.101(8) 0.059(4) 0.109(7) -0.001(5) -0.005(7) -0.006(8)
C13 0.101(8) 0.059(4) 0.109(7) -0.001(5) -0.005(7) -0.006(8)
C14 0.101(8) 0.059(4) 0.109(7) -0.001(5) -0.005(7) -0.006(8)
C15 0.101(8) 0.059(4) 0.109(7) -0.001(5) -0.005(7) -0.006(8)
C16 0.101(8) 0.059(4) 0.109(7) -0.001(5) -0.005(7) -0.006(8)
C17 0.101(8) 0.059(4) 0.109(7) -0.001(5) -0.005(7) -0.006(8)
C18 0.120(13) 0.074(7) 0.143(14) 0.020(9) -0.015(13) -0.001(11)
Zn1E 0.053 0.048 0.156 0.008 0.01 -0.006
Zn1G 0.048 0.053 0.156 0.01 -0.008 0.006
O1E 0.071 0.063 0.125 -0.015 -0.036 -0.026
O2F 0.056 0.089 0.159 -0.023 -0.038 -0.022
loop_
_geom_bond_atom_site_label_1
_geom_bond_atom_site_label_2
_geom_bond_site_symmetry_1
_geom_bond_site_symmetry_2
Zn1 O1 1_555 1_555
O1 H1 1_555 1_555
N1 Zn1 1_555 1_555
C1 N1 1_555 1_555
H2 C1 1_555 1_555
N2 C1 1_555 1_555
C2 N1 1_555 1_555
O2 C18 1_555 1_555
C3 C2 1_555 1_555
H3 C3 1_555 1_555
O3 C18 1_555 1_555
C4 C3 1_555 1_555
C5 C4 1_555 1_555
H4 C5 1_555 1_555
C6 C5 1_555 1_555
H5 C6 1_555 1_555
C7 C6 1_555 1_555
H6 C7 1_555 1_555
C8 C7 1_555 1_555
H7 C8 1_555 1_555
C9 C4 1_555 1_555
C10 C9 1_555 1_555
H8 C10 1_555 1_555
C11 N2 1_555 1_555
C12 N2 1_555 1_555
C13 C15 1_555 1_555
C14 C12 1_555 1_555
H9 C14 1_555 1_555
C15 C14 1_555 1_555
H10 C15 1_555 1_555
C16 C13 1_555 1_555
H11 C16 1_555 1_555
C17 C12 1_555 1_555
H12 C17 1_555 1_555
C18 C13 1_555 1_555
O4 H13 1_555 1_555
H14 O4 1_555 1_555
Zn1E O1 1_555 1_555
Zn1G O2 1_555 1_555
O1E Zn1 1_555 1_555
O2F Zn1 1_555 1_555
C2 C11 1_555 1_555
C8 C9 1_555 1_555
C10 C11 1_555 1_555
C16 C17 1_555 1_555

#END
