
#######################################################################
#
#                 Cambridge Crystallographic Data Centre
#                                CCDC 
#
#######################################################################
#
# If this CIF has been generated from an entry in the Cambridge 
# Structural Database, then it will include bibliographic, chemical, 
# crystal, experimental, refinement or atomic coordinate data resulting 
# from the CCDC's data processing and validation procedures.
#
#######################################################################

data_FUVDEH05
_chemical_formula_moiety         '(C18 H14 N2 O4 Zn1)n'
_symmetry_cell_setting           tetragonal
_symmetry_space_group_name_H-M   'I -4'
_symmetry_Int_Tables_number      82
_space_group_name_Hall           'I -4'
loop_
_symmetry_equiv_pos_site_id
_symmetry_equiv_pos_as_xyz
1 x,y,z
2 -x,-y,z
3 y,-x,-z
4 -y,x,-z
5 1/2+x,1/2+y,1/2+z
6 1/2-x,1/2-y,1/2+z
7 1/2+y,1/2-x,1/2-z
8 1/2-y,1/2+x,1/2-z
_cell_length_a                   27.253(3)
_cell_length_b                   27.253(3)
_cell_length_c                   4.1475(13)
_cell_angle_alpha                90
_cell_angle_beta                 90
_cell_angle_gamma                90
_cell_volume                     3080.46
loop_
_atom_site_label
_atom_site_type_symbol
_atom_site_fract_x
_atom_site_fract_y
_atom_site_fract_z
_atom_site_U_iso_or_equiv
_atom_site_thermal_displace_type
Zn1 Zn 0.28048(15) 0.21397(17) 0.8651(19) 0.1877 Uani
O1 O 0.2149(8) 0.2431(13) 0.985(6) 0.2110 Uani
H1 H 0.1937 0.2543 0.8712 0.3170 Uiso
N1 N 0.2487(8) 0.1457(7) 0.805(5) 0.1457 Uani
C1 C 0.2703(10) 0.1126(9) 0.983(5) 0.1620 Uani
H2 H 0.2989 0.1189 1.0979 0.1950 Uiso
N2 N 0.2476(5) 0.0682(10) 0.988(3) 0.1533 Uani
C2 C 0.2131(5) 0.1243(6) 0.696(3) 0.1207 Uani
O2 O 0.2728(9) -0.1550(11) 1.428(6) 0.2137 Uani
C3 C 0.1798(7) 0.1465(7) 0.492(4) 0.1280 Uani
H3 H 0.1839 0.1791 0.4317 0.1540 Uiso
O3 O 0.3122(12) -0.1302(13) 1.785(6) 0.1570 Uani
C4 C 0.1406(5) 0.1200(9) 0.378(3) 0.1307 Uani
C5 C 0.1083(6) 0.1440(7) 0.175(4) 0.1190 Uani
H4 H 0.1144 0.1767 0.1246 0.1430 Uiso
C6 C 0.0676(5) 0.1218(10) 0.043(4) 0.1483 Uani
H5 H 0.0460 0.1377 -0.0955 0.1780 Uiso
C7 C 0.0621(5) 0.0734(10) 0.136(4) 0.1363 Uani
H6 H 0.0352 0.0561 0.0584 0.1640 Uiso
C8 C 0.0943(6) 0.0495(8) 0.338(4) 0.1253 Uani
H7 H 0.0883 0.0168 0.3876 0.1500 Uiso
C9 C 0.1350(4) 0.0718(9) 0.470(4) 0.1330 Uani
C10 C 0.1679(6) 0.0496(8) 0.673(4) 0.1220 Uani
H8 H 0.1636 0.0169 0.7326 0.1470 Uiso
C11 C 0.2073(5) 0.0759(6) 0.788(3) 0.1263 Uani
C12 C 0.2622(5) 0.0201(7) 1.135(5) 0.1590 Uani
C13 C 0.2808(8) -0.0726(7) 1.333(5) 0.1590 Uani
C14 C 0.3098(5) 0.0035(8) 1.140(7) 0.1590 Uani
H9 H 0.3350 0.0243 1.0762 0.1910 Uiso
C15 C 0.3208(6) -0.0440(8) 1.240(7) 0.1590 Uani
H10 H 0.3528 -0.0558 1.2450 0.1910 Uiso
C16 C 0.2314(7) -0.0595(8) 1.336(8) 0.1590 Uani
H11 H 0.2060 -0.0803 1.3995 0.1910 Uiso
C17 C 0.2249(5) -0.0114(9) 1.232(7) 0.1590 Uani
H12 H 0.1930 0.0007 1.2274 0.1910 Uiso
C18 C 0.2970(9) -0.1194(8) 1.496(6) 0.1587 Uani
Zn1E Zn 0.21952(15) 0.28603(17) 1.3651(19) 0.1877 Uani
Zn1G Zn 0.28603(17) -0.21952(15) 1.6349(19) 0.1877 Uani
O1E O 0.2851(8) 0.2569(13) 0.485(6) 0.2110 Uani
O2F O 0.3450(11) 0.2272(9) 1.072(6) 0.2137 Uani
O5 O 0.480(3) -0.115(3) 0.929(11) 0.4400 Uiso
H17 H 0.4572 -0.1328 1.0096 0.5300 Uiso
H18 H 0.4790 -0.0898 0.8027 0.5300 Uiso
loop_
_atom_site_aniso_label
_atom_site_aniso_U_11
_atom_site_aniso_U_22
_atom_site_aniso_U_33
_atom_site_aniso_U_23
_atom_site_aniso_U_13
_atom_site_aniso_U_12
Zn1 0.073(2) 0.080(3) 0.410(8) -0.008(4) 0.012(4) 0.042(6)
O1 0.146(14) 0.198(17) 0.289(17) -0.041(16) 0.055(15) 0.064(16)
N1 0.143(17) 0.116(9) 0.178(17) -0.003(11) -0.016(13) -0.012(10)
C1 0.12(2) 0.126(12) 0.24(3) 0.008(19) -0.037(17) -0.010(15)
N2 0.127(15) 0.121(9) 0.212(18) -0.002(11) -0.033(13) -0.003(10)
C2 0.108(14) 0.118(11) 0.136(15) -0.004(12) 0.015(10) 0.001(11)
O2 0.205(18) 0.168(11) 0.268(15) 0.021(14) -0.013(14) -0.031(15)
C3 0.123(10) 0.124(10) 0.137(11) 0.004(8) 0.010(8) -0.002(8)
O3 0.124(12) 0.191(18) 0.156(12) 0.033(12) 0.045(11) 0.025(13)
C4 0.133(10) 0.124(10) 0.135(11) -0.004(9) 0.003(8) -0.002(8)
C5 0.111(13) 0.108(13) 0.138(15) -0.001(13) 0.026(11) 0.006(12)
C6 0.148(11) 0.141(12) 0.156(12) 0.004(8) -0.011(8) -0.002(9)
C7 0.124(17) 0.155(16) 0.130(16) 0.023(17) -0.005(13) -0.032(17)
C8 0.126(14) 0.112(13) 0.138(15) -0.023(13) -0.004(12) 0.007(12)
C9 0.121(17) 0.108(13) 0.17(2) -0.017(15) -0.011(13) 0.013(14)
C10 0.103(13) 0.119(13) 0.144(15) 0.004(13) 0.007(11) -0.006(12)
C11 0.110(14) 0.106(11) 0.163(17) -0.013(12) -0.001(11) 0.001(11)
C12 0.138(10) 0.141(7) 0.198(10) 0.010(7) -0.007(8) 0.007(8)
C13 0.138(10) 0.141(7) 0.198(10) 0.010(7) -0.007(8) 0.007(8)
C14 0.138(10) 0.141(7) 0.198(10) 0.010(7) -0.007(8) 0.007(8)
C15 0.138(10) 0.141(7) 0.198(10) 0.010(7) -0.007(8) 0.007(8)
C16 0.138(10) 0.141(7) 0.198(10) 0.010(7) -0.007(8) 0.007(8)
C17 0.138(10) 0.141(7) 0.198(10) 0.010(7) -0.007(8) 0.007(8)
C18 0.157(10) 0.147(8) 0.172(11) 0.003(7) -0.008(8) 0.010(7)
Zn1E 0.073 0.08 0.41 0.008 -0.012 0.042
Zn1G 0.08 0.073 0.41 -0.012 -0.008 -0.042
O1E 0.146 0.198 0.289 0.041 -0.055 0.064
O2F 0.168 0.205 0.268 -0.013 -0.021 0.031
loop_
_geom_bond_atom_site_label_1
_geom_bond_atom_site_label_2
_geom_bond_site_symmetry_1
_geom_bond_site_symmetry_2
Zn1 O1 1_555 1_555
O1 H1 1_555 1_555
N1 Zn1 1_555 1_555
C1 N1 1_555 1_555
H2 C1 1_555 1_555
N2 C1 1_555 1_555
C2 N1 1_555 1_555
O2 C18 1_555 1_555
C3 C2 1_555 1_555
H3 C3 1_555 1_555
O3 C18 1_555 1_555
C4 C3 1_555 1_555
C5 C4 1_555 1_555
H4 C5 1_555 1_555
C6 C5 1_555 1_555
H5 C6 1_555 1_555
C7 C6 1_555 1_555
H6 C7 1_555 1_555
C8 C7 1_555 1_555
H7 C8 1_555 1_555
C9 C4 1_555 1_555
C10 C9 1_555 1_555
H8 C10 1_555 1_555
C11 N2 1_555 1_555
C12 N2 1_555 1_555
C13 C15 1_555 1_555
C14 C12 1_555 1_555
H9 C14 1_555 1_555
C15 C14 1_555 1_555
H10 C15 1_555 1_555
C16 C13 1_555 1_555
H11 C16 1_555 1_555
C17 C12 1_555 1_555
H12 C17 1_555 1_555
C18 C13 1_555 1_555
O5 H17 1_555 1_555
H18 O5 1_555 1_555
Zn1E O1 1_555 1_555
Zn1G O2 1_555 1_555
O1E Zn1 1_555 1_555
O2F Zn1 1_555 1_555
C2 C11 1_555 1_555
C8 C9 1_555 1_555
C10 C11 1_555 1_555
C16 C17 1_555 1_555

#END
