
#######################################################################
#
#                 Cambridge Crystallographic Data Centre
#                                CCDC 
#
#######################################################################
#
# If this CIF has been generated from an entry in the Cambridge 
# Structural Database, then it will include bibliographic, chemical, 
# crystal, experimental, refinement or atomic coordinate data resulting 
# from the CCDC's data processing and validation procedures.
#
#######################################################################

data_FUVDEH12
_chemical_formula_moiety         '(C18 H14 N2 O4 Zn1)n'
_symmetry_cell_setting           tetragonal
_symmetry_space_group_name_H-M   'I -4'
_symmetry_Int_Tables_number      82
_space_group_name_Hall           'I -4'
loop_
_symmetry_equiv_pos_site_id
_symmetry_equiv_pos_as_xyz
1 x,y,z
2 -x,-y,z
3 y,-x,-z
4 -y,x,-z
5 1/2+x,1/2+y,1/2+z
6 1/2-x,1/2-y,1/2+z
7 1/2+y,1/2-x,1/2-z
8 1/2-y,1/2+x,1/2-z
_cell_length_a                   26.262(4)
_cell_length_b                   26.262(4)
_cell_length_c                   5.071(2)
_cell_angle_alpha                90
_cell_angle_beta                 90
_cell_angle_gamma                90
_cell_volume                     3497.43
loop_
_atom_site_label
_atom_site_type_symbol
_atom_site_fract_x
_atom_site_fract_y
_atom_site_fract_z
_atom_site_U_iso_or_equiv
_atom_site_thermal_displace_type
Zn1 Zn 0.27419(10) 0.21467(10) 0.8722(5) 0.0770 Uani
O1 O 0.2200(5) 0.2499(6) 1.041(2) 0.0830 Uani
H1 H 0.1989 0.2611 0.9277 0.1240 Uiso
N1 N 0.2552(6) 0.1426(7) 0.869(4) 0.0933 Uani
C1 C 0.2712(6) 0.1065(6) 1.025(3) 0.0910 Uani
H2 H 0.2976 0.1103 1.1463 0.1090 Uiso
N2 N 0.2448(4) 0.0626(6) 0.990(2) 0.0677 Uani
C2 C 0.2150(4) 0.1192(5) 0.724(2) 0.0747 Uani
O2 O 0.2727(10) -0.1660(5) 1.420(3) 0.1080 Uani
C3 C 0.1855(5) 0.1419(5) 0.531(2) 0.0683 Uani
H3 H 0.1907 0.1757 0.4846 0.0820 Uiso
O3 O 0.3208(14) -0.1238(15) 1.715(6) 0.1177 Uani
C4 C 0.1480(4) 0.1134(5) 0.409(2) 0.0750 Uani
C5 C 0.1174(5) 0.1341(6) 0.215(3) 0.0803 Uani
H4 H 0.1223 0.1679 0.1670 0.0960 Uiso
C6 C 0.0795(5) 0.1063(8) 0.090(3) 0.0987 Uani
H5 H 0.0594 0.1210 -0.0401 0.1180 Uiso
C7 C 0.0725(5) 0.0559(8) 0.165(3) 0.1017 Uani
H6 H 0.0474 0.0363 0.0852 0.1220 Uiso
C8 C 0.1032(6) 0.0351(6) 0.360(3) 0.1023 Uani
H7 H 0.0982 0.0014 0.4088 0.1250 Uiso
C9 C 0.1410(4) 0.0631(5) 0.484(2) 0.0723 Uani
C10 C 0.1701(5) 0.0403(5) 0.677(2) 0.0690 Uani
H8 H 0.1657 0.0061 0.7187 0.0830 Uiso
C11 C 0.2061(7) 0.0696(6) 0.806(4) 0.0683 Uani
C12 C 0.2576(4) 0.0145(5) 1.111(3) 0.0770 Uani
C13 C 0.2824(7) -0.0753(5) 1.348(3) 0.0770 Uani
C14 C 0.2811(8) 0.0143(5) 1.355(3) 0.0770 Uani
H9 H 0.2883 0.0451 1.4375 0.0930 Uiso
C15 C 0.2939(8) -0.0306(6) 1.478(3) 0.0770 Uani
H10 H 0.3097 -0.0308 1.6427 0.0930 Uiso
C16 C 0.2590(10) -0.0769(5) 1.106(4) 0.0770 Uani
H11 H 0.2515 -0.1077 1.0241 0.0930 Uiso
C17 C 0.2469(9) -0.0312(7) 0.990(3) 0.0770 Uani
H12 H 0.2312 -0.0311 0.8253 0.0930 Uiso
C18 C 0.2892(13) -0.1249(7) 1.494(5) 0.1067 Uani
Zn1E Zn 0.22581(10) 0.28533(10) 1.3722(5) 0.0770 Uani
Zn1G Zn 0.28533(10) -0.22581(10) 1.6278(5) 0.0770 Uani
O1E O 0.2800(5) 0.2501(6) 0.541(2) 0.0830 Uani
O2F O 0.3340(5) 0.2273(10) 1.080(3) 0.1080 Uani
O5 O 0.3472(17) 0.1090(19) 1.496(7) 0.3100 Uiso
H17 H 0.3486 0.1383 1.4251 0.3750 Uiso
H18 H 0.3645 0.0965 1.6224 0.3750 Uiso
loop_
_atom_site_aniso_label
_atom_site_aniso_U_11
_atom_site_aniso_U_22
_atom_site_aniso_U_33
_atom_site_aniso_U_23
_atom_site_aniso_U_13
_atom_site_aniso_U_12
Zn1 0.0587(18) 0.0484(15) 0.124(2) -0.0090(16) -0.0141(19) -0.017(4)
O1 0.054(7) 0.087(10) 0.108(10) 0.015(9) -0.017(7) -0.017(11)
N1 0.081(14) 0.060(6) 0.139(15) 0.014(9) -0.026(12) -0.041(10)
C1 0.082(17) 0.049(8) 0.142(16) -0.017(10) -0.040(12) -0.014(13)
N2 0.042(10) 0.049(6) 0.112(11) 0.003(7) -0.013(7) -0.006(9)
C2 0.087(18) 0.046(9) 0.091(15) 0.012(10) -0.011(11) -0.030(13)
O2 0.17(2) 0.032(6) 0.122(12) 0.003(8) -0.032(15) 0.009(13)
C3 0.051(12) 0.028(9) 0.126(15) 0.008(9) -0.002(9) -0.005(13)
O3 0.115(13) 0.125(14) 0.113(14) 0.011(12) -0.054(12) 0.028(12)
C4 0.070(14) 0.036(8) 0.119(14) -0.003(9) -0.017(10) 0.002(13)
C5 0.083(17) 0.059(12) 0.099(15) -0.001(10) -0.010(10) 0.007(16)
C6 0.099(16) 0.091(13) 0.106(14) -0.006(12) -0.023(12) -0.001(18)
C7 0.095(16) 0.069(11) 0.141(17) -0.032(12) -0.053(13) 0.008(16)
C8 0.13(2) 0.063(12) 0.114(17) -0.017(12) -0.060(15) -0.030(16)
C9 0.062(13) 0.045(10) 0.110(14) 0.005(9) -0.024(9) -0.022(13)
C10 0.061(14) 0.023(8) 0.123(16) -0.014(9) -0.022(10) 0.008(12)
C11 0.032(10) 0.040(9) 0.133(18) 0.009(10) -0.018(9) -0.006(12)
C12 0.075(7) 0.054(4) 0.102(7) 0.000(5) -0.041(6) -0.011(7)
C13 0.075(7) 0.054(4) 0.102(7) 0.000(5) -0.041(6) -0.011(7)
C14 0.075(7) 0.054(4) 0.102(7) 0.000(5) -0.041(6) -0.011(7)
C15 0.075(7) 0.054(4) 0.102(7) 0.000(5) -0.041(6) -0.011(7)
C16 0.075(7) 0.054(4) 0.102(7) 0.000(5) -0.041(6) -0.011(7)
C17 0.075(7) 0.054(4) 0.102(7) 0.000(5) -0.041(6) -0.011(7)
C18 0.114(13) 0.059(8) 0.147(19) 0.018(11) -0.076(15) -0.019(13)
Zn1E 0.0587 0.0484 0.124 0.009 0.0141 -0.017
Zn1G 0.0484 0.0587 0.124 0.0141 -0.009 0.017
O1E 0.054 0.087 0.108 -0.015 0.017 -0.017
O2F 0.032 0.17 0.122 -0.032 -0.003 -0.009
loop_
_geom_bond_atom_site_label_1
_geom_bond_atom_site_label_2
_geom_bond_site_symmetry_1
_geom_bond_site_symmetry_2
Zn1 O1 1_555 1_555
O1 H1 1_555 1_555
N1 Zn1 1_555 1_555
C1 N1 1_555 1_555
H2 C1 1_555 1_555
N2 C1 1_555 1_555
C2 N1 1_555 1_555
O2 C18 1_555 1_555
C3 C2 1_555 1_555
H3 C3 1_555 1_555
O3 C18 1_555 1_555
C4 C3 1_555 1_555
C5 C4 1_555 1_555
H4 C5 1_555 1_555
C6 C5 1_555 1_555
H5 C6 1_555 1_555
C7 C6 1_555 1_555
H6 C7 1_555 1_555
C8 C7 1_555 1_555
H7 C8 1_555 1_555
C9 C4 1_555 1_555
C10 C9 1_555 1_555
H8 C10 1_555 1_555
C11 N2 1_555 1_555
C12 N2 1_555 1_555
C13 C15 1_555 1_555
C14 C12 1_555 1_555
H9 C14 1_555 1_555
C15 C14 1_555 1_555
H10 C15 1_555 1_555
C16 C13 1_555 1_555
H11 C16 1_555 1_555
C17 C12 1_555 1_555
H12 C17 1_555 1_555
C18 C13 1_555 1_555
O5 H17 1_555 1_555
H18 O5 1_555 1_555
Zn1E O1 1_555 1_555
Zn1G O2 1_555 1_555
O1E Zn1 1_555 1_555
O2F Zn1 1_555 1_555
C2 C11 1_555 1_555
C8 C9 1_555 1_555
C10 C11 1_555 1_555
C16 C17 1_555 1_555

#END
