
#######################################################################
#
#                 Cambridge Crystallographic Data Centre
#                                CCDC 
#
#######################################################################
#
# If this CIF has been generated from an entry in the Cambridge 
# Structural Database, then it will include bibliographic, chemical, 
# crystal, experimental, refinement or atomic coordinate data resulting 
# from the CCDC's data processing and validation procedures.
#
#######################################################################

data_FUVDEH06
_chemical_formula_moiety         '(C18 H14 N2 O4 Zn1)n'
_symmetry_cell_setting           tetragonal
_symmetry_space_group_name_H-M   'I -4'
_symmetry_Int_Tables_number      82
_space_group_name_Hall           'I -4'
loop_
_symmetry_equiv_pos_site_id
_symmetry_equiv_pos_as_xyz
1 x,y,z
2 -x,-y,z
3 y,-x,-z
4 -y,x,-z
5 1/2+x,1/2+y,1/2+z
6 1/2-x,1/2-y,1/2+z
7 1/2+y,1/2-x,1/2-z
8 1/2-y,1/2+x,1/2-z
_cell_length_a                   27.7477(14)
_cell_length_b                   27.7477(14)
_cell_length_c                   3.7669(5)
_cell_angle_alpha                90
_cell_angle_beta                 90
_cell_angle_gamma                90
_cell_volume                     2900.27
loop_
_atom_site_label
_atom_site_type_symbol
_atom_site_fract_x
_atom_site_fract_y
_atom_site_fract_z
_atom_site_U_iso_or_equiv
_atom_site_thermal_displace_type
Zn1 Zn 0.28308(10) 0.21414(9) 0.8689(8) 0.0844 Uani
O1 O 0.2165(5) 0.2548(6) 0.898(4) 0.0890 Uani
H1 H 0.1938 0.2669 0.7750 0.1070 Uiso
N1 N 0.2597(6) 0.1456(4) 0.814(3) 0.0613 Uani
C1 C 0.2794(6) 0.1084(4) 0.969(3) 0.0740 Uani
H2 H 0.3090 0.1098 1.0838 0.0890 Uiso
N2 N 0.2527(3) 0.0674(4) 0.948(2) 0.0577 Uani
C2 C 0.2143(4) 0.1292(5) 0.670(2) 0.0703 Uani
O2 O 0.2778(6) -0.1421(6) 1.573(5) 0.1323 Uani
C3 C 0.1785(4) 0.1524(4) 0.480(2) 0.0623 Uani
H3 H 0.1813 0.1849 0.4233 0.0750 Uiso
O3 O 0.3448(8) -0.1232(15) 1.645(11) 0.1637 Uani
C4 C 0.1383(4) 0.1265(4) 0.378(2) 0.0547 Uani
C5 C 0.1014(4) 0.1475(5) 0.186(2) 0.0677 Uani
H4 H 0.1039 0.1799 0.1267 0.0810 Uiso
C6 C 0.0609(4) 0.1225(6) 0.080(3) 0.0647 Uani
H5 H 0.0364 0.1373 -0.0480 0.0780 Uiso
C7 C 0.0585(3) 0.0742(6) 0.172(3) 0.0663 Uani
H6 H 0.0318 0.0560 0.1058 0.0800 Uiso
C8 C 0.0955(4) 0.0528(5) 0.361(3) 0.0647 Uani
H7 H 0.0932 0.0203 0.4176 0.0770 Uiso
C9 C 0.1359(3) 0.0781(4) 0.469(2) 0.0507 Uani
C10 C 0.1715(4) 0.0544(5) 0.659(2) 0.0560 Uani
H8 H 0.1685 0.0219 0.7163 0.0670 Uiso
C11 C 0.2116(4) 0.0807(5) 0.762(4) 0.0537 Uani
C12 C 0.2450(6) -0.0556(4) 1.312(3) 0.0673 Uani
H9 H 0.2218 -0.0770 1.3954 0.0810 Uiso
C13 C 0.2932(6) -0.0691(4) 1.305(3) 0.0863 Uani
C14 C 0.3278(5) -0.0371(5) 1.180(5) 0.1190 Uani
H10 H 0.3601 -0.0462 1.1753 0.1430 Uiso
C15 C 0.3142(5) 0.0083(5) 1.061(4) 0.1057 Uani
H11 H 0.3374 0.0297 0.9772 0.1280 Uiso
C16 C 0.2660(5) 0.0218(3) 1.068(2) 0.0717 Uani
C17 C 0.2314(4) -0.0101(4) 1.193(3) 0.0840 Uani
H12 H 0.1991 -0.0011 1.1973 0.1010 Uiso
C18 C 0.3074(12) -0.1188(5) 1.435(5) 0.1443 Uani
Zn1E Zn 0.21692(10) 0.28586(9) 1.3689(8) 0.0844 Uani
Zn1G Zn 0.28586(9) -0.21692(10) 1.6311(8) 0.0844 Uani
O1E O 0.2835(5) 0.2452(6) 0.398(4) 0.0890 Uani
O2F O 0.3579(6) 0.2222(6) 0.927(5) 0.1323 Uani
O4 O 0.426(3) -0.113(2) 0.874(13) 0.4400 Uiso
H13 H 0.4030 -0.1303 0.9540 0.5240 Uiso
H14 H 0.4248 -0.0874 0.7478 0.5240 Uiso
loop_
_atom_site_aniso_label
_atom_site_aniso_U_11
_atom_site_aniso_U_22
_atom_site_aniso_U_33
_atom_site_aniso_U_23
_atom_site_aniso_U_13
_atom_site_aniso_U_12
Zn1 0.0539(17) 0.0474(14) 0.152(2) 0.0048(17) 0.0077(17) 0.006(3)
O1 0.064(7) 0.065(7) 0.138(9) -0.004(9) 0.001(9) 0.022(9)
N1 0.059(8) 0.040(5) 0.085(8) -0.001(7) 0.033(7) -0.008(8)
C1 0.033(8) 0.057(7) 0.132(14) 0.007(11) 0.010(9) -0.008(11)
N2 0.048(8) 0.042(6) 0.083(9) -0.001(7) 0.011(7) -0.003(9)
C2 0.066(11) 0.037(8) 0.108(13) -0.017(10) 0.008(10) 0.021(9)
O2 0.169(18) 0.076(10) 0.152(15) 0.012(10) -0.037(13) 0.014(19)
C3 0.090(10) 0.034(8) 0.063(8) 0.020(8) 0.011(8) -0.012(10)
O3 0.122(14) 0.079(15) 0.29(3) 0.017(19) -0.013(14) 0.072(16)
C4 0.068(9) 0.043(7) 0.053(8) -0.015(8) 0.020(8) 0.022(10)
C5 0.086(9) 0.078(10) 0.039(7) -0.002(8) 0.007(8) 0.015(10)
C6 0.062(8) 0.072(8) 0.060(8) -0.017(8) 0.023(8) 0.024(11)
C7 0.064(9) 0.081(9) 0.054(8) -0.012(10) 0.004(8) 0.016(13)
C8 0.049(8) 0.080(11) 0.065(9) 0.016(12) 0.004(8) -0.016(12)
C9 0.047(8) 0.050(7) 0.055(8) -0.008(8) 0.015(7) 0.003(10)
C10 0.047(7) 0.055(8) 0.066(7) 0.004(8) 0.001(7) 0.007(8)
C11 0.039(7) 0.051(8) 0.071(10) 0.006(8) 0.021(6) -0.005(8)
C12 0.066(8) 0.050(8) 0.086(10) -0.011(8) 0.001(10) -0.002(11)
C13 0.079(9) 0.053(9) 0.127(14) -0.017(9) 0.005(11) 0.020(10)
C14 0.061(9) 0.098(11) 0.198(17) 0.031(13) -0.008(14) 0.020(10)
C15 0.063(8) 0.064(10) 0.19(2) -0.002(12) -0.035(14) 0.001(12)
C16 0.060(9) 0.037(7) 0.118(13) -0.015(9) -0.010(11) 0.002(10)
C17 0.075(10) 0.072(10) 0.105(13) 0.027(11) 0.003(12) 0.009(11)
C18 0.151(18) 0.072(13) 0.21(2) 0.018(15) -0.005(13) 0.040(13)
Zn1E 0.0539 0.0474 0.152 -0.0048 -0.0077 0.006
Zn1G 0.0474 0.0539 0.152 -0.0077 0.0048 -0.006
O1E 0.064 0.065 0.138 0.004 -0.001 0.022
O2F 0.076 0.169 0.152 -0.037 -0.012 -0.014
loop_
_geom_bond_atom_site_label_1
_geom_bond_atom_site_label_2
_geom_bond_site_symmetry_1
_geom_bond_site_symmetry_2
Zn1 O1 1_555 1_555
O1 H1 1_555 1_555
N1 Zn1 1_555 1_555
C1 N1 1_555 1_555
H2 C1 1_555 1_555
N2 C1 1_555 1_555
C2 N1 1_555 1_555
O2 C18 1_555 1_555
C3 C2 1_555 1_555
H3 C3 1_555 1_555
O3 C18 1_555 1_555
C4 C3 1_555 1_555
C5 C4 1_555 1_555
H4 C5 1_555 1_555
C6 C5 1_555 1_555
H5 C6 1_555 1_555
C7 C6 1_555 1_555
H6 C7 1_555 1_555
C8 C7 1_555 1_555
H7 C8 1_555 1_555
C9 C4 1_555 1_555
C10 C9 1_555 1_555
H8 C10 1_555 1_555
C11 N2 1_555 1_555
C12 H9 1_555 1_555
C13 C12 1_555 1_555
C14 C13 1_555 1_555
H10 C14 1_555 1_555
C15 C14 1_555 1_555
H11 C15 1_555 1_555
C16 N2 1_555 1_555
C17 C12 1_555 1_555
H12 C17 1_555 1_555
C18 C13 1_555 1_555
O4 H13 1_555 1_555
H14 O4 1_555 1_555
Zn1E O1 1_555 1_555
Zn1G O2 1_555 1_555
O1E Zn1 1_555 1_555
O2F Zn1 1_555 1_555
C2 C11 1_555 1_555
C8 C9 1_555 1_555
C10 C11 1_555 1_555
C15 C16 1_555 1_555
C16 C17 1_555 1_555

#END
