
#######################################################################
#
#                 Cambridge Crystallographic Data Centre
#                                CCDC 
#
#######################################################################
#
# If this CIF has been generated from an entry in the Cambridge 
# Structural Database, then it will include bibliographic, chemical, 
# crystal, experimental, refinement or atomic coordinate data resulting 
# from the CCDC's data processing and validation procedures.
#
#######################################################################

data_FUVDEH08
_chemical_formula_moiety         '(C18 H14 N2 O4 Zn1)n'
_symmetry_cell_setting           tetragonal
_symmetry_space_group_name_H-M   'I -4'
_symmetry_Int_Tables_number      82
_space_group_name_Hall           'I -4'
loop_
_symmetry_equiv_pos_site_id
_symmetry_equiv_pos_as_xyz
1 x,y,z
2 -x,-y,z
3 y,-x,-z
4 -y,x,-z
5 1/2+x,1/2+y,1/2+z
6 1/2-x,1/2-y,1/2+z
7 1/2+y,1/2-x,1/2-z
8 1/2-y,1/2+x,1/2-z
_cell_length_a                   27.7471(9)
_cell_length_b                   27.7471(9)
_cell_length_c                   3.6323(3)
_cell_angle_alpha                90
_cell_angle_beta                 90
_cell_angle_gamma                90
_cell_volume                     2796.51
loop_
_atom_site_label
_atom_site_type_symbol
_atom_site_fract_x
_atom_site_fract_y
_atom_site_fract_z
Zn1 Zn 0.28404(7) 0.21392(6) 0.8573(4)
N1 N 0.2593(4) 0.1454(3) 0.789(2)
C1 C 0.2799(4) 0.1085(3) 0.946(2)
H1 H 0.3099 0.1104 1.0586
N2 N 0.2537(3) 0.0672(3) 0.931(2)
C2 C 0.2153(3) 0.1290(3) 0.6567(15)
O1 O 0.2745(5) -0.1412(4) 1.604(3)
C3 C 0.1790(3) 0.1528(3) 0.469(2)
H2 H 0.1820 0.1853 0.4118
O2 O 0.3404(6) -0.1381(9) 1.277(6)
C4 C 0.1382(3) 0.1274(3) 0.3691(19)
C5 C 0.1008(3) 0.1489(4) 0.178(2)
H3 H 0.1034 0.1813 0.1179
C6 C 0.0598(3) 0.1241(4) 0.074(2)
H4 H 0.0352 0.1394 -0.0552
C7 C 0.0565(2) 0.0758(4) 0.168(2)
H5 H 0.0293 0.0582 0.1040
C8 C 0.0937(3) 0.0537(4) 0.357(2)
H6 H 0.0911 0.0212 0.4159
C9 C 0.1350(2) 0.0788(3) 0.4618(18)
C10 C 0.1711(3) 0.0552(4) 0.649(2)
H7 H 0.1681 0.0227 0.7073
C11 C 0.2118(3) 0.0805(4) 0.748(3)
C12 C 0.2449(4) -0.0546(3) 1.310(2)
H8 H 0.2211 -0.0754 1.3944
C13 C 0.2929(5) -0.0690(3) 1.313(3)
C14 C 0.3285(3) -0.0379(4) 1.186(4)
H9 H 0.3606 -0.0475 1.1882
C15 C 0.3161(3) 0.0076(4) 1.057(3)
H10 H 0.3399 0.0285 0.9724
C16 C 0.2681(4) 0.0220(3) 1.054(2)
C17 C 0.2325(3) -0.0091(3) 1.180(3)
H11 H 0.2004 0.0005 1.1786
C18 C 0.3030(7) -0.1196(4) 1.449(6)
O3 O 0.2853(4) 0.2469(4) 0.368(2)
H12 H 0.3083 0.2347 0.2440
Zn1_2 Zn 0.28404(7) 0.21392(6) -0.1427(4)
Zn1G Zn 0.28608(6) -0.21596(7) 1.6427(4)
O1F O 0.3588(4) 0.2255(5) 0.896(3)
O3_2 O 0.2853(4) 0.2469(4) 1.368(2)
O4 O 0.4253(11) -0.1117(9) 0.908(7)
H13 H 0.4025 -0.1293 0.9882
H14 H 0.4223 -0.0872 0.7692
loop_
_geom_bond_atom_site_label_1
_geom_bond_atom_site_label_2
_geom_bond_site_symmetry_1
_geom_bond_site_symmetry_2
Zn1 N1 1_555 1_555
N1 C1 1_555 1_555
C1 H1 1_555 1_555
N2 C1 1_555 1_555
C2 N1 1_555 1_555
O1 C18 1_555 1_555
C3 C2 1_555 1_555
H2 C3 1_555 1_555
O2 C18 1_555 1_555
C4 C3 1_555 1_555
C5 C4 1_555 1_555
H3 C5 1_555 1_555
C6 C5 1_555 1_555
H4 C6 1_555 1_555
C7 C6 1_555 1_555
H5 C7 1_555 1_555
C8 C7 1_555 1_555
H6 C8 1_555 1_555
C9 C4 1_555 1_555
C10 C9 1_555 1_555
H7 C10 1_555 1_555
C11 N2 1_555 1_555
C12 H8 1_555 1_555
C13 C12 1_555 1_555
C14 C13 1_555 1_555
H9 C14 1_555 1_555
C15 C14 1_555 1_555
H10 C15 1_555 1_555
C16 N2 1_555 1_555
C17 C12 1_555 1_555
H11 C17 1_555 1_555
C18 C13 1_555 1_555
O3 Zn1 1_555 1_555
H12 O3 1_555 1_555
O4 H13 1_555 1_555
H14 O4 1_555 1_555
Zn1_2 O3 1_555 1_555
Zn1G O1 1_555 1_555
O1F Zn1 1_555 1_555
O3_2 Zn1 1_555 1_555
C2 C11 1_555 1_555
C8 C9 1_555 1_555
C10 C11 1_555 1_555
C15 C16 1_555 1_555
C16 C17 1_555 1_555

#END
