
#######################################################################
#
#                 Cambridge Crystallographic Data Centre
#                                CCDC 
#
#######################################################################
#
# If this CIF has been generated from an entry in the Cambridge 
# Structural Database, then it will include bibliographic, chemical, 
# crystal, experimental, refinement or atomic coordinate data resulting 
# from the CCDC's data processing and validation procedures.
#
#######################################################################

data_FUVDEH13
_chemical_formula_moiety         '(C18 H14 N2 O4 Zn1)n'
_symmetry_cell_setting           tetragonal
_symmetry_space_group_name_H-M   'I -4'
_symmetry_Int_Tables_number      82
_space_group_name_Hall           'I -4'
loop_
_symmetry_equiv_pos_site_id
_symmetry_equiv_pos_as_xyz
1 x,y,z
2 -x,-y,z
3 y,-x,-z
4 -y,x,-z
5 1/2+x,1/2+y,1/2+z
6 1/2-x,1/2-y,1/2+z
7 1/2+y,1/2-x,1/2-z
8 1/2-y,1/2+x,1/2-z
_cell_length_a                   26.082(6)
_cell_length_b                   26.082(6)
_cell_length_c                   5.053(2)
_cell_angle_alpha                90
_cell_angle_beta                 90
_cell_angle_gamma                90
_cell_volume                     3437.41
loop_
_atom_site_label
_atom_site_type_symbol
_atom_site_fract_x
_atom_site_fract_y
_atom_site_fract_z
_atom_site_U_iso_or_equiv
_atom_site_thermal_displace_type
Zn1 Zn 0.27581(14) 0.21562(12) 0.8426(9) 0.1256 Uani
O1 O 0.2186(6) 0.2509(7) 1.011(3) 0.1200 Uani
H1 H 0.1975 0.2621 0.8964 0.1800 Uiso
N1 N 0.2607(8) 0.1460(7) 0.862(4) 0.1260 Uani
C1 C 0.2715(8) 0.1065(7) 1.011(4) 0.1220 Uani
H2 H 0.2981 0.1089 1.1326 0.1470 Uiso
N2 N 0.2446(5) 0.0620(8) 0.993(3) 0.0973 Uani
C2 C 0.2154(5) 0.1198(7) 0.711(2) 0.1157 Uani
O2 O 0.2744(10) -0.1633(8) 1.451(3) 0.1450 Uani
C3 C 0.1856(5) 0.1416(5) 0.515(3) 0.0843 Uani
H3 H 0.1914 0.1751 0.4603 0.1010 Uiso
O3 O 0.3268(16) -0.1178(17) 1.672(10) 0.1313 Uani
C4 C 0.1469(5) 0.1126(6) 0.402(2) 0.0813 Uani
C5 C 0.1172(6) 0.1346(6) 0.207(3) 0.1127 Uani
H4 H 0.1241 0.1682 0.1558 0.1370 Uiso
C6 C 0.0776(5) 0.1085(8) 0.083(3) 0.1240 Uani
H5 H 0.0575 0.1232 -0.0489 0.1480 Uiso
C7 C 0.0703(5) 0.0586(8) 0.171(3) 0.1073 Uani
H6 H 0.0443 0.0392 0.0945 0.1290 Uiso
C8 C 0.0998(6) 0.0364(6) 0.368(3) 0.1040 Uani
H7 H 0.0928 0.0029 0.4191 0.1250 Uiso
C9 C 0.1395(4) 0.0626(6) 0.491(2) 0.0903 Uani
C10 C 0.1692(5) 0.0407(6) 0.687(3) 0.0897 Uani
H8 H 0.1626 0.0076 0.7474 0.1070 Uiso
C11 C 0.2091(7) 0.0693(7) 0.791(4) 0.0940 Uani
C12 C 0.2532(5) 0.0145(7) 1.111(3) 0.1143 Uani
C13 C 0.2775(6) -0.0697(6) 1.405(4) 0.1143 Uani
C14 C 0.2788(8) 0.0199(5) 1.349(4) 0.1143 Uani
H9 H 0.2877 0.0525 1.4073 0.1370 Uiso
C15 C 0.2914(9) -0.0221(7) 1.500(4) 0.1143 Uani
H10 H 0.3085 -0.0185 1.6605 0.1370 Uiso
C16 C 0.2518(9) -0.0767(6) 1.170(4) 0.1143 Uani
H11 H 0.2427 -0.1093 1.1115 0.1370 Uiso
C17 C 0.2401(9) -0.0337(8) 1.024(3) 0.1143 Uani
H12 H 0.2230 -0.0373 0.8636 0.1370 Uiso
C18 C 0.2864(10) -0.1214(9) 1.532(6) 0.1380 Uani
Zn1E Zn 0.22419(14) 0.28438(12) 1.3426(9) 0.1256 Uani
Zn1G Zn 0.28438(12) -0.22419(14) 1.6574(9) 0.1256 Uani
O1E O 0.2814(6) 0.2491(7) 0.511(3) 0.1200 Uani
O2F O 0.3367(8) 0.2256(10) 1.049(3) 0.1450 Uani
O5 O 0.3629(14) 0.1235(16) 1.336(8) 0.2330 Uiso
H17 H 0.3716 0.1517 1.2649 0.2800 Uiso
H18 H 0.3688 0.1259 1.5009 0.2800 Uiso
loop_
_atom_site_aniso_label
_atom_site_aniso_U_11
_atom_site_aniso_U_22
_atom_site_aniso_U_33
_atom_site_aniso_U_23
_atom_site_aniso_U_13
_atom_site_aniso_U_12
Zn1 0.090(3) 0.0698(19) 0.217(4) -0.007(2) -0.029(2) -0.010(4)
O1 0.095(10) 0.127(12) 0.138(11) 0.054(11) -0.007(9) 0.009(12)
N1 0.141(16) 0.092(7) 0.145(14) -0.005(9) -0.046(12) -0.044(10)
C1 0.128(15) 0.085(8) 0.153(14) -0.015(10) -0.043(11) -0.013(11)
N2 0.090(11) 0.094(7) 0.108(10) -0.001(8) -0.003(8) -0.015(9)
C2 0.126(17) 0.091(11) 0.130(15) 0.021(11) -0.035(12) -0.053(13)
O2 0.24(3) 0.090(8) 0.105(10) 0.048(9) -0.026(14) -0.036(19)
C3 0.082(12) 0.061(10) 0.110(11) -0.002(10) 0.003(9) -0.026(12)
O3 0.126(16) 0.126(14) 0.142(12) 0.014(11) -0.021(14) 0.008(14)
C4 0.079(12) 0.059(8) 0.106(13) -0.010(9) -0.010(9) -0.009(11)
C5 0.16(2) 0.079(11) 0.099(13) -0.018(10) -0.040(13) -0.001(14)
C6 0.118(17) 0.145(16) 0.109(15) 0.023(14) -0.036(12) -0.022(18)
C7 0.095(13) 0.109(13) 0.118(14) -0.020(12) -0.014(10) -0.005(15)
C8 0.112(15) 0.058(9) 0.142(15) -0.023(11) -0.028(11) -0.017(12)
C9 0.075(13) 0.049(8) 0.147(15) -0.013(9) -0.020(10) -0.005(12)
C10 0.085(14) 0.060(10) 0.124(15) 0.012(11) -0.004(10) -0.025(13)
C11 0.048(10) 0.072(10) 0.162(16) 0.010(12) -0.006(8) -0.012(12)
C12 0.123(9) 0.093(5) 0.127(8) 0.001(6) -0.010(7) 0.004(7)
C13 0.123(9) 0.093(5) 0.127(8) 0.001(6) -0.010(7) 0.004(7)
C14 0.123(9) 0.093(5) 0.127(8) 0.001(6) -0.010(7) 0.004(7)
C15 0.123(9) 0.093(5) 0.127(8) 0.001(6) -0.010(7) 0.004(7)
C16 0.123(9) 0.093(5) 0.127(8) 0.001(6) -0.010(7) 0.004(7)
C17 0.123(9) 0.093(5) 0.127(8) 0.001(6) -0.010(7) 0.004(7)
C18 0.151(18) 0.105(8) 0.158(14) 0.021(11) -0.044(15) -0.018(12)
Zn1E 0.09 0.0698 0.217 0.007 0.029 -0.01
Zn1G 0.0698 0.09 0.217 0.029 -0.007 0.01
O1E 0.095 0.127 0.138 -0.054 0.007 0.009
O2F 0.09 0.24 0.105 -0.026 -0.048 0.036
loop_
_geom_bond_atom_site_label_1
_geom_bond_atom_site_label_2
_geom_bond_site_symmetry_1
_geom_bond_site_symmetry_2
Zn1 O1 1_555 1_555
O1 H1 1_555 1_555
N1 Zn1 1_555 1_555
C1 N1 1_555 1_555
H2 C1 1_555 1_555
N2 C1 1_555 1_555
C2 N1 1_555 1_555
O2 C18 1_555 1_555
C3 C2 1_555 1_555
H3 C3 1_555 1_555
O3 C18 1_555 1_555
C4 C3 1_555 1_555
C5 C4 1_555 1_555
H4 C5 1_555 1_555
C6 C5 1_555 1_555
H5 C6 1_555 1_555
C7 C6 1_555 1_555
H6 C7 1_555 1_555
C8 C7 1_555 1_555
H7 C8 1_555 1_555
C9 C4 1_555 1_555
C10 C9 1_555 1_555
H8 C10 1_555 1_555
C11 N2 1_555 1_555
C12 N2 1_555 1_555
C13 C15 1_555 1_555
C14 C12 1_555 1_555
H9 C14 1_555 1_555
C15 C14 1_555 1_555
H10 C15 1_555 1_555
C16 C13 1_555 1_555
H11 C16 1_555 1_555
C17 C12 1_555 1_555
H12 C17 1_555 1_555
C18 C13 1_555 1_555
O5 H17 1_555 1_555
H18 O5 1_555 1_555
Zn1E O1 1_555 1_555
Zn1G O2 1_555 1_555
O1E Zn1 1_555 1_555
O2F Zn1 1_555 1_555
C2 C11 1_555 1_555
C8 C9 1_555 1_555
C10 C11 1_555 1_555
C16 C17 1_555 1_555

#END
