
#######################################################################
#
#                 Cambridge Crystallographic Data Centre
#                                CCDC 
#
#######################################################################
#
# If this CIF has been generated from an entry in the Cambridge 
# Structural Database, then it will include bibliographic, chemical, 
# crystal, experimental, refinement or atomic coordinate data resulting 
# from the CCDC's data processing and validation procedures.
#
#######################################################################

data_FUVDEH11
_chemical_formula_moiety         '(C18 H14 N2 O4 Zn1)n'
_symmetry_cell_setting           tetragonal
_symmetry_space_group_name_H-M   'I -4'
_symmetry_Int_Tables_number      82
_space_group_name_Hall           'I -4'
loop_
_symmetry_equiv_pos_site_id
_symmetry_equiv_pos_as_xyz
1 x,y,z
2 -x,-y,z
3 y,-x,-z
4 -y,x,-z
5 1/2+x,1/2+y,1/2+z
6 1/2-x,1/2-y,1/2+z
7 1/2+y,1/2-x,1/2-z
8 1/2-y,1/2+x,1/2-z
_cell_length_a                   26.423(3)
_cell_length_b                   26.423(3)
_cell_length_c                   5.0845(13)
_cell_angle_alpha                90
_cell_angle_beta                 90
_cell_angle_gamma                90
_cell_volume                     3549.87
loop_
_atom_site_label
_atom_site_type_symbol
_atom_site_fract_x
_atom_site_fract_y
_atom_site_fract_z
_atom_site_U_iso_or_equiv
_atom_site_thermal_displace_type
Zn1 Zn 0.27328(8) 0.21436(7) 0.8984(4) 0.0588 Uani
O1 O 0.2202(4) 0.2521(4) 1.0707(19) 0.0737 Uani
H1 H 0.1993 0.2632 0.9577 0.1110 Uiso
N1 N 0.2532(5) 0.1421(5) 0.881(3) 0.0637 Uani
C1 C 0.2698(4) 0.1061(4) 1.034(2) 0.0630 Uani
H2 H 0.2957 0.1098 1.1563 0.0750 Uiso
N2 N 0.2440(3) 0.0625(5) 0.9896(17) 0.0637 Uani
C2 C 0.2148(3) 0.1209(4) 0.7333(16) 0.0570 Uani
O2 O 0.2764(6) -0.1659(4) 1.388(3) 0.0777 Uani
C3 C 0.1848(4) 0.1429(4) 0.5424(19) 0.0640 Uani
H3 H 0.1891 0.1768 0.4973 0.0770 Uiso
O3 O 0.3163(12) -0.1250(10) 1.696(5) 0.0910 Uani
C4 C 0.1483(4) 0.1138(4) 0.4197(18) 0.0650 Uani
C5 C 0.1180(5) 0.1348(4) 0.227(2) 0.0730 Uani
H4 H 0.1227 0.1686 0.1817 0.0880 Uiso
C6 C 0.0807(4) 0.1073(6) 0.098(2) 0.0917 Uani
H5 H 0.0607 0.1225 -0.0297 0.1100 Uiso
C7 C 0.0737(4) 0.0567(6) 0.164(2) 0.0850 Uani
H6 H 0.0490 0.0375 0.0793 0.1020 Uiso
C8 C 0.1040(4) 0.0354(5) 0.356(2) 0.0743 Uani
H7 H 0.0994 0.0016 0.4010 0.0890 Uiso
C9 C 0.1412(3) 0.0632(4) 0.4847(15) 0.0553 Uani
C10 C 0.1708(4) 0.0409(5) 0.6767(18) 0.0610 Uani
H8 H 0.1668 0.0070 0.7203 0.0730 Uiso
C11 C 0.2065(5) 0.0707(5) 0.802(3) 0.0633 Uani
C12 C 0.2576(3) 0.0140(4) 1.106(2) 0.0723 Uani
C13 C 0.2837(6) -0.0764(4) 1.333(3) 0.0723 Uani
C14 C 0.2791(6) 0.0128(4) 1.354(3) 0.0723 Uani
H9 H 0.2846 0.0430 1.4434 0.0860 Uiso
C15 C 0.2925(7) -0.0322(5) 1.472(2) 0.0723 Uani
H10 H 0.3069 -0.0329 1.6388 0.0860 Uiso
C16 C 0.2623(8) -0.0768(4) 1.086(3) 0.0723 Uani
H11 H 0.2565 -0.1070 0.9967 0.0860 Uiso
C17 C 0.2496(7) -0.0310(5) 0.975(2) 0.0723 Uani
H12 H 0.2353 -0.0303 0.8080 0.0860 Uiso
C18 C 0.2976(10) -0.1266(6) 1.457(4) 0.0850 Uani
Zn1E Zn 0.22672(8) 0.28564(7) 1.3984(4) 0.0588 Uani
Zn1G Zn 0.28564(7) -0.22672(8) 1.6016(4) 0.0588 Uani
O1E O 0.2798(4) 0.2479(4) 0.5707(19) 0.0737 Uani
O2F O 0.3341(4) 0.2236(6) 1.112(3) 0.0777 Uani
O5 O 0.3484(15) 0.1048(14) 1.515(6) 0.3200 Uiso
H17 H 0.3498 0.1337 1.4449 0.3860 Uiso
H18 H 0.3654 0.0924 1.6400 0.3860 Uiso
loop_
_atom_site_aniso_label
_atom_site_aniso_U_11
_atom_site_aniso_U_22
_atom_site_aniso_U_33
_atom_site_aniso_U_23
_atom_site_aniso_U_13
_atom_site_aniso_U_12
Zn1 0.0465(13) 0.0433(11) 0.0867(12) -0.0039(11) -0.0073(12) -0.006(3)
O1 0.062(7) 0.068(7) 0.091(7) -0.001(7) 0.012(7) 0.012(11)
N1 0.048(9) 0.045(5) 0.098(9) 0.004(7) -0.009(8) -0.009(9)
C1 0.047(11) 0.039(6) 0.103(12) -0.020(7) -0.023(8) 0.003(11)
N2 0.051(9) 0.043(5) 0.097(8) 0.003(6) -0.016(6) -0.004(8)
C2 0.052(11) 0.035(7) 0.084(10) -0.007(7) -0.008(8) -0.001(10)
O2 0.096(11) 0.046(5) 0.091(7) -0.001(7) -0.025(9) 0.021(11)
C3 0.072(12) 0.025(7) 0.095(11) 0.003(7) -0.015(8) -0.012(11)
O3 0.094(13) 0.075(10) 0.104(11) -0.001(10) -0.039(11) 0.017(12)
C4 0.063(10) 0.040(7) 0.092(10) 0.008(8) -0.021(8) -0.013(12)
C5 0.070(13) 0.050(9) 0.099(12) -0.006(8) -0.017(9) 0.024(14)
C6 0.091(14) 0.092(11) 0.092(11) 0.010(11) -0.039(10) 0.006(16)
C7 0.078(13) 0.064(8) 0.113(12) -0.038(10) -0.034(9) 0.026(14)
C8 0.082(13) 0.044(8) 0.097(12) -0.005(9) -0.027(9) -0.017(13)
C9 0.048(10) 0.031(7) 0.087(10) -0.002(7) -0.008(6) -0.011(11)
C10 0.049(10) 0.040(8) 0.094(11) 0.001(8) -0.007(7) -0.005(11)
C11 0.040(9) 0.052(8) 0.098(12) 0.011(9) -0.013(7) -0.015(11)
C12 0.080(6) 0.048(3) 0.089(6) 0.002(4) -0.021(5) 0.005(7)
C13 0.080(6) 0.048(3) 0.089(6) 0.002(4) -0.021(5) 0.005(7)
C14 0.080(6) 0.048(3) 0.089(6) 0.002(4) -0.021(5) 0.005(7)
C15 0.080(6) 0.048(3) 0.089(6) 0.002(4) -0.021(5) 0.005(7)
C16 0.080(6) 0.048(3) 0.089(6) 0.002(4) -0.021(5) 0.005(7)
C17 0.080(6) 0.048(3) 0.089(6) 0.002(4) -0.021(5) 0.005(7)
C18 0.089(13) 0.057(7) 0.109(11) 0.017(9) -0.044(12) -0.001(11)
Zn1E 0.0465 0.0433 0.0867 0.0039 0.0073 -0.006
Zn1G 0.0433 0.0465 0.0867 0.0073 -0.0039 0.006
O1E 0.062 0.068 0.091 0.001 -0.012 0.012
O2F 0.046 0.096 0.091 -0.025 0.001 -0.021
loop_
_geom_bond_atom_site_label_1
_geom_bond_atom_site_label_2
_geom_bond_site_symmetry_1
_geom_bond_site_symmetry_2
Zn1 O1 1_555 1_555
O1 H1 1_555 1_555
N1 Zn1 1_555 1_555
C1 N1 1_555 1_555
H2 C1 1_555 1_555
N2 C1 1_555 1_555
C2 N1 1_555 1_555
O2 C18 1_555 1_555
C3 C2 1_555 1_555
H3 C3 1_555 1_555
O3 C18 1_555 1_555
C4 C3 1_555 1_555
C5 C4 1_555 1_555
H4 C5 1_555 1_555
C6 C5 1_555 1_555
H5 C6 1_555 1_555
C7 C6 1_555 1_555
H6 C7 1_555 1_555
C8 C7 1_555 1_555
H7 C8 1_555 1_555
C9 C4 1_555 1_555
C10 C9 1_555 1_555
H8 C10 1_555 1_555
C11 N2 1_555 1_555
C12 N2 1_555 1_555
C13 C15 1_555 1_555
C14 C12 1_555 1_555
H9 C14 1_555 1_555
C15 C14 1_555 1_555
H10 C15 1_555 1_555
C16 C13 1_555 1_555
H11 C16 1_555 1_555
C17 C12 1_555 1_555
H12 C17 1_555 1_555
C18 C13 1_555 1_555
O5 H17 1_555 1_555
H18 O5 1_555 1_555
Zn1E O1 1_555 1_555
Zn1G O2 1_555 1_555
O1E Zn1 1_555 1_555
O2F Zn1 1_555 1_555
C2 C11 1_555 1_555
C8 C9 1_555 1_555
C10 C11 1_555 1_555
C16 C17 1_555 1_555

#END
