
#######################################################################
#
#                 Cambridge Crystallographic Data Centre
#                                CCDC 
#
#######################################################################
#
# If this CIF has been generated from an entry in the Cambridge 
# Structural Database, then it will include bibliographic, chemical, 
# crystal, experimental, refinement or atomic coordinate data resulting 
# from the CCDC's data processing and validation procedures.
#
#######################################################################

data_FUVDEH10
_chemical_formula_moiety         '(C18 H14 N2 O4 Zn1)n'
_symmetry_cell_setting           tetragonal
_symmetry_space_group_name_H-M   'I -4'
_symmetry_Int_Tables_number      82
_space_group_name_Hall           'I -4'
loop_
_symmetry_equiv_pos_site_id
_symmetry_equiv_pos_as_xyz
1 x,y,z
2 -x,-y,z
3 y,-x,-z
4 -y,x,-z
5 1/2+x,1/2+y,1/2+z
6 1/2-x,1/2-y,1/2+z
7 1/2+y,1/2-x,1/2-z
8 1/2-y,1/2+x,1/2-z
_cell_length_a                   26.5471(12)
_cell_length_b                   26.5471(12)
_cell_length_c                   5.1352(4)
_cell_angle_alpha                90
_cell_angle_beta                 90
_cell_angle_gamma                90
_cell_volume                     3619.02
loop_
_atom_site_label
_atom_site_type_symbol
_atom_site_fract_x
_atom_site_fract_y
_atom_site_fract_z
_atom_site_U_iso_or_equiv
_atom_site_thermal_displace_type
Zn1 Zn 0.27280(4) 0.21416(3) 0.91481(16) 0.0358 Uani
O1 O 0.2211(2) 0.2527(3) 1.0854(12) 0.0477 Uani
H1 H 0.2003 0.2637 0.9731 0.0720 Uiso
N1 N 0.2514(3) 0.1414(2) 0.8970(13) 0.0513 Uani
C1 C 0.2678(3) 0.10469(19) 1.0434(12) 0.0593 Uani
H2 H 0.2932 0.1084 1.1667 0.0710 Uiso
N2 N 0.2437(2) 0.0605(2) 0.9959(10) 0.0523 Uani
C2 C 0.21311(16) 0.1212(2) 0.7416(8) 0.0427 Uani
O2 O 0.2771(3) -0.1667(2) 1.3718(12) 0.0547 Uani
C3 C 0.1836(2) 0.1443(2) 0.5550(11) 0.0427 Uani
H3 H 0.1876 0.1783 0.5159 0.0510 Uiso
O3 O 0.3155(8) -0.1288(7) 1.684(4) 0.0847 Uani
C4 C 0.1476(2) 0.1152(2) 0.4269(10) 0.0427 Uani
C5 C 0.1174(3) 0.1359(3) 0.2354(12) 0.0567 Uani
H4 H 0.1214 0.1697 0.1923 0.0680 Uiso
C6 C 0.0811(2) 0.1076(3) 0.1053(13) 0.0637 Uani
H5 H 0.0608 0.1221 -0.0218 0.0770 Uiso
C7 C 0.0758(2) 0.0566(3) 0.1706(12) 0.0737 Uani
H6 H 0.0519 0.0371 0.0849 0.0890 Uiso
C8 C 0.1057(3) 0.0349(3) 0.3609(14) 0.0590 Uani
H7 H 0.1015 0.0010 0.4024 0.0710 Uiso
C9 C 0.1424(2) 0.0635(2) 0.4921(9) 0.0437 Uani
C10 C 0.1719(2) 0.0403(3) 0.6825(11) 0.0447 Uani
H8 H 0.1677 0.0065 0.7251 0.0530 Uiso
C11 C 0.2078(3) 0.0700(2) 0.8049(14) 0.0433 Uani
C12 C 0.25748(19) 0.0132(2) 1.1039(13) 0.0486 Uani
C13 C 0.2849(3) -0.0782(3) 1.3222(14) 0.0486 Uani
C14 C 0.2775(4) 0.0108(3) 1.3520(14) 0.0486 Uani
H9 H 0.2817 0.0405 1.4453 0.0590 Uiso
C15 C 0.2914(4) -0.0341(3) 1.4662(13) 0.0486 Uani
H10 H 0.3046 -0.0350 1.6337 0.0590 Uiso
C16 C 0.2647(5) -0.0778(3) 1.0749(16) 0.0486 Uani
H11 H 0.2600 -0.1076 0.9827 0.0590 Uiso
C17 C 0.2515(4) -0.0321(3) 0.9679(13) 0.0486 Uani
H12 H 0.2383 -0.0313 0.8003 0.0590 Uiso
C18 C 0.2982(6) -0.1279(4) 1.448(2) 0.0617 Uani
Zn1E Zn 0.22720(4) 0.28584(3) 1.41481(16) 0.0358 Uani
Zn1G Zn 0.28584(3) -0.22720(4) 1.58519(16) 0.0358 Uani
O1E O 0.2789(2) 0.2473(3) 0.5854(12) 0.0477 Uani
O2F O 0.3333(2) 0.2229(3) 1.1282(12) 0.0547 Uani
O5 O 0.3503(9) 0.0976(9) 1.537(5) 0.2350 Uiso
H17 H 0.3517 0.1265 1.4662 0.2820 Uiso
H18 H 0.3673 0.0852 1.6613 0.2820 Uiso
loop_
_atom_site_aniso_label
_atom_site_aniso_U_11
_atom_site_aniso_U_22
_atom_site_aniso_U_33
_atom_site_aniso_U_23
_atom_site_aniso_U_13
_atom_site_aniso_U_12
Zn1 0.0344(5) 0.0293(4) 0.0436(4) -0.0022(4) -0.0062(4) -0.0026(9)
O1 0.043(3) 0.055(3) 0.045(2) -0.005(3) -0.001(3) 0.012(6)
N1 0.061(5) 0.030(3) 0.063(4) 0.004(3) -0.018(4) 0.001(6)
C1 0.073(7) 0.028(3) 0.077(6) -0.002(4) -0.042(6) -0.005(7)
N2 0.066(5) 0.028(3) 0.063(4) 0.000(3) -0.029(4) -0.011(6)
C2 0.038(4) 0.033(3) 0.057(4) 0.004(4) -0.005(4) -0.002(6)
O2 0.075(5) 0.031(3) 0.058(3) 0.009(3) -0.011(4) 0.003(6)
C3 0.041(4) 0.029(3) 0.058(4) 0.012(4) -0.001(3) -0.013(6)
O3 0.095(9) 0.061(5) 0.098(8) 0.014(8) -0.056(8) 0.014(9)
C4 0.042(4) 0.035(3) 0.051(4) 0.002(4) -0.011(4) -0.006(7)
C5 0.056(6) 0.047(4) 0.067(5) -0.004(4) -0.018(5) 0.009(8)
C6 0.049(5) 0.069(5) 0.073(5) -0.005(6) -0.033(5) 0.021(9)
C7 0.080(8) 0.057(5) 0.084(7) -0.023(5) -0.039(6) 0.005(9)
C8 0.057(6) 0.045(4) 0.075(6) -0.016(4) -0.024(5) -0.002(7)
C9 0.040(5) 0.034(4) 0.057(4) -0.003(3) -0.009(3) -0.002(7)
C10 0.041(4) 0.035(4) 0.058(4) -0.001(4) -0.011(4) -0.002(6)
C11 0.045(5) 0.036(4) 0.049(4) -0.002(3) -0.005(3) 0.000(6)
C12 0.052(3) 0.0347(17) 0.059(2) 0.0013(19) -0.020(2) -0.001(4)
C13 0.052(3) 0.0347(17) 0.059(2) 0.0013(19) -0.020(2) -0.001(4)
C14 0.052(3) 0.0347(17) 0.059(2) 0.0013(19) -0.020(2) -0.001(4)
C15 0.052(3) 0.0347(17) 0.059(2) 0.0013(19) -0.020(2) -0.001(4)
C16 0.052(3) 0.0347(17) 0.059(2) 0.0013(19) -0.020(2) -0.001(4)
C17 0.052(3) 0.0347(17) 0.059(2) 0.0013(19) -0.020(2) -0.001(4)
C18 0.079(7) 0.037(4) 0.069(5) 0.009(4) -0.027(6) 0.002(7)
Zn1E 0.0344 0.0293 0.0436 0.0022 0.0062 -0.0026
Zn1G 0.0293 0.0344 0.0436 0.0062 -0.0022 0.0026
O1E 0.043 0.055 0.045 0.005 0.001 0.012
O2F 0.031 0.075 0.058 -0.011 -0.009 -0.003
loop_
_geom_bond_atom_site_label_1
_geom_bond_atom_site_label_2
_geom_bond_site_symmetry_1
_geom_bond_site_symmetry_2
Zn1 O1 1_555 1_555
O1 H1 1_555 1_555
N1 Zn1 1_555 1_555
C1 N1 1_555 1_555
H2 C1 1_555 1_555
N2 C1 1_555 1_555
C2 N1 1_555 1_555
O2 C18 1_555 1_555
C3 C2 1_555 1_555
H3 C3 1_555 1_555
O3 C18 1_555 1_555
C4 C3 1_555 1_555
C5 C4 1_555 1_555
H4 C5 1_555 1_555
C6 C5 1_555 1_555
H5 C6 1_555 1_555
C7 C6 1_555 1_555
H6 C7 1_555 1_555
C8 C7 1_555 1_555
H7 C8 1_555 1_555
C9 C4 1_555 1_555
C10 C9 1_555 1_555
H8 C10 1_555 1_555
C11 N2 1_555 1_555
C12 N2 1_555 1_555
C13 C15 1_555 1_555
C14 C12 1_555 1_555
H9 C14 1_555 1_555
C15 C14 1_555 1_555
H10 C15 1_555 1_555
C16 C13 1_555 1_555
H11 C16 1_555 1_555
C17 C12 1_555 1_555
H12 C17 1_555 1_555
C18 C13 1_555 1_555
O5 H17 1_555 1_555
H18 O5 1_555 1_555
Zn1E O1 1_555 1_555
Zn1G O2 1_555 1_555
O1E Zn1 1_555 1_555
O2F Zn1 1_555 1_555
C2 C11 1_555 1_555
C8 C9 1_555 1_555
C10 C11 1_555 1_555
C16 C17 1_555 1_555

#END
