
#######################################################################
#
#                 Cambridge Crystallographic Data Centre
#                                CCDC 
#
#######################################################################
#
# If this CIF has been generated from an entry in the Cambridge 
# Structural Database, then it will include bibliographic, chemical, 
# crystal, experimental, refinement or atomic coordinate data resulting 
# from the CCDC's data processing and validation procedures.
#
#######################################################################

data_FUVDEH07
_chemical_formula_moiety         '(C18 H14 N2 O4 Zn1)n'
_symmetry_cell_setting           tetragonal
_symmetry_space_group_name_H-M   'I -4'
_symmetry_Int_Tables_number      82
_space_group_name_Hall           'I -4'
loop_
_symmetry_equiv_pos_site_id
_symmetry_equiv_pos_as_xyz
1 x,y,z
2 -x,-y,z
3 y,-x,-z
4 -y,x,-z
5 1/2+x,1/2+y,1/2+z
6 1/2-x,1/2-y,1/2+z
7 1/2+y,1/2-x,1/2-z
8 1/2-y,1/2+x,1/2-z
_cell_length_a                   27.8114(12)
_cell_length_b                   27.8114(12)
_cell_length_c                   3.6899(4)
_cell_angle_alpha                90
_cell_angle_beta                 90
_cell_angle_gamma                90
_cell_volume                     2854.04
loop_
_atom_site_label
_atom_site_type_symbol
_atom_site_fract_x
_atom_site_fract_y
_atom_site_fract_z
Zn1 Zn 0.28362(8) 0.21399(7) 0.8644(5)
N1 N 0.2599(5) 0.1450(4) 0.804(2)
C1 C 0.2801(4) 0.1080(3) 0.958(2)
H1 H 0.3100 0.1094 1.0717
N2 N 0.2533(3) 0.0673(3) 0.938(2)
C2 C 0.2145(3) 0.1292(4) 0.6621(16)
O1 O 0.2762(5) -0.1413(5) 1.600(3)
C3 C 0.1783(3) 0.1527(4) 0.476(2)
H2 H 0.1811 0.1852 0.4203
O2 O 0.3420(6) -0.1340(9) 1.283(7)
C4 C 0.1379(3) 0.1269(4) 0.374(2)
C5 C 0.1012(3) 0.1490(4) 0.184(2)
H3 H 0.1041 0.1814 0.1257
C6 C 0.0601(3) 0.1244(5) 0.077(2)
H4 H 0.0355 0.1396 -0.0497
C7 C 0.0577(3) 0.0759(5) 0.170(2)
H5 H 0.0307 0.0582 0.1037
C8 C 0.0945(3) 0.0534(5) 0.359(2)
H6 H 0.0918 0.0209 0.4140
C9 C 0.1355(2) 0.0786(4) 0.4667(18)
C10 C 0.1714(3) 0.0545(4) 0.652(2)
H7 H 0.1688 0.0219 0.7043
C11 C 0.2115(3) 0.0807(4) 0.758(3)
C12 C 0.2451(5) -0.0554(3) 1.305(2)
H8 H 0.2217 -0.0767 1.3872
C13 C 0.2932(5) -0.0689(3) 1.306(3)
C14 C 0.3281(4) -0.0370(5) 1.184(4)
H9 H 0.3603 -0.0461 1.1842
C15 C 0.3150(4) 0.0084(4) 1.061(3)
H10 H 0.3383 0.0297 0.9793
C16 C 0.2668(4) 0.0219(3) 1.0605(15)
C17 C 0.2319(4) -0.0100(4) 1.183(2)
H11 H 0.1997 -0.0009 1.1823
C18 C 0.3026(7) -0.1192(4) 1.446(4)
O3 O 0.2857(4) 0.2466(4) 0.381(3)
H12 H 0.3085 0.2345 0.2582
Zn1_2 Zn 0.28362(8) 0.21399(7) -0.1356(5)
Zn1G Zn 0.28601(7) -0.21638(8) 1.6356(5)
O1F O 0.3587(5) 0.2238(5) 0.900(3)
O3_2 O 0.2857(4) 0.2466(4) 1.381(3)
O4 O 0.4227(15) -0.1105(13) 0.882(9)
H13 H 0.4000 -0.1280 0.9628
H14 H 0.4218 -0.0850 0.7559
loop_
_geom_bond_atom_site_label_1
_geom_bond_atom_site_label_2
_geom_bond_site_symmetry_1
_geom_bond_site_symmetry_2
Zn1 N1 1_555 1_555
N1 C1 1_555 1_555
C1 H1 1_555 1_555
N2 C1 1_555 1_555
C2 N1 1_555 1_555
O1 C18 1_555 1_555
C3 C2 1_555 1_555
H2 C3 1_555 1_555
O2 C18 1_555 1_555
C4 C3 1_555 1_555
C5 C4 1_555 1_555
H3 C5 1_555 1_555
C6 C5 1_555 1_555
H4 C6 1_555 1_555
C7 C6 1_555 1_555
H5 C7 1_555 1_555
C8 C7 1_555 1_555
H6 C8 1_555 1_555
C9 C4 1_555 1_555
C10 C9 1_555 1_555
H7 C10 1_555 1_555
C11 N2 1_555 1_555
C12 H8 1_555 1_555
C13 C12 1_555 1_555
C14 C13 1_555 1_555
H9 C14 1_555 1_555
C15 C14 1_555 1_555
H10 C15 1_555 1_555
C16 N2 1_555 1_555
C17 C12 1_555 1_555
H11 C17 1_555 1_555
C18 C13 1_555 1_555
O3 Zn1 1_555 1_555
H12 O3 1_555 1_555
O4 H13 1_555 1_555
H14 O4 1_555 1_555
Zn1_2 O3 1_555 1_555
Zn1G O1 1_555 1_555
O1F Zn1 1_555 1_555
O3_2 Zn1 1_555 1_555
C2 C11 1_555 1_555
C8 C9 1_555 1_555
C10 C11 1_555 1_555
C15 C16 1_555 1_555
C16 C17 1_555 1_555

#END
