
#######################################################################
#
#                 Cambridge Crystallographic Data Centre
#                                CCDC 
#
#######################################################################
#
# If this CIF has been generated from an entry in the Cambridge 
# Structural Database, then it will include bibliographic, chemical, 
# crystal, experimental, refinement or atomic coordinate data resulting 
# from the CCDC's data processing and validation procedures.
#
#######################################################################

data_FUVDEH
_chemical_formula_moiety         '(C18 H14 N2 O4 Zn1)n'
_symmetry_cell_setting           tetragonal
_symmetry_space_group_name_H-M   'I -4'
_symmetry_Int_Tables_number      82
_space_group_name_Hall           'I -4'
loop_
_symmetry_equiv_pos_site_id
_symmetry_equiv_pos_as_xyz
1 x,y,z
2 -x,-y,z
3 y,-x,-z
4 -y,x,-z
5 1/2+x,1/2+y,1/2+z
6 1/2-x,1/2-y,1/2+z
7 1/2+y,1/2-x,1/2-z
8 1/2-y,1/2+x,1/2-z
_cell_length_a                   26.633(4)
_cell_length_b                   26.633(4)
_cell_length_c                   5.1305(4)
_cell_angle_alpha                90
_cell_angle_beta                 90
_cell_angle_gamma                90
_cell_volume                     3639.15
loop_
_atom_site_label
_atom_site_type_symbol
_atom_site_fract_x
_atom_site_fract_y
_atom_site_fract_z
_atom_site_U_iso_or_equiv
_atom_site_thermal_displace_type
Zn1 Zn 0.27287(8) 0.21413(6) 0.9149(3) 0.0510 Uani
O1 O 0.2211(5) 0.2533(4) 1.088(2) 0.0607 Uani
H1 H 0.2004 0.2643 0.9756 0.0730 Uiso
N1 N 0.2541(6) 0.1425(4) 0.901(2) 0.0697 Uani
C1 C 0.2680(5) 0.1041(3) 1.042(2) 0.0800 Uani
H2 H 0.2933 0.1066 1.1661 0.0960 Uiso
N2 N 0.2433(4) 0.0604(4) 0.9969(17) 0.0783 Uani
C2 C 0.2140(3) 0.1218(4) 0.7387(15) 0.0647 Uani
O2 O 0.2763(6) -0.1672(4) 1.370(2) 0.0680 Uani
C3 C 0.1844(4) 0.1435(4) 0.5485(16) 0.0577 Uani
H3 H 0.1882 0.1772 0.5054 0.0690 Uiso
O3 O 0.3209(11) -0.1306(10) 1.665(4) 0.0967 Uani
C4 C 0.1489(3) 0.1142(4) 0.4234(14) 0.0540 Uani
C5 C 0.1195(4) 0.1365(5) 0.2338(17) 0.0727 Uani
H4 H 0.1243 0.1703 0.1950 0.0870 Uiso
C6 C 0.0828(3) 0.1094(6) 0.0990(19) 0.0920 Uani
H5 H 0.0630 0.1243 -0.0287 0.1100 Uiso
C7 C 0.0774(4) 0.0588(6) 0.1659(18) 0.0790 Uani
H6 H 0.0533 0.0396 0.0803 0.0950 Uiso
C8 C 0.1070(4) 0.0365(5) 0.357(2) 0.0753 Uani
H7 H 0.1023 0.0027 0.3972 0.0900 Uiso
C9 C 0.1435(3) 0.0637(4) 0.4899(13) 0.0450 Uani
C10 C 0.1729(4) 0.0411(5) 0.6815(17) 0.0537 Uani
H8 H 0.1690 0.0074 0.7255 0.0640 Uiso
C11 C 0.2085(3) 0.0713(4) 0.8035(14) 0.0603 Uani
C12 C 0.2581(4) 0.0126(4) 1.103(2) 0.0630 Uani
C13 C 0.2868(6) -0.0770(4) 1.321(3) 0.0687 Uani
C14 C 0.2786(7) 0.0110(3) 1.351(2) 0.0630 Uani
H9 H 0.2825 0.0409 1.4431 0.0760 Uiso
C15 C 0.2932(7) -0.0333(4) 1.464(2) 0.0630 Uani
H10 H 0.3069 -0.0340 1.6312 0.0760 Uiso
C16 C 0.2667(8) -0.0775(4) 1.074(3) 0.0630 Uani
H11 H 0.2629 -0.1073 0.9826 0.0760 Uiso
C17 C 0.2525(7) -0.0321(5) 0.968(2) 0.0630 Uani
H12 H 0.2387 -0.0315 0.8014 0.0760 Uiso
C18 C 0.2991(8) -0.1281(5) 1.436(5) 0.1100 Uani
Zn1E Zn 0.22713(8) 0.28587(6) 1.4149(3) 0.0510 Uani
Zn1G Zn 0.28587(6) -0.22713(8) 1.5851(3) 0.0510 Uani
O1E O 0.2789(5) 0.2467(4) 0.588(2) 0.0607 Uani
O2F O 0.3328(4) 0.2237(6) 1.130(2) 0.0680 Uani
O5 O 0.342(3) 0.096(3) 1.581(13) 0.4900 Uiso
H17 H 0.3376 0.1095 1.7281 0.5840 Uiso
H18 H 0.3629 0.1136 1.4955 0.5840 Uiso
loop_
_atom_site_aniso_label
_atom_site_aniso_U_11
_atom_site_aniso_U_22
_atom_site_aniso_U_33
_atom_site_aniso_U_23
_atom_site_aniso_U_13
_atom_site_aniso_U_12
Zn1 0.0472(11) 0.0411(9) 0.0648(9) -0.0038(7) -0.0039(8) -0.002(3)
O1 0.071(6) 0.056(5) 0.055(4) -0.004(5) 0.005(5) 0.002(10)
N1 0.090(13) 0.047(5) 0.072(6) -0.004(5) -0.012(8) -0.004(9)
C1 0.087(14) 0.031(5) 0.122(12) -0.018(7) -0.061(11) 0.010(12)
N2 0.120(14) 0.037(4) 0.078(7) -0.006(5) -0.062(9) -0.011(9)
C2 0.076(13) 0.045(6) 0.073(8) -0.004(7) -0.019(7) 0.006(10)
O2 0.080(8) 0.040(4) 0.084(6) 0.002(5) -0.021(7) 0.023(10)
C3 0.066(9) 0.053(7) 0.054(6) 0.010(7) 0.009(6) -0.011(12)
O3 0.109(9) 0.079(8) 0.102(8) 0.008(8) -0.042(8) 0.004(9)
C4 0.061(8) 0.054(6) 0.047(6) 0.000(6) 0.008(5) 0.004(12)
C5 0.048(8) 0.073(10) 0.097(10) -0.002(10) -0.008(7) 0.034(15)
C6 0.098(14) 0.091(10) 0.087(9) 0.002(10) -0.033(10) 0.026(16)
C7 0.059(10) 0.081(9) 0.097(10) -0.028(9) -0.033(9) 0.033(17)
C8 0.054(9) 0.058(8) 0.114(11) -0.032(9) -0.045(9) 0.028(13)
C9 0.037(7) 0.041(6) 0.057(6) -0.009(5) -0.002(5) 0.008(10)
C10 0.034(6) 0.039(6) 0.088(9) -0.014(7) -0.021(6) 0.022(10)
C11 0.044(8) 0.053(7) 0.084(9) 0.009(8) -0.017(6) -0.008(11)
C12 0.063(5) 0.052(3) 0.074(4) 0.003(4) -0.016(4) -0.002(6)
C13 0.057(7) 0.048(5) 0.101(10) 0.000(6) -0.038(9) -0.014(9)
C14 0.063(5) 0.052(3) 0.074(4) 0.003(4) -0.016(4) -0.002(6)
C15 0.063(5) 0.052(3) 0.074(4) 0.003(4) -0.016(4) -0.002(6)
C16 0.063(5) 0.052(3) 0.074(4) 0.003(4) -0.016(4) -0.002(6)
C17 0.063(5) 0.052(3) 0.074(4) 0.003(4) -0.016(4) -0.002(6)
C18 0.125(12) 0.053(6) 0.152(15) 0.020(9) -0.102(15) -0.007(11)
Zn1E 0.0472 0.0411 0.0648 0.0038 0.0039 -0.002
Zn1G 0.0411 0.0472 0.0648 0.0039 -0.0038 0.002
O1E 0.071 0.056 0.055 0.004 -0.005 0.002
O2F 0.04 0.08 0.084 -0.021 -0.002 -0.023
loop_
_geom_bond_atom_site_label_1
_geom_bond_atom_site_label_2
_geom_bond_site_symmetry_1
_geom_bond_site_symmetry_2
Zn1 O1 1_555 1_555
O1 H1 1_555 1_555
N1 Zn1 1_555 1_555
C1 N1 1_555 1_555
H2 C1 1_555 1_555
N2 C1 1_555 1_555
C2 N1 1_555 1_555
O2 C18 1_555 1_555
C3 C2 1_555 1_555
H3 C3 1_555 1_555
O3 C18 1_555 1_555
C4 C3 1_555 1_555
C5 C4 1_555 1_555
H4 C5 1_555 1_555
C6 C5 1_555 1_555
H5 C6 1_555 1_555
C7 C6 1_555 1_555
H6 C7 1_555 1_555
C8 C7 1_555 1_555
H7 C8 1_555 1_555
C9 C4 1_555 1_555
C10 C9 1_555 1_555
H8 C10 1_555 1_555
C11 N2 1_555 1_555
C12 N2 1_555 1_555
C13 C15 1_555 1_555
C14 C12 1_555 1_555
H9 C14 1_555 1_555
C15 C14 1_555 1_555
H10 C15 1_555 1_555
C16 C13 1_555 1_555
H11 C16 1_555 1_555
C17 C12 1_555 1_555
H12 C17 1_555 1_555
C18 C13 1_555 1_555
O5 H17 1_555 1_555
H18 O5 1_555 1_555
Zn1E O1 1_555 1_555
Zn1G O2 1_555 1_555
O1E Zn1 1_555 1_555
O2F Zn1 1_555 1_555
C2 C11 1_555 1_555
C8 C9 1_555 1_555
C10 C11 1_555 1_555
C16 C17 1_555 1_555

#END
