
#######################################################################
#
#                 Cambridge Crystallographic Data Centre
#                                CCDC 
#
#######################################################################
#
# If this CIF has been generated from an entry in the Cambridge 
# Structural Database, then it will include bibliographic, chemical, 
# crystal, experimental, refinement or atomic coordinate data resulting 
# from the CCDC's data processing and validation procedures.
#
#######################################################################

data_FUVFUZ
_chemical_formula_moiety         '(C18 H14 N2 O4 Zn1)n'
_symmetry_cell_setting           tetragonal
_symmetry_space_group_name_H-M   'I -4'
_symmetry_Int_Tables_number      82
_space_group_name_Hall           'I -4'
loop_
_symmetry_equiv_pos_site_id
_symmetry_equiv_pos_as_xyz
1 x,y,z
2 -x,-y,z
3 y,-x,-z
4 -y,x,-z
5 1/2+x,1/2+y,1/2+z
6 1/2-x,1/2-y,1/2+z
7 1/2+y,1/2-x,1/2-z
8 1/2-y,1/2+x,1/2-z
_cell_length_a                   27.7529(12)
_cell_length_b                   27.7529(12)
_cell_length_c                   3.6022(3)
_cell_angle_alpha                90
_cell_angle_beta                 90
_cell_angle_gamma                90
_cell_volume                     2774.5
loop_
_atom_site_label
_atom_site_type_symbol
_atom_site_fract_x
_atom_site_fract_y
_atom_site_fract_z
Zn1 Zn 0.28445(8) 0.21407(7) 0.8519(5)
N1 N 0.2589(5) 0.1451(5) 0.788(3)
C1 C 0.2810(5) 0.1090(4) 0.946(3)
H1 H 0.3112 0.1111 1.0561
N2 N 0.2543(3) 0.0680(4) 0.929(3)
C2 C 0.2149(3) 0.1298(4) 0.655(2)
O1 O 0.2735(6) -0.1415(5) 1.601(4)
C3 C 0.1782(4) 0.1532(4) 0.469(3)
H2 H 0.1807 0.1857 0.4100
O2 O 0.3383(7) -0.1384(9) 1.259(7)
C4 C 0.1374(3) 0.1270(4) 0.373(2)
C5 C 0.0999(4) 0.1488(4) 0.185(3)
H3 H 0.1023 0.1813 0.1254
C6 C 0.0587(3) 0.1237(5) 0.081(3)
H4 H 0.0338 0.1389 -0.0457
C7 C 0.0561(3) 0.0751(5) 0.175(2)
H5 H 0.0289 0.0575 0.1100
C8 C 0.0934(3) 0.0526(5) 0.363(3)
H6 H 0.0908 0.0200 0.4223
C9 C 0.1348(3) 0.0781(4) 0.466(2)
C10 C 0.1716(3) 0.0542(4) 0.652(3)
H7 H 0.1688 0.0219 0.7166
C11 C 0.2127(3) 0.0805(4) 0.737(3)
C12 C 0.2451(5) -0.0551(4) 1.309(3)
H8 H 0.2215 -0.0762 1.3946
C13 C 0.2932(5) -0.0689(3) 1.313(4)
C14 C 0.3285(4) -0.0373(5) 1.185(4)
H9 H 0.3607 -0.0466 1.1875
C15 C 0.3155(5) 0.0080(4) 1.055(4)
H10 H 0.3391 0.0291 0.9694
C16 C 0.2674(5) 0.0218(3) 1.051(3)
C17 C 0.2322(4) -0.0098(4) 1.179(3)
H11 H 0.1999 -0.0006 1.1765
C18 C 0.3013(9) -0.1203(5) 1.440(7)
O3 O 0.2847(5) 0.2461(4) 0.361(3)
H12 H 0.3077 0.2339 0.2371
Zn1_2 Zn 0.28445(8) 0.21407(7) -0.1481(5)
Zn1G Zn 0.28593(7) -0.21555(8) 1.6481(5)
O1F O 0.3585(5) 0.2265(6) 0.899(4)
O3_2 O 0.2847(5) 0.2461(4) 1.361(3)
O4 O 0.4245(19) -0.1124(17) 0.915(14)
H13 H 0.4018 -0.1300 0.9960
H14 H 0.4227 -0.0886 0.7674
loop_
_geom_bond_atom_site_label_1
_geom_bond_atom_site_label_2
_geom_bond_site_symmetry_1
_geom_bond_site_symmetry_2
Zn1 N1 1_555 1_555
N1 C1 1_555 1_555
C1 H1 1_555 1_555
N2 C1 1_555 1_555
C2 N1 1_555 1_555
O1 C18 1_555 1_555
C3 C2 1_555 1_555
H2 C3 1_555 1_555
O2 C18 1_555 1_555
C4 C3 1_555 1_555
C5 C4 1_555 1_555
H3 C5 1_555 1_555
C6 C5 1_555 1_555
H4 C6 1_555 1_555
C7 C6 1_555 1_555
H5 C7 1_555 1_555
C8 C7 1_555 1_555
H6 C8 1_555 1_555
C9 C4 1_555 1_555
C10 C9 1_555 1_555
H7 C10 1_555 1_555
C11 N2 1_555 1_555
C12 H8 1_555 1_555
C13 C12 1_555 1_555
C14 C13 1_555 1_555
H9 C14 1_555 1_555
C15 C14 1_555 1_555
H10 C15 1_555 1_555
C16 N2 1_555 1_555
C17 C12 1_555 1_555
H11 C17 1_555 1_555
C18 C13 1_555 1_555
O3 Zn1 1_555 1_555
H12 O3 1_555 1_555
O4 H13 1_555 1_555
H14 O4 1_555 1_555
Zn1_2 O3 1_555 1_555
Zn1G O1 1_555 1_555
O1F Zn1 1_555 1_555
O3_2 Zn1 1_555 1_555
C2 C11 1_555 1_555
C8 C9 1_555 1_555
C10 C11 1_555 1_555
C15 C16 1_555 1_555
C16 C17 1_555 1_555

#END
