
#######################################################################
#
#                 Cambridge Crystallographic Data Centre
#                                CCDC 
#
#######################################################################
#
# If this CIF has been generated from an entry in the Cambridge 
# Structural Database, then it will include bibliographic, chemical, 
# crystal, experimental, refinement or atomic coordinate data resulting 
# from the CCDC's data processing and validation procedures.
#
#######################################################################

data_FUVGAG02
_chemical_formula_moiety         '(C18 H14 N2 O4 Zn1)n'
_symmetry_cell_setting           tetragonal
_symmetry_space_group_name_H-M   'I -4'
_symmetry_Int_Tables_number      82
_space_group_name_Hall           'I -4'
loop_
_symmetry_equiv_pos_site_id
_symmetry_equiv_pos_as_xyz
1 x,y,z
2 -x,-y,z
3 y,-x,-z
4 -y,x,-z
5 1/2+x,1/2+y,1/2+z
6 1/2-x,1/2-y,1/2+z
7 1/2+y,1/2-x,1/2-z
8 1/2-y,1/2+x,1/2-z
_cell_length_a                   27.6968(14)
_cell_length_b                   27.6968(14)
_cell_length_c                   3.5351(3)
_cell_angle_alpha                90
_cell_angle_beta                 90
_cell_angle_gamma                90
_cell_volume                     2711.82
loop_
_atom_site_label
_atom_site_type_symbol
_atom_site_fract_x
_atom_site_fract_y
_atom_site_fract_z
Zn1 Zn 0.28507(7) 0.21393(6) 0.8394(4)
N1 N 0.2607(5) 0.1453(4) 0.769(2)
C1 C 0.2815(4) 0.1081(3) 0.927(2)
H1 H 0.3119 0.1095 1.0369
N2 N 0.2545(3) 0.0672(3) 0.915(2)
C2 C 0.2154(2) 0.1288(4) 0.6387(16)
O1 O 0.2727(5) -0.1418(4) 1.624(4)
C3 C 0.1791(3) 0.1534(3) 0.452(2)
H2 H 0.1825 0.1859 0.3927
O2 O 0.3405(6) -0.1412(6) 1.310(6)
C4 C 0.1375(3) 0.1284(4) 0.354(2)
C5 C 0.0996(3) 0.1503(4) 0.166(2)
H3 H 0.1019 0.1828 0.1044
C6 C 0.0580(3) 0.1250(4) 0.066(2)
H4 H 0.0331 0.1403 -0.0633
C7 C 0.0546(2) 0.0765(4) 0.164(2)
H5 H 0.0269 0.0591 0.1034
C8 C 0.0923(3) 0.0537(4) 0.353(2)
H6 H 0.0898 0.0212 0.4149
C9 C 0.1341(2) 0.0795(4) 0.4512(18)
C10 C 0.1703(3) 0.0543(4) 0.637(2)
H7 H 0.1670 0.0217 0.6954
C11 C 0.2118(3) 0.0799(4) 0.733(3)
C12 C 0.2459(4) -0.0540(3) 1.311(3)
H8 H 0.2223 -0.0751 1.3995
C13 C 0.2942(4) -0.0677(3) 1.314(3)
C14 C 0.3294(3) -0.0362(4) 1.182(4)
H9 H 0.3617 -0.0454 1.1841
C15 C 0.3163(3) 0.0092(3) 1.048(3)
H10 H 0.3399 0.0303 0.9599
C16 C 0.2680(4) 0.0229(2) 1.0454(15)
C17 C 0.2328(3) -0.0087(3) 1.177(2)
H11 H 0.2005 0.0005 1.1753
C18 C 0.3022(6) -0.1194(4) 1.445(6)
O3 O 0.2861(4) 0.2489(4) 0.354(3)
H12 H 0.3093 0.2366 0.2294
Zn1_2 Zn 0.28507(7) 0.21393(6) -0.1606(4)
Zn1G Zn 0.28607(6) -0.21493(7) 1.6606(4)
O1F O 0.3582(4) 0.2273(5) 0.876(4)
O3_2 O 0.2861(4) 0.2489(4) 1.354(3)
O4 O 0.4172(9) -0.1142(9) 0.915(6)
H13 H 0.3943 -0.1319 0.9957
H14 H 0.4194 -0.0899 0.7694
loop_
_geom_bond_atom_site_label_1
_geom_bond_atom_site_label_2
_geom_bond_site_symmetry_1
_geom_bond_site_symmetry_2
Zn1 N1 1_555 1_555
N1 C1 1_555 1_555
C1 H1 1_555 1_555
N2 C1 1_555 1_555
C2 N1 1_555 1_555
O1 C18 1_555 1_555
C3 C2 1_555 1_555
H2 C3 1_555 1_555
O2 C18 1_555 1_555
C4 C3 1_555 1_555
C5 C4 1_555 1_555
H3 C5 1_555 1_555
C6 C5 1_555 1_555
H4 C6 1_555 1_555
C7 C6 1_555 1_555
H5 C7 1_555 1_555
C8 C7 1_555 1_555
H6 C8 1_555 1_555
C9 C4 1_555 1_555
C10 C9 1_555 1_555
H7 C10 1_555 1_555
C11 N2 1_555 1_555
C12 H8 1_555 1_555
C13 C12 1_555 1_555
C14 C13 1_555 1_555
H9 C14 1_555 1_555
C15 C14 1_555 1_555
H10 C15 1_555 1_555
C16 N2 1_555 1_555
C17 C12 1_555 1_555
H11 C17 1_555 1_555
C18 C13 1_555 1_555
O3 Zn1 1_555 1_555
H12 O3 1_555 1_555
O4 H13 1_555 1_555
H14 O4 1_555 1_555
Zn1_2 O3 1_555 1_555
Zn1G O1 1_555 1_555
O1F Zn1 1_555 1_555
O3_2 Zn1 1_555 1_555
C2 C11 1_555 1_555
C8 C9 1_555 1_555
C10 C11 1_555 1_555
C15 C16 1_555 1_555
C16 C17 1_555 1_555

#END
