
#######################################################################
#
#                 Cambridge Crystallographic Data Centre
#                                CCDC 
#
#######################################################################
#
# If this CIF has been generated from an entry in the Cambridge 
# Structural Database, then it will include bibliographic, chemical, 
# crystal, experimental, refinement or atomic coordinate data resulting 
# from the CCDC's data processing and validation procedures.
#
#######################################################################

data_FUVGAG01
_chemical_formula_moiety         '(C18 H14 N2 O4 Zn1)n'
_symmetry_cell_setting           tetragonal
_symmetry_space_group_name_H-M   'I -4'
_symmetry_Int_Tables_number      82
_space_group_name_Hall           'I -4'
loop_
_symmetry_equiv_pos_site_id
_symmetry_equiv_pos_as_xyz
1 x,y,z
2 -x,-y,z
3 y,-x,-z
4 -y,x,-z
5 1/2+x,1/2+y,1/2+z
6 1/2-x,1/2-y,1/2+z
7 1/2+y,1/2-x,1/2-z
8 1/2-y,1/2+x,1/2-z
_cell_length_a                   27.6922(13)
_cell_length_b                   27.6922(13)
_cell_length_c                   3.5492(3)
_cell_angle_alpha                90
_cell_angle_beta                 90
_cell_angle_gamma                90
_cell_volume                     2721.73
loop_
_atom_site_label
_atom_site_type_symbol
_atom_site_fract_x
_atom_site_fract_y
_atom_site_fract_z
Zn1 Zn 0.28489(7) 0.21388(5) 0.8424(4)
N1 N 0.2600(4) 0.1464(3) 0.774(2)
C1 C 0.2803(4) 0.1088(3) 0.9295(19)
H1 H 0.3106 0.1103 1.0414
N2 N 0.2541(2) 0.0673(3) 0.9171(19)
C2 C 0.2153(2) 0.1294(3) 0.6445(15)
O1 O 0.2721(4) -0.1416(4) 1.623(3)
C3 C 0.1787(3) 0.1534(3) 0.458(2)
H2 H 0.1817 0.1860 0.3992
O2 O 0.3386(5) -0.1411(8) 1.294(6)
C4 C 0.1375(2) 0.1281(3) 0.3611(19)
C5 C 0.0996(3) 0.1497(4) 0.170(2)
H3 H 0.1019 0.1822 0.1079
C6 C 0.0583(3) 0.1245(4) 0.069(2)
H4 H 0.0334 0.1398 -0.0595
C7 C 0.0548(2) 0.0760(4) 0.163(2)
H5 H 0.0272 0.0586 0.0998
C8 C 0.0924(3) 0.0536(4) 0.352(2)
H6 H 0.0900 0.0210 0.4118
C9 C 0.1340(2) 0.0792(3) 0.4534(18)
C10 C 0.1706(3) 0.0547(4) 0.640(2)
H7 H 0.1677 0.0221 0.6986
C11 C 0.2116(3) 0.0805(4) 0.736(3)
C12 C 0.2450(4) -0.0545(3) 1.309(2)
H8 H 0.2211 -0.0753 1.3955
C13 C 0.2931(4) -0.0689(3) 1.310(3)
C14 C 0.3287(3) -0.0377(4) 1.180(3)
H9 H 0.3609 -0.0474 1.1816
C15 C 0.3163(3) 0.0079(3) 1.049(3)
H10 H 0.3401 0.0288 0.9620
C16 C 0.2682(3) 0.0223(2) 1.047(2)
C17 C 0.2325(3) -0.0088(3) 1.177(2)
H11 H 0.2004 0.0008 1.1759
C18 C 0.3012(6) -0.1200(4) 1.451(6)
O3 O 0.2861(4) 0.2476(3) 0.355(3)
H12 H 0.3092 0.2353 0.2304
Zn1_2 Zn 0.28489(7) 0.21388(5) -0.1576(4)
Zn1G Zn 0.28612(5) -0.21511(7) 1.6576(4)
O1F O 0.3584(4) 0.2279(4) 0.877(3)
O3_2 O 0.2861(4) 0.2476(3) 1.355(3)
O4 O 0.4204(8) -0.1136(8) 0.911(5)
H13 H 0.3975 -0.1312 0.9923
H14 H 0.4226 -0.0893 0.7661
loop_
_geom_bond_atom_site_label_1
_geom_bond_atom_site_label_2
_geom_bond_site_symmetry_1
_geom_bond_site_symmetry_2
Zn1 N1 1_555 1_555
N1 C1 1_555 1_555
C1 H1 1_555 1_555
N2 C1 1_555 1_555
C2 N1 1_555 1_555
O1 C18 1_555 1_555
C3 C2 1_555 1_555
H2 C3 1_555 1_555
O2 C18 1_555 1_555
C4 C3 1_555 1_555
C5 C4 1_555 1_555
H3 C5 1_555 1_555
C6 C5 1_555 1_555
H4 C6 1_555 1_555
C7 C6 1_555 1_555
H5 C7 1_555 1_555
C8 C7 1_555 1_555
H6 C8 1_555 1_555
C9 C4 1_555 1_555
C10 C9 1_555 1_555
H7 C10 1_555 1_555
C11 N2 1_555 1_555
C12 H8 1_555 1_555
C13 C12 1_555 1_555
C14 C13 1_555 1_555
H9 C14 1_555 1_555
C15 C14 1_555 1_555
H10 C15 1_555 1_555
C16 N2 1_555 1_555
C17 C12 1_555 1_555
H11 C17 1_555 1_555
C18 C13 1_555 1_555
O3 Zn1 1_555 1_555
H12 O3 1_555 1_555
O4 H13 1_555 1_555
H14 O4 1_555 1_555
Zn1_2 O3 1_555 1_555
Zn1G O1 1_555 1_555
O1F Zn1 1_555 1_555
O3_2 Zn1 1_555 1_555
C2 C11 1_555 1_555
C8 C9 1_555 1_555
C10 C11 1_555 1_555
C15 C16 1_555 1_555
C16 C17 1_555 1_555

#END
