
#######################################################################
#
#                 Cambridge Crystallographic Data Centre
#                                CCDC 
#
#######################################################################
#
# If this CIF has been generated from an entry in the Cambridge 
# Structural Database, then it will include bibliographic, chemical, 
# crystal, experimental, refinement or atomic coordinate data resulting 
# from the CCDC's data processing and validation procedures.
#
#######################################################################

data_FUVGAG
_chemical_formula_moiety         '(C18 H14 N2 O4 Zn1)n'
_symmetry_cell_setting           tetragonal
_symmetry_space_group_name_H-M   'I -4'
_symmetry_Int_Tables_number      82
_space_group_name_Hall           'I -4'
loop_
_symmetry_equiv_pos_site_id
_symmetry_equiv_pos_as_xyz
1 x,y,z
2 -x,-y,z
3 y,-x,-z
4 -y,x,-z
5 1/2+x,1/2+y,1/2+z
6 1/2-x,1/2-y,1/2+z
7 1/2+y,1/2-x,1/2-z
8 1/2-y,1/2+x,1/2-z
_cell_length_a                   27.7069(13)
_cell_length_b                   27.7069(13)
_cell_length_c                   3.5719(3)
_cell_angle_alpha                90
_cell_angle_beta                 90
_cell_angle_gamma                90
_cell_volume                     2742.05
loop_
_atom_site_label
_atom_site_type_symbol
_atom_site_fract_x
_atom_site_fract_y
_atom_site_fract_z
Zn1 Zn 0.28470(7) 0.21404(6) 0.8456(5)
N1 N 0.2602(5) 0.1461(4) 0.778(2)
C1 C 0.2806(5) 0.1087(3) 0.934(2)
H1 H 0.3109 0.1101 1.0453
N2 N 0.2540(3) 0.0676(3) 0.919(2)
C2 C 0.2153(3) 0.1294(4) 0.6470(17)
O1 O 0.2722(5) -0.1417(5) 1.619(4)
C3 C 0.1787(4) 0.1534(4) 0.461(2)
H2 H 0.1817 0.1860 0.4019
O2 O 0.3388(6) -0.1394(10) 1.294(7)
C4 C 0.1375(3) 0.1280(4) 0.364(2)
C5 C 0.1000(3) 0.1499(4) 0.174(3)
H3 H 0.1026 0.1824 0.1124
C6 C 0.0585(3) 0.1250(5) 0.072(2)
H4 H 0.0337 0.1405 -0.0554
C7 C 0.0550(3) 0.0764(5) 0.165(2)
H5 H 0.0275 0.0591 0.0997
C8 C 0.0923(3) 0.0538(5) 0.353(3)
H6 H 0.0896 0.0213 0.4138
C9 C 0.1341(2) 0.0790(4) 0.455(2)
C10 C 0.1707(3) 0.0550(4) 0.642(2)
H7 H 0.1680 0.0223 0.6988
C11 C 0.2113(3) 0.0807(4) 0.742(3)
C12 C 0.2446(4) -0.0544(3) 1.308(3)
H8 H 0.2208 -0.0753 1.3950
C13 C 0.2927(5) -0.0688(3) 1.309(3)
C14 C 0.3283(3) -0.0376(4) 1.180(4)
H9 H 0.3604 -0.0473 1.1807
C15 C 0.3158(3) 0.0080(4) 1.050(3)
H10 H 0.3396 0.0288 0.9634
C16 C 0.2677(4) 0.0224(3) 1.049(2)
C17 C 0.2322(3) -0.0089(4) 1.178(3)
H11 H 0.2000 0.0008 1.1777
C18 C 0.3009(8) -0.1196(4) 1.454(7)
O3 O 0.2857(4) 0.2479(4) 0.355(3)
H12 H 0.3087 0.2356 0.2298
Zn1_2 Zn 0.28470(7) 0.21404(6) -0.1544(5)
Zn1G Zn 0.28596(6) -0.21530(7) 1.6544(5)
O1F O 0.3583(5) 0.2278(5) 0.881(4)
O3_2 O 0.2857(4) 0.2479(4) 1.355(3)
O4 O 0.4206(9) -0.1125(8) 0.907(7)
H13 H 0.3978 -0.1301 0.9877
H14 H 0.4228 -0.0883 0.7620
loop_
_geom_bond_atom_site_label_1
_geom_bond_atom_site_label_2
_geom_bond_site_symmetry_1
_geom_bond_site_symmetry_2
Zn1 N1 1_555 1_555
N1 C1 1_555 1_555
C1 H1 1_555 1_555
N2 C1 1_555 1_555
C2 N1 1_555 1_555
O1 C18 1_555 1_555
C3 C2 1_555 1_555
H2 C3 1_555 1_555
O2 C18 1_555 1_555
C4 C3 1_555 1_555
C5 C4 1_555 1_555
H3 C5 1_555 1_555
C6 C5 1_555 1_555
H4 C6 1_555 1_555
C7 C6 1_555 1_555
H5 C7 1_555 1_555
C8 C7 1_555 1_555
H6 C8 1_555 1_555
C9 C4 1_555 1_555
C10 C9 1_555 1_555
H7 C10 1_555 1_555
C11 N2 1_555 1_555
C12 H8 1_555 1_555
C13 C12 1_555 1_555
C14 C13 1_555 1_555
H9 C14 1_555 1_555
C15 C14 1_555 1_555
H10 C15 1_555 1_555
C16 N2 1_555 1_555
C17 C12 1_555 1_555
H11 C17 1_555 1_555
C18 C13 1_555 1_555
O3 Zn1 1_555 1_555
H12 O3 1_555 1_555
O4 H13 1_555 1_555
H14 O4 1_555 1_555
Zn1_2 O3 1_555 1_555
Zn1G O1 1_555 1_555
O1F Zn1 1_555 1_555
O3_2 Zn1 1_555 1_555
C2 C11 1_555 1_555
C8 C9 1_555 1_555
C10 C11 1_555 1_555
C15 C16 1_555 1_555
C16 C17 1_555 1_555

#END
