
#######################################################################
#
#                 Cambridge Crystallographic Data Centre
#                                CCDC 
#
#######################################################################
#
# If this CIF has been generated from an entry in the Cambridge 
# Structural Database, then it will include bibliographic, chemical, 
# crystal, experimental, refinement or atomic coordinate data resulting 
# from the CCDC's data processing and validation procedures.
#
#######################################################################

data_IFEPUG06
_chemical_formula_moiety         '(C19 H16 N2 O4 Zn1)n'
_symmetry_cell_setting           tetragonal
_symmetry_space_group_name_H-M   'I -4'
_symmetry_Int_Tables_number      82
_space_group_name_Hall           'I -4'
loop_
_symmetry_equiv_pos_site_id
_symmetry_equiv_pos_as_xyz
1 x,y,z
2 -x,-y,z
3 y,-x,-z
4 -y,x,-z
5 1/2+x,1/2+y,1/2+z
6 1/2-x,1/2-y,1/2+z
7 1/2+y,1/2-x,1/2-z
8 1/2-y,1/2+x,1/2-z
_cell_length_a                   26.297(2)
_cell_length_b                   26.297(2)
_cell_length_c                   4.9766(7)
_cell_angle_alpha                90
_cell_angle_beta                 90
_cell_angle_gamma                90
_cell_volume                     3441.48
loop_
_atom_site_label
_atom_site_type_symbol
_atom_site_fract_x
_atom_site_fract_y
_atom_site_fract_z
_atom_site_U_iso_or_equiv
_atom_site_thermal_displace_type
Zn1 Zn 0.27160(9) 0.21545(8) 0.8824(4) 0.0603 Uani
O1 O 0.2243(5) 0.2676(6) 1.017(2) 0.0857 Uani
N1 N 0.2452(6) 0.1462(5) 0.925(3) 0.0843 Uani
O2 O 0.3376(4) 0.2286(6) 1.065(2) 0.0760 Uani
H1 H 0.2036 0.2786 0.9049 0.1030 Uiso
C1 C 0.2594(5) 0.1084(4) 1.077(3) 0.0637 Uani
C2 C 0.2069(3) 0.1236(5) 0.7648(17) 0.0547 Uani
H2 H 0.2847 0.1126 1.2055 0.0760 Uiso
N2 N 0.2361(3) 0.0627(4) 1.0433(18) 0.0670 Uani
C3 C 0.1776(4) 0.1452(4) 0.565(2) 0.0640 Uani
C4 C 0.2005(6) 0.0734(5) 0.845(3) 0.0597 Uani
C5 C 0.2504(3) 0.0156(4) 1.168(2) 0.0687 Uani
H3 H 0.1815 0.1792 0.5183 0.0770 Uiso
C6 C 0.1420(3) 0.1149(4) 0.4345(17) 0.0533 Uani
C7 C 0.1665(4) 0.0424(5) 0.7118(19) 0.0470 Uani
C8 C 0.2732(7) 0.0141(4) 1.418(3) 0.0687 Uani
C9 C 0.2411(8) -0.0296(5) 1.035(3) 0.0687 Uani
C10 C 0.1120(4) 0.1349(4) 0.232(2) 0.0593 Uani
C11 C 0.1369(3) 0.0640(4) 0.5103(16) 0.0487 Uani
H4 H 0.1634 0.0081 0.7552 0.0560 Uiso
H5 H 0.2796 0.0444 1.5080 0.0820 Uiso
C12 C 0.2868(8) -0.0312(5) 1.536(3) 0.0687 Uani
C13 C 0.2540(9) -0.0758(4) 1.146(4) 0.0687 Uani
H6 H 0.2257 -0.0288 0.8667 0.0820 Uiso
H7 H 0.1161 0.1689 0.1863 0.0710 Uiso
C14 C 0.0762(4) 0.1063(5) 0.096(2) 0.0610 Uani
C15 C 0.1008(4) 0.0350(5) 0.374(2) 0.0747 Uani
C16 C 0.2768(6) -0.0751(4) 1.394(3) 0.0687 Uani
H8 H 0.3021 -0.0322 1.7046 0.0820 Uiso
H9 H 0.2475 -0.1061 1.0570 0.0820 Uiso
H10 H 0.0563 0.1203 -0.0397 0.0730 Uiso
C17 C 0.0711(4) 0.0557(5) 0.1718(19) 0.0673 Uani
H11 H 0.0964 0.0010 0.4204 0.0890 Uiso
C18 C 0.2920(8) -0.1253(4) 1.527(3) 0.0853 Uani
H12 H 0.0474 0.0354 0.0848 0.0810 Uiso
O3 O 0.2996(9) -0.1225(9) 1.779(3) 0.0913 Uani
O1E O 0.2757(5) 0.2324(6) 0.517(2) 0.0857 Uani
Zn1E Zn 0.22840(9) 0.28455(8) 1.3824(4) 0.0603 Uani
O2G O 0.2714(6) -0.1624(4) 1.435(2) 0.0760 Uani
Zn1G Zn 0.28455(8) -0.22840(9) 1.6176(4) 0.0603 Uani
O4 O 0.3366(15) 0.1108(11) 1.563(7) 0.2390 Uiso
H13 H 0.3192 0.1234 1.6854 0.2870 Uiso
C19 C 0.3850(19) 0.128(2) 1.464(12) 0.3280 Uiso
H14 H 0.3803 0.1560 1.3430 0.4930 Uiso
H15 H 0.4013 0.1004 1.3700 0.4930 Uiso
H16 H 0.4058 0.1384 1.6119 0.4930 Uiso
loop_
_atom_site_aniso_label
_atom_site_aniso_U_11
_atom_site_aniso_U_22
_atom_site_aniso_U_33
_atom_site_aniso_U_23
_atom_site_aniso_U_13
_atom_site_aniso_U_12
Zn1 0.046(2) 0.0427(18) 0.0923(13) -0.0003(12) -0.0070(13) -0.008(2)
O1 0.077(9) 0.093(8) 0.087(6) -0.026(7) -0.013(6) 0.027(9)
N1 0.099(12) 0.061(6) 0.093(9) 0.014(7) -0.024(8) -0.030(8)
O2 0.037 0.09 0.101 -0.037 -0.028 0
C1 0.060(11) 0.041(7) 0.090(10) -0.010(8) -0.020(9) -0.003(10)
C2 0.043(10) 0.055(8) 0.066(8) -0.004(7) -0.003(6) -0.005(8)
N2 0.051(9) 0.045(6) 0.105(10) 0.002(7) -0.017(7) -0.010(8)
C3 0.059(11) 0.046(9) 0.087(11) 0.022(8) -0.009(8) -0.028(10)
C4 0.047(12) 0.036(9) 0.096(12) -0.011(9) -0.017(9) 0.004(10)
C5 0.067(9) 0.037(5) 0.102(7) -0.006(5) -0.019(7) -0.012(7)
C6 0.032(10) 0.048(9) 0.080(10) 0.010(8) -0.013(7) -0.003(9)
C7 0.048(10) 0.033(10) 0.060(9) -0.011(7) 0.002(6) 0.009(11)
C8 0.067(9) 0.037(5) 0.102(7) -0.006(5) -0.019(7) -0.012(7)
C9 0.067(9) 0.037(5) 0.102(7) -0.006(5) -0.019(7) -0.012(7)
C10 0.052(12) 0.039(11) 0.087(10) 0.005(9) -0.008(8) 0.007(12)
C11 0.043(11) 0.027(9) 0.076(10) -0.007(8) -0.013(7) 0.011(11)
C12 0.067(9) 0.037(5) 0.102(7) -0.006(5) -0.019(7) -0.012(7)
C13 0.067(9) 0.037(5) 0.102(7) -0.006(5) -0.019(7) -0.012(7)
C14 0.044(9) 0.053(9) 0.086(10) -0.021(9) -0.014(8) 0.024(11)
C15 0.075(11) 0.060(9) 0.089(9) 0.007(9) -0.022(8) -0.020(10)
C16 0.067(9) 0.037(5) 0.102(7) -0.006(5) -0.019(7) -0.012(7)
C17 0.035(13) 0.069(12) 0.098(12) -0.008(11) -0.019(9) -0.005(14)
C18 0.089(9) 0.045(7) 0.122(9) 0.001(8) -0.040(11) -0.001(10)
O3 0.090(8) 0.068(9) 0.116(8) -0.005(8) -0.022(9) 0.003(9)
O1E 0.077 0.093 0.087 0.026 0.013 0.027
Zn1E 0.046 0.0427 0.0923 0.0003 0.007 -0.008
O2G 0.090(9) 0.037(7) 0.101(8) 0.028(6) -0.037(9) 0.000(9)
Zn1G 0.0427 0.046 0.0923 0.007 -0.0003 0.008
loop_
_geom_bond_atom_site_label_1
_geom_bond_atom_site_label_2
_geom_bond_site_symmetry_1
_geom_bond_site_symmetry_2
Zn1 O1 1_555 1_555
O1 H1 1_555 1_555
N1 Zn1 1_555 1_555
O2 Zn1 1_555 1_555
C1 N1 1_555 1_555
C2 N1 1_555 1_555
H2 C1 1_555 1_555
N2 C1 1_555 1_555
C3 C2 1_555 1_555
C4 C2 1_555 1_555
C5 N2 1_555 1_555
H3 C3 1_555 1_555
C6 C3 1_555 1_555
C7 C4 1_555 1_555
C8 C5 1_555 1_555
C9 C5 1_555 1_555
C10 C6 1_555 1_555
C11 C6 1_555 1_555
H4 C7 1_555 1_555
H5 C8 1_555 1_555
C12 C8 1_555 1_555
C13 C9 1_555 1_555
H6 C9 1_555 1_555
H7 C10 1_555 1_555
C14 C10 1_555 1_555
C15 C11 1_555 1_555
C16 C12 1_555 1_555
H8 C12 1_555 1_555
H9 C13 1_555 1_555
H10 C14 1_555 1_555
C17 C14 1_555 1_555
H11 C15 1_555 1_555
C18 C16 1_555 1_555
H12 C17 1_555 1_555
O3 C18 1_555 1_555
O4 H13 1_555 1_555
C19 O4 1_555 1_555
H14 C19 1_555 1_555
H15 C19 1_555 1_555
H16 C19 1_555 1_555
O1E Zn1 1_555 1_555
Zn1E O1 1_555 1_555
O2G C18 1_555 1_555
Zn1G O2G 1_555 1_555
N2 C4 1_555 1_555
C7 C11 1_555 1_555
C13 C16 1_555 1_555
C15 C17 1_555 1_555

#END
