
#######################################################################
#
#                 Cambridge Crystallographic Data Centre
#                                CCDC 
#
#######################################################################
#
# If this CIF has been generated from an entry in the Cambridge 
# Structural Database, then it will include bibliographic, chemical, 
# crystal, experimental, refinement or atomic coordinate data resulting 
# from the CCDC's data processing and validation procedures.
#
#######################################################################

data_IFEPUG01
_chemical_formula_moiety         '(C19 H16 N2 O4 Zn1)n'
_symmetry_cell_setting           tetragonal
_symmetry_space_group_name_H-M   'I -4'
_symmetry_Int_Tables_number      82
_space_group_name_Hall           'I -4'
loop_
_symmetry_equiv_pos_site_id
_symmetry_equiv_pos_as_xyz
1 x,y,z
2 -x,-y,z
3 y,-x,-z
4 -y,x,-z
5 1/2+x,1/2+y,1/2+z
6 1/2-x,1/2-y,1/2+z
7 1/2+y,1/2-x,1/2-z
8 1/2-y,1/2+x,1/2-z
_cell_length_a                   26.533(2)
_cell_length_b                   26.533(2)
_cell_length_c                   4.5396(9)
_cell_angle_alpha                90
_cell_angle_beta                 90
_cell_angle_gamma                90
_cell_volume                     3195.88
loop_
_atom_site_label
_atom_site_type_symbol
_atom_site_fract_x
_atom_site_fract_y
_atom_site_fract_z
_atom_site_U_iso_or_equiv
_atom_site_thermal_displace_type
Zn1 Zn 0.26864(12) 0.21554(11) 0.9402(7) 0.0741 Uani
O1 O 0.2268(5) 0.2780(5) 1.001(2) 0.0563 Uani
H1 H 0.2050 0.2895 0.8835 0.0680 Uiso
N1 N 0.2405(6) 0.1488(6) 0.986(3) 0.0660 Uani
C1 C 0.2564(6) 0.1127(5) 1.158(3) 0.0590 Uani
H2 H 0.2818 0.1167 1.2972 0.0710 Uiso
N2 N 0.2316(5) 0.0688(6) 1.109(2) 0.0703 Uani
C2 C 0.2004(4) 0.1246(5) 0.806(2) 0.0543 Uani
O2 O 0.2661(9) -0.1627(6) 1.488(5) 0.1020 Uani
C3 C 0.1716(5) 0.1471(4) 0.589(2) 0.0620 Uani
H3 H 0.1761 0.1808 0.5401 0.0740 Uiso
O3 O 0.3384(8) -0.1331(13) 1.441(9) 0.1047 Uani
C4 C 0.1355(4) 0.1176(5) 0.446(2) 0.0573 Uani
C5 C 0.1058(5) 0.1383(5) 0.227(3) 0.0667 Uani
H4 H 0.1101 0.1720 0.1776 0.0800 Uiso
C6 C 0.0696(5) 0.1100(6) 0.079(3) 0.0753 Uani
H5 H 0.0496 0.1239 -0.0687 0.0900 Uiso
C7 C 0.0651(5) 0.0599(6) 0.163(2) 0.0710 Uani
H6 H 0.0414 0.0397 0.0690 0.0850 Uiso
C8 C 0.0948(5) 0.0393(6) 0.383(3) 0.0627 Uani
H7 H 0.0902 0.0056 0.4329 0.0750 Uiso
C9 C 0.1310(4) 0.0670(5) 0.531(2) 0.0673 Uani
C10 C 0.1601(5) 0.0448(5) 0.749(3) 0.0600 Uani
H8 H 0.1560 0.0110 0.7982 0.0720 Uiso
C11 C 0.1954(8) 0.0746(5) 0.890(4) 0.0693 Uani
C12 C 0.2449(4) 0.0202(6) 1.233(4) 0.0827 Uani
C13 C 0.2688(7) -0.0737(5) 1.442(4) 0.0827 Uani
C14 C 0.2651(8) 0.0142(5) 1.511(4) 0.0827 Uani
H9 H 0.2706 0.0426 1.6274 0.0990 Uiso
C15 C 0.2773(8) -0.0325(6) 1.621(4) 0.0827 Uani
H10 H 0.2908 -0.0362 1.8088 0.0990 Uiso
C16 C 0.2486(10) -0.0699(6) 1.163(4) 0.0827 Uani
H11 H 0.2431 -0.0983 1.0479 0.0990 Uiso
C17 C 0.2369(8) -0.0223(7) 1.062(3) 0.0827 Uani
H12 H 0.2234 -0.0186 0.8741 0.0990 Uiso
C18 C 0.2914(7) -0.1251(5) 1.508(6) 0.0923 Uani
Zn1E Zn 0.23136(12) 0.28446(11) 1.4402(7) 0.0741 Uani
Zn1G Zn 0.28446(11) -0.23136(12) 1.5598(7) 0.0741 Uani
O1E O 0.2732(5) 0.2220(5) 0.501(2) 0.0563 Uani
O2F O 0.3373(6) 0.2339(9) 1.012(5) 0.1020 Uani
O4 O 0.3396(14) 0.1117(12) 1.642(7) 0.1730 Uiso
H13 H 0.3162 0.1328 1.6509 0.2600 Uiso
C19 C 0.378(2) 0.135(3) 1.460(12) 0.2620 Uiso
H14 H 0.3690 0.1701 1.4335 0.3930 Uiso
H15 H 0.3790 0.1189 1.2710 0.3930 Uiso
H16 H 0.4098 0.1326 1.5546 0.3930 Uiso
loop_
_atom_site_aniso_label
_atom_site_aniso_U_11
_atom_site_aniso_U_22
_atom_site_aniso_U_33
_atom_site_aniso_U_23
_atom_site_aniso_U_13
_atom_site_aniso_U_12
Zn1 0.062(2) 0.0513(19) 0.109(2) 0.0058(16) -0.0001(17) 0.003(4)
O1 0.058(8) 0.045(6) 0.066(7) 0.014(6) 0.014(7) -0.008(9)
N1 0.077(13) 0.058(6) 0.063(10) -0.003(7) 0.001(9) -0.001(10)
C1 0.055(11) 0.064(8) 0.058(10) 0.002(8) 0.013(7) -0.003(12)
N2 0.074(11) 0.072(6) 0.065(9) 0.015(7) -0.002(7) -0.010(9)
C2 0.054(11) 0.039(8) 0.070(9) -0.002(8) 0.007(7) 0.007(10)
O2 0.102(13) 0.058(7) 0.146(15) 0.009(10) -0.048(16) 0.001(14)
C3 0.075(12) 0.048(9) 0.063(9) 0.015(9) -0.002(8) -0.022(12)
O3 0.108(10) 0.071(10) 0.135(9) 0.007(8) -0.018(11) 0.007(10)
C4 0.054(11) 0.044(8) 0.074(10) -0.007(9) 0.000(8) 0.001(11)
C5 0.063(11) 0.055(10) 0.082(10) -0.009(9) -0.001(8) 0.013(12)
C6 0.078(13) 0.073(10) 0.075(10) -0.001(10) -0.011(10) 0.002(14)
C7 0.059(14) 0.069(12) 0.085(14) -0.001(11) -0.010(9) 0.004(18)
C8 0.055(12) 0.048(10) 0.085(13) -0.019(10) -0.012(9) 0.010(14)
C9 0.061(12) 0.060(9) 0.081(11) 0.019(9) -0.009(8) -0.027(12)
C10 0.055(10) 0.058(9) 0.067(9) 0.012(9) 0.006(7) -0.013(11)
C11 0.086(17) 0.036(8) 0.086(14) -0.009(10) -0.018(11) 0.011(12)
C12 0.064(7) 0.071(5) 0.113(8) 0.012(6) -0.033(7) -0.013(9)
C13 0.064(7) 0.071(5) 0.113(8) 0.012(6) -0.033(7) -0.013(9)
C14 0.064(7) 0.071(5) 0.113(8) 0.012(6) -0.033(7) -0.013(9)
C15 0.064(7) 0.071(5) 0.113(8) 0.012(6) -0.033(7) -0.013(9)
C16 0.064(7) 0.071(5) 0.113(8) 0.012(6) -0.033(7) -0.013(9)
C17 0.064(7) 0.071(5) 0.113(8) 0.012(6) -0.033(7) -0.013(9)
C18 0.087(11) 0.077(7) 0.113(10) 0.005(10) -0.059(10) -0.006(10)
Zn1E 0.062 0.0513 0.109 -0.0058 0.0001 0.003
Zn1G 0.0513 0.062 0.109 0.0001 0.0058 -0.003
O1E 0.058 0.045 0.066 -0.014 -0.014 -0.008
O2F 0.058 0.102 0.146 -0.048 -0.009 -0.001
loop_
_geom_bond_atom_site_label_1
_geom_bond_atom_site_label_2
_geom_bond_site_symmetry_1
_geom_bond_site_symmetry_2
Zn1 O1 1_555 1_555
O1 H1 1_555 1_555
N1 Zn1 1_555 1_555
C1 N1 1_555 1_555
H2 C1 1_555 1_555
N2 C1 1_555 1_555
C2 N1 1_555 1_555
O2 C18 1_555 1_555
C3 C2 1_555 1_555
H3 C3 1_555 1_555
O3 C18 1_555 1_555
C4 C3 1_555 1_555
C5 C4 1_555 1_555
H4 C5 1_555 1_555
C6 C5 1_555 1_555
H5 C6 1_555 1_555
C7 C6 1_555 1_555
H6 C7 1_555 1_555
C8 C7 1_555 1_555
H7 C8 1_555 1_555
C9 C4 1_555 1_555
C10 C9 1_555 1_555
H8 C10 1_555 1_555
C11 N2 1_555 1_555
C12 N2 1_555 1_555
C13 C15 1_555 1_555
C14 C12 1_555 1_555
H9 C14 1_555 1_555
C15 C14 1_555 1_555
H10 C15 1_555 1_555
C16 C13 1_555 1_555
H11 C16 1_555 1_555
C17 C12 1_555 1_555
H12 C17 1_555 1_555
C18 C13 1_555 1_555
O4 H13 1_555 1_555
C19 O4 1_555 1_555
H14 C19 1_555 1_555
H15 C19 1_555 1_555
H16 C19 1_555 1_555
Zn1E O1 1_555 1_555
Zn1G O2 1_555 1_555
O1E Zn1 1_555 1_555
O2F Zn1 1_555 1_555
C2 C11 1_555 1_555
C8 C9 1_555 1_555
C10 C11 1_555 1_555
C16 C17 1_555 1_555

#END
