
#######################################################################
#
#                 Cambridge Crystallographic Data Centre
#                                CCDC 
#
#######################################################################
#
# If this CIF has been generated from an entry in the Cambridge 
# Structural Database, then it will include bibliographic, chemical, 
# crystal, experimental, refinement or atomic coordinate data resulting 
# from the CCDC's data processing and validation procedures.
#
#######################################################################

data_IFEPUG04
_chemical_formula_moiety         '(C19 H16 N2 O4 Zn1)n'
_symmetry_cell_setting           tetragonal
_symmetry_space_group_name_H-M   'I -4'
_symmetry_Int_Tables_number      82
_space_group_name_Hall           'I -4'
loop_
_symmetry_equiv_pos_site_id
_symmetry_equiv_pos_as_xyz
1 x,y,z
2 -x,-y,z
3 y,-x,-z
4 -y,x,-z
5 1/2+x,1/2+y,1/2+z
6 1/2-x,1/2-y,1/2+z
7 1/2+y,1/2-x,1/2-z
8 1/2-y,1/2+x,1/2-z
_cell_length_a                   26.2621(8)
_cell_length_b                   26.2621(8)
_cell_length_c                   5.1856(3)
_cell_angle_alpha                90
_cell_angle_beta                 90
_cell_angle_gamma                90
_cell_volume                     3576.5
loop_
_atom_site_label
_atom_site_type_symbol
_atom_site_fract_x
_atom_site_fract_y
_atom_site_fract_z
_atom_site_U_iso_or_equiv
_atom_site_thermal_displace_type
Zn1 Zn 0.27158(7) 0.21492(6) 0.8949(3) 0.0430 Uani
O1 O 0.2230(4) 0.2598(5) 1.0523(16) 0.0603 Uani
H1 H 0.2022 0.2708 0.9399 0.0730 Uiso
N1 N 0.2461(5) 0.1425(3) 0.901(2) 0.0853 Uani
C1 C 0.2617(4) 0.1062(3) 1.0535(19) 0.0433 Uani
H2 H 0.2868 0.1110 1.1772 0.0520 Uiso
N2 N 0.2380(3) 0.0608(3) 1.0165(14) 0.0440 Uani
C2 C 0.2097(3) 0.1220(3) 0.7511(11) 0.0443 Uani
O2 O 0.2732(4) -0.1658(3) 1.400(2) 0.0527 Uani
C3 C 0.1808(4) 0.1440(3) 0.5576(14) 0.0473 Uani
H3 H 0.1852 0.1779 0.5125 0.0570 Uiso
O3 O 0.3111(10) -0.1225(9) 1.724(4) 0.0833 Uani
C4 C 0.1450(3) 0.1135(4) 0.4322(13) 0.0513 Uani
C5 C 0.1155(4) 0.1337(4) 0.2367(15) 0.0600 Uani
H4 H 0.1197 0.1677 0.1921 0.0720 Uiso
C6 C 0.0797(3) 0.1048(5) 0.1047(16) 0.0613 Uani
H5 H 0.0602 0.1189 -0.0268 0.0730 Uiso
C7 C 0.0738(3) 0.0540(5) 0.1748(15) 0.0597 Uani
H6 H 0.0500 0.0339 0.0897 0.0720 Uiso
C8 C 0.1032(3) 0.0328(4) 0.3705(18) 0.0553 Uani
H7 H 0.0988 -0.0012 0.4153 0.0660 Uiso
C9 C 0.1394(3) 0.0625(4) 0.5010(13) 0.0417 Uani
C10 C 0.1683(3) 0.0405(4) 0.6958(15) 0.0433 Uani
H8 H 0.1640 0.0065 0.7418 0.0520 Uiso
C11 C 0.2037(4) 0.0712(4) 0.819(2) 0.0437 Uani
C12 C 0.2519(3) 0.0129(4) 1.1305(19) 0.0543 Uani
C13 C 0.2801(5) -0.0767(4) 1.363(2) 0.0543 Uani
C14 C 0.2717(6) 0.0129(3) 1.377(2) 0.0543 Uani
H9 H 0.2755 0.0436 1.4642 0.0650 Uiso
C15 C 0.2859(6) -0.0316(4) 1.4983(19) 0.0543 Uani
H10 H 0.2990 -0.0314 1.6650 0.0650 Uiso
C16 C 0.2600(7) -0.0785(3) 1.117(2) 0.0543 Uani
H11 H 0.2558 -0.1093 1.0315 0.0650 Uiso
C17 C 0.2464(6) -0.0331(4) 1.0032(19) 0.0543 Uani
H12 H 0.2333 -0.0334 0.8367 0.0650 Uiso
C18 C 0.2926(9) -0.1253(7) 1.494(3) 0.0580 Uani
Zn1E Zn 0.22842(7) 0.28508(6) 1.3949(3) 0.0430 Uani
Zn1G Zn 0.28508(6) -0.22842(7) 1.6051(3) 0.0430 Uani
O1E O 0.2770(4) 0.2402(5) 0.5523(16) 0.0603 Uani
O2F O 0.3342(3) 0.2268(4) 1.100(2) 0.0527 Uani
O5 O 0.3493(13) 0.1112(13) 1.498(6) 0.2310 Uiso
H17 H 0.3318 0.1237 1.6204 0.2770 Uiso
C23 C 0.386(3) 0.084(4) 1.656(17) 0.5300 Uiso
H18 H 0.3721 0.0773 1.8251 0.7930 Uiso
H19 H 0.4148 0.1058 1.6710 0.7930 Uiso
H20 H 0.3954 0.0525 1.5765 0.7930 Uiso
loop_
_atom_site_aniso_label
_atom_site_aniso_U_11
_atom_site_aniso_U_22
_atom_site_aniso_U_33
_atom_site_aniso_U_23
_atom_site_aniso_U_13
_atom_site_aniso_U_12
Zn1 0.0456(11) 0.0349(9) 0.0486(7) -0.0013(7) -0.0064(7) 0.005(2)
O1 0.066(7) 0.068(7) 0.047(4) -0.015(5) -0.020(4) 0.014(10)
N1 0.148(18) 0.033(5) 0.075(7) 0.022(5) -0.048(10) -0.033(9)
C1 0.013(6) 0.033(6) 0.084(9) 0.001(6) -0.012(6) 0.005(10)
N2 0.018(6) 0.033(5) 0.081(6) 0.007(5) -0.022(5) -0.003(8)
C2 0.062(10) 0.024(6) 0.047(7) -0.008(5) -0.007(6) 0.007(9)
O2 0.062(7) 0.032(5) 0.064(5) 0.006(5) -0.006(6) -0.002(11)
C3 0.046(8) 0.042(7) 0.054(7) 0.010(6) 0.003(5) -0.017(10)
O3 0.091(10) 0.064(9) 0.095(9) -0.006(8) -0.047(9) 0.021(11)
C4 0.054(10) 0.044(7) 0.056(7) 0.001(6) -0.020(7) 0.002(11)
C5 0.070(9) 0.040(7) 0.070(8) -0.012(7) -0.027(7) 0.035(11)
C6 0.049(9) 0.068(9) 0.067(7) 0.004(8) -0.022(7) 0.027(13)
C7 0.043(8) 0.057(7) 0.079(8) -0.013(7) -0.033(7) 0.028(10)
C8 0.058(9) 0.026(6) 0.082(9) -0.015(7) -0.035(7) 0.020(11)
C9 0.025(7) 0.035(6) 0.065(6) 0.002(6) -0.008(5) -0.006(10)
C10 0.033(6) 0.028(7) 0.069(6) -0.006(6) -0.015(6) 0.006(10)
C11 0.037(8) 0.038(6) 0.056(7) -0.002(6) -0.013(6) -0.008(9)
C12 0.066(5) 0.035(3) 0.062(4) 0.000(3) -0.013(4) 0.012(6)
C13 0.066(5) 0.035(3) 0.062(4) 0.000(3) -0.013(4) 0.012(6)
C14 0.066(5) 0.035(3) 0.062(4) 0.000(3) -0.013(4) 0.012(6)
C15 0.066(5) 0.035(3) 0.062(4) 0.000(3) -0.013(4) 0.012(6)
C16 0.066(5) 0.035(3) 0.062(4) 0.000(3) -0.013(4) 0.012(6)
C17 0.066(5) 0.035(3) 0.062(4) 0.000(3) -0.013(4) 0.012(6)
C18 0.068(10) 0.030(5) 0.076(7) -0.004(6) -0.022(8) 0.012(10)
Zn1E 0.0456 0.0349 0.0486 0.0013 0.0064 0.005
Zn1G 0.0349 0.0456 0.0486 0.0064 -0.0013 -0.005
O1E 0.066 0.068 0.047 0.015 0.02 0.014
O2F 0.032 0.062 0.064 -0.006 -0.006 0.002
loop_
_geom_bond_atom_site_label_1
_geom_bond_atom_site_label_2
_geom_bond_site_symmetry_1
_geom_bond_site_symmetry_2
Zn1 O1 1_555 1_555
O1 H1 1_555 1_555
N1 Zn1 1_555 1_555
C1 N1 1_555 1_555
H2 C1 1_555 1_555
N2 C1 1_555 1_555
C2 N1 1_555 1_555
O2 C18 1_555 1_555
C3 C2 1_555 1_555
H3 C3 1_555 1_555
O3 C18 1_555 1_555
C4 C3 1_555 1_555
C5 C4 1_555 1_555
H4 C5 1_555 1_555
C6 C5 1_555 1_555
H5 C6 1_555 1_555
C7 C6 1_555 1_555
H6 C7 1_555 1_555
C8 C7 1_555 1_555
H7 C8 1_555 1_555
C9 C4 1_555 1_555
C10 C9 1_555 1_555
H8 C10 1_555 1_555
C11 N2 1_555 1_555
C12 N2 1_555 1_555
C13 C15 1_555 1_555
C14 C12 1_555 1_555
H9 C14 1_555 1_555
C15 C14 1_555 1_555
H10 C15 1_555 1_555
C16 C13 1_555 1_555
H11 C16 1_555 1_555
C17 C12 1_555 1_555
H12 C17 1_555 1_555
C18 C13 1_555 1_555
O5 H17 1_555 1_555
C23 O5 1_555 1_555
H18 C23 1_555 1_555
H19 C23 1_555 1_555
H20 C23 1_555 1_555
Zn1E O1 1_555 1_555
Zn1G O2 1_555 1_555
O1E Zn1 1_555 1_555
O2F Zn1 1_555 1_555
C2 C11 1_555 1_555
C8 C9 1_555 1_555
C10 C11 1_555 1_555
C16 C17 1_555 1_555

#END
