
#######################################################################
#
#                 Cambridge Crystallographic Data Centre
#                                CCDC 
#
#######################################################################
#
# If this CIF has been generated from an entry in the Cambridge 
# Structural Database, then it will include bibliographic, chemical, 
# crystal, experimental, refinement or atomic coordinate data resulting 
# from the CCDC's data processing and validation procedures.
#
#######################################################################

data_IFEPUG02
_chemical_formula_moiety         '(C19 H16 N2 O4 Zn1)n'
_symmetry_cell_setting           tetragonal
_symmetry_space_group_name_H-M   'I -4'
_symmetry_Int_Tables_number      82
_space_group_name_Hall           'I -4'
loop_
_symmetry_equiv_pos_site_id
_symmetry_equiv_pos_as_xyz
1 x,y,z
2 -x,-y,z
3 y,-x,-z
4 -y,x,-z
5 1/2+x,1/2+y,1/2+z
6 1/2-x,1/2-y,1/2+z
7 1/2+y,1/2-x,1/2-z
8 1/2-y,1/2+x,1/2-z
_cell_length_a                   26.5757(9)
_cell_length_b                   26.5757(9)
_cell_length_c                   5.2077(3)
_cell_angle_alpha                90
_cell_angle_beta                 90
_cell_angle_gamma                90
_cell_volume                     3678.03
loop_
_atom_site_label
_atom_site_type_symbol
_atom_site_fract_x
_atom_site_fract_y
_atom_site_fract_z
_atom_site_U_iso_or_equiv
_atom_site_thermal_displace_type
Zn1 Zn 0.27147(8) 0.21421(7) 0.9333(3) 0.0466 Uani
O1 O 0.2226(4) 0.2545(5) 1.103(2) 0.0620 Uani
H1 H 0.2018 0.2655 0.9909 0.0740 Uiso
N1 N 0.2512(6) 0.1418(4) 0.918(2) 0.0727 Uani
C1 C 0.2665(4) 0.1041(4) 1.059(2) 0.0540 Uani
H2 H 0.2915 0.1068 1.1831 0.0650 Uiso
N2 N 0.2419(3) 0.0606(4) 1.0051(17) 0.0487 Uani
C2 C 0.2126(3) 0.1217(4) 0.7558(16) 0.0620 Uani
O2 O 0.2757(7) -0.1673(5) 1.352(2) 0.0817 Uani
C3 C 0.1831(4) 0.1440(4) 0.5692(19) 0.0513 Uani
H3 H 0.1865 0.1780 0.5309 0.0620 Uiso
O3 O 0.3137(11) -0.1305(9) 1.673(5) 0.0803 Uani
C4 C 0.1482(3) 0.1145(4) 0.4403(17) 0.0560 Uani
C5 C 0.1184(4) 0.1358(5) 0.252(2) 0.0633 Uani
H4 H 0.1224 0.1697 0.2142 0.0760 Uiso
C6 C 0.0828(4) 0.1084(6) 0.117(2) 0.0777 Uani
H5 H 0.0630 0.1234 -0.0087 0.0930 Uiso
C7 C 0.0776(4) 0.0577(6) 0.1754(18) 0.0780 Uani
H6 H 0.0541 0.0383 0.0878 0.0940 Uiso
C8 C 0.1073(4) 0.0359(5) 0.363(2) 0.0683 Uani
H7 H 0.1033 0.0019 0.4003 0.0820 Uiso
C9 C 0.1430(3) 0.0637(4) 0.4988(15) 0.0543 Uani
C10 C 0.1725(4) 0.0411(5) 0.6870(19) 0.0530 Uani
H8 H 0.1695 0.0070 0.7243 0.0640 Uiso
C11 C 0.2064(5) 0.0712(4) 0.817(3) 0.0477 Uani
C12 C 0.2557(3) 0.0122(4) 1.111(2) 0.0420 Uani
C13 C 0.2830(5) -0.0781(4) 1.327(2) 0.0420 Uani
C14 C 0.3049(3) 0.0045(4) 1.183(3) 0.0420 Uani
H9 H 0.3283 0.0300 1.1577 0.0500 Uiso
C15 C 0.3202(4) -0.0411(4) 1.294(3) 0.0420 Uani
H10 H 0.3534 -0.0466 1.3423 0.0500 Uiso
C16 C 0.2324(5) -0.0736(4) 1.258(3) 0.0420 Uani
H11 H 0.2087 -0.0990 1.2814 0.0500 Uiso
C17 C 0.2211(3) -0.0266(5) 1.151(3) 0.0420 Uani
H12 H 0.1880 -0.0208 1.1031 0.0500 Uiso
C18 C 0.2967(8) -0.1286(4) 1.445(3) 0.0573 Uani
Zn1E Zn 0.22853(8) 0.28579(7) 1.4333(3) 0.0466 Uani
Zn1G Zn 0.28579(7) -0.22853(8) 1.5667(3) 0.0466 Uani
O1E O 0.2774(4) 0.2455(5) 0.603(2) 0.0620 Uani
O2F O 0.3327(5) 0.2243(7) 1.148(2) 0.0817 Uani
O5 O 0.3461(11) 0.1056(12) 1.551(4) 0.1990 Uiso
H17 H 0.3508 0.1329 1.6345 0.2390 Uiso
C23 C 0.3893(17) 0.0729(17) 1.569(9) 0.2800 Uiso
H18 H 0.4198 0.0922 1.5717 0.4180 Uiso
H19 H 0.3903 0.0494 1.4288 0.4180 Uiso
H20 H 0.3858 0.0549 1.7276 0.4180 Uiso
loop_
_atom_site_aniso_label
_atom_site_aniso_U_11
_atom_site_aniso_U_22
_atom_site_aniso_U_33
_atom_site_aniso_U_23
_atom_site_aniso_U_13
_atom_site_aniso_U_12
Zn1 0.0473(14) 0.0361(13) 0.0565(10) -0.0002(10) -0.0067(10) 0.010(3)
O1 0.057(7) 0.076(8) 0.053(5) -0.012(7) -0.008(5) 0.018(11)
N1 0.109(14) 0.047(5) 0.062(7) 0.019(6) -0.015(8) -0.028(9)
C1 0.047(9) 0.035(6) 0.080(8) 0.002(7) -0.008(7) -0.001(9)
N2 0.046(7) 0.035(5) 0.065(7) 0.001(5) -0.017(6) -0.002(7)
C2 0.079(16) 0.021(7) 0.086(12) -0.007(8) -0.025(10) 0.016(11)
O2 0.108(13) 0.055(7) 0.082(7) 0.013(6) -0.046(9) -0.040(14)
C3 0.046(8) 0.030(8) 0.078(8) 0.003(8) -0.003(7) 0.014(10)
O3 0.081(12) 0.062(10) 0.098(12) 0.015(11) -0.048(12) -0.021(15)
C4 0.070(12) 0.043(7) 0.055(7) -0.005(7) -0.008(8) 0.004(10)
C5 0.058(10) 0.044(9) 0.088(10) -0.001(9) -0.014(8) 0.022(11)
C6 0.071(12) 0.077(10) 0.085(11) 0.005(10) -0.027(9) 0.008(13)
C7 0.037(12) 0.082(12) 0.115(14) 0.005(13) -0.040(10) -0.008(17)
C8 0.074(11) 0.050(9) 0.081(10) -0.011(8) -0.029(8) -0.001(11)
C9 0.036(10) 0.040(8) 0.087(11) 0.004(8) -0.022(8) 0.004(12)
C10 0.055(8) 0.036(7) 0.068(8) -0.010(7) -0.021(7) 0.006(9)
C11 0.033(10) 0.031(8) 0.079(9) 0.000(8) -0.013(7) 0.007(10)
C12 0.029(5) 0.034(3) 0.063(5) -0.005(4) -0.013(4) -0.012(7)
C13 0.029(5) 0.034(3) 0.063(5) -0.005(4) -0.013(4) -0.012(7)
C14 0.029(5) 0.034(3) 0.063(5) -0.005(4) -0.013(4) -0.012(7)
C15 0.029(5) 0.034(3) 0.063(5) -0.005(4) -0.013(4) -0.012(7)
C16 0.029(5) 0.034(3) 0.063(5) -0.005(4) -0.013(4) -0.012(7)
C17 0.029(5) 0.034(3) 0.063(5) -0.005(4) -0.013(4) -0.012(7)
C18 0.056(10) 0.038(6) 0.078(8) -0.009(7) -0.022(9) 0.004(10)
Zn1E 0.0473 0.0361 0.0565 0.0002 0.0067 0.01
Zn1G 0.0361 0.0473 0.0565 0.0067 -0.0002 -0.01
O1E 0.057 0.076 0.053 0.012 0.008 0.018
O2F 0.055 0.108 0.082 -0.046 -0.013 0.04
loop_
_geom_bond_atom_site_label_1
_geom_bond_atom_site_label_2
_geom_bond_site_symmetry_1
_geom_bond_site_symmetry_2
Zn1 O1 1_555 1_555
O1 H1 1_555 1_555
N1 Zn1 1_555 1_555
C1 N1 1_555 1_555
H2 C1 1_555 1_555
N2 C1 1_555 1_555
C2 N1 1_555 1_555
O2 C18 1_555 1_555
C3 C2 1_555 1_555
H3 C3 1_555 1_555
O3 C18 1_555 1_555
C4 C3 1_555 1_555
C5 C4 1_555 1_555
H4 C5 1_555 1_555
C6 C5 1_555 1_555
H5 C6 1_555 1_555
C7 C6 1_555 1_555
H6 C7 1_555 1_555
C8 C7 1_555 1_555
H7 C8 1_555 1_555
C9 C4 1_555 1_555
C10 C9 1_555 1_555
H8 C10 1_555 1_555
C11 N2 1_555 1_555
C12 N2 1_555 1_555
C13 C15 1_555 1_555
C14 C12 1_555 1_555
H9 C14 1_555 1_555
C15 C14 1_555 1_555
H10 C15 1_555 1_555
C16 C13 1_555 1_555
H11 C16 1_555 1_555
C17 C12 1_555 1_555
H12 C17 1_555 1_555
C18 C13 1_555 1_555
O5 H17 1_555 1_555
C23 O5 1_555 1_555
H18 C23 1_555 1_555
H19 C23 1_555 1_555
H20 C23 1_555 1_555
Zn1E O1 1_555 1_555
Zn1G O2 1_555 1_555
O1E Zn1 1_555 1_555
O2F Zn1 1_555 1_555
C2 C11 1_555 1_555
C8 C9 1_555 1_555
C10 C11 1_555 1_555
C16 C17 1_555 1_555

#END
