
#######################################################################
#
#                 Cambridge Crystallographic Data Centre
#                                CCDC 
#
#######################################################################
#
# If this CIF has been generated from an entry in the Cambridge 
# Structural Database, then it will include bibliographic, chemical, 
# crystal, experimental, refinement or atomic coordinate data resulting 
# from the CCDC's data processing and validation procedures.
#
#######################################################################

data_IFEPUG03
_chemical_formula_moiety         '(C19 H16 N2 O4 Zn1)n'
_symmetry_cell_setting           tetragonal
_symmetry_space_group_name_H-M   'I -4'
_symmetry_Int_Tables_number      82
_space_group_name_Hall           'I -4'
loop_
_symmetry_equiv_pos_site_id
_symmetry_equiv_pos_as_xyz
1 x,y,z
2 -x,-y,z
3 y,-x,-z
4 -y,x,-z
5 1/2+x,1/2+y,1/2+z
6 1/2-x,1/2-y,1/2+z
7 1/2+y,1/2-x,1/2-z
8 1/2-y,1/2+x,1/2-z
_cell_length_a                   26.4701(13)
_cell_length_b                   26.4701(13)
_cell_length_c                   5.1884(5)
_cell_angle_alpha                90
_cell_angle_beta                 90
_cell_angle_gamma                90
_cell_volume                     3635.34
loop_
_atom_site_label
_atom_site_type_symbol
_atom_site_fract_x
_atom_site_fract_y
_atom_site_fract_z
_atom_site_U_iso_or_equiv
_atom_site_thermal_displace_type
Zn1 Zn 0.27172(4) 0.21431(4) 0.92217(17) 0.0374 Uani
O1 O 0.2216(3) 0.2547(3) 1.0902(14) 0.0560 Uani
H1 H 0.2008 0.2657 0.9783 0.0670 Uiso
N1 N 0.2490(3) 0.1422(2) 0.9150(13) 0.0510 Uani
C1 C 0.2636(3) 0.1045(2) 1.0594(13) 0.0547 Uani
H2 H 0.2885 0.1077 1.1848 0.0660 Uiso
N2 N 0.2394(2) 0.0602(2) 1.0114(11) 0.0530 Uani
C2 C 0.21119(18) 0.1218(2) 0.7561(9) 0.0407 Uani
O2 O 0.2765(4) -0.1663(2) 1.3704(13) 0.0567 Uani
C3 C 0.1823(3) 0.1442(3) 0.5659(12) 0.0480 Uani
H3 H 0.1866 0.1781 0.5243 0.0580 Uiso
O3 O 0.3077(8) -0.1284(6) 1.692(3) 0.0823 Uani
C4 C 0.1467(2) 0.1150(3) 0.4383(11) 0.0447 Uani
C5 C 0.1176(3) 0.1356(3) 0.2432(12) 0.0553 Uani
H4 H 0.1222 0.1694 0.2000 0.0660 Uiso
C6 C 0.0819(2) 0.1075(4) 0.1097(13) 0.0697 Uani
H5 H 0.0624 0.1223 -0.0188 0.0840 Uiso
C7 C 0.0759(2) 0.0568(4) 0.1721(12) 0.0603 Uani
H6 H 0.0524 0.0372 0.0840 0.0720 Uiso
C8 C 0.1048(3) 0.0356(3) 0.3652(14) 0.0550 Uani
H7 H 0.1002 0.0017 0.4066 0.0660 Uiso
C9 C 0.1408(2) 0.0637(3) 0.4999(10) 0.0460 Uani
C10 C 0.1701(3) 0.0414(3) 0.6905(12) 0.0447 Uani
H8 H 0.1666 0.0074 0.7304 0.0530 Uiso
C11 C 0.2046(3) 0.0712(3) 0.8188(15) 0.0413 Uani
C12 C 0.2542(2) 0.0129(3) 1.1168(14) 0.0526 Uani
C13 C 0.2837(4) -0.0782(2) 1.3297(15) 0.0526 Uani
C14 C 0.2726(5) 0.0102(3) 1.3658(15) 0.0526 Uani
H9 H 0.2750 0.0398 1.4619 0.0630 Uiso
C15 C 0.2874(5) -0.0345(3) 1.4763(14) 0.0526 Uani
H10 H 0.2996 -0.0355 1.6444 0.0630 Uiso
C16 C 0.2654(6) -0.0779(3) 1.0801(18) 0.0526 Uani
H11 H 0.2628 -0.1076 0.9852 0.0630 Uiso
C17 C 0.2509(5) -0.0320(3) 0.9761(15) 0.0526 Uani
H12 H 0.2387 -0.0310 0.8081 0.0630 Uiso
C18 C 0.2958(7) -0.1285(3) 1.455(2) 0.0640 Uani
Zn1E Zn 0.22828(4) 0.28569(4) 1.42217(17) 0.0374 Uani
Zn1G Zn 0.28569(4) -0.22828(4) 1.57783(17) 0.0374 Uani
O1E O 0.2784(3) 0.2453(3) 0.5902(14) 0.0560 Uani
O2F O 0.3337(2) 0.2235(4) 1.1296(13) 0.0567 Uani
O5 O 0.3446(9) 0.1038(8) 1.546(4) 0.1640 Uiso
H17 H 0.3455 0.1280 1.6441 0.1970 Uiso
C23 C 0.3811(17) 0.0662(16) 1.628(11) 0.3200 Uiso
H18 H 0.3767 0.0593 1.8081 0.4740 Uiso
H19 H 0.4148 0.0783 1.5979 0.4740 Uiso
H20 H 0.3757 0.0358 1.5310 0.4740 Uiso
loop_
_atom_site_aniso_label
_atom_site_aniso_U_11
_atom_site_aniso_U_22
_atom_site_aniso_U_33
_atom_site_aniso_U_23
_atom_site_aniso_U_13
_atom_site_aniso_U_12
Zn1 0.0366(6) 0.0280(5) 0.0477(5) -0.0006(4) -0.0039(5) 0.0047(12)
O1 0.057(4) 0.063(4) 0.048(3) -0.012(4) -0.012(3) 0.018(7)
N1 0.061(6) 0.034(3) 0.058(4) 0.010(4) -0.010(5) -0.027(6)
C1 0.060(7) 0.040(4) 0.064(5) 0.006(4) -0.019(5) -0.036(8)
N2 0.064(6) 0.029(3) 0.066(5) 0.003(3) -0.015(4) -0.025(6)
C2 0.033(5) 0.027(4) 0.062(5) -0.004(4) -0.005(4) 0.002(6)
O2 0.064(5) 0.035(3) 0.071(4) 0.017(3) -0.016(4) -0.018(7)
C3 0.052(5) 0.037(4) 0.055(4) 0.012(4) -0.004(4) -0.011(7)
O3 0.097(8) 0.058(6) 0.092(7) 0.015(7) -0.033(7) -0.025(9)
C4 0.046(5) 0.039(4) 0.049(4) 0.001(4) -0.004(4) 0.005(8)
C5 0.056(5) 0.042(5) 0.068(5) -0.010(5) -0.015(5) 0.035(8)
C6 0.052(6) 0.061(6) 0.096(8) -0.003(7) -0.029(6) 0.024(10)
C7 0.048(6) 0.058(6) 0.075(6) -0.017(5) -0.024(5) 0.013(9)
C8 0.056(6) 0.038(5) 0.071(6) -0.019(5) -0.025(5) 0.011(8)
C9 0.033(5) 0.037(4) 0.068(5) 0.001(4) -0.015(4) -0.009(8)
C10 0.039(5) 0.030(4) 0.065(5) -0.009(4) -0.011(4) 0.007(7)
C11 0.024(4) 0.031(4) 0.069(5) 0.006(4) -0.003(4) -0.018(6)
C12 0.059(4) 0.0347(19) 0.064(3) -0.002(2) -0.010(3) -0.004(4)
C13 0.059(4) 0.0347(19) 0.064(3) -0.002(2) -0.010(3) -0.004(4)
C14 0.059(4) 0.0347(19) 0.064(3) -0.002(2) -0.010(3) -0.004(4)
C15 0.059(4) 0.0347(19) 0.064(3) -0.002(2) -0.010(3) -0.004(4)
C16 0.059(4) 0.0347(19) 0.064(3) -0.002(2) -0.010(3) -0.004(4)
C17 0.059(4) 0.0347(19) 0.064(3) -0.002(2) -0.010(3) -0.004(4)
C18 0.087(9) 0.030(4) 0.075(5) -0.004(5) -0.018(7) 0.001(8)
Zn1E 0.0366 0.028 0.0477 0.0006 0.0039 0.0047
Zn1G 0.028 0.0366 0.0477 0.0039 -0.0006 -0.0047
O1E 0.057 0.063 0.048 0.012 0.012 0.018
O2F 0.035 0.064 0.071 -0.016 -0.017 0.018
loop_
_geom_bond_atom_site_label_1
_geom_bond_atom_site_label_2
_geom_bond_site_symmetry_1
_geom_bond_site_symmetry_2
Zn1 O1 1_555 1_555
O1 H1 1_555 1_555
N1 Zn1 1_555 1_555
C1 N1 1_555 1_555
H2 C1 1_555 1_555
N2 C1 1_555 1_555
C2 N1 1_555 1_555
O2 C18 1_555 1_555
C3 C2 1_555 1_555
H3 C3 1_555 1_555
O3 C18 1_555 1_555
C4 C3 1_555 1_555
C5 C4 1_555 1_555
H4 C5 1_555 1_555
C6 C5 1_555 1_555
H5 C6 1_555 1_555
C7 C6 1_555 1_555
H6 C7 1_555 1_555
C8 C7 1_555 1_555
H7 C8 1_555 1_555
C9 C4 1_555 1_555
C10 C9 1_555 1_555
H8 C10 1_555 1_555
C11 N2 1_555 1_555
C12 N2 1_555 1_555
C13 C15 1_555 1_555
C14 C12 1_555 1_555
H9 C14 1_555 1_555
C15 C14 1_555 1_555
H10 C15 1_555 1_555
C16 C13 1_555 1_555
H11 C16 1_555 1_555
C17 C12 1_555 1_555
H12 C17 1_555 1_555
C18 C13 1_555 1_555
O5 H17 1_555 1_555
C23 O5 1_555 1_555
H18 C23 1_555 1_555
H19 C23 1_555 1_555
H20 C23 1_555 1_555
Zn1E O1 1_555 1_555
Zn1G O2 1_555 1_555
O1E Zn1 1_555 1_555
O2F Zn1 1_555 1_555
C2 C11 1_555 1_555
C8 C9 1_555 1_555
C10 C11 1_555 1_555
C16 C17 1_555 1_555

#END
