
#######################################################################
#
#                 Cambridge Crystallographic Data Centre
#                                CCDC 
#
#######################################################################
#
# If this CIF has been generated from an entry in the Cambridge 
# Structural Database, then it will include bibliographic, chemical, 
# crystal, experimental, refinement or atomic coordinate data resulting 
# from the CCDC's data processing and validation procedures.
#
#######################################################################

data_PEQTUB
_chemical_formula_moiety         '(C16 Bi3 N2 O20 1-)n'
_symmetry_cell_setting           orthorhombic
_symmetry_space_group_name_H-M   'P b c n'
_symmetry_Int_Tables_number      60
_space_group_name_Hall           '-P 2n 2ab'
loop_
_symmetry_equiv_pos_site_id
_symmetry_equiv_pos_as_xyz
1 x,y,z
2 1/2-x,1/2-y,1/2+z
3 1/2+x,1/2-y,-z
4 -x,y,1/2-z
5 -x,-y,-z
6 1/2+x,1/2+y,1/2-z
7 1/2-x,1/2+y,z
8 x,-y,1/2+z
_cell_length_a                   14.803(4)
_cell_length_b                   19.783(7)
_cell_length_c                   8.202(2)
_cell_angle_alpha                90
_cell_angle_beta                 90
_cell_angle_gamma                90
_cell_volume                     2401.94
loop_
_atom_site_label
_atom_site_type_symbol
_atom_site_fract_x
_atom_site_fract_y
_atom_site_fract_z
N1 N 0.5234(13) 0.604(3) 0.204(4)
C7 C 0.5000 0.538(2) 0.2500
C8 C 0.5000 0.4718(15) 0.2500
C9 C 0.577(5) 0.616(3) 0.428(4)
C10 C 0.551(2) 0.6658(14) 0.302(3)
N1C N 0.4766(13) 0.604(3) 0.296(4)
C9C C 0.423(5) 0.616(3) 0.072(4)
C10C C 0.449(2) 0.6658(14) 0.198(3)
Bi1 Bi 0.804430(15) 0.616120(11) 0.90323(3)
Bi2 Bi 0.5000 0.828541(15) 0.7500
O1 O 0.7547(3) 0.7163(3) 0.7272(7)
O2 O 0.7764(3) 1.0626(2) 0.7059(6)
O3 O 0.6431(3) 0.7881(2) 0.6636(6)
O4 O 0.7832(3) 0.9715(3) 0.5496(7)
O5 O 0.6442(3) 0.6590(3) 0.9523(7)
O6 O 0.6059(3) 0.8674(3) 1.1571(6)
O7 O 0.4707(3) 0.8604(2) 1.0454(6)
O8 O 0.6256(3) 1.0141(2) 0.8495(6)
O9 O 0.6296(3) 0.9250(2) 0.6846(6)
O10 O 0.5433(4) 0.7403(3) 0.9091(6)
C1 C 0.6781(4) 0.7404(3) 0.7461(8)
C2 C 0.6590(4) 0.9795(3) 0.7368(8)
C3 C 0.6172(4) 0.7100(3) 0.8799(8)
C4 C 0.5234(4) 0.8652(3) 1.1647(8)
C5 C 0.7471(4) 1.0067(3) 0.6558(8)
Bi1C Bi 0.195570(15) 0.616120(11) 0.59677(3)
Bi1F Bi 0.695570(15) 1.116120(11) 0.90323(3)
Bi1A Bi 0.695570(15) 0.883880(11) 0.40323(3)
Bi1A_2 Bi 0.695570(15) 0.883880(11) 1.40323(3)
Bi1B Bi 0.304430(15) 0.883880(11) 1.09677(3)
Bi1E Bi 0.304430(15) 1.116120(11) 0.59677(3)
Bi2_2 Bi 0.5000 0.828541(15) 1.7500
O1C O 0.2453(3) 0.7163(3) 0.7728(7)
O2C O 0.2236(3) 1.0626(2) 0.7941(6)
O2F O 0.7236(3) 0.5626(2) 0.7059(6)
O2E O 0.2764(3) 0.5626(2) 0.7941(6)
O3C O 0.3569(3) 0.7881(2) 0.8364(6)
O4C O 0.2168(3) 0.9715(3) 0.9504(7)
O4A O 0.7168(3) 0.5285(3) 1.0496(7)
O4B O 0.2832(3) 0.5285(3) 0.4504(7)
O5C O 0.3558(3) 0.6590(3) 0.5477(7)
O6C O 0.3941(3) 0.8674(3) 1.3429(6)
O6A O 0.8941(3) 0.6326(3) 0.6571(6)
O6B O 0.1059(3) 0.6326(3) 0.8429(6)
O7C O 0.5293(3) 0.8604(2) 1.4546(6)
O7B O 0.9707(3) 0.6396(2) 0.9546(6)
O7C_2 O 0.5293(3) 0.8604(2) 0.4546(6)
O7A O 0.0293(3) 0.6396(2) 0.5454(6)
O8C O 0.3744(3) 1.0141(2) 0.6505(6)
O8F O 0.8744(3) 0.5141(2) 0.8495(6)
O8E O 0.1256(3) 0.5141(2) 0.6505(6)
O9C O 0.3704(3) 0.9250(2) 0.8154(6)
O9A O 0.8704(3) 0.5750(2) 1.1846(6)
O9B O 0.1296(3) 0.5750(2) 0.3154(6)
O10C O 0.4567(4) 0.7403(3) 0.5909(6)
C1C C 0.3219(4) 0.7404(3) 0.7539(8)
C2C C 0.3410(4) 0.9795(3) 0.7632(8)
C3C C 0.3828(4) 0.7100(3) 0.6201(8)
C4C C 0.4766(4) 0.8652(3) 1.3353(8)
C5C C 0.2529(4) 1.0067(3) 0.8442(8)
loop_
_geom_bond_atom_site_label_1
_geom_bond_atom_site_label_2
_geom_bond_site_symmetry_1
_geom_bond_site_symmetry_2
Bi1 O1 1_555 1_555
Bi2 O3 1_555 1_555
O1 C1 1_555 1_555
O2 C5 1_555 1_555
O3 C1 1_555 1_555
O4 C5 1_555 1_555
O5 Bi1 1_555 1_555
O6 C4 1_555 1_555
O7 Bi2 1_555 1_555
O8 C2 1_555 1_555
O9 Bi2 1_555 1_555
O10 Bi2 1_555 1_555
C1 C3 1_555 1_555
C2 O9 1_555 1_555
C3 O5 1_555 1_555
C4 O7 1_555 1_555
C5 C2 1_555 1_555
N1 C7 1_555 1_555
C7 C8 1_555 1_555
C9 C10 1_555 1_555
C10 N1 1_555 1_555
Bi1C O1C 1_555 1_555
Bi1F O2 1_555 1_555
Bi1A O4 1_555 1_555
Bi1A_2 O6 1_555 1_555
Bi1B O7 1_555 1_555
Bi1E O2C 1_555 1_555
Bi2_2 O7C 1_555 1_555
O1C C1C 1_555 1_555
O2C C5C 1_555 1_555
O2F Bi1 1_555 1_555
O2E Bi1C 1_555 1_555
O3C Bi2 1_555 1_555
O4C Bi1B 1_555 1_555
O4A Bi1 1_555 1_555
O4B Bi1C 1_555 1_555
O5C Bi1C 1_555 1_555
O6C Bi1B 1_555 1_555
O6A Bi1 1_555 1_555
O6B Bi1C 1_555 1_555
O7C Bi1A_2 1_555 1_555
O7B Bi1 1_555 1_555
O7C_2 Bi2 1_555 1_555
O7A Bi1C 1_555 1_555
O8C Bi1E 1_555 1_555
O8F Bi1 1_555 1_555
O8E Bi1C 1_555 1_555
O9C Bi2 1_555 1_555
O9A Bi1 1_555 1_555
O9B Bi1C 1_555 1_555
O10C Bi2 1_555 1_555
C1C O3C 1_555 1_555
C2C O8C 1_555 1_555
C3C O5C 1_555 1_555
C4C C4 1_555 1_555
C5C O4C 1_555 1_555
N1C N1 1_555 1_555
C9C C10C 1_555 1_555
C10C N1 1_555 1_555
O8 Bi1F 1_555 1_555
O9 Bi1A 1_555 1_555
O10 C3 1_555 1_555
C7 N1C 1_555 1_555
C10 N1C 1_555 1_555
C10 C10C 1_555 1_555
Bi1A O7C_2 1_555 1_555
Bi1B O9C 1_555 1_555
O6C C4C 1_555 1_555
O7C C4C 1_555 1_555
O9C C2C 1_555 1_555
O10C C3C 1_555 1_555
C1C C3C 1_555 1_555
C2C C5C 1_555 1_555
N1C C10C 1_555 1_555

#END
