
#######################################################################
#
#                 Cambridge Crystallographic Data Centre
#                                CCDC 
#
#######################################################################
#
# If this CIF has been generated from an entry in the Cambridge 
# Structural Database, then it will include bibliographic, chemical, 
# crystal, experimental, refinement or atomic coordinate data resulting 
# from the CCDC's data processing and validation procedures.
#
#######################################################################

data_OVUNIE
_chemical_formula_moiety         '(C12 H8 Cl2 Mn2 N6 O4)n'
_symmetry_cell_setting           rhombohedral
_symmetry_space_group_name_H-M   'R -3 m'
_symmetry_Int_Tables_number      166
_space_group_name_Hall           '-R 3 2"'
loop_
_symmetry_equiv_pos_site_id
_symmetry_equiv_pos_as_xyz
1 x,y,z
2 -y,x-y,z
3 -x+y,-x,z
4 y,x,-z
5 x-y,-y,-z
6 -x,-x+y,-z
7 2/3+x,1/3+y,1/3+z
8 2/3-y,1/3+x-y,1/3+z
9 2/3-x+y,1/3-x,1/3+z
10 2/3+y,1/3+x,1/3-z
11 2/3+x-y,1/3-y,1/3-z
12 2/3-x,1/3-x+y,1/3-z
13 1/3+x,2/3+y,2/3+z
14 1/3-y,2/3+x-y,2/3+z
15 1/3-x+y,2/3-x,2/3+z
16 1/3+y,2/3+x,2/3-z
17 1/3+x-y,2/3-y,2/3-z
18 1/3-x,2/3-x+y,2/3-z
19 -x,-y,-z
20 y,-x+y,-z
21 x-y,x,-z
22 -y,-x,z
23 -x+y,y,z
24 x,x-y,z
25 1/3-x,2/3-y,2/3-z
26 1/3+y,2/3-x+y,2/3-z
27 1/3+x-y,2/3+x,2/3-z
28 1/3-y,2/3-x,2/3+z
29 1/3-x+y,2/3+y,2/3+z
30 1/3+x,2/3+x-y,2/3+z
31 2/3-x,1/3-y,1/3-z
32 2/3+y,1/3-x+y,1/3-z
33 2/3+x-y,1/3+x,1/3-z
34 2/3-y,1/3-x,1/3+z
35 2/3-x+y,1/3+y,1/3+z
36 2/3+x,1/3+x-y,1/3+z
_cell_length_a                   38.659(4)
_cell_length_b                   38.659(4)
_cell_length_c                   8.5638(9)
_cell_angle_alpha                90
_cell_angle_beta                 90
_cell_angle_gamma                120
_cell_volume                     11084
loop_
_atom_site_label
_atom_site_type_symbol
_atom_site_fract_x
_atom_site_fract_y
_atom_site_fract_z
_atom_site_U_iso_or_equiv
_atom_site_thermal_displace_type
Mn1 Mn 0.36959(2) 0.03626(2) 0.8333 0.0251 Uani
Cl1 Cl 0.39684(4) -0.0000 1.0000 0.0317 Uani
N1 N 0.31042(12) -0.02291(12) 0.8333 0.0266 Uani
O1 O 0.43031(12) 0.09698(12) 0.8333 0.0362 Uani
N2 N 0.2837(5) -0.0329(6) 0.719(2) 0.0269 Uani
C1 C 0.2505(4) -0.0678(4) 0.761(3) 0.0253 Uani
C2 C 0.2149(4) -0.0931(4) 0.694(2) 0.0261 Uani
H1 H 0.2082 -0.0873 0.5941 0.0310 Uiso
C3 C 0.1889(4) -0.1269(4) 0.7715(19) 0.0438 Uani
O2 O 0.1515(3) -0.1515(3) 0.7082(16) 0.0528 Uani
N2O N 0.3004(6) -0.0496(5) 0.948(2) 0.0269 Uani
C1O C 0.2655(4) -0.0828(4) 0.906(3) 0.0253 Uani
C2O C 0.2402(4) -0.1184(4) 0.973(2) 0.0261 Uani
H1O H 0.2460 -0.1251 1.0726 0.0310 Uiso
C3O C 0.2064(4) -0.1444(4) 0.8952(19) 0.0438 Uani
O2O O 0.1818(3) -0.1818(3) 0.9585(16) 0.0528 Uani
N1U N 0.02291(12) -0.31042(12) 0.8333 0.0266 Uani
N2U N 0.0329(6) -0.2837(5) 0.719(2) 0.0269 Uani
C1U C 0.0678(4) -0.2505(4) 0.761(3) 0.0253 Uani
C2U C 0.0931(4) -0.2149(4) 0.694(2) 0.0261 Uani
H1U H 0.0873 -0.2082 0.5941 0.0310 Uiso
C3U C 0.1269(4) -0.1889(4) 0.7715(19) 0.0438 Uani
N2X N 0.0496(5) -0.3004(6) 0.948(2) 0.0269 Uani
C1X C 0.0828(4) -0.2655(4) 0.906(3) 0.0253 Uani
C2X C 0.1184(4) -0.2402(4) 0.973(2) 0.0261 Uani
H1X H 0.1251 -0.2460 1.0726 0.0310 Uiso
C3X C 0.1444(4) -0.2064(4) 0.8952(19) 0.0438 Uani
Cl1S Cl 0.0000 -0.39684(4) 1.0000 0.0317 Uani
Mn1U Mn -0.03626(2) -0.36959(2) 0.8333 0.0251 Uani
O1U O -0.09698(12) -0.43031(12) 0.8333 0.0362 Uani
Mn1D Mn 0.33333(3) -0.03626(2) 1.1667 0.0251 Uani
Mn1K Mn 0.29708(2) 0.00000(3) 0.5000 0.0251 Uani
Mn1S Mn 0.03626(2) -0.33333(3) 1.1667 0.0251 Uani
Mn1FA Mn -0.00000(3) -0.29708(2) 0.5000 0.0251 Uani
Cl1M Cl 0.3333 0.06351(4) 0.6667 0.0317 Uani
Cl1X Cl -0.06351(4) -0.3333 0.6667 0.0317 Uani
N2H N 0.3501(8) 0.0496(5) 1.052(2) 0.0269 Uani
N2K N 0.3830(5) 0.0167(8) 0.614(2) 0.0269 Uani
N2FA N -0.0167(8) -0.3830(5) 0.614(2) 0.0269 Uani
N2IA N -0.0496(5) -0.3501(8) 1.052(2) 0.0269 Uani
loop_
_atom_site_aniso_label
_atom_site_aniso_U_11
_atom_site_aniso_U_22
_atom_site_aniso_U_33
_atom_site_aniso_U_23
_atom_site_aniso_U_13
_atom_site_aniso_U_12
Mn1 0.0304(4) 0.0304(4) 0.0141(4) -0.00105(15) 0.00105(15) 0.0148(4)
Cl1 0.0338(5) 0.0449(8) 0.0201(6) 0.0029(5) 0.0014(3) 0.0224(4)
N1 0.0321(18) 0.0321(18) 0.0141(19) -0.0005(8) 0.0005(8) 0.015(2)
O1 0.0440(19) 0.0440(19) 0.026(2) -0.0008(8) 0.0008(8) 0.026(2)
N2 0.028(9) 0.037(9) 0.014(8) 0.002(6) -0.002(7) 0.015(6)
C1 0.043(7) 0.029(6) 0.012(4) 0.003(4) -0.005(4) 0.024(5)
C2 0.032(5) 0.030(5) 0.013(6) 0.005(4) -0.003(4) 0.013(4)
C3 0.046(6) 0.040(7) 0.022(6) 0.008(5) -0.016(5) 0.004(5)
O2 0.045(4) 0.045(4) 0.025(7) 0.019(3) -0.019(3) -0.010(5)
N2O 0.037 0.028 0.014 0.002 -0.002 0.015
C1O 0.029 0.043 0.012 0.005 -0.003 0.024
C2O 0.03 0.032 0.013 0.003 -0.005 0.013
C3O 0.04 0.046 0.022 0.016 -0.008 0.004
O2O 0.045 0.045 0.025 0.019 -0.019 -0.01
N1U 0.0321 0.0321 0.0141 -0.0005 0.0005 0.015
N2U 0.037 0.028 0.014 0.002 -0.002 0.015
C1U 0.029 0.043 0.012 0.005 -0.003 0.024
C2U 0.03 0.032 0.013 0.003 -0.005 0.013
C3U 0.04 0.046 0.022 0.016 -0.008 0.004
N2X 0.028 0.037 0.014 0.002 -0.002 0.015
C1X 0.043 0.029 0.012 0.003 -0.005 0.024
C2X 0.032 0.03 0.013 0.005 -0.003 0.013
C3X 0.046 0.04 0.022 0.008 -0.016 0.004
Cl1S 0.0449 0.0339 0.0201 -0.0015 -0.0029 0.0225
Mn1U 0.0304 0.0304 0.0141 -0.00105 0.00105 0.0148
O1U 0.044 0.044 0.026 -0.0008 0.0008 0.026
Mn1D 0.0312 0.0304 0.0141 -0.00105 -0.0021 0.0156
Mn1K 0.0304 0.0312 0.0141 0.0021 0.00105 0.0156
Mn1S 0.0304 0.0312 0.0141 0.0021 0.00105 0.0156
Mn1FA 0.0312 0.0304 0.0141 -0.00105 -0.0021 0.0156
Cl1M 0.0449 0.0339 0.0201 -0.0015 -0.0029 0.0225
Cl1X 0.0338 0.0449 0.0201 0.0029 0.0014 0.0224
N2H 0.035 0.028 0.014 0.002 0.004 0.013
N2K 0.028 0.035 0.014 -0.004 -0.002 0.013
N2FA 0.035 0.028 0.014 0.002 0.004 0.013
N2IA 0.028 0.035 0.014 -0.004 -0.002 0.013
loop_
_geom_bond_atom_site_label_1
_geom_bond_atom_site_label_2
_geom_bond_site_symmetry_1
_geom_bond_site_symmetry_2
Mn1 Cl1 1_555 1_555
Cl1 Mn1D 1_555 1_555
N1 Mn1 1_555 1_555
O1 Mn1 1_555 1_555
N2 N1 1_555 1_555
C1 N2 1_555 1_555
C2 C1 1_555 1_555
H1 C2 1_555 1_555
C3 C2 1_555 1_555
O2 C3 1_555 1_555
N2O N1 1_555 1_555
C1O C1 1_555 1_555
C2O C1O 1_555 1_555
H1O C2O 1_555 1_555
C3O C3 1_555 1_555
O2O C3O 1_555 1_555
N1U N2U 1_555 1_555
N2U C1U 1_555 1_555
C1U C2U 1_555 1_555
C2U H1U 1_555 1_555
C3U O2 1_555 1_555
N2X N1U 1_555 1_555
C1X C1U 1_555 1_555
C2X C1X 1_555 1_555
H1X C2X 1_555 1_555
C3X O2O 1_555 1_555
Cl1S Mn1U 1_555 1_555
Mn1U N1U 1_555 1_555
O1U Mn1U 1_555 1_555
Mn1D N2O 1_555 1_555
Mn1K N2 1_555 1_555
Mn1S N2X 1_555 1_555
Mn1FA N2U 1_555 1_555
Cl1M Mn1 1_555 1_555
Cl1X Mn1U 1_555 1_555
N2H Mn1 1_555 1_555
N2K Mn1 1_555 1_555
N2FA Mn1U 1_555 1_555
N2IA Mn1U 1_555 1_555
N2O C1O 1_555 1_555
C2O C3O 1_555 1_555
C2U C3U 1_555 1_555
C3U C3X 1_555 1_555
N2X C1X 1_555 1_555
C2X C3X 1_555 1_555
Cl1S Mn1S 1_555 1_555
Mn1K Cl1M 1_555 1_555
Mn1FA Cl1X 1_555 1_555

#END
