
#######################################################################
#
#                 Cambridge Crystallographic Data Centre
#                                CCDC 
#
#######################################################################
#
# If this CIF has been generated from an entry in the Cambridge 
# Structural Database, then it will include bibliographic, chemical, 
# crystal, experimental, refinement or atomic coordinate data resulting 
# from the CCDC's data processing and validation procedures.
#
#######################################################################

data_GESDUF
_chemical_formula_moiety         '(C32 H32 Co1 O12)n'
_symmetry_cell_setting           monoclinic
_symmetry_space_group_name_H-M   'C 2/c'
_symmetry_Int_Tables_number      15
_space_group_name_Hall           '-C 2yc'
loop_
_symmetry_equiv_pos_site_id
_symmetry_equiv_pos_as_xyz
1 x,y,z
2 -x,y,1/2-z
3 1/2+x,1/2+y,z
4 1/2-x,1/2+y,1/2-z
5 -x,-y,-z
6 x,-y,1/2+z
7 1/2-x,1/2-y,-z
8 1/2+x,1/2-y,1/2+z
_cell_length_a                   36.419(7)
_cell_length_b                   13.1869(19)
_cell_length_c                   8.1455(19)
_cell_angle_alpha                90
_cell_angle_beta                 100.045(4)
_cell_angle_gamma                90
_cell_volume                     3851.94
loop_
_atom_site_label
_atom_site_type_symbol
_atom_site_fract_x
_atom_site_fract_y
_atom_site_fract_z
_atom_site_U_iso_or_equiv
_atom_site_thermal_displace_type
Co1 Co -0.0000 1.0000 0.0000 0.0284 Uani
O1 O 0.0000 1.0666(2) 0.2500 0.0317 Uani
O2 O -0.03099(6) 0.88535(18) 0.0798(2) 0.0488 Uani
H1 H -0.0498 0.8621 0.0044 0.0590 Uiso
H2 H -0.0372 0.8883 0.1702 0.0730 Uiso
O3 O 0.04758(5) 0.92713(17) 0.1076(2) 0.0426 Uani
O4 O 0.06212(6) 0.8501(2) -0.1127(3) 0.0643 Uani
O5 O 0.18167(7) 0.41795(18) 0.3910(3) 0.0694 Uani
O6 O 0.24446(6) 0.37092(16) 0.5648(3) 0.0523 Uani
C1 C 0.06994(7) 0.8784(2) 0.0339(3) 0.0374 Uani
C2 C 0.10753(7) 0.8541(2) 0.1308(3) 0.0332 Uani
C3 C 0.13177(7) 0.7932(2) 0.0627(3) 0.0378 Uani
H3 H 0.1247 0.7684 -0.0450 0.0450 Uiso
C4 C 0.16616(7) 0.7689(2) 0.1515(3) 0.0361 Uani
H4 H 0.1820 0.7276 0.1032 0.0430 Uiso
C5 C 0.17758(7) 0.8047(2) 0.3108(3) 0.0317 Uani
C6 C 0.15344(8) 0.8673(3) 0.3790(4) 0.0444 Uani
H5 H 0.1607 0.8927 0.4863 0.0530 Uiso
C7 C 0.11900(8) 0.8920(3) 0.2899(4) 0.0440 Uani
H6 H 0.1033 0.9346 0.3369 0.0530 Uiso
C8 C 0.21477(7) 0.7767(2) 0.4070(3) 0.0324 Uani
C9 C 0.22256(7) 0.6755(2) 0.4516(3) 0.0328 Uani
C10 C 0.19633(7) 0.5960(2) 0.4028(4) 0.0416 Uani
H7 H 0.1728 0.6123 0.3441 0.0500 Uiso
C11 C 0.20455(9) 0.4982(2) 0.4390(4) 0.0441 Uani
C12 C 0.14814(12) 0.4380(3) 0.2815(6) 0.0817 Uani
H8 H 0.1531 0.4794 0.1911 0.1220 Uiso
H9 H 0.1313 0.4729 0.3405 0.1220 Uiso
H10 H 0.1371 0.3752 0.2383 0.1220 Uiso
C13 C 0.23975(9) 0.4711(2) 0.5354(4) 0.0403 Uani
C14 C 0.27974(9) 0.3400(2) 0.6540(4) 0.0513 Uani
H11 H 0.2988 0.3576 0.5914 0.0770 Uiso
H12 H 0.2797 0.2679 0.6706 0.0770 Uiso
H13 H 0.2845 0.3735 0.7602 0.0770 Uiso
C15 C 0.26474(7) 0.5440(2) 0.5889(3) 0.0358 Uani
H14 H 0.2871 0.5260 0.6560 0.0430 Uiso
C16 C 0.25809(7) 0.6485(2) 0.5460(3) 0.0324 Uani
Co1B Co 0.5000 0.5000 1.0000 0.0284 Uani
Co1A Co 0.0000 1.0000 0.5000 0.0284 Uani
O1D O 0.0000 0.9334(2) -0.2500 0.0317 Uani
O2D O 0.03099(6) 1.11465(18) -0.0798(2) 0.0488 Uani
H1D H 0.0498 1.1379 -0.0044 0.0590 Uiso
H2D H 0.0372 1.1117 -0.1702 0.0730 Uiso
O3F O 0.45242(5) 0.57287(17) 0.8924(2) 0.0426 Uani
O3D O -0.04758(5) 1.07287(17) -0.1076(2) 0.0426 Uani
O4F O 0.43788(6) 0.6499(2) 1.1127(3) 0.0643 Uani
O5F O 0.31833(7) 1.08205(18) 0.6090(3) 0.0694 Uani
O6F O 0.25554(6) 1.12908(16) 0.4352(3) 0.0523 Uani
C1F C 0.43006(7) 0.6216(2) 0.9661(3) 0.0374 Uani
C2F C 0.39247(7) 0.6459(2) 0.8692(3) 0.0332 Uani
C3F C 0.36823(7) 0.7068(2) 0.9373(3) 0.0378 Uani
H3F H 0.3753 0.7316 1.0450 0.0450 Uiso
C4F C 0.33384(7) 0.7311(2) 0.8485(3) 0.0361 Uani
H4F H 0.3180 0.7724 0.8968 0.0430 Uiso
C5F C 0.32242(7) 0.6953(2) 0.6892(3) 0.0317 Uani
C6F C 0.34656(8) 0.6327(3) 0.6210(4) 0.0444 Uani
H5F H 0.3393 0.6073 0.5137 0.0530 Uiso
C7F C 0.38100(8) 0.6080(3) 0.7101(4) 0.0440 Uani
H6F H 0.3967 0.5654 0.6631 0.0530 Uiso
C8F C 0.28523(7) 0.7233(2) 0.5930(3) 0.0324 Uani
C9F C 0.27744(7) 0.8245(2) 0.5484(3) 0.0328 Uani
C10F C 0.30367(7) 0.9040(2) 0.5972(4) 0.0416 Uani
H7F H 0.3272 0.8877 0.6559 0.0500 Uiso
C11F C 0.29545(9) 1.0018(2) 0.5610(4) 0.0441 Uani
C12F C 0.35186(12) 1.0620(3) 0.7185(6) 0.0817 Uani
H8F H 0.3469 1.0206 0.8089 0.1220 Uiso
H9F H 0.3687 1.0271 0.6595 0.1220 Uiso
H10F H 0.3629 1.1248 0.7617 0.1220 Uiso
C13F C 0.26025(9) 1.0289(2) 0.4646(4) 0.0403 Uani
C14F C 0.22026(9) 1.1600(2) 0.3460(4) 0.0513 Uani
H11F H 0.2012 1.1424 0.4086 0.0770 Uiso
H12F H 0.2203 1.2321 0.3294 0.0770 Uiso
H13F H 0.2155 1.1265 0.2398 0.0770 Uiso
C15F C 0.23526(7) 0.9560(2) 0.4111(3) 0.0358 Uani
H14F H 0.2129 0.9740 0.3440 0.0430 Uiso
C16F C 0.24191(7) 0.8515(2) 0.4540(3) 0.0324 Uani
O7 O -0.0794(4) 0.7670(9) -0.1127(7) 0.3806 Uani
loop_
_atom_site_aniso_label
_atom_site_aniso_U_11
_atom_site_aniso_U_22
_atom_site_aniso_U_33
_atom_site_aniso_U_23
_atom_site_aniso_U_13
_atom_site_aniso_U_12
Co1 0.0141(3) 0.0435(3) 0.0255(3) 0.0004(2) -0.00273(19) 0.00485(19)
O1 0.0218(12) 0.0447(15) 0.0257(12) 0.000 -0.0040(9) 0.000
O2 0.0436(12) 0.0669(14) 0.0353(11) -0.0068(10) 0.0055(9) -0.0172(10)
O3 0.0222(9) 0.0703(14) 0.0324(10) -0.0004(9) -0.0031(7) 0.0178(9)
O4 0.0395(13) 0.107(2) 0.0394(12) -0.0179(12) -0.0127(9) 0.0370(13)
O5 0.0567(15) 0.0507(14) 0.0856(18) 0.0230(13) -0.0297(13) -0.0230(12)
O6 0.0514(13) 0.0355(11) 0.0625(14) 0.0113(10) -0.0112(11) -0.0013(10)
C1 0.0252(14) 0.0540(18) 0.0299(14) 0.0017(12) -0.0034(11) 0.0107(12)
C2 0.0198(13) 0.0445(15) 0.0329(14) 0.0018(11) -0.0020(10) 0.0068(11)
C3 0.0286(14) 0.0516(17) 0.0298(14) -0.0037(12) -0.0045(11) 0.0111(12)
C4 0.0246(13) 0.0440(16) 0.0381(15) 0.0020(12) 0.0014(11) 0.0120(12)
C5 0.0179(12) 0.0368(14) 0.0382(14) 0.0054(11) -0.0011(10) 0.0034(10)
C6 0.0272(14) 0.065(2) 0.0367(15) -0.0093(14) -0.0064(11) 0.0108(14)
C7 0.0235(14) 0.0653(19) 0.0405(16) -0.0104(14) -0.0020(11) 0.0157(13)
C8 0.0193(12) 0.0404(15) 0.0346(14) 0.0035(11) -0.0033(10) 0.0056(11)
C9 0.0204(13) 0.0382(14) 0.0374(14) 0.0057(11) -0.0019(10) 0.0012(10)
C10 0.0226(14) 0.0474(17) 0.0493(17) 0.0118(14) -0.0092(12) -0.0055(12)
C11 0.0364(17) 0.0422(17) 0.0485(18) 0.0096(13) -0.0072(14) -0.0114(12)
C12 0.063(2) 0.073(3) 0.092(3) 0.024(2) -0.034(2) -0.033(2)
C13 0.0394(17) 0.0370(15) 0.0417(16) 0.0079(12) -0.0011(13) 0.0005(13)
C14 0.0490(19) 0.0412(17) 0.060(2) 0.0078(15) -0.0004(15) 0.0107(14)
C15 0.0266(14) 0.0391(15) 0.0384(15) 0.0062(12) -0.0036(11) 0.0058(12)
C16 0.0211(13) 0.0387(14) 0.0349(14) 0.0048(11) -0.0020(10) 0.0043(11)
Co1B 0.0141 0.0435 0.0255 0.0004 -0.00273 0.00485
Co1A 0.0141 0.0435 0.0255 -0.0004 -0.00273 -0.00485
O1D 0.0218 0.0447 0.0257 0 -0.004 0
O2D 0.0436 0.0669 0.0353 -0.0068 0.0055 -0.0172
O3F 0.0222 0.0703 0.0324 -0.0004 -0.0031 0.0178
O3D 0.0222 0.0703 0.0324 -0.0004 -0.0031 0.0178
O4F 0.0395 0.107 0.0394 -0.0179 -0.0127 0.037
O5F 0.0567 0.0507 0.0856 0.023 -0.0297 -0.023
O6F 0.0514 0.0355 0.0625 0.0113 -0.0112 -0.0013
C1F 0.0252 0.054 0.0299 0.0017 -0.0034 0.0107
C2F 0.0198 0.0445 0.0329 0.0018 -0.002 0.0068
C3F 0.0286 0.0516 0.0298 -0.0037 -0.0045 0.0111
C4F 0.0246 0.044 0.0381 0.002 0.0014 0.012
C5F 0.0179 0.0368 0.0382 0.0054 -0.0011 0.0034
C6F 0.0272 0.065 0.0367 -0.0093 -0.0064 0.0108
C7F 0.0235 0.0653 0.0405 -0.0104 -0.002 0.0157
C8F 0.0193 0.0404 0.0346 0.0035 -0.0033 0.0056
C9F 0.0204 0.0382 0.0374 0.0057 -0.0019 0.0012
C10F 0.0226 0.0474 0.0493 0.0118 -0.0092 -0.0055
C11F 0.0364 0.0422 0.0485 0.0096 -0.0072 -0.0114
C12F 0.063 0.073 0.092 0.024 -0.034 -0.033
C13F 0.0394 0.037 0.0417 0.0079 -0.0011 0.0005
C14F 0.049 0.0412 0.06 0.0078 -0.0004 0.0107
C15F 0.0266 0.0391 0.0384 0.0062 -0.0036 0.0058
C16F 0.0211 0.0387 0.0349 0.0048 -0.002 0.0043
O7 0.554(17) 0.494(16) 0.087(3) -0.035(6) 0.037(6) -0.416(15)
loop_
_geom_bond_atom_site_label_1
_geom_bond_atom_site_label_2
_geom_bond_site_symmetry_1
_geom_bond_site_symmetry_2
Co1 O1 1_555 1_555
O1 Co1A 1_555 1_555
O2 Co1 1_555 1_555
H1 O2 1_555 1_555
H2 O2 1_555 1_555
O3 Co1 1_555 1_555
O4 C1 1_555 1_555
O5 C11 1_555 1_555
O6 C13 1_555 1_555
C1 O3 1_555 1_555
C2 C1 1_555 1_555
C3 C2 1_555 1_555
H3 C3 1_555 1_555
C4 C3 1_555 1_555
H4 C4 1_555 1_555
C5 C4 1_555 1_555
C6 C5 1_555 1_555
H5 C6 1_555 1_555
C7 C2 1_555 1_555
H6 C7 1_555 1_555
C8 C5 1_555 1_555
C9 C8 1_555 1_555
C10 C9 1_555 1_555
H7 C10 1_555 1_555
C11 C10 1_555 1_555
C12 O5 1_555 1_555
H8 C12 1_555 1_555
H9 C12 1_555 1_555
H10 C12 1_555 1_555
C13 C11 1_555 1_555
C14 O6 1_555 1_555
H11 C14 1_555 1_555
H12 C14 1_555 1_555
H13 C14 1_555 1_555
C15 C13 1_555 1_555
H14 C15 1_555 1_555
C16 C9 1_555 1_555
Co1B O3F 1_555 1_555
O1D Co1 1_555 1_555
O2D Co1 1_555 1_555
H1D O2D 1_555 1_555
H2D O2D 1_555 1_555
O3F C1F 1_555 1_555
O3D Co1 1_555 1_555
O4F C1F 1_555 1_555
O5F C11F 1_555 1_555
O6F C13F 1_555 1_555
C1F C2F 1_555 1_555
C2F C3F 1_555 1_555
C3F H3F 1_555 1_555
C4F C3F 1_555 1_555
H4F C4F 1_555 1_555
C5F C4F 1_555 1_555
C6F C5F 1_555 1_555
H5F C6F 1_555 1_555
C7F C2F 1_555 1_555
H6F C7F 1_555 1_555
C8F C16 1_555 1_555
C9F C8F 1_555 1_555
C10F C9F 1_555 1_555
H7F C10F 1_555 1_555
C11F C10F 1_555 1_555
C12F O5F 1_555 1_555
H8F C12F 1_555 1_555
H9F C12F 1_555 1_555
H10F C12F 1_555 1_555
C13F C11F 1_555 1_555
C14F O6F 1_555 1_555
H11F C14F 1_555 1_555
H12F C14F 1_555 1_555
H13F C14F 1_555 1_555
C15F C13F 1_555 1_555
H14F C15F 1_555 1_555
C16F C8 1_555 1_555
C6 C7 1_555 1_555
C15 C16 1_555 1_555
C5F C8F 1_555 1_555
C6F C7F 1_555 1_555
C9F C16F 1_555 1_555
C15F C16F 1_555 1_555

#END
