
#######################################################################
#
#                 Cambridge Crystallographic Data Centre
#                                CCDC 
#
#######################################################################
#
# If this CIF has been generated from an entry in the Cambridge 
# Structural Database, then it will include bibliographic, chemical, 
# crystal, experimental, refinement or atomic coordinate data resulting 
# from the CCDC's data processing and validation procedures.
#
#######################################################################

data_GESFAN
_chemical_formula_moiety         '(C32 H30 Ni1 O11)n'
_symmetry_cell_setting           monoclinic
_symmetry_space_group_name_H-M   'C 2/c'
_symmetry_Int_Tables_number      15
_space_group_name_Hall           '-C 2yc'
loop_
_symmetry_equiv_pos_site_id
_symmetry_equiv_pos_as_xyz
1 x,y,z
2 -x,y,1/2-z
3 1/2+x,1/2+y,z
4 1/2-x,1/2+y,1/2-z
5 -x,-y,-z
6 x,-y,1/2+z
7 1/2-x,1/2-y,-z
8 1/2+x,1/2-y,1/2+z
_cell_length_a                   36.622(10)
_cell_length_b                   13.410(4)
_cell_length_c                   7.948(2)
_cell_angle_alpha                90
_cell_angle_beta                 99.958(5)
_cell_angle_gamma                90
_cell_volume                     3844.47
loop_
_atom_site_label
_atom_site_type_symbol
_atom_site_fract_x
_atom_site_fract_y
_atom_site_fract_z
_atom_site_U_iso_or_equiv
_atom_site_thermal_displace_type
Ni1 Ni 0.0000 0.0000 0.0000 0.0289 Uani
O1 O 0.25717(6) -0.12429(15) 0.4340(3) 0.0545 Uani
O2 O 0.32111(6) -0.07441(17) 0.5982(3) 0.0717 Uani
O3 O 0.04768(5) 0.06893(16) 0.1071(2) 0.0429 Uani
O4 O 0.06138(6) 0.14686(19) -0.1193(3) 0.0619 Uani
O5 O -0.03037(5) 0.11549(16) 0.0737(2) 0.0487 Uani
H1 H -0.0160 0.1645 0.1030 0.0580 Uiso
H2 H -0.0413 0.0981 0.1611 0.0730 Uiso
O6 O 0.0000 0.06255(19) -0.2500 0.0316 Uani
C1 C 0.06951(7) 0.1189(2) 0.0308(3) 0.0358 Uani
C2 C 0.10701(7) 0.1439(2) 0.1299(3) 0.0351 Uani
C3 C 0.13043(7) 0.2066(2) 0.0604(3) 0.0379 Uani
H3 H 0.1228 0.2326 -0.0485 0.0450 Uiso
C4 C 0.16512(7) 0.2313(2) 0.1506(3) 0.0365 Uani
H4 H 0.1804 0.2736 0.1014 0.0440 Uiso
C5 C 0.17725(6) 0.1936(2) 0.3133(3) 0.0338 Uani
C6 C 0.15380(7) 0.1299(2) 0.3815(4) 0.0462 Uani
H5 H 0.1615 0.1033 0.4900 0.0560 Uiso
C7 C 0.11901(7) 0.1048(2) 0.2914(4) 0.0458 Uani
H6 H 0.1038 0.0618 0.3396 0.0550 Uiso
C8 C 0.19502(7) 0.3995(2) 0.4109(4) 0.0445 Uani
H7 H 0.1714 0.3819 0.3556 0.0530 Uiso
C9 C 0.22202(7) 0.3230(2) 0.4558(3) 0.0353 Uani
C10 C 0.21465(6) 0.2225(2) 0.4094(3) 0.0332 Uani
C11 C 0.24230(7) 0.1496(2) 0.4530(3) 0.0339 Uani
C12 C 0.23605(7) 0.0460(2) 0.4102(3) 0.0390 Uani
H8 H 0.2136 0.0272 0.3444 0.0470 Uiso
C13 C 0.22127(9) -0.1571(2) 0.3545(4) 0.0548 Uani
H9 H 0.2152 -0.1280 0.2428 0.0820 Uiso
H10 H 0.2033 -0.1370 0.4225 0.0820 Uiso
H11 H 0.2212 -0.2285 0.3447 0.0820 Uiso
C14 C 0.26166(8) -0.0248(2) 0.4622(4) 0.0413 Uani
C15 C 0.29750(8) 0.0039(2) 0.5541(4) 0.0470 Uani
C16 C 0.35541(11) -0.0532(3) 0.7062(6) 0.0865 Uani
H12 H 0.3709 -0.0153 0.6439 0.1300 Uiso
H13 H 0.3676 -0.1146 0.7443 0.1300 Uiso
H14 H 0.3509 -0.0155 0.8032 0.1300 Uiso
Ni1B Ni 0.5000 0.5000 1.0000 0.0289 Uani
Ni1A Ni 0.0000 -0.0000 -0.5000 0.0289 Uani
O1F O 0.24283(6) 0.62429(15) 0.5660(3) 0.0545 Uani
O2F O 0.17889(6) 0.57441(17) 0.4018(3) 0.0717 Uani
O3F O 0.45232(5) 0.43107(16) 0.8929(2) 0.0429 Uani
O3D O -0.04768(5) -0.06893(16) -0.1071(2) 0.0429 Uani
O4F O 0.43862(6) 0.35314(19) 1.1193(3) 0.0619 Uani
O5D O 0.03037(5) -0.11549(16) -0.0737(2) 0.0487 Uani
H1D H 0.0160 -0.1645 -0.1030 0.0580 Uiso
H2D H 0.0413 -0.0981 -0.1611 0.0730 Uiso
O6D O 0.0000 -0.06255(19) 0.2500 0.0316 Uani
C1F C 0.43049(7) 0.3811(2) 0.9692(3) 0.0358 Uani
C2F C 0.39299(7) 0.3561(2) 0.8701(3) 0.0351 Uani
C3F C 0.36957(7) 0.2934(2) 0.9396(3) 0.0379 Uani
H3F H 0.3772 0.2674 1.0485 0.0450 Uiso
C4F C 0.33488(7) 0.2687(2) 0.8494(3) 0.0365 Uani
H4F H 0.3196 0.2264 0.8986 0.0440 Uiso
C5F C 0.32275(6) 0.3064(2) 0.6867(3) 0.0338 Uani
C6F C 0.34620(7) 0.3701(2) 0.6185(4) 0.0462 Uani
H5F H 0.3385 0.3967 0.5100 0.0560 Uiso
C7F C 0.38099(7) 0.3952(2) 0.7086(4) 0.0458 Uani
H6F H 0.3962 0.4382 0.6604 0.0550 Uiso
C8F C 0.30498(7) 0.1005(2) 0.5891(4) 0.0445 Uani
H7F H 0.3286 0.1181 0.6444 0.0530 Uiso
C9F C 0.27798(7) 0.1770(2) 0.5442(3) 0.0353 Uani
C10F C 0.28535(6) 0.2775(2) 0.5906(3) 0.0332 Uani
C11F C 0.25770(7) 0.3504(2) 0.5470(3) 0.0339 Uani
C12F C 0.26395(7) 0.4540(2) 0.5898(3) 0.0390 Uani
H8F H 0.2864 0.4728 0.6556 0.0470 Uiso
C13F C 0.27873(9) 0.6571(2) 0.6455(4) 0.0548 Uani
H9F H 0.2848 0.6280 0.7572 0.0820 Uiso
H10F H 0.2967 0.6370 0.5775 0.0820 Uiso
H11F H 0.2788 0.7285 0.6553 0.0820 Uiso
C14F C 0.23834(8) 0.5248(2) 0.5378(4) 0.0413 Uani
C15F C 0.20250(8) 0.4961(2) 0.4459(4) 0.0470 Uani
C16F C 0.14459(11) 0.5532(3) 0.2938(6) 0.0865 Uani
H12F H 0.1291 0.5153 0.3561 0.1300 Uiso
H13F H 0.1324 0.6146 0.2557 0.1300 Uiso
H14F H 0.1491 0.5155 0.1968 0.1300 Uiso
loop_
_atom_site_aniso_label
_atom_site_aniso_U_11
_atom_site_aniso_U_22
_atom_site_aniso_U_33
_atom_site_aniso_U_23
_atom_site_aniso_U_13
_atom_site_aniso_U_12
Ni1 0.0174(2) 0.0393(3) 0.0285(3) 0.0002(2) -0.00020(16) -0.00390(19)
O1 0.0561(13) 0.0348(13) 0.0671(14) -0.0095(10) -0.0049(11) 0.0012(10)
O2 0.0590(14) 0.0496(15) 0.0920(17) -0.0256(12) -0.0280(12) 0.0250(12)
O3 0.0260(9) 0.0626(14) 0.0372(10) 0.0029(9) -0.0030(8) -0.0176(9)
O4 0.0425(12) 0.0940(19) 0.0431(12) 0.0196(11) -0.0094(9) -0.0333(12)
O5 0.0483(12) 0.0527(14) 0.0460(12) 0.0045(9) 0.0104(9) 0.0092(10)
O6 0.0251(12) 0.0435(16) 0.0246(12) 0.000 -0.0002(9) 0.000
C1 0.0248(13) 0.0421(17) 0.0381(15) -0.0007(12) -0.0011(11) -0.0076(12)
C2 0.0229(12) 0.0418(17) 0.0388(15) -0.0008(12) 0.0004(11) -0.0052(11)
C3 0.0307(14) 0.0453(17) 0.0354(14) 0.0034(12) -0.0004(11) -0.0103(12)
C4 0.0280(13) 0.0372(16) 0.0438(15) -0.0005(12) 0.0049(11) -0.0093(12)
C5 0.0211(12) 0.0362(16) 0.0419(15) -0.0038(12) -0.0005(11) -0.0034(11)
C6 0.0306(14) 0.062(2) 0.0420(16) 0.0131(14) -0.0051(12) -0.0097(14)
C7 0.0273(14) 0.061(2) 0.0471(17) 0.0126(14) 0.0006(12) -0.0168(13)
C8 0.0245(13) 0.0493(19) 0.0547(18) -0.0134(14) -0.0068(12) 0.0029(13)
C9 0.0228(13) 0.0374(16) 0.0435(15) -0.0033(12) -0.0003(11) -0.0027(11)
C10 0.0217(12) 0.0358(16) 0.0403(15) -0.0032(11) 0.0007(10) -0.0051(11)
C11 0.0242(13) 0.0349(16) 0.0413(15) -0.0038(12) 0.0017(11) -0.0048(11)
C12 0.0306(14) 0.0379(16) 0.0453(16) -0.0054(13) -0.0022(12) -0.0065(12)
C13 0.0549(19) 0.041(2) 0.066(2) -0.0061(15) 0.0038(16) -0.0128(15)
C14 0.0417(16) 0.0318(17) 0.0482(17) -0.0076(12) 0.0013(13) -0.0005(12)
C15 0.0397(16) 0.0439(18) 0.0524(18) -0.0140(14) -0.0059(13) 0.0094(14)
C16 0.070(2) 0.079(3) 0.094(3) -0.025(2) -0.032(2) 0.037(2)
Ni1B 0.0174 0.0393 0.0285 0.0002 -0.0002 -0.0039
Ni1A 0.0174 0.0393 0.0285 -0.0002 -0.0002 0.0039
O1F 0.0561 0.0348 0.0671 -0.0095 -0.0049 0.0012
O2F 0.059 0.0496 0.092 -0.0256 -0.028 0.025
O3F 0.026 0.0626 0.0372 0.0029 -0.003 -0.0176
O3D 0.026 0.0626 0.0372 0.0029 -0.003 -0.0176
O4F 0.0425 0.094 0.0431 0.0196 -0.0094 -0.0333
O5D 0.0483 0.0527 0.046 0.0045 0.0104 0.0092
O6D 0.0251 0.0435 0.0246 0 -0.0002 0
C1F 0.0248 0.0421 0.0381 -0.0007 -0.0011 -0.0076
C2F 0.0229 0.0418 0.0388 -0.0008 0.0004 -0.0052
C3F 0.0307 0.0453 0.0354 0.0034 -0.0004 -0.0103
C4F 0.028 0.0372 0.0438 -0.0005 0.0049 -0.0093
C5F 0.0211 0.0362 0.0419 -0.0038 -0.0005 -0.0034
C6F 0.0306 0.062 0.042 0.0131 -0.0051 -0.0097
C7F 0.0273 0.061 0.0471 0.0126 0.0006 -0.0168
C8F 0.0245 0.0493 0.0547 -0.0134 -0.0068 0.0029
C9F 0.0228 0.0374 0.0435 -0.0033 -0.0003 -0.0027
C10F 0.0217 0.0358 0.0403 -0.0032 0.0007 -0.0051
C11F 0.0242 0.0349 0.0413 -0.0038 0.0017 -0.0048
C12F 0.0306 0.0379 0.0453 -0.0054 -0.0022 -0.0065
C13F 0.0549 0.041 0.066 -0.0061 0.0038 -0.0128
C14F 0.0417 0.0318 0.0482 -0.0076 0.0013 -0.0005
C15F 0.0397 0.0439 0.0524 -0.014 -0.0059 0.0094
C16F 0.07 0.079 0.094 -0.025 -0.032 0.037
loop_
_geom_bond_atom_site_label_1
_geom_bond_atom_site_label_2
_geom_bond_site_symmetry_1
_geom_bond_site_symmetry_2
Ni1 O3 1_555 1_555
O1 C13 1_555 1_555
O2 C15 1_555 1_555
O3 C1 1_555 1_555
O4 C1 1_555 1_555
O5 Ni1 1_555 1_555
H1 O5 1_555 1_555
H2 O5 1_555 1_555
O6 Ni1 1_555 1_555
C1 C2 1_555 1_555
C2 C3 1_555 1_555
C3 H3 1_555 1_555
C4 C3 1_555 1_555
H4 C4 1_555 1_555
C5 C4 1_555 1_555
C6 C5 1_555 1_555
H5 C6 1_555 1_555
C7 C2 1_555 1_555
H6 C7 1_555 1_555
C8 H7 1_555 1_555
C9 C8 1_555 1_555
C10 C5 1_555 1_555
C11 C10 1_555 1_555
C12 C11 1_555 1_555
H8 C12 1_555 1_555
C13 H9 1_555 1_555
H10 C13 1_555 1_555
H11 C13 1_555 1_555
C14 O1 1_555 1_555
C15 C14 1_555 1_555
C16 O2 1_555 1_555
H12 C16 1_555 1_555
H13 C16 1_555 1_555
H14 C16 1_555 1_555
Ni1B O3F 1_555 1_555
Ni1A O6 1_555 1_555
O1F C13F 1_555 1_555
O2F C15F 1_555 1_555
O3F C1F 1_555 1_555
O3D Ni1 1_555 1_555
O4F C1F 1_555 1_555
O5D Ni1 1_555 1_555
H1D O5D 1_555 1_555
H2D O5D 1_555 1_555
O6D Ni1 1_555 1_555
C1F C2F 1_555 1_555
C2F C3F 1_555 1_555
C3F H3F 1_555 1_555
C4F C3F 1_555 1_555
H4F C4F 1_555 1_555
C5F C4F 1_555 1_555
C6F C5F 1_555 1_555
H5F C6F 1_555 1_555
C7F C2F 1_555 1_555
H6F C7F 1_555 1_555
C8F C15 1_555 1_555
H7F C8F 1_555 1_555
C9F C11 1_555 1_555
C10F C5F 1_555 1_555
C11F C9 1_555 1_555
C12F C11F 1_555 1_555
H8F C12F 1_555 1_555
C13F H9F 1_555 1_555
H10F C13F 1_555 1_555
H11F C13F 1_555 1_555
C14F O1F 1_555 1_555
C15F C8 1_555 1_555
C16F O2F 1_555 1_555
H12F C16F 1_555 1_555
H13F C16F 1_555 1_555
H14F C16F 1_555 1_555
C6 C7 1_555 1_555
C9 C10 1_555 1_555
C12 C14 1_555 1_555
C6F C7F 1_555 1_555
C8F C9F 1_555 1_555
C9F C10F 1_555 1_555
C10F C11F 1_555 1_555
C12F C14F 1_555 1_555
C14F C15F 1_555 1_555

#END
