
#######################################################################
#
#                 Cambridge Crystallographic Data Centre
#                                CCDC 
#
#######################################################################
#
# If this CIF has been generated from an entry in the Cambridge 
# Structural Database, then it will include bibliographic, chemical, 
# crystal, experimental, refinement or atomic coordinate data resulting 
# from the CCDC's data processing and validation procedures.
#
#######################################################################

data_HUXWAY
_chemical_formula_moiety         '(C24 H38 Cu3 O37 Tb2)n'
_symmetry_cell_setting           hexagonal
_symmetry_space_group_name_H-M   'P 6/m c c'
_symmetry_Int_Tables_number      192
_space_group_name_Hall           '-P 6 2c'
loop_
_symmetry_equiv_pos_site_id
_symmetry_equiv_pos_as_xyz
1 x,y,z
2 x-y,x,z
3 -y,-x,1/2-z
4 -y,x-y,z
5 x-y,-y,1/2-z
6 -x,-y,z
7 x,x-y,1/2-z
8 -x+y,-x,z
9 y,x,1/2-z
10 y,-x+y,z
11 -x+y,y,1/2-z
12 -x,-x+y,1/2-z
13 -x,-y,-z
14 -x+y,-x,-z
15 y,x,1/2+z
16 y,-x+y,-z
17 -x+y,y,1/2+z
18 x,y,-z
19 -x,-x+y,1/2+z
20 x-y,x,-z
21 -y,-x,1/2+z
22 -y,x-y,-z
23 x-y,-y,1/2+z
24 x,x-y,1/2+z
_cell_length_a                   14.693(2)
_cell_length_b                   14.693(2)
_cell_length_c                   15.125(2)
_cell_angle_alpha                90
_cell_angle_beta                 90
_cell_angle_gamma                120
_cell_volume                     2827.79
loop_
_atom_site_label
_atom_site_type_symbol
_atom_site_fract_x
_atom_site_fract_y
_atom_site_fract_z
O1 O 0.80505(16) 0.41773(15) 0.35607(14)
O2 O 0.94784(17) 0.55754(16) 0.40994(14)
O3 O 0.76376(11) 0.5275(2) 0.2500
C1 C 0.8694(2) 0.5140(2) 0.36074(19)
C2 C 0.8514(2) 0.5870(2) 0.3035(2)
H1 H 0.8396 0.6343 0.3402
H2 H 0.9128 0.6288 0.2670
O4 O 0.8406(3) 0.3208(3) 0.5000
H3 H 0.816(4) 0.342(3) 0.544(3)
Tb1 Tb 0.6667 0.3333 0.2500
Cu1 Cu 1.0000 0.5000 0.5000
C2J C 0.7356(3) 0.5870(2) 0.1965(2)
H3Q H 0.816(4) 0.342(3) 0.456(3)
O1B O 0.58227(15) 0.19495(16) 0.14393(14)
O1G O 0.61268(22) 0.19495(16) 0.35607(14)
O1F O 0.80505(16) 0.38732(22) 0.14393(14)
O1C O 0.58227(15) 0.38732(22) 0.35607(14)
O1J O 0.61268(22) 0.41773(15) 0.14393(14)
O3B O 0.4725(2) 0.23624(11) 0.2500
O3G O 0.76374(23) 0.23624(11) 0.2500
O2E O 1.05216(17) 0.44246(16) 0.40994(14)
O2L O 1.05216(17) 0.44246(16) 0.59006(14)
O2Q O 0.94784(17) 0.55754(16) 0.59006(14)
O4E O 1.1594(3) 0.6792(3) 0.5000
C1J C 0.6446(3) 0.5140(2) 0.13926(19)
H1J H 0.7947 0.6343 0.1598
H2J H 0.7160 0.6288 0.2330
C1F C 0.8694(2) 0.3554(3) 0.13926(19)
C1B C 0.4860(2) 0.1306(2) 0.13926(19)
C2F C 0.8514(2) 0.2644(3) 0.1965(2)
C2G C 0.7356(3) 0.1486(2) 0.3035(2)
C2B C 0.4130(2) 0.1486(2) 0.1965(2)
C2C C 0.4130(2) 0.2644(3) 0.3035(2)
C1G C 0.6446(3) 0.1306(2) 0.36074(19)
C1C C 0.4860(2) 0.3554(3) 0.36074(19)
O2C O 0.44246(16) 0.39030(23) 0.40994(14)
O2G O 0.60970(23) 0.05216(17) 0.40994(14)
H1G H 0.7947 0.1604 0.3402
H2G H 0.7160 0.0872 0.2670
H1C H 0.3657 0.2053 0.3402
H2C H 0.3712 0.2840 0.2670
H1B H 0.3657 0.1604 0.1598
H2B H 0.3712 0.0872 0.2330
O2B O 0.44246(16) 0.05216(17) 0.09006(14)
H1F H 0.8396 0.2053 0.1598
H2F H 0.9128 0.2840 0.2330
O2F O 0.94784(17) 0.39030(23) 0.09006(14)
Cu1C Cu 0.5000 0.5000 0.5000
Cu1B Cu 0.5000 0.0000 0.0000
Cu1A Cu 0.5000 0.0000 0.5000
Cu1F Cu 1.0000 0.5000 0.0000
O2J O 0.60970(23) 0.55754(16) 0.09006(14)
Cu1D Cu 0.5000 0.5000 0.0000
C1L C 1.1306(2) 0.4860(2) 0.63926(19)
O1L O 1.19495(16) 0.58227(15) 0.64393(14)
C2L C 1.1486(2) 0.4130(2) 0.6965(2)
Tb1L Tb 1.3333 0.6667 0.7500
O3L O 1.23624(11) 0.4725(2) 0.7500
H1L H 1.1604 0.3657 0.6598
H2L H 1.0872 0.3712 0.7330
O1N O 1.41773(15) 0.80505(16) 0.85607(14)
O1O O 1.41773(15) 0.61268(22) 0.64393(14)
O1R O 1.19495(16) 0.61268(22) 0.85607(14)
O1S O 1.38732(22) 0.80505(16) 0.64393(14)
O1V O 1.38732(22) 0.58227(15) 0.85607(14)
O3N O 1.5275(2) 0.76376(11) 0.7500
O3R O 1.23624(11) 0.76374(23) 0.7500
C2V C 1.2644(3) 0.4130(2) 0.8035(2)
C1V C 1.3554(3) 0.4860(2) 0.86074(19)
H1V H 1.2053 0.3657 0.8402
H2V H 1.2840 0.3712 0.7670
O2V O 1.39030(23) 0.44246(16) 0.90994(14)
Cu1D_2 Cu 1.5000 0.5000 1.0000
C2N C 1.5870(2) 0.8514(2) 0.8035(2)
C2O C 1.5870(2) 0.7356(3) 0.6965(2)
C1N C 1.5140(2) 0.8694(2) 0.86074(19)
C1O C 1.5140(2) 0.6446(3) 0.63926(19)
H1O H 1.6343 0.7947 0.6598
H2O H 1.6288 0.7160 0.7330
H1N H 1.6343 0.8396 0.8402
H2N H 1.6288 0.9128 0.7670
O2N O 1.55754(16) 0.94784(17) 0.90994(14)
Cu1B_2 Cu 1.5000 1.0000 1.0000
C2R C 1.1486(2) 0.7356(3) 0.8035(2)
C2S C 1.2644(3) 0.8514(2) 0.6965(2)
C1S C 1.3554(3) 0.8694(2) 0.63926(19)
C1R C 1.1306(2) 0.6446(3) 0.86074(19)
H1R H 1.1604 0.7947 0.8402
H2R H 1.0872 0.7160 0.7670
O2R O 1.05216(17) 0.60970(23) 0.90994(14)
H1S H 1.2053 0.8396 0.6598
H2S H 1.2840 0.9128 0.7330
O2S O 1.39030(23) 0.94784(17) 0.59006(14)
Cu1A_2 Cu 1.5000 1.0000 0.5000
Cu1F_2 Cu 1.0000 0.5000 1.0000
O2O O 1.55754(16) 0.60970(23) 0.59006(14)
Cu1C_2 Cu 1.5000 0.5000 0.5000
O2F_2 O 0.94784(17) 0.39030(23) 1.09006(14)
O2K O 1.05216(17) 0.60970(23) 1.09006(14)
O2W O 0.94784(17) 0.39030(23) 0.90994(14)
O4F O 0.8406(3) 0.5198(4) 1.0000
O4K O 1.1594(3) 0.4802(4) 1.0000
O2B_2 O 1.44246(16) 1.05216(17) 1.09006(14)
O2H O 1.55754(16) 0.94784(17) 1.09006(14)
O2T O 1.44246(16) 1.05216(17) 0.90994(14)
O4B O 1.6792(3) 1.1594(3) 1.0000
O4H O 1.3208(3) 0.8406(3) 1.0000
H3E H 1.184(4) 0.658(3) 0.544(3)
H3L H 1.184(4) 0.658(3) 0.456(3)
H3F H 0.816(4) 0.474(5) 0.956(3)
H3W H 0.816(4) 0.474(5) 1.044(3)
H3K H 1.184(4) 0.526(5) 0.956(3)
H3R H 1.184(4) 0.526(5) 1.044(3)
H3B H 1.658(3) 1.184(4) 0.956(3)
H3T H 1.658(3) 1.184(4) 1.044(3)
H3H H 1.342(3) 0.816(4) 0.956(3)
H3N H 1.342(3) 0.816(4) 1.044(3)
O5 O 0.843(4) 0.726(3) 0.5000
loop_
_geom_bond_atom_site_label_1
_geom_bond_atom_site_label_2
_geom_bond_site_symmetry_1
_geom_bond_site_symmetry_2
O1 C1 1_555 1_555
O2 C1 1_555 1_555
O3 C2 1_555 1_555
C1 C2 1_555 1_555
C2 H1 1_555 1_555
H2 C2 1_555 1_555
O4 H3 1_555 1_555
Tb1 O1 1_555 1_555
Cu1 O2 1_555 1_555
C2J O3 1_555 1_555
H3Q O4 1_555 1_555
O1B Tb1 1_555 1_555
O1G Tb1 1_555 1_555
O1F Tb1 1_555 1_555
O1C Tb1 1_555 1_555
O1J Tb1 1_555 1_555
O3B Tb1 1_555 1_555
O3G Tb1 1_555 1_555
O2E Cu1 1_555 1_555
O2L Cu1 1_555 1_555
O2Q Cu1 1_555 1_555
O4E Cu1 1_555 1_555
C1J C2J 1_555 1_555
H1J C2J 1_555 1_555
H2J C2J 1_555 1_555
C1F O1F 1_555 1_555
C1B O1B 1_555 1_555
C2F O3G 1_555 1_555
C2G O3G 1_555 1_555
C2B O3B 1_555 1_555
C2C O3B 1_555 1_555
C1G O1G 1_555 1_555
C1C O1C 1_555 1_555
O2C C1C 1_555 1_555
O2G C1G 1_555 1_555
H1G C2G 1_555 1_555
H2G C2G 1_555 1_555
H1C C2C 1_555 1_555
H2C C2C 1_555 1_555
H1B C2B 1_555 1_555
H2B C2B 1_555 1_555
O2B C1B 1_555 1_555
H1F C2F 1_555 1_555
H2F C2F 1_555 1_555
O2F C1F 1_555 1_555
Cu1C O2C 1_555 1_555
Cu1B O2B 1_555 1_555
Cu1A O2G 1_555 1_555
Cu1F O2F 1_555 1_555
O2J C1J 1_555 1_555
Cu1D O2J 1_555 1_555
C1L O2L 1_555 1_555
O1L C1L 1_555 1_555
C2L C1L 1_555 1_555
Tb1L O1L 1_555 1_555
O3L C2L 1_555 1_555
H1L C2L 1_555 1_555
H2L C2L 1_555 1_555
O1N Tb1L 1_555 1_555
O1O Tb1L 1_555 1_555
O1R Tb1L 1_555 1_555
O1S Tb1L 1_555 1_555
O1V Tb1L 1_555 1_555
O3N Tb1L 1_555 1_555
O3R Tb1L 1_555 1_555
C2V O3L 1_555 1_555
C1V O1V 1_555 1_555
H1V C2V 1_555 1_555
H2V C2V 1_555 1_555
O2V C1V 1_555 1_555
Cu1D_2 O2V 1_555 1_555
C2N O3N 1_555 1_555
C2O O3N 1_555 1_555
C1N O1N 1_555 1_555
C1O O1O 1_555 1_555
H1O C2O 1_555 1_555
H2O C2O 1_555 1_555
H1N C2N 1_555 1_555
H2N C2N 1_555 1_555
O2N C1N 1_555 1_555
Cu1B_2 O2N 1_555 1_555
C2R O3R 1_555 1_555
C2S O3R 1_555 1_555
C1S O1S 1_555 1_555
C1R O1R 1_555 1_555
H1R C2R 1_555 1_555
H2R C2R 1_555 1_555
O2R C1R 1_555 1_555
H1S C2S 1_555 1_555
H2S C2S 1_555 1_555
O2S C1S 1_555 1_555
Cu1A_2 O2S 1_555 1_555
Cu1F_2 O2R 1_555 1_555
O2O C1O 1_555 1_555
Cu1C_2 O2O 1_555 1_555
O2F_2 Cu1F_2 1_555 1_555
O2K Cu1F_2 1_555 1_555
O2W Cu1F_2 1_555 1_555
O4F Cu1F_2 1_555 1_555
O4K Cu1F_2 1_555 1_555
O2B_2 Cu1B_2 1_555 1_555
O2H Cu1B_2 1_555 1_555
O2T Cu1B_2 1_555 1_555
O4B Cu1B_2 1_555 1_555
O4H Cu1B_2 1_555 1_555
H3E O4E 1_555 1_555
H3L O4E 1_555 1_555
H3F O4F 1_555 1_555
H3W O4F 1_555 1_555
H3K O4K 1_555 1_555
H3R O4K 1_555 1_555
H3B O4B 1_555 1_555
H3T O4B 1_555 1_555
H3H O4H 1_555 1_555
H3N O4H 1_555 1_555
O3 Tb1 1_555 1_555
O4 Cu1 1_555 1_555
O1J C1J 1_555 1_555
C1F C2F 1_555 1_555
C1B C2B 1_555 1_555
C2G C1G 1_555 1_555
C2C C1C 1_555 1_555
Tb1L O3L 1_555 1_555
C2V C1V 1_555 1_555
C2N C1N 1_555 1_555
C2O C1O 1_555 1_555
C2R C1R 1_555 1_555
C2S C1S 1_555 1_555

#END
