
#######################################################################
#
#                 Cambridge Crystallographic Data Centre
#                                CCDC 
#
#######################################################################
#
# If this CIF has been generated from an entry in the Cambridge 
# Structural Database, then it will include bibliographic, chemical, 
# crystal, experimental, refinement or atomic coordinate data resulting 
# from the CCDC's data processing and validation procedures.
#
#######################################################################

data_REYMOZ
_chemical_formula_moiety         '(C18 H18 Cu3 Mo12 O62 P1)n'
_symmetry_cell_setting           cubic
_symmetry_space_group_name_H-M   'F m -3 m'
_symmetry_Int_Tables_number      225
_space_group_name_Hall           '-F 4 2 3'
loop_
_symmetry_equiv_pos_site_id
_symmetry_equiv_pos_as_xyz
1 x,y,z
2 -x,-y,z
3 -x,y,-z
4 x,-y,-z
5 z,x,y
6 z,-x,-y
7 -z,-x,y
8 -z,x,-y
9 y,z,x
10 -y,z,-x
11 y,-z,-x
12 -y,-z,x
13 y,x,-z
14 -y,-x,-z
15 y,-x,z
16 -y,x,z
17 x,z,-y
18 -x,z,y
19 -x,-z,-y
20 x,-z,y
21 z,y,-x
22 z,-y,x
23 -z,y,x
24 -z,-y,-x
25 x,1/2+y,1/2+z
26 -x,1/2-y,1/2+z
27 -x,1/2+y,1/2-z
28 x,1/2-y,1/2-z
29 z,1/2+x,1/2+y
30 z,1/2-x,1/2-y
31 -z,1/2-x,1/2+y
32 -z,1/2+x,1/2-y
33 y,1/2+z,1/2+x
34 -y,1/2+z,1/2-x
35 y,1/2-z,1/2-x
36 -y,1/2-z,1/2+x
37 y,1/2+x,1/2-z
38 -y,1/2-x,1/2-z
39 y,1/2-x,1/2+z
40 -y,1/2+x,1/2+z
41 x,1/2+z,1/2-y
42 -x,1/2+z,1/2+y
43 -x,1/2-z,1/2-y
44 x,1/2-z,1/2+y
45 z,1/2+y,1/2-x
46 z,1/2-y,1/2+x
47 -z,1/2+y,1/2+x
48 -z,1/2-y,1/2-x
49 1/2+x,y,1/2+z
50 1/2-x,-y,1/2+z
51 1/2-x,y,1/2-z
52 1/2+x,-y,1/2-z
53 1/2+z,x,1/2+y
54 1/2+z,-x,1/2-y
55 1/2-z,-x,1/2+y
56 1/2-z,x,1/2-y
57 1/2+y,z,1/2+x
58 1/2-y,z,1/2-x
59 1/2+y,-z,1/2-x
60 1/2-y,-z,1/2+x
61 1/2+y,x,1/2-z
62 1/2-y,-x,1/2-z
63 1/2+y,-x,1/2+z
64 1/2-y,x,1/2+z
65 1/2+x,z,1/2-y
66 1/2-x,z,1/2+y
67 1/2-x,-z,1/2-y
68 1/2+x,-z,1/2+y
69 1/2+z,y,1/2-x
70 1/2+z,-y,1/2+x
71 1/2-z,y,1/2+x
72 1/2-z,-y,1/2-x
73 1/2+x,1/2+y,z
74 1/2-x,1/2-y,z
75 1/2-x,1/2+y,-z
76 1/2+x,1/2-y,-z
77 1/2+z,1/2+x,y
78 1/2+z,1/2-x,-y
79 1/2-z,1/2-x,y
80 1/2-z,1/2+x,-y
81 1/2+y,1/2+z,x
82 1/2-y,1/2+z,-x
83 1/2+y,1/2-z,-x
84 1/2-y,1/2-z,x
85 1/2+y,1/2+x,-z
86 1/2-y,1/2-x,-z
87 1/2+y,1/2-x,z
88 1/2-y,1/2+x,z
89 1/2+x,1/2+z,-y
90 1/2-x,1/2+z,y
91 1/2-x,1/2-z,-y
92 1/2+x,1/2-z,y
93 1/2+z,1/2+y,-x
94 1/2+z,1/2-y,x
95 1/2-z,1/2+y,x
96 1/2-z,1/2-y,-x
97 -x,-y,-z
98 x,y,-z
99 x,-y,z
100 -x,y,z
101 -z,-x,-y
102 -z,x,y
103 z,x,-y
104 z,-x,y
105 -y,-z,-x
106 y,-z,x
107 -y,z,x
108 y,z,-x
109 -y,-x,z
110 y,x,z
111 -y,x,-z
112 y,-x,-z
113 -x,-z,y
114 x,-z,-y
115 x,z,y
116 -x,z,-y
117 -z,-y,x
118 -z,y,-x
119 z,-y,-x
120 z,y,x
121 -x,1/2-y,1/2-z
122 x,1/2+y,1/2-z
123 x,1/2-y,1/2+z
124 -x,1/2+y,1/2+z
125 -z,1/2-x,1/2-y
126 -z,1/2+x,1/2+y
127 z,1/2+x,1/2-y
128 z,1/2-x,1/2+y
129 -y,1/2-z,1/2-x
130 y,1/2-z,1/2+x
131 -y,1/2+z,1/2+x
132 y,1/2+z,1/2-x
133 -y,1/2-x,1/2+z
134 y,1/2+x,1/2+z
135 -y,1/2+x,1/2-z
136 y,1/2-x,1/2-z
137 -x,1/2-z,1/2+y
138 x,1/2-z,1/2-y
139 x,1/2+z,1/2+y
140 -x,1/2+z,1/2-y
141 -z,1/2-y,1/2+x
142 -z,1/2+y,1/2-x
143 z,1/2-y,1/2-x
144 z,1/2+y,1/2+x
145 1/2-x,-y,1/2-z
146 1/2+x,y,1/2-z
147 1/2+x,-y,1/2+z
148 1/2-x,y,1/2+z
149 1/2-z,-x,1/2-y
150 1/2-z,x,1/2+y
151 1/2+z,x,1/2-y
152 1/2+z,-x,1/2+y
153 1/2-y,-z,1/2-x
154 1/2+y,-z,1/2+x
155 1/2-y,z,1/2+x
156 1/2+y,z,1/2-x
157 1/2-y,-x,1/2+z
158 1/2+y,x,1/2+z
159 1/2-y,x,1/2-z
160 1/2+y,-x,1/2-z
161 1/2-x,-z,1/2+y
162 1/2+x,-z,1/2-y
163 1/2+x,z,1/2+y
164 1/2-x,z,1/2-y
165 1/2-z,-y,1/2+x
166 1/2-z,y,1/2-x
167 1/2+z,-y,1/2-x
168 1/2+z,y,1/2+x
169 1/2-x,1/2-y,-z
170 1/2+x,1/2+y,-z
171 1/2+x,1/2-y,z
172 1/2-x,1/2+y,z
173 1/2-z,1/2-x,-y
174 1/2-z,1/2+x,y
175 1/2+z,1/2+x,-y
176 1/2+z,1/2-x,y
177 1/2-y,1/2-z,-x
178 1/2+y,1/2-z,x
179 1/2-y,1/2+z,x
180 1/2+y,1/2+z,-x
181 1/2-y,1/2-x,z
182 1/2+y,1/2+x,z
183 1/2-y,1/2+x,-z
184 1/2+y,1/2-x,-z
185 1/2-x,1/2-z,y
186 1/2+x,1/2-z,-y
187 1/2+x,1/2+z,y
188 1/2-x,1/2+z,-y
189 1/2-z,1/2-y,x
190 1/2-z,1/2+y,-x
191 1/2+z,1/2-y,-x
192 1/2+z,1/2+y,x
_cell_length_a                   26.3016(3)
_cell_length_b                   26.3016(3)
_cell_length_c                   26.3016(3)
_cell_angle_alpha                90
_cell_angle_beta                 90
_cell_angle_gamma                90
_cell_volume                     18194.8
loop_
_atom_site_label
_atom_site_type_symbol
_atom_site_fract_x
_atom_site_fract_y
_atom_site_fract_z
Cu1 Cu 0.28513(2) 0.0000 0.21487(2)
O4 O 0.24335(10) 0.05261(10) 0.18300(11)
O5 O 0.3439(2) 0.0000 0.1561(2)
C1 C 0.17692(14) 0.1122(2) 0.17692(14)
C2 C 0.13391(15) 0.13391(15) 0.1983(2)
H1 H 0.1195 0.1195 0.2273
C3 C 0.20276(14) 0.06875(19) 0.20276(14)
O4D O 0.18300(11) 0.24335(10) 0.05261(10)
C1D C 0.17692(14) 0.17692(14) 0.1122(2)
C2D C 0.1983(2) 0.13391(15) 0.13391(15)
H1D H 0.2273 0.1195 0.1195
C3D C 0.20276(14) 0.20276(14) 0.06875(19)
O4H O 0.05261(10) 0.18300(11) 0.24335(10)
C1H C 0.1122(2) 0.17692(14) 0.17692(14)
C2H C 0.13391(15) 0.1983(2) 0.13391(15)
H1H H 0.1195 0.2273 0.1195
C3H C 0.06875(19) 0.20276(14) 0.20276(14)
O4ED O 0.05261(10) 0.24335(10) 0.18300(11)
O4JD O 0.24335(10) 0.18300(11) 0.05261(10)
O4OD O 0.18300(11) 0.05261(10) 0.24335(10)
Cu1O Cu 0.0000 0.28513(2) 0.21487(2)
O5O O 0.0000 0.3439(2) 0.1561(2)
O4SB O 0.31700(11) -0.05261(10) 0.25665(10)
C1SB C 0.32308(14) -0.1122(2) 0.32308(14)
C2SB C 0.3017(2) -0.13391(15) 0.36609(15)
H1SB H 0.2727 -0.1195 0.3805
C3SB C 0.29724(14) -0.06875(19) 0.29724(14)
O4IB O 0.44739(10) -0.24335(10) 0.31700(11)
C1IB C 0.3878(2) -0.17692(14) 0.32308(14)
C2IB C 0.36609(15) -0.13391(15) 0.3017(2)
H1IB H 0.3805 -0.1195 0.2727
C3IB C 0.43125(19) -0.20276(14) 0.29724(14)
O4NB O 0.25665(10) -0.18300(11) 0.44739(10)
C1NB C 0.32308(14) -0.17692(14) 0.3878(2)
C2NB C 0.36609(15) -0.1983(2) 0.36609(15)
H1NB H 0.3805 -0.2273 0.3805
C3NB C 0.29724(14) -0.20276(14) 0.43125(19)
O4RE O 0.31700(11) -0.24335(10) 0.44739(10)
O4VE O 0.44739(10) -0.18300(11) 0.25665(10)
O4NE O 0.25665(10) -0.05261(10) 0.31700(11)
Cu1U Cu 0.21487(2) 0.0000 0.28513(2)
O5U O 0.1561(2) 0.0000 0.3439(2)
Cu1D Cu 0.21487(2) 0.28513(2) 0.0000
Cu1H Cu 0.0000 0.21487(2) 0.28513(2)
Cu1P Cu 0.28513(2) 0.21487(2) 0.0000
Cu1BA Cu 0.21487(2) -0.21487(2) 0.5000
Cu1NA Cu 0.28513(2) -0.28513(2) 0.5000
Cu1FB Cu 0.5000 -0.21487(2) 0.21487(2)
Cu1IB Cu 0.5000 -0.28513(2) 0.28513(2)
O4O O -0.05261(10) 0.24335(10) 0.18300(11)
O4U O 0.18300(11) -0.05261(10) 0.24335(10)
O4HA O 0.05261(10) 0.31700(11) 0.25665(10)
O4XA O 0.25665(10) 0.05261(10) 0.31700(11)
O4TC O 0.24335(10) -0.05261(10) 0.18300(11)
O4XD O -0.05261(10) 0.31700(11) 0.25665(10)
O4IF O 0.31700(11) 0.05261(10) 0.25665(10)
O6 O 0.2460(7) 0.0000 0.0660(7)
O7 O 0.2500 0.2500 0.2500
O8 O 0.313(2) 0.0000 0.0000
Mo1 Mo 0.09526(2) 0.0000 0.09526(2)
P1 P 0.0000 0.0000 0.0000
O1 O 0.13937(18) 0.0000 0.13937(18)
O2 O 0.04988(19) 0.04988(19) 0.1200(2)
O3 O 0.0339(3) 0.0339(3) 0.0339(3)
O3A O -0.0339(3) -0.0339(3) 0.0339(3)
O3B O -0.0339(3) 0.0339(3) -0.0339(3)
O3C O 0.0339(3) -0.0339(3) -0.0339(3)
O3L O 0.0339(3) 0.0339(3) -0.0339(3)
O3M O -0.0339(3) -0.0339(3) -0.0339(3)
O3N O 0.0339(3) -0.0339(3) 0.0339(3)
O3O O -0.0339(3) 0.0339(3) 0.0339(3)
Mo1A Mo -0.09526(2) 0.0000 0.09526(2)
O1A O -0.13937(18) 0.0000 0.13937(18)
O2A O -0.04988(19) -0.04988(19) 0.1200(2)
Mo1B Mo -0.09526(2) 0.0000 -0.09526(2)
O1B O -0.13937(18) -0.0000 -0.13937(18)
O2B O -0.04988(19) 0.04988(19) -0.1200(2)
Mo1C Mo 0.09526(2) 0.0000 -0.09526(2)
O1C O 0.13937(18) -0.0000 -0.13937(18)
O2C O 0.04988(19) -0.04988(19) -0.1200(2)
Mo1D Mo 0.09526(2) 0.09526(2) 0.0000
O1D O 0.13937(18) 0.13937(18) 0.0000
O2D O 0.1200(2) 0.04988(19) 0.04988(19)
Mo1E Mo 0.09526(2) -0.09526(2) 0.0000
O1E O 0.13937(18) -0.13937(18) 0.0000
O2E O 0.1200(2) -0.04988(19) -0.04988(19)
Mo1F Mo -0.09526(2) -0.09526(2) 0.0000
O1F O -0.13937(18) -0.13937(18) 0.0000
O2F O -0.1200(2) -0.04988(19) 0.04988(19)
Mo1G Mo -0.09526(2) 0.09526(2) 0.0000
O1G O -0.13937(18) 0.13937(18) 0.0000
O2G O -0.1200(2) 0.04988(19) -0.04988(19)
Mo1H Mo 0.0000 0.09526(2) 0.09526(2)
O1H O 0.0000 0.13937(18) 0.13937(18)
O2H O 0.04988(19) 0.1200(2) 0.04988(19)
Mo1I Mo 0.0000 0.09526(2) -0.09526(2)
O1I O 0.0000 0.13937(18) -0.13937(18)
O2I O -0.04988(19) 0.1200(2) -0.04988(19)
Mo1J Mo 0.0000 -0.09526(2) -0.09526(2)
O1J O -0.0000 -0.13937(18) -0.13937(18)
O2J O 0.04988(19) -0.1200(2) -0.04988(19)
Mo1K Mo 0.0000 -0.09526(2) 0.09526(2)
O1K O -0.0000 -0.13937(18) 0.13937(18)
O2K O -0.04988(19) -0.1200(2) 0.04988(19)
O2L O 0.04988(19) 0.04988(19) -0.1200(2)
O2M O -0.04988(19) -0.04988(19) -0.1200(2)
O2N O 0.04988(19) -0.04988(19) 0.1200(2)
O2O O -0.04988(19) 0.04988(19) 0.1200(2)
O2P O 0.04988(19) 0.1200(2) -0.04988(19)
O2Q O -0.04988(19) 0.1200(2) 0.04988(19)
O2R O -0.04988(19) -0.1200(2) -0.04988(19)
O2S O 0.04988(19) -0.1200(2) 0.04988(19)
O2T O 0.1200(2) 0.04988(19) -0.04988(19)
O2U O 0.1200(2) -0.04988(19) 0.04988(19)
O2V O -0.1200(2) 0.04988(19) 0.04988(19)
O2W O -0.1200(2) -0.04988(19) -0.04988(19)
loop_
_geom_bond_atom_site_label_1
_geom_bond_atom_site_label_2
_geom_bond_site_symmetry_1
_geom_bond_site_symmetry_2
Mo1 O1 1_555 1_555
P1 O3 1_555 1_555
O2 Mo1 1_555 1_555
O3 Mo1 1_555 1_555
Cu1 O4 1_555 1_555
O4 C3 1_555 1_555
O5 Cu1 1_555 1_555
C1 C2 1_555 1_555
C2 H1 1_555 1_555
C3 C1 1_555 1_555
O3A P1 1_555 1_555
O3B P1 1_555 1_555
O3C P1 1_555 1_555
O3L P1 1_555 1_555
O3M P1 1_555 1_555
O3N Mo1 1_555 1_555
O3O P1 1_555 1_555
Mo1A O3A 1_555 1_555
O1A Mo1A 1_555 1_555
O2A Mo1A 1_555 1_555
Mo1B O3B 1_555 1_555
O1B Mo1B 1_555 1_555
O2B Mo1B 1_555 1_555
Mo1C O3C 1_555 1_555
O1C Mo1C 1_555 1_555
O2C Mo1C 1_555 1_555
Mo1D O3 1_555 1_555
O1D Mo1D 1_555 1_555
O2D Mo1 1_555 1_555
Mo1E O3C 1_555 1_555
O1E Mo1E 1_555 1_555
O2E Mo1C 1_555 1_555
Mo1F O3A 1_555 1_555
O1F Mo1F 1_555 1_555
O2F Mo1A 1_555 1_555
Mo1G O3B 1_555 1_555
O1G Mo1G 1_555 1_555
O2G Mo1B 1_555 1_555
Mo1H O2 1_555 1_555
O1H Mo1H 1_555 1_555
O2H Mo1D 1_555 1_555
Mo1I O3B 1_555 1_555
O1I Mo1I 1_555 1_555
O2I Mo1G 1_555 1_555
Mo1J O3C 1_555 1_555
O1J Mo1J 1_555 1_555
O2J Mo1E 1_555 1_555
Mo1K O3A 1_555 1_555
O1K Mo1K 1_555 1_555
O2K Mo1F 1_555 1_555
O2L Mo1C 1_555 1_555
O2M Mo1B 1_555 1_555
O2N Mo1 1_555 1_555
O2O Mo1A 1_555 1_555
O2P Mo1D 1_555 1_555
O2Q Mo1G 1_555 1_555
O2R Mo1F 1_555 1_555
O2S Mo1E 1_555 1_555
O2T Mo1C 1_555 1_555
O2U Mo1 1_555 1_555
O2V Mo1A 1_555 1_555
O2W Mo1B 1_555 1_555
O4D C3D 1_555 1_555
C1D C2D 1_555 1_555
C2D C1 1_555 1_555
H1D C2D 1_555 1_555
C3D C1D 1_555 1_555
O4H C3H 1_555 1_555
C1H C2 1_555 1_555
C2H C1D 1_555 1_555
H1H C2H 1_555 1_555
C3H C1H 1_555 1_555
O4ED C3H 1_555 1_555
O4JD C3D 1_555 1_555
O4OD C3 1_555 1_555
Cu1O O4ED 1_555 1_555
O5O Cu1O 1_555 1_555
O4SB Cu1 1_555 1_555
C1SB C2SB 1_555 1_555
C2SB H1SB 1_555 1_555
C3SB O4SB 1_555 1_555
O4IB C3IB 1_555 1_555
C1IB C2IB 1_555 1_555
C2IB C1SB 1_555 1_555
H1IB C2IB 1_555 1_555
C3IB C1IB 1_555 1_555
O4NB C3NB 1_555 1_555
C1NB C2SB 1_555 1_555
C2NB C1IB 1_555 1_555
H1NB C2NB 1_555 1_555
C3NB C1NB 1_555 1_555
O4RE C3NB 1_555 1_555
O4VE C3IB 1_555 1_555
O4NE C3SB 1_555 1_555
Cu1U Cu1 1_555 1_555
O5U Cu1U 1_555 1_555
Cu1D O4D 1_555 1_555
Cu1H O4H 1_555 1_555
Cu1P O4JD 1_555 1_555
Cu1BA O4NB 1_555 1_555
Cu1NA O4RE 1_555 1_555
Cu1FB O4VE 1_555 1_555
Cu1IB O4IB 1_555 1_555
O4O Cu1O 1_555 1_555
O4U Cu1U 1_555 1_555
O4HA Cu1O 1_555 1_555
O4XA Cu1U 1_555 1_555
O4TC Cu1 1_555 1_555
O4XD Cu1O 1_555 1_555
O4IF Cu1 1_555 1_555
P1 O3N 1_555 1_555
O3 O3L 1_555 1_555
O3 O3N 1_555 1_555
O3 O3O 1_555 1_555
O3 Mo1H 1_555 1_555
O3A O3M 1_555 1_555
O3A O3N 1_555 1_555
O3A O3O 1_555 1_555
O3B O3L 1_555 1_555
O3B O3M 1_555 1_555
O3B O3O 1_555 1_555
O3C O3L 1_555 1_555
O3C O3M 1_555 1_555
O3C O3N 1_555 1_555
O3L Mo1C 1_555 1_555
O3L Mo1D 1_555 1_555
O3L Mo1I 1_555 1_555
O3M Mo1B 1_555 1_555
O3M Mo1F 1_555 1_555
O3M Mo1J 1_555 1_555
O3N Mo1E 1_555 1_555
O3N Mo1K 1_555 1_555
O3O Mo1A 1_555 1_555
O3O Mo1G 1_555 1_555
O3O Mo1H 1_555 1_555
O2A Mo1K 1_555 1_555
O2B Mo1I 1_555 1_555
O2C Mo1J 1_555 1_555
Mo1D O2D 1_555 1_555
Mo1D O2T 1_555 1_555
Mo1E O2E 1_555 1_555
Mo1E O2U 1_555 1_555
Mo1F O2F 1_555 1_555
Mo1F O2W 1_555 1_555
Mo1G O2G 1_555 1_555
Mo1G O2V 1_555 1_555
Mo1H O2H 1_555 1_555
Mo1H O2O 1_555 1_555
Mo1H O2Q 1_555 1_555
Mo1I O2I 1_555 1_555
Mo1I O2L 1_555 1_555
Mo1I O2P 1_555 1_555
Mo1J O2J 1_555 1_555
Mo1J O2M 1_555 1_555
Mo1J O2R 1_555 1_555
Mo1K O2K 1_555 1_555
Mo1K O2N 1_555 1_555
Mo1K O2S 1_555 1_555
C1H C2H 1_555 1_555
O4OD Cu1U 1_555 1_555
Cu1O Cu1H 1_555 1_555
C1SB C3SB 1_555 1_555
C1NB C2NB 1_555 1_555
O4NE Cu1U 1_555 1_555
Cu1D Cu1P 1_555 1_555
Cu1BA Cu1NA 1_555 1_555
Cu1FB Cu1IB 1_555 1_555

#END
