
#######################################################################
#
#                 Cambridge Crystallographic Data Centre
#                                CCDC 
#
#######################################################################
#
# If this CIF has been generated from an entry in the Cambridge 
# Structural Database, then it will include bibliographic, chemical, 
# crystal, experimental, refinement or atomic coordinate data resulting 
# from the CCDC's data processing and validation procedures.
#
#######################################################################

data_JASNAT
_chemical_formula_moiety         '(C34 H26 N2 O8 Zn2)n'
_symmetry_cell_setting           triclinic
_symmetry_space_group_name_H-M   'P -1'
_symmetry_Int_Tables_number      2
_space_group_name_Hall           '-P 1'
loop_
_symmetry_equiv_pos_site_id
_symmetry_equiv_pos_as_xyz
1 x,y,z
2 -x,-y,-z
_cell_length_a                   10.8830(13)
_cell_length_b                   10.9258(13)
_cell_length_c                   14.0658(17)
_cell_angle_alpha                92.417(2)
_cell_angle_beta                 90.099(2)
_cell_angle_gamma                101.723(2)
_cell_volume                     1636.07
loop_
_atom_site_label
_atom_site_type_symbol
_atom_site_fract_x
_atom_site_fract_y
_atom_site_fract_z
Zn1 Zn -0.26504(6) -0.34438(6) 0.10922(4)
Zn2 Zn -0.26209(6) -0.33156(6) 0.31814(4)
N1 N -0.2638(4) -0.3353(5) -0.5370(3)
N2 N -0.2651(5) -0.3402(5) -0.0348(3)
O1 O -0.4497(4) -0.3572(5) 0.1331(3)
O2 O -0.4468(4) -0.3450(5) 0.2921(3)
O3 O -0.2839(5) -0.5317(4) 0.1323(4)
O4 O -0.2858(5) -0.5211(5) 0.2894(4)
O5 O -0.2439(5) -1.1572(4) 0.1423(4)
O6 O -0.2396(5) -1.1450(4) 0.3012(4)
O7 O -1.0805(4) -0.3312(5) 0.1341(3)
O8 O -1.0787(4) -0.3238(5) 0.2926(3)
C1 C -0.4997(5) -0.3495(6) 0.2124(4)
C2 C -0.6363(5) -0.3429(6) 0.2121(4)
C3 C -0.7026(6) -0.3492(6) 0.1275(4)
H1 H -0.6618 -0.3568 0.0694
C4 C -0.8291(6) -0.3446(7) 0.1280(4)
H2 H -0.8737 -0.3492 0.0702
C5 C -0.6985(6) -0.3313(6) 0.2982(4)
H3 H -0.6540 -0.3265 0.3561
C6 C -0.2793(6) -0.5774(6) 0.2124(5)
C7 C -0.2666(6) -0.7116(5) 0.2140(5)
C8 C -0.2556(8) -0.7653(7) 0.2992(5)
H4 H -0.2552 -0.7174 0.3563
C9 C -0.2618(10) -0.7815(7) 0.1317(5)
H5 H -0.2652 -0.7444 0.0729
C10 C -0.2424(6) -1.0985(6) 0.2218(5)
C11 C -0.2451(6) -0.9612(6) 0.2180(4)
C12 C -0.2521(10) -0.9063(7) 0.1333(5)
H6 H -0.2503 -0.9530 0.0758
C13 C -0.2449(8) -0.8912(7) 0.3021(5)
H7 H -0.2378 -0.9274 0.3607
C14 C -1.0279(5) -0.3283(6) 0.2128(4)
C15 C -0.8895(5) -0.3331(6) 0.2128(4)
C16 C -0.8243(6) -0.3268(7) 0.2987(4)
H8 H -0.8657 -0.3195 0.3567
C17 C -0.1607(8) -0.3259(12) -0.4882(5)
H9 H -0.0849 -0.3195 -0.5213
C18 C -0.1569(8) -0.3246(13) -0.3902(5)
H10 H -0.0791 -0.3148 -0.3586
C19 C -0.2634(6) -0.3372(6) -0.3388(4)
C20 C -0.3703(8) -0.3512(13) -0.3906(5)
H11 H -0.4479 -0.3623 -0.3595
C21 C -0.3671(8) -0.3493(12) -0.4890(5)
H12 H -0.4434 -0.3585 -0.5226
C22 C -0.2629(6) -0.3376(6) -0.2344(4)
C23 C -0.1523(6) -0.3298(8) -0.1812(4)
H13 H -0.0750 -0.3242 -0.2122
C24 C -0.3740(6) -0.3469(7) -0.1825(4)
H14 H -0.4512 -0.3533 -0.2144
C25 C -0.1574(6) -0.3305(7) -0.0839(4)
H15 H -0.0819 -0.3239 -0.0496
C26 C -0.3699(6) -0.3466(7) -0.0848(4)
H16 H -0.4455 -0.3512 -0.0516
Zn1_2 Zn -0.26504(6) -1.34438(6) 0.10922(4)
Zn1_3 Zn -1.26504(6) -0.34438(6) 0.10922(4)
Zn2_2 Zn -0.26209(6) -0.33156(6) -0.68186(4)
Zn2_3 Zn -0.26209(6) -1.33156(6) 0.31814(4)
Zn2_4 Zn -1.26209(6) -0.33156(6) 0.31814(4)
N1_2 N -0.2638(4) -0.3353(5) 0.4630(3)
O5_2 O -0.2439(5) -0.1572(4) 0.1423(4)
O6_2 O -0.2396(5) -0.1450(4) 0.3012(4)
O7_2 O -0.0805(4) -0.3312(5) 0.1341(3)
O8_2 O -0.0787(4) -0.3238(5) 0.2926(3)
C27 C 0.2687 0.0001 0.1816
C28 C 0.1546 -0.0016 0.2264
C29 C 0.1492 0.0045 0.3252
C30 C 0.2579 0.0122 0.3791
C31 C 0.3719 0.0139 0.3343
C32 C 0.3773 0.0079 0.2356
C39 C 0.102(3) -0.006(3) 0.119(2)
C42 C 0.430(5) 0.002(5) 0.440(4)
loop_
_geom_bond_atom_site_label_1
_geom_bond_atom_site_label_2
_geom_bond_site_symmetry_1
_geom_bond_site_symmetry_2
Zn1 N2 1_555 1_555
Zn2 O2 1_555 1_555
N1 C17 1_555 1_555
N2 C25 1_555 1_555
O1 Zn1 1_555 1_555
O2 C1 1_555 1_555
O3 Zn1 1_555 1_555
O4 Zn2 1_555 1_555
O5 C10 1_555 1_555
O6 C10 1_555 1_555
O7 C14 1_555 1_555
O8 C14 1_555 1_555
C1 O1 1_555 1_555
C2 C1 1_555 1_555
C3 C2 1_555 1_555
H1 C3 1_555 1_555
C4 C3 1_555 1_555
H2 C4 1_555 1_555
C5 C2 1_555 1_555
H3 C5 1_555 1_555
C6 O3 1_555 1_555
C7 C6 1_555 1_555
C8 C7 1_555 1_555
H4 C8 1_555 1_555
C9 C7 1_555 1_555
H5 C9 1_555 1_555
C10 C11 1_555 1_555
C11 C12 1_555 1_555
C12 C9 1_555 1_555
H6 C12 1_555 1_555
C13 C8 1_555 1_555
H7 C13 1_555 1_555
C14 C15 1_555 1_555
C15 C4 1_555 1_555
C16 C5 1_555 1_555
H8 C16 1_555 1_555
C17 H9 1_555 1_555
C18 C17 1_555 1_555
H10 C18 1_555 1_555
C19 C18 1_555 1_555
C20 C19 1_555 1_555
H11 C20 1_555 1_555
C21 N1 1_555 1_555
H12 C21 1_555 1_555
C22 C19 1_555 1_555
C23 C22 1_555 1_555
H13 C23 1_555 1_555
C24 C22 1_555 1_555
H14 C24 1_555 1_555
C25 C23 1_555 1_555
H15 C25 1_555 1_555
C26 N2 1_555 1_555
H16 C26 1_555 1_555
C27 C28 1_555 1_555
C28 C29 1_555 1_555
C29 C30 1_555 1_555
C30 C31 1_555 1_555
C31 C32 1_555 1_555
C32 C27 1_555 1_555
C39 C28 1_555 1_555
C42 C31 1_555 1_555
Zn1_2 O5 1_555 1_555
Zn1_3 O7 1_555 1_555
Zn2_2 N1 1_555 1_555
Zn2_3 O6 1_555 1_555
Zn2_4 O8 1_555 1_555
N1_2 Zn2 1_555 1_555
O5_2 Zn1 1_555 1_555
O6_2 Zn2 1_555 1_555
O7_2 Zn1 1_555 1_555
O8_2 Zn2 1_555 1_555
O4 C6 1_555 1_555
C11 C13 1_555 1_555
C15 C16 1_555 1_555
C20 C21 1_555 1_555
C24 C26 1_555 1_555

#END
