
#######################################################################
#
#                 Cambridge Crystallographic Data Centre
#                                CCDC 
#
#######################################################################
#
# If this CIF has been generated from an entry in the Cambridge 
# Structural Database, then it will include bibliographic, chemical, 
# crystal, experimental, refinement or atomic coordinate data resulting 
# from the CCDC's data processing and validation procedures.
#
#######################################################################

data_BIMDIL
_chemical_formula_moiety         '(C14 H12 Cu2 O8)n'
_symmetry_cell_setting           tetragonal
_symmetry_space_group_name_H-M   'P 42/m m c'
_symmetry_Int_Tables_number      131
_space_group_name_Hall           '-P 4c 2'
loop_
_symmetry_equiv_pos_site_id
_symmetry_equiv_pos_as_xyz
1 x,y,z
2 -y,x,1/2+z
3 x,-y,-z
4 -x,-y,z
5 y,x,1/2-z
6 y,-x,1/2+z
7 -x,y,-z
8 -y,-x,1/2-z
9 -x,-y,-z
10 y,-x,1/2-z
11 -x,y,z
12 x,y,-z
13 -y,-x,1/2+z
14 -y,x,1/2-z
15 x,-y,z
16 y,x,1/2+z
_cell_length_a                   8.4671(4)
_cell_length_b                   8.4671(4)
_cell_length_c                   14.4437(10)
_cell_angle_alpha                90
_cell_angle_beta                 90
_cell_angle_gamma                90
_cell_volume                     1035.49
loop_
_atom_site_label
_atom_site_type_symbol
_atom_site_fract_x
_atom_site_fract_y
_atom_site_fract_z
Cu1 Cu 0.5000 0.1470(1) 0.0000
O1 O 0.3382(2) 0.1317(2) 0.0942(1)
C1 C 0.2877(4) -0.0000 0.1217(2)
C2 C 0.1491(4) -0.0000 0.1889(2)
C3 C 0.1486(3) 0.1486(3) 0.2500
C4 C -0.0000 -0.0000 0.1270(3)
H1 H 0.2441 0.1500 0.2895
H2 H 0.1500 0.2441 0.2105
H3 H -0.0000 -0.0947 0.0868
H4 H -0.0000 0.0947 0.0868
Cu1B Cu 0.5000 -0.1470(1) 0.0000
O1F O 0.6618(2) 0.1317(2) -0.0942(1)
O1J O 0.6618(2) 0.1317(2) 0.0942(1)
O1K O 0.3382(2) 0.1317(2) -0.0942(1)
O1N O 0.3382(2) -0.1317(2) 0.0942(1)
C3I C 0.1486(3) -0.1486(3) 0.2500
C2D C -0.0000 0.1491(4) 0.3111(2)
C2C C -0.1491(4) -0.0000 0.1889(2)
C2G C -0.0000 -0.1491(4) 0.3111(2)
H1I H 0.1500 -0.2441 0.2105
H1N H 0.2441 -0.1500 0.2895
C1D C -0.0000 0.2877(4) 0.3783(2)
C3J C -0.1486(3) 0.1486(3) 0.2500
C4D C 0.0000 0.0000 0.3730(3)
C1C C -0.2877(4) -0.0000 0.1217(2)
C3C C -0.1486(3) -0.1486(3) 0.2500
O1H O 0.6618(2) -0.1317(2) -0.0942(1)
O1C O 0.6618(2) -0.1317(2) 0.0942(1)
O1B O 0.3382(2) -0.1317(2) -0.0942(1)
C1G C -0.0000 -0.2877(4) 0.3783(2)
O1D O 0.1317(2) 0.3382(2) 0.4058(1)
O1M O -0.1317(2) 0.3382(2) 0.4058(1)
H1J H -0.2441 0.1500 0.2895
H1M H -0.1500 0.2441 0.2105
H3D H -0.0947 0.0000 0.4132
H3G H 0.0947 0.0000 0.4132
O1C_2 O -0.3382(2) -0.1317(2) 0.0942(1)
O1J_2 O -0.3382(2) 0.1317(2) 0.0942(1)
H1C H -0.2441 -0.1500 0.2895
H1G H -0.1500 -0.2441 0.2105
O1G O -0.1317(2) -0.3382(2) 0.4058(1)
O1I O 0.1317(2) -0.3382(2) 0.4058(1)
Cu1D Cu 0.1470(1) 0.5000 0.5000
Cu1A Cu -0.1470(1) 0.5000 0.5000
Cu1B_2 Cu -0.5000 -0.1470(1) 0.0000
Cu1_2 Cu -0.5000 0.1470(1) 0.0000
Cu1A_2 Cu -0.1470(1) -0.5000 0.5000
Cu1D_2 Cu 0.1470(1) -0.5000 0.5000
loop_
_geom_bond_atom_site_label_1
_geom_bond_atom_site_label_2
_geom_bond_site_symmetry_1
_geom_bond_site_symmetry_2
Cu1 O1 1_555 1_555
O1 C1 1_555 1_555
C1 C2 1_555 1_555
C2 C3 1_555 1_555
C3 H1 1_555 1_555
C4 C2 1_555 1_555
H2 C3 1_555 1_555
H3 C4 1_555 1_555
H4 C4 1_555 1_555
Cu1B Cu1 1_555 1_555
O1F Cu1 1_555 1_555
O1J Cu1 1_555 1_555
O1K Cu1 1_555 1_555
O1N C1 1_555 1_555
C3I C2 1_555 1_555
C2D C3 1_555 1_555
C2C C4 1_555 1_555
C2G C3I 1_555 1_555
H1I C3I 1_555 1_555
H1N C3I 1_555 1_555
C1D C2D 1_555 1_555
C3J C2D 1_555 1_555
C4D C2D 1_555 1_555
C1C C2C 1_555 1_555
C3C C2C 1_555 1_555
O1H Cu1B 1_555 1_555
O1C Cu1B 1_555 1_555
O1B Cu1B 1_555 1_555
C1G C2G 1_555 1_555
O1D C1D 1_555 1_555
O1M C1D 1_555 1_555
H1J C3J 1_555 1_555
H1M C3J 1_555 1_555
H3D C4D 1_555 1_555
H3G C4D 1_555 1_555
O1C_2 C1C 1_555 1_555
O1J_2 C1C 1_555 1_555
H1C C3C 1_555 1_555
H1G C3C 1_555 1_555
O1G C1G 1_555 1_555
O1I C1G 1_555 1_555
Cu1D O1D 1_555 1_555
Cu1A O1M 1_555 1_555
Cu1B_2 O1C_2 1_555 1_555
Cu1_2 O1J_2 1_555 1_555
Cu1A_2 O1G 1_555 1_555
Cu1D_2 O1I 1_555 1_555
Cu1B O1N 1_555 1_555
C2C C3J 1_555 1_555
C2G C3C 1_555 1_555
C2G C4D 1_555 1_555
Cu1D Cu1A 1_555 1_555
Cu1B_2 Cu1_2 1_555 1_555
Cu1A_2 Cu1D_2 1_555 1_555

#END
