
#######################################################################
#
#                 Cambridge Crystallographic Data Centre
#                                CCDC 
#
#######################################################################
#
# If this CIF has been generated from an entry in the Cambridge 
# Structural Database, then it will include bibliographic, chemical, 
# crystal, experimental, refinement or atomic coordinate data resulting 
# from the CCDC's data processing and validation procedures.
#
#######################################################################

data_QOBWEJ01
_chemical_formula_moiety         '(C6 H24 N4 O16 P4 Zn4)n'
_symmetry_cell_setting           monoclinic
_symmetry_space_group_name_H-M   'P 21'
_symmetry_Int_Tables_number      4
_space_group_name_Hall           'P 2yb'
loop_
_symmetry_equiv_pos_site_id
_symmetry_equiv_pos_as_xyz
1 x,y,z
2 -x,1/2+y,-z
_cell_length_a                   10.1842(4)
_cell_length_b                   9.9803(4)
_cell_length_c                   10.4375(4)
_cell_angle_alpha                90
_cell_angle_beta                 92.312(1)
_cell_angle_gamma                90
_cell_volume                     1060.02
loop_
_atom_site_label
_atom_site_type_symbol
_atom_site_fract_x
_atom_site_fract_y
_atom_site_fract_z
Zn1 Zn 0.87228(3) 0.28857(6) 0.12108(3)
Zn2 Zn 0.58306(3) 0.23746(6) 0.39869(3)
Zn3 Zn 0.36264(3) 0.46405(6) 0.10714(3)
Zn4 Zn 1.07918(3) 0.57307(6) 0.37521(3)
P1 P 1.06746(7) 0.53283(9) 0.07053(7)
P2 P 0.88373(7) 0.32379(9) 0.43132(7)
P3 P 0.38551(7) 0.49048(9) 0.41235(7)
P4 P 0.57183(7) 0.21628(9) 0.09412(7)
O1 O 0.9362(2) 0.4574(3) 0.0619(3)
O2 O 0.9080(3) 0.2573(3) 0.3020(2)
O3 O 0.6845(2) 0.3136(3) 0.0630(2)
O4 O 1.0691(3) 0.6243(3) -0.0455(2)
O5 O 0.5967(3) 0.1584(3) 0.2285(2)
O6 O 0.4302(3) 0.3452(3) 0.4242(3)
O7 O 0.4674(2) 0.5794(3) 0.5037(2)
O8 O 0.7371(2) 0.3315(3) 0.4572(3)
O9 O 0.4407(2) 0.2908(3) 0.0832(3)
O10 O 0.5616(3) 0.1009(3) -0.0015(3)
O11 O 0.3982(3) 0.5430(3) 0.2755(2)
O12 O 1.1791(2) 0.4299(3) 0.0700(3)
O13 O 0.9347(2) 0.4685(3) 0.4351(2)
O14 O 0.9565(3) 0.2424(3) 0.5367(2)
O15 O 0.2392(2) 0.4925(3) 0.4481(2)
O16 O 1.0766(3) 0.6181(3) 0.1938(2)
O4A O 0.9309(3) 0.1243(3) 0.0455(2)
O7A O 0.5326(2) 0.0794(3) 0.4963(2)
O10A O 0.4384(3) 0.6009(3) 0.0015(3)
O12_2 O 0.1791(2) 0.4299(3) 0.0700(3)
O14A O 1.0435(3) 0.7424(3) 0.4633(2)
O15_2 O 1.2392(2) 0.4925(3) 0.4481(2)
Zn1A Zn 1.12772(3) 0.78857(6) -0.12108(3)
Zn2A Zn 0.41694(3) 0.73746(6) 0.60131(3)
Zn3A Zn 0.63736(3) -0.03595(6) -0.10714(3)
Zn3_2 Zn 1.36264(3) 0.46405(6) 0.10714(3)
Zn4A Zn 0.92082(3) 0.07307(6) 0.62479(3)
Zn4_2 Zn 0.07918(3) 0.57307(6) 0.37521(3)
N1 N 0.2439(4) 1.1434(4) 0.4449(3)
N2 N 0.2954(4) 0.7911(4) 0.2017(4)
C1 C 0.2163(5) 1.1455(5) 0.3031(4)
C2 C 0.1966(4) 1.0059(5) 0.2531(4)
C3 C 0.3255(4) 0.9247(5) 0.2563(4)
H1 H 0.2921 1.1873 0.2601
H2 H 0.1351 1.1993 0.2839
H3 H 0.1607 1.0105 0.1626
H4 H 0.1321 0.9591 0.3073
H5 H 0.3917 0.9701 0.2029
H6 H 0.3615 0.9162 0.3465
H13 H 0.2571 1.2370 0.4769
H14 H 0.3252 1.0897 0.4644
H15 H 0.1681 1.1017 0.4881
H16 H 0.3769 0.7352 0.2021
H17 H 0.2589 0.8006 0.1118
H18 H 0.2288 0.7467 0.2554
N3 N 0.8092(4) 0.9924(4) 0.2915(3)
N4 N 0.7235(5) 0.6211(6) 0.0701(4)
C4 C 0.8233(4) 0.8549(5) 0.2421(4)
C5 C 0.6920(4) 0.7833(5) 0.2448(3)
C6 C 0.7027(5) 0.6378(5) 0.2084(5)
H7 H 0.8897 0.8057 0.2974
H8 H 0.8534 0.8584 0.1521
H9 H 0.6579 0.7897 0.3331
H10 H 0.6288 0.8278 0.1825
H11 H 0.7783 0.5970 0.2584
H12 H 0.6198 0.5900 0.2287
H19 H 0.8955 1.0401 0.2901
H20 H 0.7791 0.9889 0.3814
H21 H 0.7427 1.0415 0.2361
H22 H 0.7312 0.5243 0.0470
H23 H 0.8064 0.6688 0.0497
H24 H 0.6479 0.6619 0.0199
loop_
_geom_bond_atom_site_label_1
_geom_bond_atom_site_label_2
_geom_bond_site_symmetry_1
_geom_bond_site_symmetry_2
Zn1 O1 1_555 1_555
Zn2 O5 1_555 1_555
Zn3 O9 1_555 1_555
Zn4 O13 1_555 1_555
P1 O1 1_555 1_555
P2 O2 1_555 1_555
P3 O6 1_555 1_555
P4 O3 1_555 1_555
O2 Zn1 1_555 1_555
O3 Zn1 1_555 1_555
O4 P1 1_555 1_555
O5 P4 1_555 1_555
O6 Zn2 1_555 1_555
O7 P3 1_555 1_555
O8 Zn2 1_555 1_555
O9 P4 1_555 1_555
O10 P4 1_555 1_555
O11 Zn3 1_555 1_555
O12 P1 1_555 1_555
O13 P2 1_555 1_555
O14 P2 1_555 1_555
O15 P3 1_555 1_555
O16 Zn4 1_555 1_555
N1 C1 1_555 1_555
N2 C3 1_555 1_555
N3 C4 1_555 1_555
N4 C6 1_555 1_555
C1 C2 1_555 1_555
C2 C3 1_555 1_555
C3 H5 1_555 1_555
C4 C5 1_555 1_555
C5 C6 1_555 1_555
C6 H11 1_555 1_555
H1 C1 1_555 1_555
H2 C1 1_555 1_555
H3 C2 1_555 1_555
H4 C2 1_555 1_555
H6 C3 1_555 1_555
H7 C4 1_555 1_555
H8 C4 1_555 1_555
H9 C5 1_555 1_555
H10 C5 1_555 1_555
H12 C6 1_555 1_555
H13 N1 1_555 1_555
H14 N1 1_555 1_555
H15 N1 1_555 1_555
H16 N2 1_555 1_555
H17 N2 1_555 1_555
H18 N2 1_555 1_555
H19 N3 1_555 1_555
H20 N3 1_555 1_555
H21 N3 1_555 1_555
H22 N4 1_555 1_555
H23 N4 1_555 1_555
H24 N4 1_555 1_555
O4A Zn1 1_555 1_555
O7A Zn2 1_555 1_555
O10A Zn3 1_555 1_555
O12_2 Zn3 1_555 1_555
O14A Zn4 1_555 1_555
O15_2 Zn4 1_555 1_555
Zn1A O4 1_555 1_555
Zn2A O7 1_555 1_555
Zn3A O10 1_555 1_555
Zn3_2 O12 1_555 1_555
Zn4A O14 1_555 1_555
Zn4_2 O15 1_555 1_555
P1 O16 1_555 1_555
P2 O8 1_555 1_555
P3 O11 1_555 1_555

#END
