
#######################################################################
#
#                 Cambridge Crystallographic Data Centre
#                                CCDC 
#
#######################################################################
#
# If this CIF has been generated from an entry in the Cambridge 
# Structural Database, then it will include bibliographic, chemical, 
# crystal, experimental, refinement or atomic coordinate data resulting 
# from the CCDC's data processing and validation procedures.
#
#######################################################################

data_IYAJOJ
_chemical_formula_moiety         '(C48 H30 Cd3 K1 Na2 O27 3-)n'
_symmetry_cell_setting           monoclinic
_symmetry_space_group_name_H-M   'C 2/c'
_symmetry_Int_Tables_number      15
_space_group_name_Hall           '-C 2yc'
loop_
_symmetry_equiv_pos_site_id
_symmetry_equiv_pos_as_xyz
1 x,y,z
2 -x,y,1/2-z
3 1/2+x,1/2+y,z
4 1/2-x,1/2+y,1/2-z
5 -x,-y,-z
6 x,-y,1/2+z
7 1/2-x,1/2-y,-z
8 1/2+x,1/2-y,1/2+z
_cell_length_a                   18.9895(13)
_cell_length_b                   28.481(2)
_cell_length_c                   16.9587(18)
_cell_angle_alpha                90
_cell_angle_beta                 119.896(2)
_cell_angle_gamma                90
_cell_volume                     7951.45
loop_
_atom_site_label
_atom_site_type_symbol
_atom_site_fract_x
_atom_site_fract_y
_atom_site_fract_z
O13 O 0.0000 0.8562(6) 0.2500
O14 O -0.1089(18) 0.6595(10) -0.1286(15)
O15 O 0.173(2) 0.4960(12) 0.318(2)
Cd1 Cd 0.40033(2) 0.630520(15) 0.37225(3)
Cd2 Cd 0.0000 0.63247(2) 0.2500
K1 K 0.5000 0.66301(8) 0.2500
Na1 Na 0.20235(14) 0.60864(11) 0.28182(19)
O1 O 0.4384(3) 0.43126(19) -0.0260(4)
O2 O 0.4059(3) 0.59183(16) 0.2623(3)
O3 O 0.2883(4) 0.5626(2) 0.2320(4)
O4 O 0.2879(3) 0.67119(16) 0.2804(3)
O5 O 0.0340(3) 0.83807(17) -0.0770(3)
O6 O -0.0343(3) 0.81429(18) -0.0111(3)
O7 O 0.3156(3) 0.40475(17) -0.0704(3)
O8 O 0.3684(3) 0.70583(19) 0.2397(4)
O9 O -0.1306(3) 0.66346(16) 0.1764(3)
O10 O -0.0528(4) 0.5754(2) 0.1360(4)
O11 O -0.0500(3) 0.6957(2) 0.1345(4)
C1 C 0.3469(5) 0.5640(3) 0.2210(5)
C2 C -0.1728(4) 0.7575(3) 0.0162(5)
H1 H -0.1193 0.7628 0.0271
C3 C 0.3015(4) 0.6997(2) 0.2333(5)
C4 C 0.3523(4) 0.5301(2) 0.1546(5)
C5 C -0.1861(4) 0.7224(2) 0.0625(4)
C6 C 0.2352(4) 0.7565(3) 0.1023(5)
H2 H 0.2838 0.7566 0.0991
C7 C 0.3731(4) 0.4325(2) -0.0250(4)
C8 C 0.1580(4) 0.7281(3) 0.1680(5)
H3 H 0.1529 0.7084 0.2100
C9 C 0.0278(4) 0.8135(2) -0.0187(5)
C10 C 0.0988(4) 0.7835(2) 0.0450(4)
O12 O 0.0734(4) 0.5898(2) 0.1772(4)
C11 C 0.1699(4) 0.7835(3) 0.0425(5)
H4 H 0.1743 0.8024 -0.0010
C12 C 0.2946(5) 0.4962(3) 0.1115(5)
H5 H 0.2500 0.4940 0.1220
C13 C -0.2650(4) 0.7150(3) 0.0456(5)
H6 H -0.2755 0.6909 0.0769
C14 C 0.4204(5) 0.5023(3) 0.0762(5)
H7 H 0.4639 0.5050 0.0639
C15 C 0.4146(5) 0.5340(3) 0.1363(5)
H8 H 0.4539 0.5581 0.1642
C16 C 0.2301(4) 0.7292(2) 0.1667(5)
C17 C 0.3635(4) 0.4675(2) 0.0353(5)
C18 C -0.1181(4) 0.6919(2) 0.1291(5)
C19 C 0.0933(4) 0.7556(3) 0.1084(5)
H9 H 0.0445 0.7553 0.1109
C20 C 0.3006(5) 0.4651(3) 0.0530(6)
H10 H 0.2604 0.4414 0.0244
C21 C 0.0052(5) 0.5328(3) 0.0628(5)
C22 C -0.0661(5) 0.5071(3) 0.0113(5)
H11 H -0.1115 0.5120 0.0194
C23 C 0.0704(5) 0.5248(3) 0.0503(6)
H12 H 0.1193 0.5420 0.0854
C24 C 0.0096(5) 0.5686(3) 0.1304(6)
O9F O -0.3694(3) 0.83654(16) -0.1764(3)
O11F O -0.4500(3) 0.8043(2) -0.1345(4)
C2F C -0.3272(4) 0.7425(3) -0.0162(5)
H1F H -0.3807 0.7372 -0.0271
C5F C -0.3139(4) 0.7776(2) -0.0625(4)
C13F C -0.2350(4) 0.7850(3) -0.0456(5)
H6F H -0.2245 0.8091 -0.0769
C18F C -0.3819(4) 0.8081(2) -0.1291(5)
O10D O 0.0528(4) 0.4246(2) -0.1360(4)
O12D O -0.0734(4) 0.4102(2) -0.1772(4)
C21D C -0.0052(5) 0.4672(3) -0.0628(5)
C22D C 0.0661(5) 0.4929(3) -0.0113(5)
H11D H 0.1115 0.4880 -0.0194
C23D C -0.0704(5) 0.4752(3) -0.0503(6)
H12D H -0.1193 0.4580 -0.0854
C24D C -0.0096(5) 0.4314(3) -0.1304(6)
Cd1A Cd -0.40033(2) 0.630520(15) 0.12775(3)
Na1A Na -0.20235(14) 0.60864(11) 0.21818(19)
O1A O -0.4384(3) 0.43126(19) 0.5260(4)
O2A O -0.4059(3) 0.59183(16) 0.2377(3)
O3A O -0.2883(4) 0.5626(2) 0.2680(4)
O4A O -0.2879(3) 0.67119(16) 0.2196(3)
O5A O -0.0340(3) 0.83807(17) 0.5770(3)
O6A O 0.0343(3) 0.81429(18) 0.5111(3)
O7A O -0.3156(3) 0.40475(17) 0.5704(3)
O8A O -0.3684(3) 0.70583(19) 0.2603(4)
C1A C -0.3469(5) 0.5640(3) 0.2790(5)
C3A C -0.3015(4) 0.6997(2) 0.2667(5)
C4A C -0.3523(4) 0.5301(2) 0.3454(5)
C6A C -0.2352(4) 0.7565(3) 0.3977(5)
H2A H -0.2838 0.7566 0.4009
C7A C -0.3731(4) 0.4325(2) 0.5250(4)
C8A C -0.1580(4) 0.7281(3) 0.3320(5)
H3A H -0.1529 0.7084 0.2900
C9A C -0.0278(4) 0.8135(2) 0.5187(5)
C10A C -0.0988(4) 0.7835(2) 0.4550(4)
C11A C -0.1699(4) 0.7835(3) 0.4575(5)
H4A H -0.1743 0.8024 0.5010
C12A C -0.2946(5) 0.4962(3) 0.3885(5)
H5A H -0.2500 0.4940 0.3780
C14A C -0.4204(5) 0.5023(3) 0.4238(5)
H7A H -0.4639 0.5050 0.4361
C15A C -0.4146(5) 0.5340(3) 0.3637(5)
H8A H -0.4539 0.5581 0.3358
C16A C -0.2301(4) 0.7292(2) 0.3333(5)
C17A C -0.3635(4) 0.4675(2) 0.4647(5)
C19A C -0.0933(4) 0.7556(3) 0.3916(5)
H9A H -0.0445 0.7553 0.3891
C20A C -0.3006(5) 0.4651(3) 0.4470(6)
H10A H -0.2604 0.4414 0.4756
Cd1D Cd -0.40033(2) 0.369480(15) 0.62775(3)
Cd1E Cd 0.40033(2) 0.369480(15) -0.12775(3)
Cd1F Cd 0.09967(2) 0.869480(15) 0.62775(3)
Cd1G Cd -0.09967(2) 0.869480(15) -0.12775(3)
Cd2D Cd -0.0000 0.36753(2) -0.2500
Cd2F Cd -0.5000 0.86753(2) -0.2500
K1_2 K -0.5000 0.66301(8) 0.2500
K1F K -0.0000 0.83699(8) -0.2500
K1F_2 K 0.0000 0.83699(8) 0.7500
Na1D Na -0.20235(14) 0.39136(11) -0.28182(19)
Na1D_2 Na -0.20235(14) 0.39136(11) 0.71818(19)
Na1E Na 0.20235(14) 0.39136(11) -0.21818(19)
Na1G Na -0.29765(14) 0.89136(11) -0.21818(19)
O1D O -0.4384(3) 0.56874(19) 0.0260(4)
O1E O 0.4384(3) 0.56874(19) 0.4740(4)
O2A_2 O 0.5941(3) 0.59183(16) 0.2377(3)
O5F O -0.5340(3) 0.66193(17) 0.0770(3)
O5F_2 O 0.4660(3) 0.66193(17) 0.0770(3)
O5G O 0.5340(3) 0.66193(17) 0.4230(3)
O6F O -0.4657(3) 0.68571(18) 0.0111(3)
O6G O 0.4657(3) 0.68571(18) 0.4889(3)
O7D O -0.3156(3) 0.59525(17) 0.0704(3)
O7E O 0.3156(3) 0.59525(17) 0.4296(3)
O8A_2 O 0.6316(3) 0.70583(19) 0.2603(4)
O9A O 0.1306(3) 0.66346(16) 0.3236(3)
O10A O 0.0528(4) 0.5754(2) 0.3640(4)
O11A O 0.0500(3) 0.6957(2) 0.3655(4)
O12A O -0.0734(4) 0.5898(2) 0.3228(4)
loop_
_geom_bond_atom_site_label_1
_geom_bond_atom_site_label_2
_geom_bond_site_symmetry_1
_geom_bond_site_symmetry_2
Cd1 O2 1_555 1_555
Cd2 O9 1_555 1_555
K1 O2 1_555 1_555
Na1 O3 1_555 1_555
O1 C7 1_555 1_555
O2 C1 1_555 1_555
O3 C1 1_555 1_555
O4 Cd1 1_555 1_555
O5 C9 1_555 1_555
O6 C9 1_555 1_555
O7 C7 1_555 1_555
O8 K1 1_555 1_555
O9 C18 1_555 1_555
O10 Cd2 1_555 1_555
O11 Cd2 1_555 1_555
C1 C4 1_555 1_555
C2 H1 1_555 1_555
C3 O4 1_555 1_555
C4 C12 1_555 1_555
C5 C2 1_555 1_555
C6 H2 1_555 1_555
C7 C17 1_555 1_555
C8 H3 1_555 1_555
C9 C10 1_555 1_555
C10 C11 1_555 1_555
O12 Cd2 1_555 1_555
C11 C6 1_555 1_555
H4 C11 1_555 1_555
C12 H5 1_555 1_555
C13 C5 1_555 1_555
H6 C13 1_555 1_555
C14 H7 1_555 1_555
C15 C4 1_555 1_555
H8 C15 1_555 1_555
C16 C3 1_555 1_555
C17 C14 1_555 1_555
C18 O11 1_555 1_555
C19 C8 1_555 1_555
H9 C19 1_555 1_555
C20 C12 1_555 1_555
H10 C20 1_555 1_555
C21 C22 1_555 1_555
C22 H11 1_555 1_555
C23 C21 1_555 1_555
H12 C23 1_555 1_555
C24 O10 1_555 1_555
O9F C18F 1_555 1_555
O11F C18F 1_555 1_555
C2F C13 1_555 1_555
H1F C2F 1_555 1_555
C5F C2F 1_555 1_555
C13F C2 1_555 1_555
H6F C13F 1_555 1_555
C18F C5F 1_555 1_555
O10D C24D 1_555 1_555
O12D C24D 1_555 1_555
C21D C22D 1_555 1_555
C22D C23 1_555 1_555
H11D C22D 1_555 1_555
C23D C22 1_555 1_555
H12D C23D 1_555 1_555
C24D C21D 1_555 1_555
Cd1A O2A 1_555 1_555
Na1A O9 1_555 1_555
O1A C7A 1_555 1_555
O2A C1A 1_555 1_555
O3A Na1A 1_555 1_555
O4A Cd1A 1_555 1_555
O5A C9A 1_555 1_555
O6A C9A 1_555 1_555
O7A C7A 1_555 1_555
O8A C3A 1_555 1_555
C1A O3A 1_555 1_555
C3A O4A 1_555 1_555
C4A C1A 1_555 1_555
C6A H2A 1_555 1_555
C7A C17A 1_555 1_555
C8A H3A 1_555 1_555
C9A C10A 1_555 1_555
C10A C11A 1_555 1_555
C11A C6A 1_555 1_555
H4A C11A 1_555 1_555
C12A C4A 1_555 1_555
H5A C12A 1_555 1_555
C14A H7A 1_555 1_555
C15A C4A 1_555 1_555
H8A C15A 1_555 1_555
C16A C3A 1_555 1_555
C17A C14A 1_555 1_555
C19A C8A 1_555 1_555
H9A C19A 1_555 1_555
C20A C12A 1_555 1_555
H10A C20A 1_555 1_555
Cd1D O1A 1_555 1_555
Cd1E O1 1_555 1_555
Cd1F O5A 1_555 1_555
Cd1G O5 1_555 1_555
Cd2D O10D 1_555 1_555
Cd2F O9F 1_555 1_555
K1_2 O2A 1_555 1_555
K1F O5 1_555 1_555
K1F_2 O5A 1_555 1_555
Na1D O12D 1_555 1_555
Na1D_2 O7A 1_555 1_555
Na1E O7 1_555 1_555
Na1G O9F 1_555 1_555
O1D Cd1A 1_555 1_555
O1E Cd1 1_555 1_555
O2A_2 K1 1_555 1_555
O5F Cd1A 1_555 1_555
O5F_2 K1 1_555 1_555
O5G Cd1 1_555 1_555
O6F Cd1A 1_555 1_555
O6G Cd1 1_555 1_555
O7D Cd1A 1_555 1_555
O7E Cd1 1_555 1_555
O8A_2 K1 1_555 1_555
O9A Cd2 1_555 1_555
O10A Cd2 1_555 1_555
O11A Cd2 1_555 1_555
O12A Cd2 1_555 1_555
K1 O5G 1_555 1_555
Na1 O4 1_555 1_555
Na1 O12 1_555 1_555
Na1 O7E 1_555 1_555
Na1 O9A 1_555 1_555
O6 Cd1G 1_555 1_555
O7 Cd1E 1_555 1_555
O8 C3 1_555 1_555
C5 C18 1_555 1_555
C6 C16 1_555 1_555
C8 C16 1_555 1_555
C10 C19 1_555 1_555
O12 C24 1_555 1_555
C14 C15 1_555 1_555
C17 C20 1_555 1_555
C21 C24 1_555 1_555
O11F Cd2F 1_555 1_555
C5F C13F 1_555 1_555
O12D Cd2D 1_555 1_555
C21D C23D 1_555 1_555
Na1A O4A 1_555 1_555
Na1A O7D 1_555 1_555
Na1A O12A 1_555 1_555
O6A Cd1F 1_555 1_555
O7A Cd1D 1_555 1_555
O8A K1_2 1_555 1_555
C6A C16A 1_555 1_555
C8A C16A 1_555 1_555
C10A C19A 1_555 1_555
C14A C15A 1_555 1_555
C17A C20A 1_555 1_555
K1_2 O5F 1_555 1_555

#END
