
#######################################################################
#
#                 Cambridge Crystallographic Data Centre
#                                CCDC 
#
#######################################################################
#
# If this CIF has been generated from an entry in the Cambridge 
# Structural Database, then it will include bibliographic, chemical, 
# crystal, experimental, refinement or atomic coordinate data resulting 
# from the CCDC's data processing and validation procedures.
#
#######################################################################

data_IYAJUP
_chemical_formula_moiety         '(C56 H49 Cd3 K3 N2 O27 2-)n'
_symmetry_cell_setting           monoclinic
_symmetry_space_group_name_H-M   'C 2/c'
_symmetry_Int_Tables_number      15
_space_group_name_Hall           '-C 2yc'
loop_
_symmetry_equiv_pos_site_id
_symmetry_equiv_pos_as_xyz
1 x,y,z
2 -x,y,1/2-z
3 1/2+x,1/2+y,z
4 1/2-x,1/2+y,1/2-z
5 -x,-y,-z
6 x,-y,1/2+z
7 1/2-x,1/2-y,-z
8 1/2+x,1/2-y,1/2+z
_cell_length_a                   19.2145(17)
_cell_length_b                   26.4088(17)
_cell_length_c                   17.7174(12)
_cell_angle_alpha                90
_cell_angle_beta                 118.431(2)
_cell_angle_gamma                90
_cell_volume                     7906.05
loop_
_atom_site_label
_atom_site_type_symbol
_atom_site_fract_x
_atom_site_fract_y
_atom_site_fract_z
Cd1 Cd 0.89816(2) 0.63320(2) 0.86642(2)
Cd2 Cd 0.5000 0.36350(3) 0.2500
K1 K 0.5000 0.83051(8) 0.2500
K2 K 0.69525(10) 0.40755(8) 0.28858(12)
O1 O 0.9048(2) 0.59087(16) 0.7592(3)
O2 O 0.7842(3) 0.67092(17) 0.7759(3)
O3 O 0.8244(3) 0.40123(17) 0.4305(3)
O4 O 0.9424(3) 0.43331(19) 0.4679(3)
O5 O 0.5316(2) 0.83511(17) 0.4142(3)
O6 O 0.8637(3) 0.7102(2) 0.7359(3)
O7 O 0.6267(3) 0.33175(19) 0.3181(3)
O8 O 0.4613(2) 0.80777(19) 0.4740(3)
O9 O 0.5491(3) 0.2960(2) 0.3612(4)
O10 O 0.8022(3) 0.5480(2) 0.7481(4)
C1 C 0.8544(4) 0.5578(3) 0.7272(4)
C2 C 0.7968(3) 0.7019(3) 0.7281(4)
C3 C 0.8805(4) 0.4314(2) 0.4745(4)
C4 C 0.8253(4) 0.2615(3) 0.5147(4)
H1 H 0.8761 0.2694 0.5247
C5 C 0.6851(4) 0.2746(2) 0.4349(4)
C6 C 0.5872(4) 0.7503(3) 0.5946(4)
H2 H 0.5384 0.7474 0.5932
C7 C 0.9199(4) 0.5334(3) 0.6393(4)
H3 H 0.9583 0.5581 0.6665
C8 C 0.5949(3) 0.7798(2) 0.5348(4)
C9 C 0.6529(3) 0.7247(3) 0.6573(4)
H4 H 0.6478 0.7054 0.6982
C10 C 0.8613(4) 0.5292(3) 0.6632(4)
C11 C 0.6683(4) 0.7829(3) 0.5356(4)
H5 H 0.6734 0.8022 0.4945
C12 C 0.9259(4) 0.5037(2) 0.5780(4)
H6 H 0.9669 0.5091 0.5651
C13 C 0.7329(4) 0.7572(3) 0.5976(4)
H7 H 0.7815 0.7595 0.5983
C14 C 0.7261(3) 0.7279(2) 0.6591(4)
C15 C 0.8705(4) 0.4660(2) 0.5360(4)
C16 C 0.8082(4) 0.4596(3) 0.5539(4)
H8 H 0.7700 0.4351 0.5247
C17 C 0.5253(3) 0.8094(2) 0.4700(4)
O11 O 0.4542(4) 0.4089(3) 0.3268(4)
C18 C 0.6157(4) 0.3022(3) 0.3672(4)
C19 C 0.7608(4) 0.2859(3) 0.4496(4)
H9 H 0.7684 0.3098 0.4157
C20 C 0.8022(4) 0.4894(3) 0.6146(5)
H10 H 0.7599 0.4843 0.6255
C21 C 0.5606(6) 0.5309(4) 0.5526(6)
H11 H 0.6028 0.5516 0.5880
C22 C 0.5052(6) 0.4688(3) 0.4394(5)
C23 C 0.5152(7) 0.4346(3) 0.3744(6)
C24 C 0.5673(6) 0.4999(4) 0.4917(6)
H12 H 0.6134 0.5004 0.4867
O12 O 0.5761(6) 0.4314(4) 0.3741(6)
O7F O 0.8733(3) 0.16825(19) 0.6819(3)
O9F O 0.9509(3) 0.2040(2) 0.6388(4)
C4F C 0.6747(4) 0.2385(3) 0.4853(4)
H1F H 0.6239 0.2306 0.4753
C5F C 0.8149(4) 0.2254(2) 0.5651(4)
C18F C 0.8843(4) 0.1978(3) 0.6328(4)
C19F C 0.7392(4) 0.2141(3) 0.5504(4)
H9F H 0.7316 0.1902 0.5843
O11D O 0.5458(4) 0.5911(3) 0.6732(4)
C21D C 0.4394(6) 0.4691(4) 0.4474(6)
H11D H 0.3972 0.4484 0.4120
C22D C 0.4948(6) 0.5312(3) 0.5606(5)
C23D C 0.4848(7) 0.5654(3) 0.6256(6)
C24D C 0.4327(6) 0.5001(4) 0.5083(6)
H12D H 0.3866 0.4996 0.5133
O12D O 0.4239(6) 0.5686(4) 0.6259(6)
Cd1A Cd 0.10184(2) 0.63320(2) -0.36642(2)
K2A K 0.30475(10) 0.40755(8) 0.21142(12)
O1A O 0.0952(2) 0.59087(16) -0.2592(3)
O2A O 0.2158(3) 0.67092(17) -0.2759(3)
O3A O 0.1756(3) 0.40123(17) 0.0695(3)
O4A O 0.0576(3) 0.43331(19) 0.0321(3)
O5A O 0.4684(2) 0.83511(17) 0.0858(3)
O6A O 0.1363(3) 0.7102(2) -0.2359(3)
O8A O 0.5387(2) 0.80777(19) 0.0260(3)
O10A O 0.1978(3) 0.5480(2) -0.2481(4)
C1A C 0.1456(4) 0.5578(3) -0.2272(4)
C2A C 0.2032(3) 0.7019(3) -0.2281(4)
C3A C 0.1195(4) 0.4314(2) 0.0255(4)
C6A C 0.4128(4) 0.7503(3) -0.0946(4)
H2A H 0.4616 0.7474 -0.0932
C7A C 0.0801(4) 0.5334(3) -0.1393(4)
H3A H 0.0417 0.5581 -0.1665
C8A C 0.4051(3) 0.7798(2) -0.0348(4)
C9A C 0.3471(3) 0.7247(3) -0.1573(4)
H4A H 0.3522 0.7054 -0.1982
C10A C 0.1387(4) 0.5292(3) -0.1632(4)
C11A C 0.3317(4) 0.7829(3) -0.0356(4)
H5A H 0.3266 0.8022 0.0055
C12A C 0.0741(4) 0.5037(2) -0.0780(4)
H6A H 0.0331 0.5091 -0.0651
C13A C 0.2671(4) 0.7572(3) -0.0976(4)
H7A H 0.2185 0.7595 -0.0983
C14A C 0.2739(3) 0.7279(2) -0.1591(4)
C15A C 0.1295(4) 0.4660(2) -0.0360(4)
C16A C 0.1918(4) 0.4596(3) -0.0539(4)
H8A H 0.2300 0.4351 -0.0247
C17A C 0.4747(3) 0.8094(2) 0.0300(4)
C20A C 0.1978(4) 0.4894(3) -0.1146(5)
H10A H 0.2401 0.4843 -0.1255
Cd1D Cd 0.10184(2) 0.36680(2) 0.13358(2)
Cd1E Cd 0.89816(2) 0.36680(2) 0.36642(2)
Cd1F Cd 0.60184(2) 0.86680(2) 0.13358(2)
Cd1G Cd 0.39816(2) 0.86680(2) 0.36642(2)
Cd2D Cd 0.5000 0.63650(3) 0.7500
Cd2F Cd 1.0000 0.13650(3) 0.7500
K1F K -0.0000 0.66949(8) -0.2500
K1F_2 K 1.0000 0.66949(8) 0.7500
K2D K 0.30475(10) 0.59245(8) -0.28858(12)
K2D_2 K 0.30475(10) 0.59245(8) 0.71142(12)
K2E K 0.69525(10) 0.59245(8) 0.78858(12)
K2F K 0.80475(10) 0.09245(8) 0.71142(12)
O1F O 0.5952(2) 0.90913(16) 0.2408(3)
O1G O 0.4048(2) 0.90913(16) 0.2592(3)
O2D O 0.2158(3) 0.32908(17) 0.2241(3)
O2E O 0.7842(3) 0.32908(17) 0.2759(3)
O3D O 0.1756(3) 0.59877(17) -0.4305(3)
O3E O 0.8244(3) 0.59877(17) 0.9305(3)
O4D O 0.0576(3) 0.56669(19) -0.4679(3)
O4E O 0.9424(3) 0.56669(19) 0.9679(3)
O5F O -0.0316(2) 0.66489(17) -0.4142(3)
O5G O 1.0316(2) 0.66489(17) 0.9142(3)
O6F O 0.6363(3) 0.7898(2) 0.2641(3)
O6G O 0.3637(3) 0.7898(2) 0.2359(3)
O7A O 0.3733(3) 0.33175(19) 0.1819(3)
O8F O 0.0387(2) 0.69223(19) -0.4740(3)
O8G O 0.9613(2) 0.69223(19) 0.9740(3)
O9A O 0.4509(3) 0.2960(2) 0.1388(4)
O10D O 0.1978(3) 0.4520(2) 0.2519(4)
O10E O 0.8022(3) 0.4520(2) 0.2481(4)
O11A O 0.5458(4) 0.4089(3) 0.1732(4)
O12A O 0.4239(6) 0.4314(4) 0.1259(6)
O13 O 1.0000 0.3558(4) 0.7500
C25 C 1.0000 0.4104(5) 0.7500
N1 N 0.3680(7) 0.6522(4) 0.3674(7)
H13 H 0.3536 0.6636 0.3167
C26 C 0.4318(11) 0.6833(7) 0.4337(13)
H14 H 0.4371 0.7142 0.4083
H15 H 0.4808 0.6649 0.4572
H16 H 0.4190 0.6911 0.4786
C27 C 0.3831(12) 0.6003(5) 0.3721(15)
H17 H 0.3568 0.5860 0.3154
H18 H 0.3640 0.5845 0.4073
H19 H 0.4391 0.5948 0.3966
O14 O 0.8051(9) 0.4389(5) 0.7864(7)
H20 H 0.8174 0.4614 0.7631
C28 C 0.8700(12) 0.4290(9) 0.8698(10)
H21 H 0.9102 0.4104 0.8642
H22 H 0.8517 0.4096 0.9027
H23 H 0.8915 0.4605 0.8985
C29 C 0.568(3) 0.6115(17) 0.371(3)
O15 O 0.638(2) 0.5322(13) 0.328(2)
C30 C 0.683(3) 0.6339(15) 0.496(3)
C31 C 0.745(3) 0.5880(18) 0.454(3)
N2 N 0.662(2) 0.6049(17) 0.417(3)
C32 C 0.610(3) 0.5680(16) 0.350(3)
loop_
_geom_bond_atom_site_label_1
_geom_bond_atom_site_label_2
_geom_bond_site_symmetry_1
_geom_bond_site_symmetry_2
Cd1 O1 1_555 1_555
Cd2 O7 1_555 1_555
K1 O5 1_555 1_555
K2 O3 1_555 1_555
O1 C1 1_555 1_555
O2 Cd1 1_555 1_555
O3 C3 1_555 1_555
O4 C3 1_555 1_555
O5 C17 1_555 1_555
O6 C2 1_555 1_555
O7 K2 1_555 1_555
O8 C17 1_555 1_555
O9 Cd2 1_555 1_555
O10 C1 1_555 1_555
C1 C10 1_555 1_555
C2 O2 1_555 1_555
C3 C15 1_555 1_555
C4 H1 1_555 1_555
C5 C18 1_555 1_555
C6 H2 1_555 1_555
C7 H3 1_555 1_555
C8 C6 1_555 1_555
C9 C6 1_555 1_555
H4 C9 1_555 1_555
C10 C7 1_555 1_555
C11 C8 1_555 1_555
H5 C11 1_555 1_555
C12 C7 1_555 1_555
H6 C12 1_555 1_555
C13 C11 1_555 1_555
H7 C13 1_555 1_555
C14 C2 1_555 1_555
C15 C12 1_555 1_555
C16 C15 1_555 1_555
H8 C16 1_555 1_555
C17 C8 1_555 1_555
O11 Cd2 1_555 1_555
C18 O7 1_555 1_555
C19 C4 1_555 1_555
H9 C19 1_555 1_555
C20 C10 1_555 1_555
H10 C20 1_555 1_555
C21 H11 1_555 1_555
C22 C23 1_555 1_555
C23 O11 1_555 1_555
C24 C21 1_555 1_555
H12 C24 1_555 1_555
O12 Cd2 1_555 1_555
O13 C25 1_555 1_555
N1 H13 1_555 1_555
C26 N1 1_555 1_555
H14 C26 1_555 1_555
H15 C26 1_555 1_555
H16 C26 1_555 1_555
C27 N1 1_555 1_555
H17 C27 1_555 1_555
H18 C27 1_555 1_555
H19 C27 1_555 1_555
O14 H20 1_555 1_555
C28 O14 1_555 1_555
H21 C28 1_555 1_555
H22 C28 1_555 1_555
H23 C28 1_555 1_555
C29 C32 1_555 1_555
O15 C32 1_555 1_555
C30 N2 1_555 1_555
C31 N2 1_555 1_555
N2 C32 1_555 1_555
O7F C18F 1_555 1_555
O9F C18F 1_555 1_555
C4F C5 1_555 1_555
H1F C4F 1_555 1_555
C5F C4 1_555 1_555
C18F C5F 1_555 1_555
C19F C4F 1_555 1_555
H9F C19F 1_555 1_555
O11D C23D 1_555 1_555
C21D C22 1_555 1_555
H11D C21D 1_555 1_555
C22D C21 1_555 1_555
C23D C22D 1_555 1_555
C24D C21D 1_555 1_555
H12D C24D 1_555 1_555
O12D C23D 1_555 1_555
Cd1A O1A 1_555 1_555
K2A O11 1_555 1_555
O1A C1A 1_555 1_555
O2A Cd1A 1_555 1_555
O3A K2A 1_555 1_555
O4A C3A 1_555 1_555
O5A K1 1_555 1_555
O6A C2A 1_555 1_555
O8A C17A 1_555 1_555
O10A C1A 1_555 1_555
C1A C10A 1_555 1_555
C2A O2A 1_555 1_555
C3A O3A 1_555 1_555
C6A H2A 1_555 1_555
C7A H3A 1_555 1_555
C8A C6A 1_555 1_555
C9A C6A 1_555 1_555
H4A C9A 1_555 1_555
C10A C7A 1_555 1_555
C11A C8A 1_555 1_555
H5A C11A 1_555 1_555
C12A C7A 1_555 1_555
H6A C12A 1_555 1_555
C13A C11A 1_555 1_555
H7A C13A 1_555 1_555
C14A C2A 1_555 1_555
C15A C3A 1_555 1_555
C16A C15A 1_555 1_555
H8A C16A 1_555 1_555
C17A O5A 1_555 1_555
C20A C10A 1_555 1_555
H10A C20A 1_555 1_555
Cd1D O3A 1_555 1_555
Cd1E O3 1_555 1_555
Cd1F O5A 1_555 1_555
Cd1G O5 1_555 1_555
Cd2D O11D 1_555 1_555
Cd2F O7F 1_555 1_555
K1F O1A 1_555 1_555
K1F_2 O1 1_555 1_555
K2D O2A 1_555 1_555
K2D_2 O12D 1_555 1_555
K2E O2 1_555 1_555
K2F O7F 1_555 1_555
O1F K1 1_555 1_555
O1G K1 1_555 1_555
O2D K2A 1_555 1_555
O2E K2 1_555 1_555
O3D Cd1A 1_555 1_555
O3E Cd1 1_555 1_555
O4D Cd1A 1_555 1_555
O4E Cd1 1_555 1_555
O5F Cd1A 1_555 1_555
O5G Cd1 1_555 1_555
O6F K1 1_555 1_555
O6G K1 1_555 1_555
O7A Cd2 1_555 1_555
O8F Cd1A 1_555 1_555
O8G Cd1 1_555 1_555
O9A Cd2 1_555 1_555
O10D K2A 1_555 1_555
O10E K2 1_555 1_555
O11A Cd2 1_555 1_555
O12A Cd2 1_555 1_555
K2 O12 1_555 1_555
K2 O11A 1_555 1_555
O4 Cd1E 1_555 1_555
O6 K1F_2 1_555 1_555
O8 Cd1G 1_555 1_555
O9 C18 1_555 1_555
O10 K2E 1_555 1_555
C5 C19 1_555 1_555
C9 C14 1_555 1_555
C13 C14 1_555 1_555
C16 C20 1_555 1_555
C22 C24 1_555 1_555
C23 O12 1_555 1_555
O9F Cd2F 1_555 1_555
C5F C19F 1_555 1_555
O11D K2E 1_555 1_555
C22D C24D 1_555 1_555
O12D Cd2D 1_555 1_555
K2A O7A 1_555 1_555
K2A O12A 1_555 1_555
O4A Cd1D 1_555 1_555
O6A K1F 1_555 1_555
O8A Cd1F 1_555 1_555
O10A K2D 1_555 1_555
C8A C17A 1_555 1_555
C9A C14A 1_555 1_555
C12A C15A 1_555 1_555
C13A C14A 1_555 1_555
C16A C20A 1_555 1_555
Cd1D O2D 1_555 1_555
Cd1E O2E 1_555 1_555
Cd1F O1F 1_555 1_555
Cd1G O1G 1_555 1_555
K1F O5F 1_555 1_555
K1F_2 O5G 1_555 1_555
K2D O3D 1_555 1_555
K2E O3E 1_555 1_555

#END
