
#######################################################################
#
#                 Cambridge Crystallographic Data Centre
#                                CCDC 
#
#######################################################################
#
# If this CIF has been generated from an entry in the Cambridge 
# Structural Database, then it will include bibliographic, chemical, 
# crystal, experimental, refinement or atomic coordinate data resulting 
# from the CCDC's data processing and validation procedures.
#
#######################################################################

data_IYAKIE
_chemical_formula_moiety         '(C76 H77 Ca2 Cd4 N5 O35)n'
_symmetry_cell_setting           orthorhombic
_symmetry_space_group_name_H-M   'P n a 21'
_symmetry_Int_Tables_number      33
_space_group_name_Hall           'P 2c -2n'
loop_
_symmetry_equiv_pos_site_id
_symmetry_equiv_pos_as_xyz
1 x,y,z
2 -x,-y,1/2+z
3 1/2+x,1/2-y,z
4 1/2-x,1/2+y,1/2+z
_cell_length_a                   19.9990(11)
_cell_length_b                   18.6284(11)
_cell_length_c                   35.123(2)
_cell_angle_alpha                90
_cell_angle_beta                 90
_cell_angle_gamma                90
_cell_volume                     13085.1
loop_
_atom_site_label
_atom_site_type_symbol
_atom_site_fract_x
_atom_site_fract_y
_atom_site_fract_z
C1 C 0.7209(5) 0.3411(6) 0.6770(3)
C2 C 0.6830(5) 0.4112(6) 0.6780(3)
C3 C 0.9733(5) 0.2685(6) 0.6289(3)
C4 C 0.6790(5) 0.4492(6) 0.7116(3)
H1 H 0.6998 0.4310 0.7332
C5 C 0.6448(5) 0.5140(6) 0.7142(3)
H2 H 0.6423 0.5389 0.7371
C6 C 0.6137(5) 0.5410(6) 0.6808(3)
C7 C 0.6195(6) 0.5042(7) 0.6470(3)
H3 H 0.6007 0.5231 0.6250
C8 C 0.6527(6) 0.4398(7) 0.6456(3)
H4 H 0.6550 0.4149 0.6227
C9 C 0.5722(5) 0.6087(6) 0.6830(3)
C10 C 0.7354(5) 0.1090(5) 0.6667(3)
C11 C 0.6988(5) 0.0374(6) 0.6703(3)
C12 C 0.6915(6) -0.0088(7) 0.6395(3)
H5 H 0.7112 0.0024 0.6163
C13 C 0.6553(6) -0.0710(6) 0.6435(3)
H6 H 0.6486 -0.1008 0.6226
C14 C 0.6286(4) -0.0896(5) 0.6787(3)
C15 C 0.6355(4) -0.0446(5) 0.7097(3)
H7 H 0.6164 -0.0566 0.7330
C16 C 0.6707(5) 0.0175(6) 0.7057(3)
H8 H 0.6763 0.0475 0.7266
C17 C 0.5908(5) -0.1596(6) 0.6828(3)
C18 C 0.8334(5) 0.1402(6) 0.5271(3)
C19 C 0.8665(5) 0.0667(6) 0.5300(3)
C20 C 0.8882(6) 0.0330(6) 0.4970(3)
H9 H 0.8795 0.0529 0.4733
C21 C 0.9236(6) -0.0315(6) 0.5002(3)
H10 H 0.9412 -0.0530 0.4785
C22 C 0.9323(5) -0.0633(6) 0.5349(3)
C23 C 0.9087(6) -0.0332(6) 0.5660(3)
H11 H 0.9133 -0.0563 0.5894
C24 C 0.8758(6) 0.0352(7) 0.5641(3)
H12 H 0.8610 0.0576 0.5862
C25 C 0.9694(5) -0.1333(6) 0.5388(3)
C26 C 0.6853(6) 0.2562(7) 0.4364(4)
C27 C 0.6537(7) 0.2570(7) 0.3966(4)
C28 C 0.5965(6) 0.2190(8) 0.3917(3)
H13 H 0.5768 0.1944 0.4119
C29 C 0.5677(6) 0.2179(7) 0.3548(4)
H14 H 0.5324 0.1872 0.3492
C30 C 0.5936(5) 0.2645(5) 0.3263(3)
C31 C 0.6460(6) 0.3054(7) 0.3345(4)
H15 H 0.6614 0.3381 0.3165
C32 C 0.6781(6) 0.3002(7) 0.3691(4)
H16 H 0.7167 0.3267 0.3735
C33 C 0.5567(5) 0.2653(6) 0.2884(3)
C34 C 0.8258(6) 0.3685(6) 0.5487(3)
C35 C 0.8600(5) 0.4394(6) 0.5523(3)
C36 C 0.8740(8) 0.4721(7) 0.5891(4)
H17 H 0.8603 0.4493 0.6114
C37 C 0.9078(7) 0.5373(7) 0.5911(4)
H18 H 0.9177 0.5578 0.6146
C38 C 0.9255(5) 0.5695(6) 0.5594(3)
C39 C 0.9126(5) 0.5417(6) 0.5234(3)
H19 H 0.9253 0.5677 0.5019
C40 C 0.8814(6) 0.4767(6) 0.5190(4)
H20 H 0.8743 0.4574 0.4949
C41 C 0.9634(5) 0.6419(6) 0.5617(3)
C42 C 0.9177(5) 0.2731(6) 0.6571(3)
C43 C 1.0305(5) 0.3125(6) 0.6317(3)
H21 H 1.0319 0.3482 0.6502
C44 C 1.0834(5) 0.3039(5) 0.6079(3)
H22 H 1.1193 0.3356 0.6093
C45 C 1.0265(5) 0.2001(6) 0.5771(3)
H23 H 1.0260 0.1641 0.5588
C46 C 0.9718(5) 0.2097(6) 0.6011(3)
H24 H 0.9350 0.1794 0.5995
C47 C 1.0845(5) 0.2467(6) 0.5809(4)
C48 C 1.1431(5) 0.2357(7) 0.5553(3)
C49 C 1.1607(5) 0.7357(8) 0.5715(3)
C50 C 1.2189(5) 0.7493(6) 0.5973(3)
C51 C 1.2206(5) 0.7993(6) 0.6224(3)
H25 H 1.1835 0.8288 0.6255
C52 C 1.2783(5) 0.8107(6) 0.6457(3)
H26 H 1.2805 0.8505 0.6616
C53 C 1.3286(5) 0.7644(6) 0.6446(3)
C54 C 1.3288(5) 0.7068(6) 0.6182(3)
H27 H 1.3654 0.6762 0.6166
C55 C 1.2742(5) 0.6968(6) 0.5952(3)
H28 H 1.2721 0.6580 0.5786
C56 C 1.3878(5) 0.7707(7) 0.6712(4)
C57 C 1.1121(5) 0.7387(7) 0.4489(3)
C58 C 1.1359(5) 0.7412(7) 0.4071(3)
C59 C 1.1846(6) 0.7846(8) 0.3955(3)
H29 H 1.2078 0.8116 0.4134
C60 C 1.2019(5) 0.7907(6) 0.3565(3)
H30 H 1.2354 0.8217 0.3485
C61 C 1.1675(5) 0.7493(6) 0.3314(3)
C62 C 1.1173(6) 0.6992(6) 0.3446(3)
H31 H 1.0954 0.6688 0.3277
C63 C 1.1034(6) 0.6978(7) 0.3816(4)
H32 H 1.0708 0.6664 0.3905
C64 C 1.1807(6) 0.7583(6) 0.2894(4)
C65 C 0.8877(7) 0.0736(8) 0.7205(5)
C66 C 0.8436(9) 0.0381(12) 0.7560(6)
H33 H 0.8107 0.0059 0.7459
H34 H 0.8217 0.0757 0.7700
H35 H 0.8730 0.0123 0.7728
C67 C 0.8942(11) -0.0538(8) 0.6977(5)
H36 H 0.8957 -0.0725 0.7231
H37 H 0.9272 -0.0776 0.6823
H38 H 0.8506 -0.0618 0.6870
C68 C 0.9426(10) 0.0559(11) 0.6653(5)
H39 H 0.9103 0.0754 0.6480
H40 H 0.9663 0.0173 0.6531
H41 H 0.9737 0.0927 0.6726
Ca1 Ca 0.77774(9) 0.23396(11) 0.60644(5)
Cd1 Cd 0.81886(3) 0.22973(4) 0.71112(2)
O1 O 0.7520(4) 0.3239(4) 0.7058(2)
Ca2 Ca 1.01954(9) 0.77118(10) 0.61684(5)
Cd2 Cd 0.74735(3) 0.25795(4) 0.50412(2)
O2 O 0.7163(4) 0.3041(4) 0.6473(2)
Cd3 Cd 1.06044(3) 0.74530(4) 0.51810(2)
O3 O 0.5644(3) 0.6385(4) 0.7154(2)
Cd4 Cd 0.49941(3) 0.73430(4) 0.71908(2)
O4 O 0.5509(4) 0.6327(5) 0.6522(2)
N1 N 0.9092(6) 0.0292(6) 0.6985(4)
O5 O 0.7462(4) 0.1435(4) 0.6974(2)
O6 O 0.7513(4) 0.1262(4) 0.6336(2)
O7 O 0.5650(4) -0.1720(4) 0.7151(2)
O8 O 0.5837(4) -0.2016(5) 0.6538(2)
O9 O 0.8295(3) 0.1765(4) 0.5571(2)
O10 O 0.8106(4) 0.1583(4) 0.4963(2)
O11 O 0.9709(3) -0.1627(4) 0.5701(2)
O12 O 1.0008(4) -0.1561(4) 0.5086(2)
O13 O 0.7324(4) 0.3002(5) 0.4428(2)
O14 O 0.6695(4) 0.2082(5) 0.4596(2)
O15 O 0.5761(4) 0.3124(4) 0.2649(2)
O16 O 0.5116(4) 0.2226(5) 0.2807(2)
O17 O 0.8138(4) 0.3468(4) 0.5155(2)
O18 O 0.8078(4) 0.3379(5) 0.5788(2)
O19 O 0.9739(4) 0.6685(4) 0.5919(2)
O20 O 0.9860(4) 0.6640(5) 0.5302(2)
O21 O 0.8642(3) 0.2391(5) 0.6501(2)
O22 O 0.9262(4) 0.3078(6) 0.6852(3)
O23 O 1.1408(3) 0.1891(5) 0.5310(2)
O24 O 1.1930(3) 0.2753(4) 0.5593(2)
O25 O 1.1597(4) 0.6865(4) 0.5472(2)
O26 O 1.1116(3) 0.7824(4) 0.5743(2)
O27 O 1.4366(4) 0.7283(5) 0.6652(2)
O28 O 1.3843(4) 0.8116(4) 0.6992(3)
O29 O 1.0713(4) 0.6914(5) 0.4585(2)
O30 O 1.1370(4) 0.7834(5) 0.4711(2)
O31 O 1.1434(4) 0.7240(5) 0.2664(2)
O32 O 1.2266(4) 0.7984(5) 0.2776(2)
O33 O 0.8971(4) 0.1370(5) 0.7204(3)
Ca1B Ca 1.27774(9) 0.26604(11) 0.60644(5)
Cd1A Cd 1.18114(3) 0.77027(4) 0.21112(2)
Ca2_2 Ca 1.01954(9) -0.22882(10) 0.61684(5)
Ca2B Ca 0.51954(9) -0.27118(10) 0.61684(5)
Ca2B_2 Ca 0.51954(9) 0.72882(10) 0.61684(5)
Ca2B_3 Ca 1.51954(9) 0.72882(10) 0.61684(5)
Cd2B Cd 1.24735(3) 0.24205(4) 0.50412(2)
Cd3_2 Cd 1.06044(3) -0.25470(4) 0.51810(2)
Cd4_2 Cd 0.49941(3) -0.26570(4) 0.71908(2)
Cd4_3 Cd 1.49941(3) 0.73430(4) 0.71908(2)
Cd4A Cd 0.50059(3) 0.26570(4) 0.21908(2)
O4B O 1.0509(4) 0.8673(5) 0.6522(2)
O7_2 O 0.5650(4) 0.8280(4) 0.7151(2)
O8B O 1.0837(4) 0.7016(5) 0.6538(2)
O11_2 O 0.9709(3) 0.8373(4) 0.5701(2)
O12_2 O 1.0008(4) 0.8439(4) 0.5086(2)
O15A O 0.4239(4) 0.6876(4) 0.7649(2)
O16A O 0.4884(4) 0.7774(5) 0.7807(2)
O23B O 0.6408(3) 0.3109(5) 0.5310(2)
O24B O 0.6930(3) 0.2247(4) 0.5593(2)
O27_2 O 0.4366(4) 0.7283(5) 0.6652(2)
O27B O 0.9366(4) 0.7717(5) 0.6652(2)
O28_2 O 0.3843(4) 0.8116(4) 0.6992(3)
O31A O 0.8566(4) 0.2760(5) 0.7664(2)
O32A O 0.7734(4) 0.2016(5) 0.7776(2)
C69 C 1.4671(8) 0.9957(10) 0.7210(6)
H42 H 1.4713 1.0296 0.7005
H43 H 1.4764 0.9483 0.7117
H44 H 1.4983 1.0077 0.7408
C70 C 1.3920(8) 1.0652(7) 0.7553(5)
H45 H 1.3903 1.1032 0.7369
H46 H 1.4297 1.0723 0.7718
H47 H 1.3516 1.0652 0.7701
N2 N 1.3985(5) 0.9983(6) 0.7362(3)
H48 H 1.3685 0.9950 0.7172
H49 H 1.3917 0.9618 0.7526
C71 C 1.0914(11) 0.3175(11) 0.7363(6)
H50 H 1.0536 0.3360 0.7226
H51 H 1.1275 0.3088 0.7188
H52 H 1.1054 0.3519 0.7550
C72 C 1.1348(11) 0.2233(14) 0.7753(7)
H53 H 1.1573 0.1889 0.7595
H54 H 1.1227 0.2012 0.7990
H55 H 1.1641 0.2632 0.7801
N3 N 1.0727(5) 0.2495(7) 0.7553(4)
H56 H 1.0588 0.2170 0.7381
H57 H 1.0396 0.2570 0.7722
C73 C 1.1966(16) 0.4591(18) 0.5195(10)
C74 C 1.1048(15) 0.5405(18) 0.4890(9)
N4 N 1.1213(11) 0.4829(12) 0.5185(7)
H58 H 1.0960 0.4440 0.5136
H59 H 1.1099 0.4993 0.5416
C75 C 0.7575(7) -0.1674(9) 0.7414(5)
H60 H 0.7684 -0.1974 0.7200
H61 H 0.7980 -0.1518 0.7535
H62 H 0.7327 -0.1264 0.7328
C76 C 0.6897(6) -0.1478(8) 0.7936(4)
H63 H 0.7203 -0.1084 0.7911
H64 H 0.6866 -0.1617 0.8199
H65 H 0.6464 -0.1336 0.7846
N5 N 0.7146(8) -0.2107(9) 0.7703(5)
H66 H 0.6811 -0.2347 0.7589
H67 H 0.7395 -0.2413 0.7842
O34 O 0.9130(8) 0.2623(9) 0.4306(5)
O35 O 1.3174(9) 0.9180(10) 0.3065(5)
loop_
_geom_bond_atom_site_label_1
_geom_bond_atom_site_label_2
_geom_bond_site_symmetry_1
_geom_bond_site_symmetry_2
C1 C2 1_555 1_555
C2 C4 1_555 1_555
C3 C42 1_555 1_555
C4 H1 1_555 1_555
C5 C4 1_555 1_555
H2 C5 1_555 1_555
C6 C5 1_555 1_555
C7 C6 1_555 1_555
H3 C7 1_555 1_555
C8 C2 1_555 1_555
H4 C8 1_555 1_555
C9 C6 1_555 1_555
C10 C11 1_555 1_555
C11 C12 1_555 1_555
C12 H5 1_555 1_555
C13 C12 1_555 1_555
H6 C13 1_555 1_555
C14 C13 1_555 1_555
C15 C14 1_555 1_555
H7 C15 1_555 1_555
C16 C11 1_555 1_555
H8 C16 1_555 1_555
C17 C14 1_555 1_555
C18 C19 1_555 1_555
C19 C20 1_555 1_555
C20 H9 1_555 1_555
C21 C20 1_555 1_555
H10 C21 1_555 1_555
C22 C21 1_555 1_555
C23 C22 1_555 1_555
H11 C23 1_555 1_555
C24 C19 1_555 1_555
H12 C24 1_555 1_555
C25 C22 1_555 1_555
C26 C27 1_555 1_555
C27 C28 1_555 1_555
C28 H13 1_555 1_555
C29 C28 1_555 1_555
H14 C29 1_555 1_555
C30 C29 1_555 1_555
C31 C30 1_555 1_555
H15 C31 1_555 1_555
C32 C27 1_555 1_555
H16 C32 1_555 1_555
C33 C30 1_555 1_555
C34 C35 1_555 1_555
C35 C36 1_555 1_555
C36 H17 1_555 1_555
C37 C36 1_555 1_555
H18 C37 1_555 1_555
C38 C37 1_555 1_555
C39 C38 1_555 1_555
H19 C39 1_555 1_555
C40 C35 1_555 1_555
H20 C40 1_555 1_555
C41 C38 1_555 1_555
C42 O21 1_555 1_555
C43 C3 1_555 1_555
H21 C43 1_555 1_555
C44 C43 1_555 1_555
H22 C44 1_555 1_555
C45 H23 1_555 1_555
C46 C3 1_555 1_555
H24 C46 1_555 1_555
C47 C44 1_555 1_555
C48 C47 1_555 1_555
C49 C50 1_555 1_555
C50 C51 1_555 1_555
C51 H25 1_555 1_555
C52 C51 1_555 1_555
H26 C52 1_555 1_555
C53 C52 1_555 1_555
C54 C53 1_555 1_555
H27 C54 1_555 1_555
C55 C50 1_555 1_555
H28 C55 1_555 1_555
C56 C53 1_555 1_555
C57 C58 1_555 1_555
C58 C59 1_555 1_555
C59 H29 1_555 1_555
C60 C59 1_555 1_555
H30 C60 1_555 1_555
C61 C60 1_555 1_555
C62 C61 1_555 1_555
H31 C62 1_555 1_555
C63 C58 1_555 1_555
H32 C63 1_555 1_555
C64 C61 1_555 1_555
C65 C66 1_555 1_555
C66 H33 1_555 1_555
H34 C66 1_555 1_555
H35 C66 1_555 1_555
C67 H36 1_555 1_555
H37 C67 1_555 1_555
H38 C67 1_555 1_555
C68 H39 1_555 1_555
H40 C68 1_555 1_555
H41 C68 1_555 1_555
Ca1 O2 1_555 1_555
Cd1 O1 1_555 1_555
O1 C1 1_555 1_555
Ca2 O19 1_555 1_555
Cd2 O10 1_555 1_555
O2 C1 1_555 1_555
Cd3 O20 1_555 1_555
O3 C9 1_555 1_555
Cd4 O3 1_555 1_555
O4 C9 1_555 1_555
N1 C65 1_555 1_555
O5 C10 1_555 1_555
O6 C10 1_555 1_555
O7 C17 1_555 1_555
O8 C17 1_555 1_555
O9 C18 1_555 1_555
O10 C18 1_555 1_555
O11 C25 1_555 1_555
O12 C25 1_555 1_555
O13 C26 1_555 1_555
O14 C26 1_555 1_555
O15 C33 1_555 1_555
O16 C33 1_555 1_555
O17 C34 1_555 1_555
O18 C34 1_555 1_555
O19 C41 1_555 1_555
O20 C41 1_555 1_555
O21 Ca1 1_555 1_555
O22 C42 1_555 1_555
O23 C48 1_555 1_555
O24 C48 1_555 1_555
O25 C49 1_555 1_555
O26 C49 1_555 1_555
O27 C56 1_555 1_555
O28 C56 1_555 1_555
O29 C57 1_555 1_555
O30 C57 1_555 1_555
O31 C64 1_555 1_555
O32 C64 1_555 1_555
O33 C65 1_555 1_555
C69 H42 1_555 1_555
H43 C69 1_555 1_555
H44 C69 1_555 1_555
C70 H45 1_555 1_555
H46 C70 1_555 1_555
H47 C70 1_555 1_555
N2 C69 1_555 1_555
H48 N2 1_555 1_555
H49 N2 1_555 1_555
C71 H50 1_555 1_555
H51 C71 1_555 1_555
H52 C71 1_555 1_555
C72 H53 1_555 1_555
H54 C72 1_555 1_555
H55 C72 1_555 1_555
N3 C71 1_555 1_555
H56 N3 1_555 1_555
H57 N3 1_555 1_555
C73 N4 1_555 1_555
C74 N4 1_555 1_555
N4 H58 1_555 1_555
H59 N4 1_555 1_555
C75 H60 1_555 1_555
H61 C75 1_555 1_555
H62 C75 1_555 1_555
C76 H63 1_555 1_555
H64 C76 1_555 1_555
H65 C76 1_555 1_555
N5 C75 1_555 1_555
H66 N5 1_555 1_555
H67 N5 1_555 1_555
Ca1B O24 1_555 1_555
Cd1A O31 1_555 1_555
Ca2_2 O11 1_555 1_555
Ca2B O8 1_555 1_555
Ca2B_2 O4 1_555 1_555
Ca2B_3 O27 1_555 1_555
Cd2B O23 1_555 1_555
Cd3_2 O12 1_555 1_555
Cd4_2 O7 1_555 1_555
Cd4_3 O27 1_555 1_555
Cd4A O15 1_555 1_555
O4B Ca2 1_555 1_555
O7_2 Cd4 1_555 1_555
O8B Ca2 1_555 1_555
O11_2 Ca2 1_555 1_555
O12_2 Cd3 1_555 1_555
O15A Cd4 1_555 1_555
O16A Cd4 1_555 1_555
O23B Cd2 1_555 1_555
O24B Ca1 1_555 1_555
O27_2 Cd4 1_555 1_555
O27B Ca2 1_555 1_555
O28_2 Cd4 1_555 1_555
O31A Cd1 1_555 1_555
O32A Cd1 1_555 1_555
C7 C8 1_555 1_555
C15 C16 1_555 1_555
C23 C24 1_555 1_555
C31 C32 1_555 1_555
C39 C40 1_555 1_555
C45 C46 1_555 1_555
C45 C47 1_555 1_555
C54 C55 1_555 1_555
C62 C63 1_555 1_555
C67 N1 1_555 1_555
C68 N1 1_555 1_555
Ca1 O6 1_555 1_555
Ca1 O9 1_555 1_555
Ca1 O18 1_555 1_555
Cd1 O5 1_555 1_555
Cd1 O21 1_555 1_555
Cd1 O22 1_555 1_555
Cd1 O33 1_555 1_555
Ca2 O26 1_555 1_555
Cd2 O13 1_555 1_555
Cd2 O14 1_555 1_555
Cd2 O17 1_555 1_555
Cd2 O24B 1_555 1_555
Cd3 O25 1_555 1_555
Cd3 O26 1_555 1_555
Cd3 O29 1_555 1_555
Cd3 O30 1_555 1_555
O16 Cd4A 1_555 1_555
O24 Cd2B 1_555 1_555
O28 Cd4_3 1_555 1_555
O32 Cd1A 1_555 1_555
C70 N2 1_555 1_555
C72 N3 1_555 1_555
C76 N5 1_555 1_555
Ca2B_2 O27_2 1_555 1_555

#END
