
#######################################################################
#
#                 Cambridge Crystallographic Data Centre
#                                CCDC 
#
#######################################################################
#
# If this CIF has been generated from an entry in the Cambridge 
# Structural Database, then it will include bibliographic, chemical, 
# crystal, experimental, refinement or atomic coordinate data resulting 
# from the CCDC's data processing and validation procedures.
#
#######################################################################

data_FASFUD
_chemical_formula_moiety         '(C44 H31 N4 O14 S4 Sm1)n'
_symmetry_cell_setting           tetragonal
_symmetry_space_group_name_H-M   'P 4/m c c'
_symmetry_Int_Tables_number      124
_space_group_name_Hall           '-P 4 2c'
loop_
_symmetry_equiv_pos_site_id
_symmetry_equiv_pos_as_xyz
1 x,y,z
2 -x,-y,z
3 -y,x,z
4 y,-x,z
5 -x,y,1/2-z
6 x,-y,1/2-z
7 y,x,1/2-z
8 -y,-x,1/2-z
9 -x,-y,-z
10 x,y,-z
11 y,-x,-z
12 -y,x,-z
13 x,-y,1/2+z
14 -x,y,1/2+z
15 -y,-x,1/2+z
16 y,x,1/2+z
_cell_length_a                   15.377(5)
_cell_length_b                   15.377(5)
_cell_length_c                   9.915(5)
_cell_angle_alpha                90
_cell_angle_beta                 90
_cell_angle_gamma                90
_cell_volume                     2344.42
loop_
_atom_site_label
_atom_site_type_symbol
_atom_site_fract_x
_atom_site_fract_y
_atom_site_fract_z
Sm1 Sm -0.0000 -0.0000 0.2500
S1 S 0.02635(4) -0.18102(4) 0.0000
N1 N -0.46968(13) -0.37103(14) 0.0000
O1 O 0.03106(8) -0.12887(9) 0.12089(15)
O2 O 0.08936(11) -0.24968(11) 0.0000
C1 C -0.07612(14) -0.23315(15) 0.0000
C2 C -0.11354(12) -0.25594(13) -0.12058(19)
H1 H -0.0891 -0.2376 -0.2015
C3 C -0.18800(12) -0.30654(12) -0.1205(2)
H2 H -0.2126 -0.3237 -0.2020
C4 C -0.22643(16) -0.33198(17) 0.0000
C5 C -0.31061(16) -0.38240(16) 0.0000
C6 C -0.38628(17) -0.33403(17) 0.0000
C7 C -0.39472(17) -0.24306(17) 0.0000
H3 H -0.3489 -0.2036 0.0000
C8 C -0.47807(16) -0.22235(18) 0.0000
H4 H -0.5010 -0.1664 0.0000
C9 C -0.52735(17) -0.30261(17) 0.0000
S1B S -0.81898(4) 0.02635(4) 0.0000
N1B N -0.62897(14) -0.46968(13) 0.0000
O1B O -0.87113(9) 0.03106(8) 0.12089(15)
O2B O -0.75032(11) 0.08936(11) 0.0000
C1B C -0.76685(15) -0.07612(14) 0.0000
C2B C -0.74406(13) -0.11354(12) -0.12058(19)
H1B H -0.7624 -0.0891 -0.2015
C3B C -0.69346(12) -0.18800(12) -0.1205(2)
H2B H -0.6763 -0.2126 -0.2020
C4B C -0.66802(17) -0.22643(16) 0.0000
C5B C -0.61760(16) -0.31061(16) 0.0000
C6B C -0.66597(17) -0.38628(17) 0.0000
C7B C -0.75694(17) -0.39472(17) 0.0000
H3B H -0.7964 -0.3489 0.0000
C8B C -0.77765(18) -0.47807(16) 0.0000
H4B H -0.8336 -0.5010 0.0000
C9B C -0.69739(17) -0.52735(17) 0.0000
S1C S -0.18102(4) -1.02635(4) 0.0000
N1C N -0.37103(14) -0.53032(13) 0.0000
O1C O -0.12887(9) -1.03106(8) 0.12089(15)
O2C O -0.24968(11) -1.08936(11) 0.0000
C1C C -0.23315(15) -0.92388(14) 0.0000
C2C C -0.25594(13) -0.88646(12) -0.12058(19)
H1C H -0.2376 -0.9109 -0.2015
C3C C -0.30654(12) -0.81200(12) -0.1205(2)
H2C H -0.3237 -0.7874 -0.2020
C4C C -0.33198(17) -0.77357(16) 0.0000
C5C C -0.38240(16) -0.68939(16) 0.0000
C6C C -0.33403(17) -0.61372(17) 0.0000
C7C C -0.24306(17) -0.60528(17) 0.0000
H3C H -0.2036 -0.6511 0.0000
C8C C -0.22235(18) -0.52193(16) 0.0000
H4C H -0.1664 -0.4990 0.0000
C9C C -0.30261(17) -0.47265(17) 0.0000
O1I O 0.03106(8) -0.12887(9) -0.12089(15)
C2I C -0.11354(12) -0.25594(13) 0.12058(19)
H1I H -0.0891 -0.2376 0.2015
C3I C -0.18800(12) -0.30654(12) 0.1205(2)
H2I H -0.2126 -0.3237 0.2020
O1J O -0.12887(9) -1.03106(8) -0.12089(15)
C2J C -0.25594(13) -0.88646(12) 0.12058(19)
H1J H -0.2376 -0.9109 0.2015
C3J C -0.30654(12) -0.81200(12) 0.1205(2)
H2J H -0.3237 -0.7874 0.2020
O1K O -0.87113(9) 0.03106(8) -0.12089(15)
C2K C -0.74406(13) -0.11354(12) 0.12058(19)
H1K H -0.7624 -0.0891 0.2015
C3K C -0.69346(12) -0.18800(12) 0.1205(2)
H2K H -0.6763 -0.2126 0.2020
S1A S -1.02635(4) -0.81898(4) 0.0000
N1A N -0.53032(13) -0.62897(14) 0.0000
O1A O -1.03106(8) -0.87113(9) 0.12089(15)
O2A O -1.08936(11) -0.75032(11) 0.0000
C1A C -0.92388(14) -0.76685(15) 0.0000
C2A C -0.88646(12) -0.74406(13) -0.12058(19)
H1A H -0.9109 -0.7624 -0.2015
C3A C -0.81200(12) -0.69346(12) -0.1205(2)
H2A H -0.7874 -0.6763 -0.2020
C4A C -0.77357(16) -0.66802(17) 0.0000
C5A C -0.68939(16) -0.61760(16) 0.0000
C6A C -0.61372(17) -0.66597(17) 0.0000
C7A C -0.60528(17) -0.75694(17) 0.0000
H3A H -0.6511 -0.7964 0.0000
C8A C -0.52193(16) -0.77765(18) 0.0000
H4A H -0.4990 -0.8336 0.0000
C9A C -0.47265(17) -0.69739(17) 0.0000
O1H O -1.03106(8) -0.87113(9) -0.12089(15)
C2H C -0.88646(12) -0.74406(13) 0.12058(19)
H1H H -0.9109 -0.7624 0.2015
C3H C -0.81200(12) -0.69346(12) 0.1205(2)
H2H H -0.7874 -0.6763 0.2020
Sm1_2 Sm -1.0000 -1.0000 0.2500
Sm1_3 Sm -1.0000 -0.0000 0.2500
Sm1_4 Sm 0.0000 -1.0000 0.2500
Sm1H Sm -1.0000 -1.0000 -0.2500
Sm1H_2 Sm -1.0000 0.0000 -0.2500
Sm1H_3 Sm 0.0000 -1.0000 -0.2500
Sm1H_4 Sm 0.0000 0.0000 -0.2500
O1A_2 O -0.03106(8) 0.12887(9) 0.12089(15)
O1B_2 O 0.12887(9) 0.03106(8) 0.12089(15)
O1C_2 O -0.12887(9) -0.03106(8) 0.12089(15)
O1D O -0.03106(8) -0.12887(9) 0.37911(15)
O1E O 0.03106(8) 0.12887(9) 0.37911(15)
O1F O -0.12887(9) 0.03106(8) 0.37911(15)
O1G O 0.12887(9) -0.03106(8) 0.37911(15)
O3 O -0.5000 -0.5000 0.2500
O4 O -0.5000 -0.5000 0.0697(9)
loop_
_geom_bond_atom_site_label_1
_geom_bond_atom_site_label_2
_geom_bond_site_symmetry_1
_geom_bond_site_symmetry_2
Sm1 O1 1_555 1_555
S1 O1 1_555 1_555
N1 C6 1_555 1_555
O2 S1 1_555 1_555
C1 S1 1_555 1_555
C2 C1 1_555 1_555
H1 C2 1_555 1_555
C3 C2 1_555 1_555
H2 C3 1_555 1_555
C4 C3 1_555 1_555
C5 C4 1_555 1_555
C6 C5 1_555 1_555
C7 C6 1_555 1_555
H3 C7 1_555 1_555
C8 C7 1_555 1_555
H4 C8 1_555 1_555
C9 N1 1_555 1_555
S1B O1B 1_555 1_555
N1B C6B 1_555 1_555
O1B Sm1_3 1_555 1_555
O2B S1B 1_555 1_555
C1B S1B 1_555 1_555
C2B C1B 1_555 1_555
H1B C2B 1_555 1_555
C3B C2B 1_555 1_555
H2B C3B 1_555 1_555
C4B C3B 1_555 1_555
C5B C9 1_555 1_555
C6B C5B 1_555 1_555
C7B C6B 1_555 1_555
H3B C7B 1_555 1_555
C8B C7B 1_555 1_555
H4B C8B 1_555 1_555
C9B N1B 1_555 1_555
S1C O1C 1_555 1_555
N1C C6C 1_555 1_555
O1C Sm1_4 1_555 1_555
O2C S1C 1_555 1_555
C1C S1C 1_555 1_555
C2C C1C 1_555 1_555
H1C C2C 1_555 1_555
C3C C2C 1_555 1_555
H2C C3C 1_555 1_555
C4C C3C 1_555 1_555
C5C C4C 1_555 1_555
C6C C5C 1_555 1_555
C7C C6C 1_555 1_555
H3C C7C 1_555 1_555
C8C C7C 1_555 1_555
H4C C8C 1_555 1_555
C9C C5 1_555 1_555
O1I S1 1_555 1_555
C2I C1 1_555 1_555
H1I C2I 1_555 1_555
C3I C4 1_555 1_555
H2I C3I 1_555 1_555
O1J S1C 1_555 1_555
C2J C1C 1_555 1_555
H1J C2J 1_555 1_555
C3J C4C 1_555 1_555
H2J C3J 1_555 1_555
O1K S1B 1_555 1_555
C2K C1B 1_555 1_555
H1K C2K 1_555 1_555
C3K C4B 1_555 1_555
H2K C3K 1_555 1_555
S1A O1A 1_555 1_555
N1A C6A 1_555 1_555
O1A Sm1_2 1_555 1_555
O2A S1A 1_555 1_555
C1A S1A 1_555 1_555
C2A C1A 1_555 1_555
H1A C2A 1_555 1_555
C3A C2A 1_555 1_555
H2A C3A 1_555 1_555
C4A C3A 1_555 1_555
C5A C9B 1_555 1_555
C6A C5A 1_555 1_555
C7A C6A 1_555 1_555
H3A C7A 1_555 1_555
C8A C7A 1_555 1_555
H4A C8A 1_555 1_555
C9A C5C 1_555 1_555
O1H S1A 1_555 1_555
C2H C1A 1_555 1_555
H1H C2H 1_555 1_555
C3H C4A 1_555 1_555
H2H C3H 1_555 1_555
Sm1H O1H 1_555 1_555
Sm1H_2 O1K 1_555 1_555
Sm1H_3 O1J 1_555 1_555
Sm1H_4 O1I 1_555 1_555
O1A_2 Sm1 1_555 1_555
O1B_2 Sm1 1_555 1_555
O1C_2 Sm1 1_555 1_555
O1D Sm1 1_555 1_555
O1E Sm1 1_555 1_555
O1F Sm1 1_555 1_555
O1G Sm1 1_555 1_555
C8 C9 1_555 1_555
C4B C5B 1_555 1_555
C8B C9B 1_555 1_555
N1C C9C 1_555 1_555
C8C C9C 1_555 1_555
C2I C3I 1_555 1_555
C2J C3J 1_555 1_555
C2K C3K 1_555 1_555
N1A C9A 1_555 1_555
C4A C5A 1_555 1_555
C8A C9A 1_555 1_555
C2H C3H 1_555 1_555

#END
