
#######################################################################
#
#                 Cambridge Crystallographic Data Centre
#                                CCDC 
#
#######################################################################
#
# If this CIF has been generated from an entry in the Cambridge 
# Structural Database, then it will include bibliographic, chemical, 
# crystal, experimental, refinement or atomic coordinate data resulting 
# from the CCDC's data processing and validation procedures.
#
#######################################################################

data_BAHCOF
_chemical_formula_moiety         '(C10 H21 Cu3 N13 O5)n'
_symmetry_cell_setting           orthorhombic
_symmetry_space_group_name_H-M   'P 21 21 21'
_symmetry_Int_Tables_number      19
_space_group_name_Hall           'P 2ac 2ab'
loop_
_symmetry_equiv_pos_site_id
_symmetry_equiv_pos_as_xyz
1 x,y,z
2 1/2-x,-y,1/2+z
3 1/2+x,1/2-y,-z
4 -x,1/2+y,1/2-z
_cell_length_a                   8.3425(7)
_cell_length_b                   11.9337(15)
_cell_length_c                   21.6641(18)
_cell_angle_alpha                90
_cell_angle_beta                 90
_cell_angle_gamma                90
_cell_volume                     2156.81
loop_
_atom_site_label
_atom_site_type_symbol
_atom_site_fract_x
_atom_site_fract_y
_atom_site_fract_z
Cu1 Cu 1.52683(14) 0.35891(12) 0.50162(5)
Cu2 Cu 0.94142(13) 0.35636(12) 0.49905(6)
Cu3 Cu 0.7590(2) 0.52245(14) 0.74610(5)
N1 N 0.8221(9) 0.4066(9) 0.5751(4)
N2 N 0.8463(9) 0.5918(9) 0.9267(3)
N3 N 0.6842(8) 0.6004(8) 0.9225(3)
C1 C 1.3039(9) 0.3344(7) 0.4993(5)
N4 N 0.6563(8) 0.4052(9) 0.5742(4)
N5 N 0.7271(9) 0.4614(8) 0.6635(3)
N6 N 0.9094(10) 0.5690(9) 0.8729(3)
C2 C 0.6523(12) 0.5800(11) 0.8645(4)
N7 N 0.7861(10) 0.5604(8) 0.8334(3)
N8 N 0.6005(10) 0.4384(10) 0.6268(3)
C3 C 0.8608(12) 0.4418(9) 0.6312(4)
N9 N 1.1677(9) 0.3352(7) 0.4981(4)
N10 N 0.5252(11) 0.5320(13) 0.7676(4)
C4 C 1.0218(12) 0.4623(13) 0.6601(4)
H1 H 1.075080 0.523772 0.638233
C5 C 0.4980(13) 0.5763(14) 0.8310(4)
H2 H 0.457496 0.653081 0.827366
C6 C 1.1283(17) 0.3612(15) 0.6589(6)
H3 H 1.076823 0.300523 0.680198
H4 H 1.228032 0.378481 0.678895
H5 H 1.148448 0.339823 0.616898
C7 C 0.3689(17) 0.5053(19) 0.8626(7)
H6 H 0.403298 0.428588 0.864240
H7 H 0.270735 0.510285 0.839638
H8 H 0.351695 0.532525 0.903781
N11 N 0.9891(12) 0.4976(11) 0.7250(4)
H9 H 1.042451 0.560838 0.732274
H10 H 1.028138 0.445556 0.750266
N12 N 0.730(3) 0.2464(11) 0.7866(8)
O1 O 0.764(3) 0.7146(11) 0.7093(6)
H11 H 0.669799 0.742232 0.711274
H12 H 0.795619 0.712822 0.672024
O2 O 0.738(2) 0.1486(11) 0.7896(8)
O3 O 0.604(3) 0.2935(16) 0.7817(10)
O4 O 0.843(3) 0.3111(18) 0.7889(10)
Cu1_2 Cu 0.52683(14) 0.35891(12) 0.50162(5)
Cu1A Cu 0.97317(14) 0.64109(12) 1.00162(5)
Cu1B Cu 1.02683(14) 0.14109(12) 0.49838(5)
Cu2A Cu 0.55858(13) 0.64364(12) 0.99905(6)
Cu2B Cu 1.44142(13) 0.14364(12) 0.50095(6)
N2A N 1.6537(9) 0.4082(9) 0.4267(3)
N3A N 0.8158(8) 0.3996(8) 0.4225(3)
C1B C 0.8039(9) 0.1656(7) 0.5007(5)
N4_2 N 1.6563(8) 0.4052(9) 0.5742(4)
N9B N 1.6677(9) 0.1648(7) 0.5019(4)
N13 N 0.852(3) 0.7754(13) 0.4938(8)
C8 C 0.895(7) 0.861(3) 0.4534(17)
C9 C 0.830(7) 0.668(3) 0.460(2)
C10 C 0.854(4) 0.787(3) 0.5559(15)
O5 O 0.806(5) 0.710(2) 0.5860(10)
loop_
_geom_bond_atom_site_label_1
_geom_bond_atom_site_label_2
_geom_bond_site_symmetry_1
_geom_bond_site_symmetry_2
Cu1 C1 1_555 1_555
Cu2 N1 1_555 1_555
Cu3 N5 1_555 1_555
N1 N4 1_555 1_555
N2 N3 1_555 1_555
N3 C2 1_555 1_555
C1 N9 1_555 1_555
N4 N8 1_555 1_555
N5 N8 1_555 1_555
N6 N2 1_555 1_555
C2 N7 1_555 1_555
N7 Cu3 1_555 1_555
C3 N1 1_555 1_555
N9 Cu2 1_555 1_555
N10 Cu3 1_555 1_555
C4 C3 1_555 1_555
H1 C4 1_555 1_555
C5 C2 1_555 1_555
H2 C5 1_555 1_555
C6 C4 1_555 1_555
H3 C6 1_555 1_555
H4 C6 1_555 1_555
H5 C6 1_555 1_555
C7 C5 1_555 1_555
H6 C7 1_555 1_555
H7 C7 1_555 1_555
H8 C7 1_555 1_555
N11 Cu3 1_555 1_555
H9 N11 1_555 1_555
H10 N11 1_555 1_555
N12 O2 1_555 1_555
O1 Cu3 1_555 1_555
H11 O1 1_555 1_555
H12 O1 1_555 1_555
O3 N12 1_555 1_555
O4 Cu3 1_555 1_555
N13 C8 1_555 1_555
C9 N13 1_555 1_555
C10 N13 1_555 1_555
O5 C10 1_555 1_555
Cu1_2 N4 1_555 1_555
Cu1A N2 1_555 1_555
Cu1B N9 1_555 1_555
Cu2A N3 1_555 1_555
Cu2B C1 1_555 1_555
N2A Cu1 1_555 1_555
N3A Cu2 1_555 1_555
C1B Cu2 1_555 1_555
N4_2 Cu1 1_555 1_555
N9B Cu1 1_555 1_555
N5 C3 1_555 1_555
N6 N7 1_555 1_555
N10 C5 1_555 1_555
C4 N11 1_555 1_555
N12 O4 1_555 1_555
Cu1B C1B 1_555 1_555
Cu2B N9B 1_555 1_555

#END
