
#######################################################################
#
#                 Cambridge Crystallographic Data Centre
#                                CCDC 
#
#######################################################################
#
# If this CIF has been generated from an entry in the Cambridge 
# Structural Database, then it will include bibliographic, chemical, 
# crystal, experimental, refinement or atomic coordinate data resulting 
# from the CCDC's data processing and validation procedures.
#
#######################################################################

data_PIBXOP
_chemical_formula_moiety         '(C50 H26 Mn1 N4 O12 Zn2 1-)n'
_symmetry_cell_setting           tetragonal
_symmetry_space_group_name_H-M   'I 4/m m m'
_symmetry_Int_Tables_number      139
_space_group_name_Hall           '-I 4 2'
loop_
_symmetry_equiv_pos_site_id
_symmetry_equiv_pos_as_xyz
1 x,y,z
2 -y,x,z
3 -x,-y,z
4 y,-x,z
5 x,-y,-z
6 y,x,-z
7 -x,y,-z
8 -y,-x,-z
9 1/2+x,1/2+y,1/2+z
10 1/2-y,1/2+x,1/2+z
11 1/2-x,1/2-y,1/2+z
12 1/2+y,1/2-x,1/2+z
13 1/2+x,1/2-y,1/2-z
14 1/2+y,1/2+x,1/2-z
15 1/2-x,1/2+y,1/2-z
16 1/2-y,1/2-x,1/2-z
17 -x,-y,-z
18 y,-x,-z
19 x,y,-z
20 -y,x,-z
21 -x,y,z
22 -y,-x,z
23 x,-y,z
24 y,x,z
25 1/2-x,1/2-y,1/2-z
26 1/2+y,1/2-x,1/2-z
27 1/2+x,1/2+y,1/2-z
28 1/2-y,1/2+x,1/2-z
29 1/2-x,1/2+y,1/2+z
30 1/2-y,1/2-x,1/2+z
31 1/2+x,1/2-y,1/2+z
32 1/2+y,1/2+x,1/2+z
_cell_length_a                   16.6701(12)
_cell_length_b                   16.6701(12)
_cell_length_c                   15.481(2)
_cell_angle_alpha                90
_cell_angle_beta                 90
_cell_angle_gamma                90
_cell_volume                     4302.05
loop_
_atom_site_label
_atom_site_type_symbol
_atom_site_fract_x
_atom_site_fract_y
_atom_site_fract_z
Zn1 Zn 0.0000 0.0000 0.09582(5)
Mn1 Mn 0.5000 0.5000 0.0000
O1 O 0.08444(11) 0.08444(11) 0.07220(19)
O2 O 0.5000 0.5000 -0.1413(5)
O3 O 0.5000 0.5000 -0.2790(5)
N1 N 0.3781(2) 0.5000 0.0000
C1 C 0.2480(2) 0.4597(2) 0.0000
H1 H 0.2030 0.4266 0.0000
C2 C 0.3291(2) 0.4344(2) 0.0000
C3 C 0.3545(2) 0.3545(2) 0.0000
C4 C 0.2910(2) 0.2910(2) 0.0000
C5 C 0.26094(19) 0.26094(19) -0.0752(3)
H2 H 0.2802 0.2802 -0.1277
C6 C 0.20234(19) 0.20234(19) -0.0745(3)
H3 H 0.1830 0.1830 -0.1269
C7 C 0.1723(2) 0.1723(2) 0.0000
C8 C 0.1086(2) 0.1086(2) 0.0000
C9 C 0.5000 0.5000 -0.2128(7)
O1D O 0.08444(11) 0.91556(11) -0.07220(19)
C1D C 0.2480(2) 0.5403(2) 0.0000
H1D H 0.2030 0.5734 0.0000
C2D C 0.3291(2) 0.5656(2) 0.0000
C3C C 0.3545(2) 0.6455(2) 0.0000
C4C C 0.2910(2) 0.7090(2) 0.0000
C5D C 0.26094(19) 0.73906(19) 0.0752(3)
H2D H 0.2802 0.7198 0.1277
C6D C 0.20234(19) 0.79766(19) 0.0745(3)
H3D H 0.1830 0.8170 0.1269
C7C C 0.1723(2) 0.8277(2) 0.0000
C8C C 0.1086(2) 0.8914(2) 0.0000
O1E O 0.08444(11) 0.08444(11) -0.07220(19)
N1A N 0.5000 0.3781(2) 0.0000
C1E C 0.4597(2) 0.2480(2) 0.0000
H1E H 0.4266 0.2030 0.0000
C2E C 0.4344(2) 0.3291(2) 0.0000
C5E C 0.26094(19) 0.26094(19) 0.0752(3)
H2E H 0.2802 0.2802 0.1277
C6E C 0.20234(19) 0.20234(19) 0.0745(3)
H3E H 0.1830 0.1830 0.1269
O1C O 0.08444(11) 0.91556(11) 0.07220(19)
C5C C 0.26094(19) 0.73906(19) -0.0752(3)
H2C H 0.2802 0.7198 -0.1277
C6C C 0.20234(19) 0.79766(19) -0.0745(3)
H3C H 0.1830 0.8170 -0.1269
O1A O 0.91556(11) 0.08444(11) 0.07220(19)
C1A C 0.5403(2) 0.2480(2) 0.0000
H1A H 0.5734 0.2030 0.0000
C2A C 0.5656(2) 0.3291(2) 0.0000
C3A C 0.6455(2) 0.3545(2) 0.0000
C4A C 0.7090(2) 0.2910(2) 0.0000
C5A C 0.73906(19) 0.26094(19) -0.0752(3)
H2A H 0.7198 0.2802 -0.1277
C6A C 0.79766(19) 0.20234(19) -0.0745(3)
H3A H 0.8170 0.1830 -0.1269
C7A C 0.8277(2) 0.1723(2) 0.0000
C8A C 0.8914(2) 0.1086(2) 0.0000
N1C N 0.5000 0.6219(2) 0.0000
C1C C 0.4597(2) 0.7520(2) 0.0000
H1C H 0.4266 0.7970 0.0000
C2C C 0.4344(2) 0.6709(2) 0.0000
O1G O 0.91556(11) 0.91556(11) -0.07220(19)
C1G C 0.5403(2) 0.7520(2) 0.0000
H1G H 0.5734 0.7970 0.0000
C2G C 0.5656(2) 0.6709(2) 0.0000
C3B C 0.6455(2) 0.6455(2) 0.0000
C4B C 0.7090(2) 0.7090(2) 0.0000
C5G C 0.73906(19) 0.73906(19) 0.0752(3)
H2G H 0.7198 0.7198 0.1277
C6G C 0.79766(19) 0.79766(19) 0.0745(3)
H3G H 0.8170 0.8170 0.1269
C7B C 0.8277(2) 0.8277(2) 0.0000
C8B C 0.8914(2) 0.8914(2) 0.0000
O1F O 0.91556(11) 0.08444(11) -0.07220(19)
C5F C 0.73906(19) 0.26094(19) 0.0752(3)
H2F H 0.7198 0.2802 0.1277
C6F C 0.79766(19) 0.20234(19) 0.0745(3)
H3F H 0.8170 0.1830 0.1269
O1B O 0.91556(11) 0.91556(11) 0.07220(19)
C5B C 0.73906(19) 0.73906(19) -0.0752(3)
H2B H 0.7198 0.7198 -0.1277
C6B C 0.79766(19) 0.79766(19) -0.0745(3)
H3B H 0.8170 0.8170 -0.1269
N1B N 0.6219(2) 0.5000 0.0000
C1B C 0.7520(2) 0.5403(2) 0.0000
H1B H 0.7970 0.5734 0.0000
C2B C 0.6709(2) 0.5656(2) 0.0000
C1F C 0.7520(2) 0.4597(2) 0.0000
H1F H 0.7970 0.4266 0.0000
C2F C 0.6709(2) 0.4344(2) 0.0000
Zn1D Zn -0.0000 -0.0000 -0.09582(5)
O2D O 0.5000 0.5000 0.1413(5)
O3D O 0.5000 0.5000 0.2790(5)
C9D C 0.5000 0.5000 0.2128(7)
Zn1_2 Zn -0.0000 1.0000 0.09582(5)
Zn1_3 Zn 1.0000 0.0000 0.09582(5)
Zn1_4 Zn 1.0000 1.0000 0.09582(5)
Zn1D_2 Zn -0.0000 1.0000 -0.09582(5)
Zn1D_3 Zn 1.0000 -0.0000 -0.09582(5)
Zn1D_4 Zn 1.0000 1.0000 -0.09582(5)
Zn1H Zn 0.5000 0.5000 -0.40418(5)
Zn1L Zn 0.5000 0.5000 0.40418(5)
O1A_2 O -0.08444(11) 0.08444(11) 0.07220(19)
O1B_2 O -0.08444(11) -0.08444(11) 0.07220(19)
O1C_2 O 0.08444(11) -0.08444(11) 0.07220(19)
O1D_2 O 0.08444(11) -0.08444(11) -0.07220(19)
O1F_2 O -0.08444(11) 0.08444(11) -0.07220(19)
O1G_2 O -0.08444(11) -0.08444(11) -0.07220(19)
O3H O -0.0000 -0.0000 0.2210(5)
O3L O 0.0000 0.0000 -0.2210(5)
loop_
_geom_bond_atom_site_label_1
_geom_bond_atom_site_label_2
_geom_bond_site_symmetry_1
_geom_bond_site_symmetry_2
Zn1 O1 1_555 1_555
Mn1 O2 1_555 1_555
O1 C8 1_555 1_555
O2 C9 1_555 1_555
O3 C9 1_555 1_555
N1 Mn1 1_555 1_555
C1 H1 1_555 1_555
C2 N1 1_555 1_555
C3 C2 1_555 1_555
C4 C3 1_555 1_555
C5 C4 1_555 1_555
H2 C5 1_555 1_555
C6 C5 1_555 1_555
H3 C6 1_555 1_555
C7 C6 1_555 1_555
C8 C7 1_555 1_555
O1D C8C 1_555 1_555
C1D C1 1_555 1_555
H1D C1D 1_555 1_555
C2D N1 1_555 1_555
C3C C2D 1_555 1_555
C4C C3C 1_555 1_555
C5D C4C 1_555 1_555
H2D C5D 1_555 1_555
C6D C5D 1_555 1_555
H3D C6D 1_555 1_555
C7C C6D 1_555 1_555
C8C C7C 1_555 1_555
O1E C8 1_555 1_555
N1A Mn1 1_555 1_555
C1E H1E 1_555 1_555
C2E C3 1_555 1_555
C5E C4 1_555 1_555
H2E C5E 1_555 1_555
C6E C7 1_555 1_555
H3E C6E 1_555 1_555
O1C C8C 1_555 1_555
C5C C4C 1_555 1_555
H2C C5C 1_555 1_555
C6C C7C 1_555 1_555
H3C C6C 1_555 1_555
O1A C8A 1_555 1_555
C1A C1E 1_555 1_555
H1A C1A 1_555 1_555
C2A N1A 1_555 1_555
C3A C2A 1_555 1_555
C4A C3A 1_555 1_555
C5A C4A 1_555 1_555
H2A C5A 1_555 1_555
C6A C5A 1_555 1_555
H3A C6A 1_555 1_555
C7A C6A 1_555 1_555
C8A C7A 1_555 1_555
N1C Mn1 1_555 1_555
C1C H1C 1_555 1_555
C2C C3C 1_555 1_555
O1G C8B 1_555 1_555
C1G C1C 1_555 1_555
H1G C1G 1_555 1_555
C2G N1C 1_555 1_555
C3B C2G 1_555 1_555
C4B C3B 1_555 1_555
C5G C4B 1_555 1_555
H2G C5G 1_555 1_555
C6G C5G 1_555 1_555
H3G C6G 1_555 1_555
C7B C6G 1_555 1_555
C8B C7B 1_555 1_555
O1F C8A 1_555 1_555
C5F C4A 1_555 1_555
H2F C5F 1_555 1_555
C6F C7A 1_555 1_555
H3F C6F 1_555 1_555
O1B C8B 1_555 1_555
C5B C4B 1_555 1_555
H2B C5B 1_555 1_555
C6B C7B 1_555 1_555
H3B C6B 1_555 1_555
N1B Mn1 1_555 1_555
C1B H1B 1_555 1_555
C2B C3B 1_555 1_555
C1F C1B 1_555 1_555
H1F C1F 1_555 1_555
C2F C3A 1_555 1_555
Zn1D O1E 1_555 1_555
O2D Mn1 1_555 1_555
O3D C9D 1_555 1_555
C9D O2D 1_555 1_555
Zn1_2 O1C 1_555 1_555
Zn1_3 O1A 1_555 1_555
Zn1_4 O1B 1_555 1_555
Zn1D_2 O1D 1_555 1_555
Zn1D_3 O1F 1_555 1_555
Zn1D_4 O1G 1_555 1_555
Zn1H O3 1_555 1_555
Zn1L O3D 1_555 1_555
O1A_2 Zn1 1_555 1_555
O1B_2 Zn1 1_555 1_555
O1C_2 Zn1 1_555 1_555
O1D_2 Zn1D 1_555 1_555
O1F_2 Zn1D 1_555 1_555
O1G_2 Zn1D 1_555 1_555
O3H Zn1 1_555 1_555
O3L Zn1D 1_555 1_555
C1 C2 1_555 1_555
C1D C2D 1_555 1_555
N1A C2E 1_555 1_555
C1E C2E 1_555 1_555
C5E C6E 1_555 1_555
C5C C6C 1_555 1_555
C1A C2A 1_555 1_555
N1C C2C 1_555 1_555
C1C C2C 1_555 1_555
C1G C2G 1_555 1_555
C5F C6F 1_555 1_555
C5B C6B 1_555 1_555
N1B C2B 1_555 1_555
N1B C2F 1_555 1_555
C1B C2B 1_555 1_555
C1F C2F 1_555 1_555

#END
