
#######################################################################
#
#                 Cambridge Crystallographic Data Centre
#                                CCDC 
#
#######################################################################
#
# If this CIF has been generated from an entry in the Cambridge 
# Structural Database, then it will include bibliographic, chemical, 
# crystal, experimental, refinement or atomic coordinate data resulting 
# from the CCDC's data processing and validation procedures.
#
#######################################################################

data_CUMMEE
_chemical_formula_moiety         '(C36 H18 Cd2 N6 O12 Ru1)n'
_symmetry_cell_setting           monoclinic
_symmetry_space_group_name_H-M   'C 2/c'
_symmetry_Int_Tables_number      15
_space_group_name_Hall           '-C 2yc'
loop_
_symmetry_equiv_pos_site_id
_symmetry_equiv_pos_as_xyz
1 x,y,z
2 -x,y,1/2-z
3 1/2+x,1/2+y,z
4 1/2-x,1/2+y,1/2-z
5 -x,-y,-z
6 x,-y,1/2+z
7 1/2-x,1/2-y,-z
8 1/2+x,1/2-y,1/2+z
_cell_length_a                   19.8070(5)
_cell_length_b                   15.3580(3)
_cell_length_c                   23.9322(6)
_cell_angle_alpha                90
_cell_angle_beta                 116.709(3)
_cell_angle_gamma                90
_cell_volume                     6503.3
loop_
_atom_site_label
_atom_site_type_symbol
_atom_site_fract_x
_atom_site_fract_y
_atom_site_fract_z
Cd1 Cd 0.980391(10) 0.575387(11) 0.540826(8)
Ru1 Ru 0.5000 0.430504(17) 0.2500
O1 O 0.4728(3) 0.8058(3) 0.4010(2)
O2 O 0.5856(3) 0.7992(3) 0.4377(3)
O3 O 0.86218(14) 0.5419(2) 0.47339(13)
O4 O 0.89367(14) 0.4474(2) 0.41715(15)
O5 O 0.51882(19) 0.0275(2) 0.39174(17)
O6 O 0.4973(2) 0.1118(3) 0.45727(13)
N1 N 0.50197(14) 0.52961(16) 0.30883(13)
N2 N 0.61373(14) 0.44065(16) 0.30779(12)
N3 N 0.49616(14) 0.32758(15) 0.30263(11)
C1 C 0.4425(2) 0.5727(2) 0.3072(2)
H1 H 0.3936 0.5504 0.2812
C2 C 0.4475(2) 0.6468(3) 0.3404(2)
H2 H 0.4034 0.6749 0.3377
C3 C 0.5178(2) 0.6794(3) 0.3777(2)
C4 C 0.5811(2) 0.6333(2) 0.3834(2)
H3 H 0.6304 0.6530 0.4112
C5 C 0.57205(18) 0.5597(2) 0.34855(17)
C6 C 0.63454(17) 0.5069(2) 0.34975(15)
C7 C 0.70992(18) 0.5230(2) 0.38977(16)
H4 H 0.7235 0.5699 0.4187
C8 C 0.76504(17) 0.4707(2) 0.38728(16)
C9 C 0.7435(2) 0.4033(2) 0.34516(17)
H5 H 0.7805 0.3664 0.3427
C10 C 0.66816(18) 0.3895(2) 0.30653(15)
H6 H 0.6540 0.3421 0.2780
C11 C 0.5259(3) 0.7637(3) 0.4110(3)
C12 C 0.84746(19) 0.4882(2) 0.43024(18)
C13 C 0.4950(2) 0.3332(2) 0.35867(14)
H7 H 0.4927 0.3892 0.3747
C14 C 0.4969(2) 0.2614(3) 0.39278(15)
H8 H 0.4948 0.2678 0.4315
C15 C 0.5018(2) 0.1795(2) 0.37138(16)
C16 C 0.50329(19) 0.1729(2) 0.31449(15)
H9 H 0.5068 0.1174 0.2984
C17 C 0.49961(16) 0.24731(18) 0.28102(12)
C18 C 0.5065(3) 0.0986(3) 0.40934(19)
O5A O 0.48118(19) 0.0275(2) 0.10826(17)
O6A O 0.5027(2) 0.1118(3) 0.04273(13)
N3A N 0.50384(14) 0.32758(15) 0.19737(11)
C13A C 0.5050(2) 0.3332(2) 0.14133(14)
H7A H 0.5073 0.3892 0.1253
C14A C 0.5031(2) 0.2614(3) 0.10722(15)
H8A H 0.5052 0.2678 0.0685
C15A C 0.4982(2) 0.1795(2) 0.12862(16)
C16A C 0.49671(19) 0.1729(2) 0.18551(15)
H9A H 0.4932 0.1174 0.2016
C17A C 0.50039(16) 0.24731(18) 0.21898(12)
C18A C 0.4935(3) 0.0986(3) 0.09066(19)
Cd1A Cd 0.019609(10) 0.575387(11) -0.040826(8)
O1A O 0.5272(3) 0.8058(3) 0.0990(2)
O2A O 0.4144(3) 0.7992(3) 0.0623(3)
O3A O 0.13782(14) 0.5419(2) 0.02661(13)
O4A O 0.10633(14) 0.4474(2) 0.08285(15)
N1A N 0.49803(14) 0.52961(16) 0.19117(13)
N2A N 0.38627(14) 0.44065(16) 0.19221(12)
C1A C 0.5575(2) 0.5727(2) 0.1928(2)
H1A H 0.6064 0.5504 0.2188
C2A C 0.5525(2) 0.6468(3) 0.1596(2)
H2A H 0.5966 0.6749 0.1623
C3A C 0.4822(2) 0.6794(3) 0.1223(2)
C4A C 0.4189(2) 0.6333(2) 0.1166(2)
H3A H 0.3696 0.6530 0.0888
C5A C 0.42795(18) 0.5597(2) 0.15145(17)
C6A C 0.36546(17) 0.5069(2) 0.15025(15)
C7A C 0.29008(18) 0.5230(2) 0.11023(16)
H4A H 0.2765 0.5699 0.0813
C8A C 0.23496(17) 0.4707(2) 0.11272(16)
C9A C 0.2565(2) 0.4033(2) 0.15484(17)
H5A H 0.2195 0.3664 0.1573
C10A C 0.33184(18) 0.3895(2) 0.19347(15)
H6A H 0.3460 0.3421 0.2220
C11A C 0.4741(3) 0.7637(3) 0.0890(3)
C12A C 0.15254(19) 0.4882(2) 0.06976(18)
Cd1B Cd 0.480391(10) 0.075387(11) 0.540826(8)
Cd1C Cd 0.519609(10) 0.075387(11) -0.040826(8)
Cd1D Cd 1.019609(10) 0.424613(11) 0.459174(8)
Cd1E Cd -0.019609(10) 0.424613(11) 0.040826(8)
Cd1F Cd 0.519609(10) -0.075387(11) 0.459174(8)
Cd1F_2 Cd 0.519609(10) 0.924613(11) 0.459174(8)
Cd1G Cd 0.480391(10) -0.075387(11) 0.040826(8)
Cd1G_2 Cd 0.480391(10) 0.924613(11) 0.040826(8)
O1F O 1.0272(3) 0.6942(3) 0.5990(2)
O1G O -0.0272(3) 0.6942(3) -0.0990(2)
O2F O 0.9144(3) 0.7008(3) 0.5623(3)
O2G O 0.0856(3) 0.7008(3) -0.0623(3)
O4D O 1.10633(14) 0.5526(2) 0.58285(15)
O4E O -0.10633(14) 0.5526(2) -0.08285(15)
O5F O 0.98118(19) 0.4725(2) 0.60826(17)
O5G O 0.01882(19) 0.4725(2) -0.10826(17)
O6B O 0.9973(2) 0.6118(3) 0.45727(13)
O6C O 0.0027(2) 0.6118(3) 0.04273(13)
loop_
_geom_bond_atom_site_label_1
_geom_bond_atom_site_label_2
_geom_bond_site_symmetry_1
_geom_bond_site_symmetry_2
Cd1 O3 1_555 1_555
Ru1 N1 1_555 1_555
O1 C11 1_555 1_555
O2 C11 1_555 1_555
O3 C12 1_555 1_555
O4 C12 1_555 1_555
O5 C18 1_555 1_555
O6 C18 1_555 1_555
N1 C1 1_555 1_555
N2 Ru1 1_555 1_555
N3 Ru1 1_555 1_555
C1 H1 1_555 1_555
C2 C1 1_555 1_555
H2 C2 1_555 1_555
C3 C2 1_555 1_555
C4 C3 1_555 1_555
H3 C4 1_555 1_555
C5 N1 1_555 1_555
C6 N2 1_555 1_555
C7 C6 1_555 1_555
H4 C7 1_555 1_555
C8 C7 1_555 1_555
C9 C8 1_555 1_555
H5 C9 1_555 1_555
C10 N2 1_555 1_555
H6 C10 1_555 1_555
C11 C3 1_555 1_555
C12 C8 1_555 1_555
C13 N3 1_555 1_555
H7 C13 1_555 1_555
C14 C13 1_555 1_555
H8 C14 1_555 1_555
C15 C14 1_555 1_555
C16 C15 1_555 1_555
H9 C16 1_555 1_555
C17 N3 1_555 1_555
C18 C15 1_555 1_555
O5A C18A 1_555 1_555
O6A C18A 1_555 1_555
N3A Ru1 1_555 1_555
C13A N3A 1_555 1_555
H7A C13A 1_555 1_555
C14A C13A 1_555 1_555
H8A C14A 1_555 1_555
C15A C14A 1_555 1_555
C16A C15A 1_555 1_555
H9A C16A 1_555 1_555
C17A C17 1_555 1_555
C18A C15A 1_555 1_555
Cd1A O3A 1_555 1_555
O1A C11A 1_555 1_555
O2A C11A 1_555 1_555
O3A C12A 1_555 1_555
O4A C12A 1_555 1_555
N1A Ru1 1_555 1_555
N2A Ru1 1_555 1_555
C1A N1A 1_555 1_555
H1A C1A 1_555 1_555
C2A C1A 1_555 1_555
H2A C2A 1_555 1_555
C3A C2A 1_555 1_555
C4A C3A 1_555 1_555
H3A C4A 1_555 1_555
C5A N1A 1_555 1_555
C6A N2A 1_555 1_555
C7A C6A 1_555 1_555
H4A C7A 1_555 1_555
C8A C7A 1_555 1_555
C9A C8A 1_555 1_555
H5A C9A 1_555 1_555
C10A N2A 1_555 1_555
H6A C10A 1_555 1_555
C11A C3A 1_555 1_555
C12A C8A 1_555 1_555
Cd1B O6 1_555 1_555
Cd1C O6A 1_555 1_555
Cd1D O4 1_555 1_555
Cd1E O4A 1_555 1_555
Cd1F O5 1_555 1_555
Cd1F_2 O1 1_555 1_555
Cd1G O5A 1_555 1_555
Cd1G_2 O1A 1_555 1_555
O1F Cd1 1_555 1_555
O1G Cd1A 1_555 1_555
O2F Cd1 1_555 1_555
O2G Cd1A 1_555 1_555
O4D Cd1 1_555 1_555
O4E Cd1A 1_555 1_555
O5F Cd1 1_555 1_555
O5G Cd1A 1_555 1_555
O6B Cd1 1_555 1_555
O6C Cd1A 1_555 1_555
O2 Cd1F_2 1_555 1_555
C4 C5 1_555 1_555
C5 C6 1_555 1_555
C9 C10 1_555 1_555
C16 C17 1_555 1_555
N3A C17A 1_555 1_555
C16A C17A 1_555 1_555
O2A Cd1G_2 1_555 1_555
C4A C5A 1_555 1_555
C5A C6A 1_555 1_555
C9A C10A 1_555 1_555

#END
