
#######################################################################
#
#                 Cambridge Crystallographic Data Centre
#                                CCDC 
#
#######################################################################
#
# If this CIF has been generated from an entry in the Cambridge 
# Structural Database, then it will include bibliographic, chemical, 
# crystal, experimental, refinement or atomic coordinate data resulting 
# from the CCDC's data processing and validation procedures.
#
#######################################################################

data_LEVBAQ
_chemical_formula_moiety         '(C10 H40 F3 In9 N2 O64 P14 2-)n'
_symmetry_cell_setting           trigonal
_symmetry_space_group_name_H-M   'P -3 1 c'
_symmetry_Int_Tables_number      163
_space_group_name_Hall           '-P 3 2c'
loop_
_symmetry_equiv_pos_site_id
_symmetry_equiv_pos_as_xyz
1 x,y,z
2 -y,x-y,z
3 -x+y,-x,z
4 -x+y,y,1/2-z
5 x,x-y,1/2-z
6 -y,-x,1/2-z
7 -x,-y,-z
8 y,-x+y,-z
9 x-y,x,-z
10 x-y,-y,1/2+z
11 -x,-x+y,1/2+z
12 y,x,1/2+z
_cell_length_a                   13.9306(5)
_cell_length_b                   13.9306(5)
_cell_length_c                   24.0435(12)
_cell_angle_alpha                90
_cell_angle_beta                 90
_cell_angle_gamma                120
_cell_volume                     4040.81
loop_
_atom_site_label
_atom_site_type_symbol
_atom_site_fract_x
_atom_site_fract_y
_atom_site_fract_z
In1 In 0.29304(3) 0.44140(3) 0.471285(18)
In2 In 0.0000 0.0000 0.5000
In3 In 0.0000 0.0000 0.31507(3)
P1 P 0.12005(13) 0.49220(12) 0.54439(7)
P2 P 0.16657(13) 0.19116(13) 0.40118(6)
P3 P 0.3333 0.6667 0.39315(11)
O1 O 0.1440(4) 0.4313(4) 0.4984(2)
F1 F 0.1234(4) 0.0617(2) 0.2500
O2 O 0.1894(4) 0.3055(4) 0.41794(19)
O3 O 0.1725(4) 0.4795(4) 0.6003(2)
H1 H 0.1466 0.4135 0.6074
O4 O 0.2554(4) 0.3066(4) 0.53497(18)
O5 O 0.3333 0.6667 0.3280(3)
O6 O 0.3185(4) 0.5555(4) 0.4088(2)
O7 O -0.0026(4) 0.4368(4) 0.5550(2)
O8 O 0.1402(3) 0.1129(4) 0.45101(18)
O9 O 0.0715(4) 0.1472(3) 0.35840(18)
O10 O 0.2661(4) 0.1956(4) 0.36888(19)
H2 H 0.3214 0.2238 0.3887
O11 O 0.1731(4) 0.6156(3) 0.53409(19)
In1A In -0.44140(3) -0.14836(4) 0.471285(18)
In1B In 0.14836(4) -0.29304(3) 0.471285(18)
In1F In -0.29304(3) -0.44140(3) 0.528715(18)
In1G In 0.44140(3) 0.14836(4) 0.528715(18)
In1H In -0.14836(4) 0.29304(3) 0.528715(18)
In1B_2 In 0.14836(4) 0.70696(3) 0.471285(18)
In1A_2 In 0.55860(3) 0.85164(4) 0.471285(18)
In1F_2 In 0.70696(3) 0.55860(3) 0.528715(18)
In1_2 In -0.70696(3) -0.55860(3) 0.471285(18)
In1B_3 In -0.85164(4) -0.29304(3) 0.471285(18)
In1G_2 In -0.55860(3) 0.14836(4) 0.528715(18)
In3F In 0.0000 0.0000 0.68493(3)
In3C In 0.0000 0.0000 0.18493(3)
P1G P 0.49220(12) 0.37215(18) 0.45561(7)
P1A P 0.50780(12) 0.62785(18) 0.54439(7)
P1A_2 P -0.49220(12) -0.37215(18) 0.54439(7)
P1H P -0.37215(18) 0.12005(13) 0.45561(7)
P1B P -0.62785(18) -0.12005(13) 0.54439(7)
P2A P -0.19116(13) -0.02459(18) 0.40118(6)
P2B P 0.02459(18) -0.16657(13) 0.40118(6)
P2F P -0.16657(13) -0.19116(13) 0.59882(6)
P2G P 0.19116(13) 0.02459(18) 0.59882(6)
P2H P -0.02459(18) 0.16657(13) 0.59882(6)
P3A P -0.6667 -0.3334 0.39315(11)
O1G O 0.4313(4) 0.2873(6) 0.5016(2)
O1A O 0.5687(4) 0.7127(6) 0.4984(2)
O1A_2 O -0.4313(4) -0.2873(6) 0.4984(2)
O1H O -0.2873(6) 0.1440(4) 0.5016(2)
O1B O -0.7127(6) -0.1440(4) 0.4984(2)
O1B_2 O 0.2873(6) -0.1440(4) 0.4984(2)
O1F O -0.1440(4) -0.4313(4) 0.5016(2)
F1A F -0.0617(2) 0.0617(4) 0.2500
F1B F -0.0617(4) -0.1234(4) 0.2500
F1K F 0.0617(2) 0.1234(4) 0.7500
F1F F -0.1234(4) -0.0617(2) 0.7500
F1G F 0.0617(2) -0.0617(4) 0.7500
O2A O -0.3055(4) -0.1161(6) 0.41794(19)
O2B O 0.1161(6) -0.1894(4) 0.41794(19)
O2F O -0.1894(4) -0.3055(4) 0.58206(19)
O2G O 0.3055(4) 0.1161(6) 0.58206(19)
O2H O -0.1161(6) 0.1894(4) 0.58206(19)
O3G O 0.4795(4) 0.3070(6) 0.3997(2)
O3A O 0.5205(4) 0.6930(6) 0.6003(2)
O3A_2 O -0.4795(4) -0.3070(6) 0.6003(2)
O3H O -0.3070(6) 0.1725(4) 0.3997(2)
O3B O -0.6930(6) -0.1725(4) 0.6003(2)
H1G H 0.4135 0.2669 0.3926
H1A H 0.5865 0.7331 0.6074
H1A_2 H -0.4135 -0.2669 0.6074
H1H H -0.2669 0.1466 0.3926
H1B H -0.7331 -0.1466 0.6074
O4A O -0.3066(4) -0.0512(6) 0.53497(18)
O4B O 0.0512(6) -0.2554(4) 0.53497(18)
O4F O -0.2554(4) -0.3066(4) 0.46503(18)
O4G O 0.3066(4) 0.0512(6) 0.46503(18)
O4H O -0.0512(6) 0.2554(4) 0.46503(18)
O5A O -0.6667 -0.3334 0.3280(3)
O6A O 0.4445(4) 0.7630(6) 0.4088(2)
O6B O 0.2370(6) 0.6815(4) 0.4088(2)
O6A_2 O -0.5555(4) -0.2370(6) 0.4088(2)
O6B_2 O -0.7630(6) -0.3185(4) 0.4088(2)
O6_2 O -0.6815(4) -0.4445(4) 0.4088(2)
O6B_3 O 0.2370(6) -0.3185(4) 0.4088(2)
O6F O -0.3185(4) -0.5555(4) 0.5912(2)
O6G O 0.5555(4) 0.2370(6) 0.5912(2)
O6H O -0.2370(6) 0.3185(4) 0.5912(2)
O7G O 0.4368(4) 0.4394(6) 0.4450(2)
O7A O 0.5632(4) 0.5606(6) 0.5550(2)
O7A_2 O -0.4368(4) -0.4394(6) 0.5550(2)
O7H O -0.4394(6) -0.0026(4) 0.4450(2)
O7B O -0.5606(6) 0.0026(4) 0.5550(2)
O7F O 0.0026(4) -0.4368(4) 0.4450(2)
O7B_2 O 0.4394(6) 0.0026(4) 0.5550(2)
O8A O -0.1129(4) 0.0273(5) 0.45101(18)
O8B O -0.0273(5) -0.1402(3) 0.45101(18)
O8F O -0.1402(3) -0.1129(4) 0.54899(18)
O8G O 0.1129(4) -0.0273(5) 0.54899(18)
O8H O 0.0273(5) 0.1402(3) 0.54899(18)
O9A O -0.1472(3) -0.0757(5) 0.35840(18)
O9B O 0.0757(5) -0.0715(4) 0.35840(18)
O9F O -0.0715(4) -0.1472(3) 0.64160(18)
O9G O 0.1472(3) 0.0757(5) 0.64160(18)
O9H O -0.0757(5) 0.0715(4) 0.64160(18)
O10A O -0.1956(4) 0.0705(6) 0.36888(19)
O10B O -0.0705(6) -0.2661(4) 0.36888(19)
O10F O -0.2661(4) -0.1956(4) 0.63112(19)
O10G O 0.1956(4) -0.0705(6) 0.63112(19)
O10H O 0.0705(6) 0.2661(4) 0.63112(19)
H2A H -0.2238 0.0976 0.3887
H2B H -0.0976 -0.3214 0.3887
H2F H -0.3214 -0.2238 0.6113
H2G H 0.2238 -0.0976 0.6113
H2H H 0.0976 0.3214 0.6113
O11G O 0.6156(3) 0.4425(5) 0.46591(19)
O11A O 0.3844(3) 0.5575(5) 0.53409(19)
O11A_2 O -0.6156(3) -0.4425(5) 0.53409(19)
O11H O -0.4425(5) 0.1731(4) 0.46591(19)
O11B O -0.5575(5) -0.1731(4) 0.53409(19)
O11_2 O 0.1731(4) -0.3844(3) 0.53409(19)
O11G_2 O -0.3844(3) -0.5575(5) 0.46591(19)
O11H_2 O 0.5575(5) 0.1731(4) 0.46591(19)
O11F O -0.1731(4) 0.3844(3) 0.46591(19)
C1 C 0.0347(9) 0.4882(8) 0.3242(3)
H3 H 0.0520 0.5580 0.3371
C2 C 0.0057(9) 0.4624(8) 0.2684(4)
C3 C 0.0384(12) 0.4150(10) 0.3603(4)
H4 H 0.0568 0.4328 0.3975
N1 N 0.0152(15) 0.3191(11) 0.3405(4)
C4 C -0.0299(17) 0.3569(10) 0.2540(5)
H5 H -0.0608 0.3320 0.2189
C5 C -0.0215(17) 0.2843(14) 0.2904(7)
H6 H -0.0415 0.2127 0.2794
C1D C 0.0347(9) 0.5465(12) 0.1758(3)
H3D H 0.0520 0.4940 0.1629
C2D C 0.0057(9) 0.5433(12) 0.2316(4)
C3D C 0.0384(12) 0.6234(16) 0.1397(4)
H4D H 0.0568 0.6240 0.1025
N1D N 0.0152(15) 0.6961(19) 0.1595(4)
C4D C -0.0299(17) 0.6132(20) 0.2460(5)
H5D H -0.0608 0.6072 0.2811
C5D C -0.0215(17) 0.6942(22) 0.2096(7)
H6D H -0.0415 0.7458 0.2206
O12 O 0.3333 0.6667 0.6448(5)
O13 O 0.192(3) 0.434(3) 0.1961(15)
loop_
_geom_bond_atom_site_label_1
_geom_bond_atom_site_label_2
_geom_bond_site_symmetry_1
_geom_bond_site_symmetry_2
In1 O1 1_555 1_555
In2 O8 1_555 1_555
In3 F1 1_555 1_555
P1 O1 1_555 1_555
P2 O2 1_555 1_555
P3 O5 1_555 1_555
F1 In3C 1_555 1_555
O2 In1 1_555 1_555
O3 P1 1_555 1_555
H1 O3 1_555 1_555
O4 In1 1_555 1_555
O6 In1 1_555 1_555
O7 P1 1_555 1_555
O8 P2 1_555 1_555
O9 In3 1_555 1_555
O10 P2 1_555 1_555
H2 O10 1_555 1_555
O11 P1 1_555 1_555
C1 H3 1_555 1_555
C2 C1 1_555 1_555
C3 C1 1_555 1_555
H4 C3 1_555 1_555
N1 C3 1_555 1_555
C4 C2 1_555 1_555
H5 C4 1_555 1_555
C5 N1 1_555 1_555
H6 C5 1_555 1_555
In1A O1A_2 1_555 1_555
In1B O1B_2 1_555 1_555
In1F O1F 1_555 1_555
In1G O1G 1_555 1_555
In1H O7 1_555 1_555
In1B_2 O11 1_555 1_555
In1A_2 O1A 1_555 1_555
In1F_2 O7A 1_555 1_555
In1_2 O6_2 1_555 1_555
In1B_3 O1B 1_555 1_555
In1G_2 O7B 1_555 1_555
In3F F1K 1_555 1_555
In3C F1A 1_555 1_555
P1G O1G 1_555 1_555
P1A O1A 1_555 1_555
P1A_2 O1A_2 1_555 1_555
P1H O1H 1_555 1_555
P1B O1B 1_555 1_555
P2A O2A 1_555 1_555
P2B O2B 1_555 1_555
P2F O2F 1_555 1_555
P2G O2G 1_555 1_555
P2H O2H 1_555 1_555
P3A O5A 1_555 1_555
O1H In1H 1_555 1_555
F1A In3 1_555 1_555
F1B In3 1_555 1_555
F1F In3F 1_555 1_555
F1G In3F 1_555 1_555
O2A In1A 1_555 1_555
O2B In1B 1_555 1_555
O2F In1F 1_555 1_555
O2G In1G 1_555 1_555
O2H In1H 1_555 1_555
O3G P1G 1_555 1_555
O3A P1A 1_555 1_555
O3A_2 P1A_2 1_555 1_555
O3H P1H 1_555 1_555
O3B P1B 1_555 1_555
H1G O3G 1_555 1_555
H1A O3A 1_555 1_555
H1A_2 O3A_2 1_555 1_555
H1H O3H 1_555 1_555
H1B O3B 1_555 1_555
O4A In1A 1_555 1_555
O4B In1B 1_555 1_555
O4F In1F 1_555 1_555
O4G In1G 1_555 1_555
O4H In1H 1_555 1_555
O6A P3 1_555 1_555
O6B P3 1_555 1_555
O6A_2 In1A 1_555 1_555
O6B_2 In1B_3 1_555 1_555
O6_2 P3A 1_555 1_555
O6B_3 In1B 1_555 1_555
O6F In1F 1_555 1_555
O6G In1G 1_555 1_555
O6H In1H 1_555 1_555
O7G In1 1_555 1_555
O7A P1A 1_555 1_555
O7A_2 In1F 1_555 1_555
O7H In1A 1_555 1_555
O7B P1B 1_555 1_555
O7F In1B 1_555 1_555
O7B_2 In1G 1_555 1_555
O8A In2 1_555 1_555
O8B In2 1_555 1_555
O8F In2 1_555 1_555
O8G In2 1_555 1_555
O8H In2 1_555 1_555
O9A In3 1_555 1_555
O9B In3 1_555 1_555
O9F In3F 1_555 1_555
O9G In3F 1_555 1_555
O9H In3F 1_555 1_555
O10A P2A 1_555 1_555
O10B P2B 1_555 1_555
O10F P2F 1_555 1_555
O10G P2G 1_555 1_555
O10H P2H 1_555 1_555
H2A O10A 1_555 1_555
H2B O10B 1_555 1_555
H2F O10F 1_555 1_555
H2G O10G 1_555 1_555
H2H O10H 1_555 1_555
O11G In1F_2 1_555 1_555
O11A In1 1_555 1_555
O11A_2 In1_2 1_555 1_555
O11H In1G_2 1_555 1_555
O11B In1A 1_555 1_555
O11_2 In1B 1_555 1_555
O11G_2 In1F 1_555 1_555
O11H_2 In1G 1_555 1_555
O11F In1H 1_555 1_555
C1D H3D 1_555 1_555
C2D C2 1_555 1_555
C3D C1D 1_555 1_555
H4D C3D 1_555 1_555
N1D C3D 1_555 1_555
C4D C2D 1_555 1_555
H5D C4D 1_555 1_555
C5D N1D 1_555 1_555
H6D C5D 1_555 1_555
P2 O9 1_555 1_555
P3 O6 1_555 1_555
C4 C5 1_555 1_555
In1B_2 O6B 1_555 1_555
In1A_2 O6A 1_555 1_555
In3C F1B 1_555 1_555
P1G O7G 1_555 1_555
P1G O11G 1_555 1_555
P1A O11A 1_555 1_555
P1A_2 O7A_2 1_555 1_555
P1A_2 O11A_2 1_555 1_555
P1H O7H 1_555 1_555
P1H O11H 1_555 1_555
P1B O11B 1_555 1_555
P2A O8A 1_555 1_555
P2A O9A 1_555 1_555
P2B O8B 1_555 1_555
P2B O9B 1_555 1_555
P2F O8F 1_555 1_555
P2F O9F 1_555 1_555
P2G O8G 1_555 1_555
P2G O9G 1_555 1_555
P2H O8H 1_555 1_555
P2H O9H 1_555 1_555
P3A O6A_2 1_555 1_555
P3A O6B_2 1_555 1_555
C1D C2D 1_555 1_555
C4D C5D 1_555 1_555

#END
