
#######################################################################
#
#                 Cambridge Crystallographic Data Centre
#                                CCDC 
#
#######################################################################
#
# If this CIF has been generated from an entry in the Cambridge 
# Structural Database, then it will include bibliographic, chemical, 
# crystal, experimental, refinement or atomic coordinate data resulting 
# from the CCDC's data processing and validation procedures.
#
#######################################################################

data_AWAJIT
_chemical_formula_moiety         'C41 H40 N11 O15 Zn6'
_symmetry_cell_setting           monoclinic
_symmetry_space_group_name_H-M   'C 2/c'
_symmetry_Int_Tables_number      15
_space_group_name_Hall           '-C 2yc'
loop_
_symmetry_equiv_pos_site_id
_symmetry_equiv_pos_as_xyz
1 x,y,z
2 -x,y,1/2-z
3 1/2+x,1/2+y,z
4 1/2-x,1/2+y,1/2-z
5 -x,-y,-z
6 x,-y,1/2+z
7 1/2-x,1/2-y,-z
8 1/2+x,1/2-y,1/2+z
_cell_length_a                   9.1422(18)
_cell_length_b                   25.938(5)
_cell_length_c                   20.301(4)
_cell_angle_alpha                90
_cell_angle_beta                 101.89(3)
_cell_angle_gamma                90
_cell_volume                     4710.7
loop_
_atom_site_label
_atom_site_type_symbol
_atom_site_fract_x
_atom_site_fract_y
_atom_site_fract_z
O7 O 0.1568(4) 0.43942(14) 0.4403(3)
H19 H 0.1687 0.4714 0.4491
H20 H 0.2345 0.4230 0.4595
O8 O 0.1053(14) 0.4090(4) 0.2900(6)
H21 H 0.0808 0.4021 0.3272
H22 H 0.1965 0.4011 0.2924
Zn1 Zn 0.27152(5) 0.622147(16) 0.51487(2)
O1 O 0.4539(3) 0.66297(10) 0.52207(15)
O2 O 0.6066(4) 0.61620(11) 0.47388(18)
O3 O 0.5023(3) 0.28215(10) 0.81930(14)
O4 O 0.1677(3) 0.62861(10) 0.42080(14)
N1 N 0.3286(4) 0.17210(12) 0.92995(16)
O5 O 0.4861(3) 0.42654(11) 0.67483(15)
O6 O 0.1149(4) 0.54587(12) 0.42751(15)
N2 N 0.3288(4) 0.55663(12) 0.56617(16)
C1 C 0.4403(4) 0.24744(14) 0.85559(19)
C2 C 0.4081(4) 0.32392(14) 0.78873(19)
H1 H 0.3759 0.3445 0.8231
H2 H 0.3201 0.3105 0.7585
C3 C 0.6293(4) 0.74903(14) 0.5310(2)
H3 H 0.5484 0.7482 0.5522
C4 C 0.5702(4) 0.65741(15) 0.49744(19)
C5 C 0.0271(5) 0.63263(15) 0.2842(2)
H4 H 0.0453 0.6638 0.3072
C6 C 0.3184(5) 0.25809(15) 0.8835(2)
H5 H 0.2716 0.2901 0.8777
C7 C 0.4490(4) 0.16318(16) 0.9024(2)
H6 H 0.4947 0.1310 0.9090
C8 C 0.5000 0.3565(2) 0.7500
C9 C 0.1161(4) 0.58570(16) 0.3945(2)
C10 C 0.4261(4) 0.46759(15) 0.63898(19)
C11 C 0.6652(4) 0.70465(14) 0.49898(18)
C12 C 0.7891(4) 0.70529(15) 0.46780(19)
C13 C 0.0554(4) 0.58578(15) 0.31988(19)
C14 C 0.5071(5) 0.19909(15) 0.8653(2)
H7 H 0.5897 0.1913 0.8470
C15 C 0.5282(5) 0.50115(17) 0.6192(3)
H8 H 0.6301 0.4942 0.6300
C16 C 0.4758(5) 0.54453(17) 0.5835(2)
H9 H 0.5446 0.5668 0.5706
C17 C 0.2747(4) 0.47899(15) 0.6206(2)
H10 H 0.2036 0.4572 0.6324
C18 C 0.2323(4) 0.52354(15) 0.5843(2)
H11 H 0.1308 0.5309 0.5718
C19 C 0.3917(4) 0.39088(14) 0.70068(19)
H12 H 0.3333 0.3704 0.6646
H13 H 0.3241 0.4090 0.7238
C20 C 0.2681(5) 0.21988(16) 0.9203(2)
H14 H 0.1872 0.2274 0.9400
C21 C 0.0277(4) 0.53884(15) 0.2850(2)
N3 N 0.8391(7) 0.6629(3) 0.4379(3)
H15 H 0.7707 0.6394 0.4303
H16 H 0.8599 0.6722 0.4000
N4 N 0.0528(9) 0.4904(3) 0.3087(4)
H17 H 0.1296 0.4903 0.3416
H18 H -0.0239 0.4793 0.3231
O1F O 1.0461(3) 0.83703(10) 0.47793(15)
O2F O 0.8934(4) 0.88380(11) 0.52612(18)
C3F C 0.8707(4) 0.75097(14) 0.4690(2)
H3F H 0.9516 0.7518 0.4478
C4F C 0.9298(4) 0.84259(15) 0.50256(19)
C11F C 0.8348(4) 0.79535(14) 0.50102(18)
C12F C 0.7109(4) 0.79471(15) 0.53220(19)
N3F N 0.6609(7) 0.8371(3) 0.5621(3)
H15F H 0.7293 0.8606 0.5697
H16F H 0.6401 0.8278 0.6000
O3A O 0.4977(3) 0.28215(10) 0.68070(14)
N1A N 0.6714(4) 0.17210(12) 0.57005(16)
O5A O 0.5139(3) 0.42654(11) 0.82517(15)
N2A N 0.6712(4) 0.55663(12) 0.93383(16)
C1A C 0.5597(4) 0.24744(14) 0.64441(19)
C2A C 0.5919(4) 0.32392(14) 0.71127(19)
H1A H 0.6241 0.3445 0.6769
H2A H 0.6799 0.3105 0.7415
C6A C 0.6816(5) 0.25809(15) 0.6165(2)
H5A H 0.7284 0.2901 0.6223
C7A C 0.5510(4) 0.16318(16) 0.5976(2)
H6A H 0.5053 0.1310 0.5910
C10A C 0.5739(4) 0.46759(15) 0.86102(19)
C14A C 0.4929(5) 0.19909(15) 0.6347(2)
H7A H 0.4103 0.1913 0.6530
C15A C 0.4718(5) 0.50115(17) 0.8808(3)
H8A H 0.3699 0.4942 0.8700
C16A C 0.5242(5) 0.54453(17) 0.9165(2)
H9A H 0.4554 0.5668 0.9294
C17A C 0.7253(4) 0.47899(15) 0.8794(2)
H10A H 0.7964 0.4572 0.8676
C18A C 0.7677(4) 0.52354(15) 0.9157(2)
H11A H 0.8692 0.5309 0.9282
C19A C 0.6083(4) 0.39088(14) 0.79932(19)
H12A H 0.6667 0.3704 0.8354
H13A H 0.6759 0.4090 0.7762
C20A C 0.7319(5) 0.21988(16) 0.5797(2)
H14A H 0.8128 0.2274 0.5600
O4A O -0.1677(3) 0.62861(10) 0.07920(14)
O6A O -0.1149(4) 0.54587(12) 0.07249(15)
C5A C -0.0271(5) 0.63263(15) 0.2158(2)
H4A H -0.0453 0.6638 0.1928
C9A C -0.1161(4) 0.58570(16) 0.1055(2)
C13A C -0.0554(4) 0.58578(15) 0.18012(19)
C21A C -0.0277(4) 0.53884(15) 0.2150(2)
N4A N -0.0528(9) 0.4904(3) 0.1913(4)
H17A H -0.1296 0.4903 0.1584
H18A H 0.0239 0.4793 0.1769
Zn1A Zn -0.27152(5) 0.622147(16) -0.01487(2)
Zn1A_2 Zn 0.72848(5) 0.622147(16) 0.98513(2)
Zn1B Zn 0.77152(5) 0.122147(16) 0.51487(2)
Zn1C Zn 0.22848(5) 0.122147(16) 0.98513(2)
Zn1F Zn 1.22848(5) 0.877853(16) 0.48513(2)
O1A O -0.4539(3) 0.66297(10) -0.02207(15)
N1B N -0.1714(4) 0.67210(12) -0.07005(16)
N1C N 0.1714(4) 0.67210(12) 0.57005(16)
N2A_2 N -0.3288(4) 0.55663(12) -0.06617(16)
loop_
_geom_bond_atom_site_label_1
_geom_bond_atom_site_label_2
_geom_bond_site_symmetry_1
_geom_bond_site_symmetry_2
Zn1 O1 1_555 1_555
O1 C4 1_555 1_555
O2 C4 1_555 1_555
O3 C1 1_555 1_555
O4 Zn1 1_555 1_555
N1 C7 1_555 1_555
O5 C10 1_555 1_555
O6 C9 1_555 1_555
N2 Zn1 1_555 1_555
C1 C6 1_555 1_555
C2 O3 1_555 1_555
H1 C2 1_555 1_555
H2 C2 1_555 1_555
C3 H3 1_555 1_555
C4 C11 1_555 1_555
C5 H4 1_555 1_555
C6 H5 1_555 1_555
C7 H6 1_555 1_555
C8 C2 1_555 1_555
C9 O4 1_555 1_555
C10 C15 1_555 1_555
C11 C3 1_555 1_555
C12 C11 1_555 1_555
C13 C5 1_555 1_555
C14 C1 1_555 1_555
H7 C14 1_555 1_555
C15 H8 1_555 1_555
C16 N2 1_555 1_555
H9 C16 1_555 1_555
C17 C10 1_555 1_555
H10 C17 1_555 1_555
C18 N2 1_555 1_555
H11 C18 1_555 1_555
C19 O5 1_555 1_555
H12 C19 1_555 1_555
H13 C19 1_555 1_555
C20 N1 1_555 1_555
H14 C20 1_555 1_555
C21 C13 1_555 1_555
N3 C12 1_555 1_555
H15 N3 1_555 1_555
H16 N3 1_555 1_555
N4 C21 1_555 1_555
H17 N4 1_555 1_555
H18 N4 1_555 1_555
O7 H19 1_555 1_555
H20 O7 1_555 1_555
O8 H21 1_555 1_555
H22 O8 1_555 1_555
O1F C4F 1_555 1_555
O2F C4F 1_555 1_555
C3F C12 1_555 1_555
H3F C3F 1_555 1_555
C4F C11F 1_555 1_555
C11F C3F 1_555 1_555
C12F C3 1_555 1_555
N3F C12F 1_555 1_555
H15F N3F 1_555 1_555
H16F N3F 1_555 1_555
O3A C1A 1_555 1_555
N1A C7A 1_555 1_555
O5A C10A 1_555 1_555
N2A C16A 1_555 1_555
C1A C6A 1_555 1_555
C2A C8 1_555 1_555
H1A C2A 1_555 1_555
H2A C2A 1_555 1_555
C6A H5A 1_555 1_555
C7A H6A 1_555 1_555
C10A C15A 1_555 1_555
C14A C1A 1_555 1_555
H7A C14A 1_555 1_555
C15A H8A 1_555 1_555
C16A C15A 1_555 1_555
H9A C16A 1_555 1_555
C17A C10A 1_555 1_555
H10A C17A 1_555 1_555
C18A N2A 1_555 1_555
H11A C18A 1_555 1_555
C19A C8 1_555 1_555
H12A C19A 1_555 1_555
H13A C19A 1_555 1_555
C20A N1A 1_555 1_555
H14A C20A 1_555 1_555
O4A C9A 1_555 1_555
O6A C9A 1_555 1_555
C5A C5 1_555 1_555
H4A C5A 1_555 1_555
C9A C13A 1_555 1_555
C13A C5A 1_555 1_555
C21A C21 1_555 1_555
N4A C21A 1_555 1_555
H17A N4A 1_555 1_555
H18A N4A 1_555 1_555
Zn1A O4A 1_555 1_555
Zn1A_2 N2A 1_555 1_555
Zn1B N1A 1_555 1_555
Zn1C N1 1_555 1_555
Zn1F O1F 1_555 1_555
O1A Zn1A 1_555 1_555
N1B Zn1A 1_555 1_555
N1C Zn1 1_555 1_555
N2A_2 Zn1A 1_555 1_555
C6 C20 1_555 1_555
C7 C14 1_555 1_555
C8 C19 1_555 1_555
C9 C13 1_555 1_555
C15 C16 1_555 1_555
C17 C18 1_555 1_555
C11F C12F 1_555 1_555
O3A C2A 1_555 1_555
O5A C19A 1_555 1_555
C6A C20A 1_555 1_555
C7A C14A 1_555 1_555
C17A C18A 1_555 1_555
C13A C21A 1_555 1_555

#END
