
#######################################################################
#
#                 Cambridge Crystallographic Data Centre
#                                CCDC 
#
#######################################################################
#
# If this CIF has been generated from an entry in the Cambridge 
# Structural Database, then it will include bibliographic, chemical, 
# crystal, experimental, refinement or atomic coordinate data resulting 
# from the CCDC's data processing and validation procedures.
#
#######################################################################

data_RIYXIG
_chemical_formula_moiety         '(C12 H26 Ag3 Cl2 N8 O9 1+)n'
_symmetry_cell_setting           orthorhombic
_symmetry_space_group_name_H-M   'P m n n'
_symmetry_Int_Tables_number      58
_space_group_name_Hall           '-P 2n 2'
loop_
_symmetry_equiv_pos_site_id
_symmetry_equiv_pos_as_xyz
1 x,y,z
2 1/2-x,1/2-y,1/2+z
3 x,-y,-z
4 1/2-x,1/2+y,1/2-z
5 -x,-y,-z
6 1/2+x,1/2+y,1/2-z
7 -x,y,z
8 1/2+x,1/2-y,1/2+z
_cell_length_a                   6.533(2)
_cell_length_b                   10.453(2)
_cell_length_c                   19.293(8)
_cell_angle_alpha                90
_cell_angle_beta                 90
_cell_angle_gamma                90
_cell_volume                     1317.51
loop_
_atom_site_label
_atom_site_type_symbol
_atom_site_fract_x
_atom_site_fract_y
_atom_site_fract_z
Ag1 Ag 0.5000 0.17763(5) -0.29657(3)
Ag2 Ag 0.5000 0.0000 0.0000
N1 N 0.5000 -0.0103(5) -0.2293(3)
N2 N 0.5000 -0.0759(5) -0.1076(3)
N3 N 0.3116(6) -0.2028(4) -0.1936(2)
C1 C 0.5000 0.0339(6) -0.1559(4)
C2 C 0.3161(7) -0.0901(4) -0.2410(2)
C3 C 0.3161(7) -0.1561(4) -0.1207(2)
C4 C 0.5000 -0.2792(7) -0.2059(3)
H1 H 0.6202 0.0862(6) -0.1475(4)
H2 H 0.3147(7) -0.1195(4) -0.2887(2)
H3 H 0.1944(7) -0.0387(4) -0.2335(2)
H4 H 0.1938(7) -0.1063(4) -0.1115(2)
H5 H 0.3167(7) -0.2287(4) -0.0894(2)
H6 H 0.5000 -0.3102(7) -0.2533(3)
H7 H 0.5000 -0.3529(7) -0.1753(3)
N3E N 0.8116(6) 0.2972(4) -0.3064(2)
N2B N 0.5000 0.0759(5) 0.1076(3)
C2F C 0.6839(7) -0.0901(4) -0.2410(2)
C3F C 0.6839(7) -0.1561(4) -0.1207(2)
H1F H 0.3798 0.0862(6) -0.1475(4)
N3C N 0.1884(6) 0.2972(4) -0.3064(2)
C1B C 0.5000 -0.0339(6) 0.1559(4)
C3B C 0.3161(7) 0.1561(4) 0.1207(2)
C3D C 0.6839(7) 0.1561(4) 0.1207(2)
N3F N 0.6884(6) -0.2028(4) -0.1936(2)
H2F H 0.6853(7) -0.1195(4) -0.2887(2)
H3F H 0.8056(7) -0.0387(4) -0.2335(2)
H4F H 0.8062(7) -0.1063(4) -0.1115(2)
H5F H 0.6833(7) -0.2287(4) -0.0894(2)
Ag1C Ag 0.0000 -0.32237(5) -0.20343(3)
N1B N 0.5000 0.0103(5) 0.2293(3)
H1B H 0.6202 -0.0862(6) 0.1475(4)
H1D H 0.3798 -0.0862(6) 0.1475(4)
N3B N 0.3116(6) 0.2028(4) 0.1936(2)
H4B H 0.1938(7) 0.1063(4) 0.1115(2)
H5B H 0.3167(7) 0.2287(4) 0.0894(2)
N3D N 0.6884(6) 0.2028(4) 0.1936(2)
H4D H 0.8062(7) 0.1063(4) 0.1115(2)
H5D H 0.6833(7) 0.2287(4) 0.0894(2)
Ag1C_2 Ag 1.0000 -0.32237(5) -0.20343(3)
Ag1B Ag 0.5000 -0.17763(5) 0.29657(3)
C2B C 0.3161(7) 0.0901(4) 0.2410(2)
C2D C 0.6839(7) 0.0901(4) 0.2410(2)
Ag1A Ag 0.0000 0.32237(5) 0.20343(3)
C4B C 0.5000 0.2792(7) 0.2059(3)
Ag1A_2 Ag 1.0000 0.32237(5) 0.20343(3)
H2B H 0.3147(7) 0.1195(4) 0.2887(2)
H3B H 0.1944(7) 0.0387(4) 0.2335(2)
H2D H 0.6853(7) 0.1195(4) 0.2887(2)
H3D H 0.8056(7) 0.0387(4) 0.2335(2)
H6B H 0.5000 0.3102(7) 0.2533(3)
H7B H 0.5000 0.3529(7) 0.1753(3)
N3A N 0.1884(6) -0.2972(4) 0.3064(2)
N3G N 0.8116(6) -0.2972(4) 0.3064(2)
O1 O 0.410(2) 0.0768(10) -0.4081(6)
Cl1 Cl -0.0000 0.1851(2) -0.06946(11)
O2 O -0.0000 0.3127(7) -0.0961(6)
O3 O 0.0000 0.1032(7) -0.1293(3)
O4 O -0.1781(13) 0.1623(8) -0.0331(4)
O4F O 0.1781(13) 0.1623(8) -0.0331(4)
Cl2 Cl 0.5000 0.4413(5) -0.0665(4)
O5 O 0.3261(14) 0.5236(11) -0.0649(10)
O6 O 0.5000 0.376(2) -0.1271(5)
O7 O 0.5000 0.366(2) -0.0071(8)
O5F O 0.6739(14) 0.5236(11) -0.0649(10)
loop_
_geom_bond_atom_site_label_1
_geom_bond_atom_site_label_2
_geom_bond_site_symmetry_1
_geom_bond_site_symmetry_2
Ag1 N1 1_555 1_555
Ag2 N2 1_555 1_555
N1 C1 1_555 1_555
N2 C1 1_555 1_555
N3 C2 1_555 1_555
C1 H1 1_555 1_555
C2 N1 1_555 1_555
C3 N2 1_555 1_555
C4 N3 1_555 1_555
Cl1 O2 1_555 1_555
O3 Cl1 1_555 1_555
O4 Cl1 1_555 1_555
Cl2 O5 1_555 1_555
O6 Cl2 1_555 1_555
O7 Cl2 1_555 1_555
H2 C2 1_555 1_555
H3 C2 1_555 1_555
H4 C3 1_555 1_555
H5 C3 1_555 1_555
H6 C4 1_555 1_555
H7 C4 1_555 1_555
N3E Ag1 1_555 1_555
N2B Ag2 1_555 1_555
C2F N1 1_555 1_555
C3F N2 1_555 1_555
H1F C1 1_555 1_555
N3C Ag1 1_555 1_555
O4F Cl1 1_555 1_555
O5F Cl2 1_555 1_555
C1B N2B 1_555 1_555
C3B N2B 1_555 1_555
C3D N2B 1_555 1_555
N3F C4 1_555 1_555
H2F C2F 1_555 1_555
H3F C2F 1_555 1_555
H4F C3F 1_555 1_555
H5F C3F 1_555 1_555
Ag1C N3 1_555 1_555
N1B C1B 1_555 1_555
H1B C1B 1_555 1_555
H1D C1B 1_555 1_555
N3B C3B 1_555 1_555
H4B C3B 1_555 1_555
H5B C3B 1_555 1_555
N3D C3D 1_555 1_555
H4D C3D 1_555 1_555
H5D C3D 1_555 1_555
Ag1C_2 N3F 1_555 1_555
Ag1B N1B 1_555 1_555
C2B N1B 1_555 1_555
C2D N1B 1_555 1_555
Ag1A N3B 1_555 1_555
C4B N3B 1_555 1_555
Ag1A_2 N3D 1_555 1_555
H2B C2B 1_555 1_555
H3B C2B 1_555 1_555
H2D C2D 1_555 1_555
H3D C2D 1_555 1_555
H6B C4B 1_555 1_555
H7B C4B 1_555 1_555
N3A Ag1B 1_555 1_555
N3G Ag1B 1_555 1_555
N3 C3 1_555 1_555
C2F N3F 1_555 1_555
C3F N3F 1_555 1_555
N3B C2B 1_555 1_555
N3D C2D 1_555 1_555
N3D C4B 1_555 1_555

#END
