
#######################################################################
#
#                 Cambridge Crystallographic Data Centre
#                                CCDC 
#
#######################################################################
#
# If this CIF has been generated from an entry in the Cambridge 
# Structural Database, then it will include bibliographic, chemical, 
# crystal, experimental, refinement or atomic coordinate data resulting 
# from the CCDC's data processing and validation procedures.
#
#######################################################################

data_WIKYAQ
_chemical_formula_moiety         '(C63 H116 Cl1 Co1 K1 N14 O28 P1)n'
_symmetry_cell_setting           orthorhombic
_symmetry_space_group_name_H-M   'P 21 21 21'
_symmetry_Int_Tables_number      19
_space_group_name_Hall           'P 2ac 2ab'
loop_
_symmetry_equiv_pos_site_id
_symmetry_equiv_pos_as_xyz
1 x,y,z
2 1/2-x,-y,1/2+z
3 -x,1/2+y,1/2-z
4 1/2+x,1/2-y,-z
_cell_length_a                   16.015(5)
_cell_length_b                   21.146(5)
_cell_length_c                   23.843(5)
_cell_angle_alpha                90
_cell_angle_beta                 90
_cell_angle_gamma                90
_cell_volume                     8074.51
loop_
_atom_site_label
_atom_site_type_symbol
_atom_site_fract_x
_atom_site_fract_y
_atom_site_fract_z
_atom_site_U_iso_or_equiv
_atom_site_thermal_displace_type
Co1 Co 0.26692(5) 0.11980(4) 0.21419(4) 0.0262 Uani
C1 C 0.2495(4) 0.1407(3) 0.1390(3) 0.0293 Uani
N1 N 0.2357(4) 0.1501(3) 0.0930(3) 0.0523 Uani
N2 N 0.1567(3) 0.1398(2) 0.2320(2) 0.0283 Uani
N3 N 0.2352(3) 0.0356(2) 0.1957(2) 0.0267 Uani
N4 N 0.3831(3) 0.1093(2) 0.1993(2) 0.0270 Uani
N5 N 0.2851(3) 0.2067(2) 0.2296(2) 0.0290 Uani
C2 C 0.1407(4) 0.2032(3) 0.2591(3) 0.0310 Uani
C3 C 0.0460(4) 0.2147(3) 0.2452(3) 0.0353 Uani
C4 C 0.0111(4) 0.1458(3) 0.2420(3) 0.0320 Uani
H1 H -0.0333 0.1442 0.2125 0.0380 Uiso
C5 C 0.0870(4) 0.1099(3) 0.2208(3) 0.0290 Uani
C6 C 0.0841(4) 0.0492(3) 0.1941(3) 0.0307 Uani
C7 C 0.1520(4) 0.0136(3) 0.1841(3) 0.0320 Uani
C8 C 0.1621(4) -0.0525(3) 0.1588(3) 0.0353 Uani
C9 C 0.2468(4) -0.0741(3) 0.1824(3) 0.0313 Uani
H2 H 0.2763 -0.1023 0.1552 0.0370 Uiso
C10 C 0.2906(4) -0.0104(3) 0.1871(3) 0.0300 Uani
C11 C 0.3751(4) -0.0025(3) 0.1792(3) 0.0337 Uani
H3 H 0.4066 -0.0393 0.1705 0.0410 Uiso
C12 C 0.4184(4) 0.0534(3) 0.1827(3) 0.0327 Uani
C13 C 0.5076(4) 0.0634(3) 0.1648(3) 0.0330 Uani
C14 C 0.5312(4) 0.1254(3) 0.1960(3) 0.0300 Uani
H4 H 0.5683 0.1524 0.1722 0.0360 Uiso
C15 C 0.4445(4) 0.1562(3) 0.2029(3) 0.0287 Uani
C16 C 0.4344(4) 0.2173(3) 0.2174(3) 0.0287 Uani
C17 C 0.3505(4) 0.2431(3) 0.2293(3) 0.0287 Uani
C18 C 0.3292(4) 0.3128(3) 0.2383(3) 0.0367 Uani
C19 C 0.2363(4) 0.3066(3) 0.2610(4) 0.0433 Uani
H5 H 0.2366 0.3009 0.3026 0.0520 Uiso
C20 C 0.2072(4) 0.2439(3) 0.2316(3) 0.0333 Uani
H6 H 0.1893 0.2539 0.1924 0.0400 Uiso
C21 C 0.1583(4) 0.1985(3) 0.3233(3) 0.0337 Uani
H7 H 0.2178 0.1905 0.3294 0.0500 Uiso
H8 H 0.1254 0.1638 0.3393 0.0500 Uiso
H9 H 0.1426 0.2384 0.3415 0.0500 Uiso
C22 C 0.0009(4) 0.2567(3) 0.2891(4) 0.0440 Uani
H10 H 0.0319 0.2963 0.2940 0.0660 Uiso
H11 H -0.0019 0.2343 0.3250 0.0660 Uiso
H12 H -0.0558 0.2662 0.2761 0.0660 Uiso
C23 C 0.0383(4) 0.2442(3) 0.1853(3) 0.0370 Uani
H13 H 0.0619 0.2875 0.1862 0.0440 Uiso
H14 H 0.0724 0.2188 0.1590 0.0440 Uiso
C24 C -0.0489(5) 0.2476(4) 0.1634(4) 0.0460 Uani
O1 O -0.1125(4) 0.2610(4) 0.1891(4) 0.1010 Uani
N6 N -0.0582(7) 0.2379(7) 0.1108(6) 0.1687 Uani
H15 H -0.1081 0.2411 0.0955 0.2020 Uiso
H16 H -0.0148 0.2280 0.0899 0.2020 Uiso
C25 C -0.0222(4) 0.1139(3) 0.2952(3) 0.0350 Uani
H17 H 0.0099 0.1296 0.3278 0.0420 Uiso
H18 H -0.0128 0.0678 0.2923 0.0420 Uiso
C26 C -0.1158(4) 0.1260(4) 0.3056(4) 0.0480 Uani
H19 H -0.1251 0.1717 0.3120 0.0580 Uiso
H20 H -0.1481 0.1133 0.2720 0.0580 Uiso
C27 C -0.1454(5) 0.0892(5) 0.3553(4) 0.0543 Uani
O2 O -0.1697(4) 0.0326(3) 0.3469(3) 0.0703 Uani
N7 N -0.1475(4) 0.1180(4) 0.4044(3) 0.0660 Uani
H21 H -0.1666 0.0979 0.4341 0.0790 Uiso
H22 H -0.1297 0.1572 0.4074 0.0790 Uiso
C28 C -0.0049(4) 0.0263(4) 0.1758(3) 0.0420 Uani
H23 H 0.0004 -0.0104 0.1509 0.0630 Uiso
H24 H -0.0337 0.0605 0.1560 0.0630 Uiso
H25 H -0.0372 0.0143 0.2091 0.0630 Uiso
C29 C 0.0934(5) -0.1018(3) 0.1721(4) 0.0457 Uani
H26 H 0.0715 -0.0942 0.2099 0.0680 Uiso
H27 H 0.1171 -0.1444 0.1701 0.0680 Uiso
H28 H 0.0480 -0.0978 0.1448 0.0680 Uiso
C30 C 0.1748(5) -0.0452(3) 0.0941(3) 0.0357 Uani
H29 H 0.2257 -0.0196 0.0876 0.0430 Uiso
H30 H 0.1850 -0.0877 0.0780 0.0430 Uiso
C31 C 0.1022(5) -0.0145(3) 0.0618(3) 0.0403 Uani
O3 O 0.0395(3) -0.0472(3) 0.0493(3) 0.0603 Uani
N8 N 0.1074(5) 0.0448(3) 0.0504(3) 0.0503 Uani
H31 H 0.0659 0.0640 0.0332 0.0610 Uiso
H32 H 0.1524 0.0662 0.0598 0.0610 Uiso
C32 C 0.2408(4) -0.1056(3) 0.2408(3) 0.0343 Uani
H33 H 0.1998 -0.0821 0.2639 0.0420 Uiso
H34 H 0.2201 -0.1494 0.2363 0.0420 Uiso
C33 C 0.3249(5) -0.1069(3) 0.2713(3) 0.0407 Uani
H35 H 0.3444 -0.0627 0.2754 0.0490 Uiso
H36 H 0.3655 -0.1290 0.2469 0.0490 Uiso
C34 C 0.3271(6) -0.1381(4) 0.3290(4) 0.0483 Uani
O4 O 0.3892(4) -0.1291(3) 0.3597(3) 0.0637 Uani
N9 N 0.2639(4) -0.1740(3) 0.3447(3) 0.0467 Uani
H37 H 0.2647 -0.1925 0.3777 0.0570 Uiso
H38 H 0.2210 -0.1794 0.3221 0.0570 Uiso
C35 C 0.5065(5) 0.0771(4) 0.1008(3) 0.0453 Uani
H39 H 0.5634 0.0859 0.0878 0.0680 Uiso
H40 H 0.4709 0.1139 0.0933 0.0680 Uiso
H41 H 0.4844 0.0403 0.0808 0.0680 Uiso
C36 C 0.5642(4) 0.0050(3) 0.1771(4) 0.0490 Uani
H42 H 0.5502 -0.0124 0.2141 0.0730 Uiso
H43 H 0.6230 0.0181 0.1768 0.0730 Uiso
H44 H 0.5551 -0.0273 0.1483 0.0730 Uiso
C37 C 0.5682(4) 0.1173(4) 0.2549(3) 0.0370 Uani
H45 H 0.5588 0.1569 0.2761 0.0440 Uiso
H46 H 0.5370 0.0833 0.2743 0.0440 Uiso
C38 C 0.6614(4) 0.1014(4) 0.2575(4) 0.0487 Uani
H47 H 0.6807 0.1085 0.2964 0.0590 Uiso
H48 H 0.6678 0.0557 0.2495 0.0590 Uiso
C39 C 0.7157(5) 0.1351(5) 0.2210(5) 0.0693 Uani
O5 O 0.7519(4) 0.1012(4) 0.1811(3) 0.0867 Uani
N10 N 0.7244(5) 0.1938(4) 0.2302(5) 0.0990 Uani
H49 H 0.7576 0.2165 0.2088 0.1190 Uiso
H50 H 0.6972 0.2118 0.2580 0.1190 Uiso
C40 C 0.5104(4) 0.2612(3) 0.2182(4) 0.0383 Uani
H51 H 0.5573 0.2404 0.1993 0.0580 Uiso
H52 H 0.5257 0.2705 0.2571 0.0580 Uiso
H53 H 0.4968 0.3006 0.1987 0.0580 Uiso
C41 C 0.3322(5) 0.3460(3) 0.1802(3) 0.0407 Uani
H54 H 0.3847 0.3356 0.1613 0.0610 Uiso
H55 H 0.3285 0.3919 0.1854 0.0610 Uiso
H56 H 0.2851 0.3316 0.1573 0.0610 Uiso
C42 C 0.3845(4) 0.3490(3) 0.2796(3) 0.0357 Uani
H57 H 0.3582 0.3905 0.2869 0.0430 Uiso
H58 H 0.4389 0.3571 0.2613 0.0430 Uiso
C43 C 0.4015(5) 0.3166(3) 0.3370(3) 0.0433 Uani
H59 H 0.3520 0.3219 0.3614 0.0520 Uiso
H60 H 0.4101 0.2708 0.3310 0.0520 Uiso
C44 C 0.4763(5) 0.3436(3) 0.3656(4) 0.0483 Uani
O6 O 0.5465(4) 0.3427(3) 0.3422(3) 0.0553 Uani
N11 N 0.4665(4) 0.3680(3) 0.4163(3) 0.0473 Uani
H61 H 0.4166 0.3675 0.4317 0.0570 Uiso
C45 C 0.1809(5) 0.3663(4) 0.2445(4) 0.0620 Uani
H62 H 0.1963 0.3810 0.2064 0.0750 Uiso
H63 H 0.1212 0.3543 0.2440 0.0750 Uiso
C46 C 0.1943(5) 0.4181(4) 0.2854(6) 0.0717 Uani
O7 O 0.1991(6) 0.4073(3) 0.3364(3) 0.1020 Uani
N12 N 0.1980(4) 0.4755(3) 0.2627(4) 0.0610 Uani
H64 H 0.2042 0.5089 0.2843 0.0730 Uiso
H65 H 0.1942 0.4800 0.2261 0.0730 Uiso
C47 C 0.5374(5) 0.3962(3) 0.4482(4) 0.0453 Uani
H66 H 0.5795 0.4121 0.4212 0.0540 Uiso
H67 H 0.5166 0.4329 0.4699 0.0540 Uiso
C48 C 0.5783(5) 0.3516(3) 0.4870(3) 0.0390 Uani
H68 H 0.5997 0.3141 0.4659 0.0470 Uiso
C49 C 0.6505(5) 0.3843(4) 0.5190(3) 0.0553 Uani
H69 H 0.6316 0.4254 0.5330 0.0830 Uiso
H70 H 0.6979 0.3904 0.4936 0.0830 Uiso
H71 H 0.6678 0.3577 0.5506 0.0830 Uiso
P1 P 0.50268(12) 0.25978(9) 0.54234(8) 0.0390 Uani
O8 O 0.4734(3) 0.2362(2) 0.4814(2) 0.0370 Uani
O9 O 0.5177(3) 0.3318(2) 0.5289(2) 0.0440 Uani
O10 O 0.5818(3) 0.2268(3) 0.5577(2) 0.0483 Uani
O11 O 0.4314(3) 0.2586(3) 0.5829(2) 0.0503 Uani
C50 C 0.4240(4) 0.0884(3) 0.4143(3) 0.0327 Uani
H72 H 0.4332 0.0517 0.4401 0.0390 Uiso
C51 C 0.3944(4) 0.1449(3) 0.4476(3) 0.0320 Uani
H73 H 0.3582 0.1324 0.4799 0.0380 Uiso
C52 C 0.4773(4) 0.1713(3) 0.4666(3) 0.0303 Uani
H74 H 0.4992 0.1460 0.4989 0.0360 Uiso
C53 C 0.5337(4) 0.1618(3) 0.4146(3) 0.0377 Uani
H75 H 0.5269 0.1985 0.3886 0.0450 Uiso
C54 C 0.6243(5) 0.1515(4) 0.4261(4) 0.0507 Uani
H76 H 0.6544 0.1451 0.3903 0.0610 Uiso
H77 H 0.6479 0.1894 0.4446 0.0610 Uiso
O12 O 0.5003(3) 0.1051(2) 0.3881(2) 0.0377 Uani
O13 O 0.3534(3) 0.1864(2) 0.4107(2) 0.0343 Uani
H78 H 0.3263 0.2132 0.4293 0.0520 Uiso
O14 O 0.6361(3) 0.0985(3) 0.4607(2) 0.0543 Uani
H79 H 0.6860 0.0974 0.4717 0.0820 Uiso
N13 N 0.3659(3) 0.0704(3) 0.3698(2) 0.0300 Uani
C55 C 0.3570(4) 0.1032(3) 0.3207(3) 0.0270 Uani
H80 H 0.3965 0.1334 0.3079 0.0320 Uiso
N14 N 0.2893(3) 0.0891(2) 0.2934(2) 0.0257 Uani
C56 C 0.1668(4) 0.0176(3) 0.3259(3) 0.0337 Uani
H81 H 0.1315 0.0261 0.2948 0.0400 Uiso
C57 C 0.1408(5) -0.0234(3) 0.3667(3) 0.0413 Uani
C58 C 0.1932(4) -0.0362(3) 0.4147(3) 0.0377 Uani
C59 C 0.2696(4) -0.0060(3) 0.4195(3) 0.0337 Uani
H82 H 0.3043 -0.0132 0.4512 0.0410 Uiso
C60 C 0.2948(4) 0.0354(3) 0.3768(3) 0.0307 Uani
C61 C 0.2452(4) 0.0475(3) 0.3295(3) 0.0297 Uani
C62 C 0.0565(5) -0.0554(5) 0.3614(4) 0.0637 Uani
H83 H 0.0296 -0.0420 0.3265 0.0950 Uiso
H84 H 0.0213 -0.0434 0.3934 0.0950 Uiso
H85 H 0.0640 -0.1014 0.3611 0.0950 Uiso
C63 C 0.1641(5) -0.0790(4) 0.4612(4) 0.0563 Uani
H86 H 0.2066 -0.0804 0.4908 0.0850 Uiso
H87 H 0.1550 -0.1216 0.4464 0.0850 Uiso
H88 H 0.1117 -0.0627 0.4768 0.0850 Uiso
K1 K -0.11901(19) -0.09460(16) 0.07163(13) 0.1073 Uani
Cl1 Cl -0.3020(3) -0.0826(4) 0.0325(2) 0.2100 Uani
K1B K 0.11901(19) 0.40540(16) 0.42837(13) 0.1073 Uani
K1A K 0.61901(19) 0.09460(16) 0.57163(13) 0.1073 Uani
O7B O -0.1991(6) -0.0927(3) 0.1636(3) 0.1020 Uani
O10A O -0.0818(3) -0.2268(3) 0.0577(2) 0.0483 Uani
O14A O -0.1361(3) -0.0985(3) -0.0393(2) 0.0543 Uani
O15 O 0.1804(4) 0.2395(3) 0.6670(3) 0.0743 Uani
H89 H 0.2060 0.2634 0.6371 0.1110 Uiso
H90 H 0.1401 0.2106 0.6510 0.1110 Uiso
O16 O 0.2789(3) 0.2082(3) 0.5734(3) 0.0550 Uani
H91 H 0.2617 0.2021 0.5349 0.0830 Uiso
H92 H 0.3301 0.2324 0.5738 0.0830 Uiso
O17 O 0.2471(3) 0.2680(3) 0.4665(3) 0.0597 Uani
H93 H 0.1908 0.2568 0.4628 0.0900 Uiso
H94 H 0.2518 0.3120 0.4661 0.0900 Uiso
O18 O 0.5118(4) -0.0348(3) 0.3294(4) 0.1000 Uani
O19 O 0.8143(6) 0.1278(4) 0.0807(3) 0.0383 Uani
O20 O 0.1158(5) 0.5246(3) 0.5775(3) 0.0667 Uani
H95 H 0.0651 0.5433 0.5919 0.1000 Uiso
H96 H 0.1098 0.5181 0.5376 0.1000 Uiso
O21 O 0.7358(5) -0.2342(4) 0.5639(3) 0.1773 Uani
O22 O 0.1026(4) 0.2303(3) 0.0399(2) 0.0693 Uani
O23 O 0.4450(4) 0.4008(3) -0.0073(2) 0.0787 Uani
O24 O 0.2145(4) 0.4468(3) 0.0798(2) 0.0870 Uani
O25 O 0.5286(4) 0.2958(3) 0.0556(2) 0.1190 Uiso
O26 O 0.6757(4) -0.1193(3) 0.4683(3) 0.1540 Uiso
O27 O 0.6288(5) -0.2694(3) 0.4597(3) 0.1040 Uiso
O28 O 0.8137(4) -0.1491(4) 0.4822(3) 0.1070 Uiso
loop_
_atom_site_aniso_label
_atom_site_aniso_U_11
_atom_site_aniso_U_22
_atom_site_aniso_U_33
_atom_site_aniso_U_23
_atom_site_aniso_U_13
_atom_site_aniso_U_12
Co1 0.0185(4) 0.0231(4) 0.0371(6) -0.0046(4) -0.0004(4) -0.0010(4)
C1 0.026(4) 0.027(3) 0.035(5) -0.003(3) -0.001(3) -0.001(3)
N1 0.054(4) 0.051(4) 0.052(5) 0.000(4) 0.001(4) 0.000(3)
N2 0.018(3) 0.030(3) 0.037(4) -0.006(2) -0.001(2) 0.003(2)
N3 0.020(3) 0.028(3) 0.032(3) -0.005(2) -0.001(3) -0.005(2)
N4 0.018(3) 0.024(3) 0.039(4) -0.001(2) 0.001(2) -0.001(2)
N5 0.027(3) 0.027(3) 0.033(3) -0.005(2) -0.001(3) 0.002(2)
C2 0.030(4) 0.021(3) 0.042(4) -0.009(3) -0.006(3) 0.006(3)
C3 0.019(3) 0.038(4) 0.049(5) 0.000(3) 0.003(3) 0.006(3)
C4 0.020(3) 0.041(4) 0.035(4) -0.007(3) -0.002(3) 0.002(3)
C5 0.022(3) 0.036(4) 0.029(4) -0.005(3) -0.004(3) -0.003(3)
C6 0.028(4) 0.029(3) 0.035(4) -0.004(3) 0.000(3) 0.002(3)
C7 0.028(4) 0.037(4) 0.031(4) 0.005(3) -0.002(3) -0.008(3)
C8 0.029(4) 0.029(4) 0.048(5) -0.005(3) 0.001(4) -0.004(3)
C9 0.024(4) 0.022(3) 0.048(4) -0.006(3) -0.005(3) -0.002(3)
C10 0.021(4) 0.029(3) 0.040(4) 0.000(3) 0.004(3) -0.006(3)
C11 0.027(4) 0.027(4) 0.047(5) -0.002(3) -0.001(3) 0.006(3)
C12 0.026(4) 0.021(3) 0.051(5) -0.001(3) 0.004(3) 0.001(3)
C13 0.025(4) 0.032(4) 0.042(5) -0.009(3) 0.008(3) -0.006(3)
C14 0.019(3) 0.029(3) 0.042(4) -0.002(3) 0.009(3) 0.000(3)
C15 0.027(3) 0.022(3) 0.037(4) -0.003(3) -0.002(3) -0.004(3)
C16 0.022(3) 0.026(3) 0.038(4) 0.000(3) -0.001(3) -0.008(3)
C17 0.027(4) 0.023(3) 0.036(4) 0.000(3) -0.005(3) -0.005(3)
C18 0.026(4) 0.025(3) 0.059(5) -0.006(3) 0.002(4) -0.001(3)
C19 0.032(4) 0.022(3) 0.076(6) -0.024(3) 0.001(4) -0.002(3)
C20 0.026(4) 0.019(3) 0.055(5) -0.004(3) -0.004(3) 0.003(3)
C21 0.027(4) 0.038(4) 0.036(4) -0.011(3) 0.006(3) 0.003(3)
C22 0.027(4) 0.036(4) 0.069(5) -0.009(4) 0.002(4) 0.009(3)
C23 0.026(4) 0.040(4) 0.045(5) 0.000(4) -0.004(3) 0.004(3)
C24 0.039(5) 0.046(5) 0.053(6) 0.000(4) 0.003(5) 0.007(4)
O1 0.048(4) 0.141(7) 0.114(6) 0.023(5) -0.009(5) 0.011(4)
N6 0.082(7) 0.266(18) 0.158(12) -0.092(12) -0.083(8) 0.099(10)
C25 0.019(3) 0.045(4) 0.041(5) -0.003(4) 0.002(3) 0.000(3)
C26 0.026(4) 0.048(5) 0.070(6) 0.008(4) 0.005(4) 0.001(3)
C27 0.024(4) 0.068(6) 0.071(7) -0.001(5) 0.012(4) 0.010(4)
O2 0.056(4) 0.068(4) 0.087(5) 0.009(4) 0.010(4) -0.014(3)
N7 0.053(5) 0.095(6) 0.050(5) -0.008(5) 0.005(4) -0.004(4)
C28 0.024(4) 0.049(4) 0.053(5) -0.016(4) -0.006(4) -0.003(3)
C29 0.034(4) 0.038(4) 0.065(6) -0.001(4) -0.011(4) -0.011(3)
C30 0.038(4) 0.037(4) 0.032(4) -0.008(3) 0.001(4) -0.005(3)
C31 0.050(5) 0.034(4) 0.037(5) -0.015(3) 0.004(4) 0.001(4)
O3 0.048(3) 0.057(3) 0.076(4) -0.032(3) -0.028(3) 0.014(3)
N8 0.067(5) 0.043(4) 0.041(4) -0.006(3) -0.008(3) 0.002(3)
C32 0.029(4) 0.026(3) 0.048(4) 0.002(3) 0.002(4) -0.003(3)
C33 0.036(4) 0.038(4) 0.048(5) 0.002(3) -0.006(4) 0.007(3)
C34 0.044(5) 0.041(5) 0.060(6) -0.012(4) -0.003(5) 0.010(4)
O4 0.052(4) 0.072(4) 0.067(4) -0.014(3) -0.018(3) 0.013(3)
N9 0.057(4) 0.040(3) 0.043(4) 0.011(3) -0.015(4) -0.007(3)
C35 0.044(5) 0.045(4) 0.047(5) -0.011(4) 0.018(4) -0.007(4)
C36 0.027(4) 0.032(4) 0.088(7) 0.002(4) 0.010(4) 0.004(3)
C37 0.026(4) 0.037(4) 0.048(5) 0.004(4) -0.002(4) 0.007(3)
C38 0.023(4) 0.043(4) 0.080(6) -0.016(4) -0.011(4) 0.003(3)
C39 0.037(5) 0.088(8) 0.083(8) -0.001(6) -0.022(5) -0.012(5)
O5 0.075(5) 0.100(5) 0.085(5) -0.020(4) 0.019(4) -0.003(4)
N10 0.044(5) 0.088(7) 0.165(10) 0.074(7) -0.055(6) -0.027(5)
C40 0.027(4) 0.027(3) 0.061(5) 0.003(4) 0.001(4) -0.007(3)
C41 0.037(4) 0.034(4) 0.051(5) 0.010(4) -0.006(4) 0.005(3)
C42 0.036(4) 0.021(3) 0.050(5) 0.002(3) 0.000(4) -0.002(3)
C43 0.039(4) 0.039(4) 0.052(5) 0.001(4) -0.002(4) -0.009(3)
C44 0.044(5) 0.024(4) 0.077(7) 0.001(4) 0.001(5) -0.004(3)
O6 0.053(4) 0.050(3) 0.063(4) -0.006(3) 0.003(3) -0.004(3)
N11 0.044(4) 0.035(3) 0.063(5) -0.007(3) -0.005(4) -0.011(3)
C45 0.040(5) 0.047(5) 0.099(8) -0.014(5) 0.010(5) -0.006(4)
C46 0.042(5) 0.053(6) 0.120(10) 0.006(6) 0.016(6) 0.009(4)
O7 0.183(9) 0.061(4) 0.062(5) 0.013(4) 0.040(5) 0.021(5)
N12 0.057(4) 0.035(4) 0.091(6) 0.020(4) 0.023(4) 0.020(3)
C47 0.044(5) 0.039(4) 0.053(5) -0.007(4) -0.009(4) -0.013(3)
C48 0.035(4) 0.042(4) 0.040(4) -0.006(4) 0.013(4) -0.016(3)
C49 0.056(5) 0.063(5) 0.047(5) -0.011(4) 0.006(4) -0.037(4)
P1 0.0357(11) 0.0462(11) 0.0352(12) -0.0043(9) -0.0002(10) -0.0163(9)
O8 0.038(3) 0.033(3) 0.040(3) 0.000(2) -0.008(2) -0.008(2)
O9 0.048(3) 0.039(3) 0.045(3) -0.006(2) 0.003(3) -0.009(2)
O10 0.034(3) 0.067(4) 0.044(3) 0.003(3) -0.009(3) -0.015(3)
O11 0.040(3) 0.068(4) 0.043(3) -0.004(3) 0.007(3) -0.016(3)
C50 0.025(4) 0.031(4) 0.042(5) -0.003(3) 0.002(4) -0.002(3)
C51 0.032(4) 0.029(4) 0.035(4) 0.005(3) -0.004(3) -0.002(3)
C52 0.026(4) 0.028(4) 0.037(4) -0.001(3) -0.005(3) -0.006(3)
C53 0.030(4) 0.038(4) 0.045(5) -0.001(4) -0.005(4) -0.013(3)
C54 0.034(4) 0.055(5) 0.063(6) -0.002(5) 0.005(4) -0.010(4)
O12 0.021(2) 0.049(3) 0.043(3) -0.011(2) 0.000(2) -0.005(2)
O13 0.038(3) 0.028(2) 0.037(3) -0.006(2) -0.009(2) 0.002(2)
O14 0.033(3) 0.077(4) 0.053(4) -0.012(3) -0.011(3) 0.009(3)
N13 0.024(3) 0.035(3) 0.031(3) -0.003(3) -0.002(3) 0.000(2)
C55 0.026(4) 0.021(3) 0.034(4) 0.001(3) 0.004(3) 0.000(3)
N14 0.018(3) 0.020(3) 0.039(3) -0.002(3) -0.001(3) -0.003(2)
C56 0.029(4) 0.033(4) 0.039(4) 0.003(3) -0.005(3) 0.000(3)
C57 0.040(4) 0.041(4) 0.043(5) -0.001(4) 0.008(4) -0.009(3)
C58 0.035(4) 0.033(4) 0.045(5) 0.003(3) -0.001(4) -0.008(3)
C59 0.030(4) 0.035(4) 0.036(4) -0.002(3) -0.005(4) 0.009(3)
C60 0.021(3) 0.020(3) 0.051(5) -0.005(3) 0.007(4) -0.001(3)
C61 0.024(4) 0.019(3) 0.046(4) -0.001(3) -0.003(3) 0.000(3)
C62 0.037(5) 0.080(6) 0.074(7) 0.016(5) -0.010(5) -0.026(4)
C63 0.049(5) 0.057(5) 0.063(6) 0.012(4) -0.003(5) -0.018(4)
K1 0.096 0.121 0.105 -0.0213 0.0202 -0.0169
Cl1 0.084 0.42 0.126 -0.015 0.008 -0.036
K1B 0.096(2) 0.121(2) 0.105(2) 0.0213(17) 0.0202(18) 0.0169(17)
K1A 0.096 0.121 0.105 0.0213 -0.0202 -0.0169
O7B 0.183 0.061 0.062 -0.013 0.04 -0.021
O10A 0.034 0.067 0.044 -0.003 0.009 -0.015
O14A 0.033 0.077 0.053 0.012 0.011 0.009
O15 0.060(4) 0.055(4) 0.108(5) 0.028(4) 0.013(4) 0.010(3)
O16 0.037(3) 0.047(3) 0.081(4) 0.014(3) -0.013(3) -0.007(3)
O17 0.045(3) 0.069(3) 0.065(4) 0.000(3) -0.003(3) 0.008(3)
O18 0.069(5) 0.080(5) 0.151(8) -0.002(5) 0.023(5) 0.017(4)
O19 0.055(6) 0.041(5) 0.019(5) -0.001(4) 0.007(4) 0.001(4)
O20 0.054(6) 0.067(6) 0.079(8) -0.016(6) 0.004(6) 0.005(5)
O21 0.172(10) 0.210(12) 0.150(9) 0.108(9) 0.087(8) 0.071(9)
O22 0.069(8) 0.091(9) 0.048(7) -0.012(7) -0.015(6) 0.049(7)
O23 0.084(9) 0.077(9) 0.075(9) 0.003(7) 0.015(8) -0.027(7)
O24 0.069(9) 0.057(8) 0.135(13) -0.038(8) -0.008(9) 0.023(7)
loop_
_geom_bond_atom_site_label_1
_geom_bond_atom_site_label_2
_geom_bond_site_symmetry_1
_geom_bond_site_symmetry_2
Co1 C1 1_555 1_555
C1 N1 1_555 1_555
N2 Co1 1_555 1_555
N3 Co1 1_555 1_555
N4 Co1 1_555 1_555
N5 Co1 1_555 1_555
C2 N2 1_555 1_555
C3 C2 1_555 1_555
C4 C3 1_555 1_555
H1 C4 1_555 1_555
C5 N2 1_555 1_555
C6 C5 1_555 1_555
C7 N3 1_555 1_555
C8 C7 1_555 1_555
C9 C8 1_555 1_555
H2 C9 1_555 1_555
C10 N3 1_555 1_555
C11 C10 1_555 1_555
H3 C11 1_555 1_555
C12 N4 1_555 1_555
C13 C12 1_555 1_555
C14 C13 1_555 1_555
H4 C14 1_555 1_555
C15 N4 1_555 1_555
C16 C15 1_555 1_555
C17 N5 1_555 1_555
C18 C17 1_555 1_555
C19 C18 1_555 1_555
H5 C19 1_555 1_555
C20 N5 1_555 1_555
H6 C20 1_555 1_555
C21 C2 1_555 1_555
H7 C21 1_555 1_555
H8 C21 1_555 1_555
H9 C21 1_555 1_555
C22 C3 1_555 1_555
H10 C22 1_555 1_555
H11 C22 1_555 1_555
H12 C22 1_555 1_555
C23 C3 1_555 1_555
H13 C23 1_555 1_555
H14 C23 1_555 1_555
C24 C23 1_555 1_555
O1 C24 1_555 1_555
N6 C24 1_555 1_555
H15 N6 1_555 1_555
H16 N6 1_555 1_555
C25 C4 1_555 1_555
H17 C25 1_555 1_555
H18 C25 1_555 1_555
C26 C25 1_555 1_555
H19 C26 1_555 1_555
H20 C26 1_555 1_555
C27 C26 1_555 1_555
O2 C27 1_555 1_555
N7 C27 1_555 1_555
H21 N7 1_555 1_555
H22 N7 1_555 1_555
C28 C6 1_555 1_555
H23 C28 1_555 1_555
H24 C28 1_555 1_555
H25 C28 1_555 1_555
C29 C8 1_555 1_555
H26 C29 1_555 1_555
H27 C29 1_555 1_555
H28 C29 1_555 1_555
C30 C8 1_555 1_555
H29 C30 1_555 1_555
H30 C30 1_555 1_555
C31 C30 1_555 1_555
O3 C31 1_555 1_555
N8 C31 1_555 1_555
H31 N8 1_555 1_555
H32 N8 1_555 1_555
C32 C9 1_555 1_555
H33 C32 1_555 1_555
H34 C32 1_555 1_555
C33 C32 1_555 1_555
H35 C33 1_555 1_555
H36 C33 1_555 1_555
C34 C33 1_555 1_555
O4 C34 1_555 1_555
N9 C34 1_555 1_555
H37 N9 1_555 1_555
H38 N9 1_555 1_555
C35 C13 1_555 1_555
H39 C35 1_555 1_555
H40 C35 1_555 1_555
H41 C35 1_555 1_555
C36 C13 1_555 1_555
H42 C36 1_555 1_555
H43 C36 1_555 1_555
H44 C36 1_555 1_555
C37 C14 1_555 1_555
H45 C37 1_555 1_555
H46 C37 1_555 1_555
C38 C37 1_555 1_555
H47 C38 1_555 1_555
H48 C38 1_555 1_555
C39 C38 1_555 1_555
O5 C39 1_555 1_555
N10 C39 1_555 1_555
H49 N10 1_555 1_555
H50 N10 1_555 1_555
C40 C16 1_555 1_555
H51 C40 1_555 1_555
H52 C40 1_555 1_555
H53 C40 1_555 1_555
C41 C18 1_555 1_555
H54 C41 1_555 1_555
H55 C41 1_555 1_555
H56 C41 1_555 1_555
C42 C18 1_555 1_555
H57 C42 1_555 1_555
H58 C42 1_555 1_555
C43 C42 1_555 1_555
H59 C43 1_555 1_555
H60 C43 1_555 1_555
C44 C43 1_555 1_555
O6 C44 1_555 1_555
N11 C44 1_555 1_555
H61 N11 1_555 1_555
C45 C19 1_555 1_555
H62 C45 1_555 1_555
H63 C45 1_555 1_555
C46 C45 1_555 1_555
O7 C46 1_555 1_555
N12 C46 1_555 1_555
H64 N12 1_555 1_555
H65 N12 1_555 1_555
C47 N11 1_555 1_555
H66 C47 1_555 1_555
H67 C47 1_555 1_555
C48 C47 1_555 1_555
H68 C48 1_555 1_555
C49 C48 1_555 1_555
H69 C49 1_555 1_555
H70 C49 1_555 1_555
H71 C49 1_555 1_555
P1 O8 1_555 1_555
O8 C52 1_555 1_555
O9 C48 1_555 1_555
O10 P1 1_555 1_555
O11 P1 1_555 1_555
C50 H72 1_555 1_555
C51 C50 1_555 1_555
H73 C51 1_555 1_555
C52 C51 1_555 1_555
H74 C52 1_555 1_555
C53 C52 1_555 1_555
H75 C53 1_555 1_555
C54 C53 1_555 1_555
H76 C54 1_555 1_555
H77 C54 1_555 1_555
O12 C50 1_555 1_555
O13 C51 1_555 1_555
H78 O13 1_555 1_555
O14 C54 1_555 1_555
H79 O14 1_555 1_555
N13 C50 1_555 1_555
C55 N13 1_555 1_555
H80 C55 1_555 1_555
N14 Co1 1_555 1_555
C56 H81 1_555 1_555
C57 C56 1_555 1_555
C58 C57 1_555 1_555
C59 C58 1_555 1_555
H82 C59 1_555 1_555
C60 N13 1_555 1_555
C61 N14 1_555 1_555
C62 C57 1_555 1_555
H83 C62 1_555 1_555
H84 C62 1_555 1_555
H85 C62 1_555 1_555
C63 C58 1_555 1_555
H86 C63 1_555 1_555
H87 C63 1_555 1_555
H88 C63 1_555 1_555
K1 O3 1_555 1_555
Cl1 K1 1_555 1_555
O15 H89 1_555 1_555
H90 O15 1_555 1_555
O16 H91 1_555 1_555
H92 O16 1_555 1_555
O17 H93 1_555 1_555
H94 O17 1_555 1_555
O20 H95 1_555 1_555
H96 O20 1_555 1_555
K1B O7 1_555 1_555
K1A O10 1_555 1_555
O7B K1 1_555 1_555
O10A K1 1_555 1_555
O14A K1 1_555 1_555
C2 C20 1_555 1_555
C4 C5 1_555 1_555
C6 C7 1_555 1_555
C9 C10 1_555 1_555
C11 C12 1_555 1_555
C14 C15 1_555 1_555
C16 C17 1_555 1_555
C19 C20 1_555 1_555
P1 O9 1_555 1_555
C53 O12 1_555 1_555
O14 K1A 1_555 1_555
C55 N14 1_555 1_555
C56 C61 1_555 1_555
C59 C60 1_555 1_555
C60 C61 1_555 1_555

#END
