
#######################################################################
#
#                 Cambridge Crystallographic Data Centre
#                                CCDC 
#
#######################################################################
#
# If this CIF has been generated from an entry in the Cambridge 
# Structural Database, then it will include bibliographic, chemical, 
# crystal, experimental, refinement or atomic coordinate data resulting 
# from the CCDC's data processing and validation procedures.
#
#######################################################################

data_TOFTIT
_chemical_formula_moiety         '(C72 H44 Cu6 N20 O30)n'
_symmetry_cell_setting           tetragonal
_symmetry_space_group_name_H-M   'I 4/m'
_symmetry_Int_Tables_number      87
_space_group_name_Hall           '-I 4'
loop_
_symmetry_equiv_pos_site_id
_symmetry_equiv_pos_as_xyz
1 x,y,z
2 -y,x,z
3 -x,-y,z
4 y,-x,z
5 1/2+x,1/2+y,1/2+z
6 1/2-y,1/2+x,1/2+z
7 1/2-x,1/2-y,1/2+z
8 1/2+y,1/2-x,1/2+z
9 -x,-y,-z
10 y,-x,-z
11 x,y,-z
12 -y,x,-z
13 1/2-x,1/2-y,1/2-z
14 1/2+y,1/2-x,1/2-z
15 1/2+x,1/2+y,1/2-z
16 1/2-y,1/2+x,1/2-z
_cell_length_a                   31.4954(2)
_cell_length_b                   31.4954(2)
_cell_length_c                   44.9024(9)
_cell_angle_alpha                90
_cell_angle_beta                 90
_cell_angle_gamma                90
_cell_volume                     44541.4
loop_
_atom_site_label
_atom_site_type_symbol
_atom_site_fract_x
_atom_site_fract_y
_atom_site_fract_z
_atom_site_U_iso_or_equiv
_atom_site_thermal_displace_type
Cu1 Cu 0.191669(7) 0.857752(7) 0.332570(6) 0.0345 Uani
Cu2 Cu 0.143905(7) 0.893429(7) 0.374288(6) 0.0345 Uani
Cu3 Cu 0.035441(11) 0.749278(10) 0.5000 0.0342 Uani
Cu4 Cu 0.046675(11) 0.665839(10) 0.5000 0.0339 Uani
C1 C 0.19362(13) 0.58779(8) 0.36231(9) 0.1329 Uani
C2 C 0.16671(11) 0.61143(7) 0.38151(7) 0.0995 Uani
H1 H 0.1447 0.6006 0.3930 0.1190 Uiso
C3 C 0.16520(9) 0.68807(7) 0.39440(6) 0.0747 Uani
C4 C 0.17317(9) 0.72734(7) 0.38179(5) 0.0658 Uani
H2 H 0.1897 0.7295 0.3647 0.0790 Uiso
C5 C 0.15621(7) 0.76348(6) 0.39500(5) 0.0485 Uani
C6 C 0.13182(6) 0.75985(6) 0.42047(4) 0.0456 Uani
H3 H 0.1208 0.7840 0.4295 0.0550 Uiso
C7 C 0.12379(7) 0.72008(6) 0.43268(4) 0.0480 Uani
C8 C 0.14120(8) 0.68390(7) 0.41966(5) 0.0651 Uani
H4 H 0.1366 0.6573 0.4280 0.0780 Uiso
C9 C 0.16286(6) 0.80566(6) 0.38044(4) 0.0455 Uani
C10 C 0.09482(6) 0.71577(6) 0.45916(4) 0.0435 Uani
C11 C 0.14077(15) 0.44187(9) 0.37938(9) 0.1335 Uani
C12 C 0.13570(11) 0.40054(8) 0.37714(7) 0.0952 Uani
H5 H 0.1488 0.3830 0.3633 0.1140 Uiso
C13 C 0.09171(10) 0.34735(7) 0.40522(6) 0.0774 Uani
C14 C 0.06219(9) 0.34455(7) 0.42827(5) 0.0685 Uani
H6 H 0.0527 0.3688 0.4381 0.0820 Uiso
C15 C 0.04744(7) 0.30478(6) 0.43615(5) 0.0499 Uani
C16 C 0.06183(6) 0.26871(6) 0.42179(4) 0.0476 Uani
H7 H 0.0526 0.2420 0.4278 0.0570 Uiso
C17 C 0.09036(7) 0.27277(6) 0.39821(5) 0.0487 Uani
C18 C 0.10579(8) 0.31204(7) 0.39020(6) 0.0672 Uani
H8 H 0.1254 0.3146 0.3748 0.0810 Uiso
C19 C 0.01443(7) 0.30097(6) 0.46034(4) 0.0468 Uani
C20 C 0.10415(6) 0.23371(6) 0.38168(4) 0.0450 Uani
C21 C 0.23783(15) 0.47241(8) 0.29540(8) 0.1281 Uani
C22 C 0.25781(11) 0.49320(7) 0.27364(7) 0.0941 Uani
H9 H 0.2599 0.5225 0.2717 0.1130 Uiso
C23 C 0.29787(10) 0.46927(7) 0.22842(6) 0.0757 Uani
C24 C 0.31489(9) 0.43328(7) 0.21564(5) 0.0685 Uani
H10 H 0.3115 0.4069 0.2246 0.0820 Uiso
C25 C 0.33698(7) 0.43729(6) 0.18926(5) 0.0502 Uani
C26 C 0.34225(6) 0.47670(6) 0.17607(5) 0.0468 Uani
H11 H 0.3576 0.4792 0.1585 0.0560 Uiso
C27 C 0.32455(7) 0.51235(6) 0.18912(5) 0.0484 Uani
C28 C 0.30199(8) 0.50896(7) 0.21558(5) 0.0664 Uani
H12 H 0.2899 0.5328 0.2244 0.0800 Uiso
C29 C 0.35357(6) 0.39807(6) 0.17405(4) 0.0451 Uani
C30 C 0.32841(6) 0.55485(6) 0.17402(4) 0.0432 Uani
N1 N 0.17879(9) 0.65174(6) 0.38003(6) 0.1108 Uani
N2 N 0.21432(13) 0.65474(6) 0.36068(10) 0.2164 Uani
N3 N 0.22225(17) 0.61375(7) 0.34875(12) 0.2669 Uani
N4 N 0.10864(11) 0.38828(7) 0.39812(6) 0.1195 Uani
N5 N 0.1012(2) 0.42128(10) 0.41551(12) 0.3011 Uani
N6 N 0.1193(2) 0.45401(10) 0.40325(12) 0.2934 Uani
N7 N 0.27400(11) 0.46471(6) 0.25549(6) 0.1125 Uani
N8 N 0.2636(2) 0.42674(9) 0.26480(11) 0.3005 Uani
N9 N 0.2425(2) 0.43144(10) 0.28996(11) 0.2836 Uani
O1 O 0.18387(5) 0.80646(4) 0.35681(3) 0.0532 Uani
O2 O 0.14572(5) 0.83708(4) 0.39290(3) 0.0541 Uani
O3 O 0.07899(5) 0.74946(4) 0.46904(3) 0.0516 Uani
O4 O 0.08818(5) 0.67899(4) 0.46879(3) 0.0519 Uani
O5 O -0.00189(5) 0.33450(4) 0.46941(3) 0.0540 Uani
O6 O 0.00693(5) 0.26394(4) 0.46924(3) 0.0537 Uani
O7 O 0.09277(5) 0.19866(4) 0.39230(3) 0.0513 Uani
O8 O 0.12526(5) 0.23896(4) 0.35821(3) 0.0522 Uani
O9 O 0.34582(5) 0.36328(4) 0.18635(3) 0.0546 Uani
O10 O 0.37342(5) 0.40362(4) 0.15020(3) 0.0535 Uani
O11 O 0.35095(5) 0.55628(4) 0.15101(3) 0.0528 Uani
O12 O 0.30853(5) 0.58537(4) 0.18528(3) 0.0512 Uani
O13 O 0.23048(7) 0.82955(7) 0.29909(5) 0.0973 Uani
H13 H 0.2208 0.8062 0.2946 0.1460 Uiso
O14 O 0.10709(8) 0.92448(9) 0.40787(5) 0.1170 Uani
H14 H 0.0880 0.9087 0.4134 0.1760 Uiso
O15 O 0.02525(13) 0.81611(7) 0.5000 0.1166 Uani
H15 H 0.0341 0.8262 0.5156 0.1750 Uiso
O16 O 0.05907(11) 0.59932(7) 0.5000 0.0950 Uani
H16 H 0.0395 0.5868 0.4918 0.1430 Uiso
C31 C 0.19191(14) 0.54371(8) 0.35432(8) 0.1188 Uani
C32 C 0.16796(15) 0.51469(9) 0.37044(9) 0.1267 Uani
C33 C 0.16658(14) 0.47247(8) 0.36244(8) 0.1201 Uani
C34 C 0.18990(17) 0.45863(8) 0.33816(9) 0.1279 Uani
C35 C 0.21374(15) 0.48711(9) 0.32138(8) 0.1279 Uani
C36 C 0.21472(16) 0.52918(9) 0.32961(9) 0.1277 Uani
N10 N 0.1359(9) 0.5262(6) 0.3902(6) 0.1223 Uani
H17 H 0.1177 0.5047 0.3922 0.1870 Uiso
H18 H 0.1472 0.5323 0.4078 0.1870 Uiso
H15J H 0.0341 0.8262 0.4844 0.1750 Uiso
H16J H 0.0395 0.5868 0.5082 0.1430 Uiso
Cu1A Cu 0.142248(7) 0.191669(7) 0.332570(6) 0.0345 Uani
Cu2A Cu 0.106571(7) 0.143905(7) 0.374288(6) 0.0345 Uani
C1A C 0.41221(8) 0.19362(13) 0.36231(9) 0.1329 Uani
C2A C 0.38857(7) 0.16671(11) 0.38151(7) 0.0995 Uani
H1A H 0.3994 0.1447 0.3930 0.1190 Uiso
C3A C 0.31193(7) 0.16520(9) 0.39440(6) 0.0747 Uani
C4A C 0.27266(7) 0.17317(9) 0.38179(5) 0.0658 Uani
H2A H 0.2705 0.1897 0.3647 0.0790 Uiso
C5A C 0.23652(6) 0.15621(7) 0.39500(5) 0.0485 Uani
C6A C 0.24015(6) 0.13182(6) 0.42047(4) 0.0456 Uani
H3A H 0.2160 0.1208 0.4295 0.0550 Uiso
C7A C 0.27992(6) 0.12379(7) 0.43268(4) 0.0480 Uani
C8A C 0.31610(7) 0.14120(8) 0.41966(5) 0.0651 Uani
H4A H 0.3427 0.1366 0.4280 0.0780 Uiso
C9A C 0.19434(6) 0.16286(6) 0.38044(4) 0.0455 Uani
C10A C 0.28423(6) 0.09482(6) 0.45916(4) 0.0435 Uani
C11A C 0.55813(9) 0.14077(15) 0.37938(9) 0.1335 Uani
C12A C 0.59946(8) 0.13570(11) 0.37714(7) 0.0952 Uani
H5A H 0.6170 0.1488 0.3633 0.1140 Uiso
C13A C 0.65265(7) 0.09171(10) 0.40522(6) 0.0774 Uani
C14A C 0.65545(7) 0.06219(9) 0.42827(5) 0.0685 Uani
H6A H 0.6312 0.0527 0.4381 0.0820 Uiso
C15A C 0.69522(6) 0.04744(7) 0.43615(5) 0.0499 Uani
C16A C 0.73129(6) 0.06183(6) 0.42179(4) 0.0476 Uani
H7A H 0.7580 0.0526 0.4278 0.0570 Uiso
C17A C 0.72723(6) 0.09036(7) 0.39821(5) 0.0487 Uani
C18A C 0.68796(7) 0.10579(8) 0.39020(6) 0.0672 Uani
H8A H 0.6854 0.1254 0.3748 0.0810 Uiso
C19A C 0.69903(6) 0.01443(7) 0.46034(4) 0.0468 Uani
C20A C 0.76629(6) 0.10415(6) 0.38168(4) 0.0450 Uani
C21A C 0.52759(8) 0.23783(15) 0.29540(8) 0.1281 Uani
C22A C 0.50680(7) 0.25781(11) 0.27364(7) 0.0941 Uani
H9A H 0.4775 0.2599 0.2717 0.1130 Uiso
C23A C 0.53073(7) 0.29787(10) 0.22842(6) 0.0757 Uani
C24A C 0.56672(7) 0.31489(9) 0.21564(5) 0.0685 Uani
H10A H 0.5931 0.3115 0.2246 0.0820 Uiso
C25A C 0.56271(6) 0.33698(7) 0.18926(5) 0.0502 Uani
C26A C 0.52330(6) 0.34225(6) 0.17607(5) 0.0468 Uani
H11A H 0.5208 0.3576 0.1585 0.0560 Uiso
C27A C 0.48765(6) 0.32455(7) 0.18912(5) 0.0484 Uani
C28A C 0.49104(7) 0.30199(8) 0.21558(5) 0.0664 Uani
H12A H 0.4672 0.2899 0.2244 0.0800 Uiso
C29A C 0.60193(6) 0.35357(6) 0.17405(4) 0.0451 Uani
C30A C 0.44515(6) 0.32841(6) 0.17402(4) 0.0432 Uani
N1A N 0.34826(6) 0.17879(9) 0.38003(6) 0.1108 Uani
N2A N 0.34526(6) 0.21432(13) 0.36068(10) 0.2164 Uani
N3A N 0.38625(7) 0.22225(17) 0.34875(12) 0.2669 Uani
N4A N 0.61172(7) 0.10864(11) 0.39812(6) 0.1195 Uani
N5A N 0.57872(10) 0.1012(2) 0.41551(12) 0.3011 Uani
N6A N 0.54599(10) 0.1193(2) 0.40325(12) 0.2934 Uani
N7A N 0.53529(6) 0.27400(11) 0.25549(6) 0.1125 Uani
N8A N 0.57326(9) 0.2636(2) 0.26480(11) 0.3005 Uani
N9A N 0.56856(10) 0.2425(2) 0.28996(11) 0.2836 Uani
O1A O 0.19354(4) 0.18387(5) 0.35681(3) 0.0532 Uani
O2A O 0.16292(4) 0.14572(5) 0.39290(3) 0.0541 Uani
O3A O 0.25054(4) 0.07899(5) 0.46904(3) 0.0516 Uani
O4A O 0.32101(4) 0.08818(5) 0.46879(3) 0.0519 Uani
O5A O 0.66550(4) -0.00189(5) 0.46941(3) 0.0540 Uani
O6A O 0.73606(4) 0.00693(5) 0.46924(3) 0.0537 Uani
O7A O 0.80134(4) 0.09277(5) 0.39230(3) 0.0513 Uani
O8A O 0.76104(4) 0.12526(5) 0.35821(3) 0.0522 Uani
O9A O 0.63672(4) 0.34582(5) 0.18635(3) 0.0546 Uani
O10A O 0.59638(4) 0.37342(5) 0.15020(3) 0.0535 Uani
O11A O 0.44372(4) 0.35095(5) 0.15101(3) 0.0528 Uani
O12A O 0.41463(4) 0.30853(5) 0.18528(3) 0.0512 Uani
O13A O 0.17045(7) 0.23048(7) 0.29909(5) 0.0973 Uani
H13A H 0.1938 0.2208 0.2946 0.1460 Uiso
O14A O 0.07552(9) 0.10709(8) 0.40787(5) 0.1170 Uani
H14A H 0.0913 0.0880 0.4134 0.1760 Uiso
C31A C 0.45629(8) 0.19191(14) 0.35432(8) 0.1188 Uani
C32A C 0.48531(9) 0.16796(15) 0.37044(9) 0.1267 Uani
C33A C 0.52753(8) 0.16658(14) 0.36244(8) 0.1201 Uani
C34A C 0.54137(8) 0.18990(17) 0.33816(9) 0.1279 Uani
C35A C 0.51289(9) 0.21374(15) 0.32138(8) 0.1279 Uani
C36A C 0.47082(9) 0.21472(16) 0.32961(9) 0.1277 Uani
N10A N 0.4738(6) 0.1359(9) 0.3902(6) 0.1223 Uani
H17A H 0.4953 0.1177 0.3922 0.1870 Uiso
H18A H 0.4677 0.1472 0.4078 0.1870 Uiso
Cu1B Cu 0.808331(7) 0.142248(7) 0.332570(6) 0.0345 Uani
Cu1L Cu 0.308331(7) 0.642248(7) 0.167430(6) 0.0345 Uani
Cu1M Cu 0.357752(7) 0.308331(7) 0.167430(6) 0.0345 Uani
Cu1N Cu 0.691669(7) 0.357752(7) 0.167430(6) 0.0345 Uani
Cu2B Cu 0.856095(7) 0.106571(7) 0.374288(6) 0.0345 Uani
Cu2L Cu 0.356095(7) 0.606571(7) 0.125712(6) 0.0345 Uani
Cu2M Cu 0.393429(7) 0.356095(7) 0.125712(6) 0.0345 Uani
Cu2N Cu 0.643905(7) 0.393429(7) 0.125712(6) 0.0345 Uani
Cu3A Cu 0.250722(10) 0.035441(11) 0.5000 0.0342 Uani
Cu3B Cu -0.035441(11) 0.250722(10) 0.5000 0.0342 Uani
Cu3C Cu 0.749278(10) -0.035441(11) 0.5000 0.0342 Uani
Cu4A Cu 0.334161(10) 0.046675(11) 0.5000 0.0339 Uani
Cu4B Cu -0.046675(11) 0.334161(10) 0.5000 0.0339 Uani
Cu4C Cu 0.665839(10) -0.046675(11) 0.5000 0.0339 Uani
O3J O 0.07899(5) 0.74946(4) 0.53096(3) 0.0516 Uani
O4J O 0.08818(5) 0.67899(4) 0.53121(3) 0.0519 Uani
O5B O 0.00189(5) 0.66550(4) 0.46941(3) 0.0540 Uani
O5H O 0.00189(5) 0.66550(4) 0.53059(3) 0.0540 Uani
O6B O -0.00693(5) 0.73606(4) 0.46924(3) 0.0537 Uani
O6H O -0.00693(5) 0.73606(4) 0.53076(3) 0.0537 Uani
O7C O 0.19866(4) 0.90723(5) 0.39230(3) 0.0513 Uani
O8C O 0.23896(4) 0.87474(5) 0.35821(3) 0.0522 Uani
O9L O 0.15418(5) 0.13672(4) 0.31365(3) 0.0546 Uani
O9O O 0.13672(4) 0.84582(5) 0.31365(3) 0.0546 Uani
O10L O 0.12658(5) 0.09638(4) 0.34980(3) 0.0535 Uani
O10O O 0.09638(4) 0.87342(5) 0.34980(3) 0.0535 Uani
O11L O 0.14905(5) 0.94372(4) 0.34899(3) 0.0528 Uani
O11M O 0.05628(4) 0.14905(5) 0.34899(3) 0.0528 Uani
O12L O 0.19147(5) 0.91463(4) 0.31472(3) 0.0512 Uani
O12M O 0.08537(4) 0.19147(5) 0.31472(3) 0.0512 Uani
loop_
_atom_site_aniso_label
_atom_site_aniso_U_11
_atom_site_aniso_U_22
_atom_site_aniso_U_33
_atom_site_aniso_U_23
_atom_site_aniso_U_13
_atom_site_aniso_U_12
Cu1 0.03386(13) 0.03346(13) 0.03617(16) -0.00805(10) 0.00789(10) -0.00368(9)
Cu2 0.03393(13) 0.03323(13) 0.03642(16) -0.00861(10) 0.00789(10) -0.00386(9)
Cu3 0.0474(2) 0.02577(17) 0.02946(19) 0.000 0.000 0.00176(14)
Cu4 0.0460(2) 0.02580(17) 0.02982(19) 0.000 0.000 0.00212(14)
C1 0.216(4) 0.0417(14) 0.141(3) -0.0107(16) 0.138(3) -0.0113(18)
C2 0.159(3) 0.0406(13) 0.099(2) -0.0016(13) 0.086(2) 0.0011(15)
C3 0.1011(19) 0.0414(11) 0.0817(17) -0.0060(11) 0.0500(16) -0.0029(11)
C4 0.0938(18) 0.0398(11) 0.0637(14) -0.0049(10) 0.0391(13) -0.0078(11)
C5 0.0605(12) 0.0376(9) 0.0475(11) -0.0030(8) 0.0143(10) -0.0046(8)
C6 0.0521(11) 0.0378(10) 0.0468(11) -0.0031(8) 0.0062(9) -0.0022(8)
C7 0.0605(12) 0.0390(10) 0.0445(11) -0.0003(8) 0.0148(9) -0.0021(8)
C8 0.0919(17) 0.0366(10) 0.0667(15) -0.0005(10) 0.0319(13) -0.0043(10)
C9 0.0528(11) 0.0358(10) 0.0478(12) -0.0040(8) 0.0086(9) -0.0081(8)
C10 0.0554(11) 0.0392(11) 0.0359(10) -0.0010(8) 0.0051(9) 0.0009(8)
C11 0.215(4) 0.0464(15) 0.139(3) -0.0129(16) 0.134(3) -0.0214(19)
C12 0.142(3) 0.0455(13) 0.098(2) -0.0066(13) 0.079(2) -0.0093(15)
C13 0.109(2) 0.0383(11) 0.0849(18) -0.0052(11) 0.0565(16) -0.0087(12)
C14 0.0931(18) 0.0444(12) 0.0681(15) -0.0073(11) 0.0436(14) -0.0088(11)
C15 0.0608(12) 0.0400(10) 0.0489(12) -0.0023(9) 0.0167(10) -0.0002(9)
C16 0.0511(11) 0.0432(10) 0.0485(11) 0.0006(9) 0.0093(9) -0.0018(8)
C17 0.0580(12) 0.0367(10) 0.0515(12) -0.0030(9) 0.0144(10) 0.0021(8)
C18 0.0874(17) 0.0457(12) 0.0685(15) -0.0026(11) 0.0446(14) -0.0053(11)
C19 0.0554(11) 0.0487(12) 0.0362(10) -0.0026(9) 0.0079(9) -0.0016(9)
C20 0.0429(10) 0.0435(11) 0.0485(11) 0.0019(9) 0.0084(9) 0.0056(8)
C21 0.215(4) 0.0422(13) 0.127(3) -0.0057(15) 0.123(3) -0.0020(18)
C22 0.152(3) 0.0373(12) 0.093(2) -0.0024(12) 0.077(2) 0.0029(14)
C23 0.116(2) 0.0441(12) 0.0669(15) 0.0000(11) 0.0520(15) 0.0042(12)
C24 0.1028(19) 0.0390(11) 0.0637(15) 0.0007(10) 0.0387(14) 0.0064(11)
C25 0.0622(12) 0.0390(10) 0.0494(12) 0.0007(9) 0.0153(10) 0.0060(9)
C26 0.0527(11) 0.0424(10) 0.0452(11) -0.0006(9) 0.0121(9) 0.0039(8)
C27 0.0585(11) 0.0380(10) 0.0487(11) 0.0016(9) 0.0145(9) 0.0049(8)
C28 0.0932(17) 0.0373(10) 0.0686(15) -0.0036(10) 0.0392(14) 0.0054(11)
C29 0.0488(10) 0.0386(10) 0.0478(11) 0.0003(9) 0.0076(9) 0.0096(8)
C30 0.0465(10) 0.0365(10) 0.0465(11) -0.0037(8) 0.0081(9) -0.0036(8)
N1 0.177(3) 0.0374(11) 0.118(2) -0.0089(12) 0.105(2) -0.0114(13)
N2 0.327(6) 0.0411(13) 0.281(5) -0.030(2) 0.257(5) -0.024(2)
N3 0.410(8) 0.0596(18) 0.331(6) -0.043(3) 0.310(6) -0.053(3)
N4 0.189(3) 0.0414(11) 0.128(2) -0.0168(12) 0.119(2) -0.0188(14)
N5 0.502(9) 0.0554(17) 0.346(6) -0.064(3) 0.372(7) -0.083(3)
N6 0.499(9) 0.0641(19) 0.317(6) -0.064(3) 0.348(7) -0.091(3)
N7 0.199(3) 0.0399(11) 0.0987(18) 0.0007(11) 0.104(2) 0.0040(14)
N8 0.593(10) 0.0446(15) 0.264(5) -0.004(2) 0.353(7) -0.001(3)
N9 0.548(10) 0.0538(16) 0.249(5) -0.005(2) 0.326(6) -0.005(3)
O1 0.0683(9) 0.0385(7) 0.0528(8) 0.0021(6) 0.0201(7) -0.0032(6)
O2 0.0731(9) 0.0372(7) 0.0520(8) -0.0026(6) 0.0198(7) -0.0021(6)
O3 0.0691(9) 0.0398(7) 0.0458(8) -0.0009(6) 0.0195(7) 0.0021(6)
O4 0.0677(9) 0.0405(7) 0.0474(8) 0.0040(6) 0.0181(7) 0.0049(6)
O5 0.0665(9) 0.0430(7) 0.0525(8) 0.0000(6) 0.0246(7) 0.0022(6)
O6 0.0689(9) 0.0395(7) 0.0527(8) 0.0027(6) 0.0239(7) -0.0011(6)
O7 0.0593(8) 0.0384(7) 0.0563(8) 0.0008(6) 0.0186(7) 0.0039(6)
O8 0.0616(8) 0.0412(7) 0.0537(8) -0.0014(6) 0.0204(7) 0.0034(6)
O9 0.0746(9) 0.0376(7) 0.0517(8) 0.0017(6) 0.0200(7) 0.0092(6)
O10 0.0694(9) 0.0397(7) 0.0514(8) -0.0002(6) 0.0243(7) 0.0074(6)
O11 0.0622(8) 0.0392(7) 0.0571(9) 0.0031(6) 0.0183(7) 0.0025(6)
O12 0.0600(8) 0.0385(7) 0.0552(8) -0.0012(6) 0.0192(7) 0.0012(6)
O13 0.1063(16) 0.1029(15) 0.0827(13) -0.0344(12) 0.0432(12) 0.0157(12)
O14 0.122(2) 0.160(2) 0.0689(12) -0.0247(15) 0.0319(13) 0.0653(17)
O15 0.114(2) 0.0318(12) 0.204(4) 0.000 0.000 0.0131(13)
O16 0.124(2) 0.0310(11) 0.130(3) 0.000 0.000 0.0126(12)
C31 0.185(4) 0.0403(13) 0.131(3) -0.0072(15) 0.113(3) -0.0076(17)
C32 0.208(4) 0.0430(14) 0.129(3) -0.0070(15) 0.123(3) -0.0102(18)
C33 0.193(4) 0.0423(14) 0.125(3) -0.0083(15) 0.114(3) -0.0156(18)
C34 0.222(5) 0.0388(13) 0.123(3) -0.0088(15) 0.119(3) -0.0122(19)
C35 0.219(4) 0.0438(14) 0.121(3) -0.0086(15) 0.124(3) -0.0053(19)
C36 0.216(4) 0.0381(13) 0.129(3) -0.0030(15) 0.131(3) -0.0081(18)
N10 0.21(4) 0.037(10) 0.12(3) 0.012(14) 0.05(3) 0.005(17)
Cu1A 0.03346 0.03386 0.03617 0.00789 0.00805 0.00368
Cu2A 0.03323 0.03393 0.03642 0.00789 0.00861 0.00386
C1A 0.0417 0.216 0.141 0.138 0.0107 0.0113
C2A 0.0406 0.159 0.099 0.086 0.0016 -0.0011
C3A 0.0414 0.1011 0.0817 0.05 0.006 0.0029
C4A 0.0398 0.0938 0.0637 0.0391 0.0049 0.0078
C5A 0.0376 0.0605 0.0475 0.0143 0.003 0.0046
C6A 0.0378 0.0521 0.0468 0.0062 0.0031 0.0022
C7A 0.039 0.0605 0.0445 0.0148 0.0003 0.0021
C8A 0.0366 0.0919 0.0667 0.0319 0.0005 0.0043
C9A 0.0358 0.0528 0.0478 0.0086 0.004 0.0081
C10A 0.0392 0.0554 0.0359 0.0051 0.001 -0.0009
C11A 0.0464 0.215 0.139 0.134 0.0129 0.0214
C12A 0.0455 0.142 0.098 0.079 0.0066 0.0093
C13A 0.0383 0.109 0.0849 0.0565 0.0052 0.0087
C14A 0.0444 0.0931 0.0681 0.0436 0.0073 0.0088
C15A 0.04 0.0608 0.0489 0.0167 0.0023 0.0002
C16A 0.0432 0.0511 0.0485 0.0093 -0.0006 0.0018
C17A 0.0367 0.058 0.0515 0.0144 0.003 -0.0021
C18A 0.0457 0.0874 0.0685 0.0446 0.0026 0.0053
C19A 0.0487 0.0554 0.0362 0.0079 0.0026 0.0016
C20A 0.0435 0.0429 0.0485 0.0084 -0.0019 -0.0056
C21A 0.0422 0.215 0.127 0.123 0.0057 0.002
C22A 0.0373 0.152 0.093 0.077 0.0024 -0.0029
C23A 0.0441 0.116 0.0669 0.052 0 -0.0042
C24A 0.039 0.1028 0.0637 0.0387 -0.0007 -0.0064
C25A 0.039 0.0622 0.0494 0.0153 -0.0007 -0.006
C26A 0.0424 0.0527 0.0452 0.0121 0.0006 -0.0039
C27A 0.038 0.0585 0.0487 0.0145 -0.0016 -0.0049
C28A 0.0373 0.0932 0.0686 0.0392 0.0036 -0.0054
C29A 0.0386 0.0488 0.0478 0.0076 -0.0003 -0.0096
C30A 0.0365 0.0465 0.0465 0.0081 0.0037 0.0036
N1A 0.0374 0.177 0.118 0.105 0.0089 0.0114
N2A 0.0411 0.327 0.281 0.257 0.03 0.024
N3A 0.0596 0.41 0.331 0.31 0.043 0.053
N4A 0.0414 0.189 0.128 0.119 0.0168 0.0188
N5A 0.0554 0.502 0.346 0.372 0.064 0.083
N6A 0.0641 0.499 0.317 0.348 0.064 0.091
N7A 0.0399 0.199 0.0987 0.104 -0.0007 -0.004
N8A 0.0446 0.593 0.264 0.353 0.004 0.001
N9A 0.0538 0.548 0.249 0.326 0.005 0.005
O1A 0.0385 0.0683 0.0528 0.0201 -0.0021 0.0032
O2A 0.0372 0.0731 0.052 0.0198 0.0026 0.0021
O3A 0.0398 0.0691 0.0458 0.0195 0.0009 -0.0021
O4A 0.0405 0.0677 0.0474 0.0181 -0.004 -0.0049
O5A 0.043 0.0665 0.0525 0.0246 0 -0.0022
O6A 0.0395 0.0689 0.0527 0.0239 -0.0027 0.0011
O7A 0.0384 0.0593 0.0563 0.0186 -0.0008 -0.0039
O8A 0.0412 0.0616 0.0537 0.0204 0.0014 -0.0034
O9A 0.0376 0.0746 0.0517 0.02 -0.0017 -0.0092
O10A 0.0397 0.0694 0.0514 0.0243 0.0002 -0.0074
O11A 0.0392 0.0622 0.0571 0.0183 -0.0031 -0.0025
O12A 0.0385 0.06 0.0552 0.0192 0.0012 -0.0012
O13A 0.1029 0.1063 0.0827 0.0432 0.0344 -0.0157
O14A 0.16 0.122 0.0689 0.0319 0.0247 -0.0653
C31A 0.0403 0.185 0.131 0.113 0.0072 0.0076
C32A 0.043 0.208 0.129 0.123 0.007 0.0102
C33A 0.0423 0.193 0.125 0.114 0.0083 0.0156
C34A 0.0388 0.222 0.123 0.119 0.0088 0.0122
C35A 0.0438 0.219 0.121 0.124 0.0086 0.0053
C36A 0.0381 0.216 0.129 0.131 0.003 0.0081
N10A 0.037 0.21 0.12 0.05 -0.012 -0.005
Cu1B 0.03386 0.03346 0.03617 0.00805 -0.00789 -0.00368
Cu1L 0.03386 0.03346 0.03617 -0.00805 0.00789 -0.00368
Cu1M 0.03346 0.03386 0.03617 0.00789 0.00805 0.00368
Cu1N 0.03386 0.03346 0.03617 0.00805 -0.00789 -0.00368
Cu2B 0.03393 0.03323 0.03642 0.00861 -0.00789 -0.00386
Cu2L 0.03393 0.03323 0.03642 -0.00861 0.00789 -0.00386
Cu2M 0.03323 0.03393 0.03642 0.00789 0.00861 0.00386
Cu2N 0.03393 0.03323 0.03642 0.00861 -0.00789 -0.00386
Cu3A 0.02577 0.0474 0.02946 0 0 -0.00176
Cu3B 0.0474 0.02577 0.02946 0 0 0.00176
Cu3C 0.02577 0.0474 0.02946 0 0 -0.00176
Cu4A 0.0258 0.046 0.02982 0 0 -0.00212
Cu4B 0.046 0.0258 0.02982 0 0 0.00212
Cu4C 0.0258 0.046 0.02982 0 0 -0.00212
O3J 0.0691 0.0398 0.0458 0.0009 -0.0195 0.0021
O4J 0.0677 0.0405 0.0474 -0.004 -0.0181 0.0049
O5B 0.0665 0.043 0.0525 0 -0.0246 0.0022
O5H 0.0665 0.043 0.0525 0 0.0246 0.0022
O6B 0.0689 0.0395 0.0527 -0.0027 -0.0239 -0.0011
O6H 0.0689 0.0395 0.0527 0.0027 0.0239 -0.0011
O7C 0.0384 0.0593 0.0563 -0.0186 0.0008 -0.0039
O8C 0.0412 0.0616 0.0537 -0.0204 -0.0014 -0.0034
O9L 0.0746 0.0376 0.0517 0.0017 0.02 0.0092
O9O 0.0376 0.0746 0.0517 -0.02 0.0017 -0.0092
O10L 0.0694 0.0397 0.0514 -0.0002 0.0243 0.0074
O10O 0.0397 0.0694 0.0514 -0.0243 -0.0002 -0.0074
O11L 0.0622 0.0392 0.0571 0.0031 0.0183 0.0025
O11M 0.0392 0.0622 0.0571 0.0183 -0.0031 -0.0025
O12L 0.06 0.0385 0.0552 -0.0012 0.0192 0.0012
O12M 0.0385 0.06 0.0552 0.0192 0.0012 -0.0012
loop_
_geom_bond_atom_site_label_1
_geom_bond_atom_site_label_2
_geom_bond_site_symmetry_1
_geom_bond_site_symmetry_2
Cu1 O1 1_555 1_555
Cu2 O2 1_555 1_555
Cu3 O3 1_555 1_555
Cu4 O4 1_555 1_555
C1 C2 1_555 1_555
C2 H1 1_555 1_555
C3 C4 1_555 1_555
C4 H2 1_555 1_555
C5 C4 1_555 1_555
C6 C5 1_555 1_555
H3 C6 1_555 1_555
C7 C6 1_555 1_555
C8 C3 1_555 1_555
H4 C8 1_555 1_555
C9 C5 1_555 1_555
C10 C7 1_555 1_555
C11 C12 1_555 1_555
C12 H5 1_555 1_555
C13 C14 1_555 1_555
C14 H6 1_555 1_555
C15 C14 1_555 1_555
C16 C15 1_555 1_555
H7 C16 1_555 1_555
C17 C16 1_555 1_555
C18 C13 1_555 1_555
H8 C18 1_555 1_555
C19 C15 1_555 1_555
C20 C17 1_555 1_555
C21 C22 1_555 1_555
C22 H9 1_555 1_555
C23 C24 1_555 1_555
C24 H10 1_555 1_555
C25 C24 1_555 1_555
C26 C25 1_555 1_555
H11 C26 1_555 1_555
C27 C26 1_555 1_555
C28 C23 1_555 1_555
H12 C28 1_555 1_555
C29 C25 1_555 1_555
C30 C27 1_555 1_555
N1 C2 1_555 1_555
N2 N1 1_555 1_555
N3 C1 1_555 1_555
N4 C12 1_555 1_555
N5 N4 1_555 1_555
N6 C11 1_555 1_555
N7 C22 1_555 1_555
N8 N7 1_555 1_555
N9 C21 1_555 1_555
O1 C9 1_555 1_555
O2 C9 1_555 1_555
O3 C10 1_555 1_555
O4 C10 1_555 1_555
O5 C19 1_555 1_555
O6 C19 1_555 1_555
O7 C20 1_555 1_555
O8 C20 1_555 1_555
O9 C29 1_555 1_555
O10 C29 1_555 1_555
O11 C30 1_555 1_555
O12 C30 1_555 1_555
O13 Cu1 1_555 1_555
H13 O13 1_555 1_555
O14 Cu2 1_555 1_555
H14 O14 1_555 1_555
O15 Cu3 1_555 1_555
H15 O15 1_555 1_555
O16 Cu4 1_555 1_555
H16 O16 1_555 1_555
C31 C1 1_555 1_555
C32 C31 1_555 1_555
C33 C11 1_555 1_555
C34 C33 1_555 1_555
C35 C21 1_555 1_555
C36 C31 1_555 1_555
N10 C32 1_555 1_555
H17 N10 1_555 1_555
H18 N10 1_555 1_555
H15J O15 1_555 1_555
H16J O16 1_555 1_555
Cu1A O8 1_555 1_555
Cu2A O7 1_555 1_555
C1A C2A 1_555 1_555
C2A H1A 1_555 1_555
C3A C4A 1_555 1_555
C4A H2A 1_555 1_555
C5A C4A 1_555 1_555
C6A C5A 1_555 1_555
H3A C6A 1_555 1_555
C7A C6A 1_555 1_555
C8A C3A 1_555 1_555
H4A C8A 1_555 1_555
C9A C5A 1_555 1_555
C10A C7A 1_555 1_555
C11A C12A 1_555 1_555
C12A H5A 1_555 1_555
C13A C14A 1_555 1_555
C14A H6A 1_555 1_555
C15A C14A 1_555 1_555
C16A C15A 1_555 1_555
H7A C16A 1_555 1_555
C17A C16A 1_555 1_555
C18A C13A 1_555 1_555
H8A C18A 1_555 1_555
C19A C15A 1_555 1_555
C20A C17A 1_555 1_555
C21A C22A 1_555 1_555
C22A H9A 1_555 1_555
C23A C24A 1_555 1_555
C24A H10A 1_555 1_555
C25A C24A 1_555 1_555
C26A C25A 1_555 1_555
H11A C26A 1_555 1_555
C27A C26A 1_555 1_555
C28A C23A 1_555 1_555
H12A C28A 1_555 1_555
C29A C25A 1_555 1_555
C30A C27A 1_555 1_555
N1A C2A 1_555 1_555
N2A N1A 1_555 1_555
N3A C1A 1_555 1_555
N4A C12A 1_555 1_555
N5A N4A 1_555 1_555
N6A C11A 1_555 1_555
N7A C22A 1_555 1_555
N8A N7A 1_555 1_555
N9A C21A 1_555 1_555
O1A Cu1A 1_555 1_555
O2A Cu2A 1_555 1_555
O3A C10A 1_555 1_555
O4A C10A 1_555 1_555
O5A C19A 1_555 1_555
O6A C19A 1_555 1_555
O7A C20A 1_555 1_555
O8A C20A 1_555 1_555
O9A C29A 1_555 1_555
O10A C29A 1_555 1_555
O11A C30A 1_555 1_555
O12A C30A 1_555 1_555
O13A Cu1A 1_555 1_555
H13A O13A 1_555 1_555
O14A Cu2A 1_555 1_555
H14A O14A 1_555 1_555
C31A C1A 1_555 1_555
C32A C31A 1_555 1_555
C33A C11A 1_555 1_555
C34A C33A 1_555 1_555
C35A C21A 1_555 1_555
C36A C31A 1_555 1_555
N10A C32A 1_555 1_555
H17A N10A 1_555 1_555
H18A N10A 1_555 1_555
Cu1B O8A 1_555 1_555
Cu1L O12 1_555 1_555
Cu1M O9 1_555 1_555
Cu1N O9A 1_555 1_555
Cu2B O7A 1_555 1_555
Cu2L O11 1_555 1_555
Cu2M O10 1_555 1_555
Cu2N O10A 1_555 1_555
Cu3A O3A 1_555 1_555
Cu3B O6 1_555 1_555
Cu3C O6A 1_555 1_555
Cu4A O4A 1_555 1_555
Cu4B O5 1_555 1_555
Cu4C O5A 1_555 1_555
O3J Cu3 1_555 1_555
O4J Cu4 1_555 1_555
O5B Cu4 1_555 1_555
O5H Cu4 1_555 1_555
O6B Cu3 1_555 1_555
O6H Cu3 1_555 1_555
O7C Cu2 1_555 1_555
O8C Cu1 1_555 1_555
O9L Cu1A 1_555 1_555
O9O Cu1 1_555 1_555
O10L Cu2A 1_555 1_555
O10O Cu2 1_555 1_555
O11L Cu2 1_555 1_555
O11M Cu2A 1_555 1_555
O12L Cu1 1_555 1_555
O12M Cu1A 1_555 1_555
C3 N1 1_555 1_555
C7 C8 1_555 1_555
C13 N4 1_555 1_555
C17 C18 1_555 1_555
C23 N7 1_555 1_555
C27 C28 1_555 1_555
N2 N3 1_555 1_555
N5 N6 1_555 1_555
N8 N9 1_555 1_555
C32 C33 1_555 1_555
C34 C35 1_555 1_555
C35 C36 1_555 1_555
C3A N1A 1_555 1_555
C7A C8A 1_555 1_555
C9A O1A 1_555 1_555
C9A O2A 1_555 1_555
C13A N4A 1_555 1_555
C17A C18A 1_555 1_555
C23A N7A 1_555 1_555
C27A C28A 1_555 1_555
N2A N3A 1_555 1_555
N5A N6A 1_555 1_555
N8A N9A 1_555 1_555
O11A Cu2M 1_555 1_555
O12A Cu1M 1_555 1_555
C32A C33A 1_555 1_555
C34A C35A 1_555 1_555
C35A C36A 1_555 1_555

#END
