
#######################################################################
#
#                 Cambridge Crystallographic Data Centre
#                                CCDC 
#
#######################################################################
#
# If this CIF has been generated from an entry in the Cambridge 
# Structural Database, then it will include bibliographic, chemical, 
# crystal, experimental, refinement or atomic coordinate data resulting 
# from the CCDC's data processing and validation procedures.
#
#######################################################################

data_ILOSOS
_chemical_formula_moiety         '(C36 H64 Cu4 N32 O44 S8 Si1 W12 4+)n'
_symmetry_cell_setting           monoclinic
_symmetry_space_group_name_H-M   'P 21/c'
_symmetry_Int_Tables_number      14
_space_group_name_Hall           '-P 2ybc'
loop_
_symmetry_equiv_pos_site_id
_symmetry_equiv_pos_as_xyz
1 x,y,z
2 -x,1/2+y,1/2-z
3 -x,-y,-z
4 x,1/2-y,1/2+z
_cell_length_a                   13.294(2)
_cell_length_b                   25.171(4)
_cell_length_c                   13.626(2)
_cell_angle_alpha                90
_cell_angle_beta                 104.600(2)
_cell_angle_gamma                90
_cell_volume                     4412.34
loop_
_atom_site_label
_atom_site_type_symbol
_atom_site_fract_x
_atom_site_fract_y
_atom_site_fract_z
Si1 Si -1.0000 -0.0000 -0.5000
W1 W -0.82051(5) 0.09214(3) -0.55331(5)
W2 W -1.01848(5) 0.13585(2) -0.44074(4)
W3 W -1.18944(5) -0.05772(3) -0.70046(4)
W4 W -1.20146(5) 0.04387(3) -0.39367(5)
W5 W -1.20354(4) 0.07870(2) -0.64532(4)
W6 W -1.00583(5) 0.03144(3) -0.75388(4)
O1 O -0.7327(8) 0.1361(4) -0.5747(8)
O2 O -1.0269(10) 0.1992(4) -0.4100(8)
O3 O -1.2785(8) -0.0845(5) -0.7941(8)
O4 O -1.2965(8) 0.0655(5) -0.3414(7)
O5 O -1.3000(8) 0.1159(5) -0.7133(9)
O6 O -1.0087(9) 0.0464(5) -0.8726(7)
O7 O -1.0736(12) 0.0103(7) -0.6075(12)
O8 O -0.9336(13) 0.0531(8) -0.4590(12)
O9 O -1.0701(12) -0.0152(8) -0.4209(12)
O10 O -0.9197(14) -0.0476(7) -0.4995(12)
O11 O -0.7543(11) 0.0261(5) -0.5710(11)
O12 O -1.1123(10) 0.0763(5) -0.7302(11)
O13 O -0.7656(10) 0.0792(6) -0.4131(9)
O14 O -0.9118(9) 0.1128(6) -0.3302(8)
O15 O -1.1013(9) -0.0243(5) -0.7727(11)
O16 O -0.9102(10) 0.0828(5) -0.6832(11)
O17 O -1.2531(9) 0.0099(5) -0.6948(10)
O18 O -1.2542(10) 0.0622(6) -0.5306(8)
O19 O -1.1189(9) 0.1309(6) -0.5670(7)
O20 O -1.1046(11) 0.0174(5) -0.2785(11)
O21 O -0.9160(10) 0.1378(7) -0.5160(9)
O22 O -1.1158(10) 0.1050(6) -0.3799(8)
W1B W -1.17949(5) -0.09214(3) -0.44669(5)
W2B W -0.98152(5) -0.13585(2) -0.55926(4)
W3B W -0.81056(5) 0.05772(3) -0.29954(4)
W4B W -0.79854(5) -0.04387(3) -0.60633(5)
W5B W -0.79646(4) -0.07870(2) -0.35468(4)
W6B W -0.99417(5) -0.03144(3) -0.24612(4)
O1B O -1.2673(8) -0.1361(4) -0.4253(8)
O2B O -0.9731(10) -0.1992(4) -0.5900(8)
O3B O -0.7215(8) 0.0845(5) -0.2059(8)
O4B O -0.7035(8) -0.0655(5) -0.6586(7)
O5B O -0.7000(8) -0.1159(5) -0.2867(9)
O6B O -0.9913(9) -0.0464(5) -0.1274(7)
O7B O -0.9264(12) -0.0103(7) -0.3925(12)
O8B O -1.0664(13) -0.0531(8) -0.5410(12)
O9B O -0.9299(12) 0.0152(8) -0.5791(12)
O10B O -1.0803(14) 0.0476(7) -0.5005(12)
O11B O -1.2457(11) -0.0261(5) -0.4290(11)
O12B O -0.8877(10) -0.0763(5) -0.2698(11)
O13B O -1.2344(10) -0.0792(6) -0.5869(9)
O14B O -1.0882(9) -0.1128(6) -0.6698(8)
O15B O -0.8987(9) 0.0243(5) -0.2273(11)
O16B O -1.0898(10) -0.0828(5) -0.3168(11)
O17B O -0.7469(9) -0.0099(5) -0.3052(10)
O18B O -0.7458(10) -0.0622(6) -0.4694(8)
O19B O -0.8811(9) -0.1309(6) -0.4330(7)
O20B O -0.8954(11) -0.0174(5) -0.7215(11)
O21B O -1.0840(10) -0.1378(7) -0.4840(9)
O22B O -0.8842(10) -0.1050(6) -0.6201(8)
Cu1 Cu -0.45825(15) 0.24566(8) -0.28299(12)
Cu2 Cu -0.43059(16) 0.20819(8) -0.02304(13)
S1 S -0.5391(3) 0.38839(17) -0.2892(3)
S2 S -0.5383(4) 0.56345(18) -0.4685(3)
S3 S -0.1924(5) 0.2402(2) -0.1302(3)
S4 S 0.1347(4) 0.2360(3) -0.0575(6)
N1 N -0.4767(10) 0.2993(5) -0.1769(8)
N2 N -0.4446(10) 0.2859(5) -0.0773(8)
N3 N -0.4505(10) 0.3275(5) -0.0204(9)
N4 N -0.4894(9) 0.3672(5) -0.0867(8)
N5 N -0.5448(9) 0.6555(5) -0.3635(8)
N6 N -0.5280(9) 0.6706(5) -0.2651(8)
N7 N -0.5046(9) 0.6299(5) -0.2064(8)
N8 N -0.5050(8) 0.5877(4) -0.2673(8)
N9 N -0.3251(10) 0.2653(5) -0.3149(8)
N10 N -0.3144(10) 0.2908(5) -0.3994(8)
N11 N -0.2213(10) 0.3069(5) -0.3915(9)
N12 N -0.1675(9) 0.2910(5) -0.2984(9)
N13 N 0.3357(10) 0.2110(6) -0.0507(10)
N14 N 0.4288(10) 0.2168(5) 0.0145(9)
N15 N 0.4189(9) 0.2437(5) 0.0942(8)
N16 N 0.3164(10) 0.2522(5) 0.0804(9)
C1 C -0.5022(11) 0.3495(6) -0.1810(10)
C2 C -0.6787(13) 0.3860(8) -0.3130(13)
H1 H -0.6976 0.3734 -0.2528
H2 H -0.7064 0.3612 -0.3676
C3 C -0.7247(13) 0.4393(8) -0.3407(14)
H3 H -0.7998 0.4357 -0.3600
H4 H -0.7069 0.4618 -0.2809
C4 C -0.6907(14) 0.4681(7) -0.4279(13)
H5 H -0.6154 0.4685 -0.4124
H6 H -0.7158 0.4480 -0.4900
C5 C -0.7312(13) 0.5262(7) -0.4461(14)
H7 H -0.7182 0.5447 -0.3817
H8 H -0.8056 0.5258 -0.4754
C6 C -0.6792(17) 0.5554(7) -0.5155(12)
H9 H -0.6932 0.5366 -0.5796
H10 H -0.7105 0.5903 -0.5285
C7 C -0.5322(11) 0.6036(6) -0.3641(10)
C8 C -0.5044(12) 0.4188(7) -0.0470(11)
H11 H -0.5621 0.4362 -0.0923
H12 H -0.5183 0.4149 0.0184
H13 H -0.4427 0.4398 -0.0407
C9 C -0.4827(12) 0.5357(6) -0.2243(11)
H14 H -0.4629 0.5128 -0.2725
H15 H -0.4269 0.5379 -0.1640
H16 H -0.5435 0.5217 -0.2076
C10 C -0.2307(13) 0.2658(6) -0.2530(11)
C11 C -0.2087(18) 0.1685(9) -0.159(2)
H17 H -0.2502 0.1529 -0.1175
H18 H -0.2469 0.1643 -0.2296
C12 C -0.1214(17) 0.1423(10) -0.145(2)
H19 H -0.0890 0.1527 -0.1979
H20 H -0.1392 0.1050 -0.1552
C13 C -0.0388(16) 0.1462(9) -0.0455(14)
H21 H -0.0550 0.1218 0.0034
H22 H -0.0380 0.1819 -0.0186
C14 C 0.0764(19) 0.1319(11) -0.0630(19)
H23 H 0.1258 0.1285 0.0026
H24 H 0.0726 0.0978 -0.0972
C15 C 0.1130(19) 0.1710(11) -0.1213(18)
H25 H 0.0627 0.1750 -0.1862
H26 H 0.1777 0.1588 -0.1342
C16 C 0.2681(13) 0.2320(7) -0.0092(14)
C17 C -0.0532(11) 0.3018(7) -0.2646(12)
H27 H -0.0296 0.2964 -0.1928
H28 H -0.0398 0.3378 -0.2806
H29 H -0.0169 0.2781 -0.2990
C18 C 0.2771(14) 0.2815(8) 0.1543(12)
H30 H 0.2112 0.2671 0.1576
H31 H 0.3254 0.2787 0.2196
H32 H 0.2687 0.3182 0.1346
Cu1A Cu -0.54175(15) -0.25434(8) -0.21701(12)
Cu1A_2 Cu -0.54175(15) 0.74566(8) -0.21701(12)
Cu1C Cu 0.54175(15) 0.25434(8) 0.21701(12)
Cu1C_2 Cu -1.45825(15) 0.25434(8) -0.78299(12)
Cu2A Cu -0.56941(16) -0.29181(8) -0.47696(13)
Cu2A_2 Cu -0.56941(16) 0.70819(8) -0.47696(13)
Cu2C Cu -0.43059(16) 0.29181(8) -0.52304(13)
Cu2_2 Cu 0.56941(16) 0.20819(8) -0.02304(13)
Cu2_3 Cu -1.43059(16) 0.20819(8) -1.02304(13)
S1A S -0.4609(3) -0.11161(17) -0.2108(3)
S2A S -0.4617(4) 0.06345(18) -0.0315(3)
S3C S -1.1924(5) 0.2598(2) -0.6302(3)
S4C S -0.8653(4) 0.2640(3) -0.5575(6)
N1A N -0.5233(10) -0.2007(5) -0.3231(8)
N2A N -0.5554(10) -0.2141(5) -0.4227(8)
N3A N -0.5495(10) -0.1725(5) -0.4796(9)
N4A N -0.5106(9) -0.1328(5) -0.4133(8)
N5A N -0.4552(9) 0.1555(5) -0.1365(8)
N5_2 N -0.5448(9) -0.3445(5) -0.3635(8)
N6A N -0.4720(9) 0.1706(5) -0.2349(8)
N6_2 N -0.5280(9) -0.3294(5) -0.2651(8)
N7A N -0.4954(9) 0.1299(5) -0.2936(8)
N8A N -0.4950(8) 0.0877(4) -0.2327(8)
N9C N -1.3251(10) 0.2347(5) -0.8149(8)
N9A N -0.6749(10) -0.2347(5) -0.1851(8)
N10C N -1.3144(10) 0.2092(5) -0.8994(8)
N10C_2 N -0.3144(10) 0.2092(5) 0.1006(8)
N10B N -0.6856(10) -0.2908(5) -0.6006(8)
N11C N -1.2213(10) 0.1931(5) -0.8915(9)
N12C N -1.1675(9) 0.2090(5) -0.7984(9)
N13C N -0.6643(10) 0.2890(6) -0.5507(10)
N14C N -0.5712(10) 0.2832(5) -0.4855(9)
N14_2 N -0.5712(10) 0.2168(5) 0.0145(9)
N14A N -0.4288(10) -0.2832(5) -0.5145(9)
N15C N -0.5811(9) 0.2563(5) -0.4058(8)
N15B N -0.4189(9) -0.2437(5) -0.0942(8)
N16C N -0.6836(10) 0.2478(5) -0.4196(9)
C1A C -0.4978(11) -0.1505(6) -0.3190(10)
C2A C -0.3213(13) -0.1140(8) -0.1870(13)
H1A H -0.3024 -0.1266 -0.2472
H2A H -0.2936 -0.1388 -0.1324
C3A C -0.2753(13) -0.0607(8) -0.1593(14)
H3A H -0.2002 -0.0643 -0.1400
H4A H -0.2931 -0.0382 -0.2191
C4A C -0.3093(14) -0.0319(7) -0.0721(13)
H5A H -0.3846 -0.0315 -0.0876
H6A H -0.2842 -0.0520 -0.0100
C5A C -0.2688(13) 0.0262(7) -0.0539(14)
H7A H -0.2818 0.0447 -0.1183
H8A H -0.1944 0.0258 -0.0246
C6A C -0.3208(17) 0.0554(7) 0.0155(12)
H9A H -0.3068 0.0366 0.0796
H10A H -0.2895 0.0903 0.0285
C7A C -0.4678(11) 0.1036(6) -0.1359(10)
C8A C -0.4956(12) -0.0812(7) -0.4530(11)
H11A H -0.4379 -0.0638 -0.4077
H12A H -0.4817 -0.0851 -0.5184
H13A H -0.5573 -0.0602 -0.4593
C9A C -0.5173(12) 0.0357(6) -0.2757(11)
H14A H -0.5371 0.0128 -0.2275
H15A H -0.5731 0.0379 -0.3360
H16A H -0.4565 0.0217 -0.2924
C10C C -1.2307(13) 0.2342(6) -0.7530(11)
C11C C -1.2087(18) 0.3315(9) -0.659(2)
H17C H -1.2502 0.3471 -0.6175
H18C H -1.2469 0.3357 -0.7296
C12C C -1.1214(17) 0.3577(10) -0.645(2)
H19C H -1.0890 0.3473 -0.6979
H20C H -1.1392 0.3950 -0.6552
C13C C -1.0388(16) 0.3538(9) -0.5455(14)
H21C H -1.0550 0.3782 -0.4966
H22C H -1.0380 0.3181 -0.5186
C14C C -0.9236(19) 0.3681(11) -0.5630(19)
H23C H -0.8742 0.3715 -0.4974
H24C H -0.9274 0.4022 -0.5972
C15C C -0.8870(19) 0.3290(11) -0.6213(18)
H25C H -0.9373 0.3250 -0.6862
H26C H -0.8223 0.3412 -0.6342
C16C C -0.7319(13) 0.2680(7) -0.5092(14)
C17C C -1.0532(11) 0.1982(7) -0.7646(12)
H27C H -1.0296 0.2036 -0.6928
H28C H -1.0398 0.1622 -0.7806
H29C H -1.0169 0.2219 -0.7990
C18C C -0.7229(14) 0.2185(8) -0.3457(12)
H30C H -0.7888 0.2329 -0.3424
H31C H -0.6746 0.2213 -0.2804
H32C H -0.7313 0.1818 -0.3654
loop_
_geom_bond_atom_site_label_1
_geom_bond_atom_site_label_2
_geom_bond_site_symmetry_1
_geom_bond_site_symmetry_2
Cu1 N1 1_555 1_555
Cu2 N2 1_555 1_555
Si1 O7 1_555 1_555
W1 O1 1_555 1_555
W2 O2 1_555 1_555
W3 O3 1_555 1_555
W4 O4 1_555 1_555
W5 O5 1_555 1_555
W6 O6 1_555 1_555
S1 C1 1_555 1_555
S2 C6 1_555 1_555
S3 C10 1_555 1_555
S4 C15 1_555 1_555
O7 W3 1_555 1_555
O8 Si1 1_555 1_555
O9 Si1 1_555 1_555
O10 Si1 1_555 1_555
O11 W1 1_555 1_555
O12 W5 1_555 1_555
O13 W1 1_555 1_555
O14 W2 1_555 1_555
O15 W3 1_555 1_555
O16 W1 1_555 1_555
O17 W3 1_555 1_555
O18 W4 1_555 1_555
O19 W2 1_555 1_555
O20 W4 1_555 1_555
O21 W1 1_555 1_555
O22 W2 1_555 1_555
N1 N2 1_555 1_555
N2 N3 1_555 1_555
N3 N4 1_555 1_555
N4 C1 1_555 1_555
N5 N6 1_555 1_555
N6 N7 1_555 1_555
N7 N8 1_555 1_555
N8 C7 1_555 1_555
N9 Cu1 1_555 1_555
N10 N9 1_555 1_555
N11 N10 1_555 1_555
N12 N11 1_555 1_555
N13 N14 1_555 1_555
N14 N15 1_555 1_555
N15 N16 1_555 1_555
N16 C16 1_555 1_555
C1 N1 1_555 1_555
C2 S1 1_555 1_555
H1 C2 1_555 1_555
H2 C2 1_555 1_555
C3 C2 1_555 1_555
H3 C3 1_555 1_555
H4 C3 1_555 1_555
C4 C3 1_555 1_555
H5 C4 1_555 1_555
H6 C4 1_555 1_555
C5 C4 1_555 1_555
H7 C5 1_555 1_555
H8 C5 1_555 1_555
C6 C5 1_555 1_555
H9 C6 1_555 1_555
H10 C6 1_555 1_555
C7 S2 1_555 1_555
C8 N4 1_555 1_555
H11 C8 1_555 1_555
H12 C8 1_555 1_555
H13 C8 1_555 1_555
C9 N8 1_555 1_555
H14 C9 1_555 1_555
H15 C9 1_555 1_555
H16 C9 1_555 1_555
C10 N9 1_555 1_555
C11 S3 1_555 1_555
H17 C11 1_555 1_555
H18 C11 1_555 1_555
C12 C11 1_555 1_555
H19 C12 1_555 1_555
H20 C12 1_555 1_555
C13 C12 1_555 1_555
H21 C13 1_555 1_555
H22 C13 1_555 1_555
C14 C13 1_555 1_555
H23 C14 1_555 1_555
H24 C14 1_555 1_555
C15 C14 1_555 1_555
H25 C15 1_555 1_555
H26 C15 1_555 1_555
C16 S4 1_555 1_555
C17 N12 1_555 1_555
H27 C17 1_555 1_555
H28 C17 1_555 1_555
H29 C17 1_555 1_555
C18 N16 1_555 1_555
H30 C18 1_555 1_555
H31 C18 1_555 1_555
H32 C18 1_555 1_555
Cu1A N1A 1_555 1_555
Cu1A_2 N6 1_555 1_555
Cu1C N15 1_555 1_555
Cu1C_2 N9C 1_555 1_555
Cu2A N2A 1_555 1_555
Cu2A_2 N5 1_555 1_555
Cu2C N10 1_555 1_555
Cu2_2 N14 1_555 1_555
Cu2_3 N10C 1_555 1_555
W1B O9 1_555 1_555
W2B O10 1_555 1_555
W3B O8 1_555 1_555
W4B O10 1_555 1_555
W5B O10 1_555 1_555
W6B O9 1_555 1_555
S1A C1A 1_555 1_555
S2A C6A 1_555 1_555
S3C C10C 1_555 1_555
S4C C15C 1_555 1_555
O1B W1B 1_555 1_555
O2B W2B 1_555 1_555
O3B W3B 1_555 1_555
O4B W4B 1_555 1_555
O5B W5B 1_555 1_555
O6B W6B 1_555 1_555
O7B Si1 1_555 1_555
O8B Si1 1_555 1_555
O9B Si1 1_555 1_555
O10B Si1 1_555 1_555
O11B W4 1_555 1_555
O12B W5B 1_555 1_555
O13B W3 1_555 1_555
O14B W3 1_555 1_555
O15B W3B 1_555 1_555
O16B W1B 1_555 1_555
O17B W3B 1_555 1_555
O18B W4B 1_555 1_555
O19B W2B 1_555 1_555
O20B W6 1_555 1_555
O21B W1B 1_555 1_555
O22B W2B 1_555 1_555
N1A N2A 1_555 1_555
N2A N3A 1_555 1_555
N3A N4A 1_555 1_555
N4A C1A 1_555 1_555
N5A Cu2 1_555 1_555
N5_2 Cu2A 1_555 1_555
N6A Cu1 1_555 1_555
N6_2 Cu1A 1_555 1_555
N7A N6A 1_555 1_555
N8A N7A 1_555 1_555
N9C N10C 1_555 1_555
N9A Cu1A 1_555 1_555
N10C N11C 1_555 1_555
N10C_2 Cu2 1_555 1_555
N10B Cu2A 1_555 1_555
N11C N12C 1_555 1_555
N12C C10C 1_555 1_555
N13C N14C 1_555 1_555
N14C Cu2C 1_555 1_555
N14_2 Cu2 1_555 1_555
N14A Cu2A 1_555 1_555
N15C Cu1 1_555 1_555
N15B Cu1A 1_555 1_555
N16C N15C 1_555 1_555
C1A N1A 1_555 1_555
C2A S1A 1_555 1_555
H1A C2A 1_555 1_555
H2A C2A 1_555 1_555
C3A C2A 1_555 1_555
H3A C3A 1_555 1_555
H4A C3A 1_555 1_555
C4A C3A 1_555 1_555
H5A C4A 1_555 1_555
H6A C4A 1_555 1_555
C5A C4A 1_555 1_555
H7A C5A 1_555 1_555
H8A C5A 1_555 1_555
C6A C5A 1_555 1_555
H9A C6A 1_555 1_555
H10A C6A 1_555 1_555
C7A S2A 1_555 1_555
C8A N4A 1_555 1_555
H11A C8A 1_555 1_555
H12A C8A 1_555 1_555
H13A C8A 1_555 1_555
C9A N8A 1_555 1_555
H14A C9A 1_555 1_555
H15A C9A 1_555 1_555
H16A C9A 1_555 1_555
C10C N9C 1_555 1_555
C11C S3C 1_555 1_555
H17C C11C 1_555 1_555
H18C C11C 1_555 1_555
C12C C11C 1_555 1_555
H19C C12C 1_555 1_555
H20C C12C 1_555 1_555
C13C C12C 1_555 1_555
H21C C13C 1_555 1_555
H22C C13C 1_555 1_555
C14C C13C 1_555 1_555
H23C C14C 1_555 1_555
H24C C14C 1_555 1_555
C15C C14C 1_555 1_555
H25C C15C 1_555 1_555
H26C C15C 1_555 1_555
C16C S4C 1_555 1_555
C17C N12C 1_555 1_555
H27C C17C 1_555 1_555
H28C C17C 1_555 1_555
H29C C17C 1_555 1_555
C18C N16C 1_555 1_555
H30C C18C 1_555 1_555
H31C C18C 1_555 1_555
H32C C18C 1_555 1_555
W1 O8 1_555 1_555
W1 O9B 1_555 1_555
W2 O8 1_555 1_555
W2 O21 1_555 1_555
W2 O10B 1_555 1_555
W3 O8B 1_555 1_555
W4 O9 1_555 1_555
W4 O22 1_555 1_555
W4 O10B 1_555 1_555
W5 O7 1_555 1_555
W5 O17 1_555 1_555
W5 O18 1_555 1_555
W5 O19 1_555 1_555
W5 O10B 1_555 1_555
W6 O7 1_555 1_555
W6 O12 1_555 1_555
W6 O15 1_555 1_555
W6 O16 1_555 1_555
W6 O9B 1_555 1_555
O7 O10B 1_555 1_555
O10 O7B 1_555 1_555
O11 W4B 1_555 1_555
O13 W3B 1_555 1_555
O14 W3B 1_555 1_555
O20 W6B 1_555 1_555
N5 C7 1_555 1_555
N12 C10 1_555 1_555
N13 C16 1_555 1_555
W1B O8B 1_555 1_555
W1B O11B 1_555 1_555
W1B O13B 1_555 1_555
W2B O8B 1_555 1_555
W2B O14B 1_555 1_555
W2B O21B 1_555 1_555
W3B O7B 1_555 1_555
W4B O9B 1_555 1_555
W4B O20B 1_555 1_555
W4B O22B 1_555 1_555
W5B O7B 1_555 1_555
W5B O17B 1_555 1_555
W5B O18B 1_555 1_555
W5B O19B 1_555 1_555
W6B O7B 1_555 1_555
W6B O12B 1_555 1_555
W6B O15B 1_555 1_555
W6B O16B 1_555 1_555
N5A N6A 1_555 1_555
N5A C7A 1_555 1_555
N5_2 N6_2 1_555 1_555
N8A C7A 1_555 1_555
N13C C16C 1_555 1_555
N14C N15C 1_555 1_555
N16C C16C 1_555 1_555

#END
