
#######################################################################
#
#                 Cambridge Crystallographic Data Centre
#                                CCDC 
#
#######################################################################
#
# If this CIF has been generated from an entry in the Cambridge 
# Structural Database, then it will include bibliographic, chemical, 
# crystal, experimental, refinement or atomic coordinate data resulting 
# from the CCDC's data processing and validation procedures.
#
#######################################################################

data_NIJZIP01
_chemical_formula_moiety         '(C24 H40 Cu3 Nd2 O38)n'
_symmetry_cell_setting           hexagonal
_symmetry_space_group_name_H-M   'P 6/m c c'
_symmetry_Int_Tables_number      192
_space_group_name_Hall           '-P 6 2c'
loop_
_symmetry_equiv_pos_site_id
_symmetry_equiv_pos_as_xyz
1 x,y,z
2 -y,x-y,z
3 -x+y,-x,z
4 y,-x+y,z
5 x-y,x,z
6 -x+y,y,1/2+z
7 x,x-y,1/2+z
8 y,x,1/2+z
9 x-y,-y,1/2+z
10 -x,-x+y,1/2+z
11 x,y,-z
12 y,x,1/2-z
13 -x,-y,-z
14 y,-x+y,-z
15 x-y,x,-z
16 -y,x-y,-z
17 -x+y,-x,-z
18 x-y,-y,1/2-z
19 -x,-x+y,1/2-z
20 -y,-x,1/2-z
21 -x+y,y,1/2-z
22 x,x-y,1/2-z
23 -x,-y,z
24 -y,-x,1/2+z
_cell_length_a                   15.0645(16)
_cell_length_b                   15.0645(16)
_cell_length_c                   14.751(3)
_cell_angle_alpha                90
_cell_angle_beta                 90
_cell_angle_gamma                120
_cell_volume                     2899.09
loop_
_atom_site_label
_atom_site_type_symbol
_atom_site_fract_x
_atom_site_fract_y
_atom_site_fract_z
Nd1 Nd -0.3333 0.3333 -0.2500
Cu1 Cu -0.5000 0.0000 0.0000
O1 O -0.1925(3) 0.4219(3) -0.3589(3)
O2 O -0.0490(3) 0.5581(3) -0.4076(3)
O3 O 0.23626(19) 0.4725(4) 0.2500
C1 C -0.1278(4) 0.5158(4) -0.3601(4)
C2 C 0.1460(5) 0.4141(4) 0.3004(5)
H1 H 0.2118 0.3644 0.1627
H2 H 0.2890 0.3773 0.2403
O4 O -0.1558(5) 0.5235(6) 0.0000
H3 H -0.178(6) 0.481(6) 0.048(4)
O1A O -0.4219(3) 0.3856(4) -0.3589(3)
C1A C -0.5158(4) 0.3564(6) -0.3601(4)
O2A O -0.5581(3) 0.3929(4) -0.4076(3)
Cu1F Cu -0.5000 0.5000 -0.5000
Cu1E Cu -0.5000 0.0000 -0.5000
O2B O -0.3929(4) 0.0490(3) -0.4076(3)
C1B C -0.3564(6) 0.1278(4) -0.3601(4)
O1B O -0.3856(4) 0.1925(3) -0.3589(3)
O1S O -0.4219(3) 0.1925(3) -0.1411(3)
C1S C -0.5158(4) 0.1278(4) -0.1399(4)
O2S O -0.5581(3) 0.0490(3) -0.0924(3)
Cu1G Cu -0.0000 0.5000 -0.5000
O2W O -0.5581(3) 0.0490(3) 0.0924(3)
O2E O -0.3929(4) 0.5581(3) 0.0924(3)
Cu1B Cu -0.5000 0.5000 0.0000
O2T O -0.3929(4) 0.5581(3) -0.0924(3)
C1T C -0.3564(6) 0.5158(4) -0.1399(4)
O1T O -0.3856(4) 0.4219(3) -0.1411(3)
O1U O -0.1925(3) 0.3856(4) -0.1411(3)
C1U C -0.1278(4) 0.3564(6) -0.1399(4)
O2U O -0.0490(3) 0.3929(4) -0.0924(3)
Cu1A Cu -0.0000 0.5000 0.0000
O2F O -0.0490(3) 0.3929(4) 0.0924(3)
O2I O 0.0490(3) 0.6071(4) 0.0924(3)
C1I C 0.1278(4) 0.6436(6) 0.1399(4)
O1I O 0.1925(3) 0.6144(4) 0.1411(3)
Nd1G Nd 0.3333 0.6667 0.2500
O1G O 0.4219(3) 0.8075(3) 0.1411(3)
C1G C 0.5158(4) 0.8722(4) 0.1399(4)
O2G O 0.5581(3) 0.9510(3) 0.0924(3)
Cu1_2 Cu 0.5000 1.0000 0.0000
Cu1B_2 Cu 0.5000 0.5000 0.0000
O2H O 0.3929(4) 0.4419(3) 0.0924(3)
C1H C 0.3564(6) 0.4842(4) 0.1399(4)
O1H O 0.3856(4) 0.5781(3) 0.1411(3)
O1M O 0.4219(3) 0.6144(4) 0.3589(3)
C1M C 0.5158(4) 0.6436(6) 0.3601(4)
O2M O 0.5581(3) 0.6071(4) 0.4076(3)
Cu1F_2 Cu 0.5000 0.5000 0.5000
Cu1E_2 Cu 0.5000 1.0000 0.5000
O2N O 0.3929(4) 0.9510(3) 0.4076(3)
C1N C 0.3564(6) 0.8722(4) 0.3601(4)
O1N O 0.3856(4) 0.8075(3) 0.3589(3)
O1L O 0.1925(3) 0.5781(3) 0.3589(3)
C1L C 0.1278(4) 0.4842(4) 0.3601(4)
O2L O 0.0490(3) 0.4419(3) 0.4076(3)
Cu1G_2 Cu -0.0000 0.5000 0.5000
C2T C 0.2681(6) 0.4141(4) 0.1996(5)
H1T H 0.1526 0.3644 0.3373
H2T H 0.0883 0.3773 0.2597
O3B O 0.23624(44) 0.76374(19) 0.2500
O3A O 0.5275(4) 0.76376(44) 0.2500
C2B C 0.2681(6) 0.8540(5) 0.3004(5)
C2U C 0.1460(5) 0.7319(6) 0.1996(5)
H1B H 0.1526 0.7882 0.1627
H2B H 0.0883 0.7110 0.2403
H1U H 0.2118 0.8474 0.3373
H2U H 0.2890 0.9117 0.2597
C2A C 0.5859(4) 0.7319(6) 0.3004(5)
C2S C 0.5859(4) 0.8540(5) 0.1996(5)
H1A H 0.6356 0.8474 0.1627
H2A H 0.6227 0.9117 0.2403
H1S H 0.6356 0.7882 0.3373
H2S H 0.6227 0.7110 0.2597
O2R O 0.0490(3) 0.6071(4) -0.0924(3)
O4L O 0.1558(5) 0.4765(6) 0.0000
C2I C -0.1460(5) 0.2681(6) -0.1996(5)
O3I O -0.23626(19) 0.23624(44) -0.2500
C2N C -0.2681(6) 0.1460(5) -0.3004(5)
H1I H -0.2118 0.1526 -0.3373
H2I H -0.2890 0.0883 -0.2597
H1N H -0.1526 0.2118 -0.1627
H2N H -0.0883 0.2890 -0.2403
O3H O -0.23624(44) 0.5275(4) -0.2500
O3G O -0.5275(4) 0.23626(19) -0.2500
C2H C -0.2681(6) 0.5859(4) -0.1996(5)
C2L C -0.1460(5) 0.5859(4) -0.3004(5)
H1H H -0.1526 0.6356 -0.3373
H2H H -0.0883 0.6227 -0.2597
H1L H -0.2118 0.6356 -0.1627
H2L H -0.2890 0.6227 -0.2403
O2Q O -0.6071(4) 0.4419(3) -0.0924(3)
O2H_2 O -0.6071(4) 0.4419(3) 0.0924(3)
O4A O -0.5235(6) 0.3207(8) 0.0000
O4C O -0.4765(6) 0.6793(8) 0.0000
O2G_2 O -0.4419(3) -0.0490(3) 0.0924(3)
O2K O -0.4419(3) -0.0490(3) -0.0924(3)
O4B O -0.3207(8) 0.1558(5) 0.0000
O4D O -0.6793(8) -0.1558(5) 0.0000
C2G C -0.5859(4) 0.1460(5) -0.1996(5)
C2M C -0.5859(4) 0.2681(6) -0.3004(5)
H1G H -0.6356 0.2118 -0.3373
H2G H -0.6227 0.2890 -0.2597
H1M H -0.6356 0.1526 -0.1627
H2M H -0.6227 0.0883 -0.2403
H3J H -0.178(6) 0.481(6) -0.048(4)
H3V H 0.178(6) 0.519(6) 0.048(4)
H3L H 0.178(6) 0.519(6) -0.048(4)
H3A H -0.481(6) 0.341(8) 0.048(4)
H3O H -0.481(6) 0.341(8) -0.048(4)
H3C H -0.519(6) 0.659(8) 0.048(4)
H3M H -0.519(6) 0.659(8) -0.048(4)
H3P H -0.341(8) 0.178(6) -0.048(4)
H3B H -0.341(8) 0.178(6) 0.048(4)
H3D H -0.659(8) -0.178(6) 0.048(4)
H3N H -0.659(8) -0.178(6) -0.048(4)
O5 O -0.724(4) 0.164(4) -1.0000
O8 O -0.155(6) 0.891(7) -0.613(5)
loop_
_geom_bond_atom_site_label_1
_geom_bond_atom_site_label_2
_geom_bond_site_symmetry_1
_geom_bond_site_symmetry_2
Nd1 O1 1_555 1_555
Cu1 O2S 1_555 1_555
O1 C1 1_555 1_555
O2 C1 1_555 1_555
O3 C2 1_555 1_555
C1 C2L 1_555 1_555
C2 C1L 1_555 1_555
H1 C2T 1_555 1_555
H2 C2T 1_555 1_555
O4 H3 1_555 1_555
O1A Nd1 1_555 1_555
C1A O1A 1_555 1_555
O2A C1A 1_555 1_555
Cu1F O2A 1_555 1_555
Cu1E O2B 1_555 1_555
O2B C1B 1_555 1_555
C1B O1B 1_555 1_555
O1B Nd1 1_555 1_555
O1S Nd1 1_555 1_555
C1S O1S 1_555 1_555
O2S C1S 1_555 1_555
Cu1G O2 1_555 1_555
O2W Cu1 1_555 1_555
O2E Cu1B 1_555 1_555
Cu1B O2T 1_555 1_555
O2T C1T 1_555 1_555
C1T O1T 1_555 1_555
O1T Nd1 1_555 1_555
O1U Nd1 1_555 1_555
C1U O1U 1_555 1_555
O2U C1U 1_555 1_555
Cu1A O4 1_555 1_555
O2F Cu1A 1_555 1_555
O2I Cu1A 1_555 1_555
C1I O2I 1_555 1_555
O1I C1I 1_555 1_555
Nd1G O3 1_555 1_555
O1G Nd1G 1_555 1_555
C1G O1G 1_555 1_555
O2G C1G 1_555 1_555
Cu1_2 O2G 1_555 1_555
Cu1B_2 O2H 1_555 1_555
O2H C1H 1_555 1_555
C1H O1H 1_555 1_555
O1H Nd1G 1_555 1_555
O1M Nd1G 1_555 1_555
C1M O1M 1_555 1_555
O2M C1M 1_555 1_555
Cu1F_2 O2M 1_555 1_555
Cu1E_2 O2N 1_555 1_555
O2N C1N 1_555 1_555
C1N O1N 1_555 1_555
O1N Nd1G 1_555 1_555
O1L Nd1G 1_555 1_555
C1L O1L 1_555 1_555
O2L C1L 1_555 1_555
Cu1G_2 O2L 1_555 1_555
C2T O3 1_555 1_555
H1T C2 1_555 1_555
H2T C2 1_555 1_555
O3B Nd1G 1_555 1_555
O3A Nd1G 1_555 1_555
C2B C1N 1_555 1_555
C2U C1I 1_555 1_555
H1B C2U 1_555 1_555
H2B C2U 1_555 1_555
H1U C2B 1_555 1_555
H2U C2B 1_555 1_555
C2A C1M 1_555 1_555
C2S C1G 1_555 1_555
H1A C2S 1_555 1_555
H2A C2S 1_555 1_555
H1S C2A 1_555 1_555
H2S C2A 1_555 1_555
O2R Cu1A 1_555 1_555
O4L Cu1A 1_555 1_555
C2I C1U 1_555 1_555
O3I Nd1 1_555 1_555
C2N C1B 1_555 1_555
H1I C2N 1_555 1_555
H2I C2N 1_555 1_555
H1N C2I 1_555 1_555
H2N C2I 1_555 1_555
O3H Nd1 1_555 1_555
O3G Nd1 1_555 1_555
C2H C1T 1_555 1_555
C2L O3H 1_555 1_555
H1H C2L 1_555 1_555
H2H C2L 1_555 1_555
H1L C2H 1_555 1_555
H2L C2H 1_555 1_555
O2Q Cu1B 1_555 1_555
O2H_2 Cu1B 1_555 1_555
O4A Cu1B 1_555 1_555
O4C Cu1B 1_555 1_555
O2G_2 Cu1 1_555 1_555
O2K Cu1 1_555 1_555
O4B Cu1 1_555 1_555
O4D Cu1 1_555 1_555
C2G C1S 1_555 1_555
C2M C1A 1_555 1_555
H1G C2M 1_555 1_555
H2G C2M 1_555 1_555
H1M C2G 1_555 1_555
H2M C2G 1_555 1_555
H3J O4 1_555 1_555
H3V O4L 1_555 1_555
H3L O4L 1_555 1_555
H3A O4A 1_555 1_555
H3O O4A 1_555 1_555
H3C O4C 1_555 1_555
H3M O4C 1_555 1_555
H3P O4B 1_555 1_555
H3B O4B 1_555 1_555
H3D O4D 1_555 1_555
H3N O4D 1_555 1_555
O2U Cu1A 1_555 1_555
O1I Nd1G 1_555 1_555
C1H C2T 1_555 1_555
O3B C2U 1_555 1_555
O3B C2B 1_555 1_555
O3A C2S 1_555 1_555
O3A C2A 1_555 1_555
C2I O3I 1_555 1_555
O3I C2N 1_555 1_555
O3H C2H 1_555 1_555
O3G C2M 1_555 1_555
O3G C2G 1_555 1_555

#END
