
#######################################################################
#
#                 Cambridge Crystallographic Data Centre
#                                CCDC 
#
#######################################################################
#
# If this CIF has been generated from an entry in the Cambridge 
# Structural Database, then it will include bibliographic, chemical, 
# crystal, experimental, refinement or atomic coordinate data resulting 
# from the CCDC's data processing and validation procedures.
#
#######################################################################

data_WEVQOD
_chemical_formula_moiety         '(C24 H40 Cu3 Gd2 O38)n'
_symmetry_cell_setting           hexagonal
_symmetry_space_group_name_H-M   'P 6/m c c'
_symmetry_Int_Tables_number      192
_space_group_name_Hall           '-P 6 2c'
loop_
_symmetry_equiv_pos_site_id
_symmetry_equiv_pos_as_xyz
1 x,y,z
2 -y,x-y,z
3 -x+y,-x,z
4 y,-x+y,z
5 x-y,x,z
6 y,x,1/2-z
7 x-y,-y,1/2-z
8 -x,-x+y,1/2-z
9 -y,-x,1/2-z
10 -x+y,y,1/2-z
11 x,x-y,1/2-z
12 -x,-y,z
13 -x,-y,-z
14 y,-x+y,-z
15 x-y,x,-z
16 -y,x-y,-z
17 -x+y,-x,-z
18 -y,-x,1/2+z
19 -x+y,y,1/2+z
20 x,x-y,1/2+z
21 y,x,1/2+z
22 x-y,-y,1/2+z
23 -x,-x+y,1/2+z
24 x,y,-z
_cell_length_a                   14.717(2)
_cell_length_b                   14.717(2)
_cell_length_c                   15.169(3)
_cell_angle_alpha                90
_cell_angle_beta                 90
_cell_angle_gamma                120
_cell_volume                     2845.29
loop_
_atom_site_label
_atom_site_type_symbol
_atom_site_fract_x
_atom_site_fract_y
_atom_site_fract_z
Gd1 Gd -0.3333 0.3333 -0.2500
Cu1 Cu -0.5000 0.0000 0.0000
O1 O -0.1941(2) 0.41894(19) -0.35658(17)
O2 O -0.0511(2) 0.5586(2) -0.4100(2)
O3 O 0.23591(13) 0.4718(3) 0.2500
C1 C -0.1296(3) 0.5151(3) -0.3610(3)
C2 C 0.1476(3) 0.4123(3) 0.3033(3)
H1 H 0.2057 0.3645 0.1604
H2 H 0.2848 0.3712 0.2333
O4 O -0.1594(4) 0.5204(4) 0.0000
H3 H -0.182(4) 0.472(4) 0.044(3)
O1A O -0.41894(19) 0.38696(28) -0.35658(17)
C1A C -0.5151(3) 0.3553(4) -0.3610(3)
O2A O -0.5586(2) 0.3903(3) -0.4100(2)
Cu1S Cu -0.5000 0.5000 -0.5000
Cu1R Cu -0.5000 0.0000 -0.5000
O2B O -0.3903(3) 0.0511(2) -0.4100(2)
C1B C -0.3553(4) 0.1296(3) -0.3610(3)
O1B O -0.38696(28) 0.1941(2) -0.35658(17)
O1H O -0.41894(19) 0.1941(2) -0.14342(17)
C1H C -0.5151(3) 0.1296(3) -0.1390(3)
O2H O -0.5586(2) 0.0511(2) -0.0900(2)
Cu1T Cu 0.0000 0.5000 -0.5000
O2Q O -0.5586(2) 0.0511(2) 0.0900(2)
O2R O -0.3903(3) 0.5586(2) 0.0900(2)
Cu1B Cu -0.5000 0.5000 0.0000
O2I O -0.3903(3) 0.5586(2) -0.0900(2)
C1I C -0.3553(4) 0.5151(3) -0.1390(3)
O1I O -0.38696(28) 0.41894(19) -0.14342(17)
O1J O -0.1941(2) 0.38696(28) -0.14342(17)
C1J C -0.1296(3) 0.3553(4) -0.1390(3)
O2J O -0.0511(2) 0.3903(3) -0.0900(2)
Cu1A Cu 0.0000 0.5000 0.0000
O2S O -0.0511(2) 0.3903(3) 0.0900(2)
O2V O 0.0511(2) 0.6097(3) 0.0900(2)
C1V C 0.1296(3) 0.6447(4) 0.1390(3)
O1V O 0.1941(2) 0.61304(28) 0.14342(17)
Gd1T Gd 0.3333 0.6667 0.2500
O1T O 0.41894(19) 0.8059(2) 0.14342(17)
C1T C 0.5151(3) 0.8704(3) 0.1390(3)
O2T O 0.5586(2) 0.9489(2) 0.0900(2)
Cu1_2 Cu 0.5000 1.0000 0.0000
Cu1B_2 Cu 0.5000 0.5000 0.0000
O2U O 0.3903(3) 0.4414(2) 0.0900(2)
C1U C 0.3553(4) 0.4849(3) 0.1390(3)
O1U O 0.38696(28) 0.58106(19) 0.14342(17)
O1M O 0.41894(19) 0.61304(28) 0.35658(17)
C1M C 0.5151(3) 0.6447(4) 0.3610(3)
O2M O 0.5586(2) 0.6097(3) 0.4100(2)
Cu1S_2 Cu 0.5000 0.5000 0.5000
Cu1R_2 Cu 0.5000 1.0000 0.5000
O2N O 0.3903(3) 0.9489(2) 0.4100(2)
C1N C 0.3553(4) 0.8704(3) 0.3610(3)
O1N O 0.38696(28) 0.8059(2) 0.35658(17)
O1L O 0.1941(2) 0.58106(19) 0.35658(17)
C1L C 0.1296(3) 0.4849(3) 0.3610(3)
O2L O 0.0511(2) 0.4414(2) 0.4100(2)
Cu1T_2 Cu 0.0000 0.5000 0.5000
C2I C 0.2647(4) 0.4123(3) 0.1967(3)
H1I H 0.1588 0.3645 0.3396
H2I H 0.0864 0.3712 0.2667
O3B O 0.23589(33) 0.76409(13) 0.2500
O3A O 0.5282(3) 0.76411(33) 0.2500
C2B C 0.2647(4) 0.8524(3) 0.3033(3)
C2J C 0.1476(3) 0.7353(4) 0.1967(3)
H1B H 0.1588 0.7943 0.1604
H2B H 0.0864 0.7152 0.2333
H1J H 0.2057 0.8412 0.3396
H2J H 0.2848 0.9136 0.2667
C2A C 0.5877(3) 0.7353(4) 0.3033(3)
C2H C 0.5877(3) 0.8524(3) 0.1967(3)
H1A H 0.6355 0.8412 0.1604
H2A H 0.6288 0.9136 0.2333
H1H H 0.6355 0.7943 0.3396
H2H H 0.6288 0.7152 0.2667
O2G O 0.0511(2) 0.6097(3) -0.0900(2)
O4L O 0.1594(4) 0.4796(4) 0.0000
C2V C -0.1476(3) 0.2647(4) -0.1967(3)
O3V O -0.23591(13) 0.23589(33) -0.2500
C2N C -0.2647(4) 0.1476(3) -0.3033(3)
H1V H -0.2057 0.1588 -0.3396
H2V H -0.2848 0.0864 -0.2667
H1N H -0.1588 0.2057 -0.1604
H2N H -0.0864 0.2848 -0.2333
O3U O -0.23589(33) 0.5282(3) -0.2500
O3T O -0.5282(3) 0.23591(13) -0.2500
C2U C -0.2647(4) 0.5877(3) -0.1967(3)
C2L C -0.1476(3) 0.5877(3) -0.3033(3)
H1U H -0.1588 0.6355 -0.3396
H2U H -0.0864 0.6288 -0.2667
H1L H -0.2057 0.6355 -0.1604
H2L H -0.2848 0.6288 -0.2333
O2F O -0.6097(3) 0.4414(2) -0.0900(2)
O2U_2 O -0.6097(3) 0.4414(2) 0.0900(2)
O4A O -0.5204(4) 0.3202(6) 0.0000
O4C O -0.4796(4) 0.6798(6) 0.0000
O2T_2 O -0.4414(2) -0.0511(2) 0.0900(2)
O2E O -0.4414(2) -0.0511(2) -0.0900(2)
O4B O -0.3202(6) 0.1594(4) 0.0000
O4D O -0.6798(6) -0.1594(4) 0.0000
C2T C -0.5877(3) 0.1476(3) -0.1967(3)
C2M C -0.5877(3) 0.2647(4) -0.3033(3)
H1T H -0.6355 0.2057 -0.3396
H2T H -0.6288 0.2848 -0.2667
H1M H -0.6355 0.1588 -0.1604
H2M H -0.6288 0.0864 -0.2333
H3W H -0.182(4) 0.472(4) -0.044(3)
H3K H 0.182(4) 0.528(4) 0.044(3)
H3L H 0.182(4) 0.528(4) -0.044(3)
H3A H -0.472(4) 0.346(6) 0.044(3)
H3O H -0.472(4) 0.346(6) -0.044(3)
H3C H -0.528(4) 0.654(6) 0.044(3)
H3M H -0.528(4) 0.654(6) -0.044(3)
H3P H -0.346(6) 0.182(4) -0.044(3)
H3B H -0.346(6) 0.182(4) 0.044(3)
H3D H -0.654(6) -0.182(4) 0.044(3)
H3N H -0.654(6) -0.182(4) -0.044(3)
O5 O -0.728(3) 0.149(4) -1.0000
O6 O -0.864(3) 0.156(3) -0.676(2)
loop_
_geom_bond_atom_site_label_1
_geom_bond_atom_site_label_2
_geom_bond_site_symmetry_1
_geom_bond_site_symmetry_2
Gd1 O1 1_555 1_555
Cu1 O2H 1_555 1_555
O1 C1 1_555 1_555
O2 C1 1_555 1_555
O3 C2 1_555 1_555
C1 C2L 1_555 1_555
C2 C1L 1_555 1_555
H1 C2I 1_555 1_555
H2 C2I 1_555 1_555
O4 H3 1_555 1_555
O1A Gd1 1_555 1_555
C1A O1A 1_555 1_555
O2A C1A 1_555 1_555
Cu1S O2A 1_555 1_555
Cu1R O2B 1_555 1_555
O2B C1B 1_555 1_555
C1B O1B 1_555 1_555
O1B Gd1 1_555 1_555
O1H Gd1 1_555 1_555
C1H O1H 1_555 1_555
O2H C1H 1_555 1_555
Cu1T O2 1_555 1_555
O2Q Cu1 1_555 1_555
O2R Cu1B 1_555 1_555
Cu1B O2I 1_555 1_555
O2I C1I 1_555 1_555
C1I O1I 1_555 1_555
O1I Gd1 1_555 1_555
O1J Gd1 1_555 1_555
C1J O1J 1_555 1_555
O2J C1J 1_555 1_555
Cu1A O4 1_555 1_555
O2S Cu1A 1_555 1_555
O2V Cu1A 1_555 1_555
C1V O2V 1_555 1_555
O1V C1V 1_555 1_555
Gd1T O3 1_555 1_555
O1T Gd1T 1_555 1_555
C1T O1T 1_555 1_555
O2T C1T 1_555 1_555
Cu1_2 O2T 1_555 1_555
Cu1B_2 O2U 1_555 1_555
O2U C1U 1_555 1_555
C1U O1U 1_555 1_555
O1U Gd1T 1_555 1_555
O1M Gd1T 1_555 1_555
C1M O1M 1_555 1_555
O2M C1M 1_555 1_555
Cu1S_2 O2M 1_555 1_555
Cu1R_2 O2N 1_555 1_555
O2N C1N 1_555 1_555
C1N O1N 1_555 1_555
O1N Gd1T 1_555 1_555
O1L Gd1T 1_555 1_555
C1L O1L 1_555 1_555
O2L C1L 1_555 1_555
Cu1T_2 O2L 1_555 1_555
C2I O3 1_555 1_555
H1I C2 1_555 1_555
H2I C2 1_555 1_555
O3B Gd1T 1_555 1_555
O3A Gd1T 1_555 1_555
C2B C1N 1_555 1_555
C2J C1V 1_555 1_555
H1B C2J 1_555 1_555
H2B C2J 1_555 1_555
H1J C2B 1_555 1_555
H2J C2B 1_555 1_555
C2A C1M 1_555 1_555
C2H C1T 1_555 1_555
H1A C2H 1_555 1_555
H2A C2H 1_555 1_555
H1H C2A 1_555 1_555
H2H C2A 1_555 1_555
O2G Cu1A 1_555 1_555
O4L Cu1A 1_555 1_555
C2V C1J 1_555 1_555
O3V Gd1 1_555 1_555
C2N C1B 1_555 1_555
H1V C2N 1_555 1_555
H2V C2N 1_555 1_555
H1N C2V 1_555 1_555
H2N C2V 1_555 1_555
O3U Gd1 1_555 1_555
O3T Gd1 1_555 1_555
C2U C1I 1_555 1_555
C2L O3U 1_555 1_555
H1U C2L 1_555 1_555
H2U C2L 1_555 1_555
H1L C2U 1_555 1_555
H2L C2U 1_555 1_555
O2F Cu1B 1_555 1_555
O2U_2 Cu1B 1_555 1_555
O4A Cu1B 1_555 1_555
O4C Cu1B 1_555 1_555
O2T_2 Cu1 1_555 1_555
O2E Cu1 1_555 1_555
O4B Cu1 1_555 1_555
O4D Cu1 1_555 1_555
C2T C1H 1_555 1_555
C2M C1A 1_555 1_555
H1T C2M 1_555 1_555
H2T C2M 1_555 1_555
H1M C2T 1_555 1_555
H2M C2T 1_555 1_555
H3W O4 1_555 1_555
H3K O4L 1_555 1_555
H3L O4L 1_555 1_555
H3A O4A 1_555 1_555
H3O O4A 1_555 1_555
H3C O4C 1_555 1_555
H3M O4C 1_555 1_555
H3P O4B 1_555 1_555
H3B O4B 1_555 1_555
H3D O4D 1_555 1_555
H3N O4D 1_555 1_555
O2J Cu1A 1_555 1_555
O1V Gd1T 1_555 1_555
C1U C2I 1_555 1_555
O3B C2B 1_555 1_555
O3B C2J 1_555 1_555
O3A C2A 1_555 1_555
O3A C2H 1_555 1_555
C2V O3V 1_555 1_555
O3V C2N 1_555 1_555
O3U C2U 1_555 1_555
O3T C2T 1_555 1_555
O3T C2M 1_555 1_555

#END
