
#######################################################################
#
#                 Cambridge Crystallographic Data Centre
#                                CCDC 
#
#######################################################################
#
# If this CIF has been generated from an entry in the Cambridge 
# Structural Database, then it will include bibliographic, chemical, 
# crystal, experimental, refinement or atomic coordinate data resulting 
# from the CCDC's data processing and validation procedures.
#
#######################################################################

data_WEVQIX
_chemical_formula_moiety         '(C24 H40 Cu3 O38 Y2)n'
_symmetry_cell_setting           hexagonal
_symmetry_space_group_name_H-M   'P 6/m c c'
_symmetry_Int_Tables_number      192
_space_group_name_Hall           '-P 6 2c'
loop_
_symmetry_equiv_pos_site_id
_symmetry_equiv_pos_as_xyz
1 x,y,z
2 -y,x-y,z
3 -x+y,-x,z
4 y,-x+y,z
5 x-y,x,z
6 -x+y,y,1/2+z
7 x,x-y,1/2+z
8 y,x,1/2+z
9 x-y,-y,1/2+z
10 -x,-x+y,1/2+z
11 x,y,-z
12 y,x,1/2-z
13 -x,-y,-z
14 y,-x+y,-z
15 x-y,x,-z
16 -y,x-y,-z
17 -x+y,-x,-z
18 x-y,-y,1/2-z
19 -x,-x+y,1/2-z
20 -y,-x,1/2-z
21 -x+y,y,1/2-z
22 x,x-y,1/2-z
23 -x,-y,z
24 -y,-x,1/2+z
_cell_length_a                   14.595(2)
_cell_length_b                   14.595(2)
_cell_length_c                   15.267(3)
_cell_angle_alpha                90
_cell_angle_beta                 90
_cell_angle_gamma                120
_cell_volume                     2816.39
loop_
_atom_site_label
_atom_site_type_symbol
_atom_site_fract_x
_atom_site_fract_y
_atom_site_fract_z
Y1 Y -0.3333 -0.6667 -0.2500
Cu1 Cu -0.5000 -1.0000 0.0000
O1 O -0.1960(2) -0.5837(2) -0.35495(18)
O2 O -0.0536(3) -0.4431(3) -0.4105(2)
O3 O 0.23621(15) -0.5276(3) 0.2500
C1 C -0.1311(4) -0.4863(4) -0.3611(3)
C2 C 0.1495(4) -0.5870(4) 0.3036(4)
H1 H 0.2035 -0.6342 0.1604
H2 H 0.2832 -0.6295 0.2320
O4 O -0.1616(4) -0.4816(4) 0.0000
H3 H -0.189(4) -0.536(4) 0.047(3)
O1A O -0.4163(2) -0.6123(3) -0.35495(18)
C1A C -0.5137(4) -0.6448(6) -0.3611(3)
O2A O -0.5569(3) -0.6105(4) -0.4105(2)
Cu1F Cu -0.5000 -0.5000 -0.5000
Cu1E Cu -0.5000 -1.0000 -0.5000
O2B O -0.3895(4) -0.9464(3) -0.4105(2)
C1B C -0.3552(6) -0.8689(4) -0.3611(3)
O1B O -0.3877(3) -0.8040(2) -0.35495(18)
O1S O -0.4163(2) -0.8040(2) -0.14505(18)
C1S C -0.5137(4) -0.8689(4) -0.1389(3)
O2S O -0.5569(3) -0.9464(3) -0.0895(2)
Cu1G Cu 0.0000 -0.5000 -0.5000
O2W O -0.5569(3) -0.9464(3) 0.0895(2)
O2E O -0.3895(4) -0.4431(3) 0.0895(2)
Cu1B Cu -0.5000 -0.5000 0.0000
O2T O -0.3895(4) -0.4431(3) -0.0895(2)
C1T C -0.3552(6) -0.4863(4) -0.1389(3)
O1T O -0.3877(3) -0.5837(2) -0.14505(18)
O1U O -0.1960(2) -0.6123(3) -0.14505(18)
C1U C -0.1311(4) -0.6448(6) -0.1389(3)
O2U O -0.0536(3) -0.6105(4) -0.0895(2)
Cu1A Cu 0.0000 -0.5000 0.0000
O2F O -0.0536(3) -0.6105(4) 0.0895(2)
O2I O 0.0536(3) -0.3895(4) 0.0895(2)
C1I C 0.1311(4) -0.3552(6) 0.1389(3)
O1I O 0.1960(2) -0.3877(3) 0.14505(18)
Y1G Y 0.3333 -0.3333 0.2500
O1G O 0.4163(2) -0.1960(2) 0.14505(18)
C1G C 0.5137(4) -0.1311(4) 0.1389(3)
O2G O 0.5569(3) -0.0536(3) 0.0895(2)
Cu1_2 Cu 0.5000 0.0000 0.0000
Cu1B_2 Cu 0.5000 -0.5000 0.0000
O2H O 0.3895(4) -0.5569(3) 0.0895(2)
C1H C 0.3552(6) -0.5137(4) 0.1389(3)
O1H O 0.3877(3) -0.4163(2) 0.14505(18)
O1M O 0.4163(2) -0.3877(3) 0.35495(18)
C1M C 0.5137(4) -0.3552(6) 0.3611(3)
O2M O 0.5569(3) -0.3895(4) 0.4105(2)
Cu1F_2 Cu 0.5000 -0.5000 0.5000
Cu1E_2 Cu 0.5000 0.0000 0.5000
O2N O 0.3895(4) -0.0536(3) 0.4105(2)
C1N C 0.3552(6) -0.1311(4) 0.3611(3)
O1N O 0.3877(3) -0.1960(2) 0.35495(18)
O1L O 0.1960(2) -0.4163(2) 0.35495(18)
C1L C 0.1311(4) -0.5137(4) 0.3611(3)
O2L O 0.0536(3) -0.5569(3) 0.4105(2)
Cu1G_2 Cu 0.0000 -0.5000 0.5000
C2T C 0.2635(6) -0.5870(4) 0.1964(4)
H1T H 0.1623 -0.6342 0.3396
H2T H 0.0873 -0.6295 0.2680
O3B O 0.23619(34) -0.23621(15) 0.2500
O3A O 0.5276(3) -0.23619(34) 0.2500
C2B C 0.2635(6) -0.1495(4) 0.3036(4)
C2U C 0.1495(4) -0.2635(6) 0.1964(4)
H1B H 0.1623 -0.2035 0.1604
H2B H 0.0873 -0.2832 0.2320
H1U H 0.2035 -0.1623 0.3396
H2U H 0.2832 -0.0873 0.2680
C2A C 0.5870(4) -0.2635(6) 0.3036(4)
C2S C 0.5870(4) -0.1495(4) 0.1964(4)
H1A H 0.6342 -0.1623 0.1604
H2A H 0.6295 -0.0873 0.2320
H1S H 0.6342 -0.2035 0.3396
H2S H 0.6295 -0.2832 0.2680
O2R O 0.0536(3) -0.3895(4) -0.0895(2)
O4L O 0.1616(4) -0.5184(4) 0.0000
C2I C -0.1495(4) -0.7365(6) -0.1964(4)
O3I O -0.23621(15) -0.76381(34) -0.2500
C2N C -0.2635(6) -0.8505(4) -0.3036(4)
H1I H -0.2035 -0.8377 -0.3396
H2I H -0.2832 -0.9127 -0.2680
H1N H -0.1623 -0.7965 -0.1604
H2N H -0.0873 -0.7168 -0.2320
O3H O -0.23619(34) -0.4724(3) -0.2500
O3G O -0.5276(3) -0.76379(15) -0.2500
C2H C -0.2635(6) -0.4130(4) -0.1964(4)
C2L C -0.1495(4) -0.4130(4) -0.3036(4)
H1H H -0.1623 -0.3658 -0.3396
H2H H -0.0873 -0.3705 -0.2680
H1L H -0.2035 -0.3658 -0.1604
H2L H -0.2832 -0.3705 -0.2320
O2Q O -0.6105(4) -0.5569(3) -0.0895(2)
O2H_2 O -0.6105(4) -0.5569(3) 0.0895(2)
O4A O -0.5184(4) -0.6800(6) 0.0000
O4C O -0.4816(4) -0.3200(6) 0.0000
O2G_2 O -0.4431(3) -1.0536(3) 0.0895(2)
O2K O -0.4431(3) -1.0536(3) -0.0895(2)
O4B O -0.3200(6) -0.8384(4) 0.0000
O4D O -0.6800(6) -1.1616(4) 0.0000
C2G C -0.5870(4) -0.8505(4) -0.1964(4)
C2M C -0.5870(4) -0.7365(6) -0.3036(4)
H1G H -0.6342 -0.7965 -0.3396
H2G H -0.6295 -0.7168 -0.2680
H1M H -0.6342 -0.8377 -0.1604
H2M H -0.6295 -0.9127 -0.2320
H3J H -0.189(4) -0.536(4) -0.047(3)
H3V H 0.189(4) -0.464(4) 0.047(3)
H3L H 0.189(4) -0.464(4) -0.047(3)
H3A H -0.464(4) -0.653(6) 0.047(3)
H3O H -0.464(4) -0.653(6) -0.047(3)
H3C H -0.536(4) -0.347(6) 0.047(3)
H3M H -0.536(4) -0.347(6) -0.047(3)
H3P H -0.347(6) -0.811(4) -0.047(3)
H3B H -0.347(6) -0.811(4) 0.047(3)
H3D H -0.653(6) -1.189(4) 0.047(3)
H3N H -0.653(6) -1.189(4) -0.047(3)
O6 O -0.023(3) -0.158(2) -0.8210(14)
O10 O -0.081(3) -0.266(3) -1.0000
loop_
_geom_bond_atom_site_label_1
_geom_bond_atom_site_label_2
_geom_bond_site_symmetry_1
_geom_bond_site_symmetry_2
Y1 O1 1_555 1_555
Cu1 O2S 1_555 1_555
O1 C1 1_555 1_555
O2 C1 1_555 1_555
O3 C2 1_555 1_555
C1 C2L 1_555 1_555
C2 C1L 1_555 1_555
H1 C2T 1_555 1_555
H2 C2T 1_555 1_555
O4 H3 1_555 1_555
O1A Y1 1_555 1_555
C1A O1A 1_555 1_555
O2A C1A 1_555 1_555
Cu1F O2A 1_555 1_555
Cu1E O2B 1_555 1_555
O2B C1B 1_555 1_555
C1B O1B 1_555 1_555
O1B Y1 1_555 1_555
O1S Y1 1_555 1_555
C1S O1S 1_555 1_555
O2S C1S 1_555 1_555
Cu1G O2 1_555 1_555
O2W Cu1 1_555 1_555
O2E Cu1B 1_555 1_555
Cu1B O2T 1_555 1_555
O2T C1T 1_555 1_555
C1T O1T 1_555 1_555
O1T Y1 1_555 1_555
O1U Y1 1_555 1_555
C1U O1U 1_555 1_555
O2U C1U 1_555 1_555
Cu1A O4 1_555 1_555
O2F Cu1A 1_555 1_555
O2I Cu1A 1_555 1_555
C1I O2I 1_555 1_555
O1I C1I 1_555 1_555
Y1G O3 1_555 1_555
O1G Y1G 1_555 1_555
C1G O1G 1_555 1_555
O2G C1G 1_555 1_555
Cu1_2 O2G 1_555 1_555
Cu1B_2 O2H 1_555 1_555
O2H C1H 1_555 1_555
C1H O1H 1_555 1_555
O1H Y1G 1_555 1_555
O1M Y1G 1_555 1_555
C1M O1M 1_555 1_555
O2M C1M 1_555 1_555
Cu1F_2 O2M 1_555 1_555
Cu1E_2 O2N 1_555 1_555
O2N C1N 1_555 1_555
C1N O1N 1_555 1_555
O1N Y1G 1_555 1_555
O1L Y1G 1_555 1_555
C1L O1L 1_555 1_555
O2L C1L 1_555 1_555
Cu1G_2 O2L 1_555 1_555
C2T O3 1_555 1_555
H1T C2 1_555 1_555
H2T C2 1_555 1_555
O3B Y1G 1_555 1_555
O3A Y1G 1_555 1_555
C2B C1N 1_555 1_555
C2U C1I 1_555 1_555
H1B C2U 1_555 1_555
H2B C2U 1_555 1_555
H1U C2B 1_555 1_555
H2U C2B 1_555 1_555
C2A C1M 1_555 1_555
C2S C1G 1_555 1_555
H1A C2S 1_555 1_555
H2A C2S 1_555 1_555
H1S C2A 1_555 1_555
H2S C2A 1_555 1_555
O2R Cu1A 1_555 1_555
O4L Cu1A 1_555 1_555
C2I C1U 1_555 1_555
O3I Y1 1_555 1_555
C2N C1B 1_555 1_555
H1I C2N 1_555 1_555
H2I C2N 1_555 1_555
H1N C2I 1_555 1_555
H2N C2I 1_555 1_555
O3H Y1 1_555 1_555
O3G Y1 1_555 1_555
C2H C1T 1_555 1_555
C2L O3H 1_555 1_555
H1H C2L 1_555 1_555
H2H C2L 1_555 1_555
H1L C2H 1_555 1_555
H2L C2H 1_555 1_555
O2Q Cu1B 1_555 1_555
O2H_2 Cu1B 1_555 1_555
O4A Cu1B 1_555 1_555
O4C Cu1B 1_555 1_555
O2G_2 Cu1 1_555 1_555
O2K Cu1 1_555 1_555
O4B Cu1 1_555 1_555
O4D Cu1 1_555 1_555
C2G C1S 1_555 1_555
C2M C1A 1_555 1_555
H1G C2M 1_555 1_555
H2G C2M 1_555 1_555
H1M C2G 1_555 1_555
H2M C2G 1_555 1_555
H3J O4 1_555 1_555
H3V O4L 1_555 1_555
H3L O4L 1_555 1_555
H3A O4A 1_555 1_555
H3O O4A 1_555 1_555
H3C O4C 1_555 1_555
H3M O4C 1_555 1_555
H3P O4B 1_555 1_555
H3B O4B 1_555 1_555
H3D O4D 1_555 1_555
H3N O4D 1_555 1_555
O2U Cu1A 1_555 1_555
O1I Y1G 1_555 1_555
C1H C2T 1_555 1_555
O3B C2U 1_555 1_555
O3B C2B 1_555 1_555
O3A C2S 1_555 1_555
O3A C2A 1_555 1_555
C2I O3I 1_555 1_555
O3I C2N 1_555 1_555
O3H C2H 1_555 1_555
O3G C2M 1_555 1_555
O3G C2G 1_555 1_555

#END
