
#######################################################################
#
#                 Cambridge Crystallographic Data Centre
#                                CCDC 
#
#######################################################################
#
# If this CIF has been generated from an entry in the Cambridge 
# Structural Database, then it will include bibliographic, chemical, 
# crystal, experimental, refinement or atomic coordinate data resulting 
# from the CCDC's data processing and validation procedures.
#
#######################################################################

data_WEVQUJ
_chemical_formula_moiety         '(C24 H40 Cu3 Eu2 O38)n'
_symmetry_cell_setting           hexagonal
_symmetry_space_group_name_H-M   'P 6/m c c'
_symmetry_Int_Tables_number      192
_space_group_name_Hall           '-P 6 2c'
loop_
_symmetry_equiv_pos_site_id
_symmetry_equiv_pos_as_xyz
1 x,y,z
2 -y,x-y,z
3 -x+y,-x,z
4 y,-x+y,z
5 x-y,x,z
6 -x+y,y,1/2+z
7 x,x-y,1/2+z
8 y,x,1/2+z
9 x-y,-y,1/2+z
10 -x,-x+y,1/2+z
11 x,y,-z
12 y,x,1/2-z
13 -x,-y,-z
14 y,-x+y,-z
15 x-y,x,-z
16 -y,x-y,-z
17 -x+y,-x,-z
18 x-y,-y,1/2-z
19 -x,-x+y,1/2-z
20 -y,-x,1/2-z
21 -x+y,y,1/2-z
22 x,x-y,1/2-z
23 -x,-y,z
24 -y,-x,1/2+z
_cell_length_a                   14.872(1)
_cell_length_b                   14.872(1)
_cell_length_c                   15.019(2)
_cell_angle_alpha                90
_cell_angle_beta                 90
_cell_angle_gamma                120
_cell_volume                     2876.8
loop_
_atom_site_label
_atom_site_type_symbol
_atom_site_fract_x
_atom_site_fract_y
_atom_site_fract_z
Eu1 Eu -0.3333 0.3333 -0.2500
Cu1 Cu -0.5000 0.0000 0.0000
O1 O -0.1940(3) 0.4196(3) -0.3572(3)
O2 O -0.0509(3) 0.5571(3) -0.4091(3)
O3 O 0.23658(19) 0.4732(4) 0.2500
C1 C -0.1299(4) 0.5145(4) -0.3603(4)
C2 C 0.1482(5) 0.4139(5) 0.3022(5)
H1 H 0.2078 0.3659 0.1611
H2 H 0.2856 0.3740 0.2358
O4 O -0.1576(5) 0.5207(5) 0.0000
H3 H -0.179(5) 0.460(6) 0.046(5)
O1A O -0.4196(3) 0.3864(4) -0.3572(3)
C1A C -0.5145(4) 0.3556(6) -0.3603(4)
O2A O -0.5571(3) 0.3920(4) -0.4091(3)
Cu1F Cu -0.5000 0.5000 -0.5000
Cu1E Cu -0.5000 0.0000 -0.5000
O2B O -0.3920(4) 0.0509(3) -0.4091(3)
C1B C -0.3556(6) 0.1299(4) -0.3603(4)
O1B O -0.3864(4) 0.1940(3) -0.3572(3)
O1S O -0.4196(3) 0.1940(3) -0.1428(3)
C1S C -0.5145(4) 0.1299(4) -0.1397(4)
O2S O -0.5571(3) 0.0509(3) -0.0909(3)
Cu1G Cu -0.0000 0.5000 -0.5000
O2W O -0.5571(3) 0.0509(3) 0.0909(3)
O2E O -0.3920(4) 0.5571(3) 0.0909(3)
Cu1B Cu -0.5000 0.5000 0.0000
O2T O -0.3920(4) 0.5571(3) -0.0909(3)
C1T C -0.3556(6) 0.5145(4) -0.1397(4)
O1T O -0.3864(4) 0.4196(3) -0.1428(3)
O1U O -0.1940(3) 0.3864(4) -0.1428(3)
C1U C -0.1299(4) 0.3556(6) -0.1397(4)
O2U O -0.0509(3) 0.3920(4) -0.0909(3)
Cu1A Cu -0.0000 0.5000 0.0000
O2F O -0.0509(3) 0.3920(4) 0.0909(3)
O2I O 0.0509(3) 0.6080(4) 0.0909(3)
C1I C 0.1299(4) 0.6444(6) 0.1397(4)
O1I O 0.1940(3) 0.6136(4) 0.1428(3)
Eu1G Eu 0.3333 0.6667 0.2500
O1G O 0.4196(3) 0.8060(3) 0.1428(3)
C1G C 0.5145(4) 0.8701(4) 0.1397(4)
O2G O 0.5571(3) 0.9491(3) 0.0909(3)
Cu1_2 Cu 0.5000 1.0000 0.0000
Cu1B_2 Cu 0.5000 0.5000 0.0000
O2H O 0.3920(4) 0.4429(3) 0.0909(3)
C1H C 0.3556(6) 0.4855(4) 0.1397(4)
O1H O 0.3864(4) 0.5804(3) 0.1428(3)
O1M O 0.4196(3) 0.6136(4) 0.3572(3)
C1M C 0.5145(4) 0.6444(6) 0.3603(4)
O2M O 0.5571(3) 0.6080(4) 0.4091(3)
Cu1F_2 Cu 0.5000 0.5000 0.5000
Cu1E_2 Cu 0.5000 1.0000 0.5000
O2N O 0.3920(4) 0.9491(3) 0.4091(3)
C1N C 0.3556(6) 0.8701(4) 0.3603(4)
O1N O 0.3864(4) 0.8060(3) 0.3572(3)
O1L O 0.1940(3) 0.5804(3) 0.3572(3)
C1L C 0.1299(4) 0.4855(4) 0.3603(4)
O2L O 0.0509(3) 0.4429(3) 0.4091(3)
Cu1G_2 Cu -0.0000 0.5000 0.5000
C2T C 0.2657(7) 0.4139(5) 0.1978(5)
H1T H 0.1581 0.3659 0.3389
H2T H 0.0884 0.3740 0.2642
O3B O 0.23662(44) 0.76342(19) 0.2500
O3A O 0.5268(4) 0.76338(44) 0.2500
C2B C 0.2657(7) 0.8518(5) 0.3022(5)
C2U C 0.1482(5) 0.7343(7) 0.1978(5)
H1B H 0.1581 0.7922 0.1611
H2B H 0.0884 0.7144 0.2358
H1U H 0.2078 0.8419 0.3389
H2U H 0.2856 0.9116 0.2642
C2A C 0.5861(5) 0.7343(7) 0.3022(5)
C2S C 0.5861(5) 0.8518(5) 0.1978(5)
H1A H 0.6341 0.8419 0.1611
H2A H 0.6260 0.9116 0.2358
H1S H 0.6341 0.7922 0.3389
H2S H 0.6260 0.7144 0.2642
O2R O 0.0509(3) 0.6080(4) -0.0909(3)
O4L O 0.1576(5) 0.4793(5) 0.0000
C2I C -0.1482(5) 0.2657(7) -0.1978(5)
O3I O -0.23658(19) 0.23662(44) -0.2500
C2N C -0.2657(7) 0.1482(5) -0.3022(5)
H1I H -0.2078 0.1581 -0.3389
H2I H -0.2856 0.0884 -0.2642
H1N H -0.1581 0.2078 -0.1611
H2N H -0.0884 0.2856 -0.2358
O3H O -0.23662(44) 0.5268(4) -0.2500
O3G O -0.5268(4) 0.23658(19) -0.2500
C2H C -0.2657(7) 0.5861(5) -0.1978(5)
C2L C -0.1482(5) 0.5861(5) -0.3022(5)
H1H H -0.1581 0.6341 -0.3389
H2H H -0.0884 0.6260 -0.2642
H1L H -0.2078 0.6341 -0.1611
H2L H -0.2856 0.6260 -0.2358
O2Q O -0.6080(4) 0.4429(3) -0.0909(3)
O2H_2 O -0.6080(4) 0.4429(3) 0.0909(3)
O4A O -0.5207(5) 0.3217(7) 0.0000
O4C O -0.4793(5) 0.6783(7) 0.0000
O2G_2 O -0.4429(3) -0.0509(3) 0.0909(3)
O2K O -0.4429(3) -0.0509(3) -0.0909(3)
O4B O -0.3217(7) 0.1576(5) 0.0000
O4D O -0.6783(7) -0.1576(5) 0.0000
C2G C -0.5861(5) 0.1482(5) -0.1978(5)
C2M C -0.5861(5) 0.2657(7) -0.3022(5)
H1G H -0.6341 0.2078 -0.3389
H2G H -0.6260 0.2856 -0.2642
H1M H -0.6341 0.1581 -0.1611
H2M H -0.6260 0.0884 -0.2358
H3J H -0.179(5) 0.460(6) -0.046(5)
H3V H 0.179(5) 0.540(6) 0.046(5)
H3L H 0.179(5) 0.540(6) -0.046(5)
H3A H -0.460(6) 0.361(8) 0.046(5)
H3O H -0.460(6) 0.361(8) -0.046(5)
H3C H -0.540(6) 0.639(8) 0.046(5)
H3M H -0.540(6) 0.639(8) -0.046(5)
H3P H -0.361(8) 0.179(5) -0.046(5)
H3B H -0.361(8) 0.179(5) 0.046(5)
H3D H -0.639(8) -0.179(5) 0.046(5)
H3N H -0.639(8) -0.179(5) -0.046(5)
O5 O -0.744(3) 0.192(3) -1.0000
O6 O -0.151(3) 0.834(3) -0.680(3)
loop_
_geom_bond_atom_site_label_1
_geom_bond_atom_site_label_2
_geom_bond_site_symmetry_1
_geom_bond_site_symmetry_2
Eu1 O1 1_555 1_555
Cu1 O2S 1_555 1_555
O1 C1 1_555 1_555
O2 C1 1_555 1_555
O3 C2 1_555 1_555
C1 C2L 1_555 1_555
C2 C1L 1_555 1_555
H1 C2T 1_555 1_555
H2 C2T 1_555 1_555
O4 H3 1_555 1_555
O1A Eu1 1_555 1_555
C1A O1A 1_555 1_555
O2A C1A 1_555 1_555
Cu1F O2A 1_555 1_555
Cu1E O2B 1_555 1_555
O2B C1B 1_555 1_555
C1B O1B 1_555 1_555
O1B Eu1 1_555 1_555
O1S Eu1 1_555 1_555
C1S O1S 1_555 1_555
O2S C1S 1_555 1_555
Cu1G O2 1_555 1_555
O2W Cu1 1_555 1_555
O2E Cu1B 1_555 1_555
Cu1B O2T 1_555 1_555
O2T C1T 1_555 1_555
C1T O1T 1_555 1_555
O1T Eu1 1_555 1_555
O1U Eu1 1_555 1_555
C1U O1U 1_555 1_555
O2U C1U 1_555 1_555
Cu1A O4 1_555 1_555
O2F Cu1A 1_555 1_555
O2I Cu1A 1_555 1_555
C1I O2I 1_555 1_555
O1I C1I 1_555 1_555
Eu1G O3 1_555 1_555
O1G Eu1G 1_555 1_555
C1G O1G 1_555 1_555
O2G C1G 1_555 1_555
Cu1_2 O2G 1_555 1_555
Cu1B_2 O2H 1_555 1_555
O2H C1H 1_555 1_555
C1H O1H 1_555 1_555
O1H Eu1G 1_555 1_555
O1M Eu1G 1_555 1_555
C1M O1M 1_555 1_555
O2M C1M 1_555 1_555
Cu1F_2 O2M 1_555 1_555
Cu1E_2 O2N 1_555 1_555
O2N C1N 1_555 1_555
C1N O1N 1_555 1_555
O1N Eu1G 1_555 1_555
O1L Eu1G 1_555 1_555
C1L O1L 1_555 1_555
O2L C1L 1_555 1_555
Cu1G_2 O2L 1_555 1_555
C2T O3 1_555 1_555
H1T C2 1_555 1_555
H2T C2 1_555 1_555
O3B Eu1G 1_555 1_555
O3A Eu1G 1_555 1_555
C2B C1N 1_555 1_555
C2U C1I 1_555 1_555
H1B C2U 1_555 1_555
H2B C2U 1_555 1_555
H1U C2B 1_555 1_555
H2U C2B 1_555 1_555
C2A C1M 1_555 1_555
C2S C1G 1_555 1_555
H1A C2S 1_555 1_555
H2A C2S 1_555 1_555
H1S C2A 1_555 1_555
H2S C2A 1_555 1_555
O2R Cu1A 1_555 1_555
O4L Cu1A 1_555 1_555
C2I C1U 1_555 1_555
O3I Eu1 1_555 1_555
C2N C1B 1_555 1_555
H1I C2N 1_555 1_555
H2I C2N 1_555 1_555
H1N C2I 1_555 1_555
H2N C2I 1_555 1_555
O3H Eu1 1_555 1_555
O3G Eu1 1_555 1_555
C2H C1T 1_555 1_555
C2L O3H 1_555 1_555
H1H C2L 1_555 1_555
H2H C2L 1_555 1_555
H1L C2H 1_555 1_555
H2L C2H 1_555 1_555
O2Q Cu1B 1_555 1_555
O2H_2 Cu1B 1_555 1_555
O4A Cu1B 1_555 1_555
O4C Cu1B 1_555 1_555
O2G_2 Cu1 1_555 1_555
O2K Cu1 1_555 1_555
O4B Cu1 1_555 1_555
O4D Cu1 1_555 1_555
C2G C1S 1_555 1_555
C2M C1A 1_555 1_555
H1G C2M 1_555 1_555
H2G C2M 1_555 1_555
H1M C2G 1_555 1_555
H2M C2G 1_555 1_555
H3J O4 1_555 1_555
H3V O4L 1_555 1_555
H3L O4L 1_555 1_555
H3A O4A 1_555 1_555
H3O O4A 1_555 1_555
H3C O4C 1_555 1_555
H3M O4C 1_555 1_555
H3P O4B 1_555 1_555
H3B O4B 1_555 1_555
H3D O4D 1_555 1_555
H3N O4D 1_555 1_555
O2U Cu1A 1_555 1_555
O1I Eu1G 1_555 1_555
C1H C2T 1_555 1_555
O3B C2U 1_555 1_555
O3B C2B 1_555 1_555
O3A C2S 1_555 1_555
O3A C2A 1_555 1_555
C2I O3I 1_555 1_555
O3I C2N 1_555 1_555
O3H C2H 1_555 1_555
O3G C2M 1_555 1_555
O3G C2G 1_555 1_555

#END
