
#######################################################################
#
#                 Cambridge Crystallographic Data Centre
#                                CCDC 
#
#######################################################################
#
# If this CIF has been generated from an entry in the Cambridge 
# Structural Database, then it will include bibliographic, chemical, 
# crystal, experimental, refinement or atomic coordinate data resulting 
# from the CCDC's data processing and validation procedures.
#
#######################################################################

data_NAFGOR
_chemical_formula_moiety         '(C16 H21 Co2 N9 O1)n'
_symmetry_cell_setting           orthorhombic
_symmetry_space_group_name_H-M   'P b c a'
_symmetry_Int_Tables_number      61
_space_group_name_Hall           '-P 2ac 2ab'
loop_
_symmetry_equiv_pos_site_id
_symmetry_equiv_pos_as_xyz
1 x,y,z
2 1/2+x,y,1/2-z
3 x,1/2-y,1/2+z
4 1/2-x,1/2+y,z
5 -x,-y,-z
6 1/2-x,-y,1/2+z
7 -x,1/2+y,1/2-z
8 1/2+x,1/2-y,-z
_cell_length_a                   15.173(4)
_cell_length_b                   15.173(4)
_cell_length_c                   19.089(5)
_cell_angle_alpha                90
_cell_angle_beta                 90
_cell_angle_gamma                90
_cell_volume                     4394.67
loop_
_atom_site_label
_atom_site_type_symbol
_atom_site_fract_x
_atom_site_fract_y
_atom_site_fract_z
_atom_site_U_iso_or_equiv
_atom_site_thermal_displace_type
Co1 Co 0.20110(5) 0.11874(5) 0.59851(3) 0.0532 Uani
Co2 Co 0.02112(5) 0.19148(5) 0.32800(3) 0.0545 Uani
N1 N 0.1776(3) 0.1240(3) 0.4967(2) 0.0577 Uani
N2 N 0.1115(3) 0.1542(3) 0.3957(2) 0.0580 Uani
N3 N 0.0736(3) 0.2871(3) 0.7346(2) 0.0600 Uani
N4 N 0.1396(3) 0.2170(3) 0.6471(2) 0.0570 Uani
N5 N 0.0685(3) -0.0954(3) 0.6796(2) 0.0583 Uani
N6 N 0.1593(3) 0.0099(3) 0.6458(2) 0.0563 Uani
N7 N 0.3292(3) 0.1338(3) 0.6126(2) 0.0573 Uani
N8 N 0.4516(3) 0.2072(3) 0.6384(2) 0.0553 Uani
C1 C 0.1068(4) 0.1548(4) 0.4634(3) 0.0633 Uani
H1 H 0.0574 0.1753 0.4872 0.0760 Uiso
C2 C 0.2318(5) 0.1042(5) 0.4439(3) 0.1033 Uani
H2 H 0.2886 0.0820 0.4489 0.1240 Uiso
C3 C 0.1920(5) 0.1211(5) 0.3824(3) 0.1003 Uani
H3 H 0.2160 0.1115 0.3383 0.1200 Uiso
C4 C 0.1101(4) 0.2137(4) 0.7115(3) 0.0653 Uani
H4 H 0.1145 0.1633 0.7389 0.0790 Uiso
C5 C 0.0609(9) 0.3358(8) 0.6712(6) 0.0590 Uiso
H5 H 0.0307 0.3890 0.6672 0.0710 Uiso
C6 C 0.0992(9) 0.2929(8) 0.6190(7) 0.0680 Uiso
H6 H 0.0994 0.3098 0.5722 0.0820 Uiso
C7 C 0.0892(4) -0.0378(4) 0.6319(3) 0.0603 Uani
H7 H 0.0567 -0.0310 0.5910 0.0720 Uiso
C8 C 0.1315(5) -0.0849(5) 0.7285(3) 0.0963 Uani
H8 H 0.1359 -0.1167 0.7700 0.1160 Uiso
C9 C 0.1863(5) -0.0216(4) 0.7079(3) 0.0900 Uani
H9 H 0.2355 -0.0023 0.7326 0.1080 Uiso
C10 C 0.3649(4) 0.2085(4) 0.6327(2) 0.0543 Uani
H10 H 0.3316 0.2586 0.6422 0.0650 Uiso
C11 C 0.4730(4) 0.1225(4) 0.6198(4) 0.0827 Uani
H11 H 0.5297 0.0992 0.6187 0.0990 Uiso
C12 C 0.3989(4) 0.0788(4) 0.6034(3) 0.0813 Uani
H12 H 0.3958 0.0207 0.5883 0.0980 Uiso
N3B N 0.0736(3) 0.2129(3) 0.2346(2) 0.0600 Uani
N5D N -0.0685(3) 0.0954(3) 0.3204(2) 0.0583 Uani
N8G N -0.0484(3) 0.2928(3) 0.3616(2) 0.0553 Uani
Co2B Co 0.02112(5) 0.30852(5) 0.82800(3) 0.0545 Uani
Co2D Co -0.02112(5) -0.19148(5) 0.67200(3) 0.0545 Uani
Co2G Co 0.52112(5) 0.30852(5) 0.67200(3) 0.0545 Uani
N9 N 0.1548(6) -0.1435(6) 0.3822(5) 0.1960 Uiso
O1 O 0.2927(6) -0.1155(6) 0.3465(5) 0.2420 Uiso
C15 C 0.2427(9) -0.1311(9) 0.3991(6) 0.2560 Uiso
C16 C 0.2533(8) -0.1382(8) 0.4741(6) 0.2170 Uiso
H15 H 0.3145 -0.1328 0.4859 0.3260 Uiso
H16 H 0.2317 -0.1944 0.4896 0.3260 Uiso
H17 H 0.2206 -0.0921 0.4967 0.3260 Uiso
C17 C 0.0932(9) -0.1253(8) 0.4408(7) 0.2670 Uiso
H18 H 0.1199 -0.1428 0.4842 0.4010 Uiso
H19 H 0.0397 -0.1579 0.4338 0.4010 Uiso
H20 H 0.0802 -0.0634 0.4422 0.4010 Uiso
C18 C 0.1216(9) -0.1201(9) 0.3124(6) 0.2510 Uiso
H21 H 0.1651 -0.1344 0.2778 0.3770 Uiso
H22 H 0.1093 -0.0580 0.3108 0.3770 Uiso
H23 H 0.0685 -0.1524 0.3031 0.3770 Uiso
loop_
_atom_site_aniso_label
_atom_site_aniso_U_11
_atom_site_aniso_U_22
_atom_site_aniso_U_33
_atom_site_aniso_U_23
_atom_site_aniso_U_13
_atom_site_aniso_U_12
Co1 0.0500(5) 0.0586(5) 0.0509(4) -0.0008(3) 0.0008(4) -0.0034(4)
Co2 0.0473(4) 0.0633(5) 0.0529(4) 0.0076(4) 0.0024(4) 0.0000(4)
N1 0.050(3) 0.068(3) 0.055(3) 0.000(2) 0.002(2) 0.003(2)
N2 0.052(3) 0.068(3) 0.054(3) 0.004(2) 0.004(2) 0.010(2)
N3 0.056 0.064 0.06 0 0.005 0.003
N4 0.062 0.058 0.051 0.001 0.006 0.002
N5 0.059 0.056 0.06 0.009 -0.003 -0.003
N6 0.053 0.062 0.054 0.002 -0.003 -0.007
N7 0.047(3) 0.060(3) 0.065(3) -0.004(2) -0.003(2) -0.005(2)
N8 0.044(3) 0.064(3) 0.058(3) 0.004(2) -0.004(2) 0.001(2)
C1 0.046(4) 0.095(4) 0.049(3) 0.005(3) 0.014(3) 0.005(3)
C2 0.089(5) 0.156(7) 0.065(4) 0.000(4) 0.007(4) 0.070(5)
C3 0.087(5) 0.159(7) 0.055(4) -0.004(4) 0.006(4) 0.056(5)
C4 0.075 0.07 0.051 0.001 0.004 0.014
C7 0.056 0.068 0.057 0.008 -0.006 -0.004
C8 0.118 0.101 0.07 0.034 -0.035 -0.041
C9 0.1 0.086 0.084 0.022 -0.048 -0.035
C10 0.051(4) 0.058(4) 0.054(3) 0.002(3) 0.002(3) 0.005(3)
C11 0.060(4) 0.072(5) 0.116(6) -0.006(4) -0.013(4) 0.015(4)
C12 0.066(5) 0.058(4) 0.120(5) -0.016(4) -0.007(4) 0.002(4)
N3B 0.056(3) 0.064(3) 0.060(3) 0.000(2) 0.005(2) -0.003(2)
N5D 0.059(3) 0.056(3) 0.060(3) 0.009(2) -0.003(3) -0.003(2)
N8G 0.044 0.064 0.058 0.004 0.004 -0.001
Co2B 0.0473 0.0633 0.0529 -0.0076 0.0024 0
Co2D 0.0473 0.0633 0.0529 0.0076 0.0024 0
Co2G 0.0473 0.0633 0.0529 0.0076 -0.0024 0
loop_
_geom_bond_atom_site_label_1
_geom_bond_atom_site_label_2
_geom_bond_site_symmetry_1
_geom_bond_site_symmetry_2
Co1 N1 1_555 1_555
Co2 N2 1_555 1_555
N1 C1 1_555 1_555
N2 C1 1_555 1_555
N3 C4 1_555 1_555
N4 Co1 1_555 1_555
N5 C7 1_555 1_555
N6 Co1 1_555 1_555
N7 Co1 1_555 1_555
N8 C10 1_555 1_555
C1 H1 1_555 1_555
C2 N1 1_555 1_555
H2 C2 1_555 1_555
C3 N2 1_555 1_555
H3 C3 1_555 1_555
C4 N4 1_555 1_555
H4 C4 1_555 1_555
C5 N3 1_555 1_555
H5 C5 1_555 1_555
C6 N4 1_555 1_555
H6 C6 1_555 1_555
C7 N6 1_555 1_555
H7 C7 1_555 1_555
C8 N5 1_555 1_555
H8 C8 1_555 1_555
C9 N6 1_555 1_555
H9 C9 1_555 1_555
C10 N7 1_555 1_555
H10 C10 1_555 1_555
C11 N8 1_555 1_555
H11 C11 1_555 1_555
C12 N7 1_555 1_555
H12 C12 1_555 1_555
N9 C15 1_555 1_555
O1 C15 1_555 1_555
C15 C16 1_555 1_555
C16 H15 1_555 1_555
H16 C16 1_555 1_555
H17 C16 1_555 1_555
C17 N9 1_555 1_555
H18 C17 1_555 1_555
H19 C17 1_555 1_555
H20 C17 1_555 1_555
C18 N9 1_555 1_555
H21 C18 1_555 1_555
H22 C18 1_555 1_555
H23 C18 1_555 1_555
N3B Co2 1_555 1_555
N5D Co2 1_555 1_555
N8G Co2 1_555 1_555
Co2B N3 1_555 1_555
Co2D N5 1_555 1_555
Co2G N8 1_555 1_555
C2 C3 1_555 1_555
C5 C6 1_555 1_555
C8 C9 1_555 1_555
C11 C12 1_555 1_555

#END
