
#######################################################################
#
#                 Cambridge Crystallographic Data Centre
#                                CCDC 
#
#######################################################################
#
# If this CIF has been generated from an entry in the Cambridge 
# Structural Database, then it will include bibliographic, chemical, 
# crystal, experimental, refinement or atomic coordinate data resulting 
# from the CCDC's data processing and validation procedures.
#
#######################################################################

data_NIYJAI
_chemical_formula_moiety         '(C66 H70 Br2 Cd1 Cl6 N4 O4 S4)n'
_symmetry_cell_setting           monoclinic
_symmetry_space_group_name_H-M   'C 2/c'
_symmetry_Int_Tables_number      15
_space_group_name_Hall           '-C 2yc'
loop_
_symmetry_equiv_pos_site_id
_symmetry_equiv_pos_as_xyz
1 x,y,z
2 -x,y,1/2-z
3 1/2+x,1/2+y,z
4 1/2-x,1/2+y,1/2-z
5 -x,-y,-z
6 x,-y,1/2+z
7 1/2-x,1/2-y,-z
8 1/2+x,1/2-y,1/2+z
_cell_length_a                   27.1683(11)
_cell_length_b                   15.3846(5)
_cell_length_c                   19.2713(9)
_cell_angle_alpha                90
_cell_angle_beta                 98.162(2)
_cell_angle_gamma                90
_cell_volume                     7973.3
loop_
_atom_site_label
_atom_site_type_symbol
_atom_site_fract_x
_atom_site_fract_y
_atom_site_fract_z
_atom_site_U_iso_or_equiv
_atom_site_thermal_displace_type
Cd1 Cd 0.2500 0.7500 0.5000 0.0254 Uani
Br1 Br 0.18388(2) 0.64376(4) 0.42336(3) 0.0368 Uani
S1 S 0.5000 0.88248(11) 0.2500 0.0258 Uani
C1 C 0.53018(16) 0.8135(3) 0.3163(3) 0.0220 Uani
C2 C 0.50538(16) 0.7491(3) 0.3487(3) 0.0216 Uani
C3 C 0.53214(17) 0.7008(3) 0.4027(3) 0.0230 Uani
C4 C 0.58149(17) 0.7226(3) 0.4275(3) 0.0255 Uani
H1 H 0.5993 0.6895 0.4645 0.0300 Uiso
C5 C 0.60506(17) 0.7921(3) 0.3991(3) 0.0257 Uani
C6 C 0.57943(17) 0.8344(3) 0.3425(3) 0.0233 Uani
H2 H 0.5956 0.8792 0.3204 0.0280 Uiso
O1 O 0.45509(12) 0.7359(2) 0.3299(2) 0.0240 Uani
C7 C 0.42888(19) 0.7922(4) 0.3731(3) 0.0334 Uani
H3 H 0.4360 0.8538 0.3635 0.0400 Uiso
H4 H 0.4404 0.7807 0.4233 0.0400 Uiso
C8 C 0.37373(18) 0.7756(4) 0.3570(3) 0.0321 Uani
C9 C 0.34609(18) 0.7747(4) 0.4116(3) 0.0306 Uani
H5 H 0.3630 0.7806 0.4580 0.0360 Uiso
N1 N 0.29627(16) 0.7657(3) 0.4027(3) 0.0313 Uani
C10 C 0.2733(2) 0.7568(4) 0.3376(4) 0.0386 Uani
H6 H 0.2382 0.7503 0.3303 0.0460 Uiso
C11 C 0.2982(2) 0.7566(6) 0.2802(4) 0.0508 Uani
H7 H 0.2805 0.7508 0.2343 0.0610 Uiso
C12 C 0.3497(2) 0.7648(5) 0.2904(4) 0.0458 Uani
H8 H 0.3678 0.7629 0.2517 0.0550 Uiso
C13 C 0.65810(19) 0.8188(4) 0.4305(3) 0.0329 Uani
C14 C 0.6933(2) 0.7430(4) 0.4247(4) 0.0416 Uani
H9 H 0.7275 0.7613 0.4413 0.0620 Uiso
H10 H 0.6908 0.7245 0.3756 0.0620 Uiso
H11 H 0.6844 0.6945 0.4534 0.0620 Uiso
C15 C 0.6768(2) 0.8973(4) 0.3919(4) 0.0452 Uani
H12 H 0.6540 0.9463 0.3937 0.0680 Uiso
H13 H 0.6782 0.8817 0.3430 0.0680 Uiso
H14 H 0.7100 0.9137 0.4147 0.0680 Uiso
C16 C 0.6586(3) 0.8439(5) 0.5078(4) 0.0518 Uani
H15 H 0.6437 0.7970 0.5322 0.0770 Uiso
H16 H 0.6395 0.8975 0.5106 0.0770 Uiso
H17 H 0.6930 0.8531 0.5298 0.0770 Uiso
S2 S 0.50367(5) 0.62185(9) 0.45109(7) 0.0286 Uani
C17 C 0.47130(17) 0.5506(3) 0.3877(3) 0.0227 Uani
C18 C 0.49685(17) 0.4967(3) 0.3474(3) 0.0235 Uani
C19 C 0.46976(18) 0.4367(3) 0.3021(3) 0.0243 Uani
C20 C 0.41910(18) 0.4283(3) 0.3012(3) 0.0270 Uani
H18 H 0.4013 0.3875 0.2702 0.0320 Uiso
C21 C 0.39324(17) 0.4782(3) 0.3446(3) 0.0252 Uani
C22 C 0.42005(17) 0.5412(3) 0.3857(3) 0.0229 Uani
H19 H 0.4030 0.5790 0.4132 0.0280 Uiso
O2 O 0.54803(12) 0.5009(2) 0.3523(2) 0.0266 Uani
C23 C 0.57046(19) 0.4376(4) 0.4017(3) 0.0355 Uani
H20 H 0.5594 0.3787 0.3859 0.0430 Uiso
H21 H 0.5598 0.4481 0.4480 0.0430 Uiso
C24 C 0.62610(18) 0.4431(4) 0.4082(3) 0.0276 Uani
C25 C 0.65373(19) 0.3726(4) 0.4343(3) 0.0296 Uani
H22 H 0.6365 0.3207 0.4425 0.0350 Uiso
N2 N 0.70376(16) 0.3724(3) 0.4491(3) 0.0312 Uani
C26 C 0.72732(19) 0.4449(4) 0.4340(3) 0.0331 Uani
H23 H 0.7626 0.4466 0.4442 0.0400 Uiso
C27 C 0.7029(2) 0.5168(4) 0.4045(4) 0.0390 Uani
H24 H 0.7211 0.5660 0.3926 0.0470 Uiso
C28 C 0.6513(2) 0.5168(4) 0.3922(4) 0.0354 Uani
H25 H 0.6336 0.5666 0.3732 0.0430 Uiso
C29 C 0.3379(3) 0.4624(8) 0.3481(6) 0.0833 Uani
C30 C 0.3350(3) 0.3907(8) 0.4025(6) 0.0833 Uani
H26 H 0.3534 0.4087 0.4476 0.1250 Uiso
H27 H 0.3495 0.3371 0.3868 0.1250 Uiso
H28 H 0.3001 0.3804 0.4078 0.1250 Uiso
C31 C 0.3115(3) 0.4254(8) 0.2832(6) 0.0833 Uani
H29 H 0.3255 0.3682 0.2750 0.1250 Uiso
H30 H 0.3152 0.4640 0.2439 0.1250 Uiso
H31 H 0.2761 0.4192 0.2875 0.1250 Uiso
C32 C 0.3121(3) 0.5377(8) 0.3760(6) 0.0833 Uani
H32 H 0.3201 0.5911 0.3521 0.1250 Uiso
H33 H 0.3231 0.5435 0.4264 0.1250 Uiso
H34 H 0.2761 0.5281 0.3677 0.1250 Uiso
S3 S 0.5000 0.36429(12) 0.2500 0.0316 Uani
C1A C 0.46982(16) 0.8135(3) 0.1837(3) 0.0220 Uani
C2A C 0.49462(16) 0.7491(3) 0.1513(3) 0.0216 Uani
C3A C 0.46786(17) 0.7008(3) 0.0973(3) 0.0230 Uani
C4A C 0.41851(17) 0.7226(3) 0.0725(3) 0.0255 Uani
H1A H 0.4007 0.6895 0.0355 0.0300 Uiso
C5A C 0.39494(17) 0.7921(3) 0.1009(3) 0.0257 Uani
C6A C 0.42057(17) 0.8344(3) 0.1575(3) 0.0233 Uani
H2A H 0.4044 0.8792 0.1796 0.0280 Uiso
O1A O 0.54491(12) 0.7359(2) 0.1701(2) 0.0240 Uani
C7A C 0.57112(19) 0.7922(4) 0.1269(3) 0.0334 Uani
H3A H 0.5640 0.8538 0.1365 0.0400 Uiso
H4A H 0.5596 0.7807 0.0767 0.0400 Uiso
C8A C 0.62627(18) 0.7756(4) 0.1430(3) 0.0321 Uani
C9A C 0.65391(18) 0.7747(4) 0.0884(3) 0.0306 Uani
H5A H 0.6370 0.7806 0.0420 0.0360 Uiso
N1A N 0.70373(16) 0.7657(3) 0.0973(3) 0.0313 Uani
C10A C 0.7267(2) 0.7568(4) 0.1624(4) 0.0386 Uani
H6A H 0.7618 0.7503 0.1697 0.0460 Uiso
C11A C 0.7018(2) 0.7566(6) 0.2198(4) 0.0508 Uani
H7A H 0.7195 0.7508 0.2657 0.0610 Uiso
C12A C 0.6503(2) 0.7648(5) 0.2096(4) 0.0458 Uani
H8A H 0.6322 0.7629 0.2483 0.0550 Uiso
C13A C 0.34190(19) 0.8188(4) 0.0695(3) 0.0329 Uani
C14A C 0.3067(2) 0.7430(4) 0.0753(4) 0.0416 Uani
H9A H 0.2725 0.7613 0.0587 0.0620 Uiso
H10A H 0.3092 0.7245 0.1244 0.0620 Uiso
H11A H 0.3156 0.6945 0.0466 0.0620 Uiso
C15A C 0.3232(2) 0.8973(4) 0.1081(4) 0.0452 Uani
H12A H 0.3460 0.9463 0.1063 0.0680 Uiso
H13A H 0.3218 0.8817 0.1570 0.0680 Uiso
H14A H 0.2900 0.9137 0.0853 0.0680 Uiso
C16A C 0.3414(3) 0.8439(5) -0.0078(4) 0.0518 Uani
H15A H 0.3563 0.7970 -0.0322 0.0770 Uiso
H16A H 0.3605 0.8975 -0.0106 0.0770 Uiso
H17A H 0.3070 0.8531 -0.0298 0.0770 Uiso
S2A S 0.49633(5) 0.62185(9) 0.04891(7) 0.0286 Uani
C17A C 0.52870(17) 0.5506(3) 0.1123(3) 0.0227 Uani
C18A C 0.50315(17) 0.4967(3) 0.1526(3) 0.0235 Uani
C19A C 0.53024(18) 0.4367(3) 0.1979(3) 0.0243 Uani
C20A C 0.58090(18) 0.4283(3) 0.1988(3) 0.0270 Uani
H18A H 0.5987 0.3875 0.2298 0.0320 Uiso
C21A C 0.60676(17) 0.4782(3) 0.1554(3) 0.0252 Uani
C22A C 0.57995(17) 0.5412(3) 0.1143(3) 0.0229 Uani
H19A H 0.5970 0.5790 0.0868 0.0280 Uiso
O2A O 0.45197(12) 0.5009(2) 0.1477(2) 0.0266 Uani
C23A C 0.42954(19) 0.4376(4) 0.0983(3) 0.0355 Uani
H20A H 0.4406 0.3787 0.1141 0.0430 Uiso
H21A H 0.4402 0.4481 0.0520 0.0430 Uiso
C24A C 0.37390(18) 0.4431(4) 0.0918(3) 0.0276 Uani
C25A C 0.34627(19) 0.3726(4) 0.0657(3) 0.0296 Uani
H22A H 0.3635 0.3207 0.0575 0.0350 Uiso
N2A N 0.29624(16) 0.3724(3) 0.0509(3) 0.0312 Uani
C26A C 0.27268(19) 0.4449(4) 0.0660(3) 0.0331 Uani
H23A H 0.2374 0.4466 0.0558 0.0400 Uiso
C27A C 0.2971(2) 0.5168(4) 0.0955(4) 0.0390 Uani
H24A H 0.2789 0.5660 0.1074 0.0470 Uiso
C28A C 0.3487(2) 0.5168(4) 0.1078(4) 0.0354 Uani
H25A H 0.3664 0.5666 0.1268 0.0430 Uiso
C29A C 0.6621(3) 0.4624(8) 0.1519(6) 0.0833 Uani
C30A C 0.6650(3) 0.3907(8) 0.0975(6) 0.0833 Uani
H26A H 0.6466 0.4087 0.0524 0.1250 Uiso
H27A H 0.6505 0.3371 0.1132 0.1250 Uiso
H28A H 0.6999 0.3804 0.0922 0.1250 Uiso
C31A C 0.6885(3) 0.4254(8) 0.2168(6) 0.0833 Uani
H29A H 0.6745 0.3682 0.2250 0.1250 Uiso
H30A H 0.6848 0.4640 0.2561 0.1250 Uiso
H31A H 0.7239 0.4192 0.2125 0.1250 Uiso
C32A C 0.6879(3) 0.5377(8) 0.1240(6) 0.0833 Uani
H32A H 0.6799 0.5911 0.1479 0.1250 Uiso
H33A H 0.6769 0.5435 0.0736 0.1250 Uiso
H34A H 0.7239 0.5281 0.1323 0.1250 Uiso
Br1F Br 0.31612(2) 0.85624(4) 0.57664(3) 0.0368 Uani
Cd1A Cd 0.7500 0.7500 0.0000 0.0254 Uani
Cd1B Cd 0.7500 0.2500 0.5000 0.0254 Uani
Cd1C Cd 0.2500 0.2500 0.0000 0.0254 Uani
N1F N 0.20373(16) 0.7343(3) 0.5973(3) 0.0313 Uani
N2B N 0.20376(16) 0.8724(3) 0.4491(3) 0.0312 Uani
N2D N 0.29624(16) 0.6276(3) 0.5509(3) 0.0312 Uani
C33 C 0.4464(4) 0.8874(7) 0.5842(5) 0.0933 Uani
H35 H 0.4133 0.8729 0.5983 0.1120 Uiso
Cl1 Cl 0.4761(3) 0.7945(3) 0.5682(2) 0.1601 Uani
Cl2 Cl 0.4793(3) 0.9486(5) 0.6474(5) 0.2732 Uani
Cl3 Cl 0.4372(2) 0.9551(3) 0.5058(4) 0.1738 Uani
C34 C 0.1515(4) 0.5946(6) 0.2403(5) 0.0904 Uani
Cl4 Cl 0.1946(3) 0.6380(5) 0.1965(4) 0.0918 Uani
Cl5 Cl 0.1328(8) 0.5003(6) 0.2057(7) 0.2455 Uani
Cl6 Cl 0.1025(3) 0.6705(9) 0.2116(13) 0.2773 Uani
loop_
_atom_site_aniso_label
_atom_site_aniso_U_11
_atom_site_aniso_U_22
_atom_site_aniso_U_33
_atom_site_aniso_U_23
_atom_site_aniso_U_13
_atom_site_aniso_U_12
Cd1 0.0138(2) 0.0280(3) 0.0353(3) -0.0005(2) 0.00708(19) 0.00086(17)
Br1 0.0280(3) 0.0381(3) 0.0445(4) -0.0087(2) 0.0062(2) -0.0076(2)
S1 0.0219(8) 0.0231(8) 0.0310(10) 0.000 -0.0009(6) 0.000
C1 0.0158(19) 0.023(2) 0.027(3) -0.0017(18) 0.0028(17) 0.0013(16)
C2 0.0131(18) 0.026(2) 0.026(3) -0.0056(18) 0.0035(17) -0.0008(16)
C3 0.020(2) 0.027(2) 0.022(3) -0.0013(18) 0.0034(17) -0.0029(17)
C4 0.017(2) 0.029(2) 0.029(3) 0.000(2) -0.0022(18) -0.0015(18)
C5 0.0151(19) 0.029(2) 0.032(3) -0.004(2) -0.0006(18) -0.0032(17)
C6 0.017(2) 0.023(2) 0.030(3) 0.0010(19) 0.0033(18) -0.0026(17)
O1 0.0114(14) 0.0330(18) 0.028(2) -0.0007(14) 0.0037(12) -0.0015(12)
C7 0.019(2) 0.040(3) 0.043(4) -0.009(2) 0.011(2) -0.003(2)
C8 0.015(2) 0.040(3) 0.043(4) 0.007(2) 0.010(2) 0.003(2)
C9 0.017(2) 0.035(3) 0.040(3) 0.003(2) 0.005(2) 0.0028(19)
N1 0.0179(19) 0.038(2) 0.040(3) 0.004(2) 0.0108(18) -0.0002(17)
C10 0.018(2) 0.058(4) 0.040(4) 0.014(3) 0.005(2) 0.002(2)
C11 0.025(3) 0.091(6) 0.036(4) 0.012(3) 0.003(2) 0.001(3)
C12 0.027(3) 0.076(5) 0.037(4) 0.010(3) 0.014(2) -0.004(3)
C13 0.019(2) 0.035(3) 0.042(3) 0.004(2) -0.005(2) -0.008(2)
C14 0.022(2) 0.047(4) 0.054(4) 0.005(3) -0.001(2) -0.001(2)
C15 0.027(3) 0.040(3) 0.065(5) 0.004(3) -0.006(3) -0.014(2)
C16 0.041(4) 0.064(5) 0.047(4) -0.017(3) -0.006(3) -0.010(3)
S2 0.0274(6) 0.0344(7) 0.0241(7) 0.0013(5) 0.0040(5) -0.0097(5)
C17 0.018(2) 0.026(2) 0.024(3) 0.0039(18) 0.0028(17) -0.0036(17)
C18 0.0165(19) 0.026(2) 0.029(3) 0.0073(19) 0.0067(18) -0.0009(16)
C19 0.021(2) 0.023(2) 0.030(3) 0.0020(19) 0.0078(19) 0.0020(17)
C20 0.019(2) 0.027(2) 0.035(3) 0.002(2) 0.0040(19) -0.0041(17)
C21 0.019(2) 0.026(2) 0.031(3) 0.0053(19) 0.0050(18) -0.0008(17)
C22 0.018(2) 0.027(2) 0.024(3) -0.0006(18) 0.0043(17) -0.0009(17)
O2 0.0147(14) 0.0313(18) 0.034(2) 0.0088(15) 0.0046(13) -0.0002(13)
C23 0.017(2) 0.044(3) 0.046(4) 0.021(3) 0.006(2) 0.001(2)
C24 0.018(2) 0.032(3) 0.034(3) 0.003(2) 0.0074(19) 0.0025(18)
C25 0.021(2) 0.030(3) 0.038(3) 0.001(2) 0.005(2) 0.0013(19)
N2 0.0188(19) 0.033(2) 0.042(3) -0.001(2) 0.0055(18) 0.0004(16)
C26 0.018(2) 0.033(3) 0.049(4) 0.001(2) 0.007(2) 0.0000(19)
C27 0.024(2) 0.033(3) 0.061(4) 0.002(3) 0.009(3) -0.005(2)
C28 0.022(2) 0.031(3) 0.054(4) 0.008(2) 0.008(2) 0.003(2)
C29 0.0272(17) 0.114(4) 0.112(4) -0.009(3) 0.021(2) -0.013(2)
C30 0.0272(17) 0.114(4) 0.112(4) -0.009(3) 0.021(2) -0.013(2)
C31 0.0272(17) 0.114(4) 0.112(4) -0.009(3) 0.021(2) -0.013(2)
C32 0.0272(17) 0.114(4) 0.112(4) -0.009(3) 0.021(2) -0.013(2)
S3 0.0305(9) 0.0215(8) 0.0466(12) 0.000 0.0183(8) 0.000
C1A 0.0158 0.023 0.027 0.0017 0.0028 -0.0013
C2A 0.0131 0.026 0.026 0.0056 0.0035 0.0008
C3A 0.02 0.027 0.022 0.0013 0.0034 0.0029
C4A 0.017 0.029 0.029 0 -0.0022 0.0015
C5A 0.0151 0.029 0.032 0.004 -0.0006 0.0032
C6A 0.017 0.023 0.03 -0.001 0.0033 0.0026
O1A 0.0114 0.033 0.028 0.0007 0.0037 0.0015
C7A 0.019 0.04 0.043 0.009 0.011 0.003
C8A 0.015 0.04 0.043 -0.007 0.01 -0.003
C9A 0.017 0.035 0.04 -0.003 0.005 -0.0028
N1A 0.0179 0.038 0.04 -0.004 0.0108 0.0002
C10A 0.018 0.058 0.04 -0.014 0.005 -0.002
C11A 0.025 0.091 0.036 -0.012 0.003 -0.001
C12A 0.027 0.076 0.037 -0.01 0.014 0.004
C13A 0.019 0.035 0.042 -0.004 -0.005 0.008
C14A 0.022 0.047 0.054 -0.005 -0.001 0.001
C15A 0.027 0.04 0.065 -0.004 -0.006 0.014
C16A 0.041 0.064 0.047 0.017 -0.006 0.01
S2A 0.0274 0.0344 0.0241 -0.0013 0.004 0.0097
C17A 0.018 0.026 0.024 -0.0039 0.0028 0.0036
C18A 0.0165 0.026 0.029 -0.0073 0.0067 0.0009
C19A 0.021 0.023 0.03 -0.002 0.0078 -0.002
C20A 0.019 0.027 0.035 -0.002 0.004 0.0041
C21A 0.019 0.026 0.031 -0.0053 0.005 0.0008
C22A 0.018 0.027 0.024 0.0006 0.0043 0.0009
O2A 0.0147 0.0313 0.034 -0.0088 0.0046 0.0002
C23A 0.017 0.044 0.046 -0.021 0.006 -0.001
C24A 0.018 0.032 0.034 -0.003 0.0074 -0.0025
C25A 0.021 0.03 0.038 -0.001 0.005 -0.0013
N2A 0.0188 0.033 0.042 0.001 0.0055 -0.0004
C26A 0.018 0.033 0.049 -0.001 0.007 0
C27A 0.024 0.033 0.061 -0.002 0.009 0.005
C28A 0.022 0.031 0.054 -0.008 0.008 -0.003
C29A 0.0272 0.114 0.112 0.009 0.021 0.013
C30A 0.0272 0.114 0.112 0.009 0.021 0.013
C31A 0.0272 0.114 0.112 0.009 0.021 0.013
C32A 0.0272 0.114 0.112 0.009 0.021 0.013
Br1F 0.028 0.0381 0.0445 -0.0087 0.0062 -0.0076
Cd1A 0.0138 0.028 0.0353 0.0005 0.00708 -0.00086
Cd1B 0.0138 0.028 0.0353 -0.0005 0.00708 0.00086
Cd1C 0.0138 0.028 0.0353 0.0005 0.00708 -0.00086
N1F 0.0179 0.038 0.04 0.004 0.0108 -0.0002
N2B 0.0188 0.033 0.042 -0.001 0.0055 0.0004
N2D 0.0188 0.033 0.042 -0.001 0.0055 0.0004
C33 0.055(5) 0.140(11) 0.085(8) -0.049(7) 0.010(5) -0.002(6)
Cl1 0.285(7) 0.087(2) 0.107(3) -0.028(2) 0.023(3) 0.031(3)
Cl2 0.242(8) 0.219(7) 0.317(10) -0.194(7) -0.104(7) 0.071(6)
Cl3 0.187(5) 0.108(3) 0.244(7) 0.014(4) 0.091(5) 0.019(3)
C34 0.096(8) 0.104(9) 0.069(7) 0.008(6) 0.004(6) -0.053(7)
Cl4 0.103(6) 0.103(5) 0.071(4) -0.006(3) 0.018(3) -0.043(4)
Cl5 0.52(3) 0.076(5) 0.118(8) 0.008(5) -0.032(15) -0.144(12)
Cl6 0.067(5) 0.165(12) 0.59(4) 0.098(17) 0.012(10) 0.028(6)
loop_
_geom_bond_atom_site_label_1
_geom_bond_atom_site_label_2
_geom_bond_site_symmetry_1
_geom_bond_site_symmetry_2
Cd1 Br1 1_555 1_555
S1 C1 1_555 1_555
C1 C2 1_555 1_555
C2 C3 1_555 1_555
C3 C4 1_555 1_555
C4 H1 1_555 1_555
C5 C4 1_555 1_555
C6 C1 1_555 1_555
H2 C6 1_555 1_555
O1 C2 1_555 1_555
C7 O1 1_555 1_555
H3 C7 1_555 1_555
H4 C7 1_555 1_555
C8 C7 1_555 1_555
C9 C8 1_555 1_555
H5 C9 1_555 1_555
N1 Cd1 1_555 1_555
C10 N1 1_555 1_555
H6 C10 1_555 1_555
C11 C10 1_555 1_555
H7 C11 1_555 1_555
C12 C8 1_555 1_555
H8 C12 1_555 1_555
C13 C5 1_555 1_555
C14 C13 1_555 1_555
H9 C14 1_555 1_555
H10 C14 1_555 1_555
H11 C14 1_555 1_555
C15 C13 1_555 1_555
H12 C15 1_555 1_555
H13 C15 1_555 1_555
H14 C15 1_555 1_555
C16 C13 1_555 1_555
H15 C16 1_555 1_555
H16 C16 1_555 1_555
H17 C16 1_555 1_555
S2 C3 1_555 1_555
C17 S2 1_555 1_555
C18 C17 1_555 1_555
C19 C18 1_555 1_555
C20 C19 1_555 1_555
H18 C20 1_555 1_555
C21 C20 1_555 1_555
C22 C17 1_555 1_555
H19 C22 1_555 1_555
O2 C18 1_555 1_555
C23 O2 1_555 1_555
H20 C23 1_555 1_555
H21 C23 1_555 1_555
C24 C23 1_555 1_555
C25 C24 1_555 1_555
H22 C25 1_555 1_555
N2 C25 1_555 1_555
C26 N2 1_555 1_555
H23 C26 1_555 1_555
C27 C26 1_555 1_555
H24 C27 1_555 1_555
C28 C24 1_555 1_555
H25 C28 1_555 1_555
C29 C21 1_555 1_555
C30 C29 1_555 1_555
H26 C30 1_555 1_555
H27 C30 1_555 1_555
H28 C30 1_555 1_555
C31 C29 1_555 1_555
H29 C31 1_555 1_555
H30 C31 1_555 1_555
H31 C31 1_555 1_555
C32 C29 1_555 1_555
H32 C32 1_555 1_555
H33 C32 1_555 1_555
H34 C32 1_555 1_555
S3 C19 1_555 1_555
C33 H35 1_555 1_555
Cl1 C33 1_555 1_555
Cl2 C33 1_555 1_555
Cl3 C33 1_555 1_555
C34 Cl4 1_555 1_555
Cl5 C34 1_555 1_555
Cl6 C34 1_555 1_555
C1A S1 1_555 1_555
C2A C1A 1_555 1_555
C3A C2A 1_555 1_555
C4A C3A 1_555 1_555
H1A C4A 1_555 1_555
C5A C4A 1_555 1_555
C6A C1A 1_555 1_555
H2A C6A 1_555 1_555
O1A C2A 1_555 1_555
C7A O1A 1_555 1_555
H3A C7A 1_555 1_555
H4A C7A 1_555 1_555
C8A C7A 1_555 1_555
C9A C8A 1_555 1_555
H5A C9A 1_555 1_555
N1A C9A 1_555 1_555
C10A N1A 1_555 1_555
H6A C10A 1_555 1_555
C11A C10A 1_555 1_555
H7A C11A 1_555 1_555
C12A C8A 1_555 1_555
H8A C12A 1_555 1_555
C13A C5A 1_555 1_555
C14A C13A 1_555 1_555
H9A C14A 1_555 1_555
H10A C14A 1_555 1_555
H11A C14A 1_555 1_555
C15A C13A 1_555 1_555
H12A C15A 1_555 1_555
H13A C15A 1_555 1_555
H14A C15A 1_555 1_555
C16A C13A 1_555 1_555
H15A C16A 1_555 1_555
H16A C16A 1_555 1_555
H17A C16A 1_555 1_555
S2A C3A 1_555 1_555
C17A S2A 1_555 1_555
C18A C17A 1_555 1_555
C19A S3 1_555 1_555
C20A C19A 1_555 1_555
H18A C20A 1_555 1_555
C21A C20A 1_555 1_555
C22A C17A 1_555 1_555
H19A C22A 1_555 1_555
O2A C18A 1_555 1_555
C23A O2A 1_555 1_555
H20A C23A 1_555 1_555
H21A C23A 1_555 1_555
C24A C23A 1_555 1_555
C25A C24A 1_555 1_555
H22A C25A 1_555 1_555
N2A C25A 1_555 1_555
C26A N2A 1_555 1_555
H23A C26A 1_555 1_555
C27A C26A 1_555 1_555
H24A C27A 1_555 1_555
C28A C24A 1_555 1_555
H25A C28A 1_555 1_555
C29A C21A 1_555 1_555
C30A C29A 1_555 1_555
H26A C30A 1_555 1_555
H27A C30A 1_555 1_555
H28A C30A 1_555 1_555
C31A C29A 1_555 1_555
H29A C31A 1_555 1_555
H30A C31A 1_555 1_555
H31A C31A 1_555 1_555
C32A C29A 1_555 1_555
H32A C32A 1_555 1_555
H33A C32A 1_555 1_555
H34A C32A 1_555 1_555
Br1F Cd1 1_555 1_555
Cd1A N1A 1_555 1_555
Cd1B N2 1_555 1_555
Cd1C N2A 1_555 1_555
N1F Cd1 1_555 1_555
N2B Cd1 1_555 1_555
N2D Cd1 1_555 1_555
C5 C6 1_555 1_555
C9 N1 1_555 1_555
C11 C12 1_555 1_555
C21 C22 1_555 1_555
C27 C28 1_555 1_555
C5A C6A 1_555 1_555
C11A C12A 1_555 1_555
C18A C19A 1_555 1_555
C21A C22A 1_555 1_555
C27A C28A 1_555 1_555

#END
