
#######################################################################
#
#                 Cambridge Crystallographic Data Centre
#                                CCDC 
#
#######################################################################
#
# If this CIF has been generated from an entry in the Cambridge 
# Structural Database, then it will include bibliographic, chemical, 
# crystal, experimental, refinement or atomic coordinate data resulting 
# from the CCDC's data processing and validation procedures.
#
#######################################################################

data_CACKEZ
_chemical_formula_moiety         '(C52 H32 N8 O16 Zn2)n'
_symmetry_cell_setting           monoclinic
_symmetry_space_group_name_H-M   'P 21/c'
_symmetry_Int_Tables_number      14
_space_group_name_Hall           '-P 2ybc'
loop_
_symmetry_equiv_pos_site_id
_symmetry_equiv_pos_as_xyz
1 x,y,z
2 -x,1/2+y,1/2-z
3 -x,-y,-z
4 x,1/2-y,1/2+z
_cell_length_a                   19.13(3)
_cell_length_b                   26.34(4)
_cell_length_c                   11.628(17)
_cell_angle_alpha                90
_cell_angle_beta                 90.671(18)
_cell_angle_gamma                90
_cell_volume                     5858.76
loop_
_atom_site_label
_atom_site_type_symbol
_atom_site_fract_x
_atom_site_fract_y
_atom_site_fract_z
N1 N 0.1097(3) 1.01756(19) 0.6467(3)
C1 C 0.0560(3) 0.98339(19) 0.6676(4)
H1 H 0.0385 0.9633 0.6081
C2 C 0.0284(3) 0.9793(2) 0.7772(4)
H2 H -0.0076 0.9564 0.7911
C3 C 0.0545(3) 1.0094(3) 0.8660(3)
C4 C 0.1083(4) 1.0436(2) 0.8452(4)
H3 H 0.1257 1.0637 0.9046
C5 C 0.1359(3) 1.0476(2) 0.7355(5)
H4 H 0.1718 1.0705 0.7216
C6 C 0.0287(5) 1.0098(3) 0.9859(7)
H5 H 0.0561 1.0252 1.0426
N2 N 0.2515(3) 1.0196(2) 0.4807(6)
C7 C 0.2778(3) 0.9762(2) 0.4289(8)
H6 H 0.2476 0.9535 0.3924
C8 C 0.3493(3) 0.96661(13) 0.4318(9)
H7 H 0.3669 0.9376 0.3972
C9 C 0.3944(2) 1.0005(2) 0.4865(9)
C10 C 0.3680(3) 1.0439(3) 0.5383(9)
H8 H 0.3982 1.0666 0.5749
C11 C 0.2966(3) 1.0535(3) 0.5354(8)
H9 H 0.2790 1.0825 0.5701
C12 C 0.4690(5) 0.9917(3) 0.4740(13)
H10 H 0.4777 0.9688 0.4151
C13 C 0.1130(4) 0.9544(3) 0.3095(7)
C14 C 0.0755(4) 0.9074(3) 0.2605(5)
C15 C 0.0332(5) 0.8797(3) 0.3245(7)
H11 H 0.0257 0.8896 0.4001
C16 C -0.0011(6) 0.8353(4) 0.2827(7)
H12 H -0.0306 0.8174 0.3312
C17 C 0.0084(5) 0.8181(3) 0.1705(6)
C18 C 0.0511(5) 0.8498(3) 0.1017(5)
C19 C 0.0841(5) 0.8918(3) 0.1496(5)
H13 H 0.1139 0.9105 0.1033
C20 C -0.1195(5) 0.6220(3) 0.0460(9)
C21 C -0.0876(4) 0.6732(3) 0.0761(7)
C22 C -0.0325(6) 0.6781(3) 0.1516(8)
H14 H -0.0138 0.6489 0.1853
C23 C -0.0040(6) 0.7240(4) 0.1794(8)
H15 H 0.0317 0.7250 0.2344
C24 C -0.0255(5) 0.7690(3) 0.1296(7)
C25 C -0.0799(5) 0.7647(3) 0.0528(9)
C26 C -0.1093(5) 0.7163(4) 0.0218(8)
H16 H -0.1433 0.7144 -0.0358
N3 N 0.0656(4) 0.8365(3) -0.0202(7)
N4 N -0.1055(7) 0.8124(6) -0.0094(14)
O1 O 0.1040(3) 0.96114(19) 0.4170(4)
O2 O 0.1431(4) 0.9814(2) 0.2413(6)
O3 O -0.1700(4) 0.6224(3) -0.0296(7)
O4 O -0.0961(3) 0.58237(18) 0.0881(5)
O5 O 0.0664(5) 0.7923(3) -0.0432(6)
O6 O 0.0755(8) 0.8708(4) -0.0844(8)
O7 O -0.1449(9) 0.8029(5) -0.0981(15)
O8 O -0.0817(10) 0.8532(6) -0.0092(13)
Zn1 Zn 0.14496(4) 1.02523(3) 0.47754(7)
N1B N -0.1097(3) 0.98244(19) 1.3533(3)
C1B C -0.0560(3) 1.01661(19) 1.3324(4)
H1B H -0.0385 1.0367 1.3919
C2B C -0.0284(3) 1.0207(2) 1.2228(4)
H2B H 0.0076 1.0436 1.2089
C3B C -0.0545(3) 0.9906(3) 1.1340(3)
C4B C -0.1083(4) 0.9564(2) 1.1548(4)
H3B H -0.1257 0.9363 1.0954
C5B C -0.1359(3) 0.9524(2) 1.2645(5)
H4B H -0.1718 0.9295 1.2784
C6B C -0.0287(5) 0.9902(3) 1.0141(7)
H5B H -0.0561 0.9748 0.9574
N2B N 0.7485(3) 0.9804(2) 0.5193(6)
C7B C 0.7222(3) 1.0238(2) 0.5711(8)
H6B H 0.7524 1.0465 0.6076
C8B C 0.6507(3) 1.03339(13) 0.5682(9)
H7B H 0.6331 1.0624 0.6028
C9B C 0.6056(2) 0.9995(2) 0.5135(9)
C10B C 0.6320(3) 0.9561(3) 0.4617(9)
H8B H 0.6018 0.9334 0.4251
C11B C 0.7034(3) 0.9465(3) 0.4646(8)
H9B H 0.7210 0.9175 0.4299
C12B C 0.5310(5) 1.0083(3) 0.5260(13)
H10B H 0.5223 1.0312 0.5849
C13B C -0.1130(4) 1.0456(3) 1.6905(7)
C14B C -0.0755(4) 1.0926(3) 1.7395(5)
C15B C -0.0332(5) 1.1203(3) 1.6755(7)
H11B H -0.0257 1.1104 1.5999
C16B C 0.0011(6) 1.1647(4) 1.7173(7)
H12B H 0.0306 1.1826 1.6688
C17B C -0.0084(5) 1.1819(3) 1.8295(6)
C18B C -0.0511(5) 1.1502(3) 1.8983(5)
C19B C -0.0841(5) 1.1082(3) 1.8504(5)
H13B H -0.1139 1.0895 1.8967
C20B C 0.1195(5) 1.3780(3) 1.9540(9)
C21B C 0.0876(4) 1.3268(3) 1.9239(7)
C22B C 0.0325(6) 1.3219(3) 1.8484(8)
H14B H 0.0138 1.3511 1.8147
C23B C 0.0040(6) 1.2760(4) 1.8206(8)
H15B H -0.0317 1.2750 1.7656
C24B C 0.0255(5) 1.2310(3) 1.8704(7)
C25B C 0.0799(5) 1.2353(3) 1.9472(9)
C26B C 0.1093(5) 1.2837(4) 1.9782(8)
H16B H 0.1433 1.2856 2.0358
N3B N -0.0656(4) 1.1635(3) 2.0202(7)
N4B N 0.1055(7) 1.1876(6) 2.0094(14)
O1B O -0.1040(3) 1.03886(19) 1.5830(4)
O2B O -0.1431(4) 1.0186(2) 1.7587(6)
O3B O 0.1700(4) 1.3776(3) 2.0296(7)
O4B O 0.0961(3) 1.41763(18) 1.9119(5)
O5B O -0.0664(5) 1.2077(3) 2.0432(6)
O6B O -0.0755(8) 1.1292(4) 2.0844(8)
O7B O 0.1449(9) 1.1971(5) 2.0981(15)
O8B O 0.0817(10) 1.1468(6) 2.0092(13)
Zn1B Zn -0.14496(4) 0.97477(3) 1.52246(7)
N2B_2 N -0.2515(3) 0.9804(2) 1.5193(6)
O4A O 0.0961(3) 1.08237(18) 0.4119(5)
O4C O -0.0961(3) 0.91763(18) 1.5881(5)
Zn1A Zn -0.14496(4) 0.52523(3) 0.02246(7)
Zn1B_2 Zn 0.85504(4) 0.97477(3) 0.52246(7)
Zn1C Zn 0.14496(4) 1.47477(3) 1.97754(7)
loop_
_geom_bond_atom_site_label_1
_geom_bond_atom_site_label_2
_geom_bond_site_symmetry_1
_geom_bond_site_symmetry_2
N1 C1 1_555 1_555
C1 H1 1_555 1_555
C2 C1 1_555 1_555
H2 C2 1_555 1_555
C3 C2 1_555 1_555
C4 C3 1_555 1_555
H3 C4 1_555 1_555
C5 N1 1_555 1_555
H4 C5 1_555 1_555
C6 C3 1_555 1_555
H5 C6 1_555 1_555
N2 C7 1_555 1_555
C7 H6 1_555 1_555
C8 C7 1_555 1_555
H7 C8 1_555 1_555
C9 C8 1_555 1_555
C10 C9 1_555 1_555
H8 C10 1_555 1_555
C11 N2 1_555 1_555
H9 C11 1_555 1_555
C12 C9 1_555 1_555
H10 C12 1_555 1_555
C13 C14 1_555 1_555
C14 C15 1_555 1_555
C15 H11 1_555 1_555
C16 C15 1_555 1_555
H12 C16 1_555 1_555
C17 C16 1_555 1_555
C18 C17 1_555 1_555
C19 C14 1_555 1_555
H13 C19 1_555 1_555
C20 C21 1_555 1_555
C21 C22 1_555 1_555
C22 H14 1_555 1_555
C23 C22 1_555 1_555
H15 C23 1_555 1_555
C24 C17 1_555 1_555
C25 C24 1_555 1_555
C26 C21 1_555 1_555
H16 C26 1_555 1_555
N3 C18 1_555 1_555
N4 C25 1_555 1_555
O1 C13 1_555 1_555
O2 C13 1_555 1_555
O3 C20 1_555 1_555
O4 C20 1_555 1_555
O5 N3 1_555 1_555
O6 N3 1_555 1_555
O7 N4 1_555 1_555
O8 N4 1_555 1_555
Zn1 N1 1_555 1_555
N1B C1B 1_555 1_555
C1B H1B 1_555 1_555
C2B C1B 1_555 1_555
H2B C2B 1_555 1_555
C3B C2B 1_555 1_555
C4B C3B 1_555 1_555
H3B C4B 1_555 1_555
C5B N1B 1_555 1_555
H4B C5B 1_555 1_555
C6B C6 1_555 1_555
H5B C6B 1_555 1_555
N2B C7B 1_555 1_555
C7B H6B 1_555 1_555
C8B C7B 1_555 1_555
H7B C8B 1_555 1_555
C9B C8B 1_555 1_555
C10B C9B 1_555 1_555
H8B C10B 1_555 1_555
C11B N2B 1_555 1_555
H9B C11B 1_555 1_555
C12B C12 1_555 1_555
H10B C12B 1_555 1_555
C13B C14B 1_555 1_555
C14B C15B 1_555 1_555
C15B H11B 1_555 1_555
C16B C15B 1_555 1_555
H12B C16B 1_555 1_555
C17B C16B 1_555 1_555
C18B C17B 1_555 1_555
C19B C14B 1_555 1_555
H13B C19B 1_555 1_555
C20B C21B 1_555 1_555
C21B C22B 1_555 1_555
C22B H14B 1_555 1_555
C23B C22B 1_555 1_555
H15B C23B 1_555 1_555
C24B C17B 1_555 1_555
C25B C24B 1_555 1_555
C26B C21B 1_555 1_555
H16B C26B 1_555 1_555
N3B C18B 1_555 1_555
N4B C25B 1_555 1_555
O1B C13B 1_555 1_555
O2B C13B 1_555 1_555
O3B C20B 1_555 1_555
O4B C20B 1_555 1_555
O5B N3B 1_555 1_555
O6B N3B 1_555 1_555
O7B N4B 1_555 1_555
O8B N4B 1_555 1_555
Zn1B N1B 1_555 1_555
N2B_2 Zn1B 1_555 1_555
O4A Zn1 1_555 1_555
O4C Zn1B 1_555 1_555
Zn1A O4 1_555 1_555
Zn1B_2 N2B 1_555 1_555
Zn1C O4B 1_555 1_555
C4 C5 1_555 1_555
N2 Zn1 1_555 1_555
C10 C11 1_555 1_555
C18 C19 1_555 1_555
C23 C24 1_555 1_555
C25 C26 1_555 1_555
O1 Zn1 1_555 1_555
C3B C6B 1_555 1_555
C4B C5B 1_555 1_555
C9B C12B 1_555 1_555
C10B C11B 1_555 1_555
C18B C19B 1_555 1_555
C23B C24B 1_555 1_555
C25B C26B 1_555 1_555
O1B Zn1B 1_555 1_555

#END
