
#######################################################################
#
#                 Cambridge Crystallographic Data Centre
#                                CCDC 
#
#######################################################################
#
# If this CIF has been generated from an entry in the Cambridge 
# Structural Database, then it will include bibliographic, chemical, 
# crystal, experimental, refinement or atomic coordinate data resulting 
# from the CCDC's data processing and validation procedures.
#
#######################################################################

data_ROMMAJ
_chemical_formula_moiety         'C30 H10 Cu8 O24'
_symmetry_cell_setting           rhombohedral
_symmetry_space_group_name_H-M   'R -3 m'
_symmetry_Int_Tables_number      166
_space_group_name_Hall           '-R 3 2"'
loop_
_symmetry_equiv_pos_site_id
_symmetry_equiv_pos_as_xyz
1 x,y,z
2 -y,x-y,z
3 -x+y,-x,z
4 y,x,-z
5 x-y,-y,-z
6 -x,-x+y,-z
7 2/3+x,1/3+y,1/3+z
8 2/3-y,1/3+x-y,1/3+z
9 2/3-x+y,1/3-x,1/3+z
10 2/3+y,1/3+x,1/3-z
11 2/3+x-y,1/3-y,1/3-z
12 2/3-x,1/3-x+y,1/3-z
13 1/3+x,2/3+y,2/3+z
14 1/3-y,2/3+x-y,2/3+z
15 1/3-x+y,2/3-x,2/3+z
16 1/3+y,2/3+x,2/3-z
17 1/3+x-y,2/3-y,2/3-z
18 1/3-x,2/3-x+y,2/3-z
19 -x,-y,-z
20 y,-x+y,-z
21 x-y,x,-z
22 -y,-x,z
23 -x+y,y,z
24 x,x-y,z
25 1/3-x,2/3-y,2/3-z
26 1/3+y,2/3-x+y,2/3-z
27 1/3+x-y,2/3+x,2/3-z
28 1/3-y,2/3-x,2/3+z
29 1/3-x+y,2/3+y,2/3+z
30 1/3+x,2/3+x-y,2/3+z
31 2/3-x,1/3-y,1/3-z
32 2/3+y,1/3-x+y,1/3-z
33 2/3+x-y,1/3+x,1/3-z
34 2/3-y,1/3-x,1/3+z
35 2/3-x+y,1/3+y,1/3+z
36 2/3+x,1/3+x-y,1/3+z
_cell_length_a                   18.6935(7)
_cell_length_b                   18.6935(7)
_cell_length_c                   38.3901(12)
_cell_angle_alpha                90
_cell_angle_beta                 90
_cell_angle_gamma                120
_cell_volume                     11618
loop_
_atom_site_label
_atom_site_type_symbol
_atom_site_fract_x
_atom_site_fract_y
_atom_site_fract_z
Cu1 Cu 0.85664(2) 0.14336(2) 0.13827(2)
O1 O 0.7753(2) 0.07698(17) 0.21054(7)
O2 O 0.81534(18) 0.03842(17) 0.16301(7)
O3 O 0.89023(18) 0.10977(18) 0.08982(14)
O4 O 0.5366(9) -0.3044(11) 0.2627(5)
O5 O 0.5512(15) -0.3721(8) 0.2952(4)
C1 C 0.7860(2) 0.0271(2) 0.19320(10)
C2 C 0.7798(4) -0.11009(19) 0.19354(14)
H1 H 0.8014 -0.0993 0.1711
C3 C 0.7639(2) -0.0535(2) 0.21011(10)
C4 C 0.7327(3) -0.0689(3) 0.24414(11)
H2 H 0.7231 -0.0305 0.2554
C5 C 0.7156(4) -0.1422(2) 0.26148(16)
C6 C 0.6862(5) -0.1569(2) 0.29758(16)
C7 C 0.6239(7) -0.2318(6) 0.3091(2)
C8 C 0.7242(7) -0.0917(6) 0.3216(2)
H3 H 0.7612 -0.0393 0.3132
C9 C 0.5736(12) -0.3081(11) 0.2858(5)
O1W O 0.7753(2) -0.30168(26) 0.21054(7)
O2W O 0.81534(18) -0.22308(25) 0.16301(7)
O4W O 0.5366(9) -0.1590(14) 0.2627(5)
O5W O 0.5512(15) -0.0767(17) 0.2952(4)
C1W C 0.7860(2) -0.2411(3) 0.19320(10)
C3W C 0.7639(2) -0.1826(3) 0.21011(10)
C4W C 0.7327(3) -0.1984(4) 0.24414(11)
H2W H 0.7231 -0.2464 0.2554
C7W C 0.6239(7) -0.1443(9) 0.3091(2)
C8W C 0.7242(7) -0.1841(9) 0.3216(2)
H3W H 0.7612 -0.1995 0.3132
C9W C 0.5736(12) -0.1183(16) 0.2858(5)
O1X O 0.5580(2) -0.41031(17) 0.45613(7)
O2X O 0.51799(18) -0.37175(17) 0.50366(7)
O4X O 0.7967(9) -0.0289(11) 0.4040(5)
O5X O 0.7821(15) 0.0388(8) 0.3715(4)
C1X C 0.5473(2) -0.3604(2) 0.47347(10)
C2Q C 0.5535(4) -0.22322(44) 0.47313(14)
H1Q H 0.5319 -0.2340 0.4956
C3X C 0.5694(2) -0.2798(2) 0.45656(10)
C4X C 0.6006(3) -0.2644(3) 0.42253(11)
H2X H 0.6102 -0.3028 0.4113
C5Q C 0.6177(4) -0.1911(4) 0.40519(16)
C6Q C 0.6471(5) -0.1764(5) 0.36909(16)
C7X C 0.7094(7) -0.1015(6) 0.3576(2)
C8X C 0.6091(7) -0.2416(6) 0.3451(2)
H3X H 0.5721 -0.2940 0.3535
C9X C 0.7597(12) -0.0252(11) 0.3809(5)
O1Q O 0.5580(2) -0.03165(26) 0.45613(7)
O2Q O 0.51799(18) -0.11025(25) 0.50366(7)
O4Q O 0.7967(9) -0.1743(14) 0.4040(5)
O5Q O 0.7821(15) -0.2566(17) 0.3715(4)
C1Q C 0.5473(2) -0.0922(3) 0.47347(10)
C3Q C 0.5694(2) -0.1507(3) 0.45656(10)
C4Q C 0.6006(3) -0.1349(4) 0.42253(11)
H2Q H 0.6102 -0.0869 0.4113
C7Q C 0.7094(7) -0.1890(9) 0.3576(2)
C8Q C 0.6091(7) -0.1492(9) 0.3451(2)
H3Q H 0.5721 -0.1338 0.3535
C9Q C 0.7597(12) -0.2150(16) 0.3809(5)
Cu1A Cu 0.85664(2) -0.28672(3) 0.13827(2)
O3A O 0.89023(18) -0.21954(25) 0.08982(14)
Cu1F Cu 0.52331(2) -0.52331(2) 0.47160(2)
Cu1G Cu 0.52331(2) 0.04661(3) 0.47160(2)
Cu1I Cu 0.81003(2) 0.18997(2) 0.19506(2)
Cu1K Cu 0.81003(2) -0.37995(3) 0.19506(2)
Cu1O Cu 0.47669(2) -0.47669(2) 0.52840(2)
Cu1Q Cu 0.47669(2) -0.04661(3) 0.52840(2)
O1I O 0.74365(17) 0.1086(2) 0.12279(7)
O1K O 0.8914(2) -0.36499(26) 0.12279(7)
O1DA O 0.8914(2) 0.25635(17) 0.12279(7)
O1EA O 0.74365(17) -0.36499(26) 0.12279(7)
O2A O 0.96158(17) -0.22308(25) 0.16301(7)
O2U O 0.96158(17) 0.18466(18) 0.16301(7)
loop_
_geom_bond_atom_site_label_1
_geom_bond_atom_site_label_2
_geom_bond_site_symmetry_1
_geom_bond_site_symmetry_2
Cu1 O2 1_555 1_555
O1 C1 1_555 1_555
O2 C1 1_555 1_555
O3 Cu1 1_555 1_555
O4 C9 1_555 1_555
O5 C9 1_555 1_555
C1 C3 1_555 1_555
C2 H1 1_555 1_555
C3 C2 1_555 1_555
C4 C3 1_555 1_555
H2 C4 1_555 1_555
C5 C4 1_555 1_555
C6 C5 1_555 1_555
C7 C6 1_555 1_555
C8 C6 1_555 1_555
H3 C8 1_555 1_555
C9 C7 1_555 1_555
O1W C1W 1_555 1_555
O2W C1W 1_555 1_555
O4W C9W 1_555 1_555
O5W C9W 1_555 1_555
C1W C3W 1_555 1_555
C3W C2 1_555 1_555
C4W C5 1_555 1_555
H2W C4W 1_555 1_555
C7W C6 1_555 1_555
C8W C6 1_555 1_555
H3W C8W 1_555 1_555
C9W C7W 1_555 1_555
O1X C1X 1_555 1_555
O2X C1X 1_555 1_555
O4X C9X 1_555 1_555
O5X C9X 1_555 1_555
C1X C3X 1_555 1_555
C2Q H1Q 1_555 1_555
C3X C2Q 1_555 1_555
C4X C3X 1_555 1_555
H2X C4X 1_555 1_555
C5Q C4X 1_555 1_555
C6Q C5Q 1_555 1_555
C7X C8 1_555 1_555
C8X C7 1_555 1_555
H3X C8X 1_555 1_555
C9X C7X 1_555 1_555
O1Q C1Q 1_555 1_555
O2Q C1Q 1_555 1_555
O4Q C9Q 1_555 1_555
O5Q C9Q 1_555 1_555
C1Q C3Q 1_555 1_555
C3Q C2Q 1_555 1_555
C4Q C5Q 1_555 1_555
H2Q C4Q 1_555 1_555
C7Q C8W 1_555 1_555
C8Q C7W 1_555 1_555
H3Q C8Q 1_555 1_555
C9Q C7Q 1_555 1_555
Cu1A O2W 1_555 1_555
O3A Cu1A 1_555 1_555
Cu1F O1X 1_555 1_555
Cu1G O1Q 1_555 1_555
Cu1I O1 1_555 1_555
Cu1K O1W 1_555 1_555
Cu1O O2X 1_555 1_555
Cu1Q O2Q 1_555 1_555
O1I Cu1 1_555 1_555
O1K Cu1A 1_555 1_555
O1DA Cu1 1_555 1_555
O1EA Cu1A 1_555 1_555
O2A Cu1A 1_555 1_555
O2U Cu1 1_555 1_555
C7 C7W 1_555 1_555
C7 C8W 1_555 1_555
C8 C7W 1_555 1_555
C8 C8W 1_555 1_555
C3W C4W 1_555 1_555
C6Q C7X 1_555 1_555
C6Q C8X 1_555 1_555
C6Q C7Q 1_555 1_555
C6Q C8Q 1_555 1_555
C7X C7Q 1_555 1_555
C7X C8Q 1_555 1_555
C8X C7Q 1_555 1_555
C8X C8Q 1_555 1_555
C3Q C4Q 1_555 1_555

#END
