
#######################################################################
#
#                 Cambridge Crystallographic Data Centre
#                                CCDC 
#
#######################################################################
#
# If this CIF has been generated from an entry in the Cambridge 
# Structural Database, then it will include bibliographic, chemical, 
# crystal, experimental, refinement or atomic coordinate data resulting 
# from the CCDC's data processing and validation procedures.
#
#######################################################################

data_AVALEO
_chemical_formula_moiety         '(C22 H46 Gd1 N4 Na1 O13)n'
_symmetry_cell_setting           monoclinic
_symmetry_space_group_name_H-M   'C 2/c'
_symmetry_Int_Tables_number      15
_space_group_name_Hall           '-C 2yc'
loop_
_symmetry_equiv_pos_site_id
_symmetry_equiv_pos_as_xyz
1 x,y,z
2 1/2+x,1/2+y,z
3 x,-y,1/2+z
4 1/2+x,1/2-y,1/2+z
5 -x,-y,-z
6 1/2-x,1/2-y,-z
7 -x,y,1/2-z
8 1/2-x,1/2+y,1/2-z
_cell_length_a                   15.458(3)
_cell_length_b                   14.220(3)
_cell_length_c                   14.245(3)
_cell_angle_alpha                90
_cell_angle_beta                 99.840(10)
_cell_angle_gamma                90
_cell_volume                     3085.17
loop_
_atom_site_label
_atom_site_type_symbol
_atom_site_fract_x
_atom_site_fract_y
_atom_site_fract_z
_atom_site_U_iso_or_equiv
_atom_site_thermal_displace_type
Na1 Na 0.5000 0.5520(3) 0.7500 0.1775 Uani
Gd1 Gd 0.5000 0.23608(2) 0.7500 0.0531 Uani
O1 O 0.62946(16) 0.31181(16) 0.82349(18) 0.0575 Uani
O2 O 0.75079(18) 0.22824(16) 0.86431(19) 0.0573 Uani
O3 O 0.99836(17) 0.6713(2) 0.90214(18) 0.0706 Uani
O4 O 0.88622(18) 0.5830(2) 0.91335(18) 0.0706 Uani
N1 N 0.72903(17) 0.55350(16) 0.97270(16) 0.0380 Uani
N2 N 0.84681(15) 0.65152(16) 1.11335(16) 0.0332 Uani
C1 C 0.7078(2) 0.3015(2) 0.8648(2) 0.0424 Uani
C2 C 0.7524(2) 0.3856(2) 0.9180(2) 0.0450 Uani
H1 H 0.8051 0.4012 0.8927 0.0800 Uiso
H2 H 0.7697 0.3696 0.9847 0.0800 Uiso
C3 C 0.6930(2) 0.4709(2) 0.9093(2) 0.0468 Uani
H3 H 0.6371 0.4521 0.9257 0.0800 Uiso
H4 H 0.6822 0.4915 0.8434 0.0800 Uiso
C4 C 0.7323(2) 0.5278(2) 1.0764(2) 0.0475 Uani
H5 H 0.6732 0.5152 1.0873 0.0800 Uiso
H6 H 0.7663 0.4706 1.0901 0.0800 Uiso
C5 C 0.7726(2) 0.6043(2) 1.1432(2) 0.0387 Uani
H7 H 0.7276 0.6502 1.1496 0.0800 Uiso
H8 H 0.7923 0.5768 1.2055 0.0800 Uiso
C6 C 0.8733(2) 0.7334(2) 1.1741(2) 0.0427 Uani
H9 H 0.9330 0.7502 1.1687 0.0800 Uiso
H10 H 0.8725 0.7168 1.2400 0.0800 Uiso
C7 C 0.8146(2) 0.8192(2) 1.1466(2) 0.0410 Uani
H11 H 0.7537 0.8001 1.1417 0.0800 Uiso
H12 H 0.8266 0.8664 1.1962 0.0800 Uiso
C8 C 0.6718(2) 0.6406(2) 0.9436(2) 0.0408 Uani
H13 H 0.6850 0.6878 0.9931 0.0800 Uiso
H14 H 0.6105 0.6236 0.9388 0.0800 Uiso
C9 C 0.9224(2) 0.5876(2) 1.1137(2) 0.0425 Uani
H15 H 0.9520 0.5786 1.1788 0.0800 Uiso
H16 H 0.9010 0.5269 1.0890 0.0800 Uiso
C10 C 0.9878(2) 0.6232(2) 1.0558(2) 0.0445 Uani
H17 H 1.0396 0.5837 1.0671 0.0800 Uiso
H18 H 1.0055 0.6862 1.0774 0.0800 Uiso
C11 C 0.9530(2) 0.6255(3) 0.9489(2) 0.0504 Uani
O6 O 0.3830(2) 0.1195(3) 0.7314(2) 0.0944 Uani
H21 H 0.3200 0.1358 0.7059 0.0800 Uiso
H22 H 0.3713 0.1070 0.8123 0.0500 Uiso
O7 O 0.4594(2) 0.3591(2) 0.8582(2) 0.0944 Uani
H23 H 0.5256 0.3608 0.8840 0.0500 Uiso
H24 H 0.4322 0.3447 0.8031 0.0500 Uiso
C8E C 0.8282(2) 0.8594(2) 1.0564(2) 0.0408 Uani
N1E N 0.77097(17) 0.94650(16) 1.02730(16) 0.0380 Uani
C3E C 0.8070(2) 1.0291(2) 1.0907(2) 0.0468 Uani
C2E C 0.7476(2) 1.1144(2) 1.0820(2) 0.0450 Uani
C1E C 0.7922(2) 1.1985(2) 1.1352(2) 0.0424 Uani
O1E O 0.87054(16) 1.18819(16) 1.17651(18) 0.0575 Uani
O2E O 0.74921(18) 1.27176(16) 1.13569(19) 0.0573 Uani
H1E H 0.6949 1.0988 1.1073 0.0800 Uiso
H2E H 0.7303 1.1304 1.0153 0.0800 Uiso
H3E H 0.8629 1.0479 1.0743 0.0800 Uiso
H4E H 0.8178 1.0085 1.1566 0.0800 Uiso
C4E C 0.7677(2) 0.9722(2) 0.9236(2) 0.0475 Uani
H5E H 0.8268 0.9848 0.9127 0.0800 Uiso
H6E H 0.7337 1.0294 0.9099 0.0800 Uiso
C5E C 0.7274(2) 0.8957(2) 0.8568(2) 0.0387 Uani
N2E N 0.65319(15) 0.84848(16) 0.88665(16) 0.0332 Uani
C6E C 0.6267(2) 0.7666(2) 0.8259(2) 0.0427 Uani
H9E H 0.5670 0.7498 0.8313 0.0800 Uiso
H10E H 0.6275 0.7832 0.7600 0.0800 Uiso
C7E C 0.6854(2) 0.6808(2) 0.8534(2) 0.0410 Uani
H11E H 0.7463 0.6999 0.8583 0.0800 Uiso
H12E H 0.6734 0.6336 0.8038 0.0800 Uiso
C9E C 0.5776(2) 0.9124(2) 0.8863(2) 0.0425 Uani
H15E H 0.5480 0.9214 0.8212 0.0800 Uiso
H16E H 0.5990 0.9731 0.9110 0.0800 Uiso
C10E C 0.5122(2) 0.8768(2) 0.9442(2) 0.0445 Uani
H17E H 0.4604 0.9163 0.9329 0.0800 Uiso
H18E H 0.4945 0.8138 0.9226 0.0800 Uiso
C11E C 0.5470(2) 0.8745(3) 1.0511(2) 0.0504 Uani
O3E O 0.50164(17) 0.8287(2) 1.09786(18) 0.0706 Uani
O4E O 0.61378(18) 0.9170(2) 1.08665(18) 0.0706 Uani
H7E H 0.7724 0.8498 0.8504 0.0800 Uiso
H8E H 0.7077 0.9232 0.7945 0.0800 Uiso
H13E H 0.8150 0.8122 1.0069 0.0800 Uiso
H14E H 0.8895 0.8764 1.0612 0.0800 Uiso
O6F O 0.6170(2) 0.1195(3) 0.7686(2) 0.0944 Uani
H21F H 0.6800 0.1358 0.7941 0.0800 Uiso
H22F H 0.6287 0.1070 0.6877 0.0500 Uiso
O7F O 0.5406(2) 0.3591(2) 0.6418(2) 0.0944 Uani
H23F H 0.4744 0.3608 0.6160 0.0500 Uiso
H24F H 0.5678 0.3447 0.6969 0.0500 Uiso
O1F O 0.37054(16) 0.31181(16) 0.67651(18) 0.0575 Uani
O3A O 0.49836(17) 0.1713(2) 0.90214(18) 0.0706 Uani
O3G O 0.50164(17) 0.1713(2) 0.59786(18) 0.0706 Uani
Gd1A Gd 1.0000 0.73608(2) 0.7500 0.0531 Uani
Gd1C Gd 1.0000 1.26392(2) 1.2500 0.0531 Uani
Gd1B Gd 0.5000 0.76392(2) 1.2500 0.0531 Uani
O5 O 0.9252(3) 0.1573(3) 0.9416(3) 0.1105 Uani
H19 H 0.9132 0.2275 0.9321 0.0500 Uiso
H20 H 0.8652 0.1288 0.9444 0.0500 Uiso
loop_
_atom_site_aniso_label
_atom_site_aniso_U_11
_atom_site_aniso_U_22
_atom_site_aniso_U_33
_atom_site_aniso_U_23
_atom_site_aniso_U_13
_atom_site_aniso_U_12
Na1 0.136(3) 0.127(3) 0.227(5) 0.000 -0.090(3) 0.000
Gd1 0.03392(15) 0.0828(2) 0.04443(16) 0.000 0.01176(9) 0.000
O1 0.0512(15) 0.0409(13) 0.0745(17) -0.0072(11) -0.0059(12) 0.0030(11)
O2 0.0640(16) 0.0407(13) 0.0648(15) -0.0064(11) 0.0042(12) 0.0097(12)
O3 0.0551(11) 0.1080(16) 0.0479(10) 0.0044(10) 0.0067(8) -0.0235(11)
O4 0.0551(11) 0.1080(16) 0.0479(10) 0.0044(10) 0.0067(8) -0.0235(11)
N1 0.0488(15) 0.0302(13) 0.0304(12) -0.0014(10) -0.0067(10) 0.0014(11)
N2 0.0347(12) 0.0312(12) 0.0304(12) -0.0047(9) -0.0041(10) 0.0091(10)
C1 0.061(2) 0.0344(16) 0.0343(15) -0.0002(12) 0.0154(14) -0.0018(15)
C2 0.0489(19) 0.0407(18) 0.0433(18) -0.0045(13) 0.0016(14) -0.0020(14)
C3 0.0498(19) 0.0403(18) 0.0475(18) -0.0017(14) 0.0000(15) 0.0036(14)
C4 0.059(2) 0.0415(18) 0.0408(17) 0.0069(14) 0.0053(15) -0.0069(15)
C5 0.0449(17) 0.0360(16) 0.0330(15) 0.0039(12) 0.0007(12) -0.0031(12)
C6 0.0512(18) 0.0382(16) 0.0346(14) -0.0025(12) -0.0040(13) 0.0101(14)
C7 0.0457(18) 0.0364(17) 0.0379(15) 0.0030(13) -0.0012(13) 0.0057(13)
C8 0.0481 0.0349 0.0368 0.0036 -0.0001 0.0063
C9 0.0471(18) 0.0422(17) 0.0332(15) 0.0028(12) -0.0071(13) 0.0162(14)
C10 0.0340(16) 0.0521(19) 0.0448(17) 0.0017(14) -0.0009(13) 0.0066(13)
C11 0.0318(16) 0.075(2) 0.0466(18) 0.0009(16) 0.0132(14) 0.0029(15)
O6 0.0659(13) 0.130(2) 0.0813(15) -0.0461(14) -0.0044(11) 0.0187(13)
O7 0.0659(13) 0.130(2) 0.0813(15) -0.0461(14) -0.0044(11) 0.0187(13)
C8E 0.0481(18) 0.0349(16) 0.0368(15) 0.0036(12) -0.0001(13) 0.0063(13)
N1E 0.0488 0.0302 0.0304 -0.0014 -0.0067 0.0014
C3E 0.0498 0.0403 0.0475 -0.0017 0 0.0036
C2E 0.0489 0.0407 0.0433 -0.0045 0.0016 -0.002
C1E 0.061 0.0344 0.0343 -0.0002 0.0154 -0.0018
O1E 0.0512 0.0409 0.0745 -0.0072 -0.0059 0.003
O2E 0.064 0.0407 0.0648 -0.0064 0.0042 0.0097
C4E 0.059 0.0415 0.0408 0.0069 0.0053 -0.0069
C5E 0.0449 0.036 0.033 0.0039 0.0007 -0.0031
N2E 0.0347 0.0312 0.0304 -0.0047 -0.0041 0.0091
C6E 0.0512 0.0382 0.0346 -0.0025 -0.004 0.0101
C7E 0.0457 0.0364 0.0379 0.003 -0.0012 0.0057
C9E 0.0471 0.0422 0.0332 0.0028 -0.0071 0.0162
C10E 0.034 0.0521 0.0448 0.0017 -0.0009 0.0066
C11E 0.0318 0.075 0.0466 0.0009 0.0132 0.0029
O3E 0.0551 0.108 0.0479 0.0044 0.0067 -0.0235
O4E 0.0551 0.108 0.0479 0.0044 0.0067 -0.0235
O6F 0.0659 0.13 0.0813 0.0461 -0.0044 -0.0187
O7F 0.0659 0.13 0.0813 0.0461 -0.0044 -0.0187
O1F 0.0512 0.0409 0.0745 0.0072 -0.0059 -0.003
O3A 0.0551 0.108 0.0479 0.0044 0.0067 -0.0235
O3G 0.0551 0.108 0.0479 -0.0044 0.0067 0.0235
Gd1A 0.03392 0.0828 0.04443 0 0.01176 0
Gd1C 0.03392 0.0828 0.04443 0 0.01176 0
Gd1B 0.03392 0.0828 0.04443 0 0.01176 0
O5 0.097(3) 0.089(2) 0.136(3) 0.033(2) -0.007(2) -0.040(2)
loop_
_geom_bond_atom_site_label_1
_geom_bond_atom_site_label_2
_geom_bond_site_symmetry_1
_geom_bond_site_symmetry_2
Gd1 O1 1_555 1_555
O1 C1 1_555 1_555
O2 C1 1_555 1_555
O3 C11 1_555 1_555
O4 C11 1_555 1_555
N1 C3 1_555 1_555
N2 C5 1_555 1_555
C1 C2 1_555 1_555
C2 H1 1_555 1_555
H2 C2 1_555 1_555
C3 C2 1_555 1_555
H3 C3 1_555 1_555
H4 C3 1_555 1_555
C4 N1 1_555 1_555
H5 C4 1_555 1_555
H6 C4 1_555 1_555
C5 C4 1_555 1_555
H7 C5 1_555 1_555
H8 C5 1_555 1_555
C6 N2 1_555 1_555
H9 C6 1_555 1_555
H10 C6 1_555 1_555
C7 C6 1_555 1_555
H11 C7 1_555 1_555
H12 C7 1_555 1_555
C8 N1 1_555 1_555
H13 C8 1_555 1_555
H14 C8 1_555 1_555
C9 N2 1_555 1_555
H15 C9 1_555 1_555
H16 C9 1_555 1_555
C10 C9 1_555 1_555
H17 C10 1_555 1_555
H18 C10 1_555 1_555
C11 C10 1_555 1_555
O5 H19 1_555 1_555
H20 O5 1_555 1_555
O6 Gd1 1_555 1_555
H21 O6 1_555 1_555
H22 O6 1_555 1_555
O7 Gd1 1_555 1_555
H23 O7 1_555 1_555
H24 O7 1_555 1_555
C8E C7 1_555 1_555
N1E C8E 1_555 1_555
C3E N1E 1_555 1_555
C2E C3E 1_555 1_555
C1E C2E 1_555 1_555
O1E C1E 1_555 1_555
O2E C1E 1_555 1_555
H1E C2E 1_555 1_555
H2E C2E 1_555 1_555
H3E C3E 1_555 1_555
H4E C3E 1_555 1_555
C4E N1E 1_555 1_555
H5E C4E 1_555 1_555
H6E C4E 1_555 1_555
C5E C4E 1_555 1_555
N2E C5E 1_555 1_555
C6E N2E 1_555 1_555
H9E C6E 1_555 1_555
H10E C6E 1_555 1_555
C7E C8 1_555 1_555
H11E C7E 1_555 1_555
H12E C7E 1_555 1_555
C9E N2E 1_555 1_555
H15E C9E 1_555 1_555
H16E C9E 1_555 1_555
C10E C9E 1_555 1_555
H17E C10E 1_555 1_555
H18E C10E 1_555 1_555
C11E C10E 1_555 1_555
O3E C11E 1_555 1_555
O4E C11E 1_555 1_555
H7E C5E 1_555 1_555
H8E C5E 1_555 1_555
H13E C8E 1_555 1_555
H14E C8E 1_555 1_555
O6F Gd1 1_555 1_555
H21F O6F 1_555 1_555
H22F O6F 1_555 1_555
O7F Gd1 1_555 1_555
H23F O7F 1_555 1_555
H24F O7F 1_555 1_555
O1F Gd1 1_555 1_555
O3A Gd1 1_555 1_555
O3G Gd1 1_555 1_555
Gd1A O3 1_555 1_555
Gd1C O1E 1_555 1_555
Gd1B O3E 1_555 1_555
C6E C7E 1_555 1_555

#END
