
#######################################################################
#
#                 Cambridge Crystallographic Data Centre
#                                CCDC 
#
#######################################################################
#
# If this CIF has been generated from an entry in the Cambridge 
# Structural Database, then it will include bibliographic, chemical, 
# crystal, experimental, refinement or atomic coordinate data resulting 
# from the CCDC's data processing and validation procedures.
#
#######################################################################

data_GIVDUL
_chemical_formula_moiety         '(C16 H24 Cu8 I4 N12 O8)n'
_symmetry_cell_setting           tetragonal
_symmetry_space_group_name_H-M   'I 41/a'
_symmetry_Int_Tables_number      88
_space_group_name_Hall           '-I 4ad'
loop_
_symmetry_equiv_pos_site_id
_symmetry_equiv_pos_as_xyz
1 x,y,z
2 3/4-y,1/4+x,1/4+z
3 1/2+x,1/2+y,1/2+z
4 1/4-y,3/4+x,3/4+z
5 1/4+y,1/4-x,1/4+z
6 1/2-x,-y,1/2+z
7 3/4+y,3/4-x,3/4+z
8 -x,1/2-y,z
9 -x,-y,-z
10 1/4+y,3/4-x,3/4-z
11 1/2-x,1/2-y,1/2-z
12 3/4+y,1/4-x,1/4-z
13 3/4-y,3/4+x,3/4-z
14 1/2+x,y,1/2-z
15 1/4-y,1/4+x,1/4-z
16 x,1/2+y,-z
_cell_length_a                   17.3064(8)
_cell_length_b                   17.3064(8)
_cell_length_c                   18.5975(16)
_cell_angle_alpha                90
_cell_angle_beta                 90
_cell_angle_gamma                90
_cell_volume                     5570.16
loop_
_atom_site_label
_atom_site_type_symbol
_atom_site_fract_x
_atom_site_fract_y
_atom_site_fract_z
_atom_site_U_iso_or_equiv
_atom_site_thermal_displace_type
I1 I 0.62767(3) 0.70682(3) 0.54699(3) 0.0635 Uani
Cu1 Cu 0.48392(7) 0.67574(7) 0.56850(6) 0.0777 Uani
N1 N 0.4312(4) 0.6024(3) 0.5039(3) 0.0597 Uani
N2 N 0.3560(4) 0.5818(4) 0.5207(4) 0.0657 Uani
C1 C 0.5212(6) 0.5694(6) 0.4057(5) 0.0830 Uani
H1 H 0.5583 0.5969 0.4352 0.0990 Uiso
H2 H 0.5420 0.5185 0.3956 0.0990 Uiso
C2 C 0.2559(7) 0.4940(8) 0.4771(9) 0.1120 Uani
H3 H 0.2611 0.4385 0.4716 0.1340 Uiso
H4 H 0.2321 0.5047 0.5233 0.1340 Uiso
O1 O 0.5101(11) 0.6106(10) 0.3391(9) 0.2070 Uiso
H5 H 0.5515 0.6140 0.3178 0.3100 Uiso
O2 O 0.2119(12) 0.5251(12) 0.4212(9) 0.2270 Uiso
H6 H 0.1686 0.5059 0.4217 0.3400 Uiso
C3 C 0.4483(5) 0.5616(4) 0.4452(4) 0.0567 Uani
C4 C 0.3325(5) 0.5328(5) 0.4713(5) 0.0673 Uani
N3 N 0.3883(4) 0.5171(4) 0.4245(4) 0.0683 Uani
Cu2 Cu 0.30354(8) 0.62569(8) 0.59880(7) 0.0903 Uani
I1K I 0.45682(3) 0.62233(3) 0.70301(3) 0.0635 Uani
I1G I 0.37233(3) 0.79318(3) 0.54699(3) 0.0635 Uani
I1N I 0.54318(3) 0.87767(3) 0.70301(3) 0.0635 Uani
Cu1N Cu 0.57426(7) 0.73392(7) 0.68150(6) 0.0777 Uani
Cu1G Cu 0.51608(7) 0.82426(7) 0.56850(6) 0.0777 Uani
Cu1K Cu 0.42574(7) 0.76608(7) 0.68150(6) 0.0777 Uani
N1K N 0.3524(3) 0.8188(4) 0.7461(3) 0.0597 Uani
N1N N 0.6476(3) 0.6812(4) 0.7461(3) 0.0597 Uani
N1G N 0.5688(4) 0.8976(3) 0.5039(3) 0.0597 Uani
N2K N 0.3318(4) 0.8940(4) 0.7293(4) 0.0657 Uani
N2N N 0.6682(4) 0.6060(4) 0.7293(4) 0.0657 Uani
N2G N 0.6440(4) 0.9182(4) 0.5207(4) 0.0657 Uani
C1K C 0.3194(6) 0.7288(6) 0.8443(5) 0.0830 Uani
C1N C 0.6806(6) 0.7712(6) 0.8443(5) 0.0830 Uani
C1G C 0.4788(6) 0.9306(6) 0.4057(5) 0.0830 Uani
H1K H 0.3469 0.6917 0.8148 0.0990 Uiso
H1N H 0.6531 0.8083 0.8148 0.0990 Uiso
H1G H 0.4417 0.9031 0.4352 0.0990 Uiso
H2K H 0.2685 0.7080 0.8544 0.0990 Uiso
H2N H 0.7315 0.7920 0.8544 0.0990 Uiso
H2G H 0.4580 0.9815 0.3956 0.0990 Uiso
C2K C 0.2440(8) 0.9941(7) 0.7729(9) 0.1120 Uani
C2N C 0.7560(8) 0.5059(7) 0.7729(9) 0.1120 Uani
C2G C 0.7441(7) 1.0060(8) 0.4771(9) 0.1120 Uani
H3G H 0.7389 1.0615 0.4716 0.1340 Uiso
H3K H 0.1885 0.9889 0.7784 0.1340 Uiso
H3N H 0.8115 0.5111 0.7784 0.1340 Uiso
H4G H 0.7679 0.9953 0.5233 0.1340 Uiso
H4K H 0.2547 1.0179 0.7267 0.1340 Uiso
H4N H 0.7453 0.4821 0.7267 0.1340 Uiso
O1K O 0.3606(10) 0.7399(11) 0.9109(9) 0.2070 Uiso
O1N O 0.6394(10) 0.7601(11) 0.9109(9) 0.2070 Uiso
O1G O 0.4899(11) 0.8894(10) 0.3391(9) 0.2070 Uiso
H5G H 0.4485 0.8860 0.3178 0.3100 Uiso
H5K H 0.3640 0.6985 0.9322 0.3100 Uiso
H5N H 0.6360 0.8015 0.9322 0.3100 Uiso
O2G O 0.7881(12) 0.9749(12) 0.4212(9) 0.2270 Uiso
O2K O 0.2751(12) 1.0381(12) 0.8288(9) 0.2270 Uiso
O2N O 0.7249(12) 0.4619(12) 0.8288(9) 0.2270 Uiso
H6K H 0.2559 1.0814 0.8283 0.3400 Uiso
H6N H 0.7441 0.4186 0.8283 0.3400 Uiso
H6G H 0.8314 0.9941 0.4217 0.3400 Uiso
C3K C 0.3116(4) 0.8017(5) 0.8048(4) 0.0567 Uani
C3N C 0.6884(4) 0.6983(5) 0.8048(4) 0.0567 Uani
C3G C 0.5517(5) 0.9384(4) 0.4452(4) 0.0567 Uani
C4K C 0.2828(5) 0.9175(5) 0.7787(5) 0.0673 Uani
C4N C 0.7172(5) 0.5825(5) 0.7787(5) 0.0673 Uani
C4G C 0.6675(5) 0.9672(5) 0.4713(5) 0.0673 Uani
N3A N 0.2329(4) 0.6383(4) 0.6745(4) 0.0683 Uani
N3K N 0.2671(4) 0.8617(4) 0.8255(4) 0.0683 Uani
N3N N 0.7329(4) 0.6383(4) 0.8255(4) 0.0683 Uani
N3G N 0.6117(4) 0.9829(4) 0.4245(4) 0.0683 Uani
N3D N 0.7671(4) 0.8617(4) 0.6745(4) 0.0683 Uani
N3O N 0.3883(4) 1.0171(4) 0.5755(4) 0.0683 Uani
N3H N 0.6117(4) 0.4829(4) 0.5755(4) 0.0683 Uani
Cu2F Cu 0.37569(8) 0.44646(8) 0.34880(7) 0.0903 Uani
Cu2K Cu 0.37569(8) 0.94646(8) 0.65120(7) 0.0903 Uani
Cu2N Cu 0.62431(8) 0.55354(8) 0.65120(7) 0.0903 Uani
Cu2G Cu 0.69646(8) 0.87431(8) 0.59880(7) 0.0903 Uani
Cu2J Cu 0.19646(8) 0.87431(8) 0.90120(7) 0.0903 Uani
Cu2M Cu 0.80354(8) 0.62569(8) 0.90120(7) 0.0903 Uani
Cu2C Cu 0.62431(8) 1.05354(8) 0.34880(7) 0.0903 Uani
loop_
_atom_site_aniso_label
_atom_site_aniso_U_11
_atom_site_aniso_U_22
_atom_site_aniso_U_33
_atom_site_aniso_U_23
_atom_site_aniso_U_13
_atom_site_aniso_U_12
I1 0.0629(3) 0.0633(3) 0.0643(4) -0.0039(2) 0.0034(2) 0.0003(2)
Cu1 0.0824(7) 0.0740(7) 0.0767(7) -0.0224(5) 0.0090(5) -0.0186(5)
N1 0.065(3) 0.058(3) 0.056(3) -0.010(3) 0.012(3) -0.008(3)
N2 0.070(4) 0.058(3) 0.069(4) -0.015(3) 0.013(3) -0.005(3)
C1 0.091(6) 0.090(6) 0.068(5) -0.012(5) 0.021(4) -0.007(5)
C2 0.081(7) 0.109(9) 0.146(11) -0.038(8) -0.011(7) -0.002(6)
C3 0.069(4) 0.049(3) 0.052(3) -0.011(3) 0.005(3) -0.002(3)
C4 0.060(4) 0.063(4) 0.079(5) -0.012(4) 0.002(4) -0.004(3)
N3 0.067(4) 0.065(4) 0.073(4) -0.017(3) -0.001(3) -0.004(3)
Cu2 0.0877 0.1004 0.0828 -0.0106 0.0342 0.009
I1K 0.0633 0.0629 0.0643 0.0034 0.0039 -0.0003
I1G 0.0629 0.0633 0.0643 0.0039 -0.0034 0.0003
I1N 0.0633 0.0629 0.0643 -0.0034 -0.0039 -0.0003
Cu1N 0.074 0.0824 0.0767 -0.009 -0.0224 0.0186
Cu1G 0.0824 0.074 0.0767 0.0224 -0.009 -0.0186
Cu1K 0.074 0.0824 0.0767 0.009 0.0224 0.0186
N1K 0.058 0.065 0.056 0.012 0.01 0.008
N1N 0.058 0.065 0.056 -0.012 -0.01 0.008
N1G 0.065 0.058 0.056 0.01 -0.012 -0.008
N2K 0.058 0.07 0.069 0.013 0.015 0.005
N2N 0.058 0.07 0.069 -0.013 -0.015 0.005
N2G 0.07 0.058 0.069 0.015 -0.013 -0.005
C1K 0.09 0.091 0.068 0.021 0.012 0.007
C1N 0.09 0.091 0.068 -0.021 -0.012 0.007
C1G 0.091 0.09 0.068 0.012 -0.021 -0.007
C2K 0.109 0.081 0.146 -0.011 0.038 0.002
C2N 0.109 0.081 0.146 0.011 -0.038 0.002
C2G 0.081 0.109 0.146 0.038 0.011 -0.002
C3K 0.049 0.069 0.052 0.005 0.011 0.002
C3N 0.049 0.069 0.052 -0.005 -0.011 0.002
C3G 0.069 0.049 0.052 0.011 -0.005 -0.002
C4K 0.063 0.06 0.079 0.002 0.012 0.004
C4N 0.063 0.06 0.079 -0.002 -0.012 0.004
C4G 0.06 0.063 0.079 0.012 -0.002 -0.004
N3A 0.065 0.067 0.073 -0.001 0.017 0.004
N3K 0.065 0.067 0.073 -0.001 0.017 0.004
N3N 0.065 0.067 0.073 0.001 -0.017 0.004
N3G 0.067 0.065 0.073 0.017 0.001 -0.004
N3D 0.065 0.067 0.073 0.001 -0.017 0.004
N3O 0.067 0.065 0.073 0.017 0.001 -0.004
N3H 0.067 0.065 0.073 -0.017 -0.001 -0.004
Cu2F 0.1004(9) 0.0877(8) 0.0828(8) -0.0342(6) -0.0106(6) -0.0090(6)
Cu2K 0.1004 0.0877 0.0828 0.0342 0.0106 -0.009
Cu2N 0.1004 0.0877 0.0828 -0.0342 -0.0106 -0.009
Cu2G 0.0877 0.1004 0.0828 0.0106 -0.0342 0.009
Cu2J 0.0877 0.1004 0.0828 -0.0106 0.0342 0.009
Cu2M 0.0877 0.1004 0.0828 0.0106 -0.0342 0.009
Cu2C 0.1004 0.0877 0.0828 0.0342 0.0106 -0.009
loop_
_geom_bond_atom_site_label_1
_geom_bond_atom_site_label_2
_geom_bond_site_symmetry_1
_geom_bond_site_symmetry_2
I1 Cu1 1_555 1_555
Cu1 N1 1_555 1_555
N1 N2 1_555 1_555
N2 C4 1_555 1_555
C1 H1 1_555 1_555
H2 C1 1_555 1_555
C2 H3 1_555 1_555
H4 C2 1_555 1_555
O1 C1 1_555 1_555
H5 O1 1_555 1_555
O2 C2 1_555 1_555
H6 O2 1_555 1_555
C3 N1 1_555 1_555
C4 C2 1_555 1_555
N3 C3 1_555 1_555
Cu2 N2 1_555 1_555
I1K Cu1 1_555 1_555
I1G Cu1 1_555 1_555
I1N Cu1N 1_555 1_555
Cu1N I1 1_555 1_555
Cu1G I1 1_555 1_555
Cu1K Cu1 1_555 1_555
N1K Cu1K 1_555 1_555
N1N Cu1N 1_555 1_555
N1G Cu1G 1_555 1_555
N2K N1K 1_555 1_555
N2N N1N 1_555 1_555
N2G N1G 1_555 1_555
C1K H1K 1_555 1_555
C1N H1N 1_555 1_555
C1G H1G 1_555 1_555
H2K C1K 1_555 1_555
H2N C1N 1_555 1_555
H2G C1G 1_555 1_555
C2K H3K 1_555 1_555
C2N H3N 1_555 1_555
C2G H3G 1_555 1_555
H4G C2G 1_555 1_555
H4K C2K 1_555 1_555
H4N C2N 1_555 1_555
O1K C1K 1_555 1_555
O1N C1N 1_555 1_555
O1G C1G 1_555 1_555
H5G O1G 1_555 1_555
H5K O1K 1_555 1_555
H5N O1N 1_555 1_555
O2G C2G 1_555 1_555
O2K C2K 1_555 1_555
O2N C2N 1_555 1_555
H6K O2K 1_555 1_555
H6N O2N 1_555 1_555
H6G O2G 1_555 1_555
C3K N1K 1_555 1_555
C3N N1N 1_555 1_555
C3G N1G 1_555 1_555
C4K N2K 1_555 1_555
C4N N2N 1_555 1_555
C4G N2G 1_555 1_555
N3A Cu2 1_555 1_555
N3K C3K 1_555 1_555
N3N C3N 1_555 1_555
N3G C3G 1_555 1_555
N3D Cu2G 1_555 1_555
N3O Cu2K 1_555 1_555
N3H Cu2N 1_555 1_555
Cu2F N3 1_555 1_555
Cu2K N2K 1_555 1_555
Cu2N N2N 1_555 1_555
Cu2G N2G 1_555 1_555
Cu2J N3K 1_555 1_555
Cu2M N3N 1_555 1_555
Cu2C N3G 1_555 1_555
Cu1 Cu1N 1_555 1_555
Cu1 Cu1G 1_555 1_555
C1 C3 1_555 1_555
C4 N3 1_555 1_555
I1K Cu1N 1_555 1_555
I1K Cu1K 1_555 1_555
I1G Cu1G 1_555 1_555
I1G Cu1K 1_555 1_555
I1N Cu1G 1_555 1_555
I1N Cu1K 1_555 1_555
Cu1N Cu1G 1_555 1_555
Cu1N Cu1K 1_555 1_555
Cu1G Cu1K 1_555 1_555
C1K C3K 1_555 1_555
C1N C3N 1_555 1_555
C1G C3G 1_555 1_555
C2K C4K 1_555 1_555
C2N C4N 1_555 1_555
C2G C4G 1_555 1_555
C4K N3K 1_555 1_555
C4N N3N 1_555 1_555
C4G N3G 1_555 1_555

#END
