
#######################################################################
#
#                 Cambridge Crystallographic Data Centre
#                                CCDC 
#
#######################################################################
#
# If this CIF has been generated from an entry in the Cambridge 
# Structural Database, then it will include bibliographic, chemical, 
# crystal, experimental, refinement or atomic coordinate data resulting 
# from the CCDC's data processing and validation procedures.
#
#######################################################################

data_BUVKUA
_chemical_formula_moiety         'C30 H32 N12 O57 Pr16 S2'
_symmetry_cell_setting           triclinic
_symmetry_space_group_name_H-M   'P -1'
_symmetry_Int_Tables_number      2
_space_group_name_Hall           '-P 1'
loop_
_symmetry_equiv_pos_site_id
_symmetry_equiv_pos_as_xyz
1 x,y,z
2 -x,-y,-z
_cell_length_a                   9.7887(9)
_cell_length_b                   10.0556(10)
_cell_length_c                   12.4566(11)
_cell_angle_alpha                92.514(8)
_cell_angle_beta                 91.623(7)
_cell_angle_gamma                91.495(8)
_cell_volume                     1223.99
loop_
_atom_site_label
_atom_site_type_symbol
_atom_site_fract_x
_atom_site_fract_y
_atom_site_fract_z
O19 O -0.503(2) 0.615(2) 0.5424(16)
Pr1 Pr 0.05483(3) 0.08947(3) 0.85520(2)
Pr2 Pr 0.09728(3) 0.33909(4) 0.59430(2)
O1 O -0.6544(4) 0.2817(5) 0.6228(3)
O2 O -0.7872(4) 0.1731(4) 0.7289(3)
O3 O -0.0764(4) 0.2254(5) 0.6989(4)
O4 O -0.1921(4) 0.1355(4) 0.8271(4)
O5 O -0.0784(4) 0.9099(4) 0.9372(3)
O6 O -0.2612(4) 0.8370(4) 1.0166(3)
O7 O -0.2167(6) 0.6718(6) 0.5830(3)
O8 O -0.0491(5) 0.5366(6) 0.5979(4)
O9 O -0.7845(6) 0.9158(5) 0.8745(4)
O10 O -0.7745(10) 0.7413(6) 0.7636(5)
H1 H -0.8007 0.7953 0.7206
O11 O -0.9566(4) 0.3254(4) 0.9044(3)
O12 O -0.8646(4) 0.4452(4) 0.7756(3)
O13 O 0.0103(4) -0.0591(4) 0.6921(3)
O14 O 0.0755(9) 0.0636(8) 0.5345(6)
O15 O 0.1875(14) -0.1368(14) 0.5819(12)
O16 O -0.0394(13) -0.1491(10) 0.5145(7)
O17 O 0.1066(9) -0.2603(9) 0.5227(6)
O18 O 0.2465(6) 0.5447(6) 0.5977(5)
C1 C -0.6688(5) 0.2111(5) 0.7019(4)
C2 C -0.5453(5) 0.1666(5) 0.7659(4)
H2 H -0.5685 0.1601 0.8407
H3 H -0.5196 0.0791 0.7389
C3 C -0.1879(6) 0.1980(6) 0.7410(5)
C4 C -0.3209(5) 0.2322(5) 0.6839(4)
H4 H -0.3050 0.3094 0.6414
H5 H -0.3498 0.1584 0.6350
C5 C -0.2012(6) 0.8623(5) 0.9332(4)
C6 C -0.2700(6) 0.8291(5) 0.8246(4)
H6 H -0.2260 0.8790 0.7697
H7 H -0.3654 0.8525 0.8259
C7 C -0.1343(6) 0.6113(6) 0.6398(4)
C8 C -0.1311(5) 0.6360(5) 0.7602(4)
H8 H -0.0580 0.7001 0.7802
H9 H -0.1107 0.5535 0.7941
C9 C -0.7597(7) 0.7976(6) 0.8554(6)
C10 C -0.7118(7) 0.7200(6) 0.9499(5)
H10 H -0.6284 0.7624 0.9802
H11 H -0.7803 0.7256 1.0046
C11 C -0.8751(5) 0.4132(5) 0.8712(4)
C12 C -0.7838(6) 0.4806(5) 0.9592(4)
H12 H -0.8418 0.5221 1.0120
H13 H -0.7337 0.4122 0.9947
C13 C -0.4428(5) 0.3867(5) 0.7973(4)
C14 C -0.3622(6) 0.5979(5) 0.8129(4)
C15 C -0.5714(6) 0.5444(5) 0.8768(4)
N1 N -0.4301(5) 0.2602(4) 0.7580(4)
N2 N -0.2587(5) 0.6854(4) 0.8004(3)
N3 N -0.6861(5) 0.5804(4) 0.9260(4)
N4 N -0.5575(5) 0.4143(4) 0.8506(4)
N5 N -0.3414(5) 0.4725(5) 0.7784(4)
N6 N -0.4775(5) 0.6402(4) 0.8581(4)
S1 S 0.0566(3) -0.0666(3) 0.5815(2)
H14 H 0.222(7) 0.605(5) 0.558(4)
H15 H 0.258(8) 0.584(5) 0.659(3)
O13A O -0.0103(4) 0.0591(4) 0.3079(3)
O14A O -0.0755(9) -0.0636(8) 0.4655(6)
O15A O -0.1875(14) 0.1368(14) 0.4181(12)
O16A O 0.0394(13) 0.1491(10) 0.4855(7)
O17A O -0.1066(9) 0.2603(9) 0.4773(6)
S1A S -0.0566(3) 0.0666(3) 0.4185(2)
Pr1A Pr -0.05483(3) -0.08947(3) 0.14480(2)
Pr2A Pr -0.09728(3) -0.33909(4) 0.40570(2)
O1A O 0.6544(4) -0.2817(5) 0.3772(3)
O2A O 0.7872(4) -0.1731(4) 0.2711(3)
O3A O 0.0764(4) -0.2254(5) 0.3011(4)
O4A O 0.1921(4) -0.1355(4) 0.1729(4)
O5A O 0.0784(4) -0.9099(4) 0.0628(3)
O6A O 0.2612(4) -0.8370(4) -0.0166(3)
O7A O 0.2167(6) -0.6718(6) 0.4170(3)
O8A O 0.0491(5) -0.5366(6) 0.4021(4)
O9A O 0.7845(6) -0.9158(5) 0.1255(4)
O10A O 0.7745(10) -0.7413(6) 0.2364(5)
H1A H 0.8007 -0.7953 0.2794
O11A O 0.9566(4) -0.3254(4) 0.0956(3)
O12A O 0.8646(4) -0.4452(4) 0.2244(3)
O18A O -0.2465(6) -0.5447(6) 0.4023(5)
C1A C 0.6688(5) -0.2111(5) 0.2981(4)
C2A C 0.5453(5) -0.1666(5) 0.2341(4)
H2A H 0.5685 -0.1601 0.1593
H3A H 0.5196 -0.0791 0.2611
C3A C 0.1879(6) -0.1980(6) 0.2590(5)
C4A C 0.3209(5) -0.2322(5) 0.3161(4)
H4A H 0.3050 -0.3094 0.3586
H5A H 0.3498 -0.1584 0.3650
C5A C 0.2012(6) -0.8623(5) 0.0668(4)
C6A C 0.2700(6) -0.8291(5) 0.1754(4)
H6A H 0.2260 -0.8790 0.2303
H7A H 0.3654 -0.8525 0.1741
C7A C 0.1343(6) -0.6113(6) 0.3602(4)
C8A C 0.1311(5) -0.6360(5) 0.2398(4)
H8A H 0.0580 -0.7001 0.2198
H9A H 0.1107 -0.5535 0.2059
C9A C 0.7597(7) -0.7976(6) 0.1446(6)
C10A C 0.7118(7) -0.7200(6) 0.0501(5)
H10A H 0.6284 -0.7624 0.0198
H11A H 0.7803 -0.7256 -0.0046
C11A C 0.8751(5) -0.4132(5) 0.1288(4)
C12A C 0.7838(6) -0.4806(5) 0.0408(4)
H12A H 0.8418 -0.5221 -0.0120
H13A H 0.7337 -0.4122 0.0053
C13A C 0.4428(5) -0.3867(5) 0.2027(4)
C14A C 0.3622(6) -0.5979(5) 0.1871(4)
C15A C 0.5714(6) -0.5444(5) 0.1232(4)
N1A N 0.4301(5) -0.2602(4) 0.2420(4)
N2A N 0.2587(5) -0.6854(4) 0.1996(3)
N3A N 0.6861(5) -0.5804(4) 0.0740(4)
N4A N 0.5575(5) -0.4143(4) 0.1494(4)
N5A N 0.3414(5) -0.4725(5) 0.2216(4)
N6A N 0.4775(5) -0.6402(4) 0.1419(4)
H14A H -0.222(7) -0.605(5) 0.442(4)
H15A H -0.258(8) -0.584(5) 0.341(3)
Pr1_2 Pr -0.94517(3) 0.08947(3) 0.85520(2)
Pr1_3 Pr -0.94517(3) 1.08947(3) 0.85520(2)
Pr1_4 Pr 0.05483(3) -0.91053(3) -0.14480(2)
Pr1_5 Pr 0.05483(3) 1.08947(3) 0.85520(2)
Pr1A_2 Pr -0.05483(3) -1.08947(3) 0.14480(2)
Pr1A_3 Pr -0.05483(3) 0.91053(3) 1.14480(2)
Pr1A_4 Pr 0.94517(3) -1.08947(3) 0.14480(2)
Pr1A_5 Pr 0.94517(3) -0.08947(3) 0.14480(2)
Pr2_2 Pr -0.90272(3) 0.33909(4) 0.59430(2)
Pr2_3 Pr 0.09728(3) -0.66091(4) 0.59430(2)
Pr2A_2 Pr -0.09728(3) 0.66091(4) 0.40570(2)
Pr2A_3 Pr 0.90272(3) -0.33909(4) 0.40570(2)
O1_2 O 0.3456(4) 0.2817(5) 0.6228(3)
O1A_2 O -0.3456(4) -0.2817(5) 0.3772(3)
O2_2 O 0.2128(4) 0.1731(4) 0.7289(3)
O2A_2 O -0.2128(4) -0.1731(4) 0.2711(3)
O5_2 O -0.0784(4) -0.0901(4) -0.0628(3)
O5_3 O -0.0784(4) -0.0901(4) 0.9372(3)
O5A_2 O 0.0784(4) 0.0901(4) 0.0628(3)
O5A_3 O 0.0784(4) 0.0901(4) 1.0628(3)
O6_2 O -0.2612(4) -0.1630(4) 0.0166(3)
O6A_2 O 0.2612(4) 0.1630(4) 0.9834(3)
O7_2 O -0.2167(6) -0.3282(6) 0.5830(3)
O7A_2 O 0.2167(6) 0.3282(6) 0.4170(3)
O8_2 O -0.0491(5) -0.4634(6) 0.5979(4)
O8A_2 O 0.0491(5) 0.4634(6) 0.4021(4)
O9_2 O 0.2155(6) -0.0842(5) 0.8745(4)
O9A_2 O -0.2155(6) 0.0842(5) 0.1255(4)
O11_2 O 0.0434(4) 0.3254(4) 0.9044(3)
O11A_2 O -0.0434(4) -0.3254(4) 0.0956(3)
O12_2 O 0.1354(4) 0.4452(4) 0.7756(3)
O12A_2 O -0.1354(4) -0.4452(4) 0.2244(3)
loop_
_geom_bond_atom_site_label_1
_geom_bond_atom_site_label_2
_geom_bond_site_symmetry_1
_geom_bond_site_symmetry_2
Pr1 O3 1_555 1_555
Pr2 O3 1_555 1_555
O1 C1 1_555 1_555
O2 C1 1_555 1_555
O3 C3 1_555 1_555
O4 Pr1 1_555 1_555
O5 C5 1_555 1_555
O6 C5 1_555 1_555
O7 C7 1_555 1_555
O8 Pr2 1_555 1_555
O9 C9 1_555 1_555
O10 H1 1_555 1_555
O11 C11 1_555 1_555
O12 C11 1_555 1_555
O13 Pr1 1_555 1_555
O14 Pr2 1_555 1_555
O15 S1 1_555 1_555
O16 S1 1_555 1_555
O17 Pr2A 1_555 1_555
O18 Pr2 1_555 1_555
C1 C2 1_555 1_555
C2 H2 1_555 1_555
H3 C2 1_555 1_555
C3 O4 1_555 1_555
C4 C3 1_555 1_555
H4 C4 1_555 1_555
H5 C4 1_555 1_555
C5 C6 1_555 1_555
C6 H6 1_555 1_555
H7 C6 1_555 1_555
C7 O8 1_555 1_555
C8 C7 1_555 1_555
H8 C8 1_555 1_555
H9 C8 1_555 1_555
C9 O10 1_555 1_555
C10 C9 1_555 1_555
H10 C10 1_555 1_555
H11 C10 1_555 1_555
C11 C12 1_555 1_555
C12 H12 1_555 1_555
H13 C12 1_555 1_555
C13 N1 1_555 1_555
C14 N2 1_555 1_555
C15 N3 1_555 1_555
N1 C2 1_555 1_555
N2 C6 1_555 1_555
N3 C10 1_555 1_555
N4 C13 1_555 1_555
N5 C13 1_555 1_555
N6 C14 1_555 1_555
S1 O13 1_555 1_555
H14 O18 1_555 1_555
H15 O18 1_555 1_555
O13A S1A 1_555 1_555
O14A S1A 1_555 1_555
O15A S1A 1_555 1_555
O16A Pr2 1_555 1_555
O17A Pr2 1_555 1_555
S1A O16A 1_555 1_555
Pr1A O13A 1_555 1_555
Pr2A O16 1_555 1_555
O1A C1A 1_555 1_555
O2A C1A 1_555 1_555
O3A Pr1A 1_555 1_555
O4A Pr1A 1_555 1_555
O5A C5A 1_555 1_555
O6A C5A 1_555 1_555
O7A C7A 1_555 1_555
O8A Pr2A 1_555 1_555
O9A C9A 1_555 1_555
O10A H1A 1_555 1_555
O11A C11A 1_555 1_555
O12A C11A 1_555 1_555
O18A Pr2A 1_555 1_555
C1A C2A 1_555 1_555
C2A H2A 1_555 1_555
H3A C2A 1_555 1_555
C3A O3A 1_555 1_555
C4A C3A 1_555 1_555
H4A C4A 1_555 1_555
H5A C4A 1_555 1_555
C5A C6A 1_555 1_555
C6A H6A 1_555 1_555
H7A C6A 1_555 1_555
C7A O8A 1_555 1_555
C8A C7A 1_555 1_555
H8A C8A 1_555 1_555
H9A C8A 1_555 1_555
C9A O10A 1_555 1_555
C10A C9A 1_555 1_555
H10A C10A 1_555 1_555
H11A C10A 1_555 1_555
C11A C12A 1_555 1_555
C12A H12A 1_555 1_555
H13A C12A 1_555 1_555
C13A N1A 1_555 1_555
C14A N2A 1_555 1_555
C15A N3A 1_555 1_555
N1A C2A 1_555 1_555
N2A C6A 1_555 1_555
N3A C10A 1_555 1_555
N4A C13A 1_555 1_555
N5A C13A 1_555 1_555
N6A C14A 1_555 1_555
H14A O18A 1_555 1_555
H15A O18A 1_555 1_555
Pr1_2 O2 1_555 1_555
Pr1_3 O9 1_555 1_555
Pr1_4 O5A 1_555 1_555
Pr1_5 O5 1_555 1_555
Pr1A_2 O5A 1_555 1_555
Pr1A_3 O5 1_555 1_555
Pr1A_4 O9A 1_555 1_555
Pr1A_5 O2A 1_555 1_555
Pr2_2 O1 1_555 1_555
Pr2_3 O7A 1_555 1_555
Pr2A_2 O7 1_555 1_555
Pr2A_3 O1A 1_555 1_555
O1_2 Pr2 1_555 1_555
O1A_2 Pr2A 1_555 1_555
O2_2 Pr1 1_555 1_555
O2A_2 Pr1A 1_555 1_555
O5_2 Pr1A 1_555 1_555
O5_3 Pr1 1_555 1_555
O5A_2 Pr1A 1_555 1_555
O5A_3 Pr1 1_555 1_555
O6_2 Pr1A 1_555 1_555
O6A_2 Pr1 1_555 1_555
O7_2 Pr2A 1_555 1_555
O7A_2 Pr2 1_555 1_555
O8_2 Pr2A 1_555 1_555
O8A_2 Pr2 1_555 1_555
O9_2 Pr1 1_555 1_555
O9A_2 Pr1A 1_555 1_555
O11_2 Pr1 1_555 1_555
O11A_2 Pr1A 1_555 1_555
O12_2 Pr2 1_555 1_555
O12A_2 Pr2A 1_555 1_555
Pr2 O2_2 1_555 1_555
O2 Pr2_2 1_555 1_555
O6 Pr1A_3 1_555 1_555
O8 Pr2A_2 1_555 1_555
O11 Pr1_2 1_555 1_555
O12 Pr2_2 1_555 1_555
O14 S1 1_555 1_555
C4 N1 1_555 1_555
C8 N2 1_555 1_555
C12 N3 1_555 1_555
C14 N5 1_555 1_555
C15 N4 1_555 1_555
C15 N6 1_555 1_555
O14A Pr2A 1_555 1_555
Pr2A O3A 1_555 1_555
Pr2A O2A_2 1_555 1_555
O2A Pr2A_3 1_555 1_555
O4A C3A 1_555 1_555
O6A Pr1_4 1_555 1_555
O8A Pr2_3 1_555 1_555
O11A Pr1A_5 1_555 1_555
O12A Pr2A_3 1_555 1_555
C4A N1A 1_555 1_555
C8A N2A 1_555 1_555
C12A N3A 1_555 1_555
C14A N5A 1_555 1_555
C15A N4A 1_555 1_555
C15A N6A 1_555 1_555
Pr2_3 O8_2 1_555 1_555
Pr2A_2 O8A_2 1_555 1_555

#END
