
#######################################################################
#
#                 Cambridge Crystallographic Data Centre
#                                CCDC 
#
#######################################################################
#
# If this CIF has been generated from an entry in the Cambridge 
# Structural Database, then it will include bibliographic, chemical, 
# crystal, experimental, refinement or atomic coordinate data resulting 
# from the CCDC's data processing and validation procedures.
#
#######################################################################

data_QADKAH01
_chemical_formula_moiety         '(C3 H17 N1 O12 P2 V2)n'
_symmetry_cell_setting           monoclinic
_symmetry_space_group_name_H-M   'C 2/c'
_symmetry_Int_Tables_number      15
_space_group_name_Hall           '-C 2yc'
loop_
_symmetry_equiv_pos_site_id
_symmetry_equiv_pos_as_xyz
1 x,y,z
2 -x,y,1/2-z
3 1/2+x,1/2+y,z
4 1/2-x,1/2+y,1/2-z
5 -x,-y,-z
6 x,-y,1/2+z
7 1/2-x,1/2-y,-z
8 1/2+x,1/2-y,1/2+z
_cell_length_a                   14.8998(8)
_cell_length_b                   10.2903(6)
_cell_length_c                   18.515(1)
_cell_angle_alpha                90
_cell_angle_beta                 101.079(1)
_cell_angle_gamma                90
_cell_volume                     2785.88
loop_
_atom_site_label
_atom_site_type_symbol
_atom_site_fract_x
_atom_site_fract_y
_atom_site_fract_z
V1 V -0.1674(1) -0.6176(1) -0.0929(1)
V2 V -0.2423(1) -0.5538(1) -0.2833(1)
P1 P 0.2158(1) -0.3792(1) -0.0747(1)
P2 P -0.1623(1) -0.3341(1) -0.1667(1)
O1 O 0.2096(2) -0.4249(3) 0.0029(1)
O2 O 0.3029(2) -0.3000(2) -0.0734(2)
O3 O -0.1662(2) -0.4072(3) -0.2386(1)
O4 O -0.1715(2) -0.4258(3) -0.1029(1)
O5 O 0.2148(2) -0.5011(2) -0.1211(1)
O6 O -0.2349(2) -0.2290(3) -0.1715(2)
O7 O -0.3432(2) -0.4978(4) -0.2880(2)
O8 O -0.0612(3) -0.6379(3) -0.0864(3)
O9 O -0.2223(4) -0.6300(4) -0.1853(2)
C1 C 0.1188(3) -0.2792(3) -0.1103(2)
C2 C -0.0522(3) -0.2578(4) -0.1444(2)
C3 C 0.0283(2) -0.3518(2) -0.1242(2)
O10 O -0.0937(2) -0.6470(2) -0.2736(2)
H1 H 0.1156(3) -0.2093(3) -0.0757(2)
H2 H 0.1278(3) -0.2402(3) -0.1561(2)
H3 H -0.0431(3) -0.2062(4) -0.1863(2)
H4 H -0.0520(3) -0.1990(4) -0.1035(2)
H5 H 0.0222(2) -0.4000(2) -0.0804(2)
H6 H 0.0274(2) -0.4135(2) -0.1639(2)
O5A O -0.2148(2) -0.5011(2) -0.3789(1)
O6C O -0.2651(2) -0.7290(3) -0.3285(2)
V1B V 0.3326(1) -0.1176(1) -0.0929(1)
V1D V 0.1674(1) -0.3824(1) 0.0929(1)
V2A V 0.2423(1) -0.5538(1) -0.2167(1)
V2C V -0.2577(1) -0.0538(1) -0.2167(1)
O1D O -0.2096(2) -0.5751(3) -0.0029(1)
O2B O -0.1971(2) -0.8000(2) -0.0734(2)
O11 O 0.3450(2) -0.7934(2) 0.0376(2)
O12 O 0.0107(2) -0.0877(2) 0.0566(2)
N1 N 0.4249(2) -0.4123(2) -0.3274(2)
loop_
_geom_bond_atom_site_label_1
_geom_bond_atom_site_label_2
_geom_bond_site_symmetry_1
_geom_bond_site_symmetry_2
V1 O4 1_555 1_555
V2 O3 1_555 1_555
P1 O1 1_555 1_555
P2 O3 1_555 1_555
O1 V1D 1_555 1_555
O2 P1 1_555 1_555
O4 P2 1_555 1_555
O5 P1 1_555 1_555
O6 P2 1_555 1_555
O7 V2 1_555 1_555
O8 V1 1_555 1_555
O9 V1 1_555 1_555
C1 P1 1_555 1_555
C2 P2 1_555 1_555
C3 C1 1_555 1_555
O10 V2 1_555 1_555
H1 C1 1_555 1_555
H2 C1 1_555 1_555
H3 C2 1_555 1_555
H4 C2 1_555 1_555
H5 C3 1_555 1_555
H6 C3 1_555 1_555
O5A V2 1_555 1_555
O6C V2 1_555 1_555
V1B O2 1_555 1_555
V2A O5 1_555 1_555
V2C O6 1_555 1_555
O1D V1 1_555 1_555
O2B V1 1_555 1_555
V2 O9 1_555 1_555
C2 C3 1_555 1_555

#END
