
#######################################################################
#
#                 Cambridge Crystallographic Data Centre
#                                CCDC 
#
#######################################################################
#
# If this CIF has been generated from an entry in the Cambridge 
# Structural Database, then it will include bibliographic, chemical, 
# crystal, experimental, refinement or atomic coordinate data resulting 
# from the CCDC's data processing and validation procedures.
#
#######################################################################

data_ZOTKEA
_chemical_formula_moiety         'C44 H35 Eu4 N8 O15'
_symmetry_cell_setting           orthorhombic
_symmetry_space_group_name_H-M   'P c c n'
_symmetry_Int_Tables_number      56
_space_group_name_Hall           '-P 2ab 2ac'
loop_
_symmetry_equiv_pos_site_id
_symmetry_equiv_pos_as_xyz
1 x,y,z
2 1/2-x,1/2-y,z
3 1/2+x,-y,1/2-z
4 -x,1/2+y,1/2-z
5 -x,-y,-z
6 1/2+x,1/2+y,-z
7 1/2-x,y,1/2+z
8 x,1/2-y,1/2+z
_cell_length_a                   13.166(3)
_cell_length_b                   34.112(7)
_cell_length_c                   10.078(2)
_cell_angle_alpha                90
_cell_angle_beta                 90
_cell_angle_gamma                90
_cell_volume                     4526.22
loop_
_atom_site_label
_atom_site_type_symbol
_atom_site_fract_x
_atom_site_fract_y
_atom_site_fract_z
O6 O 0.5563(9) 0.7044(3) 0.1971(10)
Eu1 Eu 0.2500 0.7500 0.03590(7)
O1 O 0.1853(7) 0.79177(19) 0.1952(7)
O2 O 0.1026(8) 0.7738(2) -0.0862(7)
H1 H 0.0495 0.7681 -0.0443
O3 O -0.0962(7) 1.2178(2) 0.3665(7)
O4 O 0.0282(8) 1.2176(3) 0.5106(9)
O5 O 0.2073(7) 0.8056(2) 0.4063(7)
N1 N 0.1375(8) 0.9794(2) 0.1871(9)
H2 H 0.1335 0.9930 0.2589
N2 N 0.1303(8) 0.9856(3) -0.0441(9)
N3 N 0.1091(9) 1.0666(3) -0.0081(12)
H3 H 0.1037 1.0921 0.0027
N4 N 0.133(2) 1.0561(8) 0.219(3)
H4 H 0.1732 1.0428 0.2730
C1 C 0.1909(10) 0.8146(3) 0.2886(10)
C2 C 0.1713(8) 0.8579(3) 0.2600(10)
C3 C 0.1208(10) 1.0109(3) -0.1499(13)
C4 C 0.1651(9) 0.8719(3) 0.1323(11)
H5 H 0.1678 0.8538 0.0608
C5 C 0.1497(8) 0.9378(3) 0.2078(11)
C6 C 0.1553(10) 0.9242(3) 0.3369(10)
H6 H 0.1517 0.9424 0.4082
C7 C 0.1549(8) 0.9114(3) 0.1042(11)
H7 H 0.1516 0.9203 0.0149
C8 C 0.1096(9) 1.0507(3) -0.1355(13)
C9 C 0.1307(9) 1.0005(3) 0.0737(13)
C10 C -0.0113(12) 1.1060(3) 0.2347(13)
H8 H -0.0549 1.0903 0.1814
C11 C -0.0459(10) 1.1413(3) 0.2798(11)
H9 H -0.1120 1.1503 0.2569
C12 C 0.1114(12) 1.0205(4) -0.3874(13)
H10 H 0.1124 1.0103 -0.4750
C13 C 0.1660(9) 0.8855(3) 0.3639(10)
H11 H 0.1698 0.8768 0.4534
C14 C 0.0178(11) 1.1642(3) 0.3605(11)
C15 C 0.1237(10) 0.9952(4) -0.2803(11)
H12 H 0.1337 0.9679 -0.2942
C16 C -0.0189(7) 1.2031(3) 0.4161(10)
C17 C 0.1170(11) 1.0431(3) 0.0980(17)
C18 C 0.0961(11) 1.0761(4) -0.2394(13)
H13 H 0.0859 1.1033 -0.2243
C19 C 0.0978(10) 1.0609(4) -0.3682(16)
H14 H 0.0897 1.0779 -0.4423
C20 C 0.0858(12) 1.0920(3) 0.2643(11)
C21 C 0.1511(12) 1.1158(3) 0.3451(12)
H15 H 0.2186 1.1076 0.3637
C22 C 0.1149(9) 1.1506(3) 0.3953(10)
H16 H 0.1558 1.1655 0.4542
H17 H 0.082(11) 0.783(4) -0.157(7)
O1A O 0.3147(7) 0.70823(19) 0.1952(7)
O2A O 0.3974(8) 0.7262(2) -0.0862(7)
H1A H 0.4505 0.7319 -0.0443
O3A O 0.5962(7) 0.2822(2) 0.3665(7)
O4A O 0.4718(8) 0.2824(3) 0.5106(9)
O5A O 0.2927(7) 0.6944(2) 0.4063(7)
N1A N 0.3625(8) 0.5206(2) 0.1871(9)
H2A H 0.3665 0.5070 0.2589
N2A N 0.3697(8) 0.5144(3) -0.0441(9)
N3A N 0.3909(9) 0.4334(3) -0.0081(12)
H3A H 0.3963 0.4079 0.0027
N4A N 0.367(2) 0.4439(8) 0.219(3)
C1A C 0.3091(10) 0.6854(3) 0.2886(10)
C2A C 0.3287(8) 0.6421(3) 0.2600(10)
C3A C 0.3792(10) 0.4891(3) -0.1499(13)
C4A C 0.3349(9) 0.6281(3) 0.1323(11)
H5A H 0.3322 0.6462 0.0608
C5A C 0.3503(8) 0.5622(3) 0.2078(11)
C6A C 0.3447(10) 0.5758(3) 0.3369(10)
H6A H 0.3483 0.5576 0.4082
C7A C 0.3451(8) 0.5886(3) 0.1042(11)
H7A H 0.3484 0.5797 0.0149
C8A C 0.3904(9) 0.4493(3) -0.1355(13)
C9A C 0.3693(9) 0.4995(3) 0.0737(13)
C10A C 0.5113(12) 0.3940(3) 0.2347(13)
H8A H 0.5549 0.4097 0.1814
C11A C 0.5459(10) 0.3587(3) 0.2798(11)
H9A H 0.6120 0.3497 0.2569
C12A C 0.3886(12) 0.4795(4) -0.3874(13)
H10A H 0.3876 0.4897 -0.4750
C13A C 0.3340(9) 0.6145(3) 0.3639(10)
H11A H 0.3302 0.6232 0.4534
C14A C 0.4822(11) 0.3358(3) 0.3605(11)
C15A C 0.3763(10) 0.5048(4) -0.2803(11)
H12A H 0.3663 0.5321 -0.2942
C16A C 0.5189(7) 0.2969(3) 0.4161(10)
C17A C 0.3830(11) 0.4569(3) 0.0980(17)
C18A C 0.4039(11) 0.4239(4) -0.2394(13)
H13A H 0.4141 0.3967 -0.2243
C19A C 0.4022(10) 0.4391(4) -0.3682(16)
H14A H 0.4103 0.4221 -0.4423
C20A C 0.4142(12) 0.4080(3) 0.2643(11)
C21A C 0.3489(12) 0.3842(3) 0.3451(12)
H15A H 0.2814 0.3924 0.3637
C22A C 0.3851(9) 0.3494(3) 0.3953(10)
H16A H 0.3442 0.3345 0.4542
H17A H 0.418(11) 0.717(4) -0.157(7)
Eu1B Eu -0.2500 1.2500 0.46410(7)
Eu1B_2 Eu 0.7500 0.2500 0.46410(7)
Eu1F Eu 0.2500 0.7500 0.53590(7)
O3B O 0.4038(7) 0.7822(2) 0.1335(7)
O3C O 0.0962(7) 0.7178(2) 0.1335(7)
O5F O 0.2927(7) 0.8056(2) -0.0937(7)
O5G O 0.2073(7) 0.6944(2) -0.0937(7)
loop_
_geom_bond_atom_site_label_1
_geom_bond_atom_site_label_2
_geom_bond_site_symmetry_1
_geom_bond_site_symmetry_2
Eu1 O1 1_555 1_555
O1 C1 1_555 1_555
O2 Eu1 1_555 1_555
H1 O2 1_555 1_555
O3 C16 1_555 1_555
O4 C16 1_555 1_555
O5 C1 1_555 1_555
N1 H2 1_555 1_555
N2 C3 1_555 1_555
N3 H3 1_555 1_555
N4 H4 1_555 1_555
C1 C2 1_555 1_555
C2 C4 1_555 1_555
C3 C8 1_555 1_555
C4 H5 1_555 1_555
C5 N1 1_555 1_555
C6 C5 1_555 1_555
H6 C6 1_555 1_555
C7 C4 1_555 1_555
H7 C7 1_555 1_555
C8 N3 1_555 1_555
C9 N1 1_555 1_555
C10 H8 1_555 1_555
C11 C10 1_555 1_555
H9 C11 1_555 1_555
C12 H10 1_555 1_555
C13 C2 1_555 1_555
H11 C13 1_555 1_555
C14 C11 1_555 1_555
C15 C3 1_555 1_555
H12 C15 1_555 1_555
C16 C14 1_555 1_555
C17 N3 1_555 1_555
C18 C8 1_555 1_555
H13 C18 1_555 1_555
C19 C12 1_555 1_555
H14 C19 1_555 1_555
C20 N4 1_555 1_555
C21 C20 1_555 1_555
H15 C21 1_555 1_555
C22 C14 1_555 1_555
H16 C22 1_555 1_555
H17 O2 1_555 1_555
O1A Eu1 1_555 1_555
O2A Eu1 1_555 1_555
H1A O2A 1_555 1_555
O3A C16A 1_555 1_555
O4A C16A 1_555 1_555
O5A C1A 1_555 1_555
N1A H2A 1_555 1_555
N2A C3A 1_555 1_555
N3A H3A 1_555 1_555
N4A C17A 1_555 1_555
C1A O1A 1_555 1_555
C2A C1A 1_555 1_555
C3A C8A 1_555 1_555
C4A C2A 1_555 1_555
H5A C4A 1_555 1_555
C5A N1A 1_555 1_555
C6A C5A 1_555 1_555
H6A C6A 1_555 1_555
C7A C4A 1_555 1_555
H7A C7A 1_555 1_555
C8A N3A 1_555 1_555
C9A N1A 1_555 1_555
C10A H8A 1_555 1_555
C11A C10A 1_555 1_555
H9A C11A 1_555 1_555
C12A H10A 1_555 1_555
C13A C2A 1_555 1_555
H11A C13A 1_555 1_555
C14A C11A 1_555 1_555
C15A C3A 1_555 1_555
H12A C15A 1_555 1_555
C16A C14A 1_555 1_555
C17A N3A 1_555 1_555
C18A C8A 1_555 1_555
H13A C18A 1_555 1_555
C19A C12A 1_555 1_555
H14A C19A 1_555 1_555
C20A N4A 1_555 1_555
C21A C20A 1_555 1_555
H15A C21A 1_555 1_555
C22A C14A 1_555 1_555
H16A C22A 1_555 1_555
H17A O2A 1_555 1_555
Eu1B O3 1_555 1_555
Eu1B_2 O3A 1_555 1_555
Eu1F O5 1_555 1_555
O3B Eu1 1_555 1_555
O3C Eu1 1_555 1_555
O5F Eu1 1_555 1_555
O5G Eu1 1_555 1_555
N2 C9 1_555 1_555
N4 C17 1_555 1_555
C5 C7 1_555 1_555
C6 C13 1_555 1_555
C9 C17 1_555 1_555
C10 C20 1_555 1_555
C12 C15 1_555 1_555
C18 C19 1_555 1_555
C21 C22 1_555 1_555
O5A Eu1F 1_555 1_555
N2A C9A 1_555 1_555
C5A C7A 1_555 1_555
C6A C13A 1_555 1_555
C9A C17A 1_555 1_555
C10A C20A 1_555 1_555
C12A C15A 1_555 1_555
C18A C19A 1_555 1_555
C21A C22A 1_555 1_555

#END
