
#######################################################################
#
#                 Cambridge Crystallographic Data Centre
#                                CCDC 
#
#######################################################################
#
# If this CIF has been generated from an entry in the Cambridge 
# Structural Database, then it will include bibliographic, chemical, 
# crystal, experimental, refinement or atomic coordinate data resulting 
# from the CCDC's data processing and validation procedures.
#
#######################################################################

data_GAMTIY
_chemical_formula_moiety         '(C14 H25 O12 Pr1)n'
_symmetry_cell_setting           triclinic
_symmetry_space_group_name_H-M   'P -1'
_symmetry_Int_Tables_number      2
_space_group_name_Hall           '-P 1'
loop_
_symmetry_equiv_pos_site_id
_symmetry_equiv_pos_as_xyz
1 x,y,z
2 -x,-y,-z
_cell_length_a                   8.541(4)
_cell_length_b                   10.909(5)
_cell_length_c                   11.198(5)
_cell_angle_alpha                64.153(14)
_cell_angle_beta                 79.902(15)
_cell_angle_gamma                73.711(14)
_cell_volume                     899.591
loop_
_atom_site_label
_atom_site_type_symbol
_atom_site_fract_x
_atom_site_fract_y
_atom_site_fract_z
Pr1 Pr 0.24808(6) 0.50296(5) 0.50342(4)
O1 O 0.0305(4) 0.4371(4) 0.4116(3)
O2 O 0.2820(4) 0.4076(4) 0.3265(3)
O3 O 0.2655(4) 0.4365(3) -0.2440(3)
O4 O 0.4967(4) 0.4521(4) -0.3662(3)
O5 O 0.7240(5) -0.2594(4) 0.3849(4)
O6 O 0.6946(6) -0.0385(4) 0.3499(5)
O7 O 0.2541(4) 0.7263(3) 0.5121(3)
O8 O 0.1143(5) 0.7134(3) 0.3045(3)
C1 C 0.2324(6) 0.2668(6) 0.1850(5)
C2 C 0.2991(6) 0.3500(5) 0.0629(4)
H1 H 0.2504 0.4473 0.0229
C3 C 0.4337(7) 0.2944(6) -0.0008(5)
C4 C 0.5024(7) 0.1504(6) 0.0568(5)
H2 H 0.5932 0.1105 0.0124
C5 C 0.4387(7) 0.0651(5) 0.1789(5)
C6 C 0.3067(6) 0.1243(5) 0.2410(5)
H3 H 0.2644 0.0664 0.3248
C7 C 0.0925(7) 0.3295(6) 0.2553(5)
H4 H 0.0343 0.2559 0.3156
H5 H 0.0156 0.4024 0.1889
C8 C 0.1379(7) 0.3951(5) 0.3368(5)
C9 C 0.5096(7) 0.3827(6) -0.1318(5)
H6 H 0.6215 0.3300 -0.1447
H7 H 0.5195 0.4686 -0.1267
C10 C 0.4152(7) 0.4257(5) -0.2538(5)
C11 C 0.5202(7) -0.0901(5) 0.2431(5)
H8 H 0.4347 -0.1414 0.2948
H9 H 0.5659 -0.1224 0.1714
C12 C 0.6542(8) -0.1309(6) 0.3335(5)
Pr1A Pr -0.24808(6) 0.49704(5) 0.49658(4)
Pr1_2 Pr 0.24808(6) 0.50296(5) -0.49658(4)
Pr1A_2 Pr 0.75192(6) 0.49704(5) -0.50342(4)
Pr1A_3 Pr 0.75192(6) -0.50296(5) 0.49658(4)
O1A O -0.0305(4) 0.5629(4) 0.5884(3)
O3_2 O 0.2655(4) 0.4365(3) 0.7560(3)
O4_2 O 0.4967(4) 0.4521(4) 0.6338(3)
O4A O 0.5033(4) 0.5479(4) 0.3662(3)
O5A O 0.2760(5) 0.2594(4) 0.6151(4)
O9 O 0.4034(5) 0.7629(4) 0.6821(4)
O10 O 1.0116(5) 0.0521(4) 0.5991(4)
O11 O -0.0081(7) 0.6920(6) 0.1102(5)
C13 C 0.1314(12) 0.8007(9) -0.1349(8)
H10 H 0.1122 0.9020 -0.1874
H11 H 0.0948 0.7575 -0.1824
H12 H 0.2483 0.7615 -0.1214
C14 C 0.034(3) 0.770(3) 0.003(2)
H13 H 0.0741 0.8301 0.0303
H14 H -0.0754 0.8263 -0.0292
O13 O -0.070(3) 0.951(4) -0.020(2)
loop_
_geom_bond_atom_site_label_1
_geom_bond_atom_site_label_2
_geom_bond_site_symmetry_1
_geom_bond_site_symmetry_2
Pr1 O1 1_555 1_555
O1 C8 1_555 1_555
O2 Pr1 1_555 1_555
O3 C10 1_555 1_555
O4 C10 1_555 1_555
O5 C12 1_555 1_555
O6 C12 1_555 1_555
O7 Pr1 1_555 1_555
O8 Pr1 1_555 1_555
O11 C14 1_555 1_555
C1 C2 1_555 1_555
C2 H1 1_555 1_555
C3 C2 1_555 1_555
C4 C3 1_555 1_555
H2 C4 1_555 1_555
C5 C4 1_555 1_555
C6 C1 1_555 1_555
H3 C6 1_555 1_555
C7 C1 1_555 1_555
H4 C7 1_555 1_555
H5 C7 1_555 1_555
C8 O2 1_555 1_555
C9 C3 1_555 1_555
H6 C9 1_555 1_555
H7 C9 1_555 1_555
C10 C9 1_555 1_555
C11 C5 1_555 1_555
H8 C11 1_555 1_555
H9 C11 1_555 1_555
C12 C11 1_555 1_555
C13 H10 1_555 1_555
H11 C13 1_555 1_555
H12 C13 1_555 1_555
C14 C13 1_555 1_555
H13 C14 1_555 1_555
H14 C14 1_555 1_555
Pr1A O1 1_555 1_555
Pr1_2 O3 1_555 1_555
Pr1A_2 O4 1_555 1_555
Pr1A_3 O5 1_555 1_555
O1A Pr1 1_555 1_555
O3_2 Pr1 1_555 1_555
O4_2 Pr1 1_555 1_555
O4A Pr1 1_555 1_555
O5A Pr1 1_555 1_555
O4 Pr1_2 1_555 1_555
C5 C6 1_555 1_555
C7 C8 1_555 1_555
Pr1A O1A 1_555 1_555

#END
