
#######################################################################
#
#                 Cambridge Crystallographic Data Centre
#                                CCDC 
#
#######################################################################
#
# If this CIF has been generated from an entry in the Cambridge 
# Structural Database, then it will include bibliographic, chemical, 
# crystal, experimental, refinement or atomic coordinate data resulting 
# from the CCDC's data processing and validation procedures.
#
#######################################################################

data_CAWDOU02
_chemical_formula_moiety         '(C24 H18 Cu1 N8 O3 2+)n'
_symmetry_cell_setting           tetragonal
_symmetry_space_group_name_H-M   'P 41 21 2'
_symmetry_Int_Tables_number      92
_space_group_name_Hall           'P 4abw 2nw'
loop_
_symmetry_equiv_pos_site_id
_symmetry_equiv_pos_as_xyz
1 x,y,z
2 -x,-y,1/2+z
3 1/2-y,1/2+x,1/4+z
4 1/2+y,1/2-x,3/4+z
5 1/2-x,1/2+y,1/4-z
6 1/2+x,1/2-y,3/4-z
7 y,x,-z
8 -y,-x,1/2-z
_cell_length_a                   16.4355(6)
_cell_length_b                   16.4355(6)
_cell_length_c                   13.9077(6)
_cell_angle_alpha                90
_cell_angle_beta                 90
_cell_angle_gamma                90
_cell_volume                     3756.83
loop_
_atom_site_label
_atom_site_type_symbol
_atom_site_fract_x
_atom_site_fract_y
_atom_site_fract_z
_atom_site_U_iso_or_equiv
_atom_site_thermal_displace_type
Cu1 Cu 0.182614(16) 0.182614(16) 0.5000 0.0596 Uani
C1 C 0.07176(15) 0.24761(15) 0.35016(17) 0.0674 Uani
H1 H 0.0321 0.2187 0.3834 0.0390 Uiso
C2 C 0.04938(13) 0.29093(13) 0.27037(16) 0.0656 Uani
H2 H -0.0042 0.2901 0.2489 0.0590 Uiso
C3 C 0.10730(12) 0.33579(12) 0.22235(14) 0.0526 Uani
C4 C 0.18552(14) 0.33484(14) 0.25632(16) 0.0718 Uani
H3 H 0.2258 0.3650 0.2257 0.0740 Uiso
C5 C 0.20402(15) 0.28937(15) 0.33541(17) 0.0732 Uani
H4 H 0.2574 0.2892 0.3576 0.0350 Uiso
C6 C 0.08635(13) 0.38430(12) 0.13763(15) 0.0579 Uani
C7 C 0.10635(13) 0.46383(13) 0.02114(14) 0.0616 Uani
C8 C 0.16467(14) 0.60307(14) -0.17775(16) 0.0678 Uani
H5 H 0.1400 0.6294 -0.2292 0.0390 Uiso
C9 C 0.11702(14) 0.55542(14) -0.11896(18) 0.0694 Uani
H6 H 0.0616 0.5498 -0.1305 0.0340 Uiso
C10 C 0.15359(14) 0.51582(13) -0.04187(16) 0.0636 Uani
C11 C 0.23495(15) 0.52780(15) -0.02753(17) 0.0722 Uani
H7 H 0.2607 0.5035 0.0246 0.0580 Uiso
C12 C 0.27863(15) 0.57530(15) -0.08950(17) 0.0713 Uani
H8 H 0.3342 0.5814 -0.0791 0.0320 Uiso
N1 N 0.14866(10) 0.24519(11) 0.38230(12) 0.0587 Uani
N2 N 0.01741(12) 0.39118(12) 0.09546(14) 0.0727 Uani
N3 N 0.03015(12) 0.44478(12) 0.01792(15) 0.0789 Uani
N4 N 0.24454(12) 0.61346(12) -0.16479(13) 0.0646 Uani
O1 O 0.14618(9) 0.42857(8) 0.09634(9) 0.0588 Uani
O2 O 0.08728(9) 0.08728(9) 0.5000 0.0837 Uani
H9 H 0.0933 0.0352 0.4967 0.1260 Uiso
Cu1B Cu 0.317386(16) 0.682614(16) -0.2500 0.0596 Uani
Cu1C Cu 0.682614(16) 0.317386(16) 1.2500 0.0596 Uani
C1F C 0.24761(15) 0.07176(15) 0.64984(17) 0.0674 Uani
H1F H 0.2187 0.0321 0.6166 0.0390 Uiso
C2F C 0.29093(13) 0.04938(13) 0.72963(16) 0.0656 Uani
H2F H 0.2901 -0.0042 0.7511 0.0590 Uiso
C3F C 0.33579(12) 0.10730(12) 0.77765(14) 0.0526 Uani
C4F C 0.33484(14) 0.18552(14) 0.74368(16) 0.0718 Uani
H3F H 0.3650 0.2258 0.7743 0.0740 Uiso
C5F C 0.28937(15) 0.20402(15) 0.66459(17) 0.0732 Uani
H4F H 0.2892 0.2574 0.6424 0.0350 Uiso
C6F C 0.38430(12) 0.08635(13) 0.86237(15) 0.0579 Uani
C7F C 0.46383(13) 0.10635(13) 0.97886(14) 0.0616 Uani
C8F C 0.60307(14) 0.16467(14) 1.17775(16) 0.0678 Uani
H5F H 0.6294 0.1400 1.2292 0.0390 Uiso
C9F C 0.55542(14) 0.11702(14) 1.11896(18) 0.0694 Uani
H6F H 0.5498 0.0616 1.1305 0.0340 Uiso
C10F C 0.51582(13) 0.15359(14) 1.04187(16) 0.0636 Uani
C11F C 0.52780(15) 0.23495(15) 1.02753(17) 0.0722 Uani
H7F H 0.5035 0.2607 0.9754 0.0580 Uiso
C12F C 0.57530(15) 0.27863(15) 1.08950(17) 0.0713 Uani
H8F H 0.5814 0.3342 1.0791 0.0320 Uiso
N1F N 0.24519(11) 0.14866(10) 0.61770(12) 0.0587 Uani
N2F N 0.39118(12) 0.01741(12) 0.90454(14) 0.0727 Uani
N3F N 0.44478(12) 0.03015(12) 0.98208(15) 0.0789 Uani
N4F N 0.61346(12) 0.24454(12) 1.16479(13) 0.0646 Uani
N4C N 0.11346(12) 0.25546(12) 0.58521(13) 0.0646 Uani
N4D N 0.25546(12) 0.11346(12) 0.41479(13) 0.0646 Uani
O1F O 0.42857(8) 0.14618(9) 0.90366(9) 0.0588 Uani
H9F H 0.0352 0.0933 0.5033 0.1260 Uiso
loop_
_atom_site_aniso_label
_atom_site_aniso_U_11
_atom_site_aniso_U_22
_atom_site_aniso_U_33
_atom_site_aniso_U_23
_atom_site_aniso_U_13
_atom_site_aniso_U_12
Cu1 0.06433(15) 0.06433(15) 0.05025(18) 0.00211(12) -0.00211(12) 0.00129(17)
C1 0.0589(13) 0.0737(14) 0.0696(15) 0.0097(13) 0.0004(12) -0.0112(11)
C2 0.0564(12) 0.0671(13) 0.0732(14) 0.0118(10) -0.0096(11) -0.0075(10)
C3 0.0514(11) 0.0546(11) 0.0518(11) -0.0032(8) 0.0024(8) 0.0018(9)
C4 0.0594(12) 0.0854(15) 0.0706(13) 0.0160(12) -0.0071(12) -0.0082(12)
C5 0.0625(14) 0.0869(16) 0.0703(14) 0.0121(13) -0.0107(12) -0.0062(12)
C6 0.0592(13) 0.0567(12) 0.0578(12) 0.0009(10) -0.0012(10) -0.0076(10)
C7 0.0602(12) 0.0611(12) 0.0634(13) 0.0067(10) -0.0112(10) 0.0009(10)
C8 0.0686(15) 0.0679(13) 0.0670(13) 0.0174(11) -0.0154(11) 0.0000(11)
C9 0.0586(13) 0.0676(13) 0.0821(15) 0.0121(12) -0.0171(11) 0.0004(11)
C10 0.0709(14) 0.0563(12) 0.0635(12) 0.0062(10) -0.0066(11) -0.0009(10)
C11 0.0668(14) 0.0858(16) 0.0641(14) 0.0170(12) -0.0133(11) -0.0017(13)
C12 0.0625(14) 0.0847(16) 0.0668(14) 0.0125(13) -0.0124(12) -0.0031(12)
N1 0.0588(10) 0.0670(11) 0.0503(9) 0.0046(8) 0.0018(8) 0.0017(9)
N2 0.0648(12) 0.0763(12) 0.0769(12) 0.0204(10) -0.0162(10) -0.0176(9)
N3 0.0789(13) 0.0744(12) 0.0833(14) 0.0229(11) -0.0251(11) -0.0176(10)
N4 0.0678(12) 0.0707(11) 0.0552(10) 0.0060(9) -0.0049(9) 0.0005(9)
O1 0.0609(8) 0.0600(8) 0.0556(8) 0.0063(7) -0.0056(7) -0.0023(7)
O2 0.0780(9) 0.0780(9) 0.0951(16) -0.0031(11) 0.0031(11) -0.0155(11)
Cu1B 0.06433 0.06433 0.05025 -0.00211 -0.00211 -0.00129
Cu1C 0.06433 0.06433 0.05025 0.00211 0.00211 -0.00129
C1F 0.0737 0.0589 0.0696 -0.0004 -0.0097 -0.0112
C2F 0.0671 0.0564 0.0732 0.0096 -0.0118 -0.0075
C3F 0.0546 0.0514 0.0518 -0.0024 0.0032 0.0018
C4F 0.0854 0.0594 0.0706 0.0071 -0.016 -0.0082
C5F 0.0869 0.0625 0.0703 0.0107 -0.0121 -0.0062
C6F 0.0567 0.0592 0.0578 0.0012 -0.0009 -0.0076
C7F 0.0611 0.0602 0.0634 0.0112 -0.0067 0.0009
C8F 0.0679 0.0686 0.067 0.0154 -0.0174 0
C9F 0.0676 0.0586 0.0821 0.0171 -0.0121 0.0004
C10F 0.0563 0.0709 0.0635 0.0066 -0.0062 -0.0009
C11F 0.0858 0.0668 0.0641 0.0133 -0.017 -0.0017
C12F 0.0847 0.0625 0.0668 0.0124 -0.0125 -0.0031
N1F 0.067 0.0588 0.0503 -0.0018 -0.0046 0.0017
N2F 0.0763 0.0648 0.0769 0.0162 -0.0204 -0.0176
N3F 0.0744 0.0789 0.0833 0.0251 -0.0229 -0.0176
N4F 0.0707 0.0678 0.0552 0.0049 -0.006 0.0005
N4C 0.0707 0.0678 0.0552 0.0049 0.006 -0.0005
N4D 0.0678 0.0707 0.0552 -0.006 -0.0049 -0.0005
O1F 0.06 0.0609 0.0556 0.0056 -0.0063 -0.0023
loop_
_geom_bond_atom_site_label_1
_geom_bond_atom_site_label_2
_geom_bond_site_symmetry_1
_geom_bond_site_symmetry_2
Cu1 N1 1_555 1_555
C1 H1 1_555 1_555
C2 C1 1_555 1_555
H2 C2 1_555 1_555
C3 C2 1_555 1_555
C4 C3 1_555 1_555
H3 C4 1_555 1_555
C5 C4 1_555 1_555
H4 C5 1_555 1_555
C6 C3 1_555 1_555
C7 C10 1_555 1_555
C8 H5 1_555 1_555
C9 C8 1_555 1_555
H6 C9 1_555 1_555
C10 C9 1_555 1_555
C11 C10 1_555 1_555
H7 C11 1_555 1_555
C12 C11 1_555 1_555
H8 C12 1_555 1_555
N1 C1 1_555 1_555
N2 C6 1_555 1_555
N3 C7 1_555 1_555
N4 C8 1_555 1_555
O1 C6 1_555 1_555
O2 Cu1 1_555 1_555
H9 O2 1_555 1_555
Cu1B N4 1_555 1_555
Cu1C N4F 1_555 1_555
C1F H1F 1_555 1_555
C2F C1F 1_555 1_555
H2F C2F 1_555 1_555
C3F C2F 1_555 1_555
C4F C3F 1_555 1_555
H3F C4F 1_555 1_555
C5F C4F 1_555 1_555
H4F C5F 1_555 1_555
C6F C3F 1_555 1_555
C7F C10F 1_555 1_555
C8F H5F 1_555 1_555
C9F C8F 1_555 1_555
H6F C9F 1_555 1_555
C10F C9F 1_555 1_555
C11F C10F 1_555 1_555
H7F C11F 1_555 1_555
C12F C11F 1_555 1_555
H8F C12F 1_555 1_555
N1F Cu1 1_555 1_555
N2F C6F 1_555 1_555
N3F C7F 1_555 1_555
N4F C8F 1_555 1_555
N4C Cu1 1_555 1_555
N4D Cu1 1_555 1_555
O1F C6F 1_555 1_555
H9F O2 1_555 1_555
C5 N1 1_555 1_555
C7 O1 1_555 1_555
C12 N4 1_555 1_555
N2 N3 1_555 1_555
C1F N1F 1_555 1_555
C5F N1F 1_555 1_555
C7F O1F 1_555 1_555
C12F N4F 1_555 1_555
N2F N3F 1_555 1_555

#END
