
#######################################################################
#
#                 Cambridge Crystallographic Data Centre
#                                CCDC 
#
#######################################################################
#
# If this CIF has been generated from an entry in the Cambridge 
# Structural Database, then it will include bibliographic, chemical, 
# crystal, experimental, refinement or atomic coordinate data resulting 
# from the CCDC's data processing and validation procedures.
#
#######################################################################

data_FUTTIZ
_chemical_formula_moiety         '(C62 H56 N5 O30 Zn5 1-)n'
_symmetry_cell_setting           cubic
_symmetry_space_group_name_H-M   'P a -3'
_symmetry_Int_Tables_number      205
_space_group_name_Hall           '-P 2ac 2ab 3'
loop_
_symmetry_equiv_pos_site_id
_symmetry_equiv_pos_as_xyz
1 x,y,z
2 1/2-x,-y,1/2+z
3 -x,1/2+y,1/2-z
4 1/2+x,1/2-y,-z
5 z,x,y
6 1/2+z,1/2-x,-y
7 1/2-z,-x,1/2+y
8 -z,1/2+x,1/2-y
9 y,z,x
10 -y,1/2+z,1/2-x
11 1/2+y,1/2-z,-x
12 1/2-y,-z,1/2+x
13 -x,-y,-z
14 1/2+x,y,1/2-z
15 x,1/2-y,1/2+z
16 1/2-x,1/2+y,z
17 -z,-x,-y
18 1/2-z,1/2+x,y
19 1/2+z,x,1/2-y
20 z,1/2-x,1/2+y
21 -y,-z,-x
22 y,1/2-z,1/2+x
23 1/2-y,1/2+z,x
24 1/2+y,z,1/2-x
_cell_length_a                   24.942(3)
_cell_length_b                   24.942(3)
_cell_length_c                   24.942(3)
_cell_angle_alpha                90
_cell_angle_beta                 90
_cell_angle_gamma                90
_cell_volume                     15516.5
loop_
_atom_site_label
_atom_site_type_symbol
_atom_site_fract_x
_atom_site_fract_y
_atom_site_fract_z
_atom_site_U_iso_or_equiv
_atom_site_thermal_displace_type
Zn1 Zn 0.078855(13) 0.078855(13) 0.078855(13) 0.0424 Uani
Zn2 Zn 0.0000 0.0000 0.0000 0.0427 Uani
Zn3 Zn 0.231833(13) 0.231833(13) 0.231833(13) 0.0448 Uani
O1 O 0.00958(9) 0.10986(9) 0.09296(10) 0.0552 Uani
O2 O -0.03105(9) 0.03320(9) 0.07079(9) 0.0529 Uani
O3 O -0.20821(10) 0.19374(10) 0.23711(10) 0.0630 Uani
O4 O -0.26102(10) 0.13203(12) 0.19993(11) 0.0725 Uani
O5 O -0.21953(15) 0.06184(18) 0.13716(19) 0.1000 Uani
N1 N 0.12591(9) 0.12591(9) 0.12591(9) 0.0423 Uani
N2 N 0.18471(9) 0.18471(9) 0.18471(9) 0.0417 Uani
C1 C -0.03092(13) 0.07813(12) 0.09209(13) 0.0494 Uani
C2 C -0.07948(12) 0.09769(13) 0.12063(13) 0.0497 Uani
C3 C -0.07622(14) 0.14352(17) 0.15205(18) 0.0707 Uani
H1 H -0.0436 0.1631 0.1540 0.0850 Uiso
C4 C -0.12058(14) 0.16036(16) 0.18028(18) 0.0717 Uani
H2 H -0.1180 0.1909 0.2028 0.0860 Uiso
C5 C -0.16859(13) 0.13353(14) 0.17627(14) 0.0560 Uani
C6 C -0.21628(14) 0.15425(15) 0.20609(15) 0.0593 Uani
C7 C -0.17184(14) 0.08835(16) 0.14449(16) 0.0642 Uani
C8 C -0.12771(14) 0.07005(15) 0.11694(15) 0.0594 Uani
H3 H -0.1302 0.0387 0.0955 0.0710 Uiso
C9 C 0.10875(12) 0.12173(12) 0.18271(12) 0.0462 Uani
H4 H 0.1164 0.0853 0.1964 0.0550 Uiso
H5 H 0.0697 0.1281 0.1854 0.0550 Uiso
C10 C 0.13910(12) 0.16360(12) 0.21661(12) 0.0444 Uani
H6 H 0.1147 0.1933 0.2265 0.0530 Uiso
H7 H 0.1525 0.1468 0.2500 0.0530 Uiso
C9D C 0.18271(12) 0.10875(12) 0.12173(12) 0.0462 Uani
H4D H 0.1964 0.1164 0.0853 0.0550 Uiso
H5D H 0.1854 0.0697 0.1281 0.0550 Uiso
C10D C 0.21661(12) 0.13910(12) 0.16360(12) 0.0444 Uani
H6D H 0.2265 0.1147 0.1933 0.0530 Uiso
H7D H 0.2500 0.1525 0.1468 0.0530 Uiso
C9H C 0.12173(12) 0.18271(12) 0.10875(12) 0.0462 Uani
H4H H 0.0853 0.1964 0.1164 0.0550 Uiso
H5H H 0.1281 0.1854 0.0697 0.0550 Uiso
C10H C 0.16360(12) 0.21661(12) 0.13910(12) 0.0444 Uani
H6H H 0.1933 0.2265 0.1147 0.0530 Uiso
H7H H 0.1468 0.2500 0.1525 0.0530 Uiso
O1D O 0.09296(10) 0.00958(9) 0.10986(9) 0.0552 Uani
O2D O 0.07079(9) -0.03105(9) 0.03320(9) 0.0529 Uani
O3D O 0.23711(10) -0.20821(10) 0.19374(10) 0.0630 Uani
O4D O 0.19993(11) -0.26102(10) 0.13203(12) 0.0725 Uani
O5D O 0.13716(19) -0.21953(15) 0.06184(18) 0.1000 Uani
C1D C 0.09209(13) -0.03092(13) 0.07813(12) 0.0494 Uani
C2D C 0.12063(13) -0.07948(12) 0.09769(13) 0.0497 Uani
C3D C 0.15205(18) -0.07622(14) 0.14352(17) 0.0707 Uani
H1D H 0.1540 -0.0436 0.1631 0.0850 Uiso
C4D C 0.18028(18) -0.12058(14) 0.16036(16) 0.0717 Uani
H2D H 0.2028 -0.1180 0.1909 0.0860 Uiso
C5D C 0.17627(14) -0.16859(13) 0.13353(14) 0.0560 Uani
C6D C 0.20609(15) -0.21628(14) 0.15425(15) 0.0593 Uani
C7D C 0.14449(16) -0.17184(14) 0.08835(16) 0.0642 Uani
C8D C 0.11694(15) -0.12771(14) 0.07005(15) 0.0594 Uani
H3D H 0.0955 -0.1302 0.0387 0.0710 Uiso
O1H O 0.10986(9) 0.09296(10) 0.00958(9) 0.0552 Uani
O2H O 0.03320(9) 0.07079(9) -0.03105(9) 0.0529 Uani
O3H O 0.19374(10) 0.23711(10) -0.20821(10) 0.0630 Uani
O4H O 0.13203(12) 0.19993(11) -0.26102(10) 0.0725 Uani
O5H O 0.06184(18) 0.13716(19) -0.21953(15) 0.1000 Uani
C1H C 0.07813(12) 0.09209(13) -0.03092(13) 0.0494 Uani
C2H C 0.09769(13) 0.12063(13) -0.07948(12) 0.0497 Uani
C3H C 0.14352(17) 0.15205(18) -0.07622(14) 0.0707 Uani
H1H H 0.1631 0.1540 -0.0436 0.0850 Uiso
C4H C 0.16036(16) 0.18028(18) -0.12058(14) 0.0717 Uani
H2H H 0.1909 0.2028 -0.1180 0.0860 Uiso
C5H C 0.13353(14) 0.17627(14) -0.16859(13) 0.0560 Uani
C6H C 0.15425(15) 0.20609(15) -0.21628(14) 0.0593 Uani
C7H C 0.08835(16) 0.14449(16) -0.17184(14) 0.0642 Uani
C8H C 0.07005(15) 0.11694(15) -0.12771(14) 0.0594 Uani
H3H H 0.0387 0.0955 -0.1302 0.0710 Uiso
Zn1L Zn -0.078855(13) -0.078855(13) -0.078855(13) 0.0424 Uani
Zn3L Zn -0.231833(13) -0.231833(13) -0.231833(13) 0.0448 Uani
O1L O -0.00958(9) -0.10986(9) -0.09296(10) 0.0552 Uani
O2L O 0.03105(9) -0.03320(9) -0.07079(9) 0.0529 Uani
O3L O 0.20821(10) -0.19374(10) -0.23711(10) 0.0630 Uani
O4L O 0.26102(10) -0.13203(12) -0.19993(11) 0.0725 Uani
O5L O 0.21953(15) -0.06184(18) -0.13716(19) 0.1000 Uani
N1L N -0.12591(9) -0.12591(9) -0.12591(9) 0.0423 Uani
N2L N -0.18471(9) -0.18471(9) -0.18471(9) 0.0417 Uani
C1L C 0.03092(13) -0.07813(12) -0.09209(13) 0.0494 Uani
C2L C 0.07948(12) -0.09769(13) -0.12063(13) 0.0497 Uani
C3L C 0.07622(14) -0.14352(17) -0.15205(18) 0.0707 Uani
H1L H 0.0436 -0.1631 -0.1540 0.0850 Uiso
C4L C 0.12058(14) -0.16036(16) -0.18028(18) 0.0717 Uani
H2L H 0.1180 -0.1909 -0.2028 0.0860 Uiso
C5L C 0.16859(13) -0.13353(14) -0.17627(14) 0.0560 Uani
C6L C 0.21628(14) -0.15425(15) -0.20609(15) 0.0593 Uani
C7L C 0.17184(14) -0.08835(16) -0.14449(16) 0.0642 Uani
C8L C 0.12771(14) -0.07005(15) -0.11694(15) 0.0594 Uani
H3L H 0.1302 -0.0387 -0.0955 0.0710 Uiso
C9L C -0.10875(12) -0.12173(12) -0.18271(12) 0.0462 Uani
H4L H -0.1164 -0.0853 -0.1964 0.0550 Uiso
H5L H -0.0697 -0.1281 -0.1854 0.0550 Uiso
C10L C -0.13910(12) -0.16360(12) -0.21661(12) 0.0444 Uani
H6L H -0.1147 -0.1933 -0.2265 0.0530 Uiso
H7L H -0.1525 -0.1468 -0.2500 0.0530 Uiso
C9P C -0.18271(12) -0.10875(12) -0.12173(12) 0.0462 Uani
H4P H -0.1964 -0.1164 -0.0853 0.0550 Uiso
H5P H -0.1854 -0.0697 -0.1281 0.0550 Uiso
C10P C -0.21661(12) -0.13910(12) -0.16360(12) 0.0444 Uani
H6P H -0.2265 -0.1147 -0.1933 0.0530 Uiso
H7P H -0.2500 -0.1525 -0.1468 0.0530 Uiso
C9T C -0.12173(12) -0.18271(12) -0.10875(12) 0.0462 Uani
H4T H -0.0853 -0.1964 -0.1164 0.0550 Uiso
H5T H -0.1281 -0.1854 -0.0697 0.0550 Uiso
C10T C -0.16360(12) -0.21661(12) -0.13910(12) 0.0444 Uani
H6T H -0.1933 -0.2265 -0.1147 0.0530 Uiso
H7T H -0.1468 -0.2500 -0.1525 0.0530 Uiso
O1P O -0.09296(10) -0.00958(9) -0.10986(9) 0.0552 Uani
O2P O -0.07079(9) 0.03105(9) -0.03320(9) 0.0529 Uani
O3P O -0.23711(10) 0.20821(10) -0.19374(10) 0.0630 Uani
O4P O -0.19993(11) 0.26102(10) -0.13203(12) 0.0725 Uani
O5P O -0.13716(19) 0.21953(15) -0.06184(18) 0.1000 Uani
C1P C -0.09209(13) 0.03092(13) -0.07813(12) 0.0494 Uani
C2P C -0.12063(13) 0.07948(12) -0.09769(13) 0.0497 Uani
C3P C -0.15205(18) 0.07622(14) -0.14352(17) 0.0707 Uani
H1P H -0.1540 0.0436 -0.1631 0.0850 Uiso
C4P C -0.18028(18) 0.12058(14) -0.16036(16) 0.0717 Uani
H2P H -0.2028 0.1180 -0.1909 0.0860 Uiso
C5P C -0.17627(14) 0.16859(13) -0.13353(14) 0.0560 Uani
C6P C -0.20609(15) 0.21628(14) -0.15425(15) 0.0593 Uani
C7P C -0.14449(16) 0.17184(14) -0.08835(16) 0.0642 Uani
C8P C -0.11694(15) 0.12771(14) -0.07005(15) 0.0594 Uani
H3P H -0.0955 0.1302 -0.0387 0.0710 Uiso
O1T O -0.10986(9) -0.09296(10) -0.00958(9) 0.0552 Uani
O2T O -0.03320(9) -0.07079(9) 0.03105(9) 0.0529 Uani
O3T O -0.19374(10) -0.23711(10) 0.20821(10) 0.0630 Uani
O4T O -0.13203(12) -0.19993(11) 0.26102(10) 0.0725 Uani
O5T O -0.06184(18) -0.13716(19) 0.21953(15) 0.1000 Uani
C1T C -0.07813(12) -0.09209(13) 0.03092(13) 0.0494 Uani
C2T C -0.09769(13) -0.12063(13) 0.07948(12) 0.0497 Uani
C3T C -0.14352(17) -0.15205(18) 0.07622(14) 0.0707 Uani
H1T H -0.1631 -0.1540 0.0436 0.0850 Uiso
C4T C -0.16036(16) -0.18028(18) 0.12058(14) 0.0717 Uani
H2T H -0.1909 -0.2028 0.1180 0.0860 Uiso
C5T C -0.13353(14) -0.17627(14) 0.16859(13) 0.0560 Uani
C6T C -0.15425(15) -0.20609(15) 0.21628(14) 0.0593 Uani
C7T C -0.08835(16) -0.14449(16) 0.17184(14) 0.0642 Uani
C8T C -0.07005(15) -0.11694(15) 0.12771(14) 0.0594 Uani
H3T H -0.0387 -0.0955 0.1302 0.0710 Uiso
Zn3A Zn 0.268167(13) -0.231833(13) -0.268167(13) 0.0448 Uani
Zn3B Zn -0.231833(13) -0.268167(13) 0.268167(13) 0.0448 Uani
Zn3C Zn -0.268167(13) 0.268167(13) -0.231833(13) 0.0448 Uani
Zn3M Zn -0.268167(13) 0.231833(13) 0.268167(13) 0.0448 Uani
Zn3N Zn 0.231833(13) 0.268167(13) -0.268167(13) 0.0448 Uani
Zn3O Zn 0.268167(13) -0.268167(13) 0.231833(13) 0.0448 Uani
O3A O -0.29179(10) -0.19374(10) -0.26289(10) 0.0630 Uani
O3E O -0.26289(10) -0.29179(10) -0.19374(10) 0.0630 Uani
O3I O -0.19374(10) -0.26289(10) -0.29179(10) 0.0630 Uani
O3M O 0.29179(10) 0.19374(10) 0.26289(10) 0.0630 Uani
O3Q O 0.26289(10) 0.29179(10) 0.19374(10) 0.0630 Uani
O3U O 0.19374(10) 0.26289(10) 0.29179(10) 0.0630 Uani
N3 N -0.2608(3) 0.0024(4) 0.0148(4) 0.0687 Uani
H8 H -0.2878 -0.0074 -0.0083 0.0820 Uiso
H9 H -0.2753 0.0256 0.0397 0.0820 Uiso
C11 C -0.2414(6) -0.0459(5) 0.0429(7) 0.0883 Uani
H10 H -0.2544 -0.0780 0.0244 0.1330 Uiso
H11 H -0.2548 -0.0459 0.0799 0.1330 Uiso
H12 H -0.2021 -0.0460 0.0432 0.1330 Uiso
C12 C -0.2212(7) 0.0296(9) -0.0142(6) 0.1220 Uani
H13 H -0.1858 0.0200 -0.0002 0.1850 Uiso
H14 H -0.2266 0.0684 -0.0105 0.1850 Uiso
H15 H -0.2235 0.0196 -0.0521 0.1850 Uiso
loop_
_atom_site_aniso_label
_atom_site_aniso_U_11
_atom_site_aniso_U_22
_atom_site_aniso_U_33
_atom_site_aniso_U_23
_atom_site_aniso_U_13
_atom_site_aniso_U_12
Zn1 0.0424(2) 0.0424(2) 0.0424(2) 0.00015(13) 0.00015(13) 0.00015(13)
Zn2 0.0427(3) 0.0427(3) 0.0427(3) -0.00037(18) -0.00037(18) -0.00037(18)
Zn3 0.0448(2) 0.0448(2) 0.0448(2) -0.00094(14) -0.00094(14) -0.00094(14)
O1 0.0437(12) 0.0514(12) 0.0704(15) -0.0032(11) 0.0053(10) -0.0016(9)
O2 0.0542(13) 0.0527(13) 0.0517(12) -0.0063(10) 0.0095(10) -0.0009(10)
O3 0.0512 0.0712 0.0666 -0.013 0.0062 0.0044
O4 0.0469 0.095 0.0755 -0.0174 0.0108 -0.0064
O5 0.056(2) 0.117(3) 0.127(3) -0.040(3) 0.015(2) -0.017(2)
N1 0.0423(9) 0.0423(9) 0.0423(9) -0.0020(9) -0.0020(9) -0.0020(9)
N2 0.0417(9) 0.0417(9) 0.0417(9) 0.0013(10) 0.0013(10) 0.0013(10)
C1 0.0489(17) 0.0507(18) 0.0487(16) -0.0008(13) 0.0018(13) 0.0028(13)
C2 0.0441(16) 0.0551(18) 0.0498(17) -0.0049(14) 0.0030(12) 0.0009(13)
C3 0.0472(19) 0.072(2) 0.093(3) -0.026(2) 0.0148(18) -0.0081(16)
C4 0.051(2) 0.067(2) 0.097(3) -0.029(2) 0.0120(19) -0.0014(16)
C5 0.042 0.069 0.0571 -0.0048 0.0076 -0.001
C6 0.049 0.069 0.06 -0.0022 0.0056 0.0025
C7 0.0455(18) 0.076(2) 0.071(2) -0.0151(18) 0.0100(16) -0.0122(16)
C8 0.0502(18) 0.066(2) 0.062(2) -0.0172(17) 0.0035(15) -0.0055(15)
C9 0.0488(16) 0.0464(16) 0.0435(16) 0.0017(12) 0.0019(12) -0.0026(12)
C10 0.0408(15) 0.0520(17) 0.0404(15) 0.0009(12) 0.0008(11) -0.0027(12)
C9D 0.0435 0.0488 0.0464 -0.0026 0.0017 0.0019
C10D 0.0404 0.0408 0.052 -0.0027 0.0009 0.0008
C9H 0.0464 0.0435 0.0488 0.0019 -0.0026 0.0017
C10H 0.052 0.0404 0.0408 0.0008 -0.0027 0.0009
O1D 0.0704 0.0437 0.0514 -0.0016 -0.0032 0.0053
O2D 0.0517 0.0542 0.0527 -0.0009 -0.0063 0.0095
O3D 0.0666 0.0512 0.0712 0.0044 -0.013 0.0062
O4D 0.0755 0.0469 0.095 -0.0064 -0.0174 0.0108
O5D 0.127 0.056 0.117 -0.017 -0.04 0.015
C1D 0.0487 0.0489 0.0507 0.0028 -0.0008 0.0018
C2D 0.0498 0.0441 0.0551 0.0009 -0.0049 0.003
C3D 0.093 0.0472 0.072 -0.0081 -0.026 0.0148
C4D 0.097 0.051 0.067 -0.0014 -0.029 0.012
C5D 0.0571 0.042 0.069 -0.001 -0.0048 0.0076
C6D 0.06 0.049 0.069 0.0025 -0.0022 0.0056
C7D 0.071 0.0455 0.076 -0.0122 -0.0151 0.01
C8D 0.062 0.0502 0.066 -0.0055 -0.0172 0.0035
O1H 0.0514 0.0704 0.0437 0.0053 -0.0016 -0.0032
O2H 0.0527 0.0517 0.0542 0.0095 -0.0009 -0.0063
O3H 0.0712 0.0666 0.0512 0.0062 0.0044 -0.013
O4H 0.095 0.0755 0.0469 0.0108 -0.0064 -0.0174
O5H 0.117 0.127 0.056 0.015 -0.017 -0.04
C1H 0.0507 0.0487 0.0489 0.0018 0.0028 -0.0008
C2H 0.0551 0.0498 0.0441 0.003 0.0009 -0.0049
C3H 0.072 0.093 0.0472 0.0148 -0.0081 -0.026
C4H 0.067 0.097 0.051 0.012 -0.0014 -0.029
C5H 0.069 0.0571 0.042 0.0076 -0.001 -0.0048
C6H 0.069 0.06 0.049 0.0056 0.0025 -0.0022
C7H 0.076 0.071 0.0455 0.01 -0.0122 -0.0151
C8H 0.066 0.062 0.0502 0.0035 -0.0055 -0.0172
Zn1L 0.0424 0.0424 0.0424 0.00015 0.00015 0.00015
Zn3L 0.0448 0.0448 0.0448 -0.00094 -0.00094 -0.00094
O1L 0.0437 0.0514 0.0704 -0.0032 0.0053 -0.0016
O2L 0.0542 0.0527 0.0517 -0.0063 0.0095 -0.0009
O3L 0.0512 0.0712 0.0666 -0.013 0.0062 0.0044
O4L 0.0469 0.095 0.0755 -0.0174 0.0108 -0.0064
O5L 0.056 0.117 0.127 -0.04 0.015 -0.017
N1L 0.0423 0.0423 0.0423 -0.002 -0.002 -0.002
N2L 0.0417 0.0417 0.0417 0.0013 0.0013 0.0013
C1L 0.0489 0.0507 0.0487 -0.0008 0.0018 0.0028
C2L 0.0441 0.0551 0.0498 -0.0049 0.003 0.0009
C3L 0.0472 0.072 0.093 -0.026 0.0148 -0.0081
C4L 0.051 0.067 0.097 -0.029 0.012 -0.0014
C5L 0.042 0.069 0.0571 -0.0048 0.0076 -0.001
C6L 0.049 0.069 0.06 -0.0022 0.0056 0.0025
C7L 0.0455 0.076 0.071 -0.0151 0.01 -0.0122
C8L 0.0502 0.066 0.062 -0.0172 0.0035 -0.0055
C9L 0.0488 0.0464 0.0435 0.0017 0.0019 -0.0026
C10L 0.0408 0.052 0.0404 0.0009 0.0008 -0.0027
C9P 0.0435 0.0488 0.0464 -0.0026 0.0017 0.0019
C10P 0.0404 0.0408 0.052 -0.0027 0.0009 0.0008
C9T 0.0464 0.0435 0.0488 0.0019 -0.0026 0.0017
C10T 0.052 0.0404 0.0408 0.0008 -0.0027 0.0009
O1P 0.0704 0.0437 0.0514 -0.0016 -0.0032 0.0053
O2P 0.0517 0.0542 0.0527 -0.0009 -0.0063 0.0095
O3P 0.0666 0.0512 0.0712 0.0044 -0.013 0.0062
O4P 0.0755 0.0469 0.095 -0.0064 -0.0174 0.0108
O5P 0.127 0.056 0.117 -0.017 -0.04 0.015
C1P 0.0487 0.0489 0.0507 0.0028 -0.0008 0.0018
C2P 0.0498 0.0441 0.0551 0.0009 -0.0049 0.003
C3P 0.093 0.0472 0.072 -0.0081 -0.026 0.0148
C4P 0.097 0.051 0.067 -0.0014 -0.029 0.012
C5P 0.0571 0.042 0.069 -0.001 -0.0048 0.0076
C6P 0.06 0.049 0.069 0.0025 -0.0022 0.0056
C7P 0.071 0.0455 0.076 -0.0122 -0.0151 0.01
C8P 0.062 0.0502 0.066 -0.0055 -0.0172 0.0035
O1T 0.0514 0.0704 0.0437 0.0053 -0.0016 -0.0032
O2T 0.0527 0.0517 0.0542 0.0095 -0.0009 -0.0063
O3T 0.0712 0.0666 0.0512 0.0062 0.0044 -0.013
O4T 0.095 0.0755 0.0469 0.0108 -0.0064 -0.0174
O5T 0.117 0.127 0.056 0.015 -0.017 -0.04
C1T 0.0507 0.0487 0.0489 0.0018 0.0028 -0.0008
C2T 0.0551 0.0498 0.0441 0.003 0.0009 -0.0049
C3T 0.072 0.093 0.0472 0.0148 -0.0081 -0.026
C4T 0.067 0.097 0.051 0.012 -0.0014 -0.029
C5T 0.069 0.0571 0.042 0.0076 -0.001 -0.0048
C6T 0.069 0.06 0.049 0.0056 0.0025 -0.0022
C7T 0.076 0.071 0.0455 0.01 -0.0122 -0.0151
C8T 0.066 0.062 0.0502 0.0035 -0.0055 -0.0172
Zn3A 0.0448 0.0448 0.0448 0.00094 0.00094 -0.00094
Zn3B 0.0448 0.0448 0.0448 0.00094 -0.00094 0.00094
Zn3C 0.0448 0.0448 0.0448 -0.00094 0.00094 0.00094
Zn3M 0.0448 0.0448 0.0448 0.00094 0.00094 -0.00094
Zn3N 0.0448 0.0448 0.0448 0.00094 -0.00094 0.00094
Zn3O 0.0448 0.0448 0.0448 -0.00094 0.00094 0.00094
O3A 0.0512 0.0712 0.0666 0.013 -0.0062 0.0044
O3E 0.0666 0.0512 0.0712 0.0044 0.013 -0.0062
O3I 0.0712 0.0666 0.0512 -0.0062 0.0044 0.013
O3M 0.0512 0.0712 0.0666 0.013 -0.0062 0.0044
O3Q 0.0666 0.0512 0.0712 0.0044 0.013 -0.0062
O3U 0.0712 0.0666 0.0512 -0.0062 0.0044 0.013
N3 0.041(5) 0.107(8) 0.058(5) -0.017(5) 0.010(4) 0.010(4)
C11 0.084(9) 0.062(7) 0.119(11) -0.011(7) -0.028(8) 0.012(6)
C12 0.094(11) 0.21(2) 0.062(8) 0.001(10) 0.021(7) -0.072(12)
loop_
_geom_bond_atom_site_label_1
_geom_bond_atom_site_label_2
_geom_bond_site_symmetry_1
_geom_bond_site_symmetry_2
Zn1 O1 1_555 1_555
Zn2 O2 1_555 1_555
Zn3 N2 1_555 1_555
O1 C1 1_555 1_555
O2 C1 1_555 1_555
O3 C6 1_555 1_555
O4 C6 1_555 1_555
O5 C7 1_555 1_555
N1 Zn1 1_555 1_555
N2 C10 1_555 1_555
C1 C2 1_555 1_555
C2 C3 1_555 1_555
C3 H1 1_555 1_555
C4 C3 1_555 1_555
H2 C4 1_555 1_555
C5 C4 1_555 1_555
C6 C5 1_555 1_555
C7 C5 1_555 1_555
C8 C2 1_555 1_555
H3 C8 1_555 1_555
C9 N1 1_555 1_555
H4 C9 1_555 1_555
H5 C9 1_555 1_555
C10 C9 1_555 1_555
H6 C10 1_555 1_555
H7 C10 1_555 1_555
N3 H8 1_555 1_555
H9 N3 1_555 1_555
C11 N3 1_555 1_555
H10 C11 1_555 1_555
H11 C11 1_555 1_555
H12 C11 1_555 1_555
C12 N3 1_555 1_555
H13 C12 1_555 1_555
H14 C12 1_555 1_555
H15 C12 1_555 1_555
C9D N1 1_555 1_555
H4D C9D 1_555 1_555
H5D C9D 1_555 1_555
C10D N2 1_555 1_555
H6D C10D 1_555 1_555
H7D C10D 1_555 1_555
C9H N1 1_555 1_555
H4H C9H 1_555 1_555
H5H C9H 1_555 1_555
C10H N2 1_555 1_555
H6H C10H 1_555 1_555
H7H C10H 1_555 1_555
O1D Zn1 1_555 1_555
O2D Zn2 1_555 1_555
O3D C6D 1_555 1_555
O4D C6D 1_555 1_555
O5D C7D 1_555 1_555
C1D O1D 1_555 1_555
C2D C1D 1_555 1_555
C3D C2D 1_555 1_555
H1D C3D 1_555 1_555
C4D C3D 1_555 1_555
H2D C4D 1_555 1_555
C5D C4D 1_555 1_555
C6D C5D 1_555 1_555
C7D C5D 1_555 1_555
C8D C2D 1_555 1_555
H3D C8D 1_555 1_555
O1H Zn1 1_555 1_555
O2H Zn2 1_555 1_555
O3H C6H 1_555 1_555
O4H C6H 1_555 1_555
O5H C7H 1_555 1_555
C1H O1H 1_555 1_555
C2H C1H 1_555 1_555
C3H C2H 1_555 1_555
H1H C3H 1_555 1_555
C4H C3H 1_555 1_555
H2H C4H 1_555 1_555
C5H C4H 1_555 1_555
C6H C5H 1_555 1_555
C7H C5H 1_555 1_555
C8H C2H 1_555 1_555
H3H C8H 1_555 1_555
Zn1L O1L 1_555 1_555
Zn3L N2L 1_555 1_555
O1L C1L 1_555 1_555
O2L Zn2 1_555 1_555
O3L C6L 1_555 1_555
O4L C6L 1_555 1_555
O5L C7L 1_555 1_555
N1L Zn1L 1_555 1_555
N2L C10L 1_555 1_555
C1L O2L 1_555 1_555
C2L C1L 1_555 1_555
C3L C2L 1_555 1_555
H1L C3L 1_555 1_555
C4L C3L 1_555 1_555
H2L C4L 1_555 1_555
C5L C4L 1_555 1_555
C6L C5L 1_555 1_555
C7L C5L 1_555 1_555
C8L C2L 1_555 1_555
H3L C8L 1_555 1_555
C9L N1L 1_555 1_555
H4L C9L 1_555 1_555
H5L C9L 1_555 1_555
C10L C9L 1_555 1_555
H6L C10L 1_555 1_555
H7L C10L 1_555 1_555
C9P N1L 1_555 1_555
H4P C9P 1_555 1_555
H5P C9P 1_555 1_555
C10P N2L 1_555 1_555
H6P C10P 1_555 1_555
H7P C10P 1_555 1_555
C9T N1L 1_555 1_555
H4T C9T 1_555 1_555
H5T C9T 1_555 1_555
C10T N2L 1_555 1_555
H6T C10T 1_555 1_555
H7T C10T 1_555 1_555
O1P Zn1L 1_555 1_555
O2P Zn2 1_555 1_555
O3P C6P 1_555 1_555
O4P C6P 1_555 1_555
O5P C7P 1_555 1_555
C1P O1P 1_555 1_555
C2P C1P 1_555 1_555
C3P C2P 1_555 1_555
H1P C3P 1_555 1_555
C4P C3P 1_555 1_555
H2P C4P 1_555 1_555
C5P C4P 1_555 1_555
C6P C5P 1_555 1_555
C7P C5P 1_555 1_555
C8P C2P 1_555 1_555
H3P C8P 1_555 1_555
O1T Zn1L 1_555 1_555
O2T Zn2 1_555 1_555
O3T C6T 1_555 1_555
O4T C6T 1_555 1_555
O5T C7T 1_555 1_555
C1T O1T 1_555 1_555
C2T C1T 1_555 1_555
C3T C2T 1_555 1_555
H1T C3T 1_555 1_555
C4T C3T 1_555 1_555
H2T C4T 1_555 1_555
C5T C4T 1_555 1_555
C6T C5T 1_555 1_555
C7T C5T 1_555 1_555
C8T C2T 1_555 1_555
H3T C8T 1_555 1_555
Zn3A O3L 1_555 1_555
Zn3B O3T 1_555 1_555
Zn3C O3P 1_555 1_555
Zn3M O3 1_555 1_555
Zn3N O3H 1_555 1_555
Zn3O O3D 1_555 1_555
O3A Zn3L 1_555 1_555
O3E Zn3L 1_555 1_555
O3I Zn3L 1_555 1_555
O3M Zn3 1_555 1_555
O3Q Zn3 1_555 1_555
O3U Zn3 1_555 1_555
C7 C8 1_555 1_555
C9D C10D 1_555 1_555
C9H C10H 1_555 1_555
O2D C1D 1_555 1_555
C7D C8D 1_555 1_555
O2H C1H 1_555 1_555
C7H C8H 1_555 1_555
C7L C8L 1_555 1_555
C9P C10P 1_555 1_555
C9T C10T 1_555 1_555
O2P C1P 1_555 1_555
C7P C8P 1_555 1_555
O2T C1T 1_555 1_555
C7T C8T 1_555 1_555

#END
