
#######################################################################
#
#                 Cambridge Crystallographic Data Centre
#                                CCDC 
#
#######################################################################
#
# If this CIF has been generated from an entry in the Cambridge 
# Structural Database, then it will include bibliographic, chemical, 
# crystal, experimental, refinement or atomic coordinate data resulting 
# from the CCDC's data processing and validation procedures.
#
#######################################################################

data_KUZYUB
_chemical_formula_moiety         'C66 O47 Sm9'
_symmetry_cell_setting           hexagonal
_symmetry_space_group_name_H-M   'P -6 2 c'
_symmetry_Int_Tables_number      190
_space_group_name_Hall           'P -6c -2c'
loop_
_symmetry_equiv_pos_site_id
_symmetry_equiv_pos_as_xyz
1 x,y,z
2 -y,x-y,z
3 -x+y,-x,z
4 x,y,1/2-z
5 -y,x-y,1/2-z
6 -x+y,-x,1/2-z
7 y,x,-z
8 x-y,-y,-z
9 -x,-x+y,-z
10 y,x,1/2+z
11 x-y,-y,1/2+z
12 -x,-x+y,1/2+z
_cell_length_a                   24.972(4)
_cell_length_b                   24.972(4)
_cell_length_c                   9.858(2)
_cell_angle_alpha                90
_cell_angle_beta                 90
_cell_angle_gamma                120
_cell_volume                     5323.85
loop_
_atom_site_label
_atom_site_type_symbol
_atom_site_fract_x
_atom_site_fract_y
_atom_site_fract_z
Sm1 Sm 0.39828(4) 0.77145(4) 0.2500
O1 O 0.4308(5) 0.7692(5) 0.4877(11)
O2 O 0.4453(8) 0.6880(7) 0.3937(18)
O3 O 0.5532(9) 0.4262(9) 0.8745(19)
O4 O 0.6132(9) 0.4722(10) 0.683(2)
O5 O 0.3333 0.6667 0.188(3)
O6 O 0.5096(7) 0.8221(9) 0.2500
C1 C 0.4393(9) 0.7238(8) 0.7500
C2 C 0.4508(6) 0.7047(6) 0.6252(14)
C3 C 0.4736(6) 0.6628(7) 0.6227(15)
C4 C 0.4882(11) 0.6449(10) 0.7500
C5 C 0.4367(7) 0.7246(7) 0.4919(13)
C6 C 0.5128(9) 0.6024(8) 0.777(2)
C7 C 0.4876(8) 0.5538(9) 0.8691(19)
C8 C 0.5095(10) 0.5125(8) 0.8748(18)
C9 C 0.5566(9) 0.5197(9) 0.7882(18)
C10 C 0.5818(8) 0.5683(10) 0.6958(19)
C11 C 0.5599(9) 0.6096(8) 0.690(2)
C12 C 0.5754(11) 0.4730(9) 0.787(2)
O1C O 0.4308(5) 0.7692(5) 1.0123(11)
O2C O 0.4453(8) 0.6880(7) 1.1063(18)
O3C O 0.5532(9) 0.4262(9) 0.6255(19)
O4C O 0.6132(9) 0.4722(10) 0.817(2)
C2C C 0.4508(6) 0.7047(6) 0.8748(14)
C3C C 0.4736(6) 0.6628(7) 0.8773(15)
C5C C 0.4367(7) 0.7246(7) 1.0081(13)
C6C C 0.5128(9) 0.6024(8) 0.723(2)
C7C C 0.4876(8) 0.5538(9) 0.6309(19)
C8C C 0.5095(10) 0.5125(8) 0.6252(18)
C9C C 0.5566(9) 0.5197(9) 0.7118(18)
C10C C 0.5818(8) 0.5683(10) 0.8042(19)
C11C C 0.5599(9) 0.6096(8) 0.810(2)
C12C C 0.5754(11) 0.4730(9) 0.713(2)
O5C O 0.3333 0.6667 0.312(3)
Sm1A Sm 0.22855(4) 0.62683(6) 0.2500
O1A O 0.2308(5) 0.6616(7) 0.4877(11)
O2A O 0.3120(7) 0.7573(11) 0.3937(18)
O3A O 0.5738(9) 1.1270(13) 0.8745(19)
O4A O 0.5278(10) 1.1410(13) 0.683(2)
O6A O 0.1779(9) 0.6875(11) 0.2500
C1A C 0.2762(8) 0.7155(12) 0.7500
C2A C 0.2953(6) 0.7461(8) 0.6252(14)
C3A C 0.3372(7) 0.8108(9) 0.6227(15)
C4A C 0.3551(10) 0.8433(15) 0.7500
C5A C 0.2754(7) 0.7121(10) 0.4919(13)
C6A C 0.3976(8) 0.9104(12) 0.777(2)
C7A C 0.4462(9) 0.9338(12) 0.8691(19)
C8A C 0.4875(8) 0.9970(13) 0.8748(18)
C9A C 0.4803(9) 1.0369(13) 0.7882(18)
C10A C 0.4317(10) 1.0135(13) 0.6958(19)
C11A C 0.3904(8) 0.9503(12) 0.690(2)
C12A C 0.5270(9) 1.1024(14) 0.787(2)
O1D O 0.2308(5) 0.6616(7) 1.0123(11)
O2D O 0.3120(7) 0.7573(11) 1.1063(18)
O3D O 0.5738(9) 1.1270(13) 0.6255(19)
O4D O 0.5278(10) 1.1410(13) 0.817(2)
C2D C 0.2953(6) 0.7461(8) 0.8748(14)
C3D C 0.3372(7) 0.8108(9) 0.8773(15)
C5D C 0.2754(7) 0.7121(10) 1.0081(13)
C6D C 0.3976(8) 0.9104(12) 0.723(2)
C7D C 0.4462(9) 0.9338(12) 0.6309(19)
C8D C 0.4875(8) 0.9970(13) 0.6252(18)
C9D C 0.4803(9) 1.0369(13) 0.7118(18)
C10D C 0.4317(10) 1.0135(13) 0.8042(19)
C11D C 0.3904(8) 0.9503(12) 0.810(2)
C12D C 0.5270(9) 1.1024(14) 0.713(2)
Sm1B Sm 0.37317(6) 0.60172(4) 0.2500
O1B O 0.3384(7) 0.5692(5) 0.4877(11)
O2B O 0.2427(11) 0.5547(8) 0.3937(18)
O3B O -0.1270(13) 0.4468(9) 0.8745(19)
O4B O -0.1410(13) 0.3868(9) 0.683(2)
O6B O 0.3125(11) 0.4904(7) 0.2500
C1B C 0.2845(12) 0.5607(9) 0.7500
C2B C 0.2539(8) 0.5492(6) 0.6252(14)
C3B C 0.1892(9) 0.5264(6) 0.6227(15)
C4B C 0.1567(15) 0.5118(11) 0.7500
C5B C 0.2879(10) 0.5633(7) 0.4919(13)
C6B C 0.0896(12) 0.4872(9) 0.777(2)
C7B C 0.0662(12) 0.5124(8) 0.8691(19)
C8B C 0.0030(13) 0.4905(10) 0.8748(18)
C9B C -0.0369(13) 0.4434(9) 0.7882(18)
C10B C -0.0135(13) 0.4182(8) 0.6958(19)
C11B C 0.0497(12) 0.4401(9) 0.690(2)
C12B C -0.1024(14) 0.4246(11) 0.787(2)
O1E O 0.3384(7) 0.5692(5) 1.0123(11)
O2E O 0.2427(11) 0.5547(8) 1.1063(18)
O3E O -0.1270(13) 0.4468(9) 0.6255(19)
O4E O -0.1410(13) 0.3868(9) 0.817(2)
C2E C 0.2539(8) 0.5492(6) 0.8748(14)
C3E C 0.1892(9) 0.5264(6) 0.8773(15)
C5E C 0.2879(10) 0.5633(7) 1.0081(13)
C6E C 0.0896(12) 0.4872(9) 0.723(2)
C7E C 0.0662(12) 0.5124(8) 0.6309(19)
C8E C 0.0030(13) 0.4905(10) 0.6252(18)
C9E C -0.0369(13) 0.4434(9) 0.7118(18)
C10E C -0.0135(13) 0.4182(8) 0.8042(19)
C11E C 0.0497(12) 0.4401(9) 0.810(2)
C12E C -0.1024(14) 0.4246(11) 0.713(2)
Sm1_2 Sm 0.39828(4) 0.77145(4) 1.2500
Sm1A_2 Sm 0.22855(4) 0.62683(6) 1.2500
Sm1B_2 Sm 0.37317(6) 0.60172(4) 1.2500
Sm1F Sm -0.22855(4) 0.39828(4) 0.7500
Sm1G Sm 0.62683(6) 1.22855(4) 0.7500
Sm1H Sm 0.60172(4) 0.37317(6) 0.7500
O1C_2 O 0.4308(5) 0.7692(5) 0.0123(11)
O1D_2 O 0.2308(5) 0.6616(7) 0.0123(11)
O1E_2 O 0.3384(7) 0.5692(5) 0.0123(11)
O2C_2 O 0.4453(8) 0.6880(7) 0.1063(18)
O2D_2 O 0.3120(7) 0.7573(11) 0.1063(18)
O2E_2 O 0.2427(11) 0.5547(8) 0.1063(18)
O3F O 0.4262(9) 0.5532(9) 0.1255(19)
O3G O 0.1270(13) 0.5738(9) 0.1255(19)
O3H O 0.4468(9) 0.8730(13) 0.1255(19)
O3I O 0.4262(9) 0.5532(9) 0.3745(19)
O3J O 0.1270(13) 0.5738(9) 0.3745(19)
O3K O 0.4468(9) 0.8730(13) 0.3745(19)
O4F O 0.4722(10) 0.6132(9) 0.317(2)
O4G O 0.1410(13) 0.5278(10) 0.317(2)
O4H O 0.3868(9) 0.8590(13) 0.317(2)
O4I O 0.4722(10) 0.6132(9) 0.183(2)
O4J O 0.1410(13) 0.5278(10) 0.183(2)
O4K O 0.3868(9) 0.8590(13) 0.183(2)
loop_
_geom_bond_atom_site_label_1
_geom_bond_atom_site_label_2
_geom_bond_site_symmetry_1
_geom_bond_site_symmetry_2
Sm1 O1 1_555 1_555
O1 C5 1_555 1_555
O2 C5 1_555 1_555
O3 C12 1_555 1_555
O4 C12 1_555 1_555
O5 Sm1 1_555 1_555
O6 Sm1 1_555 1_555
C1 C2 1_555 1_555
C2 C3 1_555 1_555
C3 C4 1_555 1_555
C4 C6 1_555 1_555
C5 C2 1_555 1_555
C6 C7 1_555 1_555
C7 C8 1_555 1_555
C8 C9 1_555 1_555
C9 C10 1_555 1_555
C10 C11 1_555 1_555
C11 C6 1_555 1_555
C12 C9 1_555 1_555
O1C C5C 1_555 1_555
O2C C5C 1_555 1_555
O3C C12C 1_555 1_555
O4C C12C 1_555 1_555
C2C C1 1_555 1_555
C3C C4 1_555 1_555
C5C C2C 1_555 1_555
C6C C4 1_555 1_555
C7C C6C 1_555 1_555
C8C C7C 1_555 1_555
C9C C8C 1_555 1_555
C10C C9C 1_555 1_555
C11C C6C 1_555 1_555
C12C C9C 1_555 1_555
O5C Sm1 1_555 1_555
Sm1A O5 1_555 1_555
O1A Sm1A 1_555 1_555
O2A Sm1 1_555 1_555
O3A C12A 1_555 1_555
O4A C12A 1_555 1_555
O6A Sm1A 1_555 1_555
C1A C2A 1_555 1_555
C2A C3A 1_555 1_555
C3A C4A 1_555 1_555
C4A C6A 1_555 1_555
C5A O1A 1_555 1_555
C6A C7A 1_555 1_555
C7A C8A 1_555 1_555
C8A C9A 1_555 1_555
C9A C10A 1_555 1_555
C10A C11A 1_555 1_555
C11A C6A 1_555 1_555
C12A C9A 1_555 1_555
O1D C5D 1_555 1_555
O2D C5D 1_555 1_555
O3D C12D 1_555 1_555
O4D C12D 1_555 1_555
C2D C1A 1_555 1_555
C3D C4A 1_555 1_555
C5D C2D 1_555 1_555
C6D C4A 1_555 1_555
C7D C6D 1_555 1_555
C8D C7D 1_555 1_555
C9D C8D 1_555 1_555
C10D C9D 1_555 1_555
C11D C6D 1_555 1_555
C12D C9D 1_555 1_555
Sm1B O2 1_555 1_555
O1B Sm1B 1_555 1_555
O2B Sm1A 1_555 1_555
O3B C12B 1_555 1_555
O4B C12B 1_555 1_555
O6B Sm1B 1_555 1_555
C1B C2B 1_555 1_555
C2B C3B 1_555 1_555
C3B C4B 1_555 1_555
C4B C6B 1_555 1_555
C5B O1B 1_555 1_555
C6B C7B 1_555 1_555
C7B C8B 1_555 1_555
C8B C9B 1_555 1_555
C9B C10B 1_555 1_555
C10B C11B 1_555 1_555
C11B C6B 1_555 1_555
C12B C9B 1_555 1_555
O1E C5E 1_555 1_555
O2E C5E 1_555 1_555
O3E C12E 1_555 1_555
O4E C12E 1_555 1_555
C2E C1B 1_555 1_555
C3E C4B 1_555 1_555
C5E C2E 1_555 1_555
C6E C4B 1_555 1_555
C7E C6E 1_555 1_555
C8E C7E 1_555 1_555
C9E C8E 1_555 1_555
C10E C9E 1_555 1_555
C11E C6E 1_555 1_555
C12E C9E 1_555 1_555
Sm1_2 O1C 1_555 1_555
Sm1A_2 O1D 1_555 1_555
Sm1B_2 O2C 1_555 1_555
Sm1F O3B 1_555 1_555
Sm1G O3A 1_555 1_555
Sm1H O3 1_555 1_555
O1C_2 Sm1 1_555 1_555
O1D_2 Sm1A 1_555 1_555
O1E_2 Sm1B 1_555 1_555
O2C_2 Sm1B 1_555 1_555
O2D_2 Sm1 1_555 1_555
O2E_2 Sm1A 1_555 1_555
O3F Sm1B 1_555 1_555
O3G Sm1A 1_555 1_555
O3H Sm1 1_555 1_555
O3I Sm1B 1_555 1_555
O3J Sm1A 1_555 1_555
O3K Sm1 1_555 1_555
O4F Sm1B 1_555 1_555
O4G Sm1A 1_555 1_555
O4H Sm1 1_555 1_555
O4I Sm1B 1_555 1_555
O4J Sm1A 1_555 1_555
O4K Sm1 1_555 1_555
O4 Sm1H 1_555 1_555
O5 O5C 1_555 1_555
O5 Sm1B 1_555 1_555
O3C Sm1H 1_555 1_555
O4C Sm1H 1_555 1_555
C2C C3C 1_555 1_555
C10C C11C 1_555 1_555
O5C Sm1A 1_555 1_555
O5C Sm1B 1_555 1_555
O2A C5A 1_555 1_555
O4A Sm1G 1_555 1_555
C2A C5A 1_555 1_555
O2D Sm1_2 1_555 1_555
O3D Sm1G 1_555 1_555
O4D Sm1G 1_555 1_555
C2D C3D 1_555 1_555
C10D C11D 1_555 1_555
O2B C5B 1_555 1_555
O4B Sm1F 1_555 1_555
C2B C5B 1_555 1_555
O1E Sm1B_2 1_555 1_555
O2E Sm1A_2 1_555 1_555
O3E Sm1F 1_555 1_555
O4E Sm1F 1_555 1_555
C2E C3E 1_555 1_555
C10E C11E 1_555 1_555

#END
