
#######################################################################
#
#                 Cambridge Crystallographic Data Centre
#                                CCDC 
#
#######################################################################
#
# If this CIF has been generated from an entry in the Cambridge 
# Structural Database, then it will include bibliographic, chemical, 
# crystal, experimental, refinement or atomic coordinate data resulting 
# from the CCDC's data processing and validation procedures.
#
#######################################################################

data_NUZSAD
_chemical_formula_moiety         '(C10 H12 Eu1 N1 O9)n'
_symmetry_cell_setting           triclinic
_symmetry_space_group_name_H-M   'P -1'
_symmetry_Int_Tables_number      2
_space_group_name_Hall           '-P 1'
loop_
_symmetry_equiv_pos_site_id
_symmetry_equiv_pos_as_xyz
1 x,y,z
2 -x,-y,-z
_cell_length_a                   7.970(2)
_cell_length_b                   9.419(3)
_cell_length_c                   10.391(3)
_cell_angle_alpha                95.79(2)
_cell_angle_beta                 112.084(14)
_cell_angle_gamma                110.002(15)
_cell_volume                     655.204
loop_
_atom_site_label
_atom_site_type_symbol
_atom_site_fract_x
_atom_site_fract_y
_atom_site_fract_z
Eu1 Eu 0.28165(3) 0.05090(2) 0.011014(19)
O1 O 0.9273(4) -0.0172(3) 0.8624(3)
O2 O 0.4972(4) 0.0433(3) 0.2420(3)
O3 O 0.7569(4) 0.0071(4) 0.2307(3)
O4 O 0.3916(4) 0.3134(3) 0.1690(3)
O5 O 0.2564(4) 0.2811(3) -0.0658(3)
O6 O 0.1046(4) 0.7621(3) -0.0276(3)
O7 O 0.3988(4) 0.8325(3) -0.0232(3)
N1 N 0.8595(5) -0.0070(4) 0.7250(3)
C1 C 0.8083(6) -0.1318(5) 0.6206(4)
H1 H 0.8158 -0.2252 0.6435
C2 C 0.7446(6) -0.1227(5) 0.4795(4)
H2 H 0.7143 -0.2082 0.4054
C3 C 0.7249(6) 0.0108(5) 0.4462(4)
C4 C 0.7730(6) 0.1358(5) 0.5579(4)
H3 H 0.7562 0.2274 0.5372
C5 C 0.8443(6) 0.1251(5) 0.6971(4)
H4 H 0.8829 0.2113 0.7739
C6 C 0.6530(6) 0.0217(5) 0.2924(4)
C7 C 0.3241(6) 0.3635(5) 0.0604(4)
C8 C 0.3277(6) 0.5267(5) 0.0838(4)
H5 H 0.4673 0.6055 0.1306
H6 H 0.2665 0.5378 0.1492
C9 C 0.2159(6) 0.5585(5) -0.0576(4)
H7 H 0.2671 0.5360 -0.1269
H8 H 0.0731 0.4876 -0.0990
C10 C 0.2390(6) 0.7250(5) -0.0358(4)
Eu1A Eu 0.71835(3) -0.05090(2) 0.988986(19)
Eu1_2 Eu 1.28165(3) 0.05090(2) 1.011014(19)
Eu1A_2 Eu 0.71835(3) -0.05090(2) -0.011014(19)
Eu1_3 Eu 0.28165(3) 1.05090(2) 0.011014(19)
Eu1A_3 Eu 0.71835(3) 0.94910(2) -0.011014(19)
O1A O 0.0727(4) 0.0172(3) 0.1376(3)
O1_2 O -0.0727(4) -0.0172(3) -0.1376(3)
O3A O 0.2431(4) -0.0071(4) -0.2307(3)
O6_2 O 0.1046(4) -0.2379(3) -0.0276(3)
O7A O 0.6012(4) 0.1675(3) 0.0232(3)
O7_2 O 0.3988(4) -0.1675(3) -0.0232(3)
O8 O 1.0041(13) 0.5740(10) 0.5893(9)
O9 O 0.611(9) 0.4844(18) 0.4496(17)
loop_
_geom_bond_atom_site_label_1
_geom_bond_atom_site_label_2
_geom_bond_site_symmetry_1
_geom_bond_site_symmetry_2
Eu1 O2 1_555 1_555
O1 N1 1_555 1_555
O2 C6 1_555 1_555
O3 C6 1_555 1_555
O4 Eu1 1_555 1_555
O5 Eu1 1_555 1_555
O6 C10 1_555 1_555
O7 C10 1_555 1_555
N1 C1 1_555 1_555
C1 H1 1_555 1_555
C2 C1 1_555 1_555
H2 C2 1_555 1_555
C3 C2 1_555 1_555
C4 C3 1_555 1_555
H3 C4 1_555 1_555
C5 N1 1_555 1_555
H4 C5 1_555 1_555
C6 C3 1_555 1_555
C7 O4 1_555 1_555
C8 C7 1_555 1_555
H5 C8 1_555 1_555
H6 C8 1_555 1_555
C9 C8 1_555 1_555
H7 C9 1_555 1_555
H8 C9 1_555 1_555
C10 C9 1_555 1_555
Eu1A O1 1_555 1_555
Eu1_2 O1 1_555 1_555
Eu1A_2 O3 1_555 1_555
Eu1_3 O6 1_555 1_555
Eu1A_3 O7 1_555 1_555
O1A Eu1 1_555 1_555
O1_2 Eu1 1_555 1_555
O3A Eu1 1_555 1_555
O6_2 Eu1 1_555 1_555
O7A Eu1 1_555 1_555
O7_2 Eu1 1_555 1_555
O5 C7 1_555 1_555
O7 Eu1_3 1_555 1_555
C4 C5 1_555 1_555
Eu1A_2 O7A 1_555 1_555
Eu1A_2 O7_2 1_555 1_555

#END
