
#######################################################################
#
#                 Cambridge Crystallographic Data Centre
#                                CCDC 
#
#######################################################################
#
# If this CIF has been generated from an entry in the Cambridge 
# Structural Database, then it will include bibliographic, chemical, 
# crystal, experimental, refinement or atomic coordinate data resulting 
# from the CCDC's data processing and validation procedures.
#
#######################################################################

data_KAFYAT
_chemical_formula_moiety         '(C34 H36 O27 Zn5)n'
_symmetry_cell_setting           monoclinic
_symmetry_space_group_name_H-M   'P 21/n'
_symmetry_Int_Tables_number      14
_space_group_name_Hall           '-P 2yn'
loop_
_symmetry_equiv_pos_site_id
_symmetry_equiv_pos_as_xyz
1 x,y,z
2 1/2-x,1/2+y,1/2-z
3 -x,-y,-z
4 1/2+x,1/2-y,1/2+z
_cell_length_a                   9.8397(14)
_cell_length_b                   8.629(3)
_cell_length_c                   24.950(3)
_cell_angle_alpha                90
_cell_angle_beta                 90.512(3)
_cell_angle_gamma                90
_cell_volume                     2118.34
loop_
_atom_site_label
_atom_site_type_symbol
_atom_site_fract_x
_atom_site_fract_y
_atom_site_fract_z
C1 C 0.8396(4) 0.8445(5) 0.88544(16)
C2 C 0.7044(4) 0.8038(5) 0.90120(18)
H1 H 0.6896 0.7345 0.9291
C3 C 0.5956(4) 0.8712(5) 0.87334(17)
C4 C 0.6160(5) 0.9816(5) 0.83463(18)
H2 H 0.5417 1.0276 0.8177
C5 C 0.7508(5) 1.0263(5) 0.82014(16)
C6 C 0.8585(5) 0.9533(5) 0.84547(18)
H3 H 0.9466 0.9781 0.8353
C7 C 0.7751(4) 1.1431(5) 0.77592(17)
H4 H 0.8541 1.2055 0.7849
H5 H 0.6973 1.2118 0.7730
C8 C 0.7977(5) 1.0625(5) 0.72215(17)
C9 C 0.6917(5) 1.0194(5) 0.69009(18)
H6 H 0.6039 1.0420 0.7011
C10 C 0.7089(4) 0.9437(5) 0.64200(16)
C11 C 0.8395(5) 0.9094(5) 0.62533(16)
H7 H 0.8530 0.8571 0.5932
C12 C 0.9508(4) 0.9539(5) 0.65695(17)
C13 C 0.9303(4) 1.0342(5) 0.70544(16)
H8 H 1.0040 1.0678 0.7259
C14 C 0.9593(4) 0.7624(5) 0.91082(16)
C15 C 0.4530(5) 0.8245(6) 0.88745(18)
C16 C 0.5878(4) 0.8943(5) 0.60853(16)
C17 C 1.0908(5) 0.9169(6) 0.63804(19)
O1 O 1.0667(3) 0.7622(4) 0.88655(12)
O2 O 0.9396(3) 0.7075(4) 0.95801(12)
O3 O 0.4345(3) 0.7092(4) 0.91953(13)
O4 O 0.3549(3) 0.8834(5) 0.86582(14)
O5 O 0.4784(3) 0.8770(4) 0.63480(12)
O6 O 0.6022(3) 0.8690(4) 0.56066(12)
O7 O 1.1043(3) 0.8144(4) 0.60184(14)
O8 O 1.1902(3) 0.9890(4) 0.65516(14)
O9 O 1.1802(3) 0.4888(4) 0.95748(12)
H9 H 1.2422 0.4697 0.9803
O10 O 1.2246(3) 0.8355(4) 0.99068(14)
H10 H 1.1446 0.8346 1.0035
H11 H 1.2803 0.8037 1.0143
O11 O 0.3263(3) 0.6318(4) 0.64631(14)
H12 H 0.2639 0.6347 0.6698
H13 H 0.3185 0.5494 0.6279
O12 O 0.3448(3) 0.6374(4) 0.54194(15)
H14 H 0.2808 0.6431 0.5192
H15 H 0.4202 0.6551 0.5265
Zn1 Zn 0.31269(5) 0.79942(7) 0.60125(2)
Zn2 Zn 1.23294(5) 0.68513(7) 0.92138(2)
Zn3 Zn 1.0000 0.5000 1.0000
C1A C 0.6604(4) 0.3445(5) 0.61456(16)
C2A C 0.7956(4) 0.3038(5) 0.59880(18)
H1A H 0.8104 0.2345 0.5709
C3A C 0.9044(4) 0.3712(5) 0.62666(17)
C4A C 0.8840(5) 0.4816(5) 0.66537(18)
H2A H 0.9583 0.5276 0.6823
C5A C 0.7492(5) 0.5263(5) 0.67986(16)
C6A C 0.6415(5) 0.4533(5) 0.65453(18)
H3A H 0.5534 0.4781 0.6647
C7A C 0.7249(4) 0.6431(5) 0.72408(17)
H4A H 0.6459 0.7055 0.7151
H5A H 0.8027 0.7118 0.7270
C8A C 0.7023(5) 0.5625(5) 0.77785(17)
C9A C 0.8083(5) 0.5194(5) 0.80991(18)
H6A H 0.8961 0.5420 0.7989
C10A C 0.7911(4) 0.4437(5) 0.85800(16)
C11A C 0.6605(5) 0.4094(5) 0.87467(16)
H7A H 0.6470 0.3571 0.9068
C12A C 0.5492(4) 0.4539(5) 0.84305(17)
C13A C 0.5697(4) 0.5342(5) 0.79456(16)
H8A H 0.4960 0.5678 0.7741
C14A C 0.5407(4) 0.2624(5) 0.58918(16)
C15A C 1.0470(5) 0.3245(6) 0.61255(18)
C16A C 0.9122(4) 0.3943(5) 0.89147(16)
C17A C 0.4092(5) 0.4169(6) 0.86196(19)
O1A O 0.4333(3) 0.2622(4) 0.61345(12)
O2A O 0.5604(3) 0.2075(4) 0.54199(12)
O2B O 1.0604(3) 0.2925(4) 1.04199(12)
O3A O 1.0655(3) 0.2092(4) 0.58047(13)
O3_2 O 1.4345(3) 0.7092(4) 0.91953(13)
O3A_2 O 0.0655(3) 0.2092(4) 0.58047(13)
O4A O 1.1451(3) 0.3834(5) 0.63418(14)
O4_2 O 1.3549(3) 0.8834(5) 0.86582(14)
O4A_2 O 0.1451(3) 0.3834(5) 0.63418(14)
O5A O 1.0216(3) 0.3770(4) 0.86520(12)
O6A O 0.8978(3) 0.3690(4) 0.93934(12)
O6C O 1.1022(3) 0.6310(4) 1.06066(12)
O7A O 0.3957(3) 0.3144(4) 0.89816(14)
O7_2 O 0.1043(3) 0.8144(4) 0.60184(14)
O7A_2 O 1.3957(3) 0.3144(4) 0.89816(14)
O8A O 0.3098(3) 0.4890(4) 0.84484(14)
O8_2 O 0.1902(3) 0.9890(4) 0.65516(14)
O8A_2 O 1.3098(3) 0.4890(4) 0.84484(14)
O8_3 O 0.1902(3) -0.0110(4) 0.65516(14)
O9B O 0.8198(3) 0.5112(4) 1.04252(12)
O9A O 0.3198(3) 0.9888(4) 0.54252(12)
O9A_2 O 0.3198(3) -0.0112(4) 0.54252(12)
H9B H 0.7578 0.5303 1.0197
H9A H 0.2578 0.9697 0.5197
H9A_2 H 0.2578 -0.0303 0.5197
O10A O 0.2754(3) 0.3355(4) 0.50932(14)
H10A H 0.3554 0.3346 0.4965
H11A H 0.2197 0.3037 0.4857
O11A O 1.1737(3) 0.1318(4) 0.85369(14)
H12A H 1.2361 0.1347 0.8302
H13A H 1.1815 0.0494 0.8721
O12A O 1.1552(3) 0.1374(4) 0.95806(15)
H14A H 1.2192 0.1431 0.9808
H15A H 1.0798 0.1551 0.9735
Zn1A Zn 1.18731(5) 0.29942(7) 0.89875(2)
Zn1_2 Zn 1.31269(5) 0.79942(7) 0.60125(2)
Zn1A_2 Zn 0.18731(5) 0.29942(7) 0.89875(2)
Zn1C Zn 0.81269(5) 0.70058(7) 1.10125(2)
Zn2A Zn 0.26706(5) 0.18513(7) 0.57862(2)
Zn2_2 Zn 0.23294(5) 0.68513(7) 0.92138(2)
Zn2A_2 Zn 1.26706(5) 1.18513(7) 0.57862(2)
Zn2A_3 Zn 1.26706(5) 0.18513(7) 0.57862(2)
Zn2B Zn 0.76706(5) 0.31487(7) 1.07862(2)
Zn3A Zn 0.5000 1.0000 0.5000
Zn3A_2 Zn 0.5000 0.0000 0.5000
O13 O 0.2999(9) 0.1874(10) 0.7368(3)
H16 H 0.3526 0.2532 0.7514
H17 H 0.3427 0.1373 0.7128
O14 O 0.5173(16) 0.8649(14) 0.0261(5)
H18 H 0.5240 0.9228 0.0536
H19 H 0.5474 0.7751 0.0336
O15 O 0.5000 0.5000 0.0000
H20 H 0.5423 0.4171 0.0078
H20B H 0.4577 0.5829 -0.0078
loop_
_geom_bond_atom_site_label_1
_geom_bond_atom_site_label_2
_geom_bond_site_symmetry_1
_geom_bond_site_symmetry_2
C1 C2 1_555 1_555
C2 H1 1_555 1_555
C3 C2 1_555 1_555
C4 C3 1_555 1_555
H2 C4 1_555 1_555
C5 C4 1_555 1_555
C6 C1 1_555 1_555
H3 C6 1_555 1_555
C7 C5 1_555 1_555
H4 C7 1_555 1_555
H5 C7 1_555 1_555
C8 C7 1_555 1_555
C9 C8 1_555 1_555
H6 C9 1_555 1_555
C10 C9 1_555 1_555
C11 C10 1_555 1_555
H7 C11 1_555 1_555
C12 C11 1_555 1_555
C13 C8 1_555 1_555
H8 C13 1_555 1_555
C14 C1 1_555 1_555
C15 C3 1_555 1_555
C16 C10 1_555 1_555
C17 C12 1_555 1_555
O1 C14 1_555 1_555
O2 C14 1_555 1_555
O3 C15 1_555 1_555
O4 C15 1_555 1_555
O5 C16 1_555 1_555
O6 C16 1_555 1_555
O7 C17 1_555 1_555
O8 C17 1_555 1_555
O9 H9 1_555 1_555
O10 H10 1_555 1_555
H11 O10 1_555 1_555
O11 H12 1_555 1_555
H13 O11 1_555 1_555
O12 H14 1_555 1_555
H15 O12 1_555 1_555
O13 H16 1_555 1_555
H17 O13 1_555 1_555
O14 H18 1_555 1_555
H19 O14 1_555 1_555
O15 H20 1_555 1_555
Zn1 O5 1_555 1_555
Zn2 O1 1_555 1_555
Zn3 O2 1_555 1_555
C1A C2A 1_555 1_555
C2A H1A 1_555 1_555
C3A C2A 1_555 1_555
C4A C3A 1_555 1_555
H2A C4A 1_555 1_555
C5A C4A 1_555 1_555
C6A C1A 1_555 1_555
H3A C6A 1_555 1_555
C7A C5A 1_555 1_555
H4A C7A 1_555 1_555
H5A C7A 1_555 1_555
C8A C7A 1_555 1_555
C9A C8A 1_555 1_555
H6A C9A 1_555 1_555
C10A C9A 1_555 1_555
C11A C10A 1_555 1_555
H7A C11A 1_555 1_555
C12A C11A 1_555 1_555
C13A C8A 1_555 1_555
H8A C13A 1_555 1_555
C14A C1A 1_555 1_555
C15A C3A 1_555 1_555
C16A C10A 1_555 1_555
C17A C12A 1_555 1_555
O1A C14A 1_555 1_555
O2A C14A 1_555 1_555
O2B Zn3 1_555 1_555
O3A C15A 1_555 1_555
O3_2 Zn2 1_555 1_555
O3A_2 Zn2A 1_555 1_555
O4A C15A 1_555 1_555
O4_2 Zn2 1_555 1_555
O4A_2 Zn2A 1_555 1_555
O5A C16A 1_555 1_555
O6A Zn3 1_555 1_555
O6C Zn3 1_555 1_555
O7A C17A 1_555 1_555
O7_2 Zn1 1_555 1_555
O7A_2 Zn1A 1_555 1_555
O8A C17A 1_555 1_555
O8_2 Zn1 1_555 1_555
O8A_2 Zn2 1_555 1_555
O8_3 Zn2A 1_555 1_555
O9B Zn3 1_555 1_555
O9A Zn1 1_555 1_555
O9A_2 H9A_2 1_555 1_555
H9B O9B 1_555 1_555
H9A O9A 1_555 1_555
O10A H10A 1_555 1_555
H11A O10A 1_555 1_555
O11A H12A 1_555 1_555
H13A O11A 1_555 1_555
O12A H14A 1_555 1_555
H15A O12A 1_555 1_555
H20B O15 1_555 1_555
Zn1A O9 1_555 1_555
Zn1_2 O7 1_555 1_555
Zn1A_2 O7A 1_555 1_555
Zn1C O9B 1_555 1_555
Zn2A O1A 1_555 1_555
Zn2_2 O3 1_555 1_555
Zn2A_2 O8 1_555 1_555
Zn2A_3 O3A 1_555 1_555
Zn2B O9B 1_555 1_555
Zn3A O6 1_555 1_555
Zn3A_2 O2A 1_555 1_555
C5 C6 1_555 1_555
C12 C13 1_555 1_555
O4 Zn2_2 1_555 1_555
O8 Zn1_2 1_555 1_555
O9 Zn2 1_555 1_555
O9 Zn3 1_555 1_555
O10 Zn2 1_555 1_555
O11 Zn1 1_555 1_555
O12 Zn1 1_555 1_555
C5A C6A 1_555 1_555
C12A C13A 1_555 1_555
C16A O6A 1_555 1_555
O4A Zn2A_3 1_555 1_555
O5A Zn1A 1_555 1_555
O8A Zn1A_2 1_555 1_555
O8A Zn2_2 1_555 1_555
O8A_2 Zn1A 1_555 1_555
O9A Zn3A 1_555 1_555
O9A_2 Zn2A 1_555 1_555
O9A_2 Zn3A_2 1_555 1_555
O10A Zn2A 1_555 1_555
O11A Zn1A 1_555 1_555
O12A Zn1A 1_555 1_555

#END
