
#######################################################################
#
#                 Cambridge Crystallographic Data Centre
#                                CCDC 
#
#######################################################################
#
# If this CIF has been generated from an entry in the Cambridge 
# Structural Database, then it will include bibliographic, chemical, 
# crystal, experimental, refinement or atomic coordinate data resulting 
# from the CCDC's data processing and validation procedures.
#
#######################################################################

data_BIPBAF
_chemical_formula_moiety         'C104 H44 Cu38 O90'
_symmetry_cell_setting           monoclinic
_symmetry_space_group_name_H-M   'P 21/c'
_symmetry_Int_Tables_number      14
_space_group_name_Hall           '-P 2ybc'
loop_
_symmetry_equiv_pos_site_id
_symmetry_equiv_pos_as_xyz
1 x,y,z
2 -x,1/2+y,1/2-z
3 -x,-y,-z
4 x,1/2-y,1/2+z
_cell_length_a                   23.375(4)
_cell_length_b                   18.692(3)
_cell_length_c                   32.329(7)
_cell_angle_alpha                90
_cell_angle_beta                 117.405(3)
_cell_angle_gamma                90
_cell_volume                     12540.1
loop_
_atom_site_label
_atom_site_type_symbol
_atom_site_fract_x
_atom_site_fract_y
_atom_site_fract_z
Cu1 Cu 0.30981(3) 1.00017(3) 0.27895(2)
Cu2 Cu 0.19171(3) 1.23407(4) -0.01478(2)
Cu3 Cu 0.30171(3) 0.72804(4) -0.01088(2)
Cu4 Cu 0.19645(3) 0.79826(4) -0.02266(2)
Cu5 Cu 0.29585(3) 1.30342(4) -0.00348(2)
Cu6 Cu 0.20533(3) 1.00061(3) 0.19778(2)
O1 O 0.2517(2) 0.6466(2) -0.00643(14)
O2 O 0.16479(19) 0.7114(2) -0.01366(13)
O3 O 0.2624(2) 0.7150(2) -0.07723(13)
O4 O 0.1717(2) 0.7699(2) -0.08773(13)
O5 O 0.23748(19) 0.88557(19) -0.02912(15)
O6 O 0.32838(19) 0.8280(2) -0.01636(15)
O7 O 0.2488(2) 0.8079(2) 0.04693(14)
O8 O 0.3326(2) 0.7449(2) 0.05440(15)
O9 O 0.3865(2) 0.6703(3) -0.00169(19)
O10 O 0.1088(3) 0.8521(4) -0.0347(2)
O11 O 0.24942(19) 0.3867(2) -0.00016(15)
O12 O 0.1615(2) 0.3291(2) -0.00623(15)
O13 O 0.2651(2) 0.5768(2) -0.20530(13)
O14 O 0.17959(19) 0.5722(2) -0.27380(14)
O15 O -0.1762(2) 0.9338(2) -0.22831(14)
O16 O -0.26192(19) 0.9306(2) -0.29706(13)
O17 O -0.16177(18) 0.7594(2) -0.41884(12)
O18 O -0.25294(19) 0.8133(2) -0.42961(13)
O19 O 0.1033(2) 1.1830(3) -0.0273(2)
O20 O 0.3825(2) 1.3572(3) 0.00705(19)
O21 O 0.3252(2) 1.2075(2) -0.00927(16)
O22 O 0.2356(2) 1.1475(2) -0.02150(15)
O23 O 0.1204(3) 0.9995(3) 0.1323(2)
O24 O 0.25179(18) 0.9312(2) 0.17946(13)
O25 O 0.34069(18) 0.9270(2) 0.24871(13)
O26 O 0.3958(2) 1.0012(3) 0.34156(15)
O27 O 0.67201(19) 0.7832(2) 0.43572(13)
O28 O 0.76025(19) 0.7210(2) 0.44663(13)
O29 O 0.75225(18) 0.5773(2) 0.31876(13)
O30 O 0.66238(17) 0.57973(19) 0.24949(13)
O31 O 0.4942(12) 0.7612(12) 0.2200(8)
O32 O 0.0271(12) 0.746(2) -0.2638(12)
C1 C 0.3039(3) 0.7825(3) 0.0708(2)
C2 C 0.3336(3) 0.7959(3) 0.1210(2)
C3 C 0.3067(3) 0.8435(3) 0.14074(19)
H1 H 0.2672 0.8652 0.1221
C4 C 0.3382(3) 0.8581(3) 0.1870(2)
C5 C 0.3087(3) 0.9130(3) 0.20600(19)
C6 C 0.3982(3) 0.8284(3) 0.2154(2)
H2 H 0.4195 0.8405 0.2468
C7 C 0.4268(3) 0.7810(4) 0.1973(2)
C8 C 0.3947(3) 0.7660(3) 0.1499(2)
H3 H 0.4138 0.7357 0.1370
C9 C 0.5821(3) 0.7399(3) 0.2963(2)
C10 C 0.6079(3) 0.6869(3) 0.27858(19)
H4 H 0.5854 0.6721 0.2477
C11 C 0.6679(3) 0.6569(3) 0.3082(2)
C12 C 0.6954(3) 0.5986(4) 0.2912(2)
C13 C 0.7012(3) 0.6757(3) 0.35486(19)
H5 H 0.7412 0.6557 0.3740
C14 C 0.6737(3) 0.7246(3) 0.3722(2)
C15 C 0.7078(3) 0.7444(4) 0.4232(2)
C16 C 0.6136(3) 0.7554(3) 0.34356(19)
H6 H 0.5948 0.7863 0.3563
C17 C 0.2919(3) 1.1524(3) -0.0158(2)
C18 C 0.3243(3) 1.0849(3) -0.0172(2)
C19 C 0.3871(3) 1.0861(4) -0.0118(3)
H7 H 0.4082 1.1292 -0.0093
C20 C 0.4182(3) 1.0198(4) -0.0103(3)
C21 C 0.3894(3) 0.9588(4) -0.0148(3)
H8 H 0.4110 0.9168 -0.0145
C22 C 0.3254(3) 0.9549(3) -0.0203(2)
C23 C 0.2934(3) 1.0191(3) -0.0222(2)
H9 H 0.2511 1.0179 -0.0269
C24 C 0.2948(3) 0.8840(3) -0.0222(2)
C25 C 0.1644(3) 0.5838(3) -0.0040(2)
C26 C 0.1954(3) 0.6523(3) -0.0075(2)
C27 C 0.1935(3) 0.5187(3) -0.0022(2)
H10 H 0.2334 0.5176 -0.0020
C28 C 0.1640(3) 0.4551(3) -0.0007(2)
C29 C 0.1949(3) 0.3849(3) -0.0013(2)
C30 C 0.1044(3) 0.4568(3) -0.0004(2)
H11 H 0.0843 0.4150 0.0017
C31 C 0.0756(3) 0.5252(4) -0.0033(3)
C32 C 0.1071(3) 0.5849(4) -0.0032(3)
H12 H 0.0889 0.6288 -0.0025
C33 C 0.0150(3) 0.5300(3) -0.0004(2)
C34 C 0.4837(3) 1.0312(3) -0.0031(3)
C35 C 0.2061(3) 0.6723(3) -0.16996(19)
H13 H 0.2481 0.6582 -0.1502
C36 C 0.1772(3) 0.6486(3) -0.21593(19)
C37 C 0.2076(3) 0.5954(3) -0.2341(2)
C38 C 0.1153(3) 0.6716(4) -0.2453(2)
H14 H 0.0947 0.6559 -0.2761
C39 C 0.0840(3) 0.7180(3) -0.2292(2)
C40 C 0.1119(3) 0.7375(4) -0.1837(2)
H15 H 0.0888 0.7657 -0.1729
C41 C -0.0771(3) 0.8005(3) -0.2778(2)
C42 C -0.1033(3) 0.7850(3) -0.3243(2)
H16 H -0.0801 0.7591 -0.3361
C43 C -0.1661(3) 0.8091(3) -0.35371(19)
C44 C -0.1951(3) 0.7915(4) -0.4030(2)
C45 C -0.1996(3) 0.8461(3) -0.3355(2)
H17 H -0.2422 0.8586 -0.3548
C46 C -0.1711(3) 0.8654(3) -0.2885(2)
C47 C -0.2049(3) 0.9132(3) -0.2687(2)
C48 C -0.1079(3) 0.8439(3) -0.2596(2)
H18 H -0.0869 0.8584 -0.2286
C49 C 0.5216(3) 0.7692(3) 0.26944(19)
H19 H 0.5240 0.8200 0.2763
H20 H 0.4921 0.7481 0.2794
C50 C -0.0123(3) 0.7808(4) -0.2450(2)
H21 H -0.0146 0.7488 -0.2222
H22 H 0.0100 0.8237 -0.2285
C51 C 0.2025(3) 0.7384(3) -0.1028(2)
C52 C 0.1747(3) 0.7162(4) -0.1526(2)
O1B O -0.2517(2) 0.3534(2) 0.00643(14)
O2B O -0.16479(19) 0.2886(2) 0.01366(13)
O11B O -0.24942(19) 0.6133(2) 0.00016(15)
O12B O -0.1615(2) 0.6709(2) 0.00623(15)
C25B C -0.1644(3) 0.4162(3) 0.0040(2)
C26B C -0.1954(3) 0.3477(3) 0.0075(2)
C27B C -0.1935(3) 0.4813(3) 0.0022(2)
H10B H -0.2334 0.4824 0.0020
C28B C -0.1640(3) 0.5449(3) 0.0007(2)
C29B C -0.1949(3) 0.6151(3) 0.0013(2)
C30B C -0.1044(3) 0.5432(3) 0.0004(2)
H11B H -0.0843 0.5850 -0.0017
C31B C -0.0756(3) 0.4748(4) 0.0033(3)
C32B C -0.1071(3) 0.4151(4) 0.0032(3)
H12B H -0.0889 0.3712 0.0025
C33B C -0.0150(3) 0.4700(3) 0.0004(2)
O5B O 0.76252(19) 1.11443(19) 0.02912(15)
O6B O 0.67162(19) 1.1720(2) 0.01636(15)
O21B O 0.6748(2) 0.7925(2) 0.00927(16)
O22B O 0.7644(2) 0.8525(2) 0.02150(15)
C17B C 0.7081(3) 0.8476(3) 0.0158(2)
C18B C 0.6757(3) 0.9151(3) 0.0172(2)
C19B C 0.6129(3) 0.9139(4) 0.0118(3)
H7B H 0.5918 0.8708 0.0093
C20B C 0.5818(3) 0.9802(4) 0.0103(3)
C21B C 0.6106(3) 1.0412(4) 0.0148(3)
H8B H 0.5890 1.0832 0.0145
C22B C 0.6746(3) 1.0451(3) 0.0203(2)
C23B C 0.7066(3) 0.9809(3) 0.0222(2)
H9B H 0.7489 0.9821 0.0269
C24B C 0.7052(3) 1.1160(3) 0.0222(2)
C34B C 0.5163(3) 0.9688(3) 0.0031(3)
Cu1B Cu -0.30981(3) -0.00017(3) -0.27895(2)
Cu3B Cu -0.30171(3) 0.27196(4) 0.01088(2)
Cu4B Cu -0.19645(3) 0.20174(4) 0.02266(2)
Cu6B Cu -0.20533(3) -0.00061(3) -0.19778(2)
O3B O -0.2624(2) 0.2850(2) 0.07723(13)
O4B O -0.1717(2) 0.2301(2) 0.08773(13)
O7B O -0.2488(2) 0.1921(2) -0.04693(14)
O8B O -0.3326(2) 0.2551(2) -0.05440(15)
O9B O -0.3865(2) 0.3297(3) 0.00169(19)
O10B O -0.1088(3) 0.1479(4) 0.0347(2)
O13B O -0.2651(2) 0.4232(2) 0.20530(13)
O14B O -0.17959(19) 0.4278(2) 0.27380(14)
O15B O 0.1762(2) 0.0662(2) 0.22831(14)
O16B O 0.26192(19) 0.0694(2) 0.29706(13)
O17B O 0.16177(18) 0.2406(2) 0.41884(12)
O18B O 0.25294(19) 0.1867(2) 0.42961(13)
O23B O -0.1204(3) 0.0005(3) -0.1323(2)
O24B O -0.25179(18) 0.0688(2) -0.17946(13)
O25B O -0.34069(18) 0.0730(2) -0.24871(13)
O26B O -0.3958(2) -0.0012(3) -0.34156(15)
O27B O -0.67201(19) 0.2168(2) -0.43572(13)
O28B O -0.76025(19) 0.2790(2) -0.44663(13)
O29B O -0.75225(18) 0.4227(2) -0.31876(13)
O30B O -0.66238(17) 0.42027(19) -0.24949(13)
O31B O -0.4942(12) 0.2388(12) -0.2200(8)
O32B O -0.0271(12) 0.254(2) 0.2638(12)
C1B C -0.3039(3) 0.2175(3) -0.0708(2)
C2B C -0.3336(3) 0.2041(3) -0.1210(2)
C3B C -0.3067(3) 0.1565(3) -0.14074(19)
H1B H -0.2672 0.1348 -0.1221
C4B C -0.3382(3) 0.1419(3) -0.1870(2)
C5B C -0.3087(3) 0.0870(3) -0.20600(19)
C6B C -0.3982(3) 0.1716(3) -0.2154(2)
H2B H -0.4195 0.1595 -0.2468
C7B C -0.4268(3) 0.2190(4) -0.1973(2)
C8B C -0.3947(3) 0.2340(3) -0.1499(2)
H3B H -0.4138 0.2643 -0.1370
C9B C -0.5821(3) 0.2601(3) -0.2963(2)
C10B C -0.6079(3) 0.3131(3) -0.27858(19)
H4B H -0.5854 0.3279 -0.2477
C11B C -0.6679(3) 0.3431(3) -0.3082(2)
C12B C -0.6954(3) 0.4014(4) -0.2912(2)
C13B C -0.7012(3) 0.3243(3) -0.35486(19)
H5B H -0.7412 0.3443 -0.3740
C14B C -0.6737(3) 0.2754(3) -0.3722(2)
C15B C -0.7078(3) 0.2556(4) -0.4232(2)
C16B C -0.6136(3) 0.2446(3) -0.34356(19)
H6B H -0.5948 0.2137 -0.3563
C35B C -0.2061(3) 0.3277(3) 0.16996(19)
H13B H -0.2481 0.3418 0.1502
C36B C -0.1772(3) 0.3514(3) 0.21593(19)
C37B C -0.2076(3) 0.4046(3) 0.2341(2)
C38B C -0.1153(3) 0.3284(4) 0.2453(2)
H14B H -0.0947 0.3441 0.2761
C39B C -0.0840(3) 0.2820(3) 0.2292(2)
C40B C -0.1119(3) 0.2625(4) 0.1837(2)
H15B H -0.0888 0.2343 0.1729
C41B C 0.0771(3) 0.1995(3) 0.2778(2)
C42B C 0.1033(3) 0.2150(3) 0.3243(2)
H16B H 0.0801 0.2409 0.3361
C43B C 0.1661(3) 0.1909(3) 0.35371(19)
C44B C 0.1951(3) 0.2085(4) 0.4030(2)
C45B C 0.1996(3) 0.1539(3) 0.3355(2)
H17B H 0.2422 0.1414 0.3548
C46B C 0.1711(3) 0.1346(3) 0.2885(2)
C47B C 0.2049(3) 0.0868(3) 0.2687(2)
C48B C 0.1079(3) 0.1561(3) 0.2596(2)
H18B H 0.0869 0.1416 0.2286
C49B C -0.5216(3) 0.2308(3) -0.26944(19)
H19B H -0.5240 0.1800 -0.2763
H20B H -0.4921 0.2519 -0.2794
C50B C 0.0123(3) 0.2192(4) 0.2450(2)
H21B H 0.0146 0.2512 0.2222
H22B H -0.0100 0.1763 0.2285
C51B C -0.2025(3) 0.2616(3) 0.1028(2)
C52B C -0.1747(3) 0.2838(4) 0.1526(2)
Cu2_2 Cu 0.19171(3) 0.23407(4) -0.01478(2)
O19_2 O 0.1033(2) 0.1830(3) -0.0273(2)
Cu5_2 Cu 0.29585(3) 0.30342(4) -0.00348(2)
O20_2 O 0.3825(2) 0.3572(3) 0.00705(19)
Cu1_2 Cu 0.30981(3) 0.00017(3) 0.27895(2)
Cu1A Cu -0.30981(3) 0.50017(3) 0.22105(2)
Cu1A_2 Cu 0.69019(3) 0.50017(3) 0.22105(2)
Cu1B_2 Cu -0.30981(3) 0.99983(3) -0.27895(2)
Cu1C Cu -0.69019(3) 0.49983(3) -0.22105(2)
Cu1C_2 Cu 0.30981(3) 0.49983(3) -0.22105(2)
Cu2A Cu -0.19171(3) 0.73407(4) -0.48522(2)
Cu2A_2 Cu 0.80829(3) 0.73407(4) 0.51478(2)
Cu2B Cu -0.19171(3) 0.76593(4) 0.01478(2)
Cu2B_2 Cu 0.80829(3) 0.76593(4) 0.01478(2)
Cu2C Cu -0.80829(3) 0.26593(4) -0.51478(2)
Cu2C_2 Cu 0.19171(3) 0.26593(4) 0.48522(2)
Cu3B_2 Cu 0.69829(3) 1.27196(4) 0.01088(2)
Cu4B_2 Cu 0.80355(3) 1.20174(4) 0.02266(2)
Cu5A Cu -0.29585(3) 0.80342(4) -0.49652(2)
Cu5A_2 Cu 0.70415(3) 0.80342(4) 0.50348(2)
Cu5B Cu -0.29585(3) 0.69658(4) 0.00348(2)
Cu5B_2 Cu 0.70415(3) 0.69658(4) 0.00348(2)
Cu5C Cu -0.70415(3) 0.19658(4) -0.50348(2)
Cu5C_2 Cu 0.29585(3) 0.19658(4) 0.49652(2)
Cu6_2 Cu 0.20533(3) 0.00061(3) 0.19778(2)
Cu6A Cu -0.20533(3) 0.50061(3) 0.30222(2)
Cu6A_2 Cu 0.79467(3) 0.50061(3) 0.30222(2)
Cu6B_2 Cu -0.20533(3) 0.99939(3) -0.19778(2)
Cu6C Cu -0.79467(3) 0.49939(3) -0.30222(2)
Cu6C_2 Cu 0.20533(3) 0.49939(3) -0.30222(2)
O5B_2 O -0.23748(19) 0.11443(19) 0.02912(15)
O6B_2 O -0.32838(19) 0.1720(2) 0.01636(15)
O11_2 O 0.24942(19) 1.3867(2) -0.00016(15)
O12_2 O 0.1615(2) 1.3291(2) -0.00623(15)
O13A O -0.2651(2) 0.0768(2) -0.29470(13)
O13C O 0.2651(2) 0.9232(2) 0.29470(13)
O14A O -0.17959(19) 0.0722(2) -0.22620(14)
O14C O 0.17959(19) 0.9278(2) 0.22620(14)
O15_2 O -0.1762(2) -0.0662(2) -0.22831(14)
O15B_2 O 0.1762(2) 1.0662(2) 0.22831(14)
O16_2 O -0.26192(19) -0.0694(2) -0.29706(13)
O16B_2 O 0.26192(19) 1.0694(2) 0.29706(13)
O17A O 0.16177(18) 0.2594(2) -0.08116(12)
O17A_2 O 0.16177(18) 1.2594(2) -0.08116(12)
O18A O 0.25294(19) 0.3133(2) -0.07039(13)
O18A_2 O 0.25294(19) 1.3133(2) -0.07039(13)
O21_2 O 0.3252(2) 0.2075(2) -0.00927(16)
O22_2 O 0.2356(2) 0.1475(2) -0.02150(15)
O27A O 0.32799(19) 0.2832(2) 0.06428(13)
O27A_2 O 0.32799(19) 1.2832(2) 0.06428(13)
O28A O 0.23975(19) 0.2210(2) 0.05337(13)
O28A_2 O 0.23975(19) 1.2210(2) 0.05337(13)
O29A O 0.24775(18) 1.0773(2) 0.18124(13)
O29C O -0.24775(18) -0.0773(2) -0.18124(13)
O30A O 0.33762(17) 1.07973(19) 0.25051(13)
O30C O -0.33762(17) -0.07973(19) -0.25051(13)
loop_
_geom_bond_atom_site_label_1
_geom_bond_atom_site_label_2
_geom_bond_site_symmetry_1
_geom_bond_site_symmetry_2
Cu1 O25 1_555 1_555
Cu2 O19 1_555 1_555
Cu3 O1 1_555 1_555
Cu4 O2 1_555 1_555
Cu5 O20 1_555 1_555
Cu6 O23 1_555 1_555
O1 C26 1_555 1_555
O2 C26 1_555 1_555
O3 Cu3 1_555 1_555
O4 Cu4 1_555 1_555
O5 Cu4 1_555 1_555
O6 Cu3 1_555 1_555
O7 Cu4 1_555 1_555
O8 Cu3 1_555 1_555
O9 Cu3 1_555 1_555
O10 Cu4 1_555 1_555
O11 C29 1_555 1_555
O12 C29 1_555 1_555
O13 C37 1_555 1_555
O14 C37 1_555 1_555
O15 C47 1_555 1_555
O16 C47 1_555 1_555
O17 C44 1_555 1_555
O18 C44 1_555 1_555
O21 Cu5 1_555 1_555
O22 Cu2 1_555 1_555
O24 Cu6 1_555 1_555
O25 C5 1_555 1_555
O26 Cu1 1_555 1_555
O27 C15 1_555 1_555
O28 C15 1_555 1_555
O29 C12 1_555 1_555
O30 C12 1_555 1_555
O31 C7 1_555 1_555
O32 C39 1_555 1_555
C1 O7 1_555 1_555
C2 C1 1_555 1_555
C3 C2 1_555 1_555
H1 C3 1_555 1_555
C4 C3 1_555 1_555
C5 O24 1_555 1_555
C6 C4 1_555 1_555
H2 C6 1_555 1_555
C7 C6 1_555 1_555
C8 C2 1_555 1_555
H3 C8 1_555 1_555
C9 C10 1_555 1_555
C10 H4 1_555 1_555
C11 C10 1_555 1_555
C12 C11 1_555 1_555
C13 C11 1_555 1_555
H5 C13 1_555 1_555
C14 C13 1_555 1_555
C15 C14 1_555 1_555
C16 C9 1_555 1_555
H6 C16 1_555 1_555
C17 O21 1_555 1_555
C18 C17 1_555 1_555
C19 C18 1_555 1_555
H7 C19 1_555 1_555
C20 C19 1_555 1_555
C21 C20 1_555 1_555
H8 C21 1_555 1_555
C22 C21 1_555 1_555
C23 C18 1_555 1_555
H9 C23 1_555 1_555
C24 O5 1_555 1_555
C25 C26 1_555 1_555
C27 C25 1_555 1_555
H10 C27 1_555 1_555
C28 C27 1_555 1_555
C29 C28 1_555 1_555
C30 C28 1_555 1_555
H11 C30 1_555 1_555
C31 C30 1_555 1_555
C32 C25 1_555 1_555
H12 C32 1_555 1_555
C33 C31 1_555 1_555
C34 C20 1_555 1_555
C35 H13 1_555 1_555
C36 C35 1_555 1_555
C37 C36 1_555 1_555
C38 C36 1_555 1_555
H14 C38 1_555 1_555
C39 C38 1_555 1_555
C40 C39 1_555 1_555
H15 C40 1_555 1_555
C41 C42 1_555 1_555
C42 H16 1_555 1_555
C43 C42 1_555 1_555
C44 C43 1_555 1_555
C45 C43 1_555 1_555
H17 C45 1_555 1_555
C46 C45 1_555 1_555
C47 C46 1_555 1_555
C48 C41 1_555 1_555
H18 C48 1_555 1_555
C49 O31 1_555 1_555
H19 C49 1_555 1_555
H20 C49 1_555 1_555
C50 O32 1_555 1_555
H21 C50 1_555 1_555
H22 C50 1_555 1_555
C51 O3 1_555 1_555
C52 C35 1_555 1_555
O1B C26B 1_555 1_555
O2B C26B 1_555 1_555
O11B C29B 1_555 1_555
O12B C29B 1_555 1_555
C25B C26B 1_555 1_555
C27B C25B 1_555 1_555
H10B C27B 1_555 1_555
C28B C27B 1_555 1_555
C29B C28B 1_555 1_555
C30B C28B 1_555 1_555
H11B C30B 1_555 1_555
C31B C30B 1_555 1_555
C32B C25B 1_555 1_555
H12B C32B 1_555 1_555
C33B C33 1_555 1_555
O5B C24B 1_555 1_555
O6B C24B 1_555 1_555
O21B C17B 1_555 1_555
O22B C17B 1_555 1_555
C17B C18B 1_555 1_555
C18B C19B 1_555 1_555
C19B H7B 1_555 1_555
C20B C19B 1_555 1_555
C21B C20B 1_555 1_555
H8B C21B 1_555 1_555
C22B C21B 1_555 1_555
C23B C18B 1_555 1_555
H9B C23B 1_555 1_555
C24B C22B 1_555 1_555
C34B C34 1_555 1_555
Cu1B O25B 1_555 1_555
Cu3B O1B 1_555 1_555
Cu4B O2B 1_555 1_555
Cu6B O23B 1_555 1_555
O3B Cu3B 1_555 1_555
O4B Cu4B 1_555 1_555
O7B Cu4B 1_555 1_555
O8B Cu3B 1_555 1_555
O9B Cu3B 1_555 1_555
O10B Cu4B 1_555 1_555
O13B C37B 1_555 1_555
O14B C37B 1_555 1_555
O15B C47B 1_555 1_555
O16B C47B 1_555 1_555
O17B C44B 1_555 1_555
O18B C44B 1_555 1_555
O24B Cu6B 1_555 1_555
O25B C5B 1_555 1_555
O26B Cu1B 1_555 1_555
O27B C15B 1_555 1_555
O28B C15B 1_555 1_555
O29B C12B 1_555 1_555
O30B C12B 1_555 1_555
O31B C7B 1_555 1_555
O32B C39B 1_555 1_555
C1B O7B 1_555 1_555
C2B C1B 1_555 1_555
C3B C2B 1_555 1_555
H1B C3B 1_555 1_555
C4B C3B 1_555 1_555
C5B O24B 1_555 1_555
C6B C4B 1_555 1_555
H2B C6B 1_555 1_555
C7B C6B 1_555 1_555
C8B C2B 1_555 1_555
H3B C8B 1_555 1_555
C9B C10B 1_555 1_555
C10B H4B 1_555 1_555
C11B C10B 1_555 1_555
C12B C11B 1_555 1_555
C13B C11B 1_555 1_555
H5B C13B 1_555 1_555
C14B C13B 1_555 1_555
C15B C14B 1_555 1_555
C16B C9B 1_555 1_555
H6B C16B 1_555 1_555
C35B H13B 1_555 1_555
C36B C35B 1_555 1_555
C37B C36B 1_555 1_555
C38B C36B 1_555 1_555
H14B C38B 1_555 1_555
C39B C38B 1_555 1_555
C40B C39B 1_555 1_555
H15B C40B 1_555 1_555
C41B C42B 1_555 1_555
C42B H16B 1_555 1_555
C43B C42B 1_555 1_555
C44B C43B 1_555 1_555
C45B C43B 1_555 1_555
H17B C45B 1_555 1_555
C46B C45B 1_555 1_555
C47B C46B 1_555 1_555
C48B C41B 1_555 1_555
H18B C48B 1_555 1_555
C49B O31B 1_555 1_555
H19B C49B 1_555 1_555
H20B C49B 1_555 1_555
C50B O32B 1_555 1_555
H21B C50B 1_555 1_555
H22B C50B 1_555 1_555
C51B O3B 1_555 1_555
C52B C35B 1_555 1_555
Cu2_2 O12 1_555 1_555
O19_2 Cu2_2 1_555 1_555
Cu5_2 O11 1_555 1_555
O20_2 Cu5_2 1_555 1_555
Cu1_2 O16B 1_555 1_555
Cu1A O13B 1_555 1_555
Cu1A_2 O30 1_555 1_555
Cu1B_2 O16 1_555 1_555
Cu1C O30B 1_555 1_555
Cu1C_2 O13 1_555 1_555
Cu2A O17 1_555 1_555
Cu2A_2 O28 1_555 1_555
Cu2B O12B 1_555 1_555
Cu2B_2 O22B 1_555 1_555
Cu2C O28B 1_555 1_555
Cu2C_2 O17B 1_555 1_555
Cu3B_2 O6B 1_555 1_555
Cu4B_2 O5B 1_555 1_555
Cu5A O18 1_555 1_555
Cu5A_2 O27 1_555 1_555
Cu5B O11B 1_555 1_555
Cu5B_2 O21B 1_555 1_555
Cu5C O27B 1_555 1_555
Cu5C_2 O18B 1_555 1_555
Cu6_2 O15B 1_555 1_555
Cu6A O14B 1_555 1_555
Cu6A_2 O29 1_555 1_555
Cu6B_2 O15 1_555 1_555
Cu6C O29B 1_555 1_555
Cu6C_2 O14 1_555 1_555
O5B_2 Cu4B 1_555 1_555
O6B_2 Cu3B 1_555 1_555
O11_2 Cu5 1_555 1_555
O12_2 Cu2 1_555 1_555
O13A Cu1B 1_555 1_555
O13C Cu1 1_555 1_555
O14A Cu6B 1_555 1_555
O14C Cu6 1_555 1_555
O15_2 Cu6B 1_555 1_555
O15B_2 Cu6 1_555 1_555
O16_2 Cu1B 1_555 1_555
O16B_2 Cu1 1_555 1_555
O17A Cu2_2 1_555 1_555
O17A_2 Cu2 1_555 1_555
O18A Cu5_2 1_555 1_555
O18A_2 Cu5 1_555 1_555
O21_2 Cu5_2 1_555 1_555
O22_2 Cu2_2 1_555 1_555
O27A Cu5_2 1_555 1_555
O27A_2 Cu5 1_555 1_555
O28A Cu2_2 1_555 1_555
O28A_2 Cu2 1_555 1_555
O29A Cu6 1_555 1_555
O29C Cu6B 1_555 1_555
O30A Cu1 1_555 1_555
O30C Cu1B 1_555 1_555
O4 C51 1_555 1_555
O6 C24 1_555 1_555
O8 C1 1_555 1_555
O22 C17 1_555 1_555
C4 C5 1_555 1_555
C7 C8 1_555 1_555
C9 C49 1_555 1_555
C14 C16 1_555 1_555
C22 C23 1_555 1_555
C22 C24 1_555 1_555
C31 C32 1_555 1_555
C40 C52 1_555 1_555
C41 C50 1_555 1_555
C46 C48 1_555 1_555
C51 C52 1_555 1_555
C31B C32B 1_555 1_555
C31B C33B 1_555 1_555
C20B C34B 1_555 1_555
C22B C23B 1_555 1_555
O4B C51B 1_555 1_555
O8B C1B 1_555 1_555
C4B C5B 1_555 1_555
C7B C8B 1_555 1_555
C9B C49B 1_555 1_555
C14B C16B 1_555 1_555
C40B C52B 1_555 1_555
C41B C50B 1_555 1_555
C46B C48B 1_555 1_555
C51B C52B 1_555 1_555

#END
