
#######################################################################
#
#                 Cambridge Crystallographic Data Centre
#                                CCDC 
#
#######################################################################
#
# If this CIF has been generated from an entry in the Cambridge 
# Structural Database, then it will include bibliographic, chemical, 
# crystal, experimental, refinement or atomic coordinate data resulting 
# from the CCDC's data processing and validation procedures.
#
#######################################################################

data_PUVFIX
_chemical_formula_moiety         'C24 H16 Br8 N2 O14 Zn8'
_symmetry_cell_setting           orthorhombic
_symmetry_space_group_name_H-M   'A m m m'
_symmetry_Int_Tables_number      65
_space_group_name_Hall           '-A 2 2'
loop_
_symmetry_equiv_pos_site_id
_symmetry_equiv_pos_as_xyz
1 x,y,z
2 -x,-y,z
3 x,-y,-z
4 -x,y,-z
5 x,1/2+y,1/2+z
6 -x,1/2-y,1/2+z
7 x,1/2-y,1/2-z
8 -x,1/2+y,1/2-z
9 -x,-y,-z
10 x,y,-z
11 -x,y,z
12 x,-y,z
13 -x,1/2-y,1/2-z
14 x,1/2+y,1/2-z
15 -x,1/2+y,1/2+z
16 x,1/2-y,1/2+z
_cell_length_a                   9.6342(14)
_cell_length_b                   16.488(3)
_cell_length_c                   14.229(3)
_cell_angle_alpha                90
_cell_angle_beta                 90
_cell_angle_gamma                90
_cell_volume                     2260.26
loop_
_atom_site_label
_atom_site_type_symbol
_atom_site_fract_x
_atom_site_fract_y
_atom_site_fract_z
Zn1 Zn 0.34680(11) 0.0000 0.0000
O1 O 0.3852(5) 0.0854(3) 0.0978(4)
N1 N 0.1330(8) 0.0000 0.0000
C1 C 0.5000 0.1114(5) 0.1237(6)
C2 C 0.5000 0.1819(6) 0.1904(8)
C3 C 0.390(2) 0.1991(14) 0.2484(17)
Br1 Br 0.2294(14) 0.1252(8) 0.2763(10)
C4 C 0.0802(15) 0.0540(11) 0.0780(12)
H1 H 0.1142 0.1089 0.0689
H2 H 0.1142 0.0345 0.1380
O1F O 0.3852(5) 0.4146(3) 0.4022(4)
C1F C 0.5000 0.3886(5) 0.3763(6)
C2F C 0.5000 0.3181(6) 0.3096(8)
C3F C 0.390(2) 0.3009(14) 0.2516(17)
Br1F Br 0.2294(14) 0.3748(8) 0.2237(10)
O1J O 0.6148(5) 0.0854(3) 0.0978(4)
C3J C 0.610(2) 0.1991(14) 0.2484(17)
Br1J Br 0.7706(14) 0.1252(8) 0.2763(10)
O1L O 0.6148(5) 0.4146(3) 0.4022(4)
C3L C 0.610(2) 0.3009(14) 0.2516(17)
Br1L Br 0.7706(14) 0.3748(8) 0.2237(10)
C4B C 0.0802(15) -0.0540(11) -0.0780(12)
H1B H 0.1142 -0.1089 -0.0689
H2B H 0.1142 -0.0345 -0.1380
N1A N -0.1330(8) 0.0000 0.0000
C4H C -0.0802(15) -0.0540(11) -0.0780(12)
H1H H -0.1142 -0.1089 -0.0689
H2H H -0.1142 -0.0345 -0.1380
C4I C 0.0802(15) 0.0540(11) -0.0780(12)
H1I H 0.1142 0.1089 -0.0689
H2I H 0.1142 0.0345 -0.1380
C4J C -0.0802(15) 0.0540(11) 0.0780(12)
H1J H -0.1142 0.1089 0.0689
H2J H -0.1142 0.0345 0.1380
C4K C 0.0802(15) -0.0540(11) 0.0780(12)
H1K H 0.1142 -0.1089 0.0689
H2K H 0.1142 -0.0345 0.1380
C4A C -0.0802(15) -0.0540(11) 0.0780(12)
H1A H -0.1142 -0.1089 0.0689
H2A H -0.1142 -0.0345 0.1380
C4C C -0.0802(15) 0.0540(11) -0.0780(12)
H1C H -0.1142 0.1089 -0.0689
H2C H -0.1142 0.0345 -0.1380
Zn1A Zn -0.34680(11) 0.0000 0.0000
O1A O -0.3852(5) -0.0854(3) 0.0978(4)
C1A C -0.5000 -0.1114(5) 0.1237(6)
C2A C -0.5000 -0.1819(6) 0.1904(8)
C3A C -0.390(2) -0.1991(14) 0.2484(17)
Br1A Br -0.2294(14) -0.1252(8) 0.2763(10)
O1G O -0.3852(5) -0.4146(3) 0.4022(4)
C1G C -0.5000 -0.3886(5) 0.3763(6)
C2G C -0.5000 -0.3181(6) 0.3096(8)
C3G C -0.390(2) -0.3009(14) 0.2516(17)
Br1G Br -0.2294(14) -0.3748(8) 0.2237(10)
O1K O -0.6148(5) -0.0854(3) 0.0978(4)
C3K C -0.610(2) -0.1991(14) 0.2484(17)
Br1K Br -0.7706(14) -0.1252(8) 0.2763(10)
O1M O -0.6148(5) -0.4146(3) 0.4022(4)
C3M C -0.610(2) -0.3009(14) 0.2516(17)
Br1M Br -0.7706(14) -0.3748(8) 0.2237(10)
Zn1_2 Zn -0.65320(11) 0.0000 0.0000
Zn1A_2 Zn 0.65320(11) 0.0000 0.0000
Zn1D Zn -0.65320(11) -0.5000 0.5000
Zn1D_2 Zn 0.34680(11) 0.5000 0.5000
Zn1E Zn -0.34680(11) -0.5000 0.5000
Zn1E_2 Zn 0.65320(11) 0.5000 0.5000
O1B O 0.3852(5) -0.0854(3) -0.0978(4)
O1C O -0.3852(5) 0.0854(3) -0.0978(4)
O1H O -0.3852(5) -0.0854(3) -0.0978(4)
O1I O 0.3852(5) 0.0854(3) -0.0978(4)
O1J_2 O -0.3852(5) 0.0854(3) 0.0978(4)
O1K_2 O 0.3852(5) -0.0854(3) 0.0978(4)
loop_
_geom_bond_atom_site_label_1
_geom_bond_atom_site_label_2
_geom_bond_site_symmetry_1
_geom_bond_site_symmetry_2
Zn1 O1 1_555 1_555
O1 C1 1_555 1_555
N1 Zn1 1_555 1_555
C1 C2 1_555 1_555
C2 C3 1_555 1_555
C3 Br1 1_555 1_555
C4 N1 1_555 1_555
H1 C4 1_555 1_555
H2 C4 1_555 1_555
O1F C1F 1_555 1_555
C1F C2F 1_555 1_555
C2F C3F 1_555 1_555
C3F C3 1_555 1_555
Br1F C3F 1_555 1_555
O1J C1 1_555 1_555
C3J C2 1_555 1_555
Br1J C3J 1_555 1_555
O1L C1F 1_555 1_555
C3L C2F 1_555 1_555
Br1L C3L 1_555 1_555
C4B N1 1_555 1_555
H1B C4B 1_555 1_555
H2B C4B 1_555 1_555
N1A C4H 1_555 1_555
C4H C4B 1_555 1_555
H1H C4H 1_555 1_555
H2H C4H 1_555 1_555
C4I N1 1_555 1_555
H1I C4I 1_555 1_555
H2I C4I 1_555 1_555
C4J C4 1_555 1_555
H1J C4J 1_555 1_555
H2J C4J 1_555 1_555
C4K N1 1_555 1_555
H1K C4K 1_555 1_555
H2K C4K 1_555 1_555
C4A N1A 1_555 1_555
H1A C4A 1_555 1_555
H2A C4A 1_555 1_555
C4C N1A 1_555 1_555
H1C C4C 1_555 1_555
H2C C4C 1_555 1_555
Zn1A N1A 1_555 1_555
O1A Zn1A 1_555 1_555
C1A O1A 1_555 1_555
C2A C1A 1_555 1_555
C3A C2A 1_555 1_555
Br1A C3A 1_555 1_555
O1G C1G 1_555 1_555
C1G C2G 1_555 1_555
C2G C3G 1_555 1_555
C3G C3A 1_555 1_555
Br1G C3G 1_555 1_555
O1K C1A 1_555 1_555
C3K C2A 1_555 1_555
Br1K C3K 1_555 1_555
O1M C1G 1_555 1_555
C3M C2G 1_555 1_555
Br1M C3M 1_555 1_555
Zn1_2 O1K 1_555 1_555
Zn1A_2 O1J 1_555 1_555
Zn1D O1M 1_555 1_555
Zn1D_2 O1F 1_555 1_555
Zn1E O1G 1_555 1_555
Zn1E_2 O1L 1_555 1_555
O1B Zn1 1_555 1_555
O1C Zn1A 1_555 1_555
O1H Zn1A 1_555 1_555
O1I Zn1 1_555 1_555
O1J_2 Zn1A 1_555 1_555
O1K_2 Zn1 1_555 1_555
C3J C3L 1_555 1_555
N1A C4J 1_555 1_555
C4I C4C 1_555 1_555
C4K C4A 1_555 1_555
C3K C3M 1_555 1_555

#END
