
#######################################################################
#
#                 Cambridge Crystallographic Data Centre
#                                CCDC 
#
#######################################################################
#
# If this CIF has been generated from an entry in the Cambridge 
# Structural Database, then it will include bibliographic, chemical, 
# crystal, experimental, refinement or atomic coordinate data resulting 
# from the CCDC's data processing and validation procedures.
#
#######################################################################

data_PUVGEU
_chemical_formula_moiety         'C24 H16 Br8 N3 O12 Zn7'
_symmetry_cell_setting           orthorhombic
_symmetry_space_group_name_H-M   'A m m m'
_symmetry_Int_Tables_number      65
_space_group_name_Hall           '-A 2 2'
loop_
_symmetry_equiv_pos_site_id
_symmetry_equiv_pos_as_xyz
1 x,y,z
2 -x,-y,z
3 x,-y,-z
4 -x,y,-z
5 x,1/2+y,1/2+z
6 -x,1/2-y,1/2+z
7 x,1/2-y,1/2-z
8 -x,1/2+y,1/2-z
9 -x,-y,-z
10 x,y,-z
11 -x,y,z
12 x,-y,z
13 -x,1/2-y,1/2-z
14 x,1/2+y,1/2-z
15 -x,1/2+y,1/2+z
16 x,1/2-y,1/2+z
_cell_length_a                   9.6230(3)
_cell_length_b                   12.8580(6)
_cell_length_c                   17.4800(8)
_cell_angle_alpha                90
_cell_angle_beta                 90
_cell_angle_gamma                90
_cell_volume                     2162.84
loop_
_atom_site_label
_atom_site_type_symbol
_atom_site_fract_x
_atom_site_fract_y
_atom_site_fract_z
Br1 Br 0.2812(6) 0.2193(5) 0.1412(3)
Zn1 Zn 0.15385(8) 0.5000 0.0000
O1 O 0.1142(4) 0.3923(4) 0.0815(2)
N1 N 0.3654(7) 0.5000 0.0000
C1 C 0.0000 0.3678(6) 0.1076(3)
C2 C 0.0000 0.3037(6) 0.1803(4)
C3 C 0.1176(12) 0.2506(11) 0.2052(6)
C4 C 0.4215(10) 0.4091(8) 0.0413(6)
H1 H 0.3875 0.3445 0.0167
H2 H 0.3875 0.4099 0.0947
Br1F Br 0.2812(6) 0.2807(5) 0.3588(3)
O1F O 0.1142(4) 0.1077(4) 0.4185(2)
C1F C 0.0000 0.1322(6) 0.3924(3)
C2F C 0.0000 0.1963(6) 0.3197(4)
C3F C 0.1176(12) 0.2494(11) 0.2948(6)
Br1J Br -0.2812(6) 0.2193(5) 0.1412(3)
O1J O -0.1142(4) 0.3923(4) 0.0815(2)
C3J C -0.1176(12) 0.2506(11) 0.2052(6)
Br1L Br -0.2812(6) 0.2807(5) 0.3588(3)
O1L O -0.1142(4) 0.1077(4) 0.4185(2)
C3L C -0.1176(12) 0.2494(11) 0.2948(6)
C4B C 0.4215(10) 0.5909(8) -0.0413(6)
H1B H 0.3875 0.6555 -0.0167
H2B H 0.3875 0.5901 -0.0947
N1A N 0.6346(7) 0.5000 0.0000
C4H C 0.5785(10) 0.5909(8) -0.0413(6)
H1H H 0.6125 0.6555 -0.0167
H2H H 0.6125 0.5901 -0.0947
C4I C 0.4215(10) 0.4091(8) -0.0413(6)
H1I H 0.3875 0.3445 -0.0167
H2I H 0.3875 0.4099 -0.0947
C4J C 0.5785(10) 0.4091(8) 0.0413(6)
H1J H 0.6125 0.3445 0.0167
H2J H 0.6125 0.4099 0.0947
C4K C 0.4215(10) 0.5909(8) 0.0413(6)
H1K H 0.3875 0.6555 0.0167
H2K H 0.3875 0.5901 0.0947
C4A C 0.5785(10) 0.5909(8) 0.0413(6)
H1A H 0.6125 0.6555 0.0167
H2A H 0.6125 0.5901 0.0947
C4C C 0.5785(10) 0.4091(8) -0.0413(6)
H1C H 0.6125 0.3445 -0.0167
H2C H 0.6125 0.4099 -0.0947
Br1A Br -0.2812(6) 0.7807(5) 0.1412(3)
Zn1A Zn -0.15385(8) 0.5000 0.0000
O1A O -0.1142(4) 0.6077(4) 0.0815(2)
C1A C 0.0000 0.6322(6) 0.1076(3)
C2A C -0.0000 0.6963(6) 0.1803(4)
C3A C -0.1176(12) 0.7494(11) 0.2052(6)
Br1G Br -0.2812(6) 0.7193(5) 0.3588(3)
O1G O -0.1142(4) 0.8923(4) 0.4185(2)
C1G C -0.0000 0.8678(6) 0.3924(3)
C2G C 0.0000 0.8037(6) 0.3197(4)
C3G C -0.1176(12) 0.7506(11) 0.2948(6)
Br1K Br 0.2812(6) 0.7807(5) 0.1412(3)
O1K O 0.1142(4) 0.6077(4) 0.0815(2)
C3K C 0.1176(12) 0.7494(11) 0.2052(6)
Br1M Br 0.2812(6) 0.7193(5) 0.3588(3)
O1M O 0.1142(4) 0.8923(4) 0.4185(2)
C3M C 0.1176(12) 0.7506(11) 0.2948(6)
Zn1A_2 Zn 0.84615(8) 0.5000 0.0000
Zn1D Zn 0.15385(8) 0.0000 0.5000
Zn1D_2 Zn 0.15385(8) 1.0000 0.5000
Zn1E Zn -0.15385(8) 0.0000 0.5000
Zn1E_2 Zn -0.15385(8) 1.0000 0.5000
O1B O 0.1142(4) 0.6077(4) -0.0815(2)
O1C O -0.1142(4) 0.3923(4) -0.0815(2)
O1H O -0.1142(4) 0.6077(4) -0.0815(2)
O1I O 0.1142(4) 0.3923(4) -0.0815(2)
N1A_2 N -0.3654(7) 0.5000 0.0000
loop_
_geom_bond_atom_site_label_1
_geom_bond_atom_site_label_2
_geom_bond_site_symmetry_1
_geom_bond_site_symmetry_2
Br1 C3 1_555 1_555
Zn1 O1 1_555 1_555
O1 C1 1_555 1_555
N1 Zn1 1_555 1_555
C1 C2 1_555 1_555
C2 C3 1_555 1_555
C3 C3F 1_555 1_555
C4 N1 1_555 1_555
H1 C4 1_555 1_555
H2 C4 1_555 1_555
Br1F C3F 1_555 1_555
O1F C1F 1_555 1_555
C1F C2F 1_555 1_555
C2F C3F 1_555 1_555
Br1J C3J 1_555 1_555
O1J C1 1_555 1_555
C3J C2 1_555 1_555
Br1L C3L 1_555 1_555
O1L C1F 1_555 1_555
C3L C2F 1_555 1_555
C4B N1 1_555 1_555
H1B C4B 1_555 1_555
H2B C4B 1_555 1_555
N1A C4H 1_555 1_555
C4H C4B 1_555 1_555
H1H C4H 1_555 1_555
H2H C4H 1_555 1_555
C4I N1 1_555 1_555
H1I C4I 1_555 1_555
H2I C4I 1_555 1_555
C4J C4 1_555 1_555
H1J C4J 1_555 1_555
H2J C4J 1_555 1_555
C4K N1 1_555 1_555
H1K C4K 1_555 1_555
H2K C4K 1_555 1_555
C4A N1A 1_555 1_555
H1A C4A 1_555 1_555
H2A C4A 1_555 1_555
C4C N1A 1_555 1_555
H1C C4C 1_555 1_555
H2C C4C 1_555 1_555
Br1A C3A 1_555 1_555
Zn1A O1J 1_555 1_555
O1A Zn1A 1_555 1_555
C1A O1A 1_555 1_555
C2A C1A 1_555 1_555
C3A C2A 1_555 1_555
Br1G C3G 1_555 1_555
O1G C1G 1_555 1_555
C1G C2G 1_555 1_555
C2G C3G 1_555 1_555
C3G C3A 1_555 1_555
Br1K C3K 1_555 1_555
O1K Zn1 1_555 1_555
C3K C2A 1_555 1_555
Br1M C3M 1_555 1_555
O1M C1G 1_555 1_555
C3M C2G 1_555 1_555
Zn1A_2 N1A 1_555 1_555
Zn1D O1F 1_555 1_555
Zn1D_2 O1M 1_555 1_555
Zn1E O1L 1_555 1_555
Zn1E_2 O1G 1_555 1_555
O1B Zn1 1_555 1_555
O1C Zn1A 1_555 1_555
O1H Zn1A 1_555 1_555
O1I Zn1 1_555 1_555
N1A_2 Zn1A 1_555 1_555
C3J C3L 1_555 1_555
N1A C4J 1_555 1_555
C4I C4C 1_555 1_555
C4K C4A 1_555 1_555
C1A O1K 1_555 1_555
C3K C3M 1_555 1_555

#END
