
#######################################################################
#
#                 Cambridge Crystallographic Data Centre
#                                CCDC 
#
#######################################################################
#
# If this CIF has been generated from an entry in the Cambridge 
# Structural Database, then it will include bibliographic, chemical, 
# crystal, experimental, refinement or atomic coordinate data resulting 
# from the CCDC's data processing and validation procedures.
#
#######################################################################

data_YICGOI
_chemical_formula_moiety         '(C82 H60 Co2 N8 O10)n'
_symmetry_cell_setting           monoclinic
_symmetry_space_group_name_H-M   'P 21/n'
_symmetry_Int_Tables_number      14
_space_group_name_Hall           '-P 2yn'
loop_
_symmetry_equiv_pos_site_id
_symmetry_equiv_pos_as_xyz
1 x,y,z
2 1/2-x,1/2+y,1/2-z
3 -x,-y,-z
4 1/2+x,1/2-y,1/2+z
_cell_length_a                   17.5542(10)
_cell_length_b                   9.9228(6)
_cell_length_c                   23.9223(14)
_cell_angle_alpha                90
_cell_angle_beta                 91.9200(10)
_cell_angle_gamma                90
_cell_volume                     4164.61
loop_
_atom_site_label
_atom_site_type_symbol
_atom_site_fract_x
_atom_site_fract_y
_atom_site_fract_z
C1 C 0.37590(15) 0.4720(3) 0.41736(11)
C2 C 0.43999(15) 0.4849(3) 0.46044(11)
C3 C 0.44169(17) 0.4116(3) 0.50901(12)
H1 H 0.4026 0.3508 0.5154
C4 C 0.50000(17) 0.4260(3) 0.54878(13)
H2 H 0.4994 0.3763 0.5817
C5 C 0.12762(14) 0.4946(3) 0.42596(10)
C6 C 0.02941(16) 0.3793(3) 0.48253(11)
H3 H 0.0489 0.2973 0.4707
C7 C 0.06237(15) 0.4982(3) 0.46531(10)
C8 C 0.03251(16) 0.6191(3) 0.48277(12)
H4 H 0.0539 0.6998 0.4713
C9 C 0.33296(15) 0.2630(3) 0.26098(11)
H5 H 0.2912 0.3031 0.2427
C10 C 0.39591(16) 0.2343(3) 0.23001(12)
H6 H 0.3952 0.2534 0.1919
C11 C 0.46033(16) 0.1772(3) 0.25556(12)
C12 C 0.45456(18) 0.1480(4) 0.31120(14)
H7 H 0.4954 0.1073 0.3303
C13 C 0.38924(19) 0.1780(3) 0.33957(14)
H8 H 0.3877 0.1562 0.3773
C14 C 0.53053(15) 0.1461(3) 0.22513(12)
C15 C 0.52926(16) 0.1258(3) 0.16759(12)
H9 H 0.4838 0.1372 0.1471
C16 C 0.59396(16) 0.0891(3) 0.14042(12)
H10 H 0.5914 0.0737 0.1021
C17 C 0.66298(15) 0.0749(3) 0.16981(12)
C18 C 0.66561(16) 0.0964(3) 0.22712(13)
H11 H 0.7113 0.0864 0.2475
C19 C 0.60040(16) 0.1326(3) 0.25394(12)
H12 H 0.6031 0.1485 0.2923
C20 C 1.0837(2) 0.3288(3) 0.30826(16)
H13 H 1.0844 0.4074 0.3295
C21 C 1.01801(19) 0.2977(3) 0.27835(16)
H14 H 0.9757 0.3536 0.2805
C22 C 1.01401(15) 0.1835(3) 0.24487(11)
C23 C 1.08050(16) 0.1076(3) 0.24377(12)
H15 H 1.0821 0.0305 0.2218
C24 C 1.14438(16) 0.1466(3) 0.27544(12)
H16 H 1.1882 0.0945 0.2730
C25 C 0.94306(15) 0.1461(3) 0.21404(11)
C26 C 0.88621(18) 0.2405(3) 0.20254(15)
H17 H 0.8947 0.3302 0.2121
C27 C 0.81788(18) 0.2046(3) 0.17740(16)
H18 H 0.7814 0.2705 0.1697
C28 C 0.80236(15) 0.0727(3) 0.16332(11)
C29 C 0.85905(18) -0.0212(3) 0.17191(15)
H19 H 0.8508 -0.1100 0.1609
C30 C 0.92859(18) 0.0154(3) 0.19698(15)
H20 H 0.9663 -0.0496 0.2024
C31 C 0.7312(2) -0.6422(3) -0.02804(13)
H21 H 0.7314 -0.7288 -0.0131
C32 C 0.7262(2) -0.5356(3) 0.00798(13)
H22 H 0.7243 -0.5513 0.0462
C33 C 0.72394(17) -0.4047(3) -0.01195(12)
C34 C 0.7278(2) -0.3910(3) -0.06931(13)
H23 H 0.7260 -0.3057 -0.0854
C35 C 0.7344(2) -0.5025(3) -0.10232(13)
H24 H 0.7382 -0.4894 -0.1406
C36 C 0.72112(17) -0.2864(3) 0.02597(12)
C37 C 0.7545(2) -0.1658(3) 0.01309(13)
H25 H 0.7766 -0.1559 -0.0215
C38 C 0.75620(18) -0.0586(3) 0.05006(13)
H26 H 0.7792 0.0221 0.0402
C39 C 0.72376(15) -0.0717(3) 0.10157(12)
C40 C 0.6873(2) -0.1896(3) 0.11427(16)
H27 H 0.6632 -0.1981 0.1481
C41 C 0.6862(2) -0.2955(4) 0.07697(16)
H28 H 0.6614 -0.3749 0.0862
Co1 Co 0.240509(18) 0.31217(3) 0.367682(13)
N1 N 0.32831(12) 0.2368(2) 0.31516(9)
N2 N 1.14715(13) 0.2526(2) 0.30876(9)
N3 N 0.73583(13) -0.6289(2) -0.08316(9)
N4 N 0.72936(13) 0.0366(3) 0.14108(11)
O1 O 0.37254(13) 0.5557(3) 0.37906(9)
O2 O 0.32932(11) 0.3767(2) 0.42377(8)
O3 O 0.16073(11) 0.38329(19) 0.42158(7)
O4 O 0.14232(11) 0.59893(18) 0.39891(8)
O5 O 0.24313(10) 0.50194(18) 0.32511(7)
H29 H 0.2108 0.5549 0.3391
H30 H 0.2875 0.5359 0.3290
C1B C 0.62410(15) 0.5280(3) 0.58264(11)
C2B C 0.56001(15) 0.5151(3) 0.53956(11)
C3B C 0.55831(17) 0.5884(3) 0.49099(12)
H1B H 0.5974 0.6492 0.4846
C4B C 0.50000(17) 0.5740(3) 0.45122(13)
H2B H 0.5006 0.6237 0.4183
O1B O 0.62746(13) 0.4443(3) 0.62094(9)
O2B O 0.67068(11) 0.6233(2) 0.57623(8)
C5B C -0.12762(14) 0.5054(3) 0.57404(10)
C6B C -0.02941(16) 0.6207(3) 0.51747(11)
H3B H -0.0489 0.7027 0.5293
C7B C -0.06237(15) 0.5018(3) 0.53469(10)
C8B C -0.03251(16) 0.3809(3) 0.51723(12)
H4B H -0.0539 0.3002 0.5287
O3B O -0.16073(11) 0.61671(19) 0.57842(7)
O4B O -0.14232(11) 0.40107(18) 0.60109(8)
C9B C -0.33296(15) 0.7370(3) 0.73902(11)
H5B H -0.2912 0.6969 0.7573
C10B C -0.39591(16) 0.7657(3) 0.76999(12)
H6B H -0.3952 0.7466 0.8081
C11B C -0.46033(16) 0.8228(3) 0.74444(12)
C12B C -0.45456(18) 0.8520(4) 0.68880(14)
H7B H -0.4954 0.8927 0.6697
C13B C -0.38924(19) 0.8220(3) 0.66043(14)
H8B H -0.3877 0.8438 0.6227
C14B C -0.53053(15) 0.8539(3) 0.77487(12)
C15B C -0.52926(16) 0.8742(3) 0.83241(12)
H9B H -0.4838 0.8628 0.8529
C16B C -0.59396(16) 0.9109(3) 0.85958(12)
H10B H -0.5914 0.9263 0.8979
C17B C -0.66298(15) 0.9251(3) 0.83019(12)
C18B C -0.66561(16) 0.9036(3) 0.77288(13)
H11B H -0.7113 0.9136 0.7525
C19B C -0.60040(16) 0.8674(3) 0.74606(12)
H12B H -0.6031 0.8515 0.7077
C20B C -1.0837(2) 0.6712(3) 0.69174(16)
H13B H -1.0844 0.5926 0.6705
C21B C -1.01801(19) 0.7023(3) 0.72165(16)
H14B H -0.9757 0.6464 0.7195
C22B C -1.01401(15) 0.8165(3) 0.75513(11)
C23B C -1.08050(16) 0.8924(3) 0.75623(12)
H15B H -1.0821 0.9695 0.7782
C24B C -1.14438(16) 0.8534(3) 0.72456(12)
H16B H -1.1882 0.9055 0.7270
C25B C -0.94306(15) 0.8539(3) 0.78596(11)
C26B C -0.88621(18) 0.7595(3) 0.79746(15)
H17B H -0.8947 0.6698 0.7879
C27B C -0.81788(18) 0.7954(3) 0.82260(16)
H18B H -0.7814 0.7295 0.8303
C28B C -0.80236(15) 0.9273(3) 0.83668(11)
C29B C -0.85905(18) 1.0212(3) 0.82809(15)
H19B H -0.8508 1.1100 0.8391
C30B C -0.92859(18) 0.9846(3) 0.80302(15)
H20B H -0.9663 1.0496 0.7976
C31B C -0.7312(2) 1.6422(3) 1.02804(13)
H21B H -0.7314 1.7288 1.0131
C32B C -0.7262(2) 1.5356(3) 0.99202(13)
H22B H -0.7243 1.5513 0.9538
C33B C -0.72394(17) 1.4047(3) 1.01195(12)
C34B C -0.7278(2) 1.3910(3) 1.06931(13)
H23B H -0.7260 1.3057 1.0854
C35B C -0.7344(2) 1.5025(3) 1.10232(13)
H24B H -0.7382 1.4894 1.1406
C36B C -0.72112(17) 1.2864(3) 0.97403(12)
C37B C -0.7545(2) 1.1658(3) 0.98691(13)
H25B H -0.7766 1.1559 1.0215
C38B C -0.75620(18) 1.0586(3) 0.94994(13)
H26B H -0.7792 0.9779 0.9598
C39B C -0.72376(15) 1.0717(3) 0.89843(12)
C40B C -0.6873(2) 1.1896(3) 0.88573(16)
H27B H -0.6632 1.1981 0.8519
C41B C -0.6862(2) 1.2955(4) 0.92303(16)
H28B H -0.6614 1.3749 0.9138
Co1B Co -0.240509(18) 0.68783(3) 0.632318(13)
N1B N -0.32831(12) 0.7632(2) 0.68484(9)
N2B N -1.14715(13) 0.7474(2) 0.69124(9)
N3B N -0.73583(13) 1.6289(2) 1.08316(9)
N4B N -0.72936(13) 0.9634(3) 0.85892(11)
O5B O -0.24313(10) 0.49806(18) 0.67489(7)
H29B H -0.2108 0.4451 0.6609
H30B H -0.2875 0.4641 0.6710
Co1_2 Co 1.240509(18) 0.31217(3) 0.367682(13)
Co1A Co -0.740509(18) 1.81217(3) 1.132318(13)
Co1B_2 Co -1.240509(18) 0.68783(3) 0.632318(13)
Co1B_3 Co 0.759491(18) 0.68783(3) 0.632318(13)
Co1C Co 0.740509(18) -0.81217(3) -0.132318(13)
N2_2 N 0.14715(13) 0.2526(2) 0.30876(9)
N2B_2 N -0.14715(13) 0.7474(2) 0.69124(9)
N3A N -0.23583(13) 0.8711(2) 0.58316(9)
N3C N 0.23583(13) 0.1289(2) 0.41684(9)
O2B_2 O -0.32932(11) 0.6233(2) 0.57623(8)
loop_
_geom_bond_atom_site_label_1
_geom_bond_atom_site_label_2
_geom_bond_site_symmetry_1
_geom_bond_site_symmetry_2
C1 C2 1_555 1_555
C2 C3 1_555 1_555
C3 H1 1_555 1_555
C4 C3 1_555 1_555
H2 C4 1_555 1_555
C5 C7 1_555 1_555
C6 H3 1_555 1_555
C7 C6 1_555 1_555
C8 C7 1_555 1_555
H4 C8 1_555 1_555
C9 H5 1_555 1_555
C10 C9 1_555 1_555
H6 C10 1_555 1_555
C11 C10 1_555 1_555
C12 C11 1_555 1_555
H7 C12 1_555 1_555
C13 C12 1_555 1_555
H8 C13 1_555 1_555
C14 C11 1_555 1_555
C15 C14 1_555 1_555
H9 C15 1_555 1_555
C16 C15 1_555 1_555
H10 C16 1_555 1_555
C17 C16 1_555 1_555
C18 C17 1_555 1_555
H11 C18 1_555 1_555
C19 C14 1_555 1_555
H12 C19 1_555 1_555
C20 H13 1_555 1_555
C21 C20 1_555 1_555
H14 C21 1_555 1_555
C22 C21 1_555 1_555
C23 C22 1_555 1_555
H15 C23 1_555 1_555
C24 C23 1_555 1_555
H16 C24 1_555 1_555
C25 C22 1_555 1_555
C26 C25 1_555 1_555
H17 C26 1_555 1_555
C27 C26 1_555 1_555
H18 C27 1_555 1_555
C28 C27 1_555 1_555
C29 C28 1_555 1_555
H19 C29 1_555 1_555
C30 C25 1_555 1_555
H20 C30 1_555 1_555
C31 H21 1_555 1_555
C32 C31 1_555 1_555
H22 C32 1_555 1_555
C33 C32 1_555 1_555
C34 C33 1_555 1_555
H23 C34 1_555 1_555
C35 C34 1_555 1_555
H24 C35 1_555 1_555
C36 C33 1_555 1_555
C37 C36 1_555 1_555
H25 C37 1_555 1_555
C38 C37 1_555 1_555
H26 C38 1_555 1_555
C39 C38 1_555 1_555
C40 C39 1_555 1_555
H27 C40 1_555 1_555
C41 C36 1_555 1_555
H28 C41 1_555 1_555
Co1 N1 1_555 1_555
N1 C9 1_555 1_555
N2 C20 1_555 1_555
N3 C31 1_555 1_555
N4 C17 1_555 1_555
O1 C1 1_555 1_555
O2 C1 1_555 1_555
O3 C5 1_555 1_555
O4 C5 1_555 1_555
O5 Co1 1_555 1_555
H29 O5 1_555 1_555
H30 O5 1_555 1_555
C1B C2B 1_555 1_555
C2B C4 1_555 1_555
C3B C2B 1_555 1_555
H1B C3B 1_555 1_555
C4B C2 1_555 1_555
H2B C4B 1_555 1_555
O1B C1B 1_555 1_555
O2B C1B 1_555 1_555
C5B C7B 1_555 1_555
C6B C8 1_555 1_555
H3B C6B 1_555 1_555
C7B C6B 1_555 1_555
C8B C6 1_555 1_555
H4B C8B 1_555 1_555
O3B C5B 1_555 1_555
O4B C5B 1_555 1_555
C9B H5B 1_555 1_555
C10B C9B 1_555 1_555
H6B C10B 1_555 1_555
C11B C10B 1_555 1_555
C12B C11B 1_555 1_555
H7B C12B 1_555 1_555
C13B C12B 1_555 1_555
H8B C13B 1_555 1_555
C14B C11B 1_555 1_555
C15B C14B 1_555 1_555
H9B C15B 1_555 1_555
C16B C15B 1_555 1_555
H10B C16B 1_555 1_555
C17B C16B 1_555 1_555
C18B C17B 1_555 1_555
H11B C18B 1_555 1_555
C19B C14B 1_555 1_555
H12B C19B 1_555 1_555
C20B H13B 1_555 1_555
C21B C20B 1_555 1_555
H14B C21B 1_555 1_555
C22B C21B 1_555 1_555
C23B C22B 1_555 1_555
H15B C23B 1_555 1_555
C24B C23B 1_555 1_555
H16B C24B 1_555 1_555
C25B C22B 1_555 1_555
C26B C25B 1_555 1_555
H17B C26B 1_555 1_555
C27B C26B 1_555 1_555
H18B C27B 1_555 1_555
C28B C27B 1_555 1_555
C29B C28B 1_555 1_555
H19B C29B 1_555 1_555
C30B C25B 1_555 1_555
H20B C30B 1_555 1_555
C31B H21B 1_555 1_555
C32B C31B 1_555 1_555
H22B C32B 1_555 1_555
C33B C32B 1_555 1_555
C34B C33B 1_555 1_555
H23B C34B 1_555 1_555
C35B C34B 1_555 1_555
H24B C35B 1_555 1_555
C36B C33B 1_555 1_555
C37B C36B 1_555 1_555
H25B C37B 1_555 1_555
C38B C37B 1_555 1_555
H26B C38B 1_555 1_555
C39B C38B 1_555 1_555
C40B C39B 1_555 1_555
H27B C40B 1_555 1_555
C41B C36B 1_555 1_555
H28B C41B 1_555 1_555
Co1B O3B 1_555 1_555
N1B C9B 1_555 1_555
N2B C20B 1_555 1_555
N3B C31B 1_555 1_555
N4B C17B 1_555 1_555
O5B Co1B 1_555 1_555
H29B O5B 1_555 1_555
H30B O5B 1_555 1_555
Co1_2 N2 1_555 1_555
Co1A N3B 1_555 1_555
Co1B_2 N2B 1_555 1_555
Co1B_3 O2B 1_555 1_555
Co1C N3 1_555 1_555
N2_2 Co1 1_555 1_555
N2B_2 Co1B 1_555 1_555
N3A Co1B 1_555 1_555
N3C Co1 1_555 1_555
O2B_2 Co1B 1_555 1_555
C13 N1 1_555 1_555
C18 C19 1_555 1_555
C24 N2 1_555 1_555
C28 N4 1_555 1_555
C29 C30 1_555 1_555
C35 N3 1_555 1_555
C39 N4 1_555 1_555
C40 C41 1_555 1_555
Co1 O2 1_555 1_555
Co1 O3 1_555 1_555
C3B C4B 1_555 1_555
C7B C8B 1_555 1_555
C13B N1B 1_555 1_555
C18B C19B 1_555 1_555
C24B N2B 1_555 1_555
C28B N4B 1_555 1_555
C29B C30B 1_555 1_555
C35B N3B 1_555 1_555
C39B N4B 1_555 1_555
C40B C41B 1_555 1_555
Co1B N1B 1_555 1_555

#END
