
#######################################################################
#
#                 Cambridge Crystallographic Data Centre
#                                CCDC 
#
#######################################################################
#
# If this CIF has been generated from an entry in the Cambridge 
# Structural Database, then it will include bibliographic, chemical, 
# crystal, experimental, refinement or atomic coordinate data resulting 
# from the CCDC's data processing and validation procedures.
#
#######################################################################

data_OQEROS
_chemical_formula_moiety         '(C48 H28 Cd2 N4 O9 Pd1)n'
_symmetry_cell_setting           monoclinic
_symmetry_space_group_name_H-M   'C 2/c'
_symmetry_Int_Tables_number      15
_space_group_name_Hall           '-C 2yc'
loop_
_symmetry_equiv_pos_site_id
_symmetry_equiv_pos_as_xyz
1 x,y,z
2 -x,y,1/2-z
3 1/2+x,1/2+y,z
4 1/2-x,1/2+y,1/2-z
5 -x,-y,-z
6 x,-y,1/2+z
7 1/2-x,1/2-y,-z
8 1/2+x,1/2-y,1/2+z
_cell_length_a                   7.29530(10)
_cell_length_b                   25.5761(7)
_cell_length_c                   30.7597(6)
_cell_angle_alpha                90
_cell_angle_beta                 96.361(2)
_cell_angle_gamma                90
_cell_volume                     5703.97
loop_
_atom_site_label
_atom_site_type_symbol
_atom_site_fract_x
_atom_site_fract_y
_atom_site_fract_z
_atom_site_U_iso_or_equiv
_atom_site_thermal_displace_type
Cd2 Cd 1.0000 0.2909(2) 0.2500 0.1440 Uani
O5 O 0.991(5) 0.2418(15) 0.3074(9) 0.3025 Uani
Cd1 Cd 0.5000 0.34476(3) 0.2500 0.0995 Uani
Pd1 Pd 1.5000 0.5000 0.0000 0.0954 Uani
O1 O 0.7851(8) 0.3686(3) 0.22808(18) 0.1141 Uani
O2 O 0.5485(9) 0.4081(3) 0.1943(2) 0.1420 Uani
O3 O 2.087(4) 0.7640(7) 0.2022(6) 0.3573 Uani
O4 O 1.803(4) 0.7973(5) 0.1961(4) 0.3653 Uani
N1 N 1.4447(9) 0.5295(3) 0.05850(19) 0.0965 Uani
N2 N 1.2867(9) 0.4502(3) -0.0003(2) 0.0998 Uani
C1 C 1.5364(13) 0.5692(4) 0.0816(3) 0.1013 Uani
C2 C 1.4591(16) 0.5756(5) 0.1223(3) 0.1273 Uani
H1 H 1.4974 0.5994 0.1443 0.1530 Uiso
C3 C 1.3246(14) 0.5417(5) 0.1224(3) 0.1228 Uani
H2 H 1.2499 0.5379 0.1448 0.1470 Uiso
C4 C 1.3093(12) 0.5114(4) 0.0832(3) 0.1067 Uani
C5 C 1.1839(11) 0.4725(4) 0.0713(3) 0.1034 Uani
C6 C 1.1709(12) 0.4447(4) 0.0320(3) 0.1054 Uani
C7 C 1.0463(18) 0.4047(5) 0.0203(4) 0.1496 Uani
H3 H 0.9528 0.3936 0.0364 0.1790 Uiso
C8 C 1.0835(18) 0.3845(5) -0.0182(4) 0.1459 Uani
H4 H 1.0233 0.3568 -0.0333 0.1750 Uiso
C9 C 1.2316(14) 0.4137(4) -0.0309(3) 0.1127 Uani
C10 C 1.6826(14) 0.5967(4) 0.0695(3) 0.1100 Uani
C11 C 1.0624(11) 0.4553(4) 0.1050(3) 0.1069 Uani
C12 C 1.1363(12) 0.4282(4) 0.1417(3) 0.1213 Uani
H5 H 1.2621 0.4213 0.1458 0.1450 Uiso
C13 C 1.0252(12) 0.4116(4) 0.1719(3) 0.1184 Uani
H6 H 1.0773 0.3939 0.1966 0.1420 Uiso
C14 C 0.8373(11) 0.4204(4) 0.1664(2) 0.1023 Uani
C15 C 0.7642(12) 0.4481(4) 0.1305(3) 0.1110 Uani
H7 H 0.6387 0.4556 0.1267 0.1330 Uiso
C16 C 0.8749(12) 0.4646(4) 0.1002(3) 0.1158 Uani
H8 H 0.8225 0.4826 0.0756 0.1390 Uiso
C17 C 0.7153(12) 0.3975(4) 0.1987(3) 0.1039 Uani
C18 C 1.7530(14) 0.6408(3) 0.0981(2) 0.1371 Uani
C19 C 1.9269(13) 0.6381(3) 0.1216(3) 0.1598 Uani
H9 H 2.0028 0.6095 0.1181 0.1910 Uiso
C20 C 1.9874(14) 0.6782(5) 0.1502(3) 0.1877 Uani
H10 H 2.1038 0.6764 0.1659 0.2250 Uiso
C21 C 1.874(2) 0.7209(4) 0.1554(3) 0.2363 Uani
C22 C 1.700(2) 0.7235(3) 0.1319(4) 0.2733 Uani
H11 H 1.6242 0.7521 0.1354 0.3280 Uiso
C23 C 1.6396(15) 0.6835(4) 0.1033(3) 0.2020 Uani
H12 H 1.5233 0.6853 0.0876 0.2450 Uiso
C24 C 1.928(4) 0.7637(8) 0.1888(6) 0.2462 Uani
Cd1B Cd 2.0000 0.84476(3) 0.2500 0.0995 Uani
Cd1F Cd 1.0000 0.15524(3) -0.2500 0.0995 Uani
Cd1D Cd 2.5000 0.65524(3) -0.2500 0.0995 Uani
O1D O 2.2149(8) 0.6314(3) -0.22808(18) 0.1141 Uani
O1A O 0.2149(8) 0.3686(3) 0.27192(18) 0.1141 Uani
O2D O 2.4515(9) 0.5919(3) -0.1943(2) 0.1420 Uani
O2A O 0.4515(9) 0.4081(3) 0.3057(2) 0.1420 Uani
O3D O 0.913(4) 0.2360(7) -0.2022(6) 0.3573 Uani
O3B O 0.587(4) 0.2640(7) 0.2022(6) 0.3573 Uani
O3C O 0.413(4) 0.2640(7) 0.2978(6) 0.3573 Uani
O4D O 1.197(4) 0.2027(5) -0.1961(4) 0.3653 Uani
O4B O 0.303(4) 0.2973(5) 0.1961(4) 0.3653 Uani
O4C O 0.697(4) 0.2973(5) 0.3039(4) 0.3653 Uani
N1D N 1.5553(9) 0.4705(3) -0.05850(19) 0.0965 Uani
N2D N 1.7133(9) 0.5498(3) 0.0003(2) 0.0998 Uani
C1D C 1.4636(13) 0.4308(4) -0.0816(3) 0.1013 Uani
C2D C 1.5409(16) 0.4244(5) -0.1223(3) 0.1273 Uani
H1D H 1.5026 0.4006 -0.1443 0.1530 Uiso
C3D C 1.6754(14) 0.4583(5) -0.1224(3) 0.1228 Uani
H2D H 1.7501 0.4621 -0.1448 0.1470 Uiso
C4D C 1.6907(12) 0.4886(4) -0.0832(3) 0.1067 Uani
C5D C 1.8161(11) 0.5275(4) -0.0713(3) 0.1034 Uani
C6D C 1.8291(12) 0.5553(4) -0.0320(3) 0.1054 Uani
C7D C 1.9537(18) 0.5953(5) -0.0203(4) 0.1496 Uani
H3D H 2.0472 0.6064 -0.0364 0.1790 Uiso
C8D C 1.9165(18) 0.6155(5) 0.0182(4) 0.1459 Uani
H4D H 1.9767 0.6432 0.0333 0.1750 Uiso
C9D C 1.7684(14) 0.5863(4) 0.0309(3) 0.1127 Uani
C10D C 1.3174(14) 0.4033(4) -0.0695(3) 0.1100 Uani
C11D C 1.9376(11) 0.5447(4) -0.1050(3) 0.1069 Uani
C12D C 1.8637(12) 0.5718(4) -0.1417(3) 0.1213 Uani
H5D H 1.7379 0.5787 -0.1458 0.1450 Uiso
C13D C 1.9748(12) 0.5884(4) -0.1719(3) 0.1184 Uani
H6D H 1.9227 0.6061 -0.1966 0.1420 Uiso
C14D C 2.1627(11) 0.5796(4) -0.1664(2) 0.1023 Uani
C15D C 2.2358(12) 0.5519(4) -0.1305(3) 0.1110 Uani
H7D H 2.3613 0.5444 -0.1267 0.1330 Uiso
C16D C 2.1251(12) 0.5354(4) -0.1002(3) 0.1158 Uani
H8D H 2.1775 0.5174 -0.0756 0.1390 Uiso
C17D C 2.2847(12) 0.6025(4) -0.1987(3) 0.1039 Uani
C18D C 1.2470(14) 0.3592(3) -0.0981(2) 0.1371 Uani
C19D C 1.0731(13) 0.3619(3) -0.1216(3) 0.1598 Uani
H9D H 0.9972 0.3905 -0.1181 0.1910 Uiso
C20D C 1.0126(14) 0.3218(5) -0.1502(3) 0.1877 Uani
H10D H 0.8962 0.3236 -0.1659 0.2250 Uiso
C21D C 1.126(2) 0.2791(4) -0.1554(3) 0.2363 Uani
C22D C 1.300(2) 0.2765(3) -0.1319(4) 0.2733 Uani
H11D H 1.3758 0.2479 -0.1354 0.3280 Uiso
C23D C 1.3604(15) 0.3165(4) -0.1033(3) 0.2020 Uani
H12D H 1.4767 0.3147 -0.0876 0.2450 Uiso
C24D C 1.072(4) 0.2363(8) -0.1888(6) 0.2462 Uani
loop_
_atom_site_aniso_label
_atom_site_aniso_U_11
_atom_site_aniso_U_22
_atom_site_aniso_U_33
_atom_site_aniso_U_23
_atom_site_aniso_U_13
_atom_site_aniso_U_12
Cd2 0.142(3) 0.148(3) 0.154(4) 0.000 0.070(3) 0.000
O5 0.15(3) 0.30(4) 0.43(4) -0.04(3) -0.09(2) -0.03(2)
Cd1 0.1069(6) 0.1207(6) 0.0743(5) 0.000 0.0249(4) 0.000
Pd1 0.0987(6) 0.1158(7) 0.0744(5) 0.0031(4) 0.0222(4) 0.0111(4)
O1 0.101(3) 0.158(5) 0.083(3) 0.019(3) 0.009(3) -0.010(3)
O2 0.102(4) 0.206(7) 0.125(5) 0.051(5) 0.044(4) 0.026(4)
O3 0.67 0.211 0.176 -0.03 -0.02 -0.2
O4 0.81 0.149 0.115 -0.027 -0.047 0.047
N1 0.097(4) 0.120(5) 0.075(3) 0.005(3) 0.021(3) 0.016(3)
N2 0.107(4) 0.125(5) 0.070(3) 0.002(3) 0.021(3) 0.005(4)
C1 0.115(6) 0.116(6) 0.074(5) -0.017(4) 0.015(4) 0.011(5)
C2 0.127(7) 0.164(9) 0.094(6) -0.026(6) 0.026(5) 0.007(7)
C3 0.112(6) 0.177(9) 0.084(5) -0.017(6) 0.031(5) 0.014(7)
C4 0.098(5) 0.152(7) 0.074(5) 0.004(5) 0.027(4) 0.016(5)
C5 0.085(5) 0.149(7) 0.078(5) 0.010(5) 0.017(4) 0.007(5)
C6 0.101(5) 0.136(7) 0.082(5) 0.004(5) 0.022(4) -0.010(5)
C7 0.161(9) 0.197(11) 0.098(7) -0.002(7) 0.046(6) -0.049(9)
C8 0.174(10) 0.164(9) 0.104(7) -0.010(6) 0.034(7) -0.045(8)
C9 0.132(7) 0.121(6) 0.089(5) 0.003(5) 0.030(5) -0.017(5)
C10 0.128 0.121 0.082 -0.007 0.016 0
C11 0.090(5) 0.156(7) 0.077(5) 0.013(5) 0.020(4) 0.010(5)
C12 0.090(5) 0.185(9) 0.092(6) 0.021(6) 0.024(4) 0.021(5)
C13 0.095(5) 0.179(9) 0.081(5) 0.025(5) 0.009(4) 0.014(5)
C14 0.090(5) 0.146(7) 0.074(4) 0.007(4) 0.023(4) 0.013(4)
C15 0.089(5) 0.147(7) 0.100(6) 0.020(5) 0.024(4) 0.021(5)
C16 0.099(6) 0.162(8) 0.088(5) 0.027(5) 0.017(4) 0.021(5)
C17 0.100(6) 0.137(7) 0.076(5) 0.002(5) 0.016(4) 0.005(5)
C18 0.2 0.129 0.085 -0.003 0.028 -0.011
C19 0.204 0.151 0.124 -0.014 0.017 -0.043
C20 0.278 0.156 0.126 -0.015 0.009 -0.064
C21 0.48 0.124 0.099 -0.014 0.006 -0.059
C22 0.52 0.178 0.106 -0.047 -0.036 0.11
C23 0.33 0.148 0.12 -0.025 -0.011 0.057
C24 0.44 0.19 0.116 -0.008 0.064 0.06
Cd1B 0.1069 0.1207 0.0743 0 0.0249 0
Cd1F 0.1069 0.1207 0.0743 0 0.0249 0
Cd1D 0.1069 0.1207 0.0743 0 0.0249 0
O1D 0.101 0.158 0.083 0.019 0.009 -0.01
O1A 0.101 0.158 0.083 -0.019 0.009 0.01
O2D 0.102 0.206 0.125 0.051 0.044 0.026
O2A 0.102 0.206 0.125 -0.051 0.044 -0.026
O3D 0.67(5) 0.211(16) 0.176(13) -0.030(11) -0.02(2) -0.20(2)
O3B 0.67 0.211 0.176 -0.03 -0.02 -0.2
O3C 0.67 0.211 0.176 0.03 -0.02 0.2
O4D 0.81(5) 0.149(9) 0.115(8) -0.027(7) -0.047(15) 0.047(18)
O4B 0.81 0.149 0.115 -0.027 -0.047 0.047
O4C 0.81 0.149 0.115 0.027 -0.047 -0.047
N1D 0.097 0.12 0.075 0.005 0.021 0.016
N2D 0.107 0.125 0.07 0.002 0.021 0.005
C1D 0.115 0.116 0.074 -0.017 0.015 0.011
C2D 0.127 0.164 0.094 -0.026 0.026 0.007
C3D 0.112 0.177 0.084 -0.017 0.031 0.014
C4D 0.098 0.152 0.074 0.004 0.027 0.016
C5D 0.085 0.149 0.078 0.01 0.017 0.007
C6D 0.101 0.136 0.082 0.004 0.022 -0.01
C7D 0.161 0.197 0.098 -0.002 0.046 -0.049
C8D 0.174 0.164 0.104 -0.01 0.034 -0.045
C9D 0.132 0.121 0.089 0.003 0.03 -0.017
C10D 0.128(7) 0.121(6) 0.082(5) -0.007(5) 0.016(5) 0.000(5)
C11D 0.09 0.156 0.077 0.013 0.02 0.01
C12D 0.09 0.185 0.092 0.021 0.024 0.021
C13D 0.095 0.179 0.081 0.025 0.009 0.014
C14D 0.09 0.146 0.074 0.007 0.023 0.013
C15D 0.089 0.147 0.1 0.02 0.024 0.021
C16D 0.099 0.162 0.088 0.027 0.017 0.021
C17D 0.1 0.137 0.076 0.002 0.016 0.005
C18D 0.200(11) 0.129(8) 0.085(6) -0.003(5) 0.028(7) -0.011(8)
C19D 0.204(13) 0.151(10) 0.124(8) -0.014(8) 0.017(8) -0.043(9)
C20D 0.278(19) 0.156(11) 0.126(10) -0.015(9) 0.009(11) -0.064(12)
C21D 0.48(4) 0.124(10) 0.099(9) -0.014(8) 0.006(14) -0.059(16)
C22D 0.52(4) 0.178(15) 0.106(10) -0.047(10) -0.036(16) 0.11(2)
C23D 0.33(2) 0.148(11) 0.120(9) -0.025(8) -0.011(11) 0.057(13)
C24D 0.44(4) 0.19(2) 0.116(13) -0.008(12) 0.064(19) 0.06(3)
loop_
_geom_bond_atom_site_label_1
_geom_bond_atom_site_label_2
_geom_bond_site_symmetry_1
_geom_bond_site_symmetry_2
Cd1 O1 1_555 1_555
Pd1 N1 1_555 1_555
O1 C17 1_555 1_555
O2 Cd1 1_555 1_555
O3 C24 1_555 1_555
O4 C24 1_555 1_555
N1 C1 1_555 1_555
N2 Pd1 1_555 1_555
C1 C2 1_555 1_555
C2 H1 1_555 1_555
C3 C2 1_555 1_555
H2 C3 1_555 1_555
C4 N1 1_555 1_555
C5 C4 1_555 1_555
C6 N2 1_555 1_555
C7 C6 1_555 1_555
H3 C7 1_555 1_555
C8 C7 1_555 1_555
H4 C8 1_555 1_555
C9 N2 1_555 1_555
C10 C1 1_555 1_555
C11 C5 1_555 1_555
C12 C11 1_555 1_555
H5 C12 1_555 1_555
C13 C12 1_555 1_555
H6 C13 1_555 1_555
C14 C13 1_555 1_555
C15 C14 1_555 1_555
H7 C15 1_555 1_555
C16 C11 1_555 1_555
H8 C16 1_555 1_555
C17 O2 1_555 1_555
C18 C10 1_555 1_555
C19 C18 1_555 1_555
H9 C19 1_555 1_555
C20 C19 1_555 1_555
H10 C20 1_555 1_555
C21 C20 1_555 1_555
C22 C21 1_555 1_555
H11 C22 1_555 1_555
C23 C18 1_555 1_555
H12 C23 1_555 1_555
C24 C21 1_555 1_555
Cd1B O3 1_555 1_555
Cd1F O3D 1_555 1_555
Cd1D O1D 1_555 1_555
O1D C17D 1_555 1_555
O1A Cd1 1_555 1_555
O2D Cd1D 1_555 1_555
O2A Cd1 1_555 1_555
O3D C24D 1_555 1_555
O3B Cd1 1_555 1_555
O3C Cd1 1_555 1_555
O4D Cd1F 1_555 1_555
O4B Cd1 1_555 1_555
O4C Cd1 1_555 1_555
N1D Pd1 1_555 1_555
N2D Pd1 1_555 1_555
C1D N1D 1_555 1_555
C2D C1D 1_555 1_555
H1D C2D 1_555 1_555
C3D C2D 1_555 1_555
H2D C3D 1_555 1_555
C4D N1D 1_555 1_555
C5D C4D 1_555 1_555
C6D N2D 1_555 1_555
C7D C6D 1_555 1_555
H3D C7D 1_555 1_555
C8D C7D 1_555 1_555
H4D C8D 1_555 1_555
C9D C10 1_555 1_555
C10D C9 1_555 1_555
C11D C5D 1_555 1_555
C12D C11D 1_555 1_555
H5D C12D 1_555 1_555
C13D C12D 1_555 1_555
H6D C13D 1_555 1_555
C14D C13D 1_555 1_555
C15D C14D 1_555 1_555
H7D C15D 1_555 1_555
C16D C11D 1_555 1_555
H8D C16D 1_555 1_555
C17D O2D 1_555 1_555
C18D C10D 1_555 1_555
C19D C18D 1_555 1_555
H9D C19D 1_555 1_555
C20D C19D 1_555 1_555
H10D C20D 1_555 1_555
C21D C20D 1_555 1_555
C22D C21D 1_555 1_555
H11D C22D 1_555 1_555
C23D C18D 1_555 1_555
H12D C23D 1_555 1_555
C24D O4D 1_555 1_555
O4 Cd1B 1_555 1_555
C3 C4 1_555 1_555
C5 C6 1_555 1_555
C8 C9 1_555 1_555
C14 C17 1_555 1_555
C15 C16 1_555 1_555
C22 C23 1_555 1_555
N2D C9D 1_555 1_555
C1D C10D 1_555 1_555
C3D C4D 1_555 1_555
C5D C6D 1_555 1_555
C8D C9D 1_555 1_555
C14D C17D 1_555 1_555
C15D C16D 1_555 1_555
C21D C24D 1_555 1_555
C22D C23D 1_555 1_555

#END
