
#######################################################################
#
#                 Cambridge Crystallographic Data Centre
#                                CCDC 
#
#######################################################################
#
# If this CIF has been generated from an entry in the Cambridge 
# Structural Database, then it will include bibliographic, chemical, 
# crystal, experimental, refinement or atomic coordinate data resulting 
# from the CCDC's data processing and validation procedures.
#
#######################################################################

data_BAZDAJ
_chemical_formula_moiety         '(C27 H25 Cl2 Cr1 Fe1 Mn1 N5 O16)n'
_symmetry_cell_setting           orthorhombic
_symmetry_space_group_name_H-M   'P 21 21 21'
_symmetry_Int_Tables_number      19
_space_group_name_Hall           'P 2ac 2ab'
loop_
_symmetry_equiv_pos_site_id
_symmetry_equiv_pos_as_xyz
1 x,y,z
2 1/2-x,-y,1/2+z
3 1/2+x,1/2-y,-z
4 -x,1/2+y,1/2-z
_cell_length_a                   13.3082(3)
_cell_length_b                   15.6219(4)
_cell_length_c                   16.4727(5)
_cell_angle_alpha                90
_cell_angle_beta                 90
_cell_angle_gamma                90
_cell_volume                     3424.66
loop_
_atom_site_label
_atom_site_type_symbol
_atom_site_fract_x
_atom_site_fract_y
_atom_site_fract_z
_atom_site_U_iso_or_equiv
_atom_site_thermal_displace_type
C1 C 0.0356(3) 0.8242(3) 0.3787(3) 0.0271 Uani
C2 C 0.0081(3) 0.8096(3) 0.2990(3) 0.0353 Uani
H1 H 0.0152 0.7539 0.2767 0.0430 Uiso
C3 C -0.0297(3) 0.8750(3) 0.2510(3) 0.0450 Uani
H2 H -0.0490 0.8634 0.1965 0.0540 Uiso
C4 C -0.0394(3) 0.9565(3) 0.2815(3) 0.0380 Uani
C5 C -0.0117(3) 0.9734(3) 0.3583(3) 0.0347 Uani
H3 H -0.0177 1.0302 0.3784 0.0420 Uiso
C6 C 0.0260(3) 0.9088(3) 0.4097(3) 0.0280 Uani
C7 C 0.0567(3) 0.9315(3) 0.4911(2) 0.0273 Uani
H4 H 0.0507 0.9899 0.5064 0.0330 Uiso
C8 C 0.1171(3) 0.9128(2) 0.6254(2) 0.0313 Uani
H5 H 0.0728 0.9615 0.6395 0.0380 Uiso
H6 H 0.1877 0.9328 0.6264 0.0380 Uiso
C9 C 0.1028(3) 0.8418(2) 0.6838(2) 0.0286 Uani
H7 H 0.0302 0.8310 0.6921 0.0340 Uiso
H8 H 0.1330 0.8569 0.7368 0.0340 Uiso
C10 C 0.2635(3) 0.7645(3) 0.6557(2) 0.0295 Uani
H9 H 0.2881 0.7066 0.6702 0.0350 Uiso
H10 H 0.2854 0.8048 0.6985 0.0350 Uiso
C11 C 0.3077(3) 0.7916(2) 0.5739(2) 0.0257 Uani
H11 H 0.3012 0.8542 0.5664 0.0310 Uiso
H12 H 0.3797 0.7760 0.5707 0.0310 Uiso
C12 C 0.2813(3) 0.6535(2) 0.5018(3) 0.0343 Uani
H13 H 0.2994 0.6292 0.5553 0.0410 Uiso
H14 H 0.3406 0.6497 0.4656 0.0410 Uiso
C13 C 0.1934(3) 0.6050(2) 0.4654(3) 0.0313 Uani
H15 H 0.1827 0.6220 0.4082 0.0380 Uiso
H16 H 0.2056 0.5425 0.4675 0.0380 Uiso
C14 C 0.0390(3) 0.5726(2) 0.5329(3) 0.0333 Uani
H17 H 0.0488 0.5160 0.5135 0.0400 Uiso
C15 C -0.0488(3) 0.5883(3) 0.5790(3) 0.0403 Uani
C16 C -0.1106(4) 0.5187(3) 0.6037(4) 0.0640 Uani
H18 H -0.0944 0.4617 0.5883 0.0770 Uiso
C17 C -0.1962(3) 0.5357(4) 0.6512(4) 0.0627 Uani
C18 C -0.2186(4) 0.6147(4) 0.6748(3) 0.0580 Uani
H19 H -0.2759 0.6238 0.7082 0.0700 Uiso
C19 C -0.1619(3) 0.6821(3) 0.6525(3) 0.0463 Uani
H20 H -0.1800 0.7378 0.6704 0.0560 Uiso
C20 C -0.0770(3) 0.6720(3) 0.6037(3) 0.0317 Uani
N1 N 0.0914(2) 0.87913(19) 0.54467(19) 0.0243 Uani
N2 N 0.1520(2) 0.7639(2) 0.6506(2) 0.0282 Uani
H21 H 0.1288 0.7171 0.6801 0.0340 Uiso
N3 N 0.2486(2) 0.7447(2) 0.51077(19) 0.0251 Uani
H22 H 0.2600 0.7718 0.4614 0.0300 Uiso
N4 N 0.1061(2) 0.6279(2) 0.5152(2) 0.0278 Uani
O1 O 0.0690(2) 0.75946(17) 0.42138(17) 0.0313 Uani
O2 O -0.03017(18) 0.74185(18) 0.57879(19) 0.0349 Uani
Cl1 Cl -0.08505(11) 1.03757(9) 0.21919(9) 0.0641 Uani
Cl2 Cl -0.27197(10) 0.44740(12) 0.67456(17) 0.1365 Uani
Fe1 Fe 0.09951(4) 0.75243(3) 0.53407(3) 0.0216 Uani
C21 C 0.0137(3) 0.7681(2) 0.8555(2) 0.0209 Uani
C22 C -0.0679(3) 0.6976(2) 0.8492(2) 0.0226 Uani
C23 C -0.2341(3) 0.8711(2) 1.0277(3) 0.0231 Uani
C24 C -0.3325(3) 0.8696(2) 0.9776(2) 0.0237 Uani
C25 C -0.1451(3) 0.9591(2) 0.7082(2) 0.0214 Uani
C26 C -0.1584(3) 1.0264(2) 0.7766(2) 0.0232 Uani
O3 O 0.10314(18) 0.74132(14) 0.85631(15) 0.0238 Uani
O4 O -0.03442(18) 0.62226(14) 0.84465(17) 0.0241 Uani
O5 O -0.01233(18) 0.84468(14) 0.85804(18) 0.0243 Uani
O6 O -0.15705(18) 0.72124(15) 0.84788(18) 0.0272 Uani
O7 O -0.15333(19) 0.86882(17) 0.98980(17) 0.0293 Uani
O8 O -0.24506(18) 0.87937(16) 1.10298(15) 0.0236 Uani
O9 O -0.3272(2) 0.85912(16) 0.90303(16) 0.0284 Uani
O10 O -0.41215(18) 0.87954(15) 1.01791(15) 0.0235 Uani
O11 O -0.1604(2) 0.88296(16) 0.72581(16) 0.0276 Uani
O12 O -0.11907(18) 0.98830(14) 0.63977(16) 0.0212 Uani
O13 O -0.1783(2) 1.00137(14) 0.84530(16) 0.0256 Uani
O14 O -0.14515(19) 1.10360(15) 0.75371(15) 0.0238 Uani
Cr1 Cr 0.11215(4) 0.61551(3) 0.86353(4) 0.0200 Uani
Mn1 Mn -0.17530(5) 0.86006(3) 0.85701(4) 0.0264 Uani
O8B O 0.25494(18) 0.62063(16) 0.89702(15) 0.0236 Uani
O10B O 0.08785(18) 0.62046(15) 0.98209(15) 0.0235 Uani
O12C O 0.11907(18) 0.48830(14) 0.86023(16) 0.0212 Uani
O14C O 0.14515(19) 0.60360(15) 0.74629(15) 0.0238 Uani
Cr1B Cr -0.38785(4) 0.88449(3) 1.13647(4) 0.0200 Uani
Cr1C Cr -0.11215(4) 1.11551(3) 0.63647(4) 0.0200 Uani
N5 N 0.3192(9) 0.0727(10) 0.5583(7) 0.1187 Uani
O15 O 0.2420(7) 0.0544(6) 0.5290(5) 0.0813 Uani
O16 O 0.3601(13) 0.0130(9) 0.5996(9) 0.1683 Uani
C27 C 0.3637(10) 0.1453(7) 0.5548(8) 0.0690 Uani
H23 H 0.4272 0.1422 0.5848 0.1040 Uiso
H24 H 0.3207 0.1893 0.5790 0.1040 Uiso
H25 H 0.3772 0.1598 0.4980 0.1040 Uiso
loop_
_atom_site_aniso_label
_atom_site_aniso_U_11
_atom_site_aniso_U_22
_atom_site_aniso_U_33
_atom_site_aniso_U_23
_atom_site_aniso_U_13
_atom_site_aniso_U_12
C1 0.0183(18) 0.035(2) 0.028(2) -0.0031(18) -0.0047(16) -0.0010(16)
C2 0.029(2) 0.046(3) 0.031(3) 0.003(2) -0.009(2) -0.003(2)
C3 0.032(2) 0.075(4) 0.028(3) 0.013(3) -0.006(2) -0.002(2)
C4 0.033(2) 0.053(3) 0.028(3) 0.010(2) -0.007(2) 0.006(2)
C5 0.030(2) 0.037(2) 0.037(3) 0.006(2) 0.001(2) 0.0096(17)
C6 0.0149(18) 0.040(2) 0.029(2) 0.0061(18) -0.0003(16) 0.0012(16)
C7 0.0188(18) 0.031(2) 0.032(2) -0.0055(18) 0.0025(17) -0.0006(16)
C8 0.027(2) 0.031(2) 0.036(2) -0.0112(18) 0.0007(19) 0.0052(17)
C9 0.0237(19) 0.037(2) 0.025(2) -0.0028(17) -0.0012(19) 0.0038(18)
C10 0.0206(18) 0.038(2) 0.030(2) 0.0096(19) -0.0041(17) 0.0028(16)
C11 0.024(2) 0.0272(19) 0.026(2) -0.0008(17) 0.0016(18) 0.0008(16)
C12 0.025(2) 0.028(2) 0.050(3) -0.012(2) 0.008(2) 0.0058(17)
C13 0.036(2) 0.0248(19) 0.033(2) -0.0062(19) 0.002(2) 0.0053(17)
C14 0.027(2) 0.0248(19) 0.048(3) 0.006(2) -0.012(2) 0.0009(17)
C15 0.021(2) 0.050(3) 0.050(3) 0.022(2) -0.012(2) -0.0015(19)
C16 0.030(3) 0.049(3) 0.113(5) 0.042(3) -0.016(3) 0.004(2)
C17 0.025(2) 0.069(4) 0.094(5) 0.052(4) -0.010(3) -0.012(2)
C18 0.028(2) 0.087(4) 0.059(4) 0.035(3) 0.000(2) 0.006(3)
C19 0.024(2) 0.079(3) 0.036(3) 0.005(3) 0.000(2) -0.002(2)
C20 0.023(2) 0.050(3) 0.022(2) 0.0041(19) -0.0048(17) 0.0016(19)
N1 0.0187(15) 0.0267(16) 0.0274(18) 0.0019(14) -0.0002(14) 0.0049(13)
N2 0.0227(15) 0.0319(17) 0.0301(18) 0.0095(16) 0.0045(14) 0.0050(13)
N3 0.0232(15) 0.0233(15) 0.0289(19) -0.0016(15) 0.0023(13) 0.0030(14)
N4 0.0239(16) 0.0275(16) 0.0321(19) -0.0004(14) -0.0068(16) 0.0072(15)
O1 0.0323(14) 0.0341(15) 0.0274(15) 0.0026(14) -0.0086(13) -0.0002(13)
O2 0.0222(13) 0.0394(16) 0.0432(18) -0.0142(16) 0.0025(13) -0.0042(13)
Cl1 0.0680(9) 0.0741(9) 0.0503(8) 0.0217(7) -0.0149(7) 0.0220(7)
Cl2 0.0299(7) 0.1016(13) 0.278(3) 0.1331(18) 0.0009(12) -0.0018(8)
Fe1 0.0193(2) 0.0201(2) 0.0253(3) -0.0001(2) -0.0012(2) 0.0017(2)
C21 0.0269(19) 0.0168(17) 0.0190(19) -0.0007(15) 0.0066(17) -0.0040(14)
C22 0.0267(19) 0.0202(18) 0.021(2) 0.0004(16) -0.0028(17) -0.0033(14)
C23 0.0235(18) 0.0177(17) 0.028(2) 0.0017(17) 0.0027(17) 0.0008(15)
C24 0.0272(19) 0.0160(17) 0.028(2) -0.0021(16) 0.0001(17) -0.0008(15)
C25 0.0148(17) 0.0214(19) 0.028(2) -0.0062(16) -0.0004(16) 0.0018(14)
C26 0.022(2) 0.0237(19) 0.024(2) -0.0026(16) -0.0066(17) 0.0028(15)
O3 0.0253(12) 0.0184(11) 0.0277(13) -0.0006(12) 0.0039(13) -0.0036(11)
O4 0.0250(13) 0.0146(11) 0.0327(17) 0.0043(11) -0.0038(12) -0.0001(10)
O5 0.0268(14) 0.0153(12) 0.0307(16) 0.0014(12) 0.0075(13) -0.0027(10)
O6 0.0217(13) 0.0241(13) 0.0358(17) -0.0009(12) -0.0026(13) -0.0013(10)
O7 0.0236(13) 0.0312(15) 0.0331(16) 0.0036(12) 0.0041(12) 0.0074(12)
O8 0.0221 0.0296 0.0191 0.0048 0.0022 -0.0014
O9 0.0334(15) 0.0295(14) 0.0223(15) -0.0054(12) -0.0015(13) -0.0004(13)
O10 0.0205 0.0258 0.0242 -0.0016 -0.001 0.0007
O11 0.0302(15) 0.0219(13) 0.0307(15) -0.0036(12) 0.0007(13) 0.0017(12)
O12 0.0262 0.0207 0.0167 -0.0013 0 -0.0005
O13 0.0349(15) 0.0208(12) 0.0210(15) -0.0029(11) 0.0055(13) 0.0050(11)
O14 0.0305 0.0193 0.0216 -0.0035 -0.0042 -0.0017
Cr1 0.0219(3) 0.0179(3) 0.0203(3) 0.0006(2) -0.0030(3) 0.0004(2)
Mn1 0.0303(3) 0.0236(3) 0.0252(3) 0.0030(3) 0.0082(3) 0.0052(2)
O8B 0.0221 0.0296 0.0191 0.0048 -0.0022 0.0014
O10B 0.0205 0.0258 0.0242 -0.0016 0.001 -0.0007
O12C 0.0262 0.0207 0.0167 0.0013 0 0.0005
O14C 0.0305 0.0193 0.0216 0.0035 -0.0042 0.0017
Cr1B 0.0219 0.0179 0.0203 0.0006 0.003 -0.0004
Cr1C 0.0219 0.0179 0.0203 -0.0006 -0.003 -0.0004
N5 0.111(11) 0.170(14) 0.075(9) -0.080(10) 0.058(8) -0.095(11)
O15 0.094(7) 0.096(6) 0.054(5) 0.004(5) -0.003(5) -0.054(6)
O16 0.212(17) 0.146(11) 0.147(13) 0.095(10) -0.004(11) -0.025(10)
C27 0.089(9) 0.047(6) 0.071(9) -0.017(6) 0.032(7) -0.011(6)
loop_
_geom_bond_atom_site_label_1
_geom_bond_atom_site_label_2
_geom_bond_site_symmetry_1
_geom_bond_site_symmetry_2
C1 C2 1_555 1_555
C2 H1 1_555 1_555
C3 C2 1_555 1_555
H2 C3 1_555 1_555
C4 C3 1_555 1_555
C5 C4 1_555 1_555
H3 C5 1_555 1_555
C6 C1 1_555 1_555
C7 C6 1_555 1_555
H4 C7 1_555 1_555
C8 H5 1_555 1_555
H6 C8 1_555 1_555
C9 C8 1_555 1_555
H7 C9 1_555 1_555
H8 C9 1_555 1_555
C10 H9 1_555 1_555
H10 C10 1_555 1_555
C11 C10 1_555 1_555
H11 C11 1_555 1_555
H12 C11 1_555 1_555
C12 H13 1_555 1_555
H14 C12 1_555 1_555
C13 C12 1_555 1_555
H15 C13 1_555 1_555
H16 C13 1_555 1_555
C14 H17 1_555 1_555
C15 C14 1_555 1_555
C16 C15 1_555 1_555
H18 C16 1_555 1_555
C17 C16 1_555 1_555
C18 C17 1_555 1_555
H19 C18 1_555 1_555
C19 C18 1_555 1_555
H20 C19 1_555 1_555
C20 C15 1_555 1_555
C21 C22 1_555 1_555
C22 O4 1_555 1_555
C23 C24 1_555 1_555
C24 O9 1_555 1_555
C25 C26 1_555 1_555
C26 O13 1_555 1_555
N1 C7 1_555 1_555
N2 C9 1_555 1_555
H21 N2 1_555 1_555
N3 C11 1_555 1_555
H22 N3 1_555 1_555
N4 C13 1_555 1_555
O1 C1 1_555 1_555
O2 C20 1_555 1_555
O3 C21 1_555 1_555
O4 Cr1 1_555 1_555
O5 C21 1_555 1_555
O6 C22 1_555 1_555
O7 C23 1_555 1_555
O8 C23 1_555 1_555
O9 Mn1 1_555 1_555
O10 C24 1_555 1_555
O11 C25 1_555 1_555
O12 C25 1_555 1_555
O13 Mn1 1_555 1_555
O14 C26 1_555 1_555
Cl1 C4 1_555 1_555
Cl2 C17 1_555 1_555
Cr1 O3 1_555 1_555
Mn1 O5 1_555 1_555
Fe1 N1 1_555 1_555
N5 O15 1_555 1_555
O16 N5 1_555 1_555
C27 N5 1_555 1_555
H23 C27 1_555 1_555
H24 C27 1_555 1_555
H25 C27 1_555 1_555
O8B Cr1 1_555 1_555
O10B Cr1 1_555 1_555
O12C Cr1 1_555 1_555
O14C Cr1 1_555 1_555
Cr1B O8 1_555 1_555
Cr1C O12 1_555 1_555
C5 C6 1_555 1_555
C8 N1 1_555 1_555
C10 N2 1_555 1_555
C12 N3 1_555 1_555
C14 N4 1_555 1_555
C19 C20 1_555 1_555
N2 Fe1 1_555 1_555
N3 Fe1 1_555 1_555
N4 Fe1 1_555 1_555
O1 Fe1 1_555 1_555
O2 Fe1 1_555 1_555
O6 Mn1 1_555 1_555
O7 Mn1 1_555 1_555
O10 Cr1B 1_555 1_555
O11 Mn1 1_555 1_555
O14 Cr1C 1_555 1_555

#END
