
#######################################################################
#
#                 Cambridge Crystallographic Data Centre
#                                CCDC 
#
#######################################################################
#
# If this CIF has been generated from an entry in the Cambridge 
# Structural Database, then it will include bibliographic, chemical, 
# crystal, experimental, refinement or atomic coordinate data resulting 
# from the CCDC's data processing and validation procedures.
#
#######################################################################

data_CAYDOX03
_chemical_formula_moiety         '(C6 H8 Cu1 N8 O1)n'
_symmetry_cell_setting           tetragonal
_symmetry_space_group_name_H-M   'P 41'
_symmetry_Int_Tables_number      76
_space_group_name_Hall           'P 4w'
loop_
_symmetry_equiv_pos_site_id
_symmetry_equiv_pos_as_xyz
1 x,y,z
2 -y,x,1/4+z
3 -x,-y,1/2+z
4 y,-x,3/4+z
_cell_length_a                   12.3965(3)
_cell_length_b                   12.3965(3)
_cell_length_c                   7.9197(3)
_cell_angle_alpha                90
_cell_angle_beta                 90
_cell_angle_gamma                90
_cell_volume                     1217.05
loop_
_atom_site_label
_atom_site_type_symbol
_atom_site_fract_x
_atom_site_fract_y
_atom_site_fract_z
_atom_site_U_iso_or_equiv
_atom_site_thermal_displace_type
Cu1 Cu 0.82292(6) 0.51412(6) 0.17336(10) 0.0255 Uani
C1 C 0.6452(6) 0.6644(6) 0.2525(8) 0.0260 Uani
C2 C 0.6182(7) 0.6764(7) 0.0695(9) 0.0373 Uani
H1 H 0.5559 0.7233 0.0591 0.0450 Uiso
H2 H 0.5983 0.6063 0.0249 0.0450 Uiso
C3 C 0.7078(7) 0.7215(7) -0.0359(10) 0.0457 Uani
H3 H 0.6839 0.7287 -0.1520 0.0550 Uiso
H4 H 0.7274 0.7926 0.0053 0.0550 Uiso
C4 C 0.8855(7) 0.6807(7) -0.1453(10) 0.0460 Uani
H5 H 0.8923 0.7586 -0.1485 0.0550 Uiso
H6 H 0.8669 0.6560 -0.2579 0.0550 Uiso
C5 C 0.9897(6) 0.6321(6) -0.0932(12) 0.0377 Uani
H7 H 1.0456 0.6567 -0.1697 0.0450 Uiso
H8 H 1.0077 0.6581 0.0189 0.0450 Uiso
C6 C 0.9898(5) 0.5127(5) -0.0910(11) 0.0260 Uani
N1 N 0.7248(5) 0.5992(5) 0.3082(7) 0.0293 Uani
N2 N 0.7240(5) 0.6060(6) 0.4803(7) 0.0363 Uani
N3 N 0.6461(6) 0.6730(5) 0.5241(7) 0.0393 Uani
N4 N 0.5964(5) 0.7109(5) 0.3824(7) 0.0297 Uani
N5 N 0.9233(4) 0.4544(5) 0.0048(7) 0.0287 Uani
N6 N 0.9457(5) 0.3514(5) -0.0265(8) 0.0313 Uani
N7 N 1.0239(6) 0.3467(5) -0.1339(8) 0.0357 Uani
N8 N 1.0512(5) 0.4489(5) -0.1766(7) 0.0297 Uani
O1 O 0.8004(4) 0.6508(4) -0.0284(6) 0.0383 Uani
Cu1A Cu 0.48588(6) 0.82292(6) 0.42336(10) 0.0255 Uani
Cu1B Cu 1.17708(6) 0.48588(6) -0.32664(10) 0.0255 Uani
N4C N 0.7109(5) 0.4036(5) 0.1324(7) 0.0297 Uani
N8B N 0.9488(5) 0.5511(5) 0.3234(7) 0.0297 Uani
loop_
_atom_site_aniso_label
_atom_site_aniso_U_11
_atom_site_aniso_U_22
_atom_site_aniso_U_33
_atom_site_aniso_U_23
_atom_site_aniso_U_13
_atom_site_aniso_U_12
Cu1 0.0218(4) 0.0280(5) 0.0267(4) -0.0043(4) 0.0000(4) 0.0005(4)
C1 0.021(4) 0.030(4) 0.027(4) 0.000(4) -0.003(3) 0.000(3)
C2 0.034(4) 0.048(5) 0.030(4) -0.002(4) -0.007(4) 0.017(4)
C3 0.052(5) 0.055(5) 0.030(5) 0.013(4) 0.005(4) 0.029(4)
C4 0.068(6) 0.030(4) 0.040(4) 0.011(4) 0.015(4) 0.005(4)
C5 0.039(4) 0.029(4) 0.045(5) -0.001(4) 0.018(4) 0.000(3)
C6 0.022(3) 0.030(3) 0.026(3) 0.003(3) 0.000(3) -0.001(3)
N1 0.029(3) 0.034(4) 0.025(3) -0.004(3) -0.001(3) 0.002(3)
N2 0.036(4) 0.047(4) 0.026(3) 0.002(3) -0.001(3) 0.014(3)
N3 0.051(5) 0.043(4) 0.024(3) -0.004(3) -0.002(3) 0.016(4)
N4 0.030(3) 0.030(3) 0.029(3) -0.001(3) 0.002(3) 0.012(3)
N5 0.024(3) 0.028(3) 0.034(3) -0.003(3) 0.000(3) -0.002(3)
N6 0.030(3) 0.028(3) 0.036(4) 0.000(3) 0.008(3) 0.003(3)
N7 0.034(4) 0.030(4) 0.043(4) -0.004(3) 0.006(3) 0.007(3)
N8 0.025(3) 0.029(3) 0.035(3) 0.005(3) 0.002(3) -0.001(3)
O1 0.044(3) 0.035(3) 0.036(3) 0.008(2) 0.007(2) 0.016(3)
Cu1A 0.028 0.0218 0.0267 0 0.0043 -0.0005
Cu1B 0.0218 0.028 0.0267 0.0043 0 0.0005
N4C 0.03 0.03 0.029 -0.002 -0.001 -0.012
N8B 0.025 0.029 0.035 -0.005 -0.002 -0.001
loop_
_geom_bond_atom_site_label_1
_geom_bond_atom_site_label_2
_geom_bond_site_symmetry_1
_geom_bond_site_symmetry_2
Cu1 N1 1_555 1_555
C1 C2 1_555 1_555
C2 H1 1_555 1_555
H2 C2 1_555 1_555
C3 C2 1_555 1_555
H3 C3 1_555 1_555
H4 C3 1_555 1_555
C4 H5 1_555 1_555
H6 C4 1_555 1_555
C5 C4 1_555 1_555
H7 C5 1_555 1_555
H8 C5 1_555 1_555
C6 C5 1_555 1_555
N1 C1 1_555 1_555
N2 N1 1_555 1_555
N3 N2 1_555 1_555
N4 C1 1_555 1_555
N5 Cu1 1_555 1_555
N6 N5 1_555 1_555
N7 N6 1_555 1_555
N8 C6 1_555 1_555
O1 Cu1 1_555 1_555
Cu1A N4 1_555 1_555
Cu1B N8 1_555 1_555
N4C Cu1 1_555 1_555
N8B Cu1 1_555 1_555
C3 O1 1_555 1_555
C4 O1 1_555 1_555
C6 N5 1_555 1_555
N3 N4 1_555 1_555
N7 N8 1_555 1_555

#END
