
#######################################################################
#
#                 Cambridge Crystallographic Data Centre
#                                CCDC 
#
#######################################################################
#
# If this CIF has been generated from an entry in the Cambridge 
# Structural Database, then it will include bibliographic, chemical, 
# crystal, experimental, refinement or atomic coordinate data resulting 
# from the CCDC's data processing and validation procedures.
#
#######################################################################

data_CAYDIR
_chemical_formula_moiety         '(C6 H10 Cu1 N8 O2)n'
_symmetry_cell_setting           tetragonal
_symmetry_space_group_name_H-M   'P 43'
_symmetry_Int_Tables_number      78
_space_group_name_Hall           'P 4cw'
loop_
_symmetry_equiv_pos_site_id
_symmetry_equiv_pos_as_xyz
1 x,y,z
2 -y,x,3/4+z
3 -x,-y,1/2+z
4 y,-x,1/4+z
_cell_length_a                   12.355(3)
_cell_length_b                   12.355(3)
_cell_length_c                   7.9025(16)
_cell_angle_alpha                90
_cell_angle_beta                 90
_cell_angle_gamma                90
_cell_volume                     1206.29
loop_
_atom_site_label
_atom_site_type_symbol
_atom_site_fract_x
_atom_site_fract_y
_atom_site_fract_z
_atom_site_U_iso_or_equiv
_atom_site_thermal_displace_type
Cu1 Cu 0.67682(3) 0.98475(3) 0.03352(7) 0.0150 Uani
C1 C 0.8542(3) 0.8350(3) -0.0459(5) 0.0158 Uani
C2 C 0.8820(3) 0.8229(4) 0.1372(5) 0.0207 Uani
H1 H 0.9019 0.8933 0.1819 0.0250 Uiso
H2 H 0.9446 0.7760 0.1472 0.0250 Uiso
C3 C 0.7917(3) 0.7771(3) 0.2432(5) 0.0227 Uani
H3 H 0.7719 0.7060 0.2016 0.0270 Uiso
H4 H 0.8154 0.7698 0.3596 0.0270 Uiso
C4 C 0.6155(3) 0.8175(3) 0.3530(5) 0.0237 Uani
H5 H 0.6347 0.8416 0.4659 0.0280 Uiso
H6 H 0.6088 0.7392 0.3550 0.0280 Uiso
C5 C 0.5093(3) 0.8672(3) 0.3013(6) 0.0218 Uani
H7 H 0.4905 0.8412 0.1893 0.0260 Uiso
H8 H 0.4535 0.8430 0.3789 0.0260 Uiso
C6 C 0.5107(3) 0.9877(3) 0.2991(6) 0.0157 Uani
N1 N 0.7746(3) 0.8993(3) -0.1037(4) 0.0182 Uani
N2 N 0.7750(3) 0.8919(3) -0.2751(4) 0.0210 Uani
N3 N 0.8540(3) 0.8274(3) -0.3202(4) 0.0227 Uani
N4 N 0.9048(3) 0.7896(3) -0.1775(4) 0.0184 Uani
N5 N 0.5778(2) 1.0457(2) 0.2026(4) 0.0168 Uani
N6 N 0.5560(3) 1.1509(3) 0.2334(4) 0.0190 Uani
N7 N 0.4776(3) 1.1568(3) 0.3422(5) 0.0201 Uani
N8 N 0.4482(3) 1.0535(3) 0.3860(4) 0.0182 Uani
O1 O 0.6990(2) 0.8487(2) 0.2350(3) 0.0202 Uani
Cu1A Cu 1.01525(3) 0.67682(3) -0.21648(7) 0.0150 Uani
Cu1B Cu 0.32318(3) 1.01525(3) 0.53352(7) 0.0150 Uani
N4C N 0.7896(3) 1.0952(3) 0.0725(4) 0.0184 Uani
N8B N 0.5518(3) 0.9465(3) -0.1140(4) 0.0182 Uani
O2 O 0.6143(6) 0.5257(6) 0.2343(12) 0.0540 Uani
loop_
_atom_site_aniso_label
_atom_site_aniso_U_11
_atom_site_aniso_U_22
_atom_site_aniso_U_33
_atom_site_aniso_U_23
_atom_site_aniso_U_13
_atom_site_aniso_U_12
Cu1 0.0136(2) 0.0163(2) 0.0152(2) -0.00178(19) -0.00001(18) 0.00059(18)
C1 0.0118(18) 0.0156(19) 0.020(2) -0.0010(16) -0.0004(15) -0.0001(15)
C2 0.020(2) 0.027(2) 0.015(2) -0.0039(16) -0.0028(15) 0.0050(17)
C3 0.026(2) 0.029(2) 0.013(2) 0.0038(15) 0.0009(15) 0.0110(18)
C4 0.031(2) 0.020(2) 0.020(2) 0.0047(16) 0.0054(17) 0.0010(17)
C5 0.026(2) 0.0144(18) 0.025(2) 0.0005(17) 0.0083(18) -0.0020(15)
C6 0.0134(16) 0.0159(17) 0.0177(19) -0.0008(16) -0.0006(15) -0.0006(13)
N1 0.0186(17) 0.0229(18) 0.0131(16) -0.0001(13) -0.0013(13) 0.0004(14)
N2 0.0238(18) 0.0243(18) 0.0149(16) 0.0002(13) -0.0008(13) 0.0071(14)
N3 0.027(2) 0.0218(19) 0.0194(19) 0.0009(14) -0.0008(15) 0.0083(16)
N4 0.0208(16) 0.0190(16) 0.0153(17) -0.0014(12) 0.0003(12) 0.0049(13)
N5 0.0159(16) 0.0156(16) 0.0188(17) -0.0002(13) 0.0014(13) 0.0006(13)
N6 0.0194(17) 0.0175(16) 0.0202(19) 0.0000(13) 0.0014(13) 0.0022(14)
N7 0.0197(17) 0.0167(17) 0.0239(19) 0.0001(13) 0.0046(14) -0.0003(14)
N8 0.0158(16) 0.0195(17) 0.0194(18) 0.0023(13) 0.0024(13) 0.0022(13)
O1 0.0213(14) 0.0204(14) 0.0189(16) 0.0050(11) 0.0037(10) 0.0056(11)
Cu1A 0.0163 0.0136 0.0152 -1e-05 0.00178 -0.00059
Cu1B 0.0136 0.0163 0.0152 0.00178 1e-05 0.00059
N4C 0.019 0.0208 0.0153 -0.0003 -0.0014 -0.0049
N8B 0.0158 0.0195 0.0194 -0.0023 -0.0024 0.0022
O2 0.039(4) 0.046(4) 0.077(6) -0.001(4) 0.024(4) 0.010(4)
loop_
_geom_bond_atom_site_label_1
_geom_bond_atom_site_label_2
_geom_bond_site_symmetry_1
_geom_bond_site_symmetry_2
Cu1 N1 1_555 1_555
C1 C2 1_555 1_555
C2 H1 1_555 1_555
H2 C2 1_555 1_555
C3 C2 1_555 1_555
H3 C3 1_555 1_555
H4 C3 1_555 1_555
C4 H5 1_555 1_555
H6 C4 1_555 1_555
C5 C4 1_555 1_555
H7 C5 1_555 1_555
H8 C5 1_555 1_555
C6 C5 1_555 1_555
N1 C1 1_555 1_555
N2 N1 1_555 1_555
N3 N2 1_555 1_555
N4 C1 1_555 1_555
N5 Cu1 1_555 1_555
N6 N5 1_555 1_555
N7 N6 1_555 1_555
N8 C6 1_555 1_555
O1 Cu1 1_555 1_555
Cu1A N4 1_555 1_555
Cu1B N8 1_555 1_555
N4C Cu1 1_555 1_555
N8B Cu1 1_555 1_555
C3 O1 1_555 1_555
C4 O1 1_555 1_555
C6 N5 1_555 1_555
N3 N4 1_555 1_555
N7 N8 1_555 1_555

#END
