
#######################################################################
#
#                 Cambridge Crystallographic Data Centre
#                                CCDC 
#
#######################################################################
#
# If this CIF has been generated from an entry in the Cambridge 
# Structural Database, then it will include bibliographic, chemical, 
# crystal, experimental, refinement or atomic coordinate data resulting 
# from the CCDC's data processing and validation procedures.
#
#######################################################################

data_CAYDOX05
_chemical_formula_moiety         '(C6 H8 Cu1 N8 O1)n'
_symmetry_cell_setting           tetragonal
_symmetry_space_group_name_H-M   'P 41'
_symmetry_Int_Tables_number      76
_space_group_name_Hall           'P 4w'
loop_
_symmetry_equiv_pos_site_id
_symmetry_equiv_pos_as_xyz
1 x,y,z
2 -y,x,1/4+z
3 -x,-y,1/2+z
4 y,-x,3/4+z
_cell_length_a                   12.3494(16)
_cell_length_b                   12.3494(16)
_cell_length_c                   7.9086(10)
_cell_angle_alpha                90
_cell_angle_beta                 90
_cell_angle_gamma                90
_cell_volume                     1206.12
loop_
_atom_site_label
_atom_site_type_symbol
_atom_site_fract_x
_atom_site_fract_y
_atom_site_fract_z
_atom_site_U_iso_or_equiv
_atom_site_thermal_displace_type
Cu1 Cu 0.51436(7) 0.82306(7) 0.50489(14) 0.0267 Uani
C1 C 0.6654(8) 0.6461(7) 0.4263(11) 0.0280 Uani
C2 C 0.6757(8) 0.6183(8) 0.6078(12) 0.0337 Uani
H1 H 0.7229 0.5559 0.6189 0.0410 Uiso
H2 H 0.6050 0.5981 0.6510 0.0410 Uiso
C3 C 0.7203(9) 0.7095(8) 0.7139(13) 0.0507 Uani
H3 H 0.7273 0.6858 0.8304 0.0610 Uiso
H4 H 0.7916 0.7295 0.6731 0.0610 Uiso
C4 C 0.6848(8) 0.8852(9) 0.8216(13) 0.0493 Uani
H5 H 0.7630 0.8920 0.8178 0.0590 Uiso
H6 H 0.6642 0.8659 0.9361 0.0590 Uiso
C5 C 0.6349(7) 0.9886(7) 0.7755(15) 0.0373 Uani
H7 H 0.6618 1.0095 0.6650 0.0450 Uiso
H8 H 0.6589 1.0430 0.8555 0.0450 Uiso
C6 C 0.5128(7) 0.9905(6) 0.7702(14) 0.0243 Uani
N1 N 0.5997(6) 0.7250(6) 0.3700(9) 0.0290 Uani
N2 N 0.6061(6) 0.7242(6) 0.1975(9) 0.0373 Uani
N3 N 0.6727(6) 0.6445(7) 0.1538(10) 0.0413 Uani
N4 N 0.7110(5) 0.5953(5) 0.2965(9) 0.0277 Uani
N5 N 0.4553(5) 0.9225(5) 0.6739(9) 0.0287 Uani
N6 N 0.3500(6) 0.9458(6) 0.7033(9) 0.0293 Uani
N7 N 0.3439(6) 1.0230(7) 0.8133(10) 0.0367 Uani
N8 N 0.4481(6) 1.0522(6) 0.8530(9) 0.0317 Uani
O1 O 0.6502(5) 0.8009(5) 0.7059(7) 0.0387 Uani
Cu1B Cu 0.48564(7) 1.17694(7) 1.00489(14) 0.0267 Uani
Cu1C Cu 0.82306(7) 0.48564(7) 0.25489(14) 0.0267 Uani
N4A N 0.4047(5) 0.7110(5) 0.5465(9) 0.0277 Uani
N8B N 0.5519(6) 0.9478(6) 0.3530(9) 0.0317 Uani
loop_
_atom_site_aniso_label
_atom_site_aniso_U_11
_atom_site_aniso_U_22
_atom_site_aniso_U_33
_atom_site_aniso_U_23
_atom_site_aniso_U_13
_atom_site_aniso_U_12
Cu1 0.0293(6) 0.0231(6) 0.0278(5) 0.0014(5) 0.0055(5) 0.0015(5)
C1 0.033(5) 0.014(4) 0.037(6) 0.000(4) -0.001(5) 0.001(4)
C2 0.038(6) 0.030(6) 0.033(6) 0.000(5) 0.002(5) 0.013(4)
C3 0.074(7) 0.049(6) 0.029(7) 0.002(5) -0.008(5) 0.034(6)
C4 0.036(6) 0.068(7) 0.044(7) -0.015(6) -0.012(5) 0.013(5)
C5 0.037(5) 0.036(5) 0.039(6) -0.013(5) 0.020(5) -0.007(4)
C6 0.036(5) 0.018(4) 0.019(4) 0.005(4) -0.009(5) -0.003(4)
N1 0.033(5) 0.034(4) 0.020(4) 0.005(3) 0.003(3) 0.007(4)
N2 0.037(5) 0.047(5) 0.028(5) 0.002(4) -0.001(4) 0.011(4)
N3 0.041(5) 0.055(6) 0.028(5) -0.009(4) 0.009(4) 0.013(4)
N4 0.026(4) 0.032(4) 0.025(4) -0.002(3) 0.003(3) 0.014(3)
N5 0.029(4) 0.031(4) 0.026(4) -0.001(3) 0.002(3) 0.005(3)
N6 0.029(4) 0.021(4) 0.038(6) -0.002(4) 0.000(4) -0.006(3)
N7 0.035(5) 0.035(5) 0.040(6) -0.010(4) -0.001(4) 0.002(4)
N8 0.037(5) 0.026(4) 0.032(5) 0.000(3) -0.004(4) 0.007(4)
O1 0.041(4) 0.044(4) 0.031(4) -0.008(3) -0.006(3) 0.019(3)
Cu1B 0.0293 0.0231 0.0278 -0.0014 -0.0055 0.0015
Cu1C 0.0231 0.0293 0.0278 -0.0055 0.0014 -0.0015
N4A 0.032 0.026 0.025 0.003 0.002 -0.014
N8B 0.037 0.026 0.032 0 0.004 0.007
loop_
_geom_bond_atom_site_label_1
_geom_bond_atom_site_label_2
_geom_bond_site_symmetry_1
_geom_bond_site_symmetry_2
Cu1 N1 1_555 1_555
C1 C2 1_555 1_555
C2 H1 1_555 1_555
H2 C2 1_555 1_555
C3 C2 1_555 1_555
H3 C3 1_555 1_555
H4 C3 1_555 1_555
C4 H5 1_555 1_555
H6 C4 1_555 1_555
C5 C4 1_555 1_555
H7 C5 1_555 1_555
H8 C5 1_555 1_555
C6 C5 1_555 1_555
N1 C1 1_555 1_555
N2 N1 1_555 1_555
N3 N2 1_555 1_555
N4 C1 1_555 1_555
N5 Cu1 1_555 1_555
N6 N5 1_555 1_555
N7 N6 1_555 1_555
N8 C6 1_555 1_555
O1 Cu1 1_555 1_555
Cu1B N8 1_555 1_555
Cu1C N4 1_555 1_555
N4A Cu1 1_555 1_555
N8B Cu1 1_555 1_555
C3 O1 1_555 1_555
C4 O1 1_555 1_555
C6 N5 1_555 1_555
N3 N4 1_555 1_555
N7 N8 1_555 1_555

#END
