
#######################################################################
#
#                 Cambridge Crystallographic Data Centre
#                                CCDC 
#
#######################################################################
#
# If this CIF has been generated from an entry in the Cambridge 
# Structural Database, then it will include bibliographic, chemical, 
# crystal, experimental, refinement or atomic coordinate data resulting 
# from the CCDC's data processing and validation procedures.
#
#######################################################################

data_CAYDUD
_chemical_formula_moiety         '(C6 H8 Cu1 I1 N8 O1)n'
_symmetry_cell_setting           tetragonal
_symmetry_space_group_name_H-M   'P 41'
_symmetry_Int_Tables_number      76
_space_group_name_Hall           'P 4w'
loop_
_symmetry_equiv_pos_site_id
_symmetry_equiv_pos_as_xyz
1 x,y,z
2 -y,x,1/4+z
3 -x,-y,1/2+z
4 y,-x,3/4+z
_cell_length_a                   12.3919(3)
_cell_length_b                   12.3919(3)
_cell_length_c                   7.9043(3)
_cell_angle_alpha                90
_cell_angle_beta                 90
_cell_angle_gamma                90
_cell_volume                     1213.78
loop_
_atom_site_label
_atom_site_type_symbol
_atom_site_fract_x
_atom_site_fract_y
_atom_site_fract_z
_atom_site_U_iso_or_equiv
_atom_site_thermal_displace_type
Cu1 Cu 0.51429(9) 0.82313(8) 0.80505(13) 0.0156 Uani
C1 C 0.6637(8) 0.6451(9) 0.7227(13) 0.0170 Uani
C2 C 0.6752(11) 0.6185(9) 0.9088(15) 0.0257 Uani
H1 H 0.7194 0.5543 0.9198 0.0310 Uiso
H2 H 0.6044 0.6017 0.9540 0.0310 Uiso
C3 C 0.7251(10) 0.7082(9) 1.0155(14) 0.0277 Uani
H3 H 0.7336 0.6848 1.1319 0.0330 Uiso
H4 H 0.7955 0.7280 0.9714 0.0330 Uiso
C4 C 0.6808(9) 0.8839(10) 1.1270(15) 0.0277 Uani
H5 H 0.7588 0.8891 1.1339 0.0330 Uiso
H6 H 0.6536 0.8652 1.2383 0.0330 Uiso
C5 C 0.6348(8) 0.9902(8) 1.0731(17) 0.0217 Uani
H7 H 0.6589 1.0458 1.1509 0.0260 Uiso
H8 H 0.6621 1.0081 0.9616 0.0260 Uiso
C6 C 0.5153(7) 0.9897(8) 1.0685(17) 0.0187 Uani
N1 N 0.6001(7) 0.7241(7) 0.6669(11) 0.0163 Uani
N2 N 0.6073(7) 0.7237(8) 0.4965(12) 0.0247 Uani
N3 N 0.6737(8) 0.6461(8) 0.4526(13) 0.0273 Uani
N4 N 0.7083(6) 0.5982(7) 0.5946(11) 0.0167 Uani
N5 N 0.4548(7) 0.9211(7) 0.9768(11) 0.0220 Uani
N6 N 0.3500(7) 0.9454(8) 1.0057(11) 0.0197 Uani
N7 N 0.3422(7) 1.0231(8) 1.1134(13) 0.0240 Uani
N8 N 0.4472(7) 1.0524(6) 1.1585(12) 0.0187 Uani
O1 O 0.6510(6) 0.8000(6) 1.0061(9) 0.0197 Uani
Cu1B Cu 0.48571(9) 1.17687(8) 1.30505(13) 0.0156 Uani
Cu1C Cu 0.82313(8) 0.48571(9) 0.55505(13) 0.0156 Uani
N4A N 0.4018(7) 0.7083(6) 0.8446(11) 0.0167 Uani
N8B N 0.5528(7) 0.9476(6) 0.6585(12) 0.0187 Uani
I1 I 0.1108(4) 0.0490(5) 0.2370(11) 0.1773 Uani
loop_
_atom_site_aniso_label
_atom_site_aniso_U_11
_atom_site_aniso_U_22
_atom_site_aniso_U_33
_atom_site_aniso_U_23
_atom_site_aniso_U_13
_atom_site_aniso_U_12
Cu1 0.0195(7) 0.0132(7) 0.0140(7) 0.0001(5) 0.0018(5) 0.0000(4)
C1 0.010(4) 0.024(5) 0.017(6) -0.001(5) 0.005(5) -0.006(4)
C2 0.045(7) 0.022(5) 0.010(5) 0.004(5) 0.005(5) 0.019(5)
C3 0.032(6) 0.035(6) 0.016(6) 0.000(5) 0.001(5) 0.011(5)
C4 0.022(5) 0.039(6) 0.022(6) -0.010(5) -0.002(5) 0.006(4)
C5 0.021(5) 0.020(5) 0.024(6) -0.006(5) 0.000(5) -0.006(4)
C6 0.015(5) 0.017(4) 0.024(5) -0.003(5) 0.005(5) 0.000(3)
N1 0.029(5) 0.014(4) 0.006(4) 0.003(3) -0.002(4) 0.003(3)
N2 0.023(5) 0.037(5) 0.014(4) -0.011(4) 0.003(4) -0.007(4)
N3 0.030(5) 0.026(5) 0.026(5) -0.001(4) -0.003(4) 0.012(4)
N4 0.014(4) 0.018(4) 0.018(5) -0.005(3) -0.007(3) 0.004(3)
N5 0.022(4) 0.019(4) 0.025(5) 0.000(4) 0.001(4) -0.001(3)
N6 0.015(4) 0.020(4) 0.024(5) -0.003(4) 0.004(4) -0.004(3)
N7 0.015(4) 0.025(5) 0.032(6) -0.004(4) -0.003(4) 0.001(3)
N8 0.025(4) 0.012(4) 0.019(5) -0.004(4) 0.000(4) 0.004(3)
O1 0.018(3) 0.022(3) 0.019(4) -0.006(3) -0.005(3) 0.011(3)
Cu1B 0.0195 0.0132 0.014 -0.0001 -0.0018 0
Cu1C 0.0132 0.0195 0.014 -0.0018 0.0001 0
N4A 0.018 0.014 0.018 -0.007 0.005 -0.004
N8B 0.025 0.012 0.019 0.004 0 0.004
I1 0.132(4) 0.125(4) 0.275(10) -0.028(4) -0.065(5) -0.005(3)
loop_
_geom_bond_atom_site_label_1
_geom_bond_atom_site_label_2
_geom_bond_site_symmetry_1
_geom_bond_site_symmetry_2
Cu1 N1 1_555 1_555
C1 C2 1_555 1_555
C2 H1 1_555 1_555
H2 C2 1_555 1_555
C3 C2 1_555 1_555
H3 C3 1_555 1_555
H4 C3 1_555 1_555
C4 H5 1_555 1_555
H6 C4 1_555 1_555
C5 C4 1_555 1_555
H7 C5 1_555 1_555
H8 C5 1_555 1_555
C6 C5 1_555 1_555
N1 C1 1_555 1_555
N2 N1 1_555 1_555
N3 N2 1_555 1_555
N4 C1 1_555 1_555
N5 Cu1 1_555 1_555
N6 N5 1_555 1_555
N7 N6 1_555 1_555
N8 C6 1_555 1_555
O1 Cu1 1_555 1_555
Cu1B N8 1_555 1_555
Cu1C N4 1_555 1_555
N4A Cu1 1_555 1_555
N8B Cu1 1_555 1_555
C3 O1 1_555 1_555
C4 O1 1_555 1_555
C6 N5 1_555 1_555
N3 N4 1_555 1_555
N7 N8 1_555 1_555

#END
