
#######################################################################
#
#                 Cambridge Crystallographic Data Centre
#                                CCDC 
#
#######################################################################
#
# If this CIF has been generated from an entry in the Cambridge 
# Structural Database, then it will include bibliographic, chemical, 
# crystal, experimental, refinement or atomic coordinate data resulting 
# from the CCDC's data processing and validation procedures.
#
#######################################################################

data_CAYDOX01
_chemical_formula_moiety         '(C6 H8 Cu1 N8 O1)n'
_symmetry_cell_setting           tetragonal
_symmetry_space_group_name_H-M   'P 41'
_symmetry_Int_Tables_number      76
_space_group_name_Hall           'P 4w'
loop_
_symmetry_equiv_pos_site_id
_symmetry_equiv_pos_as_xyz
1 x,y,z
2 -y,x,1/4+z
3 -x,-y,1/2+z
4 y,-x,3/4+z
_cell_length_a                   12.3879(3)
_cell_length_b                   12.3879(3)
_cell_length_c                   7.9323(3)
_cell_angle_alpha                90
_cell_angle_beta                 90
_cell_angle_gamma                90
_cell_volume                     1217.29
loop_
_atom_site_label
_atom_site_type_symbol
_atom_site_fract_x
_atom_site_fract_y
_atom_site_fract_z
_atom_site_U_iso_or_equiv
_atom_site_thermal_displace_type
Cu1 Cu 0.82291(6) 0.51410(6) 0.85868(10) 0.0250 Uani
C1 C 0.6454(6) 0.6646(6) 0.9379(8) 0.0292 Uani
C2 C 0.6184(6) 0.6761(6) 0.7550(9) 0.0369 Uani
H1 H 0.5557 0.7225 0.7443 0.0440 Uiso
H2 H 0.5989 0.6057 0.7109 0.0440 Uiso
C3 C 0.7081(6) 0.7217(6) 0.6490(10) 0.0447 Uani
H3 H 0.6842 0.7289 0.5332 0.0540 Uiso
H4 H 0.7278 0.7927 0.6903 0.0540 Uiso
C4 C 0.8843(6) 0.6807(7) 0.5390(10) 0.0433 Uani
H5 H 0.8904 0.7587 0.5347 0.0520 Uiso
H6 H 0.8654 0.6554 0.4271 0.0520 Uiso
C5 C 0.9897(6) 0.6335(5) 0.5899(11) 0.0364 Uani
H7 H 1.0085 0.6604 0.7009 0.0440 Uiso
H8 H 1.0448 0.6577 0.5118 0.0440 Uiso
C6 C 0.9895(5) 0.5131(5) 0.5940(10) 0.0268 Uani
N1 N 0.7242(5) 0.6003(4) 0.9934(7) 0.0284 Uani
N2 N 0.7249(5) 0.6060(5) 1.1648(7) 0.0353 Uani
N3 N 0.6463(5) 0.6722(5) 1.2095(7) 0.0373 Uani
N4 N 0.5967(4) 0.7107(4) 1.0678(7) 0.0283 Uani
N5 N 0.9234(4) 0.4547(4) 0.6904(7) 0.0271 Uani
N6 N 0.9454(5) 0.3510(5) 0.6591(7) 0.0315 Uani
N7 N 1.0240(5) 0.3466(5) 0.5518(8) 0.0347 Uani
N8 N 1.0524(4) 0.4485(4) 0.5081(7) 0.0271 Uani
O1 O 0.8003(4) 0.6508(4) 0.6567(6) 0.0360 Uani
Cu1A Cu 0.48590(6) 0.82291(6) 1.10868(10) 0.0250 Uani
Cu1B Cu 1.17709(6) 0.48590(6) 0.35868(10) 0.0250 Uani
N4C N 0.7107(4) 0.4033(4) 0.8178(7) 0.0283 Uani
N8B N 0.9476(4) 0.5515(4) 1.0081(7) 0.0271 Uani
loop_
_atom_site_aniso_label
_atom_site_aniso_U_11
_atom_site_aniso_U_22
_atom_site_aniso_U_33
_atom_site_aniso_U_23
_atom_site_aniso_U_13
_atom_site_aniso_U_12
Cu1 0.0209(4) 0.0274(5) 0.0267(4) -0.0046(4) -0.0004(3) 0.0007(3)
C1 0.0290(17) 0.0293(17) 0.0294(18) 0.0000(10) -0.0002(10) 0.0002(10)
C2 0.0369(19) 0.0375(19) 0.0364(19) -0.0003(10) -0.0003(10) 0.0015(10)
C3 0.045(2) 0.045(2) 0.044(2) 0.0008(10) 0.0002(10) 0.0018(10)
C4 0.044(2) 0.043(2) 0.043(2) 0.0009(10) 0.0009(10) 0.0004(10)
C5 0.0368(18) 0.0360(18) 0.0365(18) -0.0003(10) 0.0009(10) -0.0009(10)
C6 0.0266(15) 0.0271(15) 0.0268(15) 0.0001(10) -0.0004(10) -0.0007(9)
N1 0.0285(15) 0.0289(15) 0.0278(15) -0.0005(9) -0.0001(9) 0.0010(9)
N2 0.0356(16) 0.0361(17) 0.0343(16) 0.0002(10) -0.0004(10) 0.0017(10)
N3 0.0375(17) 0.0379(17) 0.0365(17) 0.0000(10) 0.0000(10) 0.0016(10)
N4 0.0286(15) 0.0281(15) 0.0282(15) -0.0002(9) 0.0003(9) 0.0019(9)
N5 0.0266(15) 0.0270(15) 0.0277(15) -0.0005(9) 0.0005(9) 0.0004(9)
N6 0.0313(16) 0.0310(16) 0.0322(16) -0.0005(9) 0.0011(10) 0.0002(9)
N7 0.0347(16) 0.0341(16) 0.0353(17) 0.0002(10) 0.0013(10) 0.0004(10)
N8 0.0265(15) 0.0270(15) 0.0277(15) 0.0008(9) 0.0010(9) -0.0001(9)
O1 0.040(3) 0.035(3) 0.033(3) 0.011(2) 0.009(2) 0.014(2)
Cu1A 0.0274 0.0209 0.0267 -0.0004 0.0046 -0.0007
Cu1B 0.0209 0.0274 0.0267 0.0046 0.0004 0.0007
N4C 0.0281 0.0286 0.0282 -0.0003 -0.0002 -0.0019
N8B 0.0265 0.027 0.0277 -0.0008 -0.001 -0.0001
loop_
_geom_bond_atom_site_label_1
_geom_bond_atom_site_label_2
_geom_bond_site_symmetry_1
_geom_bond_site_symmetry_2
Cu1 N1 1_555 1_555
C1 C2 1_555 1_555
C2 H1 1_555 1_555
H2 C2 1_555 1_555
C3 C2 1_555 1_555
H3 C3 1_555 1_555
H4 C3 1_555 1_555
C4 H5 1_555 1_555
H6 C4 1_555 1_555
C5 C4 1_555 1_555
H7 C5 1_555 1_555
H8 C5 1_555 1_555
C6 C5 1_555 1_555
N1 C1 1_555 1_555
N2 N1 1_555 1_555
N3 N2 1_555 1_555
N4 C1 1_555 1_555
N5 Cu1 1_555 1_555
N6 N5 1_555 1_555
N7 N6 1_555 1_555
N8 C6 1_555 1_555
O1 Cu1 1_555 1_555
Cu1A N4 1_555 1_555
Cu1B N8 1_555 1_555
N4C Cu1 1_555 1_555
N8B Cu1 1_555 1_555
C3 O1 1_555 1_555
C4 O1 1_555 1_555
C6 N5 1_555 1_555
N3 N4 1_555 1_555
N7 N8 1_555 1_555

#END
