
#######################################################################
#
#                 Cambridge Crystallographic Data Centre
#                                CCDC 
#
#######################################################################
#
# If this CIF has been generated from an entry in the Cambridge 
# Structural Database, then it will include bibliographic, chemical, 
# crystal, experimental, refinement or atomic coordinate data resulting 
# from the CCDC's data processing and validation procedures.
#
#######################################################################

data_CAYDEN
_chemical_formula_moiety         '(C6 H10 Cu1 N8 O2)n'
_symmetry_cell_setting           tetragonal
_symmetry_space_group_name_H-M   'P 41'
_symmetry_Int_Tables_number      76
_space_group_name_Hall           'P 4w'
loop_
_symmetry_equiv_pos_site_id
_symmetry_equiv_pos_as_xyz
1 x,y,z
2 -y,x,1/4+z
3 -x,-y,1/2+z
4 y,-x,3/4+z
_cell_length_a                   12.2996(3)
_cell_length_b                   12.2996(3)
_cell_length_c                   7.9073(3)
_cell_angle_alpha                90
_cell_angle_beta                 90
_cell_angle_gamma                90
_cell_volume                     1196.22
loop_
_atom_site_label
_atom_site_type_symbol
_atom_site_fract_x
_atom_site_fract_y
_atom_site_fract_z
_atom_site_U_iso_or_equiv
_atom_site_thermal_displace_type
Cu1 Cu 0.67645(5) 0.98460(5) 0.65243(8) 0.0124 Uani
C1 C 0.8545(5) 0.8344(5) 0.7333(7) 0.0147 Uani
C2 C 0.8832(5) 0.8236(5) 0.5503(7) 0.0167 Uani
H1 H 0.9459 0.7762 0.5398 0.0200 Uiso
H2 H 0.9035 0.8944 0.5067 0.0200 Uiso
C3 C 0.7908(5) 0.7780(5) 0.4434(7) 0.0233 Uani
H3 H 0.8146 0.7706 0.3270 0.0280 Uiso
H4 H 0.7707 0.7066 0.4848 0.0280 Uiso
C4 C 0.6162(5) 0.8159(5) 0.3346(8) 0.0217 Uani
H5 H 0.6097 0.7373 0.3353 0.0260 Uiso
H6 H 0.6359 0.8384 0.2211 0.0260 Uiso
C5 C 0.5086(5) 0.8666(5) 0.3833(9) 0.0180 Uani
H7 H 0.4533 0.8417 0.3050 0.0220 Uiso
H8 H 0.4886 0.8412 0.4952 0.0220 Uiso
C6 C 0.5095(4) 0.9886(5) 0.3838(8) 0.0113 Uani
N1 N 0.7746(4) 0.8989(4) 0.7894(6) 0.0140 Uani
N2 N 0.7741(4) 0.8913(4) 0.9613(6) 0.0157 Uani
N3 N 0.8530(4) 0.8271(4) 1.0061(6) 0.0200 Uani
N4 N 0.9047(4) 0.7886(4) 0.8636(5) 0.0147 Uani
N5 N 0.5782(4) 1.0468(4) 0.4840(6) 0.0160 Uani
N6 N 0.5565(4) 1.1523(4) 0.4543(6) 0.0157 Uani
N7 N 0.4784(4) 1.1573(4) 0.3429(6) 0.0183 Uani
N8 N 0.4490(4) 1.0547(4) 0.2987(6) 0.0133 Uani
O1 O 0.6991(3) 0.8487(3) 0.4509(5) 0.0170 Uani
Cu1A Cu 1.01540(5) 0.67645(5) 0.90243(8) 0.0124 Uani
Cu1B Cu 0.32355(5) 1.01540(5) 0.15243(8) 0.0124 Uani
N4C N 0.7886(4) 1.0953(4) 0.6136(5) 0.0147 Uani
N8B N 0.5510(4) 0.9453(4) 0.7987(6) 0.0133 Uani
O2 O 0.6142(6) 0.5235(6) 0.4485(10) 0.0193 Uani
loop_
_atom_site_aniso_label
_atom_site_aniso_U_11
_atom_site_aniso_U_22
_atom_site_aniso_U_33
_atom_site_aniso_U_23
_atom_site_aniso_U_13
_atom_site_aniso_U_12
Cu1 0.0109(4) 0.0137(4) 0.0125(3) 0.0019(3) -0.0004(3) 0.0000(3)
C1 0.007(3) 0.019(3) 0.018(3) -0.001(3) 0.001(3) -0.001(3)
C2 0.018(3) 0.020(3) 0.012(3) 0.000(3) -0.001(3) 0.003(3)
C3 0.027(3) 0.029(4) 0.014(3) -0.001(3) 0.003(3) 0.014(3)
C4 0.028(4) 0.018(3) 0.019(3) -0.001(3) -0.003(3) 0.001(3)
C5 0.024(3) 0.014(3) 0.016(3) 0.006(3) -0.009(3) 0.001(2)
C6 0.010(3) 0.017(3) 0.007(3) -0.003(3) 0.002(2) 0.000(2)
N1 0.012(3) 0.018(3) 0.012(2) 0.001(2) -0.002(2) 0.000(2)
N2 0.016(3) 0.021(3) 0.010(2) 0.000(2) 0.001(2) 0.006(2)
N3 0.018(3) 0.023(3) 0.019(3) 0.003(2) -0.002(2) 0.005(3)
N4 0.017(3) 0.018(3) 0.009(3) 0.001(2) 0.000(2) 0.004(2)
N5 0.014(3) 0.018(3) 0.016(3) 0.003(2) 0.002(2) 0.001(2)
N6 0.018(3) 0.012(3) 0.017(3) 0.003(2) -0.003(2) 0.002(2)
N7 0.016(3) 0.020(3) 0.019(3) 0.000(2) -0.002(2) 0.002(2)
N8 0.012(2) 0.015(3) 0.013(3) -0.003(2) -0.002(2) 0.002(2)
O1 0.018(2) 0.017(2) 0.016(2) -0.0051(17) -0.0062(17) 0.0064(18)
Cu1A 0.0137 0.0109 0.0125 -0.0004 -0.0019 0
Cu1B 0.0109 0.0137 0.0125 -0.0019 0.0004 0
N4C 0.018 0.017 0.009 0 0.001 -0.004
N8B 0.012 0.015 0.013 0.003 0.002 0.002
O2 0.011(4) 0.021(4) 0.026(5) 0.001(4) -0.008(4) 0.004(4)
loop_
_geom_bond_atom_site_label_1
_geom_bond_atom_site_label_2
_geom_bond_site_symmetry_1
_geom_bond_site_symmetry_2
Cu1 N1 1_555 1_555
C1 C2 1_555 1_555
C2 H1 1_555 1_555
H2 C2 1_555 1_555
C3 C2 1_555 1_555
H3 C3 1_555 1_555
H4 C3 1_555 1_555
C4 H5 1_555 1_555
H6 C4 1_555 1_555
C5 C4 1_555 1_555
H7 C5 1_555 1_555
H8 C5 1_555 1_555
C6 C5 1_555 1_555
N1 C1 1_555 1_555
N2 N1 1_555 1_555
N3 N2 1_555 1_555
N4 C1 1_555 1_555
N5 Cu1 1_555 1_555
N6 N5 1_555 1_555
N7 N6 1_555 1_555
N8 C6 1_555 1_555
O1 Cu1 1_555 1_555
Cu1A N4 1_555 1_555
Cu1B N8 1_555 1_555
N4C Cu1 1_555 1_555
N8B Cu1 1_555 1_555
C3 O1 1_555 1_555
C4 O1 1_555 1_555
C6 N5 1_555 1_555
N3 N4 1_555 1_555
N7 N8 1_555 1_555

#END
