
#######################################################################
#
#                 Cambridge Crystallographic Data Centre
#                                CCDC 
#
#######################################################################
#
# If this CIF has been generated from an entry in the Cambridge 
# Structural Database, then it will include bibliographic, chemical, 
# crystal, experimental, refinement or atomic coordinate data resulting 
# from the CCDC's data processing and validation procedures.
#
#######################################################################

data_HAFGUQ
_chemical_formula_moiety         '(C4 H15 Ga1 N2 O8 P2)n'
_symmetry_cell_setting           orthorhombic
_symmetry_space_group_name_H-M   'P n a a'
_symmetry_Int_Tables_number      56
_space_group_name_Hall           '-P 2ac 2bc'
loop_
_symmetry_equiv_pos_site_id
_symmetry_equiv_pos_as_xyz
1 x,y,z
2 1/2-x,-y,1/2+z
3 x,1/2-y,1/2-z
4 1/2-x,1/2+y,-z
5 -x,-y,-z
6 1/2+x,y,1/2-z
7 -x,1/2+y,1/2+z
8 1/2+x,1/2-y,z
_cell_length_a                   9.109(1)
_cell_length_b                   11.021(1)
_cell_length_c                   11.987(1)
_cell_angle_alpha                90
_cell_angle_beta                 90
_cell_angle_gamma                90
_cell_volume                     1203.38
loop_
_atom_site_label
_atom_site_type_symbol
_atom_site_fract_x
_atom_site_fract_y
_atom_site_fract_z
Ga1 Ga 0.7035(1) 0.7500 0.7500
P1 P 0.5416(1) 0.3135(1) 0.4062(1)
O1 O 0.5432(2) 0.3961(1) 0.5095(1)
O2 O 0.5353(2) 0.1816(2) 0.4368(2)
O3 O 0.4079(2) 0.3527(2) 0.3341(1)
O4 O 0.3168(2) 0.6556(2) 0.6599(1)
H8 H 0.5000 0.5000 0.5000
O1D O 0.4568(2) 0.6039(1) 0.4905(1)
P1D P 0.4584(1) 0.6865(1) 0.5938(1)
O2D O 0.4647(2) 0.8184(2) 0.5632(2)
O3D O 0.5921(2) 0.6473(2) 0.6659(1)
Ga1D Ga 0.2965(1) 0.2500 0.2500
O3F O 0.5921(2) 0.8527(2) 0.8341(1)
Ga1E Ga 0.2035(1) 0.7500 0.7500
O4E O 0.8168(2) 0.6556(2) 0.8401(1)
O4G O 0.8168(2) 0.8444(2) 0.6599(1)
O4D O 0.6832(2) 0.3444(2) 0.3401(1)
Ga1A Ga 0.7965(1) 0.2500 0.2500
N1 N 0.1644(3) -0.0463(2) 0.0697(2)
C1 C 0.1553(4) -0.0916(3) 0.1857(2)
C2 C 0.1737(4) -0.2268(3) 0.1905(2)
H1 H 0.264(5) -0.056(4) 0.045(3)
H2 H 0.102(5) -0.088(4) 0.023(3)
H3 H 0.147(4) 0.030(4) 0.058(3)
H4 H 0.222(5) -0.052(4) 0.228(3)
H5 H 0.057(5) -0.065(4) 0.216(3)
H6 H 0.109(5) -0.269(4) 0.148(3)
H7 H 0.268(5) -0.245(3) 0.148(3)
C2B C 0.1737(4) -0.2732(3) 0.3095(2)
C1B C 0.1553(4) -0.4084(3) 0.3143(2)
N1B N 0.1644(3) -0.4537(2) 0.4303(2)
H1B H 0.264(5) -0.444(4) 0.455(3)
H2B H 0.102(5) -0.412(4) 0.477(3)
H3B H 0.147(4) -0.530(4) 0.442(3)
H4B H 0.222(5) -0.448(4) 0.272(3)
H5B H 0.057(5) -0.435(4) 0.284(3)
H6B H 0.109(5) -0.231(4) 0.352(3)
H7B H 0.268(5) -0.255(3) 0.352(3)
loop_
_geom_bond_atom_site_label_1
_geom_bond_atom_site_label_2
_geom_bond_site_symmetry_1
_geom_bond_site_symmetry_2
Ga1 O3D 1_555 1_555
P1 O1 1_555 1_555
O1 H8 1_555 1_555
O2 P1 1_555 1_555
O3 P1 1_555 1_555
O4 P1D 1_555 1_555
N1 C1 1_555 1_555
C1 C2 1_555 1_555
C2 H6 1_555 1_555
H1 N1 1_555 1_555
H2 N1 1_555 1_555
H3 N1 1_555 1_555
H4 C1 1_555 1_555
H5 C1 1_555 1_555
H7 C2 1_555 1_555
H8 O1D 1_555 1_555
O1D P1D 1_555 1_555
P1D O2D 1_555 1_555
O3D P1D 1_555 1_555
Ga1D O3 1_555 1_555
O3F Ga1 1_555 1_555
Ga1E O4 1_555 1_555
O4E Ga1 1_555 1_555
O4G Ga1 1_555 1_555
O4D P1 1_555 1_555
Ga1A O4D 1_555 1_555
C2B C2 1_555 1_555
C1B C2B 1_555 1_555
N1B C1B 1_555 1_555
H1B N1B 1_555 1_555
H2B N1B 1_555 1_555
H3B N1B 1_555 1_555
H4B C1B 1_555 1_555
H5B C1B 1_555 1_555
H6B C2B 1_555 1_555
H7B C2B 1_555 1_555

#END
