
#######################################################################
#
#                 Cambridge Crystallographic Data Centre
#                                CCDC 
#
#######################################################################
#
# If this CIF has been generated from an entry in the Cambridge 
# Structural Database, then it will include bibliographic, chemical, 
# crystal, experimental, refinement or atomic coordinate data resulting 
# from the CCDC's data processing and validation procedures.
#
#######################################################################

data_LAZSIQ
_chemical_formula_moiety         '(C38 H38 Cu4 N2 O14)n'
_symmetry_cell_setting           monoclinic
_symmetry_space_group_name_H-M   'C 2/c'
_symmetry_Int_Tables_number      15
_space_group_name_Hall           '-C 2yc'
loop_
_symmetry_equiv_pos_site_id
_symmetry_equiv_pos_as_xyz
1 x,y,z
2 -x,y,1/2-z
3 1/2+x,1/2+y,z
4 1/2-x,1/2+y,1/2-z
5 -x,-y,-z
6 x,-y,1/2+z
7 1/2-x,1/2-y,-z
8 1/2+x,1/2-y,1/2+z
_cell_length_a                   14.253
_cell_length_b                   14.279
_cell_length_c                   26.903
_cell_angle_alpha                90
_cell_angle_beta                 97.90
_cell_angle_gamma                90
_cell_volume                     5423.3
loop_
_atom_site_label
_atom_site_type_symbol
_atom_site_fract_x
_atom_site_fract_y
_atom_site_fract_z
_atom_site_U_iso_or_equiv
_atom_site_thermal_displace_type
C1 C 0.8937(5) 0.1135(5) 0.4199(2) 0.0672 Uani
C2 C 0.8570(5) 0.1273(5) 0.3659(2) 0.0636 Uani
C3 C 0.8714(7) 0.0600(6) 0.3309(3) 0.0955 Uani
H1 H 0.9029 0.0048 0.3412 0.1150 Uiso
C4 C 0.8395(7) 0.0738(6) 0.2805(3) 0.1077 Uani
H2 H 0.8526 0.0295 0.2571 0.1290 Uiso
C5 C 0.7900(6) 0.1502(6) 0.2653(2) 0.0853 Uani
C6 C 0.7718(6) 0.2160(6) 0.2990(2) 0.0886 Uani
H3 H 0.7358 0.2684 0.2882 0.1060 Uiso
C7 C 0.8064(5) 0.2057(5) 0.3494(2) 0.0728 Uani
H4 H 0.7953 0.2522 0.3722 0.0870 Uiso
C8 C 0.7699(8) 0.1031(6) 0.1788(3) 0.0934 Uani
C9 C 0.7044(8) 0.0343(7) 0.1671(3) 0.0992 Uani
H5 H 0.6522 0.0297 0.1842 0.1190 Uiso
C10 C 0.7168(6) -0.0288(6) 0.1294(3) 0.0859 Uani
H6 H 0.6714 -0.0749 0.1206 0.1030 Uiso
C11 C 0.7946(5) -0.0242(5) 0.1047(2) 0.0584 Uani
C12 C 0.8569(7) 0.0474(7) 0.1181(4) 0.1163 Uani
H7 H 0.9101 0.0528 0.1017 0.1390 Uiso
C13 C 0.8442(8) 0.1112(8) 0.1543(4) 0.1254 Uani
H8 H 0.8872 0.1598 0.1617 0.1500 Uiso
C14 C 0.8115(5) -0.0921(5) 0.0648(2) 0.0559 Uani
C15 C 0.8997(9) 0.3398(8) 0.5779(4) 0.1505 Uani
H9 H 0.8743 0.3040 0.6036 0.1810 Uiso
H10 H 0.8755 0.4032 0.5784 0.1810 Uiso
C16 C 1.0042(9) 0.3411(10) 0.5883(8) 0.2198 Uani
H11 H 1.0236 0.3586 0.6230 0.2640 Uiso
H12 H 1.0287 0.3876 0.5672 0.2640 Uiso
C17 C 1.1507(7) 0.1445(11) 0.5371(6) 0.1620 Uani
H13 H 1.2008 0.1489 0.5162 0.1950 Uiso
H14 H 1.1675 0.0963 0.5621 0.1950 Uiso
C18 C 1.1380(8) 0.2387(15) 0.5626(7) 0.2673 Uani
H15 H 1.1861 0.2451 0.5917 0.3200 Uiso
H16 H 1.1468 0.2890 0.5395 0.3200 Uiso
C19 C 1.0361(13) 0.1882(13) 0.6240(5) 0.2276 Uani
H17 H 0.9721 0.1902 0.6314 0.3410 Uiso
H18 H 1.0782 0.2116 0.6522 0.3410 Uiso
H19 H 1.0527 0.1247 0.6174 0.3410 Uiso
N1 N 1.0442(8) 0.2477(6) 0.5786(3) 0.1471 Uani
O1 O 0.8867(4) 0.1845(4) 0.44836(16) 0.0886 Uani
O2 O 0.9347(4) 0.0387(3) 0.43367(16) 0.0744 Uani
O3 O 0.7536(5) 0.1701(4) 0.21591(17) 0.1254 Uani
O4 O 0.8854(4) -0.0850(4) 0.0463(2) 0.0971 Uani
O5 O 0.7511(4) -0.1532(4) 0.05313(17) 0.0772 Uani
O6 O 0.8704(4) 0.2982(3) 0.52948(17) 0.0755 Uani
O7 O 1.0616(3) 0.1222(4) 0.50690(18) 0.0791 Uani
Cu1 Cu 1.0000 0.0000 0.5000 0.0619 Uani
Cu2 Cu 0.95969(6) 0.20346(6) 0.51740(3) 0.0685 Uani
Cu3 Cu 0.7500 0.2500 0.5000 0.0579 Uani
C1A C 1.1063(5) 0.1135(5) 0.0801(2) 0.0672 Uani
C2A C 1.1430(5) 0.1273(5) 0.1341(2) 0.0636 Uani
C3A C 1.1286(7) 0.0600(6) 0.1691(3) 0.0955 Uani
H1A H 1.0971 0.0048 0.1588 0.1150 Uiso
C4A C 1.1605(7) 0.0738(6) 0.2195(3) 0.1077 Uani
H2A H 1.1474 0.0295 0.2429 0.1290 Uiso
C5A C 1.2100(6) 0.1502(6) 0.2347(2) 0.0853 Uani
C6A C 1.2282(6) 0.2160(6) 0.2010(2) 0.0886 Uani
H3A H 1.2642 0.2684 0.2118 0.1060 Uiso
C7A C 1.1936(5) 0.2057(5) 0.1506(2) 0.0728 Uani
H4A H 1.2047 0.2522 0.1278 0.0870 Uiso
C8A C 1.2301(8) 0.1031(6) 0.3212(3) 0.0934 Uani
C9A C 1.2956(8) 0.0343(7) 0.3329(3) 0.0992 Uani
H5A H 1.3478 0.0297 0.3158 0.1190 Uiso
C10A C 1.2832(6) -0.0288(6) 0.3706(3) 0.0859 Uani
H6A H 1.3286 -0.0749 0.3794 0.1030 Uiso
C11A C 1.2054(5) -0.0242(5) 0.3953(2) 0.0584 Uani
C12A C 1.1431(7) 0.0474(7) 0.3819(4) 0.1163 Uani
H7A H 1.0899 0.0528 0.3983 0.1390 Uiso
C13A C 1.1558(8) 0.1112(8) 0.3457(4) 0.1254 Uani
H8A H 1.1128 0.1598 0.3383 0.1500 Uiso
C14A C 1.1885(5) -0.0921(5) 0.4352(2) 0.0559 Uani
C15D C 1.1003(9) -0.3398(8) 0.4221(4) 0.1505 Uani
H9D H 1.1257 -0.3040 0.3964 0.1810 Uiso
H10D H 1.1245 -0.4032 0.4216 0.1810 Uiso
C16D C 0.9958(9) -0.3411(10) 0.4117(8) 0.2198 Uani
H11D H 0.9764 -0.3586 0.3770 0.2640 Uiso
H12D H 0.9713 -0.3876 0.4328 0.2640 Uiso
C17D C 0.8493(7) -0.1445(11) 0.4629(6) 0.1620 Uani
H13D H 0.7992 -0.1489 0.4838 0.1950 Uiso
H14D H 0.8325 -0.0963 0.4379 0.1950 Uiso
C18D C 0.8620(8) -0.2387(15) 0.4374(7) 0.2673 Uani
H15D H 0.8139 -0.2451 0.4083 0.3200 Uiso
H16D H 0.8532 -0.2890 0.4605 0.3200 Uiso
C19D C 0.9639(13) -0.1882(13) 0.3760(5) 0.2276 Uani
H17D H 1.0279 -0.1902 0.3686 0.3410 Uiso
H18D H 0.9218 -0.2116 0.3478 0.3410 Uiso
H19D H 0.9473 -0.1247 0.3826 0.3410 Uiso
N1D N 0.9558(8) -0.2477(6) 0.4214(3) 0.1471 Uani
O1A O 1.1133(4) 0.1845(4) 0.05164(16) 0.0886 Uani
O1F O 0.6133(4) 0.3155(4) 0.55164(16) 0.0886 Uani
O1D O 1.1133(4) -0.1845(4) 0.55164(16) 0.0886 Uani
O2A O 1.0653(4) 0.0387(3) 0.06633(16) 0.0744 Uani
O2D O 1.0653(4) -0.0387(3) 0.56633(16) 0.0744 Uani
O3A O 1.2464(5) 0.1701(4) 0.28409(17) 0.1254 Uani
O4A O 1.1146(4) -0.0850(4) 0.4537(2) 0.0971 Uani
O4E O 0.8854(4) 0.0850(4) 0.5463(2) 0.0971 Uani
O5A O 1.2489(4) -0.1532(4) 0.44687(17) 0.0772 Uani
O5C O 0.7489(4) 0.3468(4) 0.44687(17) 0.0772 Uani
O5E O 0.7511(4) 0.1532(4) 0.55313(17) 0.0772 Uani
O6D O 1.1296(4) -0.2982(3) 0.47052(17) 0.0755 Uani
O6F O 0.6296(4) 0.2018(3) 0.47052(17) 0.0755 Uani
O7D O 0.9384(3) -0.1222(4) 0.49310(18) 0.0791 Uani
Cu1A Cu 1.0000 0.0000 0.0000 0.0619 Uani
Cu2D Cu 1.04031(6) -0.20346(6) 0.48260(3) 0.0685 Uani
Cu2E Cu 0.95969(6) -0.20346(6) 0.01740(3) 0.0685 Uani
Cu2F Cu 0.54031(6) 0.29654(6) 0.48260(3) 0.0685 Uani
Cu2A Cu 1.04031(6) 0.20346(6) -0.01740(3) 0.0685 Uani
Cu3C Cu 0.7500 -0.2500 0.0000 0.0579 Uani
Cu3A Cu 1.2500 0.2500 0.0000 0.0579 Uani
Cu3B Cu 1.2500 -0.2500 0.5000 0.0579 Uani
loop_
_atom_site_aniso_label
_atom_site_aniso_U_11
_atom_site_aniso_U_22
_atom_site_aniso_U_33
_atom_site_aniso_U_23
_atom_site_aniso_U_13
_atom_site_aniso_U_12
C1 0.083(5) 0.078(5) 0.039(3) -0.005(3) 0.003(3) 0.028(4)
C2 0.076(4) 0.078(5) 0.036(3) -0.003(3) 0.005(3) 0.024(4)
C3 0.145(8) 0.086(6) 0.048(4) -0.014(4) -0.014(4) 0.061(6)
C4 0.168(9) 0.103(6) 0.044(4) -0.022(4) -0.014(5) 0.074(6)
C5 0.118(6) 0.097(6) 0.036(3) -0.012(4) -0.007(4) 0.047(5)
C6 0.136(7) 0.077(5) 0.045(4) -0.007(3) -0.015(4) 0.046(5)
C7 0.104(5) 0.073(5) 0.039(4) -0.009(3) 0.001(3) 0.037(4)
C8 0.150(8) 0.089(6) 0.033(4) -0.016(4) -0.017(4) 0.052(6)
C9 0.148(9) 0.096(6) 0.062(5) 0.000(5) 0.044(5) 0.019(7)
C10 0.111(6) 0.081(5) 0.070(5) -0.002(4) 0.028(5) -0.002(5)
C11 0.073(4) 0.066(4) 0.036(3) -0.004(3) 0.007(3) -0.007(4)
C12 0.117(7) 0.126(8) 0.112(7) -0.068(6) 0.037(6) -0.042(6)
C13 0.119(8) 0.135(9) 0.125(8) -0.080(7) 0.027(7) -0.017(7)
C14 0.071(4) 0.059(4) 0.037(3) -0.003(3) 0.005(3) -0.017(4)
C15 0.201(14) 0.109(9) 0.125(9) -0.048(7) -0.037(9) 0.040(9)
C16 0.168(14) 0.178(15) 0.29(2) -0.150(15) -0.052(14) 0.019(12)
C17 0.101(8) 0.165(12) 0.205(15) -0.021(11) -0.032(9) 0.014(9)
C18 0.067(8) 0.44(4) 0.28(2) -0.12(3) -0.029(10) -0.001(14)
C19 0.28(2) 0.27(2) 0.107(10) 0.045(12) -0.065(11) 0.046(17)
N1 0.196(11) 0.096(6) 0.124(7) -0.007(5) -0.068(7) -0.011(7)
O1 0.127(4) 0.090(4) 0.043(3) -0.013(3) -0.009(3) 0.057(3)
O2 0.104(4) 0.071(3) 0.044(2) -0.002(2) -0.005(2) 0.038(3)
O3 0.204(7) 0.120(5) 0.039(3) -0.022(3) -0.030(3) 0.090(5)
O4 0.111(4) 0.077(4) 0.118(5) -0.038(3) 0.068(4) -0.039(3)
O5 0.085(3) 0.088(4) 0.062(3) -0.023(3) 0.022(2) -0.025(3)
O6 0.101(4) 0.062(3) 0.058(3) -0.013(2) -0.009(2) 0.008(3)
O7 0.074(3) 0.087(4) 0.073(3) 0.004(3) -0.002(3) 0.012(3)
Cu1 0.0712(8) 0.0745(8) 0.0389(6) 0.0020(5) 0.0039(5) 0.0251(6)
Cu2 0.0748(6) 0.0627(6) 0.0629(6) -0.0027(4) -0.0084(4) 0.0074(4)
Cu3 0.0790(8) 0.0520(7) 0.0422(6) 0.0029(5) 0.0067(5) 0.0154(6)
C1A 0.083 0.078 0.039 0.005 0.003 -0.028
C2A 0.076 0.078 0.036 0.003 0.005 -0.024
C3A 0.145 0.086 0.048 0.014 -0.014 -0.061
C4A 0.168 0.103 0.044 0.022 -0.014 -0.074
C5A 0.118 0.097 0.036 0.012 -0.007 -0.047
C6A 0.136 0.077 0.045 0.007 -0.015 -0.046
C7A 0.104 0.073 0.039 0.009 0.001 -0.037
C8A 0.15 0.089 0.033 0.016 -0.017 -0.052
C9A 0.148 0.096 0.062 0 0.044 -0.019
C10A 0.111 0.081 0.07 0.002 0.028 0.002
C11A 0.073 0.066 0.036 0.004 0.007 0.007
C12A 0.117 0.126 0.112 0.068 0.037 0.042
C13A 0.119 0.135 0.125 0.08 0.027 0.017
C14A 0.071 0.059 0.037 0.003 0.005 0.017
C15D 0.201 0.109 0.125 -0.048 -0.037 0.04
C16D 0.168 0.178 0.29 -0.15 -0.052 0.019
C17D 0.101 0.165 0.205 -0.021 -0.032 0.014
C18D 0.067 0.44 0.28 -0.12 -0.029 -0.001
C19D 0.28 0.27 0.107 0.045 -0.065 0.046
N1D 0.196 0.096 0.124 -0.007 -0.068 -0.011
O1A 0.127 0.09 0.043 0.013 -0.009 -0.057
O1F 0.127 0.09 0.043 -0.013 -0.009 0.057
O1D 0.127 0.09 0.043 -0.013 -0.009 0.057
O2A 0.104 0.071 0.044 0.002 -0.005 -0.038
O2D 0.104 0.071 0.044 -0.002 -0.005 0.038
O3A 0.204 0.12 0.039 0.022 -0.03 -0.09
O4A 0.111 0.077 0.118 0.038 0.068 0.039
O4E 0.111 0.077 0.118 0.038 0.068 0.039
O5A 0.085 0.088 0.062 0.023 0.022 0.025
O5C 0.085 0.088 0.062 0.023 0.022 0.025
O5E 0.085 0.088 0.062 0.023 0.022 0.025
O6D 0.101 0.062 0.058 -0.013 -0.009 0.008
O6F 0.101 0.062 0.058 -0.013 -0.009 0.008
O7D 0.074 0.087 0.073 0.004 -0.002 0.012
Cu1A 0.0712 0.0745 0.0389 -0.002 0.0039 -0.0251
Cu2D 0.0748 0.0627 0.0629 -0.0027 -0.0084 0.0074
Cu2E 0.0748 0.0627 0.0629 0.0027 -0.0084 -0.0074
Cu2F 0.0748 0.0627 0.0629 -0.0027 -0.0084 0.0074
Cu2A 0.0748 0.0627 0.0629 0.0027 -0.0084 -0.0074
Cu3C 0.079 0.052 0.0422 -0.0029 0.0067 -0.0154
Cu3A 0.079 0.052 0.0422 -0.0029 0.0067 -0.0154
Cu3B 0.079 0.052 0.0422 0.0029 0.0067 0.0154
loop_
_geom_bond_atom_site_label_1
_geom_bond_atom_site_label_2
_geom_bond_site_symmetry_1
_geom_bond_site_symmetry_2
C1 C2 1_555 1_555
C2 C3 1_555 1_555
C3 H1 1_555 1_555
C4 C3 1_555 1_555
H2 C4 1_555 1_555
C5 C4 1_555 1_555
C6 C5 1_555 1_555
H3 C6 1_555 1_555
C7 C2 1_555 1_555
H4 C7 1_555 1_555
C8 C9 1_555 1_555
C9 H5 1_555 1_555
C10 C9 1_555 1_555
H6 C10 1_555 1_555
C11 C10 1_555 1_555
C12 C11 1_555 1_555
H7 C12 1_555 1_555
C13 C8 1_555 1_555
H8 C13 1_555 1_555
C14 C11 1_555 1_555
C15 H9 1_555 1_555
H10 C15 1_555 1_555
C16 C15 1_555 1_555
H11 C16 1_555 1_555
H12 C16 1_555 1_555
C17 H13 1_555 1_555
H14 C17 1_555 1_555
C18 C17 1_555 1_555
H15 C18 1_555 1_555
H16 C18 1_555 1_555
C19 H17 1_555 1_555
H18 C19 1_555 1_555
H19 C19 1_555 1_555
N1 C16 1_555 1_555
O1 C1 1_555 1_555
O2 C1 1_555 1_555
O3 C5 1_555 1_555
O4 C14 1_555 1_555
O5 C14 1_555 1_555
O6 C15 1_555 1_555
O7 C17 1_555 1_555
Cu1 O2 1_555 1_555
Cu2 N1 1_555 1_555
Cu3 O1 1_555 1_555
C1A C2A 1_555 1_555
C2A C3A 1_555 1_555
C3A H1A 1_555 1_555
C4A C3A 1_555 1_555
H2A C4A 1_555 1_555
C5A C4A 1_555 1_555
C6A C5A 1_555 1_555
H3A C6A 1_555 1_555
C7A C2A 1_555 1_555
H4A C7A 1_555 1_555
C8A C9A 1_555 1_555
C9A H5A 1_555 1_555
C10A C9A 1_555 1_555
H6A C10A 1_555 1_555
C11A C10A 1_555 1_555
C12A C11A 1_555 1_555
H7A C12A 1_555 1_555
C13A C8A 1_555 1_555
H8A C13A 1_555 1_555
C14A C11A 1_555 1_555
C15D H9D 1_555 1_555
H10D C15D 1_555 1_555
C16D C15D 1_555 1_555
H11D C16D 1_555 1_555
H12D C16D 1_555 1_555
C17D H13D 1_555 1_555
H14D C17D 1_555 1_555
C18D C17D 1_555 1_555
H15D C18D 1_555 1_555
H16D C18D 1_555 1_555
C19D H17D 1_555 1_555
H18D C19D 1_555 1_555
H19D C19D 1_555 1_555
N1D C16D 1_555 1_555
O1A C1A 1_555 1_555
O1F Cu3 1_555 1_555
O1D Cu2D 1_555 1_555
O2A C1A 1_555 1_555
O2D Cu1 1_555 1_555
O3A C5A 1_555 1_555
O4A Cu1 1_555 1_555
O4E Cu1 1_555 1_555
O5A C14A 1_555 1_555
O5C Cu3 1_555 1_555
O5E Cu3 1_555 1_555
O6D C15D 1_555 1_555
O6F Cu3 1_555 1_555
O7D Cu1 1_555 1_555
Cu1A O4 1_555 1_555
Cu2D N1D 1_555 1_555
Cu2E O4 1_555 1_555
Cu2F O1F 1_555 1_555
Cu2A O1A 1_555 1_555
Cu3C O5 1_555 1_555
Cu3A O1A 1_555 1_555
Cu3B O1D 1_555 1_555
C6 C7 1_555 1_555
C8 O3 1_555 1_555
C12 C13 1_555 1_555
C18 N1 1_555 1_555
C19 N1 1_555 1_555
O1 Cu2 1_555 1_555
O6 Cu2 1_555 1_555
O6 Cu3 1_555 1_555
O7 Cu1 1_555 1_555
O7 Cu2 1_555 1_555
Cu2 O4E 1_555 1_555
C6A C7A 1_555 1_555
C8A O3A 1_555 1_555
C12A C13A 1_555 1_555
C14A O4A 1_555 1_555
C17D O7D 1_555 1_555
C18D N1D 1_555 1_555
C19D N1D 1_555 1_555
O2A Cu1A 1_555 1_555
O4A Cu2D 1_555 1_555
O5A Cu3B 1_555 1_555
O6D Cu2D 1_555 1_555
O6D Cu3B 1_555 1_555
O6F Cu2F 1_555 1_555
O7D Cu2D 1_555 1_555

#END
