
#######################################################################
#
#                 Cambridge Crystallographic Data Centre
#                                CCDC 
#
#######################################################################
#
# If this CIF has been generated from an entry in the Cambridge 
# Structural Database, then it will include bibliographic, chemical, 
# crystal, experimental, refinement or atomic coordinate data resulting 
# from the CCDC's data processing and validation procedures.
#
#######################################################################

data_FAVGER
_chemical_formula_moiety         '(C52 H64 Nd4 O42)n'
_symmetry_cell_setting           orthorhombic
_symmetry_space_group_name_H-M   'P 21 21 2'
_symmetry_Int_Tables_number      18
_space_group_name_Hall           'P 2 2ab'
loop_
_symmetry_equiv_pos_site_id
_symmetry_equiv_pos_as_xyz
1 x,y,z
2 -x,-y,z
3 1/2+x,1/2-y,-z
4 1/2-x,1/2+y,-z
_cell_length_a                   12.865(3)
_cell_length_b                   24.162(5)
_cell_length_c                   12.368(3)
_cell_angle_alpha                90
_cell_angle_beta                 90
_cell_angle_gamma                90
_cell_volume                     3844.52
loop_
_atom_site_label
_atom_site_type_symbol
_atom_site_fract_x
_atom_site_fract_y
_atom_site_fract_z
C1 C 0.7222(5) 0.3299(3) 0.5097(6)
C2 C 0.7003(5) 0.2726(3) 0.5160(6)
H1 H 0.6952 0.2549 0.5826
C3 C 0.6867(5) 0.2434(3) 0.4207(6)
C4 C 0.6913(7) 0.2695(3) 0.3205(7)
H2 H 0.6811 0.2494 0.2572
C5 C 0.7115(7) 0.3268(3) 0.3162(7)
C6 C 0.7287(6) 0.3567(3) 0.4104(7)
H3 H 0.7444 0.3942 0.4071
C7 C 0.7630(6) 0.4118(3) 0.6129(7)
H4 H 0.7149 0.4341 0.5696
C8 C 0.8729(5) 0.4193(2) 0.5697(6)
C9 C 0.7556(7) 0.4293(4) 0.7289(8)
H5 H 0.8090 0.4112 0.7700
H6 H 0.6887 0.4192 0.7571
H7 H 0.7644 0.4686 0.7340
C10 C 0.7239(6) 0.4064(3) 0.2000(7)
H8 H 0.7882 0.4187 0.2350
C11 C 0.6339(8) 0.4373(4) 0.2468(7)
C12 C 0.7319(8) 0.4165(4) 0.0797(8)
H9 H 0.6730 0.4003 0.0440
H10 H 0.7945 0.3999 0.0526
H11 H 0.7332 0.4556 0.0661
C13 C 0.6609(5) 0.1829(3) 0.4253(6)
C14 C 0.5000 0.5000 0.6848(8)
H12 H 0.5000 0.5000 0.6097
C15 C 0.5267(5) 0.5476(3) 0.7420(6)
C16 C 0.5266(6) 0.5475(3) 0.8546(6)
H13 H 0.5444 0.5794 0.8925
C17 C 0.5000 0.5000 0.9098(7)
C18 C 0.5000 0.5000 1.0306(8)
C19 C 0.5476(5) 0.6039(3) 0.5822(6)
H14 H 0.4818 0.5884 0.5560
C20 C 0.6390(6) 0.5752(3) 0.5218(5)
C21 C 0.5488(7) 0.6660(3) 0.5603(8)
H15 H 0.6118 0.6817 0.5884
H16 H 0.4901 0.6830 0.5950
H17 H 0.5452 0.6724 0.4838
C22 C 1.0000 0.5000 0.1261(10)
H18 H 1.0000 0.5000 0.2013
C23 C 0.9872(7) 0.5485(4) 0.0685(7)
C24 C 0.9848(7) 0.5494(4) -0.0432(7)
H19 H 0.9733 0.5823 -0.0803
C25 C 1.0000 0.5000 -0.0990(9)
C26 C 1.0000 0.5000 -0.2198(10)
C27 C 0.9852(7) 0.6039(4) 0.2302(7)
H20 H 1.0494 0.5854 0.2529
C28 C 0.8950(7) 0.5782(4) 0.2855(7)
C29 C 0.9917(9) 0.6649(5) 0.2566(9)
H21 H 0.9275 0.6826 0.2372
H22 H 1.0478 0.6813 0.2166
H23 H 1.0039 0.6695 0.3326
Nd1 Nd 0.89729(3) 0.568121(12) 0.56045(3)
Nd2 Nd 0.37584(3) 0.418145(16) 0.23116(3)
O1 O 0.7131(6) 0.3482(2) 0.2139(5)
O2 O 0.5555(5) 0.4132(4) 0.2711(6)
O3 O 0.6532(8) 0.4892(3) 0.2550(7)
O4 O 0.7319(4) 0.3548(2) 0.6080(4)
O5 O 0.9018(4) 0.46759(18) 0.5449(4)
O6 O 0.9337(4) 0.37974(19) 0.5697(5)
O7 O 0.6674(4) 0.15861(19) 0.5153(4)
O8 O 0.6382(5) 0.1571(2) 0.3413(4)
O9 O 0.5529(5) 0.5970(2) 0.6958(4)
O10 O 0.7143(4) 0.5596(2) 0.5773(5)
O11 O 0.6298(5) 0.5724(3) 0.4232(4)
O12 O 0.5430(5) 0.5393(2) 1.0773(4)
O13 O 0.9750(6) 0.6004(3) 0.1156(5)
O14 O 0.9136(6) 0.5583(3) 0.3768(5)
O15 O 0.8112(5) 0.5780(4) 0.2426(7)
O16 O 0.9537(5) 0.5394(2) -0.2676(5)
O17 O 0.3103(6) 0.3292(3) 0.3076(5)
H24 H 0.2794 0.3004 0.3302
H25 H 0.3730 0.3276 0.3289
O18 O 0.2718(7) 0.3896(4) 0.0620(7)
H26 H 0.2155 0.3719 0.0722
H27 H 0.2737 0.3991 -0.0041
O19 O 0.4688(7) 0.3370(3) 0.1415(8)
H28 H 0.5319 0.3425 0.1587
H29 H 0.4679 0.3131 0.0910
C15A C 0.4733(5) 0.4524(3) 0.7420(6)
C16A C 0.4734(6) 0.4525(3) 0.8546(6)
H13A H 0.4556 0.4206 0.8925
C19A C 0.4524(5) 0.3961(3) 0.5822(6)
H14A H 0.5182 0.4116 0.5560
C20A C 0.3610(6) 0.4248(3) 0.5218(5)
C21A C 0.4512(7) 0.3340(3) 0.5603(8)
H15A H 0.3882 0.3183 0.5884
H16A H 0.5099 0.3170 0.5950
H17A H 0.4548 0.3276 0.4838
O9A O 0.4471(5) 0.4030(2) 0.6958(4)
O10A O 0.2857(4) 0.4404(2) 0.5773(5)
O11A O 0.3702(5) 0.4276(3) 0.4232(4)
O12A O 0.4570(5) 0.4607(2) 1.0773(4)
C23A C 1.0128(7) 0.4515(4) 0.0685(7)
C24A C 1.0152(7) 0.4506(4) -0.0432(7)
H19A H 1.0267 0.4177 -0.0803
C27A C 1.0148(7) 0.3961(4) 0.2302(7)
H20A H 0.9506 0.4146 0.2529
C28A C 1.1050(7) 0.4218(4) 0.2855(7)
C29A C 1.0083(9) 0.3351(5) 0.2566(9)
H21A H 1.0725 0.3174 0.2372
H22A H 0.9522 0.3187 0.2166
H23A H 0.9961 0.3305 0.3326
O13A O 1.0250(6) 0.3996(3) 0.1156(5)
O14A O 1.0864(6) 0.4417(3) 0.3768(5)
O15A O 1.1888(5) 0.4220(4) 0.2426(7)
O16A O 1.0463(5) 0.4606(2) -0.2676(5)
C1A C 0.2778(5) 0.6701(3) 0.5097(6)
C2A C 0.2997(5) 0.7274(3) 0.5160(6)
H1A H 0.3048 0.7451 0.5826
C3A C 0.3133(5) 0.7566(3) 0.4207(6)
C4A C 0.3087(7) 0.7305(3) 0.3205(7)
H2A H 0.3189 0.7506 0.2572
C5A C 0.2885(7) 0.6732(3) 0.3162(7)
C6A C 0.2713(6) 0.6433(3) 0.4104(7)
H3A H 0.2556 0.6058 0.4071
C7A C 0.2370(6) 0.5882(3) 0.6129(7)
H4A H 0.2851 0.5659 0.5696
C8A C 0.1271(5) 0.5807(2) 0.5697(6)
C9A C 0.2444(7) 0.5707(4) 0.7289(8)
H5A H 0.1910 0.5888 0.7700
H6A H 0.3113 0.5808 0.7571
H7A H 0.2356 0.5314 0.7340
C10A C 0.2761(6) 0.5936(3) 0.2000(7)
H8A H 0.2118 0.5813 0.2350
C11A C 0.3661(8) 0.5627(4) 0.2468(7)
C12A C 0.2681(8) 0.5835(4) 0.0797(8)
H9A H 0.3270 0.5997 0.0440
H10A H 0.2055 0.6001 0.0526
H11A H 0.2668 0.5444 0.0661
C13A C 0.3391(5) 0.8171(3) 0.4253(6)
Nd1A Nd 0.10271(3) 0.431879(12) 0.56045(3)
Nd2A Nd 0.62416(3) 0.581855(16) 0.23116(3)
O1A O 0.2869(6) 0.6518(2) 0.2139(5)
O2A O 0.4445(5) 0.5868(4) 0.2711(6)
O3A O 0.3468(8) 0.5108(3) 0.2550(7)
O4A O 0.2681(4) 0.6452(2) 0.6080(4)
O5A O 0.0982(4) 0.53241(18) 0.5449(4)
O6A O 0.0663(4) 0.62026(19) 0.5697(5)
O7A O 0.3326(4) 0.84139(19) 0.5153(4)
O8A O 0.3618(5) 0.8429(2) 0.3413(4)
O17A O 0.6897(6) 0.6708(3) 0.3076(5)
H24A H 0.7206 0.6996 0.3302
H25A H 0.6270 0.6724 0.3289
O18A O 0.7282(7) 0.6104(4) 0.0620(7)
H26A H 0.7845 0.6281 0.0722
H27A H 0.7263 0.6009 -0.0041
O19A O 0.5312(7) 0.6630(3) 0.1415(8)
H28A H 0.4681 0.6575 0.1587
H29A H 0.5321 0.6869 0.0910
Nd1_2 Nd -0.10271(3) 0.568121(12) 0.56045(3)
Nd1_3 Nd 0.89729(3) 0.568121(12) -0.43955(3)
Nd1A_2 Nd 1.10271(3) 0.431879(12) -0.43955(3)
Nd1A_3 Nd 1.10271(3) 0.431879(12) 0.56045(3)
Nd1B Nd 0.39729(3) 0.931879(12) 0.43955(3)
Nd1C Nd 0.60271(3) 0.068121(12) 0.43955(3)
Nd2_2 Nd 0.37584(3) 0.418145(16) 1.23116(3)
Nd2_3 Nd 1.37584(3) 0.418145(16) 0.23116(3)
Nd2A_2 Nd 0.62416(3) 0.581855(16) 1.23116(3)
O5_2 O -0.0982(4) 0.46759(18) 0.5449(4)
O5A_2 O 1.0982(4) 0.53241(18) 0.5449(4)
O6_2 O -0.0663(4) 0.37974(19) 0.5697(5)
O6A_2 O 1.0663(4) 0.62026(19) 0.5697(5)
O7B O 0.1674(4) 0.34139(19) 0.4847(4)
O7C O 0.8326(4) 0.65861(19) 0.4847(4)
O8B O 0.1382(5) 0.3429(2) 0.6587(4)
O8C O 0.8618(5) 0.6571(2) 0.6587(4)
O12_2 O 0.5430(5) 0.5393(2) 0.0773(4)
O12A_2 O 0.4570(5) 0.4607(2) 0.0773(4)
O14A_2 O 0.0864(6) 0.4417(3) 0.3768(5)
O15A_2 O 0.1888(5) 0.4220(4) 0.2426(7)
O16_2 O 0.9537(5) 0.5394(2) 0.7324(5)
O16A_2 O 0.0463(5) 0.4606(2) 0.7324(5)
O20 O 0.4138(10) 0.2217(5) 0.3002(10)
H30 H 0.4700 0.2037 0.3075
H31 H 0.4237 0.2464 0.2523
O21 O 0.428(3) 0.2846(17) -0.046(3)
H32 H 0.4172 0.2505 -0.0738
H33 H 0.3871 0.3050 -0.0726
O22 O 0.7263(10) 0.6385(6) -0.1611(11)
H34 H 0.6807 0.6131 -0.1514
H35 H 0.6900 0.6648 -0.1967
O23 O 0.671(5) 0.295(2) -0.148(5)
H36 H 0.7355 0.2884 -0.1233
H37 H 0.6799 0.3086 -0.2095
loop_
_geom_bond_atom_site_label_1
_geom_bond_atom_site_label_2
_geom_bond_site_symmetry_1
_geom_bond_site_symmetry_2
C1 C2 1_555 1_555
C2 H1 1_555 1_555
C3 C2 1_555 1_555
C4 C3 1_555 1_555
H2 C4 1_555 1_555
C5 C4 1_555 1_555
C6 C1 1_555 1_555
H3 C6 1_555 1_555
C7 H4 1_555 1_555
C8 C7 1_555 1_555
C9 C7 1_555 1_555
H5 C9 1_555 1_555
H6 C9 1_555 1_555
H7 C9 1_555 1_555
C10 H8 1_555 1_555
C11 C10 1_555 1_555
C12 C10 1_555 1_555
H9 C12 1_555 1_555
H10 C12 1_555 1_555
H11 C12 1_555 1_555
C13 C3 1_555 1_555
C14 H12 1_555 1_555
C15 C14 1_555 1_555
C16 C15 1_555 1_555
H13 C16 1_555 1_555
C17 C16 1_555 1_555
C18 C17 1_555 1_555
C19 H14 1_555 1_555
C20 C19 1_555 1_555
C21 C19 1_555 1_555
H15 C21 1_555 1_555
H16 C21 1_555 1_555
H17 C21 1_555 1_555
C22 H18 1_555 1_555
C23 C22 1_555 1_555
C24 C23 1_555 1_555
H19 C24 1_555 1_555
C25 C24 1_555 1_555
C26 C25 1_555 1_555
C27 H20 1_555 1_555
C28 C27 1_555 1_555
C29 C27 1_555 1_555
H21 C29 1_555 1_555
H22 C29 1_555 1_555
H23 C29 1_555 1_555
Nd1 O5 1_555 1_555
Nd2 O2 1_555 1_555
O1 C5 1_555 1_555
O2 C11 1_555 1_555
O3 C11 1_555 1_555
O4 C1 1_555 1_555
O5 C8 1_555 1_555
O6 C8 1_555 1_555
O7 C13 1_555 1_555
O8 C13 1_555 1_555
O9 C15 1_555 1_555
O10 C20 1_555 1_555
O11 C20 1_555 1_555
O12 C18 1_555 1_555
O13 C23 1_555 1_555
O14 C28 1_555 1_555
O15 C28 1_555 1_555
O16 C26 1_555 1_555
O17 Nd2 1_555 1_555
H24 O17 1_555 1_555
H25 O17 1_555 1_555
O18 Nd2 1_555 1_555
H26 O18 1_555 1_555
H27 O18 1_555 1_555
O19 Nd2 1_555 1_555
H28 O19 1_555 1_555
H29 O19 1_555 1_555
O20 H30 1_555 1_555
H31 O20 1_555 1_555
O21 H32 1_555 1_555
H33 O21 1_555 1_555
O22 H34 1_555 1_555
H35 O22 1_555 1_555
O23 H36 1_555 1_555
H37 O23 1_555 1_555
C15A C14 1_555 1_555
C16A C17 1_555 1_555
H13A C16A 1_555 1_555
C19A H14A 1_555 1_555
C20A C19A 1_555 1_555
C21A C19A 1_555 1_555
H15A C21A 1_555 1_555
H16A C21A 1_555 1_555
H17A C21A 1_555 1_555
O9A C15A 1_555 1_555
O10A C20A 1_555 1_555
O11A Nd2 1_555 1_555
O12A C18 1_555 1_555
C23A C22 1_555 1_555
C24A C25 1_555 1_555
H19A C24A 1_555 1_555
C27A H20A 1_555 1_555
C28A C27A 1_555 1_555
C29A C27A 1_555 1_555
H21A C29A 1_555 1_555
H22A C29A 1_555 1_555
H23A C29A 1_555 1_555
O13A C23A 1_555 1_555
O14A C28A 1_555 1_555
O15A C28A 1_555 1_555
O16A C26 1_555 1_555
C1A C2A 1_555 1_555
C2A H1A 1_555 1_555
C3A C2A 1_555 1_555
C4A C3A 1_555 1_555
H2A C4A 1_555 1_555
C5A C4A 1_555 1_555
C6A C1A 1_555 1_555
H3A C6A 1_555 1_555
C7A H4A 1_555 1_555
C8A C7A 1_555 1_555
C9A C7A 1_555 1_555
H5A C9A 1_555 1_555
H6A C9A 1_555 1_555
H7A C9A 1_555 1_555
C10A H8A 1_555 1_555
C11A C10A 1_555 1_555
C12A C10A 1_555 1_555
H9A C12A 1_555 1_555
H10A C12A 1_555 1_555
H11A C12A 1_555 1_555
C13A C3A 1_555 1_555
Nd1A O10A 1_555 1_555
Nd2A O3 1_555 1_555
O1A C5A 1_555 1_555
O2A C11A 1_555 1_555
O3A Nd2 1_555 1_555
O4A C1A 1_555 1_555
O5A C8A 1_555 1_555
O6A C8A 1_555 1_555
O7A C13A 1_555 1_555
O8A C13A 1_555 1_555
O17A Nd2A 1_555 1_555
H24A O17A 1_555 1_555
H25A O17A 1_555 1_555
O18A Nd2A 1_555 1_555
H26A O18A 1_555 1_555
H27A O18A 1_555 1_555
O19A Nd2A 1_555 1_555
H28A O19A 1_555 1_555
H29A O19A 1_555 1_555
Nd1_2 O5A 1_555 1_555
Nd1_3 O16 1_555 1_555
Nd1A_2 O16A 1_555 1_555
Nd1A_3 O5 1_555 1_555
Nd1B O7A 1_555 1_555
Nd1C O7 1_555 1_555
Nd2_2 O12A 1_555 1_555
Nd2_3 O15A 1_555 1_555
Nd2A_2 O12 1_555 1_555
O5_2 Nd1A 1_555 1_555
O5A_2 Nd1 1_555 1_555
O6_2 Nd1A 1_555 1_555
O6A_2 Nd1 1_555 1_555
O7B Nd1A 1_555 1_555
O7C Nd1 1_555 1_555
O8B Nd1A 1_555 1_555
O8C Nd1 1_555 1_555
O12_2 Nd2A 1_555 1_555
O12A_2 Nd2 1_555 1_555
O14A_2 Nd1A 1_555 1_555
O15A_2 Nd2 1_555 1_555
O16_2 Nd1 1_555 1_555
O16A_2 Nd1A 1_555 1_555
C5 C6 1_555 1_555
C7 O4 1_555 1_555
C10 O1 1_555 1_555
C19 O9 1_555 1_555
C27 O13 1_555 1_555
Nd1 O10 1_555 1_555
Nd1 O14 1_555 1_555
O6 Nd1A_3 1_555 1_555
O8 Nd1C 1_555 1_555
O11 Nd2A 1_555 1_555
O15 Nd2A 1_555 1_555
C15A C16A 1_555 1_555
C19A O9A 1_555 1_555
C20A O11A 1_555 1_555
C23A C24A 1_555 1_555
C27A O13A 1_555 1_555
O14A Nd1A_3 1_555 1_555
C5A C6A 1_555 1_555
C7A O4A 1_555 1_555
C10A O1A 1_555 1_555
C11A O3A 1_555 1_555
Nd1A O5A 1_555 1_555
Nd2A O2A 1_555 1_555
O6A Nd1_2 1_555 1_555
O8A Nd1B 1_555 1_555
Nd1_2 O5_2 1_555 1_555
Nd1A_3 O5A_2 1_555 1_555

#END
