
#######################################################################
#
#                 Cambridge Crystallographic Data Centre
#                                CCDC 
#
#######################################################################
#
# If this CIF has been generated from an entry in the Cambridge 
# Structural Database, then it will include bibliographic, chemical, 
# crystal, experimental, refinement or atomic coordinate data resulting 
# from the CCDC's data processing and validation procedures.
#
#######################################################################

data_FAVGUH
_chemical_formula_moiety         '(C26 H34 Eu2 O22)n'
_symmetry_cell_setting           monoclinic
_symmetry_space_group_name_H-M   'P 21'
_symmetry_Int_Tables_number      4
_space_group_name_Hall           'P 2yb'
loop_
_symmetry_equiv_pos_site_id
_symmetry_equiv_pos_as_xyz
1 x,y,z
2 -x,1/2+y,-z
_cell_length_a                   11.888(2)
_cell_length_b                   12.475(3)
_cell_length_c                   12.542(3)
_cell_angle_alpha                90
_cell_angle_beta                 98.94(3)
_cell_angle_gamma                90
_cell_volume                     1837.42
loop_
_atom_site_label
_atom_site_type_symbol
_atom_site_fract_x
_atom_site_fract_y
_atom_site_fract_z
C1 C 0.4847(5) 0.3397(5) 0.4898(4)
C2 C 0.3887(5) 0.3743(5) 0.5289(4)
H1 H 0.3260 0.4002 0.4824
C3 C 0.3877(5) 0.3695(5) 0.6407(4)
C4 C 0.4817(5) 0.3338(4) 0.7111(4)
H2 H 0.4798 0.3302 0.7849
C5 C 0.5792(5) 0.3035(5) 0.6695(4)
C6 C 0.5801(5) 0.3041(5) 0.5588(4)
H3 H 0.6441 0.2808 0.5312
C7 C 0.4874(5) 0.3414(5) 0.3703(4)
C8 C 0.2794(5) 0.3802(5) 0.7852(4)
H4 H 0.3032 0.3065 0.8043
C9 C 0.3565(4) 0.4579(5) 0.8591(4)
C10 C 0.1558(5) 0.3925(6) 0.7969(5)
H5 H 0.1110 0.3416 0.7511
H6 H 0.1309 0.4638 0.7764
H7 H 0.1468 0.3799 0.8706
C11 C 0.6929(5) 0.2953(5) 0.8443(4)
H8 H 0.6615 0.3664 0.8552
C12 C 0.6324(4) 0.2128(4) 0.9070(4)
C13 C 0.8187(5) 0.2981(5) 0.8829(5)
H9 H 0.8531 0.3516 0.8433
H10 H 0.8510 0.2293 0.8716
H11 H 0.8325 0.3153 0.9584
C14 C 1.0221(5) 0.5465(5) 0.0910(4)
C15 C 0.9630(5) 0.5485(4) -0.0126(5)
H12 H 1.0003 0.5339 -0.0708
C16 C 0.8463(5) 0.5725(4) -0.0298(5)
C17 C 0.7904(5) 0.5912(5) 0.0572(5)
H13 H 0.7128 0.6060 0.0460
C18 C 0.8517(5) 0.5876(4) 0.1630(4)
C19 C 0.9668(5) 0.5667(4) 0.1797(4)
H14 H 1.0075 0.5659 0.2494
C20 C 1.1459(5) 0.5204(4) 0.1084(4)
C21 C 0.6865(5) 0.5728(5) 0.2478(5)
H15 H 0.6358 0.6199 0.1996
C22 C 0.6725(5) 0.4586(5) 0.2091(4)
C23 C 0.6595(7) 0.5814(6) 0.3638(5)
H16 H 0.6739 0.6532 0.3899
H17 H 0.7069 0.5324 0.4097
H18 H 0.5809 0.5638 0.3641
C24 C 0.6818(5) 0.5994(5) -0.1627(5)
H19 H 0.6339 0.5522 -0.1262
C25 C 0.6613(5) 0.7161(5) -0.1358(4)
C26 C 0.6527(6) 0.5862(6) -0.2854(5)
H20 H 0.6619 0.5125 -0.3042
H21 H 0.7026 0.6301 -0.3200
H22 H 0.5752 0.6077 -0.3088
O1 O 0.5636(4) 0.2852(4) 0.3375(3)
O2 O 0.4170(4) 0.3975(3) 0.3133(3)
O3 O 0.2881(3) 0.3979(3) 0.6748(3)
O4 O 0.3791(4) 0.5455(4) 0.8263(4)
O5 O 0.3905(4) 0.4211(4) 0.9539(3)
O6 O 0.6788(4) 0.2746(4) 0.7324(3)
O7 O 0.6253(3) 0.2384(4) 1.0015(3)
O8 O 0.5929(4) 0.1281(4) 0.8599(4)
O9 O 1.1974(3) 0.4969(4) 0.2003(3)
O10 O 1.1985(3) 0.5221(3) 0.0277(3)
O11 O 0.7974(4) 0.5704(3) -0.1355(3)
O12 O 0.7429(3) 0.7817(3) -0.1227(3)
O13 O 0.5612(3) 0.7452(4) -0.1290(3)
O14 O 0.8020(3) 0.6061(3) 0.2515(3)
O15 O 0.7500(3) 0.3912(3) 0.2322(4)
O16 O 0.5759(3) 0.4315(3) 0.1560(3)
O17 O 0.8246(4) 0.1772(4) 0.1403(3)
H23 H 0.8251 0.1277 0.0937
H24 H 0.8854 0.2142 0.1447
O18 O 0.7637(5) 0.1677(5) 0.3498(3)
H25 H 0.7715 0.1110 0.3138
H26 H 0.8044 0.1629 0.4117
Eu1 Eu 0.372636(19) 0.445727(18) 0.131506(17)
Eu2 Eu 0.64118(2) 0.229324(18) 0.187082(18)
O4A O 0.6209(4) 0.0455(4) 0.1737(4)
O5_2 O 0.3905(4) 0.4211(4) -0.0461(3)
O7_2 O 0.6253(3) 0.2384(4) 0.0015(3)
O8A O 0.4071(4) 0.6281(4) 0.1401(4)
O9_2 O 0.1974(3) 0.4969(4) 0.2003(3)
O10_2 O 0.1985(3) 0.5221(3) 0.0277(3)
O12A O 0.2571(3) 0.2817(3) 0.1227(3)
O13A O 0.4388(3) 0.2452(4) 0.1290(3)
Eu1_2 Eu 0.372636(19) 0.445727(18) 1.131506(17)
Eu1_3 Eu 1.372636(19) 0.445727(18) 0.131506(17)
Eu1A Eu 0.627364(19) -0.054273(18) 0.868494(17)
Eu1A_2 Eu 0.627364(19) 0.945727(18) -0.131506(17)
Eu2_2 Eu 0.64118(2) 0.229324(18) 1.187082(18)
Eu2A Eu 0.35882(2) 0.729324(18) -0.187082(18)
Eu2A_2 Eu 0.35882(2) 0.729324(18) 0.812918(18)
O19 O 1.0431(8) 0.2651(7) 0.2096(7)
H27 H 1.0412 0.2086 0.1714
H28 H 0.9941 0.2561 0.2527
O20 O 0.7950(10) 0.1072(10) 0.5835(9)
H29 H 0.8028 0.1736 0.5770
H30 H 0.7671 0.0815 0.5220
O21 O 1.027(2) 0.093(2) 0.3669(16)
H31 H 0.9563 0.1006 0.3661
H32 H 1.0396 0.0286 0.3508
O22 O 0.972(7) 0.384(5) 0.436(5)
H33 H 0.9083 0.3823 0.3925
H34 H 1.0147 0.4274 0.4154
loop_
_geom_bond_atom_site_label_1
_geom_bond_atom_site_label_2
_geom_bond_site_symmetry_1
_geom_bond_site_symmetry_2
C1 C2 1_555 1_555
C2 H1 1_555 1_555
C3 C2 1_555 1_555
C4 C3 1_555 1_555
H2 C4 1_555 1_555
C5 C4 1_555 1_555
C6 C1 1_555 1_555
H3 C6 1_555 1_555
C7 C1 1_555 1_555
C8 H4 1_555 1_555
C9 C8 1_555 1_555
C10 C8 1_555 1_555
H5 C10 1_555 1_555
H6 C10 1_555 1_555
H7 C10 1_555 1_555
C11 H8 1_555 1_555
C12 C11 1_555 1_555
C13 C11 1_555 1_555
H9 C13 1_555 1_555
H10 C13 1_555 1_555
H11 C13 1_555 1_555
C14 C15 1_555 1_555
C15 H12 1_555 1_555
C16 C15 1_555 1_555
C17 C16 1_555 1_555
H13 C17 1_555 1_555
C18 C17 1_555 1_555
C19 C14 1_555 1_555
H14 C19 1_555 1_555
C20 C14 1_555 1_555
C21 H15 1_555 1_555
C22 C21 1_555 1_555
C23 C21 1_555 1_555
H16 C23 1_555 1_555
H17 C23 1_555 1_555
H18 C23 1_555 1_555
C24 H19 1_555 1_555
C25 C24 1_555 1_555
C26 C24 1_555 1_555
H20 C26 1_555 1_555
H21 C26 1_555 1_555
H22 C26 1_555 1_555
O1 C7 1_555 1_555
O2 C7 1_555 1_555
O3 C3 1_555 1_555
O4 C9 1_555 1_555
O5 C9 1_555 1_555
O6 C5 1_555 1_555
O7 C12 1_555 1_555
O8 C12 1_555 1_555
O9 C20 1_555 1_555
O10 C20 1_555 1_555
O11 C16 1_555 1_555
O12 C25 1_555 1_555
O13 C25 1_555 1_555
O14 C18 1_555 1_555
O15 C22 1_555 1_555
O16 C22 1_555 1_555
O17 H23 1_555 1_555
H24 O17 1_555 1_555
O18 H25 1_555 1_555
H26 O18 1_555 1_555
Eu1 O2 1_555 1_555
Eu2 O1 1_555 1_555
O19 H27 1_555 1_555
H28 O19 1_555 1_555
O20 H29 1_555 1_555
H30 O20 1_555 1_555
O21 H31 1_555 1_555
H32 O21 1_555 1_555
O22 H33 1_555 1_555
H34 O22 1_555 1_555
O4A Eu2 1_555 1_555
O5_2 Eu1 1_555 1_555
O7_2 Eu2 1_555 1_555
O8A Eu1 1_555 1_555
O9_2 Eu1 1_555 1_555
O10_2 Eu1 1_555 1_555
O12A Eu1 1_555 1_555
O13A Eu1 1_555 1_555
Eu1_2 O5 1_555 1_555
Eu1_3 O9 1_555 1_555
Eu1A O8 1_555 1_555
Eu1A_2 O12 1_555 1_555
Eu2_2 O7 1_555 1_555
Eu2A O13 1_555 1_555
Eu2A_2 O4 1_555 1_555
C5 C6 1_555 1_555
C8 O3 1_555 1_555
C11 O6 1_555 1_555
C18 C19 1_555 1_555
C21 O14 1_555 1_555
C24 O11 1_555 1_555
O10 Eu1_3 1_555 1_555
O13 Eu1A_2 1_555 1_555
O15 Eu2 1_555 1_555
O16 Eu1 1_555 1_555
O16 Eu2 1_555 1_555
O17 Eu2 1_555 1_555
O18 Eu2 1_555 1_555
Eu2 O13A 1_555 1_555

#END
