
#######################################################################
#
#                 Cambridge Crystallographic Data Centre
#                                CCDC 
#
#######################################################################
#
# If this CIF has been generated from an entry in the Cambridge 
# Structural Database, then it will include bibliographic, chemical, 
# crystal, experimental, refinement or atomic coordinate data resulting 
# from the CCDC's data processing and validation procedures.
#
#######################################################################

data_FAVGIV
_chemical_formula_moiety         '(C26 H34 O22 Sm2)n'
_symmetry_cell_setting           monoclinic
_symmetry_space_group_name_H-M   'P 21'
_symmetry_Int_Tables_number      4
_space_group_name_Hall           'P 2yb'
loop_
_symmetry_equiv_pos_site_id
_symmetry_equiv_pos_as_xyz
1 x,y,z
2 -x,1/2+y,-z
_cell_length_a                   11.921(2)
_cell_length_b                   12.527(3)
_cell_length_c                   12.552(3)
_cell_angle_alpha                90
_cell_angle_beta                 98.87(3)
_cell_angle_gamma                90
_cell_volume                     1852.03
loop_
_atom_site_label
_atom_site_type_symbol
_atom_site_fract_x
_atom_site_fract_y
_atom_site_fract_z
C1 C 0.4842(6) 0.3390(5) 0.4902(5)
C2 C 0.3887(6) 0.3746(5) 0.5309(6)
H1 H 0.3266 0.4017 0.4850
C3 C 0.3875(5) 0.3690(5) 0.6407(5)
C4 C 0.4821(5) 0.3333(5) 0.7114(5)
H2 H 0.4804 0.3289 0.7851
C5 C 0.5788(5) 0.3044(5) 0.6691(5)
C6 C 0.5797(5) 0.3039(5) 0.5596(5)
H3 H 0.6434 0.2803 0.5321
C7 C 0.4870(5) 0.3412(5) 0.3725(5)
C8 C 0.2795(5) 0.3807(5) 0.7845(5)
H4 H 0.3032 0.3072 0.8030
C9 C 0.3556(5) 0.4570(5) 0.8610(5)
C10 C 0.1555(6) 0.3924(7) 0.7975(7)
H5 H 0.1106 0.3424 0.7511
H6 H 0.1304 0.4637 0.7784
H7 H 0.1470 0.3785 0.8710
C11 C 0.6914(5) 0.2950(5) 0.8442(5)
H8 H 0.6599 0.3656 0.8552
C12 C 0.6321(5) 0.2134(5) 0.9064(5)
C13 C 0.8185(6) 0.2983(6) 0.8835(6)
H9 H 0.8528 0.3514 0.8437
H10 H 0.8510 0.2298 0.8727
H11 H 0.8320 0.3158 0.9588
C14 C 1.0208(5) 0.5465(5) 0.0900(6)
C15 C 0.9621(5) 0.5487(5) -0.0123(6)
H12 H 0.9993 0.5348 -0.0707
C16 C 0.8463(5) 0.5717(5) -0.0290(6)
C17 C 0.7904(5) 0.5912(5) 0.0574(6)
H13 H 0.7131 0.6063 0.0462
C18 C 0.8507(5) 0.5881(5) 0.1616(6)
C19 C 0.9668(5) 0.5663(5) 0.1790(6)
H14 H 1.0074 0.5650 0.2484
C20 C 1.1459(5) 0.5200(5) 0.1079(5)
C21 C 0.6871(5) 0.5724(5) 0.2498(6)
H15 H 0.6364 0.6188 0.2013
C22 C 0.6733(6) 0.4575(6) 0.2101(6)
C23 C 0.6587(7) 0.5811(7) 0.3620(6)
H16 H 0.6750 0.6521 0.3888
H17 H 0.7035 0.5308 0.4081
H18 H 0.5796 0.5660 0.3608
C24 C 0.6817(6) 0.5999(5) -0.1636(6)
H19 H 0.6341 0.5535 -0.1264
C25 C 0.6623(6) 0.7159(6) -0.1358(5)
C26 C 0.6511(7) 0.5851(7) -0.2841(7)
H20 H 0.6621 0.5118 -0.3022
H21 H 0.6987 0.6298 -0.3203
H22 H 0.5730 0.6043 -0.3063
O1 O 0.5635(4) 0.2861(4) 0.3383(4)
O2 O 0.4163(4) 0.3976(4) 0.3145(4)
O3 O 0.2880(4) 0.3981(4) 0.6758(4)
O4 O 0.3790(5) 0.5445(4) 0.8262(4)
O5 O 0.3894(4) 0.4208(4) 0.9542(4)
O6 O 0.6781(4) 0.2749(4) 0.7325(4)
O7 O 0.6257(4) 0.2377(5) 1.0017(4)
O8 O 0.5927(5) 0.1287(4) 0.8597(4)
O9 O 1.1957(4) 0.4967(4) 0.1998(4)
O10 O 1.1977(3) 0.5217(4) 0.0276(4)
O11 O 0.7970(4) 0.5700(4) -0.1355(4)
O12 O 0.7433(4) 0.7808(3) -0.1236(4)
O13 O 0.5616(4) 0.7456(4) -0.1295(4)
O14 O 0.8019(4) 0.6059(4) 0.2515(4)
O15 O 0.7503(4) 0.3915(4) 0.2336(5)
O16 O 0.5770(3) 0.4317(4) 0.1562(4)
O17 O 0.8250(4) 0.1762(4) 0.1406(4)
H23 H 0.8254 0.1267 0.0940
H24 H 0.8857 0.2132 0.1450
O18 O 0.7623(6) 0.1656(6) 0.3508(5)
H25 H 0.7701 0.1089 0.3148
H26 H 0.8030 0.1608 0.4127
Sm1 Sm 0.37249(2) 0.44591(2) 0.13211(2)
Sm2 Sm 0.64169(2) 0.22916(2) 0.18787(2)
O4A O 0.6210(5) 0.0445(4) 0.1738(4)
O5_2 O 0.3894(4) 0.4208(4) -0.0458(4)
O7_2 O 0.6257(4) 0.2377(5) 0.0017(4)
O8A O 0.4073(5) 0.6287(4) 0.1403(4)
O9_2 O 0.1957(4) 0.4967(4) 0.1998(4)
O10_2 O 0.1977(3) 0.5217(4) 0.0276(4)
O12A O 0.2567(4) 0.2808(3) 0.1236(4)
O13A O 0.4384(4) 0.2456(4) 0.1295(4)
Sm1_2 Sm 0.37249(2) 0.44591(2) 1.13211(2)
Sm1_3 Sm 1.37249(2) 0.44591(2) 0.13211(2)
Sm1A Sm 0.62751(2) -0.05409(2) 0.86789(2)
Sm1A_2 Sm 0.62751(2) 0.94591(2) -0.13211(2)
Sm2_2 Sm 0.64169(2) 0.22916(2) 1.18787(2)
Sm2A Sm 0.35831(2) 0.72916(2) -0.18787(2)
Sm2A_2 Sm 0.35831(2) 0.72916(2) 0.81213(2)
O19 O 1.0404(8) 0.2651(8) 0.2088(9)
H27 H 1.0115 0.2935 0.1496
H28 H 1.1093 0.2847 0.2227
O20 O 1.026(3) 0.099(3) 0.362(3)
H29 H 0.9560 0.1177 0.3522
H30 H 1.0327 0.0431 0.3985
O21 O 0.964(4) 0.375(3) 0.419(4)
H31 H 0.9066 0.3836 0.3689
H32 H 0.9934 0.4348 0.4336
O22 O 0.7976(16) 0.1046(14) 0.5893(14)
H33 H 0.7595 0.1391 0.6295
H34 H 0.7551 0.0946 0.5291
loop_
_geom_bond_atom_site_label_1
_geom_bond_atom_site_label_2
_geom_bond_site_symmetry_1
_geom_bond_site_symmetry_2
C1 C2 1_555 1_555
C2 H1 1_555 1_555
C3 C2 1_555 1_555
C4 C3 1_555 1_555
H2 C4 1_555 1_555
C5 C4 1_555 1_555
C6 C1 1_555 1_555
H3 C6 1_555 1_555
C7 C1 1_555 1_555
C8 H4 1_555 1_555
C9 C8 1_555 1_555
C10 C8 1_555 1_555
H5 C10 1_555 1_555
H6 C10 1_555 1_555
H7 C10 1_555 1_555
C11 H8 1_555 1_555
C12 C11 1_555 1_555
C13 C11 1_555 1_555
H9 C13 1_555 1_555
H10 C13 1_555 1_555
H11 C13 1_555 1_555
C14 C15 1_555 1_555
C15 H12 1_555 1_555
C16 C15 1_555 1_555
C17 C16 1_555 1_555
H13 C17 1_555 1_555
C18 C17 1_555 1_555
C19 C14 1_555 1_555
H14 C19 1_555 1_555
C20 C14 1_555 1_555
C21 H15 1_555 1_555
C22 C21 1_555 1_555
C23 C21 1_555 1_555
H16 C23 1_555 1_555
H17 C23 1_555 1_555
H18 C23 1_555 1_555
C24 H19 1_555 1_555
C25 C24 1_555 1_555
C26 C24 1_555 1_555
H20 C26 1_555 1_555
H21 C26 1_555 1_555
H22 C26 1_555 1_555
O1 C7 1_555 1_555
O2 C7 1_555 1_555
O3 C3 1_555 1_555
O4 C9 1_555 1_555
O5 C9 1_555 1_555
O6 C5 1_555 1_555
O7 C12 1_555 1_555
O8 C12 1_555 1_555
O9 C20 1_555 1_555
O10 C20 1_555 1_555
O11 C16 1_555 1_555
O12 C25 1_555 1_555
O13 C25 1_555 1_555
O14 C18 1_555 1_555
O15 C22 1_555 1_555
O16 C22 1_555 1_555
O17 H23 1_555 1_555
H24 O17 1_555 1_555
O18 H25 1_555 1_555
H26 O18 1_555 1_555
Sm1 O2 1_555 1_555
Sm2 O1 1_555 1_555
O19 H27 1_555 1_555
H28 O19 1_555 1_555
O20 H29 1_555 1_555
H30 O20 1_555 1_555
O21 H31 1_555 1_555
H32 O21 1_555 1_555
O22 H33 1_555 1_555
H34 O22 1_555 1_555
O4A Sm2 1_555 1_555
O5_2 Sm1 1_555 1_555
O7_2 Sm2 1_555 1_555
O8A Sm1 1_555 1_555
O9_2 Sm1 1_555 1_555
O10_2 Sm1 1_555 1_555
O12A Sm1 1_555 1_555
O13A Sm1 1_555 1_555
Sm1_2 O5 1_555 1_555
Sm1_3 O9 1_555 1_555
Sm1A O8 1_555 1_555
Sm1A_2 O12 1_555 1_555
Sm2_2 O7 1_555 1_555
Sm2A O13 1_555 1_555
Sm2A_2 O4 1_555 1_555
C5 C6 1_555 1_555
C8 O3 1_555 1_555
C11 O6 1_555 1_555
C18 C19 1_555 1_555
C21 O14 1_555 1_555
C24 O11 1_555 1_555
O10 Sm1_3 1_555 1_555
O13 Sm1A_2 1_555 1_555
O15 Sm2 1_555 1_555
O16 Sm1 1_555 1_555
O16 Sm2 1_555 1_555
O17 Sm2 1_555 1_555
O18 Sm2 1_555 1_555
Sm2 O13A 1_555 1_555

#END
