
#######################################################################
#
#                 Cambridge Crystallographic Data Centre
#                                CCDC 
#
#######################################################################
#
# If this CIF has been generated from an entry in the Cambridge 
# Structural Database, then it will include bibliographic, chemical, 
# crystal, experimental, refinement or atomic coordinate data resulting 
# from the CCDC's data processing and validation procedures.
#
#######################################################################

data_FAVHAO
_chemical_formula_moiety         '(C26 H34 Eu2 O22)n'
_symmetry_cell_setting           monoclinic
_symmetry_space_group_name_H-M   'P 21'
_symmetry_Int_Tables_number      4
_space_group_name_Hall           'P 2yb'
loop_
_symmetry_equiv_pos_site_id
_symmetry_equiv_pos_as_xyz
1 x,y,z
2 -x,1/2+y,-z
_cell_length_a                   11.931(2)
_cell_length_b                   12.485(3)
_cell_length_c                   12.549(3)
_cell_angle_alpha                90
_cell_angle_beta                 98.63(3)
_cell_angle_gamma                90
_cell_volume                     1848.12
loop_
_atom_site_label
_atom_site_type_symbol
_atom_site_fract_x
_atom_site_fract_y
_atom_site_fract_z
C1 C 0.5158(6) 0.6608(6) 0.5101(6)
C2 C 0.6126(6) 0.6250(6) 0.4690(6)
H1 H 0.6751 0.5987 0.5147
C3 C 0.6127(6) 0.6299(6) 0.3589(6)
C4 C 0.5187(6) 0.6664(6) 0.2898(6)
H2 H 0.5207 0.6714 0.2162
C5 C 0.4224(6) 0.6954(6) 0.3312(6)
C6 C 0.4209(6) 0.6966(6) 0.4413(6)
H3 H 0.3574 0.7210 0.4688
C7 C 0.5140(6) 0.6587(6) 0.6283(5)
C8 C 0.7209(6) 0.6195(6) 0.2140(6)
H4 H 0.6977 0.6935 0.1967
C9 C 0.6434(5) 0.5441(6) 0.1388(5)
C10 C 0.8444(7) 0.6072(8) 0.2006(7)
H5 H 0.8893 0.6584 0.2455
H6 H 0.8527 0.6193 0.1267
H7 H 0.8696 0.5361 0.2213
C11 C 0.3097(6) 0.7053(6) 0.1565(6)
H8 H 0.3417 0.6345 0.1458
C12 C 0.3691(5) 0.7870(6) 0.0956(5)
C13 C 0.1815(7) 0.7011(7) 0.1184(7)
H9 H 0.1486 0.6454 0.1564
H10 H 0.1675 0.6865 0.0424
H11 H 0.1482 0.7686 0.1324
C14 C -0.0215(6) 0.4529(6) 0.9092(6)
C15 C 0.0365(6) 0.4508(5) 1.0121(6)
H12 H -0.0010 0.4651 1.0704
C16 C 0.1516(6) 0.4272(6) 1.0287(6)
C17 C 0.2093(6) 0.4092(6) 0.9424(7)
H13 H 0.2869 0.3958 0.9536
C18 C 0.1480(6) 0.4116(6) 0.8378(6)
C19 C 0.0335(6) 0.4344(6) 0.8205(6)
H14 H -0.0063 0.4373 0.7509
C20 C -0.1455(6) 0.4788(6) 0.8911(6)
C21 C 0.3128(6) 0.4277(6) 0.7518(6)
H15 H 0.3624 0.3802 0.8000
C22 C 0.3287(6) 0.5423(7) 0.7909(6)
C23 C 0.3419(7) 0.4195(8) 0.6374(7)
H16 H 0.3225 0.3494 0.6090
H17 H 0.4217 0.4316 0.6390
H18 H 0.2999 0.4724 0.5924
C24 C 0.3169(6) 0.4002(6) 1.1622(7)
H19 H 0.3642 0.4468 1.1245
C25 C 0.3369(6) 0.2841(6) 1.1354(5)
C26 C 0.3459(7) 0.4165(8) 1.2829(7)
H20 H 0.3226 0.4868 1.3014
H21 H 0.4262 0.4091 1.3042
H22 H 0.3072 0.3638 1.3196
O1 O 0.4377(5) 0.7136(4) 0.6628(4)
O2 O 0.5856(4) 0.6024(5) 0.6864(4)
O3 O 0.7119(4) 0.5999(4) 0.3236(4)
O4 O 0.6187(5) 0.4546(5) 0.1725(5)
O5 O 0.6105(4) 0.5800(4) 0.0453(4)
O6 O 0.3233(4) 0.7266(4) 0.2688(4)
O7 O 0.3744(4) 0.7626(6) -0.0011(4)
O8 O 0.4069(6) 0.8711(5) 0.1402(5)
O9 O -0.1965(4) 0.5024(5) 0.7988(4)
O10 O -0.1985(4) 0.4774(4) 0.9725(4)
O11 O 0.2012(5) 0.4288(4) 1.1343(5)
O12 O 0.2573(4) 0.2181(4) 1.1230(5)
O13 O 0.4379(4) 0.2548(4) 1.1298(4)
O14 O 0.1980(4) 0.3951(4) 0.7476(4)
O15 O 0.2507(4) 0.6089(4) 0.7680(5)
O16 O 0.4247(4) 0.5694(4) 0.8445(4)
O17 O 0.1777(4) 0.8229(5) 0.8604(5)
H23 H 0.1773 0.8727 0.9073
H24 H 0.1169 0.7859 0.8560
O18 O 0.2450(6) 0.8389(7) 0.6515(5)
H25 H 0.2372 0.8959 0.6876
H26 H 0.2042 0.8437 0.5894
Eu1 Eu 0.62780(2) 0.55415(2) 0.86776(2)
Eu2 Eu 0.36023(3) 0.77079(2) 0.81338(3)
O4A O 0.3813(5) 0.9546(5) 0.8275(5)
O5_2 O 0.6105(4) 0.5800(4) 1.0453(4)
O7_2 O 0.3744(4) 0.7626(6) 0.9989(4)
O8A O 0.5931(6) 0.3711(5) 0.8598(5)
O9_2 O 0.8035(4) 0.5024(5) 0.7988(4)
O10_2 O 0.8015(4) 0.4774(4) 0.9725(4)
O12A O 0.7427(4) 0.7181(4) 0.8770(5)
O13A O 0.5621(4) 0.7548(4) 0.8702(4)
Eu1_2 Eu -0.37220(2) 0.55415(2) 0.86776(2)
Eu1_3 Eu 0.62780(2) 0.55415(2) -0.13224(2)
Eu1A Eu 0.37220(2) 0.05415(2) 1.13224(2)
Eu1A_2 Eu 0.37220(2) 1.05415(2) 0.13224(2)
Eu2_2 Eu 0.36023(3) 0.77079(2) -0.18662(3)
Eu2A Eu 0.63977(3) 0.27079(2) 0.18662(3)
Eu2A_2 Eu 0.63977(3) 0.27079(2) 1.18662(3)
O19 O -0.0409(8) 0.7274(9) 0.7941(9)
H27 H -0.0357 0.7952 0.7986
H28 H 0.0146 0.7052 0.7645
O20 O 0.2122(16) 0.8904(15) 0.4088(13)
H29 H 0.1477 0.8861 0.4288
H30 H 0.2618 0.8742 0.4628
O21 O 0.029(6) 0.618(5) 0.528(5)
H31 H 0.0380 0.5972 0.5950
H32 H 0.0657 0.5763 0.4921
O22 O 0.042(5) 0.362(6) 1.420(6)
H33 H 0.0006 0.3826 1.3606
H34 H 0.0129 0.2959 1.4437
loop_
_geom_bond_atom_site_label_1
_geom_bond_atom_site_label_2
_geom_bond_site_symmetry_1
_geom_bond_site_symmetry_2
C1 C2 1_555 1_555
C2 H1 1_555 1_555
C3 C2 1_555 1_555
C4 C3 1_555 1_555
H2 C4 1_555 1_555
C5 C4 1_555 1_555
C6 C1 1_555 1_555
H3 C6 1_555 1_555
C7 C1 1_555 1_555
C8 H4 1_555 1_555
C9 C8 1_555 1_555
C10 C8 1_555 1_555
H5 C10 1_555 1_555
H6 C10 1_555 1_555
H7 C10 1_555 1_555
C11 H8 1_555 1_555
C12 C11 1_555 1_555
C13 C11 1_555 1_555
H9 C13 1_555 1_555
H10 C13 1_555 1_555
H11 C13 1_555 1_555
C14 C15 1_555 1_555
C15 H12 1_555 1_555
C16 C15 1_555 1_555
C17 C16 1_555 1_555
H13 C17 1_555 1_555
C18 C17 1_555 1_555
C19 C14 1_555 1_555
H14 C19 1_555 1_555
C20 C14 1_555 1_555
C21 H15 1_555 1_555
C22 C21 1_555 1_555
C23 C21 1_555 1_555
H16 C23 1_555 1_555
H17 C23 1_555 1_555
H18 C23 1_555 1_555
C24 H19 1_555 1_555
C25 C24 1_555 1_555
C26 C24 1_555 1_555
H20 C26 1_555 1_555
H21 C26 1_555 1_555
H22 C26 1_555 1_555
O1 C7 1_555 1_555
O2 C7 1_555 1_555
O3 C3 1_555 1_555
O4 C9 1_555 1_555
O5 C9 1_555 1_555
O6 C5 1_555 1_555
O7 C12 1_555 1_555
O8 C12 1_555 1_555
O9 C20 1_555 1_555
O10 C20 1_555 1_555
O11 C16 1_555 1_555
O12 C25 1_555 1_555
O13 C25 1_555 1_555
O14 C18 1_555 1_555
O15 C22 1_555 1_555
O16 C22 1_555 1_555
O17 H23 1_555 1_555
H24 O17 1_555 1_555
O18 H25 1_555 1_555
H26 O18 1_555 1_555
Eu1 O2 1_555 1_555
Eu2 O1 1_555 1_555
O19 H27 1_555 1_555
H28 O19 1_555 1_555
O20 H29 1_555 1_555
H30 O20 1_555 1_555
O21 H31 1_555 1_555
H32 O21 1_555 1_555
O22 H33 1_555 1_555
H34 O22 1_555 1_555
O4A Eu2 1_555 1_555
O5_2 Eu1 1_555 1_555
O7_2 Eu2 1_555 1_555
O8A Eu1 1_555 1_555
O9_2 Eu1 1_555 1_555
O10_2 Eu1 1_555 1_555
O12A Eu1 1_555 1_555
O13A Eu1 1_555 1_555
Eu1_2 O9 1_555 1_555
Eu1_3 O5 1_555 1_555
Eu1A O12 1_555 1_555
Eu1A_2 O8 1_555 1_555
Eu2_2 O7 1_555 1_555
Eu2A O4 1_555 1_555
Eu2A_2 O13 1_555 1_555
C5 C6 1_555 1_555
C8 O3 1_555 1_555
C11 O6 1_555 1_555
C18 C19 1_555 1_555
C21 O14 1_555 1_555
C24 O11 1_555 1_555
O10 Eu1_2 1_555 1_555
O13 Eu1A 1_555 1_555
O15 Eu2 1_555 1_555
O16 Eu1 1_555 1_555
O16 Eu2 1_555 1_555
O17 Eu2 1_555 1_555
O18 Eu2 1_555 1_555
Eu2 O13A 1_555 1_555

#END
