
#######################################################################
#
#                 Cambridge Crystallographic Data Centre
#                                CCDC 
#
#######################################################################
#
# If this CIF has been generated from an entry in the Cambridge 
# Structural Database, then it will include bibliographic, chemical, 
# crystal, experimental, refinement or atomic coordinate data resulting 
# from the CCDC's data processing and validation procedures.
#
#######################################################################

data_FAVHES
_chemical_formula_moiety         '(C26 H34 O22 Tb2)n'
_symmetry_cell_setting           monoclinic
_symmetry_space_group_name_H-M   'P 21'
_symmetry_Int_Tables_number      4
_space_group_name_Hall           'P 2yb'
loop_
_symmetry_equiv_pos_site_id
_symmetry_equiv_pos_as_xyz
1 x,y,z
2 -x,1/2+y,-z
_cell_length_a                   11.855(2)
_cell_length_b                   12.414(3)
_cell_length_c                   12.473(3)
_cell_angle_alpha                90
_cell_angle_beta                 99.01(3)
_cell_angle_gamma                90
_cell_volume                     1812.98
loop_
_atom_site_label
_atom_site_type_symbol
_atom_site_fract_x
_atom_site_fract_y
_atom_site_fract_z
C1 C 0.4851(5) 0.3395(5) 0.4880(4)
C2 C 0.3892(4) 0.3754(5) 0.5275(4)
H1 H 0.3269 0.4025 0.4808
C3 C 0.3881(4) 0.3699(5) 0.6392(4)
C4 C 0.4820(4) 0.3337(4) 0.7096(4)
H2 H 0.4798 0.3301 0.7838
C5 C 0.5797(4) 0.3029(4) 0.6692(4)
C6 C 0.5811(4) 0.3027(5) 0.5587(4)
H3 H 0.6451 0.2783 0.5314
C7 C 0.4888(4) 0.3416(5) 0.3690(4)
C8 C 0.2786(4) 0.3816(5) 0.7831(4)
H4 H 0.3017 0.3072 0.8013
C9 C 0.3562(4) 0.4579(5) 0.8588(4)
C10 C 0.1545(5) 0.3943(6) 0.7943(5)
H5 H 0.1091 0.3461 0.7451
H6 H 0.1310 0.4672 0.7775
H7 H 0.1445 0.3778 0.8674
C11 C 0.6916(4) 0.2947(5) 0.8444(4)
H8 H 0.6595 0.3661 0.8543
C12 C 0.6317(4) 0.2124(4) 0.9079(4)
C13 C 0.8197(5) 0.2986(5) 0.8848(5)
H9 H 0.8544 0.3511 0.8438
H10 H 0.8524 0.2291 0.8757
H11 H 0.8329 0.3179 0.9602
C14 C 1.0229(4) 0.5454(4) 0.0915(5)
C15 C 0.9627(4) 0.5480(4) -0.0132(5)
H12 H 0.9996 0.5339 -0.0722
C16 C 0.8472(4) 0.5720(4) -0.0290(4)
C17 C 0.7915(4) 0.5912(4) 0.0582(5)
H13 H 0.7137 0.6062 0.0470
C18 C 0.8525(4) 0.5878(4) 0.1635(5)
C19 C 0.9689(4) 0.5652(4) 0.1805(4)
H14 H 1.0099 0.5634 0.2505
C20 C 1.1487(4) 0.5192(4) 0.1085(4)
C21 C 0.6875(4) 0.5729(4) 0.2497(5)
H15 H 0.6367 0.6205 0.2014
C22 C 0.6725(4) 0.4572(5) 0.2102(4)
C23 C 0.6612(6) 0.5815(6) 0.3648(5)
H16 H 0.6805 0.6523 0.3926
H17 H 0.7052 0.5290 0.4099
H18 H 0.5813 0.5686 0.3646
C24 C 0.6803(4) 0.6001(5) -0.1638(5)
H19 H 0.6323 0.5525 -0.1274
C25 C 0.6609(5) 0.7156(5) -0.1352(4)
C26 C 0.6508(5) 0.5872(6) -0.2862(5)
H20 H 0.6590 0.5130 -0.3053
H21 H 0.7014 0.6308 -0.3210
H22 H 0.5734 0.6098 -0.3096
O1 O 0.5646(3) 0.2846(3) 0.3363(3)
O2 O 0.4173(3) 0.3987(3) 0.3107(3)
O3 O 0.2878(3) 0.4002(3) 0.6729(3)
O4 O 0.3798(4) 0.5471(4) 0.8266(4)
O5 O 0.3898(3) 0.4212(3) 0.9539(3)
O6 O 0.6789(3) 0.2728(3) 0.7327(3)
O7 O 0.6264(3) 0.2376(4) 1.0034(3)
O8 O 0.5918(4) 0.1271(3) 0.8610(3)
O9 O 1.2003(3) 0.4963(4) 0.2006(3)
O10 O 1.2001(3) 0.5209(3) 0.0265(3)
O11 O 0.7967(3) 0.5704(3) -0.1361(3)
O12 O 0.7415(3) 0.7827(3) -0.1229(3)
O13 O 0.5594(3) 0.7458(3) -0.1282(3)
O14 O 0.8038(3) 0.6057(3) 0.2530(3)
O15 O 0.7501(3) 0.3900(3) 0.2330(3)
O16 O 0.5764(3) 0.4313(3) 0.1551(3)
O17 O 0.8237(3) 0.1777(4) 0.1416(3)
H23 H 0.8242 0.1280 0.0948
H24 H 0.8846 0.2148 0.1460
O18 O 0.7636(4) 0.1684(5) 0.3497(3)
H25 H 0.7715 0.1115 0.3136
H26 H 0.8046 0.1637 0.4119
Tb1 Tb 0.373622(16) 0.445404(17) 0.130270(16)
Tb2 Tb 0.641688(17) 0.229654(17) 0.186927(16)
O4A O 0.6202(4) 0.0471(4) 0.1734(4)
O5_2 O 0.3898(3) 0.4212(3) -0.0461(3)
O7_2 O 0.6264(3) 0.2376(4) 0.0034(3)
O8A O 0.4082(4) 0.6271(3) 0.1390(3)
O9_2 O 0.2003(3) 0.4963(4) 0.2006(3)
O10_2 O 0.2001(3) 0.5209(3) 0.0265(3)
O12A O 0.2585(3) 0.2827(3) 0.1229(3)
O13A O 0.4406(3) 0.2458(3) 0.1282(3)
Tb1_2 Tb 0.373622(16) 0.445404(17) 1.130270(16)
Tb1_3 Tb 1.373622(16) 0.445404(17) 0.130270(16)
Tb1A Tb 0.626378(16) -0.054596(17) 0.869730(16)
Tb1A_2 Tb 0.626378(16) 0.945404(17) -0.130270(16)
Tb2_2 Tb 0.641688(17) 0.229654(17) 1.186927(16)
Tb2A Tb 0.358312(17) 0.729654(17) -0.186927(16)
Tb2A_2 Tb 0.358312(17) 0.729654(17) 0.813073(16)
O19 O 1.0430(7) 0.2642(7) 0.2145(7)
H27 H 1.0099 0.2992 0.1590
H28 H 1.1146 0.2711 0.2155
O20 O 0.8041(11) 0.1056(10) 0.5863(10)
H29 H 0.7636 0.1405 0.6272
H30 H 0.7610 0.0950 0.5265
O21 O 0.960(3) 0.387(3) 0.416(3)
H31 H 0.9167 0.3912 0.3524
H32 H 1.0050 0.4358 0.4227
O22 O 1.017(2) 0.101(2) 0.363(2)
H33 H 0.9503 0.1106 0.3593
H34 H 1.0410 0.0440 0.3945
loop_
_geom_bond_atom_site_label_1
_geom_bond_atom_site_label_2
_geom_bond_site_symmetry_1
_geom_bond_site_symmetry_2
C1 C2 1_555 1_555
C2 H1 1_555 1_555
C3 C2 1_555 1_555
C4 C3 1_555 1_555
H2 C4 1_555 1_555
C5 C4 1_555 1_555
C6 C1 1_555 1_555
H3 C6 1_555 1_555
C7 C1 1_555 1_555
C8 H4 1_555 1_555
C9 C8 1_555 1_555
C10 C8 1_555 1_555
H5 C10 1_555 1_555
H6 C10 1_555 1_555
H7 C10 1_555 1_555
C11 H8 1_555 1_555
C12 C11 1_555 1_555
C13 C11 1_555 1_555
H9 C13 1_555 1_555
H10 C13 1_555 1_555
H11 C13 1_555 1_555
C14 C15 1_555 1_555
C15 H12 1_555 1_555
C16 C15 1_555 1_555
C17 C16 1_555 1_555
H13 C17 1_555 1_555
C18 C17 1_555 1_555
C19 C14 1_555 1_555
H14 C19 1_555 1_555
C20 C14 1_555 1_555
C21 H15 1_555 1_555
C22 C21 1_555 1_555
C23 C21 1_555 1_555
H16 C23 1_555 1_555
H17 C23 1_555 1_555
H18 C23 1_555 1_555
C24 H19 1_555 1_555
C25 C24 1_555 1_555
C26 C24 1_555 1_555
H20 C26 1_555 1_555
H21 C26 1_555 1_555
H22 C26 1_555 1_555
O1 C7 1_555 1_555
O2 C7 1_555 1_555
O3 C3 1_555 1_555
O4 C9 1_555 1_555
O5 C9 1_555 1_555
O6 C5 1_555 1_555
O7 C12 1_555 1_555
O8 C12 1_555 1_555
O9 C20 1_555 1_555
O10 C20 1_555 1_555
O11 C16 1_555 1_555
O12 C25 1_555 1_555
O13 C25 1_555 1_555
O14 C18 1_555 1_555
O15 C22 1_555 1_555
O16 C22 1_555 1_555
O17 H23 1_555 1_555
H24 O17 1_555 1_555
O18 H25 1_555 1_555
H26 O18 1_555 1_555
Tb1 O2 1_555 1_555
Tb2 O1 1_555 1_555
O19 H27 1_555 1_555
H28 O19 1_555 1_555
O20 H29 1_555 1_555
H30 O20 1_555 1_555
O21 H31 1_555 1_555
H32 O21 1_555 1_555
O22 H33 1_555 1_555
H34 O22 1_555 1_555
O4A Tb2 1_555 1_555
O5_2 Tb1 1_555 1_555
O7_2 Tb2 1_555 1_555
O8A Tb1 1_555 1_555
O9_2 Tb1 1_555 1_555
O10_2 Tb1 1_555 1_555
O12A Tb1 1_555 1_555
O13A Tb1 1_555 1_555
Tb1_2 O5 1_555 1_555
Tb1_3 O9 1_555 1_555
Tb1A O8 1_555 1_555
Tb1A_2 O12 1_555 1_555
Tb2_2 O7 1_555 1_555
Tb2A O13 1_555 1_555
Tb2A_2 O4 1_555 1_555
C5 C6 1_555 1_555
C8 O3 1_555 1_555
C11 O6 1_555 1_555
C18 C19 1_555 1_555
C21 O14 1_555 1_555
C24 O11 1_555 1_555
O10 Tb1_3 1_555 1_555
O13 Tb1A_2 1_555 1_555
O15 Tb2 1_555 1_555
O16 Tb1 1_555 1_555
O16 Tb2 1_555 1_555
O17 Tb2 1_555 1_555
O18 Tb2 1_555 1_555
Tb2 O13A 1_555 1_555

#END
