
#######################################################################
#
#                 Cambridge Crystallographic Data Centre
#                                CCDC 
#
#######################################################################
#
# If this CIF has been generated from an entry in the Cambridge 
# Structural Database, then it will include bibliographic, chemical, 
# crystal, experimental, refinement or atomic coordinate data resulting 
# from the CCDC's data processing and validation procedures.
#
#######################################################################

data_IHOTEG
_chemical_formula_moiety         '(C16 H28 Mg5 O19)n'
_symmetry_cell_setting           tetragonal
_symmetry_space_group_name_H-M   'I 41/a'
_symmetry_Int_Tables_number      88
_space_group_name_Hall           '-I 4ad'
loop_
_symmetry_equiv_pos_site_id
_symmetry_equiv_pos_as_xyz
1 x,y,z
2 1/2-x,-y,1/2+z
3 3/4-y,1/4+x,1/4+z
4 3/4+y,3/4-x,3/4+z
5 1/2+x,1/2+y,1/2+z
6 -x,1/2-y,z
7 1/4-y,3/4+x,3/4+z
8 1/4+y,1/4-x,1/4+z
9 -x,-y,-z
10 1/2+x,y,1/2-z
11 1/4+y,3/4-x,3/4-z
12 1/4-y,1/4+x,1/4-z
13 1/2-x,1/2-y,1/2-z
14 x,1/2+y,-z
15 3/4+y,1/4-x,1/4-z
16 3/4-y,3/4+x,3/4-z
_cell_length_a                   23.193(2)
_cell_length_b                   23.193(2)
_cell_length_c                   12.0690(10)
_cell_angle_alpha                90
_cell_angle_beta                 90
_cell_angle_gamma                90
_cell_volume                     6492.1
loop_
_atom_site_label
_atom_site_type_symbol
_atom_site_fract_x
_atom_site_fract_y
_atom_site_fract_z
_atom_site_U_iso_or_equiv
_atom_site_thermal_displace_type
Mg1 Mg 0.62983(9) 0.54234(9) 0.5001(2) 0.0495 Uani
Mg2 Mg 0.5000 0.5000 0.5000 0.0566 Uani
Mg3 Mg 0.72607(9) 0.45134(9) 0.4604(2) 0.0507 Uani
O1 O 0.67414(18) 0.59824(17) 0.6077(4) 0.0487 Uani
O2 O 0.7256(2) 0.67100(17) 0.6720(4) 0.0547 Uani
O3 O 0.70407(19) 0.53576(18) 0.4006(4) 0.0513 Uani
O4 O 0.7779(2) 0.5500(2) 0.2907(5) 0.0677 Uani
O5 O 0.5907(2) 0.6030(2) 0.4088(5) 0.0657 Uani
O6 O 0.4992(2) 0.5751(2) 0.4131(5) 0.0737 Uani
O7 O 0.56059(19) 0.5330(2) 0.6153(5) 0.0603 Uani
O8 O 0.6161(2) 0.5266(2) 0.7650(5) 0.0663 Uani
O9 O 0.6732(2) 0.4793(2) 0.5778(5) 0.0517 Uani
H1 H 0.654(4) 0.460(4) 0.582(8) 0.0620 Uiso
C1 C 0.6797(3) 0.6501(3) 0.6288(7) 0.0547 Uani
C2 C 0.6284(4) 0.6900(3) 0.6087(9) 0.0867 Uani
H2 H 0.6169 0.6878 0.5306 0.1300 Uiso
H3 H 0.6393 0.7297 0.6269 0.1300 Uiso
H4 H 0.5961 0.6780 0.6556 0.1300 Uiso
C3 C 0.7358(3) 0.5678(3) 0.3422(7) 0.0607 Uani
C4 C 0.7266(5) 0.6303(4) 0.3411(11) 0.1137 Uani
H5 H 0.7188 0.6437 0.4167 0.1700 Uiso
H6 H 0.6936 0.6394 0.2935 0.1700 Uiso
H7 H 0.7612 0.6495 0.3126 0.1700 Uiso
C5 C 0.5387(4) 0.6085(4) 0.3846(8) 0.0730 Uani
C6 C 0.5223(5) 0.6607(5) 0.3195(12) 0.1210 Uani
H8 H 0.5309 0.6542 0.2410 0.1810 Uiso
H9 H 0.5443 0.6940 0.3463 0.1810 Uiso
H10 H 0.4810 0.6681 0.3285 0.1810 Uiso
C7 C 0.5686(3) 0.5249(4) 0.7201(8) 0.0637 Uani
C8 C 0.5174(4) 0.5143(5) 0.7898(8) 0.0937 Uani
H11 H 0.5249 0.4816 0.8391 0.1400 Uiso
H12 H 0.4843 0.5055 0.7424 0.1400 Uiso
H13 H 0.5091 0.5487 0.8341 0.1400 Uiso
Mg1H Mg 0.37017(9) 0.45766(9) 0.4999(2) 0.0495 Uani
Mg3H Mg 0.27393(9) 0.54866(9) 0.5396(2) 0.0507 Uani
O1H O 0.32586(18) 0.40176(17) 0.3923(4) 0.0487 Uani
O2H O 0.2744(2) 0.32900(17) 0.3280(4) 0.0547 Uani
O3H O 0.29593(19) 0.46424(18) 0.5994(4) 0.0513 Uani
O4H O 0.2221(2) 0.4500(2) 0.7093(5) 0.0677 Uani
O5H O 0.4093(2) 0.3970(2) 0.5912(5) 0.0657 Uani
O6H O 0.5008(2) 0.4249(2) 0.5869(5) 0.0737 Uani
O7H O 0.43941(19) 0.4670(2) 0.3847(5) 0.0603 Uani
O8H O 0.3839(2) 0.4734(2) 0.2350(5) 0.0663 Uani
O9H O 0.3268(2) 0.5207(2) 0.4222(5) 0.0517 Uani
H1H H 0.346(4) 0.540(4) 0.418(8) 0.0620 Uiso
C1H C 0.3203(3) 0.3499(3) 0.3712(7) 0.0547 Uani
C2H C 0.3716(4) 0.3100(3) 0.3913(9) 0.0867 Uani
H2H H 0.3831 0.3122 0.4694 0.1300 Uiso
H3H H 0.3607 0.2703 0.3731 0.1300 Uiso
H4H H 0.4039 0.3220 0.3444 0.1300 Uiso
C3H C 0.2642(3) 0.4322(3) 0.6578(7) 0.0607 Uani
C4H C 0.2734(5) 0.3697(4) 0.6589(11) 0.1137 Uani
H5H H 0.2812 0.3563 0.5833 0.1700 Uiso
H6H H 0.3064 0.3606 0.7065 0.1700 Uiso
H7H H 0.2388 0.3505 0.6874 0.1700 Uiso
C5H C 0.4613(4) 0.3915(4) 0.6154(8) 0.0730 Uani
C6H C 0.4777(5) 0.3393(5) 0.6805(12) 0.1210 Uani
H8H H 0.4691 0.3458 0.7590 0.1810 Uiso
H9H H 0.4557 0.3060 0.6537 0.1810 Uiso
H10H H 0.5190 0.3319 0.6715 0.1810 Uiso
C7H C 0.4314(3) 0.4751(4) 0.2799(8) 0.0637 Uani
C8H C 0.4826(4) 0.4857(5) 0.2102(8) 0.0937 Uani
H11H H 0.4751 0.5184 0.1609 0.1400 Uiso
H12H H 0.5157 0.4945 0.2576 0.1400 Uiso
H13H H 0.4909 0.4513 0.1659 0.1400 Uiso
Mg1G Mg 0.79234(9) 0.62017(9) 0.7501(2) 0.0495 Uani
Mg1O Mg 0.20766(9) 0.37983(9) 0.2499(2) 0.0495 Uani
Mg2C Mg 0.2500 0.2500 0.2500 0.0566 Uani
Mg2G Mg 0.7500 0.7500 0.7500 0.0566 Uani
Mg3F Mg 0.79866(9) 0.47607(9) 0.2104(2) 0.0507 Uani
Mg3G Mg 0.70134(9) 0.52393(9) 0.7104(2) 0.0507 Uani
Mg3N Mg 0.20134(9) 0.52393(9) 0.7896(2) 0.0507 Uani
Mg3O Mg 0.29866(9) 0.47607(9) 0.2896(2) 0.0507 Uani
O1F O 0.65176(17) 0.42414(18) 0.3577(4) 0.0487 Uani
O1N O 0.34824(17) 0.57586(18) 0.6423(4) 0.0487 Uani
O2F O 0.57900(17) 0.4756(2) 0.4220(4) 0.0547 Uani
O2N O 0.42100(17) 0.5244(2) 0.5780(4) 0.0547 Uani
O4G O 0.8000(2) 0.4721(2) 0.5407(5) 0.0677 Uani
O4O O 0.2000(2) 0.5279(2) 0.4593(5) 0.0677 Uani
O8F O 0.7234(2) 0.3661(2) 0.5150(5) 0.0663 Uani
O8N O 0.2766(2) 0.6339(2) 0.4850(5) 0.0663 Uani
O9F O 0.7707(2) 0.4232(2) 0.3278(5) 0.0517 Uani
O9N O 0.2293(2) 0.5768(2) 0.6722(5) 0.0517 Uani
O10 O 0.6193(12) 0.3790(13) 0.693(3) 0.2370 Uiso
loop_
_atom_site_aniso_label
_atom_site_aniso_U_11
_atom_site_aniso_U_22
_atom_site_aniso_U_33
_atom_site_aniso_U_23
_atom_site_aniso_U_13
_atom_site_aniso_U_12
Mg1 0.0357(11) 0.0396(12) 0.0731(17) -0.0089(11) -0.0047(11) 0.0015(9)
Mg2 0.0287(15) 0.057(2) 0.084(3) -0.0210(18) -0.0006(16) 0.0036(13)
Mg3 0.0387(12) 0.0389(12) 0.0745(18) -0.0057(11) -0.0001(11) 0.0012(9)
O1 0.044(3) 0.029(2) 0.073(3) -0.005(2) -0.008(2) 0.0006(18)
O2 0.053 0.028 0.083 0 -0.023 -0.0015
O3 0.042(3) 0.039(3) 0.073(4) 0.000(2) 0.002(2) 0.001(2)
O4 0.068 0.045 0.09 -0.009 0.021 -0.012
O5 0.050(3) 0.051(3) 0.096(4) 0.000(3) -0.023(3) 0.007(2)
O6 0.044 0.067 0.11 -0.011 -0.008 0.005
O7 0.037(3) 0.063(3) 0.081(5) -0.018(3) -0.001(3) -0.001(2)
O8 0.041 0.079 0.079 -0.007 -0.004 -0.006
O9 0.040(3) 0.040(3) 0.075(4) -0.009(2) 0.000(2) -0.0048(19)
C1 0.050(4) 0.042(4) 0.072(5) 0.005(4) -0.018(4) 0.003(3)
C2 0.071(5) 0.044(4) 0.145(9) -0.023(5) -0.050(6) 0.021(4)
C3 0.063(5) 0.044(4) 0.075(6) -0.005(4) 0.017(4) -0.003(4)
C4 0.117(7) 0.077(6) 0.147(8) 0.003(6) 0.062(7) 0.008(5)
C5 0.060(5) 0.060(5) 0.099(7) -0.011(5) -0.021(5) 0.009(4)
C6 0.095(7) 0.097(7) 0.171(11) 0.043(8) -0.040(7) 0.008(6)
C7 0.049(5) 0.070(5) 0.072(7) -0.014(4) -0.004(4) 0.003(4)
C8 0.047(5) 0.150(10) 0.084(7) -0.006(6) 0.009(4) -0.018(5)
Mg1H 0.0357 0.0396 0.0731 -0.0089 -0.0047 0.0015
Mg3H 0.0387 0.0389 0.0745 -0.0057 -0.0001 0.0012
O1H 0.044 0.029 0.073 -0.005 -0.008 0.0006
O2H 0.053 0.028 0.083 0 -0.023 -0.0015
O3H 0.042 0.039 0.073 0 0.002 0.001
O4H 0.068 0.045 0.09 -0.009 0.021 -0.012
O5H 0.05 0.051 0.096 0 -0.023 0.007
O6H 0.044 0.067 0.11 -0.011 -0.008 0.005
O7H 0.037 0.063 0.081 -0.018 -0.001 -0.001
O8H 0.041 0.079 0.079 -0.007 -0.004 -0.006
O9H 0.04 0.04 0.075 -0.009 0 -0.0048
C1H 0.05 0.042 0.072 0.005 -0.018 0.003
C2H 0.071 0.044 0.145 -0.023 -0.05 0.021
C3H 0.063 0.044 0.075 -0.005 0.017 -0.003
C4H 0.117 0.077 0.147 0.003 0.062 0.008
C5H 0.06 0.06 0.099 -0.011 -0.021 0.009
C6H 0.095 0.097 0.171 0.043 -0.04 0.008
C7H 0.049 0.07 0.072 -0.014 -0.004 0.003
C8H 0.047 0.15 0.084 -0.006 0.009 -0.018
Mg1G 0.0396 0.0357 0.0731 0.0047 -0.0089 -0.0015
Mg1O 0.0396 0.0357 0.0731 0.0047 -0.0089 -0.0015
Mg2C 0.057 0.0287 0.084 0.0006 -0.021 -0.0036
Mg2G 0.057 0.0287 0.084 0.0006 -0.021 -0.0036
Mg3F 0.0389 0.0387 0.0745 -0.0001 0.0057 -0.0012
Mg3G 0.0389 0.0387 0.0745 0.0001 -0.0057 -0.0012
Mg3N 0.0389 0.0387 0.0745 -0.0001 0.0057 -0.0012
Mg3O 0.0389 0.0387 0.0745 0.0001 -0.0057 -0.0012
O1F 0.029 0.044 0.073 -0.008 0.005 -0.0006
O1N 0.029 0.044 0.073 -0.008 0.005 -0.0006
O2F 0.028 0.053 0.083 -0.023 0 0.0015
O2N 0.028 0.053 0.083 -0.023 0 0.0015
O4G 0.045 0.068 0.09 -0.021 -0.009 0.012
O4O 0.045 0.068 0.09 -0.021 -0.009 0.012
O8F 0.079 0.041 0.079 -0.004 0.007 0.006
O8N 0.079 0.041 0.079 -0.004 0.007 0.006
O9F 0.04 0.04 0.075 0 0.009 0.0048
O9N 0.04 0.04 0.075 0 0.009 0.0048
loop_
_geom_bond_atom_site_label_1
_geom_bond_atom_site_label_2
_geom_bond_site_symmetry_1
_geom_bond_site_symmetry_2
Mg1 O1 1_555 1_555
Mg2 O6 1_555 1_555
Mg3 O3 1_555 1_555
O1 C1 1_555 1_555
O2 C1 1_555 1_555
O3 Mg1 1_555 1_555
O4 C3 1_555 1_555
O5 Mg1 1_555 1_555
O6 C5 1_555 1_555
O7 Mg1 1_555 1_555
O8 C7 1_555 1_555
O9 Mg1 1_555 1_555
H1 O9 1_555 1_555
C1 C2 1_555 1_555
C2 H2 1_555 1_555
H3 C2 1_555 1_555
H4 C2 1_555 1_555
C3 O3 1_555 1_555
C4 C3 1_555 1_555
H5 C4 1_555 1_555
H6 C4 1_555 1_555
H7 C4 1_555 1_555
C5 O5 1_555 1_555
C6 C5 1_555 1_555
H8 C6 1_555 1_555
H9 C6 1_555 1_555
H10 C6 1_555 1_555
C7 O7 1_555 1_555
C8 C7 1_555 1_555
H11 C8 1_555 1_555
H12 C8 1_555 1_555
H13 C8 1_555 1_555
Mg1H O1H 1_555 1_555
Mg3H O3H 1_555 1_555
O1H C1H 1_555 1_555
O2H C1H 1_555 1_555
O3H Mg1H 1_555 1_555
O4H C3H 1_555 1_555
O5H Mg1H 1_555 1_555
O6H Mg2 1_555 1_555
O7H Mg2 1_555 1_555
O8H C7H 1_555 1_555
O9H Mg1H 1_555 1_555
H1H O9H 1_555 1_555
C1H C2H 1_555 1_555
C2H H2H 1_555 1_555
H3H C2H 1_555 1_555
H4H C2H 1_555 1_555
C3H O3H 1_555 1_555
C4H C3H 1_555 1_555
H5H C4H 1_555 1_555
H6H C4H 1_555 1_555
H7H C4H 1_555 1_555
C5H O5H 1_555 1_555
C6H C5H 1_555 1_555
H8H C6H 1_555 1_555
H9H C6H 1_555 1_555
H10H C6H 1_555 1_555
C7H O7H 1_555 1_555
C8H C7H 1_555 1_555
H11H C8H 1_555 1_555
H12H C8H 1_555 1_555
H13H C8H 1_555 1_555
Mg1G O2 1_555 1_555
Mg1O O2H 1_555 1_555
Mg2C O2H 1_555 1_555
Mg2G O2 1_555 1_555
Mg3F O4 1_555 1_555
Mg3G O1 1_555 1_555
Mg3N O4H 1_555 1_555
Mg3O O1H 1_555 1_555
O1F Mg3 1_555 1_555
O1N Mg3H 1_555 1_555
O2F Mg1 1_555 1_555
O2N Mg2 1_555 1_555
O4G Mg3 1_555 1_555
O4O Mg3H 1_555 1_555
O8F Mg3 1_555 1_555
O8N Mg3H 1_555 1_555
O9F Mg3 1_555 1_555
O9N Mg3H 1_555 1_555
Mg2 O7 1_555 1_555
Mg2 O2F 1_555 1_555
Mg3 O9 1_555 1_555
O8 Mg3G 1_555 1_555
O9 Mg3G 1_555 1_555
Mg1H O7H 1_555 1_555
Mg1H O2N 1_555 1_555
Mg3H O9H 1_555 1_555
O6H C5H 1_555 1_555
O8H Mg3O 1_555 1_555
O9H Mg3O 1_555 1_555
Mg3F O9F 1_555 1_555
Mg3N O9N 1_555 1_555

#END
