
#######################################################################
#
#                 Cambridge Crystallographic Data Centre
#                                CCDC 
#
#######################################################################
#
# If this CIF has been generated from an entry in the Cambridge 
# Structural Database, then it will include bibliographic, chemical, 
# crystal, experimental, refinement or atomic coordinate data resulting 
# from the CCDC's data processing and validation procedures.
#
#######################################################################

data_IQEKOG
_chemical_formula_moiety         '(C31 H39 N11 O14 Zn2)n'
_symmetry_cell_setting           orthorhombic
_symmetry_space_group_name_H-M   'P c c n'
_symmetry_Int_Tables_number      56
_space_group_name_Hall           '-P 2ab 2ac'
loop_
_symmetry_equiv_pos_site_id
_symmetry_equiv_pos_as_xyz
1 x,y,z
2 1/2-x,1/2-y,z
3 -x,1/2+y,1/2-z
4 1/2+x,-y,1/2-z
5 -x,-y,-z
6 1/2+x,1/2+y,-z
7 x,1/2-y,1/2+z
8 1/2-x,y,1/2+z
_cell_length_a                   18.087(6)
_cell_length_b                   24.867(11)
_cell_length_c                   17.611(8)
_cell_angle_alpha                90
_cell_angle_beta                 90
_cell_angle_gamma                90
_cell_volume                     7920.89
loop_
_atom_site_label
_atom_site_type_symbol
_atom_site_fract_x
_atom_site_fract_y
_atom_site_fract_z
Zn1 Zn 0.03642(7) 0.56437(4) 0.18593(6)
Zn2 Zn -0.06286(7) 0.31804(4) 0.24036(6)
C1 C 0.0247(6) 0.5171(4) 0.3419(5)
C2 C -0.1647(6) 0.1839(3) 0.2683(5)
C3 C -0.0150(5) 0.4384(3) 0.1786(5)
C4 C 0.0380(6) 0.4410(3) -0.0277(5)
H1 H 0.0810 0.4473 -0.0574
C5 C -0.0844(7) 0.4177(4) -0.0211(5)
H2 H -0.1296 0.4083 -0.0452
C6 C 0.0939(7) 0.1326(4) 0.3005(5)
C7 C -0.0333(6) 0.3902(4) 0.3675(5)
C8 C 0.0296(6) 0.1683(3) 0.2909(5)
C9 C -0.0218(6) 0.4223(3) 0.2985(5)
C10 C 0.0239(6) 0.2228(4) 0.2760(5)
C11 C 0.0041(5) 0.4741(3) 0.2884(5)
C12 C -0.0869(6) 0.1892(3) 0.2768(5)
C13 C -0.0185(5) 0.4325(3) 0.0944(5)
C14 C 0.0437(6) 0.4434(4) 0.0497(5)
H3 H 0.0894 0.4525 0.0729
C15 C -0.0826(6) 0.4180(4) 0.0577(5)
H4 H -0.1253 0.4082 0.0860
C16 C -0.2883(8) 0.1775(8) 0.3138(7)
H5 H -0.3188 0.1755 0.3576
C17 C 0.1906(8) 0.5345(5) 0.2216(7)
H6 H 0.1729 0.5303 0.2721
C18 C 0.0802(7) 0.2644(4) 0.2659(6)
C19 C 0.3075(9) 0.5057(10) 0.2684(12)
H7 H 0.2798 0.5045 0.3162
H8 H 0.3488 0.5310 0.2733
H9 H 0.3268 0.4698 0.2567
C20 C -0.2002(14) 0.1839(8) 0.2030(13)
H10 H -0.1711 0.1848 0.1581
C21 C -0.0694(11) 0.2741(6) -0.0266(8)
H11 H -0.0813 0.2358 -0.0319
H12 H -0.0620 0.2899 -0.0770
H13 H -0.1102 0.2925 -0.0008
C22 C -0.0081(9) 0.2926(5) 0.0879(7)
H14 H 0.0372 0.2959 0.1148
C23 C -0.2786(10) 0.1828(11) 0.1935(8)
H15 H -0.2998 0.1863 0.1444
C24 C 0.2881(9) 0.5299(8) 0.1309(10)
H16 H 0.3139 0.4970 0.1153
H17 H 0.3226 0.5603 0.1298
H18 H 0.2470 0.5369 0.0961
C25 C 0.0707(12) 0.2736(11) -0.0222(11)
H19 H 0.1103 0.2842 0.0127
H20 H 0.0721 0.2966 -0.0674
H21 H 0.0775 0.2360 -0.0374
C26 C -0.2138(12) 0.1804(7) 0.3239(11)
H22 H -0.1957 0.1800 0.3746
N1 N -0.0034(9) 0.2799(5) 0.0170(6)
N2 N -0.0349(4) 0.4000(3) 0.2282(4)
N3 N 0.0093(4) 0.4842(3) 0.2118(4)
N4 N -0.0404(5) 0.1482(3) 0.2924(4)
N5 N -0.0482(5) 0.2364(3) 0.2662(4)
N6 N -0.3188(5) 0.1772(3) 0.2501(4)
N7 N 0.2594(7) 0.5230(4) 0.2081(7)
N8 N -0.0278(5) 0.4296(3) -0.0645(4)
O1 O -0.0531(4) 0.3422(2) 0.3596(3)
O2 O -0.0222(4) 0.4126(3) 0.4320(3)
O3 O 0.0450(4) 0.5609(2) 0.3169(3)
O4 O 0.0176(4) 0.5074(3) 0.4134(4)
H23 H -0.0274 0.5034 0.4239
O5 O 0.0806(4) 0.0845(2) 0.3085(4)
O6 O 0.1586(5) 0.1535(3) 0.3009(4)
O7 O 0.0632(4) 0.3101(3) 0.2462(5)
O8 O 0.1487(5) 0.2510(3) 0.2781(5)
H24 H 0.1709 0.2480 0.2364
O9 O 0.1466(4) 0.5506(3) 0.1727(4)
O10 O -0.0652(5) 0.3007(3) 0.1244(4)
Zn1B Zn -0.03642(7) 0.06437(4) 0.31407(6)
Zn1D Zn -0.03642(7) 0.43563(4) -0.18593(6)
Zn2A Zn -0.43714(7) 0.18196(4) 0.24036(6)
N4B N 0.0404(5) 0.6482(3) 0.2076(4)
N6A N -0.1812(5) 0.3228(3) 0.2501(4)
N8D N 0.0278(5) 0.5704(3) 0.0645(4)
O5B O -0.0806(4) 0.5845(2) 0.1915(4)
C27 C 0.7321(17) 0.6721(11) 0.0564(18)
H25 H 0.7497 0.6917 0.1012
H26 H 0.6865 0.6887 0.0377
H27 H 0.7699 0.6733 0.0166
C28 C 0.6674(14) 0.6048(13) 0.1353(19)
H28 H 0.6246 0.6280 0.1262
H29 H 0.6907 0.6146 0.1836
H30 H 0.6513 0.5672 0.1375
C29 C 0.750(2) 0.5710(16) 0.053(2)
H31 H 0.7833 0.5814 0.0138
N9 N 0.7161(10) 0.6108(6) 0.0790(9)
O11 O 0.7522(18) 0.5267(9) 0.0628(17)
C30 C 0.3154(16) 0.6230(15) 0.9773(13)
H32 H 0.3531 0.6493 0.9837
N10 N 0.3363(10) 0.5758(10) 0.9586(8)
H33 H 0.3033 0.5502 0.9520
H34 H 0.3836 0.5688 0.9522
O12 O 0.2518(8) 0.6378(6) 0.9878(6)
C31 C 0.1968(13) 0.3726(8) 0.1588(16)
H35 H 0.1528 0.3807 0.1859
N11 N 0.2321(10) 0.3211(7) 0.1628(10)
H36 H 0.2729 0.3151 0.1369
H37 H 0.2130 0.2955 0.1912
O13 O 0.2283(8) 0.4060(6) 0.1170(10)
O14 O 0.7500 0.2500 0.9978(16)
loop_
_geom_bond_atom_site_label_1
_geom_bond_atom_site_label_2
_geom_bond_site_symmetry_1
_geom_bond_site_symmetry_2
Zn1 N3 1_555 1_555
Zn2 N2 1_555 1_555
C1 C11 1_555 1_555
C2 C12 1_555 1_555
C3 C13 1_555 1_555
C4 H1 1_555 1_555
C5 H2 1_555 1_555
C6 C8 1_555 1_555
C7 C9 1_555 1_555
C8 C10 1_555 1_555
C9 C11 1_555 1_555
C10 C18 1_555 1_555
C11 N3 1_555 1_555
C12 N4 1_555 1_555
C13 C14 1_555 1_555
C14 C4 1_555 1_555
H3 C14 1_555 1_555
C15 C5 1_555 1_555
H4 C15 1_555 1_555
C16 H5 1_555 1_555
C17 H6 1_555 1_555
C18 O7 1_555 1_555
C19 H7 1_555 1_555
H8 C19 1_555 1_555
H9 C19 1_555 1_555
C20 C2 1_555 1_555
H10 C20 1_555 1_555
C21 H11 1_555 1_555
H12 C21 1_555 1_555
H13 C21 1_555 1_555
C22 H14 1_555 1_555
C23 C20 1_555 1_555
H15 C23 1_555 1_555
C24 H16 1_555 1_555
H17 C24 1_555 1_555
H18 C24 1_555 1_555
C25 H19 1_555 1_555
H20 C25 1_555 1_555
H21 C25 1_555 1_555
C26 C2 1_555 1_555
H22 C26 1_555 1_555
N1 C21 1_555 1_555
N2 C3 1_555 1_555
N3 C3 1_555 1_555
N4 C8 1_555 1_555
N5 Zn2 1_555 1_555
N6 C16 1_555 1_555
N7 C17 1_555 1_555
N8 C4 1_555 1_555
O1 Zn2 1_555 1_555
O2 C7 1_555 1_555
O3 Zn1 1_555 1_555
O4 C1 1_555 1_555
H23 O4 1_555 1_555
O5 C6 1_555 1_555
O6 C6 1_555 1_555
O7 Zn2 1_555 1_555
O8 C18 1_555 1_555
H24 O8 1_555 1_555
O9 Zn1 1_555 1_555
O10 Zn2 1_555 1_555
C27 H25 1_555 1_555
H26 C27 1_555 1_555
H27 C27 1_555 1_555
C28 H28 1_555 1_555
H29 C28 1_555 1_555
H30 C28 1_555 1_555
C29 H31 1_555 1_555
N9 C27 1_555 1_555
O11 C29 1_555 1_555
C30 H32 1_555 1_555
N10 C30 1_555 1_555
H33 N10 1_555 1_555
H34 N10 1_555 1_555
O12 C30 1_555 1_555
C31 H35 1_555 1_555
N11 C31 1_555 1_555
H36 N11 1_555 1_555
H37 N11 1_555 1_555
O13 C31 1_555 1_555
Zn1B N4 1_555 1_555
Zn1D N8 1_555 1_555
Zn2A N6 1_555 1_555
N4B Zn1 1_555 1_555
N6A Zn2 1_555 1_555
N8D Zn1 1_555 1_555
O5B Zn1 1_555 1_555
C1 O3 1_555 1_555
C5 N8 1_555 1_555
C7 O1 1_555 1_555
C9 N2 1_555 1_555
C10 N5 1_555 1_555
C12 N5 1_555 1_555
C13 C15 1_555 1_555
C16 C26 1_555 1_555
C17 O9 1_555 1_555
C19 N7 1_555 1_555
C22 N1 1_555 1_555
C22 O10 1_555 1_555
C23 N6 1_555 1_555
C24 N7 1_555 1_555
C25 N1 1_555 1_555
O5 Zn1B 1_555 1_555
C28 N9 1_555 1_555
C29 N9 1_555 1_555

#END
