
#######################################################################
#
#                 Cambridge Crystallographic Data Centre
#                                CCDC 
#
#######################################################################
#
# If this CIF has been generated from an entry in the Cambridge 
# Structural Database, then it will include bibliographic, chemical, 
# crystal, experimental, refinement or atomic coordinate data resulting 
# from the CCDC's data processing and validation procedures.
#
#######################################################################

data_PURJES
_chemical_formula_moiety         '(C45 H54 N4 O17 Zn2)n'
_symmetry_cell_setting           triclinic
_symmetry_space_group_name_H-M   'P -1'
_symmetry_Int_Tables_number      2
_space_group_name_Hall           '-P 1'
loop_
_symmetry_equiv_pos_site_id
_symmetry_equiv_pos_as_xyz
1 x,y,z
2 -x,-y,-z
_cell_length_a                   6.9314(14)
_cell_length_b                   12.382(2)
_cell_length_c                   27.738(5)
_cell_angle_alpha                96.641(3)
_cell_angle_beta                 91.231(2)
_cell_angle_gamma                104.221(2)
_cell_volume                     2289.09
loop_
_atom_site_label
_atom_site_type_symbol
_atom_site_fract_x
_atom_site_fract_y
_atom_site_fract_z
Zn1 Zn 0.70347(17) 0.57231(10) 0.50363(4)
Zn2 Zn -1.0111(2) 0.36483(12) 0.00899(5)
O1 O 0.9865(11) 0.6560(7) 0.5079(3)
O2 O 0.5739(12) 0.6463(9) 0.4556(4)
O3 O 0.2674(12) 0.5432(8) 0.4519(4)
O4 O 0.2062(11) 0.8873(6) 0.3028(3)
O5 O -0.2043(11) 1.0483(6) 0.2932(3)
O6 O -0.2720(14) 1.4540(8) 0.4475(4)
O7 O -0.5807(12) 1.3500(8) 0.4418(3)
O8 O -0.1338(10) 0.8192(6) 0.1768(3)
O9 O -0.7317(12) 0.4470(7) 0.0326(3)
O10 O -0.9194(12) 0.5667(7) 0.0493(3)
O11 O 0.1677(11) 1.0569(6) 0.1846(3)
O12 O 0.9543(13) 1.2832(8) 0.0821(3)
O13 O 0.7217(12) 1.3228(7) 0.0379(3)
O14 O -0.9665(18) 0.2244(8) -0.0266(3)
N1 N -0.783(2) 0.1020(10) -0.0413(5)
C1 C 0.3982(16) 0.6216(10) 0.4394(4)
C2 C 0.3431(16) 0.6901(9) 0.4034(4)
C3 C 0.1467(16) 0.6725(9) 0.3862(4)
H1 H 0.0461 0.6157 0.3976
C4 C 0.0950(16) 0.7365(9) 0.3523(4)
H2 H -0.0401 0.7243 0.3412
C5 C 0.2400(17) 0.8171(10) 0.3353(4)
C6 C 0.4383(17) 0.8349(10) 0.3519(5)
H3 H 0.5392 0.8905 0.3398
C7 C 0.4873(17) 0.7728(11) 0.3854(5)
H4 H 0.6224 0.7861 0.3967
C8 C 0.0133(16) 0.8623(9) 0.2780(4)
H5 H -0.0914 0.8601 0.3018
H6 H -0.0136 0.7880 0.2580
C9 C 0.0119(15) 0.9527(8) 0.2460(4)
C10 C -0.0086(15) 1.0623(8) 0.2763(4)
H7 H 0.0895 1.0819 0.3044
H8 H 0.0201 1.1246 0.2561
C11 C -0.2395(16) 1.1364(9) 0.3237(4)
C12 C -0.4379(17) 1.1238(10) 0.3353(4)
H9 H -0.5381 1.0617 0.3200
C13 C -0.4878(17) 1.2017(10) 0.3689(4)
H10 H -0.6228 1.1917 0.3772
C14 C -0.3476(16) 1.2933(10) 0.3907(4)
C15 C -0.1491(18) 1.3070(9) 0.3773(4)
H11 H -0.0498 1.3709 0.3914
C16 C -0.0975(17) 1.2291(9) 0.3442(4)
H12 H 0.0369 1.2393 0.3355
C17 C -0.4022(17) 1.3741(10) 0.4296(4)
C18 C -0.1760(15) 0.9084(9) 0.2099(4)
H13 H -0.2963 0.8797 0.2278
H14 H -0.1985 0.9692 0.1920
C19 C -0.2904(17) 0.7535(9) 0.1472(4)
C20 C -0.2522(17) 0.6602(9) 0.1203(4)
H15 H -0.1249 0.6448 0.1227
C21 C -0.4045(17) 0.5898(10) 0.0897(4)
H16 H -0.3824 0.5234 0.0725
C22 C -0.5840(17) 0.6134(10) 0.0839(4)
C23 C -0.6177(19) 0.7110(11) 0.1105(5)
H17 H -0.7428 0.7286 0.1069
C24 C -0.4683(18) 0.7814(11) 0.1418(5)
H18 H -0.4893 0.8479 0.1592
C25 C -0.7550(18) 0.5373(11) 0.0527(4)
C26 C 0.1992(15) 0.9820(9) 0.2185(4)
H19 H 0.3147 1.0192 0.2412
H20 H 0.2257 0.9133 0.2009
C27 C 0.3289(16) 1.1156(9) 0.1620(4)
C28 C 0.5210(17) 1.1085(10) 0.1691(4)
H21 H 0.5530 1.0645 0.1925
C29 C 0.6689(16) 1.1661(10) 0.1419(4)
H22 H 0.8025 1.1615 0.1469
C30 C 0.6236(16) 1.2300(9) 0.1075(4)
C31 C 0.4276(16) 1.2404(10) 0.1023(4)
H23 H 0.3952 1.2858 0.0796
C32 C 0.2824(17) 1.1853(10) 0.1300(4)
H24 H 0.1508 1.1946 0.1272
C33 C 0.7778(17) 1.2815(10) 0.0742(4)
C34 C -0.809(3) 0.2001(11) -0.0230(5)
H25 H -0.6987 0.2540 -0.0064
C35 C -0.949(3) 0.0177(13) -0.0676(6)
H26 H -0.9550 -0.0556 -0.0568
H27 H -0.9280 0.0134 -0.1026
H28 H -1.0736 0.0389 -0.0611
C36 C -0.578(4) 0.0802(18) -0.0388(8)
H29 H -0.4843 0.1451 -0.0205
H30 H -0.5328 0.0681 -0.0718
H31 H -0.5831 0.0134 -0.0227
Zn1A Zn 0.29653(17) 0.42769(10) 0.49637(4)
Zn1_2 Zn -0.29653(17) 1.57231(10) 0.50363(4)
Zn1A_2 Zn -0.70347(17) 1.42769(10) 0.49637(4)
Zn2A Zn -0.9889(2) 0.63517(12) -0.00899(5)
Zn2_2 Zn 0.9889(2) 1.36483(12) 0.00899(5)
O3A O 0.7326(12) 0.4568(8) 0.5481(4)
O6_2 O 0.7280(14) 0.4540(8) 0.4475(4)
O7A O 0.5807(12) 0.6500(8) 0.5582(3)
O10A O -1.0806(12) 0.4333(7) -0.0493(3)
O12_2 O -1.0457(13) 0.2832(8) 0.0821(3)
O13_2 O -1.2783(12) 0.3228(7) 0.0379(3)
O15 O 1.064(6) 1.305(2) 0.2338(12)
N2 N 1.119(7) 1.489(3) 0.2190(14)
C37 C 1.148(8) 1.581(3) 0.1987(17)
H32 H 1.2752 1.5934 0.1830
H33 H 1.1495 1.6441 0.2235
H34 H 1.0395 1.5735 0.1743
C38 C 1.120(9) 1.495(4) 0.2765(19)
H35 H 0.9833 1.4839 0.2870
H36 H 1.2000 1.5687 0.2912
H37 H 1.1780 1.4362 0.2869
C39 C 1.088(9) 1.379(3) 0.2040(17)
H38 H 1.0842 1.3553 0.1701
O16 O -0.374(2) 1.6570(11) 0.2554(6)
N3 N -0.424(4) 1.4747(16) 0.2708(7)
C40 C -0.428(5) 1.357(2) 0.2526(10)
H39 H -0.5599 1.3090 0.2566
H40 H -0.3271 1.3334 0.2711
H41 H -0.3990 1.3521 0.2181
C41 C -0.420(4) 1.503(2) 0.3223(8)
H42 H -0.3984 1.5844 0.3301
H43 H -0.3110 1.4789 0.3374
H44 H -0.5468 1.4649 0.3346
C42 C -0.393(4) 1.5564(16) 0.2391(9)
H45 H -0.3857 1.5356 0.2052
O17 O 1.1554(19) 0.8630(9) 0.5005(5)
N4 N 1.1448(18) 0.9940(10) 0.4496(5)
C43 C 1.037(3) 1.0210(17) 0.4095(7)
H46 H 0.9240 0.9574 0.3984
H47 H 1.1261 1.0367 0.3828
H48 H 0.9882 1.0874 0.4201
C44 C 1.334(3) 1.0702(16) 0.4718(8)
H49 H 1.3598 1.0510 0.5042
H50 H 1.3237 1.1481 0.4744
H51 H 1.4443 1.0616 0.4513
C45 C 1.079(3) 0.8948(14) 0.4675(6)
H52 H 0.9604 0.8456 0.4524
loop_
_geom_bond_atom_site_label_1
_geom_bond_atom_site_label_2
_geom_bond_site_symmetry_1
_geom_bond_site_symmetry_2
Zn1 O1 1_555 1_555
Zn2 O9 1_555 1_555
O2 Zn1 1_555 1_555
O3 C1 1_555 1_555
O4 C5 1_555 1_555
O5 C10 1_555 1_555
O6 C17 1_555 1_555
O7 C17 1_555 1_555
O8 C18 1_555 1_555
O9 C25 1_555 1_555
O10 C25 1_555 1_555
O11 C26 1_555 1_555
O12 C33 1_555 1_555
O13 C33 1_555 1_555
O14 Zn2 1_555 1_555
O15 C39 1_555 1_555
O16 C42 1_555 1_555
O17 C45 1_555 1_555
N1 C34 1_555 1_555
N2 C37 1_555 1_555
N3 C40 1_555 1_555
N4 C43 1_555 1_555
C1 O2 1_555 1_555
C2 C1 1_555 1_555
C3 C2 1_555 1_555
H1 C3 1_555 1_555
C4 C3 1_555 1_555
H2 C4 1_555 1_555
C5 C4 1_555 1_555
C6 C5 1_555 1_555
H3 C6 1_555 1_555
C7 C2 1_555 1_555
H4 C7 1_555 1_555
C8 O4 1_555 1_555
H5 C8 1_555 1_555
H6 C8 1_555 1_555
C9 C8 1_555 1_555
C10 C9 1_555 1_555
H7 C10 1_555 1_555
H8 C10 1_555 1_555
C11 O5 1_555 1_555
C12 C11 1_555 1_555
H9 C12 1_555 1_555
C13 C12 1_555 1_555
H10 C13 1_555 1_555
C14 C13 1_555 1_555
C15 C14 1_555 1_555
H11 C15 1_555 1_555
C16 C11 1_555 1_555
H12 C16 1_555 1_555
C17 C14 1_555 1_555
C18 C9 1_555 1_555
H13 C18 1_555 1_555
H14 C18 1_555 1_555
C19 O8 1_555 1_555
C20 C19 1_555 1_555
H15 C20 1_555 1_555
C21 C20 1_555 1_555
H16 C21 1_555 1_555
C22 C21 1_555 1_555
C23 C22 1_555 1_555
H17 C23 1_555 1_555
C24 C19 1_555 1_555
H18 C24 1_555 1_555
C25 C22 1_555 1_555
C26 C9 1_555 1_555
H19 C26 1_555 1_555
H20 C26 1_555 1_555
C27 O11 1_555 1_555
C28 C27 1_555 1_555
H21 C28 1_555 1_555
C29 C28 1_555 1_555
H22 C29 1_555 1_555
C30 C29 1_555 1_555
C31 C30 1_555 1_555
H23 C31 1_555 1_555
C32 C27 1_555 1_555
H24 C32 1_555 1_555
C33 C30 1_555 1_555
C34 O14 1_555 1_555
H25 C34 1_555 1_555
C35 N1 1_555 1_555
H26 C35 1_555 1_555
H27 C35 1_555 1_555
H28 C35 1_555 1_555
C36 N1 1_555 1_555
H29 C36 1_555 1_555
H30 C36 1_555 1_555
H31 C36 1_555 1_555
C37 H32 1_555 1_555
H33 C37 1_555 1_555
H34 C37 1_555 1_555
C38 N2 1_555 1_555
H35 C38 1_555 1_555
H36 C38 1_555 1_555
H37 C38 1_555 1_555
C39 N2 1_555 1_555
H38 C39 1_555 1_555
C40 H39 1_555 1_555
H40 C40 1_555 1_555
H41 C40 1_555 1_555
C41 N3 1_555 1_555
H42 C41 1_555 1_555
H43 C41 1_555 1_555
H44 C41 1_555 1_555
C42 N3 1_555 1_555
H45 C42 1_555 1_555
C43 H46 1_555 1_555
H47 C43 1_555 1_555
H48 C43 1_555 1_555
C44 N4 1_555 1_555
H49 C44 1_555 1_555
H50 C44 1_555 1_555
H51 C44 1_555 1_555
C45 N4 1_555 1_555
H52 C45 1_555 1_555
Zn1A Zn1 1_555 1_555
Zn1_2 O6 1_555 1_555
Zn1A_2 O7 1_555 1_555
Zn2A O10 1_555 1_555
Zn2_2 O12 1_555 1_555
O3A Zn1 1_555 1_555
O6_2 Zn1 1_555 1_555
O7A Zn1 1_555 1_555
O10A Zn2 1_555 1_555
O12_2 Zn2 1_555 1_555
O13_2 Zn2 1_555 1_555
O3 Zn1A 1_555 1_555
O13 Zn2_2 1_555 1_555
C6 C7 1_555 1_555
C15 C16 1_555 1_555
C23 C24 1_555 1_555
C31 C32 1_555 1_555
Zn1_2 Zn1A_2 1_555 1_555

#END
