
#######################################################################
#
#                 Cambridge Crystallographic Data Centre
#                                CCDC 
#
#######################################################################
#
# If this CIF has been generated from an entry in the Cambridge 
# Structural Database, then it will include bibliographic, chemical, 
# crystal, experimental, refinement or atomic coordinate data resulting 
# from the CCDC's data processing and validation procedures.
#
#######################################################################

data_MOYTUR
_chemical_formula_moiety         '(C88 H85 Cl1 N8 O31 Zn8 2-)n'
_symmetry_cell_setting           orthorhombic
_symmetry_space_group_name_H-M   'P b a n'
_symmetry_Int_Tables_number      50
_space_group_name_Hall           '-P 2ab 2b'
loop_
_symmetry_equiv_pos_site_id
_symmetry_equiv_pos_as_xyz
1 x,y,z
2 1/2-x,1/2-y,z
3 x,1/2-y,-z
4 1/2-x,y,-z
5 -x,-y,-z
6 1/2+x,1/2+y,-z
7 -x,1/2+y,z
8 1/2+x,-y,z
_cell_length_a                   24.673(3)
_cell_length_b                   24.911(3)
_cell_length_c                   9.3725(12)
_cell_angle_alpha                90
_cell_angle_beta                 90
_cell_angle_gamma                90
_cell_volume                     5760.61
loop_
_atom_site_label
_atom_site_type_symbol
_atom_site_fract_x
_atom_site_fract_y
_atom_site_fract_z
Cl1 Cl 0.2500 0.2500 0.5000
Zn1 Zn 0.79174(4) -0.19768(3) 0.88880(10)
Zn2 Zn 0.50932(5) 0.06104(5) 0.63272(14)
O1 O 0.5839(3) 0.0421(3) 0.6041(7)
O2 O 0.5178(2) 0.1192(3) 0.5013(8)
O3 O 0.7500 -0.2500 1.0000
O4 O 0.7503(2) -0.1385(2) 0.7940(6)
O5 O 0.6816(2) -0.1512(2) 0.9486(7)
O6 O 0.3094(2) 0.2510(3) 0.3067(7)
O7 O 0.3699(3) 0.2852(3) 0.1694(7)
N1 N 0.4941(3) -0.0032(3) 0.7424(9)
N2 N 0.4322(3) 0.0724(3) 0.6550(9)
C1 C 0.4039(4) 0.1088(4) 0.5915(11)
H1 H 0.3670 0.1099 0.6111
C2 C 0.4240(4) 0.1467(4) 0.4963(11)
C3 C 0.3862(4) 0.1815(3) 0.4301(9)
H2 H 0.3497 0.1781 0.4531
C4 C 0.4015(3) 0.2201(4) 0.3329(10)
C5 C 0.4553(4) 0.2235(4) 0.2918(12)
H3 H 0.4658 0.2483 0.2229
C6 C 0.4926(4) 0.1907(4) 0.3521(13)
H4 H 0.5286 0.1949 0.3246
C7 C 0.4806(4) 0.1505(4) 0.4544(11)
C8 C 0.3569(4) 0.2532(3) 0.2672(10)
C9 C 0.5297(4) -0.0367(4) 0.7844(11)
H5 H 0.5174 -0.0642 0.8432
C10 C 0.5857(4) -0.0372(3) 0.7521(9)
C11 C 0.6193(3) -0.0779(3) 0.8059(9)
H6 H 0.6038 -0.1031 0.8667
C12 C 0.6727(3) -0.0831(3) 0.7755(9)
C13 C 0.6963(4) -0.0456(3) 0.6874(11)
H7 H 0.7330 -0.0489 0.6661
C14 C 0.6669(4) -0.0021(4) 0.6276(11)
C15 C 0.6102(4) 0.0018(4) 0.6615(11)
C16 C 0.7040(4) -0.1273(3) 0.8455(9)
C17 C 0.4082(3) 0.0387(3) 0.7670(14)
H8 H 0.4197 0.0531 0.8595
C18 C 0.3283(5) -0.0044(3) 0.8961(11)
H9 H 0.3402 0.0105 0.9864
H10 H 0.2893 -0.0091 0.8987
C19 C 0.3573(3) -0.0585(4) 0.8652(19)
H11 H 0.3474 -0.0706 0.7703
H12 H 0.3446 -0.0852 0.9328
C20 C 0.4351(5) -0.0173(3) 0.7477(11)
H13 H 0.4237 -0.0335 0.6573
C21 C 0.3451(3) 0.0325(5) 0.7701(13)
H14 H 0.3284 0.0675 0.7811
H15 H 0.3327 0.0171 0.6808
C22 C 0.4201(3) -0.0547(5) 0.8750(12)
H16 H 0.4368 -0.0897 0.8646
H17 H 0.4313 -0.0391 0.9652
Zn1A Zn 0.70826(4) -0.30232(3) 0.88880(10)
Zn2A Zn 0.99068(5) -0.56104(5) 0.63272(14)
O1A O 0.9161(3) -0.5421(3) 0.6041(7)
O2A O 0.9822(2) -0.6192(3) 0.5013(8)
O4A O 0.7497(2) -0.3615(2) 0.7940(6)
O5A O 0.8184(2) -0.3488(2) 0.9486(7)
O6A O 1.1906(2) -0.7510(3) 0.3067(7)
O7A O 1.1301(3) -0.7852(3) 0.1694(7)
N1A N 1.0059(3) -0.4968(3) 0.7424(9)
N2A N 1.0678(3) -0.5724(3) 0.6550(9)
C1A C 1.0961(4) -0.6088(4) 0.5915(11)
H1A H 1.1330 -0.6099 0.6111
C2A C 1.0760(4) -0.6467(4) 0.4963(11)
C3A C 1.1138(4) -0.6815(3) 0.4301(9)
H2A H 1.1503 -0.6781 0.4531
C4A C 1.0985(3) -0.7201(4) 0.3329(10)
C5A C 1.0447(4) -0.7235(4) 0.2918(12)
H3A H 1.0342 -0.7483 0.2229
C6A C 1.0074(4) -0.6907(4) 0.3521(13)
H4A H 0.9714 -0.6949 0.3246
C7A C 1.0194(4) -0.6505(4) 0.4544(11)
C8A C 1.1431(4) -0.7532(3) 0.2672(10)
C9A C 0.9703(4) -0.4633(4) 0.7844(11)
H5A H 0.9826 -0.4358 0.8432
C10A C 0.9143(4) -0.4628(3) 0.7521(9)
C11A C 0.8807(3) -0.4221(3) 0.8059(9)
H6A H 0.8962 -0.3969 0.8667
C12A C 0.8273(3) -0.4169(3) 0.7755(9)
C13A C 0.8037(4) -0.4544(3) 0.6874(11)
H7A H 0.7670 -0.4511 0.6661
C14A C 0.8331(4) -0.4979(4) 0.6276(11)
C15A C 0.8898(4) -0.5018(4) 0.6615(11)
C16A C 0.7960(4) -0.3727(3) 0.8455(9)
C17A C 1.0918(3) -0.5387(3) 0.7670(14)
H8A H 1.0803 -0.5531 0.8595
C18A C 1.1717(5) -0.4956(3) 0.8961(11)
H9A H 1.1598 -0.5105 0.9864
H10A H 1.2107 -0.4909 0.8987
C19A C 1.1427(3) -0.4415(4) 0.8652(19)
H11A H 1.1526 -0.4294 0.7703
H12A H 1.1554 -0.4148 0.9328
C20A C 1.0649(5) -0.4827(3) 0.7477(11)
H13A H 1.0763 -0.4665 0.6573
C21A C 1.1549(3) -0.5325(5) 0.7701(13)
H14A H 1.1716 -0.5675 0.7811
H15A H 1.1673 -0.5171 0.6808
C22A C 1.0799(3) -0.4453(5) 0.8750(12)
H16A H 1.0632 -0.4103 0.8646
H17A H 1.0687 -0.4609 0.9652
Zn1B Zn 0.79174(4) -0.30232(3) 1.11120(10)
Zn2B Zn 0.50932(5) -0.56104(5) 1.36728(14)
O1B O 0.5839(3) -0.5421(3) 1.3959(7)
O2B O 0.5178(2) -0.6192(3) 1.4987(8)
O4B O 0.7503(2) -0.3615(2) 1.2060(6)
O5B O 0.6816(2) -0.3488(2) 1.0514(7)
O6B O 0.3094(2) -0.7510(3) 1.6933(7)
O7B O 0.3699(3) -0.7852(3) 1.8306(7)
N1B N 0.4941(3) -0.4968(3) 1.2576(9)
N2B N 0.4322(3) -0.5724(3) 1.3450(9)
C1B C 0.4039(4) -0.6088(4) 1.4085(11)
H1B H 0.3670 -0.6099 1.3889
C2B C 0.4240(4) -0.6467(4) 1.5037(11)
C3B C 0.3862(4) -0.6815(3) 1.5699(9)
H2B H 0.3497 -0.6781 1.5469
C4B C 0.4015(3) -0.7201(4) 1.6671(10)
C5B C 0.4553(4) -0.7235(4) 1.7082(12)
H3B H 0.4658 -0.7483 1.7771
C6B C 0.4926(4) -0.6907(4) 1.6479(13)
H4B H 0.5286 -0.6949 1.6754
C7B C 0.4806(4) -0.6505(4) 1.5456(11)
C8B C 0.3569(4) -0.7532(3) 1.7328(10)
C9B C 0.5297(4) -0.4633(4) 1.2156(11)
H5B H 0.5174 -0.4358 1.1568
C10B C 0.5857(4) -0.4628(3) 1.2479(9)
C11B C 0.6193(3) -0.4221(3) 1.1941(9)
H6B H 0.6038 -0.3969 1.1333
C12B C 0.6727(3) -0.4169(3) 1.2245(9)
C13B C 0.6963(4) -0.4544(3) 1.3126(11)
H7B H 0.7330 -0.4511 1.3339
C14B C 0.6669(4) -0.4979(4) 1.3724(11)
C15B C 0.6102(4) -0.5018(4) 1.3385(11)
C16B C 0.7040(4) -0.3727(3) 1.1545(9)
C17B C 0.4082(3) -0.5387(3) 1.2330(14)
H8B H 0.4197 -0.5531 1.1405
C18B C 0.3283(5) -0.4956(3) 1.1039(11)
H9B H 0.3402 -0.5105 1.0136
H10B H 0.2893 -0.4909 1.1013
C19B C 0.3573(3) -0.4415(4) 1.1348(19)
H11B H 0.3474 -0.4294 1.2297
H12B H 0.3446 -0.4148 1.0672
C20B C 0.4351(5) -0.4827(3) 1.2523(11)
H13B H 0.4237 -0.4665 1.3427
C21B C 0.3451(3) -0.5325(5) 1.2299(13)
H14B H 0.3284 -0.5675 1.2189
H15B H 0.3327 -0.5171 1.3192
C22B C 0.4201(3) -0.4453(5) 1.1250(12)
H16B H 0.4368 -0.4103 1.1354
H17B H 0.4313 -0.4609 1.0348
Zn1C Zn 0.70826(4) -0.19768(3) 1.11120(10)
Zn2C Zn 0.99068(5) 0.06104(5) 1.36728(14)
O1C O 0.9161(3) 0.0421(3) 1.3959(7)
O2C O 0.9822(2) 0.1192(3) 1.4987(8)
O4C O 0.7497(2) -0.1385(2) 1.2060(6)
O5C O 0.8184(2) -0.1512(2) 1.0514(7)
O6C O 1.1906(2) 0.2510(3) 1.6933(7)
O7C O 1.1301(3) 0.2852(3) 1.8306(7)
N1C N 1.0059(3) -0.0032(3) 1.2576(9)
N2C N 1.0678(3) 0.0724(3) 1.3450(9)
C1C C 1.0961(4) 0.1088(4) 1.4085(11)
H1C H 1.1330 0.1099 1.3889
C2C C 1.0760(4) 0.1467(4) 1.5037(11)
C3C C 1.1138(4) 0.1815(3) 1.5699(9)
H2C H 1.1503 0.1781 1.5469
C4C C 1.0985(3) 0.2201(4) 1.6671(10)
C5C C 1.0447(4) 0.2235(4) 1.7082(12)
H3C H 1.0342 0.2483 1.7771
C6C C 1.0074(4) 0.1907(4) 1.6479(13)
H4C H 0.9714 0.1949 1.6754
C7C C 1.0194(4) 0.1505(4) 1.5456(11)
C8C C 1.1431(4) 0.2532(3) 1.7328(10)
C9C C 0.9703(4) -0.0367(4) 1.2156(11)
H5C H 0.9826 -0.0642 1.1568
C10C C 0.9143(4) -0.0372(3) 1.2479(9)
C11C C 0.8807(3) -0.0779(3) 1.1941(9)
H6C H 0.8962 -0.1031 1.1333
C12C C 0.8273(3) -0.0831(3) 1.2245(9)
C13C C 0.8037(4) -0.0456(3) 1.3126(11)
H7C H 0.7670 -0.0489 1.3339
C14C C 0.8331(4) -0.0021(4) 1.3724(11)
C15C C 0.8898(4) 0.0018(4) 1.3385(11)
C16C C 0.7960(4) -0.1273(3) 1.1545(9)
C17C C 1.0918(3) 0.0387(3) 1.2330(14)
H8C H 1.0803 0.0531 1.1405
C18C C 1.1717(5) -0.0044(3) 1.1039(11)
H9C H 1.1598 0.0105 1.0136
H10C H 1.2107 -0.0091 1.1013
C19C C 1.1427(3) -0.0585(4) 1.1348(19)
H11C H 1.1526 -0.0706 1.2297
H12C H 1.1554 -0.0852 1.0672
C20C C 1.0649(5) -0.0173(3) 1.2523(11)
H13C H 1.0763 -0.0335 1.3427
C21C C 1.1549(3) 0.0325(5) 1.2299(13)
H14C H 1.1716 0.0675 1.2189
H15C H 1.1673 0.0171 1.3192
C22C C 1.0799(3) -0.0547(5) 1.1250(12)
H16C H 1.0632 -0.0897 1.1354
H17C H 1.0687 -0.0391 1.0348
Zn1D Zn 1.20826(4) -0.80232(3) 0.11120(10)
Zn1E Zn 0.29174(4) 0.30232(3) 0.11120(10)
Zn1F Zn 1.20826(4) 0.30232(3) 1.88880(10)
Zn1G Zn 0.29174(4) -0.80232(3) 1.88880(10)
O6D O 0.6906(2) -0.2510(3) 0.6933(7)
O6E O 0.8094(2) -0.2490(3) 0.6933(7)
O6F O 0.6906(2) -0.2490(3) 1.3067(7)
O6G O 0.8094(2) -0.2510(3) 1.3067(7)
O7D O 0.6301(3) -0.2852(3) 0.8306(7)
O7E O 0.8699(3) -0.2148(3) 0.8306(7)
O7F O 0.6301(3) -0.2148(3) 1.1694(7)
O7G O 0.8699(3) -0.2852(3) 1.1694(7)
O8 O 0.2500 0.3406(4) 0.5000
O9 O 0.4573(4) 0.3338(5) 0.0288(12)
O10 O 0.6319(9) 0.1391(9) 0.468(2)
O11 O 0.6383(13) 0.2022(12) 0.198(4)
O12 O 0.2707(14) -0.1370(16) 1.187(6)
O13 O 0.7500 0.2500 0.5000
loop_
_geom_bond_atom_site_label_1
_geom_bond_atom_site_label_2
_geom_bond_site_symmetry_1
_geom_bond_site_symmetry_2
Zn1 O3 1_555 1_555
Zn2 O1 1_555 1_555
O1 C15 1_555 1_555
O2 Zn2 1_555 1_555
O3 Zn1A 1_555 1_555
O4 Zn1 1_555 1_555
O5 C16 1_555 1_555
O6 C8 1_555 1_555
O7 C8 1_555 1_555
N1 Zn2 1_555 1_555
N2 Zn2 1_555 1_555
C1 N2 1_555 1_555
H1 C1 1_555 1_555
C2 C1 1_555 1_555
C3 C2 1_555 1_555
H2 C3 1_555 1_555
C4 C3 1_555 1_555
C5 C4 1_555 1_555
H3 C5 1_555 1_555
C6 C5 1_555 1_555
H4 C6 1_555 1_555
C7 O2 1_555 1_555
C8 C4 1_555 1_555
C9 N1 1_555 1_555
H5 C9 1_555 1_555
C10 C9 1_555 1_555
C11 C10 1_555 1_555
H6 C11 1_555 1_555
C12 C11 1_555 1_555
C13 C12 1_555 1_555
H7 C13 1_555 1_555
C14 C13 1_555 1_555
C15 C10 1_555 1_555
C16 O4 1_555 1_555
C17 N2 1_555 1_555
H8 C17 1_555 1_555
C18 H9 1_555 1_555
H10 C18 1_555 1_555
C19 C18 1_555 1_555
H11 C19 1_555 1_555
H12 C19 1_555 1_555
C20 N1 1_555 1_555
H13 C20 1_555 1_555
C21 C17 1_555 1_555
H14 C21 1_555 1_555
H15 C21 1_555 1_555
C22 C19 1_555 1_555
H16 C22 1_555 1_555
H17 C22 1_555 1_555
Zn1A O4A 1_555 1_555
Zn2A O1A 1_555 1_555
O1A C15A 1_555 1_555
O2A Zn2A 1_555 1_555
O4A C16A 1_555 1_555
O5A C16A 1_555 1_555
O6A C8A 1_555 1_555
O7A C8A 1_555 1_555
N1A Zn2A 1_555 1_555
N2A Zn2A 1_555 1_555
C1A N2A 1_555 1_555
H1A C1A 1_555 1_555
C2A C1A 1_555 1_555
C3A C2A 1_555 1_555
H2A C3A 1_555 1_555
C4A C3A 1_555 1_555
C5A C4A 1_555 1_555
H3A C5A 1_555 1_555
C6A C5A 1_555 1_555
H4A C6A 1_555 1_555
C7A O2A 1_555 1_555
C8A C4A 1_555 1_555
C9A N1A 1_555 1_555
H5A C9A 1_555 1_555
C10A C9A 1_555 1_555
C11A C10A 1_555 1_555
H6A C11A 1_555 1_555
C12A C11A 1_555 1_555
C13A C12A 1_555 1_555
H7A C13A 1_555 1_555
C14A C13A 1_555 1_555
C15A C10A 1_555 1_555
C16A C12A 1_555 1_555
C17A N2A 1_555 1_555
H8A C17A 1_555 1_555
C18A H9A 1_555 1_555
H10A C18A 1_555 1_555
C19A C18A 1_555 1_555
H11A C19A 1_555 1_555
H12A C19A 1_555 1_555
C20A N1A 1_555 1_555
H13A C20A 1_555 1_555
C21A C17A 1_555 1_555
H14A C21A 1_555 1_555
H15A C21A 1_555 1_555
C22A C19A 1_555 1_555
H16A C22A 1_555 1_555
H17A C22A 1_555 1_555
Zn1B O3 1_555 1_555
Zn2B O1B 1_555 1_555
O1B C15B 1_555 1_555
O2B Zn2B 1_555 1_555
O4B Zn1B 1_555 1_555
O5B Zn1A 1_555 1_555
O6B C8B 1_555 1_555
O7B C8B 1_555 1_555
N1B Zn2B 1_555 1_555
N2B Zn2B 1_555 1_555
C1B N2B 1_555 1_555
H1B C1B 1_555 1_555
C2B C1B 1_555 1_555
C3B C2B 1_555 1_555
H2B C3B 1_555 1_555
C4B C3B 1_555 1_555
C5B C4B 1_555 1_555
H3B C5B 1_555 1_555
C6B C5B 1_555 1_555
H4B C6B 1_555 1_555
C7B O2B 1_555 1_555
C8B C4B 1_555 1_555
C9B N1B 1_555 1_555
H5B C9B 1_555 1_555
C10B C9B 1_555 1_555
C11B C10B 1_555 1_555
H6B C11B 1_555 1_555
C12B C11B 1_555 1_555
C13B C12B 1_555 1_555
H7B C13B 1_555 1_555
C14B C13B 1_555 1_555
C15B C10B 1_555 1_555
C16B O4B 1_555 1_555
C17B N2B 1_555 1_555
H8B C17B 1_555 1_555
C18B H9B 1_555 1_555
H10B C18B 1_555 1_555
C19B C18B 1_555 1_555
H11B C19B 1_555 1_555
H12B C19B 1_555 1_555
C20B N1B 1_555 1_555
H13B C20B 1_555 1_555
C21B C17B 1_555 1_555
H14B C21B 1_555 1_555
H15B C21B 1_555 1_555
C22B C19B 1_555 1_555
H16B C22B 1_555 1_555
H17B C22B 1_555 1_555
Zn1C O3 1_555 1_555
Zn2C O1C 1_555 1_555
O1C C15C 1_555 1_555
O2C Zn2C 1_555 1_555
O4C Zn1C 1_555 1_555
O5C Zn1 1_555 1_555
O6C C8C 1_555 1_555
O7C C8C 1_555 1_555
N1C Zn2C 1_555 1_555
N2C Zn2C 1_555 1_555
C1C N2C 1_555 1_555
H1C C1C 1_555 1_555
C2C C1C 1_555 1_555
C3C C2C 1_555 1_555
H2C C3C 1_555 1_555
C4C C3C 1_555 1_555
C5C C4C 1_555 1_555
H3C C5C 1_555 1_555
C6C C5C 1_555 1_555
H4C C6C 1_555 1_555
C7C O2C 1_555 1_555
C8C C4C 1_555 1_555
C9C N1C 1_555 1_555
H5C C9C 1_555 1_555
C10C C9C 1_555 1_555
C11C C10C 1_555 1_555
H6C C11C 1_555 1_555
C12C C11C 1_555 1_555
C13C C12C 1_555 1_555
H7C C13C 1_555 1_555
C14C C13C 1_555 1_555
C15C C10C 1_555 1_555
C16C O4C 1_555 1_555
C17C N2C 1_555 1_555
H8C C17C 1_555 1_555
C18C H9C 1_555 1_555
H10C C18C 1_555 1_555
C19C C18C 1_555 1_555
H11C C19C 1_555 1_555
H12C C19C 1_555 1_555
C20C N1C 1_555 1_555
H13C C20C 1_555 1_555
C21C C17C 1_555 1_555
H14C C21C 1_555 1_555
H15C C21C 1_555 1_555
C22C C19C 1_555 1_555
H16C C22C 1_555 1_555
H17C C22C 1_555 1_555
Zn1D O6A 1_555 1_555
Zn1E O6 1_555 1_555
Zn1F O6C 1_555 1_555
Zn1G O6B 1_555 1_555
O6D Zn1A 1_555 1_555
O6E Zn1 1_555 1_555
O6F Zn1C 1_555 1_555
O6G Zn1B 1_555 1_555
O7D Zn1A 1_555 1_555
O7E Zn1 1_555 1_555
O7F Zn1C 1_555 1_555
O7G Zn1B 1_555 1_555
O5 Zn1C 1_555 1_555
O7 Zn1E 1_555 1_555
C2 C7 1_555 1_555
C6 C7 1_555 1_555
C12 C16 1_555 1_555
C14 C15 1_555 1_555
C17 C20 1_555 1_555
C18 C21 1_555 1_555
C20 C22 1_555 1_555
O5A Zn1B 1_555 1_555
O7A Zn1D 1_555 1_555
C2A C7A 1_555 1_555
C6A C7A 1_555 1_555
C14A C15A 1_555 1_555
C17A C20A 1_555 1_555
C18A C21A 1_555 1_555
C20A C22A 1_555 1_555
O5B C16B 1_555 1_555
O7B Zn1G 1_555 1_555
C2B C7B 1_555 1_555
C6B C7B 1_555 1_555
C12B C16B 1_555 1_555
C14B C15B 1_555 1_555
C17B C20B 1_555 1_555
C18B C21B 1_555 1_555
C20B C22B 1_555 1_555
O5C C16C 1_555 1_555
O7C Zn1F 1_555 1_555
C2C C7C 1_555 1_555
C6C C7C 1_555 1_555
C12C C16C 1_555 1_555
C14C C15C 1_555 1_555
C17C C20C 1_555 1_555
C18C C21C 1_555 1_555
C20C C22C 1_555 1_555

#END
