
#######################################################################
#
#                 Cambridge Crystallographic Data Centre
#                                CCDC 
#
#######################################################################
#
# If this CIF has been generated from an entry in the Cambridge 
# Structural Database, then it will include bibliographic, chemical, 
# crystal, experimental, refinement or atomic coordinate data resulting 
# from the CCDC's data processing and validation procedures.
#
#######################################################################

data_RAZYOI
_chemical_formula_moiety         '(C22 H21 Cl2 Cu2 N5)n'
_symmetry_cell_setting           tetragonal
_symmetry_space_group_name_H-M   'P 43 21 2'
_symmetry_Int_Tables_number      96
_space_group_name_Hall           'P 4nw 2abw'
loop_
_symmetry_equiv_pos_site_id
_symmetry_equiv_pos_as_xyz
1 x,y,z
2 -x,-y,1/2+z
3 1/2+x,1/2-y,1/4-z
4 1/2-x,1/2+y,3/4-z
5 -y,-x,1/2-z
6 y,x,-z
7 1/2+y,1/2-x,1/4+z
8 1/2-y,1/2+x,3/4+z
_cell_length_a                   15.9327(9)
_cell_length_b                   15.9327(9)
_cell_length_c                   12.4522(10)
_cell_angle_alpha                90
_cell_angle_beta                 90
_cell_angle_gamma                90
_cell_volume                     3161
loop_
_atom_site_label
_atom_site_type_symbol
_atom_site_fract_x
_atom_site_fract_y
_atom_site_fract_z
_atom_site_U_iso_or_equiv
_atom_site_thermal_displace_type
Cu1 Cu 0.48435(2) -0.00211(3) 0.37624(7) 0.0299 Uani
Cl1 Cl 0.56266(6) 0.07777(6) 0.25180(13) 0.0432 Uani
N1 N 0.3998(2) 0.0791(2) 0.4461(3) 0.0373 Uani
N2 N 0.4023(2) 0.0826(2) 0.5575(3) 0.0364 Uani
C1 C 0.3448(3) 0.1254(3) 0.3924(3) 0.0433 Uani
C2 C 0.2896(3) 0.1824(3) 0.4441(4) 0.0380 Uani
C3 C 0.2364(3) 0.2376(3) 0.3851(3) 0.0436 Uani
C4 C 0.2899(3) 0.1851(3) 0.5564(4) 0.0437 Uani
C5 C 0.3510(3) 0.1321(3) 0.6106(4) 0.0443 Uani
C6 C 0.3550(4) 0.1323(3) 0.7291(4) 0.0677 Uani
H1 H 0.3971 0.1712 0.7526 0.0810 Uiso
H2 H 0.3701 0.0774 0.7542 0.0810 Uiso
C7 C 0.2384(3) 0.2382(3) 0.2629(3) 0.0653 Uani
H3 H 0.2810 0.2770 0.2405 0.0780 Uiso
C8 C 0.3441(4) 0.1177(4) 0.2696(4) 0.0620 Uani
H4 H 0.3505 0.0599 0.2494 0.0750 Uiso
H5 H 0.3905 0.1485 0.2402 0.0750 Uiso
C9 C 0.2743(5) 0.1592(5) 0.7800(5) 0.0823 Uani
H6 H 0.2785 0.1613 0.8568 0.0990 Uiso
H7 H 0.2342 0.1165 0.7621 0.0990 Uiso
C10 C 0.2663(5) 0.1549(5) 0.2224(5) 0.0840 Uani
H8 H 0.2712 0.1563 0.1456 0.1010 Uiso
H9 H 0.2219 0.1164 0.2398 0.1010 Uiso
Cu1F Cu 0.49789(3) 0.01565(2) 0.62624(7) 0.0299 Uani
Cu1G Cu 0.50211(3) -0.01565(2) 0.12624(7) 0.0299 Uani
Cu1C Cu 0.01565(2) 0.49789(3) 0.37376(7) 0.0299 Uani
Cu1E Cu -0.00211(3) 0.48435(2) 0.62376(7) 0.0299 Uani
Cl1F Cl 0.57777(6) -0.06266(6) 0.50180(13) 0.0432 Uani
Cl1A Cl 0.43734(6) -0.07777(6) 0.75180(13) 0.0432 Uani
N1E N 0.0791(2) 0.3998(2) 0.5539(3) 0.0373 Uani
N1F N 0.5791(2) 0.1002(2) 0.6961(3) 0.0373 Uani
N2E N 0.0826(2) 0.4023(2) 0.4425(3) 0.0364 Uani
N2G N 0.4174(2) -0.0977(2) 0.3075(3) 0.0364 Uani
C1E C 0.1254(3) 0.3448(3) 0.6076(3) 0.0433 Uani
C2E C 0.1824(3) 0.2896(3) 0.5559(4) 0.0380 Uani
C3E C 0.2376(3) 0.2364(3) 0.6149(3) 0.0436 Uani
C4E C 0.1851(3) 0.2899(3) 0.4436(4) 0.0437 Uani
C5E C 0.1321(3) 0.3510(3) 0.3894(4) 0.0443 Uani
C6E C 0.1323(3) 0.3550(4) 0.2709(4) 0.0677 Uani
H1E H 0.1712 0.3971 0.2474 0.0810 Uiso
H2E H 0.0774 0.3701 0.2458 0.0810 Uiso
C7E C 0.2382(3) 0.2384(3) 0.7371(3) 0.0653 Uani
H3E H 0.2770 0.2810 0.7595 0.0780 Uiso
C8E C 0.1177(4) 0.3441(4) 0.7304(4) 0.0620 Uani
H4E H 0.0599 0.3505 0.7506 0.0750 Uiso
H5E H 0.1485 0.3905 0.7598 0.0750 Uiso
C9E C 0.1592(5) 0.2743(5) 0.2200(5) 0.0823 Uani
H6E H 0.1613 0.2785 0.1432 0.0990 Uiso
H7E H 0.1165 0.2342 0.2379 0.0990 Uiso
C10E C 0.1549(5) 0.2663(5) 0.7776(5) 0.0840 Uani
H8E H 0.1563 0.2712 0.8544 0.1010 Uiso
H9E H 0.1164 0.2219 0.7602 0.1010 Uiso
N3 N 0.3284(11) 0.5073(11) 0.2362(13) 0.1250 Uiso
C11 C 0.3127(13) 0.4838(14) 0.3234(14) 0.1350 Uiso
C12 C 0.3191(14) 0.4646(14) 0.4402(13) 0.1410 Uiso
H10 H 0.3599 0.4210 0.4510 0.2110 Uiso
H11 H 0.2655 0.4462 0.4663 0.2110 Uiso
H12 H 0.3361 0.5141 0.4784 0.2110 Uiso
loop_
_atom_site_aniso_label
_atom_site_aniso_U_11
_atom_site_aniso_U_22
_atom_site_aniso_U_33
_atom_site_aniso_U_23
_atom_site_aniso_U_13
_atom_site_aniso_U_12
Cu1 0.02965(19) 0.02843(19) 0.0317(2) -0.00490(13) -0.0015(3) 0.0009(2)
Cl1 0.0525(6) 0.0437(5) 0.0335(4) -0.0008(5) -0.0011(6) -0.0197(4)
N1 0.0359(18) 0.042(2) 0.034(2) -0.0027(17) -0.0026(16) 0.0170(15)
N2 0.0405 0.0427 0.026 -0.0035 -0.0042 0.019
C1 0.053(3) 0.055(3) 0.022(2) -0.005(2) -0.008(2) 0.029(2)
C2 0.043(2) 0.046(2) 0.025(3) -0.001(2) -0.0013(19) 0.0327(18)
C3 0.051(3) 0.055(3) 0.0249(18) -0.001(2) 0.001(2) 0.0286(19)
C4 0.049 0.051 0.031 0 -0.004 0.015
C5 0.055 0.045 0.033 -0.001 -0.006 0.027
C6 0.087 0.085 0.031 -0.01 -0.016 0.057
C7 0.083(4) 0.089(4) 0.024(2) 0.008(3) -0.005(3) 0.057(3)
C8 0.078(3) 0.083(4) 0.025(3) -0.017(3) -0.010(2) 0.053(3)
C9 0.115 0.109 0.023 0.019 0.023 0.067
C10 0.099(6) 0.107(7) 0.046(5) -0.037(4) -0.032(4) 0.082(5)
Cu1F 0.02843 0.02965 0.0317 0.0015 -0.0049 -0.0009
Cu1G 0.02843 0.02965 0.0317 -0.0015 0.0049 -0.0009
Cu1C 0.02965 0.02843 0.0317 0.0049 -0.0015 -0.0009
Cu1E 0.02843 0.02965 0.0317 0.0015 0.0049 0.0009
Cl1F 0.0437 0.0525 0.0335 0.0011 -0.0008 0.0197
Cl1A 0.0525 0.0437 0.0335 0.0008 0.0011 -0.0197
N1E 0.042 0.0359 0.034 0.0026 0.0027 0.017
N1F 0.042 0.0359 0.034 0.0026 -0.0027 -0.017
N2E 0.0427(19) 0.0405(19) 0.026(2) 0.0042(16) 0.0035(15) 0.0190(16)
N2G 0.0427 0.0405 0.026 -0.0042 0.0035 -0.019
C1E 0.055 0.053 0.022 0.008 0.005 0.029
C2E 0.046 0.043 0.025 0.0013 0.001 0.0327
C3E 0.055 0.051 0.0249 -0.001 0.001 0.0286
C4E 0.051(3) 0.049(3) 0.031(3) 0.004(2) 0.000(2) 0.015(2)
C5E 0.045(2) 0.055(3) 0.033(3) 0.006(2) 0.001(2) 0.027(2)
C6E 0.085(4) 0.087(4) 0.031(3) 0.016(3) 0.010(3) 0.057(3)
C7E 0.089 0.083 0.024 0.005 -0.008 0.057
C8E 0.083 0.078 0.025 0.01 0.017 0.053
C9E 0.109(7) 0.115(7) 0.023(4) -0.023(4) -0.019(4) 0.067(6)
C10E 0.107 0.099 0.046 0.032 0.037 0.082
loop_
_geom_bond_atom_site_label_1
_geom_bond_atom_site_label_2
_geom_bond_site_symmetry_1
_geom_bond_site_symmetry_2
Cu1 Cl1 1_555 1_555
Cl1 Cu1G 1_555 1_555
N1 Cu1 1_555 1_555
N2 N1 1_555 1_555
C1 N1 1_555 1_555
C2 C1 1_555 1_555
C3 C2 1_555 1_555
C4 C2 1_555 1_555
C5 N2 1_555 1_555
C6 C5 1_555 1_555
H1 C6 1_555 1_555
H2 C6 1_555 1_555
C7 C3 1_555 1_555
H3 C7 1_555 1_555
C8 C1 1_555 1_555
H4 C8 1_555 1_555
H5 C8 1_555 1_555
C9 C6 1_555 1_555
H6 C9 1_555 1_555
H7 C9 1_555 1_555
C10 C7 1_555 1_555
H8 C10 1_555 1_555
H9 C10 1_555 1_555
N3 C11 1_555 1_555
C11 C12 1_555 1_555
C12 H10 1_555 1_555
H11 C12 1_555 1_555
H12 C12 1_555 1_555
Cu1F N2 1_555 1_555
Cu1C N2E 1_555 1_555
Cu1E N1E 1_555 1_555
Cl1F Cu1 1_555 1_555
Cl1A Cu1F 1_555 1_555
N1E N2E 1_555 1_555
N1F Cu1F 1_555 1_555
N2E C5E 1_555 1_555
N2G Cu1 1_555 1_555
C1E N1E 1_555 1_555
C2E C1E 1_555 1_555
C3E C4 1_555 1_555
C4E C3 1_555 1_555
C5E C4E 1_555 1_555
C6E C5E 1_555 1_555
H1E C6E 1_555 1_555
H2E C6E 1_555 1_555
C7E C9 1_555 1_555
H3E C7E 1_555 1_555
C8E C1E 1_555 1_555
H4E C8E 1_555 1_555
H5E C8E 1_555 1_555
C9E C7 1_555 1_555
H6E C9E 1_555 1_555
H7E C9E 1_555 1_555
C10E C7E 1_555 1_555
H8E C10E 1_555 1_555
H9E C10E 1_555 1_555
C4 C5 1_555 1_555
C8 C10 1_555 1_555
Cu1F Cl1F 1_555 1_555
C2E C3E 1_555 1_555
C2E C4E 1_555 1_555
C3E C7E 1_555 1_555
C6E C9E 1_555 1_555
C8E C10E 1_555 1_555

#END
