
#######################################################################
#
#                 Cambridge Crystallographic Data Centre
#                                CCDC 
#
#######################################################################
#
# If this CIF has been generated from an entry in the Cambridge 
# Structural Database, then it will include bibliographic, chemical, 
# crystal, experimental, refinement or atomic coordinate data resulting 
# from the CCDC's data processing and validation procedures.
#
#######################################################################

data_DOMFUI
_chemical_formula_moiety         '(C97 H56 N9 Na3 O25 Sm2 Zn2 1-)n'
_symmetry_cell_setting           monoclinic
_symmetry_space_group_name_H-M   'C 2/m'
_symmetry_Int_Tables_number      12
_space_group_name_Hall           '-C 2y'
loop_
_symmetry_equiv_pos_site_id
_symmetry_equiv_pos_as_xyz
1 x,y,z
2 -x,y,-z
3 1/2+x,1/2+y,z
4 1/2-x,1/2+y,-z
5 -x,-y,-z
6 x,-y,z
7 1/2-x,1/2-y,-z
8 1/2+x,1/2-y,z
_cell_length_a                   32.8029(17)
_cell_length_b                   35.0128(18)
_cell_length_c                   11.4791(5)
_cell_angle_alpha                90
_cell_angle_beta                 110.1980(9)
_cell_angle_gamma                90
_cell_volume                     12373.2
loop_
_atom_site_label
_atom_site_type_symbol
_atom_site_fract_x
_atom_site_fract_y
_atom_site_fract_z
Na1 Na -0.25077(5) -0.07734(4) 0.98946(11)
Na2 Na -0.17572(7) -0.5000 1.00371(17)
Na3 Na -0.23190(8) 0.0000 0.49452(16)
O13 O -0.31197(15) 0.0000 0.4454(3)
H25 H -0.3238 -0.0214 0.4631
H25E H -0.3238 0.0214 0.4631
O14 O -0.25817(13) -0.14026(10) 0.9964(3)
O15 O -0.15589(18) -0.0000 0.5484(6)
H26 H -0.1555 -0.0214 0.5923
H26E H -0.1555 0.0214 0.5923
O16 O -0.1098(3) -0.5000 1.0111(9)
H27 H -0.0936 -0.5000 1.0922
H28 H -0.0937 -0.5000 0.9614
Sm1 Sm 0.205378(8) 0.0000 0.78887(2)
Sm2 Sm 0.262709(8) 0.0000 1.23385(2)
Zn1 Zn -0.036691(13) -0.262435(12) 0.70667(3)
O1 O -0.22499(8) -0.45778(7) 0.8663(2)
O2 O -0.26200(8) -0.45845(7) 0.6657(2)
O3 O -0.23592(8) -0.06826(7) 0.8132(2)
O4 O 0.18264(12) 0.0000 1.1204(3)
O5 O -0.23257(8) -0.04177(7) 0.6424(2)
O6 O 0.18803(8) -0.45916(7) 0.8477(2)
O7 O 0.17544(9) -0.45790(8) 0.6465(2)
O8 O 0.15603(11) -0.0000 0.9108(3)
O9 O 0.22663(11) -0.0000 1.0108(3)
O10 O 0.14574(8) -0.04216(7) 0.6677(2)
O11 O 0.19120(8) -0.06840(7) 0.8365(2)
O12 O -0.01460(14) -0.25576(11) 0.8975(3)
N1 N -0.03915(10) -0.32105(9) 0.6923(3)
N2 N -0.03991(10) -0.20423(9) 0.6730(2)
N3 N 0.02179(10) -0.26346(8) 0.6761(2)
N4 N -0.10296(10) -0.26224(8) 0.6718(2)
N5 N 0.18625(17) -0.0000 1.0140(4)
C1 C -0.23118(12) -0.44593(10) 0.7563(3)
C2 C -0.22374(12) -0.06936(11) 0.7181(3)
C3 C -0.20164(12) -0.41626(10) 0.7358(3)
C4 C -0.19875(12) -0.10250(11) 0.6995(3)
C5 C -0.12853(12) -0.29346(11) 0.6674(3)
C6 C 0.16662(12) -0.44660(11) 0.7391(3)
C7 C 0.12785(12) -0.10380(11) 0.7240(3)
C8 C -0.00486(12) -0.34469(10) 0.7002(3)
C9 C 0.15709(12) -0.06982(11) 0.7439(3)
C10 C 0.13174(12) -0.41807(11) 0.7230(3)
C11 C -0.07233(12) -0.34393(10) 0.7015(3)
C12 C -0.14507(12) -0.36071(11) 0.7025(3)
C13 C 0.04602(12) -0.23240(11) 0.6699(3)
C14 C -0.00430(12) -0.18146(11) 0.6884(3)
C15 C 0.06748(12) -0.36291(11) 0.6979(3)
C16 C -0.18722(14) -0.13206(11) 0.7864(3)
H1 H -0.1974 -0.1319 0.8544
C17 C -0.07228(13) -0.18085(11) 0.6794(3)
C18 C 0.06937(12) -0.16435(11) 0.6956(3)
C19 C -0.14560(13) -0.16245(11) 0.6741(3)
C20 C -0.11389(12) -0.33147(11) 0.6883(3)
C21 C -0.05734(13) -0.38308(11) 0.7186(3)
H2 H -0.0735 -0.4045 0.7290
C22 C 0.04530(12) -0.29515(11) 0.6686(3)
C23 C 0.03418(12) -0.33282(11) 0.6872(3)
C24 C -0.05648(13) -0.14216(11) 0.7024(3)
H3 H -0.0726 -0.1204 0.7107
C25 C -0.12895(12) -0.23080(11) 0.6586(3)
C26 C 0.08441(13) -0.28305(12) 0.6484(4)
H4 H 0.1058 -0.2993 0.6364
C27 C -0.01470(13) -0.14265(11) 0.7098(3)
H5 H 0.0044 -0.1214 0.7260
C28 C -0.11453(13) -0.19248(11) 0.6686(3)
C29 C 0.08507(13) -0.24515(12) 0.6498(4)
H6 H 0.1071 -0.2293 0.6396
C30 C -0.20376(14) -0.40554(13) 0.6189(3)
H7 H -0.2248 -0.4169 0.5485
C31 C -0.16094(14) -0.16167(12) 0.7740(4)
H8 H -0.1532 -0.1816 0.8338
C32 C -0.01667(13) -0.38374(11) 0.7172(3)
H9 H 0.0011 -0.4057 0.7257
C33 C 0.09147(13) -0.10674(12) 0.6195(3)
H10 H 0.0862 -0.0880 0.5560
C34 C 0.03571(12) -0.19421(11) 0.6840(3)
C35 C -0.17300(14) -0.24296(12) 0.6389(4)
H11 H -0.1976 -0.2269 0.6246
C36 C 0.06252(14) -0.13627(12) 0.6051(3)
H12 H 0.0375 -0.1375 0.5322
C37 C -0.18494(14) -0.10352(11) 0.5978(3)
H13 H -0.1933 -0.0839 0.5370
C38 C -0.17125(17) -0.39819(16) 0.8366(4)
H14 H -0.1693 -0.4049 0.9186
C39 C -0.17247(13) -0.28126(12) 0.6448(4)
H15 H -0.1967 -0.2974 0.6358
C40 C 0.10766(15) -0.16268(13) 0.7974(4)
H16 H 0.1141 -0.1823 0.8582
C41 C -0.14421(17) -0.37087(16) 0.8186(4)
H17 H -0.1242 -0.3585 0.8889
C42 C -0.17575(14) -0.37847(12) 0.6025(3)
H18 H -0.1775 -0.3718 0.5207
C43 C 0.13641(14) -0.13276(13) 0.8111(4)
H19 H 0.1624 -0.1321 0.8813
C44 C -0.15874(13) -0.13348(12) 0.5857(3)
H20 H -0.1496 -0.1342 0.5156
C45 C 0.11124(15) -0.40097(14) 0.6116(4)
H21 H 0.1187 -0.4079 0.5415
C46 C 0.07953(16) -0.37350(14) 0.5994(4)
H22 H 0.0658 -0.3618 0.5210
C47 C 0.08730(17) -0.38165(16) 0.8103(4)
H23 H 0.0788 -0.3757 0.8793
C48 C 0.0000 -0.2644(2) 1.0000
C49 C 0.11923(17) -0.40875(16) 0.8230(4)
H24 H 0.1326 -0.4210 0.9007
O12A O 0.01460(14) -0.25576(11) 1.1025(3)
Zn1A Zn 0.036691(13) -0.262435(12) 1.29333(3)
O1A O 0.22499(8) -0.45778(7) 1.1337(2)
O2A O 0.26200(8) -0.45845(7) 1.3343(2)
O3A O 0.23592(8) -0.06826(7) 1.1868(2)
O5A O 0.23257(8) -0.04177(7) 1.3576(2)
O6A O -0.18803(8) -0.45916(7) 1.1523(2)
O7A O -0.17544(9) -0.45790(8) 1.3535(2)
O10A O -0.14574(8) -0.04216(7) 1.3323(2)
O11A O -0.19120(8) -0.06840(7) 1.1635(2)
N1A N 0.03915(10) -0.32105(9) 1.3077(3)
N2A N 0.03991(10) -0.20423(9) 1.3270(2)
N3A N -0.02179(10) -0.26346(8) 1.3239(2)
N4A N 0.10296(10) -0.26224(8) 1.3282(2)
C1A C 0.23118(12) -0.44593(10) 1.2437(3)
C2A C 0.22374(12) -0.06936(11) 1.2819(3)
C3A C 0.20164(12) -0.41626(10) 1.2642(3)
C4A C 0.19875(12) -0.10250(11) 1.3005(3)
C5A C 0.12853(12) -0.29346(11) 1.3326(3)
C6A C -0.16662(12) -0.44660(11) 1.2609(3)
C7A C -0.12785(12) -0.10380(11) 1.2760(3)
C8A C 0.00486(12) -0.34469(10) 1.2998(3)
C9A C -0.15709(12) -0.06982(11) 1.2561(3)
C10A C -0.13174(12) -0.41807(11) 1.2770(3)
C11A C 0.07233(12) -0.34393(10) 1.2985(3)
C12A C 0.14507(12) -0.36071(11) 1.2975(3)
C13A C -0.04602(12) -0.23240(11) 1.3301(3)
C14A C 0.00430(12) -0.18146(11) 1.3116(3)
C15A C -0.06748(12) -0.36291(11) 1.3021(3)
C16A C 0.18722(14) -0.13206(11) 1.2136(3)
H1A H 0.1974 -0.1319 1.1456
C17A C 0.07228(13) -0.18085(11) 1.3206(3)
C18A C -0.06937(12) -0.16435(11) 1.3044(3)
C19A C 0.14560(13) -0.16245(11) 1.3259(3)
C20A C 0.11389(12) -0.33147(11) 1.3117(3)
C21A C 0.05734(13) -0.38308(11) 1.2814(3)
H2A H 0.0735 -0.4045 1.2710
C22A C -0.04530(12) -0.29515(11) 1.3314(3)
C23A C -0.03418(12) -0.33282(11) 1.3128(3)
C24A C 0.05648(13) -0.14216(11) 1.2976(3)
H3A H 0.0726 -0.1204 1.2893
C25A C 0.12895(12) -0.23080(11) 1.3414(3)
C26A C -0.08441(13) -0.28305(12) 1.3516(4)
H4A H -0.1058 -0.2993 1.3636
C27A C 0.01470(13) -0.14265(11) 1.2902(3)
H5A H -0.0044 -0.1214 1.2740
C28A C 0.11453(13) -0.19248(11) 1.3314(3)
C29A C -0.08507(13) -0.24515(12) 1.3502(4)
H6A H -0.1071 -0.2293 1.3604
C30A C 0.20376(14) -0.40554(13) 1.3811(3)
H7A H 0.2248 -0.4169 1.4515
C31A C 0.16094(14) -0.16167(12) 1.2260(4)
H8A H 0.1532 -0.1816 1.1662
C32A C 0.01667(13) -0.38374(11) 1.2828(3)
H9A H -0.0011 -0.4057 1.2743
C33A C -0.09147(13) -0.10674(12) 1.3805(3)
H10A H -0.0862 -0.0880 1.4440
C34A C -0.03571(12) -0.19421(11) 1.3160(3)
C35A C 0.17300(14) -0.24296(12) 1.3611(4)
H11A H 0.1976 -0.2269 1.3754
C36A C -0.06252(14) -0.13627(12) 1.3949(3)
H12A H -0.0375 -0.1375 1.4678
C37A C 0.18494(14) -0.10352(11) 1.4022(3)
H13A H 0.1933 -0.0839 1.4630
C38A C 0.17125(17) -0.39819(16) 1.1634(4)
H14A H 0.1693 -0.4049 1.0814
C39A C 0.17247(13) -0.28126(12) 1.3552(4)
H15A H 0.1967 -0.2974 1.3642
C40A C -0.10766(15) -0.16268(13) 1.2026(4)
H16A H -0.1141 -0.1823 1.1418
C41A C 0.14421(17) -0.37087(16) 1.1814(4)
H17A H 0.1242 -0.3585 1.1111
C42A C 0.17575(14) -0.37847(12) 1.3975(3)
H18A H 0.1775 -0.3718 1.4793
C43A C -0.13641(14) -0.13276(13) 1.1889(4)
H19A H -0.1624 -0.1321 1.1187
C44A C 0.15874(13) -0.13348(12) 1.4143(3)
H20A H 0.1496 -0.1342 1.4844
C45A C -0.11124(15) -0.40097(14) 1.3884(4)
H21A H -0.1187 -0.4079 1.4585
C46A C -0.07953(16) -0.37350(14) 1.4006(4)
H22A H -0.0658 -0.3618 1.4790
C47A C -0.08730(17) -0.38165(16) 1.1897(4)
H23A H -0.0788 -0.3757 1.1207
C49A C -0.11923(17) -0.40875(16) 1.1770(4)
H24A H -0.1326 -0.4210 1.0993
Sm1A Sm -0.205378(8) 0.0000 1.21113(2)
Sm1B Sm -0.294622(8) -0.5000 0.78887(2)
Sm1C Sm 0.294622(8) -0.5000 1.21113(2)
Sm2A Sm -0.262709(8) 0.0000 0.76615(2)
Sm2B Sm -0.237291(8) -0.5000 1.23385(2)
Sm2C Sm 0.237291(8) -0.5000 0.76615(2)
O1B O 0.27501(8) 0.04222(7) 0.8663(2)
O1G O 0.27501(8) -0.04222(7) 0.8663(2)
O2B O 0.23800(8) 0.04155(7) 0.6657(2)
O2G O 0.23800(8) -0.04155(7) 0.6657(2)
O3D O 0.23592(8) 0.06826(7) 1.1868(2)
O5D O 0.23257(8) 0.04177(7) 1.3576(2)
O6C O 0.31197(8) 0.04084(7) 1.1523(2)
O6F O 0.31197(8) -0.04084(7) 1.1523(2)
O7C O 0.32456(9) 0.04210(8) 1.3535(2)
O7F O 0.32456(9) -0.04210(8) 1.3535(2)
O10E O 0.14574(8) 0.04216(7) 0.6677(2)
O11E O 0.19120(8) 0.06840(7) 0.8365(2)
loop_
_geom_bond_atom_site_label_1
_geom_bond_atom_site_label_2
_geom_bond_site_symmetry_1
_geom_bond_site_symmetry_2
Sm1 O8 1_555 1_555
Sm2 O4 1_555 1_555
Zn1 O12 1_555 1_555
O1 C1 1_555 1_555
O2 C1 1_555 1_555
O3 C2 1_555 1_555
O4 N5 1_555 1_555
O5 C2 1_555 1_555
O6 C6 1_555 1_555
O7 C6 1_555 1_555
O8 N5 1_555 1_555
O9 Sm1 1_555 1_555
O10 Sm1 1_555 1_555
O11 Sm1 1_555 1_555
O12 C48 1_555 1_555
N1 Zn1 1_555 1_555
N2 Zn1 1_555 1_555
N3 Zn1 1_555 1_555
N4 Zn1 1_555 1_555
N5 O9 1_555 1_555
C1 C3 1_555 1_555
C2 C4 1_555 1_555
C3 C30 1_555 1_555
C4 C16 1_555 1_555
C5 N4 1_555 1_555
C6 C10 1_555 1_555
C7 C9 1_555 1_555
C8 N1 1_555 1_555
C9 O10 1_555 1_555
C10 C45 1_555 1_555
C11 N1 1_555 1_555
C12 C20 1_555 1_555
C13 N3 1_555 1_555
C14 N2 1_555 1_555
C15 C23 1_555 1_555
C16 H1 1_555 1_555
C17 N2 1_555 1_555
C18 C34 1_555 1_555
C19 C28 1_555 1_555
C20 C5 1_555 1_555
C21 C11 1_555 1_555
H2 C21 1_555 1_555
C22 N3 1_555 1_555
C23 C8 1_555 1_555
C24 C17 1_555 1_555
H3 C24 1_555 1_555
C25 N4 1_555 1_555
C26 C22 1_555 1_555
H4 C26 1_555 1_555
C27 C14 1_555 1_555
H5 C27 1_555 1_555
C28 C17 1_555 1_555
C29 C13 1_555 1_555
H6 C29 1_555 1_555
C30 H7 1_555 1_555
C31 C16 1_555 1_555
H8 C31 1_555 1_555
C32 C8 1_555 1_555
H9 C32 1_555 1_555
C33 C7 1_555 1_555
H10 C33 1_555 1_555
C34 C13 1_555 1_555
C35 C25 1_555 1_555
H11 C35 1_555 1_555
C36 C18 1_555 1_555
H12 C36 1_555 1_555
C37 C4 1_555 1_555
H13 C37 1_555 1_555
C38 C3 1_555 1_555
H14 C38 1_555 1_555
C39 C5 1_555 1_555
H15 C39 1_555 1_555
C40 C18 1_555 1_555
H16 C40 1_555 1_555
C41 C12 1_555 1_555
H17 C41 1_555 1_555
C42 C12 1_555 1_555
H18 C42 1_555 1_555
C43 C7 1_555 1_555
H19 C43 1_555 1_555
C44 C19 1_555 1_555
H20 C44 1_555 1_555
C45 H21 1_555 1_555
C46 C15 1_555 1_555
H22 C46 1_555 1_555
C47 C15 1_555 1_555
H23 C47 1_555 1_555
C48 O12A 1_555 1_555
C49 C10 1_555 1_555
H24 C49 1_555 1_555
O13 H25 1_555 1_555
O15 H26 1_555 1_555
O16 H27 1_555 1_555
H28 O16 1_555 1_555
O12A Zn1A 1_555 1_555
Zn1A N1A 1_555 1_555
O1A C1A 1_555 1_555
O2A C1A 1_555 1_555
O3A Sm2 1_555 1_555
O5A Sm2 1_555 1_555
O6A C6A 1_555 1_555
O7A C6A 1_555 1_555
O10A C9A 1_555 1_555
O11A C9A 1_555 1_555
N1A C8A 1_555 1_555
N2A Zn1A 1_555 1_555
N3A Zn1A 1_555 1_555
N4A Zn1A 1_555 1_555
C1A C3A 1_555 1_555
C2A O3A 1_555 1_555
C3A C30A 1_555 1_555
C4A C2A 1_555 1_555
C5A N4A 1_555 1_555
C6A C10A 1_555 1_555
C7A C9A 1_555 1_555
C8A C23A 1_555 1_555
C10A C45A 1_555 1_555
C11A N1A 1_555 1_555
C12A C20A 1_555 1_555
C13A N3A 1_555 1_555
C14A N2A 1_555 1_555
C15A C23A 1_555 1_555
C16A C4A 1_555 1_555
H1A C16A 1_555 1_555
C17A N2A 1_555 1_555
C18A C34A 1_555 1_555
C19A C28A 1_555 1_555
C20A C5A 1_555 1_555
C21A C11A 1_555 1_555
H2A C21A 1_555 1_555
C22A N3A 1_555 1_555
C23A C22A 1_555 1_555
C24A C17A 1_555 1_555
H3A C24A 1_555 1_555
C25A N4A 1_555 1_555
C26A C22A 1_555 1_555
H4A C26A 1_555 1_555
C27A C14A 1_555 1_555
H5A C27A 1_555 1_555
C28A C17A 1_555 1_555
C29A C13A 1_555 1_555
H6A C29A 1_555 1_555
C30A H7A 1_555 1_555
C31A C16A 1_555 1_555
H8A C31A 1_555 1_555
C32A C8A 1_555 1_555
H9A C32A 1_555 1_555
C33A C7A 1_555 1_555
H10A C33A 1_555 1_555
C34A C13A 1_555 1_555
C35A C25A 1_555 1_555
H11A C35A 1_555 1_555
C36A C18A 1_555 1_555
H12A C36A 1_555 1_555
C37A C4A 1_555 1_555
H13A C37A 1_555 1_555
C38A C3A 1_555 1_555
H14A C38A 1_555 1_555
C39A C5A 1_555 1_555
H15A C39A 1_555 1_555
C40A C18A 1_555 1_555
H16A C40A 1_555 1_555
C41A C12A 1_555 1_555
H17A C41A 1_555 1_555
C42A C12A 1_555 1_555
H18A C42A 1_555 1_555
C43A C7A 1_555 1_555
H19A C43A 1_555 1_555
C44A C19A 1_555 1_555
H20A C44A 1_555 1_555
C45A H21A 1_555 1_555
C46A C15A 1_555 1_555
H22A C46A 1_555 1_555
C47A C15A 1_555 1_555
H23A C47A 1_555 1_555
C49A C10A 1_555 1_555
H24A C49A 1_555 1_555
Sm1A O10A 1_555 1_555
Sm1B O1 1_555 1_555
Sm1C O1A 1_555 1_555
Sm2A O3 1_555 1_555
Sm2B O6A 1_555 1_555
Sm2C O6 1_555 1_555
O1B Sm1 1_555 1_555
O1G Sm1 1_555 1_555
O2B Sm1 1_555 1_555
O2G Sm1 1_555 1_555
O3D Sm2 1_555 1_555
O5D Sm2 1_555 1_555
O6C Sm2 1_555 1_555
O6F Sm2 1_555 1_555
O7C Sm2 1_555 1_555
O7F Sm2 1_555 1_555
O10E Sm1 1_555 1_555
O11E Sm1 1_555 1_555
H25E O13 1_555 1_555
H26E O15 1_555 1_555
Sm2 O9 1_555 1_555
O2 Sm1B 1_555 1_555
O5 Sm2A 1_555 1_555
O7 Sm2C 1_555 1_555
O11 C9 1_555 1_555
C11 C20 1_555 1_555
C14 C34 1_555 1_555
C19 C31 1_555 1_555
C21 C32 1_555 1_555
C22 C23 1_555 1_555
C24 C27 1_555 1_555
C25 C28 1_555 1_555
C26 C29 1_555 1_555
C30 C42 1_555 1_555
C33 C36 1_555 1_555
C35 C39 1_555 1_555
C37 C44 1_555 1_555
C38 C41 1_555 1_555
C40 C43 1_555 1_555
C45 C46 1_555 1_555
C47 C49 1_555 1_555
O2A Sm1C 1_555 1_555
O5A C2A 1_555 1_555
O7A Sm2B 1_555 1_555
O11A Sm1A 1_555 1_555
C11A C20A 1_555 1_555
C14A C34A 1_555 1_555
C19A C31A 1_555 1_555
C21A C32A 1_555 1_555
C24A C27A 1_555 1_555
C25A C28A 1_555 1_555
C26A C29A 1_555 1_555
C30A C42A 1_555 1_555
C33A C36A 1_555 1_555
C35A C39A 1_555 1_555
C37A C44A 1_555 1_555
C38A C41A 1_555 1_555
C40A C43A 1_555 1_555
C45A C46A 1_555 1_555
C47A C49A 1_555 1_555

#END
