
#######################################################################
#
#                 Cambridge Crystallographic Data Centre
#                                CCDC 
#
#######################################################################
#
# If this CIF has been generated from an entry in the Cambridge 
# Structural Database, then it will include bibliographic, chemical, 
# crystal, experimental, refinement or atomic coordinate data resulting 
# from the CCDC's data processing and validation procedures.
#
#######################################################################

data_DOMGET
_chemical_formula_moiety         '(C97 H56 Dy2 N9 Na4 O25 Zn2)n'
_symmetry_cell_setting           monoclinic
_symmetry_space_group_name_H-M   'C 2/m'
_symmetry_Int_Tables_number      12
_space_group_name_Hall           '-C 2y'
loop_
_symmetry_equiv_pos_site_id
_symmetry_equiv_pos_as_xyz
1 x,y,z
2 -x,y,-z
3 1/2+x,1/2+y,z
4 1/2-x,1/2+y,-z
5 -x,-y,-z
6 x,-y,z
7 1/2-x,1/2-y,-z
8 1/2+x,1/2-y,z
_cell_length_a                   32.7734(13)
_cell_length_b                   34.8731(14)
_cell_length_c                   11.4924(5)
_cell_angle_alpha                90
_cell_angle_beta                 109.7290(18)
_cell_angle_gamma                90
_cell_volume                     12363.8
loop_
_atom_site_label
_atom_site_type_symbol
_atom_site_fract_x
_atom_site_fract_y
_atom_site_fract_z
_atom_site_U_iso_or_equiv
_atom_site_thermal_displace_type
Dy1 Dy 0.292314(7) 0.0000 0.20509(2) 0.0097 Uani
Dy2 Dy 0.237173(7) 0.0000 -0.23206(2) 0.0089 Uani
Zn1 Zn 0.536237(13) 0.261399(12) 0.29527(4) 0.0164 Uani
Na1 Na 0.32388(6) 0.5000 0.00731(19) 0.0162 Uani
Na2 Na 0.75203(4) 0.07731(4) 0.01261(12) 0.0140 Uani
Na3 Na 0.76674(7) 0.5000 0.49117(19) 0.0214 Uani
O1 O 0.73418(8) 0.04067(7) 0.3585(2) 0.0121 Uani
O2 O 0.76126(8) 0.45897(7) 0.3310(2) 0.0133 Uani
O3 O 0.27068(10) 0.0000 -0.0130(3) 0.0102 Uani
O4 O 0.72347(8) 0.45817(7) 0.1319(2) 0.0146 Uani
O5 O 0.32347(8) 0.45856(7) 0.3534(2) 0.0165 Uani
O6 O 0.35080(8) 0.04085(7) 0.3275(2) 0.0165 Uani
O7 O 0.31201(7) 0.45938(7) 0.1537(2) 0.0141 Uani
O8 O 0.31505(11) 0.0000 -0.1216(3) 0.0160 Uani
O9 O 0.73652(8) 0.06778(7) 0.1878(2) 0.0143 Uani
O10 O 0.34145(11) -0.0000 0.0881(3) 0.0162 Uani
O11 O 0.30661(8) 0.06781(7) 0.1598(2) 0.0147 Uani
O12 O 0.68634(14) 0.5000 0.4414(4) 0.0313 Uani
H1 H 0.6761 0.5221 0.4850 0.0370 Uiso
O13 O 0.75959(13) 0.14060(9) 0.0065(3) 0.0470 Uani
O14 O 0.84389(17) 0.5000 0.5412(5) 0.0500 Uani
O15 O 0.51342(18) 0.25597(11) 0.1033(3) 0.0477 Uani
N1 N 0.53963(9) 0.20287(8) 0.3301(3) 0.0128 Uani
N2 N 0.47776(9) 0.26240(8) 0.3271(3) 0.0123 Uani
N3 N 0.60268(9) 0.26146(8) 0.3307(3) 0.0143 Uani
N4 N 0.53851(9) 0.32029(8) 0.3085(3) 0.0133 Uani
N5 N 0.31085(16) 0.0000 -0.0171(5) 0.0249 Uani
C1 C 0.70080(11) 0.41636(10) 0.2629(3) 0.0110 Uani
C2 C 0.33257(11) 0.44698(10) 0.2617(3) 0.0129 Uani
C3 C 0.57257(11) 0.17937(10) 0.3253(3) 0.0136 Uani
C4 C 0.50413(11) 0.34392(10) 0.3005(3) 0.0124 Uani
C5 C 0.73001(11) 0.44626(10) 0.2412(3) 0.0119 Uani
C6 C 0.34054(11) 0.06893(10) 0.2534(3) 0.0145 Uani
C7 C 0.37035(11) 0.10271(10) 0.2746(4) 0.0156 Uani
C8 C 0.62821(11) 0.29291(11) 0.3352(4) 0.0157 Uani
C9 C 0.46404(11) 0.19272(11) 0.3196(3) 0.0156 Uani
C10 C 0.50419(12) 0.17988(10) 0.3153(3) 0.0155 Uani
C11 C 0.43142(11) 0.36235(10) 0.3029(3) 0.0149 Uani
C12 C 0.51530(12) 0.38324(10) 0.2821(4) 0.0182 Uani
H2 H 0.4972 0.4051 0.2722 0.0220 Uiso
C13 C 0.61342(11) 0.33097(10) 0.3130(3) 0.0131 Uani
C14 C 0.45344(11) 0.23127(10) 0.3336(3) 0.0143 Uani
C15 C 0.72498(11) 0.06833(10) 0.2815(3) 0.0124 Uani
C16 C 0.61437(12) 0.19146(11) 0.3348(4) 0.0164 Uani
C17 C 0.69896(11) 0.10127(10) 0.3014(3) 0.0146 Uani
C18 C 0.64444(11) 0.36057(10) 0.2979(4) 0.0142 Uani
C19 C 0.45457(11) 0.29431(11) 0.3348(3) 0.0154 Uani
C20 C 0.46508(11) 0.33213(10) 0.3150(3) 0.0134 Uani
C21 C 0.57132(11) 0.34349(10) 0.2981(3) 0.0143 Uani
C22 C 0.36753(11) 0.41807(10) 0.2784(3) 0.0133 Uani
C23 C 0.62857(11) 0.22980(11) 0.3440(4) 0.0164 Uani
C24 C 0.55679(12) 0.38274(11) 0.2816(4) 0.0176 Uani
H3 H 0.5731 0.4043 0.2721 0.0210 Uiso
C25 C 0.43023(12) 0.16282(11) 0.3069(4) 0.0180 Uani
C26 C 0.51519(13) 0.14084(11) 0.2977(4) 0.0195 Uani
H4 H 0.4963 0.1194 0.2841 0.0240 Uiso
C27 C 0.64581(12) 0.16111(10) 0.3289(4) 0.0174 Uani
C28 C 0.40737(12) 0.10337(11) 0.3760(4) 0.0193 Uani
H5 H 0.4128 0.0834 0.4355 0.0230 Uiso
C29 C 0.70336(13) 0.40551(12) 0.3792(4) 0.0234 Uani
H6 H 0.7244 0.4169 0.4489 0.0290 Uiso
C30 C 0.68754(14) 0.13115(11) 0.2167(4) 0.0227 Uani
H7 H 0.6979 0.1313 0.1488 0.0270 Uiso
C31 C 0.55673(13) 0.14020(11) 0.3040(4) 0.0197 Uani
H8 H 0.5728 0.1183 0.2961 0.0240 Uiso
C32 C 0.41546(12) 0.28244(11) 0.3568(4) 0.0220 Uani
H9 H 0.3942 0.2988 0.3695 0.0260 Uiso
C33 C 0.43707(12) 0.13327(12) 0.3923(4) 0.0220 Uani
H10 H 0.4625 0.1334 0.4633 0.0260 Uiso
C34 C 0.41495(12) 0.24389(12) 0.3557(4) 0.0229 Uani
H11 H 0.3932 0.2279 0.3675 0.0270 Uiso
C35 C 0.36171(13) 0.13308(12) 0.1914(4) 0.0297 Uani
H12 H 0.3356 0.1333 0.1226 0.0350 Uiso
C36 C 0.68529(12) 0.10230(11) 0.4036(4) 0.0190 Uani
H13 H 0.6942 0.0828 0.4648 0.0230 Uiso
C37 C 0.67540(14) 0.37787(13) 0.3967(4) 0.0266 Uani
H14 H 0.6777 0.3707 0.4784 0.0320 Uiso
C38 C 0.66138(14) 0.16064(12) 0.2295(4) 0.0242 Uani
H15 H 0.6539 0.1808 0.1705 0.0290 Uiso
C39 C 0.67254(13) 0.24218(12) 0.3641(4) 0.0274 Uani
H16 H 0.6972 0.2261 0.3795 0.0330 Uiso
C40 C 0.65864(12) 0.13182(11) 0.4161(4) 0.0185 Uani
H17 H 0.6490 0.1320 0.4853 0.0230 Uiso
C41 C 0.38843(16) 0.40150(14) 0.3901(4) 0.0357 Uani
H18 H 0.3813 0.4091 0.4603 0.0430 Uiso
C42 C 0.39113(13) 0.16309(12) 0.2083(4) 0.0283 Uani
H19 H 0.3845 0.1840 0.1520 0.0340 Uiso
C43 C 0.67223(12) 0.28064(12) 0.3572(4) 0.0249 Uani
H20 H 0.6964 0.2967 0.3653 0.0300 Uiso
C44 C 0.42022(15) 0.37344(14) 0.4031(4) 0.0366 Uani
H21 H 0.4341 0.3620 0.4815 0.0440 Uiso
C45 C 0.67047(18) 0.39879(19) 0.1636(4) 0.0556 Uani
H22 H 0.6684 0.4058 0.0819 0.0670 Uiso
C46 C 0.5000 0.2648(2) 0.0000 0.0527 Uani
C47 C 0.38010(17) 0.40826(17) 0.1787(4) 0.0455 Uani
H23 H 0.3675 0.4208 0.1016 0.0540 Uiso
C48 C 0.64304(18) 0.37098(18) 0.1818(4) 0.0530 Uani
H24 H 0.6228 0.3589 0.1121 0.0640 Uiso
C49 C 0.41108(18) 0.38009(18) 0.1917(5) 0.0526 Uani
H25 H 0.4185 0.3728 0.1217 0.0630 Uiso
H1E H 0.6761 0.4779 0.4850 0.0370 Uiso
O15A O 0.48658(18) 0.25597(11) -0.1033(3) 0.0477 Uani
Zn1A Zn 0.463763(13) 0.261399(12) -0.29527(4) 0.0164 Uani
Na2A Na 0.24797(4) 0.07731(4) -0.01261(12) 0.0140 Uani
O1A O 0.26582(8) 0.04067(7) -0.3585(2) 0.0121 Uani
O2A O 0.23874(8) 0.45897(7) -0.3310(2) 0.0133 Uani
O4A O 0.27653(8) 0.45817(7) -0.1319(2) 0.0146 Uani
O5A O 0.67653(8) 0.45856(7) -0.3534(2) 0.0165 Uani
O6A O 0.64920(8) 0.04085(7) -0.3275(2) 0.0165 Uani
O7A O 0.68799(7) 0.45938(7) -0.1537(2) 0.0141 Uani
O9A O 0.26348(8) 0.06778(7) -0.1878(2) 0.0143 Uani
O11A O 0.69339(8) 0.06781(7) -0.1598(2) 0.0147 Uani
O13A O 0.24041(13) 0.14060(9) -0.0065(3) 0.0470 Uani
N1A N 0.46037(9) 0.20287(8) -0.3301(3) 0.0128 Uani
N2A N 0.52224(9) 0.26240(8) -0.3271(3) 0.0123 Uani
N3A N 0.39732(9) 0.26146(8) -0.3307(3) 0.0143 Uani
N4A N 0.46149(9) 0.32029(8) -0.3085(3) 0.0133 Uani
C1A C 0.29920(11) 0.41636(10) -0.2629(3) 0.0110 Uani
C2A C 0.66743(11) 0.44698(10) -0.2617(3) 0.0129 Uani
C3A C 0.42743(11) 0.17937(10) -0.3253(3) 0.0136 Uani
C4A C 0.49587(11) 0.34392(10) -0.3005(3) 0.0124 Uani
C5A C 0.26999(11) 0.44626(10) -0.2412(3) 0.0119 Uani
C6A C 0.65946(11) 0.06893(10) -0.2534(3) 0.0145 Uani
C7A C 0.62965(11) 0.10271(10) -0.2746(4) 0.0156 Uani
C8A C 0.37179(11) 0.29291(11) -0.3352(4) 0.0157 Uani
C9A C 0.53596(11) 0.19272(11) -0.3196(3) 0.0156 Uani
C10A C 0.49581(12) 0.17988(10) -0.3153(3) 0.0155 Uani
C11A C 0.56858(11) 0.36235(10) -0.3029(3) 0.0149 Uani
C12A C 0.48470(12) 0.38324(10) -0.2821(4) 0.0182 Uani
H2A H 0.5028 0.4051 -0.2722 0.0220 Uiso
C13A C 0.38658(11) 0.33097(10) -0.3130(3) 0.0131 Uani
C14A C 0.54656(11) 0.23127(10) -0.3336(3) 0.0143 Uani
C15A C 0.27502(11) 0.06833(10) -0.2815(3) 0.0124 Uani
C16A C 0.38563(12) 0.19146(11) -0.3348(4) 0.0164 Uani
C17A C 0.30104(11) 0.10127(10) -0.3014(3) 0.0146 Uani
C18A C 0.35556(11) 0.36057(10) -0.2979(4) 0.0142 Uani
C19A C 0.54543(11) 0.29431(11) -0.3348(3) 0.0154 Uani
C20A C 0.53492(11) 0.33213(10) -0.3150(3) 0.0134 Uani
C21A C 0.42868(11) 0.34349(10) -0.2981(3) 0.0143 Uani
C22A C 0.63247(11) 0.41807(10) -0.2784(3) 0.0133 Uani
C23A C 0.37143(11) 0.22980(11) -0.3440(4) 0.0164 Uani
C24A C 0.44321(12) 0.38274(11) -0.2816(4) 0.0176 Uani
H3A H 0.4269 0.4043 -0.2721 0.0210 Uiso
C25A C 0.56977(12) 0.16282(11) -0.3069(4) 0.0180 Uani
C26A C 0.48481(13) 0.14084(11) -0.2977(4) 0.0195 Uani
H4A H 0.5037 0.1194 -0.2841 0.0240 Uiso
C27A C 0.35419(12) 0.16111(10) -0.3289(4) 0.0174 Uani
C28A C 0.59263(12) 0.10337(11) -0.3760(4) 0.0193 Uani
H5A H 0.5872 0.0834 -0.4355 0.0230 Uiso
C29A C 0.29664(13) 0.40551(12) -0.3792(4) 0.0234 Uani
H6A H 0.2756 0.4169 -0.4489 0.0290 Uiso
C30A C 0.31246(14) 0.13115(11) -0.2167(4) 0.0227 Uani
H7A H 0.3021 0.1313 -0.1488 0.0270 Uiso
C31A C 0.44327(13) 0.14020(11) -0.3040(4) 0.0197 Uani
H8A H 0.4272 0.1183 -0.2961 0.0240 Uiso
C32A C 0.58454(12) 0.28244(11) -0.3568(4) 0.0220 Uani
H9A H 0.6058 0.2988 -0.3695 0.0260 Uiso
C33A C 0.56293(12) 0.13327(12) -0.3923(4) 0.0220 Uani
H10A H 0.5375 0.1334 -0.4633 0.0260 Uiso
C34A C 0.58505(12) 0.24389(12) -0.3557(4) 0.0229 Uani
H11A H 0.6068 0.2279 -0.3675 0.0270 Uiso
C35A C 0.63829(13) 0.13308(12) -0.1914(4) 0.0297 Uani
H12A H 0.6644 0.1333 -0.1226 0.0350 Uiso
C36A C 0.31471(12) 0.10230(11) -0.4036(4) 0.0190 Uani
H13A H 0.3058 0.0828 -0.4648 0.0230 Uiso
C37A C 0.32460(14) 0.37787(13) -0.3967(4) 0.0266 Uani
H14A H 0.3223 0.3707 -0.4784 0.0320 Uiso
C38A C 0.33862(14) 0.16064(12) -0.2295(4) 0.0242 Uani
H15A H 0.3461 0.1808 -0.1705 0.0290 Uiso
C39A C 0.32746(13) 0.24218(12) -0.3641(4) 0.0274 Uani
H16A H 0.3028 0.2261 -0.3795 0.0330 Uiso
C40A C 0.34136(12) 0.13182(11) -0.4161(4) 0.0185 Uani
H17A H 0.3510 0.1320 -0.4853 0.0230 Uiso
C41A C 0.61157(16) 0.40150(14) -0.3901(4) 0.0357 Uani
H18A H 0.6187 0.4091 -0.4603 0.0430 Uiso
C42A C 0.60887(13) 0.16309(12) -0.2083(4) 0.0283 Uani
H19A H 0.6155 0.1840 -0.1520 0.0340 Uiso
C43A C 0.32777(12) 0.28064(12) -0.3572(4) 0.0249 Uani
H20A H 0.3036 0.2967 -0.3653 0.0300 Uiso
C44A C 0.57978(15) 0.37344(14) -0.4031(4) 0.0366 Uani
H21A H 0.5659 0.3620 -0.4815 0.0440 Uiso
C45A C 0.32953(18) 0.39879(19) -0.1636(4) 0.0556 Uani
H22A H 0.3316 0.4058 -0.0819 0.0670 Uiso
C47A C 0.61990(17) 0.40826(17) -0.1787(4) 0.0455 Uani
H23A H 0.6325 0.4208 -0.1016 0.0540 Uiso
C48A C 0.35696(18) 0.37098(18) -0.1818(4) 0.0530 Uani
H24A H 0.3772 0.3589 -0.1121 0.0640 Uiso
C49A C 0.58892(18) 0.38009(18) -0.1917(5) 0.0526 Uani
H25A H 0.5815 0.3728 -0.1217 0.0630 Uiso
Dy1A Dy 0.707686(7) 0.0000 -0.20509(2) 0.0097 Uani
Dy1B Dy 0.792314(7) 0.5000 0.20509(2) 0.0097 Uani
Dy1C Dy 0.207686(7) 0.5000 -0.20509(2) 0.0097 Uani
Dy2A Dy 0.762827(7) 0.0000 0.23206(2) 0.0089 Uani
Dy2B Dy 0.737173(7) 0.5000 -0.23206(2) 0.0089 Uani
Dy2C Dy 0.262827(7) 0.5000 0.23206(2) 0.0089 Uani
Na1A Na 0.67612(6) 0.5000 -0.00731(19) 0.0162 Uani
Na2D Na 0.24797(4) -0.07731(4) -0.01261(12) 0.0140 Uani
Na2F Na 0.74797(4) 0.42269(4) -0.01261(12) 0.0140 Uani
Na2G Na 0.25203(4) 0.42269(4) 0.01261(12) 0.0140 Uani
Na3A Na 0.23326(7) 0.5000 -0.49117(19) 0.0214 Uani
Na3B Na 0.26674(7) -0.0000 -0.50883(19) 0.0214 Uani
Na3C Na 0.73326(7) 0.0000 0.50883(19) 0.0214 Uani
O1C O 0.76582(8) 0.54067(7) 0.6415(2) 0.0121 Uani
O1D O 0.26582(8) -0.04067(7) -0.3585(2) 0.0121 Uani
O1F O 0.76582(8) 0.45933(7) 0.6415(2) 0.0121 Uani
O2B O 0.26126(8) -0.04103(7) 0.3310(2) 0.0133 Uani
O2E O 0.76126(8) 0.54103(7) 0.3310(2) 0.0133 Uani
O2G O 0.26126(8) 0.04103(7) 0.3310(2) 0.0133 Uani
O3A O 0.72932(10) -0.0000 0.0130(3) 0.0102 Uani
O4B O 0.22347(8) -0.04183(7) 0.1319(2) 0.0146 Uani
O4D O 0.27653(8) 0.54183(7) -0.1319(2) 0.0146 Uani
O4F O 0.77653(8) 0.04183(7) -0.1319(2) 0.0146 Uani
O4G O 0.22347(8) 0.04183(7) 0.1319(2) 0.0146 Uani
O5C O 0.17653(8) -0.04144(7) -0.3534(2) 0.0165 Uani
O5F O 0.17653(8) 0.04144(7) -0.3534(2) 0.0165 Uani
O6E O 0.35080(8) -0.04085(7) 0.3275(2) 0.0165 Uani
O7C O 0.18799(7) -0.04062(7) -0.1537(2) 0.0141 Uani
O7E O 0.31201(7) 0.54062(7) 0.1537(2) 0.0141 Uani
O7F O 0.18799(7) 0.04062(7) -0.1537(2) 0.0141 Uani
O7G O 0.81201(7) 0.04062(7) 0.1537(2) 0.0141 Uani
O9D O 0.26348(8) -0.06778(7) -0.1878(2) 0.0143 Uani
O11E O 0.30661(8) -0.06781(7) 0.1598(2) 0.0147 Uani
loop_
_atom_site_aniso_label
_atom_site_aniso_U_11
_atom_site_aniso_U_22
_atom_site_aniso_U_33
_atom_site_aniso_U_23
_atom_site_aniso_U_13
_atom_site_aniso_U_12
Dy1 0.00893(12) 0.00778(13) 0.01338(13) 0.000 0.00494(9) 0.000
Dy2 0.00864(12) 0.00665(13) 0.01307(13) 0.000 0.00575(9) 0.000
Zn1 0.0107(2) 0.0071(2) 0.0349(3) -0.00005(18) 0.01227(19) 0.00009(15)
Na1 0.0158(10) 0.0136(10) 0.0173(11) 0.000 0.0032(8) 0.000
Na2 0.0154(7) 0.0140(7) 0.0128(7) 0.0004(6) 0.0052(6) 0.0007(6)
Na3 0.0422(14) 0.0112(11) 0.0165(11) 0.000 0.0172(10) 0.000
O1 0.0167(12) 0.0102(12) 0.0122(12) 0.0014(10) 0.0087(10) 0.0050(10)
O2 0.0153(12) 0.0097(12) 0.0172(13) -0.0028(10) 0.0087(11) -0.0049(10)
O3 0.0065(16) 0.0124(18) 0.0131(18) 0.000 0.0051(14) 0.000
O4 0.0119(12) 0.0151(13) 0.0191(14) 0.0060(10) 0.0082(10) 0.0006(10)
O5 0.0181(13) 0.0182(14) 0.0116(13) -0.0016(10) 0.0028(10) 0.0100(11)
O6 0.0145(12) 0.0114(13) 0.0214(14) 0.0013(11) 0.0032(11) -0.0042(10)
O7 0.0103(12) 0.0155(13) 0.0176(13) 0.0049(10) 0.0061(10) 0.0027(10)
O8 0.0125(18) 0.024(2) 0.0166(19) 0.000 0.0116(15) 0.000
O9 0.0191(13) 0.0115(13) 0.0160(13) 0.0022(10) 0.0106(11) 0.0057(10)
O10 0.0102(17) 0.022(2) 0.0173(19) 0.000 0.0058(15) 0.000
O11 0.0131(12) 0.0147(13) 0.0148(13) -0.0001(10) 0.0029(10) -0.0046(10)
O12 0.036(2) 0.033(3) 0.028(2) 0.000 0.015(2) 0.000
O13 0.068(3) 0.0125(16) 0.060(2) -0.0014(15) 0.021(2) -0.0169(16)
O14 0.032(3) 0.072(6) 0.046(3) 0.000 0.013(3) 0.000
O15 0.081(5) 0.036(2) 0.020(2) 0.0030(16) 0.009(2) 0.005(3)
N1 0.0108(14) 0.0081(15) 0.0219(16) -0.0012(12) 0.0085(12) 0.0003(11)
N2 0.0060(13) 0.0084(15) 0.0235(17) -0.0001(12) 0.0063(12) 0.0006(11)
N3 0.0108(14) 0.0094(15) 0.0256(17) 0.0011(13) 0.0099(13) 0.0017(11)
N4 0.0089(14) 0.0105(16) 0.0222(17) 0.0006(12) 0.0074(12) -0.0001(11)
N5 0.025(3) 0.023(3) 0.027(3) 0.000 0.009(2) 0.000
C1 0.0138(17) 0.0092(17) 0.0132(17) -0.0012(14) 0.0087(14) -0.0023(14)
C2 0.0079(16) 0.0112(18) 0.0189(19) 0.0002(15) 0.0037(14) -0.0015(13)
C3 0.0156(18) 0.0090(18) 0.0165(18) 0.0033(14) 0.0060(15) 0.0045(14)
C4 0.0124(17) 0.0098(17) 0.0159(18) -0.0007(14) 0.0060(14) 0.0016(14)
C5 0.0125(17) 0.0070(17) 0.0207(19) -0.0017(14) 0.0114(15) 0.0006(13)
C6 0.0133(17) 0.0138(19) 0.0176(19) -0.0018(15) 0.0068(15) -0.0005(14)
C7 0.0116(17) 0.0117(18) 0.025(2) -0.0042(15) 0.0083(15) -0.0034(14)
C8 0.0104(17) 0.0140(19) 0.026(2) 0.0022(15) 0.0103(15) 0.0020(14)
C9 0.0119(17) 0.0143(19) 0.0191(19) 0.0031(15) 0.0034(15) -0.0034(14)
C10 0.0159(18) 0.0103(18) 0.0202(19) -0.0021(15) 0.0059(15) -0.0034(14)
C11 0.0117(17) 0.0091(18) 0.023(2) -0.0011(15) 0.0047(15) 0.0006(14)
C12 0.0166(18) 0.0070(18) 0.029(2) 0.0036(15) 0.0050(16) 0.0026(14)
C13 0.0109(17) 0.0113(18) 0.0184(19) -0.0021(14) 0.0067(14) -0.0046(14)
C14 0.0095(17) 0.0115(18) 0.022(2) -0.0014(15) 0.0056(15) -0.0016(14)
C15 0.0131(17) 0.0124(18) 0.0122(18) -0.0003(14) 0.0049(14) -0.0014(14)
C16 0.0170(18) 0.0125(19) 0.024(2) -0.0003(15) 0.0124(16) 0.0055(15)
C17 0.0141(17) 0.0103(18) 0.022(2) 0.0006(15) 0.0096(15) 0.0031(14)
C18 0.0121(17) 0.0082(17) 0.026(2) -0.0011(15) 0.0113(15) -0.0019(14)
C19 0.0106(17) 0.0166(19) 0.0197(19) -0.0034(15) 0.0062(15) 0.0029(14)
C20 0.0134(17) 0.0087(18) 0.0178(19) -0.0017(14) 0.0047(15) 0.0018(14)
C21 0.0133(17) 0.0081(17) 0.023(2) 0.0000(15) 0.0081(15) -0.0007(14)
C22 0.0121(17) 0.0132(18) 0.0137(18) 0.0007(14) 0.0030(14) 0.0012(14)
C23 0.0119(17) 0.0145(19) 0.025(2) 0.0011(15) 0.0090(15) 0.0027(14)
C24 0.0191(19) 0.0089(18) 0.024(2) 0.0027(15) 0.0061(16) -0.0015(14)
C25 0.0113(17) 0.0131(19) 0.030(2) -0.0018(16) 0.0076(16) -0.0038(14)
C26 0.022(2) 0.0107(19) 0.026(2) -0.0017(15) 0.0082(17) -0.0029(15)
C27 0.0149(18) 0.0112(19) 0.030(2) 0.0021(16) 0.0125(16) 0.0031(14)
C28 0.0191(19) 0.020(2) 0.019(2) 0.0029(16) 0.0067(16) -0.0048(16)
C29 0.027(2) 0.025(2) 0.017(2) -0.0018(17) 0.0058(17) -0.0181(18)
C30 0.035(2) 0.018(2) 0.024(2) 0.0100(17) 0.0216(18) 0.0102(17)
C31 0.022(2) 0.0113(19) 0.027(2) -0.0021(16) 0.0100(17) 0.0029(15)
C32 0.0145(18) 0.019(2) 0.038(2) -0.0037(18) 0.0161(17) 0.0004(16)
C33 0.0163(19) 0.023(2) 0.022(2) 0.0005(16) 0.0001(16) -0.0101(16)
C34 0.0140(18) 0.020(2) 0.038(2) 0.0009(18) 0.0133(17) -0.0050(16)
C35 0.017(2) 0.024(2) 0.037(3) 0.0129(19) -0.0053(18) -0.0058(17)
C36 0.024(2) 0.016(2) 0.021(2) 0.0074(16) 0.0129(16) 0.0098(16)
C37 0.031(2) 0.034(3) 0.015(2) 0.0040(18) 0.0081(17) -0.0190(19)
C38 0.030(2) 0.017(2) 0.032(2) 0.0100(17) 0.0188(19) 0.0115(17)
C39 0.0157(19) 0.020(2) 0.050(3) 0.0020(19) 0.0156(19) 0.0074(16)
C40 0.023(2) 0.017(2) 0.021(2) -0.0009(16) 0.0147(16) 0.0058(16)
C41 0.043(3) 0.044(3) 0.021(2) 0.000(2) 0.012(2) 0.028(2)
C42 0.021(2) 0.017(2) 0.037(3) 0.0120(18) -0.0031(18) -0.0065(17)
C43 0.0139(19) 0.017(2) 0.047(3) 0.0005(18) 0.0145(18) -0.0006(16)
C44 0.039(3) 0.047(3) 0.022(2) 0.005(2) 0.008(2) 0.030(2)
C45 0.057(3) 0.091(5) 0.017(2) -0.003(3) 0.010(2) -0.060(3)
C46 0.094(7) 0.045(5) 0.009(4) 0.000 0.004(4) 0.000
C47 0.043(3) 0.071(4) 0.017(2) 0.001(2) 0.003(2) 0.038(3)
C48 0.054(3) 0.082(4) 0.019(2) -0.007(2) 0.007(2) -0.055(3)
C49 0.057(3) 0.072(4) 0.023(3) -0.007(3) 0.006(2) 0.047(3)
O15A 0.081 0.036 0.02 -0.003 0.009 -0.005
Zn1A 0.0107 0.0071 0.0349 5e-05 0.01227 -9e-05
Na2A 0.0154 0.014 0.0128 -0.0004 0.0052 -0.0007
O1A 0.0167 0.0102 0.0122 -0.0014 0.0087 -0.005
O2A 0.0153 0.0097 0.0172 0.0028 0.0087 0.0049
O4A 0.0119 0.0151 0.0191 -0.006 0.0082 -0.0006
O5A 0.0181 0.0182 0.0116 0.0016 0.0028 -0.01
O6A 0.0145 0.0114 0.0214 -0.0013 0.0032 0.0042
O7A 0.0103 0.0155 0.0176 -0.0049 0.0061 -0.0027
O9A 0.0191 0.0115 0.016 -0.0022 0.0106 -0.0057
O11A 0.0131 0.0147 0.0148 0.0001 0.0029 0.0046
O13A 0.068 0.0125 0.06 0.0014 0.021 0.0169
N1A 0.0108 0.0081 0.0219 0.0012 0.0085 -0.0003
N2A 0.006 0.0084 0.0235 0.0001 0.0063 -0.0006
N3A 0.0108 0.0094 0.0256 -0.0011 0.0099 -0.0017
N4A 0.0089 0.0105 0.0222 -0.0006 0.0074 0.0001
C1A 0.0138 0.0092 0.0132 0.0012 0.0087 0.0023
C2A 0.0079 0.0112 0.0189 -0.0002 0.0037 0.0015
C3A 0.0156 0.009 0.0165 -0.0033 0.006 -0.0045
C4A 0.0124 0.0098 0.0159 0.0007 0.006 -0.0016
C5A 0.0125 0.007 0.0207 0.0017 0.0114 -0.0006
C6A 0.0133 0.0138 0.0176 0.0018 0.0068 0.0005
C7A 0.0116 0.0117 0.025 0.0042 0.0083 0.0034
C8A 0.0104 0.014 0.026 -0.0022 0.0103 -0.002
C9A 0.0119 0.0143 0.0191 -0.0031 0.0034 0.0034
C10A 0.0159 0.0103 0.0202 0.0021 0.0059 0.0034
C11A 0.0117 0.0091 0.023 0.0011 0.0047 -0.0006
C12A 0.0166 0.007 0.029 -0.0036 0.005 -0.0026
C13A 0.0109 0.0113 0.0184 0.0021 0.0067 0.0046
C14A 0.0095 0.0115 0.022 0.0014 0.0056 0.0016
C15A 0.0131 0.0124 0.0122 0.0003 0.0049 0.0014
C16A 0.017 0.0125 0.024 0.0003 0.0124 -0.0055
C17A 0.0141 0.0103 0.022 -0.0006 0.0096 -0.0031
C18A 0.0121 0.0082 0.026 0.0011 0.0113 0.0019
C19A 0.0106 0.0166 0.0197 0.0034 0.0062 -0.0029
C20A 0.0134 0.0087 0.0178 0.0017 0.0047 -0.0018
C21A 0.0133 0.0081 0.023 0 0.0081 0.0007
C22A 0.0121 0.0132 0.0137 -0.0007 0.003 -0.0012
C23A 0.0119 0.0145 0.025 -0.0011 0.009 -0.0027
C24A 0.0191 0.0089 0.024 -0.0027 0.0061 0.0015
C25A 0.0113 0.0131 0.03 0.0018 0.0076 0.0038
C26A 0.022 0.0107 0.026 0.0017 0.0082 0.0029
C27A 0.0149 0.0112 0.03 -0.0021 0.0125 -0.0031
C28A 0.0191 0.02 0.019 -0.0029 0.0067 0.0048
C29A 0.027 0.025 0.017 0.0018 0.0058 0.0181
C30A 0.035 0.018 0.024 -0.01 0.0216 -0.0102
C31A 0.022 0.0113 0.027 0.0021 0.01 -0.0029
C32A 0.0145 0.019 0.038 0.0037 0.0161 -0.0004
C33A 0.0163 0.023 0.022 -0.0005 0.0001 0.0101
C34A 0.014 0.02 0.038 -0.0009 0.0133 0.005
C35A 0.017 0.024 0.037 -0.0129 -0.0053 0.0058
C36A 0.024 0.016 0.021 -0.0074 0.0129 -0.0098
C37A 0.031 0.034 0.015 -0.004 0.0081 0.019
C38A 0.03 0.017 0.032 -0.01 0.0188 -0.0115
C39A 0.0157 0.02 0.05 -0.002 0.0156 -0.0074
C40A 0.023 0.017 0.021 0.0009 0.0147 -0.0058
C41A 0.043 0.044 0.021 0 0.012 -0.028
C42A 0.021 0.017 0.037 -0.012 -0.0031 0.0065
C43A 0.0139 0.017 0.047 -0.0005 0.0145 0.0006
C44A 0.039 0.047 0.022 -0.005 0.008 -0.03
C45A 0.057 0.091 0.017 0.003 0.01 0.06
C47A 0.043 0.071 0.017 -0.001 0.003 -0.038
C48A 0.054 0.082 0.019 0.007 0.007 0.055
C49A 0.057 0.072 0.023 0.007 0.006 -0.047
Dy1A 0.00893 0.00778 0.01338 0 0.00494 0
Dy1B 0.00893 0.00778 0.01338 0 0.00494 0
Dy1C 0.00893 0.00778 0.01338 0 0.00494 0
Dy2A 0.00864 0.00665 0.01307 0 0.00575 0
Dy2B 0.00864 0.00665 0.01307 0 0.00575 0
Dy2C 0.00864 0.00665 0.01307 0 0.00575 0
Na1A 0.0158 0.0136 0.0173 0 0.0032 0
Na2D 0.0154 0.014 0.0128 0.0004 0.0052 0.0007
Na2F 0.0154 0.014 0.0128 0.0004 0.0052 0.0007
Na2G 0.0154 0.014 0.0128 -0.0004 0.0052 -0.0007
Na3A 0.0422 0.0112 0.0165 0 0.0172 0
Na3B 0.0422 0.0112 0.0165 0 0.0172 0
Na3C 0.0422 0.0112 0.0165 0 0.0172 0
O1C 0.0167 0.0102 0.0122 -0.0014 0.0087 -0.005
O1D 0.0167 0.0102 0.0122 0.0014 0.0087 0.005
O1F 0.0167 0.0102 0.0122 0.0014 0.0087 0.005
O2B 0.0153 0.0097 0.0172 -0.0028 0.0087 -0.0049
O2E 0.0153 0.0097 0.0172 0.0028 0.0087 0.0049
O2G 0.0153 0.0097 0.0172 0.0028 0.0087 0.0049
O3A 0.0065 0.0124 0.0131 0 0.0051 0
O4B 0.0119 0.0151 0.0191 0.006 0.0082 0.0006
O4D 0.0119 0.0151 0.0191 0.006 0.0082 0.0006
O4F 0.0119 0.0151 0.0191 0.006 0.0082 0.0006
O4G 0.0119 0.0151 0.0191 -0.006 0.0082 -0.0006
O5C 0.0181 0.0182 0.0116 0.0016 0.0028 -0.01
O5F 0.0181 0.0182 0.0116 -0.0016 0.0028 0.01
O6E 0.0145 0.0114 0.0214 -0.0013 0.0032 0.0042
O7C 0.0103 0.0155 0.0176 -0.0049 0.0061 -0.0027
O7E 0.0103 0.0155 0.0176 -0.0049 0.0061 -0.0027
O7F 0.0103 0.0155 0.0176 0.0049 0.0061 0.0027
O7G 0.0103 0.0155 0.0176 -0.0049 0.0061 -0.0027
O9D 0.0191 0.0115 0.016 0.0022 0.0106 0.0057
O11E 0.0131 0.0147 0.0148 0.0001 0.0029 0.0046
loop_
_geom_bond_atom_site_label_1
_geom_bond_atom_site_label_2
_geom_bond_site_symmetry_1
_geom_bond_site_symmetry_2
Dy1 O3 1_555 1_555
Dy2 O3 1_555 1_555
Zn1 O15 1_555 1_555
Na1 O7 1_555 1_555
Na2 O9 1_555 1_555
Na3 O2 1_555 1_555
O1 C15 1_555 1_555
O2 C5 1_555 1_555
O3 N5 1_555 1_555
O4 C5 1_555 1_555
O5 C2 1_555 1_555
O6 Dy1 1_555 1_555
O7 C2 1_555 1_555
O8 Dy2 1_555 1_555
O9 C15 1_555 1_555
O10 Dy1 1_555 1_555
O11 Dy1 1_555 1_555
O12 Na3 1_555 1_555
H1 O12 1_555 1_555
O13 Na2 1_555 1_555
O14 Na3 1_555 1_555
O15 C46 1_555 1_555
N1 Zn1 1_555 1_555
N2 Zn1 1_555 1_555
N3 Zn1 1_555 1_555
N4 Zn1 1_555 1_555
N5 O8 1_555 1_555
C1 C5 1_555 1_555
C2 C22 1_555 1_555
C3 N1 1_555 1_555
C4 N4 1_555 1_555
C6 O6 1_555 1_555
C7 C6 1_555 1_555
C8 N3 1_555 1_555
C9 C10 1_555 1_555
C10 N1 1_555 1_555
C11 C20 1_555 1_555
C12 C4 1_555 1_555
H2 C12 1_555 1_555
C13 C8 1_555 1_555
C14 N2 1_555 1_555
C15 C17 1_555 1_555
C16 C3 1_555 1_555
C17 C30 1_555 1_555
C18 C13 1_555 1_555
C19 N2 1_555 1_555
C20 C4 1_555 1_555
C21 N4 1_555 1_555
C22 C41 1_555 1_555
C23 N3 1_555 1_555
C24 C12 1_555 1_555
H3 C24 1_555 1_555
C25 C9 1_555 1_555
C26 C10 1_555 1_555
H4 C26 1_555 1_555
C27 C16 1_555 1_555
C28 C7 1_555 1_555
H5 C28 1_555 1_555
C29 C1 1_555 1_555
H6 C29 1_555 1_555
C30 H7 1_555 1_555
C31 C3 1_555 1_555
H8 C31 1_555 1_555
C32 C19 1_555 1_555
H9 C32 1_555 1_555
C33 C25 1_555 1_555
H10 C33 1_555 1_555
C34 C14 1_555 1_555
H11 C34 1_555 1_555
C35 C7 1_555 1_555
H12 C35 1_555 1_555
C36 C17 1_555 1_555
H13 C36 1_555 1_555
C37 C18 1_555 1_555
H14 C37 1_555 1_555
C38 C27 1_555 1_555
H15 C38 1_555 1_555
C39 C23 1_555 1_555
H16 C39 1_555 1_555
C40 C27 1_555 1_555
H17 C40 1_555 1_555
C41 H18 1_555 1_555
C42 C25 1_555 1_555
H19 C42 1_555 1_555
C43 C8 1_555 1_555
H20 C43 1_555 1_555
C44 C11 1_555 1_555
H21 C44 1_555 1_555
C45 C1 1_555 1_555
H22 C45 1_555 1_555
C46 O15A 1_555 1_555
C47 C22 1_555 1_555
H23 C47 1_555 1_555
C48 C18 1_555 1_555
H24 C48 1_555 1_555
C49 C11 1_555 1_555
H25 C49 1_555 1_555
H1E O12 1_555 1_555
O15A Zn1A 1_555 1_555
Zn1A N1A 1_555 1_555
Na2A O3 1_555 1_555
O1A Dy2 1_555 1_555
O2A C5A 1_555 1_555
O4A Na1 1_555 1_555
O5A C2A 1_555 1_555
O6A C6A 1_555 1_555
O7A C2A 1_555 1_555
O9A Dy2 1_555 1_555
O11A Na2 1_555 1_555
O13A Na2A 1_555 1_555
N1A C3A 1_555 1_555
N2A Zn1A 1_555 1_555
N3A Zn1A 1_555 1_555
N4A Zn1A 1_555 1_555
C1A C5A 1_555 1_555
C2A C22A 1_555 1_555
C3A C16A 1_555 1_555
C4A N4A 1_555 1_555
C5A O4A 1_555 1_555
C6A O11A 1_555 1_555
C7A C6A 1_555 1_555
C8A N3A 1_555 1_555
C9A C10A 1_555 1_555
C10A N1A 1_555 1_555
C11A C20A 1_555 1_555
C12A C4A 1_555 1_555
H2A C12A 1_555 1_555
C13A C8A 1_555 1_555
C14A N2A 1_555 1_555
C15A O1A 1_555 1_555
C16A C23A 1_555 1_555
C17A C15A 1_555 1_555
C18A C13A 1_555 1_555
C19A N2A 1_555 1_555
C20A C4A 1_555 1_555
C21A N4A 1_555 1_555
C22A C41A 1_555 1_555
C23A N3A 1_555 1_555
C24A C12A 1_555 1_555
H3A C24A 1_555 1_555
C25A C9A 1_555 1_555
C26A C10A 1_555 1_555
H4A C26A 1_555 1_555
C27A C16A 1_555 1_555
C28A C7A 1_555 1_555
H5A C28A 1_555 1_555
C29A C1A 1_555 1_555
H6A C29A 1_555 1_555
C30A C17A 1_555 1_555
H7A C30A 1_555 1_555
C31A C3A 1_555 1_555
H8A C31A 1_555 1_555
C32A C19A 1_555 1_555
H9A C32A 1_555 1_555
C33A C25A 1_555 1_555
H10A C33A 1_555 1_555
C34A C14A 1_555 1_555
H11A C34A 1_555 1_555
C35A C7A 1_555 1_555
H12A C35A 1_555 1_555
C36A C17A 1_555 1_555
H13A C36A 1_555 1_555
C37A C18A 1_555 1_555
H14A C37A 1_555 1_555
C38A C27A 1_555 1_555
H15A C38A 1_555 1_555
C39A C23A 1_555 1_555
H16A C39A 1_555 1_555
C40A C27A 1_555 1_555
H17A C40A 1_555 1_555
C41A H18A 1_555 1_555
C42A C25A 1_555 1_555
H19A C42A 1_555 1_555
C43A C8A 1_555 1_555
H20A C43A 1_555 1_555
C44A C11A 1_555 1_555
H21A C44A 1_555 1_555
C45A C1A 1_555 1_555
H22A C45A 1_555 1_555
C47A C22A 1_555 1_555
H23A C47A 1_555 1_555
C48A C18A 1_555 1_555
H24A C48A 1_555 1_555
C49A C11A 1_555 1_555
H25A C49A 1_555 1_555
Dy1A O6A 1_555 1_555
Dy1B O2 1_555 1_555
Dy1C O2A 1_555 1_555
Dy2A O1 1_555 1_555
Dy2B O5A 1_555 1_555
Dy2C O5 1_555 1_555
Na1A O4 1_555 1_555
Na2D O3 1_555 1_555
Na2F O4 1_555 1_555
Na2G O7 1_555 1_555
Na3A O2A 1_555 1_555
Na3B O1A 1_555 1_555
Na3C O1 1_555 1_555
O1C Na3 1_555 1_555
O1D Dy2 1_555 1_555
O1F Na3 1_555 1_555
O2B Dy1 1_555 1_555
O2E Na3 1_555 1_555
O2G Dy1 1_555 1_555
O3A Na2 1_555 1_555
O4B Dy1 1_555 1_555
O4D Na1 1_555 1_555
O4F Na2 1_555 1_555
O4G Dy1 1_555 1_555
O5C Dy2 1_555 1_555
O5F Dy2 1_555 1_555
O6E Dy1 1_555 1_555
O7C Dy2 1_555 1_555
O7E Na1 1_555 1_555
O7F Dy2 1_555 1_555
O7G Na2 1_555 1_555
O9D Dy2 1_555 1_555
O11E Dy1 1_555 1_555
O4 Dy1B 1_555 1_555
O7 Dy2C 1_555 1_555
O9 Dy2A 1_555 1_555
O10 N5 1_555 1_555
O11 C6 1_555 1_555
O11 Na2A 1_555 1_555
C9 C14 1_555 1_555
C13 C21 1_555 1_555
C16 C23 1_555 1_555
C19 C20 1_555 1_555
C21 C24 1_555 1_555
C26 C31 1_555 1_555
C28 C33 1_555 1_555
C29 C37 1_555 1_555
C30 C38 1_555 1_555
C32 C34 1_555 1_555
C35 C42 1_555 1_555
C36 C40 1_555 1_555
C39 C43 1_555 1_555
C41 C44 1_555 1_555
C45 C48 1_555 1_555
C47 C49 1_555 1_555
Na2A O9A 1_555 1_555
Na2A O4G 1_555 1_555
Na2A O7F 1_555 1_555
O4A Dy1C 1_555 1_555
O4A Na2G 1_555 1_555
O7A Dy2B 1_555 1_555
O7A Na1A 1_555 1_555
O7A Na2F 1_555 1_555
O9A C15A 1_555 1_555
O11A Dy1A 1_555 1_555
C9A C14A 1_555 1_555
C13A C21A 1_555 1_555
C19A C20A 1_555 1_555
C21A C24A 1_555 1_555
C26A C31A 1_555 1_555
C28A C33A 1_555 1_555
C29A C37A 1_555 1_555
C30A C38A 1_555 1_555
C32A C34A 1_555 1_555
C35A C42A 1_555 1_555
C36A C40A 1_555 1_555
C39A C43A 1_555 1_555
C41A C44A 1_555 1_555
C45A C48A 1_555 1_555
C47A C49A 1_555 1_555
Dy1A O3A 1_555 1_555
Dy1A O4F 1_555 1_555
Dy1B O2E 1_555 1_555
Dy1C O4D 1_555 1_555
Dy2A O3A 1_555 1_555
Dy2A O7G 1_555 1_555
Dy2C O7E 1_555 1_555
Na2D O4B 1_555 1_555
Na2D O7C 1_555 1_555
Na2D O9D 1_555 1_555
Na2D O11E 1_555 1_555
Na3B O1D 1_555 1_555

#END
