
#######################################################################
#
#                 Cambridge Crystallographic Data Centre
#                                CCDC 
#
#######################################################################
#
# If this CIF has been generated from an entry in the Cambridge 
# Structural Database, then it will include bibliographic, chemical, 
# crystal, experimental, refinement or atomic coordinate data resulting 
# from the CCDC's data processing and validation procedures.
#
#######################################################################

data_FARBIL
_chemical_formula_moiety         '(C10 H8 O5 V1)n'
_symmetry_cell_setting           orthorhombic
_symmetry_space_group_name_H-M   'P n m a'
_symmetry_Int_Tables_number      62
_space_group_name_Hall           '-P 2ac 2n'
loop_
_symmetry_equiv_pos_site_id
_symmetry_equiv_pos_as_xyz
1 x,y,z
2 1/2-x,-y,1/2+z
3 -x,1/2+y,-z
4 1/2+x,1/2-y,1/2-z
5 -x,-y,-z
6 1/2+x,y,1/2-z
7 x,1/2-y,z
8 1/2-x,1/2+y,1/2+z
_cell_length_a                   6.7507(10)
_cell_length_b                   16.9798(13)
_cell_length_c                   12.9232(7)
_cell_angle_alpha                90
_cell_angle_beta                 90
_cell_angle_gamma                90
_cell_volume                     1481.33
loop_
_atom_site_label
_atom_site_type_symbol
_atom_site_fract_x
_atom_site_fract_y
_atom_site_fract_z
_atom_site_U_iso_or_equiv
_atom_site_thermal_displace_type
V1 V 0.7047(2) 0.2500 0.26655(10) 0.0090 Uani
O1 O 0.6529(6) 0.1664(2) 0.1643(3) 0.0110 Uani
O2 O 0.3222(6) 0.1674(2) 0.1465(3) 0.0137 Uani
O3 O 0.4825(8) 0.2500 0.3134(4) 0.0153 Uani
C8 C 0.5020(10) 0.0660(3) 0.0637(4) 0.0143 Uani
C9 C 0.6598(10) 0.0114(4) 0.0709(5) 0.0210 Uani
C10 C 0.3487(10) 0.0522(4) -0.0045(5) 0.0220 Uani
H1 H 0.2444 0.0879 -0.0059 0.0270 Uiso
C11 C 0.4925(12) 0.1392(4) 0.1289(4) 0.0106 Uiso
C12 C 0.8310(10) 0.0185(4) 0.1465(5) 0.0400 Uiso
H2 H 0.8161 0.0658 0.1864 0.0590 Uiso
H3 H 0.9535 0.0205 0.1089 0.0590 Uiso
H4 H 0.8315 -0.0262 0.1919 0.0590 Uiso
V1C V 0.2047(2) 0.2500 0.23345(10) 0.0090 Uani
V1B V 0.2953(2) -0.2500 -0.26655(10) 0.0090 Uani
V1A V 0.7953(2) -0.2500 -0.23345(10) 0.0090 Uani
O1D O 0.3471(6) -0.1664(2) -0.1643(3) 0.0110 Uani
O1F O 0.6529(6) 0.3336(2) 0.1643(3) 0.0110 Uani
O2D O 0.6778(6) -0.1674(2) -0.1465(3) 0.0137 Uani
O2C O 0.8222(6) 0.3326(2) 0.3535(3) 0.0137 Uani
O2E O 0.8222(6) 0.1674(2) 0.3535(3) 0.0137 Uani
O3C O 0.9825(8) 0.2500 0.1866(4) 0.0153 Uani
C8D C 0.4980(10) -0.0660(3) -0.0637(4) 0.0143 Uani
C9D C 0.3402(10) -0.0114(4) -0.0709(5) 0.0210 Uani
C10D C 0.6513(10) -0.0522(4) 0.0045(5) 0.0220 Uani
H1D H 0.7556 -0.0879 0.0059 0.0270 Uiso
C11D C 0.5075(12) -0.1392(4) -0.1289(4) 0.0106 Uiso
C12D C 0.1690(10) -0.0185(4) -0.1465(5) 0.0400 Uiso
H2D H 0.1839 -0.0658 -0.1864 0.0590 Uiso
H3D H 0.0465 -0.0205 -0.1089 0.0590 Uiso
H4D H 0.1685 0.0262 -0.1919 0.0590 Uiso
loop_
_atom_site_aniso_label
_atom_site_aniso_U_11
_atom_site_aniso_U_22
_atom_site_aniso_U_33
_atom_site_aniso_U_23
_atom_site_aniso_U_13
_atom_site_aniso_U_12
V1 0.0048(13) 0.0083(9) 0.0139(10) 0.000 0.0022(8) 0.000
O1 0.001(3) 0.010(2) 0.022(2) -0.0052(19) 0.001(2) 0.000(2)
O2 0.009 0.015 0.017 -0.0027 0.0041 0.005
O3 0.020(5) 0.014(3) 0.012(4) 0.000 -0.008(3) 0.000
C8 0.017(5) 0.009(4) 0.017(4) -0.008(3) 0.003(3) -0.006(3)
C9 0.017(5) 0.019(4) 0.027(4) -0.012(4) -0.014(3) 0.001(3)
C10 0.018(5) 0.025(4) 0.023(4) -0.012(4) -0.005(3) 0.007(3)
V1C 0.0048 0.0083 0.0139 0 -0.0022 0
V1B 0.0048 0.0083 0.0139 0 0.0022 0
V1A 0.0048 0.0083 0.0139 0 -0.0022 0
O1D 0.001 0.01 0.022 -0.0052 0.001 0
O1F 0.001 0.01 0.022 0.0052 0.001 0
O2D 0.009 0.015 0.017 -0.0027 0.0041 0.005
O2C 0.009 0.015 0.017 -0.0027 -0.0041 -0.005
O2E 0.009 0.015 0.017 0.0027 -0.0041 0.005
O3C 0.02 0.014 0.012 0 0.008 0
C8D 0.017 0.009 0.017 -0.008 0.003 -0.006
C9D 0.017 0.019 0.027 -0.012 -0.014 0.001
C10D 0.018 0.025 0.023 -0.012 -0.005 0.007
loop_
_geom_bond_atom_site_label_1
_geom_bond_atom_site_label_2
_geom_bond_site_symmetry_1
_geom_bond_site_symmetry_2
V1 O1 1_555 1_555
O1 C11 1_555 1_555
O2 C11 1_555 1_555
O3 V1 1_555 1_555
C8 C9 1_555 1_555
C9 C12 1_555 1_555
C10 C8 1_555 1_555
H1 C10 1_555 1_555
C11 C8 1_555 1_555
C12 H2 1_555 1_555
H3 C12 1_555 1_555
H4 C12 1_555 1_555
V1C O2 1_555 1_555
V1B O1D 1_555 1_555
V1A O2D 1_555 1_555
O1D C11D 1_555 1_555
O1F V1 1_555 1_555
O2D C11D 1_555 1_555
O2C V1 1_555 1_555
O2E V1 1_555 1_555
O3C V1 1_555 1_555
C8D C9D 1_555 1_555
C9D C10 1_555 1_555
C10D C9 1_555 1_555
H1D C10D 1_555 1_555
C11D C8D 1_555 1_555
C12D C9D 1_555 1_555
H2D C12D 1_555 1_555
H3D C12D 1_555 1_555
H4D C12D 1_555 1_555
O3 V1C 1_555 1_555
C8D C10D 1_555 1_555

#END
