
#######################################################################
#
#                 Cambridge Crystallographic Data Centre
#                                CCDC 
#
#######################################################################
#
# If this CIF has been generated from an entry in the Cambridge 
# Structural Database, then it will include bibliographic, chemical, 
# crystal, experimental, refinement or atomic coordinate data resulting 
# from the CCDC's data processing and validation procedures.
#
#######################################################################

data_HAPNUK
_chemical_formula_moiety         '(C28 H22 N4 O16 Tm2)n'
_symmetry_cell_setting           monoclinic
_symmetry_space_group_name_H-M   'C 2/c'
_symmetry_Int_Tables_number      15
_space_group_name_Hall           '-C 2yc'
loop_
_symmetry_equiv_pos_site_id
_symmetry_equiv_pos_as_xyz
1 x,y,z
2 -x,y,1/2-z
3 1/2+x,1/2+y,z
4 1/2-x,1/2+y,1/2-z
5 -x,-y,-z
6 x,-y,1/2+z
7 1/2-x,1/2-y,-z
8 1/2+x,1/2-y,1/2+z
_cell_length_a                   21.8947(18)
_cell_length_b                   8.3062(7)
_cell_length_c                   23.2034(18)
_cell_angle_alpha                90
_cell_angle_beta                 100.053(4)
_cell_angle_gamma                90
_cell_volume                     4155.02
loop_
_atom_site_label
_atom_site_type_symbol
_atom_site_fract_x
_atom_site_fract_y
_atom_site_fract_z
C1 C 0.0788(3) 0.8300(9) 0.1492(3)
H1 H 0.0734 0.7318 0.1669
C2 C 0.1225(3) 0.9388(7) 0.1787(2)
C3 C 0.1279(2) 1.0874(7) 0.1515(2)
C4 C 0.1709(2) 1.2160(7) 0.1768(2)
C5 C 0.0917(3) 1.1197(8) 0.0967(2)
H2 H 0.0957 1.2188 0.0791
C6 C 0.0506(3) 1.0098(8) 0.0684(2)
C7 C 0.0440(3) 0.8619(9) 0.0958(3)
H3 H 0.0158 0.7859 0.0776
C8 C 0.2401(3) 0.7974(7) 0.1418(2)
C9 C 0.2192(3) 0.8508(7) 0.0796(2)
C10 C 0.1791(3) 0.7537(9) 0.0398(2)
C11 C 0.1578(3) 0.8111(9) -0.0164(2)
H4 H 0.1307 0.7490 -0.0427
C12 C 0.1764(3) 0.9581(9) -0.0332(3)
H5 H 0.1617 0.9946 -0.0709
C13 C 0.2169(3) 1.0544(8) 0.0050(2)
C14 C 0.2371(2) 0.9982(6) 0.06136(18)
H6 H 0.2636 1.0620 0.0876
H7 H 0.1696 0.5905 0.0894
H8 H 0.3540 1.0630 0.2204
H9 H 0.3549 1.1795 0.2551
H10 H 0.1659 0.8252 0.3471
H11 H 0.2157 0.8475 0.3817
N1 N 0.2350(2) 1.2035(7) -0.01813(19)
N2 N 0.0179(2) 1.0537(7) 0.0123(2)
O1 O 0.26556(19) 0.9011(5) 0.17698(15)
O2 O 0.2291(2) 0.6546(5) 0.15482(15)
O3 O 0.16951(19) 1.3528(5) 0.15388(16)
O4 O 0.21081(17) 1.1915(5) 0.22431(14)
O5 O 0.15584(17) 0.8961(5) 0.22950(15)
O6 O 0.1592(2) 0.6056(6) 0.05279(16)
O7 O 0.20216(19) 0.8593(6) 0.34520(15)
O8 O 0.34427(19) 1.0801(5) 0.25379(17)
Tm1 Tm 0.252454(11) 0.96525(3) 0.271623(9)
C1D C -0.0788(3) 1.1700(9) -0.1492(3)
H1D H -0.0734 1.2682 -0.1669
C2D C -0.1225(3) 1.0612(7) -0.1787(2)
C3D C -0.1279(2) 0.9126(7) -0.1515(2)
C4D C -0.1709(2) 0.7840(7) -0.1768(2)
C5D C -0.0917(3) 0.8803(8) -0.0967(2)
H2D H -0.0957 0.7812 -0.0791
C6D C -0.0506(3) 0.9902(8) -0.0684(2)
C7D C -0.0440(3) 1.1381(9) -0.0958(3)
H3D H -0.0158 1.2141 -0.0776
N2D N -0.0179(2) 0.9463(7) -0.0123(2)
O3D O -0.16951(19) 0.6472(5) -0.15388(16)
O4D O -0.21081(17) 0.8085(5) -0.22431(14)
O5D O -0.15584(17) 1.1039(5) -0.22950(15)
C8F C 0.2599(3) 1.7026(7) -0.1418(2)
C9F C 0.2808(3) 1.6492(7) -0.0796(2)
C10F C 0.3209(3) 1.7463(9) -0.0398(2)
C11F C 0.3422(3) 1.6889(9) 0.0164(2)
H4F H 0.3693 1.7510 0.0427
C12F C 0.3236(3) 1.5419(9) 0.0332(3)
H5F H 0.3383 1.5054 0.0709
C13F C 0.2831(3) 1.4456(8) -0.0050(2)
C14F C 0.2629(2) 1.5018(6) -0.06136(18)
H6F H 0.2364 1.4380 -0.0876
H7F H 0.3304 1.9095 -0.0894
N1F N 0.2650(2) 1.2965(7) 0.01813(19)
O1F O 0.23444(19) 1.5989(5) -0.17698(15)
O2F O 0.2709(2) 1.8454(5) -0.15482(15)
O6F O 0.3408(2) 1.8944(6) -0.05279(16)
H8D H -0.3540 0.9370 -0.2204
H9D H -0.3549 0.8205 -0.2551
H10D H -0.1659 1.1748 -0.3471
H11D H -0.2157 1.1525 -0.3817
O7D O -0.20216(19) 1.1407(6) -0.34520(15)
O8D O -0.34427(19) 0.9199(5) -0.25379(17)
Tm1D Tm -0.252454(11) 1.03475(3) -0.271623(9)
O1D O -0.26556(19) 1.0989(5) -0.17698(15)
O2C O 0.2709(2) 1.1546(5) 0.34518(15)
O2G O -0.2709(2) 0.8454(5) -0.34518(15)
O3C O 0.33049(19) 0.8528(5) 0.34612(16)
O3G O -0.33049(19) 1.1472(5) -0.34612(16)
O4C O 0.28919(17) 0.6915(5) 0.27569(14)
O4G O -0.28919(17) 1.3085(5) -0.27569(14)
Tm1C Tm 0.247546(11) 0.46525(3) 0.228377(9)
Tm1C_2 Tm 0.247546(11) 1.46525(3) 0.228377(9)
Tm1E Tm 0.252454(11) 2.03475(3) -0.228377(9)
Tm1F Tm 0.247546(11) 1.53475(3) -0.271623(9)
Tm1G Tm -0.247546(11) 0.53475(3) -0.228377(9)
loop_
_geom_bond_atom_site_label_1
_geom_bond_atom_site_label_2
_geom_bond_site_symmetry_1
_geom_bond_site_symmetry_2
C1 H1 1_555 1_555
C2 C1 1_555 1_555
C3 C2 1_555 1_555
C4 C3 1_555 1_555
C5 C3 1_555 1_555
H2 C5 1_555 1_555
C6 C5 1_555 1_555
C7 C1 1_555 1_555
H3 C7 1_555 1_555
C8 C9 1_555 1_555
C9 C10 1_555 1_555
C10 C11 1_555 1_555
C11 H4 1_555 1_555
C12 C11 1_555 1_555
H5 C12 1_555 1_555
C13 C12 1_555 1_555
C14 C9 1_555 1_555
H6 C14 1_555 1_555
H7 O6 1_555 1_555
H8 O8 1_555 1_555
H9 O8 1_555 1_555
H10 O7 1_555 1_555
H11 O7 1_555 1_555
N1 C13 1_555 1_555
N2 C6 1_555 1_555
O1 C8 1_555 1_555
O2 C8 1_555 1_555
O3 C4 1_555 1_555
O4 C4 1_555 1_555
O5 C2 1_555 1_555
O6 C10 1_555 1_555
O7 Tm1 1_555 1_555
O8 Tm1 1_555 1_555
Tm1 O1 1_555 1_555
C1D H1D 1_555 1_555
C2D C1D 1_555 1_555
C3D C2D 1_555 1_555
C4D C3D 1_555 1_555
C5D C3D 1_555 1_555
H2D C5D 1_555 1_555
C6D C5D 1_555 1_555
C7D C1D 1_555 1_555
H3D C7D 1_555 1_555
N2D N2 1_555 1_555
O3D C4D 1_555 1_555
O4D C4D 1_555 1_555
O5D C2D 1_555 1_555
C8F C9F 1_555 1_555
C9F C10F 1_555 1_555
C10F C11F 1_555 1_555
C11F H4F 1_555 1_555
C12F C11F 1_555 1_555
H5F C12F 1_555 1_555
C13F C12F 1_555 1_555
C14F C9F 1_555 1_555
H6F C14F 1_555 1_555
H7F O6F 1_555 1_555
N1F N1 1_555 1_555
O1F C8F 1_555 1_555
O2F C8F 1_555 1_555
O6F C10F 1_555 1_555
H8D O8D 1_555 1_555
H9D O8D 1_555 1_555
H10D O7D 1_555 1_555
H11D O7D 1_555 1_555
O7D Tm1D 1_555 1_555
O8D Tm1D 1_555 1_555
Tm1D O4D 1_555 1_555
O1D Tm1D 1_555 1_555
O2C Tm1 1_555 1_555
O2G Tm1D 1_555 1_555
O3C Tm1 1_555 1_555
O3G Tm1D 1_555 1_555
O4C Tm1 1_555 1_555
O4G Tm1D 1_555 1_555
Tm1C O2 1_555 1_555
Tm1C_2 O3 1_555 1_555
Tm1E O2F 1_555 1_555
Tm1F O1F 1_555 1_555
Tm1G O3D 1_555 1_555
C6 C7 1_555 1_555
C13 C14 1_555 1_555
O4 Tm1 1_555 1_555
O4 Tm1C_2 1_555 1_555
O5 Tm1 1_555 1_555
C6D C7D 1_555 1_555
C6D N2D 1_555 1_555
O4D Tm1G 1_555 1_555
O5D Tm1D 1_555 1_555
C13F C14F 1_555 1_555
C13F N1F 1_555 1_555
O4C Tm1C 1_555 1_555

#END
