
#######################################################################
#
#                 Cambridge Crystallographic Data Centre
#                                CCDC 
#
#######################################################################
#
# If this CIF has been generated from an entry in the Cambridge 
# Structural Database, then it will include bibliographic, chemical, 
# crystal, experimental, refinement or atomic coordinate data resulting 
# from the CCDC's data processing and validation procedures.
#
#######################################################################

data_HAPNOE
_chemical_formula_moiety         '(C28 H22 Er2 N4 O16)n'
_symmetry_cell_setting           monoclinic
_symmetry_space_group_name_H-M   'C 2/c'
_symmetry_Int_Tables_number      15
_space_group_name_Hall           '-C 2yc'
loop_
_symmetry_equiv_pos_site_id
_symmetry_equiv_pos_as_xyz
1 x,y,z
2 -x,y,1/2-z
3 1/2+x,1/2+y,z
4 1/2-x,1/2+y,1/2-z
5 -x,-y,-z
6 x,-y,1/2+z
7 1/2-x,1/2-y,-z
8 1/2+x,1/2-y,1/2+z
_cell_length_a                   21.8947(18)
_cell_length_b                   8.3062(7)
_cell_length_c                   23.2034(18)
_cell_angle_alpha                90
_cell_angle_beta                 100.053(4)
_cell_angle_gamma                90
_cell_volume                     4155.02
loop_
_atom_site_label
_atom_site_type_symbol
_atom_site_fract_x
_atom_site_fract_y
_atom_site_fract_z
_atom_site_U_iso_or_equiv
_atom_site_thermal_displace_type
C1 C 0.1710(2) 0.2160(7) 0.1768(2) 0.0258 Uani
C2 C 0.1279(2) 0.0872(7) 0.1514(2) 0.0246 Uani
C3 C 0.0918(2) 0.1198(8) 0.0967(2) 0.0324 Uani
H1 H 0.0959 0.2188 0.0791 0.0390 Uiso
C4 C 0.0506(3) 0.0098(8) 0.0684(2) 0.0371 Uani
C5 C 0.0439(3) -0.1381(9) 0.0958(3) 0.0475 Uani
H2 H 0.0157 -0.2141 0.0777 0.0570 Uiso
C6 C 0.0788(3) -0.1701(8) 0.1492(3) 0.0438 Uani
H3 H 0.0735 -0.2683 0.1669 0.0520 Uiso
C7 C 0.1225(2) -0.0612(7) 0.1787(2) 0.0296 Uani
C8 C 0.2600(3) 0.2973(7) 0.3582(2) 0.0287 Uani
C9 C 0.2808(3) 0.3509(7) 0.4204(2) 0.0282 Uani
C10 C 0.3210(3) 0.2537(8) 0.4602(2) 0.0374 Uani
C11 C 0.3422(3) 0.3111(9) 0.5164(2) 0.0479 Uani
H4 H 0.3693 0.2489 0.5427 0.0570 Uiso
C12 C 0.3236(3) 0.4579(9) 0.5332(2) 0.0483 Uani
H5 H 0.3383 0.4943 0.5710 0.0580 Uiso
C13 C 0.2831(3) 0.5544(8) 0.4950(2) 0.0349 Uani
C14 C 0.2628(3) 0.4987(7) 0.4386(2) 0.0295 Uani
H6 H 0.2364 0.5627 0.4124 0.0360 Uiso
Er1 Er 0.247548(11) 0.46526(3) 0.228378(9) 0.0240 Uani
H7 H 0.332(3) 0.092(10) 0.4103(7) 0.0800 Uiso
H8 H 0.284(3) 0.349(14) 0.1183(11) 0.1500 Uiso
H9 H 0.3337(14) 0.324(8) 0.152(3) 0.0500 Uiso
H10 H 0.146(9) 0.680(6) 0.245(5) 0.3200 Uiso
H11 H 0.147(3) 0.564(10) 0.2801(14) 0.0700 Uiso
N1 N 0.0179(2) 0.0538(7) 0.0123(2) 0.0386 Uani
N2 N 0.2650(2) 0.7034(7) 0.51817(19) 0.0385 Uani
O1 O 0.16953(19) 0.3528(5) 0.15388(16) 0.0395 Uani
O2 O 0.21077(17) 0.1914(5) 0.22433(14) 0.0288 Uani
O3 O 0.2979(2) 0.3592(6) 0.15467(17) 0.0443 Uani
O4 O 0.27086(19) 0.1546(5) 0.34514(15) 0.0361 Uani
O5 O 0.1555(2) 0.5809(6) 0.24625(18) 0.0394 Uani
O6 O 0.15584(17) -0.1037(5) 0.22953(15) 0.0332 Uani
O7 O 0.23443(19) 0.4012(5) 0.32299(15) 0.0341 Uani
O8 O 0.3407(2) 0.1055(6) 0.44712(17) 0.0473 Uani
C1D C -0.1710(2) -0.2160(7) -0.1768(2) 0.0258 Uani
C2D C -0.1279(2) -0.0872(7) -0.1514(2) 0.0246 Uani
C3D C -0.0918(2) -0.1198(8) -0.0967(2) 0.0324 Uani
H1D H -0.0959 -0.2188 -0.0791 0.0390 Uiso
C4D C -0.0506(3) -0.0098(8) -0.0684(2) 0.0371 Uani
C5D C -0.0439(3) 0.1381(9) -0.0958(3) 0.0475 Uani
H2D H -0.0157 0.2141 -0.0777 0.0570 Uiso
C6D C -0.0788(3) 0.1701(8) -0.1492(3) 0.0438 Uani
H3D H -0.0735 0.2683 -0.1669 0.0520 Uiso
C7D C -0.1225(2) 0.0612(7) -0.1787(2) 0.0296 Uani
N1D N -0.0179(2) -0.0538(7) -0.0123(2) 0.0386 Uani
O1D O -0.16953(19) -0.3528(5) -0.15388(16) 0.0395 Uani
O2D O -0.21077(17) -0.1914(5) -0.22433(14) 0.0288 Uani
O6D O -0.15584(17) 0.1037(5) -0.22953(15) 0.0332 Uani
C8F C 0.2400(3) 1.2027(7) 0.6418(2) 0.0287 Uani
C9F C 0.2192(3) 1.1491(7) 0.5796(2) 0.0282 Uani
C10F C 0.1790(3) 1.2463(8) 0.5398(2) 0.0374 Uani
C11F C 0.1578(3) 1.1889(9) 0.4836(2) 0.0479 Uani
H4F H 0.1307 1.2511 0.4573 0.0570 Uiso
C12F C 0.1764(3) 1.0421(9) 0.4668(2) 0.0483 Uani
H5F H 0.1617 1.0057 0.4290 0.0580 Uiso
C13F C 0.2169(3) 0.9456(8) 0.5050(2) 0.0349 Uani
C14F C 0.2372(3) 1.0013(7) 0.5614(2) 0.0295 Uani
H6F H 0.2636 0.9373 0.5876 0.0360 Uiso
H7F H 0.168(3) 1.408(10) 0.5897(7) 0.0800 Uiso
N2F N 0.2350(2) 0.7966(7) 0.48183(19) 0.0385 Uani
O4F O 0.22914(19) 1.3454(5) 0.65486(15) 0.0361 Uani
O7F O 0.26557(19) 1.0988(5) 0.67701(15) 0.0341 Uani
O8F O 0.1593(2) 1.3945(6) 0.55288(17) 0.0473 Uani
Er1D Er -0.247548(11) -0.46526(3) -0.228378(9) 0.0240 Uani
H8D H -0.284(3) -0.349(14) -0.1183(11) 0.1500 Uiso
H9D H -0.3337(14) -0.324(8) -0.152(3) 0.0500 Uiso
H10D H -0.146(9) -0.680(6) -0.245(5) 0.3200 Uiso
H11D H -0.147(3) -0.564(10) -0.2801(14) 0.0700 Uiso
O3D O -0.2979(2) -0.3592(6) -0.15467(17) 0.0443 Uani
O5D O -0.1555(2) -0.5809(6) -0.24625(18) 0.0394 Uani
Er1C Er 0.252452(11) -0.03474(3) 0.271622(9) 0.0240 Uani
Er1E Er 0.247548(11) 1.53474(3) 0.728378(9) 0.0240 Uani
Er1F Er 0.252452(11) 1.03474(3) 0.771622(9) 0.0240 Uani
Er1G Er -0.252452(11) 0.03474(3) -0.271622(9) 0.0240 Uani
O2C O 0.28923(17) 0.6914(5) 0.27567(14) 0.0288 Uani
O2G O -0.28923(17) -0.6914(5) -0.27567(14) 0.0288 Uani
O4C O 0.22914(19) 0.6546(5) 0.15486(15) 0.0361 Uani
O4G O -0.22914(19) -0.6546(5) -0.15486(15) 0.0361 Uani
O6C O 0.34416(17) 0.3963(5) 0.27047(15) 0.0332 Uani
O6G O -0.34416(17) -0.3963(5) -0.27047(15) 0.0332 Uani
O7D O -0.23443(19) -0.4012(5) -0.32299(15) 0.0341 Uani
loop_
_atom_site_aniso_label
_atom_site_aniso_U_11
_atom_site_aniso_U_22
_atom_site_aniso_U_33
_atom_site_aniso_U_23
_atom_site_aniso_U_13
_atom_site_aniso_U_12
C1 0.035(3) 0.015(3) 0.023(2) -0.003(2) -0.007(2) 0.007(2)
C2 0.030(3) 0.019(3) 0.021(2) 0.000(2) -0.006(2) -0.004(2)
C3 0.036(3) 0.028(3) 0.027(3) 0.004(3) -0.012(2) -0.001(3)
C4 0.034(3) 0.043(4) 0.028(3) 0.005(3) -0.012(2) -0.003(3)
C5 0.044(4) 0.048(5) 0.040(3) 0.004(3) -0.022(3) -0.020(3)
C6 0.047(4) 0.038(4) 0.038(3) 0.011(3) -0.016(3) -0.019(3)
C7 0.032(3) 0.027(4) 0.025(3) 0.002(3) -0.008(2) 0.000(3)
C8 0.041(3) 0.025(4) 0.018(2) -0.001(3) -0.001(2) -0.003(3)
C9 0.040(3) 0.024(4) 0.019(2) 0.000(2) 0.001(2) 0.000(3)
C10 0.045(4) 0.038(4) 0.026(3) -0.005(3) -0.003(2) 0.009(3)
C11 0.059(4) 0.054(5) 0.024(3) -0.006(3) -0.011(3) 0.023(4)
C12 0.065(4) 0.051(5) 0.024(3) -0.012(3) -0.006(3) 0.011(4)
C13 0.048(3) 0.026(3) 0.030(3) -0.004(3) 0.005(2) 0.007(3)
C14 0.039(3) 0.025(4) 0.023(3) -0.002(2) 0.001(2) 0.002(3)
Er1 0.03568(15) 0.01433(16) 0.01690(12) 0.00019(10) -0.00925(9) -0.00161(12)
N1 0.039(3) 0.037(3) 0.031(2) -0.003(2) -0.018(2) -0.004(2)
N2 0.047(3) 0.037(4) 0.029(3) -0.011(2) 0.000(2) 0.002(3)
O1 0.055(3) 0.021(3) 0.032(2) 0.0021(19) -0.0216(18) -0.005(2)
O2 0.038(2) 0.021(2) 0.0206(17) 0.0017(17) -0.0136(15) -0.0045(18)
O3 0.056(3) 0.049(3) 0.026(2) -0.002(2) 0.0021(19) 0.006(3)
O4 0.064(3) 0.016(2) 0.0230(18) -0.0090(17) -0.0074(18) 0.001(2)
O5 0.040(2) 0.035(3) 0.040(2) 0.006(2) -0.0022(19) 0.004(2)
O6 0.040(2) 0.029(2) 0.0242(18) 0.0030(18) -0.0122(16) -0.006(2)
O7 0.058(3) 0.020(2) 0.0212(18) -0.0022(18) -0.0021(17) 0.009(2)
O8 0.071(3) 0.037(3) 0.027(2) -0.005(2) -0.011(2) 0.018(3)
C1D 0.035 0.015 0.023 -0.003 -0.007 0.007
C2D 0.03 0.019 0.021 0 -0.006 -0.004
C3D 0.036 0.028 0.027 0.004 -0.012 -0.001
C4D 0.034 0.043 0.028 0.005 -0.012 -0.003
C5D 0.044 0.048 0.04 0.004 -0.022 -0.02
C6D 0.047 0.038 0.038 0.011 -0.016 -0.019
C7D 0.032 0.027 0.025 0.002 -0.008 0
N1D 0.039 0.037 0.031 -0.003 -0.018 -0.004
O1D 0.055 0.021 0.032 0.0021 -0.0216 -0.005
O2D 0.038 0.021 0.0206 0.0017 -0.0136 -0.0045
O6D 0.04 0.029 0.0242 0.003 -0.0122 -0.006
C8F 0.041 0.025 0.018 -0.001 -0.001 -0.003
C9F 0.04 0.024 0.019 0 0.001 0
C10F 0.045 0.038 0.026 -0.005 -0.003 0.009
C11F 0.059 0.054 0.024 -0.006 -0.011 0.023
C12F 0.065 0.051 0.024 -0.012 -0.006 0.011
C13F 0.048 0.026 0.03 -0.004 0.005 0.007
C14F 0.039 0.025 0.023 -0.002 0.001 0.002
N2F 0.047 0.037 0.029 -0.011 0 0.002
O4F 0.064 0.016 0.023 -0.009 -0.0074 0.001
O7F 0.058 0.02 0.0212 -0.0022 -0.0021 0.009
O8F 0.071 0.037 0.027 -0.005 -0.011 0.018
Er1D 0.03568 0.01433 0.0169 0.00019 -0.00925 -0.00161
O3D 0.056 0.049 0.026 -0.002 0.0021 0.006
O5D 0.04 0.035 0.04 0.006 -0.0022 0.004
Er1C 0.03568 0.01433 0.0169 -0.00019 -0.00925 0.00161
Er1E 0.03568 0.01433 0.0169 -0.00019 -0.00925 0.00161
Er1F 0.03568 0.01433 0.0169 0.00019 -0.00925 -0.00161
Er1G 0.03568 0.01433 0.0169 -0.00019 -0.00925 0.00161
O2C 0.038 0.021 0.0206 -0.0017 -0.0136 0.0045
O2G 0.038 0.021 0.0206 -0.0017 -0.0136 0.0045
O4C 0.064 0.016 0.023 0.009 -0.0074 -0.001
O4G 0.064 0.016 0.023 0.009 -0.0074 -0.001
O6C 0.04 0.029 0.0242 -0.003 -0.0122 0.006
O6G 0.04 0.029 0.0242 -0.003 -0.0122 0.006
O7D 0.058 0.02 0.0212 -0.0022 -0.0021 0.009
loop_
_geom_bond_atom_site_label_1
_geom_bond_atom_site_label_2
_geom_bond_site_symmetry_1
_geom_bond_site_symmetry_2
C1 C2 1_555 1_555
C2 C3 1_555 1_555
C3 H1 1_555 1_555
C4 C3 1_555 1_555
C5 C4 1_555 1_555
H2 C5 1_555 1_555
C6 C5 1_555 1_555
H3 C6 1_555 1_555
C7 C2 1_555 1_555
C8 C9 1_555 1_555
C9 C10 1_555 1_555
C10 C11 1_555 1_555
C11 H4 1_555 1_555
C12 C11 1_555 1_555
H5 C12 1_555 1_555
C13 C12 1_555 1_555
C14 C9 1_555 1_555
H6 C14 1_555 1_555
Er1 O1 1_555 1_555
H7 O8 1_555 1_555
H8 O3 1_555 1_555
H9 O3 1_555 1_555
H10 O5 1_555 1_555
H11 O5 1_555 1_555
N1 C4 1_555 1_555
N2 C13 1_555 1_555
O1 C1 1_555 1_555
O2 C1 1_555 1_555
O3 Er1 1_555 1_555
O4 C8 1_555 1_555
O5 Er1 1_555 1_555
O6 C7 1_555 1_555
O7 C8 1_555 1_555
O8 C10 1_555 1_555
C1D C2D 1_555 1_555
C2D C3D 1_555 1_555
C3D H1D 1_555 1_555
C4D C3D 1_555 1_555
C5D C4D 1_555 1_555
H2D C5D 1_555 1_555
C6D C5D 1_555 1_555
H3D C6D 1_555 1_555
C7D C2D 1_555 1_555
N1D N1 1_555 1_555
O1D C1D 1_555 1_555
O2D C1D 1_555 1_555
O6D C7D 1_555 1_555
C8F C9F 1_555 1_555
C9F C10F 1_555 1_555
C10F C11F 1_555 1_555
C11F H4F 1_555 1_555
C12F C11F 1_555 1_555
H5F C12F 1_555 1_555
C13F C12F 1_555 1_555
C14F C9F 1_555 1_555
H6F C14F 1_555 1_555
H7F O8F 1_555 1_555
N2F N2 1_555 1_555
O4F C8F 1_555 1_555
O7F C8F 1_555 1_555
O8F C10F 1_555 1_555
Er1D O1D 1_555 1_555
H8D O3D 1_555 1_555
H9D O3D 1_555 1_555
H10D O5D 1_555 1_555
H11D O5D 1_555 1_555
O3D Er1D 1_555 1_555
O5D Er1D 1_555 1_555
Er1C O2 1_555 1_555
Er1E O4F 1_555 1_555
Er1F O7F 1_555 1_555
Er1G O2D 1_555 1_555
O2C Er1 1_555 1_555
O2G Er1D 1_555 1_555
O4C Er1 1_555 1_555
O4G Er1D 1_555 1_555
O6C Er1 1_555 1_555
O6G Er1D 1_555 1_555
O7D Er1D 1_555 1_555
C6 C7 1_555 1_555
C13 C14 1_555 1_555
Er1 O2 1_555 1_555
Er1 O7 1_555 1_555
O4 Er1C 1_555 1_555
O6 Er1C 1_555 1_555
C4D N1D 1_555 1_555
C6D C7D 1_555 1_555
O2D Er1D 1_555 1_555
O6D Er1G 1_555 1_555
C13F C14F 1_555 1_555
C13F N2F 1_555 1_555

#END
