
#######################################################################
#
#                 Cambridge Crystallographic Data Centre
#                                CCDC 
#
#######################################################################
#
# If this CIF has been generated from an entry in the Cambridge 
# Structural Database, then it will include bibliographic, chemical, 
# crystal, experimental, refinement or atomic coordinate data resulting 
# from the CCDC's data processing and validation procedures.
#
#######################################################################

data_HAPPAS
_chemical_formula_moiety         '(C28 H22 Lu2 N4 O16)n'
_symmetry_cell_setting           monoclinic
_symmetry_space_group_name_H-M   'C 2/c'
_symmetry_Int_Tables_number      15
_space_group_name_Hall           '-C 2yc'
loop_
_symmetry_equiv_pos_site_id
_symmetry_equiv_pos_as_xyz
1 x,y,z
2 -x,y,1/2-z
3 1/2+x,1/2+y,z
4 1/2-x,1/2+y,1/2-z
5 -x,-y,-z
6 x,-y,1/2+z
7 1/2-x,1/2-y,-z
8 1/2+x,1/2-y,1/2+z
_cell_length_a                   21.617(3)
_cell_length_b                   8.2378(10)
_cell_length_c                   23.158(3)
_cell_angle_alpha                90
_cell_angle_beta                 99.426(5)
_cell_angle_gamma                90
_cell_volume                     4068.22
loop_
_atom_site_label
_atom_site_type_symbol
_atom_site_fract_x
_atom_site_fract_y
_atom_site_fract_z
_atom_site_U_iso_or_equiv
_atom_site_thermal_displace_type
C1 C 0.1723(5) 0.7851(14) 0.1780(5) 0.0483 Uani
C2 C 0.0492(5) 0.9924(16) 0.0702(5) 0.0471 Uani
C3 C 0.0924(5) 0.8830(13) 0.0975(5) 0.0483 Uani
H1 H 0.0988 0.7863 0.0786 0.0580 Uiso
C4 C 0.2597(5) 0.7031(13) 0.3588(5) 0.0471 Uani
C5 C 0.2630(7) 0.5028(15) 0.4388(6) 0.0529 Uani
H2 H 0.2362 0.4389 0.4127 0.0640 Uiso
C6 C 0.3254(7) 0.5391(14) 0.5331(6) 0.0583 Uani
H3 H 0.3416 0.4982 0.5699 0.0700 Uiso
C7 C 0.1269(5) 0.9132(16) 0.1526(5) 0.0457 Uani
C8 C 0.2816(5) 0.6522(14) 0.4215(4) 0.0459 Uani
C9 C 0.2840(7) 0.4469(15) 0.4952(5) 0.0557 Uani
C10 C 0.0432(7) 1.1403(16) 0.0952(5) 0.0678 Uani
H4 H 0.0165 1.2186 0.0759 0.0810 Uiso
C11 C 0.3225(6) 0.7514(14) 0.4596(5) 0.0520 Uani
C12 C 0.3437(7) 0.6939(18) 0.5170(5) 0.0662 Uani
H5 H 0.3695 0.7583 0.5439 0.0800 Uiso
C13 C 0.0779(5) 1.1718(16) 0.1501(5) 0.0598 Uani
H6 H 0.0714 1.2691 0.1686 0.0720 Uiso
C14 C 0.1217(5) 1.0637(14) 0.1783(5) 0.0436 Uani
Lu1 Lu 0.24790(2) 0.53693(6) 0.22855(2) 0.0440 Uani
N1 N 0.0181(5) 0.9483(11) 0.0129(5) 0.0559 Uani
N2 N 0.2646(5) 0.3010(11) 0.5184(4) 0.0588 Uani
O1 O 0.2379(5) 0.5879(14) 0.3221(3) 0.0685 Uani
O2 O 0.1546(3) 1.1043(9) 0.2294(3) 0.0443 Uani
O3 O 0.1557(4) 0.4207(11) 0.2472(4) 0.0579 Uani
O4 O 0.2122(4) 0.8093(10) 0.2249(3) 0.0486 Uani
O5 O 0.1684(4) 0.6438(10) 0.1553(3) 0.0575 Uani
O6 O 0.3008(4) 0.6425(13) 0.1543(3) 0.0688 Uani
O7 O 0.2707(4) 0.8493(9) 0.3450(3) 0.0532 Uani
O8 O 0.3399(5) 0.8990(13) 0.4459(4) 0.0701 Uani
C1D C -0.1723(5) 1.2149(14) -0.1780(5) 0.0483 Uani
C2D C -0.0492(5) 1.0076(16) -0.0702(5) 0.0471 Uani
C3D C -0.0924(5) 1.1170(13) -0.0975(5) 0.0483 Uani
H1D H -0.0988 1.2137 -0.0786 0.0580 Uiso
C7D C -0.1269(5) 1.0868(16) -0.1526(5) 0.0457 Uani
C10D C -0.0432(7) 0.8597(16) -0.0952(5) 0.0678 Uani
H4D H -0.0165 0.7814 -0.0759 0.0810 Uiso
C13D C -0.0779(5) 0.8282(16) -0.1501(5) 0.0598 Uani
H6D H -0.0714 0.7309 -0.1686 0.0720 Uiso
C14D C -0.1217(5) 0.9363(14) -0.1783(5) 0.0436 Uani
N1D N -0.0181(5) 1.0517(11) -0.0129(5) 0.0559 Uani
O2D O -0.1546(3) 0.8957(9) -0.2294(3) 0.0443 Uani
O4D O -0.2122(4) 1.1907(10) -0.2249(3) 0.0486 Uani
O5D O -0.1684(4) 1.3562(10) -0.1553(3) 0.0575 Uani
C4F C 0.2403(5) -0.2031(13) 0.6412(5) 0.0471 Uani
C5F C 0.2370(7) -0.0028(15) 0.5612(6) 0.0529 Uani
H2F H 0.2638 0.0611 0.5873 0.0640 Uiso
C6F C 0.1746(7) -0.0391(14) 0.4669(6) 0.0583 Uani
H3F H 0.1584 0.0018 0.4301 0.0700 Uiso
C8F C 0.2184(5) -0.1522(14) 0.5785(4) 0.0459 Uani
C9F C 0.2160(7) 0.0531(15) 0.5048(5) 0.0557 Uani
C11F C 0.1775(6) -0.2514(14) 0.5404(5) 0.0520 Uani
C12F C 0.1563(7) -0.1939(18) 0.4830(5) 0.0662 Uani
H5F H 0.1305 -0.2583 0.4561 0.0800 Uiso
N2F N 0.2354(5) 0.1990(11) 0.4816(4) 0.0588 Uani
O1F O 0.2621(5) -0.0879(14) 0.6779(3) 0.0685 Uani
O7F O 0.2293(4) -0.3493(9) 0.6550(3) 0.0532 Uani
O8F O 0.1601(5) -0.3990(13) 0.5541(4) 0.0701 Uani
Lu1D Lu -0.24790(2) 1.46307(6) -0.22855(2) 0.0440 Uani
O3D O -0.1557(4) 1.5793(11) -0.2472(4) 0.0579 Uani
O6D O -0.3008(4) 1.3575(13) -0.1543(3) 0.0688 Uani
Lu1C Lu 0.25210(2) 1.03693(6) 0.27145(2) 0.0440 Uani
Lu1E Lu 0.24790(2) -0.53693(6) 0.72855(2) 0.0440 Uani
Lu1F Lu 0.25210(2) -0.03693(6) 0.77145(2) 0.0440 Uani
Lu1G Lu -0.25210(2) 0.96307(6) -0.27145(2) 0.0440 Uani
O1D O -0.2379(5) 1.4121(14) -0.3221(3) 0.0685 Uani
O2C O 0.3454(3) 0.6043(9) 0.2706(3) 0.0443 Uani
O2G O -0.3454(3) 1.3957(9) -0.2706(3) 0.0443 Uani
O4C O 0.2878(4) 0.3093(10) 0.2751(3) 0.0486 Uani
O4G O -0.2878(4) 1.6907(10) -0.2751(3) 0.0486 Uani
O7C O 0.2293(4) 0.3493(9) 0.1550(3) 0.0532 Uani
O7G O -0.2293(4) 1.6507(9) -0.1550(3) 0.0532 Uani
loop_
_atom_site_aniso_label
_atom_site_aniso_U_11
_atom_site_aniso_U_22
_atom_site_aniso_U_33
_atom_site_aniso_U_23
_atom_site_aniso_U_13
_atom_site_aniso_U_12
C1 0.048(5) 0.050(6) 0.043(6) -0.016(5) -0.004(4) -0.011(5)
C2 0.041(6) 0.051(6) 0.040(6) -0.015(5) -0.021(5) 0.005(5)
C3 0.062(6) 0.032(5) 0.046(6) -0.001(5) -0.006(5) -0.004(5)
C4 0.066(6) 0.031(5) 0.043(6) -0.008(5) 0.005(5) -0.003(5)
C5 0.070(8) 0.032(5) 0.055(8) -0.006(6) 0.005(6) 0.001(6)
C6 0.075(8) 0.061(9) 0.032(6) 0.009(5) -0.012(6) -0.014(6)
C7 0.052(6) 0.043(6) 0.040(5) 0.001(5) 0.001(4) 0.004(5)
C8 0.059(6) 0.046(6) 0.033(5) -0.004(5) 0.008(4) -0.005(5)
C9 0.084(9) 0.051(7) 0.034(6) 0.007(5) 0.015(6) -0.013(6)
C10 0.104(10) 0.051(7) 0.039(6) -0.007(6) -0.016(6) 0.009(8)
C11 0.064(6) 0.043(6) 0.045(6) 0.019(5) -0.003(5) -0.009(6)
C12 0.093(9) 0.067(8) 0.037(6) 0.007(6) 0.006(6) -0.021(8)
C13 0.046(5) 0.054(7) 0.070(8) -0.024(6) -0.018(5) 0.012(6)
C14 0.052(6) 0.042(6) 0.034(5) -0.010(5) -0.001(5) -0.001(5)
Lu1 0.0581(5) 0.0341(5) 0.0353(4) -0.00080(15) -0.0060(3) 0.00189(18)
N1 0.057(6) 0.054(6) 0.048(6) -0.010(4) -0.017(5) 0.017(4)
N2 0.088(7) 0.035(5) 0.053(6) 0.010(4) 0.010(5) -0.008(5)
O1 0.087(6) 0.095(6) 0.014(3) 0.013(4) -0.020(3) -0.073(6)
O2 0.037(3) 0.038(4) 0.051(4) -0.004(4) -0.013(3) -0.003(3)
O3 0.061(5) 0.043(4) 0.064(5) -0.003(4) -0.007(4) -0.001(4)
O4 0.059(4) 0.044(4) 0.038(4) -0.005(3) -0.006(3) -0.003(4)
O5 0.058(4) 0.056(5) 0.046(4) -0.014(4) -0.029(3) 0.019(4)
O6 0.077(6) 0.085(7) 0.042(4) 0.007(5) 0.003(4) -0.016(5)
O7 0.078(5) 0.035(4) 0.040(4) 0.014(3) -0.010(3) -0.017(4)
O8 0.093(7) 0.063(6) 0.049(5) -0.004(5) -0.004(4) -0.018(6)
C1D 0.048 0.05 0.043 -0.016 -0.004 -0.011
C2D 0.041 0.051 0.04 -0.015 -0.021 0.005
C3D 0.062 0.032 0.046 -0.001 -0.006 -0.004
C7D 0.052 0.043 0.04 0.001 0.001 0.004
C10D 0.104 0.051 0.039 -0.007 -0.016 0.009
C13D 0.046 0.054 0.07 -0.024 -0.018 0.012
C14D 0.052 0.042 0.034 -0.01 -0.001 -0.001
N1D 0.057 0.054 0.048 -0.01 -0.017 0.017
O2D 0.037 0.038 0.051 -0.004 -0.013 -0.003
O4D 0.059 0.044 0.038 -0.005 -0.006 -0.003
O5D 0.058 0.056 0.046 -0.014 -0.029 0.019
C4F 0.066 0.031 0.043 -0.008 0.005 -0.003
C5F 0.07 0.032 0.055 -0.006 0.005 0.001
C6F 0.075 0.061 0.032 0.009 -0.012 -0.014
C8F 0.059 0.046 0.033 -0.004 0.008 -0.005
C9F 0.084 0.051 0.034 0.007 0.015 -0.013
C11F 0.064 0.043 0.045 0.019 -0.003 -0.009
C12F 0.093 0.067 0.037 0.007 0.006 -0.021
N2F 0.088 0.035 0.053 0.01 0.01 -0.008
O1F 0.087 0.095 0.014 0.013 -0.02 -0.073
O7F 0.078 0.035 0.04 0.014 -0.01 -0.017
O8F 0.093 0.063 0.049 -0.004 -0.004 -0.018
Lu1D 0.0581 0.0341 0.0353 -0.0008 -0.006 0.00189
O3D 0.061 0.043 0.064 -0.003 -0.007 -0.001
O6D 0.077 0.085 0.042 0.007 0.003 -0.016
Lu1C 0.0581 0.0341 0.0353 0.0008 -0.006 -0.00189
Lu1E 0.0581 0.0341 0.0353 0.0008 -0.006 -0.00189
Lu1F 0.0581 0.0341 0.0353 -0.0008 -0.006 0.00189
Lu1G 0.0581 0.0341 0.0353 0.0008 -0.006 -0.00189
O1D 0.087 0.095 0.014 0.013 -0.02 -0.073
O2C 0.037 0.038 0.051 0.004 -0.013 0.003
O2G 0.037 0.038 0.051 0.004 -0.013 0.003
O4C 0.059 0.044 0.038 0.005 -0.006 0.003
O4G 0.059 0.044 0.038 0.005 -0.006 0.003
O7C 0.078 0.035 0.04 -0.014 -0.01 0.017
O7G 0.078 0.035 0.04 -0.014 -0.01 0.017
loop_
_geom_bond_atom_site_label_1
_geom_bond_atom_site_label_2
_geom_bond_site_symmetry_1
_geom_bond_site_symmetry_2
C1 C7 1_555 1_555
C2 C3 1_555 1_555
C3 H1 1_555 1_555
C4 C8 1_555 1_555
C5 H2 1_555 1_555
C6 H3 1_555 1_555
C7 C3 1_555 1_555
C8 C5 1_555 1_555
C9 C5 1_555 1_555
C10 C2 1_555 1_555
H4 C10 1_555 1_555
C11 C8 1_555 1_555
C12 C6 1_555 1_555
H5 C12 1_555 1_555
C13 C10 1_555 1_555
H6 C13 1_555 1_555
C14 C7 1_555 1_555
Lu1 O1 1_555 1_555
N1 C2 1_555 1_555
N2 C9 1_555 1_555
O1 C4 1_555 1_555
O2 C14 1_555 1_555
O3 Lu1 1_555 1_555
O4 C1 1_555 1_555
O5 C1 1_555 1_555
O6 Lu1 1_555 1_555
O7 C4 1_555 1_555
O8 C11 1_555 1_555
C1D C7D 1_555 1_555
C2D C3D 1_555 1_555
C3D H1D 1_555 1_555
C7D C3D 1_555 1_555
C10D C2D 1_555 1_555
H4D C10D 1_555 1_555
C13D C10D 1_555 1_555
H6D C13D 1_555 1_555
C14D C7D 1_555 1_555
N1D N1 1_555 1_555
O2D C14D 1_555 1_555
O4D C1D 1_555 1_555
O5D C1D 1_555 1_555
C4F C8F 1_555 1_555
C5F H2F 1_555 1_555
C6F H3F 1_555 1_555
C8F C5F 1_555 1_555
C9F C5F 1_555 1_555
C11F C8F 1_555 1_555
C12F C6F 1_555 1_555
H5F C12F 1_555 1_555
N2F N2 1_555 1_555
O1F C4F 1_555 1_555
O7F C4F 1_555 1_555
O8F C11F 1_555 1_555
Lu1D O4D 1_555 1_555
O3D Lu1D 1_555 1_555
O6D Lu1D 1_555 1_555
Lu1C O2 1_555 1_555
Lu1E O7F 1_555 1_555
Lu1F O1F 1_555 1_555
Lu1G O2D 1_555 1_555
O1D Lu1D 1_555 1_555
O2C Lu1 1_555 1_555
O2G Lu1D 1_555 1_555
O4C Lu1 1_555 1_555
O4G Lu1D 1_555 1_555
O7C Lu1 1_555 1_555
O7G Lu1D 1_555 1_555
C6 C9 1_555 1_555
C11 C12 1_555 1_555
C13 C14 1_555 1_555
Lu1 O4 1_555 1_555
Lu1 O5 1_555 1_555
O4 Lu1C 1_555 1_555
O7 Lu1C 1_555 1_555
C2D N1D 1_555 1_555
C13D C14D 1_555 1_555
O4D Lu1G 1_555 1_555
O5D Lu1D 1_555 1_555
C6F C9F 1_555 1_555
C9F N2F 1_555 1_555
C11F C12F 1_555 1_555

#END
