
#######################################################################
#
#                 Cambridge Crystallographic Data Centre
#                                CCDC 
#
#######################################################################
#
# If this CIF has been generated from an entry in the Cambridge 
# Structural Database, then it will include bibliographic, chemical, 
# crystal, experimental, refinement or atomic coordinate data resulting 
# from the CCDC's data processing and validation procedures.
#
#######################################################################

data_DAMZEZ
_chemical_formula_moiety         '(C37 H37 Cd2 N7 O10)n'
_symmetry_cell_setting           orthorhombic
_symmetry_space_group_name_H-M   'P 21 21 21'
_symmetry_Int_Tables_number      19
_space_group_name_Hall           'P 2ac 2ab'
loop_
_symmetry_equiv_pos_site_id
_symmetry_equiv_pos_as_xyz
1 x,y,z
2 1/2-x,-y,1/2+z
3 1/2+x,1/2-y,-z
4 -x,1/2+y,1/2-z
_cell_length_a                   10.342(4)
_cell_length_b                   15.079(4)
_cell_length_c                   25.117(6)
_cell_angle_alpha                90
_cell_angle_beta                 90
_cell_angle_gamma                90
_cell_volume                     3916.92
loop_
_atom_site_label
_atom_site_type_symbol
_atom_site_fract_x
_atom_site_fract_y
_atom_site_fract_z
_atom_site_U_iso_or_equiv
_atom_site_thermal_displace_type
Cd1 Cd -0.08788(14) 0.49974(13) 0.53666(6) 0.0116 Uani
Cd2 Cd -0.32837(15) 0.50591(12) 0.45596(6) 0.0114 Uani
O1 O 0.133(3) 0.0972(19) 0.4822(10) 0.0417 Uani
O2 O 0.281(3) 0.0880(19) 0.4172(11) 0.0417 Uani
O3 O -0.227(3) 0.4014(19) 0.4080(11) 0.0417 Uani
C1 C 0.178(3) 0.117(2) 0.4371(13) 0.0277 Uani
O4 O -0.083(3) 0.3940(19) 0.4741(11) 0.0417 Uani
N1 N -0.713(2) 0.507(2) 0.3858(9) 0.0277 Uani
N2 N -0.062(3) 0.2616(18) 0.2391(11) 0.0227 Uani
C2 C 0.025(3) 0.195(2) 0.1002(14) 0.0277 Uani
C3 C -0.140(3) 0.306(2) 0.0993(13) 0.0277 Uani
C4 C -0.129(3) 0.370(2) 0.4296(14) 0.0277 Uani
C5 C -0.054(3) 0.300(2) 0.4012(14) 0.0277 Uani
N3 N -0.520(2) 0.5265(15) 0.4193(10) 0.0187 Uani
C6 C 0.102(3) 0.181(2) 0.4048(13) 0.0277 Uani
C7 C 0.021(3) 0.234(2) 0.3209(13) 0.0277 Uani
C8 C -0.142(3) 0.307(2) 0.1533(13) 0.0277 Uani
H1 H -0.2011 0.3427 0.1711 0.0330 Uiso
N4 N 0.028(3) 0.2248(18) 0.2634(10) 0.0190 Uani
C9 C -0.054(3) 0.255(2) 0.1827(14) 0.0277 Uani
C10 C 0.032(3) 0.200(2) 0.1552(14) 0.0277 Uani
H2 H 0.0934 0.1666 0.1737 0.0330 Uiso
C11 C -0.837(3) 0.467(2) 0.3706(12) 0.0277 Uani
H3 H -0.9069 0.5005 0.3863 0.0330 Uiso
H4 H -0.8410 0.4068 0.3845 0.0330 Uiso
C12 C -0.057(3) 0.248(2) 0.0725(14) 0.0277 Uani
H5 H -0.0582 0.2459 0.0355 0.0330 Uiso
C13 C -0.060(3) 0.294(2) 0.3458(14) 0.0277 Uani
H6 H -0.1164 0.3287 0.3262 0.0330 Uiso
C14 C -0.854(3) 0.464(2) 0.3100(12) 0.0277 Uani
C15 C -0.968(3) 0.489(2) 0.2873(11) 0.0277 Uani
H7 H -1.0349 0.5094 0.3086 0.0330 Uiso
C16 C -0.753(3) 0.433(2) 0.2776(12) 0.0277 Uani
H8 H -0.6764 0.4140 0.2931 0.0330 Uiso
C17 C 0.103(3) 0.179(2) 0.3487(13) 0.0277 Uani
H9 H 0.1589 0.1415 0.3305 0.0330 Uiso
C18 C -0.616(3) 0.469(2) 0.4134(12) 0.0277 Uani
C19 C -0.885(3) 0.459(2) 0.1993(13) 0.0277 Uani
C20 C 0.023(3) 0.243(2) 0.4302(14) 0.0277 Uani
H10 H 0.0220 0.2458 0.4671 0.0330 Uiso
C21 C -0.675(3) 0.593(2) 0.3726(12) 0.0277 Uani
H11 H -0.7225 0.6351 0.3535 0.0330 Uiso
C22 C -0.557(3) 0.603(2) 0.3937(12) 0.0277 Uani
H12 H -0.5065 0.6539 0.3913 0.0330 Uiso
C23 C -0.984(3) 0.485(2) 0.2323(11) 0.0277 Uani
H13 H -1.0637 0.4993 0.2176 0.0330 Uiso
C24 C -0.898(3) 0.461(2) 0.1402(12) 0.0277 Uani
H14 H -0.9072 0.4004 0.1273 0.0330 Uiso
H15 H -0.9754 0.4932 0.1307 0.0330 Uiso
C25 C -0.617(3) 0.374(2) 0.4322(13) 0.0277 Uani
H16 H -0.6503 0.3364 0.4039 0.0330 Uiso
H17 H -0.5297 0.3553 0.4400 0.0330 Uiso
C26 C -0.768(3) 0.429(2) 0.2226(12) 0.0277 Uani
H18 H -0.7014 0.4074 0.2013 0.0330 Uiso
C27 C -0.699(3) 0.362(2) 0.4806(12) 0.0277 Uani
H19 H -0.6735 0.4046 0.5072 0.0410 Uiso
H20 H -0.6881 0.3034 0.4943 0.0410 Uiso
H21 H -0.7882 0.3716 0.4715 0.0410 Uiso
O5 O 0.054(3) 0.0974(19) 0.0287(11) 0.0417 Uani
C28 C 0.105(3) 0.126(2) 0.0702(14) 0.0277 Uani
O6 O 0.211(3) 0.1048(19) 0.0902(11) 0.0417 Uani
C29 C -0.223(3) 0.369(2) 0.0674(13) 0.0277 Uani
O7 O -0.172(3) 0.3967(18) 0.0246(10) 0.0417 Uani
O8 O -0.333(3) 0.3868(18) 0.0869(10) 0.0417 Uani
N5 N -0.786(2) 0.502(2) 0.1142(9) 0.0267 Uani
C30 C -0.692(3) 0.463(2) 0.0860(12) 0.0277 Uani
C31 C -0.779(3) 0.355(2) 0.0192(12) 0.0277 Uani
H22 H -0.8655 0.3734 0.0274 0.0410 Uiso
H23 H -0.7789 0.2935 0.0093 0.0410 Uiso
H24 H -0.7461 0.3899 -0.0098 0.0410 Uiso
C32 C -0.693(3) 0.368(2) 0.0679(12) 0.0277 Uani
H25 H -0.7244 0.3308 0.0966 0.0330 Uiso
H26 H -0.6058 0.3498 0.0594 0.0330 Uiso
C33 C -0.755(3) 0.590(2) 0.1209(12) 0.0277 Uani
H27 H -0.8023 0.6332 0.1391 0.0330 Uiso
N6 N -0.601(2) 0.5228(18) 0.0738(10) 0.0277 Uani
C34 C -0.640(3) 0.602(2) 0.0954(16) 0.0360 Uani
H28 H -0.5953 0.6552 0.0930 0.0430 Uiso
Cd1A Cd -0.41212(14) 0.50026(13) 0.03666(6) 0.0116 Uani
Cd1B Cd 0.41212(14) 0.00026(13) 0.46334(6) 0.0116 Uani
Cd1C Cd 0.08788(14) -0.00026(13) -0.03666(6) 0.0116 Uani
Cd2A Cd -0.17163(15) 0.49409(12) -0.04404(6) 0.0114 Uani
Cd2B Cd 0.17163(15) -0.00591(12) 0.54404(6) 0.0114 Uani
Cd2C Cd 0.32837(15) 0.00591(12) 0.04404(6) 0.0114 Uani
O1B O -0.367(3) 0.4028(19) 0.5178(10) 0.0417 Uani
O2B O -0.219(3) 0.4120(19) 0.5828(11) 0.0417 Uani
O5C O -0.054(3) 0.5974(19) 0.4713(11) 0.0417 Uani
O6C O -0.211(3) 0.6048(19) 0.4098(11) 0.0417 Uani
O7A O -0.328(3) 0.6033(18) 0.5246(10) 0.0417 Uani
O8A O -0.167(3) 0.6132(18) 0.5869(10) 0.0417 Uani
N6A N 0.101(2) 0.4772(18) 0.5738(10) 0.0277 Uani
O9 O -0.4076(1) 0.4038(1) 0.2586(1) 0.0417 Uani
C35 C -0.3701(1) 0.4874(1) 0.2726(1) 0.0277 Uani
H29 H -0.3227 0.4872 0.3041 0.0330 Uiso
C36 C -0.4250(1) 0.5827(1) 0.2000(1) 0.0277 Uani
H30 H -0.3518 0.5988 0.1785 0.0410 Uiso
H31 H -0.4865 0.6303 0.2000 0.0410 Uiso
H32 H -0.4645 0.5303 0.1856 0.0410 Uiso
N7 N -0.3825(1) 0.5654(1) 0.2543(1) 0.0417 Uani
C37 C -0.3483(1) 0.6453(1) 0.2850(1) 0.0277 Uani
H33 H -0.3216 0.6283 0.3202 0.0410 Uiso
H34 H -0.4222 0.6836 0.2874 0.0410 Uiso
H35 H -0.2789 0.6759 0.2676 0.0410 Uiso
O10 O -0.4923(1) 0.3178(1) 0.1691(1) 0.0417 Uani
H36 H -0.4454 0.3358 0.1435 0.0620 Uiso
H37 H -0.4642 0.3392 0.1982 0.0620 Uiso
loop_
_atom_site_aniso_label
_atom_site_aniso_U_11
_atom_site_aniso_U_22
_atom_site_aniso_U_33
_atom_site_aniso_U_23
_atom_site_aniso_U_13
_atom_site_aniso_U_12
Cd1 0.0112(7) 0.0140(8) 0.0096(7) -0.0010(8) 0.0004(5) -0.0001(8)
Cd2 0.0111(7) 0.0141(8) 0.0090(7) -0.0002(8) 0.0004(5) -0.0001(8)
O1 0.046(5) 0.047(5) 0.032(4) -0.001(3) -0.001(4) 0.017(4)
O2 0.046(5) 0.047(5) 0.032(4) -0.001(3) -0.001(4) 0.017(4)
O3 0.046(5) 0.047(5) 0.032(4) -0.001(3) -0.001(4) 0.017(4)
C1 0.027(2) 0.034(3) 0.022(2) 0.000(2) -0.001(2) 0.003(2)
O4 0.046(5) 0.047(5) 0.032(4) -0.001(3) -0.001(4) 0.017(4)
N1 0.017(10) 0.043(15) 0.023(10) 0.005(14) 0.002(8) -0.003(13)
N2 0.024(13) 0.027(13) 0.017(12) -0.002(10) 0.000(11) 0.011(11)
C2 0.027(2) 0.034(3) 0.022(2) 0.000(2) -0.001(2) 0.003(2)
C3 0.027(2) 0.034(3) 0.022(2) 0.000(2) -0.001(2) 0.003(2)
C4 0.027(2) 0.034(3) 0.022(2) 0.000(2) -0.001(2) 0.003(2)
C5 0.027(2) 0.034(3) 0.022(2) 0.000(2) -0.001(2) 0.003(2)
N3 0.011(10) 0.020(11) 0.025(11) 0.001(9) -0.004(9) 0.000(8)
C6 0.027(2) 0.034(3) 0.022(2) 0.000(2) -0.001(2) 0.003(2)
C7 0.027(2) 0.034(3) 0.022(2) 0.000(2) -0.001(2) 0.003(2)
C8 0.027(2) 0.034(3) 0.022(2) 0.000(2) -0.001(2) 0.003(2)
N4 0.019(12) 0.029(13) 0.009(11) 0.002(9) -0.001(9) 0.003(10)
C9 0.027(2) 0.034(3) 0.022(2) 0.000(2) -0.001(2) 0.003(2)
C10 0.027(2) 0.034(3) 0.022(2) 0.000(2) -0.001(2) 0.003(2)
C11 0.027(2) 0.034(3) 0.022(2) 0.000(2) -0.001(2) 0.003(2)
C12 0.027(2) 0.034(3) 0.022(2) 0.000(2) -0.001(2) 0.003(2)
C13 0.027(2) 0.034(3) 0.022(2) 0.000(2) -0.001(2) 0.003(2)
C14 0.027(2) 0.034(3) 0.022(2) 0.000(2) -0.001(2) 0.003(2)
C15 0.027(2) 0.034(3) 0.022(2) 0.000(2) -0.001(2) 0.003(2)
C16 0.027(2) 0.034(3) 0.022(2) 0.000(2) -0.001(2) 0.003(2)
C17 0.027(2) 0.034(3) 0.022(2) 0.000(2) -0.001(2) 0.003(2)
C18 0.027(2) 0.034(3) 0.022(2) 0.000(2) -0.001(2) 0.003(2)
C19 0.027(2) 0.034(3) 0.022(2) 0.000(2) -0.001(2) 0.003(2)
C20 0.027(2) 0.034(3) 0.022(2) 0.000(2) -0.001(2) 0.003(2)
C21 0.027(2) 0.034(3) 0.022(2) 0.000(2) -0.001(2) 0.003(2)
C22 0.027(2) 0.034(3) 0.022(2) 0.000(2) -0.001(2) 0.003(2)
C23 0.027(2) 0.034(3) 0.022(2) 0.000(2) -0.001(2) 0.003(2)
C24 0.027(2) 0.034(3) 0.022(2) 0.000(2) -0.001(2) 0.003(2)
C25 0.027(2) 0.034(3) 0.022(2) 0.000(2) -0.001(2) 0.003(2)
C26 0.027(2) 0.034(3) 0.022(2) 0.000(2) -0.001(2) 0.003(2)
C27 0.027(2) 0.034(3) 0.022(2) 0.000(2) -0.001(2) 0.003(2)
O5 0.046(5) 0.047(5) 0.032(4) -0.001(3) -0.001(4) 0.017(4)
C28 0.027(2) 0.034(3) 0.022(2) 0.000(2) -0.001(2) 0.003(2)
O6 0.046(5) 0.047(5) 0.032(4) -0.001(3) -0.001(4) 0.017(4)
C29 0.027(2) 0.034(3) 0.022(2) 0.000(2) -0.001(2) 0.003(2)
O7 0.046(5) 0.047(5) 0.032(4) -0.001(3) -0.001(4) 0.017(4)
O8 0.046(5) 0.047(5) 0.032(4) -0.001(3) -0.001(4) 0.017(4)
N5 0.022(10) 0.034(13) 0.024(10) 0.006(14) 0.006(8) -0.001(13)
C30 0.027(2) 0.034(3) 0.022(2) 0.000(2) -0.001(2) 0.003(2)
C31 0.027(2) 0.034(3) 0.022(2) 0.000(2) -0.001(2) 0.003(2)
C32 0.027(2) 0.034(3) 0.022(2) 0.000(2) -0.001(2) 0.003(2)
C33 0.027(2) 0.034(3) 0.022(2) 0.000(2) -0.001(2) 0.003(2)
N6 0.027(2) 0.034(3) 0.022(2) 0.000(2) -0.001(2) 0.003(2)
C34 0.028(17) 0.020(15) 0.06(2) -0.001(15) 0.017(16) 0.001(13)
Cd1A 0.0112 0.014 0.0096 0.001 -0.0004 -0.0001
Cd1B 0.0112 0.014 0.0096 -0.001 -0.0004 0.0001
Cd1C 0.0112 0.014 0.0096 0.001 0.0004 0.0001
Cd2A 0.0111 0.0141 0.009 0.0002 -0.0004 -0.0001
Cd2B 0.0111 0.0141 0.009 -0.0002 -0.0004 0.0001
Cd2C 0.0111 0.0141 0.009 0.0002 0.0004 0.0001
O1B 0.046 0.047 0.032 -0.001 0.001 -0.017
O2B 0.046 0.047 0.032 -0.001 0.001 -0.017
O5C 0.046 0.047 0.032 0.001 -0.001 -0.017
O6C 0.046 0.047 0.032 0.001 -0.001 -0.017
O7A 0.046 0.047 0.032 0.001 0.001 0.017
O8A 0.046 0.047 0.032 0.001 0.001 0.017
N6A 0.027 0.034 0.022 0 0.001 0.003
O9 0.046(4) 0.047(4) 0.032(5) -0.001(3) -0.001(4) 0.017(4)
C35 0.027(2) 0.034(3) 0.022(2) 0.000(2) -0.001(2) 0.003(2)
C36 0.027(2) 0.034(3) 0.022(2) 0.000(2) -0.001(2) 0.003(2)
N7 0.046(5) 0.047(5) 0.032(4) -0.001(3) -0.001(4) 0.017(4)
C37 0.027(2) 0.034(3) 0.022(2) 0.000(2) -0.001(2) 0.003(2)
O10 0.046(5) 0.047(5) 0.032(4) -0.001(3) -0.001(4) 0.017(4)
loop_
_geom_bond_atom_site_label_1
_geom_bond_atom_site_label_2
_geom_bond_site_symmetry_1
_geom_bond_site_symmetry_2
Cd1 O4 1_555 1_555
Cd2 O3 1_555 1_555
O1 C1 1_555 1_555
O2 C1 1_555 1_555
O3 C4 1_555 1_555
C1 C6 1_555 1_555
O4 C4 1_555 1_555
N1 C11 1_555 1_555
N2 N4 1_555 1_555
C2 C10 1_555 1_555
C3 C8 1_555 1_555
C4 C5 1_555 1_555
C5 C13 1_555 1_555
N3 Cd2 1_555 1_555
C6 C17 1_555 1_555
C7 N4 1_555 1_555
C8 H1 1_555 1_555
C9 N2 1_555 1_555
C10 C9 1_555 1_555
H2 C10 1_555 1_555
C11 H3 1_555 1_555
H4 C11 1_555 1_555
C12 C2 1_555 1_555
H5 C12 1_555 1_555
C13 C7 1_555 1_555
H6 C13 1_555 1_555
C14 C11 1_555 1_555
C15 C14 1_555 1_555
H7 C15 1_555 1_555
C16 C14 1_555 1_555
H8 C16 1_555 1_555
C17 C7 1_555 1_555
H9 C17 1_555 1_555
C18 N1 1_555 1_555
C19 C23 1_555 1_555
C20 C5 1_555 1_555
H10 C20 1_555 1_555
C21 N1 1_555 1_555
H11 C21 1_555 1_555
C22 N3 1_555 1_555
H12 C22 1_555 1_555
C23 C15 1_555 1_555
H13 C23 1_555 1_555
C24 C19 1_555 1_555
H14 C24 1_555 1_555
H15 C24 1_555 1_555
C25 C18 1_555 1_555
H16 C25 1_555 1_555
H17 C25 1_555 1_555
C26 C16 1_555 1_555
H18 C26 1_555 1_555
C27 C25 1_555 1_555
H19 C27 1_555 1_555
H20 C27 1_555 1_555
H21 C27 1_555 1_555
O5 C28 1_555 1_555
C28 C2 1_555 1_555
O6 C28 1_555 1_555
C29 C3 1_555 1_555
O7 C29 1_555 1_555
O8 C29 1_555 1_555
N5 C24 1_555 1_555
C30 N5 1_555 1_555
C31 H22 1_555 1_555
H23 C31 1_555 1_555
H24 C31 1_555 1_555
C32 C30 1_555 1_555
H25 C32 1_555 1_555
H26 C32 1_555 1_555
C33 N5 1_555 1_555
H27 C33 1_555 1_555
N6 C30 1_555 1_555
C34 C33 1_555 1_555
H28 C34 1_555 1_555
O9 C35 1_555 1_555
C35 H29 1_555 1_555
C36 H30 1_555 1_555
H31 C36 1_555 1_555
H32 C36 1_555 1_555
N7 C35 1_555 1_555
C37 N7 1_555 1_555
H33 C37 1_555 1_555
H34 C37 1_555 1_555
H35 C37 1_555 1_555
O10 H36 1_555 1_555
H37 O10 1_555 1_555
Cd1A O8 1_555 1_555
Cd1B O2 1_555 1_555
Cd1C O5 1_555 1_555
Cd2A O7 1_555 1_555
Cd2B O1 1_555 1_555
Cd2C O6 1_555 1_555
O1B Cd2 1_555 1_555
O2B Cd1 1_555 1_555
O5C Cd1 1_555 1_555
O6C Cd2 1_555 1_555
O7A Cd2 1_555 1_555
O8A Cd1 1_555 1_555
N6A Cd1 1_555 1_555
C3 C12 1_555 1_555
N3 C18 1_555 1_555
C6 C20 1_555 1_555
C8 C9 1_555 1_555
C19 C26 1_555 1_555
C21 C22 1_555 1_555
C31 C32 1_555 1_555
N6 C34 1_555 1_555
N6 Cd1A 1_555 1_555
C36 N7 1_555 1_555

#END
