
#######################################################################
#
#                 Cambridge Crystallographic Data Centre
#                                CCDC 
#
#######################################################################
#
# If this CIF has been generated from an entry in the Cambridge 
# Structural Database, then it will include bibliographic, chemical, 
# crystal, experimental, refinement or atomic coordinate data resulting 
# from the CCDC's data processing and validation procedures.
#
#######################################################################

data_PUGGOP
_chemical_formula_moiety         '(C64 H50 Mn4 N2 O26 S4)n'
_symmetry_cell_setting           triclinic
_symmetry_space_group_name_H-M   'P -1'
_symmetry_Int_Tables_number      2
_space_group_name_Hall           '-P 1'
loop_
_symmetry_equiv_pos_site_id
_symmetry_equiv_pos_as_xyz
1 x,y,z
2 -x,-y,-z
_cell_length_a                   11.6384(18)
_cell_length_b                   21.052(4)
_cell_length_c                   24.247(4)
_cell_angle_alpha                114.959(8)
_cell_angle_beta                 102.950(9)
_cell_angle_gamma                92.406(9)
_cell_volume                     5185.94
loop_
_atom_site_label
_atom_site_type_symbol
_atom_site_fract_x
_atom_site_fract_y
_atom_site_fract_z
Mn1 Mn 0.42036(6) 0.17038(4) 0.34079(3)
Mn2 Mn 0.66444(7) 0.23569(4) 0.29297(3)
Mn3 Mn 0.12852(7) 0.05723(4) 0.29299(3)
Mn4 Mn 0.87264(6) 0.12270(4) 0.24541(3)
S1 S 0.8431(2) 0.46766(10) 0.70245(7)
S2 S 0.34519(14) -0.21054(8) 0.08094(6)
S3 S 0.6407(2) -0.23494(11) 0.29748(8)
S4 S 0.23579(14) 0.29147(8) 0.08100(6)
N1 N 1.0037(9) 0.3396(5) 0.3861(5)
O1 O 0.5822(4) 0.2112(2) 0.4129(2)
O2 O 0.6691(5) -0.2015(2) 0.5869(2)
O3 O 0.4280(3) 0.0662(2) 0.33573(16)
O4 O 0.5920(3) 0.7305(2) 0.66402(16)
O5 O 0.2440(3) 0.12251(18) 0.26355(14)
O6 O 0.5187(3) 0.14077(18) 0.26379(15)
O7 O 0.7131(4) 0.2711(2) 0.39004(18)
O8 O 0.4601(4) 0.6953(2) 0.70373(19)
O9 O 0.3422(3) -0.2161(2) -0.19886(17)
O10 O 0.8817(4) 0.2302(3) 0.3160(2)
O11 O 0.6938(3) 0.1092(2) 0.25592(17)
O12 O 0.8229(4) -0.1183(3) 0.61014(18)
O13 O 0.2560(3) -0.0092(2) 0.29612(19)
O14 O -0.0418(3) 0.0176(2) -0.19870(17)
O15 O 0.0623(3) 0.1468(2) 0.25585(17)
O16 O 0.1900(3) -0.1596(2) -0.17751(18)
O17 O 0.1320(3) -0.0186(2) -0.17762(17)
O18 O 0.9696(5) 0.4958(3) 0.7161(3)
O19 O 0.8050(7) 0.4387(3) 0.7400(2)
O20 O 0.4305(4) -0.2572(2) 0.08515(18)
O21 O 0.2304(4) -0.2209(2) 0.09180(18)
O22 O 0.7524(6) -0.2213(4) 0.2837(3)
O23 O 0.5658(7) -0.3019(3) 0.2592(2)
O24 O 0.3609(4) 0.3124(2) 0.09177(18)
O25 O 0.1545(4) 0.3423(2) 0.08512(18)
C1 C 0.6674(5) 0.2605(3) 0.4275(3)
C2 C 0.7180(5) 0.3071(3) 0.4967(2)
C3 C 0.8106(5) 0.3625(3) 0.5169(2)
H1 H 0.8456 0.3681 0.4880
C4 C 0.8502(6) 0.4094(3) 0.5805(3)
H2 H 0.9121 0.4463 0.5937
C5 C 0.8012(6) 0.4029(3) 0.6239(2)
C6 C 0.7104(7) 0.3470(4) 0.6040(3)
H3 H 0.6768 0.3413 0.6333
C7 C 0.6695(5) 0.2997(3) 0.5408(3)
H4 H 0.6085 0.2624 0.5279
C8 C 0.7564(6) 0.5336(3) 0.7009(3)
C9 C 0.8048(6) 0.5859(4) 0.6842(3)
H5 H 0.8805 0.5863 0.6776
C10 C 0.7354(5) 0.6336(3) 0.6786(3)
H6 H 0.7633 0.6663 0.6664
C11 C 0.6260(5) 0.6359(3) 0.6902(2)
C12 C 0.5851(6) 0.5878(3) 0.7066(3)
H7 H 0.5112 0.5895 0.7155
C13 C 0.6517(9) 0.5349(4) 0.7109(4)
H8 H 0.6205 0.5010 0.7209
C14 C 0.5539(5) 0.6909(3) 0.6847(2)
C15 C 0.5823(4) 0.0925(3) 0.2430(2)
C16 C 0.5223(4) 0.0168(3) 0.2054(2)
C17 C 0.4017(4) 0.0005(3) 0.1875(2)
H9 H 0.3554 0.0364 0.1992
C18 C 0.3471(5) -0.0695(3) 0.1519(2)
H10 H 0.2645 -0.0806 0.1414
C19 C 0.4148(5) -0.1226(3) 0.1319(2)
C20 C 0.5399(5) -0.1055(3) 0.1494(3)
H11 H 0.5865 -0.1412 0.1367
C21 C 0.5921(5) -0.0372(3) 0.1847(3)
H12 H 0.6746 -0.0258 0.1954
C22 C 0.3215(5) -0.2121(3) 0.0054(2)
C23 C 0.2269(5) -0.1790(3) -0.0126(3)
H13 H 0.1756 -0.1607 0.0128
C24 C 0.2128(5) -0.1746(3) -0.0676(2)
H14 H 0.1497 -0.1539 -0.0804
C25 C 0.2898(4) -0.2000(3) -0.1059(2)
C26 C 0.3807(5) -0.2335(3) -0.0878(3)
H15 H 0.4310 -0.2527 -0.1135
C27 C 0.3962(5) -0.2384(3) -0.0317(2)
H16 H 0.4584 -0.2598 -0.0191
C28 C 0.2728(5) -0.1925(3) -0.1664(2)
C29 C 0.3683(5) 0.0063(3) 0.3150(2)
C30 C 0.4354(5) -0.0544(3) 0.3092(2)
C31 C 0.3785(6) -0.1180(3) 0.2947(3)
H17 H 0.2962 -0.1246 0.2882
C32 C 0.4406(7) -0.1755(4) 0.2889(4)
H18 H 0.3989 -0.2197 0.2776
C33 C 0.5557(6) -0.1670(4) 0.2993(3)
C34 C 0.6200(6) -0.0990(4) 0.3152(3)
H19 H 0.7023 -0.0921 0.3214
C35 C 0.5567(5) -0.0460(3) 0.3207(3)
H20 H 0.5974 -0.0012 0.3329
C36 C 0.6768(6) -0.2206(3) 0.3771(2)
C37 C 0.6067(6) -0.2573(4) 0.3964(3)
H21 H 0.5446 -0.2927 0.3668
C38 C 0.6278(5) -0.2419(3) 0.4583(3)
H22 H 0.5794 -0.2665 0.4708
C39 C 0.7212(5) -0.1898(3) 0.5031(2)
C40 C 0.7937(5) -0.1543(3) 0.4827(2)
H23 H 0.8572 -0.1195 0.5117
C41 C 0.7708(6) -0.1710(3) 0.4203(3)
H24 H 0.8203 -0.1481 0.4068
C42 C 0.7404(6) -0.1665(4) 0.5729(3)
C43 C 0.1614(4) 0.1515(3) 0.2437(2)
C44 C 0.1836(4) 0.1883(3) 0.2047(2)
C45 C 0.0927(5) 0.2217(3) 0.1844(2)
H25 H 0.0207 0.2207 0.1949
C46 C 0.1107(5) 0.2553(3) 0.1495(3)
H26 H 0.0520 0.2787 0.1369
C47 C 0.2169(5) 0.2548(3) 0.1324(2)
C48 C 0.3035(5) 0.2213(3) 0.1521(2)
H27 H 0.3754 0.2216 0.1414
C49 C 0.2857(4) 0.1874(3) 0.1874(2)
H28 H 0.3444 0.1637 0.1995
C50 C 0.1843(5) 0.2174(3) 0.0056(2)
C51 C 0.0709(5) 0.2065(3) -0.0315(3)
H29 H 0.0208 0.2401 -0.0191
C52 C 0.0313(5) 0.1453(3) -0.0877(3)
H30 H -0.0449 0.1383 -0.1136
C53 C 0.1050(5) 0.0944(3) -0.1053(2)
C54 C 0.2199(5) 0.1066(3) -0.0680(2)
H31 H 0.2701 0.0732 -0.0808
C55 C 0.2605(5) 0.1660(3) -0.0137(3)
H32 H 0.3379 0.1733 0.0112
C56 C 0.0614(5) 0.0256(3) -0.1662(2)
C57 C 0.9175(8) 0.2895(4) 0.3475(4)
C58 C 0.8332(8) 0.3353(6) 0.3267(4)
C59 C 1.0285(9) 0.4137(5) 0.4292(4)
C60 C 1.0938(9) 0.2941(5) 0.4034(4)
N2 N 0.8859(9) 0.0468(5) 0.3856(5)
O26 O 0.9345(4) 0.0854(3) 0.3163(2)
C61 C 0.9334(7) 0.0546(5) 0.3456(4)
C62 C 0.9945(9) -0.0119(6) 0.3284(4)
C63 C 0.8981(8) 0.0165(5) 0.4292(4)
C64 C 0.8103(8) 0.1096(4) 0.4025(4)
Mn1A Mn 0.57964(6) -0.17038(4) 0.65921(3)
Mn1A_2 Mn 0.57964(6) 0.82962(4) 0.65921(3)
Mn2A Mn 0.33556(7) -0.23569(4) -0.29297(3)
Mn2A_2 Mn 0.33556(7) 0.76431(4) 0.70703(3)
Mn3A Mn -0.12852(7) -0.05723(4) -0.29299(3)
Mn3A_2 Mn 0.87148(7) -0.05723(4) 0.70701(3)
Mn4_2 Mn -0.12736(6) 0.12270(4) 0.24541(3)
Mn4A Mn 0.12736(6) -0.12270(4) -0.24541(3)
O2A O 0.3309(5) 0.2015(2) 0.4131(2)
O4A O 0.4080(3) 0.2695(2) 0.33598(16)
O8A O 0.5399(4) 0.3047(2) 0.29627(19)
O9A O 0.6578(3) 0.2161(2) 0.19886(17)
O12A O 0.1771(4) 0.1183(3) 0.38986(18)
O14A O 0.0418(3) -0.0176(2) 0.19870(17)
O15_2 O 1.0623(3) 0.1468(2) 0.25585(17)
O16A O 0.8100(3) 0.1596(2) 0.17751(18)
O17A O 0.8680(3) 0.0186(2) 0.17762(17)
loop_
_geom_bond_atom_site_label_1
_geom_bond_atom_site_label_2
_geom_bond_site_symmetry_1
_geom_bond_site_symmetry_2
Mn1 O1 1_555 1_555
Mn2 O6 1_555 1_555
Mn3 O5 1_555 1_555
Mn4 O10 1_555 1_555
S1 O18 1_555 1_555
S2 O20 1_555 1_555
S3 O22 1_555 1_555
S4 O24 1_555 1_555
N1 C57 1_555 1_555
O1 C1 1_555 1_555
O2 C42 1_555 1_555
O3 Mn1 1_555 1_555
O4 C14 1_555 1_555
O5 Mn1 1_555 1_555
O6 Mn1 1_555 1_555
O7 Mn2 1_555 1_555
O8 C14 1_555 1_555
O9 C28 1_555 1_555
O10 C57 1_555 1_555
O11 Mn4 1_555 1_555
O12 C42 1_555 1_555
O13 Mn3 1_555 1_555
O14 C56 1_555 1_555
O15 C43 1_555 1_555
O16 C28 1_555 1_555
O17 C56 1_555 1_555
O19 S1 1_555 1_555
O21 S2 1_555 1_555
O23 S3 1_555 1_555
O25 S4 1_555 1_555
C1 O7 1_555 1_555
C2 C1 1_555 1_555
C3 C2 1_555 1_555
H1 C3 1_555 1_555
C4 C3 1_555 1_555
H2 C4 1_555 1_555
C5 S1 1_555 1_555
C6 C5 1_555 1_555
H3 C6 1_555 1_555
C7 C2 1_555 1_555
H4 C7 1_555 1_555
C8 S1 1_555 1_555
C9 C8 1_555 1_555
H5 C9 1_555 1_555
C10 C9 1_555 1_555
H6 C10 1_555 1_555
C11 C10 1_555 1_555
C12 C11 1_555 1_555
H7 C12 1_555 1_555
C13 C8 1_555 1_555
H8 C13 1_555 1_555
C14 C11 1_555 1_555
C15 O6 1_555 1_555
C16 C15 1_555 1_555
C17 C16 1_555 1_555
H9 C17 1_555 1_555
C18 C17 1_555 1_555
H10 C18 1_555 1_555
C19 S2 1_555 1_555
C20 C19 1_555 1_555
H11 C20 1_555 1_555
C21 C16 1_555 1_555
H12 C21 1_555 1_555
C22 S2 1_555 1_555
C23 C22 1_555 1_555
H13 C23 1_555 1_555
C24 C23 1_555 1_555
H14 C24 1_555 1_555
C25 C24 1_555 1_555
C26 C25 1_555 1_555
H15 C26 1_555 1_555
C27 C22 1_555 1_555
H16 C27 1_555 1_555
C28 C25 1_555 1_555
C29 O3 1_555 1_555
C30 C29 1_555 1_555
C31 C30 1_555 1_555
H17 C31 1_555 1_555
C32 C31 1_555 1_555
H18 C32 1_555 1_555
C33 S3 1_555 1_555
C34 C33 1_555 1_555
H19 C34 1_555 1_555
C35 C30 1_555 1_555
H20 C35 1_555 1_555
C36 S3 1_555 1_555
C37 C36 1_555 1_555
H21 C37 1_555 1_555
C38 C37 1_555 1_555
H22 C38 1_555 1_555
C39 C38 1_555 1_555
C40 C39 1_555 1_555
H23 C40 1_555 1_555
C41 C36 1_555 1_555
H24 C41 1_555 1_555
C42 C39 1_555 1_555
C43 O5 1_555 1_555
C44 C43 1_555 1_555
C45 C44 1_555 1_555
H25 C45 1_555 1_555
C46 C45 1_555 1_555
H26 C46 1_555 1_555
C47 S4 1_555 1_555
C48 C47 1_555 1_555
H27 C48 1_555 1_555
C49 C44 1_555 1_555
H28 C49 1_555 1_555
C50 S4 1_555 1_555
C51 C50 1_555 1_555
H29 C51 1_555 1_555
C52 C51 1_555 1_555
H30 C52 1_555 1_555
C53 C52 1_555 1_555
C54 C53 1_555 1_555
H31 C54 1_555 1_555
C55 C50 1_555 1_555
H32 C55 1_555 1_555
C56 C53 1_555 1_555
C57 C58 1_555 1_555
C59 N1 1_555 1_555
C60 N1 1_555 1_555
N2 C61 1_555 1_555
O26 Mn4 1_555 1_555
C61 O26 1_555 1_555
C62 C61 1_555 1_555
C63 N2 1_555 1_555
C64 N2 1_555 1_555
Mn1A O2 1_555 1_555
Mn1A_2 O4 1_555 1_555
Mn2A O9 1_555 1_555
Mn2A_2 O8 1_555 1_555
Mn3A O14 1_555 1_555
Mn3A_2 O12 1_555 1_555
Mn4_2 O15 1_555 1_555
Mn4A O16 1_555 1_555
O2A Mn1 1_555 1_555
O4A Mn1 1_555 1_555
O8A Mn2 1_555 1_555
O9A Mn2 1_555 1_555
O12A Mn3 1_555 1_555
O14A Mn3 1_555 1_555
O15_2 Mn4 1_555 1_555
O16A Mn4 1_555 1_555
O17A Mn4 1_555 1_555
O11 C15 1_555 1_555
O13 C29 1_555 1_555
O17 Mn4A 1_555 1_555
C4 C5 1_555 1_555
C6 C7 1_555 1_555
C12 C13 1_555 1_555
C18 C19 1_555 1_555
C20 C21 1_555 1_555
C26 C27 1_555 1_555
C32 C33 1_555 1_555
C34 C35 1_555 1_555
C40 C41 1_555 1_555
C46 C47 1_555 1_555
C48 C49 1_555 1_555
C54 C55 1_555 1_555

#END
