
#######################################################################
#
#                 Cambridge Crystallographic Data Centre
#                                CCDC 
#
#######################################################################
#
# If this CIF has been generated from an entry in the Cambridge 
# Structural Database, then it will include bibliographic, chemical, 
# crystal, experimental, refinement or atomic coordinate data resulting 
# from the CCDC's data processing and validation procedures.
#
#######################################################################

data_BULBER
_chemical_formula_moiety         '(C36 H40 N1 O31 Tb3)n'
_symmetry_cell_setting           orthorhombic
_symmetry_space_group_name_H-M   'P b m a'
_symmetry_Int_Tables_number      57
_space_group_name_Hall           '-P 2a 2ab'
loop_
_symmetry_equiv_pos_site_id
_symmetry_equiv_pos_as_xyz
1 x,y,z
2 1/2-x,-y,z
3 1/2+x,1/2-y,-z
4 -x,1/2+y,-z
5 -x,-y,-z
6 1/2+x,y,-z
7 1/2-x,1/2+y,z
8 x,1/2-y,z
_cell_length_a                   23.2598(14)
_cell_length_b                   19.1365(8)
_cell_length_c                   11.8928(7)
_cell_angle_alpha                90
_cell_angle_beta                 90
_cell_angle_gamma                90
_cell_volume                     5293.62
loop_
_atom_site_label
_atom_site_type_symbol
_atom_site_fract_x
_atom_site_fract_y
_atom_site_fract_z
Tb1 Tb 0.43956(2) 0.2500 0.58400(4)
Tb2 Tb 0.56628(2) 0.2500 1.07226(4)
Tb3 Tb 0.2500 0.0000 0.73390(4)
O1 O 0.2500 0.0000 1.0782(10)
O2 O 0.5577(3) 0.2500 1.2739(7)
O3 O 0.3182(2) -0.0828(3) 0.7908(4)
O4 O 0.3742(2) -0.1575(3) 0.8787(5)
O5 O 0.4905(2) 0.1630(3) 1.1044(5)
O6 O 0.4838(2) -0.1624(3) 0.3892(5)
O7 O 0.3799(2) 0.1601(3) 0.6331(5)
O8 O 0.3187(2) 0.0849(3) 0.7053(5)
C1 C 0.3639(3) 0.0993(4) 0.6528(6)
O9 O 0.2168(3) 0.0646(4) 0.5720(6)
H1 H 0.1872 0.0901 0.5896
H2 H 0.2068 0.0359 0.5190
C2 C 0.4874(3) -0.1425(4) 0.4907(7)
C3 C 0.4554(3) -0.0801(4) 0.5310(7)
O10 O 0.5245(3) 0.1736(3) 0.9342(5)
O11 O 0.2822(2) 0.0401(4) 0.9227(5)
O12 O 0.4472(4) 0.2500 0.7810(7)
C4 C 0.3995(3) 0.0382(4) 0.6112(7)
C5 C 0.4553(3) 0.0652(4) 0.8503(6)
H3 H 0.4739 0.0941 0.7990
O13 O 0.6353(4) 0.2500 0.9231(7)
O14 O 0.3676(4) 0.2500 0.4395(8)
C6 C 0.4524(3) -0.0666(4) 0.6464(6)
H4 H 0.4695 -0.0976 0.6964
C7 C 0.3984(3) -0.0366(4) 0.8896(6)
C8 C 0.4247(3) -0.0084(4) 0.6875(7)
C9 C 0.4584(3) 0.0803(4) 0.9647(6)
C10 C 0.4029(3) -0.0228(4) 1.0042(7)
H5 H 0.3862 -0.0531 1.0559
C11 C 0.4249(3) 0.0073(4) 0.8118(7)
N1 N 0.2500 0.0000 0.9772(10)
C12 C 0.3616(3) -0.0971(4) 0.8503(6)
C13 C 0.4319(3) 0.0355(5) 1.0416(7)
H6 H 0.4338 0.0450 1.1181
O15 O 0.5199(3) -0.1758(4) 0.5570(5)
C14 C 0.4926(3) 0.1420(4) 1.0032(7)
C15 C 0.4030(3) 0.0262(4) 0.4963(7)
H7 H 0.3870 0.0579 0.4460
C16 C 0.4306(3) -0.0338(5) 0.4564(7)
H8 H 0.4322 -0.0425 0.3795
O11A O 0.2178(2) -0.0401(4) 0.9227(5)
O3A O 0.1818(2) 0.0828(3) 0.7908(4)
O4A O 0.1258(2) 0.1575(3) 0.8787(5)
O5A O 0.0095(2) -0.1630(3) 1.1044(5)
O6A O 0.0162(2) 0.1624(3) 0.3892(5)
O7A O 0.1201(2) -0.1601(3) 0.6331(5)
O8A O 0.1813(2) -0.0849(3) 0.7053(5)
C1A C 0.1361(3) -0.0993(4) 0.6528(6)
O9A O 0.2832(3) -0.0646(4) 0.5720(6)
H1A H 0.3128 -0.0901 0.5896
H2A H 0.2932 -0.0359 0.5190
C2A C 0.0126(3) 0.1425(4) 0.4907(7)
C3A C 0.0446(3) 0.0801(4) 0.5310(7)
O10A O -0.0245(3) -0.1736(3) 0.9342(5)
C4A C 0.1005(3) -0.0382(4) 0.6112(7)
C5A C 0.0447(3) -0.0652(4) 0.8503(6)
H3A H 0.0261 -0.0941 0.7990
C6A C 0.0476(3) 0.0666(4) 0.6464(6)
H4A H 0.0305 0.0976 0.6964
C7A C 0.1016(3) 0.0366(4) 0.8896(6)
C8A C 0.0753(3) 0.0084(4) 0.6875(7)
C9A C 0.0416(3) -0.0803(4) 0.9647(6)
C10A C 0.0971(3) 0.0228(4) 1.0042(7)
H5A H 0.1138 0.0531 1.0559
C11A C 0.0751(3) -0.0073(4) 0.8118(7)
C12A C 0.1384(3) 0.0971(4) 0.8503(6)
C13A C 0.0681(3) -0.0355(5) 1.0416(7)
H6A H 0.0662 -0.0450 1.1181
O15A O -0.0199(3) 0.1758(4) 0.5570(5)
C14A C 0.0074(3) -0.1420(4) 1.0032(7)
C15A C 0.0970(3) -0.0262(4) 0.4963(7)
H7A H 0.1130 -0.0579 0.4460
C16A C 0.0694(3) 0.0338(5) 0.4564(7)
H8A H 0.0678 0.0425 0.3795
Tb1A Tb 0.06044(2) -0.2500 0.58400(4)
Tb1B Tb -0.06044(2) 0.2500 0.41600(4)
Tb1C Tb 0.56044(2) -0.2500 0.41600(4)
Tb2A Tb -0.06628(2) -0.2500 1.07226(4)
Tb2B Tb 0.06628(2) 0.2500 0.92774(4)
Tb2C Tb 0.43372(2) -0.2500 0.92774(4)
O4C O 0.6258(2) 0.3425(3) 1.1213(5)
O4D O 0.6258(2) 0.1575(3) 1.1213(5)
O5G O 0.4905(2) 0.3370(3) 1.1044(5)
O6C O 0.5162(2) 0.3376(3) 0.6108(5)
O6D O 0.5162(2) 0.1624(3) 0.6108(5)
O7G O 0.3799(2) 0.3399(3) 0.6331(5)
O10G O 0.5245(3) 0.3264(3) 0.9342(5)
O15C O 0.4801(3) 0.3242(4) 0.4430(5)
O15D O 0.4801(3) 0.1758(4) 0.4430(5)
O16 O 0.7487(4) 0.2500 0.9630(13)
O17 O 0.8518(6) 0.2500 1.0826(12)
C17 C 0.8306(5) 0.1915(7) 1.0392(16)
H9 H 0.8537 0.1523 1.0290
C18 C 0.7702(6) 0.1906(8) 1.0080(18)
H10 H 0.7474 0.1512 1.0186
C17G C 0.8306(5) 0.3085(7) 1.0392(16)
H9G H 0.8537 0.3477 1.0290
C18G C 0.7702(6) 0.3094(8) 1.0080(18)
H10G H 0.7474 0.3488 1.0186
O18 O 0.7019(4) 0.0649(6) 0.6552(7)
H11 H 0.7064 0.0380 0.7114
H12 H 0.7256 0.0986 0.6595
O19 O 0.6171(4) 0.1495(6) 0.7522(8)
H13 H 0.6435 0.1229 0.7276
H14 H 0.5895 0.1506 0.7052
O20 O 0.4030(5) 0.1563(7) 1.2583(9)
H15 H 0.4235 0.1632 1.2001
H16 H 0.3775 0.1880 1.2629
O21 O 0.3132(6) 0.0687(9) 1.2445(12)
H17 H 0.2921 0.0865 1.1936
H18 H 0.3060 0.0882 1.3071
loop_
_geom_bond_atom_site_label_1
_geom_bond_atom_site_label_2
_geom_bond_site_symmetry_1
_geom_bond_site_symmetry_2
Tb1 O7 1_555 1_555
Tb2 O2 1_555 1_555
Tb3 O3 1_555 1_555
O1 N1 1_555 1_555
O3 C12 1_555 1_555
O4 C12 1_555 1_555
O5 Tb2 1_555 1_555
O6 C2 1_555 1_555
O7 C1 1_555 1_555
O8 Tb3 1_555 1_555
C1 O8 1_555 1_555
O9 Tb3 1_555 1_555
H1 O9 1_555 1_555
H2 O9 1_555 1_555
C2 C3 1_555 1_555
C3 C6 1_555 1_555
O10 Tb2 1_555 1_555
O11 Tb3 1_555 1_555
O12 Tb1 1_555 1_555
C4 C1 1_555 1_555
C5 H3 1_555 1_555
O13 Tb2 1_555 1_555
O14 Tb1 1_555 1_555
C6 H4 1_555 1_555
C7 C10 1_555 1_555
C8 C4 1_555 1_555
C9 C5 1_555 1_555
C10 H5 1_555 1_555
C11 C5 1_555 1_555
N1 O11 1_555 1_555
C12 C7 1_555 1_555
C13 C9 1_555 1_555
H6 C13 1_555 1_555
O15 C2 1_555 1_555
C14 O5 1_555 1_555
C15 C4 1_555 1_555
H7 C15 1_555 1_555
C16 C3 1_555 1_555
H8 C16 1_555 1_555
O16 C18 1_555 1_555
O17 C17 1_555 1_555
C17 H9 1_555 1_555
C18 C17 1_555 1_555
H10 C18 1_555 1_555
O18 H11 1_555 1_555
H12 O18 1_555 1_555
O19 H13 1_555 1_555
H14 O19 1_555 1_555
O20 H15 1_555 1_555
H16 O20 1_555 1_555
O21 H17 1_555 1_555
H18 O21 1_555 1_555
O11A Tb3 1_555 1_555
O3A Tb3 1_555 1_555
O4A C12A 1_555 1_555
O5A C14A 1_555 1_555
O6A C2A 1_555 1_555
O7A C1A 1_555 1_555
O8A Tb3 1_555 1_555
C1A O8A 1_555 1_555
O9A Tb3 1_555 1_555
H1A O9A 1_555 1_555
H2A O9A 1_555 1_555
C2A C3A 1_555 1_555
C3A C6A 1_555 1_555
O10A C14A 1_555 1_555
C4A C1A 1_555 1_555
C5A H3A 1_555 1_555
C6A H4A 1_555 1_555
C7A C10A 1_555 1_555
C8A C4A 1_555 1_555
C9A C5A 1_555 1_555
C10A H5A 1_555 1_555
C11A C5A 1_555 1_555
C12A O3A 1_555 1_555
C13A C9A 1_555 1_555
H6A C13A 1_555 1_555
O15A C2A 1_555 1_555
C14A C9A 1_555 1_555
C15A C4A 1_555 1_555
H7A C15A 1_555 1_555
C16A C3A 1_555 1_555
H8A C16A 1_555 1_555
Tb1A O7A 1_555 1_555
Tb1B O6A 1_555 1_555
Tb1C O6 1_555 1_555
Tb2A O5A 1_555 1_555
Tb2B O4A 1_555 1_555
Tb2C O4 1_555 1_555
O4C Tb2 1_555 1_555
O4D Tb2 1_555 1_555
O5G Tb2 1_555 1_555
O6C Tb1 1_555 1_555
O6D Tb1 1_555 1_555
O7G Tb1 1_555 1_555
O10G Tb2 1_555 1_555
O15C Tb1 1_555 1_555
O15D Tb1 1_555 1_555
C17G O17 1_555 1_555
H9G C17G 1_555 1_555
C18G O16 1_555 1_555
H10G C18G 1_555 1_555
O10 C14 1_555 1_555
C6 C8 1_555 1_555
C7 C11 1_555 1_555
C8 C11 1_555 1_555
C9 C14 1_555 1_555
C10 C13 1_555 1_555
N1 O11A 1_555 1_555
O15 Tb1C 1_555 1_555
C15 C16 1_555 1_555
O10A Tb2A 1_555 1_555
C6A C8A 1_555 1_555
C7A C11A 1_555 1_555
C7A C12A 1_555 1_555
C8A C11A 1_555 1_555
C10A C13A 1_555 1_555
O15A Tb1B 1_555 1_555
C15A C16A 1_555 1_555
C17G C18G 1_555 1_555

#END
