
#######################################################################
#
#                 Cambridge Crystallographic Data Centre
#                                CCDC 
#
#######################################################################
#
# If this CIF has been generated from an entry in the Cambridge 
# Structural Database, then it will include bibliographic, chemical, 
# crystal, experimental, refinement or atomic coordinate data resulting 
# from the CCDC's data processing and validation procedures.
#
#######################################################################

data_TEXTOH
_chemical_formula_moiety         '(C78 H82 Eu2 N2 O24)n'
_symmetry_cell_setting           triclinic
_symmetry_space_group_name_H-M   'P -1'
_symmetry_Int_Tables_number      2
_space_group_name_Hall           '-P 1'
loop_
_symmetry_equiv_pos_site_id
_symmetry_equiv_pos_as_xyz
1 x,y,z
2 -x,-y,-z
_cell_length_a                   9.3824(4)
_cell_length_b                   13.6113(6)
_cell_length_c                   18.2701(7)
_cell_angle_alpha                74.7319(16)
_cell_angle_beta                 86.3824(17)
_cell_angle_gamma                88.5107(19)
_cell_volume                     2246.27
loop_
_atom_site_label
_atom_site_type_symbol
_atom_site_fract_x
_atom_site_fract_y
_atom_site_fract_z
Eu1 Eu -1.22305(3) 0.96799(2) 0.002878(15)
O1 O -1.1176(4) 0.8713(3) -0.0821(2)
O2 O -0.9157(4) 0.9398(3) -0.0635(2)
O3 O -0.4138(6) 0.7819(5) -0.3997(3)
O4 O -1.0872(6) 0.8252(4) -0.5322(3)
O5 O -0.3897(4) 0.9394(3) -0.8888(2)
O6 O -0.5882(4) 1.0258(3) -0.9219(2)
O7 O -0.8669(4) 0.9034(3) 0.1055(2)
O8 O -1.0834(4) 0.8513(3) 0.0888(2)
O9 O -1.2490(6) 0.4316(4) 0.3784(3)
O10 O -1.3400(5) 0.7927(3) 0.0315(3)
O11 O -1.3521(5) 1.1306(3) -0.0020(3)
H1 H -1.3366 1.1905 -0.0298
C1 C -0.9904(6) 0.8983(4) -0.1017(3)
C2 C -0.9282(6) 0.8836(4) -0.1760(3)
C3 C -0.8076(6) 0.9370(5) -0.2108(3)
H2 H -0.7599 0.9782 -0.1856
C4 C -0.7562(6) 0.9307(5) -0.2820(3)
H3 H -0.6742 0.9684 -0.3055
C5 C -0.8239(6) 0.8689(5) -0.3202(3)
C6 C -0.9429(6) 0.8138(5) -0.2831(3)
H4 H -0.9885 0.7697 -0.3067
C7 C -0.9952(6) 0.8223(5) -0.2126(3)
H5 H -1.0781 0.7858 -0.1891
C8 C -0.7785(6) 0.8698(5) -0.4003(3)
C9 C -0.6335(6) 0.8668(5) -0.4272(3)
C10 C -0.6044(7) 0.8781(5) -0.5040(3)
H6 H -0.5073 0.8784 -0.5222
C11 C -0.7107(6) 0.8893(4) -0.5567(3)
C12 C -0.8537(6) 0.8853(4) -0.5294(3)
C13 C -0.8833(6) 0.8772(4) -0.4511(3)
H7 H -0.9803 0.8769 -0.4327
C14 C -0.6647(6) 0.9058(5) -0.6383(3)
C15 C -0.5466(6) 0.8533(5) -0.6613(3)
H8 H -0.4997 0.8024 -0.6245
C16 C -0.4980(6) 0.8746(5) -0.7361(3)
H9 H -0.4167 0.8390 -0.7501
C17 C -0.5654(6) 0.9470(4) -0.7916(3)
C18 C -0.6845(6) 0.9982(5) -0.7704(3)
H10 H -0.7328 1.0473 -0.8079
C19 C -0.7331(6) 0.9778(5) -0.6945(3)
H11 H -0.8144 1.0135 -0.6807
C20 C -0.5102(6) 0.9720(5) -0.8739(3)
C21 C -0.9771(6) 0.8838(5) -0.5777(3)
H12 H -1.0118 0.9541 -0.5995
H13 H -0.9462 0.8539 -0.6200
C22 C -1.2129(10) 0.8287(8) -0.5715(5)
H14 H -1.2812 0.7790 -0.5408
H15 H -1.1896 0.8124 -0.6200
H16 H -1.2553 0.8972 -0.5810
C23 C -0.5098(7) 0.8475(6) -0.3760(3)
H17 H -0.4625 0.9125 -0.3784
H18 H -0.5448 0.8170 -0.3228
C24 C -0.2834(10) 0.7727(8) -0.3632(5)
H19 H -0.2175 0.7283 -0.3838
H20 H -0.3016 0.7433 -0.3085
H21 H -0.2410 0.8401 -0.3721
C25 C -0.9768(6) 0.8496(4) 0.1268(3)
C26 C -0.9802(7) 0.7748(4) 0.2043(3)
C27 C -1.1050(7) 0.7228(5) 0.2337(3)
H22 H -1.1874 0.7347 0.2048
C28 C -1.1109(7) 0.6538(5) 0.3046(4)
H23 H -1.1973 0.6190 0.3242
C29 C -0.9897(7) 0.6352(5) 0.3473(3)
C30 C -0.8663(7) 0.6878(5) 0.3183(3)
H24 H -0.7837 0.6760 0.3471
C31 C -0.8611(7) 0.7578(5) 0.2475(3)
H25 H -0.7757 0.7942 0.2286
C32 C -0.9463(8) 0.5970(5) 0.4849(4)
H26 H -0.9102 0.6641 0.4747
C33 C -0.9953(8) 0.5633(5) 0.4253(3)
C34 C -1.0510(9) 0.4648(5) 0.4414(4)
C35 C -1.1011(9) 0.4191(6) 0.3799(4)
H27 H -1.0550 0.4541 0.3299
H28 H -1.0753 0.3459 0.3912
C36 C -1.3085(10) 0.4039(8) 0.3161(5)
H29 H -1.4076 0.4284 0.3116
H30 H -1.3062 0.3297 0.3254
H31 H -1.2524 0.4348 0.2690
O7A O -1.1331(4) 0.0966(3) 0.8945(2)
O8A O -0.9166(4) 0.1487(3) 0.9112(2)
O9A O -0.7510(6) 0.5684(4) 0.6216(3)
C25A C -1.0232(6) 0.1504(4) 0.8732(3)
C26A C -1.0198(7) 0.2252(4) 0.7957(3)
C27A C -0.8950(7) 0.2772(5) 0.7663(3)
H22A H -0.8126 0.2653 0.7952
C28A C -0.8891(7) 0.3462(5) 0.6954(4)
H23A H -0.8027 0.3810 0.6758
C29A C -1.0103(7) 0.3648(5) 0.6527(3)
C30A C -1.1337(7) 0.3122(5) 0.6817(3)
H24A H -1.2163 0.3240 0.6529
C31A C -1.1389(7) 0.2422(5) 0.7525(3)
H25A H -1.2243 0.2058 0.7714
C32A C -1.0537(8) 0.4030(5) 0.5151(4)
H26A H -1.0898 0.3359 0.5253
C33A C -1.0047(8) 0.4367(5) 0.5747(3)
C34A C -0.9490(9) 0.5352(5) 0.5586(4)
C35A C -0.8989(9) 0.5809(6) 0.6201(4)
H27A H -0.9450 0.5459 0.6701
H28A H -0.9247 0.6541 0.6088
C36A C -0.6915(10) 0.5961(8) 0.6839(5)
H29A H -0.5924 0.5716 0.6884
H30A H -0.6938 0.6703 0.6746
H31A H -0.7476 0.5652 0.7310
Eu1A Eu -0.77695(3) 0.03201(2) 0.997122(15)
O1A O -0.8824(4) 0.1287(3) 1.0821(2)
O2A O -1.0843(4) 0.0602(3) 1.0635(2)
O3A O -1.5862(6) 0.2181(5) 1.3997(3)
O4A O -0.9128(6) 0.1748(4) 1.5322(3)
O5A O -1.6103(4) 0.0606(3) 1.8888(2)
O6A O -1.4118(4) -0.0258(3) 1.9219(2)
O10A O -0.6600(5) 0.2073(3) 0.9685(3)
O11A O -0.6479(5) -0.1306(3) 1.0020(3)
H1A H -0.6634 -0.1905 1.0298
C1A C -1.0096(6) 0.1017(4) 1.1017(3)
C2A C -1.0718(6) 0.1164(4) 1.1760(3)
C3A C -1.1924(6) 0.0630(5) 1.2108(3)
H2A H -1.2401 0.0218 1.1856
C4A C -1.2438(6) 0.0693(5) 1.2820(3)
H3A H -1.3258 0.0316 1.3055
C5A C -1.1761(6) 0.1311(5) 1.3202(3)
C6A C -1.0571(6) 0.1862(5) 1.2831(3)
H4A H -1.0115 0.2303 1.3067
C7A C -1.0048(6) 0.1777(5) 1.2126(3)
H5A H -0.9219 0.2142 1.1891
C8A C -1.2215(6) 0.1302(5) 1.4003(3)
C9A C -1.3665(6) 0.1332(5) 1.4272(3)
C10A C -1.3956(7) 0.1219(5) 1.5040(3)
H6A H -1.4927 0.1216 1.5222
C11A C -1.2893(6) 0.1107(4) 1.5567(3)
C12A C -1.1463(6) 0.1147(4) 1.5294(3)
C13A C -1.1167(6) 0.1228(4) 1.4511(3)
H7A H -1.0197 0.1231 1.4327
C14A C -1.3353(6) 0.0942(5) 1.6383(3)
C15A C -1.4534(6) 0.1467(5) 1.6613(3)
H8A H -1.5003 0.1976 1.6245
C16A C -1.5020(6) 0.1254(5) 1.7361(3)
H9A H -1.5833 0.1610 1.7501
C17A C -1.4346(6) 0.0530(4) 1.7916(3)
C18A C -1.3155(6) 0.0018(5) 1.7704(3)
H10A H -1.2672 -0.0473 1.8079
C19A C -1.2669(6) 0.0222(5) 1.6945(3)
H11A H -1.1856 -0.0135 1.6807
C20A C -1.4898(6) 0.0280(5) 1.8739(3)
C21A C -1.0229(6) 0.1162(5) 1.5777(3)
H12A H -0.9882 0.0459 1.5995
H13A H -1.0538 0.1461 1.6200
C22A C -0.7871(10) 0.1713(8) 1.5715(5)
H14A H -0.7188 0.2210 1.5408
H15A H -0.8104 0.1876 1.6200
H16A H -0.7447 0.1028 1.5810
C23A C -1.4902(7) 0.1525(6) 1.3760(3)
H17A H -1.5375 0.0875 1.3784
H18A H -1.4552 0.1830 1.3228
C24A C -1.7166(10) 0.2273(8) 1.3632(5)
H19A H -1.7825 0.2717 1.3838
H20A H -1.6984 0.2567 1.3085
H21A H -1.7590 0.1599 1.3721
Eu1_2 Eu -1.22305(3) -0.03201(2) 1.002878(15)
Eu1_3 Eu -1.22305(3) -0.03201(2) 2.002878(15)
Eu1_4 Eu -0.22305(3) 0.96799(2) -0.997122(15)
Eu1A_2 Eu -1.77695(3) 0.03201(2) 1.997122(15)
Eu1A_3 Eu -0.77695(3) 1.03201(2) -1.002878(15)
Eu1A_4 Eu -0.77695(3) 1.03201(2) -0.002878(15)
O2_2 O -0.9157(4) -0.0602(3) 0.9365(2)
O2A_2 O -1.0843(4) 1.0602(3) 0.0635(2)
O5_2 O -1.3897(4) 0.9394(3) 0.1112(2)
O5A_2 O -0.6103(4) 0.0606(3) 0.8888(2)
O6_2 O -0.5882(4) 0.0258(3) 1.0781(2)
O6A_2 O -1.4118(4) 0.9742(3) -0.0781(2)
O7_2 O -0.8669(4) -0.0966(3) 1.1055(2)
O7A_2 O -1.1331(4) 1.0966(3) -0.1055(2)
O12 O -1.3006(9) 1.3302(6) -0.0946(5)
C37 C -0.9708(16) 1.4729(11) -0.1291(8)
H32 H -0.8912 1.4719 -0.0984
H33 H -0.9380 1.4577 -0.1758
H34 H -1.0151 1.5391 -0.1401
N1 N -1.0836(18) 1.3949(12) -0.0877(9)
C38 C -1.1963(19) 1.3890(14) -0.1234(11)
H35 H -1.2019 1.4307 -0.1739
C39 C -1.041(3) 1.3323(18) -0.0156(13)
H36 H -1.0313 1.2613 -0.0180
H37 H -1.1132 1.3372 0.0244
H38 H -0.9490 1.3559 -0.0043
O13 O -0.301(2) 0.6092(16) -0.1608(12)
N2 N -0.5251(19) 0.6662(13) -0.1282(9)
C40 C -0.483(2) 0.7570(13) -0.1397(10)
H39 H -0.3796 0.7570 -0.1349
H40 H -0.5315 0.7882 -0.1023
H41 H -0.5054 0.7959 -0.1910
C41 C -0.655(3) 0.646(2) -0.1290(18)
H42 H -0.6694 0.5721 -0.1194
H43 H -0.6803 0.6798 -0.1809
H44 H -0.7166 0.6716 -0.0927
C42 C -0.436(3) 0.598(3) -0.1523(18)
H45 H -0.4765 0.5403 -0.1631
loop_
_geom_bond_atom_site_label_1
_geom_bond_atom_site_label_2
_geom_bond_site_symmetry_1
_geom_bond_site_symmetry_2
Eu1 O1 1_555 1_555
O1 C1 1_555 1_555
O2 C1 1_555 1_555
O3 C23 1_555 1_555
O4 C21 1_555 1_555
O5 C20 1_555 1_555
O6 C20 1_555 1_555
O7 C25 1_555 1_555
O8 Eu1 1_555 1_555
O9 C35 1_555 1_555
O10 Eu1 1_555 1_555
O11 Eu1 1_555 1_555
H1 O11 1_555 1_555
C1 C2 1_555 1_555
C2 C3 1_555 1_555
C3 H2 1_555 1_555
C4 C3 1_555 1_555
H3 C4 1_555 1_555
C5 C4 1_555 1_555
C6 C5 1_555 1_555
H4 C6 1_555 1_555
C7 C2 1_555 1_555
H5 C7 1_555 1_555
C8 C5 1_555 1_555
C9 C8 1_555 1_555
C10 C9 1_555 1_555
H6 C10 1_555 1_555
C11 C10 1_555 1_555
C12 C11 1_555 1_555
C13 C8 1_555 1_555
H7 C13 1_555 1_555
C14 C11 1_555 1_555
C15 C14 1_555 1_555
H8 C15 1_555 1_555
C16 C15 1_555 1_555
H9 C16 1_555 1_555
C17 C16 1_555 1_555
C18 C17 1_555 1_555
H10 C18 1_555 1_555
C19 C14 1_555 1_555
H11 C19 1_555 1_555
C20 C17 1_555 1_555
C21 C12 1_555 1_555
H12 C21 1_555 1_555
H13 C21 1_555 1_555
C22 O4 1_555 1_555
H14 C22 1_555 1_555
H15 C22 1_555 1_555
H16 C22 1_555 1_555
C23 C9 1_555 1_555
H17 C23 1_555 1_555
H18 C23 1_555 1_555
C24 O3 1_555 1_555
H19 C24 1_555 1_555
H20 C24 1_555 1_555
H21 C24 1_555 1_555
C25 O8 1_555 1_555
C26 C25 1_555 1_555
C27 C26 1_555 1_555
H22 C27 1_555 1_555
C28 C27 1_555 1_555
H23 C28 1_555 1_555
C29 C28 1_555 1_555
C30 C29 1_555 1_555
H24 C30 1_555 1_555
C31 C26 1_555 1_555
H25 C31 1_555 1_555
C32 H26 1_555 1_555
C33 C29 1_555 1_555
C34 C33 1_555 1_555
C35 C34 1_555 1_555
H27 C35 1_555 1_555
H28 C35 1_555 1_555
C36 O9 1_555 1_555
H29 C36 1_555 1_555
H30 C36 1_555 1_555
H31 C36 1_555 1_555
O12 C38 1_555 1_555
C37 H32 1_555 1_555
H33 C37 1_555 1_555
H34 C37 1_555 1_555
N1 C37 1_555 1_555
C38 N1 1_555 1_555
H35 C38 1_555 1_555
C39 N1 1_555 1_555
H36 C39 1_555 1_555
H37 C39 1_555 1_555
H38 C39 1_555 1_555
O13 C42 1_555 1_555
N2 C40 1_555 1_555
C40 H39 1_555 1_555
H40 C40 1_555 1_555
H41 C40 1_555 1_555
C41 N2 1_555 1_555
H42 C41 1_555 1_555
H43 C41 1_555 1_555
H44 C41 1_555 1_555
C42 N2 1_555 1_555
H45 C42 1_555 1_555
O7A C25A 1_555 1_555
O8A C25A 1_555 1_555
O9A C35A 1_555 1_555
C25A C26A 1_555 1_555
C26A C27A 1_555 1_555
C27A H22A 1_555 1_555
C28A C27A 1_555 1_555
H23A C28A 1_555 1_555
C29A C28A 1_555 1_555
C30A C29A 1_555 1_555
H24A C30A 1_555 1_555
C31A C26A 1_555 1_555
H25A C31A 1_555 1_555
C32A C34 1_555 1_555
H26A C32A 1_555 1_555
C33A C29A 1_555 1_555
C34A C32 1_555 1_555
C35A C34A 1_555 1_555
H27A C35A 1_555 1_555
H28A C35A 1_555 1_555
C36A O9A 1_555 1_555
H29A C36A 1_555 1_555
H30A C36A 1_555 1_555
H31A C36A 1_555 1_555
Eu1A O8A 1_555 1_555
O1A Eu1A 1_555 1_555
O2A C1A 1_555 1_555
O3A C23A 1_555 1_555
O4A C21A 1_555 1_555
O5A C20A 1_555 1_555
O6A C20A 1_555 1_555
O10A Eu1A 1_555 1_555
O11A Eu1A 1_555 1_555
H1A O11A 1_555 1_555
C1A O1A 1_555 1_555
C2A C1A 1_555 1_555
C3A C2A 1_555 1_555
H2A C3A 1_555 1_555
C4A C3A 1_555 1_555
H3A C4A 1_555 1_555
C5A C4A 1_555 1_555
C6A C5A 1_555 1_555
H4A C6A 1_555 1_555
C7A C2A 1_555 1_555
H5A C7A 1_555 1_555
C8A C5A 1_555 1_555
C9A C8A 1_555 1_555
C10A C9A 1_555 1_555
H6A C10A 1_555 1_555
C11A C10A 1_555 1_555
C12A C11A 1_555 1_555
C13A C8A 1_555 1_555
H7A C13A 1_555 1_555
C14A C11A 1_555 1_555
C15A C14A 1_555 1_555
H8A C15A 1_555 1_555
C16A C15A 1_555 1_555
H9A C16A 1_555 1_555
C17A C16A 1_555 1_555
C18A C17A 1_555 1_555
H10A C18A 1_555 1_555
C19A C14A 1_555 1_555
H11A C19A 1_555 1_555
C20A C17A 1_555 1_555
C21A C12A 1_555 1_555
H12A C21A 1_555 1_555
H13A C21A 1_555 1_555
C22A O4A 1_555 1_555
H14A C22A 1_555 1_555
H15A C22A 1_555 1_555
H16A C22A 1_555 1_555
C23A C9A 1_555 1_555
H17A C23A 1_555 1_555
H18A C23A 1_555 1_555
C24A O3A 1_555 1_555
H19A C24A 1_555 1_555
H20A C24A 1_555 1_555
H21A C24A 1_555 1_555
Eu1_2 O7A 1_555 1_555
Eu1_3 O6A 1_555 1_555
Eu1_4 O5 1_555 1_555
Eu1A_2 O5A 1_555 1_555
Eu1A_3 O6 1_555 1_555
Eu1A_4 O2 1_555 1_555
O2_2 Eu1A 1_555 1_555
O2A_2 Eu1 1_555 1_555
O5_2 Eu1 1_555 1_555
O5A_2 Eu1A 1_555 1_555
O6_2 Eu1A 1_555 1_555
O6A_2 Eu1 1_555 1_555
O7_2 Eu1A 1_555 1_555
O7A_2 Eu1 1_555 1_555
O7 Eu1A_4 1_555 1_555
C6 C7 1_555 1_555
C12 C13 1_555 1_555
C18 C19 1_555 1_555
C30 C31 1_555 1_555
C32 C33 1_555 1_555
C30A C31A 1_555 1_555
C32A C33A 1_555 1_555
C33A C34A 1_555 1_555
O2A Eu1_2 1_555 1_555
C6A C7A 1_555 1_555
C12A C13A 1_555 1_555
C18A C19A 1_555 1_555

#END
