
#######################################################################
#
#                 Cambridge Crystallographic Data Centre
#                                CCDC 
#
#######################################################################
#
# If this CIF has been generated from an entry in the Cambridge 
# Structural Database, then it will include bibliographic, chemical, 
# crystal, experimental, refinement or atomic coordinate data resulting 
# from the CCDC's data processing and validation procedures.
#
#######################################################################

data_HAMRIY
_chemical_formula_moiety         '(C24 H32 Cu3 Ho2 N6 O25)n'
_symmetry_cell_setting           trigonal
_symmetry_space_group_name_H-M   'P -3 c 1'
_symmetry_Int_Tables_number      165
_space_group_name_Hall           '-P 3 2"c'
loop_
_symmetry_equiv_pos_site_id
_symmetry_equiv_pos_as_xyz
1 x,y,z
2 -y,x-y,z
3 -x+y,-x,z
4 y,x,1/2-z
5 x-y,-y,1/2-z
6 -x,-x+y,1/2-z
7 -x,-y,-z
8 y,-x+y,-z
9 x-y,x,-z
10 -y,-x,1/2+z
11 -x+y,y,1/2+z
12 x,x-y,1/2+z
_cell_length_a                   13.3238(4)
_cell_length_b                   13.3238(4)
_cell_length_c                   14.3368(5)
_cell_angle_alpha                90
_cell_angle_beta                 90
_cell_angle_gamma                120
_cell_volume                     2204.14
loop_
_atom_site_label
_atom_site_type_symbol
_atom_site_fract_x
_atom_site_fract_y
_atom_site_fract_z
Ho1 Ho 0.3333 0.6667 -0.16734(3)
Cu1 Cu 0.5000 0.5000 0.0000
O1 O 0.3606(4) 0.5501(4) -0.0594(3)
O2 O 0.1932(4) 0.4393(5) -0.1282(3)
O3 O 0.4344(4) 0.6196(4) 0.2294(3)
O4 O 0.5242(4) 0.5980(4) 0.1089(3)
N1 N 0.3476(4) 0.3905(4) 0.0588(3)
H1 H 0.3500 0.3270 0.0790
C1 C 0.2684(5) 0.4534(6) -0.0697(4)
C2 C 0.2535(5) 0.3531(5) -0.0112(5)
H2 H 0.1794 0.3189 0.0206
H3 H 0.2535 0.2945 -0.0513
C3 C 0.3318(6) 0.4487(6) 0.1404(4)
H4 H 0.3138 0.3989 0.1945
H5 H 0.2665 0.4603 0.1291
C4 C 0.4370(5) 0.5632(5) 0.1607(4)
Ho1I Ho 0.3333 0.6667 -0.66734(3)
Ho1I_2 Ho 0.3333 0.6667 0.33266(3)
Cu1A Cu 0.5000 1.0000 0.0000
Cu1B Cu 0.0000 0.5000 0.0000
Cu1C Cu 0.5000 0.5000 -0.5000
Cu1D Cu 0.0000 0.5000 -0.5000
Cu1E Cu 0.5000 1.0000 -0.5000
O1A O 0.4499(4) 0.8105(6) -0.0594(3)
O1B O 0.1895(6) 0.6394(4) -0.0594(3)
O1I O 0.4499(4) 0.6394(4) -0.5594(3)
O1J O 0.1895(6) 0.5501(4) -0.5594(3)
O1K O 0.3606(4) 0.8105(6) -0.5594(3)
O1F O 0.6394(4) 0.4499(4) 0.0594(3)
O1G O 0.5501(4) 1.1895(6) 0.0594(3)
O1H O -0.1895(6) 0.3606(4) 0.0594(3)
O2A O 0.5607(5) 0.7539(6) -0.1282(3)
O2B O 0.2461(6) 0.8068(4) -0.1282(3)
O2I O 0.5607(5) 0.8068(4) -0.6282(3)
O2J O 0.2461(6) 0.4393(5) -0.6282(3)
O2K O 0.1932(4) 0.7539(6) -0.6282(3)
O3A O 0.3804(4) 0.8148(6) 0.2294(3)
O3B O 0.1852(6) 0.5656(4) 0.2294(3)
O3I O 0.3804(4) 0.5656(4) -0.2706(3)
O3J O 0.1852(6) 0.6196(4) -0.2706(3)
O3K O 0.4344(4) 0.8148(6) -0.2706(3)
O3_2 O 0.4344(4) 0.6196(4) -0.7706(3)
O3A_2 O 0.3804(4) 0.8148(6) -0.7706(3)
O3B_2 O 0.1852(6) 0.5656(4) -0.7706(3)
O4A O 0.4020(4) 0.9262(6) 0.1089(3)
O4B O 0.0738(6) 0.4758(4) 0.1089(3)
O4I O 0.4020(4) 0.4758(4) -0.3911(3)
O4J O 0.0738(6) 0.5980(4) -0.3911(3)
O4K O 0.5242(4) 0.9262(6) -0.3911(3)
O4F O 0.4758(4) 0.4020(4) -0.1089(3)
O4G O 0.5980(4) 1.0738(6) -0.1089(3)
O4H O -0.0738(6) 0.5242(4) -0.1089(3)
N1A N 0.6095(4) 0.9571(6) 0.0588(3)
N1B N 0.0429(6) 0.6524(4) 0.0588(3)
N1I N 0.6095(4) 0.6524(4) -0.4412(3)
N1J N 0.0429(6) 0.3905(4) -0.4412(3)
N1K N 0.3476(4) 0.9571(6) -0.4412(3)
N1F N 0.6524(4) 0.6095(4) -0.0588(3)
N1G N 0.3905(4) 1.0429(6) -0.0588(3)
N1H N -0.0429(6) 0.3476(4) -0.0588(3)
H1A H 0.6730 1.0230 0.0790
H1B H -0.0230 0.6500 0.0790
H1I H 0.6730 0.6500 -0.4210
H1J H -0.0230 0.3270 -0.4210
H1K H 0.3500 1.0230 -0.4210
H1F H 0.6500 0.6730 -0.0790
H1G H 0.3270 0.9770 -0.0790
H1H H 0.0230 0.3500 -0.0790
C1A C 0.5466(6) 0.8150(8) -0.0697(4)
C1B C 0.1850(8) 0.7316(5) -0.0697(4)
C1I C 0.5466(6) 0.7316(5) -0.5697(4)
C1J C 0.1850(8) 0.4534(6) -0.5697(4)
C1K C 0.2684(5) 0.8150(8) -0.5697(4)
C2A C 0.6469(5) 0.9004(7) -0.0112(5)
C2B C 0.0996(7) 0.7465(5) -0.0112(5)
C2I C 0.6469(5) 0.7465(5) -0.5112(5)
C2J C 0.0996(7) 0.3531(5) -0.5112(5)
C2K C 0.2535(5) 0.9004(7) -0.5112(5)
H2A H 0.6811 0.8605 0.0206
H2B H 0.1395 0.8206 0.0206
H2I H 0.6811 0.8206 -0.4794
H2J H 0.1395 0.3189 -0.4794
H2K H 0.1794 0.8605 -0.4794
H3A H 0.7055 0.9590 -0.0513
H3B H 0.0410 0.7465 -0.0513
H3I H 0.7055 0.7465 -0.5513
H3J H 0.0410 0.2945 -0.5513
H3K H 0.2535 0.9590 -0.5513
C3A C 0.5513(6) 0.8831(8) 0.1404(4)
C3B C 0.1169(8) 0.6682(6) 0.1404(4)
C3I C 0.5513(6) 0.6682(6) -0.3596(4)
C3J C 0.1169(8) 0.4487(6) -0.3596(4)
C3K C 0.3318(6) 0.8831(8) -0.3596(4)
H4A H 0.6011 0.9149 0.1945
H4B H 0.0851 0.6862 0.1945
H4I H 0.6011 0.6862 -0.3055
H4J H 0.0851 0.3989 -0.3055
H4K H 0.3138 0.9149 -0.3055
H5A H 0.5397 0.8062 0.1291
H5B H 0.1938 0.7335 0.1291
H5I H 0.5397 0.7335 -0.3709
H5J H 0.1938 0.4603 -0.3709
H5K H 0.2665 0.8062 -0.3709
C4A C 0.4368(5) 0.8738(7) 0.1607(4)
C4B C 0.1262(7) 0.5630(5) 0.1607(4)
C4I C 0.4368(5) 0.5630(5) -0.3393(4)
C4J C 0.1262(7) 0.5632(5) -0.3393(4)
C4K C 0.4370(5) 0.8738(7) -0.3393(4)
O5 O 0.2743(13) -0.0000 0.2500
loop_
_geom_bond_atom_site_label_1
_geom_bond_atom_site_label_2
_geom_bond_site_symmetry_1
_geom_bond_site_symmetry_2
Ho1 O1 1_555 1_555
Cu1 O1 1_555 1_555
O1 C1 1_555 1_555
O2 Ho1 1_555 1_555
O3 C4 1_555 1_555
O4 Cu1 1_555 1_555
N1 Cu1 1_555 1_555
H1 N1 1_555 1_555
C1 O2 1_555 1_555
C2 N1 1_555 1_555
H2 C2 1_555 1_555
H3 C2 1_555 1_555
C3 N1 1_555 1_555
H4 C3 1_555 1_555
H5 C3 1_555 1_555
C4 O4 1_555 1_555
Ho1I O1I 1_555 1_555
Ho1I_2 O3 1_555 1_555
Cu1A O1A 1_555 1_555
Cu1B O1B 1_555 1_555
Cu1C O1I 1_555 1_555
Cu1D O1J 1_555 1_555
Cu1E O1K 1_555 1_555
O1A Ho1 1_555 1_555
O1B Ho1 1_555 1_555
O1I C1I 1_555 1_555
O1J Ho1I 1_555 1_555
O1K Ho1I 1_555 1_555
O1F Cu1 1_555 1_555
O1G Cu1A 1_555 1_555
O1H Cu1B 1_555 1_555
O2A Ho1 1_555 1_555
O2B Ho1 1_555 1_555
O2I Ho1I 1_555 1_555
O2J Ho1I 1_555 1_555
O2K Ho1I 1_555 1_555
O3A Ho1I_2 1_555 1_555
O3B Ho1I_2 1_555 1_555
O3I Ho1 1_555 1_555
O3J Ho1 1_555 1_555
O3K Ho1 1_555 1_555
O3_2 Ho1I 1_555 1_555
O3A_2 Ho1I 1_555 1_555
O3B_2 Ho1I 1_555 1_555
O4A Cu1A 1_555 1_555
O4B Cu1B 1_555 1_555
O4I Cu1C 1_555 1_555
O4J Cu1D 1_555 1_555
O4K Cu1E 1_555 1_555
O4F Cu1 1_555 1_555
O4G Cu1A 1_555 1_555
O4H Cu1B 1_555 1_555
N1A Cu1A 1_555 1_555
N1B Cu1B 1_555 1_555
N1I Cu1C 1_555 1_555
N1J Cu1D 1_555 1_555
N1K Cu1E 1_555 1_555
N1F Cu1 1_555 1_555
N1G Cu1A 1_555 1_555
N1H Cu1B 1_555 1_555
H1A N1A 1_555 1_555
H1B N1B 1_555 1_555
H1I N1I 1_555 1_555
H1J N1J 1_555 1_555
H1K N1K 1_555 1_555
H1F N1F 1_555 1_555
H1G N1G 1_555 1_555
H1H N1H 1_555 1_555
C1A O1A 1_555 1_555
C1B O1B 1_555 1_555
C1I O2I 1_555 1_555
C1J O1J 1_555 1_555
C1K O1K 1_555 1_555
C2A N1A 1_555 1_555
C2B N1B 1_555 1_555
C2I N1I 1_555 1_555
C2J N1J 1_555 1_555
C2K N1K 1_555 1_555
H2A C2A 1_555 1_555
H2B C2B 1_555 1_555
H2I C2I 1_555 1_555
H2J C2J 1_555 1_555
H2K C2K 1_555 1_555
H3A C2A 1_555 1_555
H3B C2B 1_555 1_555
H3I C2I 1_555 1_555
H3J C2J 1_555 1_555
H3K C2K 1_555 1_555
C3A N1A 1_555 1_555
C3B N1B 1_555 1_555
C3I N1I 1_555 1_555
C3J N1J 1_555 1_555
C3K N1K 1_555 1_555
H4A C3A 1_555 1_555
H4B C3B 1_555 1_555
H4I C3I 1_555 1_555
H4J C3J 1_555 1_555
H4K C3K 1_555 1_555
H5A C3A 1_555 1_555
H5B C3B 1_555 1_555
H5I C3I 1_555 1_555
H5J C3J 1_555 1_555
H5K C3K 1_555 1_555
C4A O3A 1_555 1_555
C4B O3B 1_555 1_555
C4I O3I 1_555 1_555
C4J O3J 1_555 1_555
C4K O3K 1_555 1_555
C1 C2 1_555 1_555
C3 C4 1_555 1_555
O2A C1A 1_555 1_555
O2B C1B 1_555 1_555
O2J C1J 1_555 1_555
O2K C1K 1_555 1_555
O4A C4A 1_555 1_555
O4B C4B 1_555 1_555
O4I C4I 1_555 1_555
O4J C4J 1_555 1_555
O4K C4K 1_555 1_555
C1A C2A 1_555 1_555
C1B C2B 1_555 1_555
C1I C2I 1_555 1_555
C1J C2J 1_555 1_555
C1K C2K 1_555 1_555
C3A C4A 1_555 1_555
C3B C4B 1_555 1_555
C3I C4I 1_555 1_555
C3J C4J 1_555 1_555
C3K C4K 1_555 1_555

#END
