
#######################################################################
#
#                 Cambridge Crystallographic Data Centre
#                                CCDC 
#
#######################################################################
#
# If this CIF has been generated from an entry in the Cambridge 
# Structural Database, then it will include bibliographic, chemical, 
# crystal, experimental, refinement or atomic coordinate data resulting 
# from the CCDC's data processing and validation procedures.
#
#######################################################################

data_HAMREU
_chemical_formula_moiety         '(C24 H32 Ce2 Cu3 N6 O25)n'
_symmetry_cell_setting           trigonal
_symmetry_space_group_name_H-M   'P -3 c 1'
_symmetry_Int_Tables_number      165
_space_group_name_Hall           '-P 3 2"c'
loop_
_symmetry_equiv_pos_site_id
_symmetry_equiv_pos_as_xyz
1 x,y,z
2 -y,x-y,z
3 -x+y,-x,z
4 x-y,-y,1/2-z
5 -x,-x+y,1/2-z
6 y,x,1/2-z
7 -x,-y,-z
8 y,-x+y,-z
9 x-y,x,-z
10 -x+y,y,1/2+z
11 x,x-y,1/2+z
12 -y,-x,1/2+z
_cell_length_a                   13.4377(15)
_cell_length_b                   13.4377(15)
_cell_length_c                   14.853(4)
_cell_angle_alpha                90
_cell_angle_beta                 90
_cell_angle_gamma                120
_cell_volume                     2322.71
loop_
_atom_site_label
_atom_site_type_symbol
_atom_site_fract_x
_atom_site_fract_y
_atom_site_fract_z
Ce1 Ce 0.3333 0.6667 -0.16922(3)
Cu1 Cu 0.5000 0.5000 0.0000
O1 O 0.3627(5) 0.5473(5) -0.0572(4)
O2 O 0.1973(5) 0.4381(5) -0.1243(3)
O3 O 0.4361(5) 0.6140(6) 0.2246(4)
O4 O 0.5236(5) 0.5974(5) 0.1054(3)
N1 N 0.3490(5) 0.3888(5) 0.0579(4)
H1 H 0.3522 0.3261 0.0771
C1 C 0.2717(6) 0.4515(6) -0.0676(5)
C2 C 0.2562(6) 0.3520(6) -0.0096(5)
H2 H 0.1827 0.3190 0.0210
H3 H 0.2555 0.2931 -0.0477
C3 C 0.3349(7) 0.4482(7) 0.1377(5)
H4 H 0.2704 0.4602 0.1272
H5 H 0.3170 0.3990 0.1900
C4 C 0.4377(6) 0.5596(6) 0.1570(4)
Ce1I Ce 0.3334 0.6667 -0.66922(3)
Ce1I_2 Ce 0.3334 0.6667 0.33078(3)
Cu1A Cu 0.5000 1.0000 0.0000
Cu1B Cu -0.0000 0.5000 0.0000
Cu1C Cu -0.0000 0.5000 -0.5000
Cu1D Cu 0.5000 1.0000 -0.5000
Cu1E Cu 0.5000 0.5000 -0.5000
O1A O 0.4527(5) 0.8154(7) -0.0572(4)
O1B O 0.1846(7) 0.6373(5) -0.0572(4)
O1I O 0.1846(7) 0.5473(5) -0.5572(4)
O1J O 0.3627(5) 0.8154(7) -0.5572(4)
O1K O 0.4527(5) 0.6373(5) -0.5572(4)
O1F O 0.6373(5) 0.4527(5) 0.0572(4)
O1G O 0.5473(5) 1.1846(7) 0.0572(4)
O1H O -0.1846(7) 0.3627(5) 0.0572(4)
O2A O 0.5619(5) 0.7592(7) -0.1243(3)
O2B O 0.2408(7) 0.8027(5) -0.1243(3)
O2I O 0.2408(7) 0.4381(5) -0.6243(3)
O2J O 0.1973(5) 0.7592(7) -0.6243(3)
O2K O 0.5619(5) 0.8027(5) -0.6243(3)
O3A O 0.3860(6) 0.8221(8) 0.2246(4)
O3B O 0.1779(8) 0.5639(5) 0.2246(4)
O3I O 0.1779(8) 0.6140(6) -0.2754(4)
O3J O 0.4361(5) 0.8221(8) -0.2754(4)
O3K O 0.3860(6) 0.5639(5) -0.2754(4)
O3_2 O 0.4361(5) 0.6140(6) -0.7754(4)
O3A_2 O 0.3860(6) 0.8221(8) -0.7754(4)
O3B_2 O 0.1779(8) 0.5639(5) -0.7754(4)
O4A O 0.4026(5) 0.9262(7) 0.1054(3)
O4B O 0.0738(7) 0.4764(5) 0.1054(3)
O4I O 0.0738(7) 0.5974(5) -0.3946(3)
O4J O 0.5236(5) 0.9262(7) -0.3946(3)
O4K O 0.4026(5) 0.4764(5) -0.3946(3)
O4F O 0.4764(5) 0.4026(5) -0.1054(3)
O4G O 0.5974(5) 1.0738(7) -0.1054(3)
O4H O -0.0738(7) 0.5236(5) -0.1054(3)
N1A N 0.6112(5) 0.9602(7) 0.0579(4)
N1B N 0.0398(7) 0.6510(5) 0.0579(4)
N1I N 0.0398(7) 0.3888(5) -0.4421(4)
N1J N 0.3490(5) 0.9602(7) -0.4421(4)
N1K N 0.6112(5) 0.6510(5) -0.4421(4)
N1F N 0.6510(5) 0.6112(5) -0.0579(4)
N1G N 0.3888(5) 1.0398(7) -0.0579(4)
N1H N -0.0398(7) 0.3490(5) -0.0579(4)
H1A H 0.6739 1.0261 0.0771
H1B H -0.0261 0.6478 0.0771
H1I H -0.0261 0.3261 -0.4229
H1J H 0.3522 1.0261 -0.4229
H1K H 0.6739 0.6478 -0.4229
H1F H 0.6478 0.6739 -0.0771
H1G H 0.3261 0.9739 -0.0771
H1H H 0.0261 0.3522 -0.0771
C1A C 0.5485(6) 0.8202(8) -0.0676(5)
C1B C 0.1798(8) 0.7283(6) -0.0676(5)
C1I C 0.1798(8) 0.4515(6) -0.5676(5)
C1J C 0.2717(6) 0.8202(8) -0.5676(5)
C1K C 0.5485(6) 0.7283(6) -0.5676(5)
C2A C 0.6480(6) 0.9042(8) -0.0096(5)
C2B C 0.0958(8) 0.7438(6) -0.0096(5)
C2I C 0.0958(8) 0.3520(6) -0.5096(5)
C2J C 0.2562(6) 0.9042(8) -0.5096(5)
C2K C 0.6480(6) 0.7438(6) -0.5096(5)
H2A H 0.6810 0.8637 0.0210
H2B H 0.1363 0.8173 0.0210
H2I H 0.1363 0.3190 -0.4790
H2J H 0.1827 0.8637 -0.4790
H2K H 0.6810 0.8173 -0.4790
H3A H 0.7069 0.9624 -0.0477
H3B H 0.0376 0.7445 -0.0477
H3I H 0.0376 0.2931 -0.5477
H3J H 0.2555 0.9624 -0.5477
H3K H 0.7069 0.7445 -0.5477
C3A C 0.5518(7) 0.8867(10) 0.1377(5)
C3B C 0.1133(10) 0.6651(7) 0.1377(5)
C3I C 0.1133(10) 0.4482(7) -0.3623(5)
C3J C 0.3349(7) 0.8867(10) -0.3623(5)
C3K C 0.5518(7) 0.6651(7) -0.3623(5)
H4A H 0.5398 0.8102 0.1272
H4B H 0.1898 0.7296 0.1272
H4I H 0.1898 0.4602 -0.3728
H4J H 0.2704 0.8102 -0.3728
H4K H 0.5398 0.7296 -0.3728
H5A H 0.6010 0.9180 0.1900
H5B H 0.0820 0.6830 0.1900
H5I H 0.0820 0.3990 -0.3100
H5J H 0.3170 0.9180 -0.3100
H5K H 0.6010 0.6830 -0.3100
C4A C 0.4404(6) 0.8781(8) 0.1570(4)
C4B C 0.1219(8) 0.5623(6) 0.1570(4)
C4I C 0.1219(8) 0.5596(6) -0.3430(4)
C4J C 0.4377(6) 0.8781(8) -0.3430(4)
C4K C 0.4404(6) 0.5623(6) -0.3430(4)
O5 O 0.7212(18) 0.7212(18) 0.2500
loop_
_geom_bond_atom_site_label_1
_geom_bond_atom_site_label_2
_geom_bond_site_symmetry_1
_geom_bond_site_symmetry_2
Ce1 O1 1_555 1_555
Cu1 O1 1_555 1_555
O1 C1 1_555 1_555
O2 Ce1 1_555 1_555
O3 C4 1_555 1_555
O4 Cu1 1_555 1_555
N1 Cu1 1_555 1_555
H1 N1 1_555 1_555
C1 O2 1_555 1_555
C2 N1 1_555 1_555
H2 C2 1_555 1_555
H3 C2 1_555 1_555
C3 N1 1_555 1_555
H4 C3 1_555 1_555
H5 C3 1_555 1_555
C4 O4 1_555 1_555
Ce1I O1I 1_555 1_555
Ce1I_2 O3 1_555 1_555
Cu1A O1A 1_555 1_555
Cu1B O1B 1_555 1_555
Cu1C O1I 1_555 1_555
Cu1D O1J 1_555 1_555
Cu1E O1K 1_555 1_555
O1A Ce1 1_555 1_555
O1B Ce1 1_555 1_555
O1I C1I 1_555 1_555
O1J Ce1I 1_555 1_555
O1K Ce1I 1_555 1_555
O1F Cu1 1_555 1_555
O1G Cu1A 1_555 1_555
O1H Cu1B 1_555 1_555
O2A Ce1 1_555 1_555
O2B Ce1 1_555 1_555
O2I Ce1I 1_555 1_555
O2J Ce1I 1_555 1_555
O2K Ce1I 1_555 1_555
O3A Ce1I_2 1_555 1_555
O3B Ce1I_2 1_555 1_555
O3I Ce1 1_555 1_555
O3J Ce1 1_555 1_555
O3K Ce1 1_555 1_555
O3_2 Ce1I 1_555 1_555
O3A_2 Ce1I 1_555 1_555
O3B_2 Ce1I 1_555 1_555
O4A Cu1A 1_555 1_555
O4B Cu1B 1_555 1_555
O4I Cu1C 1_555 1_555
O4J Cu1D 1_555 1_555
O4K Cu1E 1_555 1_555
O4F Cu1 1_555 1_555
O4G Cu1A 1_555 1_555
O4H Cu1B 1_555 1_555
N1A Cu1A 1_555 1_555
N1B Cu1B 1_555 1_555
N1I Cu1C 1_555 1_555
N1J Cu1D 1_555 1_555
N1K Cu1E 1_555 1_555
N1F Cu1 1_555 1_555
N1G Cu1A 1_555 1_555
N1H Cu1B 1_555 1_555
H1A N1A 1_555 1_555
H1B N1B 1_555 1_555
H1I N1I 1_555 1_555
H1J N1J 1_555 1_555
H1K N1K 1_555 1_555
H1F N1F 1_555 1_555
H1G N1G 1_555 1_555
H1H N1H 1_555 1_555
C1A O1A 1_555 1_555
C1B O1B 1_555 1_555
C1I O2I 1_555 1_555
C1J O1J 1_555 1_555
C1K O1K 1_555 1_555
C2A N1A 1_555 1_555
C2B N1B 1_555 1_555
C2I N1I 1_555 1_555
C2J N1J 1_555 1_555
C2K N1K 1_555 1_555
H2A C2A 1_555 1_555
H2B C2B 1_555 1_555
H2I C2I 1_555 1_555
H2J C2J 1_555 1_555
H2K C2K 1_555 1_555
H3A C2A 1_555 1_555
H3B C2B 1_555 1_555
H3I C2I 1_555 1_555
H3J C2J 1_555 1_555
H3K C2K 1_555 1_555
C3A N1A 1_555 1_555
C3B N1B 1_555 1_555
C3I N1I 1_555 1_555
C3J N1J 1_555 1_555
C3K N1K 1_555 1_555
H4A C3A 1_555 1_555
H4B C3B 1_555 1_555
H4I C3I 1_555 1_555
H4J C3J 1_555 1_555
H4K C3K 1_555 1_555
H5A C3A 1_555 1_555
H5B C3B 1_555 1_555
H5I C3I 1_555 1_555
H5J C3J 1_555 1_555
H5K C3K 1_555 1_555
C4A O3A 1_555 1_555
C4B O3B 1_555 1_555
C4I O3I 1_555 1_555
C4J O3J 1_555 1_555
C4K O3K 1_555 1_555
C1 C2 1_555 1_555
C3 C4 1_555 1_555
O2A C1A 1_555 1_555
O2B C1B 1_555 1_555
O2J C1J 1_555 1_555
O2K C1K 1_555 1_555
O4A C4A 1_555 1_555
O4B C4B 1_555 1_555
O4I C4I 1_555 1_555
O4J C4J 1_555 1_555
O4K C4K 1_555 1_555
C1A C2A 1_555 1_555
C1B C2B 1_555 1_555
C1I C2I 1_555 1_555
C1J C2J 1_555 1_555
C1K C2K 1_555 1_555
C3A C4A 1_555 1_555
C3B C4B 1_555 1_555
C3I C4I 1_555 1_555
C3J C4J 1_555 1_555
C3K C4K 1_555 1_555

#END
