
#######################################################################
#
#                 Cambridge Crystallographic Data Centre
#                                CCDC 
#
#######################################################################
#
# If this CIF has been generated from an entry in the Cambridge 
# Structural Database, then it will include bibliographic, chemical, 
# crystal, experimental, refinement or atomic coordinate data resulting 
# from the CCDC's data processing and validation procedures.
#
#######################################################################

data_POXBAH
_chemical_formula_moiety         '(C84 H92 Cd1 O16 2-)n'
_symmetry_cell_setting           monoclinic
_symmetry_space_group_name_H-M   'P 21/n'
_symmetry_Int_Tables_number      14
_space_group_name_Hall           '-P 2yn'
loop_
_symmetry_equiv_pos_site_id
_symmetry_equiv_pos_as_xyz
1 x,y,z
2 1/2-x,1/2+y,1/2-z
3 -x,-y,-z
4 1/2+x,1/2-y,1/2+z
_cell_length_a                   23.617(5)
_cell_length_b                   16.814(5)
_cell_length_c                   26.617(5)
_cell_angle_alpha                90
_cell_angle_beta                 106.730(5)
_cell_angle_gamma                90
_cell_volume                     10122.1
loop_
_atom_site_label
_atom_site_type_symbol
_atom_site_fract_x
_atom_site_fract_y
_atom_site_fract_z
Cd1 Cd 0.14504(2) 0.20935(3) 0.60720(2)
C1 C 0.7376(3) 0.0332(3) 0.6663(3)
C2 C 0.7391(3) 0.0317(3) 0.7175(3)
H1 H 0.7751 0.0290 0.7435
C3 C 0.6866(3) 0.0344(3) 0.7310(3)
C4 C 0.6331(3) 0.0379(3) 0.6928(3)
C5 C 0.6343(3) 0.0362(3) 0.6413(3)
H2 H 0.5982 0.0376 0.6154
C6 C 0.6840(3) 0.0326(3) 0.6254(3)
C7 C 0.6845(3) 0.0268(3) 0.5687(3)
H3 H 0.7123 -0.0160 0.5677
C8 C 0.7083(3) 0.1019(3) 0.5478(3)
C9 C 0.7364(3) 0.0983(4) 0.5101(3)
C10 C 0.7579(3) 0.1639(4) 0.4912(3)
H4 H 0.7760 0.1592 0.4646
C11 C 0.7521(3) 0.2367(4) 0.5125(3)
C12 C 0.7232(3) 0.2465(3) 0.5506(3)
C13 C 0.7014(3) 0.1777(3) 0.5676(3)
H5 H 0.6815 0.1820 0.5930
C14 C 0.7135(3) 0.3277(3) 0.5699(3)
H6 H 0.7500 0.3570 0.5722
C15 C 0.7079(3) 0.3275(3) 0.6250(3)
C16 C 0.6545(3) 0.3349(3) 0.6354(3)
H7 H 0.6205 0.3395 0.6073
C17 C 0.6482(3) 0.3357(4) 0.6866(3)
C18 C 0.6992(4) 0.3259(3) 0.7272(3)
C19 C 0.7542(3) 0.3173(4) 0.7193(4)
H8 H 0.7879 0.3111 0.7475
C20 C 0.7581(3) 0.3182(3) 0.6688(4)
C21 C 0.5897(3) 0.3454(4) 0.6997(3)
H9 H 0.5974 0.3843 0.7283
C22 C 0.5699(3) 0.2705(4) 0.7213(3)
C23 C 0.5821(3) 0.1951(4) 0.7078(3)
H10 H 0.6038 0.1901 0.6839
C24 C 0.5642(3) 0.1249(4) 0.7275(3)
C25 C 0.5320(3) 0.1349(4) 0.7626(3)
C26 C 0.5179(3) 0.2078(5) 0.7766(3)
H11 H 0.4955 0.2123 0.8001
C27 C 0.5364(3) 0.2762(4) 0.7564(4)
C28 C 0.5765(3) 0.0422(3) 0.7094(3)
H12 H 0.5828 0.0074 0.7401
C29 C 0.7392(3) 0.0357(4) 0.8229(3)
H13 H 0.7311 0.0372 0.8562
H14 H 0.7619 0.0816 0.8194
H15 H 0.7612 -0.0116 0.8207
C30 C 0.8418(3) 0.0392(5) 0.6868(4)
H16 H 0.8531 -0.0125 0.7028
H17 H 0.8387 0.0758 0.7140
C31 C 0.8881(3) 0.0681(5) 0.6626(4)
C32 C 0.8763(4) 0.1156(6) 0.6196(5)
H18 H 0.8370 0.1257 0.6014
C33 C 0.9211(5) 0.1500(7) 0.6013(5)
H19 H 0.9118 0.1838 0.5725
C34 C 0.9780(4) 0.1326(5) 0.6270(4)
C35 C 0.9908(4) 0.0894(7) 0.6708(5)
H20 H 1.0299 0.0830 0.6906
C36 C 0.9452(4) 0.0530(6) 0.6875(5)
H21 H 0.9548 0.0184 0.7160
C37 C 1.0269(6) 0.1727(8) 0.6087(5)
C38 C 0.7747(6) 0.0111(6) 0.4551(5)
H22 H 0.7747 -0.0442 0.4460
H23 H 0.8146 0.0287 0.4705
H24 H 0.7569 0.0417 0.4241
C39 C 0.7986(4) 0.3022(4) 0.4558(4)
H25 H 0.7718 0.2769 0.4255
H26 H 0.8343 0.2705 0.4669
C40 C 0.8134(4) 0.3845(4) 0.4417(3)
C41 C 0.8626(4) 0.4012(5) 0.4291(4)
H27 H 0.8886 0.3598 0.4286
C42 C 0.8770(5) 0.4755(6) 0.4169(4)
H28 H 0.9126 0.4831 0.4092
C43 C 0.8420(4) 0.5374(4) 0.4157(4)
C44 C 0.7920(5) 0.5244(5) 0.4297(5)
H29 H 0.7666 0.5667 0.4296
C45 C 0.7777(5) 0.4489(6) 0.4441(5)
H30 H 0.7442 0.4418 0.4554
C46 C 0.8634(4) 0.3065(6) 0.7006(5)
H31 H 0.8969 0.3018 0.6872
H32 H 0.8613 0.2607 0.7215
H33 H 0.8674 0.3535 0.7218
C47 C 0.7317(5) 0.2889(7) 0.8173(5)
H34 H 0.7696 0.3160 0.8266
H35 H 0.7376 0.2354 0.8061
C48 C 0.7091(4) 0.2854(7) 0.8633(4)
C49 C 0.7329(6) 0.3230(7) 0.9046(6)
H36 H 0.7671 0.3519 0.9067
C50 C 0.7101(5) 0.3236(6) 0.9479(5)
H37 H 0.7294 0.3552 0.9763
C51 C 0.6656(4) 0.2848(5) 0.9515(4)
C52 C 0.6465(6) 0.2238(8) 0.9125(6)
H38 H 0.6211 0.1838 0.9168
C53 C 0.6675(6) 0.2255(8) 0.8659(6)
H39 H 0.6542 0.1887 0.8390
C54 C 0.6428(5) 0.2810(7) 0.9968(5)
C55 C 0.4836(7) 0.3575(6) 0.8001(6)
H40 H 0.4778 0.4126 0.8066
H41 H 0.4993 0.3303 0.8329
H42 H 0.4464 0.3341 0.7814
C56 C 0.4755(3) 0.0678(5) 0.8129(3)
H43 H 0.4887 0.1078 0.8400
H44 H 0.4753 0.0170 0.8301
C57 C 0.4151(3) 0.0868(4) 0.7815(3)
C58 C 0.3825(4) 0.1463(5) 0.7948(4)
H45 H 0.3991 0.1750 0.8254
C59 C 0.3249(4) 0.1660(6) 0.7640(4)
H46 H 0.3036 0.2070 0.7735
C60 C 0.3011(3) 0.1208(5) 0.7184(4)
C61 C 0.3319(4) 0.0621(5) 0.7069(4)
H47 H 0.3152 0.0308 0.6775
C62 C 0.3886(4) 0.0463(5) 0.7376(4)
H48 H 0.4095 0.0055 0.7274
C63 C 0.2440(5) 0.1511(8) 0.6855(5)
C64 C 0.6255(3) 0.0022(3) 0.5302(3)
H49 H 0.5948 0.0373 0.5349
H50 H 0.6280 0.0099 0.4947
C65 C 0.6071(3) -0.0827(3) 0.5355(3)
H51 H 0.6368 -0.1177 0.5288
H52 H 0.6072 -0.0911 0.5716
C66 C 0.5495(3) -0.1066(4) 0.5014(4)
H53 H 0.5475 -0.0919 0.4657
H54 H 0.5193 -0.0766 0.5113
C67 C 0.5353(4) -0.1928(5) 0.5023(5)
H55 H 0.5373 -0.2079 0.5379
H56 H 0.5651 -0.2231 0.4920
C68 C 0.4743(5) -0.2149(5) 0.4661(5)
H57 H 0.4675 -0.2707 0.4693
H58 H 0.4726 -0.2029 0.4305
H59 H 0.4445 -0.1850 0.4759
C69 C 0.6655(3) 0.3728(3) 0.5300(3)
H60 H 0.6272 0.3523 0.5304
H61 H 0.6696 0.3634 0.4952
C70 C 0.6673(4) 0.4625(4) 0.5403(4)
H62 H 0.6566 0.4726 0.5722
H63 H 0.7074 0.4815 0.5455
C71 C 0.6264(5) 0.5082(5) 0.4961(4)
H64 H 0.6412 0.5010 0.4660
H65 H 0.5886 0.4810 0.4878
C72 C 0.6131(6) 0.5945(7) 0.4979(7)
H66 H 0.5869 0.6125 0.4646
H67 H 0.5949 0.6059 0.5255
C73 C 0.6706(7) 0.6318(7) 0.5086(8)
H68 H 0.6662 0.6886 0.5092
H69 H 0.6885 0.6175 0.4818
H70 H 0.6953 0.6142 0.5421
C74 C 0.5398(3) 0.3806(5) 0.6554(3)
H71 H 0.5307 0.3425 0.6268
H72 H 0.5051 0.3842 0.6679
C75 C 0.5479(6) 0.4605(6) 0.6327(6)
H73 H 0.5821 0.4574 0.6196
H74 H 0.5137 0.4704 0.6028
C76 C 0.5556(9) 0.5293(9) 0.6682(7)
H75 H 0.5945 0.5271 0.6935
H76 H 0.5263 0.5274 0.6872
C77 C 0.5492(9) 0.6068(9) 0.6374(7)
H77 H 0.5616 0.6001 0.6059
H78 H 0.5086 0.6253 0.6275
C78 C 0.5890(9) 0.6635(11) 0.6746(8)
H79 H 0.5864 0.7151 0.6586
H80 H 0.6291 0.6448 0.6829
H81 H 0.5772 0.6670 0.7062
C79 C 0.5212(3) 0.0105(4) 0.6685(3)
H82 H 0.4866 0.0248 0.6792
H83 H 0.5179 0.0363 0.6352
C80 C 0.5214(4) -0.0791(4) 0.6607(4)
H84 H 0.5298 -0.1051 0.6946
H85 H 0.5527 -0.0930 0.6453
C81 C 0.4603(6) -0.1106(6) 0.6240(6)
H86 H 0.4288 -0.0854 0.6349
H87 H 0.4566 -0.0931 0.5884
C82 C 0.4514(8) -0.1891(9) 0.6229(7)
H88 H 0.4544 -0.2080 0.6580
H89 H 0.4816 -0.2156 0.6108
C83 C 0.3890(9) -0.2094(10) 0.5854(9)
H90 H 0.3819 -0.2655 0.5867
H91 H 0.3872 -0.1944 0.5502
H92 H 0.3594 -0.1808 0.5963
O1 O 0.6854(2) 0.0354(3) 0.7821(2)
O2 O 0.78655(18) 0.0333(2) 0.64793(19)
O3 O 1.0144(4) 0.2000(7) 0.5665(4)
O4 O 1.0761(3) 0.1574(5) 0.6353(4)
O5 O 0.7417(3) 0.0215(3) 0.4917(2)
O6 O 0.7726(2) 0.3067(2) 0.4958(2)
O7 O 0.8105(2) 0.3119(3) 0.6578(2)
O8 O 0.6922(2) 0.3289(3) 0.7769(3)
O9 O 0.6683(4) 0.3192(4) 1.0355(3)
O10 O 0.5996(4) 0.2373(7) 0.9954(3)
O11 O 0.5235(3) 0.3508(3) 0.7700(3)
O12 O 0.51642(19) 0.0642(3) 0.7831(2)
O13 O 0.2185(3) 0.2096(3) 0.6920(3)
O14 O 0.2189(3) 0.1102(4) 0.6459(3)
C84 C 0.8576(5) 0.6201(5) 0.4018(5)
O15 O 0.8190(4) 0.6671(4) 0.3899(4)
O16 O 0.9088(4) 0.6354(4) 0.4090(4)
Cd1_2 Cd 1.14504(2) 0.20935(3) 0.60720(2)
Cd1B Cd 0.85496(2) 0.79065(3) 0.39280(2)
Cd1C Cd 0.64504(2) 0.29065(3) 1.10720(2)
O4_2 O 0.0761(3) 0.1574(5) 0.6353(4)
O9C O 0.1683(4) 0.1808(4) 0.5355(3)
O15B O 0.1810(4) 0.3329(4) 0.6101(4)
loop_
_geom_bond_atom_site_label_1
_geom_bond_atom_site_label_2
_geom_bond_site_symmetry_1
_geom_bond_site_symmetry_2
Cd1 O13 1_555 1_555
C1 C2 1_555 1_555
C2 H1 1_555 1_555
C3 C2 1_555 1_555
C4 C3 1_555 1_555
C5 C4 1_555 1_555
H2 C5 1_555 1_555
C6 C1 1_555 1_555
C7 C6 1_555 1_555
H3 C7 1_555 1_555
C8 C7 1_555 1_555
C9 C8 1_555 1_555
C10 C9 1_555 1_555
H4 C10 1_555 1_555
C11 C10 1_555 1_555
C12 C11 1_555 1_555
C13 C8 1_555 1_555
H5 C13 1_555 1_555
C14 C12 1_555 1_555
H6 C14 1_555 1_555
C15 C14 1_555 1_555
C16 C15 1_555 1_555
H7 C16 1_555 1_555
C17 C16 1_555 1_555
C18 C17 1_555 1_555
C19 C18 1_555 1_555
H8 C19 1_555 1_555
C20 C15 1_555 1_555
C21 C17 1_555 1_555
H9 C21 1_555 1_555
C22 C21 1_555 1_555
C23 C22 1_555 1_555
H10 C23 1_555 1_555
C24 C23 1_555 1_555
C25 C24 1_555 1_555
C26 C25 1_555 1_555
H11 C26 1_555 1_555
C27 C22 1_555 1_555
C28 C4 1_555 1_555
H12 C28 1_555 1_555
C29 H13 1_555 1_555
H14 C29 1_555 1_555
H15 C29 1_555 1_555
C30 H16 1_555 1_555
H17 C30 1_555 1_555
C31 C30 1_555 1_555
C32 C31 1_555 1_555
H18 C32 1_555 1_555
C33 C32 1_555 1_555
H19 C33 1_555 1_555
C34 C33 1_555 1_555
C35 C34 1_555 1_555
H20 C35 1_555 1_555
C36 C31 1_555 1_555
H21 C36 1_555 1_555
C37 C34 1_555 1_555
C38 H22 1_555 1_555
H23 C38 1_555 1_555
H24 C38 1_555 1_555
C39 H25 1_555 1_555
H26 C39 1_555 1_555
C40 C39 1_555 1_555
C41 C40 1_555 1_555
H27 C41 1_555 1_555
C42 C41 1_555 1_555
H28 C42 1_555 1_555
C43 C42 1_555 1_555
C44 C43 1_555 1_555
H29 C44 1_555 1_555
C45 C40 1_555 1_555
H30 C45 1_555 1_555
C46 H31 1_555 1_555
H32 C46 1_555 1_555
H33 C46 1_555 1_555
C47 H34 1_555 1_555
H35 C47 1_555 1_555
C48 C47 1_555 1_555
C49 C48 1_555 1_555
H36 C49 1_555 1_555
C50 C49 1_555 1_555
H37 C50 1_555 1_555
C51 C50 1_555 1_555
C52 C51 1_555 1_555
H38 C52 1_555 1_555
C53 C48 1_555 1_555
H39 C53 1_555 1_555
C54 C51 1_555 1_555
C55 H40 1_555 1_555
H41 C55 1_555 1_555
H42 C55 1_555 1_555
C56 H43 1_555 1_555
H44 C56 1_555 1_555
C57 C56 1_555 1_555
C58 C57 1_555 1_555
H45 C58 1_555 1_555
C59 C58 1_555 1_555
H46 C59 1_555 1_555
C60 C59 1_555 1_555
C61 C60 1_555 1_555
H47 C61 1_555 1_555
C62 C57 1_555 1_555
H48 C62 1_555 1_555
C63 C60 1_555 1_555
C64 C7 1_555 1_555
H49 C64 1_555 1_555
H50 C64 1_555 1_555
C65 C64 1_555 1_555
H51 C65 1_555 1_555
H52 C65 1_555 1_555
C66 C65 1_555 1_555
H53 C66 1_555 1_555
H54 C66 1_555 1_555
C67 C66 1_555 1_555
H55 C67 1_555 1_555
H56 C67 1_555 1_555
C68 C67 1_555 1_555
H57 C68 1_555 1_555
H58 C68 1_555 1_555
H59 C68 1_555 1_555
C69 C14 1_555 1_555
H60 C69 1_555 1_555
H61 C69 1_555 1_555
C70 C69 1_555 1_555
H62 C70 1_555 1_555
H63 C70 1_555 1_555
C71 C70 1_555 1_555
H64 C71 1_555 1_555
H65 C71 1_555 1_555
C72 C71 1_555 1_555
H66 C72 1_555 1_555
H67 C72 1_555 1_555
C73 C72 1_555 1_555
H68 C73 1_555 1_555
H69 C73 1_555 1_555
H70 C73 1_555 1_555
C74 C21 1_555 1_555
H71 C74 1_555 1_555
H72 C74 1_555 1_555
C75 C74 1_555 1_555
H73 C75 1_555 1_555
H74 C75 1_555 1_555
C76 C75 1_555 1_555
H75 C76 1_555 1_555
H76 C76 1_555 1_555
C77 C76 1_555 1_555
H77 C77 1_555 1_555
H78 C77 1_555 1_555
C78 C77 1_555 1_555
H79 C78 1_555 1_555
H80 C78 1_555 1_555
H81 C78 1_555 1_555
C79 C28 1_555 1_555
H82 C79 1_555 1_555
H83 C79 1_555 1_555
C80 C79 1_555 1_555
H84 C80 1_555 1_555
H85 C80 1_555 1_555
C81 C80 1_555 1_555
H86 C81 1_555 1_555
H87 C81 1_555 1_555
C82 C81 1_555 1_555
H88 C82 1_555 1_555
H89 C82 1_555 1_555
C83 C82 1_555 1_555
H90 C83 1_555 1_555
H91 C83 1_555 1_555
H92 C83 1_555 1_555
O1 C3 1_555 1_555
O2 C1 1_555 1_555
O3 C37 1_555 1_555
O4 C37 1_555 1_555
O5 C9 1_555 1_555
O6 C11 1_555 1_555
O7 C20 1_555 1_555
O8 C18 1_555 1_555
O9 C54 1_555 1_555
O10 C54 1_555 1_555
O11 C27 1_555 1_555
O12 C25 1_555 1_555
O13 C63 1_555 1_555
O14 Cd1 1_555 1_555
C84 C43 1_555 1_555
O15 C84 1_555 1_555
O16 C84 1_555 1_555
Cd1_2 O4 1_555 1_555
Cd1B O15 1_555 1_555
Cd1C O9 1_555 1_555
O4_2 Cd1 1_555 1_555
O9C Cd1 1_555 1_555
O15B Cd1 1_555 1_555
C5 C6 1_555 1_555
C12 C13 1_555 1_555
C19 C20 1_555 1_555
C24 C28 1_555 1_555
C26 C27 1_555 1_555
C29 O1 1_555 1_555
C30 O2 1_555 1_555
C35 C36 1_555 1_555
C38 O5 1_555 1_555
C39 O6 1_555 1_555
C44 C45 1_555 1_555
C46 O7 1_555 1_555
C47 O8 1_555 1_555
C52 C53 1_555 1_555
C55 O11 1_555 1_555
C56 O12 1_555 1_555
C61 C62 1_555 1_555
C63 O14 1_555 1_555

#END
