
#######################################################################
#
#                 Cambridge Crystallographic Data Centre
#                                CCDC 
#
#######################################################################
#
# If this CIF has been generated from an entry in the Cambridge 
# Structural Database, then it will include bibliographic, chemical, 
# crystal, experimental, refinement or atomic coordinate data resulting 
# from the CCDC's data processing and validation procedures.
#
#######################################################################

data_VIXVUV
_chemical_formula_moiety         '(C18 H22 N2 O5 Zn1)n'
_symmetry_cell_setting           orthorhombic
_symmetry_space_group_name_H-M   'P n n a'
_symmetry_Int_Tables_number      52
_space_group_name_Hall           '-P 2a 2bc'
loop_
_symmetry_equiv_pos_site_id
_symmetry_equiv_pos_as_xyz
1 x,y,z
2 1/2-x,-y,z
3 1/2-x,1/2+y,1/2-z
4 x,1/2-y,1/2-z
5 -x,-y,-z
6 1/2+x,y,-z
7 1/2+x,1/2-y,1/2+z
8 -x,1/2+y,1/2+z
_cell_length_a                   10.5081(9)
_cell_length_b                   16.6714(14)
_cell_length_c                   12.2960(10)
_cell_angle_alpha                90
_cell_angle_beta                 90
_cell_angle_gamma                90
_cell_volume                     2154.07
loop_
_atom_site_label
_atom_site_type_symbol
_atom_site_fract_x
_atom_site_fract_y
_atom_site_fract_z
Zn1 Zn 0.09905(5) 0.2500 0.2500
N1 N 0.2268(3) 0.32221(17) 0.3313(2)
O1 O 0.0233(4) 0.30045(19) 0.1271(3)
O2 O -0.0439(6) 0.4028(3) 0.2218(4)
C1 C -0.0300(4) 0.3671(2) 0.1331(4)
C2 C -0.0922(5) 0.4008(3) 0.0341(5)
H1 H -0.0678 0.3675 -0.0271
H2 H -0.1834 0.3951 0.0431
C3 C -0.0665(6) 0.4857(4) 0.0038(7)
H3 H -0.1065 0.4952 -0.0661
H4 H -0.1099 0.5194 0.0564
C4 C 0.2859(5) 0.3826(3) 0.2805(4)
H5 H 0.2610 0.3955 0.2101
C5 C 0.3817(5) 0.4261(3) 0.3280(4)
H6 H 0.4229 0.4664 0.2892
C6 C 0.4169(4) 0.4094(2) 0.4357(4)
C7 C 0.3539(5) 0.3494(2) 0.4871(3)
H7 H 0.3736 0.3370 0.5589
C8 C 0.2602(5) 0.3065(2) 0.4331(4)
H8 H 0.2192 0.2651 0.4697
C9 C 0.5199(5) 0.4562(2) 0.4904(4)
H9 H 0.5959 0.4550 0.4457
H10 H 0.5400 0.4314 0.5597
N1D N 0.7732(3) 0.67779(17) 0.6687(2)
C4D C 0.7141(5) 0.6174(3) 0.7195(4)
H5D H 0.7390 0.6045 0.7899
C5D C 0.6183(5) 0.5739(3) 0.6720(4)
H6D H 0.5771 0.5336 0.7108
C6D C 0.5831(4) 0.5906(2) 0.5643(4)
C7D C 0.6461(5) 0.6506(2) 0.5129(3)
H7D H 0.6264 0.6630 0.4411
C8D C 0.7398(5) 0.6935(2) 0.5669(4)
H8D H 0.7808 0.7349 0.5303
C9D C 0.4801(5) 0.5438(2) 0.5096(4)
H9D H 0.4041 0.5450 0.5543
H10D H 0.4600 0.5686 0.4403
O1D O -0.0233(4) 0.69955(19) -0.1271(3)
O2D O 0.0439(6) 0.5972(3) -0.2218(4)
C1D C 0.0300(4) 0.6329(2) -0.1331(4)
C2D C 0.0922(5) 0.5992(3) -0.0341(5)
H1D H 0.0678 0.6325 0.0271
H2D H 0.1834 0.6049 -0.0431
C3D C 0.0665(6) 0.5143(4) -0.0038(7)
H3D H 0.1065 0.5048 0.0661
H4D H 0.1099 0.4806 -0.0564
Zn1D Zn -0.09905(5) 0.7500 -0.2500
Zn1D_2 Zn 0.90095(5) 0.7500 0.7500
N1C N 0.2268(3) 0.17779(17) 0.1687(2)
O1C O 0.0233(4) 0.19955(19) 0.3729(3)
O3 O 0.7500 0.5000 0.2868(12)
H11 H 0.794(11) 0.547(4) 0.269(12)
H11A H 0.706(11) 0.453(4) 0.269(12)
loop_
_geom_bond_atom_site_label_1
_geom_bond_atom_site_label_2
_geom_bond_site_symmetry_1
_geom_bond_site_symmetry_2
Zn1 N1 1_555 1_555
N1 C4 1_555 1_555
O1 Zn1 1_555 1_555
O2 C1 1_555 1_555
C1 O1 1_555 1_555
C2 C1 1_555 1_555
H1 C2 1_555 1_555
H2 C2 1_555 1_555
C3 C2 1_555 1_555
H3 C3 1_555 1_555
H4 C3 1_555 1_555
C4 H5 1_555 1_555
C5 C4 1_555 1_555
H6 C5 1_555 1_555
C6 C5 1_555 1_555
C7 C6 1_555 1_555
H7 C7 1_555 1_555
C8 N1 1_555 1_555
H8 C8 1_555 1_555
C9 C6 1_555 1_555
H9 C9 1_555 1_555
H10 C9 1_555 1_555
O3 H11 1_555 1_555
N1D C4D 1_555 1_555
C4D H5D 1_555 1_555
C5D C4D 1_555 1_555
H6D C5D 1_555 1_555
C6D C5D 1_555 1_555
C7D C6D 1_555 1_555
H7D C7D 1_555 1_555
C8D N1D 1_555 1_555
H8D C8D 1_555 1_555
C9D C9 1_555 1_555
H9D C9D 1_555 1_555
H10D C9D 1_555 1_555
O1D C1D 1_555 1_555
O2D C1D 1_555 1_555
C1D C2D 1_555 1_555
C2D H1D 1_555 1_555
H2D C2D 1_555 1_555
C3D C3 1_555 1_555
H3D C3D 1_555 1_555
H4D C3D 1_555 1_555
Zn1D O1D 1_555 1_555
Zn1D_2 N1D 1_555 1_555
N1C Zn1 1_555 1_555
O1C Zn1 1_555 1_555
H11A O3 1_555 1_555
C7 C8 1_555 1_555
C6D C9D 1_555 1_555
C7D C8D 1_555 1_555
C2D C3D 1_555 1_555

#END
