
#######################################################################
#
#                 Cambridge Crystallographic Data Centre
#                                CCDC 
#
#######################################################################
#
# If this CIF has been generated from an entry in the Cambridge 
# Structural Database, then it will include bibliographic, chemical, 
# crystal, experimental, refinement or atomic coordinate data resulting 
# from the CCDC's data processing and validation procedures.
#
#######################################################################

data_GAGSUF
_chemical_formula_moiety         '(C27 H16 O23 Th3)n'
_symmetry_cell_setting           hexagonal
_symmetry_space_group_name_H-M   'P 63/m'
_symmetry_Int_Tables_number      176
_space_group_name_Hall           '-P 6c'
loop_
_symmetry_equiv_pos_site_id
_symmetry_equiv_pos_as_xyz
1 x,y,z
2 -y,x-y,z
3 -x+y,-x,z
4 -x,-y,1/2+z
5 y,-x+y,1/2+z
6 x-y,x,1/2+z
7 -x,-y,-z
8 y,-x+y,-z
9 x-y,x,-z
10 x,y,1/2-z
11 -y,x-y,1/2-z
12 -x+y,-x,1/2-z
_cell_length_a                   18.4448(6)
_cell_length_b                   18.4448(6)
_cell_length_c                   9.8084(3)
_cell_angle_alpha                90
_cell_angle_beta                 90
_cell_angle_gamma                120
_cell_volume                     2889.86
loop_
_atom_site_label
_atom_site_type_symbol
_atom_site_fract_x
_atom_site_fract_y
_atom_site_fract_z
O6 O 0.701(3) 0.054(3) 0.7500
Th1 Th 0.64617(2) 0.20201(2) 0.2500
O1 O 0.5686(4) 0.0623(3) 0.3610(4)
O2 O 0.6667 0.3333 0.2500
O3 O 0.7476(5) 0.1572(5) 0.2500
O4 O 0.4616(4) -0.3122(3) 0.5044(4)
O5 O 0.4671(2) -0.2061(3) 0.6141(4)
C1 C 0.4702(6) -0.2406(4) 0.5045(5)
C2 C 0.5232(5) -0.0676(5) 0.2500
C3 C 0.5538(6) 0.0228(5) 0.2500
C4 C 0.4848(6) -0.1948(4) 0.3729(5)
C5 C 0.4734(8) -0.2367(5) 0.2500
H1 H 0.4581 -0.2930 0.2500
C6 C 0.5086(4) -0.1109(4) 0.3733(5)
H2 H 0.5150 -0.0832 0.4555
O1I O 0.5686(4) 0.0623(3) 0.1390(4)
O4I O 0.4616(4) -0.3122(3) -0.0044(4)
O5I O 0.4671(2) -0.2061(3) -0.1141(4)
C1I C 0.4702(6) -0.2406(4) -0.0045(5)
C4I C 0.4848(6) -0.1948(4) 0.1271(5)
C6I C 0.5086(4) -0.1109(4) 0.1267(5)
H2I H 0.5150 -0.0832 0.0445
Th1A Th 0.79799(2) 0.44416(3) 0.2500
O1A O 0.9377(3) 0.5063(5) 0.3610(4)
O3A O 0.8428(5) 0.5904(7) 0.2500
O4A O 1.3122(3) 0.7738(5) 0.5044(4)
O5A O 1.2061(3) 0.6732(4) 0.6141(4)
C1A C 1.2406(4) 0.7108(7) 0.5045(5)
C2A C 1.0676(5) 0.5908(7) 0.2500
C3A C 0.9772(5) 0.5310(8) 0.2500
C4A C 1.1948(4) 0.6796(7) 0.3729(5)
C5A C 1.2367(5) 0.7101(9) 0.2500
H1A H 1.2930 0.7511 0.2500
C6A C 1.1109(4) 0.6195(6) 0.3733(5)
H2A H 1.0832 0.5982 0.4555
O1J O 0.9377(3) 0.5063(5) 0.1390(4)
O4J O 1.3122(3) 0.7738(5) -0.0044(4)
O5J O 1.2061(3) 0.6732(4) -0.1141(4)
C1J C 1.2406(4) 0.7108(7) -0.0045(5)
C4J C 1.1948(4) 0.6796(7) 0.1271(5)
C6J C 1.1109(4) 0.6195(6) 0.1267(5)
H2J H 1.0832 0.5982 0.0445
Th1B Th 0.55584(3) 0.35383(2) 0.2500
O1B O 0.4937(5) 0.4314(4) 0.3610(4)
O3B O 0.4096(7) 0.2524(5) 0.2500
O4B O 0.2262(5) 0.5384(4) 0.5044(4)
O5B O 0.3268(4) 0.5329(2) 0.6141(4)
C1B C 0.2892(7) 0.5298(6) 0.5045(5)
C2B C 0.4092(7) 0.4768(5) 0.2500
C3B C 0.4690(8) 0.4462(6) 0.2500
C4B C 0.3204(7) 0.5152(6) 0.3729(5)
C5B C 0.2899(9) 0.5266(8) 0.2500
H1B H 0.2489 0.5419 0.2500
C6B C 0.3805(6) 0.4914(4) 0.3733(5)
H2B H 0.4018 0.4850 0.4555
O1K O 0.4937(5) 0.4314(4) 0.1390(4)
O4K O 0.2262(5) 0.5384(4) -0.0044(4)
O5K O 0.3268(4) 0.5329(2) -0.1141(4)
C1K C 0.2892(7) 0.5298(6) -0.0045(5)
C4K C 0.3204(7) 0.5152(6) 0.1271(5)
C6K C 0.3805(6) 0.4914(4) 0.1267(5)
H2K H 0.4018 0.4850 0.0445
Th1C Th 0.35383(2) -0.20201(2) -0.2500
Th1C_2 Th 0.35383(2) -0.20201(2) 0.7500
Th1C_3 Th 1.35383(2) 0.79799(2) -0.2500
Th1C_4 Th 1.35383(2) 0.79799(2) 0.7500
Th1D Th 0.20201(2) 0.55584(3) -0.2500
Th1D_2 Th 0.20201(2) 0.55584(3) 0.7500
Th1D_3 Th 1.20201(2) 0.55584(3) -0.2500
Th1D_4 Th 1.20201(2) 0.55584(3) 0.7500
Th1E Th 0.44416(3) -0.35383(2) -0.2500
Th1E_2 Th 0.44416(3) -0.35383(2) 0.7500
Th1E_3 Th 0.44416(3) 0.64617(2) -0.2500
Th1E_4 Th 0.44416(3) 0.64617(2) 0.7500
O4C O 0.5384(4) 0.3122(3) 0.0044(4)
O4D O 0.6878(3) 0.2262(5) 0.0044(4)
O4E O 0.7738(5) 0.4616(4) 0.0044(4)
O4F O 0.5384(4) 0.3122(3) 0.4956(4)
O4G O 0.6878(3) 0.2262(5) 0.4956(4)
O4H O 0.7738(5) 0.4616(4) 0.4956(4)
O5C O 0.5329(2) 0.2061(3) 0.1141(4)
O5D O 0.7939(3) 0.3268(4) 0.1141(4)
O5E O 0.6732(4) 0.4671(2) 0.1141(4)
O5F O 0.5329(2) 0.2061(3) 0.3859(4)
O5G O 0.7939(3) 0.3268(4) 0.3859(4)
O5H O 0.6732(4) 0.4671(2) 0.3859(4)
loop_
_geom_bond_atom_site_label_1
_geom_bond_atom_site_label_2
_geom_bond_site_symmetry_1
_geom_bond_site_symmetry_2
Th1 O1 1_555 1_555
O1 C3 1_555 1_555
O2 Th1 1_555 1_555
O3 Th1 1_555 1_555
O4 C1 1_555 1_555
O5 C1 1_555 1_555
C1 C4 1_555 1_555
C2 C3 1_555 1_555
C3 O1I 1_555 1_555
C4 C5 1_555 1_555
C5 H1 1_555 1_555
C6 C2 1_555 1_555
H2 C6 1_555 1_555
O1I Th1 1_555 1_555
O4I C1I 1_555 1_555
O5I C1I 1_555 1_555
C1I C4I 1_555 1_555
C4I C5 1_555 1_555
C6I C2 1_555 1_555
H2I C6I 1_555 1_555
Th1A O2 1_555 1_555
O1A Th1A 1_555 1_555
O3A Th1A 1_555 1_555
O4A C1A 1_555 1_555
O5A C1A 1_555 1_555
C1A C4A 1_555 1_555
C2A C3A 1_555 1_555
C3A O1A 1_555 1_555
C4A C5A 1_555 1_555
C5A H1A 1_555 1_555
C6A C2A 1_555 1_555
H2A C6A 1_555 1_555
O1J Th1A 1_555 1_555
O4J C1J 1_555 1_555
O5J C1J 1_555 1_555
C1J C4J 1_555 1_555
C4J C5A 1_555 1_555
C6J C2A 1_555 1_555
H2J C6J 1_555 1_555
Th1B O2 1_555 1_555
O1B Th1B 1_555 1_555
O3B Th1B 1_555 1_555
O4B C1B 1_555 1_555
O5B C1B 1_555 1_555
C1B C4B 1_555 1_555
C2B C3B 1_555 1_555
C3B O1B 1_555 1_555
C4B C5B 1_555 1_555
C5B H1B 1_555 1_555
C6B C2B 1_555 1_555
H2B C6B 1_555 1_555
O1K Th1B 1_555 1_555
O4K C1K 1_555 1_555
O5K C1K 1_555 1_555
C1K C4K 1_555 1_555
C4K C5B 1_555 1_555
C6K C2B 1_555 1_555
H2K C6K 1_555 1_555
Th1C O5I 1_555 1_555
Th1C_2 O5 1_555 1_555
Th1C_3 O4J 1_555 1_555
Th1C_4 O4A 1_555 1_555
Th1D O4K 1_555 1_555
Th1D_2 O4B 1_555 1_555
Th1D_3 O5J 1_555 1_555
Th1D_4 O5A 1_555 1_555
Th1E O4I 1_555 1_555
Th1E_2 O4 1_555 1_555
Th1E_3 O5K 1_555 1_555
Th1E_4 O5B 1_555 1_555
O4C Th1B 1_555 1_555
O4D Th1 1_555 1_555
O4E Th1A 1_555 1_555
O4F Th1B 1_555 1_555
O4G Th1 1_555 1_555
O4H Th1A 1_555 1_555
O5C Th1 1_555 1_555
O5D Th1 1_555 1_555
O5E Th1A 1_555 1_555
O5F Th1 1_555 1_555
O5G Th1 1_555 1_555
O5H Th1A 1_555 1_555
O5 Th1E_2 1_555 1_555
C4 C6 1_555 1_555
O5I Th1E 1_555 1_555
C4I C6I 1_555 1_555
Th1A O5D 1_555 1_555
Th1A O5G 1_555 1_555
O5A Th1C_4 1_555 1_555
C3A O1J 1_555 1_555
C4A C6A 1_555 1_555
O5J Th1C_3 1_555 1_555
C4J C6J 1_555 1_555
Th1B O5C 1_555 1_555
Th1B O5E 1_555 1_555
Th1B O5F 1_555 1_555
Th1B O5H 1_555 1_555
O5B Th1D_2 1_555 1_555
C3B O1K 1_555 1_555
C4B C6B 1_555 1_555
O5K Th1D 1_555 1_555
C4K C6K 1_555 1_555

#END
