
#######################################################################
#
#                 Cambridge Crystallographic Data Centre
#                                CCDC 
#
#######################################################################
#
# If this CIF has been generated from an entry in the Cambridge 
# Structural Database, then it will include bibliographic, chemical, 
# crystal, experimental, refinement or atomic coordinate data resulting 
# from the CCDC's data processing and validation procedures.
#
#######################################################################

data_HIDBIH
_chemical_formula_moiety         '(C28 H28 Cd2 N12 O9)n'
_symmetry_cell_setting           monoclinic
_symmetry_space_group_name_H-M   'C 2/c'
_symmetry_Int_Tables_number      15
_space_group_name_Hall           '-C 2yc'
loop_
_symmetry_equiv_pos_site_id
_symmetry_equiv_pos_as_xyz
1 x,y,z
2 -x,y,1/2-z
3 1/2+x,1/2+y,z
4 1/2-x,1/2+y,1/2-z
5 -x,-y,-z
6 x,-y,1/2+z
7 1/2-x,1/2-y,-z
8 1/2+x,1/2-y,1/2+z
_cell_length_a                   23.6066(15)
_cell_length_b                   10.0599(6)
_cell_length_c                   17.7135(11)
_cell_angle_alpha                90
_cell_angle_beta                 124.8360(10)
_cell_angle_gamma                90
_cell_volume                     3452.74
loop_
_atom_site_label
_atom_site_type_symbol
_atom_site_fract_x
_atom_site_fract_y
_atom_site_fract_z
_atom_site_U_iso_or_equiv
_atom_site_thermal_displace_type
Cd1 Cd 0.364315(10) 0.40064(2) 0.373672(13) 0.0232 Uani
C1 C 0.20208(14) 0.6268(3) 0.31425(19) 0.0231 Uani
C2 C 0.19133(14) 0.7453(3) 0.34530(18) 0.0233 Uani
H1 H 0.2002 0.8259 0.3283 0.0280 Uiso
C3 C 0.16744(15) 0.7445(3) 0.40163(19) 0.0245 Uani
C4 C 0.15564(19) 0.6229(4) 0.4272(2) 0.0329 Uani
H2 H 0.1403 0.6204 0.4653 0.0390 Uiso
C5 C 0.1664(2) 0.5046(3) 0.3965(3) 0.0371 Uani
H3 H 0.1580 0.4240 0.4140 0.0440 Uiso
C6 C 0.18964(16) 0.5057(3) 0.3403(2) 0.0316 Uani
H4 H 0.1969 0.4262 0.3201 0.0380 Uiso
C7 C 0.22583(15) 0.6287(3) 0.25318(19) 0.0230 Uani
C8 C 0.15617(14) 0.8673(3) 0.43497(18) 0.0238 Uani
C9 C 0.13683(18) 0.8872(3) 0.4939(2) 0.0289 Uani
H5 H 0.1251 0.8202 0.5188 0.0350 Uiso
C10 C 0.15679(18) 1.0815(3) 0.4622(2) 0.0290 Uani
H6 H 0.1616 1.1730 0.4606 0.0350 Uiso
C11 C 0.5000 0.8281(5) 0.2500 0.0454 Uani
H7 H 0.5000 0.9205 0.2500 0.0550 Uiso
C12 C 0.47221(18) 0.7586(3) 0.2897(2) 0.0356 Uani
H8 H 0.4539 0.8047 0.3166 0.0430 Uiso
C13 C 0.47188(15) 0.6217(3) 0.2892(2) 0.0259 Uani
C14 C 0.5000 0.5519(4) 0.2500 0.0255 Uani
H9 H 0.5000 0.4594 0.2500 0.0310 Uiso
C15 C 0.43980(14) 0.5469(3) 0.32939(19) 0.0278 Uani
N1 N 0.26972(13) 0.5427(3) 0.25499(18) 0.0283 Uani
N2 N 0.27484(16) 0.5805(3) 0.1863(2) 0.0325 Uani
N3 N 0.23640(15) 0.6843(3) 0.14457(19) 0.0323 Uani
N4 N 0.20467(13) 0.7181(3) 0.18633(17) 0.0267 Uani
N5 N 0.16839(13) 0.9929(3) 0.41569(17) 0.0280 Uani
H10 H 0.1812 1.0112 0.3801 0.0340 Uiso
N6 N 0.13740(13) 1.0208(3) 0.51080(16) 0.0274 Uani
O1 O 0.43057(16) 0.6055(2) 0.3847(2) 0.0378 Uani
O2 O 0.42023(13) 0.4298(3) 0.30396(18) 0.0333 Uani
O3 O 0.45774(16) 0.2599(3) 0.4727(2) 0.0570 Uani
C12A C 0.52779(18) 0.7586(3) 0.2103(2) 0.0356 Uani
H8A H 0.5461 0.8047 0.1834 0.0430 Uiso
C13A C 0.52812(15) 0.6217(3) 0.2108(2) 0.0259 Uani
C15A C 0.56020(14) 0.5469(3) 0.17061(19) 0.0278 Uani
O1A O 0.56943(16) 0.6055(2) 0.1153(2) 0.0378 Uani
O2A O 0.57977(13) 0.4298(3) 0.19604(18) 0.0333 Uani
Cd1A Cd 0.635685(10) 0.40064(2) 0.126328(13) 0.0232 Uani
C1A C 0.79792(14) 0.6268(3) 0.18575(19) 0.0231 Uani
C2A C 0.80867(14) 0.7453(3) 0.15470(18) 0.0233 Uani
H1A H 0.7998 0.8259 0.1717 0.0280 Uiso
C3A C 0.83256(15) 0.7445(3) 0.09837(19) 0.0245 Uani
C4A C 0.84436(19) 0.6229(4) 0.0728(2) 0.0329 Uani
H2A H 0.8597 0.6204 0.0347 0.0390 Uiso
C5A C 0.8336(2) 0.5046(3) 0.1035(3) 0.0371 Uani
H3A H 0.8420 0.4240 0.0860 0.0440 Uiso
C6A C 0.81036(16) 0.5057(3) 0.1597(2) 0.0316 Uani
H4A H 0.8031 0.4262 0.1799 0.0380 Uiso
C7A C 0.77417(15) 0.6287(3) 0.24682(19) 0.0230 Uani
C8A C 0.84383(14) 0.8673(3) 0.06503(18) 0.0238 Uani
C9A C 0.86317(18) 0.8872(3) 0.0061(2) 0.0289 Uani
H5A H 0.8749 0.8202 -0.0188 0.0350 Uiso
C10A C 0.84321(18) 1.0815(3) 0.0378(2) 0.0290 Uani
H6A H 0.8384 1.1730 0.0394 0.0350 Uiso
N1A N 0.73028(13) 0.5427(3) 0.24501(18) 0.0283 Uani
N2A N 0.72516(16) 0.5805(3) 0.3137(2) 0.0325 Uani
N3A N 0.76360(15) 0.6843(3) 0.35543(19) 0.0323 Uani
N4A N 0.79533(13) 0.7181(3) 0.31367(17) 0.0267 Uani
N5A N 0.83161(13) 0.9929(3) 0.08431(17) 0.0280 Uani
H10A H 0.8188 1.0112 0.1199 0.0340 Uiso
N6A N 0.86260(13) 1.0208(3) -0.01080(16) 0.0274 Uani
O3A O 0.54226(16) 0.2599(3) 0.0273(2) 0.0570 Uani
Cd1B Cd 0.864315(10) 0.90064(2) 0.373672(13) 0.0232 Uani
Cd1C Cd 0.135685(10) 0.90064(2) 0.126328(13) 0.0232 Uani
Cd1F Cd 0.135685(10) 1.09936(2) 0.626328(13) 0.0232 Uani
Cd1G Cd 0.864315(10) 1.09936(2) -0.126328(13) 0.0232 Uani
N4B N 0.70467(13) 0.2181(3) 0.18633(17) 0.0267 Uani
N4C N 0.29533(13) 0.2181(3) 0.31367(17) 0.0267 Uani
N6F N 0.36260(13) 0.4792(3) 0.48920(16) 0.0274 Uani
N6G N 0.63740(13) 0.4792(3) 0.01080(16) 0.0274 Uani
O4 O 0.4837(2) 0.1662(6) 0.3195(4) 0.1056 Uani
O5 O 0.1358(3) 0.3611(10) 0.1281(5) 0.1303 Uani
O6 O 0.0462(6) 0.5066(10) 0.9767(6) 0.2136 Uani
loop_
_atom_site_aniso_label
_atom_site_aniso_U_11
_atom_site_aniso_U_22
_atom_site_aniso_U_33
_atom_site_aniso_U_23
_atom_site_aniso_U_13
_atom_site_aniso_U_12
Cd1 0.0294(2) 0.0234(2) 0.02552(19) -0.00439(6) 0.02082(15) -0.00439(6)
C1 0.0231(12) 0.0261(13) 0.0233(12) -0.0009(11) 0.0152(11) 0.0025(11)
C2 0.0265(12) 0.0235(13) 0.0229(12) 0.0008(10) 0.0158(11) 0.0022(10)
C3 0.0250(12) 0.0271(14) 0.0225(11) -0.0004(10) 0.0143(10) 0.0030(11)
C4 0.0422(18) 0.0343(16) 0.0380(17) 0.0017(13) 0.0323(15) 0.0006(13)
C5 0.0517(19) 0.0250(15) 0.0502(18) 0.0027(14) 0.0383(16) -0.0016(14)
C6 0.0401(16) 0.0234(14) 0.0399(16) -0.0001(12) 0.0279(14) 0.0020(12)
C7 0.0254(13) 0.0212(12) 0.0241(12) -0.0034(11) 0.0151(11) 0.0015(11)
C8 0.0274(13) 0.0277(13) 0.0207(12) -0.0001(11) 0.0163(11) 0.0006(11)
C9 0.0385(17) 0.0284(15) 0.0299(15) -0.0009(11) 0.0255(14) -0.0024(11)
C10 0.0396(17) 0.0271(14) 0.0293(15) 0.0008(11) 0.0249(14) 0.0022(11)
C11 0.069(3) 0.025(2) 0.071(3) 0.000 0.057(3) 0.000
C12 0.0459(18) 0.0316(16) 0.0459(17) -0.0039(13) 0.0360(16) 0.0015(13)
C13 0.0251(13) 0.0322(14) 0.0266(13) -0.0014(11) 0.0184(12) -0.0034(11)
C14 0.0265(18) 0.027(2) 0.0298(18) 0.000 0.0201(16) 0.000
C15 0.0223(12) 0.0388(17) 0.0266(12) 0.0000(12) 0.0165(11) -0.0030(11)
N1 0.0360(13) 0.0270(13) 0.0304(12) 0.0029(10) 0.0240(11) 0.0072(11)
N2 0.0402(15) 0.0315(13) 0.0365(14) 0.0033(11) 0.0282(13) 0.0076(11)
N3 0.0439(14) 0.0310(14) 0.0344(12) 0.0051(10) 0.0297(12) 0.0092(11)
N4 0.0342(12) 0.0253(12) 0.0281(11) 0.0024(9) 0.0222(10) 0.0066(10)
N5 0.0372(12) 0.0304(13) 0.0278(11) 0.0026(10) 0.0253(10) 0.0030(10)
N6 0.0373(13) 0.0283(13) 0.0263(11) -0.0027(9) 0.0239(10) 0.0009(10)
O1 0.0454(15) 0.0468(16) 0.0404(14) -0.0114(10) 0.0359(13) -0.0114(10)
O2 0.0382(12) 0.0337(11) 0.0427(13) -0.0041(10) 0.0317(11) -0.0054(10)
O3 0.0495(16) 0.0410(15) 0.0476(15) -0.0050(13) 0.0084(13) 0.0062(12)
C12A 0.0459 0.0316 0.0459 0.0039 0.036 -0.0015
C13A 0.0251 0.0322 0.0266 0.0014 0.0184 0.0034
C15A 0.0223 0.0388 0.0266 0 0.0165 0.003
O1A 0.0454 0.0468 0.0404 0.0114 0.0359 0.0114
O2A 0.0382 0.0337 0.0427 0.0041 0.0317 0.0054
Cd1A 0.0294 0.0234 0.02552 0.00439 0.02082 0.00439
C1A 0.0231 0.0261 0.0233 0.0009 0.0152 -0.0025
C2A 0.0265 0.0235 0.0229 -0.0008 0.0158 -0.0022
C3A 0.025 0.0271 0.0225 0.0004 0.0143 -0.003
C4A 0.0422 0.0343 0.038 -0.0017 0.0323 -0.0006
C5A 0.0517 0.025 0.0502 -0.0027 0.0383 0.0016
C6A 0.0401 0.0234 0.0399 0.0001 0.0279 -0.002
C7A 0.0254 0.0212 0.0241 0.0034 0.0151 -0.0015
C8A 0.0274 0.0277 0.0207 0.0001 0.0163 -0.0006
C9A 0.0385 0.0284 0.0299 0.0009 0.0255 0.0024
C10A 0.0396 0.0271 0.0293 -0.0008 0.0249 -0.0022
N1A 0.036 0.027 0.0304 -0.0029 0.024 -0.0072
N2A 0.0402 0.0315 0.0365 -0.0033 0.0282 -0.0076
N3A 0.0439 0.031 0.0344 -0.0051 0.0297 -0.0092
N4A 0.0342 0.0253 0.0281 -0.0024 0.0222 -0.0066
N5A 0.0372 0.0304 0.0278 -0.0026 0.0253 -0.003
N6A 0.0373 0.0283 0.0263 0.0027 0.0239 -0.0009
O3A 0.0495 0.041 0.0476 0.005 0.0084 -0.0062
Cd1B 0.0294 0.0234 0.02552 -0.00439 0.02082 -0.00439
Cd1C 0.0294 0.0234 0.02552 0.00439 0.02082 0.00439
Cd1F 0.0294 0.0234 0.02552 -0.00439 0.02082 -0.00439
Cd1G 0.0294 0.0234 0.02552 0.00439 0.02082 0.00439
N4B 0.0342 0.0253 0.0281 0.0024 0.0222 0.0066
N4C 0.0342 0.0253 0.0281 -0.0024 0.0222 -0.0066
N6F 0.0373 0.0283 0.0263 -0.0027 0.0239 0.0009
N6G 0.0373 0.0283 0.0263 0.0027 0.0239 -0.0009
O4 0.067(2) 0.108(4) 0.108(4) -0.028(3) 0.030(2) 0.026(3)
O5 0.125(6) 0.149(6) 0.134(7) -0.052(4) 0.084(5) -0.040(4)
O6 0.335(13) 0.176(8) 0.162(8) 0.015(7) 0.161(9) 0.116(9)
loop_
_geom_bond_atom_site_label_1
_geom_bond_atom_site_label_2
_geom_bond_site_symmetry_1
_geom_bond_site_symmetry_2
Cd1 N1 1_555 1_555
C1 C2 1_555 1_555
C2 H1 1_555 1_555
C3 C2 1_555 1_555
C4 C3 1_555 1_555
H2 C4 1_555 1_555
C5 C4 1_555 1_555
H3 C5 1_555 1_555
C6 C1 1_555 1_555
H4 C6 1_555 1_555
C7 C1 1_555 1_555
C8 C3 1_555 1_555
C9 C8 1_555 1_555
H5 C9 1_555 1_555
C10 H6 1_555 1_555
C11 H7 1_555 1_555
C12 C11 1_555 1_555
H8 C12 1_555 1_555
C13 C12 1_555 1_555
C14 C13 1_555 1_555
H9 C14 1_555 1_555
C15 C13 1_555 1_555
N1 C7 1_555 1_555
N2 N1 1_555 1_555
N3 N2 1_555 1_555
N4 C7 1_555 1_555
N5 C8 1_555 1_555
H10 N5 1_555 1_555
N6 C9 1_555 1_555
O1 Cd1 1_555 1_555
O2 Cd1 1_555 1_555
O3 Cd1 1_555 1_555
C12A C11 1_555 1_555
H8A C12A 1_555 1_555
C13A C14 1_555 1_555
C15A C13A 1_555 1_555
O1A C15A 1_555 1_555
O2A C15A 1_555 1_555
Cd1A O1A 1_555 1_555
C1A C2A 1_555 1_555
C2A H1A 1_555 1_555
C3A C2A 1_555 1_555
C4A C3A 1_555 1_555
H2A C4A 1_555 1_555
C5A C4A 1_555 1_555
H3A C5A 1_555 1_555
C6A C1A 1_555 1_555
H4A C6A 1_555 1_555
C7A C1A 1_555 1_555
C8A C3A 1_555 1_555
C9A C8A 1_555 1_555
H5A C9A 1_555 1_555
C10A H6A 1_555 1_555
N1A Cd1A 1_555 1_555
N2A N1A 1_555 1_555
N3A N2A 1_555 1_555
N4A C7A 1_555 1_555
N5A C8A 1_555 1_555
H10A N5A 1_555 1_555
N6A C9A 1_555 1_555
O3A Cd1A 1_555 1_555
Cd1B N4A 1_555 1_555
Cd1C N4 1_555 1_555
Cd1F N6 1_555 1_555
Cd1G N6A 1_555 1_555
N4B Cd1A 1_555 1_555
N4C Cd1 1_555 1_555
N6F Cd1 1_555 1_555
N6G Cd1A 1_555 1_555
C5 C6 1_555 1_555
C10 N5 1_555 1_555
C10 N6 1_555 1_555
C15 O1 1_555 1_555
C15 O2 1_555 1_555
N3 N4 1_555 1_555
C12A C13A 1_555 1_555
O2A Cd1A 1_555 1_555
C5A C6A 1_555 1_555
C7A N1A 1_555 1_555
C10A N5A 1_555 1_555
C10A N6A 1_555 1_555
N3A N4A 1_555 1_555

#END
