
#######################################################################
#
#                 Cambridge Crystallographic Data Centre
#                                CCDC 
#
#######################################################################
#
# If this CIF has been generated from an entry in the Cambridge 
# Structural Database, then it will include bibliographic, chemical, 
# crystal, experimental, refinement or atomic coordinate data resulting 
# from the CCDC's data processing and validation procedures.
#
#######################################################################

data_AHUTIH01
_chemical_formula_moiety         '(C10 H16 La2 O20)n'
_symmetry_cell_setting           monoclinic
_symmetry_space_group_name_H-M   'P 21/c'
_symmetry_Int_Tables_number      14
_space_group_name_Hall           '-P 2ybc'
loop_
_symmetry_equiv_pos_site_id
_symmetry_equiv_pos_as_xyz
1 x,y,z
2 -x,1/2+y,1/2-z
3 -x,-y,-z
4 x,1/2-y,1/2+z
_cell_length_a                   6.1092(2)
_cell_length_b                   7.6866(2)
_cell_length_c                   22.6987(6)
_cell_angle_alpha                90
_cell_angle_beta                 91.6570(10)
_cell_angle_gamma                90
_cell_volume                     1065.46
loop_
_atom_site_label
_atom_site_type_symbol
_atom_site_fract_x
_atom_site_fract_y
_atom_site_fract_z
La1 La 0.54513(2) 0.498283(14) 0.146095(5)
O1 O 0.4889(3) 0.6021(2) 0.24922(7)
O2 O 0.6494(3) 0.7131(2) 0.32980(7)
O3 O 0.7798(3) 0.3598(2) 0.23464(7)
H1 H 0.698(4) 0.276(3) 0.2419(12)
O4 O 0.6002(3) 0.3141(2) 0.35825(7)
H2 H 0.556(4) 0.375(3) 0.3834(10)
O5 O 0.8545(3) 0.0527(2) 0.34533(9)
O6 O 1.1538(3) 0.2107(2) 0.33333(8)
O7 O 0.3765(3) 0.3681(2) 0.05176(7)
O8 O 0.3385(3) 0.3694(2) -0.04630(7)
O9 O 0.8505(3) 0.2933(3) 0.11112(9)
H3 H 0.963(4) 0.323(4) 0.1294(12)
H4 H 0.889(5) 0.270(4) 0.0780(8)
C1 C 0.6386(4) 0.6059(3) 0.28873(9)
C2 C 0.8160(4) 0.4646(3) 0.28555(10)
H9 H 0.9584 0.5220 0.2824
C3 C 0.8174(3) 0.3609(3) 0.34333(9)
H10 H 0.8798 0.4344 0.3749
C4 C 0.9534(4) 0.1942(3) 0.34014(10)
C5 C 0.4176(4) 0.4240(3) 0.00130(10)
La1A La 0.45487(2) -0.001717(14) 0.353905(5)
La1A_2 La 0.45487(2) 0.998283(14) 0.353905(5)
La1A_3 La 1.45487(2) -0.001717(14) 0.353905(5)
La1B La 0.45487(2) 0.501717(14) -0.146095(5)
La1_2 La 0.54513(2) -0.501717(14) 0.146095(5)
La1_3 La -0.45487(2) -0.501717(14) 0.146095(5)
O1A O 0.5111(3) 0.1021(2) 0.25078(7)
O2A O 0.3506(3) 0.2131(2) 0.17020(7)
O2_2 O 0.6494(3) -0.2869(2) 0.32980(7)
O3A O 0.2202(3) -0.1402(2) 0.26536(7)
H1A H 0.302(4) -0.224(3) 0.2581(12)
O4A O 0.3998(3) -0.1859(2) 0.14175(7)
O4A_2 O 0.3998(3) 0.8141(2) 0.14175(7)
H2A H 0.444(4) -0.125(3) 0.1166(10)
H2A_2 H 0.444(4) 0.875(3) 0.1166(10)
O5A O 0.1455(3) -0.4473(2) 0.15467(9)
O5A_2 O 0.1455(3) 0.5527(2) 0.15467(9)
O6A O -0.1538(3) -0.2893(2) 0.16667(8)
O6A_2 O 0.8462(3) 0.7107(2) 0.16667(8)
O6_2 O 0.1538(3) 0.2107(2) 0.33333(8)
O7B O 0.6235(3) 0.6319(2) -0.05176(7)
O7A O 0.6235(3) -0.1319(2) 0.44824(7)
O8B O 0.6615(3) 0.6306(2) 0.04630(7)
O8C O 0.3385(3) 0.1306(2) 0.45370(7)
O9A O 0.1495(3) -0.2067(3) 0.38888(9)
H3A H 0.037(4) -0.177(4) 0.3706(12)
H4A H 0.111(5) -0.230(4) 0.4220(8)
C1A C 0.3614(4) 0.1059(3) 0.21127(9)
C2A C 0.1840(4) -0.0354(3) 0.21445(10)
H9A H 0.0416 0.0220 0.2176
C3A C 0.1826(3) -0.1391(3) 0.15667(9)
H10A H 0.1202 -0.0656 0.1251
C4A C 0.0466(4) -0.3058(3) 0.15986(10)
C5B C 0.5824(4) 0.5760(3) -0.00130(10)
O10 O 0.0902(8) 0.7486(8) 0.0104(2)
H5 H 0.075(11) 0.856(3) 0.013(4)
H6 H -0.023(7) 0.710(7) 0.025(3)
O11 O 0.3677(11) 0.0110(4) 0.0448(2)
H7 H 0.415(12) 0.002(7) 0.0113(16)
H8 H 0.368(10) 0.120(3) 0.050(2)
loop_
_geom_bond_atom_site_label_1
_geom_bond_atom_site_label_2
_geom_bond_site_symmetry_1
_geom_bond_site_symmetry_2
La1 O1 1_555 1_555
O1 C1 1_555 1_555
O2 C1 1_555 1_555
O3 La1 1_555 1_555
H1 O3 1_555 1_555
O4 H2 1_555 1_555
O5 C4 1_555 1_555
O6 C4 1_555 1_555
O7 La1 1_555 1_555
O8 C5 1_555 1_555
O9 La1 1_555 1_555
H3 O9 1_555 1_555
H4 O9 1_555 1_555
O10 H5 1_555 1_555
H6 O10 1_555 1_555
O11 H7 1_555 1_555
H8 O11 1_555 1_555
C1 C2 1_555 1_555
C2 O3 1_555 1_555
H9 C2 1_555 1_555
C3 O4 1_555 1_555
H10 C3 1_555 1_555
C4 C3 1_555 1_555
C5 O7 1_555 1_555
La1A O4 1_555 1_555
La1A_2 O2 1_555 1_555
La1A_3 O6 1_555 1_555
La1B O8 1_555 1_555
La1_2 O4A 1_555 1_555
La1_3 O6A 1_555 1_555
O1A La1A 1_555 1_555
O2A La1 1_555 1_555
O2_2 La1A 1_555 1_555
O3A La1A 1_555 1_555
H1A O3A 1_555 1_555
O4A H2A 1_555 1_555
O4A_2 La1 1_555 1_555
H2A_2 O4A_2 1_555 1_555
O5A La1_2 1_555 1_555
O5A_2 La1 1_555 1_555
O6A C4A 1_555 1_555
O6A_2 La1 1_555 1_555
O6_2 La1A 1_555 1_555
O7B La1B 1_555 1_555
O7A La1A 1_555 1_555
O8B La1 1_555 1_555
O8C La1A 1_555 1_555
O9A La1A 1_555 1_555
H3A O9A 1_555 1_555
H4A O9A 1_555 1_555
C1A O1A 1_555 1_555
C2A O3A 1_555 1_555
H9A C2A 1_555 1_555
C3A O4A 1_555 1_555
H10A C3A 1_555 1_555
C4A O5A 1_555 1_555
C5B C5 1_555 1_555
O5 La1A 1_555 1_555
C2 C3 1_555 1_555
O2A C1A 1_555 1_555
O7B C5B 1_555 1_555
O8B C5B 1_555 1_555
C1A C2A 1_555 1_555
C2A C3A 1_555 1_555
C3A C4A 1_555 1_555

#END
