
#######################################################################
#
#                 Cambridge Crystallographic Data Centre
#                                CCDC 
#
#######################################################################
#
# If this CIF has been generated from an entry in the Cambridge 
# Structural Database, then it will include bibliographic, chemical, 
# crystal, experimental, refinement or atomic coordinate data resulting 
# from the CCDC's data processing and validation procedures.
#
#######################################################################

data_ACOLIP
_chemical_formula_moiety         '(C28 H33 N7 O6 Zn1)n'
_symmetry_cell_setting           monoclinic
_symmetry_space_group_name_H-M   'C c'
_symmetry_Int_Tables_number      9
_space_group_name_Hall           'C -2yc'
loop_
_symmetry_equiv_pos_site_id
_symmetry_equiv_pos_as_xyz
1 x,y,z
2 x,-y,1/2+z
3 1/2+x,1/2+y,z
4 1/2+x,1/2-y,1/2+z
_cell_length_a                   20.661(4)
_cell_length_b                   11.567(2)
_cell_length_c                   14.227(3)
_cell_angle_alpha                90
_cell_angle_beta                 116.01(3)
_cell_angle_gamma                90
_cell_volume                     3055.69
loop_
_atom_site_label
_atom_site_type_symbol
_atom_site_fract_x
_atom_site_fract_y
_atom_site_fract_z
_atom_site_U_iso_or_equiv
_atom_site_thermal_displace_type
C1 C 0.0083(5) 0.4124(6) 0.1180(7) 0.0527 Uani
C2 C -0.0550(4) 0.3346(7) 0.0540(6) 0.0414 Uani
C3 C -0.1164(4) 0.3798(6) -0.0279(6) 0.0401 Uani
C4 C -0.1695(4) 0.2948(8) -0.0891(6) 0.0508 Uani
H1 H -0.2109 0.3199 -0.1461 0.0610 Uiso
C5 C -0.1615(4) 0.1783(7) -0.0670(5) 0.0406 Uani
C6 C -0.0989(4) 0.1460(6) 0.0158(6) 0.0446 Uani
H2 H -0.0932 0.0676 0.0317 0.0540 Uiso
C7 C -0.0452(5) 0.2151(6) 0.0760(7) 0.0460 Uani
H3 H -0.0034 0.1863 0.1299 0.0550 Uiso
C8 C -0.2158(4) 0.0891(8) -0.1298(6) 0.0421 Uani
C9 C 0.1742(4) 0.6346(7) 0.4337(5) 0.0429 Uani
H4 H 0.2231 0.6416 0.4523 0.0510 Uiso
C10 C 0.0564(4) 0.5912(7) 0.3429(6) 0.0462 Uani
H5 H 0.0131 0.5631 0.2917 0.0550 Uiso
C11 C 0.0656(5) 0.6603(7) 0.4298(6) 0.0452 Uani
H6 H 0.0292 0.6859 0.4465 0.0550 Uiso
C12 C 0.1699(4) 0.7710(7) 0.5704(6) 0.0416 Uani
H7 H 0.1484 0.7619 0.6185 0.0500 Uiso
H8 H 0.2213 0.7582 0.6092 0.0500 Uiso
C13 C 0.1570(3) 0.8904(4) 0.5284(4) 0.0537 Uani
C14 C 0.1980(3) 0.9421(4) 0.4844(4) 0.0603 Uani
H9 H 0.2357 0.9016 0.4807 0.0730 Uiso
C15 C 0.1825(3) 1.0542(4) 0.4457(4) 0.0494 Uani
H10 H 0.2099 1.0887 0.4162 0.0600 Uiso
C16 C 0.1261(3) 1.1146(4) 0.4511(3) 0.0368 Uani
C17 C 0.0851(2) 1.0629(4) 0.4952(3) 0.0383 Uani
H11 H 0.0474 1.1033 0.4988 0.0460 Uiso
C18 C 0.1006(3) 0.9508(4) 0.5338(3) 0.0419 Uani
H12 H 0.0732 0.9162 0.5633 0.0500 Uiso
C19 C 0.1034(5) 1.2370(6) 0.4075(5) 0.0427 Uani
H13 H 0.1185 1.2544 0.3534 0.0510 Uiso
H14 H 0.0517 1.2472 0.3796 0.0510 Uiso
C20 C 0.1063(5) 1.3718(7) 0.5566(6) 0.0495 Uani
H15 H 0.0571 1.3721 0.5378 0.0590 Uiso
C21 C 0.2278(4) 1.4147(7) 0.6361(7) 0.0461 Uani
H16 H 0.2717 1.4465 0.6822 0.0560 Uiso
C22 C 0.2170(4) 1.3434(7) 0.5489(6) 0.0408 Uani
H17 H 0.2513 1.3225 0.5264 0.0490 Uiso
N1 N 0.1251(4) 0.5733(6) 0.3488(5) 0.0414 Uani
N2 N 0.1390(4) 0.6832(6) 0.4860(6) 0.0454 Uani
N3 N 0.1602(3) 1.4303(6) 0.6421(5) 0.0380 Uani
N4 N 0.1427(4) 1.3102(5) 0.5026(5) 0.0401 Uani
N5 N -0.1325(3) 0.4851(5) -0.0400(5) 0.0601 Uani
H32 H -0.1047 0.5350 0.0040 0.0720 Uiso
H33 H -0.1713 0.5074 -0.0923 0.0720 Uiso
O1 O -0.0057(3) 0.5197(4) 0.1039(5) 0.0456 Uani
O2 O 0.0669(3) 0.3689(4) 0.1780(4) 0.0385 Uani
O3 O -0.2740(3) 0.1327(6) -0.1907(4) 0.0488 Uani
O4 O -0.2088(3) -0.0208(5) -0.1206(5) 0.0492 Uani
Zn1 Zn 0.14187(6) 0.48701(5) 0.24376(7) 0.0358 Uani
N3A N 0.1602(3) 0.5697(6) 0.1421(5) 0.0380 Uani
O3C O 0.2260(3) 0.3673(6) 0.3093(4) 0.0488 Uani
Zn1A Zn 0.14187(6) 1.51299(5) 0.74376(7) 0.0358 Uani
Zn1C Zn -0.35813(6) 0.01299(5) -0.25624(7) 0.0358 Uani
C23 C 0.3148(3) 0.2222(5) 0.8389(5) 0.0421 Uani
H18 H 0.2924 0.2684 0.8695 0.0510 Uiso
C24 C 0.2025(4) 0.1160(7) 0.7351(6) 0.0581 Uani
H19 H 0.1979 0.0423 0.7625 0.0870 Uiso
H20 H 0.1738 0.1169 0.6607 0.0870 Uiso
H21 H 0.1862 0.1758 0.7665 0.0870 Uiso
C25 C 0.3129(4) 0.0634(5) 0.7013(5) 0.0454 Uani
H22 H 0.3498 0.1076 0.6942 0.0680 Uiso
H23 H 0.2765 0.0428 0.6333 0.0680 Uiso
H24 H 0.3336 -0.0055 0.7407 0.0680 Uiso
N6 N 0.2788(3) 0.1364(5) 0.7592(4) 0.0507 Uani
O5 O 0.3796(3) 0.2256(4) 0.8607(4) 0.0465 Uani
C26 C 0.4110(4) 0.2715(7) 0.1014(5) 0.0475 Uani
H25 H 0.4315 0.2287 0.0661 0.0570 Uiso
C27 C 0.4139(3) 0.4156(5) 0.2351(5) 0.0394 Uani
H26 H 0.3629 0.4055 0.1960 0.0590 Uiso
H27 H 0.4251 0.4966 0.2433 0.0590 Uiso
H28 H 0.4298 0.3804 0.3027 0.0590 Uiso
C28 C 0.5259(4) 0.3796(7) 0.1838(5) 0.0495 Uani
H29 H 0.5393 0.3148 0.1540 0.0740 Uiso
H30 H 0.5600 0.3884 0.2557 0.0740 Uiso
H31 H 0.5254 0.4485 0.1458 0.0740 Uiso
N7 N 0.4517(3) 0.3595(5) 0.1773(4) 0.0458 Uani
O6 O 0.3458(2) 0.2557(4) 0.0854(3) 0.0458 Uani
loop_
_atom_site_aniso_label
_atom_site_aniso_U_11
_atom_site_aniso_U_22
_atom_site_aniso_U_33
_atom_site_aniso_U_23
_atom_site_aniso_U_13
_atom_site_aniso_U_12
C1 0.059(6) 0.033(4) 0.049(5) -0.012(4) 0.008(4) -0.002(4)
C2 0.039(4) 0.035(4) 0.048(4) -0.005(3) 0.017(4) -0.010(3)
C3 0.034(4) 0.029(4) 0.045(4) 0.020(3) 0.006(3) -0.013(3)
C4 0.036(4) 0.059(5) 0.035(4) 0.013(4) -0.005(3) -0.011(4)
C5 0.052(5) 0.044(5) 0.032(4) -0.014(3) 0.024(4) -0.014(4)
C6 0.048(4) 0.030(4) 0.041(4) 0.005(3) 0.006(4) -0.014(3)
C7 0.059(5) 0.021(3) 0.074(6) -0.002(3) 0.044(5) -0.013(3)
C8 0.024(4) 0.051(5) 0.035(4) 0.010(3) -0.002(3) -0.008(3)
C9 0.031(4) 0.069(5) 0.026(3) -0.002(3) 0.010(3) -0.012(4)
C10 0.047(5) 0.049(5) 0.042(4) -0.009(3) 0.019(4) -0.027(4)
C11 0.055(5) 0.035(4) 0.042(4) 0.001(4) 0.018(4) -0.001(4)
C12 0.025(3) 0.048(4) 0.052(4) 0.000(3) 0.017(3) -0.005(3)
C13 0.071(7) 0.034(4) 0.058(5) 0.006(4) 0.030(5) 0.009(4)
C14 0.051(6) 0.043(5) 0.077(6) 0.022(5) 0.019(5) 0.004(4)
C15 0.030(4) 0.038(4) 0.059(5) 0.017(4) 0.000(4) 0.006(3)
C16 0.029(4) 0.035(4) 0.032(3) -0.012(3) 0.000(3) -0.007(3)
C17 0.036(4) 0.051(4) 0.019(3) 0.003(3) 0.004(3) 0.015(3)
C18 0.057(5) 0.033(4) 0.031(3) -0.007(3) 0.015(4) 0.001(4)
C19 0.053(4) 0.041(4) 0.027(3) -0.003(3) 0.011(3) 0.007(3)
C20 0.053(5) 0.032(4) 0.049(4) 0.013(3) 0.009(4) 0.016(4)
C21 0.036(4) 0.039(4) 0.052(4) 0.015(4) 0.009(3) 0.013(3)
C22 0.040(4) 0.047(5) 0.034(4) 0.023(3) 0.015(3) 0.012(4)
N1 0.058(5) 0.031(3) 0.026(3) -0.002(3) 0.010(3) -0.004(3)
N2 0.054(4) 0.036(4) 0.048(4) -0.007(3) 0.024(3) -0.022(3)
N3 0.039(4) 0.043(4) 0.035(3) 0.005(3) 0.019(3) -0.007(3)
N4 0.045(4) 0.036(4) 0.030(3) -0.014(3) 0.008(3) -0.008(3)
N5 0.052(3) 0.052(4) 0.049(3) 0.021(3) -0.003(3) -0.017(3)
O1 0.046(4) 0.033(3) 0.051(3) -0.011(3) 0.015(3) -0.014(3)
O2 0.043(3) 0.024(2) 0.038(3) -0.0066(19) 0.008(2) -0.010(2)
O3 0.023(2) 0.069(4) 0.043(3) -0.014(3) 0.004(2) 0.006(2)
O4 0.050(4) 0.055(4) 0.045(3) -0.017(3) 0.023(3) 0.001(3)
Zn1 0.0352(3) 0.0364(3) 0.0345(3) 0.0007(5) 0.0140(2) -0.0091(5)
N3A 0.039 0.043 0.035 -0.005 0.019 0.007
O3C 0.023 0.069 0.043 0.014 0.004 -0.006
Zn1A 0.0352 0.0364 0.0345 -0.0007 0.014 0.0091
Zn1C 0.0352 0.0364 0.0345 -0.0007 0.014 0.0091
C23 0.034(3) 0.039(3) 0.054(4) -0.005(3) 0.020(3) -0.010(3)
C24 0.066(5) 0.053(4) 0.053(4) 0.016(3) 0.024(4) 0.021(4)
C25 0.049(4) 0.037(3) 0.039(3) 0.009(3) 0.009(3) 0.002(3)
N6 0.060(4) 0.043(3) 0.037(3) 0.015(2) 0.010(3) -0.012(3)
O5 0.051(3) 0.044(3) 0.041(3) -0.012(2) 0.017(2) -0.014(2)
C26 0.045(4) 0.060(5) 0.033(3) 0.008(3) 0.013(3) 0.028(3)
C27 0.035(3) 0.038(3) 0.050(3) -0.008(3) 0.023(3) -0.011(3)
C28 0.050(4) 0.063(4) 0.033(3) -0.002(3) 0.016(3) -0.011(3)
N7 0.039(3) 0.042(3) 0.045(3) 0.017(2) 0.008(2) 0.017(2)
O6 0.039(2) 0.050(3) 0.050(3) -0.020(2) 0.021(2) -0.008(2)
loop_
_geom_bond_atom_site_label_1
_geom_bond_atom_site_label_2
_geom_bond_site_symmetry_1
_geom_bond_site_symmetry_2
C1 C2 1_555 1_555
C2 C3 1_555 1_555
C3 C4 1_555 1_555
C4 H1 1_555 1_555
C5 C4 1_555 1_555
C6 C5 1_555 1_555
H2 C6 1_555 1_555
C7 C2 1_555 1_555
H3 C7 1_555 1_555
C8 C5 1_555 1_555
C9 H4 1_555 1_555
C10 H5 1_555 1_555
C11 C10 1_555 1_555
H6 C11 1_555 1_555
C12 H7 1_555 1_555
H8 C12 1_555 1_555
C13 C12 1_555 1_555
C14 C13 1_555 1_555
H9 C14 1_555 1_555
C15 C14 1_555 1_555
H10 C15 1_555 1_555
C16 C15 1_555 1_555
C17 C16 1_555 1_555
H11 C17 1_555 1_555
C18 C13 1_555 1_555
H12 C18 1_555 1_555
C19 C16 1_555 1_555
H13 C19 1_555 1_555
H14 C19 1_555 1_555
C20 H15 1_555 1_555
C21 H16 1_555 1_555
C22 C21 1_555 1_555
H17 C22 1_555 1_555
C23 H18 1_555 1_555
C24 H19 1_555 1_555
H20 C24 1_555 1_555
H21 C24 1_555 1_555
C25 H22 1_555 1_555
H23 C25 1_555 1_555
H24 C25 1_555 1_555
C26 H25 1_555 1_555
C27 H26 1_555 1_555
H27 C27 1_555 1_555
H28 C27 1_555 1_555
C28 H29 1_555 1_555
H30 C28 1_555 1_555
H31 C28 1_555 1_555
N1 C9 1_555 1_555
N2 C9 1_555 1_555
N3 C20 1_555 1_555
N4 C19 1_555 1_555
N5 C3 1_555 1_555
H32 N5 1_555 1_555
H33 N5 1_555 1_555
N6 C23 1_555 1_555
N7 C26 1_555 1_555
O1 C1 1_555 1_555
O2 C1 1_555 1_555
O3 C8 1_555 1_555
O4 C8 1_555 1_555
O5 C23 1_555 1_555
O6 C26 1_555 1_555
Zn1 N1 1_555 1_555
N3A Zn1 1_555 1_555
O3C Zn1 1_555 1_555
Zn1A N3 1_555 1_555
Zn1C O3 1_555 1_555
C6 C7 1_555 1_555
C10 N1 1_555 1_555
C11 N2 1_555 1_555
C12 N2 1_555 1_555
C17 C18 1_555 1_555
C20 N4 1_555 1_555
C21 N3 1_555 1_555
C22 N4 1_555 1_555
C24 N6 1_555 1_555
C25 N6 1_555 1_555
C27 N7 1_555 1_555
C28 N7 1_555 1_555
O2 Zn1 1_555 1_555

#END
