
#######################################################################
#
#                 Cambridge Crystallographic Data Centre
#                                CCDC 
#
#######################################################################
#
# If this CIF has been generated from an entry in the Cambridge 
# Structural Database, then it will include bibliographic, chemical, 
# crystal, experimental, refinement or atomic coordinate data resulting 
# from the CCDC's data processing and validation procedures.
#
#######################################################################

data_ACOLEL
_chemical_formula_moiety         '(C130 H99 Mn5 N25 O22)n'
_symmetry_cell_setting           monoclinic
_symmetry_space_group_name_H-M   'C c'
_symmetry_Int_Tables_number      9
_space_group_name_Hall           'C -2yc'
loop_
_symmetry_equiv_pos_site_id
_symmetry_equiv_pos_as_xyz
1 x,y,z
2 x,-y,1/2+z
3 1/2+x,1/2+y,z
4 1/2+x,1/2-y,1/2+z
_cell_length_a                   34.569(3)
_cell_length_b                   17.656(2)
_cell_length_c                   20.504(2)
_cell_angle_alpha                90
_cell_angle_beta                 108.326(3)
_cell_angle_gamma                90
_cell_volume                     11879.9
loop_
_atom_site_label
_atom_site_type_symbol
_atom_site_fract_x
_atom_site_fract_y
_atom_site_fract_z
_atom_site_U_iso_or_equiv
_atom_site_thermal_displace_type
C1 C 0.56140(12) -0.0219(2) 0.34232(19) 0.0362 Uani
C2 C 0.52395(13) -0.0071(2) 0.2912(2) 0.0441 Uani
C3 C 0.52358(13) 0.0067(2) 0.2246(2) 0.0384 Uani
H1 H 0.4989 0.0153 0.1904 0.0460 Uiso
C4 C 0.56023(14) 0.0079(3) 0.2079(2) 0.0476 Uani
C5 C 0.59763(13) -0.0077(2) 0.2604(2) 0.0383 Uani
H2 H 0.6221 -0.0083 0.2506 0.0460 Uiso
C6 C 0.59660(13) -0.0219(2) 0.3259(2) 0.0423 Uani
H3 H 0.6210 -0.0320 0.3604 0.0510 Uiso
C7 C 0.56182(12) -0.0471(2) 0.4130(2) 0.0352 Uani
C8 C 0.55986(13) 0.0318(2) 0.13838(19) 0.0392 Uani
C9 C 0.64195(14) 0.1650(3) 0.1175(2) 0.0445 Uani
H4 H 0.6560 0.1202 0.1172 0.0530 Uiso
C10 C 0.59188(14) 0.2520(3) 0.1067(2) 0.0582 Uani
H5 H 0.5661 0.2733 0.0977 0.0700 Uiso
C11 C 0.62737(12) 0.2906(3) 0.1344(2) 0.0492 Uani
H6 H 0.6303 0.3417 0.1457 0.0590 Uiso
C12 C 0.69976(13) 0.2492(3) 0.1770(2) 0.0428 Uani
C13 C 0.71576(13) 0.3205(3) 0.1988(2) 0.0451 Uani
H7 H 0.6992 0.3631 0.1866 0.0540 Uiso
C14 C 0.75625(13) 0.3284(3) 0.2386(2) 0.0437 Uani
H8 H 0.7668 0.3761 0.2534 0.0530 Uiso
C15 C 0.78104(12) 0.2646(3) 0.2562(2) 0.0510 Uani
C16 C 0.76505(14) 0.1928(3) 0.2350(3) 0.0530 Uani
H9 H 0.7816 0.1502 0.2470 0.0630 Uiso
C17 C 0.72445(15) 0.1851(3) 0.1958(2) 0.0568 Uani
H10 H 0.7137 0.1373 0.1821 0.0680 Uiso
C18 C 0.82465(12) 0.2744(2) 0.2949(2) 0.0437 Uani
C19 C 0.84821(12) 0.3406(2) 0.3021(2) 0.0403 Uani
H11 H 0.8370 0.3841 0.2778 0.0490 Uiso
C20 C 0.88840(12) 0.3411(3) 0.3459(2) 0.0450 Uani
H12 H 0.9039 0.3852 0.3521 0.0540 Uiso
C21 C 0.90499(14) 0.2751(3) 0.3800(2) 0.0507 Uani
C22 C 0.88404(14) 0.2079(3) 0.3710(2) 0.0513 Uani
H13 H 0.8964 0.1627 0.3898 0.0620 Uiso
C23 C 0.84460(13) 0.2113(2) 0.3333(2) 0.0455 Uani
H14 H 0.8290 0.1682 0.3324 0.0550 Uiso
C24 C 0.96766(14) 0.3425(3) 0.4542(3) 0.0553 Uani
H15 H 0.9569 0.3912 0.4508 0.0660 Uiso
C25 C 0.97464(14) 0.2190(3) 0.4407(2) 0.0494 Uani
H16 H 0.9686 0.1688 0.4279 0.0590 Uiso
C26 C 1.01100(14) 0.2441(3) 0.4769(2) 0.0501 Uani
H17 H 1.0346 0.2150 0.4911 0.0600 Uiso
Mn1 Mn 0.55735(3) 0.10402(4) 0.02374(4) 0.0434 Uani
N1 N 0.48616(11) -0.0085(2) 0.2994(2) 0.0473 Uani
H18 H 0.4648 -0.0012 0.2646 0.0570 Uiso
H19 H 0.4838 -0.0168 0.3393 0.0570 Uiso
N2 N 0.59916(12) 0.1740(2) 0.0931(2) 0.0528 Uani
N3 N 0.65973(11) 0.2357(2) 0.14250(18) 0.0390 Uani
N4 N 0.94610(13) 0.2792(2) 0.4241(2) 0.0538 Uani
N5 N 1.00839(13) 0.3234(3) 0.4908(2) 0.0559 Uani
O1 O 0.59162(10) -0.08098(19) 0.45135(16) 0.0489 Uani
O2 O 0.53016(9) -0.02999(17) 0.42682(16) 0.0400 Uani
O3 O 0.52891(9) 0.05785(18) 0.09777(16) 0.0432 Uani
O4 O 0.59078(10) 0.02770(18) 0.11895(16) 0.0442 Uani
Mn1C Mn 1.05735(3) 0.39598(4) 0.52374(4) 0.0434 Uani
Mn1A Mn 0.55735(3) -0.10402(4) 0.52374(4) 0.0434 Uani
N5C N 0.50839(13) 0.1766(3) -0.0092(2) 0.0559 Uani
O1A O 0.59162(10) 0.08098(19) -0.04865(16) 0.0489 Uani
O2A O 0.53016(9) 0.02999(17) -0.07318(16) 0.0400 Uani
C27 C 0.41903(13) 0.5094(2) 0.3998(2) 0.0409 Uani
C28 C 0.38277(13) 0.4914(3) 0.3459(2) 0.0466 Uani
C29 C 0.38449(12) 0.4754(2) 0.2812(2) 0.0382 Uani
H20 H 0.3605 0.4646 0.2461 0.0460 Uiso
C30 C 0.42117(12) 0.4750(2) 0.26697(19) 0.0332 Uani
C31 C 0.45714(13) 0.4916(2) 0.32026(19) 0.0390 Uani
H21 H 0.4820 0.4914 0.3115 0.0470 Uiso
C32 C 0.45609(12) 0.5083(2) 0.38639(19) 0.0388 Uani
H22 H 0.4801 0.5187 0.4214 0.0460 Uiso
C33 C 0.41873(13) 0.5335(3) 0.4665(2) 0.0474 Uani
C34 C 0.42296(12) 0.4593(3) 0.1969(2) 0.0422 Uani
C35 C 0.50550(15) 0.3395(3) 0.1562(2) 0.0543 Uani
H23 H 0.5152 0.3877 0.1710 0.0650 Uiso
C36 C 0.46308(15) 0.2416(3) 0.1037(2) 0.0479 Uani
H24 H 0.4406 0.2137 0.0783 0.0580 Uiso
C37 C 0.50362(13) 0.2133(2) 0.13522(19) 0.0417 Uani
H25 H 0.5116 0.1631 0.1346 0.0500 Uiso
C38 C 0.57104(14) 0.2743(3) 0.2075(2) 0.0449 Uani
C39 C 0.59350(14) 0.2103(3) 0.2043(2) 0.0539 Uani
H26 H 0.5803 0.1667 0.1832 0.0640 Uiso
C40 C 0.63318(14) 0.2109(3) 0.2309(3) 0.0604 Uani
H27 H 0.6472 0.1682 0.2239 0.0720 Uiso
C41 C 0.65672(11) 0.2712(2) 0.2696(2) 0.0416 Uani
C42 C 0.63429(13) 0.3383(3) 0.2697(2) 0.0486 Uani
H28 H 0.6477 0.3820 0.2901 0.0580 Uiso
C43 C 0.59313(13) 0.3390(3) 0.2400(2) 0.0521 Uani
H29 H 0.5790 0.3835 0.2411 0.0630 Uiso
C44 C 0.69784(13) 0.2547(3) 0.3110(2) 0.0513 Uani
C45 C 0.70947(14) 0.1798(3) 0.3295(3) 0.0546 Uani
H30 H 0.6928 0.1397 0.3081 0.0660 Uiso
C46 C 0.74605(13) 0.1665(3) 0.3801(2) 0.0465 Uani
H31 H 0.7541 0.1169 0.3926 0.0560 Uiso
C47 C 0.77093(14) 0.2255(3) 0.4124(2) 0.0481 Uani
C48 C 0.75941(13) 0.2993(3) 0.3929(2) 0.0486 Uani
H32 H 0.7763 0.3391 0.4140 0.0580 Uiso
C49 C 0.72291(14) 0.3143(3) 0.3420(2) 0.0530 Uani
H33 H 0.7153 0.3639 0.3289 0.0630 Uiso
C50 C 0.82668(14) 0.1540(3) 0.4889(2) 0.0489 Uani
H34 H 0.8182 0.1087 0.4657 0.0590 Uiso
C51 C 0.82904(12) 0.2779(2) 0.51823(18) 0.0374 Uani
H35 H 0.8231 0.3292 0.5180 0.0450 Uiso
C52 C 0.86332(14) 0.2417(2) 0.5657(2) 0.0460 Uani
H36 H 0.8829 0.2639 0.6028 0.0550 Uiso
Mn2 Mn 0.41581(3) 0.39911(4) 0.07705(4) 0.0400 Uani
N6 N 0.34418(11) 0.49717(19) 0.35243(17) 0.0414 Uani
H37 H 0.3230 0.4909 0.3171 0.0490 Uiso
H38 H 0.3414 0.5071 0.3918 0.0490 Uiso
N7 N 0.46381(11) 0.3198(2) 0.11865(17) 0.0393 Uani
N8 N 0.52872(13) 0.2721(2) 0.1664(2) 0.0538 Uani
N9 N 0.80595(12) 0.2250(2) 0.47245(19) 0.0463 Uani
N10 N 0.86142(12) 0.1636(2) 0.54461(19) 0.0472 Uani
O5 O 0.45043(9) 0.55496(19) 0.51087(15) 0.0420 Uani
O6 O 0.38757(9) 0.53124(17) 0.48289(15) 0.0405 Uani
O7 O 0.39133(9) 0.43187(17) 0.15748(14) 0.0368 Uani
O8 O 0.45057(10) 0.47409(19) 0.17398(17) 0.0466 Uani
Mn2C Mn 0.91581(3) 0.10089(4) 0.57705(4) 0.0400 Uani
Mn2A Mn 0.41581(3) 0.60089(4) 0.57705(4) 0.0400 Uani
N10C N 0.36142(12) 0.3364(2) 0.04461(19) 0.0472 Uani
O5A O 0.45043(9) 0.44504(19) 0.01087(15) 0.0420 Uani
O6A O 0.38757(9) 0.46876(17) -0.01711(15) 0.0405 Uani
C53 C 0.38287(13) -0.0184(2) 0.5660(2) 0.0384 Uani
C54 C 0.34741(13) -0.0044(2) 0.51517(19) 0.0378 Uani
C55 C 0.34740(14) 0.0105(2) 0.4476(2) 0.0411 Uani
H39 H 0.3231 0.0203 0.4130 0.0490 Uiso
C56 C 0.38351(13) 0.0105(2) 0.4335(2) 0.0387 Uani
C57 C 0.42019(13) 0.0009(2) 0.4865(2) 0.0411 Uani
H40 H 0.4447 0.0060 0.4773 0.0490 Uiso
C58 C 0.42051(13) -0.0161(2) 0.5525(2) 0.0389 Uani
H41 H 0.4449 -0.0257 0.5871 0.0470 Uiso
C59 C 0.38304(13) -0.0430(2) 0.6369(2) 0.0407 Uani
C60 C 0.38530(13) 0.0314(3) 0.3636(2) 0.0431 Uani
C61 C 0.47247(12) 0.1639(2) 0.3512(2) 0.0368 Uani
H42 H 0.4770 0.1227 0.3809 0.0440 Uiso
C62 C 0.44353(13) 0.2491(2) 0.2658(2) 0.0390 Uani
H43 H 0.4246 0.2731 0.2291 0.0470 Uiso
C63 C 0.48140(12) 0.2757(2) 0.2993(2) 0.0425 Uani
H44 H 0.4931 0.3196 0.2888 0.0510 Uiso
C64 C 0.54314(13) 0.2288(2) 0.3997(2) 0.0422 Uani
C65 C 0.56109(13) 0.1676(2) 0.4408(2) 0.0419 Uani
H45 H 0.5465 0.1230 0.4389 0.0500 Uiso
C66 C 0.60087(14) 0.1731(2) 0.4847(2) 0.0505 Uani
H46 H 0.6129 0.1322 0.5121 0.0600 Uiso
C67 C 0.62271(14) 0.2398(2) 0.4875(2) 0.0500 Uani
C68 C 0.60477(15) 0.3010(3) 0.4464(2) 0.0548 Uani
H47 H 0.6194 0.3456 0.4483 0.0660 Uiso
C69 C 0.56498(12) 0.2955(2) 0.4026(2) 0.0404 Uani
H48 H 0.5530 0.3364 0.3751 0.0490 Uiso
C70 C 0.66526(15) 0.2552(3) 0.5303(2) 0.0509 Uani
C71 C 0.68797(14) 0.1915(3) 0.5414(2) 0.0489 Uani
H49 H 0.6767 0.1479 0.5175 0.0580 Uiso
C72 C 0.72747(14) 0.1877(3) 0.5869(2) 0.0505 Uani
H50 H 0.7418 0.1424 0.5964 0.0600 Uiso
C73 C 0.74439(13) 0.2562(2) 0.6174(2) 0.0462 Uani
C74 C 0.72288(12) 0.3219(2) 0.6048(2) 0.0432 Uani
H51 H 0.7353 0.3663 0.6255 0.0520 Uiso
C75 C 0.68306(12) 0.3244(3) 0.5623(2) 0.0460 Uani
H52 H 0.6683 0.3694 0.5547 0.0550 Uiso
C76 C 0.81113(12) 0.3160(2) 0.6835(2) 0.0411 Uani
H53 H 0.8023 0.3647 0.6687 0.0490 Uiso
C77 C 0.81284(12) 0.1899(2) 0.6996(2) 0.0393 Uani
H54 H 0.8052 0.1393 0.6981 0.0470 Uiso
C78 C 0.85079(11) 0.2183(2) 0.73672(19) 0.0350 Uani
H55 H 0.8728 0.1897 0.7628 0.0420 Uiso
Mn3 Mn 0.38421(3) 0.10253(4) 0.24978(4) 0.0390 Uani
N11 N 0.30827(11) -0.0064(2) 0.51562(19) 0.0465 Uani
H56 H 0.3042 -0.0182 0.5556 0.0560 Uiso
H57 H 0.2861 0.0035 0.4794 0.0560 Uiso
N12 N 0.43687(12) 0.1768(2) 0.29579(18) 0.0442 Uani
N13 N 0.50015(12) 0.22375(18) 0.35424(17) 0.0397 Uani
N14 N 0.78772(10) 0.2488(2) 0.66492(19) 0.0428 Uani
N15 N 0.85038(11) 0.2966(2) 0.72845(18) 0.0429 Uani
O9 O 0.41454(9) -0.07034(17) 0.68058(15) 0.0400 Uani
O10 O 0.35187(9) -0.03243(17) 0.65094(14) 0.0403 Uani
O11 O 0.35299(9) 0.05636(17) 0.32358(15) 0.0393 Uani
O12 O 0.41440(9) 0.02951(16) 0.33961(15) 0.0387 Uani
Mn3C Mn 0.88421(3) 0.39747(4) 0.74978(4) 0.0390 Uani
Mn3A Mn 0.38421(3) -0.10253(4) 0.74978(4) 0.0390 Uani
N15C N 0.35038(11) 0.2034(2) 0.22845(18) 0.0429 Uani
O9A O 0.41454(9) 0.07034(17) 0.18058(15) 0.0400 Uani
O10A O 0.35187(9) 0.03243(17) 0.15094(14) 0.0403 Uani
C79 C 0.09848(13) -0.0139(2) 0.67730(19) 0.0381 Uani
C80 C 0.06335(11) 0.0030(2) 0.62494(19) 0.0323 Uani
C81 C 0.06471(11) 0.0179(2) 0.55660(19) 0.0337 Uani
H58 H 0.0407 0.0267 0.5210 0.0410 Uiso
C82 C 0.10137(12) 0.0189(3) 0.5443(2) 0.0405 Uani
C83 C 0.13672(12) 0.0044(2) 0.59731(19) 0.0405 Uani
H59 H 0.1616 0.0059 0.5889 0.0490 Uiso
C84 C 0.13587(12) -0.0125(2) 0.6634(2) 0.0419 Uani
H60 H 0.1600 -0.0229 0.6983 0.0500 Uiso
C85 C 0.09710(12) -0.0327(2) 0.7434(2) 0.0381 Uani
C86 C 0.10181(13) 0.0342(2) 0.47317(19) 0.0403 Uani
C87 C 0.18532(12) 0.1546(2) 0.4327(2) 0.0406 Uani
H61 H 0.1969 0.1110 0.4214 0.0490 Uiso
C88 C 0.13809(14) 0.2431(3) 0.4377(2) 0.0475 Uani
H62 H 0.1136 0.2685 0.4311 0.0570 Uiso
C89 C 0.17750(13) 0.2694(3) 0.4765(2) 0.0450 Uani
H63 H 0.1833 0.3152 0.4999 0.0540 Uiso
C90 C 0.24886(14) 0.2209(3) 0.5162(2) 0.0492 Uani
C91 C 0.26521(15) 0.2913(3) 0.5414(2) 0.0539 Uani
H64 H 0.2485 0.3338 0.5342 0.0650 Uiso
C92 C 0.30612(14) 0.2978(3) 0.5768(2) 0.0495 Uani
H65 H 0.3168 0.3448 0.5937 0.0600 Uiso
C93 C 0.33165(12) 0.2349(2) 0.5877(2) 0.0423 Uani
C94 C 0.31537(14) 0.1647(2) 0.5623(2) 0.0471 Uani
H66 H 0.3322 0.1223 0.5692 0.0560 Uiso
C95 C 0.27406(13) 0.1580(2) 0.5268(2) 0.0437 Uani
H67 H 0.2633 0.1110 0.5100 0.0520 Uiso
C96 C 0.37609(13) 0.2435(2) 0.6273(2) 0.0429 Uani
C97 C 0.39702(13) 0.3135(2) 0.6356(2) 0.0431 Uani
H68 H 0.3835 0.3572 0.6154 0.0520 Uiso
C98 C 0.43793(14) 0.3162(3) 0.6742(2) 0.0549 Uani
H69 H 0.4516 0.3624 0.6804 0.0660 Uiso
C99 C 0.45848(14) 0.2526(3) 0.7031(2) 0.0526 Uani
C100 C 0.43823(12) 0.1838(2) 0.6973(2) 0.0419 Uani
H70 H 0.4521 0.1407 0.7185 0.0500 Uiso
C101 C 0.39744(13) 0.1798(2) 0.6601(2) 0.0404 Uani
H71 H 0.3839 0.1338 0.6567 0.0480 Uiso
C102 C 0.52109(14) 0.3178(2) 0.7678(2) 0.0416 Uani
H72 H 0.5096 0.3659 0.7633 0.0500 Uiso
C103 C 0.52878(12) 0.1896(2) 0.75692(18) 0.0355 Uani
H73 H 0.5233 0.1392 0.7441 0.0420 Uiso
C104 C 0.56666(14) 0.2208(3) 0.7985(2) 0.0455 Uani
H74 H 0.5905 0.1935 0.8180 0.0550 Uiso
Mn4 Mn 0.09279(2) 0.10245(4) 0.35211(4) 0.0336 Uani
N16 N 0.02510(10) -0.00057(16) 0.63207(18) 0.0354 Uani
H75 H 0.0223 -0.0139 0.6707 0.0420 Uiso
H76 H 0.0040 0.0105 0.5979 0.0420 Uiso
N17 N 0.14319(10) 0.1717(2) 0.41125(18) 0.0378 Uani
N18 N 0.20673(12) 0.2135(2) 0.47337(19) 0.0447 Uani
N19 N 0.50152(12) 0.2511(2) 0.73954(17) 0.0515 Uani
N20 N 0.56210(11) 0.29832(19) 0.80487(17) 0.0360 Uani
O13 O 0.12918(8) -0.05584(16) 0.78935(13) 0.0318 Uani
O14 O 0.06629(9) -0.02997(18) 0.76165(15) 0.0431 Uani
O15 O 0.06995(9) 0.06283(17) 0.43353(14) 0.0368 Uani
O16 O 0.13017(9) 0.02166(17) 0.45072(14) 0.0408 Uani
Mn4C Mn 0.59279(2) 0.39755(4) 0.85211(4) 0.0336 Uani
Mn4A Mn 0.09279(2) -0.10245(4) 0.85211(4) 0.0336 Uani
N20C N 0.06210(11) 0.20168(19) 0.30487(17) 0.0360 Uani
O13A O 0.12918(8) 0.05584(16) 0.28935(13) 0.0318 Uani
O14A O 0.06629(9) 0.02997(18) 0.26165(15) 0.0431 Uani
C105 C 0.24267(12) 0.4879(3) 1.1203(2) 0.0428 Uani
C106 C 0.20469(13) 0.4995(3) 1.0690(2) 0.0441 Uani
C107 C 0.20518(13) 0.5110(2) 1.0027(2) 0.0403 Uani
H77 H 0.1808 0.5197 0.9678 0.0490 Uiso
C108 C 0.24124(12) 0.5098(2) 0.9876(2) 0.0374 Uani
C109 C 0.27746(14) 0.4979(3) 1.0374(2) 0.0435 Uani
H78 H 0.3015 0.4965 1.0262 0.0520 Uiso
C110 C 0.27840(13) 0.4880(3) 1.1050(2) 0.0424 Uani
H79 H 0.3031 0.4814 1.1396 0.0510 Uiso
C111 C 0.24190(12) 0.4726(2) 1.1922(2) 0.0386 Uani
C112 C 0.24115(14) 0.5247(3) 0.9165(2) 0.0475 Uani
C113 C 0.32852(12) 0.6522(3) 0.90498(19) 0.0415 Uani
H80 H 0.3344 0.6059 0.9276 0.0500 Uiso
C114 C 0.29503(13) 0.7453(3) 0.8321(2) 0.0452 Uani
H81 H 0.2756 0.7713 0.7975 0.0540 Uiso
C115 C 0.33244(13) 0.7763(2) 0.8779(2) 0.0398 Uani
H82 H 0.3412 0.8262 0.8789 0.0480 Uiso
C116 C 0.39349(11) 0.7225(2) 0.9646(2) 0.0413 Uani
C117 C 0.40615(11) 0.7920(2) 1.0002(2) 0.0408 Uani
H83 H 0.3885 0.8330 0.9941 0.0490 Uiso
C118 C 0.44430(12) 0.7960(2) 1.0425(2) 0.0440 Uani
H84 H 0.4529 0.8410 1.0662 0.0530 Uiso
C119 C 0.47255(13) 0.7350(3) 1.0534(2) 0.0436 Uani
C120 C 0.45974(13) 0.6666(3) 1.0189(2) 0.0461 Uani
H85 H 0.4775 0.6259 1.0243 0.0550 Uiso
C121 C 0.41970(13) 0.6615(2) 0.9764(2) 0.0406 Uani
H86 H 0.4103 0.6155 0.9552 0.0490 Uiso
C122 C 0.51517(12) 0.7438(2) 1.10043(19) 0.0398 Uani
C123 C 0.52968(13) 0.8154(3) 1.1251(2) 0.0446 Uani
H87 H 0.5124 0.8571 1.1138 0.0530 Uiso
C124 C 0.57005(12) 0.8245(2) 1.1667(2) 0.0391 Uani
H88 H 0.5798 0.8723 1.1827 0.0470 Uiso
C125 C 0.59566(12) 0.7620(2) 1.1843(2) 0.0388 Uani
C126 C 0.58116(14) 0.6911(3) 1.1600(2) 0.0574 Uani
H89 H 0.5983 0.6493 1.1718 0.0690 Uiso
C127 C 0.54124(13) 0.6817(3) 1.1183(2) 0.0453 Uani
H90 H 0.5318 0.6337 1.1022 0.0540 Uiso
C128 C 0.65794(13) 0.8392(3) 1.2360(2) 0.0476 Uani
H91 H 0.6489 0.8855 1.2152 0.0570 Uiso
C129 C 0.66001(14) 0.7130(3) 1.2650(3) 0.0568 Uani
H92 H 0.6528 0.6623 1.2651 0.0680 Uiso
C130 C 0.69803(14) 0.7469(3) 1.3060(2) 0.0498 Uani
H93 H 0.7191 0.7228 1.3392 0.0600 Uiso
Mn5 Mn 0.24454(2) 0.59183(3) 0.80604(4) 0.0363 Uani
N21 N 0.16767(11) 0.5046(2) 1.0779(2) 0.0447 Uani
H94 H 0.1465 0.5145 1.0435 0.0540 Uiso
H95 H 0.1653 0.4980 1.1180 0.0540 Uiso
N22 N 0.29348(11) 0.6687(2) 0.84959(19) 0.0391 Uani
N23 N 0.35307(10) 0.7172(2) 0.92047(19) 0.0405 Uani
N24 N 0.63592(12) 0.7714(2) 1.2247(2) 0.0507 Uani
N25 N 0.69683(12) 0.8247(2) 1.2854(2) 0.0544 Uani
O17 O 0.27355(9) 0.45342(18) 1.23514(15) 0.0424 Uani
O18 O 0.21058(9) 0.48306(18) 1.20964(16) 0.0429 Uani
O19 O 0.20791(9) 0.54898(17) 0.87581(14) 0.0379 Uani
O20 O 0.26940(11) 0.5178(2) 0.89249(18) 0.0549 Uani
Mn5C Mn 0.74454(2) 0.90817(3) 1.30604(4) 0.0363 Uani
Mn5A Mn 0.24454(2) 0.40817(3) 1.30604(4) 0.0363 Uani
N25C N 0.19683(12) 0.6753(2) 0.7854(2) 0.0544 Uani
O17A O 0.27355(9) 0.54658(18) 0.73514(15) 0.0424 Uani
O18A O 0.21058(9) 0.51694(18) 0.70964(16) 0.0429 Uani
O21 O 0.7194(3) 0.4941(5) 0.4848(5) 0.0396 Uani
H96 H 0.7070 0.4708 0.4479 0.0470 Uiso
H97 H 0.7046 0.4948 0.5109 0.0470 Uiso
H98 H 0.2578 0.9997 0.7284 0.0520 Uiso
H99 H 0.2553 0.9356 0.7661 0.0520 Uiso
O22 O 0.2711(4) 0.9698(8) 0.7600(7) 0.0437 Uani
loop_
_atom_site_aniso_label
_atom_site_aniso_U_11
_atom_site_aniso_U_22
_atom_site_aniso_U_33
_atom_site_aniso_U_23
_atom_site_aniso_U_13
_atom_site_aniso_U_12
C1 0.04 0.038 0.0287 -0.0127 0.0081 -0.0142
C2 0.041 0.042 0.048 0.0174 0.0121 -0.021
C3 0.049 0.025 0.04 0.016 0.0123 0.0053
C4 0.047 0.059 0.034 -0.0148 0.0089 -0.018
C5 0.05 0.0244 0.042 -0.0087 0.0167 -0.0111
C6 0.042 0.042 0.041 -0.0038 0.0103 -0.0303
C7 0.04 0.0228 0.044 0.0104 0.0151 0.0095
C8 0.051 0.036 0.03 -0.0128 0.0119 0.0086
C9 0.059(3) 0.043(2) 0.044(2) 0.0106(18) 0.034(2) -0.0077(19)
C10 0.042(2) 0.079(4) 0.048(3) -0.023(2) 0.006(2) -0.012(2)
C11 0.036(2) 0.055(3) 0.055(3) -0.007(2) 0.012(2) -0.0087(19)
C12 0.043(2) 0.056(3) 0.0278(19) 0.0134(18) 0.0087(17) 0.008(2)
C13 0.036(2) 0.041(2) 0.059(3) 0.013(2) 0.016(2) 0.0061(18)
C14 0.044(2) 0.051(3) 0.033(2) -0.0098(18) 0.0078(18) 0.0095(19)
C15 0.028(2) 0.060(3) 0.062(3) -0.012(2) 0.010(2) 0.0036(19)
C16 0.050(3) 0.041(2) 0.060(3) 0.007(2) 0.006(2) 0.003(2)
C17 0.066(3) 0.045(3) 0.035(2) -0.0160(19) -0.019(2) 0.012(2)
C18 0.033(2) 0.048(2) 0.050(2) 0.027(2) 0.0131(18) -0.0121(18)
C19 0.039(2) 0.034(2) 0.054(2) -0.0099(18) 0.0232(19) 0.0025(17)
C20 0.035(2) 0.050(3) 0.061(3) -0.012(2) 0.031(2) -0.0110(19)
C21 0.046(3) 0.057(3) 0.053(3) -0.006(2) 0.021(2) -0.002(2)
C22 0.049(3) 0.045(3) 0.046(3) -0.002(2) -0.005(2) 0.009(2)
C23 0.042(2) 0.040(2) 0.057(3) 0.008(2) 0.019(2) 0.0090(18)
C24 0.045(2) 0.044(3) 0.090(4) -0.008(2) 0.040(3) -0.007(2)
C25 0.063(3) 0.056(3) 0.032(2) 0.002(2) 0.019(2) 0.007(2)
C26 0.054(3) 0.059(3) 0.042(2) 0.011(2) 0.022(2) 0.016(2)
Mn1 0.0512(5) 0.0422(4) 0.0411(4) 0.0012(3) 0.0206(3) -0.0040(3)
N1 0.049 0.05 0.048 0.0168 0.0227 0.0137
N2 0.054(2) 0.068(3) 0.045(2) -0.0213(19) 0.0278(18) -0.020(2)
N3 0.0387(18) 0.041(2) 0.0435(19) 0.0071(15) 0.0220(16) -0.0021(15)
N4 0.051(2) 0.048(2) 0.065(3) -0.009(2) 0.022(2) -0.0054(19)
N5 0.054(3) 0.054(3) 0.061(3) 0.003(2) 0.020(2) -0.010(2)
O1 0.059 0.0477 0.0466 0.02 0.0261 0.0255
O2 0.043 0.0368 0.0408 -0.003 0.014 0.0112
O3 0.0459 0.0464 0.0404 -0.0017 0.0178 0.0022
O4 0.0504 0.0431 0.0451 0.0021 0.0238 0.0102
Mn1C 0.0512 0.0422 0.0411 -0.0012 0.0206 0.004
Mn1A 0.0512 0.0422 0.0411 -0.0012 0.0206 0.004
N5C 0.054 0.054 0.061 -0.003 0.02 0.01
O1A 0.059(2) 0.0477(18) 0.0466(18) -0.0200(14) 0.0261(16) -0.0255(15)
O2A 0.0430(17) 0.0368(17) 0.0408(16) 0.0030(13) 0.0140(13) -0.0112(13)
C27 0.052 0.029 0.047 -0.0051 0.023 -0.0169
C28 0.044 0.064 0.036 -0.003 0.0187 -0.007
C29 0.043 0.043 0.031 0.0217 0.0151 0.0012
C30 0.043 0.026 0.031 0.0101 0.0123 -0.0077
C31 0.043 0.044 0.029 0.0145 0.01 -0.0029
C32 0.036 0.051 0.0258 0.0009 0.0046 -0.003
C33 0.038 0.057 0.043 0.002 0.0066 0.028
C34 0.036 0.048 0.043 -0.0041 0.0129 -0.0022
C35 0.060(3) 0.042(3) 0.037(2) 0.0040(19) -0.019(2) 0.005(2)
C36 0.062(3) 0.047(3) 0.0262(19) -0.0073(17) 0.0019(18) -0.007(2)
C37 0.053(2) 0.038(2) 0.031(2) 0.0170(17) 0.0089(18) 0.0008(19)
C38 0.048(2) 0.044(2) 0.034(2) 0.0011(18) 0.0004(18) 0.007(2)
C39 0.054(3) 0.051(3) 0.047(3) -0.026(2) 0.002(2) -0.006(2)
C40 0.044(2) 0.079(4) 0.074(3) -0.037(3) 0.041(2) -0.020(2)
C41 0.0298(19) 0.051(3) 0.049(2) -0.0152(19) 0.0197(18) -0.0061(18)
C42 0.037(2) 0.060(3) 0.053(3) -0.001(2) 0.020(2) 0.004(2)
C43 0.048(3) 0.036(2) 0.049(3) 0.0027(19) -0.018(2) 0.0168(19)
C44 0.035(2) 0.068(3) 0.053(3) -0.018(2) 0.017(2) 0.004(2)
C45 0.043(2) 0.056(3) 0.061(3) -0.025(2) 0.011(2) 0.006(2)
C46 0.050(3) 0.051(3) 0.038(2) -0.0219(19) 0.013(2) 0.001(2)
C47 0.052(3) 0.050(3) 0.045(2) -0.018(2) 0.019(2) -0.012(2)
C48 0.044(2) 0.056(3) 0.047(2) -0.012(2) 0.016(2) 0.004(2)
C49 0.050(3) 0.068(3) 0.038(2) 0.016(2) 0.0096(19) -0.025(2)
C50 0.048(2) 0.056(3) 0.042(2) -0.008(2) 0.013(2) -0.009(2)
C51 0.046(2) 0.044(2) 0.0260(18) -0.0005(16) 0.0168(17) -0.0088(18)
C52 0.054(3) 0.044(2) 0.031(2) 0.0012(17) 0.0003(18) -0.016(2)
Mn2 0.0403(4) 0.0473(4) 0.0352(3) -0.0073(3) 0.0157(3) -0.0139(3)
N6 0.049 0.048 0.0272 -0.0101 0.0121 0.0096
N7 0.049(2) 0.046(2) 0.0317(18) -0.0120(14) 0.0254(17) 0.0001(16)
N8 0.052(2) 0.050(2) 0.050(2) -0.0007(19) 0.0026(19) 0.0007(19)
N9 0.041(2) 0.054(2) 0.044(2) -0.0153(18) 0.0133(17) -0.0095(17)
N10 0.044(2) 0.057(2) 0.042(2) 0.0009(17) 0.0155(17) 0.0087(18)
O5 0.0417 0.0548 0.0297 0.0023 0.0115 0.017
O6 0.0458 0.0348 0.0366 0.0108 0.0068 0.0149
O7 0.0356 0.0388 0.0344 0.0098 0.0085 0.0106
O8 0.0478 0.051 0.0459 -0.0207 0.0218 -0.0121
Mn2C 0.0403 0.0473 0.0352 0.0073 0.0157 0.0139
Mn2A 0.0403 0.0473 0.0352 0.0073 0.0157 0.0139
N10C 0.044 0.057 0.042 -0.0009 0.0155 -0.0087
O5A 0.0417(16) 0.0548(19) 0.0297(14) -0.0023(13) 0.0115(12) -0.0170(14)
O6A 0.0458(17) 0.0348(16) 0.0366(15) -0.0108(12) 0.0068(13) -0.0149(13)
C53 0.051 0.026 0.041 0.0063 0.0185 -0.0039
C54 0.05 0.043 0.0241 -0.0135 0.0171 0.0154
C55 0.055 0.047 0.028 -0.0017 0.0228 -0.017
C56 0.048 0.036 0.031 -0.0141 0.011 -0.019
C57 0.046 0.043 0.037 0.0091 0.017 0.0106
C58 0.046 0.033 0.039 -0.0006 0.0154 0.0051
C59 0.05 0.041 0.032 -0.0082 0.0143 0.0124
C60 0.05 0.046 0.039 0.0122 0.0221 0.0087
C61 0.046(2) 0.0175(17) 0.048(2) -0.0087(15) 0.0163(19) 0.0071(15)
C62 0.043(2) 0.029(2) 0.048(2) -0.0010(17) 0.0184(19) 0.0094(17)
C63 0.043(2) 0.045(2) 0.042(2) 0.0220(19) 0.0170(18) 0.0126(19)
C64 0.055(3) 0.038(2) 0.032(2) 0.0231(17) 0.0112(18) -0.0002(19)
C65 0.053(3) 0.030(2) 0.034(2) 0.0014(16) 0.0010(18) 0.0096(18)
C66 0.059(3) 0.027(2) 0.043(2) -0.0089(17) -0.016(2) 0.0085(19)
C67 0.062(3) 0.035(2) 0.031(2) -0.0047(17) -0.017(2) 0.004(2)
C68 0.061(3) 0.037(2) 0.043(2) -0.0026(19) -0.017(2) -0.007(2)
C69 0.042(2) 0.039(2) 0.039(2) 0.0112(17) 0.0111(18) 0.0056(18)
C70 0.060(3) 0.038(2) 0.046(2) -0.0154(19) 0.004(2) -0.003(2)
C71 0.049(3) 0.049(3) 0.037(2) 0.0017(19) -0.0034(19) -0.001(2)
C72 0.052(3) 0.050(3) 0.044(2) -0.002(2) 0.007(2) -0.005(2)
C73 0.042(2) 0.037(2) 0.061(3) -0.005(2) 0.018(2) 0.0063(19)
C74 0.038(2) 0.039(2) 0.051(2) 0.0156(19) 0.0115(19) 0.0027(18)
C75 0.032(2) 0.055(3) 0.045(2) -0.017(2) 0.0034(18) -0.0023(19)
C76 0.046(2) 0.0219(18) 0.063(3) -0.0023(18) 0.028(2) 0.0062(16)
C77 0.036(2) 0.038(2) 0.041(2) -0.0055(17) 0.0080(17) 0.0026(17)
C78 0.0239(17) 0.050(2) 0.0362(19) 0.0045(17) 0.0167(15) 0.0067(16)
Mn3 0.0455(4) 0.0388(4) 0.0386(4) 0.0077(3) 0.0217(3) 0.0025(3)
N11 0.05 0.052 0.0383 0.0126 0.0149 -0.0203
N12 0.056(2) 0.043(2) 0.0321(18) 0.0052(15) 0.0117(17) 0.0010(18)
N13 0.056(2) 0.0295(17) 0.0285(16) 0.0106(14) 0.0061(15) -0.0022(16)
N14 0.0300(17) 0.043(2) 0.057(2) 0.0263(17) 0.0159(16) -0.0020(15)
N15 0.051(2) 0.048(2) 0.0316(18) 0.0052(15) 0.0159(16) -0.0079(17)
O9 0.0434 0.0369 0.0439 0.0029 0.0196 0.0108
O10 0.044 0.0446 0.0296 -0.0155 0.0078 0.0023
O11 0.0458 0.0391 0.0385 -0.0074 0.0211 -0.0038
O12 0.0436 0.0369 0.0417 0.0074 0.022 -0.0051
Mn3C 0.0455 0.0388 0.0386 -0.0077 0.0217 -0.0025
Mn3A 0.0455 0.0388 0.0386 -0.0077 0.0217 -0.0025
N15C 0.051 0.048 0.0316 -0.0052 0.0159 0.0079
O9A 0.0434(16) 0.0369(16) 0.0439(16) -0.0029(13) 0.0196(13) -0.0108(13)
O10A 0.0440(17) 0.0446(17) 0.0296(14) 0.0155(12) 0.0078(12) -0.0023(13)
C79 0.051 0.034 0.0281 -0.0062 0.0106 0.0075
C80 0.0301 0.033 0.0301 -0.0062 0.0041 -0.0074
C81 0.031 0.037 0.0285 -0.0058 0.0027 -0.0106
C82 0.042 0.051 0.028 0.0065 0.0101 0.0059
C83 0.035 0.052 0.026 -0.0109 -0.0024 -0.0066
C84 0.038 0.047 0.036 0.0091 0.0048 0.0085
C85 0.041 0.036 0.036 -0.0072 0.0104 0.0092
C86 0.048 0.048 0.0237 -0.0095 0.0095 -0.0067
C87 0.043(2) 0.045(2) 0.037(2) 0.0047(18) 0.0171(18) -0.0025(18)
C88 0.050(2) 0.058(3) 0.045(2) -0.008(2) 0.030(2) 0.003(2)
C89 0.043(2) 0.047(3) 0.052(3) 0.003(2) 0.025(2) 0.0011(19)
C90 0.050(3) 0.040(2) 0.059(3) -0.018(2) 0.019(2) 0.005(2)
C91 0.060(3) 0.039(2) 0.043(2) -0.0094(19) -0.012(2) -0.002(2)
C92 0.057(3) 0.046(3) 0.038(2) -0.0197(19) 0.004(2) 0.010(2)
C93 0.039(2) 0.043(2) 0.048(2) -0.0177(19) 0.0180(19) -0.0066(18)
C94 0.054(3) 0.038(2) 0.046(2) -0.0182(18) 0.011(2) 0.0068(19)
C95 0.051(2) 0.036(2) 0.036(2) -0.0115(17) 0.0022(19) -0.0044(19)
C96 0.049(2) 0.038(2) 0.037(2) 0.0057(17) 0.0070(18) 0.0001(19)
C97 0.055(3) 0.041(2) 0.0271(19) -0.0115(17) 0.0040(18) -0.007(2)
C98 0.050(3) 0.041(3) 0.059(3) 0.003(2) -0.004(2) -0.010(2)
C99 0.051(3) 0.053(3) 0.049(3) -0.014(2) 0.009(2) 0.008(2)
C100 0.043(2) 0.045(2) 0.055(2) 0.0085(19) 0.040(2) 0.0153(19)
C101 0.050(2) 0.029(2) 0.050(2) -0.0106(18) 0.027(2) 0.0112(18)
C102 0.056(3) 0.039(2) 0.034(2) 0.0115(17) 0.020(2) 0.002(2)
C103 0.041(2) 0.046(2) 0.0235(18) 0.0097(16) 0.0157(16) -0.0109(18)
C104 0.045(2) 0.047(3) 0.035(2) -0.0084(18) -0.0009(18) 0.002(2)
Mn4 0.0308(3) 0.0431(4) 0.0317(3) 0.0076(3) 0.0168(2) 0.0078(3)
N16 0.0407 0.0211 0.048 -0.0127 0.0192 0.0126
N17 0.036(2) 0.048(2) 0.0335(17) 0.0000(15) 0.0166(16) 0.0051(15)
N18 0.046(2) 0.050(2) 0.043(2) -0.0071(17) 0.0211(17) -0.0039(17)
N19 0.064(3) 0.053(2) 0.0255(17) -0.0136(16) -0.0032(17) 0.006(2)
N20 0.0435(19) 0.0368(19) 0.0312(16) 0.0091(14) 0.0169(15) -0.0048(15)
O13 0.0312 0.0433 0.0312 -0.0078 0.0246 -0.0023
O14 0.0485 0.0466 0.0323 -0.0037 0.0101 0.0055
O15 0.041 0.0438 0.0276 0.0064 0.0138 -0.0035
O16 0.05 0.0461 0.0286 0.0007 0.0157 0.0047
Mn4C 0.0308 0.0431 0.0317 -0.0076 0.0168 -0.0078
Mn4A 0.0308 0.0431 0.0317 -0.0076 0.0168 -0.0078
N20C 0.0435 0.0368 0.0312 -0.0091 0.0169 0.0048
O13A 0.0312(14) 0.0433(16) 0.0312(14) 0.0078(12) 0.0246(11) 0.0023(12)
O14A 0.0485(18) 0.0466(19) 0.0323(15) 0.0037(13) 0.0101(13) -0.0055(14)
C105 0.033 0.051 0.042 0.0143 0.0083 -0.0107
C106 0.039 0.058 0.028 -0.0147 -0.0001 -0.022
C107 0.042 0.035 0.043 0.0076 0.0121 0.006
C108 0.036 0.038 0.034 -0.0154 0.0048 -0.0093
C109 0.045 0.045 0.04 0.0142 0.0126 0.007
C110 0.038 0.053 0.033 -0.0093 0.0066 -0.003
C111 0.031 0.043 0.039 0.0069 0.007 0.0053
C112 0.036 0.058 0.034 0.015 -0.0098 -0.009
C113 0.033(2) 0.060(3) 0.0277(19) 0.0125(18) 0.0042(16) -0.028(2)
C114 0.048(2) 0.057(3) 0.0247(19) 0.0165(18) 0.0028(17) -0.028(2)
C115 0.047(2) 0.041(2) 0.032(2) -0.0108(17) 0.0131(18) -0.0095(19)
C116 0.0244(19) 0.047(2) 0.053(2) -0.026(2) 0.0129(17) 0.0012(17)
C117 0.028(2) 0.043(2) 0.048(2) -0.0236(19) 0.0071(18) 0.0107(17)
C118 0.037(2) 0.023(2) 0.063(3) -0.0082(18) 0.003(2) -0.0065(17)
C119 0.039(2) 0.054(3) 0.038(2) -0.0165(19) 0.0126(18) 0.014(2)
C120 0.035(2) 0.047(3) 0.061(3) -0.022(2) 0.022(2) 0.0025(18)
C121 0.045(2) 0.036(2) 0.042(2) -0.0090(17) 0.0154(19) -0.0008(18)
C122 0.039(2) 0.048(3) 0.0261(19) 0.0049(17) 0.0012(17) 0.0031(19)
C123 0.039(2) 0.057(3) 0.039(2) -0.014(2) 0.0140(19) 0.015(2)
C124 0.042(2) 0.039(2) 0.040(2) -0.0062(17) 0.0184(19) -0.0084(18)
C125 0.038(2) 0.044(2) 0.0264(19) 0.0063(17) -0.0015(16) -0.0002(18)
C126 0.050(3) 0.060(3) 0.043(3) -0.020(2) -0.013(2) 0.010(2)
C127 0.034(2) 0.049(3) 0.049(3) 0.003(2) 0.0073(19) 0.0054(19)
C128 0.036(2) 0.060(3) 0.043(2) 0.012(2) 0.0068(19) -0.007(2)
C129 0.038(2) 0.051(3) 0.069(3) -0.016(2) -0.001(2) -0.002(2)
C130 0.041(2) 0.050(3) 0.051(3) 0.000(2) 0.004(2) -0.014(2)
Mn5 0.0305(4) 0.0454(3) 0.0317(3) -0.0014(3) 0.0078(3) -0.0071(3)
N21 0.04 0.046 0.048 0.0138 0.0136 -0.0009
N22 0.0354(19) 0.042(2) 0.0377(19) 0.0005(15) 0.0082(15) 0.0009(15)
N23 0.0296(17) 0.043(2) 0.049(2) -0.0006(17) 0.0123(16) -0.0128(15)
N24 0.041(2) 0.050(2) 0.055(2) -0.0193(19) 0.0063(18) -0.0048(18)
N25 0.049(2) 0.035(2) 0.063(3) -0.0245(18) -0.0057(19) 0.0073(17)
O17 0.0338 0.0535 0.0334 0.0016 0.0014 -0.0017
O18 0.0381 0.053 0.036 0.0121 0.0094 0.0101
O19 0.0371 0.0423 0.0318 -0.0016 0.0073 -0.0072
O20 0.043 0.055 0.049 -0.0023 -0.0109 -0.0073
Mn5C 0.0305 0.0454 0.0317 0.0014 0.0078 0.0071
Mn5A 0.0305 0.0454 0.0317 0.0014 0.0078 0.0071
N25C 0.049 0.035 0.063 0.0245 -0.0057 -0.0073
O17A 0.0338(15) 0.0535(19) 0.0334(15) -0.0016(14) 0.0014(12) 0.0017(14)
O18A 0.0381(17) 0.053(2) 0.0360(16) -0.0121(14) 0.0094(13) -0.0101(14)
O21 0.044(5) 0.038(5) 0.039(5) 0.008(4) 0.016(4) 0.004(4)
O22 0.052(9) 0.048(9) 0.036(7) 0.002(6) 0.021(7) -0.001(7)
loop_
_geom_bond_atom_site_label_1
_geom_bond_atom_site_label_2
_geom_bond_site_symmetry_1
_geom_bond_site_symmetry_2
C1 C2 1_555 1_555
C2 C3 1_555 1_555
C3 H1 1_555 1_555
C4 C3 1_555 1_555
C5 C4 1_555 1_555
H2 C5 1_555 1_555
C6 C1 1_555 1_555
H3 C6 1_555 1_555
C7 C1 1_555 1_555
C8 C4 1_555 1_555
C9 H4 1_555 1_555
C10 H5 1_555 1_555
C11 C10 1_555 1_555
H6 C11 1_555 1_555
C12 C13 1_555 1_555
C13 H7 1_555 1_555
C14 C13 1_555 1_555
H8 C14 1_555 1_555
C15 C14 1_555 1_555
C16 C15 1_555 1_555
H9 C16 1_555 1_555
C17 C12 1_555 1_555
H10 C17 1_555 1_555
C18 C15 1_555 1_555
C19 C18 1_555 1_555
H11 C19 1_555 1_555
C20 C19 1_555 1_555
H12 C20 1_555 1_555
C21 C20 1_555 1_555
C22 C21 1_555 1_555
H13 C22 1_555 1_555
C23 C18 1_555 1_555
H14 C23 1_555 1_555
C24 H15 1_555 1_555
C25 H16 1_555 1_555
C26 C25 1_555 1_555
H17 C26 1_555 1_555
Mn1 N2 1_555 1_555
N1 C2 1_555 1_555
H18 N1 1_555 1_555
H19 N1 1_555 1_555
N2 C9 1_555 1_555
N3 C9 1_555 1_555
N4 C21 1_555 1_555
N5 C24 1_555 1_555
O1 C7 1_555 1_555
O2 C7 1_555 1_555
O3 C8 1_555 1_555
O4 C8 1_555 1_555
C27 C28 1_555 1_555
C28 C29 1_555 1_555
C29 H20 1_555 1_555
C30 C29 1_555 1_555
C31 C30 1_555 1_555
H21 C31 1_555 1_555
C32 C27 1_555 1_555
H22 C32 1_555 1_555
C33 C27 1_555 1_555
C34 C30 1_555 1_555
C35 H23 1_555 1_555
C36 H24 1_555 1_555
C37 C36 1_555 1_555
H25 C37 1_555 1_555
C38 C39 1_555 1_555
C39 H26 1_555 1_555
C40 C39 1_555 1_555
H27 C40 1_555 1_555
C41 C40 1_555 1_555
C42 C41 1_555 1_555
H28 C42 1_555 1_555
C43 C38 1_555 1_555
H29 C43 1_555 1_555
C44 C41 1_555 1_555
C45 C44 1_555 1_555
H30 C45 1_555 1_555
C46 C45 1_555 1_555
H31 C46 1_555 1_555
C47 C46 1_555 1_555
C48 C47 1_555 1_555
H32 C48 1_555 1_555
C49 C44 1_555 1_555
H33 C49 1_555 1_555
C50 H34 1_555 1_555
C51 H35 1_555 1_555
C52 C51 1_555 1_555
H36 C52 1_555 1_555
Mn2 N7 1_555 1_555
N6 C28 1_555 1_555
H37 N6 1_555 1_555
H38 N6 1_555 1_555
N7 C35 1_555 1_555
N8 C35 1_555 1_555
N9 C47 1_555 1_555
N10 C50 1_555 1_555
O5 C33 1_555 1_555
O6 C33 1_555 1_555
O7 C34 1_555 1_555
O8 C34 1_555 1_555
C53 C54 1_555 1_555
C54 C55 1_555 1_555
C55 H39 1_555 1_555
C56 C55 1_555 1_555
C57 C56 1_555 1_555
H40 C57 1_555 1_555
C58 C53 1_555 1_555
H41 C58 1_555 1_555
C59 C53 1_555 1_555
C60 C56 1_555 1_555
C61 H42 1_555 1_555
C62 H43 1_555 1_555
C63 C62 1_555 1_555
H44 C63 1_555 1_555
C64 C65 1_555 1_555
C65 H45 1_555 1_555
C66 C65 1_555 1_555
H46 C66 1_555 1_555
C67 C66 1_555 1_555
C68 C67 1_555 1_555
H47 C68 1_555 1_555
C69 C64 1_555 1_555
H48 C69 1_555 1_555
C70 C67 1_555 1_555
C71 C70 1_555 1_555
H49 C71 1_555 1_555
C72 C71 1_555 1_555
H50 C72 1_555 1_555
C73 C72 1_555 1_555
C74 C73 1_555 1_555
H51 C74 1_555 1_555
C75 C70 1_555 1_555
H52 C75 1_555 1_555
C76 H53 1_555 1_555
C77 H54 1_555 1_555
C78 C77 1_555 1_555
H55 C78 1_555 1_555
Mn3 N12 1_555 1_555
N11 C54 1_555 1_555
H56 N11 1_555 1_555
H57 N11 1_555 1_555
N12 C61 1_555 1_555
N13 C61 1_555 1_555
N14 C73 1_555 1_555
N15 C76 1_555 1_555
O9 C59 1_555 1_555
O10 C59 1_555 1_555
O11 C60 1_555 1_555
O12 C60 1_555 1_555
C79 C80 1_555 1_555
C80 C81 1_555 1_555
C81 H58 1_555 1_555
C82 C81 1_555 1_555
C83 C82 1_555 1_555
H59 C83 1_555 1_555
C84 C79 1_555 1_555
H60 C84 1_555 1_555
C85 C79 1_555 1_555
C86 C82 1_555 1_555
C87 H61 1_555 1_555
C88 H62 1_555 1_555
C89 C88 1_555 1_555
H63 C89 1_555 1_555
C90 C91 1_555 1_555
C91 H64 1_555 1_555
C92 C91 1_555 1_555
H65 C92 1_555 1_555
C93 C92 1_555 1_555
C94 C93 1_555 1_555
H66 C94 1_555 1_555
C95 C90 1_555 1_555
H67 C95 1_555 1_555
C96 C93 1_555 1_555
C97 C96 1_555 1_555
H68 C97 1_555 1_555
C98 C97 1_555 1_555
H69 C98 1_555 1_555
C99 C98 1_555 1_555
C100 C99 1_555 1_555
H70 C100 1_555 1_555
C101 C96 1_555 1_555
H71 C101 1_555 1_555
C102 H72 1_555 1_555
C103 H73 1_555 1_555
C104 C103 1_555 1_555
H74 C104 1_555 1_555
Mn4 N17 1_555 1_555
N16 C80 1_555 1_555
H75 N16 1_555 1_555
H76 N16 1_555 1_555
N17 C87 1_555 1_555
N18 C87 1_555 1_555
N19 C99 1_555 1_555
N20 C102 1_555 1_555
O13 C85 1_555 1_555
O14 C85 1_555 1_555
O15 C86 1_555 1_555
O16 C86 1_555 1_555
C105 C106 1_555 1_555
C106 C107 1_555 1_555
C107 H77 1_555 1_555
C108 C107 1_555 1_555
C109 C108 1_555 1_555
H78 C109 1_555 1_555
C110 C105 1_555 1_555
H79 C110 1_555 1_555
C111 C105 1_555 1_555
C112 C108 1_555 1_555
C113 H80 1_555 1_555
C114 H81 1_555 1_555
C115 C114 1_555 1_555
H82 C115 1_555 1_555
C116 C117 1_555 1_555
C117 H83 1_555 1_555
C118 C117 1_555 1_555
H84 C118 1_555 1_555
C119 C118 1_555 1_555
C120 C119 1_555 1_555
H85 C120 1_555 1_555
C121 C116 1_555 1_555
H86 C121 1_555 1_555
C122 C119 1_555 1_555
C123 C122 1_555 1_555
H87 C123 1_555 1_555
C124 C123 1_555 1_555
H88 C124 1_555 1_555
C125 C124 1_555 1_555
C126 C125 1_555 1_555
H89 C126 1_555 1_555
C127 C122 1_555 1_555
H90 C127 1_555 1_555
C128 H91 1_555 1_555
C129 H92 1_555 1_555
C130 C129 1_555 1_555
H93 C130 1_555 1_555
Mn5 N22 1_555 1_555
N21 C106 1_555 1_555
H94 N21 1_555 1_555
H95 N21 1_555 1_555
N22 C113 1_555 1_555
N23 C113 1_555 1_555
N24 C125 1_555 1_555
N25 C128 1_555 1_555
O17 C111 1_555 1_555
O18 C111 1_555 1_555
O19 C112 1_555 1_555
O20 C112 1_555 1_555
O21 H96 1_555 1_555
H97 O21 1_555 1_555
H98 O22 1_555 1_555
H99 O22 1_555 1_555
Mn1C N5 1_555 1_555
Mn1A O1 1_555 1_555
N5C Mn1 1_555 1_555
O1A Mn1 1_555 1_555
O2A Mn1 1_555 1_555
Mn2C N10 1_555 1_555
Mn2A O5 1_555 1_555
N10C Mn2 1_555 1_555
O5A Mn2 1_555 1_555
O6A Mn2 1_555 1_555
Mn3C N15 1_555 1_555
Mn3A O9 1_555 1_555
N15C Mn3 1_555 1_555
O9A Mn3 1_555 1_555
O10A Mn3 1_555 1_555
Mn4C N20 1_555 1_555
Mn4A O13 1_555 1_555
N20C Mn4 1_555 1_555
O13A Mn4 1_555 1_555
O14A Mn4 1_555 1_555
Mn5C N25 1_555 1_555
Mn5A O17 1_555 1_555
N25C Mn5 1_555 1_555
O17A Mn5 1_555 1_555
O18A Mn5 1_555 1_555
C5 C6 1_555 1_555
C10 N2 1_555 1_555
C11 N3 1_555 1_555
C12 N3 1_555 1_555
C16 C17 1_555 1_555
C22 C23 1_555 1_555
C24 N4 1_555 1_555
C25 N4 1_555 1_555
C26 N5 1_555 1_555
Mn1 O3 1_555 1_555
Mn1 O4 1_555 1_555
O2 Mn1A 1_555 1_555
C31 C32 1_555 1_555
C36 N7 1_555 1_555
C37 N8 1_555 1_555
C38 N8 1_555 1_555
C42 C43 1_555 1_555
C48 C49 1_555 1_555
C50 N9 1_555 1_555
C51 N9 1_555 1_555
C52 N10 1_555 1_555
Mn2 O7 1_555 1_555
Mn2 O8 1_555 1_555
O6 Mn2A 1_555 1_555
C57 C58 1_555 1_555
C62 N12 1_555 1_555
C63 N13 1_555 1_555
C64 N13 1_555 1_555
C68 C69 1_555 1_555
C74 C75 1_555 1_555
C76 N14 1_555 1_555
C77 N14 1_555 1_555
C78 N15 1_555 1_555
Mn3 O11 1_555 1_555
Mn3 O12 1_555 1_555
O10 Mn3A 1_555 1_555
C83 C84 1_555 1_555
C88 N17 1_555 1_555
C89 N18 1_555 1_555
C90 N18 1_555 1_555
C94 C95 1_555 1_555
C100 C101 1_555 1_555
C102 N19 1_555 1_555
C103 N19 1_555 1_555
C104 N20 1_555 1_555
Mn4 O15 1_555 1_555
Mn4 O16 1_555 1_555
O14 Mn4A 1_555 1_555
C109 C110 1_555 1_555
C114 N22 1_555 1_555
C115 N23 1_555 1_555
C116 N23 1_555 1_555
C120 C121 1_555 1_555
C126 C127 1_555 1_555
C128 N24 1_555 1_555
C129 N24 1_555 1_555
C130 N25 1_555 1_555
Mn5 O19 1_555 1_555
Mn5 O20 1_555 1_555
O18 Mn5A 1_555 1_555

#END
