
#######################################################################
#
#                 Cambridge Crystallographic Data Centre
#                                CCDC 
#
#######################################################################
#
# If this CIF has been generated from an entry in the Cambridge 
# Structural Database, then it will include bibliographic, chemical, 
# crystal, experimental, refinement or atomic coordinate data resulting 
# from the CCDC's data processing and validation procedures.
#
#######################################################################

data_DIBJIJ
_chemical_formula_moiety         '(C88 H88 Eu6 N8 O47 S8)n'
_symmetry_cell_setting           monoclinic
_symmetry_space_group_name_H-M   'C 2/c'
_symmetry_Int_Tables_number      15
_space_group_name_Hall           '-C 2yc'
loop_
_symmetry_equiv_pos_site_id
_symmetry_equiv_pos_as_xyz
1 x,y,z
2 -x,y,1/2-z
3 1/2+x,1/2+y,z
4 1/2-x,1/2+y,1/2-z
5 -x,-y,-z
6 x,-y,1/2+z
7 1/2-x,1/2-y,-z
8 1/2+x,1/2-y,1/2+z
_cell_length_a                   47.1489(12)
_cell_length_b                   10.9944(3)
_cell_length_c                   28.3561(8)
_cell_angle_alpha                90
_cell_angle_beta                 120.5630(10)
_cell_angle_gamma                90
_cell_volume                     12656.9
loop_
_atom_site_label
_atom_site_type_symbol
_atom_site_fract_x
_atom_site_fract_y
_atom_site_fract_z
_atom_site_U_iso_or_equiv
_atom_site_thermal_displace_type
Eu1 Eu 0.283150(4) -0.121430(16) 0.582365(7) 0.0124 Uani
Eu2 Eu 0.234164(4) -0.060085(16) 0.437136(7) 0.0124 Uani
Eu3 Eu 0.198334(4) -0.217858(16) 0.509717(8) 0.0128 Uani
S1 S 0.27876(2) 0.12094(9) 0.64355(4) 0.0184 Uani
S2 S 0.34431(2) 0.80496(9) 1.04017(4) 0.0214 Uani
S3 S 0.68391(2) 0.31591(9) 1.29561(4) 0.0177 Uani
S4 S 0.60952(2) -0.23377(9) 0.90069(4) 0.0231 Uani
N1 N 0.46335(7) 0.1529(3) 0.91172(14) 0.0208 Uani
H1 H 0.4680 0.1998 0.9387 0.0250 Uiso
C1 C 0.43276(9) 0.1471(4) 0.86527(17) 0.0216 Uani
C2 C 0.43548(10) 0.0723(4) 0.82712(18) 0.0287 Uani
H2 H 0.4182 0.0532 0.7912 0.0350 Uiso
C3 C 0.46731(10) 0.0325(4) 0.85097(18) 0.0286 Uani
H3 H 0.4761 -0.0193 0.8347 0.0340 Uiso
C4 C 0.48488(9) 0.0825(4) 0.90460(17) 0.0228 Uani
C5 C 0.40452(9) 0.2027(4) 0.85912(17) 0.0221 Uani
C6 C 0.40348(9) 0.2810(3) 0.89726(16) 0.0186 Uani
N2 N 0.43043(8) 0.3325(3) 0.94178(14) 0.0204 Uani
C7 C 0.41832(9) 0.4121(4) 0.96452(17) 0.0197 Uani
C8 C 0.38243(9) 0.4044(4) 0.93518(18) 0.0254 Uani
H4 H 0.3681 0.4472 0.9437 0.0300 Uiso
C9 C 0.37348(9) 0.3250(4) 0.89374(18) 0.0241 Uani
H5 H 0.3516 0.3021 0.8672 0.0290 Uiso
C10 C 0.43707(9) 0.4948(3) 1.00701(17) 0.0194 Uani
C11 C 0.47137(9) 0.4895(3) 1.04071(16) 0.0191 Uani
N3 N 0.49107(7) 0.3992(3) 1.03995(14) 0.0200 Uani
H6 H 0.4858 0.3446 1.0172 0.0240 Uiso
C12 C 0.52211(9) 0.4101(4) 1.08461(17) 0.0214 Uani
C13 C 0.52276(10) 0.5179(4) 1.11357(19) 0.0272 Uani
H7 H 0.5413 0.5492 1.1457 0.0330 Uiso
C14 C 0.49183(9) 0.5673(4) 1.08641(18) 0.0251 Uani
H8 H 0.4851 0.6400 1.0960 0.0300 Uiso
C15 C 0.54754(9) 0.3253(4) 1.09975(16) 0.0197 Uani
C16 C 0.54663(9) 0.2260(4) 1.06808(17) 0.0224 Uani
C17 C 0.53375(9) 0.1093(4) 0.99764(17) 0.0224 Uani
N4 N 0.52197(7) 0.2002(3) 1.01574(14) 0.0212 Uani
C18 C 0.56637(9) 0.0735(4) 1.04056(18) 0.0252 Uani
H9 H 0.5796 0.0112 1.0383 0.0300 Uiso
C19 C 0.57449(10) 0.1448(4) 1.08416(19) 0.0278 Uani
H10 H 0.5944 0.1426 1.1186 0.0330 Uiso
C20 C 0.51777(9) 0.0598(4) 0.94487(18) 0.0215 Uani
C21 C 0.37320(9) 0.1808(4) 0.80620(17) 0.0225 Uani
C22 C 0.35528(12) 0.0746(4) 0.79666(19) 0.0367 Uani
H11 H 0.3627 0.0143 0.8244 0.0450 Uiso
C23 C 0.32634(12) 0.0555(4) 0.74655(19) 0.0354 Uani
H12 H 0.3141 -0.0175 0.7401 0.0430 Uiso
C24 C 0.31575(9) 0.1433(4) 0.70673(16) 0.0189 Uani
C25 C 0.33263(13) 0.2498(5) 0.7159(2) 0.0517 Uani
H13 H 0.3246 0.3113 0.6886 0.0610 Uiso
C26 C 0.36150(13) 0.2674(5) 0.7653(2) 0.0485 Uani
H14 H 0.3735 0.3407 0.7712 0.0580 Uiso
C27 C 0.41841(9) 0.5863(4) 1.01868(17) 0.0205 Uani
C28 C 0.39627(10) 0.6636(4) 0.97721(18) 0.0244 Uani
H15 H 0.3958 0.6661 0.9433 0.0300 Uiso
C29 C 0.37490(10) 0.7369(4) 0.98478(18) 0.0239 Uani
H16 H 0.3600 0.7896 0.9564 0.0290 Uiso
C30 C 0.37566(9) 0.7323(3) 1.03411(17) 0.0197 Uani
C31 C 0.39919(9) 0.6621(4) 1.07740(18) 0.0214 Uani
H17 H 0.4005 0.6631 1.1119 0.0260 Uiso
C32 C 0.42057(9) 0.5911(4) 1.06941(17) 0.0227 Uani
H18 H 0.4370 0.5449 1.0990 0.0270 Uiso
C33 C 0.57923(9) 0.3404(4) 1.15313(16) 0.0203 Uani
C34 C 0.60295(10) 0.4203(4) 1.15704(18) 0.0272 Uani
H19 H 0.5974 0.4782 1.1288 0.0330 Uiso
C35 C 0.63476(10) 0.4169(4) 1.20189(17) 0.0285 Uani
H20 H 0.6510 0.4716 1.2044 0.0340 Uiso
C36 C 0.64245(9) 0.3328(4) 1.24288(15) 0.0174 Uani
C37 C 0.61847(10) 0.2579(4) 1.24100(18) 0.0273 Uani
H21 H 0.6237 0.2032 1.2703 0.0330 Uiso
C38 C 0.58682(10) 0.2623(4) 1.19651(19) 0.0307 Uani
H22 H 0.5702 0.2118 1.1955 0.0370 Uiso
C39 C 0.53806(9) -0.0165(4) 0.92976(17) 0.0221 Uani
C40 C 0.53504(13) -0.1411(4) 0.9246(2) 0.0411 Uani
H23 H 0.5181 -0.1810 0.9276 0.0490 Uiso
C41 C 0.55662(12) -0.2094(4) 0.9150(2) 0.0395 Uani
H24 H 0.5547 -0.2955 0.9120 0.0470 Uiso
C42 C 0.58040(9) -0.1516(4) 0.90988(17) 0.0225 Uani
C43 C 0.58269(12) -0.0272(4) 0.9121(3) 0.0453 Uani
H25 H 0.5987 0.0129 0.9067 0.0550 Uiso
C44 C 0.56143(13) 0.0393(4) 0.9222(3) 0.0437 Uani
H26 H 0.5631 0.1255 0.9239 0.0530 Uiso
O1 O 0.33840(6) -0.0357(2) 0.62949(11) 0.0204 Uani
H27 H 0.3564 -0.0748 0.6422 0.0240 Uiso
H28 H 0.3429 0.0415 0.6198 0.0240 Uiso
O2 O 0.25944(7) 0.0351(3) 0.38823(12) 0.0250 Uani
H29 H 0.2539 0.1102 0.3810 0.0300 Uiso
H30 H 0.2676 0.0246 0.3695 0.0300 Uiso
O3 O 0.25168(6) 0.1547(2) 0.46607(11) 0.0207 Uani
H31 H 0.2443 0.2154 0.4499 0.0250 Uiso
H32 H 0.2717 0.1794 0.4784 0.0250 Uiso
O4 O 0.18743(6) 0.0800(2) 0.40110(12) 0.0224 Uani
H33 H 0.1672 0.0449 0.3733 0.0270 Uiso
H34 H 0.1851 0.1430 0.4194 0.0270 Uiso
O5 O 0.19507(7) -0.1223(3) 0.58636(12) 0.0272 Uani
H35 H 0.2067 -0.1614 0.6196 0.0330 Uiso
H36 H 0.1951 -0.0431 0.5912 0.0330 Uiso
O6 O 0.17845(8) -0.3644(3) 0.55817(13) 0.0331 Uani
H37 H 0.1743 -0.4377 0.5407 0.0400 Uiso
H38 H 0.1718 -0.3273 0.5763 0.0400 Uiso
O7 O 0.19034(6) -0.1967(2) 0.42091(10) 0.0140 Uani
H39 H 0.1738 -0.1672 0.3918 0.0170 Uiso
O8 O 0.20964(6) -0.4220(2) 0.49228(10) 0.0135 Uani
H40 H 0.1942 -0.4645 0.4894 0.0490 Uiso
O9 O 0.24829(6) -0.2668(2) 0.59148(10) 0.0140 Uani
H41 H 0.2458 -0.2512 0.6200 0.0170 Uiso
O10 O 0.23035(6) -0.0399(2) 0.51837(10) 0.0137 Uani
H42 H 0.2300 0.0293 0.5289 0.0160 Uiso
O11 O 0.28604(7) 0.1343(3) 0.59955(11) 0.0256 Uani
O12 O 0.26823(7) -0.0041(2) 0.64381(11) 0.0212 Uani
O13 O 0.25532(7) 0.2112(2) 0.64070(13) 0.0265 Uani
O14 O 0.2500 -0.2500 0.5000 0.0140 Uani
O15 O 0.16011(6) -0.0394(2) 0.47876(12) 0.0247 Uani
H43 H 0.1406 -0.0399 0.4531 0.0300 Uiso
H44 H 0.1643 0.0328 0.4702 0.0300 Uiso
O16 O 0.33564(8) 0.9141(3) 1.00745(14) 0.0339 Uani
O17 O 0.31708(7) 0.7171(3) 1.01863(14) 0.0342 Uani
O18 O 0.35744(8) 0.8266(3) 1.09828(13) 0.0353 Uani
O19 O 0.70276(7) 0.3084(3) 1.26783(12) 0.0290 Uani
O20 O 0.69313(7) 0.4225(2) 1.33114(11) 0.0218 Uani
O21 O 0.68473(6) 0.2030(2) 1.32313(11) 0.0210 Uani
O22 O 0.60949(7) -0.1823(3) 0.85352(13) 0.0308 Uani
O23 O 0.64118(6) -0.2138(3) 0.95113(12) 0.0269 Uani
O24 O 0.59985(7) -0.3606(3) 0.89317(13) 0.0305 Uani
Eu1D Eu 0.716850(4) 0.121430(16) 1.417635(7) 0.0124 Uani
Eu2D Eu 0.765836(4) 0.060085(16) 1.562864(7) 0.0124 Uani
Eu3D Eu 0.801666(4) 0.217858(16) 1.490283(8) 0.0128 Uani
S1D S 0.72124(2) -0.12094(9) 1.35645(4) 0.0184 Uani
S2D S 0.65569(2) -0.80496(9) 0.95983(4) 0.0214 Uani
S3D S 0.31609(2) -0.31591(9) 0.70439(4) 0.0177 Uani
S4D S 0.39048(2) 0.23377(9) 1.09931(4) 0.0231 Uani
N1D N 0.53665(7) -0.1529(3) 1.08828(14) 0.0208 Uani
H1D H 0.5320 -0.1998 1.0613 0.0250 Uiso
C1D C 0.56724(9) -0.1471(4) 1.13473(17) 0.0216 Uani
C2D C 0.56452(10) -0.0723(4) 1.17288(18) 0.0287 Uani
H2D H 0.5818 -0.0532 1.2088 0.0350 Uiso
C3D C 0.53269(10) -0.0325(4) 1.14903(18) 0.0286 Uani
H3D H 0.5239 0.0193 1.1653 0.0340 Uiso
C4D C 0.51512(9) -0.0825(4) 1.09540(17) 0.0228 Uani
C5D C 0.59548(9) -0.2027(4) 1.14088(17) 0.0221 Uani
C6D C 0.59652(9) -0.2810(3) 1.10274(16) 0.0186 Uani
N2D N 0.56957(8) -0.3325(3) 1.05822(14) 0.0204 Uani
C7D C 0.58168(9) -0.4121(4) 1.03548(17) 0.0197 Uani
C8D C 0.61757(9) -0.4044(4) 1.06482(18) 0.0254 Uani
H4D H 0.6319 -0.4472 1.0563 0.0300 Uiso
C9D C 0.62652(9) -0.3250(4) 1.10626(18) 0.0241 Uani
H5D H 0.6484 -0.3021 1.1328 0.0290 Uiso
C10D C 0.56293(9) -0.4948(3) 0.99299(17) 0.0194 Uani
C11D C 0.52863(9) -0.4895(3) 0.95929(16) 0.0191 Uani
N3D N 0.50893(7) -0.3992(3) 0.96005(14) 0.0200 Uani
H6D H 0.5142 -0.3446 0.9828 0.0240 Uiso
C12D C 0.47789(9) -0.4101(4) 0.91539(17) 0.0214 Uani
C13D C 0.47724(10) -0.5179(4) 0.88643(19) 0.0272 Uani
H7D H 0.4587 -0.5492 0.8543 0.0330 Uiso
C14D C 0.50817(9) -0.5673(4) 0.91359(18) 0.0251 Uani
H8D H 0.5149 -0.6400 0.9040 0.0300 Uiso
C15D C 0.45246(9) -0.3253(4) 0.90025(16) 0.0197 Uani
C16D C 0.45337(9) -0.2260(4) 0.93192(17) 0.0224 Uani
C17D C 0.46625(9) -0.1093(4) 1.00236(17) 0.0224 Uani
N4D N 0.47803(7) -0.2002(3) 0.98426(14) 0.0212 Uani
C18D C 0.43363(9) -0.0735(4) 0.95944(18) 0.0252 Uani
H9D H 0.4204 -0.0112 0.9617 0.0300 Uiso
C19D C 0.42551(10) -0.1448(4) 0.91584(19) 0.0278 Uani
H10D H 0.4056 -0.1426 0.8814 0.0330 Uiso
C20D C 0.48223(9) -0.0598(4) 1.05513(18) 0.0215 Uani
C21D C 0.62680(9) -0.1808(4) 1.19380(17) 0.0225 Uani
C22D C 0.64472(12) -0.0746(4) 1.20334(19) 0.0367 Uani
H11D H 0.6373 -0.0143 1.1756 0.0450 Uiso
C23D C 0.67366(12) -0.0555(4) 1.25345(19) 0.0354 Uani
H12D H 0.6859 0.0175 1.2599 0.0430 Uiso
C24D C 0.68425(9) -0.1433(4) 1.29327(16) 0.0189 Uani
C25D C 0.66737(13) -0.2498(5) 1.2841(2) 0.0517 Uani
H13D H 0.6754 -0.3113 1.3114 0.0610 Uiso
C26D C 0.63850(13) -0.2674(5) 1.2347(2) 0.0485 Uani
H14D H 0.6265 -0.3407 1.2288 0.0580 Uiso
C27D C 0.58159(9) -0.5863(4) 0.98132(17) 0.0205 Uani
C28D C 0.60373(10) -0.6636(4) 1.02279(18) 0.0244 Uani
H15D H 0.6042 -0.6661 1.0567 0.0300 Uiso
C29D C 0.62510(10) -0.7369(4) 1.01522(18) 0.0239 Uani
H16D H 0.6400 -0.7896 1.0436 0.0290 Uiso
C30D C 0.62434(9) -0.7323(3) 0.96589(17) 0.0197 Uani
C31D C 0.60081(9) -0.6621(4) 0.92260(18) 0.0214 Uani
H17D H 0.5995 -0.6631 0.8881 0.0260 Uiso
C32D C 0.57943(9) -0.5911(4) 0.93059(17) 0.0227 Uani
H18D H 0.5630 -0.5449 0.9010 0.0270 Uiso
C33D C 0.42077(9) -0.3404(4) 0.84687(16) 0.0203 Uani
C34D C 0.39705(10) -0.4203(4) 0.84296(18) 0.0272 Uani
H19D H 0.4026 -0.4782 0.8712 0.0330 Uiso
C35D C 0.36524(10) -0.4169(4) 0.79811(17) 0.0285 Uani
H20D H 0.3490 -0.4716 0.7956 0.0340 Uiso
C36D C 0.35755(9) -0.3328(4) 0.75712(15) 0.0174 Uani
C37D C 0.38153(10) -0.2579(4) 0.75900(18) 0.0273 Uani
H21D H 0.3763 -0.2032 0.7297 0.0330 Uiso
C38D C 0.41318(10) -0.2623(4) 0.80349(19) 0.0307 Uani
H22D H 0.4298 -0.2118 0.8045 0.0370 Uiso
C39D C 0.46194(9) 0.0165(4) 1.07024(17) 0.0221 Uani
C40D C 0.46496(13) 0.1411(4) 1.0754(2) 0.0411 Uani
H23D H 0.4819 0.1810 1.0724 0.0490 Uiso
C41D C 0.44338(12) 0.2094(4) 1.0850(2) 0.0395 Uani
H24D H 0.4453 0.2955 1.0880 0.0470 Uiso
C42D C 0.41960(9) 0.1516(4) 1.09012(17) 0.0225 Uani
C43D C 0.41731(12) 0.0272(4) 1.0879(3) 0.0453 Uani
H25D H 0.4013 -0.0129 1.0933 0.0550 Uiso
C44D C 0.43857(13) -0.0393(4) 1.0778(3) 0.0437 Uani
H26D H 0.4369 -0.1255 1.0761 0.0530 Uiso
O1D O 0.66160(6) 0.0357(2) 1.37051(11) 0.0204 Uani
H27D H 0.6436 0.0748 1.3578 0.0240 Uiso
H28D H 0.6571 -0.0415 1.3802 0.0240 Uiso
O2D O 0.74056(7) -0.0351(3) 1.61177(12) 0.0250 Uani
H29D H 0.7461 -0.1102 1.6190 0.0300 Uiso
H30D H 0.7324 -0.0246 1.6305 0.0300 Uiso
O3D O 0.74832(6) -0.1547(2) 1.53393(11) 0.0207 Uani
H31D H 0.7557 -0.2154 1.5501 0.0250 Uiso
H32D H 0.7283 -0.1794 1.5216 0.0250 Uiso
O4D O 0.81257(6) -0.0800(2) 1.59890(12) 0.0224 Uani
H33D H 0.8328 -0.0449 1.6267 0.0270 Uiso
H34D H 0.8149 -0.1430 1.5806 0.0270 Uiso
O5D O 0.80493(7) 0.1223(3) 1.41364(12) 0.0272 Uani
H35D H 0.7933 0.1614 1.3804 0.0330 Uiso
H36D H 0.8049 0.0431 1.4088 0.0330 Uiso
O6D O 0.82155(8) 0.3644(3) 1.44183(13) 0.0331 Uani
H37D H 0.8257 0.4377 1.4593 0.0400 Uiso
H38D H 0.8282 0.3273 1.4237 0.0400 Uiso
O7D O 0.80966(6) 0.1967(2) 1.57909(10) 0.0140 Uani
H39D H 0.8262 0.1672 1.6082 0.0170 Uiso
O8D O 0.79036(6) 0.4220(2) 1.50772(10) 0.0135 Uani
H40D H 0.8058 0.4645 1.5106 0.0490 Uiso
O9D O 0.75171(6) 0.2668(2) 1.40852(10) 0.0140 Uani
H41D H 0.7542 0.2512 1.3800 0.0170 Uiso
O10D O 0.76965(6) 0.0399(2) 1.48163(10) 0.0137 Uani
H42D H 0.7700 -0.0293 1.4711 0.0160 Uiso
O11D O 0.71396(7) -0.1343(3) 1.40045(11) 0.0256 Uani
O12D O 0.73177(7) 0.0041(2) 1.35619(11) 0.0212 Uani
O13D O 0.74468(7) -0.2112(2) 1.35930(13) 0.0265 Uani
O15D O 0.83989(6) 0.0394(2) 1.52124(12) 0.0247 Uani
H43D H 0.8594 0.0399 1.5469 0.0300 Uiso
H44D H 0.8357 -0.0328 1.5298 0.0300 Uiso
O16D O 0.66436(8) -0.9141(3) 0.99255(14) 0.0339 Uani
O17D O 0.68292(7) -0.7171(3) 0.98137(14) 0.0342 Uani
O18D O 0.64256(8) -0.8266(3) 0.90172(13) 0.0353 Uani
O19D O 0.29724(7) -0.3084(3) 0.73217(12) 0.0290 Uani
O20D O 0.30687(7) -0.4225(2) 0.66886(11) 0.0218 Uani
O21D O 0.31527(6) -0.2030(2) 0.67687(11) 0.0210 Uani
O22D O 0.39051(7) 0.1823(3) 1.14648(13) 0.0308 Uani
O23D O 0.35882(6) 0.2138(3) 1.04887(12) 0.0269 Uani
O24D O 0.40015(7) 0.3606(3) 1.10683(13) 0.0305 Uani
Eu1B Eu 0.783150(4) 0.378570(16) 1.582365(7) 0.0124 Uani
Eu1F Eu 0.216850(4) -0.378570(16) 0.417635(7) 0.0124 Uani
Eu2B Eu 0.734164(4) 0.439915(16) 1.437136(7) 0.0124 Uani
Eu2F Eu 0.265836(4) -0.439915(16) 0.562864(7) 0.0124 Uani
Eu3C Eu 0.301666(4) 0.282142(16) 0.990283(8) 0.0128 Uani
Eu3F Eu 0.301666(4) -0.282142(16) 0.490283(8) 0.0128 Uani
Eu3G Eu 0.698334(4) -0.282142(16) 1.009717(8) 0.0128 Uani
O7B O 0.69034(6) 0.3033(2) 1.42091(10) 0.0140 Uani
O7F O 0.30966(6) -0.3033(2) 0.57909(10) 0.0140 Uani
O8B O 0.70964(6) 0.0780(2) 1.49228(10) 0.0135 Uani
O8F O 0.29036(6) -0.0780(2) 0.50772(10) 0.0135 Uani
O9B O 0.74829(6) 0.2332(2) 1.59148(10) 0.0140 Uani
O9F O 0.25171(6) -0.2332(2) 0.40852(10) 0.0140 Uani
O14B O 0.7500 0.2500 1.5000 0.0140 Uani
O20B O 0.19313(7) -0.0775(2) 0.33114(11) 0.0218 Uani
O20F O 0.80687(7) 0.0775(2) 1.66886(11) 0.0218 Uani
O23C O 0.85882(6) 0.2862(3) 1.54887(12) 0.0269 Uani
O23G O 0.14118(6) -0.2862(3) 0.45113(12) 0.0269 Uani
loop_
_atom_site_aniso_label
_atom_site_aniso_U_11
_atom_site_aniso_U_22
_atom_site_aniso_U_33
_atom_site_aniso_U_23
_atom_site_aniso_U_13
_atom_site_aniso_U_12
Eu1 0.00990(8) 0.01131(9) 0.01309(9) -0.00070(7) 0.00368(7) -0.00095(6)
Eu2 0.01079(8) 0.01016(9) 0.01407(9) 0.00010(7) 0.00473(7) -0.00052(6)
Eu3 0.00963(8) 0.01140(9) 0.01507(10) -0.00046(7) 0.00469(7) -0.00032(6)
S1 0.0179(4) 0.0163(5) 0.0161(5) -0.0010(4) 0.0050(4) 0.0030(4)
S2 0.0189(4) 0.0148(5) 0.0330(6) 0.0008(4) 0.0151(4) 0.0039(4)
S3 0.0138(4) 0.0188(5) 0.0150(5) 0.0014(4) 0.0033(4) 0.0005(3)
S4 0.0123(4) 0.0198(5) 0.0317(6) -0.0045(4) 0.0071(4) 0.0008(4)
N1 0.0150(15) 0.0194(17) 0.0245(19) -0.0021(14) 0.0074(14) 0.0038(13)
C1 0.0169(18) 0.021(2) 0.023(2) -0.0004(16) 0.0074(17) 0.0031(15)
C2 0.024(2) 0.029(2) 0.024(2) -0.0060(19) 0.0055(18) 0.0056(18)
C3 0.022(2) 0.031(2) 0.030(2) -0.0050(19) 0.0111(19) 0.0048(18)
C4 0.0156(18) 0.022(2) 0.029(2) -0.0027(17) 0.0101(17) 0.0027(15)
C5 0.0148(17) 0.024(2) 0.021(2) -0.0004(17) 0.0043(16) -0.0030(15)
C6 0.0121(16) 0.0178(19) 0.019(2) -0.0009(16) 0.0029(15) 0.0015(14)
N2 0.0174(15) 0.0155(16) 0.0219(18) -0.0013(14) 0.0053(14) 0.0031(13)
C7 0.0140(17) 0.0179(19) 0.025(2) 0.0017(16) 0.0083(17) 0.0044(14)
C8 0.0135(18) 0.027(2) 0.031(2) -0.0001(18) 0.0079(18) 0.0036(16)
C9 0.0105(17) 0.024(2) 0.028(2) -0.0017(18) 0.0026(17) 0.0013(15)
C10 0.0155(17) 0.0159(19) 0.026(2) 0.0014(16) 0.0099(17) 0.0049(14)
C11 0.0153(17) 0.0162(19) 0.022(2) -0.0021(16) 0.0068(16) 0.0004(14)
N3 0.0118(14) 0.0166(16) 0.0252(18) -0.0047(14) 0.0048(14) 0.0013(12)
C12 0.0123(17) 0.023(2) 0.022(2) -0.0007(17) 0.0037(16) 0.0024(15)
C13 0.0148(18) 0.026(2) 0.032(2) -0.0071(19) 0.0054(18) -0.0036(16)
C14 0.0169(18) 0.021(2) 0.032(2) -0.0097(18) 0.0085(18) 0.0002(16)
C15 0.0097(16) 0.023(2) 0.021(2) 0.0017(17) 0.0039(16) 0.0003(15)
C16 0.0110(17) 0.021(2) 0.028(2) 0.0006(17) 0.0047(17) 0.0026(15)
C17 0.0145(18) 0.018(2) 0.030(2) 0.0029(17) 0.0079(17) 0.0042(15)
N4 0.0130(15) 0.0201(17) 0.0275(19) -0.0023(14) 0.0082(14) 0.0011(13)
C18 0.0155(18) 0.024(2) 0.031(2) 0.0019(18) 0.0082(18) 0.0056(16)
C19 0.0150(18) 0.028(2) 0.032(3) 0.0056(19) 0.0059(18) 0.0079(16)
C20 0.0157(18) 0.016(2) 0.031(2) -0.0004(17) 0.0105(17) 0.0016(15)
C21 0.0154(18) 0.023(2) 0.025(2) -0.0058(17) 0.0072(17) 0.0028(15)
C22 0.035(2) 0.025(2) 0.027(3) 0.006(2) -0.001(2) -0.0058(19)
C23 0.037(2) 0.020(2) 0.029(3) -0.0002(19) 0.002(2) -0.0086(19)
C24 0.0177(18) 0.0177(19) 0.016(2) -0.0027(15) 0.0046(16) 0.0024(15)
C25 0.046(3) 0.039(3) 0.033(3) 0.018(2) -0.007(2) -0.018(2)
C26 0.042(3) 0.032(3) 0.038(3) 0.011(2) -0.004(2) -0.024(2)
C27 0.0123(17) 0.0172(19) 0.030(2) -0.0050(17) 0.0094(17) -0.0008(14)
C28 0.026(2) 0.024(2) 0.025(2) 0.0023(18) 0.0142(19) 0.0043(17)
C29 0.0211(19) 0.017(2) 0.031(2) 0.0058(17) 0.0114(18) 0.0075(16)
C30 0.0149(17) 0.0136(19) 0.029(2) -0.0014(16) 0.0101(17) 0.0002(14)
C31 0.0186(18) 0.019(2) 0.028(2) 0.0010(17) 0.0128(17) 0.0014(15)
C32 0.0144(17) 0.017(2) 0.028(2) -0.0003(17) 0.0045(17) 0.0026(15)
C33 0.0127(17) 0.021(2) 0.018(2) -0.0006(16) 0.0012(16) 0.0047(15)
C34 0.0191(19) 0.024(2) 0.027(2) 0.0087(18) 0.0034(18) -0.0001(16)
C35 0.0177(19) 0.029(2) 0.024(2) 0.0082(19) -0.0001(18) -0.0054(17)
C36 0.0152(17) 0.0180(19) 0.0144(19) -0.0030(15) 0.0042(15) 0.0003(14)
C37 0.023(2) 0.034(2) 0.021(2) 0.0081(19) 0.0084(18) -0.0016(18)
C38 0.019(2) 0.038(3) 0.032(3) 0.007(2) 0.0107(19) -0.0043(18)
C39 0.0142(17) 0.020(2) 0.029(2) -0.0015(17) 0.0087(17) 0.0016(15)
C40 0.046(3) 0.022(2) 0.077(4) 0.005(2) 0.047(3) 0.003(2)
C41 0.047(3) 0.017(2) 0.073(4) 0.004(2) 0.044(3) 0.004(2)
C42 0.0139(17) 0.020(2) 0.029(2) -0.0034(17) 0.0076(17) 0.0020(15)
C43 0.044(3) 0.017(2) 0.099(5) -0.009(3) 0.054(3) -0.007(2)
C44 0.047(3) 0.015(2) 0.092(4) -0.009(2) 0.052(3) -0.003(2)
O1 0.0144(12) 0.0175(14) 0.0242(15) -0.0007(12) 0.0061(12) -0.0040(10)
O2 0.0337(16) 0.0181(14) 0.0317(17) 0.0033(12) 0.0229(14) -0.0012(12)
O3 0.0193(13) 0.0128(13) 0.0244(15) 0.0013(11) 0.0071(12) -0.0017(10)
O4 0.0195(13) 0.0149(14) 0.0261(16) -0.0004(12) 0.0066(12) 0.0020(11)
O5 0.0319(16) 0.0276(16) 0.0241(16) 0.0019(13) 0.0156(14) 0.0084(13)
O6 0.0462(19) 0.0262(17) 0.0419(19) -0.0118(14) 0.0334(17) -0.0131(14)
O7 0.0106(11) 0.0117(12) 0.0146(13) 0.0006(10) 0.0027(10) 0.0013(9)
O8 0.0119(11) 0.0110(12) 0.0169(13) 0.0022(10) 0.0069(11) -0.0018(10)
O9 0.0124(11) 0.0144(13) 0.0136(13) -0.0001(10) 0.0055(10) 0.0011(10)
O10 0.0127(11) 0.0094(12) 0.0169(13) -0.0034(10) 0.0061(11) -0.0011(9)
O11 0.0217(14) 0.0346(17) 0.0167(15) 0.0001(12) 0.0071(12) -0.0007(12)
O12 0.0229(14) 0.0140(14) 0.0205(15) -0.0031(11) 0.0065(12) 0.0011(11)
O13 0.0219(14) 0.0164(14) 0.0352(18) 0.0005(12) 0.0101(13) 0.0052(11)
O14 0.0123(16) 0.0113(17) 0.0147(18) -0.0016(14) 0.0042(15) -0.0027(13)
O15 0.0166(13) 0.0161(14) 0.0326(17) 0.0039(12) 0.0060(12) 0.0042(11)
O16 0.0368(17) 0.0217(16) 0.054(2) 0.0143(15) 0.0310(17) 0.0171(13)
O17 0.0221(15) 0.0256(17) 0.056(2) -0.0018(15) 0.0206(15) -0.0015(12)
O18 0.0383(18) 0.0341(18) 0.0378(19) -0.0027(15) 0.0225(16) 0.0125(15)
O19 0.0180(13) 0.0437(19) 0.0243(16) 0.0013(14) 0.0101(13) 0.0026(13)
O20 0.0228(14) 0.0168(14) 0.0183(14) 0.0005(11) 0.0050(12) -0.0025(11)
O21 0.0203(13) 0.0184(14) 0.0139(14) 0.0004(11) 0.0012(11) 0.0009(11)
O22 0.0256(15) 0.0317(17) 0.0367(18) -0.0035(14) 0.0170(14) -0.0003(13)
O23 0.0107(12) 0.0262(16) 0.0333(17) -0.0038(13) 0.0035(12) 0.0052(11)
O24 0.0217(14) 0.0195(15) 0.046(2) -0.0076(14) 0.0141(14) 0.0010(12)
Eu1D 0.0099 0.01131 0.01309 -0.0007 0.00368 -0.00095
Eu2D 0.01079 0.01016 0.01407 0.0001 0.00473 -0.00052
Eu3D 0.00963 0.0114 0.01507 -0.00046 0.00469 -0.00032
S1D 0.0179 0.0163 0.0161 -0.001 0.005 0.003
S2D 0.0189 0.0148 0.033 0.0008 0.0151 0.0039
S3D 0.0138 0.0188 0.015 0.0014 0.0033 0.0005
S4D 0.0123 0.0198 0.0317 -0.0045 0.0071 0.0008
N1D 0.015 0.0194 0.0245 -0.0021 0.0074 0.0038
C1D 0.0169 0.021 0.023 -0.0004 0.0074 0.0031
C2D 0.024 0.029 0.024 -0.006 0.0055 0.0056
C3D 0.022 0.031 0.03 -0.005 0.0111 0.0048
C4D 0.0156 0.022 0.029 -0.0027 0.0101 0.0027
C5D 0.0148 0.024 0.021 -0.0004 0.0043 -0.003
C6D 0.0121 0.0178 0.019 -0.0009 0.0029 0.0015
N2D 0.0174 0.0155 0.0219 -0.0013 0.0053 0.0031
C7D 0.014 0.0179 0.025 0.0017 0.0083 0.0044
C8D 0.0135 0.027 0.031 -0.0001 0.0079 0.0036
C9D 0.0105 0.024 0.028 -0.0017 0.0026 0.0013
C10D 0.0155 0.0159 0.026 0.0014 0.0099 0.0049
C11D 0.0153 0.0162 0.022 -0.0021 0.0068 0.0004
N3D 0.0118 0.0166 0.0252 -0.0047 0.0048 0.0013
C12D 0.0123 0.023 0.022 -0.0007 0.0037 0.0024
C13D 0.0148 0.026 0.032 -0.0071 0.0054 -0.0036
C14D 0.0169 0.021 0.032 -0.0097 0.0085 0.0002
C15D 0.0097 0.023 0.021 0.0017 0.0039 0.0003
C16D 0.011 0.021 0.028 0.0006 0.0047 0.0026
C17D 0.0145 0.018 0.03 0.0029 0.0079 0.0042
N4D 0.013 0.0201 0.0275 -0.0023 0.0082 0.0011
C18D 0.0155 0.024 0.031 0.0019 0.0082 0.0056
C19D 0.015 0.028 0.032 0.0056 0.0059 0.0079
C20D 0.0157 0.016 0.031 -0.0004 0.0105 0.0016
C21D 0.0154 0.023 0.025 -0.0058 0.0072 0.0028
C22D 0.035 0.025 0.027 0.006 -0.001 -0.0058
C23D 0.037 0.02 0.029 -0.0002 0.002 -0.0086
C24D 0.0177 0.0177 0.016 -0.0027 0.0046 0.0024
C25D 0.046 0.039 0.033 0.018 -0.007 -0.018
C26D 0.042 0.032 0.038 0.011 -0.004 -0.024
C27D 0.0123 0.0172 0.03 -0.005 0.0094 -0.0008
C28D 0.026 0.024 0.025 0.0023 0.0142 0.0043
C29D 0.0211 0.017 0.031 0.0058 0.0114 0.0075
C30D 0.0149 0.0136 0.029 -0.0014 0.0101 0.0002
C31D 0.0186 0.019 0.028 0.001 0.0128 0.0014
C32D 0.0144 0.017 0.028 -0.0003 0.0045 0.0026
C33D 0.0127 0.021 0.018 -0.0006 0.0012 0.0047
C34D 0.0191 0.024 0.027 0.0087 0.0034 -0.0001
C35D 0.0177 0.029 0.024 0.0082 -0.0001 -0.0054
C36D 0.0152 0.018 0.0144 -0.003 0.0042 0.0003
C37D 0.023 0.034 0.021 0.0081 0.0084 -0.0016
C38D 0.019 0.038 0.032 0.007 0.0107 -0.0043
C39D 0.0142 0.02 0.029 -0.0015 0.0087 0.0016
C40D 0.046 0.022 0.077 0.005 0.047 0.003
C41D 0.047 0.017 0.073 0.004 0.044 0.004
C42D 0.0139 0.02 0.029 -0.0034 0.0076 0.002
C43D 0.044 0.017 0.099 -0.009 0.054 -0.007
C44D 0.047 0.015 0.092 -0.009 0.052 -0.003
O1D 0.0144 0.0175 0.0242 -0.0007 0.0061 -0.004
O2D 0.0337 0.0181 0.0317 0.0033 0.0229 -0.0012
O3D 0.0193 0.0128 0.0244 0.0013 0.0071 -0.0017
O4D 0.0195 0.0149 0.0261 -0.0004 0.0066 0.002
O5D 0.0319 0.0276 0.0241 0.0019 0.0156 0.0084
O6D 0.0462 0.0262 0.0419 -0.0118 0.0334 -0.0131
O7D 0.0106 0.0117 0.0146 0.0006 0.0027 0.0013
O8D 0.0119 0.011 0.0169 0.0022 0.0069 -0.0018
O9D 0.0124 0.0144 0.0136 -0.0001 0.0055 0.0011
O10D 0.0127 0.0094 0.0169 -0.0034 0.0061 -0.0011
O11D 0.0217 0.0346 0.0167 0.0001 0.0071 -0.0007
O12D 0.0229 0.014 0.0205 -0.0031 0.0065 0.0011
O13D 0.0219 0.0164 0.0352 0.0005 0.0101 0.0052
O15D 0.0166 0.0161 0.0326 0.0039 0.006 0.0042
O16D 0.0368 0.0217 0.054 0.0143 0.031 0.0171
O17D 0.0221 0.0256 0.056 -0.0018 0.0206 -0.0015
O18D 0.0383 0.0341 0.0378 -0.0027 0.0225 0.0125
O19D 0.018 0.0437 0.0243 0.0013 0.0101 0.0026
O20D 0.0228 0.0168 0.0183 0.0005 0.005 -0.0025
O21D 0.0203 0.0184 0.0139 0.0004 0.0012 0.0009
O22D 0.0256 0.0317 0.0367 -0.0035 0.017 -0.0003
O23D 0.0107 0.0262 0.0333 -0.0038 0.0035 0.0052
O24D 0.0217 0.0195 0.046 -0.0076 0.0141 0.001
Eu1B 0.0099 0.01131 0.01309 -0.0007 0.00368 -0.00095
Eu1F 0.0099 0.01131 0.01309 -0.0007 0.00368 -0.00095
Eu2B 0.01079 0.01016 0.01407 0.0001 0.00473 -0.00052
Eu2F 0.01079 0.01016 0.01407 0.0001 0.00473 -0.00052
Eu3C 0.00963 0.0114 0.01507 0.00046 0.00469 0.00032
Eu3F 0.00963 0.0114 0.01507 -0.00046 0.00469 -0.00032
Eu3G 0.00963 0.0114 0.01507 0.00046 0.00469 0.00032
O7B 0.0106 0.0117 0.0146 0.0006 0.0027 0.0013
O7F 0.0106 0.0117 0.0146 0.0006 0.0027 0.0013
O8B 0.0119 0.011 0.0169 0.0022 0.0069 -0.0018
O8F 0.0119 0.011 0.0169 0.0022 0.0069 -0.0018
O9B 0.0124 0.0144 0.0136 -0.0001 0.0055 0.0011
O9F 0.0124 0.0144 0.0136 -0.0001 0.0055 0.0011
O14B 0.0123 0.0113 0.0147 -0.0016 0.0042 -0.0027
O20B 0.0228 0.0168 0.0183 0.0005 0.005 -0.0025
O20F 0.0228 0.0168 0.0183 0.0005 0.005 -0.0025
O23C 0.0107 0.0262 0.0333 0.0038 0.0035 -0.0052
O23G 0.0107 0.0262 0.0333 0.0038 0.0035 -0.0052
loop_
_geom_bond_atom_site_label_1
_geom_bond_atom_site_label_2
_geom_bond_site_symmetry_1
_geom_bond_site_symmetry_2
Eu1 O1 1_555 1_555
Eu2 O2 1_555 1_555
Eu3 O5 1_555 1_555
S1 C24 1_555 1_555
S2 C30 1_555 1_555
S3 C36 1_555 1_555
S4 C42 1_555 1_555
N1 H1 1_555 1_555
C1 N1 1_555 1_555
C2 C1 1_555 1_555
H2 C2 1_555 1_555
C3 C2 1_555 1_555
H3 C3 1_555 1_555
C4 N1 1_555 1_555
C5 C1 1_555 1_555
C6 C5 1_555 1_555
N2 C6 1_555 1_555
C7 N2 1_555 1_555
C8 C7 1_555 1_555
H4 C8 1_555 1_555
C9 C6 1_555 1_555
H5 C9 1_555 1_555
C10 C7 1_555 1_555
C11 C10 1_555 1_555
N3 C11 1_555 1_555
H6 N3 1_555 1_555
C12 N3 1_555 1_555
C13 C12 1_555 1_555
H7 C13 1_555 1_555
C14 C11 1_555 1_555
H8 C14 1_555 1_555
C15 C12 1_555 1_555
C16 C15 1_555 1_555
C17 N4 1_555 1_555
N4 C16 1_555 1_555
C18 C17 1_555 1_555
H9 C18 1_555 1_555
C19 C16 1_555 1_555
H10 C19 1_555 1_555
C20 C4 1_555 1_555
C21 C5 1_555 1_555
C22 C21 1_555 1_555
H11 C22 1_555 1_555
C23 C22 1_555 1_555
H12 C23 1_555 1_555
C24 C23 1_555 1_555
C25 C24 1_555 1_555
H13 C25 1_555 1_555
C26 C21 1_555 1_555
H14 C26 1_555 1_555
C27 C10 1_555 1_555
C28 C27 1_555 1_555
H15 C28 1_555 1_555
C29 C28 1_555 1_555
H16 C29 1_555 1_555
C30 C29 1_555 1_555
C31 C30 1_555 1_555
H17 C31 1_555 1_555
C32 C27 1_555 1_555
H18 C32 1_555 1_555
C33 C15 1_555 1_555
C34 C33 1_555 1_555
H19 C34 1_555 1_555
C35 C34 1_555 1_555
H20 C35 1_555 1_555
C36 C35 1_555 1_555
C37 C36 1_555 1_555
H21 C37 1_555 1_555
C38 C33 1_555 1_555
H22 C38 1_555 1_555
C39 C20 1_555 1_555
C40 C39 1_555 1_555
H23 C40 1_555 1_555
C41 C40 1_555 1_555
H24 C41 1_555 1_555
C42 C41 1_555 1_555
C43 C42 1_555 1_555
H25 C43 1_555 1_555
C44 C39 1_555 1_555
H26 C44 1_555 1_555
O1 H27 1_555 1_555
H28 O1 1_555 1_555
O2 H29 1_555 1_555
H30 O2 1_555 1_555
O3 Eu2 1_555 1_555
H31 O3 1_555 1_555
H32 O3 1_555 1_555
O4 Eu2 1_555 1_555
H33 O4 1_555 1_555
H34 O4 1_555 1_555
O5 H35 1_555 1_555
H36 O5 1_555 1_555
O6 Eu3 1_555 1_555
H37 O6 1_555 1_555
H38 O6 1_555 1_555
O7 Eu2 1_555 1_555
H39 O7 1_555 1_555
O8 Eu3 1_555 1_555
H40 O8 1_555 1_555
O9 Eu1 1_555 1_555
H41 O9 1_555 1_555
O10 Eu1 1_555 1_555
H42 O10 1_555 1_555
O11 Eu1 1_555 1_555
O12 Eu1 1_555 1_555
O13 S1 1_555 1_555
O14 Eu1 1_555 1_555
O15 Eu3 1_555 1_555
H43 O15 1_555 1_555
H44 O15 1_555 1_555
O16 S2 1_555 1_555
O17 S2 1_555 1_555
O18 S2 1_555 1_555
O19 S3 1_555 1_555
O20 S3 1_555 1_555
O21 S3 1_555 1_555
O22 S4 1_555 1_555
O23 S4 1_555 1_555
O24 S4 1_555 1_555
Eu1D O21 1_555 1_555
Eu2D O2D 1_555 1_555
Eu3D O5D 1_555 1_555
S1D C24D 1_555 1_555
S2D C30D 1_555 1_555
S3D C36D 1_555 1_555
S4D C42D 1_555 1_555
N1D H1D 1_555 1_555
C1D N1D 1_555 1_555
C2D C1D 1_555 1_555
H2D C2D 1_555 1_555
C3D C2D 1_555 1_555
H3D C3D 1_555 1_555
C4D N1D 1_555 1_555
C5D C1D 1_555 1_555
C6D C5D 1_555 1_555
N2D C6D 1_555 1_555
C7D N2D 1_555 1_555
C8D C7D 1_555 1_555
H4D C8D 1_555 1_555
C9D C6D 1_555 1_555
H5D C9D 1_555 1_555
C10D C7D 1_555 1_555
C11D C10D 1_555 1_555
N3D C11D 1_555 1_555
H6D N3D 1_555 1_555
C12D N3D 1_555 1_555
C13D C12D 1_555 1_555
H7D C13D 1_555 1_555
C14D C11D 1_555 1_555
H8D C14D 1_555 1_555
C15D C12D 1_555 1_555
C16D C15D 1_555 1_555
C17D N4D 1_555 1_555
N4D C16D 1_555 1_555
C18D C17D 1_555 1_555
H9D C18D 1_555 1_555
C19D C16D 1_555 1_555
H10D C19D 1_555 1_555
C20D C4D 1_555 1_555
C21D C5D 1_555 1_555
C22D C21D 1_555 1_555
H11D C22D 1_555 1_555
C23D C22D 1_555 1_555
H12D C23D 1_555 1_555
C24D C23D 1_555 1_555
C25D C24D 1_555 1_555
H13D C25D 1_555 1_555
C26D C21D 1_555 1_555
H14D C26D 1_555 1_555
C27D C10D 1_555 1_555
C28D C27D 1_555 1_555
H15D C28D 1_555 1_555
C29D C28D 1_555 1_555
H16D C29D 1_555 1_555
C30D C29D 1_555 1_555
C31D C30D 1_555 1_555
H17D C31D 1_555 1_555
C32D C27D 1_555 1_555
H18D C32D 1_555 1_555
C33D C15D 1_555 1_555
C34D C33D 1_555 1_555
H19D C34D 1_555 1_555
C35D C34D 1_555 1_555
H20D C35D 1_555 1_555
C36D C35D 1_555 1_555
C37D C36D 1_555 1_555
H21D C37D 1_555 1_555
C38D C33D 1_555 1_555
H22D C38D 1_555 1_555
C39D C20D 1_555 1_555
C40D C39D 1_555 1_555
H23D C40D 1_555 1_555
C41D C40D 1_555 1_555
H24D C41D 1_555 1_555
C42D C41D 1_555 1_555
C43D C42D 1_555 1_555
H25D C43D 1_555 1_555
C44D C39D 1_555 1_555
H26D C44D 1_555 1_555
O1D Eu1D 1_555 1_555
H27D O1D 1_555 1_555
H28D O1D 1_555 1_555
O2D H29D 1_555 1_555
H30D O2D 1_555 1_555
O3D Eu2D 1_555 1_555
H31D O3D 1_555 1_555
H32D O3D 1_555 1_555
O4D Eu2D 1_555 1_555
H33D O4D 1_555 1_555
H34D O4D 1_555 1_555
O5D H35D 1_555 1_555
H36D O5D 1_555 1_555
O6D Eu3D 1_555 1_555
H37D O6D 1_555 1_555
H38D O6D 1_555 1_555
O7D Eu2D 1_555 1_555
H39D O7D 1_555 1_555
O8D Eu3D 1_555 1_555
H40D O8D 1_555 1_555
O9D Eu1D 1_555 1_555
H41D O9D 1_555 1_555
O10D Eu1D 1_555 1_555
H42D O10D 1_555 1_555
O11D Eu1D 1_555 1_555
O12D Eu1D 1_555 1_555
O13D S1D 1_555 1_555
O15D Eu3D 1_555 1_555
H43D O15D 1_555 1_555
H44D O15D 1_555 1_555
O16D S2D 1_555 1_555
O17D S2D 1_555 1_555
O18D S2D 1_555 1_555
O19D S3D 1_555 1_555
O20D S3D 1_555 1_555
O21D Eu1 1_555 1_555
O22D S4D 1_555 1_555
O23D S4D 1_555 1_555
O24D S4D 1_555 1_555
Eu1B O7D 1_555 1_555
Eu1F O7 1_555 1_555
Eu2B O20 1_555 1_555
Eu2F O8 1_555 1_555
Eu3C O23D 1_555 1_555
Eu3F O14 1_555 1_555
Eu3G O23 1_555 1_555
O7B Eu1D 1_555 1_555
O7F Eu1 1_555 1_555
O8B Eu1D 1_555 1_555
O8F Eu1 1_555 1_555
O9B Eu2D 1_555 1_555
O9F Eu2 1_555 1_555
O14B Eu1D 1_555 1_555
O20B Eu2 1_555 1_555
O20F Eu2D 1_555 1_555
O23C Eu3D 1_555 1_555
O23G Eu3 1_555 1_555
Eu2 O10 1_555 1_555
Eu2 O14 1_555 1_555
Eu2 O8F 1_555 1_555
Eu3 O7 1_555 1_555
Eu3 O9 1_555 1_555
Eu3 O10 1_555 1_555
Eu3 O14 1_555 1_555
S1 O11 1_555 1_555
S1 O12 1_555 1_555
C3 C4 1_555 1_555
C8 C9 1_555 1_555
C13 C14 1_555 1_555
C17 C20 1_555 1_555
C18 C19 1_555 1_555
C25 C26 1_555 1_555
C31 C32 1_555 1_555
C37 C38 1_555 1_555
C43 C44 1_555 1_555
O8 Eu1F 1_555 1_555
O9 Eu2F 1_555 1_555
O14 Eu1F 1_555 1_555
O14 Eu2F 1_555 1_555
Eu2D O10D 1_555 1_555
Eu2D O8B 1_555 1_555
Eu2D O14B 1_555 1_555
Eu3D O7D 1_555 1_555
Eu3D O9D 1_555 1_555
Eu3D O10D 1_555 1_555
Eu3D O14B 1_555 1_555
S1D O11D 1_555 1_555
S1D O12D 1_555 1_555
S3D O21D 1_555 1_555
C3D C4D 1_555 1_555
C8D C9D 1_555 1_555
C13D C14D 1_555 1_555
C17D C20D 1_555 1_555
C18D C19D 1_555 1_555
C25D C26D 1_555 1_555
C31D C32D 1_555 1_555
C37D C38D 1_555 1_555
C43D C44D 1_555 1_555
O8D Eu1B 1_555 1_555
O8D Eu2B 1_555 1_555
O9D Eu2B 1_555 1_555
O20D Eu2F 1_555 1_555
Eu1B O9B 1_555 1_555
Eu1B O14B 1_555 1_555
Eu1F O9F 1_555 1_555
Eu2B O7B 1_555 1_555
Eu2B O14B 1_555 1_555
Eu2F O7F 1_555 1_555
Eu3F O7F 1_555 1_555
Eu3F O8F 1_555 1_555
Eu3F O9F 1_555 1_555

#END
