
#######################################################################
#
#                 Cambridge Crystallographic Data Centre
#                                CCDC 
#
#######################################################################
#
# If this CIF has been generated from an entry in the Cambridge 
# Structural Database, then it will include bibliographic, chemical, 
# crystal, experimental, refinement or atomic coordinate data resulting 
# from the CCDC's data processing and validation procedures.
#
#######################################################################

data_MAGNEQ
_chemical_formula_moiety         '(C5 H11 Cu1 N1 O6)n'
_symmetry_cell_setting           orthorhombic
_symmetry_space_group_name_H-M   'P 21 21 21'
_symmetry_Int_Tables_number      19
_space_group_name_Hall           'P 2ac 2ab'
loop_
_symmetry_equiv_pos_site_id
_symmetry_equiv_pos_as_xyz
1 x,y,z
2 1/2-x,-y,1/2+z
3 -x,1/2+y,1/2-z
4 1/2+x,1/2-y,-z
_cell_length_a                   10.0338(6)
_cell_length_b                   8.2827(4)
_cell_length_c                   11.1583(7)
_cell_angle_alpha                90
_cell_angle_beta                 90
_cell_angle_gamma                90
_cell_volume                     927.332
loop_
_atom_site_label
_atom_site_type_symbol
_atom_site_fract_x
_atom_site_fract_y
_atom_site_fract_z
_atom_site_U_iso_or_equiv
_atom_site_thermal_displace_type
Cu1 Cu 0.20437(4) 0.00118(6) 0.26844(3) 0.0123 Uani
O1 O 0.4623(3) 0.0523(3) 0.3307(2) 0.0219 Uani
O2 O 0.3129(3) 0.1882(3) 0.2234(2) 0.0173 Uani
O3 O 0.0149(3) 0.0983(3) 0.1857(2) 0.0174 Uani
O4 O -0.1281(3) 0.3015(3) 0.1684(2) 0.0159 Uani
O5 O 0.1828(3) 0.1079(3) 0.4287(2) 0.0158 Uani
O6 O 0.2428(3) 0.1151(3) 0.6196(2) 0.0170 Uani
C1 C 0.4265(4) 0.1718(4) 0.2702(4) 0.0191 Uani
H1 H 0.4894 0.2561 0.2587 0.0230 Uiso
C2 C -0.0305(4) 0.2321(4) 0.2172(4) 0.0173 Uani
H2 H 0.0115 0.2852 0.2826 0.0210 Uiso
C3 C 0.2305(4) 0.0416(4) 0.5214(3) 0.0155 Uani
H3 H 0.2581 -0.0680 0.5167 0.0180 Uiso
Cu1A Cu 0.29563(4) -0.00118(6) 0.76844(3) 0.0123 Uani
Cu1B Cu -0.20437(4) 0.50118(6) 0.23156(3) 0.0123 Uani
O4B O 0.1281(3) -0.1985(3) 0.3316(2) 0.0159 Uani
O6A O 0.2572(3) -0.1151(3) 0.1196(2) 0.0170 Uani
C4 C 0.7795(4) -0.0184(6) 0.4555(3) 0.0232 Uani
H4 H 0.8204 0.0573 0.3975 0.0280 Uiso
H5 H 0.7590 -0.1200 0.4125 0.0280 Uiso
C5 C 0.8770(5) -0.0527(6) 0.5547(4) 0.0293 Uani
H6 H 0.9066 0.0492 0.5904 0.0440 Uiso
H7 H 0.9541 -0.1107 0.5222 0.0440 Uiso
H8 H 0.8338 -0.1191 0.6162 0.0440 Uiso
N1 N 0.6540(3) 0.0526(4) 0.5024(3) 0.0185 Uani
H9 H 0.6219 -0.0105 0.5627 0.0280 Uiso
H10 H 0.5928 0.0582 0.4425 0.0280 Uiso
H11 H 0.6705 0.1536 0.5310 0.0280 Uiso
loop_
_atom_site_aniso_label
_atom_site_aniso_U_11
_atom_site_aniso_U_22
_atom_site_aniso_U_33
_atom_site_aniso_U_23
_atom_site_aniso_U_13
_atom_site_aniso_U_12
Cu1 0.0196(2) 0.00940(19) 0.00790(19) 0.0000(2) -0.00052(15) -0.0011(2)
O1 0.0224(15) 0.0193(15) 0.0240(15) -0.0016(11) -0.0039(12) 0.0003(11)
O2 0.0238(14) 0.0142(12) 0.0140(13) 0.0003(11) 0.0012(12) -0.0031(11)
O3 0.0238(15) 0.0130(14) 0.0153(14) -0.0016(11) -0.0018(11) 0.0018(11)
O4 0.0196(15) 0.0145(13) 0.0135(14) 0.0012(11) -0.0019(12) 0.0030(12)
O5 0.0255(15) 0.0135(13) 0.0083(13) -0.0014(10) -0.0009(11) 0.0002(12)
O6 0.0282(15) 0.0147(13) 0.0082(13) 0.0003(10) -0.0034(11) 0.0008(12)
C1 0.023(2) 0.0143(18) 0.020(2) -0.0094(17) 0.0055(18) -0.0034(15)
C2 0.024(2) 0.0139(19) 0.014(2) -0.0056(16) -0.0013(16) -0.0009(16)
C3 0.023(2) 0.014(2) 0.0095(17) 0.0020(14) 0.0014(14) 0.0000(15)
Cu1A 0.0196 0.0094 0.0079 0 0.00052 -0.0011
Cu1B 0.0196 0.0094 0.0079 0 -0.00052 0.0011
O4B 0.0196 0.0145 0.0135 -0.0012 -0.0019 -0.003
O6A 0.0282 0.0147 0.0082 -0.0003 0.0034 0.0008
C4 0.030(2) 0.024(2) 0.0155(19) -0.0024(19) 0.0003(15) 0.001(2)
C5 0.025(2) 0.035(3) 0.028(2) -0.0077(18) -0.0032(19) 0.0000(19)
N1 0.0257(19) 0.0170(17) 0.0128(17) -0.0004(12) -0.0001(13) -0.0031(13)
loop_
_geom_bond_atom_site_label_1
_geom_bond_atom_site_label_2
_geom_bond_site_symmetry_1
_geom_bond_site_symmetry_2
Cu1 O1 1_555 1_555
O1 C1 1_555 1_555
O2 Cu1 1_555 1_555
O3 Cu1 1_555 1_555
O4 C2 1_555 1_555
O5 Cu1 1_555 1_555
O6 C3 1_555 1_555
C1 O2 1_555 1_555
H1 C1 1_555 1_555
C2 O3 1_555 1_555
H2 C2 1_555 1_555
C3 O5 1_555 1_555
H3 C3 1_555 1_555
C4 H4 1_555 1_555
H5 C4 1_555 1_555
C5 C4 1_555 1_555
H6 C5 1_555 1_555
H7 C5 1_555 1_555
H8 C5 1_555 1_555
N1 C4 1_555 1_555
H9 N1 1_555 1_555
H10 N1 1_555 1_555
H11 N1 1_555 1_555
Cu1A O6 1_555 1_555
Cu1B O4 1_555 1_555
O4B Cu1 1_555 1_555
O6A Cu1 1_555 1_555

#END
