
#######################################################################
#
#                 Cambridge Crystallographic Data Centre
#                                CCDC 
#
#######################################################################
#
# If this CIF has been generated from an entry in the Cambridge 
# Structural Database, then it will include bibliographic, chemical, 
# crystal, experimental, refinement or atomic coordinate data resulting 
# from the CCDC's data processing and validation procedures.
#
#######################################################################

data_MAGNEQ01
_chemical_formula_moiety         '(C5 H11 Cu1 N1 O6)n'
_symmetry_cell_setting           orthorhombic
_symmetry_space_group_name_H-M   'P 21 21 21'
_symmetry_Int_Tables_number      19
_space_group_name_Hall           'P 2ac 2ab'
loop_
_symmetry_equiv_pos_site_id
_symmetry_equiv_pos_as_xyz
1 x,y,z
2 1/2-x,-y,1/2+z
3 -x,1/2+y,1/2-z
4 1/2+x,1/2-y,-z
_cell_length_a                   10.0729(5)
_cell_length_b                   8.2789(4)
_cell_length_c                   11.1535(6)
_cell_angle_alpha                90
_cell_angle_beta                 90
_cell_angle_gamma                90
_cell_volume                     930.119
loop_
_atom_site_label
_atom_site_type_symbol
_atom_site_fract_x
_atom_site_fract_y
_atom_site_fract_z
_atom_site_U_iso_or_equiv
_atom_site_thermal_displace_type
Cu1 Cu 0.20435(3) 0.00050(5) 0.26715(3) 0.0178 Uani
O1 O 0.4617(3) 0.0530(3) 0.3290(2) 0.0332 Uani
O2 O 0.3124(3) 0.1874(3) 0.2223(2) 0.0260 Uani
O3 O 0.0144(2) 0.0986(3) 0.1858(2) 0.0254 Uani
O4 O -0.1286(2) 0.3003(3) 0.1703(2) 0.0229 Uani
O5 O 0.1832(2) 0.1061(3) 0.42762(19) 0.0225 Uani
O6 O 0.2438(3) 0.1140(3) 0.6178(2) 0.0255 Uani
C1 C 0.4253(4) 0.1717(4) 0.2686(3) 0.0286 Uani
H1 H 0.4875 0.2565 0.2566 0.0340 Uiso
C2 C -0.0308(4) 0.2314(4) 0.2174(3) 0.0247 Uani
H2 H 0.0120 0.2849 0.2821 0.0300 Uiso
C3 C 0.2313(3) 0.0409(4) 0.5198(3) 0.0217 Uani
H3 H 0.2593 -0.0685 0.5151 0.0260 Uiso
Cu1A Cu 0.29565(3) -0.00050(5) 0.76715(3) 0.0178 Uani
Cu1B Cu -0.20435(3) 0.50050(5) 0.23285(3) 0.0178 Uani
O4B O 0.1286(2) -0.1997(3) 0.3297(2) 0.0229 Uani
O6A O 0.2562(3) -0.1140(3) 0.1178(2) 0.0255 Uani
C4 C 0.7760(4) -0.0167(6) 0.4557(3) 0.0357 Uani
H4 H 0.8149 0.0573 0.3954 0.0430 Uiso
H5 H 0.7556 -0.1201 0.4151 0.0430 Uiso
C5 C 0.8750(4) -0.0462(6) 0.5522(4) 0.0500 Uani
H6 H 0.9062 0.0574 0.5841 0.0750 Uiso
H7 H 0.9505 -0.1066 0.5195 0.0750 Uiso
H8 H 0.8337 -0.1089 0.6167 0.0750 Uiso
N1 N 0.6518(3) 0.0542(4) 0.5025(3) 0.0280 Uani
H9 H 0.6205 -0.0081 0.5635 0.0420 Uiso
H10 H 0.5904 0.0585 0.4428 0.0420 Uiso
H11 H 0.6681 0.1557 0.5300 0.0420 Uiso
loop_
_atom_site_aniso_label
_atom_site_aniso_U_11
_atom_site_aniso_U_22
_atom_site_aniso_U_33
_atom_site_aniso_U_23
_atom_site_aniso_U_13
_atom_site_aniso_U_12
Cu1 0.0271(2) 0.01465(18) 0.01158(18) 0.00022(19) -0.00077(13) -0.00118(19)
O1 0.0313(14) 0.0317(15) 0.0367(15) -0.0020(11) -0.0048(12) 0.0005(10)
O2 0.0350(14) 0.0213(12) 0.0217(13) 0.0022(10) 0.0003(11) -0.0037(10)
O3 0.0320(14) 0.0201(13) 0.0242(13) -0.0040(10) -0.0048(11) 0.0039(10)
O4 0.0293(14) 0.0211(12) 0.0184(12) -0.0004(10) -0.0028(11) 0.0049(11)
O5 0.0343(14) 0.0217(12) 0.0114(11) -0.0022(9) -0.0026(10) 0.0006(11)
O6 0.0420(14) 0.0216(12) 0.0128(12) 0.0013(9) -0.0053(10) 0.0018(11)
C1 0.035(2) 0.0208(17) 0.030(2) -0.0085(16) 0.0069(17) -0.0061(14)
C2 0.032(2) 0.0201(17) 0.022(2) -0.0056(14) -0.0060(15) 0.0006(14)
C3 0.033(2) 0.0183(19) 0.0138(16) 0.0014(12) 0.0004(13) -0.0004(13)
Cu1A 0.0271 0.01465 0.01158 -0.00022 0.00077 -0.00118
Cu1B 0.0271 0.01465 0.01158 -0.00022 -0.00077 0.00118
O4B 0.0293 0.0211 0.0184 0.0004 -0.0028 -0.0049
O6A 0.042 0.0216 0.0128 -0.0013 0.0053 0.0018
C4 0.045(2) 0.034(2) 0.028(2) -0.0042(19) 0.0003(15) -0.001(2)
C5 0.034(2) 0.066(3) 0.050(3) -0.014(2) -0.007(2) 0.001(2)
N1 0.0368(19) 0.0266(16) 0.0207(16) 0.0014(11) 0.0006(13) -0.0049(12)
loop_
_geom_bond_atom_site_label_1
_geom_bond_atom_site_label_2
_geom_bond_site_symmetry_1
_geom_bond_site_symmetry_2
Cu1 O1 1_555 1_555
O1 C1 1_555 1_555
O2 Cu1 1_555 1_555
O3 Cu1 1_555 1_555
O4 C2 1_555 1_555
O5 Cu1 1_555 1_555
O6 C3 1_555 1_555
C1 O2 1_555 1_555
H1 C1 1_555 1_555
C2 O3 1_555 1_555
H2 C2 1_555 1_555
C3 O5 1_555 1_555
H3 C3 1_555 1_555
C4 H4 1_555 1_555
H5 C4 1_555 1_555
C5 C4 1_555 1_555
H6 C5 1_555 1_555
H7 C5 1_555 1_555
H8 C5 1_555 1_555
N1 C4 1_555 1_555
H9 N1 1_555 1_555
H10 N1 1_555 1_555
H11 N1 1_555 1_555
Cu1A O6 1_555 1_555
Cu1B O4 1_555 1_555
O4B Cu1 1_555 1_555
O6A Cu1 1_555 1_555

#END
