
#######################################################################
#
#                 Cambridge Crystallographic Data Centre
#                                CCDC 
#
#######################################################################
#
# If this CIF has been generated from an entry in the Cambridge 
# Structural Database, then it will include bibliographic, chemical, 
# crystal, experimental, refinement or atomic coordinate data resulting 
# from the CCDC's data processing and validation procedures.
#
#######################################################################

data_AFUJUI
_chemical_formula_moiety         'C72 H56 Mn14 N4 O35'
_symmetry_cell_setting           monoclinic
_symmetry_space_group_name_H-M   'C 2/c'
_symmetry_Int_Tables_number      15
_space_group_name_Hall           '-C 2yc'
loop_
_symmetry_equiv_pos_site_id
_symmetry_equiv_pos_as_xyz
1 x,y,z
2 -x,y,1/2-z
3 1/2+x,1/2+y,z
4 1/2-x,1/2+y,1/2-z
5 -x,-y,-z
6 x,-y,1/2+z
7 1/2-x,1/2-y,-z
8 1/2+x,1/2-y,1/2+z
_cell_length_a                   23.643(9)
_cell_length_b                   10.850(5)
_cell_length_c                   34.239(15)
_cell_angle_alpha                90
_cell_angle_beta                 100.091(11)
_cell_angle_gamma                90
_cell_volume                     8647.34
loop_
_atom_site_label
_atom_site_type_symbol
_atom_site_fract_x
_atom_site_fract_y
_atom_site_fract_z
_atom_site_U_iso_or_equiv
_atom_site_thermal_displace_type
Mn1 Mn 0.75329(14) 0.2613(3) 1.00091(9) 0.0429 Uiso
Mn2 Mn 1.17615(5) 1.02132(9) 0.99911(3) 0.0794 Uani
N1 N 1.1083(3) 0.9785(6) 1.03428(17) 0.0988 Uani
N2 N 1.1312(4) 1.1954(7) 1.00618(18) 0.1121 Uani
C1 C 0.9226(3) 0.5118(7) 0.78020(19) 0.0817 Uani
C2 C 0.9559(4) 0.6096(7) 0.80444(18) 0.0955 Uani
H1 H 0.9812 0.6513 0.7892 0.1150 Uiso
H2 H 0.9302 0.6700 0.8128 0.1150 Uiso
C3 C 0.8823(4) 0.4492(8) 0.8043(2) 0.1139 Uani
H3 H 0.8586 0.3887 0.7882 0.1370 Uiso
H4 H 0.9042 0.4078 0.8272 0.1370 Uiso
C4 C 0.8870(4) 0.5764(7) 0.74500(18) 0.0923 Uani
H5 H 0.8602 0.6335 0.7538 0.1110 Uiso
H6 H 0.9116 0.6219 0.7302 0.1110 Uiso
C5 C 0.9623(3) 0.4204(7) 0.76815(19) 0.0854 Uani
H7 H 0.9826 0.3768 0.7911 0.1030 Uiso
H8 H 0.9415 0.3611 0.7498 0.1030 Uiso
C6 C 1.0209(4) 0.6196(10) 0.8640(2) 0.1018 Uani
C7 C 1.0277(4) 0.7459(9) 0.8616(2) 0.1090 Uani
H9 H 1.0079 0.7884 0.8399 0.1310 Uiso
C8 C 1.0636(4) 0.8099(9) 0.8910(2) 0.1047 Uani
H10 H 1.0687 0.8947 0.8898 0.1260 Uiso
C9 C 1.0918(3) 0.7383(13) 0.9229(2) 0.1051 Uani
C10 C 1.0848(5) 0.6135(13) 0.9229(3) 0.1349 Uani
H11 H 1.1054 0.5676 0.9435 0.1620 Uiso
C11 C 1.0503(5) 0.5565(11) 0.8950(3) 0.1274 Uani
H12 H 1.0459 0.4715 0.8963 0.1530 Uiso
C12 C 1.1281(5) 0.8106(18) 0.9530(3) 0.1517 Uani
C13 C 0.8246(5) 0.5252(10) 0.8490(3) 0.1397 Uani
C14 C 0.8046(6) 0.6275(10) 0.8642(4) 0.1879 Uani
H13 H 0.8067 0.7025 0.8514 0.2250 Uiso
C15 C 0.7823(6) 0.6239(8) 0.8970(4) 0.1855 Uani
H14 H 0.7701 0.6957 0.9078 0.2230 Uiso
C16 C 0.7774(5) 0.5126(7) 0.9145(2) 0.1111 Uani
C17 C 0.8004(4) 0.4129(7) 0.9012(2) 0.0941 Uani
H15 H 0.8005 0.3394 0.9153 0.1130 Uiso
C18 C 0.8237(4) 0.4154(7) 0.8676(2) 0.0993 Uani
H16 H 0.8385 0.3445 0.8578 0.1190 Uiso
C19 C 0.7496(5) 0.5132(8) 0.9496(3) 0.1221 Uani
C20 C 0.8329(4) 0.5093(8) 0.6847(2) 0.0970 Uani
C21 C 0.8129(5) 0.4132(8) 0.6627(3) 0.1512 Uani
H17 H 0.8179 0.3343 0.6734 0.1810 Uiso
C22 C 0.7856(5) 0.4280(8) 0.6251(3) 0.1370 Uani
H18 H 0.7703 0.3597 0.6105 0.1640 Uiso
C23 C 0.7801(3) 0.5424(7) 0.6080(2) 0.0833 Uani
C24 C 0.8008(3) 0.6382(7) 0.63041(19) 0.0783 Uani
H19 H 0.7967 0.7167 0.6193 0.0940 Uiso
C25 C 0.8280(3) 0.6263(7) 0.6690(2) 0.0891 Uani
H20 H 0.8425 0.6944 0.6839 0.1070 Uiso
C26 C 0.7498(4) 0.5554(8) 0.5672(2) 0.0886 Uani
C27 C 1.0935(5) 0.8652(9) 1.0446(3) 0.1182 Uani
H21 H 1.1186 0.8008 1.0420 0.1420 Uiso
C28 C 1.0446(7) 0.8376(13) 1.0587(4) 0.1630 Uani
H22 H 1.0372 0.7578 1.0663 0.1960 Uiso
C29 C 1.0059(6) 0.9333(19) 1.0613(4) 0.1726 Uani
H23 H 0.9717 0.9194 1.0706 0.2070 Uiso
C30 C 1.0201(6) 1.0477(16) 1.0498(4) 0.1571 Uani
H24 H 0.9945 1.1125 1.0503 0.1890 Uiso
C31 C 1.0710(5) 1.0689(10) 1.0375(2) 0.1135 Uani
C32 C 1.1494(6) 1.3038(9) 0.9954(3) 0.1438 Uani
H25 H 1.1790 1.3048 0.9808 0.1730 Uiso
C33 C 1.1273(9) 1.4131(12) 1.0044(4) 0.1808 Uani
H26 H 1.1410 1.4878 0.9966 0.2150 Uiso
C34 C 1.0858(11) 1.4071(15) 1.0248(5) 0.2139 Uani
H27 H 1.0701 1.4811 1.0316 0.2580 Uiso
C35 C 1.0627(7) 1.2974(14) 1.0373(3) 0.1837 Uani
H28 H 1.0326 1.2954 1.0515 0.2210 Uiso
C36 C 1.0901(4) 1.1909(8) 1.0262(3) 0.1045 Uani
O1 O 0.9880(3) 0.5504(5) 0.83754(16) 0.1205 Uani
O2 O 0.8483(3) 0.5410(7) 0.81632(19) 0.1543 Uani
O3 O 0.8574(3) 0.4831(5) 0.72147(17) 0.1242 Uani
O4 O 1.0000 0.4873(7) 0.7500 0.1065 Uani
O5 O 1.1249(3) 0.9218(9) 0.95388(18) 0.1353 Uani
O6 O 1.1610(3) 0.7447(7) 0.97951(18) 0.1377 Uani
O7 O 0.7540(3) 0.4171(5) 0.97003(14) 0.1176 Uani
O8 O 0.7196(4) 0.5987(5) 0.95633(19) 0.1498 Uani
O9 O 0.7411(3) 0.6582(5) 0.55356(13) 0.1035 Uani
O10 O 0.7335(3) 0.4583(5) 0.54878(15) 0.1056 Uani
C1A C 1.0774(3) 0.5118(7) 0.71980(19) 0.0817 Uani
C2A C 1.0441(4) 0.6096(7) 0.69556(18) 0.0955 Uani
H1A H 1.0188 0.6513 0.7108 0.1150 Uiso
H2A H 1.0698 0.6700 0.6872 0.1150 Uiso
C3A C 1.1177(4) 0.4492(8) 0.6957(2) 0.1139 Uani
H3A H 1.1414 0.3887 0.7118 0.1370 Uiso
H4A H 1.0958 0.4078 0.6728 0.1370 Uiso
C4A C 1.1130(4) 0.5764(7) 0.75500(18) 0.0923 Uani
H5A H 1.1398 0.6335 0.7462 0.1110 Uiso
H6A H 1.0884 0.6219 0.7698 0.1110 Uiso
C5A C 1.0377(3) 0.4204(7) 0.73185(19) 0.0854 Uani
H7A H 1.0174 0.3768 0.7089 0.1030 Uiso
H8A H 1.0585 0.3611 0.7502 0.1030 Uiso
C6A C 0.9791(4) 0.6196(10) 0.6360(2) 0.1018 Uani
C7A C 0.9723(4) 0.7459(9) 0.6384(2) 0.1090 Uani
H9A H 0.9921 0.7884 0.6601 0.1310 Uiso
C8A C 0.9364(4) 0.8099(9) 0.6090(2) 0.1047 Uani
H10A H 0.9313 0.8947 0.6102 0.1260 Uiso
C9A C 0.9082(3) 0.7383(13) 0.5771(2) 0.1051 Uani
C10A C 0.9152(5) 0.6135(13) 0.5771(3) 0.1349 Uani
H11A H 0.8946 0.5676 0.5565 0.1620 Uiso
C11A C 0.9497(5) 0.5565(11) 0.6050(3) 0.1274 Uani
H12A H 0.9541 0.4715 0.6037 0.1530 Uiso
C12A C 0.8719(5) 0.8106(18) 0.5470(3) 0.1517 Uani
C13A C 1.1754(5) 0.5252(10) 0.6510(3) 0.1397 Uani
C14A C 1.1954(6) 0.6275(10) 0.6358(4) 0.1879 Uani
H13A H 1.1933 0.7025 0.6486 0.2250 Uiso
C15A C 1.2177(6) 0.6239(8) 0.6030(4) 0.1855 Uani
H14A H 1.2299 0.6957 0.5922 0.2230 Uiso
C16A C 1.2226(5) 0.5126(7) 0.5855(2) 0.1111 Uani
C17A C 1.1996(4) 0.4129(7) 0.5988(2) 0.0941 Uani
H15A H 1.1995 0.3394 0.5847 0.1130 Uiso
C18A C 1.1763(4) 0.4154(7) 0.6324(2) 0.0993 Uani
H16A H 1.1615 0.3445 0.6422 0.1190 Uiso
C19A C 1.2504(5) 0.5132(8) 0.5504(3) 0.1221 Uani
C20A C 1.1671(4) 0.5093(8) 0.8153(2) 0.0970 Uani
C21A C 1.1871(5) 0.4132(8) 0.8373(3) 0.1512 Uani
H17A H 1.1821 0.3343 0.8266 0.1810 Uiso
C22A C 1.2144(5) 0.4280(8) 0.8749(3) 0.1370 Uani
H18A H 1.2297 0.3597 0.8895 0.1640 Uiso
C23A C 1.2199(3) 0.5424(7) 0.8920(2) 0.0833 Uani
C24A C 1.1992(3) 0.6382(7) 0.86959(19) 0.0783 Uani
H19A H 1.2033 0.7167 0.8807 0.0940 Uiso
C25A C 1.1720(3) 0.6263(7) 0.8310(2) 0.0891 Uani
H20A H 1.1575 0.6944 0.8161 0.1070 Uiso
C26A C 1.2502(4) 0.5554(8) 0.9328(2) 0.0886 Uani
O1A O 1.0120(3) 0.5504(5) 0.66246(16) 0.1205 Uani
O2A O 1.1517(3) 0.5410(7) 0.68368(19) 0.1543 Uani
O3A O 1.1426(3) 0.4831(5) 0.77853(17) 0.1242 Uani
O5A O 0.8751(3) 0.9218(9) 0.54612(18) 0.1353 Uani
O6A O 0.8390(3) 0.7447(7) 0.52049(18) 0.1377 Uani
O7A O 1.2460(3) 0.4171(5) 0.52997(14) 0.1176 Uani
O8A O 1.2804(4) 0.5987(5) 0.54367(19) 0.1498 Uani
O9A O 1.2589(3) 0.6582(5) 0.94644(13) 0.1035 Uani
O10A O 1.2665(3) 0.4583(5) 0.95122(15) 0.1056 Uani
Mn1A Mn 1.24671(14) 0.2613(3) 0.49909(9) 0.0429 Uiso
Mn2A Mn 0.82385(5) 1.02132(9) 0.50089(3) 0.0794 Uani
N1A N 0.8917(3) 0.9785(6) 0.46572(17) 0.0988 Uani
N2A N 0.8688(4) 1.1954(7) 0.49382(18) 0.1121 Uani
C27A C 0.9065(5) 0.8652(9) 0.4554(3) 0.1182 Uani
H21A H 0.8814 0.8008 0.4580 0.1420 Uiso
C28A C 0.9554(7) 0.8376(13) 0.4413(4) 0.1630 Uani
H22A H 0.9628 0.7578 0.4337 0.1960 Uiso
C29A C 0.9941(6) 0.9333(19) 0.4387(4) 0.1726 Uani
H23A H 1.0283 0.9194 0.4294 0.2070 Uiso
C30A C 0.9799(6) 1.0477(16) 0.4502(4) 0.1571 Uani
H24A H 1.0055 1.1125 0.4497 0.1890 Uiso
C31A C 0.9290(5) 1.0689(10) 0.4625(2) 0.1135 Uani
C32A C 0.8506(6) 1.3038(9) 0.5046(3) 0.1438 Uani
H25A H 0.8210 1.3048 0.5192 0.1730 Uiso
C33A C 0.8727(9) 1.4131(12) 0.4956(4) 0.1808 Uani
H26A H 0.8590 1.4878 0.5034 0.2150 Uiso
C34A C 0.9142(11) 1.4071(15) 0.4752(5) 0.2139 Uani
H27A H 0.9299 1.4811 0.4684 0.2580 Uiso
C35A C 0.9373(7) 1.2974(14) 0.4627(3) 0.1837 Uani
H28A H 0.9674 1.2954 0.4485 0.2210 Uiso
C36A C 0.9099(4) 1.1909(8) 0.4738(3) 0.1045 Uani
Mn1B Mn 1.25329(14) 0.7613(3) 1.00091(9) 0.0429 Uiso
Mn1C Mn 0.74671(14) 0.7613(3) 0.49909(9) 0.0429 Uiso
Mn1D Mn 1.24671(14) 0.7387(3) 0.99909(9) 0.0429 Uiso
Mn1E Mn 0.75329(14) 0.7387(3) 0.50091(9) 0.0429 Uiso
Mn1F Mn 0.74671(14) 0.2387(3) 0.99909(9) 0.0429 Uiso
Mn1G Mn 1.25329(14) 0.2387(3) 0.50091(9) 0.0429 Uiso
Mn2B Mn 0.67615(5) 0.52132(9) 0.99911(3) 0.0794 Uani
Mn2C Mn 1.32385(5) 0.52132(9) 0.50089(3) 0.0794 Uani
Mn2F Mn 1.32385(5) 0.47868(9) 1.00089(3) 0.0794 Uani
Mn2G Mn 0.67615(5) 0.47868(9) 0.49911(3) 0.0794 Uani
O6B O 0.6610(3) 0.2447(7) 0.97951(18) 0.1377 Uani
O6C O 1.3390(3) 0.2447(7) 0.52049(18) 0.1377 Uani
O6D O 0.8390(3) 0.2553(7) 1.02049(18) 0.1377 Uani
O6E O 1.1610(3) 0.2553(7) 0.47951(18) 0.1377 Uani
O7B O 1.2540(3) 0.9171(5) 0.97003(14) 0.1176 Uani
O7C O 0.7460(3) 0.9171(5) 0.52997(14) 0.1176 Uani
O7F O 0.7460(3) 0.0829(5) 1.02997(14) 0.1176 Uani
O7G O 1.2540(3) 0.0829(5) 0.47003(14) 0.1176 Uani
O8B O 1.2196(4) 1.0987(5) 0.95633(19) 0.1498 Uani
O8C O 0.7804(4) 1.0987(5) 0.54367(19) 0.1498 Uani
O9B O 1.2411(3) 0.1582(5) 0.55356(13) 0.1035 Uani
O9C O 0.7589(3) 0.1582(5) 0.94644(13) 0.1035 Uani
O9D O 1.2589(3) 0.3418(5) 0.44644(13) 0.1035 Uani
O9E O 0.7411(3) 0.3418(5) 1.05356(13) 0.1035 Uani
O10F O 0.7665(3) 1.0417(5) 0.45122(15) 0.1056 Uani
O10G O 1.2335(3) 1.0417(5) 1.04878(15) 0.1056 Uani
loop_
_atom_site_aniso_label
_atom_site_aniso_U_11
_atom_site_aniso_U_22
_atom_site_aniso_U_33
_atom_site_aniso_U_23
_atom_site_aniso_U_13
_atom_site_aniso_U_12
Mn2 0.1059(10) 0.0762(7) 0.0603(6) 0.0163(5) 0.0263(6) 0.0355(6)
N1 0.133(6) 0.093(4) 0.076(4) 0.011(3) 0.034(4) 0.034(4)
N2 0.170(8) 0.104(5) 0.068(4) 0.012(4) 0.037(4) 0.064(5)
C1 0.094(5) 0.100(5) 0.056(4) 0.003(4) 0.027(4) 0.007(4)
C2 0.122(7) 0.116(6) 0.050(4) 0.012(4) 0.019(4) 0.038(5)
C3 0.137(8) 0.137(7) 0.078(5) 0.039(5) 0.047(5) 0.018(6)
C4 0.102(6) 0.125(6) 0.054(4) 0.020(4) 0.025(4) 0.004(5)
C5 0.103(6) 0.096(5) 0.063(4) 0.012(4) 0.031(4) 0.002(4)
C6 0.110(7) 0.132(8) 0.061(5) 0.016(5) 0.008(4) 0.051(6)
C7 0.121(8) 0.139(8) 0.058(5) 0.001(5) -0.009(5) 0.058(6)
C8 0.090(6) 0.156(7) 0.064(5) -0.008(5) 0.002(4) 0.045(5)
C9 0.063(5) 0.209(11) 0.040(4) -0.010(5) 0.000(4) 0.031(6)
C10 0.135(10) 0.164(11) 0.099(8) 0.031(7) 0.002(7) 0.049(8)
C11 0.134(9) 0.158(8) 0.082(6) 0.025(6) -0.004(6) 0.041(7)
C12 0.094(8) 0.296(17) 0.071(7) 0.002(10) 0.031(6) 0.090(11)
C13 0.155(10) 0.165(9) 0.124(7) 0.083(7) 0.093(7) 0.059(7)
C14 0.252(15) 0.120(8) 0.237(13) 0.108(8) 0.168(12) 0.100(9)
C15 0.313(17) 0.098(6) 0.204(11) 0.077(7) 0.207(12) 0.072(8)
C16 0.178(10) 0.072(5) 0.103(6) 0.037(4) 0.079(6) 0.029(5)
C17 0.138(7) 0.073(5) 0.080(5) 0.025(4) 0.043(5) 0.008(4)
C18 0.131(7) 0.099(5) 0.082(5) 0.033(4) 0.058(5) 0.011(5)
C19 0.189(11) 0.081(6) 0.119(7) 0.014(5) 0.090(7) 0.004(6)
C20 0.104(6) 0.109(6) 0.076(5) 0.043(5) 0.010(4) -0.021(5)
C21 0.238(13) 0.083(6) 0.105(7) 0.039(5) -0.046(7) -0.055(7)
C22 0.206(11) 0.075(5) 0.108(7) 0.030(5) -0.033(7) -0.035(6)
C23 0.089(6) 0.085(5) 0.073(4) 0.012(4) 0.006(4) -0.013(4)
C24 0.083(5) 0.085(5) 0.069(4) 0.027(4) 0.019(4) 0.003(4)
C25 0.099(6) 0.089(5) 0.077(5) 0.014(4) 0.009(4) -0.002(4)
C26 0.117(7) 0.093(6) 0.061(4) 0.020(4) 0.030(4) 0.022(5)
C27 0.144(9) 0.111(7) 0.117(7) 0.006(5) 0.071(6) 0.027(6)
C28 0.164(13) 0.186(12) 0.161(10) 0.031(8) 0.089(10) 0.013(10)
C29 0.141(12) 0.239(16) 0.160(11) 0.027(11) 0.088(9) 0.023(12)
C30 0.124(10) 0.219(14) 0.142(9) 0.000(9) 0.061(8) 0.062(10)
C31 0.123(8) 0.143(8) 0.079(5) 0.005(5) 0.030(5) 0.066(7)
C32 0.245(14) 0.083(6) 0.099(6) 0.031(5) 0.018(7) 0.047(7)
C33 0.32(2) 0.090(8) 0.136(11) 0.008(7) 0.050(11) 0.055(10)
C34 0.34(3) 0.113(11) 0.164(14) -0.021(10) -0.024(13) 0.123(15)
C35 0.294(19) 0.150(10) 0.112(8) -0.020(8) 0.049(9) 0.121(12)
C36 0.116(8) 0.105(7) 0.092(6) 0.010(5) 0.017(5) 0.061(6)
O1 0.153(6) 0.121(4) 0.072(3) 0.011(3) -0.023(4) 0.043(4)
O2 0.168(6) 0.184(6) 0.142(5) 0.103(5) 0.113(5) 0.087(5)
O3 0.149(6) 0.122(4) 0.087(4) 0.042(3) -0.020(4) -0.049(4)
O4 0.110(6) 0.113(5) 0.114(6) 0.000 0.068(5) 0.000
O5 0.079(4) 0.241(8) 0.077(4) -0.036(5) -0.011(3) 0.049(5)
O6 0.078(4) 0.244(8) 0.086(4) 0.040(4) 0.000(3) 0.011(4)
O7 0.207(7) 0.077(3) 0.080(3) 0.018(3) 0.056(4) -0.004(3)
O8 0.254(9) 0.081(4) 0.149(6) 0.011(3) 0.131(6) 0.020(5)
O9 0.171(6) 0.089(3) 0.057(3) 0.016(2) 0.038(3) 0.036(3)
O10 0.149(5) 0.081(3) 0.082(3) 0.009(3) 0.007(3) -0.008(3)
C1A 0.094 0.1 0.056 -0.003 0.027 -0.007
C2A 0.122 0.116 0.05 -0.012 0.019 -0.038
C3A 0.137 0.137 0.078 -0.039 0.047 -0.018
C4A 0.102 0.125 0.054 -0.02 0.025 -0.004
C5A 0.103 0.096 0.063 -0.012 0.031 -0.002
C6A 0.11 0.132 0.061 -0.016 0.008 -0.051
C7A 0.121 0.139 0.058 -0.001 -0.009 -0.058
C8A 0.09 0.156 0.064 0.008 0.002 -0.045
C9A 0.063 0.209 0.04 0.01 0 -0.031
C10A 0.135 0.164 0.099 -0.031 0.002 -0.049
C11A 0.134 0.158 0.082 -0.025 -0.004 -0.041
C12A 0.094 0.296 0.071 -0.002 0.031 -0.09
C13A 0.155 0.165 0.124 -0.083 0.093 -0.059
C14A 0.252 0.12 0.237 -0.108 0.168 -0.1
C15A 0.313 0.098 0.204 -0.077 0.207 -0.072
C16A 0.178 0.072 0.103 -0.037 0.079 -0.029
C17A 0.138 0.073 0.08 -0.025 0.043 -0.008
C18A 0.131 0.099 0.082 -0.033 0.058 -0.011
C19A 0.189 0.081 0.119 -0.014 0.09 -0.004
C20A 0.104 0.109 0.076 -0.043 0.01 0.021
C21A 0.238 0.083 0.105 -0.039 -0.046 0.055
C22A 0.206 0.075 0.108 -0.03 -0.033 0.035
C23A 0.089 0.085 0.073 -0.012 0.006 0.013
C24A 0.083 0.085 0.069 -0.027 0.019 -0.003
C25A 0.099 0.089 0.077 -0.014 0.009 0.002
C26A 0.117 0.093 0.061 -0.02 0.03 -0.022
O1A 0.153 0.121 0.072 -0.011 -0.023 -0.043
O2A 0.168 0.184 0.142 -0.103 0.113 -0.087
O3A 0.149 0.122 0.087 -0.042 -0.02 0.049
O5A 0.079 0.241 0.077 0.036 -0.011 -0.049
O6A 0.078 0.244 0.086 -0.04 0 -0.011
O7A 0.207 0.077 0.08 -0.018 0.056 0.004
O8A 0.254 0.081 0.149 -0.011 0.131 -0.02
O9A 0.171 0.089 0.057 -0.016 0.038 -0.036
O10A 0.149 0.081 0.082 -0.009 0.007 0.008
Mn2A 0.1059 0.0762 0.0603 -0.0163 0.0263 -0.0355
N1A 0.133 0.093 0.076 -0.011 0.034 -0.034
N2A 0.17 0.104 0.068 -0.012 0.037 -0.064
C27A 0.144 0.111 0.117 -0.006 0.071 -0.027
C28A 0.164 0.186 0.161 -0.031 0.089 -0.013
C29A 0.141 0.239 0.16 -0.027 0.088 -0.023
C30A 0.124 0.219 0.142 0 0.061 -0.062
C31A 0.123 0.143 0.079 -0.005 0.03 -0.066
C32A 0.245 0.083 0.099 -0.031 0.018 -0.047
C33A 0.32 0.09 0.136 -0.008 0.05 -0.055
C34A 0.34 0.113 0.164 0.021 -0.024 -0.123
C35A 0.294 0.15 0.112 0.02 0.049 -0.121
C36A 0.116 0.105 0.092 -0.01 0.017 -0.061
Mn2B 0.1059 0.0762 0.0603 0.0163 0.0263 0.0355
Mn2C 0.1059 0.0762 0.0603 -0.0163 0.0263 -0.0355
Mn2F 0.1059 0.0762 0.0603 0.0163 0.0263 0.0355
Mn2G 0.1059 0.0762 0.0603 -0.0163 0.0263 -0.0355
O6B 0.078 0.244 0.086 0.04 0 0.011
O6C 0.078 0.244 0.086 -0.04 0 -0.011
O6D 0.078 0.244 0.086 0.04 0 0.011
O6E 0.078 0.244 0.086 -0.04 0 -0.011
O7B 0.207 0.077 0.08 0.018 0.056 -0.004
O7C 0.207 0.077 0.08 -0.018 0.056 0.004
O7F 0.207 0.077 0.08 0.018 0.056 -0.004
O7G 0.207 0.077 0.08 -0.018 0.056 0.004
O8B 0.254 0.081 0.149 0.011 0.131 0.02
O8C 0.254 0.081 0.149 -0.011 0.131 -0.02
O9B 0.171 0.089 0.057 0.016 0.038 0.036
O9C 0.171 0.089 0.057 -0.016 0.038 -0.036
O9D 0.171 0.089 0.057 0.016 0.038 0.036
O9E 0.171 0.089 0.057 -0.016 0.038 -0.036
O10F 0.149 0.081 0.082 0.009 0.007 -0.008
O10G 0.149 0.081 0.082 -0.009 0.007 0.008
loop_
_geom_bond_atom_site_label_1
_geom_bond_atom_site_label_2
_geom_bond_site_symmetry_1
_geom_bond_site_symmetry_2
Mn1 O7 1_555 1_555
Mn2 N1 1_555 1_555
N1 C27 1_555 1_555
N2 Mn2 1_555 1_555
C1 C2 1_555 1_555
C2 H1 1_555 1_555
H2 C2 1_555 1_555
C3 C1 1_555 1_555
H3 C3 1_555 1_555
H4 C3 1_555 1_555
C4 C1 1_555 1_555
H5 C4 1_555 1_555
H6 C4 1_555 1_555
C5 C1 1_555 1_555
H7 C5 1_555 1_555
H8 C5 1_555 1_555
C6 C7 1_555 1_555
C7 H9 1_555 1_555
C8 C7 1_555 1_555
H10 C8 1_555 1_555
C9 C8 1_555 1_555
C10 C9 1_555 1_555
H11 C10 1_555 1_555
C11 C6 1_555 1_555
H12 C11 1_555 1_555
C12 C9 1_555 1_555
C13 C14 1_555 1_555
C14 H13 1_555 1_555
C15 C14 1_555 1_555
H14 C15 1_555 1_555
C16 C15 1_555 1_555
C17 C16 1_555 1_555
H15 C17 1_555 1_555
C18 C13 1_555 1_555
H16 C18 1_555 1_555
C19 C16 1_555 1_555
C20 C21 1_555 1_555
C21 H17 1_555 1_555
C22 C21 1_555 1_555
H18 C22 1_555 1_555
C23 C22 1_555 1_555
C24 C23 1_555 1_555
H19 C24 1_555 1_555
C25 C20 1_555 1_555
H20 C25 1_555 1_555
C26 C23 1_555 1_555
C27 H21 1_555 1_555
C28 C27 1_555 1_555
H22 C28 1_555 1_555
C29 C28 1_555 1_555
H23 C29 1_555 1_555
C30 C29 1_555 1_555
H24 C30 1_555 1_555
C31 N1 1_555 1_555
C32 N2 1_555 1_555
H25 C32 1_555 1_555
C33 C32 1_555 1_555
H26 C33 1_555 1_555
C34 C33 1_555 1_555
H27 C34 1_555 1_555
C35 C34 1_555 1_555
H28 C35 1_555 1_555
C36 N2 1_555 1_555
O1 C2 1_555 1_555
O2 C3 1_555 1_555
O3 C4 1_555 1_555
O4 C5 1_555 1_555
O5 Mn2 1_555 1_555
O6 C12 1_555 1_555
O7 C19 1_555 1_555
O8 C19 1_555 1_555
O9 C26 1_555 1_555
O10 C26 1_555 1_555
C1A C2A 1_555 1_555
C2A H1A 1_555 1_555
H2A C2A 1_555 1_555
C3A C1A 1_555 1_555
H3A C3A 1_555 1_555
H4A C3A 1_555 1_555
C4A C1A 1_555 1_555
H5A C4A 1_555 1_555
H6A C4A 1_555 1_555
C5A O4 1_555 1_555
H7A C5A 1_555 1_555
H8A C5A 1_555 1_555
C6A C7A 1_555 1_555
C7A H9A 1_555 1_555
C8A C7A 1_555 1_555
H10A C8A 1_555 1_555
C9A C8A 1_555 1_555
C10A C9A 1_555 1_555
H11A C10A 1_555 1_555
C11A C6A 1_555 1_555
H12A C11A 1_555 1_555
C12A C9A 1_555 1_555
C13A C14A 1_555 1_555
C14A H13A 1_555 1_555
C15A C14A 1_555 1_555
H14A C15A 1_555 1_555
C16A C15A 1_555 1_555
C17A C16A 1_555 1_555
H15A C17A 1_555 1_555
C18A C13A 1_555 1_555
H16A C18A 1_555 1_555
C19A C16A 1_555 1_555
C20A C21A 1_555 1_555
C21A H17A 1_555 1_555
C22A C21A 1_555 1_555
H18A C22A 1_555 1_555
C23A C22A 1_555 1_555
C24A C23A 1_555 1_555
H19A C24A 1_555 1_555
C25A C20A 1_555 1_555
H20A C25A 1_555 1_555
C26A C23A 1_555 1_555
O1A C2A 1_555 1_555
O2A C3A 1_555 1_555
O3A C4A 1_555 1_555
O5A C12A 1_555 1_555
O6A C12A 1_555 1_555
O7A C19A 1_555 1_555
O8A C19A 1_555 1_555
O9A C26A 1_555 1_555
O10A C26A 1_555 1_555
Mn1A O7A 1_555 1_555
Mn2A O5A 1_555 1_555
N1A Mn2A 1_555 1_555
N2A Mn2A 1_555 1_555
C27A N1A 1_555 1_555
H21A C27A 1_555 1_555
C28A C27A 1_555 1_555
H22A C28A 1_555 1_555
C29A C28A 1_555 1_555
H23A C29A 1_555 1_555
C30A C29A 1_555 1_555
H24A C30A 1_555 1_555
C31A N1A 1_555 1_555
C32A N2A 1_555 1_555
H25A C32A 1_555 1_555
C33A C32A 1_555 1_555
H26A C33A 1_555 1_555
C34A C33A 1_555 1_555
H27A C34A 1_555 1_555
C35A C34A 1_555 1_555
H28A C35A 1_555 1_555
C36A N2A 1_555 1_555
Mn1B O6 1_555 1_555
Mn1C O9 1_555 1_555
Mn1D O6 1_555 1_555
Mn1E O9 1_555 1_555
Mn1F O7 1_555 1_555
Mn1G O7A 1_555 1_555
Mn2B O7 1_555 1_555
Mn2C O7A 1_555 1_555
Mn2F O10A 1_555 1_555
Mn2G O10 1_555 1_555
O6B Mn1 1_555 1_555
O6C Mn1A 1_555 1_555
O6D Mn1 1_555 1_555
O6E Mn1A 1_555 1_555
O7B Mn2 1_555 1_555
O7C Mn2A 1_555 1_555
O7F Mn1 1_555 1_555
O7G Mn1A 1_555 1_555
O8B Mn2 1_555 1_555
O8C Mn2A 1_555 1_555
O9B Mn1A 1_555 1_555
O9C Mn1 1_555 1_555
O9D Mn1A 1_555 1_555
O9E Mn1 1_555 1_555
O10F Mn2A 1_555 1_555
O10G Mn2 1_555 1_555
C6 O1 1_555 1_555
C10 C11 1_555 1_555
C12 O5 1_555 1_555
C13 O2 1_555 1_555
C17 C18 1_555 1_555
C20 O3 1_555 1_555
C24 C25 1_555 1_555
C30 C31 1_555 1_555
C31 C36 1_555 1_555
C35 C36 1_555 1_555
O8 Mn2B 1_555 1_555
C1A C5A 1_555 1_555
C6A O1A 1_555 1_555
C10A C11A 1_555 1_555
C13A O2A 1_555 1_555
C17A C18A 1_555 1_555
C20A O3A 1_555 1_555
C24A C25A 1_555 1_555
O6A Mn1C 1_555 1_555
O6A Mn1E 1_555 1_555
O8A Mn2C 1_555 1_555
O9A Mn1B 1_555 1_555
O9A Mn1D 1_555 1_555
C30A C31A 1_555 1_555
C31A C36A 1_555 1_555
C35A C36A 1_555 1_555
Mn1B O7B 1_555 1_555
Mn1C O7C 1_555 1_555
Mn1D O7B 1_555 1_555
Mn1E O7C 1_555 1_555
Mn1F O6B 1_555 1_555
Mn1F O6D 1_555 1_555
Mn1F O7F 1_555 1_555
Mn1F O9C 1_555 1_555
Mn1F O9E 1_555 1_555
Mn1G O6C 1_555 1_555
Mn1G O6E 1_555 1_555
Mn1G O7G 1_555 1_555
Mn1G O9B 1_555 1_555
Mn1G O9D 1_555 1_555

#END
