
#######################################################################
#
#                 Cambridge Crystallographic Data Centre
#                                CCDC 
#
#######################################################################
#
# If this CIF has been generated from an entry in the Cambridge 
# Structural Database, then it will include bibliographic, chemical, 
# crystal, experimental, refinement or atomic coordinate data resulting 
# from the CCDC's data processing and validation procedures.
#
#######################################################################

data_AFUKIX
_chemical_formula_moiety         'C262 H208 Mn34 N14 O114'
_symmetry_cell_setting           triclinic
_symmetry_space_group_name_H-M   'P -1'
_symmetry_Int_Tables_number      2
_space_group_name_Hall           '-P 1'
loop_
_symmetry_equiv_pos_site_id
_symmetry_equiv_pos_as_xyz
1 x,y,z
2 -x,-y,-z
_cell_length_a                   15.3269(12)
_cell_length_b                   25.4411(18)
_cell_length_c                   31.096(2)
_cell_angle_alpha                73.244(2)
_cell_angle_beta                 80.178(2)
_cell_angle_gamma                82.093(2)
_cell_volume                     11390
loop_
_atom_site_label
_atom_site_type_symbol
_atom_site_fract_x
_atom_site_fract_y
_atom_site_fract_z
Mn1 Mn 0.79404(7) 0.26129(3) 0.47823(3)
Mn2 Mn 0.81238(7) 0.11757(3) 0.47341(3)
Mn3 Mn 0.78005(8) 0.40188(3) 0.48588(3)
Mn4 Mn 0.25430(7) 0.77067(3) -0.02018(3)
Mn5 Mn 0.04365(7) 0.83212(3) 0.02315(3)
Mn6 Mn 0.44743(7) 0.70409(4) -0.07470(3)
N1 N 0.8420(4) 0.02743(16) 0.49338(15)
N2 N 0.8512(4) -0.06269(15) 0.50236(15)
N3 N -0.0617(3) 0.89314(17) 0.03802(18)
N4 N -0.1904(4) 0.94469(18) 0.03110(19)
O1 O 0.7461(3) 0.10940(14) 0.41798(12)
H1 H 0.7240 0.1454 0.4014
H2 H 0.6974 0.0872 0.4308
O2 O 0.3580(3) 0.12857(15) 0.74123(13)
O3 O 0.8644(10) 0.4077(5) 0.5402(3)
H3 H 0.8981 0.3732 0.5517
H4 H 0.8272 0.4186 0.5649
O4 O 0.5458(4) 0.20139(15) 0.72132(14)
O5 O 0.5729(4) 0.7167(2) -0.0505(3)
H5 H 0.5588 0.7420 -0.0321
H6 H 0.6155 0.7313 -0.0762
O6 O 0.6049(3) 0.11956(15) 0.81837(13)
O7 O 0.5384(4) 0.6501(2) -0.1089(2)
H7 H 0.5051 0.6342 -0.1246
H8 H 0.5666 0.6214 -0.0867
O8 O 0.4378(3) 0.04121(14) 0.82888(12)
O9 O -0.0567(4) 0.7974(2) -0.0029(2)
H9 H -0.0951 0.7765 0.0219
H10 H -0.0257 0.7737 -0.0208
O10 O 0.3313(3) 0.16074(14) 0.64098(12)
O11 O 0.1204(3) 0.09890(14) 0.67495(13)
O12 O 0.1612(3) 0.05588(14) 0.77356(12)
O13 O 0.6903(6) 0.3818(3) 0.5474(3)
O14 O 0.7520(3) 0.31264(13) 0.52615(12)
O15 O 0.8647(3) 0.13718(16) 0.94953(15)
O16 O 0.7377(3) 0.17269(14) 0.98137(12)
O17 O 0.3825(3) -0.20896(15) 0.93735(12)
O18 O 0.4562(3) -0.21873(15) 0.87214(14)
O19 O 0.6724(3) 0.22346(14) 0.49835(13)
O20 O 0.6867(3) 0.13195(14) 0.50722(13)
O21 O -0.1472(3) 0.20509(13) 0.53286(12)
O22 O -0.1180(3) 0.11979(13) 0.52554(12)
O23 O 0.1924(3) -0.16669(15) 0.92863(12)
O24 O 0.0738(3) -0.1205(2) 0.95874(14)
O25 O 0.2210(3) 0.41610(15) 0.22104(13)
O26 O 0.4050(3) 0.49456(15) 0.18675(14)
O27 O 0.4636(3) 0.44553(14) 0.28472(14)
O28 O 0.2623(3) 0.37902(14) 0.32091(13)
O29 O 0.1245(3) 0.49846(13) 0.13601(12)
O30 O -0.0298(3) 0.41139(16) 0.15192(15)
O31 O 0.0599(3) 0.32882(14) 0.24554(12)
O32 O 0.4261(4) 0.65667(17) -0.00917(14)
O33 O 0.3252(3) 0.70953(14) 0.02772(13)
O34 O 0.7085(3) 0.40076(18) 0.43573(15)
O35 O 0.7297(3) 0.31876(13) 0.42476(12)
O36 O -0.0997(4) 0.38538(16) 0.45387(18)
O37 O -0.0825(3) 0.29667(13) 0.45300(12)
O38 O 0.1255(3) 0.75049(13) 0.02270(11)
O39 O 0.0322(3) 0.75771(15) 0.08250(13)
O40 O -0.2289(3) 0.28815(15) 0.05324(13)
O41 O -0.3428(3) 0.32069(19) 0.09839(14)
O42 O -0.0689(3) 0.13945(13) 0.41917(12)
O43 O -0.1684(3) 0.20656(13) 0.43173(11)
C1 C 0.4844(5) 0.1238(3) 0.7772(2)
C2 C 0.5462(4) 0.1450(2) 0.7310(2)
H11 H 0.6063 0.1277 0.7333
H12 H 0.5246 0.1355 0.7069
C3 C 0.5159(4) 0.1420(2) 0.81345(19)
H13 H 0.5127 0.1819 0.8054
H14 H 0.4778 0.1296 0.8420
C4 C 0.4910(4) 0.0625(2) 0.78716(18)
H15 H 0.4706 0.0521 0.7631
H16 H 0.5524 0.0474 0.7889
C5 C 0.3909(5) 0.1490(2) 0.7729(2)
H17 H 0.3540 0.1392 0.8021
H18 H 0.3896 0.1888 0.7624
C6 C 0.2431(5) 0.1130(2) 0.7070(2)
C7 C 0.3078(4) 0.1075(2) 0.6673(2)
H19 H 0.3605 0.0845 0.6773
H20 H 0.2821 0.0901 0.6491
C8 C 0.1529(5) 0.1395(2) 0.6922(2)
H21 H 0.1119 0.1469 0.7176
H22 H 0.1599 0.1738 0.6686
C9 C 0.2356(4) 0.0550(2) 0.73850(18)
H23 H 0.2273 0.0301 0.7214
H24 H 0.2899 0.0419 0.7520
C10 C 0.2693(4) 0.1494(2) 0.7319(2)
H25 H 0.2680 0.1873 0.7135
H26 H 0.2292 0.1478 0.7599
C11 C 0.5845(4) 0.2271(2) 0.67969(16)
C12 C 0.6416(4) 0.20343(14) 0.64913(18)
C13 C 0.6815(3) 0.2368(2) 0.60884(15)
C14 C 0.6643(4) 0.29374(19) 0.59909(17)
C15 C 0.6072(5) 0.31741(15) 0.6297(2)
C16 C 0.5673(5) 0.2841(3) 0.6700(2)
C17 C 0.7209(6) 0.3259(3) 0.5553(3)
C18 C 0.6452(6) 0.1292(3) 0.8512(2)
C19 C 0.6001(4) 0.1594(2) 0.8819(2)
H27 H 0.5415 0.1744 0.8804
C20 C 0.6484(5) 0.1653(2) 0.9141(2)
H28 H 0.6212 0.1852 0.9344
C21 C 0.7322(5) 0.1433(3) 0.9170(2)
C22 C 0.7754(5) 0.1137(3) 0.8861(3)
H29 H 0.8339 0.0988 0.8881
C23 C 0.7332(6) 0.1064(3) 0.8535(2)
H30 H 0.7621 0.0869 0.8333
C24 C 0.7833(5) 0.1524(2) 0.9530(2)
C25 C 0.4359(4) -0.0147(2) 0.8432(2)
C26 C 0.3924(5) -0.0366(3) 0.8868(2)
H31 H 0.3680 -0.0122 0.9040
C27 C 0.3836(5) -0.0911(3) 0.9057(2)
H32 H 0.3544 -0.1039 0.9350
C28 C 0.4195(5) -0.1270(3) 0.8799(2)
C29 C 0.4630(5) -0.1074(3) 0.8365(2)
H33 H 0.4863 -0.1319 0.8193
C30 C 0.4724(5) -0.0501(2) 0.8178(2)
H34 H 0.5029 -0.0370 0.7889
C31 C 0.4198(4) -0.1888(2) 0.89710(19)
C32 C 0.4040(5) 0.1614(3) 0.6102(2)
C33 C 0.4473(6) 0.1193(3) 0.5951(2)
H35 H 0.4238 0.0854 0.6060
C34 C 0.5233(5) 0.1226(3) 0.5647(2)
H36 H 0.5509 0.0915 0.5563
C35 C 0.5587(5) 0.1724(3) 0.5468(2)
C36 C 0.5152(5) 0.2164(3) 0.5608(2)
H37 H 0.5389 0.2502 0.5492
C37 C 0.4394(5) 0.2134(2) 0.5909(2)
H38 H 0.4109 0.2447 0.5987
C38 C 0.6422(5) 0.1765(2) 0.5155(2)
C39 C 0.0599(4) 0.1160(3) 0.64483(18)
C40 C 0.0472(4) 0.0762(2) 0.6251(2)
H39 H 0.0758 0.0408 0.6336
C41 C -0.0084(4) 0.0897(2) 0.59278(19)
H40 H -0.0143 0.0638 0.5778
C42 C -0.0570(5) 0.1416(2) 0.58151(18)
C43 C -0.0458(4) 0.1786(2) 0.60405(19)
H41 H -0.0795 0.2126 0.5983
C44 C 0.0146(5) 0.1673(2) 0.63539(19)
H42 H 0.0235 0.1937 0.6492
C45 C -0.1103(4) 0.15598(19) 0.54385(18)
C46 C 0.1577(5) 0.0094(3) 0.8079(2)
C47 C 0.2133(5) -0.0379(3) 0.8098(2)
H43 H 0.2561 -0.0410 0.7854
C48 C 0.2045(5) -0.0809(3) 0.8487(3)
H44 H 0.2454 -0.1118 0.8510
C49 C 0.1389(6) -0.0802(3) 0.8840(2)
C50 C 0.0803(5) -0.0351(3) 0.8801(2)
H45 H 0.0333 -0.0340 0.9032
C51 C 0.0891(6) 0.0104(3) 0.8415(3)
H46 H 0.0478 0.0411 0.8391
C52 C 0.1334(5) -0.1271(3) 0.9279(2)
C53 C 0.3418(5) 0.4335(3) 0.2532(2)
C54 C 0.3390(5) 0.4932(2) 0.2255(2)
H47 H 0.2806 0.5060 0.2163
H48 H 0.3525 0.5164 0.2429
C55 C 0.4325(5) 0.4082(2) 0.2650(2)
H49 H 0.4286 0.3721 0.2864
H50 H 0.4724 0.4045 0.2380
C56 C 0.2770(5) 0.4343(2) 0.2938(2)
H51 H 0.2988 0.4539 0.3117
H52 H 0.2212 0.4536 0.2847
C57 C 0.3113(5) 0.3984(3) 0.2271(2)
H53 H 0.3480 0.4026 0.1978
H54 H 0.3169 0.3598 0.2439
C58 C 0.0952(5) 0.4125(2) 0.1885(2)
C59 C 0.0780(5) 0.4744(2) 0.17934(18)
H55 H 0.0148 0.4855 0.1798
H56 H 0.0987 0.4865 0.2024
C60 C 0.0622(4) 0.3936(2) 0.1518(2)
H57 H 0.0949 0.4094 0.1223
H58 H 0.0713 0.3537 0.1582
C61 C 0.0394(4) 0.38874(19) 0.23460(19)
H59 H 0.0550 0.4030 0.2577
H60 H -0.0235 0.3985 0.2326
C62 C 0.1893(5) 0.3946(2) 0.18854(19)
H61 H 0.2216 0.4084 0.1585
H62 H 0.1984 0.3547 0.1971
C63 C 0.3964(5) 0.5393(3) 0.1491(3)
C64 C 0.3416(5) 0.5859(3) 0.1489(2)
H63 H 0.3075 0.5900 0.1757
C65 C 0.3357(5) 0.6277(3) 0.1090(2)
H64 H 0.2959 0.6587 0.1091
C66 C 0.3869(5) 0.6238(3) 0.0702(2)
C67 C 0.4482(6) 0.5755(3) 0.0701(3)
H65 H 0.4861 0.5724 0.0440
C68 C 0.4489(6) 0.5348(3) 0.1093(3)
H66 H 0.4859 0.5025 0.1095
C69 C 0.3740(5) 0.6688(3) 0.0263(2)
C70 C 0.5251(5) 0.4240(2) 0.3137(2)
C71 C 0.5391(6) 0.4581(2) 0.3385(3)
H67 H 0.5086 0.4930 0.3344
C72 C 0.5996(6) 0.4401(2) 0.3702(3)
H68 H 0.6112 0.4640 0.3858
C73 C 0.6423(5) 0.3872(2) 0.3786(2)
C74 C 0.6333(4) 0.3548(2) 0.3515(2)
H69 H 0.6668 0.3209 0.3550
C75 C 0.5739(5) 0.3715(2) 0.3181(2)
H70 H 0.5677 0.3491 0.3002
C76 C 0.1858(5) 0.3729(3) 0.3509(2)
C77 C 0.1370(6) 0.4129(3) 0.3696(3)
H71 H 0.1567 0.4480 0.3610
C78 C 0.0608(6) 0.4034(3) 0.4004(3)
H72 H 0.0326 0.4306 0.4138
C79 C 0.0269(5) 0.3527(3) 0.4109(2)
C80 C 0.0765(6) 0.3124(3) 0.3927(2)
H73 H 0.0573 0.2773 0.4014
C81 C 0.1513(5) 0.3219(2) 0.3630(2)
H74 H 0.1803 0.2941 0.3505
C82 C -0.0550(5) 0.3438(2) 0.4411(2)
C83 C 0.1135(5) 0.5555(3) 0.1214(2)
C84 C 0.1568(5) 0.5778(3) 0.0782(2)
H75 H 0.1920 0.5549 0.0623
C85 C 0.1473(5) 0.6345(2) 0.0589(2)
H76 H 0.1751 0.6493 0.0296
C86 C 0.0971(5) 0.6688(2) 0.0828(2)
C87 C 0.0599(5) 0.6449(2) 0.1273(2)
H77 H 0.0299 0.6678 0.1446
C88 C 0.0660(5) 0.5900(3) 0.1460(2)
H78 H 0.0383 0.5753 0.1753
C89 C 0.0848(4) 0.7293(2) 0.06178(19)
C90 C -0.0793(6) 0.3872(3) 0.1324(3)
C91 C -0.0469(5) 0.3561(3) 0.1035(2)
H79 H 0.0139 0.3490 0.0951
C92 C -0.1119(7) 0.3347(3) 0.0867(2)
H80 H -0.0917 0.3143 0.0659
C93 C -0.2023(6) 0.3424(3) 0.0994(3)
C94 C -0.2335(6) 0.3739(4) 0.1270(3)
H81 H -0.2942 0.3808 0.1355
C95 C -0.1700(8) 0.3967(4) 0.1432(3)
H82 H -0.1910 0.4194 0.1621
C96 C -0.2605(5) 0.3148(2) 0.0806(2)
C97 C 0.0166(5) 0.2985(2) 0.2858(2)
C98 C 0.0530(5) 0.2442(2) 0.2986(2)
H83 H 0.1016 0.2310 0.2810
C99 C 0.0145(5) 0.2112(2) 0.3381(2)
H84 H 0.0400 0.1752 0.3479
C100 C -0.0616(5) 0.2282(2) 0.3651(2)
C101 C -0.0981(4) 0.2823(2) 0.35023(19)
H85 H -0.1489 0.2955 0.3664
C102 C -0.0567(5) 0.3160(2) 0.3107(2)
H86 H -0.0806 0.3524 0.3008
C103 C -0.1023(4) 0.19025(19) 0.40810(18)
C104 C 0.8196(4) -0.01081(19) 0.47977(18)
H87 H 0.7850 -0.0041 0.4566
C105 C 0.8981(6) -0.0549(3) 0.5317(3)
H88 H 0.9316 -0.0817 0.5511
C106 C 0.8874(7) -0.0003(3) 0.5278(3)
H89 H 0.9088 0.0162 0.5465
C107 C 0.8384(4) -0.1137(2) 0.49549(18)
C108 C 0.7728(5) -0.1188(2) 0.4729(2)
H90 H 0.7341 -0.0883 0.4616
C109 C 0.7639(5) -0.1684(2) 0.4669(2)
H91 H 0.7184 -0.1706 0.4513
C110 C 0.8162(5) -0.2142(2) 0.4818(2)
C111 C 0.8871(5) -0.2097(2) 0.5033(2)
H92 H 0.9276 -0.2400 0.5124
C112 C 0.8967(5) -0.1591(2) 0.5110(2)
H93 H 0.9421 -0.1562 0.5263
C113 C 0.8068(5) -0.2686(2) 0.4749(2)
C114 C 0.8206(6) -0.3156(2) 0.5048(2)
H94 H 0.8372 -0.3156 0.5322
C115 C 0.8113(6) -0.3674(2) 0.4973(2)
H95 H 0.8286 -0.4006 0.5174
C116 C 0.7782(5) -0.3663(2) 0.4617(2)
C117 C 0.7656(5) -0.3183(3) 0.4282(2)
H96 H 0.7498 -0.3187 0.4007
C118 C 0.7766(6) -0.2708(3) 0.4362(3)
H97 H 0.7633 -0.2379 0.4147
C119 C -0.1474(5) 0.8968(2) 0.0320(2)
H98 H -0.1735 0.8675 0.0287
C120 C -0.1259(7) 0.9754(3) 0.0365(4)
H99 H -0.1348 1.0121 0.0371
C121 C -0.0490(7) 0.9431(3) 0.0406(4)
H100 H 0.0041 0.9536 0.0446
C122 C -0.2781(5) 0.9612(3) 0.0230(3)
C123 C -0.3444(6) 0.9265(3) 0.0431(3)
H101 H -0.3305 0.8928 0.0634
C124 C -0.4301(5) 0.9409(3) 0.0339(3)
H102 H -0.4723 0.9159 0.0471
C125 C -0.4556(4) 0.9913(3) 0.0058(2)
C126 C -0.3891(6) 1.0277(3) -0.0102(2)
H103 H -0.4047 1.0632 -0.0275
C127 C -0.3027(6) 1.0142(3) -0.0021(3)
H104 H -0.2614 1.0402 -0.0131
C128 C 0.6980(5) 0.3669(2) 0.4157(2)
N5 N 0.7611(3) -0.50910(11) 0.46463(14)
C129 C 0.7901(3) -0.46997(16) 0.48241(12)
N6 N 0.7685(3) -0.41656(12) 0.45411(14)
C130 C 0.7262(3) -0.42268(14) 0.41884(12)
C131 C 0.7216(3) -0.47987(16) 0.42534(13)
N3A N -0.9383(3) 1.10686(17) -0.03802(18)
N4A N -0.8096(4) 1.05531(18) -0.03110(19)
C119A C -0.8526(5) 1.1032(2) -0.0320(2)
H98A H -0.8265 1.1325 -0.0287
C120A C -0.8741(7) 1.0246(3) -0.0365(4)
H99A H -0.8652 0.9879 -0.0371
C121A C -0.9510(7) 1.0569(3) -0.0406(4)
H100A H -1.0041 1.0464 -0.0446
C122A C -0.7219(5) 1.0388(3) -0.0230(3)
C123A C -0.6556(6) 1.0735(3) -0.0431(3)
H101A H -0.6695 1.1072 -0.0634
C124A C -0.5699(5) 1.0591(3) -0.0339(3)
H102A H -0.5277 1.0841 -0.0471
C125A C -0.5444(4) 1.0087(3) -0.0058(2)
C126A C -0.6109(6) 0.9723(3) 0.0102(2)
H103A H -0.5953 0.9368 0.0275
C127A C -0.6973(6) 0.9858(3) 0.0021(3)
H104A H -0.7386 0.9598 0.0131
Mn1A Mn -1.79404(7) 1.73871(3) -0.47823(3)
Mn2A Mn -1.81238(7) 1.88243(3) -0.47341(3)
Mn3A Mn -1.78005(8) 1.59812(3) -0.48588(3)
Mn4A Mn -1.25430(7) 1.22933(3) 0.02018(3)
Mn5A Mn -1.04365(7) 1.16788(3) -0.02315(3)
Mn6A Mn -1.44743(7) 1.29591(4) 0.07470(3)
N1A N -1.8420(4) 1.97257(16) -0.49338(15)
N2A N -1.8512(4) 2.06269(15) -0.50236(15)
O1A O -1.7461(3) 1.89060(14) -0.41798(12)
H1A H -1.7240 1.8546 -0.4014
H2A H -1.6974 1.9128 -0.4308
O2A O -1.3580(3) 1.87143(15) -0.74123(13)
O3A O -1.8644(10) 1.5923(5) -0.5402(3)
H3A H -1.8981 1.6268 -0.5517
H4A H -1.8272 1.5814 -0.5649
O4A O -1.5458(4) 1.79861(15) -0.72132(14)
O5A O -1.5729(4) 1.2833(2) 0.0505(3)
H5A H -1.5588 1.2580 0.0321
H6A H -1.6155 1.2687 0.0762
O6A O -1.6049(3) 1.88044(15) -0.81837(13)
O7A O -1.5384(4) 1.3499(2) 0.1089(2)
H7A H -1.5051 1.3658 0.1246
H8A H -1.5666 1.3786 0.0867
O8A O -1.4378(3) 1.95879(14) -0.82888(12)
O9A O -0.9433(4) 1.2026(2) 0.0029(2)
H9A H -0.9049 1.2235 -0.0219
H10A H -0.9743 1.2263 0.0208
O10A O -1.3313(3) 1.83926(14) -0.64098(12)
O11A O -1.1204(3) 1.90110(14) -0.67495(13)
O12A O -1.1612(3) 1.94412(14) -0.77356(12)
O13A O -1.6903(6) 1.6182(3) -0.5474(3)
O14A O -1.7520(3) 1.68736(13) -0.52615(12)
O15A O -1.8647(3) 1.86282(16) -0.94953(15)
O16A O -1.7377(3) 1.82731(14) -0.98137(12)
O17A O -1.3825(3) 2.20896(15) -0.93735(12)
O18A O -1.4562(3) 2.21873(15) -0.87214(14)
O19A O -1.6724(3) 1.77654(14) -0.49835(13)
O20A O -1.6867(3) 1.86805(14) -0.50722(13)
O21A O -0.8528(3) 1.79491(13) -0.53286(12)
O22A O -0.8820(3) 1.88021(13) -0.52554(12)
O23A O -1.1924(3) 2.16669(15) -0.92863(12)
O24A O -1.0738(3) 2.1205(2) -0.95874(14)
O25A O -1.2210(3) 1.58390(15) -0.22104(13)
O26A O -1.4050(3) 1.50544(15) -0.18675(14)
O27A O -1.4636(3) 1.55447(14) -0.28472(14)
O28A O -1.2623(3) 1.62098(14) -0.32091(13)
O29A O -1.1245(3) 1.50154(13) -0.13601(12)
O30A O -0.9702(3) 1.58861(16) -0.15192(15)
O31A O -1.0599(3) 1.67118(14) -0.24554(12)
O32A O -1.4261(4) 1.34333(17) 0.00917(14)
O33A O -1.3252(3) 1.29047(14) -0.02772(13)
O34A O -1.7085(3) 1.59924(18) -0.43573(15)
O35A O -1.7297(3) 1.68124(13) -0.42476(12)
O36A O -0.9003(4) 1.61462(16) -0.45387(18)
O37A O -0.9175(3) 1.70333(13) -0.45300(12)
O38A O -1.1255(3) 1.24951(13) -0.02270(11)
O39A O -1.0322(3) 1.24229(15) -0.08250(13)
O40A O -0.7711(3) 1.71185(15) -0.05324(13)
O41A O -0.6572(3) 1.67931(19) -0.09839(14)
O42A O -0.9311(3) 1.86055(13) -0.41917(12)
O43A O -0.8316(3) 1.79344(13) -0.43173(11)
C1A C -1.4844(5) 1.8762(3) -0.7772(2)
C2A C -1.5462(4) 1.8550(2) -0.7310(2)
H11A H -1.6063 1.8723 -0.7333
H12A H -1.5246 1.8645 -0.7069
C3A C -1.5159(4) 1.8580(2) -0.81345(19)
H13A H -1.5127 1.8181 -0.8054
H14A H -1.4778 1.8704 -0.8420
C4A C -1.4910(4) 1.9375(2) -0.78716(18)
H15A H -1.4706 1.9479 -0.7631
H16A H -1.5524 1.9526 -0.7889
C5A C -1.3909(5) 1.8510(2) -0.7729(2)
H17A H -1.3540 1.8608 -0.8021
H18A H -1.3896 1.8112 -0.7624
C6A C -1.2431(5) 1.8870(2) -0.7070(2)
C7A C -1.3078(4) 1.8925(2) -0.6673(2)
H19A H -1.3605 1.9155 -0.6773
H20A H -1.2821 1.9099 -0.6491
C8A C -1.1529(5) 1.8605(2) -0.6922(2)
H21A H -1.1119 1.8531 -0.7176
H22A H -1.1599 1.8262 -0.6686
C9A C -1.2356(4) 1.9450(2) -0.73850(18)
H23A H -1.2273 1.9699 -0.7214
H24A H -1.2899 1.9581 -0.7520
C10A C -1.2693(4) 1.8506(2) -0.7319(2)
H25A H -1.2680 1.8127 -0.7135
H26A H -1.2292 1.8522 -0.7599
C11A C -1.5845(4) 1.7729(2) -0.67969(16)
C12A C -1.6416(4) 1.79657(14) -0.64913(18)
C13A C -1.6815(3) 1.7632(2) -0.60884(15)
C14A C -1.6643(4) 1.70626(19) -0.59909(17)
C15A C -1.6072(5) 1.68259(15) -0.6297(2)
C16A C -1.5673(5) 1.7159(3) -0.6700(2)
C17A C -1.7209(6) 1.6741(3) -0.5553(3)
C18A C -1.6452(6) 1.8708(3) -0.8512(2)
C19A C -1.6001(4) 1.8406(2) -0.8819(2)
H27A H -1.5415 1.8256 -0.8804
C20A C -1.6484(5) 1.8347(2) -0.9141(2)
H28A H -1.6212 1.8148 -0.9344
C21A C -1.7322(5) 1.8567(3) -0.9170(2)
C22A C -1.7754(5) 1.8863(3) -0.8861(3)
H29A H -1.8339 1.9012 -0.8881
C23A C -1.7332(6) 1.8936(3) -0.8535(2)
H30A H -1.7621 1.9131 -0.8333
C24A C -1.7833(5) 1.8476(2) -0.9530(2)
C25A C -1.4359(4) 2.0147(2) -0.8432(2)
C26A C -1.3924(5) 2.0366(3) -0.8868(2)
H31A H -1.3680 2.0122 -0.9040
C27A C -1.3836(5) 2.0911(3) -0.9057(2)
H32A H -1.3544 2.1039 -0.9350
C28A C -1.4195(5) 2.1270(3) -0.8799(2)
C29A C -1.4630(5) 2.1074(3) -0.8365(2)
H33A H -1.4863 2.1319 -0.8193
C30A C -1.4724(5) 2.0501(2) -0.8178(2)
H34A H -1.5029 2.0370 -0.7889
C31A C -1.4198(4) 2.1888(2) -0.89710(19)
C32A C -1.4040(5) 1.8386(3) -0.6102(2)
C33A C -1.4473(6) 1.8807(3) -0.5951(2)
H35A H -1.4238 1.9146 -0.6060
C34A C -1.5233(5) 1.8774(3) -0.5647(2)
H36A H -1.5509 1.9085 -0.5563
C35A C -1.5587(5) 1.8276(3) -0.5468(2)
C36A C -1.5152(5) 1.7836(3) -0.5608(2)
H37A H -1.5389 1.7498 -0.5492
C37A C -1.4394(5) 1.7866(2) -0.5909(2)
H38A H -1.4109 1.7553 -0.5987
C38A C -1.6422(5) 1.8235(2) -0.5155(2)
C39A C -1.0599(4) 1.8840(3) -0.64483(18)
C40A C -1.0472(4) 1.9238(2) -0.6251(2)
H39A H -1.0758 1.9592 -0.6336
C41A C -0.9916(4) 1.9103(2) -0.59278(19)
H40A H -0.9857 1.9362 -0.5778
C42A C -0.9430(5) 1.8584(2) -0.58151(18)
C43A C -0.9542(4) 1.8214(2) -0.60405(19)
H41A H -0.9205 1.7874 -0.5983
C44A C -1.0146(5) 1.8327(2) -0.63539(19)
H42A H -1.0235 1.8063 -0.6492
C45A C -0.8897(4) 1.84402(19) -0.54385(18)
C46A C -1.1577(5) 1.9906(3) -0.8079(2)
C47A C -1.2133(5) 2.0379(3) -0.8098(2)
H43A H -1.2561 2.0410 -0.7854
C48A C -1.2045(5) 2.0809(3) -0.8487(3)
H44A H -1.2454 2.1118 -0.8510
C49A C -1.1389(6) 2.0802(3) -0.8840(2)
C50A C -1.0803(5) 2.0351(3) -0.8801(2)
H45A H -1.0333 2.0340 -0.9032
C51A C -1.0891(6) 1.9896(3) -0.8415(3)
H46A H -1.0478 1.9589 -0.8391
C52A C -1.1334(5) 2.1271(3) -0.9279(2)
C53A C -1.3418(5) 1.5665(3) -0.2532(2)
C54A C -1.3390(5) 1.5068(2) -0.2255(2)
H47A H -1.2806 1.4940 -0.2163
H48A H -1.3525 1.4836 -0.2429
C55A C -1.4325(5) 1.5918(2) -0.2650(2)
H49A H -1.4286 1.6279 -0.2864
H50A H -1.4724 1.5955 -0.2380
C56A C -1.2770(5) 1.5657(2) -0.2938(2)
H51A H -1.2988 1.5461 -0.3117
H52A H -1.2212 1.5464 -0.2847
C57A C -1.3113(5) 1.6016(3) -0.2271(2)
H53A H -1.3480 1.5974 -0.1978
H54A H -1.3169 1.6402 -0.2439
C58A C -1.0952(5) 1.5875(2) -0.1885(2)
C59A C -1.0780(5) 1.5256(2) -0.17934(18)
H55A H -1.0148 1.5145 -0.1798
H56A H -1.0987 1.5135 -0.2024
C60A C -1.0622(4) 1.6064(2) -0.1518(2)
H57A H -1.0949 1.5906 -0.1223
H58A H -1.0713 1.6463 -0.1582
C61A C -1.0394(4) 1.61126(19) -0.23460(19)
H59A H -1.0550 1.5970 -0.2577
H60A H -0.9765 1.6015 -0.2326
C62A C -1.1893(5) 1.6054(2) -0.18854(19)
H61A H -1.2216 1.5916 -0.1585
H62A H -1.1984 1.6453 -0.1971
C63A C -1.3964(5) 1.4607(3) -0.1491(3)
C64A C -1.3416(5) 1.4141(3) -0.1489(2)
H63A H -1.3075 1.4100 -0.1757
C65A C -1.3357(5) 1.3723(3) -0.1090(2)
H64A H -1.2959 1.3413 -0.1091
C66A C -1.3869(5) 1.3762(3) -0.0702(2)
C67A C -1.4482(6) 1.4245(3) -0.0701(3)
H65A H -1.4861 1.4276 -0.0440
C68A C -1.4489(6) 1.4652(3) -0.1093(3)
H66A H -1.4859 1.4975 -0.1095
C69A C -1.3740(5) 1.3312(3) -0.0263(2)
C70A C -1.5251(5) 1.5760(2) -0.3137(2)
C71A C -1.5391(6) 1.5419(2) -0.3385(3)
H67A H -1.5086 1.5070 -0.3344
C72A C -1.5996(6) 1.5599(2) -0.3702(3)
H68A H -1.6112 1.5360 -0.3858
C73A C -1.6423(5) 1.6128(2) -0.3786(2)
C74A C -1.6333(4) 1.6452(2) -0.3515(2)
H69A H -1.6668 1.6791 -0.3550
C75A C -1.5739(5) 1.6285(2) -0.3181(2)
H70A H -1.5677 1.6509 -0.3002
C76A C -1.1858(5) 1.6271(3) -0.3509(2)
C77A C -1.1370(6) 1.5871(3) -0.3696(3)
H71A H -1.1567 1.5520 -0.3610
C78A C -1.0608(6) 1.5966(3) -0.4004(3)
H72A H -1.0326 1.5694 -0.4138
C79A C -1.0269(5) 1.6473(3) -0.4109(2)
C80A C -1.0765(6) 1.6876(3) -0.3927(2)
H73A H -1.0573 1.7227 -0.4014
C81A C -1.1513(5) 1.6781(2) -0.3630(2)
H74A H -1.1803 1.7059 -0.3505
C82A C -0.9450(5) 1.6562(2) -0.4411(2)
C83A C -1.1135(5) 1.4445(3) -0.1214(2)
C84A C -1.1568(5) 1.4222(3) -0.0782(2)
H75A H -1.1920 1.4451 -0.0623
C85A C -1.1473(5) 1.3655(2) -0.0589(2)
H76A H -1.1751 1.3507 -0.0296
C86A C -1.0971(5) 1.3312(2) -0.0828(2)
C87A C -1.0599(5) 1.3551(2) -0.1273(2)
H77A H -1.0299 1.3322 -0.1446
C88A C -1.0660(5) 1.4100(3) -0.1460(2)
H78A H -1.0383 1.4247 -0.1753
C89A C -1.0848(4) 1.2707(2) -0.06178(19)
C90A C -0.9207(6) 1.6128(3) -0.1324(3)
C91A C -0.9531(5) 1.6439(3) -0.1035(2)
H79A H -1.0139 1.6510 -0.0951
C92A C -0.8881(7) 1.6653(3) -0.0867(2)
H80A H -0.9083 1.6857 -0.0659
C93A C -0.7977(6) 1.6576(3) -0.0994(3)
C94A C -0.7665(6) 1.6261(4) -0.1270(3)
H81A H -0.7058 1.6192 -0.1355
C95A C -0.8300(8) 1.6033(4) -0.1432(3)
H82A H -0.8090 1.5806 -0.1621
C96A C -0.7395(5) 1.6852(2) -0.0806(2)
C97A C -1.0166(5) 1.7015(2) -0.2858(2)
C98A C -1.0530(5) 1.7558(2) -0.2986(2)
H83A H -1.1016 1.7690 -0.2810
C99A C -1.0145(5) 1.7888(2) -0.3381(2)
H84A H -1.0400 1.8248 -0.3479
C100A C -0.9384(5) 1.7718(2) -0.3651(2)
C101A C -0.9019(4) 1.7177(2) -0.35023(19)
H85A H -0.8511 1.7045 -0.3664
C102A C -0.9433(5) 1.6840(2) -0.3107(2)
H86A H -0.9194 1.6476 -0.3008
C103A C -0.8977(4) 1.80975(19) -0.40810(18)
C104A C -1.8196(4) 2.01081(19) -0.47977(18)
H87A H -1.7850 2.0041 -0.4566
C105A C -1.8981(6) 2.0549(3) -0.5317(3)
H88A H -1.9316 2.0817 -0.5511
C106A C -1.8874(7) 2.0003(3) -0.5278(3)
H89A H -1.9088 1.9838 -0.5465
C107A C -1.8384(4) 2.1137(2) -0.49549(18)
C108A C -1.7728(5) 2.1188(2) -0.4729(2)
H90A H -1.7341 2.0883 -0.4616
C109A C -1.7639(5) 2.1684(2) -0.4669(2)
H91A H -1.7184 2.1706 -0.4513
C110A C -1.8162(5) 2.2142(2) -0.4818(2)
C111A C -1.8871(5) 2.2097(2) -0.5033(2)
H92A H -1.9276 2.2400 -0.5124
C112A C -1.8967(5) 2.1591(2) -0.5110(2)
H93A H -1.9421 2.1562 -0.5263
C113A C -1.8068(5) 2.2686(2) -0.4749(2)
C114A C -1.8206(6) 2.3156(2) -0.5048(2)
H94A H -1.8372 2.3156 -0.5322
C115A C -1.8113(6) 2.3674(2) -0.4973(2)
H95A H -1.8286 2.4006 -0.5174
C116A C -1.7782(5) 2.3663(2) -0.4617(2)
C117A C -1.7656(5) 2.3183(3) -0.4282(2)
H96A H -1.7498 2.3187 -0.4007
C118A C -1.7766(6) 2.2708(3) -0.4362(3)
H97A H -1.7633 2.2379 -0.4147
C128A C -1.6980(5) 1.6331(2) -0.4157(2)
N5A N -1.7611(3) 2.50910(11) -0.46463(14)
C129A C -1.7901(3) 2.46997(16) -0.48241(12)
N6A N -1.7685(3) 2.41656(12) -0.45411(14)
C130A C -1.7262(3) 2.42268(14) -0.41884(12)
C131A C -1.7216(3) 2.47987(16) -0.42534(13)
Mn1_2 Mn -0.20596(7) 0.26129(3) 0.47823(3)
Mn1A_2 Mn -0.79404(7) 1.73871(3) -0.47823(3)
Mn2_2 Mn -0.18762(7) 0.11757(3) 0.47341(3)
Mn2A_2 Mn -0.81238(7) 1.88243(3) -0.47341(3)
Mn3_2 Mn -0.21995(8) 0.40188(3) 0.48588(3)
Mn3_3 Mn 0.78005(8) -0.59812(3) 0.48588(3)
Mn3A_2 Mn -1.78005(8) 2.59812(3) -0.48588(3)
Mn3A_3 Mn -0.78005(8) 1.59812(3) -0.48588(3)
Mn4_2 Mn -1.74570(7) 1.77067(3) -1.02018(3)
Mn4_3 Mn -0.74570(7) 1.77067(3) -0.02018(3)
Mn4_4 Mn 0.25430(7) -0.22933(3) 0.97982(3)
Mn4A_2 Mn -1.25430(7) 2.22933(3) -0.97982(3)
Mn4A_3 Mn -0.25430(7) 0.22933(3) 0.02018(3)
Mn4A_4 Mn 0.74570(7) 0.22933(3) 1.02018(3)
Mn5_2 Mn -1.95635(7) 1.83212(3) -0.97685(3)
Mn5_3 Mn 0.04365(7) -0.16788(3) 1.02315(3)
Mn5A_2 Mn -1.04365(7) 2.16788(3) -1.02315(3)
Mn5A_3 Mn 0.95635(7) 0.16788(3) 0.97685(3)
Mn6_2 Mn -0.55257(7) 1.70409(4) -0.07470(3)
Mn6_3 Mn 0.44743(7) -0.29591(4) 0.92530(3)
Mn6A_2 Mn -1.44743(7) 2.29591(4) -0.92530(3)
Mn6A_3 Mn -0.44743(7) 0.29591(4) 0.07470(3)
O15_2 O -1.1353(3) 1.13718(16) -0.05047(15)
O15A_2 O 0.1353(3) 0.86282(16) 0.05047(15)
O16_2 O -1.2623(3) 1.17269(14) -0.01863(12)
O16A_2 O 0.2623(3) 0.82731(14) 0.01863(12)
O17_2 O 0.3825(3) 0.79104(15) -0.06265(12)
O17A_2 O -1.3825(3) 1.20896(15) 0.06265(12)
O18_2 O 0.4562(3) 0.78127(15) -0.12786(14)
O18A_2 O -1.4562(3) 1.21873(15) 0.12786(14)
O21_2 O 0.8528(3) 0.20509(13) 0.53286(12)
O21A_2 O -1.8528(3) 1.79491(13) -0.53286(12)
O22_2 O 0.8820(3) 0.11979(13) 0.52554(12)
O22A_2 O -1.8820(3) 1.88021(13) -0.52554(12)
O23_2 O 0.1924(3) 0.83331(15) -0.07137(12)
O23A_2 O -1.1924(3) 1.16669(15) 0.07137(12)
O24_2 O 0.0738(3) 0.8795(2) -0.04126(14)
O24A_2 O -1.0738(3) 1.1205(2) 0.04126(14)
O36_2 O 0.9003(4) 0.38538(16) 0.45387(18)
O36A_2 O -1.9003(4) 1.61462(16) -0.45387(18)
O37_2 O 0.9175(3) 0.29667(13) 0.45300(12)
O37A_2 O -1.9175(3) 1.70333(13) -0.45300(12)
O40_2 O -1.2289(3) 1.28815(15) 0.05324(13)
O40A_2 O 0.2289(3) 0.71185(15) -0.05324(13)
O41_2 O -1.3428(3) 1.32069(19) 0.09839(14)
O41A_2 O 0.3428(3) 0.67931(19) -0.09839(14)
O42_2 O 0.9311(3) 0.13945(13) 0.41917(12)
O42A_2 O -1.9311(3) 1.86055(13) -0.41917(12)
O43_2 O 0.8316(3) 0.20656(13) 0.43173(11)
O43A_2 O -1.8316(3) 1.79344(13) -0.43173(11)
N5_2 N 0.7611(3) 0.49090(11) 0.46463(14)
N5A_2 N -1.7611(3) 1.50910(11) -0.46463(14)
loop_
_geom_bond_atom_site_label_1
_geom_bond_atom_site_label_2
_geom_bond_site_symmetry_1
_geom_bond_site_symmetry_2
Mn1 O14 1_555 1_555
Mn2 N1 1_555 1_555
Mn3 O3 1_555 1_555
Mn4 O33 1_555 1_555
Mn5 N3 1_555 1_555
Mn6 O5 1_555 1_555
N1 C104 1_555 1_555
N2 C104 1_555 1_555
N3 C119 1_555 1_555
N4 C119 1_555 1_555
O1 Mn2 1_555 1_555
H1 O1 1_555 1_555
H2 O1 1_555 1_555
O2 C5 1_555 1_555
O3 H3 1_555 1_555
H4 O3 1_555 1_555
O4 C2 1_555 1_555
O5 H5 1_555 1_555
H6 O5 1_555 1_555
O6 C3 1_555 1_555
O7 Mn6 1_555 1_555
H7 O7 1_555 1_555
H8 O7 1_555 1_555
O8 C4 1_555 1_555
O9 Mn5 1_555 1_555
H9 O9 1_555 1_555
H10 O9 1_555 1_555
O10 C7 1_555 1_555
O11 C8 1_555 1_555
O12 C9 1_555 1_555
O13 Mn3 1_555 1_555
O14 Mn3 1_555 1_555
O15 C24 1_555 1_555
O16 C24 1_555 1_555
O17 C31 1_555 1_555
O18 C31 1_555 1_555
O19 Mn1 1_555 1_555
O20 Mn2 1_555 1_555
O21 C45 1_555 1_555
O22 C45 1_555 1_555
O23 C52 1_555 1_555
O24 C52 1_555 1_555
O25 C57 1_555 1_555
O26 C54 1_555 1_555
O27 C55 1_555 1_555
O28 C56 1_555 1_555
O29 C59 1_555 1_555
O30 C60 1_555 1_555
O31 C61 1_555 1_555
O32 Mn6 1_555 1_555
O33 C69 1_555 1_555
O34 Mn3 1_555 1_555
O35 Mn1 1_555 1_555
O36 C82 1_555 1_555
O37 C82 1_555 1_555
O38 Mn4 1_555 1_555
O39 Mn5 1_555 1_555
O40 C96 1_555 1_555
O41 C96 1_555 1_555
O42 C103 1_555 1_555
O43 C103 1_555 1_555
C1 C2 1_555 1_555
C2 H11 1_555 1_555
H12 C2 1_555 1_555
C3 C1 1_555 1_555
H13 C3 1_555 1_555
H14 C3 1_555 1_555
C4 C1 1_555 1_555
H15 C4 1_555 1_555
H16 C4 1_555 1_555
C5 C1 1_555 1_555
H17 C5 1_555 1_555
H18 C5 1_555 1_555
C6 C7 1_555 1_555
C7 H19 1_555 1_555
H20 C7 1_555 1_555
C8 C6 1_555 1_555
H21 C8 1_555 1_555
H22 C8 1_555 1_555
C9 C6 1_555 1_555
H23 C9 1_555 1_555
H24 C9 1_555 1_555
C10 O2 1_555 1_555
H25 C10 1_555 1_555
H26 C10 1_555 1_555
C11 O4 1_555 1_555
C12 C11 1_555 1_555
C13 C12 1_555 1_555
C14 C13 1_555 1_555
C15 C14 1_555 1_555
C16 C11 1_555 1_555
C17 O13 1_555 1_555
C18 O6 1_555 1_555
C19 C18 1_555 1_555
H27 C19 1_555 1_555
C20 C19 1_555 1_555
H28 C20 1_555 1_555
C21 C20 1_555 1_555
C22 C21 1_555 1_555
H29 C22 1_555 1_555
C23 C18 1_555 1_555
H30 C23 1_555 1_555
C24 C21 1_555 1_555
C25 O8 1_555 1_555
C26 C25 1_555 1_555
H31 C26 1_555 1_555
C27 C26 1_555 1_555
H32 C27 1_555 1_555
C28 C27 1_555 1_555
C29 C28 1_555 1_555
H33 C29 1_555 1_555
C30 C25 1_555 1_555
H34 C30 1_555 1_555
C31 C28 1_555 1_555
C32 O10 1_555 1_555
C33 C32 1_555 1_555
H35 C33 1_555 1_555
C34 C33 1_555 1_555
H36 C34 1_555 1_555
C35 C34 1_555 1_555
C36 C35 1_555 1_555
H37 C36 1_555 1_555
C37 C32 1_555 1_555
H38 C37 1_555 1_555
C38 O19 1_555 1_555
C39 O11 1_555 1_555
C40 C39 1_555 1_555
H39 C40 1_555 1_555
C41 C40 1_555 1_555
H40 C41 1_555 1_555
C42 C41 1_555 1_555
C43 C42 1_555 1_555
H41 C43 1_555 1_555
C44 C39 1_555 1_555
H42 C44 1_555 1_555
C45 C42 1_555 1_555
C46 O12 1_555 1_555
C47 C46 1_555 1_555
H43 C47 1_555 1_555
C48 C47 1_555 1_555
H44 C48 1_555 1_555
C49 C48 1_555 1_555
C50 C49 1_555 1_555
H45 C50 1_555 1_555
C51 C46 1_555 1_555
H46 C51 1_555 1_555
C52 C49 1_555 1_555
C53 C54 1_555 1_555
C54 H47 1_555 1_555
H48 C54 1_555 1_555
C55 C53 1_555 1_555
H49 C55 1_555 1_555
H50 C55 1_555 1_555
C56 C53 1_555 1_555
H51 C56 1_555 1_555
H52 C56 1_555 1_555
C57 C53 1_555 1_555
H53 C57 1_555 1_555
H54 C57 1_555 1_555
C58 C59 1_555 1_555
C59 H55 1_555 1_555
H56 C59 1_555 1_555
C60 C58 1_555 1_555
H57 C60 1_555 1_555
H58 C60 1_555 1_555
C61 C58 1_555 1_555
H59 C61 1_555 1_555
H60 C61 1_555 1_555
C62 O25 1_555 1_555
H61 C62 1_555 1_555
H62 C62 1_555 1_555
C63 O26 1_555 1_555
C64 C63 1_555 1_555
H63 C64 1_555 1_555
C65 C64 1_555 1_555
H64 C65 1_555 1_555
C66 C65 1_555 1_555
C67 C66 1_555 1_555
H65 C67 1_555 1_555
C68 C63 1_555 1_555
H66 C68 1_555 1_555
C69 O32 1_555 1_555
C70 O27 1_555 1_555
C71 C70 1_555 1_555
H67 C71 1_555 1_555
C72 C71 1_555 1_555
H68 C72 1_555 1_555
C73 C72 1_555 1_555
C74 C73 1_555 1_555
H69 C74 1_555 1_555
C75 C70 1_555 1_555
H70 C75 1_555 1_555
C76 O28 1_555 1_555
C77 C76 1_555 1_555
H71 C77 1_555 1_555
C78 C77 1_555 1_555
H72 C78 1_555 1_555
C79 C78 1_555 1_555
C80 C79 1_555 1_555
H73 C80 1_555 1_555
C81 C76 1_555 1_555
H74 C81 1_555 1_555
C82 C79 1_555 1_555
C83 O29 1_555 1_555
C84 C83 1_555 1_555
H75 C84 1_555 1_555
C85 C84 1_555 1_555
H76 C85 1_555 1_555
C86 C85 1_555 1_555
C87 C86 1_555 1_555
H77 C87 1_555 1_555
C88 C83 1_555 1_555
H78 C88 1_555 1_555
C89 O38 1_555 1_555
C90 O30 1_555 1_555
C91 C90 1_555 1_555
H79 C91 1_555 1_555
C92 C91 1_555 1_555
H80 C92 1_555 1_555
C93 C92 1_555 1_555
C94 C93 1_555 1_555
H81 C94 1_555 1_555
C95 C90 1_555 1_555
H82 C95 1_555 1_555
C96 C93 1_555 1_555
C97 O31 1_555 1_555
C98 C97 1_555 1_555
H83 C98 1_555 1_555
C99 C98 1_555 1_555
H84 C99 1_555 1_555
C100 C99 1_555 1_555
C101 C100 1_555 1_555
H85 C101 1_555 1_555
C102 C97 1_555 1_555
H86 C102 1_555 1_555
C103 C100 1_555 1_555
C104 H87 1_555 1_555
C105 N2 1_555 1_555
H88 C105 1_555 1_555
C106 N1 1_555 1_555
H89 C106 1_555 1_555
C107 N2 1_555 1_555
C108 C107 1_555 1_555
H90 C108 1_555 1_555
C109 C108 1_555 1_555
H91 C109 1_555 1_555
C110 C109 1_555 1_555
C111 C110 1_555 1_555
H92 C111 1_555 1_555
C112 C107 1_555 1_555
H93 C112 1_555 1_555
C113 C110 1_555 1_555
C114 C113 1_555 1_555
H94 C114 1_555 1_555
C115 C114 1_555 1_555
H95 C115 1_555 1_555
C116 C115 1_555 1_555
C117 C116 1_555 1_555
H96 C117 1_555 1_555
C118 C113 1_555 1_555
H97 C118 1_555 1_555
C119 H98 1_555 1_555
C120 N4 1_555 1_555
H99 C120 1_555 1_555
C121 N3 1_555 1_555
H100 C121 1_555 1_555
C122 N4 1_555 1_555
C123 C122 1_555 1_555
H101 C123 1_555 1_555
C124 C123 1_555 1_555
H102 C124 1_555 1_555
C125 C124 1_555 1_555
C126 C125 1_555 1_555
H103 C126 1_555 1_555
C127 C122 1_555 1_555
H104 C127 1_555 1_555
C128 O34 1_555 1_555
N5 C129 1_555 1_555
C129 N6 1_555 1_555
N6 C116 1_555 1_555
C130 N6 1_555 1_555
C131 N5 1_555 1_555
N3A C119A 1_555 1_555
N4A C119A 1_555 1_555
C119A H98A 1_555 1_555
C120A N4A 1_555 1_555
H99A C120A 1_555 1_555
C121A N3A 1_555 1_555
H100A C121A 1_555 1_555
C122A N4A 1_555 1_555
C123A C122A 1_555 1_555
H101A C123A 1_555 1_555
C124A C123A 1_555 1_555
H102A C124A 1_555 1_555
C125A C125 1_555 1_555
C126A C125A 1_555 1_555
H103A C126A 1_555 1_555
C127A C122A 1_555 1_555
H104A C127A 1_555 1_555
Mn1A O14A 1_555 1_555
Mn2A N1A 1_555 1_555
Mn3A O3A 1_555 1_555
Mn4A O33A 1_555 1_555
Mn5A N3A 1_555 1_555
Mn6A O5A 1_555 1_555
N1A C104A 1_555 1_555
N2A C104A 1_555 1_555
O1A Mn2A 1_555 1_555
H1A O1A 1_555 1_555
H2A O1A 1_555 1_555
O2A C5A 1_555 1_555
O3A H3A 1_555 1_555
H4A O3A 1_555 1_555
O4A C2A 1_555 1_555
O5A H5A 1_555 1_555
H6A O5A 1_555 1_555
O6A C3A 1_555 1_555
O7A Mn6A 1_555 1_555
H7A O7A 1_555 1_555
H8A O7A 1_555 1_555
O8A C4A 1_555 1_555
O9A Mn5A 1_555 1_555
H9A O9A 1_555 1_555
H10A O9A 1_555 1_555
O10A C7A 1_555 1_555
O11A C8A 1_555 1_555
O12A C9A 1_555 1_555
O13A Mn3A 1_555 1_555
O14A Mn3A 1_555 1_555
O15A C24A 1_555 1_555
O16A C24A 1_555 1_555
O17A C31A 1_555 1_555
O18A C31A 1_555 1_555
O19A Mn1A 1_555 1_555
O20A Mn2A 1_555 1_555
O21A C45A 1_555 1_555
O22A C45A 1_555 1_555
O23A C52A 1_555 1_555
O24A C52A 1_555 1_555
O25A C57A 1_555 1_555
O26A C54A 1_555 1_555
O27A C55A 1_555 1_555
O28A C56A 1_555 1_555
O29A C59A 1_555 1_555
O30A C60A 1_555 1_555
O31A C61A 1_555 1_555
O32A Mn6A 1_555 1_555
O33A C69A 1_555 1_555
O34A Mn3A 1_555 1_555
O35A Mn1A 1_555 1_555
O36A C82A 1_555 1_555
O37A C82A 1_555 1_555
O38A Mn4A 1_555 1_555
O39A Mn5A 1_555 1_555
O40A C96A 1_555 1_555
O41A C96A 1_555 1_555
O42A C103A 1_555 1_555
O43A C103A 1_555 1_555
C1A C2A 1_555 1_555
C2A H11A 1_555 1_555
H12A C2A 1_555 1_555
C3A C1A 1_555 1_555
H13A C3A 1_555 1_555
H14A C3A 1_555 1_555
C4A C1A 1_555 1_555
H15A C4A 1_555 1_555
H16A C4A 1_555 1_555
C5A C1A 1_555 1_555
H17A C5A 1_555 1_555
H18A C5A 1_555 1_555
C6A C7A 1_555 1_555
C7A H19A 1_555 1_555
H20A C7A 1_555 1_555
C8A C6A 1_555 1_555
H21A C8A 1_555 1_555
H22A C8A 1_555 1_555
C9A C6A 1_555 1_555
H23A C9A 1_555 1_555
H24A C9A 1_555 1_555
C10A O2A 1_555 1_555
H25A C10A 1_555 1_555
H26A C10A 1_555 1_555
C11A O4A 1_555 1_555
C12A C11A 1_555 1_555
C13A C12A 1_555 1_555
C14A C13A 1_555 1_555
C15A C14A 1_555 1_555
C16A C11A 1_555 1_555
C17A O13A 1_555 1_555
C18A O6A 1_555 1_555
C19A C18A 1_555 1_555
H27A C19A 1_555 1_555
C20A C19A 1_555 1_555
H28A C20A 1_555 1_555
C21A C20A 1_555 1_555
C22A C21A 1_555 1_555
H29A C22A 1_555 1_555
C23A C18A 1_555 1_555
H30A C23A 1_555 1_555
C24A C21A 1_555 1_555
C25A O8A 1_555 1_555
C26A C25A 1_555 1_555
H31A C26A 1_555 1_555
C27A C26A 1_555 1_555
H32A C27A 1_555 1_555
C28A C27A 1_555 1_555
C29A C28A 1_555 1_555
H33A C29A 1_555 1_555
C30A C25A 1_555 1_555
H34A C30A 1_555 1_555
C31A C28A 1_555 1_555
C32A O10A 1_555 1_555
C33A C32A 1_555 1_555
H35A C33A 1_555 1_555
C34A C33A 1_555 1_555
H36A C34A 1_555 1_555
C35A C34A 1_555 1_555
C36A C35A 1_555 1_555
H37A C36A 1_555 1_555
C37A C32A 1_555 1_555
H38A C37A 1_555 1_555
C38A O19A 1_555 1_555
C39A O11A 1_555 1_555
C40A C39A 1_555 1_555
H39A C40A 1_555 1_555
C41A C40A 1_555 1_555
H40A C41A 1_555 1_555
C42A C41A 1_555 1_555
C43A C42A 1_555 1_555
H41A C43A 1_555 1_555
C44A C39A 1_555 1_555
H42A C44A 1_555 1_555
C45A C42A 1_555 1_555
C46A O12A 1_555 1_555
C47A C46A 1_555 1_555
H43A C47A 1_555 1_555
C48A C47A 1_555 1_555
H44A C48A 1_555 1_555
C49A C48A 1_555 1_555
C50A C49A 1_555 1_555
H45A C50A 1_555 1_555
C51A C46A 1_555 1_555
H46A C51A 1_555 1_555
C52A C49A 1_555 1_555
C53A C54A 1_555 1_555
C54A H47A 1_555 1_555
H48A C54A 1_555 1_555
C55A C53A 1_555 1_555
H49A C55A 1_555 1_555
H50A C55A 1_555 1_555
C56A C53A 1_555 1_555
H51A C56A 1_555 1_555
H52A C56A 1_555 1_555
C57A C53A 1_555 1_555
H53A C57A 1_555 1_555
H54A C57A 1_555 1_555
C58A C59A 1_555 1_555
C59A H55A 1_555 1_555
H56A C59A 1_555 1_555
C60A C58A 1_555 1_555
H57A C60A 1_555 1_555
H58A C60A 1_555 1_555
C61A C58A 1_555 1_555
H59A C61A 1_555 1_555
H60A C61A 1_555 1_555
C62A O25A 1_555 1_555
H61A C62A 1_555 1_555
H62A C62A 1_555 1_555
C63A O26A 1_555 1_555
C64A C63A 1_555 1_555
H63A C64A 1_555 1_555
C65A C64A 1_555 1_555
H64A C65A 1_555 1_555
C66A C65A 1_555 1_555
C67A C66A 1_555 1_555
H65A C67A 1_555 1_555
C68A C63A 1_555 1_555
H66A C68A 1_555 1_555
C69A O32A 1_555 1_555
C70A O27A 1_555 1_555
C71A C70A 1_555 1_555
H67A C71A 1_555 1_555
C72A C71A 1_555 1_555
H68A C72A 1_555 1_555
C73A C72A 1_555 1_555
C74A C73A 1_555 1_555
H69A C74A 1_555 1_555
C75A C70A 1_555 1_555
H70A C75A 1_555 1_555
C76A O28A 1_555 1_555
C77A C76A 1_555 1_555
H71A C77A 1_555 1_555
C78A C77A 1_555 1_555
H72A C78A 1_555 1_555
C79A C78A 1_555 1_555
C80A C79A 1_555 1_555
H73A C80A 1_555 1_555
C81A C76A 1_555 1_555
H74A C81A 1_555 1_555
C82A C79A 1_555 1_555
C83A O29A 1_555 1_555
C84A C83A 1_555 1_555
H75A C84A 1_555 1_555
C85A C84A 1_555 1_555
H76A C85A 1_555 1_555
C86A C85A 1_555 1_555
C87A C86A 1_555 1_555
H77A C87A 1_555 1_555
C88A C83A 1_555 1_555
H78A C88A 1_555 1_555
C89A O38A 1_555 1_555
C90A O30A 1_555 1_555
C91A C90A 1_555 1_555
H79A C91A 1_555 1_555
C92A C91A 1_555 1_555
H80A C92A 1_555 1_555
C93A C92A 1_555 1_555
C94A C93A 1_555 1_555
H81A C94A 1_555 1_555
C95A C90A 1_555 1_555
H82A C95A 1_555 1_555
C96A C93A 1_555 1_555
C97A O31A 1_555 1_555
C98A C97A 1_555 1_555
H83A C98A 1_555 1_555
C99A C98A 1_555 1_555
H84A C99A 1_555 1_555
C100A C99A 1_555 1_555
C101A C100A 1_555 1_555
H85A C101A 1_555 1_555
C102A C97A 1_555 1_555
H86A C102A 1_555 1_555
C103A C100A 1_555 1_555
C104A H87A 1_555 1_555
C105A N2A 1_555 1_555
H88A C105A 1_555 1_555
C106A N1A 1_555 1_555
H89A C106A 1_555 1_555
C107A N2A 1_555 1_555
C108A C107A 1_555 1_555
H90A C108A 1_555 1_555
C109A C108A 1_555 1_555
H91A C109A 1_555 1_555
C110A C109A 1_555 1_555
C111A C110A 1_555 1_555
H92A C111A 1_555 1_555
C112A C107A 1_555 1_555
H93A C112A 1_555 1_555
C113A C110A 1_555 1_555
C114A C113A 1_555 1_555
H94A C114A 1_555 1_555
C115A C114A 1_555 1_555
H95A C115A 1_555 1_555
C116A C115A 1_555 1_555
C117A C116A 1_555 1_555
H96A C117A 1_555 1_555
C118A C113A 1_555 1_555
H97A C118A 1_555 1_555
C128A O34A 1_555 1_555
N5A C129A 1_555 1_555
C129A N6A 1_555 1_555
N6A C116A 1_555 1_555
C130A N6A 1_555 1_555
C131A N5A 1_555 1_555
Mn1_2 O21 1_555 1_555
Mn1A_2 O21A 1_555 1_555
Mn2_2 O22 1_555 1_555
Mn2A_2 O22A 1_555 1_555
Mn3_2 O36 1_555 1_555
Mn3_3 N5 1_555 1_555
Mn3A_2 N5A 1_555 1_555
Mn3A_3 O36A 1_555 1_555
Mn4_2 O16A 1_555 1_555
Mn4_3 O40A 1_555 1_555
Mn4_4 O17 1_555 1_555
Mn4A_2 O17A 1_555 1_555
Mn4A_3 O40 1_555 1_555
Mn4A_4 O16 1_555 1_555
Mn5_2 O15A 1_555 1_555
Mn5_3 O24 1_555 1_555
Mn5A_2 O24A 1_555 1_555
Mn5A_3 O15 1_555 1_555
Mn6_2 O41A 1_555 1_555
Mn6_3 O17 1_555 1_555
Mn6A_2 O17A 1_555 1_555
Mn6A_3 O41 1_555 1_555
O15_2 Mn5A 1_555 1_555
O15A_2 Mn5 1_555 1_555
O16_2 Mn4A 1_555 1_555
O16A_2 Mn4 1_555 1_555
O17_2 Mn4 1_555 1_555
O17A_2 Mn4A 1_555 1_555
O18_2 Mn6 1_555 1_555
O18A_2 Mn6A 1_555 1_555
O21_2 Mn1 1_555 1_555
O21A_2 Mn1A 1_555 1_555
O22_2 Mn2 1_555 1_555
O22A_2 Mn2A 1_555 1_555
O23_2 Mn4 1_555 1_555
O23A_2 Mn4A 1_555 1_555
O24_2 Mn5 1_555 1_555
O24A_2 Mn5A 1_555 1_555
O36_2 Mn3 1_555 1_555
O36A_2 Mn3A 1_555 1_555
O37_2 Mn1 1_555 1_555
O37A_2 Mn1A 1_555 1_555
O40_2 Mn4A 1_555 1_555
O40A_2 Mn4 1_555 1_555
O41_2 Mn6A 1_555 1_555
O41A_2 Mn6 1_555 1_555
O42_2 Mn2 1_555 1_555
O42A_2 Mn2A 1_555 1_555
O43_2 Mn1 1_555 1_555
O43A_2 Mn1A 1_555 1_555
N5_2 Mn3 1_555 1_555
N5A_2 Mn3A 1_555 1_555
Mn2 O43_2 1_555 1_555
Mn5 O38 1_555 1_555
Mn6 O17_2 1_555 1_555
O14 C17 1_555 1_555
O18 Mn6_3 1_555 1_555
O20 C38 1_555 1_555
O23 Mn4_4 1_555 1_555
O35 C128 1_555 1_555
O37 Mn1_2 1_555 1_555
O39 C89 1_555 1_555
O42 Mn2_2 1_555 1_555
O43 Mn1_2 1_555 1_555
O43 Mn2_2 1_555 1_555
C6 C10 1_555 1_555
C14 C17 1_555 1_555
C15 C16 1_555 1_555
C22 C23 1_555 1_555
C29 C30 1_555 1_555
C35 C38 1_555 1_555
C36 C37 1_555 1_555
C43 C44 1_555 1_555
C50 C51 1_555 1_555
C58 C62 1_555 1_555
C66 C69 1_555 1_555
C67 C68 1_555 1_555
C73 C128 1_555 1_555
C74 C75 1_555 1_555
C80 C81 1_555 1_555
C86 C89 1_555 1_555
C87 C88 1_555 1_555
C94 C95 1_555 1_555
C101 C102 1_555 1_555
C105 C106 1_555 1_555
C111 C112 1_555 1_555
C117 C118 1_555 1_555
C120 C121 1_555 1_555
C126 C127 1_555 1_555
C130 C131 1_555 1_555
C120A C121A 1_555 1_555
C124A C125A 1_555 1_555
C126A C127A 1_555 1_555
Mn2A O43A_2 1_555 1_555
Mn5A O38A 1_555 1_555
Mn6A O17A_2 1_555 1_555
O14A C17A 1_555 1_555
O18A Mn6A_2 1_555 1_555
O20A C38A 1_555 1_555
O23A Mn4A_2 1_555 1_555
O35A C128A 1_555 1_555
O37A Mn1A_2 1_555 1_555
O39A C89A 1_555 1_555
O42A Mn2A_2 1_555 1_555
O43A Mn1A_2 1_555 1_555
O43A Mn2A_2 1_555 1_555
C6A C10A 1_555 1_555
C14A C17A 1_555 1_555
C15A C16A 1_555 1_555
C22A C23A 1_555 1_555
C29A C30A 1_555 1_555
C35A C38A 1_555 1_555
C36A C37A 1_555 1_555
C43A C44A 1_555 1_555
C50A C51A 1_555 1_555
C58A C62A 1_555 1_555
C66A C69A 1_555 1_555
C67A C68A 1_555 1_555
C73A C128A 1_555 1_555
C74A C75A 1_555 1_555
C80A C81A 1_555 1_555
C86A C89A 1_555 1_555
C87A C88A 1_555 1_555
C94A C95A 1_555 1_555
C101A C102A 1_555 1_555
C105A C106A 1_555 1_555
C111A C112A 1_555 1_555
C117A C118A 1_555 1_555
C130A C131A 1_555 1_555

#END
