
#######################################################################
#
#                 Cambridge Crystallographic Data Centre
#                                CCDC 
#
#######################################################################
#
# If this CIF has been generated from an entry in the Cambridge 
# Structural Database, then it will include bibliographic, chemical, 
# crystal, experimental, refinement or atomic coordinate data resulting 
# from the CCDC's data processing and validation procedures.
#
#######################################################################

data_XUTQEI
_chemical_formula_moiety         '(C49 H44 N6 Ni3 O18)n'
_symmetry_cell_setting           trigonal
_symmetry_space_group_name_H-M   'P 3'
_symmetry_Int_Tables_number      143
_space_group_name_Hall           'P 3'
loop_
_symmetry_equiv_pos_site_id
_symmetry_equiv_pos_as_xyz
1 x,y,z
2 -y,x-y,z
3 -x+y,-x,z
_cell_length_a                   33.5211(10)
_cell_length_b                   33.5211(10)
_cell_length_c                   11.3015(5)
_cell_angle_alpha                90
_cell_angle_beta                 90
_cell_angle_gamma                120
_cell_volume                     10997.7
loop_
_atom_site_label
_atom_site_type_symbol
_atom_site_fract_x
_atom_site_fract_y
_atom_site_fract_z
Ni1 Ni 0.83454(3) 0.66984(3) 1.00668(9)
Ni2 Ni 0.99847(4) 0.49920(4) 0.90870(11)
Ni3 Ni 1.16566(3) 0.83496(3) 0.84811(10)
C1 C 0.96954(12) 0.68369(13) 0.9483(2)
C2 C 1.01495(13) 0.71519(10) 0.9193(2)
H1 H 1.0250 0.7472 0.9169
C3 C 1.04564(10) 0.69989(13) 0.8938(2)
C4 C 1.03092(12) 0.65309(14) 0.8972(2)
H2 H 1.0519 0.6426 0.8797
C5 C 0.98551(14) 0.62159(10) 0.9262(3)
C6 C 0.95482(10) 0.63689(11) 0.9517(2)
H3 H 0.9238 0.6154 0.9715
C7 C 0.9324(3) 0.6958(3) 0.9773(5)
O1 O 0.89592(17) 0.67223(17) 1.0033(4)
O2 O 0.9487(2) 0.7413(2) 0.9733(5)
C8 C 1.0923(2) 0.7366(2) 0.8662(5)
O3 O 1.10406(16) 0.77381(16) 0.8614(4)
O4 O 1.12501(18) 0.72247(18) 0.8370(4)
C9 C 0.9705(3) 0.5707(2) 0.9276(5)
O5 O 0.99668(17) 0.55922(17) 0.9091(4)
O6 O 0.9283(3) 0.5425(3) 0.9566(6)
C10 C 0.71346(13) 0.68310(10) 0.9479(2)
C11 C 0.68141(10) 0.63628(13) 0.9492(2)
H4 H 0.6909 0.6146 0.9670
C12 C 0.63540(14) 0.62115(12) 0.9244(3)
C13 C 0.62145(12) 0.65285(10) 0.8982(3)
H5 H 0.5900 0.6425 0.8812
C14 C 0.65351(10) 0.69968(14) 0.8969(2)
C15 C 0.69951(14) 0.71480(13) 0.9217(2)
H6 H 0.7214 0.7468 0.9208
C16 C 0.7638(2) 0.6975(2) 0.9751(5)
O7 O 0.7924(2) 0.7409(2) 0.9738(5)
O8 O 0.77563(19) 0.66962(19) 0.9998(4)
C17 C 0.5981(3) 0.5701(2) 0.9231(5)
O9 O 0.6139(3) 0.5407(3) 0.9502(6)
O10 O 0.56120(18) 0.55835(18) 0.9045(4)
C18 C 0.6417(2) 0.7333(2) 0.8716(5)
O11 O 0.5976(2) 0.7213(2) 0.8457(5)
O12 O 0.66647(15) 0.77337(15) 0.8678(4)
N1 N 0.83212(17) 0.67046(16) 0.8316(6)
C19 C 0.7944(3) 0.6438(2) 0.7569(6)
H7 H 0.7655 0.6235 0.7921
C20 C 0.7973(3) 0.6454(2) 0.6357(7)
H8 H 0.7702 0.6260 0.5920
C21 C 0.83786(18) 0.67392(17) 0.5718(5)
C22 C 0.8764(3) 0.7009(2) 0.6394(6)
H9 H 0.9055 0.7213 0.6052
C23 C 0.8698(3) 0.6963(2) 0.7579(7)
H10 H 0.8973 0.7152 0.8010
N2 N 0.83813(15) 0.67265(14) 0.1938(5)
C24 C 0.8082(2) 0.68256(19) 0.2566(7)
H11 H 0.7894 0.6911 0.2129
C25 C 0.8043(3) 0.6806(2) 0.3769(7)
H12 H 0.7833 0.6875 0.4155
C26 C 0.8313(3) 0.6687(2) 0.4406(7)
C27 C 0.8608(3) 0.6583(2) 0.3791(7)
H13 H 0.8793 0.6494 0.4230
C28 C 0.8646(2) 0.6602(2) 0.2597(6)
H14 H 0.8855 0.6530 0.2216
N3 N 0.99606(17) 0.49735(16) 0.7180(7)
C29 C 0.9717(3) 0.5167(3) 0.6639(8)
H15 H 0.9553 0.5292 0.7027
C30 C 0.9762(3) 0.5137(3) 0.5457(9)
H16 H 0.9603 0.5261 0.5037
C31 C 0.9968(2) 0.4982(2) 0.4693(7)
C32 C 1.0193(3) 0.4800(3) 0.5290(8)
H17 H 1.0350 0.4674 0.4870
C33 C 1.0190(3) 0.4800(3) 0.6501(9)
H18 H 1.0352 0.4675 0.6903
N4 N 0.99807(14) 0.49881(14) 0.0978(5)
C34 C 0.9757(2) 0.4566(3) 0.1564(6)
H19 H 0.9609 0.4282 0.1149
C35 C 0.9762(3) 0.4586(3) 0.2772(7)
H20 H 0.9615 0.4305 0.3203
C36 C 0.99696(19) 0.49880(18) 0.3385(6)
C37 C 1.0185(3) 0.5394(3) 0.2782(7)
H21 H 1.0327 0.5675 0.3214
C38 C 1.0203(3) 0.5409(3) 0.1578(7)
H22 H 1.0360 0.5693 0.1163
N5 N 1.16279(18) 0.8338(2) 0.6651(7)
C39 C 1.1355(3) 0.7947(3) 0.5961(7)
H23 H 1.1148 0.7669 0.6354
C40 C 1.1370(2) 0.7945(2) 0.4766(6)
H24 H 1.1178 0.7672 0.4330
C41 C 1.16721(19) 0.8351(2) 0.4193(6)
C42 C 1.1943(2) 0.8736(2) 0.4830(6)
H25 H 1.2151 0.9012 0.4431
C43 C 1.1921(2) 0.8733(3) 0.6023(6)
H26 H 1.2111 0.9010 0.6444
N6 N 1.17040(13) 0.83209(13) 0.0184(4)
C44 C 1.1305(3) 0.8202(2) 0.0928(7)
H27 H 1.1022 0.8108 0.0532
C45 C 1.1296(3) 0.8213(3) 0.2152(8)
H28 H 1.1010 0.8128 0.2525
C46 C 1.1684(2) 0.8344(2) 0.2878(7)
C47 C 1.2081(3) 0.8465(2) 0.2245(6)
H29 H 1.2367 0.8563 0.2630
C48 C 1.2044(2) 0.8439(2) 0.1050(6)
H30 H 1.2333 0.8526 0.0697
O13 O 1.20239(14) 0.79971(14) 0.8543(4)
O14 O 1.12997(16) 0.87236(16) 0.8784(5)
C49 C 1.1317(5) 0.9089(5) 0.8207(13)
H31 H 1.1096 0.9164 0.8568
H32 H 1.1237 0.9010 0.7372
H33 H 1.1628 0.9356 0.8266
O15 O 0.9300(3) 0.4676(3) 0.9246(7)
O16 O 1.0729(2) 0.5387(2) 0.9303(5)
O17 O 0.7949(2) 0.5972(2) 0.9907(6)
O18 O 0.86955(15) 0.73961(15) 1.0105(4)
N2_2 N 0.83813(15) 0.67265(14) 1.1938(5)
O10B O 0.99715(25) 0.43880(18) 0.9045(4)
N4_2 N 0.99807(14) 0.49881(14) 1.0978(5)
O12A O 1.22663(15) 0.89310(21) 0.8678(4)
N6_2 N 1.17040(13) 0.83209(13) 1.0184(4)
Ni2A Ni 0.50080(4) 0.49927(6) 0.90870(11)
Ni3B Ni 0.66930(4) 0.83434(3) 0.84811(10)
Ni1_2 Ni 0.83454(3) 0.66984(3) 0.00668(9)
Ni2_2 Ni 0.99847(4) 0.49920(4) -0.09130(11)
Ni3_2 Ni 1.16566(3) 0.83496(3) -0.15189(10)
loop_
_geom_bond_atom_site_label_1
_geom_bond_atom_site_label_2
_geom_bond_site_symmetry_1
_geom_bond_site_symmetry_2
Ni1 O1 1_555 1_555
Ni2 O5 1_555 1_555
Ni3 O3 1_555 1_555
C1 C2 1_555 1_555
C2 H1 1_555 1_555
C3 C2 1_555 1_555
C4 C3 1_555 1_555
H2 C4 1_555 1_555
C5 C4 1_555 1_555
C6 C1 1_555 1_555
H3 C6 1_555 1_555
C7 C1 1_555 1_555
O1 C7 1_555 1_555
O2 C7 1_555 1_555
C8 C3 1_555 1_555
O3 C8 1_555 1_555
O4 C8 1_555 1_555
C9 C5 1_555 1_555
O5 C9 1_555 1_555
O6 C9 1_555 1_555
C10 C11 1_555 1_555
C11 H4 1_555 1_555
C12 C11 1_555 1_555
C13 C12 1_555 1_555
H5 C13 1_555 1_555
C14 C13 1_555 1_555
C15 C10 1_555 1_555
H6 C15 1_555 1_555
C16 C10 1_555 1_555
O7 C16 1_555 1_555
O8 Ni1 1_555 1_555
C17 C12 1_555 1_555
O9 C17 1_555 1_555
O10 C17 1_555 1_555
C18 C14 1_555 1_555
O11 C18 1_555 1_555
O12 C18 1_555 1_555
N1 Ni1 1_555 1_555
C19 N1 1_555 1_555
H7 C19 1_555 1_555
C20 C19 1_555 1_555
H8 C20 1_555 1_555
C21 C20 1_555 1_555
C22 C21 1_555 1_555
H9 C22 1_555 1_555
C23 N1 1_555 1_555
H10 C23 1_555 1_555
N2 C24 1_555 1_555
C24 H11 1_555 1_555
C25 C24 1_555 1_555
H12 C25 1_555 1_555
C26 C21 1_555 1_555
C27 C26 1_555 1_555
H13 C27 1_555 1_555
C28 N2 1_555 1_555
H14 C28 1_555 1_555
N3 Ni2 1_555 1_555
C29 N3 1_555 1_555
H15 C29 1_555 1_555
C30 C29 1_555 1_555
H16 C30 1_555 1_555
C31 C30 1_555 1_555
C32 C31 1_555 1_555
H17 C32 1_555 1_555
C33 N3 1_555 1_555
H18 C33 1_555 1_555
N4 C34 1_555 1_555
C34 H19 1_555 1_555
C35 C34 1_555 1_555
H20 C35 1_555 1_555
C36 C31 1_555 1_555
C37 C36 1_555 1_555
H21 C37 1_555 1_555
C38 N4 1_555 1_555
H22 C38 1_555 1_555
N5 Ni3 1_555 1_555
C39 N5 1_555 1_555
H23 C39 1_555 1_555
C40 C39 1_555 1_555
H24 C40 1_555 1_555
C41 C40 1_555 1_555
C42 C41 1_555 1_555
H25 C42 1_555 1_555
C43 N5 1_555 1_555
H26 C43 1_555 1_555
N6 C44 1_555 1_555
C44 H27 1_555 1_555
C45 C44 1_555 1_555
H28 C45 1_555 1_555
C46 C41 1_555 1_555
C47 C46 1_555 1_555
H29 C47 1_555 1_555
C48 N6 1_555 1_555
H30 C48 1_555 1_555
O13 Ni3 1_555 1_555
O14 Ni3 1_555 1_555
C49 O14 1_555 1_555
H31 C49 1_555 1_555
H32 C49 1_555 1_555
H33 C49 1_555 1_555
O15 Ni2 1_555 1_555
O16 Ni2 1_555 1_555
O17 Ni1 1_555 1_555
O18 Ni1 1_555 1_555
N2_2 Ni1 1_555 1_555
O10B Ni2 1_555 1_555
N4_2 Ni2 1_555 1_555
O12A Ni3 1_555 1_555
N6_2 Ni3 1_555 1_555
Ni2A O10 1_555 1_555
Ni3B O12 1_555 1_555
Ni1_2 N2 1_555 1_555
Ni2_2 N4 1_555 1_555
Ni3_2 N6 1_555 1_555
C5 C6 1_555 1_555
C14 C15 1_555 1_555
C16 O8 1_555 1_555
C22 C23 1_555 1_555
C25 C26 1_555 1_555
C27 C28 1_555 1_555
C32 C33 1_555 1_555
C35 C36 1_555 1_555
C37 C38 1_555 1_555
C42 C43 1_555 1_555
C45 C46 1_555 1_555
C47 C48 1_555 1_555

#END
