
#######################################################################
#
#                 Cambridge Crystallographic Data Centre
#                                CCDC 
#
#######################################################################
#
# If this CIF has been generated from an entry in the Cambridge 
# Structural Database, then it will include bibliographic, chemical, 
# crystal, experimental, refinement or atomic coordinate data resulting 
# from the CCDC's data processing and validation procedures.
#
#######################################################################

data_VICYUD
_chemical_formula_moiety         '(C31 H23 N5 O11 Zn2)n'
_symmetry_cell_setting           monoclinic
_symmetry_space_group_name_H-M   'P 21/c'
_symmetry_Int_Tables_number      14
_space_group_name_Hall           '-P 2ybc'
loop_
_symmetry_equiv_pos_site_id
_symmetry_equiv_pos_as_xyz
1 x,y,z
2 -x,1/2+y,1/2-z
3 -x,-y,-z
4 x,1/2-y,1/2+z
_cell_length_a                   13.8359(19)
_cell_length_b                   12.9970(18)
_cell_length_c                   24.900(3)
_cell_angle_alpha                90
_cell_angle_beta                 118.689(6)
_cell_angle_gamma                90
_cell_volume                     3927.96
loop_
_atom_site_label
_atom_site_type_symbol
_atom_site_fract_x
_atom_site_fract_y
_atom_site_fract_z
_atom_site_U_iso_or_equiv
_atom_site_thermal_displace_type
Zn1 Zn 0.73448(13) 0.72333(12) 0.16127(8) 0.0708 Uani
Zn2 Zn 0.22303(13) 0.39360(12) 0.22825(8) 0.0666 Uani
C1 C 0.5922(14) 0.7845(12) 0.2251(9) 0.0774 Uani
C2 C 0.4832(11) 0.7533(10) 0.1876(7) 0.0629 Uani
C3 C 0.4366(13) 0.6799(11) 0.2100(7) 0.0742 Uani
H1 H 0.4788 0.6592 0.2505 0.0890 Uiso
C4 C 0.335(2) 0.6365(14) 0.1776(12) 0.1014 Uani
C5 C 0.2690(18) 0.6676(14) 0.1189(12) 0.1132 Uani
H2 H 0.2010 0.6363 0.0953 0.1360 Uiso
C6 C 0.3050(14) 0.7494(16) 0.0937(7) 0.0950 Uani
C7 C 0.4199(14) 0.7896(11) 0.1302(8) 0.0784 Uani
H3 H 0.4473 0.8386 0.1137 0.0940 Uiso
C8 C 0.1765(16) 0.8726(13) -0.0571(9) 0.0944 Uani
C9 C 0.2023(12) 0.9578(12) -0.0805(7) 0.0779 Uani
H4 H 0.2600 1.0006 -0.0548 0.0930 Uiso
C10 C 0.1423(12) 0.9795(10) -0.1421(7) 0.0710 Uani
C11 C 0.0499(11) 0.9155(11) -0.1802(7) 0.0719 Uani
H5 H 0.0106 0.9282 -0.2220 0.0860 Uiso
C12 C 0.0183(11) 0.8349(10) -0.1553(7) 0.0655 Uani
C13 C 0.0809(12) 0.8113(11) -0.0950(7) 0.0774 Uani
H6 H 0.0621 0.7558 -0.0783 0.0930 Uiso
C14 C 0.299(2) 0.5523(18) 0.2002(13) 0.1269 Uani
C15 C -0.0802(12) 0.7720(11) -0.1977(8) 0.0718 Uani
C16 C 0.1765(13) 1.0617(12) -0.1690(8) 0.0789 Uani
C17 C 0.5576(16) 0.7679(15) 0.0272(9) 0.1041 Uani
H7 H 0.6018 0.8231 0.0288 0.1250 Uiso
C18 C 0.4615(18) 0.7517(17) -0.0265(10) 0.1289 Uani
H8 H 0.4417 0.8007 -0.0572 0.1540 Uiso
C19 C 0.4035(19) 0.6824(19) -0.0365(10) 0.1278 Uani
H9 H 0.3434 0.6727 -0.0752 0.1530 Uiso
C20 C 0.4265(15) 0.6115(15) 0.0123(9) 0.1020 Uani
C21 C 0.3626(17) 0.5150(17) 0.0180(11) 0.1204 Uani
H10 H 0.2974 0.4960 -0.0163 0.1450 Uiso
C22 C 0.396(2) 0.4594(19) 0.0683(14) 0.1497 Uani
H11 H 0.3524 0.4045 0.0681 0.1760 Uiso
C23 C 0.4925(16) 0.4802(13) 0.1211(12) 0.1027 Uani
C24 C 0.520(2) 0.4272(17) 0.1747(13) 0.1305 Uani
H12 H 0.4758 0.3742 0.1756 0.1550 Uiso
C25 C 0.613(2) 0.4537(17) 0.2254(12) 0.1234 Uani
H13 H 0.6329 0.4197 0.2622 0.1490 Uiso
C26 C 0.6815(15) 0.5361(14) 0.2225(10) 0.1004 Uani
H14 H 0.7478 0.5505 0.2574 0.1210 Uiso
C27 C 0.5589(14) 0.5680(13) 0.1220(10) 0.0847 Uani
C28 C 0.5266(14) 0.6306(13) 0.0691(8) 0.0846 Uani
N1 N 0.5894(10) 0.7124(10) 0.0742(7) 0.0802 Uani
N2 N 0.6543(12) 0.5907(9) 0.1733(7) 0.0790 Uani
N3 N 0.2272(14) 0.7738(12) 0.0296(8) 0.1150 Uani
N4 N 0.2487(14) 0.8465(12) 0.0086(8) 0.1088 Uani
O1 O 0.6466(8) 0.8194(7) 0.2001(5) 0.0834 Uani
O2 O 0.6348(9) 0.7907(9) 0.2803(6) 0.1044 Uani
O3 O 0.3607(12) 0.5292(10) 0.2569(8) 0.1426 Uani
O4 O 0.2195(12) 0.5087(10) 0.1719(7) 0.1304 Uani
O5 O -0.1029(7) 0.6976(7) -0.1728(4) 0.0752 Uani
O6 O -0.1331(8) 0.7985(7) -0.2514(5) 0.0833 Uani
O7 O 0.2231(8) 1.1380(8) -0.1382(5) 0.0886 Uani
O8 O 0.1536(7) 1.0480(7) -0.2242(5) 0.0764 Uani
O9 O 0.3249(15) 0.9274(14) 0.0358(9) 0.1958 Uani
O10 O 0.8214(11) 0.6300(12) 0.1312(7) 0.1497 Uani
H15 H 0.8360 0.6136 0.1028 0.1790 Uiso
H16 H 0.8082 0.6806 0.1070 0.1790 Uiso
Zn1B Zn 0.26552(13) 1.27667(12) -0.16127(8) 0.0708 Uani
Zn1C Zn -0.26552(13) 0.77667(12) -0.33873(8) 0.0708 Uani
Zn2A Zn 0.77697(13) 0.89360(12) 0.27175(8) 0.0666 Uani
Zn2B Zn -0.22303(13) 0.60640(12) -0.22825(8) 0.0666 Uani
Zn2C Zn 0.22303(13) 1.10640(12) -0.27175(8) 0.0666 Uani
O1A O 0.3534(8) 0.3194(7) 0.2999(5) 0.0834 Uani
O2A O 0.3652(9) 0.2907(9) 0.2197(6) 0.1044 Uani
O5B O 0.1029(7) 0.3024(7) 0.1728(4) 0.0752 Uani
O6C O 0.8669(8) 0.7015(7) 0.2486(5) 0.0833 Uani
O7B O 0.7769(8) 0.8620(8) 0.1382(5) 0.0886 Uani
O8C O 0.1536(7) 0.4520(7) 0.2758(5) 0.0764 Uani
C29 C 0.8762(17) 0.3687(19) 0.2109(12) 0.1732 Uani
H17 H 0.9445 0.3996 0.2341 0.2090 Uiso
C30 C 0.911(2) 0.256(2) 0.3044(11) 0.2183 Uani
H18 H 0.9209 0.3156 0.3291 0.3290 Uiso
H19 H 0.9811 0.2286 0.3130 0.3290 Uiso
H20 H 0.8706 0.2046 0.3136 0.3290 Uiso
C31 C 0.7423(14) 0.2255(15) 0.1986(11) 0.1451 Uani
H21 H 0.7419 0.1623 0.2185 0.2160 Uiso
H22 H 0.7385 0.2104 0.1599 0.2160 Uiso
H23 H 0.6799 0.2664 0.1921 0.2160 Uiso
N5 N 0.8472(13) 0.2841(15) 0.2384(9) 0.1342 Uani
O11 O 0.8161(17) 0.4030(16) 0.1583(9) 0.1885 Uani
loop_
_atom_site_aniso_label
_atom_site_aniso_U_11
_atom_site_aniso_U_22
_atom_site_aniso_U_33
_atom_site_aniso_U_23
_atom_site_aniso_U_13
_atom_site_aniso_U_12
Zn1 0.0622(11) 0.0594(10) 0.0806(13) -0.0130(9) 0.0260(10) -0.0098(8)
Zn2 0.0574(10) 0.0576(10) 0.0777(13) 0.0094(9) 0.0267(9) -0.0021(8)
C1 0.065(6) 0.078(6) 0.091(7) -0.016(6) 0.039(6) -0.009(5)
C2 0.065(7) 0.058(7) 0.073(8) 0.004(6) 0.039(7) -0.008(6)
C3 0.083(11) 0.075(10) 0.068(10) 0.010(8) 0.039(9) 0.020(9)
C4 0.132(12) 0.075(9) 0.148(12) -0.003(9) 0.108(10) -0.023(8)
C5 0.133(18) 0.075(12) 0.18(2) -0.031(14) 0.114(19) -0.037(12)
C6 0.066(11) 0.126(15) 0.067(11) -0.016(11) 0.011(9) 0.037(11)
C7 0.103(13) 0.057(9) 0.088(12) 0.010(8) 0.056(11) -0.005(8)
C8 0.119(10) 0.081(9) 0.100(8) 0.004(7) 0.066(8) 0.013(8)
C9 0.079(11) 0.078(11) 0.062(10) -0.011(9) 0.022(9) -0.018(8)
C10 0.078(8) 0.058(7) 0.074(8) -0.010(7) 0.034(7) -0.018(6)
C11 0.058(9) 0.084(11) 0.077(10) 0.000(9) 0.035(8) 0.010(8)
C12 0.057(7) 0.056(7) 0.076(8) 0.006(7) 0.026(6) -0.002(6)
C13 0.073(10) 0.068(9) 0.087(12) 0.001(9) 0.035(10) -0.015(8)
C14 0.142(11) 0.091(7) 0.175(11) 0.001(8) 0.098(10) -0.023(7)
C15 0.061(6) 0.062(6) 0.085(7) 0.006(6) 0.029(5) -0.005(5)
C16 0.081(6) 0.070(6) 0.077(6) -0.015(6) 0.031(6) -0.029(5)
C17 0.097(14) 0.088(13) 0.091(14) -0.010(12) 0.016(12) 0.009(11)
C18 0.101(16) 0.094(15) 0.109(16) -0.021(13) -0.016(13) -0.006(12)
C19 0.113(18) 0.135(19) 0.080(14) -0.015(11) 0.002(13) 0.016(14)
C20 0.084(12) 0.104(13) 0.106(13) -0.039(9) 0.036(12) -0.018(9)
C21 0.094(14) 0.124(16) 0.150(18) -0.083(12) 0.064(15) -0.050(13)
C22 0.13(2) 0.120(19) 0.20(3) -0.042(15) 0.08(2) -0.068(16)
C23 0.083(13) 0.055(10) 0.18(2) -0.039(13) 0.071(15) -0.027(9)
C24 0.17(2) 0.075(13) 0.16(2) -0.022(16) 0.09(2) -0.041(15)
C25 0.15(2) 0.095(15) 0.15(2) 0.030(15) 0.092(19) 0.009(15)
C26 0.090(13) 0.081(12) 0.116(16) -0.010(12) 0.038(13) 0.000(11)
C27 0.066(11) 0.074(11) 0.113(15) -0.026(11) 0.042(11) -0.006(9)
C28 0.089(12) 0.079(11) 0.080(12) -0.042(10) 0.036(11) -0.024(10)
N1 0.065(8) 0.064(8) 0.094(11) -0.019(8) 0.024(8) -0.014(7)
N2 0.081(10) 0.062(8) 0.092(10) -0.006(8) 0.040(9) 0.006(7)
N3 0.128(9) 0.093(9) 0.112(9) 0.012(7) 0.048(8) 0.006(7)
N4 0.125(8) 0.087(8) 0.112(8) 0.007(7) 0.055(7) 0.008(7)
O1 0.064(6) 0.069(6) 0.108(7) -0.029(5) 0.034(5) -0.012(5)
O2 0.078(7) 0.109(7) 0.106(8) -0.024(7) 0.028(6) -0.006(6)
O3 0.143(10) 0.097(8) 0.200(12) 0.009(9) 0.092(9) -0.019(6)
O4 0.154(10) 0.091(8) 0.175(10) 0.008(7) 0.102(9) -0.028(7)
O5 0.063(5) 0.071(6) 0.081(6) 0.007(5) 0.026(5) -0.009(4)
O6 0.063(6) 0.071(6) 0.090(7) 0.006(5) 0.016(5) -0.011(5)
O7 0.095(7) 0.077(6) 0.083(6) -0.022(5) 0.034(6) -0.036(5)
O8 0.071(5) 0.073(6) 0.079(6) -0.019(5) 0.031(5) -0.030(5)
O9 0.182(11) 0.158(10) 0.182(11) 0.007(9) 0.035(9) -0.046(8)
O10 0.127(11) 0.181(14) 0.157(13) -0.074(11) 0.081(11) -0.016(10)
Zn1B 0.0622 0.0594 0.0806 -0.013 0.026 -0.0098
Zn1C 0.0622 0.0594 0.0806 0.013 0.026 0.0098
Zn2A 0.0574 0.0576 0.0777 -0.0094 0.0267 0.0021
Zn2B 0.0574 0.0576 0.0777 0.0094 0.0267 -0.0021
Zn2C 0.0574 0.0576 0.0777 -0.0094 0.0267 0.0021
O1A 0.064 0.069 0.108 0.029 0.034 0.012
O2A 0.078 0.109 0.106 0.024 0.028 0.006
O5B 0.063 0.071 0.081 0.007 0.026 -0.009
O6C 0.063 0.071 0.09 -0.006 0.016 0.011
O7B 0.095 0.077 0.083 -0.022 0.034 -0.036
O8C 0.071 0.073 0.079 0.019 0.031 0.03
C29 0.077(16) 0.26(4) 0.19(3) -0.14(3) 0.070(19) -0.10(2)
C30 0.090(17) 0.24(3) 0.21(3) 0.01(3) -0.02(2) -0.01(2)
C31 0.084(14) 0.118(16) 0.21(3) 0.022(17) 0.052(16) 0.020(13)
N5 0.060(10) 0.153(17) 0.158(18) 0.003(14) 0.027(12) 0.010(11)
O11 0.175(18) 0.211(19) 0.144(15) -0.065(15) 0.048(14) -0.098(16)
loop_
_geom_bond_atom_site_label_1
_geom_bond_atom_site_label_2
_geom_bond_site_symmetry_1
_geom_bond_site_symmetry_2
Zn1 N1 1_555 1_555
Zn2 O3 1_555 1_555
C1 C2 1_555 1_555
C2 C3 1_555 1_555
C3 H1 1_555 1_555
C4 C3 1_555 1_555
C5 C4 1_555 1_555
H2 C5 1_555 1_555
C6 C5 1_555 1_555
C7 C2 1_555 1_555
H3 C7 1_555 1_555
C8 C9 1_555 1_555
C9 H4 1_555 1_555
C10 C9 1_555 1_555
C11 C10 1_555 1_555
H5 C11 1_555 1_555
C12 C11 1_555 1_555
C13 C8 1_555 1_555
H6 C13 1_555 1_555
C14 C4 1_555 1_555
C15 C12 1_555 1_555
C16 C10 1_555 1_555
C17 H7 1_555 1_555
C18 C17 1_555 1_555
H8 C18 1_555 1_555
C19 C18 1_555 1_555
H9 C19 1_555 1_555
C20 C19 1_555 1_555
C21 C20 1_555 1_555
H10 C21 1_555 1_555
C22 C21 1_555 1_555
H11 C22 1_555 1_555
C23 C22 1_555 1_555
C24 C23 1_555 1_555
H12 C24 1_555 1_555
C25 C24 1_555 1_555
H13 C25 1_555 1_555
C26 C25 1_555 1_555
H14 C26 1_555 1_555
C27 C23 1_555 1_555
C28 C20 1_555 1_555
N1 C17 1_555 1_555
N2 Zn1 1_555 1_555
N3 C6 1_555 1_555
N4 C8 1_555 1_555
O1 Zn1 1_555 1_555
O2 C1 1_555 1_555
O3 C14 1_555 1_555
O4 Zn2 1_555 1_555
O5 C15 1_555 1_555
O6 C15 1_555 1_555
O7 C16 1_555 1_555
O8 C16 1_555 1_555
O9 N4 1_555 1_555
O10 Zn1 1_555 1_555
H15 O10 1_555 1_555
H16 O10 1_555 1_555
C29 H17 1_555 1_555
C30 H18 1_555 1_555
H19 C30 1_555 1_555
H20 C30 1_555 1_555
C31 H21 1_555 1_555
H22 C31 1_555 1_555
H23 C31 1_555 1_555
N5 C29 1_555 1_555
O11 C29 1_555 1_555
Zn1B O7 1_555 1_555
Zn1C O6 1_555 1_555
Zn2A O1 1_555 1_555
Zn2B O5 1_555 1_555
Zn2C O8 1_555 1_555
O1A Zn2 1_555 1_555
O2A Zn2 1_555 1_555
O5B Zn2 1_555 1_555
O6C Zn1 1_555 1_555
O7B Zn1 1_555 1_555
O8C Zn2 1_555 1_555
C1 O1 1_555 1_555
C6 C7 1_555 1_555
C12 C13 1_555 1_555
C14 O4 1_555 1_555
C26 N2 1_555 1_555
C27 C28 1_555 1_555
C27 N2 1_555 1_555
C28 N1 1_555 1_555
N3 N4 1_555 1_555
O2 Zn2A 1_555 1_555
C30 N5 1_555 1_555
C31 N5 1_555 1_555

#END
