
#######################################################################
#
#                 Cambridge Crystallographic Data Centre
#                                CCDC 
#
#######################################################################
#
# If this CIF has been generated from an entry in the Cambridge 
# Structural Database, then it will include bibliographic, chemical, 
# crystal, experimental, refinement or atomic coordinate data resulting 
# from the CCDC's data processing and validation procedures.
#
#######################################################################

data_DAKTIU
_chemical_formula_moiety         'C11 H12 Cl1 Cu1 K1 N2 O8 S1'
_symmetry_cell_setting           triclinic
_symmetry_space_group_name_H-M   'P -1'
_symmetry_Int_Tables_number      2
_space_group_name_Hall           '-P 1'
loop_
_symmetry_equiv_pos_site_id
_symmetry_equiv_pos_as_xyz
1 x,y,z
2 -x,-y,-z
_cell_length_a                   7.1364(5)
_cell_length_b                   11.4297(9)
_cell_length_c                   11.7485(10)
_cell_angle_alpha                62.658(4)
_cell_angle_beta                 75.568(5)
_cell_angle_gamma                88.560(5)
_cell_volume                     819.91
loop_
_atom_site_label
_atom_site_type_symbol
_atom_site_fract_x
_atom_site_fract_y
_atom_site_fract_z
_atom_site_U_iso_or_equiv
_atom_site_thermal_displace_type
Cu1 Cu 0.87997(13) 0.71930(9) 0.35633(8) 0.0200 Uani
Cl1 Cl 1.2130(3) 0.31359(19) 0.09614(19) 0.0286 Uani
S1 S 1.3019(3) 0.84387(18) -0.10010(17) 0.0191 Uani
O1 O 1.1420(7) 0.9277(5) -0.1185(5) 0.0225 Uani
O2 O 1.4434(7) 0.8916(5) -0.0586(5) 0.0224 Uani
O3 O 1.3836(8) 0.8227(5) -0.2137(5) 0.0262 Uani
O4 O 0.4239(8) 0.2672(6) 0.7543(5) 0.0291 Uani
O5 O 0.7147(7) 0.6484(5) 0.5332(5) 0.0214 Uani
O6 O 0.8890(8) 0.8902(5) 0.3524(5) 0.0272 Uani
H1 H 0.8432 0.9027 0.4151 0.0410 Uiso
H2 H 0.9016 0.9544 0.2797 0.0410 Uiso
O7 O 1.0452(7) 0.7787(5) 0.1791(5) 0.0179 Uani
N1 N 0.8887(8) 0.5464(6) 0.3718(6) 0.0177 Uani
N2 N 0.7993(8) 0.4346(6) 0.4651(6) 0.0189 Uani
C1 C 1.0823(10) 0.6784(7) 0.1543(7) 0.0165 Uani
C2 C 1.1957(11) 0.6873(7) 0.0337(7) 0.0192 Uani
C3 C 1.2311(11) 0.5765(8) 0.0143(7) 0.0218 Uani
H3 H 1.3074 0.5862 -0.0689 0.0260 Uiso
C4 C 1.1538(11) 0.4520(7) 0.1178(7) 0.0217 Uani
C5 C 1.0388(11) 0.4367(7) 0.2378(7) 0.0211 Uani
H4 H 0.9830 0.3514 0.3074 0.0260 Uiso
C6 C 1.0066(10) 0.5477(7) 0.2550(7) 0.0178 Uani
C7 C 0.6726(11) 0.4248(8) 0.5787(7) 0.0223 Uani
C8 C 0.5684(11) 0.2902(7) 0.6615(7) 0.0241 Uani
C9 C 0.6334(12) 0.1841(8) 0.6254(8) 0.0309 Uani
H5 H 0.5654 0.0985 0.6962 0.0460 Uiso
H6 H 0.7740 0.1815 0.6141 0.0460 Uiso
H7 H 0.6038 0.2025 0.5420 0.0460 Uiso
C10 C 0.6367(11) 0.5298(8) 0.6104(7) 0.0204 Uani
C11 C 0.5039(11) 0.5118(8) 0.7395(7) 0.0271 Uani
H8 H 0.5281 0.5883 0.7524 0.0400 Uiso
H9 H 0.5285 0.4311 0.8128 0.0400 Uiso
H10 H 0.3683 0.5042 0.7377 0.0400 Uiso
K1 K 0.2329(2) 0.07700(16) 0.99680(16) 0.0230 Uani
O8 O 0.7309(15) 0.9171(9) 0.5724(10) 0.0390 Uiso
H11 H 0.7778 0.8595 0.6414 0.0580 Uiso
H12 H 0.6125 0.9172 0.6103 0.0580 Uiso
loop_
_atom_site_aniso_label
_atom_site_aniso_U_11
_atom_site_aniso_U_22
_atom_site_aniso_U_33
_atom_site_aniso_U_23
_atom_site_aniso_U_13
_atom_site_aniso_U_12
Cu1 0.0191(5) 0.0154(5) 0.0089(4) 0.0043(4) 0.0040(3) -0.0004(3)
Cl1 0.0351(11) 0.0195(10) 0.0220(9) -0.0058(8) -0.0003(8) 0.0016(8)
S1 0.0183(9) 0.0140(9) 0.0094(8) 0.0037(7) 0.0039(7) -0.0012(7)
O1 0.023(3) 0.018(3) 0.011(2) 0.003(2) 0.002(2) -0.003(2)
O2 0.018(3) 0.014(3) 0.016(3) 0.005(2) 0.004(2) -0.006(2)
O3 0.029(3) 0.019(3) 0.013(3) 0.002(2) 0.005(2) -0.003(2)
O4 0.017(3) 0.029(3) 0.015(3) 0.006(2) 0.007(2) -0.004(2)
O5 0.022(3) 0.015(3) 0.012(2) 0.004(2) 0.000(2) 0.000(2)
O6 0.038(3) 0.020(3) 0.010(2) 0.001(2) 0.000(2) 0.003(2)
O7 0.016(2) 0.015(3) 0.010(2) 0.002(2) 0.0020(19) -0.0031(19)
N1 0.017(3) 0.012(3) 0.009(3) 0.004(2) 0.004(2) -0.005(2)
N2 0.014(3) 0.019(3) 0.007(3) 0.005(2) 0.003(2) -0.002(2)
C1 0.013(3) 0.018(4) 0.010(3) 0.000(3) -0.002(3) 0.000(3)
C2 0.021(4) 0.015(4) 0.009(3) 0.002(3) 0.002(3) -0.003(3)
C3 0.025(4) 0.021(4) 0.008(3) 0.001(3) -0.001(3) 0.000(3)
C4 0.024(4) 0.017(4) 0.014(3) -0.002(3) 0.001(3) 0.002(3)
C5 0.026(4) 0.015(4) 0.011(3) 0.002(3) -0.002(3) -0.002(3)
C6 0.012(3) 0.021(4) 0.010(3) -0.001(3) 0.002(3) -0.001(3)
C7 0.017(4) 0.023(4) 0.010(3) 0.005(3) -0.001(3) 0.002(3)
C8 0.020(4) 0.016(4) 0.016(4) 0.006(3) 0.002(3) 0.000(3)
C9 0.021(4) 0.027(5) 0.016(4) 0.008(3) 0.007(3) -0.005(3)
C10 0.017(4) 0.025(4) 0.010(3) 0.000(3) -0.005(3) 0.002(3)
C11 0.018(4) 0.029(4) 0.016(4) 0.002(3) 0.001(3) -0.001(3)
K1 0.0177(8) 0.0216(9) 0.0177(8) -0.0021(7) 0.0010(6) -0.0020(6)
loop_
_geom_bond_atom_site_label_1
_geom_bond_atom_site_label_2
_geom_bond_site_symmetry_1
_geom_bond_site_symmetry_2
Cu1 O5 1_555 1_555
Cl1 C4 1_555 1_555
S1 O1 1_555 1_555
O2 S1 1_555 1_555
O3 S1 1_555 1_555
O4 C8 1_555 1_555
O5 C10 1_555 1_555
O6 Cu1 1_555 1_555
H1 O6 1_555 1_555
H2 O6 1_555 1_555
O7 Cu1 1_555 1_555
N1 Cu1 1_555 1_555
N2 N1 1_555 1_555
C1 O7 1_555 1_555
C2 S1 1_555 1_555
C3 C2 1_555 1_555
H3 C3 1_555 1_555
C4 C3 1_555 1_555
C5 C4 1_555 1_555
H4 C5 1_555 1_555
C6 N1 1_555 1_555
C7 N2 1_555 1_555
C8 C7 1_555 1_555
C9 C8 1_555 1_555
H5 C9 1_555 1_555
H6 C9 1_555 1_555
H7 C9 1_555 1_555
C10 C7 1_555 1_555
C11 C10 1_555 1_555
H8 C11 1_555 1_555
H9 C11 1_555 1_555
H10 C11 1_555 1_555
O8 H11 1_555 1_555
H12 O8 1_555 1_555
C1 C2 1_555 1_555
C1 C6 1_555 1_555
C5 C6 1_555 1_555

#END
