
#######################################################################
#
#                 Cambridge Crystallographic Data Centre
#                                CCDC 
#
#######################################################################
#
# If this CIF has been generated from an entry in the Cambridge 
# Structural Database, then it will include bibliographic, chemical, 
# crystal, experimental, refinement or atomic coordinate data resulting 
# from the CCDC's data processing and validation procedures.
#
#######################################################################

data_FUVBOP
_chemical_formula_moiety         '(C38 H28 Cu6 O34)n'
_symmetry_cell_setting           orthorhombic
_symmetry_space_group_name_H-M   'I m m m'
_symmetry_Int_Tables_number      71
_space_group_name_Hall           '-I 2 2'
loop_
_symmetry_equiv_pos_site_id
_symmetry_equiv_pos_as_xyz
1 x,y,z
2 -x,-y,z
3 x,-y,-z
4 -x,y,-z
5 1/2+x,1/2+y,1/2+z
6 1/2-x,1/2-y,1/2+z
7 1/2+x,1/2-y,1/2-z
8 1/2-x,1/2+y,1/2-z
9 -x,-y,-z
10 x,y,-z
11 -x,y,z
12 x,-y,z
13 1/2-x,1/2-y,1/2-z
14 1/2+x,1/2+y,1/2-z
15 1/2-x,1/2+y,1/2+z
16 1/2+x,1/2-y,1/2+z
_cell_length_a                   19.4476(7)
_cell_length_b                   19.4476(7)
_cell_length_c                   24.1299(8)
_cell_angle_alpha                90
_cell_angle_beta                 90
_cell_angle_gamma                90
_cell_volume                     9126.15
loop_
_atom_site_label
_atom_site_type_symbol
_atom_site_fract_x
_atom_site_fract_y
_atom_site_fract_z
Cu1 Cu -0.06749(16) 0.0000 0.0000
Cu2 Cu 0.23190(9) 0.22359(9) 0.29834(6)
O1 O 0.2113(6) 0.3184(4) 0.3158(4)
O2 O -0.0569(4) 0.0701(5) 0.0584(3)
O3 O 0.2397(6) 0.3643(4) 0.2358(4)
O4 O 0.1423(5) 0.2132(6) 0.2631(4)
O5 O 0.1722(5) 0.2596(5) 0.1813(5)
C1 C 0.1544(8) 0.4388(7) 0.3512(6)
H1 H 0.1388 0.3963 0.3660
C2 C 0.1310(7) 0.2281(6) 0.2130(6)
C3 C 0.1952(8) 0.4379(7) 0.3057(6)
C4 C -0.0000 0.0898(8) 0.0758(7)
O6 O 0.0000 0.2829(9) 0.2521(7)
C5 C 0.2194(6) 0.3672(6) 0.2843(6)
O7 O 0.2565(16) 0.5000 0.2359(12)
O8 O 0.2055(5) 0.1743(6) 0.3747(3)
H2 H 0.2313 0.1773 0.4089
H3 H 0.1665 0.1448 0.3819
C6 C 0.0612(5) 0.1649(6) 0.1463(3)
H4 H 0.1032 0.1490 0.1308
C7 C -0.0000 0.1416(9) 0.1244(8)
C8 C 0.0000 0.2355(9) 0.2111(7)
C9 C 0.2199(10) 0.5000 0.2808(10)
C10 C 0.0633(7) 0.2099(7) 0.1892(5)
Cu3 Cu 0.0000 0.43195(16) 0.5000
C11 C 0.0879(12) 0.5000 0.4243(8)
O9 O -0.0000 0.3208(10) 0.5000
O10 O 0.0700(6) 0.4402(5) 0.4431(4)
C12 C 0.1346(14) 0.5000 0.3771(9)
O11 O -0.177(2) 0.0000 0.0000
C13 C 0.218(3) 0.5000 0.182(2)
O1K O 0.2113(6) 0.6816(4) 0.3158(4)
O3K O 0.2397(6) 0.6357(4) 0.2358(4)
C1K C 0.1544(8) 0.5612(7) 0.3512(6)
H1K H 0.1388 0.6037 0.3660
C3K C 0.1952(8) 0.5621(7) 0.3057(6)
C5K C 0.2194(6) 0.6328(6) 0.2843(6)
O10K O 0.0700(6) 0.5598(5) 0.4431(4)
O2J O 0.0569(4) 0.0701(5) 0.0584(3)
O4J O -0.1423(5) 0.2132(6) 0.2631(4)
O5J O -0.1722(5) 0.2596(5) 0.1813(5)
C2J C -0.1310(7) 0.2281(6) 0.2130(6)
C6J C -0.0612(5) 0.1649(6) 0.1463(3)
H4J H -0.1032 0.1490 0.1308
C10J C -0.0633(7) 0.2099(7) 0.1892(5)
Cu2A Cu -0.23190(9) -0.22359(9) 0.29834(6)
O2A O 0.0569(4) -0.0701(5) 0.0584(3)
O4A O -0.1423(5) -0.2132(6) 0.2631(4)
O5A O -0.1722(5) -0.2596(5) 0.1813(5)
C2A C -0.1310(7) -0.2281(6) 0.2130(6)
C4A C -0.0000 -0.0898(8) 0.0758(7)
O6A O -0.0000 -0.2829(9) 0.2521(7)
O8A O -0.2055(5) -0.1743(6) 0.3747(3)
H2A H -0.2313 -0.1773 0.4089
H3A H -0.1665 -0.1448 0.3819
C6A C -0.0612(5) -0.1649(6) 0.1463(3)
H4A H -0.1032 -0.1490 0.1308
C7A C 0.0000 -0.1416(9) 0.1244(8)
C8A C -0.0000 -0.2355(9) 0.2111(7)
C10A C -0.0633(7) -0.2099(7) 0.1892(5)
O2K O -0.0569(4) -0.0701(5) 0.0584(3)
O4K O 0.1423(5) -0.2132(6) 0.2631(4)
O5K O 0.1722(5) -0.2596(5) 0.1813(5)
C2K C 0.1310(7) -0.2281(6) 0.2130(6)
C6K C 0.0612(5) -0.1649(6) 0.1463(3)
H4K H 0.1032 -0.1490 0.1308
C10K C 0.0633(7) -0.2099(7) 0.1892(5)
Cu2L Cu 0.26810(9) 0.27641(9) 0.20166(6)
O1L O 0.2887(6) 0.1816(4) 0.1842(4)
O3L O 0.2603(6) 0.1357(4) 0.2642(4)
C1L C 0.3456(8) 0.0612(7) 0.1488(6)
H1L H 0.3612 0.1037 0.1340
C3L C 0.3048(8) 0.0621(7) 0.1943(6)
C5L C 0.2806(6) 0.1328(6) 0.2157(6)
O7G O 0.2435(16) 0.0000 0.2641(12)
O8L O 0.2945(5) 0.3257(6) 0.1253(3)
H2L H 0.2687 0.3227 0.0911
H3L H 0.3335 0.3552 0.1181
C9G C 0.2801(10) -0.0000 0.2192(10)
C11G C 0.4121(12) -0.0000 0.0757(8)
O10L O 0.4300(6) 0.0598(5) 0.0569(4)
C12G C 0.3654(14) 0.0000 0.1229(9)
C13G C 0.282(3) 0.0000 0.318(2)
O1G O 0.2887(6) -0.1816(4) 0.1842(4)
O3G O 0.2603(6) -0.1357(4) 0.2642(4)
C1G C 0.3456(8) -0.0612(7) 0.1488(6)
H1G H 0.3612 -0.1037 0.1340
C3G C 0.3048(8) -0.0621(7) 0.1943(6)
C5G C 0.2806(6) -0.1328(6) 0.2157(6)
O10G O 0.4300(6) -0.0598(5) 0.0569(4)
Cu2K Cu 0.23190(9) 0.77641(9) 0.29834(6)
O8K O 0.2055(5) 0.8257(6) 0.3747(3)
H2K H 0.2313 0.8227 0.4089
H3K H 0.1665 0.8552 0.3819
Cu1A Cu 0.06749(16) 0.0000 0.0000
Cu2F Cu -0.26810(9) 0.27641(9) 0.20166(6)
Cu2G Cu 0.26810(9) -0.27641(9) 0.20166(6)
Cu2G_2 Cu 0.26810(9) 0.72359(9) 0.20166(6)
Cu2J Cu -0.23190(9) 0.22359(9) 0.29834(6)
Cu2K_2 Cu 0.23190(9) -0.22359(9) 0.29834(6)
Cu2M Cu -0.26810(9) -0.27641(9) 0.20166(6)
O1A O -0.2113(6) -0.3184(4) 0.3158(4)
O2B O -0.0569(4) -0.0701(5) -0.0584(3)
O2I O -0.0569(4) 0.0701(5) -0.0584(3)
O3G_2 O 0.2603(6) 0.8643(4) 0.2642(4)
O3M O -0.2603(6) -0.1357(4) 0.2642(4)
O4K_2 O 0.1423(5) 0.7868(6) 0.2631(4)
O4L O 0.3577(5) 0.2868(6) 0.2369(4)
O5G O 0.3278(5) 0.7596(5) 0.3187(5)
O5L O 0.3278(5) 0.2404(5) 0.3187(5)
O5M O -0.3278(5) -0.2404(5) 0.3187(5)
Cu3A Cu 0.0000 0.56805(16) 0.5000
Cu3D Cu 0.5000 -0.06805(16) 0.0000
Cu3E Cu 0.5000 0.06805(16) 0.0000
O10C O -0.0700(6) 0.4402(5) 0.5569(4)
O10I O 0.0700(6) 0.4402(5) 0.5569(4)
O10J O -0.0700(6) 0.4402(5) 0.4431(4)
loop_
_geom_bond_atom_site_label_1
_geom_bond_atom_site_label_2
_geom_bond_site_symmetry_1
_geom_bond_site_symmetry_2
Cu1 O2 1_555 1_555
Cu2 O1 1_555 1_555
O1 C5 1_555 1_555
O2 C4 1_555 1_555
O3 C5 1_555 1_555
O4 Cu2 1_555 1_555
O5 C2 1_555 1_555
C1 H1 1_555 1_555
C2 O4 1_555 1_555
C3 C1 1_555 1_555
C4 C7 1_555 1_555
O6 C8 1_555 1_555
C5 C3 1_555 1_555
O7 C9 1_555 1_555
O8 Cu2 1_555 1_555
H2 O8 1_555 1_555
H3 O8 1_555 1_555
C6 H4 1_555 1_555
C7 C6 1_555 1_555
C8 C10 1_555 1_555
C9 C3 1_555 1_555
C10 C2 1_555 1_555
Cu3 O9 1_555 1_555
C11 O10 1_555 1_555
O10 Cu3 1_555 1_555
C12 C1 1_555 1_555
O11 Cu1 1_555 1_555
C13 O7 1_555 1_555
O1K C5K 1_555 1_555
O3K C5K 1_555 1_555
C1K C12 1_555 1_555
H1K C1K 1_555 1_555
C3K C9 1_555 1_555
C5K C3K 1_555 1_555
O10K C11 1_555 1_555
O2J C4 1_555 1_555
O4J C2J 1_555 1_555
O5J C2J 1_555 1_555
C2J C10J 1_555 1_555
C6J C7 1_555 1_555
H4J C6J 1_555 1_555
C10J C8 1_555 1_555
Cu2A O4A 1_555 1_555
O2A C4A 1_555 1_555
O4A C2A 1_555 1_555
O5A C2A 1_555 1_555
C2A C10A 1_555 1_555
C4A C7A 1_555 1_555
O6A C8A 1_555 1_555
O8A Cu2A 1_555 1_555
H2A O8A 1_555 1_555
H3A O8A 1_555 1_555
C6A H4A 1_555 1_555
C7A C6A 1_555 1_555
C8A C10A 1_555 1_555
C10A C6A 1_555 1_555
O2K Cu1 1_555 1_555
O4K C2K 1_555 1_555
O5K C2K 1_555 1_555
C2K C10K 1_555 1_555
C6K C7A 1_555 1_555
H4K C6K 1_555 1_555
C10K C8A 1_555 1_555
Cu2L Cu2 1_555 1_555
O1L Cu2L 1_555 1_555
O3L Cu2 1_555 1_555
C1L H1L 1_555 1_555
C3L C1L 1_555 1_555
C5L O1L 1_555 1_555
O7G C9G 1_555 1_555
O8L Cu2L 1_555 1_555
H2L O8L 1_555 1_555
H3L O8L 1_555 1_555
C9G C3L 1_555 1_555
C11G O10L 1_555 1_555
O10L Cu3E 1_555 1_555
C12G C1L 1_555 1_555
C13G O7G 1_555 1_555
O1G C5G 1_555 1_555
O3G C5G 1_555 1_555
C1G C12G 1_555 1_555
H1G C1G 1_555 1_555
C3G C9G 1_555 1_555
C5G C3G 1_555 1_555
O10G C11G 1_555 1_555
Cu2K O1K 1_555 1_555
O8K Cu2K 1_555 1_555
H2K O8K 1_555 1_555
H3K O8K 1_555 1_555
Cu1A Cu1 1_555 1_555
Cu2F O5J 1_555 1_555
Cu2G O5K 1_555 1_555
Cu2G_2 O3K 1_555 1_555
Cu2J O4J 1_555 1_555
Cu2K_2 O4K 1_555 1_555
Cu2M Cu2A 1_555 1_555
O1A Cu2A 1_555 1_555
O2B Cu1 1_555 1_555
O2I Cu1 1_555 1_555
O3G_2 Cu2K 1_555 1_555
O3M Cu2A 1_555 1_555
O4K_2 Cu2K 1_555 1_555
O4L Cu2L 1_555 1_555
O5G Cu2K 1_555 1_555
O5L Cu2 1_555 1_555
O5M Cu2A 1_555 1_555
Cu3A Cu3 1_555 1_555
Cu3D O10G 1_555 1_555
Cu3E Cu3D 1_555 1_555
O10C Cu3 1_555 1_555
O10I Cu3 1_555 1_555
O10J Cu3 1_555 1_555
O3 Cu2L 1_555 1_555
O5 Cu2L 1_555 1_555
C6 C10 1_555 1_555
C11 C12 1_555 1_555
C1K C3K 1_555 1_555
O10K Cu3A 1_555 1_555
O2J Cu1A 1_555 1_555
C6J C10J 1_555 1_555
O2A Cu1A 1_555 1_555
O5A Cu2M 1_555 1_555
C4A O2K 1_555 1_555
C6K C10K 1_555 1_555
O3L C5L 1_555 1_555
C3L C5L 1_555 1_555
C11G C12G 1_555 1_555
O1G Cu2G 1_555 1_555
O3G Cu2K_2 1_555 1_555
C1G C3G 1_555 1_555
Cu2K Cu2G_2 1_555 1_555
Cu2F Cu2J 1_555 1_555
Cu2G Cu2K_2 1_555 1_555

#END
