
#######################################################################
#
#                 Cambridge Crystallographic Data Centre
#                                CCDC 
#
#######################################################################
#
# If this CIF has been generated from an entry in the Cambridge 
# Structural Database, then it will include bibliographic, chemical, 
# crystal, experimental, refinement or atomic coordinate data resulting 
# from the CCDC's data processing and validation procedures.
#
#######################################################################

data_RIVDIL
_chemical_formula_moiety         '(C156 H96 Co6 N60 S12)n'
_symmetry_cell_setting           cubic
_symmetry_space_group_name_H-M   'F d -3 c'
_symmetry_Int_Tables_number      228
_space_group_name_Hall           '-F 4ud 2vw 3'
loop_
_symmetry_equiv_pos_site_id
_symmetry_equiv_pos_as_xyz
1 x,y,z
2 1/4-x,3/4-y,1/2+z
3 3/4-x,1/2+y,1/4-z
4 1/2+x,1/4-y,3/4-z
5 z,x,y
6 1/2+z,1/4-x,3/4-y
7 1/4-z,3/4-x,1/2+y
8 3/4-z,1/2+x,1/4-y
9 y,z,x
10 3/4-y,1/2+z,1/4-x
11 1/2+y,1/4-z,3/4-x
12 1/4-y,3/4-z,1/2+x
13 3/4+y,1/4+x,-z
14 1/2-y,1/2-x,1/2-z
15 1/4+y,-x,3/4+z
16 -y,3/4+x,1/4+z
17 3/4+x,1/4+z,-y
18 -x,3/4+z,1/4+y
19 1/2-x,1/2-z,1/2-y
20 1/4+x,-z,3/4+y
21 3/4+z,1/4+y,-x
22 1/4+z,-y,3/4+x
23 -z,3/4+y,1/4+x
24 1/2-z,1/2-y,1/2-x
25 x,1/2+y,1/2+z
26 1/4-x,1/4-y,z
27 3/4-x,y,3/4-z
28 1/2+x,3/4-y,1/4-z
29 z,1/2+x,1/2+y
30 1/2+z,3/4-x,1/4-y
31 1/4-z,1/4-x,y
32 3/4-z,x,3/4-y
33 y,1/2+z,1/2+x
34 3/4-y,z,3/4-x
35 1/2+y,3/4-z,1/4-x
36 1/4-y,1/4-z,x
37 3/4+y,3/4+x,1/2-z
38 1/2-y,-x,-z
39 1/4+y,1/2-x,1/4+z
40 -y,1/4+x,3/4+z
41 3/4+x,3/4+z,1/2-y
42 -x,1/4+z,3/4+y
43 1/2-x,-z,-y
44 1/4+x,1/2-z,1/4+y
45 3/4+z,3/4+y,1/2-x
46 1/4+z,1/2-y,1/4+x
47 -z,1/4+y,3/4+x
48 1/2-z,-y,-x
49 1/2+x,y,1/2+z
50 3/4-x,3/4-y,z
51 1/4-x,1/2+y,3/4-z
52 x,1/4-y,1/4-z
53 1/2+z,x,1/2+y
54 z,1/4-x,1/4-y
55 3/4-z,3/4-x,y
56 1/4-z,1/2+x,3/4-y
57 1/2+y,z,1/2+x
58 1/4-y,1/2+z,3/4-x
59 y,1/4-z,1/4-x
60 3/4-y,3/4-z,x
61 1/4+y,1/4+x,1/2-z
62 -y,1/2-x,-z
63 3/4+y,-x,1/4+z
64 1/2-y,3/4+x,3/4+z
65 1/4+x,1/4+z,1/2-y
66 1/2-x,3/4+z,3/4+y
67 -x,1/2-z,-y
68 3/4+x,-z,1/4+y
69 1/4+z,1/4+y,1/2-x
70 3/4+z,-y,1/4+x
71 1/2-z,3/4+y,3/4+x
72 -z,1/2-y,-x
73 1/2+x,1/2+y,z
74 3/4-x,1/4-y,1/2+z
75 1/4-x,y,1/4-z
76 x,3/4-y,3/4-z
77 1/2+z,1/2+x,y
78 z,3/4-x,3/4-y
79 3/4-z,1/4-x,1/2+y
80 1/4-z,x,1/4-y
81 1/2+y,1/2+z,x
82 1/4-y,z,1/4-x
83 y,3/4-z,3/4-x
84 3/4-y,1/4-z,1/2+x
85 1/4+y,3/4+x,-z
86 -y,-x,1/2-z
87 3/4+y,1/2-x,3/4+z
88 1/2-y,1/4+x,1/4+z
89 1/4+x,3/4+z,-y
90 1/2-x,1/4+z,1/4+y
91 -x,-z,1/2-y
92 3/4+x,1/2-z,3/4+y
93 1/4+z,3/4+y,-x
94 3/4+z,1/2-y,3/4+x
95 1/2-z,1/4+y,1/4+x
96 -z,-y,1/2-x
97 -x,-y,-z
98 3/4+x,1/4+y,1/2-z
99 1/4+x,1/2-y,3/4+z
100 1/2-x,3/4+y,1/4+z
101 -z,-x,-y
102 1/2-z,3/4+x,1/4+y
103 3/4+z,1/4+x,1/2-y
104 1/4+z,1/2-x,3/4+y
105 -y,-z,-x
106 1/4+y,1/2-z,3/4+x
107 1/2-y,3/4+z,1/4+x
108 3/4+y,1/4+z,1/2-x
109 1/4-y,3/4-x,z
110 1/2+y,1/2+x,1/2+z
111 3/4-y,x,1/4-z
112 y,1/4-x,3/4-z
113 1/4-x,3/4-z,y
114 x,1/4-z,3/4-y
115 1/2+x,1/2+z,1/2+y
116 3/4-x,z,1/4-y
117 1/4-z,3/4-y,x
118 3/4-z,y,1/4-x
119 z,1/4-y,3/4-x
120 1/2+z,1/2+y,1/2+x
121 -x,1/2-y,1/2-z
122 3/4+x,3/4+y,-z
123 1/4+x,-y,1/4+z
124 1/2-x,1/4+y,3/4+z
125 -z,1/2-x,1/2-y
126 1/2-z,1/4+x,3/4+y
127 3/4+z,3/4+x,-y
128 1/4+z,-x,1/4+y
129 -y,1/2-z,1/2-x
130 1/4+y,-z,1/4+x
131 1/2-y,1/4+z,3/4+x
132 3/4+y,3/4+z,-x
133 1/4-y,1/4-x,1/2+z
134 1/2+y,x,z
135 3/4-y,1/2+x,3/4-z
136 y,3/4-x,1/4-z
137 1/4-x,1/4-z,1/2+y
138 x,3/4-z,1/4-y
139 1/2+x,z,y
140 3/4-x,1/2+z,3/4-y
141 1/4-z,1/4-y,1/2+x
142 3/4-z,1/2+y,3/4-x
143 z,3/4-y,1/4-x
144 1/2+z,y,x
145 1/2-x,-y,1/2-z
146 1/4+x,1/4+y,-z
147 3/4+x,1/2-y,1/4+z
148 -x,3/4+y,3/4+z
149 1/2-z,-x,1/2-y
150 -z,3/4+x,3/4+y
151 1/4+z,1/4+x,-y
152 3/4+z,1/2-x,1/4+y
153 1/2-y,-z,1/2-x
154 3/4+y,1/2-z,1/4+x
155 -y,3/4+z,3/4+x
156 1/4+y,1/4+z,-x
157 3/4-y,3/4-x,1/2+z
158 y,1/2+x,z
159 1/4-y,x,3/4-z
160 1/2+y,1/4-x,1/4-z
161 3/4-x,3/4-z,1/2+y
162 1/2+x,1/4-z,1/4-y
163 x,1/2+z,y
164 1/4-x,z,3/4-y
165 3/4-z,3/4-y,1/2+x
166 1/4-z,y,3/4-x
167 1/2+z,1/4-y,1/4-x
168 z,1/2+y,x
169 1/2-x,1/2-y,-z
170 1/4+x,3/4+y,1/2-z
171 3/4+x,-y,3/4+z
172 -x,1/4+y,1/4+z
173 1/2-z,1/2-x,-y
174 -z,1/4+x,1/4+y
175 1/4+z,3/4+x,1/2-y
176 3/4+z,-x,3/4+y
177 1/2-y,1/2-z,-x
178 3/4+y,-z,3/4+x
179 -y,1/4+z,1/4+x
180 1/4+y,3/4+z,1/2-x
181 3/4-y,1/4-x,z
182 y,x,1/2+z
183 1/4-y,1/2+x,1/4-z
184 1/2+y,3/4-x,3/4-z
185 3/4-x,1/4-z,y
186 1/2+x,3/4-z,3/4-y
187 x,z,1/2+y
188 1/4-x,1/2+z,1/4-y
189 3/4-z,1/4-y,x
190 1/4-z,1/2+y,1/4-x
191 1/2+z,3/4-y,3/4-x
192 z,y,1/2+x
_cell_length_a                   64.235(6)
_cell_length_b                   64.235(6)
_cell_length_c                   64.235(6)
_cell_angle_alpha                90
_cell_angle_beta                 90
_cell_angle_gamma                90
_cell_volume                     265042
loop_
_atom_site_label
_atom_site_type_symbol
_atom_site_fract_x
_atom_site_fract_y
_atom_site_fract_z
_atom_site_U_iso_or_equiv
_atom_site_thermal_displace_type
C1 C 0.53178(8) 0.33990(9) 0.10166(9) 0.0480 Uani
H1 H 0.5349 0.3524 0.0943 0.0580 Uiso
C2 C 0.54417(9) 0.32273(9) 0.09811(10) 0.0560 Uani
C3 C 0.53951(12) 0.30437(10) 0.10817(12) 0.0830 Uani
H2 H 0.5481 0.2924 0.1066 0.1000 Uiso
C4 C 0.52202(12) 0.30383(11) 0.12062(14) 0.0953 Uani
H3 H 0.5176 0.2911 0.1267 0.1150 Uiso
C5 C 0.51099(10) 0.32171(10) 0.12422(11) 0.0713 Uani
H4 H 0.4996 0.3212 0.1337 0.0860 Uiso
C6 C 0.60151(10) 0.40658(10) -0.03100(9) 0.0533 Uani
C7 C 0.58516(11) 0.39067(11) 0.01673(10) 0.0750 Uani
H5 H 0.5860 0.4012 0.0064 0.0900 Uiso
C8 C 0.56830(11) 0.39077(11) 0.02959(12) 0.0843 Uani
H6 H 0.5582 0.4015 0.0287 0.1010 Uiso
C9 C 0.56624(11) 0.37495(10) 0.04389(11) 0.0747 Uani
H7 H 0.5547 0.3745 0.0531 0.0890 Uiso
C10 C 0.58154(9) 0.35954(9) 0.04454(9) 0.0513 Uani
C11 C 0.59801(8) 0.36115(8) 0.03115(8) 0.0450 Uani
H8 H 0.6082 0.3505 0.0315 0.0540 Uiso
C12 C 0.58004(9) 0.34207(9) 0.05983(9) 0.0543 Uani
C13 C 0.59503(10) 0.31478(9) 0.07570(11) 0.0690 Uani
C14 C 0.56253(9) 0.32474(9) 0.08463(10) 0.0563 Uani
C15 C 0.61283(11) 0.28764(9) 0.09659(11) 0.0717 Uani
H9 H 0.6010 0.2874 0.1054 0.0860 Uiso
C16 C 0.61298(12) 0.30177(11) 0.07962(13) 0.0893 Uani
C17 C 0.63086(15) 0.30276(16) 0.06788(18) 0.1450 Uani
H10 H 0.6319 0.3123 0.0567 0.1740 Uiso
C18 C 0.64724(16) 0.28981(17) 0.07249(19) 0.1680 Uani
H11 H 0.6598 0.2904 0.0648 0.2020 Uiso
C19 C 0.64493(15) 0.27587(16) 0.08862(18) 0.1463 Uani
H12 H 0.6560 0.2664 0.0912 0.1760 Uiso
C20 C 0.57552(14) 0.24890(10) 0.12190(14) 0.0790 Uani
C21 C 0.63780(12) 0.23247(12) 0.16748(11) 0.0840 Uani
H13 H 0.6479 0.2432 0.1665 0.1010 Uiso
C22 C 0.63726(14) 0.22106(13) 0.18479(12) 0.0983 Uani
H14 H 0.6472 0.2233 0.1955 0.1180 Uiso
C23 C 0.62179(11) 0.20561(11) 0.18705(11) 0.0780 Uani
H15 H 0.6207 0.1976 0.1994 0.0940 Uiso
C24 C 0.60827(10) 0.20256(9) 0.17042(9) 0.0577 Uani
C25 C 0.61005(10) 0.21521(8) 0.15304(9) 0.0553 Uani
H16 H 0.6003 0.2134 0.1421 0.0660 Uiso
C26 C 0.59207(10) 0.18677(9) 0.17139(9) 0.0533 Uani
Co1 Co 0.629861(13) 0.379861(13) 0.0000 0.0398 Uani
Co2 Co 0.6250 0.251799(15) 0.1250 0.0536 Uani
N1 N 0.51561(7) 0.34003(7) 0.11490(7) 0.0507 Uani
N2 N 0.61325(7) 0.39535(7) -0.02309(6) 0.0447 Uani
N3 N 0.60068(8) 0.37672(7) 0.01757(7) 0.0533 Uani
N4 N 0.56309(8) 0.34057(7) 0.07092(8) 0.0570 Uani
N5 N 0.59658(8) 0.32977(8) 0.06142(9) 0.0650 Uani
N6 N 0.57774(9) 0.31151(8) 0.08754(9) 0.0727 Uani
N7 N 0.62827(9) 0.27488(8) 0.10074(10) 0.0793 Uani
N8 N 0.62452(8) 0.22967(8) 0.15084(8) 0.0613 Uani
N9 N 0.59297(11) 0.25102(7) 0.12293(9) 0.0633 Uani
N10 N 0.57751(8) 0.18687(7) 0.15657(8) 0.0577 Uani
S1 S 0.58435(3) 0.42257(3) -0.04017(4) 0.0878 Uani
S2 S 0.54975(4) 0.24641(4) 0.12079(8) 0.1700 Uani
C21GA C 0.51753(12) 0.16748(11) 0.11220(12) 0.0840 Uani
H13GA H 0.5068 0.1665 0.1021 0.1010 Uiso
C22GA C 0.52894(13) 0.18479(12) 0.11274(14) 0.0983 Uani
H14GA H 0.5267 0.1955 0.1028 0.1180 Uiso
C23GA C 0.54439(11) 0.18705(11) 0.12821(11) 0.0780 Uani
H15GA H 0.5524 0.1994 0.1293 0.0940 Uiso
C24GA C 0.54744(9) 0.17042(9) 0.14173(10) 0.0577 Uani
C25GA C 0.53479(8) 0.15304(9) 0.13995(10) 0.0553 Uani
H16GA H 0.5366 0.1421 0.1497 0.0660 Uiso
C26GA C 0.56323(9) 0.17139(9) 0.15793(10) 0.0533 Uani
N8GA N 0.52033(8) 0.15084(8) 0.12548(8) 0.0613 Uani
N10GA N 0.56313(7) 0.15657(8) 0.17249(8) 0.0577 Uani
C21BB C 0.58252(11) 0.11220(12) 0.23247(12) 0.0840 Uani
H13BB H 0.5835 0.1021 0.2432 0.1010 Uiso
C22BB C 0.56521(12) 0.11274(14) 0.22106(13) 0.0983 Uani
H14BB H 0.5545 0.1028 0.2233 0.1180 Uiso
C23BB C 0.56295(11) 0.12821(11) 0.20561(11) 0.0780 Uani
H15BB H 0.5506 0.1293 0.1976 0.0940 Uiso
C24BB C 0.57958(9) 0.14173(10) 0.20256(9) 0.0577 Uani
C25BB C 0.59696(9) 0.13995(10) 0.21521(8) 0.0553 Uani
H16BB H 0.6079 0.1497 0.2134 0.0660 Uiso
C26BB C 0.57861(9) 0.15793(10) 0.18677(9) 0.0533 Uani
N8BB N 0.59916(8) 0.12548(8) 0.22967(8) 0.0613 Uani
N10BB N 0.59343(8) 0.17249(8) 0.18687(7) 0.0577 Uani
C1CA C 0.60166(9) 0.21822(8) -0.08990(9) 0.0480 Uani
H1CA H 0.5943 0.2151 -0.1024 0.0580 Uiso
C2CA C 0.59811(10) 0.20583(9) -0.07273(9) 0.0560 Uani
C3CA C 0.60817(12) 0.21049(12) -0.05437(10) 0.0830 Uani
H2CA H 0.6066 0.2019 -0.0424 0.1000 Uiso
C4CA C 0.62062(14) 0.22798(12) -0.05383(11) 0.0953 Uani
H3CA H 0.6267 0.2324 -0.0411 0.1150 Uiso
C5CA C 0.62422(11) 0.23901(10) -0.07171(10) 0.0713 Uani
H4CA H 0.6337 0.2504 -0.0712 0.0860 Uiso
C6CA C 0.46900(9) 0.14849(10) -0.15658(10) 0.0533 Uani
C7CA C 0.51673(10) 0.16484(11) -0.14067(11) 0.0750 Uani
H5CA H 0.5064 0.1640 -0.1512 0.0900 Uiso
C8CA C 0.52959(12) 0.18170(11) -0.14077(11) 0.0843 Uani
H6CA H 0.5287 0.1918 -0.1515 0.1010 Uiso
C9CA C 0.54389(11) 0.18376(11) -0.12495(10) 0.0747 Uani
H7CA H 0.5531 0.1953 -0.1245 0.0890 Uiso
C10CA C 0.54454(9) 0.16846(9) -0.10954(9) 0.0513 Uani
C11CA C 0.53115(8) 0.15199(8) -0.11115(8) 0.0450 Uani
H8CA H 0.5315 0.1418 -0.1005 0.0540 Uiso
C12CA C 0.55983(9) 0.16996(9) -0.09207(9) 0.0543 Uani
C13CA C 0.57570(11) 0.15497(10) -0.06478(9) 0.0690 Uani
C14CA C 0.58463(10) 0.18747(9) -0.07474(9) 0.0563 Uani
C15CA C 0.59659(11) 0.13717(11) -0.03764(9) 0.0717 Uani
H9CA H 0.6054 0.1490 -0.0374 0.0860 Uiso
C16CA C 0.57962(13) 0.13702(12) -0.05177(11) 0.0893 Uani
C17CA C 0.56788(18) 0.11914(15) -0.05276(16) 0.1450 Uani
H10CA H 0.5567 0.1181 -0.0623 0.1740 Uiso
C18CA C 0.57249(19) 0.10276(16) -0.03981(17) 0.1680 Uani
H11CA H 0.5648 0.0902 -0.0404 0.2020 Uiso
C19CA C 0.58862(18) 0.10507(15) -0.02587(16) 0.1463 Uani
H12CA H 0.5912 0.0940 -0.0164 0.1760 Uiso
C20CA C 0.62190(14) 0.17448(14) 0.00110(10) 0.0790 Uani
C21CA C 0.66748(11) 0.11220(12) 0.01753(12) 0.0840 Uani
H13CA H 0.6665 0.1021 0.0068 0.1010 Uiso
C22CA C 0.68479(12) 0.11274(14) 0.02894(13) 0.0983 Uani
H14CA H 0.6955 0.1028 0.0267 0.1180 Uiso
C23CA C 0.68705(11) 0.12821(11) 0.04439(11) 0.0780 Uani
H15CA H 0.6994 0.1293 0.0524 0.0940 Uiso
C24CA C 0.67042(9) 0.14173(10) 0.04744(9) 0.0577 Uani
C25CA C 0.65304(9) 0.13995(10) 0.03479(8) 0.0553 Uani
H16CA H 0.6421 0.1497 0.0366 0.0660 Uiso
C26CA C 0.67139(9) 0.15793(10) 0.06323(9) 0.0533 Uani
Co1W Co 0.5000 0.120139(13) -0.129861(13) 0.0398 Uani
Co2G Co 0.6250 0.1250 -0.001799(15) 0.0536 Uani
N1CA N 0.61490(7) 0.23439(7) -0.09003(7) 0.0507 Uani
N2CA N 0.47691(6) 0.13675(7) -0.14535(7) 0.0447 Uani
N3CA N 0.51757(7) 0.14932(8) -0.12672(7) 0.0533 Uani
N4CA N 0.57092(8) 0.18691(8) -0.09057(7) 0.0570 Uani
N5CA N 0.56142(9) 0.15342(8) -0.07977(8) 0.0650 Uani
N6CA N 0.58754(9) 0.17226(9) -0.06151(8) 0.0727 Uani
N7CA N 0.60074(10) 0.12173(9) -0.02488(8) 0.0793 Uani
N8CA N 0.65084(8) 0.12548(8) 0.02033(8) 0.0613 Uani
N9CA N 0.62293(9) 0.15703(11) -0.00102(7) 0.0633 Uani
N10CA N 0.65657(8) 0.17249(8) 0.06313(7) 0.0577 Uani
S1CA S 0.45983(4) 0.16565(3) -0.17257(3) 0.0878 Uani
S2CA S 0.62079(8) 0.20025(4) 0.00359(4) 0.1700 Uani
C21VB C 0.61220(12) 0.23247(12) 0.08252(11) 0.0840 Uani
H13VB H 0.6021 0.2432 0.0835 0.1010 Uiso
C22VB C 0.61274(14) 0.22106(13) 0.06521(12) 0.0983 Uani
H14VB H 0.6028 0.2233 0.0545 0.1180 Uiso
C23VB C 0.62821(11) 0.20561(11) 0.06295(11) 0.0780 Uani
H15VB H 0.6293 0.1976 0.0506 0.0940 Uiso
C24VB C 0.64173(10) 0.20256(9) 0.07958(9) 0.0577 Uani
C25VB C 0.63995(10) 0.21521(8) 0.09696(9) 0.0553 Uani
H16VB H 0.6497 0.2134 0.1079 0.0660 Uiso
C26VB C 0.65793(10) 0.18677(9) 0.07861(9) 0.0533 Uani
N8VB N 0.62548(8) 0.22967(8) 0.09916(8) 0.0613 Uani
N10VB N 0.67249(8) 0.18687(7) 0.09343(8) 0.0577 Uani
C21DB C 0.73247(12) 0.16748(11) 0.13780(12) 0.0840 Uani
H13DB H 0.7432 0.1665 0.1479 0.1010 Uiso
C22DB C 0.72106(13) 0.18479(12) 0.13726(14) 0.0983 Uani
H14DB H 0.7233 0.1955 0.1472 0.1180 Uiso
C23DB C 0.70561(11) 0.18705(11) 0.12179(11) 0.0780 Uani
H15DB H 0.6976 0.1994 0.1207 0.0940 Uiso
C24DB C 0.70256(9) 0.17042(9) 0.10827(10) 0.0577 Uani
C25DB C 0.71521(8) 0.15304(9) 0.11005(10) 0.0553 Uani
H16DB H 0.7134 0.1421 0.1003 0.0660 Uiso
C26DB C 0.68677(9) 0.17139(9) 0.09207(10) 0.0533 Uani
N8DB N 0.72967(8) 0.15084(8) 0.12452(8) 0.0613 Uani
N10DB N 0.68687(7) 0.15657(8) 0.07751(8) 0.0577 Uani
C1GA C 0.41010(9) 0.10166(9) 0.21822(8) 0.0480 Uani
H1GA H 0.3976 0.0943 0.2151 0.0580 Uiso
C2GA C 0.42727(9) 0.09811(10) 0.20583(9) 0.0560 Uani
C3GA C 0.44563(10) 0.10817(12) 0.21049(12) 0.0830 Uani
H2GA H 0.4576 0.1066 0.2019 0.1000 Uiso
C4GA C 0.44617(11) 0.12062(14) 0.22798(12) 0.0953 Uani
H3GA H 0.4589 0.1267 0.2324 0.1150 Uiso
C5GA C 0.42829(10) 0.12422(11) 0.23901(10) 0.0713 Uani
H4GA H 0.4288 0.1337 0.2504 0.0860 Uiso
C7GA C 0.35933(11) 0.01673(10) 0.16484(11) 0.0750 Uani
H5GA H 0.3488 0.0064 0.1640 0.0900 Uiso
C8GA C 0.35923(11) 0.02959(12) 0.18170(11) 0.0843 Uani
H6GA H 0.3485 0.0287 0.1918 0.1010 Uiso
C9GA C 0.37505(10) 0.04389(11) 0.18376(11) 0.0747 Uani
H7GA H 0.3755 0.0531 0.1953 0.0890 Uiso
C10GA C 0.39046(9) 0.04454(9) 0.16846(9) 0.0513 Uani
C11GA C 0.38885(8) 0.03115(8) 0.15199(8) 0.0450 Uani
H8GA H 0.3995 0.0315 0.1418 0.0540 Uiso
C12GA C 0.40793(9) 0.05983(9) 0.16996(9) 0.0543 Uani
C13GA C 0.43522(9) 0.07570(11) 0.15497(10) 0.0690 Uani
C14GA C 0.42526(9) 0.08463(10) 0.18747(9) 0.0563 Uani
C15GA C 0.46236(9) 0.09659(11) 0.13717(11) 0.0717 Uani
H9GA H 0.4626 0.1054 0.1490 0.0860 Uiso
C16GA C 0.44823(11) 0.07962(13) 0.13702(12) 0.0893 Uani
C17GA C 0.44724(16) 0.06788(18) 0.11914(15) 0.1450 Uani
H10GA H 0.4377 0.0567 0.1181 0.1740 Uiso
C18GA C 0.46019(17) 0.07249(19) 0.10276(16) 0.1680 Uani
H11GA H 0.4596 0.0648 0.0902 0.2020 Uiso
C19GA C 0.47413(16) 0.08862(18) 0.10507(15) 0.1463 Uani
H12GA H 0.4836 0.0912 0.0940 0.1760 Uiso
C20GA C 0.50110(10) 0.12190(14) 0.17448(14) 0.0790 Uani
Co2GA Co 0.498201(15) 0.1250 0.1250 0.0536 Uani
N1GA N 0.40997(7) 0.11490(7) 0.23439(7) 0.0507 Uani
N3GA N 0.37328(7) 0.01757(7) 0.14932(8) 0.0533 Uani
N4GA N 0.40943(7) 0.07092(8) 0.18691(8) 0.0570 Uani
N5GA N 0.42023(8) 0.06142(9) 0.15342(8) 0.0650 Uani
N6GA N 0.43849(8) 0.08754(9) 0.17226(9) 0.0727 Uani
N7GA N 0.47512(8) 0.10074(10) 0.12173(9) 0.0793 Uani
N9GA N 0.49898(7) 0.12293(9) 0.15703(11) 0.0633 Uani
S2GA S 0.50359(4) 0.12079(8) 0.20025(4) 0.1700 Uani
C1XD C 0.66010(9) 0.39834(9) -0.03178(8) 0.0480 Uani
H1XD H 0.6476 0.4057 -0.0349 0.0580 Uiso
C2XD C 0.67727(9) 0.40189(10) -0.04417(9) 0.0560 Uani
C3XD C 0.69563(10) 0.39183(12) -0.03951(12) 0.0830 Uani
H2XD H 0.7076 0.3934 -0.0481 0.1000 Uiso
C4XD C 0.69617(11) 0.37938(14) -0.02202(12) 0.0953 Uani
H3XD H 0.7089 0.3733 -0.0176 0.1150 Uiso
C5XD C 0.67829(10) 0.37578(11) -0.01099(10) 0.0713 Uani
H4XD H 0.6788 0.3663 0.0004 0.0860 Uiso
C7XD C 0.60933(11) 0.48327(10) -0.08516(11) 0.0750 Uani
H5XD H 0.5988 0.4936 -0.0860 0.0900 Uiso
C8XD C 0.60923(11) 0.47041(12) -0.06830(11) 0.0843 Uani
H6XD H 0.5985 0.4713 -0.0582 0.1010 Uiso
C9XD C 0.62505(10) 0.45611(11) -0.06624(11) 0.0747 Uani
H7XD H 0.6255 0.4469 -0.0547 0.0890 Uiso
C10XD C 0.64046(9) 0.45546(9) -0.08154(9) 0.0513 Uani
C11XD C 0.63885(8) 0.46885(8) -0.09801(8) 0.0450 Uani
H8XD H 0.6495 0.4685 -0.1082 0.0540 Uiso
C12XD C 0.65793(9) 0.44017(9) -0.08004(9) 0.0543 Uani
C13XD C 0.68522(9) 0.42430(11) -0.09503(10) 0.0690 Uani
C14XD C 0.67526(9) 0.41537(10) -0.06253(9) 0.0563 Uani
C15XD C 0.71236(9) 0.40341(11) -0.11283(11) 0.0717 Uani
H9XD H 0.7126 0.3946 -0.1010 0.0860 Uiso
C16XD C 0.69823(11) 0.42038(13) -0.11298(12) 0.0893 Uani
C17XD C 0.69724(16) 0.43212(18) -0.13086(15) 0.1450 Uani
H10XD H 0.6877 0.4433 -0.1319 0.1740 Uiso
C18XD C 0.71019(17) 0.42751(19) -0.14724(16) 0.1680 Uani
H11XD H 0.7096 0.4352 -0.1598 0.2020 Uiso
C19XD C 0.72413(16) 0.41138(18) -0.14493(15) 0.1463 Uani
H12XD H 0.7336 0.4088 -0.1560 0.1760 Uiso
N1XD N 0.65997(7) 0.38510(7) -0.01561(7) 0.0507 Uani
N3XD N 0.62328(7) 0.48243(7) -0.10068(8) 0.0533 Uani
N4XD N 0.65943(7) 0.42908(8) -0.06309(8) 0.0570 Uani
N5XD N 0.67023(8) 0.43858(9) -0.09658(8) 0.0650 Uani
N6XD N 0.68849(8) 0.41246(9) -0.07774(9) 0.0727 Uani
N7XD N 0.72512(8) 0.39926(10) -0.12827(9) 0.0793 Uani
C1HF C 0.64834(9) 0.41010(9) 0.03178(8) 0.0480 Uani
H1HF H 0.6557 0.3976 0.0349 0.0580 Uiso
C2HF C 0.65189(10) 0.42727(9) 0.04417(9) 0.0560 Uani
C3HF C 0.64183(12) 0.44563(10) 0.03951(12) 0.0830 Uani
H2HF H 0.6434 0.4576 0.0481 0.1000 Uiso
C4HF C 0.62938(14) 0.44617(11) 0.02202(12) 0.0953 Uani
H3HF H 0.6233 0.4589 0.0176 0.1150 Uiso
C5HF C 0.62578(11) 0.42829(10) 0.01099(10) 0.0713 Uani
H4HF H 0.6163 0.4288 -0.0004 0.0860 Uiso
C7HF C 0.73327(10) 0.35933(11) 0.08516(11) 0.0750 Uani
H5HF H 0.7436 0.3488 0.0860 0.0900 Uiso
C8HF C 0.72041(12) 0.35923(11) 0.06830(11) 0.0843 Uani
H6HF H 0.7213 0.3485 0.0582 0.1010 Uiso
C9HF C 0.70611(11) 0.37505(10) 0.06624(11) 0.0747 Uani
H7HF H 0.6969 0.3755 0.0547 0.0890 Uiso
C10HF C 0.70546(9) 0.39046(9) 0.08154(9) 0.0513 Uani
C11HF C 0.71885(8) 0.38885(8) 0.09801(8) 0.0450 Uani
H8HF H 0.7185 0.3995 0.1082 0.0540 Uiso
C12HF C 0.69017(9) 0.40793(9) 0.08004(9) 0.0543 Uani
C13HF C 0.67430(11) 0.43522(9) 0.09503(10) 0.0690 Uani
C14HF C 0.66537(10) 0.42526(9) 0.06253(9) 0.0563 Uani
C15HF C 0.65341(11) 0.46236(9) 0.11283(11) 0.0717 Uani
H9HF H 0.6446 0.4626 0.1010 0.0860 Uiso
C16HF C 0.67038(13) 0.44823(11) 0.11298(12) 0.0893 Uani
C17HF C 0.68212(18) 0.44724(16) 0.13086(15) 0.1450 Uani
H10HF H 0.6933 0.4377 0.1319 0.1740 Uiso
C18HF C 0.67751(19) 0.46019(17) 0.14724(16) 0.1680 Uani
H11HF H 0.6852 0.4596 0.1598 0.2020 Uiso
C19HF C 0.66138(18) 0.47413(16) 0.14493(15) 0.1463 Uani
H12HF H 0.6588 0.4836 0.1560 0.1760 Uiso
N1HF N 0.63510(7) 0.40997(7) 0.01561(7) 0.0507 Uani
N3HF N 0.73243(7) 0.37328(7) 0.10068(8) 0.0533 Uani
N4HF N 0.67908(8) 0.40943(7) 0.06309(8) 0.0570 Uani
N5HF N 0.68858(9) 0.42023(8) 0.09658(8) 0.0650 Uani
N6HF N 0.66246(9) 0.43849(8) 0.07774(9) 0.0727 Uani
N7HF N 0.64926(10) 0.47512(8) 0.12827(9) 0.0793 Uani
C1FC C 0.58990(9) 0.28178(8) -0.10166(9) 0.0480 Uani
H1FC H 0.6024 0.2849 -0.0943 0.0580 Uiso
C2FC C 0.57273(9) 0.29417(9) -0.09811(10) 0.0560 Uani
C3FC C 0.55437(10) 0.28951(12) -0.10817(12) 0.0830 Uani
H2FC H 0.5424 0.2981 -0.1066 0.1000 Uiso
C4FC C 0.55383(11) 0.27202(12) -0.12062(14) 0.0953 Uani
H3FC H 0.5411 0.2676 -0.1267 0.1150 Uiso
C5FC C 0.57171(10) 0.26099(10) -0.12422(11) 0.0713 Uani
H4FC H 0.5712 0.2496 -0.1337 0.0860 Uiso
C7FC C 0.64067(11) 0.33516(11) -0.01673(10) 0.0750 Uani
H5FC H 0.6512 0.3360 -0.0064 0.0900 Uiso
C8FC C 0.64077(11) 0.31830(11) -0.02959(12) 0.0843 Uani
H6FC H 0.6515 0.3082 -0.0287 0.1010 Uiso
C9FC C 0.62495(10) 0.31624(11) -0.04389(11) 0.0747 Uani
H7FC H 0.6245 0.3047 -0.0531 0.0890 Uiso
C10FC C 0.60954(9) 0.33154(9) -0.04454(9) 0.0513 Uani
C11FC C 0.61115(8) 0.34801(8) -0.03115(8) 0.0450 Uani
H8FC H 0.6005 0.3582 -0.0315 0.0540 Uiso
C12FC C 0.59207(9) 0.33004(9) -0.05983(9) 0.0543 Uani
C13FC C 0.56478(9) 0.34503(10) -0.07570(11) 0.0690 Uani
C14FC C 0.57474(9) 0.31253(9) -0.08463(10) 0.0563 Uani
C15FC C 0.53764(9) 0.36283(11) -0.09659(11) 0.0717 Uani
H9FC H 0.5374 0.3510 -0.1054 0.0860 Uiso
C16FC C 0.55177(11) 0.36298(12) -0.07962(13) 0.0893 Uani
C17FC C 0.55276(16) 0.38086(15) -0.06788(18) 0.1450 Uani
H10FC H 0.5623 0.3819 -0.0567 0.1740 Uiso
C18FC C 0.53981(17) 0.39724(16) -0.07249(19) 0.1680 Uani
H11FC H 0.5404 0.4098 -0.0648 0.2020 Uiso
C19FC C 0.52587(16) 0.39493(15) -0.08862(18) 0.1463 Uani
H12FC H 0.5164 0.4060 -0.0912 0.1760 Uiso
N1FC N 0.59003(7) 0.26561(7) -0.11490(7) 0.0507 Uani
N3FC N 0.62672(7) 0.35068(8) -0.01757(7) 0.0533 Uani
N4FC N 0.59057(7) 0.31309(8) -0.07092(8) 0.0570 Uani
N5FC N 0.57977(8) 0.34658(8) -0.06142(9) 0.0650 Uani
N6FC N 0.56151(8) 0.32774(9) -0.08754(9) 0.0727 Uani
N7FC N 0.52488(8) 0.37827(9) -0.10074(10) 0.0793 Uani
C6FC C 0.65658(10) 0.35151(10) 0.03100(9) 0.0533 Uani
N2FC N 0.64535(7) 0.36325(7) 0.02309(6) 0.0447 Uani
S1FC S 0.67257(3) 0.33435(3) 0.04017(4) 0.0878 Uani
C6W C 0.53100(9) 0.09342(10) -0.10151(10) 0.0533 Uani
N2W N 0.52309(6) 0.10465(7) -0.11325(7) 0.0447 Uani
S1W S 0.54017(4) 0.07743(3) -0.08435(3) 0.0878 Uani
C20VB C 0.67448(14) 0.24890(10) 0.12810(14) 0.0790 Uani
N9VB N 0.65703(11) 0.25102(7) 0.12707(9) 0.0633 Uani
S2VB S 0.70025(4) 0.24641(4) 0.12921(8) 0.1700 Uani
C20G C 0.62810(14) 0.07552(14) 0.00110(10) 0.0790 Uani
N9G N 0.62707(9) 0.09297(11) -0.00102(7) 0.0633 Uani
S2G S 0.62921(8) 0.04975(4) 0.00359(4) 0.1700 Uani
C20EC C 0.50110(10) 0.12810(14) 0.07552(14) 0.0790 Uani
N9EC N 0.49898(7) 0.12707(9) 0.09297(11) 0.0633 Uani
S2EC S 0.50359(4) 0.12921(8) 0.04975(4) 0.1700 Uani
Co1RE Co 0.5000 0.370139(13) 0.120139(13) 0.0398 Uani
C6RE C 0.53100(9) 0.39849(10) 0.09342(10) 0.0533 Uani
N2RE N 0.52309(6) 0.38675(7) 0.10465(7) 0.0447 Uani
S1RE S 0.54017(4) 0.41565(3) 0.07743(3) 0.0878 Uani
C6HG C 0.46900(9) 0.34342(10) 0.14849(10) 0.0533 Uani
N2HG N 0.47691(6) 0.35465(7) 0.13675(7) 0.0447 Uani
S1HG S 0.45983(4) 0.32743(3) 0.16565(3) 0.0878 Uani
Co1GA Co 0.370139(13) -0.0000 0.120139(13) 0.0398 Uani
Co1XD Co 0.620139(13) 0.5000 -0.129861(13) 0.0398 Uani
Co1EE Co 0.379861(13) 0.120139(13) 0.2500 0.0398 Uani
Co1FE Co 0.620139(13) 0.2500 -0.120139(13) 0.0398 Uani
Co1HF Co 0.7500 0.370139(13) 0.129861(13) 0.0398 Uani
Co2J Co 0.751799(15) 0.1250 0.1250 0.0536 Uani
Co2N Co 0.501799(15) 0.3750 -0.1250 0.0536 Uani
Co2BB Co 0.6250 0.1250 0.251799(15) 0.0536 Uani
Co2XD Co 0.748201(15) 0.3750 -0.1250 0.0536 Uani
Co2HF Co 0.6250 0.498201(15) 0.1250 0.0536 Uani
N1OA N 0.48439(7) 0.36490(7) 0.09003(7) 0.0507 Uani
N1QE N 0.48439(7) 0.09003(7) -0.13510(7) 0.0507 Uani
N1DG N 0.51561(7) 0.11490(7) -0.15997(7) 0.0507 Uani
N3W N 0.48243(7) 0.12328(7) -0.10068(8) 0.0533 Uani
N3RE N 0.48243(7) 0.39932(8) 0.12328(7) 0.0533 Uani
N3HG N 0.51757(7) 0.37328(7) 0.14932(8) 0.0533 Uani
N7G N 0.64926(10) 0.12827(9) -0.02488(8) 0.0793 Uani
N7VB N 0.62173(9) 0.27488(8) 0.14926(10) 0.0793 Uani
N7EC N 0.47512(8) 0.14926(10) 0.12827(9) 0.0793 Uani
N8G N 0.59916(8) 0.12452(8) 0.02033(8) 0.0613 Uani
N8EC N 0.52033(8) 0.09916(8) 0.12452(8) 0.0613 Uani
loop_
_atom_site_aniso_label
_atom_site_aniso_U_11
_atom_site_aniso_U_22
_atom_site_aniso_U_33
_atom_site_aniso_U_23
_atom_site_aniso_U_13
_atom_site_aniso_U_12
C1 0.04 0.05 0.054 0.012 0.007 0.003
C2 0.054 0.052 0.062 0.012 0.02 0.004
C3 0.096 0.042 0.111 0.017 0.053 0.018
C4 0.086 0.048 0.152 0.034 0.056 0.006
C5 0.057 0.061 0.096 0.022 0.033 0.002
C6 0.056(4) 0.060(4) 0.044(3) 0.007(3) -0.011(3) -0.005(3)
C7 0.086(5) 0.078(5) 0.061(4) 0.034(4) 0.025(4) 0.034(4)
C8 0.080(5) 0.079(5) 0.094(5) 0.047(4) 0.032(4) 0.041(4)
C9 0.069(4) 0.084(5) 0.071(4) 0.029(4) 0.038(4) 0.032(4)
C10 0.056(3) 0.047(3) 0.051(3) 0.014(3) 0.011(3) 0.015(3)
C11 0.048(3) 0.044(3) 0.043(3) 0.001(2) 0.005(2) 0.012(2)
C12 0.060(4) 0.047(3) 0.056(4) 0.011(3) 0.024(3) 0.016(3)
C13 0.066(4) 0.049(4) 0.092(5) 0.028(3) 0.043(4) 0.019(3)
C14 0.056(4) 0.045(3) 0.068(4) 0.013(3) 0.020(3) 0.016(3)
C15 0.081(5) 0.039(3) 0.095(5) 0.021(3) 0.046(4) 0.023(3)
C16 0.082(5) 0.068(4) 0.118(6) 0.048(4) 0.054(4) 0.034(4)
C17 0.111(6) 0.132(7) 0.192(10) 0.119(7) 0.098(7) 0.074(6)
C18 0.120(7) 0.157(8) 0.227(11) 0.140(8) 0.119(8) 0.089(6)
C19 0.112(7) 0.143(8) 0.184(10) 0.111(8) 0.083(7) 0.090(7)
C20 0.081(6) 0.035(3) 0.121(7) 0.011(4) 0.002(5) -0.002(4)
C21 0.109(6) 0.075(5) 0.068(5) 0.005(4) -0.031(4) -0.051(4)
C22 0.119(7) 0.103(6) 0.073(5) 0.007(5) -0.039(5) -0.059(6)
C23 0.093(5) 0.075(5) 0.066(4) 0.012(4) -0.019(4) -0.039(4)
C24 0.068(4) 0.051(3) 0.054(4) 0.004(3) -0.015(3) -0.022(3)
C25 0.071(4) 0.042(3) 0.053(3) 0.003(3) -0.019(3) -0.016(3)
C26 0.067(4) 0.049(3) 0.044(3) 0.006(3) -0.013(3) -0.021(3)
Co1 0.0466(5) 0.0466(5) 0.0262(5) 0.0043(3) -0.0043(3) 0.0077(5)
Co2 0.0724(9) 0.0256(6) 0.0627(8) 0.000 0.0106(6) 0.000
N1 0.043 0.047 0.062 0.009 0.018 0.001
N2 0.047(3) 0.053(3) 0.034(2) 0.004(2) -0.006(2) 0.006(2)
N3 0.065(3) 0.053(3) 0.042(3) 0.016(2) 0.009(2) 0.021(2)
N4 0.056(3) 0.054(3) 0.061(3) 0.014(2) 0.019(2) 0.014(2)
N5 0.064(3) 0.054(3) 0.077(4) 0.029(3) 0.033(3) 0.024(3)
N6 0.077(4) 0.052(3) 0.089(4) 0.030(3) 0.042(3) 0.028(3)
N7 0.075(4) 0.057(3) 0.106(5) 0.038(3) 0.040(3) 0.031(3)
N8 0.072(3) 0.048(3) 0.064(3) -0.002(2) -0.014(3) -0.027(3)
N9 0.082(4) 0.038(3) 0.070(4) 0.012(2) 0.010(3) 0.005(3)
N10 0.061(3) 0.050(3) 0.062(3) 0.023(2) -0.017(3) -0.012(2)
S1 0.0841(14) 0.0729(12) 0.1064(16) 0.0196(11) -0.0364(12) 0.0202(10)
S2 0.0801(18) 0.0758(17) 0.354(6) 0.052(2) -0.006(2) -0.0033(13)
C21GA 0.075 0.068 0.109 0.031 -0.051 -0.005
C22GA 0.103 0.073 0.119 0.039 -0.059 -0.007
C23GA 0.075 0.066 0.093 0.019 -0.039 -0.012
C24GA 0.051 0.054 0.068 0.015 -0.022 -0.004
C25GA 0.042 0.053 0.071 0.019 -0.016 -0.003
C26GA 0.049 0.044 0.067 0.013 -0.021 -0.006
N8GA 0.048 0.064 0.072 0.014 -0.027 0.002
N10GA 0.05 0.062 0.061 0.017 -0.012 -0.023
C21BB 0.068 0.109 0.075 0.051 -0.005 -0.031
C22BB 0.073 0.119 0.103 0.059 -0.007 -0.039
C23BB 0.066 0.093 0.075 0.039 -0.012 -0.019
C24BB 0.054 0.068 0.051 0.022 -0.004 -0.015
C25BB 0.053 0.071 0.042 0.016 -0.003 -0.019
C26BB 0.044 0.067 0.049 0.021 -0.006 -0.013
N8BB 0.064 0.072 0.048 0.027 0.002 -0.014
N10BB 0.062 0.061 0.05 0.012 -0.023 -0.017
C1CA 0.054 0.04 0.05 0.003 -0.012 -0.007
C2CA 0.062 0.054 0.052 0.004 -0.012 -0.02
C3CA 0.111 0.096 0.042 0.018 -0.017 -0.053
C4CA 0.152 0.086 0.048 0.006 -0.034 -0.056
C5CA 0.096 0.057 0.061 0.002 -0.022 -0.033
C6CA 0.044 0.056 0.06 -0.005 -0.007 0.011
C7CA 0.061 0.086 0.078 0.034 -0.034 -0.025
C8CA 0.094 0.08 0.079 0.041 -0.047 -0.032
C9CA 0.071 0.069 0.084 0.032 -0.029 -0.038
C10CA 0.051 0.056 0.047 0.015 -0.014 -0.011
C11CA 0.043 0.048 0.044 0.012 -0.001 -0.005
C12CA 0.056 0.06 0.047 0.016 -0.011 -0.024
C13CA 0.092 0.066 0.049 0.019 -0.028 -0.043
C14CA 0.068 0.056 0.045 0.016 -0.013 -0.02
C15CA 0.095 0.081 0.039 0.023 -0.021 -0.046
C16CA 0.118 0.082 0.068 0.034 -0.048 -0.054
C17CA 0.192 0.111 0.132 0.074 -0.119 -0.098
C18CA 0.227 0.12 0.157 0.089 -0.14 -0.119
C19CA 0.184 0.112 0.143 0.09 -0.111 -0.083
C20CA 0.121 0.081 0.035 -0.002 -0.011 -0.002
C21CA 0.068 0.109 0.075 -0.051 -0.005 0.031
C22CA 0.073 0.119 0.103 -0.059 -0.007 0.039
C23CA 0.066 0.093 0.075 -0.039 -0.012 0.019
C24CA 0.054 0.068 0.051 -0.022 -0.004 0.015
C25CA 0.053 0.071 0.042 -0.016 -0.003 0.019
C26CA 0.044 0.067 0.049 -0.021 -0.006 0.013
Co1W 0.0262 0.0466 0.0466 0.0077 -0.0043 0.0043
Co2G 0.0627 0.0724 0.0256 0 0 -0.0106
N1CA 0.062 0.043 0.047 0.001 -0.009 -0.018
N2CA 0.034 0.047 0.053 0.006 -0.004 0.006
N3CA 0.042 0.065 0.053 0.021 -0.016 -0.009
N4CA 0.061 0.056 0.054 0.014 -0.014 -0.019
N5CA 0.077 0.064 0.054 0.024 -0.029 -0.033
N6CA 0.089 0.077 0.052 0.028 -0.03 -0.042
N7CA 0.106 0.075 0.057 0.031 -0.038 -0.04
N8CA 0.064 0.072 0.048 -0.027 0.002 0.014
N9CA 0.07 0.082 0.038 0.005 -0.012 -0.01
N10CA 0.062 0.061 0.05 -0.012 -0.023 0.017
S1CA 0.1064 0.0841 0.0729 0.0202 -0.0196 0.0364
S2CA 0.354 0.0801 0.0758 -0.0033 -0.052 0.006
C21VB 0.109 0.075 0.068 -0.005 -0.031 0.051
C22VB 0.119 0.103 0.073 -0.007 -0.039 0.059
C23VB 0.093 0.075 0.066 -0.012 -0.019 0.039
C24VB 0.068 0.051 0.054 -0.004 -0.015 0.022
C25VB 0.071 0.042 0.053 -0.003 -0.019 0.016
C26VB 0.067 0.049 0.044 -0.006 -0.013 0.021
N8VB 0.072 0.048 0.064 0.002 -0.014 0.027
N10VB 0.061 0.05 0.062 -0.023 -0.017 0.012
C21DB 0.075 0.068 0.109 -0.031 -0.051 0.005
C22DB 0.103 0.073 0.119 -0.039 -0.059 0.007
C23DB 0.075 0.066 0.093 -0.019 -0.039 0.012
C24DB 0.051 0.054 0.068 -0.015 -0.022 0.004
C25DB 0.042 0.053 0.071 -0.019 -0.016 0.003
C26DB 0.049 0.044 0.067 -0.013 -0.021 0.006
N8DB 0.048 0.064 0.072 -0.014 -0.027 -0.002
N10DB 0.05 0.062 0.061 -0.017 -0.012 0.023
C1GA 0.05 0.054 0.04 -0.007 0.003 -0.012
C2GA 0.052 0.062 0.054 -0.02 0.004 -0.012
C3GA 0.042 0.111 0.096 -0.053 0.018 -0.017
C4GA 0.048 0.152 0.086 -0.056 0.006 -0.034
C5GA 0.061 0.096 0.057 -0.033 0.002 -0.022
C7GA 0.078 0.061 0.086 -0.025 0.034 -0.034
C8GA 0.079 0.094 0.08 -0.032 0.041 -0.047
C9GA 0.084 0.071 0.069 -0.038 0.032 -0.029
C10GA 0.047 0.051 0.056 -0.011 0.015 -0.014
C11GA 0.044 0.043 0.048 -0.005 0.012 -0.001
C12GA 0.047 0.056 0.06 -0.024 0.016 -0.011
C13GA 0.049 0.092 0.066 -0.043 0.019 -0.028
C14GA 0.045 0.068 0.056 -0.02 0.016 -0.013
C15GA 0.039 0.095 0.081 -0.046 0.023 -0.021
C16GA 0.068 0.118 0.082 -0.054 0.034 -0.048
C17GA 0.132 0.192 0.111 -0.098 0.074 -0.119
C18GA 0.157 0.227 0.12 -0.119 0.089 -0.14
C19GA 0.143 0.184 0.112 -0.083 0.09 -0.111
C20GA 0.035 0.121 0.081 -0.002 -0.002 -0.011
Co2GA 0.0256 0.0627 0.0724 -0.0106 0 0
N1GA 0.047 0.062 0.043 -0.018 0.001 -0.009
N3GA 0.053 0.042 0.065 -0.009 0.021 -0.016
N4GA 0.054 0.061 0.056 -0.019 0.014 -0.014
N5GA 0.054 0.077 0.064 -0.033 0.024 -0.029
N6GA 0.052 0.089 0.077 -0.042 0.028 -0.03
N7GA 0.057 0.106 0.075 -0.04 0.031 -0.038
N9GA 0.038 0.07 0.082 -0.01 0.005 -0.012
S2GA 0.0758 0.354 0.0801 0.006 -0.0033 -0.052
C1XD 0.05 0.054 0.04 0.007 0.003 0.012
C2XD 0.052 0.062 0.054 0.02 0.004 0.012
C3XD 0.042 0.111 0.096 0.053 0.018 0.017
C4XD 0.048 0.152 0.086 0.056 0.006 0.034
C5XD 0.061 0.096 0.057 0.033 0.002 0.022
C7XD 0.078 0.061 0.086 0.025 0.034 0.034
C8XD 0.079 0.094 0.08 0.032 0.041 0.047
C9XD 0.084 0.071 0.069 0.038 0.032 0.029
C10XD 0.047 0.051 0.056 0.011 0.015 0.014
C11XD 0.044 0.043 0.048 0.005 0.012 0.001
C12XD 0.047 0.056 0.06 0.024 0.016 0.011
C13XD 0.049 0.092 0.066 0.043 0.019 0.028
C14XD 0.045 0.068 0.056 0.02 0.016 0.013
C15XD 0.039 0.095 0.081 0.046 0.023 0.021
C16XD 0.068 0.118 0.082 0.054 0.034 0.048
C17XD 0.132 0.192 0.111 0.098 0.074 0.119
C18XD 0.157 0.227 0.12 0.119 0.089 0.14
C19XD 0.143 0.184 0.112 0.083 0.09 0.111
N1XD 0.047 0.062 0.043 0.018 0.001 0.009
N3XD 0.053 0.042 0.065 0.009 0.021 0.016
N4XD 0.054 0.061 0.056 0.019 0.014 0.014
N5XD 0.054 0.077 0.064 0.033 0.024 0.029
N6XD 0.052 0.089 0.077 0.042 0.028 0.03
N7XD 0.057 0.106 0.075 0.04 0.031 0.038
C1HF 0.054 0.05 0.04 -0.003 -0.007 0.012
C2HF 0.062 0.052 0.054 -0.004 -0.02 0.012
C3HF 0.111 0.042 0.096 -0.018 -0.053 0.017
C4HF 0.152 0.048 0.086 -0.006 -0.056 0.034
C5HF 0.096 0.061 0.057 -0.002 -0.033 0.022
C7HF 0.061 0.078 0.086 -0.034 -0.025 0.034
C8HF 0.094 0.079 0.08 -0.041 -0.032 0.047
C9HF 0.071 0.084 0.069 -0.032 -0.038 0.029
C10HF 0.051 0.047 0.056 -0.015 -0.011 0.014
C11HF 0.043 0.044 0.048 -0.012 -0.005 0.001
C12HF 0.056 0.047 0.06 -0.016 -0.024 0.011
C13HF 0.092 0.049 0.066 -0.019 -0.043 0.028
C14HF 0.068 0.045 0.056 -0.016 -0.02 0.013
C15HF 0.095 0.039 0.081 -0.023 -0.046 0.021
C16HF 0.118 0.068 0.082 -0.034 -0.054 0.048
C17HF 0.192 0.132 0.111 -0.074 -0.098 0.119
C18HF 0.227 0.157 0.12 -0.089 -0.119 0.14
C19HF 0.184 0.143 0.112 -0.09 -0.083 0.111
N1HF 0.062 0.047 0.043 -0.001 -0.018 0.009
N3HF 0.042 0.053 0.065 -0.021 -0.009 0.016
N4HF 0.061 0.054 0.056 -0.014 -0.019 0.014
N5HF 0.077 0.054 0.064 -0.024 -0.033 0.029
N6HF 0.089 0.052 0.077 -0.028 -0.042 0.03
N7HF 0.106 0.057 0.075 -0.031 -0.04 0.038
C1FC 0.05 0.04 0.054 -0.007 -0.012 0.003
C2FC 0.052 0.054 0.062 -0.02 -0.012 0.004
C3FC 0.042 0.096 0.111 -0.053 -0.017 0.018
C4FC 0.048 0.086 0.152 -0.056 -0.034 0.006
C5FC 0.061 0.057 0.096 -0.033 -0.022 0.002
C7FC 0.078 0.086 0.061 -0.025 -0.034 0.034
C8FC 0.079 0.08 0.094 -0.032 -0.047 0.041
C9FC 0.084 0.069 0.071 -0.038 -0.029 0.032
C10FC 0.047 0.056 0.051 -0.011 -0.014 0.015
C11FC 0.044 0.048 0.043 -0.005 -0.001 0.012
C12FC 0.047 0.06 0.056 -0.024 -0.011 0.016
C13FC 0.049 0.066 0.092 -0.043 -0.028 0.019
C14FC 0.045 0.056 0.068 -0.02 -0.013 0.016
C15FC 0.039 0.081 0.095 -0.046 -0.021 0.023
C16FC 0.068 0.082 0.118 -0.054 -0.048 0.034
C17FC 0.132 0.111 0.192 -0.098 -0.119 0.074
C18FC 0.157 0.12 0.227 -0.119 -0.14 0.089
C19FC 0.143 0.112 0.184 -0.083 -0.111 0.09
N1FC 0.047 0.043 0.062 -0.018 -0.009 0.001
N3FC 0.053 0.065 0.042 -0.009 -0.016 0.021
N4FC 0.054 0.056 0.061 -0.019 -0.014 0.014
N5FC 0.054 0.064 0.077 -0.033 -0.029 0.024
N6FC 0.052 0.077 0.089 -0.042 -0.03 0.028
N7FC 0.057 0.075 0.106 -0.04 -0.038 0.031
C6FC 0.06 0.056 0.044 0.011 -0.007 -0.005
N2FC 0.053 0.047 0.034 0.006 -0.004 0.006
S1FC 0.0729 0.0841 0.1064 0.0364 -0.0196 0.0202
C6W 0.044 0.06 0.056 -0.005 -0.011 0.007
N2W 0.034 0.053 0.047 0.006 -0.006 0.004
S1W 0.1064 0.0729 0.0841 0.0202 -0.0364 0.0196
C20VB 0.081 0.035 0.121 -0.011 0.002 0.002
N9VB 0.082 0.038 0.07 -0.012 0.01 -0.005
S2VB 0.0801 0.0758 0.354 -0.052 -0.006 0.0033
C20G 0.121 0.081 0.035 0.002 0.011 -0.002
N9G 0.07 0.082 0.038 -0.005 0.012 -0.01
S2G 0.354 0.0801 0.0758 0.0033 0.052 0.006
C20EC 0.035 0.121 0.081 -0.002 0.002 0.011
N9EC 0.038 0.07 0.082 -0.01 -0.005 0.012
S2EC 0.0758 0.354 0.0801 0.006 0.0033 0.052
Co1RE 0.0262 0.0466 0.0466 0.0077 0.0043 -0.0043
C6RE 0.044 0.056 0.06 -0.005 0.007 -0.011
N2RE 0.034 0.047 0.053 0.006 0.004 -0.006
S1RE 0.1064 0.0841 0.0729 0.0202 0.0196 -0.0364
C6HG 0.044 0.06 0.056 -0.005 0.011 -0.007
N2HG 0.034 0.053 0.047 0.006 0.006 -0.004
S1HG 0.1064 0.0729 0.0841 0.0202 0.0364 -0.0196
Co1GA 0.0466 0.0262 0.0466 0.0043 0.0077 -0.0043
Co1XD 0.0466 0.0262 0.0466 -0.0043 0.0077 0.0043
Co1EE 0.0466 0.0466 0.0262 -0.0043 -0.0043 -0.0077
Co1FE 0.0466 0.0262 0.0466 -0.0043 -0.0077 -0.0043
Co1HF 0.0262 0.0466 0.0466 -0.0077 0.0043 0.0043
Co2J 0.0256 0.0627 0.0724 0.0106 0 0
Co2N 0.0256 0.0724 0.0627 -0.0106 0 0
Co2BB 0.0627 0.0724 0.0256 0 0 0.0106
Co2XD 0.0256 0.0627 0.0724 0.0106 0 0
Co2HF 0.0627 0.0256 0.0724 0 -0.0106 0
N1OA 0.043 0.062 0.047 0.009 -0.001 -0.018
N1QE 0.043 0.047 0.062 0.009 -0.018 -0.001
N1DG 0.043 0.062 0.047 0.009 0.001 0.018
N3W 0.042 0.053 0.065 0.021 0.009 0.016
N3RE 0.042 0.065 0.053 0.021 0.016 0.009
N3HG 0.042 0.053 0.065 0.021 -0.009 -0.016
N7G 0.106 0.075 0.057 -0.031 0.038 -0.04
N7VB 0.075 0.057 0.106 -0.038 0.04 -0.031
N7EC 0.057 0.106 0.075 -0.04 -0.031 0.038
N8G 0.064 0.072 0.048 0.027 -0.002 0.014
N8EC 0.048 0.064 0.072 0.014 0.027 -0.002
loop_
_geom_bond_atom_site_label_1
_geom_bond_atom_site_label_2
_geom_bond_site_symmetry_1
_geom_bond_site_symmetry_2
C1 H1 1_555 1_555
C2 C1 1_555 1_555
C3 C2 1_555 1_555
H2 C3 1_555 1_555
C4 C3 1_555 1_555
H3 C4 1_555 1_555
C5 C4 1_555 1_555
H4 C5 1_555 1_555
C6 N2 1_555 1_555
C7 H5 1_555 1_555
C8 C7 1_555 1_555
H6 C8 1_555 1_555
C9 C8 1_555 1_555
H7 C9 1_555 1_555
C10 C9 1_555 1_555
C11 C10 1_555 1_555
H8 C11 1_555 1_555
C12 C10 1_555 1_555
C13 C16 1_555 1_555
C14 C2 1_555 1_555
C15 H9 1_555 1_555
C16 C15 1_555 1_555
C17 C16 1_555 1_555
H10 C17 1_555 1_555
C18 C17 1_555 1_555
H11 C18 1_555 1_555
C19 C18 1_555 1_555
H12 C19 1_555 1_555
C20 N9 1_555 1_555
C21 H13 1_555 1_555
C22 C21 1_555 1_555
H14 C22 1_555 1_555
C23 C22 1_555 1_555
H15 C23 1_555 1_555
C24 C23 1_555 1_555
C25 C24 1_555 1_555
H16 C25 1_555 1_555
C26 C24 1_555 1_555
Co1 N2 1_555 1_555
Co2 N7 1_555 1_555
N1 C1 1_555 1_555
N3 C7 1_555 1_555
N4 C12 1_555 1_555
N5 C12 1_555 1_555
N6 C13 1_555 1_555
N7 C15 1_555 1_555
N8 C21 1_555 1_555
N9 Co2 1_555 1_555
N10 C26 1_555 1_555
S1 C6 1_555 1_555
S2 C20 1_555 1_555
C21GA H13GA 1_555 1_555
C22GA C21GA 1_555 1_555
H14GA C22GA 1_555 1_555
C23GA C22GA 1_555 1_555
H15GA C23GA 1_555 1_555
C24GA C23GA 1_555 1_555
C25GA C24GA 1_555 1_555
H16GA C25GA 1_555 1_555
C26GA N10 1_555 1_555
N8GA C21GA 1_555 1_555
N10GA C26GA 1_555 1_555
C21BB H13BB 1_555 1_555
C22BB C21BB 1_555 1_555
H14BB C22BB 1_555 1_555
C23BB C22BB 1_555 1_555
H15BB C23BB 1_555 1_555
C24BB C23BB 1_555 1_555
C25BB C24BB 1_555 1_555
H16BB C25BB 1_555 1_555
C26BB N10GA 1_555 1_555
N8BB C21BB 1_555 1_555
N10BB C26 1_555 1_555
C1CA H1CA 1_555 1_555
C2CA C1CA 1_555 1_555
C3CA C2CA 1_555 1_555
H2CA C3CA 1_555 1_555
C4CA C3CA 1_555 1_555
H3CA C4CA 1_555 1_555
C5CA C4CA 1_555 1_555
H4CA C5CA 1_555 1_555
C6CA N2CA 1_555 1_555
C7CA H5CA 1_555 1_555
C8CA C7CA 1_555 1_555
H6CA C8CA 1_555 1_555
C9CA C8CA 1_555 1_555
H7CA C9CA 1_555 1_555
C10CA C9CA 1_555 1_555
C11CA C10CA 1_555 1_555
H8CA C11CA 1_555 1_555
C12CA C10CA 1_555 1_555
C13CA C16CA 1_555 1_555
C14CA C2CA 1_555 1_555
C15CA H9CA 1_555 1_555
C16CA C15CA 1_555 1_555
C17CA C16CA 1_555 1_555
H10CA C17CA 1_555 1_555
C18CA C17CA 1_555 1_555
H11CA C18CA 1_555 1_555
C19CA C18CA 1_555 1_555
H12CA C19CA 1_555 1_555
C20CA N9CA 1_555 1_555
C21CA H13CA 1_555 1_555
C22CA C21CA 1_555 1_555
H14CA C22CA 1_555 1_555
C23CA C22CA 1_555 1_555
H15CA C23CA 1_555 1_555
C24CA C23CA 1_555 1_555
C25CA C24CA 1_555 1_555
H16CA C25CA 1_555 1_555
C26CA C24CA 1_555 1_555
Co1W N2CA 1_555 1_555
Co2G N7CA 1_555 1_555
N1CA C1CA 1_555 1_555
N3CA C7CA 1_555 1_555
N4CA C12CA 1_555 1_555
N5CA C12CA 1_555 1_555
N6CA C13CA 1_555 1_555
N7CA C15CA 1_555 1_555
N8CA C21CA 1_555 1_555
N9CA Co2G 1_555 1_555
N10CA C26CA 1_555 1_555
S1CA C6CA 1_555 1_555
S2CA C20CA 1_555 1_555
C21VB H13VB 1_555 1_555
C22VB C21VB 1_555 1_555
H14VB C22VB 1_555 1_555
C23VB C22VB 1_555 1_555
H15VB C23VB 1_555 1_555
C24VB C23VB 1_555 1_555
C25VB C24VB 1_555 1_555
H16VB C25VB 1_555 1_555
C26VB N10CA 1_555 1_555
N8VB Co2 1_555 1_555
N10VB C26VB 1_555 1_555
C21DB H13DB 1_555 1_555
C22DB C21DB 1_555 1_555
H14DB C22DB 1_555 1_555
C23DB C22DB 1_555 1_555
H15DB C23DB 1_555 1_555
C24DB C23DB 1_555 1_555
C25DB C24DB 1_555 1_555
H16DB C25DB 1_555 1_555
C26DB N10VB 1_555 1_555
N8DB C21DB 1_555 1_555
N10DB C26CA 1_555 1_555
C1GA H1GA 1_555 1_555
C2GA C1GA 1_555 1_555
C3GA C2GA 1_555 1_555
H2GA C3GA 1_555 1_555
C4GA C3GA 1_555 1_555
H3GA C4GA 1_555 1_555
C5GA C4GA 1_555 1_555
H4GA C5GA 1_555 1_555
C7GA H5GA 1_555 1_555
C8GA C7GA 1_555 1_555
H6GA C8GA 1_555 1_555
C9GA C8GA 1_555 1_555
H7GA C9GA 1_555 1_555
C10GA C9GA 1_555 1_555
C11GA C10GA 1_555 1_555
H8GA C11GA 1_555 1_555
C12GA C10GA 1_555 1_555
C13GA C16GA 1_555 1_555
C14GA C2GA 1_555 1_555
C15GA H9GA 1_555 1_555
C16GA C15GA 1_555 1_555
C17GA C16GA 1_555 1_555
H10GA C17GA 1_555 1_555
C18GA C17GA 1_555 1_555
H11GA C18GA 1_555 1_555
C19GA C18GA 1_555 1_555
H12GA C19GA 1_555 1_555
C20GA N9GA 1_555 1_555
Co2GA N8GA 1_555 1_555
N1GA C1GA 1_555 1_555
N3GA C7GA 1_555 1_555
N4GA C12GA 1_555 1_555
N5GA C12GA 1_555 1_555
N6GA C13GA 1_555 1_555
N7GA C15GA 1_555 1_555
N9GA Co2GA 1_555 1_555
S2GA C20GA 1_555 1_555
C1XD H1XD 1_555 1_555
C2XD C1XD 1_555 1_555
C3XD C2XD 1_555 1_555
H2XD C3XD 1_555 1_555
C4XD C3XD 1_555 1_555
H3XD C4XD 1_555 1_555
C5XD C4XD 1_555 1_555
H4XD C5XD 1_555 1_555
C7XD H5XD 1_555 1_555
C8XD C7XD 1_555 1_555
H6XD C8XD 1_555 1_555
C9XD C8XD 1_555 1_555
H7XD C9XD 1_555 1_555
C10XD C9XD 1_555 1_555
C11XD C10XD 1_555 1_555
H8XD C11XD 1_555 1_555
C12XD C10XD 1_555 1_555
C13XD C16XD 1_555 1_555
C14XD C2XD 1_555 1_555
C15XD H9XD 1_555 1_555
C16XD C15XD 1_555 1_555
C17XD C16XD 1_555 1_555
H10XD C17XD 1_555 1_555
C18XD C17XD 1_555 1_555
H11XD C18XD 1_555 1_555
C19XD C18XD 1_555 1_555
H12XD C19XD 1_555 1_555
N1XD Co1 1_555 1_555
N3XD C7XD 1_555 1_555
N4XD C12XD 1_555 1_555
N5XD C12XD 1_555 1_555
N6XD C13XD 1_555 1_555
N7XD C15XD 1_555 1_555
C1HF H1HF 1_555 1_555
C2HF C1HF 1_555 1_555
C3HF C2HF 1_555 1_555
H2HF C3HF 1_555 1_555
C4HF C3HF 1_555 1_555
H3HF C4HF 1_555 1_555
C5HF C4HF 1_555 1_555
H4HF C5HF 1_555 1_555
C7HF H5HF 1_555 1_555
C8HF C7HF 1_555 1_555
H6HF C8HF 1_555 1_555
C9HF C8HF 1_555 1_555
H7HF C9HF 1_555 1_555
C10HF C9HF 1_555 1_555
C11HF C10HF 1_555 1_555
H8HF C11HF 1_555 1_555
C12HF C10HF 1_555 1_555
C13HF C16HF 1_555 1_555
C14HF C2HF 1_555 1_555
C15HF H9HF 1_555 1_555
C16HF C15HF 1_555 1_555
C17HF C16HF 1_555 1_555
H10HF C17HF 1_555 1_555
C18HF C17HF 1_555 1_555
H11HF C18HF 1_555 1_555
C19HF C18HF 1_555 1_555
H12HF C19HF 1_555 1_555
N1HF Co1 1_555 1_555
N3HF C7HF 1_555 1_555
N4HF C12HF 1_555 1_555
N5HF C12HF 1_555 1_555
N6HF C13HF 1_555 1_555
N7HF C15HF 1_555 1_555
C1FC H1FC 1_555 1_555
C2FC C1FC 1_555 1_555
C3FC C2FC 1_555 1_555
H2FC C3FC 1_555 1_555
C4FC C3FC 1_555 1_555
H3FC C4FC 1_555 1_555
C5FC C4FC 1_555 1_555
H4FC C5FC 1_555 1_555
C7FC H5FC 1_555 1_555
C8FC C7FC 1_555 1_555
H6FC C8FC 1_555 1_555
C9FC C8FC 1_555 1_555
H7FC C9FC 1_555 1_555
C10FC C9FC 1_555 1_555
C11FC C10FC 1_555 1_555
H8FC C11FC 1_555 1_555
C12FC C10FC 1_555 1_555
C13FC C16FC 1_555 1_555
C14FC C2FC 1_555 1_555
C15FC H9FC 1_555 1_555
C16FC C15FC 1_555 1_555
C17FC C16FC 1_555 1_555
H10FC C17FC 1_555 1_555
C18FC C17FC 1_555 1_555
H11FC C18FC 1_555 1_555
C19FC C18FC 1_555 1_555
H12FC C19FC 1_555 1_555
N1FC C1FC 1_555 1_555
N3FC Co1 1_555 1_555
N4FC C12FC 1_555 1_555
N5FC C12FC 1_555 1_555
N6FC C13FC 1_555 1_555
N7FC C15FC 1_555 1_555
C6FC N2FC 1_555 1_555
N2FC Co1 1_555 1_555
S1FC C6FC 1_555 1_555
C6W N2W 1_555 1_555
N2W Co1W 1_555 1_555
S1W C6W 1_555 1_555
C20VB N9VB 1_555 1_555
N9VB Co2 1_555 1_555
S2VB C20VB 1_555 1_555
C20G N9G 1_555 1_555
N9G Co2G 1_555 1_555
S2G C20G 1_555 1_555
C20EC N9EC 1_555 1_555
N9EC Co2GA 1_555 1_555
S2EC C20EC 1_555 1_555
Co1RE N1 1_555 1_555
C6RE N2RE 1_555 1_555
N2RE Co1RE 1_555 1_555
S1RE C6RE 1_555 1_555
C6HG N2HG 1_555 1_555
N2HG Co1RE 1_555 1_555
S1HG C6HG 1_555 1_555
Co1GA N3GA 1_555 1_555
Co1XD N3XD 1_555 1_555
Co1EE N1GA 1_555 1_555
Co1FE N1CA 1_555 1_555
Co1HF N3HF 1_555 1_555
Co2J N8DB 1_555 1_555
Co2N N7FC 1_555 1_555
Co2BB N8BB 1_555 1_555
Co2XD N7XD 1_555 1_555
Co2HF N7HF 1_555 1_555
N1OA Co1RE 1_555 1_555
N1QE Co1W 1_555 1_555
N1DG Co1W 1_555 1_555
N3W Co1W 1_555 1_555
N3RE Co1RE 1_555 1_555
N3HG Co1RE 1_555 1_555
N7G Co2G 1_555 1_555
N7VB Co2 1_555 1_555
N7EC Co2GA 1_555 1_555
N8G Co2G 1_555 1_555
N8EC Co2GA 1_555 1_555
C5 N1 1_555 1_555
C11 N3 1_555 1_555
C13 N5 1_555 1_555
C14 N4 1_555 1_555
C14 N6 1_555 1_555
C19 N7 1_555 1_555
C25 N8 1_555 1_555
Co1 N3 1_555 1_555
Co2 N8 1_555 1_555
C24GA C26GA 1_555 1_555
C25GA N8GA 1_555 1_555
C24BB C26BB 1_555 1_555
C25BB N8BB 1_555 1_555
C26BB N10BB 1_555 1_555
C5CA N1CA 1_555 1_555
C11CA N3CA 1_555 1_555
C13CA N5CA 1_555 1_555
C14CA N4CA 1_555 1_555
C14CA N6CA 1_555 1_555
C19CA N7CA 1_555 1_555
C25CA N8CA 1_555 1_555
Co1W N3CA 1_555 1_555
Co2G N8CA 1_555 1_555
C21VB N8VB 1_555 1_555
C24VB C26VB 1_555 1_555
C25VB N8VB 1_555 1_555
C24DB C26DB 1_555 1_555
C25DB N8DB 1_555 1_555
C26DB N10DB 1_555 1_555
C5GA N1GA 1_555 1_555
C11GA N3GA 1_555 1_555
C13GA N5GA 1_555 1_555
C14GA N4GA 1_555 1_555
C14GA N6GA 1_555 1_555
C19GA N7GA 1_555 1_555
Co2GA N7GA 1_555 1_555
C1XD N1XD 1_555 1_555
C5XD N1XD 1_555 1_555
C11XD N3XD 1_555 1_555
C13XD N5XD 1_555 1_555
C14XD N4XD 1_555 1_555
C14XD N6XD 1_555 1_555
C19XD N7XD 1_555 1_555
C1HF N1HF 1_555 1_555
C5HF N1HF 1_555 1_555
C11HF N3HF 1_555 1_555
C13HF N5HF 1_555 1_555
C14HF N4HF 1_555 1_555
C14HF N6HF 1_555 1_555
C19HF N7HF 1_555 1_555
C5FC N1FC 1_555 1_555
C7FC N3FC 1_555 1_555
C11FC N3FC 1_555 1_555
C13FC N5FC 1_555 1_555
C14FC N4FC 1_555 1_555
C14FC N6FC 1_555 1_555
C19FC N7FC 1_555 1_555
N1FC Co1FE 1_555 1_555

#END
