
#######################################################################
#
#                 Cambridge Crystallographic Data Centre
#                                CCDC 
#
#######################################################################
#
# If this CIF has been generated from an entry in the Cambridge 
# Structural Database, then it will include bibliographic, chemical, 
# crystal, experimental, refinement or atomic coordinate data resulting 
# from the CCDC's data processing and validation procedures.
#
#######################################################################

data_RIVDEH
_chemical_formula_moiety         '(C160 H102 Co6 N60 O2 S12)n'
_symmetry_cell_setting           cubic
_symmetry_space_group_name_H-M   'F d -3 c'
_symmetry_Int_Tables_number      228
_space_group_name_Hall           '-F 4ud 2vw 3'
loop_
_symmetry_equiv_pos_site_id
_symmetry_equiv_pos_as_xyz
1 x,y,z
2 1/4-x,3/4-y,1/2+z
3 3/4-x,1/2+y,1/4-z
4 1/2+x,1/4-y,3/4-z
5 z,x,y
6 1/2+z,1/4-x,3/4-y
7 1/4-z,3/4-x,1/2+y
8 3/4-z,1/2+x,1/4-y
9 y,z,x
10 3/4-y,1/2+z,1/4-x
11 1/2+y,1/4-z,3/4-x
12 1/4-y,3/4-z,1/2+x
13 3/4+y,1/4+x,-z
14 1/2-y,1/2-x,1/2-z
15 1/4+y,-x,3/4+z
16 -y,3/4+x,1/4+z
17 3/4+x,1/4+z,-y
18 -x,3/4+z,1/4+y
19 1/2-x,1/2-z,1/2-y
20 1/4+x,-z,3/4+y
21 3/4+z,1/4+y,-x
22 1/4+z,-y,3/4+x
23 -z,3/4+y,1/4+x
24 1/2-z,1/2-y,1/2-x
25 x,1/2+y,1/2+z
26 1/4-x,1/4-y,z
27 3/4-x,y,3/4-z
28 1/2+x,3/4-y,1/4-z
29 z,1/2+x,1/2+y
30 1/2+z,3/4-x,1/4-y
31 1/4-z,1/4-x,y
32 3/4-z,x,3/4-y
33 y,1/2+z,1/2+x
34 3/4-y,z,3/4-x
35 1/2+y,3/4-z,1/4-x
36 1/4-y,1/4-z,x
37 3/4+y,3/4+x,1/2-z
38 1/2-y,-x,-z
39 1/4+y,1/2-x,1/4+z
40 -y,1/4+x,3/4+z
41 3/4+x,3/4+z,1/2-y
42 -x,1/4+z,3/4+y
43 1/2-x,-z,-y
44 1/4+x,1/2-z,1/4+y
45 3/4+z,3/4+y,1/2-x
46 1/4+z,1/2-y,1/4+x
47 -z,1/4+y,3/4+x
48 1/2-z,-y,-x
49 1/2+x,y,1/2+z
50 3/4-x,3/4-y,z
51 1/4-x,1/2+y,3/4-z
52 x,1/4-y,1/4-z
53 1/2+z,x,1/2+y
54 z,1/4-x,1/4-y
55 3/4-z,3/4-x,y
56 1/4-z,1/2+x,3/4-y
57 1/2+y,z,1/2+x
58 1/4-y,1/2+z,3/4-x
59 y,1/4-z,1/4-x
60 3/4-y,3/4-z,x
61 1/4+y,1/4+x,1/2-z
62 -y,1/2-x,-z
63 3/4+y,-x,1/4+z
64 1/2-y,3/4+x,3/4+z
65 1/4+x,1/4+z,1/2-y
66 1/2-x,3/4+z,3/4+y
67 -x,1/2-z,-y
68 3/4+x,-z,1/4+y
69 1/4+z,1/4+y,1/2-x
70 3/4+z,-y,1/4+x
71 1/2-z,3/4+y,3/4+x
72 -z,1/2-y,-x
73 1/2+x,1/2+y,z
74 3/4-x,1/4-y,1/2+z
75 1/4-x,y,1/4-z
76 x,3/4-y,3/4-z
77 1/2+z,1/2+x,y
78 z,3/4-x,3/4-y
79 3/4-z,1/4-x,1/2+y
80 1/4-z,x,1/4-y
81 1/2+y,1/2+z,x
82 1/4-y,z,1/4-x
83 y,3/4-z,3/4-x
84 3/4-y,1/4-z,1/2+x
85 1/4+y,3/4+x,-z
86 -y,-x,1/2-z
87 3/4+y,1/2-x,3/4+z
88 1/2-y,1/4+x,1/4+z
89 1/4+x,3/4+z,-y
90 1/2-x,1/4+z,1/4+y
91 -x,-z,1/2-y
92 3/4+x,1/2-z,3/4+y
93 1/4+z,3/4+y,-x
94 3/4+z,1/2-y,3/4+x
95 1/2-z,1/4+y,1/4+x
96 -z,-y,1/2-x
97 -x,-y,-z
98 3/4+x,1/4+y,1/2-z
99 1/4+x,1/2-y,3/4+z
100 1/2-x,3/4+y,1/4+z
101 -z,-x,-y
102 1/2-z,3/4+x,1/4+y
103 3/4+z,1/4+x,1/2-y
104 1/4+z,1/2-x,3/4+y
105 -y,-z,-x
106 1/4+y,1/2-z,3/4+x
107 1/2-y,3/4+z,1/4+x
108 3/4+y,1/4+z,1/2-x
109 1/4-y,3/4-x,z
110 1/2+y,1/2+x,1/2+z
111 3/4-y,x,1/4-z
112 y,1/4-x,3/4-z
113 1/4-x,3/4-z,y
114 x,1/4-z,3/4-y
115 1/2+x,1/2+z,1/2+y
116 3/4-x,z,1/4-y
117 1/4-z,3/4-y,x
118 3/4-z,y,1/4-x
119 z,1/4-y,3/4-x
120 1/2+z,1/2+y,1/2+x
121 -x,1/2-y,1/2-z
122 3/4+x,3/4+y,-z
123 1/4+x,-y,1/4+z
124 1/2-x,1/4+y,3/4+z
125 -z,1/2-x,1/2-y
126 1/2-z,1/4+x,3/4+y
127 3/4+z,3/4+x,-y
128 1/4+z,-x,1/4+y
129 -y,1/2-z,1/2-x
130 1/4+y,-z,1/4+x
131 1/2-y,1/4+z,3/4+x
132 3/4+y,3/4+z,-x
133 1/4-y,1/4-x,1/2+z
134 1/2+y,x,z
135 3/4-y,1/2+x,3/4-z
136 y,3/4-x,1/4-z
137 1/4-x,1/4-z,1/2+y
138 x,3/4-z,1/4-y
139 1/2+x,z,y
140 3/4-x,1/2+z,3/4-y
141 1/4-z,1/4-y,1/2+x
142 3/4-z,1/2+y,3/4-x
143 z,3/4-y,1/4-x
144 1/2+z,y,x
145 1/2-x,-y,1/2-z
146 1/4+x,1/4+y,-z
147 3/4+x,1/2-y,1/4+z
148 -x,3/4+y,3/4+z
149 1/2-z,-x,1/2-y
150 -z,3/4+x,3/4+y
151 1/4+z,1/4+x,-y
152 3/4+z,1/2-x,1/4+y
153 1/2-y,-z,1/2-x
154 3/4+y,1/2-z,1/4+x
155 -y,3/4+z,3/4+x
156 1/4+y,1/4+z,-x
157 3/4-y,3/4-x,1/2+z
158 y,1/2+x,z
159 1/4-y,x,3/4-z
160 1/2+y,1/4-x,1/4-z
161 3/4-x,3/4-z,1/2+y
162 1/2+x,1/4-z,1/4-y
163 x,1/2+z,y
164 1/4-x,z,3/4-y
165 3/4-z,3/4-y,1/2+x
166 1/4-z,y,3/4-x
167 1/2+z,1/4-y,1/4-x
168 z,1/2+y,x
169 1/2-x,1/2-y,-z
170 1/4+x,3/4+y,1/2-z
171 3/4+x,-y,3/4+z
172 -x,1/4+y,1/4+z
173 1/2-z,1/2-x,-y
174 -z,1/4+x,1/4+y
175 1/4+z,3/4+x,1/2-y
176 3/4+z,-x,3/4+y
177 1/2-y,1/2-z,-x
178 3/4+y,-z,3/4+x
179 -y,1/4+z,1/4+x
180 1/4+y,3/4+z,1/2-x
181 3/4-y,1/4-x,z
182 y,x,1/2+z
183 1/4-y,1/2+x,1/4-z
184 1/2+y,3/4-x,3/4-z
185 3/4-x,1/4-z,y
186 1/2+x,3/4-z,3/4-y
187 x,z,1/2+y
188 1/4-x,1/2+z,1/4-y
189 3/4-z,1/4-y,x
190 1/4-z,1/2+y,1/4-x
191 1/2+z,3/4-y,3/4-x
192 z,y,1/2+x
_cell_length_a                   63.897(19)
_cell_length_b                   63.897(19)
_cell_length_c                   63.897(19)
_cell_angle_alpha                90
_cell_angle_beta                 90
_cell_angle_gamma                90
_cell_volume                     260880
loop_
_atom_site_label
_atom_site_type_symbol
_atom_site_fract_x
_atom_site_fract_y
_atom_site_fract_z
_atom_site_U_iso_or_equiv
_atom_site_thermal_displace_type
C1 C 0.37258(14) 0.12906(13) 0.07397(12) 0.0717 Uani
H1 H 0.3765 0.1403 0.0650 0.0860 Uiso
O1 O 0.34624(11) 0.11373(13) 0.09225(14) 0.1180 Uani
C2 C 0.35213(16) 0.12687(16) 0.08042(18) 0.0977 Uani
C3 C 0.38693(15) 0.11521(16) 0.08048(17) 0.1003 Uani
H2 H 0.3829 0.1040 0.0894 0.1200 Uiso
H3 H 0.4011 0.1166 0.0761 0.1200 Uiso
O2 O 0.33870(15) 0.14243(14) 0.07173(16) 0.1423 Uani
C4 C 0.31896(18) 0.1425(3) 0.0744(3) 0.1627 Uani
H4 H 0.3129 0.1546 0.0672 0.2440 Uiso
H5 H 0.3159 0.1434 0.0894 0.2440 Uiso
H6 H 0.3130 0.1296 0.0687 0.2440 Uiso
C5 C 0.41105(8) 0.21878(7) 0.10084(8) 0.0327 Uani
H7 H 0.3983 0.2154 0.0940 0.0390 Uiso
C6 C 0.42845(8) 0.20684(8) 0.09633(9) 0.0383 Uani
C7 C 0.44733(9) 0.21194(10) 0.10600(11) 0.0567 Uani
H8 H 0.4596 0.2040 0.1034 0.0680 Uiso
C8 C 0.44760(9) 0.22884(10) 0.11944(12) 0.0600 Uani
H9 H 0.4602 0.2329 0.1261 0.0720 Uiso
C9 C 0.42924(9) 0.23985(10) 0.12310(10) 0.0500 Uani
H10 H 0.4296 0.2515 0.1323 0.0600 Uiso
C10 C 0.34302(8) 0.14828(8) -0.03121(8) 0.0337 Uani
C11 C 0.35863(9) 0.16482(9) 0.01534(9) 0.0447 Uani
H11 H 0.3477 0.1636 0.0053 0.0530 Uiso
C12 C 0.35944(11) 0.18264(10) 0.02795(10) 0.0560 Uani
H12 H 0.3489 0.1930 0.0269 0.0670 Uiso
C13 C 0.37551(9) 0.18501(10) 0.04177(10) 0.0507 Uani
H13 H 0.3765 0.1972 0.0502 0.0610 Uiso
C14 C 0.39057(8) 0.16906(8) 0.04333(8) 0.0360 Uani
C15 C 0.38826(7) 0.15169(8) 0.03065(8) 0.0297 Uani
H14 H 0.3983 0.1408 0.0318 0.0360 Uiso
C16 C 0.40791(8) 0.17038(8) 0.05847(8) 0.0363 Uani
C17 C 0.42619(8) 0.18823(8) 0.08270(9) 0.0360 Uani
C18 C 0.43553(8) 0.15570(8) 0.07422(9) 0.0357 Uani
C19 C 0.46242(7) 0.13725(9) 0.09565(8) 0.0363 Uani
H15 H 0.4628 0.1493 0.1044 0.0440 Uiso
C20 C 0.44878(8) 0.13729(9) 0.07836(9) 0.0403 Uani
C21 C 0.44790(9) 0.11928(9) 0.06601(10) 0.0480 Uani
H16 H 0.4388 0.1185 0.0543 0.0580 Uiso
C22 C 0.46063(11) 0.10256(10) 0.07141(11) 0.0580 Uani
H17 H 0.4603 0.0900 0.0634 0.0700 Uiso
C23 C 0.47377(9) 0.10415(9) 0.08842(10) 0.0493 Uani
H18 H 0.4825 0.0926 0.0918 0.0590 Uiso
C24 C 0.50126(9) 0.07496(12) 0.13009(12) 0.0540 Uani
C25 C 0.51760(10) 0.11136(12) 0.16707(11) 0.0610 Uani
H19 H 0.5073 0.1007 0.1659 0.0730 Uiso
C26 C 0.52925(12) 0.11214(13) 0.18473(12) 0.0747 Uani
H20 H 0.5266 0.1027 0.1959 0.0900 Uiso
C27 C 0.54519(13) 0.12702(12) 0.18645(12) 0.0777 Uani
H21 H 0.5537 0.1278 0.1986 0.0930 Uiso
C28 C 0.54822(9) 0.14067(10) 0.16989(10) 0.0483 Uani
C29 C 0.53496(8) 0.13923(9) 0.15259(8) 0.0387 Uani
H22 H 0.5367 0.1489 0.1414 0.0460 Uiso
C30 C 0.56433(9) 0.15696(10) 0.17061(9) 0.0463 Uani
Co1 Co 0.369519(11) 0.119519(11) 0.0000 0.0247 Uani
Co2 Co 0.497806(14) 0.1250 0.1250 0.0293 Uani
N1 N 0.41093(7) 0.23473(6) 0.11413(7) 0.0333 Uani
N2 N 0.35431(7) 0.13623(7) -0.02354(6) 0.0310 Uani
N3 N 0.37273(7) 0.14933(7) 0.01681(7) 0.0333 Uani
N4 N 0.42030(6) 0.15364(7) 0.06052(7) 0.0350 Uani
N5 N 0.40990(7) 0.18807(7) 0.06961(7) 0.0390 Uani
N6 N 0.43970(7) 0.17285(7) 0.08523(8) 0.0423 Uani
N7 N 0.47466(7) 0.12139(7) 0.10040(7) 0.0370 Uani
N8 N 0.49874(7) 0.09250(8) 0.12722(7) 0.0370 Uani
N9 N 0.52001(7) 0.12494(7) 0.15114(7) 0.0380 Uani
N10 N 0.56397(7) 0.17137(8) 0.15560(8) 0.0490 Uani
S1 S 0.32689(3) 0.16525(3) -0.04112(3) 0.0535 Uani
S2 S 0.50491(4) 0.05016(4) 0.13430(7) 0.1330 Uani
C25GA C 0.63864(12) 0.16707(11) 0.23240(10) 0.0610 Uani
H19GA H 0.6493 0.1659 0.2427 0.0730 Uiso
C26GA C 0.63786(13) 0.18473(12) 0.22075(12) 0.0747 Uani
H20GA H 0.6473 0.1959 0.2234 0.0900 Uiso
C27GA C 0.62298(12) 0.18645(12) 0.20481(13) 0.0777 Uani
H21GA H 0.6222 0.1986 0.1963 0.0930 Uiso
C28GA C 0.60933(10) 0.16989(10) 0.20178(9) 0.0483 Uani
C29GA C 0.61077(9) 0.15259(8) 0.21504(8) 0.0387 Uani
H22GA H 0.6011 0.1414 0.2133 0.0460 Uiso
C30GA C 0.59304(10) 0.17061(9) 0.18567(9) 0.0463 Uani
N9GA N 0.62506(7) 0.15114(7) 0.22999(7) 0.0380 Uani
N10GA N 0.57863(8) 0.15560(8) 0.18603(7) 0.0490 Uani
C25BB C 0.58293(11) 0.23240(10) 0.11136(12) 0.0610 Uani
H19BB H 0.5841 0.2427 0.1007 0.0730 Uiso
C26BB C 0.56527(12) 0.22075(12) 0.11214(13) 0.0747 Uani
H20BB H 0.5541 0.2234 0.1027 0.0900 Uiso
C27BB C 0.56355(12) 0.20481(13) 0.12702(12) 0.0777 Uani
H21BB H 0.5514 0.1963 0.1278 0.0930 Uiso
C28BB C 0.58011(10) 0.20178(9) 0.14067(10) 0.0483 Uani
C29BB C 0.59741(8) 0.21504(8) 0.13923(9) 0.0387 Uani
H22BB H 0.6086 0.2133 0.1489 0.0460 Uiso
C30BB C 0.57939(9) 0.18567(9) 0.15696(10) 0.0463 Uani
N9BB N 0.59886(7) 0.22999(7) 0.12494(7) 0.0380 Uani
N10BB N 0.59440(8) 0.18603(7) 0.17137(8) 0.0490 Uani
C5G C 0.64916(8) -0.08895(8) 0.03122(7) 0.0327 Uani
H7G H 0.6560 -0.1017 0.0346 0.0390 Uiso
C6G C 0.65367(9) -0.07155(8) 0.04316(8) 0.0383 Uani
C7G C 0.64400(11) -0.05267(9) 0.03806(10) 0.0567 Uani
H8G H 0.6466 -0.0404 0.0460 0.0680 Uiso
C8G C 0.63056(12) -0.05240(9) 0.02116(10) 0.0600 Uani
H9G H 0.6239 -0.0398 0.0171 0.0720 Uiso
C9G C 0.62690(10) -0.07076(9) 0.01015(10) 0.0500 Uani
H10G H 0.6177 -0.0704 -0.0015 0.0600 Uiso
C11G C 0.73466(9) -0.14137(9) 0.08518(9) 0.0447 Uani
H11G H 0.7447 -0.1523 0.0864 0.0530 Uiso
C12G C 0.72205(10) -0.14056(11) 0.06736(10) 0.0560 Uani
H12G H 0.7231 -0.1511 0.0570 0.0670 Uiso
C13G C 0.70823(10) -0.12449(9) 0.06499(10) 0.0507 Uani
H13G H 0.6998 -0.1235 0.0528 0.0610 Uiso
C14G C 0.70667(8) -0.10943(8) 0.08094(8) 0.0360 Uani
C15G C 0.71935(8) -0.11174(7) 0.09831(8) 0.0297 Uani
H14G H 0.7182 -0.1017 0.1092 0.0360 Uiso
C16G C 0.69153(8) -0.09209(8) 0.07962(8) 0.0363 Uani
C17G C 0.66730(9) -0.07381(8) 0.06177(8) 0.0360 Uani
C18G C 0.67578(9) -0.06447(8) 0.09430(8) 0.0357 Uani
C19G C 0.65435(8) -0.03758(7) 0.11275(9) 0.0363 Uani
H15G H 0.6456 -0.0372 0.1007 0.0440 Uiso
C20G C 0.67164(9) -0.05122(8) 0.11271(9) 0.0403 Uani
C21G C 0.68399(10) -0.05210(9) 0.13072(9) 0.0480 Uani
H16G H 0.6957 -0.0612 0.1315 0.0580 Uiso
C22G C 0.67859(11) -0.03937(11) 0.14744(10) 0.0580 Uani
H17G H 0.6866 -0.0397 0.1600 0.0700 Uiso
C23G C 0.66158(10) -0.02623(9) 0.14585(9) 0.0493 Uani
H18G H 0.6582 -0.0175 0.1574 0.0590 Uiso
C24G C 0.61991(12) 0.00126(9) 0.17504(12) 0.0540 Uani
C25G C 0.58293(11) 0.01760(10) 0.13864(12) 0.0610 Uani
H19G H 0.5841 0.0073 0.1493 0.0730 Uiso
C26G C 0.56527(12) 0.02925(12) 0.13786(13) 0.0747 Uani
H20G H 0.5541 0.0266 0.1473 0.0900 Uiso
C27G C 0.56355(12) 0.04519(13) 0.12298(12) 0.0777 Uani
H21G H 0.5514 0.0537 0.1222 0.0930 Uiso
C28G C 0.58011(10) 0.04822(9) 0.10933(10) 0.0483 Uani
C29G C 0.59741(8) 0.03496(8) 0.11077(9) 0.0387 Uani
H22G H 0.6086 0.0367 0.1011 0.0460 Uiso
C30G C 0.57939(9) 0.06433(9) 0.09304(10) 0.0463 Uani
Co2G Co 0.6250 -0.002194(14) 0.1250 0.0293 Uani
N1G N 0.63587(7) -0.08907(7) 0.01527(6) 0.0333 Uani
N3G N 0.73319(7) -0.12727(7) 0.10067(7) 0.0333 Uani
N4G N 0.68948(7) -0.07970(6) 0.09636(7) 0.0350 Uani
N5G N 0.68039(7) -0.09010(7) 0.06193(7) 0.0390 Uani
N6G N 0.66477(8) -0.06030(7) 0.07715(7) 0.0423 Uani
N7G N 0.64960(7) -0.02534(7) 0.12861(7) 0.0370 Uani
N8G N 0.62278(7) -0.00126(7) 0.15750(8) 0.0370 Uani
N9G N 0.59886(7) 0.02001(7) 0.12506(7) 0.0380 Uani
N10G N 0.59440(8) 0.06397(7) 0.07863(8) 0.0490 Uani
S2G S 0.61570(7) 0.00491(4) 0.19984(4) 0.1330 Uani
C25YA C 0.51760(10) 0.13864(12) 0.08293(11) 0.0610 Uani
H19YA H 0.5073 0.1493 0.0841 0.0730 Uiso
C26YA C 0.52925(12) 0.13786(13) 0.06527(12) 0.0747 Uani
H20YA H 0.5266 0.1473 0.0541 0.0900 Uiso
C27YA C 0.54519(13) 0.12298(12) 0.06355(12) 0.0777 Uani
H21YA H 0.5537 0.1222 0.0514 0.0930 Uiso
C28YA C 0.54822(9) 0.10933(10) 0.08011(10) 0.0483 Uani
C29YA C 0.53496(8) 0.11077(9) 0.09741(8) 0.0387 Uani
H22YA H 0.5367 0.1011 0.1086 0.0460 Uiso
C30YA C 0.56433(9) 0.09304(10) 0.07939(9) 0.0463 Uani
N9YA N 0.52001(7) 0.12506(7) 0.09886(7) 0.0380 Uani
N10YA N 0.56397(7) 0.07863(8) 0.09440(8) 0.0490 Uani
C25EC C 0.63864(12) 0.08293(11) 0.01760(10) 0.0610 Uani
H19EC H 0.6493 0.0841 0.0073 0.0730 Uiso
C26EC C 0.63786(13) 0.06527(12) 0.02925(12) 0.0747 Uani
H20EC H 0.6473 0.0541 0.0266 0.0900 Uiso
C27EC C 0.62298(12) 0.06355(12) 0.04519(13) 0.0777 Uani
H21EC H 0.6222 0.0514 0.0537 0.0930 Uiso
C28EC C 0.60933(10) 0.08011(10) 0.04822(9) 0.0483 Uani
C29EC C 0.61077(9) 0.09741(8) 0.03496(8) 0.0387 Uani
H22EC H 0.6011 0.1086 0.0367 0.0460 Uiso
C30EC C 0.59304(10) 0.07939(9) 0.06433(9) 0.0463 Uani
N9EC N 0.62506(7) 0.09886(7) 0.02001(7) 0.0380 Uani
N10EC N 0.57863(8) 0.09440(8) 0.06397(7) 0.0490 Uani
C5J C 0.71878(7) 0.14916(8) 0.33895(8) 0.0327 Uani
H7J H 0.7154 0.1560 0.3517 0.0390 Uiso
C6J C 0.70684(8) 0.15367(9) 0.32155(8) 0.0383 Uani
C7J C 0.71194(10) 0.14400(11) 0.30267(9) 0.0567 Uani
H8J H 0.7040 0.1466 0.2904 0.0680 Uiso
C8J C 0.72884(10) 0.13056(12) 0.30240(9) 0.0600 Uani
H9J H 0.7329 0.1239 0.2898 0.0720 Uiso
C9J C 0.73985(10) 0.12690(10) 0.32076(9) 0.0500 Uani
H10J H 0.7515 0.1177 0.3204 0.0600 Uiso
C11J C 0.66482(9) 0.23466(9) 0.39137(9) 0.0447 Uani
H11J H 0.6636 0.2447 0.4023 0.0530 Uiso
C12J C 0.68264(10) 0.22205(10) 0.39056(11) 0.0560 Uani
H12J H 0.6930 0.2231 0.4011 0.0670 Uiso
C13J C 0.68501(10) 0.20823(10) 0.37449(9) 0.0507 Uani
H13J H 0.6972 0.1998 0.3735 0.0610 Uiso
C14J C 0.66906(8) 0.20667(8) 0.35943(8) 0.0360 Uani
C15J C 0.65169(8) 0.21935(8) 0.36174(7) 0.0297 Uani
H14J H 0.6408 0.2182 0.3517 0.0360 Uiso
C16J C 0.67038(8) 0.19153(8) 0.34209(8) 0.0363 Uani
C17J C 0.68823(8) 0.16730(9) 0.32381(8) 0.0360 Uani
C18J C 0.65570(8) 0.17578(9) 0.31447(8) 0.0357 Uani
C19J C 0.63725(9) 0.15435(8) 0.28758(7) 0.0363 Uani
H15J H 0.6493 0.1456 0.2872 0.0440 Uiso
C20J C 0.63729(9) 0.17164(9) 0.30122(8) 0.0403 Uani
C21J C 0.61928(9) 0.18399(10) 0.30210(9) 0.0480 Uani
H16J H 0.6185 0.1957 0.3112 0.0580 Uiso
C22J C 0.60256(10) 0.17859(11) 0.28937(11) 0.0580 Uani
H17J H 0.5900 0.1866 0.2897 0.0700 Uiso
C23J C 0.60415(9) 0.16158(10) 0.27623(9) 0.0493 Uani
H18J H 0.5926 0.1582 0.2675 0.0590 Uiso
C24J C 0.57496(12) 0.11991(12) 0.24874(9) 0.0540 Uani
Co2J Co 0.6250 0.1250 0.252194(14) 0.0293 Uani
N1J N 0.73473(6) 0.13587(7) 0.33907(7) 0.0333 Uani
N3J N 0.64933(7) 0.23319(7) 0.37727(7) 0.0333 Uani
N4J N 0.65364(7) 0.18948(7) 0.32970(6) 0.0350 Uani
N5J N 0.68807(7) 0.18039(7) 0.34010(7) 0.0390 Uani
N6J N 0.67285(7) 0.16477(8) 0.31030(7) 0.0423 Uani
N7J N 0.62139(7) 0.14960(7) 0.27534(7) 0.0370 Uani
N8J N 0.59250(8) 0.12278(7) 0.25126(7) 0.0370 Uani
S2J S 0.55016(4) 0.11570(7) 0.24509(4) 0.1330 Uani
C5GA C 0.53122(7) 0.10084(8) 0.33895(8) 0.0327 Uani
H7GA H 0.5346 0.0940 0.3517 0.0390 Uiso
C6GA C 0.54316(8) 0.09633(9) 0.32155(8) 0.0383 Uani
C7GA C 0.53806(10) 0.10600(11) 0.30267(9) 0.0567 Uani
H8GA H 0.5460 0.1034 0.2904 0.0680 Uiso
C8GA C 0.52116(10) 0.11944(12) 0.30240(9) 0.0600 Uani
H9GA H 0.5171 0.1261 0.2898 0.0720 Uiso
C9GA C 0.51015(10) 0.12310(10) 0.32076(9) 0.0500 Uani
H10GA H 0.4985 0.1323 0.3204 0.0600 Uiso
C11GA C 0.58518(9) 0.01534(9) 0.39137(9) 0.0447 Uani
H11GA H 0.5864 0.0053 0.4023 0.0530 Uiso
C12GA C 0.56736(10) 0.02795(10) 0.39056(11) 0.0560 Uani
H12GA H 0.5570 0.0269 0.4011 0.0670 Uiso
C13GA C 0.56499(10) 0.04177(10) 0.37449(9) 0.0507 Uani
H13GA H 0.5528 0.0502 0.3735 0.0610 Uiso
C14GA C 0.58094(8) 0.04333(8) 0.35943(8) 0.0360 Uani
C15GA C 0.59831(8) 0.03065(8) 0.36174(7) 0.0297 Uani
H14GA H 0.6092 0.0318 0.3517 0.0360 Uiso
C16GA C 0.57962(8) 0.05847(8) 0.34209(8) 0.0363 Uani
C17GA C 0.56177(8) 0.08270(9) 0.32381(8) 0.0360 Uani
C18GA C 0.59430(8) 0.07422(9) 0.31447(8) 0.0357 Uani
C19GA C 0.61275(9) 0.09565(8) 0.28758(7) 0.0363 Uani
H15GA H 0.6007 0.1044 0.2872 0.0440 Uiso
C20GA C 0.61271(9) 0.07836(9) 0.30122(8) 0.0403 Uani
C21GA C 0.63072(9) 0.06601(10) 0.30210(9) 0.0480 Uani
H16GA H 0.6315 0.0543 0.3112 0.0580 Uiso
C22GA C 0.64744(10) 0.07141(11) 0.28937(11) 0.0580 Uani
H17GA H 0.6600 0.0634 0.2897 0.0700 Uiso
C23GA C 0.64585(9) 0.08842(10) 0.27623(9) 0.0493 Uani
H18GA H 0.6574 0.0918 0.2675 0.0590 Uiso
C24GA C 0.67504(12) 0.13009(12) 0.24874(9) 0.0540 Uani
N1GA N 0.51527(6) 0.11413(7) 0.33907(7) 0.0333 Uani
N3GA N 0.60067(7) 0.01681(7) 0.37727(7) 0.0333 Uani
N4GA N 0.59636(7) 0.06052(7) 0.32970(6) 0.0350 Uani
N5GA N 0.56193(7) 0.06961(7) 0.34010(7) 0.0390 Uani
N6GA N 0.57715(7) 0.08523(8) 0.31030(7) 0.0423 Uani
N7GA N 0.62861(7) 0.10040(7) 0.27534(7) 0.0370 Uani
N8GA N 0.65750(8) 0.12722(7) 0.25126(7) 0.0370 Uani
S2GA S 0.69984(4) 0.13430(7) 0.24509(4) 0.1330 Uani
C5YC C 0.35084(8) 0.08895(8) -0.03122(7) 0.0327 Uani
H7YC H 0.3440 0.1017 -0.0346 0.0390 Uiso
C6YC C 0.34633(9) 0.07155(8) -0.04316(8) 0.0383 Uani
C7YC C 0.35600(11) 0.05267(9) -0.03806(10) 0.0567 Uani
H8YC H 0.3534 0.0404 -0.0460 0.0680 Uiso
C8YC C 0.36944(12) 0.05240(9) -0.02116(10) 0.0600 Uani
H9YC H 0.3761 0.0398 -0.0171 0.0720 Uiso
C9YC C 0.37310(10) 0.07076(9) -0.01015(10) 0.0500 Uani
H10YC H 0.3823 0.0704 0.0015 0.0600 Uiso
C10YC C 0.21879(8) 0.15698(8) -0.10172(8) 0.0337 Uani
C11YC C 0.26534(9) 0.14137(9) -0.08518(9) 0.0447 Uani
H11YC H 0.2553 0.1523 -0.0864 0.0530 Uiso
C12YC C 0.27795(10) 0.14056(11) -0.06736(10) 0.0560 Uani
H12YC H 0.2769 0.1511 -0.0570 0.0670 Uiso
C13YC C 0.29177(10) 0.12449(9) -0.06499(10) 0.0507 Uani
H13YC H 0.3002 0.1235 -0.0528 0.0610 Uiso
C14YC C 0.29333(8) 0.10943(8) -0.08094(8) 0.0360 Uani
C15YC C 0.28065(8) 0.11174(7) -0.09831(8) 0.0297 Uani
H14YC H 0.2818 0.1017 -0.1092 0.0360 Uiso
C16YC C 0.30847(8) 0.09209(8) -0.07962(8) 0.0363 Uani
C17YC C 0.33270(9) 0.07381(8) -0.06177(8) 0.0360 Uani
C18YC C 0.32422(9) 0.06447(8) -0.09430(8) 0.0357 Uani
C19YC C 0.34565(8) 0.03758(7) -0.11275(9) 0.0363 Uani
H15YC H 0.3544 0.0372 -0.1007 0.0440 Uiso
C20YC C 0.32836(9) 0.05122(8) -0.11271(9) 0.0403 Uani
C21YC C 0.31601(10) 0.05210(9) -0.13072(9) 0.0480 Uani
H16YC H 0.3043 0.0612 -0.1315 0.0580 Uiso
C22YC C 0.32141(11) 0.03937(11) -0.14744(10) 0.0580 Uani
H17YC H 0.3134 0.0397 -0.1600 0.0700 Uiso
C23YC C 0.33842(10) 0.02623(9) -0.14585(9) 0.0493 Uani
H18YC H 0.3418 0.0175 -0.1574 0.0590 Uiso
Co1YC Co 0.2500 0.130481(11) -0.130481(11) 0.0247 Uani
N1YC N 0.36413(7) 0.08907(7) -0.01527(6) 0.0333 Uani
N2YC N 0.22646(6) 0.14569(7) -0.11377(7) 0.0310 Uani
N3YC N 0.26681(7) 0.12727(7) -0.10067(7) 0.0333 Uani
N4YC N 0.31052(7) 0.07970(6) -0.09636(7) 0.0350 Uani
N5YC N 0.31961(7) 0.09010(7) -0.06193(7) 0.0390 Uani
N6YC N 0.33523(8) 0.06030(7) -0.07715(7) 0.0423 Uani
N7YC N 0.35040(7) 0.02534(7) -0.12861(7) 0.0370 Uani
S1YC S 0.20888(3) 0.17311(3) -0.08475(3) 0.0535 Uani
C5KD C 0.33895(8) 0.10084(8) 0.03122(7) 0.0327 Uani
H7KD H 0.3517 0.0940 0.0346 0.0390 Uiso
C6KD C 0.32155(8) 0.09633(9) 0.04316(8) 0.0383 Uani
C7KD C 0.30267(9) 0.10600(11) 0.03806(10) 0.0567 Uani
H8KD H 0.2904 0.1034 0.0460 0.0680 Uiso
C8KD C 0.30240(9) 0.11944(12) 0.02116(10) 0.0600 Uani
H9KD H 0.2898 0.1261 0.0171 0.0720 Uiso
C9KD C 0.32076(9) 0.12310(10) 0.01015(10) 0.0500 Uani
H10KD H 0.3204 0.1323 -0.0015 0.0600 Uiso
C11KD C 0.39137(9) 0.01534(9) 0.08518(9) 0.0447 Uani
H11KD H 0.4023 0.0053 0.0864 0.0530 Uiso
C12KD C 0.39056(11) 0.02795(10) 0.06736(10) 0.0560 Uani
H12KD H 0.4011 0.0269 0.0570 0.0670 Uiso
C13KD C 0.37449(9) 0.04177(10) 0.06499(10) 0.0507 Uani
H13KD H 0.3735 0.0502 0.0528 0.0610 Uiso
C14KD C 0.35943(8) 0.04333(8) 0.08094(8) 0.0360 Uani
C15KD C 0.36174(7) 0.03065(8) 0.09831(8) 0.0297 Uani
H14KD H 0.3517 0.0318 0.1092 0.0360 Uiso
C16KD C 0.34209(8) 0.05847(8) 0.07962(8) 0.0363 Uani
C17KD C 0.32381(8) 0.08270(9) 0.06177(8) 0.0360 Uani
C18KD C 0.31447(8) 0.07422(9) 0.09430(8) 0.0357 Uani
C19KD C 0.28758(7) 0.09565(8) 0.11275(9) 0.0363 Uani
H15KD H 0.2872 0.1044 0.1007 0.0440 Uiso
C20KD C 0.30122(8) 0.07836(9) 0.11271(9) 0.0403 Uani
C21KD C 0.30210(9) 0.06601(10) 0.13072(9) 0.0480 Uani
H16KD H 0.3112 0.0543 0.1315 0.0580 Uiso
C22KD C 0.28937(11) 0.07141(11) 0.14744(10) 0.0580 Uani
H17KD H 0.2897 0.0634 0.1600 0.0700 Uiso
C23KD C 0.27623(9) 0.08842(10) 0.14585(9) 0.0493 Uani
H18KD H 0.2675 0.0918 0.1574 0.0590 Uiso
N1KD N 0.33907(7) 0.11413(7) 0.01527(6) 0.0333 Uani
N3KD N 0.37727(7) 0.01681(7) 0.10067(7) 0.0333 Uani
N4KD N 0.32970(6) 0.06052(7) 0.09636(7) 0.0350 Uani
N5KD N 0.34010(7) 0.06961(7) 0.06193(7) 0.0390 Uani
N6KD N 0.31030(7) 0.08523(8) 0.07715(7) 0.0423 Uani
N7KD N 0.27534(7) 0.10040(7) 0.12861(7) 0.0370 Uani
C10FC C 0.39828(8) 0.09302(8) 0.03121(8) 0.0337 Uani
N2FC N 0.38623(7) 0.10431(7) 0.02354(6) 0.0310 Uani
S1FC S 0.41525(3) 0.07689(3) 0.04112(3) 0.0535 Uani
C24YA C 0.50126(9) 0.17504(12) 0.11991(12) 0.0540 Uani
N8YA N 0.49874(7) 0.15750(8) 0.12278(7) 0.0370 Uani
S2YA S 0.50491(4) 0.19984(4) 0.11570(7) 0.1330 Uani
C24XB C 0.63009(12) 0.00126(9) 0.07496(12) 0.0540 Uani
N8XB N 0.62722(7) -0.00126(7) 0.09250(8) 0.0370 Uani
S2XB S 0.63430(7) 0.00491(4) 0.05016(4) 0.1330 Uani
Co1ZD Co 0.380481(11) 0.2500 0.119519(11) 0.0247 Uani
C10JE C 0.28121(8) 0.10172(8) -0.15698(8) 0.0337 Uani
N2JE N 0.27354(6) 0.11377(7) -0.14569(7) 0.0310 Uani
S1JE S 0.29112(3) 0.08475(3) -0.17311(3) 0.0535 Uani
C10ZD C 0.35172(8) 0.21879(8) 0.09302(8) 0.0337 Uani
N2ZD N 0.36377(7) 0.22646(6) 0.10431(7) 0.0310 Uani
S1ZD S 0.33475(3) 0.20888(3) 0.07689(3) 0.0535 Uani
C10BG C 0.40698(8) 0.28121(8) 0.14828(8) 0.0337 Uani
N2BG N 0.39569(7) 0.27354(6) 0.13623(7) 0.0310 Uani
S1BG S 0.42311(3) 0.29112(3) 0.16525(3) 0.0535 Uani
Co1G Co 0.7500 -0.130481(11) 0.130481(11) 0.0247 Uani
Co1J Co 0.619519(11) 0.2500 0.380481(11) 0.0247 Uani
Co1GA Co 0.630481(11) 0.0000 0.380481(11) 0.0247 Uani
Co1RC Co 0.630481(11) -0.119519(11) 0.0000 0.0247 Uani
Co1WC Co 0.5000 0.119519(11) 0.369519(11) 0.0247 Uani
Co1KD Co 0.380481(11) 0.0000 0.130481(11) 0.0247 Uani
Co1UE Co 0.7500 0.130481(11) 0.369519(11) 0.0247 Uani
Co2CA Co 0.6250 0.252194(14) 0.1250 0.0293 Uani
Co2DB Co 0.6250 0.1250 -0.002194(14) 0.0293 Uani
Co2YC Co 0.3750 0.002194(14) -0.1250 0.0293 Uani
Co2KD Co 0.252194(14) 0.1250 0.1250 0.0293 Uani
N1W N 0.38587(7) 0.26527(6) 0.08907(7) 0.0333 Uani
N1FB N 0.23473(6) 0.13587(7) -0.16093(7) 0.0333 Uani
N1KB N 0.26527(6) 0.16093(7) -0.13587(7) 0.0333 Uani
N3FC N 0.39933(7) 0.12273(7) -0.01681(7) 0.0333 Uani
N3ZD N 0.35067(7) 0.26681(7) 0.12273(7) 0.0333 Uani
N3JE N 0.23319(7) 0.10067(7) -0.12727(7) 0.0333 Uani
N3BG N 0.37727(7) 0.23319(7) 0.14933(7) 0.0333 Uani
N7YA N 0.47466(7) 0.12861(7) 0.14960(7) 0.0370 Uani
N7XB N 0.60040(7) -0.02534(7) 0.12139(7) 0.0370 Uani
N9J N 0.62494(7) 0.09886(7) 0.22999(7) 0.0380 Uani
N9XB N 0.65114(7) 0.02001(7) 0.12494(7) 0.0380 Uani
loop_
_atom_site_aniso_label
_atom_site_aniso_U_11
_atom_site_aniso_U_22
_atom_site_aniso_U_33
_atom_site_aniso_U_23
_atom_site_aniso_U_13
_atom_site_aniso_U_12
C1 0.126(5) 0.046(4) 0.043(4) 0.004(3) -0.015(4) 0.009(4)
O1 0.094(5) 0.104(6) 0.156(8) -0.014(4) 0.003(5) -0.014(4)
C2 0.121(5) 0.068(5) 0.104(6) -0.029(4) -0.026(5) 0.001(4)
C3 0.131(7) 0.079(6) 0.091(7) 0.019(5) 0.002(6) 0.031(6)
O2 0.150(6) 0.123(6) 0.154(7) -0.028(5) -0.022(6) 0.039(5)
C4 0.152(7) 0.155(12) 0.181(13) -0.061(10) -0.016(10) 0.063(9)
C5 0.032 0.027 0.039 -0.005 -0.009 0.003
C6 0.035 0.035 0.045 -0.014 -0.005 0.004
C7 0.035 0.056 0.079 -0.03 -0.021 0.015
C8 0.035 0.053 0.092 -0.034 -0.024 0.008
C9 0.039 0.046 0.065 -0.022 -0.015 0
C10 0.033(3) 0.031(3) 0.037(3) 0.007(2) -0.006(2) 0.001(2)
C11 0.042(3) 0.050(3) 0.042(3) -0.012(3) -0.017(2) 0.019(3)
C12 0.060(4) 0.049(4) 0.059(4) -0.024(3) -0.027(3) 0.031(3)
C13 0.051(4) 0.045(3) 0.056(4) -0.021(3) -0.022(3) 0.022(3)
C14 0.035(3) 0.035(3) 0.038(3) -0.012(2) -0.011(2) 0.012(2)
C15 0.027(2) 0.032(3) 0.030(3) -0.0046(19) -0.0079(19) 0.0076(19)
C16 0.037(3) 0.032(3) 0.040(3) -0.015(2) -0.011(2) 0.013(2)
C17 0.028(2) 0.035(3) 0.045(3) -0.012(2) -0.008(2) 0.008(2)
C18 0.026(2) 0.037(3) 0.044(3) -0.019(2) -0.009(2) 0.009(2)
C19 0.022(2) 0.044(3) 0.043(3) -0.016(2) -0.008(2) 0.011(2)
C20 0.030(3) 0.041(3) 0.050(3) -0.017(2) -0.011(2) 0.011(2)
C21 0.049(3) 0.044(3) 0.051(4) -0.023(3) -0.022(3) 0.016(3)
C22 0.061(4) 0.045(3) 0.068(4) -0.026(3) -0.023(3) 0.020(3)
C23 0.045(3) 0.043(3) 0.060(4) -0.015(3) -0.011(3) 0.021(3)
C24 0.023(3) 0.057(4) 0.082(5) 0.008(3) 0.015(3) 0.001(3)
C25 0.049(4) 0.078(5) 0.056(4) 0.033(3) -0.013(3) -0.037(3)
C26 0.075(5) 0.085(5) 0.064(4) 0.048(4) -0.031(4) -0.055(4)
C27 0.083(5) 0.087(5) 0.063(5) 0.043(4) -0.040(4) -0.056(4)
C28 0.036(3) 0.060(4) 0.049(3) 0.023(3) -0.019(2) -0.022(3)
C29 0.027(3) 0.051(3) 0.038(3) 0.020(2) -0.010(2) -0.013(2)
C30 0.044(3) 0.055(3) 0.040(3) 0.023(3) -0.020(2) -0.024(3)
Co1 0.0283(4) 0.0283(4) 0.0174(5) 0.0038(2) -0.0038(2) 0.0041(4)
Co2 0.0178(5) 0.0365(6) 0.0336(6) 0.0003(4) 0.000 0.000
N1 0.034 0.028 0.038 -0.0078 -0.0059 -0.0025
N2 0.037(2) 0.032(2) 0.024(2) 0.0043(16) -0.0030(17) 0.0013(18)
N3 0.036(2) 0.035(2) 0.029(2) -0.0021(18) -0.0113(17) 0.0084(18)
N4 0.031(2) 0.034(2) 0.040(2) -0.0130(18) -0.0126(18) 0.0099(18)
N5 0.036(2) 0.038(2) 0.043(3) -0.013(2) -0.0104(19) 0.0105(19)
N6 0.029(2) 0.040(3) 0.058(3) -0.021(2) -0.011(2) 0.0113(18)
N7 0.028(2) 0.041(3) 0.042(3) -0.0110(19) -0.0062(18) 0.0107(18)
N8 0.029(2) 0.038(3) 0.044(3) 0.003(2) 0.0031(18) 0.0023(18)
N9 0.028(2) 0.041(3) 0.045(3) 0.016(2) -0.0082(19) -0.0157(18)
N10 0.045(3) 0.047(3) 0.055(3) 0.029(2) -0.027(2) -0.022(2)
S1 0.0460(9) 0.0521(10) 0.0624(10) 0.0220(8) -0.0131(7) 0.0138(7)
S2 0.0556(13) 0.0513(13) 0.292(5) 0.0521(19) 0.059(2) 0.0156(10)
C25GA 0.078 0.056 0.049 0.013 -0.037 -0.033
C26GA 0.085 0.064 0.075 0.031 -0.055 -0.048
C27GA 0.087 0.063 0.083 0.04 -0.056 -0.043
C28GA 0.06 0.049 0.036 0.019 -0.022 -0.023
C29GA 0.051 0.038 0.027 0.01 -0.013 -0.02
C30GA 0.055 0.04 0.044 0.02 -0.024 -0.023
N9GA 0.041 0.045 0.028 0.0082 -0.0157 -0.016
N10GA 0.047 0.055 0.045 0.027 -0.022 -0.029
C25BB 0.056 0.049 0.078 0.037 -0.033 -0.013
C26BB 0.064 0.075 0.085 0.055 -0.048 -0.031
C27BB 0.063 0.083 0.087 0.056 -0.043 -0.04
C28BB 0.049 0.036 0.06 0.022 -0.023 -0.019
C29BB 0.038 0.027 0.051 0.013 -0.02 -0.01
C30BB 0.04 0.044 0.055 0.024 -0.023 -0.02
N9BB 0.045 0.028 0.041 0.0157 -0.016 -0.0082
N10BB 0.055 0.045 0.047 0.022 -0.029 -0.027
C5G 0.039 0.032 0.027 -0.003 -0.005 0.009
C6G 0.045 0.035 0.035 -0.004 -0.014 0.005
C7G 0.079 0.035 0.056 -0.015 -0.03 0.021
C8G 0.092 0.035 0.053 -0.008 -0.034 0.024
C9G 0.065 0.039 0.046 0 -0.022 0.015
C11G 0.042 0.042 0.05 -0.019 -0.012 0.017
C12G 0.059 0.06 0.049 -0.031 -0.024 0.027
C13G 0.056 0.051 0.045 -0.022 -0.021 0.022
C14G 0.038 0.035 0.035 -0.012 -0.012 0.011
C15G 0.03 0.027 0.032 -0.0076 -0.0046 0.0079
C16G 0.04 0.037 0.032 -0.013 -0.015 0.011
C17G 0.045 0.028 0.035 -0.008 -0.012 0.008
C18G 0.044 0.026 0.037 -0.009 -0.019 0.009
C19G 0.043 0.022 0.044 -0.011 -0.016 0.008
C20G 0.05 0.03 0.041 -0.011 -0.017 0.011
C21G 0.051 0.049 0.044 -0.016 -0.023 0.022
C22G 0.068 0.061 0.045 -0.02 -0.026 0.023
C23G 0.06 0.045 0.043 -0.021 -0.015 0.011
C24G 0.082 0.023 0.057 -0.001 0.008 -0.015
C25G 0.056 0.049 0.078 0.037 0.033 0.013
C26G 0.064 0.075 0.085 0.055 0.048 0.031
C27G 0.063 0.083 0.087 0.056 0.043 0.04
C28G 0.049 0.036 0.06 0.022 0.023 0.019
C29G 0.038 0.027 0.051 0.013 0.02 0.01
C30G 0.04 0.044 0.055 0.024 0.023 0.02
Co2G 0.0336 0.0178 0.0365 0 0.0003 0
N1G 0.038 0.034 0.028 0.0025 -0.0078 0.0059
N3G 0.029 0.036 0.035 -0.0084 -0.0021 0.0113
N4G 0.04 0.031 0.034 -0.0099 -0.013 0.0126
N5G 0.043 0.036 0.038 -0.0105 -0.013 0.0104
N6G 0.058 0.029 0.04 -0.0113 -0.021 0.011
N7G 0.042 0.028 0.041 -0.0107 -0.011 0.0062
N8G 0.044 0.029 0.038 -0.0023 0.003 -0.0031
N9G 0.045 0.028 0.041 0.0157 0.016 0.0082
N10G 0.055 0.045 0.047 0.022 0.029 0.027
S2G 0.292 0.0556 0.0513 -0.0156 0.0521 -0.059
C25YA 0.049 0.078 0.056 0.033 0.013 0.037
C26YA 0.075 0.085 0.064 0.048 0.031 0.055
C27YA 0.083 0.087 0.063 0.043 0.04 0.056
C28YA 0.036 0.06 0.049 0.023 0.019 0.022
C29YA 0.027 0.051 0.038 0.02 0.01 0.013
C30YA 0.044 0.055 0.04 0.023 0.02 0.024
N9YA 0.028 0.041 0.045 0.016 0.0082 0.0157
N10YA 0.045 0.047 0.055 0.029 0.027 0.022
C25EC 0.078 0.056 0.049 0.013 0.037 0.033
C26EC 0.085 0.064 0.075 0.031 0.055 0.048
C27EC 0.087 0.063 0.083 0.04 0.056 0.043
C28EC 0.06 0.049 0.036 0.019 0.022 0.023
C29EC 0.051 0.038 0.027 0.01 0.013 0.02
C30EC 0.055 0.04 0.044 0.02 0.024 0.023
N9EC 0.041 0.045 0.028 0.0082 0.0157 0.016
N10EC 0.047 0.055 0.045 0.027 0.022 0.029
C5J 0.027 0.039 0.032 -0.009 -0.003 0.005
C6J 0.035 0.045 0.035 -0.005 -0.004 0.014
C7J 0.056 0.079 0.035 -0.021 -0.015 0.03
C8J 0.053 0.092 0.035 -0.024 -0.008 0.034
C9J 0.046 0.065 0.039 -0.015 0 0.022
C11J 0.05 0.042 0.042 -0.017 -0.019 0.012
C12J 0.049 0.059 0.06 -0.027 -0.031 0.024
C13J 0.045 0.056 0.051 -0.022 -0.022 0.021
C14J 0.035 0.038 0.035 -0.011 -0.012 0.012
C15J 0.032 0.03 0.027 -0.0079 -0.0076 0.0046
C16J 0.032 0.04 0.037 -0.011 -0.013 0.015
C17J 0.035 0.045 0.028 -0.008 -0.008 0.012
C18J 0.037 0.044 0.026 -0.009 -0.009 0.019
C19J 0.044 0.043 0.022 -0.008 -0.011 0.016
C20J 0.041 0.05 0.03 -0.011 -0.011 0.017
C21J 0.044 0.051 0.049 -0.022 -0.016 0.023
C22J 0.045 0.068 0.061 -0.023 -0.02 0.026
C23J 0.043 0.06 0.045 -0.011 -0.021 0.015
C24J 0.057 0.082 0.023 0.015 -0.001 -0.008
Co2J 0.0365 0.0336 0.0178 0 0 -0.0003
N1J 0.028 0.038 0.034 -0.0059 0.0025 0.0078
N3J 0.035 0.029 0.036 -0.0113 -0.0084 0.0021
N4J 0.034 0.04 0.031 -0.0126 -0.0099 0.013
N5J 0.038 0.043 0.036 -0.0104 -0.0105 0.013
N6J 0.04 0.058 0.029 -0.011 -0.0113 0.021
N7J 0.041 0.042 0.028 -0.0062 -0.0107 0.011
N8J 0.038 0.044 0.029 0.0031 -0.0023 -0.003
S2J 0.0513 0.292 0.0556 0.059 -0.0156 -0.0521
C5GA 0.027 0.039 0.032 0.009 0.003 0.005
C6GA 0.035 0.045 0.035 0.005 0.004 0.014
C7GA 0.056 0.079 0.035 0.021 0.015 0.03
C8GA 0.053 0.092 0.035 0.024 0.008 0.034
C9GA 0.046 0.065 0.039 0.015 0 0.022
C11GA 0.05 0.042 0.042 0.017 0.019 0.012
C12GA 0.049 0.059 0.06 0.027 0.031 0.024
C13GA 0.045 0.056 0.051 0.022 0.022 0.021
C14GA 0.035 0.038 0.035 0.011 0.012 0.012
C15GA 0.032 0.03 0.027 0.0079 0.0076 0.0046
C16GA 0.032 0.04 0.037 0.011 0.013 0.015
C17GA 0.035 0.045 0.028 0.008 0.008 0.012
C18GA 0.037 0.044 0.026 0.009 0.009 0.019
C19GA 0.044 0.043 0.022 0.008 0.011 0.016
C20GA 0.041 0.05 0.03 0.011 0.011 0.017
C21GA 0.044 0.051 0.049 0.022 0.016 0.023
C22GA 0.045 0.068 0.061 0.023 0.02 0.026
C23GA 0.043 0.06 0.045 0.011 0.021 0.015
C24GA 0.057 0.082 0.023 -0.015 0.001 -0.008
N1GA 0.028 0.038 0.034 0.0059 -0.0025 0.0078
N3GA 0.035 0.029 0.036 0.0113 0.0084 0.0021
N4GA 0.034 0.04 0.031 0.0126 0.0099 0.013
N5GA 0.038 0.043 0.036 0.0104 0.0105 0.013
N6GA 0.04 0.058 0.029 0.011 0.0113 0.021
N7GA 0.041 0.042 0.028 0.0062 0.0107 0.011
N8GA 0.038 0.044 0.029 -0.0031 0.0023 -0.003
S2GA 0.0513 0.292 0.0556 -0.059 0.0156 -0.0521
C5YC 0.039 0.032 0.027 -0.003 -0.005 0.009
C6YC 0.045 0.035 0.035 -0.004 -0.014 0.005
C7YC 0.079 0.035 0.056 -0.015 -0.03 0.021
C8YC 0.092 0.035 0.053 -0.008 -0.034 0.024
C9YC 0.065 0.039 0.046 0 -0.022 0.015
C10YC 0.037 0.033 0.031 -0.001 0.007 0.006
C11YC 0.042 0.042 0.05 -0.019 -0.012 0.017
C12YC 0.059 0.06 0.049 -0.031 -0.024 0.027
C13YC 0.056 0.051 0.045 -0.022 -0.021 0.022
C14YC 0.038 0.035 0.035 -0.012 -0.012 0.011
C15YC 0.03 0.027 0.032 -0.0076 -0.0046 0.0079
C16YC 0.04 0.037 0.032 -0.013 -0.015 0.011
C17YC 0.045 0.028 0.035 -0.008 -0.012 0.008
C18YC 0.044 0.026 0.037 -0.009 -0.019 0.009
C19YC 0.043 0.022 0.044 -0.011 -0.016 0.008
C20YC 0.05 0.03 0.041 -0.011 -0.017 0.011
C21YC 0.051 0.049 0.044 -0.016 -0.023 0.022
C22YC 0.068 0.061 0.045 -0.02 -0.026 0.023
C23YC 0.06 0.045 0.043 -0.021 -0.015 0.011
Co1YC 0.0174 0.0283 0.0283 -0.0041 0.0038 0.0038
N1YC 0.038 0.034 0.028 0.0025 -0.0078 0.0059
N2YC 0.024 0.037 0.032 -0.0013 0.0043 0.003
N3YC 0.029 0.036 0.035 -0.0084 -0.0021 0.0113
N4YC 0.04 0.031 0.034 -0.0099 -0.013 0.0126
N5YC 0.043 0.036 0.038 -0.0105 -0.013 0.0104
N6YC 0.058 0.029 0.04 -0.0113 -0.021 0.011
N7YC 0.042 0.028 0.041 -0.0107 -0.011 0.0062
S1YC 0.0624 0.046 0.0521 -0.0138 0.022 0.0131
C5KD 0.032 0.039 0.027 0.005 0.003 0.009
C6KD 0.035 0.045 0.035 0.014 0.004 0.005
C7KD 0.035 0.079 0.056 0.03 0.015 0.021
C8KD 0.035 0.092 0.053 0.034 0.008 0.024
C9KD 0.039 0.065 0.046 0.022 0 0.015
C11KD 0.042 0.042 0.05 0.012 0.019 0.017
C12KD 0.06 0.059 0.049 0.024 0.031 0.027
C13KD 0.051 0.056 0.045 0.021 0.022 0.022
C14KD 0.035 0.038 0.035 0.012 0.012 0.011
C15KD 0.027 0.03 0.032 0.0046 0.0076 0.0079
C16KD 0.037 0.04 0.032 0.015 0.013 0.011
C17KD 0.028 0.045 0.035 0.012 0.008 0.008
C18KD 0.026 0.044 0.037 0.019 0.009 0.009
C19KD 0.022 0.043 0.044 0.016 0.011 0.008
C20KD 0.03 0.05 0.041 0.017 0.011 0.011
C21KD 0.049 0.051 0.044 0.023 0.016 0.022
C22KD 0.061 0.068 0.045 0.026 0.02 0.023
C23KD 0.045 0.06 0.043 0.015 0.021 0.011
N1KD 0.034 0.038 0.028 0.0078 -0.0025 0.0059
N3KD 0.036 0.029 0.035 0.0021 0.0084 0.0113
N4KD 0.031 0.04 0.034 0.013 0.0099 0.0126
N5KD 0.036 0.043 0.038 0.013 0.0105 0.0104
N6KD 0.029 0.058 0.04 0.021 0.0113 0.011
N7KD 0.028 0.042 0.041 0.011 0.0107 0.0062
C10FC 0.031 0.033 0.037 0.006 -0.007 0.001
N2FC 0.032 0.037 0.024 0.003 -0.0043 0.0013
S1FC 0.0521 0.046 0.0624 0.0131 -0.022 0.0138
C24YA 0.023 0.057 0.082 0.008 -0.015 -0.001
N8YA 0.029 0.038 0.044 0.003 -0.0031 -0.0023
S2YA 0.0556 0.0513 0.292 0.0521 -0.059 -0.0156
C24XB 0.082 0.023 0.057 0.001 0.008 0.015
N8XB 0.044 0.029 0.038 0.0023 0.003 0.0031
S2XB 0.292 0.0556 0.0513 0.0156 0.0521 0.059
Co1ZD 0.0283 0.0174 0.0283 -0.0038 -0.0041 -0.0038
C10JE 0.037 0.031 0.033 -0.001 0.006 0.007
N2JE 0.024 0.032 0.037 -0.0013 0.003 0.0043
S1JE 0.0624 0.0521 0.046 -0.0138 0.0131 0.022
C10ZD 0.031 0.037 0.033 -0.006 -0.001 -0.007
N2ZD 0.032 0.024 0.037 -0.003 -0.0013 -0.0043
S1ZD 0.0521 0.0624 0.046 -0.0131 -0.0138 -0.022
C10BG 0.033 0.037 0.031 -0.007 -0.001 -0.006
N2BG 0.037 0.024 0.032 -0.0043 -0.0013 -0.003
S1BG 0.046 0.0624 0.0521 -0.022 -0.0138 -0.0131
Co1G 0.0174 0.0283 0.0283 -0.0041 0.0038 0.0038
Co1J 0.0283 0.0174 0.0283 -0.0038 -0.0041 -0.0038
Co1GA 0.0283 0.0174 0.0283 0.0038 0.0041 -0.0038
Co1RC 0.0283 0.0283 0.0174 0.0038 -0.0038 0.0041
Co1WC 0.0174 0.0283 0.0283 0.0041 -0.0038 0.0038
Co1KD 0.0283 0.0174 0.0283 -0.0038 0.0041 0.0038
Co1UE 0.0174 0.0283 0.0283 -0.0041 0.0038 0.0038
Co2CA 0.0336 0.0178 0.0365 0 -0.0003 0
Co2DB 0.0365 0.0336 0.0178 0 0 0.0003
Co2YC 0.0336 0.0178 0.0365 0 0.0003 0
Co2KD 0.0178 0.0336 0.0365 -0.0003 0 0
N1W 0.038 0.028 0.034 -0.0025 -0.0059 -0.0078
N1FB 0.028 0.038 0.034 -0.0059 0.0025 0.0078
N1KB 0.028 0.034 0.038 -0.0059 0.0078 0.0025
N3FC 0.035 0.036 0.029 0.0113 0.0021 0.0084
N3ZD 0.035 0.029 0.036 -0.0113 -0.0084 0.0021
N3JE 0.029 0.035 0.036 -0.0084 0.0113 -0.0021
N3BG 0.036 0.029 0.035 0.0021 -0.0084 -0.0113
N7YA 0.028 0.041 0.042 -0.011 0.0062 -0.0107
N7XB 0.042 0.028 0.041 0.0107 -0.011 -0.0062
N9J 0.041 0.045 0.028 -0.0082 0.0157 -0.016
N9XB 0.045 0.028 0.041 -0.0157 0.016 -0.0082
loop_
_geom_bond_atom_site_label_1
_geom_bond_atom_site_label_2
_geom_bond_site_symmetry_1
_geom_bond_site_symmetry_2
C1 H1 1_555 1_555
O1 C2 1_555 1_555
C2 C1 1_555 1_555
C3 C1 1_555 1_555
H2 C3 1_555 1_555
H3 C3 1_555 1_555
O2 C2 1_555 1_555
C4 O2 1_555 1_555
H4 C4 1_555 1_555
H5 C4 1_555 1_555
H6 C4 1_555 1_555
C5 H7 1_555 1_555
C6 C5 1_555 1_555
C7 C6 1_555 1_555
H8 C7 1_555 1_555
C8 C7 1_555 1_555
H9 C8 1_555 1_555
C9 C8 1_555 1_555
H10 C9 1_555 1_555
C10 N2 1_555 1_555
C11 H11 1_555 1_555
C12 C11 1_555 1_555
H12 C12 1_555 1_555
C13 C12 1_555 1_555
H13 C13 1_555 1_555
C14 C13 1_555 1_555
C15 C14 1_555 1_555
H14 C15 1_555 1_555
C16 C14 1_555 1_555
C17 C6 1_555 1_555
C18 C20 1_555 1_555
C19 H15 1_555 1_555
C20 C19 1_555 1_555
C21 C20 1_555 1_555
H16 C21 1_555 1_555
C22 C21 1_555 1_555
H17 C22 1_555 1_555
C23 C22 1_555 1_555
H18 C23 1_555 1_555
C24 N8 1_555 1_555
C25 H19 1_555 1_555
C26 C25 1_555 1_555
H20 C26 1_555 1_555
C27 C26 1_555 1_555
H21 C27 1_555 1_555
C28 C27 1_555 1_555
C29 C28 1_555 1_555
H22 C29 1_555 1_555
C30 C28 1_555 1_555
Co1 N2 1_555 1_555
Co2 N7 1_555 1_555
N1 C5 1_555 1_555
N3 C11 1_555 1_555
N4 C16 1_555 1_555
N5 C16 1_555 1_555
N6 C17 1_555 1_555
N7 C19 1_555 1_555
N8 Co2 1_555 1_555
N9 C25 1_555 1_555
N10 C30 1_555 1_555
S1 C10 1_555 1_555
S2 C24 1_555 1_555
C25GA H19GA 1_555 1_555
C26GA C25GA 1_555 1_555
H20GA C26GA 1_555 1_555
C27GA C26GA 1_555 1_555
H21GA C27GA 1_555 1_555
C28GA C27GA 1_555 1_555
C29GA C28GA 1_555 1_555
H22GA C29GA 1_555 1_555
C30GA C28GA 1_555 1_555
N9GA C25GA 1_555 1_555
N10GA C30 1_555 1_555
C25BB H19BB 1_555 1_555
C26BB C25BB 1_555 1_555
H20BB C26BB 1_555 1_555
C27BB C26BB 1_555 1_555
H21BB C27BB 1_555 1_555
C28BB C27BB 1_555 1_555
C29BB C28BB 1_555 1_555
H22BB C29BB 1_555 1_555
C30BB N10 1_555 1_555
N9BB C25BB 1_555 1_555
N10BB C30GA 1_555 1_555
C5G H7G 1_555 1_555
C6G C5G 1_555 1_555
C7G C6G 1_555 1_555
H8G C7G 1_555 1_555
C8G C7G 1_555 1_555
H9G C8G 1_555 1_555
C9G C8G 1_555 1_555
H10G C9G 1_555 1_555
C11G H11G 1_555 1_555
C12G C11G 1_555 1_555
H12G C12G 1_555 1_555
C13G C12G 1_555 1_555
H13G C13G 1_555 1_555
C14G C13G 1_555 1_555
C15G C14G 1_555 1_555
H14G C15G 1_555 1_555
C16G C14G 1_555 1_555
C17G C6G 1_555 1_555
C18G C20G 1_555 1_555
C19G H15G 1_555 1_555
C20G C19G 1_555 1_555
C21G C20G 1_555 1_555
H16G C21G 1_555 1_555
C22G C21G 1_555 1_555
H17G C22G 1_555 1_555
C23G C22G 1_555 1_555
H18G C23G 1_555 1_555
C24G N8G 1_555 1_555
C25G H19G 1_555 1_555
C26G C25G 1_555 1_555
H20G C26G 1_555 1_555
C27G C26G 1_555 1_555
H21G C27G 1_555 1_555
C28G C27G 1_555 1_555
C29G C28G 1_555 1_555
H22G C29G 1_555 1_555
C30G C28G 1_555 1_555
Co2G N7G 1_555 1_555
N1G C5G 1_555 1_555
N3G C11G 1_555 1_555
N4G C16G 1_555 1_555
N5G C16G 1_555 1_555
N6G C17G 1_555 1_555
N7G C19G 1_555 1_555
N8G Co2G 1_555 1_555
N9G C25G 1_555 1_555
N10G C30G 1_555 1_555
S2G C24G 1_555 1_555
C25YA H19YA 1_555 1_555
C26YA C25YA 1_555 1_555
H20YA C26YA 1_555 1_555
C27YA C26YA 1_555 1_555
H21YA C27YA 1_555 1_555
C28YA C27YA 1_555 1_555
C29YA C28YA 1_555 1_555
H22YA C29YA 1_555 1_555
C30YA C28YA 1_555 1_555
N9YA Co2 1_555 1_555
N10YA C30G 1_555 1_555
C25EC H19EC 1_555 1_555
C26EC C25EC 1_555 1_555
H20EC C26EC 1_555 1_555
C27EC C26EC 1_555 1_555
H21EC C27EC 1_555 1_555
C28EC C27EC 1_555 1_555
C29EC C28EC 1_555 1_555
H22EC C29EC 1_555 1_555
C30EC N10G 1_555 1_555
N9EC C25EC 1_555 1_555
N10EC C30YA 1_555 1_555
C5J H7J 1_555 1_555
C6J C5J 1_555 1_555
C7J C6J 1_555 1_555
H8J C7J 1_555 1_555
C8J C7J 1_555 1_555
H9J C8J 1_555 1_555
C9J C8J 1_555 1_555
H10J C9J 1_555 1_555
C11J H11J 1_555 1_555
C12J C11J 1_555 1_555
H12J C12J 1_555 1_555
C13J C12J 1_555 1_555
H13J C13J 1_555 1_555
C14J C13J 1_555 1_555
C15J C14J 1_555 1_555
H14J C15J 1_555 1_555
C16J C14J 1_555 1_555
C17J C6J 1_555 1_555
C18J C20J 1_555 1_555
C19J H15J 1_555 1_555
C20J C19J 1_555 1_555
C21J C20J 1_555 1_555
H16J C21J 1_555 1_555
C22J C21J 1_555 1_555
H17J C22J 1_555 1_555
C23J C22J 1_555 1_555
H18J C23J 1_555 1_555
C24J N8J 1_555 1_555
Co2J N9GA 1_555 1_555
N1J C5J 1_555 1_555
N3J C11J 1_555 1_555
N4J C16J 1_555 1_555
N5J C16J 1_555 1_555
N6J C17J 1_555 1_555
N7J C19J 1_555 1_555
N8J Co2J 1_555 1_555
S2J C24J 1_555 1_555
C5GA H7GA 1_555 1_555
C6GA C5GA 1_555 1_555
C7GA C6GA 1_555 1_555
H8GA C7GA 1_555 1_555
C8GA C7GA 1_555 1_555
H9GA C8GA 1_555 1_555
C9GA C8GA 1_555 1_555
H10GA C9GA 1_555 1_555
C11GA H11GA 1_555 1_555
C12GA C11GA 1_555 1_555
H12GA C12GA 1_555 1_555
C13GA C12GA 1_555 1_555
H13GA C13GA 1_555 1_555
C14GA C13GA 1_555 1_555
C15GA C14GA 1_555 1_555
H14GA C15GA 1_555 1_555
C16GA C14GA 1_555 1_555
C17GA C6GA 1_555 1_555
C18GA C20GA 1_555 1_555
C19GA H15GA 1_555 1_555
C20GA C19GA 1_555 1_555
C21GA C20GA 1_555 1_555
H16GA C21GA 1_555 1_555
C22GA C21GA 1_555 1_555
H17GA C22GA 1_555 1_555
C23GA C22GA 1_555 1_555
H18GA C23GA 1_555 1_555
C24GA N8GA 1_555 1_555
N1GA C5GA 1_555 1_555
N3GA C11GA 1_555 1_555
N4GA C16GA 1_555 1_555
N5GA C16GA 1_555 1_555
N6GA C17GA 1_555 1_555
N7GA Co2J 1_555 1_555
N8GA Co2J 1_555 1_555
S2GA C24GA 1_555 1_555
C5YC H7YC 1_555 1_555
C6YC C5YC 1_555 1_555
C7YC C6YC 1_555 1_555
H8YC C7YC 1_555 1_555
C8YC C7YC 1_555 1_555
H9YC C8YC 1_555 1_555
C9YC C8YC 1_555 1_555
H10YC C9YC 1_555 1_555
C10YC N2YC 1_555 1_555
C11YC H11YC 1_555 1_555
C12YC C11YC 1_555 1_555
H12YC C12YC 1_555 1_555
C13YC C12YC 1_555 1_555
H13YC C13YC 1_555 1_555
C14YC C13YC 1_555 1_555
C15YC C14YC 1_555 1_555
H14YC C15YC 1_555 1_555
C16YC C14YC 1_555 1_555
C17YC C6YC 1_555 1_555
C18YC C20YC 1_555 1_555
C19YC H15YC 1_555 1_555
C20YC C19YC 1_555 1_555
C21YC C20YC 1_555 1_555
H16YC C21YC 1_555 1_555
C22YC C21YC 1_555 1_555
H17YC C22YC 1_555 1_555
C23YC C22YC 1_555 1_555
H18YC C23YC 1_555 1_555
Co1YC N2YC 1_555 1_555
N1YC Co1 1_555 1_555
N3YC C11YC 1_555 1_555
N4YC C16YC 1_555 1_555
N5YC C16YC 1_555 1_555
N6YC C17YC 1_555 1_555
N7YC C19YC 1_555 1_555
S1YC C10YC 1_555 1_555
C5KD H7KD 1_555 1_555
C6KD C5KD 1_555 1_555
C7KD C6KD 1_555 1_555
H8KD C7KD 1_555 1_555
C8KD C7KD 1_555 1_555
H9KD C8KD 1_555 1_555
C9KD C8KD 1_555 1_555
H10KD C9KD 1_555 1_555
C11KD H11KD 1_555 1_555
C12KD C11KD 1_555 1_555
H12KD C12KD 1_555 1_555
C13KD C12KD 1_555 1_555
H13KD C13KD 1_555 1_555
C14KD C13KD 1_555 1_555
C15KD C14KD 1_555 1_555
H14KD C15KD 1_555 1_555
C16KD C14KD 1_555 1_555
C17KD C6KD 1_555 1_555
C18KD C20KD 1_555 1_555
C19KD H15KD 1_555 1_555
C20KD C19KD 1_555 1_555
C21KD C20KD 1_555 1_555
H16KD C21KD 1_555 1_555
C22KD C21KD 1_555 1_555
H17KD C22KD 1_555 1_555
C23KD C22KD 1_555 1_555
H18KD C23KD 1_555 1_555
N1KD Co1 1_555 1_555
N3KD C11KD 1_555 1_555
N4KD C16KD 1_555 1_555
N5KD C16KD 1_555 1_555
N6KD C17KD 1_555 1_555
N7KD C19KD 1_555 1_555
C10FC N2FC 1_555 1_555
N2FC Co1 1_555 1_555
S1FC C10FC 1_555 1_555
C24YA N8YA 1_555 1_555
N8YA Co2 1_555 1_555
S2YA C24YA 1_555 1_555
C24XB N8XB 1_555 1_555
N8XB Co2G 1_555 1_555
S2XB C24XB 1_555 1_555
Co1ZD N1 1_555 1_555
C10JE N2JE 1_555 1_555
N2JE Co1YC 1_555 1_555
S1JE C10JE 1_555 1_555
C10ZD N2ZD 1_555 1_555
N2ZD Co1ZD 1_555 1_555
S1ZD C10ZD 1_555 1_555
C10BG N2BG 1_555 1_555
N2BG Co1ZD 1_555 1_555
S1BG C10BG 1_555 1_555
Co1G N3G 1_555 1_555
Co1J N3J 1_555 1_555
Co1GA N3GA 1_555 1_555
Co1RC N1G 1_555 1_555
Co1WC N1GA 1_555 1_555
Co1KD N3KD 1_555 1_555
Co1UE N1J 1_555 1_555
Co2CA N9BB 1_555 1_555
Co2DB N9EC 1_555 1_555
Co2YC N7YC 1_555 1_555
Co2KD N7KD 1_555 1_555
N1W Co1ZD 1_555 1_555
N1FB Co1YC 1_555 1_555
N1KB Co1YC 1_555 1_555
N3FC Co1 1_555 1_555
N3ZD Co1ZD 1_555 1_555
N3JE Co1YC 1_555 1_555
N3BG Co1ZD 1_555 1_555
N7YA Co2 1_555 1_555
N7XB Co2G 1_555 1_555
N9J Co2J 1_555 1_555
N9XB Co2G 1_555 1_555
C9 N1 1_555 1_555
C15 N3 1_555 1_555
C17 N5 1_555 1_555
C18 N4 1_555 1_555
C18 N6 1_555 1_555
C23 N7 1_555 1_555
C29 N9 1_555 1_555
Co1 N3 1_555 1_555
Co2 N9 1_555 1_555
C29GA N9GA 1_555 1_555
C30GA N10GA 1_555 1_555
C28BB C30BB 1_555 1_555
C29BB N9BB 1_555 1_555
C30BB N10BB 1_555 1_555
C9G N1G 1_555 1_555
C15G N3G 1_555 1_555
C17G N5G 1_555 1_555
C18G N4G 1_555 1_555
C18G N6G 1_555 1_555
C23G N7G 1_555 1_555
C29G N9G 1_555 1_555
Co2G N9G 1_555 1_555
C25YA N9YA 1_555 1_555
C29YA N9YA 1_555 1_555
C30YA N10YA 1_555 1_555
C28EC C30EC 1_555 1_555
C29EC N9EC 1_555 1_555
C30EC N10EC 1_555 1_555
C9J N1J 1_555 1_555
C15J N3J 1_555 1_555
C17J N5J 1_555 1_555
C18J N4J 1_555 1_555
C18J N6J 1_555 1_555
C23J N7J 1_555 1_555
Co2J N7J 1_555 1_555
C9GA N1GA 1_555 1_555
C15GA N3GA 1_555 1_555
C17GA N5GA 1_555 1_555
C18GA N4GA 1_555 1_555
C18GA N6GA 1_555 1_555
C19GA N7GA 1_555 1_555
C23GA N7GA 1_555 1_555
C5YC N1YC 1_555 1_555
C9YC N1YC 1_555 1_555
C15YC N3YC 1_555 1_555
C17YC N5YC 1_555 1_555
C18YC N4YC 1_555 1_555
C18YC N6YC 1_555 1_555
C23YC N7YC 1_555 1_555
Co1YC N3YC 1_555 1_555
C5KD N1KD 1_555 1_555
C9KD N1KD 1_555 1_555
C15KD N3KD 1_555 1_555
C17KD N5KD 1_555 1_555
C18KD N4KD 1_555 1_555
C18KD N6KD 1_555 1_555
C23KD N7KD 1_555 1_555

#END
