
#######################################################################
#
#                 Cambridge Crystallographic Data Centre
#                                CCDC 
#
#######################################################################
#
# If this CIF has been generated from an entry in the Cambridge 
# Structural Database, then it will include bibliographic, chemical, 
# crystal, experimental, refinement or atomic coordinate data resulting 
# from the CCDC's data processing and validation procedures.
#
#######################################################################

data_SOQSEY
_chemical_formula_moiety         '(C42 H20 O22 S3 Zr3)n'
_symmetry_cell_setting           cubic
_symmetry_space_group_name_H-M   'P a -3'
_symmetry_Int_Tables_number      205
_space_group_name_Hall           '-P 2ac 2ab 3'
loop_
_symmetry_equiv_pos_site_id
_symmetry_equiv_pos_as_xyz
1 x,y,z
2 z,x,y
3 y,z,x
4 1/2-y,-z,1/2+x
5 1/2+z,1/2-x,-y
6 -y,1/2+z,1/2-x
7 1/2-z,-x,1/2+y
8 -z,1/2+x,1/2-y
9 1/2+y,1/2-z,-x
10 1/2-x,-y,1/2+z
11 1/2+x,1/2-y,-z
12 -x,1/2+y,1/2-z
13 -x,-y,-z
14 -z,-x,-y
15 -y,-z,-x
16 1/2+y,z,1/2-x
17 1/2-z,1/2+x,y
18 y,1/2-z,1/2+x
19 1/2+z,x,1/2-y
20 z,1/2-x,1/2+y
21 1/2-y,1/2+z,x
22 1/2+x,y,1/2-z
23 1/2-x,1/2+y,z
24 x,1/2-y,1/2+z
_cell_length_a                   26.3478(1)
_cell_length_b                   26.3478(1)
_cell_length_c                   26.3478(1)
_cell_angle_alpha                90
_cell_angle_beta                 90
_cell_angle_gamma                90
_cell_volume                     18290.8
loop_
_atom_site_label
_atom_site_type_symbol
_atom_site_fract_x
_atom_site_fract_y
_atom_site_fract_z
_atom_site_U_iso_or_equiv
_atom_site_thermal_displace_type
Zr1 Zr 0.011640(10) 0.907694(10) 0.986586(10) 0.0167 Uani
O1 O -0.04588(18) 0.95412(18) 0.95412(18) 0.0620 Uani
O2 O -0.35687(11) 0.55182(10) 1.02505(11) 0.0337 Uani
O3 O -0.12302(11) 0.90877(11) 1.00807(12) 0.0385 Uani
O4 O -0.41012(12) 0.62203(12) 1.02603(11) 0.0402 Uani
O5 O -0.05500(11) 0.85651(10) 0.98847(12) 0.0359 Uani
O6 O -0.03332(13) 0.94214(16) 1.04451(13) 0.0637 Uani
C1 C -0.36713(15) 0.59912(16) 1.02486(17) 0.0353 Uani
C2 C -0.10152(16) 0.86570(15) 0.99929(18) 0.0373 Uani
C3 C -0.21567(17) 0.7833(2) 1.0125(3) 0.0647 Uani
C4 C -0.32122(18) 0.63319(19) 1.0226(2) 0.0527 Uani
O7 O -0.30857(19) 0.8016(2) 0.9741(4) 0.1860 Uani
C5 C -0.18762(19) 0.82642(19) 1.0081(3) 0.0623 Uani
H1 H -0.2027 0.8592 1.0084 0.0750 Uiso
C6 C -0.2304(2) 0.6453(2) 1.0154(4) 0.0927 Uani
H2 H -0.1973 0.6310 1.0130 0.1110 Uiso
C7 C -0.27269(19) 0.6129(2) 1.0184(3) 0.0787 Uani
H3 H -0.2681 0.5771 1.0175 0.0940 Uiso
C8 C -0.1153(2) 0.7716(2) 1.0011(3) 0.0863 Uani
H4 H -0.0798 0.7672 0.9967 0.1030 Uiso
C9 C -0.1969(2) 0.7346(2) 1.0106(3) 0.0693 Uani
C10 C -0.13482(19) 0.81962(18) 1.0029(2) 0.0550 Uani
C11 C -0.3278(2) 0.68544(19) 1.0224(2) 0.0577 Uani
H5 H -0.3607 0.7002 1.0244 0.0690 Uiso
C12 C -0.2851(2) 0.7149(2) 1.0193(3) 0.0673 Uani
C13 C -0.2359(2) 0.6958(2) 1.0158(3) 0.0740 Uani
C14 C -0.1460(2) 0.7289(2) 1.0055(3) 0.0920 Uani
H6 H -0.1314 0.6959 1.0050 0.1100 Uiso
S1 S -0.28336(6) 0.78192(6) 1.01861(12) 0.1090 Uani
O8 O -0.2987(2) 0.8029(2) 1.0687(4) 0.1867 Uani
Zr1A Zr -0.013414(10) 1.011640(10) 0.907694(10) 0.0167 Uani
O2A O 0.02505(11) 0.64313(11) 0.55182(10) 0.0337 Uani
O3A O 0.00807(12) 0.87698(11) 0.90877(11) 0.0385 Uani
O4A O 0.02603(11) 0.58988(12) 0.62203(12) 0.0402 Uani
O5A O -0.01153(12) 0.94500(11) 0.85651(10) 0.0359 Uani
O6A O 0.04451(13) 0.96668(13) 0.94214(16) 0.0637 Uani
C1A C 0.02486(17) 0.63287(15) 0.59912(16) 0.0353 Uani
C2A C -0.00071(18) 0.89848(16) 0.86570(15) 0.0373 Uani
C3A C 0.0125(3) 0.78433(17) 0.7833(2) 0.0647 Uani
C4A C 0.0226(2) 0.67878(18) 0.63319(19) 0.0527 Uani
O7A O -0.0259(4) 0.69143(19) 0.8016(2) 0.1860 Uani
C5A C 0.0081(3) 0.81238(19) 0.82642(19) 0.0623 Uani
H1A H 0.0084 0.7973 0.8592 0.0750 Uiso
C6A C 0.0154(4) 0.7696(2) 0.6453(2) 0.0927 Uani
H2A H 0.0130 0.8027 0.6310 0.1110 Uiso
C7A C 0.0184(3) 0.72731(19) 0.6129(2) 0.0787 Uani
H3A H 0.0175 0.7319 0.5771 0.0940 Uiso
C8A C 0.0011(3) 0.8847(2) 0.7716(2) 0.0863 Uani
H4A H -0.0033 0.9202 0.7672 0.1030 Uiso
C9A C 0.0106(3) 0.8031(2) 0.7346(2) 0.0693 Uani
C10A C 0.0029(2) 0.86518(19) 0.81962(18) 0.0550 Uani
C11A C 0.0224(2) 0.6722(2) 0.68544(19) 0.0577 Uani
H5A H 0.0244 0.6393 0.7002 0.0690 Uiso
C12A C 0.0193(3) 0.7149(2) 0.7149(2) 0.0673 Uani
C13A C 0.0158(3) 0.7641(2) 0.6958(2) 0.0740 Uani
C14A C 0.0055(3) 0.8540(2) 0.7289(2) 0.0920 Uani
H6A H 0.0050 0.8686 0.6959 0.1100 Uiso
S1A S 0.01861(12) 0.71664(6) 0.78192(6) 0.1090 Uani
O8A O 0.0687(4) 0.7013(2) 0.8029(2) 0.1867 Uani
Zr1B Zr -0.092306(10) 0.986586(10) 1.011640(10) 0.0167 Uani
O2B O -0.44818(10) 1.02505(11) 0.64313(11) 0.0337 Uani
O3B O -0.09123(11) 1.00807(12) 0.87698(11) 0.0385 Uani
O4B O -0.37797(12) 1.02603(11) 0.58988(12) 0.0402 Uani
O5B O -0.14349(10) 0.98847(12) 0.94500(11) 0.0359 Uani
O6B O -0.05786(16) 1.04451(13) 0.96668(13) 0.0637 Uani
C1B C -0.40088(16) 1.02486(17) 0.63287(15) 0.0353 Uani
C2B C -0.13430(15) 0.99929(18) 0.89848(16) 0.0373 Uani
C3B C -0.2167(2) 1.0125(3) 0.78433(17) 0.0647 Uani
C4B C -0.36681(19) 1.0226(2) 0.67878(18) 0.0527 Uani
O7B O -0.1984(2) 0.9741(4) 0.69143(19) 0.1860 Uani
C5B C -0.17358(19) 1.0081(3) 0.81238(19) 0.0623 Uani
H1B H -0.1408 1.0084 0.7973 0.0750 Uiso
C6B C -0.3547(2) 1.0154(4) 0.7696(2) 0.0927 Uani
H2B H -0.3690 1.0130 0.8027 0.1110 Uiso
C7B C -0.3871(2) 1.0184(3) 0.72731(19) 0.0787 Uani
H3B H -0.4229 1.0175 0.7319 0.0940 Uiso
C8B C -0.2284(2) 1.0011(3) 0.8847(2) 0.0863 Uani
H4B H -0.2328 0.9967 0.9202 0.1030 Uiso
C9B C -0.2654(2) 1.0106(3) 0.8031(2) 0.0693 Uani
C10B C -0.18038(18) 1.0029(2) 0.86518(19) 0.0550 Uani
C11B C -0.31456(19) 1.0224(2) 0.6722(2) 0.0577 Uani
H5B H -0.2998 1.0244 0.6393 0.0690 Uiso
C12B C -0.2851(2) 1.0193(3) 0.7149(2) 0.0673 Uani
C13B C -0.3042(2) 1.0158(3) 0.7641(2) 0.0740 Uani
C14B C -0.2711(2) 1.0055(3) 0.8540(2) 0.0920 Uani
H6B H -0.3041 1.0050 0.8686 0.1100 Uiso
S1B S -0.21808(6) 1.01861(12) 0.71664(6) 0.1090 Uani
O8B O -0.1971(2) 1.0687(4) 0.7013(2) 0.1867 Uani
Zr1C Zr -0.407694(10) 1.013414(10) 0.511640(10) 0.0167 Uani
Zr1G Zr 0.013414(10) 0.511640(10) 0.592306(10) 0.0167 Uani
Zr1J Zr -0.488360(10) 0.592306(10) 1.013414(10) 0.0167 Uani
Zr1L Zr -0.011640(10) 1.092306(10) 1.013414(10) 0.0167 Uani
Zr1M Zr 0.013414(10) 0.988360(10) 1.092306(10) 0.0167 Uani
Zr1N Zr 0.092306(10) 1.013414(10) 0.988360(10) 0.0167 Uani
Zr1R Zr -0.513414(10) 1.011640(10) 0.592306(10) 0.0167 Uani
Zr1T Zr -0.407694(10) 0.486586(10) 1.011640(10) 0.0167 Uani
Zr1W Zr 0.011640(10) 0.592306(10) 0.486586(10) 0.0167 Uani
O2O O 0.05182(10) 1.02505(11) 0.85687(11) 0.0337 Uani
O2S O 0.02505(11) 0.85687(11) 1.05182(10) 0.0337 Uani
O2V O -0.14313(11) 1.05182(10) 1.02505(11) 0.0337 Uani
O4C O -0.12203(12) 0.97397(11) 1.08988(12) 0.0402 Uani
O4G O -0.02603(11) 1.08988(12) 0.87797(12) 0.0402 Uani
O4J O 0.08988(12) 0.87797(12) 0.97397(11) 0.0402 Uani
O6L O 0.03332(13) 1.05786(16) 0.95549(13) 0.0637 Uani
O6M O -0.04451(13) 1.03332(13) 1.05786(16) 0.0637 Uani
O6N O 0.05786(16) 0.95549(13) 1.03332(13) 0.0637 Uani
loop_
_atom_site_aniso_label
_atom_site_aniso_U_11
_atom_site_aniso_U_22
_atom_site_aniso_U_33
_atom_site_aniso_U_23
_atom_site_aniso_U_13
_atom_site_aniso_U_12
Zr1 0.01848(14) 0.01468(13) 0.01686(14) -0.00015(10) 0.00277(11) 0.00096(10)
O1 0.062(2) 0.062(2) 0.062(2) 0.046(3) 0.046(3) 0.046(3)
O2 0.0323(14) 0.0317(14) 0.0370(14) 0.0008(12) -0.0033(12) -0.0137(12)
O3 0.0366(15) 0.0315(14) 0.0474(16) 0.0071(14) -0.0053(14) -0.0175(13)
O4 0.0389(15) 0.0416(16) 0.0402(15) -0.0021(14) -0.0050(13) -0.0195(14)
O5 0.0338(14) 0.0297(13) 0.0441(15) 0.0021(13) -0.0003(13) -0.0130(12)
O6 0.0442(18) 0.093(3) 0.054(2) -0.053(2) -0.0293(17) 0.047(2)
C1 0.0279(18) 0.035(2) 0.043(2) 0.0013(18) -0.0052(17) -0.0082(17)
C2 0.035(2) 0.0250(18) 0.052(3) 0.0043(18) 0.0034(19) -0.0051(18)
C3 0.023(2) 0.051(3) 0.120(5) 0.002(3) 0.007(3) -0.009(2)
C4 0.036(2) 0.041(2) 0.081(4) 0.006(3) -0.004(3) -0.019(2)
O7 0.051(3) 0.069(3) 0.438(14) 0.098(6) -0.076(5) -0.015(3)
C5 0.035(2) 0.033(2) 0.119(5) 0.006(3) 0.008(3) -0.009(2)
C6 0.037(3) 0.043(3) 0.198(9) 0.011(4) 0.017(4) -0.012(3)
C7 0.028(2) 0.041(3) 0.167(8) -0.001(4) -0.005(3) -0.009(2)
C8 0.042(3) 0.032(2) 0.185(9) 0.000(4) 0.016(4) -0.003(2)
C9 0.051(3) 0.037(2) 0.120(6) 0.016(3) -0.001(4) -0.005(2)
C10 0.035(2) 0.036(2) 0.094(4) 0.002(3) 0.007(3) -0.016(2)
C11 0.039(2) 0.038(2) 0.096(4) -0.002(3) 0.001(3) -0.013(2)
C12 0.050(3) 0.036(2) 0.116(6) -0.004(3) 0.002(3) -0.013(2)
C13 0.036(3) 0.062(3) 0.124(6) -0.007(4) 0.007(3) -0.010(3)
C14 0.047(3) 0.032(2) 0.197(9) -0.005(4) 0.024(4) -0.010(2)
S1 0.0372(7) 0.0349(7) 0.255(3) -0.0069(12) 0.0187(12) -0.0120(6)
O8 0.104(4) 0.083(4) 0.373(12) -0.118(6) 0.132(6) -0.048(3)
Zr1A 0.01686 0.01848 0.01468 0.00096 -0.00015 0.00277
O2A 0.037 0.0323 0.0317 -0.0137 0.0008 -0.0033
O3A 0.0474 0.0366 0.0315 -0.0175 0.0071 -0.0053
O4A 0.0402 0.0389 0.0416 -0.0195 -0.0021 -0.005
O5A 0.0441 0.0338 0.0297 -0.013 0.0021 -0.0003
O6A 0.054 0.0442 0.093 0.047 -0.053 -0.0293
C1A 0.043 0.0279 0.035 -0.0082 0.0013 -0.0052
C2A 0.052 0.035 0.025 -0.0051 0.0043 0.0034
C3A 0.12 0.023 0.051 -0.009 0.002 0.007
C4A 0.081 0.036 0.041 -0.019 0.006 -0.004
O7A 0.438 0.051 0.069 -0.015 0.098 -0.076
C5A 0.119 0.035 0.033 -0.009 0.006 0.008
C6A 0.198 0.037 0.043 -0.012 0.011 0.017
C7A 0.167 0.028 0.041 -0.009 -0.001 -0.005
C8A 0.185 0.042 0.032 -0.003 0 0.016
C9A 0.12 0.051 0.037 -0.005 0.016 -0.001
C10A 0.094 0.035 0.036 -0.016 0.002 0.007
C11A 0.096 0.039 0.038 -0.013 -0.002 0.001
C12A 0.116 0.05 0.036 -0.013 -0.004 0.002
C13A 0.124 0.036 0.062 -0.01 -0.007 0.007
C14A 0.197 0.047 0.032 -0.01 -0.005 0.024
S1A 0.255 0.0372 0.0349 -0.012 -0.0069 0.0187
O8A 0.373 0.104 0.083 -0.048 -0.118 0.132
Zr1B 0.01468 0.01686 0.01848 0.00277 0.00096 -0.00015
O2B 0.0317 0.037 0.0323 -0.0033 -0.0137 0.0008
O3B 0.0315 0.0474 0.0366 -0.0053 -0.0175 0.0071
O4B 0.0416 0.0402 0.0389 -0.005 -0.0195 -0.0021
O5B 0.0297 0.0441 0.0338 -0.0003 -0.013 0.0021
O6B 0.093 0.054 0.0442 -0.0293 0.047 -0.053
C1B 0.035 0.043 0.0279 -0.0052 -0.0082 0.0013
C2B 0.025 0.052 0.035 0.0034 -0.0051 0.0043
C3B 0.051 0.12 0.023 0.007 -0.009 0.002
C4B 0.041 0.081 0.036 -0.004 -0.019 0.006
O7B 0.069 0.438 0.051 -0.076 -0.015 0.098
C5B 0.033 0.119 0.035 0.008 -0.009 0.006
C6B 0.043 0.198 0.037 0.017 -0.012 0.011
C7B 0.041 0.167 0.028 -0.005 -0.009 -0.001
C8B 0.032 0.185 0.042 0.016 -0.003 0
C9B 0.037 0.12 0.051 -0.001 -0.005 0.016
C10B 0.036 0.094 0.035 0.007 -0.016 0.002
C11B 0.038 0.096 0.039 0.001 -0.013 -0.002
C12B 0.036 0.116 0.05 0.002 -0.013 -0.004
C13B 0.062 0.124 0.036 0.007 -0.01 -0.007
C14B 0.032 0.197 0.047 0.024 -0.01 -0.005
S1B 0.0349 0.255 0.0372 0.0187 -0.012 -0.0069
O8B 0.083 0.373 0.104 0.132 -0.048 -0.118
Zr1C 0.01468 0.01686 0.01848 -0.00277 -0.00096 -0.00015
Zr1G 0.01686 0.01848 0.01468 -0.00096 -0.00015 -0.00277
Zr1J 0.01848 0.01468 0.01686 -0.00015 -0.00277 -0.00096
Zr1L 0.01848 0.01468 0.01686 -0.00015 0.00277 0.00096
Zr1M 0.01686 0.01848 0.01468 0.00096 -0.00015 0.00277
Zr1N 0.01468 0.01686 0.01848 0.00277 0.00096 -0.00015
Zr1R 0.01686 0.01848 0.01468 -0.00096 0.00015 0.00277
Zr1T 0.01468 0.01686 0.01848 0.00277 -0.00096 0.00015
Zr1W 0.01848 0.01468 0.01686 0.00015 0.00277 -0.00096
O2O 0.0317 0.037 0.0323 0.0033 0.0137 0.0008
O2S 0.037 0.0323 0.0317 0.0137 0.0008 0.0033
O2V 0.0323 0.0317 0.037 0.0008 0.0033 0.0137
O4C 0.0416 0.0402 0.0389 0.005 0.0195 -0.0021
O4G 0.0402 0.0389 0.0416 0.0195 -0.0021 0.005
O4J 0.0389 0.0416 0.0402 -0.0021 0.005 0.0195
O6L 0.0442 0.093 0.054 -0.053 -0.0293 0.047
O6M 0.054 0.0442 0.093 0.047 -0.053 -0.0293
O6N 0.093 0.054 0.0442 -0.0293 0.047 -0.053
loop_
_geom_bond_atom_site_label_1
_geom_bond_atom_site_label_2
_geom_bond_site_symmetry_1
_geom_bond_site_symmetry_2
Zr1 O1 1_555 1_555
O1 Zr1A 1_555 1_555
O2 C1 1_555 1_555
O3 C2 1_555 1_555
O4 C1 1_555 1_555
O5 Zr1 1_555 1_555
O6 Zr1 1_555 1_555
C1 C4 1_555 1_555
C2 O5 1_555 1_555
C3 C5 1_555 1_555
C4 C7 1_555 1_555
O7 S1 1_555 1_555
C5 H1 1_555 1_555
C6 H2 1_555 1_555
C7 C6 1_555 1_555
H3 C7 1_555 1_555
C8 H4 1_555 1_555
C9 C3 1_555 1_555
C10 C2 1_555 1_555
C11 C4 1_555 1_555
H5 C11 1_555 1_555
C12 C11 1_555 1_555
C13 C6 1_555 1_555
C14 C8 1_555 1_555
H6 C14 1_555 1_555
S1 C3 1_555 1_555
O8 S1 1_555 1_555
Zr1A O5A 1_555 1_555
O2A C1A 1_555 1_555
O3A Zr1 1_555 1_555
O4A C1A 1_555 1_555
O5A C2A 1_555 1_555
O6A Zr1 1_555 1_555
C1A C4A 1_555 1_555
C2A O3A 1_555 1_555
C3A C5A 1_555 1_555
C4A C7A 1_555 1_555
O7A S1A 1_555 1_555
C5A H1A 1_555 1_555
C6A H2A 1_555 1_555
C7A C6A 1_555 1_555
H3A C7A 1_555 1_555
C8A H4A 1_555 1_555
C9A C3A 1_555 1_555
C10A C2A 1_555 1_555
C11A C4A 1_555 1_555
H5A C11A 1_555 1_555
C12A C11A 1_555 1_555
C13A C6A 1_555 1_555
C14A C8A 1_555 1_555
H6A C14A 1_555 1_555
S1A C3A 1_555 1_555
O8A S1A 1_555 1_555
Zr1B O1 1_555 1_555
O2B C1B 1_555 1_555
O3B Zr1A 1_555 1_555
O4B C1B 1_555 1_555
O5B Zr1B 1_555 1_555
O6B Zr1A 1_555 1_555
C1B C4B 1_555 1_555
C2B O3B 1_555 1_555
C3B C5B 1_555 1_555
C4B C7B 1_555 1_555
O7B S1B 1_555 1_555
C5B H1B 1_555 1_555
C6B H2B 1_555 1_555
C7B C6B 1_555 1_555
H3B C7B 1_555 1_555
C8B H4B 1_555 1_555
C9B C3B 1_555 1_555
C10B C2B 1_555 1_555
C11B C4B 1_555 1_555
H5B C11B 1_555 1_555
C12B C11B 1_555 1_555
C13B C6B 1_555 1_555
C14B C8B 1_555 1_555
H6B C14B 1_555 1_555
S1B C3B 1_555 1_555
O8B S1B 1_555 1_555
Zr1C O4B 1_555 1_555
Zr1G O4A 1_555 1_555
Zr1J O4 1_555 1_555
Zr1L O6B 1_555 1_555
Zr1M O6 1_555 1_555
Zr1N O6A 1_555 1_555
Zr1R O2B 1_555 1_555
Zr1T O2 1_555 1_555
Zr1W O2A 1_555 1_555
O2O Zr1A 1_555 1_555
O2S Zr1 1_555 1_555
O2V Zr1B 1_555 1_555
O4C Zr1B 1_555 1_555
O4G Zr1A 1_555 1_555
O4J Zr1 1_555 1_555
O6L Zr1A 1_555 1_555
O6M Zr1B 1_555 1_555
O6N Zr1 1_555 1_555
O3 Zr1B 1_555 1_555
O6 Zr1B 1_555 1_555
C5 C10 1_555 1_555
C8 C10 1_555 1_555
C9 C13 1_555 1_555
C9 C14 1_555 1_555
C12 C13 1_555 1_555
C12 S1 1_555 1_555
Zr1A O6A 1_555 1_555
C5A C10A 1_555 1_555
C8A C10A 1_555 1_555
C9A C13A 1_555 1_555
C9A C14A 1_555 1_555
C12A C13A 1_555 1_555
C12A S1A 1_555 1_555
Zr1B O6B 1_555 1_555
O5B C2B 1_555 1_555
C5B C10B 1_555 1_555
C8B C10B 1_555 1_555
C9B C13B 1_555 1_555
C9B C14B 1_555 1_555
C12B C13B 1_555 1_555
C12B S1B 1_555 1_555
Zr1L O6L 1_555 1_555
Zr1L O6M 1_555 1_555
Zr1M O6M 1_555 1_555
Zr1M O6N 1_555 1_555
Zr1N O6L 1_555 1_555
Zr1N O6N 1_555 1_555

#END
