
#######################################################################
#
#                 Cambridge Crystallographic Data Centre
#                                CCDC 
#
#######################################################################
#
# If this CIF has been generated from an entry in the Cambridge 
# Structural Database, then it will include bibliographic, chemical, 
# crystal, experimental, refinement or atomic coordinate data resulting 
# from the CCDC's data processing and validation procedures.
#
#######################################################################

data_SOQSAU
_chemical_formula_moiety         '(C45 H20 O19 Zr3)n'
_symmetry_cell_setting           cubic
_symmetry_space_group_name_H-M   'P a -3'
_symmetry_Int_Tables_number      205
_space_group_name_Hall           '-P 2ac 2ab 3'
loop_
_symmetry_equiv_pos_site_id
_symmetry_equiv_pos_as_xyz
1 x,y,z
2 z,x,y
3 y,z,x
4 1/2-y,-z,1/2+x
5 1/2+z,1/2-x,-y
6 -y,1/2+z,1/2-x
7 1/2-z,-x,1/2+y
8 -z,1/2+x,1/2-y
9 1/2+y,1/2-z,-x
10 1/2-x,-y,1/2+z
11 1/2+x,1/2-y,-z
12 -x,1/2+y,1/2-z
13 -x,-y,-z
14 -z,-x,-y
15 -y,-z,-x
16 1/2+y,z,1/2-x
17 1/2-z,1/2+x,y
18 y,1/2-z,1/2+x
19 1/2+z,x,1/2-y
20 z,1/2-x,1/2+y
21 1/2-y,1/2+z,x
22 1/2+x,y,1/2-z
23 1/2-x,1/2+y,z
24 x,1/2-y,1/2+z
_cell_length_a                   26.0512(10)
_cell_length_b                   26.0512(10)
_cell_length_c                   26.0512(10)
_cell_angle_alpha                90
_cell_angle_beta                 90
_cell_angle_gamma                90
_cell_volume                     17680
loop_
_atom_site_label
_atom_site_type_symbol
_atom_site_fract_x
_atom_site_fract_y
_atom_site_fract_z
_atom_site_U_iso_or_equiv
_atom_site_thermal_displace_type
Zr1 Zr 0.015317(16) 0.908158(16) 0.981713(16) 0.0109 Uani
O1 O 0.03423(14) 0.85551(13) 1.04513(13) 0.0181 Uani
O2 O 0.0621(2) 0.9554(2) 1.0294(2) 0.0466 Uiso
O3 O -0.04792(18) 0.95208(18) 0.95208(18) 0.0397 Uiso
O4 O 0.03523(15) 0.90459(14) 1.11837(14) 0.0239 Uani
O5 O -0.01408(15) 0.55048(15) 1.35372(13) 0.0245 Uani
O6 O 0.00779(14) 0.62027(15) 1.40166(14) 0.0235 Uani
C1 C 0.0345(2) 0.8625(2) 1.0940(2) 0.0253 Uani
C2 C 0.0332(3) 0.8144(2) 1.1254(2) 0.0370 Uani
C3 C 0.0260(4) 0.7672(3) 1.1015(3) 0.0583 Uani
C4 C 0.0345(4) 0.8178(3) 1.1783(2) 0.0503 Uani
H1 H 0.0232 0.7657 1.0652 0.0700 Uiso
C5 C 0.0229(5) 0.7220(3) 1.1304(3) 0.0787 Uani
C6 C 0.0280(4) 0.7719(3) 1.2063(3) 0.0567 Uani
H2 H 0.0395 0.8497 1.1952 0.0610 Uiso
H3 H 0.0215 0.6895 1.1138 0.0950 Uiso
C7 C 0.0219(5) 0.7251(3) 1.1835(3) 0.0677 Uani
C8 C 0.0268(4) 0.7657(3) 1.2638(3) 0.0640 Uani
C9 C 0.0149(4) 0.6854(3) 1.2232(3) 0.0527 Uani
O7 O 0.0310(5) 0.7970(2) 1.2958(2) 0.1220 Uani
C10 C 0.0184(4) 0.7088(2) 1.2699(3) 0.0527 Uani
C11 C 0.0073(5) 0.6331(3) 1.2191(3) 0.0837 Uani
C12 C 0.0113(4) 0.6808(3) 1.3156(2) 0.0473 Uani
H4 H 0.0065 0.6168 1.1865 0.1010 Uiso
C13 C 0.0009(4) 0.6052(3) 1.2640(2) 0.0613 Uani
C14 C 0.0028(3) 0.6290(2) 1.3118(2) 0.0377 Uani
H5 H 0.0125 0.6973 1.3481 0.0570 Uiso
H6 H -0.0049 0.5692 1.2620 0.0740 Uiso
C15 C -0.0011(2) 0.59736(19) 1.3602(2) 0.0217 Uani
Zr1A Zr -0.018287(16) 1.015317(16) 0.908158(16) 0.0109 Uani
O1A O 0.04513(13) 1.03423(14) 0.85551(13) 0.0181 Uani
O2A O 0.0294(2) 1.0621(2) 0.9554(2) 0.0466 Uiso
O4A O 0.11837(14) 1.03523(15) 0.90459(14) 0.0239 Uani
O5A O 0.35372(13) 0.98592(15) 0.55048(15) 0.0245 Uani
O6A O 0.40166(14) 1.00779(14) 0.62027(15) 0.0235 Uani
C1A C 0.0940(2) 1.0345(2) 0.8625(2) 0.0253 Uani
C2A C 0.1254(2) 1.0332(3) 0.8144(2) 0.0370 Uani
C3A C 0.1015(3) 1.0260(4) 0.7672(3) 0.0583 Uani
C4A C 0.1783(2) 1.0345(4) 0.8178(3) 0.0503 Uani
H1A H 0.0652 1.0232 0.7657 0.0700 Uiso
C5A C 0.1304(3) 1.0229(5) 0.7220(3) 0.0787 Uani
C6A C 0.2063(3) 1.0280(4) 0.7719(3) 0.0567 Uani
H2A H 0.1952 1.0395 0.8497 0.0610 Uiso
H3A H 0.1138 1.0215 0.6895 0.0950 Uiso
C7A C 0.1835(3) 1.0219(5) 0.7251(3) 0.0677 Uani
C8A C 0.2638(3) 1.0268(4) 0.7657(3) 0.0640 Uani
C9A C 0.2232(3) 1.0149(4) 0.6854(3) 0.0527 Uani
O7A O 0.2958(2) 1.0310(5) 0.7970(2) 0.1220 Uani
C10A C 0.2699(3) 1.0184(4) 0.7088(2) 0.0527 Uani
C11A C 0.2191(3) 1.0073(5) 0.6331(3) 0.0837 Uani
C12A C 0.3156(2) 1.0113(4) 0.6808(3) 0.0473 Uani
H4A H 0.1865 1.0065 0.6168 0.1010 Uiso
C13A C 0.2640(2) 1.0009(4) 0.6052(3) 0.0613 Uani
C14A C 0.3118(2) 1.0028(3) 0.6290(2) 0.0377 Uani
H5A H 0.3481 1.0125 0.6973 0.0570 Uiso
H6A H 0.2620 0.9951 0.5692 0.0740 Uiso
C15A C 0.3602(2) 0.9989(2) 0.59736(19) 0.0217 Uani
Zr1B Zr -0.091842(16) 0.981713(16) 1.015317(16) 0.0109 Uani
O1B O -0.14449(13) 1.04513(13) 1.03423(14) 0.0181 Uani
O2B O -0.0446(2) 1.0294(2) 1.0621(2) 0.0466 Uiso
O4B O -0.09541(14) 1.11837(14) 1.03523(15) 0.0239 Uani
O5B O -0.44952(15) 1.35372(13) 0.98592(15) 0.0245 Uani
O6B O -0.37973(15) 1.40166(14) 1.00779(14) 0.0235 Uani
C1B C -0.1375(2) 1.0940(2) 1.0345(2) 0.0253 Uani
C2B C -0.1856(2) 1.1254(2) 1.0332(3) 0.0370 Uani
C3B C -0.2328(3) 1.1015(3) 1.0260(4) 0.0583 Uani
C4B C -0.1822(3) 1.1783(2) 1.0345(4) 0.0503 Uani
H1B H -0.2343 1.0652 1.0232 0.0700 Uiso
C5B C -0.2780(3) 1.1304(3) 1.0229(5) 0.0787 Uani
C6B C -0.2281(3) 1.2063(3) 1.0280(4) 0.0567 Uani
H2B H -0.1503 1.1952 1.0395 0.0610 Uiso
H3B H -0.3105 1.1138 1.0215 0.0950 Uiso
C7B C -0.2749(3) 1.1835(3) 1.0219(5) 0.0677 Uani
C8B C -0.2343(3) 1.2638(3) 1.0268(4) 0.0640 Uani
C9B C -0.3146(3) 1.2232(3) 1.0149(4) 0.0527 Uani
O7B O -0.2030(2) 1.2958(2) 1.0310(5) 0.1220 Uani
C10B C -0.2912(2) 1.2699(3) 1.0184(4) 0.0527 Uani
C11B C -0.3669(3) 1.2191(3) 1.0073(5) 0.0837 Uani
C12B C -0.3192(3) 1.3156(2) 1.0113(4) 0.0473 Uani
H4B H -0.3832 1.1865 1.0065 0.1010 Uiso
C13B C -0.3948(3) 1.2640(2) 1.0009(4) 0.0613 Uani
C14B C -0.3710(2) 1.3118(2) 1.0028(3) 0.0377 Uani
H5B H -0.3027 1.3481 1.0125 0.0570 Uiso
H6B H -0.4308 1.2620 0.9951 0.0740 Uiso
C15B C -0.40264(19) 1.3602(2) 0.9989(2) 0.0217 Uani
Zr1L Zr -0.015317(16) 1.091842(16) 1.018287(16) 0.0109 Uani
Zr1M Zr 0.018287(16) 0.984683(16) 1.091842(16) 0.0109 Uani
Zr1N Zr 0.091842(16) 1.018287(16) 0.984683(16) 0.0109 Uani
Zr1O Zr 0.408158(16) 0.981713(16) 0.484683(16) 0.0109 Uani
Zr1R Zr 0.481713(16) 1.015317(16) 0.591842(16) 0.0109 Uani
Zr1S Zr -0.018287(16) 0.484683(16) 1.408158(16) 0.0109 Uani
Zr1T Zr -0.408158(16) 1.481713(16) 1.015317(16) 0.0109 Uani
Zr1V Zr -0.515317(16) 1.408158(16) 0.981713(16) 0.0109 Uani
Zr1W Zr 0.015317(16) 0.591842(16) 1.481713(16) 0.0109 Uani
O2L O -0.0621(2) 1.0446(2) 0.9706(2) 0.0466 Uiso
O2M O -0.0294(2) 0.9379(2) 1.0446(2) 0.0466 Uiso
O2N O 0.0446(2) 0.9706(2) 0.9379(2) 0.0466 Uiso
O4L O -0.03523(15) 1.09541(14) 0.88163(14) 0.0239 Uani
O4M O -0.11837(14) 0.96477(15) 1.09541(14) 0.0239 Uani
O4N O 0.09541(14) 0.88163(14) 0.96477(15) 0.0239 Uani
O5R O -0.14628(13) 0.98592(15) 0.94952(15) 0.0245 Uani
O5T O -0.05048(15) 0.85372(13) 0.98592(15) 0.0245 Uani
O5W O -0.01408(15) 0.94952(15) 0.85372(13) 0.0245 Uani
O6R O -0.09834(14) 1.00779(14) 0.87973(15) 0.0235 Uani
O6T O -0.12027(15) 0.90166(14) 1.00779(14) 0.0235 Uani
O6W O 0.00779(14) 0.87973(15) 0.90166(14) 0.0235 Uani
loop_
_atom_site_aniso_label
_atom_site_aniso_U_11
_atom_site_aniso_U_22
_atom_site_aniso_U_33
_atom_site_aniso_U_23
_atom_site_aniso_U_13
_atom_site_aniso_U_12
Zr1 0.0117(2) 0.0093(2) 0.0118(2) -0.00021(15) 0.00091(16) 0.00082(15)
O1 0.0277(18) 0.0136(15) 0.0129(16) 0.0045(12) -0.0059(13) -0.0001(13)
O4 0.0272 0.0195 0.0251 0.0102 -0.0054 0.0009
O5 0.0274 0.033 0.0131 0.0136 0.0017 0.0009
O6 0.0259 0.0257 0.0189 0.0082 0 -0.0044
C1 0.029(3) 0.025(3) 0.022(3) 0.003(2) 0.003(2) 0.002(2)
C2 0.066(4) 0.017(3) 0.028(3) 0.009(2) 0.003(3) -0.005(3)
C3 0.127(8) 0.029(3) 0.019(3) 0.004(3) 0.007(4) -0.012(4)
C4 0.107(7) 0.022(3) 0.022(3) 0.004(2) 0.002(4) -0.011(4)
C5 0.196(12) 0.022(3) 0.018(3) 0.004(3) 0.004(5) -0.013(5)
C6 0.125(8) 0.023(3) 0.022(3) 0.009(2) -0.010(4) -0.016(4)
C7 0.164(10) 0.020(3) 0.019(3) 0.008(2) -0.002(4) -0.005(4)
C8 0.143(9) 0.022(3) 0.027(3) 0.007(3) -0.007(4) -0.022(4)
C9 0.109(7) 0.027(3) 0.022(3) 0.012(3) 0.002(4) -0.001(4)
O7 0.293(13) 0.043(3) 0.030(3) 0.003(3) -0.019(5) -0.041(6)
C10 0.115(7) 0.018(3) 0.025(3) 0.012(2) -0.017(4) -0.006(4)
C11 0.208(13) 0.025(3) 0.018(3) 0.006(3) 0.004(5) -0.030(5)
C12 0.098(6) 0.030(3) 0.014(3) 0.004(2) -0.002(3) -0.010(4)
C13 0.145(9) 0.020(3) 0.019(3) 0.005(2) 0.006(4) -0.005(4)
C14 0.072(5) 0.026(3) 0.015(2) 0.004(2) 0.009(3) 0.000(3)
C15 0.027(3) 0.017(2) 0.021(2) 0.0042(19) -0.004(2) 0.005(2)
Zr1A 0.0118 0.0117 0.0093 0.00082 -0.00021 0.00091
O1A 0.0129 0.0277 0.0136 -0.0001 0.0045 -0.0059
O4A 0.0251 0.0272 0.0195 0.0009 0.0102 -0.0054
O5A 0.0131 0.0274 0.033 0.0009 0.0136 0.0017
O6A 0.0189 0.0259 0.0257 -0.0044 0.0082 0
C1A 0.022 0.029 0.025 0.002 0.003 0.003
C2A 0.028 0.066 0.017 -0.005 0.009 0.003
C3A 0.019 0.127 0.029 -0.012 0.004 0.007
C4A 0.022 0.107 0.022 -0.011 0.004 0.002
C5A 0.018 0.196 0.022 -0.013 0.004 0.004
C6A 0.022 0.125 0.023 -0.016 0.009 -0.01
C7A 0.019 0.164 0.02 -0.005 0.008 -0.002
C8A 0.027 0.143 0.022 -0.022 0.007 -0.007
C9A 0.022 0.109 0.027 -0.001 0.012 0.002
O7A 0.03 0.293 0.043 -0.041 0.003 -0.019
C10A 0.025 0.115 0.018 -0.006 0.012 -0.017
C11A 0.018 0.208 0.025 -0.03 0.006 0.004
C12A 0.014 0.098 0.03 -0.01 0.004 -0.002
C13A 0.019 0.145 0.02 -0.005 0.005 0.006
C14A 0.015 0.072 0.026 0 0.004 0.009
C15A 0.021 0.027 0.017 0.005 0.0042 -0.004
Zr1B 0.0093 0.0118 0.0117 0.00091 0.00082 -0.00021
O1B 0.0136 0.0129 0.0277 -0.0059 -0.0001 0.0045
O4B 0.0195 0.0251 0.0272 -0.0054 0.0009 0.0102
O5B 0.033 0.0131 0.0274 0.0017 0.0009 0.0136
O6B 0.0257 0.0189 0.0259 0 -0.0044 0.0082
C1B 0.025 0.022 0.029 0.003 0.002 0.003
C2B 0.017 0.028 0.066 0.003 -0.005 0.009
C3B 0.029 0.019 0.127 0.007 -0.012 0.004
C4B 0.022 0.022 0.107 0.002 -0.011 0.004
C5B 0.022 0.018 0.196 0.004 -0.013 0.004
C6B 0.023 0.022 0.125 -0.01 -0.016 0.009
C7B 0.02 0.019 0.164 -0.002 -0.005 0.008
C8B 0.022 0.027 0.143 -0.007 -0.022 0.007
C9B 0.027 0.022 0.109 0.002 -0.001 0.012
O7B 0.043 0.03 0.293 -0.019 -0.041 0.003
C10B 0.018 0.025 0.115 -0.017 -0.006 0.012
C11B 0.025 0.018 0.208 0.004 -0.03 0.006
C12B 0.03 0.014 0.098 -0.002 -0.01 0.004
C13B 0.02 0.019 0.145 0.006 -0.005 0.005
C14B 0.026 0.015 0.072 0.009 0 0.004
C15B 0.017 0.021 0.027 -0.004 0.005 0.0042
Zr1L 0.0117 0.0093 0.0118 -0.00021 0.00091 0.00082
Zr1M 0.0118 0.0117 0.0093 0.00082 -0.00021 0.00091
Zr1N 0.0093 0.0118 0.0117 0.00091 0.00082 -0.00021
Zr1O 0.0093 0.0118 0.0117 -0.00091 -0.00082 -0.00021
Zr1R 0.0118 0.0117 0.0093 -0.00082 0.00021 0.00091
Zr1S 0.0118 0.0117 0.0093 -0.00082 -0.00021 -0.00091
Zr1T 0.0093 0.0118 0.0117 0.00091 -0.00082 0.00021
Zr1V 0.0117 0.0093 0.0118 -0.00021 -0.00091 -0.00082
Zr1W 0.0117 0.0093 0.0118 0.00021 0.00091 -0.00082
O4L 0.0272 0.0195 0.0251 0.0102 -0.0054 0.0009
O4M 0.0251 0.0272 0.0195 0.0009 0.0102 -0.0054
O4N 0.0195 0.0251 0.0272 -0.0054 0.0009 0.0102
O5R 0.0131 0.0274 0.033 -0.0009 -0.0136 0.0017
O5T 0.033 0.0131 0.0274 0.0017 -0.0009 -0.0136
O5W 0.0274 0.033 0.0131 -0.0136 0.0017 -0.0009
O6R 0.0189 0.0259 0.0257 0.0044 -0.0082 0
O6T 0.0257 0.0189 0.0259 0 0.0044 -0.0082
O6W 0.0259 0.0257 0.0189 -0.0082 0 0.0044
loop_
_geom_bond_atom_site_label_1
_geom_bond_atom_site_label_2
_geom_bond_site_symmetry_1
_geom_bond_site_symmetry_2
Zr1 O1 1_555 1_555
O1 C1 1_555 1_555
O2 Zr1 1_555 1_555
O3 Zr1 1_555 1_555
O4 C1 1_555 1_555
O5 C15 1_555 1_555
O6 C15 1_555 1_555
C1 C2 1_555 1_555
C2 C3 1_555 1_555
C3 H1 1_555 1_555
C4 C2 1_555 1_555
C5 C3 1_555 1_555
C6 C4 1_555 1_555
H2 C4 1_555 1_555
H3 C5 1_555 1_555
C7 C5 1_555 1_555
C8 C6 1_555 1_555
C9 C7 1_555 1_555
O7 C8 1_555 1_555
C10 C8 1_555 1_555
C11 C9 1_555 1_555
C12 C10 1_555 1_555
H4 C11 1_555 1_555
C13 C11 1_555 1_555
C14 C12 1_555 1_555
H5 C12 1_555 1_555
H6 C13 1_555 1_555
C15 C14 1_555 1_555
Zr1A O3 1_555 1_555
O1A Zr1A 1_555 1_555
O2A Zr1A 1_555 1_555
O4A C1A 1_555 1_555
O5A C15A 1_555 1_555
O6A C15A 1_555 1_555
C1A O1A 1_555 1_555
C2A C1A 1_555 1_555
C3A C2A 1_555 1_555
C4A C2A 1_555 1_555
H1A C3A 1_555 1_555
C5A C3A 1_555 1_555
C6A C4A 1_555 1_555
H2A C4A 1_555 1_555
H3A C5A 1_555 1_555
C7A C5A 1_555 1_555
C8A C6A 1_555 1_555
C9A C7A 1_555 1_555
O7A C8A 1_555 1_555
C10A C8A 1_555 1_555
C11A C9A 1_555 1_555
C12A C10A 1_555 1_555
H4A C11A 1_555 1_555
C13A C11A 1_555 1_555
C14A C12A 1_555 1_555
H5A C12A 1_555 1_555
H6A C13A 1_555 1_555
C15A C14A 1_555 1_555
Zr1B O3 1_555 1_555
O1B Zr1B 1_555 1_555
O2B Zr1B 1_555 1_555
O4B C1B 1_555 1_555
O5B C15B 1_555 1_555
O6B C15B 1_555 1_555
C1B O1B 1_555 1_555
C2B C1B 1_555 1_555
C3B C2B 1_555 1_555
C4B C2B 1_555 1_555
H1B C3B 1_555 1_555
C5B C3B 1_555 1_555
C6B C4B 1_555 1_555
H2B C4B 1_555 1_555
H3B C5B 1_555 1_555
C7B C5B 1_555 1_555
C8B C6B 1_555 1_555
C9B C7B 1_555 1_555
O7B C8B 1_555 1_555
C10B C8B 1_555 1_555
C11B C9B 1_555 1_555
C12B C10B 1_555 1_555
H4B C11B 1_555 1_555
C13B C11B 1_555 1_555
C14B C12B 1_555 1_555
H5B C12B 1_555 1_555
H6B C13B 1_555 1_555
C15B C14B 1_555 1_555
Zr1L O2A 1_555 1_555
Zr1M O2 1_555 1_555
Zr1N O2 1_555 1_555
Zr1O O5A 1_555 1_555
Zr1R O6A 1_555 1_555
Zr1S O5 1_555 1_555
Zr1T O6B 1_555 1_555
Zr1V O5B 1_555 1_555
Zr1W O6 1_555 1_555
O2L Zr1A 1_555 1_555
O2M Zr1 1_555 1_555
O2N Zr1 1_555 1_555
O4L Zr1A 1_555 1_555
O4M Zr1B 1_555 1_555
O4N Zr1 1_555 1_555
O5R Zr1B 1_555 1_555
O5T Zr1 1_555 1_555
O5W Zr1A 1_555 1_555
O6R Zr1A 1_555 1_555
O6T Zr1B 1_555 1_555
O6W Zr1 1_555 1_555
O4 Zr1M 1_555 1_555
C6 C7 1_555 1_555
C9 C10 1_555 1_555
C13 C14 1_555 1_555
Zr1A O2N 1_555 1_555
O2A Zr1N 1_555 1_555
O4A Zr1N 1_555 1_555
C6A C7A 1_555 1_555
C9A C10A 1_555 1_555
C13A C14A 1_555 1_555
Zr1B O2L 1_555 1_555
Zr1B O2M 1_555 1_555
O2B Zr1L 1_555 1_555
O2B Zr1M 1_555 1_555
O4B Zr1L 1_555 1_555
C6B C7B 1_555 1_555
C9B C10B 1_555 1_555
C13B C14B 1_555 1_555
Zr1L O2L 1_555 1_555
Zr1M O2M 1_555 1_555
Zr1N O2N 1_555 1_555

#END
