
#######################################################################
#
#                 Cambridge Crystallographic Data Centre
#                                CCDC 
#
#######################################################################
#
# If this CIF has been generated from an entry in the Cambridge 
# Structural Database, then it will include bibliographic, chemical, 
# crystal, experimental, refinement or atomic coordinate data resulting 
# from the CCDC's data processing and validation procedures.
#
#######################################################################

data_ALIXID
_chemical_formula_moiety         '(C34 H16 Co3 O16 2-)n'
_symmetry_cell_setting           orthorhombic
_symmetry_space_group_name_H-M   'P b c a'
_symmetry_Int_Tables_number      61
_space_group_name_Hall           '-P 2ac 2ab'
loop_
_symmetry_equiv_pos_site_id
_symmetry_equiv_pos_as_xyz
1 x,y,z
2 1/2-x,-y,1/2+z
3 -x,1/2+y,1/2-z
4 1/2+x,1/2-y,-z
5 -x,-y,-z
6 1/2+x,y,1/2-z
7 x,1/2-y,1/2+z
8 1/2-x,1/2+y,z
_cell_length_a                   16.223(3)
_cell_length_b                   10.633(2)
_cell_length_c                   25.188(5)
_cell_angle_alpha                90
_cell_angle_beta                 90
_cell_angle_gamma                90
_cell_volume                     4344.91
loop_
_atom_site_label
_atom_site_type_symbol
_atom_site_fract_x
_atom_site_fract_y
_atom_site_fract_z
Co1 Co 0.062909(12) 0.344015(19) 0.381262(8)
Co2 Co -0.0000 0.5000 0.5000
O1 O 0.10356(6) 0.43945(10) 0.45219(4)
O2 O 0.17903(7) 0.29135(11) 0.41767(4)
O3 O 0.43837(6) 0.16612(10) 0.51183(4)
O4 O 0.48156(7) 0.27372(10) 0.58301(4)
O5 O 0.45369(7) 0.91691(10) 0.56758(4)
O6 O 0.48620(8) 1.01692(11) 0.64307(4)
O7 O 0.44237(7) 0.76840(10) 0.81340(4)
O8 O 0.36238(8) 0.60379(12) 0.80963(4)
C1 C 0.23143(9) 0.39212(14) 0.49575(6)
C2 C 0.30123(10) 0.31717(14) 0.49935(6)
H1 H 0.3110 0.2552 0.4741
C3 C 0.35679(9) 0.33507(14) 0.54107(6)
C4 C 0.33956(9) 0.42441(14) 0.58028(6)
H2 H 0.3756 0.4341 0.6087
C5 C 0.26933(9) 0.49878(13) 0.57731(6)
C6 C 0.21763(9) 0.48496(14) 0.53366(6)
H3 H 0.1729 0.5389 0.5297
C7 C 0.24146(9) 0.58343(14) 0.62226(6)
H4 H 0.1999 0.6403 0.6085
H5 H 0.2150 0.5314 0.6489
C8 C 0.30685(9) 0.66107(14) 0.64936(6)
C9 C 0.35170(9) 0.75188(14) 0.62182(6)
H6 H 0.3444 0.7601 0.5854
C10 C 0.40705(9) 0.83032(14) 0.64783(6)
C11 C 0.42015(10) 0.81534(14) 0.70237(6)
H7 H 0.4569 0.8677 0.7201
C12 C 0.37797(9) 0.72175(14) 0.72996(6)
C13 C 0.32103(10) 0.64713(14) 0.70344(6)
H8 H 0.2918 0.5866 0.7223
C14 C 0.16872(9) 0.37240(14) 0.45314(6)
C15 C 0.43189(9) 0.25180(14) 0.54538(6)
C16 C 0.45326(10) 0.92912(14) 0.61681(6)
C17 C 0.39444(10) 0.69655(15) 0.78732(6)
Co1D Co -0.062909(12) 0.655985(19) 0.618738(8)
Co1A Co 0.437091(12) 0.655985(19) 0.881262(8)
Co1E Co -0.437091(12) 0.344015(19) 0.118738(8)
Co1C Co 0.562909(12) 0.155985(19) 0.618738(8)
Co1G Co -0.562909(12) 0.844015(19) 0.381262(8)
Co1C_2 Co 0.562909(12) 1.155985(19) 0.618738(8)
Co1G_2 Co -0.562909(12) -0.155985(19) 0.381262(8)
Co2C Co -0.5000 0.0000 0.5000
Co2C_2 Co 0.5000 1.0000 0.5000
Co2C_3 Co -0.5000 1.0000 0.5000
Co2C_4 Co 0.5000 0.0000 0.5000
O1D O -0.10356(6) 0.56055(10) 0.54781(4)
O2D O -0.17903(7) 0.70865(11) 0.58233(4)
O3D O -0.43837(6) 0.83388(10) 0.48817(4)
O3C O -0.06163(6) 0.33388(10) 0.48817(4)
O3G O 0.06163(6) 0.66612(10) 0.51183(4)
O4D O -0.48156(7) 0.72628(10) 0.41699(4)
O4C O -0.01844(7) 0.22628(10) 0.41699(4)
O4G O 0.01844(7) 0.77372(10) 0.58301(4)
O5D O -0.45369(7) 0.08309(10) 0.43242(4)
O5C O -0.04631(7) 0.58309(10) 0.43242(4)
O5G O 0.04631(7) 0.41691(10) 0.56758(4)
O6D O -0.48620(8) -0.01692(11) 0.35693(4)
O6C O -0.01380(8) 0.48308(11) 0.35693(4)
O6G O 0.01380(8) 0.51692(11) 0.64307(4)
O7D O -0.44237(7) 0.23160(10) 0.18660(4)
O7A O 0.05763(7) 0.23160(10) 0.31340(4)
O7E O -0.05763(7) 0.76840(10) 0.68660(4)
O8D O -0.36238(8) 0.39621(12) 0.19037(4)
O8A O 0.13762(8) 0.39621(12) 0.30963(4)
O8E O -0.13762(8) 0.60379(12) 0.69037(4)
C1D C -0.23143(9) 0.60788(14) 0.50425(6)
C2D C -0.30123(10) 0.68283(14) 0.50065(6)
H1D H -0.3110 0.7448 0.5259
C3D C -0.35679(9) 0.66493(14) 0.45893(6)
C4D C -0.33956(9) 0.57559(14) 0.41972(6)
H2D H -0.3756 0.5659 0.3913
C5D C -0.26933(9) 0.50122(13) 0.42269(6)
C6D C -0.21763(9) 0.51504(14) 0.46634(6)
H3D H -0.1729 0.4611 0.4703
C7D C -0.24146(9) 0.41657(14) 0.37774(6)
H4D H -0.1999 0.3597 0.3915
H5D H -0.2150 0.4686 0.3511
C8D C -0.30685(9) 0.33893(14) 0.35064(6)
C9D C -0.35170(9) 0.24812(14) 0.37818(6)
H6D H -0.3444 0.2399 0.4146
C10D C -0.40705(9) 0.16968(14) 0.35217(6)
C11D C -0.42015(10) 0.18466(14) 0.29763(6)
H7D H -0.4569 0.1323 0.2799
C12D C -0.37797(9) 0.27825(14) 0.27004(6)
C13D C -0.32103(10) 0.35287(14) 0.29656(6)
H8D H -0.2918 0.4134 0.2777
C14D C -0.16872(9) 0.62760(14) 0.54686(6)
C15D C -0.43189(9) 0.74820(14) 0.45462(6)
C16D C -0.45326(10) 0.07088(14) 0.38319(6)
C17D C -0.39444(10) 0.30345(15) 0.21268(6)
loop_
_geom_bond_atom_site_label_1
_geom_bond_atom_site_label_2
_geom_bond_site_symmetry_1
_geom_bond_site_symmetry_2
Co1 O1 1_555 1_555
Co2 O1 1_555 1_555
O1 C14 1_555 1_555
O2 Co1 1_555 1_555
O3 C15 1_555 1_555
O4 C15 1_555 1_555
O5 C16 1_555 1_555
O6 C16 1_555 1_555
O7 C17 1_555 1_555
O8 C17 1_555 1_555
C1 C2 1_555 1_555
C2 H1 1_555 1_555
C3 C2 1_555 1_555
C4 C3 1_555 1_555
H2 C4 1_555 1_555
C5 C4 1_555 1_555
C6 C1 1_555 1_555
H3 C6 1_555 1_555
C7 C5 1_555 1_555
H4 C7 1_555 1_555
H5 C7 1_555 1_555
C8 C7 1_555 1_555
C9 C8 1_555 1_555
H6 C9 1_555 1_555
C10 C9 1_555 1_555
C11 C10 1_555 1_555
H7 C11 1_555 1_555
C12 C11 1_555 1_555
C13 C8 1_555 1_555
H8 C13 1_555 1_555
C14 O2 1_555 1_555
C15 C3 1_555 1_555
C16 C10 1_555 1_555
C17 C12 1_555 1_555
Co1D O1D 1_555 1_555
Co1A O7 1_555 1_555
Co1E O7D 1_555 1_555
Co1C O4 1_555 1_555
Co1G O4D 1_555 1_555
Co1C_2 O6 1_555 1_555
Co1G_2 O6D 1_555 1_555
Co2C O5D 1_555 1_555
Co2C_2 O5 1_555 1_555
Co2C_3 O3D 1_555 1_555
Co2C_4 O3 1_555 1_555
O1D Co2 1_555 1_555
O2D Co1D 1_555 1_555
O3D C15D 1_555 1_555
O3C Co2 1_555 1_555
O3G Co2 1_555 1_555
O4D C15D 1_555 1_555
O4C Co1 1_555 1_555
O4G Co1D 1_555 1_555
O5D C16D 1_555 1_555
O5C Co2 1_555 1_555
O5G Co2 1_555 1_555
O6D C16D 1_555 1_555
O6C Co1 1_555 1_555
O6G Co1D 1_555 1_555
O7D C17D 1_555 1_555
O7A Co1 1_555 1_555
O7E Co1D 1_555 1_555
O8D Co1E 1_555 1_555
O8A Co1 1_555 1_555
O8E Co1D 1_555 1_555
C1D C2D 1_555 1_555
C2D H1D 1_555 1_555
C3D C2D 1_555 1_555
C4D C3D 1_555 1_555
H2D C4D 1_555 1_555
C5D C4D 1_555 1_555
C6D C1D 1_555 1_555
H3D C6D 1_555 1_555
C7D C5D 1_555 1_555
H4D C7D 1_555 1_555
H5D C7D 1_555 1_555
C8D C7D 1_555 1_555
C9D C8D 1_555 1_555
H6D C9D 1_555 1_555
C10D C9D 1_555 1_555
C11D C10D 1_555 1_555
H7D C11D 1_555 1_555
C12D C11D 1_555 1_555
C13D C8D 1_555 1_555
H8D C13D 1_555 1_555
C14D O1D 1_555 1_555
C15D C3D 1_555 1_555
C16D C10D 1_555 1_555
C17D O8D 1_555 1_555
O8 Co1A 1_555 1_555
C1 C14 1_555 1_555
C5 C6 1_555 1_555
C12 C13 1_555 1_555
O2D C14D 1_555 1_555
C1D C14D 1_555 1_555
C5D C6D 1_555 1_555
C12D C13D 1_555 1_555
C12D C17D 1_555 1_555

#END
