
#######################################################################
#
#                 Cambridge Crystallographic Data Centre
#                                CCDC 
#
#######################################################################
#
# If this CIF has been generated from an entry in the Cambridge 
# Structural Database, then it will include bibliographic, chemical, 
# crystal, experimental, refinement or atomic coordinate data resulting 
# from the CCDC's data processing and validation procedures.
#
#######################################################################

data_ALIXUP
_chemical_formula_moiety         '(C17 H26 Cu3 O18)n'
_symmetry_cell_setting           orthorhombic
_symmetry_space_group_name_H-M   'P c c n'
_symmetry_Int_Tables_number      56
_space_group_name_Hall           '-P 2ab 2ac'
loop_
_symmetry_equiv_pos_site_id
_symmetry_equiv_pos_as_xyz
1 x,y,z
2 1/2-x,1/2-y,z
3 -x,1/2+y,1/2-z
4 1/2+x,-y,1/2-z
5 -x,-y,-z
6 1/2+x,1/2+y,-z
7 x,1/2-y,1/2+z
8 1/2-x,y,1/2+z
_cell_length_a                   18.4609(10)
_cell_length_b                   18.6553(10)
_cell_length_c                   8.1387(4)
_cell_angle_alpha                90
_cell_angle_beta                 90
_cell_angle_gamma                90
_cell_volume                     2802.92
loop_
_atom_site_label
_atom_site_type_symbol
_atom_site_fract_x
_atom_site_fract_y
_atom_site_fract_z
_atom_site_U_iso_or_equiv
_atom_site_thermal_displace_type
Cu1 Cu 0.06924(3) 0.58564(3) 0.20933(7) 0.0239 Uani
Cu2 Cu 0.5000 0.5000 0.0000 0.0249 Uani
C1 C 0.2128(2) 0.42153(19) 0.2989(5) 0.0192 Uani
C2 C 0.2822(2) 0.4415(2) 0.2542(5) 0.0194 Uani
H1 H 0.2896 0.4833 0.1942 0.0800 Uiso
C3 C 0.3410(2) 0.3993(2) 0.2990(5) 0.0175 Uani
C4 C 0.3301(2) 0.33741(19) 0.3917(4) 0.0173 Uani
H2 H 0.3696 0.3097 0.4230 0.0800 Uiso
C5 C 0.2606(2) 0.31694(19) 0.4376(4) 0.0172 Uani
C6 C 0.2021(2) 0.3586(2) 0.3891(5) 0.0192 Uani
H3 H 0.1554 0.3445 0.4168 0.0800 Uiso
C7 C 0.2500 0.2500 0.5402(6) 0.0200 Uani
H4 H 0.2919 0.2435 0.6105 0.0800 Uiso
C8 C 0.1496(2) 0.4680(2) 0.2544(5) 0.0250 Uani
C9 C 0.4164(2) 0.4202(2) 0.2502(5) 0.0203 Uani
O1 O 0.08743(16) 0.44293(18) 0.2475(5) 0.0345 Uani
O2 O 0.16322(16) 0.53457(15) 0.2273(4) 0.0313 Uani
O3 O 0.42224(16) 0.47229(17) 0.1513(5) 0.0367 Uani
O4 O 0.46729(16) 0.38477(17) 0.3078(4) 0.0289 Uani
O5 O 0.55719(16) 0.41685(14) 0.0533(4) 0.0254 Uani
H5 H 0.554(4) 0.371(2) 0.005(8) 0.0800 Uiso
O6 O 0.0742(2) 0.5877(3) -0.0362(6) 0.0647 Uani
H6 H 0.045(3) 0.619(2) -0.100(8) 0.0800 Uiso
H7 H 0.058(3) 0.5408(14) -0.065(3) 0.0800 Uiso
O7 O 0.1208(2) 0.6989(2) 0.1984(5) 0.0533 Uani
H8 H 0.092(3) 0.731(3) 0.143(7) 0.0800 Uiso
H9 H 0.137(4) 0.720(3) 0.295(5) 0.0800 Uiso
Cu1A Cu 0.43076(3) -0.08564(3) 0.20933(7) 0.0239 Uani
Cu1C Cu 0.56924(3) 0.41436(3) 0.29067(7) 0.0239 Uani
Cu1B Cu -0.06924(3) 0.08564(3) 0.29067(7) 0.0239 Uani
Cu1G Cu 0.43076(3) 0.58564(3) -0.29067(7) 0.0239 Uani
Cu2A Cu 0.0000 0.0000 0.0000 0.0249 Uani
C1A C 0.2872(2) 0.07847(19) 0.2989(5) 0.0192 Uani
C2A C 0.2178(2) 0.0585(2) 0.2542(5) 0.0194 Uani
H1A H 0.2104 0.0167 0.1942 0.0800 Uiso
C3A C 0.1590(2) 0.1007(2) 0.2990(5) 0.0175 Uani
C4A C 0.1699(2) 0.16259(19) 0.3917(4) 0.0173 Uani
H2A H 0.1304 0.1903 0.4230 0.0800 Uiso
C5A C 0.2394(2) 0.18306(19) 0.4376(4) 0.0172 Uani
C6A C 0.2979(2) 0.1414(2) 0.3891(5) 0.0192 Uani
H3A H 0.3446 0.1555 0.4168 0.0800 Uiso
H4A H 0.2081 0.2565 0.6105 0.0800 Uiso
C8A C 0.3504(2) 0.0320(2) 0.2544(5) 0.0250 Uani
C9A C 0.0836(2) 0.0798(2) 0.2502(5) 0.0203 Uani
O1A O 0.41257(16) 0.05707(18) 0.2475(5) 0.0345 Uani
O2A O 0.33678(16) -0.03457(15) 0.2273(4) 0.0313 Uani
O3A O 0.07776(16) 0.02771(17) 0.1513(5) 0.0367 Uani
O3D O 0.57776(16) 0.52771(17) -0.1513(5) 0.0367 Uani
O4A O 0.03271(16) 0.11523(17) 0.3078(4) 0.0289 Uani
O4C O -0.03271(16) 0.61523(17) 0.1922(4) 0.0289 Uani
O4B O 0.53271(16) -0.11523(17) 0.1922(4) 0.0289 Uani
O5D O 0.44281(16) 0.58315(14) -0.0533(4) 0.0254 Uani
O5C O 0.05719(16) 0.58315(14) 0.4467(4) 0.0254 Uani
O5B O 0.44281(16) -0.08315(14) 0.4467(4) 0.0254 Uani
H5D H 0.446(4) 0.629(2) -0.005(8) 0.0800 Uiso
H5C H 0.054(4) 0.629(2) 0.495(8) 0.0800 Uiso
H5B H 0.446(4) -0.129(2) 0.495(8) 0.0800 Uiso
O6A O 0.4258(2) -0.0877(3) -0.0362(6) 0.0647 Uani
H6A H 0.455(3) -0.119(2) -0.100(8) 0.0800 Uiso
H7A H 0.442(3) -0.0408(14) -0.065(3) 0.0800 Uiso
O7A O 0.3792(2) -0.1989(2) 0.1984(5) 0.0533 Uani
H8A H 0.408(3) -0.231(3) 0.143(7) 0.0800 Uiso
H9A H 0.363(4) -0.220(3) 0.295(5) 0.0800 Uiso
O8 O 0.0205(3) 0.7808(2) 0.0355(5) 0.0580 Uani
O9 O 0.0456(3) 0.3027(2) 0.1808(5) 0.0670 Uani
O11 O 0.2435(6) 0.6072(4) 0.4789(14) 0.0797 Uani
O13 O 0.2500 0.7500 0.385(3) 0.1060 Uani
loop_
_atom_site_aniso_label
_atom_site_aniso_U_11
_atom_site_aniso_U_22
_atom_site_aniso_U_33
_atom_site_aniso_U_23
_atom_site_aniso_U_13
_atom_site_aniso_U_12
Cu1 0.0156(3) 0.0219(3) 0.0343(3) 0.0008(2) -0.00098(19) 0.00453(18)
Cu2 0.0202 0.0202 0.0343 0.0065 0.0043 0
C1 0.0193(19) 0.0158(18) 0.0226(19) -0.0058(14) 0.0012(15) 0.0010(14)
C2 0.0181(18) 0.0169(17) 0.0233(18) -0.0007(15) 0.0007(15) -0.0016(15)
C3 0.0125(17) 0.0181(17) 0.0218(18) -0.0027(14) -0.0012(14) -0.0033(14)
C4 0.0173(18) 0.0173(17) 0.0174(17) -0.0023(14) -0.0023(14) -0.0009(14)
C5 0.024(2) 0.0153(17) 0.0124(17) -0.0022(13) 0.0005(14) -0.0049(14)
C6 0.0158(17) 0.0209(18) 0.0210(18) -0.0075(15) 0.0061(14) -0.0021(14)
C7 0.026(3) 0.015(2) 0.019(3) 0.000 0.000 -0.005(2)
C8 0.019(2) 0.0231(19) 0.033(2) -0.0046(17) 0.0026(16) 0.0032(16)
C9 0.0152(18) 0.020(2) 0.0257(19) -0.0003(15) 0.0004(15) -0.0039(15)
O1 0.0169(14) 0.0266(16) 0.060(2) -0.0041(15) -0.0037(14) 0.0031(13)
O2 0.0189(14) 0.0201(14) 0.055(2) 0.0045(13) 0.0010(14) 0.0061(12)
O3 0.0203(15) 0.0277(16) 0.062(2) 0.0193(15) 0.0101(15) 0.0033(12)
O4 0.0164(14) 0.0343(16) 0.0360(17) 0.0115(13) -0.0002(12) -0.0022(12)
O5 0.023 0.0192 0.034 0.006 0.0019 0.001
O6 0.053(3) 0.087(3) 0.054(3) -0.010(2) 0.002(2) 0.014(2)
O7 0.059(3) 0.034(2) 0.067(3) 0.0070(18) -0.004(2) -0.0098(18)
Cu1A 0.0156 0.0219 0.0343 -0.0008 0.00098 0.00453
Cu1C 0.0156 0.0219 0.0343 0.0008 0.00098 -0.00453
Cu1B 0.0156 0.0219 0.0343 -0.0008 -0.00098 -0.00453
Cu1G 0.0156 0.0219 0.0343 0.0008 0.00098 -0.00453
Cu2A 0.0202 0.0202 0.0343 -0.0065 -0.0043 0
C1A 0.0193 0.0158 0.0226 0.0058 -0.0012 0.001
C2A 0.0181 0.0169 0.0233 0.0007 -0.0007 -0.0016
C3A 0.0125 0.0181 0.0218 0.0027 0.0012 -0.0033
C4A 0.0173 0.0173 0.0174 0.0023 0.0023 -0.0009
C5A 0.024 0.0153 0.0124 0.0022 -0.0005 -0.0049
C6A 0.0158 0.0209 0.021 0.0075 -0.0061 -0.0021
C8A 0.019 0.0231 0.033 0.0046 -0.0026 0.0032
C9A 0.0152 0.02 0.0257 0.0003 -0.0004 -0.0039
O1A 0.0169 0.0266 0.06 0.0041 0.0037 0.0031
O2A 0.0189 0.0201 0.055 -0.0045 -0.001 0.0061
O3A 0.0203 0.0277 0.062 -0.0193 -0.0101 0.0033
O3D 0.0203 0.0277 0.062 0.0193 0.0101 0.0033
O4A 0.0164 0.0343 0.036 -0.0115 0.0002 -0.0022
O4C 0.0164 0.0343 0.036 0.0115 0.0002 0.0022
O4B 0.0164 0.0343 0.036 -0.0115 -0.0002 0.0022
O5D 0.023 0.0192 0.034 0.006 0.0019 0.001
O5C 0.0230(14) 0.0192(14) 0.0340(16) 0.0060(12) -0.0019(12) -0.0010(11)
O5B 0.023 0.0192 0.034 -0.006 0.0019 -0.001
O6A 0.053 0.087 0.054 0.01 -0.002 0.014
O7A 0.059 0.034 0.067 -0.007 0.004 -0.0098
O8 0.088(3) 0.034(2) 0.052(2) 0.0042(17) -0.004(2) -0.007(2)
O9 0.085(3) 0.061(3) 0.055(3) -0.005(2) 0.001(2) -0.034(2)
O11 0.087(7) 0.037(4) 0.115(8) -0.019(5) -0.077(6) 0.014(4)
O13 0.111(13) 0.073(9) 0.134(14) 0.000 0.000 -0.007(10)
loop_
_geom_bond_atom_site_label_1
_geom_bond_atom_site_label_2
_geom_bond_site_symmetry_1
_geom_bond_site_symmetry_2
Cu1 O2 1_555 1_555
Cu2 O3 1_555 1_555
C1 C2 1_555 1_555
C2 H1 1_555 1_555
C3 C2 1_555 1_555
C4 C3 1_555 1_555
H2 C4 1_555 1_555
C5 C4 1_555 1_555
C6 C1 1_555 1_555
H3 C6 1_555 1_555
C7 C5 1_555 1_555
H4 C7 1_555 1_555
C8 C1 1_555 1_555
C9 C3 1_555 1_555
O1 C8 1_555 1_555
O2 C8 1_555 1_555
O3 C9 1_555 1_555
O4 C9 1_555 1_555
O5 Cu2 1_555 1_555
H5 O5 1_555 1_555
O6 Cu1 1_555 1_555
H6 O6 1_555 1_555
H7 O6 1_555 1_555
O7 Cu1 1_555 1_555
H8 O7 1_555 1_555
H9 O7 1_555 1_555
Cu1A O2A 1_555 1_555
Cu1C O4 1_555 1_555
Cu1B O4A 1_555 1_555
Cu1G O5D 1_555 1_555
Cu2A O3A 1_555 1_555
C1A C2A 1_555 1_555
C2A H1A 1_555 1_555
C3A C2A 1_555 1_555
C4A C3A 1_555 1_555
H2A C4A 1_555 1_555
C5A C7 1_555 1_555
C6A C1A 1_555 1_555
H3A C6A 1_555 1_555
H4A C7 1_555 1_555
C8A C1A 1_555 1_555
C9A C3A 1_555 1_555
O1A C8A 1_555 1_555
O2A C8A 1_555 1_555
O3A C9A 1_555 1_555
O3D Cu2 1_555 1_555
O4A C9A 1_555 1_555
O4C Cu1 1_555 1_555
O4B Cu1A 1_555 1_555
O5D Cu2 1_555 1_555
O5C Cu1 1_555 1_555
O5B Cu1A 1_555 1_555
H5D O5D 1_555 1_555
H5C O5C 1_555 1_555
H5B O5B 1_555 1_555
O6A Cu1A 1_555 1_555
H6A O6A 1_555 1_555
H7A O6A 1_555 1_555
O7A Cu1A 1_555 1_555
H8A O7A 1_555 1_555
H9A O7A 1_555 1_555
C5 C6 1_555 1_555
O5 Cu1C 1_555 1_555
C4A C5A 1_555 1_555
C5A C6A 1_555 1_555

#END
