
#######################################################################
#
#                 Cambridge Crystallographic Data Centre
#                                CCDC 
#
#######################################################################
#
# If this CIF has been generated from an entry in the Cambridge 
# Structural Database, then it will include bibliographic, chemical, 
# crystal, experimental, refinement or atomic coordinate data resulting 
# from the CCDC's data processing and validation procedures.
#
#######################################################################

data_BUCWAZ
_chemical_formula_moiety         '(C62 H61 Cd5 N3 O31)n'
_symmetry_cell_setting           monoclinic
_symmetry_space_group_name_H-M   'P 21'
_symmetry_Int_Tables_number      4
_space_group_name_Hall           'P 2yb'
loop_
_symmetry_equiv_pos_site_id
_symmetry_equiv_pos_as_xyz
1 x,y,z
2 -x,1/2+y,-z
_cell_length_a                   14.1512(8)
_cell_length_b                   14.5076(10)
_cell_length_c                   25.8073(18)
_cell_angle_alpha                90
_cell_angle_beta                 92.166(5)
_cell_angle_gamma                90
_cell_volume                     5294.45
loop_
_atom_site_label
_atom_site_type_symbol
_atom_site_fract_x
_atom_site_fract_y
_atom_site_fract_z
N1 N 0.2887(8) 0.0169(12) -0.2300(5)
C1 C 0.3578(12) 0.0691(17) -0.2574(8)
H1 H 0.3629 0.0439 -0.2915
H2 H 0.4182 0.0657 -0.2392
H3 H 0.3382 0.1324 -0.2600
C2 C 0.2566(14) -0.0694(16) -0.2505(8)
H4 H 0.3099 -0.1090 -0.2553
H5 H 0.2231 -0.0601 -0.2831
H6 H 0.2152 -0.0973 -0.2264
C3 C 0.2500(9) 0.0480(10) -0.1824(6)
C4 C 0.1814(11) -0.0115(12) -0.1593(7)
H7 H 0.1562 -0.0533 -0.1851
H8 H 0.1308 0.0236 -0.1453
H9 H 0.2131 -0.0458 -0.1319
O1 O 0.2833(8) 0.1262(10) -0.1676(4)
Cd1 Cd 0.83713(4) 0.20975(4) 0.37585(2)
Cd2 Cd 0.74983(4) 0.29244(5) 0.50026(2)
Cd3 Cd 0.66325(4) 0.37456(4) 0.62474(2)
Cd4 Cd 0.24669(4) 0.05431(5) 0.01853(2)
Cd5 Cd 0.32825(5) 0.16586(6) -0.08857(3)
O2 O 0.7054(4) 0.2782(6) 0.3542(2)
O3 O 0.6553(4) 0.3259(5) 0.4315(2)
O4 O 0.2000(3) 0.6597(4) 0.5398(2)
O5 O 0.0625(4) 0.6156(6) 0.5689(3)
O6 O -0.1267(4) 0.3787(5) 0.4711(2)
O7 O -0.0731(5) 0.3294(6) 0.3956(3)
O8 O 0.3302(5) 0.1527(5) 0.0667(3)
O9 O 0.3815(5) 0.2028(6) -0.0071(3)
O10 O 0.6238(5) 0.4467(6) -0.0108(3)
O11 O 0.6679(5) 0.5164(6) 0.0602(3)
O12 O -0.1543(4) 0.2604(5) 0.5695(2)
O13 O -0.2027(4) 0.3027(5) 0.6455(2)
O14 O -0.1812(5) 0.4742(6) 0.9135(2)
O15 O -0.1349(4) 0.4365(5) 0.9936(3)
O16 O 0.1091(5) 0.1809(7) 1.0167(3)
O17 O 0.1855(4) 0.1390(5) 0.9495(3)
O18 O 0.5710(4) 0.2580(5) 0.6037(3)
O19 O 0.6272(4) 0.2070(5) 0.5298(2)
O20 O 0.4367(4) -0.0280(5) 0.4294(2)
O21 O 0.3023(3) -0.0786(4) 0.4589(2)
O22 O 0.2464(4) 0.4532(5) 0.3835(2)
O23 O 0.4811(5) 0.3743(6) 0.1984(3)
O24 O -0.0023(5) 0.2717(7) 0.7988(2)
O25 O 0.2509(3) 0.1324(5) 0.6155(2)
O26 O 0.7835(6) 0.0668(7) 0.3502(3)
O27 O 0.7234(5) 0.5217(6) 0.6492(3)
O28 O 0.9090(7) 0.2045(12) 0.3005(4)
H10 H 0.9408 0.2536 0.2967
H11 H 0.9460 0.1584 0.3016
O29 O 0.5969(6) 0.3835(8) 0.7035(3)
H12 H 0.5656 0.3345 0.7082
H13 H 0.6404 0.3884 0.7270
O30 O 0.2938(11) 0.3112(8) -0.1134(5)
H14 H 0.3219 0.3240 -0.1410
H15 H 0.2345 0.3163 -0.1188
O31 O 0.4829(6) 0.1672(11) -0.1083(4)
H16 H 0.4897 0.1978 -0.1361
H17 H 0.5147 0.1925 -0.0836
N2 N 0.7464(11) -0.0591(12) 0.3999(5)
N3 N 0.7476(8) 0.6434(9) 0.5985(4)
C5 C 0.6450(6) 0.3157(7) 0.3829(4)
C6 C 0.5543(5) 0.3466(7) 0.3574(3)
C7 C 0.5316(5) 0.3235(7) 0.3073(3)
H18 H 0.5737 0.2890 0.2885
C8 C 0.4448(6) 0.3513(7) 0.2838(3)
C9 C 0.3858(6) 0.4065(8) 0.3122(4)
H19 H 0.3299 0.4285 0.2966
C10 C 0.4090(5) 0.4301(8) 0.3647(3)
C11 C 0.4914(5) 0.3992(6) 0.3865(3)
H20 H 0.5068 0.4128 0.4210
C12 C 0.3401(5) 0.4875(7) 0.3948(4)
H21 H 0.3551 0.4829 0.4317
H22 H 0.3443 0.5517 0.3847
C13 C 0.1765(5) 0.4744(7) 0.4178(3)
C14 C 0.1853(5) 0.5363(7) 0.4569(3)
H23 H 0.2407 0.5706 0.4610
C15 C 0.1129(5) 0.5494(7) 0.4911(3)
C16 C 0.1260(6) 0.6135(7) 0.5354(4)
C17 C 0.0313(5) 0.4954(6) 0.4840(3)
H24 H -0.0172 0.5008 0.5071
C18 C 0.0218(5) 0.4335(6) 0.4423(3)
C19 C -0.0667(5) 0.3742(6) 0.4361(4)
C20 C 0.0941(5) 0.4248(6) 0.4108(3)
H25 H 0.0884 0.3839 0.3831
C21 C 0.4310(6) 0.2892(8) 0.1214(4)
H26 H 0.3934 0.2507 0.1407
C22 C 0.4345(6) 0.2771(7) 0.0676(3)
C23 C 0.3783(6) 0.2037(7) 0.0406(4)
C24 C 0.4940(7) 0.3336(7) 0.0416(4)
H27 H 0.4977 0.3263 0.0059
C25 C 0.5505(6) 0.4030(7) 0.0665(4)
C26 C 0.6176(6) 0.4565(8) 0.0363(4)
C27 C 0.5376(7) 0.4145(8) 0.1186(4)
H28 H 0.5676 0.4632 0.1360
C28 C 0.4825(6) 0.3568(8) 0.1453(3)
C29 C 0.4212(6) 0.3270(7) 0.2296(3)
H29 H 0.4285 0.2612 0.2245
H30 H 0.3561 0.3434 0.2208
C30 C -0.1470(5) 0.2670(6) 0.6150(3)
C31 C -0.0576(5) 0.2281(6) 0.6417(3)
C32 C -0.0428(6) 0.2341(8) 0.6943(3)
H31 H -0.0894 0.2596 0.7144
C33 C 0.0420(6) 0.2020(9) 0.7187(3)
C34 C 0.1044(6) 0.1544(8) 0.6893(3)
H32 H 0.1579 0.1286 0.7055
C35 C 0.0905(5) 0.1434(7) 0.6367(3)
C36 C 0.0069(5) 0.1811(7) 0.6134(3)
H33 H -0.0046 0.1737 0.5780
C37 C 0.0594(8) 0.2033(11) 0.7762(4)
H34 H 0.0467 0.1429 0.7905
H35 H 0.1250 0.2186 0.7844
C38 C 0.0022(7) 0.2806(9) 0.8506(3)
C39 C -0.0607(6) 0.3458(8) 0.8716(3)
H36 H -0.0993 0.3819 0.8499
C40 C -0.0637(7) 0.3545(7) 0.9230(4)
C41 C -0.1331(7) 0.4240(8) 0.9453(4)
C42 C -0.0030(6) 0.3028(7) 0.9555(3)
H37 H -0.0057 0.3098 0.9913
C43 C 0.0589(6) 0.2436(7) 0.9363(3)
C44 C 0.1207(6) 0.1850(8) 0.9716(3)
C45 C 0.0647(6) 0.2359(9) 0.8832(3)
H38 H 0.1119 0.1997 0.8695
C46 C 0.4033(5) 0.1641(6) 0.5892(3)
H39 H 0.4084 0.2064 0.6162
C47 C 0.4791(5) 0.1519(6) 0.5555(3)
C48 C 0.5673(5) 0.2096(6) 0.5637(4)
C49 C 0.4683(5) 0.0907(6) 0.5137(3)
H40 H 0.5155 0.0854 0.4898
C50 C 0.3881(5) 0.0389(6) 0.5084(3)
C51 C 0.3785(5) -0.0247(6) 0.4649(3)
C52 C 0.3127(5) 0.0478(7) 0.5423(3)
H41 H 0.2588 0.0115 0.5383
C53 C 0.3215(5) 0.1124(6) 0.5816(4)
C54 C 0.1583(5) 0.0908(8) 0.6047(4)
H42 H 0.1588 0.0262 0.6142
H43 H 0.1406 0.0960 0.5681
C55 C 0.8384(12) -0.1015(12) 0.3888(7)
H44 H 0.8838 -0.0539 0.3828
H45 H 0.8313 -0.1396 0.3585
H46 H 0.8597 -0.1384 0.4178
C56 C 0.6848(13) -0.1086(14) 0.4320(7)
H47 H 0.6905 -0.0852 0.4668
H48 H 0.7015 -0.1728 0.4319
H49 H 0.6208 -0.1014 0.4190
C57 C 0.7251(11) 0.0260(12) 0.3786(5)
C58 C 0.6321(9) 0.0629(13) 0.3918(6)
H50 H 0.6294 0.0690 0.4288
H51 H 0.5833 0.0216 0.3794
H52 H 0.6230 0.1222 0.3759
C59 C 0.8073(11) 0.6894(12) 0.5649(6)
H53 H 0.8501 0.7281 0.5848
H54 H 0.7700 0.7265 0.5411
H55 H 0.8426 0.6450 0.5460
C60 C 0.6577(10) 0.6801(11) 0.6110(6)
H56 H 0.6232 0.6350 0.6298
H57 H 0.6227 0.6959 0.5796
H58 H 0.6666 0.7343 0.6319
C61 C 0.7795(8) 0.5619(9) 0.6188(4)
C62 C 0.8708(8) 0.5249(11) 0.6054(6)
H59 H 0.8841 0.4704 0.6254
H60 H 0.9191 0.5701 0.6127
H61 H 0.8696 0.5099 0.5691
Cd1_2 Cd -0.16287(4) 0.20975(4) 0.37585(2)
Cd1A Cd 0.16287(4) 0.70975(4) 0.62415(2)
Cd2_2 Cd -0.25017(4) 0.29244(5) 0.50026(2)
Cd2A Cd 0.25017(4) -0.20756(5) 0.49974(2)
Cd2A_2 Cd 0.25017(4) 0.79244(5) 0.49974(2)
Cd3_2 Cd -0.33675(4) 0.37456(4) 0.62474(2)
Cd3A Cd 0.33675(4) -0.12544(4) 0.37526(2)
Cd4_2 Cd 0.24669(4) 0.05431(5) 1.01853(2)
Cd4A Cd -0.24669(4) 0.55431(5) 0.98147(2)
Cd4A_2 Cd 0.75331(4) 0.55431(5) -0.01853(2)
Cd5_2 Cd 0.32825(5) 0.16586(6) 0.91143(3)
Cd5A Cd 0.67175(5) 0.66586(6) 0.08857(3)
O4A O 0.8000(3) 0.1597(4) 0.4602(2)
O5A O 0.9375(4) 0.1156(6) 0.4311(3)
O6_2 O 0.8733(4) 0.3787(5) 0.4711(2)
O7_2 O 0.9269(5) 0.3294(6) 0.3956(3)
O10A O 0.3762(5) -0.0533(6) 0.0108(3)
O11A O 0.3321(5) 0.0164(6) -0.0602(3)
O12_2 O 0.8457(4) 0.2604(5) 0.5695(2)
O13_2 O 0.7973(4) 0.3027(5) 0.6455(2)
O14A O 0.1812(5) -0.0258(6) 0.0865(2)
O15A O 0.1349(4) -0.0635(5) 0.0064(3)
O16_2 O 0.1091(5) 0.1809(7) 0.0167(3)
O17_2 O 0.1855(4) 0.1390(5) -0.0505(3)
O20A O 0.5633(4) 0.4720(5) 0.5706(2)
O21A O 0.6977(3) 0.4214(4) 0.5411(2)
loop_
_geom_bond_atom_site_label_1
_geom_bond_atom_site_label_2
_geom_bond_site_symmetry_1
_geom_bond_site_symmetry_2
N1 C1 1_555 1_555
C1 H1 1_555 1_555
H2 C1 1_555 1_555
H3 C1 1_555 1_555
C2 N1 1_555 1_555
H4 C2 1_555 1_555
H5 C2 1_555 1_555
H6 C2 1_555 1_555
C3 N1 1_555 1_555
C4 C3 1_555 1_555
H7 C4 1_555 1_555
H8 C4 1_555 1_555
H9 C4 1_555 1_555
O1 C3 1_555 1_555
Cd1 O2 1_555 1_555
Cd2 O3 1_555 1_555
Cd3 O18 1_555 1_555
Cd4 O8 1_555 1_555
Cd5 O1 1_555 1_555
O2 C5 1_555 1_555
O3 C5 1_555 1_555
O4 C16 1_555 1_555
O5 C16 1_555 1_555
O6 C19 1_555 1_555
O7 C19 1_555 1_555
O8 C23 1_555 1_555
O9 Cd5 1_555 1_555
O10 C26 1_555 1_555
O11 C26 1_555 1_555
O12 C30 1_555 1_555
O13 C30 1_555 1_555
O14 C41 1_555 1_555
O15 C41 1_555 1_555
O16 C44 1_555 1_555
O17 C44 1_555 1_555
O18 C48 1_555 1_555
O19 Cd2 1_555 1_555
O20 C51 1_555 1_555
O21 C51 1_555 1_555
O22 C12 1_555 1_555
O23 C28 1_555 1_555
O24 C37 1_555 1_555
O25 C53 1_555 1_555
O26 Cd1 1_555 1_555
O27 Cd3 1_555 1_555
O28 Cd1 1_555 1_555
H10 O28 1_555 1_555
H11 O28 1_555 1_555
O29 Cd3 1_555 1_555
H12 O29 1_555 1_555
H13 O29 1_555 1_555
O30 Cd5 1_555 1_555
H14 O30 1_555 1_555
H15 O30 1_555 1_555
O31 Cd5 1_555 1_555
H16 O31 1_555 1_555
H17 O31 1_555 1_555
N2 C55 1_555 1_555
N3 C59 1_555 1_555
C5 C6 1_555 1_555
C6 C7 1_555 1_555
C7 H18 1_555 1_555
C8 C7 1_555 1_555
C9 C8 1_555 1_555
H19 C9 1_555 1_555
C10 C9 1_555 1_555
C11 C6 1_555 1_555
H20 C11 1_555 1_555
C12 C10 1_555 1_555
H21 C12 1_555 1_555
H22 C12 1_555 1_555
C13 O22 1_555 1_555
C14 C13 1_555 1_555
H23 C14 1_555 1_555
C15 C14 1_555 1_555
C16 C15 1_555 1_555
C17 C15 1_555 1_555
H24 C17 1_555 1_555
C18 C17 1_555 1_555
C19 C18 1_555 1_555
C20 C13 1_555 1_555
H25 C20 1_555 1_555
C21 H26 1_555 1_555
C22 C21 1_555 1_555
C23 O9 1_555 1_555
C24 C22 1_555 1_555
H27 C24 1_555 1_555
C25 C24 1_555 1_555
C26 C25 1_555 1_555
C27 C25 1_555 1_555
H28 C27 1_555 1_555
C28 C21 1_555 1_555
C29 O23 1_555 1_555
H29 C29 1_555 1_555
H30 C29 1_555 1_555
C30 C31 1_555 1_555
C31 C32 1_555 1_555
C32 H31 1_555 1_555
C33 C32 1_555 1_555
C34 C33 1_555 1_555
H32 C34 1_555 1_555
C35 C34 1_555 1_555
C36 C31 1_555 1_555
H33 C36 1_555 1_555
C37 C33 1_555 1_555
H34 C37 1_555 1_555
H35 C37 1_555 1_555
C38 O24 1_555 1_555
C39 C38 1_555 1_555
H36 C39 1_555 1_555
C40 C39 1_555 1_555
C41 C40 1_555 1_555
C42 C40 1_555 1_555
H37 C42 1_555 1_555
C43 C42 1_555 1_555
C44 C43 1_555 1_555
C45 C38 1_555 1_555
H38 C45 1_555 1_555
C46 H39 1_555 1_555
C47 C46 1_555 1_555
C48 O19 1_555 1_555
C49 C47 1_555 1_555
H40 C49 1_555 1_555
C50 C49 1_555 1_555
C51 C50 1_555 1_555
C52 C50 1_555 1_555
H41 C52 1_555 1_555
C53 C46 1_555 1_555
C54 O25 1_555 1_555
H42 C54 1_555 1_555
H43 C54 1_555 1_555
C55 H44 1_555 1_555
H45 C55 1_555 1_555
H46 C55 1_555 1_555
C56 N2 1_555 1_555
H47 C56 1_555 1_555
H48 C56 1_555 1_555
H49 C56 1_555 1_555
C57 O26 1_555 1_555
C58 C57 1_555 1_555
H50 C58 1_555 1_555
H51 C58 1_555 1_555
H52 C58 1_555 1_555
C59 H53 1_555 1_555
H54 C59 1_555 1_555
H55 C59 1_555 1_555
C60 N3 1_555 1_555
H56 C60 1_555 1_555
H57 C60 1_555 1_555
H58 C60 1_555 1_555
C61 O27 1_555 1_555
C62 C61 1_555 1_555
H59 C62 1_555 1_555
H60 C62 1_555 1_555
H61 C62 1_555 1_555
Cd1_2 O7 1_555 1_555
Cd1A O4 1_555 1_555
Cd2_2 O6 1_555 1_555
Cd2A O21 1_555 1_555
Cd2A_2 O4 1_555 1_555
Cd3_2 O13 1_555 1_555
Cd3A O20 1_555 1_555
Cd4_2 O16 1_555 1_555
Cd4A O14 1_555 1_555
Cd4A_2 O10 1_555 1_555
Cd5_2 O17 1_555 1_555
Cd5A O11 1_555 1_555
O4A Cd1 1_555 1_555
O5A Cd1 1_555 1_555
O6_2 Cd2 1_555 1_555
O7_2 Cd1 1_555 1_555
O10A Cd4 1_555 1_555
O11A Cd4 1_555 1_555
O12_2 Cd2 1_555 1_555
O13_2 Cd3 1_555 1_555
O14A Cd4 1_555 1_555
O15A Cd4 1_555 1_555
O16_2 Cd4 1_555 1_555
O17_2 Cd4 1_555 1_555
O20A Cd3 1_555 1_555
O21A Cd2 1_555 1_555
Cd2 O4A 1_555 1_555
Cd3 O21A 1_555 1_555
Cd5 O11A 1_555 1_555
Cd5 O17_2 1_555 1_555
O5 Cd1A 1_555 1_555
O11 Cd4A_2 1_555 1_555
O12 Cd2_2 1_555 1_555
O15 Cd4A 1_555 1_555
O17 Cd4_2 1_555 1_555
O21 Cd3A 1_555 1_555
N2 C57 1_555 1_555
N3 C61 1_555 1_555
C8 C29 1_555 1_555
C10 C11 1_555 1_555
C18 C20 1_555 1_555
C22 C23 1_555 1_555
C27 C28 1_555 1_555
C35 C36 1_555 1_555
C35 C54 1_555 1_555
C43 C45 1_555 1_555
C47 C48 1_555 1_555
C52 C53 1_555 1_555

#END
