
#######################################################################
#
#                 Cambridge Crystallographic Data Centre
#                                CCDC 
#
#######################################################################
#
# If this CIF has been generated from an entry in the Cambridge 
# Structural Database, then it will include bibliographic, chemical, 
# crystal, experimental, refinement or atomic coordinate data resulting 
# from the CCDC's data processing and validation procedures.
#
#######################################################################

data_GISGEW
_chemical_formula_moiety         'C66 O21 Zn11'
_symmetry_cell_setting           cubic
_symmetry_space_group_name_H-M   'F m -3 m'
_symmetry_Int_Tables_number      225
_space_group_name_Hall           '-F 4 2 3'
loop_
_symmetry_equiv_pos_site_id
_symmetry_equiv_pos_as_xyz
1 x,y,z
2 -y,x,z
3 -x,-y,z
4 y,-x,z
5 x,-z,y
6 x,-y,-z
7 x,z,-y
8 z,y,-x
9 -x,y,-z
10 -z,y,x
11 z,x,y
12 y,z,x
13 -y,-z,x
14 z,-x,-y
15 -y,z,-x
16 -z,-x,y
17 -z,x,-y
18 y,-z,-x
19 y,x,-z
20 -y,-x,-z
21 -x,z,y
22 -x,-z,-y
23 z,-y,x
24 -z,-y,-x
25 x,1/2+y,1/2+z
26 -y,1/2+x,1/2+z
27 -x,1/2-y,1/2+z
28 y,1/2-x,1/2+z
29 x,1/2-z,1/2+y
30 x,1/2-y,1/2-z
31 x,1/2+z,1/2-y
32 z,1/2+y,1/2-x
33 -x,1/2+y,1/2-z
34 -z,1/2+y,1/2+x
35 z,1/2+x,1/2+y
36 y,1/2+z,1/2+x
37 -y,1/2-z,1/2+x
38 z,1/2-x,1/2-y
39 -y,1/2+z,1/2-x
40 -z,1/2-x,1/2+y
41 -z,1/2+x,1/2-y
42 y,1/2-z,1/2-x
43 y,1/2+x,1/2-z
44 -y,1/2-x,1/2-z
45 -x,1/2+z,1/2+y
46 -x,1/2-z,1/2-y
47 z,1/2-y,1/2+x
48 -z,1/2-y,1/2-x
49 1/2+x,y,1/2+z
50 1/2-y,x,1/2+z
51 1/2-x,-y,1/2+z
52 1/2+y,-x,1/2+z
53 1/2+x,-z,1/2+y
54 1/2+x,-y,1/2-z
55 1/2+x,z,1/2-y
56 1/2+z,y,1/2-x
57 1/2-x,y,1/2-z
58 1/2-z,y,1/2+x
59 1/2+z,x,1/2+y
60 1/2+y,z,1/2+x
61 1/2-y,-z,1/2+x
62 1/2+z,-x,1/2-y
63 1/2-y,z,1/2-x
64 1/2-z,-x,1/2+y
65 1/2-z,x,1/2-y
66 1/2+y,-z,1/2-x
67 1/2+y,x,1/2-z
68 1/2-y,-x,1/2-z
69 1/2-x,z,1/2+y
70 1/2-x,-z,1/2-y
71 1/2+z,-y,1/2+x
72 1/2-z,-y,1/2-x
73 1/2+x,1/2+y,z
74 1/2-y,1/2+x,z
75 1/2-x,1/2-y,z
76 1/2+y,1/2-x,z
77 1/2+x,1/2-z,y
78 1/2+x,1/2-y,-z
79 1/2+x,1/2+z,-y
80 1/2+z,1/2+y,-x
81 1/2-x,1/2+y,-z
82 1/2-z,1/2+y,x
83 1/2+z,1/2+x,y
84 1/2+y,1/2+z,x
85 1/2-y,1/2-z,x
86 1/2+z,1/2-x,-y
87 1/2-y,1/2+z,-x
88 1/2-z,1/2-x,y
89 1/2-z,1/2+x,-y
90 1/2+y,1/2-z,-x
91 1/2+y,1/2+x,-z
92 1/2-y,1/2-x,-z
93 1/2-x,1/2+z,y
94 1/2-x,1/2-z,-y
95 1/2+z,1/2-y,x
96 1/2-z,1/2-y,-x
97 -x,-y,-z
98 y,-x,-z
99 x,y,-z
100 -y,x,-z
101 -x,z,-y
102 -x,y,z
103 -x,-z,y
104 -z,-y,x
105 x,-y,z
106 z,-y,-x
107 -z,-x,-y
108 -y,-z,-x
109 y,z,-x
110 -z,x,y
111 y,-z,x
112 z,x,-y
113 z,-x,y
114 -y,z,x
115 -y,-x,z
116 y,x,z
117 x,-z,-y
118 x,z,y
119 -z,y,-x
120 z,y,x
121 -x,1/2-y,1/2-z
122 y,1/2-x,1/2-z
123 x,1/2+y,1/2-z
124 -y,1/2+x,1/2-z
125 -x,1/2+z,1/2-y
126 -x,1/2+y,1/2+z
127 -x,1/2-z,1/2+y
128 -z,1/2-y,1/2+x
129 x,1/2-y,1/2+z
130 z,1/2-y,1/2-x
131 -z,1/2-x,1/2-y
132 -y,1/2-z,1/2-x
133 y,1/2+z,1/2-x
134 -z,1/2+x,1/2+y
135 y,1/2-z,1/2+x
136 z,1/2+x,1/2-y
137 z,1/2-x,1/2+y
138 -y,1/2+z,1/2+x
139 -y,1/2-x,1/2+z
140 y,1/2+x,1/2+z
141 x,1/2-z,1/2-y
142 x,1/2+z,1/2+y
143 -z,1/2+y,1/2-x
144 z,1/2+y,1/2+x
145 1/2-x,-y,1/2-z
146 1/2+y,-x,1/2-z
147 1/2+x,y,1/2-z
148 1/2-y,x,1/2-z
149 1/2-x,z,1/2-y
150 1/2-x,y,1/2+z
151 1/2-x,-z,1/2+y
152 1/2-z,-y,1/2+x
153 1/2+x,-y,1/2+z
154 1/2+z,-y,1/2-x
155 1/2-z,-x,1/2-y
156 1/2-y,-z,1/2-x
157 1/2+y,z,1/2-x
158 1/2-z,x,1/2+y
159 1/2+y,-z,1/2+x
160 1/2+z,x,1/2-y
161 1/2+z,-x,1/2+y
162 1/2-y,z,1/2+x
163 1/2-y,-x,1/2+z
164 1/2+y,x,1/2+z
165 1/2+x,-z,1/2-y
166 1/2+x,z,1/2+y
167 1/2-z,y,1/2-x
168 1/2+z,y,1/2+x
169 1/2-x,1/2-y,-z
170 1/2+y,1/2-x,-z
171 1/2+x,1/2+y,-z
172 1/2-y,1/2+x,-z
173 1/2-x,1/2+z,-y
174 1/2-x,1/2+y,z
175 1/2-x,1/2-z,y
176 1/2-z,1/2-y,x
177 1/2+x,1/2-y,z
178 1/2+z,1/2-y,-x
179 1/2-z,1/2-x,-y
180 1/2-y,1/2-z,-x
181 1/2+y,1/2+z,-x
182 1/2-z,1/2+x,y
183 1/2+y,1/2-z,x
184 1/2+z,1/2+x,-y
185 1/2+z,1/2-x,y
186 1/2-y,1/2+z,x
187 1/2-y,1/2-x,z
188 1/2+y,1/2+x,z
189 1/2+x,1/2-z,-y
190 1/2+x,1/2+z,y
191 1/2-z,1/2+y,-x
192 1/2+z,1/2+y,x
_cell_length_a                   34.250(19)
_cell_length_b                   34.250(19)
_cell_length_c                   34.250(19)
_cell_angle_alpha                90
_cell_angle_beta                 90
_cell_angle_gamma                90
_cell_volume                     40177.4
loop_
_atom_site_label
_atom_site_type_symbol
_atom_site_fract_x
_atom_site_fract_y
_atom_site_fract_z
_atom_site_U_iso_or_equiv
_atom_site_thermal_displace_type
Zn1 Zn 0.28292(11) 0.21708(11) 0.21708(11) 0.1090 Uani
O1 O 0.2500 0.2500 0.2500 0.1100 Uani
O2 O 0.2726(5) 0.2274(5) 0.1630(6) 0.1320 Uani
C1 C 0.2714(16) 0.2286(16) 0.083(2) 0.2500 Uiso
C2 C 0.2500 0.2500 0.100(3) 0.1900 Uiso
C3 C 0.2500 0.2500 0.145(2) 0.1130 Uiso
C4 C 0.2500 0.2500 0.0192(12) 0.1700 Uiso
C5 C 0.2733(13) 0.2267(13) 0.047(2) 0.2400 Uiso
C6 C 0.308(4) 0.220(3) 0.027(3) 0.1800 Uiso
O2R O 0.2274(5) 0.2726(5) -0.1630(6) 0.1320 Uani
C1R C 0.2286(16) 0.2714(16) -0.083(2) 0.2500 Uiso
C2R C 0.2500 0.2500 -0.100(3) 0.1900 Uiso
C3R C 0.2500 0.2500 -0.145(2) 0.1130 Uiso
C4R C 0.2500 0.2500 -0.0192(12) 0.1700 Uiso
C5R C 0.2267(13) 0.2733(13) -0.047(2) 0.2400 Uiso
C6R C 0.220(3) 0.308(4) -0.027(3) 0.1800 Uiso
O2VB O 0.2274(5) 0.2726(5) 0.1630(6) 0.1320 Uani
C1VB C 0.2286(16) 0.2714(16) 0.083(2) 0.2500 Uiso
C5VB C 0.2267(13) 0.2733(13) 0.047(2) 0.2400 Uiso
C6VB C 0.192(4) 0.280(3) 0.027(3) 0.1800 Uiso
O2MC O 0.2726(5) 0.2274(5) -0.1630(6) 0.1320 Uani
C1MC C 0.2714(16) 0.2286(16) -0.083(2) 0.2500 Uiso
C5MC C 0.2733(13) 0.2267(13) -0.047(2) 0.2400 Uiso
C6MC C 0.280(3) 0.192(4) -0.027(3) 0.1800 Uiso
C6TC C 0.308(4) 0.220(3) -0.027(3) 0.1800 Uiso
C6KD C 0.220(3) 0.308(4) 0.027(3) 0.1800 Uiso
C6LF C 0.192(4) 0.280(3) -0.027(3) 0.1800 Uiso
C6DG C 0.280(3) 0.192(4) 0.027(3) 0.1800 Uiso
Zn1D Zn 0.28292(11) -0.21708(11) 0.21708(11) 0.1090 Uani
O2D O 0.2726(5) -0.1630(6) 0.2274(5) 0.1320 Uani
C1D C 0.2714(16) -0.083(2) 0.2286(16) 0.2500 Uiso
C2D C 0.2500 -0.100(3) 0.2500 0.1900 Uiso
C3D C 0.2500 -0.145(2) 0.2500 0.1130 Uiso
C4D C 0.2500 -0.0192(12) 0.2500 0.1700 Uiso
C5D C 0.2733(13) -0.047(2) 0.2267(13) 0.2400 Uiso
C6D C 0.308(4) -0.027(3) 0.220(3) 0.1800 Uiso
O2K O 0.2274(5) 0.1630(6) 0.2726(5) 0.1320 Uani
C1K C 0.2286(16) 0.083(2) 0.2714(16) 0.2500 Uiso
C2K C 0.2500 0.100(3) 0.2500 0.1900 Uiso
C3K C 0.2500 0.145(2) 0.2500 0.1130 Uiso
C4K C 0.2500 0.0192(12) 0.2500 0.1700 Uiso
C5K C 0.2267(13) 0.047(2) 0.2733(13) 0.2400 Uiso
C6K C 0.220(3) 0.027(3) 0.308(4) 0.1800 Uiso
O2QB O 0.2274(5) -0.1630(6) 0.2726(5) 0.1320 Uani
C1QB C 0.2286(16) -0.083(2) 0.2714(16) 0.2500 Uiso
C5QB C 0.2267(13) -0.047(2) 0.2733(13) 0.2400 Uiso
C6QB C 0.192(4) -0.027(3) 0.280(3) 0.1800 Uiso
O2JB O 0.2726(5) 0.1630(6) 0.2274(5) 0.1320 Uani
C1JB C 0.2714(16) 0.083(2) 0.2286(16) 0.2500 Uiso
C5JB C 0.2733(13) 0.047(2) 0.2267(13) 0.2400 Uiso
C6JB C 0.280(3) 0.027(3) 0.192(4) 0.1800 Uiso
C6MD C 0.308(4) 0.027(3) 0.220(3) 0.1800 Uiso
C6FD C 0.220(3) -0.027(3) 0.308(4) 0.1800 Uiso
C6RE C 0.192(4) 0.027(3) 0.280(3) 0.1800 Uiso
C6YE C 0.280(3) -0.027(3) 0.192(4) 0.1800 Uiso
Zn1F Zn 0.28292(11) 0.21708(11) -0.21708(11) 0.1090 Uani
O2F O 0.2726(5) 0.1630(6) -0.2274(5) 0.1320 Uani
C1F C 0.2714(16) 0.083(2) -0.2286(16) 0.2500 Uiso
C2F C 0.2500 0.100(3) -0.2500 0.1900 Uiso
C3F C 0.2500 0.145(2) -0.2500 0.1130 Uiso
C4F C 0.2500 0.0192(12) -0.2500 0.1700 Uiso
C5F C 0.2733(13) 0.047(2) -0.2267(13) 0.2400 Uiso
C6F C 0.308(4) 0.027(3) -0.220(3) 0.1800 Uiso
O2Q O 0.2274(5) -0.1630(6) -0.2726(5) 0.1320 Uani
C1Q C 0.2286(16) -0.083(2) -0.2714(16) 0.2500 Uiso
C2Q C 0.2500 -0.100(3) -0.2500 0.1900 Uiso
C3Q C 0.2500 -0.145(2) -0.2500 0.1130 Uiso
C4Q C 0.2500 -0.0192(12) -0.2500 0.1700 Uiso
C5Q C 0.2267(13) -0.047(2) -0.2733(13) 0.2400 Uiso
C6Q C 0.220(3) -0.027(3) -0.308(4) 0.1800 Uiso
O2PB O 0.2274(5) 0.1630(6) -0.2726(5) 0.1320 Uani
C1PB C 0.2286(16) 0.083(2) -0.2714(16) 0.2500 Uiso
C5PB C 0.2267(13) 0.047(2) -0.2733(13) 0.2400 Uiso
C6PB C 0.192(4) 0.027(3) -0.280(3) 0.1800 Uiso
O2HB O 0.2726(5) -0.1630(6) -0.2274(5) 0.1320 Uani
C1HB C 0.2714(16) -0.083(2) -0.2286(16) 0.2500 Uiso
C5HB C 0.2733(13) -0.047(2) -0.2267(13) 0.2400 Uiso
C6HB C 0.280(3) -0.027(3) -0.192(4) 0.1800 Uiso
C6LD C 0.308(4) -0.027(3) -0.220(3) 0.1800 Uiso
C6DD C 0.220(3) 0.027(3) -0.308(4) 0.1800 Uiso
C6TE C 0.192(4) -0.027(3) -0.280(3) 0.1800 Uiso
C6EF C 0.280(3) 0.027(3) -0.192(4) 0.1800 Uiso
Zn1J Zn 0.21708(11) 0.28292(11) 0.21708(11) 0.1090 Uani
Zn1E Zn 0.28292(11) -0.21708(11) -0.21708(11) 0.1090 Uani
Zn1G Zn 0.21708(11) 0.21708(11) -0.28292(11) 0.1090 Uani
Zn1K Zn 0.21708(11) 0.21708(11) 0.28292(11) 0.1090 Uani
Zn1Q Zn 0.21708(11) -0.21708(11) -0.28292(11) 0.1090 Uani
Zn1R Zn 0.21708(11) 0.28292(11) -0.21708(11) 0.1090 Uani
Zn1V Zn 0.21708(11) -0.21708(11) 0.28292(11) 0.1090 Uani
Zn1CA Zn 0.28292(11) 0.28292(11) 0.28292(11) 0.1090 Uani
O1C O 0.2500 -0.2500 0.2500 0.1100 Uani
O1F O 0.2500 0.2500 -0.2500 0.1100 Uani
O2J O 0.1630(6) 0.2726(5) 0.2274(5) 0.1320 Uani
O2OA O 0.2274(5) 0.3370(6) 0.2274(5) 0.1320 Uani
O2EB O 0.3370(6) 0.2274(5) -0.2274(5) 0.1320 Uani
O2SB O 0.3370(6) -0.2274(5) 0.2274(5) 0.1320 Uani
O2UB O 0.2726(5) -0.2274(5) 0.1630(6) 0.1320 Uani
O2IC O 0.3370(6) 0.2274(5) 0.2274(5) 0.1320 Uani
loop_
_atom_site_aniso_label
_atom_site_aniso_U_11
_atom_site_aniso_U_22
_atom_site_aniso_U_33
_atom_site_aniso_U_23
_atom_site_aniso_U_13
_atom_site_aniso_U_12
Zn1 0.109(7) 0.109(7) 0.109(7) 0.000(2) 0.000(2) 0.000(2)
O1 0.11(2) 0.11(2) 0.11(2) 0.000 0.000 0.000
O2 0.143(13) 0.143(13) 0.11(2) 0.020(11) -0.020(11) -0.005(14)
O2R 0.143 0.143 0.11 0.02 -0.02 -0.005
O2VB 0.143 0.143 0.11 -0.02 0.02 -0.005
O2MC 0.143 0.143 0.11 -0.02 0.02 -0.005
Zn1D 0.109 0.109 0.109 0 0 0
O2D 0.143 0.11 0.143 -0.02 -0.005 0.02
O2K 0.143 0.11 0.143 -0.02 -0.005 0.02
O2QB 0.143 0.11 0.143 0.02 -0.005 -0.02
O2JB 0.143 0.11 0.143 0.02 -0.005 -0.02
Zn1F 0.109 0.109 0.109 0 0 0
O2F 0.143 0.11 0.143 -0.02 0.005 -0.02
O2Q 0.143 0.11 0.143 -0.02 0.005 -0.02
O2PB 0.143 0.11 0.143 0.02 0.005 0.02
O2HB 0.143 0.11 0.143 0.02 0.005 0.02
Zn1J 0.109 0.109 0.109 0 0 0
Zn1E 0.109 0.109 0.109 0 0 0
Zn1G 0.109 0.109 0.109 0 0 0
Zn1K 0.109 0.109 0.109 0 0 0
Zn1Q 0.109 0.109 0.109 0 0 0
Zn1R 0.109 0.109 0.109 0 0 0
Zn1V 0.109 0.109 0.109 0 0 0
Zn1CA 0.109 0.109 0.109 0 0 0
O1C 0.11 0.11 0.11 0 0 0
O1F 0.11 0.11 0.11 0 0 0
O2J 0.11 0.143 0.143 -0.005 0.02 -0.02
O2OA 0.143 0.11 0.143 -0.02 0.005 -0.02
O2EB 0.11 0.143 0.143 -0.005 0.02 -0.02
O2SB 0.11 0.143 0.143 -0.005 -0.02 0.02
O2UB 0.143 0.143 0.11 -0.02 -0.02 0.005
O2IC 0.11 0.143 0.143 0.005 -0.02 -0.02
loop_
_geom_bond_atom_site_label_1
_geom_bond_atom_site_label_2
_geom_bond_site_symmetry_1
_geom_bond_site_symmetry_2
Zn1 O1 1_555 1_555
O1 Zn1J 1_555 1_555
O2 Zn1 1_555 1_555
C1 C2 1_555 1_555
C2 C3 1_555 1_555
C3 O2 1_555 1_555
C4 C5 1_555 1_555
C5 C1 1_555 1_555
C6 C5 1_555 1_555
O2R C3R 1_555 1_555
C1R C2R 1_555 1_555
C2R C3R 1_555 1_555
C3R O2MC 1_555 1_555
C4R C4 1_555 1_555
C5R C1R 1_555 1_555
C6R C5R 1_555 1_555
O2VB C3 1_555 1_555
C1VB C2 1_555 1_555
C5VB C4 1_555 1_555
C6VB C5VB 1_555 1_555
O2MC Zn1F 1_555 1_555
C1MC C2R 1_555 1_555
C5MC C4R 1_555 1_555
C6MC C5MC 1_555 1_555
C6TC C5MC 1_555 1_555
C6KD C5VB 1_555 1_555
C6LF C5R 1_555 1_555
C6DG C5 1_555 1_555
Zn1D O2D 1_555 1_555
O2D C3D 1_555 1_555
C1D C2D 1_555 1_555
C2D C3D 1_555 1_555
C3D O2QB 1_555 1_555
C4D C5D 1_555 1_555
C5D C1D 1_555 1_555
C6D C5D 1_555 1_555
O2K C3K 1_555 1_555
C1K C2K 1_555 1_555
C2K C3K 1_555 1_555
C3K O2JB 1_555 1_555
C4K C4D 1_555 1_555
C5K C1K 1_555 1_555
C6K C5K 1_555 1_555
O2QB Zn1V 1_555 1_555
C1QB C2D 1_555 1_555
C5QB C4D 1_555 1_555
C6QB C5QB 1_555 1_555
O2JB Zn1 1_555 1_555
C1JB C2K 1_555 1_555
C5JB C4K 1_555 1_555
C6JB C5JB 1_555 1_555
C6MD C5JB 1_555 1_555
C6FD C5QB 1_555 1_555
C6RE C5K 1_555 1_555
C6YE C5D 1_555 1_555
Zn1F O2F 1_555 1_555
O2F C3F 1_555 1_555
C1F C2F 1_555 1_555
C2F C3F 1_555 1_555
C3F O2PB 1_555 1_555
C4F C5F 1_555 1_555
C5F C1F 1_555 1_555
C6F C5F 1_555 1_555
O2Q C3Q 1_555 1_555
C1Q C2Q 1_555 1_555
C2Q C3Q 1_555 1_555
C3Q O2HB 1_555 1_555
C4Q C4F 1_555 1_555
C5Q C1Q 1_555 1_555
C6Q C5Q 1_555 1_555
O2PB Zn1G 1_555 1_555
C1PB C2F 1_555 1_555
C5PB C4F 1_555 1_555
C6PB C5PB 1_555 1_555
O2HB Zn1E 1_555 1_555
C1HB C2Q 1_555 1_555
C5HB C4Q 1_555 1_555
C6HB C5HB 1_555 1_555
C6LD C5HB 1_555 1_555
C6DD C5PB 1_555 1_555
C6TE C5Q 1_555 1_555
C6EF C5F 1_555 1_555
Zn1J O2VB 1_555 1_555
Zn1G O1F 1_555 1_555
Zn1K O1 1_555 1_555
Zn1Q O2Q 1_555 1_555
Zn1R O2R 1_555 1_555
Zn1V O1C 1_555 1_555
Zn1CA O1 1_555 1_555
O1C Zn1D 1_555 1_555
O1F Zn1F 1_555 1_555
O2J Zn1J 1_555 1_555
O2OA Zn1J 1_555 1_555
O2EB Zn1F 1_555 1_555
O2SB Zn1D 1_555 1_555
O2UB Zn1D 1_555 1_555
O2IC Zn1 1_555 1_555
C6 C6DG 1_555 1_555
C4R C5R 1_555 1_555
C6R C6LF 1_555 1_555
C1VB C5VB 1_555 1_555
C6VB C6KD 1_555 1_555
C1MC C5MC 1_555 1_555
C6MC C6TC 1_555 1_555
C6D C6YE 1_555 1_555
O2K Zn1K 1_555 1_555
C4K C5K 1_555 1_555
C6K C6RE 1_555 1_555
C1QB C5QB 1_555 1_555
C6QB C6FD 1_555 1_555
C1JB C5JB 1_555 1_555
C6JB C6MD 1_555 1_555
C6F C6EF 1_555 1_555
C4Q C5Q 1_555 1_555
C6Q C6TE 1_555 1_555
C1PB C5PB 1_555 1_555
C6PB C6DD 1_555 1_555
C1HB C5HB 1_555 1_555
C6HB C6LD 1_555 1_555
Zn1R O1F 1_555 1_555

#END
