
#######################################################################
#
#                 Cambridge Crystallographic Data Centre
#                                CCDC 
#
#######################################################################
#
# If this CIF has been generated from an entry in the Cambridge 
# Structural Database, then it will include bibliographic, chemical, 
# crystal, experimental, refinement or atomic coordinate data resulting 
# from the CCDC's data processing and validation procedures.
#
#######################################################################

data_LEMHAM
_chemical_formula_moiety         '(C4 H20 Co4 N4 O16 P4)n'
_symmetry_cell_setting           monoclinic
_symmetry_space_group_name_H-M   'I 1 1 2/b'
_symmetry_Int_Tables_number      15
_space_group_name_Hall           '-I 2b'
loop_
_symmetry_equiv_pos_site_id
_symmetry_equiv_pos_as_xyz
1 x,y,z
2 1/2+x,1/2+y,1/2+z
3 -x,1/2-y,z
4 1/2-x,-y,1/2+z
5 -x,-y,-z
6 1/2-x,1/2-y,1/2-z
7 x,1/2+y,-z
8 1/2+x,y,1/2-z
_cell_length_a                   14.719(6)
_cell_length_b                   14.734(5)
_cell_length_c                   17.891(6)
_cell_angle_alpha                90
_cell_angle_beta                 90
_cell_angle_gamma                90.02(2)
_cell_volume                     3880.02
loop_
_atom_site_label
_atom_site_type_symbol
_atom_site_fract_x
_atom_site_fract_y
_atom_site_fract_z
Co1 Co -0.0052(1) 0.1186(1) 0.3313(2)
Co2 Co 0.0132(2) -0.1196(2) 0.1721(2)
Co3 Co 0.3685(1) 0.2540(1) 0.4223(2)
Co4 Co -0.1294(1) -0.2376(1) 0.4183(2)
P1 P 0.1479(3) 0.2460(3) 0.4001(3)
P2 P 0.0030(3) -0.1008(3) 0.3523(3)
P3 P -0.0115(3) 0.1022(3) 0.1499(3)
P4 P -0.1494(3) -0.2388(3) 0.1027(4)
O1 O -0.0142(3) -0.0008(6) 0.3759(5)
O2 O -0.0952(6) -0.1309(7) 0.3564(6)
O3 O -0.2500(5) -0.2311(6) 0.1251(5)
O4 O 0.1121(8) 0.1762(8) 0.3420(7)
O5 O 0.1449(6) 0.1996(6) 0.4794(6)
O6 O 0.0569(6) -0.1546(6) 0.4133(5)
O7 O -0.0498(7) 0.1015(7) 0.2281(6)
O8 O -0.0990(8) -0.1839(8) 0.1608(8)
O9 O 0.0122(7) 0.0028(6) 0.1280(6)
O10 O 0.2471(5) 0.2621(6) 0.3772(5)
O11 O -0.1200(8) -0.3408(7) 0.1119(7)
O12 O -0.1308(8) -0.2037(8) 0.0267(7)
O13 O -0.0835(6) 0.1332(6) 0.0943(5)
O14 O 0.0958(8) 0.3334(7) 0.4012(7)
O15 O 0.0743(7) 0.1584(8) 0.1457(7)
O16 O 0.0475(7) -0.1212(7) 0.2749(6)
O14B O -0.0958(8) 0.1666(7) 0.4012(7)
O11B O 0.1200(8) -0.1592(7) 0.1119(7)
O12A O 0.3692(8) 0.2963(8) 0.5267(7)
O13G O 0.4165(6) 0.1332(6) 0.4057(5)
O15E O 0.4257(7) 0.3416(8) 0.3543(7)
O3E O -0.2500(5) -0.2689(6) 0.3749(5)
O5D O -0.1449(6) -0.1996(6) 0.5206(6)
O6B O -0.0569(6) -0.3454(6) 0.4133(5)
Co4E Co -0.3706(1) -0.2624(1) 0.0817(2)
Co4D Co 0.1294(1) 0.2376(1) 0.5817(2)
Co4B Co 0.1294(1) -0.2624(1) 0.4183(2)
Co2B Co -0.0132(2) -0.3804(2) 0.1721(2)
Co3A Co -0.1315(1) -0.2460(1) -0.0777(2)
Co3G Co -0.1315(1) 0.2540(1) 0.0777(2)
Co1B Co 0.0052(1) 0.3814(1) 0.3313(2)
Co3E Co 0.1315(1) 0.2460(1) 0.0777(2)
N1 N 0.1229(8) 0.5097(8) -0.0018(8)
N2 N 0.3777(9) 0.5030(9) -0.0022(9)
C1 C 0.2153(8) 0.5048(8) -0.0324(7)
C2 C 0.2841(8) 0.5078(9) 0.0305(7)
H1 H 0.0779(8) 0.5077(8) -0.0436(8)
H2 H 0.1155(8) 0.5677(8) 0.0266(8)
H3 H 0.1122(8) 0.4572(8) 0.0325(8)
H4 H 0.2260(8) 0.5573(8) -0.0668(7)
H5 H 0.2226(8) 0.4467(8) -0.0608(7)
H6 H 0.2775(8) 0.5659(9) 0.0588(7)
H7 H 0.2738(8) 0.4554(9) 0.0650(7)
H8 H 0.4240(9) 0.5049(9) 0.0387(9)
H9 H 0.3874(9) 0.5554(9) -0.0368(9)
H10 H 0.3838(9) 0.4449(9) -0.0306(9)
N3 N 0.245(1) -0.129(1) -0.253(1)
N4 N 0.251(1) 0.1264(9) -0.2515(9)
C3 C 0.2503(8) -0.0376(9) -0.2834(7)
C4 C 0.2473(9) 0.0316(8) -0.2205(8)
H11 H 0.247(1) -0.174(1) -0.295(1)
H12 H 0.297(1) -0.140(1) -0.218(1)
H13 H 0.187(1) -0.135(1) -0.225(1)
H14 H 0.3090(8) -0.0314(9) -0.3111(7)
H15 H 0.1985(8) -0.0267(9) -0.3183(7)
H16 H 0.3010(9) 0.0228(8) -0.1870(8)
H17 H 0.1902(9) 0.0233(8) -0.1910(8)
H18 H 0.249(1) 0.1718(9) -0.2100(9)
H19 H 0.308(1) 0.1349(9) -0.2809(9)
H20 H 0.197(1) 0.1353(9) -0.2849(9)
loop_
_geom_bond_atom_site_label_1
_geom_bond_atom_site_label_2
_geom_bond_site_symmetry_1
_geom_bond_site_symmetry_2
Co1 O1 1_555 1_555
Co2 O8 1_555 1_555
Co3 O10 1_555 1_555
Co4 O2 1_555 1_555
P1 O4 1_555 1_555
P2 O1 1_555 1_555
P3 O7 1_555 1_555
P4 O3 1_555 1_555
O2 P2 1_555 1_555
O3 Co4E 1_555 1_555
O4 Co1 1_555 1_555
O5 P1 1_555 1_555
O6 P2 1_555 1_555
O7 Co1 1_555 1_555
O8 P4 1_555 1_555
O9 Co2 1_555 1_555
O10 P1 1_555 1_555
O11 P4 1_555 1_555
O12 P4 1_555 1_555
O13 P3 1_555 1_555
O14 P1 1_555 1_555
O15 P3 1_555 1_555
O16 Co2 1_555 1_555
N1 C1 1_555 1_555
N2 C2 1_555 1_555
C1 C2 1_555 1_555
C2 H6 1_555 1_555
H1 N1 1_555 1_555
H2 N1 1_555 1_555
H3 N1 1_555 1_555
H4 C1 1_555 1_555
H5 C1 1_555 1_555
H7 C2 1_555 1_555
H8 N2 1_555 1_555
H9 N2 1_555 1_555
H10 N2 1_555 1_555
N3 C3 1_555 1_555
N4 C4 1_555 1_555
C3 C4 1_555 1_555
C4 H16 1_555 1_555
H11 N3 1_555 1_555
H12 N3 1_555 1_555
H13 N3 1_555 1_555
H14 C3 1_555 1_555
H15 C3 1_555 1_555
H17 C4 1_555 1_555
H18 N4 1_555 1_555
H19 N4 1_555 1_555
H20 N4 1_555 1_555
O14B Co1 1_555 1_555
O11B Co2 1_555 1_555
O12A Co3 1_555 1_555
O13G Co3 1_555 1_555
O15E Co3 1_555 1_555
O3E Co4 1_555 1_555
O5D Co4 1_555 1_555
O6B Co4 1_555 1_555
Co4D O5 1_555 1_555
Co4B O6 1_555 1_555
Co2B O11 1_555 1_555
Co3A O12 1_555 1_555
Co3G O13 1_555 1_555
Co1B O14 1_555 1_555
Co3E O15 1_555 1_555
P2 O16 1_555 1_555
P3 O9 1_555 1_555

#END
