
#######################################################################
#
#                 Cambridge Crystallographic Data Centre
#                                CCDC 
#
#######################################################################
#
# If this CIF has been generated from an entry in the Cambridge 
# Structural Database, then it will include bibliographic, chemical, 
# crystal, experimental, refinement or atomic coordinate data resulting 
# from the CCDC's data processing and validation procedures.
#
#######################################################################

data_LUDRUZ
_chemical_formula_moiety         '(C60 H84 Cd2 F12 N24 P2 2+)n'
_symmetry_cell_setting           trigonal
_symmetry_space_group_name_H-M   'P 3'
_symmetry_Int_Tables_number      143
_space_group_name_Hall           'P 3'
loop_
_symmetry_equiv_pos_site_id
_symmetry_equiv_pos_as_xyz
1 x,y,z
2 -y,x-y,z
3 -x+y,-x,z
_cell_length_a                   13.318(2)
_cell_length_b                   13.318(2)
_cell_length_c                   13.278(2)
_cell_angle_alpha                90
_cell_angle_beta                 90
_cell_angle_gamma                120
_cell_volume                     2039.58
loop_
_atom_site_label
_atom_site_type_symbol
_atom_site_fract_x
_atom_site_fract_y
_atom_site_fract_z
Cd1 Cd -0.0000 -0.0000 0.88423(3)
Cd2 Cd 0.6667 0.3333 0.38409(3)
N1 N 0.2559(3) 0.3339(3) 0.7338(3)
N2 N 0.1277(3) 0.1590(3) 0.7815(3)
N3 N 0.6962(3) 0.6043(3) 0.6042(3)
N4 N 0.7046(3) 0.4946(3) 0.4844(3)
N5 N 1.0011(3) 0.5896(3) 0.2333(3)
N6 N 0.8242(3) 0.4609(3) 0.2817(3)
N7 N 1.2709(3) 1.0294(3) 0.1046(3)
N8 N 1.1598(3) 1.0363(3) -0.0164(3)
C1 C 0.3408(4) 0.4582(4) 0.7392(4)
H1 H 0.3387 0.4875 0.8072
H2 H 0.3198 0.5005 0.6898
C2 C 0.4616(4) 0.4815(4) 0.7174(4)
H3 H 0.4625 0.4475 0.6513
H4 H 0.4847 0.4438 0.7695
C3 C 0.5487(4) 0.6119(3) 0.7159(4)
H5 H 0.5289 0.6483 0.6602
H6 H 0.5428 0.6468 0.7799
C4 C 0.6715(3) 0.6374(4) 0.7026(3)
H7 H 0.7246 0.7215 0.7126
H8 H 0.6888 0.5960 0.7557
C5 C 0.1926(3) 0.2664(3) 0.8103(3)
H9 H 0.1946 0.2933 0.8769
C6 C 0.1542(5) 0.1571(5) 0.6819(4)
H10 H 0.1218 0.0900 0.6404
C7 C 0.2325(5) 0.2639(5) 0.6520(4)
H11 H 0.2652 0.2866 0.5866
C8 C 0.6729(5) 0.4962(4) 0.5786(4)
H12 H 0.6387 0.4309 0.6221
C9 C 0.7475(4) 0.6052(4) 0.4497(3)
H13 H 0.7772 0.6309 0.3839
C10 C 0.7415(4) 0.6724(4) 0.5223(4)
H14 H 0.7646 0.7522 0.5169
C11 C 1.1251(4) 0.6731(4) 0.2390(4)
H15 H 1.1671 0.6520 0.1896
H16 H 1.1542 0.6707 0.3071
C12 C 1.1484(4) 0.7954(4) 0.2171(4)
H17 H 1.1110 0.8185 0.2694
H18 H 1.1141 0.7963 0.1512
C13 C 1.2791(3) 0.8827(4) 0.2152(4)
H19 H 1.3145 0.8759 0.2786
H20 H 1.3151 0.8634 0.1588
C14 C 1.3043(4) 1.0052(3) 0.2035(3)
H21 H 1.2624 1.0216 0.2567
H22 H 1.3883 1.0584 0.2138
C15 C 0.9333(3) 0.5259(3) 0.3106(3)
H23 H 0.9603 0.5276 0.3771
C16 C 0.8239(5) 0.4873(5) 0.1821(4)
H24 H 0.7571 0.4547 0.1401
C17 C 0.9312(5) 0.5657(5) 0.1521(4)
H25 H 0.9538 0.5982 0.0866
C18 C 1.1630(4) 1.0062(4) 0.0786(4)
H26 H 1.0980 0.9728 0.1226
C19 C 1.2719(4) 1.0811(4) -0.0502(3)
H27 H 1.2979 1.1114 -0.1158
C20 C 1.3397(4) 1.0761(4) 0.0226(4)
H28 H 1.4198 1.1003 0.0175
N1A N -0.3339(3) -0.0780(4) 0.7338(3)
N2A N -0.1590(3) -0.0313(4) 0.7815(3)
N3A N -0.6043(3) 0.0919(4) 0.6042(3)
N4A N -0.4946(3) 0.2100(4) 0.4844(3)
C1A C -0.4582(4) -0.1174(6) 0.7392(4)
H1A H -0.4875 -0.1488 0.8072
H2A H -0.5005 -0.1807 0.6898
C2A C -0.4815(4) -0.0199(6) 0.7174(4)
H3A H -0.4475 0.0150 0.6513
H4A H -0.4438 0.0409 0.7695
C3A C -0.6119(3) -0.0632(5) 0.7159(4)
H5A H -0.6483 -0.1194 0.6602
H6A H -0.6468 -0.1040 0.7799
C4A C -0.6374(4) 0.0341(5) 0.7026(3)
H7A H -0.7215 0.0031 0.7126
H8A H -0.5960 0.0928 0.7557
C5A C -0.2664(3) -0.0738(4) 0.8103(3)
H9A H -0.2933 -0.0987 0.8769
C6A C -0.1571(5) -0.0029(7) 0.6819(4)
H10A H -0.0900 0.0318 0.6404
C7A C -0.2639(5) -0.0314(7) 0.6520(4)
H11A H -0.2866 -0.0214 0.5866
C8A C -0.4962(4) 0.1767(6) 0.5786(4)
H12A H -0.4309 0.2078 0.6221
C9A C -0.6052(4) 0.1423(6) 0.4497(3)
H13A H -0.6309 0.1463 0.3839
C10A C -0.6724(4) 0.0691(6) 0.5223(4)
H14A H -0.7522 0.0124 0.5169
N1B N 0.0780(4) -0.2559(3) 0.7338(3)
N2B N 0.0313(4) -0.1277(3) 0.7815(3)
N3B N -0.0919(4) -0.6962(3) 0.6042(3)
N4B N -0.2100(4) -0.7046(3) 0.4844(3)
C1B C 0.1174(6) -0.3408(4) 0.7392(4)
H1B H 0.1488 -0.3387 0.8072
H2B H 0.1807 -0.3198 0.6898
C2B C 0.0199(6) -0.4616(4) 0.7174(4)
H3B H -0.0150 -0.4625 0.6513
H4B H -0.0409 -0.4847 0.7695
C3B C 0.0632(5) -0.5487(4) 0.7159(4)
H5B H 0.1194 -0.5289 0.6602
H6B H 0.1040 -0.5428 0.7799
C4B C -0.0341(5) -0.6715(3) 0.7026(3)
H7B H -0.0031 -0.7246 0.7126
H8B H -0.0928 -0.6888 0.7557
C5B C 0.0738(4) -0.1926(3) 0.8103(3)
H9B H 0.0987 -0.1946 0.8769
C6B C 0.0029(7) -0.1542(5) 0.6819(4)
H10B H -0.0318 -0.1218 0.6404
C7B C 0.0314(7) -0.2325(5) 0.6520(4)
H11B H 0.0214 -0.2652 0.5866
C8B C -0.1767(6) -0.6729(5) 0.5786(4)
H12B H -0.2078 -0.6387 0.6221
C9B C -0.1423(6) -0.7475(4) 0.4497(3)
H13B H -0.1463 -0.7772 0.3839
C10B C -0.0691(6) -0.7415(4) 0.5223(4)
H14B H -0.0124 -0.7646 0.5169
N5A N 0.4104(3) 0.4115(4) 1.2333(3)
N6A N 0.5391(3) 0.3633(4) 1.2817(3)
N7A N -0.0294(3) 0.2415(4) 1.1046(3)
N8A N -0.0363(3) 0.1235(4) 0.9836(3)
C11A C 0.3269(4) 0.4520(6) 1.2390(4)
H15A H 0.3480 0.5151 1.1896
H16A H 0.3293 0.4835 1.3071
C12A C 0.2046(4) 0.3530(6) 1.2171(4)
H17A H 0.1815 0.2925 1.2694
H18A H 0.2037 0.3178 1.1512
C13A C 0.1173(4) 0.3964(5) 1.2152(4)
H19A H 0.1241 0.4386 1.2786
H20A H 0.1366 0.4517 1.1588
C14A C -0.0052(3) 0.2991(5) 1.2035(3)
H21A H -0.0216 0.2408 1.2567
H22A H -0.0584 0.3299 1.2138
C15A C 0.4741(3) 0.4074(4) 1.3106(3)
H23A H 0.4724 0.4327 1.3771
C16A C 0.5127(5) 0.3366(7) 1.1821(4)
H24A H 0.5453 0.3024 1.1401
C17A C 0.4343(5) 0.3655(7) 1.1521(4)
H25A H 0.4018 0.3556 1.0866
C18A C -0.0062(4) 0.1568(6) 1.0786(4)
H26A H 0.0272 0.1252 1.1226
C19A C -0.0811(4) 0.1908(6) 0.9498(3)
H27A H -0.1114 0.1865 0.8842
C20A C -0.0761(4) 0.2636(6) 1.0226(4)
H28A H -0.1003 0.3195 1.0175
N5B N -0.4115(4) -0.0011(3) 1.2333(3)
N6B N -0.3633(4) 0.1758(3) 1.2817(3)
N7B N -0.2415(4) -0.2709(3) 1.1046(3)
N8B N -0.1235(4) -0.1598(3) 0.9836(3)
C11B C -0.4520(6) -0.1251(4) 1.2390(4)
H15B H -0.5151 -0.1671 1.1896
H16B H -0.4835 -0.1542 1.3071
C12B C -0.3530(6) -0.1484(4) 1.2171(4)
H17B H -0.2925 -0.1110 1.2694
H18B H -0.3178 -0.1141 1.1512
C13B C -0.3964(5) -0.2791(3) 1.2152(4)
H19B H -0.4386 -0.3145 1.2786
H20B H -0.4517 -0.3151 1.1588
C14B C -0.2991(5) -0.3043(4) 1.2035(3)
H21B H -0.2408 -0.2624 1.2567
H22B H -0.3299 -0.3883 1.2138
C15B C -0.4074(4) 0.0667(3) 1.3106(3)
H23B H -0.4327 0.0397 1.3771
C16B C -0.3366(7) 0.1761(5) 1.1821(4)
H24B H -0.3024 0.2429 1.1401
C17B C -0.3655(7) 0.0688(5) 1.1521(4)
H25B H -0.3556 0.0462 1.0866
C18B C -0.1568(6) -0.1630(4) 1.0786(4)
H26B H -0.1252 -0.0980 1.1226
C19B C -0.1908(6) -0.2719(4) 0.9498(3)
H27B H -0.1865 -0.2979 0.8842
C20B C -0.2636(6) -0.3397(4) 1.0226(4)
H28B H -0.3195 -0.4198 1.0175
Cd1_2 Cd 1.0000 1.0000 -0.11577(3)
Cd2_2 Cd -0.3333 -0.6667 0.38409(3)
Cd2_3 Cd -0.3333 0.3333 0.38409(3)
Cd2_4 Cd -0.3333 0.3333 1.38409(3)
Cd2_5 Cd 0.6667 0.3333 1.38409(3)
N4A_2 N 0.5054(3) 0.2100(4) 0.4844(3)
N4B_2 N 0.7900(4) 0.2954(3) 0.4844(3)
N6A_2 N 0.5391(3) 0.3633(4) 0.2817(3)
N6B_2 N 0.6367(4) 0.1758(3) 0.2817(3)
N8_2 N 0.1598(3) 0.0363(3) 0.9836(3)
P1 P 1.0000 1.0000 0.3758(2)
F1 F 0.9515(6) 0.8925(6) 0.3083(6)
F2 F 0.8840(5) 0.9362(6) 0.4306(5)
F1A F 1.1075(6) 1.0590(8) 0.3083(6)
F2A F 1.0638(6) 0.9478(8) 0.4306(5)
F1B F 0.9410(8) 1.0485(6) 0.3083(6)
F2B F 1.0522(8) 1.1160(5) 0.4306(5)
P2 P 0.6667 0.3333 0.8763(2)
F3 F 0.7797(5) 0.3834(6) 0.9374(6)
F4 F 0.7263(6) 0.4428(6) 0.8119(6)
F3A F 0.6166(6) 0.3963(8) 0.9374(6)
F4A F 0.5572(6) 0.2835(8) 0.8119(6)
F3B F 0.6037(8) 0.2203(5) 0.9374(6)
F4B F 0.7165(8) 0.2737(6) 0.8119(6)
loop_
_geom_bond_atom_site_label_1
_geom_bond_atom_site_label_2
_geom_bond_site_symmetry_1
_geom_bond_site_symmetry_2
Cd1 N2 1_555 1_555
Cd2 N4 1_555 1_555
N1 C1 1_555 1_555
N2 C5 1_555 1_555
N3 C4 1_555 1_555
N4 C8 1_555 1_555
N5 C11 1_555 1_555
N6 Cd2 1_555 1_555
N7 C14 1_555 1_555
N8 C18 1_555 1_555
C1 H1 1_555 1_555
H2 C1 1_555 1_555
C2 C1 1_555 1_555
H3 C2 1_555 1_555
H4 C2 1_555 1_555
C3 C2 1_555 1_555
H5 C3 1_555 1_555
H6 C3 1_555 1_555
C4 C3 1_555 1_555
H7 C4 1_555 1_555
H8 C4 1_555 1_555
C5 N1 1_555 1_555
H9 C5 1_555 1_555
C6 N2 1_555 1_555
H10 C6 1_555 1_555
C7 N1 1_555 1_555
H11 C7 1_555 1_555
C8 N3 1_555 1_555
H12 C8 1_555 1_555
C9 N4 1_555 1_555
H13 C9 1_555 1_555
C10 N3 1_555 1_555
H14 C10 1_555 1_555
C11 H15 1_555 1_555
H16 C11 1_555 1_555
C12 C11 1_555 1_555
H17 C12 1_555 1_555
H18 C12 1_555 1_555
C13 C12 1_555 1_555
H19 C13 1_555 1_555
H20 C13 1_555 1_555
C14 C13 1_555 1_555
H21 C14 1_555 1_555
H22 C14 1_555 1_555
C15 N5 1_555 1_555
H23 C15 1_555 1_555
C16 N6 1_555 1_555
H24 C16 1_555 1_555
C17 N5 1_555 1_555
H25 C17 1_555 1_555
C18 N7 1_555 1_555
H26 C18 1_555 1_555
C19 N8 1_555 1_555
H27 C19 1_555 1_555
C20 N7 1_555 1_555
H28 C20 1_555 1_555
P1 F1 1_555 1_555
F2 P1 1_555 1_555
P2 F3 1_555 1_555
F4 P2 1_555 1_555
N1A C1A 1_555 1_555
N2A Cd1 1_555 1_555
N3A C4A 1_555 1_555
N4A C8A 1_555 1_555
C1A H1A 1_555 1_555
H2A C1A 1_555 1_555
C2A C1A 1_555 1_555
H3A C2A 1_555 1_555
H4A C2A 1_555 1_555
C3A C2A 1_555 1_555
H5A C3A 1_555 1_555
H6A C3A 1_555 1_555
C4A C3A 1_555 1_555
H7A C4A 1_555 1_555
H8A C4A 1_555 1_555
C5A N1A 1_555 1_555
H9A C5A 1_555 1_555
C6A N2A 1_555 1_555
H10A C6A 1_555 1_555
C7A N1A 1_555 1_555
H11A C7A 1_555 1_555
C8A N3A 1_555 1_555
H12A C8A 1_555 1_555
C9A N4A 1_555 1_555
H13A C9A 1_555 1_555
C10A N3A 1_555 1_555
H14A C10A 1_555 1_555
N1B C1B 1_555 1_555
N2B Cd1 1_555 1_555
N3B C4B 1_555 1_555
N4B C8B 1_555 1_555
C1B H1B 1_555 1_555
H2B C1B 1_555 1_555
C2B C1B 1_555 1_555
H3B C2B 1_555 1_555
H4B C2B 1_555 1_555
C3B C2B 1_555 1_555
H5B C3B 1_555 1_555
H6B C3B 1_555 1_555
C4B C3B 1_555 1_555
H7B C4B 1_555 1_555
H8B C4B 1_555 1_555
C5B N1B 1_555 1_555
H9B C5B 1_555 1_555
C6B N2B 1_555 1_555
H10B C6B 1_555 1_555
C7B N1B 1_555 1_555
H11B C7B 1_555 1_555
C8B N3B 1_555 1_555
H12B C8B 1_555 1_555
C9B N4B 1_555 1_555
H13B C9B 1_555 1_555
C10B N3B 1_555 1_555
H14B C10B 1_555 1_555
N5A C11A 1_555 1_555
N6A C15A 1_555 1_555
N7A C14A 1_555 1_555
N8A Cd1 1_555 1_555
C11A H15A 1_555 1_555
H16A C11A 1_555 1_555
C12A C11A 1_555 1_555
H17A C12A 1_555 1_555
H18A C12A 1_555 1_555
C13A C12A 1_555 1_555
H19A C13A 1_555 1_555
H20A C13A 1_555 1_555
C14A C13A 1_555 1_555
H21A C14A 1_555 1_555
H22A C14A 1_555 1_555
C15A N5A 1_555 1_555
H23A C15A 1_555 1_555
C16A N6A 1_555 1_555
H24A C16A 1_555 1_555
C17A N5A 1_555 1_555
H25A C17A 1_555 1_555
C18A N7A 1_555 1_555
H26A C18A 1_555 1_555
C19A N8A 1_555 1_555
H27A C19A 1_555 1_555
C20A N7A 1_555 1_555
H28A C20A 1_555 1_555
N5B C11B 1_555 1_555
N6B C15B 1_555 1_555
N7B C14B 1_555 1_555
N8B Cd1 1_555 1_555
C11B H15B 1_555 1_555
H16B C11B 1_555 1_555
C12B C11B 1_555 1_555
H17B C12B 1_555 1_555
H18B C12B 1_555 1_555
C13B C12B 1_555 1_555
H19B C13B 1_555 1_555
H20B C13B 1_555 1_555
C14B C13B 1_555 1_555
H21B C14B 1_555 1_555
H22B C14B 1_555 1_555
C15B N5B 1_555 1_555
H23B C15B 1_555 1_555
C16B N6B 1_555 1_555
H24B C16B 1_555 1_555
C17B N5B 1_555 1_555
H25B C17B 1_555 1_555
C18B N7B 1_555 1_555
H26B C18B 1_555 1_555
C19B N8B 1_555 1_555
H27B C19B 1_555 1_555
C20B N7B 1_555 1_555
H28B C20B 1_555 1_555
Cd1_2 N8 1_555 1_555
Cd2_2 N4B 1_555 1_555
Cd2_3 N4A 1_555 1_555
Cd2_4 N6B 1_555 1_555
Cd2_5 N6A 1_555 1_555
N4A_2 Cd2 1_555 1_555
N4B_2 Cd2 1_555 1_555
N6A_2 Cd2 1_555 1_555
N6B_2 Cd2 1_555 1_555
N8_2 Cd1 1_555 1_555
F1A P1 1_555 1_555
F2A P1 1_555 1_555
F1B P1 1_555 1_555
F2B P1 1_555 1_555
F3A P2 1_555 1_555
F4A P2 1_555 1_555
F3B P2 1_555 1_555
F4B P2 1_555 1_555
N6 C15 1_555 1_555
C6 C7 1_555 1_555
C9 C10 1_555 1_555
C16 C17 1_555 1_555
C19 C20 1_555 1_555
N2A C5A 1_555 1_555
C6A C7A 1_555 1_555
C9A C10A 1_555 1_555
N2B C5B 1_555 1_555
C6B C7B 1_555 1_555
C9B C10B 1_555 1_555
N8A C18A 1_555 1_555
C16A C17A 1_555 1_555
C19A C20A 1_555 1_555
N8B C18B 1_555 1_555
C16B C17B 1_555 1_555
C19B C20B 1_555 1_555

#END
