
#######################################################################
#
#                 Cambridge Crystallographic Data Centre
#                                CCDC 
#
#######################################################################
#
# If this CIF has been generated from an entry in the Cambridge 
# Structural Database, then it will include bibliographic, chemical, 
# crystal, experimental, refinement or atomic coordinate data resulting 
# from the CCDC's data processing and validation procedures.
#
#######################################################################

data_PUZTOV
_chemical_formula_moiety         '(C24 H18 Ca1 Cd2 O15)n'
_symmetry_cell_setting           monoclinic
_symmetry_space_group_name_H-M   'C 2/c'
_symmetry_Int_Tables_number      15
_space_group_name_Hall           '-C 2yc'
loop_
_symmetry_equiv_pos_site_id
_symmetry_equiv_pos_as_xyz
1 x,y,z
2 -x,y,1/2-z
3 1/2+x,1/2+y,z
4 1/2-x,1/2+y,1/2-z
5 -x,-y,-z
6 x,-y,1/2+z
7 1/2-x,1/2-y,-z
8 1/2+x,1/2-y,1/2+z
_cell_length_a                   24.934(3)
_cell_length_b                   13.2275(7)
_cell_length_c                   16.234(3)
_cell_angle_alpha                90
_cell_angle_beta                 127.52(2)
_cell_angle_gamma                90
_cell_volume                     4246.64
loop_
_atom_site_label
_atom_site_type_symbol
_atom_site_fract_x
_atom_site_fract_y
_atom_site_fract_z
Cd1 Cd 0.171453(15) 0.20028(3) 0.38257(2)
Ca1 Ca 0.0000 0.28959(10) 0.2500
C1 C 0.1469(2) 0.3952(4) 0.5672(4)
C2 C 0.0857(3) 0.4101(9) 0.5455(7)
H1 H 0.0486 0.3713 0.4954
C3 C 0.0793(3) 0.4862(12) 0.6005(7)
H2 H 0.0365 0.5020 0.5805
C4 C 0.1356(3) 0.5381(5) 0.6841(4)
C5 C 0.1967(3) 0.5063(6) 0.7133(4)
H3 H 0.2360 0.5312 0.7742
C6 C 0.2018(3) 0.4366(5) 0.6532(4)
H4 H 0.2444 0.4187 0.6735
C7 C 0.1531(2) 0.3239(4) 0.5027(4)
C8 C 0.1279(3) 0.6149(5) 0.7434(4)
C9 C 0.0778(3) 0.1061(4) 0.1958(4)
C10 C 0.0376(2) 0.0516(5) 0.0948(4)
C11 C -0.0317(3) 0.0517(5) 0.0331(4)
H5 H -0.0539 0.0877 0.0534
C12 C 0.0689(3) 0.0022(6) 0.0600(5)
H6 H 0.1158 0.0047 0.0992
O1 O 0.10006(17) 0.2863(3) 0.4217(3)
O2 O 0.1971(2) 0.0747(3) 0.4970(3)
H7 H 0.1659 0.0536 0.5044
H8 H 0.2384 0.0461 0.5349
O3 O 0.21067(17) 0.2990(3) 0.5308(3)
O4 O 0.0000 0.4666(7) 0.2500
H9 H 0.0391 0.5006 0.2802
O5 O 0.18056(19) 0.6531(3) 0.8200(3)
O6 O 0.0698(2) 0.6381(4) 0.7098(4)
O7 O 0.14210(18) 0.1037(3) 0.2492(3)
O8 O 0.04968(18) 0.1497(3) 0.2268(3)
H9A H -0.0391 0.5006 0.2198
C9D C -0.0778(3) -0.1061(4) -0.1958(4)
C10D C -0.0376(2) -0.0516(5) -0.0948(4)
C11D C 0.0317(3) -0.0517(5) -0.0331(4)
H5D H 0.0539 -0.0877 -0.0534
C12D C -0.0689(3) -0.0022(6) -0.0600(5)
H6D H -0.1158 -0.0047 -0.0992
O7D O -0.14210(18) -0.1037(3) -0.2492(3)
O8D O -0.04968(18) -0.1497(3) -0.2268(3)
Cd1A Cd -0.171453(15) 0.20028(3) 0.11743(2)
C1A C -0.1469(2) 0.3952(4) -0.0672(4)
C2A C -0.0857(3) 0.4101(9) -0.0455(7)
H1A H -0.0486 0.3713 0.0046
C3A C -0.0793(3) 0.4862(12) -0.1005(7)
H2A H -0.0365 0.5020 -0.0805
C4A C -0.1356(3) 0.5381(5) -0.1841(4)
C5A C -0.1967(3) 0.5063(6) -0.2133(4)
H3A H -0.2360 0.5312 -0.2742
C6A C -0.2018(3) 0.4366(5) -0.1532(4)
H4A H -0.2444 0.4187 -0.1735
C7A C -0.1531(2) 0.3239(4) -0.0027(4)
C8A C -0.1279(3) 0.6149(5) -0.2434(4)
O1A O -0.10006(17) 0.2863(3) 0.0783(3)
O2A O -0.1971(2) 0.0747(3) 0.0030(3)
H7A H -0.1659 0.0536 -0.0044
H8A H -0.2384 0.0461 -0.0349
O3A O -0.21067(17) 0.2990(3) -0.0308(3)
O5A O -0.18056(19) 0.6531(3) -0.3200(3)
O6A O -0.0698(2) 0.6381(4) -0.2098(4)
Cd1D Cd -0.171453(15) -0.20028(3) -0.38257(2)
Cd1D_2 Cd -0.171453(15) 0.79972(3) -0.38257(2)
Cd1E Cd 0.171453(15) 0.79972(3) 0.88257(2)
Cd1F Cd 0.328547(15) 0.29972(3) 0.61743(2)
Cd1G Cd -0.328547(15) 0.29972(3) -0.11743(2)
Ca1D Ca -0.0000 -0.28959(10) -0.2500
Ca1D_2 Ca -0.0000 0.71041(10) -0.2500
Ca1D_3 Ca 0.0000 0.71041(10) 0.7500
O3F O 0.28933(17) 0.2010(3) 0.4692(3)
O3G O -0.28933(17) 0.2010(3) 0.0308(3)
O5D O -0.18056(19) 0.3469(3) 0.1800(3)
O5E O 0.18056(19) 0.3469(3) 0.3200(3)
O6D O -0.0698(2) 0.3619(4) 0.2902(4)
O6E O 0.0698(2) 0.3619(4) 0.2098(4)
O7A O -0.14210(18) 0.1037(3) 0.2508(3)
O8A O -0.04968(18) 0.1497(3) 0.2732(3)
loop_
_geom_bond_atom_site_label_1
_geom_bond_atom_site_label_2
_geom_bond_site_symmetry_1
_geom_bond_site_symmetry_2
Cd1 O1 1_555 1_555
Ca1 O1 1_555 1_555
C1 C2 1_555 1_555
C2 H1 1_555 1_555
C3 C2 1_555 1_555
H2 C3 1_555 1_555
C4 C3 1_555 1_555
C5 C4 1_555 1_555
H3 C5 1_555 1_555
C6 C1 1_555 1_555
H4 C6 1_555 1_555
C7 C1 1_555 1_555
C8 C4 1_555 1_555
C9 C10 1_555 1_555
C10 C11 1_555 1_555
C11 H5 1_555 1_555
C12 C10 1_555 1_555
H6 C12 1_555 1_555
O1 C7 1_555 1_555
O2 Cd1 1_555 1_555
H7 O2 1_555 1_555
H8 O2 1_555 1_555
O3 Cd1 1_555 1_555
O4 Ca1 1_555 1_555
H9 O4 1_555 1_555
O5 C8 1_555 1_555
O6 C8 1_555 1_555
O7 Cd1 1_555 1_555
O8 Cd1 1_555 1_555
H9A O4 1_555 1_555
C9D C10D 1_555 1_555
C10D C11D 1_555 1_555
C11D C12 1_555 1_555
H5D C11D 1_555 1_555
C12D C11 1_555 1_555
H6D C12D 1_555 1_555
O7D C9D 1_555 1_555
O8D C9D 1_555 1_555
Cd1A O1A 1_555 1_555
C1A C2A 1_555 1_555
C2A H1A 1_555 1_555
C3A C2A 1_555 1_555
H2A C3A 1_555 1_555
C4A C3A 1_555 1_555
C5A C4A 1_555 1_555
H3A C5A 1_555 1_555
C6A C1A 1_555 1_555
H4A C6A 1_555 1_555
C7A C1A 1_555 1_555
C8A C4A 1_555 1_555
O1A Ca1 1_555 1_555
O2A Cd1A 1_555 1_555
H7A O2A 1_555 1_555
H8A O2A 1_555 1_555
O3A Cd1A 1_555 1_555
O5A C8A 1_555 1_555
O6A C8A 1_555 1_555
Cd1D O7D 1_555 1_555
Cd1D_2 O5A 1_555 1_555
Cd1E O5 1_555 1_555
Cd1F O3 1_555 1_555
Cd1G O3A 1_555 1_555
Ca1D O8D 1_555 1_555
Ca1D_2 O6A 1_555 1_555
Ca1D_3 O6 1_555 1_555
O3F Cd1 1_555 1_555
O3G Cd1A 1_555 1_555
O5D Cd1A 1_555 1_555
O5E Cd1 1_555 1_555
O6D Ca1 1_555 1_555
O6E Ca1 1_555 1_555
O7A Cd1A 1_555 1_555
O8A Ca1 1_555 1_555
Ca1 O8 1_555 1_555
C5 C6 1_555 1_555
C7 O3 1_555 1_555
C9 O7 1_555 1_555
C9 O8 1_555 1_555
C10D C12D 1_555 1_555
O8D Cd1D 1_555 1_555
Cd1A O8A 1_555 1_555
C5A C6A 1_555 1_555
C7A O1A 1_555 1_555
C7A O3A 1_555 1_555
Cd1F O3F 1_555 1_555
Cd1G O3G 1_555 1_555

#END
