
#######################################################################
#
#                 Cambridge Crystallographic Data Centre
#                                CCDC 
#
#######################################################################
#
# If this CIF has been generated from an entry in the Cambridge 
# Structural Database, then it will include bibliographic, chemical, 
# crystal, experimental, refinement or atomic coordinate data resulting 
# from the CCDC's data processing and validation procedures.
#
#######################################################################

data_COKMEW
_chemical_formula_moiety         '(C10 H2 Fe2 O10)n'
_symmetry_cell_setting           rhombohedral
_symmetry_space_group_name_H-M   'R -3'
_symmetry_Int_Tables_number      148
_space_group_name_Hall           '-R 3'
loop_
_symmetry_equiv_pos_site_id
_symmetry_equiv_pos_as_xyz
1 x,y,z
2 -y,x-y,z
3 -x+y,-x,z
4 2/3+x,1/3+y,1/3+z
5 2/3-y,1/3+x-y,1/3+z
6 2/3-x+y,1/3-x,1/3+z
7 1/3+x,2/3+y,2/3+z
8 1/3-y,2/3+x-y,2/3+z
9 1/3-x+y,2/3-x,2/3+z
10 -x,-y,-z
11 y,-x+y,-z
12 x-y,x,-z
13 1/3-x,2/3-y,2/3-z
14 1/3+y,2/3-x+y,2/3-z
15 1/3+x-y,2/3+x,2/3-z
16 2/3-x,1/3-y,1/3-z
17 2/3+y,1/3-x+y,1/3-z
18 2/3+x-y,1/3+x,1/3-z
_cell_length_a                   26.0349(5)
_cell_length_b                   26.0349
_cell_length_c                   6.85076(18)
_cell_angle_alpha                90
_cell_angle_beta                 90
_cell_angle_gamma                120
_cell_volume                     4021.44
loop_
_atom_site_label
_atom_site_type_symbol
_atom_site_fract_x
_atom_site_fract_y
_atom_site_fract_z
Fe1 Fe 0.38439(17) 0.35309(18) 0.1400(5)
O1 O 0.32563(27) 0.29358(29) 0.3623(10)
O2 O 0.30203(27) 0.22925(29) 0.6031(10)
O3 O 0.35372(31) 0.27267(26) 0.0117(10)
C1 C 0.31741(26) 0.24599(24) 0.4200(9)
C2 C 0.32779(27) 0.20396(25) 0.2893(9)
C3 C 0.34479(23) 0.22365(26) 0.0916(8)
C4 C 0.35013(27) 0.18239(28) -0.0239(8)
H1 H 0.3609(5) 0.1934(4) -0.1726(19)
O1O O 0.34104(27) 0.03975(29) -0.0290(10)
O2O O 0.36464(27) 0.10408(29) -0.2698(10)
O3O O 0.31295(31) 0.06066(26) 0.3216(10)
C1O C 0.34926(26) 0.08734(24) -0.0867(9)
C2O C 0.33888(27) 0.12937(25) 0.0440(9)
C3O C 0.32188(23) 0.10968(26) 0.2417(8)
C4O C 0.31654(27) 0.15094(28) 0.3572(8)
H1O H 0.3058(5) 0.1399(4) 0.5059(19)
Fe1J Fe 0.35309(18) -0.03130(25) -0.1400(5)
Fe1D Fe 0.31358(18) 0.36463(25) 0.4733(5)
Fe1H Fe 0.30203(25) 0.28228(17) -0.1933(5)
Fe1H_2 Fe 0.30203(25) 0.28228(17) 0.8067(5)
Fe1O Fe 0.28228(17) -0.01976(18) 0.1933(5)
Fe1N Fe 0.36463(25) 0.05106(17) -0.4733(5)
Fe1N_2 Fe 0.36463(25) 0.05106(17) 0.5267(5)
O1H O 0.30128(40) 0.34104(27) 0.0290(10)
O1J O 0.29358(29) -0.03205(40) -0.3623(10)
O2D O 0.43742(29) 0.40611(40) -0.0636(10)
O2N O 0.40611(40) -0.03130(27) 0.0636(10)
O3D O 0.39400(26) 0.41438(40) 0.3450(10)
O3J O 0.27267(26) -0.08105(40) -0.0117(10)
O3N O 0.41438(40) 0.02039(31) -0.3450(10)
O4 O 0.5452(10) 0.4228(10) 0.177(4)
C5 C 0.5019(9) 0.3808(10) 0.219(4)
O5 O 0.4586(9) 0.3392(9) 0.2584(28)
O4J O 0.4228(10) -0.1224(14) -0.177(4)
C5J C 0.3808(10) -0.1211(13) -0.219(4)
O5J O 0.3392(9) -0.1194(13) -0.2584(28)
loop_
_geom_bond_atom_site_label_1
_geom_bond_atom_site_label_2
_geom_bond_site_symmetry_1
_geom_bond_site_symmetry_2
Fe1 O1 1_555 1_555
O1 C1 1_555 1_555
O2 C1 1_555 1_555
O3 Fe1 1_555 1_555
C1 C2 1_555 1_555
C2 C3 1_555 1_555
C3 O3 1_555 1_555
C4 C3 1_555 1_555
H1 C4 1_555 1_555
O4 C5 1_555 1_555
C5 O5 1_555 1_555
O1O C1O 1_555 1_555
O2O C1O 1_555 1_555
O3O C3O 1_555 1_555
C1O C2O 1_555 1_555
C2O C4 1_555 1_555
C3O C2O 1_555 1_555
C4O C2 1_555 1_555
H1O C4O 1_555 1_555
Fe1J O1O 1_555 1_555
Fe1D O1 1_555 1_555
Fe1H O3 1_555 1_555
Fe1H_2 O2 1_555 1_555
Fe1O O1O 1_555 1_555
Fe1N O2O 1_555 1_555
Fe1N_2 O3O 1_555 1_555
O1H Fe1 1_555 1_555
O1J Fe1J 1_555 1_555
O2D Fe1 1_555 1_555
O2N Fe1J 1_555 1_555
O3D Fe1 1_555 1_555
O3J Fe1J 1_555 1_555
O3N Fe1J 1_555 1_555
O4J C5J 1_555 1_555
C5J O5J 1_555 1_555
O3O Fe1O 1_555 1_555
C3O C4O 1_555 1_555
Fe1D O3D 1_555 1_555
Fe1H O1H 1_555 1_555
Fe1O O3J 1_555 1_555
Fe1N O1J 1_555 1_555
Fe1N O3N 1_555 1_555

#END
