
#######################################################################
#
#                 Cambridge Crystallographic Data Centre
#                                CCDC 
#
#######################################################################
#
# If this CIF has been generated from an entry in the Cambridge 
# Structural Database, then it will include bibliographic, chemical, 
# crystal, experimental, refinement or atomic coordinate data resulting 
# from the CCDC's data processing and validation procedures.
#
#######################################################################

data_COKMIA
_chemical_formula_moiety         '(C10 H2 Co2 O10)n'
_symmetry_cell_setting           rhombohedral
_symmetry_space_group_name_H-M   'R -3'
_symmetry_Int_Tables_number      148
_space_group_name_Hall           '-R 3'
loop_
_symmetry_equiv_pos_site_id
_symmetry_equiv_pos_as_xyz
1 x,y,z
2 -y,x-y,z
3 -x+y,-x,z
4 2/3+x,1/3+y,1/3+z
5 2/3-y,1/3+x-y,1/3+z
6 2/3-x+y,1/3-x,1/3+z
7 1/3+x,2/3+y,2/3+z
8 1/3-y,2/3+x-y,2/3+z
9 1/3-x+y,2/3-x,2/3+z
10 -x,-y,-z
11 y,-x+y,-z
12 x-y,x,-z
13 1/3-x,2/3-y,2/3-z
14 1/3+y,2/3-x+y,2/3-z
15 1/3+x-y,2/3+x,2/3-z
16 2/3-x,1/3-y,1/3-z
17 2/3+y,1/3-x+y,1/3-z
18 2/3+x-y,1/3+x,1/3-z
_cell_length_a                   25.8977(9)
_cell_length_b                   25.8977
_cell_length_c                   6.8460(4)
_cell_angle_alpha                90
_cell_angle_beta                 90
_cell_angle_gamma                120
_cell_volume                     3976.4
loop_
_atom_site_label
_atom_site_type_symbol
_atom_site_fract_x
_atom_site_fract_y
_atom_site_fract_z
Co1 Co 0.3816(14) 0.3488(14) 0.133(4)
O1 O 0.3260(5) 0.2973(6) 0.3720(18)
O2 O 0.3022(6) 0.2275(6) 0.6011(16)
O3 O 0.3562(6) 0.2740(6) 0.0047(21)
C1 C 0.3165(5) 0.2470(6) 0.4275(15)
C2 C 0.3302(5) 0.2082(5) 0.2879(15)
C3 C 0.3473(5) 0.2255(6) 0.0891(15)
C4 C 0.3517(6) 0.1809(6) -0.0279(15)
H1 H 0.3616(9) 0.1928(8) -0.1740(31)
O1O O 0.3407(5) 0.0360(6) -0.0387(18)
O2O O 0.3645(6) 0.1058(6) -0.2678(16)
O3O O 0.3105(6) 0.0593(6) 0.3286(21)
C1O C 0.3502(5) 0.0863(6) -0.0942(15)
C2O C 0.3365(5) 0.1251(5) 0.0454(15)
C3O C 0.3194(5) 0.1078(6) 0.2442(15)
C4O C 0.3150(6) 0.1524(6) 0.3612(15)
H1O H 0.3051(9) 0.1405(8) 0.5073(31)
Co1J Co 0.3488(14) -0.0328(20) -0.133(4)
Co1D Co 0.3179(14) 0.3661(20) 0.466(4)
Co1H Co 0.3005(20) 0.2851(14) -0.200(4)
Co1H_2 Co 0.3005(20) 0.2851(14) 0.800(4)
Co1O Co 0.2851(14) -0.0155(14) 0.200(4)
Co1N Co 0.3661(20) 0.0483(14) -0.466(4)
Co1N_2 Co 0.3661(20) 0.0483(14) 0.534(4)
O1H O 0.3046(8) 0.3407(5) 0.0387(18)
O1J O 0.2973(6) -0.0287(8) -0.3720(18)
O2D O 0.4392(6) 0.4080(8) -0.0656(16)
O2N O 0.4080(8) -0.0311(6) 0.0656(16)
O3D O 0.3927(6) 0.4155(8) 0.3380(21)
O3J O 0.2740(6) -0.0822(8) -0.0047(21)
O3N O 0.4155(8) 0.0229(6) -0.3380(21)
O4 O 0.5512(19) 0.4237(18) 0.171(5)
C5 C 0.5051(12) 0.3849(12) 0.225(4)
O5 O 0.4602(10) 0.3515(9) 0.2776(29)
O4J O 0.4237(18) -0.1275(26) -0.171(5)
C5J C 0.3849(12) -0.1202(17) -0.225(4)
O5J O 0.3515(9) -0.1087(13) -0.2776(29)
loop_
_geom_bond_atom_site_label_1
_geom_bond_atom_site_label_2
_geom_bond_site_symmetry_1
_geom_bond_site_symmetry_2
Co1 O1 1_555 1_555
O1 C1 1_555 1_555
O2 C1 1_555 1_555
O3 Co1 1_555 1_555
C1 C2 1_555 1_555
C2 C3 1_555 1_555
C3 O3 1_555 1_555
C4 C3 1_555 1_555
H1 C4 1_555 1_555
O4 C5 1_555 1_555
C5 O5 1_555 1_555
O1O C1O 1_555 1_555
O2O C1O 1_555 1_555
O3O C3O 1_555 1_555
C1O C2O 1_555 1_555
C2O C4 1_555 1_555
C3O C2O 1_555 1_555
C4O C2 1_555 1_555
H1O C4O 1_555 1_555
Co1J O1O 1_555 1_555
Co1D O1 1_555 1_555
Co1H O3 1_555 1_555
Co1H_2 O2 1_555 1_555
Co1O O1O 1_555 1_555
Co1N O2O 1_555 1_555
Co1N_2 O3O 1_555 1_555
O1H Co1 1_555 1_555
O1J Co1J 1_555 1_555
O2D Co1 1_555 1_555
O2N Co1J 1_555 1_555
O3D Co1 1_555 1_555
O3J Co1J 1_555 1_555
O3N Co1J 1_555 1_555
O4J C5J 1_555 1_555
C5J O5J 1_555 1_555
O3O Co1O 1_555 1_555
C3O C4O 1_555 1_555
Co1D O3D 1_555 1_555
Co1H O1H 1_555 1_555
Co1O O3J 1_555 1_555
Co1N O1J 1_555 1_555
Co1N O3N 1_555 1_555

#END
