
#######################################################################
#
#                 Cambridge Crystallographic Data Centre
#                                CCDC 
#
#######################################################################
#
# If this CIF has been generated from an entry in the Cambridge 
# Structural Database, then it will include bibliographic, chemical, 
# crystal, experimental, refinement or atomic coordinate data resulting 
# from the CCDC's data processing and validation procedures.
#
#######################################################################

data_COKNIB
_chemical_formula_moiety         '(C8 H2 Cu2 O6)n'
_symmetry_cell_setting           rhombohedral
_symmetry_space_group_name_H-M   'R -3'
_symmetry_Int_Tables_number      148
_space_group_name_Hall           '-R 3'
loop_
_symmetry_equiv_pos_site_id
_symmetry_equiv_pos_as_xyz
1 x,y,z
2 -y,x-y,z
3 -x+y,-x,z
4 2/3+x,1/3+y,1/3+z
5 2/3-y,1/3+x-y,1/3+z
6 2/3-x+y,1/3-x,1/3+z
7 1/3+x,2/3+y,2/3+z
8 1/3-y,2/3+x-y,2/3+z
9 1/3-x+y,2/3-x,2/3+z
10 -x,-y,-z
11 y,-x+y,-z
12 x-y,x,-z
13 1/3-x,2/3-y,2/3-z
14 1/3+y,2/3-x+y,2/3-z
15 1/3+x-y,2/3+x,2/3-z
16 2/3-x,1/3-y,1/3-z
17 2/3+y,1/3-x+y,1/3-z
18 2/3+x-y,1/3+x,1/3-z
_cell_length_a                   25.8733(7)
_cell_length_b                   25.8733
_cell_length_c                   6.25768(20)
_cell_angle_alpha                90
_cell_angle_beta                 90
_cell_angle_gamma                120
_cell_volume                     3627.84
loop_
_atom_site_label
_atom_site_type_symbol
_atom_site_fract_x
_atom_site_fract_y
_atom_site_fract_z
_atom_site_U_iso_or_equiv
_atom_site_thermal_displace_type
Cu1 Cu 0.38634(20) 0.34840(21) 0.1754(8) 0.0001 Uiso
O1 O 0.35510(34) 0.30258(28) 0.4374(11) 0.0116 Uiso
O2 O 0.29202(33) 0.22434(31) 0.6278(11) 0.0116 Uiso
O3 O 0.35912(34) 0.27591(29) 0.0047(11) 0.0116 Uiso
C1 C 0.32357(28) 0.24801(26) 0.4654(10) 0.0106 Uiso
C2 C 0.32674(27) 0.20637(26) 0.3030(10) 0.0106 Uiso
C3 C 0.34801(30) 0.22354(27) 0.0931(11) 0.0106 Uiso
C4 C 0.35445(25) 0.18397(31) -0.0404(10) 0.0106 Uiso
H1 H 0.3687(5) 0.1963(5) -0.2043(16) 0.0208 Uiso
O1O O 0.31157(34) 0.03075(28) -0.1041(11) 0.0116 Uiso
O2O O 0.37465(33) 0.10899(31) -0.2945(11) 0.0116 Uiso
O3O O 0.30755(34) 0.05742(29) 0.3286(11) 0.0116 Uiso
C1O C 0.34310(28) 0.08532(26) -0.1321(10) 0.0106 Uiso
C2O C 0.33993(27) 0.12696(26) 0.0303(10) 0.0106 Uiso
C3O C 0.31866(30) 0.10979(27) 0.2402(11) 0.0106 Uiso
C4O C 0.31222(25) 0.14936(31) 0.3737(10) 0.0106 Uiso
H1O H 0.2980(5) 0.1370(5) 0.5376(16) 0.0208 Uiso
Cu1J Cu 0.34840(21) -0.03794(29) -0.1754(8) 0.0001 Uiso
Cu1D Cu 0.31827(21) 0.37127(29) 0.5087(8) 0.0001 Uiso
Cu1H Cu 0.29539(29) 0.28033(20) -0.1579(8) 0.0001 Uiso
Cu1H_2 Cu 0.29539(29) 0.28033(20) 0.8421(8) 0.0001 Uiso
Cu1O Cu 0.28033(20) -0.01507(21) 0.1579(8) 0.0001 Uiso
Cu1N Cu 0.37127(29) 0.05301(20) -0.5087(8) 0.0001 Uiso
Cu1N_2 Cu 0.37127(29) 0.05301(20) 0.4913(8) 0.0001 Uiso
O1H O 0.28081(44) 0.31157(34) 0.1041(11) 0.0116 Uiso
O1J O 0.30258(28) -0.05252(44) -0.4374(11) 0.0116 Uiso
O2D O 0.44233(31) 0.40101(45) -0.0389(11) 0.0116 Uiso
O2N O 0.40101(45) -0.04131(33) 0.0389(11) 0.0116 Uiso
O3D O 0.39076(29) 0.41654(45) 0.3380(11) 0.0116 Uiso
O3J O 0.27591(29) -0.08321(45) -0.0047(11) 0.0116 Uiso
O3N O 0.41654(45) 0.02579(34) -0.3380(11) 0.0116 Uiso
loop_
_geom_bond_atom_site_label_1
_geom_bond_atom_site_label_2
_geom_bond_site_symmetry_1
_geom_bond_site_symmetry_2
Cu1 O1 1_555 1_555
O1 C1 1_555 1_555
O2 C1 1_555 1_555
O3 Cu1 1_555 1_555
C1 C2 1_555 1_555
C2 C3 1_555 1_555
C3 O3 1_555 1_555
C4 C3 1_555 1_555
H1 C4 1_555 1_555
O1O C1O 1_555 1_555
O2O C1O 1_555 1_555
O3O C3O 1_555 1_555
C1O C2O 1_555 1_555
C2O C4 1_555 1_555
C3O C2O 1_555 1_555
C4O C2 1_555 1_555
H1O C4O 1_555 1_555
Cu1J O1O 1_555 1_555
Cu1D O1 1_555 1_555
Cu1H O3 1_555 1_555
Cu1H_2 O2 1_555 1_555
Cu1O O1O 1_555 1_555
Cu1N O2O 1_555 1_555
Cu1N_2 O3O 1_555 1_555
O1H Cu1 1_555 1_555
O1J Cu1J 1_555 1_555
O2D Cu1 1_555 1_555
O2N Cu1J 1_555 1_555
O3D Cu1 1_555 1_555
O3J Cu1J 1_555 1_555
O3N Cu1J 1_555 1_555
O3O Cu1O 1_555 1_555
C3O C4O 1_555 1_555
Cu1D O3D 1_555 1_555
Cu1H O1H 1_555 1_555
Cu1O O3J 1_555 1_555
Cu1N O1J 1_555 1_555
Cu1N O3N 1_555 1_555

#END
