
#######################################################################
#
#                 Cambridge Crystallographic Data Centre
#                                CCDC 
#
#######################################################################
#
# If this CIF has been generated from an entry in the Cambridge 
# Structural Database, then it will include bibliographic, chemical, 
# crystal, experimental, refinement or atomic coordinate data resulting 
# from the CCDC's data processing and validation procedures.
#
#######################################################################

data_COKNAT
_chemical_formula_moiety         '(C10 H2 O10 Zn2)n'
_symmetry_cell_setting           rhombohedral
_symmetry_space_group_name_H-M   'R -3'
_symmetry_Int_Tables_number      148
_space_group_name_Hall           '-R 3'
loop_
_symmetry_equiv_pos_site_id
_symmetry_equiv_pos_as_xyz
1 x,y,z
2 -y,x-y,z
3 -x+y,-x,z
4 2/3+x,1/3+y,1/3+z
5 2/3-y,1/3+x-y,1/3+z
6 2/3-x+y,1/3-x,1/3+z
7 1/3+x,2/3+y,2/3+z
8 1/3-y,2/3+x-y,2/3+z
9 1/3-x+y,2/3-x,2/3+z
10 -x,-y,-z
11 y,-x+y,-z
12 x-y,x,-z
13 1/3-x,2/3-y,2/3-z
14 1/3+y,2/3-x+y,2/3-z
15 1/3+x-y,2/3+x,2/3-z
16 2/3-x,1/3-y,1/3-z
17 2/3+y,1/3-x+y,1/3-z
18 2/3+x-y,1/3+x,1/3-z
_cell_length_a                   25.9140(17)
_cell_length_b                   25.914
_cell_length_c                   6.7986(6)
_cell_angle_alpha                90
_cell_angle_beta                 90
_cell_angle_gamma                120
_cell_volume                     3953.84
loop_
_atom_site_label
_atom_site_type_symbol
_atom_site_fract_x
_atom_site_fract_y
_atom_site_fract_z
Zn1 Zn 0.3836(8) 0.3546(9) 0.1436(22)
O1 O 0.3281(6) 0.2966(7) 0.3751(25)
O2 O 0.3001(7) 0.2267(7) 0.6112(21)
O3 O 0.3537(8) 0.2743(8) 0.0166(24)
C1 C 0.3157(7) 0.2448(7) 0.4339(19)
C2 C 0.3270(7) 0.2064(6) 0.2837(18)
C3 C 0.3431(6) 0.2212(6) 0.0919(18)
C4 C 0.3525(7) 0.1841(8) -0.0356(19)
H1 H 0.3609(14) 0.1910(14) -0.165(4)
O1O O 0.3386(6) 0.0367(7) -0.0418(25)
O2O O 0.3666(7) 0.1066(7) -0.2779(21)
O3O O 0.3130(8) 0.0590(8) 0.3167(24)
C1O C 0.3510(7) 0.0885(7) -0.1006(19)
C2O C 0.3397(7) 0.1269(6) 0.0496(18)
C3O C 0.3236(6) 0.1121(6) 0.2414(18)
C4O C 0.3142(7) 0.1492(8) 0.3689(19)
H1O H 0.3058(14) 0.1423(14) 0.498(4)
Zn1J Zn 0.3546(9) -0.0290(12) -0.1436(22)
Zn1D Zn 0.3121(9) 0.3623(12) 0.4769(22)
Zn1H Zn 0.3043(12) 0.2831(8) -0.1897(22)
Zn1H_2 Zn 0.3043(12) 0.2831(8) 0.8103(22)
Zn1O Zn 0.2831(8) -0.0213(9) 0.1897(22)
Zn1N Zn 0.3623(12) 0.0503(8) -0.4769(22)
Zn1N_2 Zn 0.3623(12) 0.0503(8) 0.5231(22)
O1H O 0.3018(9) 0.3386(6) 0.0418(25)
O1J O 0.2966(7) -0.0315(9) -0.3751(25)
O2D O 0.4400(7) 0.4067(10) -0.0555(21)
O2N O 0.4067(10) -0.0332(7) 0.0555(21)
O3D O 0.3924(8) 0.4127(11) 0.3499(24)
O3J O 0.2743(8) -0.0794(11) -0.0166(24)
O3N O 0.4127(11) 0.0204(8) -0.3499(24)
O4 O 0.5622(29) 0.4327(29) 0.205(9)
C5 C 0.5148(18) 0.3909(16) 0.244(6)
O5 O 0.4689(15) 0.3520(12) 0.281(4)
O4J O 0.4327(29) -0.1295(41) -0.205(9)
C5J C 0.3909(16) -0.1239(24) -0.244(6)
O5J O 0.3520(12) -0.1169(19) -0.281(4)
loop_
_geom_bond_atom_site_label_1
_geom_bond_atom_site_label_2
_geom_bond_site_symmetry_1
_geom_bond_site_symmetry_2
Zn1 O1 1_555 1_555
O1 C1 1_555 1_555
O2 C1 1_555 1_555
O3 Zn1 1_555 1_555
C1 C2 1_555 1_555
C2 C3 1_555 1_555
C3 O3 1_555 1_555
C4 C3 1_555 1_555
H1 C4 1_555 1_555
O4 C5 1_555 1_555
C5 O5 1_555 1_555
O1O C1O 1_555 1_555
O2O C1O 1_555 1_555
O3O C3O 1_555 1_555
C1O C2O 1_555 1_555
C2O C4 1_555 1_555
C3O C2O 1_555 1_555
C4O C2 1_555 1_555
H1O C4O 1_555 1_555
Zn1J O1O 1_555 1_555
Zn1D O1 1_555 1_555
Zn1H O3 1_555 1_555
Zn1H_2 O2 1_555 1_555
Zn1O O1O 1_555 1_555
Zn1N O2O 1_555 1_555
Zn1N_2 O3O 1_555 1_555
O1H Zn1 1_555 1_555
O1J Zn1J 1_555 1_555
O2D Zn1 1_555 1_555
O2N Zn1J 1_555 1_555
O3D Zn1 1_555 1_555
O3J Zn1J 1_555 1_555
O3N Zn1J 1_555 1_555
O4J C5J 1_555 1_555
C5J O5J 1_555 1_555
O3O Zn1O 1_555 1_555
C3O C4O 1_555 1_555
Zn1D O3D 1_555 1_555
Zn1H O1H 1_555 1_555
Zn1O O3J 1_555 1_555
Zn1N O1J 1_555 1_555
Zn1N O3N 1_555 1_555

#END
