
#######################################################################
#
#                 Cambridge Crystallographic Data Centre
#                                CCDC 
#
#######################################################################
#
# If this CIF has been generated from an entry in the Cambridge 
# Structural Database, then it will include bibliographic, chemical, 
# crystal, experimental, refinement or atomic coordinate data resulting 
# from the CCDC's data processing and validation procedures.
#
#######################################################################

data_COKPOJ
_chemical_formula_moiety         '(C11 H2 Co2 O12)n'
_symmetry_cell_setting           rhombohedral
_symmetry_space_group_name_H-M   'R -3'
_symmetry_Int_Tables_number      148
_space_group_name_Hall           '-R 3'
loop_
_symmetry_equiv_pos_site_id
_symmetry_equiv_pos_as_xyz
1 x,y,z
2 -y,x-y,z
3 -x+y,-x,z
4 2/3+x,1/3+y,1/3+z
5 2/3-y,1/3+x-y,1/3+z
6 2/3-x+y,1/3-x,1/3+z
7 1/3+x,2/3+y,2/3+z
8 1/3-y,2/3+x-y,2/3+z
9 1/3-x+y,2/3-x,2/3+z
10 -x,-y,-z
11 y,-x+y,-z
12 x-y,x,-z
13 1/3-x,2/3-y,2/3-z
14 1/3+y,2/3-x+y,2/3-z
15 1/3+x-y,2/3+x,2/3-z
16 2/3-x,1/3-y,1/3-z
17 2/3+y,1/3-x+y,1/3-z
18 2/3+x-y,1/3+x,1/3-z
_cell_length_a                   25.8735(12)
_cell_length_b                   25.8735
_cell_length_c                   6.8486(4)
_cell_angle_alpha                90
_cell_angle_beta                 90
_cell_angle_gamma                120
_cell_volume                     3970.48
loop_
_atom_site_label
_atom_site_type_symbol
_atom_site_fract_x
_atom_site_fract_y
_atom_site_fract_z
Co1 Co 0.3786(13) 0.3490(14) 0.151(4)
O1 O 0.3287(6) 0.2959(7) 0.3637(20)
O2 O 0.3026(7) 0.2291(7) 0.5987(20)
O3 O 0.3577(7) 0.2758(7) 0.0022(24)
C1 C 0.3191(6) 0.2476(6) 0.4286(17)
C2 C 0.3282(7) 0.2069(6) 0.2898(17)
C3 C 0.3465(6) 0.2239(7) 0.0908(17)
C4 C 0.3506(6) 0.1816(7) -0.0244(19)
H1 H 0.3577(12) 0.1913(10) -0.168(4)
O4 O 0.5648(23) 0.4138(21) 0.318(6)
C5 C 0.5121(10) 0.3814(11) 0.2921(29)
O5 O 0.4628(10) 0.3506(9) 0.2716(28)
O1O O 0.3380(6) 0.0374(7) -0.0304(20)
O2O O 0.3641(7) 0.1042(7) -0.2654(20)
O3O O 0.3090(7) 0.0575(7) 0.3311(24)
C1O C 0.3476(6) 0.0857(6) -0.0953(17)
C2O C 0.3385(7) 0.1264(6) 0.0435(17)
C3O C 0.3202(6) 0.1094(7) 0.2425(17)
C4O C 0.3161(6) 0.1517(7) 0.3577(19)
H1O H 0.3090(12) 0.1420(10) 0.501(4)
Co1J Co 0.3490(14) -0.0296(19) -0.151(4)
O4J O 0.4138(21) -0.1510(31) -0.318(6)
C5J C 0.3814(11) -0.1307(15) -0.2921(29)
O5J O 0.3506(9) -0.1122(13) -0.2716(28)
Co1D Co 0.3177(14) 0.3629(19) 0.484(4)
Co1H Co 0.3037(19) 0.2881(13) -0.182(4)
Co1H_2 Co 0.3037(19) 0.2881(13) 0.818(4)
Co1O Co 0.2881(13) -0.0157(14) 0.182(4)
Co1N Co 0.3629(19) 0.0453(13) -0.484(4)
Co1N_2 Co 0.3629(19) 0.0453(13) 0.516(4)
O1H O 0.3005(9) 0.3380(6) 0.0304(20)
O1J O 0.2959(7) -0.0328(9) -0.3637(20)
O2D O 0.4376(7) 0.4068(10) -0.0680(20)
O2N O 0.4068(10) -0.0307(7) 0.0680(20)
O3D O 0.3909(7) 0.4152(10) 0.3355(24)
O3J O 0.2758(7) -0.0819(10) -0.0022(24)
O3N O 0.4152(10) 0.0244(7) -0.3355(24)
O6 O 0.2060(14) 0.0239(14) 0.657(5)
C6 C 0.1840(10) 0.0245(11) 0.511(5)
O7 O 0.1644(13) 0.0287(14) 0.369(6)
loop_
_geom_bond_atom_site_label_1
_geom_bond_atom_site_label_2
_geom_bond_site_symmetry_1
_geom_bond_site_symmetry_2
Co1 O1 1_555 1_555
O1 C1 1_555 1_555
O2 C1 1_555 1_555
O3 Co1 1_555 1_555
C1 C2 1_555 1_555
C2 C3 1_555 1_555
C3 O3 1_555 1_555
C4 C3 1_555 1_555
H1 C4 1_555 1_555
O4 C5 1_555 1_555
C5 O5 1_555 1_555
O5 Co1 1_555 1_555
O6 C6 1_555 1_555
C6 O7 1_555 1_555
O1O C1O 1_555 1_555
O2O C1O 1_555 1_555
O3O C3O 1_555 1_555
C1O C2O 1_555 1_555
C2O C4 1_555 1_555
C3O C2O 1_555 1_555
C4O C2 1_555 1_555
H1O C4O 1_555 1_555
Co1J O1O 1_555 1_555
O4J C5J 1_555 1_555
C5J O5J 1_555 1_555
O5J Co1J 1_555 1_555
Co1D O1 1_555 1_555
Co1H O3 1_555 1_555
Co1H_2 O2 1_555 1_555
Co1O O1O 1_555 1_555
Co1N O2O 1_555 1_555
Co1N_2 O3O 1_555 1_555
O1H Co1 1_555 1_555
O1J Co1J 1_555 1_555
O2D Co1 1_555 1_555
O2N Co1J 1_555 1_555
O3D Co1 1_555 1_555
O3J Co1J 1_555 1_555
O3N Co1J 1_555 1_555
O3O Co1O 1_555 1_555
C3O C4O 1_555 1_555
Co1D O3D 1_555 1_555
Co1H O1H 1_555 1_555
Co1O O3J 1_555 1_555
Co1N O1J 1_555 1_555
Co1N O3N 1_555 1_555

#END
