
#######################################################################
#
#                 Cambridge Crystallographic Data Centre
#                                CCDC 
#
#######################################################################
#
# If this CIF has been generated from an entry in the Cambridge 
# Structural Database, then it will include bibliographic, chemical, 
# crystal, experimental, refinement or atomic coordinate data resulting 
# from the CCDC's data processing and validation procedures.
#
#######################################################################

data_COKPEZ
_chemical_formula_moiety         '(C10 H2 Mg2 O10)n'
_symmetry_cell_setting           rhombohedral
_symmetry_space_group_name_H-M   'R -3'
_symmetry_Int_Tables_number      148
_space_group_name_Hall           '-R 3'
loop_
_symmetry_equiv_pos_site_id
_symmetry_equiv_pos_as_xyz
1 x,y,z
2 -y,x-y,z
3 -x+y,-x,z
4 2/3+x,1/3+y,1/3+z
5 2/3-y,1/3+x-y,1/3+z
6 2/3-x+y,1/3-x,1/3+z
7 1/3+x,2/3+y,2/3+z
8 1/3-y,2/3+x-y,2/3+z
9 1/3-x+y,2/3-x,2/3+z
10 -x,-y,-z
11 y,-x+y,-z
12 x-y,x,-z
13 1/3-x,2/3-y,2/3-z
14 1/3+y,2/3-x+y,2/3-z
15 1/3+x-y,2/3+x,2/3-z
16 2/3-x,1/3-y,1/3-z
17 2/3+y,1/3-x+y,1/3-z
18 2/3+x-y,1/3+x,1/3-z
_cell_length_a                   25.8728(8)
_cell_length_b                   25.8728
_cell_length_c                   6.87004(30)
_cell_angle_alpha                90
_cell_angle_beta                 90
_cell_angle_gamma                120
_cell_volume                     3982.69
loop_
_atom_site_label
_atom_site_type_symbol
_atom_site_fract_x
_atom_site_fract_y
_atom_site_fract_z
Mg1 Mg 0.3804(4) 0.3515(4) 0.1382(10)
O1 O 0.32522(30) 0.29556(31) 0.3620(11)
O2 O 0.30284(33) 0.2288(4) 0.5976(10)
O3 O 0.3539(4) 0.2744(4) 0.0023(12)
C1 C 0.31582(32) 0.24659(33) 0.4239(9)
C2 C 0.32894(31) 0.20868(28) 0.2858(9)
C3 C 0.34593(31) 0.22389(34) 0.0919(10)
C4 C 0.35265(34) 0.18251(34) -0.0272(9)
H1 H 0.3606(5) 0.1904(5) -0.1737(15)
O1O O 0.34145(30) 0.03777(31) -0.0287(11)
O2O O 0.36383(33) 0.1045(4) -0.2643(10)
O3O O 0.3128(4) 0.0589(4) 0.3310(12)
C1O C 0.35085(32) 0.08674(33) -0.0906(9)
C2O C 0.33773(31) 0.12465(28) 0.0475(9)
C3O C 0.32074(31) 0.10944(34) 0.2414(10)
C4O C 0.31402(34) 0.15082(34) 0.3605(9)
H1O H 0.3061(5) 0.1429(5) 0.5070(15)
Mg1J Mg 0.3515(4) -0.0289(6) -0.1382(10)
Mg1D Mg 0.3152(4) 0.3622(6) 0.4715(10)
Mg1H Mg 0.3044(6) 0.2863(4) -0.1951(10)
Mg1H_2 Mg 0.3044(6) 0.2863(4) 0.8049(10)
Mg1O Mg 0.2863(4) -0.0182(4) 0.1951(10)
Mg1N Mg 0.3622(6) 0.0471(4) -0.4715(10)
Mg1N_2 Mg 0.3622(6) 0.0471(4) 0.5285(10)
O1H O 0.30367(43) 0.34145(30) 0.0287(11)
O1J O 0.29556(31) -0.02966(43) -0.3620(11)
O2D O 0.4379(4) 0.40737(52) -0.0691(10)
O2N O 0.40737(52) -0.03049(33) 0.0691(10)
O3D O 0.3923(4) 0.4128(6) 0.3356(12)
O3J O 0.2744(4) -0.0795(6) -0.0023(12)
O3N O 0.4128(6) 0.0206(4) -0.3356(12)
O4 O 0.5616(8) 0.4240(8) 0.2685(23)
C5 C 0.5106(6) 0.3881(5) 0.2670(17)
O5 O 0.4616(4) 0.3523(4) 0.2666(13)
O4J O 0.4240(8) -0.1376(11) -0.2685(23)
C5J C 0.3881(5) -0.1225(8) -0.2670(17)
O5J O 0.3523(4) -0.1093(6) -0.2666(13)
loop_
_geom_bond_atom_site_label_1
_geom_bond_atom_site_label_2
_geom_bond_site_symmetry_1
_geom_bond_site_symmetry_2
Mg1 O1 1_555 1_555
O1 C1 1_555 1_555
O2 C1 1_555 1_555
O3 Mg1 1_555 1_555
C1 C2 1_555 1_555
C2 C3 1_555 1_555
C3 O3 1_555 1_555
C4 C3 1_555 1_555
H1 C4 1_555 1_555
O4 C5 1_555 1_555
C5 O5 1_555 1_555
O1O C1O 1_555 1_555
O2O C1O 1_555 1_555
O3O C3O 1_555 1_555
C1O C2O 1_555 1_555
C2O C4 1_555 1_555
C3O C2O 1_555 1_555
C4O C2 1_555 1_555
H1O C4O 1_555 1_555
Mg1J O1O 1_555 1_555
Mg1D O1 1_555 1_555
Mg1H O3 1_555 1_555
Mg1H_2 O2 1_555 1_555
Mg1O O1O 1_555 1_555
Mg1N O2O 1_555 1_555
Mg1N_2 O3O 1_555 1_555
O1H Mg1 1_555 1_555
O1J Mg1J 1_555 1_555
O2D Mg1 1_555 1_555
O2N Mg1J 1_555 1_555
O3D Mg1 1_555 1_555
O3J Mg1J 1_555 1_555
O3N Mg1J 1_555 1_555
O4J C5J 1_555 1_555
C5J O5J 1_555 1_555
O3O Mg1O 1_555 1_555
C3O C4O 1_555 1_555
Mg1D O3D 1_555 1_555
Mg1H O1H 1_555 1_555
Mg1O O3J 1_555 1_555
Mg1N O1J 1_555 1_555
Mg1N O3N 1_555 1_555

#END
