
#######################################################################
#
#                 Cambridge Crystallographic Data Centre
#                                CCDC 
#
#######################################################################
#
# If this CIF has been generated from an entry in the Cambridge 
# Structural Database, then it will include bibliographic, chemical, 
# crystal, experimental, refinement or atomic coordinate data resulting 
# from the CCDC's data processing and validation procedures.
#
#######################################################################

data_COKQIE
_chemical_formula_moiety         '(C11 H2 Fe2 O12)n'
_symmetry_cell_setting           rhombohedral
_symmetry_space_group_name_H-M   'R -3'
_symmetry_Int_Tables_number      148
_space_group_name_Hall           '-R 3'
loop_
_symmetry_equiv_pos_site_id
_symmetry_equiv_pos_as_xyz
1 x,y,z
2 -y,x-y,z
3 -x+y,-x,z
4 2/3+x,1/3+y,1/3+z
5 2/3-y,1/3+x-y,1/3+z
6 2/3-x+y,1/3-x,1/3+z
7 1/3+x,2/3+y,2/3+z
8 1/3-y,2/3+x-y,2/3+z
9 1/3-x+y,2/3-x,2/3+z
10 -x,-y,-z
11 y,-x+y,-z
12 x-y,x,-z
13 1/3-x,2/3-y,2/3-z
14 1/3+y,2/3-x+y,2/3-z
15 1/3+x-y,2/3+x,2/3-z
16 2/3-x,1/3-y,1/3-z
17 2/3+y,1/3-x+y,1/3-z
18 2/3+x-y,1/3+x,1/3-z
_cell_length_a                   26.0818(13)
_cell_length_b                   26.0818
_cell_length_c                   6.8783(6)
_cell_angle_alpha                90
_cell_angle_beta                 90
_cell_angle_gamma                120
_cell_volume                     4052.16
loop_
_atom_site_label
_atom_site_type_symbol
_atom_site_fract_x
_atom_site_fract_y
_atom_site_fract_z
Fe1 Fe 0.38620(34) 0.3557(4) 0.1342(11)
O1 O 0.3256(5) 0.2966(5) 0.3697(19)
O2 O 0.3573(6) 0.2668(5) 0.0098(20)
O3 O 0.4373(5) 0.4073(7) -0.0763(18)
C1 C 0.3206(5) 0.2494(4) 0.4203(16)
C2 C 0.3410(5) 0.2164(4) 0.1172(15)
C3 C 0.3157(5) 0.1994(4) 0.3003(15)
C4 C 0.3451(5) 0.1818(4) -0.0245(15)
H1 H 0.3613(8) 0.1928(8) -0.1618(30)
O1H O 0.3043(7) 0.3411(5) 0.0364(19)
O2D O 0.3999(5) 0.4238(8) 0.3431(20)
Fe1D Fe 0.3110(4) 0.36383(52) 0.4675(11)
Fe1H Fe 0.30283(52) 0.28047(34) -0.1991(11)
O3H O 0.3033(9) 0.2294(5) 0.5904(18)
Fe1H_2 Fe 0.30283(52) 0.28047(34) 0.8009(11)
C4O C 0.3216(5) 0.1515(4) 0.3578(15)
C3O C 0.3510(5) 0.1339(4) 0.0330(15)
C2O C 0.3257(5) 0.1169(4) 0.2161(15)
H1O H 0.3054(8) 0.1405(8) 0.4951(30)
C1O C 0.3461(5) 0.0839(4) -0.0870(16)
O2O O 0.3094(6) 0.0665(5) 0.3235(20)
O1O O 0.3411(5) 0.0367(5) -0.0364(19)
O3N O 0.3633(9) 0.1040(5) -0.2570(18)
Fe1O Fe 0.28047(34) -0.0224(4) 0.1991(11)
Fe1N Fe 0.36383(52) 0.05287(34) 0.5325(11)
Fe1J Fe 0.3557(4) -0.03050(52) -0.1342(11)
Fe1N_2 Fe 0.36383(52) 0.05287(34) -0.4675(11)
O2J O 0.2668(5) -0.0905(8) -0.0098(20)
O1J O 0.2966(5) -0.0290(7) -0.3697(19)
O3J O 0.4073(7) -0.0300(9) 0.0763(18)
O2N O 0.4238(8) 0.0240(6) -0.3431(20)
O4 O 0.4497(9) 0.3270(10) 0.2898(32)
C5 C 0.4953(9) 0.3660(8) 0.2646(28)
O5 O 0.5430(13) 0.4064(11) 0.238(5)
O4J O 0.3270(10) -0.1227(13) -0.2898(32)
C5J C 0.3660(8) -0.1293(12) -0.2646(28)
O5J O 0.4064(11) -0.1366(17) -0.238(5)
O6 O 0.191(4) 0.043(5) 0.659(18)
C6 C 0.1742(34) 0.038(4) 0.512(13)
O7 O 0.159(4) 0.036(4) 0.359(16)
loop_
_geom_bond_atom_site_label_1
_geom_bond_atom_site_label_2
_geom_bond_site_symmetry_1
_geom_bond_site_symmetry_2
Fe1 O1 1_555 1_555
O1 C1 1_555 1_555
O2 Fe1 1_555 1_555
O3 Fe1 1_555 1_555
C1 C3 1_555 1_555
C2 O2 1_555 1_555
C3 C2 1_555 1_555
C4 C2 1_555 1_555
H1 C4 1_555 1_555
O4 C5 1_555 1_555
C5 O5 1_555 1_555
O6 C6 1_555 1_555
C6 O7 1_555 1_555
O1H Fe1 1_555 1_555
O2D Fe1 1_555 1_555
Fe1D O1 1_555 1_555
Fe1H O2 1_555 1_555
O3H C1 1_555 1_555
Fe1H_2 O3H 1_555 1_555
C4O C3 1_555 1_555
C3O C4 1_555 1_555
C2O C4O 1_555 1_555
H1O C4O 1_555 1_555
C1O C3O 1_555 1_555
O2O C2O 1_555 1_555
O1O C1O 1_555 1_555
O3N C1O 1_555 1_555
Fe1O O2O 1_555 1_555
Fe1N O2O 1_555 1_555
Fe1J O1O 1_555 1_555
Fe1N_2 O3N 1_555 1_555
O2J Fe1O 1_555 1_555
O1J Fe1J 1_555 1_555
O3J Fe1J 1_555 1_555
O2N Fe1J 1_555 1_555
O4J C5J 1_555 1_555
C5J O5J 1_555 1_555
O1H Fe1H 1_555 1_555
O2D Fe1D 1_555 1_555
C3O C2O 1_555 1_555
O1O Fe1O 1_555 1_555
Fe1J O2J 1_555 1_555
Fe1N_2 O1J 1_555 1_555
Fe1N_2 O2N 1_555 1_555

#END
