
#######################################################################
#
#                 Cambridge Crystallographic Data Centre
#                                CCDC 
#
#######################################################################
#
# If this CIF has been generated from an entry in the Cambridge 
# Structural Database, then it will include bibliographic, chemical, 
# crystal, experimental, refinement or atomic coordinate data resulting 
# from the CCDC's data processing and validation procedures.
#
#######################################################################

data_COKQOK
_chemical_formula_moiety         '(C10 H2 O10 Zn2)n'
_symmetry_cell_setting           rhombohedral
_symmetry_space_group_name_H-M   'R -3'
_symmetry_Int_Tables_number      148
_space_group_name_Hall           '-R 3'
loop_
_symmetry_equiv_pos_site_id
_symmetry_equiv_pos_as_xyz
1 x,y,z
2 -y,x-y,z
3 -x+y,-x,z
4 2/3+x,1/3+y,1/3+z
5 2/3-y,1/3+x-y,1/3+z
6 2/3-x+y,1/3-x,1/3+z
7 1/3+x,2/3+y,2/3+z
8 1/3-y,2/3+x-y,2/3+z
9 1/3-x+y,2/3-x,2/3+z
10 -x,-y,-z
11 y,-x+y,-z
12 x-y,x,-z
13 1/3-x,2/3-y,2/3-z
14 1/3+y,2/3-x+y,2/3-z
15 1/3+x-y,2/3+x,2/3-z
16 2/3-x,1/3-y,1/3-z
17 2/3+y,1/3-x+y,1/3-z
18 2/3+x-y,1/3+x,1/3-z
_cell_length_a                   25.8870(16)
_cell_length_b                   25.887
_cell_length_c                   6.8210(6)
_cell_angle_alpha                90
_cell_angle_beta                 90
_cell_angle_gamma                120
_cell_volume                     3958.6
loop_
_atom_site_label
_atom_site_type_symbol
_atom_site_fract_x
_atom_site_fract_y
_atom_site_fract_z
Zn1 Zn 0.3836(9) 0.3524(9) 0.1355(21)
O1 O 0.3271(7) 0.2944(8) 0.3618(30)
O2 O 0.3033(8) 0.2283(8) 0.6077(27)
O3 O 0.3542(9) 0.2738(8) 0.0026(26)
C1 C 0.3160(8) 0.2447(8) 0.4295(22)
C2 C 0.3259(8) 0.2064(8) 0.2833(21)
C3 C 0.3412(8) 0.2202(8) 0.0939(22)
C4 C 0.3493(8) 0.1807(9) -0.0277(25)
H1 H 0.3637(13) 0.1940(13) -0.153(4)
O1O O 0.3396(7) 0.0389(8) -0.0285(30)
O2O O 0.3634(8) 0.1050(8) -0.2744(27)
O3O O 0.3125(9) 0.0595(8) 0.3307(26)
C1O C 0.3507(8) 0.0886(8) -0.0962(22)
C2O C 0.3408(8) 0.1269(8) 0.0500(21)
C3O C 0.3255(8) 0.1131(8) 0.2394(22)
C4O C 0.3174(8) 0.1526(9) 0.3610(25)
H1O H 0.3030(13) 0.1393(13) 0.486(4)
Zn1J Zn 0.3524(9) -0.0312(13) -0.1355(21)
Zn1D Zn 0.3143(9) 0.3645(13) 0.4688(21)
Zn1H Zn 0.3021(13) 0.2831(9) -0.1978(21)
Zn1H_2 Zn 0.3021(13) 0.2831(9) 0.8022(21)
Zn1O Zn 0.2831(9) -0.0191(9) 0.1978(21)
Zn1N Zn 0.3645(13) 0.0503(9) -0.4688(21)
Zn1N_2 Zn 0.3645(13) 0.0503(9) 0.5312(21)
O1H O 0.3006(11) 0.3396(7) 0.0285(30)
O1J O 0.2944(8) -0.0327(11) -0.3618(30)
O2D O 0.4384(8) 0.4083(11) -0.0590(27)
O2N O 0.4083(11) -0.0300(8) 0.0590(27)
O3D O 0.3929(8) 0.4137(12) 0.3359(26)
O3J O 0.2738(8) -0.0804(12) -0.0026(26)
O3N O 0.4137(12) 0.0209(9) -0.3359(26)
O4 O 0.556(4) 0.416(4) 0.210(11)
C5 C 0.5100(26) 0.3743(24) 0.251(8)
O5 O 0.4647(21) 0.3360(22) 0.284(5)
O6 O 0.175(7) 0.004(8) 0.746(27)
C6 C 0.174(5) 0.018(5) 0.580(20)
O7 O 0.172(6) 0.032(6) 0.424(26)
loop_
_geom_bond_atom_site_label_1
_geom_bond_atom_site_label_2
_geom_bond_site_symmetry_1
_geom_bond_site_symmetry_2
Zn1 O1 1_555 1_555
O1 C1 1_555 1_555
O2 C1 1_555 1_555
O3 Zn1 1_555 1_555
C1 C2 1_555 1_555
C2 C3 1_555 1_555
C3 O3 1_555 1_555
C4 C3 1_555 1_555
H1 C4 1_555 1_555
O4 C5 1_555 1_555
C5 O5 1_555 1_555
O6 C6 1_555 1_555
C6 O7 1_555 1_555
O1O C1O 1_555 1_555
O2O C1O 1_555 1_555
O3O C3O 1_555 1_555
C1O C2O 1_555 1_555
C2O C4 1_555 1_555
C3O C2O 1_555 1_555
C4O C2 1_555 1_555
H1O C4O 1_555 1_555
Zn1J O1O 1_555 1_555
Zn1D O1 1_555 1_555
Zn1H O3 1_555 1_555
Zn1H_2 O2 1_555 1_555
Zn1O O1O 1_555 1_555
Zn1N O2O 1_555 1_555
Zn1N_2 O3O 1_555 1_555
O1H Zn1 1_555 1_555
O1J Zn1J 1_555 1_555
O2D Zn1 1_555 1_555
O2N Zn1J 1_555 1_555
O3D Zn1 1_555 1_555
O3J Zn1J 1_555 1_555
O3N Zn1J 1_555 1_555
O3O Zn1O 1_555 1_555
C3O C4O 1_555 1_555
Zn1D O3D 1_555 1_555
Zn1H O1H 1_555 1_555
Zn1O O3J 1_555 1_555
Zn1N O1J 1_555 1_555
Zn1N O3N 1_555 1_555

#END
