
#######################################################################
#
#                 Cambridge Crystallographic Data Centre
#                                CCDC 
#
#######################################################################
#
# If this CIF has been generated from an entry in the Cambridge 
# Structural Database, then it will include bibliographic, chemical, 
# crystal, experimental, refinement or atomic coordinate data resulting 
# from the CCDC's data processing and validation procedures.
#
#######################################################################

data_AFOTOF
_chemical_formula_moiety         '(C44 H28 Eu2 O16)n'
_symmetry_cell_setting           monoclinic
_symmetry_space_group_name_H-M   'C 2'
_symmetry_Int_Tables_number      5
_space_group_name_Hall           'C 2y'
loop_
_symmetry_equiv_pos_site_id
_symmetry_equiv_pos_as_xyz
1 x,y,z
2 -x,y,-z
3 1/2+x,1/2+y,z
4 1/2-x,1/2+y,-z
_cell_length_a                   28.945(7)
_cell_length_b                   8.655(2)
_cell_length_c                   14.105(4)
_cell_angle_alpha                90
_cell_angle_beta                 116.326(4)
_cell_angle_gamma                90
_cell_volume                     3167.09
loop_
_atom_site_label
_atom_site_type_symbol
_atom_site_fract_x
_atom_site_fract_y
_atom_site_fract_z
Eu1 Eu 0.227230(16) 0.7323(2) -0.00551(3)
C1 C 0.2127(5) 0.4125(17) 0.1276(10)
C2 C 0.2053(5) 0.4069(16) 0.2280(9)
C3 C 0.1802(6) 0.5314(17) 0.2461(10)
H1 H 0.1677 0.6129 0.1984
C4 C 0.1745(6) 0.5282(18) 0.3418(11)
H2 H 0.1552 0.6049 0.3536
C5 C 0.1967(6) 0.4163(18) 0.4160(10)
C6 C 0.2204(7) 0.292(2) 0.3926(12)
H3 H 0.2341 0.2113 0.4408
C7 C 0.2234(7) 0.288(2) 0.2972(12)
H4 H 0.2380 0.2024 0.2805
C8 C 0.1945(7) 0.4230(18) 0.5216(10)
C9 C 0.1540(5) 0.5082(19) 0.5288(10)
H5 H 0.1268 0.5482 0.4689
C10 C 0.1568(6) 0.529(2) 0.6298(10)
H6 H 0.1320 0.5894 0.6374
C11 C 0.1953(5) 0.4639(16) 0.7172(10)
C12 C 0.2327(6) 0.3744(17) 0.7077(10)
H7 H 0.2574 0.3239 0.7666
C13 C 0.2332(7) 0.3601(19) 0.6103(11)
H8 H 0.2600 0.3075 0.6051
C14 C 0.2008(5) 0.5096(16) 0.8269(9)
C15 C 0.3336(5) 0.5554(16) 0.1664(10)
C16 C 0.3823(5) 0.5578(17) 0.2642(10)
C17 C 0.4039(7) 0.6915(18) 0.3126(13)
H9 H 0.3860 0.7824 0.2840
C18 C 0.4519(7) 0.704(3) 0.4038(14)
H10 H 0.4666 0.7989 0.4320
C19 C 0.4768(5) 0.556(2) 0.4509(12)
C20 C 0.4556(7) 0.4248(19) 0.3978(15)
H11 H 0.4736 0.3323 0.4194
C21 C 0.4071(7) 0.4259(19) 0.3113(13)
H12 H 0.3910 0.3319 0.2846
C22 C 0.1481(7) 0.9552(18) 0.0493(15)
H13 H 0.1744 1.0282 0.0691
O1 O 0.2085(4) 0.5372(12) 0.0822(8)
O2 O 0.2231(4) 0.2835(11) 0.0981(7)
O3 O 0.2404(3) 0.4699(10) 0.9060(6)
O4 O 0.1680(4) 0.6027(12) 0.8309(7)
O5 O 0.3110(3) 0.6786(11) 0.1284(7)
O6 O 0.3192(4) 0.4254(15) 0.1232(8)
O7 O 0.1598(5) 0.8189(14) 0.0390(9)
O8 O 0.1030(6) 1.006(2) 0.0351(14)
H14 H 0.0833 1.0058 -0.0283
Eu1C Eu 0.272770(16) 1.2323(2) 0.00551(3)
Eu1C_2 Eu 0.272770(16) 0.2323(2) 0.00551(3)
Eu1_2 Eu 0.227230(16) 0.7323(2) 0.99449(3)
Eu1C_3 Eu 0.272770(16) 0.2323(2) 1.00551(3)
Eu1A Eu 0.772770(16) 0.7323(2) 1.00551(3)
Eu1B Eu 0.727230(16) 0.2323(2) 0.99449(3)
Eu1_3 Eu 0.227230(16) 0.7323(2) -1.00551(3)
Eu1C_4 Eu 0.272770(16) 1.2323(2) -0.99449(3)
C1C C 0.2873(5) 0.9125(17) -0.1276(10)
C2C C 0.2947(5) 0.9069(16) -0.2280(9)
C3C C 0.3198(6) 1.0314(17) -0.2461(10)
H1C H 0.3323 1.1129 -0.1984
C4C C 0.3255(6) 1.0282(18) -0.3418(11)
H2C H 0.3448 1.1049 -0.3536
C5C C 0.3033(6) 0.9163(18) -0.4160(10)
C6C C 0.2796(7) 0.792(2) -0.3926(12)
H3C H 0.2659 0.7113 -0.4408
C7C C 0.2766(7) 0.788(2) -0.2972(12)
H4C H 0.2620 0.7024 -0.2805
C8C C 0.3055(7) 0.9230(18) -0.5216(10)
C9C C 0.3460(5) 1.0082(19) -0.5288(10)
H5C H 0.3732 1.0482 -0.4689
C10C C 0.3432(6) 1.029(2) -0.6298(10)
H6C H 0.3680 1.0894 -0.6374
C11C C 0.3047(5) 0.9639(16) -0.7172(10)
C12C C 0.2673(6) 0.8744(17) -0.7077(10)
H7C H 0.2426 0.8239 -0.7666
C13C C 0.2668(7) 0.8601(19) -0.6103(11)
H8C H 0.2400 0.8075 -0.6051
C14C C 0.2992(5) 1.0096(16) -0.8269(9)
C15A C 0.6664(5) 0.5554(16) 0.8336(10)
C16A C 0.6177(5) 0.5578(17) 0.7358(10)
C17A C 0.5961(7) 0.6915(18) 0.6874(13)
H9A H 0.6140 0.7824 0.7160
C18A C 0.5481(7) 0.704(3) 0.5962(14)
H10A H 0.5334 0.7989 0.5680
C19A C 0.5232(5) 0.556(2) 0.5491(12)
C20A C 0.5444(7) 0.4248(19) 0.6022(15)
H11A H 0.5264 0.3323 0.5806
C21A C 0.5929(7) 0.4259(19) 0.6887(13)
H12A H 0.6090 0.3319 0.7154
C22C C 0.3519(7) 1.4552(18) -0.0493(15)
H13C H 0.3256 1.5282 -0.0691
O1C O 0.2915(4) 1.0372(12) -0.0822(8)
O2C O 0.2769(4) 0.7835(11) -0.0981(7)
O2_2 O 0.2231(4) 1.2835(11) 0.0981(7)
O3C O 0.2596(3) 0.9699(10) -0.9060(6)
O3_2 O 0.2404(3) 0.4699(10) -0.0940(6)
O3C_2 O 0.2596(3) 0.9699(10) 0.0940(6)
O3_3 O 0.2404(3) 1.4699(10) -0.0940(6)
O4C O 0.3320(4) 1.1027(12) -0.8309(7)
O4_2 O 0.1680(4) 0.6027(12) -0.1691(7)
O4C_2 O 0.3320(4) 1.1027(12) 0.1691(7)
O5A O 0.6890(3) 0.6786(11) 0.8716(7)
O5C O 0.1890(3) 1.1786(11) -0.1284(7)
O6A O 0.6808(4) 0.4254(15) 0.8768(8)
O6C O 0.1808(4) 0.9254(15) -0.1232(8)
O6_2 O 0.3192(4) 1.4254(15) 0.1232(8)
O7C O 0.3402(5) 1.3189(14) -0.0390(9)
O8C O 0.3970(6) 1.506(2) -0.0351(14)
H14C H 0.4167 1.5058 0.0283
loop_
_geom_bond_atom_site_label_1
_geom_bond_atom_site_label_2
_geom_bond_site_symmetry_1
_geom_bond_site_symmetry_2
Eu1 O1 1_555 1_555
C1 C2 1_555 1_555
C2 C3 1_555 1_555
C3 H1 1_555 1_555
C4 C3 1_555 1_555
H2 C4 1_555 1_555
C5 C4 1_555 1_555
C6 C5 1_555 1_555
H3 C6 1_555 1_555
C7 C2 1_555 1_555
H4 C7 1_555 1_555
C8 C5 1_555 1_555
C9 C8 1_555 1_555
H5 C9 1_555 1_555
C10 C9 1_555 1_555
H6 C10 1_555 1_555
C11 C10 1_555 1_555
C12 C11 1_555 1_555
H7 C12 1_555 1_555
C13 C8 1_555 1_555
H8 C13 1_555 1_555
C14 C11 1_555 1_555
C15 C16 1_555 1_555
C16 C17 1_555 1_555
C17 H9 1_555 1_555
C18 C17 1_555 1_555
H10 C18 1_555 1_555
C19 C18 1_555 1_555
C20 C19 1_555 1_555
H11 C20 1_555 1_555
C21 C16 1_555 1_555
H12 C21 1_555 1_555
C22 H13 1_555 1_555
O1 C1 1_555 1_555
O2 C1 1_555 1_555
O3 C14 1_555 1_555
O4 C14 1_555 1_555
O5 Eu1 1_555 1_555
O6 C15 1_555 1_555
O7 Eu1 1_555 1_555
O8 C22 1_555 1_555
H14 O8 1_555 1_555
Eu1C O1C 1_555 1_555
Eu1C_2 O2 1_555 1_555
Eu1_2 O3 1_555 1_555
Eu1C_3 O3 1_555 1_555
Eu1A O5A 1_555 1_555
Eu1B O6A 1_555 1_555
Eu1_3 O3C 1_555 1_555
Eu1C_4 O3C 1_555 1_555
C1C C2C 1_555 1_555
C2C C3C 1_555 1_555
C3C H1C 1_555 1_555
C4C C3C 1_555 1_555
H2C C4C 1_555 1_555
C5C C4C 1_555 1_555
C6C C5C 1_555 1_555
H3C C6C 1_555 1_555
C7C C2C 1_555 1_555
H4C C7C 1_555 1_555
C8C C5C 1_555 1_555
C9C C8C 1_555 1_555
H5C C9C 1_555 1_555
C10C C9C 1_555 1_555
H6C C10C 1_555 1_555
C11C C10C 1_555 1_555
C12C C11C 1_555 1_555
H7C C12C 1_555 1_555
C13C C8C 1_555 1_555
H8C C13C 1_555 1_555
C14C C11C 1_555 1_555
C15A C16A 1_555 1_555
C16A C17A 1_555 1_555
C17A H9A 1_555 1_555
C18A C17A 1_555 1_555
H10A C18A 1_555 1_555
C19A C19 1_555 1_555
C20A C19A 1_555 1_555
H11A C20A 1_555 1_555
C21A C16A 1_555 1_555
H12A C21A 1_555 1_555
C22C H13C 1_555 1_555
O1C C1C 1_555 1_555
O2C Eu1 1_555 1_555
O2_2 Eu1C 1_555 1_555
O3C C14C 1_555 1_555
O3_2 Eu1 1_555 1_555
O3C_2 Eu1 1_555 1_555
O3_3 Eu1C 1_555 1_555
O4C Eu1C_4 1_555 1_555
O4_2 Eu1 1_555 1_555
O4C_2 Eu1C 1_555 1_555
O5A C15A 1_555 1_555
O5C Eu1C 1_555 1_555
O6A C15A 1_555 1_555
O6C Eu1 1_555 1_555
O6_2 Eu1C 1_555 1_555
O7C Eu1C 1_555 1_555
O8C C22C 1_555 1_555
H14C O8C 1_555 1_555
C6 C7 1_555 1_555
C12 C13 1_555 1_555
C15 O5 1_555 1_555
C20 C21 1_555 1_555
C22 O7 1_555 1_555
O4 Eu1_2 1_555 1_555
O6 Eu1C_2 1_555 1_555
Eu1C O3C_2 1_555 1_555
Eu1C_2 O3_2 1_555 1_555
C1C O2C 1_555 1_555
C6C C7C 1_555 1_555
C12C C13C 1_555 1_555
C14C O4C 1_555 1_555
C18A C19A 1_555 1_555
C20A C21A 1_555 1_555
C22C O7C 1_555 1_555

#END
