
#######################################################################
#
#                 Cambridge Crystallographic Data Centre
#                                CCDC 
#
#######################################################################
#
# If this CIF has been generated from an entry in the Cambridge 
# Structural Database, then it will include bibliographic, chemical, 
# crystal, experimental, refinement or atomic coordinate data resulting 
# from the CCDC's data processing and validation procedures.
#
#######################################################################

data_AFOVIB
_chemical_formula_moiety         '(C44 H28 Gd2 O16)n'
_symmetry_cell_setting           monoclinic
_symmetry_space_group_name_H-M   'C 2'
_symmetry_Int_Tables_number      5
_space_group_name_Hall           'C 2y'
loop_
_symmetry_equiv_pos_site_id
_symmetry_equiv_pos_as_xyz
1 x,y,z
2 -x,y,-z
3 1/2+x,1/2+y,z
4 1/2-x,1/2+y,-z
_cell_length_a                   28.905(8)
_cell_length_b                   8.622(3)
_cell_length_c                   14.066(4)
_cell_angle_alpha                90
_cell_angle_beta                 116.395(5)
_cell_angle_gamma                90
_cell_volume                     3140.07
loop_
_atom_site_label
_atom_site_type_symbol
_atom_site_fract_x
_atom_site_fract_y
_atom_site_fract_z
Gd1 Gd 0.227321(19) 0.73287(19) -0.00553(3)
C1 C 0.2132(6) 0.4132(18) 0.1286(11)
C2 C 0.2044(6) 0.4078(17) 0.2263(11)
C3 C 0.1801(7) 0.5305(18) 0.2458(11)
H1 H 0.1677 0.6126 0.1982
C4 C 0.1741(7) 0.530(2) 0.3408(12)
H2 H 0.1556 0.6090 0.3531
C5 C 0.1955(7) 0.4123(19) 0.4158(11)
C6 C 0.2195(9) 0.291(2) 0.3928(14)
H3 H 0.2334 0.2116 0.4418
C7 C 0.2236(8) 0.285(2) 0.2971(14)
H4 H 0.2390 0.2001 0.2815
C8 C 0.1933(8) 0.422(2) 0.5199(12)
C9 C 0.1538(7) 0.510(2) 0.5281(12)
H5 H 0.1270 0.5526 0.4683
C10 C 0.1563(7) 0.531(2) 0.6282(11)
H6 H 0.1312 0.5898 0.6355
C11 C 0.1957(6) 0.4643(19) 0.7176(11)
C12 C 0.2327(8) 0.373(2) 0.7081(14)
H7 H 0.2577 0.3228 0.7674
C13 C 0.2325(8) 0.355(2) 0.6096(13)
H8 H 0.2585 0.2987 0.6036
C14 C 0.2005(6) 0.5115(17) 0.8258(10)
C15 C 0.3337(6) 0.5563(16) 0.1665(12)
C16 C 0.3821(7) 0.561(2) 0.2655(13)
C17 C 0.4032(8) 0.692(2) 0.3111(16)
H9 H 0.3866 0.7843 0.2807
C18 C 0.4497(8) 0.698(3) 0.4042(18)
H10 H 0.4634 0.7934 0.4347
C19 C 0.4759(8) 0.559(2) 0.4520(16)
C20 C 0.4555(9) 0.425(2) 0.3994(19)
H11 H 0.4734 0.3323 0.4235
C21 C 0.4081(9) 0.425(2) 0.3101(17)
H12 H 0.3934 0.3307 0.2793
C22 C 0.1467(7) 0.9541(19) 0.0460(18)
H13 H 0.1701 1.0341 0.0574
O1 O 0.2083(5) 0.5348(14) 0.0833(10)
O2 O 0.2244(5) 0.2829(12) 0.0985(9)
O3 O 0.2406(4) 0.4661(11) 0.9076(8)
O4 O 0.1691(4) 0.6015(13) 0.8323(8)
O5 O 0.3108(5) 0.6774(14) 0.1265(9)
O6 O 0.3182(5) 0.4248(15) 0.1250(10)
O7 O 0.1601(5) 0.8203(15) 0.0355(12)
O8 O 0.1022(7) 0.990(3) 0.0423(17)
H14 H 0.0828 1.0214 -0.0172
Gd1C Gd 0.272679(19) 1.23287(19) 0.00553(3)
Gd1C_2 Gd 0.272679(19) 0.23287(19) 0.00553(3)
Gd1_2 Gd 0.227321(19) 0.73287(19) 0.99447(3)
Gd1C_3 Gd 0.272679(19) 0.23287(19) 1.00553(3)
Gd1A Gd 0.772679(19) 0.73287(19) 1.00553(3)
Gd1B Gd 0.727321(19) 0.23287(19) 0.99447(3)
Gd1_3 Gd 0.227321(19) 0.73287(19) -1.00553(3)
Gd1C_4 Gd 0.272679(19) 1.23287(19) -0.99447(3)
C1C C 0.2868(6) 0.9132(18) -0.1286(11)
C2C C 0.2956(6) 0.9078(17) -0.2263(11)
C3C C 0.3199(7) 1.0305(18) -0.2458(11)
H1C H 0.3323 1.1126 -0.1982
C4C C 0.3259(7) 1.030(2) -0.3408(12)
H2C H 0.3444 1.1090 -0.3531
C5C C 0.3045(7) 0.9123(19) -0.4158(11)
C6C C 0.2805(9) 0.791(2) -0.3928(14)
H3C H 0.2666 0.7116 -0.4418
C7C C 0.2764(8) 0.785(2) -0.2971(14)
H4C H 0.2610 0.7001 -0.2815
C8C C 0.3067(8) 0.922(2) -0.5199(12)
C9C C 0.3462(7) 1.010(2) -0.5281(12)
H5C H 0.3730 1.0526 -0.4683
C10C C 0.3437(7) 1.031(2) -0.6282(11)
H6C H 0.3688 1.0898 -0.6355
C11C C 0.3043(6) 0.9643(19) -0.7176(11)
C12C C 0.2673(8) 0.873(2) -0.7081(14)
H7C H 0.2423 0.8228 -0.7674
C13C C 0.2675(8) 0.855(2) -0.6096(13)
H8C H 0.2415 0.7987 -0.6036
C14C C 0.2995(6) 1.0115(17) -0.8258(10)
C15A C 0.6663(6) 0.5563(16) 0.8335(12)
C16A C 0.6179(7) 0.561(2) 0.7345(13)
C17A C 0.5968(8) 0.692(2) 0.6889(16)
H9A H 0.6134 0.7843 0.7193
C18A C 0.5503(8) 0.698(3) 0.5958(18)
H10A H 0.5366 0.7934 0.5653
C19A C 0.5241(8) 0.559(2) 0.5480(16)
C20A C 0.5445(9) 0.425(2) 0.6006(19)
H11A H 0.5266 0.3323 0.5765
C21A C 0.5919(9) 0.425(2) 0.6899(17)
H12A H 0.6066 0.3307 0.7207
C22C C 0.3533(7) 1.4541(19) -0.0460(18)
H13C H 0.3299 1.5341 -0.0574
O1C O 0.2917(5) 1.0348(14) -0.0833(10)
O2C O 0.2756(5) 0.7829(12) -0.0985(9)
O2_2 O 0.2244(5) 1.2829(12) 0.0985(9)
O3C O 0.2594(4) 0.9661(11) -0.9076(8)
O3_2 O 0.2406(4) 0.4661(11) -0.0924(8)
O3C_2 O 0.2594(4) 0.9661(11) 0.0924(8)
O3_3 O 0.2406(4) 1.4661(11) -0.0924(8)
O4C O 0.3309(4) 1.1015(13) -0.8323(8)
O4_2 O 0.1691(4) 0.6015(13) -0.1677(8)
O4C_2 O 0.3309(4) 1.1015(13) 0.1677(8)
O5A O 0.6892(5) 0.6774(14) 0.8735(9)
O5C O 0.1892(5) 1.1774(14) -0.1265(9)
O6A O 0.6818(5) 0.4248(15) 0.8750(10)
O6C O 0.1818(5) 0.9248(15) -0.1250(10)
O6_2 O 0.3182(5) 1.4248(15) 0.1250(10)
O7C O 0.3399(5) 1.3203(15) -0.0355(12)
O8C O 0.3978(7) 1.490(3) -0.0423(17)
H14C H 0.4172 1.5214 0.0172
loop_
_geom_bond_atom_site_label_1
_geom_bond_atom_site_label_2
_geom_bond_site_symmetry_1
_geom_bond_site_symmetry_2
Gd1 O1 1_555 1_555
C1 C2 1_555 1_555
C2 C3 1_555 1_555
C3 H1 1_555 1_555
C4 C3 1_555 1_555
H2 C4 1_555 1_555
C5 C4 1_555 1_555
C6 C5 1_555 1_555
H3 C6 1_555 1_555
C7 C2 1_555 1_555
H4 C7 1_555 1_555
C8 C5 1_555 1_555
C9 C8 1_555 1_555
H5 C9 1_555 1_555
C10 C9 1_555 1_555
H6 C10 1_555 1_555
C11 C10 1_555 1_555
C12 C11 1_555 1_555
H7 C12 1_555 1_555
C13 C8 1_555 1_555
H8 C13 1_555 1_555
C14 C11 1_555 1_555
C15 C16 1_555 1_555
C16 C17 1_555 1_555
C17 H9 1_555 1_555
C18 C17 1_555 1_555
H10 C18 1_555 1_555
C19 C18 1_555 1_555
C20 C19 1_555 1_555
H11 C20 1_555 1_555
C21 C16 1_555 1_555
H12 C21 1_555 1_555
C22 H13 1_555 1_555
O1 C1 1_555 1_555
O2 C1 1_555 1_555
O3 C14 1_555 1_555
O4 C14 1_555 1_555
O5 Gd1 1_555 1_555
O6 C15 1_555 1_555
O7 Gd1 1_555 1_555
O8 C22 1_555 1_555
H14 O8 1_555 1_555
Gd1C O1C 1_555 1_555
Gd1C_2 O2 1_555 1_555
Gd1_2 O3 1_555 1_555
Gd1C_3 O3 1_555 1_555
Gd1A O5A 1_555 1_555
Gd1B O6A 1_555 1_555
Gd1_3 O3C 1_555 1_555
Gd1C_4 O3C 1_555 1_555
C1C C2C 1_555 1_555
C2C C3C 1_555 1_555
C3C H1C 1_555 1_555
C4C C3C 1_555 1_555
H2C C4C 1_555 1_555
C5C C4C 1_555 1_555
C6C C5C 1_555 1_555
H3C C6C 1_555 1_555
C7C C2C 1_555 1_555
H4C C7C 1_555 1_555
C8C C5C 1_555 1_555
C9C C8C 1_555 1_555
H5C C9C 1_555 1_555
C10C C9C 1_555 1_555
H6C C10C 1_555 1_555
C11C C10C 1_555 1_555
C12C C11C 1_555 1_555
H7C C12C 1_555 1_555
C13C C8C 1_555 1_555
H8C C13C 1_555 1_555
C14C C11C 1_555 1_555
C15A C16A 1_555 1_555
C16A C17A 1_555 1_555
C17A H9A 1_555 1_555
C18A C17A 1_555 1_555
H10A C18A 1_555 1_555
C19A C19 1_555 1_555
C20A C19A 1_555 1_555
H11A C20A 1_555 1_555
C21A C16A 1_555 1_555
H12A C21A 1_555 1_555
C22C H13C 1_555 1_555
O1C C1C 1_555 1_555
O2C Gd1 1_555 1_555
O2_2 Gd1C 1_555 1_555
O3C C14C 1_555 1_555
O3_2 Gd1 1_555 1_555
O3C_2 Gd1 1_555 1_555
O3_3 Gd1C 1_555 1_555
O4C Gd1C_4 1_555 1_555
O4_2 Gd1 1_555 1_555
O4C_2 Gd1C 1_555 1_555
O5A C15A 1_555 1_555
O5C Gd1C 1_555 1_555
O6A C15A 1_555 1_555
O6C Gd1 1_555 1_555
O6_2 Gd1C 1_555 1_555
O7C Gd1C 1_555 1_555
O8C C22C 1_555 1_555
H14C O8C 1_555 1_555
C6 C7 1_555 1_555
C12 C13 1_555 1_555
C15 O5 1_555 1_555
C20 C21 1_555 1_555
C22 O7 1_555 1_555
O4 Gd1_2 1_555 1_555
O6 Gd1C_2 1_555 1_555
Gd1C O3C_2 1_555 1_555
Gd1C_2 O3_2 1_555 1_555
C1C O2C 1_555 1_555
C6C C7C 1_555 1_555
C12C C13C 1_555 1_555
C14C O4C 1_555 1_555
C18A C19A 1_555 1_555
C20A C21A 1_555 1_555
C22C O7C 1_555 1_555

#END
