
#######################################################################
#
#                 Cambridge Crystallographic Data Centre
#                                CCDC 
#
#######################################################################
#
# If this CIF has been generated from an entry in the Cambridge 
# Structural Database, then it will include bibliographic, chemical, 
# crystal, experimental, refinement or atomic coordinate data resulting 
# from the CCDC's data processing and validation procedures.
#
#######################################################################

data_GACYAN
_chemical_formula_moiety         '(C40 H26 N4 O8 Zn2)n'
_symmetry_cell_setting           triclinic
_symmetry_space_group_name_H-M   'P -1'
_symmetry_Int_Tables_number      2
_space_group_name_Hall           '-P 1'
loop_
_symmetry_equiv_pos_site_id
_symmetry_equiv_pos_as_xyz
1 x,y,z
2 -x,-y,-z
_cell_length_a                   15.174(2)
_cell_length_b                   15.185(2)
_cell_length_c                   18.174(2)
_cell_angle_alpha                81.094(3)
_cell_angle_beta                 84.734(3)
_cell_angle_gamma                78.952(3)
_cell_volume                     4052.1
loop_
_atom_site_label
_atom_site_type_symbol
_atom_site_fract_x
_atom_site_fract_y
_atom_site_fract_z
Zn1 Zn 0.62471(3) 0.37942(3) 0.70083(2)
Zn2 Zn 0.61105(3) 0.35260(3) 0.86323(2)
O1 O 0.6060(2) 0.22575(17) 0.84378(15)
O2 O 0.6518(2) 0.24118(16) 0.72202(14)
C1 C 0.6278(3) 0.1959(3) 0.7823(2)
C2 C 0.6309(4) 0.0965(3) 0.7812(2)
C3 C 0.6635(5) 0.0556(3) 0.7194(3)
H1 H 0.6879 0.0889 0.6779
C4 C 0.6604(5) -0.0343(3) 0.7182(3)
H2 H 0.6818 -0.0606 0.6756
C5 C 0.6262(5) -0.0850(3) 0.7787(3)
C6 C 0.5967(5) -0.0439(3) 0.8407(3)
H3 H 0.5738 -0.0777 0.8827
C7 C 0.5997(4) 0.0442(3) 0.8428(3)
H4 H 0.5804 0.0693 0.8863
C8 C 0.6229(5) -0.1816(3) 0.7767(3)
C9 C 0.6336(4) -0.2460(3) 0.8434(3)
H5 H 0.6451 -0.2278 0.8876
C10 C 0.6270(4) -0.3350(3) 0.8416(3)
H6 H 0.6326 -0.3756 0.8856
C11 C 0.6122(4) -0.3663(3) 0.7770(2)
C12 C 0.6001(5) -0.3016(3) 0.7117(3)
H7 H 0.5896 -0.3202 0.6674
C13 C 0.6035(5) -0.2131(3) 0.7128(3)
H8 H 0.5926 -0.1722 0.6696
C14 C 0.6085(3) -0.4617(3) 0.7767(2)
O3 O 0.6195(2) -0.51339(17) 0.83687(15)
O4 O 0.5988(2) -0.48689(17) 0.71537(15)
O5 O 0.74881(18) 0.32526(19) 0.84271(16)
O6 O 0.7534(2) 0.3801(2) 0.72081(16)
C15 C 0.7897(3) 0.3509(3) 0.7824(2)
C16 C 0.8864(3) 0.3526(3) 0.7842(2)
C17 C 0.9351(3) 0.3885(4) 0.7191(3)
H9 H 0.9057 0.4096 0.6753
C18 C 1.0229(3) 0.3922(4) 0.7201(3)
H10 H 1.0527 0.4156 0.6765
C19 C 1.0708(3) 0.3623(4) 0.7840(3)
C20 C 1.0227(3) 0.3270(4) 0.8481(3)
H11 H 1.0520 0.3070 0.8920
C21 C 0.9332(3) 0.3214(4) 0.8474(3)
H12 H 0.9038 0.2960 0.8903
C22 C 1.1668(3) 0.3695(4) 0.7853(3)
C23 C 1.2016(3) 0.3854(3) 0.8495(3)
H13 H 1.1643 0.3938 0.8923
C24 C 1.2897(3) 0.3886(3) 0.8488(3)
H14 H 1.3121 0.3979 0.8924
C25 C 1.3487(3) 0.3788(3) 0.7869(2)
C26 C 1.3129(3) 0.3626(3) 0.7222(2)
H15 H 1.3505 0.3551 0.6794
C27 C 1.2258(3) 0.3581(3) 0.7215(3)
H16 H 1.2038 0.3472 0.6783
C28 C 1.4473(3) 0.3784(3) 0.7879(2)
O7 O 1.47626(18) 0.38609(17) 0.84873(15)
O8 O 1.49244(19) 0.37275(18) 0.72579(15)
N1 N 0.6260(2) 0.3917(2) 0.58804(17)
C29 C 0.6193(6) 0.4686(4) 0.5461(3)
H17 H 0.6163 0.5203 0.5686
C30 C 0.6164(7) 0.4787(4) 0.4711(3)
H18 H 0.6115 0.5363 0.4436
C31 C 0.6206(4) 0.4047(3) 0.4353(2)
C32 C 0.6190(7) 0.3307(4) 0.4802(3)
H19 H 0.6131 0.2789 0.4610
C33 C 0.6255(6) 0.3257(4) 0.5544(3)
H20 H 0.6299 0.2688 0.5828
C34 C 0.6145(4) 0.4152(4) 0.3538(3)
H21 H 0.6049 0.4730 0.3268
N2 N 0.6219(4) 0.3477(3) 0.3202(2)
N3 N 0.6195(3) 0.3725(3) 0.2428(2)
C35 C 0.6145(4) 0.3065(3) 0.2109(2)
H22 H 0.6126 0.2502 0.2391
C36 C 0.6115(4) 0.3171(3) 0.1299(3)
C37 C 0.5997(4) 0.4027(3) 0.0885(2)
H23 H 0.5938 0.4544 0.1114
C38 C 0.5969(4) 0.4086(3) 0.0126(2)
H24 H 0.5884 0.4660 -0.0152
N4 N 0.6054(2) 0.3378(2) -0.02345(17)
C39 C 0.6128(4) 0.2540(3) 0.0169(2)
H25 H 0.6144 0.2038 -0.0071
C40 C 0.6180(4) 0.2427(3) 0.0939(2)
H26 H 0.6259 0.1848 0.1210
Zn1_2 Zn 0.62471(3) -0.62058(3) 0.70083(2)
Zn1_3 Zn 1.62471(3) 0.37942(3) 0.70083(2)
Zn2_2 Zn 0.61105(3) -0.64740(3) 0.86323(2)
Zn2_3 Zn 0.61105(3) 0.35260(3) -0.13677(2)
Zn2_4 Zn 1.61105(3) 0.35260(3) 0.86323(2)
O3_2 O 0.6195(2) 0.48661(17) 0.83687(15)
O4_2 O 0.5988(2) 0.51311(17) 0.71537(15)
O7_2 O 0.47626(18) 0.38609(17) 0.84873(15)
O8_2 O 0.49244(19) 0.37275(18) 0.72579(15)
N4_2 N 0.6054(2) 0.3378(2) 0.97655(17)
loop_
_geom_bond_atom_site_label_1
_geom_bond_atom_site_label_2
_geom_bond_site_symmetry_1
_geom_bond_site_symmetry_2
Zn1 O2 1_555 1_555
Zn2 O1 1_555 1_555
O1 C1 1_555 1_555
O2 C1 1_555 1_555
C1 C2 1_555 1_555
C2 C3 1_555 1_555
C3 H1 1_555 1_555
C4 C3 1_555 1_555
H2 C4 1_555 1_555
C5 C4 1_555 1_555
C6 C5 1_555 1_555
H3 C6 1_555 1_555
C7 C2 1_555 1_555
H4 C7 1_555 1_555
C8 C5 1_555 1_555
C9 C8 1_555 1_555
H5 C9 1_555 1_555
C10 C9 1_555 1_555
H6 C10 1_555 1_555
C11 C10 1_555 1_555
C12 C11 1_555 1_555
H7 C12 1_555 1_555
C13 C8 1_555 1_555
H8 C13 1_555 1_555
C14 C11 1_555 1_555
O3 C14 1_555 1_555
O4 C14 1_555 1_555
O5 Zn2 1_555 1_555
O6 Zn1 1_555 1_555
C15 O5 1_555 1_555
C16 C15 1_555 1_555
C17 C16 1_555 1_555
H9 C17 1_555 1_555
C18 C17 1_555 1_555
H10 C18 1_555 1_555
C19 C18 1_555 1_555
C20 C19 1_555 1_555
H11 C20 1_555 1_555
C21 C16 1_555 1_555
H12 C21 1_555 1_555
C22 C19 1_555 1_555
C23 C22 1_555 1_555
H13 C23 1_555 1_555
C24 C23 1_555 1_555
H14 C24 1_555 1_555
C25 C24 1_555 1_555
C26 C25 1_555 1_555
H15 C26 1_555 1_555
C27 C22 1_555 1_555
H16 C27 1_555 1_555
C28 C25 1_555 1_555
O7 C28 1_555 1_555
O8 C28 1_555 1_555
N1 Zn1 1_555 1_555
C29 N1 1_555 1_555
H17 C29 1_555 1_555
C30 C29 1_555 1_555
H18 C30 1_555 1_555
C31 C30 1_555 1_555
C32 C31 1_555 1_555
H19 C32 1_555 1_555
C33 N1 1_555 1_555
H20 C33 1_555 1_555
C34 C31 1_555 1_555
H21 C34 1_555 1_555
N2 C34 1_555 1_555
N3 N2 1_555 1_555
C35 N3 1_555 1_555
H22 C35 1_555 1_555
C36 C35 1_555 1_555
C37 C36 1_555 1_555
H23 C37 1_555 1_555
C38 C37 1_555 1_555
H24 C38 1_555 1_555
N4 C38 1_555 1_555
C39 N4 1_555 1_555
H25 C39 1_555 1_555
C40 C36 1_555 1_555
H26 C40 1_555 1_555
Zn1_2 O4 1_555 1_555
Zn1_3 O8 1_555 1_555
Zn2_2 O3 1_555 1_555
Zn2_3 N4 1_555 1_555
Zn2_4 O7 1_555 1_555
O3_2 Zn2 1_555 1_555
O4_2 Zn1 1_555 1_555
O7_2 Zn2 1_555 1_555
O8_2 Zn1 1_555 1_555
N4_2 Zn2 1_555 1_555
C6 C7 1_555 1_555
C12 C13 1_555 1_555
O6 C15 1_555 1_555
C20 C21 1_555 1_555
C26 C27 1_555 1_555
C32 C33 1_555 1_555
C39 C40 1_555 1_555

#END
