
#######################################################################
#
#                 Cambridge Crystallographic Data Centre
#                                CCDC 
#
#######################################################################
#
# If this CIF has been generated from an entry in the Cambridge 
# Structural Database, then it will include bibliographic, chemical, 
# crystal, experimental, refinement or atomic coordinate data resulting 
# from the CCDC's data processing and validation procedures.
#
#######################################################################

data_MAFLUD
_chemical_formula_moiety         '(C30 H27 N7 O11 Zn3)n'
_symmetry_cell_setting           triclinic
_symmetry_space_group_name_H-M   'P -1'
_symmetry_Int_Tables_number      2
_space_group_name_Hall           '-P 1'
loop_
_symmetry_equiv_pos_site_id
_symmetry_equiv_pos_as_xyz
1 x,y,z
2 -x,-y,-z
_cell_length_a                   9.1768(5)
_cell_length_b                   10.9017(8)
_cell_length_c                   11.3961(9)
_cell_angle_alpha                117.938(8)
_cell_angle_beta                 100.535(5)
_cell_angle_gamma                98.517(5)
_cell_volume                     953.707
loop_
_atom_site_label
_atom_site_type_symbol
_atom_site_fract_x
_atom_site_fract_y
_atom_site_fract_z
Zn1 Zn 0.30986(8) 0.37463(8) 0.37705(7)
Zn2 Zn -0.0000 0.5000 0.5000
O1 O 0.2034(6) 0.3905(5) 0.2252(5)
O2 O 0.2415(6) 0.2137(5) 0.4036(5)
O3 O 0.0398(5) 0.5064(5) 0.3269(5)
O4 O 0.0316(6) 0.2910(5) 0.4224(5)
N1 N 0.3473(5) 0.5555(5) 0.5604(5)
C1 C -0.0667(9) 0.5491(9) 0.1084(8)
H1 H -0.1116 0.5815 0.1805
N2 N 0.2322(6) 0.5967(6) 0.6125(6)
N3 N 0.4824(6) 0.6407(6) 0.6553(5)
C2 C 0.1308(9) -0.0019(8) 0.4564(9)
H2 H 0.2197 -0.0024 0.4282
C3 C 0.1120(8) 0.2095(7) 0.4279(7)
C4 C -0.0770(10) 0.1037(9) 0.5099(9)
H3 H -0.1280 0.1736 0.5178
C5 C 0.1138(9) 0.4294(9) 0.0014(7)
H4 H 0.1897 0.3816 0.0021
C6 C 0.2955(9) 0.7100(9) 0.7414(7)
H5 H 0.2425 0.7607 0.8022
C7 C 0.0535(8) 0.1004(7) 0.4644(7)
C8 C 0.0983(8) 0.4569(7) 0.2306(6)
C9 C 0.0487(8) 0.4784(7) 0.1110(7)
C10 C 0.4513(9) 0.7377(9) 0.7674(8)
H6 H 0.5235 0.8112 0.8490
O1A O -0.2034(6) 0.6095(5) -0.2252(5)
O3A O -0.0398(5) 0.4936(5) -0.3269(5)
C1A C 0.0667(9) 0.4509(9) -0.1084(8)
H1A H 0.1116 0.4185 -0.1805
C5A C -0.1138(9) 0.5706(9) -0.0014(7)
H4A H -0.1897 0.6184 -0.0021
C8A C -0.0983(8) 0.5431(7) -0.2306(6)
C9A C -0.0487(8) 0.5216(7) -0.1110(7)
O2A O -0.2415(6) -0.2137(5) 0.5964(5)
O4A O -0.0316(6) -0.2910(5) 0.5776(5)
C2A C -0.1308(9) 0.0019(8) 0.5436(9)
H2A H -0.2197 0.0024 0.5718
C3A C -0.1120(8) -0.2095(7) 0.5721(7)
C4A C 0.0770(10) -0.1037(9) 0.4901(9)
H3A H 0.1280 -0.1736 0.4822
C7A C -0.0535(8) -0.1004(7) 0.5356(7)
Zn1A Zn -0.30986(8) -0.37463(8) 0.62295(7)
N1A N -0.3473(5) -0.5555(5) 0.4396(5)
N2A N -0.2322(6) -0.5967(6) 0.3875(6)
N3A N -0.4824(6) -0.6407(6) 0.3447(5)
C6A C -0.2955(9) -0.7100(9) 0.2586(7)
H5A H -0.2425 -0.7607 0.1978
C10A C -0.4513(9) -0.7377(9) 0.2326(8)
H6A H -0.5235 -0.8112 0.1510
Zn1_2 Zn -0.69014(8) -0.62537(8) 0.37705(7)
Zn1A_2 Zn -0.30986(8) 0.62537(8) -0.37705(7)
Zn1A_3 Zn 0.69014(8) 0.62537(8) 0.62295(7)
Zn2_2 Zn -0.0000 -0.5000 0.5000
Zn2_3 Zn 0.0000 0.5000 -0.5000
O1A_2 O -0.2034(6) -0.3905(5) 0.7748(5)
O3A_2 O -0.0398(5) 0.4936(5) 0.6731(5)
O4A_2 O -0.0316(6) 0.7090(5) 0.5776(5)
N2A_2 N -0.2322(6) 0.4033(6) 0.3875(6)
N3_2 N -0.5176(6) -0.3593(6) 0.6553(5)
N3A_2 N 0.5176(6) 0.3593(6) 0.3447(5)
O5 O -0.2715(17) -0.0307(18) 0.0392(17)
H7 H -0.2930 -0.0953 0.0562
C11 C 0.023(3) 0.0607(19) -0.0766(17)
H8 H 0.0400 0.1001 -0.1314
C12 C -0.112(3) 0.0486(18) -0.0464(18)
H9 H -0.1899 0.0832 -0.0752
C13 C -0.129(2) -0.0162(17) 0.0274(19)
O5A O 0.2715(17) 0.0307(18) -0.0392(17)
H7A H 0.2930 0.0953 -0.0562
C11A C -0.023(3) -0.0607(19) 0.0766(17)
H8A H -0.0400 -0.1001 0.1314
C12A C 0.112(3) -0.0486(18) 0.0464(18)
H9A H 0.1899 -0.0832 0.0752
C13A C 0.129(2) 0.0162(17) -0.0274(19)
C14 C 0.4338(14) 0.4030(14) 0.7917(13)
H10 H 0.3860 0.4096 0.8508
H11 H 0.5115 0.4756 0.8293
H12 H 0.3741 0.4004 0.7236
N4 N 0.4847(15) 0.2742(14) 0.7469(15)
C15 C 0.5676(18) 0.2361(18) 0.6426(16)
H13 H 0.5896 0.1572 0.6237
H14 H 0.5126 0.2278 0.5692
H15 H 0.6500 0.3031 0.6750
O6 O 0.365(2) 0.229(2) 0.879(2)
C16 C 0.519(4) 0.068(3) 0.745(3)
H16 H 0.4874 0.0180 0.7785
H17 H 0.4855 0.0187 0.6568
H18 H 0.6170 0.0926 0.7693
C17 C 0.446(2) 0.189(2) 0.792(3)
loop_
_geom_bond_atom_site_label_1
_geom_bond_atom_site_label_2
_geom_bond_site_symmetry_1
_geom_bond_site_symmetry_2
Zn1 O1 1_555 1_555
Zn2 O3 1_555 1_555
O1 C8 1_555 1_555
O2 Zn1 1_555 1_555
O3 C8 1_555 1_555
O4 Zn2 1_555 1_555
N1 Zn1 1_555 1_555
C1 H1 1_555 1_555
N2 Zn2 1_555 1_555
N3 N1 1_555 1_555
C2 H2 1_555 1_555
C3 O2 1_555 1_555
C4 H3 1_555 1_555
C5 H4 1_555 1_555
C6 N2 1_555 1_555
H5 C6 1_555 1_555
C7 C2 1_555 1_555
C8 C9 1_555 1_555
C9 C1 1_555 1_555
C10 N3 1_555 1_555
H6 C10 1_555 1_555
O5 H7 1_555 1_555
C11 H8 1_555 1_555
C12 C11 1_555 1_555
H9 C12 1_555 1_555
C13 O5 1_555 1_555
C14 H10 1_555 1_555
H11 C14 1_555 1_555
H12 C14 1_555 1_555
N4 C14 1_555 1_555
C15 N4 1_555 1_555
H13 C15 1_555 1_555
H14 C15 1_555 1_555
H15 C15 1_555 1_555
O6 C17 1_555 1_555
C16 H16 1_555 1_555
H17 C16 1_555 1_555
H18 C16 1_555 1_555
C17 N4 1_555 1_555
O1A C8A 1_555 1_555
O3A C8A 1_555 1_555
C1A C5 1_555 1_555
H1A C1A 1_555 1_555
C5A C1 1_555 1_555
H4A C5A 1_555 1_555
C8A C9A 1_555 1_555
C9A C1A 1_555 1_555
O2A C3A 1_555 1_555
O4A C3A 1_555 1_555
C2A C4 1_555 1_555
H2A C2A 1_555 1_555
C3A C7A 1_555 1_555
C4A C2 1_555 1_555
H3A C4A 1_555 1_555
C7A C2A 1_555 1_555
Zn1A O2A 1_555 1_555
N1A Zn1A 1_555 1_555
N2A N1A 1_555 1_555
N3A N1A 1_555 1_555
C6A N2A 1_555 1_555
H5A C6A 1_555 1_555
C10A N3A 1_555 1_555
H6A C10A 1_555 1_555
Zn1_2 N3A 1_555 1_555
Zn1A_2 O1A 1_555 1_555
Zn1A_3 N3 1_555 1_555
Zn2_2 O4A 1_555 1_555
Zn2_3 O3A 1_555 1_555
O1A_2 Zn1A 1_555 1_555
O3A_2 Zn2 1_555 1_555
O4A_2 Zn2 1_555 1_555
N2A_2 Zn2 1_555 1_555
N3_2 Zn1A 1_555 1_555
N3A_2 Zn1 1_555 1_555
O5A H7A 1_555 1_555
C11A C13 1_555 1_555
H8A C11A 1_555 1_555
C12A C11A 1_555 1_555
H9A C12A 1_555 1_555
C13A C11 1_555 1_555
O4 C3 1_555 1_555
N1 N2 1_555 1_555
C3 C7 1_555 1_555
C4 C7 1_555 1_555
C5 C9 1_555 1_555
C6 C10 1_555 1_555
C12 C13 1_555 1_555
C16 C17 1_555 1_555
C5A C9A 1_555 1_555
C4A C7A 1_555 1_555
N2A Zn2_2 1_555 1_555
C6A C10A 1_555 1_555
O5A C13A 1_555 1_555
C12A C13A 1_555 1_555

#END
