
#######################################################################
#
#                 Cambridge Crystallographic Data Centre
#                                CCDC 
#
#######################################################################
#
# If this CIF has been generated from an entry in the Cambridge 
# Structural Database, then it will include bibliographic, chemical, 
# crystal, experimental, refinement or atomic coordinate data resulting 
# from the CCDC's data processing and validation procedures.
#
#######################################################################

data_MAFLOX
_chemical_formula_moiety         '(C20 H12 N6 O8 Zn3)n'
_symmetry_cell_setting           monoclinic
_symmetry_space_group_name_H-M   'C 2/m'
_symmetry_Int_Tables_number      12
_space_group_name_Hall           '-C 2y'
loop_
_symmetry_equiv_pos_site_id
_symmetry_equiv_pos_as_xyz
1 x,y,z
2 -x,y,-z
3 1/2+x,1/2+y,z
4 1/2-x,1/2+y,-z
5 -x,-y,-z
6 x,-y,z
7 1/2-x,1/2-y,-z
8 1/2+x,1/2-y,z
_cell_length_a                   11.9442(16)
_cell_length_b                   19.1318(10)
_cell_length_c                   9.2109(7)
_cell_angle_alpha                90
_cell_angle_beta                 109.821(12)
_cell_angle_gamma                90
_cell_volume                     1980.12
loop_
_atom_site_label
_atom_site_type_symbol
_atom_site_fract_x
_atom_site_fract_y
_atom_site_fract_z
Zn1 Zn 0.62054(7) 0.5000 0.19214(7)
Zn2 Zn 0.5000 0.5000 0.5000
O1 O 0.6888(3) 0.58702(14) 0.2826(3)
O2 O 0.6127(4) 0.57827(16) 0.4699(3)
N1 N 0.4435(4) 0.5000 0.1528(4)
N2 N 0.3964(4) 0.5000 0.2641(4)
N3 N 0.3544(4) 0.5000 0.0147(4)
C1 C 0.6858(5) 0.7127(2) 0.5720(5)
H1 H 0.6422 0.6879 0.6215
C2 C 0.7754(6) 0.7204(2) 0.3796(5)
H2 H 0.7928 0.7007 0.2976
C3 C 0.7111(4) 0.6827(2) 0.4517(4)
C4 C 0.6671(4) 0.6103(2) 0.3997(4)
C5 C 0.2804(7) 0.5000 0.1972(9)
H3 H 0.2254 0.5000 0.2484
C6 C 0.2538(7) 0.5000 0.0457(9)
H4 H 0.1775 0.5000 -0.0269
O1F O 0.8112(3) 0.91298(14) 0.7174(3)
O2F O 0.8873(4) 0.92173(16) 0.5301(3)
C1F C 0.8142(5) 0.7873(2) 0.4280(5)
H1F H 0.8578 0.8121 0.3785
C2F C 0.7246(6) 0.7796(2) 0.6204(5)
H2F H 0.7072 0.7993 0.7024
C3F C 0.7889(4) 0.8173(2) 0.5483(4)
C4F C 0.8329(4) 0.8897(2) 0.6003(4)
Zn1A Zn 0.37946(7) 0.5000 -0.19214(7)
O1A O 0.3112(3) 0.58702(14) -0.2826(3)
O2A O 0.3873(4) 0.57827(16) -0.4699(3)
N1A N 0.5565(4) 0.5000 -0.1528(4)
N2A N 0.6036(4) 0.5000 -0.2641(4)
N3A N 0.6456(4) 0.5000 -0.0147(4)
C1A C 0.3142(5) 0.7127(2) -0.5720(5)
H1A H 0.3578 0.6879 -0.6215
C2A C 0.2246(6) 0.7204(2) -0.3796(5)
H2A H 0.2072 0.7007 -0.2976
C3A C 0.2889(4) 0.6827(2) -0.4517(4)
C4A C 0.3329(4) 0.6103(2) -0.3997(4)
C5A C 0.7196(7) 0.5000 -0.1972(9)
H3A H 0.7746 0.5000 -0.2484
C6A C 0.7462(7) 0.5000 -0.0457(9)
H4A H 0.8225 0.5000 0.0269
O1G O 0.1888(3) 0.91298(14) -0.7174(3)
O2G O 0.1127(4) 0.92173(16) -0.5301(3)
C1G C 0.1858(5) 0.7873(2) -0.4280(5)
H1G H 0.1422 0.8121 -0.3785
C2G C 0.2754(6) 0.7796(2) -0.6204(5)
H2G H 0.2928 0.7993 -0.7024
C3G C 0.2111(4) 0.8173(2) -0.5483(4)
C4G C 0.1671(4) 0.8897(2) -0.6003(4)
Zn1B Zn 0.12054(7) 1.0000 -0.80786(7)
Zn1C Zn 0.87946(7) 1.0000 0.80786(7)
Zn2_2 Zn 0.5000 0.5000 -0.5000
Zn2B Zn -0.0000 1.0000 -0.5000
Zn2B_2 Zn 1.0000 1.0000 0.5000
O1D O 0.3112(3) 0.41298(14) -0.2826(3)
O1E O 0.6888(3) 0.41298(14) 0.2826(3)
O2A_2 O 0.3873(4) 0.57827(16) 0.5301(3)
O2D O 0.3873(4) 0.42173(16) 0.5301(3)
O2E O 0.6127(4) 0.42173(16) 0.4699(3)
N2A_2 N 0.6036(4) 0.5000 0.7359(4)
loop_
_geom_bond_atom_site_label_1
_geom_bond_atom_site_label_2
_geom_bond_site_symmetry_1
_geom_bond_site_symmetry_2
Zn1 O1 1_555 1_555
Zn2 O2 1_555 1_555
O1 C4 1_555 1_555
O2 C4 1_555 1_555
N1 Zn1 1_555 1_555
N2 Zn2 1_555 1_555
N3 N1 1_555 1_555
C1 H1 1_555 1_555
C2 H2 1_555 1_555
C3 C1 1_555 1_555
C4 C3 1_555 1_555
C5 N2 1_555 1_555
H3 C5 1_555 1_555
C6 N3 1_555 1_555
H4 C6 1_555 1_555
O1F C4F 1_555 1_555
O2F C4F 1_555 1_555
C1F C2 1_555 1_555
H1F C1F 1_555 1_555
C2F C1 1_555 1_555
H2F C2F 1_555 1_555
C3F C1F 1_555 1_555
C4F C3F 1_555 1_555
Zn1A N3 1_555 1_555
O1A Zn1A 1_555 1_555
O2A C4A 1_555 1_555
N1A Zn1A 1_555 1_555
N2A N1A 1_555 1_555
N3A Zn1 1_555 1_555
C1A H1A 1_555 1_555
C2A H2A 1_555 1_555
C3A C1A 1_555 1_555
C4A O1A 1_555 1_555
C5A N2A 1_555 1_555
H3A C5A 1_555 1_555
C6A N3A 1_555 1_555
H4A C6A 1_555 1_555
O1G C4G 1_555 1_555
O2G C4G 1_555 1_555
C1G C2A 1_555 1_555
H1G C1G 1_555 1_555
C2G C1A 1_555 1_555
H2G C2G 1_555 1_555
C3G C1G 1_555 1_555
C4G C3G 1_555 1_555
Zn1B O1G 1_555 1_555
Zn1C O1F 1_555 1_555
Zn2_2 O2A 1_555 1_555
Zn2B O2G 1_555 1_555
Zn2B_2 O2F 1_555 1_555
O1D Zn1A 1_555 1_555
O1E Zn1 1_555 1_555
O2A_2 Zn2 1_555 1_555
O2D Zn2 1_555 1_555
O2E Zn2 1_555 1_555
N2A_2 Zn2 1_555 1_555
N1 N2 1_555 1_555
C2 C3 1_555 1_555
C5 C6 1_555 1_555
C2F C3F 1_555 1_555
N1A N3A 1_555 1_555
N2A Zn2_2 1_555 1_555
C2A C3A 1_555 1_555
C3A C4A 1_555 1_555
C5A C6A 1_555 1_555
C2G C3G 1_555 1_555

#END
