
#######################################################################
#
#                 Cambridge Crystallographic Data Centre
#                                CCDC 
#
#######################################################################
#
# If this CIF has been generated from an entry in the Cambridge 
# Structural Database, then it will include bibliographic, chemical, 
# crystal, experimental, refinement or atomic coordinate data resulting 
# from the CCDC's data processing and validation procedures.
#
#######################################################################

data_MAFMAK
_chemical_formula_moiety         '(C20 H12 N6 O8 Zn3)n'
_symmetry_cell_setting           triclinic
_symmetry_space_group_name_H-M   'P -1'
_symmetry_Int_Tables_number      2
_space_group_name_Hall           '-P 1'
loop_
_symmetry_equiv_pos_site_id
_symmetry_equiv_pos_as_xyz
1 x,y,z
2 -x,-y,-z
_cell_length_a                   9.2142(6)
_cell_length_b                   11.1531(19)
_cell_length_c                   11.3582(19)
_cell_angle_alpha                112.294(16)
_cell_angle_beta                 99.494(9)
_cell_angle_gamma                99.046(9)
_cell_volume                     1033.84
loop_
_atom_site_label
_atom_site_type_symbol
_atom_site_fract_x
_atom_site_fract_y
_atom_site_fract_z
Zn1 Zn 0.18384(8) 0.61180(10) 0.11164(8)
Zn2 Zn 0.5000 0.5000 0.0000
O1 O 0.2805(6) 0.5946(7) 0.2657(5)
O2 O 0.2680(6) 0.7736(6) 0.0949(6)
N1 N 0.8443(5) 0.5505(6) 0.0537(5)
C1 C 0.5639(9) 0.4561(12) 0.3949(8)
H1 H 0.6073 0.4264 0.3239
O3 O 0.4607(7) 0.6908(7) 0.0429(7)
O4 O 0.4588(6) 0.5033(8) 0.1752(5)
C2 C 0.5669(10) 0.8937(10) -0.0314(11)
H2 H 0.6115 0.8215 -0.0535
N2 N 0.7302(6) 0.5959(7) 0.1010(6)
C3 C 0.3799(10) 0.9986(10) 0.0571(11)
H3 H 0.2978 0.9975 0.0950
C4 C 0.3853(10) 0.5660(13) 0.4948(9)
H4 H 0.3083 0.6104 0.4919
N3 N 0.9760(5) 0.6328(7) 0.1386(5)
C5 C 0.4493(7) 0.5220(9) 0.3898(7)
C6 C 0.4465(7) 0.8932(8) 0.0274(8)
C7 C 0.3898(8) 0.7754(8) 0.0577(8)
C8 C 0.3936(7) 0.5431(8) 0.2672(6)
C9 C 0.9384(10) 0.7221(11) 0.2353(9)
H5 H 1.0063 0.7892 0.3098
C10 C 0.7888(10) 0.7020(11) 0.2106(9)
H6 H 0.7348 0.7546 0.2625
O1A O 0.7195(6) 0.4054(7) 0.7343(5)
C1A C 0.4361(9) 0.5439(12) 0.6051(8)
H1A H 0.3927 0.5736 0.6761
O4A O 0.5412(6) 0.4967(8) 0.8248(5)
C4A C 0.6147(10) 0.4340(13) 0.5052(9)
H4A H 0.6917 0.3896 0.5081
C5A C 0.5507(7) 0.4780(9) 0.6102(7)
C8A C 0.6064(7) 0.4569(8) 0.7328(6)
O2A O 0.7320(6) 1.2264(6) -0.0949(6)
O3A O 0.5393(7) 1.3092(7) -0.0429(7)
C2A C 0.4331(10) 1.1063(10) 0.0314(11)
H2A H 0.3885 1.1785 0.0535
C3A C 0.6201(10) 1.0014(10) -0.0571(11)
H3A H 0.7022 1.0025 -0.0950
C6A C 0.5535(7) 1.1068(8) -0.0274(8)
C7A C 0.6102(8) 1.2246(8) -0.0577(8)
Zn1A Zn 0.81616(8) 0.38820(10) -0.11164(8)
N1A N 0.1557(5) 0.4495(6) -0.0537(5)
N2A N 0.2698(6) 0.4041(7) -0.1010(6)
N3A N 0.0240(5) 0.3672(7) -0.1386(5)
C9A C 0.0616(10) 0.2779(11) -0.2353(9)
H5A H -0.0063 0.2108 -0.3098
C10A C 0.2112(10) 0.2980(11) -0.2106(9)
H6A H 0.2652 0.2454 -0.2625
Zn1_2 Zn 1.18384(8) 0.61180(10) 0.11164(8)
Zn1A_2 Zn -0.18384(8) 0.38820(10) -0.11164(8)
Zn1A_3 Zn 0.81616(8) 0.38820(10) 0.88836(8)
Zn1A_4 Zn 0.81616(8) 1.38820(10) -0.11164(8)
Zn2_2 Zn 0.5000 0.5000 1.0000
Zn2_3 Zn 0.5000 1.5000 0.0000
O1A_2 O 0.7195(6) 0.4054(7) -0.2657(5)
O2A_2 O 0.7320(6) 0.2264(6) -0.0949(6)
O3A_2 O 0.5393(7) 0.3092(7) -0.0429(7)
O4A_2 O 0.5412(6) 0.4967(8) -0.1752(5)
N3_2 N -0.0240(5) 0.6328(7) 0.1386(5)
N3A_2 N 1.0240(5) 0.3672(7) -0.1386(5)
loop_
_geom_bond_atom_site_label_1
_geom_bond_atom_site_label_2
_geom_bond_site_symmetry_1
_geom_bond_site_symmetry_2
Zn1 O1 1_555 1_555
Zn2 O3 1_555 1_555
O1 C8 1_555 1_555
O2 Zn1 1_555 1_555
N1 N2 1_555 1_555
C1 H1 1_555 1_555
O3 C7 1_555 1_555
O4 Zn2 1_555 1_555
C2 H2 1_555 1_555
N2 Zn2 1_555 1_555
C3 H3 1_555 1_555
C4 H4 1_555 1_555
N3 N1 1_555 1_555
C5 C1 1_555 1_555
C6 C2 1_555 1_555
C7 O2 1_555 1_555
C8 O4 1_555 1_555
C9 N3 1_555 1_555
H5 C9 1_555 1_555
C10 N2 1_555 1_555
H6 C10 1_555 1_555
O1A C8A 1_555 1_555
C1A C4 1_555 1_555
H1A C1A 1_555 1_555
O4A C8A 1_555 1_555
C4A C1 1_555 1_555
H4A C4A 1_555 1_555
C5A C1A 1_555 1_555
C8A C5A 1_555 1_555
O2A C7A 1_555 1_555
O3A C7A 1_555 1_555
C2A C3 1_555 1_555
H2A C2A 1_555 1_555
C3A C2 1_555 1_555
H3A C3A 1_555 1_555
C6A C2A 1_555 1_555
C7A C6A 1_555 1_555
Zn1A N1 1_555 1_555
N1A Zn1 1_555 1_555
N2A Zn2 1_555 1_555
N3A N1A 1_555 1_555
C9A N3A 1_555 1_555
H5A C9A 1_555 1_555
C10A N2A 1_555 1_555
H6A C10A 1_555 1_555
Zn1_2 N3 1_555 1_555
Zn1A_2 N3A 1_555 1_555
Zn1A_3 O1A 1_555 1_555
Zn1A_4 O2A 1_555 1_555
Zn2_2 O4A 1_555 1_555
Zn2_3 O3A 1_555 1_555
O1A_2 Zn1A 1_555 1_555
O2A_2 Zn1A 1_555 1_555
O3A_2 Zn2 1_555 1_555
O4A_2 Zn2 1_555 1_555
N3_2 Zn1 1_555 1_555
N3A_2 Zn1A 1_555 1_555
C3 C6 1_555 1_555
C4 C5 1_555 1_555
C5 C8 1_555 1_555
C6 C7 1_555 1_555
C9 C10 1_555 1_555
C4A C5A 1_555 1_555
C3A C6A 1_555 1_555
N1A N2A 1_555 1_555
C9A C10A 1_555 1_555

#END
