
#######################################################################
#
#                 Cambridge Crystallographic Data Centre
#                                CCDC 
#
#######################################################################
#
# If this CIF has been generated from an entry in the Cambridge 
# Structural Database, then it will include bibliographic, chemical, 
# crystal, experimental, refinement or atomic coordinate data resulting 
# from the CCDC's data processing and validation procedures.
#
#######################################################################

data_MAFMAK01
_chemical_formula_moiety         '(C26 H24 N6 O9 Zn3)n'
_symmetry_cell_setting           triclinic
_symmetry_space_group_name_H-M   'P -1'
_symmetry_Int_Tables_number      2
_space_group_name_Hall           '-P 1'
loop_
_symmetry_equiv_pos_site_id
_symmetry_equiv_pos_as_xyz
1 x,y,z
2 -x,-y,-z
_cell_length_a                   9.1743(4)
_cell_length_b                   10.8488(5)
_cell_length_c                   11.3458(5)
_cell_angle_alpha                113.479(4)
_cell_angle_beta                 98.726(4)
_cell_angle_gamma                98.016(4)
_cell_volume                     998.57
loop_
_atom_site_label
_atom_site_type_symbol
_atom_site_fract_x
_atom_site_fract_y
_atom_site_fract_z
Zn1 Zn 0.5000 0.5000 0.5000
Zn2 Zn 0.81965(7) 0.38671(6) 0.38601(5)
O1 O 0.7501(4) 0.2181(4) 0.4057(4)
O2 O 0.7154(4) 0.4061(4) 0.2362(3)
O3 O 0.5504(4) 0.5227(4) 0.3338(3)
O4 O 0.5448(4) 0.3028(4) 0.4298(4)
N1 N 0.9714(5) 0.6289(4) 0.6451(4)
C1 C 0.4445(7) 0.5635(6) 0.1110(5)
H1 H 0.4074 0.6060 0.1856
C2 C 0.6211(6) 0.2167(5) 0.4326(5)
N2 N 0.7257(5) 0.5907(4) 0.6070(4)
C3 C 0.6078(6) 0.4708(5) 0.2386(5)
C4 C 0.6072(7) 0.4223(7) 0.0017(5)
H2 H 0.6792 0.3701 0.0031
N3 N 0.8425(4) 0.5513(4) 0.5587(3)
C5 C 0.5577(6) 0.1047(5) 0.4673(5)
C6 C 0.5530(6) 0.4855(5) 0.1144(5)
C7 C 0.6321(7) -0.0037(6) 0.4541(7)
H3 H 0.7206 -0.0060 0.4235
C8 C 0.9333(7) 0.7197(7) 0.7504(6)
H4 H 1.0002 0.7873 0.8261
C9 C 0.4278(7) 0.1071(6) 0.5128(6)
H5 H 0.3791 0.1789 0.5217
C10 C 0.7823(7) 0.6960(7) 0.7272(6)
H6 H 0.7261 0.7439 0.7844
O1A O 0.2499(4) -0.2181(4) 0.5943(4)
O4A O 0.4552(4) -0.3028(4) 0.5702(4)
C2A C 0.3789(6) -0.2167(5) 0.5674(5)
C5A C 0.4423(6) -0.1047(5) 0.5327(5)
C7A C 0.3679(7) 0.0037(6) 0.5459(7)
H3A H 0.2794 0.0060 0.5765
C9A C 0.5722(7) -0.1071(6) 0.4872(6)
H5A H 0.6209 -0.1789 0.4783
O2A O 0.2846(4) 0.5939(4) -0.2362(3)
O3A O 0.4496(4) 0.4773(4) -0.3338(3)
C1A C 0.5555(7) 0.4365(6) -0.1110(5)
H1A H 0.5926 0.3940 -0.1856
C3A C 0.3922(6) 0.5292(5) -0.2386(5)
C4A C 0.3928(7) 0.5777(7) -0.0017(5)
H2A H 0.3208 0.6299 -0.0031
C6A C 0.4470(6) 0.5145(5) -0.1144(5)
Zn2A Zn 0.18035(7) -0.38671(6) 0.61399(5)
N1A N 0.0286(5) -0.6289(4) 0.3549(4)
N2A N 0.2743(5) -0.5907(4) 0.3930(4)
N3A N 0.1575(4) -0.5513(4) 0.4413(3)
C8A C 0.0667(7) -0.7197(7) 0.2496(6)
H4A H -0.0002 -0.7873 0.1739
C10A C 0.2177(7) -0.6960(7) 0.2728(6)
H6A H 0.2739 -0.7439 0.2156
Zn1_2 Zn 0.5000 -0.5000 0.5000
Zn1_3 Zn 0.5000 0.5000 -0.5000
Zn2_2 Zn -0.18035(7) -0.61329(6) 0.38601(5)
Zn2A_2 Zn 0.18035(7) 0.61329(6) -0.38601(5)
Zn2A_3 Zn 1.18035(7) 0.61329(6) 0.61399(5)
O2A_2 O 0.2846(4) -0.4061(4) 0.7638(3)
O3A_2 O 0.4496(4) 0.4773(4) 0.6662(3)
O4A_2 O 0.4552(4) 0.6972(4) 0.5702(4)
N1_2 N -0.0286(5) -0.3711(4) 0.6451(4)
N1A_2 N 1.0286(5) 0.3711(4) 0.3549(4)
N2A_2 N 0.2743(5) 0.4093(4) 0.3930(4)
O5 O 0.010(2) 0.0874(14) -0.0636(13)
H7 H -0.0538 0.0113 -0.0940
C11 C 0.0649(14) 0.1954(13) -0.3450(12)
H8 H 0.1725 0.2331 -0.3260
H9 H 0.0294 0.1401 -0.4394
C12 C 0.034(2) 0.1073(15) -0.2708(12)
H10 H -0.0533 0.0340 -0.3266
H11 H 0.1189 0.0638 -0.2676
C13 C -0.075(2) 0.2677(14) -0.1173(16)
H12 H -0.0635 0.3145 -0.0225
H13 H -0.1815 0.2255 -0.1559
C14 C -0.029(2) 0.3804(12) -0.1690(16)
H14 H -0.1057 0.4334 -0.1677
H15 H 0.0665 0.4428 -0.1145
C15 C -0.015(2) 0.3047(16) -0.3011(15)
H16 H 0.0290 0.3730 -0.3281
H17 H -0.1172 0.2662 -0.3541
C16 C 0.0080(16) 0.1586(14) -0.1444(13)
H18 H 0.1084 0.2192 -0.1003
loop_
_geom_bond_atom_site_label_1
_geom_bond_atom_site_label_2
_geom_bond_site_symmetry_1
_geom_bond_site_symmetry_2
Zn1 O3 1_555 1_555
Zn2 O1 1_555 1_555
O1 C2 1_555 1_555
O2 Zn2 1_555 1_555
O3 C3 1_555 1_555
O4 Zn1 1_555 1_555
N1 N3 1_555 1_555
C1 H1 1_555 1_555
C2 O4 1_555 1_555
N2 Zn1 1_555 1_555
C3 O2 1_555 1_555
C4 H2 1_555 1_555
N3 Zn2 1_555 1_555
C5 C2 1_555 1_555
C6 C1 1_555 1_555
C7 C5 1_555 1_555
H3 C7 1_555 1_555
C8 N1 1_555 1_555
H4 C8 1_555 1_555
C9 C5 1_555 1_555
H5 C9 1_555 1_555
C10 N2 1_555 1_555
H6 C10 1_555 1_555
O5 H7 1_555 1_555
C11 H8 1_555 1_555
H9 C11 1_555 1_555
C12 C11 1_555 1_555
H10 C12 1_555 1_555
H11 C12 1_555 1_555
C13 H12 1_555 1_555
H13 C13 1_555 1_555
C14 C13 1_555 1_555
H14 C14 1_555 1_555
H15 C14 1_555 1_555
C15 C11 1_555 1_555
H16 C15 1_555 1_555
H17 C15 1_555 1_555
C16 O5 1_555 1_555
H18 C16 1_555 1_555
O1A C2A 1_555 1_555
O4A C2A 1_555 1_555
C2A C5A 1_555 1_555
C5A C7A 1_555 1_555
C7A C9 1_555 1_555
H3A C7A 1_555 1_555
C9A C7 1_555 1_555
H5A C9A 1_555 1_555
O2A C3A 1_555 1_555
O3A C3A 1_555 1_555
C1A C4 1_555 1_555
H1A C1A 1_555 1_555
C3A C6A 1_555 1_555
C4A C1 1_555 1_555
H2A C4A 1_555 1_555
C6A C1A 1_555 1_555
Zn2A O1A 1_555 1_555
N1A N3A 1_555 1_555
N2A N3A 1_555 1_555
N3A Zn2A 1_555 1_555
C8A N1A 1_555 1_555
H4A C8A 1_555 1_555
C10A N2A 1_555 1_555
H6A C10A 1_555 1_555
Zn1_2 O4A 1_555 1_555
Zn1_3 O3A 1_555 1_555
Zn2_2 N1A 1_555 1_555
Zn2A_2 O2A 1_555 1_555
Zn2A_3 N1 1_555 1_555
O2A_2 Zn2A 1_555 1_555
O3A_2 Zn1 1_555 1_555
O4A_2 Zn1 1_555 1_555
N1_2 Zn2A 1_555 1_555
N1A_2 Zn2 1_555 1_555
N2A_2 Zn1 1_555 1_555
N2 N3 1_555 1_555
C3 C6 1_555 1_555
C4 C6 1_555 1_555
C8 C10 1_555 1_555
C12 C16 1_555 1_555
C13 C16 1_555 1_555
C14 C15 1_555 1_555
C5A C9A 1_555 1_555
C4A C6A 1_555 1_555
N2A Zn1_2 1_555 1_555
C8A C10A 1_555 1_555

#END
