
#######################################################################
#
#                 Cambridge Crystallographic Data Centre
#                                CCDC 
#
#######################################################################
#
# If this CIF has been generated from an entry in the Cambridge 
# Structural Database, then it will include bibliographic, chemical, 
# crystal, experimental, refinement or atomic coordinate data resulting 
# from the CCDC's data processing and validation procedures.
#
#######################################################################

data_IKETUN
_chemical_formula_moiety         '(C34 H16 Cu3 N4 O61 P1 W12)n'
_symmetry_cell_setting           cubic
_symmetry_space_group_name_H-M   'F m -3 m'
_symmetry_Int_Tables_number      225
_space_group_name_Hall           '-F 4 2 3'
loop_
_symmetry_equiv_pos_site_id
_symmetry_equiv_pos_as_xyz
1 x,y,z
2 z,x,y
3 y,z,x
4 x,z,y
5 y,x,z
6 z,y,x
7 -x,y,z
8 -z,x,y
9 -y,z,x
10 -x,z,y
11 -y,x,z
12 -z,y,x
13 x,-y,z
14 z,-x,y
15 y,-z,x
16 x,-z,y
17 y,-x,z
18 z,-y,x
19 x,y,-z
20 z,x,-y
21 y,z,-x
22 x,z,-y
23 y,x,-z
24 z,y,-x
25 x,1/2+y,1/2+z
26 z,1/2+x,1/2+y
27 y,1/2+z,1/2+x
28 x,1/2+z,1/2+y
29 y,1/2+x,1/2+z
30 z,1/2+y,1/2+x
31 -x,1/2+y,1/2+z
32 -z,1/2+x,1/2+y
33 -y,1/2+z,1/2+x
34 -x,1/2+z,1/2+y
35 -y,1/2+x,1/2+z
36 -z,1/2+y,1/2+x
37 x,1/2-y,1/2+z
38 z,1/2-x,1/2+y
39 y,1/2-z,1/2+x
40 x,1/2-z,1/2+y
41 y,1/2-x,1/2+z
42 z,1/2-y,1/2+x
43 x,1/2+y,1/2-z
44 z,1/2+x,1/2-y
45 y,1/2+z,1/2-x
46 x,1/2+z,1/2-y
47 y,1/2+x,1/2-z
48 z,1/2+y,1/2-x
49 1/2+x,y,1/2+z
50 1/2+z,x,1/2+y
51 1/2+y,z,1/2+x
52 1/2+x,z,1/2+y
53 1/2+y,x,1/2+z
54 1/2+z,y,1/2+x
55 1/2-x,y,1/2+z
56 1/2-z,x,1/2+y
57 1/2-y,z,1/2+x
58 1/2-x,z,1/2+y
59 1/2-y,x,1/2+z
60 1/2-z,y,1/2+x
61 1/2+x,-y,1/2+z
62 1/2+z,-x,1/2+y
63 1/2+y,-z,1/2+x
64 1/2+x,-z,1/2+y
65 1/2+y,-x,1/2+z
66 1/2+z,-y,1/2+x
67 1/2+x,y,1/2-z
68 1/2+z,x,1/2-y
69 1/2+y,z,1/2-x
70 1/2+x,z,1/2-y
71 1/2+y,x,1/2-z
72 1/2+z,y,1/2-x
73 1/2+x,1/2+y,z
74 1/2+z,1/2+x,y
75 1/2+y,1/2+z,x
76 1/2+x,1/2+z,y
77 1/2+y,1/2+x,z
78 1/2+z,1/2+y,x
79 1/2-x,1/2+y,z
80 1/2-z,1/2+x,y
81 1/2-y,1/2+z,x
82 1/2-x,1/2+z,y
83 1/2-y,1/2+x,z
84 1/2-z,1/2+y,x
85 1/2+x,1/2-y,z
86 1/2+z,1/2-x,y
87 1/2+y,1/2-z,x
88 1/2+x,1/2-z,y
89 1/2+y,1/2-x,z
90 1/2+z,1/2-y,x
91 1/2+x,1/2+y,-z
92 1/2+z,1/2+x,-y
93 1/2+y,1/2+z,-x
94 1/2+x,1/2+z,-y
95 1/2+y,1/2+x,-z
96 1/2+z,1/2+y,-x
97 -x,-y,-z
98 -z,-x,-y
99 -y,-z,-x
100 -x,-z,-y
101 -y,-x,-z
102 -z,-y,-x
103 x,-y,-z
104 z,-x,-y
105 y,-z,-x
106 x,-z,-y
107 y,-x,-z
108 z,-y,-x
109 -x,y,-z
110 -z,x,-y
111 -y,z,-x
112 -x,z,-y
113 -y,x,-z
114 -z,y,-x
115 -x,-y,z
116 -z,-x,y
117 -y,-z,x
118 -x,-z,y
119 -y,-x,z
120 -z,-y,x
121 -x,1/2-y,1/2-z
122 -z,1/2-x,1/2-y
123 -y,1/2-z,1/2-x
124 -x,1/2-z,1/2-y
125 -y,1/2-x,1/2-z
126 -z,1/2-y,1/2-x
127 x,1/2-y,1/2-z
128 z,1/2-x,1/2-y
129 y,1/2-z,1/2-x
130 x,1/2-z,1/2-y
131 y,1/2-x,1/2-z
132 z,1/2-y,1/2-x
133 -x,1/2+y,1/2-z
134 -z,1/2+x,1/2-y
135 -y,1/2+z,1/2-x
136 -x,1/2+z,1/2-y
137 -y,1/2+x,1/2-z
138 -z,1/2+y,1/2-x
139 -x,1/2-y,1/2+z
140 -z,1/2-x,1/2+y
141 -y,1/2-z,1/2+x
142 -x,1/2-z,1/2+y
143 -y,1/2-x,1/2+z
144 -z,1/2-y,1/2+x
145 1/2-x,-y,1/2-z
146 1/2-z,-x,1/2-y
147 1/2-y,-z,1/2-x
148 1/2-x,-z,1/2-y
149 1/2-y,-x,1/2-z
150 1/2-z,-y,1/2-x
151 1/2+x,-y,1/2-z
152 1/2+z,-x,1/2-y
153 1/2+y,-z,1/2-x
154 1/2+x,-z,1/2-y
155 1/2+y,-x,1/2-z
156 1/2+z,-y,1/2-x
157 1/2-x,y,1/2-z
158 1/2-z,x,1/2-y
159 1/2-y,z,1/2-x
160 1/2-x,z,1/2-y
161 1/2-y,x,1/2-z
162 1/2-z,y,1/2-x
163 1/2-x,-y,1/2+z
164 1/2-z,-x,1/2+y
165 1/2-y,-z,1/2+x
166 1/2-x,-z,1/2+y
167 1/2-y,-x,1/2+z
168 1/2-z,-y,1/2+x
169 1/2-x,1/2-y,-z
170 1/2-z,1/2-x,-y
171 1/2-y,1/2-z,-x
172 1/2-x,1/2-z,-y
173 1/2-y,1/2-x,-z
174 1/2-z,1/2-y,-x
175 1/2+x,1/2-y,-z
176 1/2+z,1/2-x,-y
177 1/2+y,1/2-z,-x
178 1/2+x,1/2-z,-y
179 1/2+y,1/2-x,-z
180 1/2+z,1/2-y,-x
181 1/2-x,1/2+y,-z
182 1/2-z,1/2+x,-y
183 1/2-y,1/2+z,-x
184 1/2-x,1/2+z,-y
185 1/2-y,1/2+x,-z
186 1/2-z,1/2+y,-x
187 1/2-x,1/2-y,z
188 1/2-z,1/2-x,y
189 1/2-y,1/2-z,x
190 1/2-x,1/2-z,y
191 1/2-y,1/2-x,z
192 1/2-z,1/2-y,x
_cell_length_a                   26.353(1)
_cell_length_b                   26.353(1)
_cell_length_c                   26.353(1)
_cell_angle_alpha                90
_cell_angle_beta                 90
_cell_angle_gamma                90
_cell_volume                     18301.6
loop_
_atom_site_label
_atom_site_type_symbol
_atom_site_fract_x
_atom_site_fract_y
_atom_site_fract_z
_atom_site_U_iso_or_equiv
_atom_site_thermal_displace_type
Cu1 Cu 0.28499(5) 0.0000 0.2150 0.0323 Uani
O1 O 0.2435(2) 0.0513(2) 0.1834(2) 0.0420 Uani
O2 O 0.3446(4) 0.0000 0.1554 0.1132 Uani
C1 C 0.2027(3) 0.0677(4) 0.2027 0.0367 Uani
C2 C 0.1759(3) 0.1119(4) 0.1759 0.0360 Uani
C3 C 0.1988(5) 0.1329(3) 0.1329 0.0378 Uani
O1E O 0.1834(2) 0.0513(2) 0.2435(2) 0.0420 Uani
C2A C 0.1759 0.1759(3) 0.1119(4) 0.0360 Uani
C1A C 0.2027 0.2027(3) 0.0677(4) 0.0367 Uani
O1A O 0.1834(2) 0.2435(2) 0.0513(2) 0.0420 Uani
O1C O 0.2435(2) 0.1834(2) 0.0513(2) 0.0420 Uani
C3A C 0.1329 0.1988(5) 0.1329(3) 0.0378 Uani
C2B C 0.1119(4) 0.1759 0.1759(3) 0.0360 Uani
C1B C 0.0677(4) 0.2027 0.2027(3) 0.0367 Uani
O1B O 0.0513(2) 0.1834(2) 0.2435(2) 0.0420 Uani
O1D O 0.0513(2) 0.2435(2) 0.1834(2) 0.0420 Uani
C3B C 0.1329(3) 0.1329 0.1988(5) 0.0378 Uani
O1L O 0.2435(2) -0.0513(2) 0.1834(2) 0.0420 Uani
C1L C 0.2027(3) -0.0677(4) 0.2027 0.0367 Uani
C2L C 0.1759(3) -0.1119(4) 0.1759 0.0360 Uani
C3L C 0.1988(5) -0.1329(3) 0.1329 0.0378 Uani
O1Q O 0.1834(2) -0.0513(2) 0.2435(2) 0.0420 Uani
C2M C 0.1759 -0.1759(3) 0.1119(4) 0.0360 Uani
C1M C 0.2027 -0.2027(3) 0.0677(4) 0.0367 Uani
O1M O 0.1834(2) -0.2435(2) 0.0513(2) 0.0420 Uani
O1O O 0.2435(2) -0.1834(2) 0.0513(2) 0.0420 Uani
C3M C 0.1329 -0.1988(5) 0.1329(3) 0.0378 Uani
C2N C 0.1119(4) -0.1759 0.1759(3) 0.0360 Uani
C1N C 0.0677(4) -0.2027 0.2027(3) 0.0367 Uani
O1N O 0.0513(2) -0.1834(2) 0.2435(2) 0.0420 Uani
O1P O 0.0513(2) -0.2435(2) 0.1834(2) 0.0420 Uani
C3N C 0.1329(3) -0.1329 0.1988(5) 0.0378 Uani
O1SE O 0.3166(2) -0.0513(2) 0.2565(2) 0.0420 Uani
O1NE O 0.2565(2) -0.0513(2) 0.3166(2) 0.0420 Uani
O1EF O 0.3166(2) 0.0513(2) 0.2565(2) 0.0420 Uani
O1ZE O 0.2565(2) 0.0513(2) 0.3166(2) 0.0420 Uani
Cu1E Cu 0.2150 0.0000 0.28499(5) 0.0323 Uani
Cu1A Cu 0.2150 0.28499(5) 0.0000 0.0323 Uani
Cu1C Cu 0.28499(5) 0.2150 0.0000 0.0323 Uani
Cu1B Cu 0.0000 0.2150 0.28499(5) 0.0323 Uani
Cu1D Cu 0.0000 0.28499(5) 0.2150 0.0323 Uani
Cu1M Cu 0.2150 -0.28499(5) 0.0000 0.0323 Uani
Cu1O Cu 0.28499(5) -0.2150 0.0000 0.0323 Uani
Cu1N Cu -0.0000 -0.2150 0.28499(5) 0.0323 Uani
Cu1P Cu 0.0000 -0.28499(5) 0.2150 0.0323 Uani
O2E O 0.1554 0.0000 0.3446(4) 0.1132 Uani
O2N O -0.0000 -0.1554 0.3446(4) 0.1132 Uani
O1TA O 0.0513(2) -0.2565(2) 0.3166(2) 0.0420 Uani
O1LD O -0.0513(2) -0.1834(2) 0.2435(2) 0.0420 Uani
O1FE O -0.0513(2) -0.2565(2) 0.3166(2) 0.0420 Uani
O6 O 0.2471(9) -0.0000 0.0700(7) 0.2340 Uiso
O7 O 0.263(3) 0.0000 0.0000 0.2100 Uiso
N1 N 0.2950 0.2050 0.2050 0.3250 Uiso
C4 C 0.2628 0.2372 0.2372 0.3245 Uiso
C5 C 0.2843 0.1513 0.2157 0.3245 Uiso
C4A C 0.2372 0.2628 0.2372 0.3245 Uiso
N1A N 0.2050 0.2950 0.2050 0.3250 Uiso
C5A C 0.2157 0.2843 0.1513 0.3245 Uiso
C5D C 0.1513 0.2843 0.2157 0.3245 Uiso
C5DG C 0.2157 0.3487 0.2157 0.3245 Uiso
C4B C 0.2372 0.2372 0.2628 0.3245 Uiso
N1B N 0.2050 0.2050 0.2950 0.3250 Uiso
C5B C 0.1513 0.2157 0.2843 0.3245 Uiso
C5E C 0.2157 0.1513 0.2843 0.3245 Uiso
C5WD C 0.2157 0.2157 0.3487 0.3245 Uiso
C4VD C 0.2628 0.2628 0.2628 0.3245 Uiso
N1VD N 0.2950 0.2950 0.2950 0.3250 Uiso
C5VD C 0.2843 0.3487 0.2843 0.3245 Uiso
C5YD C 0.2843 0.2843 0.3487 0.3245 Uiso
C5FG C 0.3487 0.2843 0.2843 0.3245 Uiso
C5C C 0.2843 0.2157 0.1513 0.3245 Uiso
C5BF C 0.3487 0.2157 0.2157 0.3245 Uiso
W1 W 0.09543(3) -0.0000 0.0954 0.0477 Uani
P1 P 0.0000 0.0000 0.0000 0.0303 Uani
O3 O 0.1404(3) -0.0000 0.1404 0.0653 Uani
O4 O 0.1205(4) 0.0505(3) 0.0505 0.0788 Uani
O5 O 0.0327(6) 0.0327 0.0327 0.0353 Uani
O5F O -0.0327(6) 0.0327 0.0327 0.0353 Uani
O5L O 0.0327(6) -0.0327 0.0327 0.0353 Uani
O5JD O -0.0327(6) -0.0327 0.0327 0.0353 Uani
O5ZC O 0.0327 -0.0327 -0.0327(6) 0.0353 Uani
O5R O 0.0327(6) 0.0327 -0.0327 0.0353 Uani
O5DD O -0.0327(6) 0.0327 -0.0327 0.0353 Uani
O5RC O -0.0327(6) -0.0327 -0.0327 0.0353 Uani
O4B O 0.0505(3) 0.0505 0.1205(4) 0.0788 Uani
O4L O 0.1205(4) -0.0505(3) 0.0505 0.0788 Uani
O4N O 0.0505(3) -0.0505 0.1205(4) 0.0788 Uani
W1B W -0.0000 0.0954 0.09543(3) 0.0477 Uani
W1N W 0.0000 -0.0954 0.09543(3) 0.0477 Uani
W1A W 0.0954 0.09543(3) 0.0000 0.0477 Uani
W1M W 0.0954 -0.09543(3) 0.0000 0.0477 Uani
W1F W -0.09543(3) -0.0000 0.0954 0.0477 Uani
W1ZC W 0.0000 -0.0954 -0.09543(3) 0.0477 Uani
W1R W 0.09543(3) 0.0000 -0.0954 0.0477 Uani
W1DD W -0.09543(3) 0.0000 -0.0954 0.0477 Uani
W1T W -0.0000 0.0954 -0.09543(3) 0.0477 Uani
W1G W -0.0954 0.09543(3) 0.0000 0.0477 Uani
W1KD W -0.0954 -0.09543(3) 0.0000 0.0477 Uani
O3B O -0.0000 0.1404 0.1404(3) 0.0653 Uani
O4A O 0.0505 0.1205(4) 0.0505(3) 0.0788 Uani
O4H O -0.0505(3) 0.0505 0.1205(4) 0.0788 Uani
O4G O -0.0505 0.1205(4) 0.0505(3) 0.0788 Uani
O3N O -0.0000 -0.1404 0.1404(3) 0.0653 Uani
O4M O 0.0505 -0.1205(4) 0.0505(3) 0.0788 Uani
O4LD O -0.0505(3) -0.0505 0.1205(4) 0.0788 Uani
O4KD O -0.0505 -0.1205(4) 0.0505(3) 0.0788 Uani
O3A O 0.1404 0.1404(3) 0.0000 0.0653 Uani
O4S O 0.0505 0.1205(4) -0.0505(3) 0.0788 Uani
O4R O 0.1205(4) 0.0505(3) -0.0505 0.0788 Uani
O3M O 0.1404 -0.1404(3) 0.0000 0.0653 Uani
O4YC O 0.0505 -0.1205(4) -0.0505(3) 0.0788 Uani
O4XC O 0.1205(4) -0.0505(3) -0.0505 0.0788 Uani
O3F O -0.1404(3) -0.0000 0.1404 0.0653 Uani
O4F O -0.1205(4) 0.0505(3) 0.0505 0.0788 Uani
O4JD O -0.1205(4) -0.0505(3) 0.0505 0.0788 Uani
O3ZC O 0.0000 -0.1404 -0.1404(3) 0.0653 Uani
O4ZC O 0.0505(3) -0.0505 -0.1205(4) 0.0788 Uani
O4TC O -0.0505(3) -0.0505 -0.1205(4) 0.0788 Uani
O4SC O -0.0505 -0.1205(4) -0.0505(3) 0.0788 Uani
O3R O 0.1404(3) 0.0000 -0.1404 0.0653 Uani
O4T O 0.0505(3) 0.0505 -0.1205(4) 0.0788 Uani
O3DD O -0.1404(3) 0.0000 -0.1404 0.0653 Uani
O4DD O -0.1205(4) 0.0505(3) -0.0505 0.0788 Uani
O4FD O -0.0505(3) 0.0505 -0.1205(4) 0.0788 Uani
O4RC O -0.1205(4) -0.0505(3) -0.0505 0.0788 Uani
O3T O 0.0000 0.1404 -0.1404(3) 0.0653 Uani
O4ED O -0.0505 0.1205(4) -0.0505(3) 0.0788 Uani
O3G O -0.1404 0.1404(3) 0.0000 0.0653 Uani
O3KD O -0.1404 -0.1404(3) 0.0000 0.0653 Uani
loop_
_atom_site_aniso_label
_atom_site_aniso_U_11
_atom_site_aniso_U_22
_atom_site_aniso_U_33
_atom_site_aniso_U_23
_atom_site_aniso_U_13
_atom_site_aniso_U_12
Cu1 0.0324(8) 0.032(1) 0.0324 0.0000 0.0028(9) 0.0000
O1 0.038(4) 0.048(4) 0.040(4) 0.006(3) 0.006(3) 0.008(3)
O2 0.105(9) 0.13(2) 0.1047 0.0000 0.06(1) 0.0000
C1 0.042(5) 0.026(7) 0.0420 -0.0023 -0.003(7) -0.002(4)
C2 0.036(4) 0.036(7) 0.0359 0.0047 -0.005(6) 0.005(4)
C3 0.049(8) 0.032(4) 0.0324 0.011(6) 0.0022 0.002(5)
O1E 0.04 0.048 0.038 0.008 0.006 0.006
C2A 0.0359 0.036 0.036 0.005 0.0047 -0.005
C1A 0.042 0.042 0.026 -0.002 -0.0023 -0.003
O1A 0.04 0.038 0.048 0.008 0.006 0.006
O1C 0.038 0.04 0.048 0.006 0.008 0.006
C3A 0.0324 0.049 0.032 0.002 0.011 0.0022
C2B 0.036 0.0359 0.036 -0.005 0.005 0.0047
C1B 0.026 0.042 0.042 -0.003 -0.002 -0.0023
O1B 0.048 0.04 0.038 0.006 0.008 0.006
O1D 0.048 0.038 0.04 0.006 0.006 0.008
C3B 0.032 0.0324 0.049 0.0022 0.002 0.011
O1L 0.038 0.048 0.04 -0.006 0.006 -0.008
C1L 0.042 0.026 0.042 0.0023 -0.003 0.002
C2L 0.036 0.036 0.0359 -0.0047 -0.005 -0.005
C3L 0.049 0.032 0.0324 -0.011 0.0022 -0.002
O1Q 0.04 0.048 0.038 -0.008 0.006 -0.006
C2M 0.0359 0.036 0.036 -0.005 0.0047 0.005
C1M 0.042 0.042 0.026 0.002 -0.0023 0.003
O1M 0.04 0.038 0.048 -0.008 0.006 -0.006
O1O 0.038 0.04 0.048 -0.006 0.008 -0.006
C3M 0.0324 0.049 0.032 -0.002 0.011 -0.0022
C2N 0.036 0.0359 0.036 0.005 0.005 -0.0047
C1N 0.026 0.042 0.042 0.003 -0.002 0.0023
O1N 0.048 0.04 0.038 -0.006 0.008 -0.006
O1P 0.048 0.038 0.04 -0.006 0.006 -0.008
C3N 0.032 0.0324 0.049 -0.0022 0.002 -0.011
O1SE 0.04 0.048 0.038 0.008 0.006 0.006
O1NE 0.038 0.048 0.04 0.006 0.006 0.008
O1EF 0.04 0.048 0.038 -0.008 0.006 -0.006
O1ZE 0.038 0.048 0.04 -0.006 0.006 -0.008
Cu1E 0.0324 0.032 0.0324 0 0.0028 0
Cu1A 0.0324 0.0324 0.032 0 0 0.0028
Cu1C 0.0324 0.0324 0.032 0 0 0.0028
Cu1B 0.032 0.0324 0.0324 0.0028 0 0
Cu1D 0.032 0.0324 0.0324 0.0028 0 0
Cu1M 0.0324 0.0324 0.032 0 0 -0.0028
Cu1O 0.0324 0.0324 0.032 0 0 -0.0028
Cu1N 0.032 0.0324 0.0324 -0.0028 0 0
Cu1P 0.032 0.0324 0.0324 -0.0028 0 0
O2E 0.1047 0.13 0.105 0 0.06 0
O2N 0.13 0.1047 0.105 -0.06 0 0
O1TA 0.048 0.038 0.04 -0.006 -0.006 0.008
O1LD 0.048 0.04 0.038 -0.006 -0.008 0.006
O1FE 0.048 0.038 0.04 -0.006 0.006 -0.008
W1 0.0406 0.0620 0.0406 0.0000 -0.0108 0.0000
P1 0.05(1) 0.0204 0.0204 0.0000 0.0000 0.0000
O3 0.053(6) 0.09(1) 0.0529 0.0000 -0.012(7) 0.0000
O4 0.076(8) 0.080(5) 0.0804 0.047(7) 0.0354 0.035(5)
O5 0.035(7) 0.0355 0.0355 0.0002 0.0002 0.000(8)
O5F 0.035 0.0355 0.0355 0.0002 -0.0002 0
O5L 0.035 0.0355 0.0355 -0.0002 0.0002 0
O5JD 0.035 0.0355 0.0355 -0.0002 -0.0002 0
O5ZC 0.035 0.0355 0.0355 0.0002 -0.0002 0
O5R 0.035 0.0355 0.0355 -0.0002 -0.0002 0
O5DD 0.035 0.0355 0.0355 -0.0002 0.0002 0
O5RC 0.035 0.0355 0.0355 0.0002 0.0002 0
O4B 0.08 0.0804 0.076 0.0354 0.035 0.047
O4L 0.076 0.08 0.0804 -0.047 0.0354 -0.035
O4N 0.08 0.0804 0.076 -0.0354 0.035 -0.047
W1B 0.062 0.0406 0.0406 -0.0108 0 0
W1N 0.062 0.0406 0.0406 0.0108 0 0
W1A 0.0406 0.0406 0.062 0 0 -0.0108
W1M 0.0406 0.0406 0.062 0 0 0.0108
W1F 0.0406 0.062 0.0406 0 0.0108 0
W1ZC 0.062 0.0406 0.0406 -0.0108 0 0
W1R 0.0406 0.062 0.0406 0 0.0108 0
W1DD 0.0406 0.062 0.0406 0 -0.0108 0
W1T 0.062 0.0406 0.0406 0.0108 0 0
W1G 0.0406 0.0406 0.062 0 0 0.0108
W1KD 0.0406 0.0406 0.062 0 0 -0.0108
O3B 0.09 0.0529 0.053 -0.012 0 0
O4A 0.0804 0.076 0.08 0.035 0.047 0.0354
O4H 0.08 0.0804 0.076 0.0354 -0.035 -0.047
O4G 0.0804 0.076 0.08 0.035 -0.047 -0.0354
O3N 0.09 0.0529 0.053 0.012 0 0
O4M 0.0804 0.076 0.08 -0.035 0.047 -0.0354
O4LD 0.08 0.0804 0.076 -0.0354 -0.035 0.047
O4KD 0.0804 0.076 0.08 -0.035 -0.047 0.0354
O3A 0.0529 0.053 0.09 0 0 -0.012
O4S 0.0804 0.076 0.08 -0.035 -0.047 0.0354
O4R 0.076 0.08 0.0804 -0.047 -0.0354 0.035
O3M 0.0529 0.053 0.09 0 0 0.012
O4YC 0.0804 0.076 0.08 0.035 -0.047 -0.0354
O4XC 0.076 0.08 0.0804 0.047 -0.0354 -0.035
O3F 0.053 0.09 0.0529 0 0.012 0
O4F 0.076 0.08 0.0804 0.047 -0.0354 -0.035
O4JD 0.076 0.08 0.0804 -0.047 -0.0354 0.035
O3ZC 0.09 0.0529 0.053 -0.012 0 0
O4ZC 0.08 0.0804 0.076 0.0354 -0.035 -0.047
O4TC 0.08 0.0804 0.076 0.0354 0.035 0.047
O4SC 0.0804 0.076 0.08 0.035 0.047 0.0354
O3R 0.053 0.09 0.0529 0 0.012 0
O4T 0.08 0.0804 0.076 -0.0354 -0.035 0.047
O3DD 0.053 0.09 0.0529 0 -0.012 0
O4DD 0.076 0.08 0.0804 -0.047 0.0354 -0.035
O4FD 0.08 0.0804 0.076 -0.0354 0.035 -0.047
O4RC 0.076 0.08 0.0804 0.047 0.0354 0.035
O3T 0.09 0.0529 0.053 0.012 0 0
O4ED 0.0804 0.076 0.08 -0.035 0.047 -0.0354
O3G 0.0529 0.053 0.09 0 0 0.012
O3KD 0.0529 0.053 0.09 0 0 -0.012
loop_
_geom_bond_atom_site_label_1
_geom_bond_atom_site_label_2
_geom_bond_site_symmetry_1
_geom_bond_site_symmetry_2
W1 O3 1_555 1_555
Cu1 O1 1_555 1_555
P1 O5 1_555 1_555
O1 C1 1_555 1_555
O2 Cu1 1_555 1_555
O4 W1 1_555 1_555
O5 W1 1_555 1_555
N1 C4 1_555 1_555
C1 C2 1_555 1_555
C2 C3 1_555 1_555
C3 C2A 1_555 1_555
C4 C4A 1_555 1_555
C5 N1 1_555 1_555
O5F P1 1_555 1_555
O5L W1 1_555 1_555
O5JD P1 1_555 1_555
O5ZC P1 1_555 1_555
O5R P1 1_555 1_555
O5DD P1 1_555 1_555
O5RC P1 1_555 1_555
O1E C1 1_555 1_555
C2A C1A 1_555 1_555
C1A O1A 1_555 1_555
O1A Cu1A 1_555 1_555
O1C C1A 1_555 1_555
C3A C2A 1_555 1_555
C2B C3A 1_555 1_555
C1B C2B 1_555 1_555
O1B C1B 1_555 1_555
O1D C1B 1_555 1_555
C3B C2 1_555 1_555
C4A N1A 1_555 1_555
N1A C5A 1_555 1_555
C5D N1A 1_555 1_555
C5DG N1A 1_555 1_555
C4B C4 1_555 1_555
N1B C4B 1_555 1_555
C5B N1B 1_555 1_555
C5E N1B 1_555 1_555
C5WD N1B 1_555 1_555
C4VD C4 1_555 1_555
N1VD C4VD 1_555 1_555
C5VD N1VD 1_555 1_555
C5YD N1VD 1_555 1_555
C5FG N1VD 1_555 1_555
C5C N1 1_555 1_555
C5BF N1 1_555 1_555
O4B W1 1_555 1_555
O4L W1 1_555 1_555
O4N W1 1_555 1_555
W1B O5 1_555 1_555
W1N O5L 1_555 1_555
W1A O4 1_555 1_555
W1M O5L 1_555 1_555
W1F O5F 1_555 1_555
W1ZC O5ZC 1_555 1_555
W1R O5ZC 1_555 1_555
W1DD O5DD 1_555 1_555
W1T O5R 1_555 1_555
W1G O5F 1_555 1_555
W1KD O5JD 1_555 1_555
O3B W1B 1_555 1_555
O4A W1B 1_555 1_555
O4H W1B 1_555 1_555
O4G W1B 1_555 1_555
O3N W1N 1_555 1_555
O4M W1N 1_555 1_555
O4LD W1N 1_555 1_555
O4KD W1N 1_555 1_555
O3A W1A 1_555 1_555
O4S W1A 1_555 1_555
O4R W1A 1_555 1_555
O3M W1M 1_555 1_555
O4YC W1M 1_555 1_555
O4XC W1M 1_555 1_555
O3F W1F 1_555 1_555
O4F W1F 1_555 1_555
O4JD W1F 1_555 1_555
O3ZC W1ZC 1_555 1_555
O4ZC W1ZC 1_555 1_555
O4TC W1ZC 1_555 1_555
O4SC W1ZC 1_555 1_555
O3R W1R 1_555 1_555
O4T W1R 1_555 1_555
O3DD W1DD 1_555 1_555
O4DD W1DD 1_555 1_555
O4FD W1DD 1_555 1_555
O4RC W1DD 1_555 1_555
O3T W1T 1_555 1_555
O4ED W1T 1_555 1_555
O3G W1G 1_555 1_555
O3KD W1KD 1_555 1_555
O1L Cu1 1_555 1_555
C1L O1L 1_555 1_555
C2L C1L 1_555 1_555
C3L C2L 1_555 1_555
O1Q C1L 1_555 1_555
C2M C3L 1_555 1_555
C1M C2M 1_555 1_555
O1M C1M 1_555 1_555
O1O C1M 1_555 1_555
C3M C2M 1_555 1_555
C2N C3M 1_555 1_555
C1N C2N 1_555 1_555
O1N C1N 1_555 1_555
O1P C1N 1_555 1_555
C3N C2L 1_555 1_555
O1SE Cu1 1_555 1_555
O1NE Cu1E 1_555 1_555
O1EF Cu1 1_555 1_555
O1ZE Cu1E 1_555 1_555
Cu1E Cu1 1_555 1_555
Cu1A Cu1C 1_555 1_555
Cu1C O1C 1_555 1_555
Cu1B O1B 1_555 1_555
Cu1D O1D 1_555 1_555
Cu1M O1M 1_555 1_555
Cu1O O1O 1_555 1_555
Cu1N O1N 1_555 1_555
Cu1P O1P 1_555 1_555
O2E Cu1E 1_555 1_555
O2N Cu1N 1_555 1_555
O1TA Cu1N 1_555 1_555
O1LD Cu1N 1_555 1_555
O1FE Cu1N 1_555 1_555
P1 O5L 1_555 1_555
O5 O5F 1_555 1_555
O5 O5R 1_555 1_555
O5 O5L 1_555 1_555
O5 W1A 1_555 1_555
O5F O5JD 1_555 1_555
O5F O5DD 1_555 1_555
O5F W1B 1_555 1_555
O5L O5JD 1_555 1_555
O5L O5ZC 1_555 1_555
O5JD O5RC 1_555 1_555
O5JD W1F 1_555 1_555
O5JD W1N 1_555 1_555
O5ZC O5R 1_555 1_555
O5ZC O5RC 1_555 1_555
O5ZC W1M 1_555 1_555
O5R O5DD 1_555 1_555
O5R W1R 1_555 1_555
O5R W1A 1_555 1_555
O5DD O5RC 1_555 1_555
O5DD W1T 1_555 1_555
O5DD W1G 1_555 1_555
O5RC W1DD 1_555 1_555
O5RC W1ZC 1_555 1_555
O5RC W1KD 1_555 1_555
O1E Cu1E 1_555 1_555
C2B C3B 1_555 1_555
C4A C4B 1_555 1_555
C4A C4VD 1_555 1_555
C4B C4VD 1_555 1_555
O4B W1B 1_555 1_555
O4L W1M 1_555 1_555
O4N W1N 1_555 1_555
W1A O4A 1_555 1_555
W1M O4M 1_555 1_555
W1F O4H 1_555 1_555
W1F O4LD 1_555 1_555
W1ZC O4YC 1_555 1_555
W1R O4R 1_555 1_555
W1R O4XC 1_555 1_555
W1R O4ZC 1_555 1_555
W1DD O4TC 1_555 1_555
W1T O4T 1_555 1_555
W1T O4S 1_555 1_555
W1T O4FD 1_555 1_555
W1G O4G 1_555 1_555
W1G O4ED 1_555 1_555
W1G O4F 1_555 1_555
W1G O4DD 1_555 1_555
W1KD O4KD 1_555 1_555
W1KD O4SC 1_555 1_555
W1KD O4JD 1_555 1_555
W1KD O4RC 1_555 1_555
O1Q Cu1E 1_555 1_555
C2N C3N 1_555 1_555
Cu1B Cu1D 1_555 1_555
Cu1M Cu1O 1_555 1_555
Cu1N Cu1P 1_555 1_555

#END
