
#######################################################################
#
#                 Cambridge Crystallographic Data Centre
#                                CCDC 
#
#######################################################################
#
# If this CIF has been generated from an entry in the Cambridge 
# Structural Database, then it will include bibliographic, chemical, 
# crystal, experimental, refinement or atomic coordinate data resulting 
# from the CCDC's data processing and validation procedures.
#
#######################################################################

data_RIYBOS
_chemical_formula_moiety         '(C53 H34 Br1 I6 N13 Zn3)n'
_symmetry_cell_setting           orthorhombic
_symmetry_space_group_name_H-M   'P b c a'
_symmetry_Int_Tables_number      61
_space_group_name_Hall           '-P 2ac 2ab'
loop_
_symmetry_equiv_pos_site_id
_symmetry_equiv_pos_as_xyz
1 x,y,z
2 1/2-x,-y,1/2+z
3 1/2+x,1/2-y,-z
4 -x,1/2+y,1/2-z
5 -x,-y,-z
6 1/2+x,y,1/2-z
7 1/2-x,1/2+y,z
8 x,1/2-y,1/2+z
_cell_length_a                   27.5504(3)
_cell_length_b                   13.83530(19)
_cell_length_c                   44.5398(6)
_cell_angle_alpha                90
_cell_angle_beta                 90
_cell_angle_gamma                90
_cell_volume                     16977.1
loop_
_atom_site_label
_atom_site_type_symbol
_atom_site_fract_x
_atom_site_fract_y
_atom_site_fract_z
_atom_site_U_iso_or_equiv
_atom_site_thermal_displace_type
I1 I 0.05983(3) -0.32864(6) 0.42218(2) 0.0811 Uani
I2 I 0.82513(4) 0.67590(9) 0.33574(2) 0.0992 Uani
I3 I 0.50240(3) -0.20040(6) 0.46291(2) 0.0738 Uani
I4 I 0.69774(4) 0.83015(6) 0.31549(2) 0.0819 Uani
I5 I 0.57231(3) -0.20010(7) 0.37754(3) 0.0887 Uani
I6 I -0.01620(3) -0.08091(14) 0.38706(3) 0.1273 Uani
Zn1 Zn 0.73991(4) 0.67407(7) 0.32121(2) 0.0419 Uani
Zn2 Zn 0.52228(3) -0.12455(6) 0.41523(2) 0.0406 Uani
Zn3 Zn 0.04602(3) -0.15556(8) 0.41566(2) 0.0412 Uani
N1 N 0.2375(2) -0.0202(4) 0.32179(13) 0.0287 Uani
N2 N 0.4581(2) -0.0900(4) 0.39428(16) 0.0380 Uani
N3 N 0.2837(2) -0.0594(4) 0.36541(12) 0.0280 Uani
N4 N 0.3236(2) -0.0201(4) 0.31991(12) 0.0277 Uani
N5 N 0.5528(2) 0.0074(5) 0.42481(16) 0.0380 Uani
N6 N 0.6124(2) 0.4876(4) 0.44343(14) 0.0343 Uani
N7 N 0.6236(2) 0.3399(4) 0.41670(15) 0.0360 Uani
N8 N 0.7005(3) 0.5929(5) 0.35059(14) 0.0417 Uani
N9 N 0.5795(2) 0.3426(4) 0.46259(14) 0.0337 Uani
C1 C 0.4161(3) -0.0917(6) 0.40877(19) 0.0403 Uani
H1 H 0.4164 -0.1032 0.4298 0.0480 Uiso
C2 C 0.1955(3) -0.0914(5) 0.39753(15) 0.0317 Uani
H2 H 0.2250 -0.0970 0.4084 0.0380 Uiso
C3 C 0.2415(2) -0.0469(4) 0.35078(14) 0.0243 Uani
N10 N 0.1093(2) -0.1046(4) 0.39683(13) 0.0333 Uani
C4 C 0.4141(3) -0.0542(6) 0.34957(19) 0.0443 Uani
H3 H 0.4147 -0.0387 0.3288 0.0530 Uiso
C5 C 0.2801(2) -0.0086(4) 0.30786(15) 0.0273 Uani
C6 C 0.1961(3) -0.0627(5) 0.36726(15) 0.0273 Uani
C7 C 0.3702(3) -0.0594(5) 0.36445(17) 0.0327 Uani
C8 C 0.1514(3) -0.0540(5) 0.35314(16) 0.0307 Uani
H4 H 0.1498 -0.0343 0.3327 0.0370 Uiso
C9 C 0.2759(3) 0.0241(5) 0.27626(15) 0.0300 Uani
C10 C 0.5972(3) 0.2974(5) 0.43859(17) 0.0340 Uani
C11 C 0.5891(3) 0.4372(5) 0.46433(15) 0.0313 Uani
C12 C 0.7027(3) 0.4976(6) 0.35131(19) 0.0460 Uani
H5 H 0.7208 0.4650 0.3362 0.0550 Uiso
C13 C 0.1097(3) -0.0737(5) 0.36841(16) 0.0347 Uani
H6 H 0.0796 -0.0651 0.3584 0.0420 Uiso
C14 C 0.5450(3) 0.4923(6) 0.54175(17) 0.0367 Uani
H7 H 0.5328 0.4584 0.5587 0.0440 Uiso
C15 C 0.3232(3) -0.0453(5) 0.34881(16) 0.0310 Uani
C16 C 0.5574(3) 0.4405(5) 0.51646(16) 0.0327 Uani
H8 H 0.5550 0.3720 0.5163 0.0390 Uiso
C17 C 0.3715(3) -0.0774(5) 0.39453(18) 0.0363 Uani
H9 H 0.3422 -0.0802 0.4058 0.0430 Uiso
C18 C 0.5631(3) 0.6357(6) 0.51849(18) 0.0413 Uani
H10 H 0.5641 0.7043 0.5188 0.0500 Uiso
C19 C 0.6288(3) 0.4357(5) 0.41999(17) 0.0343 Uani
C20 C 0.5849(3) 0.1936(5) 0.43457(17) 0.0330 Uani
C21 C 0.4563(3) -0.0710(6) 0.3643(2) 0.0447 Uani
H11 H 0.4859 -0.0695 0.3532 0.0540 Uiso
C22 C 0.5456(3) 0.0525(6) 0.4510(2) 0.0427 Uani
H12 H 0.5292 0.0185 0.4666 0.0510 Uiso
C23 C 0.1532(3) -0.1107(6) 0.41089(17) 0.0377 Uani
H13 H 0.1536 -0.1299 0.4314 0.0450 Uiso
C24 C 0.5765(3) 0.0560(6) 0.4033(2) 0.0483 Uani
H14 H 0.5818 0.0255 0.3845 0.0580 Uiso
C25 C 0.5605(3) 0.1442(6) 0.4566(2) 0.0470 Uani
H15 H 0.5541 0.1738 0.4754 0.0560 Uiso
C26 C 0.6534(3) 0.4894(6) 0.39556(17) 0.0377 Uani
C27 C 0.5935(3) 0.1487(5) 0.40756(19) 0.0410 Uani
H16 H 0.6108 0.1810 0.3921 0.0490 Uiso
C28 C 0.6512(4) 0.5879(6) 0.3947(2) 0.0523 Uani
H17 H 0.6344 0.6218 0.4100 0.0630 Uiso
C29 C 0.5753(3) 0.5901(6) 0.4928(2) 0.0450 Uani
H18 H 0.5853 0.6266 0.4758 0.0540 Uiso
C30 C 0.5735(2) 0.4896(5) 0.49114(17) 0.0313 Uani
C31 C 0.6790(3) 0.4420(6) 0.3739(2) 0.0457 Uani
H19 H 0.6810 0.3735 0.3739 0.0550 Uiso
C32 C 0.6728(4) 0.6381(7) 0.3719(2) 0.0570 Uani
H20 H 0.6686 0.7062 0.3709 0.0680 Uiso
N11 N 0.5495(2) 0.5899(5) 0.54337(14) 0.0357 Uani
C33 C 0.3170(3) 0.0573(6) 0.26017(17) 0.0363 Uani
H21 H 0.3483 0.0540 0.2690 0.0430 Uiso
C34 C 0.2320(3) 0.0262(5) 0.26169(16) 0.0323 Uani
H22 H 0.2037 0.0024 0.2714 0.0390 Uiso
C35 C 0.2290(3) 0.0630(5) 0.23272(16) 0.0330 Uani
H23 H 0.1982 0.0638 0.2230 0.0390 Uiso
C36 C 0.3115(3) 0.0936(6) 0.23212(18) 0.0423 Uani
H24 H 0.3392 0.1176 0.2218 0.0510 Uiso
N12 N 0.2671(2) 0.0968(5) 0.21808(14) 0.0370 Uani
Zn1C Zn 0.26009(4) 0.17407(7) 0.17879(2) 0.0419 Uani
Zn3B Zn 0.54602(3) 0.65556(8) 0.58434(2) 0.0412 Uani
N11B N 0.0495(2) -0.0899(5) 0.45663(14) 0.0357 Uani
N12C N 0.7329(2) 0.5968(5) 0.28192(14) 0.0370 Uani
Br1 Br 0.67000(3) 0.32881(7) 0.56122(2) 0.0485 Uani
N13 N 0.7532(4) 0.3352(5) 0.6060(2) 0.0537 Uani
C37 C 0.7298(4) 0.3105(5) 0.6318(2) 0.0463 Uani
C38 C 0.7560(4) 0.2879(6) 0.6591(3) 0.0547 Uani
C39 C 0.6800(7) 0.2189(8) 0.7392(3) 0.0753 Uani
H25 H 0.6636 0.2032 0.7573 0.0900 Uiso
C40 C 0.6531(6) 0.2476(8) 0.7136(3) 0.0737 Uani
H26 H 0.6187 0.2517 0.7142 0.0880 Uiso
C41 C 0.6760(4) 0.3093(6) 0.6330(2) 0.0500 Uani
C42 C 0.7288(4) 0.2621(6) 0.6866(2) 0.0487 Uani
C43 C 0.8292(4) 0.3186(7) 0.6315(3) 0.0577 Uani
H27 H 0.8636 0.3216 0.6301 0.0690 Uiso
C44 C 0.6478(4) 0.3243(6) 0.6058(3) 0.0563 Uani
C45 C 0.6796(4) 0.2706(6) 0.6864(2) 0.0473 Uani
C46 C 0.5976(4) 0.3303(7) 0.6085(3) 0.0663 Uani
H28 H 0.5786 0.3373 0.5908 0.0790 Uiso
C47 C 0.6532(4) 0.2956(6) 0.6593(2) 0.0493 Uani
C48 C 0.7530(5) 0.2333(6) 0.7133(3) 0.0667 Uani
H29 H 0.7874 0.2284 0.7131 0.0800 Uiso
C49 C 0.8017(4) 0.3386(6) 0.6074(3) 0.0573 Uani
H30 H 0.8183 0.3569 0.5896 0.0690 Uiso
C50 C 0.8084(4) 0.2948(7) 0.6573(3) 0.0660 Uani
H31 H 0.8277 0.2823 0.6745 0.0790 Uiso
C51 C 0.7301(8) 0.2136(7) 0.7378(3) 0.0860 Uani
H32 H 0.7479 0.1952 0.7551 0.1030 Uiso
C52 C 0.6019(6) 0.3060(8) 0.6604(3) 0.0763 Uani
H33 H 0.5870 0.2974 0.6794 0.0920 Uiso
C53 C 0.5729(4) 0.3263(6) 0.6378(3) 0.0573 Uani
H34 H 0.5391 0.3373 0.6401 0.0690 Uiso
loop_
_atom_site_aniso_label
_atom_site_aniso_U_11
_atom_site_aniso_U_22
_atom_site_aniso_U_33
_atom_site_aniso_U_23
_atom_site_aniso_U_13
_atom_site_aniso_U_12
I1 0.0867(6) 0.0618(5) 0.0947(6) -0.0222(4) 0.0286(5) -0.0259(4)
I2 0.0809(6) 0.1357(9) 0.0809(6) -0.0389(6) -0.0204(5) -0.0040(5)
I3 0.0868(6) 0.0595(5) 0.0752(5) 0.0291(4) -0.0101(4) -0.0121(4)
I4 0.1174(7) 0.0589(5) 0.0694(5) -0.0051(3) 0.0187(5) -0.0301(4)
I5 0.0736(5) 0.0740(6) 0.1184(8) -0.0255(5) -0.0001(5) 0.0166(4)
I6 0.0579(5) 0.2389(17) 0.0850(7) 0.0432(8) 0.0057(4) 0.0086(7)
Zn1 0.0516(6) 0.0426(5) 0.0316(5) -0.0058(4) 0.0074(4) -0.0118(4)
Zn2 0.0363(5) 0.0287(5) 0.0569(6) 0.0012(4) -0.0083(4) 0.0010(4)
Zn3 0.0332(5) 0.0578(6) 0.0325(5) -0.0059(4) 0.0044(3) -0.0056(4)
N1 0.041(3) 0.017(3) 0.028(3) -0.007(2) -0.002(2) 0.005(2)
N2 0.037(3) 0.025(3) 0.052(4) -0.005(3) -0.005(3) -0.004(3)
N3 0.036(3) 0.020(3) 0.028(3) -0.005(2) 0.001(2) 0.001(2)
N4 0.036(3) 0.020(3) 0.027(3) -0.005(2) 0.000(2) -0.002(2)
N5 0.034(3) 0.032(3) 0.048(4) 0.002(3) -0.003(3) 0.001(3)
N6 0.042(3) 0.028(3) 0.033(3) 0.002(2) -0.002(3) -0.003(3)
N7 0.041(3) 0.029(3) 0.038(3) 0.005(3) 0.003(3) 0.001(3)
N8 0.056(4) 0.041(4) 0.028(3) -0.003(3) 0.008(3) -0.002(3)
N9 0.040(3) 0.031(3) 0.030(3) 0.005(2) -0.006(3) -0.002(3)
C1 0.047(4) 0.033(4) 0.041(4) 0.002(3) -0.004(3) 0.002(3)
C2 0.040(4) 0.029(4) 0.026(3) -0.004(3) 0.000(3) 0.005(3)
C3 0.036(4) 0.013(3) 0.024(3) -0.004(2) -0.002(3) 0.001(2)
N10 0.039(3) 0.032(3) 0.029(3) -0.008(2) 0.000(3) 0.004(3)
C4 0.045(5) 0.047(5) 0.041(4) 0.008(4) 0.004(4) 0.002(4)
C5 0.037(4) 0.017(3) 0.028(3) -0.010(2) 0.003(3) 0.004(3)
C6 0.035(4) 0.015(3) 0.032(3) -0.005(2) -0.002(3) 0.000(3)
C7 0.039(4) 0.019(3) 0.040(4) -0.007(3) -0.004(3) -0.002(3)
C8 0.036(4) 0.028(3) 0.028(3) -0.004(3) -0.001(3) 0.003(3)
C9 0.042(4) 0.018(3) 0.030(3) -0.005(3) 0.005(3) 0.006(3)
C10 0.032(4) 0.032(4) 0.038(4) 0.006(3) -0.002(3) 0.004(3)
C11 0.036(4) 0.035(4) 0.023(3) 0.007(3) -0.005(3) 0.000(3)
C12 0.061(5) 0.037(4) 0.040(4) -0.005(3) 0.016(4) -0.001(4)
C13 0.036(4) 0.034(4) 0.034(4) -0.004(3) 0.004(3) 0.008(3)
C14 0.040(4) 0.037(4) 0.033(4) 0.008(3) 0.001(3) -0.001(3)
C15 0.039(4) 0.019(3) 0.035(4) -0.009(3) 0.006(3) 0.000(3)
C16 0.042(4) 0.030(4) 0.026(3) 0.004(3) -0.004(3) -0.002(3)
C17 0.035(4) 0.032(4) 0.042(4) -0.007(3) 0.000(3) -0.001(3)
C18 0.052(5) 0.038(4) 0.034(4) 0.001(3) 0.000(3) -0.003(4)
C19 0.038(4) 0.031(4) 0.034(4) 0.007(3) 0.000(3) 0.004(3)
C20 0.033(4) 0.027(4) 0.039(4) 0.005(3) -0.001(3) 0.004(3)
C21 0.034(4) 0.050(5) 0.050(5) 0.004(4) 0.003(3) 0.001(3)
C22 0.046(4) 0.035(4) 0.047(5) 0.007(3) 0.004(4) 0.001(3)
C23 0.038(4) 0.042(4) 0.033(4) -0.007(3) -0.003(3) -0.002(3)
C24 0.053(5) 0.042(5) 0.050(5) -0.004(4) 0.010(4) -0.012(4)
C25 0.060(5) 0.031(4) 0.050(5) 0.000(4) -0.009(4) 0.002(4)
C26 0.037(4) 0.041(4) 0.035(4) 0.002(3) 0.002(3) 0.001(3)
C27 0.057(5) 0.025(4) 0.041(4) -0.005(3) 0.014(4) -0.009(3)
C28 0.069(6) 0.035(4) 0.053(5) 0.008(4) 0.027(4) 0.005(4)
C29 0.062(5) 0.028(4) 0.045(5) 0.002(3) 0.005(4) -0.003(4)
C30 0.023(3) 0.032(4) 0.039(4) 0.004(3) -0.008(3) 0.000(3)
C31 0.059(5) 0.032(4) 0.046(4) -0.001(3) 0.014(4) 0.002(4)
C32 0.087(7) 0.035(4) 0.049(5) -0.001(4) 0.030(5) 0.011(5)
N11 0.031(3) 0.039(3) 0.037(3) 0.000(3) -0.005(3) -0.003(3)
C33 0.028(3) 0.042(4) 0.039(4) 0.003(3) 0.004(3) 0.007(3)
C34 0.042(4) 0.024(3) 0.031(3) -0.003(3) 0.004(3) -0.001(3)
C35 0.037(4) 0.027(3) 0.035(4) -0.004(3) 0.001(3) 0.005(3)
C36 0.043(4) 0.048(5) 0.036(4) 0.004(3) 0.011(3) 0.009(4)
N12 0.042(3) 0.035(3) 0.034(3) -0.005(3) 0.002(3) 0.010(3)
Zn1C 0.0516 0.0426 0.0316 0.0058 0.0074 0.0118
Zn3B 0.0332 0.0578 0.0325 -0.0059 -0.0044 0.0056
N11B 0.031 0.039 0.037 0 0.005 0.003
N12C 0.042 0.035 0.034 0.005 0.002 -0.01
Br1 0.0518(5) 0.0588(6) 0.0348(5) -0.0014(4) -0.0128(4) -0.0013(4)
N13 0.076(6) 0.029(4) 0.056(5) -0.010(3) 0.006(4) 0.000(4)
C37 0.078(6) 0.007(3) 0.054(5) -0.008(3) -0.010(5) -0.004(3)
C38 0.070(6) 0.015(4) 0.079(7) -0.016(4) -0.017(5) 0.002(4)
C39 0.140(13) 0.032(5) 0.054(7) -0.011(5) 0.022(7) -0.009(7)
C40 0.105(10) 0.038(5) 0.078(8) -0.012(5) 0.020(7) -0.004(6)
C41 0.066(6) 0.021(4) 0.063(6) -0.010(4) -0.014(5) 0.001(4)
C42 0.082(7) 0.016(3) 0.048(5) -0.012(3) -0.015(5) 0.001(4)
C43 0.072(7) 0.027(4) 0.074(7) -0.017(4) 0.008(6) 0.000(4)
C44 0.064(6) 0.028(4) 0.077(7) -0.006(4) -0.025(5) -0.009(4)
C45 0.068(6) 0.020(4) 0.054(5) -0.008(3) 0.003(4) -0.007(4)
C46 0.066(7) 0.039(5) 0.094(9) -0.006(5) -0.027(6) -0.002(5)
C47 0.067(6) 0.020(4) 0.061(6) -0.012(4) -0.004(5) -0.005(4)
C48 0.117(9) 0.025(4) 0.058(7) -0.018(4) -0.045(7) 0.010(5)
C49 0.049(4) 0.026(3) 0.097(6) -0.008(3) -0.016(4) -0.006(3)
C50 0.071(7) 0.024(4) 0.103(9) -0.027(5) -0.030(7) 0.012(4)
C51 0.186(17) 0.023(5) 0.049(7) -0.018(4) -0.034(9) 0.011(7)
C52 0.106(10) 0.034(5) 0.089(9) -0.022(5) 0.013(8) -0.016(6)
C53 0.049(4) 0.026(3) 0.097(6) -0.008(3) -0.016(4) -0.006(3)
loop_
_geom_bond_atom_site_label_1
_geom_bond_atom_site_label_2
_geom_bond_site_symmetry_1
_geom_bond_site_symmetry_2
I1 Zn3 1_555 1_555
I2 Zn1 1_555 1_555
I3 Zn2 1_555 1_555
I4 Zn1 1_555 1_555
I5 Zn2 1_555 1_555
I6 Zn3 1_555 1_555
Zn1 N8 1_555 1_555
Zn2 N2 1_555 1_555
Zn3 N10 1_555 1_555
N1 C3 1_555 1_555
N2 C1 1_555 1_555
N3 C3 1_555 1_555
N4 C5 1_555 1_555
N5 Zn2 1_555 1_555
N6 C11 1_555 1_555
N7 C10 1_555 1_555
N8 C12 1_555 1_555
N9 C10 1_555 1_555
C1 H1 1_555 1_555
C2 H2 1_555 1_555
C3 C6 1_555 1_555
N10 C13 1_555 1_555
C4 H3 1_555 1_555
C5 N1 1_555 1_555
C6 C2 1_555 1_555
C7 C4 1_555 1_555
C8 C6 1_555 1_555
H4 C8 1_555 1_555
C9 C5 1_555 1_555
C10 C20 1_555 1_555
C11 N9 1_555 1_555
C12 H5 1_555 1_555
C13 C8 1_555 1_555
H6 C13 1_555 1_555
C14 H7 1_555 1_555
C15 N3 1_555 1_555
C16 C14 1_555 1_555
H8 C16 1_555 1_555
C17 C1 1_555 1_555
H9 C17 1_555 1_555
C18 H10 1_555 1_555
C19 N6 1_555 1_555
C20 C25 1_555 1_555
C21 N2 1_555 1_555
H11 C21 1_555 1_555
C22 N5 1_555 1_555
H12 C22 1_555 1_555
C23 C2 1_555 1_555
H13 C23 1_555 1_555
C24 N5 1_555 1_555
H14 C24 1_555 1_555
C25 C22 1_555 1_555
H15 C25 1_555 1_555
C26 C19 1_555 1_555
C27 C20 1_555 1_555
H16 C27 1_555 1_555
C28 C26 1_555 1_555
H17 C28 1_555 1_555
C29 C18 1_555 1_555
H18 C29 1_555 1_555
C30 C11 1_555 1_555
C31 C12 1_555 1_555
H19 C31 1_555 1_555
C32 N8 1_555 1_555
H20 C32 1_555 1_555
N11 C14 1_555 1_555
C33 C9 1_555 1_555
H21 C33 1_555 1_555
C34 C9 1_555 1_555
H22 C34 1_555 1_555
C35 C34 1_555 1_555
H23 C35 1_555 1_555
C36 C33 1_555 1_555
H24 C36 1_555 1_555
N12 C35 1_555 1_555
Br1 C44 1_555 1_555
N13 C37 1_555 1_555
C37 C38 1_555 1_555
C38 C42 1_555 1_555
C39 H25 1_555 1_555
C40 C39 1_555 1_555
H26 C40 1_555 1_555
C41 C37 1_555 1_555
C42 C45 1_555 1_555
C43 H27 1_555 1_555
C44 C41 1_555 1_555
C45 C40 1_555 1_555
C46 C44 1_555 1_555
H28 C46 1_555 1_555
C47 C41 1_555 1_555
C48 C42 1_555 1_555
H29 C48 1_555 1_555
C49 N13 1_555 1_555
H30 C49 1_555 1_555
C50 C38 1_555 1_555
H31 C50 1_555 1_555
C51 C39 1_555 1_555
H32 C51 1_555 1_555
C52 C47 1_555 1_555
H33 C52 1_555 1_555
C53 C46 1_555 1_555
H34 C53 1_555 1_555
Zn1C N12 1_555 1_555
Zn3B N11 1_555 1_555
N11B Zn3 1_555 1_555
N12C Zn1 1_555 1_555
N4 C15 1_555 1_555
N7 C19 1_555 1_555
N10 C23 1_555 1_555
C4 C21 1_555 1_555
C7 C15 1_555 1_555
C7 C17 1_555 1_555
C16 C30 1_555 1_555
C18 N11 1_555 1_555
C24 C27 1_555 1_555
C26 C31 1_555 1_555
C28 C32 1_555 1_555
C29 C30 1_555 1_555
C36 N12 1_555 1_555
C43 C49 1_555 1_555
C43 C50 1_555 1_555
C45 C47 1_555 1_555
C48 C51 1_555 1_555
C52 C53 1_555 1_555

#END
