
#######################################################################
#
#                 Cambridge Crystallographic Data Centre
#                                CCDC 
#
#######################################################################
#
# If this CIF has been generated from an entry in the Cambridge 
# Structural Database, then it will include bibliographic, chemical, 
# crystal, experimental, refinement or atomic coordinate data resulting 
# from the CCDC's data processing and validation procedures.
#
#######################################################################

data_RIYBEI
_chemical_formula_moiety         '(C73 H52 I6 N16 O7 Pd1 S2 Zn3)n'
_symmetry_cell_setting           orthorhombic
_symmetry_space_group_name_H-M   'P b c a'
_symmetry_Int_Tables_number      61
_space_group_name_Hall           '-P 2ac 2ab'
loop_
_symmetry_equiv_pos_site_id
_symmetry_equiv_pos_as_xyz
1 x,y,z
2 1/2-x,-y,1/2+z
3 1/2+x,1/2-y,-z
4 -x,1/2+y,1/2-z
5 -x,-y,-z
6 1/2+x,y,1/2-z
7 1/2-x,1/2+y,z
8 x,1/2-y,1/2+z
_cell_length_a                   27.8747(4)
_cell_length_b                   13.78762(17)
_cell_length_c                   45.4150(5)
_cell_angle_alpha                90
_cell_angle_beta                 90
_cell_angle_gamma                90
_cell_volume                     17454.2
loop_
_atom_site_label
_atom_site_type_symbol
_atom_site_fract_x
_atom_site_fract_y
_atom_site_fract_z
_atom_site_U_iso_or_equiv
_atom_site_thermal_displace_type
I1 I 0.19489(2) 0.68337(4) 0.80567(2) 0.0448 Uani
I2 I 0.49121(3) 0.29084(5) 0.46218(2) 0.0673 Uani
I3 I 0.51477(2) 1.06449(5) 0.60545(2) 0.0537 Uani
I4 I 0.33288(2) 0.82359(5) 0.82545(2) 0.0568 Uani
I5 I 0.44295(3) 1.33266(4) 0.56759(2) 0.0587 Uani
I6 I 0.42705(3) 0.28359(5) 0.37231(2) 0.0787 Uani
Zn1 Zn 0.24327(3) 0.83895(6) 0.81384(2) 0.0322 Uani
Zn2 Zn 0.44887(3) 1.15056(7) 0.57684(2) 0.0358 Uani
Zn3 Zn 0.47500(3) 0.36946(6) 0.41202(2) 0.0403 Uani
N1 N 0.2352(2) 0.9199(4) 0.77650(12) 0.0300 Uani
N2 N 0.2912(2) 1.0827(4) 0.34571(13) 0.0317 Uani
N3 N 0.4388(2) 1.0825(5) 0.53702(12) 0.0343 Uani
N4 N 0.1767(2) 1.0312(4) 0.67653(12) 0.0277 Uani
N5 N 0.2614(2) 1.0343(4) 0.67362(11) 0.0253 Uani
N6 N 0.4441(2) 0.5024(4) 0.41969(14) 0.0343 Uani
N7 N 0.2146(2) 1.0686(4) 0.63134(12) 0.0267 Uani
N8 N 0.3858(2) 1.1093(4) 0.59790(12) 0.0317 Uani
N9 N 0.3688(2) 0.8331(4) 0.41122(14) 0.0337 Uani
N10 N 0.3727(2) 0.9793(4) 0.43876(13) 0.0337 Uani
C1 C 0.1760(3) 1.0544(4) 0.64794(14) 0.0273 Uani
N11 N 0.4085(2) 0.8353(4) 0.45758(13) 0.0343 Uani
C2 C 0.2892(3) 0.9851(5) 0.34700(18) 0.0447 Uani
H1 H 0.2717 0.9514 0.3322 0.0530 Uiso
C3 C 0.2248(2) 0.9916(4) 0.71912(14) 0.0257 Uani
C4 C 0.2205(2) 1.0218(4) 0.68809(14) 0.0250 Uani
C5 C 0.3146(3) 1.1283(5) 0.36723(16) 0.0367 Uani
H2 H 0.3165 1.1971 0.3665 0.0440 Uiso
C6 C 0.2566(2) 1.0573(4) 0.64516(14) 0.0253 Uani
C7 C 0.3458(3) 1.0654(5) 0.64228(15) 0.0303 Uani
H3 H 0.3476 1.0475 0.6624 0.0360 Uiso
C8 C 0.1919(3) 0.9266(5) 0.76354(16) 0.0353 Uani
H4 H 0.1645 0.9063 0.7743 0.0420 Uiso
C9 C 0.3014(2) 1.0740(4) 0.62812(13) 0.0243 Uani
C10 C 0.3436(3) 1.1164(5) 0.58433(15) 0.0343 Uani
H5 H 0.3431 1.1339 0.5641 0.0410 Uiso
C11 C 0.3866(3) 1.0833(5) 0.62649(15) 0.0310 Uani
H6 H 0.4167 1.0772 0.6361 0.0380 Uiso
C12 C 0.2738(3) 0.9530(5) 0.76155(14) 0.0273 Uani
H7 H 0.3045 0.9514 0.7707 0.0330 Uiso
C13 C 0.4100(3) 0.6884(5) 0.42847(16) 0.0330 Uani
C14 C 0.4151(3) 1.1277(6) 0.51503(17) 0.0427 Uani
H8 H 0.4076 1.1946 0.5171 0.0510 Uiso
C15 C 0.2697(3) 0.9891(5) 0.73327(15) 0.0287 Uani
H9 H 0.2974 1.0123 0.7233 0.0340 Uiso
C16 C 0.3599(3) 0.9273(5) 0.41514(15) 0.0303 Uani
C17 C 0.4386(3) 0.9373(6) 0.50792(17) 0.0400 Uani
H10 H 0.4483 0.8717 0.5057 0.0480 Uiso
C18 C 0.4271(4) 0.6346(6) 0.45160(18) 0.0517 Uani
H11 H 0.4273 0.6607 0.4710 0.0620 Uiso
C19 C 0.3350(3) 0.9803(5) 0.39092(15) 0.0313 Uani
C20 C 0.4507(3) 0.9887(6) 0.53300(16) 0.0390 Uani
H12 H 0.4682 0.9565 0.5481 0.0470 Uiso
C21 C 0.1855(3) 0.9612(5) 0.73572(16) 0.0333 Uani
H13 H 0.1541 0.9647 0.7276 0.0400 Uiso
C22 C 0.3112(3) 0.9329(5) 0.36855(18) 0.0447 Uani
H14 H 0.3101 0.8640 0.3682 0.0540 Uiso
C23 C 0.3966(3) 0.9289(5) 0.45943(15) 0.0347 Uani
C24 C 0.3360(3) 1.0811(5) 0.39025(17) 0.0380 Uani
H15 H 0.3512 1.1167 0.4055 0.0460 Uiso
C25 C 0.3944(3) 0.7918(5) 0.43257(15) 0.0300 Uani
C26 C 0.3005(3) 1.0992(5) 0.59866(15) 0.0313 Uani
H16 H 0.2709 1.1047 0.5884 0.0380 Uiso
C27 C 0.4123(3) 0.9828(5) 0.48620(14) 0.0333 Uani
C28 C 0.4438(4) 0.5427(6) 0.44639(18) 0.0517 Uani
H17 H 0.4557 0.5061 0.4625 0.0620 Uiso
C29 C 0.4011(3) 1.0799(6) 0.48933(16) 0.0447 Uani
H18 H 0.3843 1.1135 0.4743 0.0540 Uiso
C30 C 0.4278(3) 0.5564(6) 0.39732(18) 0.0433 Uani
H19 H 0.4283 0.5289 0.3781 0.0520 Uiso
C31 C 0.4102(3) 0.6491(6) 0.40042(18) 0.0417 Uani
H20 H 0.3988 0.6848 0.3840 0.0500 Uiso
C32 C 0.1285(3) 1.0655(5) 0.63372(14) 0.0273 Uani
C33 C 0.1250(3) 1.0887(5) 0.60417(16) 0.0347 Uani
H21 H 0.1531 1.0957 0.5926 0.0420 Uiso
C34 C 0.0867(3) 1.0562(6) 0.64976(17) 0.0397 Uani
H22 H 0.0878 1.0397 0.6701 0.0470 Uiso
C35 C 0.0802(3) 1.1014(6) 0.59170(17) 0.0383 Uani
H23 H 0.0782 1.1153 0.5712 0.0460 Uiso
C36 C 0.0432(3) 1.0711(6) 0.63576(18) 0.0417 Uani
H24 H 0.0145 1.0640 0.6468 0.0500 Uiso
N12 N 0.0399(2) 1.0950(4) 0.60728(14) 0.0353 Uani
Zn1A Zn 0.25673(3) 1.16105(6) 0.31384(2) 0.0322 Uani
Zn3B Zn -0.02500(3) 1.13054(6) 0.58798(2) 0.0403 Uani
N2A N 0.2088(2) 0.9173(4) 0.84571(13) 0.0317 Uani
N12B N 0.5399(2) 0.4050(4) 0.39272(14) 0.0353 Uani
Pd1 Pd 0.65761(4) 0.71444(7) 0.32360(3) 0.0758 Uani
S1 S 0.60994(16) 0.7477(4) 0.28190(12) 0.1100 Uani
S2 S 0.57758(19) 0.6960(3) 0.34029(13) 0.1133 Uani
N13 N 0.6914(4) 0.6835(6) 0.3614(3) 0.0760 Uani
C37 C 0.8084(4) 0.7196(6) 0.3217(2) 0.0507 Uani
C38 C 0.7258(5) 0.7313(6) 0.3080(2) 0.0600 Uani
C39 C 0.7602(4) 0.7134(6) 0.3282(2) 0.0497 Uani
C40 C 0.8267(4) 0.6750(6) 0.3736(3) 0.0517 Uani
C41 C 0.7411(7) 0.7579(7) 0.2803(2) 0.0700 Uani
H25 H 0.7174 0.7723 0.2659 0.0840 Uiso
C42 C 0.8441(4) 0.6971(6) 0.3468(3) 0.0540 Uani
C43 C 0.9243(5) 0.6781(9) 0.3635(5) 0.0833 Uani
H26 H 0.9577 0.6802 0.3593 0.1000 Uiso
C44 C 0.8231(6) 0.7436(7) 0.2944(3) 0.0760 Uani
H27 H 0.8562 0.7470 0.2893 0.0910 Uiso
C45 C 0.7730(4) 0.6708(5) 0.3803(2) 0.0507 Uani
C46 C 0.7439(4) 0.6882(6) 0.3578(2) 0.0497 Uani
C47 C 0.8932(5) 0.6954(8) 0.3434(3) 0.0717 Uani
H28 H 0.9051 0.7084 0.3242 0.0860 Uiso
C48 C 0.8605(6) 0.6544(7) 0.3971(3) 0.0743 Uani
H29 H 0.8495 0.6398 0.4164 0.0890 Uiso
C49 C 0.7847(7) 0.7643(7) 0.2729(3) 0.0700 Uani
H30 H 0.7928 0.7826 0.2533 0.0840 Uiso
C50 C 0.6759(5) 0.6614(7) 0.3872(3) 0.0680 Uani
H31 H 0.6422 0.6576 0.3900 0.0810 Uiso
C51 C 0.5646(6) 0.7261(14) 0.3054(4) 0.1040 Uani
C52 C 0.7053(7) 0.6426(9) 0.4110(3) 0.0823 Uani
H32 H 0.6916 0.6268 0.4296 0.0990 Uiso
C53 C 0.7530(6) 0.6466(8) 0.4082(3) 0.0720 Uani
H33 H 0.7733 0.6336 0.4245 0.0870 Uiso
C54 C 0.9077(7) 0.6563(8) 0.3912(5) 0.0933 Uani
H34 H 0.9300 0.6423 0.4064 0.1120 Uiso
O1 O 0.5186(5) 0.7326(12) 0.2953(4) 0.1453 Uani
C55 C 0.4807(8) 0.701(3) 0.3122(9) 0.2693 Uani
H35 H 0.4767 0.6310 0.3097 0.4060 Uiso
H36 H 0.4513 0.7344 0.3060 0.4060 Uiso
H37 H 0.4871 0.7156 0.3330 0.4060 Uiso
C56 C 0.4270(5) 0.9754(9) 0.26503(19) 0.0500 Uani
C57 C 0.4099(5) 0.9115(7) 0.2862(3) 0.0760 Uani
H38 H 0.4010 0.8474 0.2808 0.0910 Uiso
C58 C 0.4057(5) 0.9413(9) 0.3154(2) 0.0693 Uani
H39 H 0.3940 0.8977 0.3298 0.0830 Uiso
C59 C 0.4188(5) 1.0351(9) 0.32328(17) 0.0540 Uani
H40 H 0.4159 1.0555 0.3432 0.0650 Uiso
C60 C 0.4359(4) 1.0990(7) 0.3021(2) 0.0493 Uani
H41 H 0.4448 1.1630 0.3075 0.0590 Uiso
C61 C 0.4401(4) 1.0691(8) 0.2730(2) 0.0523 Uani
H42 H 0.4518 1.1128 0.2585 0.0630 Uiso
O2 O 0.4512(9) 1.0068(14) 0.2181(4) 0.1160 Uani
O3 O 0.4229(9) 0.8646(14) 0.2291(4) 0.1160 Uani
N14 N 0.4337(9) 0.9454(14) 0.2343(4) 0.0927 Uani
C62 C 0.3204(6) 0.7229(9) 0.5215(4) 0.0700 Uiso
H43 H 0.3149 0.7908 0.5208 0.0850 Uiso
C63 C 0.2818(4) 0.6592(12) 0.5230(4) 0.0480 Uiso
C64 C 0.2898(5) 0.5598(11) 0.5241(4) 0.0520 Uiso
H44 H 0.2634 0.5162 0.5252 0.0630 Uiso
C65 C 0.3364(6) 0.5240(8) 0.5237(4) 0.0650 Uiso
H45 H 0.3419 0.4561 0.5245 0.0770 Uiso
C66 C 0.3750(4) 0.5877(11) 0.5223(4) 0.0400 Uiso
H46 H 0.4069 0.5633 0.5220 0.0480 Uiso
C67 C 0.3670(5) 0.6871(10) 0.5211(4) 0.0420 Uiso
H47 H 0.3933 0.7306 0.5201 0.0500 Uiso
N15 N 0.2365(8) 0.7204(19) 0.5222(11) 0.1300 Uiso
O4 O 0.2023(7) 0.672(2) 0.5212(7) 0.1020 Uiso
O5 O 0.2442(13) 0.8062(17) 0.5184(9) 0.1410 Uiso
O6 O 0.2277(9) 0.6559(18) 0.4596(5) 0.0880 Uiso
C68 C 0.3139(6) 0.4495(12) 0.3981(3) 0.0490 Uiso
H48 H 0.3334 0.4389 0.3812 0.0590 Uiso
C69 C 0.3017(7) 0.3722(9) 0.4163(4) 0.0720 Uiso
H49 H 0.3128 0.3088 0.4118 0.0870 Uiso
C70 C 0.2733(7) 0.3878(10) 0.4410(4) 0.0730 Uiso
H50 H 0.2649 0.3350 0.4534 0.0880 Uiso
C71 C 0.2570(6) 0.4807(12) 0.4475(3) 0.0460 Uiso
H51 H 0.2376 0.4913 0.4644 0.0550 Uiso
C72 C 0.2693(7) 0.5580(9) 0.4293(4) 0.0660 Uiso
C73 C 0.2977(6) 0.5424(10) 0.4046(3) 0.0400 Uiso
H52 H 0.3061 0.5952 0.3922 0.0490 Uiso
N16 N 0.2559(12) 0.6563(15) 0.4385(6) 0.0970 Uiso
O7 O 0.2682(13) 0.7142(16) 0.4193(7) 0.1230 Uiso
loop_
_atom_site_aniso_label
_atom_site_aniso_U_11
_atom_site_aniso_U_22
_atom_site_aniso_U_33
_atom_site_aniso_U_23
_atom_site_aniso_U_13
_atom_site_aniso_U_12
I1 0.0651(4) 0.0263(3) 0.0431(3) -0.0024(2) 0.0056(2) 0.0018(2)
I2 0.0677(4) 0.0524(4) 0.0817(5) 0.0413(3) 0.0311(3) 0.0193(3)
I3 0.0366(3) 0.0806(4) 0.0439(3) 0.0116(3) -0.0014(2) -0.0041(3)
I4 0.0473(3) 0.0715(4) 0.0515(4) 0.0217(3) -0.0045(3) 0.0145(3)
I5 0.0733(4) 0.0377(3) 0.0652(4) -0.0072(3) 0.0016(3) -0.0134(3)
I6 0.0590(4) 0.0593(4) 0.1178(7) -0.0375(4) 0.0080(4) -0.0188(3)
Zn1 0.0425(5) 0.0281(4) 0.0260(4) 0.0054(3) 0.0032(3) 0.0077(3)
Zn2 0.0386(5) 0.0410(5) 0.0279(4) -0.0029(3) 0.0020(3) -0.0072(4)
Zn3 0.0382(5) 0.0246(4) 0.0582(6) 0.0053(4) 0.0142(4) 0.0022(4)
N1 0.041(3) 0.025(3) 0.024(3) 0.000(2) 0.001(2) 0.004(2)
N2 0.039(3) 0.027(3) 0.029(3) -0.005(2) -0.004(3) 0.005(3)
N3 0.044(4) 0.039(3) 0.020(3) 0.000(2) 0.004(2) -0.004(3)
N4 0.035(3) 0.026(3) 0.022(3) -0.001(2) 0.000(2) 0.003(2)
N5 0.038(3) 0.019(3) 0.019(3) -0.005(2) -0.002(2) -0.002(2)
N6 0.037(3) 0.023(3) 0.043(3) 0.005(3) 0.007(3) 0.003(2)
N7 0.037(3) 0.020(3) 0.023(3) -0.005(2) -0.001(2) 0.000(2)
N8 0.035(3) 0.034(3) 0.026(3) -0.006(2) 0.002(2) 0.000(3)
N9 0.035(3) 0.030(3) 0.036(3) 0.000(3) 0.001(3) -0.001(3)
N10 0.044(3) 0.029(3) 0.028(3) 0.002(2) -0.001(3) 0.005(3)
C1 0.041(4) 0.017(3) 0.024(3) 0.000(2) 0.000(3) 0.000(3)
N11 0.048(4) 0.026(3) 0.029(3) 0.003(2) 0.005(3) 0.005(3)
C2 0.070(6) 0.024(4) 0.040(4) -0.005(3) -0.017(4) -0.002(4)
C3 0.037(4) 0.016(3) 0.024(3) -0.003(2) 0.000(3) 0.002(3)
C4 0.033(4) 0.014(3) 0.028(3) -0.006(2) 0.001(3) 0.002(3)
C5 0.051(5) 0.023(3) 0.036(4) 0.000(3) -0.010(3) -0.006(3)
C6 0.040(4) 0.014(3) 0.022(3) -0.002(2) 0.000(3) -0.001(3)
C7 0.038(4) 0.026(3) 0.027(3) 0.000(3) -0.003(3) 0.000(3)
C8 0.040(4) 0.032(4) 0.034(4) 0.006(3) 0.009(3) 0.003(3)
C9 0.035(4) 0.018(3) 0.020(3) -0.004(2) 0.000(3) 0.001(3)
C10 0.043(4) 0.036(4) 0.024(3) -0.003(3) 0.003(3) -0.005(3)
C11 0.034(4) 0.035(4) 0.024(3) -0.006(3) -0.002(3) -0.002(3)
C12 0.035(4) 0.023(3) 0.024(3) -0.003(3) 0.000(3) 0.000(3)
C13 0.033(4) 0.028(4) 0.038(4) -0.001(3) 0.003(3) 0.002(3)
C14 0.063(5) 0.032(4) 0.033(4) -0.001(3) -0.002(4) 0.006(4)
C15 0.034(4) 0.021(3) 0.031(3) -0.004(3) 0.001(3) -0.004(3)
C16 0.034(4) 0.032(4) 0.025(3) -0.001(3) 0.000(3) -0.001(3)
C17 0.057(5) 0.030(4) 0.033(4) 0.001(3) -0.007(3) 0.004(3)
C18 0.091(7) 0.032(4) 0.032(4) 0.007(3) 0.013(4) 0.020(4)
C19 0.037(4) 0.027(3) 0.030(4) 0.002(3) 0.004(3) 0.002(3)
C20 0.048(4) 0.040(4) 0.029(4) 0.006(3) -0.004(3) 0.011(3)
C21 0.034(4) 0.032(4) 0.034(4) 0.004(3) -0.001(3) 0.002(3)
C22 0.069(6) 0.022(4) 0.043(4) -0.005(3) -0.014(4) 0.003(4)
C23 0.045(4) 0.031(4) 0.028(4) 0.001(3) 0.006(3) 0.004(3)
C24 0.051(5) 0.026(4) 0.037(4) -0.005(3) -0.006(3) -0.004(3)
C25 0.032(4) 0.023(3) 0.035(4) 0.003(3) 0.008(3) 0.007(3)
C26 0.036(4) 0.033(4) 0.025(3) -0.002(3) -0.004(3) -0.003(3)
C27 0.050(4) 0.031(4) 0.019(3) 0.004(3) 0.004(3) 0.004(3)
C28 0.083(7) 0.038(4) 0.034(4) 0.009(3) 0.011(4) 0.019(4)
C29 0.076(6) 0.032(4) 0.026(4) 0.002(3) -0.008(4) 0.012(4)
C30 0.059(5) 0.033(4) 0.038(4) -0.009(3) -0.008(4) 0.009(4)
C31 0.052(5) 0.029(4) 0.044(4) -0.002(3) -0.012(4) 0.006(3)
C32 0.037(4) 0.019(3) 0.026(3) -0.004(3) -0.005(3) -0.004(3)
C33 0.039(4) 0.036(4) 0.029(4) -0.001(3) 0.001(3) 0.002(3)
C34 0.043(4) 0.045(4) 0.031(4) 0.010(3) -0.006(3) -0.001(3)
C35 0.043(4) 0.039(4) 0.033(4) 0.002(3) -0.012(3) -0.005(3)
C36 0.036(4) 0.044(4) 0.045(4) 0.005(4) -0.003(3) -0.004(3)
N12 0.035(3) 0.026(3) 0.045(4) 0.002(3) -0.010(3) -0.004(3)
Zn1A 0.0425 0.0281 0.026 -0.0054 -0.0032 0.0077
Zn3B 0.0382 0.0246 0.0582 0.0053 -0.0142 -0.0022
N2A 0.039 0.027 0.029 0.005 0.004 0.005
N12B 0.035 0.026 0.045 0.002 0.01 0.004
Pd1 0.0868(7) 0.0462(5) 0.0944(7) -0.0328(5) -0.0212(6) 0.0135(5)
S1 0.086(3) 0.107(3) 0.137(4) -0.052(3) -0.029(3) 0.024(2)
S2 0.116(3) 0.068(2) 0.156(4) -0.048(3) -0.023(3) 0.017(2)
N13 0.107(9) 0.024(4) 0.097(8) -0.027(5) 0.007(7) -0.007(5)
C37 0.090(5) 0.010(3) 0.052(4) -0.014(2) 0.006(4) -0.006(3)
C38 0.108(9) 0.016(4) 0.056(6) -0.018(4) -0.035(6) 0.012(5)
C39 0.085(5) 0.010(3) 0.054(4) -0.014(3) -0.007(4) 0.002(3)
C40 0.066(6) 0.009(4) 0.080(7) -0.013(4) -0.020(6) -0.001(4)
C41 0.146(14) 0.017(4) 0.047(6) -0.012(4) -0.015(7) -0.001(6)
C42 0.072(7) 0.019(4) 0.071(7) -0.019(4) -0.011(6) -0.002(4)
C43 0.071(9) 0.041(7) 0.138(14) -0.024(8) -0.016(10) -0.006(6)
C44 0.142(12) 0.023(5) 0.063(7) -0.023(5) 0.016(8) -0.024(6)
C45 0.090(5) 0.010(3) 0.052(4) -0.014(2) 0.006(4) -0.006(3)
C46 0.085(5) 0.010(3) 0.054(4) -0.014(3) -0.007(4) 0.002(3)
C47 0.074(8) 0.041(6) 0.100(10) -0.027(6) 0.013(8) -0.009(6)
C48 0.149(14) 0.019(5) 0.055(6) -0.010(4) -0.025(8) -0.010(6)
C49 0.148(13) 0.019(5) 0.043(6) -0.010(4) -0.001(7) -0.009(6)
C50 0.090(9) 0.030(5) 0.084(9) -0.020(5) 0.043(8) -0.004(5)
C51 0.071(9) 0.116(13) 0.125(14) -0.044(11) -0.030(9) 0.029(9)
C52 0.135(14) 0.042(6) 0.070(9) -0.014(6) 0.036(9) -0.010(7)
C53 0.108(11) 0.036(6) 0.072(8) -0.023(5) 0.014(8) -0.020(6)
C54 0.101(12) 0.021(5) 0.158(17) -0.022(7) -0.075(12) 0.003(6)
O1 0.077(8) 0.171(14) 0.188(15) 0.005(12) -0.022(9) 0.006(9)
C55 0.058(12) 0.41(6) 0.34(5) 0.17(5) -0.01(2) -0.02(2)
C56 0.052(10) 0.062(11) 0.036(8) -0.010(8) -0.005(7) 0.007(9)
C57 0.093(17) 0.058(13) 0.077(15) -0.008(11) -0.013(13) -0.003(12)
C58 0.050(11) 0.092(17) 0.066(13) 0.016(12) 0.007(10) 0.013(11)
C59 0.062(11) 0.065(12) 0.035(9) -0.016(8) -0.002(8) 0.018(10)
C60 0.051(10) 0.058(11) 0.039(9) -0.029(8) -0.010(7) 0.004(8)
C61 0.042(9) 0.059(11) 0.056(11) 0.012(9) -0.004(8) 0.003(8)
O2 0.185(16) 0.094(10) 0.069(8) -0.043(7) 0.011(9) -0.034(10)
O3 0.185(16) 0.094(10) 0.069(8) -0.043(7) 0.011(9) -0.034(10)
N14 0.130(19) 0.078(14) 0.070(13) -0.025(11) -0.013(13) -0.032(14)
loop_
_geom_bond_atom_site_label_1
_geom_bond_atom_site_label_2
_geom_bond_site_symmetry_1
_geom_bond_site_symmetry_2
I1 Zn1 1_555 1_555
I2 Zn3 1_555 1_555
I3 Zn2 1_555 1_555
I4 Zn1 1_555 1_555
I5 Zn2 1_555 1_555
I6 Zn3 1_555 1_555
Zn1 N1 1_555 1_555
Zn2 N3 1_555 1_555
Zn3 N6 1_555 1_555
N1 C8 1_555 1_555
N2 C2 1_555 1_555
N3 C14 1_555 1_555
N4 C1 1_555 1_555
N5 C4 1_555 1_555
N6 C28 1_555 1_555
N7 C1 1_555 1_555
N8 Zn2 1_555 1_555
N9 C16 1_555 1_555
N10 C16 1_555 1_555
C1 C32 1_555 1_555
N11 C23 1_555 1_555
C2 H1 1_555 1_555
C3 C4 1_555 1_555
C4 N4 1_555 1_555
C5 N2 1_555 1_555
H2 C5 1_555 1_555
C6 N5 1_555 1_555
C7 H3 1_555 1_555
C8 H4 1_555 1_555
C9 C6 1_555 1_555
C10 N8 1_555 1_555
H5 C10 1_555 1_555
C11 N8 1_555 1_555
H6 C11 1_555 1_555
C12 N1 1_555 1_555
H7 C12 1_555 1_555
C13 C18 1_555 1_555
C14 H8 1_555 1_555
C15 C3 1_555 1_555
H9 C15 1_555 1_555
C16 C19 1_555 1_555
C17 H10 1_555 1_555
C18 H11 1_555 1_555
C19 C22 1_555 1_555
C20 N3 1_555 1_555
H12 C20 1_555 1_555
C21 C3 1_555 1_555
H13 C21 1_555 1_555
C22 C2 1_555 1_555
H14 C22 1_555 1_555
C23 N10 1_555 1_555
C24 C5 1_555 1_555
H15 C24 1_555 1_555
C25 N9 1_555 1_555
C26 C9 1_555 1_555
H16 C26 1_555 1_555
C27 C17 1_555 1_555
C28 C18 1_555 1_555
H17 C28 1_555 1_555
C29 C14 1_555 1_555
H18 C29 1_555 1_555
C30 N6 1_555 1_555
H19 C30 1_555 1_555
C31 C13 1_555 1_555
H20 C31 1_555 1_555
C32 C33 1_555 1_555
C33 H21 1_555 1_555
C34 C32 1_555 1_555
H22 C34 1_555 1_555
C35 C33 1_555 1_555
H23 C35 1_555 1_555
C36 C34 1_555 1_555
H24 C36 1_555 1_555
N12 C35 1_555 1_555
Pd1 S1 1_555 1_555
S1 C51 1_555 1_555
S2 Pd1 1_555 1_555
N13 Pd1 1_555 1_555
C37 C39 1_555 1_555
C38 Pd1 1_555 1_555
C39 C38 1_555 1_555
C40 C42 1_555 1_555
C41 C38 1_555 1_555
H25 C41 1_555 1_555
C42 C37 1_555 1_555
C43 H26 1_555 1_555
C44 C37 1_555 1_555
H27 C44 1_555 1_555
C45 C40 1_555 1_555
C46 N13 1_555 1_555
C47 C42 1_555 1_555
H28 C47 1_555 1_555
C48 C40 1_555 1_555
H29 C48 1_555 1_555
C49 C41 1_555 1_555
H30 C49 1_555 1_555
C50 N13 1_555 1_555
H31 C50 1_555 1_555
C51 S2 1_555 1_555
C52 C50 1_555 1_555
H32 C52 1_555 1_555
C53 C45 1_555 1_555
H33 C53 1_555 1_555
C54 C43 1_555 1_555
H34 C54 1_555 1_555
O1 C51 1_555 1_555
C55 O1 1_555 1_555
H35 C55 1_555 1_555
H36 C55 1_555 1_555
H37 C55 1_555 1_555
C56 C57 1_555 1_555
C57 H38 1_555 1_555
C58 C57 1_555 1_555
H39 C58 1_555 1_555
C59 C58 1_555 1_555
H40 C59 1_555 1_555
C60 C59 1_555 1_555
H41 C60 1_555 1_555
C61 C56 1_555 1_555
H42 C61 1_555 1_555
O2 N14 1_555 1_555
O3 N14 1_555 1_555
N14 C56 1_555 1_555
C62 H43 1_555 1_555
C63 C62 1_555 1_555
C64 C63 1_555 1_555
H44 C64 1_555 1_555
C65 C64 1_555 1_555
H45 C65 1_555 1_555
C66 C65 1_555 1_555
H46 C66 1_555 1_555
C67 C62 1_555 1_555
H47 C67 1_555 1_555
N15 C63 1_555 1_555
O4 N15 1_555 1_555
O5 N15 1_555 1_555
O6 N16 1_555 1_555
C68 H48 1_555 1_555
C69 C68 1_555 1_555
H49 C69 1_555 1_555
C70 C69 1_555 1_555
H50 C70 1_555 1_555
C71 C70 1_555 1_555
H51 C71 1_555 1_555
C72 C71 1_555 1_555
C73 C68 1_555 1_555
H52 C73 1_555 1_555
N16 C72 1_555 1_555
O7 N16 1_555 1_555
Zn1A N2 1_555 1_555
Zn3B N12 1_555 1_555
N2A Zn1 1_555 1_555
N12B Zn3 1_555 1_555
N7 C6 1_555 1_555
N11 C25 1_555 1_555
C7 C9 1_555 1_555
C7 C11 1_555 1_555
C8 C21 1_555 1_555
C10 C26 1_555 1_555
C12 C15 1_555 1_555
C13 C25 1_555 1_555
C17 C20 1_555 1_555
C19 C24 1_555 1_555
C23 C27 1_555 1_555
C27 C29 1_555 1_555
C30 C31 1_555 1_555
C36 N12 1_555 1_555
C39 C46 1_555 1_555
C43 C47 1_555 1_555
C44 C49 1_555 1_555
C45 C46 1_555 1_555
C48 C54 1_555 1_555
C52 C53 1_555 1_555
C60 C61 1_555 1_555
C66 C67 1_555 1_555
C72 C73 1_555 1_555

#END
