
#######################################################################
#
#                 Cambridge Crystallographic Data Centre
#                                CCDC 
#
#######################################################################
#
# If this CIF has been generated from an entry in the Cambridge 
# Structural Database, then it will include bibliographic, chemical, 
# crystal, experimental, refinement or atomic coordinate data resulting 
# from the CCDC's data processing and validation procedures.
#
#######################################################################

data_RIYBIM
_chemical_formula_moiety         '(C57 H40 Br1 I6 N15 Pd1 Zn3)n'
_symmetry_cell_setting           orthorhombic
_symmetry_space_group_name_H-M   'P b c a'
_symmetry_Int_Tables_number      61
_space_group_name_Hall           '-P 2ac 2ab'
loop_
_symmetry_equiv_pos_site_id
_symmetry_equiv_pos_as_xyz
1 x,y,z
2 1/2-x,-y,1/2+z
3 1/2+x,1/2-y,-z
4 -x,1/2+y,1/2-z
5 -x,-y,-z
6 1/2+x,y,1/2-z
7 1/2-x,1/2+y,z
8 x,1/2-y,1/2+z
_cell_length_a                   27.6775(9)
_cell_length_b                   13.7981(3)
_cell_length_c                   44.3415(11)
_cell_angle_alpha                90
_cell_angle_beta                 90
_cell_angle_gamma                90
_cell_volume                     16933.9
loop_
_atom_site_label
_atom_site_type_symbol
_atom_site_fract_x
_atom_site_fract_y
_atom_site_fract_z
_atom_site_U_iso_or_equiv
_atom_site_thermal_displace_type
Zn1 Zn -0.02085(6) 0.37000(11) 0.41705(4) 0.0355 Uani
I1 I -0.00019(6) 0.30389(11) 0.46460(4) 0.0890 Uani
Zn2 Zn 0.45366(6) 0.34308(12) 0.41672(4) 0.0351 Uani
Zn3 Zn 0.25208(9) 0.34259(15) 0.67914(4) 0.0617 Uani
I2 I 0.44488(7) 0.17534(11) 0.42345(4) 0.0978 Uani
I3 I 0.51433(6) 0.41798(15) 0.38781(4) 0.1012 Uani
I4 I 0.17150(10) 0.3611(2) 0.66325(5) 0.1714 Uani
I5 I -0.06936(8) 0.28995(15) 0.38150(6) 0.1310 Uani
I6 I 0.28399(13) 0.18561(14) 0.68503(4) 0.1703 Uani
N1 N 0.0426(4) 0.4068(8) 0.3951(3) 0.0320 Uani
N2 N 0.1764(4) 0.4725(7) 0.3201(2) 0.0247 Uani
N3 N 0.4480(4) 0.9988(7) 0.5748(2) 0.0293 Uani
N4 N 0.4501(4) 0.4094(7) 0.4582(2) 0.0240 Uani
N5 N 0.2151(4) 0.4333(7) 0.3659(2) 0.0247 Uani
N6 N 0.3881(4) 0.3879(7) 0.3978(2) 0.0263 Uani
N7 N 0.4201(4) 0.6601(8) 0.5387(2) 0.0273 Uani
C1 C 0.4112(4) 0.5658(8) 0.5377(3) 0.0213 Uani
N8 N 0.2635(4) 0.4707(7) 0.3225(2) 0.0247 Uani
N9 N 0.2952(5) 0.4174(9) 0.6496(3) 0.0500 Uani
N10 N 0.3778(4) 0.6638(7) 0.5848(3) 0.0297 Uani
C2 C 0.2579(5) 0.4447(8) 0.3518(3) 0.0247 Uani
C3 C 0.1767(5) 0.4481(8) 0.3495(3) 0.0247 Uani
C4 C 0.2212(5) 0.4803(8) 0.3079(3) 0.0247 Uani
C5 C 0.3477(5) 0.4387(8) 0.3536(3) 0.0263 Uani
H1 H 0.3495 0.4598 0.3333 0.0320 Uiso
C6 C 0.3038(5) 0.4014(9) 0.3992(3) 0.0263 Uani
H2 H 0.2751 0.3970 0.4109 0.0320 Uiso
C7 C 0.4283(4) 0.5116(10) 0.5097(3) 0.0250 Uani
C8 C 0.4030(4) 0.7022(8) 0.5629(3) 0.0217 Uani
N11 N 0.3877(4) 0.5170(7) 0.5578(2) 0.0257 Uani
C9 C 0.3024(5) 0.4289(9) 0.3683(3) 0.0263 Uani
C10 C 0.4220(5) 0.4090(9) 0.5088(3) 0.0243 Uani
H3 H 0.4096 0.3729 0.5254 0.0290 Uiso
C11 C 0.4542(5) 0.9535(9) 0.5489(3) 0.0343 Uani
H4 H 0.4689 0.9890 0.5330 0.0410 Uiso
C12 C 0.0863(5) 0.4051(10) 0.4094(3) 0.0293 Uani
H5 H 0.0863 0.3945 0.4305 0.0350 Uiso
C13 C 0.1276(5) 0.4167(9) 0.3963(3) 0.0287 Uani
H6 H 0.1565 0.4122 0.4078 0.0340 Uiso
C14 C 0.4351(5) 0.3672(9) 0.4823(3) 0.0277 Uani
H7 H 0.4330 0.2986 0.4815 0.0340 Uiso
C15 C 0.4569(4) 0.5058(9) 0.4596(3) 0.0273 Uani
H8 H 0.4703 0.5384 0.4426 0.0330 Uiso
C16 C 0.3884(5) 0.4175(8) 0.3692(3) 0.0263 Uani
H9 H 0.4187 0.4239 0.3593 0.0320 Uiso
C17 C 0.1301(5) 0.4363(9) 0.3645(3) 0.0280 Uani
C18 C 0.3462(5) 0.5165(9) 0.6055(3) 0.0317 Uani
C19 C 0.3487(5) 0.3813(8) 0.4115(3) 0.0263 Uani
H10 H 0.3496 0.3607 0.4319 0.0320 Uiso
C20 C 0.4406(5) 0.8550(10) 0.5427(3) 0.0383 Uani
H11 H 0.4464 0.8245 0.5239 0.0460 Uiso
C21 C 0.3724(4) 0.5679(9) 0.5815(3) 0.0267 Uani
C22 C 0.3192(7) 0.5655(12) 0.6271(4) 0.0690 Uani
H12 H 0.3164 0.6340 0.6265 0.0830 Uiso
C23 C 0.3263(6) 0.3711(12) 0.6308(3) 0.0460 Uani
H13 H 0.3321 0.3037 0.6332 0.0560 Uiso
C24 C 0.4180(5) 0.8073(9) 0.5671(3) 0.0270 Uani
C25 C 0.4447(5) 0.5587(9) 0.4853(3) 0.0243 Uani
H14 H 0.4480 0.6272 0.4855 0.0290 Uiso
C26 C 0.3483(7) 0.4192(11) 0.6092(3) 0.0500 Uani
H15 H 0.3671 0.3831 0.5952 0.0600 Uiso
C27 C 0.4083(4) 0.8557(10) 0.5933(3) 0.0307 Uani
H16 H 0.3905 0.8250 0.6090 0.0370 Uiso
C28 C 0.4253(5) 0.9533(9) 0.5969(3) 0.0343 Uani
H17 H 0.4201 0.9858 0.6155 0.0410 Uiso
C29 C 0.2959(8) 0.5115(12) 0.6498(5) 0.0790 Uani
H18 H 0.2803 0.5450 0.6658 0.0950 Uiso
C30 C 0.2251(6) 0.5149(9) 0.2759(3) 0.0367 Uani
C31 C 0.2707(6) 0.5147(9) 0.2621(3) 0.0367 Uani
H19 H 0.2982 0.4920 0.2728 0.0440 Uiso
C32 C 0.0424(6) 0.4255(9) 0.3652(4) 0.0440 Uani
H20 H 0.0125 0.4289 0.3548 0.0530 Uiso
C33 C 0.1858(6) 0.5443(9) 0.2596(3) 0.0367 Uani
H21 H 0.1543 0.5415 0.2680 0.0440 Uiso
C34 C 0.0853(6) 0.4398(11) 0.3495(4) 0.0437 Uani
H22 H 0.0843 0.4520 0.3284 0.0520 Uiso
C35 C 0.1930(6) 0.5783(9) 0.2306(3) 0.0367 Uani
H23 H 0.1662 0.6009 0.2192 0.0440 Uiso
C36 C 0.2750(6) 0.5467(9) 0.2339(3) 0.0367 Uani
H24 H 0.3058 0.5459 0.2245 0.0440 Uiso
N12 N 0.2367(5) 0.5801(8) 0.2183(2) 0.0367 Uani
Zn1B Zn 0.47915(6) 1.13000(11) 0.58295(4) 0.0355 Uani
Zn3A Zn 0.24792(9) 0.65741(15) 0.17914(4) 0.0617 Uani
N3B N -0.0520(4) 0.5012(7) 0.4252(2) 0.0293 Uani
N12A N 0.2633(5) 0.4199(8) 0.7183(2) 0.0367 Uani
Pd1 Pd 0.15970(9) 0.72835(13) 0.31373(5) 0.0762 Uani
Br1 Br 0.1252(2) 0.7859(4) 0.26707(10) 0.1717 Uani
N13 N 0.1893(8) 0.6896(12) 0.3523(4) 0.0680 Uani
C37 C 0.1977(10) 0.6459(14) 0.4039(6) 0.0680 Uani
H25 H 0.1824 0.6288 0.4223 0.0820 Uiso
C38 C 0.3102(6) 0.7198(10) 0.3213(3) 0.0680 Uani
C39 C 0.2602(6) 0.7184(10) 0.3235(3) 0.0680 Uani
C40 C 0.2383(5) 0.6962(10) 0.3509(4) 0.0680 Uani
C41 C 0.2666(7) 0.6754(10) 0.3760(3) 0.0680 Uani
C42 C 0.3166(6) 0.6768(11) 0.3737(3) 0.0680 Uani
C43 C 0.3385(5) 0.6990(11) 0.3464(4) 0.0680 Uani
C44 C 0.2302(10) 0.7415(14) 0.2990(6) 0.0680 Uani
C45 C 0.1694(11) 0.6652(14) 0.3794(6) 0.0680 Uani
H26 H 0.1352 0.6615 0.3812 0.0820 Uiso
C46 C 0.2534(11) 0.7666(14) 0.2737(6) 0.0680 Uani
H27 H 0.2339 0.7872 0.2573 0.0820 Uiso
C47 C 0.3959(10) 0.6926(14) 0.3446(6) 0.0680 Uani
H28 H 0.4106 0.7064 0.3257 0.0820 Uiso
C48 C 0.4227(11) 0.6712(14) 0.3657(6) 0.0680 Uani
H29 H 0.4564 0.6631 0.3624 0.0820 Uiso
C49 C 0.2461(10) 0.6499(14) 0.4033(6) 0.0680 Uani
H30 H 0.2651 0.6360 0.4206 0.0820 Uiso
C50 C 0.3303(10) 0.7459(14) 0.2894(6) 0.0680 Uani
H31 H 0.3639 0.7469 0.2851 0.0820 Uiso
C51 C 0.2983(10) 0.7660(14) 0.2694(6) 0.0680 Uani
H32 H 0.3095 0.7816 0.2498 0.0820 Uiso
C52 C 0.3480(10) 0.6590(14) 0.3969(6) 0.0680 Uani
H33 H 0.3349 0.6456 0.4163 0.0820 Uiso
N14 N 0.0901(9) 0.7079(12) 0.3308(4) 0.0680 Uani
C53 C 0.4039(10) 0.6593(14) 0.3934(6) 0.0680 Uani
H34 H 0.4243 0.6514 0.4104 0.0820 Uiso
C54 C 0.0546(11) 0.6937(15) 0.3385(6) 0.0680 Uani
C55 C -0.0006(9) 0.6818(14) 0.3437(6) 0.0680 Uani
H35 H -0.0182 0.7290 0.3313 0.1020 Uiso
H36 H -0.0081 0.6930 0.3650 0.1020 Uiso
H37 H -0.0105 0.6161 0.3380 0.1020 Uiso
N15 N 0.3172(6) 0.5465(15) 0.4686(4) 0.0870 Uani
C56 C 0.3029(8) 0.4967(17) 0.4857(5) 0.0870 Uani
C57 C 0.2857(7) 0.4368(16) 0.5113(5) 0.0870 Uani
H38 H 0.2637 0.3867 0.5038 0.1310 Uiso
H39 H 0.2687 0.4781 0.5258 0.1310 Uiso
H40 H 0.3134 0.4061 0.5212 0.1310 Uiso
loop_
_atom_site_aniso_label
_atom_site_aniso_U_11
_atom_site_aniso_U_22
_atom_site_aniso_U_33
_atom_site_aniso_U_23
_atom_site_aniso_U_13
_atom_site_aniso_U_12
Zn1 0.0376(10) 0.0169(8) 0.0520(11) 0.0049(7) -0.0001(8) -0.0020(7)
I1 0.0995(12) 0.0643(9) 0.1032(12) 0.0338(8) 0.0102(9) 0.0059(8)
Zn2 0.0380(10) 0.0347(9) 0.0326(9) -0.0053(7) -0.0056(8) 0.0062(7)
Zn3 0.1175(19) 0.0503(12) 0.0172(8) -0.0084(8) 0.0164(10) -0.0492(12)
I2 0.1186(14) 0.0632(10) 0.1116(13) -0.0144(9) -0.0261(10) 0.0168(9)
I3 0.0821(11) 0.1407(17) 0.0808(11) 0.0122(10) 0.0035(8) 0.0015(10)
I4 0.174(2) 0.258(3) 0.0821(14) -0.0233(16) -0.0136(14) -0.114(2)
I5 0.1227(16) 0.0923(14) 0.178(2) -0.0371(13) -0.0320(15) -0.0294(12)
I6 0.371(4) 0.0605(11) 0.0793(13) -0.0049(9) 0.0237(18) -0.0550(16)
N1 0.036(7) 0.023(6) 0.037(7) -0.006(5) 0.012(6) -0.008(5)
N2 0.047(3) 0.006(2) 0.021(2) -0.0042(18) -0.002(2) -0.001(2)
N3 0.035(7) 0.018(6) 0.035(6) 0.005(5) 0.002(5) 0.009(5)
N4 0.026(6) 0.018(5) 0.028(6) -0.005(5) 0.001(5) -0.004(5)
N5 0.047(3) 0.006(2) 0.021(2) -0.0042(18) -0.002(2) -0.001(2)
N6 0.039(3) 0.013(2) 0.027(3) -0.007(2) 0.004(2) 0.005(2)
N7 0.032(6) 0.028(6) 0.022(6) 0.007(5) -0.001(5) -0.015(5)
C1 0.027(7) 0.020(7) 0.017(6) -0.006(5) -0.007(6) 0.000(5)
N8 0.047(3) 0.006(2) 0.021(2) -0.0042(18) -0.002(2) -0.001(2)
N9 0.087(11) 0.039(8) 0.024(6) 0.000(6) 0.009(7) -0.006(7)
N10 0.035(7) 0.012(5) 0.042(7) -0.007(5) 0.007(6) 0.006(5)
C2 0.047(3) 0.006(2) 0.021(2) -0.0042(18) -0.002(2) -0.001(2)
C3 0.047(3) 0.006(2) 0.021(2) -0.0042(18) -0.002(2) -0.001(2)
C4 0.047(3) 0.006(2) 0.021(2) -0.0042(18) -0.002(2) -0.001(2)
C5 0.039(3) 0.013(2) 0.027(3) -0.007(2) 0.004(2) 0.005(2)
C6 0.039(3) 0.013(2) 0.027(3) -0.007(2) 0.004(2) 0.005(2)
C7 0.010(6) 0.041(8) 0.024(7) -0.005(6) -0.006(5) -0.003(6)
C8 0.028(7) 0.010(6) 0.027(7) 0.005(5) 0.011(6) 0.004(5)
N11 0.022(6) 0.018(6) 0.037(7) 0.001(5) 0.010(5) -0.002(5)
C9 0.039(3) 0.013(2) 0.027(3) -0.007(2) 0.004(2) 0.005(2)
C10 0.034(5) 0.016(4) 0.023(5) 0.009(4) -0.003(4) 0.001(4)
C11 0.041(6) 0.022(5) 0.040(6) 0.011(4) 0.005(5) -0.005(5)
C12 0.035(9) 0.033(8) 0.020(7) 0.001(6) 0.001(6) 0.007(6)
C13 0.023(7) 0.030(8) 0.033(8) -0.001(6) 0.002(6) 0.002(6)
C14 0.043(8) 0.010(6) 0.030(8) 0.003(5) -0.011(6) -0.006(6)
C15 0.032(8) 0.030(8) 0.020(7) 0.013(6) -0.007(6) 0.006(6)
C16 0.039(3) 0.013(2) 0.027(3) -0.007(2) 0.004(2) 0.005(2)
C17 0.036(8) 0.022(7) 0.026(7) 0.005(5) -0.004(6) -0.004(6)
C18 0.043(9) 0.025(7) 0.027(8) -0.003(6) 0.012(6) 0.001(6)
C19 0.039(3) 0.013(2) 0.027(3) -0.007(2) 0.004(2) 0.005(2)
C20 0.057(10) 0.022(7) 0.036(8) 0.008(6) 0.006(7) -0.001(7)
C21 0.022(7) 0.020(7) 0.038(8) 0.004(6) 0.001(6) -0.009(5)
C22 0.112(17) 0.022(8) 0.073(13) 0.009(8) 0.017(12) -0.030(10)
C23 0.058(11) 0.039(9) 0.041(9) 0.001(7) 0.020(8) 0.011(8)
C24 0.026(7) 0.015(6) 0.040(8) -0.002(6) 0.013(6) -0.007(6)
C25 0.034(5) 0.016(4) 0.023(5) 0.009(4) -0.003(4) 0.001(4)
C26 0.086(13) 0.026(8) 0.038(9) 0.010(7) 0.022(9) -0.005(8)
C27 0.019(7) 0.035(8) 0.038(8) 0.007(6) 0.010(6) -0.001(6)
C28 0.041(6) 0.022(5) 0.040(6) 0.011(4) 0.005(5) -0.005(5)
C29 0.134(19) 0.021(9) 0.082(14) 0.020(9) 0.058(13) 0.022(10)
C30 0.070(4) 0.020(3) 0.020(3) -0.006(2) -0.002(3) -0.015(3)
C31 0.070(4) 0.020(3) 0.020(3) -0.006(2) -0.002(3) -0.015(3)
C32 0.062(11) 0.018(7) 0.052(10) 0.006(7) -0.015(9) -0.002(7)
C33 0.070(4) 0.020(3) 0.020(3) -0.006(2) -0.002(3) -0.015(3)
C34 0.055(11) 0.037(9) 0.039(9) -0.004(7) -0.018(8) 0.002(8)
C35 0.070(4) 0.020(3) 0.020(3) -0.006(2) -0.002(3) -0.015(3)
C36 0.070(4) 0.020(3) 0.020(3) -0.006(2) -0.002(3) -0.015(3)
N12 0.070(4) 0.020(3) 0.020(3) -0.006(2) -0.002(3) -0.015(3)
Zn1B 0.0376 0.0169 0.052 0.0049 0.0001 0.002
Zn3A 0.1175 0.0503 0.0172 0.0084 -0.0164 -0.0492
N3B 0.035 0.018 0.035 0.005 -0.002 -0.009
N12A 0.07 0.02 0.02 0.006 0.002 -0.015
Pd1 0.1226(19) 0.0383(10) 0.0676(13) -0.0162(9) -0.0168(12) 0.0103(10)
Br1 0.212(5) 0.193(5) 0.110(3) 0.033(3) -0.023(3) 0.068(4)
N13 0.113(4) 0.0220(16) 0.069(3) -0.0115(18) -0.013(3) -0.004(2)
C37 0.113(4) 0.0220(16) 0.069(3) -0.0115(18) -0.013(3) -0.004(2)
C38 0.113(4) 0.0220(16) 0.069(3) -0.0115(18) -0.013(3) -0.004(2)
C39 0.113(4) 0.0220(16) 0.069(3) -0.0115(18) -0.013(3) -0.004(2)
C40 0.113(4) 0.0220(16) 0.069(3) -0.0115(18) -0.013(3) -0.004(2)
C41 0.113(4) 0.0220(16) 0.069(3) -0.0115(18) -0.013(3) -0.004(2)
C42 0.113(4) 0.0220(16) 0.069(3) -0.0115(18) -0.013(3) -0.004(2)
C43 0.113(4) 0.0220(16) 0.069(3) -0.0115(18) -0.013(3) -0.004(2)
C44 0.113(4) 0.0220(16) 0.069(3) -0.0115(18) -0.013(3) -0.004(2)
C45 0.113(4) 0.0220(16) 0.069(3) -0.0115(18) -0.013(3) -0.004(2)
C46 0.113(4) 0.0220(16) 0.069(3) -0.0115(18) -0.013(3) -0.004(2)
C47 0.113(4) 0.0220(16) 0.069(3) -0.0115(18) -0.013(3) -0.004(2)
C48 0.113(4) 0.0220(16) 0.069(3) -0.0115(18) -0.013(3) -0.004(2)
C49 0.113(4) 0.0220(16) 0.069(3) -0.0115(18) -0.013(3) -0.004(2)
C50 0.113(4) 0.0220(16) 0.069(3) -0.0115(18) -0.013(3) -0.004(2)
C51 0.113(4) 0.0220(16) 0.069(3) -0.0115(18) -0.013(3) -0.004(2)
C52 0.113(4) 0.0220(16) 0.069(3) -0.0115(18) -0.013(3) -0.004(2)
N14 0.113(4) 0.0220(16) 0.069(3) -0.0115(18) -0.013(3) -0.004(2)
C53 0.113(4) 0.0220(16) 0.069(3) -0.0115(18) -0.013(3) -0.004(2)
C54 0.113(4) 0.0220(16) 0.069(3) -0.0115(18) -0.013(3) -0.004(2)
C55 0.113(4) 0.0220(16) 0.069(3) -0.0115(18) -0.013(3) -0.004(2)
N15 0.056(8) 0.113(13) 0.092(11) -0.019(8) -0.004(7) 0.012(7)
C56 0.056(8) 0.113(13) 0.092(11) -0.019(8) -0.004(7) 0.012(7)
C57 0.056(8) 0.113(13) 0.092(11) -0.019(8) -0.004(7) 0.012(7)
loop_
_geom_bond_atom_site_label_1
_geom_bond_atom_site_label_2
_geom_bond_site_symmetry_1
_geom_bond_site_symmetry_2
Zn1 I1 1_555 1_555
Zn2 I2 1_555 1_555
Zn3 I4 1_555 1_555
I3 Zn2 1_555 1_555
I5 Zn1 1_555 1_555
I6 Zn3 1_555 1_555
N1 Zn1 1_555 1_555
N2 C3 1_555 1_555
N3 C11 1_555 1_555
N4 Zn2 1_555 1_555
N5 C2 1_555 1_555
N6 Zn2 1_555 1_555
N7 C1 1_555 1_555
C1 C7 1_555 1_555
N8 C2 1_555 1_555
N9 Zn3 1_555 1_555
N10 C8 1_555 1_555
C2 C9 1_555 1_555
C3 N5 1_555 1_555
C4 N2 1_555 1_555
C5 H1 1_555 1_555
C6 H2 1_555 1_555
C7 C10 1_555 1_555
C8 N7 1_555 1_555
N11 C1 1_555 1_555
C9 C5 1_555 1_555
C10 H3 1_555 1_555
C11 H4 1_555 1_555
C12 N1 1_555 1_555
H5 C12 1_555 1_555
C13 C12 1_555 1_555
H6 C13 1_555 1_555
C14 N4 1_555 1_555
H7 C14 1_555 1_555
C15 N4 1_555 1_555
H8 C15 1_555 1_555
C16 N6 1_555 1_555
H9 C16 1_555 1_555
C17 C3 1_555 1_555
C18 C21 1_555 1_555
C19 N6 1_555 1_555
H10 C19 1_555 1_555
C20 C11 1_555 1_555
H11 C20 1_555 1_555
C21 N10 1_555 1_555
C22 C18 1_555 1_555
H12 C22 1_555 1_555
C23 N9 1_555 1_555
H13 C23 1_555 1_555
C24 C8 1_555 1_555
C25 C7 1_555 1_555
H14 C25 1_555 1_555
C26 C18 1_555 1_555
H15 C26 1_555 1_555
C27 C24 1_555 1_555
H16 C27 1_555 1_555
C28 N3 1_555 1_555
H17 C28 1_555 1_555
C29 N9 1_555 1_555
H18 C29 1_555 1_555
C30 C4 1_555 1_555
C31 C30 1_555 1_555
H19 C31 1_555 1_555
C32 N1 1_555 1_555
H20 C32 1_555 1_555
C33 C30 1_555 1_555
H21 C33 1_555 1_555
C34 C17 1_555 1_555
H22 C34 1_555 1_555
C35 C33 1_555 1_555
H23 C35 1_555 1_555
C36 C31 1_555 1_555
H24 C36 1_555 1_555
N12 C35 1_555 1_555
Pd1 Br1 1_555 1_555
N13 Pd1 1_555 1_555
C37 H25 1_555 1_555
C38 C39 1_555 1_555
C39 C40 1_555 1_555
C40 N13 1_555 1_555
C41 C40 1_555 1_555
C42 C41 1_555 1_555
C43 C38 1_555 1_555
C44 Pd1 1_555 1_555
C45 N13 1_555 1_555
H26 C45 1_555 1_555
C46 C44 1_555 1_555
H27 C46 1_555 1_555
C47 C43 1_555 1_555
H28 C47 1_555 1_555
C48 C47 1_555 1_555
H29 C48 1_555 1_555
C49 C37 1_555 1_555
H30 C49 1_555 1_555
C50 C38 1_555 1_555
H31 C50 1_555 1_555
C51 C46 1_555 1_555
H32 C51 1_555 1_555
C52 C42 1_555 1_555
H33 C52 1_555 1_555
N14 Pd1 1_555 1_555
C53 C48 1_555 1_555
H34 C53 1_555 1_555
C54 N14 1_555 1_555
C55 C54 1_555 1_555
H35 C55 1_555 1_555
H36 C55 1_555 1_555
H37 C55 1_555 1_555
N15 C56 1_555 1_555
C56 C57 1_555 1_555
C57 H38 1_555 1_555
H39 C57 1_555 1_555
H40 C57 1_555 1_555
Zn1B N3 1_555 1_555
Zn3A N12 1_555 1_555
N3B Zn1 1_555 1_555
N12A Zn3 1_555 1_555
N8 C4 1_555 1_555
C5 C16 1_555 1_555
C6 C9 1_555 1_555
C6 C19 1_555 1_555
N11 C21 1_555 1_555
C10 C14 1_555 1_555
C13 C17 1_555 1_555
C15 C25 1_555 1_555
C20 C24 1_555 1_555
C22 C29 1_555 1_555
C23 C26 1_555 1_555
C27 C28 1_555 1_555
C32 C34 1_555 1_555
C36 N12 1_555 1_555
C37 C45 1_555 1_555
C39 C44 1_555 1_555
C41 C49 1_555 1_555
C42 C43 1_555 1_555
C50 C51 1_555 1_555
C52 C53 1_555 1_555

#END
