
#######################################################################
#
#                 Cambridge Crystallographic Data Centre
#                                CCDC 
#
#######################################################################
#
# If this CIF has been generated from an entry in the Cambridge 
# Structural Database, then it will include bibliographic, chemical, 
# crystal, experimental, refinement or atomic coordinate data resulting 
# from the CCDC's data processing and validation procedures.
#
#######################################################################

data_MEJQOJ
_chemical_formula_moiety         '(C16 H17 N7 O3 Zn1)n'
_symmetry_cell_setting           orthorhombic
_symmetry_space_group_name_H-M   'P n a 21'
_symmetry_Int_Tables_number      33
_space_group_name_Hall           'P 2c -2n'
loop_
_symmetry_equiv_pos_site_id
_symmetry_equiv_pos_as_xyz
1 x,y,z
2 -x,-y,1/2+z
3 1/2+x,1/2-y,z
4 1/2-x,1/2+y,1/2+z
_cell_length_a                   18.4474(7)
_cell_length_b                   10.6981(6)
_cell_length_c                   8.9454(4)
_cell_angle_alpha                90
_cell_angle_beta                 90
_cell_angle_gamma                90
_cell_volume                     1765.39
loop_
_atom_site_label
_atom_site_type_symbol
_atom_site_fract_x
_atom_site_fract_y
_atom_site_fract_z
_atom_site_U_iso_or_equiv
_atom_site_thermal_displace_type
Zn1 Zn 0.39753(2) -0.01460(5) -0.13167(10) 0.0229 Uani
C1 C 0.4990(4) -0.0198(6) 0.1255(10) 0.0280 Uani
H1 H 0.4720 0.0420 0.1730 0.0340 Uiso
N1 N 0.4784(2) -0.0708(5) -0.0061(5) 0.0280 Uani
N2 N 0.5343(2) -0.2308(5) -0.1607(5) 0.0317 Uani
C2 C 0.5921(3) -0.3041(6) -0.1558(8) 0.0370 Uani
H2 H 0.5969 -0.3586 -0.2362 0.0450 Uiso
N3 N 0.5606(2) -0.0643(5) 0.1824(5) 0.0247 Uani
C3 C 0.6410(3) -0.2380(6) 0.0669(7) 0.0293 Uani
N4 N 0.6450(2) -0.3121(5) -0.0527(6) 0.0373 Uani
C4 C 0.5816(3) -0.1536(6) 0.0780(6) 0.0253 Uani
C5 C 0.5316(2) -0.1564(5) -0.0357(7) 0.0257 Uani
N5 N 0.6936(2) -0.2476(6) 0.1699(6) 0.0437 Uani
H3 H 0.7283 -0.3002 0.1575 0.0530 Uiso
H4 H 0.6926 -0.2011 0.2483 0.0530 Uiso
O1 O 0.33892(18) 0.1164(4) -0.0386(5) 0.0340 Uani
N6 N 0.1713(2) 0.3547(5) 0.2885(6) 0.0287 Uani
O2 O 0.3081(2) -0.0274(4) 0.1288(5) 0.0457 Uani
C6 C 0.3052(3) 0.0777(6) 0.0793(7) 0.0280 Uani
C7 C 0.2619(3) 0.3001(6) 0.1114(7) 0.0357 Uani
H5 H 0.2938 0.3256 0.0368 0.0430 Uiso
C8 C 0.2594(3) 0.1778(6) 0.1525(6) 0.0267 Uani
C9 C 0.2176(3) 0.3861(6) 0.1795(7) 0.0367 Uani
H6 H 0.2198 0.4690 0.1488 0.0440 Uiso
C10 C 0.1705(3) 0.2359(6) 0.3342(6) 0.0347 Uani
H7 H 0.1397 0.2139 0.4123 0.0410 Uiso
C11 C 0.2129(3) 0.1449(6) 0.2710(7) 0.0357 Uani
H8 H 0.2111 0.0630 0.3058 0.0430 Uiso
Zn1A Zn 0.60247(2) 0.01460(5) 0.36833(10) 0.0229 Uani
Zn1C Zn 0.10247(2) 0.48540(5) 0.36833(10) 0.0229 Uani
N3A N 0.4394(2) 0.0643(5) -0.3176(5) 0.0247 Uani
N6C N 0.3287(2) -0.1453(5) -0.2115(6) 0.0287 Uani
N7 N 0.0125(3) 0.1136(6) -0.2028(8) 0.0621 Uiso
O3 O 0.0919(3) 0.0657(7) -0.3891(8) 0.0960 Uiso
C12 C 0.1242(5) 0.2068(8) -0.1917(10) 0.0770 Uiso
H9 H 0.1402 0.2755 -0.2544 0.0930 Uiso
H10 H 0.1664 0.1610 -0.1574 0.0930 Uiso
C13 C 0.0803(5) 0.2548(10) -0.0602(14) 0.1020 Uiso
H11 H 0.0749 0.3449 -0.0652 0.1230 Uiso
H12 H 0.1034 0.2329 0.0336 0.1230 Uiso
C14 C 0.0745(4) 0.1241(8) -0.2740(9) 0.0650 Uiso
C15 C 0.0068(4) 0.1899(9) -0.0753(10) 0.0750 Uiso
H13 H -0.0034 0.1399 0.0127 0.0890 Uiso
H14 H -0.0316 0.2509 -0.0877 0.0890 Uiso
C16 C -0.0445(5) 0.0321(9) -0.2491(12) 0.0900 Uiso
H15 H -0.0855 0.0427 -0.1842 0.1350 Uiso
H16 H -0.0281 -0.0529 -0.2443 0.1350 Uiso
H17 H -0.0582 0.0519 -0.3499 0.1350 Uiso
loop_
_atom_site_aniso_label
_atom_site_aniso_U_11
_atom_site_aniso_U_22
_atom_site_aniso_U_33
_atom_site_aniso_U_23
_atom_site_aniso_U_13
_atom_site_aniso_U_12
Zn1 0.0189(2) 0.0290(3) 0.0208(3) -0.0034(5) -0.0004(4) 0.0011(2)
C1 0.024 0.035 0.025 0 -0.001 0.007
N1 0.024 0.035 0.025 -0.004 -0.001 0.005
N2 0.034 0.033 0.028 -0.008 -0.003 -0.002
C2 0.046 0.038 0.027 -0.01 0.002 0.003
N3 0.02 0.033 0.021 -0.001 0.0001 0
C3 0.022 0.034 0.032 0.003 0.002 0.004
N4 0.036 0.037 0.039 -0.005 0 0.009
C4 0.024 0.028 0.024 0 0.005 -0.003
C5 0.022 0.026 0.029 0 0.003 -0.003
N5 0.034 0.054 0.043 -0.009 -0.008 0.02
O1 0.0341(18) 0.031(3) 0.037(2) 0.000(2) 0.0099(19) 0.0107(19)
N6 0.026(2) 0.033(3) 0.027(3) -0.001(3) 0.005(2) -0.001(2)
O2 0.052(3) 0.035(3) 0.050(3) 0.005(3) 0.015(2) 0.011(2)
C6 0.023(3) 0.033(4) 0.028(3) -0.006(3) -0.003(2) -0.002(3)
C7 0.030(3) 0.039(4) 0.038(4) 0.008(3) 0.018(3) 0.003(3)
C8 0.025(3) 0.032(4) 0.023(3) 0.001(3) 0.005(2) 0.002(3)
C9 0.039(3) 0.034(4) 0.037(4) 0.008(3) 0.008(3) 0.007(3)
C10 0.033(3) 0.037(4) 0.034(4) -0.001(3) 0.016(3) -0.001(2)
C11 0.039(3) 0.030(4) 0.038(4) 0.003(3) 0.006(3) 0.005(3)
Zn1A 0.0189 0.029 0.0208 0.0034 0.0004 0.0011
Zn1C 0.0189 0.029 0.0208 -0.0034 0.0004 -0.0011
N3A 0.020(2) 0.033(3) 0.021(2) 0.001(2) -0.0001(19) 0.000(2)
N6C 0.026 0.033 0.027 -0.001 -0.005 0.001
loop_
_geom_bond_atom_site_label_1
_geom_bond_atom_site_label_2
_geom_bond_site_symmetry_1
_geom_bond_site_symmetry_2
Zn1 N1 1_555 1_555
C1 H1 1_555 1_555
N1 C1 1_555 1_555
N2 C2 1_555 1_555
C2 H2 1_555 1_555
N3 C1 1_555 1_555
C3 N4 1_555 1_555
N4 C2 1_555 1_555
C4 N3 1_555 1_555
C5 N1 1_555 1_555
N5 C3 1_555 1_555
H3 N5 1_555 1_555
H4 N5 1_555 1_555
O1 Zn1 1_555 1_555
N6 C9 1_555 1_555
O2 C6 1_555 1_555
C6 O1 1_555 1_555
C7 H5 1_555 1_555
C8 C6 1_555 1_555
C9 C7 1_555 1_555
H6 C9 1_555 1_555
C10 N6 1_555 1_555
H7 C10 1_555 1_555
C11 C8 1_555 1_555
H8 C11 1_555 1_555
N7 C14 1_555 1_555
O3 C14 1_555 1_555
C12 H9 1_555 1_555
H10 C12 1_555 1_555
C13 C12 1_555 1_555
H11 C13 1_555 1_555
H12 C13 1_555 1_555
C14 C12 1_555 1_555
C15 N7 1_555 1_555
H13 C15 1_555 1_555
H14 C15 1_555 1_555
C16 N7 1_555 1_555
H15 C16 1_555 1_555
H16 C16 1_555 1_555
H17 C16 1_555 1_555
Zn1A N3 1_555 1_555
Zn1C N6 1_555 1_555
N3A Zn1 1_555 1_555
N6C Zn1 1_555 1_555
N2 C5 1_555 1_555
C3 C4 1_555 1_555
C4 C5 1_555 1_555
C7 C8 1_555 1_555
C10 C11 1_555 1_555
C13 C15 1_555 1_555

#END
