
#######################################################################
#
#                 Cambridge Crystallographic Data Centre
#                                CCDC 
#
#######################################################################
#
# If this CIF has been generated from an entry in the Cambridge 
# Structural Database, then it will include bibliographic, chemical, 
# crystal, experimental, refinement or atomic coordinate data resulting 
# from the CCDC's data processing and validation procedures.
#
#######################################################################

data_MEJQEZ
_chemical_formula_moiety         '(C14 H14 N8 O3 Zn1)n'
_symmetry_cell_setting           orthorhombic
_symmetry_space_group_name_H-M   'P n a 21'
_symmetry_Int_Tables_number      33
_space_group_name_Hall           'P 2c -2n'
loop_
_symmetry_equiv_pos_site_id
_symmetry_equiv_pos_as_xyz
1 x,y,z
2 -x,-y,1/2+z
3 1/2+x,1/2-y,z
4 1/2-x,1/2+y,1/2+z
_cell_length_a                   18.6244(4)
_cell_length_b                   10.2696(3)
_cell_length_c                   8.7992(2)
_cell_angle_alpha                90
_cell_angle_beta                 90
_cell_angle_gamma                90
_cell_volume                     1682.98
loop_
_atom_site_label
_atom_site_type_symbol
_atom_site_fract_x
_atom_site_fract_y
_atom_site_fract_z
_atom_site_U_iso_or_equiv
_atom_site_thermal_displace_type
Zn1 Zn 0.400826(16) -0.02643(3) -0.13311(6) 0.0187 Uani
C1 C 0.5005(2) -0.0264(4) 0.1219(5) 0.0236 Uani
H1 H 0.4720 0.0371 0.1672 0.0280 Uiso
N1 N 0.48295(14) -0.0818(3) -0.0102(3) 0.0226 Uani
N2 N 0.54425(14) -0.2453(3) -0.1607(4) 0.0290 Uani
C2 C 0.60393(18) -0.3166(4) -0.1532(6) 0.0351 Uani
H2 H 0.6121 -0.3710 -0.2359 0.0420 Uiso
N3 N 0.56143(14) -0.0680(3) 0.1845(3) 0.0229 Uani
C3 C 0.64678(17) -0.2424(4) 0.0766(4) 0.0266 Uani
N4 N 0.65372(15) -0.3213(3) -0.0444(4) 0.0338 Uani
C4 C 0.58632(17) -0.1601(4) 0.0810(4) 0.0205 Uani
C5 C 0.53781(16) -0.1674(3) -0.0380(4) 0.0218 Uani
N5 N 0.69760(16) -0.2450(3) 0.1841(4) 0.0374 Uani
H3 H 0.7338 -0.2965 0.1749 0.0450 Uiso
H4 H 0.6941 -0.1952 0.2623 0.0450 Uiso
O1 O 0.33923(12) 0.0981(3) -0.0327(3) 0.0330 Uani
N6 N 0.16297(14) 0.3335(3) 0.2806(3) 0.0253 Uani
O2 O 0.31494(14) -0.0514(3) 0.1430(3) 0.0368 Uani
C6 C 0.30689(19) 0.0558(4) 0.0866(4) 0.0266 Uani
C7 C 0.25906(19) 0.2829(4) 0.1139(4) 0.0295 Uani
H5 H 0.2924 0.3109 0.0424 0.0350 Uiso
C8 C 0.25562(18) 0.1530(4) 0.1552(4) 0.0248 Uani
C9 C 0.21234(19) 0.3700(4) 0.1801(5) 0.0317 Uani
H6 H 0.2154 0.4575 0.1536 0.0380 Uiso
C10 C 0.15930(19) 0.2073(4) 0.3218(4) 0.0344 Uani
H7 H 0.1251 0.1815 0.3928 0.0410 Uiso
C11 C 0.2049(2) 0.1161(4) 0.2615(5) 0.0337 Uani
H8 H 0.2017 0.0295 0.2919 0.0400 Uiso
Zn1A Zn 0.599174(16) 0.02643(3) 0.36689(6) 0.0187 Uani
Zn1C Zn 0.099174(16) 0.47357(3) 0.36689(6) 0.0187 Uani
N3A N 0.43857(14) 0.0680(3) -0.3155(3) 0.0229 Uani
N6C N 0.33703(14) -0.1665(3) -0.2194(3) 0.0253 Uani
O3 O 0.0855(2) -0.0477(4) 0.4800(5) 0.0787 Uani
N7 N 0.0027(3) -0.0968(5) 0.2942(5) 0.0660 Uani
H9 H 0.0234 -0.0587 0.2191 0.0790 Uiso
N8 N -0.0146(2) -0.1735(5) 0.5204(5) 0.0713 Uani
H10 H -0.0098 -0.1835 0.6169 0.0860 Uiso
C12 C -0.0712(3) -0.2321(6) 0.4348(6) 0.0653 Uani
H11 H -0.1176 -0.2165 0.4815 0.0780 Uiso
H12 H -0.0639 -0.3252 0.4241 0.0780 Uiso
C13 C 0.0307(3) -0.1006(6) 0.4354(6) 0.0537 Uani
C14 C -0.0649(3) -0.1625(6) 0.2814(6) 0.0650 Uani
H13 H -0.0646 -0.2242 0.1980 0.0780 Uiso
H14 H -0.1039 -0.1011 0.2669 0.0780 Uiso
loop_
_atom_site_aniso_label
_atom_site_aniso_U_11
_atom_site_aniso_U_22
_atom_site_aniso_U_33
_atom_site_aniso_U_23
_atom_site_aniso_U_13
_atom_site_aniso_U_12
Zn1 0.01748(17) 0.0209(2) 0.01784(17) -0.0015(3) -0.0006(2) 0.00096(14)
C1 0.0223 0.026 0.0225 -0.0034 -0.0032 0.0093
N1 0.0235 0.0246 0.0196 -0.0045 -0.0034 -0.0002
N2 0.0289 0.03 0.028 -0.0078 0.0005 0.0023
C2 0.0392 0.034 0.032 -0.012 0.0019 0.003
N3 0.0231 0.0242 0.0213 -0.005 -0.0041 0.0052
C3 0.0239 0.027 0.029 0.0044 0.0012 0.0029
N4 0.0324 0.0329 0.036 -0.0089 -0.0024 0.0099
C4 0.0212 0.0202 0.02 0 -0.0002 0.0001
C5 0.0216 0.0215 0.0224 0.0015 -0.0005 -0.0001
N5 0.0301 0.047 0.0352 -0.0085 -0.0086 0.0189
O1 0.0373(14) 0.0316(15) 0.0301(14) 0.0008(13) 0.0133(12) 0.0058(13)
N6 0.0228(14) 0.0254(17) 0.0276(16) -0.0029(14) 0.0050(13) 0.0054(13)
O2 0.0353(14) 0.0255(15) 0.0497(18) 0.0056(14) 0.0117(13) 0.0050(13)
C6 0.0209(17) 0.027(2) 0.032(2) -0.0039(17) 0.0006(16) 0.0010(17)
C7 0.0264(18) 0.028(2) 0.034(2) 0.0014(18) 0.0100(16) 0.0004(17)
C8 0.0248(17) 0.023(2) 0.0265(19) -0.0015(16) 0.0045(15) 0.0050(15)
C9 0.037(2) 0.024(2) 0.034(2) 0.0033(18) 0.0102(18) 0.0022(17)
C10 0.0351(19) 0.032(2) 0.036(2) 0.0035(17) 0.0173(16) 0.0028(17)
C11 0.039(2) 0.022(2) 0.040(2) 0.0055(18) 0.0162(19) 0.0031(18)
Zn1A 0.01748 0.0209 0.01784 0.0015 0.0006 0.00096
Zn1C 0.01748 0.0209 0.01784 -0.0015 0.0006 -0.00096
N3A 0.0231(14) 0.0242(16) 0.0213(14) 0.0050(13) 0.0041(12) 0.0052(13)
N6C 0.0228 0.0254 0.0276 -0.0029 -0.005 -0.0054
O3 0.088(3) 0.070(3) 0.078(3) 0.024(2) -0.006(2) -0.025(2)
N7 0.098(4) 0.062(3) 0.038(2) 0.015(2) 0.014(2) -0.006(3)
N8 0.072(3) 0.100(4) 0.042(2) 0.029(3) -0.008(2) -0.030(3)
C12 0.061(3) 0.082(4) 0.053(3) 0.007(3) 0.000(3) -0.006(3)
C13 0.067(3) 0.047(3) 0.047(3) 0.018(3) 0.005(3) 0.008(3)
C14 0.097(4) 0.051(4) 0.047(3) -0.002(3) -0.015(3) 0.014(3)
loop_
_geom_bond_atom_site_label_1
_geom_bond_atom_site_label_2
_geom_bond_site_symmetry_1
_geom_bond_site_symmetry_2
Zn1 N1 1_555 1_555
C1 H1 1_555 1_555
N1 C1 1_555 1_555
N2 C2 1_555 1_555
C2 H2 1_555 1_555
N3 C1 1_555 1_555
C3 N4 1_555 1_555
N4 C2 1_555 1_555
C4 N3 1_555 1_555
C5 N1 1_555 1_555
N5 C3 1_555 1_555
H3 N5 1_555 1_555
H4 N5 1_555 1_555
O1 Zn1 1_555 1_555
N6 C9 1_555 1_555
O2 C6 1_555 1_555
C6 O1 1_555 1_555
C7 H5 1_555 1_555
C8 C6 1_555 1_555
C9 C7 1_555 1_555
H6 C9 1_555 1_555
C10 N6 1_555 1_555
H7 C10 1_555 1_555
C11 C8 1_555 1_555
H8 C11 1_555 1_555
O3 C13 1_555 1_555
N7 H9 1_555 1_555
N8 H10 1_555 1_555
C12 N8 1_555 1_555
H11 C12 1_555 1_555
H12 C12 1_555 1_555
C13 N7 1_555 1_555
C14 N7 1_555 1_555
H13 C14 1_555 1_555
H14 C14 1_555 1_555
Zn1A N3 1_555 1_555
Zn1C N6 1_555 1_555
N3A Zn1 1_555 1_555
N6C Zn1 1_555 1_555
N2 C5 1_555 1_555
C3 C4 1_555 1_555
C4 C5 1_555 1_555
C7 C8 1_555 1_555
C10 C11 1_555 1_555
N8 C13 1_555 1_555
C12 C14 1_555 1_555

#END
