
#######################################################################
#
#                 Cambridge Crystallographic Data Centre
#                                CCDC 
#
#######################################################################
#
# If this CIF has been generated from an entry in the Cambridge 
# Structural Database, then it will include bibliographic, chemical, 
# crystal, experimental, refinement or atomic coordinate data resulting 
# from the CCDC's data processing and validation procedures.
#
#######################################################################

data_SEMFOH
_chemical_formula_moiety         '(C160 H160 Cu9 N80 P16 9+)n'
_symmetry_cell_setting           tetragonal
_symmetry_space_group_name_H-M   'I 41/a'
_symmetry_Int_Tables_number      88
_space_group_name_Hall           '-I 4ad'
loop_
_symmetry_equiv_pos_site_id
_symmetry_equiv_pos_as_xyz
1 x,y,z
2 3/4-y,1/4+x,1/4+z
3 -x,1/2-y,z
4 1/4+y,1/4-x,1/4+z
5 1/2+x,1/2+y,1/2+z
6 1/4-y,3/4+x,3/4+z
7 1/2-x,-y,1/2+z
8 3/4+y,3/4-x,3/4+z
9 -x,-y,-z
10 1/4+y,3/4-x,3/4-z
11 x,1/2+y,-z
12 3/4-y,3/4+x,3/4-z
13 1/2-x,1/2-y,1/2-z
14 3/4+y,1/4-x,1/4-z
15 1/2+x,y,1/2-z
16 1/4-y,1/4+x,1/4-z
_cell_length_a                   37.979(5)
_cell_length_b                   37.979(5)
_cell_length_c                   16.959(3)
_cell_angle_alpha                90
_cell_angle_beta                 90
_cell_angle_gamma                90
_cell_volume                     24461.7
loop_
_atom_site_label
_atom_site_type_symbol
_atom_site_fract_x
_atom_site_fract_y
_atom_site_fract_z
_atom_site_U_iso_or_equiv
_atom_site_thermal_displace_type
Cu1 Cu -0.0000 0.2500 0.1250 0.0612 Uani
Cu2 Cu 0.181583(16) -0.039949(14) 0.27461(3) 0.0662 Uani
P1 P 0.25279(2) 0.19124(2) 0.01599(4) 0.0299 Uani
P2 P 0.22475(2) 0.13157(2) 0.09030(5) 0.0305 Uani
P3 P 0.18767(2) 0.22556(2) 0.04906(5) 0.0324 Uani
P4 P 0.17748(2) 0.17596(2) 0.17212(5) 0.0339 Uani
Cu3 Cu 0.402324(18) 0.10216(2) -0.15826(5) 0.1020 Uani
N1 N 0.26749(7) 0.17897(7) -0.07241(16) 0.0358 Uani
H1 H 0.2539 0.1835 -0.1117 0.0430 Uiso
N2 N 0.24366(7) 0.10331(7) 0.15232(16) 0.0368 Uani
H2 H 0.2643 0.1086 0.1693 0.0440 Uiso
N3 N 0.28291(7) 0.21862(7) 0.05147(16) 0.0383 Uani
H3 H 0.2903 0.2140 0.0983 0.0460 Uiso
N4 N 0.21570(7) 0.10887(7) 0.00831(16) 0.0364 Uani
H4 H 0.1938 0.1072 -0.0044 0.0440 Uiso
C1 C 0.29903(8) 0.16236(8) -0.08993(19) 0.0334 Uani
C2 C 0.22932(9) 0.07224(8) 0.17885(19) 0.0362 Uani
N5 N 0.15103(7) 0.21901(8) -0.00174(17) 0.0415 Uani
H5 H 0.1532 0.2087 -0.0466 0.0500 Uiso
N6 N 0.19208(8) 0.26876(7) 0.05757(17) 0.0416 Uani
H6 H 0.1949 0.2766 0.1047 0.0500 Uiso
N7 N 0.20254(10) 0.00781(8) 0.2356(2) 0.0571 Uani
N8 N 0.19797(7) 0.17810(7) 0.25896(16) 0.0401 Uani
H7 H 0.2098 0.1971 0.2673 0.0480 Uiso
N9 N 0.21661(7) 0.20891(7) -0.00674(16) 0.0370 Uani
N10 N 0.18676(7) 0.14263(7) 0.11986(16) 0.0378 Uani
C3 C 0.29772(10) 0.24771(9) 0.0161(2) 0.0420 Uani
C4 C 0.19874(9) 0.15362(9) 0.3198(2) 0.0394 Uani
N11 N 0.28643(9) 0.05982(8) -0.14725(19) 0.0503 Uani
C5 C 0.19694(9) 0.05922(9) 0.1535(2) 0.0425 Uani
H8 H 0.1835 0.0717 0.1171 0.0510 Uiso
C6 C 0.10995(9) 0.25002(10) 0.0852(2) 0.0482 Uani
H9 H 0.1284 0.2593 0.1147 0.0580 Uiso
C7 C 0.23960(9) 0.09242(8) -0.04154(19) 0.0363 Uani
N12 N 0.25427(7) 0.16034(7) 0.07890(16) 0.0338 Uani
N13 N 0.18498(7) 0.21409(7) 0.13874(16) 0.0382 Uani
N14 N 0.04755(8) 0.24573(8) 0.0665(2) 0.0501 Uani
C8 C 0.11688(9) 0.22858(9) 0.0209(2) 0.0412 Uani
N15 N 0.13564(7) 0.16807(8) 0.19249(18) 0.0450 Uani
H10 H 0.1262 0.1511 0.1664 0.0540 Uiso
C9 C 0.21903(11) 0.16034(10) 0.3866(2) 0.0490 Uani
H11 H 0.2324 0.1808 0.3900 0.0590 Uiso
N16 N 0.20105(9) 0.10607(9) 0.44720(19) 0.0519 Uani
C10 C 0.30509(9) 0.15100(9) -0.1671(2) 0.0419 Uani
H12 H 0.2884 0.1550 -0.2061 0.0500 Uiso
C11 C 0.27338(9) 0.08273(9) -0.0187(2) 0.0438 Uani
H13 H 0.2811 0.0870 0.0324 0.0530 Uiso
N17 N 0.36119(9) 0.12741(10) -0.1314(2) 0.0602 Uani
C12 C 0.25345(12) 0.06891(12) -0.1683(2) 0.0597 Uani
H14 H 0.2462 0.0641 -0.2195 0.0710 Uiso
C13 C 0.18499(10) 0.02738(10) 0.1833(2) 0.0479 Uani
H15 H 0.1633 0.0191 0.1657 0.0570 Uiso
C14 C 0.21904(11) 0.13625(12) 0.4477(2) 0.0553 Uani
H16 H 0.2325 0.1414 0.4921 0.0660 Uiso
C15 C 0.32510(10) 0.15613(11) -0.0339(2) 0.0493 Uani
H17 H 0.3223 0.1635 0.0180 0.0590 Uiso
C16 C 0.24809(11) 0.05172(10) 0.2338(2) 0.0523 Uani
H18 H 0.2700 0.0591 0.2518 0.0630 Uiso
N18 N 0.33034(12) 0.30662(10) -0.0512(2) 0.0730 Uani
C17 C 0.33579(11) 0.13390(11) -0.1849(2) 0.0537 Uani
H19 H 0.3393 0.1264 -0.2364 0.0640 Uiso
C18 C 0.17996(11) 0.12215(11) 0.3188(2) 0.0540 Uani
H20 H 0.1662 0.1162 0.2754 0.0650 Uiso
C19 C 0.07569(9) 0.25759(11) 0.1054(3) 0.0523 Uani
H21 H 0.0719 0.2719 0.1490 0.0630 Uiso
C20 C 0.32717(12) 0.26313(11) 0.0499(3) 0.0593 Uani
H22 H 0.3365 0.2540 0.0963 0.0710 Uiso
C21 C 0.08758(9) 0.21698(10) -0.0222(2) 0.0502 Uani
H23 H 0.0905 0.2033 -0.0672 0.0600 Uiso
C22 C 0.11356(10) 0.18497(12) 0.2457(2) 0.0525 Uani
C23 C 0.22999(11) 0.08486(11) -0.1185(2) 0.0496 Uani
H24 H 0.2076 0.0906 -0.1364 0.0600 Uiso
C24 C 0.19177(10) 0.29406(9) -0.0022(2) 0.0458 Uani
C25 C 0.19191(13) 0.32959(11) 0.0178(3) 0.0650 Uani
H25 H 0.1918 0.3367 0.0703 0.0780 Uiso
C26 C 0.35517(10) 0.13872(12) -0.0575(3) 0.0600 Uani
H26 H 0.3724 0.1345 -0.0197 0.0720 Uiso
C27 C 0.29527(10) 0.06683(10) -0.0722(2) 0.0477 Uani
H27 H 0.3177 0.0605 -0.0555 0.0570 Uiso
C28 C 0.05433(10) 0.22615(11) 0.0034(3) 0.0577 Uani
H28 H 0.0352 0.2180 -0.0257 0.0690 Uiso
C29 C 0.30152(14) 0.29191(12) -0.0831(3) 0.0690 Uani
H29 H 0.2925 0.3019 -0.1289 0.0830 Uiso
C30 C 0.34258(14) 0.29176(13) 0.0151(3) 0.0747 Uani
H30 H 0.3625 0.3014 0.0386 0.0900 Uiso
C31 C 0.18200(12) 0.09981(12) 0.3829(3) 0.0593 Uani
H31 H 0.1692 0.0790 0.3809 0.0710 Uiso
C32 C 0.12055(12) 0.21801(14) 0.2756(3) 0.0673 Uani
H32 H 0.1408 0.2301 0.2612 0.0810 Uiso
C33 C 0.23379(12) 0.02073(11) 0.2605(3) 0.0643 Uani
H33 H 0.2463 0.0079 0.2979 0.0780 Uiso
C34 C 0.28457(12) 0.26307(10) -0.0525(2) 0.0553 Uani
H34 H 0.2647 0.2539 -0.0770 0.0670 Uiso
C35 C 0.19185(15) 0.28602(12) -0.0800(3) 0.0687 Uani
H35 H 0.1914 0.2627 -0.0964 0.0830 Uiso
C36 C 0.09634(15) 0.23268(19) 0.3277(3) 0.0937 Uani
H36 H 0.1012 0.2550 0.3474 0.1120 Uiso
N19 N 0.19302(18) 0.34703(12) -0.1169(3) 0.1057 Uani
C37 C 0.1926(2) 0.31296(15) -0.1348(3) 0.1027 Uani
H37 H 0.1928 0.3068 -0.1879 0.1230 Uiso
C38 C 0.19217(16) 0.35404(12) -0.0424(4) 0.0853 Uani
H38 H 0.1917 0.3777 -0.0280 0.1020 Uiso
C39 C 0.08283(11) 0.16773(18) 0.2705(3) 0.0820 Uani
H39 H 0.0774 0.1453 0.2525 0.0980 Uiso
C40 C 0.06122(15) 0.1850(3) 0.3218(4) 0.1307 Uani
H40 H 0.0408 0.1735 0.3376 0.1570 Uiso
N20 N 0.06725(14) 0.2173(2) 0.3512(3) 0.1250 Uani
Cu2B Cu -0.181583(16) 0.539949(14) 0.27461(3) 0.0662 Uani
Cu2M Cu -0.289949(14) 0.068417(16) -0.02461(3) 0.0662 Uani
Cu2O Cu 0.289949(14) 0.431583(16) -0.02461(3) 0.0662 Uani
Cu2F Cu 0.318417(16) 0.039949(14) -0.22539(3) 0.0662 Uani
Cu2C Cu 0.210051(14) 0.068417(16) 0.52461(3) 0.0662 Uani
Cu2D Cu -0.318417(16) 0.460051(14) -0.22539(3) 0.0662 Uani
Cu2A Cu -0.210051(14) 0.431583(16) 0.52461(3) 0.0662 Uani
Cu2K Cu -0.210051(14) -0.068417(16) 0.47539(3) 0.0662 Uani
Cu2H Cu -0.181583(16) 0.039949(14) -0.27461(3) 0.0662 Uani
Cu2I Cu 0.210051(14) 0.568417(16) 0.47539(3) 0.0662 Uani
Cu2J Cu 0.181583(16) 0.460051(14) -0.27461(3) 0.0662 Uani
P1B P -0.25279(2) 0.30876(2) 0.01599(4) 0.0299 Uani
P1M P -0.05876(2) -0.00279(2) 0.23401(4) 0.0299 Uani
P1O P 0.05876(2) 0.50279(2) 0.23401(4) 0.0299 Uani
P2B P -0.22475(2) 0.36843(2) 0.09030(5) 0.0305 Uani
P2M P -0.11843(2) 0.02525(2) 0.15970(5) 0.0305 Uani
P2O P 0.11843(2) 0.47475(2) 0.15970(5) 0.0305 Uani
P3B P -0.18767(2) 0.27444(2) 0.04906(5) 0.0324 Uani
P3M P -0.02444(2) 0.06233(2) 0.20094(5) 0.0324 Uani
P3O P 0.02444(2) 0.43767(2) 0.20094(5) 0.0324 Uani
P4B P -0.17748(2) 0.32404(2) 0.17212(5) 0.0339 Uani
P4M P -0.07404(2) 0.07252(2) 0.07788(5) 0.0339 Uani
P4O P 0.07404(2) 0.42748(2) 0.07788(5) 0.0339 Uani
Cu3B Cu -0.402324(18) 0.39784(2) -0.15826(5) 0.1020 Uani
Cu3M Cu -0.14784(2) -0.152324(18) 0.40826(5) 0.1020 Uani
Cu3O Cu 0.14784(2) 0.652324(18) 0.40826(5) 0.1020 Uani
Cu3I Cu 0.35216(2) 0.347676(18) -0.09174(5) 0.1020 Uani
Cu3K Cu -0.35216(2) 0.152324(18) -0.09174(5) 0.1020 Uani
Cu3F Cu 0.097676(18) -0.10216(2) 0.34174(5) 0.1020 Uani
Cu3D Cu -0.097676(18) 0.60216(2) 0.34174(5) 0.1020 Uani
N1B N -0.26749(7) 0.32103(7) -0.07241(16) 0.0358 Uani
N1M N -0.07103(7) -0.01749(7) 0.32241(16) 0.0358 Uani
N1O N 0.07103(7) 0.51749(7) 0.32241(16) 0.0358 Uani
H1B H -0.2539 0.3165 -0.1117 0.0430 Uiso
H1M H -0.0665 -0.0039 0.3617 0.0430 Uiso
H1O H 0.0665 0.5039 0.3617 0.0430 Uiso
N2B N -0.24366(7) 0.39669(7) 0.15232(16) 0.0368 Uani
N2M N -0.14669(7) 0.00634(7) 0.09768(16) 0.0368 Uani
N2O N 0.14669(7) 0.49366(7) 0.09768(16) 0.0368 Uani
H2B H -0.2643 0.3914 0.1693 0.0440 Uiso
H2M H -0.1414 -0.0143 0.0807 0.0440 Uiso
H2O H 0.1414 0.5143 0.0807 0.0440 Uiso
N3B N -0.28291(7) 0.28138(7) 0.05147(16) 0.0383 Uani
N3M N -0.03138(7) -0.03291(7) 0.19853(16) 0.0383 Uani
N3O N 0.03138(7) 0.53291(7) 0.19853(16) 0.0383 Uani
H3B H -0.2903 0.2860 0.0983 0.0460 Uiso
H3M H -0.0360 -0.0403 0.1517 0.0460 Uiso
H3O H 0.0360 0.5403 0.1517 0.0460 Uiso
N4B N -0.21570(7) 0.39113(7) 0.00831(16) 0.0364 Uani
N4M N -0.14113(7) 0.03430(7) 0.24169(16) 0.0364 Uani
N4O N 0.14113(7) 0.46570(7) 0.24169(16) 0.0364 Uani
H4B H -0.1938 0.3928 -0.0044 0.0440 Uiso
H4M H -0.1428 0.0562 0.2544 0.0440 Uiso
H4O H 0.1428 0.4438 0.2544 0.0440 Uiso
C1B C -0.29903(8) 0.33764(8) -0.08993(19) 0.0334 Uani
C1M C -0.08764(8) -0.04903(8) 0.33993(19) 0.0334 Uani
C1O C 0.08764(8) 0.54903(8) 0.33993(19) 0.0334 Uani
C2B C -0.22932(9) 0.42776(8) 0.17885(19) 0.0362 Uani
C2M C -0.17776(8) 0.02068(9) 0.07115(19) 0.0362 Uani
C2O C 0.17776(8) 0.47932(9) 0.07115(19) 0.0362 Uani
N5B N -0.15103(7) 0.28099(8) -0.00174(17) 0.0415 Uani
N5M N -0.03099(8) 0.09897(7) 0.25174(17) 0.0415 Uani
N5O N 0.03099(8) 0.40103(7) 0.25174(17) 0.0415 Uani
H5B H -0.1532 0.2913 -0.0466 0.0500 Uiso
H5M H -0.0413 0.0968 0.2966 0.0500 Uiso
H5O H 0.0413 0.4032 0.2966 0.0500 Uiso
N6B N -0.19208(8) 0.23124(7) 0.05757(17) 0.0416 Uani
N6M N 0.01876(7) 0.05792(8) 0.19243(17) 0.0416 Uani
N6O N -0.01876(7) 0.44208(8) 0.19243(17) 0.0416 Uani
H6B H -0.1949 0.2234 0.1047 0.0500 Uiso
H6M H 0.0266 0.0551 0.1453 0.0500 Uiso
H6O H -0.0266 0.4449 0.1453 0.0500 Uiso
N7B N -0.20254(10) 0.49219(8) 0.2356(2) 0.0571 Uani
N7M N -0.24219(8) 0.04746(10) 0.0144(2) 0.0571 Uani
N7O N 0.24219(8) 0.45254(10) 0.0144(2) 0.0571 Uani
N8B N -0.19797(7) 0.32190(7) 0.25896(16) 0.0401 Uani
N8M N -0.07190(7) 0.05203(7) -0.00896(16) 0.0401 Uani
N8O N 0.07190(7) 0.44797(7) -0.00896(16) 0.0401 Uani
H7B H -0.2098 0.3029 0.2673 0.0480 Uiso
H7M H -0.0529 0.0402 -0.0173 0.0480 Uiso
H7O H 0.0529 0.4598 -0.0173 0.0480 Uiso
N9B N -0.21661(7) 0.29109(7) -0.00674(16) 0.0370 Uani
N9M N -0.04109(7) 0.03339(7) 0.25674(16) 0.0370 Uani
N9O N 0.04109(7) 0.46661(7) 0.25674(16) 0.0370 Uani
N10B N -0.18676(7) 0.35737(7) 0.11986(16) 0.0378 Uani
N10M N -0.10737(7) 0.06324(7) 0.13014(16) 0.0378 Uani
N10O N 0.10737(7) 0.43676(7) 0.13014(16) 0.0378 Uani
C3B C -0.29772(10) 0.25229(9) 0.0161(2) 0.0420 Uani
C3M C -0.00229(9) -0.04772(10) 0.2339(2) 0.0420 Uani
C3O C 0.00229(9) 0.54772(10) 0.2339(2) 0.0420 Uani
C4B C -0.19874(9) 0.34638(9) 0.3198(2) 0.0394 Uani
C4M C -0.09638(9) 0.05126(9) -0.0698(2) 0.0394 Uani
C4O C 0.09638(9) 0.44874(9) -0.0698(2) 0.0394 Uani
N11B N -0.28643(9) 0.44018(8) -0.14725(19) 0.0503 Uani
N11M N -0.19018(8) -0.03643(9) 0.39725(19) 0.0503 Uani
N11O N 0.19018(8) 0.53643(9) 0.39725(19) 0.0503 Uani
N11F N 0.21357(9) -0.05982(8) 0.35275(19) 0.0503 Uani
N11D N -0.21357(9) 0.55982(8) 0.35275(19) 0.0503 Uani
N11K N -0.30982(8) 0.03643(9) -0.10275(19) 0.0503 Uani
N11I N 0.30982(8) 0.46357(9) -0.10275(19) 0.0503 Uani
C5B C -0.19694(9) 0.44078(9) 0.1535(2) 0.0425 Uani
C5M C -0.19078(9) 0.05306(9) 0.0965(2) 0.0425 Uani
C5O C 0.19078(9) 0.44694(9) 0.0965(2) 0.0425 Uani
H8B H -0.1835 0.4283 0.1171 0.0510 Uiso
H8M H -0.1783 0.0665 0.1329 0.0510 Uiso
H8O H 0.1783 0.4335 0.1329 0.0510 Uiso
C6B C -0.10995(9) 0.24998(10) 0.0852(2) 0.0482 Uani
C6M C 0.00002(10) 0.14005(9) 0.1648(2) 0.0482 Uani
C6O C -0.00002(10) 0.35995(9) 0.1648(2) 0.0482 Uani
H9B H -0.1284 0.2407 0.1147 0.0580 Uiso
H9M H 0.0093 0.1216 0.1353 0.0580 Uiso
H9O H -0.0093 0.3784 0.1353 0.0580 Uiso
C7B C -0.23960(9) 0.40758(8) -0.04154(19) 0.0363 Uani
C7M C -0.15758(8) 0.01040(9) 0.29154(19) 0.0363 Uani
C7O C 0.15758(8) 0.48960(9) 0.29154(19) 0.0363 Uani
N12B N -0.25427(7) 0.33966(7) 0.07890(16) 0.0338 Uani
N12M N -0.08966(7) -0.00427(7) 0.17110(16) 0.0338 Uani
N12O N 0.08966(7) 0.50427(7) 0.17110(16) 0.0338 Uani
N13B N -0.18498(7) 0.28591(7) 0.13874(16) 0.0382 Uani
N13M N -0.03591(7) 0.06502(7) 0.11126(16) 0.0382 Uani
N13O N 0.03591(7) 0.43498(7) 0.11126(16) 0.0382 Uani
N14B N -0.04755(8) 0.25427(8) 0.0665(2) 0.0501 Uani
N14M N -0.00427(8) 0.20245(8) 0.1835(2) 0.0501 Uani
N14O N 0.00427(8) 0.29755(8) 0.1835(2) 0.0501 Uani
C8B C -0.11688(9) 0.27142(9) 0.0209(2) 0.0412 Uani
C8M C -0.02142(9) 0.13312(9) 0.2291(2) 0.0412 Uani
C8O C 0.02142(9) 0.36688(9) 0.2291(2) 0.0412 Uani
N15B N -0.13564(7) 0.33193(8) 0.19249(18) 0.0450 Uani
N15M N -0.08193(8) 0.11436(7) 0.05751(18) 0.0450 Uani
N15O N 0.08193(8) 0.38564(7) 0.05751(18) 0.0450 Uani
H10B H -0.1262 0.3489 0.1664 0.0540 Uiso
H10M H -0.0989 0.1238 0.0836 0.0540 Uiso
H10O H 0.0989 0.3762 0.0836 0.0540 Uiso
C9B C -0.21903(11) 0.33966(10) 0.3866(2) 0.0490 Uani
C9M C -0.08966(10) 0.03097(11) -0.1366(2) 0.0490 Uani
C9O C 0.08966(10) 0.46903(11) -0.1366(2) 0.0490 Uani
H11B H -0.2324 0.3192 0.3900 0.0590 Uiso
H11M H -0.0692 0.0176 -0.1400 0.0590 Uiso
H11O H 0.0692 0.4824 -0.1400 0.0590 Uiso
N16B N -0.20105(9) 0.39393(9) 0.44720(19) 0.0519 Uani
N16M N -0.14393(9) 0.04895(9) -0.19720(19) 0.0519 Uani
N16O N 0.14393(9) 0.45105(9) -0.19720(19) 0.0519 Uani
N16E N 0.14393(9) -0.04895(9) 0.19720(19) 0.0519 Uani
N16G N -0.14393(9) 0.54895(9) 0.19720(19) 0.0519 Uani
N16N N -0.29895(9) 0.10607(9) 0.05280(19) 0.0519 Uani
N16L N 0.29895(9) 0.39393(9) 0.05280(19) 0.0519 Uani
C10B C -0.30509(9) 0.34900(9) -0.1671(2) 0.0419 Uani
C10M C -0.09900(9) -0.05509(9) 0.4171(2) 0.0419 Uani
C10O C 0.09900(9) 0.55509(9) 0.4171(2) 0.0419 Uani
H12B H -0.2884 0.3450 -0.2061 0.0500 Uiso
H12M H -0.0950 -0.0384 0.4561 0.0500 Uiso
H12O H 0.0950 0.5384 0.4561 0.0500 Uiso
C11B C -0.27338(9) 0.41727(9) -0.0187(2) 0.0438 Uani
C11M C -0.16727(9) -0.02338(9) 0.2687(2) 0.0438 Uani
C11O C 0.16727(9) 0.52338(9) 0.2687(2) 0.0438 Uani
H13B H -0.2811 0.4130 0.0324 0.0530 Uiso
H13M H -0.1630 -0.0311 0.2176 0.0530 Uiso
H13O H 0.1630 0.5311 0.2176 0.0530 Uiso
N17B N -0.36119(9) 0.37259(10) -0.1314(2) 0.0602 Uani
N17M N -0.12259(10) -0.11119(9) 0.3814(2) 0.0602 Uani
N17O N 0.12259(10) 0.61119(9) 0.3814(2) 0.0602 Uani
C12B C -0.25345(12) 0.43109(12) -0.1683(2) 0.0597 Uani
C12M C -0.18109(12) -0.00345(12) 0.4183(2) 0.0597 Uani
C12O C 0.18109(12) 0.50345(12) 0.4183(2) 0.0597 Uani
H14B H -0.2462 0.4359 -0.2195 0.0710 Uiso
H14M H -0.1859 0.0038 0.4695 0.0710 Uiso
H14O H 0.1859 0.4962 0.4695 0.0710 Uiso
C13B C -0.18499(10) 0.47262(10) 0.1833(2) 0.0479 Uani
C13M C -0.22262(10) 0.06501(10) 0.0667(2) 0.0479 Uani
C13O C 0.22262(10) 0.43499(10) 0.0667(2) 0.0479 Uani
H15B H -0.1633 0.4809 0.1657 0.0570 Uiso
H15M H -0.2309 0.0867 0.0843 0.0570 Uiso
H15O H 0.2309 0.4133 0.0843 0.0570 Uiso
C14B C -0.21904(11) 0.36375(12) 0.4477(2) 0.0553 Uani
C14M C -0.11375(12) 0.03096(11) -0.1977(2) 0.0553 Uani
C14O C 0.11375(12) 0.46904(11) -0.1977(2) 0.0553 Uani
H16B H -0.2325 0.3586 0.4921 0.0660 Uiso
H16M H -0.1086 0.0175 -0.2421 0.0660 Uiso
H16O H 0.1086 0.4825 -0.2421 0.0660 Uiso
C15B C -0.32510(10) 0.34387(11) -0.0339(2) 0.0493 Uani
C15M C -0.09387(11) -0.07510(10) 0.2839(2) 0.0493 Uani
C15O C 0.09387(11) 0.57510(10) 0.2839(2) 0.0493 Uani
H17B H -0.3223 0.3365 0.0180 0.0590 Uiso
H17M H -0.0865 -0.0723 0.2320 0.0590 Uiso
H17O H 0.0865 0.5723 0.2320 0.0590 Uiso
C16B C -0.24809(11) 0.44828(10) 0.2338(2) 0.0523 Uani
C16M C -0.19828(10) 0.00191(11) 0.0162(2) 0.0523 Uani
C16O C 0.19828(10) 0.49809(11) 0.0162(2) 0.0523 Uani
H18B H -0.2700 0.4409 0.2518 0.0630 Uiso
H18M H -0.1909 -0.0200 -0.0018 0.0630 Uiso
H18O H 0.1909 0.5200 -0.0018 0.0630 Uiso
N18B N -0.33034(12) 0.19338(10) -0.0512(2) 0.0730 Uani
N18M N 0.05662(10) -0.08034(12) 0.3012(2) 0.0730 Uani
N18O N -0.05662(10) 0.58034(12) 0.3012(2) 0.0730 Uani
N18K N 0.44338(10) 0.08034(12) -0.1988(2) 0.0730 Uani
N18I N -0.44338(10) 0.41966(12) -0.1988(2) 0.0730 Uani
N18D N -0.16966(12) -0.19338(10) 0.4488(2) 0.0730 Uani
N18F N 0.16966(12) 0.69338(10) 0.4488(2) 0.0730 Uani
C17B C -0.33579(11) 0.36610(11) -0.1849(2) 0.0537 Uani
C17M C -0.11610(11) -0.08579(11) 0.4349(2) 0.0537 Uani
C17O C 0.11610(11) 0.58579(11) 0.4349(2) 0.0537 Uani
H19B H -0.3393 0.3736 -0.2364 0.0640 Uiso
H19M H -0.1236 -0.0893 0.4864 0.0640 Uiso
H19O H 0.1236 0.5893 0.4864 0.0640 Uiso
C18B C -0.17996(11) 0.37785(11) 0.3188(2) 0.0540 Uani
C18M C -0.12785(11) 0.07004(11) -0.0688(2) 0.0540 Uani
C18O C 0.12785(11) 0.42996(11) -0.0688(2) 0.0540 Uani
H20B H -0.1662 0.3838 0.2754 0.0650 Uiso
H20M H -0.1338 0.0838 -0.0254 0.0650 Uiso
H20O H 0.1338 0.4162 -0.0254 0.0650 Uiso
C19B C -0.07569(9) 0.24241(11) 0.1054(3) 0.0523 Uani
C19M C 0.00759(11) 0.17431(9) 0.1446(3) 0.0523 Uani
C19O C -0.00759(11) 0.32569(9) 0.1446(3) 0.0523 Uani
H21B H -0.0719 0.2281 0.1490 0.0630 Uiso
H21M H 0.0219 0.1781 0.1010 0.0630 Uiso
H21O H -0.0219 0.3219 0.1010 0.0630 Uiso
C20B C -0.32717(12) 0.23687(11) 0.0499(3) 0.0593 Uani
C20M C 0.01313(11) -0.07717(12) 0.2001(3) 0.0593 Uani
C20O C -0.01313(11) 0.57717(12) 0.2001(3) 0.0593 Uani
H22B H -0.3365 0.2460 0.0963 0.0710 Uiso
H22M H 0.0040 -0.0865 0.1537 0.0710 Uiso
H22O H -0.0040 0.5865 0.1537 0.0710 Uiso
C21B C -0.08758(9) 0.28302(10) -0.0222(2) 0.0502 Uani
C21M C -0.03302(10) 0.16242(9) 0.2722(2) 0.0502 Uani
C21O C 0.03302(10) 0.33758(9) 0.2722(2) 0.0502 Uani
H23B H -0.0905 0.2967 -0.0672 0.0600 Uiso
H23M H -0.0467 0.1595 0.3172 0.0600 Uiso
H23O H 0.0467 0.3405 0.3172 0.0600 Uiso
C22B C -0.11356(10) 0.31503(12) 0.2457(2) 0.0525 Uani
C22M C -0.06503(12) 0.13644(10) 0.0043(2) 0.0525 Uani
C22O C 0.06503(12) 0.36356(10) 0.0043(2) 0.0525 Uani
C23B C -0.22999(11) 0.41514(11) -0.1185(2) 0.0496 Uani
C23M C -0.16514(11) 0.02001(11) 0.3685(2) 0.0496 Uani
C23O C 0.16514(11) 0.47999(11) 0.3685(2) 0.0496 Uani
H24B H -0.2076 0.4094 -0.1364 0.0600 Uiso
H24M H -0.1594 0.0424 0.3864 0.0600 Uiso
H24O H 0.1594 0.4576 0.3864 0.0600 Uiso
C24B C -0.19177(10) 0.20594(9) -0.0022(2) 0.0458 Uani
C24M C 0.04406(9) 0.05823(10) 0.2522(2) 0.0458 Uani
C24O C -0.04406(9) 0.44177(10) 0.2522(2) 0.0458 Uani
C25B C -0.19191(13) 0.17041(11) 0.0178(3) 0.0650 Uani
C25M C 0.07959(11) 0.05809(13) 0.2322(3) 0.0650 Uani
C25O C -0.07959(11) 0.44191(13) 0.2322(3) 0.0650 Uani
H25B H -0.1918 0.1633 0.0703 0.0780 Uiso
H25M H 0.0867 0.0582 0.1797 0.0780 Uiso
H25O H -0.0867 0.4418 0.1797 0.0780 Uiso
C26B C -0.35517(10) 0.36128(12) -0.0575(3) 0.0600 Uani
C26M C -0.11128(12) -0.10517(10) 0.3075(3) 0.0600 Uani
C26O C 0.11128(12) 0.60517(10) 0.3075(3) 0.0600 Uani
H26B H -0.3724 0.3655 -0.0197 0.0720 Uiso
H26M H -0.1155 -0.1224 0.2697 0.0720 Uiso
H26O H 0.1155 0.6224 0.2697 0.0720 Uiso
C27B C -0.29527(10) 0.43317(10) -0.0722(2) 0.0477 Uani
C27M C -0.18317(10) -0.04527(10) 0.3222(2) 0.0477 Uani
C27O C 0.18317(10) 0.54527(10) 0.3222(2) 0.0477 Uani
H27B H -0.3177 0.4395 -0.0555 0.0570 Uiso
H27M H -0.1895 -0.0677 0.3055 0.0570 Uiso
H27O H 0.1895 0.5677 0.3055 0.0570 Uiso
C28B C -0.05433(10) 0.27385(11) 0.0034(3) 0.0577 Uani
C28M C -0.02385(11) 0.19567(10) 0.2466(3) 0.0577 Uani
C28O C 0.02385(11) 0.30433(10) 0.2466(3) 0.0577 Uani
H28B H -0.0352 0.2820 -0.0257 0.0690 Uiso
H28M H -0.0320 0.2148 0.2757 0.0690 Uiso
H28O H 0.0320 0.2852 0.2757 0.0690 Uiso
C29B C -0.30152(14) 0.20809(12) -0.0831(3) 0.0690 Uani
C29M C 0.04191(12) -0.05152(14) 0.3331(3) 0.0690 Uani
C29O C -0.04191(12) 0.55152(14) 0.3331(3) 0.0690 Uani
H29B H -0.2925 0.1981 -0.1289 0.0830 Uiso
H29M H 0.0519 -0.0425 0.3789 0.0830 Uiso
H29O H -0.0519 0.5425 0.3789 0.0830 Uiso
C30B C -0.34258(14) 0.20824(13) 0.0151(3) 0.0747 Uani
C30M C 0.04176(13) -0.09258(14) 0.2349(3) 0.0747 Uani
C30O C -0.04176(13) 0.59258(14) 0.2349(3) 0.0747 Uani
H30B H -0.3625 0.1986 0.0386 0.0900 Uiso
H30M H 0.0514 -0.1125 0.2114 0.0900 Uiso
H30O H -0.0514 0.6125 0.2114 0.0900 Uiso
C31B C -0.18200(12) 0.40019(12) 0.3829(3) 0.0593 Uani
C31M C -0.15019(12) 0.06800(12) -0.1329(3) 0.0593 Uani
C31O C 0.15019(12) 0.43200(12) -0.1329(3) 0.0593 Uani
H31B H -0.1692 0.4210 0.3809 0.0710 Uiso
H31M H -0.1710 0.0808 -0.1309 0.0710 Uiso
H31O H 0.1710 0.4192 -0.1309 0.0710 Uiso
C32B C -0.12055(12) 0.28199(14) 0.2756(3) 0.0673 Uani
C32M C -0.03199(14) 0.12945(12) -0.0256(3) 0.0673 Uani
C32O C 0.03199(14) 0.37055(12) -0.0256(3) 0.0673 Uani
H32B H -0.1408 0.2699 0.2612 0.0810 Uiso
H32M H -0.0199 0.1092 -0.0112 0.0810 Uiso
H32O H 0.0199 0.3908 -0.0112 0.0810 Uiso
C33B C -0.23379(12) 0.47927(11) 0.2605(3) 0.0643 Uani
C33M C -0.22927(11) 0.01621(12) -0.0105(3) 0.0643 Uani
C33O C 0.22927(11) 0.48379(12) -0.0105(3) 0.0643 Uani
H33B H -0.2463 0.4921 0.2979 0.0780 Uiso
H33M H -0.2421 0.0037 -0.0479 0.0780 Uiso
H33O H 0.2421 0.4963 -0.0479 0.0780 Uiso
C34B C -0.28457(12) 0.23693(10) -0.0525(2) 0.0553 Uani
C34M C 0.01307(10) -0.03457(12) 0.3025(2) 0.0553 Uani
C34O C -0.01307(10) 0.53457(12) 0.3025(2) 0.0553 Uani
H34B H -0.2647 0.2461 -0.0770 0.0670 Uiso
H34M H 0.0039 -0.0147 0.3270 0.0670 Uiso
H34O H -0.0039 0.5147 0.3270 0.0670 Uiso
C35B C -0.19185(15) 0.21398(12) -0.0800(3) 0.0687 Uani
C35M C 0.03602(12) 0.05815(15) 0.3300(3) 0.0687 Uani
C35O C -0.03602(12) 0.44185(15) 0.3300(3) 0.0687 Uani
H35B H -0.1914 0.2373 -0.0964 0.0830 Uiso
H35M H 0.0127 0.0586 0.3464 0.0830 Uiso
H35O H -0.0127 0.4414 0.3464 0.0830 Uiso
C36B C -0.09634(15) 0.26732(19) 0.3277(3) 0.0937 Uani
C36M C -0.01732(19) 0.15366(15) -0.0777(3) 0.0937 Uani
C36O C 0.01732(19) 0.34634(15) -0.0777(3) 0.0937 Uani
H36B H -0.1012 0.2450 0.3474 0.1120 Uiso
H36M H 0.0050 0.1488 -0.0974 0.1120 Uiso
H36O H -0.0050 0.3512 -0.0974 0.1120 Uiso
N19B N -0.19302(18) 0.15297(12) -0.1169(3) 0.1057 Uani
N19M N 0.09703(12) 0.05698(18) 0.3669(3) 0.1057 Uani
N19O N -0.09703(12) 0.44302(18) 0.3669(3) 0.1057 Uani
C37B C -0.1926(2) 0.18704(15) -0.1348(3) 0.1027 Uani
C37M C 0.06296(15) 0.0574(2) 0.3848(3) 0.1027 Uani
C37O C -0.06296(15) 0.4426(2) 0.3848(3) 0.1027 Uani
H37B H -0.1928 0.1932 -0.1879 0.1230 Uiso
H37M H 0.0568 0.0572 0.4379 0.1230 Uiso
H37O H -0.0568 0.4428 0.4379 0.1230 Uiso
C38B C -0.19217(16) 0.14596(12) -0.0424(4) 0.0853 Uani
C38M C 0.10404(12) 0.05783(16) 0.2924(4) 0.0853 Uani
C38O C -0.10404(12) 0.44217(16) 0.2924(4) 0.0853 Uani
H38B H -0.1917 0.1223 -0.0280 0.1020 Uiso
H38M H 0.1277 0.0583 0.2780 0.1020 Uiso
H38O H -0.1277 0.4417 0.2780 0.1020 Uiso
C39B C -0.08283(11) 0.33227(18) 0.2705(3) 0.0820 Uani
C39M C -0.08227(18) 0.16717(11) -0.0205(3) 0.0820 Uani
C39O C 0.08227(18) 0.33283(11) -0.0205(3) 0.0820 Uani
H39B H -0.0774 0.3547 0.2525 0.0980 Uiso
H39M H -0.1047 0.1726 -0.0025 0.0980 Uiso
H39O H 0.1047 0.3274 -0.0025 0.0980 Uiso
C40B C -0.06122(15) 0.3150(3) 0.3218(4) 0.1307 Uani
C40M C -0.0650(3) 0.18878(15) -0.0718(4) 0.1307 Uani
C40O C 0.0650(3) 0.31122(15) -0.0718(4) 0.1307 Uani
H40B H -0.0408 0.3265 0.3376 0.1570 Uiso
H40M H -0.0765 0.2092 -0.0876 0.1570 Uiso
H40O H 0.0765 0.2908 -0.0876 0.1570 Uiso
N20B N -0.06725(14) 0.2827(2) 0.3512(3) 0.1250 Uani
N20M N -0.0327(2) 0.18275(14) -0.1012(3) 0.1250 Uani
N20O N 0.0327(2) 0.31725(14) -0.1012(3) 0.1250 Uani
loop_
_atom_site_aniso_label
_atom_site_aniso_U_11
_atom_site_aniso_U_22
_atom_site_aniso_U_33
_atom_site_aniso_U_23
_atom_site_aniso_U_13
_atom_site_aniso_U_12
Cu1 0.0312(3) 0.0312(3) 0.1213(10) 0.000 0.000 0.000
Cu2 0.0785(4) 0.0580(3) 0.0621(4) 0.0238(2) -0.0341(3) -0.0195(3)
P1 0.0303(4) 0.0286(4) 0.0308(4) 0.0026(3) 0.0058(3) 0.0033(3)
P2 0.0321(4) 0.0281(4) 0.0314(4) 0.0029(3) 0.0037(3) 0.0022(3)
P3 0.0314(4) 0.0313(4) 0.0345(4) 0.0035(3) 0.0044(3) 0.0067(3)
P4 0.0315(4) 0.0374(4) 0.0327(4) 0.0041(3) 0.0063(3) 0.0036(3)
Cu3 0.0654(4) 0.1461(7) 0.0945(5) -0.0323(5) 0.0108(3) 0.0574(4)
N1 0.0323(13) 0.0434(15) 0.0317(14) 0.0005(11) 0.0031(11) 0.0085(11)
N2 0.0380(14) 0.0328(14) 0.0395(15) 0.0082(11) -0.0030(12) -0.0017(11)
N3 0.0457(16) 0.0337(14) 0.0354(14) 0.0045(11) 0.0034(12) -0.0072(12)
N4 0.0345(14) 0.0394(15) 0.0354(14) -0.0040(11) -0.0026(11) 0.0004(11)
C1 0.0313(16) 0.0313(15) 0.0377(16) 0.0027(13) 0.0082(13) 0.0039(12)
C2 0.0391(17) 0.0327(16) 0.0369(17) 0.0039(13) 0.0004(14) 0.0013(13)
N5 0.0350(15) 0.0481(16) 0.0415(15) -0.0064(13) 0.0028(12) 0.0072(12)
N6 0.0487(17) 0.0356(15) 0.0404(15) 0.0012(12) 0.0012(13) 0.0048(12)
N7 0.070(2) 0.0433(17) 0.058(2) 0.0217(15) -0.0258(17) -0.0152(15)
N8 0.0437(16) 0.0376(15) 0.0390(15) 0.0085(12) 0.0036(12) -0.0038(12)
N9 0.0359(14) 0.0396(15) 0.0355(14) 0.0063(12) 0.0065(11) 0.0103(11)
N10 0.0343(14) 0.0374(14) 0.0418(15) 0.0042(12) 0.0077(12) 0.0012(11)
C3 0.049(2) 0.0334(17) 0.0437(19) -0.0011(14) 0.0106(15) -0.0051(14)
C4 0.0368(17) 0.0459(19) 0.0356(17) 0.0088(14) 0.0060(14) 0.0081(14)
N11 0.063(2) 0.0401(16) 0.0478(18) -0.0118(14) 0.0142(15) -0.0082(14)
C5 0.0467(19) 0.0369(17) 0.0438(19) 0.0110(15) -0.0062(15) -0.0008(14)
C6 0.0297(17) 0.058(2) 0.057(2) -0.0113(18) -0.0036(15) 0.0054(15)
C7 0.0434(18) 0.0308(15) 0.0348(16) 0.0001(13) 0.0032(14) -0.0029(13)
N12 0.0308(13) 0.0297(13) 0.0408(14) 0.0059(11) 0.0033(11) 0.0019(10)
N13 0.0447(16) 0.0356(14) 0.0342(14) 0.0001(11) 0.0075(12) 0.0076(11)
N14 0.0317(15) 0.0456(17) 0.073(2) -0.0004(16) 0.0009(14) -0.0008(12)
C8 0.0331(17) 0.0404(18) 0.050(2) 0.0031(15) 0.0024(14) 0.0021(13)
N15 0.0332(15) 0.0561(18) 0.0456(17) -0.0003(14) 0.0074(12) 0.0036(13)
C9 0.055(2) 0.048(2) 0.044(2) 0.0044(16) -0.0036(17) 0.0020(16)
N16 0.0534(18) 0.060(2) 0.0423(17) 0.0185(15) 0.0097(14) 0.0156(15)
C10 0.0421(18) 0.0438(19) 0.0399(18) -0.0025(15) 0.0048(15) 0.0064(14)
C11 0.0455(19) 0.0449(19) 0.0409(19) -0.0050(15) 0.0026(15) 0.0073(15)
N17 0.0436(18) 0.075(2) 0.062(2) -0.0079(18) 0.0102(16) 0.0192(16)
C12 0.068(3) 0.068(3) 0.043(2) -0.0181(19) 0.0053(19) -0.011(2)
C13 0.051(2) 0.0438(19) 0.049(2) 0.0116(16) -0.0094(17) -0.0078(16)
C14 0.061(2) 0.067(3) 0.038(2) 0.0090(18) -0.0025(17) 0.014(2)
C15 0.0409(19) 0.059(2) 0.048(2) -0.0101(17) 0.0054(16) 0.0135(17)
C16 0.057(2) 0.0408(19) 0.059(2) 0.0155(17) -0.0231(19) -0.0063(16)
N18 0.093(3) 0.057(2) 0.069(2) 0.0067(19) 0.018(2) -0.033(2)
C17 0.057(2) 0.057(2) 0.047(2) -0.0062(18) 0.0186(18) 0.0089(18)
C18 0.062(2) 0.056(2) 0.044(2) 0.0134(18) -0.0059(18) -0.0098(19)
C19 0.0358(19) 0.055(2) 0.066(3) -0.0132(19) 0.0053(17) 0.0033(16)
C20 0.066(3) 0.050(2) 0.062(3) 0.0075(19) -0.008(2) -0.0186(19)
C21 0.0375(19) 0.052(2) 0.061(2) -0.0075(18) -0.0062(17) -0.0022(16)
C22 0.0366(19) 0.081(3) 0.0398(19) 0.0070(19) 0.0028(15) 0.0142(18)
C23 0.049(2) 0.060(2) 0.0398(19) -0.0090(17) -0.0033(16) -0.0009(17)
C24 0.0451(19) 0.0322(17) 0.060(2) 0.0059(16) -0.0032(17) 0.0049(14)
C25 0.078(3) 0.042(2) 0.075(3) 0.003(2) -0.018(2) 0.006(2)
C26 0.042(2) 0.075(3) 0.063(3) -0.012(2) -0.0024(18) 0.0184(19)
C27 0.045(2) 0.046(2) 0.052(2) -0.0061(17) 0.0080(16) 0.0030(15)
C28 0.040(2) 0.054(2) 0.079(3) 0.003(2) -0.011(2) -0.0103(17)
C29 0.101(4) 0.052(2) 0.054(3) 0.015(2) 0.000(2) -0.026(2)
C30 0.074(3) 0.067(3) 0.083(3) 0.003(3) 0.000(3) -0.033(2)
C31 0.063(3) 0.060(3) 0.055(2) 0.020(2) 0.004(2) -0.0068(19)
C32 0.056(3) 0.091(3) 0.055(2) -0.011(2) 0.002(2) 0.019(2)
C33 0.074(3) 0.047(2) 0.072(3) 0.025(2) -0.036(2) -0.013(2)
C34 0.067(3) 0.045(2) 0.054(2) 0.0089(18) -0.0027(19) -0.0144(18)
C35 0.105(4) 0.043(2) 0.058(3) 0.0100(19) 0.010(2) 0.006(2)
C36 0.067(3) 0.140(6) 0.074(3) -0.040(3) -0.002(3) 0.034(3)
N19 0.174(6) 0.055(3) 0.088(4) 0.027(2) -0.008(4) 0.002(3)
C37 0.181(7) 0.065(3) 0.062(3) 0.022(3) -0.002(4) 0.000(4)
C38 0.113(4) 0.033(2) 0.110(5) 0.017(3) -0.021(4) 0.002(2)
C39 0.036(2) 0.136(5) 0.074(3) -0.012(3) 0.011(2) -0.008(3)
C40 0.044(3) 0.260(11) 0.088(4) -0.039(6) 0.026(3) -0.006(4)
N20 0.063(3) 0.226(8) 0.086(4) -0.051(4) 0.014(3) 0.038(4)
Cu2B 0.0785 0.058 0.0621 -0.0238 0.0341 -0.0195
Cu2M 0.058 0.0785 0.0621 -0.0341 -0.0238 0.0195
Cu2O 0.058 0.0785 0.0621 0.0341 0.0238 0.0195
Cu2F 0.0785 0.058 0.0621 -0.0238 0.0341 -0.0195
Cu2C 0.058 0.0785 0.0621 0.0341 0.0238 0.0195
Cu2D 0.0785 0.058 0.0621 0.0238 -0.0341 -0.0195
Cu2A 0.058 0.0785 0.0621 -0.0341 -0.0238 0.0195
Cu2K 0.058 0.0785 0.0621 0.0341 0.0238 0.0195
Cu2H 0.0785 0.058 0.0621 0.0238 -0.0341 -0.0195
Cu2I 0.058 0.0785 0.0621 -0.0341 -0.0238 0.0195
Cu2J 0.0785 0.058 0.0621 -0.0238 0.0341 -0.0195
P1B 0.0303 0.0286 0.0308 -0.0026 -0.0058 0.0033
P1M 0.0286 0.0303 0.0308 0.0058 -0.0026 -0.0033
P1O 0.0286 0.0303 0.0308 -0.0058 0.0026 -0.0033
P2B 0.0321 0.0281 0.0314 -0.0029 -0.0037 0.0022
P2M 0.0281 0.0321 0.0314 0.0037 -0.0029 -0.0022
P2O 0.0281 0.0321 0.0314 -0.0037 0.0029 -0.0022
P3B 0.0314 0.0313 0.0345 -0.0035 -0.0044 0.0067
P3M 0.0313 0.0314 0.0345 0.0044 -0.0035 -0.0067
P3O 0.0313 0.0314 0.0345 -0.0044 0.0035 -0.0067
P4B 0.0315 0.0374 0.0327 -0.0041 -0.0063 0.0036
P4M 0.0374 0.0315 0.0327 0.0063 -0.0041 -0.0036
P4O 0.0374 0.0315 0.0327 -0.0063 0.0041 -0.0036
Cu3B 0.0654 0.1461 0.0945 0.0323 -0.0108 0.0574
Cu3M 0.1461 0.0654 0.0945 0.0108 0.0323 -0.0574
Cu3O 0.1461 0.0654 0.0945 -0.0108 -0.0323 -0.0574
Cu3I 0.1461 0.0654 0.0945 0.0108 0.0323 -0.0574
Cu3K 0.1461 0.0654 0.0945 -0.0108 -0.0323 -0.0574
Cu3F 0.0654 0.1461 0.0945 0.0323 -0.0108 0.0574
Cu3D 0.0654 0.1461 0.0945 -0.0323 0.0108 0.0574
N1B 0.0323 0.0434 0.0317 -0.0005 -0.0031 0.0085
N1M 0.0434 0.0323 0.0317 0.0031 -0.0005 -0.0085
N1O 0.0434 0.0323 0.0317 -0.0031 0.0005 -0.0085
N2B 0.038 0.0328 0.0395 -0.0082 0.003 -0.0017
N2M 0.0328 0.038 0.0395 -0.003 -0.0082 0.0017
N2O 0.0328 0.038 0.0395 0.003 0.0082 0.0017
N3B 0.0457 0.0337 0.0354 -0.0045 -0.0034 -0.0072
N3M 0.0337 0.0457 0.0354 0.0034 -0.0045 0.0072
N3O 0.0337 0.0457 0.0354 -0.0034 0.0045 0.0072
N4B 0.0345 0.0394 0.0354 0.004 0.0026 0.0004
N4M 0.0394 0.0345 0.0354 -0.0026 0.004 -0.0004
N4O 0.0394 0.0345 0.0354 0.0026 -0.004 -0.0004
C1B 0.0313 0.0313 0.0377 -0.0027 -0.0082 0.0039
C1M 0.0313 0.0313 0.0377 0.0082 -0.0027 -0.0039
C1O 0.0313 0.0313 0.0377 -0.0082 0.0027 -0.0039
C2B 0.0391 0.0327 0.0369 -0.0039 -0.0004 0.0013
C2M 0.0327 0.0391 0.0369 0.0004 -0.0039 -0.0013
C2O 0.0327 0.0391 0.0369 -0.0004 0.0039 -0.0013
N5B 0.035 0.0481 0.0415 0.0064 -0.0028 0.0072
N5M 0.0481 0.035 0.0415 0.0028 0.0064 -0.0072
N5O 0.0481 0.035 0.0415 -0.0028 -0.0064 -0.0072
N6B 0.0487 0.0356 0.0404 -0.0012 -0.0012 0.0048
N6M 0.0356 0.0487 0.0404 0.0012 -0.0012 -0.0048
N6O 0.0356 0.0487 0.0404 -0.0012 0.0012 -0.0048
N7B 0.07 0.0433 0.058 -0.0217 0.0258 -0.0152
N7M 0.0433 0.07 0.058 -0.0258 -0.0217 0.0152
N7O 0.0433 0.07 0.058 0.0258 0.0217 0.0152
N8B 0.0437 0.0376 0.039 -0.0085 -0.0036 -0.0038
N8M 0.0376 0.0437 0.039 0.0036 -0.0085 0.0038
N8O 0.0376 0.0437 0.039 -0.0036 0.0085 0.0038
N9B 0.0359 0.0396 0.0355 -0.0063 -0.0065 0.0103
N9M 0.0396 0.0359 0.0355 0.0065 -0.0063 -0.0103
N9O 0.0396 0.0359 0.0355 -0.0065 0.0063 -0.0103
N10B 0.0343 0.0374 0.0418 -0.0042 -0.0077 0.0012
N10M 0.0374 0.0343 0.0418 0.0077 -0.0042 -0.0012
N10O 0.0374 0.0343 0.0418 -0.0077 0.0042 -0.0012
C3B 0.049 0.0334 0.0437 0.0011 -0.0106 -0.0051
C3M 0.0334 0.049 0.0437 0.0106 0.0011 0.0051
C3O 0.0334 0.049 0.0437 -0.0106 -0.0011 0.0051
C4B 0.0368 0.0459 0.0356 -0.0088 -0.006 0.0081
C4M 0.0459 0.0368 0.0356 0.006 -0.0088 -0.0081
C4O 0.0459 0.0368 0.0356 -0.006 0.0088 -0.0081
N11B 0.063 0.0401 0.0478 0.0118 -0.0142 -0.0082
N11M 0.0401 0.063 0.0478 0.0142 0.0118 0.0082
N11O 0.0401 0.063 0.0478 -0.0142 -0.0118 0.0082
N11F 0.063 0.0401 0.0478 0.0118 -0.0142 -0.0082
N11D 0.063 0.0401 0.0478 -0.0118 0.0142 -0.0082
N11K 0.0401 0.063 0.0478 -0.0142 -0.0118 0.0082
N11I 0.0401 0.063 0.0478 0.0142 0.0118 0.0082
C5B 0.0467 0.0369 0.0438 -0.011 0.0062 -0.0008
C5M 0.0369 0.0467 0.0438 -0.0062 -0.011 0.0008
C5O 0.0369 0.0467 0.0438 0.0062 0.011 0.0008
C6B 0.0297 0.058 0.057 0.0113 0.0036 0.0054
C6M 0.058 0.0297 0.057 -0.0036 0.0113 -0.0054
C6O 0.058 0.0297 0.057 0.0036 -0.0113 -0.0054
C7B 0.0434 0.0308 0.0348 -0.0001 -0.0032 -0.0029
C7M 0.0308 0.0434 0.0348 0.0032 -0.0001 0.0029
C7O 0.0308 0.0434 0.0348 -0.0032 0.0001 0.0029
N12B 0.0308 0.0297 0.0408 -0.0059 -0.0033 0.0019
N12M 0.0297 0.0308 0.0408 0.0033 -0.0059 -0.0019
N12O 0.0297 0.0308 0.0408 -0.0033 0.0059 -0.0019
N13B 0.0447 0.0356 0.0342 -0.0001 -0.0075 0.0076
N13M 0.0356 0.0447 0.0342 0.0075 -0.0001 -0.0076
N13O 0.0356 0.0447 0.0342 -0.0075 0.0001 -0.0076
N14B 0.0317 0.0456 0.073 0.0004 -0.0009 -0.0008
N14M 0.0456 0.0317 0.073 0.0009 0.0004 0.0008
N14O 0.0456 0.0317 0.073 -0.0009 -0.0004 0.0008
C8B 0.0331 0.0404 0.05 -0.0031 -0.0024 0.0021
C8M 0.0404 0.0331 0.05 0.0024 -0.0031 -0.0021
C8O 0.0404 0.0331 0.05 -0.0024 0.0031 -0.0021
N15B 0.0332 0.0561 0.0456 0.0003 -0.0074 0.0036
N15M 0.0561 0.0332 0.0456 0.0074 0.0003 -0.0036
N15O 0.0561 0.0332 0.0456 -0.0074 -0.0003 -0.0036
C9B 0.055 0.048 0.044 -0.0044 0.0036 0.002
C9M 0.048 0.055 0.044 -0.0036 -0.0044 -0.002
C9O 0.048 0.055 0.044 0.0036 0.0044 -0.002
N16B 0.0534 0.06 0.0423 -0.0185 -0.0097 0.0156
N16M 0.06 0.0534 0.0423 0.0097 -0.0185 -0.0156
N16O 0.06 0.0534 0.0423 -0.0097 0.0185 -0.0156
N16E 0.06 0.0534 0.0423 0.0097 -0.0185 -0.0156
N16G 0.06 0.0534 0.0423 -0.0097 0.0185 -0.0156
N16N 0.0534 0.06 0.0423 -0.0185 -0.0097 0.0156
N16L 0.0534 0.06 0.0423 0.0185 0.0097 0.0156
C10B 0.0421 0.0438 0.0399 0.0025 -0.0048 0.0064
C10M 0.0438 0.0421 0.0399 0.0048 0.0025 -0.0064
C10O 0.0438 0.0421 0.0399 -0.0048 -0.0025 -0.0064
C11B 0.0455 0.0449 0.0409 0.005 -0.0026 0.0073
C11M 0.0449 0.0455 0.0409 0.0026 0.005 -0.0073
C11O 0.0449 0.0455 0.0409 -0.0026 -0.005 -0.0073
N17B 0.0436 0.075 0.062 0.0079 -0.0102 0.0192
N17M 0.075 0.0436 0.062 0.0102 0.0079 -0.0192
N17O 0.075 0.0436 0.062 -0.0102 -0.0079 -0.0192
C12B 0.068 0.068 0.043 0.0181 -0.0053 -0.011
C12M 0.068 0.068 0.043 0.0053 0.0181 0.011
C12O 0.068 0.068 0.043 -0.0053 -0.0181 0.011
C13B 0.051 0.0438 0.049 -0.0116 0.0094 -0.0078
C13M 0.0438 0.051 0.049 -0.0094 -0.0116 0.0078
C13O 0.0438 0.051 0.049 0.0094 0.0116 0.0078
C14B 0.061 0.067 0.038 -0.009 0.0025 0.014
C14M 0.067 0.061 0.038 -0.0025 -0.009 -0.014
C14O 0.067 0.061 0.038 0.0025 0.009 -0.014
C15B 0.0409 0.059 0.048 0.0101 -0.0054 0.0135
C15M 0.059 0.0409 0.048 0.0054 0.0101 -0.0135
C15O 0.059 0.0409 0.048 -0.0054 -0.0101 -0.0135
C16B 0.057 0.0408 0.059 -0.0155 0.0231 -0.0063
C16M 0.0408 0.057 0.059 -0.0231 -0.0155 0.0063
C16O 0.0408 0.057 0.059 0.0231 0.0155 0.0063
N18B 0.093 0.057 0.069 -0.0067 -0.018 -0.033
N18M 0.057 0.093 0.069 0.018 -0.0067 0.033
N18O 0.057 0.093 0.069 -0.018 0.0067 0.033
N18K 0.057 0.093 0.069 -0.018 0.0067 0.033
N18I 0.057 0.093 0.069 0.018 -0.0067 0.033
N18D 0.093 0.057 0.069 0.0067 0.018 -0.033
N18F 0.093 0.057 0.069 -0.0067 -0.018 -0.033
C17B 0.057 0.057 0.047 0.0062 -0.0186 0.0089
C17M 0.057 0.057 0.047 0.0186 0.0062 -0.0089
C17O 0.057 0.057 0.047 -0.0186 -0.0062 -0.0089
C18B 0.062 0.056 0.044 -0.0134 0.0059 -0.0098
C18M 0.056 0.062 0.044 -0.0059 -0.0134 0.0098
C18O 0.056 0.062 0.044 0.0059 0.0134 0.0098
C19B 0.0358 0.055 0.066 0.0132 -0.0053 0.0033
C19M 0.055 0.0358 0.066 0.0053 0.0132 -0.0033
C19O 0.055 0.0358 0.066 -0.0053 -0.0132 -0.0033
C20B 0.066 0.05 0.062 -0.0075 0.008 -0.0186
C20M 0.05 0.066 0.062 -0.008 -0.0075 0.0186
C20O 0.05 0.066 0.062 0.008 0.0075 0.0186
C21B 0.0375 0.052 0.061 0.0075 0.0062 -0.0022
C21M 0.052 0.0375 0.061 -0.0062 0.0075 0.0022
C21O 0.052 0.0375 0.061 0.0062 -0.0075 0.0022
C22B 0.0366 0.081 0.0398 -0.007 -0.0028 0.0142
C22M 0.081 0.0366 0.0398 0.0028 -0.007 -0.0142
C22O 0.081 0.0366 0.0398 -0.0028 0.007 -0.0142
C23B 0.049 0.06 0.0398 0.009 0.0033 -0.0009
C23M 0.06 0.049 0.0398 -0.0033 0.009 0.0009
C23O 0.06 0.049 0.0398 0.0033 -0.009 0.0009
C24B 0.0451 0.0322 0.06 -0.0059 0.0032 0.0049
C24M 0.0322 0.0451 0.06 -0.0032 -0.0059 -0.0049
C24O 0.0322 0.0451 0.06 0.0032 0.0059 -0.0049
C25B 0.078 0.042 0.075 -0.003 0.018 0.006
C25M 0.042 0.078 0.075 -0.018 -0.003 -0.006
C25O 0.042 0.078 0.075 0.018 0.003 -0.006
C26B 0.042 0.075 0.063 0.012 0.0024 0.0184
C26M 0.075 0.042 0.063 -0.0024 0.012 -0.0184
C26O 0.075 0.042 0.063 0.0024 -0.012 -0.0184
C27B 0.045 0.046 0.052 0.0061 -0.008 0.003
C27M 0.046 0.045 0.052 0.008 0.0061 -0.003
C27O 0.046 0.045 0.052 -0.008 -0.0061 -0.003
C28B 0.04 0.054 0.079 -0.003 0.011 -0.0103
C28M 0.054 0.04 0.079 -0.011 -0.003 0.0103
C28O 0.054 0.04 0.079 0.011 0.003 0.0103
C29B 0.101 0.052 0.054 -0.015 0 -0.026
C29M 0.052 0.101 0.054 0 -0.015 0.026
C29O 0.052 0.101 0.054 0 0.015 0.026
C30B 0.074 0.067 0.083 -0.003 0 -0.033
C30M 0.067 0.074 0.083 0 -0.003 0.033
C30O 0.067 0.074 0.083 0 0.003 0.033
C31B 0.063 0.06 0.055 -0.02 -0.004 -0.0068
C31M 0.06 0.063 0.055 0.004 -0.02 0.0068
C31O 0.06 0.063 0.055 -0.004 0.02 0.0068
C32B 0.056 0.091 0.055 0.011 -0.002 0.019
C32M 0.091 0.056 0.055 0.002 0.011 -0.019
C32O 0.091 0.056 0.055 -0.002 -0.011 -0.019
C33B 0.074 0.047 0.072 -0.025 0.036 -0.013
C33M 0.047 0.074 0.072 -0.036 -0.025 0.013
C33O 0.047 0.074 0.072 0.036 0.025 0.013
C34B 0.067 0.045 0.054 -0.0089 0.0027 -0.0144
C34M 0.045 0.067 0.054 -0.0027 -0.0089 0.0144
C34O 0.045 0.067 0.054 0.0027 0.0089 0.0144
C35B 0.105 0.043 0.058 -0.01 -0.01 0.006
C35M 0.043 0.105 0.058 0.01 -0.01 -0.006
C35O 0.043 0.105 0.058 -0.01 0.01 -0.006
C36B 0.067 0.14 0.074 0.04 0.002 0.034
C36M 0.14 0.067 0.074 -0.002 0.04 -0.034
C36O 0.14 0.067 0.074 0.002 -0.04 -0.034
N19B 0.174 0.055 0.088 -0.027 0.008 0.002
N19M 0.055 0.174 0.088 -0.008 -0.027 -0.002
N19O 0.055 0.174 0.088 0.008 0.027 -0.002
C37B 0.181 0.065 0.062 -0.022 0.002 0
C37M 0.065 0.181 0.062 -0.002 -0.022 0
C37O 0.065 0.181 0.062 0.002 0.022 0
C38B 0.113 0.033 0.11 -0.017 0.021 0.002
C38M 0.033 0.113 0.11 -0.021 -0.017 -0.002
C38O 0.033 0.113 0.11 0.021 0.017 -0.002
C39B 0.036 0.136 0.074 0.012 -0.011 -0.008
C39M 0.136 0.036 0.074 0.011 0.012 0.008
C39O 0.136 0.036 0.074 -0.011 -0.012 0.008
C40B 0.044 0.26 0.088 0.039 -0.026 -0.006
C40M 0.26 0.044 0.088 0.026 0.039 0.006
C40O 0.26 0.044 0.088 -0.026 -0.039 0.006
N20B 0.063 0.226 0.086 0.051 -0.014 0.038
N20M 0.226 0.063 0.086 0.014 0.051 -0.038
N20O 0.226 0.063 0.086 -0.014 -0.051 -0.038
loop_
_geom_bond_atom_site_label_1
_geom_bond_atom_site_label_2
_geom_bond_site_symmetry_1
_geom_bond_site_symmetry_2
Cu1 N14 1_555 1_555
Cu2 N7 1_555 1_555
P1 N1 1_555 1_555
P2 N2 1_555 1_555
P3 N5 1_555 1_555
P4 N8 1_555 1_555
Cu3 N17 1_555 1_555
N1 H1 1_555 1_555
N2 H2 1_555 1_555
N3 P1 1_555 1_555
H3 N3 1_555 1_555
N4 P2 1_555 1_555
H4 N4 1_555 1_555
C1 N1 1_555 1_555
C2 N2 1_555 1_555
N5 H5 1_555 1_555
N6 P3 1_555 1_555
H6 N6 1_555 1_555
N7 C13 1_555 1_555
N8 H7 1_555 1_555
N9 P1 1_555 1_555
N10 P2 1_555 1_555
C3 N3 1_555 1_555
C4 N8 1_555 1_555
N11 C12 1_555 1_555
C5 C2 1_555 1_555
H8 C5 1_555 1_555
C6 H9 1_555 1_555
C7 N4 1_555 1_555
N12 P1 1_555 1_555
N13 P3 1_555 1_555
N14 C19 1_555 1_555
C8 N5 1_555 1_555
N15 P4 1_555 1_555
H10 N15 1_555 1_555
C9 C4 1_555 1_555
H11 C9 1_555 1_555
N16 C14 1_555 1_555
C10 C1 1_555 1_555
H12 C10 1_555 1_555
C11 C7 1_555 1_555
H13 C11 1_555 1_555
N17 C17 1_555 1_555
C12 H14 1_555 1_555
C13 C5 1_555 1_555
H15 C13 1_555 1_555
C14 C9 1_555 1_555
H16 C14 1_555 1_555
C15 C1 1_555 1_555
H17 C15 1_555 1_555
C16 C2 1_555 1_555
H18 C16 1_555 1_555
N18 C29 1_555 1_555
C17 C10 1_555 1_555
H19 C17 1_555 1_555
C18 C4 1_555 1_555
H20 C18 1_555 1_555
C19 C6 1_555 1_555
H21 C19 1_555 1_555
C20 C3 1_555 1_555
H22 C20 1_555 1_555
C21 C8 1_555 1_555
H23 C21 1_555 1_555
C22 N15 1_555 1_555
C23 C7 1_555 1_555
H24 C23 1_555 1_555
C24 N6 1_555 1_555
C25 C24 1_555 1_555
H25 C25 1_555 1_555
C26 N17 1_555 1_555
H26 C26 1_555 1_555
C27 N11 1_555 1_555
H27 C27 1_555 1_555
C28 N14 1_555 1_555
H28 C28 1_555 1_555
C29 H29 1_555 1_555
C30 N18 1_555 1_555
H30 C30 1_555 1_555
C31 N16 1_555 1_555
H31 C31 1_555 1_555
C32 C22 1_555 1_555
H32 C32 1_555 1_555
C33 N7 1_555 1_555
H33 C33 1_555 1_555
C34 C3 1_555 1_555
H34 C34 1_555 1_555
C35 C24 1_555 1_555
H35 C35 1_555 1_555
C36 C32 1_555 1_555
H36 C36 1_555 1_555
N19 C37 1_555 1_555
C37 C35 1_555 1_555
H37 C37 1_555 1_555
C38 C25 1_555 1_555
H38 C38 1_555 1_555
C39 C22 1_555 1_555
H39 C39 1_555 1_555
C40 C39 1_555 1_555
H40 C40 1_555 1_555
N20 C36 1_555 1_555
Cu2B N7B 1_555 1_555
Cu2M N7M 1_555 1_555
Cu2O N7O 1_555 1_555
Cu2F N11 1_555 1_555
Cu2C N16 1_555 1_555
Cu2D N11B 1_555 1_555
Cu2A N16B 1_555 1_555
Cu2K N11M 1_555 1_555
Cu2H N16M 1_555 1_555
Cu2I N11O 1_555 1_555
Cu2J N16O 1_555 1_555
P1B N1B 1_555 1_555
P1M N1M 1_555 1_555
P1O N1O 1_555 1_555
P2B N2B 1_555 1_555
P2M N2M 1_555 1_555
P2O N2O 1_555 1_555
P3B N5B 1_555 1_555
P3M N5M 1_555 1_555
P3O N5O 1_555 1_555
P4B N8B 1_555 1_555
P4M N8M 1_555 1_555
P4O N8O 1_555 1_555
Cu3B N17B 1_555 1_555
Cu3M N17M 1_555 1_555
Cu3O N17O 1_555 1_555
Cu3I N18 1_555 1_555
Cu3K N18B 1_555 1_555
Cu3F N18M 1_555 1_555
Cu3D N18O 1_555 1_555
N1B H1B 1_555 1_555
N1M H1M 1_555 1_555
N1O H1O 1_555 1_555
N2B H2B 1_555 1_555
N2M H2M 1_555 1_555
N2O H2O 1_555 1_555
N3B P1B 1_555 1_555
N3M P1M 1_555 1_555
N3O P1O 1_555 1_555
H3B N3B 1_555 1_555
H3M N3M 1_555 1_555
H3O N3O 1_555 1_555
N4B P2B 1_555 1_555
N4M P2M 1_555 1_555
N4O P2O 1_555 1_555
H4B N4B 1_555 1_555
H4M N4M 1_555 1_555
H4O N4O 1_555 1_555
C1B N1B 1_555 1_555
C1M N1M 1_555 1_555
C1O N1O 1_555 1_555
C2B N2B 1_555 1_555
C2M N2M 1_555 1_555
C2O N2O 1_555 1_555
N5B H5B 1_555 1_555
N5M H5M 1_555 1_555
N5O H5O 1_555 1_555
N6B P3B 1_555 1_555
N6M P3M 1_555 1_555
N6O P3O 1_555 1_555
H6B N6B 1_555 1_555
H6M N6M 1_555 1_555
H6O N6O 1_555 1_555
N7B C13B 1_555 1_555
N7M C13M 1_555 1_555
N7O C13O 1_555 1_555
N8B H7B 1_555 1_555
N8M H7M 1_555 1_555
N8O H7O 1_555 1_555
N9B P1B 1_555 1_555
N9M P1M 1_555 1_555
N9O P1O 1_555 1_555
N10B P2B 1_555 1_555
N10M P2M 1_555 1_555
N10O P2O 1_555 1_555
C3B N3B 1_555 1_555
C3M N3M 1_555 1_555
C3O N3O 1_555 1_555
C4B N8B 1_555 1_555
C4M N8M 1_555 1_555
C4O N8O 1_555 1_555
N11B C12B 1_555 1_555
N11M C12M 1_555 1_555
N11O C12O 1_555 1_555
N11F Cu2 1_555 1_555
N11D Cu2B 1_555 1_555
N11K Cu2M 1_555 1_555
N11I Cu2O 1_555 1_555
C5B C2B 1_555 1_555
C5M C2M 1_555 1_555
C5O C2O 1_555 1_555
H8B C5B 1_555 1_555
H8M C5M 1_555 1_555
H8O C5O 1_555 1_555
C6B H9B 1_555 1_555
C6M H9M 1_555 1_555
C6O H9O 1_555 1_555
C7B N4B 1_555 1_555
C7M N4M 1_555 1_555
C7O N4O 1_555 1_555
N12B P1B 1_555 1_555
N12M P1M 1_555 1_555
N12O P1O 1_555 1_555
N13B P3B 1_555 1_555
N13M P3M 1_555 1_555
N13O P3O 1_555 1_555
N14B Cu1 1_555 1_555
N14M Cu1 1_555 1_555
N14O Cu1 1_555 1_555
C8B N5B 1_555 1_555
C8M N5M 1_555 1_555
C8O N5O 1_555 1_555
N15B P4B 1_555 1_555
N15M P4M 1_555 1_555
N15O P4O 1_555 1_555
H10B N15B 1_555 1_555
H10M N15M 1_555 1_555
H10O N15O 1_555 1_555
C9B C4B 1_555 1_555
C9M C4M 1_555 1_555
C9O C4O 1_555 1_555
H11B C9B 1_555 1_555
H11M C9M 1_555 1_555
H11O C9O 1_555 1_555
N16B C14B 1_555 1_555
N16M C14M 1_555 1_555
N16O C14O 1_555 1_555
N16E Cu2 1_555 1_555
N16G Cu2B 1_555 1_555
N16N Cu2M 1_555 1_555
N16L Cu2O 1_555 1_555
C10B C1B 1_555 1_555
C10M C1M 1_555 1_555
C10O C1O 1_555 1_555
H12B C10B 1_555 1_555
H12M C10M 1_555 1_555
H12O C10O 1_555 1_555
C11B C7B 1_555 1_555
C11M C7M 1_555 1_555
C11O C7O 1_555 1_555
H13B C11B 1_555 1_555
H13M C11M 1_555 1_555
H13O C11O 1_555 1_555
N17B C17B 1_555 1_555
N17M C17M 1_555 1_555
N17O C17O 1_555 1_555
C12B H14B 1_555 1_555
C12M H14M 1_555 1_555
C12O H14O 1_555 1_555
C13B C5B 1_555 1_555
C13M C5M 1_555 1_555
C13O C5O 1_555 1_555
H15B C13B 1_555 1_555
H15M C13M 1_555 1_555
H15O C13O 1_555 1_555
C14B C9B 1_555 1_555
C14M C9M 1_555 1_555
C14O C9O 1_555 1_555
H16B C14B 1_555 1_555
H16M C14M 1_555 1_555
H16O C14O 1_555 1_555
C15B C1B 1_555 1_555
C15M C1M 1_555 1_555
C15O C1O 1_555 1_555
H17B C15B 1_555 1_555
H17M C15M 1_555 1_555
H17O C15O 1_555 1_555
C16B C2B 1_555 1_555
C16M C2M 1_555 1_555
C16O C2O 1_555 1_555
H18B C16B 1_555 1_555
H18M C16M 1_555 1_555
H18O C16O 1_555 1_555
N18B C29B 1_555 1_555
N18M C29M 1_555 1_555
N18O C29O 1_555 1_555
N18K Cu3 1_555 1_555
N18I Cu3B 1_555 1_555
N18D Cu3M 1_555 1_555
N18F Cu3O 1_555 1_555
C17B C10B 1_555 1_555
C17M C10M 1_555 1_555
C17O C10O 1_555 1_555
H19B C17B 1_555 1_555
H19M C17M 1_555 1_555
H19O C17O 1_555 1_555
C18B C4B 1_555 1_555
C18M C4M 1_555 1_555
C18O C4O 1_555 1_555
H20B C18B 1_555 1_555
H20M C18M 1_555 1_555
H20O C18O 1_555 1_555
C19B C6B 1_555 1_555
C19M C6M 1_555 1_555
C19O C6O 1_555 1_555
H21B C19B 1_555 1_555
H21M C19M 1_555 1_555
H21O C19O 1_555 1_555
C20B C3B 1_555 1_555
C20M C3M 1_555 1_555
C20O C3O 1_555 1_555
H22B C20B 1_555 1_555
H22M C20M 1_555 1_555
H22O C20O 1_555 1_555
C21B C8B 1_555 1_555
C21M C8M 1_555 1_555
C21O C8O 1_555 1_555
H23B C21B 1_555 1_555
H23M C21M 1_555 1_555
H23O C21O 1_555 1_555
C22B N15B 1_555 1_555
C22M N15M 1_555 1_555
C22O N15O 1_555 1_555
C23B C7B 1_555 1_555
C23M C7M 1_555 1_555
C23O C7O 1_555 1_555
H24B C23B 1_555 1_555
H24M C23M 1_555 1_555
H24O C23O 1_555 1_555
C24B N6B 1_555 1_555
C24M N6M 1_555 1_555
C24O N6O 1_555 1_555
C25B C24B 1_555 1_555
C25M C24M 1_555 1_555
C25O C24O 1_555 1_555
H25B C25B 1_555 1_555
H25M C25M 1_555 1_555
H25O C25O 1_555 1_555
C26B N17B 1_555 1_555
C26M N17M 1_555 1_555
C26O N17O 1_555 1_555
H26B C26B 1_555 1_555
H26M C26M 1_555 1_555
H26O C26O 1_555 1_555
C27B N11B 1_555 1_555
C27M N11M 1_555 1_555
C27O N11O 1_555 1_555
H27B C27B 1_555 1_555
H27M C27M 1_555 1_555
H27O C27O 1_555 1_555
C28B N14B 1_555 1_555
C28M N14M 1_555 1_555
C28O N14O 1_555 1_555
H28B C28B 1_555 1_555
H28M C28M 1_555 1_555
H28O C28O 1_555 1_555
C29B H29B 1_555 1_555
C29M H29M 1_555 1_555
C29O H29O 1_555 1_555
C30B N18B 1_555 1_555
C30M N18M 1_555 1_555
C30O N18O 1_555 1_555
H30B C30B 1_555 1_555
H30M C30M 1_555 1_555
H30O C30O 1_555 1_555
C31B N16B 1_555 1_555
C31M N16M 1_555 1_555
C31O N16O 1_555 1_555
H31B C31B 1_555 1_555
H31M C31M 1_555 1_555
H31O C31O 1_555 1_555
C32B C22B 1_555 1_555
C32M C22M 1_555 1_555
C32O C22O 1_555 1_555
H32B C32B 1_555 1_555
H32M C32M 1_555 1_555
H32O C32O 1_555 1_555
C33B N7B 1_555 1_555
C33M N7M 1_555 1_555
C33O N7O 1_555 1_555
H33B C33B 1_555 1_555
H33M C33M 1_555 1_555
H33O C33O 1_555 1_555
C34B C3B 1_555 1_555
C34M C3M 1_555 1_555
C34O C3O 1_555 1_555
H34B C34B 1_555 1_555
H34M C34M 1_555 1_555
H34O C34O 1_555 1_555
C35B C24B 1_555 1_555
C35M C24M 1_555 1_555
C35O C24O 1_555 1_555
H35B C35B 1_555 1_555
H35M C35M 1_555 1_555
H35O C35O 1_555 1_555
C36B C32B 1_555 1_555
C36M C32M 1_555 1_555
C36O C32O 1_555 1_555
H36B C36B 1_555 1_555
H36M C36M 1_555 1_555
H36O C36O 1_555 1_555
N19B C37B 1_555 1_555
N19M C37M 1_555 1_555
N19O C37O 1_555 1_555
C37B C35B 1_555 1_555
C37M C35M 1_555 1_555
C37O C35O 1_555 1_555
H37B C37B 1_555 1_555
H37M C37M 1_555 1_555
H37O C37O 1_555 1_555
C38B C25B 1_555 1_555
C38M C25M 1_555 1_555
C38O C25O 1_555 1_555
H38B C38B 1_555 1_555
H38M C38M 1_555 1_555
H38O C38O 1_555 1_555
C39B C22B 1_555 1_555
C39M C22M 1_555 1_555
C39O C22O 1_555 1_555
H39B C39B 1_555 1_555
H39M C39M 1_555 1_555
H39O C39O 1_555 1_555
C40B C39B 1_555 1_555
C40M C39M 1_555 1_555
C40O C39O 1_555 1_555
H40B C40B 1_555 1_555
H40M C40M 1_555 1_555
H40O C40O 1_555 1_555
N20B C36B 1_555 1_555
N20M C36M 1_555 1_555
N20O C36O 1_555 1_555
P2 N12 1_555 1_555
P3 N9 1_555 1_555
P4 N10 1_555 1_555
P4 N13 1_555 1_555
C6 C8 1_555 1_555
C11 C27 1_555 1_555
C12 C23 1_555 1_555
C15 C26 1_555 1_555
C16 C33 1_555 1_555
C18 C31 1_555 1_555
C20 C30 1_555 1_555
C21 C28 1_555 1_555
C29 C34 1_555 1_555
N19 C38 1_555 1_555
C40 N20 1_555 1_555
P2B N12B 1_555 1_555
P2M N12M 1_555 1_555
P2O N12O 1_555 1_555
P3B N9B 1_555 1_555
P3M N9M 1_555 1_555
P3O N9O 1_555 1_555
P4B N10B 1_555 1_555
P4B N13B 1_555 1_555
P4M N10M 1_555 1_555
P4M N13M 1_555 1_555
P4O N10O 1_555 1_555
P4O N13O 1_555 1_555
C6B C8B 1_555 1_555
C6M C8M 1_555 1_555
C6O C8O 1_555 1_555
N14B C19B 1_555 1_555
N14M C19M 1_555 1_555
N14O C19O 1_555 1_555
C11B C27B 1_555 1_555
C11M C27M 1_555 1_555
C11O C27O 1_555 1_555
C12B C23B 1_555 1_555
C12M C23M 1_555 1_555
C12O C23O 1_555 1_555
C15B C26B 1_555 1_555
C15M C26M 1_555 1_555
C15O C26O 1_555 1_555
C16B C33B 1_555 1_555
C16M C33M 1_555 1_555
C16O C33O 1_555 1_555
C18B C31B 1_555 1_555
C18M C31M 1_555 1_555
C18O C31O 1_555 1_555
C20B C30B 1_555 1_555
C20M C30M 1_555 1_555
C20O C30O 1_555 1_555
C21B C28B 1_555 1_555
C21M C28M 1_555 1_555
C21O C28O 1_555 1_555
C29B C34B 1_555 1_555
C29M C34M 1_555 1_555
C29O C34O 1_555 1_555
N19B C38B 1_555 1_555
N19M C38M 1_555 1_555
N19O C38O 1_555 1_555
C40B N20B 1_555 1_555
C40M N20M 1_555 1_555
C40O N20O 1_555 1_555

#END
