
#######################################################################
#
#                 Cambridge Crystallographic Data Centre
#                                CCDC 
#
#######################################################################
#
# If this CIF has been generated from an entry in the Cambridge 
# Structural Database, then it will include bibliographic, chemical, 
# crystal, experimental, refinement or atomic coordinate data resulting 
# from the CCDC's data processing and validation procedures.
#
#######################################################################

data_IBOCOU
_chemical_formula_moiety         '(C18 H18 Co3 N7 O9 P3)n'
_symmetry_cell_setting           triclinic
_symmetry_space_group_name_H-M   'P -1'
_symmetry_Int_Tables_number      2
_space_group_name_Hall           '-P 1'
loop_
_symmetry_equiv_pos_site_id
_symmetry_equiv_pos_as_xyz
1 x,y,z
2 -x,-y,-z
_cell_length_a                   8.645(4)
_cell_length_b                   15.658(7)
_cell_length_c                   15.977(6)
_cell_angle_alpha                62.066(13)
_cell_angle_beta                 76.251(17)
_cell_angle_gamma                88.765(19)
_cell_volume                     1845.79
loop_
_atom_site_label
_atom_site_type_symbol
_atom_site_fract_x
_atom_site_fract_y
_atom_site_fract_z
C1 C -0.2427(4) 0.1436(2) 0.5582(2)
H1 H -0.3324 0.1194 0.6159
H2 H -0.1520 0.1089 0.5770
C2 C -0.0910(4) 0.2664(2) 0.5707(2)
H3 H -0.1213 0.2188 0.6397
H4 H -0.0993 0.3305 0.5654
C3 C -0.3484(3) 0.3005(2) 0.5259(2)
H5 H -0.3820 0.2969 0.5900
H6 H -0.4346 0.2689 0.5176
C4 C 0.1263(4) 0.5776(3) 0.2996(2)
H7 H 0.0276 0.5660 0.3442
C5 C 0.1560(4) 0.6359(3) 0.2023(3)
H8 H 0.0842 0.6723 0.1679
C6 C 0.3744(4) 0.5713(3) 0.2403(2)
H9 H 0.4796 0.5561 0.2350
C7 C 0.4010(4) 0.6791(3) 0.0626(2)
C8 C 0.5285(4) 0.6355(3) 0.0312(2)
H10 H 0.5577 0.5770 0.0749
C9 C 0.6100(4) 0.6829(3) -0.0677(2)
C10 C 0.7843(5) 0.5492(3) -0.0606(3)
H11 H 0.7407 0.5002 0.0031
C11 C 0.9059(5) 0.5444(3) -0.1289(3)
H12 H 0.9603 0.4900 -0.1193
C12 C 0.8346(4) 0.6861(3) -0.1963(3)
H13 H 0.8283 0.7497 -0.2423
C13 C 0.5661(4) 0.7703(3) -0.1322(3)
H14 H 0.6234 0.8022 -0.1977
C14 C 0.4375(4) 0.8098(3) -0.0992(2)
C15 C 0.3540(4) 0.7658(3) -0.0012(2)
H15 H 0.2690 0.7937 0.0212
C16 C 0.3217(7) 0.9687(4) -0.1543(3)
H16 H 0.3011 0.9734 -0.0968
C17 C 0.2901(7) 1.0332(4) -0.2399(3)
H17 H 0.2407 1.0894 -0.2504
C18 C 0.4006(5) 0.9209(3) -0.2626(3)
H18 H 0.4454 0.8837 -0.2917
Co1 Co -0.07157(5) 0.31478(3) 0.35860(3)
Co2 Co 0.32232(5) 0.07187(3) 0.55203(3)
Co3 Co 0.30596(5) 0.45513(3) 0.45540(3)
N1 N -0.2019(3) 0.24955(17) 0.51970(18)
N2 N 0.2619(3) 0.5380(2) 0.32361(19)
N3 N 0.3152(3) 0.6308(2) 0.16331(19)
N4 N 0.7383(3) 0.6418(2) -0.1047(2)
N5 N 0.9378(3) 0.6308(2) -0.21404(19)
N6 N 0.3889(4) 0.8967(2) -0.1687(2)
N7 N 0.3419(4) 1.0028(2) -0.3084(2)
O1 O -0.4676(3) 0.13976(17) 0.46388(17)
O2 O -0.2644(3) 0.01709(17) 0.49228(19)
O3 O -0.1784(3) 0.19454(18) 0.36973(17)
O4 O 0.1505(3) 0.15076(16) 0.56318(18)
O5 O 0.2222(3) 0.31826(16) 0.53531(17)
O6 O 0.1255(3) 0.29821(17) 0.40738(16)
O7 O -0.4632(3) 0.46681(17) 0.41230(17)
O8 O -0.2179(3) 0.48373(16) 0.46450(17)
O9 O -0.2009(3) 0.42521(15) 0.34027(16)
P1 P -0.29391(10) 0.12218(6) 0.46559(6)
P2 P 0.11523(9) 0.25651(6) 0.51617(6)
P3 P -0.30726(9) 0.42790(6) 0.43061(6)
Co1A Co 1.07157(5) 0.68522(3) -0.35860(3)
Co2_2 Co -0.67768(5) 0.07187(3) 0.55203(3)
Co2_3 Co 0.32232(5) 1.07187(3) -0.44797(3)
Co2A Co -0.32232(5) -0.07187(3) 0.44797(3)
Co3_2 Co -0.69404(5) 0.45513(3) 0.45540(3)
Co3A Co -0.30596(5) 0.54487(3) 0.54460(3)
N5A N 0.0622(3) 0.3692(2) 0.21404(19)
N7_2 N 0.3419(4) 0.0028(2) 0.6916(2)
O1_2 O 0.5324(3) 0.13976(17) 0.46388(17)
O2A O 0.2644(3) -0.01709(17) 0.50772(19)
O7_2 O 0.5368(3) 0.46681(17) 0.41230(17)
O8A O 0.2179(3) 0.51627(16) 0.53550(17)
loop_
_geom_bond_atom_site_label_1
_geom_bond_atom_site_label_2
_geom_bond_site_symmetry_1
_geom_bond_site_symmetry_2
C1 H1 1_555 1_555
H2 C1 1_555 1_555
C2 H3 1_555 1_555
H4 C2 1_555 1_555
C3 H5 1_555 1_555
H6 C3 1_555 1_555
C4 H7 1_555 1_555
C5 C4 1_555 1_555
H8 C5 1_555 1_555
C6 H9 1_555 1_555
C7 C8 1_555 1_555
C8 H10 1_555 1_555
C9 C8 1_555 1_555
C10 H11 1_555 1_555
C11 C10 1_555 1_555
H12 C11 1_555 1_555
C12 H13 1_555 1_555
C13 C9 1_555 1_555
H14 C13 1_555 1_555
C14 C13 1_555 1_555
C15 C7 1_555 1_555
H15 C15 1_555 1_555
C16 H16 1_555 1_555
C17 C16 1_555 1_555
H17 C17 1_555 1_555
C18 H18 1_555 1_555
Co1 N1 1_555 1_555
Co2 O4 1_555 1_555
Co3 N2 1_555 1_555
N1 C1 1_555 1_555
N2 C4 1_555 1_555
N3 C5 1_555 1_555
N4 C9 1_555 1_555
N5 C11 1_555 1_555
N6 C14 1_555 1_555
N7 C17 1_555 1_555
O1 P1 1_555 1_555
O2 P1 1_555 1_555
O3 Co1 1_555 1_555
O4 P2 1_555 1_555
O5 Co3 1_555 1_555
O6 Co1 1_555 1_555
O7 P3 1_555 1_555
O8 P3 1_555 1_555
O9 Co1 1_555 1_555
P1 C1 1_555 1_555
P2 C2 1_555 1_555
P3 C3 1_555 1_555
Co1A N5 1_555 1_555
Co2_2 O1 1_555 1_555
Co2_3 N7 1_555 1_555
Co2A O2 1_555 1_555
Co3_2 O7 1_555 1_555
Co3A O8 1_555 1_555
N5A Co1 1_555 1_555
N7_2 Co2 1_555 1_555
O1_2 Co2 1_555 1_555
O2A Co2 1_555 1_555
O7_2 Co3 1_555 1_555
O8A Co3 1_555 1_555
C2 N1 1_555 1_555
C3 N1 1_555 1_555
C6 N2 1_555 1_555
C6 N3 1_555 1_555
C7 N3 1_555 1_555
C10 N4 1_555 1_555
C12 N4 1_555 1_555
C12 N5 1_555 1_555
C14 C15 1_555 1_555
C16 N6 1_555 1_555
C18 N6 1_555 1_555
C18 N7 1_555 1_555
O3 P1 1_555 1_555
O5 P2 1_555 1_555
O6 P2 1_555 1_555
O9 P3 1_555 1_555

#END
