
#######################################################################
#
#                 Cambridge Crystallographic Data Centre
#                                CCDC 
#
#######################################################################
#
# If this CIF has been generated from an entry in the Cambridge 
# Structural Database, then it will include bibliographic, chemical, 
# crystal, experimental, refinement or atomic coordinate data resulting 
# from the CCDC's data processing and validation procedures.
#
#######################################################################

data_MOVFOU
_chemical_formula_moiety         '(C73 H63 Co2 N5 O17)n'
_symmetry_cell_setting           monoclinic
_symmetry_space_group_name_H-M   'P 21/c'
_symmetry_Int_Tables_number      14
_space_group_name_Hall           '-P 2ybc'
loop_
_symmetry_equiv_pos_site_id
_symmetry_equiv_pos_as_xyz
1 x,y,z
2 -x,1/2+y,1/2-z
3 -x,-y,-z
4 x,1/2-y,1/2+z
_cell_length_a                   12.293(3)
_cell_length_b                   18.583(4)
_cell_length_c                   14.538(3)
_cell_angle_alpha                90
_cell_angle_beta                 97.063(4)
_cell_angle_gamma                90
_cell_volume                     3295.87
loop_
_atom_site_label
_atom_site_type_symbol
_atom_site_fract_x
_atom_site_fract_y
_atom_site_fract_z
Co1 Co 0.5000 0.0000 0.0000
Co2 Co 1.0000 0.5000 -0.5000
C1 C 0.53764(16) 0.09368(11) 0.28143(13)
C2 C 0.48533(16) 0.14311(11) 0.33023(14)
H1 H 0.4397 0.1770 0.2981
C3 C 0.49889(17) 0.14406(11) 0.42837(15)
C4 C 0.56927(16) 0.09134(11) 0.47663(14)
C5 C 0.62879(16) 0.04250(11) 0.42672(14)
C6 C 0.61127(16) 0.04363(11) 0.33084(14)
C7 C 0.57243(17) 0.08926(12) 0.57493(15)
H2 H 0.6137 0.0541 0.6087
C8 C 0.51527(19) 0.13860(13) 0.62015(16)
H3 H 0.5185 0.1360 0.6843
C9 C 0.45198(19) 0.19292(12) 0.57240(15)
H4 H 0.4168 0.2273 0.6047
C10 C 0.44303(18) 0.19451(12) 0.47832(15)
H5 H 0.3994 0.2294 0.4462
C11 C 0.70517(18) -0.01372(12) 0.47594(15)
H6 H 0.7374 -0.0410 0.4292
H7 H 0.6613 -0.0469 0.5074
C12 C 0.79790(18) 0.01395(12) 0.54636(15)
C13 C 0.80500(17) -0.00922(11) 0.63795(15)
C14 C 0.88954(17) 0.01625(12) 0.70691(14)
C15 C 0.96829(16) 0.06170(11) 0.68118(14)
H8 H 1.0221 0.0791 0.7262
C16 C 0.96964(16) 0.08262(10) 0.58840(14)
C17 C 0.88259(17) 0.05903(11) 0.51970(14)
C18 C 0.88826(17) 0.07957(11) 0.42695(15)
H9 H 0.8330 0.0653 0.3811
C19 C 0.97397(18) 0.12030(12) 0.40290(16)
H10 H 0.9759 0.1328 0.3412
C20 C 1.05895(18) 0.14333(12) 0.47078(15)
H11 H 1.1163 0.1711 0.4541
C21 C 1.05609(17) 0.12441(12) 0.56117(15)
H12 H 1.1123 0.1394 0.6058
C22 C 0.50770(15) 0.09083(10) 0.17804(13)
C23 C 0.89338(17) -0.00648(11) 0.80622(14)
C24 C 0.64903(16) 0.06270(11) -0.13706(14)
H13 H 0.6480 0.0152 -0.1573
C25 C 0.69917(17) 0.11338(11) -0.18644(15)
H14 H 0.7315 0.0995 -0.2382
C26 C 0.70188(16) 0.18518(11) -0.15963(15)
C27 C 0.65609(17) 0.20099(12) -0.07858(14)
H15 H 0.6586 0.2477 -0.0556
C28 C 0.60698(17) 0.14703(11) -0.03259(15)
H16 H 0.5763 0.1592 0.0207
C29 C 0.74679(16) 0.24331(11) -0.21164(15)
H17 H 0.7484 0.2889 -0.1852
C30 C 0.78573(17) 0.23750(12) -0.29330(15)
H18 H 0.7867 0.1917 -0.3191
C31 C 0.82682(16) 0.29663(11) -0.34548(15)
C32 C 0.88291(17) 0.28378(12) -0.42137(15)
H19 H 0.8931 0.2367 -0.4404
C33 C 0.92383(17) 0.34067(12) -0.46905(15)
H20 H 0.9604 0.3302 -0.5198
C34 C 0.85512(16) 0.42256(12) -0.37363(14)
H21 H 0.8443 0.4701 -0.3572
C35 C 0.81116(17) 0.36926(11) -0.32359(14)
H22 H 0.7712 0.3813 -0.2755
O1 O 0.55321(11) 0.04183(8) 0.13389(9)
O2 O 0.37140(12) 0.07425(8) -0.01896(10)
H23 H 0.3840(19) 0.0909(13) 0.0338(13)
H24 H 0.3059(14) 0.0606(13) -0.0223(15)
O3 O 0.43841(12) 0.13441(8) 0.14087(10)
O4 O 0.85583(12) 0.56497(8) -0.49455(10)
H25 H 0.836(2) 0.5750(13) -0.5466(11)
H26 H 0.865(2) 0.6021(11) -0.4628(14)
O5 O 0.83455(12) -0.05981(8) 0.82385(10)
O6 O 0.95409(11) 0.02880(8) 0.86563(9)
O7 O 0.66636(13) -0.00460(7) 0.28157(10)
O8 O 0.72799(12) -0.05591(8) 0.66203(10)
N1 N 0.60111(13) 0.07828(9) -0.06052(12)
N2 N 0.91306(13) 0.40981(9) -0.44530(12)
C1B C 0.46236(16) -0.09368(11) -0.28143(13)
C2B C 0.51467(16) -0.14311(11) -0.33023(14)
H1B H 0.5603 -0.1770 -0.2981
C3B C 0.50111(17) -0.14406(11) -0.42837(15)
C4B C 0.43073(16) -0.09134(11) -0.47663(14)
C5B C 0.37121(16) -0.04250(11) -0.42672(14)
C6B C 0.38873(16) -0.04363(11) -0.33084(14)
C7B C 0.42757(17) -0.08926(12) -0.57493(15)
H2B H 0.3863 -0.0541 -0.6087
C8B C 0.48473(19) -0.13860(13) -0.62015(16)
H3B H 0.4815 -0.1360 -0.6843
C9B C 0.54802(19) -0.19292(12) -0.57240(15)
H4B H 0.5832 -0.2273 -0.6047
C10B C 0.55697(18) -0.19451(12) -0.47832(15)
H5B H 0.6006 -0.2294 -0.4462
C11B C 0.29483(18) 0.01372(12) -0.47594(15)
H6B H 0.2626 0.0410 -0.4292
H7B H 0.3387 0.0469 -0.5074
C12B C 0.20210(18) -0.01395(12) -0.54636(15)
C13B C 0.19500(17) 0.00922(11) -0.63795(15)
C14B C 0.11046(17) -0.01625(12) -0.70691(14)
C15B C 0.03171(16) -0.06170(11) -0.68118(14)
H8B H -0.0221 -0.0791 -0.7262
C16B C 0.03036(16) -0.08262(10) -0.58840(14)
C17B C 0.11741(17) -0.05903(11) -0.51970(14)
C18B C 0.11174(17) -0.07957(11) -0.42695(15)
H9B H 0.1670 -0.0653 -0.3811
C19B C 0.02603(18) -0.12030(12) -0.40290(16)
H10B H 0.0241 -0.1328 -0.3412
C20B C -0.05895(18) -0.14333(12) -0.47078(15)
H11B H -0.1163 -0.1711 -0.4541
C21B C -0.05609(17) -0.12441(12) -0.56117(15)
H12B H -0.1123 -0.1394 -0.6058
C22B C 0.49230(15) -0.09083(10) -0.17804(13)
C23B C 0.10662(17) 0.00648(11) -0.80622(14)
C24B C 0.35097(16) -0.06270(11) 0.13706(14)
H13B H 0.3520 -0.0152 0.1573
C25B C 0.30083(17) -0.11338(11) 0.18644(15)
H14B H 0.2685 -0.0995 0.2382
C26B C 0.29812(16) -0.18518(11) 0.15963(15)
C27B C 0.34391(17) -0.20099(12) 0.07858(14)
H15B H 0.3414 -0.2477 0.0556
C28B C 0.39302(17) -0.14703(11) 0.03259(15)
H16B H 0.4237 -0.1592 -0.0207
C29B C 0.25321(16) -0.24331(11) 0.21164(15)
H17B H 0.2516 -0.2889 0.1852
C30B C 0.21427(17) -0.23750(12) 0.29330(15)
H18B H 0.2133 -0.1917 0.3191
C31B C 0.17318(16) -0.29663(11) 0.34548(15)
C32B C 0.11709(17) -0.28378(12) 0.42137(15)
H19B H 0.1069 -0.2367 0.4404
C33B C 0.07617(17) -0.34067(12) 0.46905(15)
H20B H 0.0396 -0.3302 0.5198
C34B C 0.14488(16) -0.42256(12) 0.37363(14)
H21B H 0.1557 -0.4701 0.3572
C35B C 0.18884(17) -0.36926(11) 0.32359(14)
H22B H 0.2288 -0.3813 0.2755
O1B O 0.44679(11) -0.04183(8) -0.13389(9)
O2B O 0.62860(12) -0.07425(8) 0.01896(10)
H23B H 0.6160(19) -0.0909(13) -0.0338(13)
H24B H 0.6941(14) -0.0606(13) 0.0223(15)
O3B O 0.56159(12) -0.13441(8) -0.14087(10)
O5B O 0.16545(12) 0.05981(8) -0.82385(10)
O6B O 0.04591(11) -0.02880(8) -0.86563(9)
O7B O 0.33364(13) 0.00460(7) -0.28157(10)
O8B O 0.27201(12) 0.05591(8) -0.66203(10)
N1B N 0.39889(13) -0.07828(9) 0.06052(12)
N2B N 0.08694(13) -0.40981(9) 0.44530(12)
O4B O 1.14417(12) 0.43503(8) -0.50545(10)
H25B H 1.164(2) 0.4250(13) -0.4534(11)
H26B H 1.135(2) 0.3979(11) -0.5372(14)
Co2_2 Co -0.0000 -0.5000 0.5000
Co2A Co 0.0000 0.0000 -1.0000
Co2A_2 Co 1.0000 0.0000 1.0000
O6A O 1.04591(11) 0.52880(8) -0.36563(9)
O6C O 0.95409(11) 0.47120(8) -0.63437(9)
N2B_2 N 1.08694(13) 0.59019(9) -0.55470(12)
C36 C 0.8768(2) 0.77828(14) 0.18632(18)
H27 H 0.9348 0.7467 0.2015
C37 C 0.7983(2) 0.72798(13) 0.31687(18)
H28 H 0.8630 0.6986 0.3207
H29 H 0.7345 0.6979 0.3069
H30 H 0.7978 0.7543 0.3736
C38 C 0.7052(2) 0.82732(14) 0.22435(18)
H31 H 0.7136 0.8576 0.1722
H32 H 0.7022 0.8565 0.2784
H33 H 0.6385 0.8002 0.2120
O9 O 0.88038(16) 0.81716(10) 0.11656(13)
N3 N 0.79813(16) 0.77809(10) 0.24016(13)
loop_
_geom_bond_atom_site_label_1
_geom_bond_atom_site_label_2
_geom_bond_site_symmetry_1
_geom_bond_site_symmetry_2
Co1 O1 1_555 1_555
Co2 O4 1_555 1_555
C1 C2 1_555 1_555
C2 H1 1_555 1_555
C3 C2 1_555 1_555
C4 C3 1_555 1_555
C5 C4 1_555 1_555
C6 C1 1_555 1_555
C7 C4 1_555 1_555
H2 C7 1_555 1_555
C8 C7 1_555 1_555
H3 C8 1_555 1_555
C9 C8 1_555 1_555
H4 C9 1_555 1_555
C10 C3 1_555 1_555
H5 C10 1_555 1_555
C11 C5 1_555 1_555
H6 C11 1_555 1_555
H7 C11 1_555 1_555
C12 C11 1_555 1_555
C13 C12 1_555 1_555
C14 C13 1_555 1_555
C15 C14 1_555 1_555
H8 C15 1_555 1_555
C16 C15 1_555 1_555
C17 C12 1_555 1_555
C18 C17 1_555 1_555
H9 C18 1_555 1_555
C19 C18 1_555 1_555
H10 C19 1_555 1_555
C20 C19 1_555 1_555
H11 C20 1_555 1_555
C21 C16 1_555 1_555
H12 C21 1_555 1_555
C22 C1 1_555 1_555
C23 C14 1_555 1_555
C24 H13 1_555 1_555
C25 C24 1_555 1_555
H14 C25 1_555 1_555
C26 C25 1_555 1_555
C27 C26 1_555 1_555
H15 C27 1_555 1_555
C28 C27 1_555 1_555
H16 C28 1_555 1_555
C29 C26 1_555 1_555
H17 C29 1_555 1_555
C30 C29 1_555 1_555
H18 C30 1_555 1_555
C31 C30 1_555 1_555
C32 C31 1_555 1_555
H19 C32 1_555 1_555
C33 C32 1_555 1_555
H20 C33 1_555 1_555
C34 H21 1_555 1_555
C35 C31 1_555 1_555
H22 C35 1_555 1_555
O1 C22 1_555 1_555
O2 Co1 1_555 1_555
H23 O2 1_555 1_555
H24 O2 1_555 1_555
O3 C22 1_555 1_555
O4 H25 1_555 1_555
H26 O4 1_555 1_555
O5 C23 1_555 1_555
O6 C23 1_555 1_555
O7 C6 1_555 1_555
O8 C13 1_555 1_555
N1 Co1 1_555 1_555
N2 Co2 1_555 1_555
C36 H27 1_555 1_555
C37 H28 1_555 1_555
H29 C37 1_555 1_555
H30 C37 1_555 1_555
C38 H31 1_555 1_555
H32 C38 1_555 1_555
H33 C38 1_555 1_555
O9 C36 1_555 1_555
N3 C36 1_555 1_555
C1B C2B 1_555 1_555
C2B H1B 1_555 1_555
C3B C2B 1_555 1_555
C4B C3B 1_555 1_555
C5B C4B 1_555 1_555
C6B C1B 1_555 1_555
C7B C4B 1_555 1_555
H2B C7B 1_555 1_555
C8B C7B 1_555 1_555
H3B C8B 1_555 1_555
C9B C8B 1_555 1_555
H4B C9B 1_555 1_555
C10B C3B 1_555 1_555
H5B C10B 1_555 1_555
C11B C5B 1_555 1_555
H6B C11B 1_555 1_555
H7B C11B 1_555 1_555
C12B C11B 1_555 1_555
C13B C12B 1_555 1_555
C14B C13B 1_555 1_555
C15B C14B 1_555 1_555
H8B C15B 1_555 1_555
C16B C15B 1_555 1_555
C17B C12B 1_555 1_555
C18B C17B 1_555 1_555
H9B C18B 1_555 1_555
C19B C18B 1_555 1_555
H10B C19B 1_555 1_555
C20B C19B 1_555 1_555
H11B C20B 1_555 1_555
C21B C16B 1_555 1_555
H12B C21B 1_555 1_555
C22B C1B 1_555 1_555
C23B C14B 1_555 1_555
C24B H13B 1_555 1_555
C25B C24B 1_555 1_555
H14B C25B 1_555 1_555
C26B C25B 1_555 1_555
C27B C26B 1_555 1_555
H15B C27B 1_555 1_555
C28B C27B 1_555 1_555
H16B C28B 1_555 1_555
C29B C26B 1_555 1_555
H17B C29B 1_555 1_555
C30B C29B 1_555 1_555
H18B C30B 1_555 1_555
C31B C30B 1_555 1_555
C32B C31B 1_555 1_555
H19B C32B 1_555 1_555
C33B C32B 1_555 1_555
H20B C33B 1_555 1_555
C34B H21B 1_555 1_555
C35B C31B 1_555 1_555
H22B C35B 1_555 1_555
O1B Co1 1_555 1_555
O2B Co1 1_555 1_555
H23B O2B 1_555 1_555
H24B O2B 1_555 1_555
O3B C22B 1_555 1_555
O5B C23B 1_555 1_555
O6B C23B 1_555 1_555
O7B C6B 1_555 1_555
O8B C13B 1_555 1_555
N1B Co1 1_555 1_555
N2B C33B 1_555 1_555
O4B Co2 1_555 1_555
H25B O4B 1_555 1_555
H26B O4B 1_555 1_555
Co2_2 N2B 1_555 1_555
Co2A O6B 1_555 1_555
Co2A_2 O6 1_555 1_555
O6A Co2 1_555 1_555
O6C Co2 1_555 1_555
N2B_2 Co2 1_555 1_555
C5 C6 1_555 1_555
C9 C10 1_555 1_555
C16 C17 1_555 1_555
C20 C21 1_555 1_555
C24 N1 1_555 1_555
C28 N1 1_555 1_555
C33 N2 1_555 1_555
C34 C35 1_555 1_555
C34 N2 1_555 1_555
C37 N3 1_555 1_555
C38 N3 1_555 1_555
C5B C6B 1_555 1_555
C9B C10B 1_555 1_555
C16B C17B 1_555 1_555
C20B C21B 1_555 1_555
C22B O1B 1_555 1_555
C24B N1B 1_555 1_555
C28B N1B 1_555 1_555
C34B C35B 1_555 1_555
C34B N2B 1_555 1_555

#END
