
#######################################################################
#
#                 Cambridge Crystallographic Data Centre
#                                CCDC 
#
#######################################################################
#
# If this CIF has been generated from an entry in the Cambridge 
# Structural Database, then it will include bibliographic, chemical, 
# crystal, experimental, refinement or atomic coordinate data resulting 
# from the CCDC's data processing and validation procedures.
#
#######################################################################

data_OLAGIR
_chemical_formula_moiety         '(C8 H33 Co1 N6 O17 P4 Zn2)n'
_symmetry_cell_setting           orthorhombic
_symmetry_space_group_name_H-M   'F d d 2'
_symmetry_Int_Tables_number      43
_space_group_name_Hall           'F 2 -2d'
loop_
_symmetry_equiv_pos_site_id
_symmetry_equiv_pos_as_xyz
1 x,y,z
2 -x,-y,z
3 1/4+x,1/4-y,1/4+z
4 1/4-x,1/4+y,1/4+z
5 x,1/2+y,1/2+z
6 -x,1/2-y,1/2+z
7 1/4+x,3/4-y,3/4+z
8 1/4-x,3/4+y,3/4+z
9 1/2+x,y,1/2+z
10 1/2-x,-y,1/2+z
11 3/4+x,1/4-y,3/4+z
12 3/4-x,1/4+y,3/4+z
13 1/2+x,1/2+y,z
14 1/2-x,1/2-y,z
15 3/4+x,3/4-y,1/4+z
16 3/4-x,3/4+y,1/4+z
_cell_length_a                   9.271(4)
_cell_length_b                   19.781(9)
_cell_length_c                   27.045(8)
_cell_angle_alpha                90
_cell_angle_beta                 90
_cell_angle_gamma                90
_cell_volume                     4959.77
loop_
_atom_site_label
_atom_site_type_symbol
_atom_site_fract_x
_atom_site_fract_y
_atom_site_fract_z
Zn1 Zn 0.2500 0.2500 0.51073(3)
Zn2 Zn -0.2500 0.2500 0.65647(4)
P1 P 0.0227(2) 0.25325(9) 0.59284(8)
P2 P 0.3443(2) 0.10703(9) 0.47842(8)
O1 O 0.1039(5) 0.2113(2) 0.55483(18)
O2 O 0.3183(6) 0.1811(3) 0.46694(18)
O3 O -0.0976(5) 0.2118(2) 0.61622(19)
O4 O 0.4576(6) 0.0800(3) 0.4444(2)
O5 O -0.0447(6) 0.3165(3) 0.5686(2)
O6 O 0.1301(6) 0.2771(3) 0.6335(2)
H1 H 0.0870 0.3000 0.6540
O7 O 0.3785(6) 0.0960(3) 0.5337(2)
O8 O 0.1982(6) 0.0656(3) 0.4716(2)
H2 H 0.1701 0.0692 0.4430
P1M P 0.4773(2) 0.24675(9) 0.59284(8)
O1M O 0.3961(5) 0.2887(2) 0.55483(18)
O3M O 0.5976(5) 0.2882(2) 0.61622(19)
O5M O 0.5447(6) 0.1835(3) 0.5686(2)
O6M O 0.3699(6) 0.2229(3) 0.6335(2)
H1M H 0.4130 0.2000 0.6540
P2M P 0.1557(2) 0.39297(9) 0.47842(8)
O2M O 0.1817(6) 0.3189(3) 0.46694(18)
O4M O 0.0424(6) 0.4200(3) 0.4444(2)
O7M O 0.1215(6) 0.4040(3) 0.5337(2)
O8M O 0.3018(6) 0.4344(3) 0.4716(2)
H2M H 0.3299 0.4308 0.4430
O3M_2 O -0.4024(5) 0.2882(2) 0.61622(19)
O4B O -0.2924(6) 0.1700(3) 0.6944(2)
O4C O -0.2076(6) 0.3300(3) 0.6944(2)
Zn2G Zn 0.5000 -0.0000 0.40647(4)
Zn2_2 Zn 0.7500 0.2500 0.65647(4)
Zn2F Zn -0.0000 0.5000 0.40647(4)
Co1 Co 0.7500 0.2500 0.35184(5)
N1 N 0.7560(6) 0.1795(3) 0.4038(2)
H3 H 0.7233 0.1965 0.4325
H4 H 0.6991 0.1446 0.3951
N2 N 0.9600(7) 0.2406(3) 0.3505(3)
H5 H 0.9803 0.2092 0.3269
N3 N 0.7810(7) 0.3204(3) 0.3021(2)
H6 H 0.7308 0.3100 0.2747
H7 H 0.7470 0.3600 0.3137
C1 C 0.9069(9) 0.1558(4) 0.4099(3)
H8 H 0.9219 0.1407 0.4436
H9 H 0.9248 0.1178 0.3880
C2 C 1.0082(10) 0.2115(5) 0.3982(4)
H10 H 1.0057 0.2456 0.4240
H11 H 1.1059 0.1944 0.3955
C3 C 1.0237(9) 0.3035(4) 0.3339(3)
H12 H 1.1234 0.2963 0.3243
H13 H 1.0213 0.3368 0.3602
C4 C 0.9350(9) 0.3285(4) 0.2891(3)
H14 H 0.9565 0.3756 0.2823
H15 H 0.9580 0.3020 0.2600
N1M N 0.7440(6) 0.3205(3) 0.4038(2)
H3M H 0.7767 0.3035 0.4325
H4M H 0.8009 0.3554 0.3951
N2M N 0.5400(7) 0.2594(3) 0.3505(3)
H5M H 0.5197 0.2908 0.3269
N3M N 0.7190(7) 0.1796(3) 0.3021(2)
H6M H 0.7692 0.1900 0.2747
H7M H 0.7530 0.1400 0.3137
C1M C 0.5931(9) 0.3442(4) 0.4099(3)
H8M H 0.5781 0.3593 0.4436
H9M H 0.5752 0.3822 0.3880
C2M C 0.4918(10) 0.2885(5) 0.3982(4)
H10M H 0.4943 0.2544 0.4240
H11M H 0.3941 0.3056 0.3955
C3M C 0.4763(9) 0.1965(4) 0.3339(3)
H12M H 0.3766 0.2037 0.3243
H13M H 0.4787 0.1632 0.3602
C4M C 0.5650(9) 0.1715(4) 0.2891(3)
H14M H 0.5435 0.1244 0.2823
H15M H 0.5420 0.1980 0.2600
O9 O -0.2500 0.2500 0.5024(4)
loop_
_geom_bond_atom_site_label_1
_geom_bond_atom_site_label_2
_geom_bond_site_symmetry_1
_geom_bond_site_symmetry_2
Zn1 O1 1_555 1_555
Zn2 O3 1_555 1_555
Co1 N1 1_555 1_555
P1 O1 1_555 1_555
P2 O2 1_555 1_555
O2 Zn1 1_555 1_555
O3 P1 1_555 1_555
O4 P2 1_555 1_555
O5 P1 1_555 1_555
O6 P1 1_555 1_555
H1 O6 1_555 1_555
O7 P2 1_555 1_555
O8 P2 1_555 1_555
H2 O8 1_555 1_555
N1 H3 1_555 1_555
H4 N1 1_555 1_555
N2 Co1 1_555 1_555
H5 N2 1_555 1_555
N3 Co1 1_555 1_555
H6 N3 1_555 1_555
H7 N3 1_555 1_555
C1 N1 1_555 1_555
H8 C1 1_555 1_555
H9 C1 1_555 1_555
C2 N2 1_555 1_555
H10 C2 1_555 1_555
H11 C2 1_555 1_555
C3 N2 1_555 1_555
H12 C3 1_555 1_555
H13 C3 1_555 1_555
C4 N3 1_555 1_555
H14 C4 1_555 1_555
H15 C4 1_555 1_555
P1M O1M 1_555 1_555
O1M Zn1 1_555 1_555
O3M P1M 1_555 1_555
O5M P1M 1_555 1_555
O6M P1M 1_555 1_555
H1M O6M 1_555 1_555
P2M O2M 1_555 1_555
O2M Zn1 1_555 1_555
O4M P2M 1_555 1_555
O7M P2M 1_555 1_555
O8M P2M 1_555 1_555
H2M O8M 1_555 1_555
N1M Co1 1_555 1_555
H3M N1M 1_555 1_555
H4M N1M 1_555 1_555
N2M Co1 1_555 1_555
H5M N2M 1_555 1_555
N3M Co1 1_555 1_555
H6M N3M 1_555 1_555
H7M N3M 1_555 1_555
C1M N1M 1_555 1_555
H8M C1M 1_555 1_555
H9M C1M 1_555 1_555
C2M N2M 1_555 1_555
H10M C2M 1_555 1_555
H11M C2M 1_555 1_555
C3M N2M 1_555 1_555
H12M C3M 1_555 1_555
H13M C3M 1_555 1_555
C4M N3M 1_555 1_555
H14M C4M 1_555 1_555
H15M C4M 1_555 1_555
O3M_2 Zn2 1_555 1_555
O4B Zn2 1_555 1_555
O4C Zn2 1_555 1_555
Zn2G O4 1_555 1_555
Zn2_2 O3M 1_555 1_555
Zn2F O4M 1_555 1_555
C1 C2 1_555 1_555
C3 C4 1_555 1_555
C1M C2M 1_555 1_555
C3M C4M 1_555 1_555

#END
