
#######################################################################
#
#                 Cambridge Crystallographic Data Centre
#                                CCDC 
#
#######################################################################
#
# If this CIF has been generated from an entry in the Cambridge 
# Structural Database, then it will include bibliographic, chemical, 
# crystal, experimental, refinement or atomic coordinate data resulting 
# from the CCDC's data processing and validation procedures.
#
#######################################################################

data_OKABAE
_chemical_formula_moiety         '(C26 H16 Cu3 N4 O15)n'
_symmetry_cell_setting           hexagonal
_symmetry_space_group_name_H-M   'P 63/m m c'
_symmetry_Int_Tables_number      194
_space_group_name_Hall           '-P 6c 2c'
loop_
_symmetry_equiv_pos_site_id
_symmetry_equiv_pos_as_xyz
1 x,y,z
2 x-y,x,1/2+z
3 -y,x-y,z
4 -x,-y,1/2+z
5 -x+y,-x,z
6 y,-x+y,1/2+z
7 x-y,-y,-z
8 -y,-x,1/2-z
9 -x,-x+y,-z
10 -x+y,y,1/2-z
11 y,x,-z
12 x,x-y,1/2-z
13 -x,-y,-z
14 -x+y,-x,1/2-z
15 y,-x+y,-z
16 x,y,1/2-z
17 x-y,x,-z
18 -y,x-y,1/2-z
19 -x+y,y,z
20 y,x,1/2+z
21 x,x-y,z
22 x-y,-y,1/2+z
23 -y,-x,z
24 -x,-x+y,1/2+z
_cell_length_a                   18.4456(3)
_cell_length_b                   18.4456(3)
_cell_length_c                   39.5369(7)
_cell_angle_alpha                90
_cell_angle_beta                 90
_cell_angle_gamma                120
_cell_volume                     11649.8
loop_
_atom_site_label
_atom_site_type_symbol
_atom_site_fract_x
_atom_site_fract_y
_atom_site_fract_z
Cu1 Cu 0.47550(2) 0.52450(2) 0.52734(2)
Cu2 Cu 0.93759(5) 0.87517(10) 0.2500
O1 O 0.51919(18) 0.62862(17) 0.50181(8)
O2 O 0.56130(19) 0.5887(2) 0.45631(8)
O3 O 0.43781(19) 0.56219(19) 0.57217(15)
O4 O 0.8671(4) 0.8757(3) 0.28415(13)
O5 O 0.8669(3) 0.7338(5) 0.2500
N1 N 0.7146(4) 0.9214(3) 0.36753(13)
C1 C 0.5500(3) 0.6411(3) 0.47313(12)
C2 C 0.5562(4) 0.77809(19) 0.47257(16)
H1 H 0.5283 0.7641 0.4938
C3 C 0.5764(3) 0.7224(3) 0.45720(11)
C4 C 0.6193(3) 0.7448(3) 0.42683(11)
H2 H 0.6330 0.7071 0.4162
C5 C 0.6428(5) 0.8214(2) 0.41154(17)
C6 C 0.6944(5) 0.8472(2) 0.3802(2)
C7 C 0.7636(4) 0.9439(4) 0.34011(16)
H3 H 0.7809 0.9973 0.3305
C8 C 0.7903(5) 0.8951(2) 0.32518(18)
C9 C 0.8475(5) 0.9237(3) 0.29648(18)
Cu1B Cu 0.47550(2) 0.95100(3) 0.52734(2)
Cu1J Cu 0.52450(2) 0.47550(2) 0.47266(2)
Cu1H Cu 0.52450(2) 1.04900(3) 0.47266(2)
Cu1I Cu 1.04900(3) 0.52450(2) -0.02734(2)
Cu1A Cu 0.95100(3) 0.47550(2) 0.02734(2)
Cu1K Cu 1.47550(2) 0.95100(3) -0.02734(2)
Cu1E Cu 1.52450(2) 1.04900(3) 0.02734(2)
Cu2K Cu 0.93759(5) 1.06242(11) 0.2500
Cu2B Cu 1.12483(10) 1.06242(11) 0.2500
O1T O 0.51919(18) 0.89057(25) 0.50181(8)
O1I O 1.10943(25) 0.62862(17) -0.00181(8)
O1Q O 1.37138(17) 0.89057(25) -0.00181(8)
O1V O 0.37138(17) 0.48081(18) 0.50181(8)
O1B O 0.37138(17) 0.89057(25) 0.50181(8)
O2T O 0.56130(19) 0.97260(28) 0.45631(8)
O2I O 1.02740(28) 0.5887(2) 0.04369(8)
O2Q O 1.4113(2) 0.97260(28) 0.04369(8)
O2J O 0.5887(2) 0.56130(19) 0.54369(8)
O2L O 0.43870(19) 0.4113(2) 0.54369(8)
O2N O 0.5887(2) 1.02740(28) 0.54369(8)
O2H O 0.43870(19) 1.02740(28) 0.54369(8)
O3B O 0.43781(19) 0.87562(27) 0.57217(15)
O4T O 0.8671(4) 0.9914(5) 0.28415(13)
O4I O 1.0086(5) 0.8757(3) 0.21585(13)
O4Q O 1.1243(3) 0.9914(5) 0.21585(13)
O4O O 0.8671(4) 0.8757(3) 0.21585(13)
O4R O 1.0086(5) 0.8757(3) 0.28415(13)
N1T N 0.7146(4) 0.7932(5) 0.36753(13)
N1I N 1.2068(5) 0.9214(3) 0.13247(13)
N1Q N 1.0786(3) 0.7932(5) 0.13247(13)
C1T C 0.5500(3) 0.9089(4) 0.47313(12)
C1I C 1.0911(4) 0.6411(3) 0.02687(12)
C1Q C 1.3589(3) 0.9089(4) 0.02687(12)
C2I C 1.22189(44) 0.77809(19) 0.02743(16)
H1I H 1.2358 0.7641 0.0062
C3T C 0.5764(3) 0.8540(4) 0.45720(11)
C3I C 1.1460(4) 0.7224(3) 0.04280(11)
C3Q C 1.2776(3) 0.8540(4) 0.04280(11)
C4T C 0.6193(3) 0.8745(4) 0.42683(11)
C4I C 1.1255(4) 0.7448(3) 0.07317(11)
C4Q C 1.2552(3) 0.8745(4) 0.07317(11)
H2T H 0.6330 0.9259 0.4162
H2I H 1.0741 0.7071 0.0838
H2Q H 1.2929 0.9259 0.0838
C5I C 1.1786(5) 0.8214(2) 0.08846(17)
C6I C 1.1528(5) 0.8472(2) 0.1198(2)
C7T C 0.7636(4) 0.8197(6) 0.34011(16)
C7I C 1.1803(6) 0.9439(4) 0.15989(16)
C7Q C 1.0561(4) 0.8197(6) 0.15989(16)
H3T H 0.7809 0.7836 0.3305
H3I H 1.2164 0.9973 0.1695
H3Q H 1.0027 0.7836 0.1695
C8I C 1.1048(5) 0.8951(2) 0.17482(18)
C9I C 1.0762(6) 0.9237(3) 0.20352(18)
loop_
_geom_bond_atom_site_label_1
_geom_bond_atom_site_label_2
_geom_bond_site_symmetry_1
_geom_bond_site_symmetry_2
Cu1 O1 1_555 1_555
Cu2 O4 1_555 1_555
O1 C1 1_555 1_555
O2 C1 1_555 1_555
O3 Cu1 1_555 1_555
O4 C9 1_555 1_555
O5 Cu2 1_555 1_555
N1 C6 1_555 1_555
C1 C3 1_555 1_555
C2 H1 1_555 1_555
C3 C2 1_555 1_555
C4 C3 1_555 1_555
H2 C4 1_555 1_555
C5 C4 1_555 1_555
C6 C5 1_555 1_555
C7 N1 1_555 1_555
H3 C7 1_555 1_555
C8 C7 1_555 1_555
C9 C8 1_555 1_555
Cu1B O1T 1_555 1_555
Cu1J O2 1_555 1_555
Cu1H O2T 1_555 1_555
Cu1I O1I 1_555 1_555
Cu1A O2I 1_555 1_555
Cu1K O1Q 1_555 1_555
Cu1E O2Q 1_555 1_555
Cu2K O4T 1_555 1_555
Cu2B O4Q 1_555 1_555
O1T C1T 1_555 1_555
O1I C1I 1_555 1_555
O1Q C1Q 1_555 1_555
O1V Cu1 1_555 1_555
O1B Cu1B 1_555 1_555
O2T C1T 1_555 1_555
O2I C1I 1_555 1_555
O2Q C1Q 1_555 1_555
O2J Cu1 1_555 1_555
O2L Cu1 1_555 1_555
O2N Cu1B 1_555 1_555
O2H Cu1B 1_555 1_555
O3B Cu1B 1_555 1_555
O4T C9 1_555 1_555
O4I Cu2 1_555 1_555
O4Q C9I 1_555 1_555
O4O Cu2 1_555 1_555
O4R Cu2 1_555 1_555
N1T C6 1_555 1_555
N1I C6I 1_555 1_555
N1Q C6I 1_555 1_555
C1T C3T 1_555 1_555
C1I C3I 1_555 1_555
C1Q C3Q 1_555 1_555
C2I H1I 1_555 1_555
C3T C2 1_555 1_555
C3I C2I 1_555 1_555
C3Q C2I 1_555 1_555
C4T C5 1_555 1_555
C4I C3I 1_555 1_555
C4Q C3Q 1_555 1_555
H2T C4T 1_555 1_555
H2I C4I 1_555 1_555
H2Q C4Q 1_555 1_555
C5I C4I 1_555 1_555
C6I C5I 1_555 1_555
C7T C8 1_555 1_555
C7I N1I 1_555 1_555
C7Q N1Q 1_555 1_555
H3T C7T 1_555 1_555
H3I C7I 1_555 1_555
H3Q C7Q 1_555 1_555
C8I C7I 1_555 1_555
C9I O4I 1_555 1_555
N1T C7T 1_555 1_555
C3T C4T 1_555 1_555
C4Q C5I 1_555 1_555
C7Q C8I 1_555 1_555
C8I C9I 1_555 1_555

#END
