
#######################################################################
#
#                 Cambridge Crystallographic Data Centre
#                                CCDC 
#
#######################################################################
#
# If this CIF has been generated from an entry in the Cambridge 
# Structural Database, then it will include bibliographic, chemical, 
# crystal, experimental, refinement or atomic coordinate data resulting 
# from the CCDC's data processing and validation procedures.
#
#######################################################################

data_OKABEI
_chemical_formula_moiety         'C26 H14 Cu11 N4 O22'
_symmetry_cell_setting           hexagonal
_symmetry_space_group_name_H-M   'P 63/m m c'
_symmetry_Int_Tables_number      194
_space_group_name_Hall           '-P 6c 2c'
loop_
_symmetry_equiv_pos_site_id
_symmetry_equiv_pos_as_xyz
1 x,y,z
2 x-y,x,1/2+z
3 -y,x-y,z
4 -x,-y,1/2+z
5 -x+y,-x,z
6 y,-x+y,1/2+z
7 x-y,-y,-z
8 -y,-x,1/2-z
9 -x,-x+y,-z
10 -x+y,y,1/2-z
11 y,x,-z
12 x,x-y,1/2-z
13 -x,-y,-z
14 -x+y,-x,1/2-z
15 y,-x+y,-z
16 x,y,1/2-z
17 x-y,x,-z
18 -y,x-y,1/2-z
19 -x+y,y,z
20 y,x,1/2+z
21 x,x-y,z
22 x-y,-y,1/2+z
23 -y,-x,z
24 -x,-x+y,1/2+z
_cell_length_a                   18.2056(3)
_cell_length_b                   18.2056(3)
_cell_length_c                   40.6655(7)
_cell_angle_alpha                90
_cell_angle_beta                 90
_cell_angle_gamma                120
_cell_volume                     11672.6
loop_
_atom_site_label
_atom_site_type_symbol
_atom_site_fract_x
_atom_site_fract_y
_atom_site_fract_z
_atom_site_U_iso_or_equiv
_atom_site_thermal_displace_type
Cu1 Cu 0.525145(18) 0.474855(18) 0.474603(14) 0.0303 Uani
Cu2 Cu 0.05828(3) 0.11655(7) 0.7500 0.0426 Uani
O1 O 0.57229(16) 0.42771(16) 0.43457(11) 0.0918 Uani
O2 O 0.48013(14) 0.37055(14) 0.50014(5) 0.0443 Uani
O3 O 0.43561(14) 0.41307(15) 0.54380(5) 0.0426 Uani
O4 O 0.1339(3) 0.1251(2) 0.71712(10) 0.1247 Uani
C1 C 0.4469(2) 0.3596(2) 0.52825(8) 0.0379 Uani
C2 C 0.4204(2) 0.2760(2) 0.54425(7) 0.0381 Uani
C3 C 0.3773(2) 0.2550(2) 0.57387(8) 0.0443 Uani
H1 H 0.3620(19) 0.298(2) 0.5834(7) 0.0370 Uiso
C4 C 0.4406(3) 0.22028(16) 0.52912(11) 0.0400 Uani
C5 C 0.3545(3) 0.17725(16) 0.58883(11) 0.0462 Uani
C6 C 0.3071(3) 0.15354(17) 0.62053(12) 0.0493 Uani
H2 H 0.3033 0.2590 0.6251 0.1330 Uiso
N1 N 0.2854(4) 0.2048(3) 0.63438(11) 0.1106 Uani
C7 C 0.2371(4) 0.1801(4) 0.66212(13) 0.1108 Uani
H3 H 0.2215 0.2179 0.6717 0.1330 Uiso
C8 C 0.2111(3) 0.10553(17) 0.67632(11) 0.0476 Uani
C9 C 0.1545(3) 0.07727(17) 0.70560(11) 0.0464 Uani
H4 H 0.466(3) 0.2331(13) 0.5098(11) 0.0300 Uiso
Cu1B Cu 0.525145(18) 0.050290(25) 0.474603(14) 0.0303 Uani
Cu1J Cu 0.474855(18) 0.525145(18) 0.525397(14) 0.0303 Uani
Cu1H Cu 0.474855(18) -0.050290(25) 0.525397(14) 0.0303 Uani
Cu1I Cu -0.050290(25) 0.474855(18) 1.025397(14) 0.0303 Uani
Cu1A Cu 0.050290(25) 0.525145(18) 0.974603(14) 0.0303 Uani
Cu1K Cu -0.474855(18) 0.050290(25) 1.025397(14) 0.0303 Uani
Cu1E Cu -0.525145(18) -0.050290(25) 0.974603(14) 0.0303 Uani
Cu2K Cu 0.05828(3) -0.05827(8) 0.7500 0.0426 Uani
Cu2B Cu -0.11655(7) -0.05827(8) 0.7500 0.0426 Uani
O1B O 0.57229(16) 0.14458(23) 0.43457(11) 0.0918 Uani
O2T O 0.48013(14) 0.10958(20) 0.50014(5) 0.0443 Uani
O2I O -0.10958(20) 0.37055(14) 0.99986(5) 0.0443 Uani
O2Q O -0.37055(14) 0.10958(20) 0.99986(5) 0.0443 Uani
O2V O 0.62945(14) 0.51987(14) 0.50014(5) 0.0443 Uani
O2B O 0.62945(14) 0.10958(20) 0.50014(5) 0.0443 Uani
O3T O 0.43561(14) 0.02254(21) 0.54380(5) 0.0426 Uani
O3I O -0.02254(21) 0.41307(15) 0.95620(5) 0.0426 Uani
O3Q O -0.41307(15) 0.02254(21) 0.95620(5) 0.0426 Uani
O3J O 0.41307(15) 0.43561(14) 0.45620(5) 0.0426 Uani
O3L O 0.56439(14) 0.58693(15) 0.45620(5) 0.0426 Uani
O3N O 0.41307(15) -0.02254(21) 0.45620(5) 0.0426 Uani
O3H O 0.56439(14) -0.02254(21) 0.45620(5) 0.0426 Uani
O4T O 0.1339(3) 0.0088(4) 0.71712(10) 0.1247 Uani
O4I O -0.0088(4) 0.1251(2) 0.78288(10) 0.1247 Uani
O4Q O -0.1251(2) 0.0088(4) 0.78288(10) 0.1247 Uani
O4O O 0.1339(3) 0.1251(2) 0.78288(10) 0.1247 Uani
O4R O -0.0088(4) 0.1251(2) 0.71712(10) 0.1247 Uani
C1T C 0.4469(2) 0.0873(3) 0.52825(8) 0.0379 Uani
C1I C -0.0873(3) 0.3596(2) 0.97175(8) 0.0379 Uani
C1Q C -0.3596(2) 0.0873(3) 0.97175(8) 0.0379 Uani
C2T C 0.4204(2) 0.1444(3) 0.54425(7) 0.0381 Uani
C2I C -0.1444(3) 0.2760(2) 0.95575(7) 0.0381 Uani
C2Q C -0.2760(2) 0.1444(3) 0.95575(7) 0.0381 Uani
C3T C 0.3773(2) 0.1223(3) 0.57387(8) 0.0443 Uani
C3I C -0.1223(3) 0.2550(2) 0.92613(8) 0.0443 Uani
C3Q C -0.2550(2) 0.1223(3) 0.92613(8) 0.0443 Uani
H1T H 0.3620(19) 0.0640(28) 0.5834(7) 0.0370 Uiso
H1I H -0.0640(28) 0.298(2) 0.9166(7) 0.0370 Uiso
H1Q H -0.298(2) 0.0640(28) 0.9166(7) 0.0370 Uiso
C4I C -0.22032(34) 0.22028(16) 0.97088(11) 0.0400 Uani
C5I C -0.17725(34) 0.17725(16) 0.91117(11) 0.0462 Uani
C6I C -0.15356(34) 0.15354(17) 0.87947(12) 0.0493 Uani
H2T H 0.3033 0.0443 0.6251 0.1330 Uiso
H2I H -0.0443 0.2590 0.8749 0.1330 Uiso
H2Q H -0.2590 0.0443 0.8749 0.1330 Uiso
N1T N 0.2854(4) 0.0806(5) 0.63438(11) 0.1106 Uani
N1I N -0.0806(5) 0.2048(3) 0.86562(11) 0.1106 Uani
N1Q N -0.2048(3) 0.0806(5) 0.86562(11) 0.1106 Uani
C7T C 0.2371(4) 0.0570(6) 0.66212(13) 0.1108 Uani
C7I C -0.0570(6) 0.1801(4) 0.83788(13) 0.1108 Uani
C7Q C -0.1801(4) 0.0570(6) 0.83788(13) 0.1108 Uani
H3T H 0.2215 0.0036 0.6717 0.1330 Uiso
H3I H -0.0036 0.2179 0.8283 0.1330 Uiso
H3Q H -0.2179 0.0036 0.8283 0.1330 Uiso
C8I C -0.10557(34) 0.10553(17) 0.82368(11) 0.0476 Uani
C9I C -0.07723(34) 0.07727(17) 0.79440(11) 0.0464 Uani
H4I H -0.2329(33) 0.2331(13) 0.9902(11) 0.0300 Uiso
loop_
_atom_site_aniso_label
_atom_site_aniso_U_11
_atom_site_aniso_U_22
_atom_site_aniso_U_33
_atom_site_aniso_U_23
_atom_site_aniso_U_13
_atom_site_aniso_U_12
Cu1 0.0355(4) 0.0355(4) 0.0243(4) -0.00225(12) 0.00225(12) 0.0211(3)
Cu2 0.0464(5) 0.0629(7) 0.0240(5) 0.000 0.000 0.0314(4)
O1 0.097(2) 0.097(2) 0.082(3) -0.0327(14) 0.0327(14) 0.049(3)
O2 0.0594(15) 0.0405(13) 0.0373(12) 0.0048(10) 0.0111(11) 0.0281(12)
O3 0.0532 0.0389 0.0385 0.0026 0.0093 0.0252
O4 0.186(4) 0.116(3) 0.122(3) 0.071(2) 0.119(3) 0.113(3)
C1 0.0402(19) 0.0402(19) 0.0340(16) 0.0041(14) 0.0019(13) 0.0206(16)
C2 0.0446(19) 0.0387(18) 0.0331(16) 0.0026(14) 0.0044(14) 0.0224(16)
C3 0.051(2) 0.045(2) 0.0422(18) 0.0048(16) 0.0104(16) 0.0279(18)
C4 0.046(3) 0.042(2) 0.033(2) 0.0031(10) 0.006(2) 0.0228(15)
C5 0.053(3) 0.049(2) 0.038(2) 0.0077(11) 0.015(2) 0.0265(15)
C6 0.057(3) 0.053(2) 0.039(3) 0.0079(12) 0.016(2) 0.0284(16)
N1 0.179(5) 0.096(3) 0.097(3) 0.061(3) 0.100(4) 0.099(4)
C7 0.187(6) 0.103(4) 0.091(4) 0.053(3) 0.091(4) 0.109(5)
C8 0.057(3) 0.053(2) 0.034(2) 0.0066(11) 0.013(2) 0.0284(16)
C9 0.047(3) 0.059(2) 0.029(2) 0.0018(11) 0.004(2) 0.0234(15)
Cu1B 0.0355 0.0288 0.0243 0.0045 0.00225 0.0144
Cu1J 0.0355 0.0355 0.0243 -0.00225 0.00225 0.0211
Cu1H 0.0355 0.0288 0.0243 0.0045 0.00225 0.0144
Cu1I 0.0288 0.0355 0.0243 0.00225 0.0045 0.0144
Cu1A 0.0288 0.0355 0.0243 0.00225 0.0045 0.0144
Cu1K 0.0355 0.0288 0.0243 -0.0045 -0.00225 0.0144
Cu1E 0.0355 0.0288 0.0243 -0.0045 -0.00225 0.0144
Cu2K 0.0465 0.0464 0.024 0 0 0.015
Cu2B 0.0629 0.0465 0.024 0 0 0.0315
O1B 0.097 0.096 0.082 0.0654 0.0327 0.048
O2T 0.0594 0.0437 0.0373 0.0063 0.0111 0.0313
O2I 0.0437 0.0405 0.0373 -0.0048 0.0063 0.0124
O2Q 0.0405 0.0437 0.0373 -0.0063 0.0048 0.0124
O2V 0.0405 0.0594 0.0373 -0.0111 -0.0048 0.0281
O2B 0.0405 0.0437 0.0373 0.0063 -0.0048 0.0124
O3T 0.0532 0.0417 0.0385 0.0067 0.0093 0.028
O3I 0.0417 0.0389 0.0385 -0.0026 0.0067 0.0137
O3Q 0.0389 0.0417 0.0385 -0.0067 0.0026 0.0137
O3J 0.0389 0.0532 0.0385 -0.0093 -0.0026 0.0252
O3L 0.0532 0.0389 0.0385 0.0026 0.0093 0.0252
O3N 0.0389 0.0417 0.0385 0.0067 -0.0026 0.0137
O3H 0.0532 0.0417 0.0385 0.0067 0.0093 0.028
O4T 0.186 0.076 0.122 0.048 0.119 0.073
O4I 0.076 0.116 0.122 -0.071 0.048 0.003
O4Q 0.116 0.076 0.122 -0.048 0.071 0.003
O4O 0.186 0.116 0.122 -0.071 -0.119 0.113
O4R 0.076 0.116 0.122 0.071 -0.048 0.003
C1T 0.0402 0.0392 0.034 -0.0022 0.0019 0.0196
C1I 0.0392 0.0402 0.034 -0.0041 -0.0022 0.0196
C1Q 0.0402 0.0392 0.034 0.0022 0.0041 0.0196
C2T 0.0446 0.0385 0.0331 0.0018 0.0044 0.0222
C2I 0.0385 0.0387 0.0331 -0.0026 0.0018 0.0163
C2Q 0.0387 0.0385 0.0331 -0.0018 0.0026 0.0163
C3T 0.051 0.0402 0.0422 0.0056 0.0104 0.0231
C3I 0.0402 0.045 0.0422 -0.0048 0.0056 0.0171
C3Q 0.045 0.0402 0.0422 -0.0056 0.0048 0.0171
C4I 0.042 0.0424 0.033 -0.0029 0.0031 0.0192
C5I 0.049 0.049 0.038 -0.0073 0.0077 0.0225
C6I 0.053 0.0532 0.039 -0.0081 0.0079 0.0246
N1T 0.179 0.077 0.097 0.039 0.1 0.08
N1I 0.077 0.096 0.097 -0.061 0.039 -0.003
N1Q 0.096 0.077 0.097 -0.039 0.061 -0.003
C7T 0.187 0.072 0.091 0.038 0.091 0.078
C7I 0.072 0.103 0.091 -0.053 0.038 -0.006
C7Q 0.103 0.072 0.091 -0.038 0.053 -0.006
C8I 0.053 0.0532 0.034 -0.0064 0.0066 0.0246
C9I 0.059 0.0592 0.029 -0.0022 0.0018 0.0356
loop_
_geom_bond_atom_site_label_1
_geom_bond_atom_site_label_2
_geom_bond_site_symmetry_1
_geom_bond_site_symmetry_2
Cu1 O1 1_555 1_555
Cu2 O4 1_555 1_555
O2 Cu1 1_555 1_555
O3 C1 1_555 1_555
O4 C9 1_555 1_555
C1 O2 1_555 1_555
C2 C1 1_555 1_555
C3 C2 1_555 1_555
H1 C3 1_555 1_555
C4 C2 1_555 1_555
C5 C3 1_555 1_555
C6 C5 1_555 1_555
H2 N1 1_555 1_555
N1 C6 1_555 1_555
C7 N1 1_555 1_555
H3 C7 1_555 1_555
C8 C7 1_555 1_555
C9 C8 1_555 1_555
H4 C4 1_555 1_555
Cu1B O1B 1_555 1_555
Cu1J O3 1_555 1_555
Cu1H O3T 1_555 1_555
Cu1I O2I 1_555 1_555
Cu1A O3I 1_555 1_555
Cu1K O2Q 1_555 1_555
Cu1E O3Q 1_555 1_555
Cu2K O4T 1_555 1_555
Cu2B O4Q 1_555 1_555
O2T Cu1B 1_555 1_555
O2I C1I 1_555 1_555
O2Q C1Q 1_555 1_555
O2V Cu1 1_555 1_555
O2B Cu1B 1_555 1_555
O3T C1T 1_555 1_555
O3I C1I 1_555 1_555
O3Q C1Q 1_555 1_555
O3J Cu1 1_555 1_555
O3L Cu1 1_555 1_555
O3N Cu1B 1_555 1_555
O3H Cu1B 1_555 1_555
O4T C9 1_555 1_555
O4I Cu2 1_555 1_555
O4Q C9I 1_555 1_555
O4O Cu2 1_555 1_555
O4R Cu2 1_555 1_555
C1T O2T 1_555 1_555
C1I C2I 1_555 1_555
C1Q C2Q 1_555 1_555
C2T C4 1_555 1_555
C2I C3I 1_555 1_555
C2Q C3Q 1_555 1_555
C3T C5 1_555 1_555
C3I H1I 1_555 1_555
C3Q H1Q 1_555 1_555
H1T C3T 1_555 1_555
C4I C2I 1_555 1_555
C5I C3I 1_555 1_555
C6I C5I 1_555 1_555
H2T N1T 1_555 1_555
H2I N1I 1_555 1_555
H2Q N1Q 1_555 1_555
N1T C6 1_555 1_555
N1I C6I 1_555 1_555
N1Q C6I 1_555 1_555
C7T C8 1_555 1_555
C7I N1I 1_555 1_555
C7Q N1Q 1_555 1_555
H3T C7T 1_555 1_555
H3I C7I 1_555 1_555
H3Q C7Q 1_555 1_555
C8I C7I 1_555 1_555
C9I O4I 1_555 1_555
H4I C4I 1_555 1_555
C1T C2T 1_555 1_555
C2T C3T 1_555 1_555
C2Q C4I 1_555 1_555
C3Q C5I 1_555 1_555
N1T C7T 1_555 1_555
C7Q C8I 1_555 1_555
C8I C9I 1_555 1_555

#END
