
#######################################################################
#
#                 Cambridge Crystallographic Data Centre
#                                CCDC 
#
#######################################################################
#
# If this CIF has been generated from an entry in the Cambridge 
# Structural Database, then it will include bibliographic, chemical, 
# crystal, experimental, refinement or atomic coordinate data resulting 
# from the CCDC's data processing and validation procedures.
#
#######################################################################

data_GUGJEZ
_chemical_formula_moiety         '(C168 H96 N12 O58 Zn16)n'
_symmetry_cell_setting           rhombohedral
_symmetry_space_group_name_H-M   'R -3'
_symmetry_Int_Tables_number      148
_space_group_name_Hall           '-R 3'
loop_
_symmetry_equiv_pos_site_id
_symmetry_equiv_pos_as_xyz
1 x,y,z
2 -y,x-y,z
3 -x+y,-x,z
4 2/3+x,1/3+y,1/3+z
5 2/3-y,1/3+x-y,1/3+z
6 2/3-x+y,1/3-x,1/3+z
7 1/3+x,2/3+y,2/3+z
8 1/3-y,2/3+x-y,2/3+z
9 1/3-x+y,2/3-x,2/3+z
10 -x,-y,-z
11 y,-x+y,-z
12 x-y,x,-z
13 1/3-x,2/3-y,2/3-z
14 1/3+y,2/3-x+y,2/3-z
15 1/3+x-y,2/3+x,2/3-z
16 2/3-x,1/3-y,1/3-z
17 2/3+y,1/3-x+y,1/3-z
18 2/3+x-y,1/3+x,1/3-z
_cell_length_a                   51.070(5)
_cell_length_b                   51.070(5)
_cell_length_c                   29.743(5)
_cell_angle_alpha                90
_cell_angle_beta                 90
_cell_angle_gamma                120
_cell_volume                     67181.1
loop_
_atom_site_label
_atom_site_type_symbol
_atom_site_fract_x
_atom_site_fract_y
_atom_site_fract_z
C1 C 0.5800(15) 0.8858(18) 0.049(2)
C2 C 0.5671(11) 0.8292(14) 0.0660(16)
H1 H 0.5537 0.8218 0.0419
C3 C 0.5701(12) 0.8062(13) 0.0886(18)
H2 H 0.5582 0.7858 0.0814
C4 C 0.5923(12) 0.8163(12) 0.1225(18)
C5 C 0.6073(9) 0.8484(10) 0.1364(13)
C6 C 0.5997(9) 0.867(1) 0.1089(14)
H3 H 0.6103 0.8872 0.1173
C7 C 0.5802(11) 0.8616(13) 0.0723(17)
C8 C 0.6250(6) 0.8507(9) 0.1751(8)
C9 C 0.6201(6) 0.8219(7) 0.1846(10)
C10 C 0.6350(7) 0.8176(6) 0.2205(12)
H4 H 0.6318 0.7984 0.2269
C11 C 0.6546(6) 0.8421(9) 0.2470(8)
H5 H 0.6646 0.8392 0.2710
C12 C 0.6595(5) 0.8708(7) 0.2375(10)
C13 C 0.6446(7) 0.8751(6) 0.2016(11)
H6 H 0.6478 0.8943 0.1952
C14 C 0.6807(11) 0.8981(17) 0.268(2)
C15 C 0.5780(12) 0.9772(10) 0.0901(12)
C16 C 0.5740(7) 1.0117(9) 0.1406(14)
H7 H 0.5611 1.0126 0.1194
C17 C 0.5880(9) 0.9948(7) 0.1321(10)
C18 C 0.6073(7) 0.9936(7) 0.1638(16)
H8 H 0.6166 0.9823 0.1581
C19 C 0.6127(7) 1.0093(9) 0.2041(12)
C20 C 0.5988(10) 1.0262(8) 0.2126(11)
C21 C 0.5794(9) 1.0274(8) 0.1809(18)
H9 H 0.5701 1.0388 0.1866
C22 C 0.6501(10) 1.0018(7) 0.2544(16)
H10 H 0.6522 0.9886 0.2351
C23 C 0.6329(9) 1.0146(11) 0.2413(11)
C24 C 0.6297(10) 1.0343(11) 0.270(2)
C25 C 0.6437(12) 1.0411(9) 0.3119(18)
H11 H 0.6415 1.0543 0.3311
C26 C 0.6609(10) 1.0283(11) 0.3249(10)
H12 H 0.6703 1.0328 0.3529
C27 C 0.6641(8) 1.0086(10) 0.2962(19)
C28 C 0.6841(13) 0.9987(17) 0.317(2)
C29 C 0.5329(11) 0.8896(16) -0.1069(19)
C30 C 0.5216(14) 0.8897(11) -0.185(3)
H13 H 0.5355 0.9103 -0.1835
C31 C 0.5153(11) 0.8720(18) -0.147(2)
C32 C 0.4944(14) 0.8412(16) -0.148(2)
H14 H 0.4902 0.8293 -0.1228
C33 C 0.4799(10) 0.8282(12) -0.189(3)
C34 C 0.4862(17) 0.846(2) -0.2270(19)
C35 C 0.507(2) 0.877(2) -0.225(2)
H15 H 0.5112 0.8886 -0.2507
C36 C 0.4347(16) 0.7722(18) -0.1749(12)
H16 H 0.4392 0.7719 -0.1447
C37 C 0.4526(9) 0.7975(12) -0.201(3)
C38 C 0.4458(16) 0.7979(14) -0.246(3)
C39 C 0.4210(18) 0.773(2) -0.2651(12)
H17 H 0.4164 0.7733 -0.2953
C40 C 0.403(1) 0.7477(14) -0.239(3)
H18 H 0.3864 0.7311 -0.2518
C41 C 0.4098(13) 0.7473(11) -0.194(2)
C42 C 0.3880(18) 0.7201(18) -0.173(3)
C43 C 0.4900(12) 0.8969(15) 0.0262(16)
C44 C 0.4371(14) 0.8483(13) 0.0280(12)
H19 H 0.4445 0.8386 0.0099
C45 C 0.4585(12) 0.8772(14) 0.0414(14)
C46 C 0.4484(17) 0.8922(15) 0.0674(17)
H20 H 0.4625 0.9116 0.0768
C47 C 0.420(2) 0.881(2) 0.080(2)
H21 H 0.4137 0.8918 0.0986
C48 C 0.398(3) 0.849(3) 0.063(3)
C49 C 0.4068(19) 0.8317(19) 0.0371(19)
C50 C 0.353(2) 0.7564(19) -0.001(2)
C51 C 0.3793(16) 0.7802(17) 0.0049(17)
H22 H 0.3965 0.7804 -0.0059
C52 C 0.382(2) 0.804(2) 0.025(2)
C53 C 0.359(3) 0.804(3) 0.046(3)
C54 C 0.331(3) 0.781(3) 0.050(2)
H23 H 0.3160 0.7817 0.0672
C55 C 0.325(2) 0.757(2) 0.026(3)
H24 H 0.3055 0.7408 0.0237
C56 C 0.346(2) 0.728(2) -0.026(3)
O1 O 0.5654(7) 0.9335(7) -0.0101(10)
O2 O 0.5567(7) 0.8695(7) 0.0248(10)
O3 O 0.5950(8) 0.9084(9) 0.058(1)
O4 O 0.5935(7) 0.9647(7) 0.0813(10)
O5 O 0.5604(8) 0.9776(7) 0.0634(12)
O6 O 0.6880(8) 0.9217(11) 0.2501(10)
O7 O 0.6900(8) 0.8920(11) 0.3032(12)
O8 O 0.5038(8) 0.9226(9) 0.0333(10)
O9 O 0.4992(7) 0.8792(7) 0.0119(10)
O10 O 0.5469(10) 0.9171(12) -0.1087(14)
O11 O 0.5287(7) 0.8729(7) -0.0716(13)
O12 O 0.6829(8) 0.9769(8) 0.2864(11)
O13 O 0.7018(10) 1.0047(9) 0.3481(13)
O14 O 0.3333 0.6667 -0.099(2)
O15 O 0.3673(12) 0.7025(11) -0.1890(15)
O16 O 0.3958(8) 0.7235(8) -0.1261(14)
O17 O 0.3175(11) 0.7096(14) -0.0400(14)
O18 O 0.3678(9) 0.7292(8) -0.0419(12)
O19 O 0.6048(9) 0.9696(9) -0.1426(13)
O20 O 0.6047(10) 0.9176(10) -0.0704(14)
Zn1 Zn 0.5426(1) 0.9524(1) 0.0106(2)
Zn2 Zn 0.5979(1) 0.9433(1) 0.0293(2)
Zn3 Zn 0.5400(1) 0.8909(1) -0.0145(2)
Zn4 Zn 0.5826(1) 0.9492(2) -0.0726(2)
Zn5 Zn 0.3721(2) 0.6986(2) -0.0762(2)
Zn6 Zn 0.3333 0.6667 -0.1621(4)
N1 N 0.6003(8) 0.8032(9) 0.1537(12)
H25 H 0.5933 0.7840 0.1543
N2 N 0.6135(13) 1.0437(14) 0.248(2)
H26 H 0.6126 1.0595 0.2550
N3 N 0.4630(19) 0.831(2) -0.264(3)
H27 H 0.4603 0.8379 -0.2883
N4 N 0.3650(17) 0.8285(18) 0.0693(18)
H28 H 0.3526 0.8318 0.0845
C1A C 0.1142(18) 0.6942(23) 0.049(2)
C2A C 0.1708(14) 0.7379(18) 0.0660(16)
H1A H 0.1782 0.7319 0.0419
C3A C 0.1938(13) 0.7639(18) 0.0886(18)
H2A H 0.2142 0.7724 0.0814
C4A C 0.1837(12) 0.7760(17) 0.1225(18)
C5A C 0.1516(10) 0.7589(13) 0.1364(13)
C6A C 0.133(1) 0.7327(13) 0.1089(14)
H3A H 0.1128 0.7231 0.1173
C7A C 0.1384(13) 0.7186(17) 0.0723(17)
C8A C 0.1493(9) 0.7743(11) 0.1751(8)
C9A C 0.1781(7) 0.7982(9) 0.1846(10)
C10A C 0.1824(6) 0.8174(9) 0.2205(12)
H4A H 0.2016 0.8334 0.2269
C11A C 0.1579(9) 0.8125(11) 0.2470(8)
H5A H 0.1608 0.8254 0.2710
C12A C 0.1292(7) 0.7887(9) 0.2375(10)
C13A C 0.1249(6) 0.7695(9) 0.2016(11)
H6A H 0.1057 0.7535 0.1952
C14A C 0.1019(17) 0.7826(20) 0.268(2)
C15A C 0.0228(10) 0.6008(16) 0.0901(12)
C16A C -0.0117(9) 0.5623(11) 0.1406(14)
H7A H -0.0126 0.5485 0.1194
C17A C 0.0052(7) 0.5932(11) 0.1321(10)
C18A C 0.0064(7) 0.6137(10) 0.1638(16)
H8A H 0.0177 0.6343 0.1581
C19A C -0.0093(9) 0.6034(11) 0.2041(12)
C20A C -0.0262(8) 0.5726(13) 0.2126(11)
C21A C -0.0274(8) 0.5520(12) 0.1809(18)
H9A H -0.0388 0.5313 0.1866
C22A C -0.0018(7) 0.6483(12) 0.2544(16)
H10A H 0.0114 0.6636 0.2351
C23A C -0.0146(11) 0.6183(14) 0.2413(11)
C24A C -0.0343(11) 0.5954(15) 0.270(2)
C25A C -0.0411(9) 0.6026(15) 0.3119(18)
H11A H -0.0543 0.5872 0.3311
C26A C -0.0283(11) 0.6326(15) 0.3249(10)
H12A H -0.0328 0.6375 0.3529
C27A C -0.0086(10) 0.6555(13) 0.2962(19)
C28A C 0.0013(17) 0.6854(21) 0.317(2)
C29A C 0.1104(16) 0.6433(19) -0.1069(19)
C30A C 0.1103(11) 0.6319(18) -0.185(3)
H13A H 0.0897 0.6252 -0.1835
C31A C 0.1280(18) 0.6433(21) -0.147(2)
C32A C 0.1588(16) 0.6532(21) -0.148(2)
H14A H 0.1707 0.6609 -0.1228
C33A C 0.1718(12) 0.6517(16) -0.189(3)
C34A C 0.154(2) 0.6402(26) -0.2270(19)
C35A C 0.123(2) 0.630(3) -0.225(2)
H15A H 0.1114 0.6226 -0.2507
C36A C 0.2278(18) 0.6625(24) -0.1749(12)
H16A H 0.2281 0.6673 -0.1447
C37A C 0.2025(12) 0.6551(15) -0.201(3)
C38A C 0.2021(14) 0.6479(21) -0.246(3)
C39A C 0.227(2) 0.6480(27) -0.2651(12)
H17A H 0.2267 0.6431 -0.2953
C40A C 0.2523(14) 0.6553(17) -0.239(3)
H18A H 0.2689 0.6553 -0.2518
C41A C 0.2527(11) 0.6625(17) -0.194(2)
C42A C 0.2799(18) 0.6679(25) -0.173(3)
C43A C 0.1031(15) 0.5931(19) 0.0262(16)
C44A C 0.1517(13) 0.5888(19) 0.0280(12)
H19A H 0.1614 0.6059 0.0099
C45A C 0.1228(14) 0.5813(18) 0.0414(14)
C46A C 0.1078(15) 0.5562(23) 0.0674(17)
H20A H 0.0884 0.5509 0.0768
C47A C 0.119(2) 0.539(3) 0.080(2)
H21A H 0.1082 0.5219 0.0986
C48A C 0.151(3) 0.549(4) 0.063(3)
C49A C 0.1683(19) 0.5751(27) 0.0371(19)
C50A C 0.2436(19) 0.5966(28) -0.001(2)
C51A C 0.2198(17) 0.5991(23) 0.0049(17)
H22A H 0.2196 0.6161 -0.0059
C52A C 0.196(2) 0.578(3) 0.025(2)
C53A C 0.196(3) 0.555(4) 0.046(3)
C54A C 0.219(3) 0.550(4) 0.050(2)
H23A H 0.2183 0.5343 0.0672
C55A C 0.243(2) 0.568(3) 0.026(3)
H24A H 0.2592 0.5647 0.0237
C56A C 0.272(2) 0.618(3) -0.026(3)
O1A O 0.0665(7) 0.6319(10) -0.0101(10)
O2A O 0.1305(7) 0.6872(10) 0.0248(10)
O3A O 0.0916(9) 0.6866(12) 0.058(1)
O4A O 0.0353(7) 0.6288(10) 0.0813(10)
O5A O 0.0224(7) 0.5828(11) 0.0634(12)
O6A O 0.0783(11) 0.7663(14) 0.2501(10)
O7A O 0.1080(11) 0.7980(14) 0.3032(12)
O8A O 0.0774(9) 0.5812(12) 0.0333(10)
O9A O 0.1208(7) 0.6200(10) 0.0119(10)
O10A O 0.0829(12) 0.6298(16) -0.1087(14)
O11A O 0.1271(7) 0.6558(10) -0.0716(13)
O12A O 0.0231(8) 0.7060(11) 0.2864(11)
O13A O -0.0047(9) 0.6971(13) 0.3481(13)
O15A O 0.2975(11) 0.6648(16) -0.1890(15)
O16A O 0.2765(8) 0.6723(11) -0.1261(14)
O17A O 0.2904(14) 0.6079(18) -0.0400(14)
O18A O 0.2708(8) 0.6386(12) -0.0419(12)
O19A O 0.0304(9) 0.6352(13) -0.1426(13)
O20A O 0.0824(10) 0.6871(14) -0.0704(14)
Zn1A Zn 0.0476(1) 0.5902(1) 0.0106(2)
Zn2A Zn 0.0567(1) 0.6546(1) 0.0293(2)
Zn3A Zn 0.1091(1) 0.6491(1) -0.0145(2)
Zn4A Zn 0.0508(2) 0.6334(2) -0.0726(2)
Zn5A Zn 0.3014(2) 0.6735(3) -0.0762(2)
N1A N 0.1968(9) 0.7971(12) 0.1537(12)
H25A H 0.2160 0.8093 0.1543
N2A N -0.0437(14) 0.5698(19) 0.248(2)
H26A H -0.0595 0.5531 0.2550
N3A N 0.169(2) 0.6320(28) -0.264(3)
H27A H 0.1621 0.6224 -0.2883
N4A N 0.1715(18) 0.5365(25) 0.0693(18)
H28A H 0.1682 0.5208 0.0845
C1B C 0.3058(23) 0.4200(15) 0.049(2)
C2B C 0.2621(18) 0.4329(11) 0.0660(16)
H1B H 0.2681 0.4463 0.0419
C3B C 0.2361(18) 0.4299(12) 0.0886(18)
H2B H 0.2276 0.4418 0.0814
C4B C 0.2240(17) 0.4077(12) 0.1225(18)
C5B C 0.2411(13) 0.3927(9) 0.1364(13)
C6B C 0.2673(13) 0.4003(9) 0.1089(14)
H3B H 0.2769 0.3897 0.1173
C7B C 0.2814(17) 0.4198(11) 0.0723(17)
C8B C 0.2257(11) 0.3750(6) 0.1751(8)
C9B C 0.2018(9) 0.3799(6) 0.1846(10)
C10B C 0.1826(9) 0.3650(7) 0.2205(12)
H4B H 0.1666 0.3682 0.2269
C11B C 0.1875(11) 0.3454(6) 0.2470(8)
H5B H 0.1746 0.3354 0.2710
C12B C 0.2113(9) 0.3405(5) 0.2375(10)
C13B C 0.2305(9) 0.3554(7) 0.2016(11)
H6B H 0.2465 0.3522 0.1952
C14B C 0.2174(20) 0.3193(11) 0.268(2)
C15B C 0.3992(16) 0.4220(12) 0.0901(12)
C16B C 0.4377(11) 0.4260(7) 0.1406(14)
H7B H 0.4515 0.4389 0.1194
C17B C 0.4068(11) 0.4120(9) 0.1321(10)
C18B C 0.3863(10) 0.3927(7) 0.1638(16)
H8B H 0.3657 0.3834 0.1581
C19B C 0.3966(11) 0.3873(7) 0.2041(12)
C20B C 0.4274(13) 0.4012(10) 0.2126(11)
C21B C 0.4480(12) 0.4206(9) 0.1809(18)
H9B H 0.4687 0.4299 0.1866
C22B C 0.3517(12) 0.3499(10) 0.2544(16)
H10B H 0.3364 0.3478 0.2351
C23B C 0.3817(14) 0.3671(9) 0.2413(11)
C24B C 0.4046(15) 0.3703(10) 0.270(2)
C25B C 0.3974(15) 0.3563(12) 0.3119(18)
H11B H 0.4128 0.3585 0.3311
C26B C 0.3674(15) 0.3391(10) 0.3249(10)
H12B H 0.3625 0.3297 0.3529
C27B C 0.3445(13) 0.3359(8) 0.2962(19)
C28B C 0.3146(21) 0.3159(13) 0.317(2)
C29B C 0.3567(19) 0.4671(11) -0.1069(19)
C30B C 0.3681(18) 0.4784(14) -0.185(3)
H13B H 0.3748 0.4645 -0.1835
C31B C 0.3567(21) 0.4847(11) -0.147(2)
C32B C 0.3468(21) 0.5056(14) -0.148(2)
H14B H 0.3391 0.5098 -0.1228
C33B C 0.3483(16) 0.5201(10) -0.189(3)
C34B C 0.3598(26) 0.5138(17) -0.2270(19)
C35B C 0.370(3) 0.493(2) -0.225(2)
H15B H 0.3774 0.4888 -0.2507
C36B C 0.3375(24) 0.5653(16) -0.1749(12)
H16B H 0.3327 0.5608 -0.1447
C37B C 0.3449(15) 0.5474(9) -0.201(3)
C38B C 0.3521(21) 0.5542(16) -0.246(3)
C39B C 0.3520(27) 0.5790(18) -0.2651(12)
H17B H 0.3569 0.5836 -0.2953
C40B C 0.3447(17) 0.597(1) -0.239(3)
H18B H 0.3447 0.6136 -0.2518
C41B C 0.3375(17) 0.5902(13) -0.194(2)
C42B C 0.3321(25) 0.6120(18) -0.173(3)
C43B C 0.4069(19) 0.5100(12) 0.0262(16)
C44B C 0.4112(19) 0.5629(14) 0.0280(12)
H19B H 0.3941 0.5555 0.0099
C45B C 0.4187(18) 0.5415(12) 0.0414(14)
C46B C 0.4438(23) 0.5516(17) 0.0674(17)
H20B H 0.4491 0.5375 0.0768
C47B C 0.461(3) 0.580(2) 0.080(2)
H21B H 0.4781 0.5863 0.0986
C48B C 0.451(4) 0.602(3) 0.063(3)
C49B C 0.4249(27) 0.5932(19) 0.0371(19)
C50B C 0.4034(28) 0.647(2) -0.001(2)
C51B C 0.4009(23) 0.6207(16) 0.0049(17)
H22B H 0.3839 0.6035 -0.0059
C52B C 0.422(3) 0.618(2) 0.025(2)
C53B C 0.445(4) 0.641(3) 0.046(3)
C54B C 0.450(4) 0.669(3) 0.050(2)
H23B H 0.4657 0.6840 0.0672
C55B C 0.432(3) 0.675(2) 0.026(3)
H24B H 0.4353 0.6945 0.0237
C56B C 0.382(3) 0.654(2) -0.026(3)
O1B O 0.3681(10) 0.4346(7) -0.0101(10)
O2B O 0.3128(10) 0.4433(7) 0.0248(10)
O3B O 0.3134(12) 0.4050(8) 0.058(1)
O4B O 0.3712(10) 0.4065(7) 0.0813(10)
O5B O 0.4172(11) 0.4396(8) 0.0634(12)
O6B O 0.2337(14) 0.3120(8) 0.2501(10)
O7B O 0.2020(14) 0.3100(8) 0.3032(12)
O8B O 0.4188(12) 0.4962(8) 0.0333(10)
O9B O 0.3800(10) 0.5008(7) 0.0119(10)
O10B O 0.3702(16) 0.4531(10) -0.1087(14)
O11B O 0.3442(10) 0.4713(7) -0.0716(13)
O12B O 0.2940(11) 0.3171(8) 0.2864(11)
O13B O 0.3029(13) 0.2982(10) 0.3481(13)
O15B O 0.3352(16) 0.6327(12) -0.1890(15)
O16B O 0.3277(11) 0.6042(8) -0.1261(14)
O17B O 0.3921(18) 0.6825(11) -0.0400(14)
O18B O 0.3614(12) 0.6322(9) -0.0419(12)
O19B O 0.3648(13) 0.3952(9) -0.1426(13)
O20B O 0.3129(14) 0.3953(10) -0.0704(14)
Zn1B Zn 0.4098(1) 0.4574(1) 0.0106(2)
Zn2B Zn 0.3454(1) 0.4021(1) 0.0293(2)
Zn3B Zn 0.3509(1) 0.4600(1) -0.0145(2)
Zn4B Zn 0.3666(2) 0.4174(1) -0.0726(2)
Zn5B Zn 0.3265(3) 0.6279(2) -0.0762(2)
N1B N 0.2029(12) 0.3997(8) 0.1537(12)
H25B H 0.1907 0.4067 0.1543
N2B N 0.4302(19) 0.3865(13) 0.248(2)
H26B H 0.4469 0.3874 0.2550
N3B N 0.3680(28) 0.5370(19) -0.264(3)
H27B H 0.3776 0.5397 -0.2883
N4B N 0.4635(25) 0.6350(17) 0.0693(18)
H28B H 0.4792 0.6474 0.0845
O6F O 0.0213(8) 0.5884(11) -0.0832(10)
O6G O 0.4116(11) 0.4330(14) -0.0832(10)
O6H O 0.5670(14) 0.9787(8) -0.0832(10)
O7F O 0.0233(8) 0.5587(11) -0.0301(12)
O7G O 0.4413(11) 0.4647(14) -0.0301(12)
O7H O 0.5353(14) 0.9767(8) -0.0301(12)
O12F O 0.0162(8) 0.6436(8) -0.0469(11)
O12G O 0.3564(8) 0.3727(11) -0.0469(11)
O12H O 0.6273(11) 0.9838(8) -0.0469(11)
O13F O 0.0351(10) 0.6714(9) 0.0148(13)
O13G O 0.3286(9) 0.3638(13) 0.0148(13)
O13H O 0.6362(13) 0.9649(10) 0.0148(13)
Zn1C Zn 0.2093(1) 0.2857(1) 0.3439(2)
Zn1D Zn 0.7143(1) 0.9235(1) 0.3439(2)
Zn1E Zn 0.0765(1) 0.7907(1) 0.3439(2)
Zn2C Zn 0.2646(1) 0.2766(1) 0.3626(2)
Zn2D Zn 0.7234(1) 0.9879(1) 0.3626(2)
Zn2E Zn 0.0121(1) 0.7354(1) 0.3626(2)
Zn4C Zn 0.2493(1) 0.2825(2) 0.2607(2)
Zn4D Zn 0.7175(2) 0.9667(2) 0.2607(2)
Zn4E Zn 0.0333(2) 0.7507(1) 0.2607(2)
loop_
_geom_bond_atom_site_label_1
_geom_bond_atom_site_label_2
_geom_bond_site_symmetry_1
_geom_bond_site_symmetry_2
C1 C7 1_555 1_555
C2 H1 1_555 1_555
C3 C2 1_555 1_555
H2 C3 1_555 1_555
C4 C3 1_555 1_555
C5 C4 1_555 1_555
C6 C5 1_555 1_555
H3 C6 1_555 1_555
C7 C2 1_555 1_555
C8 C5 1_555 1_555
C9 C8 1_555 1_555
C10 C9 1_555 1_555
H4 C10 1_555 1_555
C11 C10 1_555 1_555
H5 C11 1_555 1_555
C12 C11 1_555 1_555
C13 C8 1_555 1_555
H6 C13 1_555 1_555
C14 C12 1_555 1_555
C15 C17 1_555 1_555
C16 H7 1_555 1_555
C17 C16 1_555 1_555
C18 C17 1_555 1_555
H8 C18 1_555 1_555
C19 C18 1_555 1_555
C20 C19 1_555 1_555
C21 C16 1_555 1_555
H9 C21 1_555 1_555
C22 H10 1_555 1_555
C23 C19 1_555 1_555
C24 C23 1_555 1_555
C25 C24 1_555 1_555
H11 C25 1_555 1_555
C26 C25 1_555 1_555
H12 C26 1_555 1_555
C27 C22 1_555 1_555
C28 C27 1_555 1_555
C29 C31 1_555 1_555
C30 H13 1_555 1_555
C31 C30 1_555 1_555
C32 C31 1_555 1_555
H14 C32 1_555 1_555
C33 C32 1_555 1_555
C34 C33 1_555 1_555
C35 C30 1_555 1_555
H15 C35 1_555 1_555
C36 H16 1_555 1_555
C37 C33 1_555 1_555
C38 C37 1_555 1_555
C39 C38 1_555 1_555
H17 C39 1_555 1_555
C40 C39 1_555 1_555
H18 C40 1_555 1_555
C41 C36 1_555 1_555
C42 C41 1_555 1_555
C43 C45 1_555 1_555
C44 H19 1_555 1_555
C45 C44 1_555 1_555
C46 C45 1_555 1_555
H20 C46 1_555 1_555
C47 C46 1_555 1_555
H21 C47 1_555 1_555
C48 C47 1_555 1_555
C49 C44 1_555 1_555
C50 C51 1_555 1_555
C51 H22 1_555 1_555
C52 C49 1_555 1_555
C53 C52 1_555 1_555
C54 C53 1_555 1_555
H23 C54 1_555 1_555
C55 C50 1_555 1_555
H24 C55 1_555 1_555
C56 C50 1_555 1_555
O1 Zn1 1_555 1_555
O2 C1 1_555 1_555
O3 C1 1_555 1_555
O4 C15 1_555 1_555
O5 C15 1_555 1_555
O6 C14 1_555 1_555
O7 C14 1_555 1_555
O8 C43 1_555 1_555
O9 C43 1_555 1_555
O10 C29 1_555 1_555
O11 C29 1_555 1_555
O12 C28 1_555 1_555
O13 C28 1_555 1_555
O14 Zn5 1_555 1_555
O15 C42 1_555 1_555
O16 C42 1_555 1_555
O17 C56 1_555 1_555
O18 C56 1_555 1_555
O19 Zn4 1_555 1_555
O20 Zn4 1_555 1_555
Zn1 O5 1_555 1_555
Zn2 O1 1_555 1_555
Zn3 O1 1_555 1_555
Zn4 O1 1_555 1_555
Zn5 O16 1_555 1_555
Zn6 O14 1_555 1_555
N1 C4 1_555 1_555
H25 N1 1_555 1_555
N2 C20 1_555 1_555
H26 N2 1_555 1_555
N3 C34 1_555 1_555
H27 N3 1_555 1_555
N4 C48 1_555 1_555
H28 N4 1_555 1_555
C1A C7A 1_555 1_555
C2A H1A 1_555 1_555
C3A C2A 1_555 1_555
H2A C3A 1_555 1_555
C4A C3A 1_555 1_555
C5A C4A 1_555 1_555
C6A C5A 1_555 1_555
H3A C6A 1_555 1_555
C7A C2A 1_555 1_555
C8A C5A 1_555 1_555
C9A C8A 1_555 1_555
C10A C9A 1_555 1_555
H4A C10A 1_555 1_555
C11A C10A 1_555 1_555
H5A C11A 1_555 1_555
C12A C11A 1_555 1_555
C13A C8A 1_555 1_555
H6A C13A 1_555 1_555
C14A C12A 1_555 1_555
C15A C17A 1_555 1_555
C16A H7A 1_555 1_555
C17A C16A 1_555 1_555
C18A C17A 1_555 1_555
H8A C18A 1_555 1_555
C19A C18A 1_555 1_555
C20A C19A 1_555 1_555
C21A C16A 1_555 1_555
H9A C21A 1_555 1_555
C22A H10A 1_555 1_555
C23A C19A 1_555 1_555
C24A C23A 1_555 1_555
C25A C24A 1_555 1_555
H11A C25A 1_555 1_555
C26A C25A 1_555 1_555
H12A C26A 1_555 1_555
C27A C22A 1_555 1_555
C28A C27A 1_555 1_555
C29A C31A 1_555 1_555
C30A H13A 1_555 1_555
C31A C30A 1_555 1_555
C32A C31A 1_555 1_555
H14A C32A 1_555 1_555
C33A C32A 1_555 1_555
C34A C33A 1_555 1_555
C35A C30A 1_555 1_555
H15A C35A 1_555 1_555
C36A H16A 1_555 1_555
C37A C33A 1_555 1_555
C38A C37A 1_555 1_555
C39A C38A 1_555 1_555
H17A C39A 1_555 1_555
C40A C39A 1_555 1_555
H18A C40A 1_555 1_555
C41A C36A 1_555 1_555
C42A C41A 1_555 1_555
C43A C45A 1_555 1_555
C44A H19A 1_555 1_555
C45A C44A 1_555 1_555
C46A C45A 1_555 1_555
H20A C46A 1_555 1_555
C47A C46A 1_555 1_555
H21A C47A 1_555 1_555
C48A C47A 1_555 1_555
C49A C44A 1_555 1_555
C50A C51A 1_555 1_555
C51A H22A 1_555 1_555
C52A C49A 1_555 1_555
C53A C52A 1_555 1_555
C54A C53A 1_555 1_555
H23A C54A 1_555 1_555
C55A C50A 1_555 1_555
H24A C55A 1_555 1_555
C56A C50A 1_555 1_555
O1A Zn1A 1_555 1_555
O2A C1A 1_555 1_555
O3A C1A 1_555 1_555
O4A C15A 1_555 1_555
O5A C15A 1_555 1_555
O6A C14A 1_555 1_555
O7A C14A 1_555 1_555
O8A C43A 1_555 1_555
O9A C43A 1_555 1_555
O10A C29A 1_555 1_555
O11A C29A 1_555 1_555
O12A C28A 1_555 1_555
O13A C28A 1_555 1_555
O15A Zn6 1_555 1_555
O16A C42A 1_555 1_555
O17A C56A 1_555 1_555
O18A C56A 1_555 1_555
O19A Zn4A 1_555 1_555
O20A Zn4A 1_555 1_555
Zn1A O5A 1_555 1_555
Zn2A O1A 1_555 1_555
Zn3A O1A 1_555 1_555
Zn4A O1A 1_555 1_555
Zn5A O14 1_555 1_555
N1A C4A 1_555 1_555
H25A N1A 1_555 1_555
N2A C20A 1_555 1_555
H26A N2A 1_555 1_555
N3A C34A 1_555 1_555
H27A N3A 1_555 1_555
N4A C48A 1_555 1_555
H28A N4A 1_555 1_555
C1B C7B 1_555 1_555
C2B H1B 1_555 1_555
C3B C2B 1_555 1_555
H2B C3B 1_555 1_555
C4B C3B 1_555 1_555
C5B C4B 1_555 1_555
C6B C5B 1_555 1_555
H3B C6B 1_555 1_555
C7B C2B 1_555 1_555
C8B C5B 1_555 1_555
C9B C8B 1_555 1_555
C10B C9B 1_555 1_555
H4B C10B 1_555 1_555
C11B C10B 1_555 1_555
H5B C11B 1_555 1_555
C12B C11B 1_555 1_555
C13B C8B 1_555 1_555
H6B C13B 1_555 1_555
C14B C12B 1_555 1_555
C15B C17B 1_555 1_555
C16B H7B 1_555 1_555
C17B C16B 1_555 1_555
C18B C17B 1_555 1_555
H8B C18B 1_555 1_555
C19B C18B 1_555 1_555
C20B C19B 1_555 1_555
C21B C16B 1_555 1_555
H9B C21B 1_555 1_555
C22B H10B 1_555 1_555
C23B C19B 1_555 1_555
C24B C23B 1_555 1_555
C25B C24B 1_555 1_555
H11B C25B 1_555 1_555
C26B C25B 1_555 1_555
H12B C26B 1_555 1_555
C27B C22B 1_555 1_555
C28B C27B 1_555 1_555
C29B C31B 1_555 1_555
C30B H13B 1_555 1_555
C31B C30B 1_555 1_555
C32B C31B 1_555 1_555
H14B C32B 1_555 1_555
C33B C32B 1_555 1_555
C34B C33B 1_555 1_555
C35B C30B 1_555 1_555
H15B C35B 1_555 1_555
C36B H16B 1_555 1_555
C37B C33B 1_555 1_555
C38B C37B 1_555 1_555
C39B C38B 1_555 1_555
H17B C39B 1_555 1_555
C40B C39B 1_555 1_555
H18B C40B 1_555 1_555
C41B C36B 1_555 1_555
C42B C41B 1_555 1_555
C43B C45B 1_555 1_555
C44B H19B 1_555 1_555
C45B C44B 1_555 1_555
C46B C45B 1_555 1_555
H20B C46B 1_555 1_555
C47B C46B 1_555 1_555
H21B C47B 1_555 1_555
C48B C47B 1_555 1_555
C49B C44B 1_555 1_555
C50B C51B 1_555 1_555
C51B H22B 1_555 1_555
C52B C49B 1_555 1_555
C53B C52B 1_555 1_555
C54B C53B 1_555 1_555
H23B C54B 1_555 1_555
C55B C50B 1_555 1_555
H24B C55B 1_555 1_555
C56B C50B 1_555 1_555
O1B Zn1B 1_555 1_555
O2B C1B 1_555 1_555
O3B C1B 1_555 1_555
O4B C15B 1_555 1_555
O5B C15B 1_555 1_555
O6B C14B 1_555 1_555
O7B C14B 1_555 1_555
O8B C43B 1_555 1_555
O9B C43B 1_555 1_555
O10B C29B 1_555 1_555
O11B C29B 1_555 1_555
O12B C28B 1_555 1_555
O13B C28B 1_555 1_555
O15B Zn6 1_555 1_555
O16B C42B 1_555 1_555
O17B Zn5 1_555 1_555
O18B C56B 1_555 1_555
O19B Zn4B 1_555 1_555
O20B Zn4B 1_555 1_555
Zn1B O5B 1_555 1_555
Zn2B O1B 1_555 1_555
Zn3B O1B 1_555 1_555
Zn4B O1B 1_555 1_555
Zn5B O14 1_555 1_555
N1B C4B 1_555 1_555
H25B N1B 1_555 1_555
N2B C20B 1_555 1_555
H26B N2B 1_555 1_555
N3B C34B 1_555 1_555
H27B N3B 1_555 1_555
N4B C48B 1_555 1_555
H28B N4B 1_555 1_555
O6F Zn4A 1_555 1_555
O6G Zn4B 1_555 1_555
O6H Zn4 1_555 1_555
O7F Zn1A 1_555 1_555
O7G Zn1B 1_555 1_555
O7H Zn1 1_555 1_555
O12F Zn4A 1_555 1_555
O12G Zn4B 1_555 1_555
O12H Zn4 1_555 1_555
O13F Zn2A 1_555 1_555
O13G Zn2B 1_555 1_555
O13H Zn2 1_555 1_555
Zn1C O7B 1_555 1_555
Zn1D O7 1_555 1_555
Zn1E O7A 1_555 1_555
Zn2C O13B 1_555 1_555
Zn2D O13 1_555 1_555
Zn2E O13A 1_555 1_555
Zn4C O6B 1_555 1_555
Zn4D O6 1_555 1_555
Zn4E O6A 1_555 1_555
C6 C7 1_555 1_555
C9 N1 1_555 1_555
C12 C13 1_555 1_555
C20 C21 1_555 1_555
C22 C23 1_555 1_555
C24 N2 1_555 1_555
C26 C27 1_555 1_555
C34 C35 1_555 1_555
C36 C37 1_555 1_555
C38 N3 1_555 1_555
C40 C41 1_555 1_555
C48 C49 1_555 1_555
C51 C52 1_555 1_555
C53 N4 1_555 1_555
C54 C55 1_555 1_555
O2 Zn3 1_555 1_555
O3 Zn2 1_555 1_555
O4 Zn2 1_555 1_555
O8 Zn1 1_555 1_555
O9 Zn3 1_555 1_555
O10 Zn4 1_555 1_555
O11 Zn3 1_555 1_555
O12 Zn4D 1_555 1_555
O15 Zn6 1_555 1_555
O17 Zn5A 1_555 1_555
O18 Zn5 1_555 1_555
C6A C7A 1_555 1_555
C9A N1A 1_555 1_555
C12A C13A 1_555 1_555
C20A C21A 1_555 1_555
C22A C23A 1_555 1_555
C24A N2A 1_555 1_555
C26A C27A 1_555 1_555
C34A C35A 1_555 1_555
C36A C37A 1_555 1_555
C38A N3A 1_555 1_555
C40A C41A 1_555 1_555
C42A O15A 1_555 1_555
C48A C49A 1_555 1_555
C51A C52A 1_555 1_555
C53A N4A 1_555 1_555
C54A C55A 1_555 1_555
O2A Zn3A 1_555 1_555
O3A Zn2A 1_555 1_555
O4A Zn2A 1_555 1_555
O8A Zn1A 1_555 1_555
O9A Zn3A 1_555 1_555
O10A Zn4A 1_555 1_555
O11A Zn3A 1_555 1_555
O12A Zn4E 1_555 1_555
O16A Zn5A 1_555 1_555
O17A Zn5B 1_555 1_555
O18A Zn5A 1_555 1_555
C6B C7B 1_555 1_555
C9B N1B 1_555 1_555
C12B C13B 1_555 1_555
C20B C21B 1_555 1_555
C22B C23B 1_555 1_555
C24B N2B 1_555 1_555
C26B C27B 1_555 1_555
C34B C35B 1_555 1_555
C36B C37B 1_555 1_555
C38B N3B 1_555 1_555
C40B C41B 1_555 1_555
C42B O15B 1_555 1_555
C48B C49B 1_555 1_555
C51B C52B 1_555 1_555
C53B N4B 1_555 1_555
C54B C55B 1_555 1_555
C56B O17B 1_555 1_555
O2B Zn3B 1_555 1_555
O3B Zn2B 1_555 1_555
O4B Zn2B 1_555 1_555
O8B Zn1B 1_555 1_555
O9B Zn3B 1_555 1_555
O10B Zn4B 1_555 1_555
O11B Zn3B 1_555 1_555
O12B Zn4C 1_555 1_555
O16B Zn5B 1_555 1_555
O18B Zn5B 1_555 1_555

#END
