
#######################################################################
#
#                 Cambridge Crystallographic Data Centre
#                                CCDC 
#
#######################################################################
#
# If this CIF has been generated from an entry in the Cambridge 
# Structural Database, then it will include bibliographic, chemical, 
# crystal, experimental, refinement or atomic coordinate data resulting 
# from the CCDC's data processing and validation procedures.
#
#######################################################################

data_OKIPUU
_chemical_formula_moiety         '(C26 H22 Cd1 N4 O7)n'
_symmetry_cell_setting           tetragonal
_symmetry_space_group_name_H-M   'I 41/a c d'
_symmetry_Int_Tables_number      142
_space_group_name_Hall           '-I 4bd 2c'
loop_
_symmetry_equiv_pos_site_id
_symmetry_equiv_pos_as_xyz
1 x,y,z
2 1/4-y,3/4+x,1/4+z
3 -x,1/2-y,z
4 1/4+y,1/4-x,3/4+z
5 x,-y,1/2-z
6 1/2-x,y,-z
7 3/4+y,1/4+x,1/4-z
8 1/4-y,1/4-x,1/4-z
9 1/2+x,1/2+y,1/2+z
10 3/4-y,1/4+x,3/4+z
11 1/2-x,-y,1/2+z
12 3/4+y,3/4-x,1/4+z
13 1/2+x,1/2-y,-z
14 -x,1/2+y,1/2-z
15 1/4+y,3/4+x,3/4-z
16 3/4-y,3/4-x,3/4-z
17 -x,-y,-z
18 3/4+y,1/4-x,3/4-z
19 x,1/2+y,-z
20 3/4-y,3/4+x,1/4-z
21 -x,y,1/2+z
22 1/2+x,-y,z
23 1/4-y,3/4-x,3/4+z
24 3/4+y,3/4+x,3/4+z
25 1/2-x,1/2-y,1/2-z
26 1/4+y,3/4-x,1/4-z
27 1/2+x,y,1/2-z
28 1/4-y,1/4+x,3/4-z
29 1/2-x,1/2+y,z
30 x,1/2-y,1/2+z
31 3/4-y,1/4-x,1/4+z
32 1/4+y,1/4+x,1/4+z
_cell_length_a                   18.903(3)
_cell_length_b                   18.903(3)
_cell_length_c                   62.293(9)
_cell_angle_alpha                90
_cell_angle_beta                 90
_cell_angle_gamma                90
_cell_volume                     22258.7
loop_
_atom_site_label
_atom_site_type_symbol
_atom_site_fract_x
_atom_site_fract_y
_atom_site_fract_z
_atom_site_U_iso_or_equiv
_atom_site_thermal_displace_type
O1 O 0.44939(16) 0.05315(17) 0.50574(5) 0.1320 Uani
H26 H 0.4380 0.0425 0.5185 0.1980 Uiso
H27 H 0.4127 0.0663 0.4989 0.1980 Uiso
O7 O 0.7500 0.3862(6) 0.5000 0.2437 Uani
H28 H 0.7294 0.3789 0.5119 0.3650 Uiso
H28E H 0.7706 0.3789 0.4881 0.3650 Uiso
C1 C 0.5242(2) -0.1326(3) 0.35476(7) 0.0733 Uani
H1 H 0.5316 -0.1805 0.3522 0.0880 Uiso
C2 C 0.5508(2) -0.0968(3) 0.37098(7) 0.0730 Uani
H2 H 0.5797 -0.1147 0.3818 0.0880 Uiso
C3 C 0.4868(2) -0.0273(3) 0.35159(7) 0.0730 Uani
H3 H 0.4629 0.0126 0.3468 0.0880 Uiso
C4 C 0.5434(2) 0.0316(2) 0.38261(6) 0.0604 Uani
C5 C 0.6050(3) 0.0324(3) 0.39383(7) 0.0797 Uani
H4 H 0.6360 -0.0057 0.3932 0.0950 Uiso
C6 C 0.6208(3) 0.0921(3) 0.40630(8) 0.0943 Uani
H5 H 0.6629 0.0939 0.4140 0.1130 Uiso
C7 C 0.5753(3) 0.1468(4) 0.40716(7) 0.0893 Uani
C8 C 0.5105(3) 0.1436(4) 0.39678(8) 0.0950 Uani
H6 H 0.4777 0.1799 0.3984 0.1140 Uiso
C9 C 0.4954(2) 0.0852(3) 0.38397(7) 0.0777 Uani
H7 H 0.4530 0.0828 0.3764 0.0930 Uiso
C10 C 0.6023(3) 0.1959(3) 0.54092(8) 0.1030 Uani
H8 H 0.5990 0.1712 0.5538 0.1230 Uiso
C11 C 0.5920(3) 0.1685(3) 0.52132(7) 0.0940 Uani
H9 H 0.5811 0.1217 0.5182 0.1130 Uiso
C12 C 0.6201(3) 0.2774(2) 0.51847(7) 0.0727 Uani
H10 H 0.6337 0.3205 0.5126 0.0880 Uiso
C13 C 0.5988(2) 0.2170(2) 0.48412(7) 0.0660 Uani
C14 C 0.5568(3) 0.1675(3) 0.47442(8) 0.0857 Uani
H11 H 0.5294 0.1372 0.4827 0.1030 Uiso
C15 C 0.5550(4) 0.1623(3) 0.45218(8) 0.0937 Uani
H12 H 0.5269 0.1281 0.4456 0.1120 Uiso
C16 C 0.5946(3) 0.2075(2) 0.44002(7) 0.0807 Uani
C17 C 0.6353(3) 0.2570(3) 0.44974(7) 0.0843 Uani
H13 H 0.6616 0.2881 0.4414 0.1010 Uiso
C18 C 0.6384(3) 0.2622(2) 0.47163(7) 0.0797 Uani
H14 H 0.6671 0.2961 0.4780 0.0950 Uiso
C19 C 0.3275(2) 0.0063(2) 0.31827(8) 0.0696 Uani
C20 C 0.2875(2) 0.0739(2) 0.31789(8) 0.0660 Uani
C21 C 0.2440(2) 0.0938(3) 0.33470(8) 0.0740 Uani
H15 H 0.2402 0.0645 0.3466 0.0890 Uiso
C22 C 0.2929(2) 0.1183(2) 0.30061(9) 0.0723 Uani
H16 H 0.3218 0.1058 0.2891 0.0870 Uiso
C23 C 0.1707(2) 0.2680(2) 0.31579(6) 0.0535 Uani
C24 C 0.2114(2) 0.2006(2) 0.31656(6) 0.0538 Uani
C25 C 0.2560(2) 0.1816(2) 0.30002(7) 0.0667 Uani
H17 H 0.2614 0.2116 0.2883 0.0800 Uiso
C26 C 0.20590(16) 0.15677(17) 0.33409(5) 0.0703 Uani
H18 H 0.1768 0.1692 0.3455 0.0840 Uiso
Cd1 Cd 0.406810(15) -0.113173(16) 0.315301(4) 0.0540 Uani
N2 N 0.4841(2) -0.08890(18) 0.34225(5) 0.0653 Uani
N3 N 0.52818(16) -0.02857(18) 0.36899(5) 0.0548 Uani
N4 N 0.6181(2) 0.2654(2) 0.53885(5) 0.0783 Uani
N5 N 0.6005(2) 0.2217(2) 0.50666(6) 0.0806 Uani
O2 O 0.32417(15) -0.03214(17) 0.33434(6) 0.0800 Uani
O3 O 0.36533(16) -0.00980(18) 0.30235(6) 0.0837 Uani
O4 O 0.12452(15) 0.27902(16) 0.32978(4) 0.0640 Uani
O5 O 0.18172(16) 0.31048(17) 0.30117(5) 0.0744 Uani
O6 O 0.5920(3) 0.20855(18) 0.41793(5) 0.1183 Uani
Cd1K Cd 0.636827(16) 0.343190(15) 0.565301(4) 0.0540 Uani
Cd1BA Cd 0.093190(15) 0.386827(16) 0.315301(4) 0.0540 Uani
N4I N 0.4846(2) -0.1319(2) 0.28885(5) 0.0783 Uani
O4BA O 0.37548(15) -0.22098(16) 0.32978(4) 0.0640 Uani
O5BA O 0.31828(16) -0.18952(17) 0.30117(5) 0.0744 Uani
loop_
_atom_site_aniso_label
_atom_site_aniso_U_11
_atom_site_aniso_U_22
_atom_site_aniso_U_33
_atom_site_aniso_U_23
_atom_site_aniso_U_13
_atom_site_aniso_U_12
O1 0.173(4) 0.138(4) 0.085(3) -0.001(3) 0.007(3) 0.024(3)
O7 0.243(8) 0.242(8) 0.246(8) 0.000 -0.029(7) 0.000
C1 0.109 0.059 0.052 -0.0058 0.003 0.014
C2 0.106 0.064 0.049 -0.0038 -0.009 0.012
C3 0.097 0.053 0.069 -0.0045 -0.027 0.005
C4 0.082 0.06 0.0392 -0.0026 -0.005 -0.014
C5 0.091 0.095 0.053 -0.004 -0.01 -0.008
C6 0.12 0.103 0.06 0.006 -0.037 -0.033
C7 0.161 0.068 0.039 0.003 -0.013 -0.038
C8 0.152 0.056 0.077 -0.008 -0.01 -0.01
C9 0.103 0.057 0.073 -0.014 -0.01 -0.003
C10 0.138 0.101 0.070 0.011 -0.027 -0.080
C11 0.111 0.109 0.062 0.018 -0.040 -0.032
C12 0.108(3) 0.061(2) 0.049(2) -0.0077(19) 0.000(2) -0.017(2)
C13 0.088(3) 0.061(2) 0.049(2) -0.0099(18) 0.001(2) -0.020(2)
C14 0.110(4) 0.079(3) 0.068(3) -0.008(2) 0.005(3) -0.044(3)
C15 0.138(4) 0.083(3) 0.060(3) -0.004(2) -0.016(3) -0.048(3)
C16 0.140(4) 0.058(2) 0.044(2) 0.0001(19) -0.007(2) -0.030(3)
C17 0.127(4) 0.072(3) 0.054(2) -0.002(2) 0.004(2) -0.048(3)
C18 0.112(3) 0.067(2) 0.060(2) -0.007(2) 0.003(2) -0.041(2)
C19 0.065 0.0483 0.0956 -0.0059 0.011 -0.0055
C20 0.051 0.059 0.088 -0.013 0.007 -0.0007
C21 0.083 0.061 0.078 0.011 0.008 0.004
C22 0.058 0.073 0.086 -0.006 0.015 0
C23 0.056 0.0484 0.056 -0.0113 -0.0047 -0.0075
C24 0.054 0.0485 0.059 -0.0084 -0.0003 -0.0018
C25 0.064 0.062 0.074 -0.003 0.013 0.002
C26 0.08 0.057 0.074 -0.01 0.013 0.002
Cd1 0.06446 0.05132 0.04626 -0.00871 0.00515 -0.00178
N2 0.085 0.0562 0.0547 -0.007 -0.0093 -0.0017
N3 0.069 0.0545 0.041 -0.0012 -0.0014 -0.0042
N4 0.107(3) 0.073(2) 0.0550(19) -0.0140(18) 0.008(2) -0.025(2)
N5 0.119(3) 0.073(2) 0.0497(19) -0.0133(17) 0.0117(19) -0.032(2)
O2 0.08 0.055 0.105 0.005 0.026 0.022
O3 0.081 0.06 0.11 0.015 0.035 0.02
O4 0.0733 0.0613 0.0575 -0.0059 0.0052 0.0142
O5 0.087 0.0623 0.0738 0.0035 0.0189 0.0117
O6 0.235(4) 0.0648(18) 0.0552(18) 0.0024(15) -0.023(2) -0.061(2)
Cd1K 0.05132(16) 0.06446(18) 0.04626(17) -0.00515(12) -0.00871(11) 0.00178(12)
Cd1BA 0.06446 0.05132 0.04626 -0.00871 -0.00515 0.00178
N4I 0.073 0.107 0.055 0.008 0.014 0.025
O4BA 0.0733 0.0613 0.0575 -0.0059 -0.0052 -0.0142
O5BA 0.087 0.0623 0.0738 0.0035 -0.0189 -0.0117
loop_
_geom_bond_atom_site_label_1
_geom_bond_atom_site_label_2
_geom_bond_site_symmetry_1
_geom_bond_site_symmetry_2
C1 H1 1_555 1_555
C2 C1 1_555 1_555
H2 C2 1_555 1_555
C3 H3 1_555 1_555
C4 C5 1_555 1_555
C5 H4 1_555 1_555
C6 C5 1_555 1_555
H5 C6 1_555 1_555
C7 C6 1_555 1_555
C8 C7 1_555 1_555
H6 C8 1_555 1_555
C9 C4 1_555 1_555
H7 C9 1_555 1_555
C10 H8 1_555 1_555
C11 C10 1_555 1_555
H9 C11 1_555 1_555
C12 H10 1_555 1_555
C13 C14 1_555 1_555
C14 H11 1_555 1_555
C15 C14 1_555 1_555
H12 C15 1_555 1_555
C16 C15 1_555 1_555
C17 C16 1_555 1_555
H13 C17 1_555 1_555
C18 C13 1_555 1_555
H14 C18 1_555 1_555
C19 C20 1_555 1_555
C20 C21 1_555 1_555
C21 H15 1_555 1_555
C22 C20 1_555 1_555
H16 C22 1_555 1_555
C23 C24 1_555 1_555
C24 C25 1_555 1_555
C25 C22 1_555 1_555
H17 C25 1_555 1_555
C26 C21 1_555 1_555
H18 C26 1_555 1_555
O1 H26 1_555 1_555
H27 O1 1_555 1_555
Cd1 N2 1_555 1_555
N2 C1 1_555 1_555
N3 C2 1_555 1_555
N4 C10 1_555 1_555
N5 C11 1_555 1_555
O2 C19 1_555 1_555
O3 C19 1_555 1_555
O4 C23 1_555 1_555
O5 C23 1_555 1_555
O6 C7 1_555 1_555
O7 H28 1_555 1_555
Cd1K N4 1_555 1_555
Cd1BA O4 1_555 1_555
N4I Cd1 1_555 1_555
O4BA Cd1 1_555 1_555
O5BA Cd1 1_555 1_555
H28E O7 1_555 1_555
C3 N2 1_555 1_555
C3 N3 1_555 1_555
C4 N3 1_555 1_555
C8 C9 1_555 1_555
C12 N4 1_555 1_555
C12 N5 1_555 1_555
C13 N5 1_555 1_555
C16 O6 1_555 1_555
C17 C18 1_555 1_555
C24 C26 1_555 1_555
Cd1 O2 1_555 1_555
Cd1 O3 1_555 1_555
O5 Cd1BA 1_555 1_555

#END
