
#######################################################################
#
#                 Cambridge Crystallographic Data Centre
#                                CCDC 
#
#######################################################################
#
# If this CIF has been generated from an entry in the Cambridge 
# Structural Database, then it will include bibliographic, chemical, 
# crystal, experimental, refinement or atomic coordinate data resulting 
# from the CCDC's data processing and validation procedures.
#
#######################################################################

data_BIPKIW
_chemical_formula_moiety         'C156 H96 Cu18 O46 Si4'
_symmetry_cell_setting           cubic
_symmetry_space_group_name_H-M   'F 4 3 2'
_symmetry_Int_Tables_number      209
_space_group_name_Hall           'F 4 2 3'
loop_
_symmetry_equiv_pos_site_id
_symmetry_equiv_pos_as_xyz
1 x,y,z
2 -x,-y,z
3 -x,y,-z
4 x,-y,-z
5 z,x,y
6 z,-x,-y
7 -z,-x,y
8 -z,x,-y
9 y,z,x
10 -y,z,-x
11 y,-z,-x
12 -y,-z,x
13 y,x,-z
14 -y,-x,-z
15 y,-x,z
16 -y,x,z
17 x,z,-y
18 -x,z,y
19 -x,-z,-y
20 x,-z,y
21 z,y,-x
22 z,-y,x
23 -z,y,x
24 -z,-y,-x
25 x,1/2+y,1/2+z
26 -x,1/2-y,1/2+z
27 -x,1/2+y,1/2-z
28 x,1/2-y,1/2-z
29 z,1/2+x,1/2+y
30 z,1/2-x,1/2-y
31 -z,1/2-x,1/2+y
32 -z,1/2+x,1/2-y
33 y,1/2+z,1/2+x
34 -y,1/2+z,1/2-x
35 y,1/2-z,1/2-x
36 -y,1/2-z,1/2+x
37 y,1/2+x,1/2-z
38 -y,1/2-x,1/2-z
39 y,1/2-x,1/2+z
40 -y,1/2+x,1/2+z
41 x,1/2+z,1/2-y
42 -x,1/2+z,1/2+y
43 -x,1/2-z,1/2-y
44 x,1/2-z,1/2+y
45 z,1/2+y,1/2-x
46 z,1/2-y,1/2+x
47 -z,1/2+y,1/2+x
48 -z,1/2-y,1/2-x
49 1/2+x,y,1/2+z
50 1/2-x,-y,1/2+z
51 1/2-x,y,1/2-z
52 1/2+x,-y,1/2-z
53 1/2+z,x,1/2+y
54 1/2+z,-x,1/2-y
55 1/2-z,-x,1/2+y
56 1/2-z,x,1/2-y
57 1/2+y,z,1/2+x
58 1/2-y,z,1/2-x
59 1/2+y,-z,1/2-x
60 1/2-y,-z,1/2+x
61 1/2+y,x,1/2-z
62 1/2-y,-x,1/2-z
63 1/2+y,-x,1/2+z
64 1/2-y,x,1/2+z
65 1/2+x,z,1/2-y
66 1/2-x,z,1/2+y
67 1/2-x,-z,1/2-y
68 1/2+x,-z,1/2+y
69 1/2+z,y,1/2-x
70 1/2+z,-y,1/2+x
71 1/2-z,y,1/2+x
72 1/2-z,-y,1/2-x
73 1/2+x,1/2+y,z
74 1/2-x,1/2-y,z
75 1/2-x,1/2+y,-z
76 1/2+x,1/2-y,-z
77 1/2+z,1/2+x,y
78 1/2+z,1/2-x,-y
79 1/2-z,1/2-x,y
80 1/2-z,1/2+x,-y
81 1/2+y,1/2+z,x
82 1/2-y,1/2+z,-x
83 1/2+y,1/2-z,-x
84 1/2-y,1/2-z,x
85 1/2+y,1/2+x,-z
86 1/2-y,1/2-x,-z
87 1/2+y,1/2-x,z
88 1/2-y,1/2+x,z
89 1/2+x,1/2+z,-y
90 1/2-x,1/2+z,y
91 1/2-x,1/2-z,-y
92 1/2+x,1/2-z,y
93 1/2+z,1/2+y,-x
94 1/2+z,1/2-y,x
95 1/2-z,1/2+y,x
96 1/2-z,1/2-y,-x
_cell_length_a                   33.4952(7)
_cell_length_b                   33.4952(7)
_cell_length_c                   33.4952(7)
_cell_angle_alpha                90
_cell_angle_beta                 90
_cell_angle_gamma                90
_cell_volume                     37579.2
loop_
_atom_site_label
_atom_site_type_symbol
_atom_site_fract_x
_atom_site_fract_y
_atom_site_fract_z
_atom_site_U_iso_or_equiv
_atom_site_thermal_displace_type
Cu1 Cu 1.0000 0.36096(7) 0.0000 0.1114 Uani
Cu2 Cu 1.0000 0.28294(7) 0.0000 0.1197 Uani
O1 O 0.9465(2) 0.3555(2) 0.0229(2) 0.1250 Uani
O2 O 1.0000 0.4294(4) 0.0000 0.1747 Uani
O3 O 0.9444(2) 0.2888(2) 0.0154(2) 0.1260 Uani
O4 O 1.0000 0.2195(4) 0.0000 0.1907 Uani
C1 C 0.9291(4) 0.3214(4) 0.0231(3) 0.1190 Uani
C2 C 0.88599(17) 0.3243(2) 0.0391(2) 0.1147 Uani
C3 C 0.8708(2) 0.3614(2) 0.0500(3) 0.1540 Uani
C4 C 0.8626(2) 0.29030(18) 0.0431(2) 0.1313 Uani
H1 H 0.8868 0.3846 0.0472 0.1850 Uiso
C5 C 0.8322(2) 0.36441(18) 0.0650(2) 0.1370 Uani
C6 C 0.8240(2) 0.29334(19) 0.0581(2) 0.1257 Uani
H2 H 0.8729 0.2650 0.0357 0.1580 Uiso
H3 H 0.8219 0.3897 0.0724 0.1650 Uiso
C7 C 0.80882(17) 0.3304(2) 0.0690(2) 0.1150 Uani
H4 H 0.8080 0.2701 0.0609 0.1510 Uiso
C8 C 0.7667(2) 0.3361(3) 0.0826(2) 0.0933 Uani
C9 C 0.7490(3) 0.3062(2) 0.1053(3) 0.1680 Uani
C10 C 0.7461(3) 0.3712(2) 0.0748(2) 0.1393 Uani
C11 C 0.7107(3) 0.3115(3) 0.1203(3) 0.1947 Uani
H5 H 0.7631 0.2822 0.1106 0.2020 Uiso
H6 H 0.7582 0.3917 0.0593 0.1670 Uiso
C12 C 0.7077(3) 0.3765(3) 0.0898(3) 0.1597 Uani
H7 H 0.6986 0.2911 0.1358 0.2330 Uiso
C13 C 0.6900(2) 0.3466(3) 0.1125(3) 0.1670 Uani
H8 H 0.6936 0.4005 0.0845 0.1920 Uiso
Si1 Si 0.64246(18) 0.35754(18) 0.14246(18) 0.1680 Uani
O5 O 0.6141(5) 0.3859(5) 0.1141(5) 0.2160 Uani
O1IA O 0.6445(2) 0.4771(2) 0.4465(2) 0.1250 Uani
O3IA O 0.7112(2) 0.4846(2) 0.4444(2) 0.1260 Uani
C1IA C 0.6786(4) 0.4769(3) 0.4291(4) 0.1190 Uani
C2IA C 0.6757(2) 0.4609(2) 0.38599(17) 0.1147 Uani
C3IA C 0.6386(2) 0.4500(3) 0.3708(2) 0.1540 Uani
C4IA C 0.70970(18) 0.4569(2) 0.3626(2) 0.1313 Uani
H1IA H 0.6154 0.4528 0.3868 0.1850 Uiso
C5IA C 0.63559(18) 0.4350(2) 0.3322(2) 0.1370 Uani
C6IA C 0.70666(19) 0.4419(2) 0.3240(2) 0.1257 Uani
H2IA H 0.7350 0.4643 0.3729 0.1580 Uiso
H3IA H 0.6103 0.4276 0.3219 0.1650 Uiso
C7IA C 0.6696(2) 0.4310(2) 0.30882(17) 0.1150 Uani
H4IA H 0.7299 0.4391 0.3080 0.1510 Uiso
C8IA C 0.6639(3) 0.4174(2) 0.2667(2) 0.0933 Uani
C9IA C 0.6938(2) 0.3947(3) 0.2490(3) 0.1680 Uani
C10IA C 0.6288(2) 0.4252(2) 0.2461(3) 0.1393 Uani
C11IA C 0.6885(3) 0.3797(3) 0.2107(3) 0.1947 Uani
H5IA H 0.7178 0.3894 0.2631 0.2020 Uiso
H6IA H 0.6083 0.4407 0.2582 0.1670 Uiso
C12IA C 0.6235(3) 0.4102(3) 0.2077(3) 0.1597 Uani
H7IA H 0.7089 0.3642 0.1986 0.2330 Uiso
C13IA C 0.6534(3) 0.3875(3) 0.1900(2) 0.1670 Uani
H8IA H 0.5995 0.4155 0.1936 0.1920 Uiso
O1AB O 0.5229(2) 0.0535(2) 0.1445(2) 0.1250 Uani
O3AB O 0.5154(2) 0.0556(2) 0.2112(2) 0.1260 Uani
C1AB C 0.5231(3) 0.0709(4) 0.1786(4) 0.1190 Uani
C2AB C 0.5391(2) 0.11401(17) 0.1757(2) 0.1147 Uani
C3AB C 0.5500(3) 0.1292(2) 0.1386(2) 0.1540 Uani
C4AB C 0.5431(2) 0.1374(2) 0.20970(18) 0.1313 Uani
H1AB H 0.5472 0.1132 0.1154 0.1850 Uiso
C5AB C 0.5650(2) 0.1678(2) 0.13559(18) 0.1370 Uani
C6AB C 0.5581(2) 0.1760(2) 0.20666(19) 0.1257 Uani
H2AB H 0.5357 0.1271 0.2350 0.1580 Uiso
H3AB H 0.5724 0.1781 0.1103 0.1650 Uiso
C7AB C 0.5690(2) 0.19118(17) 0.1696(2) 0.1150 Uani
H4AB H 0.5609 0.1920 0.2299 0.1510 Uiso
C8AB C 0.5826(2) 0.2333(2) 0.1639(3) 0.0933 Uani
C9AB C 0.6053(3) 0.2510(3) 0.1938(2) 0.1680 Uani
C10AB C 0.5748(2) 0.2539(3) 0.1288(2) 0.1393 Uani
C11AB C 0.6203(3) 0.2893(3) 0.1885(3) 0.1947 Uani
H5AB H 0.6106 0.2369 0.2178 0.2020 Uiso
H6AB H 0.5593 0.2418 0.1083 0.1670 Uiso
C12AB C 0.5898(3) 0.2923(3) 0.1235(3) 0.1597 Uani
H7AB H 0.6358 0.3014 0.2089 0.2330 Uiso
C13AB C 0.6125(3) 0.3100(2) 0.1534(3) 0.1670 Uani
H8AB H 0.5845 0.3064 0.0995 0.1920 Uiso
O1B O 1.0535(2) 0.3555(2) -0.0229(2) 0.1250 Uani
O3B O 1.0556(2) 0.2888(2) -0.0154(2) 0.1260 Uani
C1B C 1.0709(4) 0.3214(4) -0.0231(3) 0.1190 Uani
C2B C 1.11401(17) 0.3243(2) -0.0391(2) 0.1147 Uani
C3B C 1.1292(2) 0.3614(2) -0.0500(3) 0.1540 Uani
C4B C 1.1374(2) 0.29030(18) -0.0431(2) 0.1313 Uani
H1B H 1.1132 0.3846 -0.0472 0.1850 Uiso
C5B C 1.1678(2) 0.36441(18) -0.0650(2) 0.1370 Uani
C6B C 1.1760(2) 0.29334(19) -0.0581(2) 0.1257 Uani
H2B H 1.1271 0.2650 -0.0357 0.1580 Uiso
H3B H 1.1781 0.3897 -0.0724 0.1650 Uiso
C7B C 1.19118(17) 0.3304(2) -0.0690(2) 0.1150 Uani
H4B H 1.1920 0.2701 -0.0609 0.1510 Uiso
C8B C 1.2333(2) 0.3361(3) -0.0826(2) 0.0933 Uani
C9B C 1.2510(3) 0.3062(2) -0.1053(3) 0.1680 Uani
C10B C 1.2539(3) 0.3712(2) -0.0748(2) 0.1393 Uani
C11B C 1.2893(3) 0.3115(3) -0.1203(3) 0.1947 Uani
H5B H 1.2369 0.2822 -0.1106 0.2020 Uiso
H6B H 1.2418 0.3917 -0.0593 0.1670 Uiso
C12B C 1.2923(3) 0.3765(3) -0.0898(3) 0.1597 Uani
H7B H 1.3014 0.2911 -0.1358 0.2330 Uiso
C13B C 1.3100(2) 0.3466(3) -0.1125(3) 0.1670 Uani
H8B H 1.3064 0.4005 -0.0845 0.1920 Uiso
Si1B Si 1.35754(18) 0.35754(18) -0.14246(18) 0.1680 Uani
O5B O 1.3859(5) 0.3859(5) -0.1141(5) 0.2160 Uani
O1HA O 1.3555(2) 0.4771(2) -0.4465(2) 0.1250 Uani
O3HA O 1.2888(2) 0.4846(2) -0.4444(2) 0.1260 Uani
C1HA C 1.3214(4) 0.4769(3) -0.4291(4) 0.1190 Uani
C2HA C 1.3243(2) 0.4609(2) -0.38599(17) 0.1147 Uani
C3HA C 1.3614(2) 0.4500(3) -0.3708(2) 0.1540 Uani
C4HA C 1.29030(18) 0.4569(2) -0.3626(2) 0.1313 Uani
H1HA H 1.3846 0.4528 -0.3868 0.1850 Uiso
C5HA C 1.36441(18) 0.4350(2) -0.3322(2) 0.1370 Uani
C6HA C 1.29334(19) 0.4419(2) -0.3240(2) 0.1257 Uani
H2HA H 1.2650 0.4643 -0.3729 0.1580 Uiso
H3HA H 1.3897 0.4276 -0.3219 0.1650 Uiso
C7HA C 1.3304(2) 0.4310(2) -0.30882(17) 0.1150 Uani
H4HA H 1.2701 0.4391 -0.3080 0.1510 Uiso
C8HA C 1.3361(3) 0.4174(2) -0.2667(2) 0.0933 Uani
C9HA C 1.3062(2) 0.3947(3) -0.2490(3) 0.1680 Uani
C10HA C 1.3712(2) 0.4252(2) -0.2461(3) 0.1393 Uani
C11HA C 1.3115(3) 0.3797(3) -0.2107(3) 0.1947 Uani
H5HA H 1.2822 0.3894 -0.2631 0.2020 Uiso
H6HA H 1.3917 0.4407 -0.2582 0.1670 Uiso
C12HA C 1.3765(3) 0.4102(3) -0.2077(3) 0.1597 Uani
H7HA H 1.2911 0.3642 -0.1986 0.2330 Uiso
C13HA C 1.3466(3) 0.3875(3) -0.1900(2) 0.1670 Uani
H8HA H 1.4005 0.4155 -0.1936 0.1920 Uiso
O1BB O 1.4771(2) 0.0535(2) -0.1445(2) 0.1250 Uani
O3BB O 1.4846(2) 0.0556(2) -0.2112(2) 0.1260 Uani
C1BB C 1.4769(3) 0.0709(4) -0.1786(4) 0.1190 Uani
C2BB C 1.4609(2) 0.11401(17) -0.1757(2) 0.1147 Uani
C3BB C 1.4500(3) 0.1292(2) -0.1386(2) 0.1540 Uani
C4BB C 1.4569(2) 0.1374(2) -0.20970(18) 0.1313 Uani
H1BB H 1.4528 0.1132 -0.1154 0.1850 Uiso
C5BB C 1.4350(2) 0.1678(2) -0.13559(18) 0.1370 Uani
C6BB C 1.4419(2) 0.1760(2) -0.20666(19) 0.1257 Uani
H2BB H 1.4643 0.1271 -0.2350 0.1580 Uiso
H3BB H 1.4276 0.1781 -0.1103 0.1650 Uiso
C7BB C 1.4310(2) 0.19118(17) -0.1696(2) 0.1150 Uani
H4BB H 1.4391 0.1920 -0.2299 0.1510 Uiso
C8BB C 1.4174(2) 0.2333(2) -0.1639(3) 0.0933 Uani
C9BB C 1.3947(3) 0.2510(3) -0.1938(2) 0.1680 Uani
C10BB C 1.4252(2) 0.2539(3) -0.1288(2) 0.1393 Uani
C11BB C 1.3797(3) 0.2893(3) -0.1885(3) 0.1947 Uani
H5BB H 1.3894 0.2369 -0.2178 0.2020 Uiso
H6BB H 1.4407 0.2418 -0.1083 0.1670 Uiso
C12BB C 1.4102(3) 0.2923(3) -0.1235(3) 0.1597 Uani
H7BB H 1.3642 0.3014 -0.2089 0.2330 Uiso
C13BB C 1.3875(3) 0.3100(2) -0.1534(3) 0.1670 Uani
H8BB H 1.4155 0.3064 -0.0995 0.1920 Uiso
O1T O 1.0229(2) 0.3555(2) 0.0535(2) 0.1250 Uani
O3T O 1.0154(2) 0.2888(2) 0.0556(2) 0.1260 Uani
C1T C 1.0231(3) 0.3214(4) 0.0709(4) 0.1190 Uani
C2T C 1.0391(2) 0.3243(2) 0.11401(17) 0.1147 Uani
C3T C 1.0500(3) 0.3614(2) 0.1292(2) 0.1540 Uani
C4T C 1.0431(2) 0.29030(18) 0.1374(2) 0.1313 Uani
H1T H 1.0472 0.3846 0.1132 0.1850 Uiso
C5T C 1.0650(2) 0.36441(18) 0.1678(2) 0.1370 Uani
C6T C 1.0581(2) 0.29334(19) 0.1760(2) 0.1257 Uani
H2T H 1.0357 0.2650 0.1271 0.1580 Uiso
H3T H 1.0724 0.3897 0.1781 0.1650 Uiso
C7T C 1.0690(2) 0.3304(2) 0.19118(17) 0.1150 Uani
H4T H 1.0609 0.2701 0.1920 0.1510 Uiso
C8T C 1.0826(2) 0.3361(3) 0.2333(2) 0.0933 Uani
C9T C 1.1053(3) 0.3062(2) 0.2510(3) 0.1680 Uani
C10T C 1.0748(2) 0.3712(2) 0.2539(3) 0.1393 Uani
C11T C 1.1203(3) 0.3115(3) 0.2893(3) 0.1947 Uani
H5T H 1.1106 0.2822 0.2369 0.2020 Uiso
H6T H 1.0593 0.3917 0.2418 0.1670 Uiso
C12T C 1.0898(3) 0.3765(3) 0.2923(3) 0.1597 Uani
H7T H 1.1358 0.2911 0.3014 0.2330 Uiso
C13T C 1.1125(3) 0.3466(3) 0.3100(2) 0.1670 Uani
H8T H 1.0845 0.4005 0.3064 0.1920 Uiso
Si1T Si 1.14246(18) 0.35754(18) 0.35754(18) 0.1680 Uani
O5T O 1.1141(5) 0.3859(5) 0.3859(5) 0.2160 Uani
O1MC O 1.4465(2) 0.4771(2) 0.3555(2) 0.1250 Uani
O3MC O 1.4444(2) 0.4846(2) 0.2888(2) 0.1260 Uani
C1MC C 1.4291(4) 0.4769(3) 0.3214(4) 0.1190 Uani
C2MC C 1.38599(17) 0.4609(2) 0.3243(2) 0.1147 Uani
C3MC C 1.3708(2) 0.4500(3) 0.3614(2) 0.1540 Uani
C4MC C 1.3626(2) 0.4569(2) 0.29030(18) 0.1313 Uani
H1MC H 1.3868 0.4528 0.3846 0.1850 Uiso
C5MC C 1.3322(2) 0.4350(2) 0.36441(18) 0.1370 Uani
C6MC C 1.3240(2) 0.4419(2) 0.29334(19) 0.1257 Uani
H2MC H 1.3729 0.4643 0.2650 0.1580 Uiso
H3MC H 1.3219 0.4276 0.3897 0.1650 Uiso
C7MC C 1.30882(17) 0.4310(2) 0.3304(2) 0.1150 Uani
H4MC H 1.3080 0.4391 0.2701 0.1510 Uiso
C8MC C 1.2667(2) 0.4174(2) 0.3361(3) 0.0933 Uani
C9MC C 1.2490(3) 0.3947(3) 0.3062(2) 0.1680 Uani
C10MC C 1.2461(3) 0.4252(2) 0.3712(2) 0.1393 Uani
C11MC C 1.2107(3) 0.3797(3) 0.3115(3) 0.1947 Uani
H5MC H 1.2631 0.3894 0.2822 0.2020 Uiso
H6MC H 1.2582 0.4407 0.3917 0.1670 Uiso
C12MC C 1.2077(3) 0.4102(3) 0.3765(3) 0.1597 Uani
H7MC H 1.1986 0.3642 0.2911 0.2330 Uiso
C13MC C 1.1900(2) 0.3875(3) 0.3466(3) 0.1670 Uani
H8MC H 1.1936 0.4155 0.4005 0.1920 Uiso
O1IB O 1.1445(2) 0.0535(2) 0.4771(2) 0.1250 Uani
O3IB O 1.2112(2) 0.0556(2) 0.4846(2) 0.1260 Uani
C1IB C 1.1786(4) 0.0709(4) 0.4769(3) 0.1190 Uani
C2IB C 1.1757(2) 0.11401(17) 0.4609(2) 0.1147 Uani
C3IB C 1.1386(2) 0.1292(2) 0.4500(3) 0.1540 Uani
C4IB C 1.20970(18) 0.1374(2) 0.4569(2) 0.1313 Uani
H1IB H 1.1154 0.1132 0.4528 0.1850 Uiso
C5IB C 1.13559(18) 0.1678(2) 0.4350(2) 0.1370 Uani
C6IB C 1.20666(19) 0.1760(2) 0.4419(2) 0.1257 Uani
H2IB H 1.2350 0.1271 0.4643 0.1580 Uiso
H3IB H 1.1103 0.1781 0.4276 0.1650 Uiso
C7IB C 1.1696(2) 0.19118(17) 0.4310(2) 0.1150 Uani
H4IB H 1.2299 0.1920 0.4391 0.1510 Uiso
C8IB C 1.1639(3) 0.2333(2) 0.4174(2) 0.0933 Uani
C9IB C 1.1938(2) 0.2510(3) 0.3947(3) 0.1680 Uani
C10IB C 1.1288(2) 0.2539(3) 0.4252(2) 0.1393 Uani
C11IB C 1.1885(3) 0.2893(3) 0.3797(3) 0.1947 Uani
H5IB H 1.2178 0.2369 0.3894 0.2020 Uiso
H6IB H 1.1083 0.2418 0.4407 0.1670 Uiso
C12IB C 1.1235(3) 0.2923(3) 0.4102(3) 0.1597 Uani
H7IB H 1.2089 0.3014 0.3642 0.2330 Uiso
C13IB C 1.1534(3) 0.3100(2) 0.3875(3) 0.1670 Uani
H8IB H 1.0995 0.3064 0.4155 0.1920 Uiso
O1V O 0.9771(2) 0.3555(2) -0.0535(2) 0.1250 Uani
O3V O 0.9846(2) 0.2888(2) -0.0556(2) 0.1260 Uani
C1V C 0.9769(3) 0.3214(4) -0.0709(4) 0.1190 Uani
C2V C 0.9609(2) 0.3243(2) -0.11401(17) 0.1147 Uani
C3V C 0.9500(3) 0.3614(2) -0.1292(2) 0.1540 Uani
C4V C 0.9569(2) 0.29030(18) -0.1374(2) 0.1313 Uani
H1V H 0.9528 0.3846 -0.1132 0.1850 Uiso
C5V C 0.9350(2) 0.36441(18) -0.1678(2) 0.1370 Uani
C6V C 0.9419(2) 0.29334(19) -0.1760(2) 0.1257 Uani
H2V H 0.9643 0.2650 -0.1271 0.1580 Uiso
H3V H 0.9276 0.3897 -0.1781 0.1650 Uiso
C7V C 0.9310(2) 0.3304(2) -0.19118(17) 0.1150 Uani
H4V H 0.9391 0.2701 -0.1920 0.1510 Uiso
C8V C 0.9174(2) 0.3361(3) -0.2333(2) 0.0933 Uani
C9V C 0.8947(3) 0.3062(2) -0.2510(3) 0.1680 Uani
C10V C 0.9252(2) 0.3712(2) -0.2539(3) 0.1393 Uani
C11V C 0.8797(3) 0.3115(3) -0.2893(3) 0.1947 Uani
H5V H 0.8894 0.2822 -0.2369 0.2020 Uiso
H6V H 0.9407 0.3917 -0.2418 0.1670 Uiso
C12V C 0.9102(3) 0.3765(3) -0.2923(3) 0.1597 Uani
H7V H 0.8642 0.2911 -0.3014 0.2330 Uiso
C13V C 0.8875(3) 0.3466(3) -0.3100(2) 0.1670 Uani
H8V H 0.9155 0.4005 -0.3064 0.1920 Uiso
Si1V Si 0.85754(18) 0.35754(18) -0.35754(18) 0.1680 Uani
O5V O 0.8859(5) 0.3859(5) -0.3859(5) 0.2160 Uani
O1LC O 0.5535(2) 0.4771(2) -0.3555(2) 0.1250 Uani
O3LC O 0.5556(2) 0.4846(2) -0.2888(2) 0.1260 Uani
C1LC C 0.5709(4) 0.4769(3) -0.3214(4) 0.1190 Uani
C2LC C 0.61401(17) 0.4609(2) -0.3243(2) 0.1147 Uani
C3LC C 0.6292(2) 0.4500(3) -0.3614(2) 0.1540 Uani
C4LC C 0.6374(2) 0.4569(2) -0.29030(18) 0.1313 Uani
H1LC H 0.6132 0.4528 -0.3846 0.1850 Uiso
C5LC C 0.6678(2) 0.4350(2) -0.36441(18) 0.1370 Uani
C6LC C 0.6760(2) 0.4419(2) -0.29334(19) 0.1257 Uani
H2LC H 0.6271 0.4643 -0.2650 0.1580 Uiso
H3LC H 0.6781 0.4276 -0.3897 0.1650 Uiso
C7LC C 0.69118(17) 0.4310(2) -0.3304(2) 0.1150 Uani
H4LC H 0.6920 0.4391 -0.2701 0.1510 Uiso
C8LC C 0.7333(2) 0.4174(2) -0.3361(3) 0.0933 Uani
C9LC C 0.7510(3) 0.3947(3) -0.3062(2) 0.1680 Uani
C10LC C 0.7539(3) 0.4252(2) -0.3712(2) 0.1393 Uani
C11LC C 0.7893(3) 0.3797(3) -0.3115(3) 0.1947 Uani
H5LC H 0.7369 0.3894 -0.2822 0.2020 Uiso
H6LC H 0.7418 0.4407 -0.3917 0.1670 Uiso
C12LC C 0.7923(3) 0.4102(3) -0.3765(3) 0.1597 Uani
H7LC H 0.8014 0.3642 -0.2911 0.2330 Uiso
C13LC C 0.8100(2) 0.3875(3) -0.3466(3) 0.1670 Uani
H8LC H 0.8064 0.4155 -0.4005 0.1920 Uiso
O1JB O 0.8555(2) 0.0535(2) -0.4771(2) 0.1250 Uani
O3JB O 0.7888(2) 0.0556(2) -0.4846(2) 0.1260 Uani
C1JB C 0.8214(4) 0.0709(4) -0.4769(3) 0.1190 Uani
C2JB C 0.8243(2) 0.11401(17) -0.4609(2) 0.1147 Uani
C3JB C 0.8614(2) 0.1292(2) -0.4500(3) 0.1540 Uani
C4JB C 0.79030(18) 0.1374(2) -0.4569(2) 0.1313 Uani
H1JB H 0.8846 0.1132 -0.4528 0.1850 Uiso
C5JB C 0.86441(18) 0.1678(2) -0.4350(2) 0.1370 Uani
C6JB C 0.79334(19) 0.1760(2) -0.4419(2) 0.1257 Uani
H2JB H 0.7650 0.1271 -0.4643 0.1580 Uiso
H3JB H 0.8897 0.1781 -0.4276 0.1650 Uiso
C7JB C 0.8304(2) 0.19118(17) -0.4310(2) 0.1150 Uani
H4JB H 0.7701 0.1920 -0.4391 0.1510 Uiso
C8JB C 0.8361(3) 0.2333(2) -0.4174(2) 0.0933 Uani
C9JB C 0.8062(2) 0.2510(3) -0.3947(3) 0.1680 Uani
C10JB C 0.8712(2) 0.2539(3) -0.4252(2) 0.1393 Uani
C11JB C 0.8115(3) 0.2893(3) -0.3797(3) 0.1947 Uani
H5JB H 0.7822 0.2369 -0.3894 0.2020 Uiso
H6JB H 0.8917 0.2418 -0.4407 0.1670 Uiso
C12JB C 0.8765(3) 0.2923(3) -0.4102(3) 0.1597 Uani
H7JB H 0.7911 0.3014 -0.3642 0.2330 Uiso
C13JB C 0.8466(3) 0.3100(2) -0.3875(3) 0.1670 Uani
H8JB H 0.9005 0.3064 -0.4155 0.1920 Uiso
Cu1GA Cu 0.63904(7) 0.5000 0.5000 0.1114 Uani
Cu2GA Cu 0.71706(7) 0.5000 0.5000 0.1197 Uani
O2GA O 0.5706(4) 0.5000 0.5000 0.1747 Uani
O4GA O 0.7805(4) 0.5000 0.5000 0.1907 Uani
Cu1AB Cu 0.5000 0.0000 0.13904(7) 0.1114 Uani
Cu2AB Cu 0.5000 0.0000 0.21706(7) 0.1197 Uani
O2AB O 0.5000 0.0000 0.0706(4) 0.1747 Uani
O4AB O 0.5000 0.0000 0.2805(4) 0.1907 Uani
Cu1FA Cu 1.36096(7) 0.5000 -0.5000 0.1114 Uani
Cu1ZA Cu 1.5000 0.0000 -0.13904(7) 0.1114 Uani
Cu1DB Cu 0.86096(7) 0.0000 -0.5000 0.1114 Uani
Cu1EB Cu 1.13904(7) 0.0000 0.5000 0.1114 Uani
Cu1XB Cu 1.5000 0.5000 0.36096(7) 0.1114 Uani
Cu1YB Cu 0.5000 0.5000 -0.36096(7) 0.1114 Uani
Cu2FA Cu 1.28294(7) 0.5000 -0.5000 0.1197 Uani
Cu2ZA Cu 1.5000 -0.0000 -0.21706(7) 0.1197 Uani
Cu2DB Cu 0.78294(7) 0.0000 -0.5000 0.1197 Uani
Cu2EB Cu 1.21706(7) 0.0000 0.5000 0.1197 Uani
Cu2XB Cu 1.5000 0.5000 0.28294(7) 0.1197 Uani
Cu2YB Cu 0.5000 0.5000 -0.28294(7) 0.1197 Uani
O1GA O 0.6445(2) 0.5229(2) 0.5535(2) 0.1250 Uani
O1KA O 0.6445(2) 0.5535(2) 0.4771(2) 0.1250 Uani
O1MA O 0.6445(2) 0.4465(2) 0.5229(2) 0.1250 Uani
O1CB O 0.4771(2) -0.0535(2) 0.1445(2) 0.1250 Uani
O1LB O 0.4465(2) 0.0229(2) 0.1445(2) 0.1250 Uani
O1NB O 0.5535(2) -0.0229(2) 0.1445(2) 0.1250 Uani
O3GA O 0.7112(2) 0.5154(2) 0.5556(2) 0.1260 Uani
O3KA O 0.7112(2) 0.5556(2) 0.4846(2) 0.1260 Uani
O3MA O 0.7112(2) 0.4444(2) 0.5154(2) 0.1260 Uani
O3CB O 0.4846(2) -0.0556(2) 0.2112(2) 0.1260 Uani
O3LB O 0.4444(2) 0.0154(2) 0.2112(2) 0.1260 Uani
O3NB O 0.5556(2) -0.0154(2) 0.2112(2) 0.1260 Uani
loop_
_atom_site_aniso_label
_atom_site_aniso_U_11
_atom_site_aniso_U_22
_atom_site_aniso_U_33
_atom_site_aniso_U_23
_atom_site_aniso_U_13
_atom_site_aniso_U_12
Cu1 0.1214(13) 0.0914(15) 0.1214(13) 0.000 0.000 0.000
Cu2 0.1336(13) 0.0920(16) 0.1336(13) 0.000 0.000 0.000
O1 0.108(4) 0.114(5) 0.153(5) 0.008(4) 0.018(4) -0.008(4)
O2 0.216(9) 0.092(8) 0.216(9) 0.000 0.000 0.000
O3 0.132(5) 0.100(4) 0.146(6) -0.006(4) 0.000(4) -0.012(4)
O4 0.243(12) 0.086(8) 0.243(12) 0.000 0.000 0.000
C1 0.143(9) 0.119(9) 0.095(6) 0.010(6) 0.010(6) -0.039(8)
C2 0.134(9) 0.134(8) 0.076(5) -0.008(5) -0.004(5) 0.009(7)
C3 0.111(9) 0.145(11) 0.206(13) -0.027(9) 0.030(9) -0.038(7)
C4 0.167(11) 0.107(7) 0.120(8) 0.002(6) 0.019(7) -0.041(7)
C5 0.135(9) 0.130(9) 0.146(10) -0.035(7) 0.017(8) -0.028(7)
C6 0.111(8) 0.091(8) 0.175(13) -0.019(8) 0.044(8) -0.057(7)
C7 0.126(7) 0.119(8) 0.100(6) 0.008(5) 0.020(5) -0.030(6)
C8 0.102(5) 0.093(5) 0.085(4) -0.010(4) 0.018(4) -0.014(4)
C9 0.169(8) 0.161(8) 0.174(8) -0.003(5) 0.015(5) 0.001(5)
C10 0.141(6) 0.144(6) 0.133(6) 0.001(4) 0.011(4) 0.003(5)
C11 0.199(9) 0.192(9) 0.193(9) 0.004(5) 0.016(5) -0.003(5)
C12 0.159(6) 0.162(6) 0.158(6) -0.001(4) 0.000(4) -0.006(5)
C13 0.165(6) 0.170(6) 0.166(6) -0.002(5) 0.010(5) -0.009(5)
Si1 0.168(3) 0.168(3) 0.168(3) -0.068(4) 0.068(4) -0.068(4)
O5 0.216(8) 0.216(8) 0.216(8) -0.065(11) 0.065(11) -0.065(11)
O1IA 0.114 0.153 0.108 -0.018 0.008 0.008
O3IA 0.1 0.146 0.132 0 0.012 -0.006
C1IA 0.119 0.095 0.143 -0.01 0.039 0.01
C2IA 0.134 0.076 0.134 0.004 -0.009 -0.008
C3IA 0.145 0.206 0.111 -0.03 0.038 -0.027
C4IA 0.107 0.12 0.167 -0.019 0.041 0.002
C5IA 0.13 0.146 0.135 -0.017 0.028 -0.035
C6IA 0.091 0.175 0.111 -0.044 0.057 -0.019
C7IA 0.119 0.1 0.126 -0.02 0.03 0.008
C8IA 0.093 0.085 0.102 -0.018 0.014 -0.01
C9IA 0.161 0.174 0.169 -0.015 -0.001 -0.003
C10IA 0.144 0.133 0.141 -0.011 -0.003 0.001
C11IA 0.192 0.193 0.199 -0.016 0.003 0.004
C12IA 0.162 0.158 0.159 0 0.006 -0.001
C13IA 0.17 0.166 0.165 -0.01 0.009 -0.002
O1AB 0.153 0.108 0.114 -0.008 -0.008 -0.018
O3AB 0.146 0.132 0.1 -0.012 0.006 0
C1AB 0.095 0.143 0.119 -0.039 -0.01 -0.01
C2AB 0.076 0.134 0.134 0.009 0.008 0.004
C3AB 0.206 0.111 0.145 -0.038 0.027 -0.03
C4AB 0.12 0.167 0.107 -0.041 -0.002 -0.019
C5AB 0.146 0.135 0.13 -0.028 0.035 -0.017
C6AB 0.175 0.111 0.091 -0.057 0.019 -0.044
C7AB 0.1 0.126 0.119 -0.03 -0.008 -0.02
C8AB 0.085 0.102 0.093 -0.014 0.01 -0.018
C9AB 0.174 0.169 0.161 0.001 0.003 -0.015
C10AB 0.133 0.141 0.144 0.003 -0.001 -0.011
C11AB 0.193 0.199 0.192 -0.003 -0.004 -0.016
C12AB 0.158 0.159 0.162 -0.006 0.001 0
C13AB 0.166 0.165 0.17 -0.009 0.002 -0.01
O1B 0.108 0.114 0.153 -0.008 0.018 0.008
O3B 0.132 0.1 0.146 0.006 0 0.012
C1B 0.143 0.119 0.095 -0.01 0.01 0.039
C2B 0.134 0.134 0.076 0.008 -0.004 -0.009
C3B 0.111 0.145 0.206 0.027 0.03 0.038
C4B 0.167 0.107 0.12 -0.002 0.019 0.041
C5B 0.135 0.13 0.146 0.035 0.017 0.028
C6B 0.111 0.091 0.175 0.019 0.044 0.057
C7B 0.126 0.119 0.1 -0.008 0.02 0.03
C8B 0.102 0.093 0.085 0.01 0.018 0.014
C9B 0.169 0.161 0.174 0.003 0.015 -0.001
C10B 0.141 0.144 0.133 -0.001 0.011 -0.003
C11B 0.199 0.192 0.193 -0.004 0.016 0.003
C12B 0.159 0.162 0.158 0.001 0 0.006
C13B 0.165 0.17 0.166 0.002 0.01 0.009
Si1B 0.168 0.168 0.168 0.068 0.068 0.068
O5B 0.216 0.216 0.216 0.065 0.065 0.065
O1HA 0.114 0.153 0.108 0.018 0.008 -0.008
O3HA 0.1 0.146 0.132 0 0.012 0.006
C1HA 0.119 0.095 0.143 0.01 0.039 -0.01
C2HA 0.134 0.076 0.134 -0.004 -0.009 0.008
C3HA 0.145 0.206 0.111 0.03 0.038 0.027
C4HA 0.107 0.12 0.167 0.019 0.041 -0.002
C5HA 0.13 0.146 0.135 0.017 0.028 0.035
C6HA 0.091 0.175 0.111 0.044 0.057 0.019
C7HA 0.119 0.1 0.126 0.02 0.03 -0.008
C8HA 0.093 0.085 0.102 0.018 0.014 0.01
C9HA 0.161 0.174 0.169 0.015 -0.001 0.003
C10HA 0.144 0.133 0.141 0.011 -0.003 -0.001
C11HA 0.192 0.193 0.199 0.016 0.003 -0.004
C12HA 0.162 0.158 0.159 0 0.006 0.001
C13HA 0.17 0.166 0.165 0.01 0.009 0.002
O1BB 0.153 0.108 0.114 0.008 -0.008 0.018
O3BB 0.146 0.132 0.1 0.012 0.006 0
C1BB 0.095 0.143 0.119 0.039 -0.01 0.01
C2BB 0.076 0.134 0.134 -0.009 0.008 -0.004
C3BB 0.206 0.111 0.145 0.038 0.027 0.03
C4BB 0.12 0.167 0.107 0.041 -0.002 0.019
C5BB 0.146 0.135 0.13 0.028 0.035 0.017
C6BB 0.175 0.111 0.091 0.057 0.019 0.044
C7BB 0.1 0.126 0.119 0.03 -0.008 0.02
C8BB 0.085 0.102 0.093 0.014 0.01 0.018
C9BB 0.174 0.169 0.161 -0.001 0.003 0.015
C10BB 0.133 0.141 0.144 -0.003 -0.001 0.011
C11BB 0.193 0.199 0.192 0.003 -0.004 0.016
C12BB 0.158 0.159 0.162 0.006 0.001 0
C13BB 0.166 0.165 0.17 0.009 0.002 0.01
O1T 0.153 0.114 0.108 0.008 -0.018 0.008
O3T 0.146 0.1 0.132 0.012 0 -0.006
C1T 0.095 0.119 0.143 0.039 -0.01 0.01
C2T 0.076 0.134 0.134 -0.009 0.004 -0.008
C3T 0.206 0.145 0.111 0.038 -0.03 -0.027
C4T 0.12 0.107 0.167 0.041 -0.019 0.002
C5T 0.146 0.13 0.135 0.028 -0.017 -0.035
C6T 0.175 0.091 0.111 0.057 -0.044 -0.019
C7T 0.1 0.119 0.126 0.03 -0.02 0.008
C8T 0.085 0.093 0.102 0.014 -0.018 -0.01
C9T 0.174 0.161 0.169 -0.001 -0.015 -0.003
C10T 0.133 0.144 0.141 -0.003 -0.011 0.001
C11T 0.193 0.192 0.199 0.003 -0.016 0.004
C12T 0.158 0.162 0.159 0.006 0 -0.001
C13T 0.166 0.17 0.165 0.009 -0.01 -0.002
Si1T 0.168 0.168 0.168 0.068 -0.068 -0.068
O5T 0.216 0.216 0.216 0.065 -0.065 -0.065
O1MC 0.108 0.153 0.114 -0.008 -0.008 -0.018
O3MC 0.132 0.146 0.1 0.006 -0.012 0
C1MC 0.143 0.095 0.119 -0.01 -0.039 -0.01
C2MC 0.134 0.076 0.134 0.008 0.009 0.004
C3MC 0.111 0.206 0.145 0.027 -0.038 -0.03
C4MC 0.167 0.12 0.107 -0.002 -0.041 -0.019
C5MC 0.135 0.146 0.13 0.035 -0.028 -0.017
C6MC 0.111 0.175 0.091 0.019 -0.057 -0.044
C7MC 0.126 0.1 0.119 -0.008 -0.03 -0.02
C8MC 0.102 0.085 0.093 0.01 -0.014 -0.018
C9MC 0.169 0.174 0.161 0.003 0.001 -0.015
C10MC 0.141 0.133 0.144 -0.001 0.003 -0.011
C11MC 0.199 0.193 0.192 -0.004 -0.003 -0.016
C12MC 0.159 0.158 0.162 0.001 -0.006 0
C13MC 0.165 0.166 0.17 0.002 -0.009 -0.01
O1IB 0.114 0.108 0.153 0.018 0.008 -0.008
O3IB 0.1 0.132 0.146 0 -0.006 -0.012
C1IB 0.119 0.143 0.095 0.01 0.01 -0.039
C2IB 0.134 0.134 0.076 -0.004 -0.008 0.009
C3IB 0.145 0.111 0.206 0.03 -0.027 -0.038
C4IB 0.107 0.167 0.12 0.019 0.002 -0.041
C5IB 0.13 0.135 0.146 0.017 -0.035 -0.028
C6IB 0.091 0.111 0.175 0.044 -0.019 -0.057
C7IB 0.119 0.126 0.1 0.02 0.008 -0.03
C8IB 0.093 0.102 0.085 0.018 -0.01 -0.014
C9IB 0.161 0.169 0.174 0.015 -0.003 0.001
C10IB 0.144 0.141 0.133 0.011 0.001 0.003
C11IB 0.192 0.199 0.193 0.016 0.004 -0.003
C12IB 0.162 0.159 0.158 0 -0.001 -0.006
C13IB 0.17 0.165 0.166 0.01 -0.002 -0.009
O1V 0.153 0.114 0.108 -0.008 -0.018 -0.008
O3V 0.146 0.1 0.132 -0.012 0 0.006
C1V 0.095 0.119 0.143 -0.039 -0.01 -0.01
C2V 0.076 0.134 0.134 0.009 0.004 0.008
C3V 0.206 0.145 0.111 -0.038 -0.03 0.027
C4V 0.12 0.107 0.167 -0.041 -0.019 -0.002
C5V 0.146 0.13 0.135 -0.028 -0.017 0.035
C6V 0.175 0.091 0.111 -0.057 -0.044 0.019
C7V 0.1 0.119 0.126 -0.03 -0.02 -0.008
C8V 0.085 0.093 0.102 -0.014 -0.018 0.01
C9V 0.174 0.161 0.169 0.001 -0.015 0.003
C10V 0.133 0.144 0.141 0.003 -0.011 -0.001
C11V 0.193 0.192 0.199 -0.003 -0.016 -0.004
C12V 0.158 0.162 0.159 -0.006 0 0.001
C13V 0.166 0.17 0.165 -0.009 -0.01 0.002
Si1V 0.168 0.168 0.168 -0.068 -0.068 0.068
O5V 0.216 0.216 0.216 -0.065 -0.065 0.065
O1LC 0.108 0.153 0.114 0.008 -0.008 0.018
O3LC 0.132 0.146 0.1 -0.006 -0.012 0
C1LC 0.143 0.095 0.119 0.01 -0.039 0.01
C2LC 0.134 0.076 0.134 -0.008 0.009 -0.004
C3LC 0.111 0.206 0.145 -0.027 -0.038 0.03
C4LC 0.167 0.12 0.107 0.002 -0.041 0.019
C5LC 0.135 0.146 0.13 -0.035 -0.028 0.017
C6LC 0.111 0.175 0.091 -0.019 -0.057 0.044
C7LC 0.126 0.1 0.119 0.008 -0.03 0.02
C8LC 0.102 0.085 0.093 -0.01 -0.014 0.018
C9LC 0.169 0.174 0.161 -0.003 0.001 0.015
C10LC 0.141 0.133 0.144 0.001 0.003 0.011
C11LC 0.199 0.193 0.192 0.004 -0.003 0.016
C12LC 0.159 0.158 0.162 -0.001 -0.006 0
C13LC 0.165 0.166 0.17 -0.002 -0.009 0.01
O1JB 0.114 0.108 0.153 -0.018 0.008 0.008
O3JB 0.1 0.132 0.146 0 -0.006 0.012
C1JB 0.119 0.143 0.095 -0.01 0.01 0.039
C2JB 0.134 0.134 0.076 0.004 -0.008 -0.009
C3JB 0.145 0.111 0.206 -0.03 -0.027 0.038
C4JB 0.107 0.167 0.12 -0.019 0.002 0.041
C5JB 0.13 0.135 0.146 -0.017 -0.035 0.028
C6JB 0.091 0.111 0.175 -0.044 -0.019 0.057
C7JB 0.119 0.126 0.1 -0.02 0.008 0.03
C8JB 0.093 0.102 0.085 -0.018 -0.01 0.014
C9JB 0.161 0.169 0.174 -0.015 -0.003 -0.001
C10JB 0.144 0.141 0.133 -0.011 0.001 -0.003
C11JB 0.192 0.199 0.193 -0.016 0.004 0.003
C12JB 0.162 0.159 0.158 0 -0.001 0.006
C13JB 0.17 0.165 0.166 -0.01 -0.002 0.009
Cu1GA 0.0914 0.1214 0.1214 0 0 0
Cu2GA 0.092 0.1336 0.1336 0 0 0
O2GA 0.092 0.216 0.216 0 0 0
O4GA 0.086 0.243 0.243 0 0 0
Cu1AB 0.1214 0.1214 0.0914 0 0 0
Cu2AB 0.1336 0.1336 0.092 0 0 0
O2AB 0.216 0.216 0.092 0 0 0
O4AB 0.243 0.243 0.086 0 0 0
Cu1FA 0.0914 0.1214 0.1214 0 0 0
Cu1ZA 0.1214 0.1214 0.0914 0 0 0
Cu1DB 0.0914 0.1214 0.1214 0 0 0
Cu1EB 0.0914 0.1214 0.1214 0 0 0
Cu1XB 0.1214 0.1214 0.0914 0 0 0
Cu1YB 0.1214 0.1214 0.0914 0 0 0
Cu2FA 0.092 0.1336 0.1336 0 0 0
Cu2ZA 0.1336 0.1336 0.092 0 0 0
Cu2DB 0.092 0.1336 0.1336 0 0 0
Cu2EB 0.092 0.1336 0.1336 0 0 0
Cu2XB 0.1336 0.1336 0.092 0 0 0
Cu2YB 0.1336 0.1336 0.092 0 0 0
O1GA 0.114 0.153 0.108 -0.018 -0.008 -0.008
O1KA 0.114 0.108 0.153 0.018 0.008 -0.008
O1MA 0.114 0.108 0.153 0.018 -0.008 0.008
O1CB 0.153 0.108 0.114 0.008 0.008 -0.018
O1LB 0.108 0.153 0.114 -0.008 0.008 0.018
O1NB 0.108 0.153 0.114 0.008 -0.008 0.018
O3GA 0.1 0.146 0.132 0 -0.012 0.006
O3KA 0.1 0.132 0.146 0 -0.006 -0.012
O3MA 0.1 0.132 0.146 0 0.006 0.012
O3CB 0.146 0.132 0.1 0.012 -0.006 0
O3LB 0.132 0.146 0.1 0.006 0.012 0
O3NB 0.132 0.146 0.1 -0.006 -0.012 0
loop_
_geom_bond_atom_site_label_1
_geom_bond_atom_site_label_2
_geom_bond_site_symmetry_1
_geom_bond_site_symmetry_2
Cu1 O1 1_555 1_555
Cu2 O3 1_555 1_555
O1 C1 1_555 1_555
O2 Cu1 1_555 1_555
O3 C1 1_555 1_555
O4 Cu2 1_555 1_555
C1 C2 1_555 1_555
C2 C3 1_555 1_555
C3 H1 1_555 1_555
C4 C2 1_555 1_555
C5 C3 1_555 1_555
C6 C4 1_555 1_555
H2 C4 1_555 1_555
H3 C5 1_555 1_555
C7 C5 1_555 1_555
H4 C6 1_555 1_555
C8 C7 1_555 1_555
C9 C8 1_555 1_555
C10 C8 1_555 1_555
C11 C9 1_555 1_555
H5 C9 1_555 1_555
H6 C10 1_555 1_555
C12 C10 1_555 1_555
H7 C11 1_555 1_555
C13 C11 1_555 1_555
H8 C12 1_555 1_555
Si1 C13 1_555 1_555
O5 Si1 1_555 1_555
O1IA C1IA 1_555 1_555
O3IA C1IA 1_555 1_555
C1IA C2IA 1_555 1_555
C2IA C3IA 1_555 1_555
C3IA H1IA 1_555 1_555
C4IA C2IA 1_555 1_555
C5IA C3IA 1_555 1_555
C6IA C4IA 1_555 1_555
H2IA C4IA 1_555 1_555
H3IA C5IA 1_555 1_555
C7IA C5IA 1_555 1_555
H4IA C6IA 1_555 1_555
C8IA C7IA 1_555 1_555
C9IA C8IA 1_555 1_555
C10IA C8IA 1_555 1_555
C11IA C9IA 1_555 1_555
H5IA C9IA 1_555 1_555
H6IA C10IA 1_555 1_555
C12IA C10IA 1_555 1_555
H7IA C11IA 1_555 1_555
C13IA Si1 1_555 1_555
H8IA C12IA 1_555 1_555
O1AB C1AB 1_555 1_555
O3AB C1AB 1_555 1_555
C1AB C2AB 1_555 1_555
C2AB C3AB 1_555 1_555
C3AB H1AB 1_555 1_555
C4AB C2AB 1_555 1_555
C5AB C3AB 1_555 1_555
C6AB C4AB 1_555 1_555
H2AB C4AB 1_555 1_555
H3AB C5AB 1_555 1_555
C7AB C5AB 1_555 1_555
H4AB C6AB 1_555 1_555
C8AB C7AB 1_555 1_555
C9AB C8AB 1_555 1_555
C10AB C8AB 1_555 1_555
C11AB C9AB 1_555 1_555
H5AB C9AB 1_555 1_555
H6AB C10AB 1_555 1_555
C12AB C10AB 1_555 1_555
H7AB C11AB 1_555 1_555
C13AB Si1 1_555 1_555
H8AB C12AB 1_555 1_555
O1B Cu1 1_555 1_555
O3B Cu2 1_555 1_555
C1B O1B 1_555 1_555
C2B C1B 1_555 1_555
C3B C2B 1_555 1_555
C4B C2B 1_555 1_555
H1B C3B 1_555 1_555
C5B C3B 1_555 1_555
C6B C4B 1_555 1_555
H2B C4B 1_555 1_555
H3B C5B 1_555 1_555
C7B C5B 1_555 1_555
H4B C6B 1_555 1_555
C8B C7B 1_555 1_555
C9B C8B 1_555 1_555
C10B C8B 1_555 1_555
C11B C9B 1_555 1_555
H5B C9B 1_555 1_555
H6B C10B 1_555 1_555
C12B C10B 1_555 1_555
H7B C11B 1_555 1_555
C13B C11B 1_555 1_555
H8B C12B 1_555 1_555
Si1B C13B 1_555 1_555
O5B Si1B 1_555 1_555
O1HA C1HA 1_555 1_555
O3HA C1HA 1_555 1_555
C1HA C2HA 1_555 1_555
C2HA C3HA 1_555 1_555
C3HA H1HA 1_555 1_555
C4HA C2HA 1_555 1_555
C5HA C3HA 1_555 1_555
C6HA C4HA 1_555 1_555
H2HA C4HA 1_555 1_555
H3HA C5HA 1_555 1_555
C7HA C5HA 1_555 1_555
H4HA C6HA 1_555 1_555
C8HA C7HA 1_555 1_555
C9HA C8HA 1_555 1_555
C10HA C8HA 1_555 1_555
C11HA C9HA 1_555 1_555
H5HA C9HA 1_555 1_555
H6HA C10HA 1_555 1_555
C12HA C10HA 1_555 1_555
H7HA C11HA 1_555 1_555
C13HA Si1B 1_555 1_555
H8HA C12HA 1_555 1_555
O1BB C1BB 1_555 1_555
O3BB C1BB 1_555 1_555
C1BB C2BB 1_555 1_555
C2BB C3BB 1_555 1_555
C3BB H1BB 1_555 1_555
C4BB C2BB 1_555 1_555
C5BB C3BB 1_555 1_555
C6BB C4BB 1_555 1_555
H2BB C4BB 1_555 1_555
H3BB C5BB 1_555 1_555
C7BB C5BB 1_555 1_555
H4BB C6BB 1_555 1_555
C8BB C7BB 1_555 1_555
C9BB C8BB 1_555 1_555
C10BB C8BB 1_555 1_555
C11BB C9BB 1_555 1_555
H5BB C9BB 1_555 1_555
H6BB C10BB 1_555 1_555
C12BB C10BB 1_555 1_555
H7BB C11BB 1_555 1_555
C13BB Si1B 1_555 1_555
H8BB C12BB 1_555 1_555
O1T Cu1 1_555 1_555
O3T Cu2 1_555 1_555
C1T O1T 1_555 1_555
C2T C1T 1_555 1_555
C3T C2T 1_555 1_555
C4T C2T 1_555 1_555
H1T C3T 1_555 1_555
C5T C3T 1_555 1_555
C6T C4T 1_555 1_555
H2T C4T 1_555 1_555
H3T C5T 1_555 1_555
C7T C5T 1_555 1_555
H4T C6T 1_555 1_555
C8T C7T 1_555 1_555
C9T C8T 1_555 1_555
C10T C8T 1_555 1_555
C11T C9T 1_555 1_555
H5T C9T 1_555 1_555
H6T C10T 1_555 1_555
C12T C10T 1_555 1_555
H7T C11T 1_555 1_555
C13T C11T 1_555 1_555
H8T C12T 1_555 1_555
Si1T C13T 1_555 1_555
O5T Si1T 1_555 1_555
O1MC C1MC 1_555 1_555
O3MC C1MC 1_555 1_555
C1MC C2MC 1_555 1_555
C2MC C3MC 1_555 1_555
C3MC H1MC 1_555 1_555
C4MC C2MC 1_555 1_555
C5MC C3MC 1_555 1_555
C6MC C4MC 1_555 1_555
H2MC C4MC 1_555 1_555
H3MC C5MC 1_555 1_555
C7MC C5MC 1_555 1_555
H4MC C6MC 1_555 1_555
C8MC C7MC 1_555 1_555
C9MC C8MC 1_555 1_555
C10MC C8MC 1_555 1_555
C11MC C9MC 1_555 1_555
H5MC C9MC 1_555 1_555
H6MC C10MC 1_555 1_555
C12MC C10MC 1_555 1_555
H7MC C11MC 1_555 1_555
C13MC Si1T 1_555 1_555
H8MC C12MC 1_555 1_555
O1IB C1IB 1_555 1_555
O3IB C1IB 1_555 1_555
C1IB C2IB 1_555 1_555
C2IB C3IB 1_555 1_555
C3IB H1IB 1_555 1_555
C4IB C2IB 1_555 1_555
C5IB C3IB 1_555 1_555
C6IB C4IB 1_555 1_555
H2IB C4IB 1_555 1_555
H3IB C5IB 1_555 1_555
C7IB C5IB 1_555 1_555
H4IB C6IB 1_555 1_555
C8IB C7IB 1_555 1_555
C9IB C8IB 1_555 1_555
C10IB C8IB 1_555 1_555
C11IB C9IB 1_555 1_555
H5IB C9IB 1_555 1_555
H6IB C10IB 1_555 1_555
C12IB C10IB 1_555 1_555
H7IB C11IB 1_555 1_555
C13IB Si1T 1_555 1_555
H8IB C12IB 1_555 1_555
O1V Cu1 1_555 1_555
O3V Cu2 1_555 1_555
C1V O1V 1_555 1_555
C2V C1V 1_555 1_555
C3V C2V 1_555 1_555
C4V C2V 1_555 1_555
H1V C3V 1_555 1_555
C5V C3V 1_555 1_555
C6V C4V 1_555 1_555
H2V C4V 1_555 1_555
H3V C5V 1_555 1_555
C7V C5V 1_555 1_555
H4V C6V 1_555 1_555
C8V C7V 1_555 1_555
C9V C8V 1_555 1_555
C10V C8V 1_555 1_555
C11V C9V 1_555 1_555
H5V C9V 1_555 1_555
H6V C10V 1_555 1_555
C12V C10V 1_555 1_555
H7V C11V 1_555 1_555
C13V C11V 1_555 1_555
H8V C12V 1_555 1_555
Si1V C13V 1_555 1_555
O5V Si1V 1_555 1_555
O1LC C1LC 1_555 1_555
O3LC C1LC 1_555 1_555
C1LC C2LC 1_555 1_555
C2LC C3LC 1_555 1_555
C3LC H1LC 1_555 1_555
C4LC C2LC 1_555 1_555
C5LC C3LC 1_555 1_555
C6LC C4LC 1_555 1_555
H2LC C4LC 1_555 1_555
H3LC C5LC 1_555 1_555
C7LC C5LC 1_555 1_555
H4LC C6LC 1_555 1_555
C8LC C7LC 1_555 1_555
C9LC C8LC 1_555 1_555
C10LC C8LC 1_555 1_555
C11LC C9LC 1_555 1_555
H5LC C9LC 1_555 1_555
H6LC C10LC 1_555 1_555
C12LC C10LC 1_555 1_555
H7LC C11LC 1_555 1_555
C13LC Si1V 1_555 1_555
H8LC C12LC 1_555 1_555
O1JB C1JB 1_555 1_555
O3JB C1JB 1_555 1_555
C1JB C2JB 1_555 1_555
C2JB C3JB 1_555 1_555
C3JB H1JB 1_555 1_555
C4JB C2JB 1_555 1_555
C5JB C3JB 1_555 1_555
C6JB C4JB 1_555 1_555
H2JB C4JB 1_555 1_555
H3JB C5JB 1_555 1_555
C7JB C5JB 1_555 1_555
H4JB C6JB 1_555 1_555
C8JB C7JB 1_555 1_555
C9JB C8JB 1_555 1_555
C10JB C8JB 1_555 1_555
C11JB C9JB 1_555 1_555
H5JB C9JB 1_555 1_555
H6JB C10JB 1_555 1_555
C12JB C10JB 1_555 1_555
H7JB C11JB 1_555 1_555
C13JB Si1V 1_555 1_555
H8JB C12JB 1_555 1_555
Cu1GA O1IA 1_555 1_555
Cu2GA O3IA 1_555 1_555
O2GA Cu1GA 1_555 1_555
O4GA Cu2GA 1_555 1_555
Cu1AB O1AB 1_555 1_555
Cu2AB O3AB 1_555 1_555
O2AB Cu1AB 1_555 1_555
O4AB Cu2AB 1_555 1_555
Cu1FA O1HA 1_555 1_555
Cu1ZA O1BB 1_555 1_555
Cu1DB O1JB 1_555 1_555
Cu1EB O1IB 1_555 1_555
Cu1XB O1MC 1_555 1_555
Cu1YB O1LC 1_555 1_555
Cu2FA O3HA 1_555 1_555
Cu2ZA O3BB 1_555 1_555
Cu2DB O3JB 1_555 1_555
Cu2EB O3IB 1_555 1_555
Cu2XB O3MC 1_555 1_555
Cu2YB O3LC 1_555 1_555
O1GA Cu1GA 1_555 1_555
O1KA Cu1GA 1_555 1_555
O1MA Cu1GA 1_555 1_555
O1CB Cu1AB 1_555 1_555
O1LB Cu1AB 1_555 1_555
O1NB Cu1AB 1_555 1_555
O3GA Cu2GA 1_555 1_555
O3KA Cu2GA 1_555 1_555
O3MA Cu2GA 1_555 1_555
O3CB Cu2AB 1_555 1_555
O3LB Cu2AB 1_555 1_555
O3NB Cu2AB 1_555 1_555
C6 C7 1_555 1_555
C12 C13 1_555 1_555
C6IA C7IA 1_555 1_555
C11IA C13IA 1_555 1_555
C12IA C13IA 1_555 1_555
C6AB C7AB 1_555 1_555
C11AB C13AB 1_555 1_555
C12AB C13AB 1_555 1_555
O3B C1B 1_555 1_555
C6B C7B 1_555 1_555
C12B C13B 1_555 1_555
C6HA C7HA 1_555 1_555
C11HA C13HA 1_555 1_555
C12HA C13HA 1_555 1_555
C6BB C7BB 1_555 1_555
C11BB C13BB 1_555 1_555
C12BB C13BB 1_555 1_555
O3T C1T 1_555 1_555
C6T C7T 1_555 1_555
C12T C13T 1_555 1_555
C6MC C7MC 1_555 1_555
C11MC C13MC 1_555 1_555
C12MC C13MC 1_555 1_555
C6IB C7IB 1_555 1_555
C11IB C13IB 1_555 1_555
C12IB C13IB 1_555 1_555
O3V C1V 1_555 1_555
C6V C7V 1_555 1_555
C12V C13V 1_555 1_555
C6LC C7LC 1_555 1_555
C11LC C13LC 1_555 1_555
C12LC C13LC 1_555 1_555
C6JB C7JB 1_555 1_555
C11JB C13JB 1_555 1_555
C12JB C13JB 1_555 1_555

#END
