
#######################################################################
#
#                 Cambridge Crystallographic Data Centre
#                                CCDC 
#
#######################################################################
#
# If this CIF has been generated from an entry in the Cambridge 
# Structural Database, then it will include bibliographic, chemical, 
# crystal, experimental, refinement or atomic coordinate data resulting 
# from the CCDC's data processing and validation procedures.
#
#######################################################################

data_FEVNOL
_chemical_formula_moiety         'C36 Cu10 I18 N6'
_symmetry_cell_setting           cubic
_symmetry_space_group_name_H-M   'I m -3 m'
_symmetry_Int_Tables_number      229
_space_group_name_Hall           '-I 4 2 3'
loop_
_symmetry_equiv_pos_site_id
_symmetry_equiv_pos_as_xyz
1 x,y,z
2 -x,-y,z
3 -x,y,-z
4 x,-y,-z
5 z,x,y
6 z,-x,-y
7 -z,-x,y
8 -z,x,-y
9 y,z,x
10 -y,z,-x
11 y,-z,-x
12 -y,-z,x
13 y,x,-z
14 -y,-x,-z
15 y,-x,z
16 -y,x,z
17 x,z,-y
18 -x,z,y
19 -x,-z,-y
20 x,-z,y
21 z,y,-x
22 z,-y,x
23 -z,y,x
24 -z,-y,-x
25 1/2+x,1/2+y,1/2+z
26 1/2-x,1/2-y,1/2+z
27 1/2-x,1/2+y,1/2-z
28 1/2+x,1/2-y,1/2-z
29 1/2+z,1/2+x,1/2+y
30 1/2+z,1/2-x,1/2-y
31 1/2-z,1/2-x,1/2+y
32 1/2-z,1/2+x,1/2-y
33 1/2+y,1/2+z,1/2+x
34 1/2-y,1/2+z,1/2-x
35 1/2+y,1/2-z,1/2-x
36 1/2-y,1/2-z,1/2+x
37 1/2+y,1/2+x,1/2-z
38 1/2-y,1/2-x,1/2-z
39 1/2+y,1/2-x,1/2+z
40 1/2-y,1/2+x,1/2+z
41 1/2+x,1/2+z,1/2-y
42 1/2-x,1/2+z,1/2+y
43 1/2-x,1/2-z,1/2-y
44 1/2+x,1/2-z,1/2+y
45 1/2+z,1/2+y,1/2-x
46 1/2+z,1/2-y,1/2+x
47 1/2-z,1/2+y,1/2+x
48 1/2-z,1/2-y,1/2-x
49 -x,-y,-z
50 x,y,-z
51 x,-y,z
52 -x,y,z
53 -z,-x,-y
54 -z,x,y
55 z,x,-y
56 z,-x,y
57 -y,-z,-x
58 y,-z,x
59 -y,z,x
60 y,z,-x
61 -y,-x,z
62 y,x,z
63 -y,x,-z
64 y,-x,-z
65 -x,-z,y
66 x,-z,-y
67 x,z,y
68 -x,z,-y
69 -z,-y,x
70 -z,y,-x
71 z,-y,-x
72 z,y,x
73 1/2-x,1/2-y,1/2-z
74 1/2+x,1/2+y,1/2-z
75 1/2+x,1/2-y,1/2+z
76 1/2-x,1/2+y,1/2+z
77 1/2-z,1/2-x,1/2-y
78 1/2-z,1/2+x,1/2+y
79 1/2+z,1/2+x,1/2-y
80 1/2+z,1/2-x,1/2+y
81 1/2-y,1/2-z,1/2-x
82 1/2+y,1/2-z,1/2+x
83 1/2-y,1/2+z,1/2+x
84 1/2+y,1/2+z,1/2-x
85 1/2-y,1/2-x,1/2+z
86 1/2+y,1/2+x,1/2+z
87 1/2-y,1/2+x,1/2-z
88 1/2+y,1/2-x,1/2-z
89 1/2-x,1/2-z,1/2+y
90 1/2+x,1/2-z,1/2-y
91 1/2+x,1/2+z,1/2+y
92 1/2-x,1/2+z,1/2-y
93 1/2-z,1/2-y,1/2+x
94 1/2-z,1/2+y,1/2-x
95 1/2+z,1/2-y,1/2-x
96 1/2+z,1/2+y,1/2+x
_cell_length_a                   13.9152(16)
_cell_length_b                   13.9152(16)
_cell_length_c                   13.9152(16)
_cell_angle_alpha                90
_cell_angle_beta                 90
_cell_angle_gamma                90
_cell_volume                     2694.44
loop_
_atom_site_label
_atom_site_type_symbol
_atom_site_fract_x
_atom_site_fract_y
_atom_site_fract_z
_atom_site_U_iso_or_equiv
_atom_site_thermal_displace_type
I1 I 0.72216(8) 0.5000 0.5000 0.0302 Uani
Cu1 Cu 0.60844(9) 0.39156(9) 0.39156(9) 0.0489 Uani
N1 N 0.6952(5) 0.3048(5) 0.3048(5) 0.0330 Uani
C1 C 0.6543(17) 0.2897(17) 0.2082(15) 0.0533 Uani
C2 C 0.753(2) 0.247(2) 0.368(3) 0.0600 Uani
C1F C 0.7918(15) 0.3457(17) 0.2897(17) 0.0533 Uani
C2F C 0.632(3) 0.247(2) 0.247(2) 0.0600 Uani
C1I C 0.7103(17) 0.2082(15) 0.3457(17) 0.0533 Uani
C2I C 0.753(2) 0.368(3) 0.247(2) 0.0600 Uani
N1JA N 0.8048(5) 0.1952(5) 0.1952(5) 0.0330 Uani
C1JA C 0.7897(17) 0.1543(17) 0.2918(15) 0.0533 Uani
C2JA C 0.747(2) 0.253(2) 0.132(3) 0.0600 Uani
C1PA C 0.8457(17) 0.2918(15) 0.2103(17) 0.0533 Uani
C2PA C 0.747(2) 0.132(3) 0.253(2) 0.0600 Uani
C1SA C 0.7082(15) 0.2103(17) 0.1543(17) 0.0533 Uani
C2SA C 0.868(3) 0.253(2) 0.253(2) 0.0600 Uani
C1HB C 0.7103(17) 0.3457(17) 0.2082(15) 0.0533 Uani
C1NB C 0.6543(17) 0.2082(15) 0.2897(17) 0.0533 Uani
C1QB C 0.7918(15) 0.2897(17) 0.3457(17) 0.0533 Uani
C1TB C 0.8457(17) 0.2103(17) 0.2918(15) 0.0533 Uani
C1ZB C 0.7082(15) 0.1543(17) 0.2103(17) 0.0533 Uani
C1CC C 0.7897(17) 0.2918(15) 0.1543(17) 0.0533 Uani
Cu1C Cu 0.60844(9) 0.60844(9) 0.60844(9) 0.0489 Uani
N1C N 0.6952(5) 0.6952(5) 0.6952(5) 0.0330 Uani
C1C C 0.6543(17) 0.7103(17) 0.7918(15) 0.0533 Uani
C2C C 0.753(2) 0.753(2) 0.632(3) 0.0600 Uani
C1G C 0.7918(15) 0.6543(17) 0.7103(17) 0.0533 Uani
C2G C 0.632(3) 0.753(2) 0.753(2) 0.0600 Uani
C1K C 0.7103(17) 0.7918(15) 0.6543(17) 0.0533 Uani
C2K C 0.753(2) 0.632(3) 0.753(2) 0.0600 Uani
N1LA N 0.8048(5) 0.8048(5) 0.8048(5) 0.0330 Uani
C1LA C 0.7897(17) 0.8457(17) 0.7082(15) 0.0533 Uani
C2LA C 0.747(2) 0.747(2) 0.868(3) 0.0600 Uani
C1OA C 0.8457(17) 0.7082(15) 0.7897(17) 0.0533 Uani
C2OA C 0.747(2) 0.868(3) 0.747(2) 0.0600 Uani
C1RA C 0.7082(15) 0.7897(17) 0.8457(17) 0.0533 Uani
C2RA C 0.868(3) 0.747(2) 0.747(2) 0.0600 Uani
C1JB C 0.7103(17) 0.6543(17) 0.7918(15) 0.0533 Uani
C1MB C 0.6543(17) 0.7918(15) 0.7103(17) 0.0533 Uani
C1PB C 0.7918(15) 0.7103(17) 0.6543(17) 0.0533 Uani
C1WB C 0.8457(17) 0.7897(17) 0.7082(15) 0.0533 Uani
C1AC C 0.7082(15) 0.8457(17) 0.7897(17) 0.0533 Uani
C1EC C 0.7897(17) 0.7082(15) 0.8457(17) 0.0533 Uani
I1D I 0.5000 0.72216(8) 0.5000 0.0302 Uani
Cu1A Cu 0.39156(9) 0.60844(9) 0.39156(9) 0.0489 Uani
I1E I 0.5000 0.27784(8) 0.5000 0.0302 Uani
Cu1B Cu 0.39156(9) 0.39156(9) 0.60844(9) 0.0489 Uani
I1A I 0.27784(8) 0.5000 0.5000 0.0302 Uani
I1H I 0.5000 0.5000 0.72216(8) 0.0302 Uani
I1I I 0.5000 0.5000 0.27784(8) 0.0302 Uani
Cu1L Cu 0.39156(9) 0.60844(9) 0.60844(9) 0.0489 Uani
Cu1M Cu 0.60844(9) 0.39156(9) 0.60844(9) 0.0489 Uani
Cu1N Cu 0.39156(9) 0.39156(9) 0.39156(9) 0.0489 Uani
Cu1O Cu 0.60844(9) 0.60844(9) 0.39156(9) 0.0489 Uani
Cu1JA Cu 0.89156(9) 0.10844(9) 0.10844(9) 0.0489 Uani
Cu1LA Cu 0.89156(9) 0.89156(9) 0.89156(9) 0.0489 Uani
N1A N 0.3048(5) 0.6952(5) 0.3048(5) 0.0330 Uani
N1B N 0.3048(5) 0.3048(5) 0.6952(5) 0.0330 Uani
I2 I 1.0000 0.5000 0.2500 0.0920 Uani
I3 I 1.0000 0.5000 0.4197(17) 0.1343 Uani
I4 I 1.0000 0.5000 0.3355(8) 0.1203 Uani
I2B I 1.0000 0.5000 0.7500 0.0920 Uani
I3B I 1.0000 0.5000 0.5803(17) 0.1343 Uani
I4B I 1.0000 0.5000 0.6645(8) 0.1203 Uani
I2P I 1.0000 0.2500 0.5000 0.0920 Uani
I3P I 1.0000 0.4197(17) 0.5000 0.1343 Uani
I4P I 1.0000 0.3355(8) 0.5000 0.1203 Uani
I2R I 1.0000 0.7500 0.5000 0.0920 Uani
I3R I 1.0000 0.5803(17) 0.5000 0.1343 Uani
I4R I 1.0000 0.6645(8) 0.5000 0.1203 Uani
loop_
_atom_site_aniso_label
_atom_site_aniso_U_11
_atom_site_aniso_U_22
_atom_site_aniso_U_33
_atom_site_aniso_U_23
_atom_site_aniso_U_13
_atom_site_aniso_U_12
I1 0.0345(6) 0.0281(4) 0.0281(4) 0.000 0.000 0.000
Cu1 0.0489(6) 0.0489(6) 0.0489(6) -0.0066(5) 0.0066(5) 0.0066(5)
N1 0.033(3) 0.033(3) 0.033(3) -0.004(3) 0.004(3) 0.004(3)
C1 0.053(10) 0.066(13) 0.041(10) -0.024(9) -0.011(8) 0.027(10)
C2 0.066(11) 0.066(11) 0.048(15) -0.010(9) 0.010(9) 0.021(14)
C1F 0.041 0.053 0.066 -0.027 0.024 -0.011
C2F 0.048 0.066 0.066 -0.021 0.01 0.01
C1I 0.066 0.041 0.053 0.011 0.027 0.024
C2I 0.066 0.048 0.066 -0.01 0.021 0.01
N1JA 0.033 0.033 0.033 -0.004 0.004 0.004
C1JA 0.066 0.053 0.041 0.011 0.024 0.027
C2JA 0.066 0.066 0.048 -0.01 0.01 0.021
C1PA 0.053 0.041 0.066 -0.024 0.027 -0.011
C2PA 0.066 0.048 0.066 -0.01 0.021 0.01
C1SA 0.041 0.066 0.053 -0.027 -0.011 0.024
C2SA 0.048 0.066 0.066 -0.021 0.01 0.01
C1HB 0.066 0.053 0.041 0.011 0.024 0.027
C1NB 0.053 0.041 0.066 -0.024 0.027 -0.011
C1QB 0.041 0.066 0.053 -0.027 -0.011 0.024
C1TB 0.053 0.066 0.041 -0.024 -0.011 0.027
C1ZB 0.041 0.053 0.066 -0.027 0.024 -0.011
C1CC 0.066 0.041 0.053 0.011 0.027 0.024
Cu1C 0.0489 0.0489 0.0489 -0.0066 -0.0066 -0.0066
N1C 0.033 0.033 0.033 -0.004 -0.004 -0.004
C1C 0.053 0.066 0.041 -0.024 0.011 -0.027
C2C 0.066 0.066 0.048 -0.01 -0.01 -0.021
C1G 0.041 0.053 0.066 -0.027 -0.024 0.011
C2G 0.048 0.066 0.066 -0.021 -0.01 -0.01
C1K 0.066 0.041 0.053 0.011 -0.027 -0.024
C2K 0.066 0.048 0.066 -0.01 -0.021 -0.01
N1LA 0.033 0.033 0.033 -0.004 -0.004 -0.004
C1LA 0.066 0.053 0.041 0.011 -0.024 -0.027
C2LA 0.066 0.066 0.048 -0.01 -0.01 -0.021
C1OA 0.053 0.041 0.066 -0.024 -0.027 0.011
C2OA 0.066 0.048 0.066 -0.01 -0.021 -0.01
C1RA 0.041 0.066 0.053 -0.027 0.011 -0.024
C2RA 0.048 0.066 0.066 -0.021 -0.01 -0.01
C1JB 0.066 0.053 0.041 0.011 -0.024 -0.027
C1MB 0.053 0.041 0.066 -0.024 -0.027 0.011
C1PB 0.041 0.066 0.053 -0.027 0.011 -0.024
C1WB 0.053 0.066 0.041 -0.024 0.011 -0.027
C1AC 0.041 0.053 0.066 -0.027 -0.024 0.011
C1EC 0.066 0.041 0.053 0.011 -0.027 -0.024
I1D 0.0281 0.0345 0.0281 0 0 0
Cu1A 0.0489 0.0489 0.0489 0.0066 -0.0066 0.0066
I1E 0.0281 0.0345 0.0281 0 0 0
Cu1B 0.0489 0.0489 0.0489 0.0066 0.0066 -0.0066
I1A 0.0345 0.0281 0.0281 0 0 0
I1H 0.0281 0.0281 0.0345 0 0 0
I1I 0.0281 0.0281 0.0345 0 0 0
Cu1L 0.0489 0.0489 0.0489 -0.0066 0.0066 0.0066
Cu1M 0.0489 0.0489 0.0489 0.0066 -0.0066 0.0066
Cu1N 0.0489 0.0489 0.0489 -0.0066 -0.0066 -0.0066
Cu1O 0.0489 0.0489 0.0489 0.0066 0.0066 -0.0066
Cu1JA 0.0489 0.0489 0.0489 -0.0066 0.0066 0.0066
Cu1LA 0.0489 0.0489 0.0489 -0.0066 -0.0066 -0.0066
N1A 0.033 0.033 0.033 0.004 -0.004 0.004
N1B 0.033 0.033 0.033 0.004 0.004 -0.004
I2 0.087 0.087 0.102 0 0 0
I3 0.129(12) 0.131(11) 0.143(12) 0.000 0.000 0.000
I4 0.059(3) 0.165(8) 0.137(7) 0.000 0.000 0.000
I2B 0.087 0.087 0.102 0 0 0
I3B 0.129 0.131 0.143 0 0 0
I4B 0.059 0.165 0.137 0 0 0
I2P 0.087 0.102 0.087 0 0 0
I3P 0.129 0.143 0.131 0 0 0
I4P 0.059 0.137 0.165 0 0 0
I2R 0.087 0.102 0.087 0 0 0
I3R 0.129 0.143 0.131 0 0 0
I4R 0.059 0.137 0.165 0 0 0
loop_
_geom_bond_atom_site_label_1
_geom_bond_atom_site_label_2
_geom_bond_site_symmetry_1
_geom_bond_site_symmetry_2
I1 Cu1 1_555 1_555
Cu1 N1 1_555 1_555
N1 C1 1_555 1_555
C1 C2F 1_555 1_555
C2 N1 1_555 1_555
I2 I3 1_555 1_555
I3 I4 1_555 1_555
I4 I2 1_555 1_555
C1F N1 1_555 1_555
C2F N1 1_555 1_555
C1I N1 1_555 1_555
C2I N1 1_555 1_555
N1JA C1JA 1_555 1_555
C1JA C2 1_555 1_555
C2JA C1 1_555 1_555
C1PA C1F 1_555 1_555
C2PA C1I 1_555 1_555
C1SA C1 1_555 1_555
C2SA C1F 1_555 1_555
C1HB N1 1_555 1_555
C1NB N1 1_555 1_555
C1QB N1 1_555 1_555
C1TB C2 1_555 1_555
C1ZB C2F 1_555 1_555
C1CC C2I 1_555 1_555
Cu1C I1 1_555 1_555
N1C Cu1C 1_555 1_555
C1C N1C 1_555 1_555
C2C N1C 1_555 1_555
C1G N1C 1_555 1_555
C2G N1C 1_555 1_555
C1K N1C 1_555 1_555
C2K N1C 1_555 1_555
N1LA C1LA 1_555 1_555
C1LA C2C 1_555 1_555
C2LA C1C 1_555 1_555
C1OA C1G 1_555 1_555
C2OA C1K 1_555 1_555
C1RA C1C 1_555 1_555
C2RA C1G 1_555 1_555
C1JB N1C 1_555 1_555
C1MB N1C 1_555 1_555
C1PB N1C 1_555 1_555
C1WB C2C 1_555 1_555
C1AC C2G 1_555 1_555
C1EC C2K 1_555 1_555
I1D Cu1C 1_555 1_555
Cu1A I1D 1_555 1_555
I1E Cu1 1_555 1_555
Cu1B I1E 1_555 1_555
I1A Cu1A 1_555 1_555
I1H Cu1C 1_555 1_555
I1I Cu1 1_555 1_555
Cu1L I1D 1_555 1_555
Cu1M I1 1_555 1_555
Cu1N I1E 1_555 1_555
Cu1O I1 1_555 1_555
Cu1JA N1JA 1_555 1_555
Cu1LA N1LA 1_555 1_555
N1A Cu1A 1_555 1_555
N1B Cu1B 1_555 1_555
I2B I3B 1_555 1_555
I3B I3 1_555 1_555
I4B I2B 1_555 1_555
I2P I3P 1_555 1_555
I3P I3 1_555 1_555
I4P I3 1_555 1_555
I2R I3R 1_555 1_555
I3R I3 1_555 1_555
I4R I3 1_555 1_555
C1 C1HB 1_555 1_555
C1 C1NB 1_555 1_555
C2 C1I 1_555 1_555
C2 C1QB 1_555 1_555
I4 I3P 1_555 1_555
I4 I4P 1_555 1_555
I4 I3R 1_555 1_555
I4 I4R 1_555 1_555
C1F C2I 1_555 1_555
C1F C1HB 1_555 1_555
C1F C1QB 1_555 1_555
C2F C1SA 1_555 1_555
C2F C1NB 1_555 1_555
C1I C1JA 1_555 1_555
C1I C1NB 1_555 1_555
C1I C1QB 1_555 1_555
C2I C1PA 1_555 1_555
C2I C1HB 1_555 1_555
N1JA C2JA 1_555 1_555
N1JA C1PA 1_555 1_555
N1JA C2PA 1_555 1_555
N1JA C1SA 1_555 1_555
N1JA C2SA 1_555 1_555
N1JA C1TB 1_555 1_555
N1JA C1ZB 1_555 1_555
N1JA C1CC 1_555 1_555
C1JA C2PA 1_555 1_555
C1JA C1TB 1_555 1_555
C1JA C1ZB 1_555 1_555
C2JA C1SA 1_555 1_555
C2JA C1HB 1_555 1_555
C2JA C1CC 1_555 1_555
C1PA C2SA 1_555 1_555
C1PA C1TB 1_555 1_555
C1PA C1CC 1_555 1_555
C2PA C1NB 1_555 1_555
C2PA C1ZB 1_555 1_555
C1SA C1ZB 1_555 1_555
C1SA C1CC 1_555 1_555
C2SA C1QB 1_555 1_555
C2SA C1TB 1_555 1_555
C1HB C1CC 1_555 1_555
C1NB C1ZB 1_555 1_555
C1QB C1TB 1_555 1_555
C1C C2G 1_555 1_555
C1C C1JB 1_555 1_555
C1C C1MB 1_555 1_555
C2C C1K 1_555 1_555
C2C C1PB 1_555 1_555
C1G C2K 1_555 1_555
C1G C1JB 1_555 1_555
C1G C1PB 1_555 1_555
C2G C1RA 1_555 1_555
C2G C1MB 1_555 1_555
C1K C1LA 1_555 1_555
C1K C1MB 1_555 1_555
C1K C1PB 1_555 1_555
C2K C1OA 1_555 1_555
C2K C1JB 1_555 1_555
N1LA C2LA 1_555 1_555
N1LA C1OA 1_555 1_555
N1LA C2OA 1_555 1_555
N1LA C1RA 1_555 1_555
N1LA C2RA 1_555 1_555
N1LA C1WB 1_555 1_555
N1LA C1AC 1_555 1_555
N1LA C1EC 1_555 1_555
C1LA C2OA 1_555 1_555
C1LA C1WB 1_555 1_555
C1LA C1AC 1_555 1_555
C2LA C1RA 1_555 1_555
C2LA C1JB 1_555 1_555
C2LA C1EC 1_555 1_555
C1OA C2RA 1_555 1_555
C1OA C1WB 1_555 1_555
C1OA C1EC 1_555 1_555
C2OA C1MB 1_555 1_555
C2OA C1AC 1_555 1_555
C1RA C1AC 1_555 1_555
C1RA C1EC 1_555 1_555
C2RA C1PB 1_555 1_555
C2RA C1WB 1_555 1_555
C1JB C1EC 1_555 1_555
C1MB C1AC 1_555 1_555
C1PB C1WB 1_555 1_555
I1D Cu1O 1_555 1_555
Cu1A I1I 1_555 1_555
I1E Cu1M 1_555 1_555
Cu1B I1A 1_555 1_555
Cu1B I1H 1_555 1_555
I1A Cu1L 1_555 1_555
I1A Cu1N 1_555 1_555
I1H Cu1L 1_555 1_555
I1H Cu1M 1_555 1_555
I1I Cu1N 1_555 1_555
I1I Cu1O 1_555 1_555
I3B I4B 1_555 1_555
I3B I3P 1_555 1_555
I3B I4P 1_555 1_555
I3B I3R 1_555 1_555
I3B I4R 1_555 1_555
I4B I3P 1_555 1_555
I4B I4P 1_555 1_555
I4B I3R 1_555 1_555
I4B I4R 1_555 1_555
I2P I4P 1_555 1_555
I3P I4P 1_555 1_555
I3P I3R 1_555 1_555
I2R I4R 1_555 1_555
I3R I4R 1_555 1_555

#END
