
#######################################################################
#
#                 Cambridge Crystallographic Data Centre
#                                CCDC 
#
#######################################################################
#
# If this CIF has been generated from an entry in the Cambridge 
# Structural Database, then it will include bibliographic, chemical, 
# crystal, experimental, refinement or atomic coordinate data resulting 
# from the CCDC's data processing and validation procedures.
#
#######################################################################

data_KOFPEB02
_chemical_formula_moiety         '(C24 H36 Cu3 La2 N6 O27)n'
_symmetry_cell_setting           trigonal
_symmetry_space_group_name_H-M   'P -3 c 1'
_symmetry_Int_Tables_number      165
_space_group_name_Hall           '-P 3 2"c'
loop_
_symmetry_equiv_pos_site_id
_symmetry_equiv_pos_as_xyz
1 x,y,z
2 -y,x-y,z
3 -x+y,-x,z
4 y,x,1/2-z
5 x-y,-y,1/2-z
6 -x,-x+y,1/2-z
7 -x,-y,-z
8 y,-x+y,-z
9 x-y,x,-z
10 -y,-x,1/2+z
11 -x+y,y,1/2+z
12 x,x-y,1/2+z
_cell_length_a                   13.5156(19)
_cell_length_b                   13.5156(19)
_cell_length_c                   14.872(3)
_cell_angle_alpha                90
_cell_angle_beta                 90
_cell_angle_gamma                120
_cell_volume                     2352.72
loop_
_atom_site_label
_atom_site_type_symbol
_atom_site_fract_x
_atom_site_fract_y
_atom_site_fract_z
H1 H 0.2438 0.2877 0.5428
H2 H 0.3522 0.3303 0.4240
H3 H 0.2024 0.3457 0.4645
H4 H 0.2753 0.4630 0.3805
H5 H 0.3302 0.3975 0.3148
C1 C 0.2725(4) 0.4526(4) 0.5659(3)
C2 C 0.2565(4) 0.3529(4) 0.5089(3)
C3 C 0.3335(5) 0.4459(5) 0.3634(3)
C4 C 0.4401(8) 0.5612(8) 0.3434(2)
O1 O 0.3650(3) 0.5478(3) 0.5550(2)
O2 O 0.1991(3) 0.4402(3) 0.6221(2)
O3 O 0.5246(3) 0.5971(3) 0.3944(2)
O4 O 0.4368(3) 0.6138(3) 0.2752(2)
La1 La 0.3333 0.6667 0.66823(3)
Cu1 Cu 0.5000 0.5000 0.5000
N1 N 0.3491(4) 0.3906(4) 0.4430(3)
H1A H 0.7123 0.9561 0.5428
H1B H 0.0439 0.7562 0.5428
H1J H 0.0439 0.2877 1.0428
H1K H 0.2438 0.9561 1.0428
H1I H 0.7123 0.7562 1.0428
H2A H 0.6697 1.0219 0.4240
H2B H -0.0219 0.6478 0.4240
H2J H -0.0219 0.3303 0.9240
H2K H 0.3522 1.0219 0.9240
H2I H 0.6697 0.6478 0.9240
H2F H 0.6478 0.6697 0.5760
H2G H 0.3303 0.9781 0.5760
H2H H 0.0219 0.3522 0.5760
H3A H 0.6543 0.8567 0.4645
H3B H 0.1433 0.7976 0.4645
H3J H 0.1433 0.3457 0.9645
H3K H 0.2024 0.8567 0.9645
H3I H 0.6543 0.7976 0.9645
H4A H 0.5370 0.8123 0.3805
H4B H 0.1877 0.7247 0.3805
H4J H 0.1877 0.4630 0.8805
H4K H 0.2753 0.8123 0.8805
H4I H 0.5370 0.7247 0.8805
H5A H 0.6025 0.9327 0.3148
H5B H 0.0673 0.6698 0.3148
H5J H 0.0673 0.3975 0.8148
H5K H 0.3302 0.9327 0.8148
H5I H 0.6025 0.6698 0.8148
C1A C 0.5474(4) 0.8199(6) 0.5659(3)
C1B C 0.1801(6) 0.7275(4) 0.5659(3)
C1J C 0.1801(6) 0.4526(4) 1.0659(3)
C1K C 0.2725(4) 0.8199(6) 1.0659(3)
C1I C 0.5474(4) 0.7275(4) 1.0659(3)
C2A C 0.6471(4) 0.9036(6) 0.5089(3)
C2B C 0.0964(6) 0.7435(4) 0.5089(3)
C2J C 0.0964(6) 0.3529(4) 1.0089(3)
C2K C 0.2565(4) 0.9036(6) 1.0089(3)
C2I C 0.6471(4) 0.7435(4) 1.0089(3)
C3A C 0.5541(5) 0.8876(7) 0.3634(3)
C3B C 0.1124(7) 0.6665(5) 0.3634(3)
C3J C 0.1124(7) 0.4459(5) 0.8634(3)
C3K C 0.3335(5) 0.8876(7) 0.8634(3)
C3I C 0.5541(5) 0.6665(5) 0.8634(3)
C4A C 0.4388(8) 0.8789(11) 0.3434(2)
C4B C 0.1211(11) 0.5599(8) 0.3434(2)
C4J C 0.1211(11) 0.5612(8) 0.8434(2)
C4K C 0.4401(8) 0.8789(11) 0.8434(2)
C4I C 0.4388(8) 0.5599(8) 0.8434(2)
O1A O 0.4522(3) 0.8172(4) 0.5550(2)
O1B O 0.1828(4) 0.6350(3) 0.5550(2)
O1J O 0.1828(4) 0.5478(3) 1.0550(2)
O1K O 0.3650(3) 0.8172(4) 1.0550(2)
O1I O 0.4522(3) 0.6350(3) 1.0550(2)
O1F O 0.6350(3) 0.4522(3) 0.4450(2)
O1G O 0.5478(3) 1.1828(4) 0.4450(2)
O1H O -0.1828(4) 0.3650(3) 0.4450(2)
O2A O 0.5598(3) 0.7589(4) 0.6221(2)
O2B O 0.2411(4) 0.8009(3) 0.6221(2)
O2J O 0.2411(4) 0.4402(3) 1.1221(2)
O2K O 0.1991(3) 0.7589(4) 1.1221(2)
O2I O 0.5598(3) 0.8009(3) 1.1221(2)
O3A O 0.4029(3) 0.9275(4) 0.3944(2)
O3B O 0.0725(4) 0.4754(3) 0.3944(2)
O3J O 0.0725(4) 0.5971(3) 0.8944(2)
O3K O 0.5246(3) 0.9275(4) 0.8944(2)
O3I O 0.4029(3) 0.4754(3) 0.8944(2)
O3F O 0.4754(3) 0.4029(3) 0.6056(2)
O3G O 0.5971(3) 1.0725(4) 0.6056(2)
O3H O -0.0725(4) 0.5246(3) 0.6056(2)
O4A O 0.3862(3) 0.8230(4) 0.2752(2)
O4B O 0.1770(4) 0.5632(3) 0.2752(2)
O4J O 0.1770(4) 0.6138(3) 0.7752(2)
O4K O 0.4368(3) 0.8230(4) 0.7752(2)
O4I O 0.3862(3) 0.5632(3) 0.7752(2)
O4_2 O 0.4368(3) 0.6138(3) 1.2752(2)
O4A_2 O 0.3862(3) 0.8230(4) 1.2752(2)
O4B_2 O 0.1770(4) 0.5632(3) 1.2752(2)
La1J La 0.3334 0.6667 1.16823(3)
La1J_2 La 0.3334 0.6667 0.16823(3)
Cu1A Cu 0.5000 1.0000 0.5000
Cu1B Cu 0.0000 0.5000 0.5000
Cu1J Cu 0.0000 0.5000 1.0000
Cu1K Cu 0.5000 1.0000 1.0000
Cu1C Cu 0.5000 0.5000 1.0000
N1A N 0.6094(4) 0.9585(6) 0.4430(3)
N1B N 0.0415(6) 0.6509(4) 0.4430(3)
N1J N 0.0415(6) 0.3906(4) 0.9430(3)
N1K N 0.3491(4) 0.9585(6) 0.9430(3)
N1I N 0.6094(4) 0.6509(4) 0.9430(3)
N1F N 0.6509(4) 0.6094(4) 0.5570(3)
N1G N 0.3906(4) 1.0415(6) 0.5570(3)
N1H N -0.0415(6) 0.3491(4) 0.5570(3)
O5 O -0.0000 -0.0000 0.0911(7)
O6 O 0.2871(7) 0.2871(7) 0.7500
O7 O 0.1984(9) 0.1567(9) 0.3325(6)
loop_
_geom_bond_atom_site_label_1
_geom_bond_atom_site_label_2
_geom_bond_site_symmetry_1
_geom_bond_site_symmetry_2
H1 C2 1_555 1_555
H2 N1 1_555 1_555
H3 C2 1_555 1_555
H4 C3 1_555 1_555
H5 C3 1_555 1_555
C1 C2 1_555 1_555
C2 N1 1_555 1_555
C3 C4 1_555 1_555
C4 O3 1_555 1_555
O1 C1 1_555 1_555
O2 C1 1_555 1_555
O3 Cu1 1_555 1_555
O4 C4 1_555 1_555
La1 O1 1_555 1_555
Cu1 O1 1_555 1_555
N1 C3 1_555 1_555
H1A C2A 1_555 1_555
H1B C2B 1_555 1_555
H1J C2J 1_555 1_555
H1K C2K 1_555 1_555
H1I C2I 1_555 1_555
H2A N1A 1_555 1_555
H2B N1B 1_555 1_555
H2J N1J 1_555 1_555
H2K N1K 1_555 1_555
H2I N1I 1_555 1_555
H2F N1F 1_555 1_555
H2G N1G 1_555 1_555
H2H N1H 1_555 1_555
H3A C2A 1_555 1_555
H3B C2B 1_555 1_555
H3J C2J 1_555 1_555
H3K C2K 1_555 1_555
H3I C2I 1_555 1_555
H4A C3A 1_555 1_555
H4B C3B 1_555 1_555
H4J C3J 1_555 1_555
H4K C3K 1_555 1_555
H4I C3I 1_555 1_555
H5A C3A 1_555 1_555
H5B C3B 1_555 1_555
H5J C3J 1_555 1_555
H5K C3K 1_555 1_555
H5I C3I 1_555 1_555
C1A C2A 1_555 1_555
C1B C2B 1_555 1_555
C1J C2J 1_555 1_555
C1K C2K 1_555 1_555
C1I C2I 1_555 1_555
C2A N1A 1_555 1_555
C2B N1B 1_555 1_555
C2J N1J 1_555 1_555
C2K N1K 1_555 1_555
C2I N1I 1_555 1_555
C3A C4A 1_555 1_555
C3B C4B 1_555 1_555
C3J C4J 1_555 1_555
C3K C4K 1_555 1_555
C3I C4I 1_555 1_555
C4A O3A 1_555 1_555
C4B O3B 1_555 1_555
C4J O3J 1_555 1_555
C4K O3K 1_555 1_555
C4I O3I 1_555 1_555
O1A La1 1_555 1_555
O1B La1 1_555 1_555
O1J C1J 1_555 1_555
O1K C1K 1_555 1_555
O1I C1I 1_555 1_555
O1F Cu1 1_555 1_555
O1G Cu1A 1_555 1_555
O1H Cu1B 1_555 1_555
O2A La1 1_555 1_555
O2B La1 1_555 1_555
O2J C1J 1_555 1_555
O2K C1K 1_555 1_555
O2I C1I 1_555 1_555
O3A Cu1A 1_555 1_555
O3B Cu1B 1_555 1_555
O3J Cu1J 1_555 1_555
O3K Cu1K 1_555 1_555
O3I Cu1C 1_555 1_555
O3F Cu1 1_555 1_555
O3G Cu1A 1_555 1_555
O3H Cu1B 1_555 1_555
O4A C4A 1_555 1_555
O4B C4B 1_555 1_555
O4J La1 1_555 1_555
O4K La1 1_555 1_555
O4I La1 1_555 1_555
O4_2 La1J 1_555 1_555
O4A_2 La1J 1_555 1_555
O4B_2 La1J 1_555 1_555
La1J O1J 1_555 1_555
La1J_2 O4 1_555 1_555
Cu1A O1A 1_555 1_555
Cu1B O1B 1_555 1_555
Cu1J O1J 1_555 1_555
Cu1K O1K 1_555 1_555
Cu1C O1I 1_555 1_555
N1A C3A 1_555 1_555
N1B C3B 1_555 1_555
N1J C3J 1_555 1_555
N1K C3K 1_555 1_555
N1I C3I 1_555 1_555
N1F Cu1 1_555 1_555
N1G Cu1A 1_555 1_555
N1H Cu1B 1_555 1_555
O2 La1 1_555 1_555
Cu1 N1 1_555 1_555
C1A O1A 1_555 1_555
C1A O2A 1_555 1_555
C1B O1B 1_555 1_555
C1B O2B 1_555 1_555
C4J O4J 1_555 1_555
C4K O4K 1_555 1_555
C4I O4I 1_555 1_555
O1K La1J 1_555 1_555
O1I La1J 1_555 1_555
O2J La1J 1_555 1_555
O2K La1J 1_555 1_555
O2I La1J 1_555 1_555
O4A La1J_2 1_555 1_555
O4B La1J_2 1_555 1_555
Cu1A N1A 1_555 1_555
Cu1B N1B 1_555 1_555
Cu1J N1J 1_555 1_555
Cu1K N1K 1_555 1_555
Cu1C N1I 1_555 1_555

#END
