
#######################################################################
#
#                 Cambridge Crystallographic Data Centre
#                                CCDC 
#
#######################################################################
#
# If this CIF has been generated from an entry in the Cambridge 
# Structural Database, then it will include bibliographic, chemical, 
# crystal, experimental, refinement or atomic coordinate data resulting 
# from the CCDC's data processing and validation procedures.
#
#######################################################################

data_KOFPEB04
_chemical_formula_moiety         '(C24 H36 Cu3 La2 N6 O27)n'
_symmetry_cell_setting           trigonal
_symmetry_space_group_name_H-M   'P -3 c 1'
_symmetry_Int_Tables_number      165
_space_group_name_Hall           '-P 3 2"c'
loop_
_symmetry_equiv_pos_site_id
_symmetry_equiv_pos_as_xyz
1 x,y,z
2 -y,x-y,z
3 -x+y,-x,z
4 y,x,1/2-z
5 x-y,-y,1/2-z
6 -x,-x+y,1/2-z
7 -x,-y,-z
8 y,-x+y,-z
9 x-y,x,-z
10 -y,-x,1/2+z
11 -x+y,y,1/2+z
12 x,x-y,1/2+z
_cell_length_a                   13.3819(19)
_cell_length_b                   13.3819(19)
_cell_length_c                   14.933(3)
_cell_angle_alpha                90
_cell_angle_beta                 90
_cell_angle_gamma                120
_cell_volume                     2315.87
loop_
_atom_site_label
_atom_site_type_symbol
_atom_site_fract_x
_atom_site_fract_y
_atom_site_fract_z
H1 H 0.8004 0.1464 0.5362
H2 H 0.7583 0.0419 0.4574
H3 H 0.7278 0.1871 0.6202
H4 H 0.6705 0.0653 0.6842
H5 H 0.6469 -0.0261 0.5754
C1 C 0.7299(4) 0.1799(4) 0.4329(3)
C2 C 0.7465(4) 0.0958(5) 0.4918(3)
C3 C 0.6672(5) 0.1116(5) 0.6367(3)
C4 C 0.5614(5) 0.1214(4) 0.6563(3)
O1 O 0.6377(3) 0.1822(3) 0.4422(2)
O2 O 0.8055(3) 0.2399(3) 0.3770(2)
O3 O 0.4775(3) 0.0758(4) 0.6036(2)
O4 O 0.5628(4) 0.1757(5) 0.7241(3)
La1 La 0.6667 0.3333 0.32982(2)
Cu1 Cu 0.5000 0.0000 0.5000
N1 N 0.6511(4) 0.0387(3) 0.5570(3)
H1A H 0.8536 0.6540 0.5362
H1B H 0.3460 0.1996 0.5362
H1J H 0.3460 0.1464 0.0362
H1K H 0.8004 0.6540 0.0362
H1I H 0.8536 0.1996 0.0362
H2A H 0.9581 0.7164 0.4574
H2B H 0.2836 0.2417 0.4574
H2J H 0.2836 0.0419 -0.0426
H2K H 0.7583 0.7164 -0.0426
H2I H 0.9581 0.2417 -0.0426
H3A H 0.8129 0.5407 0.6202
H3B H 0.4593 0.2722 0.6202
H3J H 0.4593 0.1871 0.1202
H3K H 0.7278 0.5407 0.1202
H3I H 0.8129 0.2722 0.1202
H4A H 0.9347 0.6052 0.6842
H4B H 0.3948 0.3295 0.6842
H4J H 0.3948 0.0653 0.1842
H4K H 0.6705 0.6052 0.1842
H4I H 0.9347 0.3295 0.1842
H5A H 1.0261 0.6730 0.5754
H5B H 0.3270 0.3531 0.5754
H5J H 0.3270 -0.0261 0.0754
H5K H 0.6469 0.6730 0.0754
H5I H 1.0261 0.3531 0.0754
H5F H 0.3531 0.0261 0.4246
H5G H 0.9739 0.3270 0.4246
H5H H 0.6730 0.6469 0.4246
C1A C 0.8201(4) 0.5500(6) 0.4329(3)
C1B C 0.4500(6) 0.2701(4) 0.4329(3)
C1J C 0.4500(6) 0.1799(4) -0.0671(3)
C1K C 0.7299(4) 0.5500(6) -0.0671(3)
C1I C 0.8201(4) 0.2701(4) -0.0671(3)
C2A C 0.9042(5) 0.6507(6) 0.4918(3)
C2B C 0.3493(6) 0.2535(4) 0.4918(3)
C2J C 0.3493(6) 0.0958(5) -0.0082(3)
C2K C 0.7465(4) 0.6507(6) -0.0082(3)
C2I C 0.9042(5) 0.2535(4) -0.0082(3)
C3A C 0.8884(5) 0.5556(7) 0.6367(3)
C3B C 0.4444(7) 0.3328(5) 0.6367(3)
C3J C 0.4444(7) 0.1116(5) 0.1367(3)
C3K C 0.6672(5) 0.5556(7) 0.1367(3)
C3I C 0.8884(5) 0.3328(5) 0.1367(3)
C4A C 0.8786(4) 0.4400(6) 0.6563(3)
C4B C 0.5600(6) 0.4386(5) 0.6563(3)
C4J C 0.5600(6) 0.1214(4) 0.1563(3)
C4K C 0.5614(5) 0.4400(6) 0.1563(3)
C4I C 0.8786(4) 0.4386(5) 0.1563(3)
O1A O 0.8178(3) 0.4555(4) 0.4422(2)
O1B O 0.5445(4) 0.3623(3) 0.4422(2)
O1J O 0.5445(4) 0.1822(3) -0.0578(2)
O1K O 0.6377(3) 0.4555(4) -0.0578(2)
O1I O 0.8178(3) 0.3623(3) -0.0578(2)
O1F O 0.3623(3) -0.1822(3) 0.5578(2)
O1G O 1.1822(3) 0.5445(4) 0.5578(2)
O1H O 0.4555(4) 0.6377(3) 0.5578(2)
O2A O 0.7601(3) 0.5656(4) 0.3770(2)
O2B O 0.4344(4) 0.1945(3) 0.3770(2)
O2J O 0.4344(4) 0.2399(3) -0.1230(2)
O2K O 0.8055(3) 0.5656(4) -0.1230(2)
O2I O 0.7601(3) 0.1945(3) -0.1230(2)
O3A O 0.9242(4) 0.4017(5) 0.6036(2)
O3B O 0.5983(5) 0.5225(3) 0.6036(2)
O3J O 0.5983(5) 0.0758(4) 0.1036(2)
O3K O 0.4775(3) 0.4017(5) 0.1036(2)
O3I O 0.9242(4) 0.5225(3) 0.1036(2)
O3F O 0.5225(3) -0.0758(4) 0.3964(2)
O3G O 1.0758(4) 0.5983(5) 0.3964(2)
O3H O 0.4017(5) 0.4775(3) 0.3964(2)
O4A O 0.8243(5) 0.3871(6) 0.7241(3)
O4B O 0.6129(6) 0.4372(4) 0.7241(3)
O4J O 0.6129(6) 0.1757(5) 0.2241(3)
O4K O 0.5628(4) 0.3871(6) 0.2241(3)
O4I O 0.8243(5) 0.4372(4) 0.2241(3)
O4_2 O 0.5628(4) 0.1757(5) -0.2759(3)
O4A_2 O 0.8243(5) 0.3871(6) -0.2759(3)
O4B_2 O 0.6129(6) 0.4372(4) -0.2759(3)
La1J La 0.6666 0.3333 -0.17018(2)
La1J_2 La 0.6666 0.3333 0.82982(2)
Cu1A Cu 1.0000 0.5000 0.5000
Cu1B Cu 0.5000 0.5000 0.5000
Cu1J Cu 0.5000 0.0000 0.0000
Cu1K Cu 0.5000 0.5000 0.0000
Cu1C Cu 1.0000 0.5000 0.0000
N1A N 0.9613(3) 0.6124(5) 0.5570(3)
N1B N 0.3876(5) 0.3489(4) 0.5570(3)
N1J N 0.3876(5) 0.0387(3) 0.0570(3)
N1K N 0.6511(4) 0.6124(5) 0.0570(3)
N1I N 0.9613(3) 0.3489(4) 0.0570(3)
N1F N 0.3489(4) -0.0387(3) 0.4430(3)
N1G N 1.0387(3) 0.3876(5) 0.4430(3)
N1H N 0.6124(5) 0.6511(4) 0.4430(3)
O5 O 0.2642(18) 0.2642(18) 0.2500
O6 O 0.0000 0.0000 0.0000
O7 O 0.145(6) -0.001(8) 0.162(5)
loop_
_geom_bond_atom_site_label_1
_geom_bond_atom_site_label_2
_geom_bond_site_symmetry_1
_geom_bond_site_symmetry_2
H1 C2 1_555 1_555
H2 C2 1_555 1_555
H3 C3 1_555 1_555
H4 C3 1_555 1_555
H5 N1 1_555 1_555
C1 C2 1_555 1_555
C2 N1 1_555 1_555
C3 C4 1_555 1_555
C4 O3 1_555 1_555
O1 C1 1_555 1_555
O2 C1 1_555 1_555
O3 Cu1 1_555 1_555
O4 C4 1_555 1_555
La1 O1 1_555 1_555
Cu1 O1 1_555 1_555
N1 C3 1_555 1_555
H1A C2A 1_555 1_555
H1B C2B 1_555 1_555
H1J C2J 1_555 1_555
H1K C2K 1_555 1_555
H1I C2I 1_555 1_555
H2A C2A 1_555 1_555
H2B C2B 1_555 1_555
H2J C2J 1_555 1_555
H2K C2K 1_555 1_555
H2I C2I 1_555 1_555
H3A C3A 1_555 1_555
H3B C3B 1_555 1_555
H3J C3J 1_555 1_555
H3K C3K 1_555 1_555
H3I C3I 1_555 1_555
H4A C3A 1_555 1_555
H4B C3B 1_555 1_555
H4J C3J 1_555 1_555
H4K C3K 1_555 1_555
H4I C3I 1_555 1_555
H5A N1A 1_555 1_555
H5B N1B 1_555 1_555
H5J N1J 1_555 1_555
H5K N1K 1_555 1_555
H5I N1I 1_555 1_555
H5F N1F 1_555 1_555
H5G N1G 1_555 1_555
H5H N1H 1_555 1_555
C1A C2A 1_555 1_555
C1B C2B 1_555 1_555
C1J C2J 1_555 1_555
C1K C2K 1_555 1_555
C1I C2I 1_555 1_555
C2A N1A 1_555 1_555
C2B N1B 1_555 1_555
C2J N1J 1_555 1_555
C2K N1K 1_555 1_555
C2I N1I 1_555 1_555
C3A C4A 1_555 1_555
C3B C4B 1_555 1_555
C3J C4J 1_555 1_555
C3K C4K 1_555 1_555
C3I C4I 1_555 1_555
C4A O3A 1_555 1_555
C4B O3B 1_555 1_555
C4J O3J 1_555 1_555
C4K O3K 1_555 1_555
C4I O3I 1_555 1_555
O1A La1 1_555 1_555
O1B La1 1_555 1_555
O1J C1J 1_555 1_555
O1K C1K 1_555 1_555
O1I C1I 1_555 1_555
O1F Cu1 1_555 1_555
O1G Cu1A 1_555 1_555
O1H Cu1B 1_555 1_555
O2A La1 1_555 1_555
O2B La1 1_555 1_555
O2J C1J 1_555 1_555
O2K C1K 1_555 1_555
O2I C1I 1_555 1_555
O3A Cu1A 1_555 1_555
O3B Cu1B 1_555 1_555
O3J Cu1J 1_555 1_555
O3K Cu1K 1_555 1_555
O3I Cu1C 1_555 1_555
O3F Cu1 1_555 1_555
O3G Cu1A 1_555 1_555
O3H Cu1B 1_555 1_555
O4A C4A 1_555 1_555
O4B C4B 1_555 1_555
O4J La1 1_555 1_555
O4K La1 1_555 1_555
O4I La1 1_555 1_555
O4_2 La1J 1_555 1_555
O4A_2 La1J 1_555 1_555
O4B_2 La1J 1_555 1_555
La1J O1J 1_555 1_555
La1J_2 O4 1_555 1_555
Cu1A O1A 1_555 1_555
Cu1B O1B 1_555 1_555
Cu1J O1J 1_555 1_555
Cu1K O1K 1_555 1_555
Cu1C O1I 1_555 1_555
N1A C3A 1_555 1_555
N1B C3B 1_555 1_555
N1J C3J 1_555 1_555
N1K C3K 1_555 1_555
N1I C3I 1_555 1_555
N1F Cu1 1_555 1_555
N1G Cu1A 1_555 1_555
N1H Cu1B 1_555 1_555
O2 La1 1_555 1_555
Cu1 N1 1_555 1_555
C1A O1A 1_555 1_555
C1A O2A 1_555 1_555
C1B O1B 1_555 1_555
C1B O2B 1_555 1_555
C4J O4J 1_555 1_555
C4K O4K 1_555 1_555
C4I O4I 1_555 1_555
O1K La1J 1_555 1_555
O1I La1J 1_555 1_555
O2J La1J 1_555 1_555
O2K La1J 1_555 1_555
O2I La1J 1_555 1_555
O4A La1J_2 1_555 1_555
O4B La1J_2 1_555 1_555
Cu1A N1A 1_555 1_555
Cu1B N1B 1_555 1_555
Cu1J N1J 1_555 1_555
Cu1K N1K 1_555 1_555
Cu1C N1I 1_555 1_555

#END
