
#######################################################################
#
#                 Cambridge Crystallographic Data Centre
#                                CCDC 
#
#######################################################################
#
# If this CIF has been generated from an entry in the Cambridge 
# Structural Database, then it will include bibliographic, chemical, 
# crystal, experimental, refinement or atomic coordinate data resulting 
# from the CCDC's data processing and validation procedures.
#
#######################################################################

data_KOFPEB01
_chemical_formula_moiety         '(C24 H36 Cu3 La2 N6 O27)n'
_symmetry_cell_setting           trigonal
_symmetry_space_group_name_H-M   'P -3 c 1'
_symmetry_Int_Tables_number      165
_space_group_name_Hall           '-P 3 2"c'
loop_
_symmetry_equiv_pos_site_id
_symmetry_equiv_pos_as_xyz
1 x,y,z
2 -y,x-y,z
3 -x+y,-x,z
4 y,x,1/2-z
5 x-y,-y,1/2-z
6 -x,-x+y,1/2-z
7 -x,-y,-z
8 y,-x+y,-z
9 x-y,x,-z
10 -y,-x,1/2+z
11 -x+y,y,1/2+z
12 x,x-y,1/2+z
_cell_length_a                   13.5045(19)
_cell_length_b                   13.5045(19)
_cell_length_c                   14.836(3)
_cell_angle_alpha                90
_cell_angle_beta                 90
_cell_angle_gamma                120
_cell_volume                     2343.17
loop_
_atom_site_label
_atom_site_type_symbol
_atom_site_fract_x
_atom_site_fract_y
_atom_site_fract_z
H1 H 0.7536 0.7107 1.0455
H2 H 0.7981 0.6549 0.9658
H3 H 0.6709 0.6029 0.8143
H4 H 0.7258 0.5379 0.8792
H5 H 0.6472 0.6710 0.9230
C1 C 0.7265 0.5470 1.0653
C2 C 0.7431 0.6479 1.0086
C3 C 0.6671 0.5543 0.8624
C4 C 0.5606 0.4398 0.8421
N1 N 0.6504 0.6105 0.9417
Cu1 Cu 0.5000 0.5000 1.0000
O1 O 0.8007 0.5593 1.1217
O2 O 0.6354 0.4520 1.0537
O3 O 0.5621 0.3861 0.7748
O4 O 0.4753 0.4037 0.8937
La1 La 0.6667 0.3333 1.1676
H1A H 0.2893 0.0429 1.0455
H1B H 0.9571 0.2464 1.0455
H1J H 0.9571 0.7107 1.5455
H1K H 0.7536 0.0429 1.5455
H1I H 0.2893 0.2464 1.5455
H2A H 0.3451 0.1432 0.9658
H2B H 0.8568 0.2019 0.9658
H2J H 0.8568 0.6549 1.4658
H2K H 0.7981 0.1432 1.4658
H2I H 0.3451 0.2019 1.4658
H3A H 0.3971 0.0680 0.8143
H3B H 0.9320 0.3291 0.8143
H3J H 0.9320 0.6029 1.3143
H3K H 0.6709 0.0680 1.3143
H3I H 0.3971 0.3291 1.3143
H4A H 0.4621 0.1879 0.8792
H4B H 0.8121 0.2742 0.8792
H4J H 0.8121 0.5379 1.3792
H4K H 0.7258 0.1879 1.3792
H4I H 0.4621 0.2742 1.3792
H5A H 0.3290 -0.0238 0.9230
H5B H 1.0238 0.3528 0.9230
H5J H 1.0238 0.6710 1.4230
H5K H 0.6472 -0.0238 1.4230
H5I H 0.3290 0.3528 1.4230
H5F H 0.3528 0.3290 1.0770
H5G H 0.6710 0.0238 1.0770
H5H H 0.9762 0.6472 1.0770
C1A C 0.4530 0.1795 1.0653
C1B C 0.8205 0.2735 1.0653
C1J C 0.8205 0.5470 1.5653
C1K C 0.7265 0.1795 1.5653
C1I C 0.4530 0.2735 1.5653
C2A C 0.3521 0.0952 1.0086
C2B C 0.9048 0.2569 1.0086
C2J C 0.9048 0.6479 1.5086
C2K C 0.7431 0.0952 1.5086
C2I C 0.3521 0.2569 1.5086
C3A C 0.4457 0.1128 0.8624
C3B C 0.8872 0.3329 0.8624
C3J C 0.8872 0.5543 1.3624
C3K C 0.6671 0.1128 1.3624
C3I C 0.4457 0.3329 1.3624
C4A C 0.5602 0.1208 0.8421
C4B C 0.8792 0.4394 0.8421
C4J C 0.8792 0.4398 1.3421
C4K C 0.5606 0.1208 1.3421
C4I C 0.5602 0.4394 1.3421
N1A N 0.3895 0.0399 0.9417
N1B N 0.9601 0.3496 0.9417
N1J N 0.9601 0.6105 1.4417
N1K N 0.6504 0.0399 1.4417
N1I N 0.3895 0.3496 1.4417
N1F N 0.3496 0.3895 1.0583
N1G N 0.6105 -0.0399 1.0583
N1H N 1.0399 0.6504 1.0583
Cu1A Cu 0.5000 0.0000 1.0000
Cu1B Cu 1.0000 0.5000 1.0000
Cu1J Cu 1.0000 0.5000 1.5000
Cu1K Cu 0.5000 0.0000 1.5000
Cu1C Cu 0.5000 0.5000 1.5000
O1A O 0.4407 0.2414 1.1217
O1B O 0.7586 0.1993 1.1217
O1J O 0.7586 0.5593 1.6217
O1K O 0.8007 0.2414 1.6217
O1I O 0.4407 0.1993 1.6217
O2A O 0.5480 0.1834 1.0537
O2B O 0.8166 0.3646 1.0537
O2J O 0.8166 0.4520 1.5537
O2K O 0.6354 0.1834 1.5537
O2I O 0.5480 0.3646 1.5537
O2F O 0.3646 0.5480 0.9463
O2G O 0.4520 -0.1834 0.9463
O2H O 1.1834 0.6354 0.9463
O3A O 0.6139 0.1760 0.7748
O3B O 0.8240 0.4379 0.7748
O3J O 0.8240 0.3861 1.2748
O3K O 0.5621 0.1760 1.2748
O3I O 0.6139 0.4379 1.2748
O3_2 O 0.5621 0.3861 1.7748
O3A_2 O 0.6139 0.1760 1.7748
O3B_2 O 0.8240 0.4379 1.7748
O4A O 0.5963 0.0716 0.8937
O4B O 0.9284 0.5247 0.8937
O4J O 0.9284 0.4037 1.3937
O4K O 0.4753 0.0716 1.3937
O4I O 0.5963 0.5247 1.3937
O4F O 0.5247 0.5963 1.1063
O4G O 0.4037 -0.0716 1.1063
O4H O 1.0716 0.4753 1.1063
La1J La 0.6666 0.3333 1.6676
La1J_2 La 0.6666 0.3333 0.6676
O5 O 0.2861 0.2861 0.7500
O6 O 0.0000 0.0000 0.4095
O7 O 0.1585 0.1950 0.3334
loop_
_geom_bond_atom_site_label_1
_geom_bond_atom_site_label_2
_geom_bond_site_symmetry_1
_geom_bond_site_symmetry_2
H1 C2 1_555 1_555
H2 C2 1_555 1_555
H3 C3 1_555 1_555
H4 C3 1_555 1_555
H5 N1 1_555 1_555
C1 C2 1_555 1_555
C2 N1 1_555 1_555
C3 C4 1_555 1_555
C4 O3 1_555 1_555
N1 C3 1_555 1_555
Cu1 N1 1_555 1_555
O1 C1 1_555 1_555
O2 C1 1_555 1_555
O3 La1J_2 1_555 1_555
O4 C4 1_555 1_555
La1 O1 1_555 1_555
H1A C2A 1_555 1_555
H1B C2B 1_555 1_555
H1J C2J 1_555 1_555
H1K C2K 1_555 1_555
H1I C2I 1_555 1_555
H2A C2A 1_555 1_555
H2B C2B 1_555 1_555
H2J C2J 1_555 1_555
H2K C2K 1_555 1_555
H2I C2I 1_555 1_555
H3A C3A 1_555 1_555
H3B C3B 1_555 1_555
H3J C3J 1_555 1_555
H3K C3K 1_555 1_555
H3I C3I 1_555 1_555
H4A C3A 1_555 1_555
H4B C3B 1_555 1_555
H4J C3J 1_555 1_555
H4K C3K 1_555 1_555
H4I C3I 1_555 1_555
H5A N1A 1_555 1_555
H5B N1B 1_555 1_555
H5J N1J 1_555 1_555
H5K N1K 1_555 1_555
H5I N1I 1_555 1_555
H5F N1F 1_555 1_555
H5G N1G 1_555 1_555
H5H N1H 1_555 1_555
C1A C2A 1_555 1_555
C1B C2B 1_555 1_555
C1J C2J 1_555 1_555
C1K C2K 1_555 1_555
C1I C2I 1_555 1_555
C2A N1A 1_555 1_555
C2B N1B 1_555 1_555
C2J N1J 1_555 1_555
C2K N1K 1_555 1_555
C2I N1I 1_555 1_555
C3A C4A 1_555 1_555
C3B C4B 1_555 1_555
C3J C4J 1_555 1_555
C3K C4K 1_555 1_555
C3I C4I 1_555 1_555
C4A O3A 1_555 1_555
C4B O3B 1_555 1_555
C4J O3J 1_555 1_555
C4K O3K 1_555 1_555
C4I O3I 1_555 1_555
N1A C3A 1_555 1_555
N1B C3B 1_555 1_555
N1J C3J 1_555 1_555
N1K C3K 1_555 1_555
N1I C3I 1_555 1_555
N1F Cu1 1_555 1_555
N1G Cu1A 1_555 1_555
N1H Cu1B 1_555 1_555
Cu1A N1A 1_555 1_555
Cu1B N1B 1_555 1_555
Cu1J N1J 1_555 1_555
Cu1K N1K 1_555 1_555
Cu1C N1I 1_555 1_555
O1A La1 1_555 1_555
O1B La1 1_555 1_555
O1J C1J 1_555 1_555
O1K C1K 1_555 1_555
O1I C1I 1_555 1_555
O2A La1 1_555 1_555
O2B La1 1_555 1_555
O2J C1J 1_555 1_555
O2K C1K 1_555 1_555
O2I C1I 1_555 1_555
O2F Cu1 1_555 1_555
O2G Cu1A 1_555 1_555
O2H Cu1B 1_555 1_555
O3A La1J_2 1_555 1_555
O3B La1J_2 1_555 1_555
O3J La1 1_555 1_555
O3K La1 1_555 1_555
O3I La1 1_555 1_555
O3_2 La1J 1_555 1_555
O3A_2 La1J 1_555 1_555
O3B_2 La1J 1_555 1_555
O4A C4A 1_555 1_555
O4B C4B 1_555 1_555
O4J C4J 1_555 1_555
O4K C4K 1_555 1_555
O4I C4I 1_555 1_555
O4F Cu1 1_555 1_555
O4G Cu1A 1_555 1_555
O4H Cu1B 1_555 1_555
La1J O1J 1_555 1_555
Cu1 O2 1_555 1_555
Cu1 O4 1_555 1_555
O2 La1 1_555 1_555
C1A O1A 1_555 1_555
C1A O2A 1_555 1_555
C1B O1B 1_555 1_555
C1B O2B 1_555 1_555
Cu1A O2A 1_555 1_555
Cu1A O4A 1_555 1_555
Cu1B O2B 1_555 1_555
Cu1B O4B 1_555 1_555
Cu1J O2J 1_555 1_555
Cu1J O4J 1_555 1_555
Cu1K O2K 1_555 1_555
Cu1K O4K 1_555 1_555
Cu1C O2I 1_555 1_555
Cu1C O4I 1_555 1_555
O1K La1J 1_555 1_555
O1I La1J 1_555 1_555
O2J La1J 1_555 1_555
O2K La1J 1_555 1_555
O2I La1J 1_555 1_555

#END
