
#######################################################################
#
#                 Cambridge Crystallographic Data Centre
#                                CCDC 
#
#######################################################################
#
# If this CIF has been generated from an entry in the Cambridge 
# Structural Database, then it will include bibliographic, chemical, 
# crystal, experimental, refinement or atomic coordinate data resulting 
# from the CCDC's data processing and validation procedures.
#
#######################################################################

data_KOFPEB03
_chemical_formula_moiety         '(C24 H36 Cu3 La2 N6 O27)n'
_symmetry_cell_setting           trigonal
_symmetry_space_group_name_H-M   'P -3 c 1'
_symmetry_Int_Tables_number      165
_space_group_name_Hall           '-P 3 2"c'
loop_
_symmetry_equiv_pos_site_id
_symmetry_equiv_pos_as_xyz
1 x,y,z
2 -y,x-y,z
3 -x+y,-x,z
4 y,x,1/2-z
5 x-y,-y,1/2-z
6 -x,-x+y,1/2-z
7 -x,-y,-z
8 y,-x+y,-z
9 x-y,x,-z
10 -y,-x,1/2+z
11 -x+y,y,1/2+z
12 x,x-y,1/2+z
_cell_length_a                   13.5039(19)
_cell_length_b                   13.5039(19)
_cell_length_c                   14.897(3)
_cell_angle_alpha                90
_cell_angle_beta                 90
_cell_angle_gamma                120
_cell_volume                     2352.6
loop_
_atom_site_label
_atom_site_type_symbol
_atom_site_fract_x
_atom_site_fract_y
_atom_site_fract_z
H1 H 0.2006 0.3435 0.4660
H2 H 0.2463 0.2888 0.5455
H3 H 0.2738 0.4628 0.3799
H4 H 0.3297 0.3975 0.3159
H5 H 0.3521 0.3289 0.4242
C1 C 0.2730 0.4529 0.5662
C2 C 0.2561 0.3520 0.5090
C3 C 0.3330 0.4459 0.3638
C4 C 0.4392 0.5604 0.3431
O1 O 0.3642 0.5472 0.5562
O2 O 0.1984 0.4393 0.6224
O3 O 0.5233 0.5973 0.3949
O4 O 0.4369 0.6132 0.2756
Cu1 Cu 0.5000 0.5000 0.5000
La1 La 0.3333 0.6667 0.6691
N1 N 0.3492 0.3894 0.4427
H1A H 0.6565 0.8571 0.4660
H1B H 0.1429 0.7994 0.4660
H1J H 0.1429 0.3435 0.9660
H1K H 0.2006 0.8571 0.9660
H1I H 0.6565 0.7994 0.9660
H2A H 0.7112 0.9575 0.5455
H2B H 0.0425 0.7537 0.5455
H2J H 0.0425 0.2888 1.0455
H2K H 0.2463 0.9575 1.0455
H2I H 0.7112 0.7537 1.0455
H3A H 0.5372 0.8110 0.3799
H3B H 0.1890 0.7262 0.3799
H3J H 0.1890 0.4628 0.8799
H3K H 0.2738 0.8110 0.8799
H3I H 0.5372 0.7262 0.8799
H4A H 0.6025 0.9322 0.3159
H4B H 0.0678 0.6703 0.3159
H4J H 0.0678 0.3975 0.8159
H4K H 0.3297 0.9322 0.8159
H4I H 0.6025 0.6703 0.8159
H5A H 0.6711 1.0232 0.4242
H5B H -0.0232 0.6479 0.4242
H5J H -0.0232 0.3289 0.9242
H5K H 0.3521 1.0232 0.9242
H5I H 0.6711 0.6479 0.9242
H5F H 0.6479 0.6711 0.5758
H5G H 0.3289 0.9768 0.5758
H5H H 0.0232 0.3521 0.5758
C1A C 0.5471 0.8201 0.5662
C1B C 0.1799 0.7270 0.5662
C1J C 0.1799 0.4529 1.0662
C1K C 0.2730 0.8201 1.0662
C1I C 0.5471 0.7270 1.0662
C2A C 0.6480 0.9041 0.5090
C2B C 0.0959 0.7439 0.5090
C2J C 0.0959 0.3520 1.0090
C2K C 0.2561 0.9041 1.0090
C2I C 0.6480 0.7439 1.0090
C3A C 0.5541 0.8871 0.3638
C3B C 0.1129 0.6670 0.3638
C3J C 0.1129 0.4459 0.8638
C3K C 0.3330 0.8871 0.8638
C3I C 0.5541 0.6670 0.8638
C4A C 0.4396 0.8788 0.3431
C4B C 0.1212 0.5608 0.3431
C4J C 0.1212 0.5604 0.8431
C4K C 0.4392 0.8788 0.8431
C4I C 0.4396 0.5608 0.8431
O1A O 0.4528 0.8170 0.5562
O1B O 0.1830 0.6358 0.5562
O1J O 0.1830 0.5472 1.0562
O1K O 0.3642 0.8170 1.0562
O1I O 0.4528 0.6358 1.0562
O1F O 0.6358 0.4528 0.4438
O1G O 0.5472 1.1830 0.4438
O1H O -0.1830 0.3642 0.4438
O2A O 0.5607 0.7591 0.6224
O2B O 0.2409 0.8016 0.6224
O2J O 0.2409 0.4393 1.1224
O2K O 0.1984 0.7591 1.1224
O2I O 0.5607 0.8016 1.1224
O3A O 0.4027 0.9260 0.3949
O3B O 0.0740 0.4767 0.3949
O3J O 0.0740 0.5973 0.8949
O3K O 0.5233 0.9260 0.8949
O3I O 0.4027 0.4767 0.8949
O3F O 0.4767 0.4027 0.6051
O3G O 0.5973 1.0740 0.6051
O3H O -0.0740 0.5233 0.6051
O4A O 0.3868 0.8237 0.2756
O4B O 0.1763 0.5631 0.2756
O4J O 0.1763 0.6132 0.7756
O4K O 0.4369 0.8237 0.7756
O4I O 0.3868 0.5631 0.7756
O4_2 O 0.4369 0.6132 1.2756
O4A_2 O 0.3868 0.8237 1.2756
O4B_2 O 0.1763 0.5631 1.2756
Cu1A Cu 0.5000 1.0000 0.5000
Cu1B Cu 0.0000 0.5000 0.5000
Cu1J Cu 0.0000 0.5000 1.0000
Cu1K Cu 0.5000 1.0000 1.0000
Cu1C Cu 0.5000 0.5000 1.0000
La1J La 0.3334 0.6667 1.1691
La1J_2 La 0.3334 0.6667 0.1691
N1A N 0.6106 0.9598 0.4427
N1B N 0.0402 0.6508 0.4427
N1J N 0.0402 0.3894 0.9427
N1K N 0.3492 0.9598 0.9427
N1I N 0.6106 0.6508 0.9427
N1F N 0.6508 0.6106 0.5573
N1G N 0.3894 1.0402 0.5573
N1H N -0.0402 0.3492 0.5573
O5 O 0.2844 0.0000 0.2500
O6 O 0.0000 -0.0000 -0.0874
O7 O 0.1565 0.1919 0.1667
loop_
_geom_bond_atom_site_label_1
_geom_bond_atom_site_label_2
_geom_bond_site_symmetry_1
_geom_bond_site_symmetry_2
H1 C2 1_555 1_555
H2 C2 1_555 1_555
H3 C3 1_555 1_555
H4 C3 1_555 1_555
H5 N1 1_555 1_555
C1 C2 1_555 1_555
C2 N1 1_555 1_555
C3 C4 1_555 1_555
C4 O3 1_555 1_555
O1 C1 1_555 1_555
O2 C1 1_555 1_555
O3 Cu1 1_555 1_555
O4 C4 1_555 1_555
Cu1 O1 1_555 1_555
La1 O1 1_555 1_555
N1 C3 1_555 1_555
H1A C2A 1_555 1_555
H1B C2B 1_555 1_555
H1J C2J 1_555 1_555
H1K C2K 1_555 1_555
H1I C2I 1_555 1_555
H2A C2A 1_555 1_555
H2B C2B 1_555 1_555
H2J C2J 1_555 1_555
H2K C2K 1_555 1_555
H2I C2I 1_555 1_555
H3A C3A 1_555 1_555
H3B C3B 1_555 1_555
H3J C3J 1_555 1_555
H3K C3K 1_555 1_555
H3I C3I 1_555 1_555
H4A C3A 1_555 1_555
H4B C3B 1_555 1_555
H4J C3J 1_555 1_555
H4K C3K 1_555 1_555
H4I C3I 1_555 1_555
H5A N1A 1_555 1_555
H5B N1B 1_555 1_555
H5J N1J 1_555 1_555
H5K N1K 1_555 1_555
H5I N1I 1_555 1_555
H5F N1F 1_555 1_555
H5G N1G 1_555 1_555
H5H N1H 1_555 1_555
C1A C2A 1_555 1_555
C1B C2B 1_555 1_555
C1J C2J 1_555 1_555
C1K C2K 1_555 1_555
C1I C2I 1_555 1_555
C2A N1A 1_555 1_555
C2B N1B 1_555 1_555
C2J N1J 1_555 1_555
C2K N1K 1_555 1_555
C2I N1I 1_555 1_555
C3A C4A 1_555 1_555
C3B C4B 1_555 1_555
C3J C4J 1_555 1_555
C3K C4K 1_555 1_555
C3I C4I 1_555 1_555
C4A O3A 1_555 1_555
C4B O3B 1_555 1_555
C4J O3J 1_555 1_555
C4K O3K 1_555 1_555
C4I O3I 1_555 1_555
O1A La1 1_555 1_555
O1B La1 1_555 1_555
O1J C1J 1_555 1_555
O1K C1K 1_555 1_555
O1I C1I 1_555 1_555
O1F Cu1 1_555 1_555
O1G Cu1A 1_555 1_555
O1H Cu1B 1_555 1_555
O2A La1 1_555 1_555
O2B La1 1_555 1_555
O2J C1J 1_555 1_555
O2K C1K 1_555 1_555
O2I C1I 1_555 1_555
O3A Cu1A 1_555 1_555
O3B Cu1B 1_555 1_555
O3J Cu1J 1_555 1_555
O3K Cu1K 1_555 1_555
O3I Cu1C 1_555 1_555
O3F Cu1 1_555 1_555
O3G Cu1A 1_555 1_555
O3H Cu1B 1_555 1_555
O4A C4A 1_555 1_555
O4B C4B 1_555 1_555
O4J La1 1_555 1_555
O4K La1 1_555 1_555
O4I La1 1_555 1_555
O4_2 La1J 1_555 1_555
O4A_2 La1J 1_555 1_555
O4B_2 La1J 1_555 1_555
Cu1A O1A 1_555 1_555
Cu1B O1B 1_555 1_555
Cu1J O1J 1_555 1_555
Cu1K O1K 1_555 1_555
Cu1C O1I 1_555 1_555
La1J O1J 1_555 1_555
La1J_2 O4 1_555 1_555
N1A C3A 1_555 1_555
N1B C3B 1_555 1_555
N1J C3J 1_555 1_555
N1K C3K 1_555 1_555
N1I C3I 1_555 1_555
N1F Cu1 1_555 1_555
N1G Cu1A 1_555 1_555
N1H Cu1B 1_555 1_555
O2 La1 1_555 1_555
Cu1 N1 1_555 1_555
C1A O1A 1_555 1_555
C1A O2A 1_555 1_555
C1B O1B 1_555 1_555
C1B O2B 1_555 1_555
C4J O4J 1_555 1_555
C4K O4K 1_555 1_555
C4I O4I 1_555 1_555
O1K La1J 1_555 1_555
O1I La1J 1_555 1_555
O2J La1J 1_555 1_555
O2K La1J 1_555 1_555
O2I La1J 1_555 1_555
O4A La1J_2 1_555 1_555
O4B La1J_2 1_555 1_555
Cu1A N1A 1_555 1_555
Cu1B N1B 1_555 1_555
Cu1J N1J 1_555 1_555
Cu1K N1K 1_555 1_555
Cu1C N1I 1_555 1_555

#END
