
#######################################################################
#
#                 Cambridge Crystallographic Data Centre
#                                CCDC 
#
#######################################################################
#
# If this CIF has been generated from an entry in the Cambridge 
# Structural Database, then it will include bibliographic, chemical, 
# crystal, experimental, refinement or atomic coordinate data resulting 
# from the CCDC's data processing and validation procedures.
#
#######################################################################

data_KOFPEB05
_chemical_formula_moiety         '(C24 H30 Cu3 La2 N6 O24)n'
_symmetry_cell_setting           trigonal
_symmetry_space_group_name_H-M   'P -3 c 1'
_symmetry_Int_Tables_number      165
_space_group_name_Hall           '-P 3 2"c'
loop_
_symmetry_equiv_pos_site_id
_symmetry_equiv_pos_as_xyz
1 x,y,z
2 -y,x-y,z
3 -x+y,-x,z
4 y,x,1/2-z
5 x-y,-y,1/2-z
6 -x,-x+y,1/2-z
7 -x,-y,-z
8 y,-x+y,-z
9 x-y,x,-z
10 -y,-x,1/2+z
11 -x+y,y,1/2+z
12 x,x-y,1/2+z
_cell_length_a                   13.4386(19)
_cell_length_b                   13.4386(19)
_cell_length_c                   14.888(3)
_cell_angle_alpha                90
_cell_angle_beta                 90
_cell_angle_gamma                120
_cell_volume                     2328.49
loop_
_atom_site_label
_atom_site_type_symbol
_atom_site_fract_x
_atom_site_fract_y
_atom_site_fract_z
H1 H 0.7147 0.9603 0.5433
H2 H 0.6586 0.8581 0.4652
H3 H 0.6020 0.9355 0.3150
H4 H 0.5394 0.8135 0.3799
H5 H 0.6717 1.0252 0.4243
O1 O 0.4563(3) 0.8185(3) 0.5592(2)
O2 O 0.5663(3) 0.7596(3) 0.6213(2)
O3 O 0.4001(3) 0.9219(3) 0.3974(2)
O4 O 0.3863(4) 0.8221(4) 0.2762(2)
C1 C 0.5511(4) 0.8210(4) 0.5675(3)
C2 C 0.6501(5) 0.9058(5) 0.5086(4)
C3 C 0.5547(5) 0.8887(5) 0.3637(4)
C4 C 0.4389(6) 0.8776(4) 0.3442(3)
La1 La 0.3333 0.6667 0.67016(2)
Cu1 Cu 0.5000 1.0000 0.5000
N1 N 0.6115(3) 0.9605(3) 0.4423(2)
H1A H 0.0397 0.7544 0.5433
H1B H 0.2456 0.2853 0.5433
H1J H 0.2456 0.9603 1.0433
H1K H 0.7147 0.7544 1.0433
H1I H 0.0397 0.2853 1.0433
H2A H 0.1419 0.8005 0.4652
H2B H 0.1995 0.3414 0.4652
H2J H 0.1995 0.8581 0.9652
H2K H 0.6586 0.8005 0.9652
H2I H 0.1419 0.3414 0.9652
H3A H 0.0645 0.6665 0.3150
H3B H 0.3335 0.3980 0.3150
H3J H 0.3335 0.9355 0.8150
H3K H 0.6020 0.6665 0.8150
H3I H 0.0645 0.3980 0.8150
H4A H 0.1865 0.7259 0.3799
H4B H 0.2741 0.4606 0.3799
H4J H 0.2741 0.8135 0.8799
H4K H 0.5394 0.7259 0.8799
H4I H 0.1865 0.4606 0.8799
H5A H -0.0252 0.6465 0.4243
H5B H 0.3535 0.3283 0.4243
H5J H 0.3535 1.0252 0.9243
H5K H 0.6717 0.6465 0.9243
H5I H -0.0252 0.3283 0.9243
H5F H 0.3283 0.9748 0.5757
H5G H 0.0252 0.3535 0.5757
H5H H 0.6465 0.6717 0.5757
O1A O 0.1815(3) 0.6378(4) 0.5592(2)
O1B O 0.3622(4) 0.5437(3) 0.5592(2)
O1J O 0.3622(4) 0.8185(3) 1.0592(2)
O1K O 0.4563(3) 0.6378(4) 1.0592(2)
O1I O 0.1815(3) 0.5437(3) 1.0592(2)
O1F O 0.5437(3) 1.1815(3) 0.4408(2)
O1G O -0.1815(3) 0.3622(4) 0.4408(2)
O1H O 0.6378(4) 0.4563(3) 0.4408(2)
O2A O 0.2404(3) 0.8067(4) 0.6213(2)
O2B O 0.1933(4) 0.4337(3) 0.6213(2)
O2J O 0.1933(4) 0.7596(3) 1.1213(2)
O2K O 0.5663(3) 0.8067(4) 1.1213(2)
O2I O 0.2404(3) 0.4337(3) 1.1213(2)
O3A O 0.0781(3) 0.4782(4) 0.3974(2)
O3B O 0.5218(4) 0.5999(3) 0.3974(2)
O3J O 0.5218(4) 0.9219(3) 0.8974(2)
O3K O 0.4001(3) 0.4782(4) 0.8974(2)
O3I O 0.0781(3) 0.5999(3) 0.8974(2)
O3F O 0.5999(3) 1.0781(3) 0.6026(2)
O3G O -0.0781(3) 0.5218(4) 0.6026(2)
O3H O 0.4782(4) 0.4001(3) 0.6026(2)
O4A O 0.1779(4) 0.5642(6) 0.2762(2)
O4B O 0.4358(6) 0.6137(4) 0.2762(2)
O4J O 0.4358(6) 0.8221(4) 0.7762(2)
O4K O 0.3863(4) 0.5642(6) 0.7762(2)
O4I O 0.1779(4) 0.6137(4) 0.7762(2)
O4_2 O 0.3863(4) 0.8221(4) 1.2762(2)
O4A_2 O 0.1779(4) 0.5642(6) 1.2762(2)
O4B_2 O 0.4358(6) 0.6137(4) 1.2762(2)
C1A C 0.1790(4) 0.7301(6) 0.5675(3)
C1B C 0.2699(6) 0.4489(4) 0.5675(3)
C1J C 0.2699(6) 0.8210(4) 1.0675(3)
C1K C 0.5511(4) 0.7301(6) 1.0675(3)
C1I C 0.1790(4) 0.4489(4) 1.0675(3)
C2A C 0.0942(5) 0.7443(7) 0.5086(4)
C2B C 0.2557(7) 0.3499(5) 0.5086(4)
C2J C 0.2557(7) 0.9058(5) 1.0086(4)
C2K C 0.6501(5) 0.7443(7) 1.0086(4)
C2I C 0.0942(5) 0.3499(5) 1.0086(4)
C3A C 0.1113(5) 0.6660(7) 0.3637(4)
C3B C 0.3340(7) 0.4453(5) 0.3637(4)
C3J C 0.3340(7) 0.8887(5) 0.8637(4)
C3K C 0.5547(5) 0.6660(7) 0.8637(4)
C3I C 0.1113(5) 0.4453(5) 0.8637(4)
C4A C 0.1224(4) 0.5613(7) 0.3442(3)
C4B C 0.4387(7) 0.5611(6) 0.3442(3)
C4J C 0.4387(7) 0.8776(4) 0.8442(3)
C4K C 0.4389(6) 0.5613(7) 0.8442(3)
C4I C 0.1224(4) 0.5611(6) 0.8442(3)
La1J La 0.3334 0.6667 1.17016(2)
La1J_2 La 0.3334 0.6667 0.17016(2)
Cu1A Cu -0.0000 0.5000 0.5000
Cu1B Cu 0.5000 0.5000 0.5000
Cu1J Cu 0.5000 1.0000 1.0000
Cu1K Cu 0.5000 0.5000 1.0000
Cu1C Cu 0.0000 0.5000 1.0000
N1A N 0.0395(3) 0.6510(4) 0.4423(2)
N1B N 0.3490(4) 0.3885(3) 0.4423(2)
N1J N 0.3490(4) 0.9605(3) 0.9423(2)
N1K N 0.6115(3) 0.6510(4) 0.9423(2)
N1I N 0.0395(3) 0.3885(3) 0.9423(2)
N1F N 0.3885(3) 1.0395(3) 0.5577(2)
N1G N -0.0395(3) 0.3490(4) 0.5577(2)
N1H N 0.6510(4) 0.6115(3) 0.5577(2)
loop_
_geom_bond_atom_site_label_1
_geom_bond_atom_site_label_2
_geom_bond_site_symmetry_1
_geom_bond_site_symmetry_2
H1 C2 1_555 1_555
H2 C2 1_555 1_555
H3 C3 1_555 1_555
H4 C3 1_555 1_555
H5 N1 1_555 1_555
O1 C1 1_555 1_555
O2 C1 1_555 1_555
O3 C4 1_555 1_555
O4 C4 1_555 1_555
C1 C2 1_555 1_555
C2 N1 1_555 1_555
C3 C4 1_555 1_555
La1 O1 1_555 1_555
Cu1 O1 1_555 1_555
N1 C3 1_555 1_555
H1A C2A 1_555 1_555
H1B C2B 1_555 1_555
H1J C2J 1_555 1_555
H1K C2K 1_555 1_555
H1I C2I 1_555 1_555
H2A C2A 1_555 1_555
H2B C2B 1_555 1_555
H2J C2J 1_555 1_555
H2K C2K 1_555 1_555
H2I C2I 1_555 1_555
H3A C3A 1_555 1_555
H3B C3B 1_555 1_555
H3J C3J 1_555 1_555
H3K C3K 1_555 1_555
H3I C3I 1_555 1_555
H4A C3A 1_555 1_555
H4B C3B 1_555 1_555
H4J C3J 1_555 1_555
H4K C3K 1_555 1_555
H4I C3I 1_555 1_555
H5A N1A 1_555 1_555
H5B N1B 1_555 1_555
H5J N1J 1_555 1_555
H5K N1K 1_555 1_555
H5I N1I 1_555 1_555
H5F N1F 1_555 1_555
H5G N1G 1_555 1_555
H5H N1H 1_555 1_555
O1A La1 1_555 1_555
O1B La1 1_555 1_555
O1J C1J 1_555 1_555
O1K C1K 1_555 1_555
O1I C1I 1_555 1_555
O1F Cu1 1_555 1_555
O1G Cu1A 1_555 1_555
O1H Cu1B 1_555 1_555
O2A La1 1_555 1_555
O2B La1 1_555 1_555
O2J C1J 1_555 1_555
O2K C1K 1_555 1_555
O2I C1I 1_555 1_555
O3A C4A 1_555 1_555
O3B C4B 1_555 1_555
O3J C4J 1_555 1_555
O3K C4K 1_555 1_555
O3I C4I 1_555 1_555
O3F Cu1 1_555 1_555
O3G Cu1A 1_555 1_555
O3H Cu1B 1_555 1_555
O4A C4A 1_555 1_555
O4B C4B 1_555 1_555
O4J La1 1_555 1_555
O4K La1 1_555 1_555
O4I La1 1_555 1_555
O4_2 La1J 1_555 1_555
O4A_2 La1J 1_555 1_555
O4B_2 La1J 1_555 1_555
C1A O1A 1_555 1_555
C1B O1B 1_555 1_555
C1J C2J 1_555 1_555
C1K C2K 1_555 1_555
C1I C2I 1_555 1_555
C2A C1A 1_555 1_555
C2B C1B 1_555 1_555
C2J N1J 1_555 1_555
C2K N1K 1_555 1_555
C2I N1I 1_555 1_555
C3A C4A 1_555 1_555
C3B C4B 1_555 1_555
C3J C4J 1_555 1_555
C3K C4K 1_555 1_555
C3I C4I 1_555 1_555
C4J O4J 1_555 1_555
C4K O4K 1_555 1_555
C4I O4I 1_555 1_555
La1J O1J 1_555 1_555
La1J_2 O4 1_555 1_555
Cu1A O1A 1_555 1_555
Cu1B O1B 1_555 1_555
Cu1J O1J 1_555 1_555
Cu1K O1K 1_555 1_555
Cu1C O1I 1_555 1_555
N1A C2A 1_555 1_555
N1B C2B 1_555 1_555
N1J C3J 1_555 1_555
N1K C3K 1_555 1_555
N1I C3I 1_555 1_555
N1F Cu1 1_555 1_555
N1G Cu1A 1_555 1_555
N1H Cu1B 1_555 1_555
O2 La1 1_555 1_555
O3 Cu1 1_555 1_555
Cu1 N1 1_555 1_555
O1K La1J 1_555 1_555
O1I La1J 1_555 1_555
O2A C1A 1_555 1_555
O2B C1B 1_555 1_555
O2J La1J 1_555 1_555
O2K La1J 1_555 1_555
O2I La1J 1_555 1_555
O3A Cu1A 1_555 1_555
O3B Cu1B 1_555 1_555
O3J Cu1J 1_555 1_555
O3K Cu1K 1_555 1_555
O3I Cu1C 1_555 1_555
O4A La1J_2 1_555 1_555
O4B La1J_2 1_555 1_555
C3A N1A 1_555 1_555
C3B N1B 1_555 1_555
Cu1A N1A 1_555 1_555
Cu1B N1B 1_555 1_555
Cu1J N1J 1_555 1_555
Cu1K N1K 1_555 1_555
Cu1C N1I 1_555 1_555

#END
