
#######################################################################
#
#                 Cambridge Crystallographic Data Centre
#                                CCDC 
#
#######################################################################
#
# If this CIF has been generated from an entry in the Cambridge 
# Structural Database, then it will include bibliographic, chemical, 
# crystal, experimental, refinement or atomic coordinate data resulting 
# from the CCDC's data processing and validation procedures.
#
#######################################################################

data_RUYQIN02
_chemical_formula_moiety         '(C21 H14 La1 N1 O7)n'
_symmetry_cell_setting           rhombohedral
_symmetry_space_group_name_H-M   'R 3 2'
_symmetry_Int_Tables_number      155
_space_group_name_Hall           'R 3 2"'
loop_
_symmetry_equiv_pos_site_id
_symmetry_equiv_pos_as_xyz
1 x,y,z
2 -y,x-y,z
3 -x+y,-x,z
4 y,x,-z
5 x-y,-y,-z
6 -x,-x+y,-z
7 2/3+x,1/3+y,1/3+z
8 2/3-y,1/3+x-y,1/3+z
9 2/3-x+y,1/3-x,1/3+z
10 2/3+y,1/3+x,1/3-z
11 2/3+x-y,1/3-y,1/3-z
12 2/3-x,1/3-x+y,1/3-z
13 1/3+x,2/3+y,2/3+z
14 1/3-y,2/3+x-y,2/3+z
15 1/3-x+y,2/3-x,2/3+z
16 1/3+y,2/3+x,2/3-z
17 1/3+x-y,2/3-y,2/3-z
18 1/3-x,2/3-x+y,2/3-z
_cell_length_a                   24.2447(8)
_cell_length_b                   24.2447(8)
_cell_length_c                   13.1705(8)
_cell_angle_alpha                90
_cell_angle_beta                 90
_cell_angle_gamma                120
_cell_volume                     6704.5
loop_
_atom_site_label
_atom_site_type_symbol
_atom_site_fract_x
_atom_site_fract_y
_atom_site_fract_z
La1 La 0.64903(2) -0.01764(2) 0.1667
O1 O 0.7648(2) 0.0357(3) 0.1094(4)
O2 O 0.7158(4) 0.0698(2) 0.0004(3)
O3 O 0.9929(3) 0.5673(4) 0.0835(4)
O4 O 0.5411(5) -0.1255(5) 0.1667
N1 N 1.0000 0.3116(4) 0.0000
C1 C 0.9422(3) 0.2538(4) 0.0120(5)
C2 C 0.8844(4) 0.2468(4) -0.0230(6)
H1 H 0.8838 0.2811 -0.0534
C3 C 0.8278(4) 0.1886(4) -0.0124(6)
H2 H 0.7902 0.1850 -0.0375
C4 C 0.8255(4) 0.1385(4) 0.0319(6)
C5 C 0.9403(4) 0.2008(3) 0.0626(5)
H3 H 0.9776 0.2045 0.0887
C6 C 0.8815(4) 0.1418(4) 0.0739(6)
H4 H 0.8799 0.1072 0.1071
C7 C 0.7660(4) 0.0771(4) 0.0469(6)
C8 C 1.0000 0.3705(4) 0.0000
C9 C 0.9724(4) 0.3840(6) 0.0769(6)
H5 H 0.9525 0.3547 0.1291
C10 C 0.9737(4) 0.4403(6) 0.0778(6)
H6 H 0.9562 0.4501 0.1330
C11 C 1.0000 0.4839(4) 0.0000
C12 C 1.0000 0.5457(5) 0.0000
O1E O 1.2352(2) 0.2709(4) -0.1094(4)
C1E C 1.0578(3) 0.3116(5) -0.0120(5)
C2E C 1.1156(4) 0.3624(6) 0.0230(6)
H1E H 1.1162 0.3973 0.0534
C3E C 1.1722(4) 0.3608(6) 0.0124(6)
H2E H 1.2098 0.3948 0.0375
C4E C 1.1745(4) 0.3130(6) -0.0319(6)
C5E C 1.0597(4) 0.2605(5) -0.0626(5)
H3E H 1.0224 0.2269 -0.0887
C6E C 1.1185(4) 0.2603(6) -0.0739(6)
H4E H 1.1201 0.2273 -0.1071
C7E C 1.2340(4) 0.3111(6) -0.0469(6)
O3E O 1.0071(3) 0.5744(5) -0.0835(4)
C9E C 1.0276(4) 0.4116(7) -0.0769(6)
H5E H 1.0475 0.4022 -0.1291
C10E C 1.0263(4) 0.4666(7) -0.0778(6)
H6E H 1.0438 0.4939 -0.1330
O2E O 1.2842(4) 0.3540(4) -0.0004(3)
La1A La 1.01764(2) 0.66667(3) 0.1667
La1B La 1.33333(3) 0.35097(2) 0.1667
La1C La 0.98236(2) 0.64903(2) -0.1667
La1D La 0.66667(3) 0.01764(2) -0.1667
La1E La 1.35097(2) 0.33333(3) -0.1667
O1I O 0.7024(3) 0.0981(2) 0.2239(4)
O2D O 0.6460(4) -0.0698(2) -0.0004(3)
O2G O 0.5969(2) -0.0207(4) 0.3337(3)
O2I O 0.7365(2) 0.0491(4) 0.3329(3)
O3B O 0.5744(5) 0.0071(3) 0.0835(4)
O3K O 0.6738(3) -0.0923(5) 0.2498(4)
loop_
_geom_bond_atom_site_label_1
_geom_bond_atom_site_label_2
_geom_bond_site_symmetry_1
_geom_bond_site_symmetry_2
La1 O1 1_555 1_555
O1 C7 1_555 1_555
O2 La1 1_555 1_555
O3 C12 1_555 1_555
O4 La1 1_555 1_555
N1 C1 1_555 1_555
C1 C2 1_555 1_555
C2 H1 1_555 1_555
C3 C2 1_555 1_555
H2 C3 1_555 1_555
C4 C3 1_555 1_555
C5 C1 1_555 1_555
H3 C5 1_555 1_555
C6 C4 1_555 1_555
H4 C6 1_555 1_555
C7 O2 1_555 1_555
C8 N1 1_555 1_555
C9 C8 1_555 1_555
H5 C9 1_555 1_555
C10 C9 1_555 1_555
H6 C10 1_555 1_555
C11 C10 1_555 1_555
C12 C11 1_555 1_555
O1E C7E 1_555 1_555
C1E N1 1_555 1_555
C2E C1E 1_555 1_555
H1E C2E 1_555 1_555
C3E C2E 1_555 1_555
H2E C3E 1_555 1_555
C4E C3E 1_555 1_555
C5E C1E 1_555 1_555
H3E C5E 1_555 1_555
C6E C4E 1_555 1_555
H4E C6E 1_555 1_555
C7E C4E 1_555 1_555
O3E C12 1_555 1_555
C9E C8 1_555 1_555
H5E C9E 1_555 1_555
C10E C11 1_555 1_555
H6E C10E 1_555 1_555
O2E C7E 1_555 1_555
La1A O3 1_555 1_555
La1B O2E 1_555 1_555
La1C O3E 1_555 1_555
La1D O2 1_555 1_555
La1E O1E 1_555 1_555
O1I La1 1_555 1_555
O2D La1 1_555 1_555
O2G La1 1_555 1_555
O2I La1 1_555 1_555
O3B La1 1_555 1_555
O3K La1 1_555 1_555
C4 C7 1_555 1_555
C5 C6 1_555 1_555
C5E C6E 1_555 1_555
C9E C10E 1_555 1_555
O2E La1E 1_555 1_555
La1D O2D 1_555 1_555

#END
