
#######################################################################
#
#                 Cambridge Crystallographic Data Centre
#                                CCDC 
#
#######################################################################
#
# If this CIF has been generated from an entry in the Cambridge 
# Structural Database, then it will include bibliographic, chemical, 
# crystal, experimental, refinement or atomic coordinate data resulting 
# from the CCDC's data processing and validation procedures.
#
#######################################################################

data_RUYQOT
_chemical_formula_moiety         '(C21 H16 La1 N1 O8)n'
_symmetry_cell_setting           rhombohedral
_symmetry_space_group_name_H-M   'R 3 2'
_symmetry_Int_Tables_number      155
_space_group_name_Hall           'R 3 2"'
loop_
_symmetry_equiv_pos_site_id
_symmetry_equiv_pos_as_xyz
1 x,y,z
2 -y,x-y,z
3 -x+y,-x,z
4 y,x,-z
5 x-y,-y,-z
6 -x,-x+y,-z
7 2/3+x,1/3+y,1/3+z
8 2/3-y,1/3+x-y,1/3+z
9 2/3-x+y,1/3-x,1/3+z
10 2/3+y,1/3+x,1/3-z
11 2/3+x-y,1/3-y,1/3-z
12 2/3-x,1/3-x+y,1/3-z
13 1/3+x,2/3+y,2/3+z
14 1/3-y,2/3+x-y,2/3+z
15 1/3-x+y,2/3-x,2/3+z
16 1/3+y,2/3+x,2/3-z
17 1/3+x-y,2/3-y,2/3-z
18 1/3-x,2/3-x+y,2/3-z
_cell_length_a                   24.2009(7)
_cell_length_b                   24.2009(7)
_cell_length_c                   12.9648(6)
_cell_angle_alpha                90
_cell_angle_beta                 90
_cell_angle_gamma                120
_cell_volume                     6575.96
loop_
_atom_site_label
_atom_site_type_symbol
_atom_site_fract_x
_atom_site_fract_y
_atom_site_fract_z
La1 La 0.6667 0.018900(19) 0.3333
O1 O 0.5693(3) -0.0634(2) 0.0575(3)
O2 O 0.6185(2) 0.0205(2) 0.1626(3)
O3 O 0.3223(2) 0.2312(2) 0.2515(4)
O4 O 0.6667 0.1225(4) 0.3333
H1 H 0.686(5) 0.156(3) 0.383(5)
N1 N 0.3333 -0.0243(3) 0.1667
C1 C 0.3912(3) -0.0238(3) 0.1550(4)
C2 C 0.4485(3) 0.0276(3) 0.1898(5)
H2 H 0.4483 0.0623 0.2201
C3 C 0.5054(3) 0.0279(3) 0.1800(5)
H3 H 0.5429 0.0619 0.2054
C4 C 0.5065(3) -0.0232(3) 0.1319(5)
C5 C 0.4503(3) -0.0744(3) 0.0937(5)
H4 H 0.4513 -0.1081 0.0608
C6 C 0.3921(3) -0.0749(3) 0.1051(4)
H5 H 0.3545 -0.1089 0.0797
C7 C 0.5679(3) -0.0226(3) 0.1174(4)
C8 C 0.3333 0.0349(4) 0.1667
C9 C 0.3633(3) 0.0787(3) 0.0873(5)
H6 H 0.3838 0.0696 0.0349
C10 C 0.3628(3) 0.1366(3) 0.0859(5)
H7 H 0.3818 0.1653 0.0320
C11 C 0.3333 0.1500(4) 0.1667
C12 C 0.3333 0.2132(4) 0.1667
O2K O 0.0482(2) -0.2647(3) 0.1707(3)
C1K C 0.2755(3) -0.0817(4) 0.1783(4)
C2K C 0.2182(3) -0.0876(4) 0.1435(5)
H2K H 0.2184 -0.0527 0.1132
C3K C 0.1613(3) -0.1442(4) 0.1533(5)
H3K H 0.1238 -0.1477 0.1279
C4K C 0.1602(3) -0.1964(4) 0.2014(5)
C5K C 0.2164(3) -0.1914(4) 0.2396(5)
H4K H 0.2154 -0.2261 0.2725
C6K C 0.2746(3) -0.1337(4) 0.2282(4)
H5K H 0.3122 -0.1301 0.2536
C7K C 0.0988(3) -0.2572(4) 0.2159(4)
C9K C 0.3034(3) 0.0487(4) 0.2460(5)
H6K H 0.2829 0.0191 0.2984
O3K O 0.3444(2) 0.2422(3) 0.0818(4)
C10K C 0.3039(3) 0.1071(4) 0.2474(5)
H7K H 0.2849 0.1168 0.3013
O1K O 0.0974(3) -0.2994(4) 0.2758(3)
H1Q H 0.647(5) 0.137(6) 0.284(5)
La1A La -0.018900(19) -0.352200(19) 0.3333
La1B La 0.352200(19) 0.3333 0.3333
La1I La 0.685567(19) 0.0000 0.0000
La1J La 0.314467(19) 0.314433(19) 0.0000
La1K La -0.0000 -0.314467(19) 0.0000
O1G O 0.7301(2) -0.0340(4) 0.3908(3)
O1I O 0.6033(2) -0.0974(3) 0.2758(3)
O2G O 0.6462(2) -0.0687(3) 0.4959(3)
O2I O 0.6872(2) -0.0482(2) 0.1707(3)
O2Q O 0.7148(2) 0.0687(3) 0.5041(3)
O3A O 0.7688(2) 0.0911(3) 0.2515(4)
O3O O 0.5645(2) -0.0110(2) 0.4152(4)
O5 O 0.8320(7) -0.0059(7) 0.2409(8)
loop_
_geom_bond_atom_site_label_1
_geom_bond_atom_site_label_2
_geom_bond_site_symmetry_1
_geom_bond_site_symmetry_2
La1 O2 1_555 1_555
O1 C7 1_555 1_555
O2 C7 1_555 1_555
O3 C12 1_555 1_555
O4 La1 1_555 1_555
H1 O4 1_555 1_555
N1 C1 1_555 1_555
C1 C2 1_555 1_555
C2 H2 1_555 1_555
C3 C2 1_555 1_555
H3 C3 1_555 1_555
C4 C3 1_555 1_555
C5 C4 1_555 1_555
H4 C5 1_555 1_555
C6 C1 1_555 1_555
H5 C6 1_555 1_555
C7 C4 1_555 1_555
C8 N1 1_555 1_555
C9 C8 1_555 1_555
H6 C9 1_555 1_555
C10 C9 1_555 1_555
H7 C10 1_555 1_555
C11 C10 1_555 1_555
C12 C11 1_555 1_555
O2K C7K 1_555 1_555
C1K N1 1_555 1_555
C2K C1K 1_555 1_555
H2K C2K 1_555 1_555
C3K C2K 1_555 1_555
H3K C3K 1_555 1_555
C4K C3K 1_555 1_555
C5K C4K 1_555 1_555
H4K C5K 1_555 1_555
C6K C1K 1_555 1_555
H5K C6K 1_555 1_555
C7K C4K 1_555 1_555
C9K C8 1_555 1_555
H6K C9K 1_555 1_555
O3K C12 1_555 1_555
C10K C11 1_555 1_555
H7K C10K 1_555 1_555
O1K C7K 1_555 1_555
H1Q O4 1_555 1_555
La1A O2K 1_555 1_555
La1B O3 1_555 1_555
La1I O1 1_555 1_555
La1J O3K 1_555 1_555
La1K O2K 1_555 1_555
O1G La1 1_555 1_555
O1I La1 1_555 1_555
O2G La1 1_555 1_555
O2I La1 1_555 1_555
O2Q La1 1_555 1_555
O3A La1 1_555 1_555
O3O La1 1_555 1_555
O2 La1I 1_555 1_555
C5 C6 1_555 1_555
C5K C6K 1_555 1_555
C9K C10K 1_555 1_555
O1K La1A 1_555 1_555
La1I O2I 1_555 1_555

#END
