
#######################################################################
#
#                 Cambridge Crystallographic Data Centre
#                                CCDC 
#
#######################################################################
#
# If this CIF has been generated from an entry in the Cambridge 
# Structural Database, then it will include bibliographic, chemical, 
# crystal, experimental, refinement or atomic coordinate data resulting 
# from the CCDC's data processing and validation procedures.
#
#######################################################################

data_RUYQIN
_chemical_formula_moiety         '(C21 H14 La1 N1 O7)n'
_symmetry_cell_setting           rhombohedral
_symmetry_space_group_name_H-M   'R 3 2'
_symmetry_Int_Tables_number      155
_space_group_name_Hall           'R 3 2"'
loop_
_symmetry_equiv_pos_site_id
_symmetry_equiv_pos_as_xyz
1 x,y,z
2 -y,x-y,z
3 -x+y,-x,z
4 y,x,-z
5 x-y,-y,-z
6 -x,-x+y,-z
7 2/3+x,1/3+y,1/3+z
8 2/3-y,1/3+x-y,1/3+z
9 2/3-x+y,1/3-x,1/3+z
10 2/3+y,1/3+x,1/3-z
11 2/3+x-y,1/3-y,1/3-z
12 2/3-x,1/3-x+y,1/3-z
13 1/3+x,2/3+y,2/3+z
14 1/3-y,2/3+x-y,2/3+z
15 1/3-x+y,2/3-x,2/3+z
16 1/3+y,2/3+x,2/3-z
17 1/3+x-y,2/3-y,2/3-z
18 1/3-x,2/3-x+y,2/3-z
_cell_length_a                   24.1843(5)
_cell_length_b                   24.1843(5)
_cell_length_c                   13.0217(5)
_cell_angle_alpha                90
_cell_angle_beta                 90
_cell_angle_gamma                120
_cell_volume                     6595.77
loop_
_atom_site_label
_atom_site_type_symbol
_atom_site_fract_x
_atom_site_fract_y
_atom_site_fract_z
La1 La 0.018233(16) 0.351567(16) 0.1667
O1 O -0.09708(15) 0.2984(2) 0.2253(3)
O2 O -0.04897(23) 0.26428(15) 0.3300(2)
O3 O -0.3223(2) -0.2318(3) 0.2502(3)
O4 O 0.1240(3) 0.4573(3) 0.1667
N1 N -0.3333 0.0240(2) 0.3333
C1 C -0.2748(2) 0.0819(2) 0.3211(4)
C2 C -0.2191(2) 0.0873(3) 0.3576(5)
H1 H -0.2192 0.0528 0.3894
C3 C -0.1627(3) 0.1446(3) 0.3464(4)
H2 H -0.1252 0.1483 0.3724
C4 C -0.1604(2) 0.1950(3) 0.2994(4)
C5 C -0.2152(3) 0.1883(3) 0.2620(4)
H3 H -0.2141 0.2228 0.2284
C6 C -0.2737(3) 0.1318(2) 0.2713(4)
H4 H -0.3108 0.1284 0.2443
C7 C -0.0991(2) 0.2575(3) 0.2853(4)
C8 C -0.3333 -0.0354(3) 0.3333
C9 C -0.3004(3) -0.0480(4) 0.2554(4)
H5 H -0.2782 -0.0177 0.2048
C10 C -0.3015(3) -0.1065(4) 0.2551(5)
H6 H -0.2812 -0.1160 0.2030
C11 C -0.3333 -0.1505(3) 0.3333
C12 C -0.3333 -0.2134(3) 0.3333
O1Q O -0.56959(15) 0.06215(25) 0.4414(3)
C1Q C -0.3919(2) 0.0234(3) 0.3456(4)
C2Q C -0.4476(2) -0.0269(4) 0.3091(5)
H1Q H -0.4475 -0.0613 0.2773
C3Q C -0.5040(3) -0.0260(4) 0.3203(4)
H2Q H -0.5415 -0.0598 0.2943
C4Q C -0.5063(2) 0.0221(4) 0.3673(4)
C5Q C -0.4515(3) 0.0702(4) 0.4047(4)
H3Q H -0.4526 0.1036 0.4383
C6Q C -0.3930(3) 0.0722(4) 0.3954(4)
H4Q H -0.3559 0.1059 0.4224
C7Q C -0.5676(2) 0.0233(4) 0.3814(4)
O3Q O -0.3444(2) -0.2428(4) 0.4165(3)
C9Q C -0.3663(3) -0.0809(5) 0.4113(4)
H5Q H -0.3885 -0.0728 0.4619
C10Q C -0.3652(3) -0.1383(5) 0.4116(5)
H6Q H -0.3855 -0.1681 0.4637
O2Q O -0.61770(23) -0.02008(27) 0.3367(2)
La1A La -0.351567(16) -0.333334(23) 0.1667
La1B La -0.666666(23) -0.018233(16) 0.1667
La1F La -0.315100(16) -0.315100(16) 0.5000
La1G La -0.684900(16) -0.000001(23) 0.5000
La1H La 0.000001(23) 0.315100(16) 0.5000
O1I O -0.0349(2) 0.23625(15) 0.1080(3)
O2I O -0.06905(15) 0.28436(23) 0.0033(2)
O2M O 0.06905(15) 0.35342(27) -0.0033(2)
O2P O 0.02008(27) 0.40239(15) 0.3367(2)
O3B O 0.0905(4) 0.3223(2) 0.2502(3)
O3K O -0.0110(2) 0.4238(4) 0.0831(3)
loop_
_geom_bond_atom_site_label_1
_geom_bond_atom_site_label_2
_geom_bond_site_symmetry_1
_geom_bond_site_symmetry_2
La1 O1 1_555 1_555
O1 C7 1_555 1_555
O2 La1 1_555 1_555
O3 C12 1_555 1_555
O4 La1 1_555 1_555
N1 C1 1_555 1_555
C1 C2 1_555 1_555
C2 H1 1_555 1_555
C3 C2 1_555 1_555
H2 C3 1_555 1_555
C4 C3 1_555 1_555
C5 C4 1_555 1_555
H3 C5 1_555 1_555
C6 C1 1_555 1_555
H4 C6 1_555 1_555
C7 O2 1_555 1_555
C8 N1 1_555 1_555
C9 C8 1_555 1_555
H5 C9 1_555 1_555
C10 C9 1_555 1_555
H6 C10 1_555 1_555
C11 C10 1_555 1_555
C12 C11 1_555 1_555
O1Q C7Q 1_555 1_555
C1Q N1 1_555 1_555
C2Q C1Q 1_555 1_555
H1Q C2Q 1_555 1_555
C3Q C2Q 1_555 1_555
H2Q C3Q 1_555 1_555
C4Q C3Q 1_555 1_555
C5Q C4Q 1_555 1_555
H3Q C5Q 1_555 1_555
C6Q C1Q 1_555 1_555
H4Q C6Q 1_555 1_555
C7Q C4Q 1_555 1_555
O3Q C12 1_555 1_555
C9Q C8 1_555 1_555
H5Q C9Q 1_555 1_555
C10Q C11 1_555 1_555
H6Q C10Q 1_555 1_555
O2Q C7Q 1_555 1_555
La1A O3 1_555 1_555
La1B O2Q 1_555 1_555
La1F O3Q 1_555 1_555
La1G O1Q 1_555 1_555
La1H O2 1_555 1_555
O1I La1 1_555 1_555
O2I La1 1_555 1_555
O2M La1 1_555 1_555
O2P La1 1_555 1_555
O3B La1 1_555 1_555
O3K La1 1_555 1_555
C4 C7 1_555 1_555
C5 C6 1_555 1_555
C5Q C6Q 1_555 1_555
C9Q C10Q 1_555 1_555
O2Q La1G 1_555 1_555
La1H O2P 1_555 1_555

#END
