
#######################################################################
#
#                 Cambridge Crystallographic Data Centre
#                                CCDC 
#
#######################################################################
#
# If this CIF has been generated from an entry in the Cambridge 
# Structural Database, then it will include bibliographic, chemical, 
# crystal, experimental, refinement or atomic coordinate data resulting 
# from the CCDC's data processing and validation procedures.
#
#######################################################################

data_LOFCUF
_chemical_formula_moiety         '(C48 H64 Mo5 N24 Ni2 O30 P2)n'
_symmetry_cell_setting           orthorhombic
_symmetry_space_group_name_H-M   'P 21 21 21'
_symmetry_Int_Tables_number      19
_space_group_name_Hall           'P 2ac 2ab'
loop_
_symmetry_equiv_pos_site_id
_symmetry_equiv_pos_as_xyz
1 x,y,z
2 1/2-x,-y,1/2+z
3 1/2+x,1/2-y,-z
4 -x,1/2+y,1/2-z
_cell_length_a                   18.658(5)
_cell_length_b                   20.089(5)
_cell_length_c                   21.137(5)
_cell_angle_alpha                90
_cell_angle_beta                 90
_cell_angle_gamma                90
_cell_volume                     7922.58
loop_
_atom_site_label
_atom_site_type_symbol
_atom_site_fract_x
_atom_site_fract_y
_atom_site_fract_z
Ni1 Ni 0.45082(10) -0.14384(8) 0.18906(9)
Ni2 Ni -0.21956(10) 0.00745(8) -0.01360(8)
P1 P 0.2677(2) -0.43250(17) 0.25501(18)
P2 P 0.4590(2) -0.37906(18) 0.27648(18)
Mo1 Mo 0.39045(7) -0.54809(6) 0.27533(6)
Mo2 Mo 0.36292(7) -0.44204(7) 0.39945(6)
Mo3 Mo 0.31260(7) -0.29288(6) 0.34157(6)
Mo4 Mo 0.33016(7) -0.29437(6) 0.18046(6)
Mo5 Mo 0.40811(7) -0.44097(6) 0.13798(6)
C1 C 0.3767(13) -0.0187(8) 0.2445(10)
H1 H 0.4185 0.0055 0.2382
C2 C 0.3060(11) -0.1003(8) 0.2503(8)
H2 H 0.2851 -0.1423 0.2499
C3 C 0.1935(13) -0.0195(12) 0.2627(12)
H3 H 0.1628 -0.0584 0.2593
H4 H 0.1827 0.0024 0.3025
C4 C 0.1780 0.0247 0.2121
C5 C 0.1321 0.0817 0.2256
H5 H 0.1290 0.1001 0.2659
C6 C 0.0906 0.1088 0.1714
H6 H 0.0649 0.1483 0.1754
C7 C 0.0911 0.0742 0.1150
C8 C 0.1385 0.0139 0.1056
H7 H 0.1399 -0.0079 0.0668
C9 C 0.1781 -0.0074 0.1538
H8 H 0.2067 -0.0449 0.1484
C10 C 0.0499(9) 0.1033(12) 0.0595(11)
H9 H 0.0513 0.1515 0.0613
H10 H 0.0716 0.0891 0.0200
C11 C -0.0640(8) 0.0467(7) 0.0192(8)
H11 H -0.0455 0.0280 -0.0175
C12 C -0.1322(8) 0.0784(8) 0.0922(8)
H12 H -0.1737 0.0862 0.1154
C13 C -0.6918(8) -0.3583(7) -0.0124(7)
H13 H -0.6780 -0.3498 0.0291
C14 C -0.7243(9) -0.4044(7) -0.0957(8)
H14 H -0.7377 -0.4377 -0.1239
C15 C -0.6858(10) -0.2398(7) -0.0486(10)
H15 H -0.7256 -0.2165 -0.0682
H16 H -0.6862 -0.2292 -0.0038
C16 C -0.6193(9) -0.2158(7) -0.0760(10)
C17 C -0.5642(12) -0.2004(10) -0.0349(9)
H17 H -0.5705 -0.2039 0.0086
C18 C -0.4970(11) -0.1787(10) -0.0608(9)
H18 H -0.4593 -0.1712 -0.0329
C19 C -0.4851(9) -0.1686(8) -0.1232(7)
C20 C -0.5372(11) -0.1885(9) -0.1625(9)
H19 H -0.5283 -0.1869 -0.2057
C21 C -0.6065(10) -0.2125(10) -0.1416(9)
H20 H -0.6414 -0.2253 -0.1706
C22 C -0.4190(8) -0.1429(9) -0.1486(9)
H21 H -0.4281 -0.1269 -0.1911
H22 H -0.3851 -0.1793 -0.1518
C23 C -0.3202(10) -0.0868(8) -0.0871(8)
H23 H -0.2867 -0.1212 -0.0866
C24 C -0.3737(11) 0.0033(9) -0.0796(8)
H24 H -0.3817 0.0476 -0.0690
C25 C 0.3469(9) -0.1089(8) 0.0825(7)
H25 H 0.3155 -0.1425 0.0946
C26 C 0.4332(9) -0.0468(12) 0.0766(10)
H26 H 0.4774 -0.0271 0.0846
C27 C 0.3934(12) 0.0296(16) -0.0080(12)
H27 H 0.3810 0.0152 -0.0504
H28 H 0.4419 0.0471 -0.0089
C28 C 0.3413(17) 0.0840(11) 0.0138(14)
C29 C 0.345(2) 0.1035(11) 0.074(2)
H29 H 0.3796 0.0856 0.1007
C30 C 0.298(3) 0.1505(16) 0.0942(15)
H30 H 0.3026 0.1603 0.1371
C31 C 0.2419(16) 0.1890(13) 0.0614(16)
C32 C 0.2448(15) 0.1619(13) -0.0030(15)
H31 H 0.2133 0.1799 -0.0325
C33 C 0.2890(13) 0.1130(15) -0.0234(11)
H32 H 0.2839 0.0980 -0.0648
C34 C 0.1901(13) 0.2391(9) 0.0763(13)
H33 H 0.1661 0.2281 0.1156
H34 H 0.1544 0.2417 0.0431
C35 C 0.2765(11) 0.3846(8) 0.1219(9)
H35 H 0.3006 0.4121 0.1501
C36 C 0.2422(11) 0.3487(9) 0.0363(9)
H36 H 0.2343 0.3418 -0.0066
C37 C 0.5820(8) -0.1724(8) 0.0993(8)
H37 H 0.5921 -0.1272 0.0960
C38 C 0.5320(9) -0.2582(8) 0.1295(8)
H38 H 0.5041 -0.2898 0.1502
C39 C 0.6062(9) -0.3392(7) 0.0581(8)
H39 H 0.6575 -0.3460 0.0626
H40 H 0.5820 -0.3737 0.0821
C40 C 0.5858(9) -0.3445(8) -0.0103(9)
C41 C 0.6333(10) -0.3227(10) -0.0570(10)
H41 H 0.6775 -0.3053 -0.0452
C42 C 0.6156(11) -0.3266(10) -0.1209(9)
H42 H 0.6484 -0.3122 -0.1511
C43 C 0.5496(11) -0.3518(10) -0.1403(10)
C44 C 0.4993(13) -0.3670(11) -0.0927(10)
H43 H 0.4525 -0.3780 -0.1037
C45 C 0.5196(12) -0.3657(9) -0.0279(11)
H44 H 0.4872 -0.3795 0.0028
C46 C 0.5396(15) -0.3648(14) -0.2086(10)
H45 H 0.5770 -0.3944 -0.2234
H46 H 0.5434 -0.3233 -0.2318
C47 C 0.3630(13) -0.4122(11) -0.2428(10)
H47 H 0.3144 -0.4048 -0.2497
C48 C 0.4547(11) -0.4632(10) -0.2178(8)
H48 H 0.4872 -0.4957 -0.2052
N1 N 0.3752(7) -0.0861(6) 0.2384(7)
N2 N 0.3221(13) 0.0075(11) 0.2584(12)
N3 N 0.2727(10) -0.0420(11) 0.2628(7)
N4 N -0.1316(6) 0.0450(6) 0.0365(6)
N5 N -0.0713(9) 0.0978(8) 0.1096(8)
N6 N -0.0262(7) 0.0796(7) 0.0627(7)
N7 N -0.7086(6) -0.4169(6) -0.0348(5)
N8 N -0.7192(7) -0.3396(6) -0.1130(6)
N9 N -0.6971(7) -0.3137(6) -0.0565(7)
N10 N -0.3111(6) -0.0263(6) -0.0620(5)
N11 N -0.4227(8) -0.0295(8) -0.1110(7)
N12 N -0.3856(8) -0.0897(8) -0.1129(6)
N13 N 0.4087(7) -0.1007(7) 0.1084(6)
N14 N 0.3309(9) -0.0643(8) 0.0356(7)
N15 N 0.3898(8) -0.0258(7) 0.0345(7)
N16 N 0.2685(7) 0.4020(5) 0.0593(6)
N17 N 0.2270(9) 0.3029(8) 0.0825(8)
N18 N 0.2489(10) 0.3283(7) 0.1399(8)
N19 N 0.5282(7) -0.1950(6) 0.1364(6)
N20 N 0.6195(8) -0.2171(7) 0.0681(7)
N21 N 0.5860(7) -0.2713(6) 0.0846(6)
N22 N 0.4094(13) -0.3657(10) -0.2397(10)
N23 N 0.3915(9) -0.4725(7) -0.2350(8)
H49 H 0.3706 -0.5101 -0.2406
N24 N 0.4672(12) -0.3959(12) -0.2210(9)
O1 O 0.4778(5) -0.5679(4) 0.2942(4)
O2 O 0.3557(6) -0.6242(4) 0.2633(6)
O3 O 0.4069(6) -0.5125(5) 0.1917(5)
O4 O 0.3584(7) -0.5263(5) 0.3570(5)
O5 O 0.4245(6) -0.4369(5) 0.3094(5)
O6 O 0.2853(5) -0.5053(4) 0.2557(5)
O7 O 0.4309(6) -0.4557(5) 0.4494(5)
O8 O 0.2894(6) -0.4553(4) 0.4442(4)
O9 O 0.3659(5) -0.3461(5) 0.3988(4)
O10 O 0.2871(5) -0.4008(4) 0.3192(4)
O11 O 0.2338(5) -0.2863(5) 0.3810(5)
O12 O 0.3521(6) -0.2175(4) 0.3547(5)
O13 O 0.2767(5) -0.2808(4) 0.2560(4)
O14 O 0.4074(5) -0.3196(4) 0.2729(4)
O15 O 0.2654(5) -0.2820(4) 0.1271(4)
O16 O 0.3802(5) -0.2221(4) 0.1780(5)
O17 O 0.3937(5) -0.3466(4) 0.1291(4)
O18 O 0.3443(5) -0.4680(4) 0.0859(4)
O19 O 0.4838(5) -0.4545(5) 0.0977(5)
O20 O 0.4807(6) -0.4010(5) 0.2097(5)
O21 O 0.3103(6) -0.3991(4) 0.2010(4)
O22 O 0.1868(5) -0.4246(4) 0.2431(5)
O23 O 0.5265(6) -0.3596(6) 0.3110(6)
O24 O 0.4863(6) -0.1901(5) 0.2711(5)
Ni1C Ni 0.54918(10) -0.64384(8) 0.31094(9)
Ni2B Ni 0.28044(10) -0.50745(8) 0.01360(8)
Ni2B_2 Ni 0.28044(10) 0.49255(8) 0.01360(8)
Ni2B_3 Ni -0.71956(10) -0.50745(8) 0.01360(8)
Ni2C Ni 0.21956(10) -0.49255(8) 0.51360(8)
N7B N -0.2086(6) -0.0831(6) 0.0348(5)
N16B N -0.2315(7) 0.0980(5) -0.0593(6)
O1C O 0.5222(5) -0.0679(4) 0.2058(4)
O8C O -0.2894(6) 0.0447(4) 0.0558(4)
O18B O -0.1557(5) -0.0320(4) -0.0859(4)
O25 O 0.9527(13) -0.5459(18) 0.1503(12)
O26 O 0.2523(8) -0.7406(6) 0.2662(7)
O27 O 0.6133(10) -0.2652(7) 0.2723(11)
O28 O 0.5001(12) -0.1179(9) 0.3751(8)
O29 O 0.2391(12) -0.0467(12) 0.9239(9)
O30 O 0.088(2) -0.2829(12) 0.2958(12)
loop_
_geom_bond_atom_site_label_1
_geom_bond_atom_site_label_2
_geom_bond_site_symmetry_1
_geom_bond_site_symmetry_2
Ni1 N1 1_555 1_555
Ni2 N4 1_555 1_555
P1 O6 1_555 1_555
P2 O5 1_555 1_555
Mo1 O1 1_555 1_555
Mo2 O4 1_555 1_555
Mo3 O9 1_555 1_555
Mo4 O13 1_555 1_555
Mo5 O3 1_555 1_555
C1 H1 1_555 1_555
C2 H2 1_555 1_555
C3 H3 1_555 1_555
H4 C3 1_555 1_555
C4 C3 1_555 1_555
C5 C4 1_555 1_555
H5 C5 1_555 1_555
C6 C5 1_555 1_555
H6 C6 1_555 1_555
C7 C6 1_555 1_555
C8 C7 1_555 1_555
H7 C8 1_555 1_555
C9 C4 1_555 1_555
H8 C9 1_555 1_555
C10 C7 1_555 1_555
H9 C10 1_555 1_555
H10 C10 1_555 1_555
C11 H11 1_555 1_555
C12 H12 1_555 1_555
C13 H13 1_555 1_555
C14 H14 1_555 1_555
C15 H15 1_555 1_555
H16 C15 1_555 1_555
C16 C15 1_555 1_555
C17 C16 1_555 1_555
H17 C17 1_555 1_555
C18 C17 1_555 1_555
H18 C18 1_555 1_555
C19 C18 1_555 1_555
C20 C19 1_555 1_555
H19 C20 1_555 1_555
C21 C16 1_555 1_555
H20 C21 1_555 1_555
C22 C19 1_555 1_555
H21 C22 1_555 1_555
H22 C22 1_555 1_555
C23 H23 1_555 1_555
C24 H24 1_555 1_555
C25 H25 1_555 1_555
C26 H26 1_555 1_555
C27 H27 1_555 1_555
H28 C27 1_555 1_555
C28 C27 1_555 1_555
C29 C28 1_555 1_555
H29 C29 1_555 1_555
C30 C29 1_555 1_555
H30 C30 1_555 1_555
C31 C30 1_555 1_555
C32 C31 1_555 1_555
H31 C32 1_555 1_555
C33 C28 1_555 1_555
H32 C33 1_555 1_555
C34 C31 1_555 1_555
H33 C34 1_555 1_555
H34 C34 1_555 1_555
C35 H35 1_555 1_555
C36 H36 1_555 1_555
C37 H37 1_555 1_555
C38 H38 1_555 1_555
C39 H39 1_555 1_555
H40 C39 1_555 1_555
C40 C39 1_555 1_555
C41 C40 1_555 1_555
H41 C41 1_555 1_555
C42 C41 1_555 1_555
H42 C42 1_555 1_555
C43 C42 1_555 1_555
C44 C43 1_555 1_555
H43 C44 1_555 1_555
C45 C40 1_555 1_555
H44 C45 1_555 1_555
C46 C43 1_555 1_555
H45 C46 1_555 1_555
H46 C46 1_555 1_555
C47 H47 1_555 1_555
C48 H48 1_555 1_555
N1 C1 1_555 1_555
N2 C1 1_555 1_555
N3 C2 1_555 1_555
N4 C11 1_555 1_555
N5 C12 1_555 1_555
N6 C10 1_555 1_555
N7 C13 1_555 1_555
N8 C14 1_555 1_555
N9 C13 1_555 1_555
N10 Ni2 1_555 1_555
N11 C24 1_555 1_555
N12 C22 1_555 1_555
N13 Ni1 1_555 1_555
N14 C25 1_555 1_555
N15 C26 1_555 1_555
N16 C35 1_555 1_555
N17 C34 1_555 1_555
N18 C35 1_555 1_555
N19 Ni1 1_555 1_555
N20 C37 1_555 1_555
N21 C38 1_555 1_555
N22 C47 1_555 1_555
N23 C47 1_555 1_555
H49 N23 1_555 1_555
N24 C46 1_555 1_555
O1 Ni1C 1_555 1_555
O2 Mo1 1_555 1_555
O3 Mo1 1_555 1_555
O4 Mo1 1_555 1_555
O5 Mo1 1_555 1_555
O6 Mo1 1_555 1_555
O7 Mo2 1_555 1_555
O8 Mo2 1_555 1_555
O9 Mo2 1_555 1_555
O10 P1 1_555 1_555
O11 Mo3 1_555 1_555
O12 Mo3 1_555 1_555
O13 Mo3 1_555 1_555
O14 P2 1_555 1_555
O15 Mo4 1_555 1_555
O16 Ni1 1_555 1_555
O17 Mo4 1_555 1_555
O18 Mo5 1_555 1_555
O19 Mo5 1_555 1_555
O20 P2 1_555 1_555
O21 P1 1_555 1_555
O22 P1 1_555 1_555
O23 P2 1_555 1_555
O24 Ni1 1_555 1_555
Ni2B O18 1_555 1_555
Ni2B_2 N16 1_555 1_555
Ni2B_3 N7 1_555 1_555
Ni2C O8 1_555 1_555
N7B Ni2 1_555 1_555
N16B Ni2 1_555 1_555
O1C Ni1 1_555 1_555
O8C Ni2 1_555 1_555
O18B Ni2 1_555 1_555
Mo2 O5 1_555 1_555
Mo2 O10 1_555 1_555
Mo3 O10 1_555 1_555
Mo3 O14 1_555 1_555
Mo4 O14 1_555 1_555
Mo4 O16 1_555 1_555
Mo4 O21 1_555 1_555
Mo5 O17 1_555 1_555
Mo5 O20 1_555 1_555
Mo5 O21 1_555 1_555
C2 N1 1_555 1_555
C3 N3 1_555 1_555
C8 C9 1_555 1_555
C11 N6 1_555 1_555
C12 N4 1_555 1_555
C14 N7 1_555 1_555
C15 N9 1_555 1_555
C20 C21 1_555 1_555
C23 N10 1_555 1_555
C23 N12 1_555 1_555
C24 N10 1_555 1_555
C25 N13 1_555 1_555
C26 N13 1_555 1_555
C27 N15 1_555 1_555
C32 C33 1_555 1_555
C36 N16 1_555 1_555
C36 N17 1_555 1_555
C37 N19 1_555 1_555
C38 N19 1_555 1_555
C39 N21 1_555 1_555
C44 C45 1_555 1_555
C48 N23 1_555 1_555
C48 N24 1_555 1_555
N2 N3 1_555 1_555
N5 N6 1_555 1_555
N8 N9 1_555 1_555
N11 N12 1_555 1_555
N14 N15 1_555 1_555
N17 N18 1_555 1_555
N20 N21 1_555 1_555
N22 N24 1_555 1_555

#END
