
#######################################################################
#
#                 Cambridge Crystallographic Data Centre
#                                CCDC 
#
#######################################################################
#
# If this CIF has been generated from an entry in the Cambridge 
# Structural Database, then it will include bibliographic, chemical, 
# crystal, experimental, refinement or atomic coordinate data resulting 
# from the CCDC's data processing and validation procedures.
#
#######################################################################

data_APUVIS
_chemical_formula_moiety         '(C12 H19 Br1 N2 O3 Zn1)n'
_symmetry_cell_setting           hexagonal
_symmetry_space_group_name_H-M   'P 61'
_symmetry_Int_Tables_number      169
_space_group_name_Hall           'P 61'
loop_
_symmetry_equiv_pos_site_id
_symmetry_equiv_pos_as_xyz
1 x,y,z
2 x-y,x,1/6+z
3 -y,x-y,1/3+z
4 -x,-y,1/2+z
5 -x+y,-x,2/3+z
6 y,-x+y,5/6+z
_cell_length_a                   15.9539(6)
_cell_length_b                   15.9539(6)
_cell_length_c                   14.7843(5)
_cell_angle_alpha                90
_cell_angle_beta                 90
_cell_angle_gamma                120
_cell_volume                     3258.86
loop_
_atom_site_label
_atom_site_type_symbol
_atom_site_fract_x
_atom_site_fract_y
_atom_site_fract_z
_atom_site_U_iso_or_equiv
_atom_site_thermal_displace_type
Zn1 Zn 0.38554(5) 0.75206(5) 0.51490(5) 0.0387 Uani
Br1 Br 0.52477(5) 0.73356(7) 0.52064(6) 0.0672 Uani
N1 N 0.2429(3) 0.6376(4) 0.4866(4) 0.0370 Uani
O1 O 0.3288(3) 0.6927(3) 0.6475(3) 0.0468 Uani
C1 C 0.2127(5) 0.5629(5) 0.5572(4) 0.0453 Uani
H1 H 0.1420 0.5227 0.5580 0.0550 Uiso
C2 C 0.2583(6) 0.5000(5) 0.5420(5) 0.0540 Uani
H2 H 0.2428 0.4570 0.5934 0.0650 Uiso
H3 H 0.3281 0.5417 0.5408 0.0650 Uiso
C3 C 0.2276(6) 0.4383(6) 0.4552(6) 0.0748 Uani
H4 H 0.2368 0.4819 0.4048 0.0900 Uiso
C4 C 0.2489(4) 0.6170(4) 0.6478(4) 0.0387 Uani
C5 C 0.1759(4) 0.6760(5) 0.4785(5) 0.0457 Uani
H5 H 0.2027 0.7291 0.4356 0.0550 Uiso
H6 H 0.1719 0.7019 0.5367 0.0550 Uiso
C6 C 0.2899(9) 0.3963(8) 0.4374(9) 0.1163 Uani
H7 H 0.2688 0.3583 0.3830 0.1750 Uiso
H8 H 0.2857 0.3558 0.4872 0.1750 Uiso
H9 H 0.3557 0.4473 0.4303 0.1750 Uiso
C7 C 0.1199(8) 0.3619(8) 0.4575(8) 0.1144 Uani
H10 H 0.1028 0.3244 0.4029 0.1720 Uiso
H11 H 0.0822 0.3934 0.4625 0.1720 Uiso
H12 H 0.1072 0.3201 0.5086 0.1720 Uiso
O2 O 0.1982(3) 0.5772(3) 0.7167(3) 0.0450 Uani
C8 C 0.0751(5) 0.6025(5) 0.4487(4) 0.0453 Uani
C9 C -0.0046(4) 0.5845(5) 0.4975(4) 0.0507 Uani
H13 H 0.0028 0.6179 0.5512 0.0610 Uiso
C10 C 0.0582(4) 0.5493(5) 0.3696(5) 0.0540 Uani
H14 H 0.1097 0.5572 0.3340 0.0650 Uiso
C11 C -0.0335(5) 0.4862(5) 0.3448(5) 0.0561 Uani
H15 H -0.0431 0.4523 0.2911 0.0680 Uiso
C12 C -0.0944(5) 0.5188(5) 0.4689(5) 0.0526 Uani
H16 H -0.1469 0.5077 0.5047 0.0620 Uiso
N2 N -0.1116(4) 0.4691(4) 0.3925(3) 0.0441 Uani
H17 H 0.244(5) 0.612(4) 0.435(3) 0.0530 Uiso
Zn1B Zn 0.24794(5) 0.63348(7) 0.84823(5) 0.0387 Uani
Zn1E Zn -0.24794(5) 0.36652(7) 0.34823(5) 0.0387 Uani
O2D O 0.3790(4) 0.8018(3) 0.3834(3) 0.0450 Uani
N2A N 0.4193(6) 0.8884(4) 0.5592(3) 0.0441 Uani
O3 O 0.7602(16) 0.6516(19) 0.5167(13) 0.3893 Uani
loop_
_atom_site_aniso_label
_atom_site_aniso_U_11
_atom_site_aniso_U_22
_atom_site_aniso_U_33
_atom_site_aniso_U_23
_atom_site_aniso_U_13
_atom_site_aniso_U_12
Zn1 0.0441(4) 0.0434(4) 0.0212(3) -0.0019(3) -0.0019(3) 0.0164(3)
Br1 0.0635(5) 0.1050(6) 0.0437(4) -0.0067(5) -0.0062(4) 0.0500(5)
N1 0.041(3) 0.046(3) 0.019(3) -0.005(2) -0.010(2) 0.018(2)
O1 0.051(2) 0.051(2) 0.019(2) -0.005(2) -0.002(2) 0.011(2)
C1 0.056(3) 0.055(3) 0.020(3) 0.000(3) -0.004(3) 0.024(3)
C2 0.075(4) 0.053(3) 0.038(4) -0.001(3) 0.003(3) 0.035(3)
C3 0.105(5) 0.067(4) 0.051(4) -0.011(4) 0.009(4) 0.042(4)
C4 0.048(3) 0.049(3) 0.024(3) 0.000(3) -0.003(3) 0.028(3)
C5 0.052(3) 0.056(3) 0.025(3) -0.005(3) -0.007(3) 0.024(2)
C6 0.140(7) 0.106(6) 0.105(7) -0.031(6) 0.016(6) 0.063(6)
C7 0.132(7) 0.085(6) 0.090(7) -0.033(5) -0.007(6) 0.027(5)
O2 0.047(2) 0.064(3) 0.019(2) 0.000(2) 0.004(2) 0.024(2)
C8 0.048(3) 0.066(3) 0.024(3) -0.003(3) -0.005(2) 0.030(2)
C9 0.048(3) 0.071(3) 0.028(3) -0.017(3) -0.006(3) 0.026(2)
C10 0.038(3) 0.083(3) 0.030(3) -0.011(3) 0.000(3) 0.022(3)
C11 0.048(3) 0.081(4) 0.027(3) -0.015(3) -0.006(3) 0.023(3)
C12 0.047(3) 0.075(3) 0.031(3) -0.008(3) 0.002(3) 0.027(3)
N2 0.040(3) 0.072(4) 0.019(3) -0.007(3) -0.002(2) 0.027(3)
Zn1B 0.0434 0.0547 0.0212 0 0.0019 0.027
Zn1E 0.0434 0.0547 0.0212 0 -0.0019 0.027
O2D 0.063 0.047 0.019 -0.004 -0.004 0.023
N2A 0.058 0.04 0.019 -0.002 0.005 0.013
O3 0.48(3) 0.60(4) 0.168(15) 0.07(2) -0.071(17) 0.33(3)
loop_
_geom_bond_atom_site_label_1
_geom_bond_atom_site_label_2
_geom_bond_site_symmetry_1
_geom_bond_site_symmetry_2
Zn1 Br1 1_555 1_555
N1 Zn1 1_555 1_555
O1 Zn1 1_555 1_555
C1 N1 1_555 1_555
H1 C1 1_555 1_555
C2 C1 1_555 1_555
H2 C2 1_555 1_555
H3 C2 1_555 1_555
C3 C2 1_555 1_555
H4 C3 1_555 1_555
C4 O1 1_555 1_555
C5 N1 1_555 1_555
H5 C5 1_555 1_555
H6 C5 1_555 1_555
C6 C3 1_555 1_555
H7 C6 1_555 1_555
H8 C6 1_555 1_555
H9 C6 1_555 1_555
C7 C3 1_555 1_555
H10 C7 1_555 1_555
H11 C7 1_555 1_555
H12 C7 1_555 1_555
O2 C4 1_555 1_555
C8 C5 1_555 1_555
C9 C8 1_555 1_555
H13 C9 1_555 1_555
C10 C8 1_555 1_555
H14 C10 1_555 1_555
C11 C10 1_555 1_555
H15 C11 1_555 1_555
C12 C9 1_555 1_555
H16 C12 1_555 1_555
N2 C11 1_555 1_555
H17 N1 1_555 1_555
Zn1B O2 1_555 1_555
Zn1E N2 1_555 1_555
O2D Zn1 1_555 1_555
N2A Zn1 1_555 1_555
C1 C4 1_555 1_555
C12 N2 1_555 1_555

#END
