
#######################################################################
#
#                 Cambridge Crystallographic Data Centre
#                                CCDC 
#
#######################################################################
#
# If this CIF has been generated from an entry in the Cambridge 
# Structural Database, then it will include bibliographic, chemical, 
# crystal, experimental, refinement or atomic coordinate data resulting 
# from the CCDC's data processing and validation procedures.
#
#######################################################################

data_IRUVUO
_chemical_formula_moiety         '(C80 H84 N7 O22 Zn2 1+)n'
_symmetry_cell_setting           orthorhombic
_symmetry_space_group_name_H-M   'P b c a'
_symmetry_Int_Tables_number      61
_space_group_name_Hall           '-P 2ac 2ab'
loop_
_symmetry_equiv_pos_site_id
_symmetry_equiv_pos_as_xyz
1 x,y,z
2 1/2-x,-y,1/2+z
3 -x,1/2+y,1/2-z
4 1/2+x,1/2-y,-z
5 -x,-y,-z
6 1/2+x,y,1/2-z
7 x,1/2-y,1/2+z
8 1/2-x,1/2+y,z
_cell_length_a                   37.270(8)
_cell_length_b                   10.733(3)
_cell_length_c                   38.171(9)
_cell_angle_alpha                90
_cell_angle_beta                 90
_cell_angle_gamma                90
_cell_volume                     15269.1
loop_
_atom_site_label
_atom_site_type_symbol
_atom_site_fract_x
_atom_site_fract_y
_atom_site_fract_z
_atom_site_U_iso_or_equiv
_atom_site_thermal_displace_type
N5 N 0.7468 0.9075 0.4295 0.3650 Uiso
H61 H 0.7402 0.9502 0.4491 0.4380 Uiso
H62 H 0.7367 0.9470 0.4109 0.4380 Uiso
C75 C 0.7309 0.7806 0.4317 0.3650 Uiso
H63 H 0.7437 0.7320 0.4495 0.5480 Uiso
H64 H 0.7331 0.7391 0.4090 0.5480 Uiso
H65 H 0.7055 0.7871 0.4382 0.5480 Uiso
C76 C 0.7872 0.9178 0.4260 0.3900 Uiso
H66 H 0.7983 0.8376 0.4318 0.5920 Uiso
H67 H 0.7962 0.9821 0.4420 0.5920 Uiso
H68 H 0.7933 0.9403 0.4018 0.5920 Uiso
N6 N 0.2531(6) 0.675(2) 0.2788(6) 0.1800 Uiso
H69 H 0.2563 0.6924 0.2556 0.2160 Uiso
H70 H 0.2611 0.5958 0.2815 0.2160 Uiso
C77 C 0.2133(6) 0.661(3) 0.2818(8) 0.2240 Uiso
H71 H 0.2020 0.7435 0.2804 0.3360 Uiso
H72 H 0.2074 0.6223 0.3043 0.3360 Uiso
H73 H 0.2045 0.6088 0.2626 0.3360 Uiso
C78 C 0.2820(6) 0.751(3) 0.2959(7) 0.1750 Uiso
H74 H 0.3022 0.7602 0.2797 0.2630 Uiso
H75 H 0.2901 0.7084 0.3172 0.2630 Uiso
H76 H 0.2725 0.8332 0.3020 0.2630 Uiso
N7 N 0.3444(15) 1.181(4) 0.4054(15) 0.1300 Uiso
H77 H 0.3669 1.1583 0.3985 0.1540 Uiso
H78 H 0.3469 1.2338 0.4238 0.1540 Uiso
C79 C 0.3258(15) 1.066(5) 0.4185(15) 0.0520 Uiso
H79 H 0.3269 0.9988 0.4010 0.0770 Uiso
H80 H 0.3366 1.0361 0.4404 0.0770 Uiso
H81 H 0.2996 1.0814 0.4235 0.0770 Uiso
C80 C 0.327(2) 1.252(8) 0.3759(18) 0.1800 Uiso
H82 H 0.3440 1.3237 0.3706 0.2690 Uiso
H83 H 0.3319 1.1942 0.3535 0.2690 Uiso
H84 H 0.3044 1.2711 0.3775 0.2690 Uiso
Zn1 Zn 0.26983(4) 0.41304(18) 0.18688(5) 0.0862 Uani
Zn2 Zn 0.76594(6) 1.0310(3) 0.52370(8) 0.1160 Uani
O1 O 0.3110(2) 0.3855(9) 0.2157(2) 0.1047 Uani
O2 O 0.3056(5) 0.566(2) 0.2367(6) 0.0983 Uani
O3 O 0.7226(3) 0.3581(13) 0.2811(4) 0.1703 Uani
O4 O 0.7210(3) 0.5394(19) 0.3005(5) 0.2247 Uani
O5 O 0.3036(3) 1.2384(15) 0.4912(4) 0.1913 Uani
O6 O 0.3066(3) 1.4334(14) 0.5075(4) 0.1580 Uani
O7 O 0.7174(3) 1.0707(11) 0.4737(4) 0.1380 Uani
O8 O 0.7182(3) 1.0994(10) 0.5295(3) 0.1377 Uani
O9 O 0.2797(2) 0.5265(9) 0.1463(3) 0.0963 Uani
O10 O 0.2995(2) 0.7117(9) 0.1379(3) 0.1063 Uani
O11 O 0.43167(18) 0.6572(7) 0.1611(2) 0.0760 Uani
O12 O 0.5275(2) 0.6767(9) 0.1653(2) 0.1020 Uani
O13 O 0.5953(5) 0.5506(18) 0.1693(4) 0.1323 Uani
O14 O 0.6139(2) 0.3047(10) 0.1609(3) 0.1023 Uani
O15 O 0.7213(6) 0.154(2) 0.0873(10) 0.1900 Uani
O16 O 0.7025(3) -0.036(2) 0.0678(5) 0.1417 Uani
O17 O 0.5745(2) -0.0536(9) 0.0944(2) 0.0950 Uani
O18 O 0.4803(2) -0.0685(7) 0.1044(2) 0.0773 Uani
O19 O 0.4075(5) 0.0232(19) 0.1226(5) 0.0707 Uani
O20 O 0.3937(9) 0.283(3) 0.1146(9) 0.0850 Uani
O21 O 0.26818(17) 0.2502(8) 0.1618(2) 0.0893 Uani
H1 H 0.2792 0.1922 0.1742 0.1340 Uiso
H2 H 0.2786 0.2562 0.1409 0.1340 Uiso
N1 N 0.47792(19) 0.6275(7) 0.31257(18) 0.0363 Uani
H3 H 0.4553 0.6498 0.3142 0.0440 Uiso
N2 N 0.53706(19) 0.6126(8) 0.3226(2) 0.0437 Uani
N3 N 0.4756(2) 1.0946(7) 0.4548(2) 0.0477 Uani
H4 H 0.4530 1.0902 0.4481 0.0580 Uiso
N4 N 0.5336(2) 1.0551(8) 0.4572(2) 0.0497 Uani
C1 C 0.3219(11) 0.476(4) 0.2315(7) 0.0687 Uani
C2 C 0.4349(3) 0.4667(14) 0.2588(4) 0.0513 Uani
C3 C 0.4142(4) 0.5679(12) 0.2691(4) 0.0480 Uani
H5 H 0.4252 0.6364 0.2808 0.0580 Uiso
C4 C 0.3776(4) 0.5688(12) 0.2625(4) 0.0550 Uani
H6 H 0.3634 0.6380 0.2696 0.0660 Uiso
C5 C 0.3616(3) 0.4686(14) 0.2455(4) 0.0520 Uani
C6 C 0.3823(4) 0.3674(12) 0.2352(4) 0.0523 Uani
H7 H 0.3714 0.2989 0.2236 0.0630 Uiso
C7 C 0.4190(4) 0.3665(12) 0.2418(4) 0.0537 Uani
H8 H 0.4331 0.2973 0.2347 0.0640 Uiso
C8 C 0.4753(2) 0.4711(9) 0.2632(3) 0.0417 Uani
C9 C 0.4923(2) 0.5441(9) 0.2886(2) 0.0363 Uani
C10 C 0.5289(2) 0.5355(10) 0.2945(3) 0.0427 Uani
C11 C 0.5517(2) 0.4605(10) 0.2738(2) 0.0443 Uani
C12 C 0.5348(3) 0.3908(10) 0.2488(3) 0.0590 Uani
H9 H 0.5487 0.3382 0.2341 0.0710 Uiso
C13 C 0.4966(3) 0.3953(10) 0.2443(3) 0.0500 Uani
H10 H 0.4859 0.3426 0.2272 0.0600 Uiso
C14 C 0.5914(3) 0.4563(12) 0.2785(3) 0.0627 Uani
C15 C 0.6106(3) 0.5684(13) 0.2842(3) 0.0813 Uani
H11 H 0.5984 0.6458 0.2858 0.0970 Uiso
C16 C 0.6480(3) 0.5629(15) 0.2875(3) 0.0920 Uani
H12 H 0.6610 0.6375 0.2917 0.1100 Uiso
C17 C 0.6661(3) 0.4532(16) 0.2848(3) 0.0947 Uani
C18 C 0.6484(3) 0.3439(14) 0.2800(3) 0.0913 Uani
H13 H 0.6612 0.2673 0.2799 0.1090 Uiso
C19 C 0.6099(3) 0.3449(13) 0.2749(3) 0.0847 Uani
H14 H 0.5975 0.2703 0.2693 0.1010 Uiso
C20 C 0.7090(4) 0.446(2) 0.2934(4) 0.1137 Uani
C21 C 0.5044(3) 0.6667(9) 0.3324(2) 0.0450 Uani
C22 C 0.5027(2) 0.7524(9) 0.3619(2) 0.0397 Uani
C23 C 0.4758(3) 0.8399(10) 0.3634(3) 0.0477 Uani
H15 H 0.4583 0.8409 0.3454 0.0570 Uiso
C24 C 0.4734(3) 0.9261(9) 0.3899(3) 0.0453 Uani
H16 H 0.4539 0.9833 0.3906 0.0550 Uiso
C25 C 0.5000(3) 0.9279(9) 0.4156(3) 0.0460 Uani
C26 C 0.5267(2) 0.8386(10) 0.4146(2) 0.0467 Uani
H17 H 0.5445 0.8367 0.4324 0.0560 Uiso
C27 C 0.5277(2) 0.7514(9) 0.3877(2) 0.0417 Uani
H18 H 0.5462 0.6905 0.3873 0.0500 Uiso
C28 C 0.5030(3) 1.0258(9) 0.4428(2) 0.0420 Uani
C29 C 0.3220(5) 1.331(2) 0.5023(5) 0.1363 Uani
C30 C 0.3603(3) 1.3204(14) 0.5049(3) 0.0730 Uani
C31 C 0.3829(3) 1.4171(12) 0.5046(3) 0.0703 Uani
H19 H 0.3732 1.4988 0.5057 0.0850 Uiso
C32 C 0.4189(3) 1.4047(11) 0.5028(3) 0.0633 Uani
H20 H 0.4338 1.4764 0.5016 0.0760 Uiso
C33 C 0.4341(3) 1.2868(10) 0.5028(2) 0.0513 Uani
C34 C 0.4109(3) 1.1866(11) 0.5040(2) 0.0623 Uani
H21 H 0.4204 1.1045 0.5040 0.0750 Uiso
C35 C 0.3752(3) 1.2025(12) 0.5051(3) 0.0703 Uani
H22 H 0.3600 1.1317 0.5061 0.0850 Uiso
C36 C 0.4739(3) 1.2650(10) 0.5010(3) 0.0540 Uani
C37 C 0.4979(3) 1.3341(10) 0.5217(3) 0.0563 Uani
H23 H 0.4889 1.3998 0.5359 0.0680 Uiso
C38 C 0.5339(3) 1.3093(11) 0.5219(3) 0.0620 Uani
H24 H 0.5488 1.3572 0.5370 0.0740 Uiso
C39 C 0.5498(3) 1.2189(10) 0.5016(3) 0.0517 Uani
C40 C 0.5265(3) 1.1505(10) 0.4803(3) 0.0457 Uani
C41 C 0.4898(3) 1.1748(10) 0.4801(3) 0.0470 Uani
C42 C 0.5897(3) 1.1932(10) 0.5013(3) 0.0630 Uani
C43 C 0.6088(3) 1.2007(12) 0.5327(4) 0.0883 Uani
H25 H 0.5974 1.2205 0.5542 0.1060 Uiso
C44 C 0.6472(3) 1.1767(12) 0.5306(4) 0.0937 Uani
H26 H 0.6615 1.1868 0.5511 0.1120 Uiso
C45 C 0.6635(3) 1.1399(13) 0.5000(4) 0.0873 Uani
C46 C 0.6427(3) 1.1277(12) 0.4708(4) 0.0857 Uani
H27 H 0.6534 1.0976 0.4498 0.1030 Uiso
C47 C 0.6066(3) 1.1576(10) 0.4707(3) 0.0673 Uani
H28 H 0.5934 1.1536 0.4494 0.0810 Uiso
C48 C 0.7007(4) 1.1041(15) 0.5006(5) 0.1063 Uani
C49 C 0.3049(3) 0.6020(15) 0.1414(4) 0.0830 Uani
C50 C 0.3422(3) 0.5503(12) 0.1418(3) 0.0747 Uani
C51 C 0.3706(3) 0.6279(11) 0.1505(3) 0.0727 Uani
H29 H 0.3666 0.7129 0.1563 0.0870 Uiso
C52 C 0.4049(3) 0.5785(12) 0.1505(3) 0.0767 Uani
C53 C 0.4101(3) 0.4522(13) 0.1435(4) 0.1210 Uani
H30 H 0.4336 0.4183 0.1439 0.1450 Uiso
C54 C 0.3814(3) 0.3768(14) 0.1362(4) 0.1050 Uani
C55 C 0.3470(3) 0.4236(12) 0.1349(3) 0.0840 Uani
H31 H 0.3272 0.3714 0.1294 0.1000 Uiso
C56 C 0.4675(3) 0.6117(13) 0.1590(4) 0.0883 Uani
H32 H 0.4732 0.5902 0.1344 0.1060 Uiso
H33 H 0.4698 0.5353 0.1734 0.1060 Uiso
C57 C 0.4926(3) 0.7070(14) 0.1717(4) 0.0953 Uani
H34 H 0.4870 0.7874 0.1602 0.1150 Uiso
H35 H 0.4892 0.7181 0.1973 0.1150 Uiso
C58 C 0.5499(6) 0.676(2) 0.1897(5) 0.1200 Uani
H36 H 0.5396 0.6183 0.2074 0.1440 Uiso
H37 H 0.5484 0.7599 0.2002 0.1440 Uiso
C59 C 0.5847(5) 0.650(2) 0.1896(5) 0.1203 Uani
H38 H 0.5923 0.6332 0.2140 0.1450 Uiso
H39 H 0.5978 0.7245 0.1815 0.1450 Uiso
C60 C 0.6222(5) 0.5027(18) 0.1816(5) 0.1330 Uani
H40 H 0.6163 0.4799 0.2061 0.1600 Uiso
H41 H 0.6406 0.5690 0.1829 0.1600 Uiso
C61 C 0.6377(4) 0.4061(17) 0.1678(5) 0.1263 Uani
H42 H 0.6569 0.3771 0.1837 0.1510 Uiso
H43 H 0.6492 0.4315 0.1455 0.1510 Uiso
C62 C 0.6261(4) 0.2097(15) 0.1392(4) 0.0957 Uani
C63 C 0.6556(4) 0.1899(18) 0.1234(4) 0.1213 Uani
H44 H 0.6744 0.2485 0.1270 0.1460 Uiso
C64 C 0.6629(4) 0.0901(18) 0.1013(4) 0.1177 Uani
C65 C 0.6345(3) 0.0047(17) 0.0911(4) 0.1160 Uani
H45 H 0.6385 -0.0614 0.0749 0.1390 Uiso
C66 C 0.6023(4) 0.0251(15) 0.1058(3) 0.0887 Uani
C67 C 0.5967(4) 0.1222(14) 0.1301(3) 0.0953 Uani
H46 H 0.5738 0.1318 0.1407 0.1140 Uiso
C68 C 0.6984(7) 0.065(3) 0.0841(9) 0.1393 Uani
C69 C 0.5404(3) -0.0202(12) 0.1068(3) 0.0783 Uani
H47 H 0.5355 0.0684 0.1015 0.0940 Uiso
H48 H 0.5392 -0.0318 0.1325 0.0940 Uiso
C70 C 0.5134(3) -0.1005(11) 0.0894(3) 0.0747 Uani
H49 H 0.5132 -0.0850 0.0638 0.0890 Uiso
H50 H 0.5189 -0.1896 0.0935 0.0890 Uiso
C71 C 0.4511(3) -0.1246(11) 0.0878(4) 0.0890 Uani
H51 H 0.4555 -0.2150 0.0848 0.1070 Uiso
H52 H 0.4472 -0.0871 0.0644 0.1070 Uiso
C72 C 0.4176(4) -0.1022(12) 0.1117(4) 0.1023 Uani
H53 H 0.3966 -0.1384 0.0995 0.1230 Uiso
H54 H 0.4212 -0.1519 0.1333 0.1230 Uiso
C73 C 0.3855(7) 0.082(2) 0.0983(7) 0.0620 Uani
H55 H 0.3687 0.0198 0.0884 0.0740 Uiso
H56 H 0.4005 0.1136 0.0788 0.0740 Uiso
C74 C 0.3655(3) 0.1812(11) 0.1121(4) 0.0917 Uani
H57 H 0.3556 0.1604 0.1354 0.1100 Uiso
H58 H 0.3458 0.2056 0.0962 0.1100 Uiso
O22 O 0.7570(3) 0.8539(12) 0.5125(3) 0.1637 Uani
H59 H 0.7774 0.8162 0.5096 0.2460 Uiso
H60 H 0.7454 0.8193 0.5297 0.2460 Uiso
Zn1E Zn 0.76983(4) 0.41304(18) 0.31312(5) 0.0862 Uani
Zn2A Zn 0.73406(6) -0.0310(3) 0.02370(8) 0.1160 Uani
Zn2C Zn 0.26594(6) 1.4690(3) 0.47630(8) 0.1160 Uani
O3E O 0.2226(3) 0.3581(13) 0.2189(4) 0.1703 Uani
O4E O 0.2210(3) 0.5394(19) 0.1995(5) 0.2247 Uani
O6C O 0.8066(3) 1.0666(14) 0.4925(4) 0.1580 Uani
O16A O 0.7975(3) 1.036(2) 0.5678(5) 0.1417 Uani
loop_
_atom_site_aniso_label
_atom_site_aniso_U_11
_atom_site_aniso_U_22
_atom_site_aniso_U_33
_atom_site_aniso_U_23
_atom_site_aniso_U_13
_atom_site_aniso_U_12
Zn1 0.0262(10) 0.1235(18) 0.1090(15) -0.0269(11) -0.0043(8) -0.0022(8)
Zn2 0.0451(15) 0.150(3) 0.153(2) 0.022(2) -0.0261(13) 0.0150(15)
O1 0.032(5) 0.145(8) 0.137(7) -0.044(6) -0.022(4) -0.006(5)
O2 0.023(10) 0.115(11) 0.157(19) -0.013(10) -0.012(10) 0.008(8)
O3 0.035(5) 0.193(8) 0.283(15) 0.005(9) 0.031(7) 0.004(5)
O4 0.058(7) 0.288(10) 0.328(19) -0.132(14) 0.003(10) -0.028(7)
O5 0.050(7) 0.222(14) 0.302(17) -0.055(12) 0.002(8) -0.035(8)
O6 0.075(8) 0.175(12) 0.224(13) 0.010(10) 0.032(8) 0.033(7)
O7 0.053(7) 0.145(10) 0.216(12) -0.012(9) -0.020(7) -0.008(6)
O8 0.066(7) 0.137(9) 0.210(11) -0.002(8) -0.049(7) 0.013(6)
O9 0.038(5) 0.097(7) 0.154(8) 0.015(6) -0.015(5) 0.006(5)
O10 0.057(6) 0.081(7) 0.181(9) 0.003(6) 0.016(5) 0.028(5)
O11 0.033(4) 0.078(6) 0.117(6) -0.033(5) -0.004(4) 0.018(4)
O12 0.049(5) 0.136(8) 0.121(7) -0.051(6) -0.008(5) 0.016(5)
O13 0.055(9) 0.183(17) 0.159(15) -0.071(11) -0.031(10) 0.056(11)
O14 0.058(6) 0.120(8) 0.129(8) -0.016(6) 0.014(5) -0.018(5)
O15 0.076(12) 0.24(2) 0.254(17) 0.004(19) 0.060(12) -0.016(14)
O16 0.047(11) 0.206(18) 0.172(14) 0.024(11) 0.044(10) 0.037(10)
O17 0.056(6) 0.133(8) 0.096(6) -0.037(6) 0.016(5) 0.028(5)
O18 0.061(5) 0.053(5) 0.118(6) -0.029(5) 0.000(5) 0.004(4)
O19 0.046(7) 0.073(8) 0.093(13) -0.001(8) -0.013(9) 0.010(7)
O20 0.042(6) 0.077(8) 0.136(13) -0.042(8) -0.027(8) 0.022(6)
O21 0.046(5) 0.120(7) 0.102(6) -0.006(5) -0.006(4) -0.023(4)
N1 0.018(4) 0.046(5) 0.045(5) 0.010(4) -0.007(4) -0.005(4)
N2 0.022(5) 0.062(6) 0.047(5) 0.002(4) -0.004(4) 0.000(4)
N3 0.039(5) 0.050(5) 0.054(5) 0.009(4) -0.003(4) 0.004(4)
N4 0.042(5) 0.055(6) 0.052(5) 0.006(5) -0.007(4) -0.010(4)
C1 0.024(6) 0.096(12) 0.086(13) 0.003(10) -0.005(8) -0.005(7)
C2 0.025(7) 0.065(11) 0.064(13) -0.006(10) -0.010(8) 0.001(6)
C3 0.025(7) 0.069(10) 0.050(11) -0.005(9) -0.003(8) 0.002(7)
C4 0.024(7) 0.071(10) 0.070(12) -0.004(9) -0.002(8) 0.000(7)
C5 0.025(7) 0.066(11) 0.065(12) 0.002(9) -0.002(8) -0.003(6)
C6 0.021(7) 0.073(10) 0.063(12) -0.004(9) 0.004(8) -0.006(7)
C7 0.022(7) 0.075(10) 0.064(12) -0.013(10) 0.001(8) -0.006(7)
C8 0.023(5) 0.046(6) 0.056(6) 0.014(5) -0.008(4) -0.004(4)
C9 0.020(5) 0.051(6) 0.038(6) 0.003(5) 0.001(4) 0.000(4)
C10 0.022(5) 0.058(7) 0.048(6) 0.012(5) -0.004(4) -0.004(5)
C11 0.026(5) 0.060(7) 0.047(6) 0.004(5) -0.003(4) 0.002(5)
C12 0.027(6) 0.079(8) 0.071(7) 0.000(6) -0.002(5) 0.010(5)
C13 0.030(6) 0.066(7) 0.054(7) -0.006(6) -0.002(5) 0.004(5)
C14 0.021(5) 0.111(8) 0.056(7) -0.012(7) 0.003(5) -0.001(3)
C15 0.036(4) 0.132(7) 0.076(8) -0.028(8) 0.001(5) -0.017(4)
C16 0.036(4) 0.147(8) 0.093(9) -0.016(9) -0.007(6) -0.022(4)
C17 0.039(4) 0.160(9) 0.085(9) 0.021(9) 0.018(6) -0.006(3)
C18 0.035(4) 0.130(8) 0.109(10) 0.054(8) 0.015(6) 0.016(4)
C19 0.033(4) 0.114(7) 0.107(9) 0.024(8) 0.009(6) 0.013(5)
C20 0.046 0.180 0.115 0.030 0.027 0.000
C21 0.045(6) 0.048(7) 0.042(6) 0.013(5) -0.007(5) -0.012(5)
C22 0.032(6) 0.048(6) 0.039(6) 0.001(5) -0.002(4) -0.001(5)
C23 0.035(6) 0.049(7) 0.059(7) 0.012(6) -0.005(5) -0.014(5)
C24 0.036(6) 0.046(7) 0.054(7) 0.003(5) -0.007(5) -0.007(5)
C25 0.038(6) 0.045(6) 0.055(6) 0.005(5) -0.004(5) -0.008(5)
C26 0.033(6) 0.065(7) 0.042(6) 0.013(5) -0.007(4) 0.004(5)
C27 0.037(6) 0.041(6) 0.047(6) 0.009(5) -0.003(5) 0.008(5)
C28 0.037(6) 0.049(6) 0.040(6) 0.000(5) -0.002(5) 0.000(5)
C29 0.055(10) 0.159(15) 0.195(17) 0.001(13) -0.004(10) 0.009(9)
C30 0.037(6) 0.105(7) 0.077(8) 0.000(8) 0.005(6) -0.009(4)
C31 0.052(5) 0.079(7) 0.080(8) 0.000(7) 0.011(6) 0.007(4)
C32 0.047(5) 0.067(5) 0.076(7) -0.015(6) 0.000(6) -0.007(5)
C33 0.044(5) 0.061(6) 0.049(6) -0.008(6) -0.001(5) -0.009(4)
C34 0.047(5) 0.073(6) 0.067(7) -0.003(6) 0.000(5) -0.017(4)
C35 0.046(5) 0.092(6) 0.073(8) -0.001(7) -0.006(6) -0.020(5)
C36 0.050(6) 0.055(7) 0.057(7) 0.013(6) -0.004(5) -0.010(5)
C37 0.058(7) 0.062(8) 0.049(7) -0.012(6) 0.005(5) -0.019(6)
C38 0.048(7) 0.065(8) 0.073(8) -0.001(6) -0.006(6) -0.017(6)
C39 0.039(6) 0.059(7) 0.057(7) 0.002(6) -0.007(5) -0.009(5)
C40 0.044(6) 0.053(7) 0.040(6) 0.009(5) -0.004(5) -0.009(5)
C41 0.044(6) 0.048(7) 0.049(6) -0.004(5) -0.007(5) -0.006(5)
C42 0.040(5) 0.060(7) 0.089(7) 0.005(6) -0.016(4) -0.006(5)
C43 0.061(6) 0.098(10) 0.106(7) -0.014(8) -0.036(5) 0.002(7)
C44 0.059(6) 0.090(10) 0.132(9) -0.010(8) -0.046(6) 0.000(7)
C45 0.055(7) 0.077(9) 0.130(9) 0.017(8) -0.026(5) -0.001(6)
C46 0.031(5) 0.105(10) 0.121(8) 0.001(8) -0.008(5) -0.009(6)
C47 0.037(5) 0.067(8) 0.098(7) 0.001(6) -0.004(5) -0.006(5)
C48 0.038(8) 0.114(13) 0.167(14) -0.006(10) -0.027(8) 0.007(8)
C49 0.041(7) 0.074(9) 0.134(11) -0.027(8) 0.000(7) 0.013(7)
C50 0.044(7) 0.072(8) 0.108(10) -0.016(7) -0.012(6) 0.028(6)
C51 0.044(7) 0.070(8) 0.104(9) -0.023(7) -0.008(6) 0.013(6)
C52 0.036(7) 0.079(8) 0.115(10) -0.040(7) -0.009(6) 0.021(6)
C53 0.039(8) 0.091(9) 0.233(17) -0.094(10) -0.025(9) 0.024(7)
C54 0.034(7) 0.094(9) 0.187(14) -0.070(9) -0.015(7) 0.022(6)
C55 0.057(8) 0.072(8) 0.123(10) -0.027(7) -0.008(7) 0.014(6)
C56 0.047(7) 0.107(10) 0.111(10) -0.044(8) -0.016(6) 0.024(7)
C57 0.044(7) 0.125(12) 0.117(11) -0.042(9) -0.012(7) 0.007(7)
C58 0.071(9) 0.178(18) 0.111(12) -0.054(11) -0.021(10) 0.058(10)
C59 0.061(8) 0.172(15) 0.128(13) -0.057(10) -0.020(9) 0.038(10)
C60 0.065(10) 0.128(13) 0.206(16) 0.012(11) -0.007(10) -0.009(9)
C61 0.073(11) 0.127(12) 0.179(16) 0.017(10) -0.014(10) -0.007(9)
C62 0.059(7) 0.124(10) 0.104(10) 0.037(7) 0.014(6) 0.013(6)
C63 0.060(7) 0.185(13) 0.119(11) 0.045(8) 0.012(7) 0.040(7)
C64 0.053(7) 0.189(14) 0.111(11) 0.044(8) 0.038(7) 0.027(7)
C65 0.049(7) 0.206(13) 0.093(9) 0.040(8) 0.019(6) 0.034(7)
C66 0.051(6) 0.126(10) 0.089(9) 0.026(6) 0.015(6) 0.031(6)
C67 0.084(8) 0.111(10) 0.091(9) 0.027(6) 0.009(7) 0.008(6)
C68 0.057(12) 0.22(2) 0.141(16) 0.032(14) 0.039(11) 0.025(10)
C69 0.067(8) 0.088(9) 0.080(8) -0.024(7) 0.010(6) 0.020(7)
C70 0.070(8) 0.067(8) 0.087(9) -0.025(7) -0.001(6) 0.012(6)
C71 0.071(8) 0.057(8) 0.139(11) -0.034(8) -0.042(7) 0.003(7)
C72 0.065(8) 0.064(8) 0.178(13) -0.007(8) -0.020(8) -0.005(7)
C73 0.049(8) 0.049(8) 0.088(12) -0.010(8) -0.016(9) 0.006(6)
C74 0.040(7) 0.079(8) 0.156(12) -0.039(8) -0.041(7) 0.016(6)
O22 0.092 0.161 0.238 0.028 -0.033 -0.015
Zn1E 0.0262 0.1235 0.109 0.0269 0.0043 -0.0022
Zn2A 0.0451 0.15 0.153 -0.022 0.0261 0.015
Zn2C 0.0451 0.15 0.153 0.022 0.0261 -0.015
O3E 0.035 0.193 0.283 -0.005 -0.031 0.004
O4E 0.058 0.288 0.328 0.132 -0.003 -0.028
O6C 0.075 0.175 0.224 0.01 -0.032 -0.033
O16A 0.047 0.206 0.172 -0.024 -0.044 0.037
loop_
_geom_bond_atom_site_label_1
_geom_bond_atom_site_label_2
_geom_bond_site_symmetry_1
_geom_bond_site_symmetry_2
Zn1 O1 1_555 1_555
Zn2 O8 1_555 1_555
O1 C1 1_555 1_555
O2 C1 1_555 1_555
O3 C20 1_555 1_555
O4 C20 1_555 1_555
O5 C29 1_555 1_555
O6 C29 1_555 1_555
O7 C48 1_555 1_555
O8 C48 1_555 1_555
O9 Zn1 1_555 1_555
O10 C49 1_555 1_555
O11 C52 1_555 1_555
O12 C57 1_555 1_555
O13 C59 1_555 1_555
O14 C61 1_555 1_555
O15 C68 1_555 1_555
O16 C68 1_555 1_555
O17 C66 1_555 1_555
O18 C70 1_555 1_555
O19 C72 1_555 1_555
O20 C54 1_555 1_555
O21 Zn1 1_555 1_555
H1 O21 1_555 1_555
H2 O21 1_555 1_555
N1 H3 1_555 1_555
N2 C10 1_555 1_555
N3 H4 1_555 1_555
N4 C28 1_555 1_555
C1 C5 1_555 1_555
C2 C3 1_555 1_555
C3 H5 1_555 1_555
C4 C3 1_555 1_555
H6 C4 1_555 1_555
C5 C4 1_555 1_555
C6 C5 1_555 1_555
H7 C6 1_555 1_555
C7 C2 1_555 1_555
H8 C7 1_555 1_555
C8 C2 1_555 1_555
C9 N1 1_555 1_555
C10 C9 1_555 1_555
C11 C10 1_555 1_555
C12 C11 1_555 1_555
H9 C12 1_555 1_555
C13 C8 1_555 1_555
H10 C13 1_555 1_555
C14 C11 1_555 1_555
C15 C14 1_555 1_555
H11 C15 1_555 1_555
C16 C15 1_555 1_555
H12 C16 1_555 1_555
C17 C16 1_555 1_555
C18 C17 1_555 1_555
H13 C18 1_555 1_555
C19 C14 1_555 1_555
H14 C19 1_555 1_555
C20 C17 1_555 1_555
C21 N1 1_555 1_555
C22 C21 1_555 1_555
C23 C22 1_555 1_555
H15 C23 1_555 1_555
C24 C23 1_555 1_555
H16 C24 1_555 1_555
C25 C24 1_555 1_555
C26 C25 1_555 1_555
H17 C26 1_555 1_555
C27 C22 1_555 1_555
H18 C27 1_555 1_555
C28 N3 1_555 1_555
C29 C30 1_555 1_555
C30 C31 1_555 1_555
C31 H19 1_555 1_555
C32 C31 1_555 1_555
H20 C32 1_555 1_555
C33 C32 1_555 1_555
C34 C33 1_555 1_555
H21 C34 1_555 1_555
C35 C30 1_555 1_555
H22 C35 1_555 1_555
C36 C33 1_555 1_555
C37 C36 1_555 1_555
H23 C37 1_555 1_555
C38 C37 1_555 1_555
H24 C38 1_555 1_555
C39 C38 1_555 1_555
C40 N4 1_555 1_555
C41 N3 1_555 1_555
C42 C39 1_555 1_555
C43 C42 1_555 1_555
H25 C43 1_555 1_555
C44 C43 1_555 1_555
H26 C44 1_555 1_555
C45 C44 1_555 1_555
C46 C45 1_555 1_555
H27 C46 1_555 1_555
C47 C42 1_555 1_555
H28 C47 1_555 1_555
C48 C45 1_555 1_555
C49 O9 1_555 1_555
C50 C49 1_555 1_555
C51 C50 1_555 1_555
H29 C51 1_555 1_555
C52 C51 1_555 1_555
C53 C52 1_555 1_555
H30 C53 1_555 1_555
C54 C53 1_555 1_555
C55 C50 1_555 1_555
H31 C55 1_555 1_555
C56 O11 1_555 1_555
H32 C56 1_555 1_555
H33 C56 1_555 1_555
C57 C56 1_555 1_555
H34 C57 1_555 1_555
H35 C57 1_555 1_555
C58 O12 1_555 1_555
H36 C58 1_555 1_555
H37 C58 1_555 1_555
C59 C58 1_555 1_555
H38 C59 1_555 1_555
H39 C59 1_555 1_555
C60 O13 1_555 1_555
H40 C60 1_555 1_555
H41 C60 1_555 1_555
C61 C60 1_555 1_555
H42 C61 1_555 1_555
H43 C61 1_555 1_555
C62 O14 1_555 1_555
C63 C62 1_555 1_555
H44 C63 1_555 1_555
C64 C63 1_555 1_555
C65 C64 1_555 1_555
H45 C65 1_555 1_555
C66 C65 1_555 1_555
C67 C62 1_555 1_555
H46 C67 1_555 1_555
C68 C64 1_555 1_555
C69 O17 1_555 1_555
H47 C69 1_555 1_555
H48 C69 1_555 1_555
C70 C69 1_555 1_555
H49 C70 1_555 1_555
H50 C70 1_555 1_555
C71 O18 1_555 1_555
H51 C71 1_555 1_555
H52 C71 1_555 1_555
C72 C71 1_555 1_555
H53 C72 1_555 1_555
H54 C72 1_555 1_555
C73 O19 1_555 1_555
H55 C73 1_555 1_555
H56 C73 1_555 1_555
C74 O20 1_555 1_555
H57 C74 1_555 1_555
H58 C74 1_555 1_555
O22 Zn2 1_555 1_555
H59 O22 1_555 1_555
H60 O22 1_555 1_555
N5 H61 1_555 1_555
H62 N5 1_555 1_555
C75 N5 1_555 1_555
H63 C75 1_555 1_555
H64 C75 1_555 1_555
H65 C75 1_555 1_555
C76 N5 1_555 1_555
H66 C76 1_555 1_555
H67 C76 1_555 1_555
H68 C76 1_555 1_555
N6 H69 1_555 1_555
H70 N6 1_555 1_555
C77 N6 1_555 1_555
H71 C77 1_555 1_555
H72 C77 1_555 1_555
H73 C77 1_555 1_555
C78 N6 1_555 1_555
H74 C78 1_555 1_555
H75 C78 1_555 1_555
H76 C78 1_555 1_555
N7 H77 1_555 1_555
H78 N7 1_555 1_555
C79 N7 1_555 1_555
H79 C79 1_555 1_555
H80 C79 1_555 1_555
H81 C79 1_555 1_555
C80 N7 1_555 1_555
H82 C80 1_555 1_555
H83 C80 1_555 1_555
H84 C80 1_555 1_555
Zn1E O3 1_555 1_555
Zn2A O16 1_555 1_555
Zn2C O6 1_555 1_555
O3E Zn1 1_555 1_555
O4E Zn1 1_555 1_555
O6C Zn2 1_555 1_555
O16A Zn2 1_555 1_555
O4 Zn1E 1_555 1_555
N2 C21 1_555 1_555
C6 C7 1_555 1_555
C8 C9 1_555 1_555
C12 C13 1_555 1_555
C18 C19 1_555 1_555
C25 C28 1_555 1_555
C26 C27 1_555 1_555
C34 C35 1_555 1_555
C36 C41 1_555 1_555
C39 C40 1_555 1_555
C40 C41 1_555 1_555
C46 C47 1_555 1_555
C54 C55 1_555 1_555
C66 C67 1_555 1_555
C73 C74 1_555 1_555

#END
