
#######################################################################
#
#                 Cambridge Crystallographic Data Centre
#                                CCDC 
#
#######################################################################
#
# If this CIF has been generated from an entry in the Cambridge 
# Structural Database, then it will include bibliographic, chemical, 
# crystal, experimental, refinement or atomic coordinate data resulting 
# from the CCDC's data processing and validation procedures.
#
#######################################################################

data_LABQAI
_chemical_formula_moiety         '(C27 H42 Eu2 N3 O21 P3)n'
_symmetry_cell_setting           monoclinic
_symmetry_space_group_name_H-M   'P 21/c'
_symmetry_Int_Tables_number      14
_space_group_name_Hall           '-P 2ybc'
loop_
_symmetry_equiv_pos_site_id
_symmetry_equiv_pos_as_xyz
1 x,y,z
2 -x,1/2+y,1/2-z
3 -x,-y,-z
4 x,1/2-y,1/2+z
_cell_length_a                   20.943(7)
_cell_length_b                   7.077(2)
_cell_length_c                   27.809(9)
_cell_angle_alpha                90
_cell_angle_beta                 107.309(4)
_cell_angle_gamma                90
_cell_volume                     3935.02
loop_
_atom_site_label
_atom_site_type_symbol
_atom_site_fract_x
_atom_site_fract_y
_atom_site_fract_z
Eu1 Eu 0.089156(11) 0.12717(3) 0.337765(8)
Eu2 Eu 0.252000(11) -0.08672(4) 0.791850(9)
P1 P 0.08183(6) 0.04053(19) 0.72688(4)
P2 P 0.24801(6) 0.08648(18) 0.31891(5)
P3 P 0.13650(6) 0.62240(18) 0.37279(4)
N1 N 0.0454(2) 0.3426(6) 0.66435(15)
H1 H 0.0122 0.3494 0.6765
N2 N 0.3850(2) 0.0844(7) 0.33157(17)
H2 H 0.3779 0.1900 0.3127
H3 H 0.3798 -0.0153 0.3107
N3 N 0.2269(2) 0.8231(7) 0.44313(16)
H4 H 0.2055 0.9268 0.4489
H5 H 0.2344 0.8389 0.4132
C1 C 0.0970(3) 0.1915(8) 0.6788(2)
H6 H 0.0961 0.1164 0.6494
H7 H 0.1410 0.2484 0.6914
C2 C 0.0562(3) 0.4826(8) 0.62679(19)
H8 H 0.0182 0.5677 0.6170
H9 H 0.0956 0.5575 0.6428
C3 C 0.0650(3) 0.3911(7) 0.58024(17)
C4 C 0.1260(3) 0.3952(9) 0.5710(2)
H10 H 0.1625 0.4508 0.5944
C5 C 0.1341(3) 0.3172(10) 0.5269(2)
H11 H 0.1758 0.3209 0.5215
C6 C 0.0812(3) 0.2353(8) 0.4918(2)
C7 C 0.0194(3) 0.2324(9) 0.5004(2)
H12 H -0.0171 0.1800 0.4764
C8 C 0.0113(3) 0.3063(9) 0.5443(2)
H13 H -0.0303 0.2995 0.5500
C9 C 0.0889(3) 0.1570(8) 0.4433(2)
C10 C 0.3343(3) 0.0734(9) 0.35955(19)
H14 H 0.3421 0.1760 0.3837
H15 H 0.3404 -0.0444 0.3782
C11 C 0.4555(3) 0.0862(11) 0.3664(2)
H16 H 0.4629 -0.0251 0.3877
H17 H 0.4620 0.1968 0.3879
C12 C 0.5049(3) 0.0888(10) 0.3365(2)
C13 C 0.5221(3) 0.2552(10) 0.3180(2)
H18 H 0.5072 0.3692 0.3274
C14 C 0.5614(3) 0.2564(10) 0.2853(2)
H19 H 0.5714 0.3698 0.2722
C15 C 0.5856(3) 0.0861(9) 0.2726(2)
C16 C 0.5732(3) -0.0795(10) 0.2949(3)
H20 H 0.5915 -0.1926 0.2882
C17 C 0.5339(3) -0.0789(10) 0.3270(3)
H21 H 0.5268 -0.1905 0.3424
C18 C 0.6239(3) 0.0836(9) 0.2351(2)
C19 C 0.2546(3) 0.7216(9) 0.6781(2)
C20 C 0.2662(3) 0.7402(9) 0.6279(2)
C21 C 0.2502(4) 0.9113(12) 0.6029(3)
H22 H 0.2328 1.0097 0.6173
C22 C 0.2604(5) 0.9345(12) 0.5559(2)
H23 H 0.2507 1.0495 0.5391
C23 C 0.2849(3) 0.7857(10) 0.53440(19)
C24 C 0.2928(3) 0.8113(11) 0.4828(2)
H24 H 0.3181 0.7060 0.4755
H25 H 0.3180 0.9260 0.4823
C25 C 0.1817(3) 0.6573(8) 0.43928(18)
H26 H 0.2076 0.5454 0.4528
H27 H 0.1504 0.6805 0.4583
C26 C 0.3013(4) 0.6184(10) 0.5596(2)
H28 H 0.3184 0.5199 0.5450
C27 C 0.2926(4) 0.5945(10) 0.6071(2)
H29 H 0.3045 0.4813 0.6244
O1 O 0.0378(3) 0.1256(6) 0.40704(16)
O2 O 0.1476(3) 0.1323(6) 0.44017(18)
O3 O 0.01980(17) -0.0728(6) 0.70157(14)
O4 O 0.14277(17) -0.0876(5) 0.74329(13)
O5 O 0.0708(2) 0.1715(6) 0.76652(14)
O6 O 0.20526(17) 0.0729(5) 0.35404(13)
O7 O 0.23963(19) 0.2682(5) 0.28970(14)
O8 O 0.23962(19) -0.0819(5) 0.28337(13)
O9 O 0.63837(19) 0.2356(6) 0.21738(16)
O10 O 0.6456(2) -0.0716(6) 0.22394(18)
O11 O 0.2541(3) 0.5476(7) 0.69372(17)
H30 H 0.2496 0.5477 0.7220
O12 O 0.2467(2) 0.8605(6) 0.70206(15)
O13 O 0.09820(19) 0.4398(5) 0.36912(13)
O14 O 0.09053(17) 0.7927(5) 0.35737(13)
O15 O 0.19366(19) 0.6191(6) 0.34978(13)
O16 O 0.07829(19) -0.0692(5) 0.25520(13)
H31 H 0.0911 -0.0020 0.2344
H32 H 0.1027 -0.1671 0.2626
O17 O 0.3371(2) -0.0785(6) 0.87943(16)
H33 H 0.3166 -0.0773 0.9016
H34 H 0.3607 0.0208 0.8822
Eu1B Eu -0.089156(11) -0.12717(3) 0.662235(8)
Eu1C Eu 0.089156(11) 0.37283(3) 0.837765(8)
Eu1_2 Eu 0.089156(11) 1.12717(3) 0.337765(8)
Eu2C Eu 0.252000(11) 0.58672(4) 0.291850(9)
Eu2C_2 Eu 0.252000(11) -0.41328(4) 0.291850(9)
Eu2B Eu 0.748000(11) 0.08672(4) 0.208150(9)
Eu2_2 Eu 0.252000(11) 0.91328(4) 0.791850(9)
O3B O -0.01980(17) 0.0728(6) 0.29843(14)
O5C O 0.0708(2) 0.3285(6) 0.26652(14)
O7C O 0.23963(19) 0.2318(5) 0.78970(14)
O8C O 0.23962(19) -0.4181(5) 0.78337(13)
O9B O 0.36163(19) -0.2356(6) 0.78262(16)
O10B O 0.3544(2) 0.0716(6) 0.77606(18)
O12_2 O 0.2467(2) -0.1395(6) 0.70206(15)
O14_2 O 0.09053(17) -0.2073(5) 0.35737(13)
O15C O 0.19366(19) -0.1191(6) 0.84978(13)
O18 O 0.51490(14) 0.0794(4) 0.08635(11)
H35 H 0.4903 -0.0180 0.0833
H36 H 0.5072 0.1337 0.0579
O19 O 0.7032(4) -0.1646(10) 0.0521(3)
H37 H 0.7258 -0.2489 0.0717
H38 H 0.6662 -0.2113 0.0347
O20 O 0.4502(5) -0.253(2) 0.0104(4)
H39 H 0.4807 -0.3362 0.0190
H40 H 0.4176 -0.2846 0.0211
O21 O 0.5988(6) -0.3394(18) -0.0161(6)
H41 H 0.5621 -0.3350 -0.0091
H42 H 0.5942 -0.2852 -0.0442
loop_
_geom_bond_atom_site_label_1
_geom_bond_atom_site_label_2
_geom_bond_site_symmetry_1
_geom_bond_site_symmetry_2
Eu1 O1 1_555 1_555
Eu2 O4 1_555 1_555
P1 C1 1_555 1_555
P2 C10 1_555 1_555
P3 C25 1_555 1_555
N1 H1 1_555 1_555
N2 H2 1_555 1_555
H3 N2 1_555 1_555
N3 H4 1_555 1_555
H5 N3 1_555 1_555
C1 N1 1_555 1_555
H6 C1 1_555 1_555
H7 C1 1_555 1_555
C2 N1 1_555 1_555
H8 C2 1_555 1_555
H9 C2 1_555 1_555
C3 C2 1_555 1_555
C4 C3 1_555 1_555
H10 C4 1_555 1_555
C5 C4 1_555 1_555
H11 C5 1_555 1_555
C6 C5 1_555 1_555
C7 C6 1_555 1_555
H12 C7 1_555 1_555
C8 C3 1_555 1_555
H13 C8 1_555 1_555
C9 C6 1_555 1_555
C10 N2 1_555 1_555
H14 C10 1_555 1_555
H15 C10 1_555 1_555
C11 N2 1_555 1_555
H16 C11 1_555 1_555
H17 C11 1_555 1_555
C12 C11 1_555 1_555
C13 C12 1_555 1_555
H18 C13 1_555 1_555
C14 C13 1_555 1_555
H19 C14 1_555 1_555
C15 C14 1_555 1_555
C16 C15 1_555 1_555
H20 C16 1_555 1_555
C17 C12 1_555 1_555
H21 C17 1_555 1_555
C18 C15 1_555 1_555
C19 C20 1_555 1_555
C20 C21 1_555 1_555
C21 H22 1_555 1_555
C22 C21 1_555 1_555
H23 C22 1_555 1_555
C23 C22 1_555 1_555
C24 N3 1_555 1_555
H24 C24 1_555 1_555
H25 C24 1_555 1_555
C25 N3 1_555 1_555
H26 C25 1_555 1_555
H27 C25 1_555 1_555
C26 C23 1_555 1_555
H28 C26 1_555 1_555
C27 C20 1_555 1_555
H29 C27 1_555 1_555
O1 C9 1_555 1_555
O2 Eu1 1_555 1_555
O3 P1 1_555 1_555
O4 P1 1_555 1_555
O5 P1 1_555 1_555
O6 Eu1 1_555 1_555
O7 P2 1_555 1_555
O8 P2 1_555 1_555
O9 C18 1_555 1_555
O10 C18 1_555 1_555
O11 C19 1_555 1_555
H30 O11 1_555 1_555
O12 C19 1_555 1_555
O13 Eu1 1_555 1_555
O14 P3 1_555 1_555
O15 P3 1_555 1_555
O16 Eu1 1_555 1_555
H31 O16 1_555 1_555
H32 O16 1_555 1_555
O17 Eu2 1_555 1_555
H33 O17 1_555 1_555
H34 O17 1_555 1_555
O18 H35 1_555 1_555
H36 O18 1_555 1_555
O19 H37 1_555 1_555
H38 O19 1_555 1_555
O20 H39 1_555 1_555
H40 O20 1_555 1_555
O21 H41 1_555 1_555
H42 O21 1_555 1_555
Eu1B O3 1_555 1_555
Eu1C O5 1_555 1_555
Eu1_2 O14 1_555 1_555
Eu2C O7 1_555 1_555
Eu2C_2 O8 1_555 1_555
Eu2B O9 1_555 1_555
Eu2_2 O12 1_555 1_555
O3B Eu1 1_555 1_555
O5C Eu1 1_555 1_555
O7C Eu2 1_555 1_555
O8C Eu2 1_555 1_555
O9B Eu2 1_555 1_555
O10B Eu2 1_555 1_555
O12_2 Eu2 1_555 1_555
O14_2 Eu1 1_555 1_555
O15C Eu2 1_555 1_555
P2 O6 1_555 1_555
P3 O13 1_555 1_555
C7 C8 1_555 1_555
C9 O2 1_555 1_555
C16 C17 1_555 1_555
C23 C24 1_555 1_555
C26 C27 1_555 1_555
O10 Eu2B 1_555 1_555
O15 Eu2C 1_555 1_555

#END
