
#######################################################################
#
#                 Cambridge Crystallographic Data Centre
#                                CCDC 
#
#######################################################################
#
# If this CIF has been generated from an entry in the Cambridge 
# Structural Database, then it will include bibliographic, chemical, 
# crystal, experimental, refinement or atomic coordinate data resulting 
# from the CCDC's data processing and validation procedures.
#
#######################################################################

data_IRISAD
_chemical_formula_moiety         '(C4 H8 Bi1 N1 O10)n'
_symmetry_cell_setting           tetragonal
_symmetry_space_group_name_H-M   'I 41/a m d'
_symmetry_Int_Tables_number      141
_space_group_name_Hall           '-I 4bd 2'
loop_
_symmetry_equiv_pos_site_id
_symmetry_equiv_pos_as_xyz
1 x,y,z
2 1/4-y,3/4+x,1/4+z
3 x,-y,-z
4 1/2-x,-y,1/2+z
5 1/4+y,3/4+x,1/4-z
6 1/4+y,1/4-x,3/4+z
7 1/2-x,y,1/2-z
8 1/4-y,1/4-x,3/4-z
9 1/2+x,1/2+y,1/2+z
10 3/4-y,1/4+x,3/4+z
11 1/2+x,1/2-y,1/2-z
12 -x,1/2-y,z
13 3/4+y,1/4+x,3/4-z
14 3/4+y,3/4-x,1/4+z
15 -x,1/2+y,-z
16 3/4-y,3/4-x,1/4-z
17 -x,-y,-z
18 3/4+y,1/4-x,3/4-z
19 -x,y,z
20 1/2+x,y,1/2-z
21 3/4-y,1/4-x,3/4+z
22 3/4-y,3/4+x,1/4-z
23 1/2+x,-y,1/2+z
24 3/4+y,3/4+x,1/4+z
25 1/2-x,1/2-y,1/2-z
26 1/4+y,3/4-x,1/4-z
27 1/2-x,1/2+y,1/2+z
28 x,1/2+y,-z
29 1/4-y,3/4-x,1/4+z
30 1/4-y,1/4+x,3/4-z
31 x,1/2-y,z
32 1/4+y,1/4+x,3/4+z
_cell_length_a                   11.6896(2)
_cell_length_b                   11.6896(2)
_cell_length_c                   9.2357(3)
_cell_angle_alpha                90
_cell_angle_beta                 90
_cell_angle_gamma                90
_cell_volume                     1262.03
loop_
_atom_site_label
_atom_site_type_symbol
_atom_site_fract_x
_atom_site_fract_y
_atom_site_fract_z
_atom_site_U_iso_or_equiv
_atom_site_thermal_displace_type
Bi1 Bi 0.0000 0.7500 0.1250 2.2300 Uiso
O1 O 0.0000 0.6262(6) -0.0910(9) 4.9000 Uiso
O2 O -0.0000(7) 0.4536 -0.180(1) 4.9000 Uiso
C1 C 0.000(1) 0.5190 -0.077(1) 4.8000 Uiso
C1B C 0.000(1) 0.4810 0.077(1) 4.8000 Uiso
O1B O 0.0000 0.3738(6) 0.0910(9) 4.9000 Uiso
O2B O -0.0000(7) 0.5464 0.180(1) 4.9000 Uiso
O1D O -0.1238(6) 0.7500 0.3410(9) 4.9000 Uiso
O2D O -0.2964 0.7500(7) 0.430(1) 4.9000 Uiso
C1D C -0.2310 0.750(1) 0.327(1) 4.8000 Uiso
C1A C -0.2690 0.750(1) 0.173(1) 4.8000 Uiso
O1A O -0.3762(6) 0.7500 0.1590(9) 4.9000 Uiso
O2A O -0.2036 0.7500(7) 0.070(1) 4.9000 Uiso
O1K O 0.0000 0.8738(6) -0.0910(9) 4.9000 Uiso
O1O O 0.1238(6) 0.7500 0.3410(9) 4.9000 Uiso
O2M O 0.2036 0.7500(7) 0.070(1) 4.9000 Uiso
O2N O 0.0000(7) 0.9536 0.180(1) 4.9000 Uiso
Bi1B Bi 0.0000 0.2500 -0.1250 2.2300 Uiso
Bi1A Bi -0.5000 0.7500 0.3750 2.2300 Uiso
N1 N 0.0000 0.2500 0.3750 6.4000 Uiso
O3 O 0.2889(8) 0.5389(8) 0.8750 11.7000 Uiso
O4 O 0.0000 0.0000 0.5000 11.7000 Uiso
loop_
_geom_bond_atom_site_label_1
_geom_bond_atom_site_label_2
_geom_bond_site_symmetry_1
_geom_bond_site_symmetry_2
Bi1 O1 1_555 1_555
O1 C1 1_555 1_555
O2 C1 1_555 1_555
C1 C1B 1_555 1_555
C1B O1B 1_555 1_555
O1B Bi1B 1_555 1_555
O2B Bi1 1_555 1_555
O1D Bi1 1_555 1_555
O2D C1D 1_555 1_555
C1D O1D 1_555 1_555
C1A C1D 1_555 1_555
O1A C1A 1_555 1_555
O2A Bi1 1_555 1_555
O1K Bi1 1_555 1_555
O1O Bi1 1_555 1_555
O2M Bi1 1_555 1_555
O2N Bi1 1_555 1_555
Bi1B O2 1_555 1_555
Bi1A O2D 1_555 1_555
C1B O2B 1_555 1_555
C1A O2A 1_555 1_555
O1A Bi1A 1_555 1_555

#END
