
#######################################################################
#
#                 Cambridge Crystallographic Data Centre
#                                CCDC 
#
#######################################################################
#
# If this CIF has been generated from an entry in the Cambridge 
# Structural Database, then it will include bibliographic, chemical, 
# crystal, experimental, refinement or atomic coordinate data resulting 
# from the CCDC's data processing and validation procedures.
#
#######################################################################

data_TERFUT
_chemical_formula_moiety         '(C36 H21 N4 O8 Rh1 Zn2)n'
_symmetry_cell_setting           triclinic
_symmetry_space_group_name_H-M   'P -1'
_symmetry_Int_Tables_number      2
_space_group_name_Hall           '-P 1'
loop_
_symmetry_equiv_pos_site_id
_symmetry_equiv_pos_as_xyz
1 x,y,z
2 -x,-y,-z
_cell_length_a                   14.0869(13)
_cell_length_b                   15.1333(17)
_cell_length_c                   15.1402(15)
_cell_angle_alpha                86.517(7)
_cell_angle_beta                 87.286(5)
_cell_angle_gamma                86.896(5)
_cell_volume                     3213.77
loop_
_atom_site_label
_atom_site_type_symbol
_atom_site_fract_x
_atom_site_fract_y
_atom_site_fract_z
N1 N 0.95202(14) -0.61032(15) 0.15803(15)
N2 N 0.45067(15) -0.61109(16) 0.15373(16)
O1 O 1.12686(13) -0.60592(15) 0.02911(12)
O2 O 1.27017(14) -0.61621(16) -0.71541(12)
O3 O 1.28497(13) -0.60830(15) 0.02073(12)
O4 O 1.27715(14) -0.47907(12) 0.15040(16)
O5 O 1.11209(14) -0.59877(17) -0.70721(13)
O6 O 1.11881(14) -0.47062(12) 0.15223(16)
O7 O 1.29095(15) 0.25483(13) 0.15665(17)
C1 C 0.75430(18) -0.6127(2) 0.1570(2)
O8 O 1.13300(15) 0.26441(13) 0.17418(19)
C2 C 0.80903(18) -0.6078(2) 0.0790(2)
H1 H 0.7804 -0.6056 0.0247
C3 C 1.1990(2) -0.33931(18) 0.1620(2)
C4 C 0.89890(19) -0.6167(2) 0.23468(19)
H2 H 0.9292 -0.6201 0.2881
C5 C 1.20430(19) -0.61161(19) -0.11145(18)
C6 C 1.1934(2) -0.6089(2) -0.57487(18)
C7 C 0.80084(19) -0.6183(3) 0.2360(2)
H3 H 0.7662 -0.6231 0.2897
C8 C 0.90686(17) -0.6062(2) 0.08240(19)
H4 H 0.9429 -0.6020 0.0294
C9 C 1.20573(18) -0.60910(17) -0.01316(17)
C10 C 1.19798(19) -0.43704(17) 0.15429(18)
N3 N 1.1161(2) -0.6052(2) -0.24409(19)
C11 C 1.2853(2) -0.6207(3) -0.25319(19)
H5 H 1.3419 -0.6262 -0.2870
C12 C 1.2113(2) 0.22184(18) 0.1677(2)
C13 C 1.2872(2) -0.6203(2) -0.1637(2)
H6 H 1.3455 -0.6261 -0.1369
C14 C 1.1183(2) -0.6042(2) -0.15432(19)
H7 H 1.0614 -0.5984 -0.1209
C15 C 1.19214(19) -0.60790(18) -0.67356(17)
C16 C 0.64856(17) -0.6119(2) 0.15601(19)
C17 C 1.1993(2) -0.6128(2) -0.29440(19)
C18 C 1.1972(2) -0.6115(3) -0.3918(2)
C19 C 1.2743(3) -0.6303(4) -0.5314(2)
H8 H 1.3298 -0.6456 -0.5639
C20 C 1.2092(2) 0.1229(2) 0.1734(3)
C21 C 1.2764(2) -0.6301(4) -0.4416(2)
H9 H 1.3336 -0.6431 -0.4143
C22 C 1.1166(3) -0.5915(4) -0.4336(2)
H10 H 1.0610 -0.5781 -0.4004
C23 C 1.1138(3) -0.5903(4) -0.5236(2)
H11 H 1.0564 -0.5765 -0.5503
C24 C 1.2811(3) -0.2956(2) 0.1567(4)
H12 H 1.3384 -0.3282 0.1488
N4 N 1.2859(3) -0.0206(2) 0.1633(4)
C25 C 1.2877(3) 0.0693(2) 0.1611(4)
H13 H 1.3459 0.0950 0.1506
C26 C 1.1179(3) -0.2875(3) 0.1714(5)
H14 H 1.0596 -0.3137 0.1728
C27 C 1.2833(3) -0.2063(2) 0.1624(4)
C28 C 1.2019(3) -0.1573(2) 0.1750(4)
C29 C 1.2042(3) -0.0597(2) 0.1795(4)
C30 C 1.1190(3) -0.1986(3) 0.1789(6)
H15 H 1.0619 -0.1657 0.1867
C31 C 1.1255(3) 0.0824(3) 0.1931(6)
H16 H 1.0699 0.1165 0.2046
C32 C 1.1236(4) -0.0083(3) 0.1959(7)
H17 H 1.0664 -0.0352 0.2093
Rh1 Rh 1.3779(3) -0.1218(3) 0.1564(6)
C33 C 0.4975(4) -0.6500(6) 0.2217(4)
H18 H 0.4627 -0.6776 0.2683
C34 C 0.5018(4) -0.5738(6) 0.0884(4)
H19 H 0.4707 -0.5466 0.0404
C35 C 0.5994(4) -0.5735(6) 0.0881(4)
H20 H 0.6323 -0.5463 0.0401
C36 C 0.5954(4) -0.6509(7) 0.2257(4)
H21 H 0.6253 -0.6775 0.2747
Zn1 Zn 1.096000(19) -0.60357(2) 0.16095(2)
Zn2 Zn 1.306030(19) -0.61283(2) 0.15279(2)
N2_2 N 1.45067(15) -0.61109(16) 0.15373(16)
O2_2 O 1.27017(14) -0.61621(16) 0.28459(12)
O5_2 O 1.11209(14) -0.59877(17) 0.29279(13)
O7_2 O 1.29095(15) -0.74517(13) 0.15665(17)
O8_2 O 1.13300(15) -0.73559(13) 0.17418(19)
Zn1_2 Zn 1.096000(19) -0.60357(2) -0.83905(2)
Zn1_3 Zn 1.096000(19) 0.39643(2) 0.16095(2)
Zn2_2 Zn 0.306030(19) -0.61283(2) 0.15279(2)
Zn2_3 Zn 1.306030(19) -0.61283(2) -0.84721(2)
Zn2_4 Zn 1.306030(19) 0.38717(2) 0.15279(2)
loop_
_geom_bond_atom_site_label_1
_geom_bond_atom_site_label_2
_geom_bond_site_symmetry_1
_geom_bond_site_symmetry_2
N1 C4 1_555 1_555
N2 C33 1_555 1_555
O1 C9 1_555 1_555
O2 C15 1_555 1_555
O3 C9 1_555 1_555
O4 C10 1_555 1_555
O5 C15 1_555 1_555
O6 C10 1_555 1_555
O7 C12 1_555 1_555
C1 C2 1_555 1_555
O8 C12 1_555 1_555
C2 H1 1_555 1_555
C3 C10 1_555 1_555
C4 H2 1_555 1_555
C5 C9 1_555 1_555
C6 C15 1_555 1_555
C7 C1 1_555 1_555
H3 C7 1_555 1_555
C8 N1 1_555 1_555
H4 C8 1_555 1_555
N3 C14 1_555 1_555
C11 H5 1_555 1_555
C12 C20 1_555 1_555
C13 C5 1_555 1_555
H6 C13 1_555 1_555
C14 C5 1_555 1_555
H7 C14 1_555 1_555
C16 C1 1_555 1_555
C17 N3 1_555 1_555
C18 C17 1_555 1_555
C19 C6 1_555 1_555
H8 C19 1_555 1_555
C20 C25 1_555 1_555
C21 C18 1_555 1_555
H9 C21 1_555 1_555
C22 C18 1_555 1_555
H10 C22 1_555 1_555
C23 C6 1_555 1_555
H11 C23 1_555 1_555
C24 C3 1_555 1_555
H12 C24 1_555 1_555
N4 C25 1_555 1_555
C25 H13 1_555 1_555
C26 C3 1_555 1_555
H14 C26 1_555 1_555
C27 C24 1_555 1_555
C28 C27 1_555 1_555
C29 N4 1_555 1_555
C30 C26 1_555 1_555
H15 C30 1_555 1_555
C31 C20 1_555 1_555
H16 C31 1_555 1_555
C32 C29 1_555 1_555
H17 C32 1_555 1_555
Rh1 N4 1_555 1_555
C33 H18 1_555 1_555
C34 N2 1_555 1_555
H19 C34 1_555 1_555
C35 C16 1_555 1_555
H20 C35 1_555 1_555
C36 C16 1_555 1_555
H21 C36 1_555 1_555
Zn1 N1 1_555 1_555
Zn2 O3 1_555 1_555
N2_2 Zn2 1_555 1_555
O2_2 Zn2 1_555 1_555
O5_2 Zn1 1_555 1_555
O7_2 Zn2 1_555 1_555
O8_2 Zn1 1_555 1_555
Zn1_2 O5 1_555 1_555
Zn1_3 O8 1_555 1_555
Zn2_2 N2 1_555 1_555
Zn2_3 O2 1_555 1_555
Zn2_4 O7 1_555 1_555
O1 Zn1 1_555 1_555
O4 Zn2 1_555 1_555
O6 Zn1 1_555 1_555
C2 C8 1_555 1_555
C4 C7 1_555 1_555
C11 C13 1_555 1_555
C11 C17 1_555 1_555
C19 C21 1_555 1_555
C22 C23 1_555 1_555
C27 Rh1 1_555 1_555
C28 C29 1_555 1_555
C28 C30 1_555 1_555
C31 C32 1_555 1_555
C33 C36 1_555 1_555
C34 C35 1_555 1_555

#END
