
#######################################################################
#
#                 Cambridge Crystallographic Data Centre
#                                CCDC 
#
#######################################################################
#
# If this CIF has been generated from an entry in the Cambridge 
# Structural Database, then it will include bibliographic, chemical, 
# crystal, experimental, refinement or atomic coordinate data resulting 
# from the CCDC's data processing and validation procedures.
#
#######################################################################

data_TERFIH
_chemical_formula_moiety         '(C34 H18 Ir1 N6 O8 Zn2)n'
_symmetry_cell_setting           triclinic
_symmetry_space_group_name_H-M   'P -1'
_symmetry_Int_Tables_number      2
_space_group_name_Hall           '-P 1'
loop_
_symmetry_equiv_pos_site_id
_symmetry_equiv_pos_as_xyz
1 x,y,z
2 -x,-y,-z
_cell_length_a                   14.0368(15)
_cell_length_b                   15.1189(17)
_cell_length_c                   15.1242(17)
_cell_angle_alpha                85.358(6)
_cell_angle_beta                 85.555(5)
_cell_angle_gamma                86.350(6)
_cell_volume                     3184.2
loop_
_atom_site_label
_atom_site_type_symbol
_atom_site_fract_x
_atom_site_fract_y
_atom_site_fract_z
N1 N 0.0469(3) 0.6111(3) 0.3369(3)
O1 O 0.7300(3) 0.6173(3) 0.2143(3)
O2 O 0.7083(3) 0.6113(3) -0.5192(3)
O3 O 0.8664(3) 0.6096(3) -0.5347(3)
O4 O 0.8884(3) 0.5971(3) 0.2012(3)
C1 C 0.2427(4) 0.6158(4) 0.3397(4)
O5 O 0.7209(3) 0.4807(3) 0.3524(3)
O6 O 0.8688(4) -0.2619(3) 0.3163(3)
O7 O 0.8814(3) 0.4718(3) 0.3466(3)
O8 O 0.7088(4) -0.2527(3) 0.3404(3)
C2 C 0.1845(5) 0.6111(4) 0.4172(4)
H1 H 0.2111 0.6097 0.4725
C3 C 0.7874(4) 0.6110(4) -0.4886(4)
C4 C 0.8076(4) 0.6091(4) 0.1699(4)
C5 C 0.0884(5) 0.6087(4) 0.4134(4)
H2 H 0.0496 0.6051 0.4670
C6 C 0.8021(4) 0.4359(4) 0.3455(4)
C7 C 0.1042(5) 0.6176(4) 0.2610(4)
H3 H 0.0762 0.6207 0.2062
C8 C 0.8065(4) 0.6078(4) 0.0709(4)
C9 C 0.7993(5) 0.6112(5) -0.1107(5)
C10 C 0.8001(5) 0.3397(5) 0.3388(4)
C11 C 0.1994(5) 0.6198(5) 0.2610(5)
H4 H 0.2369 0.6241 0.2067
C12 C 0.7907(5) -0.1217(5) 0.3196(5)
C13 C 0.8859(6) 0.5903(5) 0.0188(5)
H5 H 0.9446 0.5783 0.0445
C14 C 0.7227(7) 0.6286(6) 0.0317(6)
H6 H 0.6654 0.6396 0.0665
C15 C 0.7152(7) 0.2977(6) 0.3428(6)
H7 H 0.6566 0.3311 0.3500
C16 C 0.7892(5) -0.2183(4) 0.3264(4)
C17 C 0.8822(8) 0.2894(7) 0.3215(7)
H8 H 0.9405 0.3171 0.3110
C18 C 0.7966(7) 0.1593(6) 0.3238(6)
C19 C 0.7955(7) 0.0622(6) 0.3198(6)
C20 C 0.7123(9) -0.0682(8) 0.3368(7)
H9 H 0.6529 -0.0938 0.3479
C21 C 0.8735(9) -0.0782(8) 0.2947(7)
H10 H 0.9302 -0.1117 0.2789
N2 N 0.5460(3) 0.6149(3) 0.3462(3)
C22 C 0.3509(4) 0.6141(4) 0.3413(4)
C23 C 0.4896(7) 0.6009(6) 0.4162(6)
H11 H 0.5170 0.5924 0.4712
C24 C 0.3948(8) 0.5977(7) 0.4165(7)
H12 H 0.3587 0.5837 0.4702
C25 C 0.4072(9) 0.6237(8) 0.2698(8)
H13 H 0.3795 0.6309 0.2148
C26 C 0.5070(9) 0.6240(8) 0.2694(8)
H14 H 0.5451 0.6306 0.2156
C27 C 0.7888(4) 0.6148(4) -0.3888(4)
C28 C 0.7081(5) 0.6197(5) -0.3355(4)
H15 H 0.6488 0.6229 -0.3608
C29 C 0.8781(5) 0.6085(5) -0.3508(5)
H16 H 0.9355 0.6060 -0.3871
C30 C 0.7962(5) 0.6121(5) -0.2086(5)
Ir1 Ir 0.6171(6) 0.1190(5) 0.3372(5)
Ir2 Ir 0.9646(17) 0.0910(15) 0.3290(14)
Zn1 Zn 0.69244(5) 0.61515(5) 0.34728(4)
Zn2 Zn 0.90204(5) -0.39539(5) 0.33369(4)
N3 N 0.8748(9) 0.0110(8) 0.2925(8)
N4 N 0.7096(5) 0.6202(5) -0.2452(5)
C31 C 0.7235(7) 0.6331(6) -0.0567(6)
H17 H 0.6666 0.6530 -0.0827
C32 C 0.8827(7) 0.5895(6) -0.0722(6)
H18 H 0.9383 0.5739 -0.1075
C33 C 0.7155(7) 0.2078(6) 0.3364(6)
C34 C 0.8817(9) 0.1988(9) 0.3190(8)
N5 N 0.7155(9) 0.0214(9) 0.3386(8)
N6 N 0.8794(5) 0.6062(5) -0.2628(5)
N1_2 N 1.0469(3) -0.3889(3) 0.3369(3)
O2_2 O 0.7083(3) 0.6113(3) 0.4808(3)
O3_2 O 0.8664(3) -0.3904(3) 0.4653(3)
O4_2 O 0.8884(3) -0.4029(3) 0.2012(3)
O7_2 O 0.8814(3) -0.5282(3) 0.3466(3)
O8_2 O 0.7088(4) 0.7473(3) 0.3404(3)
Zn1_2 Zn 0.69244(5) 0.61515(5) -0.65272(4)
Zn1_3 Zn 0.69244(5) -0.38485(5) 0.34728(4)
Zn2_2 Zn -0.09796(5) 0.60461(5) 0.33369(4)
Zn2_3 Zn 0.90204(5) 0.60461(5) -0.66631(4)
Zn2_4 Zn 0.90204(5) 0.60461(5) 0.33369(4)
loop_
_geom_bond_atom_site_label_1
_geom_bond_atom_site_label_2
_geom_bond_site_symmetry_1
_geom_bond_site_symmetry_2
N1 C5 1_555 1_555
O1 C4 1_555 1_555
O2 C3 1_555 1_555
O3 C3 1_555 1_555
O4 C4 1_555 1_555
C1 C2 1_555 1_555
O5 C6 1_555 1_555
O6 C16 1_555 1_555
O7 C6 1_555 1_555
O8 C16 1_555 1_555
C2 H1 1_555 1_555
C3 C27 1_555 1_555
C4 C8 1_555 1_555
C5 C2 1_555 1_555
H2 C5 1_555 1_555
C6 C10 1_555 1_555
C7 N1 1_555 1_555
H3 C7 1_555 1_555
C8 C13 1_555 1_555
C9 C30 1_555 1_555
C10 C15 1_555 1_555
C11 C1 1_555 1_555
H4 C11 1_555 1_555
C12 C16 1_555 1_555
C13 H5 1_555 1_555
C14 C8 1_555 1_555
H6 C14 1_555 1_555
C15 H7 1_555 1_555
C17 C10 1_555 1_555
H8 C17 1_555 1_555
C18 C19 1_555 1_555
C19 N3 1_555 1_555
C20 C12 1_555 1_555
H9 C20 1_555 1_555
C21 C12 1_555 1_555
H10 C21 1_555 1_555
N2 C23 1_555 1_555
C22 C1 1_555 1_555
C23 H11 1_555 1_555
C24 C22 1_555 1_555
H12 C24 1_555 1_555
C25 C22 1_555 1_555
H13 C25 1_555 1_555
C26 N2 1_555 1_555
H14 C26 1_555 1_555
C27 C28 1_555 1_555
C28 H15 1_555 1_555
C29 C27 1_555 1_555
H16 C29 1_555 1_555
C30 N4 1_555 1_555
Ir1 C33 1_555 1_555
Ir2 N3 1_555 1_555
Zn1 O1 1_555 1_555
Zn2 O6 1_555 1_555
N3 C21 1_555 1_555
N4 C28 1_555 1_555
C31 C9 1_555 1_555
H17 C31 1_555 1_555
C32 C9 1_555 1_555
H18 C32 1_555 1_555
C33 C15 1_555 1_555
C34 C17 1_555 1_555
N5 C19 1_555 1_555
N6 C29 1_555 1_555
N1_2 Zn2 1_555 1_555
O2_2 Zn1 1_555 1_555
O3_2 Zn2 1_555 1_555
O4_2 Zn2 1_555 1_555
O7_2 Zn2 1_555 1_555
O8_2 Zn1 1_555 1_555
Zn1_2 O2 1_555 1_555
Zn1_3 O8 1_555 1_555
Zn2_2 N1 1_555 1_555
Zn2_3 O3 1_555 1_555
Zn2_4 O4 1_555 1_555
O5 Zn1 1_555 1_555
O7 Zn2_4 1_555 1_555
C7 C11 1_555 1_555
C13 C32 1_555 1_555
C14 C31 1_555 1_555
C18 C33 1_555 1_555
C18 C34 1_555 1_555
C20 N5 1_555 1_555
N2 Zn1 1_555 1_555
C23 C24 1_555 1_555
C25 C26 1_555 1_555
C30 N6 1_555 1_555
Ir1 N5 1_555 1_555
Ir2 C34 1_555 1_555

#END
