
#######################################################################
#
#                 Cambridge Crystallographic Data Centre
#                                CCDC 
#
#######################################################################
#
# If this CIF has been generated from an entry in the Cambridge 
# Structural Database, then it will include bibliographic, chemical, 
# crystal, experimental, refinement or atomic coordinate data resulting 
# from the CCDC's data processing and validation procedures.
#
#######################################################################

data_KEDNOY
_chemical_formula_moiety         '(C19 H19 Ag1 Al1 Cl3 F6 N3 O6 P1)n'
_symmetry_cell_setting           cubic
_symmetry_space_group_name_H-M   'P 21 3'
_symmetry_Int_Tables_number      198
_space_group_name_Hall           'P 2ac 2ab 3'
loop_
_symmetry_equiv_pos_site_id
_symmetry_equiv_pos_as_xyz
1 x,y,z
2 1/2-x,-y,1/2+z
3 -x,1/2+y,1/2-z
4 1/2+x,1/2-y,-z
5 z,x,y
6 1/2+z,1/2-x,-y
7 1/2-z,-x,1/2+y
8 -z,1/2+x,1/2-y
9 y,z,x
10 -y,1/2+z,1/2-x
11 1/2+y,1/2-z,-x
12 1/2-y,-z,1/2+x
_cell_length_a                   14.0563(4)
_cell_length_b                   14.0563(4)
_cell_length_c                   14.0563(4)
_cell_angle_alpha                90
_cell_angle_beta                 90
_cell_angle_gamma                90
_cell_volume                     2777.24
loop_
_atom_site_label
_atom_site_type_symbol
_atom_site_fract_x
_atom_site_fract_y
_atom_site_fract_z
_atom_site_U_iso_or_equiv
_atom_site_thermal_displace_type
Ag1 Ag 1.125904(14) 0.374096(14) 0.625904(14) 0.0203 Uani
Al1 Al 0.77064(6) 0.27064(6) 0.22936(6) 0.0137 Uani
O1 O 0.76405(13) 0.27206(13) 0.36247(13) 0.0158 Uani
O2 O 0.90284(13) 0.27724(14) 0.23452(14) 0.0170 Uani
C1 C 0.7994(2) 0.2661(2) 0.5263(2) 0.0244 Uani
H1 H 0.8373 0.3119 0.5625 0.0370 Uiso
H2 H 0.8088 0.2022 0.5525 0.0370 Uiso
H3 H 0.7319 0.2832 0.5305 0.0370 Uiso
C2 C 0.8299(2) 0.26741(19) 0.42436(19) 0.0169 Uani
C3 C 0.9269(2) 0.2636(2) 0.39931(19) 0.0177 Uani
C4 C 0.95929(19) 0.26973(19) 0.3043(2) 0.0166 Uani
C5 C 1.0632(2) 0.2678(2) 0.2813(2) 0.0259 Uani
H4 H 1.1001 0.2685 0.3404 0.0390 Uiso
H5 H 1.0796 0.3237 0.2430 0.0390 Uiso
H6 H 1.0780 0.2099 0.2453 0.0390 Uiso
C6 C 0.9949(2) 0.2626(2) 0.4745(2) 0.0210 Uani
N1 N 1.04734(18) 0.2634(2) 0.53684(19) 0.0265 Uani
Al1A Al 0.72936(6) 0.72936(6) 0.72936(6) 0.0137 Uani
Al1B Al 1.22936(6) 0.77064(6) 0.27064(6) 0.0137 Uani
O1E O 0.86247(13) 0.73595(13) 0.72794(13) 0.0158 Uani
O1K O 1.22794(13) 0.63753(13) 0.26405(13) 0.0158 Uani
O1G O 0.63753(13) 0.26405(13) 0.22794(13) 0.0158 Uani
O1J O 0.77206(13) 0.13753(13) 0.23595(13) 0.0158 Uani
O2E O 0.73452(14) 0.59716(13) 0.72276(14) 0.0170 Uani
O2K O 1.22276(14) 0.76548(14) 0.40284(13) 0.0170 Uani
O2G O 0.76548(14) 0.40284(13) 0.22276(14) 0.0170 Uani
O2J O 0.77724(14) 0.26548(14) 0.09716(13) 0.0170 Uani
C1E C 1.0263(2) 0.7006(2) 0.7339(2) 0.0244 Uani
C1K C 1.2339(2) 0.4737(2) 0.2994(2) 0.0244 Uani
H1E H 1.0625 0.6627 0.6881 0.0370 Uiso
H1K H 1.1881 0.4375 0.3373 0.0370 Uiso
H2E H 1.0525 0.6912 0.7978 0.0370 Uiso
H2K H 1.2978 0.4475 0.3088 0.0370 Uiso
H3E H 1.0305 0.7681 0.7168 0.0370 Uiso
H3K H 1.2168 0.4695 0.2319 0.0370 Uiso
C2E C 0.92436(19) 0.6701(2) 0.73259(19) 0.0169 Uani
C2K C 1.23259(19) 0.57564(19) 0.3299(2) 0.0169 Uani
C3E C 0.89931(19) 0.5731(2) 0.7364(2) 0.0177 Uani
C3K C 1.2364(2) 0.60069(19) 0.4269(2) 0.0177 Uani
C4E C 0.8043(2) 0.54071(19) 0.73027(19) 0.0166 Uani
C4K C 1.23027(19) 0.6957(2) 0.45929(19) 0.0166 Uani
C5E C 0.7813(2) 0.4368(2) 0.7322(2) 0.0259 Uani
C5K C 1.2322(2) 0.7187(2) 0.5632(2) 0.0259 Uani
H4E H 0.8404 0.3999 0.7315 0.0390 Uiso
H4K H 1.2315 0.6596 0.6001 0.0390 Uiso
H5E H 0.7430 0.4204 0.6763 0.0390 Uiso
H5K H 1.1763 0.7570 0.5796 0.0390 Uiso
H6E H 0.7453 0.4220 0.7901 0.0390 Uiso
H6K H 1.2901 0.7547 0.5780 0.0390 Uiso
C6E C 0.9745(2) 0.5051(2) 0.7374(2) 0.0210 Uani
C6K C 1.2374(2) 0.5255(2) 0.4949(2) 0.0210 Uani
N1E N 1.03684(19) 0.45266(18) 0.7366(2) 0.0265 Uani
N1K N 1.2366(2) 0.46316(19) 0.54734(18) 0.0265 Uani
C7 C 0.5614(2) 0.5614(2) 0.5614(2) 0.0286 Uani
H7 H 0.6024 0.6024 0.6024 0.0340 Uiso
Cl1 Cl 0.63661(13) 0.49354(11) 0.48990(9) 0.0791 Uani
Cl1D Cl 0.48990(9) 0.63661(13) 0.49354(11) 0.0791 Uani
Cl1H Cl 0.49354(11) 0.48990(9) 0.63661(13) 0.0791 Uani
P1 P 0.95606(6) 0.54394(6) 0.45606(6) 0.0321 Uani
F1 F 0.91883(18) 0.46825(17) 0.53174(18) 0.0493 Uani
F2 F 0.8819(2) 0.5012(3) 0.3827(2) 0.0957 Uani
F1E F 1.03174(18) 0.58117(18) 0.53175(17) 0.0493 Uani
F1K F 1.03175(17) 0.46826(18) 0.41883(18) 0.0493 Uani
F2E F 0.8827(2) 0.6181(2) 0.4988(3) 0.0957 Uani
F2K F 0.9988(3) 0.6173(2) 0.3819(2) 0.0957 Uani
loop_
_atom_site_aniso_label
_atom_site_aniso_U_11
_atom_site_aniso_U_22
_atom_site_aniso_U_33
_atom_site_aniso_U_23
_atom_site_aniso_U_13
_atom_site_aniso_U_12
Ag1 0.02026(10) 0.02026(10) 0.02026(10) 0.00186(8) -0.00186(8) 0.00186(8)
Al1 0.0137(3) 0.0137(3) 0.0137(3) 0.0000(3) 0.0000(3) 0.0000(3)
O1 0.0149(8) 0.0179(8) 0.0147(8) -0.0009(7) -0.0013(7) 0.0001(7)
O2 0.0142(8) 0.0186(9) 0.0183(9) -0.0006(7) 0.0001(7) 0.0000(7)
C1 0.0251(14) 0.0332(16) 0.0148(13) -0.0007(12) 0.0006(11) -0.0025(13)
C2 0.0231(13) 0.0119(11) 0.0156(12) -0.0021(10) -0.0018(10) -0.0019(10)
C3 0.0174(12) 0.0167(12) 0.0190(13) -0.0010(10) -0.0052(10) 0.0005(10)
C4 0.0142(12) 0.0126(11) 0.0230(13) -0.0028(10) -0.0005(10) -0.0009(9)
C5 0.0158(12) 0.0330(16) 0.0289(15) -0.0049(13) 0.0019(11) -0.0009(12)
C6 0.0177(13) 0.0206(13) 0.0246(14) -0.0025(11) -0.0004(11) 0.0015(11)
N1 0.0212(12) 0.0324(13) 0.0258(13) -0.0005(11) -0.0054(10) 0.0035(10)
Al1A 0.0137 0.0137 0.0137 0 0 0
Al1B 0.0137 0.0137 0.0137 0 0 0
O1E 0.0147 0.0149 0.0179 0.0001 0.0009 0.0013
O1K 0.0179 0.0147 0.0149 0.0013 -0.0001 -0.0009
O1G 0.0147 0.0149 0.0179 -0.0001 -0.0009 0.0013
O1J 0.0179 0.0147 0.0149 -0.0013 -0.0001 0.0009
O2E 0.0183 0.0142 0.0186 0 0.0006 -0.0001
O2K 0.0186 0.0183 0.0142 -0.0001 0 -0.0006
O2G 0.0183 0.0142 0.0186 0 -0.0006 -0.0001
O2J 0.0186 0.0183 0.0142 0.0001 0 0.0006
C1E 0.0148 0.0251 0.0332 -0.0025 0.0007 -0.0006
C1K 0.0332 0.0148 0.0251 -0.0006 0.0025 -0.0007
C2E 0.0156 0.0231 0.0119 -0.0019 0.0021 0.0018
C2K 0.0119 0.0156 0.0231 0.0018 0.0019 -0.0021
C3E 0.019 0.0174 0.0167 0.0005 0.001 0.0052
C3K 0.0167 0.019 0.0174 0.0052 -0.0005 -0.001
C4E 0.023 0.0142 0.0126 -0.0009 0.0028 0.0005
C4K 0.0126 0.023 0.0142 0.0005 0.0009 -0.0028
C5E 0.0289 0.0158 0.033 -0.0009 0.0049 -0.0019
C5K 0.033 0.0289 0.0158 -0.0019 0.0009 -0.0049
C6E 0.0246 0.0177 0.0206 0.0015 0.0025 0.0004
C6K 0.0206 0.0246 0.0177 0.0004 -0.0015 -0.0025
N1E 0.0258 0.0212 0.0324 0.0035 0.0005 0.0054
N1K 0.0324 0.0258 0.0212 0.0054 -0.0035 -0.0005
C7 0.0286(11) 0.0286(11) 0.0286(11) -0.0035(12) -0.0035(12) -0.0035(12)
Cl1 0.1081(12) 0.0820(9) 0.0472(6) -0.0009(6) 0.0240(7) 0.0442(9)
Cl1D 0.0472 0.1081 0.082 0.0442 -0.0009 0.024
Cl1H 0.082 0.0472 0.1081 0.024 0.0442 -0.0009
P1 0.0321(3) 0.0321(3) 0.0321(3) 0.0059(3) -0.0059(3) 0.0059(3)
F1 0.0598(15) 0.0420(12) 0.0461(13) -0.0100(11) 0.0239(11) -0.0223(12)
F2 0.071(2) 0.143(3) 0.073(2) -0.010(2) -0.049(2) -0.002(2)
F1E 0.0461 0.0598 0.042 -0.0223 0.01 -0.0239
F1K 0.042 0.0461 0.0598 -0.0239 0.0223 -0.01
F2E 0.073 0.071 0.143 -0.002 0.01 0.049
F2K 0.143 0.073 0.071 0.049 0.002 -0.01
loop_
_geom_bond_atom_site_label_1
_geom_bond_atom_site_label_2
_geom_bond_site_symmetry_1
_geom_bond_site_symmetry_2
Ag1 N1 1_555 1_555
Al1 O1 1_555 1_555
O1 C2 1_555 1_555
O2 Al1 1_555 1_555
C1 H1 1_555 1_555
H2 C1 1_555 1_555
H3 C1 1_555 1_555
C2 C1 1_555 1_555
C3 C2 1_555 1_555
C4 O2 1_555 1_555
C5 C4 1_555 1_555
H4 C5 1_555 1_555
H5 C5 1_555 1_555
H6 C5 1_555 1_555
C6 C3 1_555 1_555
N1 C6 1_555 1_555
C7 H7 1_555 1_555
Cl1 C7 1_555 1_555
P1 F1 1_555 1_555
F2 P1 1_555 1_555
Al1A O1E 1_555 1_555
Al1B O1K 1_555 1_555
O1E C2E 1_555 1_555
O1K C2K 1_555 1_555
O1G Al1 1_555 1_555
O1J Al1 1_555 1_555
O2E Al1A 1_555 1_555
O2K Al1B 1_555 1_555
O2G Al1 1_555 1_555
O2J Al1 1_555 1_555
C1E H1E 1_555 1_555
C1K H1K 1_555 1_555
H2E C1E 1_555 1_555
H2K C1K 1_555 1_555
H3E C1E 1_555 1_555
H3K C1K 1_555 1_555
C2E C1E 1_555 1_555
C2K C1K 1_555 1_555
C3E C2E 1_555 1_555
C3K C2K 1_555 1_555
C4E O2E 1_555 1_555
C4K O2K 1_555 1_555
C5E C4E 1_555 1_555
C5K C4K 1_555 1_555
H4E C5E 1_555 1_555
H4K C5K 1_555 1_555
H5E C5E 1_555 1_555
H5K C5K 1_555 1_555
H6E C5E 1_555 1_555
H6K C5K 1_555 1_555
C6E C3E 1_555 1_555
C6K C3K 1_555 1_555
N1E Ag1 1_555 1_555
N1K Ag1 1_555 1_555
Cl1D C7 1_555 1_555
Cl1H C7 1_555 1_555
F1E P1 1_555 1_555
F1K P1 1_555 1_555
F2E P1 1_555 1_555
F2K P1 1_555 1_555
C3 C4 1_555 1_555
C3E C4E 1_555 1_555
C3K C4K 1_555 1_555
C6E N1E 1_555 1_555
C6K N1K 1_555 1_555

#END
