
#######################################################################
#
#                 Cambridge Crystallographic Data Centre
#                                CCDC 
#
#######################################################################
#
# If this CIF has been generated from an entry in the Cambridge 
# Structural Database, then it will include bibliographic, chemical, 
# crystal, experimental, refinement or atomic coordinate data resulting 
# from the CCDC's data processing and validation procedures.
#
#######################################################################

data_ONAWEG02
_chemical_formula_moiety         '(C16 H28 Cu1 N13 O5 1+)n'
_symmetry_cell_setting           orthorhombic
_symmetry_space_group_name_H-M   'F d d d'
_symmetry_Int_Tables_number      70
_space_group_name_Hall           '-F 2uv 2vw'
loop_
_symmetry_equiv_pos_site_id
_symmetry_equiv_pos_as_xyz
1 x,y,z
2 1/4-x,1/4-y,z
3 x,1/4-y,1/4-z
4 1/4-x,y,1/4-z
5 x,1/2+y,1/2+z
6 1/4-x,3/4-y,1/2+z
7 x,3/4-y,3/4-z
8 1/4-x,1/2+y,3/4-z
9 1/2+x,y,1/2+z
10 3/4-x,1/4-y,1/2+z
11 1/2+x,1/4-y,3/4-z
12 3/4-x,y,3/4-z
13 1/2+x,1/2+y,z
14 3/4-x,3/4-y,z
15 1/2+x,3/4-y,1/4-z
16 3/4-x,1/2+y,1/4-z
17 -x,-y,-z
18 3/4+x,3/4+y,-z
19 -x,3/4+y,3/4+z
20 3/4+x,-y,3/4+z
21 -x,1/2-y,1/2-z
22 3/4+x,1/4+y,1/2-z
23 -x,1/4+y,1/4+z
24 3/4+x,1/2-y,1/4+z
25 1/2-x,-y,1/2-z
26 1/4+x,3/4+y,1/2-z
27 1/2-x,3/4+y,1/4+z
28 1/4+x,-y,1/4+z
29 1/2-x,1/2-y,-z
30 1/4+x,1/4+y,-z
31 1/2-x,1/4+y,3/4+z
32 1/4+x,1/2-y,3/4+z
_cell_length_a                   16.9982(12)
_cell_length_b                   12.8924(8)
_cell_length_c                   24.7143(16)
_cell_angle_alpha                90
_cell_angle_beta                 90
_cell_angle_gamma                90
_cell_volume                     5416.08
loop_
_atom_site_label
_atom_site_type_symbol
_atom_site_fract_x
_atom_site_fract_y
_atom_site_fract_z
_atom_site_U_iso_or_equiv
_atom_site_thermal_displace_type
Cu1 Cu 0.8750 0.3750 0.8750 0.0198 Uani
C1 C 0.8220(3) 0.1895(4) 0.9428(2) 0.0347 Uani
H1 H 0.7759 0.1820 0.9230 0.0420 Uiso
C2 C 0.9310(3) 0.2484(3) 0.96956(16) 0.0240 Uani
H2 H 0.9765 0.2878 0.9736 0.0290 Uiso
C3 C 0.9584(3) 0.1161(4) 1.04126(18) 0.0357 Uani
H3 H 0.9234 0.0787 1.0653 0.0430 Uiso
H4 H 0.9862 0.1677 1.0625 0.0430 Uiso
C4 C 1.0169(4) 0.0415(5) 1.0173(2) 0.0533 Uani
H5 H 1.0543 0.0807 0.9959 0.0640 Uiso
H6 H 1.0457 0.0090 1.0466 0.0640 Uiso
N1 N 0.8758(2) 0.2650(3) 0.93287(13) 0.0228 Uani
N2 N 0.9120(2) 0.1680(3) 0.99945(14) 0.0293 Uani
N3 N 0.8413(2) 0.1284(3) 0.98284(19) 0.0407 Uani
O1 O 1.0164(2) 0.3750 0.8750 0.0303 Uani
H7 H 1.0456 0.3213 0.8758 0.0360 Uiso
Cu1P Cu 1.1250 -0.3750 1.1250 0.0198 Uani
Cu1R Cu 1.1250 1.1250 0.6250 0.0198 Uani
C1P C 1.1780(3) -0.1895(4) 1.0572(2) 0.0347 Uani
C1F C 0.8220(3) 0.5605(4) 0.8072(2) 0.0347 Uani
C1R C 1.1780(3) 0.9395(4) 0.6928(2) 0.0347 Uani
H1P H 1.2241 -0.1820 1.0770 0.0420 Uiso
H1F H 0.7759 0.5680 0.8270 0.0420 Uiso
H1R H 1.2241 0.9320 0.6730 0.0420 Uiso
C2P C 1.0690(3) -0.2484(3) 1.03044(16) 0.0240 Uani
C2F C 0.9310(3) 0.5016(3) 0.78044(16) 0.0240 Uani
C2R C 1.0690(3) 0.9984(3) 0.71956(16) 0.0240 Uani
H2P H 1.0235 -0.2878 1.0264 0.0290 Uiso
H2F H 0.9765 0.4622 0.7764 0.0290 Uiso
H2R H 1.0235 1.0378 0.7236 0.0290 Uiso
C3P C 1.0416(3) -0.1161(4) 0.95874(18) 0.0357 Uani
C3F C 0.9584(3) 0.6339(4) 0.70874(18) 0.0357 Uani
C3R C 1.0416(3) 0.8661(4) 0.79126(18) 0.0357 Uani
H3P H 1.0766 -0.0787 0.9347 0.0430 Uiso
H3F H 0.9234 0.6713 0.6847 0.0430 Uiso
H3R H 1.0766 0.8287 0.8153 0.0430 Uiso
H4P H 1.0138 -0.1677 0.9375 0.0430 Uiso
H4F H 0.9862 0.5823 0.6875 0.0430 Uiso
H4R H 1.0138 0.9177 0.8125 0.0430 Uiso
C4P C 0.9831(4) -0.0415(5) 0.9827(2) 0.0533 Uani
C4F C 1.0169(4) 0.7085(5) 0.7327(2) 0.0533 Uani
C4R C 0.9831(4) 0.7915(5) 0.7673(2) 0.0533 Uani
H5P H 0.9457 -0.0807 1.0041 0.0640 Uiso
H5F H 1.0543 0.6693 0.7541 0.0640 Uiso
H5R H 0.9457 0.8307 0.7459 0.0640 Uiso
H6P H 0.9543 -0.0090 0.9534 0.0640 Uiso
H6F H 1.0457 0.7410 0.7034 0.0640 Uiso
H6R H 0.9543 0.7590 0.7966 0.0640 Uiso
N1P N 1.1242(2) -0.2650(3) 1.06713(13) 0.0228 Uani
N1F N 0.8758(2) 0.4850(3) 0.81713(13) 0.0228 Uani
N1R N 1.1242(2) 1.0150(3) 0.68287(13) 0.0228 Uani
N1K N 0.8742(2) 0.2650(3) 0.81713(13) 0.0228 Uani
N1M N 0.8742(2) 0.4850(3) 0.93287(13) 0.0228 Uani
N2P N 1.0880(2) -0.1680(3) 1.00055(14) 0.0293 Uani
N2F N 0.9120(2) 0.5820(3) 0.75055(14) 0.0293 Uani
N2R N 1.0880(2) 0.9180(3) 0.74945(14) 0.0293 Uani
N3P N 1.1587(2) -0.1284(3) 1.01716(19) 0.0407 Uani
N3F N 0.8413(2) 0.6216(3) 0.76716(19) 0.0407 Uani
N3R N 1.1587(2) 0.8784(3) 0.73284(19) 0.0407 Uani
O1K O 0.7336(2) 0.3750 0.8750 0.0303 Uani
H7F H 1.0456 0.4287 0.8742 0.0360 Uiso
H7K H 0.7044 0.3213 0.8742 0.0360 Uiso
H7M H 0.7044 0.4287 0.8758 0.0360 Uiso
N4 N 0.1250 0.1250 0.8753(2) 0.0377 Uani
O2 O 0.1673(4) 0.0632(6) 0.8971(3) 0.0379 Uani
O3 O 0.1250 0.1250 0.8264(4) 0.0391 Uani
O2A O 0.0827(4) 0.1868(6) 0.8971(3) 0.0379 Uani
loop_
_atom_site_aniso_label
_atom_site_aniso_U_11
_atom_site_aniso_U_22
_atom_site_aniso_U_33
_atom_site_aniso_U_23
_atom_site_aniso_U_13
_atom_site_aniso_U_12
Cu1 0.0206(6) 0.0121(5) 0.0268(6) 0.000 0.000 0.000
C1 0.023(2) 0.030(3) 0.051(3) 0.014(2) -0.006(2) -0.005(2)
C2 0.023(2) 0.020(2) 0.029(2) 0.0009(18) 0.0041(19) -0.0008(19)
C3 0.035(3) 0.043(3) 0.029(2) 0.013(2) -0.002(2) 0.007(2)
C4 0.058(4) 0.057(4) 0.045(3) 0.009(3) -0.017(3) 0.019(3)
N1 0.0197(18) 0.0183(17) 0.0303(18) 0.0027(15) -0.0010(15) -0.0009(15)
N2 0.024(2) 0.033(2) 0.031(2) 0.0070(17) 0.0013(16) 0.0021(18)
N3 0.024(2) 0.039(2) 0.059(3) 0.025(2) -0.001(2) -0.003(2)
O1 0.021(2) 0.029(2) 0.041(2) -0.001(2) 0.000 0.000
Cu1P 0.0206 0.0121 0.0268 0 0 0
Cu1R 0.0206 0.0121 0.0268 0 0 0
C1P 0.023 0.03 0.051 0.014 -0.006 -0.005
C1F 0.023 0.03 0.051 0.014 0.006 0.005
C1R 0.023 0.03 0.051 0.014 0.006 0.005
C2P 0.023 0.02 0.029 0.0009 0.0041 -0.0008
C2F 0.023 0.02 0.029 0.0009 -0.0041 0.0008
C2R 0.023 0.02 0.029 0.0009 -0.0041 0.0008
C3P 0.035 0.043 0.029 0.013 -0.002 0.007
C3F 0.035 0.043 0.029 0.013 0.002 -0.007
C3R 0.035 0.043 0.029 0.013 0.002 -0.007
C4P 0.058 0.057 0.045 0.009 -0.017 0.019
C4F 0.058 0.057 0.045 0.009 0.017 -0.019
C4R 0.058 0.057 0.045 0.009 0.017 -0.019
N1P 0.0197 0.0183 0.0303 0.0027 -0.001 -0.0009
N1F 0.0197 0.0183 0.0303 0.0027 0.001 0.0009
N1R 0.0197 0.0183 0.0303 0.0027 0.001 0.0009
N1K 0.0197 0.0183 0.0303 -0.0027 -0.001 0.0009
N1M 0.0197 0.0183 0.0303 -0.0027 0.001 -0.0009
N2P 0.024 0.033 0.031 0.007 0.0013 0.0021
N2F 0.024 0.033 0.031 0.007 -0.0013 -0.0021
N2R 0.024 0.033 0.031 0.007 -0.0013 -0.0021
N3P 0.024 0.039 0.059 0.025 -0.001 -0.003
N3F 0.024 0.039 0.059 0.025 0.001 0.003
N3R 0.024 0.039 0.059 0.025 0.001 0.003
O1K 0.021 0.029 0.041 0.001 0 0
N4 0.0380(11) 0.0370(11) 0.0382(11) 0.000 0.000 0.0006(6)
O2 0.0380(12) 0.0368(12) 0.0390(12) 0.0006(7) 0.0002(7) 0.0012(8)
O3 0.0391(14) 0.0391(14) 0.0390(14) 0.000 0.000 0.0004(9)
O2A 0.038 0.0368 0.039 -0.0006 -0.0002 0.0012
loop_
_geom_bond_atom_site_label_1
_geom_bond_atom_site_label_2
_geom_bond_site_symmetry_1
_geom_bond_site_symmetry_2
Cu1 N1 1_555 1_555
C1 H1 1_555 1_555
C2 H2 1_555 1_555
C3 H3 1_555 1_555
H4 C3 1_555 1_555
C4 C3 1_555 1_555
H5 C4 1_555 1_555
H6 C4 1_555 1_555
N1 C1 1_555 1_555
N2 C2 1_555 1_555
N3 C1 1_555 1_555
N4 O2 1_555 1_555
O1 Cu1 1_555 1_555
H7 O1 1_555 1_555
O3 N4 1_555 1_555
Cu1P N1P 1_555 1_555
Cu1R N1R 1_555 1_555
C1P H1P 1_555 1_555
C1F H1F 1_555 1_555
C1R H1R 1_555 1_555
C2P H2P 1_555 1_555
C2F H2F 1_555 1_555
C2R H2R 1_555 1_555
C3P H3P 1_555 1_555
C3F H3F 1_555 1_555
C3R H3R 1_555 1_555
H4P C3P 1_555 1_555
H4F C3F 1_555 1_555
H4R C3R 1_555 1_555
C4P C4 1_555 1_555
C4F C3F 1_555 1_555
C4R C3R 1_555 1_555
H5P C4P 1_555 1_555
H5F C4F 1_555 1_555
H5R C4R 1_555 1_555
H6P C4P 1_555 1_555
H6F C4F 1_555 1_555
H6R C4R 1_555 1_555
N1P C1P 1_555 1_555
N1F Cu1 1_555 1_555
N1R C1R 1_555 1_555
N1K Cu1 1_555 1_555
N1M Cu1 1_555 1_555
N2P C2P 1_555 1_555
N2F C2F 1_555 1_555
N2R C2R 1_555 1_555
N3P C1P 1_555 1_555
N3F C1F 1_555 1_555
N3R C1R 1_555 1_555
O1K Cu1 1_555 1_555
H7F O1 1_555 1_555
H7K O1K 1_555 1_555
H7M O1K 1_555 1_555
O2A N4 1_555 1_555
C2 N1 1_555 1_555
C3 N2 1_555 1_555
N2 N3 1_555 1_555
C1F N1F 1_555 1_555
C2P N1P 1_555 1_555
C2F N1F 1_555 1_555
C2R N1R 1_555 1_555
C3P C4P 1_555 1_555
C3P N2P 1_555 1_555
C3F N2F 1_555 1_555
C3R N2R 1_555 1_555
C4F C4R 1_555 1_555
N2P N3P 1_555 1_555
N2F N3F 1_555 1_555
N2R N3R 1_555 1_555

#END
