
#######################################################################
#
#                 Cambridge Crystallographic Data Centre
#                                CCDC 
#
#######################################################################
#
# If this CIF has been generated from an entry in the Cambridge 
# Structural Database, then it will include bibliographic, chemical, 
# crystal, experimental, refinement or atomic coordinate data resulting 
# from the CCDC's data processing and validation procedures.
#
#######################################################################

data_OLOPOW
_chemical_formula_moiety         '(C31 H29 Cd1 N5 O6)n'
_symmetry_cell_setting           monoclinic
_symmetry_space_group_name_H-M   'P 21/n'
_symmetry_Int_Tables_number      14
_space_group_name_Hall           '-P 2yn'
loop_
_symmetry_equiv_pos_site_id
_symmetry_equiv_pos_as_xyz
1 x,y,z
2 1/2-x,1/2+y,1/2-z
3 -x,-y,-z
4 1/2+x,1/2-y,1/2+z
_cell_length_a                   9.5711(8)
_cell_length_b                   12.438(1)
_cell_length_c                   26.565(2)
_cell_angle_alpha                90
_cell_angle_beta                 90.493(4)
_cell_angle_gamma                90
_cell_volume                     3162.32
loop_
_atom_site_label
_atom_site_type_symbol
_atom_site_fract_x
_atom_site_fract_y
_atom_site_fract_z
Cd1 Cd 0.31560(7) 0.53898(4) 0.04647(3)
N1 N 0.4271(6) 0.7026(5) 0.0547(3)
N2 N 0.7735(7) 0.9939(5) 0.0399(4)
N3 N 0.8496(7) 1.0880(5) 0.0370(3)
N4 N 1.2153(7) 1.3698(5) 0.0441(3)
C1 C 0.5578(10) 0.7105(7) 0.0426(4)
H1 H 0.6049 0.6466 0.0329
C2 C 0.6333(9) 0.8053(6) 0.0427(4)
H2 H 0.7285 0.8054 0.0330
C3 C 0.5704(9) 0.8985(6) 0.0569(4)
C4 C 0.4325(11) 0.8912(8) 0.0715(6)
H3 H 0.3851 0.9529 0.0837
C5 C 0.3637(10) 0.7937(8) 0.0681(5)
H4 H 0.2670 0.7914 0.0758
C6 C 0.6509(9) 1.0007(7) 0.0583(4)
C7 C 0.5908(11) 1.1020(8) 0.0794(6)
H5 H 0.6581 1.1607 0.0755
H6 H 0.5707 1.0918 0.1151
H7 H 0.5042 1.1199 0.0612
C8 C 1.2518(9) 1.2940(7) 0.0767(4)
H8 H 1.3318 1.3053 0.0974
C9 C 1.1783(11) 1.1992(6) 0.0818(4)
H9 H 1.2085 1.1463 0.1052
C10 C 1.0594(8) 1.1817(6) 0.0522(4)
C11 C 1.0227(9) 1.2617(6) 0.0177(3)
H10 H 0.9436 1.2524 -0.0037
C12 C 1.1017(9) 1.3547(6) 0.0148(3)
H11 H 1.0750 1.4091 -0.0084
C13 C 0.9719(9) 1.0829(6) 0.0580(4)
C14 C 1.0262(12) 0.9902(8) 0.0875(5)
H12 H 0.9670 0.9272 0.0813
H13 H 1.0255 1.0080 0.1234
H14 H 1.1221 0.9743 0.0771
C15 C 0.1229(10) 0.5865(8) 0.1180(4)
C16 C 0.0055(16) 0.6081(11) 0.1545(5)
C17 C 0.0005(14) 0.5630(11) 0.2024(5)
H15 H 0.0674 0.5106 0.2122
C18 C -0.1026(12) 0.5948(11) 0.2358(4)
H16 H -0.1061 0.5640 0.2685
C19 C -0.2006(8) 0.6716(9) 0.2214(3)
C20 C -0.1956(11) 0.7167(9) 0.1735(4)
H17 H -0.2626 0.7691 0.1637
C21 C -0.0925(16) 0.6849(11) 0.1401(5)
H18 H -0.0891 0.7157 0.1074
C22 C -0.0941(17) 0.8719(13) 0.3411(6)
H19 H -0.0040 0.9035 0.3439
C23 C -0.1893(19) 0.8842(18) 0.3795(7)
C24 C -0.3203(19) 0.8382(18) 0.3754(6)
H20 H -0.3858 0.8467 0.4017
C25 C -0.3561(16) 0.7800(13) 0.3329(5)
H21 H -0.4462 0.7484 0.3301
C26 C -0.2609(14) 0.7677(12) 0.2945(4)
C27 C -0.1299(14) 0.8136(12) 0.2986(4)
H22 H -0.0644 0.8052 0.2723
O1 O -0.3069(15) 0.7083(13) 0.2524(4)
C28 C -0.1436(9) 0.9321(6) 0.4323(4)
O2 O 0.2237(8) 0.5337(7) 0.1355(3)
O3 O 0.1133(6) 0.6165(5) 0.0733(2)
O4 O -0.0187(7) 0.9543(5) 0.4395(3)
O5 O -0.2396(7) 0.9393(5) 0.4647(2)
Cd1_2 Cd 1.31560(7) 1.53898(4) 0.04647(3)
Cd1A Cd 0.18440(7) 1.03898(4) 0.45353(3)
Cd1C Cd -0.18440(7) 0.96102(4) 0.54647(3)
N4_2 N 0.2153(7) 0.3698(5) 0.0441(3)
O4A O 0.5187(7) 0.4543(5) 0.0605(3)
O5C O 0.2604(7) 0.5607(5) -0.0353(2)
O7 O 0.183(3) 0.549(3) 0.3238(9)
N5 N 0.320(5) 0.644(3) 0.2587(14)
C41 C 0.354(5) 0.733(5) 0.2268(16)
H31 H 0.3527 0.7093 0.1916
H32 H 0.4468 0.7603 0.2356
H33 H 0.2844 0.7900 0.2313
C42 C 0.401(4) 0.549(3) 0.2498(14)
H34 H 0.4835 0.5669 0.2299
H35 H 0.3438 0.4963 0.2312
H36 H 0.4306 0.5175 0.2820
C43 C 0.205(4) 0.641(4) 0.2976(13)
H37 H 0.1491 0.7026 0.3034
loop_
_geom_bond_atom_site_label_1
_geom_bond_atom_site_label_2
_geom_bond_site_symmetry_1
_geom_bond_site_symmetry_2
Cd1 N1 1_555 1_555
N1 C1 1_555 1_555
N2 N3 1_555 1_555
N3 C13 1_555 1_555
N4 C8 1_555 1_555
C1 H1 1_555 1_555
C2 C1 1_555 1_555
H2 C2 1_555 1_555
C3 C2 1_555 1_555
C4 C3 1_555 1_555
H3 C4 1_555 1_555
C5 N1 1_555 1_555
H4 C5 1_555 1_555
C6 N2 1_555 1_555
C7 C6 1_555 1_555
H5 C7 1_555 1_555
H6 C7 1_555 1_555
H7 C7 1_555 1_555
C8 H8 1_555 1_555
C9 C8 1_555 1_555
H9 C9 1_555 1_555
C10 C9 1_555 1_555
C11 C10 1_555 1_555
H10 C11 1_555 1_555
C12 N4 1_555 1_555
H11 C12 1_555 1_555
C13 C10 1_555 1_555
C14 C13 1_555 1_555
H12 C14 1_555 1_555
H13 C14 1_555 1_555
H14 C14 1_555 1_555
C15 C16 1_555 1_555
C16 C17 1_555 1_555
C17 H15 1_555 1_555
C18 C17 1_555 1_555
H16 C18 1_555 1_555
C19 C18 1_555 1_555
C20 C19 1_555 1_555
H17 C20 1_555 1_555
C21 C16 1_555 1_555
H18 C21 1_555 1_555
C22 H19 1_555 1_555
C23 C22 1_555 1_555
C24 C23 1_555 1_555
H20 C24 1_555 1_555
C25 C24 1_555 1_555
H21 C25 1_555 1_555
C26 C25 1_555 1_555
C27 C22 1_555 1_555
H22 C27 1_555 1_555
O1 C19 1_555 1_555
C28 C23 1_555 1_555
O2 Cd1 1_555 1_555
O3 Cd1 1_555 1_555
O4 C28 1_555 1_555
O5 C28 1_555 1_555
O7 C43 1_555 1_555
N5 C41 1_555 1_555
C41 H31 1_555 1_555
H32 C41 1_555 1_555
H33 C41 1_555 1_555
C42 N5 1_555 1_555
H34 C42 1_555 1_555
H35 C42 1_555 1_555
H36 C42 1_555 1_555
C43 N5 1_555 1_555
H37 C43 1_555 1_555
Cd1_2 N4 1_555 1_555
Cd1A O4 1_555 1_555
Cd1C O5 1_555 1_555
N4_2 Cd1 1_555 1_555
O4A Cd1 1_555 1_555
O5C Cd1 1_555 1_555
C3 C6 1_555 1_555
C4 C5 1_555 1_555
C11 C12 1_555 1_555
C15 O2 1_555 1_555
C15 O3 1_555 1_555
C20 C21 1_555 1_555
C26 C27 1_555 1_555
C26 O1 1_555 1_555

#END
