
#######################################################################
#
#                 Cambridge Crystallographic Data Centre
#                                CCDC 
#
#######################################################################
#
# If this CIF has been generated from an entry in the Cambridge 
# Structural Database, then it will include bibliographic, chemical, 
# crystal, experimental, refinement or atomic coordinate data resulting 
# from the CCDC's data processing and validation procedures.
#
#######################################################################

data_OLOPEM
_chemical_formula_moiety         '(C45 H37 N5 O11 Zn2)n'
_symmetry_cell_setting           monoclinic
_symmetry_space_group_name_H-M   'C 2/c'
_symmetry_Int_Tables_number      15
_space_group_name_Hall           '-C 2yc'
loop_
_symmetry_equiv_pos_site_id
_symmetry_equiv_pos_as_xyz
1 x,y,z
2 -x,y,1/2-z
3 1/2+x,1/2+y,z
4 1/2-x,1/2+y,1/2-z
5 -x,-y,-z
6 x,-y,1/2+z
7 1/2-x,1/2-y,-z
8 1/2+x,1/2-y,1/2+z
_cell_length_a                   26.982(13)
_cell_length_b                   8.033(4)
_cell_length_c                   23.293(12)
_cell_angle_alpha                90
_cell_angle_beta                 98.992(9)
_cell_angle_gamma                90
_cell_volume                     4986.63
loop_
_atom_site_label
_atom_site_type_symbol
_atom_site_fract_x
_atom_site_fract_y
_atom_site_fract_z
O1 O -0.01395(12) 0.2334(4) 0.04153(17)
O2 O -0.07441(14) 0.0469(5) 0.04215(18)
O3 O -0.14745(17) 0.6099(7) 0.1966(2)
O4 O -0.06114(14) 0.9950(5) 0.42339(17)
O5 O -0.00136(14) 0.8083(5) 0.42418(16)
N1 N 0.09385(13) 0.3019(5) 0.01482(17)
N2 N 0.23422(17) 0.6798(6) -0.0009(2)
C1 C -0.05422(18) 0.1841(6) 0.0556(2)
C2 C -0.07992(18) 0.2987(7) 0.0912(2)
C3 C -0.1220(2) 0.2491(9) 0.1141(3)
H1 H -0.1354 0.1436 0.1059
C4 C -0.1440(2) 0.3568(10) 0.1492(3)
H2 H -0.1728 0.3243 0.1637
C5 C -0.1246(2) 0.5042(10) 0.1620(3)
C6 C -0.0839(2) 0.5631(8) 0.1374(3)
H3 H -0.0720 0.6711 0.1444
C7 C -0.06202(19) 0.4576(7) 0.1029(2)
H4 H -0.0344 0.4938 0.0869
C8 C -0.1191(2) 0.6749(10) 0.2458(3)
C9 C -0.1362(2) 0.8146(11) 0.2677(3)
H5 H -0.1649 0.8663 0.2485
C10 C -0.1109(3) 0.8811(8) 0.3187(3)
H6 H -0.1232 0.9765 0.3342
C11 C -0.06782(18) 0.8086(7) 0.3469(2)
C12 C -0.0514(2) 0.6643(7) 0.3229(2)
H7 H -0.0226 0.6118 0.3414
C13 C -0.0766(2) 0.5978(8) 0.2731(3)
H8 H -0.0650 0.5010 0.2577
C14 C -0.04142(19) 0.8751(6) 0.4020(2)
C15 C 0.13486(18) 0.2921(6) -0.0096(3)
H9 H 0.1399 0.1973 -0.0308
C16 C 0.17047(19) 0.4166(7) -0.0048(3)
H10 H 0.1991 0.4038 -0.0221
C17 C 0.16389(18) 0.5570(7) 0.0249(2)
C18 C 0.1218(2) 0.5675(8) 0.0510(3)
H11 H 0.1157 0.6617 0.0720
C19 C 0.0882(2) 0.4326(7) 0.0454(3)
H12 H 0.0604 0.4379 0.0645
C20 C 0.19881(19) 0.6990(7) 0.0280(3)
C21 C 0.1896(3) 0.8478(9) 0.0620(5)
H13 H 0.1992 0.8251 0.1027
H14 H 0.1545 0.8755 0.0544
H15 H 0.2089 0.9394 0.0510
Zn1 Zn 0.039809(17) 0.12477(6) 0.00164(2)
N1F N 0.40615(13) 1.1981(5) -0.01482(17)
N2F N 0.26578(17) 0.8202(6) 0.0009(2)
C15F C 0.36514(18) 1.2079(6) 0.0096(3)
H9F H 0.3601 1.3027 0.0308
C16F C 0.32953(19) 1.0834(7) 0.0048(3)
H10F H 0.3009 1.0962 0.0221
C17F C 0.33611(18) 0.9430(7) -0.0249(2)
C18F C 0.3782(2) 0.9325(8) -0.0510(3)
H11F H 0.3843 0.8383 -0.0720
C19F C 0.4118(2) 1.0674(7) -0.0454(3)
H12F H 0.4396 1.0621 -0.0645
C20F C 0.30119(19) 0.8010(7) -0.0280(3)
C21F C 0.3104(3) 0.6522(9) -0.0620(5)
H13F H 0.3008 0.6749 -0.1027
H14F H 0.3455 0.6245 -0.0544
H15F H 0.2911 0.5606 -0.0510
O1D O 0.01395(12) -0.2334(4) -0.04153(17)
O2D O 0.07441(14) -0.0469(5) -0.04215(18)
O3D O 0.14745(17) -0.6099(7) -0.1966(2)
O4D O 0.06114(14) -0.9950(5) -0.42339(17)
O5D O 0.00136(14) -0.8083(5) -0.42418(16)
C1D C 0.05422(18) -0.1841(6) -0.0556(2)
C2D C 0.07992(18) -0.2987(7) -0.0912(2)
C3D C 0.1220(2) -0.2491(9) -0.1141(3)
H1D H 0.1354 -0.1436 -0.1059
C4D C 0.1440(2) -0.3568(10) -0.1492(3)
H2D H 0.1728 -0.3243 -0.1637
C5D C 0.1246(2) -0.5042(10) -0.1620(3)
C6D C 0.0839(2) -0.5631(8) -0.1374(3)
H3D H 0.0720 -0.6711 -0.1444
C7D C 0.06202(19) -0.4576(7) -0.1029(2)
H4D H 0.0344 -0.4938 -0.0869
C8D C 0.1191(2) -0.6749(10) -0.2458(3)
C9D C 0.1362(2) -0.8146(11) -0.2677(3)
H5D H 0.1649 -0.8663 -0.2485
C10D C 0.1109(3) -0.8811(8) -0.3187(3)
H6D H 0.1232 -0.9765 -0.3342
C11D C 0.06782(18) -0.8086(7) -0.3469(2)
C12D C 0.0514(2) -0.6643(7) -0.3229(2)
H7D H 0.0226 -0.6118 -0.3414
C13D C 0.0766(2) -0.5978(8) -0.2731(3)
H8D H 0.0650 -0.5010 -0.2577
C14D C 0.04142(19) -0.8751(6) -0.4020(2)
Zn1D Zn -0.039809(17) -0.12477(6) -0.00164(2)
O4A O 0.06114(14) -0.0050(5) 0.07661(17)
O4E O -0.06114(14) 0.0050(5) -0.07661(17)
O5A O 0.00136(14) -0.1917(5) 0.07582(16)
O5E O -0.00136(14) 0.1917(5) -0.07582(16)
N1D N -0.09385(13) -0.3019(5) -0.01482(17)
Zn1A Zn -0.039809(17) -0.87523(6) -0.50164(2)
Zn1A_2 Zn -0.039809(17) 1.12477(6) 0.49836(2)
Zn1E Zn 0.039809(17) -1.12477(6) -0.49836(2)
Zn1E_2 Zn 0.039809(17) 0.87523(6) 0.50164(2)
Zn1F Zn 0.460191(17) 1.37523(6) -0.00164(2)
N3 N 0.2350(4) 0.3692(12) 0.1594(5)
C22 C 0.2691(10) 0.385(3) 0.1178(12)
H16 H 0.2805 0.2759 0.1085
H17 H 0.2974 0.4510 0.1341
H18 H 0.2522 0.4368 0.0831
C23 C 0.2097(10) 0.228(4) 0.1533(12)
H19 H 0.2325 0.1362 0.1606
H20 H 0.1917 0.2204 0.1145
H21 H 0.1864 0.2251 0.1805
C24 C 0.2317(6) 0.5051(17) 0.1921(6)
H22 H 0.2062 0.5094 0.2146
O6 O 0.2599(6) 0.6217(17) 0.1939(6)
loop_
_geom_bond_atom_site_label_1
_geom_bond_atom_site_label_2
_geom_bond_site_symmetry_1
_geom_bond_site_symmetry_2
O1 C1 1_555 1_555
O2 C1 1_555 1_555
O3 C5 1_555 1_555
O4 C14 1_555 1_555
O5 C14 1_555 1_555
N1 C15 1_555 1_555
N2 C20 1_555 1_555
C1 C2 1_555 1_555
C2 C3 1_555 1_555
C3 H1 1_555 1_555
C4 C3 1_555 1_555
H2 C4 1_555 1_555
C5 C4 1_555 1_555
C6 C5 1_555 1_555
H3 C6 1_555 1_555
C7 C2 1_555 1_555
H4 C7 1_555 1_555
C8 O3 1_555 1_555
C9 C8 1_555 1_555
H5 C9 1_555 1_555
C10 C9 1_555 1_555
H6 C10 1_555 1_555
C11 C10 1_555 1_555
C12 C11 1_555 1_555
H7 C12 1_555 1_555
C13 C8 1_555 1_555
H8 C13 1_555 1_555
C14 C11 1_555 1_555
C15 H9 1_555 1_555
C16 C15 1_555 1_555
H10 C16 1_555 1_555
C17 C16 1_555 1_555
C18 C17 1_555 1_555
H11 C18 1_555 1_555
C19 N1 1_555 1_555
H12 C19 1_555 1_555
C20 C17 1_555 1_555
C21 C20 1_555 1_555
H13 C21 1_555 1_555
H14 C21 1_555 1_555
H15 C21 1_555 1_555
Zn1 O1 1_555 1_555
N3 C22 1_555 1_555
C22 H16 1_555 1_555
H17 C22 1_555 1_555
H18 C22 1_555 1_555
C23 N3 1_555 1_555
H19 C23 1_555 1_555
H20 C23 1_555 1_555
H21 C23 1_555 1_555
C24 N3 1_555 1_555
H22 C24 1_555 1_555
O6 C24 1_555 1_555
N1F C15F 1_555 1_555
N2F N2 1_555 1_555
C15F H9F 1_555 1_555
C16F C15F 1_555 1_555
H10F C16F 1_555 1_555
C17F C16F 1_555 1_555
C18F C17F 1_555 1_555
H11F C18F 1_555 1_555
C19F N1F 1_555 1_555
H12F C19F 1_555 1_555
C20F N2F 1_555 1_555
C21F C20F 1_555 1_555
H13F C21F 1_555 1_555
H14F C21F 1_555 1_555
H15F C21F 1_555 1_555
O1D C1D 1_555 1_555
O2D Zn1 1_555 1_555
O3D C5D 1_555 1_555
O4D C14D 1_555 1_555
O5D C14D 1_555 1_555
C1D O2D 1_555 1_555
C2D C1D 1_555 1_555
C3D C2D 1_555 1_555
H1D C3D 1_555 1_555
C4D C3D 1_555 1_555
H2D C4D 1_555 1_555
C5D C4D 1_555 1_555
C6D C5D 1_555 1_555
H3D C6D 1_555 1_555
C7D C2D 1_555 1_555
H4D C7D 1_555 1_555
C8D O3D 1_555 1_555
C9D C8D 1_555 1_555
H5D C9D 1_555 1_555
C10D C9D 1_555 1_555
H6D C10D 1_555 1_555
C11D C10D 1_555 1_555
C12D C11D 1_555 1_555
H7D C12D 1_555 1_555
C13D C8D 1_555 1_555
H8D C13D 1_555 1_555
C14D C11D 1_555 1_555
Zn1D O2 1_555 1_555
O4A Zn1 1_555 1_555
O4E Zn1D 1_555 1_555
O5A Zn1D 1_555 1_555
O5E Zn1 1_555 1_555
N1D Zn1D 1_555 1_555
Zn1A O5D 1_555 1_555
Zn1A_2 O4 1_555 1_555
Zn1E O4D 1_555 1_555
Zn1E_2 O5 1_555 1_555
Zn1F N1F 1_555 1_555
N1 Zn1 1_555 1_555
C6 C7 1_555 1_555
C12 C13 1_555 1_555
C18 C19 1_555 1_555
C17F C20F 1_555 1_555
C18F C19F 1_555 1_555
O1D Zn1D 1_555 1_555
C6D C7D 1_555 1_555
C12D C13D 1_555 1_555

#END
