
#######################################################################
#
#                 Cambridge Crystallographic Data Centre
#                                CCDC 
#
#######################################################################
#
# If this CIF has been generated from an entry in the Cambridge 
# Structural Database, then it will include bibliographic, chemical, 
# crystal, experimental, refinement or atomic coordinate data resulting 
# from the CCDC's data processing and validation procedures.
#
#######################################################################

data_HASNUN
_chemical_formula_moiety         '(C24 H26 Eu4 N4 O38 2-)n'
_symmetry_cell_setting           monoclinic
_symmetry_space_group_name_H-M   'P 21/n'
_symmetry_Int_Tables_number      14
_space_group_name_Hall           '-P 2yn'
loop_
_symmetry_equiv_pos_site_id
_symmetry_equiv_pos_as_xyz
1 x,y,z
2 1/2-x,1/2+y,1/2-z
3 -x,-y,-z
4 1/2+x,1/2-y,1/2+z
_cell_length_a                   10.05316(9)
_cell_length_b                   17.72727(17)
_cell_length_c                   14.44514(17)
_cell_angle_alpha                90
_cell_angle_beta                 99.1201(10)
_cell_angle_gamma                90
_cell_volume                     2541.8
loop_
_atom_site_label
_atom_site_type_symbol
_atom_site_fract_x
_atom_site_fract_y
_atom_site_fract_z
Eu1 Eu 0.49671(3) 0.124722(19) 0.15635(3)
Eu2 Eu 0.51861(3) -0.159090(19) 0.40800(2)
O1 O 0.3699(5) -0.0618(3) 0.3271(4)
O2 O 0.5822(5) -0.1114(3) 0.2595(4)
O3 O 0.6147(5) 0.0038(3) 0.2021(4)
O4 O 0.3894(5) 0.0510(3) 0.2626(4)
C1 C 0.5532(7) -0.0431(4) 0.2430(5)
C2 C 0.4251(6) -0.0151(4) 0.2805(5)
O5 O 0.7404(5) 0.1425(3) 0.1604(4)
O6 O 0.5649(5) 0.2547(3) 0.1238(4)
O7 O 0.3134(5) 0.1808(3) 0.0449(4)
O8 O 0.3362(5) 0.2021(3) 0.2286(4)
O9 O 0.6072(6) 0.1627(3) 0.3152(4)
H1 H 0.6506 0.2037 0.3117
H2 H 0.6616 0.1282 0.3384
O10 O 0.5730(6) 0.0892(3) 0.0093(4)
O11 O 0.4176(5) -0.0835(3) 0.5212(4)
O12 O 0.1423(5) 0.2634(3) 0.0226(4)
O13 O 0.9051(5) 0.2168(3) 0.1259(4)
O14 O 0.6210(5) -0.0127(3) -0.0717(4)
O15 O 0.1587(5) 0.2806(3) 0.2064(4)
O16 O 0.7334(5) 0.3294(3) 0.0938(4)
C3 C 0.2431(7) 0.2370(4) 0.1792(5)
C4 C 0.7852(7) 0.2030(4) 0.1357(5)
C5 C 0.5574(7) 0.0221(4) -0.0182(5)
C6 C 0.2315(7) 0.2265(4) 0.0727(5)
C7 C 0.6846(7) 0.2682(3) 0.1161(5)
C8 C 0.4388(7) -0.0142(4) 0.5220(5)
O17 O 0.3741(5) 0.0357(3) 0.5576(4)
O18 O 0.6386(6) -0.1897(3) 0.5644(4)
H3 H 0.6932 -0.2273 0.5614
H4 H 0.654(13) -0.163(6) 0.626(9)
O10B O 0.4270(6) -0.0892(3) -0.0093(4)
O14B O 0.3790(5) 0.0127(3) 0.0717(4)
C5B C 0.4426(7) -0.0221(4) 0.0182(5)
O11B O 0.5824(5) 0.0835(3) 0.4788(4)
C8B C 0.5612(7) 0.0142(4) 0.4780(5)
O17B O 0.6259(5) -0.0357(3) 0.4424(4)
Eu1B Eu 0.50329(3) -0.124722(19) -0.15635(3)
Eu2B Eu 0.48139(3) 0.159090(19) -0.40800(2)
O1B O 0.6301(5) 0.0618(3) -0.3271(4)
O2B O 0.4178(5) 0.1114(3) -0.2595(4)
O3B O 0.3853(5) -0.0038(3) -0.2021(4)
O4B O 0.6106(5) -0.0510(3) -0.2626(4)
C1B C 0.4468(7) 0.0431(4) -0.2430(5)
C2B C 0.5749(6) 0.0151(4) -0.2805(5)
O5B O 0.2596(5) -0.1425(3) -0.1604(4)
O6B O 0.4351(5) -0.2547(3) -0.1238(4)
O7B O 0.6866(5) -0.1808(3) -0.0449(4)
O8B O 0.6638(5) -0.2021(3) -0.2286(4)
O9B O 0.3928(6) -0.1627(3) -0.3152(4)
H1B H 0.3494 -0.2037 -0.3117
H2B H 0.3384 -0.1282 -0.3384
O12B O 0.8577(5) -0.2634(3) -0.0226(4)
O13B O 0.0949(5) -0.2168(3) -0.1259(4)
O15B O 0.8413(5) -0.2806(3) -0.2064(4)
O16B O 0.2666(5) -0.3294(3) -0.0938(4)
C3B C 0.7569(7) -0.2370(4) -0.1792(5)
C4B C 0.2148(7) -0.2030(4) -0.1357(5)
C6B C 0.7685(7) -0.2265(4) -0.0727(5)
C7B C 0.3154(7) -0.2682(3) -0.1161(5)
O18B O 0.3614(6) 0.1897(3) -0.5644(4)
H3B H 0.3068 0.2273 -0.5614
H4B H 0.346(13) 0.163(6) -0.626(9)
Eu2A Eu -0.01861(3) 0.340910(19) 0.09200(2)
Eu2A_2 Eu 0.98139(3) 0.340910(19) 0.09200(2)
Eu2B_2 Eu 0.48139(3) 0.159090(19) 0.59200(2)
Eu2C Eu 0.01861(3) -0.340910(19) -0.09200(2)
Eu2C_2 Eu 1.01861(3) -0.340910(19) -0.09200(2)
O11B_2 O 0.5824(5) 0.0835(3) -0.5212(4)
O12A O 0.3577(5) -0.2366(3) 0.4774(4)
O12C O 0.6423(5) 0.2366(3) -0.4774(4)
O13A O 0.5949(5) -0.2832(3) 0.3741(4)
O13C O 0.4051(5) 0.2832(3) -0.3741(4)
O15A O 0.3413(5) -0.2194(3) 0.2936(4)
O15C O 0.6587(5) 0.2194(3) -0.2936(4)
O16A O 0.7666(5) -0.1706(3) 0.4062(4)
O16C O 0.2334(5) 0.1706(3) -0.4062(4)
O17_2 O 0.3741(5) 0.0357(3) -0.4424(4)
N1 N 0.9997(7) 0.0624(4) 0.3702(6)
C9 C 0.8937(10) 0.0226(7) 0.3837(8)
H5 H 0.8100 0.0424 0.3904
C10 C 1.0081(16) 0.1443(7) 0.3636(13)
H6 H 0.9221 0.1640 0.3357
H7 H 1.0747 0.1575 0.3255
H8 H 1.0330 0.1652 0.4252
N2 N 0.9241(12) -0.0470(6) 0.3863(7)
H9 H 0.8698 -0.0834 0.3928
C11 C 1.1028(11) 0.0132(8) 0.3669(9)
H10 H 1.1906 0.0246 0.3590
C12 C 1.0507(15) -0.0546(7) 0.3774(10)
H11 H 1.0970 -0.1001 0.3783
C13 C 0.8967(10) -0.0410(8) 0.1491(9)
N3 N 0.9029(14) 0.0271(8) 0.1380(11)
H12 H 0.8379 0.0582 0.1402
C14 C 1.047(2) 0.0492(9) 0.1193(11)
H13 H 1.0892 0.0948 0.1099
N4 N 1.0106(12) -0.0741(6) 0.1380(10)
C15 C 1.0314(18) -0.1513(11) 0.1490(18)
H14 H 0.9575 -0.1734 0.1740
H15 H 1.1137 -0.1601 0.1913
H16 H 1.0375 -0.1736 0.0893
C16 C 1.084(2) -0.0172(9) 0.1218(10)
O19 O 0.6684(9) 0.2022(4) -0.0961(5)
H17 H 0.5960 0.1913 -0.0756
H18 H 0.6682 0.1811 -0.1489
O20 O 0.7169(8) -0.2111(4) 0.1529(5)
H19 H 0.6921 -0.1951 0.0974
H20 H 0.6944 -0.1793 0.1918
loop_
_geom_bond_atom_site_label_1
_geom_bond_atom_site_label_2
_geom_bond_site_symmetry_1
_geom_bond_site_symmetry_2
Eu1 O3 1_555 1_555
Eu2 O1 1_555 1_555
O1 C2 1_555 1_555
O2 Eu2 1_555 1_555
O3 C1 1_555 1_555
O4 Eu1 1_555 1_555
C1 O2 1_555 1_555
C2 O4 1_555 1_555
O5 Eu1 1_555 1_555
O6 Eu1 1_555 1_555
O7 Eu1 1_555 1_555
O8 Eu1 1_555 1_555
O9 Eu1 1_555 1_555
H1 O9 1_555 1_555
H2 O9 1_555 1_555
O10 Eu1 1_555 1_555
O11 Eu2 1_555 1_555
O12 C6 1_555 1_555
O13 C4 1_555 1_555
O14 C5 1_555 1_555
O15 C3 1_555 1_555
O16 C7 1_555 1_555
C3 O8 1_555 1_555
C4 O5 1_555 1_555
C5 O10 1_555 1_555
C6 O7 1_555 1_555
C7 O6 1_555 1_555
C8 O11 1_555 1_555
O17 C8 1_555 1_555
O18 Eu2 1_555 1_555
H3 O18 1_555 1_555
H4 O18 1_555 1_555
N1 C9 1_555 1_555
C9 H5 1_555 1_555
C10 N1 1_555 1_555
H6 C10 1_555 1_555
H7 C10 1_555 1_555
H8 C10 1_555 1_555
N2 C9 1_555 1_555
H9 N2 1_555 1_555
C11 N1 1_555 1_555
H10 C11 1_555 1_555
C12 N2 1_555 1_555
H11 C12 1_555 1_555
C13 N3 1_555 1_555
N3 H12 1_555 1_555
C14 N3 1_555 1_555
H13 C14 1_555 1_555
N4 C13 1_555 1_555
C15 N4 1_555 1_555
H14 C15 1_555 1_555
H15 C15 1_555 1_555
H16 C15 1_555 1_555
C16 C14 1_555 1_555
O19 H17 1_555 1_555
H18 O19 1_555 1_555
O20 H19 1_555 1_555
H20 O20 1_555 1_555
O10B C5B 1_555 1_555
O14B Eu1 1_555 1_555
C5B C5 1_555 1_555
O11B C8B 1_555 1_555
C8B C8 1_555 1_555
O17B Eu2 1_555 1_555
Eu1B O14 1_555 1_555
Eu2B O1B 1_555 1_555
O1B C2B 1_555 1_555
O2B Eu2B 1_555 1_555
O3B Eu1B 1_555 1_555
O4B Eu1B 1_555 1_555
C1B O2B 1_555 1_555
C2B O4B 1_555 1_555
O5B Eu1B 1_555 1_555
O6B Eu1B 1_555 1_555
O7B Eu1B 1_555 1_555
O8B Eu1B 1_555 1_555
O9B Eu1B 1_555 1_555
H1B O9B 1_555 1_555
H2B O9B 1_555 1_555
O12B C6B 1_555 1_555
O13B C4B 1_555 1_555
O15B C3B 1_555 1_555
O16B C7B 1_555 1_555
C3B O8B 1_555 1_555
C4B O5B 1_555 1_555
C6B O7B 1_555 1_555
C7B O6B 1_555 1_555
O18B Eu2B 1_555 1_555
H3B O18B 1_555 1_555
H4B O18B 1_555 1_555
Eu2A O12 1_555 1_555
Eu2A_2 O13 1_555 1_555
Eu2B_2 O17 1_555 1_555
Eu2C O13B 1_555 1_555
Eu2C_2 O12B 1_555 1_555
O11B_2 Eu2B 1_555 1_555
O12A Eu2 1_555 1_555
O12C Eu2B 1_555 1_555
O13A Eu2 1_555 1_555
O13C Eu2B 1_555 1_555
O15A Eu2 1_555 1_555
O15C Eu2B 1_555 1_555
O16A Eu2 1_555 1_555
O16C Eu2B 1_555 1_555
O17_2 Eu2B 1_555 1_555
C1 C2 1_555 1_555
O15 Eu2A 1_555 1_555
O16 Eu2A_2 1_555 1_555
C3 C6 1_555 1_555
C4 C7 1_555 1_555
C11 C12 1_555 1_555
N4 C16 1_555 1_555
O10B Eu1B 1_555 1_555
O14B C5B 1_555 1_555
O11B Eu2B_2 1_555 1_555
C8B O17B 1_555 1_555
O3B C1B 1_555 1_555
C1B C2B 1_555 1_555
O15B Eu2C_2 1_555 1_555
O16B Eu2C 1_555 1_555
C3B C6B 1_555 1_555
C4B C7B 1_555 1_555

#END
