
#######################################################################
#
#                 Cambridge Crystallographic Data Centre
#                                CCDC 
#
#######################################################################
#
# If this CIF has been generated from an entry in the Cambridge 
# Structural Database, then it will include bibliographic, chemical, 
# crystal, experimental, refinement or atomic coordinate data resulting 
# from the CCDC's data processing and validation procedures.
#
#######################################################################

data_HASNIB
_chemical_formula_moiety         '(C22 H22 Eu4 N4 O38 2-)n'
_symmetry_cell_setting           monoclinic
_symmetry_space_group_name_H-M   'P 21/n'
_symmetry_Int_Tables_number      14
_space_group_name_Hall           '-P 2yn'
loop_
_symmetry_equiv_pos_site_id
_symmetry_equiv_pos_as_xyz
1 x,y,z
2 1/2-x,1/2+y,1/2-z
3 -x,-y,-z
4 1/2+x,1/2-y,1/2+z
_cell_length_a                   9.80286(10)
_cell_length_b                   17.50590(17)
_cell_length_c                   14.63240(12)
_cell_angle_alpha                90
_cell_angle_beta                 97.1208(8)
_cell_angle_gamma                90
_cell_volume                     2491.67
loop_
_atom_site_label
_atom_site_type_symbol
_atom_site_fract_x
_atom_site_fract_y
_atom_site_fract_z
Eu1 Eu 0.49477(3) 0.121621(18) 0.15829(2)
Eu2 Eu 0.51936(3) -0.163116(17) 0.41241(2)
O1 O 0.5800(5) -0.1164(3) 0.2624(3)
O2 O 0.6105(5) -0.0005(3) 0.2011(3)
O3 O 0.3745(5) 0.0462(3) 0.2610(3)
O4 O 0.3628(5) -0.0636(3) 0.3355(3)
C1 C 0.4166(6) -0.0191(4) 0.2831(4)
C2 C 0.5485(6) -0.0478(3) 0.2452(4)
O5 O 0.7439(5) 0.1349(3) 0.1592(4)
O6 O 0.3150(5) 0.1740(3) 0.0463(3)
O7 O 0.3295(5) 0.1990(3) 0.2267(3)
O8 O 0.5996(6) 0.1612(3) 0.3134(4)
H1 H 0.6884 0.1604 0.3167
H2 H 0.5747 0.1303 0.3544
O9 O 0.5715(6) 0.0910(3) 0.0095(3)
C3 C 0.2389(6) 0.2347(3) 0.1772(4)
C4 C 0.2332(6) 0.2228(3) 0.0724(4)
O10 O 0.4142(5) -0.0836(2) 0.5240(3)
O11 O 0.6265(5) -0.0092(3) -0.0731(3)
O12 O 0.7353(5) 0.3257(3) 0.0940(3)
O13 O 0.1511(5) 0.2799(3) 0.2032(3)
O14 O 0.1490(5) 0.2630(3) 0.0216(3)
C5 C 0.5573(6) 0.0240(4) -0.0186(4)
C6 C 0.4372(6) -0.0135(3) 0.5234(4)
O15 O 0.9105(5) 0.2082(3) 0.1168(4)
O16 O 0.5645(5) 0.2498(3) 0.1274(4)
C7 C 0.6865(6) 0.2635(3) 0.1161(4)
C8 C 0.7896(6) 0.1955(3) 0.1319(4)
O17 O 0.3699(4) 0.0370(2) 0.5582(3)
O18 O 0.6330(6) -0.1951(3) 0.5658(3)
H3 H 0.5888 -0.1749 0.6078
H4 H 0.7170 -0.1778 0.5733
O9B O 0.4285(6) -0.0910(3) -0.0095(3)
O11B O 0.3735(5) 0.0092(3) 0.0731(3)
C5B C 0.4427(6) -0.0240(4) 0.0186(4)
O10B O 0.5858(5) 0.0836(2) 0.4760(3)
C6B C 0.5628(6) 0.0135(3) 0.4766(4)
O17B O 0.6301(4) -0.0370(2) 0.4418(3)
Eu1B Eu 0.50523(3) -0.121621(18) -0.15829(2)
Eu2B Eu 0.48064(3) 0.163116(17) -0.41241(2)
O1B O 0.4200(5) 0.1164(3) -0.2624(3)
O2B O 0.3895(5) 0.0005(3) -0.2011(3)
O3B O 0.6255(5) -0.0462(3) -0.2610(3)
O4B O 0.6372(5) 0.0636(3) -0.3355(3)
C1B C 0.5834(6) 0.0191(4) -0.2831(4)
C2B C 0.4515(6) 0.0478(3) -0.2452(4)
O5B O 0.2561(5) -0.1349(3) -0.1592(4)
O6B O 0.6850(5) -0.1740(3) -0.0463(3)
O7B O 0.6705(5) -0.1990(3) -0.2267(3)
O8B O 0.4004(6) -0.1612(3) -0.3134(4)
H1B H 0.3116 -0.1604 -0.3167
H2B H 0.4253 -0.1303 -0.3544
C3B C 0.7611(6) -0.2347(3) -0.1772(4)
C4B C 0.7668(6) -0.2228(3) -0.0724(4)
O12B O 0.2647(5) -0.3257(3) -0.0940(3)
O13B O 0.8489(5) -0.2799(3) -0.2032(3)
O14B O 0.8510(5) -0.2630(3) -0.0216(3)
O15B O 0.0895(5) -0.2082(3) -0.1168(4)
O16B O 0.4355(5) -0.2498(3) -0.1274(4)
C7B C 0.3135(6) -0.2635(3) -0.1161(4)
C8B C 0.2104(6) -0.1955(3) -0.1319(4)
O18B O 0.3670(6) 0.1951(3) -0.5658(3)
H3B H 0.4112 0.1749 -0.6078
H4B H 0.2830 0.1778 -0.5733
Eu2A Eu -0.01936(3) 0.336884(17) 0.08759(2)
Eu2A_2 Eu 0.98064(3) 0.336884(17) 0.08759(2)
Eu2B_2 Eu 0.48064(3) 0.163116(17) 0.58759(2)
Eu2C Eu 0.01936(3) -0.336884(17) -0.08759(2)
Eu2C_2 Eu 1.01936(3) -0.336884(17) -0.08759(2)
O10B_2 O 0.5858(5) 0.0836(2) -0.5240(3)
O12A O 0.7647(5) -0.1743(3) 0.4060(3)
O12C O 0.2353(5) 0.1743(3) -0.4060(3)
O13A O 0.3489(5) -0.2201(3) 0.2968(3)
O13C O 0.6511(5) 0.2201(3) -0.2968(3)
O14A O 0.3510(5) -0.2370(3) 0.4784(3)
O14C O 0.6490(5) 0.2370(3) -0.4784(3)
O15A O 0.5895(5) -0.2918(3) 0.3832(4)
O15C O 0.4105(5) 0.2918(3) -0.3832(4)
O17_2 O 0.3699(4) 0.0370(2) -0.4418(3)
N1 N 0.9178(9) 0.0096(6) 0.1384(6)
H5 H 0.8552 0.0416 0.1493
C9 C 1.0388(15) 0.0279(8) 0.1255(8)
H6 H 1.0733 0.0774 0.1272
C10 C 0.9006(15) -0.0640(10) 0.1330(12)
H7 H 0.8210 -0.0915 0.1390
N2 N 1.1061(8) -0.0317(7) 0.1097(7)
H8 H 1.1894 -0.0327 0.0969
C11 C 1.026(2) -0.0921(8) 0.1163(11)
H9 H 1.0498 -0.1432 0.1108
N3 N 0.8959(8) -0.0108(8) 0.3863(7)
H10 H 0.8151 -0.0263 0.3948
C12 C 0.9973(11) -0.0543(7) 0.3772(7)
H11 H 0.9960 -0.1074 0.3787
C13 C 0.9333(13) 0.0630(10) 0.3809(10)
H12 H 0.8777 0.1056 0.3852
N4 N 1.1051(7) -0.0116(5) 0.3652(6)
H13 H 1.1854 -0.0281 0.3572
C14 C 1.0668(13) 0.0631(7) 0.3678(8)
H14 H 1.1218 0.1056 0.3618
O19 O 0.7997(11) 0.2715(5) 0.3494(5)
H15 H 0.8176 0.3081 0.3147
H16 H 0.8232 0.2837 0.4053
O20 O 0.796(2) -0.318(2) 0.6081(11)
H17 H 0.8273 -0.3136 0.6646
H18 H 0.8350 -0.3560 0.5852
loop_
_geom_bond_atom_site_label_1
_geom_bond_atom_site_label_2
_geom_bond_site_symmetry_1
_geom_bond_site_symmetry_2
Eu1 O2 1_555 1_555
Eu2 O1 1_555 1_555
O1 C2 1_555 1_555
O2 C2 1_555 1_555
O3 Eu1 1_555 1_555
O4 Eu2 1_555 1_555
C1 O3 1_555 1_555
C2 C1 1_555 1_555
O5 Eu1 1_555 1_555
O6 Eu1 1_555 1_555
O7 Eu1 1_555 1_555
O8 Eu1 1_555 1_555
H1 O8 1_555 1_555
H2 O8 1_555 1_555
O9 Eu1 1_555 1_555
C3 O7 1_555 1_555
C4 O6 1_555 1_555
O10 Eu2 1_555 1_555
O11 C5 1_555 1_555
O12 C7 1_555 1_555
O13 C3 1_555 1_555
O14 C4 1_555 1_555
C5 O9 1_555 1_555
C6 O10 1_555 1_555
O15 C8 1_555 1_555
O16 Eu1 1_555 1_555
C7 O16 1_555 1_555
C8 O5 1_555 1_555
O17 C6 1_555 1_555
O18 Eu2 1_555 1_555
H3 O18 1_555 1_555
H4 O18 1_555 1_555
N1 H5 1_555 1_555
C9 N1 1_555 1_555
H6 C9 1_555 1_555
C10 N1 1_555 1_555
H7 C10 1_555 1_555
N2 C9 1_555 1_555
H8 N2 1_555 1_555
C11 C10 1_555 1_555
H9 C11 1_555 1_555
N3 H10 1_555 1_555
C12 N3 1_555 1_555
H11 C12 1_555 1_555
C13 N3 1_555 1_555
H12 C13 1_555 1_555
N4 C12 1_555 1_555
H13 N4 1_555 1_555
C14 C13 1_555 1_555
H14 C14 1_555 1_555
O19 H15 1_555 1_555
H16 O19 1_555 1_555
O20 H17 1_555 1_555
H18 O20 1_555 1_555
O9B C5B 1_555 1_555
O11B Eu1 1_555 1_555
C5B C5 1_555 1_555
O10B C6B 1_555 1_555
C6B C6 1_555 1_555
O17B Eu2 1_555 1_555
Eu1B O11 1_555 1_555
Eu2B O1B 1_555 1_555
O1B C2B 1_555 1_555
O2B Eu1B 1_555 1_555
O3B Eu1B 1_555 1_555
O4B Eu2B 1_555 1_555
C1B O3B 1_555 1_555
C2B O2B 1_555 1_555
O5B Eu1B 1_555 1_555
O6B Eu1B 1_555 1_555
O7B Eu1B 1_555 1_555
O8B Eu1B 1_555 1_555
H1B O8B 1_555 1_555
H2B O8B 1_555 1_555
C3B O7B 1_555 1_555
C4B O6B 1_555 1_555
O12B C7B 1_555 1_555
O13B C3B 1_555 1_555
O14B C4B 1_555 1_555
O15B C8B 1_555 1_555
O16B Eu1B 1_555 1_555
C7B O16B 1_555 1_555
C8B O5B 1_555 1_555
O18B Eu2B 1_555 1_555
H3B O18B 1_555 1_555
H4B O18B 1_555 1_555
Eu2A O13 1_555 1_555
Eu2A_2 O12 1_555 1_555
Eu2B_2 O17 1_555 1_555
Eu2C O12B 1_555 1_555
Eu2C_2 O13B 1_555 1_555
O10B_2 Eu2B 1_555 1_555
O12A Eu2 1_555 1_555
O12C Eu2B 1_555 1_555
O13A Eu2 1_555 1_555
O13C Eu2B 1_555 1_555
O14A Eu2 1_555 1_555
O14C Eu2B 1_555 1_555
O15A Eu2 1_555 1_555
O15C Eu2B 1_555 1_555
O17_2 Eu2B 1_555 1_555
O4 C1 1_555 1_555
C3 C4 1_555 1_555
O14 Eu2A 1_555 1_555
O15 Eu2A_2 1_555 1_555
C7 C8 1_555 1_555
N2 C11 1_555 1_555
N4 C14 1_555 1_555
O9B Eu1B 1_555 1_555
O11B C5B 1_555 1_555
O10B Eu2B_2 1_555 1_555
C6B O17B 1_555 1_555
O4B C1B 1_555 1_555
C1B C2B 1_555 1_555
C3B C4B 1_555 1_555
O14B Eu2C_2 1_555 1_555
O15B Eu2C 1_555 1_555
C7B C8B 1_555 1_555

#END
