
#######################################################################
#
#                 Cambridge Crystallographic Data Centre
#                                CCDC 
#
#######################################################################
#
# If this CIF has been generated from an entry in the Cambridge 
# Structural Database, then it will include bibliographic, chemical, 
# crystal, experimental, refinement or atomic coordinate data resulting 
# from the CCDC's data processing and validation procedures.
#
#######################################################################

data_HASNOH
_chemical_formula_moiety         '(C22 H22 N4 O38 Tb4 2-)n'
_symmetry_cell_setting           monoclinic
_symmetry_space_group_name_H-M   'P 21/n'
_symmetry_Int_Tables_number      14
_space_group_name_Hall           '-P 2yn'
loop_
_symmetry_equiv_pos_site_id
_symmetry_equiv_pos_as_xyz
1 x,y,z
2 1/2-x,1/2+y,1/2-z
3 -x,-y,-z
4 1/2+x,1/2-y,1/2+z
_cell_length_a                   9.79094(9)
_cell_length_b                   17.29874(15)
_cell_length_c                   14.59293(13)
_cell_angle_alpha                90
_cell_angle_beta                 97.1322(8)
_cell_angle_gamma                90
_cell_volume                     2452.49
loop_
_atom_site_label
_atom_site_type_symbol
_atom_site_fract_x
_atom_site_fract_y
_atom_site_fract_z
Tb1 Tb 0.50465(3) 0.378114(17) 0.34159(2)
Tb2 Tb 0.01903(3) 0.163578(16) 0.41219(2)
O1 O 0.3901(4) 0.5008(2) 0.2996(3)
O2 O 0.4188(4) 0.6171(2) 0.2369(3)
O3 O 0.6258(4) 0.4530(2) 0.2399(3)
O4 O 0.6370(4) 0.5638(2) 0.1636(3)
O5 O 0.2559(4) 0.3661(2) 0.3396(3)
O6 O 0.0884(4) 0.2920(2) 0.3822(3)
O7 O 0.4350(4) 0.2497(2) 0.3722(3)
O8 O 0.2637(4) 0.1736(2) 0.4074(3)
O9 O -0.1503(4) 0.2201(2) 0.2970(3)
O10 O -0.3322(4) 0.2997(3) 0.2729(3)
O11 O -0.1468(4) 0.2385(2) 0.4783(3)
O12 O -0.3170(4) 0.3262(2) 0.4533(3)
O13 O 0.4275(5) 0.4088(2) 0.4888(3)
O14 O 0.3741(4) 0.5095(2) 0.5739(3)
O15 O -0.0864(4) 0.0844(2) 0.5235(3)
O16 O -0.1287(4) -0.0379(2) 0.5587(3)
O17 O 0.4012(5) 0.3387(3) 0.1871(3)
H1 H 0.4049 0.3762 0.1490
H2 H 0.3167 0.3260 0.1885
O18 O 0.1310(5) 0.1949(3) 0.5643(3)
C1 C 0.4523(5) 0.5488(3) 0.2546(4)
C2 C 0.5828(5) 0.5185(3) 0.2166(4)
C3 C 0.2095(5) 0.3049(3) 0.3667(4)
C4 C 0.3129(6) 0.2356(3) 0.3836(4)
C5 C -0.2398(6) 0.2651(3) 0.3225(4)
C6 C -0.2329(5) 0.2774(3) 0.4280(4)
C7 C 0.4422(5) 0.4758(3) 0.5181(4)
C8 C -0.0617(5) 0.0134(3) 0.5242(3)
H3 H 0.107(9) 0.182(5) 0.615(3)
H4 H 0.191(15) 0.186(11) 0.529(11)
O13B O 0.5725(5) 0.5912(2) 0.5112(3)
O14B O 0.6259(4) 0.4905(2) 0.4261(3)
C7B C 0.5578(5) 0.5242(3) 0.4819(4)
O15B O 0.0864(4) -0.0844(2) 0.4765(3)
O16B O 0.1287(4) 0.0379(2) 0.4413(3)
C8B C 0.0617(5) -0.0134(3) 0.4758(3)
Tb1B Tb -0.50465(3) -0.378114(17) 0.65841(2)
Tb2B Tb -0.01903(3) -0.163578(16) 0.58781(2)
O1B O -0.3901(4) -0.5008(2) 0.7004(3)
O2B O -0.4188(4) -0.6171(2) 0.7631(3)
O3B O -0.6258(4) -0.4530(2) 0.7601(3)
O4B O -0.6370(4) -0.5638(2) 0.8364(3)
O5B O -0.2559(4) -0.3661(2) 0.6604(3)
O6B O -0.0884(4) -0.2920(2) 0.6178(3)
O7B O -0.4350(4) -0.2497(2) 0.6278(3)
O8B O -0.2637(4) -0.1736(2) 0.5926(3)
O9B O 0.1503(4) -0.2201(2) 0.7030(3)
O10B O 0.3322(4) -0.2997(3) 0.7271(3)
O11B O 0.1468(4) -0.2385(2) 0.5217(3)
O12B O 0.3170(4) -0.3262(2) 0.5467(3)
O17B O -0.4012(5) -0.3387(3) 0.8129(3)
H1B H -0.4049 -0.3762 0.8510
H2B H -0.3167 -0.3260 0.8115
O18B O -0.1310(5) -0.1949(3) 0.4357(3)
C1B C -0.4523(5) -0.5488(3) 0.7454(4)
C2B C -0.5828(5) -0.5185(3) 0.7834(4)
C3B C -0.2095(5) -0.3049(3) 0.6333(4)
C4B C -0.3129(6) -0.2356(3) 0.6164(4)
C5B C 0.2398(6) -0.2651(3) 0.6775(4)
C6B C 0.2329(5) -0.2774(3) 0.5720(4)
H3B H -0.107(9) -0.182(5) 0.385(3)
H4B H -0.191(15) -0.186(11) 0.471(11)
Tb1_2 Tb -0.49535(3) 0.378114(17) 0.34159(2)
Tb1B_2 Tb 0.49535(3) -0.378114(17) 0.65841(2)
Tb1B_3 Tb 0.49535(3) 0.621886(17) 0.65841(2)
Tb2A Tb 0.48097(3) 0.663578(16) 0.08781(2)
Tb2C Tb -0.48097(3) -0.663578(16) 0.91219(2)
O2A O 0.0812(4) 0.1171(2) 0.2631(3)
O2C O -0.0812(4) -0.1171(2) 0.7369(3)
O4A O -0.1370(4) 0.0638(2) 0.3364(3)
O4C O 0.1370(4) -0.0638(2) 0.6636(3)
O10_2 O 0.6678(4) 0.2997(3) 0.2729(3)
O10B_2 O -0.6678(4) -0.2997(3) 0.7271(3)
O12_2 O 0.6830(4) 0.3262(2) 0.4533(3)
O12B_2 O -0.6830(4) -0.3262(2) 0.5467(3)
O13B_2 O -0.4275(5) -0.4088(2) 0.5112(3)
O14_2 O -0.6259(4) -0.4905(2) 0.5739(3)
O19 O 0.1969(8) 0.2303(4) 0.1492(4)
H5 H 0.2042 0.2219 0.0926
H6 H 0.1453 0.1962 0.1689
C9 C 1.0006(10) 0.5523(6) 0.1221(6)
H7 H 1.0011 0.6061 0.1208
C10 C 1.0651(12) 0.4358(8) 0.1186(8)
H8 H 1.1211 0.3928 0.1146
C11 C 0.9323(11) 0.4356(6) 0.1315(7)
H9 H 0.8773 0.3925 0.1375
N1 N 0.8945(6) 0.5098(5) 0.1341(5)
H10 H 0.798(11) 0.528(6) 0.116(7)
N2 N 1.1017(7) 0.5102(6) 0.1125(5)
H11 H 1.1819 0.5264 0.1034
C12 C -0.0360(12) 0.4734(7) 0.3743(7)
H12 H -0.0686 0.4228 0.3721
C13 C 0.0987(13) 0.5667(9) 0.3664(11)
H13 H 0.1767 0.5955 0.3586
C14 C -0.0286(18) 0.5941(7) 0.3867(10)
H14 H -0.0533 0.6452 0.3952
N3 N 0.0839(8) 0.4926(6) 0.3608(6)
H15 H 0.1472 0.4608 0.3495
N4 N -0.1066(7) 0.5321(6) 0.3912(6)
H16 H -0.1903 0.5317 0.4033
O20 O 0.3176(11) 0.3039(8) 0.6071(5)
H17 H 0.3361 0.3502 0.5933
H18 H 0.3861 0.2751 0.6008
loop_
_geom_bond_atom_site_label_1
_geom_bond_atom_site_label_2
_geom_bond_site_symmetry_1
_geom_bond_site_symmetry_2
Tb1 O1 1_555 1_555
Tb2 O6 1_555 1_555
O1 C1 1_555 1_555
O2 C1 1_555 1_555
O3 Tb1 1_555 1_555
O4 C2 1_555 1_555
O5 Tb1 1_555 1_555
O6 C3 1_555 1_555
O7 Tb1 1_555 1_555
O8 Tb2 1_555 1_555
O9 Tb2 1_555 1_555
O10 C5 1_555 1_555
O11 Tb2 1_555 1_555
O12 C6 1_555 1_555
O13 Tb1 1_555 1_555
O14 C7 1_555 1_555
O15 Tb2 1_555 1_555
O16 C8 1_555 1_555
O17 Tb1 1_555 1_555
H1 O17 1_555 1_555
H2 O17 1_555 1_555
O18 Tb2 1_555 1_555
C1 C2 1_555 1_555
C2 O3 1_555 1_555
C3 O5 1_555 1_555
C4 O7 1_555 1_555
C5 O9 1_555 1_555
C6 O11 1_555 1_555
C7 O13 1_555 1_555
C8 O15 1_555 1_555
H3 O18 1_555 1_555
H4 O18 1_555 1_555
O19 H5 1_555 1_555
H6 O19 1_555 1_555
C9 H7 1_555 1_555
C10 H8 1_555 1_555
C11 C10 1_555 1_555
H9 C11 1_555 1_555
N1 C9 1_555 1_555
H10 N1 1_555 1_555
N2 C9 1_555 1_555
H11 N2 1_555 1_555
C12 H12 1_555 1_555
C13 H13 1_555 1_555
C14 C13 1_555 1_555
H14 C14 1_555 1_555
N3 C12 1_555 1_555
H15 N3 1_555 1_555
N4 C12 1_555 1_555
H16 N4 1_555 1_555
O20 H17 1_555 1_555
H18 O20 1_555 1_555
O13B C7B 1_555 1_555
O14B Tb1 1_555 1_555
C7B C7 1_555 1_555
O15B C8B 1_555 1_555
O16B Tb2 1_555 1_555
C8B C8 1_555 1_555
Tb1B O1B 1_555 1_555
Tb2B O16 1_555 1_555
O1B C1B 1_555 1_555
O2B C1B 1_555 1_555
O3B Tb1B 1_555 1_555
O4B C2B 1_555 1_555
O5B Tb1B 1_555 1_555
O6B Tb2B 1_555 1_555
O7B Tb1B 1_555 1_555
O8B Tb2B 1_555 1_555
O9B Tb2B 1_555 1_555
O10B C5B 1_555 1_555
O11B Tb2B 1_555 1_555
O12B C6B 1_555 1_555
O17B Tb1B 1_555 1_555
H1B O17B 1_555 1_555
H2B O17B 1_555 1_555
O18B Tb2B 1_555 1_555
C1B C2B 1_555 1_555
C2B O3B 1_555 1_555
C3B O5B 1_555 1_555
C4B O7B 1_555 1_555
C5B O9B 1_555 1_555
C6B O11B 1_555 1_555
H3B O18B 1_555 1_555
H4B O18B 1_555 1_555
Tb1_2 O10 1_555 1_555
Tb1B_2 O10B 1_555 1_555
Tb1B_3 O14 1_555 1_555
Tb2A O2 1_555 1_555
Tb2C O2B 1_555 1_555
O2A Tb2 1_555 1_555
O2C Tb2B 1_555 1_555
O4A Tb2 1_555 1_555
O4C Tb2B 1_555 1_555
O10_2 Tb1 1_555 1_555
O10B_2 Tb1B 1_555 1_555
O12_2 Tb1 1_555 1_555
O12B_2 Tb1B 1_555 1_555
O13B_2 Tb1B 1_555 1_555
O14_2 Tb1B 1_555 1_555
O4 Tb2A 1_555 1_555
O8 C4 1_555 1_555
O12 Tb1_2 1_555 1_555
C3 C4 1_555 1_555
C5 C6 1_555 1_555
C10 N2 1_555 1_555
C11 N1 1_555 1_555
C13 N3 1_555 1_555
C14 N4 1_555 1_555
O13B Tb1B_3 1_555 1_555
O14B C7B 1_555 1_555
O15B Tb2B 1_555 1_555
O16B C8B 1_555 1_555
O4B Tb2C 1_555 1_555
O6B C3B 1_555 1_555
O8B C4B 1_555 1_555
O12B Tb1B_2 1_555 1_555
C3B C4B 1_555 1_555
C5B C6B 1_555 1_555

#END
