
#######################################################################
#
#                 Cambridge Crystallographic Data Centre
#                                CCDC 
#
#######################################################################
#
# If this CIF has been generated from an entry in the Cambridge 
# Structural Database, then it will include bibliographic, chemical, 
# crystal, experimental, refinement or atomic coordinate data resulting 
# from the CCDC's data processing and validation procedures.
#
#######################################################################

data_HUDMOK
_chemical_formula_moiety         '(C34 H32 N8 O5 Zn4)n'
_symmetry_cell_setting           tetragonal
_symmetry_space_group_name_H-M   'P 42/m c m'
_symmetry_Int_Tables_number      132
_space_group_name_Hall           '-P 4c 2c'
loop_
_symmetry_equiv_pos_site_id
_symmetry_equiv_pos_as_xyz
1 x,y,z
2 -x,-y,z
3 -y,x,1/2+z
4 y,-x,1/2+z
5 -x,y,1/2-z
6 x,-y,1/2-z
7 y,x,-z
8 -y,-x,-z
9 -x,-y,-z
10 x,y,-z
11 y,-x,1/2-z
12 -y,x,1/2-z
13 x,-y,1/2+z
14 -x,y,1/2+z
15 -y,-x,z
16 y,x,z
_cell_length_a                   11.517(3)
_cell_length_b                   11.517(3)
_cell_length_c                   34.474(11)
_cell_angle_alpha                90
_cell_angle_beta                 90
_cell_angle_gamma                90
_cell_volume                     4572.68
loop_
_atom_site_label
_atom_site_type_symbol
_atom_site_fract_x
_atom_site_fract_y
_atom_site_fract_z
Zn1 Zn 0.90202(5) 0.09798(5) 0.21795(2)
O1 O 1.0000 0.0000 0.2500
O2 O 0.9320(3) 0.0680(3) 0.16267(13)
N1 N 0.9624(4) 0.2526(3) 0.23424(11)
C1 C 0.9414(5) 0.3627(4) 0.22511(14)
C2 C 1.0000 0.4356(6) 0.2500
C3 C 0.8645(7) 0.3902(5) 0.19139(19)
H1 H 0.8546 0.3219 0.1758
H2 H 0.8994 0.4505 0.1761
H3 H 0.7903 0.4159 0.2007
C4 C 1.0000 0.0000 0.1462(3)
C5 C 1.0000 -0.0000 0.1028(3)
C6 C 0.9297(7) 0.0703(7) 0.0819(3)
H4 H 0.8794 0.1206 0.0946
C7 C 0.9321(7) 0.0679(7) 0.0428(3)
H5 H 0.8823 0.1177 0.0295
C8 C 1.0000 0.0000 0.0221(3)
O2A O 1.0680(3) -0.0680(3) 0.16267(13)
C6A C 1.0703(7) -0.0703(7) 0.0819(3)
H4A H 1.1206 -0.1206 0.0946
C7A C 1.0679(7) -0.0679(7) 0.0428(3)
H5A H 1.1177 -0.1177 0.0295
O2F O 1.0680(3) -0.0680(3) -0.16267(13)
C4F C 1.0000 -0.0000 -0.1462(3)
C5F C 1.0000 0.0000 -0.1028(3)
C6F C 1.0703(7) -0.0703(7) -0.0819(3)
H4F H 1.1206 -0.1206 -0.0946
C7F C 1.0679(7) -0.0679(7) -0.0428(3)
H5F H 1.1177 -0.1177 -0.0295
C8F C 1.0000 0.0000 -0.0221(3)
O2G O 0.9320(3) 0.0680(3) -0.16267(13)
C6G C 0.9297(7) 0.0703(7) -0.0819(3)
H4G H 0.8794 0.1206 -0.0946
C7G C 0.9321(7) 0.0679(7) -0.0428(3)
H5G H 0.8823 0.1177 -0.0295
N1A N 1.0376(4) 0.7474(3) 0.23424(11)
C1A C 1.0586(5) 0.6373(4) 0.22511(14)
C2A C 1.0000 0.5644(6) 0.2500
C3A C 1.1355(7) 0.6098(5) 0.19139(19)
H1A H 1.1454 0.6781 0.1758
H2A H 1.1006 0.5495 0.1761
H3A H 1.2097 0.5841 0.2007
N1D N 1.0376(4) 0.2526(3) 0.26576(11)
C1D C 1.0586(5) 0.3627(4) 0.27489(14)
C3D C 1.1355(7) 0.3902(5) 0.30861(19)
H1D H 1.1454 0.3219 0.3242
H2D H 1.1006 0.4505 0.3239
H3D H 1.2097 0.4159 0.2993
N1E N 0.9624(4) 0.7474(3) 0.26576(11)
C1E C 0.9414(5) 0.6373(4) 0.27489(14)
C3E C 0.8645(7) 0.6098(5) 0.30861(19)
H1E H 0.8546 0.6781 0.3242
H2E H 0.8994 0.5495 0.3239
H3E H 0.7903 0.5841 0.2993
Zn1A Zn 1.09798(5) -0.09798(5) 0.21795(2)
N1A_2 N 1.0376(4) -0.2526(3) 0.23424(11)
C1A_2 C 1.0586(5) -0.3627(4) 0.22511(14)
C2A_2 C 1.0000 -0.4356(6) 0.2500
C3A_2 C 1.1355(7) -0.3902(5) 0.19139(19)
H1A_2 H 1.1454 -0.3219 0.1758
H2A_2 H 1.1006 -0.4505 0.1761
H3A_2 H 1.2097 -0.4159 0.2007
N1_2 N 0.9624(4) -0.7474(3) 0.23424(11)
C1_2 C 0.9414(5) -0.6373(4) 0.22511(14)
C2_2 C 1.0000 -0.5644(6) 0.2500
C3_2 C 0.8645(7) -0.6098(5) 0.19139(19)
H1_2 H 0.8546 -0.6781 0.1758
H2_2 H 0.8994 -0.5495 0.1761
H3_2 H 0.7903 -0.5841 0.2007
N1E_2 N 0.9624(4) -0.2526(3) 0.26576(11)
C1E_2 C 0.9414(5) -0.3627(4) 0.27489(14)
C3E_2 C 0.8645(7) -0.3902(5) 0.30861(19)
H1E_2 H 0.8546 -0.3219 0.3242
H2E_2 H 0.8994 -0.4505 0.3239
H3E_2 H 0.7903 -0.4159 0.2993
N1D_2 N 1.0376(4) -0.7474(3) 0.26576(11)
C1D_2 C 1.0586(5) -0.6373(4) 0.27489(14)
C3D_2 C 1.1355(7) -0.6098(5) 0.30861(19)
H1D_2 H 1.1454 -0.6781 0.3242
H2D_2 H 1.1006 -0.5495 0.3239
H3D_2 H 1.2097 -0.5841 0.2993
Zn1D Zn 1.09798(5) 0.09798(5) 0.28205(2)
Zn1E Zn 0.90202(5) -0.09798(5) 0.28205(2)
Zn1_2 Zn 0.90202(5) -0.90202(5) 0.21795(2)
Zn1A_2 Zn 1.09798(5) 0.90202(5) 0.21795(2)
Zn1D_2 Zn 1.09798(5) -0.90202(5) 0.28205(2)
Zn1E_2 Zn 0.90202(5) 0.90202(5) 0.28205(2)
Zn1F Zn 1.09798(5) -0.09798(5) -0.21795(2)
Zn1G Zn 0.90202(5) 0.09798(5) -0.21795(2)
O2D O 1.0680(3) 0.0680(3) 0.33733(13)
O2E O 0.9320(3) -0.0680(3) 0.33733(13)
N1J N 1.2526(3) 0.0376(4) 0.26576(11)
N1K N 0.7474(3) -0.0376(4) 0.26576(11)
N1N N 0.7474(3) 0.0376(4) 0.23424(11)
N1O N 1.2526(3) -0.0376(4) 0.23424(11)
loop_
_geom_bond_atom_site_label_1
_geom_bond_atom_site_label_2
_geom_bond_site_symmetry_1
_geom_bond_site_symmetry_2
Zn1 O1 1_555 1_555
O1 Zn1A 1_555 1_555
O2 Zn1 1_555 1_555
N1 Zn1 1_555 1_555
C1 N1 1_555 1_555
C2 C1 1_555 1_555
C3 C1 1_555 1_555
H1 C3 1_555 1_555
H2 C3 1_555 1_555
H3 C3 1_555 1_555
C4 O2 1_555 1_555
C5 C4 1_555 1_555
C6 C5 1_555 1_555
H4 C6 1_555 1_555
C7 C6 1_555 1_555
H5 C7 1_555 1_555
C8 C7 1_555 1_555
O2A C4 1_555 1_555
C6A C5 1_555 1_555
H4A C6A 1_555 1_555
C7A C8 1_555 1_555
H5A C7A 1_555 1_555
O2F C4F 1_555 1_555
C4F C5F 1_555 1_555
C5F C6F 1_555 1_555
C6F H4F 1_555 1_555
C7F C6F 1_555 1_555
H5F C7F 1_555 1_555
C8F C8 1_555 1_555
O2G C4F 1_555 1_555
C6G C5F 1_555 1_555
H4G C6G 1_555 1_555
C7G C8F 1_555 1_555
H5G C7G 1_555 1_555
N1A C1A 1_555 1_555
C1A C2A 1_555 1_555
C2A C2 1_555 1_555
C3A C1A 1_555 1_555
H1A C3A 1_555 1_555
H2A C3A 1_555 1_555
H3A C3A 1_555 1_555
N1D N1 1_555 1_555
C1D C2 1_555 1_555
C3D C1D 1_555 1_555
H1D C3D 1_555 1_555
H2D C3D 1_555 1_555
H3D C3D 1_555 1_555
N1E N1A 1_555 1_555
C1E C2A 1_555 1_555
C3E C1E 1_555 1_555
H1E C3E 1_555 1_555
H2E C3E 1_555 1_555
H3E C3E 1_555 1_555
Zn1A O2A 1_555 1_555
N1A_2 Zn1A 1_555 1_555
C1A_2 N1A_2 1_555 1_555
C2A_2 C1A_2 1_555 1_555
C3A_2 C1A_2 1_555 1_555
H1A_2 C3A_2 1_555 1_555
H2A_2 C3A_2 1_555 1_555
H3A_2 C3A_2 1_555 1_555
N1_2 C1_2 1_555 1_555
C1_2 C2_2 1_555 1_555
C2_2 C2A_2 1_555 1_555
C3_2 C1_2 1_555 1_555
H1_2 C3_2 1_555 1_555
H2_2 C3_2 1_555 1_555
H3_2 C3_2 1_555 1_555
N1E_2 N1A_2 1_555 1_555
C1E_2 C2A_2 1_555 1_555
C3E_2 C1E_2 1_555 1_555
H1E_2 C3E_2 1_555 1_555
H2E_2 C3E_2 1_555 1_555
H3E_2 C3E_2 1_555 1_555
N1D_2 N1_2 1_555 1_555
C1D_2 C2_2 1_555 1_555
C3D_2 C1D_2 1_555 1_555
H1D_2 C3D_2 1_555 1_555
H2D_2 C3D_2 1_555 1_555
H3D_2 C3D_2 1_555 1_555
Zn1D O1 1_555 1_555
Zn1E O1 1_555 1_555
Zn1_2 N1_2 1_555 1_555
Zn1A_2 N1A 1_555 1_555
Zn1D_2 N1D_2 1_555 1_555
Zn1E_2 N1E 1_555 1_555
Zn1F O2F 1_555 1_555
Zn1G O2G 1_555 1_555
O2D Zn1D 1_555 1_555
O2E Zn1E 1_555 1_555
N1J Zn1D 1_555 1_555
N1K Zn1E 1_555 1_555
N1N Zn1 1_555 1_555
N1O Zn1A 1_555 1_555
C6A C7A 1_555 1_555
C7F C8F 1_555 1_555
C6G C7G 1_555 1_555
N1D C1D 1_555 1_555
N1D Zn1D 1_555 1_555
N1E C1E 1_555 1_555
N1E_2 C1E_2 1_555 1_555
N1E_2 Zn1E 1_555 1_555
N1D_2 C1D_2 1_555 1_555
N1J N1O 1_555 1_555
N1K N1N 1_555 1_555

#END
