
#######################################################################
#
#                 Cambridge Crystallographic Data Centre
#                                CCDC 
#
#######################################################################
#
# If this CIF has been generated from an entry in the Cambridge 
# Structural Database, then it will include bibliographic, chemical, 
# crystal, experimental, refinement or atomic coordinate data resulting 
# from the CCDC's data processing and validation procedures.
#
#######################################################################

data_UXABOL
_chemical_formula_moiety         '(C18 H28 Er2 O20)n'
_symmetry_cell_setting           monoclinic
_symmetry_space_group_name_H-M   'C 2/c'
_symmetry_Int_Tables_number      15
_space_group_name_Hall           '-C 2yc'
loop_
_symmetry_equiv_pos_site_id
_symmetry_equiv_pos_as_xyz
1 x,y,z
2 -x,y,1/2-z
3 1/2+x,1/2+y,z
4 1/2-x,1/2+y,1/2-z
5 -x,-y,-z
6 x,-y,1/2+z
7 1/2-x,1/2-y,-z
8 1/2+x,1/2-y,1/2+z
_cell_length_a                   37.854(3)
_cell_length_b                   11.231(1)
_cell_length_c                   6.767(1)
_cell_angle_alpha                90
_cell_angle_beta                 90.96(1)
_cell_angle_gamma                90
_cell_volume                     2876.51
loop_
_atom_site_label
_atom_site_type_symbol
_atom_site_fract_x
_atom_site_fract_y
_atom_site_fract_z
Er1 Er 0.370476(7) 0.29073(2) 0.19016(4)
O1 O 0.41762(12) 0.4235(4) 0.2773(7)
O2 O 0.42235(14) 0.2426(5) 0.3864(10)
O3 O 0.34890(12) 0.3514(4) 0.4890(6)
O4 O 0.34650(14) 0.5281(4) 0.6298(7)
O5 O 0.17562(13) 0.2599(5) 0.0092(8)
O6 O 0.16508(13) 0.3947(4) 0.2428(7)
O7 O 0.34799(17) 0.1257(5) 0.3598(8)
O8 O 0.39413(19) 0.1199(5) 0.0388(9)
O9 O 0.39433(13) 0.3470(4) -0.1259(7)
C1 C 0.43488(16) 0.3458(6) 0.3724(9)
C2 C 0.46932(17) 0.3753(7) 0.4651(10)
H1 H 0.4821 0.3153 0.5284
C3 C 0.48259(16) 0.4838(7) 0.4612(9)
H2 H 0.4688 0.5438 0.4051
C4 C 0.33242(17) 0.4444(6) 0.5377(9)
C5 C 0.2947(2) 0.4603(7) 0.4854(11)
H3 H 0.2836 0.5319 0.5149
C6 C 0.27595(19) 0.3726(9) 0.3953(10)
H4 H 0.2869 0.3000 0.3710
C7 C 0.23908(19) 0.3883(7) 0.3353(10)
H5 H 0.2269 0.4545 0.3804
C8 C 0.22238(19) 0.3112(7) 0.2183(12)
H6 H 0.2350 0.2460 0.1721
C9 C 0.18468(17) 0.3233(6) 0.1572(10)
H7 H 0.337(2) 0.048(5) 0.324(13)
H8 H 0.343(3) 0.146(8) 0.498(6)
H9 H 0.4127(18) 0.127(9) -0.065(10)
H10 H 0.405(2) 0.053(6) 0.116(12)
H11 H 0.379(2) 0.358(9) -0.247(8)
H12 H 0.4178(12) 0.311(8) -0.147(14)
Er1D Er 0.629524(7) 0.70927(2) 0.80984(4)
Er1E Er 0.370476(7) 0.70927(2) 0.69016(4)
Er1F Er 0.129524(7) 0.20927(2) -0.19016(4)
Er1E_2 Er 0.370476(7) 0.70927(2) -0.30984(4)
Er1C Er 0.129524(7) 0.79073(2) -0.69016(4)
O1D O 0.58238(12) 0.5765(4) 0.7227(7)
O2D O 0.57765(14) 0.7574(5) 0.6136(10)
O3E O 0.34890(12) 0.6486(4) -0.0110(6)
O3D O 0.65110(12) 0.6486(4) 0.5110(6)
O4E O 0.34650(14) 0.4719(4) 0.1298(7)
O4A O 0.65350(14) 0.5281(4) 0.8702(7)
O5E O 0.17562(13) 0.7401(5) -0.4908(8)
O5F O 0.32438(13) 0.2401(5) -0.0092(8)
O5B O 0.67562(13) 0.7599(5) 1.0092(8)
O6E O 0.16508(13) 0.6053(4) -0.2572(7)
O7D O 0.65201(17) 0.8743(5) 0.6402(8)
O8D O 0.60587(19) 0.8801(5) 0.9612(9)
O9D O 0.60567(13) 0.6530(4) 1.1259(7)
C1D C 0.56512(16) 0.6542(6) 0.6276(9)
C2D C 0.53068(17) 0.6247(7) 0.5349(10)
H1D H 0.5179 0.6847 0.4716
C3D C 0.51741(16) 0.5162(7) 0.5388(9)
H2D H 0.5312 0.4562 0.5949
C4E C 0.33242(17) 0.5556(6) 0.0377(9)
C5E C 0.2947(2) 0.5397(7) -0.0146(11)
H3E H 0.2836 0.4681 0.0149
C6E C 0.27595(19) 0.6274(9) -0.1047(10)
H4E H 0.2869 0.7000 -0.1290
C7E C 0.23908(19) 0.6117(7) -0.1647(10)
H5E H 0.2269 0.5455 -0.1196
C8E C 0.22238(19) 0.6888(7) -0.2817(12)
H6E H 0.2350 0.7540 -0.3279
C9E C 0.18468(17) 0.6767(6) -0.3428(10)
H7D H 0.663(2) 0.952(5) 0.676(13)
H8D H 0.657(3) 0.854(8) 0.502(6)
H9D H 0.5873(18) 0.873(9) 1.065(10)
H10D H 0.595(2) 0.947(6) 0.884(12)
H11D H 0.621(2) 0.642(9) 1.247(8)
H12D H 0.5822(12) 0.689(8) 1.147(14)
O10 O 0.4314(2) -0.0769(7) 0.1795(12)
H13 H 0.4478(19) -0.046(9) 0.073(10)
H14 H 0.4504(18) -0.095(9) 0.284(10)
O11 O 0.5000 0.009(2) 0.2500
loop_
_geom_bond_atom_site_label_1
_geom_bond_atom_site_label_2
_geom_bond_site_symmetry_1
_geom_bond_site_symmetry_2
Er1 O1 1_555 1_555
O1 C1 1_555 1_555
O2 Er1 1_555 1_555
O3 Er1 1_555 1_555
O4 C4 1_555 1_555
O5 C9 1_555 1_555
O6 C9 1_555 1_555
O7 Er1 1_555 1_555
O8 Er1 1_555 1_555
O9 Er1 1_555 1_555
C1 O2 1_555 1_555
C2 C1 1_555 1_555
H1 C2 1_555 1_555
C3 C2 1_555 1_555
H2 C3 1_555 1_555
C4 O3 1_555 1_555
C5 C4 1_555 1_555
H3 C5 1_555 1_555
C6 C5 1_555 1_555
H4 C6 1_555 1_555
C7 C6 1_555 1_555
H5 C7 1_555 1_555
C8 C7 1_555 1_555
H6 C8 1_555 1_555
C9 C8 1_555 1_555
O10 H13 1_555 1_555
H7 O7 1_555 1_555
H8 O7 1_555 1_555
H9 O8 1_555 1_555
H10 O8 1_555 1_555
H11 O9 1_555 1_555
H12 O9 1_555 1_555
H14 O10 1_555 1_555
Er1D O1D 1_555 1_555
Er1E O4 1_555 1_555
Er1F O5 1_555 1_555
Er1E_2 O3E 1_555 1_555
Er1C O5E 1_555 1_555
O1D C1D 1_555 1_555
O2D Er1D 1_555 1_555
O3E C4E 1_555 1_555
O3D Er1D 1_555 1_555
O4E Er1 1_555 1_555
O4A Er1D 1_555 1_555
O5E C9E 1_555 1_555
O5F Er1 1_555 1_555
O5B Er1D 1_555 1_555
O6E C9E 1_555 1_555
O7D Er1D 1_555 1_555
O8D Er1D 1_555 1_555
O9D Er1D 1_555 1_555
C1D O2D 1_555 1_555
C2D C1D 1_555 1_555
H1D C2D 1_555 1_555
C3D C3 1_555 1_555
H2D C3D 1_555 1_555
C4E O4E 1_555 1_555
C5E C4E 1_555 1_555
H3E C5E 1_555 1_555
C6E C5E 1_555 1_555
H4E C6E 1_555 1_555
C7E C6E 1_555 1_555
H5E C7E 1_555 1_555
C8E C7E 1_555 1_555
H6E C8E 1_555 1_555
C9E C8E 1_555 1_555
H7D O7D 1_555 1_555
H8D O7D 1_555 1_555
H9D O8D 1_555 1_555
H10D O8D 1_555 1_555
H11D O9D 1_555 1_555
H12D O9D 1_555 1_555
C2D C3D 1_555 1_555

#END
