
#######################################################################
#
#                 Cambridge Crystallographic Data Centre
#                                CCDC 
#
#######################################################################
#
# If this CIF has been generated from an entry in the Cambridge 
# Structural Database, then it will include bibliographic, chemical, 
# crystal, experimental, refinement or atomic coordinate data resulting 
# from the CCDC's data processing and validation procedures.
#
#######################################################################

data_UXABUR
_chemical_formula_moiety         '(C18 H28 O20 Y2)n'
_symmetry_cell_setting           monoclinic
_symmetry_space_group_name_H-M   'C 2/c'
_symmetry_Int_Tables_number      15
_space_group_name_Hall           '-C 2yc'
loop_
_symmetry_equiv_pos_site_id
_symmetry_equiv_pos_as_xyz
1 x,y,z
2 -x,y,1/2-z
3 1/2+x,1/2+y,z
4 1/2-x,1/2+y,1/2-z
5 -x,-y,-z
6 x,-y,1/2+z
7 1/2-x,1/2-y,-z
8 1/2+x,1/2-y,1/2+z
_cell_length_a                   37.970(9)
_cell_length_b                   11.298(2)
_cell_length_c                   6.726(2)
_cell_angle_alpha                90
_cell_angle_beta                 91.17(2)
_cell_angle_gamma                90
_cell_volume                     2884.75
loop_
_atom_site_label
_atom_site_type_symbol
_atom_site_fract_x
_atom_site_fract_y
_atom_site_fract_z
Y1 Y 0.37139(2) -0.20966(6) 0.18224(11)
C1 C 0.1848(2) -0.1768(7) 0.1631(12)
C2 C 0.2223(2) -0.1889(8) 0.2242(13)
H1 H 0.2344 -0.2558 0.1827
C3 C 0.2397(2) -0.1102(8) 0.3344(12)
H2 H 0.2276 -0.0441 0.3789
C4 C 0.2768(2) -0.1226(8) 0.3891(13)
H3 H 0.2879 -0.1936 0.3593
C5 C 0.2958(2) -0.0391(8) 0.4787(12)
H4 H 0.2849 0.0319 0.5111
C6 C 0.3333(2) -0.0542(7) 0.5289(11)
C7 C 0.4352(2) -0.1540(8) 0.3699(13)
C8 C 0.4692(2) -0.1242(8) 0.4628(13)
H5 H 0.4821 -0.1838 0.5257
C9 C 0.4819(2) -0.0179(9) 0.4607(12)
H6 H 0.4677 0.0415 0.4065
O1 O 0.16553(17) -0.1051(5) 0.2479(10)
O2 O 0.17508(17) -0.2425(6) 0.0199(10)
O3 O 0.34883(15) -0.1496(5) 0.4822(8)
O4 O 0.34841(15) -0.0273(5) 0.1225(9)
O5 O 0.41816(15) -0.0776(5) 0.2736(9)
O6 O 0.42332(17) -0.2577(6) 0.3814(12)
O7 O 0.3486(2) -0.3737(6) 0.3512(10)
O8 O 0.3944(2) -0.3804(6) 0.0302(12)
O9 O 0.39544(17) -0.1535(6) -0.1353(9)
H7 H 0.4151(19) -0.325(8) 0.031(18)
H8 H 0.408(2) -0.442(7) 0.106(15)
H9 H 0.345(3) -0.456(4) 0.301(14)
H10 H 0.338(3) -0.370(9) 0.484(8)
H11 H 0.4171(17) -0.201(8) -0.162(18)
H12 H 0.406(2) -0.074(4) -0.147(17)
Y1F Y 0.12861(2) -0.29034(6) -0.18224(11)
Y1E Y 0.37139(2) 0.20966(6) 0.68224(11)
Y1E_2 Y 0.37139(2) 0.20966(6) -0.31776(11)
Y1D Y 0.62861(2) 0.20966(6) 0.81776(11)
Y1C Y 0.12861(2) 0.29034(6) -0.68224(11)
C1E C 0.1848(2) 0.1768(7) -0.3369(12)
C2E C 0.2223(2) 0.1889(8) -0.2758(13)
H1E H 0.2344 0.2558 -0.3173
C3E C 0.2397(2) 0.1102(8) -0.1656(12)
H2E H 0.2276 0.0441 -0.1211
C4E C 0.2768(2) 0.1226(8) -0.1109(13)
H3E H 0.2879 0.1936 -0.1407
C5E C 0.2958(2) 0.0391(8) -0.0213(12)
H4E H 0.2849 -0.0319 0.0111
C6E C 0.3333(2) 0.0542(7) 0.0289(11)
C7D C 0.5648(2) 0.1540(8) 0.6301(13)
C8D C 0.5308(2) 0.1242(8) 0.5372(13)
H5D H 0.5179 0.1838 0.4743
C9D C 0.5181(2) 0.0179(9) 0.5393(12)
H6D H 0.5323 -0.0415 0.5935
O1E O 0.16553(17) 0.1051(5) -0.2521(10)
O2F O 0.32492(17) -0.2575(6) -0.0199(10)
O2B O 0.67508(17) 0.2575(6) 1.0199(10)
O2E O 0.17508(17) 0.2425(6) -0.4801(10)
O3E O 0.34883(15) 0.1496(5) -0.0178(8)
O3D O 0.65117(15) 0.1496(5) 0.5178(8)
O4E O 0.34841(15) 0.0273(5) 0.6225(9)
O4D O 0.65159(15) 0.0273(5) 0.8775(9)
O5D O 0.58184(15) 0.0776(5) 0.7264(9)
O6D O 0.57668(17) 0.2577(6) 0.6186(12)
O7D O 0.6514(2) 0.3737(6) 0.6488(10)
O8D O 0.6056(2) 0.3804(6) 0.9698(12)
O9D O 0.60456(17) 0.1535(6) 1.1353(9)
H7D H 0.5849(19) 0.325(8) 0.969(18)
H8D H 0.592(2) 0.442(7) 0.894(15)
H9D H 0.655(3) 0.456(4) 0.699(14)
H10D H 0.662(3) 0.370(9) 0.516(8)
H11D H 0.5829(17) 0.201(8) 1.162(18)
H12D H 0.594(2) 0.074(4) 1.147(17)
O10 O 0.4313(3) -0.5762(9) 0.1707(14)
H13 H 0.445(2) -0.640(8) 0.239(15)
H14 H 0.446(2) -0.544(10) 0.060(12)
O11 O 0.5000 -0.480(2) 0.2500
loop_
_geom_bond_atom_site_label_1
_geom_bond_atom_site_label_2
_geom_bond_site_symmetry_1
_geom_bond_site_symmetry_2
Y1 O3 1_555 1_555
C1 C2 1_555 1_555
C2 H1 1_555 1_555
C3 C2 1_555 1_555
H2 C3 1_555 1_555
C4 C3 1_555 1_555
H3 C4 1_555 1_555
C5 C4 1_555 1_555
H4 C5 1_555 1_555
C6 C5 1_555 1_555
C7 C8 1_555 1_555
C8 H5 1_555 1_555
C9 C8 1_555 1_555
H6 C9 1_555 1_555
O1 C1 1_555 1_555
O2 C1 1_555 1_555
O3 C6 1_555 1_555
O4 Y1 1_555 1_555
O5 Y1 1_555 1_555
O6 Y1 1_555 1_555
O7 Y1 1_555 1_555
O8 Y1 1_555 1_555
O9 Y1 1_555 1_555
O10 H13 1_555 1_555
H7 O8 1_555 1_555
H8 O8 1_555 1_555
H9 O7 1_555 1_555
H10 O7 1_555 1_555
H11 O9 1_555 1_555
H12 O9 1_555 1_555
H14 O10 1_555 1_555
Y1F O2 1_555 1_555
Y1E O4E 1_555 1_555
Y1E_2 O3E 1_555 1_555
Y1D O2B 1_555 1_555
Y1C O2E 1_555 1_555
C1E C2E 1_555 1_555
C2E H1E 1_555 1_555
C3E C2E 1_555 1_555
H2E C3E 1_555 1_555
C4E C3E 1_555 1_555
H3E C4E 1_555 1_555
C5E C4E 1_555 1_555
H4E C5E 1_555 1_555
C6E O4 1_555 1_555
C7D C8D 1_555 1_555
C8D H5D 1_555 1_555
C9D C9 1_555 1_555
H6D C9D 1_555 1_555
O1E C1E 1_555 1_555
O2F Y1 1_555 1_555
O2E C1E 1_555 1_555
O3E C6E 1_555 1_555
O3D Y1D 1_555 1_555
O4E C6 1_555 1_555
O4D Y1D 1_555 1_555
O5D Y1D 1_555 1_555
O6D Y1D 1_555 1_555
O7D Y1D 1_555 1_555
O8D Y1D 1_555 1_555
O9D Y1D 1_555 1_555
H7D O8D 1_555 1_555
H8D O8D 1_555 1_555
H9D O7D 1_555 1_555
H10D O7D 1_555 1_555
H11D O9D 1_555 1_555
H12D O9D 1_555 1_555
C7 O5 1_555 1_555
C7 O6 1_555 1_555
C5E C6E 1_555 1_555
C7D O5D 1_555 1_555
C7D O6D 1_555 1_555
C8D C9D 1_555 1_555

#END
