
#######################################################################
#
#                 Cambridge Crystallographic Data Centre
#                                CCDC 
#
#######################################################################
#
# If this CIF has been generated from an entry in the Cambridge 
# Structural Database, then it will include bibliographic, chemical, 
# crystal, experimental, refinement or atomic coordinate data resulting 
# from the CCDC's data processing and validation procedures.
#
#######################################################################

data_LOSBOM
_chemical_formula_moiety         '(C66 H68 Mg4 N6 O26)n'
_symmetry_cell_setting           monoclinic
_symmetry_space_group_name_H-M   'P 21/c'
_symmetry_Int_Tables_number      14
_space_group_name_Hall           '-P 2ybc'
loop_
_symmetry_equiv_pos_site_id
_symmetry_equiv_pos_as_xyz
1 x,y,z
2 -x,1/2+y,1/2-z
3 -x,-y,-z
4 x,1/2-y,1/2+z
_cell_length_a                   11.064(4)
_cell_length_b                   15.957(5)
_cell_length_c                   23.362(7)
_cell_angle_alpha                90
_cell_angle_beta                 92.265(9)
_cell_angle_gamma                90
_cell_volume                     4121.3
loop_
_atom_site_label
_atom_site_type_symbol
_atom_site_fract_x
_atom_site_fract_y
_atom_site_fract_z
Mg1 Mg 0.6413(2) 0.34676(15) 0.24071(12)
Mg2 Mg 0.44725(18) 0.48910(10) 0.16054(8)
O1 O 0.4610(5) 0.3571(3) 0.2149(2)
O2 O 0.3345(5) 0.3882(3) 0.1432(2)
O3 O 0.4386(5) 0.0609(3) 0.2951(2)
O4 O 0.3478(6) -0.0339(3) 0.2389(2)
O5 O -0.2735(6) 0.3332(4) -0.1393(2)
O6 O -0.3790(4) 0.4345(3) -0.10138(17)
O7 O -0.4307(4) 0.4448(3) 0.10704(19)
O8 O -0.3090(6) 0.3659(4) 0.1622(2)
C1 C 0.3784(7) 0.3371(4) 0.1793(3)
C2 C 0.3283(6) 0.2496(4) 0.1794(3)
C3 C 0.3678(6) 0.1897(4) 0.2197(3)
H1 H 0.4236 0.2040 0.2489
C4 C 0.3225(6) 0.1087(4) 0.2156(3)
C5 C 0.2356(6) 0.0885(4) 0.1728(2)
H2 H 0.2041 0.0345 0.1708
C6 C 0.1956(6) 0.1484(3) 0.1331(2)
C7 C 0.2439(6) 0.2284(3) 0.1371(3)
H3 H 0.2186 0.2687 0.1106
C8 C 0.3734(7) 0.0405(5) 0.2541(3)
C9 C 0.1025(5) 0.1290(3) 0.0875(2)
C10 C 0.1014(5) 0.0541(3) 0.0555(2)
C11 C 0.0030(5) 0.0388(3) 0.0152(2)
C12 C -0.0887(5) 0.1006(3) 0.0058(2)
C13 C -0.0794(5) 0.1774(3) 0.0348(2)
C14 C 0.0130(6) 0.1890(3) 0.0753(2)
H4 H 0.0159 0.2391 0.0956
C15 C 0.1969(5) -0.0064(3) 0.0598(2)
H5 H 0.2649 0.0052 0.0832
C16 C 0.1915(5) -0.0791(3) 0.0311(2)
H6 H 0.2556 -0.1166 0.0352
C17 C -0.1655(6) 0.2468(3) 0.0244(2)
C18 C -0.1976(6) 0.2760(3) -0.0304(2)
H7 H -0.1647 0.2507 -0.0622
C19 C -0.2779(6) 0.3420(3) -0.0383(2)
C20 C -0.3270(6) 0.3803(4) 0.0086(3)
H8 H -0.3814 0.4242 0.0034
C21 C -0.2947(6) 0.3528(4) 0.0634(3)
C22 C -0.2144(6) 0.2868(4) 0.0706(3)
H9 H -0.1928 0.2689 0.1075
C23 C -0.3135(6) 0.3726(4) -0.0978(3)
C24 C -0.3492(7) 0.3916(4) 0.1147(3)
O9 O 0.3132(6) 0.5278(4) 0.2180(3)
O10 O 0.6019(12) 0.2903(7) 0.3083(5)
O11 O 0.8247(9) 0.3141(8) 0.2577(6)
N1 N 1.0024(13) 0.3346(10) 0.3044(7)
C25 C 0.8952(15) 0.3371(9) 0.2930(8)
H10 H 0.8561 0.3668 0.3211
C26 C 1.0942(17) 0.2968(17) 0.2738(9)
H11 H 1.0605 0.2746 0.2385
H12 H 1.1300 0.2522 0.2962
H13 H 1.1548 0.3377 0.2658
C27 C 1.0537(19) 0.3735(16) 0.3550(8)
H14 H 0.9900 0.3916 0.3788
H15 H 1.1012 0.4210 0.3444
H16 H 1.1043 0.3339 0.3756
O12 O 0.629(5) 0.2208(19) 0.198(2)
N2 N 0.617(3) 0.1052(13) 0.1453(13)
C28 C 0.642(3) 0.1484(18) 0.1853(15)
H17 H 0.6841 0.1186 0.2141
C29 C 0.553(4) 0.132(2) 0.0945(15)
H18 H 0.5547 0.1924 0.0926
H19 H 0.4709 0.1134 0.0949
H20 H 0.5913 0.1095 0.0617
C30 C 0.643(5) 0.0195(14) 0.1396(16)
H21 H 0.6880 0.0006 0.1732
H22 H 0.6901 0.0111 0.1065
H23 H 0.5689 -0.0116 0.1354
O1B O -0.4610(5) -0.3571(3) -0.2149(2)
O2B O -0.3345(5) -0.3882(3) -0.1432(2)
O3B O -0.4386(5) -0.0609(3) -0.2951(2)
O4B O -0.3478(6) 0.0339(3) -0.2389(2)
O5B O 0.2735(6) -0.3332(4) 0.1393(2)
O6B O 0.3790(4) -0.4345(3) 0.10138(17)
O7B O 0.4307(4) -0.4448(3) -0.10704(19)
O8B O 0.3090(6) -0.3659(4) -0.1622(2)
C1B C -0.3784(7) -0.3371(4) -0.1793(3)
C2B C -0.3283(6) -0.2496(4) -0.1794(3)
C3B C -0.3678(6) -0.1897(4) -0.2197(3)
H1B H -0.4236 -0.2040 -0.2489
C4B C -0.3225(6) -0.1087(4) -0.2156(3)
C5B C -0.2356(6) -0.0885(4) -0.1728(2)
H2B H -0.2041 -0.0345 -0.1708
C6B C -0.1956(6) -0.1484(3) -0.1331(2)
C7B C -0.2439(6) -0.2284(3) -0.1371(3)
H3B H -0.2186 -0.2687 -0.1106
C8B C -0.3734(7) -0.0405(5) -0.2541(3)
C9B C -0.1025(5) -0.1290(3) -0.0875(2)
C10B C -0.1014(5) -0.0541(3) -0.0555(2)
C11B C -0.0030(5) -0.0388(3) -0.0152(2)
C12B C 0.0887(5) -0.1006(3) -0.0058(2)
C13B C 0.0794(5) -0.1774(3) -0.0348(2)
C14B C -0.0130(6) -0.1890(3) -0.0753(2)
H4B H -0.0159 -0.2391 -0.0956
C15B C -0.1969(5) 0.0064(3) -0.0598(2)
H5B H -0.2649 -0.0052 -0.0832
C16B C -0.1915(5) 0.0791(3) -0.0311(2)
H6B H -0.2556 0.1166 -0.0352
C17B C 0.1655(6) -0.2468(3) -0.0244(2)
C18B C 0.1976(6) -0.2760(3) 0.0304(2)
H7B H 0.1647 -0.2507 0.0622
C19B C 0.2779(6) -0.3420(3) 0.0383(2)
C20B C 0.3270(6) -0.3803(4) -0.0086(3)
H8B H 0.3814 -0.4242 -0.0034
C21B C 0.2947(6) -0.3528(4) -0.0634(3)
C22B C 0.2144(6) -0.2868(4) -0.0706(3)
H9B H 0.1928 -0.2689 -0.1075
C23B C 0.3135(6) -0.3726(4) 0.0978(3)
C24B C 0.3492(7) -0.3916(4) -0.1147(3)
Mg1B Mg -0.6413(2) -0.34676(15) -0.24071(12)
Mg2B Mg -0.44725(18) -0.48910(10) -0.16054(8)
O9B O -0.3132(6) -0.5278(4) -0.2180(3)
O10B O -0.6019(12) -0.2903(7) -0.3083(5)
O11B O -0.8247(9) -0.3141(8) -0.2577(6)
N1B N -1.0024(13) -0.3346(10) -0.3044(7)
C25B C -0.8952(15) -0.3371(9) -0.2930(8)
H10B H -0.8561 -0.3668 -0.3211
C26B C -1.0942(17) -0.2968(17) -0.2738(9)
H11B H -1.0605 -0.2746 -0.2385
H12B H -1.1300 -0.2522 -0.2962
H13B H -1.1548 -0.3377 -0.2658
C27B C -1.0537(19) -0.3735(16) -0.3550(8)
H14B H -0.9900 -0.3916 -0.3788
H15B H -1.1012 -0.4210 -0.3444
H16B H -1.1043 -0.3339 -0.3756
O12B O -0.629(5) -0.2208(19) -0.198(2)
N2B N -0.617(3) -0.1052(13) -0.1453(13)
C28B C -0.642(3) -0.1484(18) -0.1853(15)
H17B H -0.6841 -0.1186 -0.2141
C29B C -0.553(4) -0.132(2) -0.0945(15)
H18B H -0.5547 -0.1924 -0.0926
H19B H -0.4709 -0.1134 -0.0949
H20B H -0.5913 -0.1095 -0.0617
C30B C -0.643(5) -0.0195(14) -0.1396(16)
H21B H -0.6880 -0.0006 -0.1732
H22B H -0.6901 -0.0111 -0.1065
H23B H -0.5689 0.0116 -0.1354
Mg1_2 Mg -0.3587(2) 0.34676(15) 0.24071(12)
Mg1A Mg 0.3587(2) -0.15324(15) 0.25929(12)
Mg1B_2 Mg 0.3587(2) -0.34676(15) -0.24071(12)
Mg1C Mg -0.3587(2) 0.15324(15) -0.25929(12)
Mg2_2 Mg -0.55275(18) 0.48910(10) 0.16054(8)
Mg2_3 Mg 0.44725(18) -0.51090(10) 0.16054(8)
Mg2A Mg 0.55275(18) -0.01090(10) 0.33946(8)
Mg2B_2 Mg -0.44725(18) 0.51090(10) -0.16054(8)
Mg2B_3 Mg 0.55275(18) -0.48910(10) -0.16054(8)
Mg2C Mg -0.55275(18) 0.01090(10) -0.33946(8)
O3A O 0.5614(5) 0.5609(3) 0.2049(2)
O3C O -0.5614(5) -0.5609(3) -0.2049(2)
O4A O 0.6522(6) 0.4661(3) 0.2611(2)
O4C O -0.6522(6) -0.4661(3) -0.2611(2)
O6_2 O -0.3790(4) -0.5655(3) -0.10138(17)
O6B_2 O 0.3790(4) 0.5655(3) 0.10138(17)
O7_2 O 0.5693(4) 0.4448(3) 0.10704(19)
O7B_2 O -0.5693(4) -0.4448(3) -0.10704(19)
O8_2 O 0.6910(6) 0.3659(4) 0.1622(2)
O8B_2 O -0.6910(6) -0.3659(4) -0.1622(2)
N3 N -0.010(3) 0.4988(15) 0.1234(15)
O13 O 0.037(4) 0.484(3) 0.2154(16)
C31 C 0.049(3) 0.477(2) 0.1650(17)
H24 H 0.1194 0.4493 0.1561
C32 C 0.021(4) 0.485(3) 0.0663(16)
H25 H 0.0935 0.4521 0.0658
H26 H 0.0340 0.5378 0.0479
H27 H -0.0436 0.4556 0.0463
C33 C -0.119(4) 0.544(3) 0.126(2)
H28 H -0.1398 0.5513 0.1649
H29 H -0.1824 0.5145 0.1052
H30 H -0.1088 0.5984 0.1084
O14 O 0.3955(12) 0.2852(9) 0.3811(5)
N4 N 0.3439(11) 0.2036(8) 0.4518(5)
C34 C 0.3918(11) 0.2209(9) 0.4072(6)
H31 H 0.4323 0.1765 0.3907
C35 C 0.3434(14) 0.1258(9) 0.4789(7)
H32 H 0.3934 0.0874 0.4589
H33 H 0.2621 0.1047 0.4789
H34 H 0.3742 0.1317 0.5177
C36 C 0.275(2) 0.2639(12) 0.4806(8)
H35 H 0.2793 0.3167 0.4612
H36 H 0.3062 0.2699 0.5193
H37 H 0.1920 0.2459 0.4809
loop_
_geom_bond_atom_site_label_1
_geom_bond_atom_site_label_2
_geom_bond_site_symmetry_1
_geom_bond_site_symmetry_2
Mg1 O1 1_555 1_555
Mg2 O2 1_555 1_555
O1 C1 1_555 1_555
O2 C1 1_555 1_555
O3 C8 1_555 1_555
O4 C8 1_555 1_555
O5 C23 1_555 1_555
O6 C23 1_555 1_555
O7 C24 1_555 1_555
O8 C24 1_555 1_555
C1 C2 1_555 1_555
C2 C3 1_555 1_555
C3 H1 1_555 1_555
C4 C3 1_555 1_555
C5 C4 1_555 1_555
H2 C5 1_555 1_555
C6 C5 1_555 1_555
C7 C2 1_555 1_555
H3 C7 1_555 1_555
C8 C4 1_555 1_555
C9 C6 1_555 1_555
C10 C9 1_555 1_555
C11 C10 1_555 1_555
C12 C11 1_555 1_555
C13 C12 1_555 1_555
C14 C9 1_555 1_555
H4 C14 1_555 1_555
C15 C10 1_555 1_555
H5 C15 1_555 1_555
C16 C15 1_555 1_555
H6 C16 1_555 1_555
C17 C13 1_555 1_555
C18 C17 1_555 1_555
H7 C18 1_555 1_555
C19 C18 1_555 1_555
C20 C19 1_555 1_555
H8 C20 1_555 1_555
C21 C20 1_555 1_555
C22 C17 1_555 1_555
H9 C22 1_555 1_555
C23 C19 1_555 1_555
C24 C21 1_555 1_555
O9 Mg2 1_555 1_555
O10 Mg1 1_555 1_555
O11 Mg1 1_555 1_555
N1 C25 1_555 1_555
C25 O11 1_555 1_555
H10 C25 1_555 1_555
C26 N1 1_555 1_555
H11 C26 1_555 1_555
H12 C26 1_555 1_555
H13 C26 1_555 1_555
C27 N1 1_555 1_555
H14 C27 1_555 1_555
H15 C27 1_555 1_555
H16 C27 1_555 1_555
O12 Mg1 1_555 1_555
N2 C28 1_555 1_555
C28 O12 1_555 1_555
H17 C28 1_555 1_555
C29 N2 1_555 1_555
H18 C29 1_555 1_555
H19 C29 1_555 1_555
H20 C29 1_555 1_555
C30 N2 1_555 1_555
H21 C30 1_555 1_555
H22 C30 1_555 1_555
H23 C30 1_555 1_555
N3 C31 1_555 1_555
O13 C31 1_555 1_555
C31 H24 1_555 1_555
C32 N3 1_555 1_555
H25 C32 1_555 1_555
H26 C32 1_555 1_555
H27 C32 1_555 1_555
C33 N3 1_555 1_555
H28 C33 1_555 1_555
H29 C33 1_555 1_555
H30 C33 1_555 1_555
O14 C34 1_555 1_555
N4 C34 1_555 1_555
C34 H31 1_555 1_555
C35 N4 1_555 1_555
H32 C35 1_555 1_555
H33 C35 1_555 1_555
H34 C35 1_555 1_555
C36 N4 1_555 1_555
H35 C36 1_555 1_555
H36 C36 1_555 1_555
H37 C36 1_555 1_555
O1B C1B 1_555 1_555
O2B C1B 1_555 1_555
O3B C8B 1_555 1_555
O4B C8B 1_555 1_555
O5B C23B 1_555 1_555
O6B C23B 1_555 1_555
O7B C24B 1_555 1_555
O8B C24B 1_555 1_555
C1B C2B 1_555 1_555
C2B C3B 1_555 1_555
C3B H1B 1_555 1_555
C4B C3B 1_555 1_555
C5B C4B 1_555 1_555
H2B C5B 1_555 1_555
C6B C5B 1_555 1_555
C7B C2B 1_555 1_555
H3B C7B 1_555 1_555
C8B C4B 1_555 1_555
C9B C6B 1_555 1_555
C10B C9B 1_555 1_555
C11B C11 1_555 1_555
C12B C16 1_555 1_555
C13B C12B 1_555 1_555
C14B C9B 1_555 1_555
H4B C14B 1_555 1_555
C15B C10B 1_555 1_555
H5B C15B 1_555 1_555
C16B C12 1_555 1_555
H6B C16B 1_555 1_555
C17B C13B 1_555 1_555
C18B C17B 1_555 1_555
H7B C18B 1_555 1_555
C19B C18B 1_555 1_555
C20B C19B 1_555 1_555
H8B C20B 1_555 1_555
C21B C20B 1_555 1_555
C22B C17B 1_555 1_555
H9B C22B 1_555 1_555
C23B C19B 1_555 1_555
C24B C21B 1_555 1_555
Mg1B O1B 1_555 1_555
Mg2B O2B 1_555 1_555
O9B Mg2B 1_555 1_555
O10B Mg1B 1_555 1_555
O11B Mg1B 1_555 1_555
N1B C25B 1_555 1_555
C25B O11B 1_555 1_555
H10B C25B 1_555 1_555
C26B N1B 1_555 1_555
H11B C26B 1_555 1_555
H12B C26B 1_555 1_555
H13B C26B 1_555 1_555
C27B N1B 1_555 1_555
H14B C27B 1_555 1_555
H15B C27B 1_555 1_555
H16B C27B 1_555 1_555
O12B Mg1B 1_555 1_555
N2B C28B 1_555 1_555
C28B O12B 1_555 1_555
H17B C28B 1_555 1_555
C29B N2B 1_555 1_555
H18B C29B 1_555 1_555
H19B C29B 1_555 1_555
H20B C29B 1_555 1_555
C30B N2B 1_555 1_555
H21B C30B 1_555 1_555
H22B C30B 1_555 1_555
H23B C30B 1_555 1_555
Mg1_2 O8 1_555 1_555
Mg1A O4 1_555 1_555
Mg1B_2 O8B 1_555 1_555
Mg1C O4B 1_555 1_555
Mg2_2 O7 1_555 1_555
Mg2_3 O6B 1_555 1_555
Mg2A O3 1_555 1_555
Mg2B_2 O6 1_555 1_555
Mg2B_3 O7B 1_555 1_555
Mg2C O3B 1_555 1_555
O3A Mg2 1_555 1_555
O3C Mg2B 1_555 1_555
O4A Mg1 1_555 1_555
O4C Mg1B 1_555 1_555
O6_2 Mg2B 1_555 1_555
O6B_2 Mg2 1_555 1_555
O7_2 Mg2 1_555 1_555
O7B_2 Mg2B 1_555 1_555
O8_2 Mg1 1_555 1_555
O8B_2 Mg1B 1_555 1_555
C6 C7 1_555 1_555
C13 C14 1_555 1_555
C21 C22 1_555 1_555
C6B C7B 1_555 1_555
C10B C11B 1_555 1_555
C11B C12B 1_555 1_555
C13B C14B 1_555 1_555
C15B C16B 1_555 1_555
C21B C22B 1_555 1_555

#END
