
#######################################################################
#
#                 Cambridge Crystallographic Data Centre
#                                CCDC 
#
#######################################################################
#
# If this CIF has been generated from an entry in the Cambridge 
# Structural Database, then it will include bibliographic, chemical, 
# crystal, experimental, refinement or atomic coordinate data resulting 
# from the CCDC's data processing and validation procedures.
#
#######################################################################

data_LASQON
_chemical_formula_moiety         '(C55 H48 N12 Ni3 O17)n'
_symmetry_cell_setting           triclinic
_symmetry_space_group_name_H-M   'P -1'
_symmetry_Int_Tables_number      2
_space_group_name_Hall           '-P 1'
loop_
_symmetry_equiv_pos_site_id
_symmetry_equiv_pos_as_xyz
1 x,y,z
2 -x,-y,-z
_cell_length_a                   10.047(2)
_cell_length_b                   12.658(3)
_cell_length_c                   13.494(3)
_cell_angle_alpha                86.56(3)
_cell_angle_beta                 71.43(3)
_cell_angle_gamma                72.16(3)
_cell_volume                     1547.19
loop_
_atom_site_label
_atom_site_type_symbol
_atom_site_fract_x
_atom_site_fract_y
_atom_site_fract_z
Ni1 Ni 0.61641(5) 0.07533(4) 0.57872(4)
Ni2 Ni 0.0000 0.5000 1.0000
O1 O 0.4028(3) 0.0894(2) 0.6639(2)
O2 O 0.3479(3) -0.0216(2) 0.5711(2)
O3 O -0.1668(3) 0.0898(2) 0.5565(2)
O4 O -0.3450(3) 0.1471(2) 0.7051(2)
O5 O -0.2283(3) 0.4017(3) 0.9252(3)
O6 O 0.0044(3) 0.4040(2) 0.8796(2)
O7 O -0.2080(3) 0.4945(3) 1.0900(3)
N1 N 0.6966(4) -0.0873(3) 0.6193(3)
N2 N 0.8473(4) -0.2565(3) 0.6172(3)
N3 N 1.5399(4) -0.7675(3) 0.5263(3)
N4 N 1.3790(4) -0.6074(3) 0.5125(3)
N5 N 0.0863(4) 0.3464(3) 1.0596(3)
N6 N 0.2383(5) 0.1775(3) 1.0566(3)
C1 C 0.8355(5) -0.1498(3) 0.5913(3)
H1 H 0.9152 -0.1239 0.5581
C2 C 0.6162(5) -0.1578(4) 0.6650(4)
H2 H 0.5140 -0.1370 0.6922
C3 C 0.7070(5) -0.2621(4) 0.6648(4)
H3 H 0.6799 -0.3246 0.6915
C4 C 0.9820(5) -0.3480(3) 0.5908(4)
C5 C 1.0760(5) -0.3625(4) 0.4891(4)
H4 H 1.0513 -0.3145 0.4383
C6 C 1.0153(5) -0.4202(4) 0.6654(4)
H5 H 0.9497 -0.4122 0.7331
C7 C 1.4052(5) -0.7016(3) 0.5656(4)
H6 H 1.3353 -0.7177 0.6236
C8 C 1.6051(5) -0.7134(4) 0.4434(4)
H7 H 1.7020 -0.7404 0.3999
C9 C 1.5087(5) -0.6149(4) 0.4333(4)
H8 H 1.5265 -0.5628 0.3832
C10 C 1.2430(5) -0.5189(3) 0.5384(4)
C11 C 1.2073(5) -0.4487(4) 0.4627(4)
H9 H 1.2709 -0.4590 0.3943
C12 C 1.1475(5) -0.5051(4) 0.6395(4)
H10 H 1.1720 -0.5530 0.6903
C13 C 0.2226(6) 0.2823(4) 1.0234(4)
H11 H 0.2997 0.3060 0.9799
C14 C 0.0101(6) 0.2795(4) 1.1195(5)
H12 H -0.0905 0.3018 1.1551
C15 C 0.1025(6) 0.1768(5) 1.1192(5)
H13 H 0.0780 0.1168 1.1550
C16 C 0.3716(6) 0.0870(4) 1.0282(4)
C17 C 0.4658(6) 0.0745(4) 0.9255(4)
H14 H 0.4421 0.1248 0.8760
C18 C 0.4057(6) 0.0127(4) 1.1023(4)
H15 H 0.3421 0.0217 1.1707
C19 C 0.1508(4) 0.1169(3) 0.6862(3)
C20 C 0.0459(4) 0.0895(3) 0.6541(3)
H16 H 0.0756 0.0310 0.6056
C21 C -0.1026(4) 0.1492(3) 0.6943(3)
C22 C -0.1479(4) 0.2356(3) 0.7686(3)
H17 H -0.2476 0.2733 0.7975
C23 C -0.0450(5) 0.2657(3) 0.7999(3)
C24 C 0.1055(5) 0.2066(3) 0.7574(3)
H18 H 0.1753 0.2273 0.7767
C25 C 0.3129(4) 0.0554(3) 0.6362(3)
C26 C -0.2113(4) 0.1273(3) 0.6497(3)
C27 C -0.0926(5) 0.3647(4) 0.8739(3)
H23 H -0.2271 0.4650 1.0434
H24 H -0.2710 0.5559 1.1169
Ni1A Ni -0.61641(5) 0.92467(4) 1.42128(4)
Ni1A_2 Ni 0.38359(5) -0.07533(4) 0.42128(4)
Ni1_2 Ni -0.38359(5) 0.07533(4) 0.57872(4)
Ni1_3 Ni 1.61641(5) -0.92467(4) 0.57872(4)
Ni1_4 Ni -0.38359(5) 1.07533(4) 1.57872(4)
Ni1A_3 Ni 0.38359(5) 0.92467(4) 1.42128(4)
Ni1_5 Ni -0.38359(5) 1.07533(4) 0.57872(4)
Ni2_2 Ni 1.0000 -0.5000 1.0000
O1A O -0.4028(3) 0.9106(2) 1.3361(2)
O2A O -0.3479(3) 1.0216(2) 1.4289(2)
O2A_2 O 0.6521(3) 0.0216(2) 0.4289(2)
O2_2 O -0.6521(3) 0.9784(2) 1.5711(2)
O3A O 0.1668(3) 0.9102(2) 1.4435(2)
O3_2 O 0.8332(3) 0.0898(2) 0.5565(2)
O3A_2 O -0.8332(3) 0.9102(2) 1.4435(2)
O4A O 0.3450(3) 0.8529(2) 1.2949(2)
O4_2 O 0.6550(3) 0.1471(2) 0.7051(2)
O4A_2 O -0.6550(3) 0.8529(2) 1.2949(2)
O5A O 0.2283(3) 0.5983(3) 1.0748(3)
O6A O -0.0044(3) 0.5960(2) 1.1204(2)
O7A O 0.2080(3) 0.5055(3) 0.9100(3)
N1_2 N -0.3034(4) 0.9127(3) 0.6193(3)
N1A N -0.6966(4) 1.0873(3) 1.3807(3)
N2_2 N -0.1527(4) 0.7435(3) 0.6172(3)
N3_2 N 0.5399(4) 0.2325(3) 0.5263(3)
N3A N -0.5399(4) 0.7675(3) 1.4737(3)
N4_2 N 0.3790(4) 0.3926(3) 0.5125(3)
N5A N 0.9137(4) -0.3464(3) 0.9404(3)
N5A_2 N -0.0863(4) 0.6536(3) 0.9404(3)
N6A N 0.7617(5) -0.1775(3) 0.9434(3)
C1_2 C -0.1645(5) 0.8502(3) 0.5913(3)
H1_2 H -0.0848 0.8761 0.5581
C2_2 C -0.3838(5) 0.8422(4) 0.6650(4)
H2_2 H -0.4860 0.8630 0.6922
C3_2 C -0.2930(5) 0.7379(4) 0.6648(4)
H3_2 H -0.3201 0.6754 0.6915
C4_2 C -0.0180(5) 0.6520(3) 0.5908(4)
C5_2 C 0.0760(5) 0.6375(4) 0.4891(4)
H4_2 H 0.0513 0.6855 0.4383
C6_2 C 0.0153(5) 0.5798(4) 0.6654(4)
H5_2 H -0.0503 0.5878 0.7331
C7_2 C 0.4052(5) 0.2984(3) 0.5656(4)
H6_2 H 0.3353 0.2823 0.6236
C8_2 C 0.6051(5) 0.2866(4) 0.4434(4)
H7_2 H 0.7020 0.2596 0.3999
C9_2 C 0.5087(5) 0.3851(4) 0.4333(4)
H8_2 H 0.5265 0.4372 0.3832
C10_2 C 0.2430(5) 0.4811(3) 0.5384(4)
C11_2 C 0.2073(5) 0.5513(4) 0.4627(4)
H9_2 H 0.2709 0.5410 0.3943
C12_2 C 0.1475(5) 0.4949(4) 0.6395(4)
H10_2 H 0.1720 0.4470 0.6903
C13A C 0.7774(6) -0.2823(4) 0.9766(4)
H11A H 0.7003 -0.3060 1.0201
C14A C 0.9899(6) -0.2795(4) 0.8805(5)
H12A H 1.0905 -0.3018 0.8449
C15A C 0.8975(6) -0.1768(5) 0.8808(5)
H13A H 0.9220 -0.1168 0.8450
C16A C 0.6284(6) -0.0870(4) 0.9718(4)
C17A C 0.5342(6) -0.0745(4) 1.0745(4)
H14A H 0.5579 -0.1248 1.1240
C18A C 0.5943(6) -0.0127(4) 0.8977(4)
H15A H 0.6579 -0.0217 0.8293
C19A C -0.1508(4) 0.8831(3) 1.3138(3)
C20A C -0.0459(4) 0.9105(3) 1.3459(3)
H16A H -0.0756 0.9690 1.3944
C21A C 0.1026(4) 0.8508(3) 1.3057(3)
C22A C 0.1479(4) 0.7644(3) 1.2314(3)
H17A H 0.2476 0.7267 1.2025
C23A C 0.0450(5) 0.7343(3) 1.2001(3)
C24A C -0.1055(5) 0.7934(3) 1.2426(3)
H18A H -0.1753 0.7727 1.2233
C25A C -0.3129(4) 0.9446(3) 1.3638(3)
C26A C 0.2113(4) 0.8727(3) 1.3503(3)
C27A C 0.0926(5) 0.6353(4) 1.1261(3)
H23A H 0.2271 0.5350 0.9566
H24A H 0.2710 0.4441 0.8831
C28 C 0.6690(14) 0.1924(10) 0.0742(11)
H19 H 0.7155 0.1961 0.1254
H20 H 0.7430 0.1609 0.0094
H21 H 0.6053 0.1467 0.0984
O8 O 0.5896(9) 0.2951(6) 0.0591(7)
H22 H 0.5705 0.2949 0.0044
O9 O 0.5891(5) 0.5206(3) 0.8092(3)
H25 H 0.6438 0.4892 0.8461
H26 H 0.5438 0.5854 0.8384
O10 O 0.5453(4) 0.6320(4) 0.2261(4)
H27 H 0.5003 0.5861 0.2224
H28 H 0.4892 0.6981 0.2437
loop_
_geom_bond_atom_site_label_1
_geom_bond_atom_site_label_2
_geom_bond_site_symmetry_1
_geom_bond_site_symmetry_2
Ni1 O1 1_555 1_555
Ni2 O6 1_555 1_555
O1 C25 1_555 1_555
O2 C25 1_555 1_555
O3 C26 1_555 1_555
O4 C26 1_555 1_555
O5 C27 1_555 1_555
O6 C27 1_555 1_555
O7 Ni2 1_555 1_555
N1 Ni1 1_555 1_555
N2 C1 1_555 1_555
N3 C7 1_555 1_555
N4 C7 1_555 1_555
N5 Ni2 1_555 1_555
N6 C13 1_555 1_555
C1 N1 1_555 1_555
H1 C1 1_555 1_555
C2 N1 1_555 1_555
H2 C2 1_555 1_555
C3 N2 1_555 1_555
H3 C3 1_555 1_555
C4 N2 1_555 1_555
C5 C4 1_555 1_555
H4 C5 1_555 1_555
C6 C4 1_555 1_555
H5 C6 1_555 1_555
C7 H6 1_555 1_555
C8 N3 1_555 1_555
H7 C8 1_555 1_555
C9 N4 1_555 1_555
H8 C9 1_555 1_555
C10 N4 1_555 1_555
C11 C5 1_555 1_555
H9 C11 1_555 1_555
C12 C6 1_555 1_555
H10 C12 1_555 1_555
C13 N5 1_555 1_555
H11 C13 1_555 1_555
C14 N5 1_555 1_555
H12 C14 1_555 1_555
C15 N6 1_555 1_555
H13 C15 1_555 1_555
C16 N6 1_555 1_555
C17 C16 1_555 1_555
H14 C17 1_555 1_555
C18 C16 1_555 1_555
H15 C18 1_555 1_555
C19 C20 1_555 1_555
C20 H16 1_555 1_555
C21 C20 1_555 1_555
C22 C21 1_555 1_555
H17 C22 1_555 1_555
C23 C22 1_555 1_555
C24 C19 1_555 1_555
H18 C24 1_555 1_555
C25 C19 1_555 1_555
C26 C21 1_555 1_555
C27 C23 1_555 1_555
C28 H19 1_555 1_555
H20 C28 1_555 1_555
H21 C28 1_555 1_555
O8 C28 1_555 1_555
H22 O8 1_555 1_555
O9 H25 1_555 1_555
O10 H27 1_555 1_555
H23 O7 1_555 1_555
H24 O7 1_555 1_555
H26 O9 1_555 1_555
H28 O10 1_555 1_555
Ni1A O1A 1_555 1_555
Ni1A_2 O2 1_555 1_555
Ni1_2 O3 1_555 1_555
Ni1_3 N3 1_555 1_555
Ni1_4 O2A 1_555 1_555
Ni1A_3 O3A 1_555 1_555
Ni1_5 N1_2 1_555 1_555
Ni2_2 N5A 1_555 1_555
O1A C25A 1_555 1_555
O2A C25A 1_555 1_555
O2A_2 Ni1 1_555 1_555
O2_2 Ni1A 1_555 1_555
O3A C26A 1_555 1_555
O3_2 Ni1 1_555 1_555
O3A_2 Ni1A 1_555 1_555
O4A Ni1A_3 1_555 1_555
O4_2 Ni1 1_555 1_555
O4A_2 Ni1A 1_555 1_555
O5A C27A 1_555 1_555
O6A Ni2 1_555 1_555
O7A Ni2 1_555 1_555
N1_2 C1_2 1_555 1_555
N1A Ni1A 1_555 1_555
N2_2 C1_2 1_555 1_555
N3_2 Ni1 1_555 1_555
N3A Ni1A 1_555 1_555
N4_2 C7_2 1_555 1_555
N5A C13A 1_555 1_555
N5A_2 Ni2 1_555 1_555
N6A C13A 1_555 1_555
C1_2 H1_2 1_555 1_555
C2_2 N1_2 1_555 1_555
H2_2 C2_2 1_555 1_555
C3_2 N2_2 1_555 1_555
H3_2 C3_2 1_555 1_555
C4_2 N2_2 1_555 1_555
C5_2 C4_2 1_555 1_555
H4_2 C5_2 1_555 1_555
C6_2 C4_2 1_555 1_555
H5_2 C6_2 1_555 1_555
C7_2 N3_2 1_555 1_555
H6_2 C7_2 1_555 1_555
C8_2 N3_2 1_555 1_555
H7_2 C8_2 1_555 1_555
C9_2 N4_2 1_555 1_555
H8_2 C9_2 1_555 1_555
C10_2 N4_2 1_555 1_555
C11_2 C5_2 1_555 1_555
H9_2 C11_2 1_555 1_555
C12_2 C6_2 1_555 1_555
H10_2 C12_2 1_555 1_555
C13A H11A 1_555 1_555
C14A N5A 1_555 1_555
H12A C14A 1_555 1_555
C15A N6A 1_555 1_555
H13A C15A 1_555 1_555
C16A N6A 1_555 1_555
C17A C18 1_555 1_555
H14A C17A 1_555 1_555
C18A C17 1_555 1_555
H15A C18A 1_555 1_555
C19A C20A 1_555 1_555
C20A H16A 1_555 1_555
C21A C20A 1_555 1_555
C22A C21A 1_555 1_555
H17A C22A 1_555 1_555
C23A C22A 1_555 1_555
C24A C19A 1_555 1_555
H18A C24A 1_555 1_555
C25A C19A 1_555 1_555
C26A O4A 1_555 1_555
C27A O6A 1_555 1_555
H23A O7A 1_555 1_555
H24A O7A 1_555 1_555
O4 Ni1_2 1_555 1_555
C2 C3 1_555 1_555
C8 C9 1_555 1_555
C10 C11 1_555 1_555
C10 C12 1_555 1_555
C14 C15 1_555 1_555
C23 C24 1_555 1_555
C2_2 C3_2 1_555 1_555
C8_2 C9_2 1_555 1_555
C10_2 C11_2 1_555 1_555
C10_2 C12_2 1_555 1_555
C14A C15A 1_555 1_555
C16A C17A 1_555 1_555
C16A C18A 1_555 1_555
C21A C26A 1_555 1_555
C23A C24A 1_555 1_555
C23A C27A 1_555 1_555

#END
