
#######################################################################
#
#                 Cambridge Crystallographic Data Centre
#                                CCDC 
#
#######################################################################
#
# If this CIF has been generated from an entry in the Cambridge 
# Structural Database, then it will include bibliographic, chemical, 
# crystal, experimental, refinement or atomic coordinate data resulting 
# from the CCDC's data processing and validation procedures.
#
#######################################################################

data_OWUWUA
_chemical_formula_moiety         '(C42 H42 Fe1 N2 Na1 O14 Zn1)n'
_symmetry_cell_setting           monoclinic
_symmetry_space_group_name_H-M   'P 21/c'
_symmetry_Int_Tables_number      14
_space_group_name_Hall           '-P 2ybc'
loop_
_symmetry_equiv_pos_site_id
_symmetry_equiv_pos_as_xyz
1 x,y,z
2 -x,1/2+y,1/2-z
3 -x,-y,-z
4 x,1/2-y,1/2+z
_cell_length_a                   24.05(2)
_cell_length_b                   12.458(13)
_cell_length_c                   18.14(3)
_cell_angle_alpha                90
_cell_angle_beta                 104.466(8)
_cell_angle_gamma                90
_cell_volume                     5262.7
loop_
_atom_site_label
_atom_site_type_symbol
_atom_site_fract_x
_atom_site_fract_y
_atom_site_fract_z
Na1 Na 1.08198(14) 0.0247(3) 1.1067(2)
Fe1 Fe 0.64219(4) 0.23009(8) 0.58440(5)
Zn1 Zn 0.14402(5) 0.16886(13) 0.23442(7)
C1 C 0.2066(3) 0.0682(8) 0.1378(5)
C2 C 0.2630(3) 0.0226(6) 0.1363(3)
C3 C 0.2692(3) -0.0446(6) 0.0773(4)
H1 H 0.2376 -0.0602 0.0374
C4 C 0.3220(3) -0.0875(5) 0.0783(3)
C5 C 0.3687(3) -0.0688(5) 0.1408(3)
H2 H 0.4040 -0.1005 0.1421
C6 C 0.3634(3) -0.0038(5) 0.2007(3)
C7 C 0.3099(3) 0.0431(6) 0.1954(3)
H3 H 0.3058 0.0902 0.2334
C8 C 0.3322(3) -0.1557(6) 0.0149(3)
C9 C 0.4137(3) 0.0105(6) 0.2660(3)
H4 H 0.4250 -0.0582 0.2903
H5 H 0.4457 0.0387 0.2485
C10 C 0.4442(3) 0.1057(5) 0.3838(3)
C11 C 0.4982(3) 0.0679(5) 0.3954(3)
H6 H 0.5080 0.0214 0.3606
C12 C 0.5395(3) 0.1002(6) 0.4613(3)
C13 C 0.5249(3) 0.1711(5) 0.5156(3)
C14 C 0.4676(3) 0.2060(5) 0.5027(3)
C15 C 0.4282(3) 0.1732(5) 0.4365(3)
H7 H 0.3904 0.1969 0.4271
C16 C 0.4488(3) 0.2835(5) 0.5576(3)
C17 C 0.4776(3) 0.3923(6) 0.5552(4)
H8 H 0.5185 0.3831 0.5678
H9 H 0.4674 0.4399 0.5913
H10 H 0.4650 0.4222 0.5050
C18 C 0.3849(3) 0.3025(6) 0.5384(4)
H11 H 0.3654 0.2354 0.5393
H12 H 0.3728 0.3337 0.4886
H13 H 0.3758 0.3504 0.5752
C19 C 0.4661(3) 0.2365(6) 0.6420(3)
H14 H 0.4479 0.1681 0.6430
H15 H 0.4538 0.2852 0.6758
H16 H 0.5070 0.2279 0.6580
C20 C 0.5970(3) 0.0559(6) 0.4716(3)
H17 H 0.6011 -0.0047 0.4436
C21 C 0.6961(3) 0.0385(6) 0.5306(3)
H18 H 0.7239 0.0794 0.5115
H19 H 0.6914 -0.0314 0.5063
C22 C 0.7156(3) 0.0271(6) 0.6167(3)
H20 H 0.6937 -0.0288 0.6338
H21 H 0.7559 0.0077 0.6318
C23 C 0.7403(3) 0.1566(6) 0.7158(3)
H22 H 0.7696 0.1085 0.7367
C24 C 0.7373(3) 0.2513(5) 0.7579(3)
C25 C 0.7797(3) 0.2614(7) 0.8297(4)
H23 H 0.8057 0.2063 0.8473
C26 C 0.7810(3) 0.3527(7) 0.8709(4)
C27 C 0.7425(3) 0.4346(6) 0.8450(4)
H24 H 0.7445 0.4963 0.8744
C28 C 0.7004(3) 0.4286(6) 0.7762(3)
C29 C 0.6972(3) 0.3328(6) 0.7332(3)
C30 C 0.6573(3) 0.5218(6) 0.7498(4)
C31 C 0.6595(4) 0.5566(7) 0.6692(4)
H25 H 0.6977 0.5802 0.6700
H26 H 0.6330 0.6143 0.6524
H27 H 0.6494 0.4969 0.6350
C32 C 0.5970(3) 0.4830(8) 0.7480(4)
H28 H 0.5701 0.5405 0.7315
H29 H 0.5955 0.4602 0.7980
H30 H 0.5872 0.4239 0.7132
C33 C 0.6713(4) 0.6214(8) 0.8014(4)
H31 H 0.7094 0.6459 0.8026
H32 H 0.6692 0.6030 0.8520
H33 H 0.6442 0.6773 0.7818
C34 C 0.8520(4) 0.2824(8) 0.9731(5)
H34 H 0.8750 0.2569 0.9397
H35 H 0.8268 0.2246 0.9801
C35 C 0.8908(3) 0.3134(7) 1.0490(4)
C36 C 0.9447(3) 0.2646(8) 1.0702(5)
H36 H 0.9557 0.2187 1.0359
C37 C 0.9816(3) 0.2815(8) 1.1389(6)
C38 C 0.9652(4) 0.3496(8) 1.1875(5)
H37 H 0.9899 0.3615 1.2351
C39 C 0.9148(4) 0.4003(8) 1.1692(5)
C40 C 0.8762(3) 0.3818(8) 1.1007(5)
H38 H 0.8405 0.4152 1.0893
C41 C 0.8967(6) 0.4756(12) 1.2244(8)
C42 C 1.0419(5) 0.2301(9) 1.1575(7)
N1 N 0.7066(2) 0.1306(5) 0.6514(3)
N2 N 0.6421(2) 0.0944(4) 0.5165(3)
O1 O 0.2035(2) 0.1368(5) 0.1859(3)
O2 O 0.1637(3) 0.0264(7) 0.0931(4)
O3 O 0.1877(5) 0.2726(11) 0.3176(7)
O4 O 0.2898(2) -0.1985(5) -0.0321(3)
O5 O 1.0732(5) 0.0667(11) 0.9983(6)
O6 O 0.3820(2) -0.1681(4) 0.0079(2)
O7 O 1.0523(4) 0.1725(9) 1.1055(5)
O8 O 1.0692(4) 0.2347(8) 1.2171(6)
O9 O 0.9285(4) 0.4756(8) 1.2891(5)
O10 O 0.8608(4) 0.5416(8) 1.1991(5)
O11 O 0.39964(18) 0.0829(4) 0.3196(2)
O12 O 0.8193(2) 0.3701(5) 0.9398(3)
O13 O 0.56406(17) 0.1968(3) 0.5783(2)
O14 O 0.65612(18) 0.3213(4) 0.6688(2)
Na1_2 Na 0.08198(14) 0.0247(3) 0.1067(2)
Na1A Na 0.91802(14) 0.5247(3) 1.3933(2)
Fe1A Fe 0.35781(4) -0.26991(8) -0.08440(5)
Zn1_2 Zn 1.14402(5) 0.16886(13) 1.23442(7)
Zn1A Zn 0.85598(5) 0.66886(13) 1.26558(7)
O2_2 O 1.1637(3) 0.0264(7) 1.0931(4)
O4A O 0.7102(2) 0.3015(5) 0.5321(3)
O6A O 0.6180(2) 0.3319(4) 0.4921(2)
O8_2 O 0.0692(4) 0.2347(8) 0.2171(6)
O9A O 1.0715(4) -0.0244(8) 1.2109(5)
O10A O 0.1392(4) 0.0416(8) 0.3009(5)
loop_
_geom_bond_atom_site_label_1
_geom_bond_atom_site_label_2
_geom_bond_site_symmetry_1
_geom_bond_site_symmetry_2
Na1 O5 1_555 1_555
Fe1 N1 1_555 1_555
Zn1 O1 1_555 1_555
C1 C2 1_555 1_555
C2 C3 1_555 1_555
C3 H1 1_555 1_555
C4 C3 1_555 1_555
C5 C4 1_555 1_555
H2 C5 1_555 1_555
C6 C5 1_555 1_555
C7 C2 1_555 1_555
H3 C7 1_555 1_555
C8 C4 1_555 1_555
C9 C6 1_555 1_555
H4 C9 1_555 1_555
H5 C9 1_555 1_555
C10 C11 1_555 1_555
C11 H6 1_555 1_555
C12 C11 1_555 1_555
C13 C12 1_555 1_555
C14 C13 1_555 1_555
C15 C10 1_555 1_555
H7 C15 1_555 1_555
C16 C14 1_555 1_555
C17 C16 1_555 1_555
H8 C17 1_555 1_555
H9 C17 1_555 1_555
H10 C17 1_555 1_555
C18 C16 1_555 1_555
H11 C18 1_555 1_555
H12 C18 1_555 1_555
H13 C18 1_555 1_555
C19 C16 1_555 1_555
H14 C19 1_555 1_555
H15 C19 1_555 1_555
H16 C19 1_555 1_555
C20 C12 1_555 1_555
H17 C20 1_555 1_555
C21 H18 1_555 1_555
H19 C21 1_555 1_555
C22 C21 1_555 1_555
H20 C22 1_555 1_555
H21 C22 1_555 1_555
C23 H22 1_555 1_555
C24 C23 1_555 1_555
C25 C24 1_555 1_555
H23 C25 1_555 1_555
C26 C25 1_555 1_555
C27 C26 1_555 1_555
H24 C27 1_555 1_555
C28 C27 1_555 1_555
C29 C24 1_555 1_555
C30 C28 1_555 1_555
C31 C30 1_555 1_555
H25 C31 1_555 1_555
H26 C31 1_555 1_555
H27 C31 1_555 1_555
C32 C30 1_555 1_555
H28 C32 1_555 1_555
H29 C32 1_555 1_555
H30 C32 1_555 1_555
C33 C30 1_555 1_555
H31 C33 1_555 1_555
H32 C33 1_555 1_555
H33 C33 1_555 1_555
C34 H34 1_555 1_555
H35 C34 1_555 1_555
C35 C34 1_555 1_555
C36 C35 1_555 1_555
H36 C36 1_555 1_555
C37 C36 1_555 1_555
C38 C37 1_555 1_555
H37 C38 1_555 1_555
C39 C38 1_555 1_555
C40 C35 1_555 1_555
H38 C40 1_555 1_555
C41 C39 1_555 1_555
C42 C37 1_555 1_555
N1 C22 1_555 1_555
N2 Fe1 1_555 1_555
O1 C1 1_555 1_555
O2 C1 1_555 1_555
O3 Zn1 1_555 1_555
O4 C8 1_555 1_555
O6 C8 1_555 1_555
O7 Na1 1_555 1_555
O8 C42 1_555 1_555
O9 C41 1_555 1_555
O10 C41 1_555 1_555
O11 C9 1_555 1_555
O12 C26 1_555 1_555
O13 Fe1 1_555 1_555
O14 Fe1 1_555 1_555
Na1_2 O2 1_555 1_555
Na1A O9 1_555 1_555
Fe1A O4 1_555 1_555
Zn1_2 O8 1_555 1_555
Zn1A O10 1_555 1_555
O2_2 Na1 1_555 1_555
O4A Fe1 1_555 1_555
O6A Fe1 1_555 1_555
O8_2 Zn1 1_555 1_555
O9A Na1 1_555 1_555
O10A Zn1 1_555 1_555
C6 C7 1_555 1_555
C10 O11 1_555 1_555
C13 O13 1_555 1_555
C14 C15 1_555 1_555
C20 N2 1_555 1_555
C21 N2 1_555 1_555
C23 N1 1_555 1_555
C28 C29 1_555 1_555
C29 O14 1_555 1_555
C34 O12 1_555 1_555
C39 C40 1_555 1_555
C42 O7 1_555 1_555
O6 Fe1A 1_555 1_555

#END
