
#######################################################################
#
#                 Cambridge Crystallographic Data Centre
#                                CCDC 
#
#######################################################################
#
# If this CIF has been generated from an entry in the Cambridge 
# Structural Database, then it will include bibliographic, chemical, 
# crystal, experimental, refinement or atomic coordinate data resulting 
# from the CCDC's data processing and validation procedures.
#
#######################################################################

data_QOVXEG03
_chemical_formula_moiety         '(C14 H10 Co1 N4)n'
_symmetry_cell_setting           rhombohedral
_symmetry_space_group_name_H-M   'R -3'
_symmetry_Int_Tables_number      148
_space_group_name_Hall           '-R 3'
loop_
_symmetry_equiv_pos_site_id
_symmetry_equiv_pos_as_xyz
1 x,y,z
2 -y,x-y,z
3 -x+y,-x,z
4 2/3+x,1/3+y,1/3+z
5 2/3-y,1/3+x-y,1/3+z
6 2/3-x+y,1/3-x,1/3+z
7 1/3+x,2/3+y,2/3+z
8 1/3-y,2/3+x-y,2/3+z
9 1/3-x+y,2/3-x,2/3+z
10 -x,-y,-z
11 y,-x+y,-z
12 x-y,x,-z
13 1/3-x,2/3-y,2/3-z
14 1/3+y,2/3-x+y,2/3-z
15 1/3+x-y,2/3+x,2/3-z
16 2/3-x,1/3-y,1/3-z
17 2/3+y,1/3-x+y,1/3-z
18 2/3+x-y,1/3+x,1/3-z
_cell_length_a                   22.8401(14)
_cell_length_b                   22.8401(14)
_cell_length_c                   15.8514(15)
_cell_angle_alpha                90
_cell_angle_beta                 90
_cell_angle_gamma                120
_cell_volume                     7161.34
loop_
_atom_site_label
_atom_site_type_symbol
_atom_site_fract_x
_atom_site_fract_y
_atom_site_fract_z
_atom_site_U_iso_or_equiv
_atom_site_thermal_displace_type
Co1 Co 0.40215(3) 0.06374(3) 0.32479(4) 0.0315 Uani
N1 N 0.3669(2) 0.0137(2) 0.2171(3) 0.0387 Uani
N2 N 0.3146(2) -0.0100(2) 0.0907(3) 0.0363 Uani
C1 C 0.3385(3) 0.0327(3) 0.1570(3) 0.0341 Uani
H1 H 0.3356 0.0726 0.1607 0.0410 Uiso
C2 C 0.3309(2) -0.0579(2) 0.1078(3) 0.0318 Uani
C3 C 0.3207(3) -0.1152(3) 0.0587(4) 0.0423 Uani
H2 H 0.3009 -0.1242 0.0041 0.0500 Uiso
C4 C 0.3418(3) -0.1568(3) 0.0962(5) 0.0534 Uani
H3 H 0.3349 -0.1961 0.0669 0.0630 Uiso
C5 C 0.3719(3) -0.1430(3) 0.1737(5) 0.0532 Uani
H4 H 0.3864 -0.1723 0.1961 0.0640 Uiso
C6 C 0.3820(3) -0.0874(3) 0.2208(4) 0.0466 Uani
H5 H 0.4022 -0.0790 0.2751 0.0570 Uiso
C7 C 0.3622(3) -0.0455(3) 0.1872(4) 0.0386 Uani
N3 N 0.4120(2) 0.1541(2) 0.2987(3) 0.0361 Uani
N4 N 0.4110(2) 0.2523(2) 0.3075(3) 0.0379 Uani
C8 C 0.3908(3) 0.1912(3) 0.3384(3) 0.0346 Uani
H6 H 0.3624 0.1747 0.3866 0.0410 Uiso
C9 C 0.4508(3) 0.2562(3) 0.2380(3) 0.0394 Uani
C10 C 0.4867(3) 0.3087(3) 0.1808(4) 0.0510 Uani
H7 H 0.4863 0.3500 0.1844 0.0610 Uiso
C11 C 0.5226(4) 0.2980(4) 0.1190(5) 0.0709 Uani
H8 H 0.5484 0.3327 0.0795 0.0850 Uiso
C12 C 0.5212(5) 0.2351(5) 0.1140(5) 0.0821 Uani
H9 H 0.5443 0.2282 0.0686 0.0990 Uiso
C13 C 0.4887(4) 0.1845(4) 0.1705(4) 0.0622 Uani
H10 H 0.4907 0.1439 0.1679 0.0750 Uiso
C14 C 0.4517(3) 0.1956(3) 0.2340(4) 0.0436 Uani
Co1G Co 0.26959(3) 0.00508(4) -0.00854(4) 0.0315 Uani
Co1M Co 0.39707(3) 0.32826(4) 0.34188(4) 0.0315 Uani
N2E N 0.3421(3) 0.0187(2) 0.4240(3) 0.0363 Uani
N4N N 0.4920(3) 0.0777(2) 0.3592(3) 0.0379 Uani
loop_
_atom_site_aniso_label
_atom_site_aniso_U_11
_atom_site_aniso_U_22
_atom_site_aniso_U_33
_atom_site_aniso_U_23
_atom_site_aniso_U_13
_atom_site_aniso_U_12
Co1 0.0317(4) 0.0332(4) 0.0334(4) 0.0010(3) -0.0006(3) 0.0191(3)
N1 0.039(2) 0.043(3) 0.036(2) 0.001(2) 0.004(2) 0.022(2)
N2 0.036(2) 0.043(2) 0.033(2) -0.0034(19) 0.0012(19) 0.022(2)
C1 0.036(3) 0.035(3) 0.037(3) -0.002(2) 0.002(2) 0.022(2)
C2 0.019(2) 0.037(3) 0.038(3) 0.002(2) 0.010(2) 0.013(2)
C3 0.036(3) 0.035(3) 0.047(3) -0.006(2) -0.008(2) 0.011(2)
C4 0.056(4) 0.042(3) 0.067(4) -0.016(3) -0.006(3) 0.028(3)
C5 0.051(4) 0.038(3) 0.077(5) 0.009(3) 0.006(3) 0.027(3)
C6 0.035(3) 0.046(3) 0.045(3) 0.005(3) -0.006(3) 0.010(3)
C7 0.029(3) 0.028(2) 0.049(3) 0.001(2) -0.005(2) 0.007(2)
N3 0.047(3) 0.038(2) 0.031(2) 0.0001(19) 0.0023(19) 0.027(2)
N4 0.041(2) 0.040(2) 0.035(2) 0.008(2) 0.011(2) 0.022(2)
C8 0.042(3) 0.037(3) 0.029(3) -0.001(2) 0.000(2) 0.023(2)
C9 0.037(3) 0.044(3) 0.037(3) 0.004(2) 0.002(2) 0.020(2)
C10 0.062(4) 0.044(3) 0.049(4) 0.010(3) 0.014(3) 0.028(3)
C11 0.066(5) 0.070(5) 0.074(5) 0.038(4) 0.042(4) 0.032(4)
C12 0.106(6) 0.093(6) 0.077(5) 0.032(5) 0.065(5) 0.072(5)
C13 0.083(5) 0.073(5) 0.056(4) 0.013(3) 0.028(4) 0.058(4)
C14 0.050(3) 0.049(3) 0.036(3) 0.012(2) 0.011(3) 0.028(3)
Co1G 0.0332 0.0267 0.0334 -0.0016 -0.001 0.0141
Co1M 0.0332 0.0267 0.0334 -0.0016 -0.001 0.0141
N2E 0.035 0.036 0.033 -0.0012 -0.0046 0.014
N4N 0.037 0.041 0.035 -0.011 -0.003 0.019
loop_
_geom_bond_atom_site_label_1
_geom_bond_atom_site_label_2
_geom_bond_site_symmetry_1
_geom_bond_site_symmetry_2
Co1 N1 1_555 1_555
N1 C1 1_555 1_555
N2 C1 1_555 1_555
C1 H1 1_555 1_555
C2 N2 1_555 1_555
C3 C2 1_555 1_555
H2 C3 1_555 1_555
C4 C3 1_555 1_555
H3 C4 1_555 1_555
C5 C4 1_555 1_555
H4 C5 1_555 1_555
C6 C5 1_555 1_555
H5 C6 1_555 1_555
C7 N1 1_555 1_555
N3 Co1 1_555 1_555
N4 C8 1_555 1_555
C8 N3 1_555 1_555
H6 C8 1_555 1_555
C9 N4 1_555 1_555
C10 C9 1_555 1_555
H7 C10 1_555 1_555
C11 C10 1_555 1_555
H8 C11 1_555 1_555
C12 C11 1_555 1_555
H9 C12 1_555 1_555
C13 C12 1_555 1_555
H10 C13 1_555 1_555
C14 N3 1_555 1_555
Co1G N2 1_555 1_555
Co1M N4 1_555 1_555
N2E Co1 1_555 1_555
N4N Co1 1_555 1_555
C2 C7 1_555 1_555
C6 C7 1_555 1_555
C9 C14 1_555 1_555
C13 C14 1_555 1_555

#END
