
#######################################################################
#
#                 Cambridge Crystallographic Data Centre
#                                CCDC 
#
#######################################################################
#
# If this CIF has been generated from an entry in the Cambridge 
# Structural Database, then it will include bibliographic, chemical, 
# crystal, experimental, refinement or atomic coordinate data resulting 
# from the CCDC's data processing and validation procedures.
#
#######################################################################

data_IYOVIC
_chemical_formula_moiety         '(C38 H38 Cl3 Eu3 N4 O16 S4 2-)n'
_symmetry_cell_setting           orthorhombic
_symmetry_space_group_name_H-M   'P 21 21 2'
_symmetry_Int_Tables_number      18
_space_group_name_Hall           'P 2 2ab'
loop_
_symmetry_equiv_pos_site_id
_symmetry_equiv_pos_as_xyz
1 x,y,z
2 -x,-y,z
3 1/2-x,1/2+y,-z
4 1/2+x,1/2-y,-z
_cell_length_a                   16.2850(5)
_cell_length_b                   11.9314(3)
_cell_length_c                   12.2099(4)
_cell_angle_alpha                90
_cell_angle_beta                 90
_cell_angle_gamma                90
_cell_volume                     2372.42
loop_
_atom_site_label
_atom_site_type_symbol
_atom_site_fract_x
_atom_site_fract_y
_atom_site_fract_z
N1 N 0.0204(8) 0.4148(9) -0.2351(9)
C13 C 0.0122(10) 0.4475(11) -0.3428(10)
H5 H 0.0223 0.4024 -0.4056
C16 C 0.0527(16) 0.3063(14) -0.1917(18)
H8 H 0.0541 0.3100 -0.1107
H9 H 0.0147 0.2453 -0.2126
H10 H 0.0958 0.2969 -0.2035
C17 C 0.134(2) 0.280(3) -0.231(3)
H11 H 0.1500 0.2055 -0.2046
H12 H 0.1729 0.3360 -0.2050
H13 H 0.1336 0.2795 -0.3117
C18 C 0.0000 0.5000 -0.1753(14)
H14 H 0.0000 0.5000 -0.0975
N1A N -0.0204(8) 0.5852(9) -0.2351(9)
C13A C -0.0122(10) 0.5525(11) -0.3428(10)
H5A H -0.0223 0.5976 -0.4056
C16A C -0.0527(16) 0.6937(14) -0.1917(18)
H8A H -0.0541 0.6900 -0.1107
H9A H -0.0147 0.7547 -0.2126
H10A H -0.0958 0.7031 -0.2035
C17A C -0.134(2) 0.720(3) -0.231(3)
H11A H -0.1500 0.7945 -0.2046
H12A H -0.1729 0.6640 -0.2050
H13A H -0.1336 0.7205 -0.3117
N2 N 0.0653(8) 0.9819(12) -0.2478(8)
C14 C 0.0000 1.0000 -0.3095(16)
H6 H 0.0000 1.0000 -0.3873
C15 C 0.0416(9) 0.9930(16) -0.1424(9)
H7 H 0.0764 0.9915 -0.0799
C19 C 0.1492(11) 0.9615(15) -0.2858(15)
H15 H 0.1892 0.9967 -0.2353
H16 H 0.1571 0.9937 -0.3598
H17 H 0.1605 0.9000 -0.2932
C20 C 0.162(3) 0.835(4) -0.289(4)
H18 H 0.2172 0.8178 -0.3143
H19 H 0.1214 0.8009 -0.3383
H20 H 0.1541 0.8040 -0.2148
N2A N -0.0653(8) 1.0181(12) -0.2478(8)
C15A C -0.0416(9) 1.0070(16) -0.1424(9)
H7A H -0.0764 1.0085 -0.0799
C19A C -0.1492(11) 1.0385(15) -0.2858(15)
H15A H -0.1892 1.0033 -0.2353
H16A H -0.1571 1.0063 -0.3598
H17A H -0.1605 1.1000 -0.2932
C20A C -0.162(3) 1.165(4) -0.289(4)
H18A H -0.2172 1.1822 -0.3143
H19A H -0.1214 1.1991 -0.3383
H20A H -0.1541 1.1960 -0.2148
Eu1 Eu 0.0000 0.5000 0.19727(6)
Eu2 Eu -0.02955(3) 0.16060(4) 0.28216(4)
Cl1 Cl -0.0127(11) 0.2045(19) 0.5000(16)
Cl2 Cl 0.0000 0.0000 0.1197(3)
S1 S -0.20987(17) 0.5208(2) 0.5209(2)
O1 O -0.0835(4) 0.3530(5) 0.3020(5)
O2 O -0.0773(4) 0.7359(6) 0.2153(7)
C1 C -0.3491(7) 0.5030(9) 0.6417(8)
O3 O -0.3316(5) 0.5995(5) 0.6776(6)
O4 O -0.4194(4) 0.4619(6) 0.6587(6)
O5 O -0.0860(5) 0.5284(6) 0.3574(7)
C2 C -0.1276(7) 0.6887(9) 0.1534(9)
O6 O -0.1241(5) 0.5868(6) 0.1282(6)
C3 C -0.2910(6) 0.4448(9) 0.5716(8)
C4 C -0.1800(7) 0.4097(9) 0.4429(9)
C5 C -0.1118(7) 0.4296(8) 0.3653(9)
C6 C -0.2935(7) 0.3394(10) 0.5285(9)
H1 H -0.3342 0.2854 0.5465
C7 C -0.1979(7) 0.7530(9) 0.1085(10)
S2 S -0.26672(18) 0.6854(2) 0.0236(3)
O7 O -0.4444(4) 0.8852(5) -0.0589(6)
O8 O -0.4056(5) 0.7180(6) -0.1187(6)
C8 C -0.3967(7) 0.8041(8) -0.0635(9)
C9 C -0.2892(7) 0.8939(9) 0.0646(9)
H2 H -0.3116 0.9674 0.0660
C10 C -0.3238(7) 0.8052(8) 0.0085(10)
C11 C -0.2290(7) 0.3197(8) 0.4543(9)
H3 H -0.2209 0.2509 0.4167
C12 C -0.2165(8) 0.8622(9) 0.1198(11)
H4 H -0.1838 0.9131 0.1608
Eu1B Eu -0.5000 1.0000 -0.19727(6)
Eu1B_2 Eu 0.5000 0.0000 -0.19727(6)
Eu2A Eu 0.02955(3) 0.83940(4) 0.28216(4)
Eu2A_2 Eu 0.02955(3) -0.16060(4) 0.28216(4)
Eu2B Eu -0.47045(3) 0.66060(4) 0.71784(4)
Eu2C Eu -0.52955(3) 0.33940(4) 0.71784(4)
Eu2B_2 Eu -0.47045(3) 0.66060(4) -0.28216(4)
Eu2C_2 Eu 0.47045(3) 0.33940(4) 0.71784(4)
Eu2B_3 Eu 0.52955(3) 0.66060(4) 0.71784(4)
Eu2C_3 Eu 0.47045(3) 0.33940(4) -0.28216(4)
Cl1A Cl 0.0127(11) 0.7955(19) 0.5000(16)
Cl2_2 Cl 0.0000 1.0000 0.1197(3)
S1A S 0.20987(17) 0.4792(2) 0.5209(2)
O1A O 0.0835(4) 0.6470(5) 0.3020(5)
O2A O 0.0773(4) 0.2641(6) 0.2153(7)
C1A C 0.3491(7) 0.4970(9) 0.6417(8)
O3A O 0.3316(5) 0.4005(5) 0.6776(6)
O3B O -0.1684(5) 0.0995(5) 0.3224(6)
O3C O 0.1684(5) 0.9005(5) 0.3224(6)
O4A O 0.4194(4) 0.5381(6) 0.6587(6)
O4B O -0.0806(4) -0.0381(6) 0.3413(6)
O4C O 0.0806(4) 0.0381(6) 0.3413(6)
O4C_2 O 0.0806(4) 1.0381(6) 0.3413(6)
O4B_2 O -0.0806(4) 0.9619(6) 0.3413(6)
O5A O 0.0860(5) 0.4716(6) 0.3574(7)
C2A C 0.1276(7) 0.3113(9) 0.1534(9)
O6A O 0.1241(5) 0.4132(6) 0.1282(6)
C3A C 0.2910(6) 0.5552(9) 0.5716(8)
C4A C 0.1800(7) 0.5903(9) 0.4429(9)
C5A C 0.1118(7) 0.5704(8) 0.3653(9)
C6A C 0.2935(7) 0.6606(10) 0.5285(9)
H1A H 0.3342 0.7146 0.5465
C7A C 0.1979(7) 0.2470(9) 0.1085(10)
S2A S 0.26672(18) 0.3146(2) 0.0236(3)
O7A O 0.4444(4) 0.1148(5) -0.0589(6)
O7B O -0.0556(4) 0.3852(5) 0.0589(6)
O7C O 0.0556(4) 0.6148(5) 0.0589(6)
O8A O 0.4056(5) 0.2820(6) -0.1187(6)
O8B O -0.0944(5) 0.2180(6) 0.1187(6)
O8C O 0.0944(5) 0.7820(6) 0.1187(6)
C8A C 0.3967(7) 0.1959(8) -0.0635(9)
C9A C 0.2892(7) 0.1061(9) 0.0646(9)
H2A H 0.3116 0.0326 0.0660
C10A C 0.3238(7) 0.1948(8) 0.0085(10)
C11A C 0.2290(7) 0.6803(8) 0.4543(9)
H3A H 0.2209 0.7491 0.4167
C12A C 0.2165(8) 0.1378(9) 0.1198(11)
H4A H 0.1838 0.0869 0.1608
loop_
_geom_bond_atom_site_label_1
_geom_bond_atom_site_label_2
_geom_bond_site_symmetry_1
_geom_bond_site_symmetry_2
Eu1 O1 1_555 1_555
Eu2 Cl1 1_555 1_555
Cl2 Eu2 1_555 1_555
S1 C3 1_555 1_555
O1 Eu2 1_555 1_555
O2 C2 1_555 1_555
C1 O3 1_555 1_555
O3 Eu2B 1_555 1_555
O4 C1 1_555 1_555
O5 Eu1 1_555 1_555
C2 O6 1_555 1_555
O6 Eu1 1_555 1_555
C3 C1 1_555 1_555
C4 S1 1_555 1_555
C5 O1 1_555 1_555
C6 C3 1_555 1_555
H1 C6 1_555 1_555
C7 C2 1_555 1_555
S2 C7 1_555 1_555
O7 C8 1_555 1_555
O8 C8 1_555 1_555
C8 C10 1_555 1_555
C9 H2 1_555 1_555
C10 S2 1_555 1_555
C11 C4 1_555 1_555
H3 C11 1_555 1_555
C12 C7 1_555 1_555
H4 C12 1_555 1_555
N1 C13 1_555 1_555
N2 C14 1_555 1_555
C13 H5 1_555 1_555
C14 H6 1_555 1_555
C15 N2 1_555 1_555
H7 C15 1_555 1_555
C16 N1 1_555 1_555
H8 C16 1_555 1_555
H9 C16 1_555 1_555
H10 C16 1_555 1_555
C17 C16 1_555 1_555
H11 C17 1_555 1_555
H12 C17 1_555 1_555
H13 C17 1_555 1_555
C18 N1 1_555 1_555
H14 C18 1_555 1_555
C19 N2 1_555 1_555
H15 C19 1_555 1_555
H16 C19 1_555 1_555
H17 C19 1_555 1_555
C20 C19 1_555 1_555
H18 C20 1_555 1_555
H19 C20 1_555 1_555
H20 C20 1_555 1_555
Eu1B O7 1_555 1_555
Eu1B_2 O7A 1_555 1_555
Eu2A O2 1_555 1_555
Eu2A_2 Cl2 1_555 1_555
Eu2B O4 1_555 1_555
Eu2C O4 1_555 1_555
Eu2B_2 O8 1_555 1_555
Eu2C_2 O3A 1_555 1_555
Eu2B_3 O4A 1_555 1_555
Eu2C_3 O8A 1_555 1_555
Cl1A Eu2A 1_555 1_555
Cl2_2 Eu2A 1_555 1_555
S1A C3A 1_555 1_555
O1A Eu1 1_555 1_555
O2A Eu2 1_555 1_555
C1A O3A 1_555 1_555
O3B Eu2 1_555 1_555
O3C Eu2A 1_555 1_555
O4A Eu2C_2 1_555 1_555
O4B Eu2 1_555 1_555
O4C Eu2 1_555 1_555
O4C_2 Eu2A 1_555 1_555
O4B_2 Eu2A 1_555 1_555
O5A Eu1 1_555 1_555
C2A O2A 1_555 1_555
O6A Eu1 1_555 1_555
C3A C1A 1_555 1_555
C4A S1A 1_555 1_555
C5A O1A 1_555 1_555
C6A C3A 1_555 1_555
H1A C6A 1_555 1_555
C7A C2A 1_555 1_555
S2A C7A 1_555 1_555
O7A C8A 1_555 1_555
O7B Eu1 1_555 1_555
O7C Eu1 1_555 1_555
O8A C8A 1_555 1_555
O8B Eu2 1_555 1_555
O8C Eu2A 1_555 1_555
C8A C10A 1_555 1_555
C9A H2A 1_555 1_555
C10A S2A 1_555 1_555
C11A C4A 1_555 1_555
H3A C11A 1_555 1_555
C12A C7A 1_555 1_555
H4A C12A 1_555 1_555
N1A C18 1_555 1_555
N2A C14 1_555 1_555
C13A C13 1_555 1_555
H5A C13A 1_555 1_555
C15A C15 1_555 1_555
H7A C15A 1_555 1_555
C16A N1A 1_555 1_555
H8A C16A 1_555 1_555
H9A C16A 1_555 1_555
H10A C16A 1_555 1_555
C17A C16A 1_555 1_555
H11A C17A 1_555 1_555
H12A C17A 1_555 1_555
H13A C17A 1_555 1_555
C19A N2A 1_555 1_555
H15A C19A 1_555 1_555
H16A C19A 1_555 1_555
H17A C19A 1_555 1_555
C20A C19A 1_555 1_555
H18A C20A 1_555 1_555
H19A C20A 1_555 1_555
H20A C20A 1_555 1_555
O5 C5 1_555 1_555
C4 C5 1_555 1_555
C6 C11 1_555 1_555
C9 C10 1_555 1_555
C9 C12 1_555 1_555
H10 C17 1_555 1_555
H17 C20 1_555 1_555
Eu2A O1A 1_555 1_555
Eu2A_2 O4B 1_555 1_555
Eu2A_2 O4C 1_555 1_555
C1A O4A 1_555 1_555
O5A C5A 1_555 1_555
C2A O6A 1_555 1_555
C4A C5A 1_555 1_555
C6A C11A 1_555 1_555
C9A C10A 1_555 1_555
C9A C12A 1_555 1_555
N1A C13A 1_555 1_555
N2A C15A 1_555 1_555
H10A C17A 1_555 1_555
H17A C20A 1_555 1_555

#END
