
#######################################################################
#
#                 Cambridge Crystallographic Data Centre
#                                CCDC 
#
#######################################################################
#
# If this CIF has been generated from an entry in the Cambridge 
# Structural Database, then it will include bibliographic, chemical, 
# crystal, experimental, refinement or atomic coordinate data resulting 
# from the CCDC's data processing and validation procedures.
#
#######################################################################

data_LIRFIB
_chemical_formula_moiety         '(C44 H36 Cr1 Na1 O12 P2)n'
_symmetry_cell_setting           cubic
_symmetry_space_group_name_H-M   'P 21 3'
_symmetry_Int_Tables_number      198
_space_group_name_Hall           'P 2ac 2ab 3'
loop_
_symmetry_equiv_pos_site_id
_symmetry_equiv_pos_as_xyz
1 x,y,z
2 z,x,y
3 y,z,x
4 1/2+x,1/2-y,-z
5 1/2+z,1/2-x,-y
6 1/2+y,1/2-z,-x
7 -x,1/2+y,1/2-z
8 -z,1/2+x,1/2-y
9 -y,1/2+z,1/2-x
10 1/2-x,-y,1/2+z
11 1/2-z,-x,1/2+y
12 1/2-y,-z,1/2+x
_cell_length_a                   15.952(2)
_cell_length_b                   15.952(2)
_cell_length_c                   15.952(2)
_cell_angle_alpha                90
_cell_angle_beta                 90
_cell_angle_gamma                90
_cell_volume                     4059.25
loop_
_atom_site_label
_atom_site_type_symbol
_atom_site_fract_x
_atom_site_fract_y
_atom_site_fract_z
_atom_site_U_iso_or_equiv
_atom_site_thermal_displace_type
Cr1 Cr 0.13195(5) 0.13195(5) 0.13195(5) 0.0298 Uani
Na1 Na 0.1337(1) -0.1337(1) 0.3663(1) 0.0371 Uani
O1 O 0.1400(2) 0.1165(2) 0.2545(2) 0.0347 Uani
O2 O 0.1367(3) 0.0148(2) 0.3502(2) 0.0430 Uani
O3 O 0.1360(2) 0.0084(2) 0.1319(2) 0.0327 Uani
O4 O 0.1402(3) -0.0998(2) 0.2197(2) 0.0433 Uani
C1 C 0.1389(3) 0.0401(3) 0.2782(3) 0.0287 Uani
C2 C 0.1385(3) -0.0252(3) 0.2046(3) 0.0307 Uani
O2H O -0.0148(2) -0.1498(2) 0.3633(3) 0.0430 Uani
C1H C -0.0401(3) -0.2218(3) 0.3611(3) 0.0287 Uani
O1H O -0.1165(2) -0.2455(2) 0.3600(2) 0.0347 Uani
Cr1H Cr -0.13195(5) -0.36805(5) 0.36805(5) 0.0298 Uani
O3H O -0.0084(2) -0.3681(2) 0.3640(2) 0.0327 Uani
C2H C 0.0252(3) -0.2954(3) 0.3615(3) 0.0307 Uani
O4H O 0.0998(2) -0.2803(2) 0.3598(3) 0.0433 Uani
O2J O 0.1498(2) -0.1367(3) 0.5148(2) 0.0430 Uani
O1A O 0.2545(2) 0.1400(2) 0.1165(2) 0.0347 Uani
O1B O 0.1165(2) 0.2545(2) 0.1400(2) 0.0347 Uani
O3A O 0.1319(2) 0.1360(2) 0.0084(2) 0.0327 Uani
O3B O 0.0084(2) 0.1319(2) 0.1360(2) 0.0327 Uani
O4J O 0.2803(2) -0.1402(3) 0.4002(2) 0.0433 Uani
C1A C 0.2782(3) 0.1389(3) 0.0401(3) 0.0287 Uani
C2A C 0.2046(3) 0.1385(3) -0.0252(3) 0.0307 Uani
O2A O 0.3502(2) 0.1367(3) 0.0148(2) 0.0430 Uani
O4A O 0.2197(2) 0.1402(3) -0.0998(2) 0.0433 Uani
Na1A Na 0.3663(1) 0.1337(1) -0.1337(1) 0.0371 Uani
P1 P 0.34311(9) 0.34311(9) 0.34311(9) 0.0338 Uani
C3 C 0.3799(2) 0.3497(2) 0.2376(2) 0.0363 Uani
C4 C 0.4644(3) 0.3676(3) 0.2248(2) 0.0493 Uani
C5 C 0.4952(3) 0.3707(3) 0.1433(3) 0.0640 Uani
C6 C 0.4424(3) 0.3562(3) 0.0764(3) 0.0637 Uani
C7 C 0.3588(3) 0.3385(2) 0.0891(2) 0.0587 Uani
C8 C 0.3266(2) 0.3351(2) 0.1700(3) 0.0463 Uani
C9 C 0.4082(3) 0.4082(3) 0.4082(3) 0.0570 Uani
H1 H 0.50248 0.37804 0.27353 0.0600 Uiso
H2 H 0.55570 0.38347 0.13313 0.0860 Uiso
H3 H 0.46507 0.35860 0.01796 0.0790 Uiso
H4 H 0.32125 0.32816 0.04000 0.0750 Uiso
H5 H 0.26594 0.32224 0.17957 0.0560 Uiso
H6 H 0.38824 0.40509 0.46756 0.0570 Uiso
H7 H 0.46756 0.38824 0.40509 0.0570 Uiso
H8 H 0.40509 0.46756 0.38824 0.0570 Uiso
C3A C 0.2376(2) 0.3799(2) 0.3497(2) 0.0363 Uani
C4A C 0.2248(2) 0.4644(3) 0.3676(3) 0.0493 Uani
C5A C 0.1433(3) 0.4952(3) 0.3707(3) 0.0640 Uani
C6A C 0.0764(3) 0.4424(3) 0.3562(3) 0.0637 Uani
C7A C 0.0891(2) 0.3588(3) 0.3385(2) 0.0587 Uani
C8A C 0.1700(3) 0.3266(2) 0.3351(2) 0.0463 Uani
H5A H 0.17957 0.26594 0.32224 0.0560 Uiso
H4A H 0.04000 0.32125 0.32816 0.0750 Uiso
H3A H 0.01796 0.46507 0.35860 0.0790 Uiso
H2A H 0.13313 0.55570 0.38347 0.0860 Uiso
H1A H 0.27353 0.50248 0.37804 0.0600 Uiso
C3B C 0.3497(2) 0.2376(2) 0.3799(2) 0.0363 Uani
C4B C 0.3676(3) 0.2248(2) 0.4644(3) 0.0493 Uani
C5B C 0.3707(3) 0.1433(3) 0.4952(3) 0.0640 Uani
C6B C 0.3562(3) 0.0764(3) 0.4424(3) 0.0637 Uani
C7B C 0.3385(2) 0.0891(2) 0.3588(3) 0.0587 Uani
C8B C 0.3351(2) 0.1700(3) 0.3266(2) 0.0463 Uani
H5B H 0.32224 0.17957 0.26594 0.0560 Uiso
H4B H 0.32816 0.04000 0.32125 0.0750 Uiso
H3B H 0.35860 0.01796 0.46507 0.0790 Uiso
H2B H 0.38347 0.13313 0.55570 0.0860 Uiso
H1B H 0.37804 0.27353 0.50248 0.0600 Uiso
P2 P 0.84130(9) 0.84130(9) 0.84130(9) 0.0365 Uani
C10 C 0.8788(2) 0.8475(2) 0.7362(2) 0.0403 Uani
C11 C 0.9641(3) 0.8622(3) 0.7242(3) 0.0590 Uani
C12 C 0.9955(3) 0.8651(3) 0.6429(3) 0.0830 Uani
C13 C 0.9427(3) 0.8535(3) 0.5755(3) 0.0847 Uani
C14 C 0.8584(4) 0.8390(2) 0.5874(3) 0.0747 Uani
C15 C 0.8254(3) 0.8358(2) 0.6681(3) 0.0540 Uani
C16 C 0.9067(4) 0.9067(4) 0.9067(4) 0.0570 Uani
H9 H 1.00213 0.87058 0.77331 0.0710 Uiso
H10 H 1.05654 0.87564 0.63335 0.1150 Uiso
H11 H 0.96584 0.85573 0.51727 0.1100 Uiso
H12 H 0.82078 0.83066 0.53796 0.0980 Uiso
H13 H 0.76429 0.82520 0.67708 0.0650 Uiso
H14 H 0.88643 0.90391 0.96595 0.0570 Uiso
H15 H 0.96595 0.88643 0.90391 0.0570 Uiso
H16 H 0.90391 0.96595 0.88643 0.0570 Uiso
C10A C 0.7362(2) 0.8788(2) 0.8475(2) 0.0403 Uani
C11A C 0.7242(3) 0.9641(3) 0.8622(3) 0.0590 Uani
C12A C 0.6429(3) 0.9955(3) 0.8651(3) 0.0830 Uani
C13A C 0.5755(3) 0.9427(3) 0.8535(3) 0.0847 Uani
C14A C 0.5874(3) 0.8584(4) 0.8390(2) 0.0747 Uani
C15A C 0.6681(3) 0.8254(3) 0.8358(2) 0.0540 Uani
H13A H 0.67708 0.76429 0.82520 0.0650 Uiso
H12A H 0.53796 0.82078 0.83066 0.0980 Uiso
H11A H 0.51727 0.96584 0.85573 0.1100 Uiso
H10A H 0.63335 1.05654 0.87564 0.1150 Uiso
H9A H 0.77331 1.00213 0.87058 0.0710 Uiso
C10B C 0.8475(2) 0.7362(2) 0.8788(2) 0.0403 Uani
C11B C 0.8622(3) 0.7242(3) 0.9641(3) 0.0590 Uani
C12B C 0.8651(3) 0.6429(3) 0.9955(3) 0.0830 Uani
C13B C 0.8535(3) 0.5755(3) 0.9427(3) 0.0847 Uani
C14B C 0.8390(2) 0.5874(3) 0.8584(4) 0.0747 Uani
C15B C 0.8358(2) 0.6681(3) 0.8254(3) 0.0540 Uani
H13B H 0.82520 0.67708 0.76429 0.0650 Uiso
H12B H 0.83066 0.53796 0.82078 0.0980 Uiso
H11B H 0.85573 0.51727 0.96584 0.1100 Uiso
H10B H 0.87564 0.63335 1.05654 0.1150 Uiso
H9B H 0.87058 0.77331 1.00213 0.0710 Uiso
loop_
_atom_site_aniso_label
_atom_site_aniso_U_11
_atom_site_aniso_U_22
_atom_site_aniso_U_33
_atom_site_aniso_U_23
_atom_site_aniso_U_13
_atom_site_aniso_U_12
Cr1 0.0298(4) 0.0298(4) 0.0298(4) -0.0025(4) -0.0025(4) -0.0025(4)
Na1 0.0371(8) 0.0371(8) 0.0371(8) 0.005(1) -0.005(1) -0.005(1)
O1 0.049(2) 0.029(2) 0.026(2) 0.000(2) -0.001(2) -0.006(2)
O2 0.062(3) 0.041(2) 0.026(2) 0.001(2) 0.001(2) -0.002(2)
O3 0.044(2) 0.026(2) 0.028(2) -0.004(2) 0.003(2) 0.002(2)
O4 0.066(3) 0.029(2) 0.035(2) -0.001(2) -0.001(2) -0.001(2)
C1 0.023(3) 0.030(3) 0.033(3) -0.005(2) 0.002(3) -0.001(3)
C2 0.025(3) 0.034(3) 0.033(3) -0.001(3) 0.001(3) -0.003(3)
O2H 0.041 0.026 0.062 -0.001 -0.002 -0.001
C1H 0.03 0.033 0.023 -0.002 -0.001 0.005
O1H 0.029 0.026 0.049 0.001 -0.006 0
Cr1H 0.0298 0.0298 0.0298 0.0025 -0.0025 0.0025
O3H 0.026 0.028 0.044 -0.003 0.002 0.004
C2H 0.034 0.033 0.025 -0.001 -0.003 0.001
O4H 0.029 0.035 0.066 0.001 -0.001 0.001
O2J 0.026 0.062 0.041 0.002 -0.001 0.001
O1A 0.026 0.049 0.029 -0.006 0 -0.001
O1B 0.029 0.026 0.049 -0.001 -0.006 0
O3A 0.028 0.044 0.026 0.002 -0.004 0.003
O3B 0.026 0.028 0.044 0.003 0.002 -0.004
O4J 0.035 0.066 0.029 0.001 0.001 -0.001
C1A 0.033 0.023 0.03 -0.001 -0.005 0.002
C2A 0.033 0.025 0.034 -0.003 -0.001 0.001
O2A 0.026 0.062 0.041 -0.002 0.001 0.001
O4A 0.035 0.066 0.029 -0.001 -0.001 -0.001
Na1A 0.0371 0.0371 0.0371 -0.005 0.005 -0.005
P1 0.0338(6) 0.0338(6) 0.0338(6) 0.0036(6) 0.0036(6) 0.0036(6)
C3 0.038(2) 0.030(3) 0.041(2) 0.001(2) 0.008(1) 0.008(2)
C4 0.041(2) 0.055(3) 0.052(2) 0.002(2) 0.016(1) 0.006(2)
C5 0.062(2) 0.071(3) 0.059(2) 0.002(3) 0.029(2) 0.004(3)
C6 0.090(3) 0.052(3) 0.049(2) -0.001(2) 0.027(2) 0.001(3)
C7 0.087(3) 0.048(3) 0.041(2) -0.001(2) 0.009(1) -0.005(3)
C8 0.057(2) 0.041(2) 0.041(2) 0.001(2) 0.002(2) 0.000(2)
C9 0.057(3) 0.057(3) 0.057(3) -0.012(3) -0.012(3) -0.012(3)
C3A 0.041 0.038 0.03 0.008 0.001 0.008
C4A 0.052 0.041 0.055 0.006 0.002 0.016
C5A 0.059 0.062 0.071 0.004 0.002 0.029
C6A 0.049 0.09 0.052 0.001 -0.001 0.027
C7A 0.041 0.087 0.048 -0.005 -0.001 0.009
C8A 0.041 0.057 0.041 0 0.001 0.002
C3B 0.03 0.041 0.038 0.008 0.008 0.001
C4B 0.055 0.052 0.041 0.016 0.006 0.002
C5B 0.071 0.059 0.062 0.029 0.004 0.002
C6B 0.052 0.049 0.09 0.027 0.001 -0.001
C7B 0.048 0.041 0.087 0.009 -0.005 -0.001
C8B 0.041 0.041 0.057 0.002 0 0.001
P2 0.0365(6) 0.0365(6) 0.0365(6) 0.0031(7) 0.0031(7) 0.0031(7)
C10 0.044(2) 0.034(3) 0.043(2) -0.001(2) 0.007(2) 0.008(3)
C11 0.046(2) 0.067(3) 0.064(2) 0.007(2) 0.022(2) 0.010(3)
C12 0.085(3) 0.086(3) 0.078(2) 0.010(3) 0.047(3) 0.015(3)
C13 0.137(4) 0.060(4) 0.057(2) 0.001(2) 0.043(2) 0.012(4)
C14 0.133(4) 0.050(3) 0.041(2) -0.003(2) 0.008(2) -0.004(4)
C15 0.077(2) 0.044(2) 0.041(2) -0.001(2) -0.004(2) -0.002(2)
C16 0.057(3) 0.057(3) 0.057(3) -0.009(3) -0.009(3) -0.009(3)
C10A 0.043 0.044 0.034 0.008 -0.001 0.007
C11A 0.064 0.046 0.067 0.01 0.007 0.022
C12A 0.078 0.085 0.086 0.015 0.01 0.047
C13A 0.057 0.137 0.06 0.012 0.001 0.043
C14A 0.041 0.133 0.05 -0.004 -0.003 0.008
C15A 0.041 0.077 0.044 -0.002 -0.001 -0.004
C10B 0.034 0.043 0.044 0.007 0.008 -0.001
C11B 0.067 0.064 0.046 0.022 0.01 0.007
C12B 0.086 0.078 0.085 0.047 0.015 0.01
C13B 0.06 0.057 0.137 0.043 0.012 0.001
C14B 0.05 0.041 0.133 0.008 -0.004 -0.003
C15B 0.044 0.041 0.077 -0.004 -0.002 -0.001
loop_
_geom_bond_atom_site_label_1
_geom_bond_atom_site_label_2
_geom_bond_site_symmetry_1
_geom_bond_site_symmetry_2
Cr1 O1 1_555 1_555
Na1 O2 1_555 1_555
O1 C1 1_555 1_555
O2 C1 1_555 1_555
O3 Cr1 1_555 1_555
O4 Na1 1_555 1_555
C1 C2 1_555 1_555
C2 O3 1_555 1_555
P1 C3 1_555 1_555
C3 C4 1_555 1_555
C4 C5 1_555 1_555
C5 C6 1_555 1_555
C6 C7 1_555 1_555
C7 C8 1_555 1_555
C8 C3 1_555 1_555
C9 P1 1_555 1_555
P2 C10 1_555 1_555
C10 C11 1_555 1_555
C11 C12 1_555 1_555
C12 C13 1_555 1_555
C13 C14 1_555 1_555
C14 C15 1_555 1_555
C15 C10 1_555 1_555
C16 P2 1_555 1_555
H1 C4 1_555 1_555
H2 C5 1_555 1_555
H3 C6 1_555 1_555
H4 C7 1_555 1_555
H5 C8 1_555 1_555
H6 C9 1_555 1_555
H7 C9 1_555 1_555
H8 C9 1_555 1_555
H9 C11 1_555 1_555
H10 C12 1_555 1_555
H11 C13 1_555 1_555
H12 C14 1_555 1_555
H13 C15 1_555 1_555
H14 C16 1_555 1_555
H15 C16 1_555 1_555
H16 C16 1_555 1_555
O2H Na1 1_555 1_555
C1H O2H 1_555 1_555
O1H C1H 1_555 1_555
Cr1H O1H 1_555 1_555
O3H Cr1H 1_555 1_555
C2H C1H 1_555 1_555
O4H Na1 1_555 1_555
O2J Na1 1_555 1_555
O1A Cr1 1_555 1_555
O1B Cr1 1_555 1_555
O3A Cr1 1_555 1_555
O3B Cr1 1_555 1_555
O4J Na1 1_555 1_555
C3A P1 1_555 1_555
C4A C3A 1_555 1_555
C5A C4A 1_555 1_555
C6A C5A 1_555 1_555
C7A C6A 1_555 1_555
C8A C3A 1_555 1_555
H5A C8A 1_555 1_555
H4A C7A 1_555 1_555
H3A C6A 1_555 1_555
H2A C5A 1_555 1_555
H1A C4A 1_555 1_555
C3B P1 1_555 1_555
C4B C3B 1_555 1_555
C5B C4B 1_555 1_555
C6B C5B 1_555 1_555
C7B C6B 1_555 1_555
C8B C3B 1_555 1_555
H5B C8B 1_555 1_555
H4B C7B 1_555 1_555
H3B C6B 1_555 1_555
H2B C5B 1_555 1_555
H1B C4B 1_555 1_555
C10A P2 1_555 1_555
C11A C10A 1_555 1_555
C12A C11A 1_555 1_555
C13A C12A 1_555 1_555
C14A C13A 1_555 1_555
C15A C10A 1_555 1_555
H13A C15A 1_555 1_555
H12A C14A 1_555 1_555
H11A C13A 1_555 1_555
H10A C12A 1_555 1_555
H9A C11A 1_555 1_555
C10B P2 1_555 1_555
C11B C10B 1_555 1_555
C12B C11B 1_555 1_555
C13B C12B 1_555 1_555
C14B C13B 1_555 1_555
C15B C10B 1_555 1_555
H13B C15B 1_555 1_555
H12B C14B 1_555 1_555
H11B C13B 1_555 1_555
H10B C12B 1_555 1_555
H9B C11B 1_555 1_555
C1A O1A 1_555 1_555
C2A O3A 1_555 1_555
O2A C1A 1_555 1_555
O4A C2A 1_555 1_555
Na1A O2A 1_555 1_555
O4 C2 1_555 1_555
O3H C2H 1_555 1_555
C2H O4H 1_555 1_555
C7A C8A 1_555 1_555
C7B C8B 1_555 1_555
C14A C15A 1_555 1_555
C14B C15B 1_555 1_555
C1A C2A 1_555 1_555
O4A Na1A 1_555 1_555

#END
