
#######################################################################
#
#                 Cambridge Crystallographic Data Centre
#                                CCDC 
#
#######################################################################
#
# If this CIF has been generated from an entry in the Cambridge 
# Structural Database, then it will include bibliographic, chemical, 
# crystal, experimental, refinement or atomic coordinate data resulting 
# from the CCDC's data processing and validation procedures.
#
#######################################################################

data_GASSUR
_chemical_formula_moiety         '(C15 H19 N3 O7 Zn1)n'
_symmetry_cell_setting           monoclinic
_symmetry_space_group_name_H-M   'C 2/c'
_symmetry_Int_Tables_number      15
_space_group_name_Hall           '-C 2yc'
loop_
_symmetry_equiv_pos_site_id
_symmetry_equiv_pos_as_xyz
1 x,y,z
2 -x,y,1/2-z
3 1/2+x,1/2+y,z
4 1/2-x,1/2+y,1/2-z
5 -x,-y,-z
6 x,-y,1/2+z
7 1/2-x,1/2-y,-z
8 1/2+x,1/2-y,1/2+z
_cell_length_a                   15.701(3)
_cell_length_b                   14.964(3)
_cell_length_c                   17.339(4)
_cell_angle_alpha                90
_cell_angle_beta                 115.096(3)
_cell_angle_gamma                90
_cell_volume                     3689.22
loop_
_atom_site_label
_atom_site_type_symbol
_atom_site_fract_x
_atom_site_fract_y
_atom_site_fract_z
_atom_site_U_iso_or_equiv
_atom_site_thermal_displace_type
Zn1 Zn 0.04440(4) 0.94929(4) 0.34516(4) 0.0146 Uani
O1 O 0.0433(3) 0.9420(3) 0.6814(3) 0.0235 Uani
O2 O 0.1345(3) 0.9713(3) 0.8174(3) 0.0255 Uani
O3 O 0.4297(3) 0.6294(3) 0.8142(3) 0.0273 Uani
O4 O 0.3893(3) 0.6573(3) 0.6771(3) 0.0301 Uani
N1 N 0.1008(4) 0.9519(3) 0.4710(4) 0.0207 Uani
N2 N 0.1679(4) 0.9127(4) 0.6039(3) 0.0196 Uani
C1 C 0.1254(5) 0.8847(4) 0.5230(4) 0.0233 Uani
H1 H 0.1149 0.8252 0.5064 0.0290 Uiso
C2 C 0.1301(5) 1.0282(5) 0.5213(5) 0.0295 Uani
H2 H 0.1238 1.0867 0.5015 0.0360 Uiso
C3 C 0.1686(5) 1.0033(5) 0.6021(4) 0.0318 Uani
H3 H 0.1920 1.0410 0.6492 0.0380 Uiso
C4 C 0.2085(5) 0.8571(4) 0.6765(4) 0.0228 Uani
C5 C 0.2708(4) 0.7935(4) 0.6761(4) 0.0225 Uani
H4 H 0.2824 0.7859 0.6282 0.0270 Uiso
C6 C 0.3160(4) 0.7411(4) 0.7466(4) 0.0225 Uani
C7 C 0.3019(5) 0.7535(5) 0.8191(4) 0.0327 Uani
H5 H 0.3337 0.7189 0.8675 0.0390 Uiso
C8 C 0.2388(5) 0.8192(5) 0.8178(4) 0.0305 Uani
H6 H 0.2302 0.8294 0.8669 0.0370 Uiso
C9 C 0.1888(4) 0.8694(5) 0.7468(4) 0.0230 Uani
C10 C 0.1164(4) 0.9330(4) 0.7493(4) 0.0186 Uani
C11 C 0.3846(4) 0.6702(4) 0.7458(4) 0.0227 Uani
Zn1D Zn -0.04440(4) 1.05071(4) 0.65484(4) 0.0146 Uani
Zn1E Zn 0.04440(4) 1.05071(4) 0.84516(4) 0.0146 Uani
Zn1F Zn 0.45560(4) 0.55071(4) 0.65484(4) 0.0146 Uani
Zn1G Zn 0.54440(4) 0.55071(4) 0.84516(4) 0.0146 Uani
O1D O -0.0433(3) 1.0580(3) 0.3186(3) 0.0235 Uani
O2E O 0.1345(3) 1.0287(3) 0.3174(3) 0.0255 Uani
O3G O -0.0703(3) 0.8706(3) 0.3142(3) 0.0273 Uani
O4F O 0.1107(3) 0.8427(3) 0.3229(3) 0.0301 Uani
O5 O 0.4508(10) 0.8160(10) 0.4812(9) 0.1623 Uani
N3 N 0.4120(13) 0.9232(13) 0.5318(12) 0.1526 Uani
C12 C 0.3673(16) 1.0086(15) 0.5291(14) 0.1683 Uani
H7 H 0.4113 1.0559 0.5360 0.2530 Uiso
H8 H 0.3473 1.0113 0.5742 0.2530 Uiso
H9 H 0.3138 1.0151 0.4753 0.2530 Uiso
C13 C 0.4549(16) 0.8767(15) 0.6079(14) 0.1631 Uani
H10 H 0.4192 0.8239 0.6056 0.2450 Uiso
H11 H 0.4578 0.9140 0.6540 0.2450 Uiso
H12 H 0.5175 0.8602 0.6168 0.2450 Uiso
C14 C 0.4070(16) 0.8881(14) 0.4668(13) 0.1523 Uani
C15 C 0.3645(15) 0.9243(13) 0.3821(13) 0.1534 Uani
H13 H 0.2987 0.9099 0.3563 0.2300 Uiso
H14 H 0.3943 0.8990 0.3489 0.2300 Uiso
H15 H 0.3722 0.9880 0.3846 0.2300 Uiso
O6 O 0.5516(10) 0.7278(9) 0.4028(11) 0.1710 Uani
H16 H 0.5266 0.6823 0.3802 0.2570 Uiso
H17 H 0.5237 0.7534 0.4255 0.2570 Uiso
O7 O 0.5000 0.842(3) 0.2500 0.4073 Uani
H18 H 0.5140 0.8116 0.2918 0.6080 Uiso
H18A H 0.4860 0.8116 0.2082 0.6080 Uiso
loop_
_atom_site_aniso_label
_atom_site_aniso_U_11
_atom_site_aniso_U_22
_atom_site_aniso_U_33
_atom_site_aniso_U_23
_atom_site_aniso_U_13
_atom_site_aniso_U_12
Zn1 0.0156(5) 0.0169(6) 0.0126(5) 0.0008(2) 0.0072(4) 0.0005(2)
O1 0.024(3) 0.023(2) 0.026(3) 0.0028(17) 0.013(2) 0.0059(17)
O2 0.031(3) 0.033(3) 0.020(2) -0.002(2) 0.018(2) 0.007(2)
O3 0.027(2) 0.025(2) 0.035(3) 0.014(2) 0.018(2) 0.0120(19)
O4 0.033(3) 0.038(3) 0.026(2) 0.004(2) 0.019(2) 0.015(2)
N1 0.028(3) 0.020(3) 0.015(3) 0.001(2) 0.010(3) 0.001(2)
N2 0.026(3) 0.022(3) 0.010(3) 0.004(2) 0.007(2) 0.007(2)
C1 0.033(4) 0.023(3) 0.019(3) -0.003(3) 0.016(3) 0.002(3)
C2 0.043(4) 0.021(3) 0.025(4) -0.001(3) 0.015(3) 0.001(3)
C3 0.053(5) 0.020(3) 0.024(4) 0.001(3) 0.018(3) 0.006(3)
C4 0.024(3) 0.027(3) 0.016(3) 0.001(3) 0.007(3) 0.007(3)
C5 0.026(3) 0.026(3) 0.020(3) -0.003(3) 0.014(3) 0.006(3)
C6 0.026(3) 0.022(3) 0.024(3) 0.001(3) 0.015(3) 0.010(3)
C7 0.039(4) 0.045(4) 0.018(3) 0.008(3) 0.016(3) 0.023(3)
C8 0.042(4) 0.036(4) 0.018(3) 0.008(3) 0.017(3) 0.021(3)
C9 0.023(3) 0.028(4) 0.019(3) 0.005(3) 0.010(3) 0.007(3)
C10 0.019(3) 0.020(3) 0.018(3) -0.003(2) 0.009(3) -0.001(2)
C11 0.020(3) 0.024(3) 0.028(3) 0.001(3) 0.014(3) 0.007(3)
Zn1D 0.0156 0.0169 0.0126 0.0008 0.0072 0.0005
Zn1E 0.0156 0.0169 0.0126 -0.0008 0.0072 -0.0005
Zn1F 0.0156 0.0169 0.0126 0.0008 0.0072 0.0005
Zn1G 0.0156 0.0169 0.0126 -0.0008 0.0072 -0.0005
O1D 0.024 0.023 0.026 0.0028 0.013 0.0059
O2E 0.031 0.033 0.02 0.002 0.018 -0.007
O3G 0.027 0.025 0.035 -0.014 0.018 -0.012
O4F 0.033 0.038 0.026 0.004 0.019 0.015
O5 0.161(6) 0.142(5) 0.171(6) -0.002(4) 0.058(5) -0.001(5)
N3 0.151(5) 0.152(5) 0.155(4) 0.001(2) 0.065(3) -0.004(3)
C12 0.164(8) 0.163(6) 0.174(8) -0.009(4) 0.068(5) 0.006(5)
C13 0.162(8) 0.168(7) 0.160(5) 0.010(5) 0.069(5) -0.010(5)
C14 0.150(5) 0.150(5) 0.156(4) 0.001(2) 0.064(3) 0.000(3)
C15 0.153(8) 0.149(7) 0.153(4) -0.005(5) 0.060(5) 0.001(6)
O6 0.182(14) 0.136(12) 0.196(16) -0.016(10) 0.081(12) -0.011(10)
O7 0.41(3) 0.40(3) 0.41(3) 0.000 0.172(13) 0.000
loop_
_geom_bond_atom_site_label_1
_geom_bond_atom_site_label_2
_geom_bond_site_symmetry_1
_geom_bond_site_symmetry_2
Zn1 N1 1_555 1_555
O1 C10 1_555 1_555
O2 C10 1_555 1_555
O3 C11 1_555 1_555
O4 C11 1_555 1_555
N1 C1 1_555 1_555
N2 C1 1_555 1_555
C1 H1 1_555 1_555
C2 N1 1_555 1_555
H2 C2 1_555 1_555
C3 N2 1_555 1_555
H3 C3 1_555 1_555
C4 N2 1_555 1_555
C5 C4 1_555 1_555
H4 C5 1_555 1_555
C6 C5 1_555 1_555
C7 C6 1_555 1_555
H5 C7 1_555 1_555
C8 C7 1_555 1_555
H6 C8 1_555 1_555
C9 C4 1_555 1_555
C10 C9 1_555 1_555
C11 C6 1_555 1_555
O5 C14 1_555 1_555
N3 C12 1_555 1_555
C12 H7 1_555 1_555
H8 C12 1_555 1_555
H9 C12 1_555 1_555
C13 N3 1_555 1_555
H10 C13 1_555 1_555
H11 C13 1_555 1_555
H12 C13 1_555 1_555
C14 N3 1_555 1_555
C15 C14 1_555 1_555
H13 C15 1_555 1_555
H14 C15 1_555 1_555
H15 C15 1_555 1_555
O6 H16 1_555 1_555
H17 O6 1_555 1_555
O7 H18 1_555 1_555
Zn1D O1 1_555 1_555
Zn1E O2 1_555 1_555
Zn1F O4 1_555 1_555
Zn1G O3 1_555 1_555
O1D Zn1 1_555 1_555
O2E Zn1 1_555 1_555
O3G Zn1 1_555 1_555
O4F Zn1 1_555 1_555
H18A O7 1_555 1_555
C2 C3 1_555 1_555
C8 C9 1_555 1_555

#END
