
#######################################################################
#
#                 Cambridge Crystallographic Data Centre
#                                CCDC 
#
#######################################################################
#
# If this CIF has been generated from an entry in the Cambridge 
# Structural Database, then it will include bibliographic, chemical, 
# crystal, experimental, refinement or atomic coordinate data resulting 
# from the CCDC's data processing and validation procedures.
#
#######################################################################

data_RIYDEJ
_chemical_formula_moiety         '(C14 H14 N2 Na1 O6 Tl1)n'
_symmetry_cell_setting           tetragonal
_symmetry_space_group_name_H-M   'P 41 21 2'
_symmetry_Int_Tables_number      92
_space_group_name_Hall           'P 4abw 2nw'
loop_
_symmetry_equiv_pos_site_id
_symmetry_equiv_pos_as_xyz
1 x,y,z
2 -x,-y,1/2+z
3 1/2+x,1/2-y,3/4-z
4 1/2-x,1/2+y,1/4-z
5 -y,-x,1/2-z
6 y,x,-z
7 1/2+y,1/2-x,3/4+z
8 1/2-y,1/2+x,1/4+z
_cell_length_a                   10.4821(3)
_cell_length_b                   10.4821(3)
_cell_length_c                   13.9283(4)
_cell_angle_alpha                90
_cell_angle_beta                 90
_cell_angle_gamma                90
_cell_volume                     1530.36
loop_
_atom_site_label
_atom_site_type_symbol
_atom_site_fract_x
_atom_site_fract_y
_atom_site_fract_z
Tl1 Tl 0.1530 0.1530 0.0000
Na1 Na 0.4030 0.4030 0.0000
N1 N 0.4362(8) 0.3133(8) 0.2849(6)
H1 H 0.4473 0.3562 0.2312
O1 O 0.3196(7) 0.2524(7) 0.1182(5)
O2 O 0.2276(7) 0.0802(7) 0.1842(5)
O3 O 0.5366(8) 0.4712(7) 0.3676(5)
C1 C 0.3004(9) 0.1751(10) 0.1860(7)
C2 C 0.3664(10) 0.2030(9) 0.2811(7)
C3 C 0.3553(11) 0.1276(9) 0.3600(7)
H2 H 0.3068 0.0511 0.3581
C4 C 0.4183(11) 0.1662(12) 0.4455(8)
H3 H 0.4141 0.1133 0.5008
C5 C 0.4847(10) 0.2780(11) 0.4493(8)
H4 H 0.5277 0.3013 0.5067
C6 C 0.4900(9) 0.3611(11) 0.3669(7)
C7 C 0.2923(10) 0.0160(10) -0.0404(7)
H5 H 0.2668 -0.0245 -0.1008
H6 H 0.2995 -0.0490 0.0099
H7 H 0.3749 0.0583 -0.0489
Na1C Na 0.0970 -0.0970 0.2500
Na1A Na 0.5970 0.5970 0.5000
Na1B Na -0.0970 0.0970 -0.2500
Na1A_2 Na 0.5970 0.5970 -0.5000
N1E N 0.3133(8) 0.4362(8) -0.2849(6)
H1E H 0.3562 0.4473 -0.2312
O1E O 0.2524(7) 0.3196(7) -0.1182(5)
O2E O 0.0802(7) 0.2276(7) -0.1842(5)
O2C O 0.2724(7) 0.5802(7) 0.0658(5)
O2F O 0.5802(7) 0.2724(7) -0.0658(5)
O3E O 0.4712(7) 0.5366(8) -0.3676(5)
O3A O 0.4634(8) 0.5288(7) -0.1324(5)
O3D O 0.5288(7) 0.4634(8) 0.1324(5)
C1E C 0.1751(10) 0.3004(9) -0.1860(7)
C2E C 0.2030(9) 0.3664(10) -0.2811(7)
C3E C 0.1276(9) 0.3553(11) -0.3600(7)
H2E H 0.0511 0.3068 -0.3581
C4E C 0.1662(12) 0.4183(11) -0.4455(8)
H3E H 0.1133 0.4141 -0.5008
C5E C 0.2780(11) 0.4847(10) -0.4493(8)
H4E H 0.3013 0.5277 -0.5067
C6E C 0.3611(11) 0.4900(9) -0.3669(7)
C7E C 0.0160(10) 0.2923(10) 0.0404(7)
H5E H -0.0245 0.2668 0.1008
H6E H -0.0490 0.2995 -0.0099
H7E H 0.0583 0.3749 0.0489
loop_
_geom_bond_atom_site_label_1
_geom_bond_atom_site_label_2
_geom_bond_site_symmetry_1
_geom_bond_site_symmetry_2
Tl1 O1 1_555 1_555
Na1 O1 1_555 1_555
N1 H1 1_555 1_555
O1 C1 1_555 1_555
O2 Tl1 1_555 1_555
O3 C6 1_555 1_555
C1 O2 1_555 1_555
C2 N1 1_555 1_555
C3 C2 1_555 1_555
H2 C3 1_555 1_555
C4 C3 1_555 1_555
H3 C4 1_555 1_555
C5 C4 1_555 1_555
H4 C5 1_555 1_555
C6 N1 1_555 1_555
C7 Tl1 1_555 1_555
H5 C7 1_555 1_555
H6 C7 1_555 1_555
H7 C7 1_555 1_555
Na1C O2 1_555 1_555
Na1A O3 1_555 1_555
Na1B O2E 1_555 1_555
Na1A_2 O3E 1_555 1_555
N1E H1E 1_555 1_555
O1E Tl1 1_555 1_555
O2E Tl1 1_555 1_555
O2C Na1 1_555 1_555
O2F Na1 1_555 1_555
O3E C6E 1_555 1_555
O3A Na1 1_555 1_555
O3D Na1 1_555 1_555
C1E O1E 1_555 1_555
C2E N1E 1_555 1_555
C3E C2E 1_555 1_555
H2E C3E 1_555 1_555
C4E C3E 1_555 1_555
H3E C4E 1_555 1_555
C5E C4E 1_555 1_555
H4E C5E 1_555 1_555
C6E N1E 1_555 1_555
C7E Tl1 1_555 1_555
H5E C7E 1_555 1_555
H6E C7E 1_555 1_555
H7E C7E 1_555 1_555
Na1 O1E 1_555 1_555
C1 C2 1_555 1_555
C5 C6 1_555 1_555
O2E C1E 1_555 1_555
C1E C2E 1_555 1_555
C5E C6E 1_555 1_555

#END
