
#######################################################################
#
#                 Cambridge Crystallographic Data Centre
#                                CCDC 
#
#######################################################################
#
# If this CIF has been generated from an entry in the Cambridge 
# Structural Database, then it will include bibliographic, chemical, 
# crystal, experimental, refinement or atomic coordinate data resulting 
# from the CCDC's data processing and validation procedures.
#
#######################################################################

data_GEFFUT
_chemical_formula_moiety         '(C88 H68 Co4 N20 O19)n'
_symmetry_cell_setting           monoclinic
_symmetry_space_group_name_H-M   'C c'
_symmetry_Int_Tables_number      9
_space_group_name_Hall           'C -2yc'
loop_
_symmetry_equiv_pos_site_id
_symmetry_equiv_pos_as_xyz
1 x,y,z
2 x,-y,1/2+z
3 1/2+x,1/2+y,z
4 1/2+x,1/2-y,1/2+z
_cell_length_a                   17.5096(4)
_cell_length_b                   33.7329(7)
_cell_length_c                   15.2861(4)
_cell_angle_alpha                90
_cell_angle_beta                 98.1210(10)
_cell_angle_gamma                90
_cell_volume                     8938.19
loop_
_atom_site_label
_atom_site_type_symbol
_atom_site_fract_x
_atom_site_fract_y
_atom_site_fract_z
_atom_site_U_iso_or_equiv
_atom_site_thermal_displace_type
Co1 Co 1.28481(9) 0.60079(4) 1.06756(11) 0.0494 Uani
Co2 Co 0.97908(8) 0.63625(4) 0.50082(10) 0.0419 Uani
Co3 Co 1.16418(8) 0.85412(4) 0.78171(10) 0.0439 Uani
Co4 Co 1.07508(9) 0.88234(4) 0.38907(11) 0.0482 Uani
C1 C 1.1108(8) 0.5814(4) 1.1312(10) 0.0624 Uani
C2 C 1.0715(11) 0.6174(5) 1.1365(12) 0.0862 Uani
H1 H 1.097(6) 0.638(3) 1.141(7) 0.0400 Uiso
C3 C 0.9970(11) 0.6156(6) 1.1617(15) 0.1060 Uani
H2 H 0.9688 0.6387 1.1657 0.1280 Uiso
C4 C 0.9673(11) 0.5805(7) 1.1798(14) 0.1101 Uani
H3 H 0.9185 0.5807 1.1972 0.1320 Uiso
C5 C 1.0015(10) 0.5448(6) 1.1751(12) 0.0930 Uani
H4 H 0.9782 0.5212 1.1883 0.1120 Uiso
C6 C 1.0757(8) 0.5462(4) 1.1485(10) 0.0634 Uani
C7 C 1.3866(8) 0.5173(3) 1.0862(8) 0.0564 Uani
C8 C 1.4642(8) 0.5260(4) 1.0840(10) 0.0745 Uani
H5 H 1.4817 0.5520 1.0820 0.0900 Uiso
C9 C 1.5147(10) 0.4934(6) 1.0850(14) 0.1073 Uani
H6 H 1.5672 0.4981 1.0866 0.1290 Uiso
C10 C 1.4889(11) 0.4543(6) 1.0836(15) 0.1106 Uani
H7 H 1.5237 0.4339 1.0788 0.1310 Uiso
C11 C 1.4123(12) 0.4453(5) 1.0892(13) 0.1036 Uani
H8 H 1.3950 0.4193 1.0916 0.1240 Uiso
C12 C 1.3630(8) 0.4778(4) 1.0909(11) 0.0697 Uani
C13 C 1.1899(7) 0.5348(3) 1.1118(9) 0.0528 Uani
C14 C 1.2641(7) 0.5178(3) 1.0979(8) 0.0504 Uani
C15 C 1.2055(7) 0.6422(3) 0.9486(7) 0.0486 Uani
C16 C 1.1634(6) 0.6684(3) 0.8794(7) 0.0413 Uani
C17 C 1.1678(7) 0.7095(3) 0.8894(7) 0.0426 Uani
H9 H 1.1941 0.7205 0.9408 0.0520 Uiso
C18 C 1.1323(6) 0.7341(3) 0.8216(8) 0.0421 Uani
C19 C 1.1409(7) 0.7778(3) 0.8306(8) 0.0490 Uiso
C20 C 1.0909(6) 0.7173(3) 0.7453(7) 0.0390 Uani
H10 H 1.0669 0.7337 0.7007 0.0470 Uiso
C21 C 1.0854(6) 0.6760(3) 0.7358(8) 0.0424 Uani
C22 C 1.0410(6) 0.6593(3) 0.6532(8) 0.0411 Uani
C23 C 1.1230(7) 0.6518(3) 0.8040(8) 0.0452 Uani
H11 H 1.1205 0.6244 0.7982 0.0540 Uiso
C24 C 1.1303(6) 0.6861(3) 0.4393(8) 0.0451 Uani
C25 C 1.1226(7) 0.7256(3) 0.4629(10) 0.0672 Uani
H12 H 1.0813 0.7339 0.4903 0.0810 Uiso
C26 C 1.1785(10) 0.7521(4) 0.4442(12) 0.0809 Uani
H13 H 1.1750 0.7786 0.4599 0.0970 Uiso
C27 C 1.2403(9) 0.7397(4) 0.4020(12) 0.0821 Uani
H14 H 1.2770 0.7582 0.3904 0.0990 Uiso
C28 C 1.2479(7) 0.7005(4) 0.3772(10) 0.0639 Uani
H15 H 1.2891 0.6924 0.3492 0.0760 Uiso
C29 C 1.1915(7) 0.6736(3) 0.3958(8) 0.0523 Uani
C30 C 0.9982(7) 0.5407(3) 0.4453(8) 0.0485 Uani
C31 C 0.9348(8) 0.5192(4) 0.4671(9) 0.0622 Uani
H16 H 0.8946 0.5320 0.4893 0.0750 Uiso
C32 C 0.9335(9) 0.4788(4) 0.4547(11) 0.0764 Uani
H17 H 0.8920 0.4642 0.4693 0.0920 Uiso
C33 C 0.9935(9) 0.4591(4) 0.4207(11) 0.0728 Uani
H18 H 0.9905 0.4318 0.4123 0.0880 Uiso
C34 C 1.0558(8) 0.4791(3) 0.3995(10) 0.0676 Uani
H19 H 1.0958 0.4659 0.3777 0.0820 Uiso
C35 C 1.0577(7) 0.5203(3) 0.4118(9) 0.0575 Uani
C36 C 1.1180(6) 0.6231(3) 0.4173(8) 0.0448 Uani
C37 C 1.0828(6) 0.5839(3) 0.4190(8) 0.0426 Uani
C38 C 0.8382(7) 0.5995(3) 0.6032(8) 0.0484 Uani
C39 C 0.8718(8) 0.5863(3) 0.6891(8) 0.0554 Uani
H20 H 0.9247 0.5876 0.7072 0.0660 Uiso
C40 C 0.8220(9) 0.5714(4) 0.7440(9) 0.0646 Uani
H21 H 0.8421 0.5637 0.8010 0.0770 Uiso
C41 C 0.7425(9) 0.5676(4) 0.7165(10) 0.0710 Uani
H22 H 0.7114 0.5570 0.7552 0.0850 Uiso
C42 C 0.7093(8) 0.5795(3) 0.6324(10) 0.0600 Uani
H23 H 0.6566 0.5769 0.6135 0.0720 Uiso
C43 C 0.7599(6) 0.5959(3) 0.5772(8) 0.0500 Uani
C44 C 0.9008(7) 0.6772(3) 0.3139(7) 0.0484 Uani
C45 C 0.9559(7) 0.7001(4) 0.2783(9) 0.0639 Uani
H24 H 1.0057 0.7027 0.3083 0.0770 Uiso
C46 C 0.9351(9) 0.7185(4) 0.1984(10) 0.0769 Uani
H25 H 0.9716 0.7335 0.1742 0.0920 Uiso
C47 C 0.8606(9) 0.7153(4) 0.1526(11) 0.0838 Uani
H26 H 0.8485 0.7279 0.0983 0.1010 Uiso
C48 C 0.8048(9) 0.6940(4) 0.1861(10) 0.0745 Uani
H27 H 0.7549 0.6923 0.1562 0.0900 Uiso
C49 C 0.8265(7) 0.6745(3) 0.2686(8) 0.0483 Uani
C50 C 0.8144(6) 0.6233(3) 0.4713(7) 0.0410 Uani
C51 C 0.8293(7) 0.6435(3) 0.3942(8) 0.0411 Uani
C52 C 1.2007(7) 0.9129(3) 0.6462(9) 0.0511 Uani
C53 C 1.2498(7) 0.9367(3) 0.7070(11) 0.0679 Uani
H28 H 1.2589 0.9301 0.7666 0.0820 Uiso
C54 C 1.2831(9) 0.9692(4) 0.6761(12) 0.0745 Uani
H29 H 1.3172 0.9845 0.7144 0.0890 Uiso
C55 C 1.2662(8) 0.9801(4) 0.5855(12) 0.0746 Uani
H30 H 1.2879 1.0033 0.5670 0.0900 Uiso
C56 C 1.2187(8) 0.9579(3) 0.5233(10) 0.0642 Uani
H31 H 1.2092 0.9651 0.4640 0.0770 Uiso
C57 C 1.1855(7) 0.9231(3) 0.5565(9) 0.0478 Uani
C58 C 0.9723(7) 0.7948(3) 0.5520(8) 0.0509 Uani
C59 C 0.9206(8) 0.7660(4) 0.5699(11) 0.0725 Uani
H32 H 0.9200 0.7567 0.6271 0.0870 Uiso
C60 C 0.8705(8) 0.7519(4) 0.5004(12) 0.0755 Uani
H33 H 0.8342 0.7330 0.5110 0.0900 Uiso
C61 C 0.8720(8) 0.7647(4) 0.4151(11) 0.0688 Uani
H34 H 0.8366 0.7544 0.3697 0.0830 Uiso
C62 C 0.9246(8) 0.7923(3) 0.3955(11) 0.0674 Uani
H35 H 0.9259 0.8006 0.3377 0.0800 Uiso
C63 C 0.9761(6) 0.8074(3) 0.4658(8) 0.0466 Uani
C64 C 1.1204(6) 0.8708(3) 0.5787(8) 0.0438 Uani
C65 C 1.0621(6) 0.8400(3) 0.5516(7) 0.0414 Uani
C66 C 0.9448(9) 0.8560(4) 0.2164(10) 0.0698 Uani
C67 C 0.8737(9) 0.8696(4) 0.2355(11) 0.0800 Uani
H36 H 0.8693 0.8852 0.2847 0.0960 Uiso
C68 C 0.8091(10) 0.8581(4) 0.1756(13) 0.0931 Uani
H37 H 0.7602 0.8659 0.1857 0.1110 Uiso
C69 C 0.8168(14) 0.8353(5) 0.1020(14) 0.1170 Uani
H38 H 0.7723 0.8281 0.0647 0.1400 Uiso
C70 C 0.8888(13) 0.8224(5) 0.0803(14) 0.1099 Uani
H39 H 0.8933 0.8077 0.0298 0.1320 Uiso
C71 C 0.9522(12) 0.8335(4) 0.1406(9) 0.0841 Uani
C72 C 1.2494(9) 0.8486(4) 0.3532(10) 0.0632 Uani
C73 C 1.3044(9) 0.8573(4) 0.4259(11) 0.0740 Uani
H40 H 1.2901 0.8701 0.4750 0.0890 Uiso
C74 C 1.3784(9) 0.8470(5) 0.4242(15) 0.0989 Uani
H41 H 1.4149 0.8526 0.4728 0.1190 Uiso
C75 C 1.4019(12) 0.8277(6) 0.350(2) 0.1204 Uani
H42 H 1.4537 0.8214 0.3510 0.1470 Uiso
C76 C 1.3513(11) 0.8183(5) 0.2797(15) 0.0955 Uani
H43 H 1.3661 0.8051 0.2315 0.1150 Uiso
C77 C 1.2748(10) 0.8294(4) 0.2821(12) 0.0753 Uani
C78 C 1.0665(9) 0.8412(3) 0.2193(8) 0.0608 Uani
C79 C 1.1493(9) 0.8398(3) 0.2574(9) 0.0602 Uani
C80 C 1.0195(7) 1.0495(3) 0.8637(8) 0.0470 Uiso
C81 C 0.9890(6) 1.0074(3) 0.8534(8) 0.0450 Uiso
C82 C 1.0409(6) 0.9764(3) 0.8439(8) 0.0457 Uani
H44 H 1.0931 0.9813 0.8433 0.0550 Uiso
C83 C 1.0118(6) 0.9381(3) 0.8354(7) 0.0428 Uani
C84 C 1.0605(7) 0.9017(3) 0.8202(9) 0.0533 Uani
C85 C 0.9329(6) 0.9306(3) 0.8357(8) 0.0451 Uani
H45 H 0.9146 0.9047 0.8304 0.0540 Uiso
C86 C 0.8820(6) 0.9616(3) 0.8437(8) 0.0429 Uani
C87 C 0.7978(6) 0.9520(3) 0.8406(8) 0.0442 Uani
C88 C 0.9117(6) 1.0002(3) 0.8529(8) 0.0445 Uani
H46 H 0.8786 1.0213 0.8588 0.0530 Uiso
N1 N 1.1839(5) 0.5739(3) 1.1090(7) 0.0510 Uani
N2 N 1.3234(6) 0.5417(2) 1.0893(7) 0.0508 Uani
N3 N 1.2844(6) 0.4785(3) 1.0979(8) 0.0627 Uani
H47 H 1.2547 0.4585 1.1014 0.0750 Uiso
N4 N 1.1278(6) 0.5165(3) 1.1344(7) 0.0592 Uani
H48 H 1.1213 0.4914 1.1392 0.0710 Uiso
N5 N 1.0839(5) 0.6532(2) 0.4524(7) 0.0483 Uani
N6 N 1.0167(6) 0.5812(3) 0.4505(6) 0.0491 Uani
N7 N 1.1119(5) 0.5491(2) 0.3959(7) 0.0530 Uani
H49 H 1.1547 0.5453 0.3757 0.0630 Uiso
N8 N 1.1819(5) 0.6338(2) 0.3832(7) 0.0507 Uani
H50 H 1.2112 0.6183 0.3581 0.0610 Uiso
N9 N 0.8715(5) 0.6171(2) 0.5370(6) 0.0380 Uani
N10 N 0.9022(5) 0.6571(3) 0.3935(6) 0.0472 Uani
N11 N 0.7795(5) 0.6533(2) 0.3196(6) 0.0470 Uani
N12 N 0.7450(6) 0.6107(3) 0.4937(7) 0.0562 Uani
H51 H 0.7008 0.6120 0.4613 0.0680 Uiso
N13 N 1.1586(5) 0.8790(2) 0.6597(6) 0.0428 Uani
N14 N 1.0295(6) 0.8153(3) 0.6050(7) 0.0594 Uani
H52 H 1.0419 0.8128 0.6612 0.0710 Uiso
N15 N 1.0342(5) 0.8370(2) 0.4686(6) 0.0454 Uani
N16 N 1.1348(5) 0.8960(3) 0.5134(7) 0.0505 Uani
N17 N 1.0193(7) 0.8610(3) 0.2654(7) 0.0592 Uani
N18 N 1.1701(6) 0.8547(3) 0.3358(7) 0.0544 Uani
N19 N 1.2079(8) 0.8242(3) 0.2205(10) 0.0786 Uani
H53 H 1.2051 0.8133 0.1694 0.0940 Uiso
N20 N 1.0300(9) 0.8247(3) 0.1451(8) 0.0824 Uani
H54 H 1.0511 0.8111 0.1072 0.0990 Uiso
O1 O 1.3204(7) 0.6257(3) 1.1893(6) 0.0803 Uani
O2 O 1.2128(5) 0.6052(2) 0.9361(6) 0.0605 Uani
O3 O 1.3849(5) 0.6135(2) 1.0057(7) 0.0704 Uani
O4 O 1.2396(5) 0.6576(2) 1.0207(6) 0.0570 Uani
O6 O 1.1274(4) 0.7985(2) 0.7598(6) 0.0496 Uiso
O8 O 1.1629(5) 0.7939(2) 0.9037(6) 0.0650 Uiso
O10 O 0.9996(4) 0.6815(2) 0.6005(5) 0.0506 Uani
O12 O 1.0473(5) 0.62289(19) 0.6351(6) 0.0541 Uani
O14 O 1.0849(5) 1.0572(2) 0.8445(6) 0.0540 Uiso
O15 O 0.9793(4) 1.0758(2) 0.8946(5) 0.0495 Uiso
O16 O 0.7523(5) 0.9785(2) 0.8602(7) 0.0642 Uani
O17 O 0.7763(4) 0.9171(2) 0.8187(6) 0.0553 Uani
O18 O 1.1324(5) 0.9036(2) 0.8496(6) 0.0622 Uani
O19 O 1.0324(5) 0.8723(2) 0.7787(8) 0.0756 Uani
Co3C Co 0.66418(8) 0.64588(4) 0.28171(10) 0.0439 Uani
Co4A Co 1.07508(9) 1.11766(4) 0.88907(11) 0.0482 Uani
N11C N 1.2795(5) 0.8467(2) 0.8196(6) 0.0470 Uani
O14A O 1.0849(5) 0.9428(2) 0.3445(6) 0.0540 Uiso
O15A O 0.9793(4) 0.9242(2) 0.3946(5) 0.0495 Uiso
O5 O 0.6438(9) 0.7197(4) -0.4303(10) 0.1260 Uiso
O7 O 1.1972(10) 0.7122(4) 1.1401(12) 0.1490 Uiso
O9 O 0.4248(13) 0.6826(6) 0.2788(15) 0.1960 Uiso
O11 O 1.1553(6) 0.5648(2) 0.6452(7) 0.0797 Uani
O13 O 1.2363(7) 0.5560(3) 0.8033(7) 0.0852 Uani
loop_
_atom_site_aniso_label
_atom_site_aniso_U_11
_atom_site_aniso_U_22
_atom_site_aniso_U_33
_atom_site_aniso_U_23
_atom_site_aniso_U_13
_atom_site_aniso_U_12
Co1 0.0540(9) 0.0422(7) 0.0497(10) 0.0120(7) -0.0010(8) -0.0016(7)
Co2 0.0316(7) 0.0487(7) 0.0431(9) -0.0069(7) -0.0022(6) 0.0003(6)
Co3 0.0413 0.0348 0.0506 -0.002 -0.0105 0.0039
Co4 0.0572 0.0429 0.0451 0.0046 0.0089 0.0102
C1 0.058(8) 0.056(7) 0.069(9) -0.003(7) -0.006(7) -0.009(6)
C2 0.084(12) 0.070(10) 0.104(14) -0.024(9) 0.011(10) -0.008(9)
C3 0.071(12) 0.102(13) 0.15(2) -0.009(13) 0.033(12) 0.014(10)
C4 0.074(12) 0.143(16) 0.116(18) -0.018(14) 0.023(12) 0.017(12)
C5 0.072(11) 0.115(13) 0.092(14) 0.004(11) 0.012(10) -0.010(10)
C6 0.047(8) 0.074(8) 0.067(9) 0.010(7) 0.000(7) 0.000(6)
C7 0.065(8) 0.056(7) 0.049(8) 0.015(6) 0.011(6) 0.013(6)
C8 0.053(8) 0.095(10) 0.076(11) 0.019(8) 0.011(7) 0.005(7)
C9 0.062(10) 0.141(16) 0.123(17) 0.025(13) 0.027(10) 0.033(11)
C10 0.091(14) 0.097(12) 0.15(2) 0.030(12) 0.039(13) 0.038(10)
C11 0.120(16) 0.082(10) 0.118(16) 0.038(10) 0.049(13) 0.041(10)
C12 0.055(8) 0.071(8) 0.085(11) 0.029(8) 0.016(8) 0.033(7)
C13 0.049(7) 0.044(6) 0.062(8) 0.004(6) -0.004(6) -0.008(5)
C14 0.044(7) 0.054(6) 0.053(8) 0.015(6) 0.006(6) -0.001(5)
C15 0.064(8) 0.040(6) 0.039(7) -0.002(5) -0.002(6) -0.013(5)
C16 0.045(6) 0.037(5) 0.039(6) -0.004(5) -0.004(5) -0.001(4)
C17 0.061(7) 0.033(5) 0.031(6) -0.010(4) -0.003(5) 0.003(5)
C18 0.045(6) 0.026(4) 0.054(7) -0.004(5) 0.003(5) 0.006(4)
C20 0.040(6) 0.036(5) 0.039(6) 0.000(5) -0.001(5) 0.008(4)
C21 0.037(6) 0.027(5) 0.063(8) 0.009(5) 0.006(5) 0.007(4)
C22 0.033(6) 0.041(5) 0.046(7) -0.007(5) -0.006(5) 0.002(4)
C23 0.049(7) 0.039(5) 0.047(7) 0.000(5) 0.005(5) 0.010(5)
C24 0.040(6) 0.043(5) 0.051(7) 0.004(5) 0.002(5) 0.001(5)
C25 0.046(8) 0.057(7) 0.100(12) -0.009(7) 0.015(8) 0.000(6)
C26 0.094(12) 0.037(6) 0.112(14) -0.010(7) 0.016(10) -0.008(7)
C27 0.082(11) 0.059(8) 0.102(13) 0.020(8) 0.002(10) -0.018(7)
C28 0.043(7) 0.066(8) 0.084(10) 0.012(7) 0.014(7) -0.007(6)
C29 0.044(7) 0.053(6) 0.059(8) 0.008(6) 0.004(6) 0.005(5)
C30 0.045(7) 0.057(6) 0.043(7) -0.006(5) 0.005(5) -0.005(5)
C31 0.062(8) 0.060(8) 0.068(9) -0.017(6) 0.021(7) -0.018(6)
C32 0.074(10) 0.069(9) 0.091(12) -0.009(8) 0.028(9) -0.021(7)
C33 0.088(11) 0.048(6) 0.087(11) -0.015(7) 0.028(9) -0.026(7)
C34 0.077(10) 0.057(7) 0.071(10) -0.014(7) 0.018(8) 0.000(7)
C35 0.053(7) 0.046(6) 0.070(9) 0.005(6) -0.003(6) 0.003(5)
C36 0.038(6) 0.034(5) 0.061(8) 0.004(5) 0.002(6) 0.004(5)
C37 0.036(6) 0.042(5) 0.050(7) -0.010(5) 0.007(5) -0.002(5)
C38 0.050(7) 0.038(5) 0.055(8) 0.000(5) 0.000(6) 0.001(5)
C39 0.059(8) 0.062(7) 0.042(7) 0.006(6) -0.004(6) 0.000(6)
C40 0.079(10) 0.066(8) 0.048(8) 0.012(6) 0.006(7) -0.002(7)
C41 0.090(11) 0.061(7) 0.069(10) 0.002(7) 0.036(9) -0.002(7)
C42 0.053(8) 0.057(7) 0.071(10) 0.004(7) 0.012(7) -0.001(6)
C43 0.040(7) 0.053(6) 0.056(8) 0.005(6) 0.003(6) -0.003(5)
C44 0.054(7) 0.054(6) 0.034(6) -0.010(5) -0.005(5) 0.000(5)
C45 0.047(7) 0.086(8) 0.059(9) -0.008(7) 0.009(6) -0.025(6)
C46 0.089(12) 0.084(9) 0.060(9) 0.021(8) 0.018(9) -0.024(8)
C47 0.085(12) 0.096(10) 0.064(10) 0.024(9) -0.012(9) -0.023(9)
C48 0.070(10) 0.081(9) 0.066(10) 0.017(8) -0.013(8) -0.019(8)
C49 0.056(7) 0.050(6) 0.036(6) 0.004(5) -0.004(6) -0.009(5)
C50 0.036(6) 0.046(5) 0.041(7) -0.003(5) 0.005(5) -0.002(5)
C51 0.037(6) 0.045(5) 0.039(6) -0.006(5) -0.003(5) -0.002(5)
C52 0.041 0.041 0.07 -0.007 0.003 0.002
C53 0.055 0.038 0.106 -0.005 -0.005 -0.004
C54 0.075 0.053 0.099 -0.025 0.024 -0.027
C55 0.069 0.047 0.116 0.004 0.041 -0.015
C56 0.081 0.043 0.076 0.015 0.037 -0.009
C57 0.048 0.039 0.059 0.002 0.017 -0.004
C58 0.044 0.048 0.054 0.014 -0.016 -0.003
C59 0.068 0.059 0.083 0.018 -0.015 -0.019
C60 0.048 0.055 0.116 0 -0.014 -0.012
C61 0.063 0.056 0.078 -0.019 -0.023 -0.001
C62 0.058 0.05 0.085 -0.013 -0.022 -0.001
C63 0.04 0.033 0.062 -0.005 -0.009 0.009
C64 0.039 0.041 0.049 0.006 -0.002 0
C65 0.045 0.036 0.041 -0.001 -0.002 0.01
C66 0.091 0.063 0.051 0.005 -0.005 0.008
C67 0.064 0.09 0.083 -0.01 0 0.02
C68 0.081 0.076 0.112 0.019 -0.022 -0.009
C69 0.126 0.103 0.1 -0.03 -0.06 -0.016
C70 0.118 0.102 0.097 -0.015 -0.029 0.003
C71 0.142 0.064 0.04 0.007 -0.009 0.018
C72 0.066 0.059 0.068 0.012 0.021 0.009
C73 0.076 0.063 0.088 0.024 0.029 0.025
C74 0.051 0.105 0.144 0.022 0.025 0.008
C75 0.066 0.099 0.21 0.04 0.067 0.029
C76 0.088 0.077 0.137 0.023 0.07 0.03
C77 0.077 0.062 0.092 0.017 0.03 0.012
C78 0.095 0.047 0.04 -0.003 0.008 0.009
C79 0.089 0.039 0.057 0.009 0.026 0.011
C82 0.031 0.043 0.062 -0.012 0.003 -0.014
C83 0.037 0.053 0.034 -0.006 -0.01 0.01
C84 0.049 0.057 0.055 0.011 0.011 0.015
C85 0.045 0.032 0.055 -0.009 -0.004 0.001
C86 0.036 0.043 0.048 -0.008 0 -0.003
C87 0.044 0.04 0.049 -0.003 0.008 -0.005
C88 0.037 0.046 0.05 -0.013 0.004 -0.002
N1 0.041(6) 0.048(5) 0.062(7) 0.012(5) 0.000(5) -0.002(4)
N2 0.052(6) 0.048(5) 0.051(6) 0.013(4) 0.002(5) 0.001(4)
N3 0.071(7) 0.040(5) 0.079(8) 0.017(5) 0.017(6) 0.003(5)
N4 0.052(6) 0.052(5) 0.070(8) 0.009(5) -0.004(5) -0.002(5)
N5 0.030(5) 0.051(5) 0.063(7) -0.006(5) 0.003(4) 0.001(4)
N6 0.053(6) 0.050(5) 0.045(6) -0.005(4) 0.009(5) -0.002(4)
N7 0.043(5) 0.045(5) 0.072(7) -0.008(5) 0.012(5) -0.007(4)
N8 0.033(5) 0.045(5) 0.075(8) 0.005(5) 0.011(5) 0.002(4)
N9 0.029(4) 0.049(5) 0.036(5) -0.002(4) 0.005(4) 0.003(4)
N10 0.039(5) 0.059(5) 0.041(6) 0.004(4) -0.003(4) -0.001(4)
N11 0.046(5) 0.046(5) 0.043(6) 0.009(4) -0.015(4) -0.012(4)
N12 0.040(6) 0.069(6) 0.053(7) 0.012(5) -0.016(5) -0.004(5)
N13 0.04 0.034 0.052 0.007 -0.002 -0.005
N14 0.068 0.062 0.041 0.019 -0.017 -0.017
N15 0.047 0.039 0.046 -0.006 -0.008 0.008
N16 0.051 0.042 0.059 0.001 0.01 0.002
N17 0.077 0.064 0.036 -0.002 0.006 0.015
N18 0.061 0.044 0.06 0.003 0.015 0.008
N19 0.107 0.055 0.087 0.013 0.059 0.021
N20 0.129 0.069 0.05 -0.017 0.015 0.028
O1 0.114(8) 0.071(6) 0.052(6) 0.004(5) -0.002(6) -0.031(6)
O2 0.084(6) 0.038(4) 0.053(5) -0.001(4) -0.013(5) 0.007(4)
O3 0.070(6) 0.056(5) 0.089(7) 0.013(5) 0.024(6) -0.006(4)
O4 0.078(6) 0.036(4) 0.051(5) 0.004(4) -0.012(4) 0.002(4)
O10 0.052(5) 0.048(4) 0.046(5) -0.005(4) -0.013(4) 0.009(4)
O12 0.054(5) 0.034(4) 0.068(6) -0.014(4) -0.013(4) 0.001(3)
O16 0.038 0.052 0.105 -0.003 0.018 0.002
O17 0.045 0.055 0.068 -0.011 0.015 -0.013
O18 0.043 0.075 0.065 0.001 -0.005 0.021
O19 0.059 0.044 0.126 -0.026 0.021 -0.005
Co3C 0.0413(8) 0.0348(6) 0.0506(9) 0.0020(7) -0.0105(7) -0.0039(6)
Co4A 0.0572 0.0429 0.0451 -0.0046 0.0089 -0.0102
N11C 0.046 0.046 0.043 -0.009 -0.015 0.012
O11 0.077(7) 0.060(5) 0.098(8) -0.017(5) -0.002(6) 0.028(5)
O13 0.115(9) 0.063(5) 0.076(7) 0.000(5) 0.008(6) 0.032(5)
loop_
_geom_bond_atom_site_label_1
_geom_bond_atom_site_label_2
_geom_bond_site_symmetry_1
_geom_bond_site_symmetry_2
Co1 N1 1_555 1_555
Co2 N5 1_555 1_555
Co3 N13 1_555 1_555
Co4 N15 1_555 1_555
C1 C2 1_555 1_555
C2 H1 1_555 1_555
C3 C2 1_555 1_555
H2 C3 1_555 1_555
C4 C3 1_555 1_555
H3 C4 1_555 1_555
C5 C4 1_555 1_555
H4 C5 1_555 1_555
C6 C1 1_555 1_555
C7 C8 1_555 1_555
C8 H5 1_555 1_555
C9 C8 1_555 1_555
H6 C9 1_555 1_555
C10 C9 1_555 1_555
H7 C10 1_555 1_555
C11 C10 1_555 1_555
H8 C11 1_555 1_555
C12 C7 1_555 1_555
C13 C14 1_555 1_555
C14 N2 1_555 1_555
C15 C16 1_555 1_555
C16 C17 1_555 1_555
C17 H9 1_555 1_555
C18 C17 1_555 1_555
C19 C18 1_555 1_555
C20 C18 1_555 1_555
H10 C20 1_555 1_555
C21 C20 1_555 1_555
C22 C21 1_555 1_555
C23 C16 1_555 1_555
H11 C23 1_555 1_555
C24 C25 1_555 1_555
C25 H12 1_555 1_555
C26 C25 1_555 1_555
H13 C26 1_555 1_555
C27 C26 1_555 1_555
H14 C27 1_555 1_555
C28 C27 1_555 1_555
H15 C28 1_555 1_555
C29 C24 1_555 1_555
C30 C31 1_555 1_555
C31 H16 1_555 1_555
C32 C31 1_555 1_555
H17 C32 1_555 1_555
C33 C32 1_555 1_555
H18 C33 1_555 1_555
C34 C33 1_555 1_555
H19 C34 1_555 1_555
C35 C30 1_555 1_555
C36 C37 1_555 1_555
C37 N6 1_555 1_555
C38 C39 1_555 1_555
C39 H20 1_555 1_555
C40 C39 1_555 1_555
H21 C40 1_555 1_555
C41 C40 1_555 1_555
H22 C41 1_555 1_555
C42 C41 1_555 1_555
H23 C42 1_555 1_555
C43 C38 1_555 1_555
C44 C45 1_555 1_555
C45 H24 1_555 1_555
C46 C45 1_555 1_555
H25 C46 1_555 1_555
C47 C46 1_555 1_555
H26 C47 1_555 1_555
C48 C47 1_555 1_555
H27 C48 1_555 1_555
C49 C44 1_555 1_555
C50 C51 1_555 1_555
C51 N10 1_555 1_555
C52 C53 1_555 1_555
C53 H28 1_555 1_555
C54 C53 1_555 1_555
H29 C54 1_555 1_555
C55 C54 1_555 1_555
H30 C55 1_555 1_555
C56 C55 1_555 1_555
H31 C56 1_555 1_555
C57 C52 1_555 1_555
C58 C59 1_555 1_555
C59 H32 1_555 1_555
C60 C59 1_555 1_555
H33 C60 1_555 1_555
C61 C60 1_555 1_555
H34 C61 1_555 1_555
C62 C61 1_555 1_555
H35 C62 1_555 1_555
C63 C58 1_555 1_555
C64 C65 1_555 1_555
C65 N14 1_555 1_555
C66 C67 1_555 1_555
C67 H36 1_555 1_555
C68 C67 1_555 1_555
H37 C68 1_555 1_555
C69 C68 1_555 1_555
H38 C69 1_555 1_555
C70 C69 1_555 1_555
H39 C70 1_555 1_555
C71 C66 1_555 1_555
C72 C73 1_555 1_555
C73 H40 1_555 1_555
C74 C73 1_555 1_555
H41 C74 1_555 1_555
C75 C74 1_555 1_555
H42 C75 1_555 1_555
C76 C75 1_555 1_555
H43 C76 1_555 1_555
C77 C72 1_555 1_555
C78 C79 1_555 1_555
C79 N18 1_555 1_555
C80 C81 1_555 1_555
C81 C82 1_555 1_555
C82 H44 1_555 1_555
C83 C82 1_555 1_555
C84 C83 1_555 1_555
C85 C83 1_555 1_555
H45 C85 1_555 1_555
C86 C85 1_555 1_555
C87 C86 1_555 1_555
C88 C81 1_555 1_555
H46 C88 1_555 1_555
N1 C1 1_555 1_555
N2 Co1 1_555 1_555
N3 C12 1_555 1_555
H47 N3 1_555 1_555
N4 C6 1_555 1_555
H48 N4 1_555 1_555
N5 C24 1_555 1_555
N6 Co2 1_555 1_555
N7 C35 1_555 1_555
H49 N7 1_555 1_555
N8 C29 1_555 1_555
H50 N8 1_555 1_555
N9 Co2 1_555 1_555
N10 Co2 1_555 1_555
N11 C49 1_555 1_555
N12 C43 1_555 1_555
H51 N12 1_555 1_555
N13 C52 1_555 1_555
N14 C58 1_555 1_555
H52 N14 1_555 1_555
N15 C63 1_555 1_555
N16 Co4 1_555 1_555
N17 Co4 1_555 1_555
N18 Co4 1_555 1_555
N19 C77 1_555 1_555
H53 N19 1_555 1_555
N20 C71 1_555 1_555
H54 N20 1_555 1_555
O1 Co1 1_555 1_555
O2 Co1 1_555 1_555
O3 Co1 1_555 1_555
O4 Co1 1_555 1_555
O6 Co3 1_555 1_555
O8 C19 1_555 1_555
O10 Co2 1_555 1_555
O12 Co2 1_555 1_555
O14 C80 1_555 1_555
O15 C80 1_555 1_555
O16 C87 1_555 1_555
O17 C87 1_555 1_555
O18 Co3 1_555 1_555
O19 Co3 1_555 1_555
Co3C N11 1_555 1_555
Co4A O14 1_555 1_555
N11C Co3 1_555 1_555
O14A Co4 1_555 1_555
O15A Co4 1_555 1_555
C5 C6 1_555 1_555
C7 N2 1_555 1_555
C11 C12 1_555 1_555
C13 N1 1_555 1_555
C13 N4 1_555 1_555
C14 N3 1_555 1_555
C15 O2 1_555 1_555
C15 O4 1_555 1_555
C19 O6 1_555 1_555
C21 C23 1_555 1_555
C22 O10 1_555 1_555
C22 O12 1_555 1_555
C28 C29 1_555 1_555
C30 N6 1_555 1_555
C34 C35 1_555 1_555
C36 N5 1_555 1_555
C36 N8 1_555 1_555
C37 N7 1_555 1_555
C38 N9 1_555 1_555
C42 C43 1_555 1_555
C44 N10 1_555 1_555
C48 C49 1_555 1_555
C50 N9 1_555 1_555
C50 N12 1_555 1_555
C51 N11 1_555 1_555
C56 C57 1_555 1_555
C57 N16 1_555 1_555
C62 C63 1_555 1_555
C64 N13 1_555 1_555
C64 N16 1_555 1_555
C65 N15 1_555 1_555
C66 N17 1_555 1_555
C70 C71 1_555 1_555
C72 N18 1_555 1_555
C76 C77 1_555 1_555
C78 N17 1_555 1_555
C78 N20 1_555 1_555
C79 N19 1_555 1_555
C84 O18 1_555 1_555
C84 O19 1_555 1_555
C86 C88 1_555 1_555
O15 Co4A 1_555 1_555

#END
