
#######################################################################
#
#                 Cambridge Crystallographic Data Centre
#                                CCDC 
#
#######################################################################
#
# If this CIF has been generated from an entry in the Cambridge 
# Structural Database, then it will include bibliographic, chemical, 
# crystal, experimental, refinement or atomic coordinate data resulting 
# from the CCDC's data processing and validation procedures.
#
#######################################################################

data_WEBKIZ
_chemical_formula_moiety         '(C72 H24 Co1 In5 O48 7-)n'
_symmetry_cell_setting           tetragonal
_symmetry_space_group_name_H-M   'I -4'
_symmetry_Int_Tables_number      82
_space_group_name_Hall           'I -4'
loop_
_symmetry_equiv_pos_site_id
_symmetry_equiv_pos_as_xyz
1 x,y,z
2 -x,-y,z
3 y,-x,-z
4 -y,x,-z
5 1/2+x,1/2+y,1/2+z
6 1/2-x,1/2-y,1/2+z
7 1/2+y,1/2-x,1/2-z
8 1/2-y,1/2+x,1/2-z
_cell_length_a                   22.7880(16)
_cell_length_b                   22.7880(16)
_cell_length_c                   17.1540(3)
_cell_angle_alpha                90
_cell_angle_beta                 90
_cell_angle_gamma                90
_cell_volume                     8907.95
loop_
_atom_site_label
_atom_site_type_symbol
_atom_site_fract_x
_atom_site_fract_y
_atom_site_fract_z
In1 In 1.0000 0.5000 0.7500
In2 In 0.80218(4) 0.29900(4) 1.15944(4)
Co1 Co 1.0000 0.0000 1.5000
O1 O 0.8012(5) 0.2709(4) 1.0356(4)
O2 O 0.8550(5) 0.3468(4) 1.0583(5)
O3 O 0.8544(5) 0.2137(5) 1.1872(6)
O4 O 0.8935(5) 0.2949(3) 1.2129(6)
O5 O 1.1378(4) 0.2309(4) 1.3693(5)
O6 O 1.1110(4) 0.3025(5) 1.2881(6)
O7 O 0.7741(4) 0.2704(4) 0.6715(6)
O8 O 0.9344(5) 0.4221(5) 0.7273(7)
O9 O 0.7372(4) 0.2260(6) 0.7724(5)
O10 O 0.9540(4) 0.4470(5) 0.8354(6)
O11 O 1.0105(4) 0.0726(5) 1.4394(8)
O12 O 0.9322(4) 0.0468(6) 1.3664(9)
C1 C 0.8911(5) 0.3685(6) 0.8233(8)
C2 C 0.8616(6) 0.3363(6) 0.7709(9)
H1 H 0.8685 0.3412 0.7179
C3 C 0.8416(5) 0.3153(5) 0.9251(7)
C4 C 1.0995(9) 0.2469(12) 1.3300(16)
C5 C 0.8186(7) 0.2934(6) 0.7979(7)
C6 C 0.7724(6) 0.2636(6) 0.7448(9)
C7 C 0.9268(7) 0.4203(8) 0.7983(7)
C8 C 0.8846(7) 0.3572(7) 0.9019(8)
H2 H 0.9076 0.3764 0.9387
C9 C 0.8300(6) 0.3144(9) 1.0113(10)
C10 C 0.8158(7) 0.2826(6) 0.8745(7)
H3 H 0.7945 0.2504 0.8917
C11 C 1.0395(8) 0.2217(6) 1.3231(9)
C12 C 0.9792(7) 0.1398(6) 1.3492(12)
C13 C 1.0286(7) 0.1759(6) 1.3543(12)
H4 H 1.0579 0.1621 1.3874
C14 C 0.9926(6) 0.2489(6) 1.2707(9)
H5 H 0.9968 0.2860 1.2490
C15 C 0.9459(6) 0.2166(7) 1.2581(13)
C16 C 0.9718(11) 0.0752(9) 1.3884(13)
C17 C 0.9354(6) 0.1609(6) 1.2930(11)
H6 H 0.9023 0.1389 1.2808
C18 C 0.8965(9) 0.2472(7) 1.2065(13)
In2A In 1.19782(4) 0.70100(4) 1.15944(4)
In2F In 0.79900(4) 0.69782(4) 0.34056(4)
In2G In 1.20100(4) 0.30218(4) 0.34056(4)
In2G_2 In 1.20100(4) 0.30218(4) 1.34056(4)
In2E In 0.69782(4) 0.20100(4) 0.65944(4)
In2D In 1.30218(4) 0.79900(4) 0.65944(4)
In2C In 0.70100(4) 0.80218(4) 0.84056(4)
In2B In 1.29900(4) 0.19782(4) 0.84056(4)
In2F_2 In 0.79900(4) 0.69782(4) 1.34056(4)
Co1D Co 0.5000 0.5000 1.0000
Co1_2 Co 1.0000 1.0000 1.5000
Co1D_2 Co 1.5000 0.5000 1.0000
O1A O 1.1988(5) 0.7291(4) 1.0356(4)
O1F O 0.7709(4) 0.6988(5) 0.4644(4)
O1G O 1.2291(4) 0.3012(5) 0.4644(4)
O2A O 1.1450(5) 0.6532(4) 1.0583(5)
O2F O 0.8468(4) 0.6450(5) 0.4417(5)
O2G O 1.1532(4) 0.3550(5) 0.4417(5)
O3F O 0.7137(5) 0.6456(5) 1.3128(6)
O3A O 1.1456(5) 0.7863(5) 1.1872(6)
O3G O 1.2863(5) 0.3544(5) 1.3128(6)
O3F_2 O 0.7137(5) 0.6456(5) 0.3128(6)
O3G_2 O 1.2863(5) 0.3544(5) 0.3128(6)
O4F O 0.7949(3) 0.6065(5) 1.2871(6)
O4A O 1.1065(5) 0.7051(3) 1.2129(6)
O4G O 1.2051(3) 0.3935(5) 1.2871(6)
O4F_2 O 0.7949(3) 0.6065(5) 0.2871(6)
O4G_2 O 1.2051(3) 0.3935(5) 0.2871(6)
O5F O 0.7309(4) 0.3622(4) 1.1307(5)
O5A O 0.8622(4) 0.7691(4) 1.3693(5)
O5G O 1.2691(4) 0.6378(4) 1.1307(5)
O5A_2 O 0.8622(4) 0.7691(4) 0.3693(5)
O5_2 O 1.1378(4) 0.2309(4) 0.3693(5)
O6F O 0.8025(5) 0.3890(4) 1.2119(6)
O6A O 0.8890(4) 0.6975(5) 1.2881(6)
O6G O 1.1975(5) 0.6110(4) 1.2119(6)
O6A_2 O 0.8890(4) 0.6975(5) 0.2881(6)
O6_2 O 1.1110(4) 0.3025(5) 0.2881(6)
O7A O 1.2259(4) 0.7296(4) 0.6715(6)
O7F O 0.7704(4) 0.7259(4) 0.8285(6)
O7G O 1.2296(4) 0.2741(4) 0.8285(6)
O7E O 0.7259(4) 0.2296(4) 1.1715(6)
O7D O 1.2741(4) 0.7704(4) 1.1715(6)
O7C O 0.7296(4) 0.7741(4) 0.3285(6)
O7B O 1.2704(4) 0.2259(4) 0.3285(6)
O8A O 1.0656(5) 0.5779(5) 0.7273(7)
O8F O 0.9221(5) 0.5656(5) 0.7727(7)
O8G O 1.0779(5) 0.4344(5) 0.7727(7)
O9A O 1.2628(4) 0.7740(6) 0.7724(5)
O9F O 0.7260(6) 0.7628(4) 0.7276(5)
O9G O 1.2740(6) 0.2372(4) 0.7276(5)
O9E O 0.7628(4) 0.2740(6) 1.2724(5)
O9D O 1.2372(4) 0.7260(6) 1.2724(5)
O9C O 0.7740(6) 0.7372(4) 0.2276(5)
O9B O 1.2260(6) 0.2628(4) 0.2276(5)
O10A O 1.0460(4) 0.5530(5) 0.8354(6)
O10F O 0.9470(5) 0.5460(4) 0.6646(6)
O10G O 1.0530(5) 0.4540(4) 0.6646(6)
O11F O 0.5726(5) 0.4895(4) 1.0606(8)
O11A O 0.9895(4) 0.9274(5) 1.4394(8)
O11G O 1.4274(5) 0.5105(4) 1.0606(8)
O11A_2 O 0.9895(4) -0.0726(5) 1.4394(8)
O11B O 1.0726(5) -0.0105(4) 1.5606(8)
O11C O 0.9274(5) 0.0105(4) 1.5606(8)
O12F O 0.5468(6) 0.5678(4) 1.1336(9)
O12A O 1.0678(4) 0.9532(6) 1.3664(9)
O12G O 1.4532(6) 0.4322(4) 1.1336(9)
C1A C 1.1089(5) 0.6315(6) 0.8233(8)
C1F C 0.8685(6) 0.6089(5) 0.6767(8)
C1G C 1.1315(6) 0.3911(5) 0.6767(8)
C2A C 1.1384(6) 0.6637(6) 0.7709(9)
C2F C 0.8363(6) 0.6384(6) 0.7291(9)
C2G C 1.1637(6) 0.3616(6) 0.7291(9)
H1A H 1.1315 0.6588 0.7179
H1F H 0.8412 0.6315 0.7821
H1G H 1.1588 0.3685 0.7821
C3A C 1.1584(5) 0.6847(5) 0.9251(7)
C3F C 0.8153(5) 0.6584(5) 0.5749(7)
C3G C 1.1847(5) 0.3416(5) 0.5749(7)
C4F C 0.7469(12) 0.4005(9) 1.1700(16)
C4A C 0.9005(9) 0.7531(12) 1.3300(16)
C4G C 1.2531(12) 0.5995(9) 1.1700(16)
C5A C 1.1814(7) 0.7066(6) 0.7979(7)
C5F C 0.7934(6) 0.6814(7) 0.7021(7)
C5G C 1.2066(6) 0.3186(7) 0.7021(7)
C6A C 1.2276(6) 0.7364(6) 0.7448(9)
C6F C 0.7636(6) 0.7276(6) 0.7552(9)
C6G C 1.2364(6) 0.2724(6) 0.7552(9)
C7A C 1.0732(7) 0.5797(8) 0.7983(7)
C7F C 0.9203(8) 0.5732(7) 0.7017(7)
C7G C 1.0797(8) 0.4268(7) 0.7017(7)
C8A C 1.1154(7) 0.6428(7) 0.9019(8)
C8F C 0.8572(7) 0.6154(7) 0.5981(8)
C8G C 1.1428(7) 0.3846(7) 0.5981(8)
H2A H 1.0924 0.6236 0.9387
H2F H 0.8764 0.5924 0.5613
H2G H 1.1236 0.4076 0.5613
C9A C 1.1700(6) 0.6856(9) 1.0113(10)
C9F C 0.8144(9) 0.6700(6) 0.4887(10)
C9G C 1.1856(9) 0.3300(6) 0.4887(10)
C10A C 1.1842(7) 0.7174(6) 0.8745(7)
C10F C 0.7826(6) 0.6842(7) 0.6255(7)
C10G C 1.2174(6) 0.3158(7) 0.6255(7)
H3A H 1.2055 0.7496 0.8917
H3F H 0.7504 0.7055 0.6083
H3G H 1.2496 0.2945 0.6083
C11F C 0.7217(6) 0.4605(8) 1.1769(9)
C11A C 0.9605(8) 0.7783(6) 1.3231(9)
C11G C 1.2783(6) 0.5395(8) 1.1769(9)
C12F C 0.6398(6) 0.5208(7) 1.1508(12)
C12A C 1.0208(7) 0.8602(6) 1.3492(12)
C12G C 1.3602(6) 0.4792(7) 1.1508(12)
C13F C 0.6759(6) 0.4714(7) 1.1457(12)
C13A C 0.9714(7) 0.8241(6) 1.3543(12)
C13G C 1.3241(6) 0.5286(7) 1.1457(12)
H4F H 0.6621 0.4421 1.1126
H4A H 0.9421 0.8379 1.3874
H4G H 1.3379 0.5579 1.1126
C14F C 0.7489(6) 0.5074(6) 1.2293(9)
C14A C 1.0074(6) 0.7511(6) 1.2707(9)
C14G C 1.2511(6) 0.4926(6) 1.2293(9)
H5F H 0.7860 0.5032 1.2510
H5A H 1.0032 0.7140 1.2490
H5G H 1.2140 0.4968 1.2510
C15F C 0.7166(7) 0.5541(6) 1.2419(13)
C15A C 1.0541(6) 0.7834(7) 1.2581(13)
C15G C 1.2834(7) 0.4459(6) 1.2419(13)
C16F C 0.5752(9) 0.5282(11) 1.1116(13)
C16A C 1.0282(11) 0.9248(9) 1.3884(13)
C16G C 1.4248(9) 0.4718(11) 1.1116(13)
C17F C 0.6609(6) 0.5646(6) 1.2070(11)
C17A C 1.0646(6) 0.8391(6) 1.2930(11)
C17G C 1.3391(6) 0.4354(6) 1.2070(11)
H6F H 0.6389 0.5977 1.2192
H6A H 1.0977 0.8611 1.2808
H6G H 1.3611 0.4023 1.2192
C18F C 0.7472(7) 0.6035(9) 1.2935(13)
C18A C 1.1035(9) 0.7528(7) 1.2065(13)
C18G C 1.2528(7) 0.3965(9) 1.2935(13)
loop_
_geom_bond_atom_site_label_1
_geom_bond_atom_site_label_2
_geom_bond_site_symmetry_1
_geom_bond_site_symmetry_2
In1 O8 1_555 1_555
In2 O1 1_555 1_555
Co1 O11 1_555 1_555
O1 C9 1_555 1_555
O2 In2 1_555 1_555
O3 In2 1_555 1_555
O4 In2 1_555 1_555
O5 C4 1_555 1_555
O6 C4 1_555 1_555
O7 C6 1_555 1_555
O8 C7 1_555 1_555
O9 C6 1_555 1_555
O10 In1 1_555 1_555
O11 C16 1_555 1_555
O12 C16 1_555 1_555
C1 C2 1_555 1_555
C2 H1 1_555 1_555
C3 C8 1_555 1_555
C4 C11 1_555 1_555
C5 C2 1_555 1_555
C6 C5 1_555 1_555
C7 O10 1_555 1_555
C8 C1 1_555 1_555
H2 C8 1_555 1_555
C9 O2 1_555 1_555
C10 C3 1_555 1_555
H3 C10 1_555 1_555
C11 C13 1_555 1_555
C12 C13 1_555 1_555
C13 H4 1_555 1_555
C14 C11 1_555 1_555
H5 C14 1_555 1_555
C15 C14 1_555 1_555
C16 C12 1_555 1_555
C17 C12 1_555 1_555
H6 C17 1_555 1_555
C18 O3 1_555 1_555
In2A O1A 1_555 1_555
In2F O1F 1_555 1_555
In2G O1G 1_555 1_555
In2G_2 O5 1_555 1_555
In2E O7 1_555 1_555
In2D O7A 1_555 1_555
In2C O7F 1_555 1_555
In2B O7G 1_555 1_555
In2F_2 O3F 1_555 1_555
Co1D O11F 1_555 1_555
Co1_2 O11A 1_555 1_555
Co1D_2 O11G 1_555 1_555
O1A C9A 1_555 1_555
O1F C9F 1_555 1_555
O1G C9G 1_555 1_555
O2A In2A 1_555 1_555
O2F In2F 1_555 1_555
O2G In2G 1_555 1_555
O3F C18F 1_555 1_555
O3A In2A 1_555 1_555
O3G In2G_2 1_555 1_555
O3F_2 In2F 1_555 1_555
O3G_2 In2G 1_555 1_555
O4F In2F_2 1_555 1_555
O4A In2A 1_555 1_555
O4G In2G_2 1_555 1_555
O4F_2 In2F 1_555 1_555
O4G_2 In2G 1_555 1_555
O5F In2 1_555 1_555
O5A In2F_2 1_555 1_555
O5G In2A 1_555 1_555
O5A_2 In2F 1_555 1_555
O5_2 In2G 1_555 1_555
O6F In2 1_555 1_555
O6A In2F_2 1_555 1_555
O6G In2A 1_555 1_555
O6A_2 In2F 1_555 1_555
O6_2 In2G 1_555 1_555
O7A C6A 1_555 1_555
O7F C6F 1_555 1_555
O7G C6G 1_555 1_555
O7E In2 1_555 1_555
O7D In2A 1_555 1_555
O7C In2F 1_555 1_555
O7B In2G 1_555 1_555
O8A In1 1_555 1_555
O8F In1 1_555 1_555
O8G In1 1_555 1_555
O9A In2D 1_555 1_555
O9F In2C 1_555 1_555
O9G In2B 1_555 1_555
O9E In2 1_555 1_555
O9D In2A 1_555 1_555
O9C In2F 1_555 1_555
O9B In2G 1_555 1_555
O10A In1 1_555 1_555
O10F In1 1_555 1_555
O10G In1 1_555 1_555
O11F C16F 1_555 1_555
O11A C16A 1_555 1_555
O11G C16G 1_555 1_555
O11A_2 Co1 1_555 1_555
O11B Co1 1_555 1_555
O11C Co1 1_555 1_555
O12F C16F 1_555 1_555
O12A C16A 1_555 1_555
O12G C16G 1_555 1_555
C1A C2A 1_555 1_555
C1F C2F 1_555 1_555
C1G C2G 1_555 1_555
C2A H1A 1_555 1_555
C2F H1F 1_555 1_555
C2G H1G 1_555 1_555
C3A C8A 1_555 1_555
C3F C8F 1_555 1_555
C3G C8G 1_555 1_555
C4F O5F 1_555 1_555
C4A O5A 1_555 1_555
C4G O5G 1_555 1_555
C5A C2A 1_555 1_555
C5F C2F 1_555 1_555
C5G C2G 1_555 1_555
C6A O9A 1_555 1_555
C6F O9F 1_555 1_555
C6G O9G 1_555 1_555
C7A O8A 1_555 1_555
C7F O8F 1_555 1_555
C7G O8G 1_555 1_555
C8A C1A 1_555 1_555
C8F C1F 1_555 1_555
C8G C1G 1_555 1_555
H2A C8A 1_555 1_555
H2F C8F 1_555 1_555
H2G C8G 1_555 1_555
C9A O2A 1_555 1_555
C9F O2F 1_555 1_555
C9G O2G 1_555 1_555
C10A C3A 1_555 1_555
C10F C3F 1_555 1_555
C10G C3G 1_555 1_555
H3A C10A 1_555 1_555
H3F C10F 1_555 1_555
H3G C10G 1_555 1_555
C11F C4F 1_555 1_555
C11A C4A 1_555 1_555
C11G C4G 1_555 1_555
C12F C13F 1_555 1_555
C12A C13A 1_555 1_555
C12G C13G 1_555 1_555
C13F C11F 1_555 1_555
C13A C11A 1_555 1_555
C13G C11G 1_555 1_555
H4F C13F 1_555 1_555
H4A C13A 1_555 1_555
H4G C13G 1_555 1_555
C14F C11F 1_555 1_555
C14A C11A 1_555 1_555
C14G C11G 1_555 1_555
H5F C14F 1_555 1_555
H5A C14A 1_555 1_555
H5G C14G 1_555 1_555
C15F C14F 1_555 1_555
C15A C14A 1_555 1_555
C15G C14G 1_555 1_555
C16F C12F 1_555 1_555
C16A C12A 1_555 1_555
C16G C12G 1_555 1_555
C17F C12F 1_555 1_555
C17A C12A 1_555 1_555
C17G C12G 1_555 1_555
H6F C17F 1_555 1_555
H6A C17A 1_555 1_555
H6G C17G 1_555 1_555
C18F O4F 1_555 1_555
C18A O3A 1_555 1_555
C18G O3G 1_555 1_555
O4 C18 1_555 1_555
O6 In2G_2 1_555 1_555
O9 In2E 1_555 1_555
C1 C7 1_555 1_555
C3 C9 1_555 1_555
C5 C10 1_555 1_555
C15 C17 1_555 1_555
C15 C18 1_555 1_555
O4A C18A 1_555 1_555
O4G C18G 1_555 1_555
O6F C4F 1_555 1_555
O6A C4A 1_555 1_555
O6G C4G 1_555 1_555
O10A C7A 1_555 1_555
O10F C7F 1_555 1_555
O10G C7G 1_555 1_555
C1A C7A 1_555 1_555
C1F C7F 1_555 1_555
C1G C7G 1_555 1_555
C3A C9A 1_555 1_555
C3F C9F 1_555 1_555
C3G C9G 1_555 1_555
C5A C6A 1_555 1_555
C5A C10A 1_555 1_555
C5F C6F 1_555 1_555
C5F C10F 1_555 1_555
C5G C6G 1_555 1_555
C5G C10G 1_555 1_555
C15F C17F 1_555 1_555
C15F C18F 1_555 1_555
C15A C17A 1_555 1_555
C15A C18A 1_555 1_555
C15G C17G 1_555 1_555
C15G C18G 1_555 1_555

#END
