
#######################################################################
#
#                 Cambridge Crystallographic Data Centre
#                                CCDC 
#
#######################################################################
#
# If this CIF has been generated from an entry in the Cambridge 
# Structural Database, then it will include bibliographic, chemical, 
# crystal, experimental, refinement or atomic coordinate data resulting 
# from the CCDC's data processing and validation procedures.
#
#######################################################################

data_OCEGIP
_chemical_formula_moiety         'C16 H18 F7 Fe4 N6 O1 Si1'
_symmetry_cell_setting           tetragonal
_symmetry_space_group_name_H-M   'P 4/m m m'
_symmetry_Int_Tables_number      123
_space_group_name_Hall           '-P 4 2'
loop_
_symmetry_equiv_pos_site_id
_symmetry_equiv_pos_as_xyz
1 x,y,z
2 -x,-y,z
3 -y,x,z
4 y,-x,z
5 -x,y,-z
6 x,-y,-z
7 y,x,-z
8 -y,-x,-z
9 -x,-y,-z
10 x,y,-z
11 y,-x,-z
12 -y,x,-z
13 x,-y,z
14 -x,y,z
15 -y,-x,z
16 y,x,z
_cell_length_a                   7.1831(11)
_cell_length_b                   7.1831(11)
_cell_length_c                   7.5839(12)
_cell_angle_alpha                90
_cell_angle_beta                 90
_cell_angle_gamma                90
_cell_volume                     391.306
loop_
_atom_site_label
_atom_site_type_symbol
_atom_site_fract_x
_atom_site_fract_y
_atom_site_fract_z
O1 O 0.0000(10) 0.0000(14) 0.0000(9)
Fe1 Fe 0.5000 0.5000 0.5000
Si1 Si 0.5000 0.5000 0.0000
F1 F 0.5000 0.5000 0.2351(7)
F2 F 0.3336(4) 0.3336(4) 0.0000
N1 N 0.1950(8) 0.5000 0.5000
C1 C 0.0977(10) 0.4610(14) 0.3558(9)
H1 H 0.1629 0.4319 0.2487
F2A F 0.6664(4) 0.6664(4) 0.0000
F2B F 0.6664(4) 0.3336(4) 0.0000
F2C F 0.3336(4) 0.6664(4) 0.0000
F1D F 0.5000 0.5000 -0.2351(7)
N1A N -0.1950(8) 0.5000 0.5000
C1A C -0.0977(10) 0.5390(14) 0.3558(9)
H1A H -0.1629 0.5681 0.2487
C1D C -0.0977(10) 0.4610(14) 0.6442(9)
H1D H -0.1629 0.4319 0.7513
C1E C 0.0977(10) 0.5390(14) 0.6442(9)
H1E H 0.1629 0.5681 0.7513
C1H C -0.0977(10) 0.5390(14) 0.6442(9)
H1H H -0.1629 0.5681 0.7513
C1I C 0.0977(10) 0.4610(14) 0.6442(9)
H1I H 0.1629 0.4319 0.7513
C1L C 0.0977(10) 0.5390(14) 0.3558(9)
H1L H 0.1629 0.5681 0.2487
C1M C -0.0977(10) 0.4610(14) 0.3558(9)
H1M H -0.1629 0.4319 0.2487
N1B N 0.5000 0.1950(8) 0.5000
C1B C 0.5390(14) 0.0977(10) 0.3558(9)
H1B H 0.5681 0.1629 0.2487
N1C N 0.5000 -0.1950(8) 0.5000
C1C C 0.4610(14) -0.0977(10) 0.3558(9)
H1C H 0.4319 -0.1629 0.2487
C1G C 0.5390(14) -0.0977(10) 0.6442(9)
H1G H 0.5681 -0.1629 0.7513
C1F C 0.4610(14) 0.0977(10) 0.6442(9)
H1F H 0.4319 0.1629 0.7513
C1J C 0.4610(14) -0.0977(10) 0.6442(9)
H1J H 0.4319 -0.1629 0.7513
C1K C 0.5390(14) 0.0977(10) 0.6442(9)
H1K H 0.5681 0.1629 0.7513
C1O C 0.4610(14) 0.0977(10) 0.3558(9)
H1O H 0.4319 0.1629 0.2487
C1N C 0.5390(14) -0.0977(10) 0.3558(9)
H1N H 0.5681 -0.1629 0.2487
Fe1_2 Fe -0.5000 0.5000 0.5000
Fe1_3 Fe 0.5000 -0.5000 0.5000
Fe1_4 Fe 0.5000 0.5000 -0.5000
F1D_2 F 0.5000 0.5000 0.7649(7)
N1A_2 N 0.8050(8) 0.5000 0.5000
N1C_2 N 0.5000 0.8050(8) 0.5000
loop_
_geom_bond_atom_site_label_1
_geom_bond_atom_site_label_2
_geom_bond_site_symmetry_1
_geom_bond_site_symmetry_2
Fe1 F1 1_555 1_555
Si1 F1 1_555 1_555
F2 Si1 1_555 1_555
N1 Fe1 1_555 1_555
C1 N1 1_555 1_555
H1 C1 1_555 1_555
F2A Si1 1_555 1_555
F2B Si1 1_555 1_555
F2C Si1 1_555 1_555
F1D Si1 1_555 1_555
N1A C1A 1_555 1_555
C1A C1 1_555 1_555
H1A C1A 1_555 1_555
C1D N1A 1_555 1_555
H1D C1D 1_555 1_555
C1E N1 1_555 1_555
H1E C1E 1_555 1_555
C1H N1A 1_555 1_555
H1H C1D 1_555 1_555
C1I N1 1_555 1_555
H1I C1E 1_555 1_555
C1L N1 1_555 1_555
H1L C1 1_555 1_555
C1M C1 1_555 1_555
H1M C1A 1_555 1_555
N1B Fe1 1_555 1_555
C1B N1B 1_555 1_555
H1B C1B 1_555 1_555
N1C C1C 1_555 1_555
C1C C1B 1_555 1_555
H1C C1C 1_555 1_555
C1G N1C 1_555 1_555
H1G C1G 1_555 1_555
C1F N1B 1_555 1_555
H1F C1F 1_555 1_555
C1J N1C 1_555 1_555
H1J C1G 1_555 1_555
C1K N1B 1_555 1_555
H1K C1F 1_555 1_555
C1O N1B 1_555 1_555
H1O C1B 1_555 1_555
C1N C1B 1_555 1_555
H1N C1C 1_555 1_555
Fe1_2 N1A 1_555 1_555
Fe1_3 N1C 1_555 1_555
Fe1_4 F1D 1_555 1_555
F1D_2 Fe1 1_555 1_555
N1A_2 Fe1 1_555 1_555
N1C_2 Fe1 1_555 1_555
C1 C1L 1_555 1_555
H1 C1L 1_555 1_555
H1 H1L 1_555 1_555
N1A C1M 1_555 1_555
C1A C1L 1_555 1_555
C1A C1M 1_555 1_555
H1A C1M 1_555 1_555
H1A H1M 1_555 1_555
C1D C1E 1_555 1_555
C1D C1H 1_555 1_555
C1D C1I 1_555 1_555
H1D C1H 1_555 1_555
H1D H1H 1_555 1_555
C1E C1H 1_555 1_555
C1E C1I 1_555 1_555
H1E C1I 1_555 1_555
H1E H1I 1_555 1_555
C1H H1H 1_555 1_555
C1H C1I 1_555 1_555
C1I H1I 1_555 1_555
C1L H1L 1_555 1_555
C1L C1M 1_555 1_555
C1M H1M 1_555 1_555
C1B C1O 1_555 1_555
H1B C1O 1_555 1_555
H1B H1O 1_555 1_555
N1C C1N 1_555 1_555
C1C C1O 1_555 1_555
C1C C1N 1_555 1_555
H1C C1N 1_555 1_555
H1C H1N 1_555 1_555
C1G C1F 1_555 1_555
C1G C1J 1_555 1_555
C1G C1K 1_555 1_555
H1G C1J 1_555 1_555
H1G H1J 1_555 1_555
C1F C1J 1_555 1_555
C1F C1K 1_555 1_555
H1F C1K 1_555 1_555
H1F H1K 1_555 1_555
C1J H1J 1_555 1_555
C1J C1K 1_555 1_555
C1K H1K 1_555 1_555
C1O H1O 1_555 1_555
C1O C1N 1_555 1_555
C1N H1N 1_555 1_555

#END
