
#######################################################################
#
#                 Cambridge Crystallographic Data Centre
#                                CCDC 
#
#######################################################################
#
# If this CIF has been generated from an entry in the Cambridge 
# Structural Database, then it will include bibliographic, chemical, 
# crystal, experimental, refinement or atomic coordinate data resulting 
# from the CCDC's data processing and validation procedures.
#
#######################################################################

data_MOXPAR
_chemical_formula_moiety         'C10 H8 Cu1 N6 O6'
_symmetry_cell_setting           orthorhombic
_symmetry_space_group_name_H-M   'C c c m'
_symmetry_Int_Tables_number      66
_space_group_name_Hall           '-C 2 2c'
loop_
_symmetry_equiv_pos_site_id
_symmetry_equiv_pos_as_xyz
1 x,y,z
2 -x,-y,z
3 x,-y,1/2-z
4 -x,y,1/2-z
5 1/2+x,1/2+y,z
6 1/2-x,1/2-y,z
7 1/2+x,1/2-y,1/2-z
8 1/2-x,1/2+y,1/2-z
9 -x,-y,-z
10 x,y,-z
11 -x,y,1/2+z
12 x,-y,1/2+z
13 1/2-x,1/2-y,-z
14 1/2+x,1/2+y,-z
15 1/2-x,1/2+y,1/2+z
16 1/2+x,1/2-y,1/2+z
_cell_length_a                   9.0229(3)
_cell_length_b                   21.6107(8)
_cell_length_c                   24.0491(9)
_cell_angle_alpha                90
_cell_angle_beta                 90
_cell_angle_gamma                90
_cell_volume                     4689.36
loop_
_atom_site_label
_atom_site_type_symbol
_atom_site_fract_x
_atom_site_fract_y
_atom_site_fract_z
_atom_site_U_iso_or_equiv
_atom_site_thermal_displace_type
O6 O -0.317(3) 0.0220(13) -0.1308(10) 0.2100 Uiso
H9 H -0.2969 0.0542 -0.1025 0.3160 Uiso
H10 H -0.3085 -0.0176 -0.1103 0.3160 Uiso
Cu1 Cu 0.2500 0.2500 0.0000 0.0487 Uani
C1 C 0.0262(6) 0.1871(3) 0.0698(3) 0.1013 Uani
H1 H -0.0403 0.2101 0.0479 0.1220 Uiso
N1 N 0.1679(4) 0.19374(13) 0.06053(11) 0.0519 Uani
C2 C -0.0316(6) 0.1482(4) 0.1100(3) 0.1100 Uani
H2 H -0.1344 0.1444 0.1153 0.1320 Uiso
C3 C 0.0671(5) 0.11512(18) 0.14197(15) 0.0588 Uani
C4 C 0.2130(5) 0.1231(2) 0.1335(2) 0.0647 Uani
H3 H 0.2822 0.1016 0.1555 0.0780 Uiso
C5 C 0.2601(4) 0.1625(3) 0.0931(2) 0.0680 Uani
H4 H 0.3626 0.1679 0.0880 0.0810 Uiso
O1 O 0.0040(3) 0.07732(15) 0.18059(12) 0.0667 Uani
C6 C 0.1013(4) 0.03983(15) 0.21340(12) 0.0487 Uani
H5 H 0.1660 0.0658 0.2364 0.0580 Uiso
H6 H 0.1631 0.0137 0.1895 0.0580 Uiso
C7 C 0.0000 0.0000 0.2500 0.0407 Uani
N2 N 0.6151(7) 0.1822(2) 0.02285(16) 0.1133 Uani
O2 O 0.5004(7) 0.1878(3) 0.0000 0.1130 Uani
O3 O 0.7255(7) 0.1964(5) 0.0000 0.1140 Uani
O4 O 0.6193(8) 0.1624(4) 0.0685(2) 0.1147 Uani
N1E N 0.3321(4) 0.30626(13) 0.06053(11) 0.0519 Uani
N1I N 0.1679(4) 0.19374(13) -0.06053(11) 0.0519 Uani
N1L N 0.3321(4) 0.30626(13) -0.06053(11) 0.0519 Uani
C6A C -0.1013(4) -0.03983(15) 0.21340(12) 0.0487 Uani
C6B C 0.1013(4) -0.03983(15) 0.28660(12) 0.0487 Uani
C6C C -0.1013(4) 0.03983(15) 0.28660(12) 0.0487 Uani
N2I N 0.6151(7) 0.1822(2) -0.02285(16) 0.1133 Uani
O2E O -0.0004(7) 0.3122(3) 0.0000 0.1130 Uani
loop_
_atom_site_aniso_label
_atom_site_aniso_U_11
_atom_site_aniso_U_22
_atom_site_aniso_U_33
_atom_site_aniso_U_23
_atom_site_aniso_U_13
_atom_site_aniso_U_12
Cu1 0.0776(9) 0.0416(8) 0.0270(8) 0.000 0.000 -0.0150(4)
C1 0.071(3) 0.124(5) 0.109(4) 0.079(4) 0.005(3) 0.009(3)
N1 0.0714(19) 0.0488(15) 0.0354(13) 0.0049(10) -0.0008(12) -0.0095(12)
C2 0.064(2) 0.135(5) 0.131(5) 0.092(4) 0.004(3) 0.004(3)
C3 0.064(2) 0.059(2) 0.0533(19) 0.0183(15) 0.0011(15) -0.0054(16)
C4 0.062(2) 0.073(3) 0.059(2) 0.030(2) -0.0091(17) 0.0003(18)
C5 0.062(2) 0.085(4) 0.057(3) 0.028(3) 0.0031(15) -0.0073(17)
O1 0.0619(15) 0.0773(18) 0.0608(16) 0.0359(14) 0.0048(11) 0.0020(12)
C6 0.0615(18) 0.0470(18) 0.0377(15) 0.0073(12) 0.0004(12) -0.0011(13)
C7 0.057(3) 0.042(3) 0.023(2) 0.000 0.000 0.000
N2 0.111(7) 0.117(8) 0.112(8) 0.000(6) 0.006(7) -0.001(7)
O2 0.114(5) 0.111(5) 0.114(5) 0.000 0.000 0.001(4)
O3 0.113(5) 0.113(6) 0.116(6) 0.000 0.000 0.000(4)
O4 0.112(6) 0.119(8) 0.113(7) -0.002(5) 0.001(5) 0.002(5)
N1E 0.0714 0.0488 0.0354 -0.0049 0.0008 -0.0095
N1I 0.0714 0.0488 0.0354 -0.0049 0.0008 -0.0095
N1L 0.0714 0.0488 0.0354 0.0049 -0.0008 -0.0095
C6A 0.0615 0.047 0.0377 -0.0073 -0.0004 -0.0011
C6B 0.0615 0.047 0.0377 0.0073 -0.0004 0.0011
C6C 0.0615 0.047 0.0377 -0.0073 0.0004 0.0011
N2I 0.111 0.117 0.112 0 -0.006 -0.001
O2E 0.114 0.111 0.114 0 0 0.001
loop_
_geom_bond_atom_site_label_1
_geom_bond_atom_site_label_2
_geom_bond_site_symmetry_1
_geom_bond_site_symmetry_2
Cu1 N1 1_555 1_555
C1 H1 1_555 1_555
N1 C1 1_555 1_555
C2 C1 1_555 1_555
H2 C2 1_555 1_555
C3 C2 1_555 1_555
C4 C3 1_555 1_555
H3 C4 1_555 1_555
C5 N1 1_555 1_555
H4 C5 1_555 1_555
O1 C3 1_555 1_555
C6 O1 1_555 1_555
H5 C6 1_555 1_555
H6 C6 1_555 1_555
C7 C6 1_555 1_555
N2 O2 1_555 1_555
O2 Cu1 1_555 1_555
O3 N2 1_555 1_555
O4 N2 1_555 1_555
O6 H9 1_555 1_555
H10 O6 1_555 1_555
N1E Cu1 1_555 1_555
N1I Cu1 1_555 1_555
N1L Cu1 1_555 1_555
C6A C7 1_555 1_555
C6B C7 1_555 1_555
C6C C7 1_555 1_555
N2I N2 1_555 1_555
O2E Cu1 1_555 1_555
C4 C5 1_555 1_555
O2 N2I 1_555 1_555
O3 N2I 1_555 1_555

#END
