
#######################################################################
#
#                 Cambridge Crystallographic Data Centre
#                                CCDC 
#
#######################################################################
#
# If this CIF has been generated from an entry in the Cambridge 
# Structural Database, then it will include bibliographic, chemical, 
# crystal, experimental, refinement or atomic coordinate data resulting 
# from the CCDC's data processing and validation procedures.
#
#######################################################################

data_BAPDAA
_chemical_formula_moiety         '(C14 H16 Cd2 N2 O8)n'
_symmetry_cell_setting           rhombohedral
_symmetry_space_group_name_H-M   'R -3'
_symmetry_Int_Tables_number      148
_space_group_name_Hall           '-R 3'
loop_
_symmetry_equiv_pos_site_id
_symmetry_equiv_pos_as_xyz
1 x,y,z
2 -y,x-y,z
3 -x+y,-x,z
4 2/3+x,1/3+y,1/3+z
5 2/3-y,1/3+x-y,1/3+z
6 2/3-x+y,1/3-x,1/3+z
7 1/3+x,2/3+y,2/3+z
8 1/3-y,2/3+x-y,2/3+z
9 1/3-x+y,2/3-x,2/3+z
10 -x,-y,-z
11 y,-x+y,-z
12 x-y,x,-z
13 1/3-x,2/3-y,2/3-z
14 1/3+y,2/3-x+y,2/3-z
15 1/3+x-y,2/3+x,2/3-z
16 2/3-x,1/3-y,1/3-z
17 2/3+y,1/3-x+y,1/3-z
18 2/3+x-y,1/3+x,1/3-z
_cell_length_a                   26.888(3)
_cell_length_b                   26.888(3)
_cell_length_c                   7.2385(7)
_cell_angle_alpha                90
_cell_angle_beta                 90
_cell_angle_gamma                120
_cell_volume                     4532.07
loop_
_atom_site_label
_atom_site_type_symbol
_atom_site_fract_x
_atom_site_fract_y
_atom_site_fract_z
Cd1 Cd 0.72428(2) 0.70456(2) 0.80232(6)
C1 C 0.7554(3) 0.6813(3) 0.4138(8)
C2 C 0.7931(3) 0.6718(3) 0.2792(8)
C3 C 0.8453(3) 0.6796(3) 0.3485(8)
H1 H 0.852975 0.688274 0.473281
C4 C 0.8860(3) 0.6752(3) 0.2445(8)
O1 O 0.70842(18) 0.6757(2) 0.3592(6)
O2 O 0.7744(2) 0.6976(3) 0.5719(6)
O3 O 0.93478(18) 0.6855(2) 0.3286(6)
O4 O 0.7969(3) 0.7869(3) 0.9331(12)
C5 C 0.7905(16) 0.8000(12) 1.090(3)
H2 H 0.770643 0.769244 1.170139
N1 N 0.8079(14) 0.8528(11) 1.164(3)
C6 C 0.8087(18) 0.8625(14) 1.354(3)
H3 H 0.822379 0.902522 1.375757
H4 H 0.770534 0.840121 1.402730
H5 H 0.833643 0.851589 1.413737
C7 C 0.8359(18) 0.9015(13) 1.052(4)
H6 H 0.845384 0.935159 1.123980
H7 H 0.870383 0.904362 1.003267
H8 H 0.811042 0.898560 0.952248
C1O C 0.9113(3) 0.6520(3) -0.0805(8)
C2O C 0.8736(3) 0.6615(3) 0.0541(8)
C3O C 0.8214(3) 0.6537(3) -0.0152(8)
H1O H 0.813692 0.645059 -0.139948
C4O C 0.7807(3) 0.6581(3) 0.0888(8)
O1O O 0.95825(18) 0.6576(2) -0.0259(6)
O2O O 0.8923(2) 0.6357(3) -0.2386(6)
O3O O 0.73189(18) 0.6478(2) 0.0047(6)
Cd1E Cd 0.64695(3) 0.60905(2) 0.13565(6)
O4E O 0.6567(4) 0.5364(3) 0.2664(12)
C5E C 0.6762(20) 0.5428(16) 0.423(3)
H2E H 0.665268 0.562690 0.503472
N1E N 0.7116(18) 0.5254(14) 0.497(3)
C6E C 0.7205(23) 0.5246(18) 0.687(3)
H3E H 0.746810 0.510954 0.709090
H4E H 0.736254 0.562799 0.736063
H5E H 0.684613 0.499690 0.747070
C7E C 0.7323(22) 0.4974(18) 0.385(4)
H6E H 0.756442 0.487949 0.457313
H7E H 0.700646 0.462950 0.336600
H8E H 0.754185 0.522291 0.285581
Cd1_2 Cd 0.72428(2) 0.70456(2) -0.19768(6)
Cd1G Cd 0.62877(2) 0.68639(3) 0.46899(6)
Cd1K Cd 1.01972(3) 0.72428(2) 0.19768(6)
Cd1O Cd 0.94239(2) 0.62877(2) -0.46899(6)
Cd1O_2 Cd 0.94239(2) 0.62877(2) 0.53101(6)
Cd1M Cd 1.03789(2) 0.64695(3) -0.13565(6)
O1E O 0.63395(27) 0.62491(18) 0.6925(6)
O1G O 0.6576(2) 0.69939(27) 0.0259(6)
O1G_2 O 0.6576(2) 0.69939(27) 1.0259(6)
O2E O 0.5899(4) 0.5589(2) -0.0948(6)
O3J O 0.6855(2) 0.75072(27) 0.6714(6)
O3O_2 O 0.73189(18) 0.6478(2) 1.0047(6)
O3N O 0.58261(27) 0.60145(18) 0.3381(6)
loop_
_geom_bond_atom_site_label_1
_geom_bond_atom_site_label_2
_geom_bond_site_symmetry_1
_geom_bond_site_symmetry_2
Cd1 O2 1_555 1_555
C1 C2 1_555 1_555
C2 C3 1_555 1_555
C3 H1 1_555 1_555
C4 C3 1_555 1_555
O1 C1 1_555 1_555
O2 C1 1_555 1_555
O3 C4 1_555 1_555
O4 Cd1 1_555 1_555
C5 O4 1_555 1_555
H2 C5 1_555 1_555
N1 C5 1_555 1_555
C6 N1 1_555 1_555
H3 C6 1_555 1_555
H4 C6 1_555 1_555
H5 C6 1_555 1_555
C7 N1 1_555 1_555
H6 C7 1_555 1_555
H7 C7 1_555 1_555
H8 C7 1_555 1_555
C1O C2O 1_555 1_555
C2O C4 1_555 1_555
C3O C2O 1_555 1_555
H1O C3O 1_555 1_555
C4O C2 1_555 1_555
O1O C1O 1_555 1_555
O2O C1O 1_555 1_555
O3O C4O 1_555 1_555
Cd1E O1 1_555 1_555
O4E Cd1E 1_555 1_555
C5E O4E 1_555 1_555
H2E C5E 1_555 1_555
N1E C5E 1_555 1_555
C6E N1E 1_555 1_555
H3E C6E 1_555 1_555
H4E C6E 1_555 1_555
H5E C6E 1_555 1_555
C7E N1E 1_555 1_555
H6E C7E 1_555 1_555
H7E C7E 1_555 1_555
H8E C7E 1_555 1_555
Cd1_2 O3O 1_555 1_555
Cd1G O1 1_555 1_555
Cd1K O3 1_555 1_555
Cd1O O2O 1_555 1_555
Cd1O_2 O3 1_555 1_555
Cd1M O1O 1_555 1_555
O1E Cd1 1_555 1_555
O1G Cd1E 1_555 1_555
O1G_2 Cd1 1_555 1_555
O2E Cd1E 1_555 1_555
O3J Cd1 1_555 1_555
O3O_2 Cd1 1_555 1_555
O3N Cd1E 1_555 1_555
C3O C4O 1_555 1_555
O1O Cd1K 1_555 1_555
O3O Cd1E 1_555 1_555
Cd1_2 O1G 1_555 1_555
Cd1G O1E 1_555 1_555
Cd1G O3J 1_555 1_555
Cd1G O3N 1_555 1_555

#END
