
#######################################################################
#
#                 Cambridge Crystallographic Data Centre
#                                CCDC 
#
#######################################################################
#
# If this CIF has been generated from an entry in the Cambridge 
# Structural Database, then it will include bibliographic, chemical, 
# crystal, experimental, refinement or atomic coordinate data resulting 
# from the CCDC's data processing and validation procedures.
#
#######################################################################

data_ULISOZ
_chemical_formula_moiety         '(C28 H32 N4 O14 Zn2)n'
_symmetry_cell_setting           monoclinic
_symmetry_space_group_name_H-M   'P n'
_symmetry_Int_Tables_number      7
_space_group_name_Hall           'P -2yac'
loop_
_symmetry_equiv_pos_site_id
_symmetry_equiv_pos_as_xyz
1 x,y,z
2 1/2+x,-y,1/2+z
_cell_length_a                   9.470(4)
_cell_length_b                   12.351(5)
_cell_length_c                   13.575(5)
_cell_angle_alpha                90
_cell_angle_beta                 94.327(5)
_cell_angle_gamma                90
_cell_volume                     1583.26
loop_
_atom_site_label
_atom_site_type_symbol
_atom_site_fract_x
_atom_site_fract_y
_atom_site_fract_z
Zn1 Zn 0.89147(5) 0.67955(5) 0.05911(4)
Zn2 Zn 0.62372(5) 0.81579(5) 0.17921(4)
O1 O 0.9514(6) 0.8118(3) 0.1336(4)
O2 O 0.8070(6) 0.8139(3) 0.2567(4)
O3 O 0.8606(5) 0.5625(4) 0.1496(3)
O4 O 1.0719(5) 0.5942(4) 0.2254(4)
O5 O 1.2069(6) 0.3161(3) 0.4860(4)
O6 O 1.0633(6) 0.3192(3) 0.6113(4)
O7 O 1.1608(5) 1.0746(4) 0.5835(3)
O8 O 0.9502(5) 1.1140(4) 0.5057(4)
O9 O 1.4623(5) 0.8233(3) 0.2583(4)
O10 O 1.5241(4) 0.9792(3) 0.3323(3)
O11 O 0.5529(6) 0.3160(3) 0.4809(4)
O12 O 0.4855(4) 0.4436(3) 0.3714(3)
C1 C 0.9235(8) 0.8327(5) 0.2208(6)
C2 C 1.0366(7) 0.8843(5) 0.2878(5)
C3 C 1.1771(7) 0.8723(5) 0.2683(5)
H1 H 1.2011 0.8307 0.2132
C4 C 1.2836(7) 0.9213(5) 0.3297(5)
C5 C 1.2461(7) 0.9836(5) 0.4080(5)
H2 H 1.3177 1.0186 0.4492
C6 C 1.1059(7) 0.9959(5) 0.4271(5)
C7 C 0.9997(8) 0.9460(5) 0.3666(5)
H3 H 0.9031 0.9544 0.3795
C8 C 0.9530(7) 0.5524(5) 0.2213(5)
C9 C 0.9120(7) 0.4837(5) 0.3048(5)
C10 C 0.7684(8) 0.4637(5) 0.3179(5)
H4 H 0.6968 0.4899 0.2710
C11 C 1.0130(8) 0.4415(6) 0.3723(6)
H5 H 1.1102 0.4529 0.3628
C12 C 1.0904(8) 0.3363(5) 0.5231(6)
C13 C 0.9770(7) 0.3830(5) 0.4535(5)
C14 C 0.8341(7) 0.3660(5) 0.4684(5)
H6 H 0.8079 0.3280 0.5251
C15 C 0.7317(7) 0.4051(5) 0.4000(5)
C16 C 1.0650(8) 1.0658(6) 0.5106(6)
C17 C 1.4354(7) 0.9100(5) 0.3065(5)
C18 C 0.5761(7) 0.3891(5) 0.4169(5)
Zn1A Zn 0.39147(5) 0.32045(5) 0.55911(4)
Zn1A_2 Zn 1.39147(5) 0.32045(5) 0.55911(4)
Zn2_2 Zn 1.62372(5) 0.81579(5) 0.17921(4)
Zn2A Zn 1.12372(5) 0.18421(5) 0.67921(4)
Zn2A_2 Zn 1.12372(5) 1.18421(5) 0.67921(4)
O5A O 0.7069(6) 0.6839(3) -0.0140(4)
O6A O 0.5633(6) 0.6808(3) 0.1113(4)
O7A O 0.6608(5) 0.9254(4) 0.0835(3)
O9_2 O 0.4623(5) 0.8233(3) 0.2583(4)
O11A O 1.0529(6) 0.6840(3) -0.0191(4)
O13 O 0.2466(6) 0.0795(4) 0.1181(3)
C19 C 0.2289(7) 0.1747(5) 0.0954(5)
C20 C 0.1892(9) 0.2178(6) -0.0067(5)
H7 H 0.0926 0.1944 -0.0305
H8 H 0.2569 0.1927 -0.0539
C21 C 0.1961(8) 0.3402(6) 0.0056(6)
H9 H 0.2857 0.3690 -0.0170
H10 H 0.1157 0.3754 -0.0328
C22 C 0.1882(8) 0.3598(5) 0.1150(6)
H11 H 0.2520 0.4195 0.1385
H12 H 0.0903 0.3774 0.1306
C23 C 0.2518(9) 0.2404(6) 0.2649(5)
H13 H 0.1586 0.2397 0.2918
H14 H 0.3087 0.2996 0.2952
H15 H 0.2997 0.1713 0.2796
N1 N 0.2347(6) 0.2561(4) 0.1594(4)
N2 N 0.6628(5) 0.0862(4) 0.4962(4)
H16 H 0.628(7) 0.062(5) 0.438(3)
H17 H 0.749(4) 0.105(5) 0.483(5)
H18 H 0.620(6) 0.145(4) 0.515(5)
H19 H 0.687(7) 0.036(4) 0.539(4)
N3 N 0.3320(5) 0.6331(4) 0.3316(4)
H20 H 0.249(4) 0.624(5) 0.302(4)
H21 H 0.369(6) 0.683(4) 0.296(4)
H22 H 0.393(6) 0.580(4) 0.328(4)
H23 H 0.326(7) 0.660(5) 0.392(3)
C24 C 0.3028(9) 0.7644(7) 0.5883(6)
C25 C 0.3572(11) 0.8553(9) 0.6562(9)
H24 H 0.3523 0.9255 0.6209
H25 H 0.4565 0.8417 0.6812
C26 C 0.2619(8) 0.8556(6) 0.7391(5)
H26 H 0.3059 0.8161 0.7970
H27 H 0.2409 0.9306 0.7592
C27 C 0.1267(13) 0.7981(13) 0.6975(11)
H28 H 0.0865 0.7520 0.7481
H29 H 0.0541 0.8506 0.6717
C28 C 0.0917(12) 0.6515(11) 0.5659(10)
H30 H 0.0244 0.6870 0.5178
H31 H 0.0396 0.6105 0.6132
H32 H 0.1522 0.6022 0.5313
N4 N 0.1793(8) 0.7334(6) 0.6184(5)
O14 O 0.3602(7) 0.7270(8) 0.5180(5)
loop_
_geom_bond_atom_site_label_1
_geom_bond_atom_site_label_2
_geom_bond_site_symmetry_1
_geom_bond_site_symmetry_2
Zn1 O1 1_555 1_555
Zn2 O2 1_555 1_555
O1 C1 1_555 1_555
O2 C1 1_555 1_555
O3 Zn1 1_555 1_555
O4 C8 1_555 1_555
O5 C12 1_555 1_555
O6 C12 1_555 1_555
O7 C16 1_555 1_555
O8 C16 1_555 1_555
O9 C17 1_555 1_555
O10 C17 1_555 1_555
O11 C18 1_555 1_555
O12 C18 1_555 1_555
C1 C2 1_555 1_555
C2 C3 1_555 1_555
C3 H1 1_555 1_555
C4 C3 1_555 1_555
C5 C4 1_555 1_555
H2 C5 1_555 1_555
C6 C5 1_555 1_555
C7 C2 1_555 1_555
H3 C7 1_555 1_555
C8 O3 1_555 1_555
C9 C8 1_555 1_555
C10 C9 1_555 1_555
H4 C10 1_555 1_555
C11 C9 1_555 1_555
H5 C11 1_555 1_555
C12 C13 1_555 1_555
C13 C11 1_555 1_555
C14 C13 1_555 1_555
H6 C14 1_555 1_555
C15 C10 1_555 1_555
C16 C6 1_555 1_555
C17 C4 1_555 1_555
C18 C15 1_555 1_555
O13 C19 1_555 1_555
C19 C20 1_555 1_555
C20 H7 1_555 1_555
H8 C20 1_555 1_555
C21 C20 1_555 1_555
H9 C21 1_555 1_555
H10 C21 1_555 1_555
C22 C21 1_555 1_555
H11 C22 1_555 1_555
H12 C22 1_555 1_555
C23 H13 1_555 1_555
H14 C23 1_555 1_555
H15 C23 1_555 1_555
N1 C19 1_555 1_555
N2 H16 1_555 1_555
H17 N2 1_555 1_555
H18 N2 1_555 1_555
H19 N2 1_555 1_555
N3 H20 1_555 1_555
H21 N3 1_555 1_555
H22 N3 1_555 1_555
H23 N3 1_555 1_555
C24 C25 1_555 1_555
C25 H24 1_555 1_555
H25 C25 1_555 1_555
C26 C25 1_555 1_555
H26 C26 1_555 1_555
H27 C26 1_555 1_555
C27 C26 1_555 1_555
H28 C27 1_555 1_555
H29 C27 1_555 1_555
C28 H30 1_555 1_555
H31 C28 1_555 1_555
H32 C28 1_555 1_555
N4 C24 1_555 1_555
O14 C24 1_555 1_555
Zn1A O11 1_555 1_555
Zn1A_2 O5 1_555 1_555
Zn2_2 O9 1_555 1_555
Zn2A O6 1_555 1_555
Zn2A_2 O7 1_555 1_555
O5A Zn1 1_555 1_555
O6A Zn2 1_555 1_555
O7A Zn2 1_555 1_555
O9_2 Zn2 1_555 1_555
O11A Zn1 1_555 1_555
C6 C7 1_555 1_555
C14 C15 1_555 1_555
C22 N1 1_555 1_555
C23 N1 1_555 1_555
C27 N4 1_555 1_555
C28 N4 1_555 1_555

#END
