
#######################################################################
#
#                 Cambridge Crystallographic Data Centre
#                                CCDC 
#
#######################################################################
#
# If this CIF has been generated from an entry in the Cambridge 
# Structural Database, then it will include bibliographic, chemical, 
# crystal, experimental, refinement or atomic coordinate data resulting 
# from the CCDC's data processing and validation procedures.
#
#######################################################################

data_HURQUG
_chemical_formula_moiety         '(C12 H22 Ce2 O20)n'
_symmetry_cell_setting           hexagonal
_symmetry_space_group_name_H-M   'P -6 2 c'
_symmetry_Int_Tables_number      190
_space_group_name_Hall           'P -6c -2c'
loop_
_symmetry_equiv_pos_site_id
_symmetry_equiv_pos_as_xyz
1 x,y,z
2 x,y,1/2-z
3 y,x,1/2+z
4 y,x,-z
5 x-y,-y,-z
6 x-y,-y,1/2+z
7 -x,-x+y,1/2+z
8 -x,-x+y,-z
9 -y,x-y,z
10 -y,x-y,1/2-z
11 -x+y,-x,1/2-z
12 -x+y,-x,z
_cell_length_a                   9.4193(4)
_cell_length_b                   9.4193(4)
_cell_length_c                   17.4757(8)
_cell_angle_alpha                90
_cell_angle_beta                 90
_cell_angle_gamma                120
_cell_volume                     1342.77
loop_
_atom_site_label
_atom_site_type_symbol
_atom_site_fract_x
_atom_site_fract_y
_atom_site_fract_z
Ce1 Ce 0.66667 0.33333 0.25000
Ce2 Ce 0.00000 0.00000 0.00000
C1 C 0.3511(4) 0.1849(11) 0.1051(2)
C2 C 0.4029(6) 0.0947(7) 0.0515(3)
O1 O 0.4505(4) 0.2717(4) 0.1556(2)
O2 O 0.2720(5) 0.00000 0.00000
O3 O 0.2108(4) 0.1703(4) 0.0961(2)
O4 O 0.9899(7) 0.4371(8) 0.25000
H1 H 0.43123 0.02615 0.07867
H2 H 0.49649 0.17275 0.02229
C2D C 0.3082(9) -0.0947(7) -0.0515(3)
C1D C 0.1662(12) -0.1849(11) -0.1051(2)
O1D O 0.1788(6) -0.2717(4) -0.1556(2)
O3D O 0.0405(6) -0.1703(4) -0.0961(2)
H1D H 0.40508 -0.02615 -0.07867
H2D H 0.32374 -0.17275 -0.02229
C1A C 0.3511(4) 0.1849(11) 0.3949(2)
C2A C 0.4029(6) 0.0947(7) 0.4485(3)
O1A O 0.4505(4) 0.2717(4) 0.3444(2)
O2A O 0.2720(5) 0.00000 0.50000
O3A O 0.2108(4) 0.1703(4) 0.4039(2)
H1A H 0.43123 0.02615 0.42133
H2A H 0.49649 0.17275 0.47771
C2E C 0.3082(9) -0.0947(7) 0.5515(3)
C1E C 0.1662(12) -0.1849(11) 0.6051(2)
O1E O 0.1788(6) -0.2717(4) 0.6556(2)
O3E O 0.0405(6) -0.1703(4) 0.5961(2)
H1E H 0.40508 -0.02615 0.57867
H2E H 0.32374 -0.17275 0.52229
C1H C 0.8151(11) 0.1662(12) 0.1051(2)
C2H C 0.9053(7) 0.3082(9) 0.0515(3)
O1H O 0.7283(4) 0.1788(6) 0.1556(2)
O2H O 1.00000 0.27200(50) 0.00000
O3H O 0.8297(4) 0.0405(6) 0.0961(2)
H1H H 0.97385 0.40508 0.07867
H2H H 0.82725 0.32374 0.02229
C2C C 1.0947(7) 0.4029(6) -0.0515(3)
C1C C 1.1849(11) 0.3511(4) -0.1051(2)
O1C O 1.2717(4) 0.4505(4) -0.1556(2)
O3C O 1.1703(4) 0.2108(4) -0.0961(2)
H1C H 1.02615 0.43123 -0.07867
H2C H 1.17275 0.49649 -0.02229
O4H O 0.5629(8) 0.5528(11) 0.25000
O4J O 0.4472(11) 0.0101(7) 0.25000
O1I O 0.7283(4) 0.1788(6) 0.3444(2)
O1J O 0.8212(6) 0.5495(4) 0.3444(2)
O1K O 0.8212(6) 0.5495(4) 0.1556(2)
O2C O 0.00000 0.2720(5) 0.00000
O2G O -0.2720(5) -0.27200(50) 0.00000
O3C_2 O 0.1703(4) 0.2108(4) -0.0961(2)
O3G O -0.2108(4) -0.0405(6) -0.0961(2)
O3H_2 O -0.1703(4) 0.0405(6) 0.0961(2)
O3K O -0.0405(6) -0.2108(4) 0.0961(2)
Ce1B Ce 0.33333 -0.33333 -0.25000
Ce2A Ce -0.00000 0.00000 0.50000
Ce1B_2 Ce 0.33333 -0.33333 0.75000
Ce2_2 Ce 1.00000 0.00000 0.00000
Ce1B_3 Ce 1.33333 0.66667 -0.25000
O5 O 1.118(3) 0.225(2) 0.25000
O6 O 1.3087(12) 0.5166(12) 0.1400(6)
loop_
_geom_bond_atom_site_label_1
_geom_bond_atom_site_label_2
_geom_bond_site_symmetry_1
_geom_bond_site_symmetry_2
Ce1 O1 1_555 1_555
Ce2 O2 1_555 1_555
C1 C2 1_555 1_555
C2 O2 1_555 1_555
O1 C1 1_555 1_555
O2 C2D 1_555 1_555
O3 Ce2 1_555 1_555
O4 Ce1 1_555 1_555
H1 C2 1_555 1_555
H2 C2 1_555 1_555
C2D C1D 1_555 1_555
C1D O1D 1_555 1_555
O1D Ce1B 1_555 1_555
O3D Ce2 1_555 1_555
H1D C2D 1_555 1_555
H2D C2D 1_555 1_555
C1A C2A 1_555 1_555
C2A O2A 1_555 1_555
O1A Ce1 1_555 1_555
O2A C2E 1_555 1_555
O3A C1A 1_555 1_555
H1A C2A 1_555 1_555
H2A C2A 1_555 1_555
C2E C1E 1_555 1_555
C1E O1E 1_555 1_555
O1E Ce1B_2 1_555 1_555
O3E C1E 1_555 1_555
H1E C2E 1_555 1_555
H2E C2E 1_555 1_555
C1H C2H 1_555 1_555
C2H O2H 1_555 1_555
O1H Ce1 1_555 1_555
O2H C2C 1_555 1_555
O3H C1H 1_555 1_555
H1H C2H 1_555 1_555
H2H C2H 1_555 1_555
C2C C1C 1_555 1_555
C1C O1C 1_555 1_555
O1C Ce1B_3 1_555 1_555
O3C C1C 1_555 1_555
H1C C2C 1_555 1_555
H2C C2C 1_555 1_555
O4H Ce1 1_555 1_555
O4J Ce1 1_555 1_555
O1I Ce1 1_555 1_555
O1J Ce1 1_555 1_555
O1K Ce1 1_555 1_555
O2C Ce2 1_555 1_555
O2G Ce2 1_555 1_555
O3C_2 Ce2 1_555 1_555
O3G Ce2 1_555 1_555
O3H_2 Ce2 1_555 1_555
O3K Ce2 1_555 1_555
Ce2A O2A 1_555 1_555
Ce2_2 O2H 1_555 1_555
C1 O3 1_555 1_555
C1D O3D 1_555 1_555
C1A O1A 1_555 1_555
O3A Ce2A 1_555 1_555
O3E Ce2A 1_555 1_555
C1H O1H 1_555 1_555
O3H Ce2_2 1_555 1_555
O3C Ce2_2 1_555 1_555

#END
