
#######################################################################
#
#                 Cambridge Crystallographic Data Centre
#                                CCDC 
#
#######################################################################
#
# If this CIF has been generated from an entry in the Cambridge 
# Structural Database, then it will include bibliographic, chemical, 
# crystal, experimental, refinement or atomic coordinate data resulting 
# from the CCDC's data processing and validation procedures.
#
#######################################################################

data_PEJFEQ
_chemical_formula_moiety         '(C4 H12 Ga4 N2 O21 P4)n'
_symmetry_cell_setting           triclinic
_symmetry_space_group_name_H-M   'P -1'
_symmetry_Int_Tables_number      2
_space_group_name_Hall           '-P 1'
loop_
_symmetry_equiv_pos_site_id
_symmetry_equiv_pos_as_xyz
1 x,y,z
2 -x,-y,-z
_cell_length_a                   7.973(2)
_cell_length_b                   8.423(2)
_cell_length_c                   8.834(2)
_cell_angle_alpha                116.834(2)
_cell_angle_beta                 100.992(3)
_cell_angle_gamma                103.428(3)
_cell_volume                     484.144
loop_
_atom_site_label
_atom_site_type_symbol
_atom_site_fract_x
_atom_site_fract_y
_atom_site_fract_z
Ga1 Ga 0.67761(6) 0.27979(6) 0.31353(6)
Ga2 Ga 0.23079(6) 0.46236(6) 0.00653(6)
P1 P 0.45955(14) 0.19027(15) -0.08776(14)
P2 P 0.96110(14) 0.50767(15) 0.73468(14)
C1 C 0.5585(6) 0.5827(6) 0.4961(6)
O1 O 0.6735(4) 0.5544(4) 0.4195(4)
O2 O 0.5271(4) 0.7352(4) 0.5716(4)
O3 O 0.4948(4) 0.2120(4) 0.0959(4)
O4 O 0.3686(4) -0.0167(4) -0.2426(4)
O5 O 0.3297(4) 0.2935(4) -0.1150(4)
O6 O 0.6363(4) 0.2830(4) -0.1123(4)
O7 O 1.0252(4) 0.3992(4) 0.8245(4)
O8 O 0.8306(4) 0.5917(4) 0.8281(4)
O9 O 0.8551(4) 0.3563(4) 0.5393(4)
O10 O 1.1221(4) 0.6714(4) 0.7699(4)
Ga1A Ga 0.32239(6) 0.72021(6) 0.68647(6)
Ga1A_2 Ga 0.32239(6) -0.27979(6) -0.31353(6)
Ga1A_3 Ga 1.32239(6) 0.72021(6) 0.68647(6)
Ga2A Ga 0.76921(6) -0.46236(6) -0.00653(6)
Ga2A_2 Ga 0.76921(6) 0.53764(6) -0.00653(6)
Ga2_2 Ga 1.23079(6) 0.46236(6) 1.00653(6)
Ga2A_3 Ga 0.76921(6) 0.53764(6) 0.99347(6)
Ga2_3 Ga 0.23079(6) -0.53764(6) 0.00653(6)
Ga2_4 Ga 1.23079(6) 0.46236(6) 0.00653(6)
P1A P 0.54045(14) -0.19027(15) 0.08776(14)
P2A P 1.03890(14) 0.49233(15) 0.26532(14)
C1A C 0.4415(6) 0.4173(6) 0.5039(6)
O1A O 0.3265(4) 0.4456(4) 0.5805(4)
O2A O 0.4729(4) 0.2648(4) 0.4284(4)
O3A O 0.5052(4) -0.2120(4) -0.0959(4)
O3A_2 O 0.5052(4) 0.7880(4) 0.9041(4)
O4A O 0.6314(4) 0.0167(4) 0.2426(4)
O4_2 O 0.3686(4) 0.9833(4) 0.7574(4)
O5A O 0.6703(4) -0.2935(4) 0.1150(4)
O6A O 0.3637(4) -0.2830(4) 0.1123(4)
O6A_2 O 0.3637(4) 0.7170(4) 0.1123(4)
O6_2 O 0.6363(4) -0.7170(4) -0.1123(4)
O7A O 0.9748(4) 0.6008(4) 0.1755(4)
O7_2 O 0.0252(4) 0.3992(4) -0.1755(4)
O7A_2 O 0.9748(4) -0.3992(4) 0.1755(4)
O8A O 1.1694(4) 0.4083(4) 0.1719(4)
O8A_2 O 0.1694(4) 0.4083(4) 0.1719(4)
O8_2 O 0.8306(4) -0.4083(4) -0.1719(4)
O9A O 1.1449(4) 0.6437(4) 0.4607(4)
O9A_2 O 0.1449(4) 0.6437(4) 0.4607(4)
O10A O 0.8779(4) 0.3286(4) 0.2301(4)
O10_2 O 0.1221(4) 0.6714(4) 0.7699(4)
C2 C 0.9422(7) 0.9491(7) 0.5333(8)
H1 H 0.8922 0.8133 0.4447
H2 H 1.0187 0.9681 0.6440
N1 N 0.7921(6) 1.0144(6) 0.5670(6)
H3 H 0.7275 0.9499 0.6065
H4 H 0.7198 0.9948 0.4652
H5 H 0.8372 1.1385 0.6500
C2A C 1.0578(7) 1.0509(7) 0.4667(8)
H1A H 1.1078 1.1867 0.5553
H2A H 0.9813 1.0319 0.3560
N1A N 1.2079(6) 0.9856(6) 0.4330(6)
H3A H 1.2725 1.0501 0.3935
H4A H 1.2802 1.0052 0.5348
H5A H 1.1628 0.8615 0.3500
O11 O 0.8830(13) 0.0063(11) 0.8905(11)
loop_
_geom_bond_atom_site_label_1
_geom_bond_atom_site_label_2
_geom_bond_site_symmetry_1
_geom_bond_site_symmetry_2
Ga1 O1 1_555 1_555
Ga2 O5 1_555 1_555
P1 O3 1_555 1_555
P2 O7 1_555 1_555
C1 O1 1_555 1_555
O2 C1 1_555 1_555
O3 Ga1 1_555 1_555
O4 P1 1_555 1_555
O5 P1 1_555 1_555
O6 P1 1_555 1_555
O7 Ga2_2 1_555 1_555
O8 P2 1_555 1_555
O9 Ga1 1_555 1_555
O10 P2 1_555 1_555
C2 H1 1_555 1_555
H2 C2 1_555 1_555
N1 C2 1_555 1_555
H3 N1 1_555 1_555
H4 N1 1_555 1_555
H5 N1 1_555 1_555
Ga1A O2 1_555 1_555
Ga1A_2 O4 1_555 1_555
Ga1A_3 O10 1_555 1_555
Ga2A O5A 1_555 1_555
Ga2A_2 O6 1_555 1_555
Ga2A_3 O8 1_555 1_555
Ga2_3 O6A 1_555 1_555
Ga2_4 O8A 1_555 1_555
P1A O3A 1_555 1_555
P2A O7A 1_555 1_555
C1A C1 1_555 1_555
O1A Ga1A 1_555 1_555
O2A Ga1 1_555 1_555
O3A Ga1A_2 1_555 1_555
O3A_2 Ga1A 1_555 1_555
O4A Ga1 1_555 1_555
O4_2 Ga1A 1_555 1_555
O5A P1A 1_555 1_555
O6A P1A 1_555 1_555
O6A_2 Ga2 1_555 1_555
O6_2 Ga2A 1_555 1_555
O7A Ga2A_2 1_555 1_555
O7_2 Ga2 1_555 1_555
O7A_2 Ga2A 1_555 1_555
O8A P2A 1_555 1_555
O8A_2 Ga2 1_555 1_555
O8_2 Ga2A 1_555 1_555
O9A Ga1A_3 1_555 1_555
O9A_2 Ga1A 1_555 1_555
O10A Ga1 1_555 1_555
O10_2 Ga1A 1_555 1_555
C2A C2 1_555 1_555
H1A C2A 1_555 1_555
H2A C2A 1_555 1_555
N1A C2A 1_555 1_555
H3A N1A 1_555 1_555
H4A N1A 1_555 1_555
H5A N1A 1_555 1_555
P2 O9 1_555 1_555
P1A O4A 1_555 1_555
P2A O9A 1_555 1_555
P2A O10A 1_555 1_555
C1A O1A 1_555 1_555
C1A O2A 1_555 1_555

#END
