
#######################################################################
#
#                 Cambridge Crystallographic Data Centre
#                                CCDC 
#
#######################################################################
#
# If this CIF has been generated from an entry in the Cambridge 
# Structural Database, then it will include bibliographic, chemical, 
# crystal, experimental, refinement or atomic coordinate data resulting 
# from the CCDC's data processing and validation procedures.
#
#######################################################################

data_PEJFUG
_chemical_formula_moiety         '(C2 H6 Ga4 O26 P5 3-)n'
_symmetry_cell_setting           monoclinic
_symmetry_space_group_name_H-M   'C 2/c'
_symmetry_Int_Tables_number      15
_space_group_name_Hall           '-C 2yc'
loop_
_symmetry_equiv_pos_site_id
_symmetry_equiv_pos_as_xyz
1 x,y,z
2 1/2+x,1/2+y,z
3 -x,y,1/2-z
4 1/2-x,1/2+y,1/2-z
5 -x,-y,-z
6 1/2-x,1/2-y,-z
7 x,-y,1/2+z
8 1/2+x,1/2-y,1/2+z
_cell_length_a                   20.131(5)
_cell_length_b                   15.670(4)
_cell_length_c                   9.097(2)
_cell_angle_alpha                90
_cell_angle_beta                 105.988(4)
_cell_angle_gamma                90
_cell_volume                     2758.67
loop_
_atom_site_label
_atom_site_type_symbol
_atom_site_fract_x
_atom_site_fract_y
_atom_site_fract_z
O2 O 0.4103(12) 0.9206(15) 0.226(2)
Ga1 Ga 0.16196(3) 1.13569(4) 0.33238(7)
Ga2 Ga 0.25196(5) 0.88372(5) 0.43563(8)
P1 P 0.21073(8) 0.97965(10) 0.13595(16)
P2 P 0.14413(9) 1.23309(11) 0.00449(18)
P3 P -0.0000 1.18896(17) 0.2500
C1 C 0.2198(3) 1.2757(4) 0.5113(7)
O3 O 0.1608(2) 1.2459(3) 0.4585(5)
O4 O 0.2339(2) 1.3458(3) 0.5826(5)
O5 O 0.0630(2) 1.1334(3) 0.2696(5)
O6 O 0.1697(3) 1.2136(3) 0.1726(5)
O7 O 0.1707(3) 1.0351(3) 0.2178(5)
O8 O 0.2566(3) 0.9160(3) 0.2477(5)
O9 O 0.1596(2) 0.9328(3) 0.0082(5)
O10 O 0.2625(3) 1.0308(3) 0.0745(5)
O11 O 0.1678(3) 1.1646(4) -0.0905(6)
O12 O 0.1740(3) 1.3190(3) -0.0275(5)
O13 O 0.0663(3) 1.2381(4) -0.0562(6)
O14 O 0.0073(4) 1.2489(6) 0.3867(12)
Ga1E Ga 0.33804(3) 1.36431(4) 0.66762(7)
Ga1F Ga 0.16196(3) 0.86431(4) -0.16762(7)
Ga1B Ga -0.16196(3) 1.13569(4) 0.16762(7)
Ga1F_2 Ga 0.16196(3) 0.86431(4) 0.83238(7)
Ga2F Ga 0.25196(5) 1.11628(5) 0.93563(8)
Ga2F_2 Ga 0.25196(5) 1.11628(5) -0.06437(8)
Ga2C Ga 0.24804(5) 1.38372(5) 0.06437(8)
Ga2E Ga 0.24804(5) 0.61628(5) 0.56437(8)
P1F P 0.21073(8) 1.02035(10) 0.63595(16)
P2F P 0.14413(9) 0.76691(11) 0.50449(18)
C1E C 0.2802(3) 1.2243(4) 0.4887(7)
O3E O 0.3392(2) 1.2541(3) 0.5415(5)
O4E O 0.2661(2) 1.1542(3) 0.4174(5)
O5B O -0.0630(2) 1.1334(3) 0.2304(5)
O5E O 0.4370(2) 1.3666(3) 0.7304(5)
O6F O 0.1697(3) 0.7864(3) 0.6726(5)
O6E O 0.3303(3) 1.2864(3) 0.8274(5)
O7F O 0.1707(3) 0.9649(3) 0.7178(5)
O7E O 0.3293(3) 1.4649(3) 0.7822(5)
O8F O 0.2566(3) 1.0840(3) 0.7477(5)
O9F O 0.1596(2) 1.0672(3) 0.5082(5)
O9C O 0.3404(2) 1.4328(3) 0.4918(5)
O10F O 0.2625(3) 0.9692(3) 0.5745(5)
O10_2 O 0.2625(3) 1.0308(3) 1.0745(5)
O11F O 0.1678(3) 0.8354(4) 0.4095(6)
O11_2 O 0.1678(3) 1.1646(4) 0.9095(6)
O12F O 0.1740(3) 0.6810(3) 0.4725(5)
O12C O 0.3260(3) 0.8190(3) 0.5275(5)
O12E O 0.3260(3) 1.1810(3) 1.0275(5)
O13F O 0.0663(3) 0.7619(4) 0.4438(6)
O14B O -0.0073(4) 1.2489(6) 0.1133(12)
O1 O 0.0886(13) 0.3871(14) 0.617(3)
loop_
_geom_bond_atom_site_label_1
_geom_bond_atom_site_label_2
_geom_bond_site_symmetry_1
_geom_bond_site_symmetry_2
Ga1 O3 1_555 1_555
Ga2 O8 1_555 1_555
P1 O7 1_555 1_555
P2 O6 1_555 1_555
P3 O5 1_555 1_555
C1 O3 1_555 1_555
O4 C1 1_555 1_555
O5 Ga1 1_555 1_555
O6 Ga1 1_555 1_555
O7 Ga1 1_555 1_555
O8 P1 1_555 1_555
O9 P1 1_555 1_555
O10 P1 1_555 1_555
O11 P2 1_555 1_555
O12 P2 1_555 1_555
O13 P2 1_555 1_555
O14 P3 1_555 1_555
Ga1E O4 1_555 1_555
Ga1F O9 1_555 1_555
Ga1B O5B 1_555 1_555
Ga1F_2 O6F 1_555 1_555
Ga2F O8F 1_555 1_555
Ga2F_2 O10 1_555 1_555
Ga2C O12 1_555 1_555
Ga2E O12F 1_555 1_555
P1F O7F 1_555 1_555
P2F O6F 1_555 1_555
C1E C1 1_555 1_555
O3E Ga1E 1_555 1_555
O4E Ga1 1_555 1_555
O5B P3 1_555 1_555
O5E Ga1E 1_555 1_555
O6E Ga1E 1_555 1_555
O7F Ga1F_2 1_555 1_555
O7E Ga1E 1_555 1_555
O8F P1F 1_555 1_555
O9F Ga1 1_555 1_555
O9C Ga1E 1_555 1_555
O10F Ga2 1_555 1_555
O10_2 Ga2F 1_555 1_555
O11F Ga2 1_555 1_555
O11_2 Ga2F 1_555 1_555
O12F P2F 1_555 1_555
O12C Ga2 1_555 1_555
O12E Ga2F 1_555 1_555
O13F P2F 1_555 1_555
O14B P3 1_555 1_555
O11 Ga2F_2 1_555 1_555
P1F O9F 1_555 1_555
P1F O10F 1_555 1_555
P2F O11F 1_555 1_555
C1E O3E 1_555 1_555
C1E O4E 1_555 1_555

#END
