
#######################################################################
#
#                 Cambridge Crystallographic Data Centre
#                                CCDC 
#
#######################################################################
#
# If this CIF has been generated from an entry in the Cambridge 
# Structural Database, then it will include bibliographic, chemical, 
# crystal, experimental, refinement or atomic coordinate data resulting 
# from the CCDC's data processing and validation procedures.
#
#######################################################################

data_GIQWEJ
_chemical_formula_moiety         '(C86 H66 N14 O18 Zn4)n'
_symmetry_cell_setting           monoclinic
_symmetry_space_group_name_H-M   'C 2/c'
_symmetry_Int_Tables_number      15
_space_group_name_Hall           '-C 2yc'
loop_
_symmetry_equiv_pos_site_id
_symmetry_equiv_pos_as_xyz
1 x,y,z
2 1/2+x,1/2+y,z
3 -x,y,1/2-z
4 1/2-x,1/2+y,1/2-z
5 -x,-y,-z
6 1/2-x,1/2-y,-z
7 x,-y,1/2+z
8 1/2+x,1/2-y,1/2+z
_cell_length_a                   20.1473(13)
_cell_length_b                   27.5052(18)
_cell_length_c                   32.588(2)
_cell_angle_alpha                90
_cell_angle_beta                 97.021(3)
_cell_angle_gamma                90
_cell_volume                     17923.4
loop_
_atom_site_label
_atom_site_type_symbol
_atom_site_fract_x
_atom_site_fract_y
_atom_site_fract_z
Zn2 Zn 0.26693(2) -0.487290(15) 0.124300(12)
Zn3 Zn 0.25510(2) -0.491780(16) 0.032990(13)
O5 O 0.32182(13) -0.43802(9) 0.04937(8)
O6 O 0.33768(14) -0.43606(9) 0.11778(8)
O7 O 0.68711(13) -0.04328(9) 0.04488(8)
O8 O 0.69477(11) -0.03778(8) 0.11380(7)
O9 O 0.18455(12) -0.43908(8) 0.03786(8)
O10 O 0.19891(12) -0.43397(9) 0.10603(7)
O11 O -0.17401(14) -0.04219(9) 0.04486(8)
O12 O -0.16648(12) -0.03964(8) 0.11399(8)
N4 N 0.27148(14) -0.48739(10) 0.18702(9)
N5 N 0.25242(15) -0.50849(11) 0.47030(9)
N6 N 0.4972(2) -0.24386(16) 0.06462(12)
N7 N 0.5044(2) -0.22604(17) 0.09461(12)
N8 N 0.03240(17) -0.23982(12) 0.05888(10)
N9 N 0.02075(17) -0.22086(12) 0.09192(10)
C21 C 0.3127(2) -0.45576(15) 0.21061(12)
H15 H 0.3407 -0.4348 0.1972
C22 C 0.3152(2) -0.45306(16) 0.25285(12)
H16 H 0.3434 -0.4302 0.2683
C23 C 0.27451(19) -0.48539(14) 0.27263(11)
C24 C 0.23562(18) -0.51757(14) 0.24795(11)
H17 H 0.2088 -0.5403 0.2605
C25 C 0.2344(2) -0.51790(14) 0.20612(12)
H18 H 0.2064 -0.5405 0.1902
C26 C 0.2780(2) -0.48282(16) 0.31788(12)
H19 H 0.3057 -0.4587 0.3321
C27 C 0.24380(19) -0.51295(14) 0.34014(11)
H20 H 0.2165 -0.5373 0.3260
C28 C 0.2467(2) -0.50999(14) 0.38512(12)
C29 C 0.2718(3) -0.47038(17) 0.40829(13)
H21 H 0.2895 -0.4437 0.3947
C30 C 0.2716(3) -0.46877(17) 0.44969(13)
H22 H 0.2849 -0.4399 0.4645
C31 C 0.2302(2) -0.54762(15) 0.44873(12)
H23 H 0.2156 -0.5749 0.4631
C32 C 0.2276(2) -0.54977(15) 0.40684(12)
H24 H 0.2127 -0.5786 0.3925
C33 C 0.34618(18) -0.41940(13) 0.08319(12)
C34 C 0.3873(2) -0.37498(14) 0.08099(13)
C35 C 0.3996(2) -0.35734(15) 0.04240(15)
H25 H 0.3836 -0.3747 0.0180
C36 C 0.4342(2) -0.31573(17) 0.03977(18)
H26 H 0.4415 -0.3032 0.0135
C37 C 0.4591(2) -0.29123(17) 0.07560(19)
C38 C 0.4491(2) -0.30908(17) 0.11463(17)
H27 H 0.4669 -0.2924 0.1391
C39 C 0.4123(2) -0.35197(15) 0.11688(15)
H28 H 0.4047 -0.3649 0.1429
C40 C 0.5463(2) -0.17896(15) 0.08361(17)
C41 C 0.5686(2) -0.16735(17) 0.04703(17)
H29 H 0.5575 -0.1873 0.0234
C42 C 0.6086(2) -0.12525(16) 0.04456(15)
H30 H 0.6225 -0.1151 0.0191
C43 C 0.62649(19) -0.09949(13) 0.08067(12)
C44 C 0.6015(2) -0.11190(14) 0.11675(13)
H31 H 0.6134 -0.0929 0.1409
C45 C 0.5610(2) -0.14992(15) 0.11846(14)
H32 H 0.5424 -0.1571 0.1432
C46 C 0.67308(18) -0.05667(13) 0.07940(12)
C47 C 0.17699(18) -0.41854(13) 0.07120(12)
C48 C 0.13870(18) -0.37155(13) 0.06895(11)
C49 C 0.11718(19) -0.35043(13) 0.03041(12)
H33 H 0.1256 -0.3663 0.0056
C50 C 0.08394(19) -0.30675(14) 0.02870(12)
H34 H 0.0700 -0.2920 0.0027
C51 C 0.0707(2) -0.28416(14) 0.06460(12)
C52 C 0.0919(2) -0.30546(15) 0.10284(12)
H35 H 0.0832 -0.2898 0.1276
C53 C 0.1251(2) -0.34855(14) 0.10458(12)
H36 H 0.1391 -0.3630 0.1307
C54 C -0.0200(2) -0.17885(14) 0.08637(13)
C55 C -0.0481(3) -0.16158(18) 0.04887(15)
H37 H -0.0396 -0.1776 0.0242
C56 C -0.0892(3) -0.12072(18) 0.04662(15)
H38 H -0.1086 -0.1087 0.0206
C57 C -0.10129(18) -0.09789(13) 0.08253(11)
C58 C -0.0728(2) -0.11430(15) 0.11953(14)
H39 H -0.0821 -0.0986 0.1442
C59 C -0.0290(2) -0.15488(17) 0.12194(15)
H40 H -0.0064 -0.1652 0.1478
C60 C -0.15009(19) -0.05606(14) 0.08010(12)
Zn2A Zn 0.76693(2) 0.012710(15) 0.124300(12)
Zn2A_2 Zn -0.23307(2) 0.012710(15) 0.124300(12)
Zn3F Zn 0.25510(2) -0.508220(16) 0.532990(13)
Zn3A Zn 0.75510(2) 0.008220(16) 0.032990(13)
Zn3A_2 Zn -0.24490(2) 0.008220(16) 0.032990(13)
O7A O 0.18711(13) -0.54328(9) 0.04488(8)
O8A O 0.19477(11) -0.53778(8) 0.11380(7)
O11A O 0.32599(14) -0.54219(9) 0.04486(8)
O12A O 0.33352(12) -0.53964(8) 0.11399(8)
N5F N 0.25242(15) -0.49151(11) -0.02970(9)
O13 O 0.15014(17) -0.35129(11) -0.07129(10)
N10 N 0.21714(19) -0.28513(13) -0.06799(13)
C61 C 0.2665(3) -0.30762(19) -0.03944(17)
H41 H 0.2502 -0.3393 -0.0313
H42 H 0.2760 -0.2870 -0.0149
H43 H 0.3075 -0.3121 -0.0524
C62 C 0.2309(3) -0.23768(18) -0.08300(16)
H44 H 0.1936 -0.2272 -0.1033
H45 H 0.2721 -0.2387 -0.0961
H46 H 0.2363 -0.2147 -0.0599
C63 C 0.1643(2) -0.30927(17) -0.08223(14)
H47 H 0.1337 -0.2939 -0.1027
O14 O 0.3188(4) -0.3592(2) -0.1233(2)
N11 N 0.3530(4) -0.3348(3) -0.1772(3)
C64 C 0.3311(6) -0.3847(3) -0.2016(3)
H48 H 0.3047 -0.4047 -0.1848
H49 H 0.3711 -0.4027 -0.2070
H50 H 0.3042 -0.3770 -0.2279
C65 C 0.3945(6) -0.2880(4) -0.2026(3)
H51 H 0.4019 -0.2598 -0.1842
H52 H 0.3666 -0.2785 -0.2281
H53 H 0.4376 -0.3002 -0.2093
C66 C 0.3361(6) -0.3247(4) -0.1356(4)
H54 H 0.3394 -0.2942 -0.1219
Zn1 Zn -0.00468(2) -0.526850(14) 0.203650(13)
O1 O -0.07647(12) -0.57700(9) 0.20683(7)
O2 O -0.06198(12) -0.58172(8) 0.27592(7)
O3 O -0.06960(12) -0.47349(8) 0.21552(7)
O4 O -0.07077(11) -0.47854(8) 0.28338(7)
N1 N 0.00673(13) -0.52458(10) 0.35813(8)
N2 N -0.23732(18) -0.77160(12) 0.22802(10)
N3 N -0.24614(16) -0.79138(12) 0.26041(10)
C1 C 0.04624(18) -0.55242(14) 0.38317(11)
H3 H 0.0725 -0.5762 0.3714
C2 C 0.05139(19) -0.54893(14) 0.42496(11)
H4 H 0.0830 -0.5690 0.4410
C3 C 0.01350(18) -0.51816(13) 0.44493(11)
C4 C -0.03267(18) -0.49023(13) 0.41900(11)
H5 H -0.0630 -0.4692 0.4304
C5 C -0.03312(18) -0.49400(13) 0.37626(10)
H6 H -0.0631 -0.4739 0.3590
C6 C 0.01817(19) -0.51357(14) 0.48985(10)
C7 C -0.08597(18) -0.59666(13) 0.24022(11)
C8 C -0.12688(18) -0.64153(14) 0.23780(11)
C9 C -0.1416(2) -0.66473(14) 0.27274(12)
H7 H -0.1267 -0.6510 0.2990
C10 C -0.1773(2) -0.70730(15) 0.27076(12)
H8 H -0.1867 -0.7227 0.2955
C11 C -0.1995(2) -0.72773(15) 0.23319(13)
C12 C -0.1849(3) -0.70487(17) 0.19807(14)
H9 H -0.1996 -0.7185 0.1717
C13 C -0.1494(2) -0.66264(16) 0.20092(13)
H10 H -0.1399 -0.6473 0.1762
C14 C -0.2857(2) -0.83503(14) 0.25603(12)
C15 C -0.3063(2) -0.85352(14) 0.29179(13)
H11 H -0.2938 -0.8377 0.3175
C16 C -0.34419(19) -0.89384(14) 0.29012(12)
H12 H -0.3565 -0.9068 0.3151
C17 C -0.36603(19) -0.91738(13) 0.25313(11)
C18 C -0.34359(18) -0.89883(13) 0.21746(12)
H13 H -0.3560 -0.9146 0.1917
C19 C -0.3040(2) -0.85836(14) 0.21899(13)
H14 H -0.2891 -0.8463 0.1944
C20 C -0.08792(17) -0.45982(12) 0.24792(11)
Zn1B Zn 0.00468(2) -0.526850(14) 0.296350(13)
Zn1C Zn -0.49532(2) -1.026850(14) 0.296350(13)
Zn1A Zn -0.50468(2) -1.026850(14) 0.203650(13)
Zn1F Zn -0.00468(2) -0.473150(14) 0.703650(13)
Zn1C_2 Zn -0.49532(2) -0.026850(14) 0.296350(13)
Zn1A_2 Zn -0.50468(2) -0.026850(14) 0.203650(13)
O1B O 0.07647(12) -0.57700(9) 0.29317(7)
O1C O -0.42353(12) -0.07700(9) 0.29317(7)
O2B O 0.06198(12) -0.58172(8) 0.22408(7)
O2C O -0.43802(12) -0.08172(8) 0.22408(7)
O3B O 0.06960(12) -0.47349(8) 0.28448(7)
O3C O -0.43040(12) -0.97349(8) 0.28448(7)
O4B O 0.07077(11) -0.47854(8) 0.21662(7)
O4C O -0.42923(11) -0.97854(8) 0.21662(7)
N1B N -0.00673(13) -0.52458(10) 0.14187(8)
N1D N -0.00673(13) -0.47542(10) 0.64187(8)
N2C N -0.26268(18) -0.27160(12) 0.27198(10)
N3C N -0.25386(16) -0.29138(12) 0.23959(10)
C1D C -0.04624(18) -0.44758(14) 0.61683(11)
H3D H -0.0725 -0.4238 0.6286
C2D C -0.05139(19) -0.45107(14) 0.57504(11)
H4D H -0.0830 -0.4310 0.5590
C3D C -0.01350(18) -0.48184(13) 0.55507(11)
C4D C 0.03267(18) -0.50977(13) 0.58100(11)
H5D H 0.0630 -0.5308 0.5696
C5D C 0.03312(18) -0.50600(13) 0.62374(10)
H6D H 0.0631 -0.5261 0.6410
C6D C -0.01817(19) -0.48643(14) 0.51015(10)
C7C C -0.41403(18) -0.09666(13) 0.25978(11)
C8C C -0.37312(18) -0.14153(14) 0.26220(11)
C9C C -0.3584(2) -0.16473(14) 0.22726(12)
H7C H -0.3733 -0.1510 0.2010
C10C C -0.3227(2) -0.20730(15) 0.22924(12)
H8C H -0.3133 -0.2227 0.2045
C11C C -0.3005(2) -0.22773(15) 0.26681(13)
C12C C -0.3151(3) -0.20487(17) 0.30193(14)
H9C H -0.3004 -0.2185 0.3283
C13C C -0.3506(2) -0.16264(16) 0.29908(13)
H10C H -0.3601 -0.1473 0.3238
C14C C -0.2143(2) -0.33503(14) 0.24397(12)
C15C C -0.1937(2) -0.35352(14) 0.20821(13)
H11C H -0.2062 -0.3377 0.1825
C16C C -0.15581(19) -0.39384(14) 0.20988(12)
H12C H -0.1435 -0.4068 0.1849
C17C C -0.13397(19) -0.41738(13) 0.24687(11)
C18C C -0.15641(18) -0.39883(13) 0.28254(12)
H13C H -0.1440 -0.4146 0.3083
C19C C -0.1960(2) -0.35836(14) 0.28101(13)
H14C H -0.2109 -0.3463 0.3056
C20C C -0.41208(17) -0.95982(12) 0.25208(11)
loop_
_geom_bond_atom_site_label_1
_geom_bond_atom_site_label_2
_geom_bond_site_symmetry_1
_geom_bond_site_symmetry_2
Zn1 O1 1_555 1_555
Zn2 O6 1_555 1_555
Zn3 O5 1_555 1_555
O1 C7 1_555 1_555
O2 C7 1_555 1_555
O3 Zn1 1_555 1_555
O4 C20 1_555 1_555
O5 C33 1_555 1_555
O6 C33 1_555 1_555
O7 C46 1_555 1_555
O8 C46 1_555 1_555
O9 Zn3 1_555 1_555
O10 Zn2 1_555 1_555
O11 C60 1_555 1_555
O12 C60 1_555 1_555
N1 C1 1_555 1_555
N2 N3 1_555 1_555
N3 C14 1_555 1_555
N4 Zn2 1_555 1_555
N5 C30 1_555 1_555
N6 N7 1_555 1_555
N7 C40 1_555 1_555
N8 N9 1_555 1_555
N9 C54 1_555 1_555
C1 H3 1_555 1_555
C2 C1 1_555 1_555
H4 C2 1_555 1_555
C3 C2 1_555 1_555
C4 C3 1_555 1_555
H5 C4 1_555 1_555
C5 N1 1_555 1_555
H6 C5 1_555 1_555
C6 C3 1_555 1_555
C7 C8 1_555 1_555
C8 C9 1_555 1_555
C9 H7 1_555 1_555
C10 C9 1_555 1_555
H8 C10 1_555 1_555
C11 N2 1_555 1_555
C12 C11 1_555 1_555
H9 C12 1_555 1_555
C13 C8 1_555 1_555
H10 C13 1_555 1_555
C14 C15 1_555 1_555
C15 H11 1_555 1_555
C16 C15 1_555 1_555
H12 C16 1_555 1_555
C17 C16 1_555 1_555
C18 C17 1_555 1_555
H13 C18 1_555 1_555
C19 C14 1_555 1_555
H14 C19 1_555 1_555
C20 O3 1_555 1_555
C21 N4 1_555 1_555
H15 C21 1_555 1_555
C22 C21 1_555 1_555
H16 C22 1_555 1_555
C23 C22 1_555 1_555
C24 C23 1_555 1_555
H17 C24 1_555 1_555
C25 N4 1_555 1_555
H18 C25 1_555 1_555
C26 C23 1_555 1_555
H19 C26 1_555 1_555
C27 C26 1_555 1_555
H20 C27 1_555 1_555
C28 C27 1_555 1_555
C29 C28 1_555 1_555
H21 C29 1_555 1_555
C30 C29 1_555 1_555
H22 C30 1_555 1_555
C31 N5 1_555 1_555
H23 C31 1_555 1_555
C32 C28 1_555 1_555
H24 C32 1_555 1_555
C33 C34 1_555 1_555
C34 C35 1_555 1_555
C35 H25 1_555 1_555
C36 C35 1_555 1_555
H26 C36 1_555 1_555
C37 N6 1_555 1_555
C38 C37 1_555 1_555
H27 C38 1_555 1_555
C39 C34 1_555 1_555
H28 C39 1_555 1_555
C40 C41 1_555 1_555
C41 H29 1_555 1_555
C42 C41 1_555 1_555
H30 C42 1_555 1_555
C43 C42 1_555 1_555
C44 C43 1_555 1_555
H31 C44 1_555 1_555
C45 C40 1_555 1_555
H32 C45 1_555 1_555
C46 C43 1_555 1_555
C47 O9 1_555 1_555
C48 C47 1_555 1_555
C49 C48 1_555 1_555
H33 C49 1_555 1_555
C50 C49 1_555 1_555
H34 C50 1_555 1_555
C51 N8 1_555 1_555
C52 C51 1_555 1_555
H35 C52 1_555 1_555
C53 C48 1_555 1_555
H36 C53 1_555 1_555
C54 C55 1_555 1_555
C55 H37 1_555 1_555
C56 C55 1_555 1_555
H38 C56 1_555 1_555
C57 C56 1_555 1_555
C58 C57 1_555 1_555
H39 C58 1_555 1_555
C59 C54 1_555 1_555
H40 C59 1_555 1_555
C60 C57 1_555 1_555
O13 C63 1_555 1_555
O14 C66 1_555 1_555
N10 C61 1_555 1_555
N11 C64 1_555 1_555
C61 H41 1_555 1_555
H42 C61 1_555 1_555
H43 C61 1_555 1_555
C62 N10 1_555 1_555
H44 C62 1_555 1_555
H45 C62 1_555 1_555
H46 C62 1_555 1_555
C63 N10 1_555 1_555
H47 C63 1_555 1_555
C64 H48 1_555 1_555
H49 C64 1_555 1_555
H50 C64 1_555 1_555
C65 N11 1_555 1_555
H51 C65 1_555 1_555
H52 C65 1_555 1_555
H53 C65 1_555 1_555
C66 N11 1_555 1_555
H54 C66 1_555 1_555
Zn1B O2 1_555 1_555
Zn1C O3C 1_555 1_555
Zn1A O4C 1_555 1_555
Zn1F N1D 1_555 1_555
Zn1C_2 O1C 1_555 1_555
Zn1A_2 O2C 1_555 1_555
Zn2A O8 1_555 1_555
Zn2A_2 O12 1_555 1_555
Zn3F N5 1_555 1_555
Zn3A O7 1_555 1_555
Zn3A_2 O11 1_555 1_555
O1B Zn1B 1_555 1_555
O1C C7C 1_555 1_555
O2B Zn1 1_555 1_555
O2C C7C 1_555 1_555
O3B Zn1B 1_555 1_555
O3C C20C 1_555 1_555
O4B Zn1 1_555 1_555
O4C C20C 1_555 1_555
O7A Zn3 1_555 1_555
O8A Zn2 1_555 1_555
O11A Zn3 1_555 1_555
O12A Zn2 1_555 1_555
N1B Zn1 1_555 1_555
N1D C1D 1_555 1_555
N2C N3C 1_555 1_555
N3C C14C 1_555 1_555
N5F Zn3 1_555 1_555
C1D H3D 1_555 1_555
C2D C1D 1_555 1_555
H4D C2D 1_555 1_555
C3D C2D 1_555 1_555
C4D C3D 1_555 1_555
H5D C4D 1_555 1_555
C5D N1D 1_555 1_555
H6D C5D 1_555 1_555
C6D C6 1_555 1_555
C7C C8C 1_555 1_555
C8C C9C 1_555 1_555
C9C H7C 1_555 1_555
C10C C9C 1_555 1_555
H8C C10C 1_555 1_555
C11C N2C 1_555 1_555
C12C C11C 1_555 1_555
H9C C12C 1_555 1_555
C13C C8C 1_555 1_555
H10C C13C 1_555 1_555
C14C C15C 1_555 1_555
C15C H11C 1_555 1_555
C16C C15C 1_555 1_555
H12C C16C 1_555 1_555
C17C C20 1_555 1_555
C18C C17C 1_555 1_555
H13C C18C 1_555 1_555
C19C C14C 1_555 1_555
H14C C19C 1_555 1_555
C20C C17 1_555 1_555
O4 Zn1B 1_555 1_555
O10 C47 1_555 1_555
N1 Zn1B 1_555 1_555
C4 C5 1_555 1_555
C10 C11 1_555 1_555
C12 C13 1_555 1_555
C18 C19 1_555 1_555
C24 C25 1_555 1_555
C31 C32 1_555 1_555
C36 C37 1_555 1_555
C38 C39 1_555 1_555
C44 C45 1_555 1_555
C50 C51 1_555 1_555
C52 C53 1_555 1_555
C58 C59 1_555 1_555
C3D C6D 1_555 1_555
C4D C5D 1_555 1_555
C10C C11C 1_555 1_555
C12C C13C 1_555 1_555
C16C C17C 1_555 1_555
C18C C19C 1_555 1_555

#END
