
#######################################################################
#
#                 Cambridge Crystallographic Data Centre
#                                CCDC 
#
#######################################################################
#
# If this CIF has been generated from an entry in the Cambridge 
# Structural Database, then it will include bibliographic, chemical, 
# crystal, experimental, refinement or atomic coordinate data resulting 
# from the CCDC's data processing and validation procedures.
#
#######################################################################

data_QUSHUJ
_chemical_formula_moiety         '(C202 H280 Cu6 Mn4 N16 O48 S7)n'
_symmetry_cell_setting           orthorhombic
_symmetry_space_group_name_H-M   'P 21 21 21'
_symmetry_Int_Tables_number      19
_space_group_name_Hall           'P 2ac 2ab'
loop_
_symmetry_equiv_pos_site_id
_symmetry_equiv_pos_as_xyz
1 x,y,z
2 1/2-x,-y,1/2+z
3 1/2+x,1/2-y,-z
4 -x,1/2+y,1/2-z
_cell_length_a                   27.310(6)
_cell_length_b                   28.430(6)
_cell_length_c                   30.556(6)
_cell_angle_alpha                90
_cell_angle_beta                 90
_cell_angle_gamma                90
_cell_volume                     23724.4
loop_
_atom_site_label
_atom_site_type_symbol
_atom_site_fract_x
_atom_site_fract_y
_atom_site_fract_z
_atom_site_U_iso_or_equiv
_atom_site_thermal_displace_type
Cu1 Cu 0.42036(10) 0.96441(8) 0.28246(8) 0.0885 Uani
N1 N 0.4250(6) 0.9474(5) 0.2206(5) 0.0807 Uani
O1 O 0.4102(6) 1.0278(5) 0.2628(5) 0.1050 Uani
C1 C 0.4187(7) 0.9866(7) 0.1964(7) 0.0867 Uani
C2 C 0.4325(5) 0.9045(4) 0.2020(5) 0.0897 Uani
C3 C 0.4082(7) 1.0308(7) 0.2211(7) 0.0910 Uani
O2 O 0.4188(6) 0.9872(4) 0.1543(4) 0.0957 Uani
C4 C 0.4804(4) 0.8885(4) 0.1977(6) 0.1250 Uani
C5 C 0.3938(4) 0.8770(5) 0.1871(7) 0.1383 Uani
O3 O 0.4021(6) 1.0661(5) 0.1980(6) 0.1100 Uani
Mn1 Mn 0.39542(14) 1.05340(12) 0.12896(12) 0.1042 Uani
C6 C 0.4895(4) 0.8450(5) 0.1785(7) 0.1227 Uani
C7 C 0.5276(9) 0.9197(11) 0.2113(13) 0.1793 Uani
C8 C 0.4030(4) 0.8336(5) 0.1680(8) 0.1563 Uani
C9 C 0.3382(9) 0.8911(14) 0.1904(15) 0.1843 Uani
O4 O 0.4647(5) 1.0764(5) 0.1055(5) 0.1027 Uani
O5 O 0.3860(5) 1.1289(5) 0.1182(4) 0.0873 Uani
O6 O 0.3690(6) 1.0301(6) 0.0690(6) 0.1140 Uani
O7 O 0.3166(6) 1.0485(6) 0.1393(6) 0.1153 Uani
H1 H 0.5216 0.8344 0.1757 0.1470 Uiso
C10 C 0.4509(5) 0.8176(4) 0.1637(7) 0.1433 Uani
H2 H 0.5430 0.9067 0.2372 0.2150 Uiso
H3 H 0.5179 0.9518 0.2174 0.2150 Uiso
C11 C 0.5655(12) 0.9181(14) 0.1696(16) 0.2277 Uani
H4 H 0.3771 0.8152 0.1580 0.1860 Uiso
H5 H 0.3339 0.9147 0.2130 0.2200 Uiso
H6 H 0.3188 0.8638 0.1982 0.2200 Uiso
C12 C 0.3200(18) 0.912(2) 0.1442(16) 0.2277 Uani
C13 C 0.4662(7) 1.1180(7) 0.0955(7) 0.0923 Uani
C14 C 0.4238(7) 1.1502(7) 0.0999(6) 0.0817 Uani
C15 C 0.3219(9) 1.0389(8) 0.0651(8) 0.1057 Uani
C16 C 0.2966(9) 1.0479(7) 0.1041(9) 0.1040 Uani
H7 H 0.4570 0.7885 0.1509 0.1710 Uiso
H8 H 0.5947 0.9352 0.1768 0.3410 Uiso
H9 H 0.5502 0.9322 0.1445 0.3410 Uiso
H10 H 0.5737 0.8860 0.1631 0.3410 Uiso
H11 H 0.2863 0.9211 0.1466 0.3410 Uiso
H12 H 0.3230 0.8877 0.1222 0.3410 Uiso
H13 H 0.3397 0.9382 0.1363 0.3410 Uiso
N2 N 0.5037(6) 1.1429(6) 0.0802(6) 0.0910 Uani
O8 O 0.4239(4) 1.1914(4) 0.0898(4) 0.0847 Uani
N3 N 0.2978(7) 1.0413(7) 0.0250(7) 0.1087 Uani
O9 O 0.2482(6) 1.0563(6) 0.0966(5) 0.1110 Uani
C17 C 0.5482(6) 1.1152(8) 0.0670(6) 0.1317 Uani
Cu2 Cu 0.49114(8) 1.20915(8) 0.07318(8) 0.0856 Uani
C18 C 0.3232(7) 1.0324(6) -0.0123(5) 0.1213 Uani
Cu3 Cu 0.23425(11) 1.06710(10) 0.03628(10) 0.1060 Uani
C19 C 0.5601(7) 1.1095(8) 0.0231(5) 0.1430 Uani
C20 C 0.5773(8) 1.0948(8) 0.0991(5) 0.1437 Uani
N4 N 0.4776(6) 1.2726(5) 0.0536(5) 0.0830 Uani
O10 O 0.5595(5) 1.2288(5) 0.0661(4) 0.0883 Uani
C21 C 0.3074(7) 0.9938(6) -0.0365(7) 0.1477 Uani
C22 C 0.3590(7) 1.0621(6) -0.0292(6) 0.1383 Uani
O11 O 0.2251(6) 1.0828(5) -0.0260(6) 0.1123 Uani
O12 O 0.2488(8) 1.1470(7) 0.0432(7) 0.1413 Uani
N5 N 0.1637(7) 1.0734(7) 0.0416(6) 0.1007 Uani
C23 C 0.6010(9) 1.0834(9) 0.0113(6) 0.1733 Uani
C24 C 0.5244(12) 1.1304(12) -0.0133(10) 0.1620 Uani
C25 C 0.6182(8) 1.0687(10) 0.0874(7) 0.1900 Uani
C26 C 0.5697(10) 1.1071(13) 0.1491(12) 0.1570 Uani
C27 C 0.5162(6) 1.2988(6) 0.0532(5) 0.0777 Uani
C28 C 0.4322(4) 1.2931(5) 0.0405(4) 0.0960 Uani
C29 C 0.5626(7) 1.2728(7) 0.0592(5) 0.0873 Uani
C30 C 0.3274(8) 0.9849(7) -0.0775(7) 0.1533 Uani
C31 C 0.2669(11) 0.9638(12) -0.0172(16) 0.1993 Uani
C32 C 0.3790(8) 1.0532(7) -0.0702(7) 0.1577 Uani
C33 C 0.3768(17) 1.1068(10) -0.0039(11) 0.1993 Uani
S1 S 0.2877(4) 1.1580(4) 0.0741(4) 0.1720 Uani
H14 H 0.6090 1.0796 -0.0181 0.2090 Uiso
C34 C 0.6301(8) 1.0630(10) 0.0434(8) 0.1983 Uani
H15 H 0.5092 1.1049 -0.0294 0.1930 Uiso
H16 H 0.4987 1.1487 0.0006 0.1930 Uiso
C35 C 0.5541(18) 1.1622(17) -0.0451(15) 0.2000 Uani
H17 H 0.6377 1.0551 0.1089 0.2290 Uiso
H18 H 0.5997 1.1210 0.1603 0.1890 Uiso
H19 H 0.5442 1.1307 0.1515 0.1890 Uiso
C36 C 0.5564(13) 1.0662(15) 0.1774(14) 0.1700 Uani
O13 O 0.5176(5) 1.3428(5) 0.0473(4) 0.0897 Uani
C37 C 0.4202(6) 1.2903(6) -0.0036(4) 0.1160 Uani
C38 C 0.3995(5) 1.3132(6) 0.0700(4) 0.1043 Uani
O14 O 0.6030(5) 1.2951(5) 0.0600(5) 0.0990 Uani
H20 H 0.3169 0.9591 -0.0936 0.1840 Uiso
C39 C 0.3632(9) 1.0146(8) -0.0943(5) 0.1433 Uani
H21 H 0.2762 0.9553 0.0124 0.2390 Uiso
H22 H 0.2647 0.9350 -0.0340 0.2390 Uiso
C40 C 0.2145(9) 0.9872(7) -0.0157(10) 0.1993 Uani
H23 H 0.4029 1.0730 -0.0815 0.1890 Uiso
H24 H 0.4099 1.1004 0.0060 0.2390 Uiso
H25 H 0.3566 1.1096 0.0220 0.2390 Uiso
C41 C 0.378(2) 1.1566(13) -0.0262(15) 0.1993 Uani
C42 C 0.2612(13) 1.1676(14) 0.1290(7) 0.1863 Uani
C43 C 0.3088(13) 1.2173(10) 0.0622(15) 0.1873 Uani
H26 H 0.6575 1.0455 0.0356 0.2410 Uiso
H27 H 0.5325 1.1750 -0.0669 0.3020 Uiso
H28 H 0.5791 1.1439 -0.0591 0.3020 Uiso
H29 H 0.5690 1.1874 -0.0290 0.3020 Uiso
H30 H 0.5528 1.0766 0.2071 0.2580 Uiso
H31 H 0.5817 1.0429 0.1758 0.2580 Uiso
H32 H 0.5261 1.0529 0.1674 0.2580 Uiso
Mn2 Mn 0.58800(13) 1.37101(12) 0.06438(11) 0.0965 Uani
C44 C 0.4532(12) 1.2695(12) -0.0343(7) 0.1383 Uani
C45 C 0.3755(7) 1.3076(7) -0.0183(4) 0.1383 Uani
C46 C 0.4121(9) 1.3121(8) 0.1185(9) 0.1143 Uani
C47 C 0.3549(5) 1.3305(6) 0.0553(5) 0.1237 Uani
H33 H 0.3766 1.0087 -0.1218 0.1720 Uiso
H34 H 0.1912 0.9649 -0.0047 0.2990 Uiso
H35 H 0.2052 0.9967 -0.0446 0.2990 Uiso
H36 H 0.2153 1.0142 0.0032 0.2990 Uiso
H37 H 0.3905 1.1794 -0.0060 0.2990 Uiso
H38 H 0.3451 1.1653 -0.0346 0.2990 Uiso
H39 H 0.3983 1.1555 -0.0518 0.2990 Uiso
H40 H 0.2866 1.1769 0.1489 0.2750 Uiso
H41 H 0.2464 1.1390 0.1391 0.2750 Uiso
H42 H 0.2369 1.1919 0.1274 0.2750 Uiso
H43 H 0.2815 1.2386 0.0630 0.2840 Uiso
H44 H 0.3326 1.2266 0.0836 0.2840 Uiso
H45 H 0.3234 1.2180 0.0336 0.2840 Uiso
O15 O 0.5919(6) 1.3605(5) 0.1363(5) 0.1003 Uani
O16 O 0.5634(6) 1.4387(5) 0.0910(4) 0.0993 Uani
O17 O 0.6015(5) 1.3988(5) 0.0013(4) 0.0947 Uani
O18 O 0.6646(6) 1.3884(6) 0.0676(5) 0.1027 Uani
C48 C 0.447(2) 1.275(2) -0.0844(7) 0.2243 Uani
H46 H 0.4535 1.2360 -0.0282 0.1650 Uiso
H47 H 0.4856 1.2812 -0.0272 0.1650 Uiso
C49 C 0.3429(5) 1.3277(7) 0.0112(6) 0.1353 Uani
H48 H 0.3675 1.3057 -0.0478 0.1660 Uiso
C50 C 0.4390(10) 1.3586(9) 0.1317(10) 0.1247 Uani
H49 H 0.3824 1.3087 0.1355 0.1370 Uiso
H50 H 0.4331 1.2853 0.1246 0.1370 Uiso
H51 H 0.3330 1.3440 0.0750 0.1490 Uiso
C51 C 0.5836(8) 1.3968(7) 0.1560(6) 0.0890 Uani
C52 C 0.5706(7) 1.4410(6) 0.1313(6) 0.0860 Uani
C53 C 0.6444(8) 1.4097(7) -0.0047(6) 0.0883 Uani
C54 C 0.6799(9) 1.4037(7) 0.0315(7) 0.0980 Uani
H52 H 0.4182 1.2586 -0.0937 0.3350 Uiso
H53 H 0.4753 1.2613 -0.0988 0.3350 Uiso
H54 H 0.4448 1.3074 -0.0918 0.3350 Uiso
H55 H 0.3130 1.3393 0.0014 0.1630 Uiso
H56 H 0.4182 1.3850 0.1257 0.1870 Uiso
H57 H 0.4465 1.3578 0.1624 0.1870 Uiso
H58 H 0.4688 1.3614 0.1153 0.1870 Uiso
O19 O 0.5865(6) 1.4006(4) 0.1975(4) 0.0927 Uani
N6 N 0.5696(7) 1.4788(6) 0.1562(5) 0.0910 Uani
C55 C 0.5584(6) 1.5245(4) 0.1391(6) 0.1053 Uani
C56 C 0.6311(7) 1.4343(7) -0.0789(5) 0.1207 Uani
C57 C 0.5145(6) 1.5458(5) 0.1506(6) 0.1373 Uani
C58 C 0.5903(5) 1.5470(5) 0.1104(6) 0.1143 Uani
C59 C 0.6117(8) 1.3976(6) -0.1035(6) 0.1423 Uani
C60 C 0.6210(8) 1.4806(6) -0.0903(6) 0.1500 Uani
C61 C 0.4746(12) 1.5207(10) 0.1794(10) 0.1633 Uani
C62 C 0.5024(6) 1.5895(6) 0.1335(7) 0.1373 Uani
C63 C 0.5781(6) 1.5908(5) 0.0933(6) 0.1190 Uani
C64 C 0.6409(9) 1.5289(9) 0.1031(10) 0.1427 Uani
C65 C 0.6168(12) 1.3488(13) -0.0917(11) 0.1657 Uani
C66 C 0.5823(8) 1.4073(8) -0.1395(6) 0.1657 Uani
C67 C 0.6448(11) 1.5259(10) -0.0710(8) 0.1510 Uani
C68 C 0.5915(9) 1.4903(7) -0.1263(7) 0.1630 Uani
C69 C 0.4578(9) 1.4787(10) 0.1471(13) 0.1633 Uani
H59 H 0.4475 1.5416 0.1861 0.1960 Uiso
H60 H 0.4883 1.5086 0.2064 0.1960 Uiso
C70 C 0.5342(7) 1.6120(5) 0.1049(7) 0.1327 Uani
H61 H 0.4730 1.6038 0.1413 0.1650 Uiso
H62 H 0.5994 1.6058 0.0741 0.1430 Uiso
H63 H 0.6536 1.5423 0.0761 0.1710 Uiso
H64 H 0.6396 1.4950 0.0994 0.1710 Uiso
C71 C 0.6766(13) 1.5407(14) 0.1410(12) 0.1633 Uani
H65 H 0.6325 1.3309 -0.1148 0.1970 Uiso
C72 C 0.5610(14) 1.3336(16) -0.0855(19) 0.2433 Uani
H66 H 0.6352 1.3451 -0.0648 0.1970 Uiso
C73 C 0.5722(8) 1.4536(9) -0.1509(6) 0.1633 Uani
H67 H 0.5694 1.3827 -0.1560 0.1990 Uiso
C74 C 0.6144(13) 1.5483(15) -0.0327(12) 0.2300 Uani
H68 H 0.6484 1.5489 -0.0942 0.1810 Uiso
H69 H 0.6773 1.5182 -0.0603 0.1810 Uiso
H70 H 0.5848 1.5213 -0.1340 0.1950 Uiso
H71 H 0.4443 1.4918 0.1208 0.2450 Uiso
H72 H 0.4334 1.4598 0.1614 0.2450 Uiso
H73 H 0.4856 1.4595 0.1400 0.2450 Uiso
H74 H 0.5261 1.6413 0.0935 0.1590 Uiso
H75 H 0.6792 1.5742 0.1440 0.2450 Uiso
H76 H 0.6643 1.5274 0.1677 0.2450 Uiso
H77 H 0.7082 1.5276 0.1347 0.2450 Uiso
H78 H 0.5594 1.3005 -0.0793 0.3670 Uiso
H79 H 0.5470 1.3508 -0.0616 0.3670 Uiso
H80 H 0.5431 1.3402 -0.1118 0.3670 Uiso
H81 H 0.5525 1.4600 -0.1750 0.1980 Uiso
H82 H 0.5828 1.5577 -0.0434 0.3450 Uiso
H83 H 0.6104 1.5257 -0.0097 0.3450 Uiso
H84 H 0.6314 1.5753 -0.0216 0.3450 Uiso
N5B N 0.6637(7) 1.4266(7) -0.0416(6) 0.1007 Uani
O11B O 0.7251(6) 1.4172(5) 0.0260(6) 0.1123 Uani
Cu1C Cu 0.57964(10) 1.46441(8) 0.21754(8) 0.0885 Uani
Cu3B Cu 0.73425(11) 1.43290(10) -0.03628(10) 0.1060 Uani
O9B O 0.7482(6) 1.4437(6) -0.0966(5) 0.1110 Uani
O12B O 0.7488(8) 1.3530(7) -0.0432(7) 0.1413 Uani
N3B N 0.7978(7) 1.4587(7) -0.0250(7) 0.1087 Uani
S1B S 0.7877(4) 1.3420(4) -0.0741(4) 0.1720 Uani
C42B C 0.7612(13) 1.3324(14) -0.1290(7) 0.1863 Uani
C43B C 0.8088(13) 1.2827(10) -0.0622(15) 0.1873 Uani
H40B H 0.7866 1.3231 -0.1489 0.2750 Uiso
H41B H 0.7464 1.3610 -0.1391 0.2750 Uiso
H42B H 0.7369 1.3081 -0.1274 0.2750 Uiso
H43B H 0.7815 1.2614 -0.0630 0.2840 Uiso
H44B H 0.8326 1.2734 -0.0836 0.2840 Uiso
H45B H 0.8234 1.2820 -0.0336 0.2840 Uiso
O20 O 0.9940(6) 0.8674(6) 1.0303(12) 0.2023 Uani
O21 O 0.2555(11) 1.0051(5) 0.2260(4) 0.1813 Uani
O22 O 0.3140(6) 0.7222(7) 0.5005(6) 0.1330 Uani
O23 O 0.3604(7) 0.6675(8) 0.2294(6) 0.1303 Uani
O24 O 0.4942(6) 0.9913(14) 0.5303(12) 0.2140 Uani
Mn3 Mn 0.66769(17) 0.85462(17) 0.83716(13) 0.1242 Uani
Mn4 Mn 0.82438(17) 0.82745(17) 1.15538(13) 0.1242 Uani
Cu4 Cu 0.68414(11) 1.01372(10) 0.74680(8) 0.1034 Uani
Cu5 Cu 0.74433(10) 0.81463(13) 0.99630(9) 0.1131 Uani
Cu6 Cu 0.99767(11) 0.73849(9) 1.16389(10) 0.1045 Uani
C75 C 0.6831(13) 0.9520(10) 0.8095(8) 0.1323 Uani
C76 C 0.6916(12) 0.9222(7) 0.7719(6) 0.1327 Uani
C77 C 0.7447(6) 0.9196(6) 0.6742(5) 0.1670 Uani
C78 C 0.6985(7) 0.9231(6) 0.6929(5) 0.1467 Uani
C79 C 0.6580(6) 0.9046(8) 0.6713(6) 0.2007 Uani
C80 C 0.6638(8) 0.8827(9) 0.6310(6) 0.2113 Uani
H85 H 0.6367 0.8704 0.6165 0.2560 Uiso
C81 C 0.7100(9) 0.8793(9) 0.6122(5) 0.1897 Uani
H86 H 0.7139 0.8646 0.5853 0.2240 Uiso
C82 C 0.7505(7) 0.8977(8) 0.6339(6) 0.1803 Uani
H87 H 0.7814 0.8954 0.6213 0.2130 Uiso
C83 C 0.6036(9) 0.9090(11) 0.6899(10) 0.2233 Uani
H88 H 0.6037 0.9232 0.7187 0.2680 Uiso
H89 H 0.5836 0.9281 0.6706 0.2680 Uiso
C84 C 0.7908(10) 0.9399(10) 0.6988(8) 0.1860 Uani
H90 H 0.7872 0.9360 0.7301 0.2240 Uiso
H91 H 0.8202 0.9235 0.6895 0.2240 Uiso
C85 C 0.795(2) 0.9933(12) 0.6870(13) 0.2533 Uani
H92 H 0.8223 1.0068 0.7019 0.3760 Uiso
H93 H 0.7653 1.0091 0.6960 0.3760 Uiso
H94 H 0.7988 0.9967 0.6560 0.3760 Uiso
C86 C 0.5832(18) 0.8575(14) 0.692(2) 0.2667 Uani
H95 H 0.5525 0.8574 0.7075 0.3980 Uiso
H96 H 0.6062 0.8379 0.7075 0.3980 Uiso
H97 H 0.5785 0.8456 0.6631 0.3980 Uiso
C87 C 0.5622(11) 0.8296(8) 0.8296(7) 0.1120 Uani
C88 C 0.5912(10) 0.7876(8) 0.8240(7) 0.1150 Uani
C89 C 0.5497(10) 0.6967(10) 0.7472(9) 0.1353 Uani
H98 H 0.5445 0.6692 0.7291 0.1630 Uiso
H99 H 0.5182 0.7055 0.7595 0.1630 Uiso
C90 C 0.5889(6) 0.7066(5) 0.8257(6) 0.1183 Uani
C91 C 0.6172(7) 0.6881(7) 0.8594(5) 0.1427 Uani
C92 C 0.6415(7) 0.6456(7) 0.8535(7) 0.1560 Uani
H100 H 0.6604 0.6332 0.8761 0.1870 Uiso
C93 C 0.6377(7) 0.6217(5) 0.8140(8) 0.1513 Uani
H101 H 0.6540 0.5933 0.8101 0.1820 Uiso
C94 C 0.6095(8) 0.6402(5) 0.7803(6) 0.1530 Uani
H102 H 0.6069 0.6242 0.7539 0.1840 Uiso
C95 C 0.5851(6) 0.6827(6) 0.7861(6) 0.1253 Uani
C96 C 0.568(2) 0.7379(14) 0.7172(14) 0.1900 Uani
H103 H 0.5434 0.7444 0.6954 0.2890 Uiso
H104 H 0.5978 0.7290 0.7032 0.2890 Uiso
H105 H 0.5731 0.7655 0.7347 0.2890 Uiso
C97 C 0.6218(14) 0.7176(10) 0.9026(8) 0.1620 Uani
H106 H 0.6373 0.7473 0.8952 0.1930 Uiso
H107 H 0.5889 0.7249 0.9126 0.1930 Uiso
C98 C 0.6500(13) 0.6964(17) 0.9417(11) 0.1840 Uani
H108 H 0.6504 0.7186 0.9655 0.2780 Uiso
H109 H 0.6830 0.6895 0.9330 0.2780 Uiso
H110 H 0.6342 0.6680 0.9511 0.2780 Uiso
C99 C 0.6837(8) 0.8339(9) 0.9283(8) 0.1137 Uani
C100 C 0.7327(8) 0.8266(9) 0.9088(8) 0.1120 Uani
C101 C 0.8184(5) 0.8084(6) 0.9262(7) 0.1270 Uani
C102 C 0.8488(6) 0.8473(5) 0.9219(9) 0.1773 Uani
C103 C 0.8988(6) 0.8412(6) 0.9158(9) 0.1770 Uani
H111 H 0.9192 0.8673 0.9129 0.2120 Uiso
C104 C 0.9185(5) 0.7961(7) 0.9141(9) 0.1573 Uani
H112 H 0.9520 0.7921 0.9100 0.1880 Uiso
C105 C 0.8881(7) 0.7572(6) 0.9184(9) 0.1610 Uani
H113 H 0.9012 0.7271 0.9173 0.1950 Uiso
C106 C 0.8381(7) 0.7633(5) 0.9245(8) 0.1500 Uani
C107 C 0.8028(13) 0.7216(12) 0.9389(12) 0.1773 Uani
H114 H 0.8217 0.6953 0.9500 0.2140 Uiso
H115 H 0.7806 0.7321 0.9617 0.2140 Uiso
C108 C 0.8265(8) 0.8977(7) 0.9242(15) 0.2083 Uani
H116 H 0.8513 0.9193 0.9347 0.2500 Uiso
H117 H 0.7999 0.8977 0.9452 0.2500 Uiso
C109 C 0.7732(11) 0.7065(15) 0.8970(13) 0.1840 Uani
H118 H 0.7520 0.6807 0.9041 0.2760 Uiso
H119 H 0.7956 0.6971 0.8744 0.2760 Uiso
H120 H 0.7539 0.7326 0.8868 0.2760 Uiso
C110 C 0.807(2) 0.9159(17) 0.8789(19) 0.2700 Uani
H121 H 0.7944 0.9473 0.8823 0.4020 Uiso
H122 H 0.7810 0.8956 0.8689 0.4020 Uiso
H123 H 0.8329 0.9159 0.8579 0.4020 Uiso
C111 C 0.8078(9) 0.8158(14) 1.0645(9) 0.1367 Uani
C112 C 0.7577(9) 0.8097(14) 1.0847(9) 0.1367 Uani
C113 C 0.6730(8) 0.7968(10) 1.0689(8) 0.1090 Uani
C114 C 0.6386(11) 0.8327(9) 1.0761(10) 0.1357 Uani
C115 C 0.5900(12) 0.8192(14) 1.0846(14) 0.1597 Uani
C116 C 0.5787(14) 0.7695(15) 1.0814(13) 0.1610 Uani
C117 C 0.6074(12) 0.7351(14) 1.0692(14) 0.1510 Uani
C118 C 0.6555(9) 0.7485(9) 1.0655(11) 0.1260 Uani
C119 C 0.6585(15) 0.8820(11) 1.0713(17) 0.2057 Uani
H124 H 0.6916 0.8789 1.0603 0.2460 Uiso
H125 H 0.6612 0.8948 1.1007 0.2460 Uiso
C120 C 0.6956(11) 0.7128(11) 1.0558(15) 0.1657 Uani
H126 H 0.7256 0.7254 1.0681 0.2000 Uiso
H127 H 0.6999 0.7126 1.0242 0.2000 Uiso
C121 C 0.692(2) 0.6593(14) 1.071(3) 0.2817 Uani
H128 H 0.7224 0.6436 1.0632 0.4230 Uiso
H129 H 0.6656 0.6443 1.0560 0.4230 Uiso
H130 H 0.6876 0.6578 1.1017 0.4230 Uiso
C122 C 0.633(2) 0.9214(16) 1.042(2) 0.2900 Uani
H131 H 0.6510 0.9501 1.0442 0.4370 Uiso
H132 H 0.6000 0.9267 1.0531 0.4370 Uiso
H133 H 0.6313 0.9112 1.0125 0.4370 Uiso
C123 C 0.8122(7) 0.9233(9) 1.1811(7) 0.1003 Uani
C124 C 0.8005(7) 0.8961(9) 1.2210(7) 0.1023 Uani
C125 C 0.7887(5) 0.8978(6) 1.2961(5) 0.1093 Uani
C126 C 0.8227(5) 0.8680(7) 1.3156(6) 0.1293 Uani
C127 C 0.8101(6) 0.8429(7) 1.3529(6) 0.1373 Uani
H134 H 0.8328 0.8229 1.3659 0.1650 Uiso
C128 C 0.7635(7) 0.8475(6) 1.3708(5) 0.1340 Uani
H135 H 0.7551 0.8307 1.3957 0.1610 Uiso
C129 C 0.7296(5) 0.8773(6) 1.3513(6) 0.1220 Uani
H136 H 0.6984 0.8804 1.3632 0.1460 Uiso
C130 C 0.7422(5) 0.9025(6) 1.3139(6) 0.1203 Uani
C131 C 0.7028(12) 0.9340(10) 1.2946(11) 0.1397 Uani
H137 H 0.6745 0.9147 1.2879 0.1680 Uiso
H138 H 0.7149 0.9467 1.2673 0.1680 Uiso
C132 C 0.8751(9) 0.8648(12) 1.2985(9) 0.1360 Uani
H139 H 0.8872 0.8969 1.2983 0.1620 Uiso
H140 H 0.8721 0.8557 1.2680 0.1620 Uiso
C133 C 0.9176(16) 0.835(2) 1.3166(19) 0.2400 Uani
H141 H 0.9466 0.8404 1.2996 0.3570 Uiso
H142 H 0.9091 0.8021 1.3151 0.3570 Uiso
H143 H 0.9237 0.8434 1.3465 0.3570 Uiso
C134 C 0.685(2) 0.977(2) 1.325(2) 0.2500 Uani
H144 H 0.6606 0.9949 1.3094 0.3720 Uiso
H145 H 0.7125 0.9969 1.3314 0.3720 Uiso
H146 H 0.6713 0.9650 1.3514 0.3720 Uiso
C135 C 0.9266(8) 0.8066(8) 1.1680(7) 0.0927 Uani
C136 C 0.8974(9) 0.7638(7) 1.1706(7) 0.1013 Uani
C137 C 0.9041(8) 0.6772(5) 1.1758(6) 0.1357 Uani
C138 C 0.8805(9) 0.6610(5) 1.1385(6) 0.1713 Uani
C139 C 0.8563(10) 0.6180(5) 1.1391(7) 0.1870 Uani
H147 H 0.8405 0.6072 1.1141 0.2230 Uiso
C140 C 0.8557(11) 0.5912(6) 1.1772(7) 0.2070 Uani
H148 H 0.8395 0.5625 1.1776 0.2490 Uiso
C141 C 0.8793(13) 0.6074(6) 1.2145(6) 0.2217 Uani
H149 H 0.8788 0.5895 1.2400 0.2680 Uiso
C142 C 0.9035(11) 0.6504(5) 1.2139(6) 0.2037 Uani
C143 C 0.8674(13) 0.6880(10) 1.0942(9) 0.1933 Uani
H150 H 0.8788 0.6699 1.0693 0.2320 Uiso
H151 H 0.8834 0.7184 1.0937 0.2320 Uiso
C144 C 0.8980(17) 0.6814(12) 1.2585(9) 0.2483 Uani
H152 H 0.8732 0.7053 1.2537 0.2970 Uiso
H153 H 0.8862 0.6610 1.2816 0.2970 Uiso
C145 C 0.8094(12) 0.695(2) 1.092(2) 0.2667 Uani
H154 H 0.8013 0.7133 1.0664 0.4040 Uiso
H155 H 0.7980 0.7103 1.1175 0.4040 Uiso
H156 H 0.7939 0.6645 1.0893 0.4040 Uiso
C146 C 0.946(2) 0.706(2) 1.2745(17) 0.2600 Uani
H157 H 0.9385 0.7248 1.2997 0.3920 Uiso
H158 H 0.9583 0.7255 1.2515 0.3920 Uiso
H159 H 0.9695 0.6824 1.2820 0.3920 Uiso
C147 C 0.9673(14) 0.7133(13) 1.0063(10) 0.1483 Uani
H160 H 0.9339 0.7216 1.0122 0.2210 Uiso
H161 H 0.9682 0.6868 0.9869 0.2210 Uiso
H162 H 0.9838 0.7395 0.9929 0.2210 Uiso
C148 C 1.0580(13) 0.6876(12) 1.0334(10) 0.1413 Uani
H163 H 1.0797 0.6776 1.0564 0.2110 Uiso
H164 H 1.0704 0.7159 1.0204 0.2110 Uiso
H165 H 1.0560 0.6634 1.0116 0.2110 Uiso
C149 C 0.5622(11) 1.0356(12) 0.6628(8) 0.1400 Uani
H166 H 0.5906 1.0172 0.6557 0.2120 Uiso
H167 H 0.5686 1.0681 0.6567 0.2120 Uiso
H168 H 0.5349 1.0251 0.6456 0.2120 Uiso
C150 C 0.5255(9) 1.0865(8) 0.7248(9) 0.1437 Uani
H169 H 0.5245 1.0930 0.7556 0.2160 Uiso
H170 H 0.4930 1.0885 0.7129 0.2160 Uiso
H171 H 0.5462 1.1091 0.7105 0.2160 Uiso
N7 N 0.6907(9) 0.9469(7) 0.7358(6) 0.1313 Uani
N8 N 0.5667(8) 0.7471(7) 0.8259(7) 0.1100 Uani
N9 N 0.7690(8) 0.8174(7) 0.9387(6) 0.1117 Uani
N10 N 0.7223(7) 0.8064(7) 1.0551(6) 0.1063 Uani
N11 N 0.8007(6) 0.9193(6) 1.2565(6) 0.0970 Uani
N12 N 0.9306(8) 0.7258(6) 1.1740(6) 0.1097 Uani
O25 O 0.6840(6) 0.9943(6) 0.8084(4) 0.1103 Uani
O26 O 0.6778(10) 0.9303(7) 0.8471(6) 0.1470 Uani
O27 O 0.6920(10) 0.8767(6) 0.7757(6) 0.1490 Uani
O28 O 0.5210(8) 0.8273(5) 0.8347(7) 0.1220 Uani
O29 O 0.5851(9) 0.8683(7) 0.8287(6) 0.1327 Uani
O30 O 0.6385(8) 0.7864(7) 0.8190(6) 0.1297 Uani
O31 O 0.7373(7) 0.8310(7) 0.8676(5) 0.1233 Uani
O32 O 0.6442(7) 0.8485(7) 0.9045(5) 0.1237 Uani
O33 O 0.6812(6) 0.8251(7) 0.9698(5) 0.1147 Uani
O34 O 0.8076(6) 0.8196(10) 1.0211(6) 0.1450 Uani
O35 O 0.8422(6) 0.8266(10) 1.0864(6) 0.1450 Uani
O36 O 0.7546(6) 0.8075(9) 1.1245(6) 0.1450 Uani
O37 O 0.7980(5) 0.8507(6) 1.2183(5) 0.1020 Uani
O38 O 0.8161(6) 0.9030(7) 1.1453(5) 0.1170 Uani
O39 O 0.8159(6) 0.9691(7) 1.1846(5) 0.1087 Uani
O40 O 0.8530(6) 0.7614(6) 1.1747(6) 0.1133 Uani
O41 O 0.9028(6) 0.8449(5) 1.1662(5) 0.1017 Uani
O42 O 0.9754(5) 0.8033(5) 1.1667(5) 0.0947 Uani
O43 O 0.9997(7) 0.7418(6) 1.0858(6) 0.1230 Uani
O44 O 0.5946(7) 1.0258(7) 0.7465(5) 0.1307 Uani
S2 S 0.9972(3) 0.6986(3) 1.0561(2) 0.1267 Uani
S3 S 0.5490(4) 1.0292(4) 0.7160(3) 0.1660 Uani
Cu4A Cu 0.81586(11) 0.98628(10) 1.24680(8) 0.1034 Uani
Cu6B Cu 0.49767(11) 0.76151(9) 0.83611(10) 0.1045 Uani
N8B N 1.0667(8) 0.7529(7) 1.1741(7) 0.1100 Uani
N11A N 0.6993(6) 1.0807(6) 0.7565(6) 0.0970 Uani
O28B O 1.0210(8) 0.6727(5) 1.1653(7) 0.1220 Uani
O39A O 0.6841(6) 1.0309(7) 0.6846(5) 0.1087 Uani
C151 C 0.3960(9) 1.1446(9) 0.2843(8) 0.1100 Uani
H172 H 0.4105 1.1418 0.3128 0.1660 Uiso
H173 H 0.3912 1.1139 0.2720 0.1660 Uiso
H174 H 0.3650 1.1603 0.2867 0.1660 Uiso
C152 C 0.4729(7) 1.1420(7) 0.2426(8) 0.0950 Uani
H175 H 0.4924 1.1359 0.2681 0.1420 Uiso
H176 H 0.4924 1.1580 0.2211 0.1420 Uiso
H177 H 0.4614 1.1127 0.2308 0.1420 Uiso
C153 C 0.4053(9) 1.1751(8) 0.2120(9) 0.1183 Uani
H178 H 0.4262 1.1914 0.1918 0.1770 Uiso
H179 H 0.3748 1.1916 0.2146 0.1770 Uiso
H180 H 0.3992 1.1438 0.2014 0.1770 Uiso
C154 C 0.4459(8) 1.2197(7) 0.2707(8) 0.0957 Uani
H181 H 0.4675 1.2309 0.2473 0.1150 Uiso
C155 C 0.4779(13) 1.2182(10) 0.3102(11) 0.1520 Uani
H182 H 0.5028 1.1948 0.3062 0.2260 Uiso
H183 H 0.4586 1.2106 0.3354 0.2260 Uiso
H184 H 0.4930 1.2484 0.3143 0.2260 Uiso
C156 C 0.4045(5) 1.2563(5) 0.2720(5) 0.0977 Uani
C157 C 0.3972(6) 1.2846(5) 0.2354(4) 0.1083 Uani
H185 H 0.4175 1.2814 0.2112 0.1300 Uiso
C158 C 0.3597(6) 1.3176(5) 0.2352(5) 0.1207 Uani
H186 H 0.3549 1.3366 0.2108 0.1450 Uiso
C159 C 0.3294(5) 1.3224(5) 0.2715(6) 0.1223 Uani
H187 H 0.3043 1.3445 0.2713 0.1470 Uiso
C160 C 0.3367(6) 1.2941(6) 0.3080(5) 0.1290 Uani
H188 H 0.3164 1.2973 0.3323 0.1550 Uiso
C161 C 0.3742(6) 1.2610(5) 0.3083(4) 0.1140 Uani
H189 H 0.3790 1.2421 0.3327 0.1370 Uiso
N13 N 0.4293(6) 1.1727(5) 0.2551(6) 0.0897 Uani
C162 C 0.2557 0.9313 0.3594 0.1297 Uani
H190 H 0.2287 0.9526 0.3625 0.1950 Uiso
H191 H 0.2769 0.9420 0.3365 0.1950 Uiso
H192 H 0.2736 0.9299 0.3865 0.1950 Uiso
C163 C 0.2202 0.8585 0.3889 0.1523 Uani
H193 H 0.2082 0.8279 0.3809 0.2290 Uiso
H194 H 0.1944 0.8760 0.4027 0.2290 Uiso
H195 H 0.2471 0.8552 0.4089 0.2290 Uiso
C164 C 0.1896 0.8980 0.3204 0.1653 Uani
H196 H 0.1732 0.8700 0.3108 0.2500 Uiso
H197 H 0.1996 0.9162 0.2954 0.2500 Uiso
H198 H 0.1678 0.9164 0.3382 0.2500 Uiso
C165 C 0.2869 0.8634 0.3470 0.2107 Uani
H199 H 0.3102 0.8797 0.3661 0.2530 Uiso
C166 C 0.2894(9) 0.8085(5) 0.3517(8) 0.2713 Uani
C167 C 0.3132(9) 0.7890(7) 0.3876(9) 0.3200 Uani
H200 H 0.3286 0.8084 0.4078 0.3860 Uiso
C168 C 0.3140(7) 0.7404(7) 0.3931(11) 0.3400 Uani
H201 H 0.3299 0.7274 0.4171 0.4110 Uiso
C169 C 0.2910(10) 0.7115(5) 0.3628(13) 0.3300 Uani
H202 H 0.2915 0.6790 0.3665 0.3990 Uiso
C170 C 0.2672(13) 0.7310(5) 0.3269(11) 0.2933 Uani
H203 H 0.2518 0.7116 0.3066 0.3520 Uiso
C171 C 0.2664(11) 0.7795(5) 0.3214(7) 0.2633 Uani
H204 H 0.2505 0.7926 0.2974 0.3180 Uiso
C172 C 0.3009(16) 0.8677(9) 0.2953(9) 0.2667 Uani
H205 H 0.3084 0.8998 0.2885 0.4000 Uiso
H206 H 0.2736 0.8575 0.2779 0.4000 Uiso
H207 H 0.3288 0.8483 0.2892 0.4000 Uiso
N14 N 0.2370 0.8840 0.3486 0.1400 Uani
C173 C 0.4063(10) 0.7466(13) 0.3292(9) 0.1357 Uani
H208 H 0.3952 0.7305 0.3550 0.2030 Uiso
H209 H 0.4069 0.7250 0.3051 0.2030 Uiso
H210 H 0.3845 0.7721 0.3227 0.2030 Uiso
C174 C 0.4650(12) 0.7936(10) 0.2852(8) 0.1243 Uani
H211 H 0.4965 0.8081 0.2821 0.1870 Uiso
H212 H 0.4398 0.8170 0.2823 0.1870 Uiso
H213 H 0.4609 0.7701 0.2629 0.1870 Uiso
O45 O 0.4946(6) 0.7280(5) 0.3373(6) 0.1053 Uani
S4 S 0.4607(2) 0.7668(2) 0.33754(19) 0.1047 Uani
C175 C 0.4222(16) 0.9156(14) 1.0612(12) 0.1667 Uani
H214 H 0.4086 0.8846 1.0582 0.2500 Uiso
H215 H 0.4097 0.9354 1.0383 0.2500 Uiso
H216 H 0.4131 0.9285 1.0891 0.2500 Uiso
C176 C 0.4951(19) 0.9750(15) 1.0630(16) 0.1907 Uani
H217 H 0.5296 0.9813 1.0616 0.2850 Uiso
H218 H 0.4824 0.9855 1.0906 0.2850 Uiso
H219 H 0.4788 0.9913 1.0397 0.2850 Uiso
O46 O 0.4909(10) 0.9077(8) 1.0098(7) 0.1493 Uani
S5 S 0.4849(5) 0.9126(3) 1.0574(3) 0.1553 Uani
C177 C 0.7814(15) 0.7491(13) 1.2712(18) 0.1943 Uani
H220 H 0.8159 0.7521 1.2656 0.2890 Uiso
H221 H 0.7753 0.7529 1.3019 0.2890 Uiso
H222 H 0.7640 0.7729 1.2552 0.2890 Uiso
C178 C 0.7111(9) 0.6848(11) 1.2567(10) 0.1533 Uani
H223 H 0.7027 0.6530 1.2493 0.2300 Uiso
H224 H 0.6949 0.7060 1.2370 0.2300 Uiso
H225 H 0.7007 0.6913 1.2862 0.2300 Uiso
O47 O 0.7589(11) 0.6921(10) 1.1985(12) 0.1913 Uani
S6 S 0.7604(3) 0.6906(3) 1.2536(4) 0.1620 Uani
N15 N 0.5261 0.9550 0.9064 0.2243 Uani
C179 C 0.5669(10) 0.9270(12) 0.9235(13) 0.2533 Uani
H226 H 0.5786 0.9061 0.9012 0.3820 Uiso
H227 H 0.5559 0.9090 0.9482 0.3820 Uiso
H228 H 0.5929 0.9476 0.9325 0.3820 Uiso
C180 C 0.5041 0.9904 0.9424 0.2133 Uani
H229 H 0.4781 1.0084 0.9296 0.3210 Uiso
H230 H 0.5294 1.0112 0.9523 0.3210 Uiso
H231 H 0.4917 0.9727 0.9667 0.3210 Uiso
C181 C 0.4804 0.9229 0.8917 0.2200 Uani
H232 H 0.4550 0.9426 0.8801 0.3330 Uiso
H233 H 0.4681 0.9060 0.9166 0.3330 Uiso
H234 H 0.4908 0.9009 0.8697 0.3330 Uiso
C182 C 0.5410 0.9781 0.8581 0.2363 Uani
H235 H 0.5538 0.9531 0.8391 0.2840 Uiso
C183 C 0.5018 1.0062 0.8325 0.2667 Uani
C184 C 0.4793 0.9805 0.7994 0.3200 Uani
H236 H 0.4876 0.9491 0.7951 0.3840 Uiso
C185 C 0.4445 1.0019 0.7727 0.3567 Uani
H237 H 0.4294 0.9848 0.7505 0.4270 Uiso
C186 C 0.4323 1.0488 0.7792 0.3800 Uani
H238 H 0.4090 1.0631 0.7614 0.4550 Uiso
C187 C 0.4547 1.0744 0.8123 0.3600 Uani
H239 H 0.4465 1.1058 0.8166 0.4300 Uiso
C188 C 0.4894 1.0531 0.8390 0.3133 Uani
H240 H 0.5044 1.0703 0.8612 0.3790 Uiso
C189 C 0.5829(19) 1.0135(19) 0.8680(16) 0.2600 Uani
H241 H 0.6114 0.9967 0.8775 0.3910 Uiso
H242 H 0.5726 1.0348 0.8906 0.3910 Uiso
H243 H 0.5905 1.0311 0.8420 0.3910 Uiso
C190 C 0.6688(11) 1.0605(11) 0.5363(13) 0.2367 Uani
H244 H 0.6820 1.0645 0.5074 0.3570 Uiso
H245 H 0.6900 1.0754 0.5572 0.3570 Uiso
H246 H 0.6369 1.0745 0.5378 0.3570 Uiso
C191 C 0.7207(9) 0.9896(13) 0.5487(8) 0.1943 Uani
H247 H 0.7176 0.9576 0.5601 0.2320 Uiso
C192 C 0.7494(10) 0.9850(12) 0.5069(7) 0.1713 Uani
C193 C 0.7500(12) 0.9423(10) 0.4846(9) 0.1880 Uani
H248 H 0.7364 0.9157 0.4973 0.2250 Uiso
C194 C 0.7709(15) 0.9396(12) 0.4432(10) 0.2267 Uani
H249 H 0.7713 0.9111 0.4283 0.2720 Uiso
C195 C 0.7913(16) 0.9795(15) 0.4241(8) 0.2567 Uani
H250 H 0.8053 0.9776 0.3964 0.3100 Uiso
C196 C 0.7907(15) 1.0221(12) 0.4464(12) 0.2633 Uani
H251 H 0.8043 1.0487 0.4336 0.3130 Uiso
C197 C 0.7698(12) 1.0248(10) 0.4878(11) 0.2200 Uani
H252 H 0.7694 1.0533 0.5027 0.2660 Uiso
C198 C 0.6394(9) 0.9985(16) 0.5874(8) 0.2297 Uani
H253 H 0.6362 0.9650 0.5899 0.3450 Uiso
H254 H 0.6074 1.0126 0.5873 0.3450 Uiso
H255 H 0.6578 1.0103 0.6118 0.3450 Uiso
C199 C 0.6362(14) 0.9840(16) 0.5072(9) 0.1923 Uani
H256 H 0.6324 0.9513 0.5142 0.2900 Uiso
H257 H 0.6543 0.9871 0.4805 0.2900 Uiso
H258 H 0.6044 0.9981 0.5037 0.2900 Uiso
C200 C 0.7510(9) 1.0170(18) 0.5834(10) 0.2267 Uani
H259 H 0.7323 1.0198 0.6098 0.3440 Uiso
H260 H 0.7586 1.0478 0.5724 0.3440 Uiso
H261 H 0.7809 1.0003 0.5893 0.3440 Uiso
N16 N 0.6651(10) 1.0102(13) 0.5462(8) 0.2083 Uani
loop_
_atom_site_aniso_label
_atom_site_aniso_U_11
_atom_site_aniso_U_22
_atom_site_aniso_U_33
_atom_site_aniso_U_23
_atom_site_aniso_U_13
_atom_site_aniso_U_12
Cu1 0.1002(16) 0.0719(13) 0.0935(15) 0.0047(10) 0.0151(12) 0.0030(11)
N1 0.080(8) 0.070(5) 0.092(6) 0.006(4) -0.001(6) 0.006(5)
O1 0.125(11) 0.076(6) 0.114(6) 0.009(5) -0.002(7) 0.013(6)
C1 0.075(10) 0.080(6) 0.105(6) 0.013(5) -0.001(7) 0.011(6)
C2 0.099(8) 0.069(7) 0.101(10) 0.002(6) -0.007(7) 0.017(5)
C3 0.082(11) 0.076(6) 0.115(7) 0.012(5) -0.005(7) 0.010(7)
O2 0.119(9) 0.069(6) 0.099(6) 0.016(5) -0.006(6) 0.023(6)
C4 0.107(8) 0.101(9) 0.167(17) -0.053(11) -0.028(9) 0.027(7)
C5 0.106(9) 0.099(10) 0.21(2) -0.051(12) -0.020(10) 0.016(7)
O3 0.119(10) 0.083(6) 0.128(7) 0.023(5) -0.017(7) 0.015(6)
Mn1 0.102(2) 0.0867(19) 0.124(2) 0.0269(17) -0.0232(19) 0.0138(16)
C6 0.114(10) 0.098(10) 0.156(18) -0.048(11) -0.020(11) 0.029(8)
C7 0.117(12) 0.131(16) 0.29(3) -0.080(17) -0.034(13) 0.027(11)
C8 0.121(10) 0.108(11) 0.24(3) -0.067(14) -0.036(12) 0.030(8)
C9 0.113(12) 0.150(19) 0.29(3) -0.079(18) -0.023(12) 0.024(11)
O4 0.096(7) 0.090(6) 0.122(9) 0.023(6) -0.014(6) 0.026(5)
O5 0.079(6) 0.084(6) 0.099(7) 0.010(5) -0.007(5) 0.015(5)
O6 0.104(7) 0.105(8) 0.133(8) 0.020(7) -0.014(6) 0.027(6)
O7 0.105(8) 0.120(10) 0.121(7) 0.033(7) -0.026(6) 0.008(7)
C10 0.121(11) 0.099(11) 0.21(2) -0.066(14) -0.042(12) 0.032(8)
C11 0.143(15) 0.24(3) 0.30(2) -0.047(18) -0.030(13) 0.041(15)
C12 0.143(15) 0.24(3) 0.30(2) -0.047(18) -0.030(13) 0.041(15)
C13 0.085(7) 0.086(7) 0.106(11) 0.016(7) -0.005(7) 0.030(5)
C14 0.075(7) 0.079(6) 0.091(9) 0.014(6) -0.016(6) 0.016(5)
C15 0.097(8) 0.090(11) 0.130(7) 0.020(8) -0.015(6) 0.015(8)
C16 0.090(7) 0.099(12) 0.123(7) 0.027(8) -0.021(6) 0.010(7)
N2 0.076(6) 0.090(8) 0.107(9) 0.019(7) -0.010(6) 0.036(5)
O8 0.069(7) 0.078(5) 0.107(8) 0.017(5) 0.000(6) 0.015(5)
N3 0.103(9) 0.099(10) 0.124(7) 0.009(7) -0.010(6) 0.042(8)
O9 0.090(6) 0.140(11) 0.103(9) 0.037(8) -0.017(6) 0.005(7)
C17 0.102(10) 0.136(15) 0.157(11) 0.036(9) 0.014(8) 0.067(11)
Cu2 0.0758 0.0866 0.0945 0.0131 0.0002 0.0207
C18 0.133(13) 0.099(10) 0.132(10) 0.010(8) 0.003(8) 0.045(9)
Cu3 0.1028 0.1078 0.1075 -0.0017 -0.0226 0.0254
C19 0.139(14) 0.131(16) 0.159(11) 0.026(10) 0.029(9) 0.060(13)
C20 0.101(12) 0.145(16) 0.185(12) 0.057(11) 0.000(10) 0.053(12)
N4 0.084(6) 0.080(6) 0.085(8) -0.014(6) 0.004(6) -0.021(5)
O10 0.077(6) 0.096(6) 0.092(7) 0.003(6) 0.005(6) -0.023(5)
C21 0.180(16) 0.109(11) 0.154(13) -0.009(10) 0.017(11) 0.023(11)
C22 0.152(15) 0.121(11) 0.142(12) 0.004(9) 0.016(11) 0.026(10)
O11 0.102(7) 0.116(10) 0.119(8) 0.003(7) 0.018(6) 0.029(7)
O12 0.121(11) 0.121(9) 0.182(13) 0.004(9) 0.036(10) 0.023(8)
N5 0.098(8) 0.108(10) 0.096(6) 0.010(6) 0.027(5) 0.011(7)
C23 0.150(17) 0.17(2) 0.200(17) 0.033(14) 0.045(13) 0.081(17)
C24 0.184(19) 0.15(2) 0.152(15) 0.006(13) 0.017(13) 0.078(16)
C25 0.137(16) 0.21(2) 0.223(17) 0.063(16) 0.023(13) 0.091(19)
C26 0.115(17) 0.168(18) 0.188(14) 0.060(12) 0.003(12) 0.045(15)
C27 0.087(6) 0.089(6) 0.057(7) -0.004(6) 0.017(6) -0.014(5)
C28 0.092(8) 0.086(10) 0.110(8) -0.029(7) -0.005(6) -0.017(7)
C29 0.080(6) 0.096(6) 0.086(10) -0.001(7) 0.014(6) -0.013(5)
C30 0.169(19) 0.140(16) 0.151(13) -0.014(12) 0.005(12) 0.022(13)
C31 0.231(16) 0.164(11) 0.203(14) -0.025(10) 0.044(12) -0.021(11)
C32 0.171(19) 0.150(16) 0.152(14) -0.013(11) 0.021(13) 0.014(14)
C33 0.231(16) 0.164(11) 0.203(14) -0.025(10) 0.044(12) -0.021(11)
S1 0.157(7) 0.146(6) 0.213(9) 0.025(6) 0.044(7) 0.037(5)
C34 0.16(2) 0.21(3) 0.225(18) 0.061(16) 0.036(14) 0.09(2)
C35 0.23(3) 0.20(3) 0.17(2) 0.04(2) 0.03(2) 0.05(3)
C36 0.12(2) 0.19(2) 0.20(2) 0.08(2) -0.025(18) 0.009(19)
O13 0.098(7) 0.090(5) 0.081(6) -0.006(5) 0.023(5) -0.010(5)
C37 0.135(12) 0.105(12) 0.108(8) -0.033(8) -0.020(7) -0.027(10)
C38 0.096(9) 0.097(11) 0.120(9) -0.025(7) 0.005(7) -0.014(8)
O14 0.082(6) 0.104(7) 0.111(8) 0.015(6) 0.024(6) -0.006(5)
C39 0.164(18) 0.136(15) 0.130(14) -0.010(11) 0.015(13) 0.027(13)
C40 0.231(16) 0.164(11) 0.203(14) -0.025(10) 0.044(12) -0.021(11)
C41 0.231(16) 0.164(11) 0.203(14) -0.025(10) 0.044(12) -0.021(11)
C42 0.16(2) 0.18(3) 0.219(17) 0.056(15) 0.028(15) 0.01(2)
C43 0.13(2) 0.152(15) 0.28(3) 0.020(17) 0.04(2) 0.028(14)
Mn2 0.096(2) 0.098(2) 0.0954(19) 0.0066(15) 0.0271(16) 0.0038(16)
C44 0.142(16) 0.16(2) 0.113(11) -0.008(11) -0.024(10) -0.026(15)
C45 0.141(13) 0.139(18) 0.135(12) -0.033(11) -0.024(9) -0.038(12)
C46 0.088(12) 0.125(13) 0.130(10) -0.007(9) 0.004(9) -0.032(10)
C47 0.109(11) 0.116(14) 0.146(11) -0.025(11) -0.005(9) -0.022(10)
O15 0.125(10) 0.078(6) 0.098(6) 0.009(5) 0.034(6) 0.000(6)
O16 0.116(9) 0.096(7) 0.086(5) -0.005(5) 0.019(6) -0.011(6)
O17 0.094(6) 0.099(8) 0.091(6) 0.009(6) 0.020(5) 0.009(6)
O18 0.097(7) 0.120(9) 0.091(6) 0.008(6) 0.017(5) 0.024(6)
C48 0.26(4) 0.30(5) 0.113(13) -0.014(15) -0.022(14) -0.14(4)
C49 0.132(14) 0.132(17) 0.142(12) -0.030(11) -0.023(10) -0.023(12)
C50 0.113(15) 0.130(14) 0.131(16) 0.001(12) 0.009(12) -0.032(11)
C51 0.109(12) 0.075(6) 0.083(6) 0.002(5) 0.023(7) -0.003(7)
C52 0.093(11) 0.080(6) 0.085(6) 0.001(5) 0.021(6) -0.005(6)
C53 0.097(7) 0.082(9) 0.086(6) 0.019(6) 0.024(5) 0.014(7)
C54 0.100(7) 0.100(11) 0.094(7) 0.011(7) 0.018(5) 0.026(7)
O19 0.120(10) 0.076(6) 0.082(5) 0.003(4) 0.018(6) -0.009(6)
N6 0.106(10) 0.077(5) 0.090(6) -0.003(5) 0.014(6) -0.007(6)
C55 0.118(10) 0.085(8) 0.113(11) -0.011(7) 0.007(8) -0.012(7)
C56 0.118(11) 0.152(11) 0.092(9) 0.001(8) 0.029(8) -0.002(9)
C57 0.131(9) 0.117(9) 0.164(13) -0.026(8) 0.024(9) -0.027(7)
C58 0.126(10) 0.095(9) 0.122(12) -0.013(9) 0.016(9) -0.017(8)
C59 0.139(15) 0.168(12) 0.120(12) 0.021(10) 0.018(11) 0.011(11)
C60 0.157(18) 0.162(11) 0.131(13) -0.011(9) -0.015(13) -0.003(10)
C61 0.148(10) 0.155(12) 0.187(14) -0.034(10) 0.020(9) -0.016(9)
C62 0.131(9) 0.117(9) 0.164(13) -0.026(8) 0.024(9) -0.027(7)
C63 0.122(12) 0.099(10) 0.136(15) -0.023(10) 0.000(11) 0.001(9)
C64 0.135(11) 0.128(15) 0.165(16) -0.033(13) 0.045(10) -0.021(10)
C65 0.151(19) 0.166(14) 0.18(2) 0.016(13) 0.024(17) 0.003(13)
C66 0.17(2) 0.193(16) 0.134(14) 0.012(12) 0.006(14) 0.005(14)
C67 0.15(2) 0.166(15) 0.137(16) -0.014(12) -0.001(14) 0.005(14)
C68 0.18(2) 0.174(16) 0.135(15) -0.024(11) -0.030(15) -0.009(14)
C69 0.148(10) 0.155(12) 0.187(14) -0.034(10) 0.020(9) -0.016(9)
C70 0.135(13) 0.112(12) 0.151(17) -0.037(12) 0.009(12) -0.018(10)
C71 0.148(10) 0.155(12) 0.187(14) -0.034(10) 0.020(9) -0.016(9)
C72 0.17(2) 0.18(3) 0.38(7) 0.00(3) 0.06(3) 0.010(19)
C73 0.16(2) 0.197(16) 0.133(16) -0.005(12) 0.002(14) 0.007(15)
C74 0.23(4) 0.24(4) 0.22(3) 0.05(3) 0.08(3) 0.06(3)
N5B 0.098(8) 0.108(10) 0.096(6) 0.010(6) 0.027(5) 0.011(7)
O11B 0.102(7) 0.116(10) 0.119(8) 0.003(7) 0.018(6) 0.029(7)
Cu1C 0.1002(16) 0.0719(13) 0.0935(15) 0.0047(10) 0.0151(12) 0.0030(11)
Cu3B 0.1028(19) 0.1078(18) 0.1075(18) 0.0017(14) 0.0226(14) 0.0254(15)
O9B 0.09 0.14 0.103 -0.037 0.017 0.005
O12B 0.121(11) 0.121(9) 0.182(13) 0.004(9) 0.036(10) 0.023(8)
N3B 0.103 0.099 0.124 -0.009 0.01 0.042
S1B 0.157(7) 0.146(6) 0.213(9) 0.025(6) 0.044(7) 0.037(5)
C42B 0.16(2) 0.18(3) 0.219(17) 0.056(15) 0.028(15) 0.01(2)
C43B 0.13(2) 0.152(15) 0.28(3) 0.020(17) 0.04(2) 0.028(14)
O20 0.072(9) 0.105(11) 0.43(4) 0.144(19) 0.073(16) 0.016(8)
O21 0.41(4) 0.069(8) 0.065(7) 0.016(6) 0.059(13) 0.121(14)
O22 0.078(8) 0.195(17) 0.126(11) 0.090(12) 0.046(8) 0.044(10)
O23 0.125(13) 0.166(16) 0.100(10) 0.025(10) -0.007(9) -0.038(12)
O24 0.042(8) 0.32(4) 0.28(3) 0.08(3) 0.007(12) 0.003(13)
Mn3 0.128(2) 0.146(2) 0.0987(16) -0.0063(14) 0.0096(14) -0.0468(17)
Mn4 0.128(2) 0.146(2) 0.0987(16) -0.0063(14) 0.0096(14) -0.0468(17)
Cu4 0.1057(19) 0.121(2) 0.0835(15) -0.0349(13) 0.0086(13) -0.0332(15)
Cu5 0.0788(16) 0.161(2) 0.0996(17) -0.0331(16) 0.0250(13) -0.0405(16)
Cu6 0.120(2) 0.0850(16) 0.1084(18) 0.0046(12) 0.0242(15) -0.0097(14)
C75 0.172(19) 0.134(8) 0.091(7) -0.029(6) 0.027(9) -0.053(9)
C76 0.179(19) 0.126(8) 0.093(7) -0.026(6) 0.034(9) -0.053(9)
C77 0.235(16) 0.159(18) 0.107(11) -0.036(12) 0.061(10) -0.064(13)
C78 0.231(16) 0.115(13) 0.094(9) -0.035(9) 0.048(9) -0.070(11)
C79 0.253(17) 0.22(2) 0.129(14) -0.083(16) 0.031(11) -0.088(15)
C80 0.28(2) 0.22(3) 0.134(15) -0.082(18) 0.038(13) -0.089(18)
C81 0.29(2) 0.16(2) 0.119(15) -0.036(15) 0.051(13) -0.074(17)
C82 0.28(2) 0.16(2) 0.101(11) -0.036(12) 0.066(12) -0.065(16)
C83 0.26(2) 0.24(3) 0.17(2) -0.11(2) 0.028(16) -0.099(17)
C84 0.210(19) 0.21(2) 0.138(16) -0.096(17) 0.090(13) -0.056(16)
C85 0.28(5) 0.23(2) 0.25(4) -0.05(2) 0.04(4) -0.08(2)
C86 0.26(4) 0.24(3) 0.30(5) -0.11(3) 0.08(4) -0.10(3)
C87 0.153(10) 0.106(7) 0.077(10) 0.009(8) -0.018(9) -0.021(7)
C88 0.134(9) 0.114(7) 0.097(12) 0.015(8) -0.010(9) -0.021(7)
C89 0.122(15) 0.119(14) 0.165(15) -0.013(11) 0.005(12) 0.000(12)
C90 0.088(11) 0.103(9) 0.164(12) 0.029(8) 0.006(9) -0.006(8)
C91 0.121(15) 0.124(12) 0.183(13) 0.036(9) -0.004(11) 0.012(11)
C92 0.130(17) 0.129(13) 0.209(18) 0.031(11) 0.005(14) 0.021(13)
C93 0.118(16) 0.124(14) 0.212(18) 0.023(12) 0.023(13) 0.013(12)
C94 0.119(16) 0.134(13) 0.206(17) 0.012(11) 0.024(13) 0.014(11)
C95 0.089(11) 0.116(11) 0.171(12) 0.015(8) 0.019(9) -0.007(9)
C96 0.23(4) 0.16(2) 0.18(2) 0.02(2) -0.03(2) -0.05(3)
C97 0.15(2) 0.141(17) 0.195(15) 0.021(12) -0.007(14) 0.011(15)
C98 0.18(3) 0.19(3) 0.182(19) 0.015(18) 0.004(18) 0.06(3)
C99 0.114(8) 0.130(13) 0.097(7) -0.020(8) 0.018(6) -0.050(8)
C100 0.120(8) 0.117(12) 0.099(7) -0.019(7) 0.025(5) -0.051(8)
C101 0.110(9) 0.149(10) 0.122(13) -0.031(10) 0.041(8) -0.039(7)
C102 0.120(11) 0.152(12) 0.26(3) -0.044(13) 0.085(13) -0.044(9)
C103 0.124(12) 0.167(14) 0.24(3) -0.037(16) 0.080(14) -0.035(10)
C104 0.130(14) 0.172(14) 0.17(2) -0.051(15) 0.039(14) -0.023(11)
C105 0.139(12) 0.164(15) 0.18(2) -0.044(15) 0.025(13) -0.022(10)
C106 0.132(11) 0.154(11) 0.164(19) -0.047(11) 0.019(11) -0.031(9)
C107 0.134(18) 0.158(16) 0.24(3) -0.020(16) 0.011(16) -0.030(14)
C108 0.117(17) 0.158(14) 0.35(4) -0.031(16) 0.08(2) -0.050(12)
C109 0.112(19) 0.17(2) 0.27(3) -0.06(2) -0.01(2) 0.013(17)
C110 0.20(4) 0.22(4) 0.39(5) 0.01(3) 0.05(3) -0.04(3)
C111 0.080(6) 0.217(16) 0.113(5) -0.024(7) 0.014(4) -0.041(7)
C112 0.080(6) 0.217(16) 0.113(5) -0.024(7) 0.014(4) -0.041(7)
C113 0.080(8) 0.132(10) 0.115(12) 0.017(9) 0.014(7) -0.015(6)
C114 0.117(10) 0.147(11) 0.143(17) 0.047(10) 0.046(11) 0.016(8)
C115 0.116(12) 0.173(14) 0.19(2) 0.057(15) 0.039(12) 0.017(10)
C116 0.135(14) 0.178(14) 0.17(2) 0.070(14) 0.004(14) 0.008(11)
C117 0.102(11) 0.161(14) 0.19(2) 0.047(14) -0.012(12) -0.021(9)
C118 0.097(10) 0.130(10) 0.151(17) 0.019(10) -0.009(10) -0.023(7)
C119 0.20(2) 0.147(13) 0.27(3) 0.036(14) 0.10(2) 0.007(13)
C120 0.144(16) 0.153(15) 0.20(3) 0.021(15) 0.008(17) 0.004(12)
C121 0.24(4) 0.185(19) 0.42(7) 0.08(3) 0.18(5) 0.04(2)
C122 0.26(4) 0.25(3) 0.36(6) 0.12(4) 0.15(4) 0.08(3)
C123 0.061(9) 0.139(8) 0.101(7) 0.022(6) -0.004(7) -0.026(8)
C124 0.080(11) 0.128(8) 0.099(7) 0.014(6) 0.002(7) -0.026(8)
C125 0.106(9) 0.115(12) 0.107(9) 0.040(9) 0.023(7) -0.015(8)
C126 0.120(10) 0.141(15) 0.127(12) 0.052(12) 0.027(9) 0.005(10)
C127 0.162(14) 0.124(15) 0.126(13) 0.043(12) 0.041(11) 0.012(12)
C128 0.158(13) 0.114(14) 0.130(14) 0.037(12) 0.050(11) -0.003(11)
C129 0.143(13) 0.096(12) 0.127(12) 0.018(10) 0.043(10) -0.012(10)
C130 0.114(10) 0.113(12) 0.134(12) 0.034(10) 0.036(9) -0.008(9)
C131 0.119(13) 0.122(14) 0.178(19) 0.043(14) 0.031(12) 0.003(11)
C132 0.113(11) 0.17(2) 0.125(16) 0.049(16) 0.016(10) 0.010(11)
C133 0.17(2) 0.31(5) 0.24(4) 0.13(4) 0.02(2) 0.07(3)
C134 0.22(4) 0.23(3) 0.30(4) -0.05(3) -0.02(4) 0.09(3)
C135 0.096(7) 0.098(7) 0.084(10) -0.012(7) 0.005(7) -0.025(5)
C136 0.104(7) 0.103(7) 0.097(11) -0.026(7) 0.022(7) -0.031(5)
C137 0.160(15) 0.092(9) 0.155(12) -0.034(8) 0.053(11) -0.032(9)
C138 0.20(2) 0.140(14) 0.174(14) -0.043(10) 0.040(14) -0.063(14)
C139 0.23(3) 0.137(15) 0.194(18) -0.046(12) 0.032(18) -0.076(17)
C140 0.23(3) 0.171(19) 0.22(2) -0.019(15) 0.05(2) -0.05(2)
C141 0.28(3) 0.175(17) 0.21(2) 0.010(14) 0.03(2) -0.07(2)
C142 0.26(3) 0.172(15) 0.179(14) 0.014(11) 0.037(15) -0.062(17)
C143 0.26(3) 0.152(18) 0.168(16) -0.044(13) 0.019(18) -0.07(2)
C144 0.34(4) 0.21(3) 0.195(19) -0.003(17) 0.04(2) -0.04(3)
C145 0.26(3) 0.23(4) 0.31(5) -0.01(4) -0.01(2) -0.07(3)
C146 0.37(5) 0.25(5) 0.16(3) 0.00(3) 0.04(3) -0.08(4)
C147 0.17(2) 0.15(2) 0.125(13) 0.000(13) -0.010(13) 0.038(17)
C148 0.161(14) 0.15(2) 0.113(15) -0.035(15) -0.007(11) 0.007(13)
C149 0.14(2) 0.16(2) 0.120(11) -0.009(11) -0.017(11) -0.005(17)
C150 0.140(18) 0.169(15) 0.122(17) 0.001(13) 0.023(14) -0.021(13)
N7 0.190(16) 0.117(8) 0.087(6) -0.033(6) 0.033(8) -0.048(9)
N8 0.112(10) 0.100(7) 0.118(11) 0.026(7) -0.028(8) 0.001(6)
N9 0.108(7) 0.126(11) 0.101(7) -0.024(7) 0.033(5) -0.046(7)
N10 0.081(6) 0.129(11) 0.109(7) -0.018(7) 0.016(5) -0.029(7)
N11 0.083(9) 0.107(9) 0.101(6) 0.029(6) 0.005(6) -0.034(7)
N12 0.124(8) 0.100(7) 0.105(10) -0.012(7) 0.032(7) -0.024(6)
O25 0.119(10) 0.137(7) 0.075(6) -0.032(6) 0.016(6) -0.052(8)
O26 0.208(16) 0.140(9) 0.093(7) -0.025(6) 0.027(8) -0.063(9)
O27 0.214(17) 0.126(7) 0.107(8) -0.023(6) 0.039(9) -0.051(9)
O28 0.152(9) 0.074(7) 0.140(12) 0.013(8) -0.020(9) -0.013(7)
O29 0.177(10) 0.118(7) 0.103(9) -0.005(7) -0.001(8) -0.039(7)
O30 0.136(8) 0.133(9) 0.120(10) 0.006(8) -0.005(8) -0.034(7)
O31 0.139(9) 0.134(10) 0.097(6) -0.016(6) 0.029(6) -0.054(8)
O32 0.118(8) 0.154(11) 0.099(7) -0.010(7) 0.023(6) -0.038(8)
O33 0.099(7) 0.148(11) 0.097(6) -0.015(6) 0.019(5) -0.048(7)
O34 0.086(5) 0.234(11) 0.115(5) -0.026(5) 0.013(4) -0.042(5)
O35 0.086(5) 0.234(11) 0.115(5) -0.026(5) 0.013(4) -0.042(5)
O36 0.086(5) 0.234(11) 0.115(5) -0.026(5) 0.013(4) -0.042(5)
O37 0.075(7) 0.129(7) 0.102(7) 0.014(6) 0.005(6) -0.022(6)
O38 0.085(8) 0.164(9) 0.102(7) 0.012(6) 0.004(7) -0.019(7)
O39 0.090(9) 0.143(8) 0.093(8) 0.025(6) 0.000(7) -0.022(7)
O40 0.106(7) 0.114(8) 0.120(9) -0.029(7) 0.014(7) -0.037(6)
O41 0.096(7) 0.102(6) 0.107(8) -0.012(6) -0.002(6) -0.022(5)
O42 0.091(6) 0.090(7) 0.103(8) 0.003(6) 0.008(6) -0.023(5)
O43 0.134(12) 0.129(10) 0.106(8) -0.005(7) 0.028(8) 0.006(9)
O44 0.132(11) 0.164(14) 0.096(8) -0.008(9) 0.005(8) -0.031(10)
S2 0.162(6) 0.113(4) 0.105(4) 0.008(3) 0.004(4) 0.011(4)
S3 0.160(7) 0.195(8) 0.143(6) -0.010(6) -0.012(5) -0.018(6)
Cu4A 0.1057 0.121 0.0835 0.0349 -0.0086 -0.0332
Cu6B 0.12 0.085 0.1084 0.0046 -0.0242 0.0097
N8B 0.112 0.1 0.118 0.026 0.028 -0.001
N11A 0.083 0.107 0.101 -0.029 -0.005 -0.034
O28B 0.152 0.074 0.14 0.013 0.02 0.013
O39A 0.09 0.143 0.093 -0.025 0 -0.022
C151 0.102(12) 0.110(12) 0.118(12) -0.014(9) 0.008(10) -0.028(10)
C152 0.072(9) 0.093(10) 0.120(13) -0.005(9) -0.004(8) 0.001(7)
C153 0.113(13) 0.109(13) 0.133(11) -0.005(9) -0.007(9) 0.000(11)
C154 0.086(9) 0.085(7) 0.116(10) -0.005(7) 0.009(7) -0.004(6)
C155 0.17(2) 0.117(16) 0.169(18) -0.035(14) -0.057(18) 0.026(15)
C156 0.097(10) 0.079(8) 0.117(10) 0.001(7) 0.018(7) -0.004(7)
C157 0.111(12) 0.095(10) 0.119(11) 0.013(8) 0.025(9) 0.013(9)
C158 0.113(12) 0.089(11) 0.160(14) 0.016(10) 0.026(10) 0.013(10)
C159 0.116(13) 0.083(11) 0.168(14) -0.007(9) 0.030(10) -0.017(9)
C160 0.105(12) 0.110(13) 0.172(15) 0.004(10) 0.048(11) -0.001(10)
C161 0.118(12) 0.090(11) 0.134(11) -0.009(9) 0.035(10) -0.005(9)
N13 0.078(7) 0.066(6) 0.125(9) -0.009(6) 0.011(6) 0.006(5)
C162 0.118(16) 0.142(13) 0.129(17) -0.018(11) 0.001(13) -0.040(11)
C163 0.135(18) 0.161(19) 0.161(16) -0.010(14) 0.012(13) -0.045(15)
C164 0.156(17) 0.18(2) 0.160(19) -0.033(17) -0.005(15) -0.034(16)
C165 0.164(15) 0.208(17) 0.26(2) -0.025(16) 0.037(14) -0.022(13)
C166 0.29(3) 0.224(19) 0.30(3) -0.029(18) 0.04(2) -0.003(17)
C167 0.39(4) 0.24(3) 0.33(4) -0.03(2) 0.00(3) 0.02(3)
C168 0.43(5) 0.25(3) 0.34(4) -0.04(2) 0.01(4) 0.02(3)
C169 0.41(5) 0.26(3) 0.32(4) -0.04(2) 0.04(4) 0.01(3)
C170 0.34(5) 0.24(2) 0.30(4) -0.04(2) 0.07(3) -0.02(2)
C171 0.26(4) 0.24(2) 0.29(3) -0.04(2) 0.07(3) -0.02(2)
C172 0.25(4) 0.28(4) 0.27(3) -0.03(2) 0.07(2) -0.01(3)
N14 0.138(12) 0.135(12) 0.147(13) -0.026(10) 0.009(10) -0.059(10)
C173 0.120(11) 0.18(2) 0.107(14) -0.028(14) -0.004(10) 0.004(11)
C174 0.145(18) 0.122(14) 0.106(11) -0.018(10) 0.016(11) 0.036(13)
O45 0.094(8) 0.095(8) 0.127(10) -0.009(7) 0.006(7) -0.009(6)
S4 0.110(4) 0.108(4) 0.096(3) -0.019(3) 0.001(3) 0.013(3)
C175 0.200(15) 0.16(2) 0.14(2) -0.007(18) 0.024(13) 0.034(13)
C176 0.23(3) 0.152(15) 0.19(3) -0.024(15) 0.04(2) 0.019(16)
O46 0.176(17) 0.141(13) 0.131(10) -0.006(9) 0.027(10) 0.021(13)
S5 0.199(9) 0.128(5) 0.139(5) 0.005(4) 0.012(6) 0.041(6)
C177 0.18(3) 0.163(19) 0.24(3) -0.006(19) 0.03(2) -0.06(2)
C178 0.095(10) 0.125(18) 0.24(2) -0.005(18) 0.003(12) -0.019(11)
O47 0.167(19) 0.160(18) 0.247(15) -0.022(13) 0.032(13) -0.041(16)
S6 0.117(5) 0.135(6) 0.234(10) -0.004(6) 0.009(6) -0.020(5)
N15 0.35(3) 0.154(18) 0.169(17) 0.037(13) 0.112(19) 0.023(17)
C179 0.37(4) 0.19(3) 0.20(3) 0.06(2) 0.12(2) 0.05(2)
C180 0.33(4) 0.15(2) 0.16(2) 0.039(16) 0.07(2) 0.04(2)
C181 0.35(4) 0.13(2) 0.18(2) 0.031(17) 0.12(2) 0.021(19)
C182 0.37(3) 0.17(2) 0.169(18) 0.049(15) 0.096(19) -0.033(19)
C183 0.40(4) 0.19(2) 0.21(2) 0.039(18) 0.06(2) -0.03(2)
C184 0.46(5) 0.23(3) 0.27(3) 0.01(2) 0.00(3) -0.02(3)
C185 0.51(5) 0.25(3) 0.31(4) 0.00(3) -0.05(4) 0.00(3)
C186 0.54(5) 0.26(3) 0.34(4) -0.02(3) -0.09(4) 0.02(4)
C187 0.53(5) 0.23(3) 0.32(4) 0.00(3) -0.08(4) 0.02(3)
C188 0.47(5) 0.19(2) 0.28(4) 0.00(2) -0.04(4) 0.00(3)
C189 0.38(4) 0.21(3) 0.19(3) 0.02(3) 0.10(3) -0.04(3)
C190 0.18(3) 0.32(3) 0.21(3) -0.047(19) 0.03(2) -0.077(18)
C191 0.146(14) 0.29(2) 0.147(14) -0.045(15) -0.003(11) -0.087(15)
C192 0.150(18) 0.22(2) 0.144(15) -0.009(13) -0.005(13) -0.043(16)
C193 0.20(3) 0.22(2) 0.144(17) -0.009(14) -0.012(17) -0.042(18)
C194 0.26(4) 0.25(3) 0.170(19) -0.006(18) 0.02(2) -0.03(2)
C195 0.32(4) 0.25(3) 0.20(2) 0.007(19) 0.07(2) -0.03(3)
C196 0.31(4) 0.26(3) 0.22(2) 0.003(19) 0.09(2) -0.05(3)
C197 0.22(3) 0.23(2) 0.21(2) -0.001(17) 0.05(2) -0.05(2)
C198 0.17(2) 0.36(4) 0.159(17) -0.05(2) 0.005(15) -0.10(2)
C199 0.14(2) 0.30(3) 0.137(16) -0.023(19) 0.011(14) -0.11(2)
C200 0.15(2) 0.33(5) 0.20(2) -0.08(3) -0.008(18) -0.07(3)
N16 0.152(14) 0.32(3) 0.153(15) -0.052(17) 0.008(11) -0.082(16)
loop_
_geom_bond_atom_site_label_1
_geom_bond_atom_site_label_2
_geom_bond_site_symmetry_1
_geom_bond_site_symmetry_2
Cu1 N1 1_555 1_555
N1 C1 1_555 1_555
O1 Cu1 1_555 1_555
C1 C3 1_555 1_555
C2 N1 1_555 1_555
C3 O1 1_555 1_555
O2 C1 1_555 1_555
C4 C2 1_555 1_555
C5 C2 1_555 1_555
O3 C3 1_555 1_555
Mn1 O2 1_555 1_555
C6 C4 1_555 1_555
C7 C4 1_555 1_555
C8 C5 1_555 1_555
C9 C5 1_555 1_555
O4 Mn1 1_555 1_555
O5 Mn1 1_555 1_555
O6 Mn1 1_555 1_555
O7 Mn1 1_555 1_555
H1 C6 1_555 1_555
C10 C6 1_555 1_555
H2 C7 1_555 1_555
H3 C7 1_555 1_555
C11 C7 1_555 1_555
H4 C8 1_555 1_555
H5 C9 1_555 1_555
H6 C9 1_555 1_555
C12 C9 1_555 1_555
C13 O4 1_555 1_555
C14 O5 1_555 1_555
C15 O6 1_555 1_555
C16 O7 1_555 1_555
H7 C10 1_555 1_555
H8 C11 1_555 1_555
H9 C11 1_555 1_555
H10 C11 1_555 1_555
H11 C12 1_555 1_555
H12 C12 1_555 1_555
H13 C12 1_555 1_555
N2 C13 1_555 1_555
O8 C14 1_555 1_555
N3 C15 1_555 1_555
O9 C16 1_555 1_555
C17 N2 1_555 1_555
Cu2 N2 1_555 1_555
C18 N3 1_555 1_555
Cu3 N3 1_555 1_555
C19 C17 1_555 1_555
C20 C17 1_555 1_555
N4 Cu2 1_555 1_555
O10 Cu2 1_555 1_555
C21 C18 1_555 1_555
C22 C18 1_555 1_555
O11 Cu3 1_555 1_555
O12 Cu3 1_555 1_555
N5 Cu3 1_555 1_555
C23 C19 1_555 1_555
C24 C19 1_555 1_555
C25 C20 1_555 1_555
C26 C20 1_555 1_555
C27 N4 1_555 1_555
C28 N4 1_555 1_555
C29 O10 1_555 1_555
C30 C21 1_555 1_555
C31 C21 1_555 1_555
C32 C22 1_555 1_555
C33 C22 1_555 1_555
S1 O12 1_555 1_555
H14 C23 1_555 1_555
C34 C23 1_555 1_555
H15 C24 1_555 1_555
H16 C24 1_555 1_555
C35 C24 1_555 1_555
H17 C25 1_555 1_555
H18 C26 1_555 1_555
H19 C26 1_555 1_555
C36 C26 1_555 1_555
O13 C27 1_555 1_555
C37 C28 1_555 1_555
C38 C28 1_555 1_555
O14 C29 1_555 1_555
H20 C30 1_555 1_555
C39 C30 1_555 1_555
H21 C31 1_555 1_555
H22 C31 1_555 1_555
C40 C31 1_555 1_555
H23 C32 1_555 1_555
H24 C33 1_555 1_555
H25 C33 1_555 1_555
C41 C33 1_555 1_555
C42 S1 1_555 1_555
C43 S1 1_555 1_555
H26 C34 1_555 1_555
H27 C35 1_555 1_555
H28 C35 1_555 1_555
H29 C35 1_555 1_555
H30 C36 1_555 1_555
H31 C36 1_555 1_555
H32 C36 1_555 1_555
Mn2 O13 1_555 1_555
C44 C37 1_555 1_555
C45 C37 1_555 1_555
C46 C38 1_555 1_555
C47 C38 1_555 1_555
H33 C39 1_555 1_555
H34 C40 1_555 1_555
H35 C40 1_555 1_555
H36 C40 1_555 1_555
H37 C41 1_555 1_555
H38 C41 1_555 1_555
H39 C41 1_555 1_555
H40 C42 1_555 1_555
H41 C42 1_555 1_555
H42 C42 1_555 1_555
H43 C43 1_555 1_555
H44 C43 1_555 1_555
H45 C43 1_555 1_555
O15 Mn2 1_555 1_555
O16 Mn2 1_555 1_555
O17 Mn2 1_555 1_555
O18 Mn2 1_555 1_555
C48 C44 1_555 1_555
H46 C44 1_555 1_555
H47 C44 1_555 1_555
C49 C45 1_555 1_555
H48 C45 1_555 1_555
C50 C46 1_555 1_555
H49 C46 1_555 1_555
H50 C46 1_555 1_555
H51 C47 1_555 1_555
C51 O15 1_555 1_555
C52 O16 1_555 1_555
C53 O17 1_555 1_555
C54 O18 1_555 1_555
H52 C48 1_555 1_555
H53 C48 1_555 1_555
H54 C48 1_555 1_555
H55 C49 1_555 1_555
H56 C50 1_555 1_555
H57 C50 1_555 1_555
H58 C50 1_555 1_555
O19 C51 1_555 1_555
N6 C52 1_555 1_555
C55 N6 1_555 1_555
C56 C59 1_555 1_555
C57 C55 1_555 1_555
C58 C55 1_555 1_555
C59 C65 1_555 1_555
C60 C56 1_555 1_555
C61 C57 1_555 1_555
C62 C57 1_555 1_555
C63 C58 1_555 1_555
C64 C58 1_555 1_555
C65 H65 1_555 1_555
C66 C59 1_555 1_555
C67 C60 1_555 1_555
C68 C60 1_555 1_555
C69 C61 1_555 1_555
H59 C61 1_555 1_555
H60 C61 1_555 1_555
C70 C62 1_555 1_555
H61 C62 1_555 1_555
H62 C63 1_555 1_555
H63 C64 1_555 1_555
H64 C64 1_555 1_555
C71 C64 1_555 1_555
C72 C65 1_555 1_555
H66 C65 1_555 1_555
C73 C66 1_555 1_555
H67 C66 1_555 1_555
C74 C67 1_555 1_555
H68 C67 1_555 1_555
H69 C67 1_555 1_555
H70 C68 1_555 1_555
H71 C69 1_555 1_555
H72 C69 1_555 1_555
H73 C69 1_555 1_555
H74 C70 1_555 1_555
H75 C71 1_555 1_555
H76 C71 1_555 1_555
H77 C71 1_555 1_555
H78 C72 1_555 1_555
H79 C72 1_555 1_555
H80 C72 1_555 1_555
H81 C73 1_555 1_555
H82 C74 1_555 1_555
H83 C74 1_555 1_555
H84 C74 1_555 1_555
Mn3 O26 1_555 1_555
Mn4 O35 1_555 1_555
Cu4 N7 1_555 1_555
Cu5 N9 1_555 1_555
Cu6 N12 1_555 1_555
C75 C76 1_555 1_555
C76 N7 1_555 1_555
C77 C78 1_555 1_555
C78 C79 1_555 1_555
C79 C80 1_555 1_555
C80 H85 1_555 1_555
C81 C80 1_555 1_555
H86 C81 1_555 1_555
C82 C77 1_555 1_555
H87 C82 1_555 1_555
C83 C79 1_555 1_555
H88 C83 1_555 1_555
H89 C83 1_555 1_555
C84 C77 1_555 1_555
H90 C84 1_555 1_555
H91 C84 1_555 1_555
C85 C84 1_555 1_555
H92 C85 1_555 1_555
H93 C85 1_555 1_555
H94 C85 1_555 1_555
C86 C83 1_555 1_555
H95 C86 1_555 1_555
H96 C86 1_555 1_555
H97 C86 1_555 1_555
C87 C88 1_555 1_555
C88 N8 1_555 1_555
C89 H98 1_555 1_555
H99 C89 1_555 1_555
C90 C91 1_555 1_555
C91 C92 1_555 1_555
C92 H100 1_555 1_555
C93 C92 1_555 1_555
H101 C93 1_555 1_555
C94 C93 1_555 1_555
H102 C94 1_555 1_555
C95 C89 1_555 1_555
C96 C89 1_555 1_555
H103 C96 1_555 1_555
H104 C96 1_555 1_555
H105 C96 1_555 1_555
C97 C91 1_555 1_555
H106 C97 1_555 1_555
H107 C97 1_555 1_555
C98 C97 1_555 1_555
H108 C98 1_555 1_555
H109 C98 1_555 1_555
H110 C98 1_555 1_555
C99 C100 1_555 1_555
C100 N9 1_555 1_555
C101 C102 1_555 1_555
C102 C103 1_555 1_555
C103 H111 1_555 1_555
C104 C103 1_555 1_555
H112 C104 1_555 1_555
C105 C104 1_555 1_555
H113 C105 1_555 1_555
C106 C101 1_555 1_555
C107 C106 1_555 1_555
H114 C107 1_555 1_555
H115 C107 1_555 1_555
C108 C102 1_555 1_555
H116 C108 1_555 1_555
H117 C108 1_555 1_555
C109 C107 1_555 1_555
H118 C109 1_555 1_555
H119 C109 1_555 1_555
H120 C109 1_555 1_555
C110 C108 1_555 1_555
H121 C110 1_555 1_555
H122 C110 1_555 1_555
H123 C110 1_555 1_555
C111 C112 1_555 1_555
C112 N10 1_555 1_555
C113 C114 1_555 1_555
C114 C115 1_555 1_555
C115 C116 1_555 1_555
C116 C117 1_555 1_555
C117 C118 1_555 1_555
C118 C113 1_555 1_555
C119 C114 1_555 1_555
H124 C119 1_555 1_555
H125 C119 1_555 1_555
C120 C118 1_555 1_555
H126 C120 1_555 1_555
H127 C120 1_555 1_555
C121 C120 1_555 1_555
H128 C121 1_555 1_555
H129 C121 1_555 1_555
H130 C121 1_555 1_555
C122 C119 1_555 1_555
H131 C122 1_555 1_555
H132 C122 1_555 1_555
H133 C122 1_555 1_555
C123 C124 1_555 1_555
C124 N11 1_555 1_555
C125 C126 1_555 1_555
C126 C127 1_555 1_555
C127 H134 1_555 1_555
C128 C127 1_555 1_555
H135 C128 1_555 1_555
C129 C128 1_555 1_555
H136 C129 1_555 1_555
C130 C125 1_555 1_555
C131 C130 1_555 1_555
H137 C131 1_555 1_555
H138 C131 1_555 1_555
C132 C126 1_555 1_555
H139 C132 1_555 1_555
H140 C132 1_555 1_555
C133 C132 1_555 1_555
H141 C133 1_555 1_555
H142 C133 1_555 1_555
H143 C133 1_555 1_555
C134 C131 1_555 1_555
H144 C134 1_555 1_555
H145 C134 1_555 1_555
H146 C134 1_555 1_555
C135 C136 1_555 1_555
C136 N12 1_555 1_555
C137 C138 1_555 1_555
C138 C139 1_555 1_555
C139 H147 1_555 1_555
C140 C139 1_555 1_555
H148 C140 1_555 1_555
C141 C140 1_555 1_555
H149 C141 1_555 1_555
C142 C137 1_555 1_555
C143 C138 1_555 1_555
H150 C143 1_555 1_555
H151 C143 1_555 1_555
C144 C142 1_555 1_555
H152 C144 1_555 1_555
H153 C144 1_555 1_555
C145 C143 1_555 1_555
H154 C145 1_555 1_555
H155 C145 1_555 1_555
H156 C145 1_555 1_555
C146 C144 1_555 1_555
H157 C146 1_555 1_555
H158 C146 1_555 1_555
H159 C146 1_555 1_555
C147 H160 1_555 1_555
H161 C147 1_555 1_555
H162 C147 1_555 1_555
C148 H163 1_555 1_555
H164 C148 1_555 1_555
H165 C148 1_555 1_555
C149 H166 1_555 1_555
H167 C149 1_555 1_555
H168 C149 1_555 1_555
C150 H169 1_555 1_555
H170 C150 1_555 1_555
H171 C150 1_555 1_555
N7 C78 1_555 1_555
N8 C90 1_555 1_555
N9 C101 1_555 1_555
N10 Cu5 1_555 1_555
N11 C125 1_555 1_555
N12 C137 1_555 1_555
O25 Cu4 1_555 1_555
O26 C75 1_555 1_555
O27 Mn3 1_555 1_555
O28 C87 1_555 1_555
O29 Mn3 1_555 1_555
O30 Mn3 1_555 1_555
O31 Mn3 1_555 1_555
O32 Mn3 1_555 1_555
O33 Cu5 1_555 1_555
O34 Cu5 1_555 1_555
O35 C111 1_555 1_555
O36 Mn4 1_555 1_555
O37 Mn4 1_555 1_555
O38 Mn4 1_555 1_555
O39 C123 1_555 1_555
O40 Mn4 1_555 1_555
O41 Mn4 1_555 1_555
O42 Cu6 1_555 1_555
O43 Cu6 1_555 1_555
O44 Cu4 1_555 1_555
S2 C147 1_555 1_555
S3 C149 1_555 1_555
C151 H172 1_555 1_555
H173 C151 1_555 1_555
H174 C151 1_555 1_555
C152 H175 1_555 1_555
H176 C152 1_555 1_555
H177 C152 1_555 1_555
C153 H178 1_555 1_555
H179 C153 1_555 1_555
H180 C153 1_555 1_555
C154 H181 1_555 1_555
C155 C154 1_555 1_555
H182 C155 1_555 1_555
H183 C155 1_555 1_555
H184 C155 1_555 1_555
C156 C154 1_555 1_555
C157 C156 1_555 1_555
H185 C157 1_555 1_555
C158 C157 1_555 1_555
H186 C158 1_555 1_555
C159 C158 1_555 1_555
H187 C159 1_555 1_555
C160 C159 1_555 1_555
H188 C160 1_555 1_555
C161 C156 1_555 1_555
H189 C161 1_555 1_555
N13 C151 1_555 1_555
C162 H190 1_555 1_555
H191 C162 1_555 1_555
H192 C162 1_555 1_555
C163 H193 1_555 1_555
H194 C163 1_555 1_555
H195 C163 1_555 1_555
C164 H196 1_555 1_555
H197 C164 1_555 1_555
H198 C164 1_555 1_555
C165 H199 1_555 1_555
C166 C165 1_555 1_555
C167 C166 1_555 1_555
H200 C167 1_555 1_555
C168 C167 1_555 1_555
H201 C168 1_555 1_555
C169 C168 1_555 1_555
H202 C169 1_555 1_555
C170 C169 1_555 1_555
H203 C170 1_555 1_555
C171 C166 1_555 1_555
H204 C171 1_555 1_555
C172 C165 1_555 1_555
H205 C172 1_555 1_555
H206 C172 1_555 1_555
H207 C172 1_555 1_555
N14 C162 1_555 1_555
C173 H208 1_555 1_555
H209 C173 1_555 1_555
H210 C173 1_555 1_555
C174 H211 1_555 1_555
H212 C174 1_555 1_555
H213 C174 1_555 1_555
O45 S4 1_555 1_555
S4 C173 1_555 1_555
C175 H214 1_555 1_555
H215 C175 1_555 1_555
H216 C175 1_555 1_555
C176 H217 1_555 1_555
H218 C176 1_555 1_555
H219 C176 1_555 1_555
O46 S5 1_555 1_555
S5 C175 1_555 1_555
C177 H220 1_555 1_555
H221 C177 1_555 1_555
H222 C177 1_555 1_555
C178 H223 1_555 1_555
H224 C178 1_555 1_555
H225 C178 1_555 1_555
O47 S6 1_555 1_555
S6 C177 1_555 1_555
N15 C179 1_555 1_555
C179 H226 1_555 1_555
H227 C179 1_555 1_555
H228 C179 1_555 1_555
C180 N15 1_555 1_555
H229 C180 1_555 1_555
H230 C180 1_555 1_555
H231 C180 1_555 1_555
C181 N15 1_555 1_555
H232 C181 1_555 1_555
H233 C181 1_555 1_555
H234 C181 1_555 1_555
C182 N15 1_555 1_555
H235 C182 1_555 1_555
C183 C182 1_555 1_555
C184 C183 1_555 1_555
H236 C184 1_555 1_555
C185 C184 1_555 1_555
H237 C185 1_555 1_555
C186 C185 1_555 1_555
H238 C186 1_555 1_555
C187 C186 1_555 1_555
H239 C187 1_555 1_555
C188 C183 1_555 1_555
H240 C188 1_555 1_555
C189 C182 1_555 1_555
H241 C189 1_555 1_555
H242 C189 1_555 1_555
H243 C189 1_555 1_555
C190 H244 1_555 1_555
H245 C190 1_555 1_555
H246 C190 1_555 1_555
C191 H247 1_555 1_555
C192 C191 1_555 1_555
C193 C192 1_555 1_555
H248 C193 1_555 1_555
C194 C193 1_555 1_555
H249 C194 1_555 1_555
C195 C194 1_555 1_555
H250 C195 1_555 1_555
C196 C195 1_555 1_555
H251 C196 1_555 1_555
C197 C192 1_555 1_555
H252 C197 1_555 1_555
C198 H253 1_555 1_555
H254 C198 1_555 1_555
H255 C198 1_555 1_555
C199 H256 1_555 1_555
H257 C199 1_555 1_555
H258 C199 1_555 1_555
C200 C191 1_555 1_555
H259 C200 1_555 1_555
H260 C200 1_555 1_555
H261 C200 1_555 1_555
N16 C190 1_555 1_555
N5B C53 1_555 1_555
O11B C54 1_555 1_555
Cu1C O19 1_555 1_555
Cu3B N5B 1_555 1_555
O9B Cu3B 1_555 1_555
O12B Cu3B 1_555 1_555
N3B Cu3B 1_555 1_555
S1B O12B 1_555 1_555
C42B S1B 1_555 1_555
C43B S1B 1_555 1_555
H40B C42B 1_555 1_555
H41B C42B 1_555 1_555
H42B C42B 1_555 1_555
H43B C43B 1_555 1_555
H44B C43B 1_555 1_555
H45B C43B 1_555 1_555
Cu4A N11 1_555 1_555
Cu6B N8 1_555 1_555
N8B Cu6 1_555 1_555
N11A Cu4 1_555 1_555
O28B Cu6 1_555 1_555
O39A Cu4 1_555 1_555
O3 Mn1 1_555 1_555
C8 C10 1_555 1_555
C13 C14 1_555 1_555
C15 C16 1_555 1_555
O8 Cu2 1_555 1_555
O9 Cu3 1_555 1_555
C25 C34 1_555 1_555
C27 C29 1_555 1_555
C32 C39 1_555 1_555
O14 Mn2 1_555 1_555
C47 C49 1_555 1_555
C51 C52 1_555 1_555
C53 C54 1_555 1_555
N6 Cu1C 1_555 1_555
C56 N5B 1_555 1_555
C63 C70 1_555 1_555
C68 C73 1_555 1_555
C75 O25 1_555 1_555
C76 O27 1_555 1_555
C81 C82 1_555 1_555
C87 O29 1_555 1_555
C88 O30 1_555 1_555
C90 C95 1_555 1_555
C94 C95 1_555 1_555
C99 O32 1_555 1_555
C99 O33 1_555 1_555
C100 O31 1_555 1_555
C105 C106 1_555 1_555
C111 O34 1_555 1_555
C112 O36 1_555 1_555
C113 N10 1_555 1_555
C123 O38 1_555 1_555
C124 O37 1_555 1_555
C129 C130 1_555 1_555
C135 O41 1_555 1_555
C135 O42 1_555 1_555
C136 O40 1_555 1_555
C141 C142 1_555 1_555
C148 S2 1_555 1_555
C150 S3 1_555 1_555
O28 Cu6B 1_555 1_555
O39 Cu4A 1_555 1_555
O43 S2 1_555 1_555
O44 S3 1_555 1_555
C152 N13 1_555 1_555
C153 N13 1_555 1_555
C154 N13 1_555 1_555
C160 C161 1_555 1_555
C163 N14 1_555 1_555
C164 N14 1_555 1_555
C165 N14 1_555 1_555
C170 C171 1_555 1_555
C174 S4 1_555 1_555
C176 S5 1_555 1_555
C178 S6 1_555 1_555
C187 C188 1_555 1_555
C191 N16 1_555 1_555
C196 C197 1_555 1_555
C198 N16 1_555 1_555
C199 N16 1_555 1_555
O11B Cu3B 1_555 1_555

#END
