
#######################################################################
#
#                 Cambridge Crystallographic Data Centre
#                                CCDC 
#
#######################################################################
#
# If this CIF has been generated from an entry in the Cambridge 
# Structural Database, then it will include bibliographic, chemical, 
# crystal, experimental, refinement or atomic coordinate data resulting 
# from the CCDC's data processing and validation procedures.
#
#######################################################################

data_QITDOO
_chemical_formula_moiety         '(C36 H28 La2 O17)n'
_symmetry_cell_setting           tetragonal
_symmetry_space_group_name_H-M   'I 41 c d'
_symmetry_Int_Tables_number      110
_space_group_name_Hall           'I 4bw -2c'
loop_
_symmetry_equiv_pos_site_id
_symmetry_equiv_pos_as_xyz
1 x,y,z
2 -x,-y,z
3 -y,1/2+x,1/4+z
4 y,1/2-x,1/4+z
5 -x,y,1/2+z
6 x,-y,1/2+z
7 1/2+y,x,1/4+z
8 1/2-y,-x,1/4+z
9 1/2+x,1/2+y,1/2+z
10 1/2-x,1/2-y,1/2+z
11 1/2-y,x,3/4+z
12 1/2+y,-x,3/4+z
13 1/2-x,1/2+y,z
14 1/2+x,1/2-y,z
15 y,1/2+x,3/4+z
16 -y,1/2-x,3/4+z
_cell_length_a                   30.760(5)
_cell_length_b                   30.760(5)
_cell_length_c                   16.103(5)
_cell_angle_alpha                90
_cell_angle_beta                 90
_cell_angle_gamma                90
_cell_volume                     15236.3
loop_
_atom_site_label
_atom_site_type_symbol
_atom_site_fract_x
_atom_site_fract_y
_atom_site_fract_z
_atom_site_U_iso_or_equiv
_atom_site_thermal_displace_type
C1 C 1.1037(2) 1.6821(2) 1.8185(4) 0.0293 Uani
C2 C 1.1395(2) 1.6514(2) 1.7935(4) 0.0280 Uani
C3 C 1.1266(3) 1.6157(3) 1.7489(6) 0.0443 Uani
H1 H 1.0973 1.6127 1.7355 0.0540 Uiso
C4 C 1.1557(3) 1.5837(3) 1.7230(5) 0.0443 Uani
H2 H 1.1457 1.5602 1.6922 0.0530 Uiso
C5 C 1.1991(2) 1.5868(2) 1.7427(4) 0.0300 Uani
C6 C 1.2284(2) 1.5521(2) 1.7091(4) 0.0267 Uani
C7 C 1.2140(3) 1.6215(3) 1.7926(5) 0.0383 Uani
C8 C 1.2582(4) 1.6245(4) 1.8125(7) 0.0657 Uani
H3 H 1.2778 1.6036 1.7943 0.0790 Uiso
C9 C 1.2718(4) 1.6592(4) 1.8599(8) 0.0803 Uani
H4 H 1.3012 1.6616 1.8726 0.0960 Uiso
C10 C 1.2434(4) 1.6911(4) 1.8896(8) 0.0783 Uani
H5 H 1.2532 1.7130 1.9248 0.0940 Uiso
C11 C 1.1998(3) 1.6892(3) 1.8650(6) 0.0620 Uani
H6 H 1.1808 1.7110 1.8822 0.0740 Uiso
C12 C 1.1840(3) 1.6552(2) 1.8151(5) 0.0380 Uani
C13 C 0.9202(2) 1.6704(2) 1.5447(4) 0.0240 Uani
C14 C 0.8940(2) 1.6336(2) 1.5135(4) 0.0253 Uani
C15 C 0.8502(2) 1.6348(2) 1.5342(5) 0.0330 Uani
H7 H 0.8394 1.6581 1.5647 0.0400 Uiso
C16 C 0.8220(2) 1.6015(2) 1.5099(5) 0.0287 Uani
H8 H 0.7926 1.6036 1.5228 0.0340 Uiso
C17 C 0.8369(2) 1.5657(2) 1.4674(4) 0.0247 Uani
C18 C 0.8048(2) 1.5301(2) 1.4502(4) 0.0247 Uani
C19 C 0.8815(2) 1.5637(2) 1.4408(4) 0.0273 Uani
C20 C 0.8992(2) 1.5298(2) 1.3897(6) 0.0397 Uani
H9 H 0.8807 1.5083 1.3698 0.0480 Uiso
C21 C 0.9419(3) 1.5279(3) 1.3695(6) 0.0500 Uani
H10 H 0.9522 1.5048 1.3377 0.0600 Uiso
C22 C 0.9711(3) 1.5606(3) 1.3965(7) 0.0570 Uani
H11 H 1.0003 1.5593 1.3821 0.0680 Uiso
C23 C 0.9557(2) 1.5946(2) 1.4443(5) 0.0380 Uani
H12 H 0.9750 1.6157 1.4629 0.0460 Uiso
C24 C 0.9108(2) 1.5978(2) 1.4660(4) 0.0267 Uani
C25 C 0.9560(2) 1.6701(2) 1.8179(4) 0.0223 Uani
C26 C 0.9199(2) 1.6396(2) 1.7948(4) 0.0280 Uani
C27 C 0.8789(3) 1.6477(3) 1.8259(5) 0.0450 Uani
H13 H 0.8742 1.6711 1.8612 0.0540 Uiso
C28 C 0.8441(3) 1.6199(3) 1.8035(5) 0.0483 Uani
H14 H 0.8166 1.6251 1.8254 0.0580 Uiso
C29 C 0.8496(2) 1.5855(2) 1.7506(5) 0.0290 Uani
C30 C 0.8089(2) 1.5620(2) 1.7241(5) 0.0323 Uani
C31 C 0.8923(2) 1.5753(2) 1.7171(5) 0.0323 Uani
C32 C 0.9016(3) 1.5406(3) 1.6642(5) 0.0417 Uani
H15 H 0.8794 1.5221 1.6470 0.0500 Uiso
C33 C 0.9426(3) 1.5338(3) 1.6381(8) 0.0603 Uani
H16 H 0.9479 1.5097 1.6045 0.0730 Uiso
C34 C 0.9778(3) 1.5606(3) 1.6583(7) 0.0630 Uani
H17 H 1.0055 1.5552 1.6379 0.0750 Uiso
C35 C 0.9695(3) 1.5949(3) 1.7091(6) 0.0490 Uani
H18 H 0.9923 1.6131 1.7241 0.0590 Uiso
C36 C 0.9272(2) 1.6038(2) 1.7400(4) 0.0287 Uani
O1 O 1.06545(17) 1.67425(18) 1.7924(3) 0.0370 Uani
O2 O 1.11028(16) 1.71501(16) 1.8642(3) 0.0380 Uani
O3 O 1.03410(16) 1.67853(17) 1.6362(4) 0.0413 Uani
O4 O 1.24959(18) 1.52734(16) 1.7572(3) 0.0327 Uani
O5 O 0.9176(2) 1.7720(2) 1.7222(4) 0.0483 Uani
O6 O 1.23097(16) 1.54730(16) 1.6304(4) 0.0377 Uani
O7 O 0.95401(15) 1.68380(15) 1.5043(3) 0.0250 Uani
O8 O 0.90926(16) 1.68908(17) 1.6095(3) 0.0360 Uani
O9 O 0.76866(16) 1.53022(17) 1.4885(3) 0.0297 Uani
O10 O 0.81205(15) 1.50217(18) 1.3954(3) 0.0423 Uani
O11 O 0.97253(15) 1.69511(16) 1.7660(3) 0.0260 Uani
O12 O 0.96812(16) 1.67008(17) 1.8926(3) 0.0357 Uani
O13 O 0.80939(19) 1.5405(2) 1.6580(4) 0.0497 Uani
O14 O 0.77533(16) 1.56470(16) 1.7669(4) 0.0357 Uani
La1 La 1.027167(10) 1.730128(10) 1.87940(2) 0.0191 Uani
La2 La 0.975720(10) 1.735899(11) 1.62923(2) 0.0211 Uani
O4G O 0.97266(16) 1.75041(18) 2.0072(3) 0.0327 Uani
O4K O 1.02734(16) 1.75041(18) 1.5072(3) 0.0327 Uani
O6G O 0.95270(16) 1.76903(16) 1.8804(4) 0.0377 Uani
O7D O 1.04599(15) 1.68380(15) 2.0043(3) 0.0250 Uani
O9F O 1.03022(17) 1.76866(16) 1.7385(3) 0.0297 Uani
O10F O 1.00217(18) 1.81205(15) 1.6454(3) 0.0423 Uani
O13F O 1.0405(2) 1.80939(19) 1.9080(4) 0.0497 Uani
O14F O 1.06470(16) 1.77533(16) 2.0169(4) 0.0357 Uani
O14J O 0.93530(16) 1.77533(16) 1.5169(4) 0.0357 Uani
La1D La 0.972833(10) 1.730128(10) 1.37940(2) 0.0191 Uani
La1N La 0.730128(10) 1.527167(10) 1.62940(2) 0.0191 Uani
La1O La 1.269872(10) 1.472833(10) 1.62940(2) 0.0191 Uani
La2B La 1.264101(11) 1.475720(10) 1.87923(2) 0.0211 Uani
La2C La 0.735899(11) 1.524280(10) 1.87923(2) 0.0211 Uani
La2N La 0.735899(11) 1.475720(10) 1.37923(2) 0.0211 Uani
O15 O 0.9296(4) 1.6282(4) 2.0223(7) 0.0407 Uani
O16 O 0.8738(7) 1.5614(7) 2.0081(13) 0.0350 Uani
O17 O 0.8347(6) 1.7310(6) 1.6906(12) 0.0287 Uani
loop_
_atom_site_aniso_label
_atom_site_aniso_U_11
_atom_site_aniso_U_22
_atom_site_aniso_U_33
_atom_site_aniso_U_23
_atom_site_aniso_U_13
_atom_site_aniso_U_12
C1 0.033(4) 0.026(3) 0.029(4) 0.005(3) 0.004(3) 0.008(3)
C2 0.026(3) 0.029(4) 0.029(4) -0.003(3) 0.001(3) 0.007(3)
C3 0.028(4) 0.040(4) 0.065(6) -0.018(4) -0.003(4) 0.010(3)
C4 0.040(5) 0.043(5) 0.050(5) -0.018(4) -0.003(4) 0.007(4)
C5 0.037(4) 0.028(4) 0.025(4) 0.001(3) 0.008(3) 0.011(3)
C6 0.024(3) 0.026(3) 0.030(4) 0.007(3) 0.005(3) 0.008(3)
C7 0.034(4) 0.036(4) 0.045(5) -0.005(3) 0.000(3) 0.006(3)
C8 0.065(3) 0.066(3) 0.066(3) -0.0009(10) -0.0009(10) 0.0003(10)
C9 0.080(4) 0.080(4) 0.081(4) -0.0008(10) -0.0004(10) 0.0003(10)
C10 0.078(3) 0.078(3) 0.079(3) -0.0013(10) -0.0005(10) 0.0000(10)
C11 0.061(3) 0.062(3) 0.063(3) -0.0012(10) -0.0007(10) 0.0006(10)
C12 0.038(4) 0.034(4) 0.042(4) -0.010(3) -0.002(4) 0.007(3)
C13 0.026(3) 0.025(3) 0.021(3) 0.001(3) -0.004(3) -0.006(3)
C14 0.021(3) 0.023(3) 0.032(4) -0.002(3) -0.001(3) -0.005(3)
C15 0.030(4) 0.031(4) 0.038(4) -0.011(3) 0.011(3) -0.010(3)
C16 0.022(3) 0.029(4) 0.035(4) -0.004(3) -0.001(3) -0.008(3)
C17 0.028(3) 0.022(3) 0.024(3) 0.003(3) -0.007(3) -0.011(3)
C18 0.023(3) 0.024(3) 0.027(4) -0.002(3) -0.006(3) -0.003(3)
C19 0.028(4) 0.023(3) 0.031(4) 0.003(3) -0.004(3) 0.002(3)
C20 0.033(4) 0.030(3) 0.056(5) -0.010(4) 0.002(4) -0.009(3)
C21 0.046(4) 0.040(4) 0.064(6) -0.016(5) 0.021(5) -0.006(3)
C22 0.029(4) 0.042(4) 0.100(9) -0.007(5) 0.019(5) -0.005(3)
C23 0.024(4) 0.031(4) 0.059(5) -0.007(4) 0.003(3) -0.007(3)
C24 0.025(3) 0.022(3) 0.033(4) -0.003(3) 0.004(3) -0.003(3)
C25 0.021(3) 0.026(3) 0.020(3) -0.003(3) 0.001(3) -0.004(3)
C26 0.034(4) 0.026(3) 0.024(3) 0.000(3) 0.002(3) -0.005(3)
C27 0.034(4) 0.061(6) 0.040(4) -0.025(4) 0.010(4) -0.017(4)
C28 0.026(4) 0.076(7) 0.043(5) -0.006(5) 0.006(4) -0.014(4)
C29 0.022(3) 0.039(4) 0.026(3) 0.000(3) -0.007(3) -0.013(3)
C30 0.021(3) 0.039(4) 0.037(4) 0.013(3) -0.006(3) -0.014(3)
C31 0.032(4) 0.030(4) 0.035(4) 0.011(3) -0.001(3) -0.008(3)
C32 0.038(4) 0.035(4) 0.052(5) -0.007(4) -0.004(4) -0.009(3)
C33 0.063(6) 0.044(5) 0.074(7) -0.032(5) 0.004(6) 0.009(4)
C34 0.044(5) 0.059(6) 0.086(8) -0.032(5) 0.003(5) 0.014(4)
C35 0.026(4) 0.047(5) 0.074(6) -0.023(5) 0.006(4) 0.001(3)
C36 0.030(4) 0.031(4) 0.025(4) -0.002(3) -0.004(3) 0.004(3)
O1 0.029(3) 0.042(3) 0.040(3) -0.013(2) -0.003(2) 0.015(2)
O2 0.034(3) 0.034(3) 0.046(3) -0.013(3) 0.001(2) -0.002(2)
O3 0.043(3) 0.043(3) 0.038(3) -0.010(3) 0.004(3) 0.017(2)
O4 0.040(3) 0.028(2) 0.030(3) 0.002(2) -0.002(3) 0.013(2)
O5 0.046(4) 0.062(4) 0.037(3) -0.002(3) 0.005(3) 0.015(3)
O6 0.050(3) 0.038(3) 0.025(2) 0.001(3) 0.004(3) 0.023(2)
O7 0.027(2) 0.025(2) 0.023(2) -0.004(2) 0.003(2) -0.0100(19)
O8 0.032(3) 0.047(3) 0.029(3) -0.009(2) 0.009(2) -0.016(2)
O9 0.029(3) 0.034(3) 0.026(3) -0.006(2) -0.004(2) -0.012(2)
O10 0.025(2) 0.043(3) 0.059(5) -0.027(3) 0.001(3) -0.011(2)
O11 0.027(3) 0.028(3) 0.023(3) -0.001(2) 0.003(2) -0.0099(19)
O12 0.037(3) 0.041(3) 0.029(3) 0.004(2) -0.004(2) -0.018(2)
O13 0.038(3) 0.071(4) 0.040(3) -0.001(3) -0.014(2) -0.027(3)
O14 0.023(3) 0.031(3) 0.053(4) 0.010(3) -0.003(2) -0.001(2)
La1 0.01867(16) 0.01999(15) 0.01865(18) -0.00397(17) -0.00080(16) 0.00047(12)
La2 0.02184(17) 0.02169(16) 0.01971(19) -0.00388(17) -0.00227(18) -0.00449(12)
O4G 0.028 0.04 0.03 0.002 -0.002 0.013
O4K 0.028 0.04 0.03 0.002 0.002 -0.013
O6G 0.038 0.05 0.025 -0.004 -0.001 0.023
O7D 0.027 0.025 0.023 -0.004 -0.003 0.01
O9F 0.034 0.029 0.026 -0.004 -0.006 -0.012
O10F 0.043 0.025 0.059 0.001 -0.027 -0.011
O13F 0.071 0.038 0.04 -0.014 -0.001 -0.027
O14F 0.031 0.023 0.053 -0.003 0.01 -0.001
O14J 0.031 0.023 0.053 -0.003 -0.01 0.001
La1D 0.01867 0.01999 0.01865 -0.00397 0.0008 -0.00047
La1N 0.01999 0.01867 0.01865 -0.0008 -0.00397 0.00047
La1O 0.01999 0.01867 0.01865 0.0008 0.00397 0.00047
La2B 0.02169 0.02184 0.01971 -0.00227 0.00388 0.00449
La2C 0.02169 0.02184 0.01971 0.00227 -0.00388 0.00449
La2N 0.02169 0.02184 0.01971 -0.00227 -0.00388 -0.00449
O15 0.041(3) 0.041(3) 0.040(3) -0.0007(10) 0.0001(10) -0.0032(10)
O16 0.035(5) 0.035(5) 0.035(5) -0.0002(10) -0.0002(10) -0.0003(10)
O17 0.028(4) 0.029(4) 0.029(4) -0.0003(10) 0.0001(10) 0.0004(10)
loop_
_geom_bond_atom_site_label_1
_geom_bond_atom_site_label_2
_geom_bond_site_symmetry_1
_geom_bond_site_symmetry_2
C1 C2 1_555 1_555
C2 C3 1_555 1_555
C3 H1 1_555 1_555
C4 C3 1_555 1_555
H2 C4 1_555 1_555
C5 C4 1_555 1_555
C6 C5 1_555 1_555
C7 C5 1_555 1_555
C8 C7 1_555 1_555
H3 C8 1_555 1_555
C9 C8 1_555 1_555
H4 C9 1_555 1_555
C10 C9 1_555 1_555
H5 C10 1_555 1_555
C11 C10 1_555 1_555
H6 C11 1_555 1_555
C12 C2 1_555 1_555
C13 C14 1_555 1_555
C14 C15 1_555 1_555
C15 H7 1_555 1_555
C16 C15 1_555 1_555
H8 C16 1_555 1_555
C17 C16 1_555 1_555
C18 C17 1_555 1_555
C19 C17 1_555 1_555
C20 C19 1_555 1_555
H9 C20 1_555 1_555
C21 C20 1_555 1_555
H10 C21 1_555 1_555
C22 C21 1_555 1_555
H11 C22 1_555 1_555
C23 C22 1_555 1_555
H12 C23 1_555 1_555
C24 C14 1_555 1_555
C25 C26 1_555 1_555
C26 C27 1_555 1_555
C27 H13 1_555 1_555
C28 C27 1_555 1_555
H14 C28 1_555 1_555
C29 C28 1_555 1_555
C30 C29 1_555 1_555
C31 C29 1_555 1_555
C32 C31 1_555 1_555
H15 C32 1_555 1_555
C33 C32 1_555 1_555
H16 C33 1_555 1_555
C34 C33 1_555 1_555
H17 C34 1_555 1_555
C35 C34 1_555 1_555
H18 C35 1_555 1_555
C36 C26 1_555 1_555
O1 C1 1_555 1_555
O2 C1 1_555 1_555
O3 La2 1_555 1_555
O4 C6 1_555 1_555
O5 La2 1_555 1_555
O6 C6 1_555 1_555
O7 C13 1_555 1_555
O8 C13 1_555 1_555
O9 C18 1_555 1_555
O10 C18 1_555 1_555
O11 C25 1_555 1_555
O12 C25 1_555 1_555
O13 C30 1_555 1_555
O14 C30 1_555 1_555
La1 O1 1_555 1_555
La2 O7 1_555 1_555
O4G La1 1_555 1_555
O4K La2 1_555 1_555
O6G La1 1_555 1_555
O7D La1 1_555 1_555
O9F La1 1_555 1_555
O10F La2 1_555 1_555
O13F La1 1_555 1_555
O14F La1 1_555 1_555
O14J La2 1_555 1_555
La1D O7 1_555 1_555
La1N O9 1_555 1_555
La1O O4 1_555 1_555
La2B O4 1_555 1_555
La2C O14 1_555 1_555
La2N O9 1_555 1_555
C7 C12 1_555 1_555
C11 C12 1_555 1_555
C19 C24 1_555 1_555
C23 C24 1_555 1_555
C31 C36 1_555 1_555
C35 C36 1_555 1_555
O2 La1 1_555 1_555
O6 La1O 1_555 1_555
O8 La2 1_555 1_555
O10 La2N 1_555 1_555
O11 La1 1_555 1_555
O11 La2 1_555 1_555
O12 La1 1_555 1_555
O13 La1N 1_555 1_555
O14 La1N 1_555 1_555
La2 O9F 1_555 1_555
O4K La1D 1_555 1_555
O14J La1D 1_555 1_555

#END
