
#######################################################################
#
#                 Cambridge Crystallographic Data Centre
#                                CCDC 
#
#######################################################################
#
# If this CIF has been generated from an entry in the Cambridge 
# Structural Database, then it will include bibliographic, chemical, 
# crystal, experimental, refinement or atomic coordinate data resulting 
# from the CCDC's data processing and validation procedures.
#
#######################################################################

data_IGOZOV
_chemical_formula_moiety         '(C12 H26 Cd2 O22 Yb1 1+)n'
_symmetry_cell_setting           cubic
_symmetry_space_group_name_H-M   'F d -3 c'
_symmetry_Int_Tables_number      228
_space_group_name_Hall           '-F 4ud 2vw 3'
loop_
_symmetry_equiv_pos_site_id
_symmetry_equiv_pos_as_xyz
1 x,y,z
2 1/4-x,3/4-y,1/2+z
3 3/4-x,1/2+y,1/4-z
4 1/2+x,1/4-y,3/4-z
5 z,x,y
6 1/2+z,1/4-x,3/4-y
7 1/4-z,3/4-x,1/2+y
8 3/4-z,1/2+x,1/4-y
9 y,z,x
10 3/4-y,1/2+z,1/4-x
11 1/2+y,1/4-z,3/4-x
12 1/4-y,3/4-z,1/2+x
13 3/4+y,1/4+x,-z
14 1/2-y,1/2-x,1/2-z
15 1/4+y,-x,3/4+z
16 -y,3/4+x,1/4+z
17 3/4+x,1/4+z,-y
18 -x,3/4+z,1/4+y
19 1/2-x,1/2-z,1/2-y
20 1/4+x,-z,3/4+y
21 3/4+z,1/4+y,-x
22 1/4+z,-y,3/4+x
23 -z,3/4+y,1/4+x
24 1/2-z,1/2-y,1/2-x
25 x,1/2+y,1/2+z
26 1/4-x,1/4-y,z
27 3/4-x,y,3/4-z
28 1/2+x,3/4-y,1/4-z
29 z,1/2+x,1/2+y
30 1/2+z,3/4-x,1/4-y
31 1/4-z,1/4-x,y
32 3/4-z,x,3/4-y
33 y,1/2+z,1/2+x
34 3/4-y,z,3/4-x
35 1/2+y,3/4-z,1/4-x
36 1/4-y,1/4-z,x
37 3/4+y,3/4+x,1/2-z
38 1/2-y,-x,-z
39 1/4+y,1/2-x,1/4+z
40 -y,1/4+x,3/4+z
41 3/4+x,3/4+z,1/2-y
42 -x,1/4+z,3/4+y
43 1/2-x,-z,-y
44 1/4+x,1/2-z,1/4+y
45 3/4+z,3/4+y,1/2-x
46 1/4+z,1/2-y,1/4+x
47 -z,1/4+y,3/4+x
48 1/2-z,-y,-x
49 1/2+x,y,1/2+z
50 3/4-x,3/4-y,z
51 1/4-x,1/2+y,3/4-z
52 x,1/4-y,1/4-z
53 1/2+z,x,1/2+y
54 z,1/4-x,1/4-y
55 3/4-z,3/4-x,y
56 1/4-z,1/2+x,3/4-y
57 1/2+y,z,1/2+x
58 1/4-y,1/2+z,3/4-x
59 y,1/4-z,1/4-x
60 3/4-y,3/4-z,x
61 1/4+y,1/4+x,1/2-z
62 -y,1/2-x,-z
63 3/4+y,-x,1/4+z
64 1/2-y,3/4+x,3/4+z
65 1/4+x,1/4+z,1/2-y
66 1/2-x,3/4+z,3/4+y
67 -x,1/2-z,-y
68 3/4+x,-z,1/4+y
69 1/4+z,1/4+y,1/2-x
70 3/4+z,-y,1/4+x
71 1/2-z,3/4+y,3/4+x
72 -z,1/2-y,-x
73 1/2+x,1/2+y,z
74 3/4-x,1/4-y,1/2+z
75 1/4-x,y,1/4-z
76 x,3/4-y,3/4-z
77 1/2+z,1/2+x,y
78 z,3/4-x,3/4-y
79 3/4-z,1/4-x,1/2+y
80 1/4-z,x,1/4-y
81 1/2+y,1/2+z,x
82 1/4-y,z,1/4-x
83 y,3/4-z,3/4-x
84 3/4-y,1/4-z,1/2+x
85 1/4+y,3/4+x,-z
86 -y,-x,1/2-z
87 3/4+y,1/2-x,3/4+z
88 1/2-y,1/4+x,1/4+z
89 1/4+x,3/4+z,-y
90 1/2-x,1/4+z,1/4+y
91 -x,-z,1/2-y
92 3/4+x,1/2-z,3/4+y
93 1/4+z,3/4+y,-x
94 3/4+z,1/2-y,3/4+x
95 1/2-z,1/4+y,1/4+x
96 -z,-y,1/2-x
97 -x,-y,-z
98 3/4+x,1/4+y,1/2-z
99 1/4+x,1/2-y,3/4+z
100 1/2-x,3/4+y,1/4+z
101 -z,-x,-y
102 1/2-z,3/4+x,1/4+y
103 3/4+z,1/4+x,1/2-y
104 1/4+z,1/2-x,3/4+y
105 -y,-z,-x
106 1/4+y,1/2-z,3/4+x
107 1/2-y,3/4+z,1/4+x
108 3/4+y,1/4+z,1/2-x
109 1/4-y,3/4-x,z
110 1/2+y,1/2+x,1/2+z
111 3/4-y,x,1/4-z
112 y,1/4-x,3/4-z
113 1/4-x,3/4-z,y
114 x,1/4-z,3/4-y
115 1/2+x,1/2+z,1/2+y
116 3/4-x,z,1/4-y
117 1/4-z,3/4-y,x
118 3/4-z,y,1/4-x
119 z,1/4-y,3/4-x
120 1/2+z,1/2+y,1/2+x
121 -x,1/2-y,1/2-z
122 3/4+x,3/4+y,-z
123 1/4+x,-y,1/4+z
124 1/2-x,1/4+y,3/4+z
125 -z,1/2-x,1/2-y
126 1/2-z,1/4+x,3/4+y
127 3/4+z,3/4+x,-y
128 1/4+z,-x,1/4+y
129 -y,1/2-z,1/2-x
130 1/4+y,-z,1/4+x
131 1/2-y,1/4+z,3/4+x
132 3/4+y,3/4+z,-x
133 1/4-y,1/4-x,1/2+z
134 1/2+y,x,z
135 3/4-y,1/2+x,3/4-z
136 y,3/4-x,1/4-z
137 1/4-x,1/4-z,1/2+y
138 x,3/4-z,1/4-y
139 1/2+x,z,y
140 3/4-x,1/2+z,3/4-y
141 1/4-z,1/4-y,1/2+x
142 3/4-z,1/2+y,3/4-x
143 z,3/4-y,1/4-x
144 1/2+z,y,x
145 1/2-x,-y,1/2-z
146 1/4+x,1/4+y,-z
147 3/4+x,1/2-y,1/4+z
148 -x,3/4+y,3/4+z
149 1/2-z,-x,1/2-y
150 -z,3/4+x,3/4+y
151 1/4+z,1/4+x,-y
152 3/4+z,1/2-x,1/4+y
153 1/2-y,-z,1/2-x
154 3/4+y,1/2-z,1/4+x
155 -y,3/4+z,3/4+x
156 1/4+y,1/4+z,-x
157 3/4-y,3/4-x,1/2+z
158 y,1/2+x,z
159 1/4-y,x,3/4-z
160 1/2+y,1/4-x,1/4-z
161 3/4-x,3/4-z,1/2+y
162 1/2+x,1/4-z,1/4-y
163 x,1/2+z,y
164 1/4-x,z,3/4-y
165 3/4-z,3/4-y,1/2+x
166 1/4-z,y,3/4-x
167 1/2+z,1/4-y,1/4-x
168 z,1/2+y,x
169 1/2-x,1/2-y,-z
170 1/4+x,3/4+y,1/2-z
171 3/4+x,-y,3/4+z
172 -x,1/4+y,1/4+z
173 1/2-z,1/2-x,-y
174 -z,1/4+x,1/4+y
175 1/4+z,3/4+x,1/2-y
176 3/4+z,-x,3/4+y
177 1/2-y,1/2-z,-x
178 3/4+y,-z,3/4+x
179 -y,1/4+z,1/4+x
180 1/4+y,3/4+z,1/2-x
181 3/4-y,1/4-x,z
182 y,x,1/2+z
183 1/4-y,1/2+x,1/4-z
184 1/2+y,3/4-x,3/4-z
185 3/4-x,1/4-z,y
186 1/2+x,3/4-z,3/4-y
187 x,z,1/2+y
188 1/4-x,1/2+z,1/4-y
189 3/4-z,1/4-y,x
190 1/4-z,1/2+y,1/4-x
191 1/2+z,3/4-y,3/4-x
192 z,y,1/2+x
_cell_length_a                   25.9723(6)
_cell_length_b                   25.9723(6)
_cell_length_c                   25.9723(6)
_cell_angle_alpha                90
_cell_angle_beta                 90
_cell_angle_gamma                90
_cell_volume                     17519.9
loop_
_atom_site_label
_atom_site_type_symbol
_atom_site_fract_x
_atom_site_fract_y
_atom_site_fract_z
_atom_site_U_iso_or_equiv
_atom_site_thermal_displace_type
Yb1 Yb 0.0000 0.0000 0.7500 0.0296 Uani
O1 O -0.0293(5) 0.0098(4) 0.8343(5) 0.0463 Uani
O2 O 0.0652(4) -0.0000 0.8152(4) 0.0423 Uani
C1 C -0.0032(8) 0.0091(8) 0.8739(7) 0.0463 Uani
C2 C 0.0538(8) 0.0041(10) 0.8699(8) 0.0717 Uani
O3 O -0.0239(5) 0.0140(5) 0.9169(5) 0.0563 Uani
H1 H 0.0707 0.0339 0.8846 0.0500 Uiso
H2 H 0.0656 -0.0264 0.8880 0.1200 Uiso
Cd1 Cd 0.0000 0.0000 1.0000 0.0291 Uani
O1U O 0.0843(5) -0.0098(4) 0.7207(5) 0.0463 Uani
O1EA O -0.0843(5) -0.0293(5) 0.7402(4) 0.0463 Uani
O2EA O -0.0652(4) 0.0652(4) 0.7500 0.0423 Uani
O1OA O 0.0293(5) 0.0843(5) 0.7598(4) 0.0463 Uani
O1DC O 0.0098(4) -0.0843(5) 0.7793(5) 0.0463 Uani
O2DC O 0.0000 -0.0652(4) 0.6848(4) 0.0423 Uani
O1GC O -0.0098(4) 0.0293(5) 0.6657(5) 0.0463 Uani
C2U C 0.1199(8) -0.0041(10) 0.8038(8) 0.0717 Uani
C1U C 0.1239(7) -0.0091(8) 0.7468(8) 0.0463 Uani
C1EA C -0.1239(7) -0.0032(8) 0.7409(8) 0.0463 Uani
C2EA C -0.1199(8) 0.0538(8) 0.7459(10) 0.0717 Uani
C2OA C -0.0538(8) 0.1199(8) 0.7541(10) 0.0717 Uani
C1OA C 0.0032(8) 0.1239(7) 0.7591(8) 0.0463 Uani
C1DC C 0.0091(8) -0.1239(7) 0.7532(8) 0.0463 Uani
C2DC C 0.0041(10) -0.1199(8) 0.6962(8) 0.0717 Uani
C2GC C -0.0041(10) -0.0538(8) 0.6301(8) 0.0717 Uani
C1GC C -0.0091(8) 0.0032(8) 0.6261(7) 0.0463 Uani
H1U H 0.1346 -0.0339 0.8207 0.0500 Uiso
H2U H 0.1380 0.0264 0.8156 0.1200 Uiso
O3U O 0.1669(5) -0.0140(5) 0.7261(5) 0.0563 Uani
O3EA O -0.1669(5) -0.0239(5) 0.7360(5) 0.0563 Uani
H1EA H -0.1346 0.0707 0.7161 0.0500 Uiso
H2EA H -0.1380 0.0656 0.7764 0.1200 Uiso
H1OA H -0.0707 0.1346 0.7839 0.0500 Uiso
H2OA H -0.0656 0.1380 0.7236 0.1200 Uiso
O3OA O 0.0239(5) 0.1669(5) 0.7640(5) 0.0563 Uani
O3DC O 0.0140(5) -0.1669(5) 0.7739(5) 0.0563 Uani
H1DC H 0.0339 -0.1346 0.6793 0.0500 Uiso
H2DC H -0.0264 -0.1380 0.6844 0.1200 Uiso
H1GC H -0.0339 -0.0707 0.6154 0.0500 Uiso
H2GC H 0.0264 -0.0656 0.6120 0.1200 Uiso
O3GC O -0.0140(5) 0.0239(5) 0.5831(5) 0.0563 Uani
Cd1N Cd 0.2500 0.0000 0.7500 0.0291 Uani
Cd1Z Cd -0.2500 0.0000 0.7500 0.0291 Uani
Cd1MA Cd -0.0000 0.2500 0.7500 0.0291 Uani
Cd1WB Cd 0.0000 -0.2500 0.7500 0.0291 Uani
Cd1GC Cd 0.0000 0.0000 0.5000 0.0291 Uani
O3D O -0.0831(5) -0.0239(5) 1.0140(5) 0.0563 Uani
O3H O 0.0140(5) -0.0831(5) 0.9761(5) 0.0563 Uani
O3RC O 0.0239(5) -0.0140(5) 1.0831(5) 0.0563 Uani
O3VC O 0.0831(5) 0.0239(5) 0.9860(5) 0.0563 Uani
O3ZC O -0.0140(5) 0.0831(5) 1.0239(5) 0.0563 Uani
Cd2 Cd 0.6250 0.6250 0.1250 0.0718 Uani
O4 O 0.7101(9) 0.6250 0.1250 0.0977 Uani
H3 H 0.7363 0.6141 0.1083 0.0700 Uiso
H3YA H 0.7363 0.6359 0.1417 0.0700 Uiso
O4E O 0.6250 0.5399(9) 0.1250 0.0977 Uani
H3E H 0.6083 0.5137 0.1359 0.0700 Uiso
H3ZB H 0.6417 0.5137 0.1141 0.0700 Uiso
O4K O 0.6250 0.6250 0.2101(9) 0.0977 Uani
H3K H 0.6359 0.6417 0.2363 0.0700 Uiso
H3FA H 0.6141 0.6083 0.2363 0.0700 Uiso
O4Y O 0.5399(9) 0.6250 0.1250 0.0977 Uani
H3Y H 0.5137 0.6359 0.1083 0.0700 Uiso
H3VB H 0.5137 0.6141 0.1417 0.0700 Uiso
O4EA O 0.6250 0.7101(9) 0.1250 0.0977 Uani
H3EA H 0.6417 0.7363 0.1359 0.0700 Uiso
H3ZA H 0.6083 0.7363 0.1141 0.0700 Uiso
O4EB O 0.6250 0.6250 0.0399(9) 0.0977 Uani
H3EB H 0.6359 0.6083 0.0137 0.0700 Uiso
H3DC H 0.6141 0.6417 0.0137 0.0700 Uiso
O5 O 0.6250 0.3287(17) 0.1250 0.1000 Uani
loop_
_atom_site_aniso_label
_atom_site_aniso_U_11
_atom_site_aniso_U_22
_atom_site_aniso_U_33
_atom_site_aniso_U_23
_atom_site_aniso_U_13
_atom_site_aniso_U_12
Yb1 0.0296(6) 0.0296(6) 0.0296(6) 0.0040(3) 0.0040(3) -0.0040(3)
O1 0.034(7) 0.055(9) 0.050(9) -0.014(6) -0.002(6) 0.006(6)
O2 0.038(6) 0.051(11) 0.038(6) -0.001(5) -0.004(7) 0.001(5)
C1 0.060(15) 0.039(13) 0.040(14) 0.013(7) 0.014(9) -0.006(9)
C2 0.044(14) 0.10(2) 0.071(17) 0.011(14) -0.011(10) -0.001(13)
O3 0.072(9) 0.059(9) 0.038(8) -0.008(6) -0.006(7) 0.012(8)
Cd1 0.0291(8) 0.0291(8) 0.0291(8) 0.0122(6) 0.0122(6) 0.0122(6)
O1U 0.05 0.055 0.034 -0.006 -0.002 0.014
O1EA 0.05 0.034 0.055 -0.006 -0.014 0.002
O2EA 0.038 0.038 0.051 -0.001 -0.001 0.004
O1OA 0.034 0.05 0.055 -0.014 -0.006 0.002
O1DC 0.055 0.05 0.034 -0.002 -0.006 0.014
O2DC 0.051 0.038 0.038 -0.004 -0.001 0.001
O1GC 0.055 0.034 0.05 -0.002 -0.014 0.006
C2U 0.071 0.1 0.044 0.001 -0.011 -0.011
C1U 0.04 0.039 0.06 0.006 0.014 -0.013
C1EA 0.04 0.06 0.039 0.006 0.013 -0.014
C2EA 0.071 0.044 0.1 0.001 0.011 0.011
C2OA 0.044 0.071 0.1 0.011 0.001 0.011
C1OA 0.06 0.04 0.039 0.013 0.006 -0.014
C1DC 0.039 0.04 0.06 0.014 0.006 -0.013
C2DC 0.1 0.071 0.044 -0.011 0.001 -0.011
C2GC 0.1 0.044 0.071 -0.011 0.011 -0.001
C1GC 0.039 0.06 0.04 0.014 0.013 -0.006
O3U 0.038 0.059 0.072 -0.012 -0.006 0.008
O3EA 0.038 0.072 0.059 -0.012 -0.008 0.006
O3OA 0.072 0.038 0.059 -0.008 -0.012 0.006
O3DC 0.059 0.038 0.072 -0.006 -0.012 0.008
O3GC 0.059 0.072 0.038 -0.006 -0.008 0.012
Cd1N 0.0291 0.0291 0.0291 -0.0122 0.0122 -0.0122
Cd1Z 0.0291 0.0291 0.0291 -0.0122 0.0122 -0.0122
Cd1MA 0.0291 0.0291 0.0291 0.0122 -0.0122 -0.0122
Cd1WB 0.0291 0.0291 0.0291 0.0122 -0.0122 -0.0122
Cd1GC 0.0291 0.0291 0.0291 0.0122 0.0122 0.0122
O3D 0.038 0.072 0.059 0.012 -0.008 -0.006
O3H 0.059 0.038 0.072 -0.006 0.012 -0.008
O3RC 0.072 0.059 0.038 -0.008 -0.006 0.012
O3VC 0.038 0.072 0.059 0.012 -0.008 -0.006
O3ZC 0.059 0.038 0.072 -0.006 0.012 -0.008
Cd2 0.0718(19) 0.0718(19) 0.0718(19) 0.000 0.000 0.000
O4 0.060(15) 0.17(3) 0.063(15) 0.020(13) 0.000 0.000
O4E 0.063 0.06 0.17 0 -0.02 0
O4K 0.17 0.063 0.06 0 0 0.02
O4Y 0.06 0.17 0.063 -0.02 0 0
O4EA 0.063 0.06 0.17 0 0.02 0
O4EB 0.17 0.063 0.06 0 0 -0.02
O5 0.18(5) 0.08(3) 0.04(2) 0.000 -0.04(3) 0.000
loop_
_geom_bond_atom_site_label_1
_geom_bond_atom_site_label_2
_geom_bond_site_symmetry_1
_geom_bond_site_symmetry_2
Yb1 O1 1_555 1_555
O1 C1 1_555 1_555
O2 Yb1 1_555 1_555
C1 C2 1_555 1_555
C2 O2 1_555 1_555
O3 C1 1_555 1_555
H1 C2 1_555 1_555
H2 C2 1_555 1_555
Cd1 O3 1_555 1_555
Cd2 O4 1_555 1_555
O4 H3 1_555 1_555
O1U Yb1 1_555 1_555
O1EA Yb1 1_555 1_555
O2EA Yb1 1_555 1_555
O1OA Yb1 1_555 1_555
O1DC Yb1 1_555 1_555
O2DC Yb1 1_555 1_555
O1GC Yb1 1_555 1_555
C2U O2 1_555 1_555
C1U O1U 1_555 1_555
C1EA O1EA 1_555 1_555
C2EA O2EA 1_555 1_555
C2OA O2EA 1_555 1_555
C1OA O1OA 1_555 1_555
C1DC O1DC 1_555 1_555
C2DC O2DC 1_555 1_555
C2GC O2DC 1_555 1_555
C1GC O1GC 1_555 1_555
H1U C2U 1_555 1_555
H2U C2U 1_555 1_555
O3U C1U 1_555 1_555
O3EA C1EA 1_555 1_555
H1EA C2EA 1_555 1_555
H2EA C2EA 1_555 1_555
H1OA C2OA 1_555 1_555
H2OA C2OA 1_555 1_555
O3OA C1OA 1_555 1_555
O3DC C1DC 1_555 1_555
H1DC C2DC 1_555 1_555
H2DC C2DC 1_555 1_555
H1GC C2GC 1_555 1_555
H2GC C2GC 1_555 1_555
O3GC C1GC 1_555 1_555
Cd1N O3U 1_555 1_555
Cd1Z O3EA 1_555 1_555
Cd1MA O3OA 1_555 1_555
Cd1WB O3DC 1_555 1_555
Cd1GC O3GC 1_555 1_555
O3D Cd1 1_555 1_555
O3H Cd1 1_555 1_555
O3RC Cd1 1_555 1_555
O3VC Cd1 1_555 1_555
O3ZC Cd1 1_555 1_555
H3YA O4 1_555 1_555
O4E Cd2 1_555 1_555
H3E O4E 1_555 1_555
H3ZB O4E 1_555 1_555
O4K Cd2 1_555 1_555
H3K O4K 1_555 1_555
H3FA O4K 1_555 1_555
O4Y Cd2 1_555 1_555
H3Y O4Y 1_555 1_555
H3VB O4Y 1_555 1_555
O4EA Cd2 1_555 1_555
H3EA O4EA 1_555 1_555
H3ZA O4EA 1_555 1_555
O4EB Cd2 1_555 1_555
H3EB O4EB 1_555 1_555
H3DC O4EB 1_555 1_555
C2U C1U 1_555 1_555
C1EA C2EA 1_555 1_555
C2OA C1OA 1_555 1_555
C1DC C2DC 1_555 1_555
C2GC C1GC 1_555 1_555

#END
