
#######################################################################
#
#                 Cambridge Crystallographic Data Centre
#                                CCDC 
#
#######################################################################
#
# If this CIF has been generated from an entry in the Cambridge 
# Structural Database, then it will include bibliographic, chemical, 
# crystal, experimental, refinement or atomic coordinate data resulting 
# from the CCDC's data processing and validation procedures.
#
#######################################################################

data_PAQTIM01
_chemical_formula_moiety         '(C48 H24 Cs1 Fe1 N4 Ni1 O8)n'
_symmetry_cell_setting           monoclinic
_symmetry_space_group_name_H-M   'C 2/c'
_symmetry_Int_Tables_number      15
_space_group_name_Hall           '-C 2yc'
loop_
_symmetry_equiv_pos_site_id
_symmetry_equiv_pos_as_xyz
1 x,y,z
2 -x,y,1/2-z
3 1/2+x,1/2+y,z
4 1/2-x,1/2+y,1/2-z
5 -x,-y,-z
6 x,-y,1/2+z
7 1/2-x,1/2-y,-z
8 1/2+x,1/2-y,1/2+z
_cell_length_a                   7.3772(13)
_cell_length_b                   24.965(4)
_cell_length_c                   29.960(5)
_cell_angle_alpha                90
_cell_angle_beta                 93.307(4)
_cell_angle_gamma                90
_cell_volume                     5508.6
loop_
_atom_site_label
_atom_site_type_symbol
_atom_site_fract_x
_atom_site_fract_y
_atom_site_fract_z
_atom_site_U_iso_or_equiv
_atom_site_thermal_displace_type
Fe1 Fe 1.0000 0.33964(3) -0.7500 0.0280 Uani
Ni1 Ni 0.0000 0.5000 -0.5000 0.0250 Uani
N1 N -0.0578(4) 0.47182(14) -0.44176(11) 0.0269 Uani
N2 N 0.2073(5) 0.45065(14) -0.50117(12) 0.0323 Uani
C1 C -0.1932(6) 0.48876(17) -0.41489(14) 0.0295 Uani
C2 C 0.0291(6) 0.43139(18) -0.41730(14) 0.0300 Uani
C3 C -0.1856(7) 0.4594(2) -0.37366(16) 0.0424 Uani
H1 H -0.2601 0.4643 -0.3500 0.0510 Uiso
C4 C -0.0516(6) 0.42364(19) -0.37560(15) 0.0401 Uani
H2 H -0.0173 0.3984 -0.3539 0.0480 Uiso
C5 C 0.1784(6) 0.40254(18) -0.43037(15) 0.0332 Uani
C6 C 0.2607(6) 0.41304(18) -0.46923(15) 0.0363 Uani
C7 C 0.4159(8) 0.3839(2) -0.48382(19) 0.0645 Uani
H3 H 0.4772 0.3565 -0.4683 0.0780 Uiso
C8 C 0.4552(8) 0.4032(2) -0.52338(18) 0.0656 Uani
H4 H 0.5488 0.3918 -0.5406 0.0780 Uiso
C9 C 0.3267(6) 0.44516(19) -0.53484(15) 0.0369 Uani
C10 C -0.3203(6) 0.52803(17) -0.42529(15) 0.0304 Uani
C11 C 0.2561(6) 0.35997(19) -0.39974(16) 0.0401 Uani
C12 C 0.4259(8) 0.3674(2) -0.37844(19) 0.0624 Uani
H5 H 0.4913 0.3984 -0.3834 0.0750 Uiso
C13 C 0.4974(8) 0.3288(3) -0.3499(2) 0.0802 Uani
H6 H 0.6128 0.3340 -0.3364 0.0960 Uiso
C14 C 0.4057(8) 0.2835(3) -0.3409(2) 0.0620 Uani
C15 C 0.2403(10) 0.2759(2) -0.36223(18) 0.0643 Uani
H7 H 0.1760 0.2449 -0.3565 0.0770 Uiso
C16 C 0.1628(8) 0.3134(2) -0.39281(18) 0.0555 Uani
H8 H 0.0513 0.3068 -0.4079 0.0670 Uiso
C17 C 0.4879(13) 0.2436(3) -0.3083(2) 0.0901 Uani
O1 O 0.3889(8) 0.20623(17) -0.29670(13) 0.0851 Uani
O2 O 0.6402(10) 0.2493(4) -0.2928(3) 0.2187 Uani
C18 C -0.4489(6) 0.54423(17) -0.39104(14) 0.0313 Uani
C19 C -0.6325(6) 0.5324(2) -0.39550(16) 0.0400 Uani
H9 H -0.6774 0.5121 -0.4197 0.0480 Uiso
C20 C -0.7495(6) 0.5504(2) -0.36450(16) 0.0401 Uani
H10 H -0.8725 0.5423 -0.3680 0.0480 Uiso
C21 C -0.6849(5) 0.58023(18) -0.32843(14) 0.0302 Uani
C22 C -0.4998(6) 0.5910(2) -0.32279(15) 0.0416 Uani
H11 H -0.4551 0.6103 -0.2980 0.0500 Uiso
C23 C -0.3834(6) 0.5733(2) -0.35352(15) 0.0419 Uani
H12 H -0.2600 0.5806 -0.3495 0.0500 Uiso
C24 C -0.8108(5) 0.60479(17) -0.29701(14) 0.0286 Uani
O3 O -0.9776(4) 0.59733(13) -0.30091(10) 0.0423 Uani
O4 O -0.7488(4) 0.63537(12) -0.26610(10) 0.0346 Uani
Fe1D Fe -1.0000 0.66036(3) -0.2500 0.0280 Uani
Fe1B Fe -0.5000 0.83964(3) -0.7500 0.0280 Uani
Fe1F Fe 0.5000 0.16036(3) -0.2500 0.0280 Uani
N1D N 0.0578(4) 0.52818(14) -0.55824(11) 0.0269 Uani
N2D N -0.2073(5) 0.54935(14) -0.49883(12) 0.0323 Uani
C1D C 0.1932(6) 0.51124(17) -0.58511(14) 0.0295 Uani
C2D C -0.0291(6) 0.56861(18) -0.58270(14) 0.0300 Uani
C3D C 0.1856(7) 0.5406(2) -0.62634(16) 0.0424 Uani
H1D H 0.2601 0.5357 -0.6500 0.0510 Uiso
C4D C 0.0516(6) 0.57636(19) -0.62440(15) 0.0401 Uani
H2D H 0.0173 0.6016 -0.6461 0.0480 Uiso
C5D C -0.1784(6) 0.59746(18) -0.56963(15) 0.0332 Uani
C6D C -0.2607(6) 0.58696(18) -0.53077(15) 0.0363 Uani
C7D C -0.4159(8) 0.6161(2) -0.51618(19) 0.0645 Uani
H3D H -0.4772 0.6435 -0.5317 0.0780 Uiso
C8D C -0.4552(8) 0.5968(2) -0.47662(18) 0.0656 Uani
H4D H -0.5488 0.6082 -0.4594 0.0780 Uiso
C9D C -0.3267(6) 0.55484(19) -0.46516(15) 0.0369 Uani
C10D C 0.3203(6) 0.47197(17) -0.57471(15) 0.0304 Uani
C11D C -0.2561(6) 0.64003(19) -0.60026(16) 0.0401 Uani
C12D C -0.4259(8) 0.6326(2) -0.62156(19) 0.0624 Uani
H5D H -0.4913 0.6016 -0.6166 0.0750 Uiso
C13D C -0.4974(8) 0.6712(3) -0.6501(2) 0.0802 Uani
H6D H -0.6128 0.6660 -0.6636 0.0960 Uiso
C14D C -0.4057(8) 0.7165(3) -0.6591(2) 0.0620 Uani
C15D C -0.2403(10) 0.7241(2) -0.63777(18) 0.0643 Uani
H7D H -0.1760 0.7551 -0.6435 0.0770 Uiso
C16D C -0.1628(8) 0.6866(2) -0.60719(18) 0.0555 Uani
H8D H -0.0513 0.6932 -0.5921 0.0670 Uiso
C17D C -0.4879(13) 0.7564(3) -0.6917(2) 0.0901 Uani
O1D O -0.3889(8) 0.79377(17) -0.70330(13) 0.0851 Uani
O1F O 1.1111(8) 0.29377(17) -0.70330(13) 0.0851 Uani
O1G O 0.8889(8) 0.29377(17) -0.79670(13) 0.0851 Uani
O2D O -0.6402(10) 0.7507(4) -0.7072(3) 0.2187 Uani
C18D C 0.4489(6) 0.45577(17) -0.60896(14) 0.0313 Uani
C19D C 0.6325(6) 0.4676(2) -0.60450(16) 0.0400 Uani
H9D H 0.6774 0.4879 -0.5803 0.0480 Uiso
C20D C 0.7495(6) 0.4496(2) -0.63550(16) 0.0401 Uani
H10D H 0.8725 0.4577 -0.6320 0.0480 Uiso
C21D C 0.6849(5) 0.41977(18) -0.67157(14) 0.0302 Uani
C22D C 0.4998(6) 0.4090(2) -0.67721(15) 0.0416 Uani
H11D H 0.4551 0.3897 -0.7020 0.0500 Uiso
C23D C 0.3834(6) 0.4267(2) -0.64648(15) 0.0419 Uani
H12D H 0.2600 0.4194 -0.6505 0.0500 Uiso
C24D C 0.8108(5) 0.39521(17) -0.70299(14) 0.0286 Uani
O3D O 0.9776(4) 0.40267(13) -0.69909(10) 0.0423 Uani
O3E O 1.0224(4) 0.40267(13) -0.80091(10) 0.0423 Uani
O4D O 0.7488(4) 0.36463(12) -0.73390(10) 0.0346 Uani
O4E O 1.2512(4) 0.36463(12) -0.76610(10) 0.0346 Uani
Cs1 Cs 0.5000 0.26083(3) -0.7500 0.1267 Uani
loop_
_atom_site_aniso_label
_atom_site_aniso_U_11
_atom_site_aniso_U_22
_atom_site_aniso_U_33
_atom_site_aniso_U_23
_atom_site_aniso_U_13
_atom_site_aniso_U_12
Fe1 0.0235 0.0271 0.0343 0 0.0093 0
Ni1 0.0248 0.0301 0.0206 0.0009 0.0044 0.0072
N1 0.0269 0.0277 0.0264 -0.0045 0.0042 0.0055
N2 0.0348 0.035 0.028 0.0055 0.0091 0.0129
C1 0.029 0.035 0.025 -0.0042 0.0046 0.0023
C2 0.032 0.034 0.024 0.0047 0.001 0.003
C3 0.045 0.051 0.033 0.009 0.018 0.003
C4 0.044 0.042 0.036 0.016 0.017 0.007
C5 0.031 0.036 0.033 0.012 0.005 0.0062
C6 0.04 0.038 0.032 0.006 0.011 0.018
C7 0.071 0.068 0.057 0.027 0.024 0.042
C8 0.07 0.083 0.047 0.013 0.031 0.048
C9 0.038 0.043 0.031 0.002 0.013 0.018
C10 0.027 0.029 0.036 -0.001 0.0096 0.0051
C11 0.043 0.038 0.04 0.014 0.009 0.012
C12 0.057 0.064 0.065 0.027 -0.008 0
C13 0.05 0.101 0.088 0.062 -0.011 0.003
C14 0.054 0.078 0.055 0.029 0.012 0.024
C15 0.107 0.037 0.05 0.017 0.015 0.005
C16 0.07 0.041 0.055 0.013 -0.001 -0.003
C17 0.114 0.091 0.067 0.041 0.02 0.035
O1 0.162 0.05 0.045 0.015 0.02 0.033
O2 0.107 0.32 0.224 0.207 -0.035 0.043
C18 0.034 0.036 0.025 -0.0019 0.0101 0.0063
C19 0.04 0.048 0.033 -0.017 0.011 -0.003
C20 0.024 0.055 0.042 -0.011 0.008 -0.007
C21 0.026 0.039 0.026 0.0008 0.0055 0.0004
C22 0.032 0.062 0.031 -0.012 0.004 0
C23 0.023 0.067 0.036 -0.015 0.004 0.001
C24 0.03 0.033 0.023 -0.002 0.0039 0.0026
O3 0.0274 0.058 0.0422 -0.0109 0.008 -0.0033
O4 0.0301 0.0422 0.032 -0.0084 0.0049 0.0014
Fe1D 0.0235 0.0271 0.0343 0 0.0093 0
Fe1B 0.0235 0.0271 0.0343 0 0.0093 0
Fe1F 0.0235 0.0271 0.0343 0 0.0093 0
N1D 0.0269 0.0277 0.0264 -0.0045 0.0042 0.0055
N2D 0.0348 0.035 0.028 0.0055 0.0091 0.0129
C1D 0.029 0.035 0.025 -0.0042 0.0046 0.0023
C2D 0.032 0.034 0.024 0.0047 0.001 0.003
C3D 0.045 0.051 0.033 0.009 0.018 0.003
C4D 0.044 0.042 0.036 0.016 0.017 0.007
C5D 0.031 0.036 0.033 0.012 0.005 0.0062
C6D 0.04 0.038 0.032 0.006 0.011 0.018
C7D 0.071 0.068 0.057 0.027 0.024 0.042
C8D 0.07 0.083 0.047 0.013 0.031 0.048
C9D 0.038 0.043 0.031 0.002 0.013 0.018
C10D 0.027 0.029 0.036 -0.001 0.0096 0.0051
C11D 0.043 0.038 0.04 0.014 0.009 0.012
C12D 0.057 0.064 0.065 0.027 -0.008 0
C13D 0.05 0.101 0.088 0.062 -0.011 0.003
C14D 0.054 0.078 0.055 0.029 0.012 0.024
C15D 0.107 0.037 0.05 0.017 0.015 0.005
C16D 0.07 0.041 0.055 0.013 -0.001 -0.003
C17D 0.114 0.091 0.067 0.041 0.02 0.035
O1D 0.162 0.05 0.045 0.015 0.02 0.033
O1F 0.162 0.05 0.045 0.015 0.02 0.033
O1G 0.162 0.05 0.045 -0.015 0.02 -0.033
O2D 0.107 0.32 0.224 0.207 -0.035 0.043
C18D 0.034 0.036 0.025 -0.0019 0.0101 0.0063
C19D 0.04 0.048 0.033 -0.017 0.011 -0.003
C20D 0.024 0.055 0.042 -0.011 0.008 -0.007
C21D 0.026 0.039 0.026 0.0008 0.0055 0.0004
C22D 0.032 0.062 0.031 -0.012 0.004 0
C23D 0.023 0.067 0.036 -0.015 0.004 0.001
C24D 0.03 0.033 0.023 -0.002 0.0039 0.0026
O3D 0.0274 0.058 0.0422 -0.0109 0.008 -0.0033
O3E 0.0274 0.058 0.0422 0.0109 0.008 0.0033
O4D 0.0301 0.0422 0.032 -0.0084 0.0049 0.0014
O4E 0.0301 0.0422 0.032 0.0084 0.0049 -0.0014
Cs1 0.0443 0.0524 0.2831 0 0.0065 0
loop_
_geom_bond_atom_site_label_1
_geom_bond_atom_site_label_2
_geom_bond_site_symmetry_1
_geom_bond_site_symmetry_2
Fe1 O1F 1_555 1_555
Ni1 N1 1_555 1_555
N1 C1 1_555 1_555
N2 Ni1 1_555 1_555
C1 C3 1_555 1_555
C2 N1 1_555 1_555
C3 H1 1_555 1_555
C4 C2 1_555 1_555
H2 C4 1_555 1_555
C5 C2 1_555 1_555
C6 N2 1_555 1_555
C7 C6 1_555 1_555
H3 C7 1_555 1_555
C8 C7 1_555 1_555
H4 C8 1_555 1_555
C9 N2 1_555 1_555
C10 C1 1_555 1_555
C11 C5 1_555 1_555
C12 C11 1_555 1_555
H5 C12 1_555 1_555
C13 C12 1_555 1_555
H6 C13 1_555 1_555
C14 C13 1_555 1_555
C15 C14 1_555 1_555
H7 C15 1_555 1_555
C16 C11 1_555 1_555
H8 C16 1_555 1_555
C17 C14 1_555 1_555
O1 C17 1_555 1_555
O2 C17 1_555 1_555
C18 C10 1_555 1_555
C19 C18 1_555 1_555
H9 C19 1_555 1_555
C20 C19 1_555 1_555
H10 C20 1_555 1_555
C21 C20 1_555 1_555
C22 C21 1_555 1_555
H11 C22 1_555 1_555
C23 C18 1_555 1_555
H12 C23 1_555 1_555
C24 C21 1_555 1_555
O3 C24 1_555 1_555
O4 C24 1_555 1_555
Fe1D O3 1_555 1_555
Fe1B O1D 1_555 1_555
Fe1F O1 1_555 1_555
N1D Ni1 1_555 1_555
N2D Ni1 1_555 1_555
C1D N1D 1_555 1_555
C2D N1D 1_555 1_555
C3D C1D 1_555 1_555
H1D C3D 1_555 1_555
C4D C2D 1_555 1_555
H2D C4D 1_555 1_555
C5D C2D 1_555 1_555
C6D N2D 1_555 1_555
C7D C6D 1_555 1_555
H3D C7D 1_555 1_555
C8D C7D 1_555 1_555
H4D C8D 1_555 1_555
C9D C10 1_555 1_555
C10D C9 1_555 1_555
C11D C5D 1_555 1_555
C12D C11D 1_555 1_555
H5D C12D 1_555 1_555
C13D C12D 1_555 1_555
H6D C13D 1_555 1_555
C14D C13D 1_555 1_555
C15D C14D 1_555 1_555
H7D C15D 1_555 1_555
C16D C11D 1_555 1_555
H8D C16D 1_555 1_555
C17D C14D 1_555 1_555
O1D C17D 1_555 1_555
O1G Fe1 1_555 1_555
O2D C17D 1_555 1_555
C18D C10D 1_555 1_555
C19D C18D 1_555 1_555
H9D C19D 1_555 1_555
C20D C19D 1_555 1_555
H10D C20D 1_555 1_555
C21D C20D 1_555 1_555
C22D C21D 1_555 1_555
H11D C22D 1_555 1_555
C23D C18D 1_555 1_555
H12D C23D 1_555 1_555
C24D C21D 1_555 1_555
O3D Fe1 1_555 1_555
O3E Fe1 1_555 1_555
O4D Fe1 1_555 1_555
O4E Fe1 1_555 1_555
C3 C4 1_555 1_555
C5 C6 1_555 1_555
C8 C9 1_555 1_555
C15 C16 1_555 1_555
C22 C23 1_555 1_555
O4 Fe1D 1_555 1_555
N2D C9D 1_555 1_555
C1D C10D 1_555 1_555
C3D C4D 1_555 1_555
C5D C6D 1_555 1_555
C8D C9D 1_555 1_555
C15D C16D 1_555 1_555
C22D C23D 1_555 1_555
C24D O3D 1_555 1_555
C24D O4D 1_555 1_555

#END
