
#######################################################################
#
#                 Cambridge Crystallographic Data Centre
#                                CCDC 
#
#######################################################################
#
# If this CIF has been generated from an entry in the Cambridge 
# Structural Database, then it will include bibliographic, chemical, 
# crystal, experimental, refinement or atomic coordinate data resulting 
# from the CCDC's data processing and validation procedures.
#
#######################################################################

data_PAQTOS01
_chemical_formula_moiety         '(C48 H24 Fe1 N4 Ni1 O8 Rb1)n'
_symmetry_cell_setting           monoclinic
_symmetry_space_group_name_H-M   'C 2/c'
_symmetry_Int_Tables_number      15
_space_group_name_Hall           '-C 2yc'
loop_
_symmetry_equiv_pos_site_id
_symmetry_equiv_pos_as_xyz
1 x,y,z
2 -x,y,1/2-z
3 1/2+x,1/2+y,z
4 1/2-x,1/2+y,1/2-z
5 -x,-y,-z
6 x,-y,1/2+z
7 1/2-x,1/2-y,-z
8 1/2+x,1/2-y,1/2+z
_cell_length_a                   7.366(3)
_cell_length_b                   25.065(10)
_cell_length_c                   30.377(12)
_cell_angle_alpha                90
_cell_angle_beta                 93.030(8)
_cell_angle_gamma                90
_cell_volume                     5600.63
loop_
_atom_site_label
_atom_site_type_symbol
_atom_site_fract_x
_atom_site_fract_y
_atom_site_fract_z
_atom_site_U_iso_or_equiv
_atom_site_thermal_displace_type
Ni1 Ni -0.5000 0.0000 -0.5000 0.0318 Uani
Fe1 Fe -1.5000 -0.16221(4) -0.2500 0.0409 Uani
N1 N -0.2915(5) 0.04872(15) -0.50102(12) 0.0379 Uani
N2 N -0.5569(5) 0.02803(15) -0.44141(11) 0.0338 Uani
C1 C -0.1704(7) 0.0556(2) -0.53435(16) 0.0499 Uani
C2 C -0.0383(10) 0.0948(3) -0.5219(2) 0.0904 Uani
H1 H 0.0616 0.1041 -0.5377 0.1080 Uiso
C3 C -0.0819(10) 0.1160(3) -0.4837(2) 0.0878 Uani
H2 H -0.0240 0.1444 -0.4690 0.1050 Uiso
C4 C -0.2368(7) 0.0865(2) -0.46944(16) 0.0479 Uani
C5 C -0.3186(7) 0.0966(2) -0.43052(15) 0.0428 Uani
C6 C -0.4702(6) 0.0674(2) -0.41807(14) 0.0383 Uani
C7 C -0.5523(7) 0.0747(2) -0.37599(16) 0.0544 Uani
H3 H -0.5185 0.0996 -0.3544 0.0650 Uiso
C8 C -0.6850(7) 0.0390(2) -0.37435(16) 0.0482 Uani
H4 H -0.7595 0.0337 -0.3510 0.0580 Uiso
C9 C -0.6926(6) 0.0102(2) -0.41503(13) 0.0370 Uani
C10 C -0.1784(6) 0.0288(2) -0.57411(14) 0.0380 Uani
C11 C -0.2398(8) 0.1384(2) -0.39936(17) 0.0526 Uani
C12 C -0.3366(12) 0.1870(3) -0.3917(2) 0.0817 Uani
H5 H -0.4487 0.1938 -0.4061 0.0980 Uiso
C13 C -0.2573(16) 0.2234(3) -0.3620(3) 0.0996 Uani
H6 H -0.3189 0.2549 -0.3565 0.1200 Uiso
C14 C -0.0870(13) 0.2144(3) -0.3401(2) 0.0826 Uani
C15 C 0.0038(11) 0.1695(4) -0.3495(3) 0.1024 Uani
H7 H 0.1197 0.1642 -0.3366 0.1230 Uiso
C16 C -0.0695(9) 0.1308(3) -0.3779(2) 0.0756 Uani
H8 H -0.0048 0.0997 -0.3826 0.0910 Uiso
C17 C 0.0049(18) 0.2545(4) -0.3072(3) 0.1132 Uani
O1 O -0.1058(12) 0.2922(2) -0.29578(16) 0.1344 Uani
O2 O 0.1611(14) 0.2439(4) -0.2926(3) 0.2094 Uani
C18 C -0.0526(6) 0.0459(2) -0.60913(14) 0.0387 Uani
C19 C 0.1340(7) 0.0342(2) -0.60451(16) 0.0508 Uani
H9 H 0.1792 0.0139 -0.5808 0.0610 Uiso
C20 C 0.2524(7) 0.0533(2) -0.63576(15) 0.0462 Uani
H10 H 0.3761 0.0460 -0.6324 0.0550 Uiso
C21 C 0.1856(6) 0.08266(19) -0.67116(14) 0.0373 Uani
C22 C -0.0025(7) 0.0933(2) -0.67681(15) 0.0495 Uani
H11 H -0.0482 0.1129 -0.7009 0.0600 Uiso
C23 C -0.1189(7) 0.0738(3) -0.64569(17) 0.0561 Uani
H12 H -0.2433 0.0798 -0.6497 0.0670 Uiso
C24 C 0.3090(6) 0.10650(18) -0.70349(14) 0.0345 Uani
O3 O 0.4786(4) 0.10021(14) -0.69958(11) 0.0492 Uani
O4 O 0.2461(4) 0.13800(14) -0.73346(10) 0.0431 Uani
Fe1D Fe 0.5000 0.16221(4) -0.7500 0.0409 Uani
Fe1F Fe -1.0000 -0.33779(4) -0.7500 0.0409 Uani
Fe1B Fe -0.0000 0.33779(4) -0.2500 0.0409 Uani
N1D N -0.7085(5) -0.04872(15) -0.49898(12) 0.0379 Uani
N2D N -0.4431(5) -0.02803(15) -0.55859(11) 0.0338 Uani
C1D C -0.8296(7) -0.0556(2) -0.46565(16) 0.0499 Uani
C2D C -0.9617(10) -0.0948(3) -0.4781(2) 0.0904 Uani
H1D H -1.0616 -0.1041 -0.4623 0.1080 Uiso
C3D C -0.9181(10) -0.1160(3) -0.5163(2) 0.0878 Uani
H2D H -0.9760 -0.1444 -0.5310 0.1050 Uiso
C4D C -0.7632(7) -0.0865(2) -0.53056(16) 0.0479 Uani
C5D C -0.6814(7) -0.0966(2) -0.56948(15) 0.0428 Uani
C6D C -0.5298(6) -0.0674(2) -0.58193(14) 0.0383 Uani
C7D C -0.4477(7) -0.0747(2) -0.62401(16) 0.0544 Uani
H3D H -0.4815 -0.0996 -0.6456 0.0650 Uiso
C8D C -0.3150(7) -0.0390(2) -0.62565(16) 0.0482 Uani
H4D H -0.2405 -0.0337 -0.6490 0.0580 Uiso
C9D C -0.3074(6) -0.0102(2) -0.58497(13) 0.0370 Uani
C10D C -0.8216(6) -0.0288(2) -0.42589(14) 0.0380 Uani
C11D C -0.7602(8) -0.1384(2) -0.60064(17) 0.0526 Uani
C12D C -0.6634(12) -0.1870(3) -0.6083(2) 0.0817 Uani
H5D H -0.5513 -0.1938 -0.5939 0.0980 Uiso
C13D C -0.7427(16) -0.2234(3) -0.6380(3) 0.0996 Uani
H6D H -0.6811 -0.2549 -0.6435 0.1200 Uiso
C14D C -0.9130(13) -0.2144(3) -0.6599(2) 0.0826 Uani
C15D C -1.0038(11) -0.1695(4) -0.6505(3) 0.1024 Uani
H7D H -1.1197 -0.1642 -0.6634 0.1230 Uiso
C16D C -0.9305(9) -0.1308(3) -0.6221(2) 0.0756 Uani
H8D H -0.9952 -0.0997 -0.6174 0.0910 Uiso
C17D C -1.0049(18) -0.2545(4) -0.6928(3) 0.1132 Uani
O1D O -0.8942(12) -0.2922(2) -0.70422(16) 0.1344 Uani
O1B O -1.6058(12) -0.2078(2) -0.29578(16) 0.1344 Uani
O1C O -1.3942(12) -0.2078(2) -0.20422(16) 0.1344 Uani
O2D O -1.1611(14) -0.2439(4) -0.7074(3) 0.2094 Uani
C18D C -0.9474(6) -0.0459(2) -0.39087(14) 0.0387 Uani
C19D C -1.1340(7) -0.0342(2) -0.39549(16) 0.0508 Uani
H9D H -1.1792 -0.0139 -0.4192 0.0610 Uiso
C20D C -1.2524(7) -0.0533(2) -0.36424(15) 0.0462 Uani
H10D H -1.3761 -0.0460 -0.3676 0.0550 Uiso
C21D C -1.1856(6) -0.08266(19) -0.32884(14) 0.0373 Uani
C22D C -0.9975(7) -0.0933(2) -0.32319(15) 0.0495 Uani
H11D H -0.9518 -0.1129 -0.2991 0.0600 Uiso
C23D C -0.8811(7) -0.0738(3) -0.35431(17) 0.0561 Uani
H12D H -0.7567 -0.0798 -0.3503 0.0670 Uiso
C24D C -1.3090(6) -0.10650(18) -0.29651(14) 0.0345 Uani
O3D O -1.4786(4) -0.10021(14) -0.30042(11) 0.0492 Uani
O3E O -1.5214(4) -0.10021(14) -0.19958(11) 0.0492 Uani
O4D O -1.2461(4) -0.13800(14) -0.26654(10) 0.0431 Uani
O4E O -1.7539(4) -0.13800(14) -0.23346(10) 0.0431 Uani
Rb1 Rb -0.5000 0.26365(5) -0.2500 0.1360 Uani
loop_
_atom_site_aniso_label
_atom_site_aniso_U_11
_atom_site_aniso_U_22
_atom_site_aniso_U_33
_atom_site_aniso_U_23
_atom_site_aniso_U_13
_atom_site_aniso_U_12
Ni1 0.0313 0.0422 0.0229 -0.0043 0.0096 -0.0058
Fe1 0.0525 0.04 0.0323 0 0.0214 0
N1 0.041 0.046 0.0278 -0.0049 0.013 -0.01
N2 0.031 0.044 0.0275 -0.0046 0.0131 -0.005
C1 0.046 0.075 0.03 -0.003 0.014 -0.02
C2 0.107 0.107 0.062 -0.045 0.049 -0.074
C3 0.12 0.091 0.057 -0.039 0.047 -0.072
C4 0.05 0.06 0.035 -0.012 0.014 -0.021
C5 0.049 0.046 0.034 -0.013 0.008 -0.007
C6 0.041 0.049 0.026 -0.007 0.0112 0.002
C7 0.06 0.067 0.038 -0.017 0.02 -0.004
C8 0.044 0.066 0.036 -0.016 0.016 -0.011
C9 0.032 0.059 0.021 -0.001 0.0099 0.001
C10 0.033 0.055 0.027 0.002 0.0105 -0.003
C11 0.063 0.057 0.039 -0.016 0.013 -0.013
C12 0.127 0.056 0.062 -0.021 0.005 0.006
C13 0.191 0.042 0.068 -0.023 0.028 -0.008
C14 0.11 0.083 0.057 -0.026 0.024 -0.041
C15 0.077 0.139 0.091 -0.06 0.002 -0.028
C16 0.056 0.094 0.077 -0.039 0.004 -0.017
C17 0.168 0.116 0.059 -0.025 0.038 -0.037
O1 0.3 0.06 0.044 -0.014 0.018 -0.05
O2 0.15 0.254 0.221 -0.155 -0.02 -0.047
C18 0.032 0.061 0.024 -0.005 0.0106 -0.007
C19 0.046 0.07 0.038 0.023 0.016 0.007
C20 0.038 0.07 0.032 0.01 0.015 0.003
C21 0.036 0.052 0.025 -0.001 0.0109 0
C22 0.048 0.071 0.03 0.016 0.008 0.003
C23 0.025 0.103 0.041 0.016 0.007 -0.005
C24 0.04 0.04 0.024 -0.0005 0.0052 -0.002
O3 0.037 0.07 0.0423 0.0165 0.019 0.0073
O4 0.0403 0.059 0.0305 0.0092 0.0055 -0.0051
Fe1D 0.0525 0.04 0.0323 0 0.0214 0
Fe1F 0.0525 0.04 0.0323 0 0.0214 0
Fe1B 0.0525 0.04 0.0323 0 0.0214 0
N1D 0.041 0.046 0.0278 -0.0049 0.013 -0.01
N2D 0.031 0.044 0.0275 -0.0046 0.0131 -0.005
C1D 0.046 0.075 0.03 -0.003 0.014 -0.02
C2D 0.107 0.107 0.062 -0.045 0.049 -0.074
C3D 0.12 0.091 0.057 -0.039 0.047 -0.072
C4D 0.05 0.06 0.035 -0.012 0.014 -0.021
C5D 0.049 0.046 0.034 -0.013 0.008 -0.007
C6D 0.041 0.049 0.026 -0.007 0.0112 0.002
C7D 0.06 0.067 0.038 -0.017 0.02 -0.004
C8D 0.044 0.066 0.036 -0.016 0.016 -0.011
C9D 0.032 0.059 0.021 -0.001 0.0099 0.001
C10D 0.033 0.055 0.027 0.002 0.0105 -0.003
C11D 0.063 0.057 0.039 -0.016 0.013 -0.013
C12D 0.127 0.056 0.062 -0.021 0.005 0.006
C13D 0.191 0.042 0.068 -0.023 0.028 -0.008
C14D 0.11 0.083 0.057 -0.026 0.024 -0.041
C15D 0.077 0.139 0.091 -0.06 0.002 -0.028
C16D 0.056 0.094 0.077 -0.039 0.004 -0.017
C17D 0.168 0.116 0.059 -0.025 0.038 -0.037
O1D 0.3 0.06 0.044 -0.014 0.018 -0.05
O1B 0.3 0.06 0.044 -0.014 0.018 -0.05
O1C 0.3 0.06 0.044 0.014 0.018 0.05
O2D 0.15 0.254 0.221 -0.155 -0.02 -0.047
C18D 0.032 0.061 0.024 -0.005 0.0106 -0.007
C19D 0.046 0.07 0.038 0.023 0.016 0.007
C20D 0.038 0.07 0.032 0.01 0.015 0.003
C21D 0.036 0.052 0.025 -0.001 0.0109 0
C22D 0.048 0.071 0.03 0.016 0.008 0.003
C23D 0.025 0.103 0.041 0.016 0.007 -0.005
C24D 0.04 0.04 0.024 -0.0005 0.0052 -0.002
O3D 0.037 0.07 0.0423 0.0165 0.019 0.0073
O3E 0.037 0.07 0.0423 -0.0165 0.019 -0.0073
O4D 0.0403 0.059 0.0305 0.0092 0.0055 -0.0051
O4E 0.0403 0.059 0.0305 -0.0092 0.0055 0.0051
Rb1 0.0972 0.0895 0.2193 0 -0.0112 0
loop_
_geom_bond_atom_site_label_1
_geom_bond_atom_site_label_2
_geom_bond_site_symmetry_1
_geom_bond_site_symmetry_2
Ni1 N1 1_555 1_555
Fe1 O1B 1_555 1_555
N1 C1 1_555 1_555
N2 Ni1 1_555 1_555
C1 C2 1_555 1_555
C2 H1 1_555 1_555
C3 C2 1_555 1_555
H2 C3 1_555 1_555
C4 N1 1_555 1_555
C5 C4 1_555 1_555
C6 N2 1_555 1_555
C7 C6 1_555 1_555
H3 C7 1_555 1_555
C8 C7 1_555 1_555
H4 C8 1_555 1_555
C9 N2 1_555 1_555
C10 C1 1_555 1_555
C11 C5 1_555 1_555
C12 C11 1_555 1_555
H5 C12 1_555 1_555
C13 C12 1_555 1_555
H6 C13 1_555 1_555
C14 C13 1_555 1_555
C15 C14 1_555 1_555
H7 C15 1_555 1_555
C16 C11 1_555 1_555
H8 C16 1_555 1_555
C17 C14 1_555 1_555
O1 C17 1_555 1_555
O2 C17 1_555 1_555
C18 C10 1_555 1_555
C19 C18 1_555 1_555
H9 C19 1_555 1_555
C20 C19 1_555 1_555
H10 C20 1_555 1_555
C21 C20 1_555 1_555
C22 C21 1_555 1_555
H11 C22 1_555 1_555
C23 C18 1_555 1_555
H12 C23 1_555 1_555
C24 C21 1_555 1_555
O3 C24 1_555 1_555
O4 C24 1_555 1_555
Fe1D O3 1_555 1_555
Fe1F O1D 1_555 1_555
Fe1B O1 1_555 1_555
N1D Ni1 1_555 1_555
N2D Ni1 1_555 1_555
C1D N1D 1_555 1_555
C2D C1D 1_555 1_555
H1D C2D 1_555 1_555
C3D C2D 1_555 1_555
H2D C3D 1_555 1_555
C4D N1D 1_555 1_555
C5D C4D 1_555 1_555
C6D N2D 1_555 1_555
C7D C6D 1_555 1_555
H3D C7D 1_555 1_555
C8D C7D 1_555 1_555
H4D C8D 1_555 1_555
C9D C10 1_555 1_555
C10D C9 1_555 1_555
C11D C5D 1_555 1_555
C12D C11D 1_555 1_555
H5D C12D 1_555 1_555
C13D C12D 1_555 1_555
H6D C13D 1_555 1_555
C14D C13D 1_555 1_555
C15D C14D 1_555 1_555
H7D C15D 1_555 1_555
C16D C11D 1_555 1_555
H8D C16D 1_555 1_555
C17D C14D 1_555 1_555
O1D C17D 1_555 1_555
O1C Fe1 1_555 1_555
O2D C17D 1_555 1_555
C18D C10D 1_555 1_555
C19D C18D 1_555 1_555
H9D C19D 1_555 1_555
C20D C19D 1_555 1_555
H10D C20D 1_555 1_555
C21D C20D 1_555 1_555
C22D C21D 1_555 1_555
H11D C22D 1_555 1_555
C23D C18D 1_555 1_555
H12D C23D 1_555 1_555
C24D C21D 1_555 1_555
O3D Fe1 1_555 1_555
O3E Fe1 1_555 1_555
O4D Fe1 1_555 1_555
O4E Fe1 1_555 1_555
C3 C4 1_555 1_555
C5 C6 1_555 1_555
C8 C9 1_555 1_555
C15 C16 1_555 1_555
C22 C23 1_555 1_555
O4 Fe1D 1_555 1_555
N2D C9D 1_555 1_555
C1D C10D 1_555 1_555
C3D C4D 1_555 1_555
C5D C6D 1_555 1_555
C8D C9D 1_555 1_555
C15D C16D 1_555 1_555
C22D C23D 1_555 1_555
C24D O3D 1_555 1_555
C24D O4D 1_555 1_555

#END
