
#######################################################################
#
#                 Cambridge Crystallographic Data Centre
#                                CCDC 
#
#######################################################################
#
# If this CIF has been generated from an entry in the Cambridge 
# Structural Database, then it will include bibliographic, chemical, 
# crystal, experimental, refinement or atomic coordinate data resulting 
# from the CCDC's data processing and validation procedures.
#
#######################################################################

data_PAQTOS
_chemical_formula_moiety         '(C51 H31 Fe1 N5 Ni1 O9 Rb2 1-)n'
_symmetry_cell_setting           monoclinic
_symmetry_space_group_name_H-M   'C 2/c'
_symmetry_Int_Tables_number      15
_space_group_name_Hall           '-C 2yc'
loop_
_symmetry_equiv_pos_site_id
_symmetry_equiv_pos_as_xyz
1 x,y,z
2 -x,y,1/2-z
3 1/2+x,1/2+y,z
4 1/2-x,1/2+y,1/2-z
5 -x,-y,-z
6 x,-y,1/2+z
7 1/2-x,1/2-y,-z
8 1/2+x,1/2-y,1/2+z
_cell_length_a                   7.2383(4)
_cell_length_b                   24.6730(13)
_cell_length_c                   30.0729(17)
_cell_angle_alpha                90
_cell_angle_beta                 94.671(2)
_cell_angle_gamma                90
_cell_volume                     5352.9
loop_
_atom_site_label
_atom_site_type_symbol
_atom_site_fract_x
_atom_site_fract_y
_atom_site_fract_z
_atom_site_U_iso_or_equiv
_atom_site_thermal_displace_type
Rb1 Rb -0.5006(3) 0.22847(7) 0.26939(8) 0.0632 Uani
Rb1A Rb -0.4994(3) 0.22847(7) 0.23061(8) 0.0632 Uani
O6 O -0.338(5) 0.2037(17) 0.3751(10) 0.3660 Uiso
C28 C -0.264(3) 0.2024(10) 0.4144(8) 0.1450 Uiso
N4 N -0.092(3) 0.1867(8) 0.4359(7) 0.1510 Uiso
C29 C 0.004(7) 0.218(2) 0.4742(15) 0.3600 Uiso
C30 C 0.046(2) 0.1549(7) 0.4145(6) 0.1050 Uiso
Fe1 Fe 0.0000 0.15416(5) 0.2500 0.0222 Uani
Ni1 Ni -1.0000 0.0000 0.5000 0.0161 Uani
C1 C -0.7324(10) 0.0882(3) 0.5299(2) 0.0311 Uani
C2 C -0.5753(13) 0.1177(4) 0.5169(3) 0.0537 Uani
H1 H -0.5139 0.1457 0.5326 0.0640 Uiso
C3 C -0.5332(13) 0.0966(4) 0.4774(3) 0.0503 Uani
H2 H -0.4365 0.1071 0.4608 0.0600 Uiso
C4 C -0.6681(10) 0.0546(3) 0.4662(2) 0.0299 Uani
N1 N -0.7906(7) 0.0497(2) 0.49910(16) 0.0216 Uani
C5 C -0.6767(8) 0.0266(3) 0.42641(19) 0.0236 Uani
C6 C -0.8068(9) -0.0130(3) 0.4161(2) 0.0252 Uani
C7 C -0.8155(10) -0.0436(3) 0.3751(2) 0.0328 Uani
H3 H -0.7394 -0.0393 0.3519 0.0390 Uiso
C8 C -0.9536(9) -0.0795(3) 0.3767(2) 0.0325 Uani
H4 H -0.9923 -0.1046 0.3548 0.0390 Uiso
C9 C -1.0310(9) -0.0716(3) 0.4191(2) 0.0256 Uani
N2 N -0.9409(7) -0.0302(2) 0.44298(16) 0.0200 Uani
C10 C -0.8182(9) 0.1008(3) 0.5684(2) 0.0258 Uani
C11 C -0.5475(8) 0.0425(3) 0.3925(2) 0.0250 Uani
C12 C -0.3585(9) 0.0304(3) 0.3977(2) 0.0279 Uani
H5 H -0.3100 0.0109 0.4224 0.0340 Uiso
C13 C -0.2440(9) 0.0477(3) 0.3659(2) 0.0260 Uani
H6 H -0.1180 0.0399 0.3696 0.0310 Uiso
C14 C -0.3135(8) 0.0764(3) 0.3288(2) 0.0243 Uani
C15 C -0.5022(10) 0.0868(4) 0.3228(2) 0.0374 Uani
H7 H -0.5505 0.1054 0.2976 0.0450 Uiso
C16 C -0.6193(9) 0.0696(4) 0.3544(2) 0.0380 Uani
H8 H -0.7459 0.0763 0.3501 0.0450 Uiso
C17 C -0.1893(8) 0.0997(2) 0.29669(18) 0.0188 Uani
O1 O -0.0190(6) 0.0909(2) 0.30010(14) 0.0266 Uani
O2 O -0.2568(6) 0.13181(19) 0.26623(13) 0.0241 Uani
C18 C -0.7375(11) 0.1433(3) 0.5995(2) 0.0339 Uani
C19 C -0.8337(14) 0.1897(3) 0.6072(3) 0.0486 Uani
H9 H -0.9496 0.1960 0.5924 0.0580 Uiso
C20 C -0.7542(17) 0.2276(4) 0.6379(4) 0.0618 Uani
H10 H -0.8176 0.2594 0.6432 0.0740 Uiso
C21 C -0.5832(15) 0.2182(4) 0.6601(3) 0.0607 Uani
C22 C -0.4857(14) 0.1738(5) 0.6513(4) 0.0660 Uani
H11 H -0.3677 0.1683 0.6652 0.0790 Uiso
C23 C -0.5640(12) 0.1360(4) 0.6210(3) 0.0516 Uani
H12 H -0.4974 0.1049 0.6152 0.0620 Uiso
C24 C -0.4790(18) 0.2600(6) 0.6950(4) 0.0804 Uani
O3 O -0.3340(15) 0.2473(5) 0.7134(4) 0.1320 Uani
O4 O -0.5935(11) 0.2976(3) 0.7032(2) 0.0617 Uani
Fe1F Fe -0.5000 0.34584(5) 0.7500 0.0222 Uani
Fe1B Fe -1.5000 -0.34584(5) 0.2500 0.0222 Uani
Fe1D Fe -2.0000 -0.15416(5) 0.7500 0.0222 Uani
C1D C -1.2676(10) -0.0882(3) 0.4701(2) 0.0311 Uani
C2D C -1.4247(13) -0.1177(4) 0.4831(3) 0.0537 Uani
H1D H -1.4861 -0.1457 0.4674 0.0640 Uiso
C3D C -1.4668(13) -0.0966(4) 0.5226(3) 0.0503 Uani
H2D H -1.5635 -0.1071 0.5392 0.0600 Uiso
C4D C -1.3319(10) -0.0546(3) 0.5338(2) 0.0299 Uani
N1D N -1.2094(7) -0.0497(2) 0.50090(16) 0.0216 Uani
C5D C -1.3233(8) -0.0266(3) 0.57359(19) 0.0236 Uani
C6D C -1.1932(9) 0.0130(3) 0.5839(2) 0.0252 Uani
C7D C -1.1845(10) 0.0436(3) 0.6249(2) 0.0328 Uani
H3D H -1.2606 0.0393 0.6481 0.0390 Uiso
C8D C -1.0464(9) 0.0795(3) 0.6233(2) 0.0325 Uani
H4D H -1.0077 0.1046 0.6452 0.0390 Uiso
C9D C -0.9690(9) 0.0716(3) 0.5809(2) 0.0256 Uani
N2D N -1.0591(7) 0.0302(2) 0.55702(16) 0.0200 Uani
C10D C -1.1818(9) -0.1008(3) 0.4316(2) 0.0258 Uani
C11D C -1.4525(8) -0.0425(3) 0.6075(2) 0.0250 Uani
C12D C -1.6415(9) -0.0304(3) 0.6023(2) 0.0279 Uani
H5D H -1.6900 -0.0109 0.5776 0.0340 Uiso
C13D C -1.7560(9) -0.0477(3) 0.6341(2) 0.0260 Uani
H6D H -1.8820 -0.0399 0.6304 0.0310 Uiso
C14D C -1.6865(8) -0.0764(3) 0.6712(2) 0.0243 Uani
C15D C -1.4978(10) -0.0868(4) 0.6772(2) 0.0374 Uani
H7D H -1.4495 -0.1054 0.7024 0.0450 Uiso
C16D C -1.3807(9) -0.0696(4) 0.6456(2) 0.0380 Uani
H8D H -1.2541 -0.0763 0.6499 0.0450 Uiso
C17D C -1.8107(8) -0.0997(2) 0.70331(18) 0.0188 Uani
O1D O -1.9810(6) -0.0909(2) 0.69990(14) 0.0266 Uani
O1A O 0.0190(6) 0.0909(2) 0.19990(14) 0.0266 Uani
O2D O -1.7432(6) -0.13181(19) 0.73377(13) 0.0241 Uani
O2A O 0.2568(6) 0.13181(19) 0.23377(13) 0.0241 Uani
C18D C -1.2625(11) -0.1433(3) 0.4005(2) 0.0339 Uani
C19D C -1.1663(14) -0.1897(3) 0.3928(3) 0.0486 Uani
H9D H -1.0504 -0.1960 0.4076 0.0580 Uiso
C20D C -1.2458(17) -0.2276(4) 0.3621(4) 0.0618 Uani
H10D H -1.1824 -0.2594 0.3568 0.0740 Uiso
C21D C -1.4168(15) -0.2182(4) 0.3399(3) 0.0607 Uani
C22D C -1.5143(14) -0.1738(5) 0.3487(4) 0.0660 Uani
H11D H -1.6323 -0.1683 0.3348 0.0790 Uiso
C23D C -1.4360(12) -0.1360(4) 0.3790(3) 0.0516 Uani
H12D H -1.5026 -0.1049 0.3848 0.0620 Uiso
C24D C -1.5210(18) -0.2600(6) 0.3050(4) 0.0804 Uani
O3D O -1.6660(15) -0.2473(5) 0.2866(4) 0.1320 Uani
O4D O -1.4065(11) -0.2976(3) 0.2968(2) 0.0617 Uani
O4F O 0.0935(11) 0.2024(3) 0.2968(2) 0.0617 Uani
O4G O -0.0935(11) 0.2024(3) 0.2032(2) 0.0617 Uani
loop_
_atom_site_aniso_label
_atom_site_aniso_U_11
_atom_site_aniso_U_22
_atom_site_aniso_U_33
_atom_site_aniso_U_23
_atom_site_aniso_U_13
_atom_site_aniso_U_12
Rb1 0.0330(8) 0.0289(7) 0.127(2) -0.0042(8) 0.0018(13) -0.0030(7)
Rb1A 0.033 0.0289 0.127 0.0042 0.0018 0.003
Fe1 0.0201(6) 0.0201(6) 0.0274(6) 0.000 0.0081(5) 0.000
Ni1 0.0156(5) 0.0196(5) 0.0131(4) 0.0009(4) 0.0012(3) -0.0029(4)
C1 0.036(4) 0.032(4) 0.026(3) -0.004(3) 0.007(3) -0.014(3)
C2 0.063(6) 0.061(6) 0.039(4) -0.014(4) 0.016(4) -0.046(5)
C3 0.062(5) 0.060(5) 0.031(4) -0.005(4) 0.016(4) -0.038(5)
C4 0.033(3) 0.037(4) 0.020(3) 0.002(3) 0.004(2) -0.008(3)
N1 0.021(2) 0.025(3) 0.019(2) 0.002(2) 0.0026(19) -0.008(2)
C5 0.015(3) 0.038(4) 0.018(3) 0.007(2) 0.003(2) 0.002(2)
C6 0.021(3) 0.035(3) 0.020(3) -0.001(2) 0.005(2) 0.002(2)
C7 0.027(3) 0.046(4) 0.027(3) -0.008(3) 0.012(3) -0.002(3)
C8 0.025(3) 0.044(4) 0.029(3) -0.017(3) 0.006(3) 0.002(3)
C9 0.024(3) 0.028(3) 0.025(3) -0.002(2) 0.004(2) 0.006(2)
N2 0.020(2) 0.022(2) 0.018(2) -0.0006(19) 0.0012(18) 0.0027(19)
C10 0.03 0.021 0.026 -0.002 0 -0.007
C11 0.018(3) 0.038(3) 0.019(3) 0.008(3) 0.001(2) -0.003(3)
C12 0.024(3) 0.035(4) 0.025(3) 0.009(3) 0.004(2) 0.003(3)
C13 0.019(3) 0.033(3) 0.026(3) 0.006(3) 0.002(2) 0.003(2)
C14 0.017(3) 0.035(3) 0.021(3) 0.007(2) 0.002(2) -0.003(2)
C15 0.027(3) 0.064(5) 0.021(3) 0.025(3) 0.000(3) 0.004(3)
C16 0.016(3) 0.076(6) 0.022(3) 0.018(3) 0.002(2) 0.001(3)
C17 0.019(3) 0.024(3) 0.014(2) -0.003(2) 0.005(2) -0.005(2)
O1 0.018(2) 0.039(3) 0.023(2) 0.0070(19) 0.0031(16) -0.0016(19)
O2 0.019(2) 0.035(2) 0.0184(19) 0.0059(18) 0.0021(16) -0.0001(18)
C18 0.041 0.028 0.033 -0.012 0.005 -0.011
C19 0.07 0.032 0.042 -0.003 -0.006 0.001
C20 0.094 0.027 0.065 -0.015 0.011 0
C21 0.065 0.056 0.062 -0.027 0.011 -0.036
C22 0.045 0.089 0.063 -0.045 -0.001 -0.016
C23 0.037 0.062 0.056 -0.026 0.005 -0.007
C24 0.079 0.105 0.056 -0.002 -0.001 0.055
O3 0.094 0.118 0.173 -0.094 -0.056 0.014
O4 0.084 0.048 0.053 -0.007 0.005 -0.016
Fe1F 0.0201 0.0201 0.0274 0 0.0081 0
Fe1B 0.0201 0.0201 0.0274 0 0.0081 0
Fe1D 0.0201 0.0201 0.0274 0 0.0081 0
C1D 0.036 0.032 0.026 -0.004 0.007 -0.014
C2D 0.063 0.061 0.039 -0.014 0.016 -0.046
C3D 0.062 0.06 0.031 -0.005 0.016 -0.038
C4D 0.033 0.037 0.02 0.002 0.004 -0.008
N1D 0.021 0.025 0.019 0.002 0.0026 -0.008
C5D 0.015 0.038 0.018 0.007 0.003 0.002
C6D 0.021 0.035 0.02 -0.001 0.005 0.002
C7D 0.027 0.046 0.027 -0.008 0.012 -0.002
C8D 0.025 0.044 0.029 -0.017 0.006 0.002
C9D 0.024 0.028 0.025 -0.002 0.004 0.006
N2D 0.02 0.022 0.018 -0.0006 0.0012 0.0027
C10D 0.030(3) 0.021(3) 0.026(3) -0.002(2) 0.000(2) -0.007(2)
C11D 0.018 0.038 0.019 0.008 0.001 -0.003
C12D 0.024 0.035 0.025 0.009 0.004 0.003
C13D 0.019 0.033 0.026 0.006 0.002 0.003
C14D 0.017 0.035 0.021 0.007 0.002 -0.003
C15D 0.027 0.064 0.021 0.025 0 0.004
C16D 0.016 0.076 0.022 0.018 0.002 0.001
C17D 0.019 0.024 0.014 -0.003 0.005 -0.005
O1D 0.018 0.039 0.023 0.007 0.0031 -0.0016
O1A 0.018 0.039 0.023 -0.007 0.0031 0.0016
O2D 0.019 0.035 0.0184 0.0059 0.0021 -0.0001
O2A 0.019 0.035 0.0184 -0.0059 0.0021 0.0001
C18D 0.041(4) 0.028(3) 0.033(3) -0.012(3) 0.005(3) -0.011(3)
C19D 0.070(6) 0.032(4) 0.042(4) -0.003(3) -0.006(4) 0.001(4)
C20D 0.094(8) 0.027(4) 0.065(6) -0.015(4) 0.011(6) 0.000(5)
C21D 0.065(6) 0.056(6) 0.062(6) -0.027(5) 0.011(5) -0.036(5)
C22D 0.045(5) 0.089(8) 0.063(6) -0.045(6) -0.001(4) -0.016(5)
C23D 0.037(4) 0.062(6) 0.056(5) -0.026(5) 0.005(4) -0.007(4)
C24D 0.079(8) 0.105(10) 0.056(6) -0.002(6) -0.001(6) 0.055(8)
O3D 0.094(7) 0.118(8) 0.173(11) -0.094(8) -0.056(7) 0.014(6)
O4D 0.084(5) 0.048(4) 0.053(4) -0.007(3) 0.005(3) -0.016(4)
O4F 0.084 0.048 0.053 -0.007 0.005 -0.016
O4G 0.084 0.048 0.053 0.007 0.005 0.016
loop_
_geom_bond_atom_site_label_1
_geom_bond_atom_site_label_2
_geom_bond_site_symmetry_1
_geom_bond_site_symmetry_2
Fe1 O1 1_555 1_555
Ni1 N1 1_555 1_555
Rb1 Rb1A 1_555 1_555
C1 C2 1_555 1_555
C2 H1 1_555 1_555
C3 C2 1_555 1_555
H2 C3 1_555 1_555
C4 C3 1_555 1_555
N1 C1 1_555 1_555
C5 C4 1_555 1_555
C6 C5 1_555 1_555
C7 C6 1_555 1_555
H3 C7 1_555 1_555
C8 C7 1_555 1_555
H4 C8 1_555 1_555
C9 C8 1_555 1_555
N2 Ni1 1_555 1_555
C10 C1 1_555 1_555
C11 C5 1_555 1_555
C12 C11 1_555 1_555
H5 C12 1_555 1_555
C13 C12 1_555 1_555
H6 C13 1_555 1_555
C14 C13 1_555 1_555
C15 C14 1_555 1_555
H7 C15 1_555 1_555
C16 C11 1_555 1_555
H8 C16 1_555 1_555
C17 C14 1_555 1_555
O1 C17 1_555 1_555
O2 Fe1 1_555 1_555
C18 C10 1_555 1_555
C19 C18 1_555 1_555
H9 C19 1_555 1_555
C20 C19 1_555 1_555
H10 C20 1_555 1_555
C21 C20 1_555 1_555
C22 C21 1_555 1_555
H11 C22 1_555 1_555
C23 C18 1_555 1_555
H12 C23 1_555 1_555
C24 C21 1_555 1_555
O3 C24 1_555 1_555
O4 C24 1_555 1_555
O6 C28 1_555 1_555
C28 N4 1_555 1_555
N4 C29 1_555 1_555
C30 N4 1_555 1_555
Fe1F O4 1_555 1_555
Fe1B O4D 1_555 1_555
Fe1D O1D 1_555 1_555
C1D C2D 1_555 1_555
C2D H1D 1_555 1_555
C3D C2D 1_555 1_555
H2D C3D 1_555 1_555
C4D C3D 1_555 1_555
N1D Ni1 1_555 1_555
C5D C4D 1_555 1_555
C6D C5D 1_555 1_555
C7D C6D 1_555 1_555
H3D C7D 1_555 1_555
C8D C7D 1_555 1_555
H4D C8D 1_555 1_555
C9D C10 1_555 1_555
N2D Ni1 1_555 1_555
C10D C9 1_555 1_555
C11D C5D 1_555 1_555
C12D C11D 1_555 1_555
H5D C12D 1_555 1_555
C13D C12D 1_555 1_555
H6D C13D 1_555 1_555
C14D C13D 1_555 1_555
C15D C14D 1_555 1_555
H7D C15D 1_555 1_555
C16D C11D 1_555 1_555
H8D C16D 1_555 1_555
C17D C14D 1_555 1_555
O1D C17D 1_555 1_555
O1A Fe1 1_555 1_555
O2D Fe1D 1_555 1_555
O2A Fe1 1_555 1_555
C18D C10D 1_555 1_555
C19D C18D 1_555 1_555
H9D C19D 1_555 1_555
C20D C19D 1_555 1_555
H10D C20D 1_555 1_555
C21D C20D 1_555 1_555
C22D C21D 1_555 1_555
H11D C22D 1_555 1_555
C23D C18D 1_555 1_555
H12D C23D 1_555 1_555
C24D C21D 1_555 1_555
O3D C24D 1_555 1_555
O4D C24D 1_555 1_555
O4F Fe1 1_555 1_555
O4G Fe1 1_555 1_555
C4 N1 1_555 1_555
C6 N2 1_555 1_555
C9 N2 1_555 1_555
C15 C16 1_555 1_555
C17 O2 1_555 1_555
C22 C23 1_555 1_555
C1D N1D 1_555 1_555
C1D C10D 1_555 1_555
C4D N1D 1_555 1_555
C6D N2D 1_555 1_555
C8D C9D 1_555 1_555
C9D N2D 1_555 1_555
C15D C16D 1_555 1_555
C17D O2D 1_555 1_555
C22D C23D 1_555 1_555

#END
