
#######################################################################
#
#                 Cambridge Crystallographic Data Centre
#                                CCDC 
#
#######################################################################
#
# If this CIF has been generated from an entry in the Cambridge 
# Structural Database, then it will include bibliographic, chemical, 
# crystal, experimental, refinement or atomic coordinate data resulting 
# from the CCDC's data processing and validation procedures.
#
#######################################################################

data_PAQVEK
_chemical_formula_moiety         '(C48 H24 Fe1 K1 N4 Ni1 O8)n'
_symmetry_cell_setting           monoclinic
_symmetry_space_group_name_H-M   'C 2/c'
_symmetry_Int_Tables_number      15
_space_group_name_Hall           '-C 2yc'
loop_
_symmetry_equiv_pos_site_id
_symmetry_equiv_pos_as_xyz
1 x,y,z
2 -x,y,1/2-z
3 1/2+x,1/2+y,z
4 1/2-x,1/2+y,1/2-z
5 -x,-y,-z
6 x,-y,1/2+z
7 1/2-x,1/2-y,-z
8 1/2+x,1/2-y,1/2+z
_cell_length_a                   7.228(4)
_cell_length_b                   24.997(16)
_cell_length_c                   30.902(17)
_cell_angle_alpha                90
_cell_angle_beta                 93.167(15)
_cell_angle_gamma                90
_cell_volume                     5574.79
loop_
_atom_site_label
_atom_site_type_symbol
_atom_site_fract_x
_atom_site_fract_y
_atom_site_fract_z
_atom_site_U_iso_or_equiv
_atom_site_thermal_displace_type
K1 K 1.0000 -0.73511(10) -0.2500 0.1152 Uani
Ni1 Ni 0.5000 -0.5000 0.0000 0.0441 Uani
Fe1 Fe 1.5000 -0.66382(4) -0.2500 0.0527 Uani
N1 N 0.2895(5) -0.45001(16) 0.00072(12) 0.0503 Uani
N2 N 0.5582(5) -0.47346(16) -0.05760(12) 0.0459 Uani
C1 C 0.1684(7) -0.4428(2) 0.03352(16) 0.0560 Uani
C2 C 0.0367(9) -0.4018(3) 0.02226(19) 0.0975 Uani
H1 H -0.0579 -0.3900 0.0391 0.1170 Uiso
C3 C 0.0745(10) -0.3835(3) -0.0171(2) 0.1015 Uani
H2 H 0.0105 -0.3568 -0.0327 0.1220 Uiso
C4 C 0.2333(8) -0.4129(2) -0.03077(15) 0.0599 Uani
C5 C 0.3181(7) -0.4036(2) -0.06909(15) 0.0510 Uani
C6 C 0.4681(7) -0.4328(2) -0.08141(15) 0.0497 Uani
C7 C 0.5496(8) -0.4276(2) -0.12337(17) 0.0651 Uani
H3 H 0.5132 -0.4037 -0.1453 0.0780 Uiso
C8 C 0.6860(7) -0.4634(2) -0.12444(16) 0.0604 Uani
H4 H 0.7622 -0.4689 -0.1473 0.0720 Uiso
C9 C 0.6946(6) -0.4923(2) -0.08387(14) 0.0470 Uani
C10 C 0.1801(7) -0.4683(2) 0.07346(15) 0.0503 Uani
C11 C 0.2383(8) -0.3615(2) -0.10001(16) 0.0570 Uani
C12 C 0.0658(9) -0.3682(3) -0.1201(2) 0.0848 Uani
H5 H -0.0034 -0.3984 -0.1141 0.1020 Uiso
C13 C -0.0077(10) -0.3300(3) -0.1497(2) 0.0986 Uani
H6 H -0.1245 -0.3357 -0.1631 0.1180 Uiso
C14 C 0.0858(13) -0.2860(3) -0.1590(2) 0.0926 Uani
C15 C 0.2640(13) -0.2778(3) -0.1381(2) 0.1026 Uani
H7 H 0.3315 -0.2473 -0.1441 0.1240 Uiso
C16 C 0.3380(11) -0.3156(2) -0.1086(2) 0.0914 Uani
H8 H 0.4538 -0.3100 -0.0947 0.1100 Uiso
C17 C 0.008(2) -0.2434(5) -0.1930(3) 0.1370 Uani
O1 O 0.1177(14) -0.2097(2) -0.20603(17) 0.1627 Uani
O2 O -0.1667(14) -0.2512(4) -0.2041(3) 0.2027 Uani
C18 C 0.0502(7) -0.4514(2) 0.10803(15) 0.0524 Uani
C19 C 0.1224(7) -0.4217(3) 0.14339(18) 0.0689 Uani
H9 H 0.2484 -0.4140 0.1460 0.0830 Uiso
C20 C 0.0056(7) -0.4036(2) 0.17470(17) 0.0622 Uani
H10 H 0.0550 -0.3843 0.1983 0.0750 Uiso
C21 C -0.1814(7) -0.41382(19) 0.17111(14) 0.0465 Uani
C22 C -0.2570(7) -0.4439(2) 0.13614(16) 0.0580 Uani
H11 H -0.3829 -0.4518 0.1339 0.0700 Uiso
C23 C -0.1404(7) -0.4616(2) 0.10476(17) 0.0586 Uani
H12 H -0.1904 -0.4808 0.0811 0.0700 Uiso
C24 C -0.3097(7) -0.39054(19) 0.20304(14) 0.0456 Uani
O3 O -0.2401(4) -0.35978(14) 0.23347(10) 0.0560 Uani
O4 O -0.4817(5) -0.39692(14) 0.20055(10) 0.0575 Uani
Fe1D Fe -0.5000 -0.33618(4) 0.2500 0.0527 Uani
Fe1F Fe 1.0000 -0.83618(4) 0.2500 0.0527 Uani
Fe1B Fe -0.0000 -0.16382(4) -0.2500 0.0527 Uani
N1D N 0.7105(5) -0.54999(16) -0.00072(12) 0.0503 Uani
N2D N 0.4418(5) -0.52654(16) 0.05760(12) 0.0459 Uani
C1D C 0.8316(7) -0.5572(2) -0.03352(16) 0.0560 Uani
C2D C 0.9633(9) -0.5982(3) -0.02226(19) 0.0975 Uani
H1D H 1.0579 -0.6100 -0.0391 0.1170 Uiso
C3D C 0.9255(10) -0.6165(3) 0.0171(2) 0.1015 Uani
H2D H 0.9895 -0.6432 0.0327 0.1220 Uiso
C4D C 0.7667(8) -0.5871(2) 0.03077(15) 0.0599 Uani
C5D C 0.6819(7) -0.5964(2) 0.06909(15) 0.0510 Uani
C6D C 0.5319(7) -0.5672(2) 0.08141(15) 0.0497 Uani
C7D C 0.4504(8) -0.5724(2) 0.12337(17) 0.0651 Uani
H3D H 0.4868 -0.5963 0.1453 0.0780 Uiso
C8D C 0.3140(7) -0.5366(2) 0.12444(16) 0.0604 Uani
H4D H 0.2378 -0.5311 0.1473 0.0720 Uiso
C9D C 0.3054(6) -0.5077(2) 0.08387(14) 0.0470 Uani
C10D C 0.8199(7) -0.5317(2) -0.07346(15) 0.0503 Uani
C11D C 0.7617(8) -0.6385(2) 0.10001(16) 0.0570 Uani
C12D C 0.9342(9) -0.6318(3) 0.1201(2) 0.0848 Uani
H5D H 1.0034 -0.6016 0.1141 0.1020 Uiso
C13D C 1.0077(10) -0.6700(3) 0.1497(2) 0.0986 Uani
H6D H 1.1245 -0.6643 0.1631 0.1180 Uiso
C14D C 0.9142(13) -0.7140(3) 0.1590(2) 0.0926 Uani
C15D C 0.7360(13) -0.7222(3) 0.1381(2) 0.1026 Uani
H7D H 0.6685 -0.7527 0.1441 0.1240 Uiso
C16D C 0.6620(11) -0.6844(2) 0.1086(2) 0.0914 Uani
H8D H 0.5462 -0.6900 0.0947 0.1100 Uiso
C17D C 0.992(2) -0.7566(5) 0.1930(3) 0.1370 Uani
O1D O 0.8823(14) -0.7903(2) 0.20603(17) 0.1627 Uani
O1B O 1.6177(14) -0.7097(2) -0.20603(17) 0.1627 Uani
O1C O 1.3823(14) -0.7097(2) -0.29397(17) 0.1627 Uani
O2D O 1.1667(14) -0.7488(4) 0.2041(3) 0.2027 Uani
C18D C 0.9498(7) -0.5486(2) -0.10803(15) 0.0524 Uani
C19D C 0.8776(7) -0.5783(3) -0.14339(18) 0.0689 Uani
H9D H 0.7516 -0.5860 -0.1460 0.0830 Uiso
C20D C 0.9944(7) -0.5964(2) -0.17470(17) 0.0622 Uani
H10D H 0.9450 -0.6157 -0.1983 0.0750 Uiso
C21D C 1.1814(7) -0.58618(19) -0.17111(14) 0.0465 Uani
C22D C 1.2570(7) -0.5561(2) -0.13614(16) 0.0580 Uani
H11D H 1.3829 -0.5482 -0.1339 0.0700 Uiso
C23D C 1.1404(7) -0.5384(2) -0.10476(17) 0.0586 Uani
H12D H 1.1904 -0.5192 -0.0811 0.0700 Uiso
C24D C 1.3097(7) -0.60946(19) -0.20304(14) 0.0456 Uani
O3D O 1.2401(4) -0.64022(14) -0.23347(10) 0.0560 Uani
O3E O 1.7599(4) -0.64022(14) -0.26653(10) 0.0560 Uani
O4D O 1.4817(5) -0.60308(14) -0.20055(10) 0.0575 Uani
O4E O 1.5183(5) -0.60308(14) -0.29945(10) 0.0575 Uani
loop_
_atom_site_aniso_label
_atom_site_aniso_U_11
_atom_site_aniso_U_22
_atom_site_aniso_U_33
_atom_site_aniso_U_23
_atom_site_aniso_U_13
_atom_site_aniso_U_12
K1 0.134 0.0798 0.129 0 -0.0174 0
Ni1 0.0531 0.0447 0.0346 0.0073 0.003 0.0031
Fe1 0.0815 0.0416 0.0359 0 0.0116 0
N1 0.06 0.053 0.038 0.0082 0.0049 0.01
N2 0.046 0.048 0.044 0.0063 0.0048 -0.001
C1 0.066 0.061 0.042 0.013 0.012 0.022
C2 0.108 0.13 0.058 0.044 0.036 0.069
C3 0.124 0.12 0.063 0.031 0.029 0.076
C4 0.083 0.057 0.04 0.011 0.006 0.028
C5 0.064 0.047 0.042 0.01 0.003 0.001
C6 0.059 0.048 0.042 0.013 0.001 0
C7 0.069 0.076 0.052 0.025 0.018 0.005
C8 0.057 0.081 0.045 0.026 0.018 0.002
C9 0.043 0.057 0.041 0.01 0.003 -0.001
C10 0.05 0.066 0.035 0.002 0.004 0.002
C11 0.078 0.05 0.043 0.012 0.004 0.016
C12 0.084 0.083 0.086 0.042 -0.008 0.015
C13 0.108 0.097 0.088 0.045 -0.019 0.017
C14 0.162 0.062 0.053 0.021 0 0.037
C15 0.185 0.06 0.062 0.018 -0.001 -0.007
C16 0.141 0.052 0.079 0.019 -0.015 -0.015
C17 0.239 0.105 0.068 -0.008 0.017 0.07
O1 0.378 0.058 0.052 0.009 0.012 0.036
O2 0.241 0.198 0.166 0.107 -0.016 0.072
C18 0.057 0.064 0.036 0 0 0.003
C19 0.043 0.104 0.06 -0.014 0.005 -0.003
C20 0.058 0.079 0.049 -0.01 -0.003 -0.002
C21 0.057 0.046 0.037 0.001 0.008 0.001
C22 0.052 0.075 0.048 -0.018 0.012 -0.008
C23 0.057 0.067 0.052 -0.006 0.004 -0.001
C24 0.061 0.042 0.033 0.001 -0.004 0.001
O3 0.06 0.06 0.0472 -0.0077 -0.0031 0.0032
O4 0.05 0.074 0.049 -0.011 0.0082 -0.0097
Fe1D 0.0815 0.0416 0.0359 0 0.0116 0
Fe1F 0.0815 0.0416 0.0359 0 0.0116 0
Fe1B 0.0815 0.0416 0.0359 0 0.0116 0
N1D 0.06 0.053 0.038 0.0082 0.0049 0.01
N2D 0.046 0.048 0.044 0.0063 0.0048 -0.001
C1D 0.066 0.061 0.042 0.013 0.012 0.022
C2D 0.108 0.13 0.058 0.044 0.036 0.069
C3D 0.124 0.12 0.063 0.031 0.029 0.076
C4D 0.083 0.057 0.04 0.011 0.006 0.028
C5D 0.064 0.047 0.042 0.01 0.003 0.001
C6D 0.059 0.048 0.042 0.013 0.001 0
C7D 0.069 0.076 0.052 0.025 0.018 0.005
C8D 0.057 0.081 0.045 0.026 0.018 0.002
C9D 0.043 0.057 0.041 0.01 0.003 -0.001
C10D 0.05 0.066 0.035 0.002 0.004 0.002
C11D 0.078 0.05 0.043 0.012 0.004 0.016
C12D 0.084 0.083 0.086 0.042 -0.008 0.015
C13D 0.108 0.097 0.088 0.045 -0.019 0.017
C14D 0.162 0.062 0.053 0.021 0 0.037
C15D 0.185 0.06 0.062 0.018 -0.001 -0.007
C16D 0.141 0.052 0.079 0.019 -0.015 -0.015
C17D 0.239 0.105 0.068 -0.008 0.017 0.07
O1D 0.378 0.058 0.052 0.009 0.012 0.036
O1B 0.378 0.058 0.052 0.009 0.012 0.036
O1C 0.378 0.058 0.052 -0.009 0.012 -0.036
O2D 0.241 0.198 0.166 0.107 -0.016 0.072
C18D 0.057 0.064 0.036 0 0 0.003
C19D 0.043 0.104 0.06 -0.014 0.005 -0.003
C20D 0.058 0.079 0.049 -0.01 -0.003 -0.002
C21D 0.057 0.046 0.037 0.001 0.008 0.001
C22D 0.052 0.075 0.048 -0.018 0.012 -0.008
C23D 0.057 0.067 0.052 -0.006 0.004 -0.001
C24D 0.061 0.042 0.033 0.001 -0.004 0.001
O3D 0.06 0.06 0.0472 -0.0077 -0.0031 0.0032
O3E 0.06 0.06 0.0472 0.0077 -0.0031 -0.0032
O4D 0.05 0.074 0.049 -0.011 0.0082 -0.0097
O4E 0.05 0.074 0.049 0.011 0.0082 0.0097
loop_
_geom_bond_atom_site_label_1
_geom_bond_atom_site_label_2
_geom_bond_site_symmetry_1
_geom_bond_site_symmetry_2
Ni1 N1 1_555 1_555
Fe1 O1B 1_555 1_555
N1 C1 1_555 1_555
N2 Ni1 1_555 1_555
C1 C2 1_555 1_555
C2 H1 1_555 1_555
C3 C2 1_555 1_555
H2 C3 1_555 1_555
C4 N1 1_555 1_555
C5 C4 1_555 1_555
C6 N2 1_555 1_555
C7 C6 1_555 1_555
H3 C7 1_555 1_555
C8 C7 1_555 1_555
H4 C8 1_555 1_555
C9 N2 1_555 1_555
C10 C1 1_555 1_555
C11 C5 1_555 1_555
C12 C11 1_555 1_555
H5 C12 1_555 1_555
C13 C12 1_555 1_555
H6 C13 1_555 1_555
C14 C13 1_555 1_555
C15 C14 1_555 1_555
H7 C15 1_555 1_555
C16 C11 1_555 1_555
H8 C16 1_555 1_555
C17 C14 1_555 1_555
O1 C17 1_555 1_555
O2 C17 1_555 1_555
C18 C10 1_555 1_555
C19 C18 1_555 1_555
H9 C19 1_555 1_555
C20 C19 1_555 1_555
H10 C20 1_555 1_555
C21 C20 1_555 1_555
C22 C21 1_555 1_555
H11 C22 1_555 1_555
C23 C18 1_555 1_555
H12 C23 1_555 1_555
C24 C21 1_555 1_555
O3 C24 1_555 1_555
O4 C24 1_555 1_555
Fe1D O3 1_555 1_555
Fe1F O1D 1_555 1_555
Fe1B O1 1_555 1_555
N1D Ni1 1_555 1_555
N2D Ni1 1_555 1_555
C1D N1D 1_555 1_555
C2D C1D 1_555 1_555
H1D C2D 1_555 1_555
C3D C2D 1_555 1_555
H2D C3D 1_555 1_555
C4D N1D 1_555 1_555
C5D C4D 1_555 1_555
C6D N2D 1_555 1_555
C7D C6D 1_555 1_555
H3D C7D 1_555 1_555
C8D C7D 1_555 1_555
H4D C8D 1_555 1_555
C9D C10 1_555 1_555
C10D C9 1_555 1_555
C11D C5D 1_555 1_555
C12D C11D 1_555 1_555
H5D C12D 1_555 1_555
C13D C12D 1_555 1_555
H6D C13D 1_555 1_555
C14D C13D 1_555 1_555
C15D C14D 1_555 1_555
H7D C15D 1_555 1_555
C16D C11D 1_555 1_555
H8D C16D 1_555 1_555
C17D C14D 1_555 1_555
O1D C17D 1_555 1_555
O1C Fe1 1_555 1_555
O2D C17D 1_555 1_555
C18D C10D 1_555 1_555
C19D C18D 1_555 1_555
H9D C19D 1_555 1_555
C20D C19D 1_555 1_555
H10D C20D 1_555 1_555
C21D C20D 1_555 1_555
C22D C21D 1_555 1_555
H11D C22D 1_555 1_555
C23D C18D 1_555 1_555
H12D C23D 1_555 1_555
C24D C21D 1_555 1_555
O3D Fe1 1_555 1_555
O3E Fe1 1_555 1_555
O4D Fe1 1_555 1_555
O4E Fe1 1_555 1_555
C3 C4 1_555 1_555
C5 C6 1_555 1_555
C8 C9 1_555 1_555
C15 C16 1_555 1_555
C22 C23 1_555 1_555
O4 Fe1D 1_555 1_555
N2D C9D 1_555 1_555
C1D C10D 1_555 1_555
C3D C4D 1_555 1_555
C5D C6D 1_555 1_555
C8D C9D 1_555 1_555
C15D C16D 1_555 1_555
C22D C23D 1_555 1_555
C24D O3D 1_555 1_555
C24D O4D 1_555 1_555

#END
