
#######################################################################
#
#                 Cambridge Crystallographic Data Centre
#                                CCDC 
#
#######################################################################
#
# If this CIF has been generated from an entry in the Cambridge 
# Structural Database, then it will include bibliographic, chemical, 
# crystal, experimental, refinement or atomic coordinate data resulting 
# from the CCDC's data processing and validation procedures.
#
#######################################################################

data_PAQVIO
_chemical_formula_moiety         '(C48 H24 Fe1 N4 Na1 Ni1 O8)n'
_symmetry_cell_setting           monoclinic
_symmetry_space_group_name_H-M   'C 2/c'
_symmetry_Int_Tables_number      15
_space_group_name_Hall           '-C 2yc'
loop_
_symmetry_equiv_pos_site_id
_symmetry_equiv_pos_as_xyz
1 x,y,z
2 -x,y,1/2-z
3 1/2+x,1/2+y,z
4 1/2-x,1/2+y,1/2-z
5 -x,-y,-z
6 x,-y,1/2+z
7 1/2-x,1/2-y,-z
8 1/2+x,1/2-y,1/2+z
_cell_length_a                   7.090(2)
_cell_length_b                   25.628(9)
_cell_length_c                   30.347(10)
_cell_angle_alpha                90
_cell_angle_beta                 93.375(7)
_cell_angle_gamma                90
_cell_volume                     5504.56
loop_
_atom_site_label
_atom_site_type_symbol
_atom_site_fract_x
_atom_site_fract_y
_atom_site_fract_z
_atom_site_U_iso_or_equiv
_atom_site_thermal_displace_type
Ni1 Ni 0.0000 0.0000 0.0000 0.0509 Uani
Fe1 Fe 1.0000 -0.17206(7) -0.2500 0.0815 Uani
N1 N 0.2065(10) -0.0487(3) -0.0005(2) 0.0722 Uani
N2 N -0.0543(8) -0.0244(2) 0.0579(2) 0.0542 Uani
C1 C 0.3343(12) -0.0568(4) -0.0339(3) 0.0779 Uani
C2 C 0.4658(18) -0.0987(5) -0.0223(4) 0.1600 Uani
H1 H 0.5599 -0.1118 -0.0393 0.1920 Uiso
C3 C 0.425(2) -0.1141(5) 0.0168(5) 0.1831 Uani
H2 H 0.4866 -0.1407 0.0327 0.2200 Uiso
C4 C 0.1774(14) -0.0917(3) 0.0696(3) 0.0801 Uani
C5 C 0.2688(15) -0.0839(4) 0.0322(3) 0.0959 Uani
C6 C 0.0316(10) -0.0630(3) 0.0833(3) 0.0549 Uani
C7 C -0.0449(12) -0.0673(4) 0.1260(3) 0.0782 Uani
H3 H -0.0083 -0.0904 0.1485 0.0940 Uiso
C8 C -0.1787(12) -0.0312(5) 0.1265(3) 0.0947 Uani
H4 H -0.2519 -0.0244 0.1503 0.1140 Uiso
C9 C -0.1939(10) -0.0045(3) 0.0856(3) 0.0602 Uani
C10 C 0.3232(10) -0.0327(3) -0.0740(3) 0.0543 Uani
C11 C 0.2546(15) -0.1330(3) 0.0997(3) 0.1150 Uiso
C12 C 0.4321(13) -0.1375(3) 0.1213(3) 0.1730 Uiso
H5 H 0.5236 -0.1122 0.1173 0.2080 Uiso
C13 C 0.4728(10) -0.1797(4) 0.1490(3) 0.1820 Uiso
H6 H 0.5916 -0.1827 0.1635 0.2190 Uiso
C14 C 0.3360(14) -0.2175(3) 0.1551(3) 0.0980 Uiso
C15 C 0.1584(12) -0.2130(4) 0.1334(3) 0.2270 Uiso
H7 H 0.0669 -0.2383 0.1374 0.2720 Uiso
C16 C 0.1178(11) -0.1708(4) 0.1057(3) 0.1850 Uiso
H8 H -0.0010 -0.1678 0.0912 0.2220 Uiso
C17 C 0.387(2) -0.2618(6) 0.1898(5) 0.1480 Uiso
O1 O 0.5326(13) -0.2657(3) 0.2028(3) 0.1446 Uani
O2 O 0.2537(15) -0.2913(5) 0.2026(4) 0.2058 Uani
C18 C 0.4493(6) -0.0511(2) -0.10982(17) 0.0590 Uiso
C19 C 0.3746(5) -0.0821(2) -0.14415(19) 0.0840 Uiso
H9 H 0.2455 -0.0888 -0.1468 0.1000 Uiso
C20 C 0.4929(7) -0.1032(2) -0.17449(16) 0.0830 Uiso
H10 H 0.4429 -0.1239 -0.1975 0.1000 Uiso
C21 C 0.6858(6) -0.09319(19) -0.17050(15) 0.0522 Uiso
C22 C 0.7605(5) -0.06218(19) -0.13617(17) 0.0600 Uiso
H11 H 0.8896 -0.0555 -0.1335 0.0720 Uiso
C23 C 0.6422(7) -0.04115(19) -0.10583(15) 0.0700 Uiso
H12 H 0.6922 -0.0204 -0.0829 0.0830 Uiso
C24 C 0.8118(11) -0.1180(3) -0.2018(3) 0.0541 Uiso
O3 O 0.7379(7) -0.14664(19) -0.23325(17) 0.0614 Uani
O4 O 0.9860(6) -0.1145(2) -0.19815(18) 0.0701 Uani
Fe1F Fe 0.5000 -0.32794(7) 0.2500 0.0815 Uani
Fe1B Fe -0.5000 0.32794(7) -0.2500 0.0815 Uani
Fe1D Fe -1.0000 0.17206(7) 0.2500 0.0815 Uani
N1D N -0.2065(10) 0.0487(3) 0.0005(2) 0.0722 Uani
N2D N 0.0543(8) 0.0244(2) -0.0579(2) 0.0542 Uani
C1D C -0.3343(12) 0.0568(4) 0.0339(3) 0.0779 Uani
C2D C -0.4658(18) 0.0987(5) 0.0223(4) 0.1600 Uani
H1D H -0.5599 0.1118 0.0393 0.1920 Uiso
C3D C -0.425(2) 0.1141(5) -0.0168(5) 0.1831 Uani
H2D H -0.4866 0.1407 -0.0327 0.2200 Uiso
C4D C -0.1774(14) 0.0917(3) -0.0696(3) 0.0801 Uani
C5D C -0.2688(15) 0.0839(4) -0.0322(3) 0.0959 Uani
C6D C -0.0316(10) 0.0630(3) -0.0833(3) 0.0549 Uani
C7D C 0.0449(12) 0.0673(4) -0.1260(3) 0.0782 Uani
H3D H 0.0083 0.0904 -0.1485 0.0940 Uiso
C8D C 0.1787(12) 0.0312(5) -0.1265(3) 0.0947 Uani
H4D H 0.2519 0.0244 -0.1503 0.1140 Uiso
C9D C 0.1939(10) 0.0045(3) -0.0856(3) 0.0602 Uani
C10D C -0.3232(10) 0.0327(3) 0.0740(3) 0.0543 Uani
C11D C -0.2546(15) 0.1330(3) -0.0997(3) 0.1150 Uiso
C12D C -0.4321(13) 0.1375(3) -0.1213(3) 0.1730 Uiso
H5D H -0.5236 0.1122 -0.1173 0.2080 Uiso
C13D C -0.4728(10) 0.1797(4) -0.1490(3) 0.1820 Uiso
H6D H -0.5916 0.1827 -0.1635 0.2190 Uiso
C14D C -0.3360(14) 0.2175(3) -0.1551(3) 0.0980 Uiso
C15D C -0.1584(12) 0.2130(4) -0.1334(3) 0.2270 Uiso
H7D H -0.0669 0.2383 -0.1374 0.2720 Uiso
C16D C -0.1178(11) 0.1708(4) -0.1057(3) 0.1850 Uiso
H8D H 0.0010 0.1678 -0.0912 0.2220 Uiso
C17D C -0.387(2) 0.2618(6) -0.1898(5) 0.1480 Uiso
O1D O -0.5326(13) 0.2657(3) -0.2028(3) 0.1446 Uani
O1F O 0.9674(13) -0.2343(3) -0.2028(3) 0.1446 Uani
O1G O 1.0326(13) -0.2343(3) -0.2972(3) 0.1446 Uani
O2D O -0.2537(15) 0.2913(5) -0.2026(4) 0.2058 Uani
C18D C -0.4493(6) 0.0511(2) 0.10982(17) 0.0590 Uiso
C19D C -0.3746(5) 0.0821(2) 0.14415(19) 0.0840 Uiso
H9D H -0.2455 0.0888 0.1468 0.1000 Uiso
C20D C -0.4929(7) 0.1032(2) 0.17449(16) 0.0830 Uiso
H10D H -0.4429 0.1239 0.1975 0.1000 Uiso
C21D C -0.6858(6) 0.09319(19) 0.17050(15) 0.0522 Uiso
C22D C -0.7605(5) 0.06218(19) 0.13617(17) 0.0600 Uiso
H11D H -0.8896 0.0555 0.1335 0.0720 Uiso
C23D C -0.6422(7) 0.04115(19) 0.10583(15) 0.0700 Uiso
H12D H -0.6922 0.0204 0.0829 0.0830 Uiso
C24D C -0.8118(11) 0.1180(3) 0.2018(3) 0.0541 Uiso
O3D O -0.7379(7) 0.14664(19) 0.23325(17) 0.0614 Uani
O3A O 1.2621(7) -0.14664(19) -0.26675(17) 0.0614 Uani
O4D O -0.9860(6) 0.1145(2) 0.19815(18) 0.0701 Uani
O4A O 1.0140(6) -0.1145(2) -0.30185(18) 0.0701 Uani
Na1 Na -0.5000 0.2190(3) 0.2500 0.1556 Uani
loop_
_atom_site_aniso_label
_atom_site_aniso_U_11
_atom_site_aniso_U_22
_atom_site_aniso_U_33
_atom_site_aniso_U_23
_atom_site_aniso_U_13
_atom_site_aniso_U_12
Ni1 0.0512(7) 0.0540(8) 0.0493(9) -0.0030(7) 0.0187(6) -0.0067(7)
Fe1 0.1223 0.0586 0.0708 0 0.0658 0
N1 0.096(5) 0.066(5) 0.058(5) 0.009(4) 0.034(4) 0.008(4)
N2 0.061(4) 0.050(4) 0.053(4) -0.010(3) 0.014(3) 0.001(3)
C1 0.076(6) 0.102(7) 0.060(6) 0.002(5) 0.040(5) 0.027(5)
C2 0.204(13) 0.181(13) 0.108(9) 0.066(9) 0.120(10) 0.133(11)
C3 0.248(15) 0.151(12) 0.164(13) 0.056(10) 0.129(13) 0.146(12)
C4 0.128(8) 0.060(5) 0.056(6) 0.007(4) 0.036(6) 0.011(5)
C5 0.137(8) 0.084(7) 0.074(7) 0.026(6) 0.067(6) 0.048(6)
C6 0.056(5) 0.068(5) 0.042(5) -0.009(4) 0.013(4) -0.008(4)
C7 0.074(6) 0.121(8) 0.041(5) 0.001(5) 0.016(5) 0.012(5)
C8 0.062(5) 0.171(10) 0.054(7) -0.015(7) 0.028(5) 0.028(6)
C9 0.054(4) 0.081(6) 0.047(5) -0.011(5) 0.015(4) -0.004(5)
C10 0.045 0.069 0.05 -0.019 0.012 0.01
O1 0.161(7) 0.167(7) 0.097(6) -0.043(5) -0.066(6) 0.112(6)
O2 0.174(9) 0.265(13) 0.181(11) -0.005(10) 0.032(8) -0.041(9)
O3 0.064 0.066 0.054 -0.001 0.002 -0.004
O4 0.039 0.1 0.073 -0.017 0.017 -0.021
Fe1F 0.1223 0.0586 0.0708 0 0.0658 0
Fe1B 0.1223 0.0586 0.0708 0 0.0658 0
Fe1D 0.1223(16) 0.0586(11) 0.0708(13) 0.000 0.0658(12) 0.000
N1D 0.096 0.066 0.058 0.009 0.034 0.008
N2D 0.061 0.05 0.053 -0.01 0.014 0.001
C1D 0.076 0.102 0.06 0.002 0.04 0.027
C2D 0.204 0.181 0.108 0.066 0.12 0.133
C3D 0.248 0.151 0.164 0.056 0.129 0.146
C4D 0.128 0.06 0.056 0.007 0.036 0.011
C5D 0.137 0.084 0.074 0.026 0.067 0.048
C6D 0.056 0.068 0.042 -0.009 0.013 -0.008
C7D 0.074 0.121 0.041 0.001 0.016 0.012
C8D 0.062 0.171 0.054 -0.015 0.028 0.028
C9D 0.054 0.081 0.047 -0.011 0.015 -0.004
C10D 0.045(4) 0.069(5) 0.050(5) -0.019(4) 0.012(4) 0.010(4)
O1D 0.161 0.167 0.097 -0.043 -0.066 0.112
O1F 0.161 0.167 0.097 -0.043 -0.066 0.112
O1G 0.161 0.167 0.097 0.043 -0.066 -0.112
O2D 0.174 0.265 0.181 -0.005 0.032 -0.041
O3D 0.064(3) 0.066(3) 0.054(4) -0.001(3) 0.002(3) -0.004(3)
O3A 0.064 0.066 0.054 0.001 0.002 0.004
O4D 0.039(3) 0.100(4) 0.073(4) -0.017(3) 0.017(3) -0.021(3)
O4A 0.039 0.1 0.073 0.017 0.017 0.021
Na1 0.112(5) 0.158(6) 0.203(9) 0.000 0.061(5) 0.000
loop_
_geom_bond_atom_site_label_1
_geom_bond_atom_site_label_2
_geom_bond_site_symmetry_1
_geom_bond_site_symmetry_2
Ni1 N1 1_555 1_555
Fe1 O3 1_555 1_555
N1 C1 1_555 1_555
N2 Ni1 1_555 1_555
C1 C2 1_555 1_555
C2 H1 1_555 1_555
C3 C2 1_555 1_555
H2 C3 1_555 1_555
C4 C5 1_555 1_555
C5 N1 1_555 1_555
C6 N2 1_555 1_555
C7 C6 1_555 1_555
H3 C7 1_555 1_555
C8 C7 1_555 1_555
H4 C8 1_555 1_555
C9 N2 1_555 1_555
C10 C1 1_555 1_555
C11 C4 1_555 1_555
C12 C11 1_555 1_555
H5 C12 1_555 1_555
C13 C12 1_555 1_555
H6 C13 1_555 1_555
C14 C13 1_555 1_555
C15 C14 1_555 1_555
H7 C15 1_555 1_555
C16 C11 1_555 1_555
H8 C16 1_555 1_555
C17 C14 1_555 1_555
O1 C17 1_555 1_555
O2 C17 1_555 1_555
C18 C10 1_555 1_555
C19 C18 1_555 1_555
H9 C19 1_555 1_555
C20 C19 1_555 1_555
H10 C20 1_555 1_555
C21 C20 1_555 1_555
C22 C21 1_555 1_555
H11 C22 1_555 1_555
C23 C18 1_555 1_555
H12 C23 1_555 1_555
C24 C21 1_555 1_555
O3 C24 1_555 1_555
O4 Fe1 1_555 1_555
Fe1F O1 1_555 1_555
Fe1B O1D 1_555 1_555
Fe1D O3D 1_555 1_555
N1D Ni1 1_555 1_555
N2D Ni1 1_555 1_555
C1D N1D 1_555 1_555
C2D C1D 1_555 1_555
H1D C2D 1_555 1_555
C3D C2D 1_555 1_555
H2D C3D 1_555 1_555
C4D C5D 1_555 1_555
C5D N1D 1_555 1_555
C6D N2D 1_555 1_555
C7D C6D 1_555 1_555
H3D C7D 1_555 1_555
C8D C7D 1_555 1_555
H4D C8D 1_555 1_555
C9D C10 1_555 1_555
C10D C9 1_555 1_555
C11D C4D 1_555 1_555
C12D C11D 1_555 1_555
H5D C12D 1_555 1_555
C13D C12D 1_555 1_555
H6D C13D 1_555 1_555
C14D C13D 1_555 1_555
C15D C14D 1_555 1_555
H7D C15D 1_555 1_555
C16D C11D 1_555 1_555
H8D C16D 1_555 1_555
C17D C14D 1_555 1_555
O1D C17D 1_555 1_555
O1F Fe1 1_555 1_555
O1G Fe1 1_555 1_555
O2D C17D 1_555 1_555
C18D C10D 1_555 1_555
C19D C18D 1_555 1_555
H9D C19D 1_555 1_555
C20D C19D 1_555 1_555
H10D C20D 1_555 1_555
C21D C20D 1_555 1_555
C22D C21D 1_555 1_555
H11D C22D 1_555 1_555
C23D C18D 1_555 1_555
H12D C23D 1_555 1_555
C24D C21D 1_555 1_555
O3D C24D 1_555 1_555
O3A Fe1 1_555 1_555
O4D Fe1D 1_555 1_555
O4A Fe1 1_555 1_555
C3 C5 1_555 1_555
C4 C6 1_555 1_555
C8 C9 1_555 1_555
C15 C16 1_555 1_555
C22 C23 1_555 1_555
C24 O4 1_555 1_555
N2D C9D 1_555 1_555
C1D C10D 1_555 1_555
C3D C5D 1_555 1_555
C4D C6D 1_555 1_555
C8D C9D 1_555 1_555
C15D C16D 1_555 1_555
C22D C23D 1_555 1_555
C24D O4D 1_555 1_555

#END
