
#######################################################################
#
#                 Cambridge Crystallographic Data Centre
#                                CCDC 
#
#######################################################################
#
# If this CIF has been generated from an entry in the Cambridge 
# Structural Database, then it will include bibliographic, chemical, 
# crystal, experimental, refinement or atomic coordinate data resulting 
# from the CCDC's data processing and validation procedures.
#
#######################################################################

data_AMIZIG
_chemical_formula_moiety         '(C27 H28 Na1 O17 Zn2 1-)n'
_symmetry_cell_setting           orthorhombic
_symmetry_space_group_name_H-M   'P n m a'
_symmetry_Int_Tables_number      62
_space_group_name_Hall           '-P 2ac 2n'
loop_
_symmetry_equiv_pos_site_id
_symmetry_equiv_pos_as_xyz
1 x,y,z
2 1/2-x,-y,1/2+z
3 -x,1/2+y,-z
4 1/2+x,1/2-y,1/2-z
5 -x,-y,-z
6 1/2+x,y,1/2-z
7 x,1/2-y,z
8 1/2-x,1/2+y,1/2+z
_cell_length_a                   7.1319(14)
_cell_length_b                   24.327(5)
_cell_length_c                   18.849(4)
_cell_angle_alpha                90
_cell_angle_beta                 90
_cell_angle_gamma                90
_cell_volume                     3270.26
loop_
_atom_site_label
_atom_site_type_symbol
_atom_site_fract_x
_atom_site_fract_y
_atom_site_fract_z
Zn1 Zn 0.15675(11) 0.08266(3) 1.03783(4)
O1 O 0.2198(10) 0.0699(2) 1.1773(3)
O2 O 0.2527(7) 0.01555(18) 1.0848(2)
O3 O 0.2521(7) -0.0107(2) 1.4207(2)
O4 O 0.3994(8) -0.0903(2) 1.4352(3)
O5 O -0.1058(7) 0.0912(2) 1.0760(3)
H1 H -0.1232 0.0570 1.0829
H2 H -0.2012 0.1037 1.0544
O6 O 0.3021(6) 0.15129(19) 1.0475(3)
O7 O 0.5455(8) 0.1025(2) 1.0068(3)
C1 C 0.3091(9) -0.0156(3) 1.2727(3)
H3 H 0.2661 0.0174 1.2916
C2 C 0.2608(10) 0.0244(3) 1.1518(3)
C3 C 0.3214(9) -0.0223(3) 1.1990(3)
C4 C 0.3808(9) -0.0726(3) 1.1719(3)
H4 H 0.3826 -0.0778 1.1231
C5 C 0.5024(12) -0.1693(3) 1.1859(4)
H5 H 0.4552 -0.1736 1.1385
H6 H 0.6370 -0.1702 1.1851
H7 H 0.4565 -0.1987 1.2152
C6 C 0.4371(10) -0.1147(3) 1.2158(4)
C7 C 0.4290(10) -0.1064(3) 1.2891(3)
H8 H 0.4703 -0.1340 1.3195
C8 C 0.3609(9) -0.0579(3) 1.3172(3)
C9 C 0.3370(10) -0.0517(3) 1.3970(3)
C10 C 0.4700(9) 0.1470(3) 1.0223(3)
C11 C 0.4848(15) 0.2500 1.0242(5)
H9 H 0.3674 0.2500 1.0457
C12 C 0.5714(10) 0.2001(3) 1.0084(3)
C13 C 0.7491(10) 0.2012(3) 0.9767(3)
H10 H 0.8091 0.1682 0.9665
C14 C 0.8369(15) 0.2500 0.9602(5)
C15 C 1.0258(16) 0.2500 0.9232(7)
Zn1A Zn 0.34325(11) -0.08266(3) 0.53783(4)
Zn1A_2 Zn 0.34325(11) -0.08266(3) 1.53783(4)
Zn1F Zn 0.15675(11) 0.41734(3) 1.03783(4)
O1A O 0.2802(10) -0.0699(2) 0.6773(3)
O2A O 0.2473(7) -0.01555(18) 0.5848(2)
O3A O 0.2479(7) 0.0107(2) 0.9207(2)
O4A O 0.1006(8) 0.0903(2) 0.9352(3)
O4_2 O 0.3994(8) -0.0903(2) 0.4352(3)
O5A O 0.6058(7) -0.0912(2) 0.5760(3)
H1A H 0.6232 -0.0570 0.5829
H2A H 0.7012 -0.1037 0.5544
O6F O 0.3021(6) 0.34871(19) 1.0475(3)
O6A O 0.1979(6) -0.15129(19) 0.5475(3)
O7F O 0.5455(8) 0.3975(2) 1.0068(3)
C1A C 0.1909(9) 0.0156(3) 0.7727(3)
H3A H 0.2339 -0.0174 0.7916
C2A C 0.2392(10) -0.0244(3) 0.6518(3)
C3A C 0.1786(9) 0.0223(3) 0.6990(3)
C4A C 0.1192(9) 0.0726(3) 0.6719(3)
H4A H 0.1174 0.0778 0.6231
C5A C -0.0024(12) 0.1693(3) 0.6859(4)
H5A H 0.0448 0.1736 0.6385
H6A H -0.1370 0.1702 0.6851
H7A H 0.0435 0.1987 0.7152
C6A C 0.0629(10) 0.1147(3) 0.7158(4)
C7A C 0.0710(10) 0.1064(3) 0.7891(3)
H8A H 0.0297 0.1340 0.8195
C8A C 0.1391(9) 0.0579(3) 0.8172(3)
C9A C 0.1630(10) 0.0517(3) 0.8970(3)
C10F C 0.4700(9) 0.3530(3) 1.0223(3)
C12F C 0.5714(10) 0.2999(3) 1.0084(3)
C13F C 0.7491(10) 0.2988(3) 0.9767(3)
H10F H 0.8091 0.3318 0.9665
Na1 Na 0.5000 -0.0000 1.0000
O8 O 0.353(4) 0.7500 0.8090(14)
O9 O 0.312(3) 0.7947(7) 0.6752(9)
O10 O 0.456(4) 0.8670(8) 0.7787(15)
loop_
_geom_bond_atom_site_label_1
_geom_bond_atom_site_label_2
_geom_bond_site_symmetry_1
_geom_bond_site_symmetry_2
Zn1 O2 1_555 1_555
O1 C2 1_555 1_555
O2 C2 1_555 1_555
O3 C9 1_555 1_555
O4 C9 1_555 1_555
O5 Zn1 1_555 1_555
H1 O5 1_555 1_555
H2 O5 1_555 1_555
O6 Zn1 1_555 1_555
O7 C10 1_555 1_555
C1 H3 1_555 1_555
C2 C3 1_555 1_555
C3 C1 1_555 1_555
C4 C3 1_555 1_555
H4 C4 1_555 1_555
C5 H5 1_555 1_555
H6 C5 1_555 1_555
H7 C5 1_555 1_555
C6 C4 1_555 1_555
C7 C6 1_555 1_555
H8 C7 1_555 1_555
C8 C1 1_555 1_555
C9 C8 1_555 1_555
C10 O6 1_555 1_555
C11 H9 1_555 1_555
C12 C10 1_555 1_555
C13 C12 1_555 1_555
H10 C13 1_555 1_555
C14 C13 1_555 1_555
C15 C14 1_555 1_555
Zn1A O2A 1_555 1_555
Zn1A_2 O4 1_555 1_555
Zn1F O6F 1_555 1_555
O1A C2A 1_555 1_555
O2A C2A 1_555 1_555
O3A C9A 1_555 1_555
O4A Zn1 1_555 1_555
O4_2 Zn1A 1_555 1_555
O5A Zn1A 1_555 1_555
H1A O5A 1_555 1_555
H2A O5A 1_555 1_555
O6F C10F 1_555 1_555
O6A Zn1A 1_555 1_555
O7F C10F 1_555 1_555
C1A H3A 1_555 1_555
C2A C3A 1_555 1_555
C3A C1A 1_555 1_555
C4A C3A 1_555 1_555
H4A C4A 1_555 1_555
C5A H5A 1_555 1_555
H6A C5A 1_555 1_555
H7A C5A 1_555 1_555
C6A C4A 1_555 1_555
C7A C6A 1_555 1_555
H8A C7A 1_555 1_555
C8A C1A 1_555 1_555
C9A O4A 1_555 1_555
C10F C12F 1_555 1_555
C12F C11 1_555 1_555
C13F C14 1_555 1_555
H10F C13F 1_555 1_555
C5 C6 1_555 1_555
C7 C8 1_555 1_555
C11 C12 1_555 1_555
C5A C6A 1_555 1_555
C7A C8A 1_555 1_555
C8A C9A 1_555 1_555
C12F C13F 1_555 1_555

#END
