
#######################################################################
#
#                 Cambridge Crystallographic Data Centre
#                                CCDC 
#
#######################################################################
#
# If this CIF has been generated from an entry in the Cambridge 
# Structural Database, then it will include bibliographic, chemical, 
# crystal, experimental, refinement or atomic coordinate data resulting 
# from the CCDC's data processing and validation procedures.
#
#######################################################################

data_HOZTOG
_chemical_formula_moiety         '(C96 H88 Cu18 I12 N72 O8 S12 W3)n'
_symmetry_cell_setting           cubic
_symmetry_space_group_name_H-M   'I -4 3 d'
_symmetry_Int_Tables_number      220
_space_group_name_Hall           'I -4bd 2c 3'
loop_
_symmetry_equiv_pos_site_id
_symmetry_equiv_pos_as_xyz
1 x,y,z
2 1/2-x,-y,1/2+z
3 -x,1/2+y,1/2-z
4 1/2+x,1/2-y,-z
5 z,x,y
6 1/2+z,1/2-x,-y
7 1/2-z,-x,1/2+y
8 -z,1/2+x,1/2-y
9 y,z,x
10 -y,1/2+z,1/2-x
11 1/2+y,1/2-z,-x
12 1/2-y,-z,1/2+x
13 1/4+y,1/4+x,1/4+z
14 1/4-y,3/4-x,3/4+z
15 3/4+y,1/4-x,3/4-z
16 3/4-y,3/4+x,1/4-z
17 1/4+x,1/4+z,1/4+y
18 3/4-x,3/4+z,1/4-y
19 1/4-x,3/4-z,3/4+y
20 3/4+x,1/4-z,3/4-y
21 1/4+z,1/4+y,1/4+x
22 3/4+z,1/4-y,3/4-x
23 3/4-z,3/4+y,1/4-x
24 1/4-z,3/4-y,3/4+x
25 1/2+x,1/2+y,1/2+z
26 -x,1/2-y,z
27 1/2-x,y,-z
28 x,-y,1/2-z
29 1/2+z,1/2+x,1/2+y
30 z,-x,1/2-y
31 -z,1/2-x,y
32 1/2-z,x,-y
33 1/2+y,1/2+z,1/2+x
34 1/2-y,z,-x
35 y,-z,1/2-x
36 -y,1/2-z,x
37 3/4+y,3/4+x,3/4+z
38 3/4-y,1/4-x,1/4+z
39 1/4+y,3/4-x,1/4-z
40 1/4-y,1/4+x,3/4-z
41 3/4+x,3/4+z,3/4+y
42 1/4-x,1/4+z,3/4-y
43 3/4-x,1/4-z,1/4+y
44 1/4+x,3/4-z,1/4-y
45 3/4+z,3/4+y,3/4+x
46 1/4+z,3/4-y,1/4-x
47 1/4-z,1/4+y,3/4-x
48 3/4-z,1/4-y,1/4+x
_cell_length_a                   30.361(3)
_cell_length_b                   30.361(3)
_cell_length_c                   30.361(3)
_cell_angle_alpha                90
_cell_angle_beta                 90
_cell_angle_gamma                90
_cell_volume                     27986.5
loop_
_atom_site_label
_atom_site_type_symbol
_atom_site_fract_x
_atom_site_fract_y
_atom_site_fract_z
O1 O 0.2741(4) 0.9721(4) 0.6186(4)
H1 H 0.2723 0.9623 0.5924
H2 H 0.2679 0.9994 0.6203
O2 O 0.3012(4) 0.9235(4) 0.5610(5)
H3 H 0.3238 0.9385 0.5677
H4 H 0.3091 0.9010 0.5461
O3 O 0.0838(4) 0.7351(4) 0.7245(4)
H5 H 0.0621 0.7482 0.7364
H6 H 0.0752 0.7223 0.7011
H7 H 0.2295 0.9243 0.9513
H8 H 0.2122 0.8820 0.9490
O4 O 0.2143(4) 0.9053(4) 0.9635(4)
O5 O 0.2654(4) 0.9322(4) 0.9117(4)
H9 H 0.2527 0.9108 0.9244
H10 H 0.2836 0.9224 0.8929
O6 O 0.1928(4) 0.7288(4) 0.8701(4)
H11 H 0.1954 0.7274 0.8980
H12 H 0.1676 0.7390 0.8636
O7 O 0.2158(8) 0.9864(7) 0.5667(6)
H13 H 0.1946 1.0045 0.5646
H14 H 0.2162 0.9698 0.5442
O8 O 0.1148(5) 0.7441(4) 0.8291(6)
H15 H 0.0873 0.7392 0.8272
H16 H 0.1288 0.7202 0.8256
C1 C 0.1862(3) 0.8492(3) 0.7687(2)
H17 H 0.1681 0.8419 0.7451
C2 C 0.2146(2) 0.8846(2) 0.8291(2)
H18 H 0.2185 0.9043 0.8521
C3 C 0.2424(2) 0.8490(2) 0.8191(2)
H19 H 0.2679 0.8413 0.8343
C4 C 0.2402(2) 0.7898(2) 0.7620(2)
C5 C -0.0122(2) 1.0399(2) 0.6712(2)
H20 H 0.0076 1.0628 0.6666
C6 C -0.04609(18) 0.9789(2) 0.6999(2)
H21 H -0.0522 0.9549 0.7178
C7 C -0.0720(2) 0.9936(2) 0.66400(19)
H22 H -0.0978 0.9807 0.6538
C8 C -0.0610(2) 1.0542(2) 0.60920(19)
Cu1 Cu 0.13167(3) 0.92869(2) 0.80451(2)
Cu2 Cu 0.03628(4) 1.0000 0.7500
I1 I 0.096868(16) 0.903841(15) 0.877032(16)
N1 N 0.17999(18) 0.88546(19) 0.79833(18)
N2 N 0.22486(19) 0.82649(18) 0.78178(18)
N3 N 0.21760(19) 0.77916(18) 0.72586(19)
N4 N -0.00925(19) 1.00719(18) 0.70372(18)
N5 N -0.05134(18) 1.03153(19) 0.64653(18)
N6 N -0.03620(18) 1.0895(2) 0.5962(2)
S1 S 0.08237(6) 0.93916(6) 0.74613(6)
W1 W 0.1250 1.0000 0.7500
C1G C 0.2313(2) 0.6862(3) 0.6508(3)
H17G H 0.2549 0.6681 0.6581
C2G C 0.1709(2) 0.7146(2) 0.6154(2)
H18G H 0.1479 0.7185 0.5957
C3G C 0.1809(2) 0.7424(2) 0.6510(2)
H19G H 0.1657 0.7679 0.6587
C4G C 0.2380(2) 0.7402(2) 0.7102(2)
N1G N 0.20167(18) 0.67999(18) 0.61454(19)
N2G N 0.21822(18) 0.72486(19) 0.67351(18)
N3G N 0.27414(19) 0.71760(19) 0.72084(18)
C1J C 0.3492(3) 0.7313(2) 0.8138(3)
H17J H 0.3419 0.7549 0.8319
C2J C 0.3846(2) 0.6709(2) 0.7854(2)
H18J H 0.4043 0.6479 0.7815
C3J C 0.3490(2) 0.6809(2) 0.7576(2)
H19J H 0.3413 0.6657 0.7321
C4J C 0.2898(2) 0.7380(2) 0.7598(2)
N1J N 0.38546(19) 0.70167(18) 0.82001(18)
N2J N 0.32649(18) 0.71822(18) 0.77514(19)
N3J N 0.27916(18) 0.77414(19) 0.78240(19)
C5F C -0.1712(2) 1.0122(2) 0.5399(2)
H20F H -0.1666 0.9924 0.5628
C6F C -0.1999(2) 1.04609(18) 0.4789(2)
H21F H -0.2178 1.0522 0.4549
C7F C -0.16400(19) 1.0720(2) 0.4936(2)
H22F H -0.1538 1.0978 0.4807
C8F C -0.10920(19) 1.0610(2) 0.5542(2)
N4F N -0.20372(18) 1.00925(19) 0.50719(18)
N5F N -0.14653(18) 1.05134(18) 0.53153(19)
N6F N -0.0962(2) 1.03620(18) 0.5895(2)
C5I C -0.0399(2) 1.1712(2) 0.5122(2)
H20I H -0.0628 1.1666 0.4924
C6I C 0.0211(2) 1.1999(2) 0.54609(18)
H21I H 0.0451 1.2178 0.5522
C7I C 0.0064(2) 1.16400(19) 0.5720(2)
H22I H 0.0193 1.1538 0.5978
C8I C -0.0542(2) 1.10920(19) 0.5610(2)
N4I N -0.00719(18) 1.20372(18) 0.50925(19)
N5I N -0.03153(19) 1.14653(18) 0.55134(18)
N6I N -0.0895(2) 1.0962(2) 0.53620(18)
C1F C -0.2687(2) 0.8138(3) 0.3492(3)
H17F H -0.2451 0.8319 0.3419
C2F C -0.3291(2) 0.7854(2) 0.3846(2)
H18F H -0.3521 0.7815 0.4043
C3F C -0.3191(2) 0.7576(2) 0.3490(2)
H19F H -0.3343 0.7321 0.3413
C4F C -0.2620(2) 0.7598(2) 0.2898(2)
Cu1F Cu -0.30451(2) 0.86833(3) 0.42869(2)
Cu2F Cu -0.2500 0.96372(4) 0.5000
I1F I -0.377032(16) 0.903132(16) 0.403841(15)
N1F N -0.29833(18) 0.82001(18) 0.38546(19)
N2F N -0.28178(18) 0.77514(19) 0.32649(18)
N3F N -0.22586(19) 0.78240(19) 0.27916(18)
S1F S -0.24613(6) 0.91763(6) 0.43916(6)
W1F W -0.2500 0.8750 0.5000
C1H C -0.1508(3) 0.7687(2) 0.1862(3)
H17H H -0.1581 0.7451 0.1681
C2H C -0.1154(2) 0.8291(2) 0.2146(2)
H18H H -0.0957 0.8521 0.2185
C3H C -0.1510(2) 0.8191(2) 0.2424(2)
H19H H -0.1587 0.8343 0.2679
C4H C -0.2102(2) 0.7620(2) 0.2402(2)
N1H N -0.11454(19) 0.79833(18) 0.17999(18)
N2H N -0.17351(18) 0.78178(18) 0.22486(19)
N3H N -0.22084(18) 0.72586(19) 0.21760(19)
C1C C -0.3138(3) 0.6508(3) 0.2313(2)
H17C H -0.3319 0.6581 0.2549
C2C C -0.2854(2) 0.6154(2) 0.1709(2)
H18C H -0.2815 0.5957 0.1479
C3C C -0.2576(2) 0.6510(2) 0.1809(2)
H19C H -0.2321 0.6587 0.1657
C4C C -0.2598(2) 0.7102(2) 0.2380(2)
N1C N -0.32001(18) 0.61454(19) 0.20167(18)
N2C N -0.27514(19) 0.67351(18) 0.21822(18)
N3C N -0.28240(19) 0.72084(18) 0.27414(19)
C5G C 0.3288(2) 0.4878(2) 0.4601(2)
H20G H 0.3334 0.5076 0.4372
C6G C 0.3001(2) 0.45391(18) 0.5211(2)
H21G H 0.2822 0.4478 0.5451
C7G C 0.33600(19) 0.4280(2) 0.5064(2)
H22G H 0.3462 0.4022 0.5193
C8G C 0.39080(19) 0.4390(2) 0.4458(2)
Cu1G Cu 0.19549(2) 0.63167(3) 0.57131(2)
Cu2G Cu 0.2500 0.53628(4) 0.5000
I1G I 0.122968(16) 0.596868(16) 0.596159(15)
N4G N 0.29628(18) 0.49075(19) 0.49281(18)
N5G N 0.35347(18) 0.44866(18) 0.46847(19)
N6G N 0.4038(2) 0.46380(18) 0.4105(2)
S1G S 0.25387(6) 0.58237(6) 0.56084(6)
W1G W 0.2500 0.6250 0.5000
C5K C 0.4601(2) 0.3288(2) 0.4878(2)
H20K H 0.4372 0.3334 0.5076
C6K C 0.5211(2) 0.3001(2) 0.45391(18)
H21K H 0.5451 0.2822 0.4478
C7K C 0.5064(2) 0.33600(19) 0.4280(2)
H22K H 0.5193 0.3462 0.4022
C8K C 0.4458(2) 0.39080(19) 0.4390(2)
N4K N 0.49281(18) 0.29628(18) 0.49075(19)
N5K N 0.46847(19) 0.35347(18) 0.44866(18)
N6K N 0.4105(2) 0.4038(2) 0.46380(18)
C5C C 0.4878(2) 0.4601(2) 0.3288(2)
H20C H 0.5076 0.4372 0.3334
C6C C 0.45391(18) 0.5211(2) 0.3001(2)
H21C H 0.4478 0.5451 0.2822
C7C C 0.4280(2) 0.5064(2) 0.33600(19)
H22C H 0.4022 0.5193 0.3462
C8C C 0.4390(2) 0.4458(2) 0.39080(19)
N4C N 0.49075(19) 0.49281(18) 0.29628(18)
N5C N 0.44866(18) 0.46847(19) 0.35347(18)
N6C N 0.46380(18) 0.4105(2) 0.4038(2)
C1I C 0.1508(3) 1.2687(2) 0.3138(3)
H17I H 0.1581 1.2451 0.3319
C2I C 0.1154(2) 1.3291(2) 0.2854(2)
H18I H 0.0957 1.3521 0.2815
C3I C 0.1510(2) 1.3191(2) 0.2576(2)
H19I H 0.1587 1.3343 0.2321
C4I C 0.2102(2) 1.2620(2) 0.2598(2)
Cu1I Cu 0.07131(2) 1.30451(2) 0.36833(3)
Cu2I Cu 0.0000 1.2500 0.46372(4)
I1I I 0.096159(15) 1.377032(16) 0.403132(16)
N1I N 0.11454(19) 1.29833(18) 0.32001(18)
N2I N 0.17351(18) 1.28178(18) 0.27514(19)
N3I N 0.22084(18) 1.22586(19) 0.28240(19)
S1I S 0.06084(6) 1.24613(6) 0.41763(6)
C1A C 0.3138(3) 1.1508(3) 0.2687(2)
H17A H 0.3319 1.1581 0.2451
C2A C 0.2854(2) 1.1154(2) 0.3291(2)
H18A H 0.2815 1.0957 0.3521
C3A C 0.2576(2) 1.1510(2) 0.3191(2)
H19A H 0.2321 1.1587 0.3343
C4A C 0.2598(2) 1.2102(2) 0.2620(2)
N1A N 0.32001(18) 1.11454(19) 0.29833(18)
N2A N 0.27514(19) 1.17351(18) 0.28178(18)
N3A N 0.28240(19) 1.22084(18) 0.22586(19)
C1E C 0.2687(2) 1.3138(3) 0.1508(3)
H17E H 0.2451 1.3319 0.1581
C2E C 0.3291(2) 1.2854(2) 0.1154(2)
H18E H 0.3521 1.2815 0.0957
C3E C 0.3191(2) 1.2576(2) 0.1510(2)
H19E H 0.3343 1.2321 0.1587
C4E C 0.2620(2) 1.2598(2) 0.2102(2)
N1E N 0.29833(18) 1.32001(18) 0.11454(19)
N2E N 0.28178(18) 1.27514(19) 0.17351(18)
N3E N 0.22586(19) 1.28240(19) 0.22084(18)
Cu1J Cu 0.42869(2) 0.69549(2) 0.86833(3)
I1J I 0.403841(15) 0.622968(16) 0.903132(16)
S1J S 0.43916(6) 0.75387(6) 0.91763(6)
C1O C -0.0992(3) 0.9362(3) 0.4813(2)
H17O H -0.0919 0.9181 0.5049
C2O C -0.1346(2) 0.9646(2) 0.4209(2)
H18O H -0.1543 0.9685 0.3979
C3O C -0.0990(2) 0.9924(2) 0.4309(2)
H19O H -0.0913 1.0179 0.4157
C4O C -0.0398(2) 0.9902(2) 0.4880(2)
Cu1O Cu -0.17869(2) 0.88167(3) 0.44549(2)
I1O I -0.153841(15) 0.846868(16) 0.372968(16)
N1O N -0.13546(19) 0.92999(18) 0.45167(18)
N2O N -0.07649(18) 0.97486(19) 0.46822(18)
N3O N -0.02916(18) 0.96760(19) 0.52414(19)
S1O S -0.18916(6) 0.83237(6) 0.50387(6)
C1R C 0.0638(3) 0.9813(2) 0.5992(3)
H17R H 0.0819 1.0049 0.5919
C2R C 0.0354(2) 0.9209(2) 0.6346(2)
H18R H 0.0315 0.8979 0.6543
C3R C 0.0076(2) 0.9309(2) 0.5990(2)
H19R H -0.0179 0.9157 0.5913
C4R C 0.0098(2) 0.9880(2) 0.5398(2)
N1R N 0.07001(18) 0.95167(18) 0.63546(19)
N2R N 0.02514(19) 0.96822(18) 0.57649(18)
N3R N 0.03240(19) 1.02414(19) 0.52916(18)
C1T C 0.0187(2) 1.0992(3) 0.4362(3)
H17T H -0.0049 1.0919 0.4181
C2T C 0.0791(2) 1.1346(2) 0.4646(2)
H18T H 0.1021 1.1543 0.4685
C3T C 0.0691(2) 1.0990(2) 0.4924(2)
H19T H 0.0843 1.0913 0.5179
C4T C 0.0120(2) 1.0398(2) 0.4902(2)
N1T N 0.04833(18) 1.13546(19) 0.42999(18)
N2T N 0.03178(18) 1.07649(18) 0.47486(19)
N3T N -0.02414(19) 1.02916(18) 0.46760(19)
Cu1R Cu 0.11833(3) 0.94549(2) 0.67869(2)
Cu2R Cu 0.21372(4) 1.0000 0.7500
I1R I 0.153132(16) 0.872968(16) 0.653841(15)
S1R S 0.16763(6) 1.00387(6) 0.68916(6)
Cu1W Cu 0.44549(2) 0.82131(2) 0.88167(3)
I1W I 0.372968(16) 0.846159(15) 0.846868(16)
S1W S 0.50387(6) 0.81084(6) 0.83237(6)
C5AA C -0.0122(2) 0.9601(2) 0.8288(2)
H20AA H 0.0076 0.9372 0.8334
C6AA C -0.04609(18) 1.0211(2) 0.8001(2)
H21AA H -0.0522 1.0451 0.7822
C7AA C -0.0720(2) 1.0064(2) 0.83600(19)
H22AA H -0.0978 1.0193 0.8462
C8AA C -0.0610(2) 0.9458(2) 0.89080(19)
N4AA N -0.00925(19) 0.99281(18) 0.79628(18)
N5AA N -0.05134(18) 0.96847(19) 0.85347(18)
N6AA N -0.03620(18) 0.9105(2) 0.9038(2)
C5EA C -0.1712(2) 0.9878(2) 0.9601(2)
H20EA H -0.1666 1.0076 0.9372
C6EA C -0.1999(2) 0.95391(18) 1.0211(2)
H21EA H -0.2178 0.9478 1.0451
C7EA C -0.16400(19) 0.9280(2) 1.0064(2)
H22EA H -0.1538 0.9022 1.0193
C8EA C -0.10920(19) 0.9390(2) 0.9458(2)
N4EA N -0.20372(18) 0.99075(19) 0.99281(18)
N5EA N -0.14653(18) 0.94866(18) 0.96847(19)
N6EA N -0.0962(2) 0.96380(18) 0.9105(2)
C5IA C -0.0399(2) 0.8288(2) 0.9878(2)
H20IA H -0.0628 0.8334 1.0076
C6IA C 0.0211(2) 0.8001(2) 0.95391(18)
H21IA H 0.0451 0.7822 0.9478
C7IA C 0.0064(2) 0.83600(19) 0.9280(2)
H22IA H 0.0193 0.8462 0.9022
C8IA C -0.0542(2) 0.89080(19) 0.9390(2)
N4IA N -0.00719(18) 0.79628(18) 0.99075(19)
N5IA N -0.03153(19) 0.85347(18) 0.94866(18)
N6IA N -0.0895(2) 0.9038(2) 0.96380(18)
C5CA C -0.3288(2) 1.0122(2) 0.4601(2)
H20CA H -0.3334 0.9924 0.4372
C6CA C -0.3001(2) 1.04609(18) 0.5211(2)
H21CA H -0.2822 1.0522 0.5451
C7CA C -0.33600(19) 1.0720(2) 0.5064(2)
H22CA H -0.3462 1.0978 0.5193
C8CA C -0.39080(19) 1.0610(2) 0.4458(2)
N4CA N -0.29628(18) 1.00925(19) 0.49281(18)
N5CA N -0.35347(18) 1.05134(18) 0.46847(19)
N6CA N -0.4038(2) 1.03620(18) 0.4105(2)
C5FA C -0.4601(2) 1.1712(2) 0.4878(2)
H20FA H -0.4372 1.1666 0.5076
C6FA C -0.5211(2) 1.1999(2) 0.45391(18)
H21FA H -0.5451 1.2178 0.4478
C7FA C -0.5064(2) 1.16400(19) 0.4280(2)
H22FA H -0.5193 1.1538 0.4022
C8FA C -0.4458(2) 1.10920(19) 0.4390(2)
N4FA N -0.49281(18) 1.20372(18) 0.49075(19)
N5FA N -0.46847(19) 1.14653(18) 0.44866(18)
N6FA N -0.4105(2) 1.0962(2) 0.46380(18)
C5Z C -0.4878(2) 1.0399(2) 0.3288(2)
H20Z H -0.5076 1.0628 0.3334
C6Z C -0.45391(18) 0.9789(2) 0.3001(2)
H21Z H -0.4478 0.9549 0.2822
C7Z C -0.4280(2) 0.9936(2) 0.33600(19)
H22Z H -0.4022 0.9807 0.3462
C8Z C -0.4390(2) 1.0542(2) 0.39080(19)
N4Z N -0.49075(19) 1.00719(18) 0.29628(18)
N5Z N -0.44866(18) 1.03153(19) 0.35347(18)
N6Z N -0.46380(18) 1.0895(2) 0.4038(2)
Cu1OA Cu 0.11833(3) 1.05451(2) 0.82131(2)
I1OA I 0.153132(16) 1.127032(16) 0.846159(15)
S1OA S 0.16763(6) 0.99613(6) 0.81084(6)
Cu1AA Cu 0.13167(3) 1.07131(2) 0.69549(2)
I1AA I 0.096868(16) 1.096159(15) 0.622968(16)
S1AA S 0.08237(6) 1.06084(6) 0.75387(6)
Cu1JA Cu -0.32131(2) 0.88167(3) 0.55451(2)
I1JA I -0.346159(15) 0.846868(16) 0.627032(16)
S1JA S -0.31084(6) 0.83237(6) 0.49613(6)
Cu1CA Cu -0.19549(2) 0.86833(3) 0.57131(2)
I1CA I -0.122968(16) 0.903132(16) 0.596159(15)
S1CA S -0.25387(6) 0.91763(6) 0.56084(6)
Cu2K Cu 0.5000 0.2500 0.53628(4)
Cu1A Cu 0.36833(3) 1.07131(2) 0.30451(2)
Cu1C Cu -0.36833(3) 0.57131(2) 0.19549(2)
Cu1E Cu 0.30451(2) 1.36833(3) 0.07131(2)
Cu1H Cu -0.07131(2) 0.80451(2) 0.13167(3)
Cu1M Cu 0.32131(2) 0.61833(3) 0.55451(2)
Cu1T Cu 0.05451(2) 1.17869(2) 0.38167(3)
Cu1GA Cu 0.57131(2) 0.80451(2) 0.86833(3)
Cu2A Cu -0.53628(4) 1.0000 0.2500
Cu2C Cu 0.53628(4) 0.5000 0.2500
Cu2D Cu -0.2500 1.03628(4) 1.0000
Cu2H Cu 0.0000 0.7500 1.03628(4)
Cu2J Cu 0.5000 0.7500 0.96372(4)
Cu2K_2 Cu -0.5000 1.2500 0.53628(4)
Cu2O Cu -0.2500 0.78628(4) 0.5000
Cu2W Cu 0.5000 0.7500 0.78628(4)
N1W N 0.45167(18) 0.86454(19) 0.92999(18)
N1AA N 0.17999(18) 1.11454(19) 0.70167(18)
N1CA N -0.20167(18) 0.82001(18) 0.61454(19)
N1JA N -0.36454(19) 0.92999(18) 0.54833(18)
N1OA N 0.07001(18) 1.04833(18) 0.86454(19)
N4R N 0.25925(19) 1.04628(18) 0.75719(18)
N4BA N 0.20372(18) 0.49075(19) 0.50719(18)
N4FA_2 N 0.50719(18) 0.20372(18) 0.49075(19)
N4HA N 0.00719(18) 1.29628(18) 0.50925(19)
N4OA N 0.25925(19) 0.95372(18) 0.74281(18)
S1K S 0.56084(6) 0.25387(6) 0.58237(6)
S1M S 0.31084(6) 0.66763(6) 0.49613(6)
S1BA S 0.24613(6) 0.58237(6) 0.43916(6)
S1FA S 0.43916(6) 0.24613(6) 0.58237(6)
S1HA S -0.06084(6) 1.25387(6) 0.41763(6)
S1LA S 0.18916(6) 0.66763(6) 0.50387(6)
S1RA S 0.49613(6) 0.68916(6) 0.83237(6)
S1UA S 0.00387(6) 1.31084(6) 0.33237(6)
W1I W 0.0000 1.2500 0.3750
W1J W 0.5000 0.7500 0.8750
loop_
_geom_bond_atom_site_label_1
_geom_bond_atom_site_label_2
_geom_bond_site_symmetry_1
_geom_bond_site_symmetry_2
O1 H1 1_555 1_555
H2 O1 1_555 1_555
O2 H3 1_555 1_555
H4 O2 1_555 1_555
O3 H5 1_555 1_555
H6 O3 1_555 1_555
H7 O4 1_555 1_555
H8 O4 1_555 1_555
O5 H9 1_555 1_555
H10 O5 1_555 1_555
O6 H11 1_555 1_555
H12 O6 1_555 1_555
O7 H13 1_555 1_555
H14 O7 1_555 1_555
O8 H15 1_555 1_555
H16 O8 1_555 1_555
C1 H17 1_555 1_555
C2 H18 1_555 1_555
C3 C2 1_555 1_555
H19 C3 1_555 1_555
C4 N2 1_555 1_555
C5 H20 1_555 1_555
C6 H21 1_555 1_555
C7 C6 1_555 1_555
H22 C7 1_555 1_555
C8 N5 1_555 1_555
Cu1 I1 1_555 1_555
Cu2 N4 1_555 1_555
N1 C1 1_555 1_555
N2 C1 1_555 1_555
N3 C4 1_555 1_555
N4 C5 1_555 1_555
N5 C5 1_555 1_555
N6 C8 1_555 1_555
S1 Cu1 1_555 1_555
W1 S1 1_555 1_555
C1G H17G 1_555 1_555
C2G H18G 1_555 1_555
C3G C2G 1_555 1_555
H19G C3G 1_555 1_555
C4G N3 1_555 1_555
N1G C1G 1_555 1_555
N2G C1G 1_555 1_555
N3G C4G 1_555 1_555
C1J H17J 1_555 1_555
C2J H18J 1_555 1_555
C3J C2J 1_555 1_555
H19J C3J 1_555 1_555
C4J N3G 1_555 1_555
N1J C1J 1_555 1_555
N2J C1J 1_555 1_555
N3J C4 1_555 1_555
C5F H20F 1_555 1_555
C6F H21F 1_555 1_555
C7F C6F 1_555 1_555
H22F C7F 1_555 1_555
C8F N5F 1_555 1_555
N4F C5F 1_555 1_555
N5F C5F 1_555 1_555
N6F C8 1_555 1_555
C5I H20I 1_555 1_555
C6I H21I 1_555 1_555
C7I C6I 1_555 1_555
H22I C7I 1_555 1_555
C8I N6 1_555 1_555
N4I C5I 1_555 1_555
N5I C5I 1_555 1_555
N6I C8F 1_555 1_555
C1F H17F 1_555 1_555
C2F H18F 1_555 1_555
C3F C2F 1_555 1_555
H19F C3F 1_555 1_555
C4F N2F 1_555 1_555
Cu1F I1F 1_555 1_555
Cu2F N4F 1_555 1_555
N1F C1F 1_555 1_555
N2F C1F 1_555 1_555
N3F C4F 1_555 1_555
S1F Cu1F 1_555 1_555
W1F S1F 1_555 1_555
C1H H17H 1_555 1_555
C2H H18H 1_555 1_555
C3H C2H 1_555 1_555
H19H C3H 1_555 1_555
C4H N3F 1_555 1_555
N1H C1H 1_555 1_555
N2H C1H 1_555 1_555
N3H C4H 1_555 1_555
C1C H17C 1_555 1_555
C2C H18C 1_555 1_555
C3C C2C 1_555 1_555
H19C C3C 1_555 1_555
C4C N3H 1_555 1_555
N1C C1C 1_555 1_555
N2C C1C 1_555 1_555
N3C C4F 1_555 1_555
C5G H20G 1_555 1_555
C6G H21G 1_555 1_555
C7G C6G 1_555 1_555
H22G C7G 1_555 1_555
C8G N5G 1_555 1_555
Cu1G N1G 1_555 1_555
Cu2G N4G 1_555 1_555
I1G Cu1G 1_555 1_555
N4G C5G 1_555 1_555
N5G C5G 1_555 1_555
N6G C8G 1_555 1_555
S1G Cu1G 1_555 1_555
W1G S1G 1_555 1_555
C5K H20K 1_555 1_555
C6K H21K 1_555 1_555
C7K C6K 1_555 1_555
H22K C7K 1_555 1_555
C8K N5K 1_555 1_555
N4K C5K 1_555 1_555
N5K C5K 1_555 1_555
N6K C8G 1_555 1_555
C5C H20C 1_555 1_555
C6C H21C 1_555 1_555
C7C C6C 1_555 1_555
H22C C7C 1_555 1_555
C8C N6G 1_555 1_555
N4C C5C 1_555 1_555
N5C C5C 1_555 1_555
N6C C8K 1_555 1_555
C1I H17I 1_555 1_555
C2I H18I 1_555 1_555
C3I C2I 1_555 1_555
H19I C3I 1_555 1_555
C4I N2I 1_555 1_555
Cu1I I1I 1_555 1_555
Cu2I N4I 1_555 1_555
N1I C1I 1_555 1_555
N2I C1I 1_555 1_555
N3I C4I 1_555 1_555
S1I Cu1I 1_555 1_555
C1A H17A 1_555 1_555
C2A H18A 1_555 1_555
C3A C2A 1_555 1_555
H19A C3A 1_555 1_555
C4A N3I 1_555 1_555
N1A C1A 1_555 1_555
N2A C1A 1_555 1_555
N3A C4A 1_555 1_555
C1E H17E 1_555 1_555
C2E H18E 1_555 1_555
C3E C2E 1_555 1_555
H19E C3E 1_555 1_555
C4E N3A 1_555 1_555
N1E C1E 1_555 1_555
N2E C1E 1_555 1_555
N3E C4I 1_555 1_555
Cu1J N1J 1_555 1_555
I1J Cu1J 1_555 1_555
S1J Cu1J 1_555 1_555
C1O H17O 1_555 1_555
C2O H18O 1_555 1_555
C3O C2O 1_555 1_555
H19O C3O 1_555 1_555
C4O N2O 1_555 1_555
Cu1O S1F 1_555 1_555
I1O Cu1O 1_555 1_555
N1O C1O 1_555 1_555
N2O C1O 1_555 1_555
N3O C4O 1_555 1_555
S1O W1F 1_555 1_555
C1R H17R 1_555 1_555
C2R H18R 1_555 1_555
C3R C2R 1_555 1_555
H19R C3R 1_555 1_555
C4R N3O 1_555 1_555
N1R C1R 1_555 1_555
N2R C1R 1_555 1_555
N3R C4R 1_555 1_555
C1T H17T 1_555 1_555
C2T H18T 1_555 1_555
C3T C2T 1_555 1_555
H19T C3T 1_555 1_555
C4T N3R 1_555 1_555
N1T C1T 1_555 1_555
N2T C1T 1_555 1_555
N3T C4O 1_555 1_555
Cu1R S1 1_555 1_555
Cu2R S1R 1_555 1_555
I1R Cu1R 1_555 1_555
S1R W1 1_555 1_555
Cu1W S1J 1_555 1_555
I1W Cu1W 1_555 1_555
S1W Cu1W 1_555 1_555
C5AA H20AA 1_555 1_555
C6AA H21AA 1_555 1_555
C7AA C6AA 1_555 1_555
H22AA C7AA 1_555 1_555
C8AA N5AA 1_555 1_555
N4AA Cu2 1_555 1_555
N5AA C5AA 1_555 1_555
N6AA C8AA 1_555 1_555
C5EA H20EA 1_555 1_555
C6EA H21EA 1_555 1_555
C7EA C6EA 1_555 1_555
H22EA C7EA 1_555 1_555
C8EA N5EA 1_555 1_555
N4EA C5EA 1_555 1_555
N5EA C5EA 1_555 1_555
N6EA C8AA 1_555 1_555
C5IA H20IA 1_555 1_555
C6IA H21IA 1_555 1_555
C7IA C6IA 1_555 1_555
H22IA C7IA 1_555 1_555
C8IA N6AA 1_555 1_555
N4IA C5IA 1_555 1_555
N5IA C5IA 1_555 1_555
N6IA C8EA 1_555 1_555
C5CA H20CA 1_555 1_555
C6CA H21CA 1_555 1_555
C7CA C6CA 1_555 1_555
H22CA C7CA 1_555 1_555
C8CA N5CA 1_555 1_555
N4CA Cu2F 1_555 1_555
N5CA C5CA 1_555 1_555
N6CA C8CA 1_555 1_555
C5FA H20FA 1_555 1_555
C6FA H21FA 1_555 1_555
C7FA C6FA 1_555 1_555
H22FA C7FA 1_555 1_555
C8FA N5FA 1_555 1_555
N4FA C5FA 1_555 1_555
N5FA C5FA 1_555 1_555
N6FA C8CA 1_555 1_555
C5Z H20Z 1_555 1_555
C6Z H21Z 1_555 1_555
C7Z C6Z 1_555 1_555
H22Z C7Z 1_555 1_555
C8Z N6CA 1_555 1_555
N4Z C5Z 1_555 1_555
N5Z C5Z 1_555 1_555
N6Z C8FA 1_555 1_555
Cu1OA I1OA 1_555 1_555
S1OA Cu1 1_555 1_555
Cu1AA S1R 1_555 1_555
I1AA Cu1AA 1_555 1_555
S1AA Cu2 1_555 1_555
Cu1JA I1JA 1_555 1_555
S1JA Cu1F 1_555 1_555
Cu1CA S1O 1_555 1_555
I1CA Cu1CA 1_555 1_555
S1CA Cu2F 1_555 1_555
Cu2K N4K 1_555 1_555
Cu1A N1A 1_555 1_555
Cu1C N1C 1_555 1_555
Cu1E N1E 1_555 1_555
Cu1H N1H 1_555 1_555
Cu1M S1G 1_555 1_555
Cu1T S1I 1_555 1_555
Cu1GA S1W 1_555 1_555
Cu2A N4Z 1_555 1_555
Cu2C N4C 1_555 1_555
Cu2D N4EA 1_555 1_555
Cu2H N4IA 1_555 1_555
Cu2J S1J 1_555 1_555
Cu2K_2 N4FA 1_555 1_555
Cu2O S1O 1_555 1_555
Cu2W S1W 1_555 1_555
N1W Cu1W 1_555 1_555
N1AA Cu1AA 1_555 1_555
N1CA Cu1CA 1_555 1_555
N1JA Cu1JA 1_555 1_555
N1OA Cu1OA 1_555 1_555
N4R Cu2R 1_555 1_555
N4BA Cu2G 1_555 1_555
N4FA_2 Cu2K 1_555 1_555
N4HA Cu2I 1_555 1_555
N4OA Cu2R 1_555 1_555
S1K Cu2K 1_555 1_555
S1M W1G 1_555 1_555
S1BA Cu2G 1_555 1_555
S1FA Cu2K 1_555 1_555
S1HA Cu2I 1_555 1_555
S1LA Cu1G 1_555 1_555
S1RA Cu1J 1_555 1_555
S1UA Cu1I 1_555 1_555
W1I S1I 1_555 1_555
W1J S1J 1_555 1_555
C2 N1 1_555 1_555
C3 N2 1_555 1_555
C6 N4 1_555 1_555
C7 N5 1_555 1_555
Cu1 N1 1_555 1_555
Cu2 S1 1_555 1_555
W1 S1OA 1_555 1_555
W1 S1AA 1_555 1_555
C2G N1G 1_555 1_555
C3G N2G 1_555 1_555
C4G N2G 1_555 1_555
C2J N1J 1_555 1_555
C3J N2J 1_555 1_555
C4J N2J 1_555 1_555
C4J N3J 1_555 1_555
C6F N4F 1_555 1_555
C7F N5F 1_555 1_555
C8F N6F 1_555 1_555
C6I N4I 1_555 1_555
C7I N5I 1_555 1_555
C8I N5I 1_555 1_555
C8I N6I 1_555 1_555
C2F N1F 1_555 1_555
C3F N2F 1_555 1_555
Cu1F N1F 1_555 1_555
Cu2F S1F 1_555 1_555
W1F S1JA 1_555 1_555
W1F S1CA 1_555 1_555
C2H N1H 1_555 1_555
C3H N2H 1_555 1_555
C4H N2H 1_555 1_555
C2C N1C 1_555 1_555
C3C N2C 1_555 1_555
C4C N2C 1_555 1_555
C4C N3C 1_555 1_555
C6G N4G 1_555 1_555
C7G N5G 1_555 1_555
Cu2G S1G 1_555 1_555
W1G S1BA 1_555 1_555
W1G S1LA 1_555 1_555
C6K N4K 1_555 1_555
C7K N5K 1_555 1_555
C8K N6K 1_555 1_555
C6C N4C 1_555 1_555
C7C N5C 1_555 1_555
C8C N5C 1_555 1_555
C8C N6C 1_555 1_555
C2I N1I 1_555 1_555
C3I N2I 1_555 1_555
Cu1I N1I 1_555 1_555
Cu2I S1I 1_555 1_555
C2A N1A 1_555 1_555
C3A N2A 1_555 1_555
C4A N2A 1_555 1_555
C2E N1E 1_555 1_555
C3E N2E 1_555 1_555
C4E N2E 1_555 1_555
C4E N3E 1_555 1_555
C2O N1O 1_555 1_555
C3O N2O 1_555 1_555
Cu1O N1O 1_555 1_555
Cu1O S1O 1_555 1_555
C2R N1R 1_555 1_555
C3R N2R 1_555 1_555
C4R N2R 1_555 1_555
N1R Cu1R 1_555 1_555
C2T N1T 1_555 1_555
C3T N2T 1_555 1_555
C4T N2T 1_555 1_555
C4T N3T 1_555 1_555
N1T Cu1T 1_555 1_555
Cu1R S1R 1_555 1_555
Cu2R S1OA 1_555 1_555
S1W W1J 1_555 1_555
C5AA N4AA 1_555 1_555
C6AA N4AA 1_555 1_555
C7AA N5AA 1_555 1_555
C6EA N4EA 1_555 1_555
C7EA N5EA 1_555 1_555
C8EA N6EA 1_555 1_555
C6IA N4IA 1_555 1_555
C7IA N5IA 1_555 1_555
C8IA N5IA 1_555 1_555
C8IA N6IA 1_555 1_555
C5CA N4CA 1_555 1_555
C6CA N4CA 1_555 1_555
C7CA N5CA 1_555 1_555
C6FA N4FA 1_555 1_555
C7FA N5FA 1_555 1_555
C8FA N6FA 1_555 1_555
C6Z N4Z 1_555 1_555
C7Z N5Z 1_555 1_555
C8Z N5Z 1_555 1_555
C8Z N6Z 1_555 1_555
Cu1OA S1OA 1_555 1_555
Cu1OA S1AA 1_555 1_555
Cu1AA S1AA 1_555 1_555
Cu1JA S1JA 1_555 1_555
Cu1JA S1CA 1_555 1_555
S1JA Cu2O 1_555 1_555
Cu1CA S1CA 1_555 1_555
Cu1M S1M 1_555 1_555
Cu2W S1RA 1_555 1_555
S1HA W1I 1_555 1_555
S1RA W1J 1_555 1_555
S1UA W1I 1_555 1_555

#END
