
#######################################################################
#
#                 Cambridge Crystallographic Data Centre
#                                CCDC 
#
#######################################################################
#
# If this CIF has been generated from an entry in the Cambridge 
# Structural Database, then it will include bibliographic, chemical, 
# crystal, experimental, refinement or atomic coordinate data resulting 
# from the CCDC's data processing and validation procedures.
#
#######################################################################

data_OTAWIR
_chemical_formula_moiety         '(C24 H16 N2 O5 Zn1)n'
_symmetry_cell_setting           monoclinic
_symmetry_space_group_name_H-M   'C 2/c'
_symmetry_Int_Tables_number      15
_space_group_name_Hall           '-C 2yc'
loop_
_symmetry_equiv_pos_site_id
_symmetry_equiv_pos_as_xyz
1 x,y,z
2 -x,y,1/2-z
3 1/2+x,1/2+y,z
4 1/2-x,1/2+y,1/2-z
5 -x,-y,-z
6 x,-y,1/2+z
7 1/2-x,1/2-y,-z
8 1/2+x,1/2-y,1/2+z
_cell_length_a                   28.6626(14)
_cell_length_b                   10.6905(7)
_cell_length_c                   28.2321(15)
_cell_angle_alpha                90
_cell_angle_beta                 111.522(6)
_cell_angle_gamma                90
_cell_volume                     8047.65
loop_
_atom_site_label
_atom_site_type_symbol
_atom_site_fract_x
_atom_site_fract_y
_atom_site_fract_z
_atom_site_U_iso_or_equiv
_atom_site_thermal_displace_type
Zn1 Zn 0.10915(2) 0.22393(6) 0.48011(2) 0.0464 Uani
O1 O 0.15929(12) 0.2122(3) 0.55316(11) 0.0552 Uani
N1 N 0.27907(11) 0.3738(4) 0.80858(11) 0.0473 Uani
N2 N 0.14711(12) 0.6647(4) 0.94628(11) 0.0493 Uani
C1 C 0.19971(12) 0.5396(4) 0.89500(13) 0.0455 Uani
C2 C 0.22714(11) 0.4800(4) 0.86550(12) 0.0433 Uani
C3 C 0.30255(12) 0.3977(4) 0.85838(13) 0.0421 Uani
O2 O 0.10797(13) 0.3715(4) 0.54225(11) 0.0696 Uani
C4 C 0.23025(13) 0.4037(4) 0.78658(13) 0.0451 Uani
C5 C 0.27821(12) 0.4498(4) 0.88801(12) 0.0445 Uani
H1 H 0.2956 0.4645 0.9225 0.0530 Uiso
C6 C 0.35681(12) 0.3681(4) 0.87985(13) 0.0453 Uani
C7 C 0.20703(14) 0.3771(5) 0.73111(13) 0.0503 Uani
O3 O 0.54234(11) 0.3489(5) 0.97732(17) 0.0819 Uani
C8 C 0.20321(12) 0.4543(5) 0.81363(13) 0.0509 Uani
H2 H 0.1692 0.4711 0.7974 0.0610 Uiso
C9 C 0.14293(14) 0.3019(5) 0.57033(15) 0.0507 Uani
C10 C 0.16487(14) 0.3291(5) 0.62664(14) 0.0509 Uani
C11 C 0.44062(14) 0.4066(5) 0.94103(17) 0.0602 Uani
H3 H 0.4620 0.4496 0.9693 0.0720 Uiso
C12 C 0.38926(13) 0.4331(5) 0.92172(15) 0.0549 Uani
H4 H 0.3767 0.4947 0.9370 0.0660 Uiso
C13 C 0.45948(14) 0.3168(5) 0.91812(17) 0.0560 Uani
O4 O 0.53319(15) 0.2167(6) 0.9172(2) 0.0967 Uani
C14 C 0.37605(17) 0.2763(5) 0.85731(19) 0.0625 Uani
H5 H 0.3548 0.2320 0.8294 0.0740 Uiso
C15 C 0.20576(19) 0.2612(5) 0.65752(16) 0.0600 Uani
H6 H 0.2192 0.1989 0.6434 0.0720 Uiso
C16 C 0.16541(18) 0.4436(6) 0.70025(15) 0.0665 Uani
H7 H 0.1509 0.5036 0.7144 0.0800 Uiso
C17 C 0.14520(16) 0.4204(6) 0.64778(15) 0.0628 Uani
H8 H 0.1181 0.4675 0.6271 0.0750 Uiso
C18 C 0.22687(17) 0.2849(5) 0.70924(17) 0.0634 Uani
H9 H 0.2545 0.2388 0.7295 0.0760 Uiso
C19 C 0.42688(19) 0.2509(6) 0.8766(2) 0.0737 Uani
H10 H 0.4395 0.1887 0.8615 0.0880 Uiso
C20 C 0.51501(17) 0.2910(6) 0.9382(2) 0.0693 Uani
O5 O 0.1310(2) 0.0601(6) 0.4557(2) 0.1078 Uani
H11 H 0.1487 0.0032 0.4751 0.1620 Uiso
H12 H 0.1238 0.0389 0.4248 0.1620 Uiso
C21 C 0.22217(15) 0.5965(9) 0.9388(2) 0.1033 Uani
H13 H 0.2570 0.5997 0.9529 0.1240 Uiso
C22 C 0.19347(18) 0.6527(9) 0.9642(2) 0.1017 Uani
H14 H 0.2105 0.6831 0.9969 0.1220 Uiso
C23 C 0.12359(17) 0.5892(9) 0.9066(3) 0.0957 Uani
H15 H 0.0889 0.5820 0.8959 0.1150 Uiso
C24 C 0.14758(19) 0.5222(9) 0.8809(3) 0.0994 Uani
H16 H 0.1301 0.4670 0.8550 0.1190 Uiso
Zn1E Zn 0.10915(2) 0.77607(6) 0.98011(2) 0.0464 Uani
Zn1G Zn 0.60915(2) 0.27607(6) 0.98011(2) 0.0464 Uani
N2E N 0.14711(12) 0.3353(4) 0.44628(11) 0.0493 Uani
O3G O 0.04234(11) 0.1511(5) 0.47732(17) 0.0819 Uani
O4G O 0.03319(15) 0.2833(6) 0.4172(2) 0.0967 Uani
loop_
_atom_site_aniso_label
_atom_site_aniso_U_11
_atom_site_aniso_U_22
_atom_site_aniso_U_33
_atom_site_aniso_U_23
_atom_site_aniso_U_13
_atom_site_aniso_U_12
Zn1 0.0269(3) 0.0877(5) 0.0197(3) 0.0022(2) 0.0026(2) -0.0195(2)
O1 0.0472(16) 0.089(2) 0.0234(12) -0.0060(13) 0.0059(11) -0.0107(14)
N1 0.0283(13) 0.082(2) 0.0248(13) -0.0101(14) 0.0018(11) 0.0149(13)
N2 0.0357(14) 0.088(2) 0.0230(13) -0.0080(15) 0.0094(11) 0.0172(15)
C1 0.0243(14) 0.084(2) 0.0252(15) -0.0092(16) 0.0055(12) 0.0080(15)
C2 0.0236(14) 0.075(2) 0.0250(15) -0.0083(15) 0.0015(12) 0.0095(14)
C3 0.0229(14) 0.069(2) 0.0260(15) -0.0091(15) -0.0008(12) 0.0070(13)
O2 0.0541(17) 0.110(3) 0.0284(13) -0.0027(16) -0.0041(12) 0.0148(18)
C4 0.0291(15) 0.076(2) 0.0227(15) -0.0087(15) 0.0008(12) 0.0107(15)
C5 0.0249(14) 0.078(2) 0.0240(15) -0.0098(15) 0.0011(12) 0.0098(14)
C6 0.0254(15) 0.076(2) 0.0298(16) -0.0097(17) 0.0045(12) 0.0132(15)
C7 0.0363(16) 0.084(2) 0.0217(15) -0.0120(17) 0.0000(13) 0.0140(17)
O3 0.0243(13) 0.121(3) 0.079(2) 0.007(2) -0.0063(14) 0.0153(16)
C8 0.0241(13) 0.094(3) 0.0275(16) -0.0087(18) 0.0011(12) 0.0119(16)
C9 0.0326(16) 0.087(3) 0.0269(18) -0.0055(18) 0.0044(14) -0.0103(17)
C10 0.0383(17) 0.085(3) 0.0226(16) -0.0025(18) 0.0031(13) 0.0000(18)
C11 0.0274(17) 0.096(3) 0.044(2) -0.013(2) -0.0025(15) 0.0082(18)
C12 0.0256(15) 0.091(3) 0.0365(18) -0.025(2) -0.0024(13) 0.0124(16)
C13 0.0244(16) 0.087(3) 0.047(2) 0.000(2) 0.0016(15) 0.0172(17)
O4 0.0413(18) 0.156(5) 0.088(3) -0.011(3) 0.0182(19) 0.037(2)
C14 0.038(2) 0.092(3) 0.048(2) -0.024(2) 0.0047(18) 0.0169(19)
C15 0.052(2) 0.092(3) 0.0258(19) -0.0147(19) 0.0021(17) 0.020(2)
C16 0.053(2) 0.102(3) 0.0303(19) -0.015(2) -0.0014(17) 0.030(2)
C17 0.047(2) 0.101(3) 0.0262(17) -0.005(2) -0.0033(15) 0.020(2)
C18 0.041(2) 0.106(4) 0.030(2) -0.016(2) -0.0024(17) 0.028(2)
C19 0.041(2) 0.104(3) 0.064(3) -0.034(3) 0.005(2) 0.027(2)
C20 0.028(2) 0.101(4) 0.069(3) 0.010(3) 0.006(2) 0.019(2)
O5 0.116(4) 0.117(4) 0.095(3) -0.039(3) 0.044(3) -0.022(3)
C21 0.0256(17) 0.208(8) 0.063(3) -0.074(4) 0.0006(18) 0.025(3)
C22 0.035(2) 0.202(8) 0.054(3) -0.070(4) -0.0004(19) 0.030(3)
C23 0.0298(19) 0.163(7) 0.082(4) -0.049(4) 0.006(2) 0.011(3)
C24 0.039(2) 0.162(7) 0.090(4) -0.067(5) 0.015(2) 0.001(3)
Zn1E 0.0269 0.0877 0.0197 -0.0022 0.0026 0.0195
Zn1G 0.0269 0.0877 0.0197 -0.0022 0.0026 0.0195
N2E 0.0357 0.088 0.023 0.008 0.0094 -0.0172
O3G 0.0243 0.121 0.079 -0.007 -0.0063 -0.0153
O4G 0.0413 0.156 0.088 0.011 0.0182 -0.037
loop_
_geom_bond_atom_site_label_1
_geom_bond_atom_site_label_2
_geom_bond_site_symmetry_1
_geom_bond_site_symmetry_2
Zn1 O1 1_555 1_555
O1 C9 1_555 1_555
N1 C3 1_555 1_555
N2 C22 1_555 1_555
C1 C2 1_555 1_555
C2 C5 1_555 1_555
C3 C5 1_555 1_555
O2 Zn1 1_555 1_555
C4 N1 1_555 1_555
C5 H1 1_555 1_555
C6 C3 1_555 1_555
C7 C4 1_555 1_555
O3 C20 1_555 1_555
C8 C2 1_555 1_555
H2 C8 1_555 1_555
C9 O2 1_555 1_555
C10 C9 1_555 1_555
C11 H3 1_555 1_555
C12 C6 1_555 1_555
H4 C12 1_555 1_555
C13 C11 1_555 1_555
O4 C20 1_555 1_555
C14 C6 1_555 1_555
H5 C14 1_555 1_555
C15 C10 1_555 1_555
H6 C15 1_555 1_555
C16 C7 1_555 1_555
H7 C16 1_555 1_555
C17 C10 1_555 1_555
H8 C17 1_555 1_555
C18 C7 1_555 1_555
H9 C18 1_555 1_555
C19 C13 1_555 1_555
H10 C19 1_555 1_555
C20 C13 1_555 1_555
O5 Zn1 1_555 1_555
H11 O5 1_555 1_555
H12 O5 1_555 1_555
C21 C1 1_555 1_555
H13 C21 1_555 1_555
C22 C21 1_555 1_555
H14 C22 1_555 1_555
C23 N2 1_555 1_555
H15 C23 1_555 1_555
C24 C1 1_555 1_555
H16 C24 1_555 1_555
Zn1E N2 1_555 1_555
Zn1G O3 1_555 1_555
N2E Zn1 1_555 1_555
O3G Zn1 1_555 1_555
O4G Zn1 1_555 1_555
C4 C8 1_555 1_555
C11 C12 1_555 1_555
O4 Zn1G 1_555 1_555
C14 C19 1_555 1_555
C15 C18 1_555 1_555
C16 C17 1_555 1_555
C23 C24 1_555 1_555

#END
