
#######################################################################
#
#                 Cambridge Crystallographic Data Centre
#                                CCDC 
#
#######################################################################
#
# If this CIF has been generated from an entry in the Cambridge 
# Structural Database, then it will include bibliographic, chemical, 
# crystal, experimental, refinement or atomic coordinate data resulting 
# from the CCDC's data processing and validation procedures.
#
#######################################################################

data_JOVYAW
_chemical_formula_moiety         '(C38 H20 N1 O16 Zn3 1-)n'
_symmetry_cell_setting           triclinic
_symmetry_space_group_name_H-M   'P -1'
_symmetry_Int_Tables_number      2
_space_group_name_Hall           '-P 1'
loop_
_symmetry_equiv_pos_site_id
_symmetry_equiv_pos_as_xyz
1 x,y,z
2 -x,-y,-z
_cell_length_a                   9.530(3)
_cell_length_b                   10.168(3)
_cell_length_c                   13.026(4)
_cell_angle_alpha                111.005(4)
_cell_angle_beta                 105.569(5)
_cell_angle_gamma                90.497(4)
_cell_volume                     1127.37
loop_
_atom_site_label
_atom_site_type_symbol
_atom_site_fract_x
_atom_site_fract_y
_atom_site_fract_z
C19 C 0.0222(5) 0.1212(5) 0.6903(4)
H7 H -0.0769 0.0796 0.6480
H8 H 0.0886 0.0633 0.6554
H9 H 0.0358 0.2145 0.6895
C20 C 0.2032(5) 0.1148(5) 0.8746(4)
H10 H 0.2094 0.1320 0.9532
H11 H 0.2725 0.1816 0.8719
H12 H 0.2249 0.0202 0.8382
N1 N 0.0526(4) 0.1311(4) 0.8133(3)
H13 H 0.0303 0.2160 0.8544
H14 H -0.0097 0.0644 0.8138
C1 C 0.5937(4) 0.2250(4) -0.1523(3)
C2 C 0.5718(4) 0.3087(4) -0.2182(3)
H1 H 0.5375 0.2665 -0.2979
C3 C 0.6015(4) 0.4567(4) -0.1644(3)
C4 C 0.6608(4) 0.5153(4) -0.0459(3)
H2 H 0.6834 0.6132 -0.0102
C5 C 0.6485(4) 0.2874(4) -0.0346(3)
H3 H 0.6592 0.2299 0.0080
C6 C 0.6885(4) 0.4324(4) 0.0232(3)
C7 C 0.7516(4) 0.4970(4) 0.1422(3)
C8 C 0.8102(5) 0.5460(4) 0.2440(3)
C9 C 0.8782(4) 0.6062(4) 0.3627(3)
C10 C 0.7955(4) 0.6569(4) 0.4416(3)
H4 H 0.6945 0.6547 0.4141
C11 C 0.8617(4) 0.7090(4) 0.5578(3)
C12 C 1.0135(4) 0.7174(4) 0.6011(3)
H5 H 1.0584 0.7543 0.6800
C13 C 1.0979(4) 0.6697(4) 0.5245(3)
C14 C 1.0284(4) 0.6107(4) 0.4091(3)
H6 H 1.0843 0.5717 0.3594
C15 C 0.5613(5) 0.0661(4) -0.2112(4)
C16 C 0.5723(4) 0.5449(4) -0.2337(3)
C17 C 0.7688(4) 0.7562(4) 0.6388(3)
C18 C 1.2607(4) 0.6753(4) 0.5686(3)
O1 O 0.5756(3) -0.0082(3) -0.1500(2)
O2 O 0.5275(3) 0.0103(3) -0.3171(3)
O3 O 0.5996(3) 0.6800(3) -0.1814(2)
O4 O 0.5244(3) 0.4843(3) -0.3402(2)
O5 O 0.8257(3) 0.8413(3) 0.7371(2)
O6 O 0.6335(2) 0.7123(2) 0.5993(2)
O7 O 1.3239(3) 0.7564(3) 0.6697(2)
O8 O 1.3216(3) 0.5960(3) 0.4990(2)
Zn1 Zn 0.5000 0.5000 -0.5000
Zn2 Zn 0.54071(5) -0.20255(5) -0.27383(3)
C1A C 0.4063(4) 0.7750(4) -0.8477(3)
C2A C 0.4282(4) 0.6913(4) -0.7818(3)
H1A H 0.4625 0.7335 -0.7021
C3A C 0.3985(4) 0.5433(4) -0.8356(3)
C4A C 0.3392(4) 0.4847(4) -0.9541(3)
H2A H 0.3166 0.3868 -0.9898
C5A C 0.3515(4) 0.7126(4) -0.9654(3)
H3A H 0.3408 0.7701 -1.0080
C6A C 0.3115(4) 0.5676(4) -1.0232(3)
C7A C 0.2484(4) 0.5030(4) -1.1422(3)
C8A C 0.1898(5) 0.4540(4) -1.2440(3)
C9A C 0.1218(4) 0.3938(4) -1.3627(3)
C10A C 0.2045(4) 0.3431(4) -1.4416(3)
H4A H 0.3055 0.3453 -1.4141
C11A C 0.1383(4) 0.2910(4) -1.5578(3)
C12A C -0.0135(4) 0.2826(4) -1.6011(3)
H5A H -0.0584 0.2457 -1.6800
C13A C -0.0979(4) 0.3303(4) -1.5245(3)
C14A C -0.0284(4) 0.3893(4) -1.4091(3)
H6A H -0.0843 0.4283 -1.3594
C15A C 0.4387(5) 0.9339(4) -0.7888(4)
C16A C 0.4277(4) 0.4551(4) -0.7663(3)
C17A C 0.2312(4) 0.2438(4) -1.6388(3)
C18A C -0.2607(4) 0.3247(4) -1.5686(3)
O1A O 0.4244(3) 1.0082(3) -0.8500(2)
O2A O 0.4725(3) 0.9897(3) -0.6829(3)
O3A O 0.4004(3) 0.3200(3) -0.8186(2)
O4A O 0.4756(3) 0.5157(3) -0.6598(2)
O5A O 0.1743(3) 0.1587(3) -1.7371(2)
O6A O 0.3665(2) 0.2877(2) -1.5993(2)
O7A O -0.3239(3) 0.2436(3) -1.6697(2)
O8A O -0.3216(3) 0.4040(3) -1.4990(2)
Zn2A Zn 0.45929(5) 1.20255(5) -0.72617(3)
O3_2 O 0.5996(3) -0.3200(3) -0.1814(2)
O3A_2 O 0.4004(3) 1.3200(3) -0.8186(2)
O6_2 O 0.6335(2) -0.2877(2) -0.4007(2)
O6_3 O 0.6335(2) 0.7123(2) -0.4007(2)
O6A_2 O 0.3665(2) 0.2877(2) -0.5993(2)
O6A_3 O 0.3665(2) 1.2877(2) -0.5993(2)
O7_2 O 0.3239(3) -0.2436(3) -0.3303(2)
O7A_2 O 0.6761(3) 1.2436(3) -0.6697(2)
O8_2 O 0.3216(3) 0.5960(3) -0.5010(2)
O8A_2 O 0.6784(3) 0.4040(3) -0.4990(2)
Zn1_2 Zn -0.5000 0.5000 -1.5000
Zn1_3 Zn 0.5000 0.5000 -1.5000
Zn1_4 Zn 0.5000 0.5000 0.5000
Zn1_5 Zn 1.5000 0.5000 0.5000
Zn2_2 Zn 0.54071(5) 0.79745(5) -0.27383(3)
Zn2_3 Zn 0.54071(5) 0.79745(5) 0.72617(3)
Zn2_4 Zn 1.54071(5) 0.79745(5) 0.72617(3)
Zn2A_2 Zn -0.54071(5) 0.20255(5) -1.72617(3)
Zn2A_3 Zn 0.45929(5) 0.20255(5) -1.72617(3)
Zn2A_4 Zn 0.45929(5) 0.20255(5) -0.72617(3)
loop_
_geom_bond_atom_site_label_1
_geom_bond_atom_site_label_2
_geom_bond_site_symmetry_1
_geom_bond_site_symmetry_2
C1 C2 1_555 1_555
C2 H1 1_555 1_555
C3 C2 1_555 1_555
C4 C3 1_555 1_555
H2 C4 1_555 1_555
C5 C1 1_555 1_555
H3 C5 1_555 1_555
C6 C4 1_555 1_555
C7 C6 1_555 1_555
C8 C7 1_555 1_555
C9 C8 1_555 1_555
C10 C9 1_555 1_555
H4 C10 1_555 1_555
C11 C10 1_555 1_555
C12 C11 1_555 1_555
H5 C12 1_555 1_555
C13 C12 1_555 1_555
C14 C9 1_555 1_555
H6 C14 1_555 1_555
C15 C1 1_555 1_555
C16 C3 1_555 1_555
C17 C11 1_555 1_555
C18 C13 1_555 1_555
O1 C15 1_555 1_555
O2 C15 1_555 1_555
O3 C16 1_555 1_555
O4 C16 1_555 1_555
O5 C17 1_555 1_555
O6 C17 1_555 1_555
O7 C18 1_555 1_555
O8 C18 1_555 1_555
Zn1 O4 1_555 1_555
Zn2 O1 1_555 1_555
C19 H7 1_555 1_555
H8 C19 1_555 1_555
H9 C19 1_555 1_555
C20 H10 1_555 1_555
H11 C20 1_555 1_555
H12 C20 1_555 1_555
N1 C19 1_555 1_555
H13 N1 1_555 1_555
H14 N1 1_555 1_555
C1A C2A 1_555 1_555
C2A H1A 1_555 1_555
C3A C2A 1_555 1_555
C4A C3A 1_555 1_555
H2A C4A 1_555 1_555
C5A C1A 1_555 1_555
H3A C5A 1_555 1_555
C6A C4A 1_555 1_555
C7A C6A 1_555 1_555
C8A C7A 1_555 1_555
C9A C8A 1_555 1_555
C10A C9A 1_555 1_555
H4A C10A 1_555 1_555
C11A C10A 1_555 1_555
C12A C11A 1_555 1_555
H5A C12A 1_555 1_555
C13A C12A 1_555 1_555
C14A C9A 1_555 1_555
H6A C14A 1_555 1_555
C15A C1A 1_555 1_555
C16A C3A 1_555 1_555
C17A C11A 1_555 1_555
C18A C13A 1_555 1_555
O1A C15A 1_555 1_555
O2A C15A 1_555 1_555
O3A C16A 1_555 1_555
O4A Zn1 1_555 1_555
O5A C17A 1_555 1_555
O6A C17A 1_555 1_555
O7A C18A 1_555 1_555
O8A C18A 1_555 1_555
Zn2A O1A 1_555 1_555
O3_2 Zn2 1_555 1_555
O3A_2 Zn2A 1_555 1_555
O6_2 Zn2 1_555 1_555
O6_3 Zn1 1_555 1_555
O6A_2 Zn1 1_555 1_555
O6A_3 Zn2A 1_555 1_555
O7_2 Zn2 1_555 1_555
O7A_2 Zn2A 1_555 1_555
O8_2 Zn1 1_555 1_555
O8A_2 Zn1 1_555 1_555
Zn1_2 O8A 1_555 1_555
Zn1_3 O6A 1_555 1_555
Zn1_4 O6 1_555 1_555
Zn1_5 O8 1_555 1_555
Zn2_2 O3 1_555 1_555
Zn2_3 O6 1_555 1_555
Zn2_4 O7 1_555 1_555
Zn2A_2 O7A 1_555 1_555
Zn2A_3 O6A 1_555 1_555
Zn2A_4 O3A 1_555 1_555
C5 C6 1_555 1_555
C13 C14 1_555 1_555
O2 Zn2 1_555 1_555
C20 N1 1_555 1_555
C5A C6A 1_555 1_555
C13A C14A 1_555 1_555
C16A O4A 1_555 1_555
O2A Zn2A 1_555 1_555
O6_3 Zn2_2 1_555 1_555
O6A_2 Zn2A_4 1_555 1_555

#END
