
#######################################################################
#
#                 Cambridge Crystallographic Data Centre
#                                CCDC 
#
#######################################################################
#
# If this CIF has been generated from an entry in the Cambridge 
# Structural Database, then it will include bibliographic, chemical, 
# crystal, experimental, refinement or atomic coordinate data resulting 
# from the CCDC's data processing and validation procedures.
#
#######################################################################

data_OHAZAZ
_chemical_formula_moiety         '(C15 H25 Gd1 N4 O13)n'
_symmetry_cell_setting           triclinic
_symmetry_space_group_name_H-M   'P -1'
_symmetry_Int_Tables_number      2
_space_group_name_Hall           '-P 1'
loop_
_symmetry_equiv_pos_site_id
_symmetry_equiv_pos_as_xyz
1 x,y,z
2 -x,-y,-z
_cell_length_a                   7.9626(18)
_cell_length_b                   12.1331(19)
_cell_length_c                   13.3182(12)
_cell_angle_alpha                111.951(11)
_cell_angle_beta                 104.938(13)
_cell_angle_gamma                91.576(16)
_cell_volume                     1142.01
loop_
_atom_site_label
_atom_site_type_symbol
_atom_site_fract_x
_atom_site_fract_y
_atom_site_fract_z
Gd1 Gd 0.25130(2) 1.018718(18) -0.010579(16)
C1 C -0.3362(8) 0.6032(5) -0.5552(4)
C2 C -0.3640(8) 0.7982(5) -0.5670(5)
C3 C -0.5329(8) 0.6183(5) -0.7225(5)
C4 C -0.1444(7) 0.7838(5) -0.4092(4)
H1 H -0.0765 0.8471 -0.4157
H2 H -0.0679 0.7248 -0.4013
C5 C -0.2034(8) 0.8363(6) -0.3040(4)
H3 H -0.2915 0.8877 -0.3148
H4 H -0.2560 0.7721 -0.2904
C6 C -0.0508(7) 0.9078(5) -0.2035(4)
C7 C -0.5738(8) 0.8142(6) -0.7285(5)
H5 H -0.5863 0.8905 -0.6735
H6 H -0.6901 0.7740 -0.7764
C8 C -0.4667(8) 0.8358(6) -0.8001(6)
H7 H -0.3527 0.8798 -0.7514
H8 H -0.4482 0.7592 -0.8518
C9 C -0.5558(7) 0.9053(5) -0.8669(4)
C10 C -0.4994(8) 0.4211(5) -0.7148(5)
H9 H -0.6139 0.3986 -0.7703
H10 H -0.5033 0.3892 -0.6584
C11 C -0.3621(8) 0.3677(5) -0.7721(6)
H11 H -0.3476 0.4085 -0.8201
H12 H -0.2509 0.3828 -0.7145
C12 C -0.4049(7) 0.2349(5) -0.8426(4)
N1 N -0.4587(6) 0.5531(4) -0.6601(4)
N2 N -0.2901(6) 0.7265(4) -0.5135(4)
N4 N -0.4893(7) 0.7404(4) -0.6694(4)
O1 O 0.0769(5) 0.9562(4) -0.2146(3)
O2 O -0.0548(4) 0.9132(3) -0.1054(3)
O3 O -0.5561(5) 0.1845(3) -0.8599(3)
O4 O -0.2848(5) 0.1850(3) -0.8800(3)
O5 O -0.4680(5) 0.9489(3) -0.9138(3)
O6 O -0.7141(5) 0.9172(4) -0.8781(3)
O7 O -0.6327(7) 0.5698(5) -0.8165(4)
O8 O -0.2722(7) 0.5441(4) -0.5039(4)
O9 O -0.3218(7) 0.9059(4) -0.5254(4)
O11 O 0.1510(6) 1.1929(4) -0.0405(4)
Gd1A Gd -0.25130(2) 0.981282(18) 0.010579(16)
Gd1_2 Gd -0.74870(2) 0.018718(18) -1.010579(16)
Gd1A_2 Gd -0.25130(2) -0.018718(18) -0.989421(16)
Gd1_3 Gd -0.74870(2) 1.018718(18) -1.010579(16)
Gd1A_3 Gd -0.25130(2) 0.981282(18) -0.989421(16)
O2A O 0.0548(4) 1.0868(3) 0.1054(3)
O3_2 O 0.4439(5) 1.1845(3) 0.1401(3)
O4A O 0.2848(5) 0.8150(3) -0.1200(3)
O5_2 O 0.5320(5) 0.9489(3) 0.0862(3)
O5A O 0.4680(5) 1.0511(3) -0.0862(3)
O6_2 O 0.2859(5) 0.9172(4) 0.1219(3)
C13 C 0.2645(14) 0.8162(12) -0.4696(11)
H13 H 0.2810 0.9003 -0.4540
H14 H 0.3732 0.7847 -0.4726
H15 H 0.2268 0.8049 -0.4108
C14 C 0.067(2) 0.6198(10) -0.6348(14)
H16 H -0.0178 0.6014 -0.7067
H17 H 0.0144 0.5963 -0.5874
H18 H 0.1650 0.5771 -0.6458
C15 C 0.0528(13) 0.8214(12) -0.6355(13)
H19 H 0.0743 0.9048 -0.6036
N3 N 0.1297(10) 0.7528(7) -0.5793(7)
O10 O -0.0640(19) 0.7548(14) -0.7476(12)
O12 O 0.0021(13) 1.3431(8) 0.1157(10)
O13 O 0.802(4) 0.553(4) 0.0676(18)
loop_
_geom_bond_atom_site_label_1
_geom_bond_atom_site_label_2
_geom_bond_site_symmetry_1
_geom_bond_site_symmetry_2
Gd1 O1 1_555 1_555
C1 N1 1_555 1_555
C2 N2 1_555 1_555
C3 N1 1_555 1_555
C4 H1 1_555 1_555
H2 C4 1_555 1_555
C5 C4 1_555 1_555
H3 C5 1_555 1_555
H4 C5 1_555 1_555
C6 C5 1_555 1_555
C7 H5 1_555 1_555
H6 C7 1_555 1_555
C8 C7 1_555 1_555
H7 C8 1_555 1_555
H8 C8 1_555 1_555
C9 C8 1_555 1_555
C10 H9 1_555 1_555
H10 C10 1_555 1_555
C11 C10 1_555 1_555
H11 C11 1_555 1_555
H12 C11 1_555 1_555
C12 C11 1_555 1_555
C13 H13 1_555 1_555
H14 C13 1_555 1_555
H15 C13 1_555 1_555
C14 H16 1_555 1_555
H17 C14 1_555 1_555
H18 C14 1_555 1_555
C15 H19 1_555 1_555
N1 C10 1_555 1_555
N2 C1 1_555 1_555
N3 C13 1_555 1_555
N4 C2 1_555 1_555
O1 C6 1_555 1_555
O2 Gd1 1_555 1_555
O3 C12 1_555 1_555
O4 C12 1_555 1_555
O5 C9 1_555 1_555
O6 C9 1_555 1_555
O7 C3 1_555 1_555
O8 C1 1_555 1_555
O9 C2 1_555 1_555
O10 C15 1_555 1_555
O11 Gd1 1_555 1_555
Gd1A O2 1_555 1_555
Gd1_2 O3 1_555 1_555
Gd1A_2 O4 1_555 1_555
Gd1_3 O5 1_555 1_555
Gd1A_3 O5 1_555 1_555
O2A Gd1 1_555 1_555
O3_2 Gd1 1_555 1_555
O4A Gd1 1_555 1_555
O5_2 Gd1 1_555 1_555
O5A Gd1 1_555 1_555
O6_2 Gd1 1_555 1_555
C3 N4 1_555 1_555
C4 N2 1_555 1_555
C6 O2 1_555 1_555
C7 N4 1_555 1_555
C14 N3 1_555 1_555
C15 N3 1_555 1_555
O6 Gd1_3 1_555 1_555
Gd1A O2A 1_555 1_555

#END
