
#######################################################################
#
#                 Cambridge Crystallographic Data Centre
#                                CCDC 
#
#######################################################################
#
# If this CIF has been generated from an entry in the Cambridge 
# Structural Database, then it will include bibliographic, chemical, 
# crystal, experimental, refinement or atomic coordinate data resulting 
# from the CCDC's data processing and validation procedures.
#
#######################################################################

data_UXUYUI
_chemical_formula_moiety         '(C20 H18 Li4 N4 O5)n'
_symmetry_cell_setting           tetragonal
_symmetry_space_group_name_H-M   'P -4 2 c'
_symmetry_Int_Tables_number      112
_space_group_name_Hall           'P -4 2c'
loop_
_symmetry_equiv_pos_site_id
_symmetry_equiv_pos_as_xyz
1 x,y,z
2 -x,-y,z
3 y,-x,-z
4 -y,x,-z
5 -x,y,1/2-z
6 x,-y,1/2-z
7 -y,-x,1/2+z
8 y,x,1/2+z
_cell_length_a                   10.9909(10)
_cell_length_b                   10.9909(10)
_cell_length_c                   10.991
_cell_angle_alpha                90
_cell_angle_beta                 90
_cell_angle_gamma                90
_cell_volume                     1327.71
loop_
_atom_site_label
_atom_site_type_symbol
_atom_site_fract_x
_atom_site_fract_y
_atom_site_fract_z
O1 O 0.9037(6) 0.4106(6) 0.1586(5)
N1 N 0.7012(7) 0.1808(8) -0.0616(7)
C1 C 0.7845(13) 0.3766(10) -0.0150(11)
H1 H 0.7934 0.4568 -0.0403
C2 C 0.8271(12) 0.2167(9) 0.1082(10)
H2 H 0.8677 0.1813 0.1734
C3 C 0.7178(14) 0.2975(11) -0.0817(13)
H3 H 0.6791 0.3296 -0.1497
C4 C 0.7577(11) 0.1462(9) 0.0341(11)
H4 H 0.7505 0.0645 0.0550
C5 C 0.8379(8) 0.3380(8) 0.0884(8)
Li1 Li 1.0816(14) 0.4108(13) 0.1636(13)
O1A O 1.0963(6) 0.5894(6) 0.1586(5)
O1B O 1.4106(6) 0.0963(6) -0.1586(5)
O1C O 0.5894(6) -0.0963(6) -0.1586(5)
O1B_2 O 0.4106(6) 0.0963(6) -0.1586(5)
O1C_2 O 1.5894(6) -0.0963(6) -0.1586(5)
O1D O 1.0963(6) 0.4106(6) 0.3414(5)
O1E O 0.9037(6) 0.5894(6) 0.3414(5)
O1F O 0.5894(6) 0.0963(6) -0.3414(5)
O1G O 1.4106(6) -0.0963(6) -0.3414(5)
N1A N 1.2988(7) 0.8192(8) -0.0616(7)
N1B N 1.1808(8) 0.2988(7) 0.0616(7)
N1C N 0.8192(8) -0.2988(7) 0.0616(7)
N1A_2 N 1.2988(7) -0.1808(8) -0.0616(7)
N1C_2 N 0.8192(8) 0.7012(7) 0.0616(7)
C1A C 1.2155(13) 0.6234(10) -0.0150(11)
C1B C 1.3766(10) 0.2155(13) 0.0150(11)
C1C C 0.6234(10) -0.2155(13) 0.0150(11)
H1A H 1.2066 0.5432 -0.0403
H1B H 1.4568 0.2066 0.0403
H1C H 0.5432 -0.2066 0.0403
C2A C 1.1729(12) 0.7833(9) 0.1082(10)
C2B C 1.2167(9) 0.1729(12) -0.1082(10)
C2C C 0.7833(9) -0.1729(12) -0.1082(10)
H2A H 1.1323 0.8187 0.1734
H2B H 1.1813 0.1323 -0.1734
H2C H 0.8187 -0.1323 -0.1734
C3A C 1.2822(14) 0.7025(11) -0.0817(13)
C3B C 1.2975(11) 0.2822(14) 0.0817(13)
C3C C 0.7025(11) -0.2822(14) 0.0817(13)
H3A H 1.3209 0.6704 -0.1497
H3B H 1.3296 0.3209 0.1497
H3C H 0.6704 -0.3209 0.1497
C4A C 1.2423(11) 0.8538(9) 0.0341(11)
C4B C 1.1462(9) 0.2423(11) -0.0341(11)
C4C C 0.8538(9) -0.2423(11) -0.0341(11)
H4A H 1.2495 0.9355 0.0550
H4B H 1.0645 0.2495 -0.0550
H4C H 0.9355 -0.2495 -0.0550
C5A C 1.1621(8) 0.6620(8) 0.0884(8)
C5B C 1.3380(8) 0.1621(8) -0.0884(8)
C5C C 0.6620(8) -0.1621(8) -0.0884(8)
Li1A Li 0.9184(14) 0.5892(13) 0.1636(13)
Li1B Li 1.4108(13) -0.0816(14) -0.1636(13)
Li1C Li 0.5892(13) 0.0816(14) -0.1636(13)
Li1A_2 Li 0.9184(14) -0.4108(13) 0.1636(13)
Li1B_2 Li 0.4108(13) -0.0816(14) -0.1636(13)
Li1B_3 Li 1.4108(13) 0.9184(14) -0.1636(13)
Li1C_2 Li 1.5892(13) 0.0816(14) -0.1636(13)
Li1D Li 0.9184(14) 0.4108(13) 0.3364(13)
Li1E Li 1.0816(14) 0.5892(13) 0.3364(13)
Li1F Li 0.5892(13) -0.0816(14) -0.3364(13)
Li1G Li 1.4108(13) 0.0816(14) -0.3364(13)
O2 O 0.0000 0.5000 0.7500
loop_
_geom_bond_atom_site_label_1
_geom_bond_atom_site_label_2
_geom_bond_site_symmetry_1
_geom_bond_site_symmetry_2
O1 C5 1_555 1_555
N1 C3 1_555 1_555
C1 H1 1_555 1_555
C2 H2 1_555 1_555
C3 C1 1_555 1_555
H3 C3 1_555 1_555
C4 N1 1_555 1_555
H4 C4 1_555 1_555
C5 C1 1_555 1_555
Li1 O1 1_555 1_555
O1A Li1 1_555 1_555
O1B C5B 1_555 1_555
O1C C5C 1_555 1_555
O1B_2 Li1C 1_555 1_555
O1C_2 Li1B 1_555 1_555
O1D Li1 1_555 1_555
O1E Li1A 1_555 1_555
O1F Li1C 1_555 1_555
O1G Li1B 1_555 1_555
N1A C3A 1_555 1_555
N1B Li1 1_555 1_555
N1C C3C 1_555 1_555
N1A_2 Li1B 1_555 1_555
N1C_2 Li1A 1_555 1_555
C1A H1A 1_555 1_555
C1B H1B 1_555 1_555
C1C H1C 1_555 1_555
C2A H2A 1_555 1_555
C2B H2B 1_555 1_555
C2C H2C 1_555 1_555
C3A C1A 1_555 1_555
C3B N1B 1_555 1_555
C3C C1C 1_555 1_555
H3A C3A 1_555 1_555
H3B C3B 1_555 1_555
H3C C3C 1_555 1_555
C4A N1A 1_555 1_555
C4B N1B 1_555 1_555
C4C N1C 1_555 1_555
H4A C4A 1_555 1_555
H4B C4B 1_555 1_555
H4C C4C 1_555 1_555
C5A O1A 1_555 1_555
C5B C1B 1_555 1_555
C5C C1C 1_555 1_555
Li1A O1 1_555 1_555
Li1B O1B 1_555 1_555
Li1C N1 1_555 1_555
Li1A_2 N1C 1_555 1_555
Li1B_2 O1C 1_555 1_555
Li1B_3 N1A 1_555 1_555
Li1C_2 O1B 1_555 1_555
Li1D O1 1_555 1_555
Li1E O1A 1_555 1_555
Li1F O1C 1_555 1_555
Li1G O1B 1_555 1_555
C2 C4 1_555 1_555
C2 C5 1_555 1_555
O1A Li1A 1_555 1_555
O1C Li1C 1_555 1_555
O1B_2 Li1B_2 1_555 1_555
O1C_2 Li1C_2 1_555 1_555
O1D Li1D 1_555 1_555
O1D Li1E 1_555 1_555
O1E Li1D 1_555 1_555
O1E Li1E 1_555 1_555
O1F Li1F 1_555 1_555
O1G Li1G 1_555 1_555
C1A C5A 1_555 1_555
C1B C3B 1_555 1_555
C2A C4A 1_555 1_555
C2A C5A 1_555 1_555
C2B C4B 1_555 1_555
C2B C5B 1_555 1_555
C2C C4C 1_555 1_555
C2C C5C 1_555 1_555

#END
