
#######################################################################
#
#                 Cambridge Crystallographic Data Centre
#                                CCDC 
#
#######################################################################
#
# If this CIF has been generated from an entry in the Cambridge 
# Structural Database, then it will include bibliographic, chemical, 
# crystal, experimental, refinement or atomic coordinate data resulting 
# from the CCDC's data processing and validation procedures.
#
#######################################################################

data_OZUKOK
_chemical_formula_moiety         '(C4 H4 Cl4 Cu4 N2 P8 S6)n'
_symmetry_cell_setting           monoclinic
_symmetry_space_group_name_H-M   'P 21/c'
_symmetry_Int_Tables_number      14
_space_group_name_Hall           '-P 2ybc'
loop_
_symmetry_equiv_pos_site_id
_symmetry_equiv_pos_as_xyz
1 x,y,z
2 -x,1/2+y,1/2-z
3 -x,-y,-z
4 x,1/2-y,1/2+z
_cell_length_a                   19.0899(9)
_cell_length_b                   11.1224(8)
_cell_length_c                   6.1748(2)
_cell_angle_alpha                90
_cell_angle_beta                 94.074(4)
_cell_angle_gamma                90
_cell_volume                     1307.75
loop_
_atom_site_label
_atom_site_type_symbol
_atom_site_fract_x
_atom_site_fract_y
_atom_site_fract_z
Cu1 Cu 0.34337(2) 0.14552(4) 0.36457(8)
Cu2 Cu -0.00312(2) -0.14439(4) 0.21138(7)
Cl1 Cl 0.34939(4) 0.34214(7) 0.48934(12)
Cl2 Cl -0.01227(4) -0.15991(6) -0.15908(11)
S1 S 0.18002(4) -0.00945(7) 0.20507(12)
S2 S 0.25495(4) -0.09735(7) 0.66125(13)
S3 S 0.18167(4) 0.16574(7) 0.62447(12)
P1 P 0.24895(4) 0.05559(7) 0.45936(12)
P2 P 0.09749(4) -0.07139(7) 0.37932(12)
P3 P 0.14904(4) -0.13685(7) 0.69660(13)
P4 P 0.09917(4) 0.04763(7) 0.66685(12)
N1 N 0.43705(14) 0.0611(3) 0.4478(5)
C1 C 0.4612(3) -0.0247(6) 0.3196(9)
C2 C 0.4767(3) 0.0852(6) 0.6281(9)
H1 H 0.43470 -0.04450 0.18840
H2 H 0.46190 0.14570 0.72360
Cu1C Cu 0.34337(2) 0.35448(4) -0.13543(8)
Cu1C_2 Cu 0.34337(2) 0.35448(4) 0.86457(8)
Cu1B Cu 0.65663(2) -0.14552(4) 0.63543(8)
Cu1B_2 Cu -0.34337(2) -0.14552(4) 0.63543(8)
Cu2B Cu 0.00312(2) 0.14439(4) 0.78862(7)
Cu2C Cu -0.00312(2) -0.35561(4) -0.28862(7)
Cu2C_2 Cu -0.00312(2) -0.35561(4) 0.71138(7)
Cl1C Cl 0.34939(4) 0.15786(7) -0.01066(12)
Cl1_2 Cl 0.34939(4) 0.34214(7) -0.51066(12)
Cl2C Cl -0.01227(4) -0.34009(6) 0.34092(11)
Cl2B Cl 0.01227(4) 0.15991(6) 1.15908(11)
Cl2A Cl 0.01227(4) 0.34009(6) 0.65908(11)
S1B S -0.18002(4) 0.00945(7) 0.79493(12)
S2B S -0.25495(4) 0.09735(7) 0.33875(13)
S3B S -0.18167(4) -0.16574(7) 0.37553(12)
P1B P -0.24895(4) -0.05559(7) 0.54064(12)
P1C P 0.24895(4) 0.44441(7) -0.04064(12)
P2B P -0.09749(4) 0.07139(7) 0.62068(12)
P3B P -0.14904(4) 0.13685(7) 0.30340(13)
P4B P -0.09917(4) -0.04763(7) 0.33315(12)
N1B N 0.56295(14) -0.0611(3) 0.5522(5)
N1C N 0.43705(14) 0.4389(3) -0.0522(5)
C1B C 0.5388(3) 0.0247(6) 0.6804(9)
C2B C 0.5233(3) -0.0852(6) 0.3719(9)
H1B H 0.56530 0.04450 0.81160
H2B H 0.53810 -0.14570 0.27640
loop_
_geom_bond_atom_site_label_1
_geom_bond_atom_site_label_2
_geom_bond_site_symmetry_1
_geom_bond_site_symmetry_2
Cu1 Cl1 1_555 1_555
Cu2 Cl2 1_555 1_555
Cl1 Cu1C_2 1_555 1_555
Cl2 Cu2C 1_555 1_555
S1 P1 1_555 1_555
S2 P1 1_555 1_555
S3 P1 1_555 1_555
P1 Cu1 1_555 1_555
P2 Cu2 1_555 1_555
P3 S2 1_555 1_555
P4 S3 1_555 1_555
N1 Cu1 1_555 1_555
C1 N1 1_555 1_555
C2 N1 1_555 1_555
H1 C1 1_555 1_555
H2 C2 1_555 1_555
Cu1C Cl1C 1_555 1_555
Cu1B N1B 1_555 1_555
Cu1B_2 P1B 1_555 1_555
Cu2B P4 1_555 1_555
Cu2C_2 Cl2C 1_555 1_555
Cl1C Cu1 1_555 1_555
Cl1_2 Cu1C 1_555 1_555
Cl2C Cu2 1_555 1_555
Cl2B Cu2B 1_555 1_555
Cl2A Cu2B 1_555 1_555
S1B P1B 1_555 1_555
S2B P1B 1_555 1_555
S3B P1B 1_555 1_555
P1C Cu1C 1_555 1_555
P2B Cu2B 1_555 1_555
P3B S2B 1_555 1_555
P4B Cu2 1_555 1_555
N1B C1B 1_555 1_555
N1C Cu1C 1_555 1_555
C1B C2 1_555 1_555
C2B C1 1_555 1_555
H1B C1B 1_555 1_555
H2B C2B 1_555 1_555
S1 P2 1_555 1_555
P2 P3 1_555 1_555
P2 P4 1_555 1_555
P3 P4 1_555 1_555
S1B P2B 1_555 1_555
S3B P4B 1_555 1_555
P2B P3B 1_555 1_555
P2B P4B 1_555 1_555
P3B P4B 1_555 1_555
N1B C2B 1_555 1_555

#END
