
#######################################################################
#
#                 Cambridge Crystallographic Data Centre
#                                CCDC 
#
#######################################################################
#
# If this CIF has been generated from an entry in the Cambridge 
# Structural Database, then it will include bibliographic, chemical, 
# crystal, experimental, refinement or atomic coordinate data resulting 
# from the CCDC's data processing and validation procedures.
#
#######################################################################

data_PEGBAG
_chemical_formula_moiety         '(C14 H24 N12 O4 Zn2)n'
_symmetry_cell_setting           monoclinic
_symmetry_space_group_name_H-M   'P 21/n'
_symmetry_Int_Tables_number      14
_space_group_name_Hall           '-P 2yn'
loop_
_symmetry_equiv_pos_site_id
_symmetry_equiv_pos_as_xyz
1 x,y,z
2 1/2-x,1/2+y,1/2-z
3 -x,-y,-z
4 1/2+x,1/2-y,1/2+z
_cell_length_a                   10.5783(14)
_cell_length_b                   12.3288(17)
_cell_length_c                   17.236(2)
_cell_angle_alpha                90
_cell_angle_beta                 93.714(2)
_cell_angle_gamma                90
_cell_volume                     2243.16
loop_
_atom_site_label
_atom_site_type_symbol
_atom_site_fract_x
_atom_site_fract_y
_atom_site_fract_z
Zn1 Zn 0.71699(3) 0.74044(2) 0.593250(16)
Zn2 Zn 0.70552(3) 0.75600(2) 0.945620(17)
N1 N 0.8744(2) 0.80168(18) 0.55279(12)
N2 N 1.0644(2) 0.87721(18) 0.54675(13)
N3 N 1.0519(2) 0.79294(19) 0.49312(12)
N4 N 0.7403(2) 0.59116(17) 0.54892(12)
N5 N 0.8517(2) 0.46811(18) 0.48664(12)
N6 N 0.7776(2) 0.41604(17) 0.53925(12)
N7 N 1.0590(2) 0.69429(18) 1.04684(12)
N8 N 1.0683(2) 0.64041(18) 0.97639(12)
N9 N 0.8687(2) 0.69199(18) 0.98749(12)
N10 N 0.7345(2) 0.71884(18) 0.83529(12)
N11 N 0.8365(2) 0.65435(19) 0.73608(12)
N12 N 0.7395(2) 0.72329(19) 0.70797(12)
C1 C 0.5756(3) 0.8397(2) 0.76442(16)
H1 H 0.5564 0.8613 0.7102
H2 H 0.5005 0.8063 0.7848
H3 H 0.5999 0.9039 0.7955
C2 C 0.6822(3) 0.7601(2) 0.76861(15)
C3 C 0.8302(2) 0.6550(2) 0.81194(14)
C4 C 0.9178(3) 0.5892(2) 0.86618(15)
H4 H 0.9965 0.5742 0.8399
H5 H 0.8769 0.5187 0.8757
C5 C 0.9528(2) 0.6419(2) 0.94320(14)
C6 C 0.9389(3) 0.7239(2) 1.05112(15)
C7 C 0.8865(3) 0.7843(3) 1.11658(17)
H6 H 0.9560 0.8073 1.1532
H7 H 0.8403 0.8482 1.0963
H8 H 0.8288 0.7371 1.1433
C8 C 0.9294(3) 0.9562(3) 0.6438(2)
H9 H 0.9896 1.0166 0.6441
H10 H 0.9373 0.9189 0.6941
H11 H 0.8430 0.9841 0.6347
C9 C 0.9569(3) 0.8790(2) 0.58114(16)
C10 C 0.9375(3) 0.75039(19) 0.49836(16)
C11 C 0.8837(3) 0.6599(2) 0.44870(14)
H12 H 0.9518 0.6287 0.4188
H13 H 0.8180 0.6895 0.4110
C12 C 0.8266(2) 0.5716(2) 0.49477(14)
C13 C 0.7130(2) 0.4912(2) 0.57456(15)
C14 C 0.6190(3) 0.4683(2) 0.63357(19)
H14 H 0.6111 0.3898 0.6403
H15 H 0.5365 0.4986 0.6158
H16 H 0.6477 0.5016 0.6833
Zn1C Zn 1.21699(3) 0.75956(2) 1.093250(16)
Zn2C Zn 1.20552(3) 0.74400(2) 0.445620(17)
Zn2A Zn 0.79448(3) 0.25600(2) 0.554380(17)
N3C N 0.5519(2) 0.70706(19) 0.99312(12)
N6A N 0.7224(2) 0.91604(17) 0.96075(12)
N7C N 0.5590(2) 0.80571(18) 0.54684(12)
O1 O 0.774(2) 0.952(2) 0.3981(6)
H17 H 0.8089 1.0022 0.4253
H18 H 0.715(7) 0.927(6) 0.429(4)
O2 O 0.5718(3) 0.8935(3) 0.16366(16)
H19 H 0.572(4) 0.908(3) 0.115(3)
H20 H 0.496(5) 0.888(4) 0.175(3)
O3 O 0.7027(8) 1.0532(6) 0.2527(4)
H21 H 0.7248 1.0223 0.2958
H22 H 0.6637 1.0040 0.2259
O4 O 0.6228(5) 0.7038(5) 0.2897(3)
H23 H 0.6392 0.6388 0.3045
H24 H 0.6137 0.7459 0.2504
loop_
_geom_bond_atom_site_label_1
_geom_bond_atom_site_label_2
_geom_bond_site_symmetry_1
_geom_bond_site_symmetry_2
Zn1 N1 1_555 1_555
Zn2 N9 1_555 1_555
N1 C9 1_555 1_555
N2 N3 1_555 1_555
N3 C10 1_555 1_555
N4 Zn1 1_555 1_555
N5 N6 1_555 1_555
N6 C13 1_555 1_555
N7 N8 1_555 1_555
N8 C5 1_555 1_555
N9 C5 1_555 1_555
N10 Zn2 1_555 1_555
N11 N12 1_555 1_555
N12 Zn1 1_555 1_555
C1 H1 1_555 1_555
H2 C1 1_555 1_555
H3 C1 1_555 1_555
C2 N10 1_555 1_555
C3 N10 1_555 1_555
C4 C3 1_555 1_555
H4 C4 1_555 1_555
H5 C4 1_555 1_555
C5 C4 1_555 1_555
C6 N7 1_555 1_555
C7 C6 1_555 1_555
H6 C7 1_555 1_555
H7 C7 1_555 1_555
H8 C7 1_555 1_555
C8 H9 1_555 1_555
H10 C8 1_555 1_555
H11 C8 1_555 1_555
C9 N2 1_555 1_555
C10 N1 1_555 1_555
C11 C10 1_555 1_555
H12 C11 1_555 1_555
H13 C11 1_555 1_555
C12 N4 1_555 1_555
C13 N4 1_555 1_555
C14 C13 1_555 1_555
H14 C14 1_555 1_555
H15 C14 1_555 1_555
H16 C14 1_555 1_555
O1 H17 1_555 1_555
H18 O1 1_555 1_555
O2 H19 1_555 1_555
H20 O2 1_555 1_555
O3 H21 1_555 1_555
H22 O3 1_555 1_555
O4 H23 1_555 1_555
H24 O4 1_555 1_555
Zn1C N7 1_555 1_555
Zn2C N3 1_555 1_555
Zn2A N6 1_555 1_555
N3C Zn2 1_555 1_555
N6A Zn2 1_555 1_555
N7C Zn1 1_555 1_555
N5 C12 1_555 1_555
N9 C6 1_555 1_555
N11 C3 1_555 1_555
N12 C2 1_555 1_555
C1 C2 1_555 1_555
C8 C9 1_555 1_555
C11 C12 1_555 1_555

#END
