
#######################################################################
#
#                 Cambridge Crystallographic Data Centre
#                                CCDC 
#
#######################################################################
#
# If this CIF has been generated from an entry in the Cambridge 
# Structural Database, then it will include bibliographic, chemical, 
# crystal, experimental, refinement or atomic coordinate data resulting 
# from the CCDC's data processing and validation procedures.
#
#######################################################################

data_PEGBEK02
_chemical_formula_moiety         '(C14 H16 N12 Zn2)n'
_symmetry_cell_setting           monoclinic
_symmetry_space_group_name_H-M   'P 21/n'
_symmetry_Int_Tables_number      14
_space_group_name_Hall           '-P 2yn'
loop_
_symmetry_equiv_pos_site_id
_symmetry_equiv_pos_as_xyz
1 x,y,z
2 1/2-x,1/2+y,1/2-z
3 -x,-y,-z
4 1/2+x,1/2-y,1/2+z
_cell_length_a                   10.6650(10)
_cell_length_b                   12.4195(12)
_cell_length_c                   17.1416(16)
_cell_angle_alpha                90
_cell_angle_beta                 95.3800(10)
_cell_angle_gamma                90
_cell_volume                     2260.47
loop_
_atom_site_label
_atom_site_type_symbol
_atom_site_fract_x
_atom_site_fract_y
_atom_site_fract_z
Zn1 Zn 0.72599(3) 0.73521(2) 0.601189(16)
Zn2 Zn 0.20638(3) 0.74342(2) 0.456263(16)
N1 N 0.88270(19) 0.79724(18) 0.56407(13)
N2 N 1.0738(2) 0.86995(19) 0.56159(15)
N3 N 1.05706(19) 0.78979(18) 0.50523(13)
N4 N 0.74365(19) 0.58939(17) 0.55118(12)
N5 N 0.84991(19) 0.47050(16) 0.48483(12)
N6 N 0.77540(19) 0.41656(17) 0.53431(12)
N7 N 0.56464(18) 0.79746(17) 0.55542(11)
N8 N 0.56828(19) 0.85667(17) 0.48679(11)
N9 N 0.37043(18) 0.80533(17) 0.49945(11)
N10 N 0.23093(19) 0.78358(17) 0.34491(11)
N11 N 0.3310(2) 0.85483(19) 0.24870(12)
N12 N 0.2395(2) 0.78286(19) 0.21751(12)
C1 C 0.0850(3) 0.6562(2) 0.26823(16)
H1 H 0.0665 0.6382 0.2139
H2 H 0.0099 0.6820 0.2889
H3 H 0.1150 0.5933 0.2968
C2 C 0.1834(2) 0.74161(19) 0.27619(14)
C3 C 0.3231(2) 0.8518(2) 0.32444(14)
C4 C 0.4058(3) 0.9175(2) 0.38211(15)
H4 H 0.4786 0.9415 0.3570
H5 H 0.3596 0.9810 0.3957
C5 C 0.4505(2) 0.85891(19) 0.45596(13)
C6 C 0.4455(2) 0.76774(19) 0.56044(14)
C7 C 0.3988(3) 0.7020(3) 0.62424(16)
H6 H 0.4680 0.6837 0.6618
H7 H 0.3606 0.6373 0.6025
H8 H 0.3376 0.7425 0.6496
C8 C 0.9449(4) 0.9463(3) 0.6598(2)
H9 H 1.0167 0.9924 0.6706
H10 H 0.9311 0.9059 0.7060
H11 H 0.8718 0.9893 0.6446
C9 C 0.9679(3) 0.8712(2) 0.59530(18)
C10 C 0.9429(2) 0.74886(19) 0.50836(15)
C11 C 0.8876(2) 0.6624(2) 0.45582(14)
H12 H 0.9533 0.6326 0.4268
H13 H 0.8246 0.6941 0.4182
C12 C 0.8281(2) 0.5728(2) 0.49733(13)
C13 C 0.7137(2) 0.4892(2) 0.57171(14)
C14 C 0.6187(3) 0.4631(2) 0.62809(19)
H14 H 0.6185 0.3869 0.6374
H15 H 0.5366 0.4855 0.6063
H16 H 0.6403 0.5002 0.6766
Zn1C Zn 0.22599(3) 0.76479(2) 0.101189(16)
Zn2_2 Zn 1.20638(3) 0.74342(2) 0.456263(16)
Zn2B Zn 0.79362(3) 0.25658(2) 0.543737(16)
N3_2 N 0.05706(19) 0.78979(18) 0.50523(13)
N6B N 0.22460(19) 0.58344(17) 0.46569(12)
N12C N 0.7395(2) 0.71714(19) 0.71751(12)
loop_
_geom_bond_atom_site_label_1
_geom_bond_atom_site_label_2
_geom_bond_site_symmetry_1
_geom_bond_site_symmetry_2
Zn1 N1 1_555 1_555
Zn2 N9 1_555 1_555
N1 C9 1_555 1_555
N2 N3 1_555 1_555
N3 C10 1_555 1_555
N4 Zn1 1_555 1_555
N5 N6 1_555 1_555
N6 C13 1_555 1_555
N7 Zn1 1_555 1_555
N8 N7 1_555 1_555
N9 C5 1_555 1_555
N10 Zn2 1_555 1_555
N11 N12 1_555 1_555
N12 C2 1_555 1_555
C1 H1 1_555 1_555
H2 C1 1_555 1_555
H3 C1 1_555 1_555
C2 N10 1_555 1_555
C3 N10 1_555 1_555
C4 C3 1_555 1_555
H4 C4 1_555 1_555
H5 C4 1_555 1_555
C5 N8 1_555 1_555
C6 N7 1_555 1_555
C7 C6 1_555 1_555
H6 C7 1_555 1_555
H7 C7 1_555 1_555
H8 C7 1_555 1_555
C8 H9 1_555 1_555
H10 C8 1_555 1_555
H11 C8 1_555 1_555
C9 N2 1_555 1_555
C10 N1 1_555 1_555
C11 C10 1_555 1_555
H12 C11 1_555 1_555
H13 C11 1_555 1_555
C12 N4 1_555 1_555
C13 N4 1_555 1_555
C14 C13 1_555 1_555
H14 C14 1_555 1_555
H15 C14 1_555 1_555
H16 C14 1_555 1_555
Zn1C N12 1_555 1_555
Zn2_2 N3 1_555 1_555
Zn2B N6 1_555 1_555
N3_2 Zn2 1_555 1_555
N6B Zn2 1_555 1_555
N12C Zn1 1_555 1_555
N5 C12 1_555 1_555
N9 C6 1_555 1_555
N11 C3 1_555 1_555
C1 C2 1_555 1_555
C4 C5 1_555 1_555
C8 C9 1_555 1_555
C11 C12 1_555 1_555

#END
