
#######################################################################
#
#                 Cambridge Crystallographic Data Centre
#                                CCDC 
#
#######################################################################
#
# If this CIF has been generated from an entry in the Cambridge 
# Structural Database, then it will include bibliographic, chemical, 
# crystal, experimental, refinement or atomic coordinate data resulting 
# from the CCDC's data processing and validation procedures.
#
#######################################################################

data_PEGCEL
_chemical_formula_moiety         '(C17 H16 N12 O6 Zn2)n'
_symmetry_cell_setting           monoclinic
_symmetry_space_group_name_H-M   'P 21/n'
_symmetry_Int_Tables_number      14
_space_group_name_Hall           '-P 2yn'
loop_
_symmetry_equiv_pos_site_id
_symmetry_equiv_pos_as_xyz
1 x,y,z
2 1/2-x,1/2+y,1/2-z
3 -x,-y,-z
4 1/2+x,1/2-y,1/2+z
_cell_length_a                   10.877(5)
_cell_length_b                   12.829(6)
_cell_length_c                   16.881(8)
_cell_angle_alpha                90
_cell_angle_beta                 94.445(6)
_cell_angle_gamma                90
_cell_volume                     2348.51
loop_
_atom_site_label
_atom_site_type_symbol
_atom_site_fract_x
_atom_site_fract_y
_atom_site_fract_z
Zn1 Zn 0.72393(4) 0.72686(4) 0.59466(3)
Zn2 Zn 0.20527(4) 0.73983(3) 0.45509(3)
N1 N 0.8758(3) 0.7909(3) 0.5554(2)
N2 N 1.0588(4) 0.8696(3) 0.5525(3)
N3 N 1.0528(3) 0.7852(3) 0.5013(2)
N4 N 0.7530(3) 0.5839(3) 0.55044(19)
N5 N 0.8582(3) 0.4674(3) 0.48426(19)
N6 N 0.7851(3) 0.4155(3) 0.53550(19)
N7 N 0.5641(3) 0.7822(3) 0.5480(2)
N8 N 0.5645(3) 0.8457(3) 0.4810(2)
N9 N 0.3724(3) 0.7907(3) 0.49575(19)
N10 N 0.2292(3) 0.7835(3) 0.34258(19)
N11 N 0.3286(3) 0.8552(3) 0.2450(2)
N12 N 0.2383(3) 0.7872(3) 0.2128(2)
C1 C 0.0824(4) 0.6663(4) 0.2630(3)
H1 H 0.0666 0.6484 0.2067
H2 H 0.0068 0.6939 0.2832
H3 H 0.1085 0.6037 0.2931
C2 C 0.1816(4) 0.7466(3) 0.2723(2)
C3 C 0.3201(4) 0.8490(3) 0.3220(2)
C4 C 0.4025(4) 0.9102(4) 0.3812(3)
H4 H 0.4743 0.9364 0.3544
H5 H 0.3564 0.9714 0.3988
C5 C 0.4482(4) 0.8485(3) 0.4524(2)
C6 C 0.4490(4) 0.7512(3) 0.5548(2)
C7 C 0.4072(4) 0.6825(4) 0.6187(3)
H6 H 0.4777 0.6652 0.6561
H7 H 0.3720 0.6183 0.5951
H8 H 0.3445 0.7189 0.6469
C8 C 0.9137(6) 0.9484(6) 0.6418(5)
H9 H 0.9836 0.9946 0.6562
H10 H 0.8894 0.9126 0.6895
H11 H 0.8441 0.9895 0.6185
C9 C 0.9498(4) 0.8701(4) 0.5832(3)
C10 C 0.9434(4) 0.7412(3) 0.5040(3)
C11 C 0.8965(4) 0.6524(3) 0.4525(2)
H12 H 0.9664 0.6228 0.4256
H13 H 0.8361 0.6799 0.4108
C12 C 0.8365(3) 0.5662(3) 0.4958(2)
C13 C 0.7242(4) 0.4871(3) 0.5732(2)
C14 C 0.6325(5) 0.4626(4) 0.6323(3)
H14 H 0.6301 0.3871 0.6409
H15 H 0.5507 0.4869 0.6120
H16 H 0.6567 0.4976 0.6827
Zn1C Zn 0.22393(4) 0.77314(4) 0.09466(3)
Zn2_2 Zn 1.20527(4) 0.73983(3) 0.45509(3)
Zn2B Zn 0.79473(4) 0.26017(3) 0.54491(3)
N3_2 N 0.0528(3) 0.7852(3) 0.5013(2)
N6B N 0.2149(3) 0.5845(3) 0.46450(19)
N12C N 0.7383(3) 0.7128(3) 0.7128(2)
O1 O 0.8178(5) 0.9094(4) 0.3804(4)
C15 C 0.7462(8) 0.9746(7) 0.3799(5)
O2 O 0.6773(5) 1.0399(5) 0.3790(5)
C16 C 0.5863(7) 0.8946(6) 0.1851(5)
O3 O 0.5849(7) 0.9755(5) 0.1993(4)
O4 O 0.5939(6) 0.8097(6) 0.1707(5)
O5 O 0.6503(19) 0.5470(16) 0.2760(10)
O6 O 0.7604(19) 0.6987(15) 0.2672(13)
C17 C 0.704(4) 0.623(2) 0.2673(17)
loop_
_geom_bond_atom_site_label_1
_geom_bond_atom_site_label_2
_geom_bond_site_symmetry_1
_geom_bond_site_symmetry_2
Zn1 N1 1_555 1_555
Zn2 N9 1_555 1_555
N1 C9 1_555 1_555
N2 N3 1_555 1_555
N3 C10 1_555 1_555
N4 Zn1 1_555 1_555
N5 N6 1_555 1_555
N6 C13 1_555 1_555
N7 Zn1 1_555 1_555
N8 N7 1_555 1_555
N9 C5 1_555 1_555
N10 Zn2 1_555 1_555
N11 N12 1_555 1_555
N12 C2 1_555 1_555
C1 H1 1_555 1_555
H2 C1 1_555 1_555
H3 C1 1_555 1_555
C2 N10 1_555 1_555
C3 N10 1_555 1_555
C4 C3 1_555 1_555
H4 C4 1_555 1_555
H5 C4 1_555 1_555
C5 N8 1_555 1_555
C6 N7 1_555 1_555
C7 C6 1_555 1_555
H6 C7 1_555 1_555
H7 C7 1_555 1_555
H8 C7 1_555 1_555
C8 H9 1_555 1_555
H10 C8 1_555 1_555
H11 C8 1_555 1_555
C9 N2 1_555 1_555
C10 N1 1_555 1_555
C11 C10 1_555 1_555
H12 C11 1_555 1_555
H13 C11 1_555 1_555
C12 N4 1_555 1_555
C13 N4 1_555 1_555
C14 C13 1_555 1_555
H14 C14 1_555 1_555
H15 C14 1_555 1_555
H16 C14 1_555 1_555
O1 C15 1_555 1_555
C15 O2 1_555 1_555
C16 O3 1_555 1_555
O4 C16 1_555 1_555
O5 C17 1_555 1_555
O6 C17 1_555 1_555
Zn1C N12 1_555 1_555
Zn2_2 N3 1_555 1_555
Zn2B N6 1_555 1_555
N3_2 Zn2 1_555 1_555
N6B Zn2 1_555 1_555
N12C Zn1 1_555 1_555
N5 C12 1_555 1_555
N9 C6 1_555 1_555
N11 C3 1_555 1_555
C1 C2 1_555 1_555
C4 C5 1_555 1_555
C8 C9 1_555 1_555
C11 C12 1_555 1_555

#END
