
#######################################################################
#
#                 Cambridge Crystallographic Data Centre
#                                CCDC 
#
#######################################################################
#
# If this CIF has been generated from an entry in the Cambridge 
# Structural Database, then it will include bibliographic, chemical, 
# crystal, experimental, refinement or atomic coordinate data resulting 
# from the CCDC's data processing and validation procedures.
#
#######################################################################

data_GUPBEZ02
_chemical_formula_moiety         'C96 H192 Cu48 I43 N39'
_symmetry_cell_setting           cubic
_symmetry_space_group_name_H-M   'F d -3 m'
_symmetry_Int_Tables_number      227
_space_group_name_Hall           '-F 4vw 2vw 3'
loop_
_symmetry_equiv_pos_site_id
_symmetry_equiv_pos_as_xyz
1 x,y,z
2 3/4-x,1/4-y,1/2+z
3 1/4-x,1/2+y,3/4-z
4 1/2+x,3/4-y,1/4-z
5 z,x,y
6 1/2+z,3/4-x,1/4-y
7 3/4-z,1/4-x,1/2+y
8 1/4-z,1/2+x,3/4-y
9 y,z,x
10 1/4-y,1/2+z,3/4-x
11 1/2+y,3/4-z,1/4-x
12 3/4-y,1/4-z,1/2+x
13 3/4+y,1/4+x,1/2-z
14 -y,-x,-z
15 1/4+y,1/2-x,3/4+z
16 1/2-y,3/4+x,1/4+z
17 3/4+x,1/4+z,1/2-y
18 1/2-x,3/4+z,1/4+y
19 -x,-z,-y
20 1/4+x,1/2-z,3/4+y
21 3/4+z,1/4+y,1/2-x
22 1/4+z,1/2-y,3/4+x
23 1/2-z,3/4+y,1/4+x
24 -z,-y,-x
25 x,1/2+y,1/2+z
26 3/4-x,3/4-y,z
27 1/4-x,y,1/4-z
28 1/2+x,1/4-y,3/4-z
29 z,1/2+x,1/2+y
30 1/2+z,1/4-x,3/4-y
31 3/4-z,3/4-x,y
32 1/4-z,x,1/4-y
33 y,1/2+z,1/2+x
34 1/4-y,z,1/4-x
35 1/2+y,1/4-z,3/4-x
36 3/4-y,3/4-z,x
37 3/4+y,3/4+x,-z
38 -y,1/2-x,1/2-z
39 1/4+y,-x,1/4+z
40 1/2-y,1/4+x,3/4+z
41 3/4+x,3/4+z,-y
42 1/2-x,1/4+z,3/4+y
43 -x,1/2-z,1/2-y
44 1/4+x,-z,1/4+y
45 3/4+z,3/4+y,-x
46 1/4+z,-y,1/4+x
47 1/2-z,1/4+y,3/4+x
48 -z,1/2-y,1/2-x
49 1/2+x,y,1/2+z
50 1/4-x,1/4-y,z
51 3/4-x,1/2+y,1/4-z
52 x,3/4-y,3/4-z
53 1/2+z,x,1/2+y
54 z,3/4-x,3/4-y
55 1/4-z,1/4-x,y
56 3/4-z,1/2+x,1/4-y
57 1/2+y,z,1/2+x
58 3/4-y,1/2+z,1/4-x
59 y,3/4-z,3/4-x
60 1/4-y,1/4-z,x
61 1/4+y,1/4+x,-z
62 1/2-y,-x,1/2-z
63 3/4+y,1/2-x,1/4+z
64 -y,3/4+x,3/4+z
65 1/4+x,1/4+z,-y
66 -x,3/4+z,3/4+y
67 1/2-x,-z,1/2-y
68 3/4+x,1/2-z,1/4+y
69 1/4+z,1/4+y,-x
70 3/4+z,1/2-y,1/4+x
71 -z,3/4+y,3/4+x
72 1/2-z,-y,1/2-x
73 1/2+x,1/2+y,z
74 1/4-x,3/4-y,1/2+z
75 3/4-x,y,3/4-z
76 x,1/4-y,1/4-z
77 1/2+z,1/2+x,y
78 z,1/4-x,1/4-y
79 1/4-z,3/4-x,1/2+y
80 3/4-z,x,3/4-y
81 1/2+y,1/2+z,x
82 3/4-y,z,3/4-x
83 y,1/4-z,1/4-x
84 1/4-y,3/4-z,1/2+x
85 1/4+y,3/4+x,1/2-z
86 1/2-y,1/2-x,-z
87 3/4+y,-x,3/4+z
88 -y,1/4+x,1/4+z
89 1/4+x,3/4+z,1/2-y
90 -x,1/4+z,1/4+y
91 1/2-x,1/2-z,-y
92 3/4+x,-z,3/4+y
93 1/4+z,3/4+y,1/2-x
94 3/4+z,-y,3/4+x
95 -z,1/4+y,1/4+x
96 1/2-z,1/2-y,-x
97 -x,-y,-z
98 1/4+x,3/4+y,1/2-z
99 3/4+x,1/2-y,1/4+z
100 1/2-x,1/4+y,3/4+z
101 -z,-x,-y
102 1/2-z,1/4+x,3/4+y
103 1/4+z,3/4+x,1/2-y
104 3/4+z,1/2-x,1/4+y
105 -y,-z,-x
106 3/4+y,1/2-z,1/4+x
107 1/2-y,1/4+z,3/4+x
108 1/4+y,3/4+z,1/2-x
109 1/4-y,3/4-x,1/2+z
110 y,x,z
111 3/4-y,1/2+x,1/4-z
112 1/2+y,1/4-x,3/4-z
113 1/4-x,3/4-z,1/2+y
114 1/2+x,1/4-z,3/4-y
115 x,z,y
116 3/4-x,1/2+z,1/4-y
117 1/4-z,3/4-y,1/2+x
118 3/4-z,1/2+y,1/4-x
119 1/2+z,1/4-y,3/4-x
120 z,y,x
121 -x,1/2-y,1/2-z
122 1/4+x,1/4+y,-z
123 3/4+x,-y,3/4+z
124 1/2-x,3/4+y,1/4+z
125 -z,1/2-x,1/2-y
126 1/2-z,3/4+x,1/4+y
127 1/4+z,1/4+x,-y
128 3/4+z,-x,3/4+y
129 -y,1/2-z,1/2-x
130 3/4+y,-z,3/4+x
131 1/2-y,3/4+z,1/4+x
132 1/4+y,1/4+z,-x
133 1/4-y,1/4-x,z
134 y,1/2+x,1/2+z
135 3/4-y,x,3/4-z
136 1/2+y,3/4-x,1/4-z
137 1/4-x,1/4-z,y
138 1/2+x,3/4-z,1/4-y
139 x,1/2+z,1/2+y
140 3/4-x,z,3/4-y
141 1/4-z,1/4-y,x
142 3/4-z,y,3/4-x
143 1/2+z,3/4-y,1/4-x
144 z,1/2+y,1/2+x
145 1/2-x,-y,1/2-z
146 3/4+x,3/4+y,-z
147 1/4+x,1/2-y,3/4+z
148 -x,1/4+y,1/4+z
149 1/2-z,-x,1/2-y
150 -z,1/4+x,1/4+y
151 3/4+z,3/4+x,-y
152 1/4+z,1/2-x,3/4+y
153 1/2-y,-z,1/2-x
154 1/4+y,1/2-z,3/4+x
155 -y,1/4+z,1/4+x
156 3/4+y,3/4+z,-x
157 3/4-y,3/4-x,z
158 1/2+y,x,1/2+z
159 1/4-y,1/2+x,3/4-z
160 y,1/4-x,1/4-z
161 3/4-x,3/4-z,y
162 x,1/4-z,1/4-y
163 1/2+x,z,1/2+y
164 1/4-x,1/2+z,3/4-y
165 3/4-z,3/4-y,x
166 1/4-z,1/2+y,3/4-x
167 z,1/4-y,1/4-x
168 1/2+z,y,1/2+x
169 1/2-x,1/2-y,-z
170 3/4+x,1/4+y,1/2-z
171 1/4+x,-y,1/4+z
172 -x,3/4+y,3/4+z
173 1/2-z,1/2-x,-y
174 -z,3/4+x,3/4+y
175 3/4+z,1/4+x,1/2-y
176 1/4+z,-x,1/4+y
177 1/2-y,1/2-z,-x
178 1/4+y,-z,1/4+x
179 -y,3/4+z,3/4+x
180 3/4+y,1/4+z,1/2-x
181 3/4-y,1/4-x,1/2+z
182 1/2+y,1/2+x,z
183 1/4-y,x,1/4-z
184 y,3/4-x,3/4-z
185 3/4-x,1/4-z,1/2+y
186 x,3/4-z,3/4-y
187 1/2+x,1/2+z,y
188 1/4-x,z,1/4-y
189 3/4-z,1/4-y,1/2+x
190 1/4-z,y,1/4-x
191 z,3/4-y,3/4-x
192 1/2+z,1/2+y,x
_cell_length_a                   62.312(9)
_cell_length_b                   62.312(9)
_cell_length_c                   62.312(9)
_cell_angle_alpha                90
_cell_angle_beta                 90
_cell_angle_gamma                90
_cell_volume                     241944
loop_
_atom_site_label
_atom_site_type_symbol
_atom_site_fract_x
_atom_site_fract_y
_atom_site_fract_z
_atom_site_U_iso_or_equiv
_atom_site_thermal_displace_type
I1 I 0.15069(4) 0.65069(4) 0.09931(4) 0.1633 Uani
Cu1 Cu 0.10989(6) 0.64011(6) 0.10989(6) 0.1600 Uani
N1 N 0.0906(3) 0.6594(3) 0.0906(3) 0.1440 Uani
C1 C 0.0939(5) 0.6561(5) 0.0663(3) 0.2230 Uiso
H1 H 0.0911 0.6419 0.0628 0.2680 Uiso
C2 C 0.0792(3) 0.6708(3) 0.0521(5) 0.1600 Uani
N2 N 0.0660(4) 0.6840(4) 0.0660(4) 0.1190 Uani
H2 H 0.0879 0.6798 0.0431 0.1920 Uiso
Cu2 Cu 0.04744(6) 0.70256(6) 0.04744(6) 0.1530 Uani
I2 I 0.07521(3) 0.72633(2) 0.02367(2) 0.1491 Uani
Cu3 Cu 0.03711(4) 0.74297(6) 0.03711(4) 0.1529 Uani
I3 I 0.00661(3) 0.74339(3) 0.00661(3) 0.1512 Uani
N3 N 0.0435(3) 0.7757(3) 0.0435(3) 0.1780 Uani
C3 C 0.0611(4) 0.7759(6) 0.0611(4) 0.1950 Uiso
C4 C 0.0522(5) 0.7869(4) 0.0224(3) 0.2160 Uani
H3 H 0.0739 0.7689 0.0564 0.2340 Uiso
C5 C 0.0658(3) 0.8010(4) 0.0658(3) 0.1490 Uani
C6 C 0.0573(3) 0.8103(4) 0.0285(3) 0.1593 Uani
H4 H 0.0651 0.7797 0.0173 0.2590 Uiso
H5 H 0.0415 0.7864 0.0111 0.2590 Uiso
N4 N 0.0526(2) 0.8159(4) 0.0526(2) 0.1463 Uani
H6 H 0.0631 0.8039 0.0808 0.1790 Uiso
H7 H 0.0489 0.8197 0.0194 0.1900 Uiso
H8 H 0.0723 0.8131 0.0256 0.1900 Uiso
Cu4 Cu 0.06161(5) 0.84599(6) 0.06161(5) 0.1533 Uani
I4 I 0.05349(2) 0.84950(2) 0.10395(2) 0.1446 Uani
I5 I 0.03594(3) 0.86992(4) 0.03594(3) 0.1541 Uani
Cu5 Cu 0.04623(4) 0.88255(5) 0.07648(5) 0.1563 Uani
Cu6 Cu 0.08639(5) 0.87153(6) 0.08639(5) 0.1488 Uani
I6 I 0.07690(3) 0.91263(3) 0.07690(3) 0.1527 Uani
N5 N 0.0169(3) 0.8969(3) 0.0879(3) 0.1430 Uani
N6 N 0.1099(2) 0.8728(3) 0.1099(2) 0.1383 Uani
C7 C 0.0092(4) 0.9151(4) 0.0759(4) 0.1867 Uani
C8 C -0.0001(3) 0.8794(4) 0.0869(4) 0.1480 Uani
C9 C 0.0200(3) 0.9043(4) 0.1104(4) 0.1547 Uani
C10 C 0.1313(3) 0.8840(3) 0.1026(3) 0.1527 Uani
C11 C 0.1155(3) 0.8465(5) 0.1155(3) 0.1427 Uani
H9 H 0.0203 0.9259 0.0753 0.2220 Uiso
H10 H 0.0061 0.9106 0.0614 0.2220 Uiso
H11 H -0.0023 0.8747 0.0723 0.1790 Uiso
H12 H 0.0041 0.8672 0.0956 0.1790 Uiso
H13 H 0.0310 0.9153 0.1106 0.1840 Uiso
H14 H 0.0251 0.8924 0.1190 0.1840 Uiso
H15 H 0.1367 0.8767 0.0900 0.1830 Uiso
H16 H 0.1281 0.8987 0.0986 0.1830 Uiso
H17 H 0.1206 0.8393 0.1027 0.1700 Uiso
Cu1G Cu 0.14011(6) 0.60989(6) 0.10989(6) 0.1600 Uani
Cu1J Cu 0.14011(6) 0.64011(6) 0.14011(6) 0.1600 Uani
I1Z I 0.09931(4) 0.65069(4) 0.15069(4) 0.1633 Uani
I1WA I 0.09931(4) 0.59931(4) 0.09931(4) 0.1633 Uani
N1G N 0.1594(3) 0.5906(3) 0.0906(3) 0.1440 Uani
I1WB I 0.15069(4) 0.59931(4) 0.15069(4) 0.1633 Uani
C1IA C 0.0939(5) 0.6837(3) 0.0939(5) 0.2230 Uiso
C1AB C 0.0663(3) 0.6561(5) 0.0939(5) 0.2230 Uiso
Cu1BA Cu 0.10989(6) 0.60989(6) 0.14011(6) 0.1600 Uani
C1G C 0.1837(3) 0.5939(5) 0.0939(5) 0.2230 Uiso
C1WA C 0.1561(5) 0.5939(5) 0.0663(3) 0.2230 Uiso
C1BC C 0.1561(5) 0.5663(3) 0.0939(5) 0.2230 Uiso
H1ZE H 0.1081 0.6589 0.0628 0.2680 Uiso
H1IA H 0.1081 0.6872 0.0911 0.2680 Uiso
C2IA C 0.0792(3) 0.6979(5) 0.0792(3) 0.1600 Uani
H1CG H 0.0911 0.6872 0.1081 0.2680 Uiso
H1AB H 0.0628 0.6589 0.1081 0.2680 Uiso
C2AB C 0.0521(5) 0.6708(3) 0.0792(3) 0.1600 Uani
H1OD H 0.0628 0.6419 0.0911 0.2680 Uiso
H1G H 0.1872 0.5911 0.1081 0.2680 Uiso
C2G C 0.1979(5) 0.5792(3) 0.0792(3) 0.1600 Uani
H1JE H 0.1872 0.6081 0.0911 0.2680 Uiso
H1WA H 0.1589 0.6081 0.0628 0.2680 Uiso
C2WA C 0.1708(3) 0.5792(3) 0.0521(5) 0.1600 Uani
H1YF H 0.1419 0.5911 0.0628 0.2680 Uiso
H1BC H 0.1419 0.5628 0.0911 0.2680 Uiso
C2BC C 0.1708(3) 0.5521(5) 0.0792(3) 0.1600 Uani
H1GF H 0.1589 0.5628 0.1081 0.2680 Uiso
H2ZE H 0.0702 0.6621 0.0431 0.1920 Uiso
H2IA H 0.0702 0.7069 0.0879 0.1920 Uiso
H2CG H 0.0879 0.7069 0.0702 0.1920 Uiso
H2AB H 0.0431 0.6621 0.0702 0.1920 Uiso
H2OD H 0.0431 0.6798 0.0879 0.1920 Uiso
N2G N 0.1840(4) 0.5660(4) 0.0660(4) 0.1190 Uani
H2G H 0.2069 0.5879 0.0702 0.1920 Uiso
H2JE H 0.2069 0.5702 0.0879 0.1920 Uiso
H2WA H 0.1621 0.5702 0.0431 0.1920 Uiso
H2YF H 0.1798 0.5879 0.0431 0.1920 Uiso
H2BC H 0.1798 0.5431 0.0879 0.1920 Uiso
H2GF H 0.1621 0.5431 0.0702 0.1920 Uiso
Cu2G Cu 0.20256(6) 0.54744(6) 0.04744(6) 0.1530 Uani
I2IA I 0.02367(2) 0.72633(2) 0.07521(3) 0.1491 Uani
I2AB I 0.02367(2) 0.67479(3) 0.02367(2) 0.1491 Uani
I2G I 0.22633(2) 0.57521(3) 0.02367(2) 0.1491 Uani
I2WA I 0.17479(3) 0.52367(2) 0.02367(2) 0.1491 Uani
I2BC I 0.22633(2) 0.52367(2) 0.07521(3) 0.1491 Uani
Cu3AB Cu 0.03711(4) 0.71289(4) 0.00703(6) 0.1529 Uani
Cu3IA Cu 0.00703(6) 0.71289(4) 0.03711(4) 0.1529 Uani
Cu3G Cu 0.21289(4) 0.53711(4) 0.00703(6) 0.1529 Uani
Cu3BC Cu 0.24297(6) 0.53711(4) 0.03711(4) 0.1529 Uani
Cu3WA Cu 0.21289(4) 0.50703(6) 0.03711(4) 0.1529 Uani
N3AB N 0.0435(3) 0.7065(3) -0.0257(3) 0.1780 Uani
N3IA N -0.0257(3) 0.7065(3) 0.0435(3) 0.1780 Uani
I3G I 0.24339(3) 0.50661(3) 0.00661(3) 0.1512 Uani
N3G N 0.2065(3) 0.5435(3) -0.0257(3) 0.1780 Uani
C4OD C 0.0224(3) 0.7869(4) 0.0522(5) 0.2160 Uani
C3AB C 0.0611(4) 0.6889(4) -0.0259(6) 0.1950 Uiso
C4AB C 0.0224(3) 0.6978(5) -0.0369(4) 0.2160 Uani
C4CG C 0.0522(5) 0.7276(3) -0.0369(4) 0.2160 Uani
C3IA C -0.0259(6) 0.6889(4) 0.0611(4) 0.1950 Uiso
C4IA C -0.0369(4) 0.7276(3) 0.0522(5) 0.2160 Uani
C4ZE C -0.0369(4) 0.6978(5) 0.0224(3) 0.2160 Uani
C3G C 0.1889(4) 0.5611(4) -0.0259(6) 0.1950 Uiso
C4G C 0.2276(3) 0.5522(5) -0.0369(4) 0.2160 Uani
C4GF C 0.1978(5) 0.5224(3) -0.0369(4) 0.2160 Uani
H3OD H 0.0564 0.7689 0.0739 0.2340 Uiso
C6OD C 0.0285(3) 0.8103(4) 0.0573(3) 0.1593 Uani
H4OD H 0.0173 0.7797 0.0651 0.2590 Uiso
H5OD H 0.0111 0.7864 0.0415 0.2590 Uiso
H3AB H 0.0564 0.6761 -0.0189 0.2340 Uiso
C5AB C 0.0658(3) 0.6842(3) -0.0510(4) 0.1490 Uani
H3CG H 0.0739 0.6936 -0.0189 0.2340 Uiso
C6AB C 0.0285(3) 0.6927(3) -0.0603(4) 0.1593 Uani
H4AB H 0.0173 0.6849 -0.0297 0.2590 Uiso
H5AB H 0.0111 0.7085 -0.0364 0.2590 Uiso
C6CG C 0.0573(3) 0.7215(3) -0.0603(4) 0.1593 Uani
H4CG H 0.0651 0.7327 -0.0297 0.2590 Uiso
H5CG H 0.0415 0.7389 -0.0364 0.2590 Uiso
H3IA H -0.0189 0.6936 0.0739 0.2340 Uiso
C5IA C -0.0510(4) 0.6842(3) 0.0658(3) 0.1490 Uani
H3ZE H -0.0189 0.6761 0.0564 0.2340 Uiso
C6IA C -0.0603(4) 0.7215(3) 0.0573(3) 0.1593 Uani
H4IA H -0.0297 0.7327 0.0651 0.2590 Uiso
H5IA H -0.0364 0.7389 0.0415 0.2590 Uiso
C6ZE C -0.0603(4) 0.6927(3) 0.0285(3) 0.1593 Uani
H4ZE H -0.0297 0.6849 0.0173 0.2590 Uiso
H5ZE H -0.0364 0.7085 0.0111 0.2590 Uiso
H3G H 0.1936 0.5739 -0.0189 0.2340 Uiso
C5G C 0.1842(3) 0.5658(3) -0.0510(4) 0.1490 Uani
H3GF H 0.1761 0.5564 -0.0189 0.2340 Uiso
C6G C 0.2215(3) 0.5573(3) -0.0603(4) 0.1593 Uani
H4G H 0.2327 0.5651 -0.0297 0.2590 Uiso
H5G H 0.2389 0.5415 -0.0364 0.2590 Uiso
C6GF C 0.1927(3) 0.5285(3) -0.0603(4) 0.1593 Uani
H4GF H 0.1849 0.5173 -0.0297 0.2590 Uiso
H5GF H 0.2085 0.5111 -0.0364 0.2590 Uiso
H6OD H 0.0808 0.8039 0.0631 0.1790 Uiso
H7OD H 0.0194 0.8197 0.0489 0.1900 Uiso
H8OD H 0.0256 0.8131 0.0723 0.1900 Uiso
N4AB N 0.0526(2) 0.6974(2) -0.0659(4) 0.1463 Uani
H6AB H 0.0808 0.6869 -0.0539 0.1790 Uiso
H6CG H 0.0631 0.6692 -0.0539 0.1790 Uiso
H7AB H 0.0194 0.7011 -0.0697 0.1900 Uiso
H8AB H 0.0256 0.6777 -0.0631 0.1900 Uiso
H7CG H 0.0489 0.7306 -0.0697 0.1900 Uiso
H8CG H 0.0723 0.7244 -0.0631 0.1900 Uiso
N4IA N -0.0659(4) 0.6974(2) 0.0526(2) 0.1463 Uani
H6IA H -0.0539 0.6692 0.0631 0.1790 Uiso
H6ZE H -0.0539 0.6869 0.0808 0.1790 Uiso
H7IA H -0.0697 0.7306 0.0489 0.1900 Uiso
H8IA H -0.0631 0.7244 0.0723 0.1900 Uiso
H7ZE H -0.0697 0.7011 0.0194 0.1900 Uiso
H8ZE H -0.0631 0.6777 0.0256 0.1900 Uiso
N4G N 0.1974(2) 0.5526(2) -0.0659(4) 0.1463 Uani
H6G H 0.1692 0.5631 -0.0539 0.1790 Uiso
H6GF H 0.1869 0.5808 -0.0539 0.1790 Uiso
H7G H 0.2306 0.5489 -0.0697 0.1900 Uiso
H8G H 0.2244 0.5723 -0.0631 0.1900 Uiso
H7GF H 0.2011 0.5194 -0.0697 0.1900 Uiso
H8GF H 0.1777 0.5256 -0.0631 0.1900 Uiso
Cu4AB Cu 0.06161(5) 0.68839(5) -0.09599(6) 0.1533 Uani
Cu4IA Cu -0.09599(6) 0.68839(5) 0.06161(5) 0.1533 Uani
Cu4G Cu 0.18839(5) 0.56161(5) -0.09599(6) 0.1533 Uani
I4OD I 0.10395(2) 0.84950(2) 0.05349(2) 0.1446 Uani
I4AB I 0.10395(2) 0.69651(2) -0.09950(2) 0.1446 Uani
I5AB I 0.03594(3) 0.71406(3) -0.11992(4) 0.1541 Uani
I4CG I 0.05349(2) 0.64605(2) -0.09950(2) 0.1446 Uani
I4IA I -0.09950(2) 0.64605(2) 0.05349(2) 0.1446 Uani
I5IA I -0.11992(4) 0.71406(3) 0.03594(3) 0.1541 Uani
I4ZE I -0.09950(2) 0.69651(2) 0.10395(2) 0.1446 Uani
I4G I 0.14605(2) 0.55349(2) -0.09950(2) 0.1446 Uani
I5G I 0.21406(3) 0.53594(3) -0.11992(4) 0.1541 Uani
I4GF I 0.19651(2) 0.60395(2) -0.09950(2) 0.1446 Uani
Cu5OD Cu 0.07648(5) 0.88255(5) 0.04623(4) 0.1563 Uani
Cu5AB Cu 0.07648(5) 0.70377(4) -0.13255(5) 0.1563 Uani
Cu6AB Cu 0.08639(5) 0.66361(5) -0.12153(6) 0.1488 Uani
Cu5CG Cu 0.04623(4) 0.67352(5) -0.13255(5) 0.1563 Uani
Cu5IA Cu -0.13255(5) 0.67352(5) 0.04623(4) 0.1563 Uani
Cu6IA Cu -0.12153(6) 0.66361(5) 0.08639(5) 0.1488 Uani
Cu5ZE Cu -0.13255(5) 0.70377(4) 0.07648(5) 0.1563 Uani
Cu5G Cu 0.17352(5) 0.54623(4) -0.13255(5) 0.1563 Uani
Cu6G Cu 0.16361(5) 0.58639(5) -0.12153(6) 0.1488 Uani
Cu5GF Cu 0.20377(4) 0.57648(5) -0.13255(5) 0.1563 Uani
N5OD N 0.0879(3) 0.8969(3) 0.0169(3) 0.1430 Uani
I6AB I 0.07690(3) 0.67310(3) -0.16263(3) 0.1527 Uani
N5AB N 0.0879(3) 0.7331(3) -0.1469(3) 0.1430 Uani
N6AB N 0.1099(2) 0.6401(2) -0.1228(3) 0.1383 Uani
I6IA I -0.16263(3) 0.67310(3) 0.07690(3) 0.1527 Uani
N5IA N -0.1469(3) 0.6621(3) 0.0169(3) 0.1430 Uani
N6IA N -0.1228(3) 0.6401(2) 0.1099(2) 0.1383 Uani
N5ZE N -0.1469(3) 0.7331(3) 0.0879(3) 0.1430 Uani
I6G I 0.17310(3) 0.57690(3) -0.16263(3) 0.1527 Uani
N5G N 0.1621(3) 0.5169(3) -0.1469(3) 0.1430 Uani
N6G N 0.1401(2) 0.6099(2) -0.1228(3) 0.1383 Uani
N5GF N 0.2331(3) 0.5879(3) -0.1469(3) 0.1430 Uani
C10OD C 0.1026(3) 0.8840(3) 0.1313(3) 0.1527 Uani
C7OD C 0.0759(4) 0.9151(4) 0.0092(4) 0.1867 Uani
C8OD C 0.0869(4) 0.8794(4) -0.0001(3) 0.1480 Uani
C9OD C 0.1104(4) 0.9043(4) 0.0200(3) 0.1547 Uani
C10AB C 0.1026(3) 0.6187(3) -0.1340(3) 0.1527 Uani
C11AB C 0.1155(3) 0.6345(3) -0.0965(5) 0.1427 Uani
C10CG C 0.1313(3) 0.6474(3) -0.1340(3) 0.1527 Uani
C7G C 0.1741(4) 0.5092(4) -0.1651(4) 0.1867 Uani
C8G C 0.1631(4) 0.4999(3) -0.1294(4) 0.1480 Uani
C9G C 0.1396(4) 0.5200(3) -0.1543(4) 0.1547 Uani
C10G C 0.1474(3) 0.6313(3) -0.1340(3) 0.1527 Uani
C11G C 0.1345(3) 0.6155(3) -0.0965(5) 0.1427 Uani
C10GF C 0.1187(3) 0.6026(3) -0.1340(3) 0.1527 Uani
C7R C -0.0092(4) 0.9241(4) 0.0849(4) 0.1867 Uani
C9R C -0.0200(3) 0.8896(4) 0.0957(4) 0.1547 Uani
C8R C 0.0001(3) 0.9131(4) 0.1206(4) 0.1480 Uani
C10GG C 0.1474(3) 0.8840(3) 0.1187(3) 0.1527 Uani
C11Z C 0.1345(3) 0.8465(5) 0.1345(3) 0.1427 Uani
H17OD H 0.1027 0.8393 0.1206 0.1700 Uiso
C10Z C 0.1187(3) 0.8840(3) 0.1474(3) 0.1527 Uani
H15OD H 0.0900 0.8767 0.1367 0.1830 Uiso
H16OD H 0.0986 0.8987 0.1281 0.1830 Uiso
H9OD H 0.0753 0.9259 0.0203 0.2220 Uiso
H10OD H 0.0614 0.9106 0.0061 0.2220 Uiso
C7ZC C 0.0849(4) 0.9241(4) -0.0092(4) 0.1867 Uani
H11OD H 0.0723 0.8747 -0.0023 0.1790 Uiso
H12OD H 0.0956 0.8672 0.0041 0.1790 Uiso
C9ZC C 0.0957(4) 0.8896(4) -0.0200(3) 0.1547 Uani
H13OD H 0.1106 0.9153 0.0310 0.1840 Uiso
H14OD H 0.1190 0.8924 0.0251 0.1840 Uiso
C8ZC C 0.1206(4) 0.9131(4) 0.0001(3) 0.1480 Uani
H15AB H 0.0900 0.6133 -0.1267 0.1830 Uiso
H16AB H 0.0986 0.6219 -0.1487 0.1830 Uiso
H17AB H 0.1027 0.6294 -0.0893 0.1700 Uiso
H17CG H 0.1206 0.6473 -0.0893 0.1700 Uiso
H15CG H 0.1367 0.6600 -0.1267 0.1830 Uiso
H16CG H 0.1281 0.6514 -0.1487 0.1830 Uiso
H9G H 0.1747 0.5203 -0.1759 0.2220 Uiso
H10G H 0.1886 0.5061 -0.1606 0.2220 Uiso
C7N C 0.1651(4) 0.4908(4) -0.1741(4) 0.1867 Uani
H11G H 0.1777 0.4977 -0.1247 0.1790 Uiso
H12G H 0.1544 0.5041 -0.1172 0.1790 Uiso
C9N C 0.1543(4) 0.4800(3) -0.1396(4) 0.1547 Uani
H13G H 0.1394 0.5310 -0.1653 0.1840 Uiso
H14G H 0.1310 0.5251 -0.1424 0.1840 Uiso
C8N C 0.1294(4) 0.5001(3) -0.1631(4) 0.1480 Uani
H15G H 0.1600 0.6367 -0.1267 0.1830 Uiso
H16G H 0.1514 0.6281 -0.1487 0.1830 Uiso
H17G H 0.1473 0.6206 -0.0893 0.1700 Uiso
H17GF H 0.1294 0.6027 -0.0893 0.1700 Uiso
H15GF H 0.1133 0.5900 -0.1267 0.1830 Uiso
H16GF H 0.1219 0.5986 -0.1487 0.1830 Uiso
N5R N -0.0169(3) 0.9121(3) 0.1031(3) 0.1430 Uani
H9R H -0.0203 0.9247 0.0741 0.2220 Uiso
H10R H -0.0061 0.9386 0.0894 0.2220 Uiso
H13R H -0.0310 0.8894 0.0847 0.1840 Uiso
H14R H -0.0251 0.8810 0.1076 0.1840 Uiso
H11R H 0.0023 0.9277 0.1253 0.1790 Uiso
H12R H -0.0041 0.9044 0.1328 0.1790 Uiso
N6Z N 0.1401(2) 0.8728(3) 0.1401(2) 0.1383 Uani
H15GG H 0.1600 0.8767 0.1133 0.1830 Uiso
H16GG H 0.1514 0.8987 0.1219 0.1830 Uiso
H17Z H 0.1294 0.8393 0.1473 0.1700 Uiso
H17GG H 0.1473 0.8393 0.1294 0.1700 Uiso
H15Z H 0.1133 0.8767 0.1600 0.1830 Uiso
H16Z H 0.1219 0.8987 0.1514 0.1830 Uiso
N5ZC N 0.1031(3) 0.9121(3) -0.0169(3) 0.1430 Uani
H9ZC H 0.0741 0.9247 -0.0203 0.2220 Uiso
H10ZC H 0.0894 0.9386 -0.0061 0.2220 Uiso
H13ZC H 0.0847 0.8894 -0.0310 0.1840 Uiso
H14ZC H 0.1076 0.8810 -0.0251 0.1840 Uiso
H11ZC H 0.1253 0.9277 0.0023 0.1790 Uiso
H12ZC H 0.1328 0.9044 -0.0041 0.1790 Uiso
N5N N 0.1469(3) 0.4831(3) -0.1621(3) 0.1430 Uani
H9N H 0.1759 0.4797 -0.1747 0.2220 Uiso
H10N H 0.1606 0.4939 -0.1886 0.2220 Uiso
H13N H 0.1653 0.4690 -0.1394 0.1840 Uiso
H14N H 0.1424 0.4749 -0.1310 0.1840 Uiso
H11N H 0.1247 0.5023 -0.1777 0.1790 Uiso
H12N H 0.1172 0.4959 -0.1544 0.1790 Uiso
Cu5R Cu -0.04623(4) 0.92352(5) 0.11745(5) 0.1563 Uani
Cu6Z Cu 0.16361(5) 0.87153(6) 0.16361(5) 0.1488 Uani
Cu5ZC Cu 0.11745(5) 0.92352(5) -0.04623(4) 0.1563 Uani
Cu5N Cu 0.13255(5) 0.45377(4) -0.17352(5) 0.1563 Uani
I4R I -0.05349(2) 0.89605(2) 0.15050(2) 0.1446 Uani
I6R I -0.07690(3) 0.92310(3) 0.08737(3) 0.1527 Uani
I5R I -0.03594(3) 0.96406(3) 0.13008(4) 0.1541 Uani
I4Z I 0.19651(2) 0.84950(2) 0.14605(2) 0.1446 Uani
I6Z I 0.17310(3) 0.91263(3) 0.17310(3) 0.1527 Uani
I4GG I 0.14605(2) 0.84950(2) 0.19651(2) 0.1446 Uani
Cu6R Cu -0.08639(5) 0.91361(5) 0.12847(6) 0.1488 Uani
Cu4R Cu -0.06161(5) 0.93839(5) 0.15401(6) 0.1533 Uani
Cu5Z Cu 0.20377(4) 0.88255(5) 0.17352(5) 0.1563 Uani
Cu4Z Cu 0.18839(5) 0.84599(6) 0.18839(5) 0.1533 Uani
Cu5GG Cu 0.17352(5) 0.88255(5) 0.20377(4) 0.1563 Uani
I5Z I 0.21406(3) 0.86992(4) 0.21406(3) 0.1541 Uani
N5Z N 0.2331(3) 0.8969(3) 0.1621(3) 0.1430 Uani
N4Z N 0.1974(2) 0.8159(4) 0.1974(2) 0.1463 Uani
N5GG N 0.1621(3) 0.8969(3) 0.2331(3) 0.1430 Uani
C7Z C 0.2408(4) 0.9151(4) 0.1741(4) 0.1867 Uani
C8Z C 0.2501(3) 0.8794(4) 0.1631(4) 0.1480 Uani
C9Z C 0.2300(3) 0.9043(4) 0.1396(4) 0.1547 Uani
C5Z C 0.1842(3) 0.8010(4) 0.1842(3) 0.1490 Uani
C6Z C 0.1927(3) 0.8103(4) 0.2215(3) 0.1593 Uani
C6GG C 0.2215(3) 0.8103(4) 0.1927(3) 0.1593 Uani
H9Z H 0.2297 0.9259 0.1747 0.2220 Uiso
H10Z H 0.2439 0.9106 0.1886 0.2220 Uiso
C7QA C 0.2592(4) 0.9241(4) 0.1651(4) 0.1867 Uani
H11Z H 0.2523 0.8747 0.1777 0.1790 Uiso
H12Z H 0.2459 0.8672 0.1544 0.1790 Uiso
C9QA C 0.2700(3) 0.8896(4) 0.1543(4) 0.1547 Uani
H13Z H 0.2190 0.9153 0.1394 0.1840 Uiso
H14Z H 0.2249 0.8924 0.1310 0.1840 Uiso
C8QA C 0.2499(3) 0.9131(4) 0.1294(4) 0.1480 Uani
C3Z C 0.1889(4) 0.7759(6) 0.1889(4) 0.1950 Uiso
H6Z H 0.1869 0.8039 0.1692 0.1790 Uiso
H6GG H 0.1692 0.8039 0.1869 0.1790 Uiso
H7Z H 0.2011 0.8197 0.2306 0.1900 Uiso
H8Z H 0.1777 0.8131 0.2244 0.1900 Uiso
C4Z C 0.1978(5) 0.7869(4) 0.2276(3) 0.2160 Uani
H7GG H 0.2306 0.8197 0.2011 0.1900 Uiso
H8GG H 0.2244 0.8131 0.1777 0.1900 Uiso
C4GG C 0.2276(3) 0.7869(4) 0.1978(5) 0.2160 Uani
N5QA N 0.2669(3) 0.9121(3) 0.1469(3) 0.1430 Uani
H9QA H 0.2703 0.9247 0.1759 0.2220 Uiso
H10QA H 0.2561 0.9386 0.1606 0.2220 Uiso
H13QA H 0.2810 0.8894 0.1653 0.1840 Uiso
H14QA H 0.2751 0.8810 0.1424 0.1840 Uiso
H11QA H 0.2477 0.9277 0.1247 0.1790 Uiso
H12QA H 0.2541 0.9044 0.1172 0.1790 Uiso
N3Z N 0.2065(3) 0.7757(3) 0.2065(3) 0.1780 Uani
H3Z H 0.1761 0.7689 0.1936 0.2340 Uiso
H3GG H 0.1936 0.7689 0.1761 0.2340 Uiso
H4Z H 0.1849 0.7797 0.2327 0.2590 Uiso
H5Z H 0.2085 0.7864 0.2389 0.2590 Uiso
H4GG H 0.2327 0.7797 0.1849 0.2590 Uiso
H5GG H 0.2389 0.7864 0.2085 0.2590 Uiso
Cu5QA Cu 0.29623(4) 0.92352(5) 0.13255(5) 0.1563 Uani
Cu3Z Cu 0.21289(4) 0.74297(6) 0.21289(4) 0.1529 Uani
I2J I 0.22633(2) 0.72633(2) 0.17479(3) 0.1491 Uani
I2Z I 0.17479(3) 0.72633(2) 0.22633(2) 0.1491 Uani
I3J I 0.24339(3) 0.74339(3) 0.24339(3) 0.1512 Uani
Cu3J Cu 0.24297(6) 0.71289(4) 0.21289(4) 0.1529 Uani
Cu2J Cu 0.20256(6) 0.70256(6) 0.20256(6) 0.1530 Uani
Cu3ZB Cu 0.21289(4) 0.71289(4) 0.24297(6) 0.1529 Uani
N3J N 0.2757(3) 0.7065(3) 0.2065(3) 0.1780 Uani
I2ZB I 0.22633(2) 0.67479(3) 0.22633(2) 0.1491 Uani
C3J C 0.2759(6) 0.6889(4) 0.1889(4) 0.1950 Uiso
C4J C 0.2869(4) 0.7276(3) 0.1978(5) 0.2160 Uani
C4EE C 0.2869(4) 0.6978(5) 0.2276(3) 0.2160 Uani
H3J H 0.2689 0.6936 0.1761 0.2340 Uiso
C5J C 0.3010(4) 0.6842(3) 0.1842(3) 0.1490 Uani
H3EE H 0.2689 0.6761 0.1936 0.2340 Uiso
C6J C 0.3103(4) 0.7215(3) 0.1927(3) 0.1593 Uani
H4J H 0.2797 0.7327 0.1849 0.2590 Uiso
H5J H 0.2864 0.7389 0.2085 0.2590 Uiso
C6EE C 0.3103(4) 0.6927(3) 0.2215(3) 0.1593 Uani
H4EE H 0.2797 0.6849 0.2327 0.2590 Uiso
H5EE H 0.2864 0.7085 0.2389 0.2590 Uiso
N4J N 0.3159(4) 0.6974(2) 0.1974(2) 0.1463 Uani
H6J H 0.3039 0.6692 0.1869 0.1790 Uiso
H6EE H 0.3039 0.6869 0.1692 0.1790 Uiso
H7J H 0.3197 0.7306 0.2011 0.1900 Uiso
H8J H 0.3131 0.7244 0.1777 0.1900 Uiso
H7EE H 0.3197 0.7011 0.2306 0.1900 Uiso
H8EE H 0.3131 0.6777 0.2244 0.1900 Uiso
Cu4J Cu 0.34599(6) 0.68839(5) 0.18839(5) 0.1533 Uani
I4J I 0.34950(2) 0.64605(2) 0.19651(2) 0.1446 Uani
I5J I 0.36992(4) 0.71406(3) 0.21406(3) 0.1541 Uani
I4EE I 0.34950(2) 0.69651(2) 0.14605(2) 0.1446 Uani
Cu5J Cu 0.38255(5) 0.67352(5) 0.20377(4) 0.1563 Uani
Cu6J Cu 0.37153(6) 0.66361(5) 0.16361(5) 0.1488 Uani
Cu5EE Cu 0.38255(5) 0.70377(4) 0.17352(5) 0.1563 Uani
I6J I 0.41263(3) 0.67310(3) 0.17310(3) 0.1527 Uani
N5J N 0.3969(3) 0.6621(3) 0.2331(3) 0.1430 Uani
N6J N 0.3728(3) 0.6401(2) 0.1401(2) 0.1383 Uani
N5EE N 0.3969(3) 0.7331(3) 0.1621(3) 0.1430 Uani
C7J C 0.4151(4) 0.6741(4) 0.2408(4) 0.1867 Uani
C8J C 0.3794(4) 0.6631(4) 0.2501(3) 0.1480 Uani
C9J C 0.4043(4) 0.6396(4) 0.2300(3) 0.1547 Uani
C10J C 0.3840(3) 0.6474(3) 0.1187(3) 0.1527 Uani
C11J C 0.3465(5) 0.6345(3) 0.1345(3) 0.1427 Uani
C10EE C 0.3840(3) 0.6187(3) 0.1474(3) 0.1527 Uani
H9J H 0.4259 0.6747 0.2297 0.2220 Uiso
H10J H 0.4106 0.6886 0.2439 0.2220 Uiso
C7V C 0.4241(4) 0.6651(4) 0.2592(4) 0.1867 Uani
H11J H 0.3747 0.6777 0.2523 0.1790 Uiso
H12J H 0.3672 0.6544 0.2459 0.1790 Uiso
C9V C 0.3896(4) 0.6543(4) 0.2700(3) 0.1547 Uani
H13J H 0.4153 0.6394 0.2190 0.1840 Uiso
H14J H 0.3924 0.6310 0.2249 0.1840 Uiso
C8V C 0.4131(4) 0.6294(4) 0.2499(3) 0.1480 Uani
H15J H 0.3767 0.6600 0.1133 0.1830 Uiso
H16J H 0.3987 0.6514 0.1219 0.1830 Uiso
C10YF C 0.3840(3) 0.6313(3) 0.1026(3) 0.1527 Uani
H17J H 0.3393 0.6473 0.1294 0.1700 Uiso
C11BC C 0.3465(5) 0.6155(3) 0.1155(3) 0.1427 Uani
H17EE H 0.3393 0.6294 0.1473 0.1700 Uiso
C10BC C 0.3840(3) 0.6026(3) 0.1313(3) 0.1527 Uani
H15EE H 0.3767 0.6133 0.1600 0.1830 Uiso
H16EE H 0.3987 0.6219 0.1514 0.1830 Uiso
N5V N 0.4121(3) 0.6469(3) 0.2669(3) 0.1430 Uani
H9V H 0.4247 0.6759 0.2703 0.2220 Uiso
H10V H 0.4386 0.6606 0.2561 0.2220 Uiso
H13V H 0.3894 0.6653 0.2810 0.1840 Uiso
H14V H 0.3810 0.6424 0.2751 0.1840 Uiso
H11V H 0.4277 0.6247 0.2477 0.1790 Uiso
H12V H 0.4044 0.6172 0.2541 0.1790 Uiso
N6BC N 0.3728(3) 0.6099(2) 0.1099(2) 0.1383 Uani
H15YF H 0.3767 0.6367 0.0900 0.1830 Uiso
H16YF H 0.3987 0.6281 0.0986 0.1830 Uiso
H17BC H 0.3393 0.6027 0.1206 0.1700 Uiso
H17YF H 0.3393 0.6206 0.1027 0.1700 Uiso
H15BC H 0.3767 0.5900 0.1367 0.1830 Uiso
H16BC H 0.3987 0.5986 0.1281 0.1830 Uiso
Cu5V Cu 0.42352(5) 0.63255(5) 0.29623(4) 0.1563 Uani
Cu6BC Cu 0.37153(6) 0.58639(5) 0.08639(5) 0.1488 Uani
loop_
_atom_site_aniso_label
_atom_site_aniso_U_11
_atom_site_aniso_U_22
_atom_site_aniso_U_33
_atom_site_aniso_U_23
_atom_site_aniso_U_13
_atom_site_aniso_U_12
I1 0.1633(14) 0.1633(14) 0.1633(14) 0.0080(14) 0.0080(14) -0.0080(14)
Cu1 0.160(2) 0.160(2) 0.160(2) 0.013(2) -0.013(2) 0.013(2)
N1 0.144(14) 0.144(14) 0.144(14) 0.041(12) -0.041(12) 0.041(12)
C2 0.125(13) 0.125(13) 0.23(4) 0.055(16) -0.055(16) 0.028(17)
N2 0.119(11) 0.119(11) 0.119(11) 0.004(14) -0.004(14) 0.004(14)
Cu2 0.153(2) 0.153(2) 0.153(2) 0.004(2) -0.004(2) 0.004(2)
I2 0.1398(16) 0.1537(12) 0.1537(12) -0.0068(13) 0.0082(9) -0.0082(9)
Cu3 0.1578(19) 0.143(3) 0.1578(19) -0.0117(17) 0.002(2) -0.0117(17)
I3 0.1512(13) 0.1512(13) 0.1512(13) 0.0017(13) -0.0017(13) 0.0017(13)
N3 0.22(2) 0.094(15) 0.22(2) -0.015(9) -0.12(3) -0.015(9)
C4 0.37(4) 0.18(2) 0.098(14) -0.017(15) -0.002(18) -0.14(3)
C5 0.172(18) 0.103(19) 0.172(18) -0.071(17) 0.07(2) -0.071(17)
C6 0.126(15) 0.22(2) 0.132(18) 0.015(16) 0.065(13) -0.021(15)
N4 0.168(16) 0.103(16) 0.168(16) -0.003(8) -0.07(2) -0.003(8)
Cu4 0.165(2) 0.130(3) 0.165(2) -0.0064(17) 0.021(3) -0.0064(17)
I4 0.1493(13) 0.1398(12) 0.1446(12) 0.0047(8) 0.0278(9) -0.0018(8)
I5 0.1486(11) 0.1650(19) 0.1486(11) 0.0040(10) 0.0174(13) 0.0040(10)
Cu5 0.137(2) 0.160(2) 0.172(2) -0.0102(18) 0.0352(17) 0.0151(17)
Cu6 0.1502(19) 0.146(3) 0.1502(19) 0.0082(16) 0.007(2) 0.0082(16)
I6 0.1670(12) 0.1242(15) 0.1670(12) -0.0004(9) 0.0157(14) -0.0004(9)
N5 0.100(12) 0.172(16) 0.157(16) -0.032(13) 0.043(10) 0.032(12)
N6 0.152(12) 0.111(16) 0.152(12) 0.002(10) -0.005(16) 0.002(10)
C7 0.18(2) 0.19(2) 0.19(2) 0.059(19) 0.039(16) 0.089(18)
C8 0.092(14) 0.172(19) 0.18(2) -0.034(16) -0.020(13) 0.016(16)
C9 0.14(2) 0.154(18) 0.17(2) -0.027(16) -0.001(16) 0.002(14)
C10 0.175(18) 0.156(17) 0.127(15) 0.001(11) 0.012(13) -0.028(13)
C11 0.129(13) 0.17(3) 0.129(13) 0.005(12) -0.006(15) 0.005(12)
Cu1G 0.16 0.16 0.16 -0.013 0.013 0.013
Cu1J 0.16 0.16 0.16 -0.013 -0.013 -0.013
I1Z 0.1633 0.1633 0.1633 -0.008 0.008 0.008
I1WA 0.1633 0.1633 0.1633 -0.008 -0.008 -0.008
N1G 0.144 0.144 0.144 -0.041 0.041 0.041
I1WB 0.1633 0.1633 0.1633 0.008 -0.008 0.008
Cu1BA 0.16 0.16 0.16 0.013 0.013 -0.013
C2IA 0.125 0.23 0.125 0.055 -0.028 0.055
C2AB 0.23 0.125 0.125 0.028 -0.055 0.055
C2G 0.23 0.125 0.125 -0.028 0.055 0.055
C2WA 0.125 0.125 0.23 -0.055 0.055 0.028
C2BC 0.125 0.23 0.125 -0.055 0.028 0.055
N2G 0.119 0.119 0.119 -0.004 0.004 0.004
Cu2G 0.153 0.153 0.153 -0.004 0.004 0.004
I2IA 0.1537 0.1537 0.1398 -0.0082 0.0082 -0.0068
I2AB 0.1537 0.1398 0.1537 -0.0082 0.0068 -0.0082
I2G 0.1537 0.1398 0.1537 0.0082 -0.0068 -0.0082
I2WA 0.1398 0.1537 0.1537 0.0068 -0.0082 -0.0082
I2BC 0.1537 0.1537 0.1398 0.0082 -0.0082 -0.0068
Cu3AB 0.1578 0.1578 0.143 -0.0117 0.0117 -0.002
Cu3IA 0.143 0.1578 0.1578 -0.002 0.0117 -0.0117
Cu3G 0.1578 0.1578 0.143 0.0117 -0.0117 -0.002
Cu3BC 0.143 0.1578 0.1578 0.002 -0.0117 -0.0117
Cu3WA 0.1578 0.143 0.1578 0.0117 -0.002 -0.0117
N3AB 0.22 0.22 0.094 -0.015 0.015 0.12
N3IA 0.094 0.22 0.22 0.12 0.015 -0.015
I3G 0.1512 0.1512 0.1512 -0.0017 0.0017 0.0017
N3G 0.22 0.22 0.094 0.015 -0.015 0.12
C4OD 0.098 0.18 0.37 -0.14 -0.002 -0.017
C4AB 0.098 0.37 0.18 -0.14 0.017 0.002
C4CG 0.37 0.098 0.18 -0.017 0.14 0.002
C4IA 0.18 0.098 0.37 0.002 0.14 -0.017
C4ZE 0.18 0.37 0.098 0.002 0.017 -0.14
C4G 0.098 0.37 0.18 0.14 -0.017 0.002
C4GF 0.37 0.098 0.18 0.017 -0.14 0.002
C6OD 0.132 0.22 0.126 -0.021 0.065 0.015
C5AB 0.172 0.172 0.103 -0.071 0.071 -0.07
C6AB 0.132 0.126 0.22 -0.021 -0.015 -0.065
C6CG 0.126 0.132 0.22 0.015 0.021 -0.065
C5IA 0.103 0.172 0.172 -0.07 0.071 -0.071
C6IA 0.22 0.132 0.126 -0.065 0.021 0.015
C6ZE 0.22 0.126 0.132 -0.065 -0.015 -0.021
C5G 0.172 0.172 0.103 0.071 -0.071 -0.07
C6G 0.132 0.126 0.22 0.021 0.015 -0.065
C6GF 0.126 0.132 0.22 -0.015 -0.021 -0.065
N4AB 0.168 0.168 0.103 -0.003 0.003 0.07
N4IA 0.103 0.168 0.168 0.07 0.003 -0.003
N4G 0.168 0.168 0.103 0.003 -0.003 0.07
Cu4AB 0.165 0.165 0.13 -0.0064 0.0064 -0.021
Cu4IA 0.13 0.165 0.165 -0.021 0.0064 -0.0064
Cu4G 0.165 0.165 0.13 0.0064 -0.0064 -0.021
I4OD 0.1446 0.1398 0.1493 -0.0018 0.0278 0.0047
I4AB 0.1446 0.1493 0.1398 -0.0018 -0.0047 -0.0278
I5AB 0.1486 0.1486 0.165 0.004 -0.004 -0.0174
I4CG 0.1493 0.1446 0.1398 0.0047 0.0018 -0.0278
I4IA 0.1398 0.1446 0.1493 -0.0278 0.0018 0.0047
I5IA 0.165 0.1486 0.1486 -0.0174 -0.004 0.004
I4ZE 0.1398 0.1493 0.1446 -0.0278 -0.0047 -0.0018
I4G 0.1446 0.1493 0.1398 0.0018 0.0047 -0.0278
I5G 0.1486 0.1486 0.165 -0.004 0.004 -0.0174
I4GF 0.1493 0.1446 0.1398 -0.0047 -0.0018 -0.0278
Cu5OD 0.172 0.16 0.137 0.0151 0.0352 -0.0102
Cu5AB 0.172 0.137 0.16 0.0151 0.0102 -0.0352
Cu6AB 0.1502 0.1502 0.146 0.0082 -0.0082 -0.007
Cu5CG 0.137 0.172 0.16 -0.0102 -0.0151 -0.0352
Cu5IA 0.16 0.172 0.137 -0.0352 -0.0151 -0.0102
Cu6IA 0.146 0.1502 0.1502 -0.007 -0.0082 0.0082
Cu5ZE 0.16 0.137 0.172 -0.0352 0.0102 0.0151
Cu5G 0.172 0.137 0.16 -0.0151 -0.0102 -0.0352
Cu6G 0.1502 0.1502 0.146 -0.0082 0.0082 -0.007
Cu5GF 0.137 0.172 0.16 0.0102 0.0151 -0.0352
N5OD 0.157 0.172 0.1 0.032 0.043 -0.032
I6AB 0.167 0.167 0.1242 -0.0004 0.0004 -0.0157
N5AB 0.157 0.1 0.172 0.032 0.032 -0.043
N6AB 0.152 0.152 0.111 0.002 -0.002 0.005
I6IA 0.1242 0.167 0.167 -0.0157 0.0004 -0.0004
N5IA 0.172 0.157 0.1 -0.043 -0.032 -0.032
N6IA 0.111 0.152 0.152 0.005 -0.002 0.002
N5ZE 0.172 0.1 0.157 -0.043 0.032 0.032
I6G 0.167 0.167 0.1242 0.0004 -0.0004 -0.0157
N5G 0.157 0.1 0.172 -0.032 -0.032 -0.043
N6G 0.152 0.152 0.111 -0.002 0.002 0.005
N5GF 0.1 0.157 0.172 0.032 0.032 -0.043
C10OD 0.127 0.156 0.175 -0.028 0.012 0.001
C7OD 0.19 0.19 0.18 0.089 0.039 0.059
C8OD 0.18 0.172 0.092 0.016 -0.02 -0.034
C9OD 0.17 0.154 0.14 0.002 -0.001 -0.027
C10AB 0.127 0.175 0.156 -0.028 -0.001 -0.012
C11AB 0.129 0.129 0.17 0.005 -0.005 0.006
C10CG 0.175 0.127 0.156 0.001 0.028 -0.012
C7G 0.19 0.18 0.19 -0.089 0.059 -0.039
C8G 0.18 0.092 0.172 -0.016 -0.034 0.02
C9G 0.17 0.14 0.154 -0.002 -0.027 0.001
C10G 0.127 0.175 0.156 0.028 0.001 -0.012
C11G 0.129 0.129 0.17 -0.005 0.005 0.006
C10GF 0.175 0.127 0.156 -0.001 -0.028 -0.012
C7R 0.18 0.19 0.19 0.059 0.089 0.039
C9R 0.14 0.17 0.154 -0.027 0.002 -0.001
C8R 0.092 0.18 0.172 -0.034 0.016 -0.02
C10GG 0.127 0.156 0.175 0.028 0.012 -0.001
C11Z 0.129 0.17 0.129 -0.005 -0.006 -0.005
C10Z 0.175 0.156 0.127 -0.001 0.012 0.028
C7ZC 0.19 0.19 0.18 0.039 0.089 0.059
C9ZC 0.154 0.17 0.14 -0.001 0.002 -0.027
C8ZC 0.172 0.18 0.092 -0.02 0.016 -0.034
C7N 0.19 0.18 0.19 -0.039 0.059 -0.089
C9N 0.154 0.14 0.17 0.001 -0.027 -0.002
C8N 0.172 0.092 0.18 0.02 -0.034 -0.016
N5R 0.1 0.157 0.172 -0.032 0.032 0.043
N6Z 0.152 0.111 0.152 -0.002 -0.005 -0.002
N5ZC 0.172 0.157 0.1 0.043 0.032 -0.032
N5N 0.172 0.1 0.157 -0.043 -0.032 -0.032
Cu5R 0.137 0.172 0.16 -0.0102 0.0151 0.0352
Cu6Z 0.1502 0.146 0.1502 -0.0082 0.007 -0.0082
Cu5ZC 0.16 0.172 0.137 0.0352 0.0151 -0.0102
Cu5N 0.16 0.137 0.172 -0.0352 -0.0102 -0.0151
I4R 0.1493 0.1446 0.1398 0.0047 -0.0018 0.0278
I6R 0.167 0.167 0.1242 -0.0004 -0.0004 0.0157
I5R 0.1486 0.1486 0.165 0.004 0.004 0.0174
I4Z 0.1493 0.1398 0.1446 -0.0047 0.0278 0.0018
I6Z 0.167 0.1242 0.167 0.0004 0.0157 0.0004
I4GG 0.1446 0.1398 0.1493 0.0018 0.0278 -0.0047
Cu6R 0.1502 0.1502 0.146 0.0082 0.0082 0.007
Cu4R 0.165 0.165 0.13 -0.0064 -0.0064 0.021
Cu5Z 0.137 0.16 0.172 0.0102 0.0352 -0.0151
Cu4Z 0.165 0.13 0.165 0.0064 0.021 0.0064
Cu5GG 0.172 0.16 0.137 -0.0151 0.0352 0.0102
I5Z 0.1486 0.165 0.1486 -0.004 0.0174 -0.004
N5Z 0.1 0.172 0.157 0.032 0.043 -0.032
N4Z 0.168 0.103 0.168 0.003 -0.07 0.003
N5GG 0.157 0.172 0.1 -0.032 0.043 0.032
C7Z 0.18 0.19 0.19 -0.059 0.039 -0.089
C8Z 0.092 0.172 0.18 0.034 -0.02 -0.016
C9Z 0.14 0.154 0.17 0.027 -0.001 -0.002
C5Z 0.172 0.103 0.172 0.071 0.07 0.071
C6Z 0.126 0.22 0.132 -0.015 0.065 0.021
C6GG 0.132 0.22 0.126 0.021 0.065 -0.015
C7QA 0.18 0.19 0.19 -0.059 0.089 -0.039
C9QA 0.14 0.17 0.154 0.027 0.002 0.001
C8QA 0.092 0.18 0.172 0.034 0.016 0.02
C4Z 0.37 0.18 0.098 0.017 -0.002 0.14
C4GG 0.098 0.18 0.37 0.14 -0.002 0.017
N5QA 0.1 0.157 0.172 0.032 0.032 -0.043
N3Z 0.22 0.094 0.22 0.015 -0.12 0.015
Cu5QA 0.137 0.172 0.16 0.0102 0.0151 -0.0352
Cu3Z 0.1578 0.143 0.1578 0.0117 0.002 0.0117
I2J 0.1537 0.1537 0.1398 0.0082 0.0082 0.0068
I2Z 0.1398 0.1537 0.1537 0.0068 0.0082 0.0082
I3J 0.1512 0.1512 0.1512 -0.0017 -0.0017 -0.0017
Cu3J 0.143 0.1578 0.1578 0.002 0.0117 0.0117
Cu2J 0.153 0.153 0.153 -0.004 -0.004 -0.004
Cu3ZB 0.1578 0.1578 0.143 0.0117 0.0117 0.002
N3J 0.094 0.22 0.22 -0.12 0.015 0.015
I2ZB 0.1537 0.1398 0.1537 0.0082 0.0068 0.0082
C4J 0.18 0.098 0.37 -0.002 0.14 0.017
C4EE 0.18 0.37 0.098 -0.002 0.017 0.14
C5J 0.103 0.172 0.172 0.07 0.071 0.071
C6J 0.22 0.132 0.126 0.065 0.021 -0.015
C6EE 0.22 0.126 0.132 0.065 -0.015 0.021
N4J 0.103 0.168 0.168 -0.07 0.003 0.003
Cu4J 0.13 0.165 0.165 0.021 0.0064 0.0064
I4J 0.1398 0.1446 0.1493 0.0278 0.0018 -0.0047
I5J 0.165 0.1486 0.1486 0.0174 -0.004 -0.004
I4EE 0.1398 0.1493 0.1446 0.0278 -0.0047 0.0018
Cu5J 0.16 0.172 0.137 0.0352 -0.0151 0.0102
Cu6J 0.146 0.1502 0.1502 0.007 -0.0082 -0.0082
Cu5EE 0.16 0.137 0.172 0.0352 0.0102 -0.0151
I6J 0.1242 0.167 0.167 0.0157 0.0004 0.0004
N5J 0.172 0.157 0.1 0.043 -0.032 0.032
N6J 0.111 0.152 0.152 -0.005 -0.002 -0.002
N5EE 0.172 0.1 0.157 0.043 0.032 -0.032
C7J 0.19 0.19 0.18 0.039 -0.089 -0.059
C8J 0.172 0.18 0.092 -0.02 -0.016 0.034
C9J 0.154 0.17 0.14 -0.001 -0.002 0.027
C10J 0.156 0.127 0.175 0.012 0.028 -0.001
C11J 0.17 0.129 0.129 -0.006 -0.005 -0.005
C10EE 0.156 0.175 0.127 0.012 -0.001 0.028
C7V 0.19 0.19 0.18 0.089 -0.039 -0.059
C9V 0.17 0.154 0.14 0.002 0.001 0.027
C8V 0.18 0.172 0.092 0.016 0.02 0.034
C10YF 0.156 0.175 0.127 0.012 0.001 -0.028
C11BC 0.17 0.129 0.129 -0.006 0.005 0.005
C10BC 0.156 0.127 0.175 0.012 -0.028 0.001
N5V 0.157 0.172 0.1 0.032 -0.043 0.032
N6BC 0.111 0.152 0.152 -0.005 0.002 0.002
Cu5V 0.172 0.16 0.137 0.0151 -0.0352 0.0102
Cu6BC 0.146 0.1502 0.1502 0.007 0.0082 0.0082
loop_
_geom_bond_atom_site_label_1
_geom_bond_atom_site_label_2
_geom_bond_site_symmetry_1
_geom_bond_site_symmetry_2
I1 Cu1 1_555 1_555
Cu1 N1 1_555 1_555
N1 C1 1_555 1_555
C1 H1 1_555 1_555
C2 C1 1_555 1_555
N2 C2 1_555 1_555
H2 C2 1_555 1_555
Cu2 N2 1_555 1_555
I2 Cu2 1_555 1_555
Cu3 I2 1_555 1_555
I3 Cu3 1_555 1_555
N3 Cu3 1_555 1_555
C3 N3 1_555 1_555
C4 N3 1_555 1_555
H3 C3 1_555 1_555
C5 C3 1_555 1_555
C6 C4 1_555 1_555
H4 C4 1_555 1_555
H5 C4 1_555 1_555
N4 C5 1_555 1_555
H6 C5 1_555 1_555
H7 C6 1_555 1_555
H8 C6 1_555 1_555
Cu4 N4 1_555 1_555
I4 Cu4 1_555 1_555
I5 Cu4 1_555 1_555
Cu5 I4 1_555 1_555
Cu6 I4 1_555 1_555
I6 Cu5 1_555 1_555
N5 Cu5 1_555 1_555
N6 Cu6 1_555 1_555
C7 N5 1_555 1_555
C8 N5 1_555 1_555
C9 N5 1_555 1_555
C10 N6 1_555 1_555
C11 N6 1_555 1_555
H9 C7 1_555 1_555
H10 C7 1_555 1_555
H11 C8 1_555 1_555
H12 C8 1_555 1_555
H13 C9 1_555 1_555
H14 C9 1_555 1_555
H15 C10 1_555 1_555
H16 C10 1_555 1_555
H17 C11 1_555 1_555
Cu1G I1 1_555 1_555
Cu1J I1 1_555 1_555
I1Z Cu1 1_555 1_555
I1WA Cu1 1_555 1_555
N1G Cu1G 1_555 1_555
I1WB Cu1G 1_555 1_555
C1IA N1 1_555 1_555
C1AB N1 1_555 1_555
Cu1BA I1Z 1_555 1_555
C1G N1G 1_555 1_555
C1WA N1G 1_555 1_555
C1BC N1G 1_555 1_555
H1ZE C1 1_555 1_555
H1IA C1IA 1_555 1_555
C2IA N2 1_555 1_555
H1CG C1IA 1_555 1_555
H1AB C1AB 1_555 1_555
C2AB N2 1_555 1_555
H1OD C1AB 1_555 1_555
H1G C1G 1_555 1_555
C2G C1G 1_555 1_555
H1JE C1G 1_555 1_555
H1WA C1WA 1_555 1_555
C2WA C1WA 1_555 1_555
H1YF C1WA 1_555 1_555
H1BC C1BC 1_555 1_555
C2BC C1BC 1_555 1_555
H1GF C1BC 1_555 1_555
H2ZE C2 1_555 1_555
H2IA C2IA 1_555 1_555
H2CG C2IA 1_555 1_555
H2AB C2AB 1_555 1_555
H2OD C2AB 1_555 1_555
N2G C2G 1_555 1_555
H2G C2G 1_555 1_555
H2JE C2G 1_555 1_555
H2WA C2WA 1_555 1_555
H2YF C2WA 1_555 1_555
H2BC C2BC 1_555 1_555
H2GF C2BC 1_555 1_555
Cu2G N2G 1_555 1_555
I2IA Cu2 1_555 1_555
I2AB Cu2 1_555 1_555
I2G Cu2G 1_555 1_555
I2WA Cu2G 1_555 1_555
I2BC Cu2G 1_555 1_555
Cu3AB I2 1_555 1_555
Cu3IA I3 1_555 1_555
Cu3G I2G 1_555 1_555
Cu3BC I2G 1_555 1_555
Cu3WA I2WA 1_555 1_555
N3AB Cu3AB 1_555 1_555
N3IA Cu3IA 1_555 1_555
I3G Cu3G 1_555 1_555
N3G Cu3G 1_555 1_555
C4OD N3 1_555 1_555
C3AB N3AB 1_555 1_555
C4AB N3AB 1_555 1_555
C4CG N3AB 1_555 1_555
C3IA N3IA 1_555 1_555
C4IA N3IA 1_555 1_555
C4ZE N3IA 1_555 1_555
C3G N3G 1_555 1_555
C4G N3G 1_555 1_555
C4GF N3G 1_555 1_555
H3OD C3 1_555 1_555
C6OD N4 1_555 1_555
H4OD C4OD 1_555 1_555
H5OD C4OD 1_555 1_555
H3AB C3AB 1_555 1_555
C5AB C3AB 1_555 1_555
H3CG C3AB 1_555 1_555
C6AB C4AB 1_555 1_555
H4AB C4AB 1_555 1_555
H5AB C4AB 1_555 1_555
C6CG C4CG 1_555 1_555
H4CG C4CG 1_555 1_555
H5CG C4CG 1_555 1_555
H3IA C3IA 1_555 1_555
C5IA C3IA 1_555 1_555
H3ZE C3IA 1_555 1_555
C6IA C4IA 1_555 1_555
H4IA C4IA 1_555 1_555
H5IA C4IA 1_555 1_555
C6ZE C4ZE 1_555 1_555
H4ZE C4ZE 1_555 1_555
H5ZE C4ZE 1_555 1_555
H3G C3G 1_555 1_555
C5G C3G 1_555 1_555
H3GF C3G 1_555 1_555
C6G C4G 1_555 1_555
H4G C4G 1_555 1_555
H5G C4G 1_555 1_555
C6GF C4GF 1_555 1_555
H4GF C4GF 1_555 1_555
H5GF C4GF 1_555 1_555
H6OD C5 1_555 1_555
H7OD C6OD 1_555 1_555
H8OD C6OD 1_555 1_555
N4AB C5AB 1_555 1_555
H6AB C5AB 1_555 1_555
H6CG C5AB 1_555 1_555
H7AB C6AB 1_555 1_555
H8AB C6AB 1_555 1_555
H7CG C6CG 1_555 1_555
H8CG C6CG 1_555 1_555
N4IA C5IA 1_555 1_555
H6IA C5IA 1_555 1_555
H6ZE C5IA 1_555 1_555
H7IA C6IA 1_555 1_555
H8IA C6IA 1_555 1_555
H7ZE C6ZE 1_555 1_555
H8ZE C6ZE 1_555 1_555
N4G C5G 1_555 1_555
H6G C5G 1_555 1_555
H6GF C5G 1_555 1_555
H7G C6G 1_555 1_555
H8G C6G 1_555 1_555
H7GF C6GF 1_555 1_555
H8GF C6GF 1_555 1_555
Cu4AB N4AB 1_555 1_555
Cu4IA N4IA 1_555 1_555
Cu4G N4G 1_555 1_555
I4OD Cu4 1_555 1_555
I4AB Cu4AB 1_555 1_555
I5AB Cu4AB 1_555 1_555
I4CG Cu4AB 1_555 1_555
I4IA Cu4IA 1_555 1_555
I5IA Cu4IA 1_555 1_555
I4ZE Cu4IA 1_555 1_555
I4G Cu4G 1_555 1_555
I5G Cu4G 1_555 1_555
I4GF Cu4G 1_555 1_555
Cu5OD I5 1_555 1_555
Cu5AB I4AB 1_555 1_555
Cu6AB I4AB 1_555 1_555
Cu5CG I5AB 1_555 1_555
Cu5IA I4IA 1_555 1_555
Cu6IA I4IA 1_555 1_555
Cu5ZE I5IA 1_555 1_555
Cu5G I4G 1_555 1_555
Cu6G I4G 1_555 1_555
Cu5GF I5G 1_555 1_555
N5OD Cu5OD 1_555 1_555
I6AB Cu5AB 1_555 1_555
N5AB Cu5AB 1_555 1_555
N6AB Cu6AB 1_555 1_555
I6IA Cu5IA 1_555 1_555
N5IA Cu5IA 1_555 1_555
N6IA Cu6IA 1_555 1_555
N5ZE Cu5ZE 1_555 1_555
I6G Cu5G 1_555 1_555
N5G Cu5G 1_555 1_555
N6G Cu6G 1_555 1_555
N5GF Cu5GF 1_555 1_555
C10OD N6 1_555 1_555
C7OD N5OD 1_555 1_555
C8OD N5OD 1_555 1_555
C9OD N5OD 1_555 1_555
C10AB N6AB 1_555 1_555
C11AB N6AB 1_555 1_555
C10CG N6AB 1_555 1_555
C7G N5G 1_555 1_555
C8G N5G 1_555 1_555
C9G N5G 1_555 1_555
C10G N6G 1_555 1_555
C11G N6G 1_555 1_555
C10GF N6G 1_555 1_555
C7R C7 1_555 1_555
C9R C8 1_555 1_555
C8R C9 1_555 1_555
C10GG C10 1_555 1_555
C11Z C11 1_555 1_555
H17OD C11 1_555 1_555
C10Z C10OD 1_555 1_555
H15OD C10OD 1_555 1_555
H16OD C10OD 1_555 1_555
H9OD C7OD 1_555 1_555
H10OD C7OD 1_555 1_555
C7ZC C7OD 1_555 1_555
H11OD C8OD 1_555 1_555
H12OD C8OD 1_555 1_555
C9ZC C8OD 1_555 1_555
H13OD C9OD 1_555 1_555
H14OD C9OD 1_555 1_555
C8ZC C9OD 1_555 1_555
H15AB C10AB 1_555 1_555
H16AB C10AB 1_555 1_555
H17AB C11AB 1_555 1_555
H17CG C11AB 1_555 1_555
H15CG C10CG 1_555 1_555
H16CG C10CG 1_555 1_555
H9G C7G 1_555 1_555
H10G C7G 1_555 1_555
C7N C7G 1_555 1_555
H11G C8G 1_555 1_555
H12G C8G 1_555 1_555
C9N C8G 1_555 1_555
H13G C9G 1_555 1_555
H14G C9G 1_555 1_555
C8N C9G 1_555 1_555
H15G C10G 1_555 1_555
H16G C10G 1_555 1_555
H17G C11G 1_555 1_555
H17GF C11G 1_555 1_555
H15GF C10GF 1_555 1_555
H16GF C10GF 1_555 1_555
N5R C7R 1_555 1_555
H9R C7R 1_555 1_555
H10R C7R 1_555 1_555
H13R C9R 1_555 1_555
H14R C9R 1_555 1_555
H11R C8R 1_555 1_555
H12R C8R 1_555 1_555
N6Z C10GG 1_555 1_555
H15GG C10GG 1_555 1_555
H16GG C10GG 1_555 1_555
H17Z C11Z 1_555 1_555
H17GG C11Z 1_555 1_555
H15Z C10Z 1_555 1_555
H16Z C10Z 1_555 1_555
N5ZC C7ZC 1_555 1_555
H9ZC C7ZC 1_555 1_555
H10ZC C7ZC 1_555 1_555
H13ZC C9ZC 1_555 1_555
H14ZC C9ZC 1_555 1_555
H11ZC C8ZC 1_555 1_555
H12ZC C8ZC 1_555 1_555
N5N C7N 1_555 1_555
H9N C7N 1_555 1_555
H10N C7N 1_555 1_555
H13N C9N 1_555 1_555
H14N C9N 1_555 1_555
H11N C8N 1_555 1_555
H12N C8N 1_555 1_555
Cu5R N5R 1_555 1_555
Cu6Z N6Z 1_555 1_555
Cu5ZC N5ZC 1_555 1_555
Cu5N N5N 1_555 1_555
I4R Cu5R 1_555 1_555
I6R Cu5R 1_555 1_555
I5R Cu5R 1_555 1_555
I4Z Cu6Z 1_555 1_555
I6Z Cu6Z 1_555 1_555
I4GG Cu6Z 1_555 1_555
Cu6R I4R 1_555 1_555
Cu4R I4R 1_555 1_555
Cu5Z I4Z 1_555 1_555
Cu4Z I4Z 1_555 1_555
Cu5GG I6Z 1_555 1_555
I5Z Cu5Z 1_555 1_555
N5Z Cu5Z 1_555 1_555
N4Z Cu4Z 1_555 1_555
N5GG Cu5GG 1_555 1_555
C7Z N5Z 1_555 1_555
C8Z N5Z 1_555 1_555
C9Z N5Z 1_555 1_555
C5Z N4Z 1_555 1_555
C6Z N4Z 1_555 1_555
C6GG N4Z 1_555 1_555
H9Z C7Z 1_555 1_555
H10Z C7Z 1_555 1_555
C7QA C7Z 1_555 1_555
H11Z C8Z 1_555 1_555
H12Z C8Z 1_555 1_555
C9QA C8Z 1_555 1_555
H13Z C9Z 1_555 1_555
H14Z C9Z 1_555 1_555
C8QA C9Z 1_555 1_555
C3Z C5Z 1_555 1_555
H6Z C5Z 1_555 1_555
H6GG C5Z 1_555 1_555
H7Z C6Z 1_555 1_555
H8Z C6Z 1_555 1_555
C4Z C6Z 1_555 1_555
H7GG C6GG 1_555 1_555
H8GG C6GG 1_555 1_555
C4GG C6GG 1_555 1_555
N5QA C7QA 1_555 1_555
H9QA C7QA 1_555 1_555
H10QA C7QA 1_555 1_555
H13QA C9QA 1_555 1_555
H14QA C9QA 1_555 1_555
H11QA C8QA 1_555 1_555
H12QA C8QA 1_555 1_555
N3Z C3Z 1_555 1_555
H3Z C3Z 1_555 1_555
H3GG C3Z 1_555 1_555
H4Z C4Z 1_555 1_555
H5Z C4Z 1_555 1_555
H4GG C4GG 1_555 1_555
H5GG C4GG 1_555 1_555
Cu5QA N5QA 1_555 1_555
Cu3Z N3Z 1_555 1_555
I2J Cu3Z 1_555 1_555
I2Z Cu3Z 1_555 1_555
I3J Cu3Z 1_555 1_555
Cu3J I2J 1_555 1_555
Cu2J I2J 1_555 1_555
Cu3ZB I2Z 1_555 1_555
N3J Cu3J 1_555 1_555
I2ZB Cu3J 1_555 1_555
C3J N3J 1_555 1_555
C4J N3J 1_555 1_555
C4EE N3J 1_555 1_555
H3J C3J 1_555 1_555
C5J C3J 1_555 1_555
H3EE C3J 1_555 1_555
C6J C4J 1_555 1_555
H4J C4J 1_555 1_555
H5J C4J 1_555 1_555
C6EE C4EE 1_555 1_555
H4EE C4EE 1_555 1_555
H5EE C4EE 1_555 1_555
N4J C5J 1_555 1_555
H6J C5J 1_555 1_555
H6EE C5J 1_555 1_555
H7J C6J 1_555 1_555
H8J C6J 1_555 1_555
H7EE C6EE 1_555 1_555
H8EE C6EE 1_555 1_555
Cu4J N4J 1_555 1_555
I4J Cu4J 1_555 1_555
I5J Cu4J 1_555 1_555
I4EE Cu4J 1_555 1_555
Cu5J I4J 1_555 1_555
Cu6J I4J 1_555 1_555
Cu5EE I5J 1_555 1_555
I6J Cu5J 1_555 1_555
N5J Cu5J 1_555 1_555
N6J Cu6J 1_555 1_555
N5EE Cu5EE 1_555 1_555
C7J N5J 1_555 1_555
C8J N5J 1_555 1_555
C9J N5J 1_555 1_555
C10J N6J 1_555 1_555
C11J N6J 1_555 1_555
C10EE N6J 1_555 1_555
H9J C7J 1_555 1_555
H10J C7J 1_555 1_555
C7V C7J 1_555 1_555
H11J C8J 1_555 1_555
H12J C8J 1_555 1_555
C9V C8J 1_555 1_555
H13J C9J 1_555 1_555
H14J C9J 1_555 1_555
C8V C9J 1_555 1_555
H15J C10J 1_555 1_555
H16J C10J 1_555 1_555
C10YF C10J 1_555 1_555
H17J C11J 1_555 1_555
C11BC C11J 1_555 1_555
H17EE C11J 1_555 1_555
C10BC C10EE 1_555 1_555
H15EE C10EE 1_555 1_555
H16EE C10EE 1_555 1_555
N5V C7V 1_555 1_555
H9V C7V 1_555 1_555
H10V C7V 1_555 1_555
H13V C9V 1_555 1_555
H14V C9V 1_555 1_555
H11V C8V 1_555 1_555
H12V C8V 1_555 1_555
N6BC C10YF 1_555 1_555
H15YF C10YF 1_555 1_555
H16YF C10YF 1_555 1_555
H17BC C11BC 1_555 1_555
H17YF C11BC 1_555 1_555
H15BC C10BC 1_555 1_555
H16BC C10BC 1_555 1_555
Cu5V N5V 1_555 1_555
Cu6BC N6BC 1_555 1_555
Cu3 I2IA 1_555 1_555
I3 Cu3AB 1_555 1_555
C6 N4 1_555 1_555
I5 Cu5 1_555 1_555
Cu6 I6 1_555 1_555
Cu6 I4OD 1_555 1_555
I6 Cu5OD 1_555 1_555
Cu1G I1WA 1_555 1_555
Cu1J I1Z 1_555 1_555
Cu1J I1WB 1_555 1_555
I1WA Cu1BA 1_555 1_555
I1WB Cu1BA 1_555 1_555
C1IA C2IA 1_555 1_555
C1AB C2AB 1_555 1_555
C2WA N2G 1_555 1_555
C2BC N2G 1_555 1_555
I2IA Cu3IA 1_555 1_555
I2AB Cu3AB 1_555 1_555
I2AB Cu3IA 1_555 1_555
I2WA Cu3G 1_555 1_555
I2BC Cu3BC 1_555 1_555
I2BC Cu3WA 1_555 1_555
Cu3BC I3G 1_555 1_555
Cu3WA I3G 1_555 1_555
C4OD C6OD 1_555 1_555
C6AB N4AB 1_555 1_555
C6CG N4AB 1_555 1_555
C6IA N4IA 1_555 1_555
C6ZE N4IA 1_555 1_555
C6G N4G 1_555 1_555
C6GF N4G 1_555 1_555
I4OD Cu5OD 1_555 1_555
I5AB Cu5AB 1_555 1_555
I4CG Cu6AB 1_555 1_555
I4CG Cu5CG 1_555 1_555
I5IA Cu5IA 1_555 1_555
I4ZE Cu6IA 1_555 1_555
I4ZE Cu5ZE 1_555 1_555
I5G Cu5G 1_555 1_555
I4GF Cu6G 1_555 1_555
I4GF Cu5GF 1_555 1_555
Cu6AB I6AB 1_555 1_555
Cu5CG I6AB 1_555 1_555
Cu6IA I6IA 1_555 1_555
Cu5ZE I6IA 1_555 1_555
Cu6G I6G 1_555 1_555
Cu5GF I6G 1_555 1_555
C10AB C10GF 1_555 1_555
C11AB C11G 1_555 1_555
C10CG C10G 1_555 1_555
C9R N5R 1_555 1_555
C8R N5R 1_555 1_555
C11Z N6Z 1_555 1_555
C10Z N6Z 1_555 1_555
C9ZC N5ZC 1_555 1_555
C8ZC N5ZC 1_555 1_555
C9N N5N 1_555 1_555
C8N N5N 1_555 1_555
I6R Cu6R 1_555 1_555
I5R Cu4R 1_555 1_555
I6Z Cu5Z 1_555 1_555
I4GG Cu4Z 1_555 1_555
I4GG Cu5GG 1_555 1_555
Cu4Z I5Z 1_555 1_555
Cu5GG I5Z 1_555 1_555
C9QA N5QA 1_555 1_555
C8QA N5QA 1_555 1_555
C4Z N3Z 1_555 1_555
C4GG N3Z 1_555 1_555
I2Z Cu2J 1_555 1_555
I3J Cu3J 1_555 1_555
I3J Cu3ZB 1_555 1_555
Cu2J I2ZB 1_555 1_555
Cu3ZB I2ZB 1_555 1_555
C6J N4J 1_555 1_555
C6EE N4J 1_555 1_555
I5J Cu5J 1_555 1_555
I4EE Cu6J 1_555 1_555
I4EE Cu5EE 1_555 1_555
Cu6J I6J 1_555 1_555
Cu5EE I6J 1_555 1_555
C9V N5V 1_555 1_555
C8V N5V 1_555 1_555
C11BC N6BC 1_555 1_555
C10BC N6BC 1_555 1_555

#END
