
#######################################################################
#
#                 Cambridge Crystallographic Data Centre
#                                CCDC 
#
#######################################################################
#
# If this CIF has been generated from an entry in the Cambridge 
# Structural Database, then it will include bibliographic, chemical, 
# crystal, experimental, refinement or atomic coordinate data resulting 
# from the CCDC's data processing and validation procedures.
#
#######################################################################

data_CEYYIQ
_chemical_formula_moiety         '(C32 H35 N2 O33 U5 1-)n'
_symmetry_cell_setting           monoclinic
_symmetry_space_group_name_H-M   'C 2'
_symmetry_Int_Tables_number      5
_space_group_name_Hall           'C 2y'
loop_
_symmetry_equiv_pos_site_id
_symmetry_equiv_pos_as_xyz
1 x,y,z
2 -x,y,-z
3 1/2+x,1/2+y,z
4 1/2-x,1/2+y,-z
_cell_length_a                   20.3378(10)
_cell_length_b                   17.6645(9)
_cell_length_c                   8.3564(3)
_cell_angle_alpha                90
_cell_angle_beta                 96.685(3)
_cell_angle_gamma                90
_cell_volume                     2981.68
loop_
_atom_site_label
_atom_site_type_symbol
_atom_site_fract_x
_atom_site_fract_y
_atom_site_fract_z
U1 U 0.24428(3) 0.18228(6) 0.29323(5)
U2 U 0.17398(12) 0.23192(13) 0.69502(10)
U3 U 0.5000 0.01346(6) 0.5000
O1 O 0.3014(8) 0.2596(8) 0.3073(18)
O2 O 0.1886(5) 0.1060(7) 0.2642(13)
O3 O 0.2423(9) 0.2925(12) 0.7384(18)
O4 O 0.1064(9) 0.1720(11) 0.6598(17)
O5 O 0.5388(3) 0.0166(5) 0.7010(8)
O6 O 0.3367(5) 0.1050(6) 0.3888(11)
O7 O 0.4000(5) 0.0536(7) 0.5939(11)
O8 O 0.2203(6) 0.1421(8) 0.8875(13)
O9 O 0.3021(6) 0.1388(8) 1.0699(12)
O10 O 0.2552(5) 0.1618(6) 0.5722(11)
O11 O 0.1102(5) 0.3446(5) 0.6048(10)
O12 O 0.0523(5) 0.4067(5) 0.4042(10)
O13 O 0.2102(7) 0.2685(9) 0.0929(15)
O14 O 0.1215(9) 0.2853(11) -0.0847(16)
O15 O 0.1672(5) 0.2580(6) 0.4090(10)
O16 O 0.5000 0.1528(10) 0.5000
H1 H 0.4778 0.1812 0.4082
C1 C 0.3482(6) 0.0873(9) 0.5351(16)
C2 C 0.2954(6) 0.1050(7) 0.6451(13)
C3 C 0.3328(7) 0.1283(9) 0.8093(14)
H2 H 0.3625 0.0877 0.8488
H3 H 0.3595 0.1728 0.7946
C4 C 0.2860(6) 0.1455(9) 0.9341(14)
C5 C 0.2554(9) 0.0316(11) 0.659(2)
H4 H 0.2275 0.0371 0.7437
H5 H 0.2853 -0.0100 0.6840
H6 H 0.2286 0.0219 0.5591
C6 C 0.0900(6) 0.3539(7) 0.4571(13)
C7 C 0.1103(5) 0.2970(6) 0.3375(13)
C8 C 0.1275(7) 0.3397(7) 0.1860(15)
H7 H 0.0887 0.3681 0.1419
H8 H 0.1621 0.3760 0.2196
C9 C 0.1494(7) 0.2930(7) 0.0559(15)
C10 C 0.0531(8) 0.2448(10) 0.2917(18)
H9 H 0.0583 0.2210 0.1906
H10 H 0.0126 0.2732 0.2817
H11 H 0.0519 0.2068 0.3733
H1A H 0.5222 0.1812 0.5918
U1A U 0.75572(3) 0.18228(6) 0.70677(5)
U2A U 0.82602(12) 0.23192(13) 0.30498(10)
O1A O 0.6986(8) 0.2596(8) 0.6927(18)
O2A O 0.8114(5) 0.1060(7) 0.7358(13)
O3A O 0.7577(9) 0.2925(12) 0.2616(18)
O4A O 0.8936(9) 0.1720(11) 0.3402(17)
O5A O 0.4612(3) 0.0166(5) 0.2990(8)
O6A O 0.6633(5) 0.1050(6) 0.6112(11)
O7A O 0.6000(5) 0.0536(7) 0.4061(11)
O8A O 0.7797(6) 0.1421(8) 0.1125(13)
O9A O 0.6979(6) 0.1388(8) -0.0699(12)
O10A O 0.7448(5) 0.1618(6) 0.4278(11)
O11A O 0.8898(5) 0.3446(5) 0.3952(10)
O12A O 0.9477(5) 0.4067(5) 0.5958(10)
O13A O 0.7898(7) 0.2685(9) 0.9071(15)
O14A O 0.8785(9) 0.2853(11) 1.0847(16)
O15A O 0.8328(5) 0.2580(6) 0.5910(10)
C1A C 0.6518(6) 0.0873(9) 0.4649(16)
C2A C 0.7046(6) 0.1050(7) 0.3549(13)
C3A C 0.6672(7) 0.1283(9) 0.1907(14)
H2A H 0.6375 0.0877 0.1512
H3A H 0.6405 0.1728 0.2054
C4A C 0.7140(6) 0.1455(9) 0.0659(14)
C5A C 0.7446(9) 0.0316(11) 0.341(2)
H4A H 0.7725 0.0371 0.2563
H5A H 0.7147 -0.0100 0.3160
H6A H 0.7714 0.0219 0.4409
C6A C 0.9100(6) 0.3539(7) 0.5429(13)
C7A C 0.8897(5) 0.2970(6) 0.6625(13)
C8A C 0.8725(7) 0.3397(7) 0.8140(15)
H7A H 0.9113 0.3681 0.8581
H8A H 0.8379 0.3760 0.7804
C9A C 0.8506(7) 0.2930(7) 0.9441(15)
C10A C 0.9469(8) 0.2448(10) 0.7083(18)
H9A H 0.9417 0.2210 0.8094
H10A H 0.9874 0.2732 0.7183
H11A H 0.9481 0.2068 0.6267
U1_2 U 0.24428(3) 0.18228(6) 1.29323(5)
U1A_2 U 0.75572(3) 0.18228(6) -0.29323(5)
U2_2 U 0.17398(12) 0.23192(13) -0.30498(10)
U2A_2 U 0.82602(12) 0.23192(13) 1.30498(10)
U3B U -0.0000 0.51346(6) 0.5000
U3B_2 U 1.0000 0.51346(6) 0.5000
O9_2 O 0.3021(6) 0.1388(8) 0.0699(12)
O9A_2 O 0.6979(6) 0.1388(8) 0.9301(12)
O12B O 0.5523(5) -0.0933(5) 0.4042(10)
O12C O 0.4477(5) -0.0933(5) 0.5958(10)
O14_2 O 0.1215(9) 0.2853(11) 0.9153(16)
O14A_2 O 0.8785(9) 0.2853(11) 0.0847(16)
O21 O 0.5000 0.0806(14) 0.0000
H12 H 0.4850 0.1111 -0.0871
H12A H 0.5150 0.1111 0.0871
O22 O 0.4380(5) 0.1914(5) 0.1920(12)
N1 N 0.0825(6) -0.1555(6) -0.1210(13)
H13 H 0.0675 -0.2045 -0.1576
N2 N -0.0357(5) -0.1686(6) -0.3074(14)
C11 C 0.1401(7) -0.1524(11) -0.0305(19)
H14 H 0.1631 -0.1966 -0.0002
C12 C 0.1660(9) -0.0813(12) 0.019(2)
H15 H 0.2055 -0.0790 0.0875
C13 C 0.1356(10) -0.0175(11) -0.029(2)
H16 H 0.1542 0.0291 0.0020
C14 C 0.0748(10) -0.0220(8) -0.126(2)
C15 C 0.0469(6) -0.0913(7) -0.1768(15)
C16 C -0.0123(6) -0.0993(7) -0.2713(16)
C17 C -0.0449(9) -0.0319(9) -0.3286(19)
C18 C -0.1046(8) -0.0398(10) -0.434(2)
H17 H -0.1267 0.0028 -0.4783
C19 C -0.1293(8) -0.1101(12) -0.4705(19)
H18 H -0.1687 -0.1163 -0.5379
C20 C -0.0932(7) -0.1743(10) -0.402(2)
H19 H -0.1106 -0.2223 -0.4251
C21 C 0.0378(14) 0.0430(11) -0.175(3)
H20 H 0.0528 0.0897 -0.1349
C22 C -0.0177(16) 0.0403(10) -0.276(4)
H21 H -0.0387 0.0848 -0.3127
loop_
_geom_bond_atom_site_label_1
_geom_bond_atom_site_label_2
_geom_bond_site_symmetry_1
_geom_bond_site_symmetry_2
U1 O1 1_555 1_555
U2 O3 1_555 1_555
U3 O5 1_555 1_555
O2 U1 1_555 1_555
O4 U2 1_555 1_555
O6 U1 1_555 1_555
O7 U3 1_555 1_555
O8 U2 1_555 1_555
O9 C4 1_555 1_555
O10 U1 1_555 1_555
O11 U2 1_555 1_555
O12 C6 1_555 1_555
O13 U1 1_555 1_555
O14 C9 1_555 1_555
O15 U1 1_555 1_555
O16 U3 1_555 1_555
H1 O16 1_555 1_555
C1 O6 1_555 1_555
C2 O10 1_555 1_555
C3 C2 1_555 1_555
H2 C3 1_555 1_555
H3 C3 1_555 1_555
C4 O8 1_555 1_555
C5 C2 1_555 1_555
H4 C5 1_555 1_555
H5 C5 1_555 1_555
H6 C5 1_555 1_555
C6 O11 1_555 1_555
C7 O15 1_555 1_555
C8 C7 1_555 1_555
H7 C8 1_555 1_555
H8 C8 1_555 1_555
C9 O13 1_555 1_555
C10 C7 1_555 1_555
H9 C10 1_555 1_555
H10 C10 1_555 1_555
H11 C10 1_555 1_555
O21 H12 1_555 1_555
N1 H13 1_555 1_555
N2 C16 1_555 1_555
C11 N1 1_555 1_555
H14 C11 1_555 1_555
C12 C11 1_555 1_555
H15 C12 1_555 1_555
C13 C12 1_555 1_555
H16 C13 1_555 1_555
C14 C13 1_555 1_555
C15 N1 1_555 1_555
C16 C15 1_555 1_555
C17 C16 1_555 1_555
C18 C17 1_555 1_555
H17 C18 1_555 1_555
C19 C18 1_555 1_555
H18 C19 1_555 1_555
C20 N2 1_555 1_555
H19 C20 1_555 1_555
C21 C14 1_555 1_555
H20 C21 1_555 1_555
C22 C17 1_555 1_555
H21 C22 1_555 1_555
H1A O16 1_555 1_555
U1A O1A 1_555 1_555
U2A O3A 1_555 1_555
O2A U1A 1_555 1_555
O4A U2A 1_555 1_555
O5A U3 1_555 1_555
O6A U1A 1_555 1_555
O7A U3 1_555 1_555
O8A U2A 1_555 1_555
O9A C4A 1_555 1_555
O10A U1A 1_555 1_555
O11A U2A 1_555 1_555
O12A C6A 1_555 1_555
O13A U1A 1_555 1_555
O14A C9A 1_555 1_555
O15A U1A 1_555 1_555
C1A O6A 1_555 1_555
C2A O10A 1_555 1_555
C3A C2A 1_555 1_555
H2A C3A 1_555 1_555
H3A C3A 1_555 1_555
C4A O8A 1_555 1_555
C5A C2A 1_555 1_555
H4A C5A 1_555 1_555
H5A C5A 1_555 1_555
H6A C5A 1_555 1_555
C6A O11A 1_555 1_555
C7A O15A 1_555 1_555
C8A C7A 1_555 1_555
H7A C8A 1_555 1_555
H8A C8A 1_555 1_555
C9A O13A 1_555 1_555
C10A C7A 1_555 1_555
H9A C10A 1_555 1_555
H10A C10A 1_555 1_555
H11A C10A 1_555 1_555
U1_2 O9 1_555 1_555
U1A_2 O9A 1_555 1_555
U2_2 O14 1_555 1_555
U2A_2 O14A 1_555 1_555
U3B O12 1_555 1_555
U3B_2 O12A 1_555 1_555
O9_2 U1 1_555 1_555
O9A_2 U1A 1_555 1_555
O12B U3 1_555 1_555
O12C U3 1_555 1_555
O14_2 U2 1_555 1_555
O14A_2 U2A 1_555 1_555
H12A O21 1_555 1_555
U2 O10 1_555 1_555
U2 O15 1_555 1_555
O7 C1 1_555 1_555
C1 C2 1_555 1_555
C3 C4 1_555 1_555
C6 C7 1_555 1_555
C8 C9 1_555 1_555
C14 C15 1_555 1_555
C19 C20 1_555 1_555
C21 C22 1_555 1_555
U2A O10A 1_555 1_555
U2A O15A 1_555 1_555
O7A C1A 1_555 1_555
C1A C2A 1_555 1_555
C3A C4A 1_555 1_555
C6A C7A 1_555 1_555
C8A C9A 1_555 1_555

#END
