
#######################################################################
#
#                 Cambridge Crystallographic Data Centre
#                                CCDC 
#
#######################################################################
#
# If this CIF has been generated from an entry in the Cambridge 
# Structural Database, then it will include bibliographic, chemical, 
# crystal, experimental, refinement or atomic coordinate data resulting 
# from the CCDC's data processing and validation procedures.
#
#######################################################################

data_DADNII
_chemical_formula_moiety         '(C6 H16 Eu2 Fe1 N1 O24 S4)n'
_symmetry_cell_setting           monoclinic
_symmetry_space_group_name_H-M   'C 2/c'
_symmetry_Int_Tables_number      15
_space_group_name_Hall           '-C 2yc'
loop_
_symmetry_equiv_pos_site_id
_symmetry_equiv_pos_as_xyz
1 x,y,z
2 -x,y,1/2-z
3 1/2+x,1/2+y,z
4 1/2-x,1/2+y,1/2-z
5 -x,-y,-z
6 x,-y,1/2+z
7 1/2-x,1/2-y,-z
8 1/2+x,1/2-y,1/2+z
_cell_length_a                   15.5244(13)
_cell_length_b                   16.3987(13)
_cell_length_c                   12.6433(10)
_cell_angle_alpha                90
_cell_angle_beta                 93.0750(10)
_cell_angle_gamma                90
_cell_volume                     3214.1
loop_
_atom_site_label
_atom_site_type_symbol
_atom_site_fract_x
_atom_site_fract_y
_atom_site_fract_z
C3 C -0.1133(17) -0.2361(18) 0.667(2)
H2 H -0.1035 -0.2768 0.7214
H3 H -0.1343 -0.2617 0.6029
H4 H -0.0601 -0.2084 0.6559
C4 C -0.2185(16) -0.0999(15) 0.651(2)
H5 H -0.2590 -0.0750 0.6957
H6 H -0.1732 -0.0619 0.6379
H7 H -0.2474 -0.1152 0.5849
N1 N -0.1812(16) -0.1734(14) 0.704(2)
H8 H -0.2267 -0.2036 0.7181
H9 H -0.1596 -0.1554 0.7660
O12 O 0.2225(16) 0.5066(16) 0.8605(18)
H10 H 0.2524 0.5141 0.9156
H11 H 0.2019 0.4605 0.8677
O13 O 0.012(3) 0.434(3) 0.8522(9)
Eu1 Eu 0.12197(3) 0.18899(3) 0.91147(3)
Fe1 Fe 0.0000 0.04959(10) 0.7500
S1 S 0.10725(13) 0.21920(14) 0.66703(15)
S2 S 0.18365(14) 0.34951(14) 1.0757(2)
O1 O 0.0545(4) 0.0622(4) 0.9011(5)
O2 O 0.1031(4) 0.1414(4) 0.7279(5)
O3 O 0.0863(4) 0.1432(4) 1.0766(4)
O4 O 0.0242(4) 0.2338(4) 0.6085(5)
O5 O 0.1267(5) 0.3211(5) 0.9888(7)
O6 O 0.1220(4) 0.2824(4) 0.7495(5)
O7 O 0.0749(5) 0.0412(4) 1.1842(6)
O8 O 0.1767(4) 0.2182(5) 0.5962(6)
O9 O 0.2548(4) 0.4001(4) 1.0408(7)
C1 C 0.0648(6) 0.0734(5) 1.0952(7)
O10 O 0.1315(6) 0.3889(7) 1.1526(8)
O11 O 0.2278(5) 0.2774(6) 1.1228(8)
C2 C 0.0368(10) 0.0220(10) 0.9969(10)
H1 H 0.0806 -0.0211 0.9997
O1D O -0.0545(4) -0.0622(4) 1.0989(5)
O3D O -0.0863(4) -0.1432(4) 0.9234(4)
O7D O -0.0749(5) -0.0412(4) 0.8158(6)
C1D C -0.0648(6) -0.0734(5) 0.9048(7)
C2D C -0.0368(10) -0.0220(10) 1.0031(10)
H1D H -0.0806 0.0211 1.0003
Eu1A Eu -0.12197(3) 0.18899(3) 0.58853(3)
S1A S -0.10725(13) 0.21920(14) 0.83297(15)
S2A S -0.18365(14) 0.34951(14) 0.4243(2)
O2A O -0.1031(4) 0.1414(4) 0.7721(5)
O4A O -0.0242(4) 0.2338(4) 0.8915(5)
O5A O -0.1267(5) 0.3211(5) 0.5112(7)
O6A O -0.1220(4) 0.2824(4) 0.7505(5)
O8A O -0.1767(4) 0.2182(5) 0.9038(6)
O9A O -0.2548(4) 0.4001(4) 0.4592(7)
O10A O -0.1315(6) 0.3889(7) 0.3474(8)
O11A O -0.2278(5) 0.2774(6) 0.3772(8)
Eu1D Eu -0.12197(3) -0.18899(3) 1.08853(3)
Eu1F Eu 0.37803(3) 0.31101(3) 1.08853(3)
Eu1G Eu -0.37803(3) 0.31101(3) 0.41147(3)
Fe1D Fe 0.0000 -0.04959(10) 1.2500
O1A O -0.0545(4) 0.0622(4) 0.5989(5)
O3A O -0.0863(4) 0.1432(4) 0.4234(4)
O7E O 0.0749(5) -0.0412(4) 0.6842(6)
O9F O 0.2452(4) 0.0999(4) 0.9592(7)
O9G O -0.2452(4) 0.0999(4) 0.5408(7)
O11F O 0.2722(5) 0.2226(6) 0.8772(8)
O11G O -0.2722(5) 0.2226(6) 0.6228(8)
loop_
_geom_bond_atom_site_label_1
_geom_bond_atom_site_label_2
_geom_bond_site_symmetry_1
_geom_bond_site_symmetry_2
Eu1 O1 1_555 1_555
Fe1 O1 1_555 1_555
S1 O2 1_555 1_555
S2 O5 1_555 1_555
O1 C2 1_555 1_555
O2 Eu1 1_555 1_555
O3 Eu1 1_555 1_555
O4 S1 1_555 1_555
O5 Eu1 1_555 1_555
O6 Eu1 1_555 1_555
O7 C1 1_555 1_555
O8 S1 1_555 1_555
O9 S2 1_555 1_555
C1 O3 1_555 1_555
O10 S2 1_555 1_555
O11 S2 1_555 1_555
C2 C1 1_555 1_555
H1 C2 1_555 1_555
C3 H2 1_555 1_555
H3 C3 1_555 1_555
H4 C3 1_555 1_555
C4 H5 1_555 1_555
H6 C4 1_555 1_555
H7 C4 1_555 1_555
N1 C3 1_555 1_555
H8 N1 1_555 1_555
H9 N1 1_555 1_555
O12 H10 1_555 1_555
H11 O12 1_555 1_555
O1D C2D 1_555 1_555
O3D C1D 1_555 1_555
O7D Fe1 1_555 1_555
C1D O7D 1_555 1_555
C2D C2 1_555 1_555
H1D C2D 1_555 1_555
Eu1A O4 1_555 1_555
S1A O2A 1_555 1_555
S2A O5A 1_555 1_555
O2A Fe1 1_555 1_555
O4A Eu1 1_555 1_555
O5A Eu1A 1_555 1_555
O6A Eu1A 1_555 1_555
O8A S1A 1_555 1_555
O9A S2A 1_555 1_555
O10A S2A 1_555 1_555
O11A S2A 1_555 1_555
Eu1D O1D 1_555 1_555
Eu1F O9 1_555 1_555
Eu1G O9A 1_555 1_555
Fe1D O7 1_555 1_555
O1A Fe1 1_555 1_555
O3A Eu1A 1_555 1_555
O7E Fe1 1_555 1_555
O9F Eu1 1_555 1_555
O9G Eu1A 1_555 1_555
O11F Eu1 1_555 1_555
O11G Eu1A 1_555 1_555
Fe1 O2 1_555 1_555
S1 O6 1_555 1_555
O11 Eu1F 1_555 1_555
C4 N1 1_555 1_555
O1D Fe1D 1_555 1_555
O3D Eu1D 1_555 1_555
C1D C2D 1_555 1_555
Eu1A O2A 1_555 1_555
Eu1A O1A 1_555 1_555
S1A O4A 1_555 1_555
S1A O6A 1_555 1_555
O11A Eu1G 1_555 1_555

#END
