
#######################################################################
#
#                 Cambridge Crystallographic Data Centre
#                                CCDC 
#
#######################################################################
#
# If this CIF has been generated from an entry in the Cambridge 
# Structural Database, then it will include bibliographic, chemical, 
# crystal, experimental, refinement or atomic coordinate data resulting 
# from the CCDC's data processing and validation procedures.
#
#######################################################################

data_DADNOO
_chemical_formula_moiety         '(C6 H16 Dy2 Fe1 N1 O24 S4)n'
_symmetry_cell_setting           monoclinic
_symmetry_space_group_name_H-M   'C 2/c'
_symmetry_Int_Tables_number      15
_space_group_name_Hall           '-C 2yc'
loop_
_symmetry_equiv_pos_site_id
_symmetry_equiv_pos_as_xyz
1 x,y,z
2 -x,y,1/2-z
3 1/2+x,1/2+y,z
4 1/2-x,1/2+y,1/2-z
5 -x,-y,-z
6 x,-y,1/2+z
7 1/2-x,1/2-y,-z
8 1/2+x,1/2-y,1/2+z
_cell_length_a                   15.576(4)
_cell_length_b                   16.427(4)
_cell_length_c                   12.477(3)
_cell_angle_alpha                90
_cell_angle_beta                 92.314(4)
_cell_angle_gamma                90
_cell_volume                     3189.85
loop_
_atom_site_label
_atom_site_type_symbol
_atom_site_fract_x
_atom_site_fract_y
_atom_site_fract_z
C3 C -0.126(2) -0.220(2) 0.672(3)
H2 H -0.1098 -0.2612 0.7231
H3 H -0.1496 -0.2443 0.6078
H4 H -0.0771 -0.1874 0.6563
C4 C -0.2223(16) -0.1003(16) 0.646(2)
H5 H -0.2649 -0.0672 0.6786
H6 H -0.1737 -0.0673 0.6300
H7 H -0.2461 -0.1242 0.5815
N1 N -0.1950(19) -0.1646(15) 0.721(2)
H8 H -0.2403 -0.1947 0.7365
H9 H -0.1737 -0.1424 0.7811
O12 O 0.221(2) 0.507(2) 0.858(2)
H10 H 0.2513 0.5150 0.9136
H11 H 0.2008 0.4614 0.8656
O13 O 0.011(2) 0.437(2) 0.8543(8)
Dy1 Dy 0.11973(3) 0.18711(3) 0.90730(3)
Fe1 Fe 0.0000 0.04831(11) 0.7500
S1 S 0.10489(15) 0.21941(16) 0.66356(17)
S2 S 0.18876(16) 0.35127(17) 1.0729(2)
O1 O 0.0568(4) 0.0625(4) 0.8993(4)
O2 O 0.1011(4) 0.1410(4) 0.7236(5)
O3 O 0.0837(5) 0.1451(4) 1.0728(5)
O4 O 0.0216(4) 0.2337(4) 0.6075(5)
O5 O 0.1358(6) 0.3111(5) 0.9902(8)
O6 O 0.1207(5) 0.2819(5) 0.7482(5)
O7 O 0.0728(5) 0.0423(4) 1.1828(6)
O8 O 0.1735(5) 0.2177(6) 0.5893(6)
O9 O 0.2601(5) 0.3937(5) 1.0274(9)
C1 C 0.0650(7) 0.0731(6) 1.0923(8)
O10 O 0.1348(7) 0.4002(8) 1.1350(12)
O11 O 0.2341(6) 0.2913(7) 1.1394(8)
C2 C 0.0416(9) 0.0192(9) 0.9978(8)
H1 H 0.0835 -0.0253 1.0009
O1D O -0.0568(4) -0.0625(4) 1.1007(4)
O3D O -0.0837(5) -0.1451(4) 0.9272(5)
O7D O -0.0728(5) -0.0423(4) 0.8172(6)
C1D C -0.0650(7) -0.0731(6) 0.9077(8)
C2D C -0.0416(9) -0.0192(9) 1.0022(8)
H1D H -0.0835 0.0253 0.9991
Dy1A Dy -0.11973(3) 0.18711(3) 0.59270(3)
S1A S -0.10489(15) 0.21941(16) 0.83644(17)
S2A S -0.18876(16) 0.35127(17) 0.4271(2)
O2A O -0.1011(4) 0.1410(4) 0.7764(5)
O4A O -0.0216(4) 0.2337(4) 0.8925(5)
O5A O -0.1358(6) 0.3111(5) 0.5098(8)
O6A O -0.1207(5) 0.2819(5) 0.7518(5)
O8A O -0.1735(5) 0.2177(6) 0.9107(6)
O9A O -0.2601(5) 0.3937(5) 0.4726(9)
O10A O -0.1348(7) 0.4002(8) 0.3650(12)
O11A O -0.2341(6) 0.2913(7) 0.3606(8)
Dy1D Dy -0.11973(3) -0.18711(3) 1.09270(3)
Dy1F Dy 0.38027(3) 0.31289(3) 1.09270(3)
Dy1G Dy -0.38027(3) 0.31289(3) 0.40730(3)
Fe1D Fe 0.0000 -0.04831(11) 1.2500
O1A O -0.0568(4) 0.0625(4) 0.6007(4)
O3A O -0.0837(5) 0.1451(4) 0.4272(5)
O7E O 0.0728(5) -0.0423(4) 0.6828(6)
O9F O 0.2399(5) 0.1063(5) 0.9726(9)
O9G O -0.2399(5) 0.1063(5) 0.5274(9)
O11F O 0.2659(6) 0.2087(7) 0.8606(8)
O11G O -0.2659(6) 0.2087(7) 0.6394(8)
loop_
_geom_bond_atom_site_label_1
_geom_bond_atom_site_label_2
_geom_bond_site_symmetry_1
_geom_bond_site_symmetry_2
Dy1 O1 1_555 1_555
Fe1 O1 1_555 1_555
S1 O2 1_555 1_555
S2 O5 1_555 1_555
O1 C2 1_555 1_555
O2 Dy1 1_555 1_555
O3 Dy1 1_555 1_555
O4 S1 1_555 1_555
O5 Dy1 1_555 1_555
O6 Dy1 1_555 1_555
O7 C1 1_555 1_555
O8 S1 1_555 1_555
O9 S2 1_555 1_555
C1 O3 1_555 1_555
O10 S2 1_555 1_555
O11 S2 1_555 1_555
C2 C1 1_555 1_555
H1 C2 1_555 1_555
C3 H2 1_555 1_555
H3 C3 1_555 1_555
H4 C3 1_555 1_555
C4 H5 1_555 1_555
H6 C4 1_555 1_555
H7 C4 1_555 1_555
N1 C3 1_555 1_555
H8 N1 1_555 1_555
H9 N1 1_555 1_555
O12 H10 1_555 1_555
H11 O12 1_555 1_555
O1D C2D 1_555 1_555
O3D C1D 1_555 1_555
O7D Fe1 1_555 1_555
C1D O7D 1_555 1_555
C2D C2 1_555 1_555
H1D C2D 1_555 1_555
Dy1A O4 1_555 1_555
S1A O2A 1_555 1_555
S2A O5A 1_555 1_555
O2A Fe1 1_555 1_555
O4A Dy1 1_555 1_555
O5A Dy1A 1_555 1_555
O6A Dy1A 1_555 1_555
O8A S1A 1_555 1_555
O9A S2A 1_555 1_555
O10A S2A 1_555 1_555
O11A S2A 1_555 1_555
Dy1D O1D 1_555 1_555
Dy1F O9 1_555 1_555
Dy1G O9A 1_555 1_555
Fe1D O7 1_555 1_555
O1A Fe1 1_555 1_555
O3A Dy1A 1_555 1_555
O7E Fe1 1_555 1_555
O9F Dy1 1_555 1_555
O9G Dy1A 1_555 1_555
O11F Dy1 1_555 1_555
O11G Dy1A 1_555 1_555
Fe1 O2 1_555 1_555
S1 O6 1_555 1_555
O11 Dy1F 1_555 1_555
C4 N1 1_555 1_555
O1D Fe1D 1_555 1_555
O3D Dy1D 1_555 1_555
C1D C2D 1_555 1_555
Dy1A O2A 1_555 1_555
Dy1A O1A 1_555 1_555
S1A O4A 1_555 1_555
S1A O6A 1_555 1_555
O11A Dy1G 1_555 1_555

#END
